Compound 1
Actelion Java MolfileCreator 2.0

  0  0  0  0  0  0              0 V3000
M  V30 BEGIN CTAB
M  V30 COUNTS 42 44 0 0 0
M  V30 BEGIN ATOM
M  V30 1 S -0.7316 -3.9881 2.9288 0
M  V30 2 O -1.4146 -5.0106 2.1637 0
M  V30 3 O -1.0774 -3.7416 4.3133 0
M  V30 4 N 0.9242 -4.2799 2.8881 0
M  V30 5 C -0.9089 -2.4424 2.0615 0
M  V30 6 C 1.5324 -4.2728 1.6205 0
M  V30 7 C -0.6321 -1.2463 2.7301 0
M  V30 8 C -1.3594 -2.4327 0.7384 0
M  V30 9 N 2.3494 -3.2179 1.4604 0
M  V30 10 C 1.2843 -5.2319 0.6547 0
M  V30 11 C -0.776 -0.0329 2.0524 0
M  V30 12 C -1.4994 -1.2133 0.0714 0
M  V30 13 C 2.95 -3.1084 0.2551 0
M  V30 14 C 1.919 -5.0922 -0.5748 0
M  V30 15 C -1.1948 -0.0055 0.7163 0
M  V30 16 C 2.7672 -4.0092 -0.783 0
M  V30 17 N -1.3527 1.2314 0.067 0
M  V30 18 N -0.5085 1.3526 -0.8484 0
M  V30 19 C -0.6631 2.5973 -1.4816 0
M  V30 20 C -0.2016 3.774 -0.8785 0
M  V30 21 C -1.2429 2.664 -2.7521 0
M  V30 22 C -0.3351 5.0118 -1.5249 0
M  V30 23 C -1.38 3.89 -3.405 0
M  V30 24 C -0.9295 5.0583 -2.7929 0
M  V30 25 C 0.1753 6.2042 -0.8075 0
M  V30 26 O -1.1063 6.2105 -3.5085 0
M  V30 27 O 0.7099 6.2101 0.285 0
M  V30 28 O -0.0064 7.3511 -1.4943 0
M  V30 29 H 1.4215 -3.6672 3.5306 0
M  V30 30 H -0.3084 -1.2483 3.7683 0
M  V30 31 H -1.5996 -3.359 0.2218 0
M  V30 32 H 0.6204 -6.0673 0.8476 0
M  V30 33 H -0.5601 0.9013 2.5652 0
M  V30 34 H -1.8487 -1.198 -0.9579 0
M  V30 35 H 3.6039 -2.2482 0.139 0
M  V30 36 H 1.7532 -5.822 -1.3624 0
M  V30 37 H 3.2763 -3.8714 -1.7308 0
M  V30 38 H 0.2612 3.7152 0.1048 0
M  V30 39 H -1.5938 1.7542 -3.2325 0
M  V30 40 H -1.8374 3.9349 -4.3902 0
M  V30 41 H -0.7585 6.9519 -2.9686 0
M  V30 42 H 0.3748 8.0296 -0.8915 0
M  V30 END ATOM
M  V30 BEGIN BOND
M  V30 1 2 1 2
M  V30 2 2 1 3
M  V30 3 1 1 4
M  V30 4 1 1 5
M  V30 5 1 4 6
M  V30 6 2 5 7
M  V30 7 1 5 8
M  V30 8 2 6 9
M  V30 9 1 6 10
M  V30 10 1 7 11
M  V30 11 2 8 12
M  V30 12 1 9 13
M  V30 13 2 10 14
M  V30 14 2 11 15
M  V30 15 2 13 16
M  V30 16 1 15 17
M  V30 17 2 17 18
M  V30 18 1 18 19
M  V30 19 2 19 20
M  V30 20 1 19 21
M  V30 21 1 20 22
M  V30 22 2 21 23
M  V30 23 2 22 24
M  V30 24 1 22 25
M  V30 25 1 24 26
M  V30 26 2 25 27
M  V30 27 1 25 28
M  V30 28 1 12 15
M  V30 29 1 14 16
M  V30 30 1 23 24
M  V30 31 1 4 29
M  V30 32 1 7 30
M  V30 33 1 8 31
M  V30 34 1 10 32
M  V30 35 1 11 33
M  V30 36 1 12 34
M  V30 37 1 13 35
M  V30 38 1 14 36
M  V30 39 1 16 37
M  V30 40 1 20 38
M  V30 41 1 21 39
M  V30 42 1 23 40
M  V30 43 1 26 41
M  V30 44 1 28 42
M  V30 END BOND
M  V30 END CTAB
M  END
>  <Column 1>
0

>  <level_0>
0

>  <index>
0

>  <Unnamed: 0>
0

>  <NO.>
1

>  <Name>
sulphasalazine

>  <IUPAC_name>
2-hydroxy-5-[[4-(pyridin-2-ylsulfamoyl)phenyl]diazenyl]benzoic acid

>  <SMILES>
O=C(O)c1cc(N=Nc2ccc(S(=O)(=O)Nc3ccccn3)cc2)ccc1O

>  <CID>
5339

>  <logBB>
-2.69

>  <BBB+/BBB->
BBB-

>  <Inchi>
InChI=1S/C18H14N4O5S/c23-16-9-6-13(11-15(16)18(24)25)21-20-12-4-7-14(8-5-12)28(26-27)22-17-3-1-2-10-19-17/h1-11-23H-(H-19-22)(H-24-25)

>  <threshold>


>  <reference>
R2|R2|R25|R46|

>  <group>
A

>  <Class>
-1

>  <ABC>
21.72

>  <ABCGG>
16.31

>  <nAcid>
1

>  <nBase>
0

>  <nAromAtom>
18

>  <nAromBond>
18

>  <nAtom>
42

>  <nHeavyAtom>
28

>  <nSpiro>
0

>  <nBridgehead>
0

>  <nHetero>
10

>  <nN>
4

>  <nO>
5

>  <nF>
0

>  <BalabanJ>
1.38

>  <BertzCT>
1130.4

>  <nBonds>
44

>  <nBondsO>
30

>  <nBondsS>
22

>  <nBondsD>
4

>  <nBondsT>
0

>  <nBondsA>
18

>  <nBondsM>
22

>  <nBondsKS>
31

>  <nBondsKD>
13

>  <RNCG>
0.18

>  <RPCG>
0.12

>  <FCSP3>
0

>  <SZ>
34.33

>  <Sm>
33.17

>  <Sv>
29.59

>  <Sse>
43.6

>  <Sp>
30.36

>  <Si>
47.04

>  <MZ>
0.82

>  <Mm>
0.79

>  <Mv>
0.7

>  <Mse>
1.04

>  <Mp>
0.72

>  <Mi>
1.12

>  <NsCH3>
0

>  <NdCH2>
0

>  <NssCH2>
0

>  <NtCH>
0

>  <NdsCH>
0

>  <NaaCH>
11

>  <NsssCH>
0

>  <NddC>
0

>  <NtsC>
0

>  <NdssC>
1

>  <NaasC>
6

>  <NaaaC>
0

>  <NssssC>
0

>  <NsNH3>
0

>  <NsNH2>
0

>  <NssNH2>
0

>  <NdNH>
0

>  <NssNH>
1

>  <NaaNH>
0

>  <NtN>
0

>  <NsssNH>
0

>  <NdsN>
2

>  <NaaN>
1

>  <NsssN>
0

>  <NddsN>
0

>  <NaasN>
0

>  <NssssN>
0

>  <NsOH>
2

>  <NdO>
3

>  <NssO>
0

>  <NaaO>
0

>  <NsF>
0

>  <NsSiH3>
0

>  <NssSiH2>
0

>  <NsssSiH>
0

>  <NssssSi>
0

>  <NsPH2>
0

>  <NssPH>
0

>  <NsssP>
0

>  <NdsssP>
0

>  <NsssssP>
0

>  <NsSH>
0

>  <NdS>
0

>  <NssS>
0

>  <NaaS>
0

>  <NdssS>
0

>  <NddssS>
1

>  <NsCl>
0

>  <NsBr>
0

>  <NsI>
0

>  <fragCpx>
144.1

>  <fMF>
0.52

>  <nHBAcc>
7

>  <nHBDon>
3

>  <Kier1>
22.68

>  <Kier2>
10.35

>  <Lipinski>
1

>  <GhoseFilter>
1

>  <FilterItLogS>
-4.19

>  <VMcGowan>
270.22

>  <LabuteASA>
159.64

>  <PEOE_VSA1>
10.21

>  <PEOE_VSA2>
4.72

>  <PEOE_VSA3>
18.2

>  <PEOE_VSA4>
10.23

>  <PEOE_VSA5>
0

>  <PEOE_VSA6>
6.07

>  <PEOE_VSA7>
54.6

>  <PEOE_VSA8>
6.2

>  <PEOE_VSA9>
16.27

>  <PEOE_VSA10>
17.13

>  <PEOE_VSA11>
0

>  <PEOE_VSA12>
0

>  <PEOE_VSA13>
10.02

>  <SMR_VSA1>
23.43

>  <SMR_VSA2>
0

>  <SMR_VSA3>
4.98

>  <SMR_VSA4>
10.23

>  <SMR_VSA5>
4.9

>  <SMR_VSA6>
4.72

>  <SMR_VSA7>
72.42

>  <SMR_VSA8>
0

>  <SMR_VSA9>
5.75

>  <SlogP_VSA1>
4.72

>  <SlogP_VSA2>
29.58

>  <SlogP_VSA3>
10.02

>  <SlogP_VSA4>
0

>  <SlogP_VSA5>
10.36

>  <SlogP_VSA6>
81.98

>  <SlogP_VSA7>
0

>  <SlogP_VSA8>
0

>  <SlogP_VSA9>
0

>  <SlogP_VSA10>
17.19

>  <SlogP_VSA11>
5.75

>  <EState_VSA1>
15.99

>  <EState_VSA2>
27.71

>  <EState_VSA3>
5.69

>  <EState_VSA4>
0

>  <EState_VSA5>
54.73

>  <EState_VSA6>
12.13

>  <EState_VSA7>
0

>  <EState_VSA8>
19.93

>  <EState_VSA9>
5.11

>  <EState_VSA10>
18.32

>  <VSA_EState1>
27.04

>  <VSA_EState2>
14.95

>  <VSA_EState3>
26.3

>  <VSA_EState4>
0.3

>  <VSA_EState5>
-1.46

>  <VSA_EState6>
14.28

>  <VSA_EState7>
1.47

>  <VSA_EState8>
0

>  <VSA_EState9>
-3.79

>  <apol>
50.71

>  <bpol>
24.42

>  <nRing>
3

>  <nHRing>
1

>  <naRing>
3

>  <naHRing>
1

>  <nARing 2>
0

>  <nAHRing 2>
0

>  <nFRing>
0

>  <nFHRing>
0

>  <nFaRing>
0

>  <nFaHRing>
0

>  <nFARing 2>
0

>  <nFAHRing 2>
0

>  <nRot>
6

>  <SLogP>
3.7

>  <SMR>
100.73

>  <TopoPSA(NO)>
141.31

>  <TopoPSA>
149.69

>  <JGI1>
0.23

>  <JGI2>
0.08

>  <JGI3>
0.04

>  <JGI4>
0.04

>  <JGI5>
0.03

>  <Diameter>
16

>  <Radius>
8

>  <TMWC10>
133.45

>  <TSRW10>
63.2

>  <MW>
398.07

>  <AMW>
9.48

>  <WPath>
2428

>  <WPol>
42

>  <Zagreb1>
144

>  <Zagreb2>
165

>  <mZagreb2>
6.1

>  <yes>


>  <nAR-cont>
0.336376

>  <nHA-cont>
0.82432561

>  <MWHBN>
0.501210633

>  <MWHBN-cont>
0

>  <TPSA-cont>
0

>  <pka_cont>
0.97

>  <yes.1>


>  <BBB_SCORE>
1.64570161

>  <MMFF94 Energy>
-53.167

$$$$
Compound 2
Actelion Java MolfileCreator 2.0

  0  0  0  0  0  0              0 V3000
M  V30 BEGIN CTAB
M  V30 COUNTS 18 19 0 0 0
M  V30 BEGIN ATOM
M  V30 1 I -0.9344 -4.3377 -0.5096 0
M  V30 2 C -0.408 -2.3758 -0.0287 0
M  V30 3 C -0.5571 -1.3251 -0.9337 0
M  V30 4 C 0.1068 -2.1184 1.2374 0
M  V30 5 O -1.0652 -1.5543 -2.1945 0
M  V30 6 C -0.2053 -0.0149 -0.6117 0
M  V30 7 C 0.4667 -0.8135 1.5837 0
M  V30 8 N -0.3862 0.9354 -1.5545 0
M  V30 9 C 0.3176 0.2588 0.6684 0
M  V30 10 Cl 1.1008 -0.5688 3.1775 0
M  V30 11 C -0.0474 2.2065 -1.249 0
M  V30 12 C 0.6557 1.6041 0.9365 0
M  V30 13 C 0.4721 2.5874 -0.0295 0
M  V30 14 H 0.2313 -2.9227 1.9587 0
M  V30 15 H -1.0666 -0.6701 -2.6215 0
M  V30 16 H -0.2113 2.9343 -2.0393 0
M  V30 17 H 1.0651 1.8965 1.901 0
M  V30 18 H 0.7289 3.6224 0.1679 0
M  V30 END ATOM
M  V30 BEGIN BOND
M  V30 1 1 1 2
M  V30 2 2 2 3
M  V30 3 1 2 4
M  V30 4 1 3 5
M  V30 5 1 3 6
M  V30 6 2 4 7
M  V30 7 2 6 8
M  V30 8 1 6 9
M  V30 9 1 7 10
M  V30 10 1 8 11
M  V30 11 2 9 12
M  V30 12 2 11 13
M  V30 13 1 7 9
M  V30 14 1 12 13
M  V30 15 1 4 14
M  V30 16 1 5 15
M  V30 17 1 11 16
M  V30 18 1 12 17
M  V30 19 1 13 18
M  V30 END BOND
M  V30 END CTAB
M  END
>  <Column 1>
2

>  <level_0>
2

>  <index>
2

>  <Unnamed: 0>
2

>  <NO.>
3

>  <Name>
clioquinol

>  <IUPAC_name>
5-chloro-7-iodoquinolin-8-ol

>  <SMILES>
Oc1c(I)cc(Cl)c2cccnc12

>  <CID>
2788

>  <logBB>
-2.4

>  <BBB+/BBB->
BBB-

>  <Inchi>
InChI=1S/C9H5ClINO/c10-6-4-7(11)9(13)8-5(6)2-1-3-12-8/h1-4-13H

>  <threshold>


>  <reference>
R18|R26|R27|

>  <group>
A

>  <Class>
-1

>  <ABC>
10.07

>  <ABCGG>
8.93

>  <nAcid>
0

>  <nBase>
0

>  <nAromAtom>
10

>  <nAromBond>
11

>  <nAtom>
18

>  <nHeavyAtom>
13

>  <nSpiro>
0

>  <nBridgehead>
0

>  <nHetero>
4

>  <nN>
1

>  <nO>
1

>  <nF>
0

>  <BalabanJ>
2.1

>  <BertzCT>
472.37

>  <nBonds>
19

>  <nBondsO>
14

>  <nBondsS>
8

>  <nBondsD>
0

>  <nBondsT>
0

>  <nBondsA>
11

>  <nBondsM>
11

>  <nBondsKS>
14

>  <nBondsKD>
5

>  <RNCG>
0.51

>  <RPCG>
0.29

>  <FCSP3>
0

>  <SZ>
24

>  <Sm>
25.43

>  <Sv>
14.5

>  <Sse>
18.49

>  <Sp>
16.64

>  <Si>
19.62

>  <MZ>
1.33

>  <Mm>
1.41

>  <Mv>
0.81

>  <Mse>
1.03

>  <Mp>
0.92

>  <Mi>
1.09

>  <NsCH3>
0

>  <NdCH2>
0

>  <NssCH2>
0

>  <NtCH>
0

>  <NdsCH>
0

>  <NaaCH>
4

>  <NsssCH>
0

>  <NddC>
0

>  <NtsC>
0

>  <NdssC>
0

>  <NaasC>
3

>  <NaaaC>
2

>  <NssssC>
0

>  <NsNH3>
0

>  <NsNH2>
0

>  <NssNH2>
0

>  <NdNH>
0

>  <NssNH>
0

>  <NaaNH>
0

>  <NtN>
0

>  <NsssNH>
0

>  <NdsN>
0

>  <NaaN>
1

>  <NsssN>
0

>  <NddsN>
0

>  <NaasN>
0

>  <NssssN>
0

>  <NsOH>
1

>  <NdO>
0

>  <NssO>
0

>  <NaaO>
0

>  <NsF>
0

>  <NsSiH3>
0

>  <NssSiH2>
0

>  <NsssSiH>
0

>  <NssssSi>
0

>  <NsPH2>
0

>  <NssPH>
0

>  <NsssP>
0

>  <NdsssP>
0

>  <NsssssP>
0

>  <NsSH>
0

>  <NdS>
0

>  <NssS>
0

>  <NaaS>
0

>  <NdssS>
0

>  <NddssS>
0

>  <NsCl>
1

>  <NsBr>
0

>  <NsI>
1

>  <fragCpx>
40.04

>  <fMF>
0.56

>  <nHBAcc>
2

>  <nHBDon>
1

>  <Kier1>
9.55

>  <Kier2>
3.63

>  <Lipinski>
1

>  <GhoseFilter>
0

>  <FilterItLogS>
-4.07

>  <VMcGowan>
148.37

>  <LabuteASA>
93.69

>  <PEOE_VSA1>
5.11

>  <PEOE_VSA2>
4.98

>  <PEOE_VSA3>
0

>  <PEOE_VSA4>
0

>  <PEOE_VSA5>
0

>  <PEOE_VSA6>
11.6

>  <PEOE_VSA7>
40.79

>  <PEOE_VSA8>
11.58

>  <PEOE_VSA9>
8.59

>  <PEOE_VSA10>
5.52

>  <PEOE_VSA11>
5.75

>  <PEOE_VSA12>
0

>  <PEOE_VSA13>
0

>  <SMR_VSA1>
5.11

>  <SMR_VSA2>
0

>  <SMR_VSA3>
4.98

>  <SMR_VSA4>
0

>  <SMR_VSA5>
0

>  <SMR_VSA6>
0

>  <SMR_VSA7>
32.99

>  <SMR_VSA8>
0

>  <SMR_VSA9>
5.75

>  <SlogP_VSA1>
0

>  <SlogP_VSA2>
10.09

>  <SlogP_VSA3>
0

>  <SlogP_VSA4>
3.57

>  <SlogP_VSA5>
0

>  <SlogP_VSA6>
24.4

>  <SlogP_VSA7>
5.02

>  <SlogP_VSA8>
10.9

>  <SlogP_VSA9>
0

>  <SlogP_VSA10>
0

>  <SlogP_VSA11>
5.75

>  <EState_VSA1>
0

>  <EState_VSA2>
5.75

>  <EState_VSA3>
14.11

>  <EState_VSA4>
5.39

>  <EState_VSA5>
0

>  <EState_VSA6>
18.33

>  <EState_VSA7>
28.66

>  <EState_VSA8>
4.98

>  <EState_VSA9>
11.6

>  <EState_VSA10>
5.11

>  <VSA_EState1>
0.72

>  <VSA_EState2>
4.06

>  <VSA_EState3>
11.05

>  <VSA_EState4>
0.56

>  <VSA_EState5>
0.2

>  <VSA_EState6>
5.35

>  <VSA_EState7>
1.63

>  <VSA_EState8>
0

>  <VSA_EState9>
0

>  <apol>
27.8

>  <bpol>
10.35

>  <nRing>
2

>  <nHRing>
1

>  <naRing>
2

>  <naHRing>
1

>  <nARing 2>
0

>  <nAHRing 2>
0

>  <nFRing>
1

>  <nFHRing>
1

>  <nFaRing>
1

>  <nFaHRing>
1

>  <nFARing 2>
0

>  <nFAHRing 2>
0

>  <nRot>
0

>  <SLogP>
3.2

>  <SMR>
61.13

>  <TopoPSA(NO)>
33.12

>  <TopoPSA>
33.12

>  <JGI1>
0.18

>  <JGI2>
0.1

>  <JGI3>
0.06

>  <JGI4>
0.06

>  <JGI5>
0.03

>  <Diameter>
6

>  <Radius>
3

>  <TMWC10>
96.74

>  <TSRW10>
44.83

>  <MW>
304.91

>  <AMW>
16.94

>  <WPath>
218

>  <WPol>
21

>  <Zagreb1>
68

>  <Zagreb2>
81

>  <mZagreb2>
2.86

>  <yes>


>  <nAR-cont>
0.336376

>  <nHA-cont>
0.841215992

>  <MWHBN>
0.17180485

>  <MWHBN-cont>
0.976706461

>  <TPSA-cont>
0.768801834

>  <pka_cont>
0.97

>  <yes.1>


>  <BBB_SCORE>
4.665255352

>  <MMFF94 Energy>
43.664

$$$$
Compound 3
Actelion Java MolfileCreator 2.0

  0  0  0  0  0  0              0 V3000
M  V30 BEGIN CTAB
M  V30 COUNTS 35 35 0 0 0
M  V30 BEGIN ATOM
M  V30 1 Br 2.4216 0.4839 1.291 0
M  V30 2 C 1.8313 -0.7193 2.6315 0
M  V30 3 C 0.6861 -0.5225 3.4095 0
M  V30 4 C 2.605 -1.8624 2.8483 0
M  V30 5 N 0.3283 -1.4111 4.3826 0
M  V30 6 C -0.2268 0.6729 3.2641 0
M  V30 7 C 2.2314 -2.7748 3.8282 0
M  V30 8 C 1.0945 -2.5074 4.5649 0
M  V30 9 S -1.892 0.2733 2.6168 0
M  V30 10 C -1.4849 -0.2016 0.9044 0
M  V30 11 C -1.2599 1.019 0.0106 0
M  V30 12 N -0.8303 0.5522 -1.3027 0
M  V30 13 C -0.572 1.3713 -2.2571 0
M  V30 14 N -0.706 2.7613 -2.0894 0
M  V30 15 N -0.1708 0.9389 -3.4834 0
M  V30 16 C -0.2359 3.5762 -3.026 0
M  V30 17 C 0.0022 -0.4551 -3.8324 0
M  V30 18 N 0.1691 4.276 -3.8542 0
M  V30 19 C -1.3256 -1.0731 -4.2336 0
M  V30 20 H 3.4995 -2.0492 2.2597 0
M  V30 21 H 0.2062 1.4834 2.6751 0
M  V30 22 H -0.3757 1.0939 4.2659 0
M  V30 23 H 2.8143 -3.67 4.0133 0
M  V30 24 H 0.7564 -3.184 5.3447 0
M  V30 25 H -0.6244 -0.8768 0.8899 0
M  V30 26 H -2.3315 -0.7785 0.5148 0
M  V30 27 H -2.1969 1.5831 -0.0735 0
M  V30 28 H -0.4927 1.671 0.4411 0
M  V30 29 H -1.0077 3.1199 -1.1881 0
M  V30 30 H -0.0355 1.5938 -4.2416 0
M  V30 31 H 0.696 -0.5198 -4.6778 0
M  V30 32 H 0.4568 -1.0162 -3.0082 0
M  V30 33 H -1.1839 -2.1151 -4.5365 0
M  V30 34 H -2.0411 -1.0542 -3.4051 0
M  V30 35 H -1.7729 -0.5304 -5.0732 0
M  V30 END ATOM
M  V30 BEGIN BOND
M  V30 1 1 1 2
M  V30 2 2 2 3
M  V30 3 1 2 4
M  V30 4 1 3 5
M  V30 5 1 3 6
M  V30 6 2 4 7
M  V30 7 2 5 8
M  V30 8 1 6 9
M  V30 9 1 9 10
M  V30 10 1 10 11
M  V30 11 1 11 12
M  V30 12 2 12 13
M  V30 13 1 13 14
M  V30 14 1 13 15
M  V30 15 1 14 16
M  V30 16 1 15 17
M  V30 17 3 16 18
M  V30 18 1 17 19
M  V30 19 1 7 8
M  V30 20 1 4 20
M  V30 21 1 6 21
M  V30 22 1 6 22
M  V30 23 1 7 23
M  V30 24 1 8 24
M  V30 25 1 10 25
M  V30 26 1 10 26
M  V30 27 1 11 27
M  V30 28 1 11 28
M  V30 29 1 14 29
M  V30 30 1 15 30
M  V30 31 1 17 31
M  V30 32 1 17 32
M  V30 33 1 19 33
M  V30 34 1 19 34
M  V30 35 1 19 35
M  V30 END BOND
M  V30 END CTAB
M  END
>  <Column 1>
3

>  <level_0>
3

>  <index>
3

>  <Unnamed: 0>
3

>  <NO.>
4

>  <Name>
bbcpd11 (cimetidine analog) (y-g13)

>  <IUPAC_name>
2-[2-[(3-bromopyridin-2-yl)methylsulfanyl]ethyl]-1-cyano-3-ethylguanidine

>  <SMILES>
CCNC(=NCCSCc1ncccc1Br)NC#N

>  <CID>
14022517

>  <logBB>
-2.15

>  <BBB+/BBB->
BBB-

>  <Inchi>
InChI=1S/C12H16BrN5S/c1-2-15-12(18-9-14)17-6-7-19-8-11-10(13)4-3-5-16-11/h3-5H-2-6-8H2-1H3-(H2-15-17-18)

>  <threshold>


>  <reference>
R2|R2|R8|R40|R2|R2|R2|R2|R18|R21|R25|R25|R26|R27|R27|R35|R36|R43|R46|R46|R47|R49|R4|

>  <group>
A

>  <Class>
-1

>  <ABC>
13.5

>  <ABCGG>
11.61

>  <nAcid>
0

>  <nBase>
3

>  <nAromAtom>
6

>  <nAromBond>
6

>  <nAtom>
35

>  <nHeavyAtom>
19

>  <nSpiro>
0

>  <nBridgehead>
0

>  <nHetero>
7

>  <nN>
5

>  <nO>
0

>  <nF>
0

>  <BalabanJ>
2.03

>  <BertzCT>
457.68

>  <nBonds>
35

>  <nBondsO>
19

>  <nBondsS>
27

>  <nBondsD>
1

>  <nBondsT>
1

>  <nBondsA>
6

>  <nBondsM>
8

>  <nBondsKS>
30

>  <nBondsKD>
4

>  <RNCG>
0.22

>  <RPCG>
0.12

>  <FCSP3>
0.42

>  <SZ>
29

>  <Sm>
28.5

>  <Sv>
22.6

>  <Sse>
35.17

>  <Sp>
25.24

>  <Si>
39.75

>  <MZ>
0.83

>  <Mm>
0.81

>  <Mv>
0.65

>  <Mse>
1

>  <Mp>
0.72

>  <Mi>
1.14

>  <NsCH3>
1

>  <NdCH2>
0

>  <NssCH2>
4

>  <NtCH>
0

>  <NdsCH>
0

>  <NaaCH>
3

>  <NsssCH>
0

>  <NddC>
0

>  <NtsC>
1

>  <NdssC>
1

>  <NaasC>
2

>  <NaaaC>
0

>  <NssssC>
0

>  <NsNH3>
0

>  <NsNH2>
0

>  <NssNH2>
0

>  <NdNH>
0

>  <NssNH>
2

>  <NaaNH>
0

>  <NtN>
1

>  <NsssNH>
0

>  <NdsN>
1

>  <NaaN>
1

>  <NsssN>
0

>  <NddsN>
0

>  <NaasN>
0

>  <NssssN>
0

>  <NsOH>
0

>  <NdO>
0

>  <NssO>
0

>  <NaaO>
0

>  <NsF>
0

>  <NsSiH3>
0

>  <NssSiH2>
0

>  <NsssSiH>
0

>  <NssssSi>
0

>  <NsPH2>
0

>  <NssPH>
0

>  <NsssP>
0

>  <NdsssP>
0

>  <NsssssP>
0

>  <NsSH>
0

>  <NdS>
0

>  <NssS>
1

>  <NaaS>
0

>  <NdssS>
0

>  <NddssS>
0

>  <NsCl>
0

>  <NsBr>
1

>  <NsI>
0

>  <fragCpx>
19.07

>  <fMF>
0.17

>  <nHBAcc>
4

>  <nHBDon>
2

>  <Kier1>
17.05

>  <Kier2>
10.75

>  <Lipinski>
1

>  <GhoseFilter>
1

>  <FilterItLogS>
-4.79

>  <VMcGowan>
227.03

>  <LabuteASA>
125.58

>  <PEOE_VSA1>
5.32

>  <PEOE_VSA2>
15.29

>  <PEOE_VSA3>
0

>  <PEOE_VSA4>
17.02

>  <PEOE_VSA5>
0

>  <PEOE_VSA6>
0

>  <PEOE_VSA7>
34.99

>  <PEOE_VSA8>
28.72

>  <PEOE_VSA9>
12.24

>  <PEOE_VSA10>
0

>  <PEOE_VSA11>
6.19

>  <PEOE_VSA12>
5.96

>  <PEOE_VSA13>
0

>  <SMR_VSA1>
0

>  <SMR_VSA2>
5.26

>  <SMR_VSA3>
15.62

>  <SMR_VSA4>
4.99

>  <SMR_VSA5>
12.68

>  <SMR_VSA6>
18.84

>  <SMR_VSA7>
28.5

>  <SMR_VSA8>
0

>  <SMR_VSA9>
6.19

>  <SlogP_VSA1>
10.63

>  <SlogP_VSA2>
29.79

>  <SlogP_VSA3>
5.75

>  <SlogP_VSA4>
11.46

>  <SlogP_VSA5>
12.62

>  <SlogP_VSA6>
27.79

>  <SlogP_VSA7>
0

>  <SlogP_VSA8>
0

>  <SlogP_VSA9>
0

>  <SlogP_VSA10>
0

>  <SlogP_VSA11>
0

>  <EState_VSA1>
0

>  <EState_VSA2>
0

>  <EState_VSA3>
12.5

>  <EState_VSA4>
28.22

>  <EState_VSA5>
0

>  <EState_VSA6>
17.96

>  <EState_VSA7>
25.25

>  <EState_VSA8>
36.54

>  <EState_VSA9>
5.26

>  <EState_VSA10>
0

>  <VSA_EState1>
1.03

>  <VSA_EState2>
8.57

>  <VSA_EState3>
14.05

>  <VSA_EState4>
1.04

>  <VSA_EState5>
2.26

>  <VSA_EState6>
3.89

>  <VSA_EState7>
3.65

>  <VSA_EState8>
3.36

>  <VSA_EState9>
0

>  <apol>
42.16

>  <bpol>
23.88

>  <nRing>
1

>  <nHRing>
1

>  <naRing>
1

>  <naHRing>
1

>  <nARing 2>
0

>  <nAHRing 2>
0

>  <nFRing>
0

>  <nFHRing>
0

>  <nFaRing>
0

>  <nFaHRing>
0

>  <nFARing 2>
0

>  <nFAHRing 2>
0

>  <nRot>
6

>  <SLogP>
2.11

>  <SMR>
82.83

>  <TopoPSA(NO)>
73.1

>  <TopoPSA>
98.4

>  <JGI1>
0.13

>  <JGI2>
0.07

>  <JGI3>
0.03

>  <JGI4>
0.03

>  <JGI5>
0.02

>  <Diameter>
12

>  <Radius>
6

>  <TMWC10>
105.77

>  <TSRW10>
50.61

>  <MW>
341.03

>  <AMW>
9.74

>  <WPath>
898

>  <WPol>
22

>  <Zagreb1>
82

>  <Zagreb2>
88

>  <mZagreb2>
4.69

>  <yes>


>  <nAR-cont>
0.336376

>  <nHA-cont>
0.998649058

>  <MWHBN>
0.324903925

>  <MWHBN-cont>
0.760521544

>  <TPSA-cont>
0.313106897

>  <pka_cont>
0.97

>  <yes.1>


>  <BBB_SCORE>
3.587021169

>  <MMFF94 Energy>
-87.389

$$$$
Compound 4
Actelion Java MolfileCreator 2.0

  0  0  0  0  0  0              0 V3000
M  V30 BEGIN CTAB
M  V30 COUNTS 33 34 0 0 0
M  V30 BEGIN ATOM
M  V30 1 Cl 0.0 2.6744 2.1725 0
M  V30 2 C -0.4793 2.0421 0.6287 0
M  V30 3 C -0.1731 0.7126 0.2827 0
M  V30 4 C -1.1657 2.855 -0.2895 0
M  V30 5 N 0.4529 -0.1947 1.2124 0
M  V30 6 C -0.5385 0.2273 -0.9903 0
M  V30 7 Cl -1.5783 4.5002 0.0571 0
M  V30 8 C -1.5456 2.3568 -1.5406 0
M  V30 9 S -0.5456 -1.2443 2.0808 0
M  V30 10 C 1.9172 -0.1948 1.433 0
M  V30 11 N -0.1887 -1.074 -1.3846 0
M  V30 12 C -1.2273 1.0475 -1.8881 0
M  V30 13 O -1.9031 -1.1134 1.592 0
M  V30 14 O 0.1055 -2.5341 2.1486 0
M  V30 15 C -0.5003 -0.546 3.718 0
M  V30 16 C 2.6947 -0.6311 0.1866 0
M  V30 17 C -0.4763 -1.6067 -2.6197 0
M  V30 18 N -1.5986 0.5583 -3.1429 0
M  V30 19 O 2.2486 -1.9082 -0.2561 0
M  V30 20 O -0.0847 -2.7125 -2.9664 0
M  V30 21 C -1.2976 -0.714 -3.5807 0
M  V30 22 O -1.6488 -1.1074 -4.6847 0
M  V30 23 H -2.0823 2.9969 -2.2372 0
M  V30 24 H 2.1618 -0.8813 2.2514 0
M  V30 25 H 2.25 0.7991 1.7485 0
M  V30 26 H 0.3705 -1.657 -0.7587 0
M  V30 27 H 0.5349 -0.4589 4.0501 0
M  V30 28 H -1.0395 -1.226 4.3823 0
M  V30 29 H -1.0007 0.4218 3.7125 0
M  V30 30 H 2.5639 0.0837 -0.6316 0
M  V30 31 H 3.7619 -0.6968 0.421 0
M  V30 32 H -2.1317 1.1227 -3.792 0
M  V30 33 H 2.8468 -2.209 -0.9644 0
M  V30 END ATOM
M  V30 BEGIN BOND
M  V30 1 1 1 2
M  V30 2 2 2 3
M  V30 3 1 2 4
M  V30 4 1 3 5
M  V30 5 1 3 6
M  V30 6 1 4 7
M  V30 7 2 4 8
M  V30 8 1 5 9
M  V30 9 1 5 10
M  V30 10 1 6 11
M  V30 11 2 6 12
M  V30 12 2 9 13
M  V30 13 2 9 14
M  V30 14 1 9 15
M  V30 15 1 10 16
M  V30 16 1 11 17
M  V30 17 1 12 18
M  V30 18 1 16 19
M  V30 19 2 17 20
M  V30 20 1 17 21
M  V30 21 2 21 22
M  V30 22 1 8 12
M  V30 23 1 18 21
M  V30 24 1 8 23
M  V30 25 1 10 24
M  V30 26 1 10 25
M  V30 27 1 11 26
M  V30 28 1 15 27
M  V30 29 1 15 28
M  V30 30 1 15 29
M  V30 31 1 16 30
M  V30 32 1 16 31
M  V30 33 1 18 32
M  V30 34 1 19 33
M  V30 END BOND
M  V30 END CTAB
M  END
>  <Column 1>
5

>  <level_0>
5

>  <index>
5

>  <Unnamed: 0>
5

>  <NO.>
6

>  <Name>
uk-240-455

>  <IUPAC_name>
n-(6-7-dichloro-2-3-dioxo-1-4-dihydroquinoxalin-5-yl)-n-(2-hydroxyethyl)methanesulfonamide

>  <SMILES>
CS(=O)(=O)N(CCO)c1c(Cl)c(Cl)cc2[nH]c(=O)c(=O)[nH]c12

>  <CID>
9842188

>  <logBB>
-2.15

>  <BBB+/BBB->
BBB-

>  <Inchi>
InChI=1S/C11H11Cl2N3O5S/c1-22(20-21)16(2-3-17)9-7(13)5(12)4-6-8(9)15-11(19)10(18)14-6/h4-17H-2-3H2-1H3-(H-14-18)(H-15-19)

>  <threshold>


>  <reference>
R18|R26|R27|

>  <group>
A

>  <Class>
-1

>  <ABC>
16.87

>  <ABCGG>
15.1

>  <nAcid>
0

>  <nBase>
0

>  <nAromAtom>
10

>  <nAromBond>
11

>  <nAtom>
33

>  <nHeavyAtom>
22

>  <nSpiro>
0

>  <nBridgehead>
0

>  <nHetero>
11

>  <nN>
3

>  <nO>
5

>  <nF>
0

>  <BalabanJ>
2.31

>  <BertzCT>
950.58

>  <nBonds>
34

>  <nBondsO>
23

>  <nBondsS>
19

>  <nBondsD>
4

>  <nBondsT>
0

>  <nBondsA>
11

>  <nBondsM>
15

>  <nBondsKS>
27

>  <nBondsKD>
7

>  <RNCG>
0.16

>  <RPCG>
0.13

>  <FCSP3>
0.27

>  <SZ>
31.33

>  <Sm>
30.65

>  <Sv>
23.2

>  <Sse>
35.13

>  <Sp>
24.12

>  <Si>
37.43

>  <MZ>
0.95

>  <Mm>
0.93

>  <Mv>
0.7

>  <Mse>
1.06

>  <Mp>
0.73

>  <Mi>
1.13

>  <NsCH3>
1

>  <NdCH2>
0

>  <NssCH2>
2

>  <NtCH>
0

>  <NdsCH>
0

>  <NaaCH>
1

>  <NsssCH>
0

>  <NddC>
0

>  <NtsC>
0

>  <NdssC>
0

>  <NaasC>
3

>  <NaaaC>
2

>  <NssssC>
0

>  <NsNH3>
0

>  <NsNH2>
0

>  <NssNH2>
0

>  <NdNH>
0

>  <NssNH>
0

>  <NaaNH>
2

>  <NtN>
0

>  <NsssNH>
0

>  <NdsN>
0

>  <NaaN>
0

>  <NsssN>
1

>  <NddsN>
0

>  <NaasN>
0

>  <NssssN>
0

>  <NsOH>
1

>  <NdO>
4

>  <NssO>
0

>  <NaaO>
0

>  <NsF>
0

>  <NsSiH3>
0

>  <NssSiH2>
0

>  <NsssSiH>
0

>  <NssssSi>
0

>  <NsPH2>
0

>  <NssPH>
0

>  <NsssP>
0

>  <NdsssP>
0

>  <NsssssP>
0

>  <NsSH>
0

>  <NdS>
0

>  <NssS>
0

>  <NaaS>
0

>  <NdssS>
0

>  <NddssS>
1

>  <NsCl>
2

>  <NsBr>
0

>  <NsI>
0

>  <fragCpx>
67.11

>  <fMF>
0.3

>  <nHBAcc>
5

>  <nHBDon>
3

>  <Kier1>
18.34

>  <Kier2>
6.86

>  <Lipinski>
1

>  <GhoseFilter>
1

>  <FilterItLogS>
-4.05

>  <VMcGowan>
222.75

>  <LabuteASA>
133.89

>  <PEOE_VSA1>
15.07

>  <PEOE_VSA2>
13.89

>  <PEOE_VSA3>
8.42

>  <PEOE_VSA4>
0

>  <PEOE_VSA5>
0

>  <PEOE_VSA6>
23.2

>  <PEOE_VSA7>
6.07

>  <PEOE_VSA8>
0

>  <PEOE_VSA9>
46.17

>  <PEOE_VSA10>
0

>  <PEOE_VSA11>
0

>  <PEOE_VSA12>
10.02

>  <PEOE_VSA13>
0

>  <SMR_VSA1>
13.52

>  <SMR_VSA2>
0

>  <SMR_VSA3>
9.97

>  <SMR_VSA4>
0

>  <SMR_VSA5>
0

>  <SMR_VSA6>
23.71

>  <SMR_VSA7>
36.82

>  <SMR_VSA8>
0

>  <SMR_VSA9>
0

>  <SlogP_VSA1>
15.42

>  <SlogP_VSA2>
42.9

>  <SlogP_VSA3>
10.02

>  <SlogP_VSA4>
0

>  <SlogP_VSA5>
0

>  <SlogP_VSA6>
15.66

>  <SlogP_VSA7>
10.05

>  <SlogP_VSA8>
11.03

>  <SlogP_VSA9>
0

>  <SlogP_VSA10>
5.69

>  <SlogP_VSA11>
0

>  <EState_VSA1>
27.75

>  <EState_VSA2>
33.31

>  <EState_VSA3>
0

>  <EState_VSA4>
10.56

>  <EState_VSA5>
6.07

>  <EState_VSA6>
0

>  <EState_VSA7>
0

>  <EState_VSA8>
9.97

>  <EState_VSA9>
28.31

>  <EState_VSA10>
18.01

>  <VSA_EState1>
24.66

>  <VSA_EState2>
27.47

>  <VSA_EState3>
8.94

>  <VSA_EState4>
-1.89

>  <VSA_EState5>
0

>  <VSA_EState6>
1.29

>  <VSA_EState7>
0.91

>  <VSA_EState8>
-0.78

>  <VSA_EState9>
-3.82

>  <apol>
40.27

>  <bpol>
23.3

>  <nRing>
2

>  <nHRing>
1

>  <naRing>
2

>  <naHRing>
1

>  <nARing 2>
0

>  <nAHRing 2>
0

>  <nFRing>
1

>  <nFHRing>
1

>  <nFaRing>
1

>  <nFaHRing>
1

>  <nFARing 2>
0

>  <nFAHRing 2>
0

>  <nRot>
4

>  <SLogP>
0.28

>  <SMR>
84.49

>  <TopoPSA(NO)>
123.33

>  <TopoPSA>
131.71

>  <JGI1>
0.28

>  <JGI2>
0.1

>  <JGI3>
0.06

>  <JGI4>
0.07

>  <JGI5>
0.03

>  <Diameter>
9

>  <Radius>
5

>  <TMWC10>
120.42

>  <TSRW10>
56.59

>  <MW>
366.98

>  <AMW>
11.12

>  <WPath>
926

>  <WPol>
39

>  <Zagreb1>
116

>  <Zagreb2>
138

>  <mZagreb2>
4.75

>  <yes>


>  <nAR-cont>
0.336376

>  <nHA-cont>
0.983774276

>  <MWHBN>
0.41760798

>  <MWHBN-cont>
0.407211382

>  <TPSA-cont>
0

>  <pka_cont>
0.97

>  <yes.1>


>  <BBB_SCORE>
2.415967348

>  <MMFF94 Energy>
59.455

$$$$
Compound 5
Actelion Java MolfileCreator 2.0

  0  0  0  0  0  0              0 V3000
M  V30 BEGIN CTAB
M  V30 COUNTS 23 24 0 0 0
M  V30 BEGIN ATOM
M  V30 1 O 1.2072 -1.7709 -4.1897 0
M  V30 2 N -0.01 -1.987 -4.1986 0 CHG=1
M  V30 3 O -0.6432 -2.5329 -5.1133 0 CHG=-1
M  V30 4 C -0.7771 -1.5796 -3.0632 0
M  V30 5 O -0.1017 -0.979 -2.0492 0
M  V30 6 C -2.1196 -1.6812 -2.7861 0
M  V30 7 C -1.03 -0.6813 -1.0851 0
M  V30 8 C -2.2836 -1.0983 -1.5026 0
M  V30 9 C -0.6082 -0.03 0.1278 0
M  V30 10 N 0.6297 0.2815 0.3295 0
M  V30 11 N 0.9855 0.8993 1.4965 0
M  V30 12 C 2.3224 1.25 1.7443 0
M  V30 13 C 0.1281 1.2726 2.5933 0
M  V30 14 O 3.2989 1.0809 1.0325 0
M  V30 15 N 2.3712 1.8421 2.9694 0
M  V30 16 C 1.1397 1.8965 3.5335 0
M  V30 17 O 0.8843 2.3739 4.6289 0
M  V30 18 H -2.8763 -2.1171 -3.4248 0
M  V30 19 H -3.207 -0.9947 -0.9477 0
M  V30 20 H -1.4036 0.1813 0.862 0
M  V30 21 H -0.3229 0.3867 3.0451 0
M  V30 22 H -0.606 2.0136 2.2701 0
M  V30 23 H 3.2192 2.1875 3.3846 0
M  V30 END ATOM
M  V30 BEGIN BOND
M  V30 1 2 1 2
M  V30 2 1 2 3
M  V30 3 1 2 4
M  V30 4 1 4 5
M  V30 5 2 4 6
M  V30 6 1 5 7
M  V30 7 1 6 8
M  V30 8 1 7 9
M  V30 9 2 9 10
M  V30 10 1 10 11
M  V30 11 1 11 12
M  V30 12 1 11 13
M  V30 13 2 12 14
M  V30 14 1 12 15
M  V30 15 1 13 16
M  V30 16 2 16 17
M  V30 17 2 7 8
M  V30 18 1 15 16
M  V30 19 1 6 18
M  V30 20 1 8 19
M  V30 21 1 9 20
M  V30 22 1 13 21
M  V30 23 1 13 22
M  V30 24 1 15 23
M  V30 END BOND
M  V30 END CTAB
M  END
>  <Column 1>
7

>  <level_0>
7

>  <index>
7

>  <Unnamed: 0>
7

>  <NO.>
8

>  <Name>
nitrofurantoin

>  <IUPAC_name>
1-[(e)-(5-nitrofuran-2-yl)methylideneamino]imidazolidine-2-4-dione

>  <SMILES>
O=C1CN(/N=C/c2ccc([N+](=O)[O-])o2)C(=O)N1

>  <CID>
5353830

>  <logBB>
-2.09

>  <BBB+/BBB->
BBB-

>  <Inchi>
InChI=1S/C8H6N4O5/c13-6-4-11(8(14)10-6)9-3-5-1-2-7(17-5)12(15)16/h1-3H-4H2-(H-10-13-14)/b9-3+

>  <threshold>


>  <reference>
R2|R2|R25|R46|

>  <group>
A

>  <Class>
-1

>  <ABC>
13.08

>  <ABCGG>
11.84

>  <nAcid>
0

>  <nBase>
0

>  <nAromAtom>
5

>  <nAromBond>
5

>  <nAtom>
23

>  <nHeavyAtom>
17

>  <nSpiro>
0

>  <nBridgehead>
0

>  <nHetero>
9

>  <nN>
4

>  <nO>
5

>  <nF>
0

>  <BalabanJ>
1.69

>  <BertzCT>
519.74

>  <nBonds>
24

>  <nBondsO>
18

>  <nBondsS>
15

>  <nBondsD>
4

>  <nBondsT>
0

>  <nBondsA>
5

>  <nBondsM>
9

>  <nBondsKS>
18

>  <nBondsKD>
6

>  <RNCG>
0.19

>  <RPCG>
0.21

>  <FCSP3>
0.13

>  <SZ>
20.33

>  <Sm>
19.83

>  <Sv>
16.23

>  <Sse>
24.97

>  <Sp>
15.43

>  <Si>
26.46

>  <MZ>
0.88

>  <Mm>
0.86

>  <Mv>
0.71

>  <Mse>
1.09

>  <Mp>
0.67

>  <Mi>
1.15

>  <NsCH3>
0

>  <NdCH2>
0

>  <NssCH2>
1

>  <NtCH>
0

>  <NdsCH>
1

>  <NaaCH>
2

>  <NsssCH>
0

>  <NddC>
0

>  <NtsC>
0

>  <NdssC>
2

>  <NaasC>
2

>  <NaaaC>
0

>  <NssssC>
0

>  <NsNH3>
0

>  <NsNH2>
0

>  <NssNH2>
0

>  <NdNH>
0

>  <NssNH>
1

>  <NaaNH>
0

>  <NtN>
0

>  <NsssNH>
0

>  <NdsN>
1

>  <NaaN>
0

>  <NsssN>
1

>  <NddsN>
1

>  <NaasN>
0

>  <NssssN>
0

>  <NsOH>
0

>  <NdO>
3

>  <NssO>
0

>  <NaaO>
1

>  <NsF>
0

>  <NsSiH3>
0

>  <NssSiH2>
0

>  <NsssSiH>
0

>  <NssssSi>
0

>  <NsPH2>
0

>  <NssPH>
0

>  <NsssP>
0

>  <NdsssP>
0

>  <NsssssP>
0

>  <NsSH>
0

>  <NdS>
0

>  <NssS>
0

>  <NaaS>
0

>  <NdssS>
0

>  <NddssS>
0

>  <NsCl>
0

>  <NsBr>
0

>  <NsI>
0

>  <fragCpx>
52.09

>  <fMF>
0.52

>  <nHBAcc>
6

>  <nHBDon>
1

>  <Kier1>
13.43

>  <Kier2>
5.76

>  <Lipinski>
1

>  <GhoseFilter>
1

>  <FilterItLogS>
-1.41

>  <VMcGowan>
145.33

>  <LabuteASA>
93.83

>  <PEOE_VSA1>
4.42

>  <PEOE_VSA2>
20.23

>  <PEOE_VSA3>
9.8

>  <PEOE_VSA4>
5.1

>  <PEOE_VSA5>
0

>  <PEOE_VSA6>
0

>  <PEOE_VSA7>
6.07

>  <PEOE_VSA8>
0

>  <PEOE_VSA9>
12.28

>  <PEOE_VSA10>
11.47

>  <PEOE_VSA11>
5.76

>  <PEOE_VSA12>
5.91

>  <PEOE_VSA13>
0

>  <SMR_VSA1>
18.93

>  <SMR_VSA2>
0

>  <SMR_VSA3>
10.33

>  <SMR_VSA4>
5.1

>  <SMR_VSA5>
0

>  <SMR_VSA6>
6.54

>  <SMR_VSA7>
28.01

>  <SMR_VSA8>
0

>  <SMR_VSA9>
0

>  <SlogP_VSA1>
5.32

>  <SlogP_VSA2>
34.63

>  <SlogP_VSA3>
4.79

>  <SlogP_VSA4>
10.11

>  <SlogP_VSA5>
5.76

>  <SlogP_VSA6>
21.65

>  <SlogP_VSA7>
0

>  <SlogP_VSA8>
0

>  <SlogP_VSA9>
0

>  <SlogP_VSA10>
10.68

>  <SlogP_VSA11>
0

>  <EState_VSA1>
22.75

>  <EState_VSA2>
12.31

>  <EState_VSA3>
0

>  <EState_VSA4>
17.29

>  <EState_VSA5>
6.07

>  <EState_VSA6>
0

>  <EState_VSA7>
5.32

>  <EState_VSA8>
5.1

>  <EState_VSA9>
4.42

>  <EState_VSA10>
19.7

>  <VSA_EState1>
4.78

>  <VSA_EState2>
31.5

>  <VSA_EState3>
16.88

>  <VSA_EState4>
0

>  <VSA_EState5>
-0.77

>  <VSA_EState6>
1.85

>  <VSA_EState7>
1.12

>  <VSA_EState8>
-0.18

>  <VSA_EState9>
0

>  <apol>
25.77

>  <bpol>
12.94

>  <nRing>
2

>  <nHRing>
2

>  <naRing>
1

>  <naHRing>
1

>  <nARing 2>
1

>  <nAHRing 2>
1

>  <nFRing>
0

>  <nFHRing>
0

>  <nFaRing>
0

>  <nFaHRing>
0

>  <nFARing 2>
0

>  <nFAHRing 2>
0

>  <nRot>
3

>  <SLogP>
0.07

>  <SMR>
53.2

>  <TopoPSA(NO)>
118.05

>  <TopoPSA>
118.05

>  <JGI1>
0.25

>  <JGI2>
0.08

>  <JGI3>
0.07

>  <JGI4>
0.05

>  <JGI5>
0.02

>  <Diameter>
10

>  <Radius>
5

>  <TMWC10>
105.52

>  <TSRW10>
65.04

>  <MW>
238.03

>  <AMW>
10.35

>  <WPath>
580

>  <WPol>
20

>  <Zagreb1>
86

>  <Zagreb2>
98

>  <mZagreb2>
3.72

>  <yes>


>  <nAR-cont>
0.816016

>  <nHA-cont>
0.976740822

>  <MWHBN>
0.453714012

>  <MWHBN-cont>
0

>  <TPSA-cont>
0.175937695

>  <pka_cont>
0.97

>  <yes.1>


>  <BBB_SCORE>
2.629632213

>  <MMFF94 Energy>
55.866

$$$$
Compound 6
Actelion Java MolfileCreator 2.0

  0  0  0  0  0  0              0 V3000
M  V30 BEGIN CTAB
M  V30 COUNTS 53 55 0 0 0
M  V30 BEGIN ATOM
M  V30 1 O -1.2615 2.1295 2.5243 0
M  V30 2 C -0.5093 1.1649 2.4305 0
M  V30 3 N -0.6494 0.2322 1.4471 0
M  V30 4 C 0.6058 0.9414 3.3785 0
M  V30 5 C 0.169 -0.8501 1.3235 0
M  V30 6 C 1.3435 -0.1559 3.1566 0
M  V30 7 C 0.7633 1.9706 4.462 0
M  V30 8 N 1.1486 -1.0619 2.1479 0
M  V30 9 N -0.0351 -1.7391 0.3169 0
M  V30 10 C 1.8773 1.7339 5.4484 0
M  V30 11 C -1.0067 -1.7137 -0.7468 0
M  V30 12 C 3.1478 2.2583 5.2382 0
M  V30 13 C 1.6868 0.9562 6.5925 0
M  V30 14 C -0.5432 -0.7892 -1.8701 0
M  V30 15 N 4.1956 2.0668 6.0711 0
M  V30 16 C 2.7493 0.7439 7.4674 0
M  V30 17 C -1.541 -0.7834 -3.0282 0
M  V30 18 C 3.9842 1.3138 7.1754 0
M  V30 19 C -1.0857 0.1527 -4.1489 0
M  V30 20 C 5.1475 1.1026 8.0969 0
M  V30 21 C -2.0834 0.178 -5.2816 0
M  V30 22 N -3.0286 1.1546 -5.2086 0
M  V30 23 C -2.0425 -0.7715 -6.3128 0
M  V30 24 C -3.9471 1.204 -6.1939 0
M  V30 25 O -1.0541 -1.7152 -6.2527 0
M  V30 26 C -3.0134 -0.6854 -7.3107 0
M  V30 27 C -3.9796 0.3172 -7.2537 0
M  V30 28 C -0.9805 -2.6503 -7.3213 0
M  V30 29 H -1.4035 0.3829 0.8011 0
M  V30 30 H 2.1836 -0.3952 3.8043 0
M  V30 31 H -0.1771 2.0476 5.0243 0
M  V30 32 H 0.9127 2.9564 4.001 0
M  V30 33 H 0.635 -2.5014 0.3067 0
M  V30 34 H -1.9899 -1.4128 -0.3679 0
M  V30 35 H -1.1206 -2.7319 -1.1363 0
M  V30 36 H 3.3717 2.8648 4.3641 0
M  V30 37 H 0.7178 0.5118 6.8062 0
M  V30 38 H 0.4408 -1.1131 -2.2316 0
M  V30 39 H -0.4168 0.2312 -1.4884 0
M  V30 40 H 2.6123 0.1419 8.3598 0
M  V30 41 H -2.5269 -0.4701 -2.6614 0
M  V30 42 H -1.6586 -1.8033 -3.4151 0
M  V30 43 H -0.9764 1.1713 -3.7548 0
M  V30 44 H -0.0948 -0.1344 -4.5201 0
M  V30 45 H 5.379 0.0359 8.1751 0
M  V30 46 H 4.9175 1.4951 9.0924 0
M  V30 47 H 6.0385 1.6185 7.7248 0
M  V30 48 H -4.6801 2.0007 -6.1052 0
M  V30 49 H -3.0486 -1.3809 -8.1416 0
M  V30 50 H -4.7422 0.4019 -8.0198 0
M  V30 51 H -1.8806 -3.2723 -7.363 0
M  V30 52 H -0.1291 -3.3102 -7.1292 0
M  V30 53 H -0.8019 -2.1461 -8.2767 0
M  V30 END ATOM
M  V30 BEGIN BOND
M  V30 1 2 1 2
M  V30 2 1 2 3
M  V30 3 1 2 4
M  V30 4 1 3 5
M  V30 5 2 4 6
M  V30 6 1 4 7
M  V30 7 2 5 8
M  V30 8 1 5 9
M  V30 9 1 7 10
M  V30 10 1 9 11
M  V30 11 2 10 12
M  V30 12 1 10 13
M  V30 13 1 11 14
M  V30 14 1 12 15
M  V30 15 2 13 16
M  V30 16 1 14 17
M  V30 17 2 15 18
M  V30 18 1 17 19
M  V30 19 1 18 20
M  V30 20 1 19 21
M  V30 21 2 21 22
M  V30 22 1 21 23
M  V30 23 1 22 24
M  V30 24 1 23 25
M  V30 25 2 23 26
M  V30 26 2 24 27
M  V30 27 1 25 28
M  V30 28 1 6 8
M  V30 29 1 16 18
M  V30 30 1 26 27
M  V30 31 1 3 29
M  V30 32 1 6 30
M  V30 33 1 7 31
M  V30 34 1 7 32
M  V30 35 1 9 33
M  V30 36 1 11 34
M  V30 37 1 11 35
M  V30 38 1 12 36
M  V30 39 1 13 37
M  V30 40 1 14 38
M  V30 41 1 14 39
M  V30 42 1 16 40
M  V30 43 1 17 41
M  V30 44 1 17 42
M  V30 45 1 19 43
M  V30 46 1 19 44
M  V30 47 1 20 45
M  V30 48 1 20 46
M  V30 49 1 20 47
M  V30 50 1 24 48
M  V30 51 1 26 49
M  V30 52 1 27 50
M  V30 53 1 28 51
M  V30 54 1 28 52
M  V30 55 1 28 53
M  V30 END BOND
M  V30 END CTAB
M  END
>  <Column 1>
10

>  <level_0>
10

>  <index>
10

>  <Unnamed: 0>
10

>  <NO.>
11

>  <Name>
icotidine

>  <IUPAC_name>
2-[4-(3-methoxypyridin-2-yl)butylamino]-5-[(6-methylpyridin-3-yl)methyl]-1h-pyrimidin-6-one

>  <SMILES>
COc1cccnc1CCCCNc1ncc(Cc2ccc(C)nc2)c(=O)[nH]1

>  <CID>
72108

>  <logBB>
-2

>  <BBB+/BBB->
BBB-

>  <Inchi>
InChI=1S/C21H25N5O2/c1-15-8-9-16(13-24-15)12-17-14-25-21(26-20(17)27)23-10-4-3-6-18-19(28-2)7-5-11-22-18/h5-7-9-11-13-14H-3-4-6-10-12H2-1-2H3-(H2-23-25-26-27)

>  <threshold>


>  <reference>
R2|R2|R2|R2|R5|R8|R11|R12|R18|R21|R25|R26|R27|R27|R35|R36|R39|R40|R43|R46|R47|R48|R49|R49|R4|

>  <group>
A

>  <Class>
-1

>  <ABC>
21.35

>  <ABCGG>
15.4

>  <nAcid>
0

>  <nBase>
0

>  <nAromAtom>
18

>  <nAromBond>
18

>  <nAtom>
53

>  <nHeavyAtom>
28

>  <nSpiro>
0

>  <nBridgehead>
0

>  <nHetero>
7

>  <nN>
5

>  <nO>
2

>  <nF>
0

>  <BalabanJ>
1.25

>  <BertzCT>
953.51

>  <nBonds>
55

>  <nBondsO>
30

>  <nBondsS>
36

>  <nBondsD>
1

>  <nBondsT>
0

>  <nBondsA>
18

>  <nBondsM>
19

>  <nBondsKS>
46

>  <nBondsKD>
9

>  <RNCG>
0.2

>  <RPCG>
0.1

>  <FCSP3>
0.33

>  <SZ>
33.67

>  <Sm>
31.59

>  <Sv>
32.99

>  <Sse>
53.08

>  <Sp>
35.24

>  <Si>
60.06

>  <MZ>
0.64

>  <Mm>
0.6

>  <Mv>
0.62

>  <Mse>
1

>  <Mp>
0.66

>  <Mi>
1.13

>  <NsCH3>
2

>  <NdCH2>
0

>  <NssCH2>
5

>  <NtCH>
0

>  <NdsCH>
0

>  <NaaCH>
7

>  <NsssCH>
0

>  <NddC>
0

>  <NtsC>
0

>  <NdssC>
0

>  <NaasC>
6

>  <NaaaC>
0

>  <NssssC>
0

>  <NsNH3>
0

>  <NsNH2>
0

>  <NssNH2>
0

>  <NdNH>
0

>  <NssNH>
1

>  <NaaNH>
1

>  <NtN>
0

>  <NsssNH>
0

>  <NdsN>
0

>  <NaaN>
3

>  <NsssN>
0

>  <NddsN>
0

>  <NaasN>
0

>  <NssssN>
0

>  <NsOH>
0

>  <NdO>
1

>  <NssO>
1

>  <NaaO>
0

>  <NsF>
0

>  <NsSiH3>
0

>  <NssSiH2>
0

>  <NsssSiH>
0

>  <NssssSi>
0

>  <NsPH2>
0

>  <NssPH>
0

>  <NsssP>
0

>  <NdsssP>
0

>  <NsssssP>
0

>  <NsSH>
0

>  <NdS>
0

>  <NssS>
0

>  <NaaS>
0

>  <NdssS>
0

>  <NddssS>
0

>  <NsCl>
0

>  <NsBr>
0

>  <NsI>
0

>  <fragCpx>
144.07

>  <fMF>
0.45

>  <nHBAcc>
6

>  <nHBDon>
2

>  <Kier1>
22.68

>  <Kier2>
12

>  <Lipinski>
1

>  <GhoseFilter>
1

>  <FilterItLogS>
-7.32

>  <VMcGowan>
297.11

>  <LabuteASA>
163.8

>  <PEOE_VSA1>
10.05

>  <PEOE_VSA2>
19.75

>  <PEOE_VSA3>
4.98

>  <PEOE_VSA4>
0

>  <PEOE_VSA5>
0

>  <PEOE_VSA6>
6.07

>  <PEOE_VSA7>
49.95

>  <PEOE_VSA8>
42.81

>  <PEOE_VSA9>
12.8

>  <PEOE_VSA10>
5.75

>  <PEOE_VSA11>
0

>  <PEOE_VSA12>
5.95

>  <PEOE_VSA13>
5.56

>  <SMR_VSA1>
4.74

>  <SMR_VSA2>
0

>  <SMR_VSA3>
19.94

>  <SMR_VSA4>
0

>  <SMR_VSA5>
32.61

>  <SMR_VSA6>
18.97

>  <SMR_VSA7>
75.72

>  <SMR_VSA8>
0

>  <SMR_VSA9>
5.75

>  <SlogP_VSA1>
15.61

>  <SlogP_VSA2>
33.59

>  <SlogP_VSA3>
12.84

>  <SlogP_VSA4>
6.92

>  <SlogP_VSA5>
35.36

>  <SlogP_VSA6>
47.65

>  <SlogP_VSA7>
0

>  <SlogP_VSA8>
0

>  <SlogP_VSA9>
0

>  <SlogP_VSA10>
5.95

>  <SlogP_VSA11>
5.75

>  <EState_VSA1>
0

>  <EState_VSA2>
5.56

>  <EState_VSA3>
17.93

>  <EState_VSA4>
48.51

>  <EState_VSA5>
0

>  <EState_VSA6>
25.7

>  <EState_VSA7>
31.19

>  <EState_VSA8>
25.25

>  <EState_VSA9>
4.74

>  <EState_VSA10>
4.79

>  <VSA_EState1>
5.31

>  <VSA_EState2>
28.01

>  <VSA_EState3>
3.17

>  <VSA_EState4>
3.4

>  <VSA_EState5>
1.31

>  <VSA_EState6>
7.7

>  <VSA_EState7>
8.45

>  <VSA_EState8>
2.66

>  <VSA_EState9>
1.66

>  <apol>
58.84

>  <bpol>
32.24

>  <nRing>
3

>  <nHRing>
3

>  <naRing>
3

>  <naHRing>
3

>  <nARing 2>
0

>  <nAHRing 2>
0

>  <nFRing>
0

>  <nFHRing>
0

>  <nFaRing>
0

>  <nFaHRing>
0

>  <nFARing 2>
0

>  <nFAHRing 2>
0

>  <nRot>
9

>  <SLogP>
2.9

>  <SMR>
108.85

>  <TopoPSA(NO)>
92.79

>  <TopoPSA>
92.79

>  <JGI1>
0.17

>  <JGI2>
0.07

>  <JGI3>
0.03

>  <JGI4>
0.04

>  <JGI5>
0.02

>  <Diameter>
18

>  <Radius>
9

>  <TMWC10>
132.23

>  <TSRW10>
62.71

>  <MW>
379.2

>  <AMW>
7.15

>  <WPath>
2649

>  <WPol>
39

>  <Zagreb1>
138

>  <Zagreb2>
156

>  <mZagreb2>
6.39

>  <yes>


>  <nAR-cont>
0.336376

>  <nHA-cont>
0.82432561

>  <MWHBN>
0.410824015

>  <MWHBN-cont>
0.433600884

>  <TPSA-cont>
0.352268181

>  <pka_cont>
0.97

>  <yes.1>


>  <BBB_SCORE>
3.000639298

>  <MMFF94 Energy>
-63.599

$$$$
Compound 7
Actelion Java MolfileCreator 2.0

  0  0  0  0  0  0              0 V3000
M  V30 BEGIN CTAB
M  V30 COUNTS 46 46 0 0 0
M  V30 BEGIN ATOM
M  V30 1 O 5.0847 1.0934 1.8751 0
M  V30 2 C 3.9278 0.9468 2.2276 0
M  V30 3 O 3.5136 1.361 3.4358 0
M  V30 4 C 2.8645 0.3107 1.4169 0
M  V30 5 C 1.6058 0.1822 1.8719 0
M  V30 6 C 3.2886 -0.1636 0.0541 0
M  V30 7 C 0.4974 -0.4516 1.0832 0 CFG=1
M  V30 8 C 2.1373 -0.5855 -0.8865 0 CFG=1
M  V30 9 O -0.2772 0.6447 0.5605 0
M  V30 10 C 1.0232 -1.3403 -0.0947 0 CFG=2
M  V30 11 N 1.585 0.5392 -1.6714 0
M  V30 12 C -1.4563 0.9529 1.3191 0
M  V30 13 N -0.1325 -1.7336 -0.9351 0
M  V30 14 C -1.7703 2.4382 1.0723 0
M  V30 15 C -2.592 -0.0054 0.9238 0
M  V30 16 C 0.2077 -2.6775 -1.9806 0
M  V30 17 C -2.094 2.7827 -0.3763 0
M  V30 18 C -3.8988 0.2586 1.6545 0
M  V30 19 O -0.9669 -3.1307 -2.6436 0
M  V30 20 C -1.4047 -2.2394 -3.6593 0
M  V30 21 H 4.3179 1.7513 3.8358 0
M  V30 22 H 1.3277 0.5622 2.8517 0
M  V30 23 H 3.9012 0.6007 -0.4409 0
M  V30 24 H 3.9449 -1.0331 0.1972 0
M  V30 25 H -0.1054 -1.0842 1.7468 0
M  V30 26 H 2.5789 -1.2689 -1.6215 0
M  V30 27 H 1.4644 -2.2456 0.3452 0
M  V30 28 H 2.3281 1.1856 -1.9325 0
M  V30 29 H 0.9533 1.0721 -1.0593 0
M  V30 30 H -1.2387 0.8406 2.3895 0
M  V30 31 H -0.4635 -0.8743 -1.3788 0
M  V30 32 H -2.5946 2.7646 1.7159 0
M  V30 33 H -0.8917 3.0288 1.3621 0
M  V30 34 H -2.2855 -1.0367 1.134 0
M  V30 35 H -2.7573 0.0251 -0.1595 0
M  V30 36 H 0.9145 -2.2745 -2.7139 0
M  V30 37 H 0.6662 -3.5662 -1.5339 0
M  V30 38 H -2.2289 3.8643 -0.4808 0
M  V30 39 H -3.0197 2.302 -0.7055 0
M  V30 40 H -1.2872 2.4796 -1.0503 0
M  V30 41 H -3.7505 0.2514 2.7389 0
M  V30 42 H -4.6299 -0.518 1.4079 0
M  V30 43 H -4.3324 1.2213 1.369 0
M  V30 44 H -2.2946 -2.6676 -4.129 0
M  V30 45 H -0.6332 -2.1205 -4.4262 0
M  V30 46 H -1.6729 -1.2653 -3.2399 0
M  V30 END ATOM
M  V30 BEGIN BOND
M  V30 1 2 1 2
M  V30 2 1 2 3
M  V30 3 1 2 4
M  V30 4 2 4 5
M  V30 5 1 4 6
M  V30 6 1 5 7
M  V30 7 1 6 8
M  V30 8 1 7 9
M  V30 9 1 7 10
M  V30 10 1 8 11
M  V30 11 1 9 12
M  V30 12 1 10 13
M  V30 13 1 12 14
M  V30 14 1 12 15
M  V30 15 1 13 16
M  V30 16 1 14 17
M  V30 17 1 15 18
M  V30 18 1 16 19
M  V30 19 1 19 20
M  V30 20 1 8 10
M  V30 21 1 3 21
M  V30 22 1 5 22
M  V30 23 1 6 23
M  V30 24 1 6 24
M  V30 25 1 7 25
M  V30 26 1 8 26
M  V30 27 1 10 27
M  V30 28 1 11 28
M  V30 29 1 11 29
M  V30 30 1 12 30
M  V30 31 1 13 31
M  V30 32 1 14 32
M  V30 33 1 14 33
M  V30 34 1 15 34
M  V30 35 1 15 35
M  V30 36 1 16 36
M  V30 37 1 16 37
M  V30 38 1 17 38
M  V30 39 1 17 39
M  V30 40 1 17 40
M  V30 41 1 18 41
M  V30 42 1 18 42
M  V30 43 1 18 43
M  V30 44 1 20 44
M  V30 45 1 20 45
M  V30 46 1 20 46
M  V30 END BOND
M  V30 BEGIN COLLECTION
M  V30 MDLV30/STEABS ATOMS=(3 7 8 10)
M  V30 END COLLECTION
M  V30 END CTAB
M  END
>  <Column 1>
11

>  <level_0>
11

>  <index>
11

>  <Unnamed: 0>
11

>  <NO.>
12

>  <Name>
ro 64-0802

>  <IUPAC_name>


>  <SMILES>
CCC(CC)O[C@@H]1C=C(C(=O)O)C[C@H](N)[C@@H]1NCOC

>  <CID>


>  <logBB>
-1.96

>  <BBB+/BBB->
BBB-

>  <Inchi>
InChI=1S/C14H26N2O4/c1-4-10(5-2)20-12-7-9(14(17)18)6-11(15)13(12)16-8-19-3/h7-10-13-16H-4-6-8-15H2-1-3H3-(H-17-18)/t11--12+-13-/m0/s1

>  <threshold>


>  <reference>
R18|R26|R27|

>  <group>
A

>  <Class>
-1

>  <ABC>
14.35

>  <ABCGG>
13.31

>  <nAcid>
1

>  <nBase>
2

>  <nAromAtom>
0

>  <nAromBond>
0

>  <nAtom>
46

>  <nHeavyAtom>
20

>  <nSpiro>
0

>  <nBridgehead>
0

>  <nHetero>
6

>  <nN>
2

>  <nO>
4

>  <nF>
0

>  <BalabanJ>
2.72

>  <BertzCT>
342.07

>  <nBonds>
46

>  <nBondsO>
20

>  <nBondsS>
44

>  <nBondsD>
2

>  <nBondsT>
0

>  <nBondsA>
0

>  <nBondsM>
2

>  <nBondsKS>
44

>  <nBondsKD>
2

>  <RNCG>
0.21

>  <RPCG>
0.14

>  <FCSP3>
0.79

>  <SZ>
26

>  <Sm>
23.84

>  <Sv>
25.42

>  <Sse>
46.19

>  <Sp>
27.62

>  <Si>
52.82

>  <MZ>
0.57

>  <Mm>
0.52

>  <Mv>
0.55

>  <Mse>
1

>  <Mp>
0.6

>  <Mi>
1.15

>  <NsCH3>
3

>  <NdCH2>
0

>  <NssCH2>
4

>  <NtCH>
0

>  <NdsCH>
1

>  <NaaCH>
0

>  <NsssCH>
4

>  <NddC>
0

>  <NtsC>
0

>  <NdssC>
2

>  <NaasC>
0

>  <NaaaC>
0

>  <NssssC>
0

>  <NsNH3>
0

>  <NsNH2>
1

>  <NssNH2>
0

>  <NdNH>
0

>  <NssNH>
1

>  <NaaNH>
0

>  <NtN>
0

>  <NsssNH>
0

>  <NdsN>
0

>  <NaaN>
0

>  <NsssN>
0

>  <NddsN>
0

>  <NaasN>
0

>  <NssssN>
0

>  <NsOH>
1

>  <NdO>
1

>  <NssO>
2

>  <NaaO>
0

>  <NsF>
0

>  <NsSiH3>
0

>  <NssSiH2>
0

>  <NsssSiH>
0

>  <NssssSi>
0

>  <NsPH2>
0

>  <NssPH>
0

>  <NsssP>
0

>  <NdsssP>
0

>  <NsssssP>
0

>  <NsSH>
0

>  <NdS>
0

>  <NssS>
0

>  <NaaS>
0

>  <NdssS>
0

>  <NddssS>
0

>  <NsCl>
0

>  <NsBr>
0

>  <NsI>
0

>  <fragCpx>
20.06

>  <fMF>
0.13

>  <nHBAcc>
5

>  <nHBDon>
3

>  <Kier1>
18.05

>  <Kier2>
9.11

>  <Lipinski>
1

>  <GhoseFilter>
1

>  <FilterItLogS>
-1.57

>  <VMcGowan>
232.1

>  <LabuteASA>
119.86

>  <PEOE_VSA1>
20.31

>  <PEOE_VSA2>
5.32

>  <PEOE_VSA3>
4.79

>  <PEOE_VSA4>
0

>  <PEOE_VSA5>
0

>  <PEOE_VSA6>
13.85

>  <PEOE_VSA7>
25.34

>  <PEOE_VSA8>
18.72

>  <PEOE_VSA9>
24.98

>  <PEOE_VSA10>
0

>  <PEOE_VSA11>
0

>  <PEOE_VSA12>
0

>  <PEOE_VSA13>
0

>  <SMR_VSA1>
19.37

>  <SMR_VSA2>
0

>  <SMR_VSA3>
5.32

>  <SMR_VSA4>
5.73

>  <SMR_VSA5>
57.4

>  <SMR_VSA6>
13.84

>  <SMR_VSA7>
11.65

>  <SMR_VSA8>
0

>  <SMR_VSA9>
0

>  <SlogP_VSA1>
11.05

>  <SlogP_VSA2>
49.21

>  <SlogP_VSA3>
14.27

>  <SlogP_VSA4>
0

>  <SlogP_VSA5>
33.11

>  <SlogP_VSA6>
11.65

>  <SlogP_VSA7>
0

>  <SlogP_VSA8>
0

>  <SlogP_VSA9>
0

>  <SlogP_VSA10>
0

>  <SlogP_VSA11>
0

>  <EState_VSA1>
5.97

>  <EState_VSA2>
24.29

>  <EState_VSA3>
18.72

>  <EState_VSA4>
12.84

>  <EState_VSA5>
0

>  <EState_VSA6>
13.19

>  <EState_VSA7>
0

>  <EState_VSA8>
19.16

>  <EState_VSA9>
20.31

>  <EState_VSA10>
4.79

>  <VSA_EState1>
11.03

>  <VSA_EState2>
11.17

>  <VSA_EState3>
12.33

>  <VSA_EState4>
6.42

>  <VSA_EState5>
-0.93

>  <VSA_EState6>
-0.45

>  <VSA_EState7>
3.54

>  <VSA_EState8>
4.46

>  <VSA_EState9>
1.59

>  <apol>
46.12

>  <bpol>
30.42

>  <nRing>
1

>  <nHRing>
0

>  <naRing>
0

>  <naHRing>
0

>  <nARing 2>
1

>  <nAHRing 2>
0

>  <nFRing>
0

>  <nFHRing>
0

>  <nFaRing>
0

>  <nFaHRing>
0

>  <nFARing 2>
0

>  <nFAHRing 2>
0

>  <nRot>
8

>  <SLogP>
0.86

>  <SMR>
76.35

>  <TopoPSA(NO)>
93.81

>  <TopoPSA>
93.81

>  <JGI1>
0.23

>  <JGI2>
0.09

>  <JGI3>
0.05

>  <JGI4>
0.05

>  <JGI5>
0.03

>  <Diameter>
9

>  <Radius>
5

>  <TMWC10>
111.26

>  <TSRW10>
52.79

>  <MW>
286.19

>  <AMW>
6.22

>  <WPath>
818

>  <WPol>
29

>  <Zagreb1>
92

>  <Zagreb2>
104

>  <mZagreb2>
4.83

>  <yes>


>  <nAR-cont>
0.816016

>  <nHA-cont>
0.999629945

>  <MWHBN>
0.472892863

>  <MWHBN-cont>
0

>  <TPSA-cont>
0.345147947

>  <pka_cont>
0.97

>  <yes.1>


>  <BBB_SCORE>
2.99094184

>  <MMFF94 Energy>
7.191

$$$$
Compound 8
Actelion Java MolfileCreator 2.0

  0  0  0  0  0  0              0 V3000
M  V30 BEGIN CTAB
M  V30 COUNTS 52 54 0 0 0
M  V30 BEGIN ATOM
M  V30 1 Br 2.7934 -4.3124 -7.1953 0
M  V30 2 C 1.6042 -3.2097 -6.2353 0
M  V30 3 C 2.0593 -2.3841 -5.2258 0
M  V30 4 C 0.2463 -3.2068 -6.5271 0
M  V30 5 N 1.2532 -1.5722 -4.5035 0
M  V30 6 C -0.6238 -2.3809 -5.7997 0
M  V30 7 C -0.0741 -1.5696 -4.7949 0
M  V30 8 C -2.0854 -2.3672 -6.1401 0
M  V30 9 C -0.917 -0.6456 -3.9469 0
M  V30 10 C -1.4928 -1.3248 -2.6993 0
M  V30 11 C -0.4376 -1.5971 -1.6229 0
M  V30 12 C -1.0621 -2.242 -0.3866 0
M  V30 13 N -0.051 -2.4552 0.6291 0
M  V30 14 C 0.3037 -1.518 1.5516 0
M  V30 15 N -0.2786 -0.3648 1.6476 0
M  V30 16 N 1.3254 -1.8707 2.383 0
M  V30 17 C 0.164 0.5028 2.6103 0
M  V30 18 C 1.8089 -1.0551 3.3624 0
M  V30 19 C 1.1564 0.2682 3.4809 0
M  V30 20 O 2.7275 -1.3991 4.0995 0
M  V30 21 C 1.6893 1.171 4.5574 0
M  V30 22 C 1.0028 2.5038 4.709 0
M  V30 23 C 1.4509 3.6263 4.0214 0
M  V30 24 C -0.1245 2.6567 5.5191 0
M  V30 25 N 0.8695 4.8449 4.0967 0
M  V30 26 C -0.7419 3.9014 5.6148 0
M  V30 27 C -0.218 4.9686 4.8924 0
M  V30 28 C -0.8608 6.3206 4.9737 0
M  V30 29 H 3.1097 -2.3419 -4.9539 0
M  V30 30 H -0.1385 -3.8425 -7.3207 0
M  V30 31 H -2.3619 -1.4043 -6.581 0
M  V30 32 H -2.6947 -2.5498 -5.25 0
M  V30 33 H -2.3348 -3.1492 -6.8654 0
M  V30 34 H -1.7348 -0.2355 -4.5505 0
M  V30 35 H -0.3113 0.2204 -3.6506 0
M  V30 36 H -1.9946 -2.2616 -2.9686 0
M  V30 37 H -2.2595 -0.6641 -2.2753 0
M  V30 38 H 0.3437 -2.2596 -2.0126 0
M  V30 39 H 0.0542 -0.6563 -1.3464 0
M  V30 40 H -1.8871 -1.6339 0.0022 0
M  V30 41 H -1.4903 -3.2137 -0.6587 0
M  V30 42 H 0.467 -3.3191 0.5647 0
M  V30 43 H 1.7668 -2.7691 2.2983 0
M  V30 44 H -0.3692 1.4503 2.6247 0
M  V30 45 H 2.7581 1.35 4.3783 0
M  V30 46 H 1.6352 0.65 5.523 0
M  V30 47 H 2.316 3.5793 3.3648 0
M  V30 48 H -0.5273 1.813 6.0742 0
M  V30 49 H -1.6179 4.0318 6.242 0
M  V30 50 H -0.8478 6.6841 6.006 0
M  V30 51 H -1.8963 6.2686 4.6231 0
M  V30 52 H -0.3259 7.0448 4.3508 0
M  V30 END ATOM
M  V30 BEGIN BOND
M  V30 1 1 1 2
M  V30 2 2 2 3
M  V30 3 1 2 4
M  V30 4 1 3 5
M  V30 5 2 4 6
M  V30 6 2 5 7
M  V30 7 1 6 8
M  V30 8 1 7 9
M  V30 9 1 9 10
M  V30 10 1 10 11
M  V30 11 1 11 12
M  V30 12 1 12 13
M  V30 13 1 13 14
M  V30 14 2 14 15
M  V30 15 1 14 16
M  V30 16 1 15 17
M  V30 17 1 16 18
M  V30 18 2 17 19
M  V30 19 2 18 20
M  V30 20 1 19 21
M  V30 21 1 21 22
M  V30 22 2 22 23
M  V30 23 1 22 24
M  V30 24 1 23 25
M  V30 25 2 24 26
M  V30 26 2 25 27
M  V30 27 1 27 28
M  V30 28 1 6 7
M  V30 29 1 18 19
M  V30 30 1 26 27
M  V30 31 1 3 29
M  V30 32 1 4 30
M  V30 33 1 8 31
M  V30 34 1 8 32
M  V30 35 1 8 33
M  V30 36 1 9 34
M  V30 37 1 9 35
M  V30 38 1 10 36
M  V30 39 1 10 37
M  V30 40 1 11 38
M  V30 41 1 11 39
M  V30 42 1 12 40
M  V30 43 1 12 41
M  V30 44 1 13 42
M  V30 45 1 16 43
M  V30 46 1 17 44
M  V30 47 1 21 45
M  V30 48 1 21 46
M  V30 49 1 23 47
M  V30 50 1 24 48
M  V30 51 1 26 49
M  V30 52 1 28 50
M  V30 53 1 28 51
M  V30 54 1 28 52
M  V30 END BOND
M  V30 END CTAB
M  END
>  <Column 1>
12

>  <level_0>
12

>  <index>
12

>  <Unnamed: 0>
12

>  <NO.>
13

>  <Name>
temelastine

>  <IUPAC_name>
2-[4-(5-bromo-3-methylpyridin-2-yl)butylamino]-5-[(6-methylpyridin-3-yl)methyl]-1h-pyrimidin-6-one

>  <SMILES>
Cc1ccc(Cc2cnc(NCCCCc3ncc(Br)cc3C)[nH]c2=O)cn1

>  <CID>
55482

>  <logBB>
-1.9

>  <BBB+/BBB->
BBB-

>  <Inchi>
InChI=1S/C21H24BrN5O/c1-14-9-18(22)13-25-19(14)5-3-4-8-23-21-26-12-17(20(28)27-21)10-16-7-6-15(2)24-11-16/h6-7-9-11-13H-3-5-8-10H2-1-2H3-(H2-23-26-27-28)

>  <threshold>


>  <reference>
R5|R2|R2|R2|R2|R8|R11|R12|R18|R21|R25|R26|R27|R27|R36|R39|R43|R46|R47|R48|R49|R49|R40|R4|

>  <group>
A

>  <Class>
-1

>  <ABC>
21.57

>  <ABCGG>
15.4

>  <nAcid>
0

>  <nBase>
0

>  <nAromAtom>
18

>  <nAromBond>
18

>  <nAtom>
52

>  <nHeavyAtom>
28

>  <nSpiro>
0

>  <nBridgehead>
0

>  <nHetero>
7

>  <nN>
5

>  <nO>
1

>  <nF>
0

>  <BalabanJ>
1.25

>  <BertzCT>
984.83

>  <nBonds>
54

>  <nBondsO>
30

>  <nBondsS>
35

>  <nBondsD>
1

>  <nBondsT>
0

>  <nBondsA>
18

>  <nBondsM>
19

>  <nBondsKS>
45

>  <nBondsKD>
9

>  <RNCG>
0.17

>  <RPCG>
0.12

>  <FCSP3>
0.33

>  <SZ>
38

>  <Sm>
36.83

>  <Sv>
33.3

>  <Sse>
51.97

>  <Sp>
36.18

>  <Si>
58.7

>  <MZ>
0.73

>  <Mm>
0.71

>  <Mv>
0.64

>  <Mse>
1

>  <Mp>
0.7

>  <Mi>
1.13

>  <NsCH3>
2

>  <NdCH2>
0

>  <NssCH2>
5

>  <NtCH>
0

>  <NdsCH>
0

>  <NaaCH>
6

>  <NsssCH>
0

>  <NddC>
0

>  <NtsC>
0

>  <NdssC>
0

>  <NaasC>
7

>  <NaaaC>
0

>  <NssssC>
0

>  <NsNH3>
0

>  <NsNH2>
0

>  <NssNH2>
0

>  <NdNH>
0

>  <NssNH>
1

>  <NaaNH>
1

>  <NtN>
0

>  <NsssNH>
0

>  <NdsN>
0

>  <NaaN>
3

>  <NsssN>
0

>  <NddsN>
0

>  <NaasN>
0

>  <NssssN>
0

>  <NsOH>
0

>  <NdO>
1

>  <NssO>
0

>  <NaaO>
0

>  <NsF>
0

>  <NsSiH3>
0

>  <NssSiH2>
0

>  <NsssSiH>
0

>  <NssssSi>
0

>  <NsPH2>
0

>  <NssPH>
0

>  <NsssP>
0

>  <NdsssP>
0

>  <NsssssP>
0

>  <NsSH>
0

>  <NdS>
0

>  <NssS>
0

>  <NaaS>
0

>  <NdssS>
0

>  <NddssS>
0

>  <NsCl>
0

>  <NsBr>
1

>  <NsI>
0

>  <fragCpx>
144.07

>  <fMF>
0.46

>  <nHBAcc>
5

>  <nHBDon>
2

>  <Kier1>
22.68

>  <Kier2>
11.41

>  <Lipinski>
1

>  <GhoseFilter>
1

>  <FilterItLogS>
-8.53

>  <VMcGowan>
308.74

>  <LabuteASA>
172.56

>  <PEOE_VSA1>
5.32

>  <PEOE_VSA2>
19.75

>  <PEOE_VSA3>
4.98

>  <PEOE_VSA4>
0

>  <PEOE_VSA5>
0

>  <PEOE_VSA6>
6.07

>  <PEOE_VSA7>
72.3

>  <PEOE_VSA8>
52.98

>  <PEOE_VSA9>
0

>  <PEOE_VSA10>
0

>  <PEOE_VSA11>
0

>  <PEOE_VSA12>
5.95

>  <PEOE_VSA13>
5.56

>  <SMR_VSA1>
0

>  <SMR_VSA2>
0

>  <SMR_VSA3>
19.94

>  <SMR_VSA4>
0

>  <SMR_VSA5>
39.53

>  <SMR_VSA6>
11.86

>  <SMR_VSA7>
79.69

>  <SMR_VSA8>
0

>  <SMR_VSA9>
0

>  <SlogP_VSA1>
10.88

>  <SlogP_VSA2>
26.48

>  <SlogP_VSA3>
12.84

>  <SlogP_VSA4>
13.85

>  <SlogP_VSA5>
40.92

>  <SlogP_VSA6>
46.06

>  <SlogP_VSA7>
0

>  <SlogP_VSA8>
0

>  <SlogP_VSA9>
0

>  <SlogP_VSA10>
5.95

>  <SlogP_VSA11>
0

>  <EState_VSA1>
0

>  <EState_VSA2>
5.56

>  <EState_VSA3>
17.93

>  <EState_VSA4>
47.23

>  <EState_VSA5>
5.56

>  <EState_VSA6>
12.39

>  <EState_VSA7>
25.25

>  <EState_VSA8>
54.17

>  <EState_VSA9>
0

>  <EState_VSA10>
4.79

>  <VSA_EState1>
1.01

>  <VSA_EState2>
28.15

>  <VSA_EState3>
3.19

>  <VSA_EState4>
4.8

>  <VSA_EState5>
0.51

>  <VSA_EState6>
6.01

>  <VSA_EState7>
8.72

>  <VSA_EState8>
4.77

>  <VSA_EState9>
0

>  <apol>
60.43

>  <bpol>
30.88

>  <nRing>
3

>  <nHRing>
3

>  <naRing>
3

>  <naHRing>
3

>  <nARing 2>
0

>  <nAHRing 2>
0

>  <nFRing>
0

>  <nFHRing>
0

>  <nFaRing>
0

>  <nFaHRing>
0

>  <nFARing 2>
0

>  <nFAHRing 2>
0

>  <nRot>
8

>  <SLogP>
3.96

>  <SMR>
114.74

>  <TopoPSA(NO)>
83.56

>  <TopoPSA>
83.56

>  <JGI1>
0.2

>  <JGI2>
0.07

>  <JGI3>
0.04

>  <JGI4>
0.05

>  <JGI5>
0.02

>  <Diameter>
19

>  <Radius>
10

>  <TMWC10>
132.42

>  <TSRW10>
62.82

>  <MW>
441.12

>  <AMW>
8.48

>  <WPath>
2666

>  <WPol>
39

>  <Zagreb1>
140

>  <Zagreb2>
158

>  <mZagreb2>
6.22

>  <yes>


>  <nAR-cont>
0.336376

>  <nHA-cont>
0.82432561

>  <MWHBN>
0.333287991

>  <MWHBN-cont>
0.731244957

>  <TPSA-cont>
0.416699312

>  <pka_cont>
0.97

>  <yes.1>


>  <BBB_SCORE>
3.57596767

>  <MMFF94 Energy>
-70.147

$$$$
Compound 9
Actelion Java MolfileCreator 2.0

  0  0  0  0  0  0              0 V3000
M  V30 BEGIN CTAB
M  V30 COUNTS 23 24 0 0 0
M  V30 BEGIN ATOM
M  V30 1 N 0.3918 1.7249 -0.7837 0
M  V30 2 C 0.6016 1.1708 0.3753 0
M  V30 3 C 0.9129 3.1132 -0.6574 0
M  V30 4 N 1.1717 1.9698 1.3149 0
M  V30 5 N 0.3406 -0.0904 0.8045 0
M  V30 6 C 1.323 3.3036 0.805 0
M  V30 7 C -0.329 -1.1382 0.1485 0
M  V30 8 C -0.9537 -1.0074 -1.0958 0
M  V30 9 C -0.3938 -2.393 0.7796 0
M  V30 10 C -1.613 -2.0871 -1.6945 0
M  V30 11 C -1.0513 -3.4751 0.186 0
M  V30 12 C -1.6614 -3.3212 -1.0539 0
M  V30 13 H 0.1411 3.8328 -0.9486 0
M  V30 14 H 1.7713 3.2388 -1.326 0
M  V30 15 H 1.1224 1.7899 2.3045 0
M  V30 16 H 0.7439 -0.3446 1.691 0
M  V30 17 H 2.3518 3.6621 0.8977 0
M  V30 18 H 0.6498 3.9962 1.3195 0
M  V30 19 H -0.9427 -0.0601 -1.6273 0
M  V30 20 H 0.0736 -2.5438 1.7492 0
M  V30 21 H -2.0872 -1.9552 -2.6635 0
M  V30 22 H -1.0849 -4.4354 0.6932 0
M  V30 23 H -2.1731 -4.1581 -1.5208 0
M  V30 END ATOM
M  V30 BEGIN BOND
M  V30 1 2 1 2
M  V30 2 1 1 3
M  V30 3 1 2 4
M  V30 4 1 2 5
M  V30 5 1 3 6
M  V30 6 1 5 7
M  V30 7 2 7 8
M  V30 8 1 7 9
M  V30 9 1 8 10
M  V30 10 2 9 11
M  V30 11 2 10 12
M  V30 12 1 4 6
M  V30 13 1 11 12
M  V30 14 1 3 13
M  V30 15 1 3 14
M  V30 16 1 4 15
M  V30 17 1 5 16
M  V30 18 1 6 17
M  V30 19 1 6 18
M  V30 20 1 8 19
M  V30 21 1 9 20
M  V30 22 1 10 21
M  V30 23 1 11 22
M  V30 24 1 12 23
M  V30 END BOND
M  V30 END CTAB
M  END
>  <Column 1>
14

>  <level_0>
15

>  <index>
15

>  <Unnamed: 0>
15

>  <NO.>
16

>  <Name>
1848-75-5

>  <IUPAC_name>
n-phenyl-4-5-dihydro-1h-imidazol-2-amine

>  <SMILES>
c1ccc(NC2=NCCN2)cc1

>  <CID>
137235

>  <logBB>
-1.89

>  <BBB+/BBB->
BBB-

>  <Inchi>
InChI=1S/C9H11N3/c1-2-4-8(5-3-1)12-9-10-6-7-11-9/h1-5H-6-7H2-(H2-10-11-12)

>  <threshold>


>  <reference>
R2|R2|R8|R25|R46|R47|R4|R40|

>  <group>
A

>  <Class>
-1

>  <ABC>
9.19

>  <ABCGG>
8.25

>  <nAcid>
0

>  <nBase>
3

>  <nAromAtom>
6

>  <nAromBond>
6

>  <nAtom>
23

>  <nHeavyAtom>
12

>  <nSpiro>
0

>  <nBridgehead>
0

>  <nHetero>
3

>  <nN>
3

>  <nO>
0

>  <nF>
0

>  <BalabanJ>
1.69

>  <BertzCT>
279.08

>  <nBonds>
24

>  <nBondsO>
13

>  <nBondsS>
17

>  <nBondsD>
1

>  <nBondsT>
0

>  <nBondsA>
6

>  <nBondsM>
7

>  <nBondsKS>
20

>  <nBondsKD>
4

>  <RNCG>
0.3

>  <RPCG>
0.16

>  <FCSP3>
0.22

>  <SZ>
14.33

>  <Sm>
13.42

>  <Sv>
14.25

>  <Sse>
22.87

>  <Sp>
15.37

>  <Si>
26.16

>  <MZ>
0.62

>  <Mm>
0.58

>  <Mv>
0.62

>  <Mse>
0.99

>  <Mp>
0.67

>  <Mi>
1.14

>  <NsCH3>
0

>  <NdCH2>
0

>  <NssCH2>
2

>  <NtCH>
0

>  <NdsCH>
0

>  <NaaCH>
5

>  <NsssCH>
0

>  <NddC>
0

>  <NtsC>
0

>  <NdssC>
1

>  <NaasC>
1

>  <NaaaC>
0

>  <NssssC>
0

>  <NsNH3>
0

>  <NsNH2>
0

>  <NssNH2>
0

>  <NdNH>
0

>  <NssNH>
2

>  <NaaNH>
0

>  <NtN>
0

>  <NsssNH>
0

>  <NdsN>
1

>  <NaaN>
0

>  <NsssN>
0

>  <NddsN>
0

>  <NaasN>
0

>  <NssssN>
0

>  <NsOH>
0

>  <NdO>
0

>  <NssO>
0

>  <NaaO>
0

>  <NsF>
0

>  <NsSiH3>
0

>  <NssSiH2>
0

>  <NsssSiH>
0

>  <NssssSi>
0

>  <NsPH2>
0

>  <NssPH>
0

>  <NsssP>
0

>  <NdsssP>
0

>  <NsssssP>
0

>  <NsSH>
0

>  <NdS>
0

>  <NssS>
0

>  <NaaS>
0

>  <NdssS>
0

>  <NddssS>
0

>  <NsCl>
0

>  <NsBr>
0

>  <NsI>
0

>  <fragCpx>
37.03

>  <fMF>
0.52

>  <nHBAcc>
3

>  <nHBDon>
2

>  <Kier1>
8.59

>  <Kier2>
4.3

>  <Lipinski>
1

>  <GhoseFilter>
1

>  <FilterItLogS>
-2.6

>  <VMcGowan>
128.69

>  <LabuteASA>
71.52

>  <PEOE_VSA1>
10.63

>  <PEOE_VSA2>
4.99

>  <PEOE_VSA3>
0

>  <PEOE_VSA4>
0

>  <PEOE_VSA5>
0

>  <PEOE_VSA6>
18.2

>  <PEOE_VSA7>
12.13

>  <PEOE_VSA8>
12.23

>  <PEOE_VSA9>
6.54

>  <PEOE_VSA10>
0

>  <PEOE_VSA11>
5.96

>  <PEOE_VSA12>
0

>  <PEOE_VSA13>
0

>  <SMR_VSA1>
0

>  <SMR_VSA2>
0

>  <SMR_VSA3>
5.32

>  <SMR_VSA4>
4.99

>  <SMR_VSA5>
0

>  <SMR_VSA6>
18.41

>  <SMR_VSA7>
30.33

>  <SMR_VSA8>
0

>  <SMR_VSA9>
0

>  <SlogP_VSA1>
10.63

>  <SlogP_VSA2>
19.05

>  <SlogP_VSA3>
0

>  <SlogP_VSA4>
0

>  <SlogP_VSA5>
0

>  <SlogP_VSA6>
35.32

>  <SlogP_VSA7>
0

>  <SlogP_VSA8>
0

>  <SlogP_VSA9>
0

>  <SlogP_VSA10>
5.69

>  <SlogP_VSA11>
0

>  <EState_VSA1>
0

>  <EState_VSA2>
0

>  <EState_VSA3>
0

>  <EState_VSA4>
24.74

>  <EState_VSA5>
0

>  <EState_VSA6>
0

>  <EState_VSA7>
30.33

>  <EState_VSA8>
15.63

>  <EState_VSA9>
0

>  <EState_VSA10>
0

>  <VSA_EState1>
0

>  <VSA_EState2>
4.23

>  <VSA_EState3>
6.32

>  <VSA_EState4>
1.07

>  <VSA_EState5>
0.88

>  <VSA_EState6>
10.02

>  <VSA_EState7>
0

>  <VSA_EState8>
1.81

>  <VSA_EState9>
0

>  <apol>
25.66

>  <bpol>
13.32

>  <nRing>
2

>  <nHRing>
1

>  <naRing>
1

>  <naHRing>
0

>  <nARing 2>
1

>  <nAHRing 2>
1

>  <nFRing>
0

>  <nFHRing>
0

>  <nFaRing>
0

>  <nFaHRing>
0

>  <nFARing 2>
0

>  <nFAHRing 2>
0

>  <nRot>
1

>  <SLogP>
1.06

>  <SMR>
50.37

>  <TopoPSA(NO)>
36.42

>  <TopoPSA>
36.42

>  <JGI1>
0.12

>  <JGI2>
0.03

>  <JGI3>
0.04

>  <JGI4>
0.02

>  <JGI5>
0.01

>  <Diameter>
7

>  <Radius>
4

>  <TMWC10>
90.51

>  <TSRW10>
55.11

>  <MW>
161.1

>  <AMW>
7

>  <WPath>
209

>  <WPol>
11

>  <Zagreb1>
58

>  <Zagreb2>
64

>  <mZagreb2>
2.75

>  <yes>


>  <nAR-cont>
0.816016

>  <nHA-cont>
0.785745021

>  <MWHBN>
0.393932883

>  <MWHBN-cont>
0.49996151

>  <TPSA-cont>
0.745765785

>  <pka_cont>
0.97

>  <yes.1>


>  <BBB_SCORE>
4.328234854

>  <MMFF94 Energy>
-37.12

$$$$
Compound 10
Actelion Java MolfileCreator 2.0

  0  0  0  0  0  0              0 V3000
M  V30 BEGIN CTAB
M  V30 COUNTS 56 58 0 0 0
M  V30 BEGIN ATOM
M  V30 1 Br -1.9108 7.7404 4.5429 0
M  V30 2 C -1.9114 5.8641 4.717 0
M  V30 3 C -2.7111 5.0764 3.9129 0
M  V30 4 C -1.1105 5.2386 5.6629 0
M  V30 5 N -2.7517 3.7262 3.9913 0
M  V30 6 C -1.1285 3.8405 5.7789 0
M  V30 7 C -1.9491 3.1141 4.901 0
M  V30 8 C -0.2633 3.1751 6.8091 0
M  V30 9 C -2.0445 1.6041 4.9748 0
M  V30 10 C -2.445 0.9082 3.6661 0
M  V30 11 C -1.3546 0.9961 2.5918 0
M  V30 12 C -1.7937 0.2923 1.305 0
M  V30 13 N -0.7198 0.3711 0.3146 0
M  V30 14 C -1.07 -0.2545 -0.9237 0
M  V30 15 N -0.1442 0.2544 -1.8657 0
M  V30 16 N -0.998 -1.6822 -0.7957 0
M  V30 17 C 0.8531 -0.4039 -2.5111 0
M  V30 18 C 0.3411 -2.2348 -0.9794 0
M  V30 19 O 1.646 0.2215 -3.2105 0
M  V30 20 C 0.8626 -1.9099 -2.3733 0
M  V30 21 C 2.2664 -2.5008 -2.5849 0
M  V30 22 C 2.4914 -2.9647 -4.0012 0
M  V30 23 C 2.1484 -4.253 -4.3986 0
M  V30 24 C 3.0238 -2.1194 -4.9735 0
M  V30 25 N 2.3013 -4.7307 -5.6541 0
M  V30 26 C 3.1943 -2.5839 -6.2753 0
M  V30 27 C 2.8238 -3.8901 -6.5771 0
M  V30 28 C 2.9942 -4.417 -7.9701 0
M  V30 29 H -3.3633 5.5087 3.1601 0
M  V30 30 H -0.4751 5.8335 6.3142 0
M  V30 31 H 0.1774 3.9064 7.4953 0
M  V30 32 H 0.5556 2.6353 6.3236 0
M  V30 33 H -0.8522 2.4799 7.4161 0
M  V30 34 H -2.787 1.3609 5.7448 0
M  V30 35 H -1.0886 1.1791 5.3007 0
M  V30 36 H -3.3869 1.3188 3.2827 0
M  V30 37 H -2.6344 -0.1499 3.8872 0
M  V30 38 H -1.123 2.0451 2.3719 0
M  V30 39 H -0.4343 0.5358 2.9734 0
M  V30 40 H -2.6968 0.7808 0.9197 0
M  V30 41 H -2.0424 -0.7514 1.5305 0
M  V30 42 H 0.1024 -0.0991 0.6746 0
M  V30 43 H -2.065 0.0624 -1.2567 0
M  V30 44 H -0.1318 1.2583 -1.9662 0
M  V30 45 H -1.6122 -2.0764 -1.5065 0
M  V30 46 H 1.0231 -1.8722 -0.2002 0
M  V30 47 H 0.2785 -3.3219 -0.8512 0
M  V30 48 H 0.1614 -2.3071 -3.1203 0
M  V30 49 H 2.4183 -3.3674 -1.9275 0
M  V30 50 H 3.0506 -1.7857 -2.3047 0
M  V30 51 H 1.724 -4.9661 -3.6969 0
M  V30 52 H 3.3015 -1.0963 -4.7282 0
M  V30 53 H 3.6062 -1.9306 -7.0374 0
M  V30 54 H 4.0481 -4.3791 -8.2625 0
M  V30 55 H 2.4034 -3.8225 -8.674 0
M  V30 56 H 2.6591 -5.457 -8.0371 0
M  V30 END ATOM
M  V30 BEGIN BOND
M  V30 1 1 1 2
M  V30 2 2 2 3
M  V30 3 1 2 4
M  V30 4 1 3 5
M  V30 5 2 4 6
M  V30 6 2 5 7
M  V30 7 1 6 8
M  V30 8 1 7 9
M  V30 9 1 9 10
M  V30 10 1 10 11
M  V30 11 1 11 12
M  V30 12 1 12 13
M  V30 13 1 13 14
M  V30 14 1 14 15
M  V30 15 1 14 16
M  V30 16 1 15 17
M  V30 17 1 16 18
M  V30 18 2 17 19
M  V30 19 1 17 20
M  V30 20 1 20 21
M  V30 21 1 21 22
M  V30 22 2 22 23
M  V30 23 1 22 24
M  V30 24 1 23 25
M  V30 25 2 24 26
M  V30 26 2 25 27
M  V30 27 1 27 28
M  V30 28 1 6 7
M  V30 29 1 18 20
M  V30 30 1 26 27
M  V30 31 1 3 29
M  V30 32 1 4 30
M  V30 33 1 8 31
M  V30 34 1 8 32
M  V30 35 1 8 33
M  V30 36 1 9 34
M  V30 37 1 9 35
M  V30 38 1 10 36
M  V30 39 1 10 37
M  V30 40 1 11 38
M  V30 41 1 11 39
M  V30 42 1 12 40
M  V30 43 1 12 41
M  V30 44 1 13 42
M  V30 45 1 14 43
M  V30 46 1 15 44
M  V30 47 1 16 45
M  V30 48 1 18 46
M  V30 49 1 18 47
M  V30 50 1 20 48
M  V30 51 1 21 49
M  V30 52 1 21 50
M  V30 53 1 23 51
M  V30 54 1 24 52
M  V30 55 1 26 53
M  V30 56 1 28 54
M  V30 57 1 28 55
M  V30 58 1 28 56
M  V30 END BOND
M  V30 END CTAB
M  END
>  <Column 1>
15

>  <level_0>
16

>  <index>
16

>  <Unnamed: 0>
16

>  <NO.>
17

>  <Name>
2-[4-(5-bromo-3-methylpyridin-2-yl)butylamino]-5-[(6-methylpyridin-3-yl)methyl]-1-3-diazinan-4-one

>  <IUPAC_name>
2-[4-(5-bromo-3-methylpyridin-2-yl)butylamino]-5-[(6-methylpyridin-3-yl)methyl]-1-3-diazinan-4-one

>  <SMILES>
Cc1ccc(CC2CNC(NCCCCc3ncc(Br)cc3C)NC2=O)cn1

>  <CID>
74041479

>  <logBB>
-1.88

>  <BBB+/BBB->
BBB-

>  <Inchi>
InChI=1S/C21H28BrN5O/c1-14-9-18(22)13-25-19(14)5-3-4-8-23-21-26-12-17(20(28)27-21)10-16-7-6-15(2)24-11-16/h6-7-9-11-13-17-21-23-26H-3-5-8-10-12H2-1-2H3-(H-27-28)

>  <threshold>


>  <reference>
R35|

>  <group>
A

>  <Class>
-1

>  <ABC>
21.57

>  <ABCGG>
15.4

>  <nAcid>
0

>  <nBase>
2

>  <nAromAtom>
12

>  <nAromBond>
12

>  <nAtom>
56

>  <nHeavyAtom>
28

>  <nSpiro>
0

>  <nBridgehead>
0

>  <nHetero>
7

>  <nN>
5

>  <nO>
1

>  <nF>
0

>  <BalabanJ>
1.25

>  <BertzCT>
795.88

>  <nBonds>
58

>  <nBondsO>
30

>  <nBondsS>
45

>  <nBondsD>
1

>  <nBondsT>
0

>  <nBondsA>
12

>  <nBondsM>
13

>  <nBondsKS>
51

>  <nBondsKD>
7

>  <RNCG>
0.16

>  <RPCG>
0.11

>  <FCSP3>
0.48

>  <SZ>
38.67

>  <Sm>
37.17

>  <Sv>
34.38

>  <Sse>
55.75

>  <Sp>
37.78

>  <Si>
63.53

>  <MZ>
0.69

>  <Mm>
0.66

>  <Mv>
0.61

>  <Mse>
1

>  <Mp>
0.67

>  <Mi>
1.13

>  <NsCH3>
2

>  <NdCH2>
0

>  <NssCH2>
6

>  <NtCH>
0

>  <NdsCH>
0

>  <NaaCH>
5

>  <NsssCH>
2

>  <NddC>
0

>  <NtsC>
0

>  <NdssC>
1

>  <NaasC>
5

>  <NaaaC>
0

>  <NssssC>
0

>  <NsNH3>
0

>  <NsNH2>
0

>  <NssNH2>
0

>  <NdNH>
0

>  <NssNH>
3

>  <NaaNH>
0

>  <NtN>
0

>  <NsssNH>
0

>  <NdsN>
0

>  <NaaN>
2

>  <NsssN>
0

>  <NddsN>
0

>  <NaasN>
0

>  <NssssN>
0

>  <NsOH>
0

>  <NdO>
1

>  <NssO>
0

>  <NaaO>
0

>  <NsF>
0

>  <NsSiH3>
0

>  <NssSiH2>
0

>  <NsssSiH>
0

>  <NssssSi>
0

>  <NsPH2>
0

>  <NssPH>
0

>  <NsssP>
0

>  <NdsssP>
0

>  <NsssssP>
0

>  <NsSH>
0

>  <NdS>
0

>  <NssS>
0

>  <NaaS>
0

>  <NdssS>
0

>  <NddssS>
0

>  <NsCl>
0

>  <NsBr>
1

>  <NsI>
0

>  <fragCpx>
144.07

>  <fMF>
0.43

>  <nHBAcc>
5

>  <nHBDon>
3

>  <Kier1>
22.68

>  <Kier2>
11.41

>  <Lipinski>
1

>  <GhoseFilter>
1

>  <FilterItLogS>
-7.63

>  <VMcGowan>
317.34

>  <LabuteASA>
174.61

>  <PEOE_VSA1>
5.32

>  <PEOE_VSA2>
25.4

>  <PEOE_VSA3>
0

>  <PEOE_VSA4>
0

>  <PEOE_VSA5>
0

>  <PEOE_VSA6>
6.07

>  <PEOE_VSA7>
85.27

>  <PEOE_VSA8>
34.8

>  <PEOE_VSA9>
5.92

>  <PEOE_VSA10>
6.29

>  <PEOE_VSA11>
0

>  <PEOE_VSA12>
5.91

>  <PEOE_VSA13>
0

>  <SMR_VSA1>
4.79

>  <SMR_VSA2>
0

>  <SMR_VSA3>
25.92

>  <SMR_VSA4>
5.92

>  <SMR_VSA5>
45.82

>  <SMR_VSA6>
13.09

>  <SMR_VSA7>
57.58

>  <SMR_VSA8>
0

>  <SMR_VSA9>
0

>  <SlogP_VSA1>
15.95

>  <SlogP_VSA2>
35.25

>  <SlogP_VSA3>
17.64

>  <SlogP_VSA4>
19.77

>  <SlogP_VSA5>
35.36

>  <SlogP_VSA6>
35.07

>  <SlogP_VSA7>
0

>  <SlogP_VSA8>
0

>  <SlogP_VSA9>
0

>  <SlogP_VSA10>
0

>  <SlogP_VSA11>
0

>  <EState_VSA1>
0

>  <EState_VSA2>
18.11

>  <EState_VSA3>
12.97

>  <EState_VSA4>
47.23

>  <EState_VSA5>
5.56

>  <EState_VSA6>
0

>  <EState_VSA7>
31.45

>  <EState_VSA8>
54.84

>  <EState_VSA9>
0

>  <EState_VSA10>
4.79

>  <VSA_EState1>
1.02

>  <VSA_EState2>
21.18

>  <VSA_EState3>
9.77

>  <VSA_EState4>
4.46

>  <VSA_EState5>
0.03

>  <VSA_EState6>
6.13

>  <VSA_EState7>
7.32

>  <VSA_EState8>
5.57

>  <VSA_EState9>
0

>  <apol>
63.09

>  <bpol>
34.33

>  <nRing>
3

>  <nHRing>
3

>  <naRing>
2

>  <naHRing>
2

>  <nARing 2>
1

>  <nAHRing 2>
1

>  <nFRing>
0

>  <nFHRing>
0

>  <nFaRing>
0

>  <nFaHRing>
0

>  <nFARing 2>
0

>  <nFAHRing 2>
0

>  <nRot>
8

>  <SLogP>
2.63

>  <SMR>
113.72

>  <TopoPSA(NO)>
78.94

>  <TopoPSA>
78.94

>  <JGI1>
0.2

>  <JGI2>
0.07

>  <JGI3>
0.04

>  <JGI4>
0.05

>  <JGI5>
0.02

>  <Diameter>
19

>  <Radius>
10

>  <TMWC10>
132.42

>  <TSRW10>
62.82

>  <MW>
445.15

>  <AMW>
7.95

>  <WPath>
2666

>  <WPol>
39

>  <Zagreb1>
140

>  <Zagreb2>
158

>  <mZagreb2>
6.22

>  <yes>


>  <nAR-cont>
0.816016

>  <nHA-cont>
0.82432561

>  <MWHBN>
0.37917247

>  <MWHBN-cont>
0.558051327

>  <TPSA-cont>
0.448949781

>  <pka_cont>
0.97

>  <yes.1>


>  <BBB_SCORE>
3.860318163

>  <MMFF94 Energy>
-128.82

$$$$
Compound 11
Actelion Java MolfileCreator 2.0

  0  0  0  0  0  0              0 V3000
M  V30 BEGIN CTAB
M  V30 COUNTS 43 46 0 0 0
M  V30 BEGIN ATOM
M  V30 1 Cl -0.9758 6.4372 1.6267 0
M  V30 2 C -1.8361 4.9387 1.7318 0
M  V30 3 C -1.4188 3.7625 1.0849 0
M  V30 4 C -2.964 4.9277 2.5636 0
M  V30 5 C -0.2946 3.827 0.1067 0
M  V30 6 C -2.1449 2.5732 1.3159 0
M  V30 7 C -3.6853 3.7527 2.7651 0
M  V30 8 O -0.3344 4.6979 -0.7584 0
M  V30 9 N 0.7195 2.8768 0.1765 0
M  V30 10 N -1.7189 1.3385 0.7755 0
M  V30 11 C -3.2746 2.5723 2.1513 0
M  V30 12 C 0.7058 1.7682 1.1121 0
M  V30 13 C 1.7937 2.9015 -0.8034 0
M  V30 14 C -0.4142 0.8985 0.7012 0
M  V30 15 C -2.5095 0.3214 0.3019 0
M  V30 16 C -0.4882 -0.3794 0.1785 0
M  V30 17 N -1.8035 -0.7283 -0.0508 0
M  V30 18 C 0.5939 -1.321 -0.14 0
M  V30 19 N 1.9001 -1.0575 0.0058 0
M  V30 20 N 0.3121 -2.5721 -0.6335 0
M  V30 21 O 2.5165 -2.2348 -0.4246 0
M  V30 22 C 1.5126 -3.0905 -0.7823 0
M  V30 23 C 1.902 -4.4325 -1.3233 0 CFG=1
M  V30 24 O 2.9652 -4.9409 -0.5021 0
M  V30 25 C 0.7043 -5.4057 -1.2344 0
M  V30 26 C 2.4113 -4.2949 -2.7594 0
M  V30 27 O -0.3688 -5.0613 -2.1072 0
M  V30 28 H -3.2827 5.8401 3.0647 0
M  V30 29 H -4.557 3.7562 3.4166 0
M  V30 30 H -3.8326 1.6604 2.3578 0
M  V30 31 H 0.5505 2.1549 2.1262 0
M  V30 32 H 1.6743 1.2631 1.1071 0
M  V30 33 H 1.7205 2.0064 -1.4282 0
M  V30 34 H 2.7523 2.9028 -0.2763 0
M  V30 35 H 1.7445 3.7849 -1.445 0
M  V30 36 H -3.5866 0.4002 0.2301 0
M  V30 37 H 3.2799 -5.7674 -0.9073 0
M  V30 38 H 1.0295 -6.4186 -1.4987 0
M  V30 39 H 0.3169 -5.4687 -0.21 0
M  V30 40 H 3.3125 -3.6713 -2.798 0
M  V30 41 H 2.6937 -5.2722 -3.1669 0
M  V30 42 H 1.6623 -3.8467 -3.4213 0
M  V30 43 H -0.735 -4.2131 -1.7779 0
M  V30 END ATOM
M  V30 BEGIN BOND
M  V30 1 1 1 2
M  V30 2 2 2 3
M  V30 3 1 2 4
M  V30 4 1 3 5
M  V30 5 1 3 6
M  V30 6 2 4 7
M  V30 7 2 5 8
M  V30 8 1 5 9
M  V30 9 1 6 10
M  V30 10 2 6 11
M  V30 11 1 9 12
M  V30 12 1 9 13
M  V30 13 1 10 14
M  V30 14 1 10 15
M  V30 15 2 14 16
M  V30 16 2 15 17
M  V30 17 1 16 18
M  V30 18 2 18 19
M  V30 19 1 18 20
M  V30 20 1 19 21
M  V30 21 2 20 22
M  V30 22 1 22 23
M  V30 23 1 23 24
M  V30 24 1 23 25
M  V30 25 1 23 26
M  V30 26 1 25 27
M  V30 27 1 7 11
M  V30 28 1 12 14
M  V30 29 1 16 17
M  V30 30 1 21 22
M  V30 31 1 4 28
M  V30 32 1 7 29
M  V30 33 1 11 30
M  V30 34 1 12 31
M  V30 35 1 12 32
M  V30 36 1 13 33
M  V30 37 1 13 34
M  V30 38 1 13 35
M  V30 39 1 15 36
M  V30 40 1 24 37
M  V30 41 1 25 38
M  V30 42 1 25 39
M  V30 43 1 26 40
M  V30 44 1 26 41
M  V30 45 1 26 42
M  V30 46 1 27 43
M  V30 END BOND
M  V30 BEGIN COLLECTION
M  V30 MDLV30/STERAC1 ATOMS=(1 23)
M  V30 END COLLECTION
M  V30 END CTAB
M  END
>  <Column 1>
16

>  <level_0>
17

>  <index>
17

>  <Unnamed: 0>
17

>  <NO.>
18

>  <Name>
m2l-663581

>  <IUPAC_name>
7-chloro-3-[5-(1-2-dihydroxypropan-2-yl)-1-2-4-oxadiazol-3-yl]-5-methyl-4h-imidazo[1-5-a][1-4]benzodiazepin-6-one

>  <SMILES>
CN1Cc2c(-c3noc(C(C)(O)CO)n3)ncn2-c2cccc(Cl)c2C1=O

>  <CID>
10091748

>  <logBB>
-1.82

>  <BBB+/BBB->
BBB-

>  <Inchi>
InChI=1S/C17H16ClN5O4/c1-17(26-7-24)16-20-14(21-27-16)13-11-6-22(2)15(25)12-9(18)4-3-5-10(12)23(11)8-19-13/h3-5-8-24-26H-6-7H2-1-2H3

>  <threshold>


>  <reference>
R2|R2|R8|R40|R3|R4|R12|R21|R25|R27|R36|R38|R41|R43|R46|R47|R49|R49|

>  <group>
A

>  <Class>
-1

>  <ABC>
21.47

>  <ABCGG>
17.98

>  <nAcid>
0

>  <nBase>
0

>  <nAromAtom>
16

>  <nAromBond>
16

>  <nAtom>
43

>  <nHeavyAtom>
27

>  <nSpiro>
0

>  <nBridgehead>
0

>  <nHetero>
10

>  <nN>
5

>  <nO>
4

>  <nF>
0

>  <BalabanJ>
1.52

>  <BertzCT>
1041.88

>  <nBonds>
46

>  <nBondsO>
30

>  <nBondsS>
29

>  <nBondsD>
1

>  <nBondsT>
0

>  <nBondsA>
16

>  <nBondsM>
17

>  <nBondsKS>
38

>  <nBondsKD>
8

>  <RNCG>
0.14

>  <RPCG>
0.1

>  <FCSP3>
0.29

>  <SZ>
33.67

>  <Sm>
32.45

>  <Sv>
29.07

>  <Sse>
44.51

>  <Sp>
29.91

>  <Si>
48.77

>  <MZ>
0.78

>  <Mm>
0.75

>  <Mv>
0.68

>  <Mse>
1.04

>  <Mp>
0.7

>  <Mi>
1.13

>  <NsCH3>
2

>  <NdCH2>
0

>  <NssCH2>
2

>  <NtCH>
0

>  <NdsCH>
0

>  <NaaCH>
4

>  <NsssCH>
0

>  <NddC>
0

>  <NtsC>
0

>  <NdssC>
1

>  <NaasC>
7

>  <NaaaC>
0

>  <NssssC>
1

>  <NsNH3>
0

>  <NsNH2>
0

>  <NssNH2>
0

>  <NdNH>
0

>  <NssNH>
0

>  <NaaNH>
0

>  <NtN>
0

>  <NsssNH>
0

>  <NdsN>
0

>  <NaaN>
3

>  <NsssN>
1

>  <NddsN>
0

>  <NaasN>
1

>  <NssssN>
0

>  <NsOH>
2

>  <NdO>
1

>  <NssO>
0

>  <NaaO>
1

>  <NsF>
0

>  <NsSiH3>
0

>  <NssSiH2>
0

>  <NsssSiH>
0

>  <NssssSi>
0

>  <NsPH2>
0

>  <NssPH>
0

>  <NsssP>
0

>  <NdsssP>
0

>  <NsssssP>
0

>  <NsSH>
0

>  <NdS>
0

>  <NssS>
0

>  <NaaS>
0

>  <NdssS>
0

>  <NddssS>
0

>  <NsCl>
1

>  <NsBr>
0

>  <NsI>
0

>  <fragCpx>
198.1

>  <fMF>
0.44

>  <nHBAcc>
8

>  <nHBDon>
2

>  <Kier1>
20.28

>  <Kier2>
7.68

>  <Lipinski>
1

>  <GhoseFilter>
1

>  <FilterItLogS>
-3.71

>  <VMcGowan>
258.17

>  <LabuteASA>
158.37

>  <PEOE_VSA1>
19.64

>  <PEOE_VSA2>
9.36

>  <PEOE_VSA3>
4.98

>  <PEOE_VSA4>
4.98

>  <PEOE_VSA5>
0

>  <PEOE_VSA6>
22.82

>  <PEOE_VSA7>
19.06

>  <PEOE_VSA8>
7.05

>  <PEOE_VSA9>
35.12

>  <PEOE_VSA10>
12.02

>  <PEOE_VSA11>
5.6

>  <PEOE_VSA12>
5.82

>  <PEOE_VSA13>
11.8

>  <SMR_VSA1>
19.53

>  <SMR_VSA2>
0

>  <SMR_VSA3>
24.59

>  <SMR_VSA4>
0

>  <SMR_VSA5>
19.07

>  <SMR_VSA6>
13.65

>  <SMR_VSA7>
46.7

>  <SMR_VSA8>
0

>  <SMR_VSA9>
17.21

>  <SlogP_VSA1>
0

>  <SlogP_VSA2>
54.37

>  <SlogP_VSA3>
12.15

>  <SlogP_VSA4>
0

>  <SlogP_VSA5>
28.87

>  <SlogP_VSA6>
29.05

>  <SlogP_VSA7>
5.02

>  <SlogP_VSA8>
17.21

>  <SlogP_VSA9>
0

>  <SlogP_VSA10>
0

>  <SlogP_VSA11>
0

>  <EState_VSA1>
12.21

>  <EState_VSA2>
24.17

>  <EState_VSA3>
27.66

>  <EState_VSA4>
0

>  <EState_VSA5>
11.82

>  <EState_VSA6>
36.14

>  <EState_VSA7>
0

>  <EState_VSA8>
15.12

>  <EState_VSA9>
16.12

>  <EState_VSA10>
15.01

>  <VSA_EState1>
6.84

>  <VSA_EState2>
22.8

>  <VSA_EState3>
23.57

>  <VSA_EState4>
0.42

>  <VSA_EState5>
-0.18

>  <VSA_EState6>
5.21

>  <VSA_EState7>
1.56

>  <VSA_EState8>
1.04

>  <VSA_EState9>
1.67

>  <apol>
49.95

>  <bpol>
24.87

>  <nRing>
4

>  <nHRing>
3

>  <naRing>
3

>  <naHRing>
2

>  <nARing 2>
1

>  <nAHRing 2>
1

>  <nFRing>
1

>  <nFHRing>
1

>  <nFaRing>
0

>  <nFaHRing>
0

>  <nFARing 2>
1

>  <nFAHRing 2>
1

>  <nRot>
3

>  <SLogP>
1.36

>  <SMR>
94.32

>  <TopoPSA(NO)>
117.51

>  <TopoPSA>
117.51

>  <JGI1>
0.22

>  <JGI2>
0.1

>  <JGI3>
0.05

>  <JGI4>
0.05

>  <JGI5>
0.03

>  <Diameter>
12

>  <Radius>
6

>  <TMWC10>
135.32

>  <TSRW10>
78.87

>  <MW>
389.09

>  <AMW>
9.05

>  <WPath>
1727

>  <WPol>
52

>  <Zagreb1>
152

>  <Zagreb2>
187

>  <mZagreb2>
5.76

>  <yes>


>  <nAR-cont>
0.816016

>  <nHA-cont>
0.860070871

>  <MWHBN>
0.506961484

>  <MWHBN-cont>
0

>  <TPSA-cont>
0.179707231

>  <pka_cont>
0.97

>  <yes.1>


>  <BBB_SCORE>
2.520501333

>  <MMFF94 Energy>
93.573

$$$$
Compound 12
Actelion Java MolfileCreator 2.0

  0  0  0  0  0  0              0 V3000
M  V30 BEGIN CTAB
M  V30 COUNTS 46 49 0 0 0
M  V30 BEGIN ATOM
M  V30 1 Cl -1.7037 6.8282 0.8921 0
M  V30 2 C -2.0256 5.3309 1.6994 0
M  V30 3 C -1.7232 4.0749 1.1451 0
M  V30 4 C -2.5569 5.4251 2.9929 0
M  V30 5 C -1.2809 3.9918 -0.2768 0
M  V30 6 C -1.9416 2.9219 1.9312 0
M  V30 7 C -2.7892 4.2784 3.7496 0
M  V30 8 O -1.9431 4.5899 -1.121 0
M  V30 9 N -0.1783 3.2061 -0.5984 0
M  V30 10 N -1.5649 1.6394 1.4713 0
M  V30 11 C -2.4749 3.0267 3.2269 0
M  V30 12 C 0.5322 2.3985 0.3751 0
M  V30 13 C 0.2236 3.0699 -1.9895 0
M  V30 14 C -0.4051 1.336 0.79 0
M  V30 15 C -2.2255 0.4549 1.6801 0
M  V30 16 C -0.4263 -0.037 0.6232 0
M  V30 17 N -1.5623 -0.5706 1.1975 0
M  V30 18 C 0.5485 -0.908 -0.0495 0
M  V30 19 N 1.6998 -0.4827 -0.5897 0
M  V30 20 N 0.335 -2.2607 -0.1526 0
M  V30 21 O 2.2675 -1.6507 -1.0982 0
M  V30 22 C 1.3945 -2.6653 -0.8171 0
M  V30 23 C 1.7898 -4.0545 -1.2279 0
M  V30 24 C 0.5331 -4.9529 -1.2386 0
M  V30 25 C 2.4513 -4.0514 -2.6244 0
M  V30 26 C 2.8089 -4.5971 -0.2061 0
M  V30 27 O 0.8624 -6.3045 -1.5679 0
M  V30 28 O 1.5551 -3.5833 -3.6306 0
M  V30 29 H -2.7876 6.3997 3.4195 0
M  V30 30 H -3.1984 4.3648 4.7543 0
M  V30 31 H -2.6288 2.1502 3.8544 0
M  V30 32 H 0.8139 3.0275 1.2277 0
M  V30 33 H 1.4583 2.0184 -0.0615 0
M  V30 34 H 0.0586 2.035 -2.3037 0
M  V30 35 H 1.2868 3.3134 -2.0749 0
M  V30 36 H -0.3427 3.7334 -2.6479 0
M  V30 37 H -3.1833 0.3969 2.1809 0
M  V30 38 H 0.0516 -4.9665 -0.2533 0
M  V30 39 H -0.2079 -4.5958 -1.9635 0
M  V30 40 H 3.3404 -3.4103 -2.6449 0
M  V30 41 H 2.7694 -5.0618 -2.906 0
M  V30 42 H 2.3765 -4.6401 0.8008 0
M  V30 43 H 3.147 -5.6056 -0.4684 0
M  V30 44 H 3.6972 -3.9563 -0.1508 0
M  V30 45 H 0.0189 -6.7899 -1.609 0
M  V30 46 H 2.0108 -3.6763 -4.4857 0
M  V30 END ATOM
M  V30 BEGIN BOND
M  V30 1 1 1 2
M  V30 2 2 2 3
M  V30 3 1 2 4
M  V30 4 1 3 5
M  V30 5 1 3 6
M  V30 6 2 4 7
M  V30 7 2 5 8
M  V30 8 1 5 9
M  V30 9 1 6 10
M  V30 10 2 6 11
M  V30 11 1 9 12
M  V30 12 1 9 13
M  V30 13 1 10 14
M  V30 14 1 10 15
M  V30 15 2 14 16
M  V30 16 2 15 17
M  V30 17 1 16 18
M  V30 18 2 18 19
M  V30 19 1 18 20
M  V30 20 1 19 21
M  V30 21 2 20 22
M  V30 22 1 22 23
M  V30 23 1 23 24
M  V30 24 1 23 25
M  V30 25 1 23 26
M  V30 26 1 24 27
M  V30 27 1 25 28
M  V30 28 1 7 11
M  V30 29 1 12 14
M  V30 30 1 16 17
M  V30 31 1 21 22
M  V30 32 1 4 29
M  V30 33 1 7 30
M  V30 34 1 11 31
M  V30 35 1 12 32
M  V30 36 1 12 33
M  V30 37 1 13 34
M  V30 38 1 13 35
M  V30 39 1 13 36
M  V30 40 1 15 37
M  V30 41 1 24 38
M  V30 42 1 24 39
M  V30 43 1 25 40
M  V30 44 1 25 41
M  V30 45 1 26 42
M  V30 46 1 26 43
M  V30 47 1 26 44
M  V30 48 1 27 45
M  V30 49 1 28 46
M  V30 END BOND
M  V30 END CTAB
M  END
>  <Column 1>
18

>  <level_0>
19

>  <index>
19

>  <Unnamed: 0>
19

>  <NO.>
20

>  <Name>
bis-hydroxylated-l-663581

>  <IUPAC_name>


>  <SMILES>
CN1Cc2c(-c3noc(C(C)(CO)CO)n3)ncn2-c2cccc(Cl)c2C1=O

>  <CID>


>  <logBB>
-1.82

>  <BBB+/BBB->
BBB-

>  <Inchi>
InChI=1S/C18H18ClN5O4/c1-18(7-25-8-26)17-21-15(22-28-17)14-12-6-23(2)16(27)13-10(19)4-3-5-11(13)24(12)9-20-14/h3-5-9-25-26H-6-8H2-1-2H3

>  <threshold>


>  <reference>
R2|R2|R12|R25|R35|R39|R46|

>  <group>
A

>  <Class>
-1

>  <ABC>
22.02

>  <ABCGG>
18.55

>  <nAcid>
0

>  <nBase>
0

>  <nAromAtom>
16

>  <nAromBond>
16

>  <nAtom>
46

>  <nHeavyAtom>
28

>  <nSpiro>
0

>  <nBridgehead>
0

>  <nHetero>
10

>  <nN>
5

>  <nO>
4

>  <nF>
0

>  <BalabanJ>
1.51

>  <BertzCT>
1056.18

>  <nBonds>
49

>  <nBondsO>
31

>  <nBondsS>
32

>  <nBondsD>
1

>  <nBondsT>
0

>  <nBondsA>
16

>  <nBondsM>
17

>  <nBondsKS>
41

>  <nBondsKD>
8

>  <RNCG>
0.14

>  <RPCG>
0.09

>  <FCSP3>
0.33

>  <SZ>
35

>  <Sm>
33.62

>  <Sv>
30.62

>  <Sse>
47.39

>  <Sp>
31.71

>  <Si>
52.18

>  <MZ>
0.76

>  <Mm>
0.73

>  <Mv>
0.67

>  <Mse>
1.03

>  <Mp>
0.69

>  <Mi>
1.13

>  <NsCH3>
2

>  <NdCH2>
0

>  <NssCH2>
3

>  <NtCH>
0

>  <NdsCH>
0

>  <NaaCH>
4

>  <NsssCH>
0

>  <NddC>
0

>  <NtsC>
0

>  <NdssC>
1

>  <NaasC>
7

>  <NaaaC>
0

>  <NssssC>
1

>  <NsNH3>
0

>  <NsNH2>
0

>  <NssNH2>
0

>  <NdNH>
0

>  <NssNH>
0

>  <NaaNH>
0

>  <NtN>
0

>  <NsssNH>
0

>  <NdsN>
0

>  <NaaN>
3

>  <NsssN>
1

>  <NddsN>
0

>  <NaasN>
1

>  <NssssN>
0

>  <NsOH>
2

>  <NdO>
1

>  <NssO>
0

>  <NaaO>
1

>  <NsF>
0

>  <NsSiH3>
0

>  <NssSiH2>
0

>  <NsssSiH>
0

>  <NssssSi>
0

>  <NsPH2>
0

>  <NssPH>
0

>  <NsssP>
0

>  <NdsssP>
0

>  <NsssssP>
0

>  <NsSH>
0

>  <NdS>
0

>  <NssS>
0

>  <NaaS>
0

>  <NdssS>
0

>  <NddssS>
0

>  <NsCl>
1

>  <NsBr>
0

>  <NsI>
0

>  <fragCpx>
205.1

>  <fMF>
0.41

>  <nHBAcc>
8

>  <nHBDon>
2

>  <Kier1>
21.24

>  <Kier2>
8.26

>  <Lipinski>
1

>  <GhoseFilter>
1

>  <FilterItLogS>
-4.1

>  <VMcGowan>
272.26

>  <LabuteASA>
164.73

>  <PEOE_VSA1>
19.64

>  <PEOE_VSA2>
9.36

>  <PEOE_VSA3>
4.98

>  <PEOE_VSA4>
4.98

>  <PEOE_VSA5>
0

>  <PEOE_VSA6>
22.82

>  <PEOE_VSA7>
19.06

>  <PEOE_VSA8>
7.05

>  <PEOE_VSA9>
47.14

>  <PEOE_VSA10>
12.02

>  <PEOE_VSA11>
0

>  <PEOE_VSA12>
11.72

>  <PEOE_VSA13>
5.91

>  <SMR_VSA1>
19.53

>  <SMR_VSA2>
0

>  <SMR_VSA3>
24.59

>  <SMR_VSA4>
0

>  <SMR_VSA5>
18.88

>  <SMR_VSA6>
20.26

>  <SMR_VSA7>
46.7

>  <SMR_VSA8>
0

>  <SMR_VSA9>
17.21

>  <SlogP_VSA1>
0

>  <SlogP_VSA2>
60.97

>  <SlogP_VSA3>
11.96

>  <SlogP_VSA4>
0

>  <SlogP_VSA5>
28.87

>  <SlogP_VSA6>
29.05

>  <SlogP_VSA7>
5.02

>  <SlogP_VSA8>
17.21

>  <SlogP_VSA9>
0

>  <SlogP_VSA10>
0

>  <SlogP_VSA11>
0

>  <EState_VSA1>
5.41

>  <EState_VSA2>
37.38

>  <EState_VSA3>
27.66

>  <EState_VSA4>
0

>  <EState_VSA5>
0

>  <EState_VSA6>
47.96

>  <EState_VSA7>
0

>  <EState_VSA8>
15.12

>  <EState_VSA9>
16.12

>  <EState_VSA10>
15.01

>  <VSA_EState1>
7.05

>  <VSA_EState2>
23.07

>  <VSA_EState3>
23.41

>  <VSA_EState4>
1.1

>  <VSA_EState5>
0.12

>  <VSA_EState6>
5.23

>  <VSA_EState7>
1.58

>  <VSA_EState8>
1.17

>  <VSA_EState9>
1.68

>  <apol>
52.95

>  <bpol>
26.87

>  <nRing>
4

>  <nHRing>
3

>  <naRing>
3

>  <naHRing>
2

>  <nARing 2>
1

>  <nAHRing 2>
1

>  <nFRing>
1

>  <nFHRing>
1

>  <nFaRing>
0

>  <nFaHRing>
0

>  <nFARing 2>
1

>  <nFAHRing 2>
1

>  <nRot>
4

>  <SLogP>
1.4

>  <SMR>
99.19

>  <TopoPSA(NO)>
117.51

>  <TopoPSA>
117.51

>  <JGI1>
0.21

>  <JGI2>
0.1

>  <JGI3>
0.05

>  <JGI4>
0.04

>  <JGI5>
0.03

>  <Diameter>
12

>  <Radius>
6

>  <TMWC10>
137.6

>  <TSRW10>
80.02

>  <MW>
403.1

>  <AMW>
8.76

>  <WPath>
1920

>  <WPol>
55

>  <Zagreb1>
156

>  <Zagreb2>
193

>  <mZagreb2>
6.14

>  <yes>


>  <nAR-cont>
0.816016

>  <nHA-cont>
0.82432561

>  <MWHBN>
0.498073689

>  <MWHBN-cont>
0

>  <TPSA-cont>
0.179707231

>  <pka_cont>
0.97

>  <yes.1>


>  <BBB_SCORE>
2.484756072

>  <MMFF94 Energy>
65.214

$$$$
Compound 13
Actelion Java MolfileCreator 2.0

  0  0  0  0  0  0              0 V3000
M  V30 BEGIN CTAB
M  V30 COUNTS 40 43 0 0 0
M  V30 BEGIN ATOM
M  V30 1 Cl -2.1198 5.3876 0.2444 0
M  V30 2 C -2.4028 3.9633 1.1867 0
M  V30 3 C -2.0362 2.6736 0.7642 0
M  V30 4 C -2.9701 4.1591 2.4532 0
M  V30 5 C -1.5546 2.4729 -0.6332 0
M  V30 6 C -2.2274 1.5935 1.6541 0
M  V30 7 C -3.1752 3.0818 3.3128 0
M  V30 8 O -2.2184 2.9568 -1.5463 0
M  V30 9 N -0.412 1.7087 -0.8539 0
M  V30 10 N -1.7883 0.2898 1.329 0
M  V30 11 C -2.7974 1.8 2.9217 0
M  V30 12 C 0.3029 1.0281 0.2085 0
M  V30 13 C 0.0315 1.4625 -2.2167 0
M  V30 14 C -0.6015 -0.0285 0.7018 0
M  V30 15 C -2.4049 -0.8963 1.6384 0
M  V30 16 C -0.5669 -1.4105 0.6634 0
M  V30 17 N -1.6911 -1.9338 1.2658 0
M  V30 18 C 0.4529 -2.2984 0.0868 0
M  V30 19 N 0.3859 -3.6369 0.095 0
M  V30 20 N 1.5818 -1.7842 -0.5141 0
M  V30 21 O 1.5522 -4.0276 -0.5598 0
M  V30 22 C 2.2025 -2.8808 -0.9049 0
M  V30 23 C 3.5163 -3.0068 -1.6141 0
M  V30 24 O 3.8318 -1.7578 -2.2213 0
M  V30 25 O 4.5291 -3.2995 -0.6652 0
M  V30 26 C 3.5167 -4.0767 -2.693 0
M  V30 27 H -3.2509 5.1597 2.7778 0
M  V30 28 H -3.6135 3.2474 4.2951 0
M  V30 29 H -2.9328 0.9826 3.6283 0
M  V30 30 H 0.537 1.7466 1.0029 0
M  V30 31 H 1.2547 0.6468 -0.1678 0
M  V30 32 H -0.0823 0.3968 -2.4364 0
M  V30 33 H 1.0859 1.7421 -2.3001 0
M  V30 34 H -0.5432 2.0374 -2.9471 0
M  V30 35 H -3.37 -0.9474 2.1262 0
M  V30 36 H 3.296 -1.0804 -1.7719 0
M  V30 37 H 4.4207 -2.6684 0.0642 0
M  V30 38 H 4.4851 -4.1031 -3.2064 0
M  V30 39 H 2.7521 -3.8795 -3.4527 0
M  V30 40 H 3.3479 -5.0751 -2.2746 0
M  V30 END ATOM
M  V30 BEGIN BOND
M  V30 1 1 1 2
M  V30 2 2 2 3
M  V30 3 1 2 4
M  V30 4 1 3 5
M  V30 5 1 3 6
M  V30 6 2 4 7
M  V30 7 2 5 8
M  V30 8 1 5 9
M  V30 9 1 6 10
M  V30 10 2 6 11
M  V30 11 1 9 12
M  V30 12 1 9 13
M  V30 13 1 10 14
M  V30 14 1 10 15
M  V30 15 2 14 16
M  V30 16 2 15 17
M  V30 17 1 16 18
M  V30 18 2 18 19
M  V30 19 1 18 20
M  V30 20 1 19 21
M  V30 21 2 20 22
M  V30 22 1 22 23
M  V30 23 1 23 24
M  V30 24 1 23 25
M  V30 25 1 23 26
M  V30 26 1 7 11
M  V30 27 1 12 14
M  V30 28 1 16 17
M  V30 29 1 21 22
M  V30 30 1 4 27
M  V30 31 1 7 28
M  V30 32 1 11 29
M  V30 33 1 12 30
M  V30 34 1 12 31
M  V30 35 1 13 32
M  V30 36 1 13 33
M  V30 37 1 13 34
M  V30 38 1 15 35
M  V30 39 1 24 36
M  V30 40 1 25 37
M  V30 41 1 26 38
M  V30 42 1 26 39
M  V30 43 1 26 40
M  V30 END BOND
M  V30 END CTAB
M  END
>  <Column 1>
19

>  <level_0>
20

>  <index>
20

>  <Unnamed: 0>
20

>  <NO.>
21

>  <Name>


>  <IUPAC_name>


>  <SMILES>
CN1Cc2c(-c3noc(C(C)(O)O)n3)ncn2-c2cccc(Cl)c2C1=O

>  <CID>


>  <logBB>
-1.82

>  <BBB+/BBB->
BBB-

>  <Inchi>
InChI=1S/C16H14ClN5O4/c1-16(24-25)15-19-13(20-26-15)12-10-6-21(2)14(23)11-8(17)4-3-5-9(11)22(10)7-18-12/h3-5-7-24-25H-6H2-1-2H3

>  <threshold>


>  <reference>
R35|

>  <group>
A

>  <Class>
-1

>  <ABC>
20.93

>  <ABCGG>
17.44

>  <nAcid>
0

>  <nBase>
0

>  <nAromAtom>
16

>  <nAromBond>
16

>  <nAtom>
40

>  <nHeavyAtom>
26

>  <nSpiro>
0

>  <nBridgehead>
0

>  <nHetero>
10

>  <nN>
5

>  <nO>
4

>  <nF>
0

>  <BalabanJ>
1.54

>  <BertzCT>
1020.06

>  <nBonds>
43

>  <nBondsO>
29

>  <nBondsS>
26

>  <nBondsD>
1

>  <nBondsT>
0

>  <nBondsA>
16

>  <nBondsM>
17

>  <nBondsKS>
35

>  <nBondsKD>
8

>  <RNCG>
0.14

>  <RPCG>
0.11

>  <FCSP3>
0.25

>  <SZ>
32.33

>  <Sm>
31.29

>  <Sv>
27.53

>  <Sse>
41.62

>  <Sp>
28.11

>  <Si>
45.35

>  <MZ>
0.81

>  <Mm>
0.78

>  <Mv>
0.69

>  <Mse>
1.04

>  <Mp>
0.7

>  <Mi>
1.13

>  <NsCH3>
2

>  <NdCH2>
0

>  <NssCH2>
1

>  <NtCH>
0

>  <NdsCH>
0

>  <NaaCH>
4

>  <NsssCH>
0

>  <NddC>
0

>  <NtsC>
0

>  <NdssC>
1

>  <NaasC>
7

>  <NaaaC>
0

>  <NssssC>
1

>  <NsNH3>
0

>  <NsNH2>
0

>  <NssNH2>
0

>  <NdNH>
0

>  <NssNH>
0

>  <NaaNH>
0

>  <NtN>
0

>  <NsssNH>
0

>  <NdsN>
0

>  <NaaN>
3

>  <NsssN>
1

>  <NddsN>
0

>  <NaasN>
1

>  <NssssN>
0

>  <NsOH>
2

>  <NdO>
1

>  <NssO>
0

>  <NaaO>
1

>  <NsF>
0

>  <NsSiH3>
0

>  <NssSiH2>
0

>  <NsssSiH>
0

>  <NssssSi>
0

>  <NsPH2>
0

>  <NssPH>
0

>  <NsssP>
0

>  <NdsssP>
0

>  <NsssssP>
0

>  <NsSH>
0

>  <NdS>
0

>  <NssS>
0

>  <NaaS>
0

>  <NdssS>
0

>  <NddssS>
0

>  <NsCl>
1

>  <NsBr>
0

>  <NsI>
0

>  <fragCpx>
191.1

>  <fMF>
0.48

>  <nHBAcc>
8

>  <nHBDon>
2

>  <Kier1>
19.32

>  <Kier2>
7.11

>  <Lipinski>
1

>  <GhoseFilter>
1

>  <FilterItLogS>
-3.32

>  <VMcGowan>
244.08

>  <LabuteASA>
152

>  <PEOE_VSA1>
19.64

>  <PEOE_VSA2>
9.36

>  <PEOE_VSA3>
4.98

>  <PEOE_VSA4>
4.98

>  <PEOE_VSA5>
0

>  <PEOE_VSA6>
22.82

>  <PEOE_VSA7>
19.06

>  <PEOE_VSA8>
7.05

>  <PEOE_VSA9>
28.51

>  <PEOE_VSA10>
12.02

>  <PEOE_VSA11>
0

>  <PEOE_VSA12>
11.61

>  <PEOE_VSA13>
11.8

>  <SMR_VSA1>
19.53

>  <SMR_VSA2>
0

>  <SMR_VSA3>
24.59

>  <SMR_VSA4>
0

>  <SMR_VSA5>
19.26

>  <SMR_VSA6>
7.05

>  <SMR_VSA7>
46.7

>  <SMR_VSA8>
0

>  <SMR_VSA9>
17.21

>  <SlogP_VSA1>
0

>  <SlogP_VSA2>
47.76

>  <SlogP_VSA3>
12.33

>  <SlogP_VSA4>
0

>  <SlogP_VSA5>
28.87

>  <SlogP_VSA6>
29.05

>  <SlogP_VSA7>
5.02

>  <SlogP_VSA8>
17.21

>  <SlogP_VSA9>
0

>  <SlogP_VSA10>
0

>  <SlogP_VSA11>
0

>  <EState_VSA1>
5.79

>  <EState_VSA2>
24.17

>  <EState_VSA3>
27.66

>  <EState_VSA4>
6.92

>  <EState_VSA5>
4.9

>  <EState_VSA6>
36.14

>  <EState_VSA7>
0

>  <EState_VSA8>
15.12

>  <EState_VSA9>
16.12

>  <EState_VSA10>
15.01

>  <VSA_EState1>
6.64

>  <VSA_EState2>
22.53

>  <VSA_EState3>
23.29

>  <VSA_EState4>
1.99

>  <VSA_EState5>
-2.73

>  <VSA_EState6>
5.18

>  <VSA_EState7>
1.54

>  <VSA_EState8>
1.35

>  <VSA_EState9>
1.65

>  <apol>
46.94

>  <bpol>
22.86

>  <nRing>
4

>  <nHRing>
3

>  <naRing>
3

>  <naHRing>
2

>  <nARing 2>
1

>  <nAHRing 2>
1

>  <nFRing>
1

>  <nFHRing>
1

>  <nFaRing>
0

>  <nFaHRing>
0

>  <nFARing 2>
1

>  <nFAHRing 2>
1

>  <nRot>
2

>  <SLogP>
1.32

>  <SMR>
89.45

>  <TopoPSA(NO)>
117.51

>  <TopoPSA>
117.51

>  <JGI1>
0.22

>  <JGI2>
0.09

>  <JGI3>
0.05

>  <JGI4>
0.05

>  <JGI5>
0.03

>  <Diameter>
11

>  <Radius>
6

>  <TMWC10>
133.05

>  <TSRW10>
77.72

>  <MW>
375.07

>  <AMW>
9.38

>  <WPath>
1538

>  <WPol>
49

>  <Zagreb1>
148

>  <Zagreb2>
181

>  <mZagreb2>
5.39

>  <yes>


>  <nAR-cont>
0.816016

>  <nHA-cont>
0.892715677

>  <MWHBN>
0.516349589

>  <MWHBN-cont>
0

>  <TPSA-cont>
0.179707231

>  <pka_cont>
0.97

>  <yes.1>


>  <BBB_SCORE>
2.553146139

>  <MMFF94 Energy>
47.352

$$$$
Compound 14
Actelion Java MolfileCreator 2.0

  0  0  0  0  0  0              0 V3000
M  V30 BEGIN CTAB
M  V30 COUNTS 24 24 0 0 0
M  V30 BEGIN ATOM
M  V30 1 S -1.5337 3.231 0.0806 0
M  V30 2 C -2.0142 1.534 0.4868 0
M  V30 3 C -0.0591 2.7316 -0.8492 0
M  V30 4 N -0.9634 0.6682 0.0193 0
M  V30 5 C 0.2832 1.3386 -0.3455 0 CFG=2
M  V30 6 C -1.1184 -0.6908 0.1027 0
M  V30 7 C 1.2332 1.4101 0.8503 0
M  V30 8 O -2.1528 -1.2373 0.4645 0
M  V30 9 O 0.0088 -1.356 -0.2654 0
M  V30 10 O 0.9767 1.1756 2.0205 0
M  V30 11 O 2.4815 1.7872 0.4967 0
M  V30 12 C -0.0912 -2.7821 -0.1735 0
M  V30 13 C 1.2395 -3.3755 -0.5926 0
M  V30 14 H -2.9598 1.268 0.0042 0
M  V30 15 H -2.1235 1.4181 1.5697 0
M  V30 16 H -0.3327 2.698 -1.9088 0
M  V30 17 H 0.7456 3.4608 -0.7208 0
M  V30 18 H 0.7937 0.7575 -1.1224 0
M  V30 19 H 2.9755 1.7823 1.3452 0
M  V30 20 H -0.8829 -3.1409 -0.8406 0
M  V30 21 H -0.3164 -3.0724 0.8588 0
M  V30 22 H 1.2141 -4.4674 -0.5392 0
M  V30 23 H 1.4894 -3.0768 -1.616 0
M  V30 24 H 2.0451 -3.0082 0.0518 0
M  V30 END ATOM
M  V30 BEGIN BOND
M  V30 1 1 1 2
M  V30 2 1 1 3
M  V30 3 1 2 4
M  V30 4 1 3 5
M  V30 5 1 4 6
M  V30 6 1 5 7
M  V30 7 2 6 8
M  V30 8 1 6 9
M  V30 9 2 7 10
M  V30 10 1 7 11
M  V30 11 1 9 12
M  V30 12 1 12 13
M  V30 13 1 4 5
M  V30 14 1 2 14
M  V30 15 1 2 15
M  V30 16 1 3 16
M  V30 17 1 3 17
M  V30 18 1 5 18
M  V30 19 1 11 19
M  V30 20 1 12 20
M  V30 21 1 12 21
M  V30 22 1 13 22
M  V30 23 1 13 23
M  V30 24 1 13 24
M  V30 END BOND
M  V30 BEGIN COLLECTION
M  V30 MDLV30/STERAC1 ATOMS=(1 5)
M  V30 END COLLECTION
M  V30 END CTAB
M  END
>  <Column 1>
21

>  <level_0>
23

>  <index>
23

>  <Unnamed: 0>
23

>  <NO.>
24

>  <Name>
telmesteine

>  <IUPAC_name>
3-ethoxycarbonyl-1-3-thiazolidine-4-carboxylic acid

>  <SMILES>
CCOC(=O)N1CSCC1C(=O)O

>  <CID>
11615393

>  <logBB>
-1.72

>  <BBB+/BBB->
BBB-

>  <Inchi>
InChI=1S/C7H11NO4S/c1-2-12-7(11)8-4-13-3-5(8)6(9)10/h5H-2-4H2-1H3-(H-9-10)

>  <threshold>


>  <reference>
R18|R26|R27|

>  <group>
A

>  <Class>
-1

>  <ABC>
9.4

>  <ABCGG>
9.64

>  <nAcid>
1

>  <nBase>
0

>  <nAromAtom>
0

>  <nAromBond>
0

>  <nAtom>
24

>  <nHeavyAtom>
13

>  <nSpiro>
0

>  <nBridgehead>
0

>  <nHetero>
6

>  <nN>
1

>  <nO>
4

>  <nF>
0

>  <BalabanJ>
2.47

>  <BertzCT>
220.54

>  <nBonds>
24

>  <nBondsO>
13

>  <nBondsS>
22

>  <nBondsD>
2

>  <nBondsT>
0

>  <nBondsA>
0

>  <nBondsM>
2

>  <nBondsKS>
22

>  <nBondsKD>
2

>  <RNCG>
0.26

>  <RPCG>
0.22

>  <FCSP3>
0.71

>  <SZ>
18

>  <Sm>
17.09

>  <Sv>
14.78

>  <Sse>
24.95

>  <Sp>
15.71

>  <Si>
27.33

>  <MZ>
0.75

>  <Mm>
0.71

>  <Mv>
0.62

>  <Mse>
1.04

>  <Mp>
0.65

>  <Mi>
1.14

>  <NsCH3>
1

>  <NdCH2>
0

>  <NssCH2>
3

>  <NtCH>
0

>  <NdsCH>
0

>  <NaaCH>
0

>  <NsssCH>
1

>  <NddC>
0

>  <NtsC>
0

>  <NdssC>
2

>  <NaasC>
0

>  <NaaaC>
0

>  <NssssC>
0

>  <NsNH3>
0

>  <NsNH2>
0

>  <NssNH2>
0

>  <NdNH>
0

>  <NssNH>
0

>  <NaaNH>
0

>  <NtN>
0

>  <NsssNH>
0

>  <NdsN>
0

>  <NaaN>
0

>  <NsssN>
1

>  <NddsN>
0

>  <NaasN>
0

>  <NssssN>
0

>  <NsOH>
1

>  <NdO>
2

>  <NssO>
1

>  <NaaO>
0

>  <NsF>
0

>  <NsSiH3>
0

>  <NssSiH2>
0

>  <NsssSiH>
0

>  <NssssSi>
0

>  <NsPH2>
0

>  <NssPH>
0

>  <NsssP>
0

>  <NdsssP>
0

>  <NsssssP>
0

>  <NsSH>
0

>  <NdS>
0

>  <NssS>
1

>  <NaaS>
0

>  <NdssS>
0

>  <NddssS>
0

>  <NsCl>
0

>  <NsBr>
0

>  <NsI>
0

>  <fragCpx>
13.06

>  <fMF>
0.21

>  <nHBAcc>
4

>  <nHBDon>
1

>  <Kier1>
11.08

>  <Kier2>
5.02

>  <Lipinski>
1

>  <GhoseFilter>
1

>  <FilterItLogS>
0.21

>  <VMcGowan>
139.84

>  <LabuteASA>
80.04

>  <PEOE_VSA1>
9.84

>  <PEOE_VSA2>
4.9

>  <PEOE_VSA3>
9.59

>  <PEOE_VSA4>
0

>  <PEOE_VSA5>
11.76

>  <PEOE_VSA6>
0

>  <PEOE_VSA7>
6.92

>  <PEOE_VSA8>
5.75

>  <PEOE_VSA9>
12.48

>  <PEOE_VSA10>
6.04

>  <PEOE_VSA11>
0

>  <PEOE_VSA12>
0

>  <PEOE_VSA13>
0

>  <SMR_VSA1>
19.43

>  <SMR_VSA2>
0

>  <SMR_VSA3>
4.9

>  <SMR_VSA4>
0

>  <SMR_VSA5>
12.97

>  <SMR_VSA6>
18.24

>  <SMR_VSA7>
0

>  <SMR_VSA8>
0

>  <SMR_VSA9>
0

>  <SlogP_VSA1>
0

>  <SlogP_VSA2>
46.35

>  <SlogP_VSA3>
9.53

>  <SlogP_VSA4>
0

>  <SlogP_VSA5>
6.92

>  <SlogP_VSA6>
0

>  <SlogP_VSA7>
0

>  <SlogP_VSA8>
0

>  <SlogP_VSA9>
0

>  <SlogP_VSA10>
4.79

>  <SlogP_VSA11>
0

>  <EState_VSA1>
18.1

>  <EState_VSA2>
6.61

>  <EState_VSA3>
11.63

>  <EState_VSA4>
0

>  <EState_VSA5>
16.66

>  <EState_VSA6>
6.92

>  <EState_VSA7>
0

>  <EState_VSA8>
0

>  <EState_VSA9>
9.84

>  <EState_VSA10>
9.59

>  <VSA_EState1>
4.72

>  <VSA_EState2>
23.08

>  <VSA_EState3>
8.74

>  <VSA_EState4>
0

>  <VSA_EState5>
-0.14

>  <VSA_EState6>
-0.73

>  <VSA_EState7>
-0.54

>  <VSA_EState8>
1.96

>  <VSA_EState9>
0

>  <apol>
26.23

>  <bpol>
18.68

>  <nRing>
1

>  <nHRing>
1

>  <naRing>
0

>  <naHRing>
0

>  <nARing 2>
1

>  <nAHRing 2>
1

>  <nFRing>
0

>  <nFHRing>
0

>  <nFaRing>
0

>  <nFaHRing>
0

>  <nFARing 2>
0

>  <nFAHRing 2>
0

>  <nRot>
2

>  <SLogP>
0.6

>  <SMR>
47.61

>  <TopoPSA(NO)>
66.84

>  <TopoPSA>
92.14

>  <JGI1>
0.19

>  <JGI2>
0.1

>  <JGI3>
0.06

>  <JGI4>
0.05

>  <JGI5>
0.02

>  <Diameter>
7

>  <Radius>
4

>  <TMWC10>
93.29

>  <TSRW10>
57.16

>  <MW>
205.04

>  <AMW>
8.54

>  <WPath>
248

>  <WPol>
16

>  <Zagreb1>
60

>  <Zagreb2>
68

>  <mZagreb2>
3.08

>  <yes>


>  <nAR-cont>
0.816016

>  <nHA-cont>
0.841215992

>  <MWHBN>
0.349181083

>  <MWHBN-cont>
0.673309825

>  <TPSA-cont>
0.356805584

>  <pka_cont>
0.97

>  <yes.1>


>  <BBB_SCORE>
3.865807898

>  <MMFF94 Energy>
-65.085

$$$$
Compound 15
Actelion Java MolfileCreator 2.0

  0  0  0  0  0  0              0 V3000
M  V30 BEGIN CTAB
M  V30 COUNTS 38 38 0 0 0
M  V30 BEGIN ATOM
M  V30 1 Cl 2.9663 -1.6827 3.0465 0
M  V30 2 C 1.4053 -2.4969 3.3349 0
M  V30 3 C 0.7454 -2.9959 2.0421 0
M  V30 4 N -0.2988 -2.0808 1.5363 0
M  V30 5 C 0.0145 -0.8795 0.9099 0
M  V30 6 C -1.7041 -2.5096 1.6756 0
M  V30 7 C -0.8814 0.2024 0.8802 0
M  V30 8 C 1.2382 -0.6744 0.2561 0
M  V30 9 C -2.3185 -2.1529 3.0323 0
M  V30 10 C -0.5738 1.4172 0.2499 0
M  V30 11 C 1.5585 0.5348 -0.3777 0
M  V30 12 Cl -1.8754 -3.3249 4.305 0
M  V30 13 C 0.6531 1.5949 -0.3869 0
M  V30 14 C 0.9901 2.8934 -1.0733 0
M  V30 15 C 1.0118 2.7941 -2.6013 0
M  V30 16 C -0.3641 2.4975 -3.1991 0
M  V30 17 C -0.3276 2.5173 -4.7028 0
M  V30 18 O 0.6388 2.7016 -5.4216 0
M  V30 19 O -1.5457 2.2988 -5.2371 0
M  V30 20 H 1.6313 -3.3483 3.984 0
M  V30 21 H 0.7672 -1.8021 3.8883 0
M  V30 22 H 0.273 -3.9584 2.2763 0
M  V30 23 H 1.4794 -3.2435 1.2674 0
M  V30 24 H -2.3119 -2.0619 0.8788 0
M  V30 25 H -1.7812 -3.5903 1.4988 0
M  V30 26 H -1.8474 0.1393 1.3702 0
M  V30 27 H 1.9809 -1.4641 0.2014 0
M  V30 28 H -3.4099 -2.1774 2.9615 0
M  V30 29 H -2.0154 -1.161 3.3782 0
M  V30 30 H -1.3068 2.2203 0.2682 0
M  V30 31 H 2.5265 0.6324 -0.8643 0
M  V30 32 H 1.9758 3.2225 -0.72 0
M  V30 33 H 0.287 3.6775 -0.7651 0
M  V30 34 H 1.7278 2.0286 -2.9258 0
M  V30 35 H 1.38 3.7474 -3.0019 0
M  V30 36 H -0.7115 1.5075 -2.8861 0
M  V30 37 H -1.0838 3.2534 -2.8658 0
M  V30 38 H -1.3875 2.3283 -6.2039 0
M  V30 END ATOM
M  V30 BEGIN BOND
M  V30 1 1 1 2
M  V30 2 1 2 3
M  V30 3 1 3 4
M  V30 4 1 4 5
M  V30 5 1 4 6
M  V30 6 2 5 7
M  V30 7 1 5 8
M  V30 8 1 6 9
M  V30 9 1 7 10
M  V30 10 2 8 11
M  V30 11 1 9 12
M  V30 12 2 10 13
M  V30 13 1 13 14
M  V30 14 1 14 15
M  V30 15 1 15 16
M  V30 16 1 16 17
M  V30 17 2 17 18
M  V30 18 1 17 19
M  V30 19 1 11 13
M  V30 20 1 2 20
M  V30 21 1 2 21
M  V30 22 1 3 22
M  V30 23 1 3 23
M  V30 24 1 6 24
M  V30 25 1 6 25
M  V30 26 1 7 26
M  V30 27 1 8 27
M  V30 28 1 9 28
M  V30 29 1 9 29
M  V30 30 1 10 30
M  V30 31 1 11 31
M  V30 32 1 14 32
M  V30 33 1 14 33
M  V30 34 1 15 34
M  V30 35 1 15 35
M  V30 36 1 16 36
M  V30 37 1 16 37
M  V30 38 1 19 38
M  V30 END BOND
M  V30 END CTAB
M  END
>  <Column 1>
22

>  <level_0>
24

>  <index>
24

>  <Unnamed: 0>
24

>  <NO.>
25

>  <Name>
chlorambucil

>  <IUPAC_name>
4-[4-[bis(2-chloroethyl)amino]phenyl]butanoic acid

>  <SMILES>
O=C(O)CCCc1ccc(N(CCCl)CCCl)cc1

>  <CID>
2708

>  <logBB>
-1.7

>  <BBB+/BBB->
BBB-

>  <Inchi>
InChI=1S/C14H19Cl2NO2/c15-8-10-17(11-9-16)13-6-4-12(5-7-13)2-1-3-14(18)19/h4-7H-1-3-8-11H2-(H-18-19)

>  <threshold>


>  <reference>
R18|R26|R27|R2|R2|R5|R8|R17|R21|R25|R27|R27|R35|R36|R39|R43|R46|R47|R49|R40|

>  <group>
A

>  <Class>
-1

>  <ABC>
13.61

>  <ABCGG>
11.64

>  <nAcid>
1

>  <nBase>
0

>  <nAromAtom>
6

>  <nAromBond>
6

>  <nAtom>
38

>  <nHeavyAtom>
19

>  <nSpiro>
0

>  <nBridgehead>
0

>  <nHetero>
5

>  <nN>
1

>  <nO>
2

>  <nF>
0

>  <BalabanJ>
2.22

>  <BertzCT>
375.54

>  <nBonds>
38

>  <nBondsO>
19

>  <nBondsS>
31

>  <nBondsD>
1

>  <nBondsT>
0

>  <nBondsA>
6

>  <nBondsM>
7

>  <nBondsKS>
34

>  <nBondsKD>
4

>  <RNCG>
0.29

>  <RPCG>
0.18

>  <FCSP3>
0.5

>  <SZ>
26.67

>  <Sm>
25.33

>  <Sv>
23.52

>  <Sse>
38.29

>  <Sp>
25.82

>  <Si>
42.96

>  <MZ>
0.7

>  <Mm>
0.67

>  <Mv>
0.62

>  <Mse>
1.01

>  <Mp>
0.68

>  <Mi>
1.13

>  <NsCH3>
0

>  <NdCH2>
0

>  <NssCH2>
7

>  <NtCH>
0

>  <NdsCH>
0

>  <NaaCH>
4

>  <NsssCH>
0

>  <NddC>
0

>  <NtsC>
0

>  <NdssC>
1

>  <NaasC>
2

>  <NaaaC>
0

>  <NssssC>
0

>  <NsNH3>
0

>  <NsNH2>
0

>  <NssNH2>
0

>  <NdNH>
0

>  <NssNH>
0

>  <NaaNH>
0

>  <NtN>
0

>  <NsssNH>
0

>  <NdsN>
0

>  <NaaN>
0

>  <NsssN>
1

>  <NddsN>
0

>  <NaasN>
0

>  <NssssN>
0

>  <NsOH>
1

>  <NdO>
1

>  <NssO>
0

>  <NaaO>
0

>  <NsF>
0

>  <NsSiH3>
0

>  <NssSiH2>
0

>  <NsssSiH>
0

>  <NssssSi>
0

>  <NsPH2>
0

>  <NssPH>
0

>  <NsssP>
0

>  <NdsssP>
0

>  <NsssssP>
0

>  <NsSH>
0

>  <NdS>
0

>  <NssS>
0

>  <NaaS>
0

>  <NdssS>
0

>  <NddssS>
0

>  <NsCl>
2

>  <NsBr>
0

>  <NsI>
0

>  <fragCpx>
19.05

>  <fMF>
0.16

>  <nHBAcc>
2

>  <nHBDon>
1

>  <Kier1>
17.05

>  <Kier2>
9.83

>  <Lipinski>
1

>  <GhoseFilter>
1

>  <FilterItLogS>
-4.55

>  <VMcGowan>
226.26

>  <LabuteASA>
123.67

>  <PEOE_VSA1>
10.01

>  <PEOE_VSA2>
4.79

>  <PEOE_VSA3>
0

>  <PEOE_VSA4>
0

>  <PEOE_VSA5>
23.2

>  <PEOE_VSA6>
12.13

>  <PEOE_VSA7>
30.54

>  <PEOE_VSA8>
36.96

>  <PEOE_VSA9>
0

>  <PEOE_VSA10>
0

>  <PEOE_VSA11>
0

>  <PEOE_VSA12>
0

>  <PEOE_VSA13>
0

>  <SMR_VSA1>
9.9

>  <SMR_VSA2>
0

>  <SMR_VSA3>
0

>  <SMR_VSA4>
0

>  <SMR_VSA5>
19.26

>  <SMR_VSA6>
29.75

>  <SMR_VSA7>
29.83

>  <SMR_VSA8>
0

>  <SMR_VSA9>
0

>  <SlogP_VSA1>
4.9

>  <SlogP_VSA2>
35.93

>  <SlogP_VSA3>
11.22

>  <SlogP_VSA4>
0

>  <SlogP_VSA5>
18.41

>  <SlogP_VSA6>
24.27

>  <SlogP_VSA7>
0

>  <SlogP_VSA8>
0

>  <SlogP_VSA9>
0

>  <SlogP_VSA10>
5.69

>  <SlogP_VSA11>
0

>  <EState_VSA1>
5.97

>  <EState_VSA2>
6.42

>  <EState_VSA3>
18.18

>  <EState_VSA4>
30.76

>  <EState_VSA5>
0

>  <EState_VSA6>
0

>  <EState_VSA7>
24.27

>  <EState_VSA8>
4.9

>  <EState_VSA9>
28.31

>  <EState_VSA10>
4.79

>  <VSA_EState1>
0

>  <VSA_EState2>
12.59

>  <VSA_EState3>
8.59

>  <VSA_EState4>
2.25

>  <VSA_EState5>
0.39

>  <VSA_EState6>
8.14

>  <VSA_EState7>
1.67

>  <VSA_EState8>
1.54

>  <VSA_EState9>
0

>  <apol>
43.11

>  <bpol>
22.66

>  <nRing>
1

>  <nHRing>
0

>  <naRing>
1

>  <naHRing>
0

>  <nARing 2>
0

>  <nAHRing 2>
0

>  <nFRing>
0

>  <nFHRing>
0

>  <nFaRing>
0

>  <nFaHRing>
0

>  <nFARing 2>
0

>  <nFAHRing 2>
0

>  <nRot>
9

>  <SLogP>
3.38

>  <SMR>
80.67

>  <TopoPSA(NO)>
40.54

>  <TopoPSA>
40.54

>  <JGI1>
0.18

>  <JGI2>
0.08

>  <JGI3>
0.03

>  <JGI4>
0.02

>  <JGI5>
0.03

>  <Diameter>
12

>  <Radius>
6

>  <TMWC10>
106.82

>  <TSRW10>
50.89

>  <MW>
303.08

>  <AMW>
7.98

>  <WPath>
846

>  <WPol>
23

>  <Zagreb1>
84

>  <Zagreb2>
91

>  <mZagreb2>
4.61

>  <yes>


>  <nAR-cont>
0.336376

>  <nHA-cont>
0.998649058

>  <MWHBN>
0.17232275

>  <MWHBN-cont>
0.977463529

>  <TPSA-cont>
0.717005626

>  <pka_cont>
0.97

>  <yes.1>


>  <BBB_SCORE>
4.720231603

>  <MMFF94 Energy>
32.953

$$$$
Compound 16
Actelion Java MolfileCreator 2.0

  0  0  0  0  0  0              0 V3000
M  V30 BEGIN CTAB
M  V30 COUNTS 36 38 0 0 0
M  V30 BEGIN ATOM
M  V30 1 O 0.7213 -3.5303 -0.2404 0
M  V30 2 C 0.2596 -2.3907 -0.275 0
M  V30 3 C -1.1091 -2.0848 -0.8139 0
M  V30 4 C 1.1549 -1.2221 0.1294 0
M  V30 5 C -2.0121 -3.1056 -1.1547 0
M  V30 6 C -1.4926 -0.7385 -1.0078 0
M  V30 7 O 2.0203 -0.9657 -0.9794 0
M  V30 8 C 0.3244 0.0034 0.5276 0
M  V30 9 O -1.7026 -4.4188 -0.9418 0
M  V30 10 C -3.2586 -2.8005 -1.7055 0
M  V30 11 C -2.7424 -0.4438 -1.5798 0
M  V30 12 C -0.5801 0.4074 -0.6395 0
M  V30 13 C 1.1574 1.1668 1.0458 0
M  V30 14 C -3.6093 -1.475 -1.92 0
M  V30 15 C 2.0576 1.8598 0.2203 0
M  V30 16 C 1.0256 1.5738 2.3847 0
M  V30 17 O -4.8318 -1.2249 -2.4681 0
M  V30 18 C 2.8012 2.9277 0.7245 0
M  V30 19 C 1.769 2.6465 2.8863 0
M  V30 20 O 3.6805 3.595 -0.0817 0
M  V30 21 C 2.6548 3.3219 2.0523 0
M  V30 22 O 3.3895 4.3714 2.5275 0
M  V30 23 H 1.77 -1.5368 0.9813 0
M  V30 24 H 2.4995 -1.8036 -1.1355 0
M  V30 25 H -0.3336 -0.3119 1.3523 0
M  V30 26 H -2.3944 -4.9902 -1.3114 0
M  V30 27 H -3.9647 -3.581 -1.972 0
M  V30 28 H -3.0273 0.5916 -1.7477 0
M  V30 29 H -0.0052 0.6984 -1.5269 0
M  V30 30 H -1.1824 1.2763 -0.3433 0
M  V30 31 H 2.1804 1.5599 -0.8168 0
M  V30 32 H 0.3386 1.0594 3.054 0
M  V30 33 H -4.9401 -0.2658 -2.5813 0
M  V30 34 H 1.644 2.938 3.9244 0
M  V30 35 H 3.7346 3.1339 -0.9327 0
M  V30 36 H 3.1867 4.5005 3.466 0
M  V30 END ATOM
M  V30 BEGIN BOND
M  V30 1 2 1 2
M  V30 2 1 2 3
M  V30 3 1 2 4
M  V30 4 2 3 5
M  V30 5 1 3 6
M  V30 6 1 4 7
M  V30 7 1 4 8
M  V30 8 1 5 9
M  V30 9 1 5 10
M  V30 10 2 6 11
M  V30 11 1 6 12
M  V30 12 1 8 13
M  V30 13 2 10 14
M  V30 14 2 13 15
M  V30 15 1 13 16
M  V30 16 1 14 17
M  V30 17 1 15 18
M  V30 18 2 16 19
M  V30 19 1 18 20
M  V30 20 2 18 21
M  V30 21 1 21 22
M  V30 22 1 8 12
M  V30 23 1 11 14
M  V30 24 1 19 21
M  V30 25 1 4 23
M  V30 26 1 7 24
M  V30 27 1 8 25
M  V30 28 1 9 26
M  V30 29 1 10 27
M  V30 30 1 11 28
M  V30 31 1 12 29
M  V30 32 1 12 30
M  V30 33 1 15 31
M  V30 34 1 16 32
M  V30 35 1 17 33
M  V30 36 1 19 34
M  V30 37 1 20 35
M  V30 38 1 22 36
M  V30 END BOND
M  V30 END CTAB
M  END
>  <Column 1>
23

>  <level_0>
25

>  <index>
25

>  <Unnamed: 0>
25

>  <NO.>
26

>  <Name>
quercetin

>  <IUPAC_name>


>  <SMILES>
O=C1c2c(O)cc(O)cc2CC(c2ccc(O)c(O)c2)C1O

>  <CID>


>  <logBB>
-1.7

>  <BBB+/BBB->
BBB-

>  <Inchi>
InChI=1S/C16H14O6/c17-9-3-8-4-10(7-1-2-11(18)12(19)5-7)15(21)16(22)14(8)13(20)6-9/h1-3-5-6-10-15-17-21H-4H2

>  <threshold>


>  <reference>
R2|R2|R25|R46|

>  <group>
A

>  <Class>
-1

>  <ABC>
17.34

>  <ABCGG>
14.21

>  <nAcid>
0

>  <nBase>
0

>  <nAromAtom>
12

>  <nAromBond>
12

>  <nAtom>
36

>  <nHeavyAtom>
22

>  <nSpiro>
0

>  <nBridgehead>
0

>  <nHetero>
6

>  <nN>
0

>  <nO>
6

>  <nF>
0

>  <BalabanJ>
1.74

>  <BertzCT>
767.47

>  <nBonds>
38

>  <nBondsO>
24

>  <nBondsS>
25

>  <nBondsD>
1

>  <nBondsT>
0

>  <nBondsA>
12

>  <nBondsM>
13

>  <nBondsKS>
31

>  <nBondsKD>
7

>  <RNCG>
0.18

>  <RPCG>
0.1

>  <FCSP3>
0.19

>  <SZ>
26.33

>  <Sm>
25.17

>  <Sv>
24.08

>  <Sse>
37.2

>  <Sp>
24.47

>  <Si>
40.16

>  <MZ>
0.73

>  <Mm>
0.7

>  <Mv>
0.67

>  <Mse>
1.03

>  <Mp>
0.68

>  <Mi>
1.12

>  <NsCH3>
0

>  <NdCH2>
0

>  <NssCH2>
1

>  <NtCH>
0

>  <NdsCH>
0

>  <NaaCH>
5

>  <NsssCH>
2

>  <NddC>
0

>  <NtsC>
0

>  <NdssC>
1

>  <NaasC>
7

>  <NaaaC>
0

>  <NssssC>
0

>  <NsNH3>
0

>  <NsNH2>
0

>  <NssNH2>
0

>  <NdNH>
0

>  <NssNH>
0

>  <NaaNH>
0

>  <NtN>
0

>  <NsssNH>
0

>  <NdsN>
0

>  <NaaN>
0

>  <NsssN>
0

>  <NddsN>
0

>  <NaasN>
0

>  <NssssN>
0

>  <NsOH>
5

>  <NdO>
1

>  <NssO>
0

>  <NaaO>
0

>  <NsF>
0

>  <NsSiH3>
0

>  <NssSiH2>
0

>  <NsssSiH>
0

>  <NssssSi>
0

>  <NsPH2>
0

>  <NssPH>
0

>  <NsssP>
0

>  <NdsssP>
0

>  <NsssssP>
0

>  <NsSH>
0

>  <NdS>
0

>  <NssS>
0

>  <NaaS>
0

>  <NdssS>
0

>  <NddssS>
0

>  <NsCl>
0

>  <NsBr>
0

>  <NsI>
0

>  <fragCpx>
114.06

>  <fMF>
0.44

>  <nHBAcc>
6

>  <nHBDon>
5

>  <Kier1>
16.84

>  <Kier2>
6.48

>  <Lipinski>
1

>  <GhoseFilter>
1

>  <FilterItLogS>
-1.81

>  <VMcGowan>
208.84

>  <LabuteASA>
125.08

>  <PEOE_VSA1>
25.53

>  <PEOE_VSA2>
4.79

>  <PEOE_VSA3>
0

>  <PEOE_VSA4>
0

>  <PEOE_VSA5>
0

>  <PEOE_VSA6>
6.07

>  <PEOE_VSA7>
35.75

>  <PEOE_VSA8>
11.98

>  <PEOE_VSA9>
5.56

>  <PEOE_VSA10>
17.6

>  <PEOE_VSA11>
17.28

>  <PEOE_VSA12>
0

>  <PEOE_VSA13>
0

>  <SMR_VSA1>
30.33

>  <SMR_VSA2>
0

>  <SMR_VSA3>
0

>  <SMR_VSA4>
0

>  <SMR_VSA5>
18.44

>  <SMR_VSA6>
0

>  <SMR_VSA7>
47.02

>  <SMR_VSA8>
0

>  <SMR_VSA9>
23

>  <SlogP_VSA1>
0

>  <SlogP_VSA2>
37.42

>  <SlogP_VSA3>
6.42

>  <SlogP_VSA4>
0

>  <SlogP_VSA5>
27.4

>  <SlogP_VSA6>
30.33

>  <SlogP_VSA7>
0

>  <SlogP_VSA8>
0

>  <SlogP_VSA9>
0

>  <SlogP_VSA10>
0

>  <SlogP_VSA11>
23

>  <EState_VSA1>
17.81

>  <EState_VSA2>
34.98

>  <EState_VSA3>
11.13

>  <EState_VSA4>
6.07

>  <EState_VSA5>
24.27

>  <EState_VSA6>
0

>  <EState_VSA7>
0

>  <EState_VSA8>
0

>  <EState_VSA9>
0

>  <EState_VSA10>
30.33

>  <VSA_EState1>
0

>  <VSA_EState2>
12.28

>  <VSA_EState3>
48.49

>  <VSA_EState4>
0.9

>  <VSA_EState5>
-2.47

>  <VSA_EState6>
6.48

>  <VSA_EState7>
-1.18

>  <VSA_EState8>
0

>  <VSA_EState9>
0

>  <apol>
40.87

>  <bpol>
14.91

>  <nRing>
3

>  <nHRing>
0

>  <naRing>
2

>  <naHRing>
0

>  <nARing 2>
1

>  <nAHRing 2>
0

>  <nFRing>
1

>  <nFHRing>
0

>  <nFaRing>
0

>  <nFaHRing>
0

>  <nFARing 2>
1

>  <nFAHRing 2>
0

>  <nRot>
1

>  <SLogP>
1.39

>  <SMR>
76.33

>  <TopoPSA(NO)>
118.22

>  <TopoPSA>
118.22

>  <JGI1>
0.23

>  <JGI2>
0.09

>  <JGI3>
0.06

>  <JGI4>
0.06

>  <JGI5>
0.03

>  <Diameter>
10

>  <Radius>
5

>  <TMWC10>
121.57

>  <TSRW10>
56.73

>  <MW>
302.08

>  <AMW>
8.39

>  <WPath>
986

>  <WPol>
40

>  <Zagreb1>
120

>  <Zagreb2>
145

>  <mZagreb2>
4.69

>  <yes>


>  <nAR-cont>
0.816016

>  <nHA-cont>
0.983774276

>  <MWHBN>
0.63289505

>  <MWHBN-cont>
0

>  <TPSA-cont>
0.17475099

>  <pka_cont>
0.97

>  <yes.1>


>  <BBB_SCORE>
2.634292255

>  <MMFF94 Energy>
81.262

$$$$
Compound 17
Actelion Java MolfileCreator 2.0

  0  0  0  0  0  0              0 V3000
M  V30 BEGIN CTAB
M  V30 COUNTS 31 32 0 0 0
M  V30 BEGIN ATOM
M  V30 1 F 0.0797 2.1544 -1.1166 0
M  V30 2 C 0.2188 0.966 -0.5076 0
M  V30 3 C -0.8878 0.121 -0.3426 0
M  V30 4 C 1.493 0.6097 -0.0611 0
M  V30 5 C -2.2341 0.4948 -0.8129 0
M  V30 6 C -0.6651 -1.1085 0.3004 0
M  V30 7 C 1.7058 -0.6209 0.5738 0
M  V30 8 C -2.9999 -0.3871 -1.596 0
M  V30 9 C -2.7997 1.7397 -0.4884 0
M  V30 10 C 0.6093 -1.4746 0.7521 0
M  V30 11 C 3.0804 -1.0317 1.0694 0 CFG=2
M  V30 12 C -4.2806 -0.0391 -2.0354 0
M  V30 13 C -4.0803 2.0896 -0.9266 0
M  V30 14 C 3.5969 -0.09 2.1418 0
M  V30 15 C 4.0909 -1.1429 -0.0745 0
M  V30 16 C -4.8205 1.1992 -1.6993 0
M  V30 17 O 4.3289 0.8739 1.9842 0
M  V30 18 O 3.1412 -0.4021 3.3735 0
M  V30 19 H 2.3085 1.3119 -0.218 0
M  V30 20 H -1.495 -1.7928 0.4699 0
M  V30 21 H -2.5955 -1.3553 -1.8839 0
M  V30 22 H -2.2416 2.4527 0.1159 0
M  V30 23 H 0.7318 -2.4347 1.2508 0
M  V30 24 H 3.023 -2.0289 1.5271 0
M  V30 25 H -4.8527 -0.7346 -2.6439 0
M  V30 26 H -4.4957 3.0591 -0.6641 0
M  V30 27 H 4.2592 -0.181 -0.5718 0
M  V30 28 H 3.7479 -1.8559 -0.8324 0
M  V30 29 H 5.0611 -1.4871 0.3009 0
M  V30 30 H -5.815 1.472 -2.0422 0
M  V30 31 H 3.5149 0.2976 3.9496 0
M  V30 END ATOM
M  V30 BEGIN BOND
M  V30 1 1 1 2
M  V30 2 2 2 3
M  V30 3 1 2 4
M  V30 4 1 3 5
M  V30 5 1 3 6
M  V30 6 2 4 7
M  V30 7 2 5 8
M  V30 8 1 5 9
M  V30 9 2 6 10
M  V30 10 1 7 11
M  V30 11 1 8 12
M  V30 12 2 9 13
M  V30 13 1 11 14
M  V30 14 1 11 15
M  V30 15 2 12 16
M  V30 16 2 14 17
M  V30 17 1 14 18
M  V30 18 1 7 10
M  V30 19 1 13 16
M  V30 20 1 4 19
M  V30 21 1 6 20
M  V30 22 1 8 21
M  V30 23 1 9 22
M  V30 24 1 10 23
M  V30 25 1 11 24
M  V30 26 1 12 25
M  V30 27 1 13 26
M  V30 28 1 15 27
M  V30 29 1 15 28
M  V30 30 1 15 29
M  V30 31 1 16 30
M  V30 32 1 18 31
M  V30 END BOND
M  V30 BEGIN COLLECTION
M  V30 MDLV30/STERAC1 ATOMS=(1 11)
M  V30 END COLLECTION
M  V30 END CTAB
M  END
>  <Column 1>
25

>  <level_0>
27

>  <index>
27

>  <Unnamed: 0>
27

>  <NO.>
28

>  <Name>
flurbiprofen

>  <IUPAC_name>
2-(3-fluoro-4-phenylphenyl)propanoic acid

>  <SMILES>
CC(C(=O)O)c1ccc(-c2ccccc2)c(F)c1

>  <CID>
3394

>  <logBB>
-1.68

>  <BBB+/BBB->
BBB-

>  <Inchi>
InChI=1S/C15H13FO2/c1-10(15(17)18)12-7-8-13(14(16)9-12)11-5-3-2-4-6-11/h2-10H-1H3-(H-17-18)

>  <threshold>


>  <reference>
R2|R2|R18|R20|R25|R26|R27|R46|

>  <group>
A

>  <Class>
-1

>  <ABC>
13.71

>  <ABCGG>
11.7

>  <nAcid>
1

>  <nBase>
0

>  <nAromAtom>
12

>  <nAromBond>
12

>  <nAtom>
31

>  <nHeavyAtom>
18

>  <nSpiro>
0

>  <nBridgehead>
0

>  <nHetero>
3

>  <nN>
0

>  <nO>
2

>  <nF>
1

>  <BalabanJ>
1.87

>  <BertzCT>
563.96

>  <nBonds>
32

>  <nBondsO>
19

>  <nBondsS>
19

>  <nBondsD>
1

>  <nBondsT>
0

>  <nBondsA>
12

>  <nBondsM>
13

>  <nBondsKS>
25

>  <nBondsKD>
7

>  <RNCG>
0.33

>  <RPCG>
0.21

>  <FCSP3>
0.13

>  <SZ>
21.33

>  <Sm>
20.34

>  <Sv>
20.6

>  <Sse>
31.39

>  <Sp>
21.48

>  <Si>
34.67

>  <MZ>
0.69

>  <Mm>
0.66

>  <Mv>
0.66

>  <Mse>
1.01

>  <Mp>
0.69

>  <Mi>
1.12

>  <NsCH3>
1

>  <NdCH2>
0

>  <NssCH2>
0

>  <NtCH>
0

>  <NdsCH>
0

>  <NaaCH>
8

>  <NsssCH>
1

>  <NddC>
0

>  <NtsC>
0

>  <NdssC>
1

>  <NaasC>
4

>  <NaaaC>
0

>  <NssssC>
0

>  <NsNH3>
0

>  <NsNH2>
0

>  <NssNH2>
0

>  <NdNH>
0

>  <NssNH>
0

>  <NaaNH>
0

>  <NtN>
0

>  <NsssNH>
0

>  <NdsN>
0

>  <NaaN>
0

>  <NsssN>
0

>  <NddsN>
0

>  <NaasN>
0

>  <NssssN>
0

>  <NsOH>
1

>  <NdO>
1

>  <NssO>
0

>  <NaaO>
0

>  <NsF>
1

>  <NsSiH3>
0

>  <NssSiH2>
0

>  <NsssSiH>
0

>  <NssssSi>
0

>  <NsPH2>
0

>  <NssPH>
0

>  <NsssP>
0

>  <NdsssP>
0

>  <NsssssP>
0

>  <NsSH>
0

>  <NdS>
0

>  <NssS>
0

>  <NaaS>
0

>  <NdssS>
0

>  <NddssS>
0

>  <NsCl>
0

>  <NsBr>
0

>  <NsI>
0

>  <fragCpx>
55.03

>  <fMF>
0.39

>  <nHBAcc>
1

>  <nHBDon>
1

>  <Kier1>
14.41

>  <Kier2>
6.44

>  <Lipinski>
1

>  <GhoseFilter>
1

>  <FilterItLogS>
-3.8

>  <VMcGowan>
183.89

>  <LabuteASA>
104.7

>  <PEOE_VSA1>
5.11

>  <PEOE_VSA2>
4.79

>  <PEOE_VSA3>
4.39

>  <PEOE_VSA4>
0

>  <PEOE_VSA5>
0

>  <PEOE_VSA6>
42.46

>  <PEOE_VSA7>
24.12

>  <PEOE_VSA8>
5.56

>  <PEOE_VSA9>
5.92

>  <PEOE_VSA10>
5.82

>  <PEOE_VSA11>
0

>  <PEOE_VSA12>
0

>  <PEOE_VSA13>
0

>  <SMR_VSA1>
14.29

>  <SMR_VSA2>
0

>  <SMR_VSA3>
0

>  <SMR_VSA4>
0

>  <SMR_VSA5>
12.84

>  <SMR_VSA6>
0

>  <SMR_VSA7>
59.91

>  <SMR_VSA8>
0

>  <SMR_VSA9>
11.13

>  <SlogP_VSA1>
0

>  <SlogP_VSA2>
11.08

>  <SlogP_VSA3>
4.79

>  <SlogP_VSA4>
5.82

>  <SlogP_VSA5>
18.41

>  <SlogP_VSA6>
48.53

>  <SlogP_VSA7>
0

>  <SlogP_VSA8>
11.13

>  <SlogP_VSA9>
0

>  <SlogP_VSA10>
4.39

>  <SlogP_VSA11>
0

>  <EState_VSA1>
17.7

>  <EState_VSA2>
0

>  <EState_VSA3>
11.13

>  <EState_VSA4>
5.56

>  <EState_VSA5>
6.07

>  <EState_VSA6>
19.06

>  <EState_VSA7>
30.33

>  <EState_VSA8>
0

>  <EState_VSA9>
5.11

>  <EState_VSA10>
9.18

>  <VSA_EState1>
13.97

>  <VSA_EState2>
10.84

>  <VSA_EState3>
8.89

>  <VSA_EState4>
1.74

>  <VSA_EState5>
-2.06

>  <VSA_EState6>
13.75

>  <VSA_EState7>
0

>  <VSA_EState8>
1.54

>  <VSA_EState9>
0

>  <apol>
35.88

>  <bpol>
15.02

>  <nRing>
2

>  <nHRing>
0

>  <naRing>
2

>  <naHRing>
0

>  <nARing 2>
0

>  <nAHRing 2>
0

>  <nFRing>
0

>  <nFHRing>
0

>  <nFaRing>
0

>  <nFaHRing>
0

>  <nFARing 2>
0

>  <nFAHRing 2>
0

>  <nRot>
3

>  <SLogP>
3.68

>  <SMR>
67.89

>  <TopoPSA(NO)>
37.3

>  <TopoPSA>
37.3

>  <JGI1>
0.18

>  <JGI2>
0.09

>  <JGI3>
0.05

>  <JGI4>
0.04

>  <JGI5>
0.03

>  <Diameter>
10

>  <Radius>
5

>  <TMWC10>
108.31

>  <TSRW10>
50.86

>  <MW>
244.09

>  <AMW>
7.87

>  <WPath>
626

>  <WPol>
27

>  <Zagreb1>
90

>  <Zagreb2>
104

>  <mZagreb2>
4.03

>  <yes>


>  <nAR-cont>
0.336376

>  <nHA-cont>
0.991161285

>  <MWHBN>
0.128013273

>  <MWHBN-cont>
0.862010389

>  <TPSA-cont>
0.739622838

>  <pka_cont>
0.97

>  <yes.1>


>  <BBB_SCORE>
4.584798544

>  <MMFF94 Energy>
45.811

$$$$
Compound 18
Actelion Java MolfileCreator 2.0

  0  0  0  0  0  0              0 V3000
M  V30 BEGIN CTAB
M  V30 COUNTS 62 64 0 0 0
M  V30 BEGIN ATOM
M  V30 1 S -2.0035 -7.3076 2.4848 0
M  V30 2 O -0.8538 -7.9442 1.8853 0
M  V30 3 O -3.2643 -7.9909 2.6568 0
M  V30 4 N -1.5182 -6.8404 4.023 0
M  V30 5 C -2.287 -5.7493 1.7001 0
M  V30 6 C -3.543 -5.1455 1.8008 0
M  V30 7 C -1.2696 -5.1575 0.9488 0
M  V30 8 C -3.7752 -3.9265 1.1605 0
M  V30 9 C -1.5082 -3.9395 0.3105 0
M  V30 10 C -2.7596 -3.3096 0.4138 0
M  V30 11 C -3.0146 -1.9925 -0.2921 0
M  V30 12 N -2.0818 -0.9292 0.1158 0
M  V30 13 C -2.2258 0.2383 -0.7785 0
M  V30 14 C -2.3416 -0.4889 1.5047 0
M  V30 15 C -1.2987 1.4046 -0.3681 0
M  V30 16 C -1.4207 0.679 1.925 0
M  V30 17 N -1.5275 1.8407 1.0213 0
M  V30 18 C -0.5846 2.8984 1.444 0
M  V30 19 C -0.7473 4.1864 0.6258 0
M  V30 20 O -1.6691 4.9773 0.8167 0
M  V30 21 N 0.2602 4.3351 -0.3191 0
M  V30 22 N 0.2761 5.3924 -1.1671 0
M  V30 23 C 1.2972 5.5559 -1.9572 0
M  V30 24 C 2.5698 4.8029 -2.0906 0
M  V30 25 C 2.695 3.4041 -2.0868 0
M  V30 26 C 3.7084 5.5958 -2.2852 0
M  V30 27 O 1.5652 2.6451 -1.9343 0
M  V30 28 C 3.9554 2.7921 -2.2383 0
M  V30 29 C 4.9597 5.0046 -2.4398 0
M  V30 30 C 5.0817 3.6161 -2.412 0
M  V30 31 C 4.159 1.2904 -2.228 0
M  V30 32 C 3.8451 0.6681 -0.8956 0
M  V30 33 C 2.9743 -0.3332 -0.7097 0
M  V30 34 H -0.5599 -7.1473 4.19 0
M  V30 35 H -2.1873 -7.1806 4.7139 0
M  V30 36 H -4.3413 -5.6151 2.3711 0
M  V30 37 H -0.2962 -5.6326 0.8554 0
M  V30 38 H -4.7547 -3.4604 1.2467 0
M  V30 39 H -0.7145 -3.4715 -0.2687 0
M  V30 40 H -4.0559 -1.6749 -0.1471 0
M  V30 41 H -2.9023 -2.1927 -1.3663 0
M  V30 42 H -1.9673 -0.0541 -1.8035 0
M  V30 43 H -3.2659 0.5919 -0.7912 0
M  V30 44 H -3.389 -0.1793 1.6231 0
M  V30 45 H -2.1645 -1.3159 2.202 0
M  V30 46 H -0.2551 1.0915 -0.5027 0
M  V30 47 H -1.489 2.2324 -1.0602 0
M  V30 48 H -0.3841 0.3169 1.9626 0
M  V30 49 H -1.6977 0.9818 2.9422 0
M  V30 50 H 0.4534 2.5463 1.3946 0
M  V30 51 H -0.7794 3.1754 2.4879 0
M  V30 52 H 0.9206 3.5817 -0.4816 0
M  V30 53 H 1.2404 6.4549 -2.5972 0
M  V30 54 H 3.6316 6.6813 -2.3016 0
M  V30 55 H 1.7656 1.714 -2.1276 0
M  V30 56 H 5.8416 5.6259 -2.579 0
M  V30 57 H 6.0718 3.1784 -2.531 0
M  V30 58 H 5.2018 1.0509 -2.4711 0
M  V30 59 H 3.5586 0.8476 -3.0325 0
M  V30 60 H 4.3807 1.0638 -0.0334 0
M  V30 61 H 2.8019 -0.7391 0.2838 0
M  V30 62 H 2.4246 -0.7854 -1.5296 0
M  V30 END ATOM
M  V30 BEGIN BOND
M  V30 1 2 1 2
M  V30 2 2 1 3
M  V30 3 1 1 4
M  V30 4 1 1 5
M  V30 5 2 5 6
M  V30 6 1 5 7
M  V30 7 1 6 8
M  V30 8 2 7 9
M  V30 9 2 8 10
M  V30 10 1 10 11
M  V30 11 1 11 12
M  V30 12 1 12 13
M  V30 13 1 12 14
M  V30 14 1 13 15
M  V30 15 1 14 16
M  V30 16 1 15 17
M  V30 17 1 17 18
M  V30 18 1 18 19
M  V30 19 2 19 20
M  V30 20 1 19 21
M  V30 21 1 21 22
M  V30 22 2 22 23
M  V30 23 1 23 24
M  V30 24 2 24 25
M  V30 25 1 24 26
M  V30 26 1 25 27
M  V30 27 1 25 28
M  V30 28 2 26 29
M  V30 29 2 28 30
M  V30 30 1 28 31
M  V30 31 1 31 32
M  V30 32 2 32 33
M  V30 33 1 9 10
M  V30 34 1 16 17
M  V30 35 1 29 30
M  V30 36 1 4 34
M  V30 37 1 4 35
M  V30 38 1 6 36
M  V30 39 1 7 37
M  V30 40 1 8 38
M  V30 41 1 9 39
M  V30 42 1 11 40
M  V30 43 1 11 41
M  V30 44 1 13 42
M  V30 45 1 13 43
M  V30 46 1 14 44
M  V30 47 1 14 45
M  V30 48 1 15 46
M  V30 49 1 15 47
M  V30 50 1 16 48
M  V30 51 1 16 49
M  V30 52 1 18 50
M  V30 53 1 18 51
M  V30 54 1 21 52
M  V30 55 1 23 53
M  V30 56 1 26 54
M  V30 57 1 27 55
M  V30 58 1 29 56
M  V30 59 1 30 57
M  V30 60 1 31 58
M  V30 61 1 31 59
M  V30 62 1 32 60
M  V30 63 1 33 61
M  V30 64 1 33 62
M  V30 END BOND
M  V30 END CTAB
M  END
>  <Column 1>
26

>  <level_0>
28

>  <index>
28

>  <Unnamed: 0>
28

>  <NO.>
29

>  <Name>
schembl18285121

>  <IUPAC_name>
n-[(z)-(2-hydroxy-3-prop-2-enylphenyl)methylideneamino]-2-[4-[(4-sulfamoylphenyl)methyl]piperazin-1-yl]acetamide

>  <SMILES>
C=CCc1cccc(/C=N\NC(=O)CN2CCN(Cc3ccc(S(N)(=O)=O)cc3)CC2)c1O

>  <CID>
135905414

>  <logBB>
-1.67

>  <BBB+/BBB->
BBB-

>  <Inchi>
InChI=1S/C23H29N5O4S/c1-2-4-19-5-3-6-20(23(19)30)15-25-26-22(29)17-28-13-11-27(12-14-28)16-18-7-9-21(10-8-18)33(24-31)32/h2-3-5-10-15-30H-1-4-11-14-16-17H2-(H-26-29)(H2-24-31-32)/b25-15-

>  <threshold>


>  <reference>
R47|

>  <group>
A

>  <Class>
-1

>  <ABC>
25.3

>  <ABCGG>
17.94

>  <nAcid>
0

>  <nBase>
2

>  <nAromAtom>
12

>  <nAromBond>
12

>  <nAtom>
62

>  <nHeavyAtom>
33

>  <nSpiro>
0

>  <nBridgehead>
0

>  <nHetero>
10

>  <nN>
5

>  <nO>
4

>  <nF>
0

>  <BalabanJ>
1.26

>  <BertzCT>
1108.17

>  <nBonds>
64

>  <nBondsO>
35

>  <nBondsS>
47

>  <nBondsD>
5

>  <nBondsT>
0

>  <nBondsA>
12

>  <nBondsM>
17

>  <nBondsKS>
53

>  <nBondsKD>
11

>  <RNCG>
0.17

>  <RPCG>
0.1

>  <FCSP3>
0.3

>  <SZ>
41.67

>  <Sm>
39.26

>  <Sv>
38.69

>  <Sse>
62.59

>  <Sp>
41.53

>  <Si>
70.23

>  <MZ>
0.67

>  <Mm>
0.63

>  <Mv>
0.62

>  <Mse>
1.01

>  <Mp>
0.67

>  <Mi>
1.13

>  <NsCH3>
0

>  <NdCH2>
1

>  <NssCH2>
7

>  <NtCH>
0

>  <NdsCH>
2

>  <NaaCH>
7

>  <NsssCH>
0

>  <NddC>
0

>  <NtsC>
0

>  <NdssC>
1

>  <NaasC>
5

>  <NaaaC>
0

>  <NssssC>
0

>  <NsNH3>
0

>  <NsNH2>
1

>  <NssNH2>
0

>  <NdNH>
0

>  <NssNH>
1

>  <NaaNH>
0

>  <NtN>
0

>  <NsssNH>
0

>  <NdsN>
1

>  <NaaN>
0

>  <NsssN>
2

>  <NddsN>
0

>  <NaasN>
0

>  <NssssN>
0

>  <NsOH>
1

>  <NdO>
3

>  <NssO>
0

>  <NaaO>
0

>  <NsF>
0

>  <NsSiH3>
0

>  <NssSiH2>
0

>  <NsssSiH>
0

>  <NssssSi>
0

>  <NsPH2>
0

>  <NssPH>
0

>  <NsssP>
0

>  <NdsssP>
0

>  <NsssssP>
0

>  <NsSH>
0

>  <NdS>
0

>  <NssS>
0

>  <NaaS>
0

>  <NdssS>
0

>  <NddssS>
1

>  <NsCl>
0

>  <NsBr>
0

>  <NsI>
0

>  <fragCpx>
169.1

>  <fMF>
0.39

>  <nHBAcc>
7

>  <nHBDon>
3

>  <Kier1>
27.59

>  <Kier2>
13.35

>  <Lipinski>
1

>  <GhoseFilter>
1

>  <FilterItLogS>
-4.24

>  <VMcGowan>
353.38

>  <LabuteASA>
193.8

>  <PEOE_VSA1>
5.11

>  <PEOE_VSA2>
14.59

>  <PEOE_VSA3>
18.98

>  <PEOE_VSA4>
5.1

>  <PEOE_VSA5>
6.58

>  <PEOE_VSA6>
30.34

>  <PEOE_VSA7>
35.75

>  <PEOE_VSA8>
38.29

>  <PEOE_VSA9>
17.65

>  <PEOE_VSA10>
5.75

>  <PEOE_VSA11>
0

>  <PEOE_VSA12>
10.02

>  <PEOE_VSA13>
5.91

>  <SMR_VSA1>
18.32

>  <SMR_VSA2>
0

>  <SMR_VSA3>
15.23

>  <SMR_VSA4>
10.24

>  <SMR_VSA5>
17.86

>  <SMR_VSA6>
32.72

>  <SMR_VSA7>
71.81

>  <SMR_VSA8>
0

>  <SMR_VSA9>
5.75

>  <SlogP_VSA1>
10.56

>  <SlogP_VSA2>
68.17

>  <SlogP_VSA3>
27.78

>  <SlogP_VSA4>
0

>  <SlogP_VSA5>
16.69

>  <SlogP_VSA6>
65.12

>  <SlogP_VSA7>
0

>  <SlogP_VSA8>
0

>  <SlogP_VSA9>
0

>  <SlogP_VSA10>
0

>  <SlogP_VSA11>
5.75

>  <EState_VSA1>
10.02

>  <EState_VSA2>
23.1

>  <EState_VSA3>
18.53

>  <EState_VSA4>
37.31

>  <EState_VSA5>
18.35

>  <EState_VSA6>
24.28

>  <EState_VSA7>
17.03

>  <EState_VSA8>
22.01

>  <EState_VSA9>
5.14

>  <EState_VSA10>
18.32

>  <VSA_EState1>
22.71

>  <VSA_EState2>
16.62

>  <VSA_EState3>
19.32

>  <VSA_EState4>
4.79

>  <VSA_EState5>
-0.09

>  <VSA_EState6>
11.91

>  <VSA_EState7>
3.69

>  <VSA_EState8>
7.65

>  <VSA_EState9>
-3.68

>  <apol>
69.36

>  <bpol>
40.04

>  <nRing>
3

>  <nHRing>
1

>  <naRing>
2

>  <naHRing>
0

>  <nARing 2>
1

>  <nAHRing 2>
1

>  <nFRing>
0

>  <nFHRing>
0

>  <nFaRing>
0

>  <nFaHRing>
0

>  <nFARing 2>
0

>  <nFAHRing 2>
0

>  <nRot>
9

>  <SLogP>
1.04

>  <SMR>
127.28

>  <TopoPSA(NO)>
128.33

>  <TopoPSA>
136.71

>  <JGI1>
0.23

>  <JGI2>
0.08

>  <JGI3>
0.05

>  <JGI4>
0.04

>  <JGI5>
0.02

>  <Diameter>
21

>  <Radius>
11

>  <TMWC10>
144.28

>  <TSRW10>
68.78

>  <MW>
471.19

>  <AMW>
7.6

>  <WPath>
4236

>  <WPol>
48

>  <Zagreb1>
166

>  <Zagreb2>
188

>  <mZagreb2>
7.31

>  <yes>


>  <nAR-cont>
0.816016

>  <nHA-cont>
0.61399562

>  <MWHBN>
0.460682768

>  <MWHBN-cont>
0

>  <TPSA-cont>
0

>  <pka_cont>
0.97

>  <yes.1>


>  <BBB_SCORE>
1.91501162

>  <MMFF94 Energy>
136.8

$$$$
Compound 19
Actelion Java MolfileCreator 2.0

  0  0  0  0  0  0              0 V3000
M  V30 BEGIN CTAB
M  V30 COUNTS 32 33 0 0 0
M  V30 BEGIN ATOM
M  V30 1 S -1.3537 -3.1077 -1.5927 0
M  V30 2 C -2.4475 -2.2817 -0.533 0
M  V30 3 C -0.2295 -1.8269 -1.444 0
M  V30 4 N -1.9955 -1.1164 -0.1018 0
M  V30 5 N -3.6298 -2.8935 -0.259 0
M  V30 6 C -0.7316 -0.8511 -0.6084 0
M  V30 7 C -4.4207 -2.3652 0.6143 0
M  V30 8 C -0.0364 0.3893 -0.2768 0
M  V30 9 N -5.5957 -2.9622 0.8994 0
M  V30 10 N -4.265 -1.2387 1.3391 0
M  V30 11 C 1.3648 0.4837 -0.3058 0
M  V30 12 C -0.7825 1.5168 0.0922 0
M  V30 13 C 2.0112 1.6842 0.0061 0
M  V30 14 C -0.1458 2.7139 0.4178 0
M  V30 15 N 3.4131 1.8368 -2.0E-4 0
M  V30 16 C 1.2459 2.7957 0.3759 0
M  V30 17 C 4.337 0.9938 -0.592 0
M  V30 18 O 4.0978 -0.0147 -1.2463 0
M  V30 19 C 5.7529 1.468 -0.3825 0
M  V30 20 H 0.711 -1.8559 -1.9752 0
M  V30 21 H -6.3346 -2.4795 1.3826 0
M  V30 22 H -5.8218 -3.8088 0.395 0
M  V30 23 H -3.3998 -0.7209 1.1939 0
M  V30 24 H -4.7943 -1.0547 2.1739 0
M  V30 25 H 1.9488 -0.3973 -0.5516 0
M  V30 26 H -1.8695 1.4677 0.121 0
M  V30 27 H -0.7361 3.5821 0.6998 0
M  V30 28 H 3.7722 2.6793 0.4311 0
M  V30 29 H 1.7192 3.7408 0.6286 0
M  V30 30 H 5.9441 2.3353 -1.0205 0
M  V30 31 H 6.4513 0.6677 -0.6423 0
M  V30 32 H 5.9123 1.7429 0.6642 0
M  V30 END ATOM
M  V30 BEGIN BOND
M  V30 1 1 1 2
M  V30 2 1 1 3
M  V30 3 2 2 4
M  V30 4 1 2 5
M  V30 5 2 3 6
M  V30 6 2 5 7
M  V30 7 1 6 8
M  V30 8 1 7 9
M  V30 9 1 7 10
M  V30 10 2 8 11
M  V30 11 1 8 12
M  V30 12 1 11 13
M  V30 13 2 12 14
M  V30 14 1 13 15
M  V30 15 2 13 16
M  V30 16 1 15 17
M  V30 17 2 17 18
M  V30 18 1 17 19
M  V30 19 1 4 6
M  V30 20 1 14 16
M  V30 21 1 3 20
M  V30 22 1 9 21
M  V30 23 1 9 22
M  V30 24 1 10 23
M  V30 25 1 10 24
M  V30 26 1 11 25
M  V30 27 1 12 26
M  V30 28 1 14 27
M  V30 29 1 15 28
M  V30 30 1 16 29
M  V30 31 1 19 30
M  V30 32 1 19 31
M  V30 33 1 19 32
M  V30 END BOND
M  V30 END CTAB
M  END
>  <Column 1>
28

>  <level_0>
31

>  <index>
31

>  <Unnamed: 0>
31

>  <NO.>
32

>  <Name>
compound 34

>  <IUPAC_name>
n-[3-[2-(diaminomethylideneamino)-1-3-thiazol-4-yl]phenyl]acetamide

>  <SMILES>
CC(=O)Nc1cccc(-c2csc(N=C(N)N)n2)c1

>  <CID>
14022511

>  <logBB>
-1.57

>  <BBB+/BBB->
BBB-

>  <Inchi>
InChI=1S/C12H13N5OS/c1-7(18)15-9-4-2-3-8(5-9)10-6-19-12(16-10)17-11(13)14/h2-6H-1H3-(H-15-18)(H4-13-14-16-17)

>  <threshold>


>  <reference>
R2|R2|R8|R40|R3|R3|R12|R18|R25|R26|R27|R35|R36|R38|R38|R41|R41|R43|R46|R47|R48|R49|R49|R4|

>  <group>
A

>  <Class>
-1

>  <ABC>
14.54

>  <ABCGG>
12.39

>  <nAcid>
0

>  <nBase>
3

>  <nAromAtom>
11

>  <nAromBond>
11

>  <nAtom>
32

>  <nHeavyAtom>
19

>  <nSpiro>
0

>  <nBridgehead>
0

>  <nHetero>
7

>  <nN>
5

>  <nO>
1

>  <nF>
0

>  <BalabanJ>
1.78

>  <BertzCT>
630.55

>  <nBonds>
33

>  <nBondsO>
20

>  <nBondsS>
20

>  <nBondsD>
2

>  <nBondsT>
0

>  <nBondsA>
11

>  <nBondsM>
13

>  <nBondsKS>
26

>  <nBondsKD>
7

>  <RNCG>
0.18

>  <RPCG>
0.11

>  <FCSP3>
0.08

>  <SZ>
24

>  <Sm>
22.92

>  <Sv>
21.21

>  <Sse>
32.49

>  <Sp>
22.7

>  <Si>
36.28

>  <MZ>
0.75

>  <Mm>
0.72

>  <Mv>
0.66

>  <Mse>
1.02

>  <Mp>
0.71

>  <Mi>
1.13

>  <NsCH3>
1

>  <NdCH2>
0

>  <NssCH2>
0

>  <NtCH>
0

>  <NdsCH>
0

>  <NaaCH>
5

>  <NsssCH>
0

>  <NddC>
0

>  <NtsC>
0

>  <NdssC>
2

>  <NaasC>
4

>  <NaaaC>
0

>  <NssssC>
0

>  <NsNH3>
0

>  <NsNH2>
2

>  <NssNH2>
0

>  <NdNH>
0

>  <NssNH>
1

>  <NaaNH>
0

>  <NtN>
0

>  <NsssNH>
0

>  <NdsN>
1

>  <NaaN>
1

>  <NsssN>
0

>  <NddsN>
0

>  <NaasN>
0

>  <NssssN>
0

>  <NsOH>
0

>  <NdO>
1

>  <NssO>
0

>  <NaaO>
0

>  <NsF>
0

>  <NsSiH3>
0

>  <NssSiH2>
0

>  <NsssSiH>
0

>  <NssssSi>
0

>  <NsPH2>
0

>  <NssPH>
0

>  <NsssP>
0

>  <NdsssP>
0

>  <NsssssP>
0

>  <NsSH>
0

>  <NdS>
0

>  <NssS>
0

>  <NaaS>
1

>  <NdssS>
0

>  <NddssS>
0

>  <NsCl>
0

>  <NsBr>
0

>  <NsI>
0

>  <fragCpx>
58.07

>  <fMF>
0.34

>  <nHBAcc>
4

>  <nHBDon>
3

>  <Kier1>
15.39

>  <Kier2>
7.14

>  <Lipinski>
1

>  <GhoseFilter>
1

>  <FilterItLogS>
-2.82

>  <VMcGowan>
200.24

>  <LabuteASA>
113.73

>  <PEOE_VSA1>
16.78

>  <PEOE_VSA2>
4.79

>  <PEOE_VSA3>
4.98

>  <PEOE_VSA4>
4.99

>  <PEOE_VSA5>
11.34

>  <PEOE_VSA6>
12.13

>  <PEOE_VSA7>
12.13

>  <PEOE_VSA8>
23.55

>  <PEOE_VSA9>
5.69

>  <PEOE_VSA10>
0

>  <PEOE_VSA11>
5.96

>  <PEOE_VSA12>
11.04

>  <PEOE_VSA13>
0

>  <SMR_VSA1>
4.79

>  <SMR_VSA2>
0

>  <SMR_VSA3>
4.98

>  <SMR_VSA4>
16.46

>  <SMR_VSA5>
6.92

>  <SMR_VSA6>
5.32

>  <SMR_VSA7>
29.65

>  <SMR_VSA8>
0

>  <SMR_VSA9>
11.26

>  <SlogP_VSA1>
16.78

>  <SlogP_VSA2>
16.85

>  <SlogP_VSA3>
4.79

>  <SlogP_VSA4>
0

>  <SlogP_VSA5>
6.92

>  <SlogP_VSA6>
34.64

>  <SlogP_VSA7>
0

>  <SlogP_VSA8>
11.26

>  <SlogP_VSA9>
0

>  <SlogP_VSA10>
10.82

>  <SlogP_VSA11>
0

>  <EState_VSA1>
0

>  <EState_VSA2>
11.87

>  <EState_VSA3>
5.13

>  <EState_VSA4>
16.94

>  <EState_VSA5>
18.26

>  <EState_VSA6>
0

>  <EState_VSA7>
29.65

>  <EState_VSA8>
15.29

>  <EState_VSA9>
11.47

>  <EState_VSA10>
4.79

>  <VSA_EState1>
0

>  <VSA_EState2>
19.2

>  <VSA_EState3>
5.08

>  <VSA_EState4>
12.97

>  <VSA_EState5>
-0.13

>  <VSA_EState6>
7.41

>  <VSA_EState7>
0

>  <VSA_EState8>
1.46

>  <VSA_EState9>
0

>  <apol>
37.91

>  <bpol>
18.08

>  <nRing>
2

>  <nHRing>
1

>  <naRing>
2

>  <naHRing>
1

>  <nARing 2>
0

>  <nAHRing 2>
0

>  <nFRing>
0

>  <nFHRing>
0

>  <nFaRing>
0

>  <nFaHRing>
0

>  <nFARing 2>
0

>  <nFAHRing 2>
0

>  <nRot>
3

>  <SLogP>
1.67

>  <SMR>
77.32

>  <TopoPSA(NO)>
106.39

>  <TopoPSA>
134.63

>  <JGI1>
0.25

>  <JGI2>
0.05

>  <JGI3>
0.05

>  <JGI4>
0.03

>  <JGI5>
0.03

>  <Diameter>
11

>  <Radius>
6

>  <TMWC10>
110.17

>  <TSRW10>
65.29

>  <MW>
275.08

>  <AMW>
8.6

>  <WPath>
773

>  <WPol>
23

>  <Zagreb1>
94

>  <Zagreb2>
105

>  <mZagreb2>
4.19

>  <yes>


>  <nAR-cont>
0.336376

>  <nHA-cont>
0.998649058

>  <MWHBN>
0.422054497

>  <MWHBN-cont>
0.390048183

>  <TPSA-cont>
0

>  <pka_cont>
0.97

>  <yes.1>


>  <BBB_SCORE>
2.405097332

>  <MMFF94 Energy>
-119.86

$$$$
Compound 20
Actelion Java MolfileCreator 2.0

  0  0  0  0  0  0              0 V3000
M  V30 BEGIN CTAB
M  V30 COUNTS 40 42 0 0 0
M  V30 BEGIN ATOM
M  V30 1 F -5.1674 -0.1637 1.7202 0
M  V30 2 C -5.1873 -1.4512 1.2784 0
M  V30 3 F -6.1082 -1.4926 0.2781 0
M  V30 4 F -5.7063 -2.1877 2.2994 0
M  V30 5 C -3.832 -1.9367 0.827 0
M  V30 6 C -2.9517 -1.0664 0.1647 0
M  V30 7 C -3.4361 -3.2625 1.0219 0
M  V30 8 C -1.7044 -1.4848 -0.2822 0
M  V30 9 C -2.1839 -3.6912 0.5748 0
M  V30 10 N -0.8994 -0.6052 -0.9071 0
M  V30 11 C -1.3121 -2.8255 -0.0723 0
M  V30 12 C 0.3182 -1.0291 -1.3295 0
M  V30 13 N -0.1199 -3.2744 -0.486 0
M  V30 14 N 1.1156 -0.1326 -2.0191 0
M  V30 15 C 0.6847 -2.368 -1.1159 0
M  V30 16 C 0.7792 1.2684 -2.1284 0
M  V30 17 C 2.025 -2.8573 -1.558 0
M  V30 18 C 1.3776 2.0416 -0.9761 0
M  V30 19 O 2.9301 -2.1776 -2.016 0
M  V30 20 O 2.1834 -4.189 -1.4015 0
M  V30 21 C 2.7145 2.4621 -1.0163 0
M  V30 22 C 0.616 2.3146 0.1679 0
M  V30 23 C 3.2718 3.1591 0.0587 0
M  V30 24 C 1.1725 3.0109 1.2434 0
M  V30 25 C 2.504 3.4491 1.1964 0
M  V30 26 C 3.1129 4.1792 2.3676 0
M  V30 27 F 3.6824 3.3316 3.2684 0
M  V30 28 F 4.0949 5.0512 2.0029 0
M  V30 29 F 2.2068 4.9166 3.0697 0
M  V30 30 H -3.2432 -0.0307 -0.0089 0
M  V30 31 H -4.0958 -3.9706 1.5227 0
M  V30 32 H -1.8802 -4.7243 0.7325 0
M  V30 33 H 2.098 -0.3826 -2.1238 0
M  V30 34 H 1.2019 1.6555 -3.064 0
M  V30 35 H -0.3004 1.446 -2.2082 0
M  V30 36 H 3.0914 -4.3759 -1.7133 0
M  V30 37 H 3.3313 2.244 -1.886 0
M  V30 38 H -0.4162 1.9735 0.228 0
M  V30 39 H 4.3132 3.4743 0.0062 0
M  V30 40 H 0.5609 3.2075 2.1229 0
M  V30 END ATOM
M  V30 BEGIN BOND
M  V30 1 1 1 2
M  V30 2 1 2 3
M  V30 3 1 2 4
M  V30 4 1 2 5
M  V30 5 2 5 6
M  V30 6 1 5 7
M  V30 7 1 6 8
M  V30 8 2 7 9
M  V30 9 2 8 10
M  V30 10 1 8 11
M  V30 11 1 10 12
M  V30 12 2 11 13
M  V30 13 1 12 14
M  V30 14 2 12 15
M  V30 15 1 14 16
M  V30 16 1 15 17
M  V30 17 1 16 18
M  V30 18 2 17 19
M  V30 19 1 17 20
M  V30 20 2 18 21
M  V30 21 1 18 22
M  V30 22 1 21 23
M  V30 23 2 22 24
M  V30 24 2 23 25
M  V30 25 1 25 26
M  V30 26 1 26 27
M  V30 27 1 26 28
M  V30 28 1 26 29
M  V30 29 1 9 11
M  V30 30 1 13 15
M  V30 31 1 24 25
M  V30 32 1 6 30
M  V30 33 1 7 31
M  V30 34 1 9 32
M  V30 35 1 14 33
M  V30 36 1 16 34
M  V30 37 1 16 35
M  V30 38 1 20 36
M  V30 39 1 21 37
M  V30 40 1 22 38
M  V30 41 1 23 39
M  V30 42 1 24 40
M  V30 END BOND
M  V30 END CTAB
M  END
>  <Column 1>
29

>  <level_0>
32

>  <index>
32

>  <Unnamed: 0>
32

>  <NO.>
33

>  <Name>
y22

>  <IUPAC_name>
6-(trifluoromethyl)-3-[[4-(trifluoromethyl)phenyl]methylamino]quinoxaline-2-carboxylic acid

>  <SMILES>
O=C(O)c1nc2ccc(C(F)(F)F)cc2nc1NCc1ccc(C(F)(F)F)cc1

>  <CID>
86287487

>  <logBB>
-1.57

>  <BBB+/BBB->
BBB-

>  <Inchi>
InChI=1S/C18H11F6N3O2/c19-17(20-21)10-3-1-9(2-4-10)8-25-15-14(16(28)29)26-12-6-5-11(18(22-23)24)7-13(12)27-15/h1-7H-8H2-(H-25-27)(H-28-29)

>  <threshold>


>  <reference>
R11|

>  <group>
A

>  <Class>
-1

>  <ABC>
22.85

>  <ABCGG>
17.46

>  <nAcid>
1

>  <nBase>
0

>  <nAromAtom>
16

>  <nAromBond>
17

>  <nAtom>
40

>  <nHeavyAtom>
29

>  <nSpiro>
0

>  <nBridgehead>
0

>  <nHetero>
11

>  <nN>
3

>  <nO>
2

>  <nF>
6

>  <BalabanJ>
1.54

>  <BertzCT>
1062.11

>  <nBonds>
42

>  <nBondsO>
31

>  <nBondsS>
24

>  <nBondsD>
1

>  <nBondsT>
0

>  <nBondsA>
17

>  <nBondsM>
18

>  <nBondsKS>
33

>  <nBondsKD>
9

>  <RNCG>
0.16

>  <RPCG>
0.14

>  <FCSP3>
0.17

>  <SZ>
35

>  <Sm>
34.58

>  <Sv>
28.56

>  <Sse>
43.27

>  <Sp>
27.33

>  <Si>
46.86

>  <MZ>
0.88

>  <Mm>
0.86

>  <Mv>
0.71

>  <Mse>
1.08

>  <Mp>
0.68

>  <Mi>
1.17

>  <NsCH3>
0

>  <NdCH2>
0

>  <NssCH2>
1

>  <NtCH>
0

>  <NdsCH>
0

>  <NaaCH>
7

>  <NsssCH>
0

>  <NddC>
0

>  <NtsC>
0

>  <NdssC>
1

>  <NaasC>
5

>  <NaaaC>
2

>  <NssssC>
2

>  <NsNH3>
0

>  <NsNH2>
0

>  <NssNH2>
0

>  <NdNH>
0

>  <NssNH>
1

>  <NaaNH>
0

>  <NtN>
0

>  <NsssNH>
0

>  <NdsN>
0

>  <NaaN>
2

>  <NsssN>
0

>  <NddsN>
0

>  <NaasN>
0

>  <NssssN>
0

>  <NsOH>
1

>  <NdO>
1

>  <NssO>
0

>  <NaaO>
0

>  <NsF>
6

>  <NsSiH3>
0

>  <NssSiH2>
0

>  <NsssSiH>
0

>  <NssssSi>
0

>  <NsPH2>
0

>  <NssPH>
0

>  <NsssP>
0

>  <NdsssP>
0

>  <NsssssP>
0

>  <NsSH>
0

>  <NdS>
0

>  <NssS>
0

>  <NaaS>
0

>  <NdssS>
0

>  <NddssS>
0

>  <NsCl>
0

>  <NsBr>
0

>  <NsI>
0

>  <fragCpx>
149.11

>  <fMF>
0.45

>  <nHBAcc>
4

>  <nHBDon>
2

>  <Kier1>
23.66

>  <Kier2>
9.24

>  <Lipinski>
1

>  <GhoseFilter>
1

>  <FilterItLogS>
-6.3

>  <VMcGowan>
245.44

>  <LabuteASA>
158.57

>  <PEOE_VSA1>
10.42

>  <PEOE_VSA2>
0

>  <PEOE_VSA3>
14.76

>  <PEOE_VSA4>
26.34

>  <PEOE_VSA5>
0

>  <PEOE_VSA6>
12.13

>  <PEOE_VSA7>
35.9

>  <PEOE_VSA8>
6.54

>  <PEOE_VSA9>
22.16

>  <PEOE_VSA10>
0

>  <PEOE_VSA11>
11.51

>  <PEOE_VSA12>
0

>  <PEOE_VSA13>
0

>  <SMR_VSA1>
36.24

>  <SMR_VSA2>
0

>  <SMR_VSA3>
9.97

>  <SMR_VSA4>
0

>  <SMR_VSA5>
18.9

>  <SMR_VSA6>
5.32

>  <SMR_VSA7>
64.85

>  <SMR_VSA8>
0

>  <SMR_VSA9>
0

>  <SlogP_VSA1>
5.32

>  <SlogP_VSA2>
21.04

>  <SlogP_VSA3>
18.9

>  <SlogP_VSA4>
0

>  <SlogP_VSA5>
27.18

>  <SlogP_VSA6>
42.46

>  <SlogP_VSA7>
0

>  <SlogP_VSA8>
11.03

>  <SlogP_VSA9>
0

>  <SlogP_VSA10>
32.16

>  <SlogP_VSA11>
0

>  <EState_VSA1>
35.14

>  <EState_VSA2>
23.4

>  <EState_VSA3>
5.56

>  <EState_VSA4>
30.33

>  <EState_VSA5>
12.13

>  <EState_VSA6>
0

>  <EState_VSA7>
0

>  <EState_VSA8>
15.28

>  <EState_VSA9>
0

>  <EState_VSA10>
36.24

>  <VSA_EState1>
76.41

>  <VSA_EState2>
19.13

>  <VSA_EState3>
11.89

>  <VSA_EState4>
-2.2

>  <VSA_EState5>
-1.77

>  <VSA_EState6>
6.6

>  <VSA_EState7>
-9.11

>  <VSA_EState8>
-0.11

>  <VSA_EState9>
0

>  <apol>
45.64

>  <bpol>
21.43

>  <nRing>
3

>  <nHRing>
1

>  <naRing>
3

>  <naHRing>
1

>  <nARing 2>
0

>  <nAHRing 2>
0

>  <nFRing>
1

>  <nFHRing>
1

>  <nFaRing>
1

>  <nFaHRing>
1

>  <nFARing 2>
0

>  <nFAHRing 2>
0

>  <nRot>
4

>  <SLogP>
4.98

>  <SMR>
90.27

>  <TopoPSA(NO)>
75.11

>  <TopoPSA>
75.11

>  <JGI1>
0.31

>  <JGI2>
0.09

>  <JGI3>
0.04

>  <JGI4>
0.05

>  <JGI5>
0.04

>  <Diameter>
14

>  <Radius>
7

>  <TMWC10>
137.02

>  <TSRW10>
64.86

>  <MW>
415.08

>  <AMW>
10.38

>  <WPath>
2428

>  <WPol>
47

>  <Zagreb1>
156

>  <Zagreb2>
181

>  <mZagreb2>
6

>  <yes>


>  <nAR-cont>
0.336376

>  <nHA-cont>
0.785905698

>  <MWHBN>
0.294500032

>  <MWHBN-cont>
0.856853861

>  <TPSA-cont>
0.475685559

>  <pka_cont>
0.97

>  <yes.1>


>  <BBB_SCORE>
3.843933609

>  <MMFF94 Energy>
163.06

$$$$
Compound 21
Actelion Java MolfileCreator 2.0

  0  0  0  0  0  0              0 V3000
M  V30 BEGIN CTAB
M  V30 COUNTS 36 37 0 0 0
M  V30 BEGIN ATOM
M  V30 1 S -3.9698 -3.4133 -0.0792 0
M  V30 2 C -2.4071 -3.4124 -0.8267 0
M  V30 3 C -3.7063 -1.8227 0.4931 0
M  V30 4 N -1.7293 -2.2921 -0.6447 0
M  V30 5 N -2.0366 -4.5317 -1.5009 0
M  V30 6 C -2.4621 -1.3796 0.0982 0
M  V30 7 C -1.0124 -4.4772 -2.2853 0
M  V30 8 C -1.9045 -0.0755 0.4377 0
M  V30 9 N -0.6353 -5.5763 -2.9685 0
M  V30 10 N -0.1979 -3.4374 -2.5581 0
M  V30 11 C -0.5103 0.0645 0.5518 0
M  V30 12 C -2.7123 1.0459 0.6421 0
M  V30 13 C 0.0944 1.2936 0.8755 0
M  V30 14 C -2.1336 2.2732 0.9605 0
M  V30 15 N 1.4993 1.3385 0.9723 0
M  V30 16 C -0.745 2.3922 1.0762 0
M  V30 17 C 2.3358 2.4084 1.1275 0
M  V30 18 N 1.9843 3.641 1.1177 0
M  V30 19 N 3.6677 1.9771 1.3285 0
M  V30 20 C 2.9101 4.7184 1.4158 0
M  V30 21 C 4.4914 2.4147 0.369 0
M  V30 22 N 5.2365 2.7353 -0.4562 0
M  V30 23 H -4.4555 -1.3208 1.0876 0
M  V30 24 H 0.262 -5.6463 -3.418 0
M  V30 25 H -1.1712 -6.4219 -2.8269 0
M  V30 26 H -0.4008 -2.5595 -2.0841 0
M  V30 27 H 0.3887 -3.4112 -3.3746 0
M  V30 28 H 0.1109 -0.814 0.3859 0
M  V30 29 H -3.7929 0.9898 0.5417 0
M  V30 30 H -2.7615 3.1475 1.116 0
M  V30 31 H 1.9333 0.4362 0.8652 0
M  V30 32 H -0.3446 3.3691 1.3321 0
M  V30 33 H 3.7918 1.0173 1.6425 0
M  V30 34 H 3.4154 5.0617 0.5084 0
M  V30 35 H 3.6499 4.4523 2.1776 0
M  V30 36 H 2.3448 5.5675 1.8137 0
M  V30 END ATOM
M  V30 BEGIN BOND
M  V30 1 1 1 2
M  V30 2 1 1 3
M  V30 3 2 2 4
M  V30 4 1 2 5
M  V30 5 2 3 6
M  V30 6 2 5 7
M  V30 7 1 6 8
M  V30 8 1 7 9
M  V30 9 1 7 10
M  V30 10 2 8 11
M  V30 11 1 8 12
M  V30 12 1 11 13
M  V30 13 2 12 14
M  V30 14 1 13 15
M  V30 15 2 13 16
M  V30 16 1 15 17
M  V30 17 2 17 18
M  V30 18 1 17 19
M  V30 19 1 18 20
M  V30 20 1 19 21
M  V30 21 3 21 22
M  V30 22 1 4 6
M  V30 23 1 14 16
M  V30 24 1 3 23
M  V30 25 1 9 24
M  V30 26 1 9 25
M  V30 27 1 10 26
M  V30 28 1 10 27
M  V30 29 1 11 28
M  V30 30 1 12 29
M  V30 31 1 14 30
M  V30 32 1 15 31
M  V30 33 1 16 32
M  V30 34 1 19 33
M  V30 35 1 20 34
M  V30 36 1 20 35
M  V30 37 1 20 36
M  V30 END BOND
M  V30 END CTAB
M  END
>  <Column 1>
31

>  <level_0>
34

>  <index>
34

>  <Unnamed: 0>
34

>  <NO.>
35

>  <Name>
chebi: 145922

>  <IUPAC_name>
1-cyano-3-[3-[2-(diaminomethylideneamino)-1-3-thiazol-4-yl]phenyl]-2-methylguanidine

>  <SMILES>
CN=C(NC#N)Nc1cccc(-c2csc(N=C(N)N)n2)c1

>  <CID>
14022519

>  <logBB>
-1.54

>  <BBB+/BBB->
BBB-

>  <Inchi>
InChI=1S/C13H14N8S/c1-17-12(18-7-14)19-9-4-2-3-8(5-9)10-6-22-13(20-10)21-11(15)16/h2-6H-1H3-(H2-17-18-19)(H4-15-16-20-21)

>  <threshold>


>  <reference>
R2|R2|R2|R2|R3|R3|R8|R12|R18|R21|R25|R25|R26|R27|R27|R35|R36|R38|R38|R40|R41|R41|R43|R46|R46|R47|R48|R49|R4|R41|

>  <group>
A

>  <Class>
-1

>  <ABC>
16.44

>  <ABCGG>
13.95

>  <nAcid>
0

>  <nBase>
6

>  <nAromAtom>
11

>  <nAromBond>
11

>  <nAtom>
36

>  <nHeavyAtom>
22

>  <nSpiro>
0

>  <nBridgehead>
0

>  <nHetero>
9

>  <nN>
8

>  <nO>
0

>  <nF>
0

>  <BalabanJ>
1.78

>  <BertzCT>
751.4

>  <nBonds>
37

>  <nBondsO>
23

>  <nBondsS>
23

>  <nBondsD>
2

>  <nBondsT>
1

>  <nBondsA>
11

>  <nBondsM>
14

>  <nBondsKS>
29

>  <nBondsKD>
7

>  <RNCG>
0.15

>  <RPCG>
0.09

>  <FCSP3>
0.08

>  <SZ>
27.33

>  <Sm>
26.17

>  <Sv>
24.04

>  <Sse>
36.6

>  <Sp>
25.6

>  <Si>
41.15

>  <MZ>
0.76

>  <Mm>
0.73

>  <Mv>
0.67

>  <Mse>
1.02

>  <Mp>
0.71

>  <Mi>
1.14

>  <NsCH3>
1

>  <NdCH2>
0

>  <NssCH2>
0

>  <NtCH>
0

>  <NdsCH>
0

>  <NaaCH>
5

>  <NsssCH>
0

>  <NddC>
0

>  <NtsC>
1

>  <NdssC>
2

>  <NaasC>
4

>  <NaaaC>
0

>  <NssssC>
0

>  <NsNH3>
0

>  <NsNH2>
2

>  <NssNH2>
0

>  <NdNH>
0

>  <NssNH>
2

>  <NaaNH>
0

>  <NtN>
1

>  <NsssNH>
0

>  <NdsN>
2

>  <NaaN>
1

>  <NsssN>
0

>  <NddsN>
0

>  <NaasN>
0

>  <NssssN>
0

>  <NsOH>
0

>  <NdO>
0

>  <NssO>
0

>  <NaaO>
0

>  <NsF>
0

>  <NsSiH3>
0

>  <NssSiH2>
0

>  <NsssSiH>
0

>  <NssssSi>
0

>  <NsPH2>
0

>  <NssPH>
0

>  <NsssP>
0

>  <NdsssP>
0

>  <NsssssP>
0

>  <NsSH>
0

>  <NdS>
0

>  <NssS>
0

>  <NaaS>
1

>  <NdssS>
0

>  <NddssS>
0

>  <NsCl>
0

>  <NsBr>
0

>  <NsI>
0

>  <fragCpx>
67.09

>  <fMF>
0.31

>  <nHBAcc>
5

>  <nHBDon>
4

>  <Kier1>
18.34

>  <Kier2>
9.33

>  <Lipinski>
1

>  <GhoseFilter>
1

>  <FilterItLogS>
-3.08

>  <VMcGowan>
229.8

>  <LabuteASA>
130.77

>  <PEOE_VSA1>
16.78

>  <PEOE_VSA2>
10.31

>  <PEOE_VSA3>
4.98

>  <PEOE_VSA4>
10.25

>  <PEOE_VSA5>
11.34

>  <PEOE_VSA6>
12.13

>  <PEOE_VSA7>
12.13

>  <PEOE_VSA8>
23.68

>  <PEOE_VSA9>
5.69

>  <PEOE_VSA10>
0

>  <PEOE_VSA11>
12.15

>  <PEOE_VSA12>
11.09

>  <PEOE_VSA13>
0

>  <SMR_VSA1>
0

>  <SMR_VSA2>
5.26

>  <SMR_VSA3>
10.3

>  <SMR_VSA4>
21.45

>  <SMR_VSA5>
0

>  <SMR_VSA6>
12.36

>  <SMR_VSA7>
29.65

>  <SMR_VSA8>
0

>  <SMR_VSA9>
17.45

>  <SlogP_VSA1>
22.1

>  <SlogP_VSA2>
23.95

>  <SlogP_VSA3>
0

>  <SlogP_VSA4>
11.46

>  <SlogP_VSA5>
0

>  <SlogP_VSA6>
39.63

>  <SlogP_VSA7>
0

>  <SlogP_VSA8>
11.26

>  <SlogP_VSA9>
0

>  <SlogP_VSA10>
10.82

>  <SlogP_VSA11>
0

>  <EState_VSA1>
0

>  <EState_VSA2>
5.96

>  <EState_VSA3>
11.09

>  <EState_VSA4>
16.94

>  <EState_VSA5>
11.34

>  <EState_VSA6>
7.05

>  <EState_VSA7>
35.84

>  <EState_VSA8>
25.6

>  <EState_VSA9>
16.73

>  <EState_VSA10>
0

>  <VSA_EState1>
0

>  <VSA_EState2>
12.18

>  <VSA_EState3>
16.44

>  <VSA_EState4>
13.1

>  <VSA_EState5>
0.34

>  <VSA_EState6>
7.53

>  <VSA_EState7>
1.81

>  <VSA_EState8>
0

>  <VSA_EState9>
1.58

>  <apol>
42.75

>  <bpol>
20.49

>  <nRing>
2

>  <nHRing>
1

>  <naRing>
2

>  <naHRing>
1

>  <nARing 2>
0

>  <nAHRing 2>
0

>  <nFRing>
0

>  <nFHRing>
0

>  <nFaRing>
0

>  <nFaHRing>
0

>  <nFARing 2>
0

>  <nFAHRing 2>
0

>  <nRot>
3

>  <SLogP>
1.18

>  <SMR>
88.75

>  <TopoPSA(NO)>
137.5

>  <TopoPSA>
165.74

>  <JGI1>
0.22

>  <JGI2>
0.05

>  <JGI3>
0.05

>  <JGI4>
0.03

>  <JGI5>
0.02

>  <Diameter>
13

>  <Radius>
7

>  <TMWC10>
117.18

>  <TSRW10>
68.85

>  <MW>
314.11

>  <AMW>
8.73

>  <WPath>
1186

>  <WPol>
28

>  <Zagreb1>
106

>  <Zagreb2>
119

>  <mZagreb2>
5.11

>  <yes>


>  <nAR-cont>
0.336376

>  <nHA-cont>
0.983774276

>  <MWHBN>
0.507810443

>  <MWHBN-cont>
0

>  <TPSA-cont>
0

>  <pka_cont>
0.97

>  <yes.1>


>  <BBB_SCORE>
1.805150276

>  <MMFF94 Energy>
-207.53

$$$$
Compound 22
Actelion Java MolfileCreator 2.0

  0  0  0  0  0  0              0 V3000
M  V30 BEGIN CTAB
M  V30 COUNTS 27 28 0 0 0
M  V30 BEGIN ATOM
M  V30 1 S 2.0779 -2.3179 1.5181 0
M  V30 2 C 2.2052 -0.6017 1.3132 0
M  V30 3 C 0.5621 -2.3087 0.7251 0
M  V30 4 N 1.1711 -0.062 0.6911 0
M  V30 5 N 3.3213 0.0015 1.7987 0
M  V30 6 C 0.2366 -1.024 0.345 0
M  V30 7 C 3.4859 1.2671 1.6012 0
M  V30 8 C -0.9947 -0.6564 -0.3449 0
M  V30 9 N 4.5894 1.879 2.0761 0
M  V30 10 N 2.687 2.1439 0.9603 0
M  V30 11 C -1.6282 -1.5334 -1.2412 0
M  V30 12 C -1.5535 0.6145 -0.1182 0
M  V30 13 C -2.7992 -1.1338 -1.8794 0
M  V30 14 C -2.7308 1.0051 -0.7612 0
M  V30 15 O -3.4546 -1.9466 -2.7638 0
M  V30 16 C -3.3441 0.1242 -1.6366 0
M  V30 17 O -4.4935 0.5034 -2.2676 0
M  V30 18 H 0.003 -3.2236 0.5984 0
M  V30 19 H 4.6575 2.8806 2.1431 0
M  V30 20 H 5.2505 1.3151 2.5927 0
M  V30 21 H 1.8282 1.7724 0.5579 0
M  V30 22 H 3.0071 3.0438 0.6462 0
M  V30 23 H -1.2015 -2.5088 -1.4491 0
M  V30 24 H -1.0742 1.3072 0.5713 0
M  V30 25 H -3.1612 1.985 -0.5795 0
M  V30 26 H -2.9504 -2.7732 -2.854 0
M  V30 27 H -4.7331 -0.2636 -2.8245 0
M  V30 END ATOM
M  V30 BEGIN BOND
M  V30 1 1 1 2
M  V30 2 1 1 3
M  V30 3 2 2 4
M  V30 4 1 2 5
M  V30 5 2 3 6
M  V30 6 2 5 7
M  V30 7 1 6 8
M  V30 8 1 7 9
M  V30 9 1 7 10
M  V30 10 2 8 11
M  V30 11 1 8 12
M  V30 12 1 11 13
M  V30 13 2 12 14
M  V30 14 1 13 15
M  V30 15 2 13 16
M  V30 16 1 16 17
M  V30 17 1 4 6
M  V30 18 1 14 16
M  V30 19 1 3 18
M  V30 20 1 9 19
M  V30 21 1 9 20
M  V30 22 1 10 21
M  V30 23 1 10 22
M  V30 24 1 11 23
M  V30 25 1 12 24
M  V30 26 1 14 25
M  V30 27 1 15 26
M  V30 28 1 17 27
M  V30 END BOND
M  V30 END CTAB
M  END
>  <Column 1>
32

>  <level_0>
35

>  <index>
35

>  <Unnamed: 0>
35

>  <NO.>
36

>  <Name>
guanidinothiazol analogue 17 ac1lbibi -- pubmed

>  <IUPAC_name>
2-[4-(3-4-dihydroxyphenyl)-1-3-thiazol-2-yl]guanidine

>  <SMILES>
NC(N)=Nc1nc(-c2ccc(O)c(O)c2)cs1

>  <CID>
536278

>  <logBB>
-1.54

>  <BBB+/BBB->
BBB-

>  <Inchi>
InChI=1S/C10H10N4O2S/c11-9(12)14-10-13-6(4-17-10)5-1-2-7(15)8(16)3-5/h1-4-15-16H-(H4-11-12-13-14)

>  <threshold>


>  <reference>
R47|

>  <group>
A

>  <Class>
-1

>  <ABC>
13.08

>  <ABCGG>
11.4

>  <nAcid>
0

>  <nBase>
3

>  <nAromAtom>
11

>  <nAromBond>
11

>  <nAtom>
27

>  <nHeavyAtom>
17

>  <nSpiro>
0

>  <nBridgehead>
0

>  <nHetero>
7

>  <nN>
4

>  <nO>
2

>  <nF>
0

>  <BalabanJ>
1.8

>  <BertzCT>
575.43

>  <nBonds>
28

>  <nBondsO>
18

>  <nBondsS>
16

>  <nBondsD>
1

>  <nBondsT>
0

>  <nBondsA>
11

>  <nBondsM>
12

>  <nBondsKS>
22

>  <nBondsKD>
6

>  <RNCG>
0.22

>  <RPCG>
0.13

>  <FCSP3>
0

>  <SZ>
21.67

>  <Sm>
20.84

>  <Sv>
18.36

>  <Sse>
27.83

>  <Sp>
19.32

>  <Si>
30.58

>  <MZ>
0.8

>  <Mm>
0.77

>  <Mv>
0.68

>  <Mse>
1.03

>  <Mp>
0.72

>  <Mi>
1.13

>  <NsCH3>
0

>  <NdCH2>
0

>  <NssCH2>
0

>  <NtCH>
0

>  <NdsCH>
0

>  <NaaCH>
4

>  <NsssCH>
0

>  <NddC>
0

>  <NtsC>
0

>  <NdssC>
1

>  <NaasC>
5

>  <NaaaC>
0

>  <NssssC>
0

>  <NsNH3>
0

>  <NsNH2>
2

>  <NssNH2>
0

>  <NdNH>
0

>  <NssNH>
0

>  <NaaNH>
0

>  <NtN>
0

>  <NsssNH>
0

>  <NdsN>
1

>  <NaaN>
1

>  <NsssN>
0

>  <NddsN>
0

>  <NaasN>
0

>  <NssssN>
0

>  <NsOH>
2

>  <NdO>
0

>  <NssO>
0

>  <NaaO>
0

>  <NsF>
0

>  <NsSiH3>
0

>  <NssSiH2>
0

>  <NsssSiH>
0

>  <NssssSi>
0

>  <NsPH2>
0

>  <NssPH>
0

>  <NsssP>
0

>  <NdsssP>
0

>  <NsssssP>
0

>  <NsSH>
0

>  <NdS>
0

>  <NssS>
0

>  <NaaS>
1

>  <NdssS>
0

>  <NddssS>
0

>  <NsCl>
0

>  <NsBr>
0

>  <NsI>
0

>  <fragCpx>
52.07

>  <fMF>
0.41

>  <nHBAcc>
5

>  <nHBDon>
4

>  <Kier1>
13.43

>  <Kier2>
5.76

>  <Lipinski>
1

>  <GhoseFilter>
1

>  <FilterItLogS>
-1.44

>  <VMcGowan>
172.25

>  <LabuteASA>
100.88

>  <PEOE_VSA1>
21.68

>  <PEOE_VSA2>
0

>  <PEOE_VSA3>
4.98

>  <PEOE_VSA4>
4.99

>  <PEOE_VSA5>
11.34

>  <PEOE_VSA6>
0

>  <PEOE_VSA7>
18.2

>  <PEOE_VSA8>
10.94

>  <PEOE_VSA9>
5.69

>  <PEOE_VSA10>
0

>  <PEOE_VSA11>
17.46

>  <PEOE_VSA12>
5.13

>  <PEOE_VSA13>
0

>  <SMR_VSA1>
10.21

>  <SMR_VSA2>
0

>  <SMR_VSA3>
4.98

>  <SMR_VSA4>
16.46

>  <SMR_VSA5>
0

>  <SMR_VSA6>
0

>  <SMR_VSA7>
23.58

>  <SMR_VSA8>
0

>  <SMR_VSA9>
22.76

>  <SlogP_VSA1>
11.47

>  <SlogP_VSA2>
21.16

>  <SlogP_VSA3>
0

>  <SlogP_VSA4>
0

>  <SlogP_VSA5>
0

>  <SlogP_VSA6>
28.57

>  <SlogP_VSA7>
0

>  <SlogP_VSA8>
11.26

>  <SlogP_VSA9>
0

>  <SlogP_VSA10>
5.13

>  <SlogP_VSA11>
11.5

>  <EState_VSA1>
0

>  <EState_VSA2>
17.46

>  <EState_VSA3>
16.39

>  <EState_VSA4>
0

>  <EState_VSA5>
23.47

>  <EState_VSA6>
11.45

>  <EState_VSA7>
0

>  <EState_VSA8>
9.98

>  <EState_VSA9>
11.47

>  <EState_VSA10>
10.21

>  <VSA_EState1>
0

>  <VSA_EState2>
7.98

>  <VSA_EState3>
20.76

>  <VSA_EState4>
11.78

>  <VSA_EState5>
-0.42

>  <VSA_EState6>
4.46

>  <VSA_EState7>
0

>  <VSA_EState8>
0

>  <VSA_EState9>
0

>  <apol>
32.27

>  <bpol>
13.63

>  <nRing>
2

>  <nHRing>
1

>  <naRing>
2

>  <naHRing>
1

>  <nARing 2>
0

>  <nAHRing 2>
0

>  <nFRing>
0

>  <nFHRing>
0

>  <nFaRing>
0

>  <nFaHRing>
0

>  <nFARing 2>
0

>  <nFAHRing 2>
0

>  <nRot>
2

>  <SLogP>
1.13

>  <SMR>
66.35

>  <TopoPSA(NO)>
117.75

>  <TopoPSA>
145.99

>  <JGI1>
0.25

>  <JGI2>
0.08

>  <JGI3>
0.05

>  <JGI4>
0.05

>  <JGI5>
0.03

>  <Diameter>
10

>  <Radius>
5

>  <TMWC10>
105.74

>  <TSRW10>
63.02

>  <MW>
250.05

>  <AMW>
9.26

>  <WPath>
553

>  <WPol>
22

>  <Zagreb1>
86

>  <Zagreb2>
98

>  <mZagreb2>
3.72

>  <yes>


>  <nAR-cont>
0.336376

>  <nHA-cont>
0.976740822

>  <MWHBN>
0.569153066

>  <MWHBN-cont>
0

>  <TPSA-cont>
0

>  <pka_cont>
0.97

>  <yes.1>


>  <BBB_SCORE>
1.798116822

>  <MMFF94 Energy>
-114.25

$$$$
Compound 23
Actelion Java MolfileCreator 2.0

  0  0  0  0  0  0              0 V3000
M  V30 BEGIN CTAB
M  V30 COUNTS 41 41 0 0 0
M  V30 BEGIN ATOM
M  V30 1 O -0.7815 2.8159 -2.581 0
M  V30 2 C 0.1318 2.4807 -1.8255 0
M  V30 3 C 0.0394 1.1479 -1.154 0
M  V30 4 C 1.3472 3.3597 -1.5654 0
M  V30 5 C -1.1218 0.3706 -1.2946 0
M  V30 6 C 1.0916 0.6422 -0.382 0
M  V30 7 C 1.219 4.7742 -2.1582 0
M  V30 8 O -2.2053 0.7691 -2.0358 0
M  V30 9 C -1.239 -0.8759 -0.6739 0
M  V30 10 C 0.9715 -0.6069 0.2374 0
M  V30 11 C 0.2296 5.6278 -1.36 0
M  V30 12 C 2.5872 5.4591 -2.1806 0
M  V30 13 C -0.1901 -1.37 0.0974 0
M  V30 14 O -0.1678 -2.5661 0.7579 0
M  V30 15 C -1.3263 -3.3926 0.6473 0
M  V30 16 C -1.104 -4.6742 1.4502 0
M  V30 17 C -0.9103 -4.3952 2.9454 0
M  V30 18 C -0.8118 -5.6779 3.7624 0
M  V30 19 O 0.317 -6.4333 3.3495 0
M  V30 20 H 2.2079 2.855 -2.0208 0
M  V30 21 H 1.5128 3.4357 -0.4846 0
M  V30 22 H 2.0197 1.1883 -0.2448 0
M  V30 23 H 0.8598 4.7073 -3.1927 0
M  V30 24 H -1.982 1.6312 -2.456 0
M  V30 25 H -2.1599 -1.4308 -0.8173 0
M  V30 26 H 1.7944 -0.9933 0.836 0
M  V30 27 H -0.7707 5.1847 -1.3572 0
M  V30 28 H 0.5515 5.74 -0.3189 0
M  V30 29 H 0.1452 6.6295 -1.7953 0
M  V30 30 H 3.2979 4.8886 -2.7877 0
M  V30 31 H 3.0019 5.5528 -1.171 0
M  V30 32 H 2.5129 6.4633 -2.6114 0
M  V30 33 H -1.4921 -3.6628 -0.4023 0
M  V30 34 H -2.2071 -2.8677 1.037 0
M  V30 35 H -1.9642 -5.338 1.3058 0
M  V30 36 H -0.2169 -5.1894 1.063 0
M  V30 37 H -1.7471 -3.7959 3.3223 0
M  V30 38 H 0.0067 -3.8106 3.0853 0
M  V30 39 H -0.6972 -5.4372 4.8241 0
M  V30 40 H -1.7102 -6.2908 3.6371 0
M  V30 41 H 0.3546 -7.2238 3.9144 0
M  V30 END ATOM
M  V30 BEGIN BOND
M  V30 1 2 1 2
M  V30 2 1 2 3
M  V30 3 1 2 4
M  V30 4 2 3 5
M  V30 5 1 3 6
M  V30 6 1 4 7
M  V30 7 1 5 8
M  V30 8 1 5 9
M  V30 9 2 6 10
M  V30 10 1 7 11
M  V30 11 1 7 12
M  V30 12 2 9 13
M  V30 13 1 13 14
M  V30 14 1 14 15
M  V30 15 1 15 16
M  V30 16 1 16 17
M  V30 17 1 17 18
M  V30 18 1 18 19
M  V30 19 1 10 13
M  V30 20 1 4 20
M  V30 21 1 4 21
M  V30 22 1 6 22
M  V30 23 1 7 23
M  V30 24 1 8 24
M  V30 25 1 9 25
M  V30 26 1 10 26
M  V30 27 1 11 27
M  V30 28 1 11 28
M  V30 29 1 11 29
M  V30 30 1 12 30
M  V30 31 1 12 31
M  V30 32 1 12 32
M  V30 33 1 15 33
M  V30 34 1 15 34
M  V30 35 1 16 35
M  V30 36 1 16 36
M  V30 37 1 17 37
M  V30 38 1 17 38
M  V30 39 1 18 39
M  V30 40 1 18 40
M  V30 41 1 19 41
M  V30 END BOND
M  V30 END CTAB
M  END
>  <Column 1>
33

>  <level_0>
36

>  <index>
36

>  <Unnamed: 0>
36

>  <NO.>
37

>  <Name>
cube-2

>  <IUPAC_name>


>  <SMILES>
CC(C)CC(=O)c1ccc(OCCCCO)cc1O

>  <CID>


>  <logBB>
-1.52

>  <BBB+/BBB->
BBB-

>  <Inchi>
InChI=1S/C15H22O4/c1-11(2)9-14(17)13-6-5-12(10-15(13)18)19-8-4-3-7-16/h5-6-10-11-16-18H-3-4-7-9H2-1-2H3

>  <threshold>


>  <reference>
R18|R26|R27|

>  <group>
A

>  <Class>
-1

>  <ABC>
13.79

>  <ABCGG>
11.86

>  <nAcid>
0

>  <nBase>
0

>  <nAromAtom>
6

>  <nAromBond>
6

>  <nAtom>
41

>  <nHeavyAtom>
19

>  <nSpiro>
0

>  <nBridgehead>
0

>  <nHetero>
4

>  <nN>
0

>  <nO>
4

>  <nF>
0

>  <BalabanJ>
2.26

>  <BertzCT>
412.61

>  <nBonds>
41

>  <nBondsO>
19

>  <nBondsS>
34

>  <nBondsD>
1

>  <nBondsT>
0

>  <nBondsA>
6

>  <nBondsM>
7

>  <nBondsKS>
37

>  <nBondsKD>
4

>  <RNCG>
0.26

>  <RPCG>
0.15

>  <FCSP3>
0.53

>  <SZ>
24

>  <Sm>
22.17

>  <Sv>
23.82

>  <Sse>
41.09

>  <Sp>
25.71

>  <Si>
46.41

>  <MZ>
0.59

>  <Mm>
0.54

>  <Mv>
0.58

>  <Mse>
1

>  <Mp>
0.63

>  <Mi>
1.13

>  <NsCH3>
2

>  <NdCH2>
0

>  <NssCH2>
5

>  <NtCH>
0

>  <NdsCH>
0

>  <NaaCH>
3

>  <NsssCH>
1

>  <NddC>
0

>  <NtsC>
0

>  <NdssC>
1

>  <NaasC>
3

>  <NaaaC>
0

>  <NssssC>
0

>  <NsNH3>
0

>  <NsNH2>
0

>  <NssNH2>
0

>  <NdNH>
0

>  <NssNH>
0

>  <NaaNH>
0

>  <NtN>
0

>  <NsssNH>
0

>  <NdsN>
0

>  <NaaN>
0

>  <NsssN>
0

>  <NddsN>
0

>  <NaasN>
0

>  <NssssN>
0

>  <NsOH>
2

>  <NdO>
1

>  <NssO>
1

>  <NaaO>
0

>  <NsF>
0

>  <NsSiH3>
0

>  <NssSiH2>
0

>  <NsssSiH>
0

>  <NssssSi>
0

>  <NsPH2>
0

>  <NssPH>
0

>  <NsssP>
0

>  <NdsssP>
0

>  <NsssssP>
0

>  <NsSH>
0

>  <NdS>
0

>  <NssS>
0

>  <NaaS>
0

>  <NdssS>
0

>  <NddssS>
0

>  <NsCl>
0

>  <NsBr>
0

>  <NsI>
0

>  <fragCpx>
19.04

>  <fMF>
0.15

>  <nHBAcc>
4

>  <nHBDon>
2

>  <Kier1>
17.05

>  <Kier2>
9.03

>  <Lipinski>
1

>  <GhoseFilter>
1

>  <FilterItLogS>
-3.33

>  <VMcGowan>
217.63

>  <LabuteASA>
113.58

>  <PEOE_VSA1>
14.95

>  <PEOE_VSA2>
4.79

>  <PEOE_VSA3>
0

>  <PEOE_VSA4>
0

>  <PEOE_VSA5>
0

>  <PEOE_VSA6>
13.85

>  <PEOE_VSA7>
30.89

>  <PEOE_VSA8>
19.09

>  <PEOE_VSA9>
12.17

>  <PEOE_VSA10>
11.5

>  <PEOE_VSA11>
5.78

>  <PEOE_VSA12>
0

>  <PEOE_VSA13>
0

>  <SMR_VSA1>
19.74

>  <SMR_VSA2>
0

>  <SMR_VSA3>
0

>  <SMR_VSA4>
5.92

>  <SMR_VSA5>
33.11

>  <SMR_VSA6>
13.21

>  <SMR_VSA7>
23.76

>  <SMR_VSA8>
0

>  <SMR_VSA9>
11.5

>  <SlogP_VSA1>
4.74

>  <SlogP_VSA2>
29.21

>  <SlogP_VSA3>
0

>  <SlogP_VSA4>
5.92

>  <SlogP_VSA5>
43.47

>  <SlogP_VSA6>
18.2

>  <SlogP_VSA7>
0

>  <SlogP_VSA8>
0

>  <SlogP_VSA9>
0

>  <SlogP_VSA10>
0

>  <SlogP_VSA11>
11.5

>  <EState_VSA1>
0

>  <EState_VSA2>
24.06

>  <EState_VSA3>
30.76

>  <EState_VSA4>
6.42

>  <EState_VSA5>
6.07

>  <EState_VSA6>
12.13

>  <EState_VSA7>
13.85

>  <EState_VSA8>
0

>  <EState_VSA9>
9.84

>  <EState_VSA10>
9.9

>  <VSA_EState1>
5.42

>  <VSA_EState2>
11.86

>  <VSA_EState3>
18.48

>  <VSA_EState4>
0.34

>  <VSA_EState5>
0.71

>  <VSA_EState6>
4.75

>  <VSA_EState7>
1.87

>  <VSA_EState8>
4.57

>  <VSA_EState9>
0

>  <apol>
42.93

>  <bpol>
24.67

>  <nRing>
1

>  <nHRing>
0

>  <naRing>
1

>  <naHRing>
0

>  <nARing 2>
0

>  <nAHRing 2>
0

>  <nFRing>
0

>  <nFHRing>
0

>  <nFaRing>
0

>  <nFaHRing>
0

>  <nFARing 2>
0

>  <nFAHRing 2>
0

>  <nRot>
8

>  <SLogP>
2.77

>  <SMR>
73.71

>  <TopoPSA(NO)>
66.76

>  <TopoPSA>
66.76

>  <JGI1>
0.21

>  <JGI2>
0.07

>  <JGI3>
0.05

>  <JGI4>
0.03

>  <JGI5>
0.04

>  <Diameter>
13

>  <Radius>
7

>  <TMWC10>
107.56

>  <TSRW10>
51.19

>  <MW>
266.15

>  <AMW>
6.49

>  <WPath>
836

>  <WPol>
24

>  <Zagreb1>
86

>  <Zagreb2>
94

>  <mZagreb2>
4.47

>  <yes>


>  <nAR-cont>
0.336376

>  <nHA-cont>
0.998649058

>  <MWHBN>
0.367779921

>  <MWHBN-cont>
0.602476298

>  <TPSA-cont>
0.533973745

>  <pka_cont>
0.97

>  <yes.1>


>  <BBB_SCORE>
3.791686994

>  <MMFF94 Energy>
34.756

$$$$
Compound 24
Actelion Java MolfileCreator 2.0

  0  0  0  0  0  0              0 V3000
M  V30 BEGIN CTAB
M  V30 COUNTS 61 62 0 0 0
M  V30 BEGIN ATOM
M  V30 1 O -7.8184 3.5479 -8.0561 0
M  V30 2 C -7.4931 4.0738 -7.0056 0
M  V30 3 O -8.0113 5.2624 -6.6418 0
M  V30 4 C -6.546 3.531 -5.9742 0
M  V30 5 C -5.7908 2.3187 -6.5152 0
M  V30 6 C -4.8356 1.7552 -5.4911 0
M  V30 7 C -5.2402 0.9303 -4.4359 0
M  V30 8 C -3.4787 2.1101 -5.5647 0
M  V30 9 O -6.5319 0.5213 -4.2601 0
M  V30 10 C -4.3246 0.4809 -3.4842 0
M  V30 11 C -2.5568 1.6518 -4.6154 0
M  V30 12 C -2.9777 0.8347 -3.5684 0
M  V30 13 O -2.1869 0.3245 -2.5764 0
M  V30 14 C -0.7944 0.6322 -2.6291 0
M  V30 15 C -0.1203 -0.0464 -1.4389 0
M  V30 16 C 1.3916 0.183 -1.4425 0
M  V30 17 C 2.0784 -0.489 -0.2541 0
M  V30 18 O 1.6351 0.1417 0.9461 0
M  V30 19 C 2.1348 -0.3299 2.1272 0
M  V30 20 C 1.6638 0.3259 3.265 0
M  V30 21 C 3.0498 -1.3719 2.274 0
M  V30 22 C 2.0985 -0.0566 4.534 0
M  V30 23 C 3.4832 -1.763 3.55 0
M  V30 24 O 1.5886 0.6623 5.5841 0
M  V30 25 C 3.0027 -1.1173 4.6963 0
M  V30 26 C 3.4333 -1.511 6.0719 0
M  V30 27 O 3.2087 -0.7299 7.0005 0
M  V30 28 C 4.0999 -2.8503 6.3308 0
M  V30 29 C 5.5416 -2.686 6.8323 0
M  V30 30 C 6.0646 -4.0191 7.37 0
M  V30 31 C 6.4703 -2.169 5.7324 0
M  V30 32 H -8.6147 5.5029 -7.3761 0
M  V30 33 H -7.1277 3.2642 -5.085 0
M  V30 34 H -5.8357 4.3212 -5.7038 0
M  V30 35 H -6.4841 1.5367 -6.8482 0
M  V30 36 H -5.2369 2.603 -7.4201 0
M  V30 37 H -3.1239 2.7572 -6.365 0
M  V30 38 H -7.0388 0.6791 -5.0703 0
M  V30 39 H -4.6649 -0.1538 -2.6699 0
M  V30 40 H -1.5218 1.9584 -4.7216 0
M  V30 41 H -0.6444 1.7166 -2.5624 0
M  V30 42 H -0.3616 0.2498 -3.5614 0
M  V30 43 H -0.5678 0.3305 -0.5109 0
M  V30 44 H -0.3385 -1.1215 -1.4619 0
M  V30 45 H 1.5887 1.2616 -1.4125 0
M  V30 46 H 1.82 -0.2089 -2.3722 0
M  V30 47 H 1.8294 -1.557 -0.2417 0
M  V30 48 H 3.1624 -0.3625 -0.3598 0
M  V30 49 H 0.9559 1.1453 3.1649 0
M  V30 50 H 3.451 -1.9016 1.4156 0
M  V30 51 H 4.211 -2.5659 3.6067 0
M  V30 52 H 2.0559 0.3767 6.4019 0
M  V30 53 H 4.0534 -3.5154 5.4655 0
M  V30 54 H 3.4908 -3.3412 7.1019 0
M  V30 55 H 5.5573 -1.9602 7.6556 0
M  V30 56 H 5.4364 -4.3809 8.1911 0
M  V30 57 H 6.0762 -4.7862 6.5881 0
M  V30 58 H 7.0845 -3.9109 7.7541 0
M  V30 59 H 6.1547 -1.1825 5.3785 0
M  V30 60 H 6.4893 -2.85 4.8749 0
M  V30 61 H 7.4952 -2.0705 6.1062 0
M  V30 END ATOM
M  V30 BEGIN BOND
M  V30 1 2 1 2
M  V30 2 1 2 3
M  V30 3 1 2 4
M  V30 4 1 4 5
M  V30 5 1 5 6
M  V30 6 2 6 7
M  V30 7 1 6 8
M  V30 8 1 7 9
M  V30 9 1 7 10
M  V30 10 2 8 11
M  V30 11 2 10 12
M  V30 12 1 12 13
M  V30 13 1 13 14
M  V30 14 1 14 15
M  V30 15 1 15 16
M  V30 16 1 16 17
M  V30 17 1 17 18
M  V30 18 1 18 19
M  V30 19 2 19 20
M  V30 20 1 19 21
M  V30 21 1 20 22
M  V30 22 2 21 23
M  V30 23 1 22 24
M  V30 24 2 22 25
M  V30 25 1 25 26
M  V30 26 2 26 27
M  V30 27 1 26 28
M  V30 28 1 28 29
M  V30 29 1 29 30
M  V30 30 1 29 31
M  V30 31 1 11 12
M  V30 32 1 23 25
M  V30 33 1 3 32
M  V30 34 1 4 33
M  V30 35 1 4 34
M  V30 36 1 5 35
M  V30 37 1 5 36
M  V30 38 1 8 37
M  V30 39 1 9 38
M  V30 40 1 10 39
M  V30 41 1 11 40
M  V30 42 1 14 41
M  V30 43 1 14 42
M  V30 44 1 15 43
M  V30 45 1 15 44
M  V30 46 1 16 45
M  V30 47 1 16 46
M  V30 48 1 17 47
M  V30 49 1 17 48
M  V30 50 1 20 49
M  V30 51 1 21 50
M  V30 52 1 23 51
M  V30 53 1 24 52
M  V30 54 1 28 53
M  V30 55 1 28 54
M  V30 56 1 29 55
M  V30 57 1 30 56
M  V30 58 1 30 57
M  V30 59 1 30 58
M  V30 60 1 31 59
M  V30 61 1 31 60
M  V30 62 1 31 61
M  V30 END BOND
M  V30 END CTAB
M  END
>  <Column 1>
34

>  <level_0>
37

>  <index>
37

>  <Unnamed: 0>
37

>  <NO.>
38

>  <Name>
cube-6

>  <IUPAC_name>


>  <SMILES>
CC(C)CC(=O)c1ccc(OCCCCOc2ccc(CCC(=O)O)c(O)c2)cc1O

>  <CID>


>  <logBB>
-1.52

>  <BBB+/BBB->
BBB-

>  <Inchi>
InChI=1S/C24H30O7/c1-16(2)13-22(26)20-9-8-19(15-23(20)27)31-12-4-3-11-30-18-7-5-17(21(25)14-18)6-10-24(28)29/h5-7-9-14-16-25-27H-3-4-6-10-13H2-1-2H3-(H-28-29)

>  <threshold>


>  <reference>
R18|R26|R27|

>  <group>
A

>  <Class>
-1

>  <ABC>
23.27

>  <ABCGG>
17.04

>  <nAcid>
1

>  <nBase>
0

>  <nAromAtom>
12

>  <nAromBond>
12

>  <nAtom>
61

>  <nHeavyAtom>
31

>  <nSpiro>
0

>  <nBridgehead>
0

>  <nHetero>
7

>  <nN>
0

>  <nO>
7

>  <nF>
0

>  <BalabanJ>
1.51

>  <BertzCT>
889.49

>  <nBonds>
62

>  <nBondsO>
32

>  <nBondsS>
48

>  <nBondsD>
2

>  <nBondsT>
0

>  <nBondsA>
12

>  <nBondsM>
14

>  <nBondsKS>
54

>  <nBondsKD>
8

>  <RNCG>
0.15

>  <RPCG>
0.09

>  <FCSP3>
0.42

>  <SZ>
38.33

>  <Sm>
35.84

>  <Sv>
37.13

>  <Sse>
61.63

>  <Sp>
39.34

>  <Si>
68.7

>  <MZ>
0.63

>  <Mm>
0.59

>  <Mv>
0.61

>  <Mse>
1.01

>  <Mp>
0.64

>  <Mi>
1.13

>  <NsCH3>
2

>  <NdCH2>
0

>  <NssCH2>
7

>  <NtCH>
0

>  <NdsCH>
0

>  <NaaCH>
6

>  <NsssCH>
1

>  <NddC>
0

>  <NtsC>
0

>  <NdssC>
2

>  <NaasC>
6

>  <NaaaC>
0

>  <NssssC>
0

>  <NsNH3>
0

>  <NsNH2>
0

>  <NssNH2>
0

>  <NdNH>
0

>  <NssNH>
0

>  <NaaNH>
0

>  <NtN>
0

>  <NsssNH>
0

>  <NdsN>
0

>  <NaaN>
0

>  <NsssN>
0

>  <NddsN>
0

>  <NaasN>
0

>  <NssssN>
0

>  <NsOH>
3

>  <NdO>
2

>  <NssO>
2

>  <NaaO>
0

>  <NsF>
0

>  <NsSiH3>
0

>  <NssSiH2>
0

>  <NsssSiH>
0

>  <NssssSi>
0

>  <NsPH2>
0

>  <NssPH>
0

>  <NsssP>
0

>  <NdsssP>
0

>  <NsssssP>
0

>  <NsSH>
0

>  <NdS>
0

>  <NssS>
0

>  <NaaS>
0

>  <NdssS>
0

>  <NddssS>
0

>  <NsCl>
0

>  <NsBr>
0

>  <NsI>
0

>  <fragCpx>
94.07

>  <fMF>
0.3

>  <nHBAcc>
6

>  <nHBDon>
3

>  <Kier1>
27.25

>  <Kier2>
14.3

>  <Lipinski>
1

>  <GhoseFilter>
1

>  <FilterItLogS>
-5.21

>  <VMcGowan>
333.99

>  <LabuteASA>
181.8

>  <PEOE_VSA1>
24.79

>  <PEOE_VSA2>
9.59

>  <PEOE_VSA3>
0

>  <PEOE_VSA4>
0

>  <PEOE_VSA5>
0

>  <PEOE_VSA6>
19.91

>  <PEOE_VSA7>
48.94

>  <PEOE_VSA8>
24.97

>  <PEOE_VSA9>
18.78

>  <PEOE_VSA10>
23

>  <PEOE_VSA11>
5.78

>  <PEOE_VSA12>
0

>  <PEOE_VSA13>
0

>  <SMR_VSA1>
34.38

>  <SMR_VSA2>
0

>  <SMR_VSA3>
0

>  <SMR_VSA4>
5.92

>  <SMR_VSA5>
45.95

>  <SMR_VSA6>
13.21

>  <SMR_VSA7>
47.53

>  <SMR_VSA8>
0

>  <SMR_VSA9>
23

>  <SlogP_VSA1>
9.47

>  <SlogP_VSA2>
40.29

>  <SlogP_VSA3>
11.22

>  <SlogP_VSA4>
5.92

>  <SlogP_VSA5>
55.45

>  <SlogP_VSA6>
36.4

>  <SlogP_VSA7>
0

>  <SlogP_VSA8>
0

>  <SlogP_VSA9>
0

>  <SlogP_VSA10>
0

>  <SlogP_VSA11>
23

>  <EState_VSA1>
5.97

>  <EState_VSA2>
36.04

>  <EState_VSA3>
42.26

>  <EState_VSA4>
12.84

>  <EState_VSA5>
12.13

>  <EState_VSA6>
24.27

>  <EState_VSA7>
13.85

>  <EState_VSA8>
0

>  <EState_VSA9>
14.58

>  <EState_VSA10>
19.8

>  <VSA_EState1>
11.22

>  <VSA_EState2>
22.7

>  <VSA_EState3>
28.74

>  <VSA_EState4>
0.88

>  <VSA_EState5>
0.2

>  <VSA_EState6>
9.58

>  <VSA_EState7>
2.05

>  <VSA_EState8>
4.78

>  <VSA_EState9>
0

>  <apol>
65.7

>  <bpol>
35.3

>  <nRing>
2

>  <nHRing>
0

>  <naRing>
2

>  <naHRing>
0

>  <nARing 2>
0

>  <nAHRing 2>
0

>  <nFRing>
0

>  <nFHRing>
0

>  <nFaRing>
0

>  <nFaHRing>
0

>  <nFARing 2>
0

>  <nFAHRing 2>
0

>  <nRot>
13

>  <SLogP>
4.58

>  <SMR>
116.18

>  <TopoPSA(NO)>
113.29

>  <TopoPSA>
113.29

>  <JGI1>
0.22

>  <JGI2>
0.07

>  <JGI3>
0.04

>  <JGI4>
0.04

>  <JGI5>
0.03

>  <Diameter>
21

>  <Radius>
11

>  <TMWC10>
137.67

>  <TSRW10>
65.97

>  <MW>
430.2

>  <AMW>
7.05

>  <WPath>
3724

>  <WPol>
42

>  <Zagreb1>
148

>  <Zagreb2>
164

>  <mZagreb2>
7

>  <yes>


>  <nAR-cont>
0.336376

>  <nHA-cont>
0.702745138

>  <MWHBN>
0.433917641

>  <MWHBN-cont>
0.344940645

>  <TPSA-cont>
0.209165451

>  <pka_cont>
0.97

>  <yes.1>


>  <BBB_SCORE>
2.459863007

>  <MMFF94 Energy>
21.604

$$$$
Compound 25
Actelion Java MolfileCreator 2.0

  0  0  0  0  0  0              0 V3000
M  V30 BEGIN CTAB
M  V30 COUNTS 56 58 0 0 0
M  V30 BEGIN ATOM
M  V30 1 O -4.2954 -6.2889 -8.2054 0
M  V30 2 C -4.335 -6.1056 -6.9943 0
M  V30 3 O -3.916 -4.919 -6.4082 0
M  V30 4 C -4.8382 -7.1554 -6.0909 0
M  V30 5 C -3.9733 -4.7346 -5.0112 0
M  V30 6 C -4.8984 -6.9939 -4.7655 0
M  V30 7 C -4.4542 -5.7415 -4.1772 0
M  V30 8 C -3.5303 -3.5081 -4.513 0
M  V30 9 C -4.4927 -5.5116 -2.8034 0
M  V30 10 C -3.5688 -3.2817 -3.139 0
M  V30 11 C -4.0518 -4.286 -2.2912 0
M  V30 12 O -3.1742 -2.1394 -2.4998 0
M  V30 13 C -2.6267 -1.0973 -3.3067 0
M  V30 14 C -2.2268 0.0656 -2.3994 0
M  V30 15 C -1.1065 -0.3167 -1.4313 0
M  V30 16 C -0.7115 0.8561 -0.5373 0
M  V30 17 O 0.3495 0.4197 0.3122 0
M  V30 18 C 0.8523 1.3263 1.2038 0
M  V30 19 C 1.8794 0.8351 2.0168 0
M  V30 20 C 0.4251 2.647 1.3596 0
M  V30 21 C 2.4755 1.6513 2.9757 0
M  V30 22 C 1.0346 3.4743 2.3091 0
M  V30 23 O 3.4244 1.0728 3.7701 0
M  V30 24 C 2.0748 2.9808 3.1026 0
M  V30 25 C 2.7248 3.9141 4.043 0
M  V30 26 O 2.0395 4.4536 4.9058 0
M  V30 27 C 4.1991 4.2112 3.8249 0
M  V30 28 C 4.9242 4.6182 5.1171 0
M  V30 29 C 5.0464 3.4408 6.0867 0
M  V30 30 C 6.3142 5.1651 4.7872 0
M  V30 31 H -5.1591 -8.0727 -6.5693 0
M  V30 32 H -5.2724 -7.7803 -4.1195 0
M  V30 33 H -3.1692 -2.7646 -5.2138 0
M  V30 34 H -4.8607 -6.2709 -2.1182 0
M  V30 35 H -4.083 -4.1108 -1.2176 0
M  V30 36 H -3.383 -0.7421 -4.0168 0
M  V30 37 H -1.7457 -1.4567 -3.8522 0
M  V30 38 H -1.9053 0.91 -3.02 0
M  V30 39 H -3.1007 0.3902 -1.8213 0
M  V30 40 H -0.2264 -0.6607 -1.989 0
M  V30 41 H -1.4108 -1.161 -0.8005 0
M  V30 42 H -0.3728 1.6927 -1.1602 0
M  V30 43 H -1.575 1.1622 0.0654 0
M  V30 44 H 2.2019 -0.1978 1.9115 0
M  V30 45 H -0.3759 3.065 0.7587 0
M  V30 46 H 0.7005 4.5037 2.4231 0
M  V30 47 H 3.38 1.4771 4.6549 0
M  V30 48 H 4.2419 5.0354 3.1017 0
M  V30 49 H 4.7034 3.3533 3.3685 0
M  V30 50 H 4.3592 5.4148 5.6174 0
M  V30 51 H 4.0615 3.0726 6.3902 0
M  V30 52 H 5.5956 2.6083 5.6339 0
M  V30 53 H 5.5791 3.7413 6.9954 0
M  V30 54 H 6.2428 6.0362 4.1274 0
M  V30 55 H 6.9305 4.4102 4.2872 0
M  V30 56 H 6.8352 5.4792 5.6979 0
M  V30 END ATOM
M  V30 BEGIN BOND
M  V30 1 2 1 2
M  V30 2 1 2 3
M  V30 3 1 2 4
M  V30 4 1 3 5
M  V30 5 2 4 6
M  V30 6 2 5 7
M  V30 7 1 5 8
M  V30 8 1 7 9
M  V30 9 2 8 10
M  V30 10 2 9 11
M  V30 11 1 10 12
M  V30 12 1 12 13
M  V30 13 1 13 14
M  V30 14 1 14 15
M  V30 15 1 15 16
M  V30 16 1 16 17
M  V30 17 1 17 18
M  V30 18 2 18 19
M  V30 19 1 18 20
M  V30 20 1 19 21
M  V30 21 2 20 22
M  V30 22 1 21 23
M  V30 23 2 21 24
M  V30 24 1 24 25
M  V30 25 2 25 26
M  V30 26 1 25 27
M  V30 27 1 27 28
M  V30 28 1 28 29
M  V30 29 1 28 30
M  V30 30 1 6 7
M  V30 31 1 10 11
M  V30 32 1 22 24
M  V30 33 1 4 31
M  V30 34 1 6 32
M  V30 35 1 8 33
M  V30 36 1 9 34
M  V30 37 1 11 35
M  V30 38 1 13 36
M  V30 39 1 13 37
M  V30 40 1 14 38
M  V30 41 1 14 39
M  V30 42 1 15 40
M  V30 43 1 15 41
M  V30 44 1 16 42
M  V30 45 1 16 43
M  V30 46 1 19 44
M  V30 47 1 20 45
M  V30 48 1 22 46
M  V30 49 1 23 47
M  V30 50 1 27 48
M  V30 51 1 27 49
M  V30 52 1 28 50
M  V30 53 1 29 51
M  V30 54 1 29 52
M  V30 55 1 29 53
M  V30 56 1 30 54
M  V30 57 1 30 55
M  V30 58 1 30 56
M  V30 END BOND
M  V30 END CTAB
M  END
>  <Column 1>
35

>  <level_0>
38

>  <index>
38

>  <Unnamed: 0>
38

>  <NO.>
39

>  <Name>
cube-10

>  <IUPAC_name>


>  <SMILES>
CC(C)CC(=O)c1ccc(OCCCCOc2ccc3ccc(=O)oc3c2)cc1O

>  <CID>


>  <logBB>
-1.52

>  <BBB+/BBB->
BBB-

>  <Inchi>
InChI=1S/C24H26O6/c1-16(2)13-21(25)20-9-8-18(14-22(20)26)28-11-3-4-12-29-19-7-5-17-6-10-24(27)30-23(17)15-19/h5-10-14-16-26H-3-4-11-13H2-1-2H3

>  <threshold>


>  <reference>
R18|R26|R27|

>  <group>
A

>  <Class>
-1

>  <ABC>
23.05

>  <ABCGG>
16.32

>  <nAcid>
0

>  <nBase>
0

>  <nAromAtom>
16

>  <nAromBond>
17

>  <nAtom>
56

>  <nHeavyAtom>
30

>  <nSpiro>
0

>  <nBridgehead>
0

>  <nHetero>
6

>  <nN>
0

>  <nO>
6

>  <nF>
0

>  <BalabanJ>
1.22

>  <BertzCT>
1066.72

>  <nBonds>
58

>  <nBondsO>
32

>  <nBondsS>
39

>  <nBondsD>
2

>  <nBondsT>
0

>  <nBondsA>
17

>  <nBondsM>
19

>  <nBondsKS>
49

>  <nBondsKD>
9

>  <RNCG>
0.18

>  <RPCG>
0.12

>  <FCSP3>
0.33

>  <SZ>
36.33

>  <Sm>
34.17

>  <Sv>
35.33

>  <Sse>
56.53

>  <Sp>
37.26

>  <Si>
62.66

>  <MZ>
0.65

>  <Mm>
0.61

>  <Mv>
0.63

>  <Mse>
1.01

>  <Mp>
0.67

>  <Mi>
1.12

>  <NsCH3>
2

>  <NdCH2>
0

>  <NssCH2>
5

>  <NtCH>
0

>  <NdsCH>
0

>  <NaaCH>
8

>  <NsssCH>
1

>  <NddC>
0

>  <NtsC>
0

>  <NdssC>
1

>  <NaasC>
4

>  <NaaaC>
2

>  <NssssC>
0

>  <NsNH3>
0

>  <NsNH2>
0

>  <NssNH2>
0

>  <NdNH>
0

>  <NssNH>
0

>  <NaaNH>
0

>  <NtN>
0

>  <NsssNH>
0

>  <NdsN>
0

>  <NaaN>
0

>  <NsssN>
0

>  <NddsN>
0

>  <NaasN>
0

>  <NssssN>
0

>  <NsOH>
1

>  <NdO>
2

>  <NssO>
2

>  <NaaO>
1

>  <NsF>
0

>  <NsSiH3>
0

>  <NssSiH2>
0

>  <NsssSiH>
0

>  <NssssSi>
0

>  <NsPH2>
0

>  <NssPH>
0

>  <NsssP>
0

>  <NdsssP>
0

>  <NsssssP>
0

>  <NsSH>
0

>  <NdS>
0

>  <NssS>
0

>  <NaaS>
0

>  <NdssS>
0

>  <NddssS>
0

>  <NsCl>
0

>  <NsBr>
0

>  <NsI>
0

>  <fragCpx>
154.06

>  <fMF>
0.39

>  <nHBAcc>
6

>  <nHBDon>
1

>  <Kier1>
24.64

>  <Kier2>
12.3

>  <Lipinski>
1

>  <GhoseFilter>
1

>  <FilterItLogS>
-6.53

>  <VMcGowan>
312.96

>  <LabuteASA>
174.6

>  <PEOE_VSA1>
19

>  <PEOE_VSA2>
4.79

>  <PEOE_VSA3>
4.79

>  <PEOE_VSA4>
0

>  <PEOE_VSA5>
0

>  <PEOE_VSA6>
13.85

>  <PEOE_VSA7>
49.09

>  <PEOE_VSA8>
30.01

>  <PEOE_VSA9>
18.78

>  <PEOE_VSA10>
22.83

>  <PEOE_VSA11>
5.78

>  <PEOE_VSA12>
0

>  <PEOE_VSA13>
0

>  <SMR_VSA1>
23.79

>  <SMR_VSA2>
0

>  <SMR_VSA3>
0

>  <SMR_VSA4>
5.92

>  <SMR_VSA5>
33.11

>  <SMR_VSA6>
13.21

>  <SMR_VSA7>
64.51

>  <SMR_VSA8>
0

>  <SMR_VSA9>
17.25

>  <SlogP_VSA1>
15.1

>  <SlogP_VSA2>
24.1

>  <SlogP_VSA3>
0

>  <SlogP_VSA4>
5.92

>  <SlogP_VSA5>
43.47

>  <SlogP_VSA6>
57.74

>  <SlogP_VSA7>
0

>  <SlogP_VSA8>
10.97

>  <SlogP_VSA9>
0

>  <SlogP_VSA10>
0

>  <SlogP_VSA11>
17.25

>  <EState_VSA1>
0

>  <EState_VSA2>
23.08

>  <EState_VSA3>
42.28

>  <EState_VSA4>
18.23

>  <EState_VSA5>
12.13

>  <EState_VSA6>
24.27

>  <EState_VSA7>
25.98

>  <EState_VSA8>
0

>  <EState_VSA9>
13.89

>  <EState_VSA10>
14.7

>  <VSA_EState1>
16.5

>  <VSA_EState2>
23.39

>  <VSA_EState3>
10.93

>  <VSA_EState4>
0.44

>  <VSA_EState5>
1.29

>  <VSA_EState6>
13.28

>  <VSA_EState7>
1.93

>  <VSA_EState8>
4.9

>  <VSA_EState9>
0

>  <apol>
62.23

>  <bpol>
33.03

>  <nRing>
3

>  <nHRing>
1

>  <naRing>
3

>  <naHRing>
1

>  <nARing 2>
0

>  <nAHRing 2>
0

>  <nFRing>
1

>  <nFHRing>
1

>  <nFaRing>
1

>  <nFaHRing>
1

>  <nFARing 2>
0

>  <nFAHRing 2>
0

>  <nRot>
10

>  <SLogP>
4.97

>  <SMR>
114.6

>  <TopoPSA(NO)>
85.97

>  <TopoPSA>
85.97

>  <JGI1>
0.2

>  <JGI2>
0.07

>  <JGI3>
0.04

>  <JGI4>
0.04

>  <JGI5>
0.03

>  <Diameter>
19

>  <Radius>
10

>  <TMWC10>
137.43

>  <TSRW10>
65.23

>  <MW>
410.17

>  <AMW>
7.32

>  <WPath>
3288

>  <WPol>
43

>  <Zagreb1>
150

>  <Zagreb2>
170

>  <mZagreb2>
6.67

>  <yes>


>  <nAR-cont>
0.336376

>  <nHA-cont>
0.74523694

>  <MWHBN>
0.34563371

>  <MWHBN-cont>
0.686484158

>  <TPSA-cont>
0.399876016

>  <pka_cont>
0.97

>  <yes.1>


>  <BBB_SCORE>
3.396091209

>  <MMFF94 Energy>
78.352

$$$$
Compound 26
Actelion Java MolfileCreator 2.0

  0  0  0  0  0  0              0 V3000
M  V30 BEGIN CTAB
M  V30 COUNTS 57 60 0 0 0
M  V30 BEGIN ATOM
M  V30 1 S 4.7404 -5.1429 -1.7656 0
M  V30 2 O 4.8972 -5.5371 -3.1502 0
M  V30 3 O 4.7738 -3.7522 -1.3737 0
M  V30 4 N 3.2979 -5.8704 -1.2557 0
M  V30 5 C 5.9406 -6.0467 -0.8131 0
M  V30 6 C 2.5441 -5.1837 -0.2567 0
M  V30 7 C 1.5885 -4.2368 -0.6422 0
M  V30 8 C 2.8166 -5.4237 1.0882 0
M  V30 9 C 0.8848 -3.5352 0.3558 0
M  V30 10 C 2.121 -4.7438 2.0936 0
M  V30 11 C 1.1625 -3.8064 1.6928 0
M  V30 12 C -0.1283 -2.5364 0.3347 0
M  V30 13 N 0.3327 -3.008 2.4422 0
M  V30 14 C -0.4299 -2.1843 1.6397 0
M  V30 15 C -1.3745 -1.2519 2.2232 0
M  V30 16 O -1.831 -1.4683 3.3468 0
M  V30 17 N -1.7439 -0.114 1.517 0
M  V30 18 C -2.8656 0.6819 2.0307 0
M  V30 19 C -1.0298 0.4538 0.3639 0
M  V30 20 C -3.4724 1.6035 0.9617 0
M  V30 21 C -1.0723 1.9957 0.3287 0
M  V30 22 N -2.4485 2.5093 0.4258 0
M  V30 23 C -2.866 3.394 -0.5755 0
M  V30 24 N -3.9171 3.0144 -1.3433 0
M  V30 25 C -2.1906 4.6346 -0.7714 0
M  V30 26 C -4.2821 3.818 -2.3619 0
M  V30 27 N -1.1737 5.0278 0.0908 0
M  V30 28 C -2.5925 5.4121 -1.8618 0
M  V30 29 C -3.6504 5.0056 -2.6678 0
M  V30 30 C -0.3398 6.2025 -0.0264 0
M  V30 31 C 0.7855 5.9698 -1.0201 0
M  V30 32 H 2.7619 -6.1417 -2.0827 0
M  V30 33 H 5.8023 -5.8223 0.2454 0
M  V30 34 H 5.8207 -7.1136 -1.0097 0
M  V30 35 H 6.9338 -5.7217 -1.1311 0
M  V30 36 H 1.3985 -4.0274 -1.6896 0
M  V30 37 H 3.5633 -6.1597 1.3721 0
M  V30 38 H 2.3222 -4.939 3.142 0
M  V30 39 H -0.5889 -2.1312 -0.5559 0
M  V30 40 H 0.2802 -3.002 3.4527 0
M  V30 41 H -3.6349 0.0105 2.429 0
M  V30 42 H -2.4787 1.276 2.8681 0
M  V30 43 H -1.5113 0.0543 -0.5361 0
M  V30 44 H 0.0157 0.1338 0.3733 0
M  V30 45 H -4.2891 2.1834 1.408 0
M  V30 46 H -3.8916 0.9775 0.1631 0
M  V30 47 H -0.5025 2.3798 1.1836 0
M  V30 48 H -0.5658 2.3314 -0.5846 0
M  V30 49 H -5.1231 3.4635 -2.9505 0
M  V30 50 H -1.1517 4.5065 0.9631 0
M  V30 51 H -2.107 6.3554 -2.086 0
M  V30 52 H -3.9793 5.61 -3.5051 0
M  V30 53 H -0.9244 7.0904 -0.29 0
M  V30 54 H 0.1031 6.4072 0.9551 0
M  V30 55 H 1.4434 6.8436 -1.0595 0
M  V30 56 H 1.388 5.1014 -0.7324 0
M  V30 57 H 0.402 5.7889 -2.0291 0
M  V30 END ATOM
M  V30 BEGIN BOND
M  V30 1 2 1 2
M  V30 2 2 1 3
M  V30 3 1 1 4
M  V30 4 1 1 5
M  V30 5 1 4 6
M  V30 6 2 6 7
M  V30 7 1 6 8
M  V30 8 1 7 9
M  V30 9 2 8 10
M  V30 10 2 9 11
M  V30 11 1 9 12
M  V30 12 1 11 13
M  V30 13 2 12 14
M  V30 14 1 14 15
M  V30 15 2 15 16
M  V30 16 1 15 17
M  V30 17 1 17 18
M  V30 18 1 17 19
M  V30 19 1 18 20
M  V30 20 1 19 21
M  V30 21 1 20 22
M  V30 22 1 22 23
M  V30 23 2 23 24
M  V30 24 1 23 25
M  V30 25 1 24 26
M  V30 26 1 25 27
M  V30 27 2 25 28
M  V30 28 2 26 29
M  V30 29 1 27 30
M  V30 30 1 30 31
M  V30 31 1 10 11
M  V30 32 1 13 14
M  V30 33 1 21 22
M  V30 34 1 28 29
M  V30 35 1 4 32
M  V30 36 1 5 33
M  V30 37 1 5 34
M  V30 38 1 5 35
M  V30 39 1 7 36
M  V30 40 1 8 37
M  V30 41 1 10 38
M  V30 42 1 12 39
M  V30 43 1 13 40
M  V30 44 1 18 41
M  V30 45 1 18 42
M  V30 46 1 19 43
M  V30 47 1 19 44
M  V30 48 1 20 45
M  V30 49 1 20 46
M  V30 50 1 21 47
M  V30 51 1 21 48
M  V30 52 1 26 49
M  V30 53 1 27 50
M  V30 54 1 28 51
M  V30 55 1 29 52
M  V30 56 1 30 53
M  V30 57 1 30 54
M  V30 58 1 31 55
M  V30 59 1 31 56
M  V30 60 1 31 57
M  V30 END BOND
M  V30 END CTAB
M  END
>  <Column 1>
36

>  <level_0>
39

>  <index>
39

>  <Unnamed: 0>
39

>  <NO.>
40

>  <Name>
chembl151192

>  <IUPAC_name>
n-[2-[4-[3-(ethylamino)pyridin-2-yl]piperazine-1-carbonyl]-1h-indol-5-yl]methanesulfonamide

>  <SMILES>
CCNc1cccnc1N1CCN(C(=O)c2cc3cc(NS(C)(=O)=O)ccc3[nH]2)CC1

>  <CID>
468305

>  <logBB>
-1.52

>  <BBB+/BBB->
BBB-

>  <Inchi>
InChI=1S/C21H26N6O3S/c1-3-22-18-5-4-8-23-20(18)26-9-11-27(12-10-26)21(28)19-14-15-13-16(25-31(2-29)30)6-7-17(15)24-19/h4-8-13-14-22-24-25H-3-9-12H2-1-2H3

>  <threshold>


>  <reference>
R46|

>  <group>
A

>  <Class>
-1

>  <ABC>
24.43

>  <ABCGG>
17.99

>  <nAcid>
0

>  <nBase>
0

>  <nAromAtom>
15

>  <nAromBond>
16

>  <nAtom>
57

>  <nHeavyAtom>
31

>  <nSpiro>
0

>  <nBridgehead>
0

>  <nHetero>
10

>  <nN>
6

>  <nO>
3

>  <nF>
0

>  <BalabanJ>
1.25

>  <BertzCT>
1198.8

>  <nBonds>
60

>  <nBondsO>
34

>  <nBondsS>
41

>  <nBondsD>
3

>  <nBondsT>
0

>  <nBondsA>
16

>  <nBondsM>
19

>  <nBondsKS>
50

>  <nBondsKD>
10

>  <RNCG>
0.13

>  <RPCG>
0.09

>  <FCSP3>
0.33

>  <SZ>
39

>  <Sm>
36.84

>  <Sv>
35.92

>  <Sse>
57.59

>  <Sp>
38.51

>  <Si>
64.69

>  <MZ>
0.68

>  <Mm>
0.65

>  <Mv>
0.63

>  <Mse>
1.01

>  <Mp>
0.68

>  <Mi>
1.13

>  <NsCH3>
2

>  <NdCH2>
0

>  <NssCH2>
5

>  <NtCH>
0

>  <NdsCH>
0

>  <NaaCH>
7

>  <NsssCH>
0

>  <NddC>
0

>  <NtsC>
0

>  <NdssC>
1

>  <NaasC>
4

>  <NaaaC>
2

>  <NssssC>
0

>  <NsNH3>
0

>  <NsNH2>
0

>  <NssNH2>
0

>  <NdNH>
0

>  <NssNH>
2

>  <NaaNH>
1

>  <NtN>
0

>  <NsssNH>
0

>  <NdsN>
0

>  <NaaN>
1

>  <NsssN>
2

>  <NddsN>
0

>  <NaasN>
0

>  <NssssN>
0

>  <NsOH>
0

>  <NdO>
3

>  <NssO>
0

>  <NaaO>
0

>  <NsF>
0

>  <NsSiH3>
0

>  <NssSiH2>
0

>  <NsssSiH>
0

>  <NssssSi>
0

>  <NsPH2>
0

>  <NssPH>
0

>  <NsssP>
0

>  <NdsssP>
0

>  <NsssssP>
0

>  <NsSH>
0

>  <NdS>
0

>  <NssS>
0

>  <NaaS>
0

>  <NdssS>
0

>  <NddssS>
1

>  <NsCl>
0

>  <NsBr>
0

>  <NsI>
0

>  <fragCpx>
226.1

>  <fMF>
0.39

>  <nHBAcc>
6

>  <nHBDon>
3

>  <Kier1>
24.13

>  <Kier2>
10.51

>  <Lipinski>
1

>  <GhoseFilter>
1

>  <FilterItLogS>
-5.19

>  <VMcGowan>
322.75

>  <LabuteASA>
181.05

>  <PEOE_VSA1>
20.1

>  <PEOE_VSA2>
9.52

>  <PEOE_VSA3>
13.4

>  <PEOE_VSA4>
0

>  <PEOE_VSA5>
0

>  <PEOE_VSA6>
0

>  <PEOE_VSA7>
43.32

>  <PEOE_VSA8>
55.51

>  <PEOE_VSA9>
11.94

>  <PEOE_VSA10>
5.69

>  <PEOE_VSA11>
5.82

>  <PEOE_VSA12>
10.02

>  <PEOE_VSA13>
5.91

>  <SMR_VSA1>
13.21

>  <SMR_VSA2>
0

>  <SMR_VSA3>
14.87

>  <SMR_VSA4>
0

>  <SMR_VSA5>
6.92

>  <SMR_VSA6>
53.92

>  <SMR_VSA7>
48.29

>  <SMR_VSA8>
0

>  <SMR_VSA9>
0

>  <SlogP_VSA1>
14.94

>  <SlogP_VSA2>
68.17

>  <SlogP_VSA3>
10.02

>  <SlogP_VSA4>
0

>  <SlogP_VSA5>
17.41

>  <SlogP_VSA6>
42.6

>  <SlogP_VSA7>
0

>  <SlogP_VSA8>
10.9

>  <SlogP_VSA9>
0

>  <SlogP_VSA10>
17.19

>  <SlogP_VSA11>
0

>  <EState_VSA1>
10.02

>  <EState_VSA2>
5.91

>  <EState_VSA3>
37.56

>  <EState_VSA4>
35.21

>  <EState_VSA5>
0

>  <EState_VSA6>
30.46

>  <EState_VSA7>
23.96

>  <EState_VSA8>
24.91

>  <EState_VSA9>
0

>  <EState_VSA10>
13.21

>  <VSA_EState1>
25.36

>  <VSA_EState2>
24.71

>  <VSA_EState3>
4.11

>  <VSA_EState4>
2.74

>  <VSA_EState5>
0.84

>  <VSA_EState6>
10.84

>  <VSA_EState7>
2.89

>  <VSA_EState8>
5.45

>  <VSA_EState9>
-3.36

>  <apol>
64.31

>  <bpol>
39.88

>  <nRing>
4

>  <nHRing>
3

>  <naRing>
3

>  <naHRing>
2

>  <nARing 2>
1

>  <nAHRing 2>
1

>  <nFRing>
1

>  <nFHRing>
1

>  <nFaRing>
1

>  <nFaHRing>
1

>  <nFARing 2>
0

>  <nFAHRing 2>
0

>  <nRot>
6

>  <SLogP>
2.33

>  <SMR>
123.28

>  <TopoPSA(NO)>
110.43

>  <TopoPSA>
118.81

>  <JGI1>
0.22

>  <JGI2>
0.07

>  <JGI3>
0.05

>  <JGI4>
0.03

>  <JGI5>
0.03

>  <Diameter>
17

>  <Radius>
9

>  <TMWC10>
142.61

>  <TSRW10>
80.97

>  <MW>
442.18

>  <AMW>
7.76

>  <WPath>
3067

>  <WPol>
48

>  <Zagreb1>
166

>  <Zagreb2>
194

>  <mZagreb2>
6.68

>  <yes>


>  <nAR-cont>
0.816016

>  <nHA-cont>
0.702745138

>  <MWHBN>
0.427999204

>  <MWHBN-cont>
0.367306701

>  <TPSA-cont>
0.170632423

>  <pka_cont>
0.97

>  <yes.1>


>  <BBB_SCORE>
2.895986035

>  <MMFF94 Energy>
13.094

$$$$
Compound 27
Actelion Java MolfileCreator 2.0

  0  0  0  0  0  0              0 V3000
M  V30 BEGIN CTAB
M  V30 COUNTS 26 26 0 0 0
M  V30 BEGIN ATOM
M  V30 1 Cl 2.7879 -3.2665 -2.469 0
M  V30 2 C 1.774 -2.1504 -1.64 0
M  V30 3 C 0.9402 -2.5989 -0.6197 0
M  V30 4 C 1.7926 -0.8038 -1.9924 0
M  V30 5 C 0.1176 -1.6923 0.0531 0
M  V30 6 C 0.9695 0.1029 -1.3194 0
M  V30 7 C 0.1199 -0.3299 -0.289 0
M  V30 8 C -0.7763 0.6391 0.4757 0 CFG=2
M  V30 9 C -1.7516 1.42 -0.4402 0
M  V30 10 C 0.0575 1.6362 1.2987 0
M  V30 11 N -2.6709 0.5514 -1.1727 0
M  V30 12 C 0.8931 0.9726 2.3567 0
M  V30 13 O 2.0849 1.1514 2.5446 0
M  V30 14 O 0.1835 0.1804 3.1818 0
M  V30 15 H 0.9233 -3.6494 -0.3441 0
M  V30 16 H 2.4422 -0.4524 -2.789 0
M  V30 17 H -0.529 -2.0591 0.8475 0
M  V30 18 H 0.9988 1.1494 -1.613 0
M  V30 19 H -1.3958 0.0566 1.1722 0
M  V30 20 H -1.2008 2.0336 -1.1617 0
M  V30 21 H -2.3487 2.1071 0.1711 0
M  V30 22 H -0.5918 2.3588 1.8078 0
M  V30 23 H 0.7288 2.2137 0.6518 0
M  V30 24 H -3.3475 1.1165 -1.6833 0
M  V30 25 H -3.2021 -0.0262 -0.5233 0
M  V30 26 H 0.8549 -0.1538 3.814 0
M  V30 END ATOM
M  V30 BEGIN BOND
M  V30 1 1 1 2
M  V30 2 2 2 3
M  V30 3 1 2 4
M  V30 4 1 3 5
M  V30 5 2 4 6
M  V30 6 2 5 7
M  V30 7 1 7 8
M  V30 8 1 8 9
M  V30 9 1 8 10
M  V30 10 1 9 11
M  V30 11 1 10 12
M  V30 12 2 12 13
M  V30 13 1 12 14
M  V30 14 1 6 7
M  V30 15 1 3 15
M  V30 16 1 4 16
M  V30 17 1 5 17
M  V30 18 1 6 18
M  V30 19 1 8 19
M  V30 20 1 9 20
M  V30 21 1 9 21
M  V30 22 1 10 22
M  V30 23 1 10 23
M  V30 24 1 11 24
M  V30 25 1 11 25
M  V30 26 1 14 26
M  V30 END BOND
M  V30 BEGIN COLLECTION
M  V30 MDLV30/STERAC1 ATOMS=(1 8)
M  V30 END COLLECTION
M  V30 END CTAB
M  END
>  <Column 1>
39

>  <level_0>
42

>  <index>
42

>  <Unnamed: 0>
42

>  <NO.>
43

>  <Name>
baclofen

>  <IUPAC_name>
4-amino-3-(4-chlorophenyl)butanoic acid

>  <SMILES>
NCC(CC(=O)O)c1ccc(Cl)cc1

>  <CID>
2284

>  <logBB>
-1.52

>  <BBB+/BBB->
BBB-

>  <Inchi>
InChI=1S/C10H12ClNO2/c11-9-3-1-7(2-4-9)8(6-12)5-10(13)14/h1-4-8H-5-6-12H2-(H-13-14)

>  <threshold>


>  <reference>
R2|R2|R25|R46|

>  <group>
A

>  <Class>
-1

>  <ABC>
10.19

>  <ABCGG>
9.48

>  <nAcid>
1

>  <nBase>
1

>  <nAromAtom>
6

>  <nAromBond>
6

>  <nAtom>
26

>  <nHeavyAtom>
14

>  <nSpiro>
0

>  <nBridgehead>
0

>  <nHetero>
4

>  <nN>
1

>  <nO>
2

>  <nF>
0

>  <BalabanJ>
2.36

>  <BertzCT>
310.4

>  <nBonds>
26

>  <nBondsO>
14

>  <nBondsS>
19

>  <nBondsD>
1

>  <nBondsT>
0

>  <nBondsA>
6

>  <nBondsM>
7

>  <nBondsKS>
22

>  <nBondsKD>
4

>  <RNCG>
0.35

>  <RPCG>
0.22

>  <FCSP3>
0.3

>  <SZ>
18.67

>  <Sm>
17.79

>  <Sv>
16.53

>  <Sse>
26.42

>  <Sp>
17.72

>  <Si>
29.35

>  <MZ>
0.72

>  <Mm>
0.68

>  <Mv>
0.64

>  <Mse>
1.02

>  <Mp>
0.68

>  <Mi>
1.13

>  <NsCH3>
0

>  <NdCH2>
0

>  <NssCH2>
2

>  <NtCH>
0

>  <NdsCH>
0

>  <NaaCH>
4

>  <NsssCH>
1

>  <NddC>
0

>  <NtsC>
0

>  <NdssC>
1

>  <NaasC>
2

>  <NaaaC>
0

>  <NssssC>
0

>  <NsNH3>
0

>  <NsNH2>
1

>  <NssNH2>
0

>  <NdNH>
0

>  <NssNH>
0

>  <NaaNH>
0

>  <NtN>
0

>  <NsssNH>
0

>  <NdsN>
0

>  <NaaN>
0

>  <NsssN>
0

>  <NddsN>
0

>  <NaasN>
0

>  <NssssN>
0

>  <NsOH>
1

>  <NdO>
1

>  <NssO>
0

>  <NaaO>
0

>  <NsF>
0

>  <NsSiH3>
0

>  <NssSiH2>
0

>  <NsssSiH>
0

>  <NssssSi>
0

>  <NsPH2>
0

>  <NssPH>
0

>  <NsssP>
0

>  <NdsssP>
0

>  <NsssssP>
0

>  <NsSH>
0

>  <NdS>
0

>  <NssS>
0

>  <NaaS>
0

>  <NdssS>
0

>  <NddssS>
0

>  <NsCl>
1

>  <NsBr>
0

>  <NsI>
0

>  <fragCpx>
14.04

>  <fMF>
0.23

>  <nHBAcc>
2

>  <nHBDon>
2

>  <Kier1>
12.07

>  <Kier2>
5.78

>  <Lipinski>
1

>  <GhoseFilter>
1

>  <FilterItLogS>
-2.29

>  <VMcGowan>
157.66

>  <LabuteASA>
87.49

>  <PEOE_VSA1>
10.84

>  <PEOE_VSA2>
4.79

>  <PEOE_VSA3>
0

>  <PEOE_VSA4>
0

>  <PEOE_VSA5>
0

>  <PEOE_VSA6>
23.73

>  <PEOE_VSA7>
24.24

>  <PEOE_VSA8>
10.94

>  <PEOE_VSA9>
6.42

>  <PEOE_VSA10>
0

>  <PEOE_VSA11>
0

>  <PEOE_VSA12>
0

>  <PEOE_VSA13>
0

>  <SMR_VSA1>
9.9

>  <SMR_VSA2>
0

>  <SMR_VSA3>
0

>  <SMR_VSA4>
5.73

>  <SMR_VSA5>
12.34

>  <SMR_VSA6>
6.54

>  <SMR_VSA7>
34.85

>  <SMR_VSA8>
0

>  <SMR_VSA9>
0

>  <SlogP_VSA1>
5.73

>  <SlogP_VSA2>
17.62

>  <SlogP_VSA3>
4.79

>  <SlogP_VSA4>
0

>  <SlogP_VSA5>
17.9

>  <SlogP_VSA6>
24.27

>  <SlogP_VSA7>
5.02

>  <SlogP_VSA8>
0

>  <SlogP_VSA9>
0

>  <SlogP_VSA10>
0

>  <SlogP_VSA11>
0

>  <EState_VSA1>
5.97

>  <EState_VSA2>
12.34

>  <EState_VSA3>
11.57

>  <EState_VSA4>
5.56

>  <EState_VSA5>
0

>  <EState_VSA6>
12.13

>  <EState_VSA7>
12.13

>  <EState_VSA8>
0

>  <EState_VSA9>
22.44

>  <EState_VSA10>
4.79

>  <VSA_EState1>
0

>  <VSA_EState2>
10.53

>  <VSA_EState3>
9.29

>  <VSA_EState4>
6.41

>  <VSA_EState5>
-0.97

>  <VSA_EState6>
7.09

>  <VSA_EState7>
0.05

>  <VSA_EState8>
0.33

>  <VSA_EState9>
0

>  <apol>
29.59

>  <bpol>
12.85

>  <nRing>
1

>  <nHRing>
0

>  <naRing>
1

>  <naHRing>
0

>  <nARing 2>
0

>  <nAHRing 2>
0

>  <nFRing>
0

>  <nFHRing>
0

>  <nFaRing>
0

>  <nFaHRing>
0

>  <nFARing 2>
0

>  <nFAHRing 2>
0

>  <nRot>
4

>  <SLogP>
1.86

>  <SMR>
55.5

>  <TopoPSA(NO)>
63.32

>  <TopoPSA>
63.32

>  <JGI1>
0.25

>  <JGI2>
0.09

>  <JGI3>
0.04

>  <JGI4>
0.05

>  <JGI5>
0.03

>  <Diameter>
8

>  <Radius>
4

>  <TMWC10>
94.75

>  <TSRW10>
44.75

>  <MW>
213.06

>  <AMW>
8.19

>  <WPath>
318

>  <WPol>
17

>  <Zagreb1>
64

>  <Zagreb2>
70

>  <mZagreb2>
3.28

>  <yes>


>  <nAR-cont>
0.336376

>  <nHA-cont>
0.887625254

>  <MWHBN>
0.27403689

>  <MWHBN-cont>
0.910726323

>  <TPSA-cont>
0.557987081

>  <pka_cont>
0.97

>  <yes.1>


>  <BBB_SCORE>
4.1910649

>  <MMFF94 Energy>
3.5607

$$$$
Compound 28
Actelion Java MolfileCreator 2.0

  0  0  0  0  0  0              0 V3000
M  V30 BEGIN CTAB
M  V30 COUNTS 68 72 0 0 0
M  V30 BEGIN ATOM
M  V30 1 O 4.2231 -1.3531 0.6365 0
M  V30 2 C 3.2454 -0.829 0.1164 0
M  V30 3 N 2.0196 -1.4205 -0.1281 0
M  V30 4 C 3.3306 0.6085 -0.267 0
M  V30 5 C 1.6669 -2.7695 0.0868 0
M  V30 6 C 4.0913 1.4694 0.5305 0
M  V30 7 C 2.6943 1.1033 -1.4125 0
M  V30 8 C 0.3054 -3.0996 0.0026 0
M  V30 9 C 2.5897 -3.7755 0.3436 0
M  V30 10 C 4.191 2.8228 0.2018 0
M  V30 11 C 2.7977 2.4586 -1.7399 0
M  V30 12 C -0.1618 -4.4121 0.1835 0
M  V30 13 C 2.1569 -5.0887 0.5263 0
M  V30 14 C 3.5404 3.3322 -0.9323 0
M  V30 15 N -1.5221 -4.7449 0.0941 0
M  V30 16 C 0.7935 -5.4198 0.449 0
M  V30 17 C 3.6655 4.7993 -1.292 0
M  V30 18 C -2.6882 -4.0405 -0.1916 0
M  V30 19 C 0.3973 -6.8583 0.6544 0
M  V30 20 N 3.1869 5.6983 -0.2308 0
M  V30 21 N -3.8103 -4.7779 -0.1488 0
M  V30 22 N -2.6846 -2.7353 -0.4902 0
M  V30 23 C 3.5651 7.0936 -0.5367 0
M  V30 24 C 1.7186 5.6234 -0.0718 0
M  V30 25 C -4.9947 -4.1748 -0.4037 0
M  V30 26 C -3.8695 -2.1595 -0.7498 0
M  V30 27 C 3.0373 8.0922 0.5181 0
M  V30 28 C 1.1909 6.6248 0.9818 0
M  V30 29 C -6.1795 -5.0482 -0.3332 0
M  V30 30 C -5.0639 -2.8338 -0.7202 0
M  V30 31 N 1.5716 8.0154 0.6673 0
M  V30 32 C -7.4424 -4.583 0.0395 0
M  V30 33 C -6.1047 -6.4174 -0.6324 0
M  V30 34 C 1.1098 8.9263 1.7118 0
M  V30 35 N -8.5674 -5.339 0.1085 0
M  V30 36 C -7.2385 -7.2269 -0.5663 0
M  V30 37 C -8.4371 -6.6456 -0.1962 0
M  V30 38 H 1.2647 -0.8157 -0.4241 0
M  V30 39 H 4.6042 1.0891 1.4116 0
M  V30 40 H 2.1411 0.4434 -2.0752 0
M  V30 41 H -0.4041 -2.3048 -0.1994 0
M  V30 42 H 3.6544 -3.5721 0.4013 0
M  V30 43 H 4.776 3.4868 0.8357 0
M  V30 44 H 2.3014 2.8279 -2.6349 0
M  V30 45 H 2.9011 -5.8562 0.7287 0
M  V30 46 H -1.7756 -5.701 0.2896 0
M  V30 47 H 3.1492 5.0063 -2.2388 0
M  V30 48 H 4.7325 4.9807 -1.4797 0
M  V30 49 H -0.1092 -7.2436 -0.2363 0
M  V30 50 H -0.2636 -6.9494 1.5224 0
M  V30 51 H 1.2686 -7.4962 0.8371 0
M  V30 52 H 4.6584 7.1769 -0.565 0
M  V30 53 H 3.189 7.3864 -1.5265 0
M  V30 54 H 1.4253 4.6184 0.2527 0
M  V30 55 H 1.2174 5.8171 -1.03 0
M  V30 56 H -3.8276 -1.102 -0.994 0
M  V30 57 H 3.3194 9.1042 0.2034 0
M  V30 58 H 3.5355 7.8968 1.4775 0
M  V30 59 H 1.5684 6.3344 1.9718 0
M  V30 60 H 0.0975 6.5447 1.0127 0
M  V30 61 H -5.9897 -2.3266 -0.954 0
M  V30 62 H -7.605 -3.546 0.322 0
M  V30 63 H -5.155 -6.8613 -0.9246 0
M  V30 64 H 1.542 8.6917 2.6913 0
M  V30 65 H 1.3689 9.9607 1.4601 0
M  V30 66 H 0.0184 8.8874 1.7991 0
M  V30 67 H -7.1831 -8.2843 -0.7987 0
M  V30 68 H -9.3489 -7.2322 -0.1306 0
M  V30 END ATOM
M  V30 BEGIN BOND
M  V30 1 2 1 2
M  V30 2 1 2 3
M  V30 3 1 2 4
M  V30 4 1 3 5
M  V30 5 2 4 6
M  V30 6 1 4 7
M  V30 7 2 5 8
M  V30 8 1 5 9
M  V30 9 1 6 10
M  V30 10 2 7 11
M  V30 11 1 8 12
M  V30 12 2 9 13
M  V30 13 2 10 14
M  V30 14 1 12 15
M  V30 15 2 12 16
M  V30 16 1 14 17
M  V30 17 1 15 18
M  V30 18 1 16 19
M  V30 19 1 17 20
M  V30 20 2 18 21
M  V30 21 1 18 22
M  V30 22 1 20 23
M  V30 23 1 20 24
M  V30 24 1 21 25
M  V30 25 2 22 26
M  V30 26 1 23 27
M  V30 27 1 24 28
M  V30 28 1 25 29
M  V30 29 2 25 30
M  V30 30 1 27 31
M  V30 31 2 29 32
M  V30 32 1 29 33
M  V30 33 1 31 34
M  V30 34 1 32 35
M  V30 35 2 33 36
M  V30 36 2 35 37
M  V30 37 1 11 14
M  V30 38 1 13 16
M  V30 39 1 26 30
M  V30 40 1 28 31
M  V30 41 1 36 37
M  V30 42 1 3 38
M  V30 43 1 6 39
M  V30 44 1 7 40
M  V30 45 1 8 41
M  V30 46 1 9 42
M  V30 47 1 10 43
M  V30 48 1 11 44
M  V30 49 1 13 45
M  V30 50 1 15 46
M  V30 51 1 17 47
M  V30 52 1 17 48
M  V30 53 1 19 49
M  V30 54 1 19 50
M  V30 55 1 19 51
M  V30 56 1 23 52
M  V30 57 1 23 53
M  V30 58 1 24 54
M  V30 59 1 24 55
M  V30 60 1 26 56
M  V30 61 1 27 57
M  V30 62 1 27 58
M  V30 63 1 28 59
M  V30 64 1 28 60
M  V30 65 1 30 61
M  V30 66 1 32 62
M  V30 67 1 33 63
M  V30 68 1 34 64
M  V30 69 1 34 65
M  V30 70 1 34 66
M  V30 71 1 36 67
M  V30 72 1 37 68
M  V30 END BOND
M  V30 END CTAB
M  END
>  <Column 1>
40

>  <level_0>
45

>  <index>
45

>  <Unnamed: 0>
45

>  <NO.>
46

>  <Name>
imatinib

>  <IUPAC_name>
4-[(4-methylpiperazin-1-yl)methyl]-n-[4-methyl-3-[(4-pyridin-3-ylpyrimidin-2-yl)amino]phenyl]benzamide

>  <SMILES>
Cc1ccc(NC(=O)c2ccc(CN3CCN(C)CC3)cc2)cc1Nc1nccc(-c2cccnc2)n1

>  <CID>
5291

>  <logBB>
-1.5

>  <BBB+/BBB->
BBB-

>  <Inchi>
InChI=1S/C29H31N7O/c1-21-5-10-25(18-27(21)34-29-31-13-11-26(33-29)24-4-3-12-30-19-24)32-28(37)23-8-6-22(7-9-23)20-36-16-14-35(2)15-17-36/h3-13-18-19H-14-17-20H2-1-2H3-(H-32-37)(H-31-33-34)

>  <threshold>


>  <reference>
R18|R26|R27|

>  <group>
A

>  <Class>
-1

>  <ABC>
29.2

>  <ABCGG>
19.52

>  <nAcid>
0

>  <nBase>
2

>  <nAromAtom>
24

>  <nAromBond>
24

>  <nAtom>
68

>  <nHeavyAtom>
37

>  <nSpiro>
0

>  <nBridgehead>
0

>  <nHetero>
8

>  <nN>
7

>  <nO>
1

>  <nF>
0

>  <BalabanJ>
1.03

>  <BertzCT>
1350.56

>  <nBonds>
72

>  <nBondsO>
41

>  <nBondsS>
47

>  <nBondsD>
1

>  <nBondsT>
0

>  <nBondsA>
24

>  <nBondsM>
25

>  <nBondsKS>
59

>  <nBondsKD>
13

>  <RNCG>
0.12

>  <RPCG>
0.09

>  <FCSP3>
0.24

>  <SZ>
43.67

>  <Sm>
41.1

>  <Sv>
43.42

>  <Sse>
67.73

>  <Sp>
46.47

>  <Si>
76.68

>  <MZ>
0.64

>  <Mm>
0.6

>  <Mv>
0.64

>  <Mse>
1

>  <Mp>
0.68

>  <Mi>
1.13

>  <NsCH3>
2

>  <NdCH2>
0

>  <NssCH2>
5

>  <NtCH>
0

>  <NdsCH>
0

>  <NaaCH>
13

>  <NsssCH>
0

>  <NddC>
0

>  <NtsC>
0

>  <NdssC>
1

>  <NaasC>
8

>  <NaaaC>
0

>  <NssssC>
0

>  <NsNH3>
0

>  <NsNH2>
0

>  <NssNH2>
0

>  <NdNH>
0

>  <NssNH>
2

>  <NaaNH>
0

>  <NtN>
0

>  <NsssNH>
0

>  <NdsN>
0

>  <NaaN>
3

>  <NsssN>
2

>  <NddsN>
0

>  <NaasN>
0

>  <NssssN>
0

>  <NsOH>
0

>  <NdO>
1

>  <NssO>
0

>  <NaaO>
0

>  <NsF>
0

>  <NsSiH3>
0

>  <NssSiH2>
0

>  <NsssSiH>
0

>  <NssssSi>
0

>  <NsPH2>
0

>  <NssPH>
0

>  <NsssP>
0

>  <NdsssP>
0

>  <NsssssP>
0

>  <NsSH>
0

>  <NdS>
0

>  <NssS>
0

>  <NaaS>
0

>  <NdssS>
0

>  <NddssS>
0

>  <NsCl>
0

>  <NsBr>
0

>  <NsI>
0

>  <fragCpx>
349.08

>  <fMF>
0.5

>  <nHBAcc>
7

>  <nHBDon>
2

>  <Kier1>
28.53

>  <Kier2>
14.06

>  <Lipinski>
1

>  <GhoseFilter>
0

>  <FilterItLogS>
-7.71

>  <VMcGowan>
385

>  <LabuteASA>
216.96

>  <PEOE_VSA1>
15.53

>  <PEOE_VSA2>
14.68

>  <PEOE_VSA3>
9.97

>  <PEOE_VSA4>
0

>  <PEOE_VSA5>
0

>  <PEOE_VSA6>
18.2

>  <PEOE_VSA7>
67.56

>  <PEOE_VSA8>
73.82

>  <PEOE_VSA9>
5.69

>  <PEOE_VSA10>
0

>  <PEOE_VSA11>
0

>  <PEOE_VSA12>
5.95

>  <PEOE_VSA13>
5.91

>  <SMR_VSA1>
4.79

>  <SMR_VSA2>
0

>  <SMR_VSA3>
24.75

>  <SMR_VSA4>
0

>  <SMR_VSA5>
13.47

>  <SMR_VSA6>
43.86

>  <SMR_VSA7>
95.94

>  <SMR_VSA8>
0

>  <SMR_VSA9>
11.26

>  <SlogP_VSA1>
10.63

>  <SlogP_VSA2>
63.89

>  <SlogP_VSA3>
6.54

>  <SlogP_VSA4>
6.92

>  <SlogP_VSA5>
21.48

>  <SlogP_VSA6>
79.25

>  <SlogP_VSA7>
0

>  <SlogP_VSA8>
11.26

>  <SlogP_VSA9>
0

>  <SlogP_VSA10>
17.32

>  <SlogP_VSA11>
0

>  <EState_VSA1>
0

>  <EState_VSA2>
5.91

>  <EState_VSA3>
17.2

>  <EState_VSA4>
55.23

>  <EState_VSA5>
5.56

>  <EState_VSA6>
18.59

>  <EState_VSA7>
67.59

>  <EState_VSA8>
42.43

>  <EState_VSA9>
0

>  <EState_VSA10>
4.79

>  <VSA_EState1>
0

>  <VSA_EState2>
30.86

>  <VSA_EState3>
6.29

>  <VSA_EState4>
6.08

>  <VSA_EState5>
0.33

>  <VSA_EState6>
19.31

>  <VSA_EState7>
5.22

>  <VSA_EState8>
7.24

>  <VSA_EState9>
2.16

>  <apol>
77.6

>  <bpol>
39.95

>  <nRing>
5

>  <nHRing>
3

>  <naRing>
4

>  <naHRing>
2

>  <nARing 2>
1

>  <nAHRing 2>
1

>  <nFRing>
0

>  <nFHRing>
0

>  <nFaRing>
0

>  <nFaHRing>
0

>  <nFARing 2>
0

>  <nFAHRing 2>
0

>  <nRot>
7

>  <SLogP>
4.59

>  <SMR>
146.89

>  <TopoPSA(NO)>
86.28

>  <TopoPSA>
86.28

>  <JGI1>
0.18

>  <JGI2>
0.06

>  <JGI3>
0.03

>  <JGI4>
0.04

>  <JGI5>
0.02

>  <Diameter>
22

>  <Radius>
11

>  <TMWC10>
156.06

>  <TSRW10>
73.59

>  <MW>
493.26

>  <AMW>
7.25

>  <WPath>
5324

>  <WPol>
56

>  <Zagreb1>
194

>  <Zagreb2>
224

>  <mZagreb2>
8.08

>  <yes>


>  <nAR-cont>
0.816016

>  <nHA-cont>
0.433355441

>  <MWHBN>
0.405232772

>  <MWHBN-cont>
0.455492879

>  <TPSA-cont>
0.397712023

>  <pka_cont>
0.97

>  <yes.1>


>  <BBB_SCORE>
3.213034805

>  <MMFF94 Energy>
66.81

$$$$
Compound 29
Actelion Java MolfileCreator 2.0

  0  0  0  0  0  0              0 V3000
M  V30 BEGIN CTAB
M  V30 COUNTS 36 39 0 0 0
M  V30 BEGIN ATOM
M  V30 1 Cl 0.0 1.8761 4.409 0
M  V30 2 C 0.4482 0.9058 3.0619 0
M  V30 3 C -0.4564 0.7108 2.0193 0
M  V30 4 C 1.7083 0.313 3.0275 0
M  V30 5 C -0.0963 -0.0721 0.911 0
M  V30 6 C 2.0734 -0.4857 1.9423 0
M  V30 7 C -1.1097 -0.2492 -0.1818 0
M  V30 8 C 1.1778 -0.6704 0.8787 0
M  V30 9 N -1.4011 -1.3793 -0.7361 0
M  V30 10 C -1.8462 0.9599 -0.6732 0
M  V30 11 N 1.5402 -1.5295 -0.1807 0
M  V30 12 C -0.7082 -2.5959 -0.3404 0 CFG=2
M  V30 13 C -1.215 2.2067 -0.7726 0
M  V30 14 C -3.1828 0.8254 -1.0683 0
M  V30 15 C 0.7215 -2.4802 -0.7418 0
M  V30 16 C 2.7314 -1.6225 -0.8741 0
M  V30 17 O -1.2336 -3.7574 -0.9628 0
M  V30 18 C -1.9286 3.3142 -1.2367 0
M  V30 19 C -3.8913 1.9351 -1.5315 0
M  V30 20 N 1.3847 -3.1438 -1.6667 0
M  V30 21 N 2.6472 -2.6133 -1.7396 0
M  V30 22 C 3.8977 -0.7232 -0.718 0
M  V30 23 C -3.2655 3.1786 -1.6113 0
M  V30 24 H -1.4449 1.1622 2.0826 0
M  V30 25 H 2.4033 0.4532 3.853 0
M  V30 26 H 3.0429 -0.979 1.9668 0
M  V30 27 H -0.8014 -2.7655 0.7384 0
M  V30 28 H -0.1681 2.3326 -0.512 0
M  V30 29 H -3.6768 -0.1429 -1.0181 0
M  V30 30 H -1.0571 -3.6197 -1.9101 0
M  V30 31 H -1.4405 4.2827 -1.3159 0
M  V30 32 H -4.9296 1.8267 -1.8361 0
M  V30 33 H 4.5296 -1.0499 0.1127 0
M  V30 34 H 4.509 -0.7382 -1.6264 0
M  V30 35 H 3.5895 0.3127 -0.5477 0
M  V30 36 H -3.818 4.0411 -1.9771 0
M  V30 END ATOM
M  V30 BEGIN BOND
M  V30 1 1 1 2
M  V30 2 2 2 3
M  V30 3 1 2 4
M  V30 4 1 3 5
M  V30 5 2 4 6
M  V30 6 1 5 7
M  V30 7 2 5 8
M  V30 8 2 7 9
M  V30 9 1 7 10
M  V30 10 1 8 11
M  V30 11 1 9 12
M  V30 12 2 10 13
M  V30 13 1 10 14
M  V30 14 1 11 15
M  V30 15 1 11 16
M  V30 16 1 12 17
M  V30 17 1 13 18
M  V30 18 2 14 19
M  V30 19 2 15 20
M  V30 20 2 16 21
M  V30 21 1 16 22
M  V30 22 2 18 23
M  V30 23 1 6 8
M  V30 24 1 12 15
M  V30 25 1 19 23
M  V30 26 1 20 21
M  V30 27 1 3 24
M  V30 28 1 4 25
M  V30 29 1 6 26
M  V30 30 1 12 27
M  V30 31 1 13 28
M  V30 32 1 14 29
M  V30 33 1 17 30
M  V30 34 1 18 31
M  V30 35 1 19 32
M  V30 36 1 22 33
M  V30 37 1 22 34
M  V30 38 1 22 35
M  V30 39 1 23 36
M  V30 END BOND
M  V30 BEGIN COLLECTION
M  V30 MDLV30/STERAC1 ATOMS=(1 12)
M  V30 END COLLECTION
M  V30 END CTAB
M  END
>  <Column 1>
43

>  <level_0>
48

>  <index>
48

>  <Unnamed: 0>
48

>  <NO.>
49

>  <Name>
4-hydroxyalprazolam

>  <IUPAC_name>
8-chloro-1-methyl-6-phenyl-4h-[1-2-4]triazolo[4-3-a][1-4]benzodiazepin-4-ol

>  <SMILES>
Cc1nnc2n1-c1ccc(Cl)cc1C(c1ccccc1)=NC2O

>  <CID>
182017

>  <logBB>
-1.48

>  <BBB+/BBB->
BBB-

>  <Inchi>
InChI=1S/C17H13ClN4O/c1-10-20-21-16-17(23)19-15(11-5-3-2-4-6-11)13-9-12(18)7-8-14(13)22(10)16/h2-9-17-23H-1H3

>  <threshold>


>  <reference>
R2|R2|R8|R12|R21|R25|R27|R40|R43|R46|R47|

>  <group>
A

>  <Class>
-1

>  <ABC>
18.43

>  <ABCGG>
15.16

>  <nAcid>
0

>  <nBase>
0

>  <nAromAtom>
17

>  <nAromBond>
17

>  <nAtom>
36

>  <nHeavyAtom>
23

>  <nSpiro>
0

>  <nBridgehead>
0

>  <nHetero>
6

>  <nN>
4

>  <nO>
1

>  <nF>
0

>  <BalabanJ>
1.63

>  <BertzCT>
917.6

>  <nBonds>
39

>  <nBondsO>
26

>  <nBondsS>
21

>  <nBondsD>
1

>  <nBondsT>
0

>  <nBondsA>
17

>  <nBondsM>
18

>  <nBondsKS>
30

>  <nBondsKD>
9

>  <RNCG>
0.22

>  <RPCG>
0.13

>  <FCSP3>
0.12

>  <SZ>
28

>  <Sm>
27.04

>  <Sv>
25.36

>  <Sse>
36.52

>  <Sp>
26.61

>  <Si>
40.22

>  <MZ>
0.78

>  <Mm>
0.75

>  <Mv>
0.7

>  <Mse>
1.01

>  <Mp>
0.74

>  <Mi>
1.12

>  <NsCH3>
1

>  <NdCH2>
0

>  <NssCH2>
0

>  <NtCH>
0

>  <NdsCH>
0

>  <NaaCH>
8

>  <NsssCH>
1

>  <NddC>
0

>  <NtsC>
0

>  <NdssC>
1

>  <NaasC>
6

>  <NaaaC>
0

>  <NssssC>
0

>  <NsNH3>
0

>  <NsNH2>
0

>  <NssNH2>
0

>  <NdNH>
0

>  <NssNH>
0

>  <NaaNH>
0

>  <NtN>
0

>  <NsssNH>
0

>  <NdsN>
1

>  <NaaN>
2

>  <NsssN>
0

>  <NddsN>
0

>  <NaasN>
1

>  <NssssN>
0

>  <NsOH>
1

>  <NdO>
0

>  <NssO>
0

>  <NaaO>
0

>  <NsF>
0

>  <NsSiH3>
0

>  <NssSiH2>
0

>  <NsssSiH>
0

>  <NssssSi>
0

>  <NsPH2>
0

>  <NssPH>
0

>  <NsssP>
0

>  <NdsssP>
0

>  <NsssssP>
0

>  <NsSH>
0

>  <NdS>
0

>  <NssS>
0

>  <NaaS>
0

>  <NdssS>
0

>  <NddssS>
0

>  <NsCl>
1

>  <NsBr>
0

>  <NsI>
0

>  <fragCpx>
170.06

>  <fMF>
0.56

>  <nHBAcc>
5

>  <nHBDon>
1

>  <Kier1>
16.47

>  <Kier2>
6.72

>  <Lipinski>
1

>  <GhoseFilter>
1

>  <FilterItLogS>
-4.62

>  <VMcGowan>
226.28

>  <LabuteASA>
137.45

>  <PEOE_VSA1>
5.11

>  <PEOE_VSA2>
4.57

>  <PEOE_VSA3>
4.99

>  <PEOE_VSA4>
0

>  <PEOE_VSA5>
10.2

>  <PEOE_VSA6>
41.93

>  <PEOE_VSA7>
25.12

>  <PEOE_VSA8>
16.15

>  <PEOE_VSA9>
11.4

>  <PEOE_VSA10>
5.82

>  <PEOE_VSA11>
5.82

>  <PEOE_VSA12>
6.23

>  <PEOE_VSA13>
0

>  <SMR_VSA1>
5.11

>  <SMR_VSA2>
0

>  <SMR_VSA3>
14.76

>  <SMR_VSA4>
4.99

>  <SMR_VSA5>
13.15

>  <SMR_VSA6>
0

>  <SMR_VSA7>
76.33

>  <SMR_VSA8>
0

>  <SMR_VSA9>
5.69

>  <SlogP_VSA1>
0

>  <SlogP_VSA2>
25.58

>  <SlogP_VSA3>
0

>  <SlogP_VSA4>
6.92

>  <SlogP_VSA5>
29

>  <SlogP_VSA6>
53.52

>  <SlogP_VSA7>
5.02

>  <SlogP_VSA8>
5.69

>  <SlogP_VSA9>
0

>  <SlogP_VSA10>
0

>  <SlogP_VSA11>
0

>  <EState_VSA1>
6.23

>  <EState_VSA2>
0

>  <EState_VSA3>
22.38

>  <EState_VSA4>
16.81

>  <EState_VSA5>
0

>  <EState_VSA6>
0

>  <EState_VSA7>
60.02

>  <EState_VSA8>
15.19

>  <EState_VSA9>
11.6

>  <EState_VSA10>
5.11

>  <VSA_EState1>
1.82

>  <VSA_EState2>
4.47

>  <VSA_EState3>
19.22

>  <VSA_EState4>
3.28

>  <VSA_EState5>
1.09

>  <VSA_EState6>
15.28

>  <VSA_EState7>
-1.09

>  <VSA_EState8>
1.84

>  <VSA_EState9>
0

>  <apol>
44.44

>  <bpol>
17.54

>  <nRing>
4

>  <nHRing>
2

>  <naRing>
3

>  <naHRing>
1

>  <nARing 2>
1

>  <nAHRing 2>
1

>  <nFRing>
1

>  <nFHRing>
1

>  <nFaRing>
0

>  <nFaHRing>
0

>  <nFARing 2>
1

>  <nFAHRing 2>
1

>  <nRot>
1

>  <SLogP>
3.07

>  <SMR>
88.15

>  <TopoPSA(NO)>
63.3

>  <TopoPSA>
63.3

>  <JGI1>
0.15

>  <JGI2>
0.08

>  <JGI3>
0.04

>  <JGI4>
0.05

>  <JGI5>
0.02

>  <Diameter>
9

>  <Radius>
5

>  <TMWC10>
125.53

>  <TSRW10>
72.17

>  <MW>
324.08

>  <AMW>
9

>  <WPath>
1023

>  <WPol>
43

>  <Zagreb1>
128

>  <Zagreb2>
156

>  <mZagreb2>
4.94

>  <yes>


>  <nAR-cont>
0.816016

>  <nHA-cont>
0.967789328

>  <MWHBN>
0.333292189

>  <MWHBN-cont>
0.731230056

>  <TPSA-cont>
0.558126693

>  <pka_cont>
0.97

>  <yes.1>


>  <BBB_SCORE>
4.481903798

>  <MMFF94 Energy>
58.939

$$$$
Compound 30
Actelion Java MolfileCreator 2.0

  0  0  0  0  0  0              0 V3000
M  V30 BEGIN CTAB
M  V30 COUNTS 42 44 0 0 0
M  V30 BEGIN ATOM
M  V30 1 O 2.9392 1.5085 -0.6349 0
M  V30 2 C 2.0595 2.0358 -1.2996 0
M  V30 3 O 1.7868 3.3436 -1.1544 0
M  V30 4 C 1.2443 1.3487 -2.3565 0
M  V30 5 C -0.2007 1.0252 -1.9277 0 CFG=2
M  V30 6 O -0.9279 2.2815 -1.9675 0
M  V30 7 C -0.2548 0.4456 -0.5409 0
M  V30 8 C -0.7859 0.0549 -2.9894 0
M  V30 9 C -2.0021 2.47 -1.0302 0
M  V30 10 N 0.3198 -0.7282 -0.1335 0
M  V30 11 C -0.8623 1.0131 0.5574 0
M  V30 12 C -2.2552 -0.3182 -2.842 0
M  V30 13 C -1.5534 2.3168 0.4286 0
M  V30 14 C 0.0715 -0.9412 1.2093 0
M  V30 15 C -0.6716 0.151 1.6666 0
M  V30 16 C 0.46 -2.0088 2.0423 0
M  V30 17 C -1.054 0.1964 3.0198 0
M  V30 18 C 0.0631 -1.9218 3.3905 0
M  V30 19 C 1.283 -3.1805 1.5721 0
M  V30 20 C -0.6803 -0.8457 3.871 0
M  V30 21 C 2.7733 -2.886 1.6469 0
M  V30 22 H 2.3747 3.6288 -0.4251 0
M  V30 23 H 1.2619 1.9789 -3.2546 0
M  V30 24 H 1.7873 0.4286 -2.6112 0
M  V30 25 H -0.6719 0.5072 -3.9837 0
M  V30 26 H -0.2021 -0.8748 -2.999 0
M  V30 27 H -2.3919 3.4815 -1.1853 0
M  V30 28 H -2.8181 1.7782 -1.2572 0
M  V30 29 H 0.8641 -1.3524 -0.712 0
M  V30 30 H -2.5108 -1.1015 -3.5637 0
M  V30 31 H -2.4832 -0.7011 -1.8434 0
M  V30 32 H -2.9039 0.5353 -3.0561 0
M  V30 33 H -2.4154 2.3849 1.0996 0
M  V30 34 H -0.8487 3.1161 0.6861 0
M  V30 35 H -1.6289 1.0338 3.4026 0
M  V30 36 H 0.344 -2.7122 4.0847 0
M  V30 37 H 1.0087 -3.4319 0.5409 0
M  V30 38 H 1.0489 -4.0664 2.1744 0
M  V30 39 H -0.9686 -0.8133 4.9185 0
M  V30 40 H 3.3476 -3.7511 1.3009 0
M  V30 41 H 3.0824 -2.6618 2.6736 0
M  V30 42 H 3.0422 -2.0284 1.021 0
M  V30 END ATOM
M  V30 BEGIN BOND
M  V30 1 2 1 2
M  V30 2 1 2 3
M  V30 3 1 2 4
M  V30 4 1 4 5
M  V30 5 1 5 6
M  V30 6 1 5 7
M  V30 7 1 5 8
M  V30 8 1 6 9
M  V30 9 1 7 10
M  V30 10 2 7 11
M  V30 11 1 8 12
M  V30 12 1 9 13
M  V30 13 1 10 14
M  V30 14 1 11 15
M  V30 15 1 14 16
M  V30 16 1 15 17
M  V30 17 2 16 18
M  V30 18 1 16 19
M  V30 19 2 17 20
M  V30 20 1 19 21
M  V30 21 1 11 13
M  V30 22 2 14 15
M  V30 23 1 18 20
M  V30 24 1 3 22
M  V30 25 1 4 23
M  V30 26 1 4 24
M  V30 27 1 8 25
M  V30 28 1 8 26
M  V30 29 1 9 27
M  V30 30 1 9 28
M  V30 31 1 10 29
M  V30 32 1 12 30
M  V30 33 1 12 31
M  V30 34 1 12 32
M  V30 35 1 13 33
M  V30 36 1 13 34
M  V30 37 1 17 35
M  V30 38 1 18 36
M  V30 39 1 19 37
M  V30 40 1 19 38
M  V30 41 1 20 39
M  V30 42 1 21 40
M  V30 43 1 21 41
M  V30 44 1 21 42
M  V30 END BOND
M  V30 BEGIN COLLECTION
M  V30 MDLV30/STERAC1 ATOMS=(1 5)
M  V30 END COLLECTION
M  V30 END CTAB
M  END
>  <Column 1>
44

>  <level_0>
49

>  <index>
49

>  <Unnamed: 0>
49

>  <NO.>
50

>  <Name>
etodolac

>  <IUPAC_name>
2-(1-8-diethyl-4-9-dihydro-3h-pyrano[3-4-b]indol-1-yl)acetic acid

>  <SMILES>
CCc1cccc2c3c([nH]c12)C(CC)(CC(=O)O)OCC3

>  <CID>
3308

>  <logBB>
-1.42

>  <BBB+/BBB->
BBB-

>  <Inchi>
InChI=1S/C17H21NO3/c1-3-11-6-5-7-12-13-8-9-21-17(4-2-10-14(19)20)16(13)18-15(11)12/h5-7-18H-3-4-8-10H2-1-2H3-(H-19-20)

>  <threshold>


>  <reference>
R27|R47|R18|R26|R3|R40|R25|R41|R38|R2|R2|R8|R21|R27|R41|R43|R46|R3|

>  <group>
A

>  <Class>
-1

>  <ABC>
16.26

>  <ABCGG>
13.99

>  <nAcid>
1

>  <nBase>
0

>  <nAromAtom>
9

>  <nAromBond>
10

>  <nAtom>
42

>  <nHeavyAtom>
21

>  <nSpiro>
0

>  <nBridgehead>
0

>  <nHetero>
4

>  <nN>
1

>  <nO>
3

>  <nF>
0

>  <BalabanJ>
1.85

>  <BertzCT>
688.65

>  <nBonds>
44

>  <nBondsO>
23

>  <nBondsS>
33

>  <nBondsD>
1

>  <nBondsT>
0

>  <nBondsA>
10

>  <nBondsM>
11

>  <nBondsKS>
39

>  <nBondsKD>
5

>  <RNCG>
0.26

>  <RPCG>
0.17

>  <FCSP3>
0.47

>  <SZ>
25.67

>  <Sm>
23.92

>  <Sv>
25.59

>  <Sse>
41.98

>  <Sp>
27.48

>  <Si>
47.28

>  <MZ>
0.61

>  <Mm>
0.57

>  <Mv>
0.61

>  <Mse>
1

>  <Mp>
0.65

>  <Mi>
1.13

>  <NsCH3>
2

>  <NdCH2>
0

>  <NssCH2>
5

>  <NtCH>
0

>  <NdsCH>
0

>  <NaaCH>
3

>  <NsssCH>
0

>  <NddC>
0

>  <NtsC>
0

>  <NdssC>
1

>  <NaasC>
3

>  <NaaaC>
2

>  <NssssC>
1

>  <NsNH3>
0

>  <NsNH2>
0

>  <NssNH2>
0

>  <NdNH>
0

>  <NssNH>
0

>  <NaaNH>
1

>  <NtN>
0

>  <NsssNH>
0

>  <NdsN>
0

>  <NaaN>
0

>  <NsssN>
0

>  <NddsN>
0

>  <NaasN>
0

>  <NssssN>
0

>  <NsOH>
1

>  <NdO>
1

>  <NssO>
1

>  <NaaO>
0

>  <NsF>
0

>  <NsSiH3>
0

>  <NssSiH2>
0

>  <NsssSiH>
0

>  <NssssSi>
0

>  <NsPH2>
0

>  <NssPH>
0

>  <NsssP>
0

>  <NdsssP>
0

>  <NsssssP>
0

>  <NsSH>
0

>  <NdS>
0

>  <NssS>
0

>  <NaaS>
0

>  <NdssS>
0

>  <NddssS>
0

>  <NsCl>
0

>  <NsBr>
0

>  <NsI>
0

>  <fragCpx>
109.04

>  <fMF>
0.31

>  <nHBAcc>
2

>  <nHBDon>
2

>  <Kier1>
15.88

>  <Kier2>
6.25

>  <Lipinski>
1

>  <GhoseFilter>
1

>  <FilterItLogS>
-4.75

>  <VMcGowan>
223.9

>  <LabuteASA>
123.67

>  <PEOE_VSA1>
14.83

>  <PEOE_VSA2>
4.79

>  <PEOE_VSA3>
0

>  <PEOE_VSA4>
0

>  <PEOE_VSA5>
0

>  <PEOE_VSA6>
32.05

>  <PEOE_VSA7>
30.39

>  <PEOE_VSA8>
10.9

>  <PEOE_VSA9>
18.72

>  <PEOE_VSA10>
5.6

>  <PEOE_VSA11>
0

>  <PEOE_VSA12>
0

>  <PEOE_VSA13>
0

>  <SMR_VSA1>
14.64

>  <SMR_VSA2>
0

>  <SMR_VSA3>
4.98

>  <SMR_VSA4>
0

>  <SMR_VSA5>
45.13

>  <SMR_VSA6>
6.61

>  <SMR_VSA7>
35.02

>  <SMR_VSA8>
0

>  <SMR_VSA9>
0

>  <SlogP_VSA1>
0

>  <SlogP_VSA2>
22.67

>  <SlogP_VSA3>
27.97

>  <SlogP_VSA4>
0

>  <SlogP_VSA5>
43.51

>  <SlogP_VSA6>
18.2

>  <SlogP_VSA7>
0

>  <SlogP_VSA8>
10.9

>  <SlogP_VSA9>
0

>  <SlogP_VSA10>
0

>  <SlogP_VSA11>
0

>  <EState_VSA1>
11.57

>  <EState_VSA2>
6.42

>  <EState_VSA3>
13.03

>  <EState_VSA4>
24.05

>  <EState_VSA5>
16.51

>  <EState_VSA6>
0

>  <EState_VSA7>
6.92

>  <EState_VSA8>
30.11

>  <EState_VSA9>
4.74

>  <EState_VSA10>
9.9

>  <VSA_EState1>
5.94

>  <VSA_EState2>
14.78

>  <VSA_EState3>
10.49

>  <VSA_EState4>
3.88

>  <VSA_EState5>
-0.82

>  <VSA_EState6>
6.32

>  <VSA_EState7>
2.45

>  <VSA_EState8>
4.71

>  <VSA_EState9>
0

>  <apol>
45.9

>  <bpol>
24.24

>  <nRing>
3

>  <nHRing>
2

>  <naRing>
2

>  <naHRing>
1

>  <nARing 2>
1

>  <nAHRing 2>
1

>  <nFRing>
1

>  <nFHRing>
1

>  <nFaRing>
0

>  <nFaHRing>
0

>  <nFARing 2>
1

>  <nFAHRing 2>
1

>  <nRot>
4

>  <SLogP>
3.38

>  <SMR>
81.55

>  <TopoPSA(NO)>
62.32

>  <TopoPSA>
62.32

>  <JGI1>
0.22

>  <JGI2>
0.09

>  <JGI3>
0.06

>  <JGI4>
0.05

>  <JGI5>
0.03

>  <Diameter>
9

>  <Radius>
5

>  <TMWC10>
120.02

>  <TSRW10>
69.92

>  <MW>
287.15

>  <AMW>
6.84

>  <WPath>
825

>  <WPol>
38

>  <Zagreb1>
114

>  <Zagreb2>
140

>  <mZagreb2>
4.74

>  <yes>


>  <nAR-cont>
0.816016

>  <nHA-cont>
0.994529749

>  <MWHBN>
0.236050857

>  <MWHBN-cont>
0.980046993

>  <TPSA-cont>
0.564967702

>  <pka_cont>
0.97

>  <yes.1>


>  <BBB_SCORE>
4.895551643

>  <MMFF94 Energy>
15.786

$$$$
Compound 31
Actelion Java MolfileCreator 2.0

  0  0  0  0  0  0              0 V3000
M  V30 BEGIN CTAB
M  V30 COUNTS 38 38 0 0 0
M  V30 BEGIN ATOM
M  V30 1 O -4.5173 -1.7894 -4.7514 0
M  V30 2 C -3.6154 -1.0024 -4.4813 0
M  V30 3 N -3.825 0.3444 -4.5452 0
M  V30 4 C -2.2078 -1.4429 -4.1273 0
M  V30 5 C -1.6861 -0.8463 -2.841 0
M  V30 6 C -2.3202 -1.1202 -1.6234 0
M  V30 7 C -0.5567 -0.0176 -2.8428 0
M  V30 8 C -1.8373 -0.565 -0.4364 0
M  V30 9 C -0.0749 0.5357 -1.6507 0
M  V30 10 C -0.7138 0.2636 -0.4416 0
M  V30 11 O -0.3484 0.7372 0.7875 0
M  V30 12 C 0.8405 1.5302 0.8522 0
M  V30 13 C 1.1035 1.9253 2.3195 0 CFG=2
M  V30 14 O 2.2227 2.7826 2.4125 0
M  V30 15 N 1.2787 0.8308 3.2688 0
M  V30 16 C 2.4269 -0.0448 2.9919 0
M  V30 17 C 3.1788 -0.2464 4.3087 0
M  V30 18 C 1.9767 -1.4002 2.4422 0
M  V30 19 H -4.7509 0.6698 -4.7887 0
M  V30 20 H -3.1244 1.0194 -4.2706 0
M  V30 21 H -1.5569 -1.1787 -4.9694 0
M  V30 22 H -2.1916 -2.5359 -4.042 0
M  V30 23 H -3.1958 -1.7665 -1.5889 0
M  V30 24 H -0.0365 0.204 -3.7726 0
M  V30 25 H -2.3421 -0.7842 0.5014 0
M  V30 26 H 0.8014 1.1732 -1.7045 0
M  V30 27 H 1.7012 0.9837 0.4478 0
M  V30 28 H 0.7133 2.4481 0.2639 0
M  V30 29 H 0.2358 2.499 2.6663 0
M  V30 30 H 2.4588 2.726 3.3551 0
M  V30 31 H 0.4218 0.274 3.2366 0
M  V30 32 H 3.1252 0.4085 2.2786 0
M  V30 33 H 2.5458 -0.7195 5.0683 0
M  V30 34 H 3.5318 0.7104 4.7096 0
M  V30 35 H 4.0559 -0.8854 4.1585 0
M  V30 36 H 1.4544 -1.2919 1.4872 0
M  V30 37 H 1.3048 -1.9147 3.1385 0
M  V30 38 H 2.841 -2.0514 2.272 0
M  V30 END ATOM
M  V30 BEGIN BOND
M  V30 1 2 1 2
M  V30 2 1 2 3
M  V30 3 1 2 4
M  V30 4 1 4 5
M  V30 5 2 5 6
M  V30 6 1 5 7
M  V30 7 1 6 8
M  V30 8 2 7 9
M  V30 9 2 8 10
M  V30 10 1 10 11
M  V30 11 1 11 12
M  V30 12 1 12 13
M  V30 13 1 13 14
M  V30 14 1 13 15
M  V30 15 1 15 16
M  V30 16 1 16 17
M  V30 17 1 16 18
M  V30 18 1 9 10
M  V30 19 1 3 19
M  V30 20 1 3 20
M  V30 21 1 4 21
M  V30 22 1 4 22
M  V30 23 1 6 23
M  V30 24 1 7 24
M  V30 25 1 8 25
M  V30 26 1 9 26
M  V30 27 1 12 27
M  V30 28 1 12 28
M  V30 29 1 13 29
M  V30 30 1 14 30
M  V30 31 1 15 31
M  V30 32 1 16 32
M  V30 33 1 17 33
M  V30 34 1 17 34
M  V30 35 1 17 35
M  V30 36 1 18 36
M  V30 37 1 18 37
M  V30 38 1 18 38
M  V30 END BOND
M  V30 BEGIN COLLECTION
M  V30 MDLV30/STERAC1 ATOMS=(1 13)
M  V30 END COLLECTION
M  V30 END CTAB
M  END
>  <Column 1>
45

>  <level_0>
50

>  <index>
50

>  <Unnamed: 0>
50

>  <NO.>
51

>  <Name>
atenolol

>  <IUPAC_name>


>  <SMILES>
CC(C)NC(O)COc1ccc(CC(N)=O)cc1

>  <CID>


>  <logBB>
-1.42

>  <BBB+/BBB->
BBB-

>  <Inchi>
InChI=1S/C13H20N2O3/c1-9(2)15-13(17)8-18-11-5-3-10(4-6-11)7-12(14)16/h3-6-9-13-15-17H-7-8H2-1-2H3-(H2-14-16)

>  <threshold>


>  <reference>
R18|R26|R27|

>  <group>
A

>  <Class>
-1

>  <ABC>
13.27

>  <ABCGG>
11.22

>  <nAcid>
0

>  <nBase>
1

>  <nAromAtom>
6

>  <nAromBond>
6

>  <nAtom>
38

>  <nHeavyAtom>
18

>  <nSpiro>
0

>  <nBridgehead>
0

>  <nHetero>
5

>  <nN>
2

>  <nO>
3

>  <nF>
0

>  <BalabanJ>
2.12

>  <BertzCT>
376.33

>  <nBonds>
38

>  <nBondsO>
18

>  <nBondsS>
31

>  <nBondsD>
1

>  <nBondsT>
0

>  <nBondsA>
6

>  <nBondsM>
7

>  <nBondsKS>
34

>  <nBondsKD>
4

>  <RNCG>
0.23

>  <RPCG>
0.11

>  <FCSP3>
0.46

>  <SZ>
22.67

>  <Sm>
21.01

>  <Sv>
22.08

>  <Sse>
38.2

>  <Sp>
23.74

>  <Si>
43.36

>  <MZ>
0.6

>  <Mm>
0.55

>  <Mv>
0.58

>  <Mse>
1.01

>  <Mp>
0.62

>  <Mi>
1.14

>  <NsCH3>
2

>  <NdCH2>
0

>  <NssCH2>
2

>  <NtCH>
0

>  <NdsCH>
0

>  <NaaCH>
4

>  <NsssCH>
2

>  <NddC>
0

>  <NtsC>
0

>  <NdssC>
1

>  <NaasC>
2

>  <NaaaC>
0

>  <NssssC>
0

>  <NsNH3>
0

>  <NsNH2>
1

>  <NssNH2>
0

>  <NdNH>
0

>  <NssNH>
1

>  <NaaNH>
0

>  <NtN>
0

>  <NsssNH>
0

>  <NdsN>
0

>  <NaaN>
0

>  <NsssN>
0

>  <NddsN>
0

>  <NaasN>
0

>  <NssssN>
0

>  <NsOH>
1

>  <NdO>
1

>  <NssO>
1

>  <NaaO>
0

>  <NsF>
0

>  <NsSiH3>
0

>  <NssSiH2>
0

>  <NsssSiH>
0

>  <NssssSi>
0

>  <NsPH2>
0

>  <NssPH>
0

>  <NsssP>
0

>  <NdsssP>
0

>  <NsssssP>
0

>  <NsSH>
0

>  <NdS>
0

>  <NssS>
0

>  <NaaS>
0

>  <NdssS>
0

>  <NddssS>
0

>  <NsCl>
0

>  <NsBr>
0

>  <NsI>
0

>  <fragCpx>
18.05

>  <fMF>
0.16

>  <nHBAcc>
4

>  <nHBDon>
3

>  <Kier1>
16.06

>  <Kier2>
8.23

>  <Lipinski>
1

>  <GhoseFilter>
1

>  <FilterItLogS>
-2.29

>  <VMcGowan>
203.54

>  <LabuteASA>
106.95

>  <PEOE_VSA1>
15.58

>  <PEOE_VSA2>
10.11

>  <PEOE_VSA3>
0

>  <PEOE_VSA4>
0

>  <PEOE_VSA5>
0

>  <PEOE_VSA6>
12.13

>  <PEOE_VSA7>
31.54

>  <PEOE_VSA8>
6.04

>  <PEOE_VSA9>
6.42

>  <PEOE_VSA10>
18.58

>  <PEOE_VSA11>
0

>  <PEOE_VSA12>
5.91

>  <PEOE_VSA13>
0

>  <SMR_VSA1>
14.64

>  <SMR_VSA2>
0

>  <SMR_VSA3>
5.32

>  <SMR_VSA4>
5.73

>  <SMR_VSA5>
32.54

>  <SMR_VSA6>
6.61

>  <SMR_VSA7>
29.83

>  <SMR_VSA8>
0

>  <SMR_VSA9>
5.75

>  <SlogP_VSA1>
15.79

>  <SlogP_VSA2>
29.89

>  <SlogP_VSA3>
11.22

>  <SlogP_VSA4>
0

>  <SlogP_VSA5>
19.41

>  <SlogP_VSA6>
24.27

>  <SlogP_VSA7>
0

>  <SlogP_VSA8>
0

>  <SlogP_VSA9>
0

>  <SlogP_VSA10>
0

>  <SlogP_VSA11>
5.75

>  <EState_VSA1>
6.23

>  <EState_VSA2>
24.98

>  <EState_VSA3>
5.75

>  <EState_VSA4>
5.56

>  <EState_VSA5>
0

>  <EState_VSA6>
24.27

>  <EState_VSA7>
13.85

>  <EState_VSA8>
5.32

>  <EState_VSA9>
10.47

>  <EState_VSA10>
9.9

>  <VSA_EState1>
5.4

>  <VSA_EState2>
10.72

>  <VSA_EState3>
12.48

>  <VSA_EState4>
5.94

>  <VSA_EState5>
0.29

>  <VSA_EState6>
7.26

>  <VSA_EState7>
-0.48

>  <VSA_EState8>
4.07

>  <VSA_EState9>
0

>  <apol>
39.65

>  <bpol>
22.67

>  <nRing>
1

>  <nHRing>
0

>  <naRing>
1

>  <naHRing>
0

>  <nARing 2>
0

>  <nAHRing 2>
0

>  <nFRing>
0

>  <nFHRing>
0

>  <nFaRing>
0

>  <nFaHRing>
0

>  <nFARing 2>
0

>  <nFAHRing 2>
0

>  <nRot>
7

>  <SLogP>
0.41

>  <SMR>
69.11

>  <TopoPSA(NO)>
84.58

>  <TopoPSA>
84.58

>  <JGI1>
0.28

>  <JGI2>
0.06

>  <JGI3>
0.04

>  <JGI4>
0.04

>  <JGI5>
0.02

>  <Diameter>
12

>  <Radius>
6

>  <TMWC10>
104.14

>  <TSRW10>
49.71

>  <MW>
252.15

>  <AMW>
6.64

>  <WPath>
747

>  <WPol>
20

>  <Zagreb1>
82

>  <Zagreb2>
87

>  <mZagreb2>
4.08

>  <yes>


>  <nAR-cont>
0.336376

>  <nHA-cont>
0.991161285

>  <MWHBN>
0.440827373

>  <MWHBN-cont>
0.319237081

>  <TPSA-cont>
0.409579079

>  <pka_cont>
0.97

>  <yes.1>


>  <BBB_SCORE>
3.110551064

>  <MMFF94 Energy>
3.9679

$$$$
Compound 32
Actelion Java MolfileCreator 2.0

  0  0  0  0  0  0              0 V3000
M  V30 BEGIN CTAB
M  V30 COUNTS 33 33 0 0 0
M  V30 BEGIN ATOM
M  V30 1 S 0.7943 -1.7482 2.5437 0
M  V30 2 C 1.9002 -1.5742 1.1065 0
M  V30 3 C -0.6632 -0.8331 1.9403 0
M  V30 4 C 2.5152 -0.2099 1.0558 0
M  V30 5 C -1.5197 -1.6812 0.9962 0
M  V30 6 N 3.3519 0.2614 1.9228 0
M  V30 7 C 2.2276 0.7715 -0.0422 0 CFG=1
M  V30 8 N -2.5936 -0.8891 0.4237 0
M  V30 9 C 3.6271 1.5278 1.4806 0
M  V30 10 N 3.0552 1.9222 0.3854 0
M  V30 11 C 2.6997 0.2885 -1.3993 0
M  V30 12 C -2.4202 -0.0324 -0.6198 0
M  V30 13 N -1.2692 0.1288 -1.1704 0
M  V30 14 N -3.554 0.6731 -1.0571 0
M  V30 15 C -1.1005 1.0449 -2.2848 0
M  V30 16 C -4.7366 0.4149 -0.5125 0
M  V30 17 N -5.7575 0.1782 -0.0216 0
M  V30 18 H 2.709 -2.304 1.2119 0
M  V30 19 H 1.3672 -1.7977 0.1801 0
M  V30 20 H -1.2629 -0.5547 2.8146 0
M  V30 21 H -0.3431 0.1042 1.4783 0
M  V30 22 H -0.9248 -2.1288 0.1925 0
M  V30 23 H -1.9656 -2.5129 1.5548 0
M  V30 24 H 1.1717 1.0498 -0.0476 0
M  V30 25 H -3.4983 -0.9987 0.8636 0
M  V30 26 H 4.3152 2.1741 2.0482 0
M  V30 27 H 3.7432 -0.0445 -1.3667 0
M  V30 28 H 2.6296 1.0901 -2.142 0
M  V30 29 H 2.095 -0.5541 -1.7487 0
M  V30 30 H -3.4639 1.3228 -1.8331 0
M  V30 31 H -1.3117 2.078 -1.9905 0
M  V30 32 H -1.7253 0.7628 -3.1385 0
M  V30 33 H -0.0604 1.0095 -2.6222 0
M  V30 END ATOM
M  V30 BEGIN BOND
M  V30 1 1 1 2
M  V30 2 1 1 3
M  V30 3 1 2 4
M  V30 4 1 3 5
M  V30 5 2 4 6
M  V30 6 1 4 7
M  V30 7 1 5 8
M  V30 8 1 6 9
M  V30 9 1 7 10
M  V30 10 1 7 11
M  V30 11 1 8 12
M  V30 12 2 12 13
M  V30 13 1 12 14
M  V30 14 1 13 15
M  V30 15 1 14 16
M  V30 16 3 16 17
M  V30 17 2 9 10
M  V30 18 1 2 18
M  V30 19 1 2 19
M  V30 20 1 3 20
M  V30 21 1 3 21
M  V30 22 1 5 22
M  V30 23 1 5 23
M  V30 24 1 7 24
M  V30 25 1 8 25
M  V30 26 1 9 26
M  V30 27 1 11 27
M  V30 28 1 11 28
M  V30 29 1 11 29
M  V30 30 1 14 30
M  V30 31 1 15 31
M  V30 32 1 15 32
M  V30 33 1 15 33
M  V30 END BOND
M  V30 BEGIN COLLECTION
M  V30 MDLV30/STERAC1 ATOMS=(1 7)
M  V30 END COLLECTION
M  V30 END CTAB
M  END
>  <Column 1>
46

>  <level_0>
51

>  <index>
51

>  <Unnamed: 0>
51

>  <NO.>
52

>  <Name>
cimetidine

>  <IUPAC_name>
1-cyano-2-methyl-3-[2-[(4-methyl-4h-imidazol-5-yl)methylsulfanyl]ethyl]guanidine

>  <SMILES>
CN=C(NC#N)NCCSCC1=NC=NC1C

>  <CID>
152743279

>  <logBB>
-1.42

>  <BBB+/BBB->
BBB-

>  <Inchi>
InChI=1S/C10H16N6S/c1-8-9(16-7-15-8)5-17-4-3-13-10(12-2)14-6-11/h7-8H-3-5H2-1-2H3-(H2-12-13-14)

>  <threshold>


>  <reference>
R36|

>  <group>
A

>  <Class>
-1

>  <ABC>
12.09

>  <ABCGG>
11.14

>  <nAcid>
0

>  <nBase>
5

>  <nAromAtom>
0

>  <nAromBond>
0

>  <nAtom>
33

>  <nHeavyAtom>
17

>  <nSpiro>
0

>  <nBridgehead>
0

>  <nHetero>
7

>  <nN>
6

>  <nO>
0

>  <nF>
0

>  <BalabanJ>
1.96

>  <BertzCT>
367.48

>  <nBonds>
33

>  <nBondsO>
17

>  <nBondsS>
29

>  <nBondsD>
3

>  <nBondsT>
1

>  <nBondsA>
0

>  <nBondsM>
4

>  <nBondsKS>
29

>  <nBondsKD>
3

>  <RNCG>
0.2

>  <RPCG>
0.12

>  <FCSP3>
0.6

>  <SZ>
22.33

>  <Sm>
21.01

>  <Sv>
20.07

>  <Sse>
33.16

>  <Sp>
22.08

>  <Si>
37.99

>  <MZ>
0.68

>  <Mm>
0.64

>  <Mv>
0.61

>  <Mse>
1

>  <Mp>
0.67

>  <Mi>
1.15

>  <NsCH3>
2

>  <NdCH2>
0

>  <NssCH2>
3

>  <NtCH>
0

>  <NdsCH>
1

>  <NaaCH>
0

>  <NsssCH>
1

>  <NddC>
0

>  <NtsC>
1

>  <NdssC>
2

>  <NaasC>
0

>  <NaaaC>
0

>  <NssssC>
0

>  <NsNH3>
0

>  <NsNH2>
0

>  <NssNH2>
0

>  <NdNH>
0

>  <NssNH>
2

>  <NaaNH>
0

>  <NtN>
1

>  <NsssNH>
0

>  <NdsN>
3

>  <NaaN>
0

>  <NsssN>
0

>  <NddsN>
0

>  <NaasN>
0

>  <NssssN>
0

>  <NsOH>
0

>  <NdO>
0

>  <NssO>
0

>  <NaaO>
0

>  <NsF>
0

>  <NsSiH3>
0

>  <NssSiH2>
0

>  <NsssSiH>
0

>  <NssssSi>
0

>  <NsPH2>
0

>  <NssPH>
0

>  <NsssP>
0

>  <NdsssP>
0

>  <NsssssP>
0

>  <NsSH>
0

>  <NdS>
0

>  <NssS>
1

>  <NaaS>
0

>  <NdssS>
0

>  <NddssS>
0

>  <NsCl>
0

>  <NsBr>
0

>  <NsI>
0

>  <fragCpx>
17.07

>  <fMF>
0.15

>  <nHBAcc>
5

>  <nHBDon>
2

>  <Kier1>
15.06

>  <Kier2>
9

>  <Lipinski>
1

>  <GhoseFilter>
1

>  <FilterItLogS>
-2.71

>  <VMcGowan>
195.63

>  <LabuteASA>
105.32

>  <PEOE_VSA1>
5.32

>  <PEOE_VSA2>
15.3

>  <PEOE_VSA3>
4.99

>  <PEOE_VSA4>
17.02

>  <PEOE_VSA5>
0

>  <PEOE_VSA6>
0

>  <PEOE_VSA7>
6.92

>  <PEOE_VSA8>
25.1

>  <PEOE_VSA9>
11.75

>  <PEOE_VSA10>
6.34

>  <PEOE_VSA11>
6.19

>  <PEOE_VSA12>
5.96

>  <PEOE_VSA13>
0

>  <SMR_VSA1>
0

>  <SMR_VSA2>
5.26

>  <SMR_VSA3>
10.63

>  <SMR_VSA4>
14.98

>  <SMR_VSA5>
12.97

>  <SMR_VSA6>
25.1

>  <SMR_VSA7>
0

>  <SMR_VSA8>
0

>  <SMR_VSA9>
6.19

>  <SlogP_VSA1>
10.63

>  <SlogP_VSA2>
49.15

>  <SlogP_VSA3>
0

>  <SlogP_VSA4>
11.46

>  <SlogP_VSA5>
6.92

>  <SlogP_VSA6>
14.98

>  <SlogP_VSA7>
0

>  <SlogP_VSA8>
0

>  <SlogP_VSA9>
0

>  <SlogP_VSA10>
0

>  <SlogP_VSA11>
0

>  <EState_VSA1>
0

>  <EState_VSA2>
6.04

>  <EState_VSA3>
5.96

>  <EState_VSA4>
23.76

>  <EState_VSA5>
0

>  <EState_VSA6>
25.15

>  <EState_VSA7>
13.12

>  <EState_VSA8>
25.61

>  <EState_VSA9>
5.26

>  <EState_VSA10>
0

>  <VSA_EState1>
0

>  <VSA_EState2>
12.24

>  <VSA_EState3>
13.92

>  <VSA_EState4>
1.12

>  <VSA_EState5>
2.33

>  <VSA_EState6>
0.23

>  <VSA_EState7>
3.45

>  <VSA_EState8>
2.8

>  <VSA_EState9>
1.63

>  <apol>
36.87

>  <bpol>
23.64

>  <nRing>
1

>  <nHRing>
1

>  <naRing>
0

>  <naHRing>
0

>  <nARing 2>
1

>  <nAHRing 2>
1

>  <nFRing>
0

>  <nFHRing>
0

>  <nFaRing>
0

>  <nFaHRing>
0

>  <nFARing 2>
0

>  <nFAHRing 2>
0

>  <nRot>
5

>  <SLogP>
0.24

>  <SMR>
72.82

>  <TopoPSA(NO)>
84.93

>  <TopoPSA>
110.23

>  <JGI1>
0.15

>  <JGI2>
0.08

>  <JGI3>
0.05

>  <JGI4>
0.02

>  <JGI5>
0.01

>  <Diameter>
11

>  <Radius>
6

>  <TMWC10>
101.02

>  <TSRW10>
61.51

>  <MW>
252.12

>  <AMW>
7.64

>  <WPath>
664

>  <WPol>
18

>  <Zagreb1>
74

>  <Zagreb2>
80

>  <mZagreb2>
4.19

>  <yes>


>  <nAR-cont>
0.816016

>  <nHA-cont>
0.976740822

>  <MWHBN>
0.440853599

>  <MWHBN-cont>
0.319140446

>  <TPSA-cont>
0.230526151

>  <pka_cont>
0.97

>  <yes.1>


>  <BBB_SCORE>
3.217519794

>  <MMFF94 Energy>
-101.91

$$$$
Compound 33
Actelion Java MolfileCreator 2.0

  0  0  0  0  0  0              0 V3000
M  V30 BEGIN CTAB
M  V30 COUNTS 33 33 0 0 0
M  V30 BEGIN ATOM
M  V30 1 S -0.2367 -1.1841 1.6581 0
M  V30 2 C 1.2985 -0.2702 1.2754 0
M  V30 3 C -1.4309 -0.1768 0.7224 0
M  V30 4 C 2.4596 -0.8214 2.0337 0
M  V30 5 C -1.2869 -0.3028 -0.7966 0
M  V30 6 N 3.4627 -1.4996 1.3722 0
M  V30 7 C 2.7489 -0.7475 3.3867 0
M  V30 8 N -2.358 0.4212 -1.4677 0
M  V30 9 C 4.3225 -1.8542 2.2968 0
M  V30 10 N 3.9329 -1.4261 3.5319 0
M  V30 11 C 2.0281 -0.14 4.5271 0
M  V30 12 C -2.3157 0.7367 -2.7881 0
M  V30 13 N -1.303 0.4593 -3.5221 0
M  V30 14 N -3.5091 1.3492 -3.2007 0
M  V30 15 C -1.3023 0.6591 -4.9591 0
M  V30 16 C -3.3201 2.5002 -3.8533 0
M  V30 17 N -3.2166 3.5181 -4.3951 0
M  V30 18 H 1.5009 -0.3411 0.2027 0
M  V30 19 H 1.1632 0.7857 1.5314 0
M  V30 20 H -2.431 -0.5096 1.023 0
M  V30 21 H -1.3441 0.8698 1.0351 0
M  V30 22 H -0.3194 0.105 -1.1078 0
M  V30 23 H -1.3286 -1.3553 -1.0997 0
M  V30 24 H -3.1889 0.6151 -0.9321 0
M  V30 25 H 5.2332 -2.4148 2.1347 0
M  V30 26 H 4.4326 -1.5846 4.3958 0
M  V30 27 H 1.3308 -0.8617 4.964 0
M  V30 28 H 2.724 0.1813 5.3089 0
M  V30 29 H 1.4581 0.7379 4.2071 0
M  V30 30 H -4.2884 1.3086 -2.5502 0
M  V30 31 H -0.9581 1.6657 -5.2143 0
M  V30 32 H -0.5995 -0.0479 -5.4119 0
M  V30 33 H -2.2768 0.4668 -5.4196 0
M  V30 END ATOM
M  V30 BEGIN BOND
M  V30 1 1 1 2
M  V30 2 1 1 3
M  V30 3 1 2 4
M  V30 4 1 3 5
M  V30 5 1 4 6
M  V30 6 2 4 7
M  V30 7 1 5 8
M  V30 8 2 6 9
M  V30 9 1 7 10
M  V30 10 1 7 11
M  V30 11 1 8 12
M  V30 12 2 12 13
M  V30 13 1 12 14
M  V30 14 1 13 15
M  V30 15 1 14 16
M  V30 16 3 16 17
M  V30 17 1 9 10
M  V30 18 1 2 18
M  V30 19 1 2 19
M  V30 20 1 3 20
M  V30 21 1 3 21
M  V30 22 1 5 22
M  V30 23 1 5 23
M  V30 24 1 8 24
M  V30 25 1 9 25
M  V30 26 1 10 26
M  V30 27 1 11 27
M  V30 28 1 11 28
M  V30 29 1 11 29
M  V30 30 1 14 30
M  V30 31 1 15 31
M  V30 32 1 15 32
M  V30 33 1 15 33
M  V30 END BOND
M  V30 END CTAB
M  END
>  <Column 1>
47

>  <level_0>
52

>  <index>
52

>  <Unnamed: 0>
52

>  <NO.>
53

>  <Name>
cimetidine (y-g1)

>  <IUPAC_name>
1-cyano-2-methyl-3-[2-[(5-methyl-1h-imidazol-4-yl)methylsulfanyl]ethyl]guanidine

>  <SMILES>
CN=C(NC#N)NCCSCc1nc[nH]c1C

>  <CID>
2756

>  <logBB>
-1.4

>  <BBB+/BBB->
BBB-

>  <Inchi>
InChI=1S/C10H16N6S/c1-8-9(16-7-15-8)5-17-4-3-13-10(12-2)14-6-11/h7H-3-5H2-1-2H3-(H-15-16)(H2-12-13-14)

>  <threshold>


>  <reference>
R18|R26|R27|R12|R31|R35|R39|R40|R47|R48|R49|R49|R49|R50|R2|R2|R4|R25|R46|R5|R21|R27|R2|R2|R8|

>  <group>
A

>  <Class>
-1

>  <ABC>
12.09

>  <ABCGG>
11.14

>  <nAcid>
0

>  <nBase>
3

>  <nAromAtom>
5

>  <nAromBond>
5

>  <nAtom>
33

>  <nHeavyAtom>
17

>  <nSpiro>
0

>  <nBridgehead>
0

>  <nHetero>
7

>  <nN>
6

>  <nO>
0

>  <nF>
0

>  <BalabanJ>
1.96

>  <BertzCT>
405.17

>  <nBonds>
33

>  <nBondsO>
17

>  <nBondsS>
26

>  <nBondsD>
1

>  <nBondsT>
1

>  <nBondsA>
5

>  <nBondsM>
7

>  <nBondsKS>
29

>  <nBondsKD>
3

>  <RNCG>
0.2

>  <RPCG>
0.11

>  <FCSP3>
0.5

>  <SZ>
22.33

>  <Sm>
21.01

>  <Sv>
20.07

>  <Sse>
33.16

>  <Sp>
22.08

>  <Si>
37.99

>  <MZ>
0.68

>  <Mm>
0.64

>  <Mv>
0.61

>  <Mse>
1

>  <Mp>
0.67

>  <Mi>
1.15

>  <NsCH3>
2

>  <NdCH2>
0

>  <NssCH2>
3

>  <NtCH>
0

>  <NdsCH>
0

>  <NaaCH>
1

>  <NsssCH>
0

>  <NddC>
0

>  <NtsC>
1

>  <NdssC>
1

>  <NaasC>
2

>  <NaaaC>
0

>  <NssssC>
0

>  <NsNH3>
0

>  <NsNH2>
0

>  <NssNH2>
0

>  <NdNH>
0

>  <NssNH>
2

>  <NaaNH>
1

>  <NtN>
1

>  <NsssNH>
0

>  <NdsN>
1

>  <NaaN>
1

>  <NsssN>
0

>  <NddsN>
0

>  <NaasN>
0

>  <NssssN>
0

>  <NsOH>
0

>  <NdO>
0

>  <NssO>
0

>  <NaaO>
0

>  <NsF>
0

>  <NsSiH3>
0

>  <NssSiH2>
0

>  <NsssSiH>
0

>  <NssssSi>
0

>  <NsPH2>
0

>  <NssPH>
0

>  <NsssP>
0

>  <NdsssP>
0

>  <NsssssP>
0

>  <NsSH>
0

>  <NdS>
0

>  <NssS>
1

>  <NaaS>
0

>  <NdssS>
0

>  <NddssS>
0

>  <NsCl>
0

>  <NsBr>
0

>  <NsI>
0

>  <fragCpx>
17.07

>  <fMF>
0.15

>  <nHBAcc>
4

>  <nHBDon>
3

>  <Kier1>
15.06

>  <Kier2>
9

>  <Lipinski>
1

>  <GhoseFilter>
1

>  <FilterItLogS>
-3.47

>  <VMcGowan>
195.63

>  <LabuteASA>
104.93

>  <PEOE_VSA1>
10.3

>  <PEOE_VSA2>
10.31

>  <PEOE_VSA3>
4.98

>  <PEOE_VSA4>
17.02

>  <PEOE_VSA5>
0

>  <PEOE_VSA6>
0

>  <PEOE_VSA7>
6.92

>  <PEOE_VSA8>
30.79

>  <PEOE_VSA9>
12.02

>  <PEOE_VSA10>
0

>  <PEOE_VSA11>
6.19

>  <PEOE_VSA12>
5.96

>  <PEOE_VSA13>
0

>  <SMR_VSA1>
0

>  <SMR_VSA2>
5.26

>  <SMR_VSA3>
20.6

>  <SMR_VSA4>
4.99

>  <SMR_VSA5>
12.68

>  <SMR_VSA6>
19.35

>  <SMR_VSA7>
17.72

>  <SMR_VSA8>
0

>  <SMR_VSA9>
6.19

>  <SlogP_VSA1>
10.63

>  <SlogP_VSA2>
35.27

>  <SlogP_VSA3>
5.75

>  <SlogP_VSA4>
18.38

>  <SlogP_VSA5>
11.39

>  <SlogP_VSA6>
11.32

>  <SlogP_VSA7>
0

>  <SlogP_VSA8>
0

>  <SlogP_VSA9>
0

>  <SlogP_VSA10>
0

>  <SlogP_VSA11>
0

>  <EState_VSA1>
0

>  <EState_VSA2>
0

>  <EState_VSA3>
5.96

>  <EState_VSA4>
29.44

>  <EState_VSA5>
0

>  <EState_VSA6>
25.14

>  <EState_VSA7>
13.12

>  <EState_VSA8>
25.59

>  <EState_VSA9>
5.26

>  <EState_VSA10>
0

>  <VSA_EState1>
0

>  <VSA_EState2>
11.15

>  <VSA_EState3>
13.92

>  <VSA_EState4>
2.21

>  <VSA_EState5>
2.32

>  <VSA_EState6>
0

>  <VSA_EState7>
3.54

>  <VSA_EState8>
2.77

>  <VSA_EState9>
1.63

>  <apol>
36.87

>  <bpol>
23.07

>  <nRing>
1

>  <nHRing>
1

>  <naRing>
1

>  <naHRing>
1

>  <nARing 2>
0

>  <nAHRing 2>
0

>  <nFRing>
0

>  <nFHRing>
0

>  <nFaRing>
0

>  <nFaHRing>
0

>  <nFARing 2>
0

>  <nFAHRing 2>
0

>  <nRot>
5

>  <SLogP>
0.6

>  <SMR>
69.6

>  <TopoPSA(NO)>
88.89

>  <TopoPSA>
114.19

>  <JGI1>
0.15

>  <JGI2>
0.08

>  <JGI3>
0.05

>  <JGI4>
0.02

>  <JGI5>
0.01

>  <Diameter>
11

>  <Radius>
6

>  <TMWC10>
101.02

>  <TSRW10>
61.51

>  <MW>
252.12

>  <AMW>
7.64

>  <WPath>
664

>  <WPol>
18

>  <Zagreb1>
74

>  <Zagreb2>
80

>  <mZagreb2>
4.19

>  <yes>


>  <nAR-cont>
0.336376

>  <nHA-cont>
0.976740822

>  <MWHBN>
0.440853599

>  <MWHBN-cont>
0.319140446

>  <TPSA-cont>
0.202882892

>  <pka_cont>
0.97

>  <yes.1>


>  <BBB_SCORE>
2.682593276

>  <MMFF94 Energy>
-105.24

$$$$
Compound 34
Actelion Java MolfileCreator 2.0

  0  0  0  0  0  0              0 V3000
M  V30 BEGIN CTAB
M  V30 COUNTS 66 69 0 0 0
M  V30 BEGIN ATOM
M  V30 1 S 0.8016 -3.37 1.0421 0
M  V30 2 O 0.3339 -2.9508 2.3458 0
M  V30 3 O 1.6892 -4.5048 0.8983 0
M  V30 4 N -0.5432 -3.6259 0.0481 0
M  V30 5 C 1.6145 -1.9702 0.2978 0
M  V30 6 C -0.2803 -4.096 -1.3382 0
M  V30 7 C -1.6194 -2.5982 0.0806 0
M  V30 8 C 1.2284 -0.6777 0.6566 0
M  V30 9 C 2.675 -2.169 -0.5832 0
M  V30 10 C -1.5839 -4.6114 -1.9841 0
M  V30 11 C -2.8947 -3.1481 -0.5878 0
M  V30 12 C 1.874 0.4399 0.0974 0
M  V30 13 C 3.3297 -1.0659 -1.1374 0
M  V30 14 N -2.6574 -3.5908 -1.9832 0
M  V30 15 C 1.3603 1.7901 0.5173 0
M  V30 16 C 2.9374 0.2422 -0.8132 0
M  V30 17 C -3.9095 -4.1068 -2.5602 0
M  V30 18 N 0.2525 1.8797 1.1936 0
M  V30 19 N 2.1093 2.8927 0.1598 0
M  V30 20 O 3.5417 1.3591 -1.3327 0
M  V30 21 C -3.813 -4.354 -4.0616 0
M  V30 22 N -0.1144 3.144 1.5289 0
M  V30 23 C 1.777 4.1878 0.4674 0
M  V30 24 C 4.5622 1.1836 -2.318 0
M  V30 25 C 0.5724 4.277 1.2103 0
M  V30 26 C -1.2263 3.5306 2.2447 0
M  V30 27 O 2.4734 5.1333 0.1147 0
M  V30 28 C 5.0128 2.562 -2.767 0
M  V30 29 C -0.1477 5.3231 1.7415 0
M  V30 30 N -1.2686 4.8446 2.3833 0
M  V30 31 C -2.2227 2.5548 2.7717 0
M  V30 32 C 0.1408 6.7735 1.6936 0
M  V30 33 C -1.768 1.9509 4.0999 0
M  V30 34 C -2.7872 0.959 4.6371 0
M  V30 35 H 0.1298 -3.276 -1.9387 0
M  V30 36 H 0.4446 -4.9161 -1.3284 0
M  V30 37 H -1.2912 -1.6943 -0.4443 0
M  V30 38 H -1.8595 -2.3334 1.1154 0
M  V30 39 H 0.4233 -0.5431 1.3779 0
M  V30 40 H 3.0044 -3.1747 -0.8387 0
M  V30 41 H -1.9164 -5.5124 -1.4515 0
M  V30 42 H -1.3428 -4.9045 -3.0112 0
M  V30 43 H -3.2857 -3.9805 0.0129 0
M  V30 44 H -3.6497 -2.3526 -0.5797 0
M  V30 45 H 4.152 -1.267 -1.8178 0
M  V30 46 H -4.2331 -5.0247 -2.0535 0
M  V30 47 H -4.7033 -3.3636 -2.4114 0
M  V30 48 H 2.9581 2.775 -0.3799 0
M  V30 49 H -4.8021 -4.5995 -4.4623 0
M  V30 50 H -3.1484 -5.1903 -4.2967 0
M  V30 51 H -3.4514 -3.4634 -4.5862 0
M  V30 52 H 4.1681 0.6362 -3.1817 0
M  V30 53 H 5.4166 0.6507 -1.8862 0
M  V30 54 H 5.7981 2.4884 -3.5243 0
M  V30 55 H 4.1712 3.1259 -3.183 0
M  V30 56 H 5.3928 3.139 -1.9173 0
M  V30 57 H -2.3989 1.762 2.0346 0
M  V30 58 H -3.1811 3.0699 2.9109 0
M  V30 59 H -0.6323 7.3438 2.218 0
M  V30 60 H 1.1027 6.9895 2.1685 0
M  V30 61 H 0.1769 7.1237 0.6575 0
M  V30 62 H -0.8046 1.4416 3.9764 0
M  V30 63 H -1.6127 2.7456 4.84 0
M  V30 64 H -2.444 0.5406 5.5884 0
M  V30 65 H -3.7539 1.4432 4.8081 0
M  V30 66 H -2.9357 0.1315 3.9361 0
M  V30 END ATOM
M  V30 BEGIN BOND
M  V30 1 2 1 2
M  V30 2 2 1 3
M  V30 3 1 1 4
M  V30 4 1 1 5
M  V30 5 1 4 6
M  V30 6 1 4 7
M  V30 7 2 5 8
M  V30 8 1 5 9
M  V30 9 1 6 10
M  V30 10 1 7 11
M  V30 11 1 8 12
M  V30 12 2 9 13
M  V30 13 1 10 14
M  V30 14 1 12 15
M  V30 15 2 12 16
M  V30 16 1 14 17
M  V30 17 2 15 18
M  V30 18 1 15 19
M  V30 19 1 16 20
M  V30 20 1 17 21
M  V30 21 1 18 22
M  V30 22 1 19 23
M  V30 23 1 20 24
M  V30 24 1 22 25
M  V30 25 1 22 26
M  V30 26 2 23 27
M  V30 27 1 24 28
M  V30 28 2 25 29
M  V30 29 2 26 30
M  V30 30 1 26 31
M  V30 31 1 29 32
M  V30 32 1 31 33
M  V30 33 1 33 34
M  V30 34 1 11 14
M  V30 35 1 13 16
M  V30 36 1 23 25
M  V30 37 1 29 30
M  V30 38 1 6 35
M  V30 39 1 6 36
M  V30 40 1 7 37
M  V30 41 1 7 38
M  V30 42 1 8 39
M  V30 43 1 9 40
M  V30 44 1 10 41
M  V30 45 1 10 42
M  V30 46 1 11 43
M  V30 47 1 11 44
M  V30 48 1 13 45
M  V30 49 1 17 46
M  V30 50 1 17 47
M  V30 51 1 19 48
M  V30 52 1 21 49
M  V30 53 1 21 50
M  V30 54 1 21 51
M  V30 55 1 24 52
M  V30 56 1 24 53
M  V30 57 1 28 54
M  V30 58 1 28 55
M  V30 59 1 28 56
M  V30 60 1 31 57
M  V30 61 1 31 58
M  V30 62 1 32 59
M  V30 63 1 32 60
M  V30 64 1 32 61
M  V30 65 1 33 62
M  V30 66 1 33 63
M  V30 67 1 34 64
M  V30 68 1 34 65
M  V30 69 1 34 66
M  V30 END BOND
M  V30 END CTAB
M  END
>  <Column 1>
49

>  <level_0>
54

>  <index>
54

>  <Unnamed: 0>
54

>  <NO.>
55

>  <Name>
vardenafil

>  <IUPAC_name>
2-[2-ethoxy-5-(4-ethylpiperazin-1-yl)sulfonylphenyl]-5-methyl-7-propyl-3h-imidazo[5-1-f][1-2-4]triazin-4-one

>  <SMILES>
CCCc1nc(C)c2c(=O)[nH]c(-c3cc(S(=O)(=O)N4CCN(CC)CC4)ccc3OCC)nn12

>  <CID>
135400189

>  <logBB>
-1.4

>  <BBB+/BBB->
BBB-

>  <Inchi>
InChI=1S/C23H32N6O4S/c1-5-8-20-24-16(4)21-23(30)25-22(26-29(20)21)18-15-17(9-10-19(18)33-7-3)34(31-32)28-13-11-27(6-2)12-14-28/h9-10-15H-5-8-11-14H2-1-4H3-(H-25-26-30)

>  <threshold>


>  <reference>
R47|

>  <group>
A

>  <Class>
-1

>  <ABC>
26.33

>  <ABCGG>
20.83

>  <nAcid>
0

>  <nBase>
1

>  <nAromAtom>
15

>  <nAromBond>
16

>  <nAtom>
66

>  <nHeavyAtom>
34

>  <nSpiro>
0

>  <nBridgehead>
0

>  <nHetero>
11

>  <nN>
6

>  <nO>
4

>  <nF>
0

>  <BalabanJ>
1.48

>  <BertzCT>
1339.48

>  <nBonds>
69

>  <nBondsO>
37

>  <nBondsS>
50

>  <nBondsD>
3

>  <nBondsT>
0

>  <nBondsA>
16

>  <nBondsM>
19

>  <nBondsKS>
60

>  <nBondsKD>
9

>  <RNCG>
0.17

>  <RPCG>
0.1

>  <FCSP3>
0.52

>  <SZ>
43.33

>  <Sm>
40.68

>  <Sv>
40.26

>  <Sse>
66.58

>  <Sp>
43.39

>  <Si>
75.15

>  <MZ>
0.66

>  <Mm>
0.62

>  <Mv>
0.61

>  <Mse>
1.01

>  <Mp>
0.66

>  <Mi>
1.14

>  <NsCH3>
4

>  <NdCH2>
0

>  <NssCH2>
8

>  <NtCH>
0

>  <NdsCH>
0

>  <NaaCH>
3

>  <NsssCH>
0

>  <NddC>
0

>  <NtsC>
0

>  <NdssC>
0

>  <NaasC>
6

>  <NaaaC>
1

>  <NssssC>
0

>  <NsNH3>
0

>  <NsNH2>
0

>  <NssNH2>
0

>  <NdNH>
0

>  <NssNH>
0

>  <NaaNH>
1

>  <NtN>
0

>  <NsssNH>
0

>  <NdsN>
0

>  <NaaN>
2

>  <NsssN>
2

>  <NddsN>
0

>  <NaasN>
1

>  <NssssN>
0

>  <NsOH>
0

>  <NdO>
3

>  <NssO>
1

>  <NaaO>
0

>  <NsF>
0

>  <NsSiH3>
0

>  <NssSiH2>
0

>  <NsssSiH>
0

>  <NssssSi>
0

>  <NsPH2>
0

>  <NssPH>
0

>  <NsssP>
0

>  <NdsssP>
0

>  <NsssssP>
0

>  <NsSH>
0

>  <NdS>
0

>  <NssS>
0

>  <NaaS>
0

>  <NdssS>
0

>  <NddssS>
1

>  <NsCl>
0

>  <NsBr>
0

>  <NsI>
0

>  <fragCpx>
247.11

>  <fMF>
0.33

>  <nHBAcc>
8

>  <nHBDon>
1

>  <Kier1>
27.05

>  <Kier2>
11.59

>  <Lipinski>
1

>  <GhoseFilter>
0

>  <FilterItLogS>
-5.76

>  <VMcGowan>
361.1

>  <LabuteASA>
199.16

>  <PEOE_VSA1>
14.62

>  <PEOE_VSA2>
4.79

>  <PEOE_VSA3>
17.92

>  <PEOE_VSA4>
4.31

>  <PEOE_VSA5>
5.1

>  <PEOE_VSA6>
13.85

>  <PEOE_VSA7>
45.01

>  <PEOE_VSA8>
32.6

>  <PEOE_VSA9>
22.76

>  <PEOE_VSA10>
11.57

>  <PEOE_VSA11>
11.34

>  <PEOE_VSA12>
10.02

>  <PEOE_VSA13>
5.56

>  <SMR_VSA1>
13.15

>  <SMR_VSA2>
0

>  <SMR_VSA3>
28.79

>  <SMR_VSA4>
0

>  <SMR_VSA5>
45.43

>  <SMR_VSA6>
39.33

>  <SMR_VSA7>
40.07

>  <SMR_VSA8>
0

>  <SMR_VSA9>
17.14

>  <SlogP_VSA1>
10.3

>  <SlogP_VSA2>
76.54

>  <SlogP_VSA3>
16.44

>  <SlogP_VSA4>
6.92

>  <SlogP_VSA5>
38.71

>  <SlogP_VSA6>
27.89

>  <SlogP_VSA7>
0

>  <SlogP_VSA8>
16.9

>  <SlogP_VSA9>
0

>  <SlogP_VSA10>
0

>  <SlogP_VSA11>
5.75

>  <EState_VSA1>
10.02

>  <EState_VSA2>
16.28

>  <EState_VSA3>
67.55

>  <EState_VSA4>
12.97

>  <EState_VSA5>
4.31

>  <EState_VSA6>
29.64

>  <EState_VSA7>
13.85

>  <EState_VSA8>
26.89

>  <EState_VSA9>
4.74

>  <EState_VSA10>
13.21

>  <VSA_EState1>
35.67

>  <VSA_EState2>
22.63

>  <VSA_EState3>
4.65

>  <VSA_EState4>
1.09

>  <VSA_EState5>
1.38

>  <VSA_EState6>
4.72

>  <VSA_EState7>
1.52

>  <VSA_EState8>
11.29

>  <VSA_EState9>
-3.71

>  <apol>
72.46

>  <bpol>
48.2

>  <nRing>
4

>  <nHRing>
3

>  <naRing>
3

>  <naHRing>
2

>  <nARing 2>
1

>  <nAHRing 2>
1

>  <nFRing>
1

>  <nFHRing>
1

>  <nFaRing>
1

>  <nFaHRing>
1

>  <nFARing 2>
0

>  <nFAHRing 2>
0

>  <nRot>
8

>  <SLogP>
2.07

>  <SMR>
129.82

>  <TopoPSA(NO)>
112.9

>  <TopoPSA>
121.28

>  <JGI1>
0.22

>  <JGI2>
0.09

>  <JGI3>
0.06

>  <JGI4>
0.04

>  <JGI5>
0.04

>  <Diameter>
16

>  <Radius>
8

>  <TMWC10>
150.48

>  <TSRW10>
85

>  <MW>
488.22

>  <AMW>
7.4

>  <WPath>
3398

>  <WPol>
61

>  <Zagreb1>
182

>  <Zagreb2>
220

>  <mZagreb2>
7.58

>  <yes>


>  <nAR-cont>
0.816016

>  <nHA-cont>
0.568589513

>  <MWHBN>
0.407319054

>  <MWHBN-cont>
0.447311995

>  <TPSA-cont>
0

>  <pka_cont>
0.97

>  <yes.1>


>  <BBB_SCORE>
2.540573505

>  <MMFF94 Energy>
-33.522

$$$$
Compound 35
Actelion Java MolfileCreator 2.0

  0  0  0  0  0  0              0 V3000
M  V30 BEGIN CTAB
M  V30 COUNTS 45 47 0 0 0
M  V30 BEGIN ATOM
M  V30 1 O 0.9514 2.6181 1.9035 0
M  V30 2 C 1.0518 1.7192 1.0633 0
M  V30 3 N 2.2882 1.0846 0.812 0
M  V30 4 N -0.0541 1.2796 0.328 0
M  V30 5 C 2.4849 0.013 -0.0649 0
M  V30 6 C 3.4485 1.5535 1.5621 0
M  V30 7 C 0.0975 0.2339 -0.5492 0
M  V30 8 C -1.3626 1.8902 0.5426 0
M  V30 9 O 3.5541 -0.5606 -0.2458 0
M  V30 10 C 1.2984 -0.3693 -0.7371 0
M  V30 11 C 3.5935 0.8084 2.8912 0
M  V30 12 N -0.874 -0.3398 -1.3096 0
M  V30 13 C -2.1702 1.1388 1.6016 0
M  V30 14 N 1.0756 -1.3533 -1.6539 0
M  V30 15 C 4.8022 1.2956 3.6733 0
M  V30 16 C -0.2637 -1.303 -1.9779 0
M  V30 17 C -3.5298 1.7806 1.8232 0
M  V30 18 C -0.8957 -2.2456 -2.9563 0 CFG=2
M  V30 19 C -1.757 -1.5049 -3.9822 0
M  V30 20 C -1.8734 -3.1986 -2.261 0
M  V30 21 C -3.1203 -1.5195 -3.3376 0
M  V30 22 C -3.1812 -2.4221 -2.1344 0
M  V30 23 O -4.0815 -0.8939 -3.7689 0
M  V30 24 H 4.353 1.4116 0.9588 0
M  V30 25 H 3.3546 2.6301 1.7471 0
M  V30 26 H -1.2248 2.9315 0.8578 0
M  V30 27 H -1.9033 1.9187 -0.4112 0
M  V30 28 H 2.691 0.944 3.4988 0
M  V30 29 H 3.6907 -0.2683 2.7086 0
M  V30 30 H -2.3099 0.0945 1.2979 0
M  V30 31 H -1.6186 1.1203 2.5491 0
M  V30 32 H 1.7685 -1.9965 -2.016 0
M  V30 33 H 4.8872 0.7502 4.6185 0
M  V30 34 H 5.7253 1.1388 3.1064 0
M  V30 35 H 4.7164 2.3624 3.9034 0
M  V30 36 H -4.0906 1.2281 2.5836 0
M  V30 37 H -3.4243 2.8156 2.1641 0
M  V30 38 H -4.1182 1.7806 0.9001 0
M  V30 39 H -0.1067 -2.8115 -3.4659 0
M  V30 40 H -1.8201 -2.0708 -4.9171 0
M  V30 41 H -1.4263 -0.4812 -4.1765 0
M  V30 42 H -2.0371 -4.0778 -2.8977 0
M  V30 43 H -1.5192 -3.5554 -1.2881 0
M  V30 44 H -4.0481 -3.0849 -2.182 0
M  V30 45 H -3.2112 -1.8148 -1.2258 0
M  V30 END ATOM
M  V30 BEGIN BOND
M  V30 1 2 1 2
M  V30 2 1 2 3
M  V30 3 1 2 4
M  V30 4 1 3 5
M  V30 5 1 3 6
M  V30 6 1 4 7
M  V30 7 1 4 8
M  V30 8 2 5 9
M  V30 9 1 5 10
M  V30 10 1 6 11
M  V30 11 1 7 12
M  V30 12 1 8 13
M  V30 13 1 10 14
M  V30 14 1 11 15
M  V30 15 2 12 16
M  V30 16 1 13 17
M  V30 17 1 16 18
M  V30 18 1 18 19
M  V30 19 1 18 20
M  V30 20 1 19 21
M  V30 21 1 20 22
M  V30 22 2 21 23
M  V30 23 2 7 10
M  V30 24 1 14 16
M  V30 25 1 21 22
M  V30 26 1 6 24
M  V30 27 1 6 25
M  V30 28 1 8 26
M  V30 29 1 8 27
M  V30 30 1 11 28
M  V30 31 1 11 29
M  V30 32 1 13 30
M  V30 33 1 13 31
M  V30 34 1 14 32
M  V30 35 1 15 33
M  V30 36 1 15 34
M  V30 37 1 15 35
M  V30 38 1 17 36
M  V30 39 1 17 37
M  V30 40 1 17 38
M  V30 41 1 18 39
M  V30 42 1 19 40
M  V30 43 1 19 41
M  V30 44 1 20 42
M  V30 45 1 20 43
M  V30 46 1 22 44
M  V30 47 1 22 45
M  V30 END BOND
M  V30 BEGIN COLLECTION
M  V30 MDLV30/STERAC1 ATOMS=(1 18)
M  V30 END COLLECTION
M  V30 END CTAB
M  END
>  <Column 1>
50

>  <level_0>
55

>  <index>
55

>  <Unnamed: 0>
55

>  <NO.>
56

>  <Name>
151581-23-6

>  <IUPAC_name>
8-(3-oxocyclopentyl)-1-3-dipropyl-7h-purine-2-6-dione

>  <SMILES>
CCCn1c(=O)c2[nH]c(C3CCC(=O)C3)nc2n(CCC)c1=O

>  <CID>
131584

>  <logBB>
-1.4

>  <BBB+/BBB->
BBB-

>  <Inchi>
InChI=1S/C16H22N4O3/c1-3-7-19-14-12(15(22)20(8-4-2)16(19)23)17-13(18-14)10-5-6-11(21)9-10/h10H-3-9H2-1-2H3-(H-17-18)

>  <threshold>


>  <reference>
R2|R2|R4|R27|R40|R43|R47|

>  <group>
A

>  <Class>
-1

>  <ABC>
17.72

>  <ABCGG>
15.48

>  <nAcid>
0

>  <nBase>
0

>  <nAromAtom>
9

>  <nAromBond>
10

>  <nAtom>
45

>  <nHeavyAtom>
23

>  <nSpiro>
0

>  <nBridgehead>
0

>  <nHetero>
7

>  <nN>
4

>  <nO>
3

>  <nF>
0

>  <BalabanJ>
1.75

>  <BertzCT>
858.56

>  <nBonds>
47

>  <nBondsO>
25

>  <nBondsS>
34

>  <nBondsD>
3

>  <nBondsT>
0

>  <nBondsA>
10

>  <nBondsM>
13

>  <nBondsKS>
42

>  <nBondsKD>
5

>  <RNCG>
0.16

>  <RPCG>
0.16

>  <FCSP3>
0.63

>  <SZ>
28.33

>  <Sm>
26.51

>  <Sv>
27.14

>  <Sse>
45.41

>  <Sp>
28.86

>  <Si>
51.36

>  <MZ>
0.63

>  <Mm>
0.59

>  <Mv>
0.6

>  <Mse>
1.01

>  <Mp>
0.64

>  <Mi>
1.14

>  <NsCH3>
2

>  <NdCH2>
0

>  <NssCH2>
7

>  <NtCH>
0

>  <NdsCH>
0

>  <NaaCH>
0

>  <NsssCH>
1

>  <NddC>
0

>  <NtsC>
0

>  <NdssC>
1

>  <NaasC>
1

>  <NaaaC>
2

>  <NssssC>
0

>  <NsNH3>
0

>  <NsNH2>
0

>  <NssNH2>
0

>  <NdNH>
0

>  <NssNH>
0

>  <NaaNH>
1

>  <NtN>
0

>  <NsssNH>
0

>  <NdsN>
0

>  <NaaN>
1

>  <NsssN>
0

>  <NddsN>
0

>  <NaasN>
2

>  <NssssN>
0

>  <NsOH>
0

>  <NdO>
3

>  <NssO>
0

>  <NaaO>
0

>  <NsF>
0

>  <NsSiH3>
0

>  <NssSiH2>
0

>  <NsssSiH>
0

>  <NssssSi>
0

>  <NsPH2>
0

>  <NssPH>
0

>  <NsssP>
0

>  <NdsssP>
0

>  <NsssssP>
0

>  <NsSH>
0

>  <NdS>
0

>  <NssS>
0

>  <NaaS>
0

>  <NdssS>
0

>  <NddssS>
0

>  <NsCl>
0

>  <NsBr>
0

>  <NsI>
0

>  <fragCpx>
119.07

>  <fMF>
0.31

>  <nHBAcc>
6

>  <nHBDon>
1

>  <Kier1>
17.81

>  <Kier2>
7.49

>  <Lipinski>
1

>  <GhoseFilter>
1

>  <FilterItLogS>
-3.75

>  <VMcGowan>
239.75

>  <LabuteASA>
132.89

>  <PEOE_VSA1>
4.98

>  <PEOE_VSA2>
18.72

>  <PEOE_VSA3>
9.78

>  <PEOE_VSA4>
0

>  <PEOE_VSA5>
0

>  <PEOE_VSA6>
13.85

>  <PEOE_VSA7>
19.26

>  <PEOE_VSA8>
31.85

>  <PEOE_VSA9>
0

>  <PEOE_VSA10>
17.12

>  <PEOE_VSA11>
5.65

>  <PEOE_VSA12>
0

>  <PEOE_VSA13>
5.56

>  <SMR_VSA1>
4.79

>  <SMR_VSA2>
0

>  <SMR_VSA3>
19.1

>  <SMR_VSA4>
0

>  <SMR_VSA5>
64.96

>  <SMR_VSA6>
0

>  <SMR_VSA7>
26.66

>  <SMR_VSA8>
0

>  <SMR_VSA9>
0

>  <SlogP_VSA1>
11.25

>  <SlogP_VSA2>
24.89

>  <SlogP_VSA3>
17.88

>  <SlogP_VSA4>
0

>  <SlogP_VSA5>
57.69

>  <SlogP_VSA6>
9.59

>  <SlogP_VSA7>
0

>  <SlogP_VSA8>
11.16

>  <SlogP_VSA9>
0

>  <SlogP_VSA10>
0

>  <SlogP_VSA11>
0

>  <EState_VSA1>
0

>  <EState_VSA2>
22.95

>  <EState_VSA3>
49.34

>  <EState_VSA4>
12.84

>  <EState_VSA5>
4.57

>  <EState_VSA6>
4.57

>  <EState_VSA7>
13.85

>  <EState_VSA8>
9.97

>  <EState_VSA9>
0

>  <EState_VSA10>
14.38

>  <VSA_EState1>
2.85

>  <VSA_EState2>
44.3

>  <VSA_EState3>
0

>  <VSA_EState4>
0.18

>  <VSA_EState5>
0.91

>  <VSA_EState6>
0

>  <VSA_EState7>
3.26

>  <VSA_EState8>
4.83

>  <VSA_EState9>
0

>  <apol>
48.2

>  <bpol>
29.8

>  <nRing>
3

>  <nHRing>
2

>  <naRing>
2

>  <naHRing>
2

>  <nARing 2>
1

>  <nAHRing 2>
0

>  <nFRing>
1

>  <nFHRing>
1

>  <nFaRing>
1

>  <nFaHRing>
1

>  <nFARing 2>
0

>  <nFAHRing 2>
0

>  <nRot>
5

>  <SLogP>
1.54

>  <SMR>
86.79

>  <TopoPSA(NO)>
89.75

>  <TopoPSA>
89.75

>  <JGI1>
0.18

>  <JGI2>
0.09

>  <JGI3>
0.06

>  <JGI4>
0.05

>  <JGI5>
0.03

>  <Diameter>
11

>  <Radius>
6

>  <TMWC10>
124.04

>  <TSRW10>
73.46

>  <MW>
318.17

>  <AMW>
7.07

>  <WPath>
1126

>  <WPol>
38

>  <Zagreb1>
122

>  <Zagreb2>
148

>  <mZagreb2>
5.19

>  <yes>


>  <nAR-cont>
0.816016

>  <nHA-cont>
0.967789328

>  <MWHBN>
0.392435626

>  <MWHBN-cont>
0.505863237

>  <TPSA-cont>
0.373489269

>  <pka_cont>
0.97

>  <yes.1>


>  <BBB_SCORE>
3.774578721

>  <MMFF94 Energy>
-133.52

$$$$
Compound 36
Actelion Java MolfileCreator 2.0

  0  0  0  0  0  0              0 V3000
M  V30 BEGIN CTAB
M  V30 COUNTS 48 51 0 0 0
M  V30 BEGIN ATOM
M  V30 1 O 0.3182 -2.1499 -5.3415 0
M  V30 2 C 0.9699 -3.1858 -5.4047 0
M  V30 3 O 1.5044 -3.696 -6.5436 0
M  V30 4 N 1.2737 -4.0045 -4.3593 0
M  V30 5 C 1.2468 -2.9162 -7.7124 0
M  V30 6 C 0.8758 -3.7602 -3.0749 0
M  V30 7 N 1.1671 -4.5225 -2.0473 0
M  V30 8 N 0.1145 -2.683 -2.6963 0
M  V30 9 C 0.5733 -3.9196 -0.9646 0
M  V30 10 C -0.0889 -2.7554 -1.3435 0
M  V30 11 C 0.5528 -4.3158 0.3816 0
M  V30 12 C -0.7796 -1.936 -0.4474 0
M  V30 13 C -0.1306 -3.5167 1.308 0
M  V30 14 C -0.766 -2.3379 0.898 0
M  V30 15 C -1.4844 -1.5378 1.9154 0
M  V30 16 O -2.3813 -2.0889 2.5485 0
M  V30 17 N -1.1102 -0.2147 2.1116 0
M  V30 18 C -1.882 0.5971 3.0529 0
M  V30 19 C 0.0896 0.4157 1.5427 0
M  V30 20 C -1.846 2.1011 2.7287 0
M  V30 21 C 0.5977 1.6176 2.3615 0
M  V30 22 N -0.4747 2.5963 2.5774 0
M  V30 23 C -0.1265 3.9146 2.7903 0
M  V30 24 N 1.1832 4.2079 2.9582 0
M  V30 25 C -1.0752 4.938 2.8234 0
M  V30 26 C 1.5473 5.4927 3.1723 0
M  V30 27 C -0.6829 6.2599 3.0431 0
M  V30 28 C 0.6587 6.5466 3.2249 0
M  V30 29 H 1.8196 -4.8356 -4.5288 0
M  V30 30 H 0.1705 -2.8524 -7.9012 0
M  V30 31 H 1.6835 -1.9177 -7.6109 0
M  V30 32 H 1.7184 -3.4154 -8.5632 0
M  V30 33 H -0.222 -1.9714 -3.3326 0
M  V30 34 H 1.0524 -5.228 0.6891 0
M  V30 35 H -1.308 -1.0466 -0.7724 0
M  V30 36 H -0.1684 -3.818 2.353 0
M  V30 37 H -2.9207 0.2498 3.0844 0
M  V30 38 H -1.45 0.4198 4.0458 0
M  V30 39 H -0.1825 0.7559 0.5367 0
M  V30 40 H 0.8873 -0.3273 1.4453 0
M  V30 41 H -2.3666 2.622 3.541 0
M  V30 42 H -2.3932 2.2879 1.7969 0
M  V30 43 H 0.9728 1.2749 3.3337 0
M  V30 44 H 1.4388 2.0516 1.8073 0
M  V30 45 H -2.1272 4.7323 2.6642 0
M  V30 46 H 2.6134 5.6516 3.3042 0
M  V30 47 H -1.4244 7.0529 3.0667 0
M  V30 48 H 1.0026 7.5592 3.3982 0
M  V30 END ATOM
M  V30 BEGIN BOND
M  V30 1 2 1 2
M  V30 2 1 2 3
M  V30 3 1 2 4
M  V30 4 1 3 5
M  V30 5 1 4 6
M  V30 6 2 6 7
M  V30 7 1 6 8
M  V30 8 1 7 9
M  V30 9 1 8 10
M  V30 10 1 9 11
M  V30 11 1 10 12
M  V30 12 2 11 13
M  V30 13 2 12 14
M  V30 14 1 14 15
M  V30 15 2 15 16
M  V30 16 1 15 17
M  V30 17 1 17 18
M  V30 18 1 17 19
M  V30 19 1 18 20
M  V30 20 1 19 21
M  V30 21 1 20 22
M  V30 22 1 22 23
M  V30 23 2 23 24
M  V30 24 1 23 25
M  V30 25 1 24 26
M  V30 26 2 25 27
M  V30 27 2 26 28
M  V30 28 2 9 10
M  V30 29 1 13 14
M  V30 30 1 21 22
M  V30 31 1 27 28
M  V30 32 1 4 29
M  V30 33 1 5 30
M  V30 34 1 5 31
M  V30 35 1 5 32
M  V30 36 1 8 33
M  V30 37 1 11 34
M  V30 38 1 12 35
M  V30 39 1 13 36
M  V30 40 1 18 37
M  V30 41 1 18 38
M  V30 42 1 19 39
M  V30 43 1 19 40
M  V30 44 1 20 41
M  V30 45 1 20 42
M  V30 46 1 21 43
M  V30 47 1 21 44
M  V30 48 1 25 45
M  V30 49 1 26 46
M  V30 50 1 27 47
M  V30 51 1 28 48
M  V30 END BOND
M  V30 END CTAB
M  END
>  <Column 1>
51

>  <level_0>
57

>  <index>
57

>  <Unnamed: 0>
57

>  <NO.>
58

>  <Name>
chembl12325

>  <IUPAC_name>
methyl n-[6-(4-pyridin-2-ylpiperazine-1-carbonyl)-1h-benzimidazol-2-yl]carbamate

>  <SMILES>
COC(=O)Nc1nc2ccc(C(=O)N3CCN(c4ccccn4)CC3)cc2[nH]1

>  <CID>
9864646

>  <logBB>
-1.4

>  <BBB+/BBB->
BBB-

>  <Inchi>
InChI=1S/C19H20N6O3/c1-28-19(27)23-18-21-14-6-5-13(12-15(14)22-18)17(26)25-10-8-24(9-11-25)16-4-2-3-7-20-16/h2-7-12H-8-11H2-1H3-(H2-21-22-23-27)

>  <threshold>


>  <reference>
R2|R2|R8|

>  <group>
A

>  <Class>
-1

>  <ABC>
21.98

>  <ABCGG>
16.08

>  <nAcid>
0

>  <nBase>
0

>  <nAromAtom>
15

>  <nAromBond>
16

>  <nAtom>
48

>  <nHeavyAtom>
28

>  <nSpiro>
0

>  <nBridgehead>
0

>  <nHetero>
9

>  <nN>
6

>  <nO>
3

>  <nF>
0

>  <BalabanJ>
1.23

>  <BertzCT>
995.33

>  <nBonds>
51

>  <nBondsO>
31

>  <nBondsS>
33

>  <nBondsD>
2

>  <nBondsT>
0

>  <nBondsA>
16

>  <nBondsM>
18

>  <nBondsKS>
42

>  <nBondsKD>
9

>  <RNCG>
0.16

>  <RPCG>
0.14

>  <FCSP3>
0.26

>  <SZ>
33.33

>  <Sm>
31.67

>  <Sv>
31.11

>  <Sse>
48.85

>  <Sp>
32.38

>  <Si>
54.53

>  <MZ>
0.69

>  <Mm>
0.66

>  <Mv>
0.65

>  <Mse>
1.02

>  <Mp>
0.67

>  <Mi>
1.14

>  <NsCH3>
1

>  <NdCH2>
0

>  <NssCH2>
4

>  <NtCH>
0

>  <NdsCH>
0

>  <NaaCH>
7

>  <NsssCH>
0

>  <NddC>
0

>  <NtsC>
0

>  <NdssC>
2

>  <NaasC>
3

>  <NaaaC>
2

>  <NssssC>
0

>  <NsNH3>
0

>  <NsNH2>
0

>  <NssNH2>
0

>  <NdNH>
0

>  <NssNH>
1

>  <NaaNH>
1

>  <NtN>
0

>  <NsssNH>
0

>  <NdsN>
0

>  <NaaN>
2

>  <NsssN>
2

>  <NddsN>
0

>  <NaasN>
0

>  <NssssN>
0

>  <NsOH>
0

>  <NdO>
2

>  <NssO>
1

>  <NaaO>
0

>  <NsF>
0

>  <NsSiH3>
0

>  <NssSiH2>
0

>  <NsssSiH>
0

>  <NssssSi>
0

>  <NsPH2>
0

>  <NssPH>
0

>  <NsssP>
0

>  <NdsssP>
0

>  <NsssssP>
0

>  <NsSH>
0

>  <NdS>
0

>  <NssS>
0

>  <NaaS>
0

>  <NdssS>
0

>  <NddssS>
0

>  <NsCl>
0

>  <NsBr>
0

>  <NsI>
0

>  <fragCpx>
205.09

>  <fMF>
0.46

>  <nHBAcc>
6

>  <nHBDon>
2

>  <Kier1>
21.24

>  <Kier2>
9.87

>  <Lipinski>
1

>  <GhoseFilter>
1

>  <FilterItLogS>
-3.79

>  <VMcGowan>
273.92

>  <LabuteASA>
160.87

>  <PEOE_VSA1>
19.52

>  <PEOE_VSA2>
10.11

>  <PEOE_VSA3>
14.76

>  <PEOE_VSA4>
0

>  <PEOE_VSA5>
0

>  <PEOE_VSA6>
6.07

>  <PEOE_VSA7>
30.33

>  <PEOE_VSA8>
37.94

>  <PEOE_VSA9>
18.14

>  <PEOE_VSA10>
5.82

>  <PEOE_VSA11>
0

>  <PEOE_VSA12>
5.95

>  <PEOE_VSA13>
5.91

>  <SMR_VSA1>
14.33

>  <SMR_VSA2>
0

>  <SMR_VSA3>
19.85

>  <SMR_VSA4>
0

>  <SMR_VSA5>
0

>  <SMR_VSA6>
43.51

>  <SMR_VSA7>
48.16

>  <SMR_VSA8>
0

>  <SMR_VSA9>
0

>  <SlogP_VSA1>
10.22

>  <SlogP_VSA2>
65.14

>  <SlogP_VSA3>
4.74

>  <SlogP_VSA4>
0

>  <SlogP_VSA5>
10.36

>  <SlogP_VSA6>
42.6

>  <SlogP_VSA7>
0

>  <SlogP_VSA8>
11.03

>  <SlogP_VSA9>
0

>  <SlogP_VSA10>
16.56

>  <SlogP_VSA11>
0

>  <EState_VSA1>
6.09

>  <EState_VSA2>
11.86

>  <EState_VSA3>
29.69

>  <EState_VSA4>
18.91

>  <EState_VSA5>
7.11

>  <EState_VSA6>
24.4

>  <EState_VSA7>
23.1

>  <EState_VSA8>
29.91

>  <EState_VSA9>
0

>  <EState_VSA10>
9.59

>  <VSA_EState1>
4.55

>  <VSA_EState2>
39.8

>  <VSA_EState3>
2.48

>  <VSA_EState4>
1.9

>  <VSA_EState5>
1.18

>  <VSA_EState6>
11.08

>  <VSA_EState7>
1.16

>  <VSA_EState8>
2.74

>  <VSA_EState9>
1.28

>  <apol>
54.07

>  <bpol>
30.38

>  <nRing>
4

>  <nHRing>
3

>  <naRing>
3

>  <naHRing>
2

>  <nARing 2>
1

>  <nAHRing 2>
1

>  <nFRing>
1

>  <nFHRing>
1

>  <nFaRing>
1

>  <nFaHRing>
1

>  <nFARing 2>
0

>  <nFAHRing 2>
0

>  <nRot>
3

>  <SLogP>
2.1

>  <SMR>
104.47

>  <TopoPSA(NO)>
103.45

>  <TopoPSA>
103.45

>  <JGI1>
0.18

>  <JGI2>
0.07

>  <JGI3>
0.05

>  <JGI4>
0.03

>  <JGI5>
0.03

>  <Diameter>
17

>  <Radius>
9

>  <TMWC10>
135.33

>  <TSRW10>
77.28

>  <MW>
380.16

>  <AMW>
7.92

>  <WPath>
2341

>  <WPol>
43

>  <Zagreb1>
148

>  <Zagreb2>
174

>  <mZagreb2>
6.19

>  <yes>


>  <nAR-cont>
0.816016

>  <nHA-cont>
0.82432561

>  <MWHBN>
0.41030497

>  <MWHBN-cont>
0.435628459

>  <TPSA-cont>
0.277854761

>  <pka_cont>
0.97

>  <yes.1>


>  <BBB_SCORE>
3.334493822

>  <MMFF94 Energy>
-18.411

$$$$
Compound 37
Actelion Java MolfileCreator 2.0

  0  0  0  0  0  0              0 V3000
M  V30 BEGIN CTAB
M  V30 COUNTS 48 51 0 0 0
M  V30 BEGIN ATOM
M  V30 1 F -4.3264 -4.9686 -2.9628 0
M  V30 2 C -3.3646 -4.0776 -2.6881 0
M  V30 3 C -3.0398 -3.1081 -3.6272 0
M  V30 4 C -2.7001 -4.1418 -1.4695 0
M  V30 5 C -2.0349 -2.1821 -3.3373 0
M  V30 6 C -1.6936 -3.2153 -1.1802 0
M  V30 7 C -1.3582 -2.2167 -2.1063 0
M  V30 8 C -0.3117 -1.2346 -1.8552 0
M  V30 9 N 0.5182 -0.8032 -2.8676 0
M  V30 10 C 0.0025 -0.6059 -0.6547 0
M  V30 11 C 1.3148 0.0772 -2.3162 0
M  V30 12 N 1.0347 0.2544 -0.9883 0
M  V30 13 C -0.5723 -0.734 0.6751 0
M  V30 14 C 1.6762 1.2474 -0.1299 0
M  V30 15 N -1.8391 -0.3026 0.7782 0
M  V30 16 C 0.1537 -1.2289 1.7375 0
M  V30 17 C 3.1574 0.9168 0.1085 0
M  V30 18 C 1.5026 2.68 -0.6644 0
M  V30 19 C -2.3943 -0.396 1.9913 0
M  V30 20 C -0.5128 -1.2757 2.9368 0
M  V30 21 C 3.8131 1.9449 1.0254 0
M  V30 22 C 2.1641 3.6991 0.2594 0
M  V30 23 O -3.6934 0.0561 2.0647 0
M  V30 24 N -1.7832 -0.8657 3.0933 0
M  V30 25 C 3.6362 3.3701 0.5038 0
M  V30 26 C -4.2765 -0.1278 3.3468 0
M  V30 27 O 4.1702 4.2675 1.4682 0
M  V30 28 H -3.5645 -3.0762 -4.5761 0
M  V30 29 H -2.9656 -4.9124 -0.7533 0
M  V30 30 H -1.7775 -1.4242 -4.0753 0
M  V30 31 H -1.1739 -3.2959 -0.2311 0
M  V30 32 H 2.0936 0.6214 -2.8345 0
M  V30 33 H 1.167 1.2101 0.8397 0
M  V30 34 H 1.1731 -1.5742 1.6373 0
M  V30 35 H 3.701 0.8888 -0.8444 0
M  V30 36 H 3.2543 -0.0817 0.5519 0
M  V30 37 H 1.9402 2.7736 -1.6662 0
M  V30 38 H 0.4361 2.9162 -0.7656 0
M  V30 39 H -0.0328 -1.6562 3.8338 0
M  V30 40 H 3.3893 1.8653 2.0354 0
M  V30 41 H 4.8812 1.7217 1.136 0
M  V30 42 H 2.0749 4.7052 -0.1679 0
M  V30 43 H 1.6292 3.7365 1.2176 0
M  V30 44 H 4.2066 3.4929 -0.4244 0
M  V30 45 H -5.3086 0.2334 3.299 0
M  V30 46 H -4.3096 -1.1877 3.6226 0
M  V30 47 H -3.7552 0.4611 4.1096 0
M  V30 48 H 4.0784 5.1709 1.1181 0
M  V30 END ATOM
M  V30 BEGIN BOND
M  V30 1 1 1 2
M  V30 2 2 2 3
M  V30 3 1 2 4
M  V30 4 1 3 5
M  V30 5 2 4 6
M  V30 6 2 5 7
M  V30 7 1 7 8
M  V30 8 1 8 9
M  V30 9 2 8 10
M  V30 10 2 9 11
M  V30 11 1 10 12
M  V30 12 1 10 13
M  V30 13 1 12 14
M  V30 14 2 13 15
M  V30 15 1 13 16
M  V30 16 1 14 17
M  V30 17 1 14 18
M  V30 18 1 15 19
M  V30 19 2 16 20
M  V30 20 1 17 21
M  V30 21 1 18 22
M  V30 22 1 19 23
M  V30 23 2 19 24
M  V30 24 1 21 25
M  V30 25 1 23 26
M  V30 26 1 25 27
M  V30 27 1 6 7
M  V30 28 1 11 12
M  V30 29 1 20 24
M  V30 30 1 22 25
M  V30 31 1 3 28
M  V30 32 1 4 29
M  V30 33 1 5 30
M  V30 34 1 6 31
M  V30 35 1 11 32
M  V30 36 1 14 33
M  V30 37 1 16 34
M  V30 38 1 17 35
M  V30 39 1 17 36
M  V30 40 1 18 37
M  V30 41 1 18 38
M  V30 42 1 20 39
M  V30 43 1 21 40
M  V30 44 1 21 41
M  V30 45 1 22 42
M  V30 46 1 22 43
M  V30 47 1 25 44
M  V30 48 1 26 45
M  V30 49 1 26 46
M  V30 50 1 26 47
M  V30 51 1 27 48
M  V30 END BOND
M  V30 END CTAB
M  END
>  <Column 1>
52

>  <level_0>
58

>  <index>
58

>  <Unnamed: 0>
58

>  <NO.>
59

>  <Name>
sb 239063

>  <IUPAC_name>
4-[4-(4-fluorophenyl)-5-(2-methoxypyrimidin-4-yl)imidazol-1-yl]cyclohexan-1-ol

>  <SMILES>
COc1nccc(-c2c(-c3ccc(F)cc3)ncn2C2CCC(O)CC2)n1

>  <CID>
5166

>  <logBB>
-1.4

>  <BBB+/BBB->
BBB-

>  <Inchi>
InChI=1S/C20H21FN4O2/c1-27-20-22-11-10-17(24-20)19-18(13-2-4-14(21)5-3-13)23-12-25(19)15-6-8-16(26)9-7-15/h2-5-10-12-15-16-26H-6-9H2-1H3

>  <threshold>


>  <reference>
R18|R26|R27|

>  <group>
A

>  <Class>
-1

>  <ABC>
21.23

>  <ABCGG>
16.89

>  <nAcid>
0

>  <nBase>
0

>  <nAromAtom>
17

>  <nAromBond>
17

>  <nAtom>
48

>  <nHeavyAtom>
27

>  <nSpiro>
0

>  <nBridgehead>
0

>  <nHetero>
7

>  <nN>
4

>  <nO>
2

>  <nF>
1

>  <BalabanJ>
1.5

>  <BertzCT>
917.99

>  <nBonds>
51

>  <nBondsO>
30

>  <nBondsS>
34

>  <nBondsD>
0

>  <nBondsT>
0

>  <nBondsA>
17

>  <nBondsM>
17

>  <nBondsKS>
43

>  <nBondsKD>
8

>  <RNCG>
0.2

>  <RPCG>
0.14

>  <FCSP3>
0.35

>  <SZ>
32.33

>  <Sm>
30.67

>  <Sv>
30.8

>  <Sse>
48.59

>  <Sp>
32.31

>  <Si>
54.49

>  <MZ>
0.67

>  <Mm>
0.64

>  <Mv>
0.64

>  <Mse>
1.01

>  <Mp>
0.67

>  <Mi>
1.14

>  <NsCH3>
1

>  <NdCH2>
0

>  <NssCH2>
4

>  <NtCH>
0

>  <NdsCH>
0

>  <NaaCH>
7

>  <NsssCH>
2

>  <NddC>
0

>  <NtsC>
0

>  <NdssC>
0

>  <NaasC>
6

>  <NaaaC>
0

>  <NssssC>
0

>  <NsNH3>
0

>  <NsNH2>
0

>  <NssNH2>
0

>  <NdNH>
0

>  <NssNH>
0

>  <NaaNH>
0

>  <NtN>
0

>  <NsssNH>
0

>  <NdsN>
0

>  <NaaN>
3

>  <NsssN>
0

>  <NddsN>
0

>  <NaasN>
1

>  <NssssN>
0

>  <NsOH>
1

>  <NdO>
0

>  <NssO>
1

>  <NaaO>
0

>  <NsF>
1

>  <NsSiH3>
0

>  <NssSiH2>
0

>  <NsssSiH>
0

>  <NssssSi>
0

>  <NsPH2>
0

>  <NssPH>
0

>  <NsssP>
0

>  <NdsssP>
0

>  <NsssssP>
0

>  <NsSH>
0

>  <NdS>
0

>  <NssS>
0

>  <NaaS>
0

>  <NdssS>
0

>  <NddssS>
0

>  <NsCl>
0

>  <NsBr>
0

>  <NsI>
0

>  <fragCpx>
198.07

>  <fMF>
0.48

>  <nHBAcc>
6

>  <nHBDon>
1

>  <Kier1>
20.28

>  <Kier2>
9.21

>  <Lipinski>
1

>  <GhoseFilter>
1

>  <FilterItLogS>
-4.63

>  <VMcGowan>
268.24

>  <LabuteASA>
156.25

>  <PEOE_VSA1>
14.41

>  <PEOE_VSA2>
0

>  <PEOE_VSA3>
14.36

>  <PEOE_VSA4>
4.98

>  <PEOE_VSA5>
0

>  <PEOE_VSA6>
0

>  <PEOE_VSA7>
56.02

>  <PEOE_VSA8>
17.8

>  <PEOE_VSA9>
36.62

>  <PEOE_VSA10>
5.82

>  <PEOE_VSA11>
0

>  <PEOE_VSA12>
0

>  <PEOE_VSA13>
0

>  <SMR_VSA1>
14.23

>  <SMR_VSA2>
0

>  <SMR_VSA3>
19.52

>  <SMR_VSA4>
0

>  <SMR_VSA5>
37.83

>  <SMR_VSA6>
7.11

>  <SMR_VSA7>
48.67

>  <SMR_VSA8>
0

>  <SMR_VSA9>
28.66

>  <SlogP_VSA1>
4.74

>  <SlogP_VSA2>
37.84

>  <SlogP_VSA3>
0

>  <SlogP_VSA4>
5.82

>  <SlogP_VSA5>
31.73

>  <SlogP_VSA6>
42.86

>  <SlogP_VSA7>
0

>  <SlogP_VSA8>
22.65

>  <SlogP_VSA9>
0

>  <SlogP_VSA10>
4.39

>  <SlogP_VSA11>
6.01

>  <EState_VSA1>
0

>  <EState_VSA2>
23.97

>  <EState_VSA3>
5.69

>  <EState_VSA4>
42.63

>  <EState_VSA5>
19.24

>  <EState_VSA6>
18.33

>  <EState_VSA7>
12.39

>  <EState_VSA8>
19.52

>  <EState_VSA9>
4.74

>  <EState_VSA10>
9.5

>  <VSA_EState1>
20.67

>  <VSA_EState2>
13.2

>  <VSA_EState3>
9.84

>  <VSA_EState4>
3.11

>  <VSA_EState5>
-0.29

>  <VSA_EState6>
8.62

>  <VSA_EState7>
6.5

>  <VSA_EState8>
0

>  <VSA_EState9>
1.53

>  <apol>
53.96

>  <bpol>
29.05

>  <nRing>
4

>  <nHRing>
2

>  <naRing>
3

>  <naHRing>
2

>  <nARing 2>
1

>  <nAHRing 2>
0

>  <nFRing>
0

>  <nFHRing>
0

>  <nFaRing>
0

>  <nFaHRing>
0

>  <nFARing 2>
0

>  <nFAHRing 2>
0

>  <nRot>
4

>  <SLogP>
3.63

>  <SMR>
98.71

>  <TopoPSA(NO)>
73.06

>  <TopoPSA>
73.06

>  <JGI1>
0.17

>  <JGI2>
0.07

>  <JGI3>
0.04

>  <JGI4>
0.04

>  <JGI5>
0.02

>  <Diameter>
12

>  <Radius>
6

>  <TMWC10>
133.71

>  <TSRW10>
76.29

>  <MW>
368.16

>  <AMW>
7.67

>  <WPath>
1761

>  <WPol>
43

>  <Zagreb1>
144

>  <Zagreb2>
171

>  <mZagreb2>
5.97

>  <yes>


>  <nAR-cont>
0.816016

>  <nHA-cont>
0.860070871

>  <MWHBN>
0.364820924

>  <MWHBN-cont>
0.613910578

>  <TPSA-cont>
0.489995832

>  <pka_cont>
0.97

>  <yes.1>


>  <BBB_SCORE>
4.061944403

>  <MMFF94 Energy>
-12.853

$$$$
Compound 38
Actelion Java MolfileCreator 2.0

  0  0  0  0  0  0              0 V3000
M  V30 BEGIN CTAB
M  V30 COUNTS 21 22 0 0 0
M  V30 BEGIN ATOM
M  V30 1 N 0.7038 0.1563 0.782 0 CHG=1
M  V30 2 C -0.5513 -0.2514 0.8068 0
M  V30 3 C 1.3939 0.6219 2.0029 0
M  V30 4 C 1.2119 0.0863 -0.5048 0
M  V30 5 N -0.9115 -0.5973 -0.4062 0
M  V30 6 C -1.3268 -0.2883 1.9524 0
M  V30 7 C 0.6281 0.5903 3.166 0
M  V30 8 C 0.1693 -0.4089 -1.3022 0
M  V30 9 C -0.7017 0.1438 3.1354 0
M  V30 10 C 0.0914 -0.6431 -2.7685 0
M  V30 11 N -0.2685 0.5855 -3.4615 0
M  V30 12 H 2.4228 0.9642 1.993 0
M  V30 13 H 2.217 0.4047 -0.7091 0
M  V30 14 H -1.8476 -0.9327 -0.6305 0
M  V30 15 H -2.3553 -0.6286 1.9399 0
M  V30 16 H 1.0635 0.9168 4.1099 0
M  V30 17 H -1.2763 0.1323 4.0646 0
M  V30 18 H 1.0651 -0.9983 -3.1206 0
M  V30 19 H -0.649 -1.4241 -2.9682 0
M  V30 20 H -1.2217 0.85 -3.2051 0
M  V30 21 H -0.3053 0.4055 -4.4668 0
M  V30 END ATOM
M  V30 BEGIN BOND
M  V30 1 2 1 2
M  V30 2 1 1 3
M  V30 3 1 1 4
M  V30 4 1 2 5
M  V30 5 1 2 6
M  V30 6 2 3 7
M  V30 7 2 4 8
M  V30 8 2 6 9
M  V30 9 1 8 10
M  V30 10 1 10 11
M  V30 11 1 5 8
M  V30 12 1 7 9
M  V30 13 1 3 12
M  V30 14 1 4 13
M  V30 15 1 5 14
M  V30 16 1 6 15
M  V30 17 1 7 16
M  V30 18 1 9 17
M  V30 19 1 10 18
M  V30 20 1 10 19
M  V30 21 1 11 20
M  V30 22 1 11 21
M  V30 END BOND
M  V30 END CTAB
M  END
>  <Column 1>
53

>  <level_0>
59

>  <index>
59

>  <Unnamed: 0>
59

>  <NO.>
60

>  <Name>
sbb079053

>  <IUPAC_name>
1h-imidazo[1-2-a]pyridin-4-ium-2-ylmethanamine

>  <SMILES>
NCc1c[n+]2ccccc2[nH]1

>  <CID>
2050078

>  <logBB>
-1.4

>  <BBB+/BBB->
BBB-

>  <Inchi>
InChI=1S/C8H9N3/c9-5-7-6-11-4-2-1-3-8(11)10-7/h1-4-6H-5-9H2/p+1

>  <threshold>


>  <reference>
R8|

>  <group>
A

>  <Class>
-1

>  <ABC>
8.44

>  <ABCGG>
7.71

>  <nAcid>
0

>  <nBase>
2

>  <nAromAtom>
9

>  <nAromBond>
10

>  <nAtom>
21

>  <nHeavyAtom>
11

>  <nSpiro>
0

>  <nBridgehead>
0

>  <nHetero>
3

>  <nN>
3

>  <nO>
0

>  <nF>
0

>  <BalabanJ>
1.92

>  <BertzCT>
331.13

>  <nBonds>
22

>  <nBondsO>
12

>  <nBondsS>
12

>  <nBondsD>
0

>  <nBondsT>
0

>  <nBondsA>
10

>  <nBondsM>
10

>  <nBondsKS>
18

>  <nBondsKD>
4

>  <RNCG>
0.39

>  <RPCG>
0.17

>  <FCSP3>
0.13

>  <SZ>
13.17

>  <Sm>
12.34

>  <Sv>
12.98

>  <Sse>
20.93

>  <Sp>
13.97

>  <Si>
23.95

>  <MZ>
0.63

>  <Mm>
0.59

>  <Mv>
0.62

>  <Mse>
1

>  <Mp>
0.67

>  <Mi>
1.14

>  <NsCH3>
0

>  <NdCH2>
0

>  <NssCH2>
1

>  <NtCH>
0

>  <NdsCH>
0

>  <NaaCH>
5

>  <NsssCH>
0

>  <NddC>
0

>  <NtsC>
0

>  <NdssC>
0

>  <NaasC>
1

>  <NaaaC>
1

>  <NssssC>
0

>  <NsNH3>
0

>  <NsNH2>
1

>  <NssNH2>
0

>  <NdNH>
0

>  <NssNH>
0

>  <NaaNH>
1

>  <NtN>
0

>  <NsssNH>
0

>  <NdsN>
0

>  <NaaN>
0

>  <NsssN>
0

>  <NddsN>
0

>  <NaasN>
1

>  <NssssN>
0

>  <NsOH>
0

>  <NdO>
0

>  <NssO>
0

>  <NaaO>
0

>  <NsF>
0

>  <NsSiH3>
0

>  <NssSiH2>
0

>  <NsssSiH>
0

>  <NssssSi>
0

>  <NsPH2>
0

>  <NssPH>
0

>  <NsssP>
0

>  <NdsssP>
0

>  <NsssssP>
0

>  <NsSH>
0

>  <NdS>
0

>  <NssS>
0

>  <NaaS>
0

>  <NdssS>
0

>  <NddssS>
0

>  <NsCl>
0

>  <NsBr>
0

>  <NsI>
0

>  <fragCpx>
34.03

>  <fMF>
0.43

>  <nHBAcc>
1

>  <nHBDon>
2

>  <Kier1>
7.64

>  <Kier2>
3.16

>  <Lipinski>
1

>  <GhoseFilter>
0

>  <FilterItLogS>
-1.36

>  <VMcGowan>
116.75

>  <LabuteASA>
64.47

>  <PEOE_VSA1>
5.73

>  <PEOE_VSA2>
0

>  <PEOE_VSA3>
9.38

>  <PEOE_VSA4>
0

>  <PEOE_VSA5>
0

>  <PEOE_VSA6>
6.07

>  <PEOE_VSA7>
6.07

>  <PEOE_VSA8>
6.07

>  <PEOE_VSA9>
12.74

>  <PEOE_VSA10>
6.2

>  <PEOE_VSA11>
5.69

>  <PEOE_VSA12>
0

>  <PEOE_VSA13>
5.65

>  <SMR_VSA1>
4.4

>  <SMR_VSA2>
0

>  <SMR_VSA3>
4.98

>  <SMR_VSA4>
5.73

>  <SMR_VSA5>
6.54

>  <SMR_VSA6>
0

>  <SMR_VSA7>
36.29

>  <SMR_VSA8>
0

>  <SMR_VSA9>
0

>  <SlogP_VSA1>
10.13

>  <SlogP_VSA2>
4.98

>  <SlogP_VSA3>
6.54

>  <SlogP_VSA4>
0

>  <SlogP_VSA5>
5.69

>  <SlogP_VSA6>
30.59

>  <SlogP_VSA7>
0

>  <SlogP_VSA8>
5.65

>  <SlogP_VSA9>
0

>  <SlogP_VSA10>
0

>  <SlogP_VSA11>
0

>  <EState_VSA1>
0

>  <EState_VSA2>
0

>  <EState_VSA3>
6.54

>  <EState_VSA4>
11.34

>  <EState_VSA5>
0

>  <EState_VSA6>
0

>  <EState_VSA7>
34.99

>  <EState_VSA8>
4.98

>  <EState_VSA9>
5.73

>  <EState_VSA10>
0

>  <VSA_EState1>
2.02

>  <VSA_EState2>
3.18

>  <VSA_EState3>
0

>  <VSA_EState4>
7.6

>  <VSA_EState5>
0

>  <VSA_EState6>
5.99

>  <VSA_EState7>
3.99

>  <VSA_EState8>
0.56

>  <VSA_EState9>
0

>  <apol>
23.33

>  <bpol>
11.74

>  <nRing>
2

>  <nHRing>
2

>  <naRing>
2

>  <naHRing>
2

>  <nARing 2>
0

>  <nAHRing 2>
0

>  <nFRing>
1

>  <nFHRing>
1

>  <nFaRing>
1

>  <nFaHRing>
1

>  <nFARing 2>
0

>  <nFAHRing 2>
0

>  <nRot>
1

>  <SLogP>
0.21

>  <SMR>
41.84

>  <TopoPSA(NO)>
45.91

>  <TopoPSA>
45.91

>  <JGI1>
0.17

>  <JGI2>
0.06

>  <JGI3>
0.06

>  <JGI4>
0.05

>  <JGI5>
0.02

>  <Diameter>
6

>  <Radius>
4

>  <TMWC10>
90.15

>  <TSRW10>
55.32

>  <MW>
148.09

>  <AMW>
7.05

>  <WPath>
147

>  <WPol>
13

>  <Zagreb1>
56

>  <Zagreb2>
65

>  <mZagreb2>
2.53

>  <yes>


>  <nAR-cont>
0.336376

>  <nHA-cont>
0.720786536

>  <MWHBN>
0.246523536

>  <MWHBN-cont>
0.965428884

>  <TPSA-cont>
0.679519692

>  <pka_cont>
0.97

>  <yes.1>


>  <BBB_SCORE>
4.349345244

>  <MMFF94 Energy>
57.925

$$$$
Compound 39
Actelion Java MolfileCreator 2.0

  0  0  0  0  0  0              0 V3000
M  V30 BEGIN CTAB
M  V30 COUNTS 17 17 0 0 0
M  V30 BEGIN ATOM
M  V30 1 O -0.8561 0.934 -3.1942 0
M  V30 2 C -0.7427 1.357 -2.0585 0
M  V30 3 O -1.0225 2.6385 -1.761 0
M  V30 4 C -0.3013 0.5745 -0.8792 0
M  V30 5 C 0.0189 -0.7748 -1.0584 0
M  V30 6 C -0.2007 1.1408 0.3952 0
M  V30 7 C 0.4389 -1.5474 0.0292 0
M  V30 8 C 0.2204 0.3596 1.4771 0
M  V30 9 C 0.5529 -0.9858 1.303 0
M  V30 10 N 0.945 -1.758 2.3791 0
M  V30 11 H -1.2952 3.0228 -2.6203 0
M  V30 12 H -0.0588 -1.2323 -2.0424 0
M  V30 13 H -0.449 2.1859 0.5612 0
M  V30 14 H 0.6771 -2.5957 -0.13 0
M  V30 15 H 0.2865 0.8157 2.4616 0
M  V30 16 H 1.0724 -1.3426 3.2915 0
M  V30 17 H 1.2292 -2.7186 2.2461 0
M  V30 END ATOM
M  V30 BEGIN BOND
M  V30 1 2 1 2
M  V30 2 1 2 3
M  V30 3 1 2 4
M  V30 4 2 4 5
M  V30 5 1 4 6
M  V30 6 1 5 7
M  V30 7 2 6 8
M  V30 8 2 7 9
M  V30 9 1 9 10
M  V30 10 1 8 9
M  V30 11 1 3 11
M  V30 12 1 5 12
M  V30 13 1 6 13
M  V30 14 1 7 14
M  V30 15 1 8 15
M  V30 16 1 10 16
M  V30 17 1 10 17
M  V30 END BOND
M  V30 END CTAB
M  END
>  <Column 1>
54

>  <level_0>
60

>  <index>
60

>  <Unnamed: 0>
60

>  <NO.>
61

>  <Name>
4-aminobenzoic acid

>  <IUPAC_name>
4-aminobenzoic acid

>  <SMILES>
Nc1ccc(C(=O)O)cc1

>  <CID>
978

>  <logBB>
-1.4

>  <BBB+/BBB->
BBB-

>  <Inchi>
InChI=1S/C7H7NO2/c8-6-3-1-5(2-4-6)7(9)10/h1-4H-8H2-(H-9-10)

>  <threshold>


>  <reference>
R47|

>  <group>
A

>  <Class>
-1

>  <ABC>
7.36

>  <ABCGG>
6.91

>  <nAcid>
1

>  <nBase>
0

>  <nAromAtom>
6

>  <nAromBond>
6

>  <nAtom>
17

>  <nHeavyAtom>
10

>  <nSpiro>
0

>  <nBridgehead>
0

>  <nHetero>
3

>  <nN>
1

>  <nO>
2

>  <nF>
0

>  <BalabanJ>
2.26

>  <BertzCT>
240.29

>  <nBonds>
17

>  <nBondsO>
10

>  <nBondsS>
10

>  <nBondsD>
1

>  <nBondsT>
0

>  <nBondsA>
6

>  <nBondsM>
7

>  <nBondsKS>
13

>  <nBondsKD>
4

>  <RNCG>
0.37

>  <RPCG>
0.26

>  <FCSP3>
0

>  <SZ>
12

>  <Sm>
11.42

>  <Sv>
11.08

>  <Sse>
17.43

>  <Sp>
11.41

>  <Si>
19.16

>  <MZ>
0.71

>  <Mm>
0.67

>  <Mv>
0.65

>  <Mse>
1.03

>  <Mp>
0.67

>  <Mi>
1.13

>  <NsCH3>
0

>  <NdCH2>
0

>  <NssCH2>
0

>  <NtCH>
0

>  <NdsCH>
0

>  <NaaCH>
4

>  <NsssCH>
0

>  <NddC>
0

>  <NtsC>
0

>  <NdssC>
1

>  <NaasC>
2

>  <NaaaC>
0

>  <NssssC>
0

>  <NsNH3>
0

>  <NsNH2>
1

>  <NssNH2>
0

>  <NdNH>
0

>  <NssNH>
0

>  <NaaNH>
0

>  <NtN>
0

>  <NsssNH>
0

>  <NdsN>
0

>  <NaaN>
0

>  <NsssN>
0

>  <NddsN>
0

>  <NaasN>
0

>  <NssssN>
0

>  <NsOH>
1

>  <NdO>
1

>  <NssO>
0

>  <NaaO>
0

>  <NsF>
0

>  <NsSiH3>
0

>  <NssSiH2>
0

>  <NsssSiH>
0

>  <NssssSi>
0

>  <NsPH2>
0

>  <NssPH>
0

>  <NsssP>
0

>  <NdsssP>
0

>  <NsssssP>
0

>  <NsSH>
0

>  <NdS>
0

>  <NssS>
0

>  <NaaS>
0

>  <NdssS>
0

>  <NddssS>
0

>  <NsCl>
0

>  <NsBr>
0

>  <NsI>
0

>  <fragCpx>
10.03

>  <fMF>
0.35

>  <nHBAcc>
2

>  <nHBDon>
2

>  <Kier1>
8.1

>  <Kier2>
3.41

>  <Lipinski>
1

>  <GhoseFilter>
0

>  <FilterItLogS>
-0.78

>  <VMcGowan>
103.15

>  <LabuteASA>
58.09

>  <PEOE_VSA1>
10.84

>  <PEOE_VSA2>
0

>  <PEOE_VSA3>
4.79

>  <PEOE_VSA4>
0

>  <PEOE_VSA5>
0

>  <PEOE_VSA6>
0

>  <PEOE_VSA7>
24.27

>  <PEOE_VSA8>
5.69

>  <PEOE_VSA9>
5.56

>  <PEOE_VSA10>
0

>  <PEOE_VSA11>
0

>  <PEOE_VSA12>
0

>  <PEOE_VSA13>
0

>  <SMR_VSA1>
9.9

>  <SMR_VSA2>
0

>  <SMR_VSA3>
0

>  <SMR_VSA4>
0

>  <SMR_VSA5>
0

>  <SMR_VSA6>
5.73

>  <SMR_VSA7>
29.83

>  <SMR_VSA8>
0

>  <SMR_VSA9>
0

>  <SlogP_VSA1>
5.73

>  <SlogP_VSA2>
11.08

>  <SlogP_VSA3>
0

>  <SlogP_VSA4>
0

>  <SlogP_VSA5>
10.36

>  <SlogP_VSA6>
24.27

>  <SlogP_VSA7>
0

>  <SlogP_VSA8>
0

>  <SlogP_VSA9>
0

>  <SlogP_VSA10>
5.69

>  <SlogP_VSA11>
0

>  <EState_VSA1>
5.97

>  <EState_VSA2>
5.56

>  <EState_VSA3>
5.69

>  <EState_VSA4>
0

>  <EState_VSA5>
12.13

>  <EState_VSA6>
12.13

>  <EState_VSA7>
0

>  <EState_VSA8>
0

>  <EState_VSA9>
10.84

>  <EState_VSA10>
4.79

>  <VSA_EState1>
0

>  <VSA_EState2>
10.27

>  <VSA_EState3>
8.43

>  <VSA_EState4>
6.17

>  <VSA_EState5>
-0.93

>  <VSA_EState6>
6.06

>  <VSA_EState7>
0

>  <VSA_EState8>
0

>  <VSA_EState9>
0

>  <apol>
19.06

>  <bpol>
7.32

>  <nRing>
1

>  <nHRing>
0

>  <naRing>
1

>  <naHRing>
0

>  <nARing 2>
0

>  <nAHRing 2>
0

>  <nFRing>
0

>  <nFHRing>
0

>  <nFaRing>
0

>  <nFaHRing>
0

>  <nFARing 2>
0

>  <nFAHRing 2>
0

>  <nRot>
1

>  <SLogP>
0.97

>  <SMR>
37.81

>  <TopoPSA(NO)>
63.32

>  <TopoPSA>
63.32

>  <JGI1>
0.25

>  <JGI2>
0.1

>  <JGI3>
0.05

>  <JGI4>
0.06

>  <JGI5>
0.08

>  <Diameter>
6

>  <Radius>
3

>  <TMWC10>
83.27

>  <TSRW10>
39.14

>  <MW>
137.05

>  <AMW>
8.06

>  <WPath>
120

>  <WPol>
11

>  <Zagreb1>
46

>  <Zagreb2>
50

>  <mZagreb2>
2.28

>  <yes>


>  <nAR-cont>
0.336376

>  <nHA-cont>
0.645914733

>  <MWHBN>
0.341680718

>  <MWHBN-cont>
0.701009531

>  <TPSA-cont>
0.557987081

>  <pka_cont>
0.97

>  <yes.1>


>  <BBB_SCORE>
3.634779192

>  <MMFF94 Energy>
1.9444

$$$$
Compound 40
Actelion Java MolfileCreator 2.0

  0  0  0  0  0  0              0 V3000
M  V30 BEGIN CTAB
M  V30 COUNTS 32 33 0 0 0
M  V30 BEGIN ATOM
M  V30 1 N 1.0159 -0.1562 0.4687 0
M  V30 2 C 0.4665 -1.3562 0.0107 0
M  V30 3 C 0.3115 0.9196 0.5912 0
M  V30 4 C 0.5356 -1.7201 -1.346 0
M  V30 5 C -0.0803 -2.2537 0.9357 0
M  V30 6 N 0.8822 2.0927 1.053 0
M  V30 7 N -1.0177 1.2316 0.3544 0
M  V30 8 C 0.0012 -2.9514 -1.7569 0
M  V30 9 C 1.1662 -0.7985 -2.3508 0
M  V30 10 C -0.6043 -3.4778 0.5202 0
M  V30 11 C -0.0647 3.1663 1.2705 0
M  V30 12 C 2.2365 2.1974 1.5306 0
M  V30 13 C -1.3297 2.6357 0.5928 0
M  V30 14 C -2.0407 0.3784 -0.1904 0
M  V30 15 C -0.5688 -3.8231 -0.8279 0
M  V30 16 H -0.0953 -1.9834 1.9879 0
M  V30 17 H 0.0373 -3.242 -2.8039 0
M  V30 18 H 2.1891 -0.5484 -2.0515 0
M  V30 19 H 0.5795 0.1206 -2.4449 0
M  V30 20 H 1.2197 -1.2633 -3.3409 0
M  V30 21 H -1.031 -4.1602 1.2495 0
M  V30 22 H -0.2324 3.3178 2.3423 0
M  V30 23 H 0.2655 4.1091 0.8236 0
M  V30 24 H 2.9392 1.7491 0.8209 0
M  V30 25 H 2.5277 3.2448 1.663 0
M  V30 26 H 2.3416 1.691 2.4953 0
M  V30 27 H -2.2079 2.7606 1.2345 0
M  V30 28 H -1.5061 3.1505 -0.3579 0
M  V30 29 H -2.9926 0.914 -0.2814 0
M  V30 30 H -2.2258 -0.4797 0.4603 0
M  V30 31 H -1.7743 0.0341 -1.1929 0
M  V30 32 H -0.9722 -4.7775 -1.1556 0
M  V30 END ATOM
M  V30 BEGIN BOND
M  V30 1 1 1 2
M  V30 2 2 1 3
M  V30 3 2 2 4
M  V30 4 1 2 5
M  V30 5 1 3 6
M  V30 6 1 3 7
M  V30 7 1 4 8
M  V30 8 1 4 9
M  V30 9 2 5 10
M  V30 10 1 6 11
M  V30 11 1 6 12
M  V30 12 1 7 13
M  V30 13 1 7 14
M  V30 14 2 8 15
M  V30 15 1 10 15
M  V30 16 1 11 13
M  V30 17 1 5 16
M  V30 18 1 8 17
M  V30 19 1 9 18
M  V30 20 1 9 19
M  V30 21 1 9 20
M  V30 22 1 10 21
M  V30 23 1 11 22
M  V30 24 1 11 23
M  V30 25 1 12 24
M  V30 26 1 12 25
M  V30 27 1 12 26
M  V30 28 1 13 27
M  V30 29 1 13 28
M  V30 30 1 14 29
M  V30 31 1 14 30
M  V30 32 1 14 31
M  V30 33 1 15 32
M  V30 END BOND
M  V30 END CTAB
M  END
>  <Column 1>
56

>  <level_0>
62

>  <index>
62

>  <Unnamed: 0>
62

>  <NO.>
63

>  <Name>
1-3-dimethyl-2-(2-methylphenylimino)imidazolidine

>  <IUPAC_name>
1-3-dimethyl-n-(2-methylphenyl)imidazolidin-2-imine

>  <SMILES>
Cc1ccccc1N=C1N(C)CCN1C

>  <CID>
12032949

>  <logBB>
-1.39

>  <BBB+/BBB->
BBB-

>  <Inchi>
InChI=1S/C12H17N3/c1-10-6-4-5-7-11(10)13-12-14(2)8-9-15(12)3/h4-7H-8-9H2-1-3H3

>  <threshold>


>  <reference>
R8|

>  <group>
A

>  <Class>
-1

>  <ABC>
11.52

>  <ABCGG>
10.63

>  <nAcid>
0

>  <nBase>
3

>  <nAromAtom>
6

>  <nAromBond>
6

>  <nAtom>
32

>  <nHeavyAtom>
15

>  <nSpiro>
0

>  <nBridgehead>
0

>  <nHetero>
3

>  <nN>
3

>  <nO>
0

>  <nF>
0

>  <BalabanJ>
1.89

>  <BertzCT>
372.21

>  <nBonds>
33

>  <nBondsO>
16

>  <nBondsS>
26

>  <nBondsD>
1

>  <nBondsT>
0

>  <nBondsA>
6

>  <nBondsM>
7

>  <nBondsKS>
29

>  <nBondsKD>
4

>  <RNCG>
0.29

>  <RPCG>
0.17

>  <FCSP3>
0.42

>  <SZ>
18.33

>  <Sm>
16.93

>  <Sv>
18.88

>  <Sse>
31.54

>  <Sp>
20.76

>  <Si>
36.4

>  <MZ>
0.57

>  <Mm>
0.53

>  <Mv>
0.59

>  <Mse>
0.99

>  <Mp>
0.65

>  <Mi>
1.14

>  <NsCH3>
3

>  <NdCH2>
0

>  <NssCH2>
2

>  <NtCH>
0

>  <NdsCH>
0

>  <NaaCH>
4

>  <NsssCH>
0

>  <NddC>
0

>  <NtsC>
0

>  <NdssC>
1

>  <NaasC>
2

>  <NaaaC>
0

>  <NssssC>
0

>  <NsNH3>
0

>  <NsNH2>
0

>  <NssNH2>
0

>  <NdNH>
0

>  <NssNH>
0

>  <NaaNH>
0

>  <NtN>
0

>  <NsssNH>
0

>  <NdsN>
1

>  <NaaN>
0

>  <NsssN>
2

>  <NddsN>
0

>  <NaasN>
0

>  <NssssN>
0

>  <NsOH>
0

>  <NdO>
0

>  <NssO>
0

>  <NaaO>
0

>  <NsF>
0

>  <NsSiH3>
0

>  <NssSiH2>
0

>  <NsssSiH>
0

>  <NssssSi>
0

>  <NsPH2>
0

>  <NssPH>
0

>  <NsssP>
0

>  <NdsssP>
0

>  <NsssssP>
0

>  <NsSH>
0

>  <NdS>
0

>  <NssS>
0

>  <NaaS>
0

>  <NdssS>
0

>  <NddssS>
0

>  <NsCl>
0

>  <NsBr>
0

>  <NsI>
0

>  <fragCpx>
46.03

>  <fMF>
0.38

>  <nHBAcc>
1

>  <nHBDon>
0

>  <Kier1>
11.48

>  <Kier2>
4.89

>  <Lipinski>
1

>  <GhoseFilter>
1

>  <FilterItLogS>
-2.5

>  <VMcGowan>
170.96

>  <LabuteASA>
91.03

>  <PEOE_VSA1>
9.8

>  <PEOE_VSA2>
0

>  <PEOE_VSA3>
4.99

>  <PEOE_VSA4>
0

>  <PEOE_VSA5>
0

>  <PEOE_VSA6>
18.2

>  <PEOE_VSA7>
18.55

>  <PEOE_VSA8>
27.18

>  <PEOE_VSA9>
5.69

>  <PEOE_VSA10>
0

>  <PEOE_VSA11>
0

>  <PEOE_VSA12>
5.96

>  <PEOE_VSA13>
0

>  <SMR_VSA1>
0

>  <SMR_VSA2>
0

>  <SMR_VSA3>
9.8

>  <SMR_VSA4>
4.99

>  <SMR_VSA5>
6.92

>  <SMR_VSA6>
27.18

>  <SMR_VSA7>
29.83

>  <SMR_VSA8>
0

>  <SMR_VSA9>
0

>  <SlogP_VSA1>
0

>  <SlogP_VSA2>
42.94

>  <SlogP_VSA3>
0

>  <SlogP_VSA4>
6.92

>  <SlogP_VSA5>
5.56

>  <SlogP_VSA6>
29.26

>  <SlogP_VSA7>
0

>  <SlogP_VSA8>
0

>  <SlogP_VSA9>
0

>  <SlogP_VSA10>
5.69

>  <SlogP_VSA11>
0

>  <EState_VSA1>
0

>  <EState_VSA2>
0

>  <EState_VSA3>
0

>  <EState_VSA4>
24.74

>  <EState_VSA5>
5.56

>  <EState_VSA6>
0

>  <EState_VSA7>
12.13

>  <EState_VSA8>
47.94

>  <EState_VSA9>
0

>  <EState_VSA10>
0

>  <VSA_EState1>
0

>  <VSA_EState2>
9.06

>  <VSA_EState3>
0

>  <VSA_EState4>
2.28

>  <VSA_EState5>
1.06

>  <VSA_EState6>
8.22

>  <VSA_EState7>
0

>  <VSA_EState8>
4.21

>  <VSA_EState9>
4.17

>  <apol>
34.68

>  <bpol>
21.61

>  <nRing>
2

>  <nHRing>
1

>  <naRing>
1

>  <naHRing>
0

>  <nARing 2>
1

>  <nAHRing 2>
1

>  <nFRing>
0

>  <nFHRing>
0

>  <nFaRing>
0

>  <nFaHRing>
0

>  <nFARing 2>
0

>  <nFAHRing 2>
0

>  <nRot>
1

>  <SLogP>
1.86

>  <SMR>
63.53

>  <TopoPSA(NO)>
18.84

>  <TopoPSA>
18.84

>  <JGI1>
0.19

>  <JGI2>
0.1

>  <JGI3>
0.06

>  <JGI4>
0.04

>  <JGI5>
0.03

>  <Diameter>
7

>  <Radius>
4

>  <TMWC10>
100.75

>  <TSRW10>
60.79

>  <MW>
203.14

>  <AMW>
6.35

>  <WPath>
363

>  <WPol>
20

>  <Zagreb1>
76

>  <Zagreb2>
88

>  <mZagreb2>
3.33

>  <yes>


>  <nAR-cont>
0.816016

>  <nHA-cont>
0.92539861

>  <MWHBN>
0.070162051

>  <MWHBN-cont>
0.534680102

>  <TPSA-cont>
0.868485101

>  <pka_cont>
0.97

>  <yes.1>


>  <BBB_SCORE>
4.765404965

>  <MMFF94 Energy>
-40.459

$$$$
Compound 41
Actelion Java MolfileCreator 2.0

  0  0  0  0  0  0              0 V3000
M  V30 BEGIN CTAB
M  V30 COUNTS 26 27 0 0 0
M  V30 BEGIN ATOM
M  V30 1 N -1.8017 0.7047 1.2531 0
M  V30 2 C -0.6873 1.1974 0.7955 0
M  V30 3 C -2.4486 1.8175 1.9997 0
M  V30 4 N -0.4354 2.4911 1.1277 0
M  V30 5 N 0.2766 0.628 0.0269 0
M  V30 6 C -1.4551 2.9819 2.0119 0
M  V30 7 C 0.4255 -0.7116 -0.387 0
M  V30 8 C 1.4227 -1.0548 -1.3338 0
M  V30 9 C -0.3837 -1.7439 0.1116 0
M  V30 10 C 1.5747 -2.3933 -1.7431 0
M  V30 11 C 2.3407 -0.022 -1.9327 0
M  V30 12 C -0.2244 -3.0693 -0.3028 0
M  V30 13 C 0.7549 -3.3944 -1.2305 0
M  V30 14 H -2.6936 1.4959 3.017 0
M  V30 15 H -3.3784 2.0993 1.4939 0
M  V30 16 H 0.487 2.8948 1.121 0
M  V30 17 H 0.944 1.2687 -0.3651 0
M  V30 18 H -1.9054 3.9073 1.6422 0
M  V30 19 H -1.0527 3.1503 3.0155 0
M  V30 20 H -1.1585 -1.5369 0.8445 0
M  V30 21 H 2.3371 -2.6632 -2.4706 0
M  V30 22 H 2.943 0.4496 -1.1496 0
M  V30 23 H 1.7604 0.741 -2.4614 0
M  V30 24 H 3.0328 -0.4657 -2.6563 0
M  V30 25 H -0.8713 -3.8412 0.1051 0
M  V30 26 H 0.8797 -4.4237 -1.5546 0
M  V30 END ATOM
M  V30 BEGIN BOND
M  V30 1 2 1 2
M  V30 2 1 1 3
M  V30 3 1 2 4
M  V30 4 1 2 5
M  V30 5 1 3 6
M  V30 6 1 5 7
M  V30 7 2 7 8
M  V30 8 1 7 9
M  V30 9 1 8 10
M  V30 10 1 8 11
M  V30 11 2 9 12
M  V30 12 2 10 13
M  V30 13 1 4 6
M  V30 14 1 12 13
M  V30 15 1 3 14
M  V30 16 1 3 15
M  V30 17 1 4 16
M  V30 18 1 5 17
M  V30 19 1 6 18
M  V30 20 1 6 19
M  V30 21 1 9 20
M  V30 22 1 10 21
M  V30 23 1 11 22
M  V30 24 1 11 23
M  V30 25 1 11 24
M  V30 26 1 12 25
M  V30 27 1 13 26
M  V30 END BOND
M  V30 END CTAB
M  END
>  <Column 1>
57

>  <level_0>
63

>  <index>
63

>  <Unnamed: 0>
63

>  <NO.>
64

>  <Name>
tz-17

>  <IUPAC_name>
n-(2-methylphenyl)-4-5-dihydro-1h-imidazol-2-amine

>  <SMILES>
Cc1ccccc1NC1=NCCN1

>  <CID>
142067

>  <logBB>
-1.39

>  <BBB+/BBB->
BBB-

>  <Inchi>
InChI=1S/C10H13N3/c1-8-4-2-3-5-9(8)13-10-11-6-7-12-10/h2-5H-6-7H2-1H3-(H2-11-12-13)

>  <threshold>


>  <reference>
R2|R2|R25|R47|R4|R40|

>  <group>
A

>  <Class>
-1

>  <ABC>
9.97

>  <ABCGG>
9.06

>  <nAcid>
0

>  <nBase>
3

>  <nAromAtom>
6

>  <nAromBond>
6

>  <nAtom>
26

>  <nHeavyAtom>
13

>  <nSpiro>
0

>  <nBridgehead>
0

>  <nHetero>
3

>  <nN>
3

>  <nO>
0

>  <nF>
0

>  <BalabanJ>
1.78

>  <BertzCT>
330.7

>  <nBonds>
27

>  <nBondsO>
14

>  <nBondsS>
20

>  <nBondsD>
1

>  <nBondsT>
0

>  <nBondsA>
6

>  <nBondsM>
7

>  <nBondsKS>
23

>  <nBondsKD>
4

>  <RNCG>
0.29

>  <RPCG>
0.16

>  <FCSP3>
0.3

>  <SZ>
15.67

>  <Sm>
14.59

>  <Sv>
15.8

>  <Sse>
25.76

>  <Sp>
17.17

>  <Si>
29.57

>  <MZ>
0.6

>  <Mm>
0.56

>  <Mv>
0.61

>  <Mse>
0.99

>  <Mp>
0.66

>  <Mi>
1.14

>  <NsCH3>
1

>  <NdCH2>
0

>  <NssCH2>
2

>  <NtCH>
0

>  <NdsCH>
0

>  <NaaCH>
4

>  <NsssCH>
0

>  <NddC>
0

>  <NtsC>
0

>  <NdssC>
1

>  <NaasC>
2

>  <NaaaC>
0

>  <NssssC>
0

>  <NsNH3>
0

>  <NsNH2>
0

>  <NssNH2>
0

>  <NdNH>
0

>  <NssNH>
2

>  <NaaNH>
0

>  <NtN>
0

>  <NsssNH>
0

>  <NdsN>
1

>  <NaaN>
0

>  <NsssN>
0

>  <NddsN>
0

>  <NaasN>
0

>  <NssssN>
0

>  <NsOH>
0

>  <NdO>
0

>  <NssO>
0

>  <NaaO>
0

>  <NsF>
0

>  <NsSiH3>
0

>  <NssSiH2>
0

>  <NsssSiH>
0

>  <NssssSi>
0

>  <NsPH2>
0

>  <NssPH>
0

>  <NsssP>
0

>  <NdsssP>
0

>  <NsssssP>
0

>  <NsSH>
0

>  <NdS>
0

>  <NssS>
0

>  <NaaS>
0

>  <NdssS>
0

>  <NddssS>
0

>  <NsCl>
0

>  <NsBr>
0

>  <NsI>
0

>  <fragCpx>
40.03

>  <fMF>
0.46

>  <nHBAcc>
3

>  <nHBDon>
2

>  <Kier1>
9.55

>  <Kier2>
4.48

>  <Lipinski>
1

>  <GhoseFilter>
1

>  <FilterItLogS>
-3.14

>  <VMcGowan>
142.78

>  <LabuteASA>
77.88

>  <PEOE_VSA1>
10.63

>  <PEOE_VSA2>
4.99

>  <PEOE_VSA3>
0

>  <PEOE_VSA4>
0

>  <PEOE_VSA5>
0

>  <PEOE_VSA6>
18.2

>  <PEOE_VSA7>
18.55

>  <PEOE_VSA8>
12.23

>  <PEOE_VSA9>
6.54

>  <PEOE_VSA10>
0

>  <PEOE_VSA11>
5.96

>  <PEOE_VSA12>
0

>  <PEOE_VSA13>
0

>  <SMR_VSA1>
0

>  <SMR_VSA2>
0

>  <SMR_VSA3>
5.32

>  <SMR_VSA4>
4.99

>  <SMR_VSA5>
6.92

>  <SMR_VSA6>
18.41

>  <SMR_VSA7>
29.83

>  <SMR_VSA8>
0

>  <SMR_VSA9>
0

>  <SlogP_VSA1>
10.63

>  <SlogP_VSA2>
19.05

>  <SlogP_VSA3>
0

>  <SlogP_VSA4>
6.92

>  <SlogP_VSA5>
5.56

>  <SlogP_VSA6>
29.26

>  <SlogP_VSA7>
0

>  <SlogP_VSA8>
0

>  <SlogP_VSA9>
0

>  <SlogP_VSA10>
5.69

>  <SlogP_VSA11>
0

>  <EState_VSA1>
0

>  <EState_VSA2>
0

>  <EState_VSA3>
0

>  <EState_VSA4>
24.74

>  <EState_VSA5>
5.56

>  <EState_VSA6>
0

>  <EState_VSA7>
12.13

>  <EState_VSA8>
34.68

>  <EState_VSA9>
0

>  <EState_VSA10>
0

>  <VSA_EState1>
0

>  <VSA_EState2>
4.27

>  <VSA_EState3>
6.42

>  <VSA_EState4>
2.36

>  <VSA_EState5>
0.88

>  <VSA_EState6>
8.19

>  <VSA_EState7>
0

>  <VSA_EState8>
3.89

>  <VSA_EState9>
0

>  <apol>
28.67

>  <bpol>
15.32

>  <nRing>
2

>  <nHRing>
1

>  <naRing>
1

>  <naHRing>
0

>  <nARing 2>
1

>  <nAHRing 2>
1

>  <nFRing>
0

>  <nFHRing>
0

>  <nFaRing>
0

>  <nFaHRing>
0

>  <nFARing 2>
0

>  <nFAHRing 2>
0

>  <nRot>
1

>  <SLogP>
1.37

>  <SMR>
55.11

>  <TopoPSA(NO)>
36.42

>  <TopoPSA>
36.42

>  <JGI1>
0.14

>  <JGI2>
0.06

>  <JGI3>
0.04

>  <JGI4>
0.04

>  <JGI5>
0.01

>  <Diameter>
7

>  <Radius>
4

>  <TMWC10>
94.1

>  <TSRW10>
56.85

>  <MW>
175.11

>  <AMW>
6.74

>  <WPath>
253

>  <WPol>
14

>  <Zagreb1>
64

>  <Zagreb2>
72

>  <mZagreb2>
2.94

>  <yes>


>  <nAR-cont>
0.816016

>  <nHA-cont>
0.841215992

>  <MWHBN>
0.37784574

>  <MWHBN-cont>
0.563251231

>  <TPSA-cont>
0.745765785

>  <pka_cont>
0.97

>  <yes.1>


>  <BBB_SCORE>
4.478640407

>  <MMFF94 Energy>
-32.288

$$$$
Compound 42
Actelion Java MolfileCreator 2.0

  0  0  0  0  0  0              0 V3000
M  V30 BEGIN CTAB
M  V30 COUNTS 43 45 0 0 0
M  V30 BEGIN ATOM
M  V30 1 O -0.3196 -2.5594 -1.759 0
M  V30 2 C 0.4533 -1.6852 -1.4015 0
M  V30 3 O 0.142 -0.6236 -0.615 0
M  V30 4 C 1.8915 -1.6536 -1.7812 0
M  V30 5 C -1.231 -0.5325 -0.1713 0 CFG=2
M  V30 6 C 2.3854 -2.6919 -2.583 0
M  V30 7 C 2.7582 -0.6322 -1.369 0
M  V30 8 C -1.5829 0.949 0.1135 0 CFG=1
M  V30 9 C -1.4464 -1.4358 1.0576 0
M  V30 10 C 3.7277 -2.7088 -2.9667 0
M  V30 11 C 4.1007 -0.6527 -1.7549 0
M  V30 12 C -1.1618 1.3873 1.5445 0 CFG=1
M  V30 13 C -1.022 1.8816 -0.977 0
M  V30 14 C -1.0705 -0.7612 2.3902 0 CFG=1
M  V30 15 C 4.5836 -1.6895 -2.5523 0
M  V30 16 N -1.7477 0.5226 2.576 0
M  V30 17 C 0.3235 1.149 1.8574 0
M  V30 18 C -1.6435 3.2519 -0.9345 0
M  V30 19 C 0.3847 -0.2827 2.406 0
M  V30 20 C -3.1958 0.4849 2.6489 0
M  V30 21 O -2.6907 3.5729 -0.4009 0
M  V30 22 O -0.9126 4.1584 -1.6111 0
M  V30 23 H -1.879 -0.8744 -0.9893 0
M  V30 24 H 1.7257 -3.4928 -2.9119 0
M  V30 25 H 2.4055 0.1861 -0.7477 0
M  V30 26 H -2.6776 1.0229 0.0616 0
M  V30 27 H -2.5009 -1.7345 1.095 0
M  V30 28 H -0.8656 -2.3602 0.9579 0
M  V30 29 H 4.1042 -3.5173 -3.5885 0
M  V30 30 H 4.7705 0.1411 -1.433 0
M  V30 31 H -1.4193 2.4365 1.7247 0
M  V30 32 H -1.2385 1.4671 -1.9686 0
M  V30 33 H 0.0628 1.9896 -0.8821 0
M  V30 34 H -1.2574 -1.4463 3.2244 0
M  V30 35 H 5.629 -1.7034 -2.8514 0
M  V30 36 H 0.9877 1.288 1.0019 0
M  V30 37 H 0.6601 1.8438 2.6379 0
M  V30 38 H 1.0545 -0.9229 1.8241 0
M  V30 39 H 0.7693 -0.2575 3.4335 0
M  V30 40 H -3.6826 0.0757 1.7596 0
M  V30 41 H -3.5912 1.4929 2.8146 0
M  V30 42 H -3.5104 -0.1203 3.5061 0
M  V30 43 H -1.4251 4.9902 -1.5279 0
M  V30 END ATOM
M  V30 BEGIN BOND
M  V30 1 2 1 2
M  V30 2 1 2 3
M  V30 3 1 2 4
M  V30 4 1 3 5
M  V30 5 2 4 6
M  V30 6 1 4 7
M  V30 7 1 5 8
M  V30 8 1 5 9
M  V30 9 1 6 10
M  V30 10 2 7 11
M  V30 11 1 8 12
M  V30 12 1 8 13
M  V30 13 1 9 14
M  V30 14 2 10 15
M  V30 15 1 12 16
M  V30 16 1 12 17
M  V30 17 1 13 18
M  V30 18 1 14 19
M  V30 19 1 16 20
M  V30 20 2 18 21
M  V30 21 1 18 22
M  V30 22 1 11 15
M  V30 23 1 14 16
M  V30 24 1 17 19
M  V30 25 1 5 23
M  V30 26 1 6 24
M  V30 27 1 7 25
M  V30 28 1 8 26
M  V30 29 1 9 27
M  V30 30 1 9 28
M  V30 31 1 10 29
M  V30 32 1 11 30
M  V30 33 1 12 31
M  V30 34 1 13 32
M  V30 35 1 13 33
M  V30 36 1 14 34
M  V30 37 1 15 35
M  V30 38 1 17 36
M  V30 39 1 17 37
M  V30 40 1 19 38
M  V30 41 1 19 39
M  V30 42 1 20 40
M  V30 43 1 20 41
M  V30 44 1 20 42
M  V30 45 1 22 43
M  V30 END BOND
M  V30 BEGIN COLLECTION
M  V30 MDLV30/STEABS ATOMS=(4 5 8 12 14)
M  V30 END COLLECTION
M  V30 END CTAB
M  END
>  <Column 1>
59

>  <level_0>
65

>  <index>
65

>  <Unnamed: 0>
65

>  <NO.>
66

>  <Name>
benzoylecgonine

>  <IUPAC_name>


>  <SMILES>
CN1[C@H]2CC[C@H]1[C@@H](CC(=O)O)[C@@H](OC(=O)c1ccccc1)C2

>  <CID>


>  <logBB>
-1.35

>  <BBB+/BBB->
BBB-

>  <Inchi>
InChI=1S/C17H21NO4/c1-18-12-7-8-14(18)13(10-16(19)20)15(9-12)22-17(21)11-5-3-2-4-6-11/h2-6-12-15H-7-10H2-1H3-(H-19-20)/t12--13+-14--15-/m0/s1

>  <threshold>


>  <reference>
R18|R26|R27|

>  <group>
A

>  <Class>
-1

>  <ABC>
17.21

>  <ABCGG>
14.68

>  <nAcid>
1

>  <nBase>
1

>  <nAromAtom>
6

>  <nAromBond>
6

>  <nAtom>
43

>  <nHeavyAtom>
22

>  <nSpiro>
0

>  <nBridgehead>
2

>  <nHetero>
5

>  <nN>
1

>  <nO>
4

>  <nF>
0

>  <BalabanJ>
1.64

>  <BertzCT>
559.04

>  <nBonds>
45

>  <nBondsO>
24

>  <nBondsS>
37

>  <nBondsD>
2

>  <nBondsT>
0

>  <nBondsA>
6

>  <nBondsM>
8

>  <nBondsKS>
40

>  <nBondsKD>
5

>  <RNCG>
0.23

>  <RPCG>
0.16

>  <FCSP3>
0.53

>  <SZ>
27

>  <Sm>
25.26

>  <Sv>
26.31

>  <Sse>
43.31

>  <Sp>
27.96

>  <Si>
48.49

>  <MZ>
0.63

>  <Mm>
0.59

>  <Mv>
0.61

>  <Mse>
1.01

>  <Mp>
0.65

>  <Mi>
1.13

>  <NsCH3>
1

>  <NdCH2>
0

>  <NssCH2>
4

>  <NtCH>
0

>  <NdsCH>
0

>  <NaaCH>
5

>  <NsssCH>
4

>  <NddC>
0

>  <NtsC>
0

>  <NdssC>
2

>  <NaasC>
1

>  <NaaaC>
0

>  <NssssC>
0

>  <NsNH3>
0

>  <NsNH2>
0

>  <NssNH2>
0

>  <NdNH>
0

>  <NssNH>
0

>  <NaaNH>
0

>  <NtN>
0

>  <NsssNH>
0

>  <NdsN>
0

>  <NaaN>
0

>  <NsssN>
1

>  <NddsN>
0

>  <NaasN>
0

>  <NssssN>
0

>  <NsOH>
1

>  <NdO>
2

>  <NssO>
1

>  <NaaO>
0

>  <NsF>
0

>  <NsSiH3>
0

>  <NssSiH2>
0

>  <NsssSiH>
0

>  <NssssSi>
0

>  <NsPH2>
0

>  <NssPH>
0

>  <NsssP>
0

>  <NdsssP>
0

>  <NsssssP>
0

>  <NsSH>
0

>  <NdS>
0

>  <NssS>
0

>  <NaaS>
0

>  <NdssS>
0

>  <NddssS>
0

>  <NsCl>
0

>  <NsBr>
0

>  <NsI>
0

>  <fragCpx>
114.05

>  <fMF>
0.37

>  <nHBAcc>
4

>  <nHBDon>
1

>  <Kier1>
16.84

>  <Kier2>
7.27

>  <Lipinski>
1

>  <GhoseFilter>
1

>  <FilterItLogS>
-1.84

>  <VMcGowan>
229.77

>  <LabuteASA>
129.42

>  <PEOE_VSA1>
9.84

>  <PEOE_VSA2>
9.69

>  <PEOE_VSA3>
4.79

>  <PEOE_VSA4>
0

>  <PEOE_VSA5>
0

>  <PEOE_VSA6>
18.2

>  <PEOE_VSA7>
32.02

>  <PEOE_VSA8>
24.42

>  <PEOE_VSA9>
11.98

>  <PEOE_VSA10>
6.1

>  <PEOE_VSA11>
0

>  <PEOE_VSA12>
0

>  <PEOE_VSA13>
0

>  <SMR_VSA1>
19.43

>  <SMR_VSA2>
0

>  <SMR_VSA3>
4.9

>  <SMR_VSA4>
5.92

>  <SMR_VSA5>
43.87

>  <SMR_VSA6>
7.05

>  <SMR_VSA7>
35.9

>  <SMR_VSA8>
0

>  <SMR_VSA9>
0

>  <SlogP_VSA1>
0

>  <SlogP_VSA2>
47.18

>  <SlogP_VSA3>
9.53

>  <SlogP_VSA4>
5.92

>  <SlogP_VSA5>
36.04

>  <SlogP_VSA6>
30.33

>  <SlogP_VSA7>
0

>  <SlogP_VSA8>
0

>  <SlogP_VSA9>
0

>  <SlogP_VSA10>
0

>  <SlogP_VSA11>
0

>  <EState_VSA1>
5.97

>  <EState_VSA2>
30.45

>  <EState_VSA3>
11.61

>  <EState_VSA4>
19.26

>  <EState_VSA5>
0

>  <EState_VSA6>
24.27

>  <EState_VSA7>
13.11

>  <EState_VSA8>
4.9

>  <EState_VSA9>
4.74

>  <EState_VSA10>
14.7

>  <VSA_EState1>
5.69

>  <VSA_EState2>
25.73

>  <VSA_EState3>
9.19

>  <VSA_EState4>
0.52

>  <VSA_EState5>
-1.32

>  <VSA_EState6>
9.47

>  <VSA_EState7>
2.5

>  <VSA_EState8>
0

>  <VSA_EState9>
2.05

>  <apol>
46.7

>  <bpol>
26.25

>  <nRing>
3

>  <nHRing>
2

>  <naRing>
1

>  <naHRing>
0

>  <nARing 2>
2

>  <nAHRing 2>
2

>  <nFRing>
1

>  <nFHRing>
1

>  <nFaRing>
0

>  <nFaHRing>
0

>  <nFARing 2>
1

>  <nFAHRing 2>
1

>  <nRot>
4

>  <SLogP>
2.17

>  <SMR>
80.58

>  <TopoPSA(NO)>
66.84

>  <TopoPSA>
66.84

>  <JGI1>
0.19

>  <JGI2>
0.08

>  <JGI3>
0.05

>  <JGI4>
0.05

>  <JGI5>
0.03

>  <Diameter>
10

>  <Radius>
5

>  <TMWC10>
120.65

>  <TSRW10>
70.49

>  <MW>
303.15

>  <AMW>
7.05

>  <WPath>
1038

>  <WPol>
34

>  <Zagreb1>
116

>  <Zagreb2>
137

>  <mZagreb2>
4.81

>  <yes>


>  <nAR-cont>
1

>  <nHA-cont>
0.983774276

>  <MWHBN>
0.287171422

>  <MWHBN-cont>
0.877295808

>  <TPSA-cont>
0.533415295

>  <pka_cont>
0.97

>  <yes.1>


>  <BBB_SCORE>
4.851548577

>  <MMFF94 Energy>
16.758

$$$$
Compound 43
Actelion Java MolfileCreator 2.0

  0  0  0  0  0  0              0 V3000
M  V30 BEGIN CTAB
M  V30 COUNTS 42 45 0 0 0
M  V30 BEGIN ATOM
M  V30 1 Cl -1.4631 6.2702 0.8939 0
M  V30 2 C -1.9496 4.7448 1.552 0
M  V30 3 C -1.6189 3.511 0.9654 0
M  V30 4 C -2.6527 4.7874 2.7635 0
M  V30 5 C -0.9842 3.4913 -0.384 0
M  V30 6 C -1.9873 2.3253 1.6385 0
M  V30 7 C -3.0304 3.6103 3.406 0
M  V30 8 O -1.4995 4.1652 -1.2721 0
M  V30 9 N 0.1247 2.6787 -0.5994 0
M  V30 10 N -1.5982 1.0563 1.1526 0
M  V30 11 C -2.6924 2.3783 2.8525 0
M  V30 12 C 0.6586 1.7817 0.4075 0
M  V30 13 C 0.7197 2.6151 -1.9247 0
M  V30 14 C -0.3676 0.7411 0.6161 0
M  V30 15 C -2.3248 -0.1071 1.1923 0
M  V30 16 C -0.4182 -0.6161 0.3562 0
M  V30 17 N -1.6409 -1.1307 0.735 0
M  V30 18 C 0.6023 -1.4906 -0.2388 0
M  V30 19 N 1.7981 -1.0726 -0.6811 0
M  V30 20 N 0.3771 -2.8386 -0.3848 0
M  V30 21 O 2.3946 -2.2422 -1.1552 0
M  V30 22 C 1.4971 -3.2466 -0.9392 0
M  V30 23 C 1.8699 -4.6282 -1.3763 0
M  V30 24 O 0.9269 -5.5433 -0.7924 0
M  V30 25 C 3.2557 -5.029 -0.8781 0
M  V30 26 C 1.7669 -4.7631 -2.8932 0
M  V30 27 H -2.9049 5.7449 3.2159 0
M  V30 28 H -3.5727 3.6565 4.3484 0
M  V30 29 H -2.965 1.4749 3.3956 0
M  V30 30 H 0.8403 2.3442 1.3308 0
M  V30 31 H 1.6219 1.3841 0.0805 0
M  V30 32 H 0.5651 1.6116 -2.3318 0
M  V30 33 H 1.7919 2.8147 -1.84 0
M  V30 34 H 0.2796 3.3453 -2.6084 0
M  V30 35 H -3.3434 -0.1512 1.5556 0
M  V30 36 H 0.1186 -5.0298 -0.5894 0
M  V30 37 H 3.4763 -6.0714 -1.1349 0
M  V30 38 H 4.0429 -4.3959 -1.3015 0
M  V30 39 H 3.3147 -4.959 0.2146 0
M  V30 40 H 0.7535 -4.5287 -3.2408 0
M  V30 41 H 1.9725 -5.7924 -3.2086 0
M  V30 42 H 2.4653 -4.0958 -3.4098 0
M  V30 END ATOM
M  V30 BEGIN BOND
M  V30 1 1 1 2
M  V30 2 2 2 3
M  V30 3 1 2 4
M  V30 4 1 3 5
M  V30 5 1 3 6
M  V30 6 2 4 7
M  V30 7 2 5 8
M  V30 8 1 5 9
M  V30 9 1 6 10
M  V30 10 2 6 11
M  V30 11 1 9 12
M  V30 12 1 9 13
M  V30 13 1 10 14
M  V30 14 1 10 15
M  V30 15 2 14 16
M  V30 16 2 15 17
M  V30 17 1 16 18
M  V30 18 2 18 19
M  V30 19 1 18 20
M  V30 20 1 19 21
M  V30 21 2 20 22
M  V30 22 1 22 23
M  V30 23 1 23 24
M  V30 24 1 23 25
M  V30 25 1 23 26
M  V30 26 1 7 11
M  V30 27 1 12 14
M  V30 28 1 16 17
M  V30 29 1 21 22
M  V30 30 1 4 27
M  V30 31 1 7 28
M  V30 32 1 11 29
M  V30 33 1 12 30
M  V30 34 1 12 31
M  V30 35 1 13 32
M  V30 36 1 13 33
M  V30 37 1 13 34
M  V30 38 1 15 35
M  V30 39 1 24 36
M  V30 40 1 25 37
M  V30 41 1 25 38
M  V30 42 1 25 39
M  V30 43 1 26 40
M  V30 44 1 26 41
M  V30 45 1 26 42
M  V30 END BOND
M  V30 END CTAB
M  END
>  <Column 1>
60

>  <level_0>
66

>  <index>
66

>  <Unnamed: 0>
66

>  <NO.>
67

>  <Name>
monohydroxy l-663-581 metabolite

>  <IUPAC_name>
7-chloro-3-[5-(2-hydroxypropan-2-yl)-1-2-4-oxadiazol-3-yl]-5-methyl-4h-imidazo[1-5-a][1-4]benzodiazepin-6-one

>  <SMILES>
CN1Cc2c(-c3noc(C(C)(C)O)n3)ncn2-c2cccc(Cl)c2C1=O

>  <CID>
10384745

>  <logBB>
-1.34

>  <BBB+/BBB->
BBB-

>  <Inchi>
InChI=1S/C17H16ClN5O3/c1-17(2-25)16-20-14(21-26-16)13-11-7-22(3)15(24)12-9(18)5-4-6-10(12)23(11)8-19-13/h4-6-8-25H-7H2-1-3H3

>  <threshold>


>  <reference>
R2|R2|R3|R4|R8|R12|R21|R25|R27|R35|R36|R38|R40|R41|R43|R46|R47|R48|R49|R49|

>  <group>
A

>  <Class>
-1

>  <ABC>
20.93

>  <ABCGG>
17.44

>  <nAcid>
0

>  <nBase>
0

>  <nAromAtom>
16

>  <nAromBond>
16

>  <nAtom>
42

>  <nHeavyAtom>
26

>  <nSpiro>
0

>  <nBridgehead>
0

>  <nHetero>
9

>  <nN>
5

>  <nO>
3

>  <nF>
0

>  <BalabanJ>
1.54

>  <BertzCT>
1017.82

>  <nBonds>
45

>  <nBondsO>
29

>  <nBondsS>
28

>  <nBondsD>
1

>  <nBondsT>
0

>  <nBondsA>
16

>  <nBondsM>
17

>  <nBondsKS>
37

>  <nBondsKD>
8

>  <RNCG>
0.16

>  <RPCG>
0.11

>  <FCSP3>
0.29

>  <SZ>
32.33

>  <Sm>
31.12

>  <Sv>
28.36

>  <Sse>
43.18

>  <Sp>
29.43

>  <Si>
47.56

>  <MZ>
0.77

>  <Mm>
0.74

>  <Mv>
0.68

>  <Mse>
1.03

>  <Mp>
0.7

>  <Mi>
1.13

>  <NsCH3>
3

>  <NdCH2>
0

>  <NssCH2>
1

>  <NtCH>
0

>  <NdsCH>
0

>  <NaaCH>
4

>  <NsssCH>
0

>  <NddC>
0

>  <NtsC>
0

>  <NdssC>
1

>  <NaasC>
7

>  <NaaaC>
0

>  <NssssC>
1

>  <NsNH3>
0

>  <NsNH2>
0

>  <NssNH2>
0

>  <NdNH>
0

>  <NssNH>
0

>  <NaaNH>
0

>  <NtN>
0

>  <NsssNH>
0

>  <NdsN>
0

>  <NaaN>
3

>  <NsssN>
1

>  <NddsN>
0

>  <NaasN>
1

>  <NssssN>
0

>  <NsOH>
1

>  <NdO>
1

>  <NssO>
0

>  <NaaO>
1

>  <NsF>
0

>  <NsSiH3>
0

>  <NssSiH2>
0

>  <NsssSiH>
0

>  <NssssSi>
0

>  <NsPH2>
0

>  <NssPH>
0

>  <NsssP>
0

>  <NdsssP>
0

>  <NsssssP>
0

>  <NsSH>
0

>  <NdS>
0

>  <NssS>
0

>  <NaaS>
0

>  <NdssS>
0

>  <NddssS>
0

>  <NsCl>
1

>  <NsBr>
0

>  <NsI>
0

>  <fragCpx>
191.09

>  <fMF>
0.45

>  <nHBAcc>
7

>  <nHBDon>
1

>  <Kier1>
19.32

>  <Kier2>
7.11

>  <Lipinski>
1

>  <GhoseFilter>
1

>  <FilterItLogS>
-4.28

>  <VMcGowan>
252.3

>  <LabuteASA>
153.57

>  <PEOE_VSA1>
14.53

>  <PEOE_VSA2>
9.36

>  <PEOE_VSA3>
4.98

>  <PEOE_VSA4>
4.98

>  <PEOE_VSA5>
0

>  <PEOE_VSA6>
22.82

>  <PEOE_VSA7>
25.98

>  <PEOE_VSA8>
7.05

>  <PEOE_VSA9>
28.51

>  <PEOE_VSA10>
17.62

>  <PEOE_VSA11>
0

>  <PEOE_VSA12>
5.82

>  <PEOE_VSA13>
11.8

>  <SMR_VSA1>
14.42

>  <SMR_VSA2>
0

>  <SMR_VSA3>
24.59

>  <SMR_VSA4>
0

>  <SMR_VSA5>
25.99

>  <SMR_VSA6>
7.05

>  <SMR_VSA7>
46.7

>  <SMR_VSA8>
0

>  <SMR_VSA9>
17.21

>  <SlogP_VSA1>
0

>  <SlogP_VSA2>
42.65

>  <SlogP_VSA3>
12.15

>  <SlogP_VSA4>
0

>  <SlogP_VSA5>
35.79

>  <SlogP_VSA6>
29.05

>  <SlogP_VSA7>
5.02

>  <SlogP_VSA8>
17.21

>  <SlogP_VSA9>
0

>  <SlogP_VSA10>
0

>  <SlogP_VSA11>
0

>  <EState_VSA1>
5.6

>  <EState_VSA2>
17.62

>  <EState_VSA3>
28.51

>  <EState_VSA4>
5.69

>  <EState_VSA5>
0

>  <EState_VSA6>
48.82

>  <EState_VSA7>
6.07

>  <EState_VSA8>
15.12

>  <EState_VSA9>
16.12

>  <EState_VSA10>
9.9

>  <VSA_EState1>
6.95

>  <VSA_EState2>
22.95

>  <VSA_EState3>
14.34

>  <VSA_EState4>
1.02

>  <VSA_EState5>
0.17

>  <VSA_EState6>
5.28

>  <VSA_EState7>
1.6

>  <VSA_EState8>
3.41

>  <VSA_EState9>
1.69

>  <apol>
49.14

>  <bpol>
24.87

>  <nRing>
4

>  <nHRing>
3

>  <naRing>
3

>  <naHRing>
2

>  <nARing 2>
1

>  <nAHRing 2>
1

>  <nFRing>
1

>  <nFHRing>
1

>  <nFaRing>
0

>  <nFaHRing>
0

>  <nFARing 2>
1

>  <nFAHRing 2>
1

>  <nRot>
2

>  <SLogP>
2.39

>  <SMR>
92.91

>  <TopoPSA(NO)>
97.28

>  <TopoPSA>
97.28

>  <JGI1>
0.22

>  <JGI2>
0.09

>  <JGI3>
0.05

>  <JGI4>
0.05

>  <JGI5>
0.03

>  <Diameter>
11

>  <Radius>
6

>  <TMWC10>
133.05

>  <TSRW10>
77.72

>  <MW>
373.09

>  <AMW>
8.88

>  <WPath>
1538

>  <WPol>
49

>  <Zagreb1>
148

>  <Zagreb2>
181

>  <mZagreb2>
5.39

>  <yes>


>  <nAR-cont>
0.816016

>  <nHA-cont>
0.892715677

>  <MWHBN>
0.414174334

>  <MWHBN-cont>
0.420540762

>  <TPSA-cont>
0.320925193

>  <pka_cont>
0.97

>  <yes.1>


>  <BBB_SCORE>
3.466393206

>  <MMFF94 Energy>
66.596

$$$$
Compound 44
Actelion Java MolfileCreator 2.0

  0  0  0  0  0  0              0 V3000
M  V30 BEGIN CTAB
M  V30 COUNTS 21 22 0 0 0
M  V30 BEGIN ATOM
M  V30 1 Cl 1.8436 3.5218 0.2512 0
M  V30 2 C 1.4521 1.9977 -0.4621 0
M  V30 3 C 0.5538 1.0713 0.092 0
M  V30 4 C 2.0969 1.7101 -1.6721 0
M  V30 5 C -0.1793 1.295 1.3797 0
M  V30 6 C 0.311 -0.1476 -0.5838 0
M  V30 7 C 1.8505 0.5087 -2.3277 0
M  V30 8 O -0.0594 2.3048 2.0611 0
M  V30 9 C -1.1029 0.2387 1.8611 0
M  V30 10 N -0.5783 -1.0861 -0.053 0
M  V30 11 C 0.9634 -0.4191 -1.7913 0
M  V30 12 Cl 2.6476 0.1659 -3.8126 0
M  V30 13 C -1.2463 -0.8709 1.1297 0
M  V30 14 C -2.1806 -1.9158 1.6369 0
M  V30 15 O -2.8443 -1.8855 2.6556 0
M  V30 16 O -2.2199 -2.9714 0.7958 0
M  V30 17 H 2.793 2.4272 -2.1025 0
M  V30 18 H -1.6219 0.4226 2.7943 0
M  V30 19 H -0.7699 -1.9693 -0.5192 0
M  V30 20 H 0.7806 -1.3542 -2.315 0
M  V30 21 H -2.8563 -3.5802 1.2289 0
M  V30 END ATOM
M  V30 BEGIN BOND
M  V30 1 1 1 2
M  V30 2 2 2 3
M  V30 3 1 2 4
M  V30 4 1 3 5
M  V30 5 1 3 6
M  V30 6 2 4 7
M  V30 7 2 5 8
M  V30 8 1 5 9
M  V30 9 1 6 10
M  V30 10 2 6 11
M  V30 11 1 7 12
M  V30 12 2 9 13
M  V30 13 1 13 14
M  V30 14 2 14 15
M  V30 15 1 14 16
M  V30 16 1 7 11
M  V30 17 1 10 13
M  V30 18 1 4 17
M  V30 19 1 9 18
M  V30 20 1 10 19
M  V30 21 1 11 20
M  V30 22 1 16 21
M  V30 END BOND
M  V30 END CTAB
M  END
>  <Column 1>
61

>  <level_0>
67

>  <index>
67

>  <Unnamed: 0>
67

>  <NO.>
68

>  <Name>
dcka

>  <IUPAC_name>
5-7-dichloro-4-oxo-1h-quinoline-2-carboxylic acid

>  <SMILES>
O=C(O)c1cc(=O)c2c(Cl)cc(Cl)cc2[nH]1

>  <CID>
1779

>  <logBB>
-1.33

>  <BBB+/BBB->
BBB-

>  <Inchi>
InChI=1S/C10H5Cl2NO3/c11-4-1-5(12)9-6(2-4)13-7(10(15)16)3-8(9)14/h1-3H-(H-13-14)(H-15-16)

>  <threshold>


>  <reference>
R20|

>  <group>
A

>  <Class>
-1

>  <ABC>
12.41

>  <ABCGG>
10.84

>  <nAcid>
1

>  <nBase>
0

>  <nAromAtom>
10

>  <nAromBond>
11

>  <nAtom>
21

>  <nHeavyAtom>
16

>  <nSpiro>
0

>  <nBridgehead>
0

>  <nHetero>
6

>  <nN>
1

>  <nO>
3

>  <nF>
0

>  <BalabanJ>
2.09

>  <BertzCT>
648.29

>  <nBonds>
22

>  <nBondsO>
17

>  <nBondsS>
9

>  <nBondsD>
2

>  <nBondsT>
0

>  <nBondsA>
11

>  <nBondsM>
13

>  <nBondsKS>
16

>  <nBondsKD>
6

>  <RNCG>
0.3

>  <RPCG>
0.22

>  <FCSP3>
0

>  <SZ>
21.67

>  <Sm>
21.48

>  <Sv>
16.44

>  <Sse>
22.41

>  <Sp>
16.71

>  <Si>
23.26

>  <MZ>
1.03

>  <Mm>
1.02

>  <Mv>
0.78

>  <Mse>
1.07

>  <Mp>
0.8

>  <Mi>
1.11

>  <NsCH3>
0

>  <NdCH2>
0

>  <NssCH2>
0

>  <NtCH>
0

>  <NdsCH>
0

>  <NaaCH>
3

>  <NsssCH>
0

>  <NddC>
0

>  <NtsC>
0

>  <NdssC>
1

>  <NaasC>
3

>  <NaaaC>
2

>  <NssssC>
0

>  <NsNH3>
0

>  <NsNH2>
0

>  <NssNH2>
0

>  <NdNH>
0

>  <NssNH>
0

>  <NaaNH>
1

>  <NtN>
0

>  <NsssNH>
0

>  <NdsN>
0

>  <NaaN>
0

>  <NsssN>
0

>  <NddsN>
0

>  <NaasN>
0

>  <NssssN>
0

>  <NsOH>
1

>  <NdO>
2

>  <NssO>
0

>  <NaaO>
0

>  <NsF>
0

>  <NsSiH3>
0

>  <NssSiH2>
0

>  <NsssSiH>
0

>  <NssssSi>
0

>  <NsPH2>
0

>  <NssPH>
0

>  <NsssP>
0

>  <NdsssP>
0

>  <NsssssP>
0

>  <NsSH>
0

>  <NdS>
0

>  <NssS>
0

>  <NaaS>
0

>  <NdssS>
0

>  <NddssS>
0

>  <NsCl>
2

>  <NsBr>
0

>  <NsI>
0

>  <fragCpx>
49.06

>  <fMF>
0.48

>  <nHBAcc>
2

>  <nHBDon>
2

>  <Kier1>
12.46

>  <Kier2>
4.7

>  <Lipinski>
1

>  <GhoseFilter>
1

>  <FilterItLogS>
-3.76

>  <VMcGowan>
156.31

>  <LabuteASA>
99.42

>  <PEOE_VSA1>
10.09

>  <PEOE_VSA2>
4.79

>  <PEOE_VSA3>
4.79

>  <PEOE_VSA4>
0

>  <PEOE_VSA5>
0

>  <PEOE_VSA6>
23.2

>  <PEOE_VSA7>
12.13

>  <PEOE_VSA8>
11.09

>  <PEOE_VSA9>
15.93

>  <PEOE_VSA10>
5.69

>  <PEOE_VSA11>
5.43

>  <PEOE_VSA12>
0

>  <PEOE_VSA13>
0

>  <SMR_VSA1>
9.9

>  <SMR_VSA2>
0

>  <SMR_VSA3>
4.98

>  <SMR_VSA4>
0

>  <SMR_VSA5>
0

>  <SMR_VSA6>
0

>  <SMR_VSA7>
44.16

>  <SMR_VSA8>
0

>  <SMR_VSA9>
0

>  <SlogP_VSA1>
5.43

>  <SlogP_VSA2>
16.06

>  <SlogP_VSA3>
0

>  <SlogP_VSA4>
0

>  <SlogP_VSA5>
10.49

>  <SlogP_VSA6>
22.99

>  <SlogP_VSA7>
10.05

>  <SlogP_VSA8>
10.9

>  <SlogP_VSA9>
0

>  <SlogP_VSA10>
0

>  <SlogP_VSA11>
0

>  <EState_VSA1>
11.4

>  <EState_VSA2>
16.1

>  <EState_VSA3>
10.54

>  <EState_VSA4>
6.07

>  <EState_VSA5>
12.13

>  <EState_VSA6>
0

>  <EState_VSA7>
0

>  <EState_VSA8>
4.98

>  <EState_VSA9>
28.31

>  <EState_VSA10>
9.59

>  <VSA_EState1>
0

>  <VSA_EState2>
24.94

>  <VSA_EState3>
9.53

>  <VSA_EState4>
-0.34

>  <VSA_EState5>
-1.21

>  <VSA_EState6>
3.88

>  <VSA_EState7>
0

>  <VSA_EState8>
0

>  <VSA_EState9>
0

>  <apol>
27.9

>  <bpol>
8.34

>  <nRing>
2

>  <nHRing>
1

>  <naRing>
2

>  <naHRing>
1

>  <nARing 2>
0

>  <nAHRing 2>
0

>  <nFRing>
1

>  <nFHRing>
1

>  <nFaRing>
1

>  <nFaHRing>
1

>  <nFARing 2>
0

>  <nFAHRing 2>
0

>  <nRot>
1

>  <SLogP>
2.53

>  <SMR>
61.55

>  <TopoPSA(NO)>
70.16

>  <TopoPSA>
70.16

>  <JGI1>
0.26

>  <JGI2>
0.08

>  <JGI3>
0.07

>  <JGI4>
0.06

>  <JGI5>
0.04

>  <Diameter>
7

>  <Radius>
4

>  <TMWC10>
104.8

>  <TSRW10>
48.83

>  <MW>
256.96

>  <AMW>
12.24

>  <WPath>
403

>  <WPol>
26

>  <Zagreb1>
84

>  <Zagreb2>
99

>  <mZagreb2>
3.44

>  <yes>


>  <nAR-cont>
0.336376

>  <nHA-cont>
0.954961865

>  <MWHBN>
0.249532564

>  <MWHBN-cont>
0.960559373

>  <TPSA-cont>
0.510239633

>  <pka_cont>
0.97

>  <yes.1>


>  <BBB_SCORE>
4.237656191

>  <MMFF94 Energy>
13.37

$$$$
Compound 45
Actelion Java MolfileCreator 2.0

  0  0  0  0  0  0              0 V3000
M  V30 BEGIN CTAB
M  V30 COUNTS 38 38 0 0 0
M  V30 BEGIN ATOM
M  V30 1 O -3.0389 -2.4929 -3.1949 0
M  V30 2 C -2.0552 -2.1717 -2.3016 0
M  V30 3 C -1.0908 -3.0805 -1.8495 0
M  V30 4 C -2.0617 -0.8508 -1.8573 0
M  V30 5 C -0.1339 -2.6106 -0.9293 0
M  V30 6 C -1.0632 -4.509 -2.3313 0
M  V30 7 C -1.1051 -0.4068 -0.944 0
M  V30 8 C -0.1306 -1.282 -0.457 0
M  V30 9 O -0.0213 -5.2722 -1.7369 0
M  V30 10 C 0.9544 -0.8659 0.5211 0 CFG=1
M  V30 11 O 2.1934 -0.6847 -0.1837 0
M  V30 12 C 0.692 0.3932 1.3957 0
M  V30 13 N 0.8851 1.6477 0.6448 0
M  V30 14 C 0.8193 2.8935 1.426 0
M  V30 15 C -0.5114 3.0296 2.1829 0
M  V30 16 C 0.9153 4.0403 0.4016 0
M  V30 17 C 1.9971 3.0181 2.4068 0
M  V30 18 H -2.9897 -3.4292 -3.4329 0
M  V30 19 H -2.8153 -0.1597 -2.2265 0
M  V30 20 H 0.6357 -3.2935 -0.5672 0
M  V30 21 H -2.0126 -4.9961 -2.0857 0
M  V30 22 H -0.9128 -4.5247 -3.4158 0
M  V30 23 H -1.1375 0.6334 -0.6297 0
M  V30 24 H -0.0744 -6.1659 -2.1141 0
M  V30 25 H 1.1078 -1.6997 1.2184 0
M  V30 26 H 1.9676 -0.6282 -1.1289 0
M  V30 27 H -0.3132 0.3354 1.8258 0
M  V30 28 H 1.4166 0.3613 2.2166 0
M  V30 29 H 1.7942 1.577 0.1785 0
M  V30 30 H -0.6002 2.295 2.9905 0
M  V30 31 H -0.6018 4.0219 2.6405 0
M  V30 32 H -1.3673 2.899 1.5106 0
M  V30 33 H 0.0932 3.9991 -0.323 0
M  V30 34 H 0.8684 5.0176 0.8963 0
M  V30 35 H 1.857 4.0014 -0.1587 0
M  V30 36 H 1.9407 2.2791 3.2127 0
M  V30 37 H 2.9578 2.8873 1.8957 0
M  V30 38 H 2.0092 4.0076 2.8788 0
M  V30 END ATOM
M  V30 BEGIN BOND
M  V30 1 1 1 2
M  V30 2 2 2 3
M  V30 3 1 2 4
M  V30 4 1 3 5
M  V30 5 1 3 6
M  V30 6 2 4 7
M  V30 7 2 5 8
M  V30 8 1 6 9
M  V30 9 1 8 10
M  V30 10 1 10 11
M  V30 11 1 10 12
M  V30 12 1 12 13
M  V30 13 1 13 14
M  V30 14 1 14 15
M  V30 15 1 14 16
M  V30 16 1 14 17
M  V30 17 1 7 8
M  V30 18 1 1 18
M  V30 19 1 4 19
M  V30 20 1 5 20
M  V30 21 1 6 21
M  V30 22 1 6 22
M  V30 23 1 7 23
M  V30 24 1 9 24
M  V30 25 1 10 25
M  V30 26 1 11 26
M  V30 27 1 12 27
M  V30 28 1 12 28
M  V30 29 1 13 29
M  V30 30 1 15 30
M  V30 31 1 15 31
M  V30 32 1 15 32
M  V30 33 1 16 33
M  V30 34 1 16 34
M  V30 35 1 16 35
M  V30 36 1 17 36
M  V30 37 1 17 37
M  V30 38 1 17 38
M  V30 END BOND
M  V30 BEGIN COLLECTION
M  V30 MDLV30/STERAC1 ATOMS=(1 10)
M  V30 END COLLECTION
M  V30 END CTAB
M  END
>  <Column 1>
63

>  <level_0>
69

>  <index>
69

>  <Unnamed: 0>
69

>  <NO.>
70

>  <Name>
salbutamol 

>  <IUPAC_name>
4-[2-(tert-butylamino)-1-hydroxyethyl]-2-(hydroxymethyl)phenol

>  <SMILES>
CC(C)(C)NCC(O)c1ccc(O)c(CO)c1

>  <CID>
2083

>  <logBB>
-1.3

>  <BBB+/BBB->
BBB-

>  <Inchi>
InChI=1S/C13H21NO3/c1-13(2-3)14-7-12(17)9-4-5-11(16)10(6-9)8-15/h4-6-12-14-17H-7-8H2-1-3H3

>  <threshold>


>  <reference>
R3|R18|R25|R26|R27|R38|R41|R46|R47|R2|R2|R27|R40|R8|R21|R27|R43|R12|R31|R35|R39|R5|

>  <group>
A

>  <Class>
-1

>  <ABC>
12.64

>  <ABCGG>
11.47

>  <nAcid>
0

>  <nBase>
1

>  <nAromAtom>
6

>  <nAromBond>
6

>  <nAtom>
38

>  <nHeavyAtom>
17

>  <nSpiro>
0

>  <nBridgehead>
0

>  <nHetero>
4

>  <nN>
1

>  <nO>
3

>  <nF>
0

>  <BalabanJ>
2.39

>  <BertzCT>
371.42

>  <nBonds>
38

>  <nBondsO>
17

>  <nBondsS>
32

>  <nBondsD>
0

>  <nBondsT>
0

>  <nBondsA>
6

>  <nBondsM>
6

>  <nBondsKS>
35

>  <nBondsKD>
3

>  <RNCG>
0.27

>  <RPCG>
0.16

>  <FCSP3>
0.54

>  <SZ>
21.67

>  <Sm>
19.92

>  <Sv>
21.59

>  <Sse>
37.98

>  <Sp>
23.48

>  <Si>
43.28

>  <MZ>
0.57

>  <Mm>
0.52

>  <Mv>
0.57

>  <Mse>
1

>  <Mp>
0.62

>  <Mi>
1.14

>  <NsCH3>
3

>  <NdCH2>
0

>  <NssCH2>
2

>  <NtCH>
0

>  <NdsCH>
0

>  <NaaCH>
3

>  <NsssCH>
1

>  <NddC>
0

>  <NtsC>
0

>  <NdssC>
0

>  <NaasC>
3

>  <NaaaC>
0

>  <NssssC>
1

>  <NsNH3>
0

>  <NsNH2>
0

>  <NssNH2>
0

>  <NdNH>
0

>  <NssNH>
1

>  <NaaNH>
0

>  <NtN>
0

>  <NsssNH>
0

>  <NdsN>
0

>  <NaaN>
0

>  <NsssN>
0

>  <NddsN>
0

>  <NaasN>
0

>  <NssssN>
0

>  <NsOH>
3

>  <NdO>
0

>  <NssO>
0

>  <NaaO>
0

>  <NsF>
0

>  <NsSiH3>
0

>  <NssSiH2>
0

>  <NsssSiH>
0

>  <NssssSi>
0

>  <NsPH2>
0

>  <NssPH>
0

>  <NsssP>
0

>  <NdsssP>
0

>  <NsssssP>
0

>  <NsSH>
0

>  <NdS>
0

>  <NssS>
0

>  <NaaS>
0

>  <NdssS>
0

>  <NddssS>
0

>  <NsCl>
0

>  <NsBr>
0

>  <NsI>
0

>  <fragCpx>
17.04

>  <fMF>
0.16

>  <nHBAcc>
4

>  <nHBDon>
4

>  <Kier1>
15.06

>  <Kier2>
6.25

>  <Lipinski>
1

>  <GhoseFilter>
1

>  <FilterItLogS>
-2.35

>  <VMcGowan>
197.86

>  <LabuteASA>
101.92

>  <PEOE_VSA1>
20.64

>  <PEOE_VSA2>
0

>  <PEOE_VSA3>
0

>  <PEOE_VSA4>
0

>  <PEOE_VSA5>
0

>  <PEOE_VSA6>
6.07

>  <PEOE_VSA7>
38.47

>  <PEOE_VSA8>
17.65

>  <PEOE_VSA9>
12.71

>  <PEOE_VSA10>
5.75

>  <PEOE_VSA11>
0

>  <PEOE_VSA12>
0

>  <PEOE_VSA13>
0

>  <SMR_VSA1>
15.32

>  <SMR_VSA2>
0

>  <SMR_VSA3>
5.32

>  <SMR_VSA4>
0

>  <SMR_VSA5>
39.02

>  <SMR_VSA6>
6.54

>  <SMR_VSA7>
29.33

>  <SMR_VSA8>
0

>  <SMR_VSA9>
5.75

>  <SlogP_VSA1>
5.32

>  <SlogP_VSA2>
27.4

>  <SlogP_VSA3>
6.61

>  <SlogP_VSA4>
0

>  <SlogP_VSA5>
38

>  <SlogP_VSA6>
18.2

>  <SlogP_VSA7>
0

>  <SlogP_VSA8>
0

>  <SlogP_VSA9>
0

>  <SlogP_VSA10>
0

>  <SlogP_VSA11>
5.75

>  <EState_VSA1>
6.1

>  <EState_VSA2>
17.9

>  <EState_VSA3>
17.67

>  <EState_VSA4>
0

>  <EState_VSA5>
6.07

>  <EState_VSA6>
12.13

>  <EState_VSA7>
20.77

>  <EState_VSA8>
5.32

>  <EState_VSA9>
5.11

>  <EState_VSA10>
10.21

>  <VSA_EState1>
0

>  <VSA_EState2>
0

>  <VSA_EState3>
31.61

>  <VSA_EState4>
1.05

>  <VSA_EState5>
0.05

>  <VSA_EState6>
4.76

>  <VSA_EState7>
-0.65

>  <VSA_EState8>
6.26

>  <VSA_EState9>
0

>  <apol>
39.22

>  <bpol>
21.64

>  <nRing>
1

>  <nHRing>
0

>  <naRing>
1

>  <naHRing>
0

>  <nARing 2>
0

>  <nAHRing 2>
0

>  <nFRing>
0

>  <nFHRing>
0

>  <nFaRing>
0

>  <nFaHRing>
0

>  <nFARing 2>
0

>  <nFAHRing 2>
0

>  <nRot>
4

>  <SLogP>
1.31

>  <SMR>
66.75

>  <TopoPSA(NO)>
72.72

>  <TopoPSA>
72.72

>  <JGI1>
0.32

>  <JGI2>
0.1

>  <JGI3>
0.05

>  <JGI4>
0.06

>  <JGI5>
0.04

>  <Diameter>
9

>  <Radius>
5

>  <TMWC10>
103.52

>  <TSRW10>
49.24

>  <MW>
239.15

>  <AMW>
6.29

>  <WPath>
560

>  <WPol>
22

>  <Zagreb1>
82

>  <Zagreb2>
90

>  <mZagreb2>
3.76

>  <yes>


>  <nAR-cont>
0.336376

>  <nHA-cont>
0.976740822

>  <MWHBN>
0.51731467

>  <MWHBN-cont>
0

>  <TPSA-cont>
0.492369244

>  <pka_cont>
0.97

>  <yes.1>


>  <BBB_SCORE>
2.782855309

>  <MMFF94 Energy>
53.905

$$$$
Compound 46
Actelion Java MolfileCreator 2.0

  0  0  0  0  0  0              0 V3000
M  V30 BEGIN CTAB
M  V30 COUNTS 63 66 0 0 0
M  V30 BEGIN ATOM
M  V30 1 S -1.5261 -3.3759 -1.1243 0
M  V30 2 O -0.7093 -3.2303 -2.3096 0
M  V30 3 O -2.6813 -4.2494 -1.1191 0
M  V30 4 N -0.5264 -3.8244 0.1654 0
M  V30 5 C -2.0956 -1.7499 -0.6709 0
M  V30 6 C -1.1835 -4.0553 1.4813 0
M  V30 7 C 0.7614 -3.0896 0.3174 0
M  V30 8 C -1.3069 -0.637 -0.9654 0
M  V30 9 C -3.3484 -1.5887 -0.0837 0
M  V30 10 C -0.2168 -4.7869 2.4349 0
M  V30 11 C 1.6879 -3.8413 1.2945 0
M  V30 12 C -1.7427 0.6568 -0.6259 0
M  V30 13 C -3.7989 -0.3067 0.2433 0
M  V30 14 N 1.0526 -4.0505 2.6145 0
M  V30 15 C -0.7932 1.7852 -0.9315 0
M  V30 16 C -3.006 0.8231 -0.0129 0
M  V30 17 C 1.9513 -4.7862 3.5032 0
M  V30 18 N 0.4382 1.5106 -1.2695 0
M  V30 19 N -1.2988 3.0773 -0.8332 0
M  V30 20 O -3.3977 2.1014 0.2961 0
M  V30 21 C 1.2229 2.6348 -1.5267 0
M  V30 22 C -0.5704 4.2209 -1.0692 0
M  V30 23 C -4.6185 2.2819 1.0174 0
M  V30 24 C 0.7622 3.913 -1.4349 0
M  V30 25 C 2.5724 2.7216 -1.9036 0
M  V30 26 O -1.0449 5.3454 -0.9611 0
M  V30 27 C -4.7726 3.7654 1.301 0
M  V30 28 N 1.8179 4.7089 -1.7514 0
M  V30 29 N 2.944 4.0089 -2.0398 0
M  V30 30 C 3.5382 1.6131 -2.141 0
M  V30 31 C 1.8344 6.151 -1.7983 0
M  V30 32 C 4.1311 1.0749 -0.838 0
M  V30 33 C 5.1026 -0.0654 -1.0968 0
M  V30 34 H -1.4846 -3.0976 1.9212 0
M  V30 35 H -2.0763 -4.6762 1.3551 0
M  V30 36 H 1.2694 -3.012 -0.6489 0
M  V30 37 H 0.574 -2.0792 0.6973 0
M  V30 38 H -0.3474 -0.78 -1.461 0
M  V30 39 H -3.984 -2.4496 0.1163 0
M  V30 40 H -0.0217 -5.7946 2.044 0
M  V30 41 H -0.7143 -4.9006 3.4057 0
M  V30 42 H 1.9716 -4.8049 0.8506 0
M  V30 43 H 2.6047 -3.2525 1.4188 0
M  V30 44 H -4.7833 -0.2268 0.6955 0
M  V30 45 H 2.208 -5.7763 3.1096 0
M  V30 46 H 1.4927 -4.9157 4.4897 0
M  V30 47 H 2.8796 -4.2255 3.6587 0
M  V30 48 H -2.26 3.2181 -0.5506 0
M  V30 49 H -4.585 1.737 1.9677 0
M  V30 50 H -5.4676 1.9431 0.4133 0
M  V30 51 H -5.6958 3.9635 1.8529 0
M  V30 52 H -3.924 4.1361 1.8857 0
M  V30 53 H -4.7888 4.3368 0.3669 0
M  V30 54 H 4.3458 1.9609 -2.7977 0
M  V30 55 H 3.0294 0.8029 -2.6784 0
M  V30 56 H 1.5927 6.532 -0.8031 0
M  V30 57 H 1.0945 6.4819 -2.5311 0
M  V30 58 H 2.8286 6.495 -2.0953 0
M  V30 59 H 4.6513 1.8786 -0.3026 0
M  V30 60 H 3.3311 0.7203 -0.1765 0
M  V30 61 H 5.515 -0.4335 -0.1521 0
M  V30 62 H 4.6022 -0.9006 -1.5971 0
M  V30 63 H 5.9356 0.2639 -1.7259 0
M  V30 END ATOM
M  V30 BEGIN BOND
M  V30 1 2 1 2
M  V30 2 2 1 3
M  V30 3 1 1 4
M  V30 4 1 1 5
M  V30 5 1 4 6
M  V30 6 1 4 7
M  V30 7 2 5 8
M  V30 8 1 5 9
M  V30 9 1 6 10
M  V30 10 1 7 11
M  V30 11 1 8 12
M  V30 12 2 9 13
M  V30 13 1 10 14
M  V30 14 1 12 15
M  V30 15 2 12 16
M  V30 16 1 14 17
M  V30 17 2 15 18
M  V30 18 1 15 19
M  V30 19 1 16 20
M  V30 20 1 18 21
M  V30 21 1 19 22
M  V30 22 1 20 23
M  V30 23 2 21 24
M  V30 24 1 21 25
M  V30 25 2 22 26
M  V30 26 1 23 27
M  V30 27 1 24 28
M  V30 28 2 25 29
M  V30 29 1 25 30
M  V30 30 1 28 31
M  V30 31 1 30 32
M  V30 32 1 32 33
M  V30 33 1 11 14
M  V30 34 1 13 16
M  V30 35 1 22 24
M  V30 36 1 28 29
M  V30 37 1 6 34
M  V30 38 1 6 35
M  V30 39 1 7 36
M  V30 40 1 7 37
M  V30 41 1 8 38
M  V30 42 1 9 39
M  V30 43 1 10 40
M  V30 44 1 10 41
M  V30 45 1 11 42
M  V30 46 1 11 43
M  V30 47 1 13 44
M  V30 48 1 17 45
M  V30 49 1 17 46
M  V30 50 1 17 47
M  V30 51 1 19 48
M  V30 52 1 23 49
M  V30 53 1 23 50
M  V30 54 1 27 51
M  V30 55 1 27 52
M  V30 56 1 27 53
M  V30 57 1 30 54
M  V30 58 1 30 55
M  V30 59 1 31 56
M  V30 60 1 31 57
M  V30 61 1 31 58
M  V30 62 1 32 59
M  V30 63 1 32 60
M  V30 64 1 33 61
M  V30 65 1 33 62
M  V30 66 1 33 63
M  V30 END BOND
M  V30 END CTAB
M  END
>  <Column 1>
64

>  <level_0>
70

>  <index>
70

>  <Unnamed: 0>
70

>  <NO.>
71

>  <Name>
sildenafil

>  <IUPAC_name>
5-[2-ethoxy-5-(4-methylpiperazin-1-yl)sulfonylphenyl]-1-methyl-3-propyl-6h-pyrazolo[4-3-d]pyrimidin-7-one

>  <SMILES>
CCCc1nn(C)c2c(=O)[nH]c(-c3cc(S(=O)(=O)N4CCN(C)CC4)ccc3OCC)nc12

>  <CID>
135398744

>  <logBB>
-1.3

>  <BBB+/BBB->
BBB-

>  <Inchi>
InChI=1S/C22H30N6O4S/c1-5-7-17-19-20(27(4)25-17)22(29)24-21(23-19)16-14-15(8-9-18(16)32-6-2)33(30-31)28-12-10-26(3)11-13-28/h8-9-14H-5-7-10-13H2-1-4H3-(H-23-24-29)

>  <threshold>


>  <reference>
R47|

>  <group>
A

>  <Class>
-1

>  <ABC>
25.74

>  <ABCGG>
20.48

>  <nAcid>
0

>  <nBase>
1

>  <nAromAtom>
15

>  <nAromBond>
16

>  <nAtom>
63

>  <nHeavyAtom>
33

>  <nSpiro>
0

>  <nBridgehead>
0

>  <nHetero>
11

>  <nN>
6

>  <nO>
4

>  <nF>
0

>  <BalabanJ>
1.5

>  <BertzCT>
1322.64

>  <nBonds>
66

>  <nBondsO>
36

>  <nBondsS>
47

>  <nBondsD>
3

>  <nBondsT>
0

>  <nBondsA>
16

>  <nBondsM>
19

>  <nBondsKS>
57

>  <nBondsKD>
9

>  <RNCG>
0.17

>  <RPCG>
0.1

>  <FCSP3>
0.5

>  <SZ>
42

>  <Sm>
39.51

>  <Sv>
38.72

>  <Sse>
63.7

>  <Sp>
41.59

>  <Si>
71.73

>  <MZ>
0.67

>  <Mm>
0.63

>  <Mv>
0.61

>  <Mse>
1.01

>  <Mp>
0.66

>  <Mi>
1.14

>  <NsCH3>
4

>  <NdCH2>
0

>  <NssCH2>
7

>  <NtCH>
0

>  <NdsCH>
0

>  <NaaCH>
3

>  <NsssCH>
0

>  <NddC>
0

>  <NtsC>
0

>  <NdssC>
0

>  <NaasC>
5

>  <NaaaC>
2

>  <NssssC>
0

>  <NsNH3>
0

>  <NsNH2>
0

>  <NssNH2>
0

>  <NdNH>
0

>  <NssNH>
0

>  <NaaNH>
1

>  <NtN>
0

>  <NsssNH>
0

>  <NdsN>
0

>  <NaaN>
2

>  <NsssN>
2

>  <NddsN>
0

>  <NaasN>
1

>  <NssssN>
0

>  <NsOH>
0

>  <NdO>
3

>  <NssO>
1

>  <NaaO>
0

>  <NsF>
0

>  <NsSiH3>
0

>  <NssSiH2>
0

>  <NsssSiH>
0

>  <NssssSi>
0

>  <NsPH2>
0

>  <NssPH>
0

>  <NsssP>
0

>  <NdsssP>
0

>  <NsssssP>
0

>  <NsSH>
0

>  <NdS>
0

>  <NssS>
0

>  <NaaS>
0

>  <NdssS>
0

>  <NddssS>
1

>  <NsCl>
0

>  <NsBr>
0

>  <NsI>
0

>  <fragCpx>
240.11

>  <fMF>
0.35

>  <nHBAcc>
8

>  <nHBDon>
1

>  <Kier1>
26.07

>  <Kier2>
10.95

>  <Lipinski>
1

>  <GhoseFilter>
1

>  <FilterItLogS>
-5.37

>  <VMcGowan>
347.01

>  <LabuteASA>
192.78

>  <PEOE_VSA1>
14.62

>  <PEOE_VSA2>
9.48

>  <PEOE_VSA3>
13.4

>  <PEOE_VSA4>
9.4

>  <PEOE_VSA5>
0

>  <PEOE_VSA6>
13.34

>  <PEOE_VSA7>
38.59

>  <PEOE_VSA8>
33.23

>  <PEOE_VSA9>
22.76

>  <PEOE_VSA10>
17.09

>  <PEOE_VSA11>
5.52

>  <PEOE_VSA12>
10.02

>  <PEOE_VSA13>
5.56

>  <SMR_VSA1>
13.15

>  <SMR_VSA2>
0

>  <SMR_VSA3>
28.95

>  <SMR_VSA4>
7.05

>  <SMR_VSA5>
31.58

>  <SMR_VSA6>
39.83

>  <SMR_VSA7>
34.25

>  <SMR_VSA8>
0

>  <SMR_VSA9>
17.14

>  <SlogP_VSA1>
10.3

>  <SlogP_VSA2>
77.2

>  <SlogP_VSA3>
23.49

>  <SlogP_VSA4>
0

>  <SlogP_VSA5>
25.96

>  <SlogP_VSA6>
27.89

>  <SlogP_VSA7>
0

>  <SlogP_VSA8>
22.42

>  <SlogP_VSA9>
0

>  <SlogP_VSA10>
0

>  <SlogP_VSA11>
5.75

>  <EState_VSA1>
10.02

>  <EState_VSA2>
16.28

>  <EState_VSA3>
61.55

>  <EState_VSA4>
12.11

>  <EState_VSA5>
8.99

>  <EState_VSA6>
25.25

>  <EState_VSA7>
20.9

>  <EState_VSA8>
14.98

>  <EState_VSA9>
9.72

>  <EState_VSA10>
13.21

>  <VSA_EState1>
35.44

>  <VSA_EState2>
22.66

>  <VSA_EState3>
4.45

>  <VSA_EState4>
1.75

>  <VSA_EState5>
0.72

>  <VSA_EState6>
4.71

>  <VSA_EState7>
1.54

>  <VSA_EState8>
6.48

>  <VSA_EState9>
-0.01

>  <apol>
69.45

>  <bpol>
46.2

>  <nRing>
4

>  <nHRing>
3

>  <naRing>
3

>  <naHRing>
2

>  <nARing 2>
1

>  <nAHRing 2>
1

>  <nFRing>
1

>  <nFHRing>
1

>  <nFaRing>
1

>  <nFaHRing>
1

>  <nFARing 2>
0

>  <nFAHRing 2>
0

>  <nRot>
7

>  <SLogP>
1.61

>  <SMR>
125.99

>  <TopoPSA(NO)>
113.42

>  <TopoPSA>
121.8

>  <JGI1>
0.22

>  <JGI2>
0.1

>  <JGI3>
0.06

>  <JGI4>
0.04

>  <JGI5>
0.04

>  <Diameter>
15

>  <Radius>
8

>  <TMWC10>
148.31

>  <TSRW10>
83.9

>  <MW>
474.2

>  <AMW>
7.53

>  <WPath>
3086

>  <WPol>
59

>  <Zagreb1>
178

>  <Zagreb2>
215

>  <mZagreb2>
7.25

>  <yes>


>  <nAR-cont>
0.816016

>  <nHA-cont>
0.61399562

>  <MWHBN>
0.413296507

>  <MWHBN-cont>
0.423957853

>  <TPSA-cont>
0

>  <pka_cont>
0.97

>  <yes.1>


>  <BBB_SCORE>
2.5509484

>  <MMFF94 Energy>
-13.302

$$$$
Compound 47
Actelion Java MolfileCreator 2.0

  0  0  0  0  0  0              0 V3000
M  V30 BEGIN CTAB
M  V30 COUNTS 60 63 0 0 0
M  V30 BEGIN ATOM
M  V30 1 S 4.8075 -0.8 3.2832 0
M  V30 2 C 5.8482 -0.5805 1.8036 0
M  V30 3 C 3.8162 0.742 3.2181 0
M  V30 4 C 5.0754 -0.6985 0.5439 0
M  V30 5 C 2.3147 0.4482 3.1697 0
M  V30 6 O 4.5128 -1.9129 0.2762 0
M  V30 7 C 4.7796 0.1901 -0.4685 0
M  V30 8 N 1.9226 -0.1088 1.889 0
M  V30 9 C 3.8158 -1.7863 -0.8882 0
M  V30 10 C 3.9695 -0.5112 -1.392 0
M  V30 11 C 1.113 0.5169 0.9936 0
M  V30 12 C 3.0444 -2.9757 -1.35 0
M  V30 13 N 0.6793 1.7283 1.1492 0
M  V30 14 N 0.7903 -0.2603 -0.0749 0
M  V30 15 N 1.7263 -3.0553 -0.6762 0
M  V30 16 C -0.1366 2.2851 0.1842 0
M  V30 17 C -0.048 0.202 -1.0416 0
M  V30 18 C 1.8585 -3.7196 0.6314 0
M  V30 19 C 0.7957 -3.8315 -1.5052 0
M  V30 20 O -0.5053 3.4558 0.2393 0
M  V30 21 C -0.568 1.4336 -0.9754 0
M  V30 22 C -1.4803 2.0283 -2.0032 0
M  V30 23 C -2.9447 1.8112 -1.6951 0
M  V30 24 C -3.6271 2.685 -0.8349 0
M  V30 25 C -3.6352 0.7224 -2.2395 0
M  V30 26 C -4.983 2.4898 -0.5226 0
M  V30 27 C -4.9845 0.5173 -1.9399 0
M  V30 28 C -5.6719 1.3919 -1.0844 0
M  V30 29 C -5.668 3.3624 0.3384 0
M  V30 30 C -7.0279 1.1989 -0.7723 0
M  V30 31 C -7.0155 3.1569 0.6392 0
M  V30 32 C -7.6949 2.0767 0.084 0
M  V30 33 H 6.6224 -1.3548 1.8238 0
M  V30 34 H 6.3597 0.3856 1.8647 0
M  V30 35 H 4.0409 1.2977 4.1346 0
M  V30 36 H 4.1176 1.3691 2.3733 0
M  V30 37 H 2.032 -0.2522 3.9643 0
M  V30 38 H 1.7709 1.3768 3.3782 0
M  V30 39 H 5.0887 1.225 -0.5213 0
M  V30 40 H 2.4186 -0.944 1.5999 0
M  V30 41 H 3.5228 -0.1263 -2.2982 0
M  V30 42 H 2.9006 -2.8554 -2.4323 0
M  V30 43 H 3.6279 -3.8954 -1.2164 0
M  V30 44 H 1.1406 -1.2153 -0.1552 0
M  V30 45 H -0.2654 -0.4979 -1.8397 0
M  V30 46 H 2.5254 -3.1669 1.2988 0
M  V30 47 H 2.2373 -4.7441 0.5396 0
M  V30 48 H 0.8853 -3.7576 1.1344 0
M  V30 49 H 1.1585 -4.8478 -1.6972 0
M  V30 50 H 0.6335 -3.3329 -2.4674 0
M  V30 51 H -0.1854 -3.8979 -1.0216 0
M  V30 52 H -1.2581 1.5948 -2.9882 0
M  V30 53 H -1.2864 3.1008 -2.132 0
M  V30 54 H -3.0918 3.5283 -0.3982 0
M  V30 55 H -3.13 0.0244 -2.9025 0
M  V30 56 H -5.4975 -0.3351 -2.379 0
M  V30 57 H -5.1512 4.2104 0.7832 0
M  V30 58 H -7.575 0.3595 -1.1948 0
M  V30 59 H -7.5315 3.8406 1.3081 0
M  V30 60 H -8.7439 1.9154 0.3181 0
M  V30 END ATOM
M  V30 BEGIN BOND
M  V30 1 1 1 2
M  V30 2 1 1 3
M  V30 3 1 2 4
M  V30 4 1 3 5
M  V30 5 1 4 6
M  V30 6 2 4 7
M  V30 7 1 5 8
M  V30 8 1 6 9
M  V30 9 1 7 10
M  V30 10 1 8 11
M  V30 11 1 9 12
M  V30 12 2 11 13
M  V30 13 1 11 14
M  V30 14 1 12 15
M  V30 15 1 13 16
M  V30 16 1 14 17
M  V30 17 1 15 18
M  V30 18 1 15 19
M  V30 19 2 16 20
M  V30 20 1 16 21
M  V30 21 1 21 22
M  V30 22 1 22 23
M  V30 23 2 23 24
M  V30 24 1 23 25
M  V30 25 1 24 26
M  V30 26 2 25 27
M  V30 27 1 26 28
M  V30 28 2 26 29
M  V30 29 2 28 30
M  V30 30 1 29 31
M  V30 31 1 30 32
M  V30 32 2 9 10
M  V30 33 2 17 21
M  V30 34 1 27 28
M  V30 35 2 31 32
M  V30 36 1 2 33
M  V30 37 1 2 34
M  V30 38 1 3 35
M  V30 39 1 3 36
M  V30 40 1 5 37
M  V30 41 1 5 38
M  V30 42 1 7 39
M  V30 43 1 8 40
M  V30 44 1 10 41
M  V30 45 1 12 42
M  V30 46 1 12 43
M  V30 47 1 14 44
M  V30 48 1 17 45
M  V30 49 1 18 46
M  V30 50 1 18 47
M  V30 51 1 18 48
M  V30 52 1 19 49
M  V30 53 1 19 50
M  V30 54 1 19 51
M  V30 55 1 22 52
M  V30 56 1 22 53
M  V30 57 1 24 54
M  V30 58 1 25 55
M  V30 59 1 27 56
M  V30 60 1 29 57
M  V30 61 1 30 58
M  V30 62 1 31 59
M  V30 63 1 32 60
M  V30 END BOND
M  V30 END CTAB
M  END
>  <Column 1>
65

>  <level_0>
71

>  <index>
71

>  <Unnamed: 0>
71

>  <NO.>
72

>  <Name>
sk&f 93319

>  <IUPAC_name>
2-[2-[[5-[(dimethylamino)methyl]furan-2-yl]methylsulfanyl]ethylamino]-5-(naphthalen-2-ylmethyl)-1h-pyrimidin-6-one

>  <SMILES>
CN(C)Cc1ccc(CSCCNc2nc(=O)c(Cc3ccc4ccccc4c3)c[nH]2)o1

>  <CID>
14022522

>  <logBB>
-1.3

>  <BBB+/BBB->
BBB-

>  <Inchi>
InChI=1S/C25H28N4O2S/c1-29(2)16-22-9-10-23(31-22)17-32-12-11-26-25-27-15-21(24(30)28-25)14-18-7-8-19-5-3-4-6-20(19)13-18/h3-10-13-15H-11-12-14-16-17H2-1-2H3-(H2-26-27-28-30)

>  <threshold>


>  <reference>
R40|R2|R2|R2|R2|R8|R12|R18|R25|R26|R27|R35|R36|R43|R46|R47|R48|R49|R49|R4|

>  <group>
A

>  <Class>
-1

>  <ABC>
25

>  <ABCGG>
17.16

>  <nAcid>
0

>  <nBase>
1

>  <nAromAtom>
21

>  <nAromBond>
22

>  <nAtom>
60

>  <nHeavyAtom>
32

>  <nSpiro>
0

>  <nBridgehead>
0

>  <nHetero>
7

>  <nN>
4

>  <nO>
2

>  <nF>
0

>  <BalabanJ>
1.05

>  <BertzCT>
1231.83

>  <nBonds>
63

>  <nBondsO>
35

>  <nBondsS>
40

>  <nBondsD>
1

>  <nBondsT>
0

>  <nBondsA>
22

>  <nBondsM>
23

>  <nBondsKS>
53

>  <nBondsKD>
10

>  <RNCG>
0.18

>  <RPCG>
0.11

>  <FCSP3>
0.28

>  <SZ>
39.67

>  <Sm>
37.35

>  <Sv>
38.23

>  <Sse>
59.82

>  <Sp>
41.51

>  <Si>
67.32

>  <MZ>
0.66

>  <Mm>
0.62

>  <Mv>
0.64

>  <Mse>
1

>  <Mp>
0.69

>  <Mi>
1.12

>  <NsCH3>
2

>  <NdCH2>
0

>  <NssCH2>
5

>  <NtCH>
0

>  <NdsCH>
0

>  <NaaCH>
10

>  <NsssCH>
0

>  <NddC>
0

>  <NtsC>
0

>  <NdssC>
0

>  <NaasC>
5

>  <NaaaC>
2

>  <NssssC>
0

>  <NsNH3>
0

>  <NsNH2>
0

>  <NssNH2>
0

>  <NdNH>
0

>  <NssNH>
1

>  <NaaNH>
1

>  <NtN>
0

>  <NsssNH>
0

>  <NdsN>
0

>  <NaaN>
1

>  <NsssN>
1

>  <NddsN>
0

>  <NaasN>
0

>  <NssssN>
0

>  <NsOH>
0

>  <NdO>
1

>  <NssO>
0

>  <NaaO>
1

>  <NsF>
0

>  <NsSiH3>
0

>  <NssSiH2>
0

>  <NsssSiH>
0

>  <NssssSi>
0

>  <NsPH2>
0

>  <NssPH>
0

>  <NsssP>
0

>  <NdsssP>
0

>  <NsssssP>
0

>  <NsSH>
0

>  <NdS>
0

>  <NssS>
1

>  <NaaS>
0

>  <NdssS>
0

>  <NddssS>
0

>  <NsCl>
0

>  <NsBr>
0

>  <NsI>
0

>  <fragCpx>
233.07

>  <fMF>
0.45

>  <nHBAcc>
6

>  <nHBDon>
2

>  <Kier1>
25.1

>  <Kier2>
12.63

>  <Lipinski>
1

>  <GhoseFilter>
0

>  <FilterItLogS>
-8.14

>  <VMcGowan>
344.68

>  <LabuteASA>
191.61

>  <PEOE_VSA1>
19.62

>  <PEOE_VSA2>
4.79

>  <PEOE_VSA3>
0

>  <PEOE_VSA4>
16.75

>  <PEOE_VSA5>
0

>  <PEOE_VSA6>
42.46

>  <PEOE_VSA7>
42.56

>  <PEOE_VSA8>
30.48

>  <PEOE_VSA9>
12.3

>  <PEOE_VSA10>
11.52

>  <PEOE_VSA11>
0

>  <PEOE_VSA12>
5.95

>  <PEOE_VSA13>
5.56

>  <SMR_VSA1>
4.42

>  <SMR_VSA2>
0

>  <SMR_VSA3>
14.87

>  <SMR_VSA4>
0

>  <SMR_VSA5>
18.72

>  <SMR_VSA6>
31.71

>  <SMR_VSA7>
93.8

>  <SMR_VSA8>
0

>  <SMR_VSA9>
0

>  <SlogP_VSA1>
10.88

>  <SlogP_VSA2>
41.26

>  <SlogP_VSA3>
18.72

>  <SlogP_VSA4>
0

>  <SlogP_VSA5>
22.65

>  <SlogP_VSA6>
70.01

>  <SlogP_VSA7>
0

>  <SlogP_VSA8>
10.77

>  <SlogP_VSA9>
0

>  <SlogP_VSA10>
5.95

>  <SlogP_VSA11>
0

>  <EState_VSA1>
0

>  <EState_VSA2>
5.56

>  <EState_VSA3>
24.48

>  <EState_VSA4>
35.13

>  <EState_VSA5>
10.77

>  <EState_VSA6>
17.96

>  <EState_VSA7>
38.36

>  <EState_VSA8>
50.52

>  <EState_VSA9>
4.42

>  <EState_VSA10>
4.79

>  <VSA_EState1>
5.82

>  <VSA_EState2>
21.83

>  <VSA_EState3>
5.56

>  <VSA_EState4>
1.56

>  <VSA_EState5>
4.17

>  <VSA_EState6>
18.56

>  <VSA_EState7>
2.32

>  <VSA_EState8>
1.52

>  <VSA_EState9>
4.05

>  <apol>
69.32

>  <bpol>
37.14

>  <nRing>
4

>  <nHRing>
2

>  <naRing>
4

>  <naHRing>
2

>  <nARing 2>
0

>  <nAHRing 2>
0

>  <nFRing>
1

>  <nFHRing>
0

>  <nFaRing>
1

>  <nFaHRing>
0

>  <nFARing 2>
0

>  <nFAHRing 2>
0

>  <nRot>
10

>  <SLogP>
4.51

>  <SMR>
132.36

>  <TopoPSA(NO)>
74.16

>  <TopoPSA>
99.46

>  <JGI1>
0.19

>  <JGI2>
0.05

>  <JGI3>
0.04

>  <JGI4>
0.04

>  <JGI5>
0.02

>  <Diameter>
21

>  <Radius>
11

>  <TMWC10>
143.3

>  <TSRW10>
81.17

>  <MW>
448.19

>  <AMW>
7.47

>  <WPath>
3922

>  <WPol>
44

>  <Zagreb1>
164

>  <Zagreb2>
187

>  <mZagreb2>
7.06

>  <yes>


>  <nAR-cont>
0.336376

>  <nHA-cont>
0.658856097

>  <MWHBN>
0.37788435

>  <MWHBN-cont>
0.563099986

>  <TPSA-cont>
0.305707439

>  <pka_cont>
0.97

>  <yes.1>


>  <BBB_SCORE>
2.936296954

>  <MMFF94 Energy>
-28.603

$$$$
Compound 48
Actelion Java MolfileCreator 2.0

  0  0  0  0  0  0              0 V3000
M  V30 BEGIN CTAB
M  V30 COUNTS 51 54 0 0 0
M  V30 BEGIN ATOM
M  V30 1 Cl 5.8616 0.7416 1.4836 0
M  V30 2 C 4.5012 1.1284 0.5027 0
M  V30 3 C 3.4969 1.9546 1.0143 0
M  V30 4 C 4.4112 0.6137 -0.7803 0
M  V30 5 C 2.3594 2.2784 0.2286 0
M  V30 6 C 3.3096 0.9193 -1.5811 0
M  V30 7 C 2.2954 1.7505 -1.0634 0
M  V30 8 C 1.1931 3.0828 0.5354 0
M  V30 9 S 0.8688 2.2443 -1.8746 0
M  V30 10 C 0.3049 3.1276 -0.5321 0
M  V30 11 C 0.9586 3.7787 1.8399 0
M  V30 12 S -1.3174 3.88 -0.7082 0
M  V30 13 O -1.6262 3.9418 -2.1194 0
M  V30 14 O -1.2439 5.0779 0.1026 0
M  V30 15 N -2.4239 2.8544 0.0785 0
M  V30 16 C -2.4373 1.4956 -0.3573 0
M  V30 17 C -1.742 0.5313 0.3744 0
M  V30 18 C -3.05 1.1563 -1.5553 0
M  V30 19 C -1.6415 -0.7964 -0.075 0
M  V30 20 C -2.9818 -0.1568 -2.02 0
M  V30 21 N -0.9136 -1.7348 0.6534 0
M  V30 22 C -2.2778 -1.1323 -1.2992 0
M  V30 23 C 0.2992 -1.3494 1.3858 0
M  V30 24 C -1.6431 -2.8822 1.217 0
M  V30 25 O -2.1261 -2.4312 -1.7282 0
M  V30 26 C 1.2024 -2.5806 1.6226 0
M  V30 27 C -0.6804 -4.0654 1.4623 0
M  V30 28 C -2.5846 -2.7533 -3.0331 0
M  V30 29 N 0.5043 -3.7084 2.2713 0
M  V30 30 H 3.5921 2.348 2.0229 0
M  V30 31 H 5.1958 -0.0276 -1.1739 0
M  V30 32 H 3.2353 0.5196 -2.5892 0
M  V30 33 H -0.0712 3.6303 2.1804 0
M  V30 34 H 1.1428 4.8523 1.7328 0
M  V30 35 H 1.6135 3.3993 2.6291 0
M  V30 36 H -2.3633 2.9893 1.0866 0
M  V30 37 H -1.268 0.8134 1.3088 0
M  V30 38 H -3.5755 1.9087 -2.1387 0
M  V30 39 H -3.4749 -0.3823 -2.9593 0
M  V30 40 H 0.8747 -0.6095 0.8171 0
M  V30 41 H 0.0272 -0.9026 2.3502 0
M  V30 42 H -2.4556 -3.2264 0.5687 0
M  V30 43 H -2.1014 -2.579 2.1674 0
M  V30 44 H 2.0499 -2.285 2.2505 0
M  V30 45 H 1.616 -2.918 0.6636 0
M  V30 46 H -1.2236 -4.8661 1.9757 0
M  V30 47 H -0.3479 -4.4693 0.4976 0
M  V30 48 H -3.6746 -2.6744 -3.0971 0
M  V30 49 H -2.3162 -3.7951 -3.2331 0
M  V30 50 H -2.0954 -2.1335 -3.7917 0
M  V30 51 H 1.1325 -4.5102 2.3014 0
M  V30 END ATOM
M  V30 BEGIN BOND
M  V30 1 1 1 2
M  V30 2 2 2 3
M  V30 3 1 2 4
M  V30 4 1 3 5
M  V30 5 2 4 6
M  V30 6 2 5 7
M  V30 7 1 5 8
M  V30 8 1 7 9
M  V30 9 2 8 10
M  V30 10 1 8 11
M  V30 11 1 10 12
M  V30 12 2 12 13
M  V30 13 2 12 14
M  V30 14 1 12 15
M  V30 15 1 15 16
M  V30 16 2 16 17
M  V30 17 1 16 18
M  V30 18 1 17 19
M  V30 19 2 18 20
M  V30 20 1 19 21
M  V30 21 2 19 22
M  V30 22 1 21 23
M  V30 23 1 21 24
M  V30 24 1 22 25
M  V30 25 1 23 26
M  V30 26 1 24 27
M  V30 27 1 25 28
M  V30 28 1 26 29
M  V30 29 1 6 7
M  V30 30 1 9 10
M  V30 31 1 20 22
M  V30 32 1 27 29
M  V30 33 1 3 30
M  V30 34 1 4 31
M  V30 35 1 6 32
M  V30 36 1 11 33
M  V30 37 1 11 34
M  V30 38 1 11 35
M  V30 39 1 15 36
M  V30 40 1 17 37
M  V30 41 1 18 38
M  V30 42 1 20 39
M  V30 43 1 23 40
M  V30 44 1 23 41
M  V30 45 1 24 42
M  V30 46 1 24 43
M  V30 47 1 26 44
M  V30 48 1 26 45
M  V30 49 1 27 46
M  V30 50 1 27 47
M  V30 51 1 28 48
M  V30 52 1 28 49
M  V30 53 1 28 50
M  V30 54 1 29 51
M  V30 END BOND
M  V30 END CTAB
M  END
>  <Column 1>
66

>  <level_0>
72

>  <index>
72

>  <Unnamed: 0>
72

>  <NO.>
73

>  <Name>
sb-271406

>  <IUPAC_name>
5-chloro-n-(4-methoxy-3-piperazin-1-ylphenyl)-3-methyl-1-benzothiophene-2-sulfonamide

>  <SMILES>
COc1ccc(NS(=O)(=O)c2sc3ccc(Cl)cc3c2C)cc1N1CCNCC1

>  <CID>
5312149

>  <logBB>
-1.3

>  <BBB+/BBB->
BBB-

>  <Inchi>
InChI=1S/C20H22ClN3O3S2/c1-13-16-11-14(21)3-6-19(16)28-20(13)29(25-26)23-15-4-5-18(27-2)17(12-15)24-9-7-22-8-10-24/h3-6-11-12-22-23H-7-10H2-1-2H3

>  <threshold>


>  <reference>
R18|R26|R27|

>  <group>
A

>  <Class>
-1

>  <ABC>
22.9

>  <ABCGG>
18.15

>  <nAcid>
0

>  <nBase>
1

>  <nAromAtom>
15

>  <nAromBond>
16

>  <nAtom>
51

>  <nHeavyAtom>
29

>  <nSpiro>
0

>  <nBridgehead>
0

>  <nHetero>
9

>  <nN>
3

>  <nO>
3

>  <nF>
0

>  <BalabanJ>
1.39

>  <BertzCT>
1155.23

>  <nBonds>
54

>  <nBondsO>
32

>  <nBondsS>
36

>  <nBondsD>
2

>  <nBondsT>
0

>  <nBondsA>
16

>  <nBondsM>
18

>  <nBondsKS>
45

>  <nBondsKD>
9

>  <RNCG>
0.22

>  <RPCG>
0.12

>  <FCSP3>
0.3

>  <SZ>
39.33

>  <Sm>
37.63

>  <Sv>
33.84

>  <Sse>
51.67

>  <Sp>
36.98

>  <Si>
57.06

>  <MZ>
0.77

>  <Mm>
0.74

>  <Mv>
0.66

>  <Mse>
1.01

>  <Mp>
0.73

>  <Mi>
1.12

>  <NsCH3>
2

>  <NdCH2>
0

>  <NssCH2>
4

>  <NtCH>
0

>  <NdsCH>
0

>  <NaaCH>
6

>  <NsssCH>
0

>  <NddC>
0

>  <NtsC>
0

>  <NdssC>
0

>  <NaasC>
6

>  <NaaaC>
2

>  <NssssC>
0

>  <NsNH3>
0

>  <NsNH2>
0

>  <NssNH2>
0

>  <NdNH>
0

>  <NssNH>
2

>  <NaaNH>
0

>  <NtN>
0

>  <NsssNH>
0

>  <NdsN>
0

>  <NaaN>
0

>  <NsssN>
1

>  <NddsN>
0

>  <NaasN>
0

>  <NssssN>
0

>  <NsOH>
0

>  <NdO>
2

>  <NssO>
1

>  <NaaO>
0

>  <NsF>
0

>  <NsSiH3>
0

>  <NssSiH2>
0

>  <NsssSiH>
0

>  <NssssSi>
0

>  <NsPH2>
0

>  <NssPH>
0

>  <NsssP>
0

>  <NdsssP>
0

>  <NsssssP>
0

>  <NsSH>
0

>  <NdS>
0

>  <NssS>
0

>  <NaaS>
1

>  <NdssS>
0

>  <NddssS>
1

>  <NsCl>
1

>  <NsBr>
0

>  <NsI>
0

>  <fragCpx>
212.09

>  <fMF>
0.45

>  <nHBAcc>
6

>  <nHBDon>
2

>  <Kier1>
22.2

>  <Kier2>
9.24

>  <Lipinski>
1

>  <GhoseFilter>
1

>  <FilterItLogS>
-6.43

>  <VMcGowan>
311.61

>  <LabuteASA>
179.03

>  <PEOE_VSA1>
14.95

>  <PEOE_VSA2>
4.72

>  <PEOE_VSA3>
8.42

>  <PEOE_VSA4>
0

>  <PEOE_VSA5>
11.34

>  <PEOE_VSA6>
11.6

>  <PEOE_VSA7>
54.27

>  <PEOE_VSA8>
35.9

>  <PEOE_VSA9>
18.48

>  <PEOE_VSA10>
9.96

>  <PEOE_VSA11>
0

>  <PEOE_VSA12>
0

>  <PEOE_VSA13>
10.02

>  <SMR_VSA1>
13.15

>  <SMR_VSA2>
0

>  <SMR_VSA3>
5.32

>  <SMR_VSA4>
0

>  <SMR_VSA5>
11.13

>  <SMR_VSA6>
42.91

>  <SMR_VSA7>
46.98

>  <SMR_VSA8>
0

>  <SMR_VSA9>
5.75

>  <SlogP_VSA1>
19.68

>  <SlogP_VSA2>
41.71

>  <SlogP_VSA3>
10.02

>  <SlogP_VSA4>
6.92

>  <SlogP_VSA5>
5.56

>  <SlogP_VSA6>
40.61

>  <SlogP_VSA7>
5.02

>  <SlogP_VSA8>
10.09

>  <SlogP_VSA9>
0

>  <SlogP_VSA10>
11.37

>  <SlogP_VSA11>
5.75

>  <EState_VSA1>
10.02

>  <EState_VSA2>
0

>  <EState_VSA3>
20.48

>  <EState_VSA4>
47.7

>  <EState_VSA5>
11.34

>  <EState_VSA6>
31.38

>  <EState_VSA7>
19.06

>  <EState_VSA8>
14.94

>  <EState_VSA9>
16.34

>  <EState_VSA10>
8.42

>  <VSA_EState1>
35.68

>  <VSA_EState2>
2.19

>  <VSA_EState3>
4.77

>  <VSA_EState4>
2.1

>  <VSA_EState5>
0.72

>  <VSA_EState6>
10.78

>  <VSA_EState7>
0

>  <VSA_EState8>
5.24

>  <VSA_EState9>
-2.11

>  <apol>
61.76

>  <bpol>
36.28

>  <nRing>
4

>  <nHRing>
2

>  <naRing>
3

>  <naHRing>
1

>  <nARing 2>
1

>  <nAHRing 2>
1

>  <nFRing>
1

>  <nFHRing>
1

>  <nFaRing>
1

>  <nFaHRing>
1

>  <nFARing 2>
0

>  <nFAHRing 2>
0

>  <nRot>
5

>  <SLogP>
4.08

>  <SMR>
120.46

>  <TopoPSA(NO)>
70.67

>  <TopoPSA>
107.29

>  <JGI1>
0.22

>  <JGI2>
0.09

>  <JGI3>
0.06

>  <JGI4>
0.05

>  <JGI5>
0.02

>  <Diameter>
14

>  <Radius>
7

>  <TMWC10>
138.89

>  <TSRW10>
79.24

>  <MW>
451.08

>  <AMW>
8.84

>  <WPath>
2270

>  <WPol>
49

>  <Zagreb1>
158

>  <Zagreb2>
189

>  <mZagreb2>
6.26

>  <yes>


>  <nAR-cont>
0.816016

>  <nHA-cont>
0.785905698

>  <MWHBN>
0.376671881

>  <MWHBN-cont>
0.567847153

>  <TPSA-cont>
0.251049177

>  <pka_cont>
0.97

>  <yes.1>


>  <BBB_SCORE>
3.440790782

>  <MMFF94 Energy>
95.932

$$$$
Compound 49
Actelion Java MolfileCreator 2.0

  0  0  0  0  0  0              0 V3000
M  V30 BEGIN CTAB
M  V30 COUNTS 41 43 0 0 0
M  V30 BEGIN ATOM
M  V30 1 Cl 4.6843 4.118 -3.8754 0
M  V30 2 C 3.6853 2.8451 -3.2922 0
M  V30 3 C 3.6074 2.6006 -1.9204 0
M  V30 4 C 2.9663 2.0607 -4.194 0
M  V30 5 C 2.7961 1.5683 -1.4423 0
M  V30 6 C 2.1546 1.0273 -3.7206 0
M  V30 7 C 2.0525 0.7961 -2.3433 0
M  V30 8 C 1.2143 -0.3247 -1.8604 0
M  V30 9 O 1.316 -1.3909 -2.4656 0
M  V30 10 N 0.3401 -0.2652 -0.7419 0
M  V30 11 C -0.0096 -1.3592 0.0593 0
M  V30 12 C -0.3246 0.8607 -0.2422 0
M  V30 13 C -0.7767 -0.8888 1.1254 0
M  V30 14 C 0.3317 -2.7215 -0.0363 0
M  V30 15 C -0.9574 0.5126 0.9439 0
M  V30 16 C -0.3924 2.1756 -0.9503 0
M  V30 17 C -1.2257 -1.8005 2.1121 0
M  V30 18 C -0.1262 -3.6006 0.9504 0
M  V30 19 C -1.743 1.4117 1.8487 0
M  V30 20 C -0.8987 -3.1556 2.0178 0
M  V30 21 C -3.2204 1.348 1.556 0
M  V30 22 O -1.2708 -4.1331 2.9008 0
M  V30 23 O -3.7959 1.8479 0.6023 0
M  V30 24 O -3.9139 0.6468 2.4776 0
M  V30 25 C -2.0912 -3.7361 3.9921 0
M  V30 26 H 4.1818 3.2042 -1.2217 0
M  V30 27 H 3.0395 2.2422 -5.2634 0
M  V30 28 H 2.7595 1.3707 -0.3732 0
M  V30 29 H 1.607 0.4029 -4.4242 0
M  V30 30 H 0.9377 -3.1026 -0.8537 0
M  V30 31 H 0.4257 2.8289 -0.6359 0
M  V30 32 H -1.3298 2.6913 -0.7159 0
M  V30 33 H -0.3734 2.0568 -2.037 0
M  V30 34 H -1.8288 -1.4197 2.9281 0
M  V30 35 H 0.1302 -4.6555 0.8779 0
M  V30 36 H -1.5675 1.1452 2.8979 0
M  V30 37 H -1.4242 2.4558 1.7528 0
M  V30 38 H -4.8325 0.6587 2.1336 0
M  V30 39 H -1.5691 -3.0236 4.6394 0
M  V30 40 H -2.3097 -4.6277 4.5877 0
M  V30 41 H -3.0453 -3.3279 3.6421 0
M  V30 END ATOM
M  V30 BEGIN BOND
M  V30 1 1 1 2
M  V30 2 2 2 3
M  V30 3 1 2 4
M  V30 4 1 3 5
M  V30 5 2 4 6
M  V30 6 2 5 7
M  V30 7 1 7 8
M  V30 8 2 8 9
M  V30 9 1 8 10
M  V30 10 1 10 11
M  V30 11 1 10 12
M  V30 12 2 11 13
M  V30 13 1 11 14
M  V30 14 2 12 15
M  V30 15 1 12 16
M  V30 16 1 13 17
M  V30 17 2 14 18
M  V30 18 1 15 19
M  V30 19 2 17 20
M  V30 20 1 19 21
M  V30 21 1 20 22
M  V30 22 2 21 23
M  V30 23 1 21 24
M  V30 24 1 22 25
M  V30 25 1 6 7
M  V30 26 1 13 15
M  V30 27 1 18 20
M  V30 28 1 3 26
M  V30 29 1 4 27
M  V30 30 1 5 28
M  V30 31 1 6 29
M  V30 32 1 14 30
M  V30 33 1 16 31
M  V30 34 1 16 32
M  V30 35 1 16 33
M  V30 36 1 17 34
M  V30 37 1 18 35
M  V30 38 1 19 36
M  V30 39 1 19 37
M  V30 40 1 24 38
M  V30 41 1 25 39
M  V30 42 1 25 40
M  V30 43 1 25 41
M  V30 END BOND
M  V30 END CTAB
M  END
>  <Column 1>
67

>  <level_0>
73

>  <index>
73

>  <Unnamed: 0>
73

>  <NO.>
74

>  <Name>
indomethacin

>  <IUPAC_name>
2-[1-(4-chlorobenzoyl)-5-methoxy-2-methylindol-3-yl]acetic acid

>  <SMILES>
COc1ccc2c(c1)c(CC(=O)O)c(C)n2C(=O)c1ccc(Cl)cc1

>  <CID>
3715

>  <logBB>
-1.3

>  <BBB+/BBB->
BBB-

>  <Inchi>
InChI=1S/C19H16ClNO4/c1-11-15(10-18(22)23)16-9-14(25-2)7-8-17(16)21(11)19(24)12-3-5-13(20)6-4-12/h3-9H-10H2-1-2H3-(H-22-23)

>  <threshold>


>  <reference>
R5|R2|R2|R3|R3|R8|R11|R12|R17|R18|R21|R25|R26|R27|R27|R35|R36|R38|R41|R43|R46|R47|R49|R49|R50|R40|

>  <group>
A

>  <Class>
-1

>  <ABC>
19.36

>  <ABCGG>
16.15

>  <nAcid>
1

>  <nBase>
0

>  <nAromAtom>
15

>  <nAromBond>
16

>  <nAtom>
41

>  <nHeavyAtom>
25

>  <nSpiro>
0

>  <nBridgehead>
0

>  <nHetero>
6

>  <nN>
1

>  <nO>
4

>  <nF>
0

>  <BalabanJ>
1.76

>  <BertzCT>
973.25

>  <nBonds>
43

>  <nBondsO>
27

>  <nBondsS>
25

>  <nBondsD>
2

>  <nBondsT>
0

>  <nBondsA>
16

>  <nBondsM>
18

>  <nBondsKS>
34

>  <nBondsKD>
9

>  <RNCG>
0.23

>  <RPCG>
0.14

>  <FCSP3>
0.16

>  <SZ>
31

>  <Sm>
29.79

>  <Sv>
28.04

>  <Sse>
41.85

>  <Sp>
29.27

>  <Si>
45.6

>  <MZ>
0.76

>  <Mm>
0.73

>  <Mv>
0.68

>  <Mse>
1.02

>  <Mp>
0.71

>  <Mi>
1.11

>  <NsCH3>
2

>  <NdCH2>
0

>  <NssCH2>
1

>  <NtCH>
0

>  <NdsCH>
0

>  <NaaCH>
7

>  <NsssCH>
0

>  <NddC>
0

>  <NtsC>
0

>  <NdssC>
2

>  <NaasC>
5

>  <NaaaC>
2

>  <NssssC>
0

>  <NsNH3>
0

>  <NsNH2>
0

>  <NssNH2>
0

>  <NdNH>
0

>  <NssNH>
0

>  <NaaNH>
0

>  <NtN>
0

>  <NsssNH>
0

>  <NdsN>
0

>  <NaaN>
0

>  <NsssN>
0

>  <NddsN>
0

>  <NaasN>
1

>  <NssssN>
0

>  <NsOH>
1

>  <NdO>
2

>  <NssO>
1

>  <NaaO>
0

>  <NsF>
0

>  <NsSiH3>
0

>  <NssSiH2>
0

>  <NsssSiH>
0

>  <NssssSi>
0

>  <NsPH2>
0

>  <NssPH>
0

>  <NsssP>
0

>  <NdsssP>
0

>  <NsssssP>
0

>  <NsSH>
0

>  <NdS>
0

>  <NssS>
0

>  <NaaS>
0

>  <NdssS>
0

>  <NddssS>
0

>  <NsCl>
1

>  <NsBr>
0

>  <NsI>
0

>  <fragCpx>
129.06

>  <fMF>
0.39

>  <nHBAcc>
4

>  <nHBDon>
1

>  <Kier1>
19.75

>  <Kier2>
8.35

>  <Lipinski>
1

>  <GhoseFilter>
1

>  <FilterItLogS>
-4.73

>  <VMcGowan>
252.99

>  <LabuteASA>
148.95

>  <PEOE_VSA1>
9.84

>  <PEOE_VSA2>
14.16

>  <PEOE_VSA3>
0

>  <PEOE_VSA4>
0

>  <PEOE_VSA5>
0

>  <PEOE_VSA6>
11.6

>  <PEOE_VSA7>
54.95

>  <PEOE_VSA8>
21.67

>  <PEOE_VSA9>
19.05

>  <PEOE_VSA10>
5.75

>  <PEOE_VSA11>
0

>  <PEOE_VSA12>
0

>  <PEOE_VSA13>
5.91

>  <SMR_VSA1>
19.43

>  <SMR_VSA2>
0

>  <SMR_VSA3>
4.57

>  <SMR_VSA4>
0

>  <SMR_VSA5>
13.34

>  <SMR_VSA6>
7.11

>  <SMR_VSA7>
64.31

>  <SMR_VSA8>
0

>  <SMR_VSA9>
5.75

>  <SlogP_VSA1>
4.74

>  <SlogP_VSA2>
28.66

>  <SlogP_VSA3>
11.22

>  <SlogP_VSA4>
6.92

>  <SlogP_VSA5>
21.62

>  <SlogP_VSA6>
42.46

>  <SlogP_VSA7>
5.02

>  <SlogP_VSA8>
10.9

>  <SlogP_VSA9>
0

>  <SlogP_VSA10>
0

>  <SlogP_VSA11>
5.75

>  <EState_VSA1>
5.97

>  <EState_VSA2>
12.33

>  <EState_VSA3>
38.5

>  <EState_VSA4>
0

>  <EState_VSA5>
4.57

>  <EState_VSA6>
56.5

>  <EState_VSA7>
0

>  <EState_VSA8>
0

>  <EState_VSA9>
16.34

>  <EState_VSA10>
14.7

>  <VSA_EState1>
6.77

>  <VSA_EState2>
24.25

>  <VSA_EState3>
10.47

>  <VSA_EState4>
2.32

>  <VSA_EState5>
-0.58

>  <VSA_EState6>
11.87

>  <VSA_EState7>
-0.17

>  <VSA_EState8>
1.75

>  <VSA_EState9>
1.54

>  <apol>
48.89

>  <bpol>
21.74

>  <nRing>
3

>  <nHRing>
1

>  <naRing>
3

>  <naHRing>
1

>  <nARing 2>
0

>  <nAHRing 2>
0

>  <nFRing>
1

>  <nFHRing>
1

>  <nFaRing>
1

>  <nFaHRing>
1

>  <nFARing 2>
0

>  <nFAHRing 2>
0

>  <nRot>
4

>  <SLogP>
3.93

>  <SMR>
95.75

>  <TopoPSA(NO)>
68.53

>  <TopoPSA>
68.53

>  <JGI1>
0.2

>  <JGI2>
0.08

>  <JGI3>
0.06

>  <JGI4>
0.05

>  <JGI5>
0.03

>  <Diameter>
12

>  <Radius>
6

>  <TMWC10>
128.5

>  <TSRW10>
74.56

>  <MW>
357.08

>  <AMW>
8.71

>  <WPath>
1424

>  <WPol>
42

>  <Zagreb1>
132

>  <Zagreb2>
158

>  <mZagreb2>
5.53

>  <yes>


>  <nAR-cont>
0.336376

>  <nHA-cont>
0.921834225

>  <MWHBN>
0.264598417

>  <MWHBN-cont>
0.931972356

>  <TPSA-cont>
0.521618045

>  <pka_cont>
0.97

>  <yes.1>


>  <BBB_SCORE>
4.18440485

>  <MMFF94 Energy>
95.607

$$$$
Compound 50
Actelion Java MolfileCreator 2.0

  0  0  0  0  0  0              0 V3000
M  V30 BEGIN CTAB
M  V30 COUNTS 53 55 0 0 0
M  V30 BEGIN ATOM
M  V30 1 O -0.7883 3.3142 2.3664 0
M  V30 2 C 0.0163 2.4097 2.1671 0
M  V30 3 N -0.1158 1.5466 1.1206 0
M  V30 4 C 1.1909 2.1898 3.0374 0
M  V30 5 C 0.7691 0.542 0.8652 0
M  V30 6 C 1.9882 1.1684 2.6918 0
M  V30 7 C 1.3503 3.134 4.1953 0
M  V30 8 N 1.8072 0.3389 1.6162 0
M  V30 9 N 0.5657 -0.2714 -0.2032 0
M  V30 10 C 2.7133 3.1402 4.8503 0
M  V30 11 C -0.5144 -0.2426 -1.1574 0
M  V30 12 N 2.8904 2.3247 5.9198 0
M  V30 13 C 3.7398 3.9274 4.3342 0
M  V30 14 C -0.3412 -1.3606 -2.1838 0
M  V30 15 C 4.1116 2.2948 6.5043 0
M  V30 16 C 4.9878 3.8844 4.9451 0
M  V30 17 C -1.4826 -1.3611 -3.2007 0
M  V30 18 C 5.1797 3.0581 6.0465 0
M  V30 19 C 4.285 1.3896 7.6866 0
M  V30 20 C -1.306 -2.4756 -4.2334 0
M  V30 21 C -2.4235 -2.4673 -5.2485 0
M  V30 22 N -2.1778 -1.7621 -6.3863 0
M  V30 23 C -3.6394 -3.1212 -5.0011 0
M  V30 24 C -3.1566 -1.7176 -7.312 0
M  V30 25 O -3.7634 -3.7759 -3.8065 0
M  V30 26 C -4.6256 -3.0481 -5.985 0
M  V30 27 C -4.3825 -2.338 -7.1591 0
M  V30 28 C -4.9848 -4.4619 -3.5627 0
M  V30 29 H -0.9131 1.6902 0.5273 0
M  V30 30 H 2.8646 0.9319 3.2914 0
M  V30 31 H 1.1326 4.1614 3.875 0
M  V30 32 H 0.5985 2.8878 4.9563 0
M  V30 33 H 1.2778 -0.9867 -0.3104 0
M  V30 34 H -0.5305 0.7274 -1.6669 0
M  V30 35 H -1.47 -0.3661 -0.6351 0
M  V30 36 H 3.5754 4.5616 3.4689 0
M  V30 37 H -0.3029 -2.33 -1.671 0
M  V30 38 H 0.6179 -1.2394 -2.7025 0
M  V30 39 H 5.8059 4.4884 4.5636 0
M  V30 40 H -1.5233 -0.3888 -3.7082 0
M  V30 41 H -2.4389 -1.4823 -2.6765 0
M  V30 42 H 6.1471 3.0108 6.5354 0
M  V30 43 H 4.5769 1.9696 8.5675 0
M  V30 44 H 3.3514 0.8664 7.9171 0
M  V30 45 H 5.0538 0.6391 7.4784 0
M  V30 46 H -0.3522 -2.3403 -4.7594 0
M  V30 47 H -1.2444 -3.4553 -3.7449 0
M  V30 48 H -2.9219 -1.1511 -8.2084 0
M  V30 49 H -5.5909 -3.5281 -5.8696 0
M  V30 50 H -5.1356 -2.2696 -7.9361 0
M  V30 51 H -5.8291 -3.7654 -3.5332 0
M  V30 52 H -4.9108 -4.9362 -2.5793 0
M  V30 53 H -5.1484 -5.2527 -4.3021 0
M  V30 END ATOM
M  V30 BEGIN BOND
M  V30 1 2 1 2
M  V30 2 1 2 3
M  V30 3 1 2 4
M  V30 4 1 3 5
M  V30 5 2 4 6
M  V30 6 1 4 7
M  V30 7 2 5 8
M  V30 8 1 5 9
M  V30 9 1 7 10
M  V30 10 1 9 11
M  V30 11 2 10 12
M  V30 12 1 10 13
M  V30 13 1 11 14
M  V30 14 1 12 15
M  V30 15 2 13 16
M  V30 16 1 14 17
M  V30 17 2 15 18
M  V30 18 1 15 19
M  V30 19 1 17 20
M  V30 20 1 20 21
M  V30 21 2 21 22
M  V30 22 1 21 23
M  V30 23 1 22 24
M  V30 24 1 23 25
M  V30 25 2 23 26
M  V30 26 2 24 27
M  V30 27 1 25 28
M  V30 28 1 6 8
M  V30 29 1 16 18
M  V30 30 1 26 27
M  V30 31 1 3 29
M  V30 32 1 6 30
M  V30 33 1 7 31
M  V30 34 1 7 32
M  V30 35 1 9 33
M  V30 36 1 11 34
M  V30 37 1 11 35
M  V30 38 1 13 36
M  V30 39 1 14 37
M  V30 40 1 14 38
M  V30 41 1 16 39
M  V30 42 1 17 40
M  V30 43 1 17 41
M  V30 44 1 18 42
M  V30 45 1 19 43
M  V30 46 1 19 44
M  V30 47 1 19 45
M  V30 48 1 20 46
M  V30 49 1 20 47
M  V30 50 1 24 48
M  V30 51 1 26 49
M  V30 52 1 27 50
M  V30 53 1 28 51
M  V30 54 1 28 52
M  V30 55 1 28 53
M  V30 END BOND
M  V30 END CTAB
M  END
>  <Column 1>
68

>  <level_0>
74

>  <index>
74

>  <Unnamed: 0>
74

>  <NO.>
75

>  <Name>
skf 93319

>  <IUPAC_name>


>  <SMILES>
COc1cccnc1CCCCNc1ncc(Cc2cccc(C)n2)c(=O)[nH]1

>  <CID>


>  <logBB>
-1.3

>  <BBB+/BBB->
BBB-

>  <Inchi>
InChI=1S/C21H25N5O2/c1-15-7-5-8-17(25-15)13-16-14-24-21(26-20(16)27)23-11-4-3-9-18-19(28-2)10-6-12-22-18/h5-8-10-12-14H-3-4-9-11-13H2-1-2H3-(H2-23-24-26-27)

>  <threshold>


>  <reference>
R36|R47|

>  <group>
A

>  <Class>
-1

>  <ABC>
21.35

>  <ABCGG>
15.54

>  <nAcid>
0

>  <nBase>
0

>  <nAromAtom>
18

>  <nAromBond>
18

>  <nAtom>
53

>  <nHeavyAtom>
28

>  <nSpiro>
0

>  <nBridgehead>
0

>  <nHetero>
7

>  <nN>
5

>  <nO>
2

>  <nF>
0

>  <BalabanJ>
1.26

>  <BertzCT>
970.76

>  <nBonds>
55

>  <nBondsO>
30

>  <nBondsS>
36

>  <nBondsD>
1

>  <nBondsT>
0

>  <nBondsA>
18

>  <nBondsM>
19

>  <nBondsKS>
46

>  <nBondsKD>
9

>  <RNCG>
0.2

>  <RPCG>
0.1

>  <FCSP3>
0.33

>  <SZ>
33.67

>  <Sm>
31.59

>  <Sv>
32.99

>  <Sse>
53.08

>  <Sp>
35.24

>  <Si>
60.06

>  <MZ>
0.64

>  <Mm>
0.6

>  <Mv>
0.62

>  <Mse>
1

>  <Mp>
0.66

>  <Mi>
1.13

>  <NsCH3>
2

>  <NdCH2>
0

>  <NssCH2>
5

>  <NtCH>
0

>  <NdsCH>
0

>  <NaaCH>
7

>  <NsssCH>
0

>  <NddC>
0

>  <NtsC>
0

>  <NdssC>
0

>  <NaasC>
6

>  <NaaaC>
0

>  <NssssC>
0

>  <NsNH3>
0

>  <NsNH2>
0

>  <NssNH2>
0

>  <NdNH>
0

>  <NssNH>
1

>  <NaaNH>
1

>  <NtN>
0

>  <NsssNH>
0

>  <NdsN>
0

>  <NaaN>
3

>  <NsssN>
0

>  <NddsN>
0

>  <NaasN>
0

>  <NssssN>
0

>  <NsOH>
0

>  <NdO>
1

>  <NssO>
1

>  <NaaO>
0

>  <NsF>
0

>  <NsSiH3>
0

>  <NssSiH2>
0

>  <NsssSiH>
0

>  <NssssSi>
0

>  <NsPH2>
0

>  <NssPH>
0

>  <NsssP>
0

>  <NdsssP>
0

>  <NsssssP>
0

>  <NsSH>
0

>  <NdS>
0

>  <NssS>
0

>  <NaaS>
0

>  <NdssS>
0

>  <NddssS>
0

>  <NsCl>
0

>  <NsBr>
0

>  <NsI>
0

>  <fragCpx>
144.07

>  <fMF>
0.45

>  <nHBAcc>
6

>  <nHBDon>
2

>  <Kier1>
22.68

>  <Kier2>
12

>  <Lipinski>
1

>  <GhoseFilter>
1

>  <FilterItLogS>
-7.32

>  <VMcGowan>
297.11

>  <LabuteASA>
163.8

>  <PEOE_VSA1>
10.05

>  <PEOE_VSA2>
19.75

>  <PEOE_VSA3>
4.98

>  <PEOE_VSA4>
0

>  <PEOE_VSA5>
0

>  <PEOE_VSA6>
6.07

>  <PEOE_VSA7>
50.45

>  <PEOE_VSA8>
42.31

>  <PEOE_VSA9>
12.8

>  <PEOE_VSA10>
5.75

>  <PEOE_VSA11>
0

>  <PEOE_VSA12>
5.95

>  <PEOE_VSA13>
5.56

>  <SMR_VSA1>
4.74

>  <SMR_VSA2>
0

>  <SMR_VSA3>
19.94

>  <SMR_VSA4>
0

>  <SMR_VSA5>
32.61

>  <SMR_VSA6>
18.97

>  <SMR_VSA7>
75.72

>  <SMR_VSA8>
0

>  <SMR_VSA9>
5.75

>  <SlogP_VSA1>
15.61

>  <SlogP_VSA2>
33.59

>  <SlogP_VSA3>
12.84

>  <SlogP_VSA4>
6.92

>  <SlogP_VSA5>
35.49

>  <SlogP_VSA6>
47.52

>  <SlogP_VSA7>
0

>  <SlogP_VSA8>
0

>  <SlogP_VSA9>
0

>  <SlogP_VSA10>
5.95

>  <SlogP_VSA11>
5.75

>  <EState_VSA1>
0

>  <EState_VSA2>
5.56

>  <EState_VSA3>
17.93

>  <EState_VSA4>
48.64

>  <EState_VSA5>
0

>  <EState_VSA6>
19.5

>  <EState_VSA7>
37.26

>  <EState_VSA8>
25.25

>  <EState_VSA9>
4.74

>  <EState_VSA10>
4.79

>  <VSA_EState1>
5.31

>  <VSA_EState2>
28.19

>  <VSA_EState3>
3.17

>  <VSA_EState4>
3.22

>  <VSA_EState5>
1.31

>  <VSA_EState6>
9.57

>  <VSA_EState7>
6.59

>  <VSA_EState8>
2.65

>  <VSA_EState9>
1.66

>  <apol>
58.84

>  <bpol>
32.24

>  <nRing>
3

>  <nHRing>
3

>  <naRing>
3

>  <naHRing>
3

>  <nARing 2>
0

>  <nAHRing 2>
0

>  <nFRing>
0

>  <nFHRing>
0

>  <nFaRing>
0

>  <nFaHRing>
0

>  <nFARing 2>
0

>  <nFAHRing 2>
0

>  <nRot>
9

>  <SLogP>
2.9

>  <SMR>
108.85

>  <TopoPSA(NO)>
92.79

>  <TopoPSA>
92.79

>  <JGI1>
0.17

>  <JGI2>
0.06

>  <JGI3>
0.04

>  <JGI4>
0.04

>  <JGI5>
0.02

>  <Diameter>
17

>  <Radius>
9

>  <TMWC10>
132.26

>  <TSRW10>
62.72

>  <MW>
379.2

>  <AMW>
7.15

>  <WPath>
2628

>  <WPol>
39

>  <Zagreb1>
138

>  <Zagreb2>
156

>  <mZagreb2>
6.39

>  <yes>


>  <nAR-cont>
0.336376

>  <nHA-cont>
0.82432561

>  <MWHBN>
0.410824015

>  <MWHBN-cont>
0.433600884

>  <TPSA-cont>
0.352268181

>  <pka_cont>
0.97

>  <yes.1>


>  <BBB_SCORE>
3.000639298

>  <MMFF94 Energy>
-63.041

$$$$
Compound 51
Actelion Java MolfileCreator 2.0

  0  0  0  0  0  0              0 V3000
M  V30 BEGIN CTAB
M  V30 COUNTS 35 36 0 0 0
M  V30 BEGIN ATOM
M  V30 1 N 0.1561 -1.2494 -0.3903 0
M  V30 2 C 0.7402 -0.4676 0.6095 0
M  V30 3 C -0.9384 -0.9027 -0.9823 0
M  V30 4 C 1.7279 0.4861 0.3095 0
M  V30 5 C 0.3958 -0.7004 1.9451 0
M  V30 6 N -1.4889 -1.6935 -1.976 0
M  V30 7 N -1.7916 0.1836 -0.8688 0
M  V30 8 C 2.3089 1.2291 1.351 0
M  V30 9 C 2.1451 0.7297 -1.1129 0
M  V30 10 C 0.9821 0.0366 2.9757 0
M  V30 11 C -2.6295 -1.099 -2.6412 0
M  V30 12 C -0.8601 -2.8751 -2.5068 0
M  V30 13 C -2.961 0.0879 -1.7343 0
M  V30 14 C -1.7117 1.2736 0.0677 0
M  V30 15 C 1.9489 1.0037 2.6866 0
M  V30 16 C 2.559 1.8218 3.7857 0
M  V30 17 H -0.3435 -1.4628 2.174 0
M  V30 18 H 3.0577 1.9835 1.1182 0
M  V30 19 H 3.0075 1.4027 -1.1665 0
M  V30 20 H 2.4359 -0.2094 -1.5944 0
M  V30 21 H 1.3257 1.1885 -1.6751 0
M  V30 22 H 0.6829 -0.1572 4.0025 0
M  V30 23 H -3.4726 -1.7922 -2.7211 0
M  V30 24 H -2.3517 -0.7562 -3.6438 0
M  V30 25 H 0.0105 -2.6049 -3.1125 0
M  V30 26 H -0.5342 -3.5421 -1.7021 0
M  V30 27 H -1.5531 -3.4393 -3.1398 0
M  V30 28 H -3.121 1.0015 -2.316 0
M  V30 29 H -3.8568 -0.1172 -1.1379 0
M  V30 30 H -0.7769 1.8277 -0.0475 0
M  V30 31 H -2.5231 1.9924 -0.0949 0
M  V30 32 H -1.8068 0.9146 1.096 0
M  V30 33 H 2.5905 1.2569 4.7233 0
M  V30 34 H 3.5893 2.0993 3.5397 0
M  V30 35 H 1.974 2.7334 3.942 0
M  V30 END ATOM
M  V30 BEGIN BOND
M  V30 1 1 1 2
M  V30 2 2 1 3
M  V30 3 2 2 4
M  V30 4 1 2 5
M  V30 5 1 3 6
M  V30 6 1 3 7
M  V30 7 1 4 8
M  V30 8 1 4 9
M  V30 9 2 5 10
M  V30 10 1 6 11
M  V30 11 1 6 12
M  V30 12 1 7 13
M  V30 13 1 7 14
M  V30 14 2 8 15
M  V30 15 1 15 16
M  V30 16 1 10 15
M  V30 17 1 11 13
M  V30 18 1 5 17
M  V30 19 1 8 18
M  V30 20 1 9 19
M  V30 21 1 9 20
M  V30 22 1 9 21
M  V30 23 1 10 22
M  V30 24 1 11 23
M  V30 25 1 11 24
M  V30 26 1 12 25
M  V30 27 1 12 26
M  V30 28 1 12 27
M  V30 29 1 13 28
M  V30 30 1 13 29
M  V30 31 1 14 30
M  V30 32 1 14 31
M  V30 33 1 14 32
M  V30 34 1 16 33
M  V30 35 1 16 34
M  V30 36 1 16 35
M  V30 END BOND
M  V30 END CTAB
M  END
>  <Column 1>
69

>  <level_0>
75

>  <index>
75

>  <Unnamed: 0>
75

>  <NO.>
76

>  <Name>
n-(2-4-dimethylphenyl)-1-3-dimethylimidazolidin-2-imine

>  <IUPAC_name>
n-(2-4-dimethylphenyl)-1-3-dimethylimidazolidin-2-imine

>  <SMILES>
Cc1ccc(N=C2N(C)CCN2C)c(C)c1

>  <CID>
21675832

>  <logBB>
-1.3

>  <BBB+/BBB->
BBB-

>  <Inchi>
InChI=1S/C13H19N3/c1-10-5-6-12(11(2)9-10)14-13-15(3)7-8-16(13)4/h5-6-9H-7-8H2-1-4H3

>  <threshold>


>  <reference>
R8|

>  <group>
A

>  <Class>
-1

>  <ABC>
12.34

>  <ABCGG>
11.26

>  <nAcid>
0

>  <nBase>
3

>  <nAromAtom>
6

>  <nAromBond>
6

>  <nAtom>
35

>  <nHeavyAtom>
16

>  <nSpiro>
0

>  <nBridgehead>
0

>  <nHetero>
3

>  <nN>
3

>  <nO>
0

>  <nF>
0

>  <BalabanJ>
1.89

>  <BertzCT>
411.19

>  <nBonds>
36

>  <nBondsO>
17

>  <nBondsS>
29

>  <nBondsD>
1

>  <nBondsT>
0

>  <nBondsA>
6

>  <nBondsM>
7

>  <nBondsKS>
32

>  <nBondsKD>
4

>  <RNCG>
0.29

>  <RPCG>
0.17

>  <FCSP3>
0.46

>  <SZ>
19.67

>  <Sm>
18.09

>  <Sv>
20.42

>  <Sse>
34.42

>  <Sp>
22.56

>  <Si>
39.82

>  <MZ>
0.56

>  <Mm>
0.52

>  <Mv>
0.58

>  <Mse>
0.98

>  <Mp>
0.64

>  <Mi>
1.14

>  <NsCH3>
4

>  <NdCH2>
0

>  <NssCH2>
2

>  <NtCH>
0

>  <NdsCH>
0

>  <NaaCH>
3

>  <NsssCH>
0

>  <NddC>
0

>  <NtsC>
0

>  <NdssC>
1

>  <NaasC>
3

>  <NaaaC>
0

>  <NssssC>
0

>  <NsNH3>
0

>  <NsNH2>
0

>  <NssNH2>
0

>  <NdNH>
0

>  <NssNH>
0

>  <NaaNH>
0

>  <NtN>
0

>  <NsssNH>
0

>  <NdsN>
1

>  <NaaN>
0

>  <NsssN>
2

>  <NddsN>
0

>  <NaasN>
0

>  <NssssN>
0

>  <NsOH>
0

>  <NdO>
0

>  <NssO>
0

>  <NaaO>
0

>  <NsF>
0

>  <NsSiH3>
0

>  <NssSiH2>
0

>  <NsssSiH>
0

>  <NssssSi>
0

>  <NsPH2>
0

>  <NssPH>
0

>  <NsssP>
0

>  <NdsssP>
0

>  <NsssssP>
0

>  <NsSH>
0

>  <NdS>
0

>  <NssS>
0

>  <NaaS>
0

>  <NdssS>
0

>  <NddssS>
0

>  <NsCl>
0

>  <NsBr>
0

>  <NsI>
0

>  <fragCpx>
49.03

>  <fMF>
0.34

>  <nHBAcc>
1

>  <nHBDon>
0

>  <Kier1>
12.46

>  <Kier2>
5.1

>  <Lipinski>
1

>  <GhoseFilter>
1

>  <FilterItLogS>
-3.04

>  <VMcGowan>
185.05

>  <LabuteASA>
97.4

>  <PEOE_VSA1>
9.8

>  <PEOE_VSA2>
0

>  <PEOE_VSA3>
4.99

>  <PEOE_VSA4>
0

>  <PEOE_VSA5>
0

>  <PEOE_VSA6>
17.7

>  <PEOE_VSA7>
25.48

>  <PEOE_VSA8>
27.18

>  <PEOE_VSA9>
5.69

>  <PEOE_VSA10>
0

>  <PEOE_VSA11>
0

>  <PEOE_VSA12>
5.96

>  <PEOE_VSA13>
0

>  <SMR_VSA1>
0

>  <SMR_VSA2>
0

>  <SMR_VSA3>
9.8

>  <SMR_VSA4>
4.99

>  <SMR_VSA5>
13.85

>  <SMR_VSA6>
27.18

>  <SMR_VSA7>
29.33

>  <SMR_VSA8>
0

>  <SMR_VSA9>
0

>  <SlogP_VSA1>
0

>  <SlogP_VSA2>
42.94

>  <SlogP_VSA3>
0

>  <SlogP_VSA4>
13.85

>  <SlogP_VSA5>
11.13

>  <SlogP_VSA6>
23.19

>  <SlogP_VSA7>
0

>  <SlogP_VSA8>
0

>  <SlogP_VSA9>
0

>  <SlogP_VSA10>
5.69

>  <SlogP_VSA11>
0

>  <EState_VSA1>
0

>  <EState_VSA2>
0

>  <EState_VSA3>
0

>  <EState_VSA4>
24.74

>  <EState_VSA5>
11.13

>  <EState_VSA6>
0

>  <EState_VSA7>
0

>  <EState_VSA8>
55.94

>  <EState_VSA9>
4.99

>  <EState_VSA10>
0

>  <VSA_EState1>
0

>  <VSA_EState2>
9.12

>  <VSA_EState3>
0

>  <VSA_EState4>
3.59

>  <VSA_EState5>
1.06

>  <VSA_EState6>
6.38

>  <VSA_EState7>
0

>  <VSA_EState8>
6.33

>  <VSA_EState9>
4.18

>  <apol>
37.68

>  <bpol>
23.62

>  <nRing>
2

>  <nHRing>
1

>  <naRing>
1

>  <naHRing>
0

>  <nARing 2>
1

>  <nAHRing 2>
1

>  <nFRing>
0

>  <nFHRing>
0

>  <nFaRing>
0

>  <nFaHRing>
0

>  <nFARing 2>
0

>  <nFAHRing 2>
0

>  <nRot>
1

>  <SLogP>
2.17

>  <SMR>
68.27

>  <TopoPSA(NO)>
18.84

>  <TopoPSA>
18.84

>  <JGI1>
0.24

>  <JGI2>
0.1

>  <JGI3>
0.06

>  <JGI4>
0.05

>  <JGI5>
0.03

>  <Diameter>
8

>  <Radius>
4

>  <TMWC10>
103.6

>  <TSRW10>
62.23

>  <MW>
217.16

>  <AMW>
6.2

>  <WPath>
439

>  <WPol>
22

>  <Zagreb1>
82

>  <Zagreb2>
95

>  <mZagreb2>
3.5

>  <yes>


>  <nAR-cont>
0.816016

>  <nHA-cont>
0.954961865

>  <MWHBN>
0.067859411

>  <MWHBN-cont>
0.516977401

>  <TPSA-cont>
0.868485101

>  <pka_cont>
0.97

>  <yes.1>


>  <BBB_SCORE>
4.768414168

>  <MMFF94 Energy>
-38.371

$$$$
Compound 52
Actelion Java MolfileCreator 2.0

  0  0  0  0  0  0              0 V3000
M  V30 BEGIN CTAB
M  V30 COUNTS 29 30 0 0 0
M  V30 BEGIN ATOM
M  V30 1 N 0.2345 -1.6428 2.1126 0
M  V30 2 C 0.1204 -1.965 0.8567 0
M  V30 3 C 0.2641 -2.9343 2.8509 0
M  V30 4 N 0.0398 -3.2965 0.5959 0
M  V30 5 N 0.0717 -1.1826 -0.2521 0
M  V30 6 C 0.0052 -4.0396 1.8243 0
M  V30 7 C -0.0073 0.2208 -0.3633 0
M  V30 8 C 0.1078 0.8398 -1.6317 0
M  V30 9 C -0.2123 1.0501 0.7482 0
M  V30 10 C 0.0233 2.2423 -1.7439 0
M  V30 11 C 0.3225 0.0406 -2.8902 0
M  V30 12 C -0.2939 2.4414 0.6262 0
M  V30 13 C -0.1635 3.0506 -0.6196 0
M  V30 14 C -0.2829 4.5385 -0.7583 0
M  V30 15 H -0.4989 -2.9367 3.6359 0
M  V30 16 H 1.2446 -3.0578 3.3231 0
M  V30 17 H -0.3553 -3.6712 -0.2511 0
M  V30 18 H 0.1861 -1.6699 -1.1233 0
M  V30 19 H 0.7763 -4.8143 1.8547 0
M  V30 20 H -0.9765 -4.499 1.9744 0
M  V30 21 H -0.3218 0.6275 1.7431 0
M  V30 22 H 0.1073 2.7104 -2.7231 0
M  V30 23 H 1.2522 -0.5331 -2.8215 0
M  V30 24 H 0.401 0.6854 -3.772 0
M  V30 25 H -0.5192 -0.6394 -3.0556 0
M  V30 26 H -0.4594 3.0383 1.52 0
M  V30 27 H 0.3301 4.9034 -1.589 0
M  V30 28 H -1.326 4.8151 -0.9397 0
M  V30 29 H 0.0647 5.0454 0.1479 0
M  V30 END ATOM
M  V30 BEGIN BOND
M  V30 1 2 1 2
M  V30 2 1 1 3
M  V30 3 1 2 4
M  V30 4 1 2 5
M  V30 5 1 3 6
M  V30 6 1 5 7
M  V30 7 2 7 8
M  V30 8 1 7 9
M  V30 9 1 8 10
M  V30 10 1 8 11
M  V30 11 2 9 12
M  V30 12 2 10 13
M  V30 13 1 13 14
M  V30 14 1 4 6
M  V30 15 1 12 13
M  V30 16 1 3 15
M  V30 17 1 3 16
M  V30 18 1 4 17
M  V30 19 1 5 18
M  V30 20 1 6 19
M  V30 21 1 6 20
M  V30 22 1 9 21
M  V30 23 1 10 22
M  V30 24 1 11 23
M  V30 25 1 11 24
M  V30 26 1 11 25
M  V30 27 1 12 26
M  V30 28 1 14 27
M  V30 29 1 14 28
M  V30 30 1 14 29
M  V30 END BOND
M  V30 END CTAB
M  END
>  <Column 1>
70

>  <level_0>
76

>  <index>
76

>  <Unnamed: 0>
76

>  <NO.>
77

>  <Name>
4794-83-6

>  <IUPAC_name>
n-(2-4-dimethylphenyl)-4-5-dihydro-1h-imidazol-2-amine

>  <SMILES>
Cc1ccc(NC2=NCCN2)c(C)c1

>  <CID>
12296938

>  <logBB>
-1.3

>  <BBB+/BBB->
BBB-

>  <Inchi>
InChI=1S/C11H15N3/c1-8-3-4-10(9(2)7-8)14-11-12-5-6-13-11/h3-4-7H-5-6H2-1-2H3-(H2-12-13-14)

>  <threshold>


>  <reference>
R2|R2|R2|R2|R25|R46|R47|R4|R40|

>  <group>
A

>  <Class>
-1

>  <ABC>
10.78

>  <ABCGG>
9.7

>  <nAcid>
0

>  <nBase>
3

>  <nAromAtom>
6

>  <nAromBond>
6

>  <nAtom>
29

>  <nHeavyAtom>
14

>  <nSpiro>
0

>  <nBridgehead>
0

>  <nHetero>
3

>  <nN>
3

>  <nO>
0

>  <nF>
0

>  <BalabanJ>
1.79

>  <BertzCT>
368.8

>  <nBonds>
30

>  <nBondsO>
15

>  <nBondsS>
23

>  <nBondsD>
1

>  <nBondsT>
0

>  <nBondsA>
6

>  <nBondsM>
7

>  <nBondsKS>
26

>  <nBondsKD>
4

>  <RNCG>
0.29

>  <RPCG>
0.16

>  <FCSP3>
0.36

>  <SZ>
17

>  <Sm>
15.76

>  <Sv>
17.34

>  <Sse>
28.65

>  <Sp>
18.97

>  <Si>
32.99

>  <MZ>
0.59

>  <Mm>
0.54

>  <Mv>
0.6

>  <Mse>
0.99

>  <Mp>
0.65

>  <Mi>
1.14

>  <NsCH3>
2

>  <NdCH2>
0

>  <NssCH2>
2

>  <NtCH>
0

>  <NdsCH>
0

>  <NaaCH>
3

>  <NsssCH>
0

>  <NddC>
0

>  <NtsC>
0

>  <NdssC>
1

>  <NaasC>
3

>  <NaaaC>
0

>  <NssssC>
0

>  <NsNH3>
0

>  <NsNH2>
0

>  <NssNH2>
0

>  <NdNH>
0

>  <NssNH>
2

>  <NaaNH>
0

>  <NtN>
0

>  <NsssNH>
0

>  <NdsN>
1

>  <NaaN>
0

>  <NsssN>
0

>  <NddsN>
0

>  <NaasN>
0

>  <NssssN>
0

>  <NsOH>
0

>  <NdO>
0

>  <NssO>
0

>  <NaaO>
0

>  <NsF>
0

>  <NsSiH3>
0

>  <NssSiH2>
0

>  <NsssSiH>
0

>  <NssssSi>
0

>  <NsPH2>
0

>  <NssPH>
0

>  <NsssP>
0

>  <NdsssP>
0

>  <NsssssP>
0

>  <NsSH>
0

>  <NdS>
0

>  <NssS>
0

>  <NaaS>
0

>  <NdssS>
0

>  <NddssS>
0

>  <NsCl>
0

>  <NsBr>
0

>  <NsI>
0

>  <fragCpx>
43.03

>  <fMF>
0.41

>  <nHBAcc>
3

>  <nHBDon>
2

>  <Kier1>
10.52

>  <Kier2>
4.68

>  <Lipinski>
1

>  <GhoseFilter>
1

>  <FilterItLogS>
-3.69

>  <VMcGowan>
156.87

>  <LabuteASA>
84.25

>  <PEOE_VSA1>
10.63

>  <PEOE_VSA2>
4.99

>  <PEOE_VSA3>
0

>  <PEOE_VSA4>
0

>  <PEOE_VSA5>
0

>  <PEOE_VSA6>
17.7

>  <PEOE_VSA7>
25.48

>  <PEOE_VSA8>
12.23

>  <PEOE_VSA9>
6.54

>  <PEOE_VSA10>
0

>  <PEOE_VSA11>
5.96

>  <PEOE_VSA12>
0

>  <PEOE_VSA13>
0

>  <SMR_VSA1>
0

>  <SMR_VSA2>
0

>  <SMR_VSA3>
5.32

>  <SMR_VSA4>
4.99

>  <SMR_VSA5>
13.85

>  <SMR_VSA6>
18.41

>  <SMR_VSA7>
29.33

>  <SMR_VSA8>
0

>  <SMR_VSA9>
0

>  <SlogP_VSA1>
10.63

>  <SlogP_VSA2>
19.05

>  <SlogP_VSA3>
0

>  <SlogP_VSA4>
13.85

>  <SlogP_VSA5>
11.13

>  <SlogP_VSA6>
23.19

>  <SlogP_VSA7>
0

>  <SlogP_VSA8>
0

>  <SlogP_VSA9>
0

>  <SlogP_VSA10>
5.69

>  <SlogP_VSA11>
0

>  <EState_VSA1>
0

>  <EState_VSA2>
0

>  <EState_VSA3>
0

>  <EState_VSA4>
24.74

>  <EState_VSA5>
11.13

>  <EState_VSA6>
0

>  <EState_VSA7>
0

>  <EState_VSA8>
47.67

>  <EState_VSA9>
0

>  <EState_VSA10>
0

>  <VSA_EState1>
0

>  <VSA_EState2>
4.29

>  <VSA_EState3>
6.46

>  <VSA_EState4>
3.67

>  <VSA_EState5>
0.89

>  <VSA_EState6>
6.36

>  <VSA_EState7>
0

>  <VSA_EState8>
6.01

>  <VSA_EState9>
0

>  <apol>
31.67

>  <bpol>
17.33

>  <nRing>
2

>  <nHRing>
1

>  <naRing>
1

>  <naHRing>
0

>  <nARing 2>
1

>  <nAHRing 2>
1

>  <nFRing>
0

>  <nFHRing>
0

>  <nFaRing>
0

>  <nFaHRing>
0

>  <nFARing 2>
0

>  <nFAHRing 2>
0

>  <nRot>
1

>  <SLogP>
1.67

>  <SMR>
59.84

>  <TopoPSA(NO)>
36.42

>  <TopoPSA>
36.42

>  <JGI1>
0.2

>  <JGI2>
0.07

>  <JGI3>
0.05

>  <JGI4>
0.05

>  <JGI5>
0.01

>  <Diameter>
8

>  <Radius>
4

>  <TMWC10>
97.23

>  <TSRW10>
58.4

>  <MW>
189.13

>  <AMW>
6.52

>  <WPath>
313

>  <WPol>
16

>  <Zagreb1>
70

>  <Zagreb2>
79

>  <mZagreb2>
3.11

>  <yes>


>  <nAR-cont>
0.816016

>  <nHA-cont>
0.887625254

>  <MWHBN>
0.363571467

>  <MWHBN-cont>
0.618722838

>  <TPSA-cont>
0.745765785

>  <pka_cont>
0.97

>  <yes.1>


>  <BBB_SCORE>
4.60825708

>  <MMFF94 Energy>
-30.157

$$$$
Compound 53
Actelion Java MolfileCreator 2.0

  0  0  0  0  0  0              0 V3000
M  V30 BEGIN CTAB
M  V30 COUNTS 56 59 0 0 0
M  V30 BEGIN ATOM
M  V30 1 Cl 8.1754 -1.3863 2.284 0
M  V30 2 C 7.7804 -2.2375 3.7381 0
M  V30 3 C 6.5365 -2.8707 3.8933 0
M  V30 4 C 8.7355 -2.2789 4.7574 0
M  V30 5 N 5.5914 -2.795 2.8418 0
M  V30 6 C 6.2883 -3.5932 5.0726 0
M  V30 7 C 8.4646 -2.968 5.9383 0
M  V30 8 C 4.3484 -2.1952 3.0048 0
M  V30 9 Cl 4.8594 -4.5446 5.2908 0
M  V30 10 C 7.2469 -3.6308 6.0916 0
M  V30 11 O 4.0143 -1.6676 4.0639 0
M  V30 12 C 3.5198 -2.2042 1.8143 0
M  V30 13 S 2.1529 -1.178 1.703 0
M  V30 14 C 3.6105 -2.9458 0.656 0
M  V30 15 C 1.7897 -1.7885 0.1307 0
M  V30 16 N 2.6494 -2.6898 -0.3012 0
M  V30 17 N 0.7742 -1.3845 -0.664 0
M  V30 18 C -0.3885 -0.6691 -0.328 0
M  V30 19 N -0.7906 -0.5629 0.9433 0
M  V30 20 C -1.0876 -0.0459 -1.3499 0
M  V30 21 C -1.8812 0.1767 1.1844 0
M  V30 22 C -2.2262 0.6754 -1.037 0
M  V30 23 N -2.6141 0.791 0.2428 0
M  V30 24 C -2.3414 0.2878 2.6035 0
M  V30 25 N -2.9654 1.3246 -2.0237 0
M  V30 26 C -4.0336 2.2193 -1.5443 0
M  V30 27 C -3.2837 0.6056 -3.2644 0
M  V30 28 C -4.5659 3.1285 -2.6769 0
M  V30 29 C -3.819 1.5714 -4.3455 0
M  V30 30 N -4.9728 2.3799 -3.8904 0
M  V30 31 C -5.4041 3.2897 -4.9748 0
M  V30 32 C -6.6804 4.0903 -4.6638 0
M  V30 33 O -6.3751 5.2787 -3.9383 0
M  V30 34 H 9.6914 -1.7745 4.6374 0
M  V30 35 H 5.9465 -2.9327 1.905 0
M  V30 36 H 9.2053 -2.9995 6.7343 0
M  V30 37 H 7.0519 -4.1873 7.0059 0
M  V30 38 H 4.3572 -3.7002 0.4421 0
M  V30 39 H 0.7379 -1.8327 -1.5678 0
M  V30 40 H -0.7211 -0.0961 -2.3651 0
M  V30 41 H -1.4899 0.2424 3.2892 0
M  V30 42 H -2.8621 1.2363 2.7669 0
M  V30 43 H -3.025 -0.5342 2.8345 0
M  V30 44 H -3.664 2.8752 -0.7457 0
M  V30 45 H -4.8616 1.6222 -1.1399 0
M  V30 46 H -4.0358 -0.1658 -3.0549 0
M  V30 47 H -2.4064 0.1035 -3.6847 0
M  V30 48 H -5.4224 3.6736 -2.2669 0
M  V30 49 H -3.7922 3.8654 -2.9309 0
M  V30 50 H -2.9995 2.2293 -4.6661 0
M  V30 51 H -4.1144 0.9717 -5.215 0
M  V30 52 H -5.6281 2.6712 -5.8529 0
M  V30 53 H -4.5927 3.9763 -5.2481 0
M  V30 54 H -7.1564 4.3946 -5.6018 0
M  V30 55 H -7.3983 3.4918 -4.0929 0
M  V30 56 H -7.2245 5.6968 -3.7159 0
M  V30 END ATOM
M  V30 BEGIN BOND
M  V30 1 1 1 2
M  V30 2 2 2 3
M  V30 3 1 2 4
M  V30 4 1 3 5
M  V30 5 1 3 6
M  V30 6 2 4 7
M  V30 7 1 5 8
M  V30 8 1 6 9
M  V30 9 2 6 10
M  V30 10 2 8 11
M  V30 11 1 8 12
M  V30 12 1 12 13
M  V30 13 2 12 14
M  V30 14 1 13 15
M  V30 15 1 14 16
M  V30 16 1 15 17
M  V30 17 1 17 18
M  V30 18 2 18 19
M  V30 19 1 18 20
M  V30 20 1 19 21
M  V30 21 2 20 22
M  V30 22 2 21 23
M  V30 23 1 21 24
M  V30 24 1 22 25
M  V30 25 1 25 26
M  V30 26 1 25 27
M  V30 27 1 26 28
M  V30 28 1 27 29
M  V30 29 1 28 30
M  V30 30 1 30 31
M  V30 31 1 31 32
M  V30 32 1 32 33
M  V30 33 1 7 10
M  V30 34 2 15 16
M  V30 35 1 22 23
M  V30 36 1 29 30
M  V30 37 1 4 34
M  V30 38 1 5 35
M  V30 39 1 7 36
M  V30 40 1 10 37
M  V30 41 1 14 38
M  V30 42 1 17 39
M  V30 43 1 20 40
M  V30 44 1 24 41
M  V30 45 1 24 42
M  V30 46 1 24 43
M  V30 47 1 26 44
M  V30 48 1 26 45
M  V30 49 1 27 46
M  V30 50 1 27 47
M  V30 51 1 28 48
M  V30 52 1 28 49
M  V30 53 1 29 50
M  V30 54 1 29 51
M  V30 55 1 31 52
M  V30 56 1 31 53
M  V30 57 1 32 54
M  V30 58 1 32 55
M  V30 59 1 33 56
M  V30 END BOND
M  V30 END CTAB
M  END
>  <Column 1>
71

>  <level_0>
77

>  <index>
77

>  <Unnamed: 0>
77

>  <NO.>
78

>  <Name>
schembl1704876

>  <IUPAC_name>
n-(2-6-dichlorophenyl)-2-[[6-[4-(2-hydroxyethyl)piperazin-1-yl]-2-methylpyrimidin-4-yl]amino]-1-3-thiazole-5-carboxamide

>  <SMILES>
Cc1nc(Nc2ncc(C(=O)Nc3c(Cl)cccc3Cl)s2)cc(N2CCN(CCO)CC2)n1

>  <CID>
16655839

>  <logBB>
-1.3

>  <BBB+/BBB->
BBB-

>  <Inchi>
InChI=1S/C21H23Cl2N7O2S/c1-13-25-17(11-18(26-13)30-7-5-29(6-8-30)9-10-31)27-21-24-12-16(33-21)20(32)28-19-14(22)3-2-4-15(19)23/h2-4-11-12-31H-5-10H2-1H3-(H-28-32)(H-24-25-26-27)

>  <threshold>


>  <reference>
R18|R26|R27|

>  <group>
A

>  <Class>
-1

>  <ABC>
25.73

>  <ABCGG>
19.15

>  <nAcid>
0

>  <nBase>
1

>  <nAromAtom>
17

>  <nAromBond>
17

>  <nAtom>
56

>  <nHeavyAtom>
33

>  <nSpiro>
0

>  <nBridgehead>
0

>  <nHetero>
12

>  <nN>
7

>  <nO>
2

>  <nF>
0

>  <BalabanJ>
1.23

>  <BertzCT>
1115.3

>  <nBonds>
59

>  <nBondsO>
36

>  <nBondsS>
41

>  <nBondsD>
1

>  <nBondsT>
0

>  <nBondsA>
17

>  <nBondsM>
18

>  <nBondsKS>
50

>  <nBondsKD>
9

>  <RNCG>
0.13

>  <RPCG>
0.09

>  <FCSP3>
0.33

>  <SZ>
44

>  <Sm>
42.33

>  <Sv>
37.34

>  <Sse>
57.12

>  <Sp>
40.1

>  <Si>
63.45

>  <MZ>
0.79

>  <Mm>
0.76

>  <Mv>
0.67

>  <Mse>
1.02

>  <Mp>
0.72

>  <Mi>
1.13

>  <NsCH3>
1

>  <NdCH2>
0

>  <NssCH2>
6

>  <NtCH>
0

>  <NdsCH>
0

>  <NaaCH>
5

>  <NsssCH>
0

>  <NddC>
0

>  <NtsC>
0

>  <NdssC>
1

>  <NaasC>
8

>  <NaaaC>
0

>  <NssssC>
0

>  <NsNH3>
0

>  <NsNH2>
0

>  <NssNH2>
0

>  <NdNH>
0

>  <NssNH>
2

>  <NaaNH>
0

>  <NtN>
0

>  <NsssNH>
0

>  <NdsN>
0

>  <NaaN>
3

>  <NsssN>
2

>  <NddsN>
0

>  <NaasN>
0

>  <NssssN>
0

>  <NsOH>
1

>  <NdO>
1

>  <NssO>
0

>  <NaaO>
0

>  <NsF>
0

>  <NsSiH3>
0

>  <NssSiH2>
0

>  <NsssSiH>
0

>  <NssssSi>
0

>  <NsPH2>
0

>  <NssPH>
0

>  <NsssP>
0

>  <NdsssP>
0

>  <NsssssP>
0

>  <NsSH>
0

>  <NdS>
0

>  <NssS>
0

>  <NaaS>
1

>  <NdssS>
0

>  <NddssS>
0

>  <NsCl>
2

>  <NsBr>
0

>  <NsI>
0

>  <fragCpx>
240.12

>  <fMF>
0.46

>  <nHBAcc>
9

>  <nHBDon>
3

>  <Kier1>
26.07

>  <Kier2>
12.3

>  <Lipinski>
0

>  <GhoseFilter>
0

>  <FilterItLogS>
-6.33

>  <VMcGowan>
347.04

>  <LabuteASA>
204.94

>  <PEOE_VSA1>
20.64

>  <PEOE_VSA2>
9.69

>  <PEOE_VSA3>
14.95

>  <PEOE_VSA4>
0

>  <PEOE_VSA5>
0

>  <PEOE_VSA6>
40.61

>  <PEOE_VSA7>
19.06

>  <PEOE_VSA8>
38.79

>  <PEOE_VSA9>
28.54

>  <PEOE_VSA10>
22.34

>  <PEOE_VSA11>
5.13

>  <PEOE_VSA12>
0

>  <PEOE_VSA13>
5.91

>  <SMR_VSA1>
9.9

>  <SMR_VSA2>
0

>  <SMR_VSA3>
19.85

>  <SMR_VSA4>
0

>  <SMR_VSA5>
6.92

>  <SMR_VSA6>
54.86

>  <SMR_VSA7>
51.21

>  <SMR_VSA8>
0

>  <SMR_VSA9>
0

>  <SlogP_VSA1>
15.53

>  <SlogP_VSA2>
70.2

>  <SlogP_VSA3>
0

>  <SlogP_VSA4>
6.92

>  <SlogP_VSA5>
15.5

>  <SlogP_VSA6>
30.46

>  <SlogP_VSA7>
10.05

>  <SlogP_VSA8>
0

>  <SlogP_VSA9>
0

>  <SlogP_VSA10>
22.45

>  <SlogP_VSA11>
0

>  <EState_VSA1>
0

>  <EState_VSA2>
12.51

>  <EState_VSA3>
43.93

>  <EState_VSA4>
32

>  <EState_VSA5>
17.53

>  <EState_VSA6>
18.2

>  <EState_VSA7>
12.99

>  <EState_VSA8>
35.39

>  <EState_VSA9>
28.31

>  <EState_VSA10>
4.79

>  <VSA_EState1>
0

>  <VSA_EState2>
30.77

>  <VSA_EState3>
16.28

>  <VSA_EState4>
0.36

>  <VSA_EState5>
1.72

>  <VSA_EState6>
6.9

>  <VSA_EState7>
1.49

>  <VSA_EState8>
6.07

>  <VSA_EState9>
0

>  <apol>
66.97

>  <bpol>
35.4

>  <nRing>
4

>  <nHRing>
3

>  <naRing>
3

>  <naHRing>
2

>  <nARing 2>
1

>  <nAHRing 2>
1

>  <nFRing>
0

>  <nFHRing>
0

>  <nFaRing>
0

>  <nFaHRing>
0

>  <nFARing 2>
0

>  <nFAHRing 2>
0

>  <nRot>
7

>  <SLogP>
3.66

>  <SMR>
132.32

>  <TopoPSA(NO)>
106.51

>  <TopoPSA>
134.75

>  <JGI1>
0.21

>  <JGI2>
0.07

>  <JGI3>
0.04

>  <JGI4>
0.04

>  <JGI5>
0.03

>  <Diameter>
19

>  <Radius>
10

>  <TMWC10>
146.38

>  <TSRW10>
82.6

>  <MW>
507.1

>  <AMW>
9.06

>  <WPath>
3723

>  <WPol>
50

>  <Zagreb1>
172

>  <Zagreb2>
200

>  <mZagreb2>
7.28

>  <yes>


>  <nAR-cont>
0.816016

>  <nHA-cont>
0.61399562

>  <MWHBN>
0.53288616

>  <MWHBN-cont>
0

>  <TPSA-cont>
0

>  <pka_cont>
0.97

>  <yes.1>


>  <BBB_SCORE>
1.91501162

>  <MMFF94 Energy>
22.999

$$$$
Compound 54
Actelion Java MolfileCreator 2.0

  0  0  0  0  0  0              0 V3000
M  V30 BEGIN CTAB
M  V30 COUNTS 35 37 0 0 0
M  V30 BEGIN ATOM
M  V30 1 Cl -2.517 2.2651 -0.4191 0
M  V30 2 C -1.5763 0.816 -0.2916 0
M  V30 3 C -0.9278 0.4307 0.9002 0
M  V30 4 C -1.4904 0.0414 -1.4562 0
M  V30 5 C -0.1933 -0.7739 0.8604 0
M  V30 6 C -1.0236 1.2881 2.1672 0 CFG=1
M  V30 7 C -0.7624 -1.1503 -1.4762 0
M  V30 8 Cl 0.6615 -1.3957 2.2309 0
M  V30 9 C -0.1115 -1.5461 -0.3081 0
M  V30 10 C -1.7469 0.5777 3.2524 0
M  V30 11 C 0.3118 1.9338 2.5663 0
M  V30 12 N -0.6748 -1.9146 -2.6759 0
M  V30 13 N -2.3275 0.0343 4.0997 0
M  V30 14 C 0.9155 2.8553 1.6865 0
M  V30 15 C 0.9602 1.6613 3.7847 0
M  V30 16 N -0.5687 -1.1419 -3.8173 0
M  V30 17 C -0.7045 -3.3172 -2.6772 0
M  V30 18 C 2.1284 3.4706 2.0084 0
M  V30 19 C 2.1747 2.2774 4.1047 0
M  V30 20 C -0.4695 -1.7557 -4.9513 0
M  V30 21 O -0.8345 -4.0333 -1.6851 0
M  V30 22 N -0.5878 -3.9156 -3.9031 0
M  V30 23 C 2.7539 3.1777 3.216 0
M  V30 24 C -0.4676 -3.2446 -5.0783 0
M  V30 25 Cl 4.2473 3.9334 3.612 0
M  V30 26 O -0.3663 -3.7583 -6.1798 0
M  V30 27 H -2.0049 0.3708 -2.3575 0
M  V30 28 H -1.6667 2.1558 1.978 0
M  V30 29 H 0.4781 -2.4611 -0.2938 0
M  V30 30 H 0.4442 3.1081 0.7378 0
M  V30 31 H 0.5435 0.9593 4.5062 0
M  V30 32 H 2.5769 4.1768 1.3142 0
M  V30 33 H 2.6612 2.0467 5.0495 0
M  V30 34 H -0.3803 -1.202 -5.8985 0
M  V30 35 H -0.6041 -4.9232 -3.9242 0
M  V30 END ATOM
M  V30 BEGIN BOND
M  V30 1 1 1 2
M  V30 2 2 2 3
M  V30 3 1 2 4
M  V30 4 1 3 5
M  V30 5 1 3 6
M  V30 6 2 4 7
M  V30 7 1 5 8
M  V30 8 2 5 9
M  V30 9 1 6 10
M  V30 10 1 6 11
M  V30 11 1 7 12
M  V30 12 3 10 13
M  V30 13 2 11 14
M  V30 14 1 11 15
M  V30 15 1 12 16
M  V30 16 1 12 17
M  V30 17 1 14 18
M  V30 18 2 15 19
M  V30 19 2 16 20
M  V30 20 2 17 21
M  V30 21 1 17 22
M  V30 22 2 18 23
M  V30 23 1 20 24
M  V30 24 1 23 25
M  V30 25 2 24 26
M  V30 26 1 7 9
M  V30 27 1 19 23
M  V30 28 1 22 24
M  V30 29 1 4 27
M  V30 30 1 6 28
M  V30 31 1 9 29
M  V30 32 1 14 30
M  V30 33 1 15 31
M  V30 34 1 18 32
M  V30 35 1 19 33
M  V30 36 1 20 34
M  V30 37 1 22 35
M  V30 END BOND
M  V30 BEGIN COLLECTION
M  V30 MDLV30/STERAC1 ATOMS=(1 6)
M  V30 END COLLECTION
M  V30 END CTAB
M  END
>  <Column 1>
72

>  <level_0>
78

>  <index>
78

>  <Unnamed: 0>
78

>  <NO.>
79

>  <Name>
diclazuril

>  <IUPAC_name>
2-(4-chlorophenyl)-2-[2-6-dichloro-4-(3-5-dioxo-1-2-4-triazin-2-yl)phenyl]acetonitrile

>  <SMILES>
N#CC(c1ccc(Cl)cc1)c1c(Cl)cc(-n2ncc(=O)[nH]c2=O)cc1Cl

>  <CID>
456389

>  <logBB>
-1.3

>  <BBB+/BBB->
BBB-

>  <Inchi>
InChI=1S/C17H9Cl3N4O2/c18-10-3-1-9(2-4-10)12(7-21)16-13(19)5-11(6-14(16)20)24-17(26)23-15(25)8-22-24/h1-6-8-12H-(H-23-25-26)

>  <threshold>


>  <reference>
R2|R2|R25|R46|

>  <group>
A

>  <Class>
-1

>  <ABC>
20.1

>  <ABCGG>
16.26

>  <nAcid>
0

>  <nBase>
0

>  <nAromAtom>
18

>  <nAromBond>
18

>  <nAtom>
35

>  <nHeavyAtom>
26

>  <nSpiro>
0

>  <nBridgehead>
0

>  <nHetero>
9

>  <nN>
4

>  <nO>
2

>  <nF>
0

>  <BalabanJ>
1.64

>  <BertzCT>
1107.22

>  <nBonds>
37

>  <nBondsO>
28

>  <nBondsS>
16

>  <nBondsD>
2

>  <nBondsT>
1

>  <nBondsA>
18

>  <nBondsM>
21

>  <nBondsKS>
27

>  <nBondsKD>
9

>  <RNCG>
0.15

>  <RPCG>
0.19

>  <FCSP3>
0.06

>  <SZ>
34.33

>  <Sm>
33.94

>  <Sv>
27.17

>  <Sse>
36.61

>  <Sp>
28.1

>  <Si>
38.91

>  <MZ>
0.98

>  <Mm>
0.97

>  <Mv>
0.78

>  <Mse>
1.05

>  <Mp>
0.8

>  <Mi>
1.11

>  <NsCH3>
0

>  <NdCH2>
0

>  <NssCH2>
0

>  <NtCH>
0

>  <NdsCH>
0

>  <NaaCH>
7

>  <NsssCH>
1

>  <NddC>
0

>  <NtsC>
1

>  <NdssC>
0

>  <NaasC>
6

>  <NaaaC>
0

>  <NssssC>
0

>  <NsNH3>
0

>  <NsNH2>
0

>  <NssNH2>
0

>  <NdNH>
0

>  <NssNH>
0

>  <NaaNH>
1

>  <NtN>
1

>  <NsssNH>
0

>  <NdsN>
0

>  <NaaN>
1

>  <NsssN>
0

>  <NddsN>
0

>  <NaasN>
1

>  <NssssN>
0

>  <NsOH>
0

>  <NdO>
2

>  <NssO>
0

>  <NaaO>
0

>  <NsF>
0

>  <NsSiH3>
0

>  <NssSiH2>
0

>  <NsssSiH>
0

>  <NssssSi>
0

>  <NsPH2>
0

>  <NssPH>
0

>  <NsssP>
0

>  <NdsssP>
0

>  <NsssssP>
0

>  <NsSH>
0

>  <NdS>
0

>  <NssS>
0

>  <NaaS>
0

>  <NdssS>
0

>  <NddssS>
0

>  <NsCl>
3

>  <NsBr>
0

>  <NsI>
0

>  <fragCpx>
134.09

>  <fMF>
0.54

>  <nHBAcc>
5

>  <nHBDon>
1

>  <Kier1>
20.73

>  <Kier2>
9

>  <Lipinski>
1

>  <GhoseFilter>
1

>  <FilterItLogS>
-6.14

>  <VMcGowan>
258.89

>  <LabuteASA>
161.74

>  <PEOE_VSA1>
0

>  <PEOE_VSA2>
9.78

>  <PEOE_VSA3>
4.79

>  <PEOE_VSA4>
15.04

>  <PEOE_VSA5>
0

>  <PEOE_VSA6>
46.94

>  <PEOE_VSA7>
29.83

>  <PEOE_VSA8>
20.63

>  <PEOE_VSA9>
17.67

>  <PEOE_VSA10>
6.2

>  <PEOE_VSA11>
0

>  <PEOE_VSA12>
0

>  <PEOE_VSA13>
5.56

>  <SMR_VSA1>
0

>  <SMR_VSA2>
5.26

>  <SMR_VSA3>
14.76

>  <SMR_VSA4>
0

>  <SMR_VSA5>
5.92

>  <SMR_VSA6>
0

>  <SMR_VSA7>
89.63

>  <SMR_VSA8>
0

>  <SMR_VSA9>
11.76

>  <SlogP_VSA1>
11.25

>  <SlogP_VSA2>
14.76

>  <SlogP_VSA3>
0

>  <SlogP_VSA4>
11.33

>  <SlogP_VSA5>
17.04

>  <SlogP_VSA6>
52.18

>  <SlogP_VSA7>
15.07

>  <SlogP_VSA8>
5.69

>  <SlogP_VSA9>
0

>  <SlogP_VSA10>
0

>  <SlogP_VSA11>
0

>  <EState_VSA1>
17.17

>  <EState_VSA2>
15.73

>  <EState_VSA3>
16.15

>  <EState_VSA4>
10.88

>  <EState_VSA5>
12.13

>  <EState_VSA6>
24.27

>  <EState_VSA7>
0

>  <EState_VSA8>
16.15

>  <EState_VSA9>
34.8

>  <EState_VSA10>
14.85

>  <VSA_EState1>
0.95

>  <VSA_EState2>
25.12

>  <VSA_EState3>
14.28

>  <VSA_EState4>
-0.01

>  <VSA_EState5>
-0.72

>  <VSA_EState6>
11.84

>  <VSA_EState7>
0.96

>  <VSA_EState8>
0

>  <VSA_EState9>
0

>  <apol>
46.94

>  <bpol>
15.14

>  <nRing>
3

>  <nHRing>
1

>  <naRing>
3

>  <naHRing>
1

>  <nARing 2>
0

>  <nAHRing 2>
0

>  <nFRing>
0

>  <nFHRing>
0

>  <nFaRing>
0

>  <nFaHRing>
0

>  <nFARing 2>
0

>  <nFAHRing 2>
0

>  <nRot>
3

>  <SLogP>
3.54

>  <SMR>
99.38

>  <TopoPSA(NO)>
91.54

>  <TopoPSA>
91.54

>  <JGI1>
0.21

>  <JGI2>
0.09

>  <JGI3>
0.06

>  <JGI4>
0.05

>  <JGI5>
0.03

>  <Diameter>
14

>  <Radius>
7

>  <TMWC10>
130.02

>  <TSRW10>
61.13

>  <MW>
405.98

>  <AMW>
11.6

>  <WPath>
1681

>  <WPol>
44

>  <Zagreb1>
136

>  <Zagreb2>
161

>  <mZagreb2>
5.75

>  <yes>


>  <nAR-cont>
0.336376

>  <nHA-cont>
0.892715677

>  <MWHBN>
0.297782335

>  <MWHBN-cont>
0.847313566

>  <TPSA-cont>
0.360993957

>  <pka_cont>
0.97

>  <yes.1>


>  <BBB_SCORE>
3.707049941

>  <MMFF94 Energy>
54.297

$$$$
Compound 55
Actelion Java MolfileCreator 2.0

  0  0  0  0  0  0              0 V3000
M  V30 BEGIN CTAB
M  V30 COUNTS 32 33 0 0 0
M  V30 BEGIN ATOM
M  V30 1 O 0.4736 1.2634 5.299 0
M  V30 2 C 0.6001 1.4287 4.0967 0
M  V30 3 O 0.3252 2.5849 3.4119 0
M  V30 4 N 1.0288 0.5068 3.2212 0
M  V30 5 N 0.6185 2.3109 2.0386 0
M  V30 6 C 1.0184 1.0849 2.0251 0
M  V30 7 C 1.44 0.3296 0.7984 0
M  V30 8 C 0.2639 -0.1858 -0.1006 0
M  V30 9 C 0.9313 -1.0043 -1.2458 0
M  V30 10 C -0.501 1.0348 -0.6833 0
M  V30 11 C -0.646 -1.0889 0.7913 0
M  V30 12 C 0.0643 -1.2494 -2.4781 0
M  V30 13 C -1.3253 0.7734 -1.9435 0
M  V30 14 N -1.7359 -1.7842 0.1264 0
M  V30 15 C -0.5255 0.0461 -3.0127 0
M  V30 16 H 1.3025 -0.4241 3.4814 0
M  V30 17 H 2.0943 0.9922 0.2171 0
M  V30 18 H 2.0543 -0.5228 1.1174 0
M  V30 19 H 1.2892 -1.9675 -0.86 0
M  V30 20 H 1.8278 -0.4689 -1.589 0
M  V30 21 H -1.1589 1.4697 0.079 0
M  V30 22 H 0.2263 1.8181 -0.938 0
M  V30 23 H -0.0203 -1.8504 1.2736 0
M  V30 24 H -1.0875 -0.4936 1.5988 0
M  V30 25 H 0.6761 -1.7162 -3.2593 0
M  V30 26 H -0.7363 -1.9611 -2.2556 0
M  V30 27 H -2.2279 0.2038 -1.7061 0
M  V30 28 H -1.6749 1.7321 -2.3458 0
M  V30 29 H -2.1964 -2.4119 0.7856 0
M  V30 30 H -2.4536 -1.1166 -0.1522 0
M  V30 31 H -1.1691 -0.1681 -3.8735 0
M  V30 32 H 0.2812 0.6962 -3.3731 0
M  V30 END ATOM
M  V30 BEGIN BOND
M  V30 1 2 1 2
M  V30 2 1 2 3
M  V30 3 1 2 4
M  V30 4 1 3 5
M  V30 5 1 4 6
M  V30 6 1 6 7
M  V30 7 1 7 8
M  V30 8 1 8 9
M  V30 9 1 8 10
M  V30 10 1 8 11
M  V30 11 1 9 12
M  V30 12 1 10 13
M  V30 13 1 11 14
M  V30 14 1 12 15
M  V30 15 2 5 6
M  V30 16 1 13 15
M  V30 17 1 4 16
M  V30 18 1 7 17
M  V30 19 1 7 18
M  V30 20 1 9 19
M  V30 21 1 9 20
M  V30 22 1 10 21
M  V30 23 1 10 22
M  V30 24 1 11 23
M  V30 25 1 11 24
M  V30 26 1 12 25
M  V30 27 1 12 26
M  V30 28 1 13 27
M  V30 29 1 13 28
M  V30 30 1 14 29
M  V30 31 1 14 30
M  V30 32 1 15 31
M  V30 33 1 15 32
M  V30 END BOND
M  V30 END CTAB
M  END
>  <Column 1>
73

>  <level_0>
79

>  <index>
79

>  <Unnamed: 0>
79

>  <NO.>
80

>  <Name>
compound-9

>  <IUPAC_name>
3-[[1-(aminomethyl)cyclohexyl]methyl]-4h-1-2-4-oxadiazol-5-one

>  <SMILES>
NCC1(Cc2noc(=O)[nH]2)CCCCC1

>  <CID>
135529433

>  <logBB>
-1.3

>  <BBB+/BBB->
BBB-

>  <Inchi>
InChI=1S/C10H17N3O2/c11-7-10(4-2-1-3-5-10)6-8-12-9(14)15-13-8/h1-7-11H2-(H-12-13-14)

>  <threshold>


>  <reference>
R18|R26|R27|

>  <group>
A

>  <Class>
-1

>  <ABC>
11.42

>  <ABCGG>
10.44

>  <nAcid>
0

>  <nBase>
1

>  <nAromAtom>
5

>  <nAromBond>
5

>  <nAtom>
32

>  <nHeavyAtom>
15

>  <nSpiro>
0

>  <nBridgehead>
0

>  <nHetero>
5

>  <nN>
3

>  <nO>
2

>  <nF>
0

>  <BalabanJ>
1.89

>  <BertzCT>
362.74

>  <nBonds>
33

>  <nBondsO>
16

>  <nBondsS>
27

>  <nBondsD>
1

>  <nBondsT>
0

>  <nBondsA>
5

>  <nBondsM>
6

>  <nBondsKS>
31

>  <nBondsKD>
2

>  <RNCG>
0.23

>  <RPCG>
0.3

>  <FCSP3>
0.8

>  <SZ>
19

>  <Sm>
17.59

>  <Sv>
18.31

>  <Sse>
32.2

>  <Sp>
19.72

>  <Si>
36.82

>  <MZ>
0.59

>  <Mm>
0.55

>  <Mv>
0.57

>  <Mse>
1.01

>  <Mp>
0.62

>  <Mi>
1.15

>  <NsCH3>
0

>  <NdCH2>
0

>  <NssCH2>
7

>  <NtCH>
0

>  <NdsCH>
0

>  <NaaCH>
0

>  <NsssCH>
0

>  <NddC>
0

>  <NtsC>
0

>  <NdssC>
0

>  <NaasC>
1

>  <NaaaC>
0

>  <NssssC>
1

>  <NsNH3>
0

>  <NsNH2>
1

>  <NssNH2>
0

>  <NdNH>
0

>  <NssNH>
0

>  <NaaNH>
1

>  <NtN>
0

>  <NsssNH>
0

>  <NdsN>
0

>  <NaaN>
1

>  <NsssN>
0

>  <NddsN>
0

>  <NaasN>
0

>  <NssssN>
0

>  <NsOH>
0

>  <NdO>
1

>  <NssO>
0

>  <NaaO>
1

>  <NsF>
0

>  <NsSiH3>
0

>  <NssSiH2>
0

>  <NsssSiH>
0

>  <NssssSi>
0

>  <NsPH2>
0

>  <NssPH>
0

>  <NsssP>
0

>  <NdsssP>
0

>  <NsssssP>
0

>  <NsSH>
0

>  <NdS>
0

>  <NssS>
0

>  <NaaS>
0

>  <NdssS>
0

>  <NddssS>
0

>  <NsCl>
0

>  <NsBr>
0

>  <NsI>
0

>  <fragCpx>
46.05

>  <fMF>
0.38

>  <nHBAcc>
4

>  <nHBDon>
2

>  <Kier1>
11.48

>  <Kier2>
4.89

>  <Lipinski>
1

>  <GhoseFilter>
1

>  <FilterItLogS>
-2.89

>  <VMcGowan>
163.12

>  <LabuteASA>
88.03

>  <PEOE_VSA1>
5.73

>  <PEOE_VSA2>
9.51

>  <PEOE_VSA3>
4.79

>  <PEOE_VSA4>
0

>  <PEOE_VSA5>
0

>  <PEOE_VSA6>
24.42

>  <PEOE_VSA7>
24.8

>  <PEOE_VSA8>
6.42

>  <PEOE_VSA9>
0

>  <PEOE_VSA10>
0

>  <PEOE_VSA11>
5.82

>  <PEOE_VSA12>
0

>  <PEOE_VSA13>
0

>  <SMR_VSA1>
4.52

>  <SMR_VSA2>
0

>  <SMR_VSA3>
10.14

>  <SMR_VSA4>
11.15

>  <SMR_VSA5>
38.52

>  <SMR_VSA6>
6.54

>  <SMR_VSA7>
16.38

>  <SMR_VSA8>
0

>  <SMR_VSA9>
0

>  <SlogP_VSA1>
11.49

>  <SlogP_VSA2>
16.69

>  <SlogP_VSA3>
6.42

>  <SlogP_VSA4>
5.41

>  <SlogP_VSA5>
37.93

>  <SlogP_VSA6>
9.32

>  <SlogP_VSA7>
0

>  <SlogP_VSA8>
0

>  <SlogP_VSA9>
0

>  <SlogP_VSA10>
0

>  <SlogP_VSA11>
0

>  <EState_VSA1>
5.76

>  <EState_VSA2>
5.41

>  <EState_VSA3>
12.37

>  <EState_VSA4>
19.26

>  <EState_VSA5>
19.26

>  <EState_VSA6>
0

>  <EState_VSA7>
0

>  <EState_VSA8>
14.66

>  <EState_VSA9>
5.73

>  <EState_VSA10>
4.79

>  <VSA_EState1>
4.49

>  <VSA_EState2>
13.4

>  <VSA_EState3>
3.7

>  <VSA_EState4>
5.97

>  <VSA_EState5>
0.15

>  <VSA_EState6>
0

>  <VSA_EState7>
6.71

>  <VSA_EState8>
0.65

>  <VSA_EState9>
0

>  <apol>
32.94

>  <bpol>
19.66

>  <nRing>
2

>  <nHRing>
1

>  <naRing>
1

>  <naHRing>
1

>  <nARing 2>
1

>  <nAHRing 2>
0

>  <nFRing>
0

>  <nFHRing>
0

>  <nFaRing>
0

>  <nFaHRing>
0

>  <nFARing 2>
0

>  <nFAHRing 2>
0

>  <nRot>
3

>  <SLogP>
0.81

>  <SMR>
55.4

>  <TopoPSA(NO)>
84.91

>  <TopoPSA>
84.91

>  <JGI1>
0.25

>  <JGI2>
0.06

>  <JGI3>
0.06

>  <JGI4>
0.03

>  <JGI5>
0.02

>  <Diameter>
8

>  <Radius>
4

>  <TMWC10>
100.81

>  <TSRW10>
60.51

>  <MW>
211.13

>  <AMW>
6.6

>  <WPath>
365

>  <WPol>
19

>  <Zagreb1>
76

>  <Zagreb2>
87

>  <mZagreb2>
3.42

>  <yes>


>  <nAR-cont>
0.816016

>  <nHA-cont>
0.92539861

>  <MWHBN>
0.412929848

>  <MWHBN-cont>
0.425386185

>  <TPSA-cont>
0.407275474

>  <pka_cont>
0.97

>  <yes.1>


>  <BBB_SCORE>
3.679044836

>  <MMFF94 Energy>
-3.4315

$$$$
Compound 56
Actelion Java MolfileCreator 2.0

  0  0  0  0  0  0              0 V3000
M  V30 BEGIN CTAB
M  V30 COUNTS 26 27 0 0 0
M  V30 BEGIN ATOM
M  V30 1 S 1.2091 -0.2417 2.5001 0
M  V30 2 C 1.136 -1.079 1.0019 0
M  V30 3 C -0.0855 0.7603 1.9892 0
M  V30 4 N 0.217 -0.6509 0.1633 0
M  V30 5 C 2.0779 -2.2078 0.7136 0
M  V30 6 C -0.4889 0.4115 0.7143 0
M  V30 7 C 3.1765 -1.7647 -0.2559 0
M  V30 8 C -1.5707 1.059 -0.0271 0
M  V30 9 N 4.1447 -2.8369 -0.5002 0
M  V30 10 C -2.1132 0.416 -1.1508 0
M  V30 11 C -2.0869 2.3122 0.336 0
M  V30 12 C -3.148 1.0016 -1.8851 0
M  V30 13 C -3.1227 2.8987 -0.3993 0
M  V30 14 C -3.6535 2.2428 -1.5076 0
M  V30 15 H -0.4705 1.526 2.6456 0
M  V30 16 H 1.5089 -3.0384 0.2771 0
M  V30 17 H 2.5236 -2.5866 1.642 0
M  V30 18 H 3.7079 -0.8905 0.1387 0
M  V30 19 H 2.7326 -1.4667 -1.2129 0
M  V30 20 H 4.8397 -2.5105 -1.1717 0
M  V30 21 H 4.6557 -3.0426 0.3575 0
M  V30 22 H -1.7298 -0.5544 -1.4616 0
M  V30 23 H -1.6897 2.8609 1.185 0
M  V30 24 H -3.5551 0.4862 -2.7511 0
M  V30 25 H -3.512 3.871 -0.1073 0
M  V30 26 H -4.4574 2.6997 -2.0789 0
M  V30 END ATOM
M  V30 BEGIN BOND
M  V30 1 1 1 2
M  V30 2 1 1 3
M  V30 3 2 2 4
M  V30 4 1 2 5
M  V30 5 2 3 6
M  V30 6 1 5 7
M  V30 7 1 6 8
M  V30 8 1 7 9
M  V30 9 2 8 10
M  V30 10 1 8 11
M  V30 11 1 10 12
M  V30 12 2 11 13
M  V30 13 2 12 14
M  V30 14 1 4 6
M  V30 15 1 13 14
M  V30 16 1 3 15
M  V30 17 1 5 16
M  V30 18 1 5 17
M  V30 19 1 7 18
M  V30 20 1 7 19
M  V30 21 1 9 20
M  V30 22 1 9 21
M  V30 23 1 10 22
M  V30 24 1 11 23
M  V30 25 1 12 24
M  V30 26 1 13 25
M  V30 27 1 14 26
M  V30 END BOND
M  V30 END CTAB
M  END
>  <Column 1>
74

>  <level_0>
80

>  <index>
80

>  <Unnamed: 0>
80

>  <NO.>
81

>  <Name>
yg19

>  <IUPAC_name>
2-(4-phenyl-1-3-thiazol-2-yl)ethanamine

>  <SMILES>
NCCc1nc(-c2ccccc2)cs1

>  <CID>
1497794

>  <logBB>
-1.3

>  <BBB+/BBB->
BBB-

>  <Inchi>
InChI=1S/C11H12N2S/c12-7-6-11-13-10(8-14-11)9-4-2-1-3-5-9/h1-5-8H-6-7-12H2

>  <threshold>


>  <reference>
R35|R36|R43|R48|R49|R4|R8|R21|R27|R2|R2|R12|R25|R46|R48|

>  <group>
A

>  <Class>
-1

>  <ABC>
10.57

>  <ABCGG>
9.38

>  <nAcid>
0

>  <nBase>
1

>  <nAromAtom>
11

>  <nAromBond>
11

>  <nAtom>
26

>  <nHeavyAtom>
14

>  <nSpiro>
0

>  <nBridgehead>
0

>  <nHetero>
3

>  <nN>
2

>  <nO>
0

>  <nF>
0

>  <BalabanJ>
1.76

>  <BertzCT>
394.68

>  <nBonds>
27

>  <nBondsO>
15

>  <nBondsS>
16

>  <nBondsD>
0

>  <nBondsT>
0

>  <nBondsA>
11

>  <nBondsM>
11

>  <nBondsKS>
22

>  <nBondsKD>
5

>  <RNCG>
0.33

>  <RPCG>
0.12

>  <FCSP3>
0.18

>  <SZ>
18

>  <Sm>
17.01

>  <Sv>
16.95

>  <Sse>
25.73

>  <Sp>
18.85

>  <Si>
28.99

>  <MZ>
0.69

>  <Mm>
0.65

>  <Mv>
0.65

>  <Mse>
0.99

>  <Mp>
0.72

>  <Mi>
1.12

>  <NsCH3>
0

>  <NdCH2>
0

>  <NssCH2>
2

>  <NtCH>
0

>  <NdsCH>
0

>  <NaaCH>
6

>  <NsssCH>
0

>  <NddC>
0

>  <NtsC>
0

>  <NdssC>
0

>  <NaasC>
3

>  <NaaaC>
0

>  <NssssC>
0

>  <NsNH3>
0

>  <NsNH2>
1

>  <NssNH2>
0

>  <NdNH>
0

>  <NssNH>
0

>  <NaaNH>
0

>  <NtN>
0

>  <NsssNH>
0

>  <NdsN>
0

>  <NaaN>
1

>  <NsssN>
0

>  <NddsN>
0

>  <NaasN>
0

>  <NssssN>
0

>  <NsOH>
0

>  <NdO>
0

>  <NssO>
0

>  <NaaO>
0

>  <NsF>
0

>  <NsSiH3>
0

>  <NssSiH2>
0

>  <NsssSiH>
0

>  <NssssSi>
0

>  <NsPH2>
0

>  <NssPH>
0

>  <NsssP>
0

>  <NdsssP>
0

>  <NsssssP>
0

>  <NsSH>
0

>  <NdS>
0

>  <NssS>
0

>  <NaaS>
1

>  <NdssS>
0

>  <NddssS>
0

>  <NsCl>
0

>  <NsBr>
0

>  <NsI>
0

>  <fragCpx>
43.03

>  <fMF>
0.42

>  <nHBAcc>
3

>  <nHBDon>
1

>  <Kier1>
10.52

>  <Kier2>
5.19

>  <Lipinski>
1

>  <GhoseFilter>
1

>  <FilterItLogS>
-3.36

>  <VMcGowan>
158.94

>  <LabuteASA>
87.42

>  <PEOE_VSA1>
5.73

>  <PEOE_VSA2>
0

>  <PEOE_VSA3>
4.98

>  <PEOE_VSA4>
0

>  <PEOE_VSA5>
11.34

>  <PEOE_VSA6>
30.33

>  <PEOE_VSA7>
6.54

>  <PEOE_VSA8>
17.36

>  <PEOE_VSA9>
10.7

>  <PEOE_VSA10>
0

>  <PEOE_VSA11>
0

>  <PEOE_VSA12>
0

>  <PEOE_VSA13>
0

>  <SMR_VSA1>
0

>  <SMR_VSA2>
0

>  <SMR_VSA3>
4.98

>  <SMR_VSA4>
5.73

>  <SMR_VSA5>
6.42

>  <SMR_VSA6>
6.54

>  <SMR_VSA7>
40.72

>  <SMR_VSA8>
0

>  <SMR_VSA9>
11.26

>  <SlogP_VSA1>
5.73

>  <SlogP_VSA2>
11.53

>  <SlogP_VSA3>
6.42

>  <SlogP_VSA4>
0

>  <SlogP_VSA5>
5.01

>  <SlogP_VSA6>
35.71

>  <SlogP_VSA7>
0

>  <SlogP_VSA8>
11.26

>  <SlogP_VSA9>
0

>  <SlogP_VSA10>
0

>  <SlogP_VSA11>
0

>  <EState_VSA1>
0

>  <EState_VSA2>
0

>  <EState_VSA3>
6.54

>  <EState_VSA4>
17.12

>  <EState_VSA5>
5.56

>  <EState_VSA6>
11.34

>  <EState_VSA7>
18.2

>  <EState_VSA8>
22.5

>  <EState_VSA9>
5.73

>  <EState_VSA10>
0

>  <VSA_EState1>
0

>  <VSA_EState2>
4.51

>  <VSA_EState3>
3.2

>  <VSA_EState4>
7.7

>  <VSA_EState5>
0

>  <VSA_EState6>
10.2

>  <VSA_EState7>
0.87

>  <VSA_EState8>
0.67

>  <VSA_EState9>
0

>  <apol>
31.47

>  <bpol>
15.07

>  <nRing>
2

>  <nHRing>
1

>  <naRing>
2

>  <naHRing>
1

>  <nARing 2>
0

>  <nAHRing 2>
0

>  <nFRing>
0

>  <nFHRing>
0

>  <nFaRing>
0

>  <nFaHRing>
0

>  <nFARing 2>
0

>  <nFAHRing 2>
0

>  <nRot>
3

>  <SLogP>
2.31

>  <SMR>
60.31

>  <TopoPSA(NO)>
38.91

>  <TopoPSA>
67.15

>  <JGI1>
0.13

>  <JGI2>
0.06

>  <JGI3>
0.03

>  <JGI4>
0.03

>  <JGI5>
0.03

>  <Diameter>
9

>  <Radius>
5

>  <TMWC10>
97.09

>  <TSRW10>
58.64

>  <MW>
204.07

>  <AMW>
7.85

>  <WPath>
322

>  <WPol>
16

>  <Zagreb1>
68

>  <Zagreb2>
77

>  <mZagreb2>
3.28

>  <yes>


>  <nAR-cont>
0.336376

>  <nHA-cont>
0.887625254

>  <MWHBN>
0.28000798

>  <MWHBN-cont>
0.896061635

>  <TPSA-cont>
0.531251302

>  <pka_cont>
0.97

>  <yes.1>


>  <BBB_SCORE>
4.115596311

>  <MMFF94 Energy>
36.737

$$$$
Compound 57
Actelion Java MolfileCreator 2.0

  0  0  0  0  0  0              0 V3000
M  V30 BEGIN CTAB
M  V30 COUNTS 40 43 0 0 0
M  V30 BEGIN ATOM
M  V30 1 O 0.6382 -1.9956 -5.1149 0
M  V30 2 C 0.3975 -0.7303 -4.6534 0
M  V30 3 C 0.3186 -2.0098 -6.4341 0
M  V30 4 C 0.6231 -0.2465 -3.1846 0
M  V30 5 C -0.0767 0.0531 -5.688 0
M  V30 6 C -0.1269 -0.7733 -6.8363 0
M  V30 7 N 1.0876 -1.0533 -2.2171 0
M  V30 8 N 0.352 1.0481 -2.7895 0
M  V30 9 N 1.1052 -0.1934 -1.1821 0
M  V30 10 C 0.6673 1.051 -1.5121 0
M  V30 11 C 1.5178 -0.4908 0.1096 0
M  V30 12 N 0.6033 2.0202 -0.5691 0
M  V30 13 N 1.4729 0.4536 0.9981 0
M  V30 14 N 1.9513 -1.7535 0.3976 0
M  V30 15 C 0.9834 1.6936 0.64 0
M  V30 16 N 0.8667 2.6532 1.5976 0
M  V30 17 C 0.9816 2.4398 3.0232 0
M  V30 18 C -0.3722 2.0888 3.6574 0
M  V30 19 C -0.8723 0.7031 3.3207 0
M  V30 20 C -1.8231 0.5152 2.3061 0
M  V30 21 C -0.3639 -0.4177 3.9925 0
M  V30 22 C -2.2512 -0.7687 1.9623 0
M  V30 23 C -0.7945 -1.7005 3.6515 0
M  V30 24 C -1.7303 -1.8665 2.6383 0
M  V30 25 O -2.1138 -3.1382 2.3299 0
M  V30 26 H 0.4609 -2.9558 -6.9375 0
M  V30 27 H -0.3494 1.097 -5.6105 0
M  V30 28 H -0.4469 -0.5018 -7.8323 0
M  V30 29 H 1.9383 -2.4724 -0.3185 0
M  V30 30 H 2.1784 -1.9978 1.3511 0
M  V30 31 H 0.5094 3.5425 1.2743 0
M  V30 32 H 1.3335 3.3771 3.4697 0
M  V30 33 H 1.7409 1.6846 3.2562 0
M  V30 34 H -0.2841 2.1643 4.749 0
M  V30 35 H -1.1259 2.8324 3.3675 0
M  V30 36 H -2.2206 1.3699 1.7626 0
M  V30 37 H 0.3779 -0.3004 4.7783 0
M  V30 38 H -2.9798 -0.8888 1.1672 0
M  V30 39 H -0.3978 -2.5673 4.1714 0
M  V30 40 H -2.7673 -3.0956 1.6125 0
M  V30 END ATOM
M  V30 BEGIN BOND
M  V30 1 1 1 2
M  V30 2 1 1 3
M  V30 3 1 2 4
M  V30 4 2 2 5
M  V30 5 2 3 6
M  V30 6 2 4 7
M  V30 7 1 4 8
M  V30 8 1 7 9
M  V30 9 2 8 10
M  V30 10 1 9 11
M  V30 11 1 10 12
M  V30 12 2 11 13
M  V30 13 1 11 14
M  V30 14 2 12 15
M  V30 15 1 15 16
M  V30 16 1 16 17
M  V30 17 1 17 18
M  V30 18 1 18 19
M  V30 19 2 19 20
M  V30 20 1 19 21
M  V30 21 1 20 22
M  V30 22 2 21 23
M  V30 23 2 22 24
M  V30 24 1 24 25
M  V30 25 1 5 6
M  V30 26 1 9 10
M  V30 27 1 13 15
M  V30 28 1 23 24
M  V30 29 1 3 26
M  V30 30 1 5 27
M  V30 31 1 6 28
M  V30 32 1 14 29
M  V30 33 1 14 30
M  V30 34 1 16 31
M  V30 35 1 17 32
M  V30 36 1 17 33
M  V30 37 1 18 34
M  V30 38 1 18 35
M  V30 39 1 20 36
M  V30 40 1 21 37
M  V30 41 1 22 38
M  V30 42 1 23 39
M  V30 43 1 25 40
M  V30 END BOND
M  V30 END CTAB
M  END
>  <Column 1>
75

>  <level_0>
81

>  <index>
81

>  <Unnamed: 0>
81

>  <NO.>
82

>  <Name>
17 zm0241385

>  <IUPAC_name>
4-[2-[[7-amino-2-(furan-2-yl)-[1-2-4]triazolo[1-5-a][1-3-5]triazin-5-yl]amino]ethyl]phenol

>  <SMILES>
Nc1nc(NCCc2ccc(O)cc2)nc2nc(-c3ccco3)nn12

>  <CID>
176407

>  <logBB>
-1.3

>  <BBB+/BBB->
BBB-

>  <Inchi>
InChI=1S/C16H15N7O2/c17-14-20-15(18-8-7-10-3-5-11(24)6-4-10)21-16-19-13(22-23(14)16)12-2-1-9-25-12/h1-6-9-24H-7-8H2-(H3-17-18-19-20-21-22)

>  <threshold>


>  <reference>
R47|

>  <group>
A

>  <Class>
-1

>  <ABC>
19.9

>  <ABCGG>
15.1

>  <nAcid>
0

>  <nBase>
0

>  <nAromAtom>
20

>  <nAromBond>
21

>  <nAtom>
40

>  <nHeavyAtom>
25

>  <nSpiro>
0

>  <nBridgehead>
0

>  <nHetero>
9

>  <nN>
7

>  <nO>
2

>  <nF>
0

>  <BalabanJ>
1.21

>  <BertzCT>
993.44

>  <nBonds>
43

>  <nBondsO>
28

>  <nBondsS>
22

>  <nBondsD>
0

>  <nBondsT>
0

>  <nBondsA>
21

>  <nBondsM>
21

>  <nBondsKS>
34

>  <nBondsKD>
9

>  <RNCG>
0.18

>  <RPCG>
0.11

>  <FCSP3>
0.13

>  <SZ>
29.33

>  <Sm>
28.09

>  <Sv>
26.8

>  <Sse>
40.96

>  <Sp>
27.56

>  <Si>
45.57

>  <MZ>
0.73

>  <Mm>
0.7

>  <Mv>
0.67

>  <Mse>
1.02

>  <Mp>
0.69

>  <Mi>
1.14

>  <NsCH3>
0

>  <NdCH2>
0

>  <NssCH2>
2

>  <NtCH>
0

>  <NdsCH>
0

>  <NaaCH>
7

>  <NsssCH>
0

>  <NddC>
0

>  <NtsC>
0

>  <NdssC>
0

>  <NaasC>
6

>  <NaaaC>
1

>  <NssssC>
0

>  <NsNH3>
0

>  <NsNH2>
1

>  <NssNH2>
0

>  <NdNH>
0

>  <NssNH>
1

>  <NaaNH>
0

>  <NtN>
0

>  <NsssNH>
0

>  <NdsN>
0

>  <NaaN>
4

>  <NsssN>
0

>  <NddsN>
0

>  <NaasN>
1

>  <NssssN>
0

>  <NsOH>
1

>  <NdO>
0

>  <NssO>
0

>  <NaaO>
1

>  <NsF>
0

>  <NsSiH3>
0

>  <NssSiH2>
0

>  <NsssSiH>
0

>  <NssssSi>
0

>  <NsPH2>
0

>  <NssPH>
0

>  <NsssP>
0

>  <NdsssP>
0

>  <NsssssP>
0

>  <NsSH>
0

>  <NdS>
0

>  <NssS>
0

>  <NaaS>
0

>  <NdssS>
0

>  <NddssS>
0

>  <NsCl>
0

>  <NsBr>
0

>  <NsI>
0

>  <fragCpx>
184.09

>  <fMF>
0.58

>  <nHBAcc>
9

>  <nHBDon>
3

>  <Kier1>
18.37

>  <Kier2>
8.35

>  <Lipinski>
1

>  <GhoseFilter>
1

>  <FilterItLogS>
-4.05

>  <VMcGowan>
235.76

>  <LabuteASA>
141.72

>  <PEOE_VSA1>
20.57

>  <PEOE_VSA2>
0

>  <PEOE_VSA3>
0

>  <PEOE_VSA4>
19.47

>  <PEOE_VSA5>
5.1

>  <PEOE_VSA6>
12.13

>  <PEOE_VSA7>
36.25

>  <PEOE_VSA8>
6.54

>  <PEOE_VSA9>
6.26

>  <PEOE_VSA10>
5.75

>  <PEOE_VSA11>
5.76

>  <PEOE_VSA12>
17.72

>  <PEOE_VSA13>
5.78

>  <SMR_VSA1>
9.52

>  <SMR_VSA2>
0

>  <SMR_VSA3>
24.57

>  <SMR_VSA4>
0

>  <SMR_VSA5>
6.42

>  <SMR_VSA6>
17.6

>  <SMR_VSA7>
48.22

>  <SMR_VSA8>
0

>  <SMR_VSA9>
17.33

>  <SlogP_VSA1>
11.05

>  <SlogP_VSA2>
36.22

>  <SlogP_VSA3>
6.42

>  <SlogP_VSA4>
0

>  <SlogP_VSA5>
5.56

>  <SlogP_VSA6>
47.08

>  <SlogP_VSA7>
0

>  <SlogP_VSA8>
17.36

>  <SlogP_VSA9>
0

>  <SlogP_VSA10>
11.9

>  <SlogP_VSA11>
5.75

>  <EState_VSA1>
0

>  <EState_VSA2>
11.7

>  <EState_VSA3>
29.86

>  <EState_VSA4>
11.98

>  <EState_VSA5>
4.52

>  <EState_VSA6>
30.53

>  <EState_VSA7>
12.13

>  <EState_VSA8>
25.37

>  <EState_VSA9>
10.15

>  <EState_VSA10>
5.11

>  <VSA_EState1>
6.64

>  <VSA_EState2>
12.82

>  <VSA_EState3>
16.65

>  <VSA_EState4>
7.02

>  <VSA_EState5>
2.08

>  <VSA_EState6>
10.55

>  <VSA_EState7>
2.3

>  <VSA_EState8>
0.61

>  <VSA_EState9>
0

>  <apol>
46.03

>  <bpol>
21.91

>  <nRing>
4

>  <nHRing>
3

>  <naRing>
4

>  <naHRing>
3

>  <nARing 2>
0

>  <nAHRing 2>
0

>  <nFRing>
1

>  <nFHRing>
1

>  <nFaRing>
1

>  <nFaHRing>
1

>  <nFARing 2>
0

>  <nFAHRing 2>
0

>  <nRot>
5

>  <SLogP>
1.72

>  <SMR>
90.99

>  <TopoPSA(NO)>
127.39

>  <TopoPSA>
127.39

>  <JGI1>
0.18

>  <JGI2>
0.06

>  <JGI3>
0.03

>  <JGI4>
0.04

>  <JGI5>
0.02

>  <Diameter>
15

>  <Radius>
8

>  <TMWC10>
128.44

>  <TSRW10>
75.41

>  <MW>
337.13

>  <AMW>
8.43

>  <WPath>
1722

>  <WPol>
35

>  <Zagreb1>
134

>  <Zagreb2>
157

>  <mZagreb2>
5.42

>  <yes>


>  <nAR-cont>
0.336376

>  <nHA-cont>
0.921834225

>  <MWHBN>
0.653555608

>  <MWHBN-cont>
0

>  <TPSA-cont>
0

>  <pka_cont>
0.97

>  <yes.1>


>  <BBB_SCORE>
1.743210225

>  <MMFF94 Energy>
-15.553

$$$$
Compound 58
Actelion Java MolfileCreator 2.0

  0  0  0  0  0  0              0 V3000
M  V30 BEGIN CTAB
M  V30 COUNTS 30 31 0 0 0
M  V30 BEGIN ATOM
M  V30 1 Cl 2.4516 -0.1633 2.3698 0
M  V30 2 C 2.401 -1.1708 0.9599 0
M  V30 3 C 1.4773 -0.9181 -0.0785 0
M  V30 4 C 3.3011 -2.2404 0.9002 0
M  V30 5 N 0.545 0.136 0.0674 0
M  V30 6 C 1.51 -1.7832 -1.1913 0
M  V30 7 C 3.3024 -3.0876 -0.2026 0
M  V30 8 C -0.8567 0.1561 -0.0881 0
M  V30 9 Cl 0.5329 -1.5264 -2.5995 0
M  V30 10 C 2.4122 -2.8555 -1.248 0
M  V30 11 C -1.5251 1.373 -0.3461 0
M  V30 12 C -1.6142 -1.0232 -0.0192 0
M  V30 13 C -2.9251 1.3816 -0.4869 0
M  V30 14 C -0.7772 2.6788 -0.4769 0
M  V30 15 C -3.0018 -1.0034 -0.1717 0
M  V30 16 C -3.6576 0.1999 -0.4008 0
M  V30 17 C -0.3943 3.2672 0.8532 0
M  V30 18 O -0.9883 4.1449 1.458 0
M  V30 19 O 0.7219 2.7121 1.3749 0
M  V30 20 H 3.9998 -2.417 1.7144 0
M  V30 21 H 0.9012 0.9194 0.6201 0
M  V30 22 H 4.0006 -3.9194 -0.2537 0
M  V30 23 H 2.4313 -3.5072 -2.119 0
M  V30 24 H -1.13 -1.9758 0.177 0
M  V30 25 H -3.454 2.3147 -0.672 0
M  V30 26 H 0.1203 2.5573 -1.095 0
M  V30 27 H -1.3843 3.4222 -1.0087 0
M  V30 28 H -3.5668 -1.9292 -0.1071 0
M  V30 29 H -4.7381 0.2188 -0.5163 0
M  V30 30 H 0.8249 3.1681 2.2387 0
M  V30 END ATOM
M  V30 BEGIN BOND
M  V30 1 1 1 2
M  V30 2 2 2 3
M  V30 3 1 2 4
M  V30 4 1 3 5
M  V30 5 1 3 6
M  V30 6 2 4 7
M  V30 7 1 5 8
M  V30 8 1 6 9
M  V30 9 2 6 10
M  V30 10 2 8 11
M  V30 11 1 8 12
M  V30 12 1 11 13
M  V30 13 1 11 14
M  V30 14 2 12 15
M  V30 15 2 13 16
M  V30 16 1 14 17
M  V30 17 2 17 18
M  V30 18 1 17 19
M  V30 19 1 7 10
M  V30 20 1 15 16
M  V30 21 1 4 20
M  V30 22 1 5 21
M  V30 23 1 7 22
M  V30 24 1 10 23
M  V30 25 1 12 24
M  V30 26 1 13 25
M  V30 27 1 14 26
M  V30 28 1 14 27
M  V30 29 1 15 28
M  V30 30 1 16 29
M  V30 31 1 19 30
M  V30 END BOND
M  V30 END CTAB
M  END
>  <Column 1>
76

>  <level_0>
82

>  <index>
82

>  <Unnamed: 0>
82

>  <NO.>
83

>  <Name>
diclofenac

>  <IUPAC_name>
2-[2-(2-6-dichloroanilino)phenyl]acetic acid

>  <SMILES>
O=C(O)Cc1ccccc1Nc1c(Cl)cccc1Cl

>  <CID>
3033

>  <logBB>
-1.3

>  <BBB+/BBB->
BBB-

>  <Inchi>
InChI=1S/C14H11Cl2NO2/c15-10-5-3-6-11(16)14(10)17-12-7-2-1-4-9(12)8-13(18)19/h1-7-17H-8H2-(H-18-19)

>  <threshold>


>  <reference>
R18|R26|R27|

>  <group>
A

>  <Class>
-1

>  <ABC>
14.46

>  <ABCGG>
12.49

>  <nAcid>
1

>  <nBase>
0

>  <nAromAtom>
12

>  <nAromBond>
12

>  <nAtom>
30

>  <nHeavyAtom>
19

>  <nSpiro>
0

>  <nBridgehead>
0

>  <nHetero>
5

>  <nN>
1

>  <nO>
2

>  <nF>
0

>  <BalabanJ>
1.94

>  <BertzCT>
593.9

>  <nBonds>
31

>  <nBondsO>
20

>  <nBondsS>
18

>  <nBondsD>
1

>  <nBondsT>
0

>  <nBondsA>
12

>  <nBondsM>
13

>  <nBondsKS>
24

>  <nBondsKD>
7

>  <RNCG>
0.3

>  <RPCG>
0.19

>  <FCSP3>
0.07

>  <SZ>
25.33

>  <Sm>
24.66

>  <Sv>
21.35

>  <Sse>
30.74

>  <Sp>
22.62

>  <Si>
33.3

>  <MZ>
0.84

>  <Mm>
0.82

>  <Mv>
0.71

>  <Mse>
1.02

>  <Mp>
0.75

>  <Mi>
1.11

>  <NsCH3>
0

>  <NdCH2>
0

>  <NssCH2>
1

>  <NtCH>
0

>  <NdsCH>
0

>  <NaaCH>
7

>  <NsssCH>
0

>  <NddC>
0

>  <NtsC>
0

>  <NdssC>
1

>  <NaasC>
5

>  <NaaaC>
0

>  <NssssC>
0

>  <NsNH3>
0

>  <NsNH2>
0

>  <NssNH2>
0

>  <NdNH>
0

>  <NssNH>
1

>  <NaaNH>
0

>  <NtN>
0

>  <NsssNH>
0

>  <NdsN>
0

>  <NaaN>
0

>  <NsssN>
0

>  <NddsN>
0

>  <NaasN>
0

>  <NssssN>
0

>  <NsOH>
1

>  <NdO>
1

>  <NssO>
0

>  <NaaO>
0

>  <NsF>
0

>  <NsSiH3>
0

>  <NssSiH2>
0

>  <NsssSiH>
0

>  <NssssSi>
0

>  <NsPH2>
0

>  <NssPH>
0

>  <NsssP>
0

>  <NdsssP>
0

>  <NsssssP>
0

>  <NsSH>
0

>  <NdS>
0

>  <NssS>
0

>  <NaaS>
0

>  <NdssS>
0

>  <NddssS>
0

>  <NsCl>
2

>  <NsBr>
0

>  <NsI>
0

>  <fragCpx>
58.05

>  <fMF>
0.43

>  <nHBAcc>
2

>  <nHBDon>
2

>  <Kier1>
15.39

>  <Kier2>
7.14

>  <Lipinski>
1

>  <GhoseFilter>
1

>  <FilterItLogS>
-4.91

>  <VMcGowan>
202.5

>  <LabuteASA>
120.33

>  <PEOE_VSA1>
10.42

>  <PEOE_VSA2>
4.79

>  <PEOE_VSA3>
0

>  <PEOE_VSA4>
0

>  <PEOE_VSA5>
0

>  <PEOE_VSA6>
47.47

>  <PEOE_VSA7>
23.76

>  <PEOE_VSA8>
5.69

>  <PEOE_VSA9>
22.15

>  <PEOE_VSA10>
0

>  <PEOE_VSA11>
0

>  <PEOE_VSA12>
0

>  <PEOE_VSA13>
0

>  <SMR_VSA1>
9.9

>  <SMR_VSA2>
0

>  <SMR_VSA3>
0

>  <SMR_VSA4>
0

>  <SMR_VSA5>
6.42

>  <SMR_VSA6>
5.32

>  <SMR_VSA7>
58.07

>  <SMR_VSA8>
0

>  <SMR_VSA9>
0

>  <SlogP_VSA1>
5.32

>  <SlogP_VSA2>
11.08

>  <SlogP_VSA3>
11.22

>  <SlogP_VSA4>
0

>  <SlogP_VSA5>
5.56

>  <SlogP_VSA6>
42.46

>  <SlogP_VSA7>
10.05

>  <SlogP_VSA8>
0

>  <SlogP_VSA9>
0

>  <SlogP_VSA10>
11.37

>  <SlogP_VSA11>
0

>  <EState_VSA1>
5.97

>  <EState_VSA2>
6.42

>  <EState_VSA3>
26.98

>  <EState_VSA4>
0

>  <EState_VSA5>
0

>  <EState_VSA6>
36.4

>  <EState_VSA7>
6.07

>  <EState_VSA8>
5.32

>  <EState_VSA9>
28.31

>  <EState_VSA10>
4.79

>  <VSA_EState1>
0

>  <VSA_EState2>
10.83

>  <VSA_EState3>
12.94

>  <VSA_EState4>
1.93

>  <VSA_EState5>
-0.89

>  <VSA_EState6>
12.33

>  <VSA_EState7>
-0.06

>  <VSA_EState8>
0

>  <VSA_EState9>
0

>  <apol>
37.78

>  <bpol>
13.49

>  <nRing>
2

>  <nHRing>
0

>  <naRing>
2

>  <naHRing>
0

>  <nARing 2>
0

>  <nAHRing 2>
0

>  <nFRing>
0

>  <nFHRing>
0

>  <nFaRing>
0

>  <nFaHRing>
0

>  <nFARing 2>
0

>  <nFAHRing 2>
0

>  <nRot>
4

>  <SLogP>
4.36

>  <SMR>
77.53

>  <TopoPSA(NO)>
49.33

>  <TopoPSA>
49.33

>  <JGI1>
0.2

>  <JGI2>
0.08

>  <JGI3>
0.04

>  <JGI4>
0.05

>  <JGI5>
0.02

>  <Diameter>
9

>  <Radius>
5

>  <TMWC10>
110.43

>  <TSRW10>
51.98

>  <MW>
295.02

>  <AMW>
9.83

>  <WPath>
706

>  <WPol>
27

>  <Zagreb1>
94

>  <Zagreb2>
107

>  <mZagreb2>
4.25

>  <yes>


>  <nAR-cont>
0.336376

>  <nHA-cont>
0.998649058

>  <MWHBN>
0.23288111

>  <MWHBN-cont>
0.98373122

>  <TPSA-cont>
0.655645968

>  <pka_cont>
0.97

>  <yes.1>


>  <BBB_SCORE>
4.606913823

>  <MMFF94 Energy>
52.337

$$$$
Compound 59
Actelion Java MolfileCreator 2.0

  0  0  0  0  0  0              0 V3000
M  V30 BEGIN CTAB
M  V30 COUNTS 36 39 0 0 0
M  V30 BEGIN ATOM
M  V30 1 Cl -4.1632 -2.284 -0.326 0
M  V30 2 C -2.526 -1.8524 -0.6286 0
M  V30 3 C -2.0874 -0.5611 -0.3416 0
M  V30 4 C -1.654 -2.7929 -1.1705 0
M  V30 5 C -0.7508 -0.2015 -0.5787 0
M  V30 6 C -0.3277 -2.4435 -1.4298 0
M  V30 7 C -0.3376 1.2024 -0.2567 0
M  V30 8 C 0.1291 -1.153 -1.1223 0
M  V30 9 N 0.3495 1.9644 -1.0418 0
M  V30 10 C -0.7526 1.7767 1.0628 0
M  V30 11 N 1.4553 -0.7987 -1.4486 0
M  V30 12 C 0.853 1.4619 -2.3195 0
M  V30 13 C -1.0921 3.1326 1.139 0
M  V30 14 C -0.7753 0.9881 2.2203 0
M  V30 15 C 1.8196 0.364 -2.0858 0
M  V30 16 C 2.6345 -1.4969 -1.2754 0
M  V30 17 C -1.482 3.6886 2.3583 0
M  V30 18 C -1.1662 1.5492 3.4379 0
M  V30 19 N 3.0943 0.3127 -2.4066 0
M  V30 20 N 3.6046 -0.8548 -1.9009 0
M  V30 21 C 2.8112 -2.7442 -0.4956 0
M  V30 22 C -1.5232 2.896 3.505 0
M  V30 23 O 2.0979 -2.6241 0.7296 0
M  V30 24 H -2.7936 0.1645 0.0564 0
M  V30 25 H -2.0047 -3.7946 -1.4079 0
M  V30 26 H 0.3204 -3.1818 -1.8945 0
M  V30 27 H 1.3604 2.2856 -2.8338 0
M  V30 28 H 0.0318 1.1475 -2.9743 0
M  V30 29 H -1.0517 3.7589 0.2507 0
M  V30 30 H -0.473 -0.0553 2.1957 0
M  V30 31 H -1.7459 4.7418 2.4139 0
M  V30 32 H -1.182 0.9389 4.3375 0
M  V30 33 H 2.4494 -3.6184 -1.0427 0
M  V30 34 H 3.8714 -2.8929 -0.265 0
M  V30 35 H -1.8218 3.3324 4.4552 0
M  V30 36 H 2.474 -3.2878 1.333 0
M  V30 END ATOM
M  V30 BEGIN BOND
M  V30 1 1 1 2
M  V30 2 2 2 3
M  V30 3 1 2 4
M  V30 4 1 3 5
M  V30 5 2 4 6
M  V30 6 1 5 7
M  V30 7 2 5 8
M  V30 8 2 7 9
M  V30 9 1 7 10
M  V30 10 1 8 11
M  V30 11 1 9 12
M  V30 12 2 10 13
M  V30 13 1 10 14
M  V30 14 1 11 15
M  V30 15 1 11 16
M  V30 16 1 13 17
M  V30 17 2 14 18
M  V30 18 2 15 19
M  V30 19 2 16 20
M  V30 20 1 16 21
M  V30 21 2 17 22
M  V30 22 1 21 23
M  V30 23 1 6 8
M  V30 24 1 12 15
M  V30 25 1 18 22
M  V30 26 1 19 20
M  V30 27 1 3 24
M  V30 28 1 4 25
M  V30 29 1 6 26
M  V30 30 1 12 27
M  V30 31 1 12 28
M  V30 32 1 13 29
M  V30 33 1 14 30
M  V30 34 1 17 31
M  V30 35 1 18 32
M  V30 36 1 21 33
M  V30 37 1 21 34
M  V30 38 1 22 35
M  V30 39 1 23 36
M  V30 END BOND
M  V30 END CTAB
M  END
>  <Column 1>
77

>  <level_0>
85

>  <index>
85

>  <Unnamed: 0>
85

>  <NO.>
86

>  <Name>
Œ±-hydroxyalprazolam (alpha-hydroxyalprazolam)

>  <IUPAC_name>
(8-chloro-6-phenyl-4h-[1-2-4]triazolo[4-3-a][1-4]benzodiazepin-1-yl)methanol

>  <SMILES>
OCc1nnc2n1-c1ccc(Cl)cc1C(c1ccccc1)=NC2

>  <CID>
162244

>  <logBB>
-1.3

>  <BBB+/BBB->
BBB-

>  <Inchi>
InChI=1S/C17H13ClN4O/c18-12-6-7-14-13(8-12)17(11-4-2-1-3-5-11)19-9-15-20-21-16(10-23)22(14)15/h1-8-23H-9-10H2

>  <threshold>


>  <reference>
R5|R8|R21|R27|R2|R2|R12|R25|R35|R40|R46|R47|R43|

>  <group>
A

>  <Class>
-1

>  <ABC>
18.25

>  <ABCGG>
14.81

>  <nAcid>
0

>  <nBase>
0

>  <nAromAtom>
17

>  <nAromBond>
17

>  <nAtom>
36

>  <nHeavyAtom>
23

>  <nSpiro>
0

>  <nBridgehead>
0

>  <nHetero>
6

>  <nN>
4

>  <nO>
1

>  <nF>
0

>  <BalabanJ>
1.59

>  <BertzCT>
902.21

>  <nBonds>
39

>  <nBondsO>
26

>  <nBondsS>
21

>  <nBondsD>
1

>  <nBondsT>
0

>  <nBondsA>
17

>  <nBondsM>
18

>  <nBondsKS>
30

>  <nBondsKD>
9

>  <RNCG>
0.23

>  <RPCG>
0.12

>  <FCSP3>
0.12

>  <SZ>
28

>  <Sm>
27.04

>  <Sv>
25.36

>  <Sse>
36.52

>  <Sp>
26.61

>  <Si>
40.22

>  <MZ>
0.78

>  <Mm>
0.75

>  <Mv>
0.7

>  <Mse>
1.01

>  <Mp>
0.74

>  <Mi>
1.12

>  <NsCH3>
0

>  <NdCH2>
0

>  <NssCH2>
2

>  <NtCH>
0

>  <NdsCH>
0

>  <NaaCH>
8

>  <NsssCH>
0

>  <NddC>
0

>  <NtsC>
0

>  <NdssC>
1

>  <NaasC>
6

>  <NaaaC>
0

>  <NssssC>
0

>  <NsNH3>
0

>  <NsNH2>
0

>  <NssNH2>
0

>  <NdNH>
0

>  <NssNH>
0

>  <NaaNH>
0

>  <NtN>
0

>  <NsssNH>
0

>  <NdsN>
1

>  <NaaN>
2

>  <NsssN>
0

>  <NddsN>
0

>  <NaasN>
1

>  <NssssN>
0

>  <NsOH>
1

>  <NdO>
0

>  <NssO>
0

>  <NaaO>
0

>  <NsF>
0

>  <NsSiH3>
0

>  <NssSiH2>
0

>  <NsssSiH>
0

>  <NssssSi>
0

>  <NsPH2>
0

>  <NssPH>
0

>  <NsssP>
0

>  <NdsssP>
0

>  <NsssssP>
0

>  <NsSH>
0

>  <NdS>
0

>  <NssS>
0

>  <NaaS>
0

>  <NdssS>
0

>  <NddssS>
0

>  <NsCl>
1

>  <NsBr>
0

>  <NsI>
0

>  <fragCpx>
170.06

>  <fMF>
0.56

>  <nHBAcc>
5

>  <nHBDon>
1

>  <Kier1>
16.47

>  <Kier2>
7.09

>  <Lipinski>
1

>  <GhoseFilter>
1

>  <FilterItLogS>
-4.87

>  <VMcGowan>
226.28

>  <LabuteASA>
137.45

>  <PEOE_VSA1>
5.11

>  <PEOE_VSA2>
9.56

>  <PEOE_VSA3>
0

>  <PEOE_VSA4>
0

>  <PEOE_VSA5>
10.2

>  <PEOE_VSA6>
41.93

>  <PEOE_VSA7>
18.2

>  <PEOE_VSA8>
16.15

>  <PEOE_VSA9>
11.4

>  <PEOE_VSA10>
13.15

>  <PEOE_VSA11>
11.65

>  <PEOE_VSA12>
0

>  <PEOE_VSA13>
0

>  <SMR_VSA1>
5.11

>  <SMR_VSA2>
0

>  <SMR_VSA3>
14.76

>  <SMR_VSA4>
4.99

>  <SMR_VSA5>
13.15

>  <SMR_VSA6>
0

>  <SMR_VSA7>
76.33

>  <SMR_VSA8>
0

>  <SMR_VSA9>
5.69

>  <SlogP_VSA1>
0

>  <SlogP_VSA2>
25.58

>  <SlogP_VSA3>
13.15

>  <SlogP_VSA4>
0

>  <SlogP_VSA5>
22.78

>  <SlogP_VSA6>
53.52

>  <SlogP_VSA7>
5.02

>  <SlogP_VSA8>
5.69

>  <SlogP_VSA9>
0

>  <SlogP_VSA10>
0

>  <SlogP_VSA11>
0

>  <EState_VSA1>
0

>  <EState_VSA2>
6.61

>  <EState_VSA3>
23.22

>  <EState_VSA4>
22.53

>  <EState_VSA5>
0

>  <EState_VSA6>
0

>  <EState_VSA7>
53.1

>  <EState_VSA8>
10.2

>  <EState_VSA9>
16.59

>  <EState_VSA10>
5.11

>  <VSA_EState1>
1.85

>  <VSA_EState2>
4.72

>  <VSA_EState3>
18.37

>  <VSA_EState4>
3.65

>  <VSA_EState5>
1.19

>  <VSA_EState6>
15.58

>  <VSA_EState7>
0

>  <VSA_EState8>
0.21

>  <VSA_EState9>
0

>  <apol>
44.44

>  <bpol>
17.54

>  <nRing>
4

>  <nHRing>
2

>  <naRing>
3

>  <naHRing>
1

>  <nARing 2>
1

>  <nAHRing 2>
1

>  <nFRing>
1

>  <nFHRing>
1

>  <nFaRing>
0

>  <nFaHRing>
0

>  <nFARing 2>
1

>  <nFAHRing 2>
1

>  <nRot>
2

>  <SLogP>
2.76

>  <SMR>
88.08

>  <TopoPSA(NO)>
63.3

>  <TopoPSA>
63.3

>  <JGI1>
0.13

>  <JGI2>
0.07

>  <JGI3>
0.04

>  <JGI4>
0.03

>  <JGI5>
0.02

>  <Diameter>
10

>  <Radius>
5

>  <TMWC10>
125.17

>  <TSRW10>
72.02

>  <MW>
324.08

>  <AMW>
9

>  <WPath>
1052

>  <WPol>
42

>  <Zagreb1>
126

>  <Zagreb2>
153

>  <mZagreb2>
5.08

>  <yes>


>  <nAR-cont>
0.816016

>  <nHA-cont>
0.967789328

>  <MWHBN>
0.333292189

>  <MWHBN-cont>
0.731230056

>  <TPSA-cont>
0.558126693

>  <pka_cont>
0.97

>  <yes.1>


>  <BBB_SCORE>
4.481903798

>  <MMFF94 Energy>
89.196

$$$$
Compound 60
Actelion Java MolfileCreator 2.0

  0  0  0  0  0  0              0 V3000
M  V30 BEGIN CTAB
M  V30 COUNTS 43 45 0 0 0
M  V30 BEGIN ATOM
M  V30 1 Cl 5.8923 -2.4183 -2.3376 0
M  V30 2 C 4.8271 -1.3982 -1.4518 0
M  V30 3 C 5.0068 -0.0148 -1.4858 0
M  V30 4 C 3.7961 -1.9627 -0.6993 0
M  V30 5 C 4.1419 0.8144 -0.7683 0
M  V30 6 C 2.9295 -1.1368 0.0202 0
M  V30 7 C 3.0898 0.2536 -0.0353 0
M  V30 8 C 2.2111 1.1475 0.7475 0
M  V30 9 O 2.7613 1.9173 1.5351 0
M  V30 10 N 0.8354 1.055 0.6276 0
M  V30 11 C 0.0314 0.427 -0.3388 0
M  V30 12 C -0.059 1.6871 1.6209 0
M  V30 13 C -1.2806 0.3308 0.1364 0
M  V30 14 C 0.3431 0.0263 -1.6243 0
M  V30 15 C -1.3931 0.8938 1.5347 0
M  V30 16 C -0.2621 3.1733 1.3038 0
M  V30 17 C -2.2972 -0.209 -0.6443 0
M  V30 18 C -0.6721 -0.5296 -2.4109 0
M  V30 19 C -1.4344 -0.2133 2.5951 0
M  V30 20 C -1.9862 -0.6537 -1.9298 0
M  V30 21 C -2.7921 -0.8494 2.7058 0
M  V30 22 O -2.8648 -1.21 -2.8191 0
M  V30 23 O -3.8552 -0.4025 2.3111 0
M  V30 24 O -2.7449 -2.0229 3.366 0
M  V30 25 C -4.2142 -1.3448 -2.3893 0
M  V30 26 H 5.82 0.4217 -2.0597 0
M  V30 27 H 3.667 -3.0414 -0.6643 0
M  V30 28 H 4.2883 1.8924 -0.776 0
M  V30 29 H 2.1379 -1.5781 0.6207 0
M  V30 30 H 0.3958 1.613 2.6164 0
M  V30 31 H 1.329 0.152 -2.0537 0
M  V30 32 H -2.2566 1.5632 1.6223 0
M  V30 33 H 0.6894 3.7138 1.3343 0
M  V30 34 H -0.9346 3.6333 2.0352 0
M  V30 35 H -0.6903 3.3212 0.3064 0
M  V30 36 H -3.3043 -0.2576 -0.2463 0
M  V30 37 H -0.444 -0.8567 -3.4233 0
M  V30 38 H -0.6976 -0.9945 2.3722 0
M  V30 39 H -1.2073 0.2064 3.5821 0
M  V30 40 H -3.6766 -2.3261 3.3965 0
M  V30 41 H -4.2875 -2.0054 -1.5191 0
M  V30 42 H -4.78 -1.805 -3.205 0
M  V30 43 H -4.6623 -0.367 -2.1837 0
M  V30 END ATOM
M  V30 BEGIN BOND
M  V30 1 1 1 2
M  V30 2 2 2 3
M  V30 3 1 2 4
M  V30 4 1 3 5
M  V30 5 2 4 6
M  V30 6 2 5 7
M  V30 7 1 7 8
M  V30 8 2 8 9
M  V30 9 1 8 10
M  V30 10 1 10 11
M  V30 11 1 10 12
M  V30 12 2 11 13
M  V30 13 1 11 14
M  V30 14 1 12 15
M  V30 15 1 12 16
M  V30 16 1 13 17
M  V30 17 2 14 18
M  V30 18 1 15 19
M  V30 19 2 17 20
M  V30 20 1 19 21
M  V30 21 1 20 22
M  V30 22 2 21 23
M  V30 23 1 21 24
M  V30 24 1 22 25
M  V30 25 1 6 7
M  V30 26 1 13 15
M  V30 27 1 18 20
M  V30 28 1 3 26
M  V30 29 1 4 27
M  V30 30 1 5 28
M  V30 31 1 6 29
M  V30 32 1 12 30
M  V30 33 1 14 31
M  V30 34 1 15 32
M  V30 35 1 16 33
M  V30 36 1 16 34
M  V30 37 1 16 35
M  V30 38 1 17 36
M  V30 39 1 18 37
M  V30 40 1 19 38
M  V30 41 1 19 39
M  V30 42 1 24 40
M  V30 43 1 25 41
M  V30 44 1 25 42
M  V30 45 1 25 43
M  V30 END BOND
M  V30 END CTAB
M  END
>  <Column 1>
78

>  <level_0>
86

>  <index>
86

>  <Unnamed: 0>
86

>  <NO.>
87

>  <Name>
schembl13579049

>  <IUPAC_name>
2-[1-(4-chlorobenzoyl)-5-methoxy-2-methyl-2-3-dihydroindol-3-yl]acetic acid

>  <SMILES>
COc1ccc2c(c1)C(CC(=O)O)C(C)N2C(=O)c1ccc(Cl)cc1

>  <CID>
53394319

>  <logBB>
-1.26

>  <BBB+/BBB->
BBB-

>  <Inchi>
InChI=1S/C19H18ClNO4/c1-11-15(10-18(22)23)16-9-14(25-2)7-8-17(16)21(11)19(24)12-3-5-13(20)6-4-12/h3-9-11-15H-10H2-1-2H3-(H-22-23)

>  <threshold>


>  <reference>
R2|R2|R8|

>  <group>
A

>  <Class>
-1

>  <ABC>
19.36

>  <ABCGG>
16.15

>  <nAcid>
1

>  <nBase>
0

>  <nAromAtom>
12

>  <nAromBond>
12

>  <nAtom>
43

>  <nHeavyAtom>
25

>  <nSpiro>
0

>  <nBridgehead>
0

>  <nHetero>
6

>  <nN>
1

>  <nO>
4

>  <nF>
0

>  <BalabanJ>
1.76

>  <BertzCT>
818.67

>  <nBonds>
45

>  <nBondsO>
27

>  <nBondsS>
31

>  <nBondsD>
2

>  <nBondsT>
0

>  <nBondsA>
12

>  <nBondsM>
14

>  <nBondsKS>
37

>  <nBondsKD>
8

>  <RNCG>
0.23

>  <RPCG>
0.14

>  <FCSP3>
0.26

>  <SZ>
31.33

>  <Sm>
29.96

>  <Sv>
28.58

>  <Sse>
43.74

>  <Sp>
30.07

>  <Si>
48.02

>  <MZ>
0.73

>  <Mm>
0.7

>  <Mv>
0.66

>  <Mse>
1.02

>  <Mp>
0.7

>  <Mi>
1.12

>  <NsCH3>
2

>  <NdCH2>
0

>  <NssCH2>
1

>  <NtCH>
0

>  <NdsCH>
0

>  <NaaCH>
7

>  <NsssCH>
2

>  <NddC>
0

>  <NtsC>
0

>  <NdssC>
2

>  <NaasC>
5

>  <NaaaC>
0

>  <NssssC>
0

>  <NsNH3>
0

>  <NsNH2>
0

>  <NssNH2>
0

>  <NdNH>
0

>  <NssNH>
0

>  <NaaNH>
0

>  <NtN>
0

>  <NsssNH>
0

>  <NdsN>
0

>  <NaaN>
0

>  <NsssN>
1

>  <NddsN>
0

>  <NaasN>
0

>  <NssssN>
0

>  <NsOH>
1

>  <NdO>
2

>  <NssO>
1

>  <NaaO>
0

>  <NsF>
0

>  <NsSiH3>
0

>  <NssSiH2>
0

>  <NsssSiH>
0

>  <NssssSi>
0

>  <NsPH2>
0

>  <NssPH>
0

>  <NsssP>
0

>  <NdsssP>
0

>  <NsssssP>
0

>  <NsSH>
0

>  <NdS>
0

>  <NssS>
0

>  <NaaS>
0

>  <NdssS>
0

>  <NddssS>
0

>  <NsCl>
1

>  <NsBr>
0

>  <NsI>
0

>  <fragCpx>
129.06

>  <fMF>
0.37

>  <nHBAcc>
3

>  <nHBDon>
1

>  <Kier1>
19.75

>  <Kier2>
8.35

>  <Lipinski>
1

>  <GhoseFilter>
1

>  <FilterItLogS>
-4.09

>  <VMcGowan>
257.29

>  <LabuteASA>
150.33

>  <PEOE_VSA1>
14.74

>  <PEOE_VSA2>
9.59

>  <PEOE_VSA3>
0

>  <PEOE_VSA4>
0

>  <PEOE_VSA5>
0

>  <PEOE_VSA6>
11.6

>  <PEOE_VSA7>
54.95

>  <PEOE_VSA8>
28.23

>  <PEOE_VSA9>
13.53

>  <PEOE_VSA10>
5.75

>  <PEOE_VSA11>
0

>  <PEOE_VSA12>
0

>  <PEOE_VSA13>
5.91

>  <SMR_VSA1>
19.43

>  <SMR_VSA2>
0

>  <SMR_VSA3>
0

>  <SMR_VSA4>
0

>  <SMR_VSA5>
25.3

>  <SMR_VSA6>
12.01

>  <SMR_VSA7>
58.61

>  <SMR_VSA8>
0

>  <SMR_VSA9>
5.75

>  <SlogP_VSA1>
9.64

>  <SlogP_VSA2>
30.13

>  <SlogP_VSA3>
4.79

>  <SlogP_VSA4>
0

>  <SlogP_VSA5>
35.18

>  <SlogP_VSA6>
42.46

>  <SlogP_VSA7>
5.02

>  <SlogP_VSA8>
0

>  <SlogP_VSA9>
0

>  <SlogP_VSA10>
5.69

>  <SlogP_VSA11>
5.75

>  <EState_VSA1>
5.97

>  <EState_VSA2>
24.29

>  <EState_VSA3>
16.34

>  <EState_VSA4>
11.25

>  <EState_VSA5>
0

>  <EState_VSA6>
48.41

>  <EState_VSA7>
12.99

>  <EState_VSA8>
0

>  <EState_VSA9>
16.34

>  <EState_VSA10>
14.7

>  <VSA_EState1>
5.26

>  <VSA_EState2>
25.98

>  <VSA_EState3>
9.82

>  <VSA_EState4>
2.05

>  <VSA_EState5>
-0.73

>  <VSA_EState6>
11.79

>  <VSA_EState7>
-0.05

>  <VSA_EState8>
1.87

>  <VSA_EState9>
1.56

>  <apol>
50.22

>  <bpol>
23.75

>  <nRing>
3

>  <nHRing>
1

>  <naRing>
2

>  <naHRing>
0

>  <nARing 2>
1

>  <nAHRing 2>
1

>  <nFRing>
1

>  <nFHRing>
1

>  <nFaRing>
0

>  <nFaHRing>
0

>  <nFARing 2>
1

>  <nFAHRing 2>
1

>  <nRot>
4

>  <SLogP>
3.96

>  <SMR>
95.71

>  <TopoPSA(NO)>
66.84

>  <TopoPSA>
66.84

>  <JGI1>
0.2

>  <JGI2>
0.08

>  <JGI3>
0.06

>  <JGI4>
0.05

>  <JGI5>
0.03

>  <Diameter>
12

>  <Radius>
6

>  <TMWC10>
128.5

>  <TSRW10>
74.56

>  <MW>
359.09

>  <AMW>
8.35

>  <WPath>
1424

>  <WPol>
42

>  <Zagreb1>
132

>  <Zagreb2>
158

>  <mZagreb2>
5.53

>  <yes>


>  <nAR-cont>
0.816016

>  <nHA-cont>
0.921834225

>  <MWHBN>
0.211085468

>  <MWHBN-cont>
0.999036853

>  <TPSA-cont>
0.533415295

>  <pka_cont>
0.97

>  <yes.1>


>  <BBB_SCORE>
4.788236095

>  <MMFF94 Energy>
30.506

$$$$
Compound 61
Actelion Java MolfileCreator 2.0

  0  0  0  0  0  0              0 V3000
M  V30 BEGIN CTAB
M  V30 COUNTS 25 26 0 0 0
M  V30 BEGIN ATOM
M  V30 1 O 4.7802 -0.3181 1.7507 0
M  V30 2 C 3.9309 -1.098 1.3611 0
M  V30 3 O 4.1626 -2.4223 1.3287 0
M  V30 4 C 2.574 -0.7383 0.8839 0
M  V30 5 C 1.6592 -1.7012 0.4472 0
M  V30 6 C 2.2091 0.6115 0.8747 0
M  V30 7 C 0.3891 -1.3126 0.0056 0
M  V30 8 C 0.9384 0.9939 0.4312 0
M  V30 9 C 0.0069 0.0395 -0.0103 0
M  V30 10 C -1.3297 0.444 -0.4763 0
M  V30 11 C -1.4834 1.4107 -1.4842 0
M  V30 12 C -2.4911 -0.1247 0.073 0
M  V30 13 C -2.752 1.7948 -1.9277 0
M  V30 14 C -3.7604 0.259 -0.3684 0
M  V30 15 C -3.8899 1.2187 -1.369 0
M  V30 16 H 5.0792 -2.507 1.6655 0
M  V30 17 H 1.9217 -2.7562 0.4423 0
M  V30 18 H 2.9091 1.3723 1.2145 0
M  V30 19 H -0.3026 -2.0786 -0.3408 0
M  V30 20 H 0.6738 2.0499 0.4445 0
M  V30 21 H -0.6079 1.866 -1.9427 0
M  V30 22 H -2.414 -0.8678 0.8642 0
M  V30 23 H -2.8491 2.542 -2.7109 0
M  V30 24 H -4.6465 -0.1903 0.0722 0
M  V30 25 H -4.8766 1.5174 -1.7129 0
M  V30 END ATOM
M  V30 BEGIN BOND
M  V30 1 2 1 2
M  V30 2 1 2 3
M  V30 3 1 2 4
M  V30 4 2 4 5
M  V30 5 1 4 6
M  V30 6 1 5 7
M  V30 7 2 6 8
M  V30 8 2 7 9
M  V30 9 1 9 10
M  V30 10 2 10 11
M  V30 11 1 10 12
M  V30 12 1 11 13
M  V30 13 2 12 14
M  V30 14 2 13 15
M  V30 15 1 8 9
M  V30 16 1 14 15
M  V30 17 1 3 16
M  V30 18 1 5 17
M  V30 19 1 6 18
M  V30 20 1 7 19
M  V30 21 1 8 20
M  V30 22 1 11 21
M  V30 23 1 12 22
M  V30 24 1 13 23
M  V30 25 1 14 24
M  V30 26 1 15 25
M  V30 END BOND
M  V30 END CTAB
M  END
>  <Column 1>
79

>  <level_0>
88

>  <index>
88

>  <Unnamed: 0>
88

>  <NO.>
89

>  <Name>
p-phenylbenzoic acid

>  <IUPAC_name>
4-phenylbenzoic acid

>  <SMILES>
O=C(O)c1ccc(-c2ccccc2)cc1

>  <CID>
66724

>  <logBB>
-1.26

>  <BBB+/BBB->
BBB-

>  <Inchi>
InChI=1S/C13H10O2/c14-13(15)12-8-6-11(7-9-12)10-4-2-1-3-5-10/h1-9H-(H-14-15)

>  <threshold>


>  <reference>
R2|R2|R8|R21|R25|R27|R41|R43|R46|R47|R40|R3|R38|

>  <group>
A

>  <Class>
-1

>  <ABC>
11.45

>  <ABCGG>
9.57

>  <nAcid>
1

>  <nBase>
0

>  <nAromAtom>
12

>  <nAromBond>
12

>  <nAtom>
25

>  <nHeavyAtom>
15

>  <nSpiro>
0

>  <nBridgehead>
0

>  <nHetero>
2

>  <nN>
0

>  <nO>
2

>  <nF>
0

>  <BalabanJ>
1.77

>  <BertzCT>
457.65

>  <nBonds>
26

>  <nBondsO>
16

>  <nBondsS>
13

>  <nBondsD>
1

>  <nBondsT>
0

>  <nBondsA>
12

>  <nBondsM>
13

>  <nBondsKS>
19

>  <nBondsKD>
7

>  <RNCG>
0.38

>  <RPCG>
0.27

>  <FCSP3>
0

>  <SZ>
17.33

>  <Sm>
16.5

>  <Sv>
17.14

>  <Sse>
25.1

>  <Sp>
17.95

>  <Si>
27.5

>  <MZ>
0.69

>  <Mm>
0.66

>  <Mv>
0.69

>  <Mse>
1

>  <Mp>
0.72

>  <Mi>
1.1

>  <NsCH3>
0

>  <NdCH2>
0

>  <NssCH2>
0

>  <NtCH>
0

>  <NdsCH>
0

>  <NaaCH>
9

>  <NsssCH>
0

>  <NddC>
0

>  <NtsC>
0

>  <NdssC>
1

>  <NaasC>
3

>  <NaaaC>
0

>  <NssssC>
0

>  <NsNH3>
0

>  <NsNH2>
0

>  <NssNH2>
0

>  <NdNH>
0

>  <NssNH>
0

>  <NaaNH>
0

>  <NtN>
0

>  <NsssNH>
0

>  <NdsN>
0

>  <NaaN>
0

>  <NsssN>
0

>  <NddsN>
0

>  <NaasN>
0

>  <NssssN>
0

>  <NsOH>
1

>  <NdO>
1

>  <NssO>
0

>  <NaaO>
0

>  <NsF>
0

>  <NsSiH3>
0

>  <NssSiH2>
0

>  <NsssSiH>
0

>  <NssssSi>
0

>  <NsPH2>
0

>  <NssPH>
0

>  <NsssP>
0

>  <NdsssP>
0

>  <NsssssP>
0

>  <NsSH>
0

>  <NdS>
0

>  <NssS>
0

>  <NaaS>
0

>  <NdssS>
0

>  <NddssS>
0

>  <NsCl>
0

>  <NsBr>
0

>  <NsI>
0

>  <fragCpx>
46.02

>  <fMF>
0.48

>  <nHBAcc>
1

>  <nHBDon>
1

>  <Kier1>
11.48

>  <Kier2>
5.37

>  <Lipinski>
1

>  <GhoseFilter>
1

>  <FilterItLogS>
-2.93

>  <VMcGowan>
153.95

>  <LabuteASA>
87.81

>  <PEOE_VSA1>
5.11

>  <PEOE_VSA2>
0

>  <PEOE_VSA3>
4.79

>  <PEOE_VSA4>
0

>  <PEOE_VSA5>
0

>  <PEOE_VSA6>
42.46

>  <PEOE_VSA7>
23.26

>  <PEOE_VSA8>
0

>  <PEOE_VSA9>
5.56

>  <PEOE_VSA10>
0

>  <PEOE_VSA11>
0

>  <PEOE_VSA12>
0

>  <PEOE_VSA13>
0

>  <SMR_VSA1>
9.9

>  <SMR_VSA2>
0

>  <SMR_VSA3>
0

>  <SMR_VSA4>
0

>  <SMR_VSA5>
0

>  <SMR_VSA6>
0

>  <SMR_VSA7>
60.16

>  <SMR_VSA8>
0

>  <SMR_VSA9>
11.13

>  <SlogP_VSA1>
0

>  <SlogP_VSA2>
11.08

>  <SlogP_VSA3>
0

>  <SlogP_VSA4>
0

>  <SlogP_VSA5>
10.36

>  <SlogP_VSA6>
54.6

>  <SlogP_VSA7>
0

>  <SlogP_VSA8>
11.13

>  <SlogP_VSA9>
0

>  <SlogP_VSA10>
0

>  <SlogP_VSA11>
0

>  <EState_VSA1>
5.97

>  <EState_VSA2>
0

>  <EState_VSA3>
5.56

>  <EState_VSA4>
11.13

>  <EState_VSA5>
0

>  <EState_VSA6>
12.13

>  <EState_VSA7>
42.46

>  <EState_VSA8>
0

>  <EState_VSA9>
5.11

>  <EState_VSA10>
4.79

>  <VSA_EState1>
0

>  <VSA_EState2>
10.65

>  <VSA_EState3>
8.75

>  <VSA_EState4>
2.43

>  <VSA_EState5>
-0.89

>  <VSA_EState6>
16.73

>  <VSA_EState7>
0

>  <VSA_EState8>
0

>  <VSA_EState9>
0

>  <apol>
29.98

>  <bpol>
10.9

>  <nRing>
2

>  <nHRing>
0

>  <naRing>
2

>  <naHRing>
0

>  <nARing 2>
0

>  <nAHRing 2>
0

>  <nFRing>
0

>  <nFHRing>
0

>  <nFaRing>
0

>  <nFaHRing>
0

>  <nFARing 2>
0

>  <nFAHRing 2>
0

>  <nRot>
2

>  <SLogP>
3.05

>  <SMR>
58.84

>  <TopoPSA(NO)>
37.3

>  <TopoPSA>
37.3

>  <JGI1>
0.16

>  <JGI2>
0.08

>  <JGI3>
0.03

>  <JGI4>
0.02

>  <JGI5>
0.03

>  <Diameter>
9

>  <Radius>
5

>  <TMWC10>
99.77

>  <TSRW10>
46.7

>  <MW>
198.07

>  <AMW>
7.92

>  <WPath>
388

>  <WPol>
20

>  <Zagreb1>
74

>  <Zagreb2>
84

>  <mZagreb2>
3.39

>  <yes>


>  <nAR-cont>
0.336376

>  <nHA-cont>
0.92539861

>  <MWHBN>
0.142108693

>  <MWHBN-cont>
0.910329095

>  <TPSA-cont>
0.739622838

>  <pka_cont>
0.97

>  <yes.1>


>  <BBB_SCORE>
4.591513929

>  <MMFF94 Energy>
34.038

$$$$
Compound 62
Actelion Java MolfileCreator 2.0

  0  0  0  0  0  0              0 V3000
M  V30 BEGIN CTAB
M  V30 COUNTS 40 40 0 0 0
M  V30 BEGIN ATOM
M  V30 1 S 2.7667 0.7898 0.9479 0
M  V30 2 C 2.4207 -0.9156 0.8494 0
M  V30 3 C 1.1401 1.5102 0.5517 0
M  V30 4 O 1.1928 -1.4059 0.5156 0
M  V30 5 C 3.2841 -1.9685 1.0765 0
M  V30 6 C 0.8478 1.4694 -0.9503 0
M  V30 7 C 1.265 -2.7671 0.5438 0
M  V30 8 C 2.544 -3.1595 0.8769 0
M  V30 9 N -0.4248 2.1046 -1.2522 0
M  V30 10 C 0.0159 -3.5114 0.2081 0
M  V30 11 C -0.7645 3.4389 -1.3296 0
M  V30 12 N -0.9611 -3.5173 1.3115 0
M  V30 13 N 0.2572 4.3606 -1.1913 0
M  V30 14 C -2.0271 3.8741 -1.5361 0
M  V30 15 C -0.5152 -4.3466 2.4316 0
M  V30 16 C -2.26 -3.9865 0.8277 0
M  V30 17 C 0.196 5.8027 -1.1989 0
M  V30 18 N -3.1641 3.0016 -1.6989 0 CHG=1
M  V30 19 O -3.0169 1.7719 -1.6533 0
M  V30 20 O -4.249 3.5721 -1.8806 0 CHG=-1
M  V30 21 H 0.3508 1.0074 1.1218 0
M  V30 22 H 1.1596 2.5483 0.9005 0
M  V30 23 H 4.3245 -1.8831 1.3567 0
M  V30 24 H 1.6513 1.9415 -1.5276 0
M  V30 25 H 0.7898 0.4322 -1.2978 0
M  V30 26 H 2.8951 -4.1772 0.9713 0
M  V30 27 H -1.2081 1.4502 -1.359 0
M  V30 28 H -0.423 -3.0159 -0.6683 0
M  V30 29 H 0.2623 -4.5347 -0.1035 0
M  V30 30 H 1.1839 3.9609 -1.1161 0
M  V30 31 H -2.3394 4.9028 -1.606 0
M  V30 32 H 0.4061 -3.9558 2.8754 0
M  V30 33 H -0.3428 -5.3869 2.1329 0
M  V30 34 H -1.2625 -4.3413 3.2335 0
M  V30 35 H -2.2117 -5.0109 0.4411 0
M  V30 36 H -2.6349 -3.3336 0.0315 0
M  V30 37 H -3.0053 -3.9553 1.6306 0
M  V30 38 H -0.4447 6.1708 -0.3916 0
M  V30 39 H -0.1815 6.1727 -2.157 0
M  V30 40 H 1.1978 6.2166 -1.0488 0
M  V30 END ATOM
M  V30 BEGIN BOND
M  V30 1 1 1 2
M  V30 2 1 1 3
M  V30 3 1 2 4
M  V30 4 2 2 5
M  V30 5 1 3 6
M  V30 6 1 4 7
M  V30 7 1 5 8
M  V30 8 1 6 9
M  V30 9 1 7 10
M  V30 10 1 9 11
M  V30 11 1 10 12
M  V30 12 1 11 13
M  V30 13 2 11 14
M  V30 14 1 12 15
M  V30 15 1 12 16
M  V30 16 1 13 17
M  V30 17 1 14 18
M  V30 18 2 18 19
M  V30 19 1 18 20
M  V30 20 2 7 8
M  V30 21 1 3 21
M  V30 22 1 3 22
M  V30 23 1 5 23
M  V30 24 1 6 24
M  V30 25 1 6 25
M  V30 26 1 8 26
M  V30 27 1 9 27
M  V30 28 1 10 28
M  V30 29 1 10 29
M  V30 30 1 13 30
M  V30 31 1 14 31
M  V30 32 1 15 32
M  V30 33 1 15 33
M  V30 34 1 15 34
M  V30 35 1 16 35
M  V30 36 1 16 36
M  V30 37 1 16 37
M  V30 38 1 17 38
M  V30 39 1 17 39
M  V30 40 1 17 40
M  V30 END BOND
M  V30 END CTAB
M  END
>  <Column 1>
80

>  <level_0>
89

>  <index>
89

>  <Unnamed: 0>
89

>  <NO.>
90

>  <Name>


>  <IUPAC_name>


>  <SMILES>
CN/C(=C/[N+](=O)[O-])NCCSc1ccc(CN(C)C)o1

>  <CID>


>  <logBB>
-1.23

>  <BBB+/BBB->
BBB-

>  <Inchi>
InChI=1S/C12H20N4O3S/c1-13-11(9-16(17)18)14-6-7-20-12-5-4-10(19-12)8-15(2)3/h4-5-9-13-14H-6-8H2-1-3H3/b11-9-

>  <threshold>


>  <reference>
R48|

>  <group>
A

>  <Class>
-1

>  <ABC>
14.58

>  <ABCGG>
12.79

>  <nAcid>
0

>  <nBase>
1

>  <nAromAtom>
5

>  <nAromBond>
5

>  <nAtom>
40

>  <nHeavyAtom>
20

>  <nSpiro>
0

>  <nBridgehead>
0

>  <nHetero>
8

>  <nN>
4

>  <nO>
3

>  <nF>
0

>  <BalabanJ>
2.07

>  <BertzCT>
459.31

>  <nBonds>
40

>  <nBondsO>
20

>  <nBondsS>
33

>  <nBondsD>
2

>  <nBondsT>
0

>  <nBondsA>
5

>  <nBondsM>
7

>  <nBondsKS>
36

>  <nBondsKD>
4

>  <RNCG>
0.21

>  <RPCG>
0.13

>  <FCSP3>
0.5

>  <SZ>
26.67

>  <Sm>
25.01

>  <Sv>
23.78

>  <Sse>
40.6

>  <Sp>
25.8

>  <Si>
45.86

>  <MZ>
0.67

>  <Mm>
0.63

>  <Mv>
0.59

>  <Mse>
1.01

>  <Mp>
0.64

>  <Mi>
1.15

>  <NsCH3>
3

>  <NdCH2>
0

>  <NssCH2>
3

>  <NtCH>
0

>  <NdsCH>
1

>  <NaaCH>
2

>  <NsssCH>
0

>  <NddC>
0

>  <NtsC>
0

>  <NdssC>
1

>  <NaasC>
2

>  <NaaaC>
0

>  <NssssC>
0

>  <NsNH3>
0

>  <NsNH2>
0

>  <NssNH2>
0

>  <NdNH>
0

>  <NssNH>
2

>  <NaaNH>
0

>  <NtN>
0

>  <NsssNH>
0

>  <NdsN>
0

>  <NaaN>
0

>  <NsssN>
1

>  <NddsN>
1

>  <NaasN>
0

>  <NssssN>
0

>  <NsOH>
0

>  <NdO>
1

>  <NssO>
0

>  <NaaO>
1

>  <NsF>
0

>  <NsSiH3>
0

>  <NssSiH2>
0

>  <NsssSiH>
0

>  <NssssSi>
0

>  <NsPH2>
0

>  <NssPH>
0

>  <NsssP>
0

>  <NdsssP>
0

>  <NsssssP>
0

>  <NsSH>
0

>  <NdS>
0

>  <NssS>
1

>  <NaaS>
0

>  <NdssS>
0

>  <NddssS>
0

>  <NsCl>
0

>  <NsBr>
0

>  <NsI>
0

>  <fragCpx>
20.08

>  <fMF>
0.13

>  <nHBAcc>
7

>  <nHBDon>
2

>  <Kier1>
18.05

>  <Kier2>
9.85

>  <Lipinski>
1

>  <GhoseFilter>
1

>  <FilterItLogS>
-3.32

>  <VMcGowan>
225.76

>  <LabuteASA>
122.09

>  <PEOE_VSA1>
19.95

>  <PEOE_VSA2>
10.11

>  <PEOE_VSA3>
0

>  <PEOE_VSA4>
0

>  <PEOE_VSA5>
0

>  <PEOE_VSA6>
11.76

>  <PEOE_VSA7>
26.23

>  <PEOE_VSA8>
19.35

>  <PEOE_VSA9>
11.47

>  <PEOE_VSA10>
5.76

>  <PEOE_VSA11>
10.91

>  <PEOE_VSA12>
0

>  <PEOE_VSA13>
6.2

>  <SMR_VSA1>
9.34

>  <SMR_VSA2>
0

>  <SMR_VSA3>
15.53

>  <SMR_VSA4>
0

>  <SMR_VSA5>
11.64

>  <SMR_VSA6>
33.44

>  <SMR_VSA7>
40.03

>  <SMR_VSA8>
0

>  <SMR_VSA9>
0

>  <SlogP_VSA1>
10.63

>  <SlogP_VSA2>
43.26

>  <SlogP_VSA3>
6.54

>  <SlogP_VSA4>
10.11

>  <SlogP_VSA5>
5.76

>  <SlogP_VSA6>
33.66

>  <SlogP_VSA7>
0

>  <SlogP_VSA8>
0

>  <SlogP_VSA9>
0

>  <SlogP_VSA10>
0

>  <SlogP_VSA11>
0

>  <EState_VSA1>
4.92

>  <EState_VSA2>
0

>  <EState_VSA3>
12.37

>  <EState_VSA4>
29.35

>  <EState_VSA5>
0

>  <EState_VSA6>
18.81

>  <EState_VSA7>
31.13

>  <EState_VSA8>
10.63

>  <EState_VSA9>
4.42

>  <EState_VSA10>
10.11

>  <VSA_EState1>
5.65

>  <VSA_EState2>
11.88

>  <VSA_EState3>
16.87

>  <VSA_EState4>
0

>  <VSA_EState5>
2.07

>  <VSA_EState6>
3.9

>  <VSA_EState7>
0.91

>  <VSA_EState8>
1.38

>  <VSA_EState9>
5.61

>  <apol>
43.08

>  <bpol>
28.28

>  <nRing>
1

>  <nHRing>
1

>  <naRing>
1

>  <naHRing>
1

>  <nARing 2>
0

>  <nAHRing 2>
0

>  <nFRing>
0

>  <nFHRing>
0

>  <nFaRing>
0

>  <nFaHRing>
0

>  <nFARing 2>
0

>  <nFAHRing 2>
0

>  <nRot>
9

>  <SLogP>
1.32

>  <SMR>
78.96

>  <TopoPSA(NO)>
83.58

>  <TopoPSA>
108.88

>  <JGI1>
0.25

>  <JGI2>
0.04

>  <JGI3>
0.06

>  <JGI4>
0.03

>  <JGI5>
0.02

>  <Diameter>
13

>  <Radius>
7

>  <TMWC10>
109.08

>  <TSRW10>
65.55

>  <MW>
300.13

>  <AMW>
7.5

>  <WPath>
1039

>  <WPol>
21

>  <Zagreb1>
90

>  <Zagreb2>
96

>  <mZagreb2>
4.67

>  <yes>


>  <nAR-cont>
0.336376

>  <nHA-cont>
0.999629945

>  <MWHBN>
0.519502696

>  <MWHBN-cont>
0

>  <TPSA-cont>
0.23994999

>  <pka_cont>
0.97

>  <yes.1>


>  <BBB_SCORE>
2.300905924

>  <MMFF94 Energy>
4.7123

$$$$
Compound 63
Actelion Java MolfileCreator 2.0

  0  0  0  0  0  0              0 V3000
M  V30 BEGIN CTAB
M  V30 COUNTS 43 43 0 0 0
M  V30 BEGIN ATOM
M  V30 1 S -0.3157 1.0264 1.2634 0
M  V30 2 C 0.7151 0.3293 -0.068 0
M  V30 3 C 0.3363 2.7379 1.2925 0
M  V30 4 C 0.5737 -1.146 -0.1231 0
M  V30 5 C 0.2195 3.4983 -0.0354 0
M  V30 6 O 1.6135 -1.8776 0.3728 0
M  V30 7 C -0.4101 -1.9879 -0.6 0
M  V30 8 N -1.1262 3.4222 -0.5736 0
M  V30 9 C 1.2846 -3.1939 0.227 0
M  V30 10 C 0.0476 -3.3068 -0.3733 0
M  V30 11 C -1.671 4.0271 -1.69 0
M  V30 12 C 2.2794 -4.1913 0.7179 0
M  V30 13 N -2.9722 3.6974 -1.9994 0
M  V30 14 C -0.9268 4.891 -2.4136 0
M  V30 15 N 1.7049 -5.1332 1.6983 0
M  V30 16 C -3.8819 2.8134 -1.3147 0
M  V30 17 N -1.4025 5.5702 -3.5938 0 CHG=1
M  V30 18 C 1.3863 -4.4533 2.9581 0
M  V30 19 C 2.6468 -6.2246 1.9504 0
M  V30 20 O -2.5575 5.3786 -4.0004 0
M  V30 21 O -0.5835 6.3254 -4.1361 0 CHG=-1
M  V30 22 H 1.7612 0.6005 0.1077 0
M  V30 23 H 0.4048 0.757 -1.0262 0
M  V30 24 H -0.2328 3.2713 2.062 0
M  V30 25 H 1.3799 2.7143 1.6227 0
M  V30 26 H 0.4914 4.5452 0.1433 0
M  V30 27 H 0.9335 3.0974 -0.7634 0
M  V30 28 H -1.3466 -1.6839 -1.0461 0
M  V30 29 H -1.7391 2.752 -0.1174 0
M  V30 30 H -0.4586 -4.2343 -0.6016 0
M  V30 31 H 2.6251 -4.7487 -0.1626 0
M  V30 32 H 3.1584 -3.6816 1.1334 0
M  V30 33 H -3.3554 4.1596 -2.8304 0
M  V30 34 H 0.0909 5.1775 -2.2089 0
M  V30 35 H -4.0556 3.1501 -0.288 0
M  V30 36 H -3.4934 1.7904 -1.2979 0
M  V30 37 H -4.8459 2.7988 -1.8321 0
M  V30 38 H 0.6238 -3.6805 2.8141 0
M  V30 39 H 2.2689 -3.9882 3.4121 0
M  V30 40 H 0.966 -5.1641 3.6789 0
M  V30 41 H 3.5974 -5.8659 2.3618 0
M  V30 42 H 2.8561 -6.7744 1.026 0
M  V30 43 H 2.2184 -6.9487 2.6524 0
M  V30 END ATOM
M  V30 BEGIN BOND
M  V30 1 1 1 2
M  V30 2 1 1 3
M  V30 3 1 2 4
M  V30 4 1 3 5
M  V30 5 1 4 6
M  V30 6 2 4 7
M  V30 7 1 5 8
M  V30 8 1 6 9
M  V30 9 1 7 10
M  V30 10 1 8 11
M  V30 11 1 9 12
M  V30 12 1 11 13
M  V30 13 2 11 14
M  V30 14 1 12 15
M  V30 15 1 13 16
M  V30 16 1 14 17
M  V30 17 1 15 18
M  V30 18 1 15 19
M  V30 19 2 17 20
M  V30 20 1 17 21
M  V30 21 2 9 10
M  V30 22 1 2 22
M  V30 23 1 2 23
M  V30 24 1 3 24
M  V30 25 1 3 25
M  V30 26 1 5 26
M  V30 27 1 5 27
M  V30 28 1 7 28
M  V30 29 1 8 29
M  V30 30 1 10 30
M  V30 31 1 12 31
M  V30 32 1 12 32
M  V30 33 1 13 33
M  V30 34 1 14 34
M  V30 35 1 16 35
M  V30 36 1 16 36
M  V30 37 1 16 37
M  V30 38 1 18 38
M  V30 39 1 18 39
M  V30 40 1 18 40
M  V30 41 1 19 41
M  V30 42 1 19 42
M  V30 43 1 19 43
M  V30 END BOND
M  V30 END CTAB
M  END
>  <Column 1>
81

>  <level_0>
90

>  <index>
90

>  <Unnamed: 0>
90

>  <NO.>
91

>  <Name>
ls-190695

>  <IUPAC_name>
(e)-1-n'-[2-[[5-[(dimethylamino)methyl]furan-2-yl]methylsulfanyl]ethyl]-1-n-methyl-2-nitroethene-1-1-diamine

>  <SMILES>
CN/C(=C\[N+](=O)[O-])NCCSCc1ccc(CN(C)C)o1

>  <CID>
3001055

>  <logBB>
-1.23

>  <BBB+/BBB->
BBB-

>  <Inchi>
InChI=1S/C13H22N4O3S/c1-14-13(9-17(18)19)15-6-7-21-10-12-5-4-11(20-12)8-16(2)3/h4-5-9-14-15H-6-8-10H2-1-3H3/b13-9+

>  <threshold>


>  <reference>
R2|R2|R11|R25|R39|R43|R46|R47|R49|R49|R50|R4|R40|

>  <group>
A

>  <Class>
-1

>  <ABC>
15.29

>  <ABCGG>
13.16

>  <nAcid>
0

>  <nBase>
1

>  <nAromAtom>
5

>  <nAromBond>
5

>  <nAtom>
43

>  <nHeavyAtom>
21

>  <nSpiro>
0

>  <nBridgehead>
0

>  <nHetero>
8

>  <nN>
4

>  <nO>
3

>  <nF>
0

>  <BalabanJ>
2.02

>  <BertzCT>
473.74

>  <nBonds>
43

>  <nBondsO>
21

>  <nBondsS>
36

>  <nBondsD>
2

>  <nBondsT>
0

>  <nBondsA>
5

>  <nBondsM>
7

>  <nBondsKS>
39

>  <nBondsKD>
4

>  <RNCG>
0.21

>  <RPCG>
0.12

>  <FCSP3>
0.54

>  <SZ>
28

>  <Sm>
26.18

>  <Sv>
25.32

>  <Sse>
43.49

>  <Sp>
27.6

>  <Si>
49.28

>  <MZ>
0.65

>  <Mm>
0.61

>  <Mv>
0.59

>  <Mse>
1.01

>  <Mp>
0.64

>  <Mi>
1.15

>  <NsCH3>
3

>  <NdCH2>
0

>  <NssCH2>
4

>  <NtCH>
0

>  <NdsCH>
1

>  <NaaCH>
2

>  <NsssCH>
0

>  <NddC>
0

>  <NtsC>
0

>  <NdssC>
1

>  <NaasC>
2

>  <NaaaC>
0

>  <NssssC>
0

>  <NsNH3>
0

>  <NsNH2>
0

>  <NssNH2>
0

>  <NdNH>
0

>  <NssNH>
2

>  <NaaNH>
0

>  <NtN>
0

>  <NsssNH>
0

>  <NdsN>
0

>  <NaaN>
0

>  <NsssN>
1

>  <NddsN>
1

>  <NaasN>
0

>  <NssssN>
0

>  <NsOH>
0

>  <NdO>
1

>  <NssO>
0

>  <NaaO>
1

>  <NsF>
0

>  <NsSiH3>
0

>  <NssSiH2>
0

>  <NsssSiH>
0

>  <NssssSi>
0

>  <NsPH2>
0

>  <NssPH>
0

>  <NsssP>
0

>  <NdsssP>
0

>  <NsssssP>
0

>  <NsSH>
0

>  <NdS>
0

>  <NssS>
1

>  <NaaS>
0

>  <NdssS>
0

>  <NddssS>
0

>  <NsCl>
0

>  <NsBr>
0

>  <NsI>
0

>  <fragCpx>
21.08

>  <fMF>
0.12

>  <nHBAcc>
7

>  <nHBDon>
2

>  <Kier1>
19.05

>  <Kier2>
10.68

>  <Lipinski>
1

>  <GhoseFilter>
1

>  <FilterItLogS>
-3.72

>  <VMcGowan>
239.85

>  <LabuteASA>
128.46

>  <PEOE_VSA1>
19.95

>  <PEOE_VSA2>
10.11

>  <PEOE_VSA3>
0

>  <PEOE_VSA4>
11.76

>  <PEOE_VSA5>
0

>  <PEOE_VSA6>
0

>  <PEOE_VSA7>
26.23

>  <PEOE_VSA8>
19.35

>  <PEOE_VSA9>
17.22

>  <PEOE_VSA10>
11.52

>  <PEOE_VSA11>
5.82

>  <PEOE_VSA12>
0

>  <PEOE_VSA13>
6.2

>  <SMR_VSA1>
9.34

>  <SMR_VSA2>
0

>  <SMR_VSA3>
15.53

>  <SMR_VSA4>
0

>  <SMR_VSA5>
12.3

>  <SMR_VSA6>
33.44

>  <SMR_VSA7>
45.79

>  <SMR_VSA8>
0

>  <SMR_VSA9>
0

>  <SlogP_VSA1>
10.63

>  <SlogP_VSA2>
43.26

>  <SlogP_VSA3>
12.3

>  <SlogP_VSA4>
10.11

>  <SlogP_VSA5>
11.52

>  <SlogP_VSA6>
28.57

>  <SlogP_VSA7>
0

>  <SlogP_VSA8>
0

>  <SlogP_VSA9>
0

>  <SlogP_VSA10>
0

>  <SlogP_VSA11>
0

>  <EState_VSA1>
4.92

>  <EState_VSA2>
0

>  <EState_VSA3>
12.37

>  <EState_VSA4>
35.77

>  <EState_VSA5>
0

>  <EState_VSA6>
18.81

>  <EState_VSA7>
26.23

>  <EState_VSA8>
15.53

>  <EState_VSA9>
4.42

>  <EState_VSA10>
10.11

>  <VSA_EState1>
5.7

>  <VSA_EState2>
11.92

>  <VSA_EState3>
16.06

>  <VSA_EState4>
0

>  <VSA_EState5>
3.95

>  <VSA_EState6>
3.98

>  <VSA_EState7>
0.92

>  <VSA_EState8>
1.44

>  <VSA_EState9>
5.64

>  <apol>
46.09

>  <bpol>
30.28

>  <nRing>
1

>  <nHRing>
1

>  <naRing>
1

>  <naHRing>
1

>  <nARing 2>
0

>  <nAHRing 2>
0

>  <nFRing>
0

>  <nFHRing>
0

>  <nFaRing>
0

>  <nFaHRing>
0

>  <nFARing 2>
0

>  <nFAHRing 2>
0

>  <nRot>
10

>  <SLogP>
1.46

>  <SMR>
84.4

>  <TopoPSA(NO)>
83.58

>  <TopoPSA>
108.88

>  <JGI1>
0.24

>  <JGI2>
0.04

>  <JGI3>
0.06

>  <JGI4>
0.03

>  <JGI5>
0.02

>  <Diameter>
14

>  <Radius>
7

>  <TMWC10>
111.35

>  <TSRW10>
66.73

>  <MW>
314.14

>  <AMW>
7.31

>  <WPath>
1227

>  <WPol>
22

>  <Zagreb1>
94

>  <Zagreb2>
100

>  <mZagreb2>
4.92

>  <yes>


>  <nAR-cont>
0.336376

>  <nHA-cont>
0.994529749

>  <MWHBN>
0.507786195

>  <MWHBN-cont>
0

>  <TPSA-cont>
0.23994999

>  <pka_cont>
0.97

>  <yes.1>


>  <BBB_SCORE>
2.295805729

>  <MMFF94 Energy>
21.108

$$$$
Compound 64
Actelion Java MolfileCreator 2.0

  0  0  0  0  0  0              0 V3000
M  V30 BEGIN CTAB
M  V30 COUNTS 45 45 0 0 0
M  V30 BEGIN ATOM
M  V30 1 S -0.0789 1.343 1.8965 0
M  V30 2 C 1.094 0.4802 0.7968 0
M  V30 3 C -1.6754 0.9325 1.0849 0
M  V30 4 C 0.8651 -0.9877 0.7514 0
M  V30 5 C -1.7998 1.4138 -0.3637 0
M  V30 6 C 0.5357 -1.7435 -0.3558 0
M  V30 7 C 0.9643 -1.9218 1.824 0
M  V30 8 N -1.4736 2.8238 -0.4795 0
M  V30 9 O 0.4062 -3.0531 -0.0308 0
M  V30 10 C 0.6811 -3.1662 1.3001 0
M  V30 11 C -1.5466 3.5276 -1.6392 0
M  V30 12 C 0.6006 -4.534 1.8925 0
M  V30 13 N -1.932 2.9285 -2.712 0
M  V30 14 N -1.1862 4.8355 -1.5147 0
M  V30 15 N 1.8129 -5.3409 1.6596 0
M  V30 16 C -2.0547 3.6793 -3.964 0
M  V30 17 C -0.8748 5.5673 -0.3116 0
M  V30 18 C 1.5592 -6.7369 2.0172 0
M  V30 19 C 2.9604 -4.8337 2.4127 0
M  V30 20 N -0.7645 4.1854 -4.5827 0 CHG=1
M  V30 21 O -0.4111 5.3343 -4.2681 0
M  V30 22 O -0.1618 3.4338 -5.3608 0 CHG=-1
M  V30 23 H 2.102 0.6719 1.1813 0
M  V30 24 H 1.0528 0.9263 -0.2017 0
M  V30 25 H -1.8543 -0.1451 1.1485 0
M  V30 26 H -2.4523 1.4163 1.688 0
M  V30 27 H -1.1492 0.8258 -1.0192 0
M  V30 28 H -2.8307 1.2451 -0.6969 0
M  V30 29 H 0.364 -1.5081 -1.3976 0
M  V30 30 H 1.2127 -1.7105 2.8553 0
M  V30 31 H -0.9924 3.2228 0.3143 0
M  V30 32 H 0.3806 -4.4604 2.9658 0
M  V30 33 H -0.2634 -5.0315 1.4319 0
M  V30 34 H -1.0703 5.3888 -2.3594 0
M  V30 35 H -2.5077 3.0319 -4.7231 0
M  V30 36 H -2.7154 4.5472 -3.85 0
M  V30 37 H 0.0458 5.1929 0.146 0
M  V30 38 H -1.6937 5.501 0.4113 0
M  V30 39 H -0.7236 6.6248 -0.5497 0
M  V30 40 H 0.7415 -7.148 1.4147 0
M  V30 41 H 1.3002 -6.8521 3.0761 0
M  V30 42 H 2.4393 -7.3552 1.8081 0
M  V30 43 H 2.7691 -4.8095 3.4918 0
M  V30 44 H 3.2386 -3.8265 2.0864 0
M  V30 45 H 3.8418 -5.4611 2.2368 0
M  V30 END ATOM
M  V30 BEGIN BOND
M  V30 1 1 1 2
M  V30 2 1 1 3
M  V30 3 1 2 4
M  V30 4 1 3 5
M  V30 5 2 4 6
M  V30 6 1 4 7
M  V30 7 1 5 8
M  V30 8 1 6 9
M  V30 9 2 7 10
M  V30 10 1 8 11
M  V30 11 1 10 12
M  V30 12 2 11 13
M  V30 13 1 11 14
M  V30 14 1 12 15
M  V30 15 1 13 16
M  V30 16 1 14 17
M  V30 17 1 15 18
M  V30 18 1 15 19
M  V30 19 1 16 20
M  V30 20 2 20 21
M  V30 21 1 20 22
M  V30 22 1 9 10
M  V30 23 1 2 23
M  V30 24 1 2 24
M  V30 25 1 3 25
M  V30 26 1 3 26
M  V30 27 1 5 27
M  V30 28 1 5 28
M  V30 29 1 6 29
M  V30 30 1 7 30
M  V30 31 1 8 31
M  V30 32 1 12 32
M  V30 33 1 12 33
M  V30 34 1 14 34
M  V30 35 1 16 35
M  V30 36 1 16 36
M  V30 37 1 17 37
M  V30 38 1 17 38
M  V30 39 1 17 39
M  V30 40 1 18 40
M  V30 41 1 18 41
M  V30 42 1 18 42
M  V30 43 1 19 43
M  V30 44 1 19 44
M  V30 45 1 19 45
M  V30 END BOND
M  V30 END CTAB
M  END
>  <Column 1>
82

>  <level_0>
91

>  <index>
91

>  <Unnamed: 0>
91

>  <NO.>
92

>  <Name>
ranitidine

>  <IUPAC_name>


>  <SMILES>
CN/C(=N\C[N+](=O)[O-])NCCSCc1coc(CN(C)C)c1

>  <CID>


>  <logBB>
-1.23

>  <BBB+/BBB->
BBB-

>  <Inchi>
InChI=1S/C13H23N5O3S/c1-14-13(16-10-18(19)20)15-4-5-22-9-11-6-12(21-8-11)7-17(2)3/h6-8H-4-5-7-9-10H2-1-3H3-(H2-14-15-16)

>  <threshold>


>  <reference>
R18|R26|R27|

>  <group>
A

>  <Class>
-1

>  <ABC>
15.99

>  <ABCGG>
13.58

>  <nAcid>
0

>  <nBase>
4

>  <nAromAtom>
5

>  <nAromBond>
5

>  <nAtom>
45

>  <nHeavyAtom>
22

>  <nSpiro>
0

>  <nBridgehead>
0

>  <nHetero>
9

>  <nN>
5

>  <nO>
3

>  <nF>
0

>  <BalabanJ>
2.01

>  <BertzCT>
489.78

>  <nBonds>
45

>  <nBondsO>
22

>  <nBondsS>
38

>  <nBondsD>
2

>  <nBondsT>
0

>  <nBondsA>
5

>  <nBondsM>
7

>  <nBondsKS>
41

>  <nBondsKD>
4

>  <RNCG>
0.2

>  <RPCG>
0.12

>  <FCSP3>
0.62

>  <SZ>
29.33

>  <Sm>
27.43

>  <Sv>
26.35

>  <Sse>
45.59

>  <Sp>
28.65

>  <Si>
51.78

>  <MZ>
0.65

>  <Mm>
0.61

>  <Mv>
0.59

>  <Mse>
1.01

>  <Mp>
0.64

>  <Mi>
1.15

>  <NsCH3>
3

>  <NdCH2>
0

>  <NssCH2>
5

>  <NtCH>
0

>  <NdsCH>
0

>  <NaaCH>
2

>  <NsssCH>
0

>  <NddC>
0

>  <NtsC>
0

>  <NdssC>
1

>  <NaasC>
2

>  <NaaaC>
0

>  <NssssC>
0

>  <NsNH3>
0

>  <NsNH2>
0

>  <NssNH2>
0

>  <NdNH>
0

>  <NssNH>
2

>  <NaaNH>
0

>  <NtN>
0

>  <NsssNH>
0

>  <NdsN>
1

>  <NaaN>
0

>  <NsssN>
1

>  <NddsN>
1

>  <NaasN>
0

>  <NssssN>
0

>  <NsOH>
0

>  <NdO>
1

>  <NssO>
0

>  <NaaO>
1

>  <NsF>
0

>  <NsSiH3>
0

>  <NssSiH2>
0

>  <NsssSiH>
0

>  <NssssSi>
0

>  <NsPH2>
0

>  <NssPH>
0

>  <NsssP>
0

>  <NdsssP>
0

>  <NsssssP>
0

>  <NsSH>
0

>  <NdS>
0

>  <NssS>
1

>  <NaaS>
0

>  <NdssS>
0

>  <NddssS>
0

>  <NsCl>
0

>  <NsBr>
0

>  <NsI>
0

>  <fragCpx>
22.09

>  <fMF>
0.11

>  <nHBAcc>
6

>  <nHBDon>
2

>  <Kier1>
20.05

>  <Kier2>
11.52

>  <Lipinski>
1

>  <GhoseFilter>
1

>  <FilterItLogS>
-4.12

>  <VMcGowan>
249.83

>  <LabuteASA>
134.04

>  <PEOE_VSA1>
19.95

>  <PEOE_VSA2>
10.11

>  <PEOE_VSA3>
0

>  <PEOE_VSA4>
16.75

>  <PEOE_VSA5>
0

>  <PEOE_VSA6>
0

>  <PEOE_VSA7>
20.16

>  <PEOE_VSA8>
35.58

>  <PEOE_VSA9>
12.81

>  <PEOE_VSA10>
5.76

>  <PEOE_VSA11>
5.96

>  <PEOE_VSA12>
0

>  <PEOE_VSA13>
6.67

>  <SMR_VSA1>
9.34

>  <SMR_VSA2>
0

>  <SMR_VSA3>
15.53

>  <SMR_VSA4>
4.99

>  <SMR_VSA5>
12.3

>  <SMR_VSA6>
40.11

>  <SMR_VSA7>
33.77

>  <SMR_VSA8>
0

>  <SMR_VSA9>
0

>  <SlogP_VSA1>
10.63

>  <SlogP_VSA2>
55.89

>  <SlogP_VSA3>
12.3

>  <SlogP_VSA4>
10.11

>  <SlogP_VSA5>
11.32

>  <SlogP_VSA6>
21.74

>  <SlogP_VSA7>
0

>  <SlogP_VSA8>
0

>  <SlogP_VSA9>
0

>  <SlogP_VSA10>
0

>  <SlogP_VSA11>
0

>  <EState_VSA1>
11.59

>  <EState_VSA2>
0

>  <EState_VSA3>
12.5

>  <EState_VSA4>
29.37

>  <EState_VSA5>
0

>  <EState_VSA6>
25.07

>  <EState_VSA7>
14.1

>  <EState_VSA8>
26.59

>  <EState_VSA9>
4.42

>  <EState_VSA10>
10.11

>  <VSA_EState1>
5.48

>  <VSA_EState2>
15.63

>  <VSA_EState3>
16.07

>  <VSA_EState4>
1.16

>  <VSA_EState5>
3.14

>  <VSA_EState6>
2.07

>  <VSA_EState7>
1.79

>  <VSA_EState8>
1.05

>  <VSA_EState9>
5.68

>  <apol>
47.85

>  <bpol>
32.43

>  <nRing>
1

>  <nHRing>
1

>  <naRing>
1

>  <naHRing>
1

>  <nARing 2>
0

>  <nAHRing 2>
0

>  <nFRing>
0

>  <nFHRing>
0

>  <nFaRing>
0

>  <nFaHRing>
0

>  <nFARing 2>
0

>  <nFAHRing 2>
0

>  <nRot>
9

>  <SLogP>
0.97

>  <SMR>
88.62

>  <TopoPSA(NO)>
95.94

>  <TopoPSA>
121.24

>  <JGI1>
0.23

>  <JGI2>
0.05

>  <JGI3>
0.05

>  <JGI4>
0.03

>  <JGI5>
0.03

>  <Diameter>
15

>  <Radius>
8

>  <TMWC10>
113.58

>  <TSRW10>
67.89

>  <MW>
329.15

>  <AMW>
7.31

>  <WPath>
1416

>  <WPol>
23

>  <Zagreb1>
98

>  <Zagreb2>
104

>  <mZagreb2>
5.17

>  <yes>


>  <nAR-cont>
0.336376

>  <nHA-cont>
0.983774276

>  <MWHBN>
0.440953767

>  <MWHBN-cont>
0.318771432

>  <TPSA-cont>
0

>  <pka_cont>
0.97

>  <yes.1>


>  <BBB_SCORE>
2.283307423

>  <MMFF94 Energy>
-38.973

$$$$
Compound 65
Actelion Java MolfileCreator 2.0

  0  0  0  0  0  0              0 V3000
M  V30 BEGIN CTAB
M  V30 COUNTS 43 43 0 0 0
M  V30 BEGIN ATOM
M  V30 1 S -3.9657 1.6641 -0.2376 0
M  V30 2 C -3.7545 -0.0386 0.0802 0
M  V30 3 C -2.3563 2.3238 0.2992 0
M  V30 4 O -2.6895 -0.5334 0.7772 0
M  V30 5 C -4.5676 -1.0833 -0.3106 0
M  V30 6 C -1.2425 1.9582 -0.6797 0
M  V30 7 C -2.8057 -1.8911 0.8033 0
M  V30 8 C -3.9562 -2.2752 0.1488 0
M  V30 9 C 0.1127 2.4241 -0.153 0
M  V30 10 C -1.7171 -2.641 1.4934 0
M  V30 11 N 1.1724 1.957 -1.0293 0
M  V30 12 N -0.8447 -3.3621 0.5478 0
M  V30 13 C 2.5128 2.1783 -0.7791 0
M  V30 14 C 0.0338 -4.2759 1.2809 0
M  V30 15 C -0.0305 -2.4304 -0.2417 0
M  V30 16 N 2.8521 2.917 0.2286 0
M  V30 17 C 3.5035 1.5353 -1.7345 0
M  V30 18 C 4.2519 3.1651 0.5289 0
M  V30 19 N 3.6105 0.1018 -1.3395 0 CHG=1
M  V30 20 O 4.5957 -0.2338 -0.6693 0
M  V30 21 O 2.7196 -0.6619 -1.741 0 CHG=-1
M  V30 22 H -2.1337 1.9658 1.3102 0
M  V30 23 H -2.4489 3.4137 0.3587 0
M  V30 24 H -5.4841 -0.9944 -0.8768 0
M  V30 25 H -1.432 2.4166 -1.6589 0
M  V30 26 H -1.203 0.8748 -0.8431 0
M  V30 27 H -4.2967 -3.2918 0.0103 0
M  V30 28 H 0.132 3.5184 -0.0944 0
M  V30 29 H 0.2748 2.0249 0.8551 0
M  V30 30 H -1.1337 -1.965 2.1322 0
M  V30 31 H -2.2043 -3.3622 2.163 0
M  V30 32 H 0.9002 1.3099 -1.7649 0
M  V30 33 H -0.5552 -5.0128 1.8384 0
M  V30 34 H 0.6849 -3.7482 1.9875 0
M  V30 35 H 0.6647 -4.8433 0.5875 0
M  V30 36 H 0.596 -1.7898 0.3899 0
M  V30 37 H -0.6568 -1.7896 -0.8712 0
M  V30 38 H 0.6241 -2.9814 -0.9265 0
M  V30 39 H 3.1245 1.5632 -2.7608 0
M  V30 40 H 4.4999 1.9772 -1.7087 0
M  V30 41 H 4.7288 3.7596 -0.2565 0
M  V30 42 H 4.807 2.2359 0.6867 0
M  V30 43 H 4.3184 3.7411 1.4574 0
M  V30 END ATOM
M  V30 BEGIN BOND
M  V30 1 1 1 2
M  V30 2 1 1 3
M  V30 3 1 2 4
M  V30 4 2 2 5
M  V30 5 1 3 6
M  V30 6 1 4 7
M  V30 7 1 5 8
M  V30 8 1 6 9
M  V30 9 1 7 10
M  V30 10 1 9 11
M  V30 11 1 10 12
M  V30 12 1 11 13
M  V30 13 1 12 14
M  V30 14 1 12 15
M  V30 15 2 13 16
M  V30 16 1 13 17
M  V30 17 1 16 18
M  V30 18 1 17 19
M  V30 19 2 19 20
M  V30 20 1 19 21
M  V30 21 2 7 8
M  V30 22 1 3 22
M  V30 23 1 3 23
M  V30 24 1 5 24
M  V30 25 1 6 25
M  V30 26 1 6 26
M  V30 27 1 8 27
M  V30 28 1 9 28
M  V30 29 1 9 29
M  V30 30 1 10 30
M  V30 31 1 10 31
M  V30 32 1 11 32
M  V30 33 1 14 33
M  V30 34 1 14 34
M  V30 35 1 14 35
M  V30 36 1 15 36
M  V30 37 1 15 37
M  V30 38 1 15 38
M  V30 39 1 17 39
M  V30 40 1 17 40
M  V30 41 1 18 41
M  V30 42 1 18 42
M  V30 43 1 18 43
M  V30 END BOND
M  V30 END CTAB
M  END
>  <Column 1>
83

>  <level_0>
92

>  <index>
92

>  <Unnamed: 0>
92

>  <NO.>
93

>  <Name>
n-[3-[5-[(dimethylamino)methyl]furan-2-yl]sulfanylpropyl]-n'-methyl-2-nitroethanimidamide

>  <IUPAC_name>
n-[3-[5-[(dimethylamino)methyl]furan-2-yl]sulfanylpropyl]-n'-methyl-2-nitroethanimidamide

>  <SMILES>
CN=C(C[N+](=O)[O-])NCCCSc1ccc(CN(C)C)o1

>  <CID>
54429646

>  <logBB>
-1.23

>  <BBB+/BBB->
BBB-

>  <Inchi>
InChI=1S/C13H22N4O3S/c1-14-12(10-17(18)19)15-7-4-8-21-13-6-5-11(20-13)9-16(2)3/h5-6H-4-7-10H2-1-3H3-(H-14-15)

>  <threshold>


>  <reference>
R8|

>  <group>
A

>  <Class>
-1

>  <ABC>
15.29

>  <ABCGG>
13.16

>  <nAcid>
0

>  <nBase>
3

>  <nAromAtom>
5

>  <nAromBond>
5

>  <nAtom>
43

>  <nHeavyAtom>
21

>  <nSpiro>
0

>  <nBridgehead>
0

>  <nHetero>
8

>  <nN>
4

>  <nO>
3

>  <nF>
0

>  <BalabanJ>
2.02

>  <BertzCT>
473.74

>  <nBonds>
43

>  <nBondsO>
21

>  <nBondsS>
36

>  <nBondsD>
2

>  <nBondsT>
0

>  <nBondsA>
5

>  <nBondsM>
7

>  <nBondsKS>
39

>  <nBondsKD>
4

>  <RNCG>
0.22

>  <RPCG>
0.12

>  <FCSP3>
0.62

>  <SZ>
28

>  <Sm>
26.18

>  <Sv>
25.32

>  <Sse>
43.49

>  <Sp>
27.6

>  <Si>
49.28

>  <MZ>
0.65

>  <Mm>
0.61

>  <Mv>
0.59

>  <Mse>
1.01

>  <Mp>
0.64

>  <Mi>
1.15

>  <NsCH3>
3

>  <NdCH2>
0

>  <NssCH2>
5

>  <NtCH>
0

>  <NdsCH>
0

>  <NaaCH>
2

>  <NsssCH>
0

>  <NddC>
0

>  <NtsC>
0

>  <NdssC>
1

>  <NaasC>
2

>  <NaaaC>
0

>  <NssssC>
0

>  <NsNH3>
0

>  <NsNH2>
0

>  <NssNH2>
0

>  <NdNH>
0

>  <NssNH>
1

>  <NaaNH>
0

>  <NtN>
0

>  <NsssNH>
0

>  <NdsN>
1

>  <NaaN>
0

>  <NsssN>
1

>  <NddsN>
1

>  <NaasN>
0

>  <NssssN>
0

>  <NsOH>
0

>  <NdO>
1

>  <NssO>
0

>  <NaaO>
1

>  <NsF>
0

>  <NsSiH3>
0

>  <NssSiH2>
0

>  <NsssSiH>
0

>  <NssssSi>
0

>  <NsPH2>
0

>  <NssPH>
0

>  <NsssP>
0

>  <NdsssP>
0

>  <NsssssP>
0

>  <NsSH>
0

>  <NdS>
0

>  <NssS>
1

>  <NaaS>
0

>  <NdssS>
0

>  <NddssS>
0

>  <NsCl>
0

>  <NsBr>
0

>  <NsI>
0

>  <fragCpx>
21.08

>  <fMF>
0.12

>  <nHBAcc>
6

>  <nHBDon>
1

>  <Kier1>
19.05

>  <Kier2>
10.68

>  <Lipinski>
1

>  <GhoseFilter>
1

>  <FilterItLogS>
-4.08

>  <VMcGowan>
239.85

>  <LabuteASA>
128.49

>  <PEOE_VSA1>
14.63

>  <PEOE_VSA2>
15.11

>  <PEOE_VSA3>
0

>  <PEOE_VSA4>
0

>  <PEOE_VSA5>
0

>  <PEOE_VSA6>
11.76

>  <PEOE_VSA7>
32.65

>  <PEOE_VSA8>
24.27

>  <PEOE_VSA9>
6.54

>  <PEOE_VSA10>
5.76

>  <PEOE_VSA11>
10.93

>  <PEOE_VSA12>
0

>  <PEOE_VSA13>
6.54

>  <SMR_VSA1>
9.34

>  <SMR_VSA2>
0

>  <SMR_VSA3>
10.22

>  <SMR_VSA4>
4.99

>  <SMR_VSA5>
18.06

>  <SMR_VSA6>
39.99

>  <SMR_VSA7>
28.01

>  <SMR_VSA8>
0

>  <SMR_VSA9>
0

>  <SlogP_VSA1>
5.32

>  <SlogP_VSA2>
55.64

>  <SlogP_VSA3>
6.54

>  <SlogP_VSA4>
10.11

>  <SlogP_VSA5>
12.18

>  <SlogP_VSA6>
26.63

>  <SlogP_VSA7>
0

>  <SlogP_VSA8>
0

>  <SlogP_VSA9>
0

>  <SlogP_VSA10>
0

>  <SlogP_VSA11>
0

>  <EState_VSA1>
0

>  <EState_VSA2>
11.47

>  <EState_VSA3>
12.38

>  <EState_VSA4>
29.57

>  <EState_VSA5>
0

>  <EState_VSA6>
18.81

>  <EState_VSA7>
26.23

>  <EState_VSA8>
15.21

>  <EState_VSA9>
4.42

>  <EState_VSA10>
10.11

>  <VSA_EState1>
5.68

>  <VSA_EState2>
15.9

>  <VSA_EState3>
14.27

>  <VSA_EState4>
0

>  <VSA_EState5>
2.25

>  <VSA_EState6>
3.96

>  <VSA_EState7>
0.88

>  <VSA_EState8>
1.2

>  <VSA_EState9>
5.55

>  <apol>
46.09

>  <bpol>
30.85

>  <nRing>
1

>  <nHRing>
1

>  <naRing>
1

>  <naHRing>
1

>  <nARing 2>
0

>  <nAHRing 2>
0

>  <nFRing>
0

>  <nFHRing>
0

>  <nFaRing>
0

>  <nFaHRing>
0

>  <nFARing 2>
0

>  <nFAHRing 2>
0

>  <nRot>
9

>  <SLogP>
1.72

>  <SMR>
84.66

>  <TopoPSA(NO)>
83.91

>  <TopoPSA>
109.21

>  <JGI1>
0.24

>  <JGI2>
0.04

>  <JGI3>
0.06

>  <JGI4>
0.03

>  <JGI5>
0.02

>  <Diameter>
14

>  <Radius>
7

>  <TMWC10>
111.35

>  <TSRW10>
66.73

>  <MW>
314.14

>  <AMW>
7.31

>  <WPath>
1227

>  <WPol>
22

>  <Zagreb1>
94

>  <Zagreb2>
100

>  <mZagreb2>
4.92

>  <yes>


>  <nAR-cont>
0.336376

>  <nHA-cont>
0.994529749

>  <MWHBN>
0.394944818

>  <MWHBN-cont>
0.495973069

>  <TPSA-cont>
0.237646385

>  <pka_cont>
0.97

>  <yes.1>


>  <BBB_SCORE>
3.035158122

>  <MMFF94 Energy>
2.0157

$$$$
Compound 66
Actelion Java MolfileCreator 2.0

  0  0  0  0  0  0              0 V3000
M  V30 BEGIN CTAB
M  V30 COUNTS 43 43 0 0 0
M  V30 BEGIN ATOM
M  V30 1 S -0.9513 0.317 -0.2377 0
M  V30 2 C -0.0786 -0.87 -1.3088 0
M  V30 3 C 0.1231 1.7605 -0.5093 0
M  V30 4 C -0.6637 -2.2302 -1.2097 0
M  V30 5 C -0.3961 2.9871 0.2457 0
M  V30 6 O 0.2134 -3.2438 -0.9534 0
M  V30 7 C -1.939 -2.7399 -1.3495 0
M  V30 8 N 0.4891 4.1277 0.0389 0
M  V30 9 C -0.5075 -4.401 -0.8974 0
M  V30 10 C -1.839 -4.1366 -1.1449 0
M  V30 11 C 0.239 5.382 0.5636 0
M  V30 12 C 0.2498 -5.6566 -0.6173 0
M  V30 13 N -0.8234 5.5649 1.2798 0
M  V30 14 C 1.2626 6.467 0.2735 0
M  V30 15 N 0.6745 -5.7821 0.7895 0
M  V30 16 C -1.1284 6.8707 1.8389 0
M  V30 17 N 1.0538 6.8916 -1.1388 0 CHG=1
M  V30 18 C 1.5977 -6.9076 0.9339 0
M  V30 19 C -0.4664 -5.9521 1.6903 0
M  V30 20 O 1.5644 6.1826 -2.0193 0
M  V30 21 O 0.4194 7.9363 -1.3339 0 CHG=-1
M  V30 22 H 0.9768 -0.893 -1.0183 0
M  V30 23 H -0.1406 -0.5236 -2.3455 0
M  V30 24 H 1.1366 1.5168 -0.1721 0
M  V30 25 H 0.1665 1.9763 -1.5825 0
M  V30 26 H -1.4023 3.2425 -0.108 0
M  V30 27 H -0.4535 2.7707 1.3192 0
M  V30 28 H -2.8315 -2.1672 -1.5613 0
M  V30 29 H 1.2591 4.0044 -0.613 0
M  V30 30 H -2.6384 -4.8635 -1.1684 0
M  V30 31 H -0.349 -6.525 -0.9217 0
M  V30 32 H 1.1362 -5.6456 -1.2656 0
M  V30 33 H 2.2778 6.0648 0.3467 0
M  V30 34 H 1.1803 7.3459 0.9137 0
M  V30 35 H -2.1066 6.8273 2.3284 0
M  V30 36 H -1.1899 7.642 1.0652 0
M  V30 37 H -0.3967 7.1589 2.6001 0
M  V30 38 H 2.4853 -6.7624 0.3079 0
M  V30 39 H 1.1334 -7.8618 0.6593 0
M  V30 40 H 1.9558 -6.9831 1.9669 0
M  V30 41 H -1.0667 -6.8331 1.4357 0
M  V30 42 H -1.1184 -5.0724 1.6794 0
M  V30 43 H -0.1241 -6.0604 2.726 0
M  V30 END ATOM
M  V30 BEGIN BOND
M  V30 1 1 1 2
M  V30 2 1 1 3
M  V30 3 1 2 4
M  V30 4 1 3 5
M  V30 5 1 4 6
M  V30 6 2 4 7
M  V30 7 1 5 8
M  V30 8 1 6 9
M  V30 9 1 7 10
M  V30 10 1 8 11
M  V30 11 1 9 12
M  V30 12 2 11 13
M  V30 13 1 11 14
M  V30 14 1 12 15
M  V30 15 1 13 16
M  V30 16 1 14 17
M  V30 17 1 15 18
M  V30 18 1 15 19
M  V30 19 2 17 20
M  V30 20 1 17 21
M  V30 21 2 9 10
M  V30 22 1 2 22
M  V30 23 1 2 23
M  V30 24 1 3 24
M  V30 25 1 3 25
M  V30 26 1 5 26
M  V30 27 1 5 27
M  V30 28 1 7 28
M  V30 29 1 8 29
M  V30 30 1 10 30
M  V30 31 1 12 31
M  V30 32 1 12 32
M  V30 33 1 14 33
M  V30 34 1 14 34
M  V30 35 1 16 35
M  V30 36 1 16 36
M  V30 37 1 16 37
M  V30 38 1 18 38
M  V30 39 1 18 39
M  V30 40 1 18 40
M  V30 41 1 19 41
M  V30 42 1 19 42
M  V30 43 1 19 43
M  V30 END BOND
M  V30 END CTAB
M  END
>  <Column 1>
84

>  <level_0>
93

>  <index>
93

>  <Unnamed: 0>
93

>  <NO.>
94

>  <Name>
chembl1907165

>  <IUPAC_name>
n-[2-[[5-[(dimethylamino)methyl]furan-2-yl]methylsulfanyl]ethyl]-n'-methyl-2-nitroethanimidamide

>  <SMILES>
CN=C(C[N+](=O)[O-])NCCSCc1ccc(CN(C)C)o1

>  <CID>
9883333

>  <logBB>
-1.23

>  <BBB+/BBB->
BBB-

>  <Inchi>
InChI=1S/C13H22N4O3S/c1-14-13(9-17(18)19)15-6-7-21-10-12-5-4-11(20-12)8-16(2)3/h4-5H-6-10H2-1-3H3-(H-14-15)

>  <threshold>


>  <reference>
R2|R2|

>  <group>
A

>  <Class>
-1

>  <ABC>
15.29

>  <ABCGG>
13.16

>  <nAcid>
0

>  <nBase>
3

>  <nAromAtom>
5

>  <nAromBond>
5

>  <nAtom>
43

>  <nHeavyAtom>
21

>  <nSpiro>
0

>  <nBridgehead>
0

>  <nHetero>
8

>  <nN>
4

>  <nO>
3

>  <nF>
0

>  <BalabanJ>
2.02

>  <BertzCT>
473.74

>  <nBonds>
43

>  <nBondsO>
21

>  <nBondsS>
36

>  <nBondsD>
2

>  <nBondsT>
0

>  <nBondsA>
5

>  <nBondsM>
7

>  <nBondsKS>
39

>  <nBondsKD>
4

>  <RNCG>
0.22

>  <RPCG>
0.12

>  <FCSP3>
0.62

>  <SZ>
28

>  <Sm>
26.18

>  <Sv>
25.32

>  <Sse>
43.49

>  <Sp>
27.6

>  <Si>
49.28

>  <MZ>
0.65

>  <Mm>
0.61

>  <Mv>
0.59

>  <Mse>
1.01

>  <Mp>
0.64

>  <Mi>
1.15

>  <NsCH3>
3

>  <NdCH2>
0

>  <NssCH2>
5

>  <NtCH>
0

>  <NdsCH>
0

>  <NaaCH>
2

>  <NsssCH>
0

>  <NddC>
0

>  <NtsC>
0

>  <NdssC>
1

>  <NaasC>
2

>  <NaaaC>
0

>  <NssssC>
0

>  <NsNH3>
0

>  <NsNH2>
0

>  <NssNH2>
0

>  <NdNH>
0

>  <NssNH>
1

>  <NaaNH>
0

>  <NtN>
0

>  <NsssNH>
0

>  <NdsN>
1

>  <NaaN>
0

>  <NsssN>
1

>  <NddsN>
1

>  <NaasN>
0

>  <NssssN>
0

>  <NsOH>
0

>  <NdO>
1

>  <NssO>
0

>  <NaaO>
1

>  <NsF>
0

>  <NsSiH3>
0

>  <NssSiH2>
0

>  <NsssSiH>
0

>  <NssssSi>
0

>  <NsPH2>
0

>  <NssPH>
0

>  <NsssP>
0

>  <NdsssP>
0

>  <NsssssP>
0

>  <NsSH>
0

>  <NdS>
0

>  <NssS>
1

>  <NaaS>
0

>  <NdssS>
0

>  <NddssS>
0

>  <NsCl>
0

>  <NsBr>
0

>  <NsI>
0

>  <fragCpx>
21.08

>  <fMF>
0.12

>  <nHBAcc>
6

>  <nHBDon>
1

>  <Kier1>
19.05

>  <Kier2>
10.68

>  <Lipinski>
1

>  <GhoseFilter>
1

>  <FilterItLogS>
-4.08

>  <VMcGowan>
239.85

>  <LabuteASA>
128.49

>  <PEOE_VSA1>
14.63

>  <PEOE_VSA2>
15.11

>  <PEOE_VSA3>
0

>  <PEOE_VSA4>
11.76

>  <PEOE_VSA5>
0

>  <PEOE_VSA6>
0

>  <PEOE_VSA7>
26.23

>  <PEOE_VSA8>
24.27

>  <PEOE_VSA9>
12.3

>  <PEOE_VSA10>
11.52

>  <PEOE_VSA11>
5.84

>  <PEOE_VSA12>
0

>  <PEOE_VSA13>
6.54

>  <SMR_VSA1>
9.34

>  <SMR_VSA2>
0

>  <SMR_VSA3>
10.22

>  <SMR_VSA4>
4.99

>  <SMR_VSA5>
12.3

>  <SMR_VSA6>
39.99

>  <SMR_VSA7>
33.77

>  <SMR_VSA8>
0

>  <SMR_VSA9>
0

>  <SlogP_VSA1>
5.32

>  <SlogP_VSA2>
55.64

>  <SlogP_VSA3>
12.3

>  <SlogP_VSA4>
10.11

>  <SlogP_VSA5>
11.52

>  <SlogP_VSA6>
21.54

>  <SlogP_VSA7>
0

>  <SlogP_VSA8>
0

>  <SlogP_VSA9>
0

>  <SlogP_VSA10>
0

>  <SlogP_VSA11>
0

>  <EState_VSA1>
4.92

>  <EState_VSA2>
6.54

>  <EState_VSA3>
12.38

>  <EState_VSA4>
29.57

>  <EState_VSA5>
0

>  <EState_VSA6>
18.81

>  <EState_VSA7>
26.23

>  <EState_VSA8>
15.21

>  <EState_VSA9>
4.42

>  <EState_VSA10>
10.11

>  <VSA_EState1>
5.7

>  <VSA_EState2>
15.9

>  <VSA_EState3>
13.35

>  <VSA_EState4>
0

>  <VSA_EState5>
3.95

>  <VSA_EState6>
3.98

>  <VSA_EState7>
0

>  <VSA_EState8>
1.19

>  <VSA_EState9>
5.55

>  <apol>
46.09

>  <bpol>
30.85

>  <nRing>
1

>  <nHRing>
1

>  <naRing>
1

>  <naHRing>
1

>  <nARing 2>
0

>  <nAHRing 2>
0

>  <nFRing>
0

>  <nFHRing>
0

>  <nFaRing>
0

>  <nFaHRing>
0

>  <nFARing 2>
0

>  <nFAHRing 2>
0

>  <nRot>
9

>  <SLogP>
1.47

>  <SMR>
85.48

>  <TopoPSA(NO)>
83.91

>  <TopoPSA>
109.21

>  <JGI1>
0.24

>  <JGI2>
0.04

>  <JGI3>
0.06

>  <JGI4>
0.03

>  <JGI5>
0.02

>  <Diameter>
14

>  <Radius>
7

>  <TMWC10>
111.35

>  <TSRW10>
66.73

>  <MW>
314.14

>  <AMW>
7.31

>  <WPath>
1227

>  <WPol>
22

>  <Zagreb1>
94

>  <Zagreb2>
100

>  <mZagreb2>
4.92

>  <yes>


>  <nAR-cont>
0.336376

>  <nHA-cont>
0.994529749

>  <MWHBN>
0.394944818

>  <MWHBN-cont>
0.495973069

>  <TPSA-cont>
0.237646385

>  <pka_cont>
0.97

>  <yes.1>


>  <BBB_SCORE>
3.035158122

>  <MMFF94 Energy>
41.723

$$$$
Compound 67
Actelion Java MolfileCreator 2.0

  0  0  0  0  0  0              0 V3000
M  V30 BEGIN CTAB
M  V30 COUNTS 40 40 0 0 0
M  V30 BEGIN ATOM
M  V30 1 S -1.3485 -1.0311 2.6985 0
M  V30 2 C -0.0996 0.1626 2.4755 0
M  V30 3 C -2.6838 -0.3751 1.6406 0
M  V30 4 O -0.249 1.2587 1.6758 0
M  V30 5 C 1.1652 0.1721 3.0289 0
M  V30 6 C -2.4312 -0.5531 0.1398 0
M  V30 7 C 0.9184 1.9614 1.7136 0
M  V30 8 C 1.8213 1.3264 2.5388 0
M  V30 9 N -2.4546 -1.9689 -0.2212 0
M  V30 10 C 0.9769 3.2094 0.8987 0
M  V30 11 C -1.4194 -2.6063 -0.6692 0
M  V30 12 N 1.9741 3.125 -0.1846 0
M  V30 13 N -1.6574 -3.9343 -0.9286 0
M  V30 14 C -0.0418 -2.0118 -0.8813 0
M  V30 15 C 2.1793 4.4501 -0.7737 0
M  V30 16 C 1.5411 2.1879 -1.2273 0
M  V30 17 C -0.7549 -4.93 -1.437 0
M  V30 18 N 0.0204 -1.5195 -2.2875 0 CHG=1
M  V30 19 O 0.4812 -2.2944 -3.1379 0
M  V30 20 O -0.3449 -0.3567 -2.5083 0 CHG=-1
M  V30 21 H -3.6016 -0.9044 1.92 0
M  V30 22 H -2.8429 0.683 1.8739 0
M  V30 23 H 1.566 -0.5709 3.7039 0
M  V30 24 H -3.256 -0.0713 -0.3991 0
M  V30 25 H -1.535 -0.018 -0.1763 0
M  V30 26 H 2.8284 1.6589 2.749 0
M  V30 27 H -0.0169 3.4558 0.5026 0
M  V30 28 H 1.2513 4.0211 1.5855 0
M  V30 29 H -2.6134 -4.2262 -0.7449 0
M  V30 30 H 0.1838 -1.1775 -0.2185 0
M  V30 31 H 0.7432 -2.7622 -0.7591 0
M  V30 32 H 2.5502 5.1536 -0.0199 0
M  V30 33 H 1.2587 4.8597 -1.2053 0
M  V30 34 H 2.9407 4.4081 -1.5606 0
M  V30 35 H 0.5753 2.4691 -1.6627 0
M  V30 36 H 1.4621 1.1698 -0.8327 0
M  V30 37 H 2.2814 2.1445 -2.0342 0
M  V30 38 H 0.1269 -5.0249 -0.7971 0
M  V30 39 H -1.2547 -5.9031 -1.4621 0
M  V30 40 H -0.4398 -4.6918 -2.4557 0
M  V30 END ATOM
M  V30 BEGIN BOND
M  V30 1 1 1 2
M  V30 2 1 1 3
M  V30 3 1 2 4
M  V30 4 2 2 5
M  V30 5 1 3 6
M  V30 6 1 4 7
M  V30 7 1 5 8
M  V30 8 1 6 9
M  V30 9 1 7 10
M  V30 10 2 9 11
M  V30 11 1 10 12
M  V30 12 1 11 13
M  V30 13 1 11 14
M  V30 14 1 12 15
M  V30 15 1 12 16
M  V30 16 1 13 17
M  V30 17 1 14 18
M  V30 18 2 18 19
M  V30 19 1 18 20
M  V30 20 2 7 8
M  V30 21 1 3 21
M  V30 22 1 3 22
M  V30 23 1 5 23
M  V30 24 1 6 24
M  V30 25 1 6 25
M  V30 26 1 8 26
M  V30 27 1 10 27
M  V30 28 1 10 28
M  V30 29 1 13 29
M  V30 30 1 14 30
M  V30 31 1 14 31
M  V30 32 1 15 32
M  V30 33 1 15 33
M  V30 34 1 15 34
M  V30 35 1 16 35
M  V30 36 1 16 36
M  V30 37 1 16 37
M  V30 38 1 17 38
M  V30 39 1 17 39
M  V30 40 1 17 40
M  V30 END BOND
M  V30 END CTAB
M  END
>  <Column 1>
85

>  <level_0>
95

>  <index>
95

>  <Unnamed: 0>
95

>  <NO.>
96

>  <Name>


>  <IUPAC_name>


>  <SMILES>
CNC(C[N+](=O)[O-])=NCCSc1ccc(CN(C)C)o1

>  <CID>


>  <logBB>
-1.23

>  <BBB+/BBB->
BBB-

>  <Inchi>
InChI=1S/C12H20N4O3S/c1-13-11(9-16(17)18)14-6-7-20-12-5-4-10(19-12)8-15(2)3/h4-5H-6-9H2-1-3H3-(H-13-14)

>  <threshold>


>  <reference>
R2|R2|

>  <group>
A

>  <Class>
-1

>  <ABC>
14.58

>  <ABCGG>
12.79

>  <nAcid>
0

>  <nBase>
3

>  <nAromAtom>
5

>  <nAromBond>
5

>  <nAtom>
40

>  <nHeavyAtom>
20

>  <nSpiro>
0

>  <nBridgehead>
0

>  <nHetero>
8

>  <nN>
4

>  <nO>
3

>  <nF>
0

>  <BalabanJ>
2.07

>  <BertzCT>
459.31

>  <nBonds>
40

>  <nBondsO>
20

>  <nBondsS>
33

>  <nBondsD>
2

>  <nBondsT>
0

>  <nBondsA>
5

>  <nBondsM>
7

>  <nBondsKS>
36

>  <nBondsKD>
4

>  <RNCG>
0.22

>  <RPCG>
0.13

>  <FCSP3>
0.58

>  <SZ>
26.67

>  <Sm>
25.01

>  <Sv>
23.78

>  <Sse>
40.6

>  <Sp>
25.8

>  <Si>
45.86

>  <MZ>
0.67

>  <Mm>
0.63

>  <Mv>
0.59

>  <Mse>
1.01

>  <Mp>
0.64

>  <Mi>
1.15

>  <NsCH3>
3

>  <NdCH2>
0

>  <NssCH2>
4

>  <NtCH>
0

>  <NdsCH>
0

>  <NaaCH>
2

>  <NsssCH>
0

>  <NddC>
0

>  <NtsC>
0

>  <NdssC>
1

>  <NaasC>
2

>  <NaaaC>
0

>  <NssssC>
0

>  <NsNH3>
0

>  <NsNH2>
0

>  <NssNH2>
0

>  <NdNH>
0

>  <NssNH>
1

>  <NaaNH>
0

>  <NtN>
0

>  <NsssNH>
0

>  <NdsN>
1

>  <NaaN>
0

>  <NsssN>
1

>  <NddsN>
1

>  <NaasN>
0

>  <NssssN>
0

>  <NsOH>
0

>  <NdO>
1

>  <NssO>
0

>  <NaaO>
1

>  <NsF>
0

>  <NsSiH3>
0

>  <NssSiH2>
0

>  <NsssSiH>
0

>  <NssssSi>
0

>  <NsPH2>
0

>  <NssPH>
0

>  <NsssP>
0

>  <NdsssP>
0

>  <NsssssP>
0

>  <NsSH>
0

>  <NdS>
0

>  <NssS>
1

>  <NaaS>
0

>  <NdssS>
0

>  <NddssS>
0

>  <NsCl>
0

>  <NsBr>
0

>  <NsI>
0

>  <fragCpx>
20.08

>  <fMF>
0.13

>  <nHBAcc>
6

>  <nHBDon>
1

>  <Kier1>
18.05

>  <Kier2>
9.85

>  <Lipinski>
1

>  <GhoseFilter>
1

>  <FilterItLogS>
-3.68

>  <VMcGowan>
225.76

>  <LabuteASA>
122.13

>  <PEOE_VSA1>
14.63

>  <PEOE_VSA2>
15.11

>  <PEOE_VSA3>
0

>  <PEOE_VSA4>
0

>  <PEOE_VSA5>
0

>  <PEOE_VSA6>
11.76

>  <PEOE_VSA7>
26.23

>  <PEOE_VSA8>
17.72

>  <PEOE_VSA9>
13.09

>  <PEOE_VSA10>
5.76

>  <PEOE_VSA11>
10.93

>  <PEOE_VSA12>
0

>  <PEOE_VSA13>
6.54

>  <SMR_VSA1>
9.34

>  <SMR_VSA2>
0

>  <SMR_VSA3>
10.22

>  <SMR_VSA4>
4.99

>  <SMR_VSA5>
11.64

>  <SMR_VSA6>
39.99

>  <SMR_VSA7>
28.01

>  <SMR_VSA8>
0

>  <SMR_VSA9>
0

>  <SlogP_VSA1>
5.32

>  <SlogP_VSA2>
55.64

>  <SlogP_VSA3>
6.54

>  <SlogP_VSA4>
10.11

>  <SlogP_VSA5>
5.76

>  <SlogP_VSA6>
26.63

>  <SlogP_VSA7>
0

>  <SlogP_VSA8>
0

>  <SlogP_VSA9>
0

>  <SlogP_VSA10>
0

>  <SlogP_VSA11>
0

>  <EState_VSA1>
4.92

>  <EState_VSA2>
6.54

>  <EState_VSA3>
12.38

>  <EState_VSA4>
23.15

>  <EState_VSA5>
0

>  <EState_VSA6>
18.81

>  <EState_VSA7>
31.13

>  <EState_VSA8>
10.31

>  <EState_VSA9>
4.42

>  <EState_VSA10>
10.11

>  <VSA_EState1>
5.64

>  <VSA_EState2>
16.16

>  <VSA_EState3>
13.95

>  <VSA_EState4>
0

>  <VSA_EState5>
2.03

>  <VSA_EState6>
3.89

>  <VSA_EState7>
0

>  <VSA_EState8>
1.01

>  <VSA_EState9>
5.6

>  <apol>
43.08

>  <bpol>
28.85

>  <nRing>
1

>  <nHRing>
1

>  <naRing>
1

>  <naHRing>
1

>  <nARing 2>
0

>  <nAHRing 2>
0

>  <nFRing>
0

>  <nFHRing>
0

>  <nFaRing>
0

>  <nFaHRing>
0

>  <nFARing 2>
0

>  <nFAHRing 2>
0

>  <nRot>
8

>  <SLogP>
1.33

>  <SMR>
80.05

>  <TopoPSA(NO)>
83.91

>  <TopoPSA>
109.21

>  <JGI1>
0.25

>  <JGI2>
0.04

>  <JGI3>
0.06

>  <JGI4>
0.03

>  <JGI5>
0.02

>  <Diameter>
13

>  <Radius>
7

>  <TMWC10>
109.08

>  <TSRW10>
65.55

>  <MW>
300.13

>  <AMW>
7.5

>  <WPath>
1039

>  <WPol>
21

>  <Zagreb1>
90

>  <Zagreb2>
96

>  <mZagreb2>
4.67

>  <yes>


>  <nAR-cont>
0.336376

>  <nHA-cont>
0.999629945

>  <MWHBN>
0.404057652

>  <MWHBN-cont>
0.460106301

>  <TPSA-cont>
0.237646385

>  <pka_cont>
0.97

>  <yes.1>


>  <BBB_SCORE>
2.986458165

>  <MMFF94 Energy>
13.665

$$$$
Compound 68
Actelion Java MolfileCreator 2.0

  0  0  0  0  0  0              0 V3000
M  V30 BEGIN CTAB
M  V30 COUNTS 73 77 0 0 0
M  V30 BEGIN ATOM
M  V30 1 O 4.2954 -3.5785 -5.2519 0
M  V30 2 C 4.7034 -2.5959 -4.6422 0
M  V30 3 N 3.9216 -1.5927 -4.0908 0
M  V30 4 C 6.1978 -2.3561 -4.4072 0
M  V30 5 C 2.5166 -1.4753 -4.1376 0
M  V30 6 C 7.0104 -3.6194 -4.6816 0
M  V30 7 C 6.6894 -1.2059 -5.284 0
M  V30 8 C 1.9342 -0.4899 -3.3265 0
M  V30 9 C 1.6971 -2.2637 -4.9623 0
M  V30 10 C 0.5564 -0.3335 -3.3412 0
M  V30 11 C 0.3077 -2.0898 -4.9794 0
M  V30 12 C -0.2481 -1.1266 -4.1585 0
M  V30 13 C -0.2661 0.6632 -2.5838 0
M  V30 14 C -1.688 -0.7417 -4.0306 0
M  V30 15 C -1.6898 0.0707 -2.7119 0
M  V30 16 C -2.0611 -0.8379 -1.5141 0
M  V30 17 N -2.0541 -0.1438 -0.2082 0
M  V30 18 C -2.0909 -1.1394 0.8791 0
M  V30 19 C -3.1847 0.785 -0.0746 0
M  V30 20 C -1.9763 -0.5065 2.2793 0 CFG=2
M  V30 21 C -3.0916 1.5495 1.2426 0
M  V30 22 O -2.2254 -1.5565 3.2319 0
M  V30 23 C -3.0381 0.5976 2.4439 0
M  V30 24 C -1.2259 -1.6357 4.2415 0
M  V30 25 N -2.906 1.3277 3.707 0
M  V30 26 C -1.8548 2.139 4.0914 0
M  V30 27 C -3.8262 1.3159 4.7406 0
M  V30 28 C -2.2205 2.5967 5.3539 0
M  V30 29 C -0.6454 2.5173 3.4916 0
M  V30 30 N -3.4323 2.0875 5.7322 0
M  V30 31 C -5.0871 0.5298 4.7356 0
M  V30 32 C -1.3699 3.4653 6.0562 0
M  V30 33 C 0.1924 3.3833 4.2071 0
M  V30 34 C -0.1487 3.8505 5.4816 0
M  V30 35 C 0.7539 4.8042 6.2076 0
M  V30 36 H 4.4037 -0.8776 -3.5621 0
M  V30 37 H 6.3358 -2.0855 -3.3526 0
M  V30 38 H 8.0694 -3.4578 -4.4548 0
M  V30 39 H 6.6562 -4.4513 -4.0632 0
M  V30 40 H 6.9312 -3.9278 -5.7299 0
M  V30 41 H 6.1628 -0.2741 -5.0527 0
M  V30 42 H 6.5239 -1.4204 -6.3456 0
M  V30 43 H 7.7595 -1.0299 -5.1331 0
M  V30 44 H 2.5375 0.1455 -2.6866 0
M  V30 45 H 2.1178 -3.02 -5.618 0
M  V30 46 H -0.3104 -2.7015 -5.629 0
M  V30 47 H -0.2086 1.6353 -3.086 0
M  V30 48 H 0.0689 0.7699 -1.5488 0
M  V30 49 H -1.9709 -0.1053 -4.8763 0
M  V30 50 H -2.349 -1.6125 -3.9904 0
M  V30 51 H -2.4311 0.8734 -2.7899 0
M  V30 52 H -3.0432 -1.297 -1.6908 0
M  V30 53 H -1.3375 -1.6634 -1.4806 0
M  V30 54 H -3.0041 -1.7488 0.8197 0
M  V30 55 H -1.2559 -1.8445 0.7714 0
M  V30 56 H -4.1431 0.253 -0.1337 0
M  V30 57 H -3.1761 1.5269 -0.8794 0
M  V30 58 H -0.9615 -0.1078 2.3955 0
M  V30 59 H -3.9575 2.217 1.3378 0
M  V30 60 H -2.2106 2.1989 1.2069 0
M  V30 61 H -4.0121 0.0945 2.487 0
M  V30 62 H -1.1737 -0.7078 4.8159 0
M  V30 63 H -1.4909 -2.4498 4.9212 0
M  V30 64 H -0.2526 -1.8588 3.7944 0
M  V30 65 H -0.3499 2.1671 2.5091 0
M  V30 66 H -4.8795 -0.5386 4.625 0
M  V30 67 H -5.7439 0.854 3.9228 0
M  V30 68 H -5.6268 0.6694 5.6778 0
M  V30 69 H -1.6723 3.8204 7.0357 0
M  V30 70 H 1.1309 3.6948 3.7513 0
M  V30 71 H 0.5031 5.8348 5.9385 0
M  V30 72 H 1.8029 4.6172 5.9556 0
M  V30 73 H 0.6552 4.6874 7.292 0
M  V30 END ATOM
M  V30 BEGIN BOND
M  V30 1 2 1 2
M  V30 2 1 2 3
M  V30 3 1 2 4
M  V30 4 1 3 5
M  V30 5 1 4 6
M  V30 6 1 4 7
M  V30 7 2 5 8
M  V30 8 1 5 9
M  V30 9 1 8 10
M  V30 10 2 9 11
M  V30 11 2 10 12
M  V30 12 1 10 13
M  V30 13 1 12 14
M  V30 14 1 13 15
M  V30 15 1 15 16
M  V30 16 1 16 17
M  V30 17 1 17 18
M  V30 18 1 17 19
M  V30 19 1 18 20
M  V30 20 1 19 21
M  V30 21 1 20 22
M  V30 22 1 20 23
M  V30 23 1 22 24
M  V30 24 1 23 25
M  V30 25 1 25 26
M  V30 26 1 25 27
M  V30 27 2 26 28
M  V30 28 1 26 29
M  V30 29 2 27 30
M  V30 30 1 27 31
M  V30 31 1 28 32
M  V30 32 2 29 33
M  V30 33 2 32 34
M  V30 34 1 34 35
M  V30 35 1 11 12
M  V30 36 1 14 15
M  V30 37 1 21 23
M  V30 38 1 28 30
M  V30 39 1 33 34
M  V30 40 1 3 36
M  V30 41 1 4 37
M  V30 42 1 6 38
M  V30 43 1 6 39
M  V30 44 1 6 40
M  V30 45 1 7 41
M  V30 46 1 7 42
M  V30 47 1 7 43
M  V30 48 1 8 44
M  V30 49 1 9 45
M  V30 50 1 11 46
M  V30 51 1 13 47
M  V30 52 1 13 48
M  V30 53 1 14 49
M  V30 54 1 14 50
M  V30 55 1 15 51
M  V30 56 1 16 52
M  V30 57 1 16 53
M  V30 58 1 18 54
M  V30 59 1 18 55
M  V30 60 1 19 56
M  V30 61 1 19 57
M  V30 62 1 20 58
M  V30 63 1 21 59
M  V30 64 1 21 60
M  V30 65 1 23 61
M  V30 66 1 24 62
M  V30 67 1 24 63
M  V30 68 1 24 64
M  V30 69 1 29 65
M  V30 70 1 31 66
M  V30 71 1 31 67
M  V30 72 1 31 68
M  V30 73 1 32 69
M  V30 74 1 33 70
M  V30 75 1 35 71
M  V30 76 1 35 72
M  V30 77 1 35 73
M  V30 END BOND
M  V30 BEGIN COLLECTION
M  V30 MDLV30/STEABS ATOMS=(1 20)
M  V30 END COLLECTION
M  V30 END CTAB
M  END
>  <Column 1>
87

>  <level_0>
97

>  <index>
97

>  <Unnamed: 0>
97

>  <NO.>
98

>  <Name>
compound 5

>  <IUPAC_name>


>  <SMILES>
CO[C@H]1CN(CC2Cc3ccc(NC(=O)C(C)C)cc3C2)CCC1n1c(C)nc2cc(C)ccc21

>  <CID>


>  <logBB>
-1.22

>  <BBB+/BBB->
BBB-

>  <Inchi>
InChI=1S/C29H38N4O2/c1-18(2)29(34)31-24-8-7-22-13-21(14-23(22)15-24)16-32-11-10-27(28(17-32)35-5)33-20(4)30-25-12-19(3)6-9-26(25)33/h6-9-12-15-18-21-27-28H-10-11-13-14-16-17H2-1-5H3-(H-31-34)/t21?-27?-28-/m0/s1

>  <threshold>


>  <reference>
R18|R26|R27|

>  <group>
A

>  <Class>
-1

>  <ABC>
27.84

>  <ABCGG>
20.39

>  <nAcid>
0

>  <nBase>
1

>  <nAromAtom>
15

>  <nAromBond>
16

>  <nAtom>
73

>  <nHeavyAtom>
35

>  <nSpiro>
0

>  <nBridgehead>
0

>  <nHetero>
6

>  <nN>
4

>  <nO>
2

>  <nF>
0

>  <BalabanJ>
1.13

>  <BertzCT>
1230.89

>  <nBonds>
77

>  <nBondsO>
39

>  <nBondsS>
60

>  <nBondsD>
1

>  <nBondsT>
0

>  <nBondsA>
16

>  <nBondsM>
17

>  <nBondsKS>
69

>  <nBondsKD>
8

>  <RNCG>
0.15

>  <RPCG>
0.09

>  <FCSP3>
0.52

>  <SZ>
42.67

>  <Sm>
39.52

>  <Sv>
43.76

>  <Sse>
72.18

>  <Sp>
47.77

>  <Si>
82.47

>  <MZ>
0.58

>  <Mm>
0.54

>  <Mv>
0.6

>  <Mse>
0.99

>  <Mp>
0.65

>  <Mi>
1.13

>  <NsCH3>
5

>  <NdCH2>
0

>  <NssCH2>
6

>  <NtCH>
0

>  <NdsCH>
0

>  <NaaCH>
6

>  <NsssCH>
4

>  <NddC>
0

>  <NtsC>
0

>  <NdssC>
1

>  <NaasC>
5

>  <NaaaC>
2

>  <NssssC>
0

>  <NsNH3>
0

>  <NsNH2>
0

>  <NssNH2>
0

>  <NdNH>
0

>  <NssNH>
1

>  <NaaNH>
0

>  <NtN>
0

>  <NsssNH>
0

>  <NdsN>
0

>  <NaaN>
1

>  <NsssN>
1

>  <NddsN>
0

>  <NaasN>
1

>  <NssssN>
0

>  <NsOH>
0

>  <NdO>
1

>  <NssO>
1

>  <NaaO>
0

>  <NsF>
0

>  <NsSiH3>
0

>  <NssSiH2>
0

>  <NsssSiH>
0

>  <NssssSi>
0

>  <NsPH2>
0

>  <NssPH>
0

>  <NsssP>
0

>  <NdsssP>
0

>  <NsssssP>
0

>  <NsSH>
0

>  <NdS>
0

>  <NssS>
0

>  <NaaS>
0

>  <NdssS>
0

>  <NddssS>
0

>  <NsCl>
0

>  <NsBr>
0

>  <NsI>
0

>  <fragCpx>
331.06

>  <fMF>
0.34

>  <nHBAcc>
5

>  <nHBDon>
1

>  <Kier1>
26.6

>  <Kier2>
11.4

>  <Lipinski>
1

>  <GhoseFilter>
0

>  <FilterItLogS>
-6.54

>  <VMcGowan>
382.43

>  <LabuteASA>
208.22

>  <PEOE_VSA1>
19.52

>  <PEOE_VSA2>
4.79

>  <PEOE_VSA3>
4.98

>  <PEOE_VSA4>
0

>  <PEOE_VSA5>
0

>  <PEOE_VSA6>
25.98

>  <PEOE_VSA7>
79.98

>  <PEOE_VSA8>
38.35

>  <PEOE_VSA9>
23.18

>  <PEOE_VSA10>
5.82

>  <PEOE_VSA11>
0

>  <PEOE_VSA12>
5.91

>  <PEOE_VSA13>
0

>  <SMR_VSA1>
9.53

>  <SMR_VSA2>
0

>  <SMR_VSA3>
14.45

>  <SMR_VSA4>
11.84

>  <SMR_VSA5>
59.1

>  <SMR_VSA6>
32.06

>  <SMR_VSA7>
58.91

>  <SMR_VSA8>
0

>  <SMR_VSA9>
0

>  <SlogP_VSA1>
5.32

>  <SlogP_VSA2>
53.21

>  <SlogP_VSA3>
22.37

>  <SlogP_VSA4>
25.68

>  <SlogP_VSA5>
48.82

>  <SlogP_VSA6>
36.4

>  <SlogP_VSA7>
0

>  <SlogP_VSA8>
11.03

>  <SlogP_VSA9>
0

>  <SlogP_VSA10>
5.69

>  <SlogP_VSA11>
0

>  <EState_VSA1>
0

>  <EState_VSA2>
17.93

>  <EState_VSA3>
11.96

>  <EState_VSA4>
55.93

>  <EState_VSA5>
22.21

>  <EState_VSA6>
0

>  <EState_VSA7>
27.02

>  <EState_VSA8>
58.96

>  <EState_VSA9>
9.72

>  <EState_VSA10>
4.79

>  <VSA_EState1>
8.45

>  <VSA_EState2>
19.51

>  <VSA_EState3>
3.05

>  <VSA_EState4>
7.25

>  <VSA_EState5>
1.73

>  <VSA_EState6>
13.28

>  <VSA_EState7>
3.38

>  <VSA_EState8>
11.17

>  <VSA_EState9>
1.85

>  <apol>
79.77

>  <bpol>
45.86

>  <nRing>
5

>  <nHRing>
2

>  <naRing>
3

>  <naHRing>
1

>  <nARing 2>
2

>  <nAHRing 2>
1

>  <nFRing>
2

>  <nFHRing>
1

>  <nFaRing>
1

>  <nFaHRing>
1

>  <nFARing 2>
1

>  <nFAHRing 2>
0

>  <nRot>
6

>  <SLogP>
4.92

>  <SMR>
140.91

>  <TopoPSA(NO)>
59.39

>  <TopoPSA>
59.39

>  <JGI1>
0.22

>  <JGI2>
0.07

>  <JGI3>
0.06

>  <JGI4>
0.04

>  <JGI5>
0.03

>  <Diameter>
19

>  <Radius>
10

>  <TMWC10>
153.59

>  <TSRW10>
87.96

>  <MW>
474.3

>  <AMW>
6.5

>  <WPath>
4214

>  <WPol>
58

>  <Zagreb1>
192

>  <Zagreb2>
230

>  <mZagreb2>
7.53

>  <yes>


>  <nAR-cont>
1

>  <nHA-cont>
0.523063577

>  <MWHBN>
0.275501957

>  <MWHBN-cont>
0.907213332

>  <TPSA-cont>
0.585420921

>  <pka_cont>
0.97

>  <yes.1>


>  <BBB_SCORE>
4.539725418

>  <MMFF94 Energy>
58.684

$$$$
Compound 69
Actelion Java MolfileCreator 2.0

  0  0  0  0  0  0              0 V3000
M  V30 BEGIN CTAB
M  V30 COUNTS 31 32 0 0 0
M  V30 BEGIN ATOM
M  V30 1 O 2.6609 3.4445 -1.1732 0
M  V30 2 C 1.3546 3.0486 -1.1193 0
M  V30 3 C 1.0161 1.726 -0.8244 0
M  V30 4 C 0.3836 4.0095 -1.3676 0
M  V30 5 C -0.3482 1.367 -0.779 0
M  V30 6 C -0.9729 3.6775 -1.3274 0
M  V30 7 C -1.3063 2.3503 -1.0302 0
M  V30 8 C -1.0477 0.1444 -0.515 0
M  V30 9 N -2.5392 1.7509 -0.9237 0
M  V30 10 C -2.3966 0.4254 -0.6149 0
M  V30 11 C -0.4398 -1.1877 -0.1932 0
M  V30 12 C -0.0591 -1.3071 1.2948 0
M  V30 13 N 0.5524 -2.5742 1.7339 0
M  V30 14 C 1.8339 -2.8373 1.0873 0
M  V30 15 C -0.3505 -3.7128 1.5944 0
M  V30 16 H 3.2218 2.6798 -0.9653 0
M  V30 17 H 1.7766 0.9787 -0.6306 0
M  V30 18 H 0.6826 5.0296 -1.594 0
M  V30 19 H -1.7335 4.4268 -1.5199 0
M  V30 20 H -3.4203 2.2277 -1.0559 0
M  V30 21 H -3.2663 -0.2063 -0.4917 0
M  V30 22 H 0.4424 -1.3312 -0.8274 0
M  V30 23 H -1.1532 -1.9747 -0.4653 0
M  V30 24 H 0.6265 -0.4905 1.5585 0
M  V30 25 H -0.9521 -1.1259 1.9087 0
M  V30 26 H 2.5132 -1.9866 1.2108 0
M  V30 27 H 1.7318 -3.047 0.0172 0
M  V30 28 H 2.3245 -3.6989 1.5538 0
M  V30 29 H -0.5585 -3.9607 0.5482 0
M  V30 30 H -1.3023 -3.5183 2.1009 0
M  V30 31 H 0.081 -4.6 2.0714 0
M  V30 END ATOM
M  V30 BEGIN BOND
M  V30 1 1 1 2
M  V30 2 2 2 3
M  V30 3 1 2 4
M  V30 4 1 3 5
M  V30 5 2 4 6
M  V30 6 2 5 7
M  V30 7 1 5 8
M  V30 8 1 7 9
M  V30 9 2 8 10
M  V30 10 1 8 11
M  V30 11 1 11 12
M  V30 12 1 12 13
M  V30 13 1 13 14
M  V30 14 1 13 15
M  V30 15 1 6 7
M  V30 16 1 9 10
M  V30 17 1 1 16
M  V30 18 1 3 17
M  V30 19 1 4 18
M  V30 20 1 6 19
M  V30 21 1 9 20
M  V30 22 1 10 21
M  V30 23 1 11 22
M  V30 24 1 11 23
M  V30 25 1 12 24
M  V30 26 1 12 25
M  V30 27 1 14 26
M  V30 28 1 14 27
M  V30 29 1 14 28
M  V30 30 1 15 29
M  V30 31 1 15 30
M  V30 32 1 15 31
M  V30 END BOND
M  V30 END CTAB
M  END
>  <Column 1>
89

>  <level_0>
102

>  <index>
102

>  <Unnamed: 0>
102

>  <NO.>
103

>  <Name>
bufotenine

>  <IUPAC_name>
3-[2-(dimethylamino)ethyl]-1h-indol-5-ol

>  <SMILES>
CN(C)CCc1c[nH]c2ccc(O)cc12

>  <CID>
10257

>  <logBB>
-1.19

>  <BBB+/BBB->
BBB-

>  <Inchi>
InChI=1S/C12H16N2O/c1-14(2)6-5-9-8-13-12-4-3-10(15)7-11(9)12/h3-4-7-8-13-15H-5-6H2-1-2H3

>  <threshold>


>  <reference>
R18|R26|R27|

>  <group>
A

>  <Class>
-1

>  <ABC>
11.56

>  <ABCGG>
10.29

>  <nAcid>
0

>  <nBase>
1

>  <nAromAtom>
9

>  <nAromBond>
10

>  <nAtom>
31

>  <nHeavyAtom>
15

>  <nSpiro>
0

>  <nBridgehead>
0

>  <nHetero>
3

>  <nN>
2

>  <nO>
1

>  <nF>
0

>  <BalabanJ>
1.85

>  <BertzCT>
459.59

>  <nBonds>
32

>  <nBondsO>
16

>  <nBondsS>
22

>  <nBondsD>
0

>  <nBondsT>
0

>  <nBondsA>
10

>  <nBondsM>
10

>  <nBondsKS>
28

>  <nBondsKD>
4

>  <RNCG>
0.39

>  <RPCG>
0.23

>  <FCSP3>
0.33

>  <SZ>
18.33

>  <Sm>
17.01

>  <Sv>
18.57

>  <Sse>
30.76

>  <Sp>
20.19

>  <Si>
35.11

>  <MZ>
0.59

>  <Mm>
0.55

>  <Mv>
0.6

>  <Mse>
0.99

>  <Mp>
0.65

>  <Mi>
1.13

>  <NsCH3>
2

>  <NdCH2>
0

>  <NssCH2>
2

>  <NtCH>
0

>  <NdsCH>
0

>  <NaaCH>
4

>  <NsssCH>
0

>  <NddC>
0

>  <NtsC>
0

>  <NdssC>
0

>  <NaasC>
2

>  <NaaaC>
2

>  <NssssC>
0

>  <NsNH3>
0

>  <NsNH2>
0

>  <NssNH2>
0

>  <NdNH>
0

>  <NssNH>
0

>  <NaaNH>
1

>  <NtN>
0

>  <NsssNH>
0

>  <NdsN>
0

>  <NaaN>
0

>  <NsssN>
1

>  <NddsN>
0

>  <NaasN>
0

>  <NssssN>
0

>  <NsOH>
1

>  <NdO>
0

>  <NssO>
0

>  <NaaO>
0

>  <NsF>
0

>  <NsSiH3>
0

>  <NssSiH2>
0

>  <NsssSiH>
0

>  <NssssSi>
0

>  <NsPH2>
0

>  <NssPH>
0

>  <NsssP>
0

>  <NdsssP>
0

>  <NsssssP>
0

>  <NsSH>
0

>  <NdS>
0

>  <NssS>
0

>  <NaaS>
0

>  <NdssS>
0

>  <NddssS>
0

>  <NsCl>
0

>  <NsBr>
0

>  <NsI>
0

>  <fragCpx>
46.03

>  <fMF>
0.29

>  <nHBAcc>
2

>  <nHBDon>
2

>  <Kier1>
11.48

>  <Kier2>
4.89

>  <Lipinski>
1

>  <GhoseFilter>
1

>  <FilterItLogS>
-3.03

>  <VMcGowan>
166.85

>  <LabuteASA>
89.34

>  <PEOE_VSA1>
14.99

>  <PEOE_VSA2>
0

>  <PEOE_VSA3>
0

>  <PEOE_VSA4>
0

>  <PEOE_VSA5>
0

>  <PEOE_VSA6>
0

>  <PEOE_VSA7>
44.28

>  <PEOE_VSA8>
23.64

>  <PEOE_VSA9>
0

>  <PEOE_VSA10>
5.75

>  <PEOE_VSA11>
0

>  <PEOE_VSA12>
0

>  <PEOE_VSA13>
0

>  <SMR_VSA1>
5.11

>  <SMR_VSA2>
0

>  <SMR_VSA3>
9.88

>  <SMR_VSA4>
0

>  <SMR_VSA5>
6.42

>  <SMR_VSA6>
20.64

>  <SMR_VSA7>
29.96

>  <SMR_VSA8>
0

>  <SMR_VSA9>
5.75

>  <SlogP_VSA1>
0

>  <SlogP_VSA2>
35.63

>  <SlogP_VSA3>
6.42

>  <SlogP_VSA4>
0

>  <SlogP_VSA5>
5.56

>  <SlogP_VSA6>
24.4

>  <SlogP_VSA7>
0

>  <SlogP_VSA8>
10.9

>  <SlogP_VSA9>
0

>  <SlogP_VSA10>
0

>  <SlogP_VSA11>
5.75

>  <EState_VSA1>
0

>  <EState_VSA2>
0

>  <EState_VSA3>
5.75

>  <EState_VSA4>
23.87

>  <EState_VSA5>
5.56

>  <EState_VSA6>
6.07

>  <EState_VSA7>
18.33

>  <EState_VSA8>
23.98

>  <EState_VSA9>
0

>  <EState_VSA10>
5.11

>  <VSA_EState1>
0

>  <VSA_EState2>
5.36

>  <VSA_EState3>
10.55

>  <VSA_EState4>
2.34

>  <VSA_EState5>
0.33

>  <VSA_EState6>
5.43

>  <VSA_EState7>
3.02

>  <VSA_EState8>
1.02

>  <VSA_EState9>
4.12

>  <apol>
33.71

>  <bpol>
18.33

>  <nRing>
2

>  <nHRing>
1

>  <naRing>
2

>  <naHRing>
1

>  <nARing 2>
0

>  <nAHRing 2>
0

>  <nFRing>
1

>  <nFHRing>
1

>  <nFaRing>
1

>  <nFaHRing>
1

>  <nFARing 2>
0

>  <nFAHRing 2>
0

>  <nRot>
3

>  <SLogP>
1.98

>  <SMR>
62.22

>  <TopoPSA(NO)>
39.26

>  <TopoPSA>
39.26

>  <JGI1>
0.22

>  <JGI2>
0.08

>  <JGI3>
0.04

>  <JGI4>
0.05

>  <JGI5>
0.03

>  <Diameter>
8

>  <Radius>
4

>  <TMWC10>
100.97

>  <TSRW10>
60.83

>  <MW>
204.13

>  <AMW>
6.58

>  <WPath>
376

>  <WPol>
19

>  <Zagreb1>
76

>  <Zagreb2>
87

>  <mZagreb2>
3.31

>  <yes>


>  <nAR-cont>
0.336376

>  <nHA-cont>
0.92539861

>  <MWHBN>
0.279966826

>  <MWHBN-cont>
0.896165815

>  <TPSA-cont>
0.725940821

>  <pka_cont>
0.97

>  <yes.1>


>  <BBB_SCORE>
4.542904975

>  <MMFF94 Energy>
24.639

$$$$
Compound 70
Actelion Java MolfileCreator 2.0

  0  0  0  0  0  0              0 V3000
M  V30 BEGIN CTAB
M  V30 COUNTS 48 49 0 0 0
M  V30 BEGIN ATOM
M  V30 1 O 0.3954 -2.7705 -0.079 0
M  V30 2 C -0.0922 -1.7578 -0.563 0
M  V30 3 N -0.9353 -1.7479 -1.6469 0
M  V30 4 C 0.168 -0.4005 -0.0237 0
M  V30 5 C -1.3048 -2.9747 -2.3283 0
M  V30 6 C 0.9501 -0.2514 1.0565 0
M  V30 7 C -2.4057 -3.7375 -1.5879 0
M  V30 8 C 1.2381 1.0535 1.6624 0
M  V30 9 C -2.8164 -4.9836 -2.3315 0
M  V30 10 C 1.5722 2.1711 0.8844 0
M  V30 11 C 1.2109 1.1729 3.0613 0
M  V30 12 C -3.9111 -4.9664 -3.206 0
M  V30 13 C -2.0868 -6.1701 -2.1763 0
M  V30 14 C 1.8259 3.3961 1.5037 0
M  V30 15 C 1.488 2.3953 3.6802 0
M  V30 16 C -4.2733 -6.1183 -3.9062 0
M  V30 17 C -2.4505 -7.3204 -2.8776 0
M  V30 18 O 2.1763 4.5212 0.7486 0
M  V30 19 C 1.8113 3.498 2.8944 0
M  V30 20 C -3.5435 -7.2944 -3.7418 0
M  V30 21 C 1.1829 4.9891 -0.1029 0
M  V30 22 O 2.0507 4.7201 3.5226 0
M  V30 23 O 0.0627 4.5212 -0.2574 0
M  V30 24 C 1.7029 6.1928 -0.8312 0
M  V30 25 C 3.4054 4.9841 3.6821 0
M  V30 26 O 4.342 4.266 3.3599 0
M  V30 27 C 3.5587 6.3255 4.3359 0
M  V30 28 H -1.3115 -0.8758 -1.9926 0
M  V30 29 H -0.2985 0.445 -0.5127 0
M  V30 30 H -0.4085 -3.5967 -2.4382 0
M  V30 31 H -1.6385 -2.6929 -3.3333 0
M  V30 32 H 1.3845 -1.119 1.5506 0
M  V30 33 H -2.0748 -4.0102 -0.5776 0
M  V30 34 H -3.2787 -3.0876 -1.4433 0
M  V30 35 H 1.6323 2.0943 -0.1971 0
M  V30 36 H 0.9634 0.3122 3.6802 0
M  V30 37 H -4.4904 -4.0567 -3.3459 0
M  V30 38 H -1.2298 -6.2028 -1.5056 0
M  V30 39 H 1.4563 2.4775 4.7624 0
M  V30 40 H -5.1257 -6.0986 -4.5802 0
M  V30 41 H -1.8801 -8.2365 -2.7487 0
M  V30 42 H -3.8265 -8.191 -4.2867 0
M  V30 43 H 1.9626 6.976 -0.1143 0
M  V30 44 H 2.5728 5.9153 -1.4317 0
M  V30 45 H 0.9257 6.5759 -1.4987 0
M  V30 46 H 3.1131 7.0984 3.7045 0
M  V30 47 H 3.0875 6.3134 5.322 0
M  V30 48 H 4.6223 6.5483 4.4601 0
M  V30 END ATOM
M  V30 BEGIN BOND
M  V30 1 2 1 2
M  V30 2 1 2 3
M  V30 3 1 2 4
M  V30 4 1 3 5
M  V30 5 2 4 6
M  V30 6 1 5 7
M  V30 7 1 6 8
M  V30 8 1 7 9
M  V30 9 2 8 10
M  V30 10 1 8 11
M  V30 11 2 9 12
M  V30 12 1 9 13
M  V30 13 1 10 14
M  V30 14 2 11 15
M  V30 15 1 12 16
M  V30 16 2 13 17
M  V30 17 1 14 18
M  V30 18 2 14 19
M  V30 19 2 16 20
M  V30 20 1 18 21
M  V30 21 1 19 22
M  V30 22 2 21 23
M  V30 23 1 21 24
M  V30 24 1 22 25
M  V30 25 2 25 26
M  V30 26 1 25 27
M  V30 27 1 15 19
M  V30 28 1 17 20
M  V30 29 1 3 28
M  V30 30 1 4 29
M  V30 31 1 5 30
M  V30 32 1 5 31
M  V30 33 1 6 32
M  V30 34 1 7 33
M  V30 35 1 7 34
M  V30 36 1 10 35
M  V30 37 1 11 36
M  V30 38 1 12 37
M  V30 39 1 13 38
M  V30 40 1 15 39
M  V30 41 1 16 40
M  V30 42 1 17 41
M  V30 43 1 20 42
M  V30 44 1 24 43
M  V30 45 1 24 44
M  V30 46 1 24 45
M  V30 47 1 27 46
M  V30 48 1 27 47
M  V30 49 1 27 48
M  V30 END BOND
M  V30 END CTAB
M  END
>  <Column 1>
90

>  <level_0>
103

>  <index>
103

>  <Unnamed: 0>
103

>  <NO.>
104

>  <Name>
y12

>  <IUPAC_name>
[2-acetyloxy-4-[(e)-3-oxo-3-(2-phenylethylamino)prop-1-enyl]phenyl] acetate

>  <SMILES>
CC(=O)Oc1ccc(/C=C/C(=O)NCCc2ccccc2)cc1OC(C)=O

>  <CID>
11957394

>  <logBB>
-1.17

>  <BBB+/BBB->
BBB-

>  <Inchi>
InChI=1S/C21H21NO5/c1-15(23)26-19-10-8-18(14-20(19)27-16(2)24)9-11-21(25)22-13-12-17-6-4-3-5-7-17/h3-11-14H-12-13H2-1-2H3-(H-22-25)/b11-9+

>  <threshold>


>  <reference>
R11|

>  <group>
A

>  <Class>
-1

>  <ABC>
20.31

>  <ABCGG>
15.8

>  <nAcid>
0

>  <nBase>
0

>  <nAromAtom>
12

>  <nAromBond>
12

>  <nAtom>
48

>  <nHeavyAtom>
27

>  <nSpiro>
0

>  <nBridgehead>
0

>  <nHetero>
6

>  <nN>
1

>  <nO>
5

>  <nF>
0

>  <BalabanJ>
1.65

>  <BertzCT>
842.91

>  <nBonds>
49

>  <nBondsO>
28

>  <nBondsS>
33

>  <nBondsD>
4

>  <nBondsT>
0

>  <nBondsA>
12

>  <nBondsM>
16

>  <nBondsKS>
39

>  <nBondsKD>
10

>  <RNCG>
0.17

>  <RPCG>
0.12

>  <FCSP3>
0.19

>  <SZ>
32.33

>  <Sm>
30.59

>  <Sv>
31.02

>  <Sse>
48.64

>  <Sp>
32.44

>  <Si>
53.7

>  <MZ>
0.67

>  <Mm>
0.64

>  <Mv>
0.65

>  <Mse>
1.01

>  <Mp>
0.68

>  <Mi>
1.12

>  <NsCH3>
2

>  <NdCH2>
0

>  <NssCH2>
2

>  <NtCH>
0

>  <NdsCH>
2

>  <NaaCH>
8

>  <NsssCH>
0

>  <NddC>
0

>  <NtsC>
0

>  <NdssC>
3

>  <NaasC>
4

>  <NaaaC>
0

>  <NssssC>
0

>  <NsNH3>
0

>  <NsNH2>
0

>  <NssNH2>
0

>  <NdNH>
0

>  <NssNH>
1

>  <NaaNH>
0

>  <NtN>
0

>  <NsssNH>
0

>  <NdsN>
0

>  <NaaN>
0

>  <NsssN>
0

>  <NddsN>
0

>  <NaasN>
0

>  <NssssN>
0

>  <NsOH>
0

>  <NdO>
3

>  <NssO>
2

>  <NaaO>
0

>  <NsF>
0

>  <NsSiH3>
0

>  <NssSiH2>
0

>  <NsssSiH>
0

>  <NssssSi>
0

>  <NsPH2>
0

>  <NssPH>
0

>  <NsssP>
0

>  <NdsssP>
0

>  <NsssssP>
0

>  <NsSH>
0

>  <NdS>
0

>  <NssS>
0

>  <NaaS>
0

>  <NdssS>
0

>  <NddssS>
0

>  <NsCl>
0

>  <NsBr>
0

>  <NsI>
0

>  <fragCpx>
82.06

>  <fMF>
0.38

>  <nHBAcc>
5

>  <nHBDon>
1

>  <Kier1>
23.28

>  <Kier2>
12.54

>  <Lipinski>
1

>  <GhoseFilter>
1

>  <FilterItLogS>
-4.7

>  <VMcGowan>
281.36

>  <LabuteASA>
157.34

>  <PEOE_VSA1>
14.79

>  <PEOE_VSA2>
14.38

>  <PEOE_VSA3>
0

>  <PEOE_VSA4>
0

>  <PEOE_VSA5>
0

>  <PEOE_VSA6>
36.4

>  <PEOE_VSA7>
35.76

>  <PEOE_VSA8>
26.47

>  <PEOE_VSA9>
0

>  <PEOE_VSA10>
0

>  <PEOE_VSA11>
11.5

>  <PEOE_VSA12>
5.91

>  <PEOE_VSA13>
0

>  <SMR_VSA1>
23.86

>  <SMR_VSA2>
0

>  <SMR_VSA3>
5.32

>  <SMR_VSA4>
0

>  <SMR_VSA5>
20.27

>  <SMR_VSA6>
6.54

>  <SMR_VSA7>
65.73

>  <SMR_VSA8>
0

>  <SMR_VSA9>
11.5

>  <SlogP_VSA1>
14.79

>  <SlogP_VSA2>
24.39

>  <SlogP_VSA3>
20.8

>  <SlogP_VSA4>
0

>  <SlogP_VSA5>
24.97

>  <SlogP_VSA6>
54.61

>  <SlogP_VSA7>
0

>  <SlogP_VSA8>
6.08

>  <SlogP_VSA9>
0

>  <SlogP_VSA10>
0

>  <SlogP_VSA11>
11.5

>  <EState_VSA1>
11.94

>  <EState_VSA2>
17.41

>  <EState_VSA3>
12.11

>  <EState_VSA4>
11.98

>  <EState_VSA5>
32.06

>  <EState_VSA6>
12.14

>  <EState_VSA7>
30.33

>  <EState_VSA8>
5.32

>  <EState_VSA9>
9.47

>  <EState_VSA10>
14.38

>  <VSA_EState1>
10.06

>  <VSA_EState2>
34.27

>  <VSA_EState3>
2.81

>  <VSA_EState4>
1.77

>  <VSA_EState5>
-1.04

>  <VSA_EState6>
14.54

>  <VSA_EState7>
3.72

>  <VSA_EState8>
3.03

>  <VSA_EState9>
0

>  <apol>
54.18

>  <bpol>
27.71

>  <nRing>
2

>  <nHRing>
0

>  <naRing>
2

>  <naHRing>
0

>  <nARing 2>
0

>  <nAHRing 2>
0

>  <nFRing>
0

>  <nFHRing>
0

>  <nFaRing>
0

>  <nFaHRing>
0

>  <nFARing 2>
0

>  <nFAHRing 2>
0

>  <nRot>
7

>  <SLogP>
2.91

>  <SMR>
101.25

>  <TopoPSA(NO)>
81.7

>  <TopoPSA>
81.7

>  <JGI1>
0.21

>  <JGI2>
0.06

>  <JGI3>
0.03

>  <JGI4>
0.04

>  <JGI5>
0.02

>  <Diameter>
16

>  <Radius>
8

>  <TMWC10>
128.03

>  <TSRW10>
61.11

>  <MW>
367.14

>  <AMW>
7.65

>  <WPath>
2284

>  <WPol>
34

>  <Zagreb1>
128

>  <Zagreb2>
140

>  <mZagreb2>
6.11

>  <yes>


>  <nAR-cont>
0.336376

>  <nHA-cont>
0.860070871

>  <MWHBN>
0.31313773

>  <MWHBN-cont>
0.799794311

>  <TPSA-cont>
0.429683267

>  <pka_cont>
0.97

>  <yes.1>


>  <BBB_SCORE>
3.740504872

>  <MMFF94 Energy>
29.953

$$$$
Compound 71
Actelion Java MolfileCreator 2.0

  0  0  0  0  0  0              0 V3000
M  V30 BEGIN CTAB
M  V30 COUNTS 27 28 0 0 0
M  V30 BEGIN ATOM
M  V30 1 N 2.1082 -1.3269 0.7023 0
M  V30 2 C 1.1209 -1.2673 -0.2213 0
M  V30 3 C 2.1275 -0.4258 1.7078 0
M  V30 4 N 1.1248 -2.2067 -1.239 0
M  V30 5 C 0.1396 -0.2827 -0.1212 0
M  V30 6 C 1.1909 0.5721 1.862 0
M  V30 7 C 2.2268 -3.1534 -1.2695 0
M  V30 8 C 0.2299 -2.1243 -2.3756 0
M  V30 9 C 0.1674 0.6495 0.9246 0
M  V30 10 C -0.8619 1.6779 1.021 0
M  V30 11 N -0.9098 2.6037 1.9951 0
M  V30 12 N -1.8859 1.7833 0.1009 0
M  V30 13 N -2.0073 3.2984 1.6552 0
M  V30 14 C -2.5847 2.8028 0.523 0
M  V30 15 N -3.6898 3.3234 -0.0178 0
M  V30 16 H 2.9487 -0.5365 2.4093 0
M  V30 17 H -0.6619 -0.2246 -0.849 0
M  V30 18 H 1.2594 1.2674 2.6913 0
M  V30 19 H 3.1743 -2.6426 -1.4747 0
M  V30 20 H 2.0859 -3.9075 -2.0516 0
M  V30 21 H 2.3106 -3.6996 -0.3228 0
M  V30 22 H 0.3849 -1.1913 -2.9285 0
M  V30 23 H -0.8165 -2.1852 -2.0578 0
M  V30 24 H 0.392 -2.9485 -3.0787 0
M  V30 25 H -2.3016 4.0807 2.2238 0
M  V30 26 H -4.2029 4.1171 0.3435 0
M  V30 27 H -4.0642 2.9009 -0.8618 0
M  V30 END ATOM
M  V30 BEGIN BOND
M  V30 1 2 1 2
M  V30 2 1 1 3
M  V30 3 1 2 4
M  V30 4 1 2 5
M  V30 5 2 3 6
M  V30 6 1 4 7
M  V30 7 1 4 8
M  V30 8 2 5 9
M  V30 9 1 9 10
M  V30 10 2 10 11
M  V30 11 1 10 12
M  V30 12 1 11 13
M  V30 13 2 12 14
M  V30 14 1 14 15
M  V30 15 1 6 9
M  V30 16 1 13 14
M  V30 17 1 3 16
M  V30 18 1 5 17
M  V30 19 1 6 18
M  V30 20 1 7 19
M  V30 21 1 7 20
M  V30 22 1 7 21
M  V30 23 1 8 22
M  V30 24 1 8 23
M  V30 25 1 8 24
M  V30 26 1 13 25
M  V30 27 1 15 26
M  V30 28 1 15 27
M  V30 END BOND
M  V30 END CTAB
M  END
>  <Column 1>
91

>  <level_0>
104

>  <index>
104

>  <Unnamed: 0>
104

>  <NO.>
105

>  <Name>
y-g12 (bbcpd10)

>  <IUPAC_name>
4-(3-amino-1h-1-2-4-triazol-5-yl)-n-n-dimethylpyridin-2-amine

>  <SMILES>
CN(C)c1cc(-c2n[nH]c(N)n2)ccn1

>  <CID>
12889418

>  <logBB>
-1.17

>  <BBB+/BBB->
BBB-

>  <Inchi>
InChI=1S/C9H12N6/c1-15(2)7-5-6(3-4-11-7)8-12-9(10)14-13-8/h3-5H-1-2H3-(H3-10-12-13-14)

>  <threshold>


>  <reference>
R40|R2|R2|R3|R4|R8|R12|R18|R20|R21|R25|R26|R27|R27|R35|R36|R38|R41|R43|R46|R47|R48|R49|R49|

>  <group>
A

>  <Class>
-1

>  <ABC>
11.56

>  <ABCGG>
10.37

>  <nAcid>
0

>  <nBase>
0

>  <nAromAtom>
11

>  <nAromBond>
11

>  <nAtom>
27

>  <nHeavyAtom>
15

>  <nSpiro>
0

>  <nBridgehead>
0

>  <nHetero>
6

>  <nN>
6

>  <nO>
0

>  <nF>
0

>  <BalabanJ>
1.87

>  <BertzCT>
461.13

>  <nBonds>
28

>  <nBondsO>
16

>  <nBondsS>
17

>  <nBondsD>
0

>  <nBondsT>
0

>  <nBondsA>
11

>  <nBondsM>
11

>  <nBondsKS>
23

>  <nBondsKD>
5

>  <RNCG>
0.23

>  <RPCG>
0.13

>  <FCSP3>
0.22

>  <SZ>
18

>  <Sm>
17

>  <Sv>
16.8

>  <Sse>
27.31

>  <Sp>
17.74

>  <Si>
31.24

>  <MZ>
0.67

>  <Mm>
0.63

>  <Mv>
0.62

>  <Mse>
1.01

>  <Mp>
0.66

>  <Mi>
1.16

>  <NsCH3>
2

>  <NdCH2>
0

>  <NssCH2>
0

>  <NtCH>
0

>  <NdsCH>
0

>  <NaaCH>
3

>  <NsssCH>
0

>  <NddC>
0

>  <NtsC>
0

>  <NdssC>
0

>  <NaasC>
4

>  <NaaaC>
0

>  <NssssC>
0

>  <NsNH3>
0

>  <NsNH2>
1

>  <NssNH2>
0

>  <NdNH>
0

>  <NssNH>
0

>  <NaaNH>
1

>  <NtN>
0

>  <NsssNH>
0

>  <NdsN>
0

>  <NaaN>
3

>  <NsssN>
1

>  <NddsN>
0

>  <NaasN>
0

>  <NssssN>
0

>  <NsOH>
0

>  <NdO>
0

>  <NssO>
0

>  <NaaO>
0

>  <NsF>
0

>  <NsSiH3>
0

>  <NssSiH2>
0

>  <NsssSiH>
0

>  <NssssSi>
0

>  <NsPH2>
0

>  <NssPH>
0

>  <NsssP>
0

>  <NdsssP>
0

>  <NsssssP>
0

>  <NsSH>
0

>  <NdS>
0

>  <NssS>
0

>  <NaaS>
0

>  <NdssS>
0

>  <NddssS>
0

>  <NsCl>
0

>  <NsBr>
0

>  <NsI>
0

>  <fragCpx>
46.06

>  <fMF>
0.41

>  <nHBAcc>
5

>  <nHBDon>
2

>  <Kier1>
11.48

>  <Kier2>
4.89

>  <Lipinski>
1

>  <GhoseFilter>
1

>  <FilterItLogS>
-2.31

>  <VMcGowan>
154.33

>  <LabuteASA>
87.15

>  <PEOE_VSA1>
10.63

>  <PEOE_VSA2>
0

>  <PEOE_VSA3>
10.08

>  <PEOE_VSA4>
10.08

>  <PEOE_VSA5>
0

>  <PEOE_VSA6>
0

>  <PEOE_VSA7>
12.13

>  <PEOE_VSA8>
25.86

>  <PEOE_VSA9>
0

>  <PEOE_VSA10>
5.82

>  <PEOE_VSA11>
5.82

>  <PEOE_VSA12>
5.95

>  <PEOE_VSA13>
0

>  <SMR_VSA1>
0

>  <SMR_VSA2>
0

>  <SMR_VSA3>
20.17

>  <SMR_VSA4>
0

>  <SMR_VSA5>
0

>  <SMR_VSA6>
24.73

>  <SMR_VSA7>
18.33

>  <SMR_VSA8>
0

>  <SMR_VSA9>
11.39

>  <SlogP_VSA1>
10.63

>  <SlogP_VSA2>
34.26

>  <SlogP_VSA3>
0

>  <SlogP_VSA4>
0

>  <SlogP_VSA5>
0

>  <SlogP_VSA6>
18.33

>  <SlogP_VSA7>
0

>  <SlogP_VSA8>
11.39

>  <SlogP_VSA9>
0

>  <SlogP_VSA10>
11.77

>  <SlogP_VSA11>
0

>  <EState_VSA1>
0

>  <EState_VSA2>
0

>  <EState_VSA3>
11.77

>  <EState_VSA4>
11.38

>  <EState_VSA5>
0

>  <EState_VSA6>
6.2

>  <EState_VSA7>
31.13

>  <EState_VSA8>
20.17

>  <EState_VSA9>
5.73

>  <EState_VSA10>
0

>  <VSA_EState1>
0

>  <VSA_EState2>
10.16

>  <VSA_EState3>
6.58

>  <VSA_EState4>
6.35

>  <VSA_EState5>
1.75

>  <VSA_EState6>
3.75

>  <VSA_EState7>
1.72

>  <VSA_EState8>
0

>  <VSA_EState9>
3.86

>  <apol>
29.63

>  <bpol>
16.03

>  <nRing>
2

>  <nHRing>
2

>  <naRing>
2

>  <naHRing>
2

>  <nARing 2>
0

>  <nAHRing 2>
0

>  <nFRing>
0

>  <nFHRing>
0

>  <nFaRing>
0

>  <nFaHRing>
0

>  <nFARing 2>
0

>  <nFAHRing 2>
0

>  <nRot>
2

>  <SLogP>
0.51

>  <SMR>
58.35

>  <TopoPSA(NO)>
83.72

>  <TopoPSA>
83.72

>  <JGI1>
0.22

>  <JGI2>
0.08

>  <JGI3>
0.04

>  <JGI4>
0.04

>  <JGI5>
0.04

>  <Diameter>
8

>  <Radius>
4

>  <TMWC10>
100.6

>  <TSRW10>
60.38

>  <MW>
204.11

>  <AMW>
7.56

>  <WPath>
369

>  <WPol>
19

>  <Zagreb1>
76

>  <Zagreb2>
87

>  <mZagreb2>
3.31

>  <yes>


>  <nAR-cont>
0.336376

>  <nHA-cont>
0.92539861

>  <MWHBN>
0.489965949

>  <MWHBN-cont>
0

>  <TPSA-cont>
0.415582413

>  <pka_cont>
0.97

>  <yes.1>


>  <BBB_SCORE>
2.577939436

>  <MMFF94 Energy>
-36.636

$$$$
Compound 72
Actelion Java MolfileCreator 2.0

  0  0  0  0  0  0              0 V3000
M  V30 BEGIN CTAB
M  V30 COUNTS 27 28 0 0 0
M  V30 BEGIN ATOM
M  V30 1 S -2.0678 1.5903 -2.4658 0
M  V30 2 C -1.193 2.0641 -1.0472 0
M  V30 3 C -1.6133 -0.0393 -2.2118 0
M  V30 4 N -0.5942 1.06 -0.4304 0
M  V30 5 N -1.2056 3.3826 -0.7181 0
M  V30 6 C -0.8336 -0.1415 -1.0789 0
M  V30 7 C -0.6683 3.7537 0.3961 0
M  V30 8 C -0.2636 -1.3889 -0.5813 0
M  V30 9 N -0.6757 5.0576 0.74 0
M  V30 10 N -0.0551 3.0107 1.3399 0
M  V30 11 C 0.9401 -1.3547 0.1421 0
M  V30 12 C -0.8904 -2.6238 -0.7902 0
M  V30 13 C 1.5294 -2.5246 0.6307 0
M  V30 14 C -0.3214 -3.795 -0.2883 0
M  V30 15 N 2.6994 -2.4695 1.3672 0
M  V30 16 C 0.879 -3.7412 0.4219 0
M  V30 17 H -1.9256 -0.8109 -2.8997 0
M  V30 18 H -0.0818 5.4198 1.4669 0
M  V30 19 H -1.0959 5.7088 0.0907 0
M  V30 20 H -0.0039 2.0074 1.1692 0
M  V30 21 H 0.0886 3.3384 2.2796 0
M  V30 22 H 1.4281 -0.3983 0.3171 0
M  V30 23 H -1.8351 -2.6916 -1.3232 0
M  V30 24 H -0.8168 -4.7501 -0.4422 0
M  V30 25 H 3.2063 -1.5985 1.4483 0
M  V30 26 H 3.1623 -3.3205 1.6544 0
M  V30 27 H 1.3027 -4.6619 0.8139 0
M  V30 END ATOM
M  V30 BEGIN BOND
M  V30 1 1 1 2
M  V30 2 1 1 3
M  V30 3 2 2 4
M  V30 4 1 2 5
M  V30 5 2 3 6
M  V30 6 2 5 7
M  V30 7 1 6 8
M  V30 8 1 7 9
M  V30 9 1 7 10
M  V30 10 2 8 11
M  V30 11 1 8 12
M  V30 12 1 11 13
M  V30 13 2 12 14
M  V30 14 1 13 15
M  V30 15 2 13 16
M  V30 16 1 4 6
M  V30 17 1 14 16
M  V30 18 1 3 17
M  V30 19 1 9 18
M  V30 20 1 9 19
M  V30 21 1 10 20
M  V30 22 1 10 21
M  V30 23 1 11 22
M  V30 24 1 12 23
M  V30 25 1 14 24
M  V30 26 1 15 25
M  V30 27 1 15 26
M  V30 28 1 16 27
M  V30 END BOND
M  V30 END CTAB
M  END
>  <Column 1>
92

>  <level_0>
105

>  <index>
105

>  <Unnamed: 0>
105

>  <NO.>
106

>  <Name>
72801-60-6

>  <IUPAC_name>
2-[4-(3-aminophenyl)-1-3-thiazol-2-yl]guanidine

>  <SMILES>
NC(N)=Nc1nc(-c2cccc(N)c2)cs1

>  <CID>
14022509

>  <logBB>
-1.15

>  <BBB+/BBB->
BBB-

>  <Inchi>
InChI=1S/C10H11N5S/c11-7-3-1-2-6(4-7)8-5-16-10(14-8)15-9(12)13/h1-5H-11H2-(H4-12-13-14-15)

>  <threshold>


>  <reference>
R18|R26|R27|R4|R2|R2|R3|R3|R8|R12|R21|R25|R27|R35|R36|R38|R40|R41|R43|R46|R47|R48|R49|R49|

>  <group>
A

>  <Class>
-1

>  <ABC>
12.31

>  <ABCGG>
10.75

>  <nAcid>
0

>  <nBase>
3

>  <nAromAtom>
11

>  <nAromBond>
11

>  <nAtom>
27

>  <nHeavyAtom>
16

>  <nSpiro>
0

>  <nBridgehead>
0

>  <nHetero>
6

>  <nN>
5

>  <nO>
0

>  <nF>
0

>  <BalabanJ>
1.79

>  <BertzCT>
527.51

>  <nBonds>
28

>  <nBondsO>
17

>  <nBondsS>
16

>  <nBondsD>
1

>  <nBondsT>
0

>  <nBondsA>
11

>  <nBondsM>
12

>  <nBondsKS>
22

>  <nBondsKD>
6

>  <RNCG>
0.22

>  <RPCG>
0.12

>  <FCSP3>
0

>  <SZ>
20.33

>  <Sm>
19.42

>  <Sv>
17.96

>  <Sse>
27.28

>  <Sp>
19.42

>  <Si>
30.66

>  <MZ>
0.75

>  <Mm>
0.72

>  <Mv>
0.67

>  <Mse>
1.01

>  <Mp>
0.72

>  <Mi>
1.14

>  <NsCH3>
0

>  <NdCH2>
0

>  <NssCH2>
0

>  <NtCH>
0

>  <NdsCH>
0

>  <NaaCH>
5

>  <NsssCH>
0

>  <NddC>
0

>  <NtsC>
0

>  <NdssC>
1

>  <NaasC>
4

>  <NaaaC>
0

>  <NssssC>
0

>  <NsNH3>
0

>  <NsNH2>
3

>  <NssNH2>
0

>  <NdNH>
0

>  <NssNH>
0

>  <NaaNH>
0

>  <NtN>
0

>  <NsssNH>
0

>  <NdsN>
1

>  <NaaN>
1

>  <NsssN>
0

>  <NddsN>
0

>  <NaasN>
0

>  <NssssN>
0

>  <NsOH>
0

>  <NdO>
0

>  <NssO>
0

>  <NaaO>
0

>  <NsF>
0

>  <NsSiH3>
0

>  <NssSiH2>
0

>  <NsssSiH>
0

>  <NssssSi>
0

>  <NsPH2>
0

>  <NssPH>
0

>  <NsssP>
0

>  <NdsssP>
0

>  <NsssssP>
0

>  <NsSH>
0

>  <NdS>
0

>  <NssS>
0

>  <NaaS>
1

>  <NdssS>
0

>  <NddssS>
0

>  <NsCl>
0

>  <NsBr>
0

>  <NsI>
0

>  <fragCpx>
49.06

>  <fMF>
0.41

>  <nHBAcc>
4

>  <nHBDon>
3

>  <Kier1>
12.46

>  <Kier2>
5.56

>  <Lipinski>
1

>  <GhoseFilter>
1

>  <FilterItLogS>
-2.08

>  <VMcGowan>
170.49

>  <LabuteASA>
96.63

>  <PEOE_VSA1>
17.2

>  <PEOE_VSA2>
0

>  <PEOE_VSA3>
4.98

>  <PEOE_VSA4>
4.99

>  <PEOE_VSA5>
11.34

>  <PEOE_VSA6>
12.13

>  <PEOE_VSA7>
12.13

>  <PEOE_VSA8>
16.63

>  <PEOE_VSA9>
5.69

>  <PEOE_VSA10>
0

>  <PEOE_VSA11>
5.96

>  <PEOE_VSA12>
5.13

>  <PEOE_VSA13>
0

>  <SMR_VSA1>
0

>  <SMR_VSA2>
0

>  <SMR_VSA3>
4.98

>  <SMR_VSA4>
16.46

>  <SMR_VSA5>
0

>  <SMR_VSA6>
5.73

>  <SMR_VSA7>
29.65

>  <SMR_VSA8>
0

>  <SMR_VSA9>
11.26

>  <SlogP_VSA1>
17.2

>  <SlogP_VSA2>
10.94

>  <SlogP_VSA3>
0

>  <SlogP_VSA4>
0

>  <SlogP_VSA5>
0

>  <SlogP_VSA6>
34.64

>  <SlogP_VSA7>
0

>  <SlogP_VSA8>
11.26

>  <SlogP_VSA9>
0

>  <SlogP_VSA10>
10.82

>  <SlogP_VSA11>
0

>  <EState_VSA1>
0

>  <EState_VSA2>
5.96

>  <EState_VSA3>
10.82

>  <EState_VSA4>
11.26

>  <EState_VSA5>
11.34

>  <EState_VSA6>
0

>  <EState_VSA7>
29.65

>  <EState_VSA8>
9.98

>  <EState_VSA9>
17.2

>  <EState_VSA10>
0

>  <VSA_EState1>
0

>  <VSA_EState2>
8.15

>  <VSA_EState3>
2.42

>  <VSA_EState4>
18.71

>  <VSA_EState5>
0.01

>  <VSA_EState6>
7.5

>  <VSA_EState7>
0

>  <VSA_EState8>
0

>  <VSA_EState9>
0

>  <apol>
32.43

>  <bpol>
14.07

>  <nRing>
2

>  <nHRing>
1

>  <naRing>
2

>  <naHRing>
1

>  <nARing 2>
0

>  <nAHRing 2>
0

>  <nFRing>
0

>  <nFHRing>
0

>  <nFaRing>
0

>  <nFaHRing>
0

>  <nFARing 2>
0

>  <nFAHRing 2>
0

>  <nRot>
2

>  <SLogP>
1.3

>  <SMR>
67.43

>  <TopoPSA(NO)>
103.31

>  <TopoPSA>
131.55

>  <JGI1>
0.24

>  <JGI2>
0.06

>  <JGI3>
0.05

>  <JGI4>
0.04

>  <JGI5>
0.03

>  <Diameter>
9

>  <Radius>
5

>  <TMWC10>
102.77

>  <TSRW10>
61.53

>  <MW>
233.07

>  <AMW>
8.63

>  <WPath>
467

>  <WPol>
19

>  <Zagreb1>
80

>  <Zagreb2>
90

>  <mZagreb2>
3.53

>  <yes>


>  <nAR-cont>
0.336376

>  <nHA-cont>
0.954961865

>  <MWHBN>
0.458516377

>  <MWHBN-cont>
0

>  <TPSA-cont>
0

>  <pka_cont>
0.97

>  <yes.1>


>  <BBB_SCORE>
1.776337865

>  <MMFF94 Energy>
-109.48

$$$$
Compound 73
Actelion Java MolfileCreator 2.0

  0  0  0  0  0  0              0 V3000
M  V30 BEGIN CTAB
M  V30 COUNTS 68 72 0 0 0
M  V30 BEGIN ATOM
M  V30 1 S -2.9877 2.5027 1.5334 0
M  V30 2 O -4.2266 1.9601 2.0589 0
M  V30 3 O -2.1988 3.4349 2.3166 0
M  V30 4 N -1.9667 1.1552 1.233 0
M  V30 5 C -3.3165 3.2275 -0.0613 0
M  V30 6 C -0.6085 1.2611 0.9577 0
M  V30 7 C -2.4134 -0.1046 0.9192 0
M  V30 8 C -4.2238 4.4358 0.0516 0
M  V30 9 C -0.1846 -0.0198 0.5628 0
M  V30 10 C 0.2997 2.3364 1.0365 0
M  V30 11 C -1.3234 -0.8752 0.5721 0
M  V30 12 C -3.7948 -0.6503 1.0014 0
M  V30 13 C 1.1723 -0.2288 0.2416 0
M  V30 14 C 1.6407 2.1076 0.7121 0
M  V30 15 C -1.4133 -2.3335 0.2308 0
M  V30 16 C -3.8336 -2.0581 0.3499 0
M  V30 17 C 2.0655 0.8466 0.2981 0
M  V30 18 N -2.6826 -2.9185 0.7455 0
M  V30 19 C 3.4896 0.5991 -0.0138 0
M  V30 20 C -2.8716 -4.3288 0.2977 0
M  V30 21 O 4.0606 -0.2772 0.6314 0
M  V30 22 N 4.1106 1.3581 -1.003 0
M  V30 23 C -1.6317 -5.2349 0.4886 0
M  V30 24 C -4.0209 -5.0306 1.0588 0
M  V30 25 C 3.4214 2.1511 -2.0212 0
M  V30 26 C 5.5512 1.2149 -1.1916 0
M  V30 27 C -1.3506 -5.4895 1.9653 0
M  V30 28 C -3.6427 -5.2874 2.5131 0
M  V30 29 C 4.0459 3.5388 -2.1474 0
M  V30 30 C 6.2245 2.5822 -1.3108 0
M  V30 31 O -2.4772 -6.11 2.5856 0
M  V30 32 C 5.5665 3.4821 -2.3694 0
M  V30 33 C 5.9176 3.0342 -3.7903 0
M  V30 34 H -2.3563 3.5124 -0.5009 0
M  V30 35 H -3.782 2.4575 -0.6834 0
M  V30 36 H -4.4119 4.8645 -0.9374 0
M  V30 37 H -5.1873 4.1654 0.4957 0
M  V30 38 H -3.7724 5.2104 0.6799 0
M  V30 39 H -0.0011 3.3248 1.3738 0
M  V30 40 H -4.0933 -0.7315 2.0533 0
M  V30 41 H -4.5101 -0.0073 0.4784 0
M  V30 42 H 1.5295 -1.2143 -0.0464 0
M  V30 43 H 2.3578 2.9208 0.8032 0
M  V30 44 H -0.5558 -2.8275 0.6993 0
M  V30 45 H -1.3411 -2.4516 -0.8575 0
M  V30 46 H -4.7904 -2.4987 0.6419 0
M  V30 47 H -3.8559 -1.9552 -0.744 0
M  V30 48 H -3.1135 -4.3223 -0.7737 0
M  V30 49 H -0.7443 -4.8409 -0.0155 0
M  V30 50 H -1.8429 -6.1991 0.0059 0
M  V30 51 H -4.9652 -4.4837 1.0062 0
M  V30 52 H -4.2078 -5.9973 0.5714 0
M  V30 53 H 2.352 2.239 -1.8212 0
M  V30 54 H 3.5067 1.602 -2.9662 0
M  V30 55 H 6.0021 0.6644 -0.3593 0
M  V30 56 H 5.7092 0.6173 -2.0964 0
M  V30 57 H -0.5025 -6.1742 2.0662 0
M  V30 58 H -1.0955 -4.5691 2.5027 0
M  V30 59 H -4.4537 -5.8248 3.0153 0
M  V30 60 H -3.4736 -4.3563 3.0662 0
M  V30 61 H 3.5608 4.093 -2.9593 0
M  V30 62 H 3.8507 4.0968 -1.2222 0
M  V30 63 H 7.2917 2.4537 -1.5252 0
M  V30 64 H 6.1569 3.0886 -0.3386 0
M  V30 65 H 5.965 4.4978 -2.247 0
M  V30 66 H 5.4706 3.7098 -4.5276 0
M  V30 67 H 7.0024 3.0508 -3.9404 0
M  V30 68 H 5.5666 2.0216 -4.0087 0
M  V30 END ATOM
M  V30 BEGIN BOND
M  V30 1 2 1 2
M  V30 2 2 1 3
M  V30 3 1 1 4
M  V30 4 1 1 5
M  V30 5 1 4 6
M  V30 6 1 4 7
M  V30 7 1 5 8
M  V30 8 2 6 9
M  V30 9 1 6 10
M  V30 10 2 7 11
M  V30 11 1 7 12
M  V30 12 1 9 13
M  V30 13 2 10 14
M  V30 14 1 11 15
M  V30 15 1 12 16
M  V30 16 2 13 17
M  V30 17 1 15 18
M  V30 18 1 17 19
M  V30 19 1 18 20
M  V30 20 2 19 21
M  V30 21 1 19 22
M  V30 22 1 20 23
M  V30 23 1 20 24
M  V30 24 1 22 25
M  V30 25 1 22 26
M  V30 26 1 23 27
M  V30 27 1 24 28
M  V30 28 1 25 29
M  V30 29 1 26 30
M  V30 30 1 27 31
M  V30 31 1 29 32
M  V30 32 1 32 33
M  V30 33 1 9 11
M  V30 34 1 14 17
M  V30 35 1 16 18
M  V30 36 1 28 31
M  V30 37 1 30 32
M  V30 38 1 5 34
M  V30 39 1 5 35
M  V30 40 1 8 36
M  V30 41 1 8 37
M  V30 42 1 8 38
M  V30 43 1 10 39
M  V30 44 1 12 40
M  V30 45 1 12 41
M  V30 46 1 13 42
M  V30 47 1 14 43
M  V30 48 1 15 44
M  V30 49 1 15 45
M  V30 50 1 16 46
M  V30 51 1 16 47
M  V30 52 1 20 48
M  V30 53 1 23 49
M  V30 54 1 23 50
M  V30 55 1 24 51
M  V30 56 1 24 52
M  V30 57 1 25 53
M  V30 58 1 25 54
M  V30 59 1 26 55
M  V30 60 1 26 56
M  V30 61 1 27 57
M  V30 62 1 27 58
M  V30 63 1 28 59
M  V30 64 1 28 60
M  V30 65 1 29 61
M  V30 66 1 29 62
M  V30 67 1 30 63
M  V30 68 1 30 64
M  V30 69 1 32 65
M  V30 70 1 33 66
M  V30 71 1 33 67
M  V30 72 1 33 68
M  V30 END BOND
M  V30 END CTAB
M  END
>  <Column 1>
94

>  <level_0>
107

>  <index>
107

>  <Unnamed: 0>
107

>  <NO.>
108

>  <Name>
az599

>  <IUPAC_name>
[5-ethylsulfonyl-2-(oxan-4-yl)-3-4-dihydro-1h-pyrido[4-3-b]indol-8-yl]-(4-methylpiperidin-1-yl)methanone

>  <SMILES>
CCS(=O)(=O)n1c2c(c3cc(C(=O)N4CCC(C)CC4)ccc31)CN(C1CCOCC1)CC2

>  <CID>
24894028

>  <logBB>
-1.15

>  <BBB+/BBB->
BBB-

>  <Inchi>
InChI=1S/C25H35N3O4S/c1-3-33(30-31)28-23-5-4-19(25(29)26-11-6-18(2)7-12-26)16-21(23)22-17-27(13-8-24(22)28)20-9-14-32-15-10-20/h4-5-16-18-20H-3-6-15-17H2-1-2H3

>  <threshold>


>  <reference>
R2|R2|R25|R27|R46|

>  <group>
A

>  <Class>
-1

>  <ABC>
26.31

>  <ABCGG>
19.6

>  <nAcid>
0

>  <nBase>
1

>  <nAromAtom>
9

>  <nAromBond>
10

>  <nAtom>
68

>  <nHeavyAtom>
33

>  <nSpiro>
0

>  <nBridgehead>
0

>  <nHetero>
8

>  <nN>
3

>  <nO>
4

>  <nF>
0

>  <BalabanJ>
1.33

>  <BertzCT>
1142.1

>  <nBonds>
72

>  <nBondsO>
37

>  <nBondsS>
59

>  <nBondsD>
3

>  <nBondsT>
0

>  <nBondsA>
10

>  <nBondsM>
13

>  <nBondsKS>
65

>  <nBondsKD>
7

>  <RNCG>
0.17

>  <RPCG>
0.11

>  <FCSP3>
0.64

>  <SZ>
42.33

>  <Sm>
39.43

>  <Sv>
40.8

>  <Sse>
67.93

>  <Sp>
44.61

>  <Si>
76.9

>  <MZ>
0.62

>  <Mm>
0.58

>  <Mv>
0.6

>  <Mse>
1

>  <Mp>
0.66

>  <Mi>
1.13

>  <NsCH3>
2

>  <NdCH2>
0

>  <NssCH2>
12

>  <NtCH>
0

>  <NdsCH>
0

>  <NaaCH>
3

>  <NsssCH>
2

>  <NddC>
0

>  <NtsC>
0

>  <NdssC>
1

>  <NaasC>
3

>  <NaaaC>
2

>  <NssssC>
0

>  <NsNH3>
0

>  <NsNH2>
0

>  <NssNH2>
0

>  <NdNH>
0

>  <NssNH>
0

>  <NaaNH>
0

>  <NtN>
0

>  <NsssNH>
0

>  <NdsN>
0

>  <NaaN>
0

>  <NsssN>
2

>  <NddsN>
0

>  <NaasN>
1

>  <NssssN>
0

>  <NsOH>
0

>  <NdO>
3

>  <NssO>
1

>  <NaaO>
0

>  <NsF>
0

>  <NsSiH3>
0

>  <NssSiH2>
0

>  <NsssSiH>
0

>  <NssssSi>
0

>  <NsPH2>
0

>  <NssPH>
0

>  <NsssP>
0

>  <NdsssP>
0

>  <NsssssP>
0

>  <NsSH>
0

>  <NdS>
0

>  <NssS>
0

>  <NaaS>
0

>  <NdssS>
0

>  <NddssS>
1

>  <NsCl>
0

>  <NsBr>
0

>  <NsI>
0

>  <fragCpx>
313.08

>  <fMF>
0.38

>  <nHBAcc>
6

>  <nHBDon>
0

>  <Kier1>
24.68

>  <Kier2>
10.17

>  <Lipinski>
1

>  <GhoseFilter>
1

>  <FilterItLogS>
-4.47

>  <VMcGowan>
357.08

>  <LabuteASA>
196.27

>  <PEOE_VSA1>
9.64

>  <PEOE_VSA2>
9.69

>  <PEOE_VSA3>
12.39

>  <PEOE_VSA4>
0

>  <PEOE_VSA5>
0

>  <PEOE_VSA6>
6.92

>  <PEOE_VSA7>
62.29

>  <PEOE_VSA8>
68.5

>  <PEOE_VSA9>
11.27

>  <PEOE_VSA10>
0

>  <PEOE_VSA11>
0

>  <PEOE_VSA12>
10.02

>  <PEOE_VSA13>
5.91

>  <SMR_VSA1>
17.95

>  <SMR_VSA2>
0

>  <SMR_VSA3>
13.77

>  <SMR_VSA4>
5.92

>  <SMR_VSA5>
58.54

>  <SMR_VSA6>
38.6

>  <SMR_VSA7>
35.02

>  <SMR_VSA8>
0

>  <SMR_VSA9>
0

>  <SlogP_VSA1>
0

>  <SlogP_VSA2>
72.74

>  <SlogP_VSA3>
27.73

>  <SlogP_VSA4>
5.92

>  <SlogP_VSA5>
61.15

>  <SlogP_VSA6>
18.2

>  <SlogP_VSA7>
0

>  <SlogP_VSA8>
10.9

>  <SlogP_VSA9>
0

>  <SlogP_VSA10>
0

>  <SlogP_VSA11>
0

>  <EState_VSA1>
10.02

>  <EState_VSA2>
11.66

>  <EState_VSA3>
29.46

>  <EState_VSA4>
81.72

>  <EState_VSA5>
0

>  <EState_VSA6>
10.9

>  <EState_VSA7>
23.1

>  <EState_VSA8>
11.82

>  <EState_VSA9>
4.74

>  <EState_VSA10>
13.21

>  <VSA_EState1>
33.28

>  <VSA_EState2>
17.69

>  <VSA_EState3>
0.91

>  <VSA_EState4>
3.34

>  <VSA_EState5>
0.77

>  <VSA_EState6>
6.07

>  <VSA_EState7>
4.8

>  <VSA_EState8>
8.66

>  <VSA_EState9>
-3.44

>  <apol>
74.5

>  <bpol>
49.5

>  <nRing>
5

>  <nHRing>
4

>  <naRing>
2

>  <naHRing>
1

>  <nARing 2>
3

>  <nAHRing 2>
3

>  <nFRing>
1

>  <nFHRing>
1

>  <nFaRing>
0

>  <nFaHRing>
0

>  <nFARing 2>
1

>  <nFAHRing 2>
1

>  <nRot>
4

>  <SLogP>
3.25

>  <SMR>
129.05

>  <TopoPSA(NO)>
71.85

>  <TopoPSA>
80.23

>  <JGI1>
0.19

>  <JGI2>
0.09

>  <JGI3>
0.05

>  <JGI4>
0.04

>  <JGI5>
0.03

>  <Diameter>
15

>  <Radius>
8

>  <TMWC10>
149.92

>  <TSRW10>
84.43

>  <MW>
473.23

>  <AMW>
6.96

>  <WPath>
3079

>  <WPol>
60

>  <Zagreb1>
184

>  <Zagreb2>
224

>  <mZagreb2>
7.1

>  <yes>


>  <nAR-cont>
0.691115

>  <nHA-cont>
0.61399562

>  <MWHBN>
0.275813244

>  <MWHBN-cont>
0.9064597

>  <TPSA-cont>
0.43994478

>  <pka_cont>
0.97

>  <yes.1>


>  <BBB_SCORE>
4.029689731

>  <MMFF94 Energy>
116.97

$$$$
Compound 74
Actelion Java MolfileCreator 2.0

  0  0  0  0  0  0              0 V3000
M  V30 BEGIN CTAB
M  V30 COUNTS 50 52 0 0 0
M  V30 BEGIN ATOM
M  V30 1 O -5.8715 -2.1392 4.1231 0
M  V30 2 C -5.4437 -1.485 3.1913 0
M  V30 3 O -6.219 -0.6375 2.4973 0
M  V30 4 C -4.0793 -1.4827 2.6592 0
M  V30 5 C -3.1494 -2.275 3.2142 0
M  V30 6 C -1.76 -2.3353 2.7471 0
M  V30 7 N -1.436 -1.5739 1.678 0
M  V30 8 C -0.8372 -3.1474 3.3958 0
M  V30 9 C -0.1584 -1.61 1.2292 0
M  V30 10 C 0.4739 -3.172 2.9322 0
M  V30 11 C 0.1422 -0.7328 0.0685 0
M  V30 12 C 0.8224 -2.3898 1.8363 0
M  V30 13 C -0.3276 0.6678 0.0027 0
M  V30 14 C 0.8292 -1.2499 -0.9753 0
M  V30 15 C 0.4796 1.7051 0.4825 0
M  V30 16 C -1.5819 0.9696 -0.539 0
M  V30 17 C 1.2261 -0.5661 -2.2541 0
M  V30 18 C 0.0421 3.03 0.409 0
M  V30 19 C -2.019 2.2943 -0.6105 0
M  V30 20 N 2.6711 -0.6742 -2.4718 0
M  V30 21 C -1.2044 3.3359 -0.1504 0
M  V30 22 C 3.0488 -0.241 -3.8191 0
M  V30 23 C 3.4472 0.1899 -1.5778 0
M  V30 24 C -1.6901 4.7544 -0.1934 0
M  V30 25 C 4.555 -0.0587 -3.7131 0
M  V30 26 C 4.8177 0.2225 -2.238 0
M  V30 27 H -7.0945 -0.7141 2.9289 0
M  V30 28 H -3.8669 -0.8269 1.823 0
M  V30 29 H -3.4069 -2.9134 4.0551 0
M  V30 30 H -1.1217 -3.7501 4.252 0
M  V30 31 H 1.219 -3.7908 3.4235 0
M  V30 32 H 1.8447 -2.3856 1.4726 0
M  V30 33 H 1.1329 -2.2955 -0.9443 0
M  V30 34 H 1.4503 1.486 0.9193 0
M  V30 35 H -2.228 0.1699 -0.8937 0
M  V30 36 H 0.7044 -1.0945 -3.0628 0
M  V30 37 H 0.8973 0.4773 -2.3059 0
M  V30 38 H 0.6796 3.8218 0.7953 0
M  V30 39 H -3.0027 2.5057 -1.0233 0
M  V30 40 H 2.7864 -0.9833 -4.5795 0
M  V30 41 H 2.5778 0.714 -4.0858 0
M  V30 42 H 3.5077 -0.2055 -0.559 0
M  V30 43 H 3.0357 1.2066 -1.5352 0
M  V30 44 H -0.8522 5.4509 -0.3019 0
M  V30 45 H -2.2317 4.9926 0.7271 0
M  V30 46 H -2.3566 4.9132 -1.0477 0
M  V30 47 H 5.0806 -0.9717 -4.0161 0
M  V30 48 H 4.9063 0.7585 -4.3509 0
M  V30 49 H 5.3116 1.1882 -2.0903 0
M  V30 50 H 5.4688 -0.5553 -1.8223 0
M  V30 END ATOM
M  V30 BEGIN BOND
M  V30 1 2 1 2
M  V30 2 1 2 3
M  V30 3 1 2 4
M  V30 4 2 4 5
M  V30 5 1 5 6
M  V30 6 2 6 7
M  V30 7 1 6 8
M  V30 8 1 7 9
M  V30 9 2 8 10
M  V30 10 1 9 11
M  V30 11 2 9 12
M  V30 12 1 11 13
M  V30 13 2 11 14
M  V30 14 2 13 15
M  V30 15 1 13 16
M  V30 16 1 14 17
M  V30 17 1 15 18
M  V30 18 2 16 19
M  V30 19 1 17 20
M  V30 20 2 18 21
M  V30 21 1 20 22
M  V30 22 1 20 23
M  V30 23 1 21 24
M  V30 24 1 22 25
M  V30 25 1 23 26
M  V30 26 1 10 12
M  V30 27 1 19 21
M  V30 28 1 25 26
M  V30 29 1 3 27
M  V30 30 1 4 28
M  V30 31 1 5 29
M  V30 32 1 8 30
M  V30 33 1 10 31
M  V30 34 1 12 32
M  V30 35 1 14 33
M  V30 36 1 15 34
M  V30 37 1 16 35
M  V30 38 1 17 36
M  V30 39 1 17 37
M  V30 40 1 18 38
M  V30 41 1 19 39
M  V30 42 1 22 40
M  V30 43 1 22 41
M  V30 44 1 23 42
M  V30 45 1 23 43
M  V30 46 1 24 44
M  V30 47 1 24 45
M  V30 48 1 24 46
M  V30 49 1 25 47
M  V30 50 1 25 48
M  V30 51 1 26 49
M  V30 52 1 26 50
M  V30 END BOND
M  V30 END CTAB
M  END
>  <Column 1>
96

>  <level_0>
109

>  <index>
109

>  <Unnamed: 0>
109

>  <NO.>
110

>  <Name>
acrivastine

>  <IUPAC_name>
(e)-3-[6-[(e)-1-(4-methylphenyl)-3-pyrrolidin-1-ylprop-1-enyl]pyridin-2-yl]prop-2-enoic acid

>  <SMILES>
Cc1ccc(/C(=C\CN2CCCC2)c2cccc(/C=C/C(=O)O)n2)cc1

>  <CID>
5284514

>  <logBB>
-1.14

>  <BBB+/BBB->
BBB-

>  <Inchi>
InChI=1S/C22H24N2O2/c1-17-7-9-18(10-8-17)20(13-16-24-14-2-3-15-24)21-6-4-5-19(23-21)11-12-22(25)26/h4-13H-2-3-14-16H2-1H3-(H-25-26)/b12-11+-20-13+

>  <threshold>


>  <reference>
R47|

>  <group>
A

>  <Class>
-1

>  <ABC>
20.05

>  <ABCGG>
16.17

>  <nAcid>
1

>  <nBase>
1

>  <nAromAtom>
12

>  <nAromBond>
12

>  <nAtom>
50

>  <nHeavyAtom>
26

>  <nSpiro>
0

>  <nBridgehead>
0

>  <nHetero>
4

>  <nN>
2

>  <nO>
2

>  <nF>
0

>  <BalabanJ>
1.57

>  <BertzCT>
816.29

>  <nBonds>
52

>  <nBondsO>
28

>  <nBondsS>
37

>  <nBondsD>
3

>  <nBondsT>
0

>  <nBondsA>
12

>  <nBondsM>
15

>  <nBondsKS>
43

>  <nBondsKD>
9

>  <RNCG>
0.25

>  <RPCG>
0.17

>  <FCSP3>
0.27

>  <SZ>
31

>  <Sm>
29.01

>  <Sv>
31.45

>  <Sse>
49.64

>  <Sp>
33.86

>  <Si>
55.98

>  <MZ>
0.62

>  <Mm>
0.58

>  <Mv>
0.63

>  <Mse>
0.99

>  <Mp>
0.68

>  <Mi>
1.12

>  <NsCH3>
1

>  <NdCH2>
0

>  <NssCH2>
5

>  <NtCH>
0

>  <NdsCH>
3

>  <NaaCH>
7

>  <NsssCH>
0

>  <NddC>
0

>  <NtsC>
0

>  <NdssC>
2

>  <NaasC>
4

>  <NaaaC>
0

>  <NssssC>
0

>  <NsNH3>
0

>  <NsNH2>
0

>  <NssNH2>
0

>  <NdNH>
0

>  <NssNH>
0

>  <NaaNH>
0

>  <NtN>
0

>  <NsssNH>
0

>  <NdsN>
0

>  <NaaN>
1

>  <NsssN>
1

>  <NddsN>
0

>  <NaasN>
0

>  <NssssN>
0

>  <NsOH>
1

>  <NdO>
1

>  <NssO>
0

>  <NaaO>
0

>  <NsF>
0

>  <NsSiH3>
0

>  <NssSiH2>
0

>  <NsssSiH>
0

>  <NssssSi>
0

>  <NsPH2>
0

>  <NssPH>
0

>  <NsssP>
0

>  <NdsssP>
0

>  <NsssssP>
0

>  <NsSH>
0

>  <NdS>
0

>  <NssS>
0

>  <NaaS>
0

>  <NdssS>
0

>  <NddssS>
0

>  <NsCl>
0

>  <NsBr>
0

>  <NsI>
0

>  <fragCpx>
134.04

>  <fMF>
0.4

>  <nHBAcc>
3

>  <nHBDon>
1

>  <Kier1>
20.73

>  <Kier2>
10.52

>  <Lipinski>
1

>  <GhoseFilter>
1

>  <FilterItLogS>
-4.23

>  <VMcGowan>
281.26

>  <LabuteASA>
154.05

>  <PEOE_VSA1>
5.11

>  <PEOE_VSA2>
4.9

>  <PEOE_VSA3>
9.78

>  <PEOE_VSA4>
0

>  <PEOE_VSA5>
0

>  <PEOE_VSA6>
41.97

>  <PEOE_VSA7>
56.63

>  <PEOE_VSA8>
18.19

>  <PEOE_VSA9>
11.39

>  <PEOE_VSA10>
0

>  <PEOE_VSA11>
0

>  <PEOE_VSA12>
0

>  <PEOE_VSA13>
0

>  <SMR_VSA1>
9.9

>  <SMR_VSA2>
0

>  <SMR_VSA3>
9.88

>  <SMR_VSA4>
0

>  <SMR_VSA5>
19.77

>  <SMR_VSA6>
19.63

>  <SMR_VSA7>
77.13

>  <SMR_VSA8>
0

>  <SMR_VSA9>
0

>  <SlogP_VSA1>
0

>  <SlogP_VSA2>
40.59

>  <SlogP_VSA3>
4.79

>  <SlogP_VSA4>
6.92

>  <SlogP_VSA5>
35.36

>  <SlogP_VSA6>
54.62

>  <SlogP_VSA7>
0

>  <SlogP_VSA8>
11.65

>  <SlogP_VSA9>
0

>  <SlogP_VSA10>
0

>  <SlogP_VSA11>
0

>  <EState_VSA1>
5.97

>  <EState_VSA2>
0

>  <EState_VSA3>
5.69

>  <EState_VSA4>
42.54

>  <EState_VSA5>
24.48

>  <EState_VSA6>
0

>  <EState_VSA7>
18.2

>  <EState_VSA8>
47.15

>  <EState_VSA9>
5.11

>  <EState_VSA10>
4.79

>  <VSA_EState1>
0

>  <VSA_EState2>
17.86

>  <VSA_EState3>
8.83

>  <VSA_EState4>
4.94

>  <VSA_EState5>
-0.97

>  <VSA_EState6>
14.16

>  <VSA_EState7>
7.41

>  <VSA_EState8>
5.27

>  <VSA_EState9>
0

>  <apol>
56.55

>  <bpol>
27.79

>  <nRing>
3

>  <nHRing>
2

>  <naRing>
2

>  <naHRing>
1

>  <nARing 2>
1

>  <nAHRing 2>
1

>  <nFRing>
0

>  <nFHRing>
0

>  <nFaRing>
0

>  <nFaHRing>
0

>  <nFARing 2>
0

>  <nFAHRing 2>
0

>  <nRot>
6

>  <SLogP>
4.02

>  <SMR>
104.84

>  <TopoPSA(NO)>
53.43

>  <TopoPSA>
53.43

>  <JGI1>
0.18

>  <JGI2>
0.07

>  <JGI3>
0.03

>  <JGI4>
0.03

>  <JGI5>
0.02

>  <Diameter>
12

>  <Radius>
6

>  <TMWC10>
128.06

>  <TSRW10>
73.46

>  <MW>
348.18

>  <AMW>
6.96

>  <WPath>
1755

>  <WPol>
34

>  <Zagreb1>
130

>  <Zagreb2>
147

>  <mZagreb2>
5.81

>  <yes>


>  <nAR-cont>
0.816016

>  <nHA-cont>
0.892715677

>  <MWHBN>
0.214367074

>  <MWHBN-cont>
0.997900779

>  <TPSA-cont>
0.627025422

>  <pka_cont>
0.97

>  <yes.1>


>  <BBB_SCORE>
4.94463369

>  <MMFF94 Energy>
1.2515

$$$$
Compound 75
Actelion Java MolfileCreator 2.0

  0  0  0  0  0  0              0 V3000
M  V30 BEGIN CTAB
M  V30 COUNTS 42 43 0 0 0
M  V30 BEGIN ATOM
M  V30 1 S 0.0 1.4439 0.0801 0
M  V30 2 C 0.8905 0.8445 -1.3907 0
M  V30 3 C 0.7506 0.3616 1.3504 0
M  V30 4 C 0.6076 -0.5786 -1.6978 0
M  V30 5 C 0.3878 0.8335 2.7667 0
M  V30 6 O -0.5975 -0.8556 -2.2744 0
M  V30 7 C 1.334 -1.7419 -1.544 0
M  V30 8 N 0.9264 2.1754 3.0417 0
M  V30 9 C -0.6478 -2.2036 -2.4765 0
M  V30 10 C 0.5223 -2.7892 -2.0398 0
M  V30 11 C 0.401 2.7128 4.2916 0 CFG=1
M  V30 12 C -1.8956 -2.7415 -3.0921 0
M  V30 13 N 0.7674 1.8318 5.4336 0
M  V30 14 C 1.0202 3.9945 4.6898 0
M  V30 15 N -1.6361 -3.4917 -4.3369 0
M  V30 16 C 1.4903 2.5864 6.2054 0
M  V30 17 N 0.7817 5.196 3.9568 0 CHG=1
M  V30 18 C 1.6972 3.9798 5.8319 0
M  V30 19 C -1.2056 -2.5921 -5.412 0
M  V30 20 C -2.8466 -4.2056 -4.7467 0
M  V30 21 O 1.3352 6.2315 4.3522 0
M  V30 22 O 0.0235 5.1265 2.9821 0 CHG=-1
M  V30 23 H 1.9638 1.0032 -1.2431 0
M  V30 24 H 0.5905 1.4677 -2.2399 0
M  V30 25 H 1.839 0.3578 1.227 0
M  V30 26 H 0.3803 -0.6585 1.2108 0
M  V30 27 H 0.809 0.1139 3.4781 0
M  V30 28 H -0.7031 0.8189 2.8857 0
M  V30 29 H 2.3274 -1.8237 -1.1261 0
M  V30 30 H 0.604 2.7817 2.2787 0
M  V30 31 H 0.7539 -3.844 -2.0896 0
M  V30 32 H -0.6923 2.8035 4.2565 0
M  V30 33 H -2.3468 -3.4131 -2.3497 0
M  V30 34 H -2.6176 -1.9326 -3.2646 0
M  V30 35 H 1.9353 2.2233 7.1444 0
M  V30 36 H 2.2018 4.7504 6.3812 0
M  V30 37 H -0.2599 -2.0982 -5.1649 0
M  V30 38 H -1.9526 -1.82 -5.6302 0
M  V30 39 H -1.0214 -3.1588 -6.3319 0
M  V30 40 H -3.684 -3.5255 -4.9417 0
M  V30 41 H -3.1538 -4.9189 -3.9738 0
M  V30 42 H -2.6597 -4.7916 -5.6536 0
M  V30 END ATOM
M  V30 BEGIN BOND
M  V30 1 1 1 2
M  V30 2 1 1 3
M  V30 3 1 2 4
M  V30 4 1 3 5
M  V30 5 1 4 6
M  V30 6 2 4 7
M  V30 7 1 5 8
M  V30 8 1 6 9
M  V30 9 1 7 10
M  V30 10 1 8 11
M  V30 11 1 9 12
M  V30 12 1 11 13
M  V30 13 1 11 14
M  V30 14 1 12 15
M  V30 15 2 13 16
M  V30 16 1 14 17
M  V30 17 2 14 18
M  V30 18 1 15 19
M  V30 19 1 15 20
M  V30 20 2 17 21
M  V30 21 1 17 22
M  V30 22 2 9 10
M  V30 23 1 16 18
M  V30 24 1 2 23
M  V30 25 1 2 24
M  V30 26 1 3 25
M  V30 27 1 3 26
M  V30 28 1 5 27
M  V30 29 1 5 28
M  V30 30 1 7 29
M  V30 31 1 8 30
M  V30 32 1 10 31
M  V30 33 1 11 32
M  V30 34 1 12 33
M  V30 35 1 12 34
M  V30 36 1 16 35
M  V30 37 1 18 36
M  V30 38 1 19 37
M  V30 39 1 19 38
M  V30 40 1 19 39
M  V30 41 1 20 40
M  V30 42 1 20 41
M  V30 43 1 20 42
M  V30 END BOND
M  V30 BEGIN COLLECTION
M  V30 MDLV30/STERAC1 ATOMS=(1 11)
M  V30 END COLLECTION
M  V30 END CTAB
M  END
>  <Column 1>
97

>  <level_0>
110

>  <index>
110

>  <Unnamed: 0>
110

>  <NO.>
111

>  <Name>
compound 35

>  <IUPAC_name>


>  <SMILES>
CN(C)Cc1ccc(CSCCNC2N=CC=C2[N+](=O)[O-])o1

>  <CID>


>  <logBB>
-1.12

>  <BBB+/BBB->
BBB-

>  <Inchi>
InChI=1S/C14H20N4O3S/c1-17(2)9-11-3-4-12(21-11)10-22-8-7-16-14-13(18(19)20)5-6-15-14/h3-6-14-16H-7-10H2-1-2H3

>  <threshold>


>  <reference>
R36|

>  <group>
A

>  <Class>
-1

>  <ABC>
16.62

>  <ABCGG>
14.2

>  <nAcid>
0

>  <nBase>
2

>  <nAromAtom>
5

>  <nAromBond>
5

>  <nAtom>
42

>  <nHeavyAtom>
22

>  <nSpiro>
0

>  <nBridgehead>
0

>  <nHetero>
8

>  <nN>
4

>  <nO>
3

>  <nF>
0

>  <BalabanJ>
1.51

>  <BertzCT>
568.19

>  <nBonds>
43

>  <nBondsO>
23

>  <nBondsS>
35

>  <nBondsD>
3

>  <nBondsT>
0

>  <nBondsA>
5

>  <nBondsM>
8

>  <nBondsKS>
38

>  <nBondsKD>
5

>  <RNCG>
0.23

>  <RPCG>
0.14

>  <FCSP3>
0.5

>  <SZ>
28.67

>  <Sm>
27.01

>  <Sv>
25.78

>  <Sse>
42.6

>  <Sp>
27.8

>  <Si>
47.86

>  <MZ>
0.68

>  <Mm>
0.64

>  <Mv>
0.61

>  <Mse>
1.01

>  <Mp>
0.66

>  <Mi>
1.14

>  <NsCH3>
2

>  <NdCH2>
0

>  <NssCH2>
4

>  <NtCH>
0

>  <NdsCH>
2

>  <NaaCH>
2

>  <NsssCH>
1

>  <NddC>
0

>  <NtsC>
0

>  <NdssC>
1

>  <NaasC>
2

>  <NaaaC>
0

>  <NssssC>
0

>  <NsNH3>
0

>  <NsNH2>
0

>  <NssNH2>
0

>  <NdNH>
0

>  <NssNH>
1

>  <NaaNH>
0

>  <NtN>
0

>  <NsssNH>
0

>  <NdsN>
1

>  <NaaN>
0

>  <NsssN>
1

>  <NddsN>
1

>  <NaasN>
0

>  <NssssN>
0

>  <NsOH>
0

>  <NdO>
1

>  <NssO>
0

>  <NaaO>
1

>  <NsF>
0

>  <NsSiH3>
0

>  <NssSiH2>
0

>  <NsssSiH>
0

>  <NssssSi>
0

>  <NsPH2>
0

>  <NssPH>
0

>  <NsssP>
0

>  <NdsssP>
0

>  <NsssssP>
0

>  <NsSH>
0

>  <NdS>
0

>  <NssS>
1

>  <NaaS>
0

>  <NdssS>
0

>  <NddssS>
0

>  <NsCl>
0

>  <NsBr>
0

>  <NsI>
0

>  <fragCpx>
67.08

>  <fMF>
0.36

>  <nHBAcc>
7

>  <nHBDon>
1

>  <Kier1>
18.34

>  <Kier2>
9.33

>  <Lipinski>
1

>  <GhoseFilter>
1

>  <FilterItLogS>
-3.63

>  <VMcGowan>
238.78

>  <LabuteASA>
133.16

>  <PEOE_VSA1>
9.32

>  <PEOE_VSA2>
20.42

>  <PEOE_VSA3>
0

>  <PEOE_VSA4>
11.76

>  <PEOE_VSA5>
0

>  <PEOE_VSA6>
0

>  <PEOE_VSA7>
26.23

>  <PEOE_VSA8>
24.59

>  <PEOE_VSA9>
17.22

>  <PEOE_VSA10>
11.52

>  <PEOE_VSA11>
6.17

>  <PEOE_VSA12>
0

>  <PEOE_VSA13>
5.7

>  <SMR_VSA1>
9.34

>  <SMR_VSA2>
0

>  <SMR_VSA3>
10.22

>  <SMR_VSA4>
4.99

>  <SMR_VSA5>
18.46

>  <SMR_VSA6>
26.39

>  <SMR_VSA7>
45.54

>  <SMR_VSA8>
0

>  <SMR_VSA9>
0

>  <SlogP_VSA1>
5.32

>  <SlogP_VSA2>
48.6

>  <SlogP_VSA3>
12.3

>  <SlogP_VSA4>
10.11

>  <SlogP_VSA5>
11.52

>  <SlogP_VSA6>
33.32

>  <SlogP_VSA7>
0

>  <SlogP_VSA8>
0

>  <SlogP_VSA9>
0

>  <SlogP_VSA10>
0

>  <SlogP_VSA11>
0

>  <EState_VSA1>
11.09

>  <EState_VSA2>
5.7

>  <EState_VSA3>
6.54

>  <EState_VSA4>
29.57

>  <EState_VSA5>
12.29

>  <EState_VSA6>
11.76

>  <EState_VSA7>
26.23

>  <EState_VSA8>
15.21

>  <EState_VSA9>
4.42

>  <EState_VSA10>
10.11

>  <VSA_EState1>
5.72

>  <VSA_EState2>
16.44

>  <VSA_EState3>
13.83

>  <VSA_EState4>
0.1

>  <VSA_EState5>
3.54

>  <VSA_EState6>
3.99

>  <VSA_EState7>
2.38

>  <VSA_EState8>
1.45

>  <VSA_EState9>
4

>  <apol>
46.42

>  <bpol>
28.85

>  <nRing>
2

>  <nHRing>
2

>  <naRing>
1

>  <naHRing>
1

>  <nARing 2>
1

>  <nAHRing 2>
1

>  <nFRing>
0

>  <nFHRing>
0

>  <nFaRing>
0

>  <nFaHRing>
0

>  <nFARing 2>
0

>  <nFAHRing 2>
0

>  <nRot>
9

>  <SLogP>
1.74

>  <SMR>
87.62

>  <TopoPSA(NO)>
83.91

>  <TopoPSA>
109.21

>  <JGI1>
0.2

>  <JGI2>
0.06

>  <JGI3>
0.06

>  <JGI4>
0.03

>  <JGI5>
0.03

>  <Diameter>
14

>  <Radius>
7

>  <TMWC10>
116.71

>  <TSRW10>
70.69

>  <MW>
324.13

>  <AMW>
7.72

>  <WPath>
1357

>  <WPol>
25

>  <Zagreb1>
106

>  <Zagreb2>
118

>  <mZagreb2>
4.97

>  <yes>


>  <nAR-cont>
0.816016

>  <nHA-cont>
0.983774276

>  <MWHBN>
0.444355308

>  <MWHBN-cont>
0.306305536

>  <TPSA-cont>
0.237646385

>  <pka_cont>
0.97

>  <yes.1>


>  <BBB_SCORE>
3.219541349

>  <MMFF94 Energy>
-1.0143

$$$$
Compound 76
Actelion Java MolfileCreator 2.0

  0  0  0  0  0  0              0 V3000
M  V30 BEGIN CTAB
M  V30 COUNTS 42 43 0 0 0
M  V30 BEGIN ATOM
M  V30 1 S -0.9568 0.558 -0.3986 0
M  V30 2 C 0.4352 -0.4885 -0.9313 0
M  V30 3 C -0.0079 2.0375 0.0769 0
M  V30 4 C -0.0403 -1.8308 -1.3461 0
M  V30 5 C -0.9421 3.1341 0.5988 0
M  V30 6 O 0.2599 -2.8685 -0.512 0
M  V30 7 C -0.7324 -2.2958 -2.4458 0
M  V30 8 N -0.1821 4.3209 0.9712 0
M  V30 9 C -0.2511 -4.0004 -1.0774 0
M  V30 10 C -0.8709 -3.6925 -2.2707 0
M  V30 11 C -0.723 5.4612 1.4684 0
M  V30 12 C -0.0528 -5.2736 -0.3261 0
M  V30 13 N -2.0778 5.5914 1.671 0
M  V30 14 C -0.1371 6.6585 1.861 0
M  V30 15 N 0.6899 -6.2828 -1.106 0
M  V30 16 C -2.3662 6.8324 2.1785 0
M  V30 17 N 1.2692 6.9748 1.8237 0 CHG=1
M  V30 18 C -1.181 7.5199 2.3082 0
M  V30 19 C 0.6274 -7.5787 -0.4281 0
M  V30 20 C 2.0895 -5.8851 -1.285 0
M  V30 21 O 1.5969 8.1023 2.2191 0
M  V30 22 O 2.0481 6.1061 1.4023 0 CHG=-1
M  V30 23 H 1.1493 -0.578 -0.1061 0
M  V30 24 H 0.9433 -0.0043 -1.7715 0
M  V30 25 H 0.7166 1.765 0.8519 0
M  V30 26 H 0.5464 2.4016 -0.7947 0
M  V30 27 H -1.6701 3.4007 -0.1773 0
M  V30 28 H -1.4912 2.7665 1.4745 0
M  V30 29 H -1.0951 -1.6969 -3.2693 0
M  V30 30 H 0.8335 4.2769 0.8429 0
M  V30 31 H -1.3553 -4.3998 -2.9291 0
M  V30 32 H 0.4413 -5.0784 0.6346 0
M  V30 33 H -1.0541 -5.6589 -0.092 0
M  V30 34 H -2.7617 4.8747 1.4746 0
M  V30 35 H -3.3866 7.1156 2.402 0
M  V30 36 H -1.0704 8.5303 2.6827 0
M  V30 37 H -0.4114 -7.914 -0.3322 0
M  V30 38 H 1.0735 -7.5457 0.5725 0
M  V30 39 H 1.1483 -8.3449 -1.0131 0
M  V30 40 H 2.6068 -5.7484 -0.3282 0
M  V30 41 H 2.1704 -4.9552 -1.8577 0
M  V30 42 H 2.631 -6.6447 -1.8604 0
M  V30 END ATOM
M  V30 BEGIN BOND
M  V30 1 1 1 2
M  V30 2 1 1 3
M  V30 3 1 2 4
M  V30 4 1 3 5
M  V30 5 1 4 6
M  V30 6 2 4 7
M  V30 7 1 5 8
M  V30 8 1 6 9
M  V30 9 1 7 10
M  V30 10 1 8 11
M  V30 11 1 9 12
M  V30 12 1 11 13
M  V30 13 2 11 14
M  V30 14 1 12 15
M  V30 15 1 13 16
M  V30 16 1 14 17
M  V30 17 1 14 18
M  V30 18 1 15 19
M  V30 19 1 15 20
M  V30 20 2 17 21
M  V30 21 1 17 22
M  V30 22 2 9 10
M  V30 23 2 16 18
M  V30 24 1 2 23
M  V30 25 1 2 24
M  V30 26 1 3 25
M  V30 27 1 3 26
M  V30 28 1 5 27
M  V30 29 1 5 28
M  V30 30 1 7 29
M  V30 31 1 8 30
M  V30 32 1 10 31
M  V30 33 1 12 32
M  V30 34 1 12 33
M  V30 35 1 13 34
M  V30 36 1 16 35
M  V30 37 1 18 36
M  V30 38 1 19 37
M  V30 39 1 19 38
M  V30 40 1 19 39
M  V30 41 1 20 40
M  V30 42 1 20 41
M  V30 43 1 20 42
M  V30 END BOND
M  V30 END CTAB
M  END
>  <Column 1>
98

>  <level_0>
111

>  <index>
111

>  <Unnamed: 0>
111

>  <NO.>
112

>  <Name>
74188-86-6

>  <IUPAC_name>
n-[2-[[5-[(dimethylamino)methyl]furan-2-yl]methylsulfanyl]ethyl]-3-nitro-1h-pyrrol-2-amine

>  <SMILES>
CN(C)Cc1ccc(CSCCNc2[nH]ccc2[N+](=O)[O-])o1

>  <CID>
13646638

>  <logBB>
-1.12

>  <BBB+/BBB->
BBB-

>  <Inchi>
InChI=1S/C14H20N4O3S/c1-17(2)9-11-3-4-12(21-11)10-22-8-7-16-14-13(18(19)20)5-6-15-14/h3-6-15-16H-7-10H2-1-2H3

>  <threshold>


>  <reference>
R2|R2|R3|R8|R12|R18|R25|R26|R27|R38|R41|R46|R47|R48|R49|R49|R4|R40|R43|

>  <group>
A

>  <Class>
-1

>  <ABC>
16.62

>  <ABCGG>
14.2

>  <nAcid>
0

>  <nBase>
1

>  <nAromAtom>
10

>  <nAromBond>
10

>  <nAtom>
42

>  <nHeavyAtom>
22

>  <nSpiro>
0

>  <nBridgehead>
0

>  <nHetero>
8

>  <nN>
4

>  <nO>
3

>  <nF>
0

>  <BalabanJ>
1.51

>  <BertzCT>
608.76

>  <nBonds>
43

>  <nBondsO>
23

>  <nBondsS>
32

>  <nBondsD>
1

>  <nBondsT>
0

>  <nBondsA>
10

>  <nBondsM>
11

>  <nBondsKS>
38

>  <nBondsKD>
5

>  <RNCG>
0.21

>  <RPCG>
0.14

>  <FCSP3>
0.43

>  <SZ>
28.67

>  <Sm>
27.01

>  <Sv>
25.78

>  <Sse>
42.6

>  <Sp>
27.8

>  <Si>
47.86

>  <MZ>
0.68

>  <Mm>
0.64

>  <Mv>
0.61

>  <Mse>
1.01

>  <Mp>
0.66

>  <Mi>
1.14

>  <NsCH3>
2

>  <NdCH2>
0

>  <NssCH2>
4

>  <NtCH>
0

>  <NdsCH>
0

>  <NaaCH>
4

>  <NsssCH>
0

>  <NddC>
0

>  <NtsC>
0

>  <NdssC>
0

>  <NaasC>
4

>  <NaaaC>
0

>  <NssssC>
0

>  <NsNH3>
0

>  <NsNH2>
0

>  <NssNH2>
0

>  <NdNH>
0

>  <NssNH>
1

>  <NaaNH>
1

>  <NtN>
0

>  <NsssNH>
0

>  <NdsN>
0

>  <NaaN>
0

>  <NsssN>
1

>  <NddsN>
1

>  <NaasN>
0

>  <NssssN>
0

>  <NsOH>
0

>  <NdO>
1

>  <NssO>
0

>  <NaaO>
1

>  <NsF>
0

>  <NsSiH3>
0

>  <NssSiH2>
0

>  <NsssSiH>
0

>  <NssssSi>
0

>  <NsPH2>
0

>  <NssPH>
0

>  <NsssP>
0

>  <NdsssP>
0

>  <NsssssP>
0

>  <NsSH>
0

>  <NdS>
0

>  <NssS>
1

>  <NaaS>
0

>  <NdssS>
0

>  <NddssS>
0

>  <NsCl>
0

>  <NsBr>
0

>  <NsI>
0

>  <fragCpx>
67.08

>  <fMF>
0.36

>  <nHBAcc>
6

>  <nHBDon>
2

>  <Kier1>
18.34

>  <Kier2>
9.33

>  <Lipinski>
1

>  <GhoseFilter>
1

>  <FilterItLogS>
-4.61

>  <VMcGowan>
238.78

>  <LabuteASA>
132.77

>  <PEOE_VSA1>
19.62

>  <PEOE_VSA2>
10.11

>  <PEOE_VSA3>
0

>  <PEOE_VSA4>
11.76

>  <PEOE_VSA5>
0

>  <PEOE_VSA6>
0

>  <PEOE_VSA7>
26.23

>  <PEOE_VSA8>
24.56

>  <PEOE_VSA9>
17.22

>  <PEOE_VSA10>
11.52

>  <PEOE_VSA11>
5.82

>  <PEOE_VSA12>
0

>  <PEOE_VSA13>
0

>  <SMR_VSA1>
9.34

>  <SMR_VSA2>
0

>  <SMR_VSA3>
9.88

>  <SMR_VSA4>
0

>  <SMR_VSA5>
12.3

>  <SMR_VSA6>
31.71

>  <SMR_VSA7>
46.03

>  <SMR_VSA8>
0

>  <SMR_VSA9>
0

>  <SlogP_VSA1>
5.32

>  <SlogP_VSA2>
41.2

>  <SlogP_VSA3>
12.3

>  <SlogP_VSA4>
10.11

>  <SlogP_VSA5>
11.52

>  <SlogP_VSA6>
28.81

>  <SlogP_VSA7>
0

>  <SlogP_VSA8>
0

>  <SlogP_VSA9>
0

>  <SlogP_VSA10>
11.51

>  <SlogP_VSA11>
0

>  <EState_VSA1>
4.92

>  <EState_VSA2>
5.69

>  <EState_VSA3>
12.36

>  <EState_VSA4>
29.57

>  <EState_VSA5>
6.07

>  <EState_VSA6>
17.96

>  <EState_VSA7>
26.23

>  <EState_VSA8>
15.2

>  <EState_VSA9>
4.42

>  <EState_VSA10>
10.11

>  <VSA_EState1>
5.72

>  <VSA_EState2>
15.25

>  <VSA_EState3>
13.8

>  <VSA_EState4>
0.07

>  <VSA_EState5>
3.99

>  <VSA_EState6>
5.44

>  <VSA_EState7>
1.56

>  <VSA_EState8>
1.44

>  <VSA_EState9>
4

>  <apol>
46.42

>  <bpol>
28.28

>  <nRing>
2

>  <nHRing>
2

>  <naRing>
2

>  <naHRing>
2

>  <nARing 2>
0

>  <nAHRing 2>
0

>  <nFRing>
0

>  <nFHRing>
0

>  <nFaRing>
0

>  <nFaHRing>
0

>  <nFARing 2>
0

>  <nFAHRing 2>
0

>  <nRot>
9

>  <SLogP>
2.92

>  <SMR>
88.2

>  <TopoPSA(NO)>
87.34

>  <TopoPSA>
112.64

>  <JGI1>
0.2

>  <JGI2>
0.06

>  <JGI3>
0.06

>  <JGI4>
0.03

>  <JGI5>
0.03

>  <Diameter>
14

>  <Radius>
7

>  <TMWC10>
116.71

>  <TSRW10>
70.69

>  <MW>
324.13

>  <AMW>
7.72

>  <WPath>
1357

>  <WPol>
25

>  <Zagreb1>
106

>  <Zagreb2>
118

>  <mZagreb2>
4.97

>  <yes>


>  <nAR-cont>
0.336376

>  <nHA-cont>
0.983774276

>  <MWHBN>
0.444355308

>  <MWHBN-cont>
0.306305536

>  <TPSA-cont>
0.213702855

>  <pka_cont>
0.97

>  <yes.1>


>  <BBB_SCORE>
2.692014289

>  <MMFF94 Energy>
101.18

$$$$
Compound 77
Actelion Java MolfileCreator 2.0

  0  0  0  0  0  0              0 V3000
M  V30 BEGIN CTAB
M  V30 COUNTS 39 40 0 0 0
M  V30 BEGIN ATOM
M  V30 1 S 2.2379 2.958 -1.2783 0
M  V30 2 C 2.6319 1.5138 -0.389 0
M  V30 3 C 0.9502 2.3885 -2.4401 0
M  V30 4 O 2.003 0.3172 -0.5839 0
M  V30 5 C 3.5782 1.3695 0.6058 0
M  V30 6 C -0.4656 2.3611 -1.8416 0
M  V30 7 C 2.5276 -0.5794 0.2996 0
M  V30 8 C 3.5166 0.0248 1.0455 0
M  V30 9 N -0.6599 1.2188 -0.9629 0
M  V30 10 C 1.9636 -1.9603 0.269 0
M  V30 11 C -1.8514 0.7968 -0.4771 0
M  V30 12 N 0.6523 -2.0633 0.9514 0
M  V30 13 N -1.799 -0.3247 0.3258 0
M  V30 14 C -3.1915 1.1564 -0.5639 0
M  V30 15 C 0.7995 -1.9047 2.4047 0
M  V30 16 C 0.0681 -3.381 0.6654 0
M  V30 17 C -3.0541 -0.6988 0.7249 0
M  V30 18 N -3.7812 2.2559 -1.2776 0 CHG=1
M  V30 19 C -3.9438 0.1973 0.1831 0
M  V30 20 O -3.1878 3.3415 -1.2788 0
M  V30 21 O -4.8783 2.0389 -1.8127 0 CHG=-1
M  V30 22 H 0.9549 3.1071 -3.2672 0
M  V30 23 H 1.2244 1.4157 -2.8628 0
M  V30 24 H 4.2302 2.1499 0.9735 0
M  V30 25 H -0.661 3.2949 -1.3032 0
M  V30 26 H -1.1695 2.2908 -2.6792 0
M  V30 27 H 4.1111 -0.442 1.8183 0
M  V30 28 H 0.2082 0.7501 -0.6882 0
M  V30 29 H 1.8446 -2.2345 -0.7877 0
M  V30 30 H 2.6859 -2.6675 0.6975 0
M  V30 31 H -0.9383 -0.8136 0.5543 0
M  V30 32 H 1.149 -0.899 2.6595 0
M  V30 33 H 1.4936 -2.636 2.8344 0
M  V30 34 H -0.1711 -2.0217 2.9005 0
M  V30 35 H 0.7054 -4.2021 1.0135 0
M  V30 36 H -0.0976 -3.5015 -0.4108 0
M  V30 37 H -0.9129 -3.4784 1.1441 0
M  V30 38 H -3.1987 -1.5684 1.3516 0
M  V30 39 H -5.0197 0.1775 0.3065 0
M  V30 END ATOM
M  V30 BEGIN BOND
M  V30 1 1 1 2
M  V30 2 1 1 3
M  V30 3 1 2 4
M  V30 4 2 2 5
M  V30 5 1 3 6
M  V30 6 1 4 7
M  V30 7 1 5 8
M  V30 8 1 6 9
M  V30 9 1 7 10
M  V30 10 1 9 11
M  V30 11 1 10 12
M  V30 12 1 11 13
M  V30 13 2 11 14
M  V30 14 1 12 15
M  V30 15 1 12 16
M  V30 16 1 13 17
M  V30 17 1 14 18
M  V30 18 1 14 19
M  V30 19 2 18 20
M  V30 20 1 18 21
M  V30 21 2 7 8
M  V30 22 2 17 19
M  V30 23 1 3 22
M  V30 24 1 3 23
M  V30 25 1 5 24
M  V30 26 1 6 25
M  V30 27 1 6 26
M  V30 28 1 8 27
M  V30 29 1 9 28
M  V30 30 1 10 29
M  V30 31 1 10 30
M  V30 32 1 13 31
M  V30 33 1 15 32
M  V30 34 1 15 33
M  V30 35 1 15 34
M  V30 36 1 16 35
M  V30 37 1 16 36
M  V30 38 1 16 37
M  V30 39 1 17 38
M  V30 40 1 19 39
M  V30 END BOND
M  V30 END CTAB
M  END
>  <Column 1>
99

>  <level_0>
112

>  <index>
112

>  <Unnamed: 0>
112

>  <NO.>
113

>  <Name>
bbcpd17

>  <IUPAC_name>


>  <SMILES>
CN(C)Cc1ccc(SCCNc2[nH]ccc2[N+](=O)[O-])o1

>  <CID>


>  <logBB>
-1.12

>  <BBB+/BBB->
BBB-

>  <Inchi>
InChI=1S/C13H18N4O3S/c1-16(2)9-10-3-4-12(20-10)21-8-7-15-13-11(17(18)19)5-6-14-13/h3-6-14-15H-7-9H2-1-2H3

>  <threshold>


>  <reference>
R3|R38|R41|R43|

>  <group>
A

>  <Class>
-1

>  <ABC>
15.91

>  <ABCGG>
13.83

>  <nAcid>
0

>  <nBase>
1

>  <nAromAtom>
10

>  <nAromBond>
10

>  <nAtom>
39

>  <nHeavyAtom>
21

>  <nSpiro>
0

>  <nBridgehead>
0

>  <nHetero>
8

>  <nN>
4

>  <nO>
3

>  <nF>
0

>  <BalabanJ>
1.56

>  <BertzCT>
593.76

>  <nBonds>
40

>  <nBondsO>
22

>  <nBondsS>
29

>  <nBondsD>
1

>  <nBondsT>
0

>  <nBondsA>
10

>  <nBondsM>
11

>  <nBondsKS>
35

>  <nBondsKD>
5

>  <RNCG>
0.21

>  <RPCG>
0.15

>  <FCSP3>
0.38

>  <SZ>
27.33

>  <Sm>
25.84

>  <Sv>
24.24

>  <Sse>
39.71

>  <Sp>
26

>  <Si>
44.45

>  <MZ>
0.7

>  <Mm>
0.66

>  <Mv>
0.62

>  <Mse>
1.02

>  <Mp>
0.67

>  <Mi>
1.14

>  <NsCH3>
2

>  <NdCH2>
0

>  <NssCH2>
3

>  <NtCH>
0

>  <NdsCH>
0

>  <NaaCH>
4

>  <NsssCH>
0

>  <NddC>
0

>  <NtsC>
0

>  <NdssC>
0

>  <NaasC>
4

>  <NaaaC>
0

>  <NssssC>
0

>  <NsNH3>
0

>  <NsNH2>
0

>  <NssNH2>
0

>  <NdNH>
0

>  <NssNH>
1

>  <NaaNH>
1

>  <NtN>
0

>  <NsssNH>
0

>  <NdsN>
0

>  <NaaN>
0

>  <NsssN>
1

>  <NddsN>
1

>  <NaasN>
0

>  <NssssN>
0

>  <NsOH>
0

>  <NdO>
1

>  <NssO>
0

>  <NaaO>
1

>  <NsF>
0

>  <NsSiH3>
0

>  <NssSiH2>
0

>  <NsssSiH>
0

>  <NssssSi>
0

>  <NsPH2>
0

>  <NssPH>
0

>  <NsssP>
0

>  <NdsssP>
0

>  <NsssssP>
0

>  <NsSH>
0

>  <NdS>
0

>  <NssS>
1

>  <NaaS>
0

>  <NdssS>
0

>  <NddssS>
0

>  <NsCl>
0

>  <NsBr>
0

>  <NsI>
0

>  <fragCpx>
64.08

>  <fMF>
0.36

>  <nHBAcc>
6

>  <nHBDon>
2

>  <Kier1>
17.36

>  <Kier2>
8.59

>  <Lipinski>
1

>  <GhoseFilter>
1

>  <FilterItLogS>
-4.21

>  <VMcGowan>
224.69

>  <LabuteASA>
126.4

>  <PEOE_VSA1>
19.62

>  <PEOE_VSA2>
10.11

>  <PEOE_VSA3>
0

>  <PEOE_VSA4>
0

>  <PEOE_VSA5>
0

>  <PEOE_VSA6>
11.76

>  <PEOE_VSA7>
26.23

>  <PEOE_VSA8>
24.56

>  <PEOE_VSA9>
11.47

>  <PEOE_VSA10>
5.76

>  <PEOE_VSA11>
10.91

>  <PEOE_VSA12>
0

>  <PEOE_VSA13>
0

>  <SMR_VSA1>
9.34

>  <SMR_VSA2>
0

>  <SMR_VSA3>
9.88

>  <SMR_VSA4>
0

>  <SMR_VSA5>
11.64

>  <SMR_VSA6>
31.71

>  <SMR_VSA7>
40.27

>  <SMR_VSA8>
0

>  <SMR_VSA9>
0

>  <SlogP_VSA1>
5.32

>  <SlogP_VSA2>
41.2

>  <SlogP_VSA3>
6.54

>  <SlogP_VSA4>
10.11

>  <SlogP_VSA5>
5.76

>  <SlogP_VSA6>
33.91

>  <SlogP_VSA7>
0

>  <SlogP_VSA8>
0

>  <SlogP_VSA9>
0

>  <SlogP_VSA10>
11.51

>  <SlogP_VSA11>
0

>  <EState_VSA1>
4.92

>  <EState_VSA2>
5.69

>  <EState_VSA3>
12.36

>  <EState_VSA4>
23.15

>  <EState_VSA5>
6.07

>  <EState_VSA6>
17.96

>  <EState_VSA7>
31.13

>  <EState_VSA8>
10.3

>  <EState_VSA9>
4.42

>  <EState_VSA10>
10.11

>  <VSA_EState1>
5.67

>  <VSA_EState2>
15.2

>  <VSA_EState3>
14.62

>  <VSA_EState4>
0.06

>  <VSA_EState5>
2.12

>  <VSA_EState6>
5.35

>  <VSA_EState7>
1.55

>  <VSA_EState8>
1.38

>  <VSA_EState9>
3.98

>  <apol>
43.42

>  <bpol>
26.27

>  <nRing>
2

>  <nHRing>
2

>  <naRing>
2

>  <naHRing>
2

>  <nARing 2>
0

>  <nAHRing 2>
0

>  <nFRing>
0

>  <nFHRing>
0

>  <nFaRing>
0

>  <nFaHRing>
0

>  <nFARing 2>
0

>  <nFAHRing 2>
0

>  <nRot>
8

>  <SLogP>
2.78

>  <SMR>
82.76

>  <TopoPSA(NO)>
87.34

>  <TopoPSA>
112.64

>  <JGI1>
0.2

>  <JGI2>
0.06

>  <JGI3>
0.06

>  <JGI4>
0.03

>  <JGI5>
0.02

>  <Diameter>
13

>  <Radius>
7

>  <TMWC10>
114.5

>  <TSRW10>
69.54

>  <MW>
310.11

>  <AMW>
7.95

>  <WPath>
1153

>  <WPol>
24

>  <Zagreb1>
102

>  <Zagreb2>
114

>  <mZagreb2>
4.72

>  <yes>


>  <nAR-cont>
0.336376

>  <nHA-cont>
0.994529749

>  <MWHBN>
0.454288875

>  <MWHBN-cont>
0

>  <TPSA-cont>
0.213702855

>  <pka_cont>
0.97

>  <yes.1>


>  <BBB_SCORE>
2.243311459

>  <MMFF94 Energy>
76.816

$$$$
Compound 78
Actelion Java MolfileCreator 2.0

  0  0  0  0  0  0              0 V3000
M  V30 BEGIN CTAB
M  V30 COUNTS 46 47 0 0 0
M  V30 BEGIN ATOM
M  V30 1 S -2.0791 4.7228 3.2 0
M  V30 2 O -3.3557 4.1733 3.5871 0
M  V30 3 O -1.9182 6.0958 2.7802 0
M  V30 4 N -1.0557 4.5343 4.516 0
M  V30 5 C -1.3409 3.6588 1.998 0
M  V30 6 C -1.3185 2.2827 2.229 0
M  V30 7 C -0.8022 4.1881 0.8287 0
M  V30 8 C -0.7406 1.4116 1.2873 0
M  V30 9 C -0.23 3.3316 -0.1155 0
M  V30 10 C -0.1935 1.9435 0.0968 0
M  V30 11 C -0.7621 -0.0472 1.6468 0
M  V30 12 O 0.3666 1.0675 -0.7966 0
M  V30 13 O -1.2025 -0.4074 2.7356 0
M  V30 14 N -0.2781 -0.9367 0.7258 0
M  V30 15 C 0.7824 1.5633 -2.0633 0
M  V30 16 C -0.2083 -2.3662 0.95 0
M  V30 17 C -0.0635 -3.1415 -0.3731 0 CFG=2
M  V30 18 N 0.9057 -2.5413 -1.3228 0
M  V30 19 C -1.3753 -3.1637 -1.1701 0
M  V30 20 C 0.541 -3.0946 -2.6295 0
M  V30 21 C 2.2958 -2.8192 -0.9483 0
M  V30 22 C -0.9717 -2.9833 -2.6271 0
M  V30 23 C 3.2904 -2.0825 -1.8384 0
M  V30 24 H -1.5625 4.112 5.2951 0
M  V30 25 H -0.6137 5.4248 4.7447 0
M  V30 26 H -1.7527 1.8843 3.1455 0
M  V30 27 H -0.8205 5.26 0.6414 0
M  V30 28 H 0.1863 3.7841 -1.0105 0
M  V30 29 H 0.1351 -0.5928 -0.1385 0
M  V30 30 H -0.0482 2.0369 -2.5966 0
M  V30 31 H 1.1174 0.7102 -2.6609 0
M  V30 32 H 1.6295 2.2481 -1.9562 0
M  V30 33 H -1.0984 -2.6924 1.4997 0
M  V30 34 H 0.6605 -2.5415 1.5938 0
M  V30 35 H 0.2118 -4.1813 -0.1473 0
M  V30 36 H -1.8894 -4.121 -1.0279 0
M  V30 37 H -2.0708 -2.3695 -0.8761 0
M  V30 38 H 0.9713 -2.5283 -3.4609 0
M  V30 39 H 0.841 -4.1458 -2.7236 0
M  V30 40 H 2.4727 -2.4804 0.0789 0
M  V30 41 H 2.5078 -3.8953 -0.9717 0
M  V30 42 H -1.2807 -1.9892 -2.9731 0
M  V30 43 H -1.4409 -3.7261 -3.2793 0
M  V30 44 H 4.3086 -2.2353 -1.4657 0
M  V30 45 H 3.0935 -1.0052 -1.8425 0
M  V30 46 H 3.259 -2.445 -2.8703 0
M  V30 END ATOM
M  V30 BEGIN BOND
M  V30 1 2 1 2
M  V30 2 2 1 3
M  V30 3 1 1 4
M  V30 4 1 1 5
M  V30 5 2 5 6
M  V30 6 1 5 7
M  V30 7 1 6 8
M  V30 8 2 7 9
M  V30 9 2 8 10
M  V30 10 1 8 11
M  V30 11 1 10 12
M  V30 12 2 11 13
M  V30 13 1 11 14
M  V30 14 1 12 15
M  V30 15 1 14 16
M  V30 16 1 16 17
M  V30 17 1 17 18
M  V30 18 1 17 19
M  V30 19 1 18 20
M  V30 20 1 18 21
M  V30 21 1 19 22
M  V30 22 1 21 23
M  V30 23 1 9 10
M  V30 24 1 20 22
M  V30 25 1 4 24
M  V30 26 1 4 25
M  V30 27 1 6 26
M  V30 28 1 7 27
M  V30 29 1 9 28
M  V30 30 1 14 29
M  V30 31 1 15 30
M  V30 32 1 15 31
M  V30 33 1 15 32
M  V30 34 1 16 33
M  V30 35 1 16 34
M  V30 36 1 17 35
M  V30 37 1 19 36
M  V30 38 1 19 37
M  V30 39 1 20 38
M  V30 40 1 20 39
M  V30 41 1 21 40
M  V30 42 1 21 41
M  V30 43 1 22 42
M  V30 44 1 22 43
M  V30 45 1 23 44
M  V30 46 1 23 45
M  V30 47 1 23 46
M  V30 END BOND
M  V30 BEGIN COLLECTION
M  V30 MDLV30/STERAC1 ATOMS=(1 17)
M  V30 END COLLECTION
M  V30 END CTAB
M  END
>  <Column 1>
100

>  <level_0>
113

>  <index>
113

>  <Unnamed: 0>
113

>  <NO.>
114

>  <Name>
sulpiride

>  <IUPAC_name>
n-[(1-ethylpyrrolidin-2-yl)methyl]-2-methoxy-5-sulfamoylbenzamide

>  <SMILES>
CCN1CCCC1CNC(=O)c1cc(S(N)(=O)=O)ccc1OC

>  <CID>
5355

>  <logBB>
-1.11

>  <BBB+/BBB->
BBB-

>  <Inchi>
InChI=1S/C15H23N3O4S/c1-3-18-8-4-5-11(18)10-17-15(19)13-9-12(23(16-20)21)6-7-14(13)22-2/h6-7-9-11H-3-5-8-10H2-1-2H3-(H-17-19)(H2-16-20-21)

>  <threshold>


>  <reference>
R18|R26|R27|

>  <group>
A

>  <Class>
-1

>  <ABC>
17.37

>  <ABCGG>
15.51

>  <nAcid>
0

>  <nBase>
1

>  <nAromAtom>
6

>  <nAromBond>
6

>  <nAtom>
46

>  <nHeavyAtom>
23

>  <nSpiro>
0

>  <nBridgehead>
0

>  <nHetero>
8

>  <nN>
3

>  <nO>
4

>  <nF>
0

>  <BalabanJ>
1.9

>  <BertzCT>
675.3

>  <nBonds>
47

>  <nBondsO>
24

>  <nBondsS>
38

>  <nBondsD>
3

>  <nBondsT>
0

>  <nBondsA>
6

>  <nBondsM>
9

>  <nBondsKS>
41

>  <nBondsKD>
6

>  <RNCG>
0.22

>  <RPCG>
0.11

>  <FCSP3>
0.53

>  <SZ>
30.33

>  <Sm>
28.43

>  <Sv>
27.55

>  <Sse>
46.6

>  <Sp>
29.82

>  <Si>
52.41

>  <MZ>
0.66

>  <Mm>
0.62

>  <Mv>
0.6

>  <Mse>
1.01

>  <Mp>
0.65

>  <Mi>
1.14

>  <NsCH3>
2

>  <NdCH2>
0

>  <NssCH2>
5

>  <NtCH>
0

>  <NdsCH>
0

>  <NaaCH>
3

>  <NsssCH>
1

>  <NddC>
0

>  <NtsC>
0

>  <NdssC>
1

>  <NaasC>
3

>  <NaaaC>
0

>  <NssssC>
0

>  <NsNH3>
0

>  <NsNH2>
1

>  <NssNH2>
0

>  <NdNH>
0

>  <NssNH>
1

>  <NaaNH>
0

>  <NtN>
0

>  <NsssNH>
0

>  <NdsN>
0

>  <NaaN>
0

>  <NsssN>
1

>  <NddsN>
0

>  <NaasN>
0

>  <NssssN>
0

>  <NsOH>
0

>  <NdO>
3

>  <NssO>
1

>  <NaaO>
0

>  <NsF>
0

>  <NsSiH3>
0

>  <NssSiH2>
0

>  <NsssSiH>
0

>  <NssssSi>
0

>  <NsPH2>
0

>  <NssPH>
0

>  <NsssP>
0

>  <NdsssP>
0

>  <NsssssP>
0

>  <NsSH>
0

>  <NdS>
0

>  <NssS>
0

>  <NaaS>
0

>  <NdssS>
0

>  <NddssS>
1

>  <NsCl>
0

>  <NsBr>
0

>  <NsI>
0

>  <fragCpx>
70.08

>  <fMF>
0.3

>  <nHBAcc>
5

>  <nHBDon>
2

>  <Kier1>
19.33

>  <Kier2>
8.39

>  <Lipinski>
1

>  <GhoseFilter>
1

>  <FilterItLogS>
-3.02

>  <VMcGowan>
253.06

>  <LabuteASA>
136.4

>  <PEOE_VSA1>
10.05

>  <PEOE_VSA2>
9.69

>  <PEOE_VSA3>
13.56

>  <PEOE_VSA4>
0

>  <PEOE_VSA5>
0

>  <PEOE_VSA6>
6.92

>  <PEOE_VSA7>
44.13

>  <PEOE_VSA8>
12.59

>  <PEOE_VSA9>
17.57

>  <PEOE_VSA10>
5.75

>  <PEOE_VSA11>
0

>  <PEOE_VSA12>
10.02

>  <PEOE_VSA13>
5.91

>  <SMR_VSA1>
17.95

>  <SMR_VSA2>
0

>  <SMR_VSA3>
10.22

>  <SMR_VSA4>
5.14

>  <SMR_VSA5>
30.7

>  <SMR_VSA6>
26.74

>  <SMR_VSA7>
23.76

>  <SMR_VSA8>
0

>  <SMR_VSA9>
5.75

>  <SlogP_VSA1>
15.19

>  <SlogP_VSA2>
52.01

>  <SlogP_VSA3>
10.02

>  <SlogP_VSA4>
0

>  <SlogP_VSA5>
30.12

>  <SlogP_VSA6>
23.09

>  <SlogP_VSA7>
0

>  <SlogP_VSA8>
0

>  <SlogP_VSA9>
0

>  <SlogP_VSA10>
0

>  <SlogP_VSA11>
5.75

>  <EState_VSA1>
10.02

>  <EState_VSA2>
16.37

>  <EState_VSA3>
18.34

>  <EState_VSA4>
25.93

>  <EState_VSA5>
25.31

>  <EState_VSA6>
0

>  <EState_VSA7>
0

>  <EState_VSA8>
17.14

>  <EState_VSA9>
9.88

>  <EState_VSA10>
13.21

>  <VSA_EState1>
28.05

>  <VSA_EState2>
14.62

>  <VSA_EState3>
7.98

>  <VSA_EState4>
0.17

>  <VSA_EState5>
-0.05

>  <VSA_EState6>
4.32

>  <VSA_EState7>
2.17

>  <VSA_EState8>
4.61

>  <VSA_EState9>
-2.44

>  <apol>
49.79

>  <bpol>
34.04

>  <nRing>
2

>  <nHRing>
1

>  <naRing>
1

>  <naHRing>
0

>  <nARing 2>
1

>  <nAHRing 2>
1

>  <nFRing>
0

>  <nFHRing>
0

>  <nFaRing>
0

>  <nFaHRing>
0

>  <nFARing 2>
0

>  <nFAHRing 2>
0

>  <nRot>
6

>  <SLogP>
0.56

>  <SMR>
86.97

>  <TopoPSA(NO)>
101.73

>  <TopoPSA>
110.11

>  <JGI1>
0.25

>  <JGI2>
0.1

>  <JGI3>
0.05

>  <JGI4>
0.04

>  <JGI5>
0.04

>  <Diameter>
11

>  <Radius>
6

>  <TMWC10>
120.85

>  <TSRW10>
70.69

>  <MW>
341.14

>  <AMW>
7.42

>  <WPath>
1251

>  <WPol>
34

>  <Zagreb1>
116

>  <Zagreb2>
134

>  <mZagreb2>
5.17

>  <yes>


>  <nAR-cont>
0.816016

>  <nHA-cont>
0.967789328

>  <MWHBN>
0.378993461

>  <MWHBN-cont>
0.558753244

>  <TPSA-cont>
0.231363826

>  <pka_cont>
0.97

>  <yes.1>


>  <BBB_SCORE>
3.569662845

>  <MMFF94 Energy>
-44.888

$$$$
Compound 79
Actelion Java MolfileCreator 2.0

  0  0  0  0  0  0              0 V3000
M  V30 BEGIN CTAB
M  V30 COUNTS 16 16 0 0 0
M  V30 BEGIN ATOM
M  V30 1 O 0.0785 -1.0216 -2.6735 0
M  V30 2 C 0.0879 0.0059 -2.0158 0
M  V30 3 O 0.177 1.2151 -2.5939 0
M  V30 4 C 0.0048 0.0517 -0.5397 0
M  V30 5 C -0.0921 -1.1451 0.1843 0
M  V30 6 C 0.0211 1.2717 0.1517 0
M  V30 7 O -0.1156 -2.3839 -0.4007 0
M  V30 8 C -0.1715 -1.1239 1.5759 0
M  V30 9 C -0.0585 1.2899 1.5467 0
M  V30 10 C -0.1547 0.0934 2.2569 0
M  V30 11 H 0.2238 1.0273 -3.5548 0
M  V30 12 H 0.0955 2.2144 -0.3851 0
M  V30 13 H -0.0544 -2.2751 -1.3745 0
M  V30 14 H -0.2465 -2.0572 2.1281 0
M  V30 15 H -0.0455 2.2379 2.0794 0
M  V30 16 H -0.2168 0.1073 3.3424 0
M  V30 END ATOM
M  V30 BEGIN BOND
M  V30 1 2 1 2
M  V30 2 1 2 3
M  V30 3 1 2 4
M  V30 4 2 4 5
M  V30 5 1 4 6
M  V30 6 1 5 7
M  V30 7 1 5 8
M  V30 8 2 6 9
M  V30 9 2 8 10
M  V30 10 1 9 10
M  V30 11 1 3 11
M  V30 12 1 6 12
M  V30 13 1 7 13
M  V30 14 1 8 14
M  V30 15 1 9 15
M  V30 16 1 10 16
M  V30 END BOND
M  V30 END CTAB
M  END
>  <Column 1>
101

>  <level_0>
114

>  <index>
114

>  <Unnamed: 0>
114

>  <NO.>
115

>  <Name>
salicylic acid (2-hydroxybenzoic acid)

>  <IUPAC_name>
2-hydroxybenzoic acid

>  <SMILES>
O=C(O)c1ccccc1O

>  <CID>
338

>  <logBB>
-1.1

>  <BBB+/BBB->
BBB-

>  <Inchi>
InChI=1S/C7H6O3/c8-6-4-2-1-3-5(6)7(9)10/h1-4-8H-(H-9-10)

>  <threshold>


>  <reference>
R3|R41|R38|R40|R50|R8|R21|R27|R2|R2|R27|R3|R5|R11|R12|R17|R18|R25|R26|R27|R35|R36|R39|R43|R46|R47|R48|R49|R49|R4|R31|

>  <group>
A

>  <Class>
-1

>  <ABC>
7.32

>  <ABCGG>
7.07

>  <nAcid>
1

>  <nBase>
0

>  <nAromAtom>
6

>  <nAromBond>
6

>  <nAtom>
16

>  <nHeavyAtom>
10

>  <nSpiro>
0

>  <nBridgehead>
0

>  <nHetero>
3

>  <nN>
0

>  <nO>
3

>  <nF>
0

>  <BalabanJ>
2.4

>  <BertzCT>
254.78

>  <nBonds>
16

>  <nBondsO>
10

>  <nBondsS>
9

>  <nBondsD>
1

>  <nBondsT>
0

>  <nBondsA>
6

>  <nBondsM>
7

>  <nBondsKS>
12

>  <nBondsKD>
4

>  <RNCG>
0.36

>  <RPCG>
0.24

>  <FCSP3>
0

>  <SZ>
12

>  <Sm>
11.5

>  <Sv>
10.77

>  <Sse>
16.66

>  <Sp>
10.84

>  <Si>
17.87

>  <MZ>
0.75

>  <Mm>
0.72

>  <Mv>
0.67

>  <Mse>
1.04

>  <Mp>
0.68

>  <Mi>
1.12

>  <NsCH3>
0

>  <NdCH2>
0

>  <NssCH2>
0

>  <NtCH>
0

>  <NdsCH>
0

>  <NaaCH>
4

>  <NsssCH>
0

>  <NddC>
0

>  <NtsC>
0

>  <NdssC>
1

>  <NaasC>
2

>  <NaaaC>
0

>  <NssssC>
0

>  <NsNH3>
0

>  <NsNH2>
0

>  <NssNH2>
0

>  <NdNH>
0

>  <NssNH>
0

>  <NaaNH>
0

>  <NtN>
0

>  <NsssNH>
0

>  <NdsN>
0

>  <NaaN>
0

>  <NsssN>
0

>  <NddsN>
0

>  <NaasN>
0

>  <NssssN>
0

>  <NsOH>
2

>  <NdO>
1

>  <NssO>
0

>  <NaaO>
0

>  <NsF>
0

>  <NsSiH3>
0

>  <NssSiH2>
0

>  <NsssSiH>
0

>  <NssssSi>
0

>  <NsPH2>
0

>  <NssPH>
0

>  <NsssP>
0

>  <NdsssP>
0

>  <NsssssP>
0

>  <NsSH>
0

>  <NdS>
0

>  <NssS>
0

>  <NaaS>
0

>  <NdssS>
0

>  <NddssS>
0

>  <NsCl>
0

>  <NsBr>
0

>  <NsI>
0

>  <fragCpx>
10.03

>  <fMF>
0.38

>  <nHBAcc>
2

>  <nHBDon>
2

>  <Kier1>
8.1

>  <Kier2>
3.41

>  <Lipinski>
1

>  <GhoseFilter>
0

>  <FilterItLogS>
-0.56

>  <VMcGowan>
99.04

>  <LabuteASA>
57.55

>  <PEOE_VSA1>
10.21

>  <PEOE_VSA2>
0

>  <PEOE_VSA3>
4.79

>  <PEOE_VSA4>
0

>  <PEOE_VSA5>
0

>  <PEOE_VSA6>
12.13

>  <PEOE_VSA7>
12.13

>  <PEOE_VSA8>
0

>  <PEOE_VSA9>
0

>  <PEOE_VSA10>
11.31

>  <PEOE_VSA11>
0

>  <PEOE_VSA12>
0

>  <PEOE_VSA13>
0

>  <SMR_VSA1>
15.01

>  <SMR_VSA2>
0

>  <SMR_VSA3>
0

>  <SMR_VSA4>
0

>  <SMR_VSA5>
0

>  <SMR_VSA6>
0

>  <SMR_VSA7>
29.83

>  <SMR_VSA8>
0

>  <SMR_VSA9>
5.75

>  <SlogP_VSA1>
0

>  <SlogP_VSA2>
16.18

>  <SlogP_VSA3>
0

>  <SlogP_VSA4>
0

>  <SlogP_VSA5>
10.36

>  <SlogP_VSA6>
24.27

>  <SlogP_VSA7>
0

>  <SlogP_VSA8>
0

>  <SlogP_VSA9>
0

>  <SlogP_VSA10>
0

>  <SlogP_VSA11>
5.75

>  <EState_VSA1>
5.97

>  <EState_VSA2>
11.31

>  <EState_VSA3>
0

>  <EState_VSA4>
0

>  <EState_VSA5>
12.13

>  <EState_VSA6>
12.13

>  <EState_VSA7>
0

>  <EState_VSA8>
0

>  <EState_VSA9>
10.21

>  <EState_VSA10>
4.79

>  <VSA_EState1>
0

>  <VSA_EState2>
10.26

>  <VSA_EState3>
17.31

>  <VSA_EState4>
-0.07

>  <VSA_EState5>
-1.31

>  <VSA_EState6>
5.81

>  <VSA_EState7>
0

>  <VSA_EState8>
0

>  <VSA_EState9>
0

>  <apol>
18.1

>  <bpol>
6.89

>  <nRing>
1

>  <nHRing>
0

>  <naRing>
1

>  <naHRing>
0

>  <nARing 2>
0

>  <nAHRing 2>
0

>  <nFRing>
0

>  <nFHRing>
0

>  <nFaRing>
0

>  <nFaHRing>
0

>  <nFARing 2>
0

>  <nFAHRing 2>
0

>  <nRot>
1

>  <SLogP>
1.09

>  <SMR>
35.07

>  <TopoPSA(NO)>
57.53

>  <TopoPSA>
57.53

>  <JGI1>
0.2

>  <JGI2>
0.1

>  <JGI3>
0.07

>  <JGI4>
0.04

>  <JGI5>
0.06

>  <Diameter>
5

>  <Radius>
3

>  <TMWC10>
83.82

>  <TSRW10>
39.31

>  <MW>
138.03

>  <AMW>
8.63

>  <WPath>
114

>  <WPol>
12

>  <Zagreb1>
46

>  <Zagreb2>
51

>  <mZagreb2>
2.31

>  <yes>


>  <nAR-cont>
0.336376

>  <nHA-cont>
0.645914733

>  <MWHBN>
0.340465607

>  <MWHBN-cont>
0.705439557

>  <TPSA-cont>
0.598404876

>  <pka_cont>
0.97

>  <yes.1>


>  <BBB_SCORE>
3.722259821

>  <MMFF94 Energy>
8.8294

$$$$
Compound 80
Actelion Java MolfileCreator 2.0

  0  0  0  0  0  0              0 V3000
M  V30 BEGIN CTAB
M  V30 COUNTS 41 43 0 0 0
M  V30 BEGIN ATOM
M  V30 1 F 1.7611 2.9632 0.56 0
M  V30 2 C 1.3539 1.7762 0.0813 0
M  V30 3 C 0.3579 1.0435 0.7503 0
M  V30 4 C 1.922 1.337 -1.1069 0
M  V30 5 N -0.2127 1.4963 1.9377 0
M  V30 6 C -0.0476 -0.1657 0.1467 0
M  V30 7 C 1.4977 0.1313 -1.6711 0
M  V30 8 C -1.5553 1.0653 2.3584 0
M  V30 9 C 0.6891 1.8679 3.047 0
M  V30 10 C 0.5022 -0.6538 -1.0582 0
M  V30 11 C 2.1211 -0.3119 -2.9446 0
M  V30 12 C -2.1746 2.0755 3.3512 0
M  V30 13 C -0.0043 2.8498 4.0174 0
M  V30 14 N 0.1088 -1.8696 -1.6632 0
M  V30 15 O 3.0176 0.3588 -3.4443 0
M  V30 16 C 1.6293 -1.5691 -3.5573 0
M  V30 17 N -1.311 2.37 4.5093 0
M  V30 18 C 0.6812 -2.2325 -2.8765 0
M  V30 19 C -0.9242 -2.7157 -1.0383 0
M  V30 20 C 2.1378 -2.0679 -4.8497 0
M  V30 21 C -2.3214 -2.2522 -1.4262 0
M  V30 22 O 2.8783 -1.4946 -5.6266 0
M  V30 23 O 1.6955 -3.3061 -5.1572 0
M  V30 24 H 2.6832 1.9461 -1.5865 0
M  V30 25 H -0.8073 -0.7456 0.6573 0
M  V30 26 H -2.2274 0.9934 1.4945 0
M  V30 27 H -1.4949 0.076 2.829 0
M  V30 28 H 1.6167 2.3347 2.7027 0
M  V30 29 H 0.9735 0.9564 3.5888 0
M  V30 30 H -3.1271 1.6763 3.7168 0
M  V30 31 H -2.401 3.0113 2.824 0
M  V30 32 H 0.6505 3.0211 4.8788 0
M  V30 33 H -0.1402 3.8185 3.5195 0
M  V30 34 H -1.7425 3.1079 5.0648 0
M  V30 35 H 0.2721 -3.1612 -3.2695 0
M  V30 36 H -0.8092 -2.7639 0.0501 0
M  V30 37 H -0.8021 -3.7541 -1.3744 0
M  V30 38 H -2.4543 -2.2756 -2.5131 0
M  V30 39 H -2.5192 -1.23 -1.0895 0
M  V30 40 H -3.0747 -2.9078 -0.9781 0
M  V30 41 H 2.1267 -3.479 -6.0217 0
M  V30 END ATOM
M  V30 BEGIN BOND
M  V30 1 1 1 2
M  V30 2 2 2 3
M  V30 3 1 2 4
M  V30 4 1 3 5
M  V30 5 1 3 6
M  V30 6 2 4 7
M  V30 7 1 5 8
M  V30 8 1 5 9
M  V30 9 2 6 10
M  V30 10 1 7 11
M  V30 11 1 8 12
M  V30 12 1 9 13
M  V30 13 1 10 14
M  V30 14 2 11 15
M  V30 15 1 11 16
M  V30 16 1 12 17
M  V30 17 1 14 18
M  V30 18 1 14 19
M  V30 19 1 16 20
M  V30 20 1 19 21
M  V30 21 2 20 22
M  V30 22 1 20 23
M  V30 23 1 7 10
M  V30 24 1 13 17
M  V30 25 2 16 18
M  V30 26 1 4 24
M  V30 27 1 6 25
M  V30 28 1 8 26
M  V30 29 1 8 27
M  V30 30 1 9 28
M  V30 31 1 9 29
M  V30 32 1 12 30
M  V30 33 1 12 31
M  V30 34 1 13 32
M  V30 35 1 13 33
M  V30 36 1 17 34
M  V30 37 1 18 35
M  V30 38 1 19 36
M  V30 39 1 19 37
M  V30 40 1 21 38
M  V30 41 1 21 39
M  V30 42 1 21 40
M  V30 43 1 23 41
M  V30 END BOND
M  V30 END CTAB
M  END
>  <Column 1>
102

>  <level_0>
115

>  <index>
115

>  <Unnamed: 0>
115

>  <NO.>
116

>  <Name>
norfloxacin

>  <IUPAC_name>
1-ethyl-6-fluoro-4-oxo-7-piperazin-1-ylquinoline-3-carboxylic acid

>  <SMILES>
CCn1cc(C(=O)O)c(=O)c2cc(F)c(N3CCNCC3)cc21

>  <CID>
4539

>  <logBB>
-1.1

>  <BBB+/BBB->
BBB-

>  <Inchi>
InChI=1S/C16H18FN3O3/c1-2-19-9-11(16(22)23)15(21)10-7-12(17)14(8-13(10)19)20-5-3-18-4-6-20/h7-9-18H-2-6H2-1H3-(H-22-23)

>  <threshold>


>  <reference>
R2|R2|R25|R46|R42|

>  <group>
A

>  <Class>
-1

>  <ABC>
17.83

>  <ABCGG>
14.7

>  <nAcid>
1

>  <nBase>
1

>  <nAromAtom>
10

>  <nAromBond>
11

>  <nAtom>
41

>  <nHeavyAtom>
23

>  <nSpiro>
0

>  <nBridgehead>
0

>  <nHetero>
7

>  <nN>
3

>  <nO>
3

>  <nF>
1

>  <BalabanJ>
1.75

>  <BertzCT>
825.41

>  <nBonds>
43

>  <nBondsO>
25

>  <nBondsS>
30

>  <nBondsD>
2

>  <nBondsT>
0

>  <nBondsA>
11

>  <nBondsM>
13

>  <nBondsKS>
37

>  <nBondsKD>
6

>  <RNCG>
0.21

>  <RPCG>
0.15

>  <FCSP3>
0.38

>  <SZ>
28

>  <Sm>
26.59

>  <Sv>
25.94

>  <Sse>
41.93

>  <Sp>
26.94

>  <Si>
46.79

>  <MZ>
0.68

>  <Mm>
0.65

>  <Mv>
0.63

>  <Mse>
1.02

>  <Mp>
0.66

>  <Mi>
1.14

>  <NsCH3>
1

>  <NdCH2>
0

>  <NssCH2>
5

>  <NtCH>
0

>  <NdsCH>
0

>  <NaaCH>
3

>  <NsssCH>
0

>  <NddC>
0

>  <NtsC>
0

>  <NdssC>
1

>  <NaasC>
3

>  <NaaaC>
2

>  <NssssC>
0

>  <NsNH3>
0

>  <NsNH2>
0

>  <NssNH2>
0

>  <NdNH>
0

>  <NssNH>
1

>  <NaaNH>
0

>  <NtN>
0

>  <NsssNH>
0

>  <NdsN>
0

>  <NaaN>
0

>  <NsssN>
1

>  <NddsN>
0

>  <NaasN>
1

>  <NssssN>
0

>  <NsOH>
1

>  <NdO>
2

>  <NssO>
0

>  <NaaO>
0

>  <NsF>
1

>  <NsSiH3>
0

>  <NssSiH2>
0

>  <NsssSiH>
0

>  <NssssSi>
0

>  <NsPH2>
0

>  <NssPH>
0

>  <NsssP>
0

>  <NdsssP>
0

>  <NsssssP>
0

>  <NsSH>
0

>  <NdS>
0

>  <NssS>
0

>  <NaaS>
0

>  <NdssS>
0

>  <NddssS>
0

>  <NsCl>
0

>  <NsBr>
0

>  <NsI>
0

>  <fragCpx>
119.07

>  <fMF>
0.39

>  <nHBAcc>
5

>  <nHBDon>
2

>  <Kier1>
17.81

>  <Kier2>
7.49

>  <Lipinski>
1

>  <GhoseFilter>
1

>  <FilterItLogS>
-3.25

>  <VMcGowan>
227.23

>  <LabuteASA>
131.68

>  <PEOE_VSA1>
19.89

>  <PEOE_VSA2>
4.79

>  <PEOE_VSA3>
9.18

>  <PEOE_VSA4>
0

>  <PEOE_VSA5>
0

>  <PEOE_VSA6>
0

>  <PEOE_VSA7>
19.06

>  <PEOE_VSA8>
44.31

>  <PEOE_VSA9>
11.2

>  <PEOE_VSA10>
11.38

>  <PEOE_VSA11>
0

>  <PEOE_VSA12>
5.43

>  <PEOE_VSA13>
0

>  <SMR_VSA1>
14.29

>  <SMR_VSA2>
0

>  <SMR_VSA3>
9.88

>  <SMR_VSA4>
0

>  <SMR_VSA5>
13.47

>  <SMR_VSA6>
31.08

>  <SMR_VSA7>
39.93

>  <SMR_VSA8>
0

>  <SMR_VSA9>
0

>  <SlogP_VSA1>
15.65

>  <SlogP_VSA2>
41.82

>  <SlogP_VSA3>
6.54

>  <SlogP_VSA4>
5.82

>  <SlogP_VSA5>
17.28

>  <SlogP_VSA6>
23.12

>  <SlogP_VSA7>
0

>  <SlogP_VSA8>
10.9

>  <SlogP_VSA9>
0

>  <SlogP_VSA10>
10.08

>  <SlogP_VSA11>
0

>  <EState_VSA1>
17.22

>  <EState_VSA2>
10.95

>  <EState_VSA3>
30.84

>  <EState_VSA4>
19.16

>  <EState_VSA5>
6.2

>  <EState_VSA6>
10.63

>  <EState_VSA7>
11.82

>  <EState_VSA8>
5.32

>  <EState_VSA9>
5.11

>  <EState_VSA10>
13.98

>  <VSA_EState1>
16.17

>  <VSA_EState2>
25.44

>  <VSA_EState3>
12.46

>  <VSA_EState4>
0.01

>  <VSA_EState5>
-1.8

>  <VSA_EState6>
2.81

>  <VSA_EState7>
1.33

>  <VSA_EState8>
5.26

>  <VSA_EState9>
0

>  <apol>
44.99

>  <bpol>
24.9

>  <nRing>
3

>  <nHRing>
2

>  <naRing>
2

>  <naHRing>
1

>  <nARing 2>
1

>  <nAHRing 2>
1

>  <nFRing>
1

>  <nFHRing>
1

>  <nFaRing>
1

>  <nFaHRing>
1

>  <nFARing 2>
0

>  <nFAHRing 2>
0

>  <nRot>
3

>  <SLogP>
1.27

>  <SMR>
85.88

>  <TopoPSA(NO)>
74.57

>  <TopoPSA>
74.57

>  <JGI1>
0.18

>  <JGI2>
0.09

>  <JGI3>
0.05

>  <JGI4>
0.05

>  <JGI5>
0.04

>  <Diameter>
11

>  <Radius>
6

>  <TMWC10>
123.68

>  <TSRW10>
57.74

>  <MW>
319.13

>  <AMW>
7.78

>  <WPath>
1116

>  <WPol>
41

>  <Zagreb1>
122

>  <Zagreb2>
147

>  <mZagreb2>
5.11

>  <yes>


>  <nAR-cont>
0.816016

>  <nHA-cont>
0.967789328

>  <MWHBN>
0.391844923

>  <MWHBN-cont>
0.50819161

>  <TPSA-cont>
0.479455095

>  <pka_cont>
0.97

>  <yes.1>


>  <BBB_SCORE>
3.990002933

>  <MMFF94 Energy>
115.9

$$$$
Compound 81
Actelion Java MolfileCreator 2.0

  0  0  0  0  0  0              0 V3000
M  V30 BEGIN CTAB
M  V30 COUNTS 83 89 0 0 0
M  V30 BEGIN ATOM
M  V30 1 Br 1.9421 6.6475 5.9975 0
M  V30 2 C 0.9317 5.1264 5.4844 0
M  V30 3 N 0.0967 4.426 6.3189 0
M  V30 4 C 0.8956 4.54 4.2446 0
M  V30 5 C -0.4915 3.3846 5.6348 0
M  V30 6 C 5.0E-4 3.4498 4.3405 0
M  V30 7 C 1.5558 4.8296 2.9399 0
M  V30 8 C -1.4014 2.3993 6.0233 0
M  V30 9 C -0.3901 2.5332 3.3557 0
M  V30 10 C 1.595 3.5432 2.0285 0
M  V30 11 C -1.7921 1.4751 5.041 0
M  V30 12 C 0.2465 2.7547 2.0374 0
M  V30 13 C -1.2983 1.5358 3.7299 0
M  V30 14 N 2.0475 3.9068 0.6483 0
M  V30 15 C -0.332 2.3055 0.9081 0
M  V30 16 C 1.8365 2.773 -0.2755 0
M  V30 17 C 3.4622 4.291 0.6277 0
M  V30 18 C 0.3387 2.4647 -0.4333 0
M  V30 19 C 0.1457 1.1681 -1.2249 0
M  V30 20 O 0.9819 0.2717 -1.2607 0
M  V30 21 N -1.0847 1.0836 -1.8415 0
M  V30 22 C -1.594 -0.1142 -2.5073 0
M  V30 23 O -0.5852 -0.5895 -3.4067 0
M  V30 24 C -1.7645 -1.2312 -1.4607 0
M  V30 25 C -2.9008 0.2319 -3.2784 0
M  V30 26 C -0.3214 -1.9552 -3.1015 0
M  V30 27 O -2.4422 -1.1963 -0.4455 0
M  V30 28 N -0.9088 -2.2357 -1.8358 0
M  V30 29 C -3.3732 -0.8613 -4.2406 0
M  V30 30 C -4.0718 0.6244 -2.3654 0
M  V30 31 O -1.0153 -2.773 -4.0261 0
M  V30 32 C 1.1752 -2.3263 -3.1018 0
M  V30 33 C -0.4485 -3.3512 -0.9866 0
M  V30 34 N 1.3643 -3.7103 -2.6516 0
M  V30 35 C 1.8705 -2.3024 -4.4643 0
M  V30 36 C 0.5696 -4.2975 -1.6905 0
M  V30 37 C 0.206 -2.8365 0.3188 0
M  V30 38 C 2.3608 -4.4085 -3.4335 0
M  V30 39 C 3.0038 -3.3127 -4.2757 0
M  V30 40 O 0.7263 -5.4627 -1.3299 0
M  V30 41 C -0.5602 -3.2474 1.5932 0
M  V30 42 C -0.4896 -4.7548 1.8444 0
M  V30 43 C 0.0023 -2.4968 2.8032 0
M  V30 44 H -0.0633 4.648 7.2905 0
M  V30 45 H 2.5725 5.1929 3.1237 0
M  V30 46 H 0.9991 5.6284 2.4332 0
M  V30 47 H -1.7902 2.3413 7.0342 0
M  V30 48 H 2.3323 2.8502 2.4648 0
M  V30 49 H -2.4949 0.6869 5.3051 0
M  V30 50 H -1.6216 0.7857 3.0129 0
M  V30 51 H -1.2944 1.8023 0.933 0
M  V30 52 H 2.3954 1.8923 0.0714 0
M  V30 53 H 2.2322 3.022 -1.2692 0
M  V30 54 H 3.7807 4.525 -0.3947 0
M  V30 55 H 4.1128 3.4983 1.014 0
M  V30 56 H 3.638 5.2016 1.2079 0
M  V30 57 H -0.1506 3.2844 -0.9753 0
M  V30 58 H -1.7294 1.8482 -1.7009 0
M  V30 59 H -2.6787 1.1061 -3.9077 0
M  V30 60 H -2.631 -1.0477 -5.022 0
M  V30 61 H -4.2956 -0.5572 -4.7483 0
M  V30 62 H -3.5802 -1.7978 -3.7135 0
M  V30 63 H -3.7976 1.4091 -1.6549 0
M  V30 64 H -4.4475 -0.2339 -1.7997 0
M  V30 65 H -4.9063 1.0088 -2.9631 0
M  V30 66 H -1.6802 -3.2357 -3.4939 0
M  V30 67 H 1.7377 -1.6982 -2.4035 0
M  V30 68 H -1.3483 -3.9391 -0.7735 0
M  V30 69 H 2.2349 -1.3055 -4.7287 0
M  V30 70 H 1.2066 -2.6475 -5.2652 0
M  V30 71 H 1.2403 -3.1961 0.403 0
M  V30 72 H 0.2788 -1.7429 0.2979 0
M  V30 73 H 1.8459 -5.1479 -4.0564 0
M  V30 74 H 3.0702 -4.926 -2.7816 0
M  V30 75 H 3.8249 -2.8451 -3.7189 0
M  V30 76 H 3.4021 -3.6885 -5.222 0
M  V30 77 H -1.614 -2.9635 1.4849 0
M  V30 78 H -0.9639 -5.3192 1.0363 0
M  V30 79 H 0.548 -5.0942 1.9315 0
M  V30 80 H -1.0085 -5.0169 2.7728 0
M  V30 81 H -0.0737 -1.4139 2.6592 0
M  V30 82 H 1.0565 -2.7432 2.9694 0
M  V30 83 H -0.5532 -2.751 3.7122 0
M  V30 END ATOM
M  V30 BEGIN BOND
M  V30 1 1 1 2
M  V30 2 1 2 3
M  V30 3 2 2 4
M  V30 4 1 3 5
M  V30 5 1 4 6
M  V30 6 1 4 7
M  V30 7 1 5 8
M  V30 8 1 6 9
M  V30 9 1 7 10
M  V30 10 2 8 11
M  V30 11 1 9 12
M  V30 12 2 9 13
M  V30 13 1 10 14
M  V30 14 2 12 15
M  V30 15 1 14 16
M  V30 16 1 14 17
M  V30 17 1 15 18
M  V30 18 1 18 19
M  V30 19 2 19 20
M  V30 20 1 19 21
M  V30 21 1 21 22
M  V30 22 1 22 23
M  V30 23 1 22 24
M  V30 24 1 22 25
M  V30 25 1 23 26
M  V30 26 2 24 27
M  V30 27 1 24 28
M  V30 28 1 25 29
M  V30 29 1 25 30
M  V30 30 1 26 31
M  V30 31 1 26 32
M  V30 32 1 28 33
M  V30 33 1 32 34
M  V30 34 1 32 35
M  V30 35 1 33 36
M  V30 36 1 33 37
M  V30 37 1 34 38
M  V30 38 1 35 39
M  V30 39 2 36 40
M  V30 40 1 37 41
M  V30 41 1 41 42
M  V30 42 1 41 43
M  V30 43 2 5 6
M  V30 44 1 10 12
M  V30 45 1 11 13
M  V30 46 1 16 18
M  V30 47 1 26 28
M  V30 48 1 34 36
M  V30 49 1 38 39
M  V30 50 1 3 44
M  V30 51 1 7 45
M  V30 52 1 7 46
M  V30 53 1 8 47
M  V30 54 1 10 48
M  V30 55 1 11 49
M  V30 56 1 13 50
M  V30 57 1 15 51
M  V30 58 1 16 52
M  V30 59 1 16 53
M  V30 60 1 17 54
M  V30 61 1 17 55
M  V30 62 1 17 56
M  V30 63 1 18 57
M  V30 64 1 21 58
M  V30 65 1 25 59
M  V30 66 1 29 60
M  V30 67 1 29 61
M  V30 68 1 29 62
M  V30 69 1 30 63
M  V30 70 1 30 64
M  V30 71 1 30 65
M  V30 72 1 31 66
M  V30 73 1 32 67
M  V30 74 1 33 68
M  V30 75 1 35 69
M  V30 76 1 35 70
M  V30 77 1 37 71
M  V30 78 1 37 72
M  V30 79 1 38 73
M  V30 80 1 38 74
M  V30 81 1 39 75
M  V30 82 1 39 76
M  V30 83 1 41 77
M  V30 84 1 42 78
M  V30 85 1 42 79
M  V30 86 1 42 80
M  V30 87 1 43 81
M  V30 88 1 43 82
M  V30 89 1 43 83
M  V30 END BOND
M  V30 END CTAB
M  END
>  <Column 1>
103

>  <level_0>
116

>  <index>
116

>  <Unnamed: 0>
116

>  <NO.>
117

>  <Name>
bromocriptine

>  <IUPAC_name>
5-bromo-n-[2-hydroxy-7-(2-methylpropyl)-5-8-dioxo-4-propan-2-yl-3-oxa-6-9-diazatricyclo[7.3.0.02-6]dodecan-4-yl]-7-methyl-6-6a-8-9-tetrahydro-4h-indolo[4-3-fg]quinoline-9-carboxamide

>  <SMILES>
CC(C)CC1C(=O)N2CCCC2C2(O)OC(NC(=O)C3C=C4c5cccc6[nH]c(Br)c(c56)CC4N(C)C3)(C(C)C)C(=O)N12

>  <CID>
2443

>  <logBB>
-1.1

>  <BBB+/BBB->
BBB-

>  <Inchi>
InChI=1S/C32H40BrN5O5/c1-16(2)12-24-29(40)37-11-7-10-25(37)32(42)38(24)30(41)31(43-32-17(3)4)35-28(39)18-13-20-19-8-6-9-22-26(19)21(27(33)34-22)14-23(20)36(5)15-18/h6-8-9-13-16-18-23-25-34-42H-7-10-12-14-15H2-1-5H3-(H-35-39)

>  <threshold>


>  <reference>
R2|R2|R8|R12|R21|R25|R27|R27|R35|R47|R40|

>  <group>
A

>  <Class>
-1

>  <ABC>
35.02

>  <ABCGG>
27.3

>  <nAcid>
0

>  <nBase>
1

>  <nAromAtom>
9

>  <nAromBond>
10

>  <nAtom>
83

>  <nHeavyAtom>
43

>  <nSpiro>
0

>  <nBridgehead>
0

>  <nHetero>
11

>  <nN>
5

>  <nO>
5

>  <nF>
0

>  <BalabanJ>
1.15

>  <BertzCT>
1568.39

>  <nBonds>
89

>  <nBondsO>
49

>  <nBondsS>
75

>  <nBondsD>
4

>  <nBondsT>
0

>  <nBondsA>
10

>  <nBondsM>
14

>  <nBondsKS>
81

>  <nBondsKD>
8

>  <RNCG>
0.09

>  <RPCG>
0.08

>  <FCSP3>
0.59

>  <SZ>
57

>  <Sm>
54.5

>  <Sv>
51.49

>  <Sse>
83.4

>  <Sp>
55.49

>  <Si>
93.86

>  <MZ>
0.69

>  <Mm>
0.66

>  <Mv>
0.62

>  <Mse>
1

>  <Mp>
0.67

>  <Mi>
1.13

>  <NsCH3>
5

>  <NdCH2>
0

>  <NssCH2>
6

>  <NtCH>
0

>  <NdsCH>
1

>  <NaaCH>
3

>  <NsssCH>
6

>  <NddC>
0

>  <NtsC>
0

>  <NdssC>
4

>  <NaasC>
3

>  <NaaaC>
2

>  <NssssC>
2

>  <NsNH3>
0

>  <NsNH2>
0

>  <NssNH2>
0

>  <NdNH>
0

>  <NssNH>
1

>  <NaaNH>
1

>  <NtN>
0

>  <NsssNH>
0

>  <NdsN>
0

>  <NaaN>
0

>  <NsssN>
3

>  <NddsN>
0

>  <NaasN>
0

>  <NssssN>
0

>  <NsOH>
1

>  <NdO>
3

>  <NssO>
1

>  <NaaO>
0

>  <NsF>
0

>  <NsSiH3>
0

>  <NssSiH2>
0

>  <NsssSiH>
0

>  <NssssSi>
0

>  <NsPH2>
0

>  <NssPH>
0

>  <NsssP>
0

>  <NdsssP>
0

>  <NsssssP>
0

>  <NsSH>
0

>  <NdS>
0

>  <NssS>
0

>  <NaaS>
0

>  <NdssS>
0

>  <NddssS>
0

>  <NsCl>
0

>  <NsBr>
1

>  <NsI>
0

>  <fragCpx>
595.11

>  <fMF>
0.36

>  <nHBAcc>
6

>  <nHBDon>
3

>  <Kier1>
31.59

>  <Kier2>
11.31

>  <Lipinski>
0

>  <GhoseFilter>
0

>  <FilterItLogS>
-5.65

>  <VMcGowan>
448.07

>  <LabuteASA>
259.45

>  <PEOE_VSA1>
20.31

>  <PEOE_VSA2>
28.92

>  <PEOE_VSA3>
0

>  <PEOE_VSA4>
0

>  <PEOE_VSA5>
0

>  <PEOE_VSA6>
45.9

>  <PEOE_VSA7>
77.35

>  <PEOE_VSA8>
35.95

>  <PEOE_VSA9>
10.52

>  <PEOE_VSA10>
12.08

>  <PEOE_VSA11>
0

>  <PEOE_VSA12>
17.54

>  <PEOE_VSA13>
11.82

>  <SMR_VSA1>
24.23

>  <SMR_VSA2>
0

>  <SMR_VSA3>
25

>  <SMR_VSA4>
17.75

>  <SMR_VSA5>
83.14

>  <SMR_VSA6>
20.14

>  <SMR_VSA7>
40.01

>  <SMR_VSA8>
0

>  <SMR_VSA9>
0

>  <SlogP_VSA1>
5.32

>  <SlogP_VSA2>
92.41

>  <SlogP_VSA3>
25.54

>  <SlogP_VSA4>
17.75

>  <SlogP_VSA5>
58.08

>  <SlogP_VSA6>
28.88

>  <SlogP_VSA7>
0

>  <SlogP_VSA8>
16.48

>  <SlogP_VSA9>
0

>  <SlogP_VSA10>
0

>  <SlogP_VSA11>
0

>  <EState_VSA1>
41.46

>  <EState_VSA2>
23.77

>  <EState_VSA3>
25.93

>  <EState_VSA4>
34.1

>  <EState_VSA5>
15.85

>  <EState_VSA6>
18.75

>  <EState_VSA7>
33.04

>  <EState_VSA8>
43.26

>  <EState_VSA9>
4.74

>  <EState_VSA10>
19.49

>  <VSA_EState1>
7.43

>  <VSA_EState2>
50.8

>  <VSA_EState3>
16.31

>  <VSA_EState4>
2.68

>  <VSA_EState5>
-4.01

>  <VSA_EState6>
4.76

>  <VSA_EState7>
4.49

>  <VSA_EState8>
8.57

>  <VSA_EState9>
2.03

>  <apol>
92.67

>  <bpol>
52.12

>  <nRing>
7

>  <nHRing>
5

>  <naRing>
2

>  <naHRing>
1

>  <nARing 2>
5

>  <nAHRing 2>
4

>  <nFRing>
2

>  <nFHRing>
2

>  <nFaRing>
0

>  <nFaHRing>
0

>  <nFARing 2>
2

>  <nFAHRing 2>
2

>  <nRot>
5

>  <SLogP>
3.19

>  <SMR>
164.16

>  <TopoPSA(NO)>
118.21

>  <TopoPSA>
118.21

>  <JGI1>
0.23

>  <JGI2>
0.1

>  <JGI3>
0.07

>  <JGI4>
0.06

>  <JGI5>
0.03

>  <Diameter>
16

>  <Radius>
8

>  <TMWC10>
176.51

>  <TSRW10>
99.42

>  <MW>
653.22

>  <AMW>
7.87

>  <WPath>
5950

>  <WPol>
92

>  <Zagreb1>
256

>  <Zagreb2>
326

>  <mZagreb2>
8.9

>  <yes>


>  <nAR-cont>
0

>  <nHA-cont>
0.205638778

>  <MWHBN>
0.352137902

>  <MWHBN-cont>
0.66223537

>  <TPSA-cont>
0.174820796

>  <pka_cont>
0.97

>  <yes.1>


>  <BBB_SCORE>
2.033633425

>  <MMFF94 Energy>
97.427

$$$$
Compound 82
Actelion Java MolfileCreator 2.0

  0  0  0  0  0  0              0 V3000
M  V30 BEGIN CTAB
M  V30 COUNTS 83 90 0 0 0
M  V30 BEGIN ATOM
M  V30 1 O 5.1728 -4.9299 0.9683 0
M  V30 2 C 4.2543 -4.4453 0.3068 0
M  V30 3 N 4.1603 -4.6365 -1.056 0
M  V30 4 C 3.2217 -3.478 0.9528 0
M  V30 5 C 3.0399 -4.1829 -1.8869 0
M  V30 6 C 5.1926 -5.2713 -1.8504 0
M  V30 7 N 2.135 -3.1 0.0485 0
M  V30 8 C 4.0027 -2.2459 1.4751 0
M  V30 9 C 2.3555 -2.9154 -1.3401 0
M  V30 10 C 3.6614 -4.0898 -3.2778 0
M  V30 11 C 4.6342 -5.2719 -3.2711 0
M  V30 12 C 0.7981 -3.0695 0.344 0
M  V30 13 C 3.1614 -1.0522 1.8818 0
M  V30 14 O 1.0838 -2.7263 -1.9388 0
M  V30 15 O 3.1394 -1.7632 -1.5146 0
M  V30 16 O 0.2852 -3.3002 1.4266 0
M  V30 17 C 0.1187 -2.5043 -0.9037 0
M  V30 18 C 3.3808 0.1995 1.2866 0
M  V30 19 C 2.1652 -1.1648 2.8597 0
M  V30 20 N -0.0297 -1.0774 -0.6747 0
M  V30 21 C -1.1808 -3.2307 -1.2021 0
M  V30 22 C 2.5997 1.3024 1.637 0
M  V30 23 C 1.3811 -0.062 3.2062 0
M  V30 24 C -0.54 -0.1979 -1.5982 0
M  V30 25 C 1.5967 1.1704 2.5939 0
M  V30 26 O -0.9009 -0.5294 -2.7203 0
M  V30 27 C -0.5923 1.2404 -1.0919 0
M  V30 28 C -0.9068 2.2085 -2.2388 0
M  V30 29 C -1.6274 1.381 0.03 0
M  V30 30 N -1.0283 3.6162 -1.8198 0
M  V30 31 C -1.7403 2.8438 0.5038 0
M  V30 32 C -1.9803 3.7993 -0.6986 0
M  V30 33 C 0.2747 4.2172 -1.5388 0
M  V30 34 C -2.8106 2.9764 1.5786 0
M  V30 35 C -3.4455 3.7073 -1.1963 0
M  V30 36 C -4.0727 3.6328 1.2285 0
M  V30 37 C -2.6684 2.424 2.8017 0
M  V30 38 C -4.4107 3.8866 -0.0558 0
M  V30 39 C -5.026 3.9784 2.3774 0
M  V30 40 C -3.752 2.3722 3.7614 0
M  V30 41 C -5.7677 4.3165 -0.366 0
M  V30 42 N -6.401 3.9755 1.899 0
M  V30 43 C -4.879 3.0743 3.5638 0
M  V30 44 C -6.7014 4.296 0.5969 0
M  V30 45 H 2.7717 -4.0046 1.8033 0
M  V30 46 H 2.3141 -5.0094 -1.88 0
M  V30 47 H 6.1019 -4.6655 -1.7728 0
M  V30 48 H 5.4036 -6.2764 -1.4734 0
M  V30 49 H 4.617 -2.5412 2.3363 0
M  V30 50 H 4.7215 -1.9274 0.7078 0
M  V30 51 H 4.2224 -3.157 -3.407 0
M  V30 52 H 2.9181 -4.1615 -4.0768 0
M  V30 53 H 5.4168 -5.1843 -4.0297 0
M  V30 54 H 4.0839 -6.2027 -3.4548 0
M  V30 55 H 2.6664 -1.0835 -1.0102 0
M  V30 56 H 4.1704 0.3273 0.5475 0
M  V30 57 H 1.9799 -2.1171 3.3546 0
M  V30 58 H 0.1959 -0.7368 0.2544 0
M  V30 59 H -1.9358 -3.0371 -0.4325 0
M  V30 60 H -1.016 -4.3134 -1.2507 0
M  V30 61 H -1.594 -2.9378 -2.1723 0
M  V30 62 H 2.7863 2.2686 1.1743 0
M  V30 63 H 0.6089 -0.1679 3.9648 0
M  V30 64 H 0.9985 2.0323 2.8786 0
M  V30 65 H 0.4036 1.4714 -0.692 0
M  V30 66 H -1.8405 1.9109 -2.7329 0
M  V30 67 H -0.1428 2.1209 -3.023 0
M  V30 68 H -1.3491 0.739 0.8749 0
M  V30 69 H -2.6017 1.0102 -0.3165 0
M  V30 70 H -0.7804 3.1226 0.9618 0
M  V30 71 H -1.8602 4.8301 -0.3296 0
M  V30 72 H 0.7815 3.7644 -0.6809 0
M  V30 73 H 0.1671 5.2899 -1.3427 0
M  V30 74 H 0.9338 4.1293 -2.4098 0
M  V30 75 H -3.6547 2.7494 -1.6861 0
M  V30 76 H -3.6039 4.4941 -1.9459 0
M  V30 77 H -1.7555 1.9039 3.0775 0
M  V30 78 H -4.7926 4.9979 2.715 0
M  V30 79 H -3.6337 1.738 4.6345 0
M  V30 80 H -6.0253 4.5736 -1.3877 0
M  V30 81 H -7.1481 4.0069 2.5804 0
M  V30 82 H -5.6779 3.037 4.2949 0
M  V30 83 H -7.7431 4.5332 0.4025 0
M  V30 END ATOM
M  V30 BEGIN BOND
M  V30 1 2 1 2
M  V30 2 1 2 3
M  V30 3 1 2 4
M  V30 4 1 3 5
M  V30 5 1 3 6
M  V30 6 1 4 7
M  V30 7 1 4 8
M  V30 8 1 5 9
M  V30 9 1 5 10
M  V30 10 1 6 11
M  V30 11 1 7 12
M  V30 12 1 8 13
M  V30 13 1 9 14
M  V30 14 1 9 15
M  V30 15 2 12 16
M  V30 16 1 12 17
M  V30 17 2 13 18
M  V30 18 1 13 19
M  V30 19 1 17 20
M  V30 20 1 17 21
M  V30 21 1 18 22
M  V30 22 2 19 23
M  V30 23 1 20 24
M  V30 24 2 22 25
M  V30 25 2 24 26
M  V30 26 1 24 27
M  V30 27 1 27 28
M  V30 28 1 27 29
M  V30 29 1 28 30
M  V30 30 1 29 31
M  V30 31 1 30 32
M  V30 32 1 30 33
M  V30 33 1 31 34
M  V30 34 1 32 35
M  V30 35 1 34 36
M  V30 36 2 34 37
M  V30 37 1 35 38
M  V30 38 1 36 39
M  V30 39 1 37 40
M  V30 40 1 38 41
M  V30 41 1 39 42
M  V30 42 1 39 43
M  V30 43 2 41 44
M  V30 44 1 7 9
M  V30 45 1 10 11
M  V30 46 1 14 17
M  V30 47 1 23 25
M  V30 48 1 31 32
M  V30 49 2 36 38
M  V30 50 2 40 43
M  V30 51 1 42 44
M  V30 52 1 4 45
M  V30 53 1 5 46
M  V30 54 1 6 47
M  V30 55 1 6 48
M  V30 56 1 8 49
M  V30 57 1 8 50
M  V30 58 1 10 51
M  V30 59 1 10 52
M  V30 60 1 11 53
M  V30 61 1 11 54
M  V30 62 1 15 55
M  V30 63 1 18 56
M  V30 64 1 19 57
M  V30 65 1 20 58
M  V30 66 1 21 59
M  V30 67 1 21 60
M  V30 68 1 21 61
M  V30 69 1 22 62
M  V30 70 1 23 63
M  V30 71 1 25 64
M  V30 72 1 27 65
M  V30 73 1 28 66
M  V30 74 1 28 67
M  V30 75 1 29 68
M  V30 76 1 29 69
M  V30 77 1 31 70
M  V30 78 1 32 71
M  V30 79 1 33 72
M  V30 80 1 33 73
M  V30 81 1 33 74
M  V30 82 1 35 75
M  V30 83 1 35 76
M  V30 84 1 37 77
M  V30 85 1 39 78
M  V30 86 1 40 79
M  V30 87 1 41 80
M  V30 88 1 42 81
M  V30 89 1 43 82
M  V30 90 1 44 83
M  V30 END BOND
M  V30 END CTAB
M  END
>  <Column 1>
104

>  <level_0>
118

>  <index>
118

>  <Unnamed: 0>
118

>  <NO.>
119

>  <Name>
ergotamine

>  <IUPAC_name>


>  <SMILES>
CN1CC(C(=O)NC2(C)OC3(O)C4CCCN4C(=O)C(Cc4ccccc4)N3C2=O)CC2C3=CC=CC4NC=CC(=C34)CC21

>  <CID>


>  <logBB>
-1.1

>  <BBB+/BBB->
BBB-

>  <Inchi>
InChI=1S/C34H39N5O5/c1-33(32(42)39-27(16-20-8-4-3-5-9-20)31(41)38-15-7-12-28(38)34(39-43)44-33)36-30(40)22-17-24-23-10-6-11-25-29(23)21(13-14-35-25)18-26(24)37(2)19-22/h3-6-8-11-13-14-22-24-28-35-43H-7-12-15-19H2-1-2H3-(H-36-40)

>  <threshold>


>  <reference>
R2|R2|R25|R46|

>  <group>
A

>  <Class>
-1

>  <ABC>
36.15

>  <ABCGG>
26.01

>  <nAcid>
0

>  <nBase>
1

>  <nAromAtom>
6

>  <nAromBond>
6

>  <nAtom>
83

>  <nHeavyAtom>
44

>  <nSpiro>
0

>  <nBridgehead>
0

>  <nHetero>
10

>  <nN>
5

>  <nO>
5

>  <nF>
0

>  <BalabanJ>
1.02

>  <BertzCT>
1551.73

>  <nBonds>
90

>  <nBondsO>
51

>  <nBondsS>
77

>  <nBondsD>
7

>  <nBondsT>
0

>  <nBondsA>
6

>  <nBondsM>
13

>  <nBondsKS>
80

>  <nBondsKD>
10

>  <RNCG>
0.1

>  <RPCG>
0.07

>  <FCSP3>
0.5

>  <SZ>
53

>  <Sm>
49.76

>  <Sv>
51.93

>  <Sse>
83.28

>  <Sp>
55.27

>  <Si>
93.6

>  <MZ>
0.64

>  <Mm>
0.6

>  <Mv>
0.63

>  <Mse>
1

>  <Mp>
0.67

>  <Mi>
1.13

>  <NsCH3>
2

>  <NdCH2>
0

>  <NssCH2>
7

>  <NtCH>
0

>  <NdsCH>
5

>  <NaaCH>
5

>  <NsssCH>
6

>  <NddC>
0

>  <NtsC>
0

>  <NdssC>
6

>  <NaasC>
1

>  <NaaaC>
0

>  <NssssC>
2

>  <NsNH3>
0

>  <NsNH2>
0

>  <NssNH2>
0

>  <NdNH>
0

>  <NssNH>
2

>  <NaaNH>
0

>  <NtN>
0

>  <NsssNH>
0

>  <NdsN>
0

>  <NaaN>
0

>  <NsssN>
3

>  <NddsN>
0

>  <NaasN>
0

>  <NssssN>
0

>  <NsOH>
1

>  <NdO>
3

>  <NssO>
1

>  <NaaO>
0

>  <NsF>
0

>  <NsSiH3>
0

>  <NssSiH2>
0

>  <NsssSiH>
0

>  <NssssSi>
0

>  <NsPH2>
0

>  <NssPH>
0

>  <NsssP>
0

>  <NdsssP>
0

>  <NsssssP>
0

>  <NsSH>
0

>  <NdS>
0

>  <NssS>
0

>  <NaaS>
0

>  <NdssS>
0

>  <NddssS>
0

>  <NsCl>
0

>  <NsBr>
0

>  <NsI>
0

>  <fragCpx>
709.1

>  <fMF>
0.46

>  <nHBAcc>
7

>  <nHBDon>
3

>  <Kier1>
31.28

>  <Kier2>
11.85

>  <Lipinski>
0

>  <GhoseFilter>
0

>  <FilterItLogS>
-3.55

>  <VMcGowan>
439.29

>  <LabuteASA>
256.62

>  <PEOE_VSA1>
25.54

>  <PEOE_VSA2>
24.02

>  <PEOE_VSA3>
0

>  <PEOE_VSA4>
0

>  <PEOE_VSA5>
0

>  <PEOE_VSA6>
48.56

>  <PEOE_VSA7>
74.21

>  <PEOE_VSA8>
31.47

>  <PEOE_VSA9>
11.96

>  <PEOE_VSA10>
12.08

>  <PEOE_VSA11>
0

>  <PEOE_VSA12>
17.54

>  <PEOE_VSA13>
11.82

>  <SMR_VSA1>
24.23

>  <SMR_VSA2>
0

>  <SMR_VSA3>
25.33

>  <SMR_VSA4>
11.84

>  <SMR_VSA5>
74.83

>  <SMR_VSA6>
20.14

>  <SMR_VSA7>
83.12

>  <SMR_VSA8>
0

>  <SMR_VSA9>
0

>  <SlogP_VSA1>
10.63

>  <SlogP_VSA2>
93.47

>  <SlogP_VSA3>
25.54

>  <SlogP_VSA4>
11.84

>  <SlogP_VSA5>
38.17

>  <SlogP_VSA6>
77.56

>  <SlogP_VSA7>
0

>  <SlogP_VSA8>
0

>  <SlogP_VSA9>
0

>  <SlogP_VSA10>
0

>  <SlogP_VSA11>
0

>  <EState_VSA1>
29.63

>  <EState_VSA2>
42.15

>  <EState_VSA3>
32.35

>  <EState_VSA4>
11.98

>  <EState_VSA5>
28.54

>  <EState_VSA6>
4.9

>  <EState_VSA7>
36.53

>  <EState_VSA8>
46.89

>  <EState_VSA9>
4.74

>  <EState_VSA10>
19.49

>  <VSA_EState1>
6.26

>  <VSA_EState2>
47.13

>  <VSA_EState3>
18.45

>  <VSA_EState4>
3.01

>  <VSA_EState5>
-3.31

>  <VSA_EState6>
8.29

>  <VSA_EState7>
13.7

>  <VSA_EState8>
2.56

>  <VSA_EState9>
2.07

>  <apol>
92.29

>  <bpol>
49.74

>  <nRing>
8

>  <nHRing>
5

>  <naRing>
1

>  <naHRing>
0

>  <nARing 2>
7

>  <nAHRing 2>
5

>  <nFRing>
2

>  <nFHRing>
2

>  <nFaRing>
0

>  <nFaHRing>
0

>  <nFARing 2>
2

>  <nFAHRing 2>
2

>  <nRot>
4

>  <SLogP>
1.56

>  <SMR>
161.04

>  <TopoPSA(NO)>
114.45

>  <TopoPSA>
114.45

>  <JGI1>
0.2

>  <JGI2>
0.09

>  <JGI3>
0.06

>  <JGI4>
0.05

>  <JGI5>
0.03

>  <Diameter>
18

>  <Radius>
9

>  <TMWC10>
179.25

>  <TSRW10>
99.27

>  <MW>
597.3

>  <AMW>
7.2

>  <WPath>
6612

>  <WPol>
91

>  <Zagreb1>
262

>  <Zagreb2>
330

>  <mZagreb2>
9.13

>  <yes>


>  <nAR-cont>
0

>  <nHA-cont>
0.178195572

>  <MWHBN>
0.409169961

>  <MWHBN-cont>
0.440065833

>  <TPSA-cont>
0.201067931

>  <pka_cont>
0.97

>  <yes.1>


>  <BBB_SCORE>
1.725430182

>  <MMFF94 Energy>
82.878

$$$$
Compound 83
Actelion Java MolfileCreator 2.0

  0  0  0  0  0  0              0 V3000
M  V30 BEGIN CTAB
M  V30 COUNTS 56 58 0 0 0
M  V30 BEGIN ATOM
M  V30 1 S 1.1939 0.8754 2.3093 0
M  V30 2 C 1.7881 -0.2498 3.6123 0
M  V30 3 C -0.1141 -0.1843 1.6182 0
M  V30 4 C 2.9636 0.3165 4.3172 0
M  V30 5 C -0.8544 0.5223 0.4799 0
M  V30 6 O 4.1209 -0.4005 4.2335 0
M  V30 7 C 3.1623 1.4389 5.0953 0
M  V30 8 N -1.8903 -0.3411 -0.07 0
M  V30 9 C 5.0643 0.2649 4.9611 0
M  V30 10 C 4.5174 1.4105 5.5022 0
M  V30 11 C -2.7665 0.0791 -1.0247 0
M  V30 12 C 6.4304 -0.3348 5.0005 0
M  V30 13 N -2.7626 1.2856 -1.4981 0
M  V30 14 N -3.6622 -0.8556 -1.4558 0
M  V30 15 N 6.5454 -1.4557 5.9532 0
M  V30 16 C -3.6812 1.5963 -2.4637 0
M  V30 17 C -4.6185 -0.5999 -2.3948 0
M  V30 18 C 6.4513 -1.002 7.3414 0
M  V30 19 C 7.8115 -2.1586 5.7434 0
M  V30 20 C -4.594 0.7581 -2.9719 0
M  V30 21 O -5.4505 -1.4398 -2.7208 0
M  V30 22 C -5.6023 1.1173 -4.0184 0
M  V30 23 C -5.1915 0.7009 -5.4059 0
M  V30 24 C -5.5604 -0.5341 -5.928 0
M  V30 25 C -4.401 1.5241 -6.2107 0
M  V30 26 N -5.2176 -0.9701 -7.1624 0
M  V30 27 C -4.0304 1.0971 -7.4835 0
M  V30 28 C -4.4577 -0.1507 -7.9244 0
M  V30 29 C -4.0759 -0.6388 -9.2891 0
M  V30 30 H 2.0471 -1.2114 3.157 0
M  V30 31 H 0.9795 -0.4193 4.3307 0
M  V30 32 H 0.3383 -1.1114 1.2497 0
M  V30 33 H -0.8197 -0.4456 2.4146 0
M  V30 34 H -1.3137 1.4449 0.8554 0
M  V30 35 H -0.1524 0.7898 -0.3186 0
M  V30 36 H 2.4188 2.1876 5.3311 0
M  V30 37 H -1.9081 -1.3042 0.2313 0
M  V30 38 H 5.0348 2.1325 6.1176 0
M  V30 39 H 6.6509 -0.6937 3.9862 0
M  V30 40 H 7.1715 0.4441 5.2227 0
M  V30 41 H -3.666 -1.7831 -1.0697 0
M  V30 42 H -3.6224 2.6189 -2.8283 0
M  V30 43 H 5.4702 -0.5646 7.5528 0
M  V30 44 H 7.2222 -0.263 7.5886 0
M  V30 45 H 6.5579 -1.8488 8.0292 0
M  V30 46 H 8.6783 -1.5086 5.9097 0
M  V30 47 H 7.8685 -2.5567 4.7241 0
M  V30 48 H 7.8914 -3.0192 6.417 0
M  V30 49 H -5.7768 2.202 -4.016 0
M  V30 50 H -6.5805 0.6837 -3.773 0
M  V30 51 H -6.1597 -1.2352 -5.351 0
M  V30 52 H -4.0689 2.496 -5.8552 0
M  V30 53 H -3.4171 1.7296 -8.1169 0
M  V30 54 H -2.9871 -0.7064 -9.3754 0
M  V30 55 H -4.4563 0.044 -10.0551 0
M  V30 56 H -4.4953 -1.6319 -9.4795 0
M  V30 END ATOM
M  V30 BEGIN BOND
M  V30 1 1 1 2
M  V30 2 1 1 3
M  V30 3 1 2 4
M  V30 4 1 3 5
M  V30 5 1 4 6
M  V30 6 2 4 7
M  V30 7 1 5 8
M  V30 8 1 6 9
M  V30 9 1 7 10
M  V30 10 1 8 11
M  V30 11 1 9 12
M  V30 12 2 11 13
M  V30 13 1 11 14
M  V30 14 1 12 15
M  V30 15 1 13 16
M  V30 16 1 14 17
M  V30 17 1 15 18
M  V30 18 1 15 19
M  V30 19 2 16 20
M  V30 20 2 17 21
M  V30 21 1 20 22
M  V30 22 1 22 23
M  V30 23 2 23 24
M  V30 24 1 23 25
M  V30 25 1 24 26
M  V30 26 2 25 27
M  V30 27 2 26 28
M  V30 28 1 28 29
M  V30 29 2 9 10
M  V30 30 1 17 20
M  V30 31 1 27 28
M  V30 32 1 2 30
M  V30 33 1 2 31
M  V30 34 1 3 32
M  V30 35 1 3 33
M  V30 36 1 5 34
M  V30 37 1 5 35
M  V30 38 1 7 36
M  V30 39 1 8 37
M  V30 40 1 10 38
M  V30 41 1 12 39
M  V30 42 1 12 40
M  V30 43 1 14 41
M  V30 44 1 16 42
M  V30 45 1 18 43
M  V30 46 1 18 44
M  V30 47 1 18 45
M  V30 48 1 19 46
M  V30 49 1 19 47
M  V30 50 1 19 48
M  V30 51 1 22 49
M  V30 52 1 22 50
M  V30 53 1 24 51
M  V30 54 1 25 52
M  V30 55 1 27 53
M  V30 56 1 29 54
M  V30 57 1 29 55
M  V30 58 1 29 56
M  V30 END BOND
M  V30 END CTAB
M  END
>  <Column 1>
105

>  <level_0>
119

>  <index>
119

>  <Unnamed: 0>
119

>  <NO.>
120

>  <Name>
lupitidine (y-g5; skf93479)

>  <IUPAC_name>
2-[2-[[5-[(dimethylamino)methyl]furan-2-yl]methylsulfanyl]ethylamino]-5-[(6-methylpyridin-3-yl)methyl]-1h-pyrimidin-6-one

>  <SMILES>
Cc1ccc(Cc2cnc(NCCSCc3ccc(CN(C)C)o3)[nH]c2=O)cn1

>  <CID>
4375468

>  <logBB>
-1.1

>  <BBB+/BBB->
BBB-

>  <Inchi>
InChI=1S/C21H27N5O2S/c1-15-4-5-16(11-23-15)10-17-12-24-21(25-20(17)27)22-8-9-29-14-19-7-6-18(28-19)13-26(2)3/h4-7-11-12H-8-10-13-14H2-1-3H3-(H2-22-24-25-27)

>  <threshold>


>  <reference>
R5|R2|R2|R3|R11|R12|R18|R25|R26|R27|R35|R36|R38|R39|R41|R43|R46|R47|R48|R49|R49|R4|R2|R2|R8|R40|

>  <group>
A

>  <Class>
-1

>  <ABC>
22.32

>  <ABCGG>
16.13

>  <nAcid>
0

>  <nBase>
1

>  <nAromAtom>
17

>  <nAromBond>
17

>  <nAtom>
56

>  <nHeavyAtom>
29

>  <nSpiro>
0

>  <nBridgehead>
0

>  <nHetero>
8

>  <nN>
5

>  <nO>
2

>  <nF>
0

>  <BalabanJ>
1.22

>  <BertzCT>
965.7

>  <nBonds>
58

>  <nBondsO>
31

>  <nBondsS>
40

>  <nBondsD>
1

>  <nBondsT>
0

>  <nBondsA>
17

>  <nBondsM>
18

>  <nBondsKS>
50

>  <nBondsKD>
8

>  <RNCG>
0.18

>  <RPCG>
0.1

>  <FCSP3>
0.38

>  <SZ>
36.67

>  <Sm>
34.43

>  <Sv>
34.72

>  <Sse>
56.04

>  <Sp>
37.77

>  <Si>
63.4

>  <MZ>
0.65

>  <Mm>
0.61

>  <Mv>
0.62

>  <Mse>
1

>  <Mp>
0.67

>  <Mi>
1.13

>  <NsCH3>
3

>  <NdCH2>
0

>  <NssCH2>
5

>  <NtCH>
0

>  <NdsCH>
0

>  <NaaCH>
6

>  <NsssCH>
0

>  <NddC>
0

>  <NtsC>
0

>  <NdssC>
0

>  <NaasC>
6

>  <NaaaC>
0

>  <NssssC>
0

>  <NsNH3>
0

>  <NsNH2>
0

>  <NssNH2>
0

>  <NdNH>
0

>  <NssNH>
1

>  <NaaNH>
1

>  <NtN>
0

>  <NsssNH>
0

>  <NdsN>
0

>  <NaaN>
2

>  <NsssN>
1

>  <NddsN>
0

>  <NaasN>
0

>  <NssssN>
0

>  <NsOH>
0

>  <NdO>
1

>  <NssO>
0

>  <NaaO>
1

>  <NsF>
0

>  <NsSiH3>
0

>  <NssSiH2>
0

>  <NsssSiH>
0

>  <NssssSi>
0

>  <NsPH2>
0

>  <NssPH>
0

>  <NsssP>
0

>  <NdsssP>
0

>  <NsssssP>
0

>  <NsSH>
0

>  <NdS>
0

>  <NssS>
1

>  <NaaS>
0

>  <NdssS>
0

>  <NddssS>
0

>  <NsCl>
0

>  <NsBr>
0

>  <NsI>
0

>  <fragCpx>
149.08

>  <fMF>
0.41

>  <nHBAcc>
7

>  <nHBDon>
2

>  <Kier1>
23.66

>  <Kier2>
12.14

>  <Lipinski>
1

>  <GhoseFilter>
1

>  <FilterItLogS>
-7.12

>  <VMcGowan>
317.76

>  <LabuteASA>
174.51

>  <PEOE_VSA1>
14.63

>  <PEOE_VSA2>
14.76

>  <PEOE_VSA3>
4.98

>  <PEOE_VSA4>
11.76

>  <PEOE_VSA5>
0

>  <PEOE_VSA6>
6.07

>  <PEOE_VSA7>
44.78

>  <PEOE_VSA8>
42.37

>  <PEOE_VSA9>
12.3

>  <PEOE_VSA10>
11.52

>  <PEOE_VSA11>
0

>  <PEOE_VSA12>
5.95

>  <PEOE_VSA13>
5.56

>  <SMR_VSA1>
4.42

>  <SMR_VSA2>
0

>  <SMR_VSA3>
19.85

>  <SMR_VSA4>
0

>  <SMR_VSA5>
25.64

>  <SMR_VSA6>
31.71

>  <SMR_VSA7>
75.35

>  <SMR_VSA8>
0

>  <SMR_VSA9>
0

>  <SlogP_VSA1>
10.88

>  <SlogP_VSA2>
46.24

>  <SlogP_VSA3>
18.72

>  <SlogP_VSA4>
6.92

>  <SlogP_VSA5>
28.34

>  <SlogP_VSA6>
45.87

>  <SlogP_VSA7>
0

>  <SlogP_VSA8>
0

>  <SlogP_VSA9>
0

>  <SlogP_VSA10>
5.95

>  <SlogP_VSA11>
0

>  <EState_VSA1>
0

>  <EState_VSA2>
5.56

>  <EState_VSA3>
24.48

>  <EState_VSA4>
40.83

>  <EState_VSA5>
0

>  <EState_VSA6>
24.16

>  <EState_VSA7>
45.28

>  <EState_VSA8>
25.17

>  <EState_VSA9>
4.42

>  <EState_VSA10>
4.79

>  <VSA_EState1>
5.8

>  <VSA_EState2>
25.75

>  <VSA_EState3>
3.16

>  <VSA_EState4>
2.45

>  <VSA_EState5>
4.15

>  <VSA_EState6>
7.97

>  <VSA_EState7>
3.94

>  <VSA_EState8>
3.45

>  <VSA_EState9>
4.04

>  <apol>
63.08

>  <bpol>
37.28

>  <nRing>
3

>  <nHRing>
3

>  <naRing>
3

>  <naHRing>
3

>  <nARing 2>
0

>  <nAHRing 2>
0

>  <nFRing>
0

>  <nFHRing>
0

>  <nFaRing>
0

>  <nFaHRing>
0

>  <nFARing 2>
0

>  <nFAHRing 2>
0

>  <nRot>
10

>  <SLogP>
3.06

>  <SMR>
117.39

>  <TopoPSA(NO)>
87.05

>  <TopoPSA>
112.35

>  <JGI1>
0.21

>  <JGI2>
0.05

>  <JGI3>
0.04

>  <JGI4>
0.04

>  <JGI5>
0.02

>  <Diameter>
20

>  <Radius>
10

>  <TMWC10>
134.54

>  <TSRW10>
77.34

>  <MW>
413.19

>  <AMW>
7.38

>  <WPath>
3027

>  <WPol>
37

>  <Zagreb1>
144

>  <Zagreb2>
161

>  <mZagreb2>
6.44

>  <yes>


>  <nAR-cont>
0.336376

>  <nHA-cont>
0.785905698

>  <MWHBN>
0.442759215

>  <MWHBN-cont>
0.312138881

>  <TPSA-cont>
0.215727235

>  <pka_cont>
0.97

>  <yes.1>


>  <BBB_SCORE>
2.506944489

>  <MMFF94 Energy>
-58.053

$$$$
Compound 84
Actelion Java MolfileCreator 2.0

  0  0  0  0  0  0              0 V3000
M  V30 BEGIN CTAB
M  V30 COUNTS 28 30 0 0 0
M  V30 BEGIN ATOM
M  V30 1 O -2.406 -0.9618 -2.406 0
M  V30 2 C -1.6544 -1.3564 -1.5165 0
M  V30 3 N -0.641 -0.5904 -0.9312 0
M  V30 4 C -1.7982 -2.7498 -1.0218 0
M  V30 5 C 0.1982 -1.1008 0.0632 0
M  V30 6 C -0.4779 0.7664 -1.4565 0
M  V30 7 C -0.9709 -3.2173 -0.0816 0
M  V30 8 C 0.0552 -2.3744 0.471 0
M  V30 9 C 1.269 -0.2042 0.6605 0
M  V30 10 C 0.5953 1.6469 -0.7992 0
M  V30 11 C 0.7303 0.583 1.8787 0
M  V30 12 C 1.7799 0.7782 -0.3917 0
M  V30 13 C 0.0603 2.4115 0.4263 0
M  V30 14 N -0.3237 1.5425 1.5355 0
M  V30 15 H -2.5863 -3.3443 -1.4634 0
M  V30 16 H -0.2172 0.6443 -2.5171 0
M  V30 17 H -1.4543 1.2676 -1.4443 0
M  V30 18 H -1.0623 -4.233 0.287 0
M  V30 19 H 0.6934 -2.7987 1.2398 0
M  V30 20 H 2.1154 -0.8182 0.9952 0
M  V30 21 H 0.9242 2.3936 -1.5328 0
M  V30 22 H 1.5601 1.1198 2.3562 0
M  V30 23 H 0.3363 -0.1135 2.6281 0
M  V30 24 H 2.1916 0.2484 -1.2598 0
M  V30 25 H 2.5865 1.397 0.0201 0
M  V30 26 H 0.8257 3.1175 0.7731 0
M  V30 27 H -0.8083 3.0126 0.1342 0
M  V30 28 H -0.5712 2.0996 2.3521 0
M  V30 END ATOM
M  V30 BEGIN BOND
M  V30 1 2 1 2
M  V30 2 1 2 3
M  V30 3 1 2 4
M  V30 4 1 3 5
M  V30 5 1 3 6
M  V30 6 2 4 7
M  V30 7 2 5 8
M  V30 8 1 5 9
M  V30 9 1 6 10
M  V30 10 1 9 11
M  V30 11 1 9 12
M  V30 12 1 10 13
M  V30 13 1 11 14
M  V30 14 1 7 8
M  V30 15 1 10 12
M  V30 16 1 13 14
M  V30 17 1 4 15
M  V30 18 1 6 16
M  V30 19 1 6 17
M  V30 20 1 7 18
M  V30 21 1 8 19
M  V30 22 1 9 20
M  V30 23 1 10 21
M  V30 24 1 11 22
M  V30 25 1 11 23
M  V30 26 1 12 24
M  V30 27 1 12 25
M  V30 28 1 13 26
M  V30 29 1 13 27
M  V30 30 1 14 28
M  V30 END BOND
M  V30 END CTAB
M  END
>  <Column 1>
106

>  <level_0>
120

>  <index>
120

>  <Unnamed: 0>
120

>  <NO.>
121

>  <Name>
cytisine

>  <IUPAC_name>
7-11-diazatricyclo[7.3.1.02-7]trideca-2-4-dien-6-one

>  <SMILES>
O=c1cccc2n1CC1CNCC2C1

>  <CID>
22407

>  <logBB>
-1.09

>  <BBB+/BBB->
BBB-

>  <Inchi>
InChI=1S/C11H14N2O/c14-11-3-1-2-10-9-4-8(5-12-6-9)7-13(10)11/h1-3-8-9-12H-4-7H2

>  <threshold>


>  <reference>
R2|R2|R8|R21|R25|R27|R40|R43|R46|R47|R4|

>  <group>
A

>  <Class>
-1

>  <ABC>
11.3

>  <ABCGG>
9.07

>  <nAcid>
0

>  <nBase>
1

>  <nAromAtom>
6

>  <nAromBond>
6

>  <nAtom>
28

>  <nHeavyAtom>
14

>  <nSpiro>
0

>  <nBridgehead>
2

>  <nHetero>
3

>  <nN>
2

>  <nO>
1

>  <nF>
0

>  <BalabanJ>
1.79

>  <BertzCT>
409.99

>  <nBonds>
30

>  <nBondsO>
16

>  <nBondsS>
23

>  <nBondsD>
1

>  <nBondsT>
0

>  <nBondsA>
6

>  <nBondsM>
7

>  <nBondsKS>
27

>  <nBondsKD>
3

>  <RNCG>
0.3

>  <RPCG>
0.24

>  <FCSP3>
0.55

>  <SZ>
17

>  <Sm>
15.84

>  <Sv>
17.02

>  <Sse>
27.87

>  <Sp>
18.39

>  <Si>
31.7

>  <MZ>
0.61

>  <Mm>
0.57

>  <Mv>
0.61

>  <Mse>
1

>  <Mp>
0.66

>  <Mi>
1.13

>  <NsCH3>
0

>  <NdCH2>
0

>  <NssCH2>
4

>  <NtCH>
0

>  <NdsCH>
0

>  <NaaCH>
3

>  <NsssCH>
2

>  <NddC>
0

>  <NtsC>
0

>  <NdssC>
0

>  <NaasC>
1

>  <NaaaC>
0

>  <NssssC>
0

>  <NsNH3>
0

>  <NsNH2>
0

>  <NssNH2>
0

>  <NdNH>
0

>  <NssNH>
1

>  <NaaNH>
0

>  <NtN>
0

>  <NsssNH>
0

>  <NdsN>
0

>  <NaaN>
0

>  <NsssN>
0

>  <NddsN>
0

>  <NaasN>
1

>  <NssssN>
0

>  <NsOH>
0

>  <NdO>
1

>  <NssO>
0

>  <NaaO>
0

>  <NsF>
0

>  <NsSiH3>
0

>  <NssSiH2>
0

>  <NsssSiH>
0

>  <NssssSi>
0

>  <NsPH2>
0

>  <NssPH>
0

>  <NsssP>
0

>  <NdsssP>
0

>  <NsssssP>
0

>  <NsSH>
0

>  <NdS>
0

>  <NssS>
0

>  <NaaS>
0

>  <NdssS>
0

>  <NddssS>
0

>  <NsCl>
0

>  <NsBr>
0

>  <NsI>
0

>  <fragCpx>
74.03

>  <fMF>
0.46

>  <nHBAcc>
3

>  <nHBDon>
1

>  <Kier1>
9.24

>  <Kier2>
3.54

>  <Lipinski>
1

>  <GhoseFilter>
1

>  <FilterItLogS>
-1.91

>  <VMcGowan>
146.2

>  <LabuteASA>
82.75

>  <PEOE_VSA1>
9.88

>  <PEOE_VSA2>
4.79

>  <PEOE_VSA3>
0

>  <PEOE_VSA4>
0

>  <PEOE_VSA5>
0

>  <PEOE_VSA6>
6.07

>  <PEOE_VSA7>
24.95

>  <PEOE_VSA8>
30.77

>  <PEOE_VSA9>
0

>  <PEOE_VSA10>
0

>  <PEOE_VSA11>
0

>  <PEOE_VSA12>
0

>  <PEOE_VSA13>
5.56

>  <SMR_VSA1>
0

>  <SMR_VSA2>
0

>  <SMR_VSA3>
9.88

>  <SMR_VSA4>
5.92

>  <SMR_VSA5>
18.88

>  <SMR_VSA6>
13.09

>  <SMR_VSA7>
34.25

>  <SMR_VSA8>
0

>  <SMR_VSA9>
0

>  <SlogP_VSA1>
10.88

>  <SlogP_VSA2>
17.66

>  <SlogP_VSA3>
6.54

>  <SlogP_VSA4>
5.92

>  <SlogP_VSA5>
18.03

>  <SlogP_VSA6>
22.99

>  <SlogP_VSA7>
0

>  <SlogP_VSA8>
0

>  <SlogP_VSA9>
0

>  <SlogP_VSA10>
0

>  <SlogP_VSA11>
0

>  <EState_VSA1>
0

>  <EState_VSA2>
5.56

>  <EState_VSA3>
11.84

>  <EState_VSA4>
19.63

>  <EState_VSA5>
12.11

>  <EState_VSA6>
6.07

>  <EState_VSA7>
10.63

>  <EState_VSA8>
11.38

>  <EState_VSA9>
0

>  <EState_VSA10>
4.79

>  <VSA_EState1>
1.96

>  <VSA_EState2>
11.64

>  <VSA_EState3>
3.43

>  <VSA_EState4>
1.39

>  <VSA_EState5>
1.21

>  <VSA_EState6>
5.64

>  <VSA_EState7>
1.25

>  <VSA_EState8>
3

>  <VSA_EState9>
0

>  <apol>
30.71

>  <bpol>
17.19

>  <nRing>
3

>  <nHRing>
3

>  <naRing>
1

>  <naHRing>
1

>  <nARing 2>
2

>  <nAHRing 2>
2

>  <nFRing>
1

>  <nFHRing>
1

>  <nFaRing>
0

>  <nFaHRing>
0

>  <nFARing 2>
1

>  <nFAHRing 2>
1

>  <nRot>
0

>  <SLogP>
0.56

>  <SMR>
54.42

>  <TopoPSA(NO)>
34.03

>  <TopoPSA>
34.03

>  <JGI1>
0.16

>  <JGI2>
0.07

>  <JGI3>
0.04

>  <JGI4>
0.04

>  <JGI5>
0.02

>  <Diameter>
6

>  <Radius>
4

>  <TMWC10>
101.39

>  <TSRW10>
46.57

>  <MW>
190.11

>  <AMW>
6.79

>  <WPath>
263

>  <WPol>
23

>  <Zagreb1>
78

>  <Zagreb2>
94

>  <mZagreb2>
3

>  <yes>


>  <nAR-cont>
1

>  <nHA-cont>
0.887625254

>  <MWHBN>
0.290106534

>  <MWHBN-cont>
0.869254954

>  <TPSA-cont>
0.762449469

>  <pka_cont>
0.97

>  <yes.1>


>  <BBB_SCORE>
5.201406623

>  <MMFF94 Energy>
24.752

$$$$
Compound 85
Actelion Java MolfileCreator 2.0

  0  0  0  0  0  0              0 V3000
M  V30 BEGIN CTAB
M  V30 COUNTS 56 58 0 0 0
M  V30 BEGIN ATOM
M  V30 1 S -0.9554 2.5493 2.8683 0
M  V30 2 C 0.2364 2.0595 1.5748 0
M  V30 3 C -2.4197 1.6595 2.2462 0
M  V30 4 C 1.5845 2.6048 1.8743 0
M  V30 5 C -3.1033 2.4106 1.1008 0
M  V30 6 O 2.528 1.7095 2.2828 0
M  V30 7 C 2.1317 3.8693 1.8164 0
M  V30 8 N -4.2029 1.6335 0.5533 0
M  V30 9 C 3.6885 2.4039 2.4993 0
M  V30 10 C 3.4809 3.7416 2.2237 0
M  V30 11 C -4.0236 0.5772 -0.2873 0
M  V30 12 C 4.8691 1.6033 2.9853 0
M  V30 13 N -2.8497 0.1761 -0.6617 0
M  V30 14 N -5.1603 -0.0405 -0.7144 0
M  V30 15 N 4.8982 0.2923 2.3133 0
M  V30 16 C 4.749 1.3695 4.4973 0
M  V30 17 C 6.1954 2.3101 2.6736 0
M  V30 18 C -2.7785 -0.8992 -1.507 0
M  V30 19 C -5.1563 -1.1119 -1.5574 0
M  V30 20 C -3.8232 -1.5849 -1.9932 0
M  V30 21 O -6.1948 -1.6483 -1.9294 0
M  V30 22 C -3.8153 -2.7676 -2.9205 0
M  V30 23 C -2.4613 -3.2402 -3.3819 0
M  V30 24 C -1.7562 -4.2051 -2.6711 0
M  V30 25 C -1.8492 -2.7067 -4.518 0
M  V30 26 N -0.5288 -4.6548 -3.0151 0
M  V30 27 C -0.5858 -3.1546 -4.8956 0
M  V30 28 C 0.041 -4.1267 -4.1228 0
M  V30 29 C 1.4016 -4.6286 -4.5024 0
M  V30 30 H -0.0991 2.4403 0.6057 0
M  V30 31 H 0.2746 0.9668 1.5198 0
M  V30 32 H -2.1264 0.6451 1.9579 0
M  V30 33 H -3.1237 1.5544 3.0795 0
M  V30 34 H -3.506 3.3601 1.4732 0
M  V30 35 H -2.3999 2.6607 0.2989 0
M  V30 36 H 1.6138 4.7731 1.5271 0
M  V30 37 H -5.134 1.9134 0.8279 0
M  V30 38 H 4.2129 4.5322 2.311 0
M  V30 39 H -6.0648 0.2819 -0.4175 0
M  V30 40 H 4.919 0.4519 1.3065 0
M  V30 41 H 3.9928 -0.1512 2.483 0
M  V30 42 H 4.7391 2.3199 5.0444 0
M  V30 43 H 5.5882 0.7764 4.8794 0
M  V30 44 H 3.8229 0.84 4.7533 0
M  V30 45 H 7.0542 1.7076 2.9931 0
M  V30 46 H 6.266 3.2744 3.191 0
M  V30 47 H 6.3073 2.5059 1.6001 0
M  V30 48 H -1.7629 -1.1804 -1.7754 0
M  V30 49 H -4.415 -2.5308 -3.8098 0
M  V30 50 H -4.3279 -3.6084 -2.4341 0
M  V30 51 H -2.1665 -4.6583 -1.772 0
M  V30 52 H -2.3476 -1.9434 -5.1105 0
M  V30 53 H -0.1013 -2.7487 -5.7777 0
M  V30 54 H 2.1227 -3.8054 -4.4985 0
M  V30 55 H 1.3739 -5.0785 -5.4996 0
M  V30 56 H 1.748 -5.3887 -3.7949 0
M  V30 END ATOM
M  V30 BEGIN BOND
M  V30 1 1 1 2
M  V30 2 1 1 3
M  V30 3 1 2 4
M  V30 4 1 3 5
M  V30 5 1 4 6
M  V30 6 2 4 7
M  V30 7 1 5 8
M  V30 8 1 6 9
M  V30 9 1 7 10
M  V30 10 1 8 11
M  V30 11 1 9 12
M  V30 12 2 11 13
M  V30 13 1 11 14
M  V30 14 1 12 15
M  V30 15 1 12 16
M  V30 16 1 12 17
M  V30 17 1 13 18
M  V30 18 1 14 19
M  V30 19 2 18 20
M  V30 20 2 19 21
M  V30 21 1 20 22
M  V30 22 1 22 23
M  V30 23 2 23 24
M  V30 24 1 23 25
M  V30 25 1 24 26
M  V30 26 2 25 27
M  V30 27 2 26 28
M  V30 28 1 28 29
M  V30 29 2 9 10
M  V30 30 1 19 20
M  V30 31 1 27 28
M  V30 32 1 2 30
M  V30 33 1 2 31
M  V30 34 1 3 32
M  V30 35 1 3 33
M  V30 36 1 5 34
M  V30 37 1 5 35
M  V30 38 1 7 36
M  V30 39 1 8 37
M  V30 40 1 10 38
M  V30 41 1 14 39
M  V30 42 1 15 40
M  V30 43 1 15 41
M  V30 44 1 16 42
M  V30 45 1 16 43
M  V30 46 1 16 44
M  V30 47 1 17 45
M  V30 48 1 17 46
M  V30 49 1 17 47
M  V30 50 1 18 48
M  V30 51 1 22 49
M  V30 52 1 22 50
M  V30 53 1 24 51
M  V30 54 1 25 52
M  V30 55 1 27 53
M  V30 56 1 29 54
M  V30 57 1 29 55
M  V30 58 1 29 56
M  V30 END BOND
M  V30 END CTAB
M  END
>  <Column 1>
108

>  <level_0>
122

>  <index>
122

>  <Unnamed: 0>
122

>  <NO.>
123

>  <Name>
lupitidine

>  <IUPAC_name>
2-[2-[[5-(2-aminopropan-2-yl)furan-2-yl]methylsulfanyl]ethylamino]-5-[(6-methylpyridin-3-yl)methyl]-1h-pyrimidin-6-one;trihydrochloride

>  <SMILES>
Cc1ccc(Cc2cnc(NCCSCc3ccc(C(C)(C)N)o3)[nH]c2=O)cn1

>  <CID>
51671

>  <logBB>
-1.06

>  <BBB+/BBB->
BBB-

>  <Inchi>
InChI=1S/C21H27N5O2S/c1-14-4-5-15(11-24-14)10-16-12-25-20(26-19(16)27)23-8-9-29-13-17-6-7-18(28-17)21(2-3)22/h4-7-11-12H-8-10-13-22H2-1-3H3-(H2-23-25-26-27)

>  <threshold>


>  <reference>
R21|R27|R21|R25|R27|R46|R8|R2|R2|

>  <group>
A

>  <Class>
-1

>  <ABC>
22.51

>  <ABCGG>
16.52

>  <nAcid>
0

>  <nBase>
1

>  <nAromAtom>
17

>  <nAromBond>
17

>  <nAtom>
56

>  <nHeavyAtom>
29

>  <nSpiro>
0

>  <nBridgehead>
0

>  <nHetero>
8

>  <nN>
5

>  <nO>
2

>  <nF>
0

>  <BalabanJ>
1.24

>  <BertzCT>
989.3

>  <nBonds>
58

>  <nBondsO>
31

>  <nBondsS>
40

>  <nBondsD>
1

>  <nBondsT>
0

>  <nBondsA>
17

>  <nBondsM>
18

>  <nBondsKS>
50

>  <nBondsKD>
8

>  <RNCG>
0.18

>  <RPCG>
0.1

>  <FCSP3>
0.38

>  <SZ>
36.67

>  <Sm>
34.43

>  <Sv>
34.72

>  <Sse>
56.04

>  <Sp>
37.77

>  <Si>
63.4

>  <MZ>
0.65

>  <Mm>
0.61

>  <Mv>
0.62

>  <Mse>
1

>  <Mp>
0.67

>  <Mi>
1.13

>  <NsCH3>
3

>  <NdCH2>
0

>  <NssCH2>
4

>  <NtCH>
0

>  <NdsCH>
0

>  <NaaCH>
6

>  <NsssCH>
0

>  <NddC>
0

>  <NtsC>
0

>  <NdssC>
0

>  <NaasC>
6

>  <NaaaC>
0

>  <NssssC>
1

>  <NsNH3>
0

>  <NsNH2>
1

>  <NssNH2>
0

>  <NdNH>
0

>  <NssNH>
1

>  <NaaNH>
1

>  <NtN>
0

>  <NsssNH>
0

>  <NdsN>
0

>  <NaaN>
2

>  <NsssN>
0

>  <NddsN>
0

>  <NaasN>
0

>  <NssssN>
0

>  <NsOH>
0

>  <NdO>
1

>  <NssO>
0

>  <NaaO>
1

>  <NsF>
0

>  <NsSiH3>
0

>  <NssSiH2>
0

>  <NsssSiH>
0

>  <NssssSi>
0

>  <NsPH2>
0

>  <NssPH>
0

>  <NsssP>
0

>  <NdsssP>
0

>  <NsssssP>
0

>  <NsSH>
0

>  <NdS>
0

>  <NssS>
1

>  <NaaS>
0

>  <NdssS>
0

>  <NddssS>
0

>  <NsCl>
0

>  <NsBr>
0

>  <NsI>
0

>  <fragCpx>
149.08

>  <fMF>
0.41

>  <nHBAcc>
7

>  <nHBDon>
3

>  <Kier1>
23.66

>  <Kier2>
11.04

>  <Lipinski>
1

>  <GhoseFilter>
1

>  <FilterItLogS>
-7.07

>  <VMcGowan>
317.76

>  <LabuteASA>
174.09

>  <PEOE_VSA1>
15.47

>  <PEOE_VSA2>
14.76

>  <PEOE_VSA3>
4.98

>  <PEOE_VSA4>
11.76

>  <PEOE_VSA5>
0

>  <PEOE_VSA6>
6.07

>  <PEOE_VSA7>
44.53

>  <PEOE_VSA8>
42.37

>  <PEOE_VSA9>
11.29

>  <PEOE_VSA10>
11.52

>  <PEOE_VSA11>
0

>  <PEOE_VSA12>
5.95

>  <PEOE_VSA13>
5.56

>  <SMR_VSA1>
4.42

>  <SMR_VSA2>
0

>  <SMR_VSA3>
14.95

>  <SMR_VSA4>
5.73

>  <SMR_VSA5>
38.48

>  <SMR_VSA6>
17.61

>  <SMR_VSA7>
75.35

>  <SMR_VSA8>
0

>  <SMR_VSA9>
0

>  <SlogP_VSA1>
16.61

>  <SlogP_VSA2>
27.25

>  <SlogP_VSA3>
17.71

>  <SlogP_VSA4>
6.92

>  <SlogP_VSA5>
42.19

>  <SlogP_VSA6>
45.87

>  <SlogP_VSA7>
0

>  <SlogP_VSA8>
0

>  <SlogP_VSA9>
0

>  <SlogP_VSA10>
5.95

>  <SlogP_VSA11>
0

>  <EState_VSA1>
5.54

>  <EState_VSA2>
5.56

>  <EState_VSA3>
24.48

>  <EState_VSA4>
34.28

>  <EState_VSA5>
0

>  <EState_VSA6>
24.16

>  <EState_VSA7>
45.04

>  <EState_VSA8>
20.27

>  <EState_VSA9>
10.15

>  <EState_VSA10>
4.79

>  <VSA_EState1>
5.77

>  <VSA_EState2>
23.65

>  <VSA_EState3>
3.15

>  <VSA_EState4>
7.98

>  <VSA_EState5>
3.79

>  <VSA_EState6>
7.8

>  <VSA_EState7>
3.91

>  <VSA_EState8>
6.46

>  <VSA_EState9>
0

>  <apol>
63.08

>  <bpol>
35

>  <nRing>
3

>  <nHRing>
3

>  <naRing>
3

>  <naHRing>
3

>  <nARing 2>
0

>  <nAHRing 2>
0

>  <nFRing>
0

>  <nFHRing>
0

>  <nFaRing>
0

>  <nFaHRing>
0

>  <nFARing 2>
0

>  <nFAHRing 2>
0

>  <nRot>
9

>  <SLogP>
3.2

>  <SMR>
117.21

>  <TopoPSA(NO)>
109.83

>  <TopoPSA>
135.13

>  <JGI1>
0.24

>  <JGI2>
0.07

>  <JGI3>
0.04

>  <JGI4>
0.05

>  <JGI5>
0.02

>  <Diameter>
19

>  <Radius>
10

>  <TMWC10>
135.25

>  <TSRW10>
77.74

>  <MW>
413.19

>  <AMW>
7.38

>  <WPath>
2977

>  <WPol>
39

>  <Zagreb1>
148

>  <Zagreb2>
167

>  <mZagreb2>
6.28

>  <yes>


>  <nAR-cont>
0.336376

>  <nHA-cont>
0.785905698

>  <MWHBN>
0.491954683

>  <MWHBN-cont>
0

>  <TPSA-cont>
0

>  <pka_cont>
0.97

>  <yes.1>


>  <BBB_SCORE>
1.607281698

>  <MMFF94 Energy>
-74.768

$$$$
Compound 86
Actelion Java MolfileCreator 2.0

  0  0  0  0  0  0              0 V3000
M  V30 BEGIN CTAB
M  V30 COUNTS 42 44 0 0 0
M  V30 BEGIN ATOM
M  V30 1 O -2.1342 2.7673 -1.2643 0
M  V30 2 C -1.6722 2.7934 -0.1375 0
M  V30 3 O -0.6829 3.632 0.2872 0
M  V30 4 N -2.0904 2.0078 0.8967 0
M  V30 5 C -0.289 3.2248 1.609 0
M  V30 6 C -1.4549 2.3934 2.1143 0 CFG=2
M  V30 7 C -1.1036 1.2476 3.0737 0
M  V30 8 C 0.0191 0.3257 2.6502 0
M  V30 9 C -0.0641 -0.4095 1.4558 0
M  V30 10 C 1.1553 0.1856 3.4584 0
M  V30 11 C 1.0022 -1.2408 1.055 0
M  V30 12 C 2.2184 -0.6504 3.0957 0
M  V30 13 C 2.1146 -1.344 1.8863 0
M  V30 14 C 1.244 -2.0569 -0.0958 0
M  V30 15 N 2.9915 -2.2122 1.2793 0
M  V30 16 C 2.4807 -2.6441 0.0847 0
M  V30 17 C 0.3335 -2.2235 -1.2762 0
M  V30 18 C 0.4101 -1.0189 -2.2331 0
M  V30 19 N -0.4568 -1.1496 -3.423 0
M  V30 20 C -0.1105 -0.1078 -4.3969 0
M  V30 21 C -1.8743 -1.0225 -3.0703 0
M  V30 22 H -2.8917 1.4012 0.788 0
M  V30 23 H -0.1224 4.1105 2.2296 0
M  V30 24 H 0.6543 2.6791 1.5184 0
M  V30 25 H -2.1756 3.0512 2.6176 0
M  V30 26 H -1.9943 0.6307 3.2511 0
M  V30 27 H -0.8476 1.6938 4.0436 0
M  V30 28 H -0.9394 -0.3418 0.8181 0
M  V30 29 H 1.2315 0.7331 4.3964 0
M  V30 30 H 3.0918 -0.7472 3.7323 0
M  V30 31 H 3.8879 -2.4811 1.6598 0
M  V30 32 H 3.0412 -3.3271 -0.5398 0
M  V30 33 H -0.6874 -2.3636 -0.9039 0
M  V30 34 H 0.5991 -3.1401 -1.8179 0
M  V30 35 H 0.1844 -0.0877 -1.6957 0
M  V30 36 H 1.4547 -0.9357 -2.5639 0
M  V30 37 H 0.9324 -0.2108 -4.7164 0
M  V30 38 H -0.2508 0.9013 -3.9922 0
M  V30 39 H -0.7227 -0.2064 -5.3004 0
M  V30 40 H -2.0932 -0.0755 -2.5635 0
M  V30 41 H -2.1976 -1.8447 -2.4248 0
M  V30 42 H -2.4997 -1.082 -3.9686 0
M  V30 END ATOM
M  V30 BEGIN BOND
M  V30 1 2 1 2
M  V30 2 1 2 3
M  V30 3 1 2 4
M  V30 4 1 3 5
M  V30 5 1 4 6
M  V30 6 1 6 7
M  V30 7 1 7 8
M  V30 8 2 8 9
M  V30 9 1 8 10
M  V30 10 1 9 11
M  V30 11 2 10 12
M  V30 12 2 11 13
M  V30 13 1 11 14
M  V30 14 1 13 15
M  V30 15 2 14 16
M  V30 16 1 14 17
M  V30 17 1 17 18
M  V30 18 1 18 19
M  V30 19 1 19 20
M  V30 20 1 19 21
M  V30 21 1 5 6
M  V30 22 1 12 13
M  V30 23 1 15 16
M  V30 24 1 4 22
M  V30 25 1 5 23
M  V30 26 1 5 24
M  V30 27 1 6 25
M  V30 28 1 7 26
M  V30 29 1 7 27
M  V30 30 1 9 28
M  V30 31 1 10 29
M  V30 32 1 12 30
M  V30 33 1 15 31
M  V30 34 1 16 32
M  V30 35 1 17 33
M  V30 36 1 17 34
M  V30 37 1 18 35
M  V30 38 1 18 36
M  V30 39 1 20 37
M  V30 40 1 20 38
M  V30 41 1 20 39
M  V30 42 1 21 40
M  V30 43 1 21 41
M  V30 44 1 21 42
M  V30 END BOND
M  V30 BEGIN COLLECTION
M  V30 MDLV30/STEABS ATOMS=(1 6)
M  V30 END COLLECTION
M  V30 END CTAB
M  END
>  <Column 1>
109

>  <level_0>
123

>  <index>
123

>  <Unnamed: 0>
123

>  <NO.>
124

>  <Name>
zolmitriptan

>  <IUPAC_name>
(4s)-4-[[3-[2-(dimethylamino)ethyl]-1h-indol-5-yl]methyl]-1-3-oxazolidin-2-one

>  <SMILES>
CN(C)CCc1c[nH]c2ccc(C[C@H]3COC(=O)N3)cc12

>  <CID>
60857

>  <logBB>
-1.04

>  <BBB+/BBB->
BBB-

>  <Inchi>
InChI=1S/C16H21N3O2/c1-19(2)6-5-12-9-17-15-4-3-11(8-14(12)15)7-13-10-21-16(20)18-13/h3-4-8-9-13-17H-5-7-10H2-1-2H3-(H-18-20)/t13-/m0/s1

>  <threshold>


>  <reference>
R18|R26|R27|

>  <group>
A

>  <Class>
-1

>  <ABC>
16.51

>  <ABCGG>
13.78

>  <nAcid>
0

>  <nBase>
1

>  <nAromAtom>
9

>  <nAromBond>
10

>  <nAtom>
42

>  <nHeavyAtom>
21

>  <nSpiro>
0

>  <nBridgehead>
0

>  <nHetero>
5

>  <nN>
3

>  <nO>
2

>  <nF>
0

>  <BalabanJ>
1.49

>  <BertzCT>
648.01

>  <nBonds>
44

>  <nBondsO>
23

>  <nBondsS>
33

>  <nBondsD>
1

>  <nBondsT>
0

>  <nBondsA>
10

>  <nBondsM>
11

>  <nBondsKS>
39

>  <nBondsKD>
5

>  <RNCG>
0.23

>  <RPCG>
0.21

>  <FCSP3>
0.44

>  <SZ>
25.67

>  <Sm>
23.92

>  <Sv>
25.39

>  <Sse>
41.97

>  <Sp>
27.32

>  <Si>
47.65

>  <MZ>
0.61

>  <Mm>
0.57

>  <Mv>
0.6

>  <Mse>
1

>  <Mp>
0.65

>  <Mi>
1.13

>  <NsCH3>
2

>  <NdCH2>
0

>  <NssCH2>
4

>  <NtCH>
0

>  <NdsCH>
0

>  <NaaCH>
4

>  <NsssCH>
1

>  <NddC>
0

>  <NtsC>
0

>  <NdssC>
1

>  <NaasC>
2

>  <NaaaC>
2

>  <NssssC>
0

>  <NsNH3>
0

>  <NsNH2>
0

>  <NssNH2>
0

>  <NdNH>
0

>  <NssNH>
1

>  <NaaNH>
1

>  <NtN>
0

>  <NsssNH>
0

>  <NdsN>
0

>  <NaaN>
0

>  <NsssN>
1

>  <NddsN>
0

>  <NaasN>
0

>  <NssssN>
0

>  <NsOH>
0

>  <NdO>
1

>  <NssO>
1

>  <NaaO>
0

>  <NsF>
0

>  <NsSiH3>
0

>  <NssSiH2>
0

>  <NsssSiH>
0

>  <NssssSi>
0

>  <NsPH2>
0

>  <NssPH>
0

>  <NsssP>
0

>  <NdsssP>
0

>  <NsssssP>
0

>  <NsSH>
0

>  <NdS>
0

>  <NssS>
0

>  <NaaS>
0

>  <NdssS>
0

>  <NddssS>
0

>  <NsCl>
0

>  <NsBr>
0

>  <NsI>
0

>  <fragCpx>
109.05

>  <fMF>
0.36

>  <nHBAcc>
3

>  <nHBDon>
2

>  <Kier1>
15.88

>  <Kier2>
7.05

>  <Lipinski>
1

>  <GhoseFilter>
1

>  <FilterItLogS>
-4.28

>  <VMcGowan>
223.9

>  <LabuteASA>
123.82

>  <PEOE_VSA1>
19.94

>  <PEOE_VSA2>
0

>  <PEOE_VSA3>
4.79

>  <PEOE_VSA4>
0

>  <PEOE_VSA5>
0

>  <PEOE_VSA6>
6.07

>  <PEOE_VSA7>
50.2

>  <PEOE_VSA8>
23.64

>  <PEOE_VSA9>
6.04

>  <PEOE_VSA10>
6.61

>  <PEOE_VSA11>
0

>  <PEOE_VSA12>
0

>  <PEOE_VSA13>
0

>  <SMR_VSA1>
9.53

>  <SMR_VSA2>
0

>  <SMR_VSA3>
15.2

>  <SMR_VSA4>
0

>  <SMR_VSA5>
18.88

>  <SMR_VSA6>
27.25

>  <SMR_VSA7>
35.52

>  <SMR_VSA8>
0

>  <SMR_VSA9>
0

>  <SlogP_VSA1>
5.32

>  <SlogP_VSA2>
49.27

>  <SlogP_VSA3>
17.58

>  <SlogP_VSA4>
0

>  <SlogP_VSA5>
11.13

>  <SlogP_VSA6>
24.4

>  <SlogP_VSA7>
0

>  <SlogP_VSA8>
10.9

>  <SlogP_VSA9>
0

>  <SlogP_VSA10>
4.79

>  <SlogP_VSA11>
0

>  <EState_VSA1>
0

>  <EState_VSA2>
12.14

>  <EState_VSA3>
6.61

>  <EState_VSA4>
19.39

>  <EState_VSA5>
22.03

>  <EState_VSA6>
0

>  <EState_VSA7>
0

>  <EState_VSA8>
53.69

>  <EState_VSA9>
4.74

>  <EState_VSA10>
4.79

>  <VSA_EState1>
4.94

>  <VSA_EState2>
16.59

>  <VSA_EState3>
4.1

>  <VSA_EState4>
3.73

>  <VSA_EState5>
0

>  <VSA_EState6>
6.53

>  <VSA_EState7>
3.62

>  <VSA_EState8>
1.49

>  <VSA_EState9>
4.17

>  <apol>
45.63

>  <bpol>
26.52

>  <nRing>
3

>  <nHRing>
2

>  <naRing>
2

>  <naHRing>
1

>  <nARing 2>
1

>  <nAHRing 2>
1

>  <nFRing>
1

>  <nFHRing>
1

>  <nFaRing>
1

>  <nFaHRing>
1

>  <nFARing 2>
0

>  <nFAHRing 2>
0

>  <nRot>
5

>  <SLogP>
1.92

>  <SMR>
82.53

>  <TopoPSA(NO)>
57.36

>  <TopoPSA>
57.36

>  <JGI1>
0.22

>  <JGI2>
0.06

>  <JGI3>
0.05

>  <JGI4>
0.03

>  <JGI5>
0.02

>  <Diameter>
12

>  <Radius>
6

>  <TMWC10>
117.42

>  <TSRW10>
70.45

>  <MW>
287.16

>  <AMW>
6.84

>  <WPath>
1005

>  <WPol>
27

>  <Zagreb1>
110

>  <Zagreb2>
127

>  <mZagreb2>
4.56

>  <yes>


>  <nAR-cont>
0.816016

>  <nHA-cont>
0.994529749

>  <MWHBN>
0.295058433

>  <MWHBN-cont>
0.855247184

>  <TPSA-cont>
0.599591582

>  <pka_cont>
0.97

>  <yes.1>


>  <BBB_SCORE>
4.777599688

>  <MMFF94 Energy>
9.1101

$$$$
Compound 87
Actelion Java MolfileCreator 2.0

  0  0  0  0  0  0              0 V3000
M  V30 BEGIN CTAB
M  V30 COUNTS 99 103 0 0 0
M  V30 BEGIN ATOM
M  V30 1 O -4.2118 0.3967 3.8139 0
M  V30 2 C -4.5641 0.0239 2.7027 0
M  V30 3 N -4.3525 0.7413 1.5459 0
M  V30 4 C -5.2713 -1.2794 2.4872 0
M  V30 5 C -3.6288 2.012 1.5279 0
M  V30 6 N -5.6644 -1.5319 1.2058 0
M  V30 7 C -5.4837 -2.1379 3.5525 0
M  V30 8 C -2.1039 1.7771 1.4918 0
M  V30 9 C -4.0924 2.8457 0.3345 0
M  V30 10 C -6.3054 -2.6888 0.9725 0
M  V30 11 C -6.14 -3.3355 3.2953 0
M  V30 12 O -1.3121 2.542 2.0395 0
M  V30 13 N -1.706 0.7761 0.6373 0
M  V30 14 C -3.1045 3.9145 -0.0531 0
M  V30 15 C -6.5649 -3.6323 1.9926 0
M  V30 16 C -6.7329 -2.9806 -0.3156 0
M  V30 17 C -0.2997 0.5223 0.2979 0
M  V30 18 O -2.3318 3.7813 -0.9977 0
M  V30 19 N -3.1134 5.0377 0.7126 0
M  V30 20 C -7.2331 -4.8316 1.6923 0
M  V30 21 C -7.3976 -4.1731 -0.6166 0
M  V30 22 C 0.2502 1.6304 -0.6493 0
M  V30 23 C -0.0907 -0.9454 -0.1568 0
M  V30 24 C -7.6471 -5.0999 0.3891 0
M  V30 25 O -0.5625 1.7664 -1.8261 0
M  V30 26 C 1.7157 1.4193 -1.1008 0
M  V30 27 C -1.134 -1.5358 -1.0821 0
M  V30 28 N 2.6974 1.1827 -0.0196 0
M  V30 29 C -2.1044 -2.4157 -0.5772 0
M  V30 30 C -1.1517 -1.2282 -2.4464 0
M  V30 31 C 4.0334 0.7893 -0.5552 0
M  V30 32 C 2.8077 2.3696 0.8533 0
M  V30 33 C -3.0685 -2.9714 -1.4191 0
M  V30 34 C -2.1217 -1.7781 -3.2869 0
M  V30 35 C 3.9431 -0.528 -1.369 0
M  V30 36 C 5.0525 0.553 0.5749 0
M  V30 37 C 3.787 2.1461 2.0151 0
M  V30 38 C -3.0797 -2.6498 -2.7738 0
M  V30 39 O 3.7863 -1.6289 -0.8479 0
M  V30 40 N 4.0425 -0.3402 -2.7382 0
M  V30 41 C 5.1765 1.7797 1.4768 0
M  V30 42 C 3.8696 3.3819 2.9215 0
M  V30 43 C 3.9624 -1.4127 -3.741 0
M  V30 44 C 6.1636 1.5426 2.6252 0
M  V30 45 C 4.8641 3.1687 4.0618 0
M  V30 46 C 5.0665 -2.4601 -3.5251 0
M  V30 47 C 2.5803 -2.0834 -3.7132 0
M  V30 48 C 4.166 -0.7794 -5.1303 0
M  V30 49 C 6.2412 2.7588 3.5464 0
M  V30 50 H -4.6763 0.2985 0.6875 0
M  V30 51 H -3.8433 2.5427 2.464 0
M  V30 52 H -5.1458 -1.8844 4.5522 0
M  V30 53 H -5.0657 3.3038 0.5485 0
M  V30 54 H -4.2408 2.2123 -0.5502 0
M  V30 55 H -6.3185 -4.0314 4.1117 0
M  V30 56 H -2.4144 0.2482 0.1428 0
M  V30 57 H -6.541 -2.2634 -1.1106 0
M  V30 58 H 0.2601 0.6264 1.2376 0
M  V30 59 H -2.4388 5.7614 0.4983 0
M  V30 60 H -3.6917 5.1551 1.5333 0
M  V30 61 H -7.4347 -5.5627 2.4723 0
M  V30 62 H -7.718 -4.3729 -1.6361 0
M  V30 63 H 0.1888 2.5989 -0.139 0
M  V30 64 H 0.9003 -1.0984 -0.5949 0
M  V30 65 H -0.0781 -1.5628 0.7534 0
M  V30 66 H -8.1637 -6.0289 0.1605 0
M  V30 67 H -1.2676 2.41 -1.5889 0
M  V30 68 H 2.023 2.2834 -1.707 0
M  V30 69 H 1.7053 0.5819 -1.806 0
M  V30 70 H -2.1104 -2.6807 0.4783 0
M  V30 71 H -0.4102 -0.5532 -2.867 0
M  V30 72 H 4.4147 1.59 -1.2036 0
M  V30 73 H 1.8328 2.6034 1.2948 0
M  V30 74 H 3.1161 3.2457 0.2668 0
M  V30 75 H -3.8047 -3.6612 -1.0158 0
M  V30 76 H -2.1234 -1.5263 -4.3441 0
M  V30 77 H 4.7591 -0.3183 1.1765 0
M  V30 78 H 6.0309 0.3105 0.1404 0
M  V30 79 H 3.4087 1.31 2.6221 0
M  V30 80 H -3.828 -3.0836 -3.431 0
M  V30 81 H 4.0931 0.6115 -3.0772 0
M  V30 82 H 5.5561 2.6147 0.8702 0
M  V30 83 H 4.173 4.2582 2.3345 0
M  V30 84 H 2.8816 3.6063 3.3409 0
M  V30 85 H 7.1608 1.3267 2.2239 0
M  V30 86 H 5.8581 0.6649 3.2089 0
M  V30 87 H 4.9502 4.0881 4.652 0
M  V30 88 H 4.4826 2.3917 4.7359 0
M  V30 89 H 4.9372 -3.0076 -2.5863 0
M  V30 90 H 5.0714 -3.2008 -4.3329 0
M  V30 91 H 6.0553 -1.9879 -3.495 0
M  V30 92 H 2.4899 -2.8372 -4.5034 0
M  V30 93 H 2.3857 -2.5843 -2.7594 0
M  V30 94 H 1.7851 -1.3444 -3.8617 0
M  V30 95 H 5.1408 -0.2822 -5.1981 0
M  V30 96 H 3.4002 -0.0219 -5.3353 0
M  V30 97 H 4.1154 -1.5316 -5.9255 0
M  V30 98 H 6.9011 2.5384 4.3931 0
M  V30 99 H 6.6901 3.599 3.0022 0
M  V30 END ATOM
M  V30 BEGIN BOND
M  V30 1 2 1 2
M  V30 2 1 2 3
M  V30 3 1 2 4
M  V30 4 1 3 5
M  V30 5 2 4 6
M  V30 6 1 4 7
M  V30 7 1 5 8
M  V30 8 1 5 9
M  V30 9 1 6 10
M  V30 10 2 7 11
M  V30 11 2 8 12
M  V30 12 1 8 13
M  V30 13 1 9 14
M  V30 14 1 10 15
M  V30 15 2 10 16
M  V30 16 1 13 17
M  V30 17 2 14 18
M  V30 18 1 14 19
M  V30 19 2 15 20
M  V30 20 1 16 21
M  V30 21 1 17 22
M  V30 22 1 17 23
M  V30 23 1 20 24
M  V30 24 1 22 25
M  V30 25 1 22 26
M  V30 26 1 23 27
M  V30 27 1 26 28
M  V30 28 2 27 29
M  V30 29 1 27 30
M  V30 30 1 28 31
M  V30 31 1 28 32
M  V30 32 1 29 33
M  V30 33 2 30 34
M  V30 34 1 31 35
M  V30 35 1 31 36
M  V30 36 1 32 37
M  V30 37 2 33 38
M  V30 38 2 35 39
M  V30 39 1 35 40
M  V30 40 1 36 41
M  V30 41 1 37 42
M  V30 42 1 40 43
M  V30 43 1 41 44
M  V30 44 1 42 45
M  V30 45 1 43 46
M  V30 46 1 43 47
M  V30 47 1 43 48
M  V30 48 1 44 49
M  V30 49 1 11 15
M  V30 50 2 21 24
M  V30 51 1 34 38
M  V30 52 1 37 41
M  V30 53 1 45 49
M  V30 54 1 3 50
M  V30 55 1 5 51
M  V30 56 1 7 52
M  V30 57 1 9 53
M  V30 58 1 9 54
M  V30 59 1 11 55
M  V30 60 1 13 56
M  V30 61 1 16 57
M  V30 62 1 17 58
M  V30 63 1 19 59
M  V30 64 1 19 60
M  V30 65 1 20 61
M  V30 66 1 21 62
M  V30 67 1 22 63
M  V30 68 1 23 64
M  V30 69 1 23 65
M  V30 70 1 24 66
M  V30 71 1 25 67
M  V30 72 1 26 68
M  V30 73 1 26 69
M  V30 74 1 29 70
M  V30 75 1 30 71
M  V30 76 1 31 72
M  V30 77 1 32 73
M  V30 78 1 32 74
M  V30 79 1 33 75
M  V30 80 1 34 76
M  V30 81 1 36 77
M  V30 82 1 36 78
M  V30 83 1 37 79
M  V30 84 1 38 80
M  V30 85 1 40 81
M  V30 86 1 41 82
M  V30 87 1 42 83
M  V30 88 1 42 84
M  V30 89 1 44 85
M  V30 90 1 44 86
M  V30 91 1 45 87
M  V30 92 1 45 88
M  V30 93 1 46 89
M  V30 94 1 46 90
M  V30 95 1 46 91
M  V30 96 1 47 92
M  V30 97 1 47 93
M  V30 98 1 47 94
M  V30 99 1 48 95
M  V30 100 1 48 96
M  V30 101 1 48 97
M  V30 102 1 49 98
M  V30 103 1 49 99
M  V30 END BOND
M  V30 END CTAB
M  END
>  <Column 1>
110

>  <level_0>
124

>  <index>
124

>  <Unnamed: 0>
124

>  <NO.>
125

>  <Name>
127779-20-8

>  <IUPAC_name>
n-[4-[3-(tert-butylcarbamoyl)-3-4-4a-5-6-7-8-8a-octahydro-1h-isoquinolin-2-yl]-3-hydroxy-1-phenylbutan-2-yl]-2-(quinoline-2-carbonylamino)butanediamide

>  <SMILES>
CC(C)(C)NC(=O)C1CC2CCCCC2CN1CC(O)C(Cc1ccccc1)NC(=O)C(CC(N)=O)NC(=O)c1ccc2ccccc2n1

>  <CID>
3579812

>  <logBB>
-1.03

>  <BBB+/BBB->
BBB-

>  <Inchi>
InChI=1S/C38H50N6O5/c1-38(2-3)43-37(49)32-20-26-14-7-8-15-27(26)22-44(32)23-33(45)30(19-24-11-5-4-6-12-24)41-36(48)31(21-34(39)46)42-35(47)29-18-17-25-13-9-10-16-28(25)40-29/h4-6-9-13-16-18-26-27-30-33-45H-7-8-14-15-19-23H2-1-3H3-(H2-39-46)(H-41-48)(H-42-47)(H-43-49)

>  <threshold>


>  <reference>
R3|R25|R38|R41|R47|R40|R27|R2|R2|R4|

>  <group>
A

>  <Class>
-1

>  <ABC>
38.33

>  <ABCGG>
28.65

>  <nAcid>
0

>  <nBase>
1

>  <nAromAtom>
16

>  <nAromBond>
17

>  <nAtom>
99

>  <nHeavyAtom>
49

>  <nSpiro>
0

>  <nBridgehead>
0

>  <nHetero>
11

>  <nN>
6

>  <nO>
5

>  <nF>
0

>  <BalabanJ>
1.28

>  <BertzCT>
1625.6

>  <nBonds>
103

>  <nBondsO>
53

>  <nBondsS>
82

>  <nBondsD>
4

>  <nBondsT>
0

>  <nBondsA>
17

>  <nBondsM>
21

>  <nBondsKS>
91

>  <nBondsKD>
12

>  <RNCG>
0.09

>  <RPCG>
0.06

>  <FCSP3>
0.5

>  <SZ>
60

>  <Sm>
55.85

>  <Sv>
59.67

>  <Sse>
98.83

>  <Sp>
64.32

>  <Si>
112.17

>  <MZ>
0.61

>  <Mm>
0.56

>  <Mv>
0.6

>  <Mse>
1

>  <Mp>
0.65

>  <Mi>
1.13

>  <NsCH3>
3

>  <NdCH2>
0

>  <NssCH2>
9

>  <NtCH>
0

>  <NdsCH>
0

>  <NaaCH>
11

>  <NsssCH>
6

>  <NddC>
0

>  <NtsC>
0

>  <NdssC>
4

>  <NaasC>
2

>  <NaaaC>
2

>  <NssssC>
1

>  <NsNH3>
0

>  <NsNH2>
1

>  <NssNH2>
0

>  <NdNH>
0

>  <NssNH>
3

>  <NaaNH>
0

>  <NtN>
0

>  <NsssNH>
0

>  <NdsN>
0

>  <NaaN>
1

>  <NsssN>
1

>  <NddsN>
0

>  <NaasN>
0

>  <NssssN>
0

>  <NsOH>
1

>  <NdO>
4

>  <NssO>
0

>  <NaaO>
0

>  <NsF>
0

>  <NsSiH3>
0

>  <NssSiH2>
0

>  <NsssSiH>
0

>  <NssssSi>
0

>  <NsPH2>
0

>  <NssPH>
0

>  <NsssP>
0

>  <NdsssP>
0

>  <NsssssP>
0

>  <NsSH>
0

>  <NdS>
0

>  <NssS>
0

>  <NaaS>
0

>  <NdssS>
0

>  <NddssS>
0

>  <NsCl>
0

>  <NsBr>
0

>  <NsI>
0

>  <fragCpx>
457.11

>  <fMF>
0.35

>  <nHBAcc>
7

>  <nHBDon>
5

>  <Kier1>
40.19

>  <Kier2>
18.85

>  <Lipinski>
0

>  <GhoseFilter>
0

>  <FilterItLogS>
-6.88

>  <VMcGowan>
529.61

>  <LabuteASA>
287.96

>  <PEOE_VSA1>
26.79

>  <PEOE_VSA2>
24.08

>  <PEOE_VSA3>
4.98

>  <PEOE_VSA4>
0

>  <PEOE_VSA5>
0

>  <PEOE_VSA6>
73.86

>  <PEOE_VSA7>
69.57

>  <PEOE_VSA8>
24.01

>  <PEOE_VSA9>
30.13

>  <PEOE_VSA10>
11.74

>  <PEOE_VSA11>
0

>  <PEOE_VSA12>
17.72

>  <PEOE_VSA13>
5.91

>  <SMR_VSA1>
24.28

>  <SMR_VSA2>
0

>  <SMR_VSA3>
25.83

>  <SMR_VSA4>
17.57

>  <SMR_VSA5>
95.49

>  <SMR_VSA6>
13.09

>  <SMR_VSA7>
77.99

>  <SMR_VSA8>
0

>  <SMR_VSA9>
0

>  <SlogP_VSA1>
21.68

>  <SlogP_VSA2>
81.48

>  <SlogP_VSA3>
20.8

>  <SlogP_VSA4>
11.84

>  <SlogP_VSA5>
75.35

>  <SlogP_VSA6>
66.73

>  <SlogP_VSA7>
0

>  <SlogP_VSA8>
10.9

>  <SlogP_VSA9>
0

>  <SlogP_VSA10>
0

>  <SlogP_VSA11>
0

>  <EState_VSA1>
53.91

>  <EState_VSA2>
24.57

>  <EState_VSA3>
23.9

>  <EState_VSA4>
36.63

>  <EState_VSA5>
6.42

>  <EState_VSA6>
18.2

>  <EState_VSA7>
69.3

>  <EState_VSA8>
25.83

>  <EState_VSA9>
5.73

>  <EState_VSA10>
24.28

>  <VSA_EState1>
0

>  <VSA_EState2>
59.28

>  <VSA_EState3>
21.41

>  <VSA_EState4>
6.7

>  <VSA_EState5>
-1.2

>  <VSA_EState6>
17.64

>  <VSA_EState7>
4.03

>  <VSA_EState8>
6.73

>  <VSA_EState9>
0

>  <apol>
107.41

>  <bpol>
57.62

>  <nRing>
5

>  <nHRing>
2

>  <naRing>
3

>  <naHRing>
1

>  <nARing 2>
2

>  <nAHRing 2>
1

>  <nFRing>
2

>  <nFHRing>
2

>  <nFaRing>
1

>  <nFaHRing>
1

>  <nFARing 2>
1

>  <nFAHRing 2>
1

>  <nRot>
12

>  <SLogP>
3.09

>  <SMR>
188.21

>  <TopoPSA(NO)>
166.75

>  <TopoPSA>
166.75

>  <JGI1>
0.23

>  <JGI2>
0.07

>  <JGI3>
0.04

>  <JGI4>
0.05

>  <JGI5>
0.03

>  <Diameter>
19

>  <Radius>
10

>  <TMWC10>
183.05

>  <TSRW10>
87.07

>  <MW>
670.38

>  <AMW>
6.77

>  <WPath>
9512

>  <WPol>
77

>  <Zagreb1>
256

>  <Zagreb2>
295

>  <mZagreb2>
10.57

>  <yes>


>  <nAR-cont>
1

>  <nHA-cont>
0

>  <MWHBN>
0.463469033

>  <MWHBN-cont>
0

>  <TPSA-cont>
0

>  <pka_cont>
0.97

>  <yes.1>


>  <BBB_SCORE>
1.485

>  <MMFF94 Energy>
128.36

$$$$
Compound 88
Actelion Java MolfileCreator 2.0

  0  0  0  0  0  0              0 V3000
M  V30 BEGIN CTAB
M  V30 COUNTS 74 77 0 0 0
M  V30 BEGIN ATOM
M  V30 1 O -0.0792 -0.0792 2.4584 0
M  V30 2 C -0.8979 0.4345 1.6932 0
M  V30 3 N -0.878 0.2805 0.3076 0
M  V30 4 C -2.0864 1.2253 2.2712 0
M  V30 5 C 0.1144 -0.5033 -0.3275 0
M  V30 6 C -1.9784 0.781 -0.5111 0
M  V30 7 N -2.8562 2.0939 1.3714 0
M  V30 8 C 0.9102 0.0577 -1.3305 0
M  V30 9 C 0.2951 -1.8418 0.024 0
M  V30 10 C -2.4413 2.1461 -0.0239 0
M  V30 11 C -3.8069 3.0118 1.8084 0
M  V30 12 C 1.8778 -0.7156 -1.9827 0
M  V30 13 C 1.261 -2.611 -0.6297 0
M  V30 14 O -4.3002 3.8714 1.0834 0
M  V30 15 C -4.2358 2.9699 3.2215 0
M  V30 16 C 2.0561 -2.0549 -1.6348 0
M  V30 17 C -3.973 4.0666 4.0396 0
M  V30 18 C -4.9365 1.8739 3.7204 0
M  V30 19 O 2.9586 -2.918 -2.192 0
M  V30 20 C -4.3786 4.0498 5.3787 0
M  V30 21 C -5.3387 1.8639 5.0591 0
M  V30 22 C 3.8405 -2.3843 -3.1837 0
M  V30 23 C -5.0643 2.9473 5.9206 0
M  V30 24 C 4.7687 -3.51 -3.6322 0
M  V30 25 C -5.5242 2.898 7.3898 0
M  V30 26 C 5.8492 -3.0397 -4.6113 0
M  V30 27 C -5.1368 4.1502 8.2088 0
M  V30 28 C -7.0618 2.7717 7.4477 0
M  V30 29 C -4.8871 1.6797 8.0929 0
M  V30 30 N 5.3282 -2.3678 -5.8119 0
M  V30 31 C 4.5646 -3.2523 -6.7072 0
M  V30 32 C 6.397 -1.6854 -6.5614 0
M  V30 33 C 5.4237 -4.2631 -7.471 0
M  V30 34 C 7.3315 -2.6334 -7.3173 0
M  V30 35 C 6.5485 -3.5691 -8.2319 0
M  V30 36 H -1.7058 1.8432 3.0924 0
M  V30 37 H -2.7776 0.4851 2.6877 0
M  V30 38 H -2.7965 0.0545 -0.4301 0
M  V30 39 H -1.6836 0.8466 -1.5638 0
M  V30 40 H 0.797 1.1028 -1.6052 0
M  V30 41 H -0.3044 -2.2952 0.8085 0
M  V30 42 H -3.2638 2.5089 -0.6497 0
M  V30 43 H -1.6254 2.8761 -0.0894 0
M  V30 44 H 2.4753 -0.2409 -2.7538 0
M  V30 45 H 1.3988 -3.6519 -0.3478 0
M  V30 46 H -3.4562 4.9358 3.6394 0
M  V30 47 H -5.1824 1.0347 3.0757 0
M  V30 48 H -4.1474 4.9256 5.9794 0
M  V30 49 H -5.8821 0.9939 5.4231 0
M  V30 50 H 4.4349 -1.5687 -2.7544 0
M  V30 51 H 3.2572 -2.0187 -4.0365 0
M  V30 52 H 5.2574 -3.9409 -2.7484 0
M  V30 53 H 4.1779 -4.3305 -4.0561 0
M  V30 54 H 6.4886 -2.3356 -4.0621 0
M  V30 55 H 6.4868 -3.8931 -4.8684 0
M  V30 56 H -5.5895 5.0591 7.7955 0
M  V30 57 H -5.4793 4.0647 9.2472 0
M  V30 58 H -4.0502 4.2925 8.2386 0
M  V30 59 H -7.4195 1.8465 6.9829 0
M  V30 60 H -7.4195 2.7687 8.4841 0
M  V30 61 H -7.5461 3.6084 6.9302 0
M  V30 62 H -3.7927 1.7223 8.0411 0
M  V30 63 H -5.2009 0.7308 7.6445 0
M  V30 64 H -5.1698 1.6418 9.1516 0
M  V30 65 H 4.0349 -2.6222 -7.4344 0
M  V30 66 H 3.7721 -3.7767 -6.1629 0
M  V30 67 H 6.9824 -1.0441 -5.891 0
M  V30 68 H 5.9288 -1.0 -7.2804 0
M  V30 69 H 4.7952 -4.8186 -8.1766 0
M  V30 70 H 5.8457 -5.0012 -6.779 0
M  V30 71 H 7.9259 -3.2224 -6.6088 0
M  V30 72 H 8.0419 -2.0494 -7.9137 0
M  V30 73 H 7.2201 -4.3139 -8.6727 0
M  V30 74 H 6.1221 -2.9916 -9.0615 0
M  V30 END ATOM
M  V30 BEGIN BOND
M  V30 1 2 1 2
M  V30 2 1 2 3
M  V30 3 1 2 4
M  V30 4 1 3 5
M  V30 5 1 3 6
M  V30 6 1 4 7
M  V30 7 2 5 8
M  V30 8 1 5 9
M  V30 9 1 6 10
M  V30 10 1 7 11
M  V30 11 1 8 12
M  V30 12 2 9 13
M  V30 13 2 11 14
M  V30 14 1 11 15
M  V30 15 2 12 16
M  V30 16 2 15 17
M  V30 17 1 15 18
M  V30 18 1 16 19
M  V30 19 1 17 20
M  V30 20 2 18 21
M  V30 21 1 19 22
M  V30 22 2 20 23
M  V30 23 1 22 24
M  V30 24 1 23 25
M  V30 25 1 24 26
M  V30 26 1 25 27
M  V30 27 1 25 28
M  V30 28 1 25 29
M  V30 29 1 26 30
M  V30 30 1 30 31
M  V30 31 1 30 32
M  V30 32 1 31 33
M  V30 33 1 32 34
M  V30 34 1 33 35
M  V30 35 1 7 10
M  V30 36 1 13 16
M  V30 37 1 21 23
M  V30 38 1 34 35
M  V30 39 1 4 36
M  V30 40 1 4 37
M  V30 41 1 6 38
M  V30 42 1 6 39
M  V30 43 1 8 40
M  V30 44 1 9 41
M  V30 45 1 10 42
M  V30 46 1 10 43
M  V30 47 1 12 44
M  V30 48 1 13 45
M  V30 49 1 17 46
M  V30 50 1 18 47
M  V30 51 1 20 48
M  V30 52 1 21 49
M  V30 53 1 22 50
M  V30 54 1 22 51
M  V30 55 1 24 52
M  V30 56 1 24 53
M  V30 57 1 26 54
M  V30 58 1 26 55
M  V30 59 1 27 56
M  V30 60 1 27 57
M  V30 61 1 27 58
M  V30 62 1 28 59
M  V30 63 1 28 60
M  V30 64 1 28 61
M  V30 65 1 29 62
M  V30 66 1 29 63
M  V30 67 1 29 64
M  V30 68 1 31 65
M  V30 69 1 31 66
M  V30 70 1 32 67
M  V30 71 1 32 68
M  V30 72 1 33 69
M  V30 73 1 33 70
M  V30 74 1 34 71
M  V30 75 1 34 72
M  V30 76 1 35 73
M  V30 77 1 35 74
M  V30 END BOND
M  V30 END CTAB
M  END
>  <Column 1>
113

>  <level_0>
129

>  <index>
129

>  <Unnamed: 0>
129

>  <NO.>
130

>  <Name>
proc-19m

>  <IUPAC_name>


>  <SMILES>
CC(C)(C)c1ccc(C(=O)N2CCN(c3ccc(OCCCN4CCCCC4)cc3)C(=O)C2)cc1

>  <CID>


>  <logBB>
-1

>  <BBB+/BBB->
BBB+

>  <Inchi>
InChI=1S/C29H39N3O3/c1-29(2-3)24-10-8-23(9-11-24)28(34)31-19-20-32(27(33)22-31)25-12-14-26(15-13-25)35-21-7-18-30-16-5-4-6-17-30/h8-15H-4-7-16-22H2-1-3H3

>  <threshold>


>  <reference>
R18|R26|R27|

>  <group>
A

>  <Class>
1

>  <ABC>
27.34

>  <ABCGG>
18.46

>  <nAcid>
0

>  <nBase>
1

>  <nAromAtom>
12

>  <nAromBond>
12

>  <nAtom>
74

>  <nHeavyAtom>
35

>  <nSpiro>
0

>  <nBridgehead>
0

>  <nHetero>
6

>  <nN>
3

>  <nO>
3

>  <nF>
0

>  <BalabanJ>
1.12

>  <BertzCT>
989.33

>  <nBonds>
77

>  <nBondsO>
38

>  <nBondsS>
63

>  <nBondsD>
2

>  <nBondsT>
0

>  <nBondsA>
12

>  <nBondsM>
14

>  <nBondsKS>
69

>  <nBondsKD>
8

>  <RNCG>
0.19

>  <RPCG>
0.1

>  <FCSP3>
0.52

>  <SZ>
43

>  <Sm>
39.77

>  <Sv>
43.98

>  <Sse>
73.29

>  <Sp>
47.99

>  <Si>
83.6

>  <MZ>
0.58

>  <Mm>
0.54

>  <Mv>
0.59

>  <Mse>
0.99

>  <Mp>
0.65

>  <Mi>
1.13

>  <NsCH3>
3

>  <NdCH2>
0

>  <NssCH2>
11

>  <NtCH>
0

>  <NdsCH>
0

>  <NaaCH>
8

>  <NsssCH>
0

>  <NddC>
0

>  <NtsC>
0

>  <NdssC>
2

>  <NaasC>
4

>  <NaaaC>
0

>  <NssssC>
1

>  <NsNH3>
0

>  <NsNH2>
0

>  <NssNH2>
0

>  <NdNH>
0

>  <NssNH>
0

>  <NaaNH>
0

>  <NtN>
0

>  <NsssNH>
0

>  <NdsN>
0

>  <NaaN>
0

>  <NsssN>
3

>  <NddsN>
0

>  <NaasN>
0

>  <NssssN>
0

>  <NsOH>
0

>  <NdO>
2

>  <NssO>
1

>  <NaaO>
0

>  <NsF>
0

>  <NsSiH3>
0

>  <NssSiH2>
0

>  <NsssSiH>
0

>  <NssssSi>
0

>  <NsPH2>
0

>  <NssPH>
0

>  <NsssP>
0

>  <NdsssP>
0

>  <NsssssP>
0

>  <NsSH>
0

>  <NdS>
0

>  <NssS>
0

>  <NaaS>
0

>  <NdssS>
0

>  <NddssS>
0

>  <NsCl>
0

>  <NsBr>
0

>  <NsI>
0

>  <fragCpx>
254.06

>  <fMF>
0.39

>  <nHBAcc>
4

>  <nHBDon>
0

>  <Kier1>
28.02

>  <Kier2>
13.18

>  <Lipinski>
1

>  <GhoseFilter>
0

>  <FilterItLogS>
-6.06

>  <VMcGowan>
389.18

>  <LabuteASA>
209.4

>  <PEOE_VSA1>
19.44

>  <PEOE_VSA2>
9.59

>  <PEOE_VSA3>
0

>  <PEOE_VSA4>
0

>  <PEOE_VSA5>
0

>  <PEOE_VSA6>
39.32

>  <PEOE_VSA7>
79.73

>  <PEOE_VSA8>
30.89

>  <PEOE_VSA9>
6.61

>  <PEOE_VSA10>
12.29

>  <PEOE_VSA11>
0

>  <PEOE_VSA12>
5.91

>  <PEOE_VSA13>
5.91

>  <SMR_VSA1>
14.33

>  <SMR_VSA2>
0

>  <SMR_VSA3>
9.8

>  <SMR_VSA4>
0

>  <SMR_VSA5>
51.87

>  <SMR_VSA6>
50.78

>  <SMR_VSA7>
59.66

>  <SMR_VSA8>
0

>  <SMR_VSA9>
5.75

>  <SlogP_VSA1>
9.64

>  <SlogP_VSA2>
67.49

>  <SlogP_VSA3>
10.21

>  <SlogP_VSA4>
0

>  <SlogP_VSA5>
62.38

>  <SlogP_VSA6>
48.53

>  <SlogP_VSA7>
0

>  <SlogP_VSA8>
0

>  <SlogP_VSA9>
0

>  <SlogP_VSA10>
5.69

>  <SlogP_VSA11>
5.75

>  <EState_VSA1>
0

>  <EState_VSA2>
23.77

>  <EState_VSA3>
25.26

>  <EState_VSA4>
24.4

>  <EState_VSA5>
37.92

>  <EState_VSA6>
9.8

>  <EState_VSA7>
48.53

>  <EState_VSA8>
25.67

>  <EState_VSA9>
4.74

>  <EState_VSA10>
9.59

>  <VSA_EState1>
5.91

>  <VSA_EState2>
31.75

>  <VSA_EState3>
0

>  <VSA_EState4>
2.69

>  <VSA_EState5>
0.67

>  <VSA_EState6>
15.46

>  <VSA_EState7>
5.01

>  <VSA_EState8>
11.76

>  <VSA_EState9>
0

>  <apol>
80.14

>  <bpol>
47.73

>  <nRing>
4

>  <nHRing>
2

>  <naRing>
2

>  <naHRing>
0

>  <nARing 2>
2

>  <nAHRing 2>
2

>  <nFRing>
0

>  <nFHRing>
0

>  <nFaRing>
0

>  <nFaHRing>
0

>  <nFARing 2>
0

>  <nFAHRing 2>
0

>  <nRot>
7

>  <SLogP>
4.73

>  <SMR>
140.24

>  <TopoPSA(NO)>
53.09

>  <TopoPSA>
53.09

>  <JGI1>
0.2

>  <JGI2>
0.08

>  <JGI3>
0.04

>  <JGI4>
0.03

>  <JGI5>
0.03

>  <Diameter>
22

>  <Radius>
11

>  <TMWC10>
150.65

>  <TSRW10>
71.37

>  <MW>
477.3

>  <AMW>
6.45

>  <WPath>
4832

>  <WPol>
54

>  <Zagreb1>
182

>  <Zagreb2>
210

>  <mZagreb2>
7.61

>  <yes>


>  <nAR-cont>
1

>  <nHA-cont>
0.523063577

>  <MWHBN>
0.183089852

>  <MWHBN-cont>
0.990276848

>  <TPSA-cont>
0.629398833

>  <pka_cont>
0.97

>  <yes.1>


>  <BBB_SCORE>
4.752276516

>  <MMFF94 Energy>
114.79

$$$$
Compound 89
Actelion Java MolfileCreator 2.0

  0  0  0  0  0  0              0 V3000
M  V30 BEGIN CTAB
M  V30 COUNTS 52 52 0 0 0
M  V30 BEGIN ATOM
M  V30 1 O 2.4998 1.3274 3.2038 0
M  V30 2 C 2.8839 0.9142 2.1206 0
M  V30 3 O 4.1565 0.9772 1.6546 0
M  V30 4 C 2.009 0.2455 1.1171 0
M  V30 5 C 5.1104 1.5986 2.5283 0
M  V30 6 C 0.7233 0.0348 1.4509 0
M  V30 7 C 2.5765 -0.1498 -0.2172 0
M  V30 8 C 5.1164 3.1003 2.3125 0
M  V30 9 C -0.2741 -0.6265 0.5483 0 CFG=1
M  V30 10 C 1.5386 -0.6138 -1.2654 0 CFG=1
M  V30 11 O -1.0524 0.4575 0.0142 0
M  V30 12 C 0.4055 -1.4541 -0.596 0 CFG=2
M  V30 13 N 0.9851 0.4967 -2.0671 0
M  V30 14 C -2.4721 0.2573 0.0871 0
M  V30 15 N -0.6249 -1.8955 -1.5658 0
M  V30 16 C -2.9662 0.6445 1.4908 0
M  V30 17 C -3.1019 1.0742 -1.0533 0
M  V30 18 C -0.1568 -2.934 -2.4621 0
M  V30 19 C -4.4674 0.4926 1.6751 0
M  V30 20 C -2.8681 2.5768 -0.9579 0
M  V30 21 O -1.183 -3.291 -3.3796 0
M  V30 22 C -2.1953 -4.0902 -2.7825 0
M  V30 23 H 6.0923 1.1866 2.2737 0
M  V30 24 H 4.9171 1.3441 3.5768 0
M  V30 25 H 0.3401 0.3695 2.4132 0
M  V30 26 H 3.1693 0.6717 -0.6388 0
M  V30 27 H 3.2766 -0.9791 -0.047 0
M  V30 28 H 5.8821 3.578 2.9303 0
M  V30 29 H 5.3119 3.3368 1.2614 0
M  V30 30 H 4.144 3.5371 2.5614 0
M  V30 31 H -0.893 -1.3046 1.1501 0
M  V30 32 H 2.0821 -1.2473 -1.9762 0
M  V30 33 H 0.8593 -2.34 -0.1296 0
M  V30 34 H 1.7068 1.1863 -2.2687 0
M  V30 35 H 0.2819 0.9847 -1.4964 0
M  V30 36 H -2.707 -0.7979 -0.101 0
M  V30 37 H -0.8356 -1.0794 -2.1503 0
M  V30 38 H -2.4627 0.0173 2.2363 0
M  V30 39 H -2.6616 1.6696 1.7333 0
M  V30 40 H -4.1779 0.8772 -1.1123 0
M  V30 41 H -2.6674 0.7343 -2.0019 0
M  V30 42 H 0.6825 -2.5816 -3.0683 0
M  V30 43 H 0.1783 -3.8235 -1.9155 0
M  V30 44 H -5.0229 1.2032 1.0563 0
M  V30 45 H -4.7385 0.6823 2.7187 0
M  V30 46 H -4.7936 -0.5204 1.4199 0
M  V30 47 H -3.2816 3.0751 -1.8408 0
M  V30 48 H -1.8009 2.8138 -0.9095 0
M  V30 49 H -3.3587 3.0039 -0.0785 0
M  V30 50 H -2.9254 -4.3485 -3.5545 0
M  V30 51 H -2.7137 -3.5425 -1.9898 0
M  V30 52 H -1.7703 -5.0172 -2.3854 0
M  V30 END ATOM
M  V30 BEGIN BOND
M  V30 1 2 1 2
M  V30 2 1 2 3
M  V30 3 1 2 4
M  V30 4 1 3 5
M  V30 5 2 4 6
M  V30 6 1 4 7
M  V30 7 1 5 8
M  V30 8 1 6 9
M  V30 9 1 7 10
M  V30 10 1 9 11
M  V30 11 1 9 12
M  V30 12 1 10 13
M  V30 13 1 11 14
M  V30 14 1 12 15
M  V30 15 1 14 16
M  V30 16 1 14 17
M  V30 17 1 15 18
M  V30 18 1 16 19
M  V30 19 1 17 20
M  V30 20 1 18 21
M  V30 21 1 21 22
M  V30 22 1 10 12
M  V30 23 1 5 23
M  V30 24 1 5 24
M  V30 25 1 6 25
M  V30 26 1 7 26
M  V30 27 1 7 27
M  V30 28 1 8 28
M  V30 29 1 8 29
M  V30 30 1 8 30
M  V30 31 1 9 31
M  V30 32 1 10 32
M  V30 33 1 12 33
M  V30 34 1 13 34
M  V30 35 1 13 35
M  V30 36 1 14 36
M  V30 37 1 15 37
M  V30 38 1 16 38
M  V30 39 1 16 39
M  V30 40 1 17 40
M  V30 41 1 17 41
M  V30 42 1 18 42
M  V30 43 1 18 43
M  V30 44 1 19 44
M  V30 45 1 19 45
M  V30 46 1 19 46
M  V30 47 1 20 47
M  V30 48 1 20 48
M  V30 49 1 20 49
M  V30 50 1 22 50
M  V30 51 1 22 51
M  V30 52 1 22 52
M  V30 END BOND
M  V30 BEGIN COLLECTION
M  V30 MDLV30/STEABS ATOMS=(3 9 10 12)
M  V30 END COLLECTION
M  V30 END CTAB
M  END
>  <Column 1>
116

>  <level_0>
132

>  <index>
132

>  <Unnamed: 0>
132

>  <NO.>
133

>  <Name>
oseltamivir

>  <IUPAC_name>


>  <SMILES>
CCOC(=O)C1=C[C@@H](OC(CC)CC)[C@@H](NCOC)[C@@H](N)C1

>  <CID>


>  <logBB>
-1

>  <BBB+/BBB->
BBB+

>  <Inchi>
InChI=1S/C16H30N2O4/c1-5-12(6-2)22-14-9-11(16(19)21-7-3)8-13(17)15(14)18-10-20-4/h9-12-15-18H-5-8-10-17H2-1-4H3/t13--14+-15-/m0/s1

>  <threshold>


>  <reference>
R18|R26|R27|

>  <group>
A

>  <Class>
1

>  <ABC>
15.65

>  <ABCGG>
14.34

>  <nAcid>
0

>  <nBase>
2

>  <nAromAtom>
0

>  <nAromBond>
0

>  <nAtom>
52

>  <nHeavyAtom>
22

>  <nSpiro>
0

>  <nBridgehead>
0

>  <nHetero>
6

>  <nN>
2

>  <nO>
4

>  <nF>
0

>  <BalabanJ>
2.75

>  <BertzCT>
369.16

>  <nBonds>
52

>  <nBondsO>
22

>  <nBondsS>
50

>  <nBondsD>
2

>  <nBondsT>
0

>  <nBondsA>
0

>  <nBondsM>
2

>  <nBondsKS>
50

>  <nBondsKD>
2

>  <RNCG>
0.2

>  <RPCG>
0.14

>  <FCSP3>
0.81

>  <SZ>
28.67

>  <Sm>
26.18

>  <Sv>
28.5

>  <Sse>
51.97

>  <Sp>
31.22

>  <Si>
59.65

>  <MZ>
0.55

>  <Mm>
0.5

>  <Mv>
0.55

>  <Mse>
1

>  <Mp>
0.6

>  <Mi>
1.15

>  <NsCH3>
4

>  <NdCH2>
0

>  <NssCH2>
5

>  <NtCH>
0

>  <NdsCH>
1

>  <NaaCH>
0

>  <NsssCH>
4

>  <NddC>
0

>  <NtsC>
0

>  <NdssC>
2

>  <NaasC>
0

>  <NaaaC>
0

>  <NssssC>
0

>  <NsNH3>
0

>  <NsNH2>
1

>  <NssNH2>
0

>  <NdNH>
0

>  <NssNH>
1

>  <NaaNH>
0

>  <NtN>
0

>  <NsssNH>
0

>  <NdsN>
0

>  <NaaN>
0

>  <NsssN>
0

>  <NddsN>
0

>  <NaasN>
0

>  <NssssN>
0

>  <NsOH>
0

>  <NdO>
1

>  <NssO>
3

>  <NaaO>
0

>  <NsF>
0

>  <NsSiH3>
0

>  <NssSiH2>
0

>  <NsssSiH>
0

>  <NssssSi>
0

>  <NsPH2>
0

>  <NssPH>
0

>  <NsssP>
0

>  <NdsssP>
0

>  <NsssssP>
0

>  <NsSH>
0

>  <NdS>
0

>  <NssS>
0

>  <NaaS>
0

>  <NdssS>
0

>  <NddssS>
0

>  <NsCl>
0

>  <NsBr>
0

>  <NsI>
0

>  <fragCpx>
22.06

>  <fMF>
0.12

>  <nHBAcc>
6

>  <nHBDon>
2

>  <Kier1>
20.05

>  <Kier2>
10.71

>  <Lipinski>
1

>  <GhoseFilter>
1

>  <FilterItLogS>
-2.67

>  <VMcGowan>
260.28

>  <LabuteASA>
132.91

>  <PEOE_VSA1>
19.94

>  <PEOE_VSA2>
5.32

>  <PEOE_VSA3>
4.79

>  <PEOE_VSA4>
0

>  <PEOE_VSA5>
0

>  <PEOE_VSA6>
13.85

>  <PEOE_VSA7>
32.26

>  <PEOE_VSA8>
18.72

>  <PEOE_VSA9>
31.59

>  <PEOE_VSA10>
0

>  <PEOE_VSA11>
0

>  <PEOE_VSA12>
0

>  <PEOE_VSA13>
0

>  <SMR_VSA1>
19.01

>  <SMR_VSA2>
0

>  <SMR_VSA3>
5.32

>  <SMR_VSA4>
5.73

>  <SMR_VSA5>
64.33

>  <SMR_VSA6>
20.45

>  <SMR_VSA7>
11.65

>  <SMR_VSA8>
0

>  <SMR_VSA9>
0

>  <SlogP_VSA1>
11.05

>  <SlogP_VSA2>
50.71

>  <SlogP_VSA3>
19.01

>  <SlogP_VSA4>
0

>  <SlogP_VSA5>
40.03

>  <SlogP_VSA6>
11.65

>  <SlogP_VSA7>
0

>  <SlogP_VSA8>
0

>  <SlogP_VSA9>
0

>  <SlogP_VSA10>
0

>  <SlogP_VSA11>
0

>  <EState_VSA1>
0

>  <EState_VSA2>
30.26

>  <EState_VSA3>
25.33

>  <EState_VSA4>
12.84

>  <EState_VSA5>
0

>  <EState_VSA6>
14.03

>  <EState_VSA7>
6.08

>  <EState_VSA8>
19.16

>  <EState_VSA9>
19.94

>  <EState_VSA10>
4.79

>  <VSA_EState1>
16.31

>  <VSA_EState2>
11.99

>  <VSA_EState3>
3.25

>  <VSA_EState4>
6.84

>  <VSA_EState5>
-0.3

>  <VSA_EState6>
-0.31

>  <VSA_EState7>
4.05

>  <VSA_EState8>
6.72

>  <VSA_EState9>
1.62

>  <apol>
52.13

>  <bpol>
36.17

>  <nRing>
1

>  <nHRing>
0

>  <naRing>
0

>  <naHRing>
0

>  <nARing 2>
1

>  <nAHRing 2>
0

>  <nFRing>
0

>  <nFHRing>
0

>  <nFaRing>
0

>  <nFaHRing>
0

>  <nFARing 2>
0

>  <nFAHRing 2>
0

>  <nRot>
9

>  <SLogP>
1.34

>  <SMR>
85.35

>  <TopoPSA(NO)>
82.81

>  <TopoPSA>
82.81

>  <JGI1>
0.2

>  <JGI2>
0.09

>  <JGI3>
0.05

>  <JGI4>
0.04

>  <JGI5>
0.03

>  <Diameter>
11

>  <Radius>
6

>  <TMWC10>
115.97

>  <TSRW10>
55.16

>  <MW>
314.22

>  <AMW>
6.04

>  <WPath>
1079

>  <WPol>
32

>  <Zagreb1>
100

>  <Zagreb2>
113

>  <mZagreb2>
5.42

>  <yes>


>  <nAR-cont>
0.816016

>  <nHA-cont>
0.983774276

>  <MWHBN>
0.451308045

>  <MWHBN-cont>
0

>  <TPSA-cont>
0.421934778

>  <pka_cont>
0.97

>  <yes.1>


>  <BBB_SCORE>
3.128659832

>  <MMFF94 Energy>
27.081

$$$$
Compound 90
Actelion Java MolfileCreator 2.0

  0  0  0  0  0  0              0 V3000
M  V30 BEGIN CTAB
M  V30 COUNTS 44 44 0 0 0
M  V30 BEGIN ATOM
M  V30 1 O 0.8552 2.178 -4.5937 0
M  V30 2 C 1.8815 1.921 -3.9791 0
M  V30 3 O 3.0432 2.6183 -4.0685 0
M  V30 4 N 2.0454 0.8754 -3.107 0
M  V30 5 C 2.9843 3.7368 -4.9621 0
M  V30 6 N 0.9959 0.0027 -2.8807 0
M  V30 7 C 4.3384 4.4193 -4.9554 0
M  V30 8 C 0.461 -0.137 -1.6018 0
M  V30 9 N -0.7476 -0.7048 -1.4879 0
M  V30 10 C 1.1184 0.244 -0.4476 0
M  V30 11 N -1.3369 -0.8949 -0.2372 0
M  V30 12 C 0.5168 0.0458 0.8046 0
M  V30 13 C -0.7338 -0.5384 0.9174 0
M  V30 14 N -1.3842 -0.7615 2.1179 0
M  V30 15 C -0.8081 -0.7285 3.4732 0
M  V30 16 C -2.7817 -1.2428 2.018 0
M  V30 17 C 0.4214 -1.6214 3.628 0
M  V30 18 C -0.5849 0.7009 3.9625 0
M  V30 19 C -2.8498 -2.7774 1.8609 0 CFG=1
M  V30 20 O -2.5684 -3.412 3.1169 0
M  V30 21 C -4.2378 -3.2174 1.4138 0
M  V30 22 H 2.9529 0.6749 -2.7079 0
M  V30 23 H 2.2145 4.4403 -4.6252 0
M  V30 24 H 2.7507 3.3896 -5.9748 0
M  V30 25 H 0.3503 -0.2006 -3.6423 0
M  V30 26 H 4.3431 5.2833 -5.6259 0
M  V30 27 H 4.5964 4.7541 -3.9451 0
M  V30 28 H 5.1227 3.7229 -5.2701 0
M  V30 29 H 2.0981 0.7045 -0.4871 0
M  V30 30 H 1.066 0.3786 1.6736 0
M  V30 31 H -1.55 -1.1498 4.1651 0
M  V30 32 H -3.3275 -0.9469 2.9239 0
M  V30 33 H -3.3024 -0.7398 1.1927 0
M  V30 34 H 1.3082 -1.219 3.1333 0
M  V30 35 H 0.6736 -1.7345 4.6884 0
M  V30 36 H 0.2347 -2.6208 3.2208 0
M  V30 37 H 0.2072 1.221 3.4202 0
M  V30 38 H -1.5008 1.2929 3.8565 0
M  V30 39 H -0.3072 0.7013 5.0224 0
M  V30 40 H -2.1044 -3.1291 1.1395 0
M  V30 41 H -2.4662 -4.3613 2.9315 0
M  V30 42 H -4.2859 -4.3085 1.3303 0
M  V30 43 H -4.9966 -2.9243 2.148 0
M  V30 44 H -4.4997 -2.783 0.4442 0
M  V30 END ATOM
M  V30 BEGIN BOND
M  V30 1 2 1 2
M  V30 2 1 2 3
M  V30 3 1 2 4
M  V30 4 1 3 5
M  V30 5 1 4 6
M  V30 6 1 5 7
M  V30 7 1 6 8
M  V30 8 2 8 9
M  V30 9 1 8 10
M  V30 10 1 9 11
M  V30 11 2 10 12
M  V30 12 2 11 13
M  V30 13 1 13 14
M  V30 14 1 14 15
M  V30 15 1 14 16
M  V30 16 1 15 17
M  V30 17 1 15 18
M  V30 18 1 16 19
M  V30 19 1 19 20
M  V30 20 1 19 21
M  V30 21 1 12 13
M  V30 22 1 4 22
M  V30 23 1 5 23
M  V30 24 1 5 24
M  V30 25 1 6 25
M  V30 26 1 7 26
M  V30 27 1 7 27
M  V30 28 1 7 28
M  V30 29 1 10 29
M  V30 30 1 12 30
M  V30 31 1 15 31
M  V30 32 1 16 32
M  V30 33 1 16 33
M  V30 34 1 17 34
M  V30 35 1 17 35
M  V30 36 1 17 36
M  V30 37 1 18 37
M  V30 38 1 18 38
M  V30 39 1 18 39
M  V30 40 1 19 40
M  V30 41 1 20 41
M  V30 42 1 21 42
M  V30 43 1 21 43
M  V30 44 1 21 44
M  V30 END BOND
M  V30 BEGIN COLLECTION
M  V30 MDLV30/STERAC1 ATOMS=(1 19)
M  V30 END COLLECTION
M  V30 END CTAB
M  END
>  <Column 1>
117

>  <level_0>
133

>  <index>
133

>  <Unnamed: 0>
133

>  <NO.>
134

>  <Name>
cadralazine

>  <IUPAC_name>


>  <SMILES>
CCOC(=O)NNc1ccc(N(CC(C)O)C(C)C)nn1

>  <CID>


>  <logBB>
-1

>  <BBB+/BBB->
BBB+

>  <Inchi>
InChI=1S/C13H23N5O3/c1-5-21-13(20)17-15-11-6-7-12(16-14-11)18(9(2)3)8-10(4)19/h6-7-9-10-19H-5-8H2-1-4H3-(H-14-15)(H-17-20)

>  <threshold>


>  <reference>
R18|R26|R27|

>  <group>
A

>  <Class>
1

>  <ABC>
15.32

>  <ABCGG>
13.17

>  <nAcid>
0

>  <nBase>
0

>  <nAromAtom>
6

>  <nAromBond>
6

>  <nAtom>
44

>  <nHeavyAtom>
21

>  <nSpiro>
0

>  <nBridgehead>
0

>  <nHetero>
8

>  <nN>
5

>  <nO>
3

>  <nF>
0

>  <BalabanJ>
2.33

>  <BertzCT>
435.94

>  <nBonds>
44

>  <nBondsO>
21

>  <nBondsS>
37

>  <nBondsD>
1

>  <nBondsT>
0

>  <nBondsA>
6

>  <nBondsM>
7

>  <nBondsKS>
40

>  <nBondsKD>
4

>  <RNCG>
0.19

>  <RPCG>
0.18

>  <FCSP3>
0.62

>  <SZ>
26.67

>  <Sm>
24.76

>  <Sv>
25.17

>  <Sse>
44.52

>  <Sp>
26.92

>  <Si>
50.86

>  <MZ>
0.61

>  <Mm>
0.56

>  <Mv>
0.57

>  <Mse>
1.01

>  <Mp>
0.61

>  <Mi>
1.16

>  <NsCH3>
4

>  <NdCH2>
0

>  <NssCH2>
2

>  <NtCH>
0

>  <NdsCH>
0

>  <NaaCH>
2

>  <NsssCH>
2

>  <NddC>
0

>  <NtsC>
0

>  <NdssC>
1

>  <NaasC>
2

>  <NaaaC>
0

>  <NssssC>
0

>  <NsNH3>
0

>  <NsNH2>
0

>  <NssNH2>
0

>  <NdNH>
0

>  <NssNH>
2

>  <NaaNH>
0

>  <NtN>
0

>  <NsssNH>
0

>  <NdsN>
0

>  <NaaN>
2

>  <NsssN>
1

>  <NddsN>
0

>  <NaasN>
0

>  <NssssN>
0

>  <NsOH>
1

>  <NdO>
1

>  <NssO>
1

>  <NaaO>
0

>  <NsF>
0

>  <NsSiH3>
0

>  <NssSiH2>
0

>  <NsssSiH>
0

>  <NssssSi>
0

>  <NsPH2>
0

>  <NssPH>
0

>  <NsssP>
0

>  <NdsssP>
0

>  <NsssssP>
0

>  <NsSH>
0

>  <NdS>
0

>  <NssS>
0

>  <NaaS>
0

>  <NdssS>
0

>  <NddssS>
0

>  <NsCl>
0

>  <NsBr>
0

>  <NsI>
0

>  <fragCpx>
21.08

>  <fMF>
0.14

>  <nHBAcc>
7

>  <nHBDon>
3

>  <Kier1>
19.05

>  <Kier2>
9.9

>  <Lipinski>
1

>  <GhoseFilter>
1

>  <FilterItLogS>
-2.35

>  <VMcGowan>
233.48

>  <LabuteASA>
124.02

>  <PEOE_VSA1>
14.74

>  <PEOE_VSA2>
5.43

>  <PEOE_VSA3>
10.22

>  <PEOE_VSA4>
0

>  <PEOE_VSA5>
10.2

>  <PEOE_VSA6>
0

>  <PEOE_VSA7>
39.83

>  <PEOE_VSA8>
12.59

>  <PEOE_VSA9>
12.71

>  <PEOE_VSA10>
0

>  <PEOE_VSA11>
11.64

>  <PEOE_VSA12>
0

>  <PEOE_VSA13>
0

>  <SMR_VSA1>
14.64

>  <SMR_VSA2>
0

>  <SMR_VSA3>
15.62

>  <SMR_VSA4>
0

>  <SMR_VSA5>
39.84

>  <SMR_VSA6>
23.48

>  <SMR_VSA7>
12.13

>  <SMR_VSA8>
0

>  <SMR_VSA9>
0

>  <SlogP_VSA1>
15.75

>  <SlogP_VSA2>
46.69

>  <SlogP_VSA3>
4.74

>  <SlogP_VSA4>
0

>  <SlogP_VSA5>
27.69

>  <SlogP_VSA6>
12.13

>  <SlogP_VSA7>
0

>  <SlogP_VSA8>
0

>  <SlogP_VSA9>
0

>  <SlogP_VSA10>
16.43

>  <SlogP_VSA11>
0

>  <EState_VSA1>
12.2

>  <EState_VSA2>
6.04

>  <EState_VSA3>
24.79

>  <EState_VSA4>
0

>  <EState_VSA5>
0

>  <EState_VSA6>
25.98

>  <EState_VSA7>
18.75

>  <EState_VSA8>
21.05

>  <EState_VSA9>
4.74

>  <EState_VSA10>
9.9

>  <VSA_EState1>
4.7

>  <VSA_EState2>
13.07

>  <VSA_EState3>
17.57

>  <VSA_EState4>
4.94

>  <VSA_EState5>
1.06

>  <VSA_EState6>
3.64

>  <VSA_EState7>
-1.04

>  <VSA_EState8>
8.23

>  <VSA_EState9>
0

>  <apol>
44.95

>  <bpol>
28.53

>  <nRing>
1

>  <nHRing>
1

>  <naRing>
1

>  <naHRing>
1

>  <nARing 2>
0

>  <nAHRing 2>
0

>  <nFRing>
0

>  <nFHRing>
0

>  <nFaRing>
0

>  <nFaHRing>
0

>  <nFARing 2>
0

>  <nFAHRing 2>
0

>  <nRot>
7

>  <SLogP>
1.15

>  <SMR>
79.98

>  <TopoPSA(NO)>
99.61

>  <TopoPSA>
99.61

>  <JGI1>
0.24

>  <JGI2>
0.08

>  <JGI3>
0.04

>  <JGI4>
0.05

>  <JGI5>
0.02

>  <Diameter>
13

>  <Radius>
7

>  <TMWC10>
112.53

>  <TSRW10>
53.72

>  <MW>
297.18

>  <AMW>
6.75

>  <WPath>
1090

>  <WPol>
27

>  <Zagreb1>
96

>  <Zagreb2>
105

>  <mZagreb2>
4.89

>  <yes>


>  <nAR-cont>
0.336376

>  <nHA-cont>
0.994529749

>  <MWHBN>
0.580083097

>  <MWHBN-cont>
0

>  <TPSA-cont>
0.304660346

>  <pka_cont>
0.97

>  <yes.1>


>  <BBB_SCORE>
2.425226441

>  <MMFF94 Energy>
39.059

$$$$
Compound 91
Actelion Java MolfileCreator 2.0

  0  0  0  0  0  0              0 V3000
M  V30 BEGIN CTAB
M  V30 COUNTS 47 50 0 0 0
M  V30 BEGIN ATOM
M  V30 1 O -0.8796 -2.4004 -3.0412 0
M  V30 2 C -0.7884 -1.5469 -2.1625 0
M  V30 3 N 0.1999 -1.5129 -1.1884 0
M  V30 4 C -1.7962 -0.4655 -2.101 0
M  V30 5 N 0.2676 -0.5681 -0.183 0
M  V30 6 C 1.2793 -2.4874 -1.2422 0
M  V30 7 C -1.7432 0.4714 -1.1525 0
M  V30 8 C -0.6435 0.3495 -0.1817 0
M  V30 9 C 2.4023 -2.0331 -2.1871 0
M  V30 10 C -0.593 1.3778 0.8323 0
M  V30 11 O 2.4178 -0.9038 -2.685 0
M  V30 12 N 3.4231 -2.9532 -2.4402 0
M  V30 13 C -1.6156 1.8671 1.6996 0
M  V30 14 C 0.5244 2.1176 1.1687 0
M  V30 15 C 3.5006 -4.2924 -1.8763 0
M  V30 16 C 4.4735 -2.5991 -3.3816 0
M  V30 17 N -1.1761 2.8835 2.4557 0
M  V30 18 C -2.9946 1.3962 1.8342 0
M  V30 19 N 0.1364 3.0195 2.1561 0
M  V30 20 C 1.8814 2.1543 0.7263 0
M  V30 21 C -3.2824 0.0255 1.8975 0
M  V30 22 C -4.0483 2.3176 1.9052 0
M  V30 23 C 1.0315 3.9336 2.717 0
M  V30 24 C 2.7355 3.0396 1.2736 0
M  V30 25 C -4.6039 -0.414 2.0056 0
M  V30 26 C -5.3686 1.8761 2.0137 0
M  V30 27 C 2.3097 3.9666 2.3072 0
M  V30 28 C -5.6456 0.5109 2.0596 0
M  V30 29 H -2.5573 -0.4717 -2.8701 0
M  V30 30 H 1.6859 -2.621 -0.2341 0
M  V30 31 H 0.8749 -3.4394 -1.6011 0
M  V30 32 H -2.4515 1.286 -1.0989 0
M  V30 33 H 2.7962 -4.449 -1.0592 0
M  V30 34 H 3.2906 -5.0144 -2.6707 0
M  V30 35 H 4.5123 -4.458 -1.4939 0
M  V30 36 H 4.3528 -1.5913 -3.7862 0
M  V30 37 H 4.4567 -3.3138 -4.2098 0
M  V30 38 H 5.4386 -2.659 -2.8698 0
M  V30 39 H 2.2146 1.4658 -0.0465 0
M  V30 40 H -2.4832 -0.7121 1.881 0
M  V30 41 H -3.8417 3.3859 1.8792 0
M  V30 42 H 0.628 4.5879 3.4776 0
M  V30 43 H 3.7713 3.0797 0.9492 0
M  V30 44 H -4.8195 -1.4783 2.0573 0
M  V30 45 H -6.1787 2.5989 2.0692 0
M  V30 46 H 3.0287 4.6637 2.7224 0
M  V30 47 H -6.6733 0.168 2.1494 0
M  V30 END ATOM
M  V30 BEGIN BOND
M  V30 1 2 1 2
M  V30 2 1 2 3
M  V30 3 1 2 4
M  V30 4 1 3 5
M  V30 5 1 3 6
M  V30 6 2 4 7
M  V30 7 2 5 8
M  V30 8 1 6 9
M  V30 9 1 8 10
M  V30 10 2 9 11
M  V30 11 1 9 12
M  V30 12 1 10 13
M  V30 13 2 10 14
M  V30 14 1 12 15
M  V30 15 1 12 16
M  V30 16 2 13 17
M  V30 17 1 13 18
M  V30 18 1 14 19
M  V30 19 1 14 20
M  V30 20 2 18 21
M  V30 21 1 18 22
M  V30 22 1 19 23
M  V30 23 2 20 24
M  V30 24 1 21 25
M  V30 25 2 22 26
M  V30 26 2 23 27
M  V30 27 2 25 28
M  V30 28 1 7 8
M  V30 29 1 17 19
M  V30 30 1 24 27
M  V30 31 1 26 28
M  V30 32 1 4 29
M  V30 33 1 6 30
M  V30 34 1 6 31
M  V30 35 1 7 32
M  V30 36 1 15 33
M  V30 37 1 15 34
M  V30 38 1 15 35
M  V30 39 1 16 36
M  V30 40 1 16 37
M  V30 41 1 16 38
M  V30 42 1 20 39
M  V30 43 1 21 40
M  V30 44 1 22 41
M  V30 45 1 23 42
M  V30 46 1 24 43
M  V30 47 1 25 44
M  V30 48 1 26 45
M  V30 49 1 27 46
M  V30 50 1 28 47
M  V30 END BOND
M  V30 END CTAB
M  END
>  <Column 1>
118

>  <level_0>
134

>  <index>
134

>  <Unnamed: 0>
134

>  <NO.>
135

>  <Name>
compound 17

>  <IUPAC_name>
n-n-dimethyl-2-[6-oxo-3-(2-phenylpyrazolo[1-5-a]pyridin-3-yl)pyridazin-1-yl]acetamide

>  <SMILES>
CN(C)C(=O)Cn1nc(-c2c(-c3ccccc3)nn3ccccc23)ccc1=O

>  <CID>
11003252

>  <logBB>
-1

>  <BBB+/BBB->
BBB+

>  <Inchi>
InChI=1S/C21H19N5O2/c1-24(2)19(28)14-26-18(27)12-11-16(22-26)20-17-10-6-7-13-25(17)23-21(20)15-8-4-3-5-9-15/h3-13H-14H2-1-2H3

>  <threshold>


>  <reference>
R2|R2|R4|R8|R40|R47|

>  <group>
A

>  <Class>
1

>  <ABC>
22.07

>  <ABCGG>
17.63

>  <nAcid>
0

>  <nBase>
0

>  <nAromAtom>
21

>  <nAromBond>
22

>  <nAtom>
47

>  <nHeavyAtom>
28

>  <nSpiro>
0

>  <nBridgehead>
0

>  <nHetero>
7

>  <nN>
5

>  <nO>
2

>  <nF>
0

>  <BalabanJ>
1.49

>  <BertzCT>
1208.43

>  <nBonds>
50

>  <nBondsO>
31

>  <nBondsS>
26

>  <nBondsD>
2

>  <nBondsT>
0

>  <nBondsA>
22

>  <nBondsM>
24

>  <nBondsKS>
39

>  <nBondsKD>
11

>  <RNCG>
0.16

>  <RPCG>
0.12

>  <FCSP3>
0.14

>  <SZ>
32.67

>  <Sm>
31.09

>  <Sv>
31.37

>  <Sse>
47.41

>  <Sp>
32.84

>  <Si>
52.82

>  <MZ>
0.7

>  <Mm>
0.66

>  <Mv>
0.67

>  <Mse>
1.01

>  <Mp>
0.7

>  <Mi>
1.12

>  <NsCH3>
2

>  <NdCH2>
0

>  <NssCH2>
1

>  <NtCH>
0

>  <NdsCH>
0

>  <NaaCH>
11

>  <NsssCH>
0

>  <NddC>
0

>  <NtsC>
0

>  <NdssC>
1

>  <NaasC>
4

>  <NaaaC>
1

>  <NssssC>
0

>  <NsNH3>
0

>  <NsNH2>
0

>  <NssNH2>
0

>  <NdNH>
0

>  <NssNH>
0

>  <NaaNH>
0

>  <NtN>
0

>  <NsssNH>
0

>  <NdsN>
0

>  <NaaN>
2

>  <NsssN>
1

>  <NddsN>
0

>  <NaasN>
2

>  <NssssN>
0

>  <NsOH>
0

>  <NdO>
2

>  <NssO>
0

>  <NaaO>
0

>  <NsF>
0

>  <NsSiH3>
0

>  <NssSiH2>
0

>  <NsssSiH>
0

>  <NssssSi>
0

>  <NsPH2>
0

>  <NssPH>
0

>  <NsssP>
0

>  <NdsssP>
0

>  <NsssssP>
0

>  <NsSH>
0

>  <NdS>
0

>  <NssS>
0

>  <NaaS>
0

>  <NdssS>
0

>  <NddssS>
0

>  <NsCl>
0

>  <NsBr>
0

>  <NsI>
0

>  <fragCpx>
205.07

>  <fMF>
0.45

>  <nHBAcc>
6

>  <nHBDon>
0

>  <Kier1>
21.24

>  <Kier2>
9.43

>  <Lipinski>
1

>  <GhoseFilter>
1

>  <FilterItLogS>
-4.2

>  <VMcGowan>
277.65

>  <LabuteASA>
161.01

>  <PEOE_VSA1>
4.9

>  <PEOE_VSA2>
9.59

>  <PEOE_VSA3>
9.2

>  <PEOE_VSA4>
10.2

>  <PEOE_VSA5>
0

>  <PEOE_VSA6>
36.4

>  <PEOE_VSA7>
18.2

>  <PEOE_VSA8>
31.92

>  <PEOE_VSA9>
16.77

>  <PEOE_VSA10>
12.24

>  <PEOE_VSA11>
0

>  <PEOE_VSA12>
5.91

>  <PEOE_VSA13>
5.56

>  <SMR_VSA1>
4.79

>  <SMR_VSA2>
0

>  <SMR_VSA3>
24.29

>  <SMR_VSA4>
0

>  <SMR_VSA5>
6.54

>  <SMR_VSA6>
14.1

>  <SMR_VSA7>
77.21

>  <SMR_VSA8>
0

>  <SMR_VSA9>
22.51

>  <SlogP_VSA1>
5.56

>  <SlogP_VSA2>
44.3

>  <SlogP_VSA3>
11.34

>  <SlogP_VSA4>
0

>  <SlogP_VSA5>
0

>  <SlogP_VSA6>
71.66

>  <SlogP_VSA7>
0

>  <SlogP_VSA8>
28.03

>  <SlogP_VSA9>
0

>  <SlogP_VSA10>
0

>  <SlogP_VSA11>
0

>  <EState_VSA1>
0

>  <EState_VSA2>
18.01

>  <EState_VSA3>
5.69

>  <EState_VSA4>
22.34

>  <EState_VSA5>
15.65

>  <EState_VSA6>
24.68

>  <EState_VSA7>
54.73

>  <EState_VSA8>
5.1

>  <EState_VSA9>
5.1

>  <EState_VSA10>
9.59

>  <VSA_EState1>
2.98

>  <VSA_EState2>
25.74

>  <VSA_EState3>
9.19

>  <VSA_EState4>
3.67

>  <VSA_EState5>
-0.2

>  <VSA_EState6>
18.72

>  <VSA_EState7>
1.87

>  <VSA_EState8>
-0.11

>  <VSA_EState9>
3.3

>  <apol>
54.84

>  <bpol>
25.93

>  <nRing>
4

>  <nHRing>
3

>  <naRing>
4

>  <naHRing>
3

>  <nARing 2>
0

>  <nAHRing 2>
0

>  <nFRing>
1

>  <nFHRing>
1

>  <nFaRing>
1

>  <nFaHRing>
1

>  <nFARing 2>
0

>  <nFAHRing 2>
0

>  <nRot>
4

>  <SLogP>
2.31

>  <SMR>
106.81

>  <TopoPSA(NO)>
72.5

>  <TopoPSA>
72.5

>  <JGI1>
0.16

>  <JGI2>
0.08

>  <JGI3>
0.04

>  <JGI4>
0.04

>  <JGI5>
0.02

>  <Diameter>
12

>  <Radius>
6

>  <TMWC10>
136.33

>  <TSRW10>
77.87

>  <MW>
373.15

>  <AMW>
7.94

>  <WPath>
1949

>  <WPol>
46

>  <Zagreb1>
150

>  <Zagreb2>
179

>  <mZagreb2>
6.11

>  <yes>


>  <nAR-cont>
0.336376

>  <nHA-cont>
0.82432561

>  <MWHBN>
0.310605776

>  <MWHBN-cont>
0.80793801

>  <TPSA-cont>
0.49390498

>  <pka_cont>
0.97

>  <yes.1>


>  <BBB_SCORE>
3.845418585

>  <MMFF94 Energy>
100.25

$$$$
Compound 92
Actelion Java MolfileCreator 2.0

  0  0  0  0  0  0              0 V3000
M  V30 BEGIN CTAB
M  V30 COUNTS 48 53 0 0 0
M  V30 BEGIN ATOM
M  V30 1 O -1.8676 2.1927 3.2498 0
M  V30 2 C -2.0747 1.7177 2.1328 0
M  V30 3 N -3.2825 1.8797 1.4762 0
M  V30 4 C -0.9628 0.9944 1.3342 0
M  V30 5 C -3.3401 1.7296 0.0344 0
M  V30 6 C -4.3834 2.5594 2.1313 0
M  V30 7 N -1.461 0.1494 0.2091 0
M  V30 8 C -0.151 0.201 2.3977 0
M  V30 9 C -2.6428 0.4675 -0.4526 0
M  V30 10 C -0.5465 -0.7831 -0.4761 0
M  V30 11 C 0.6553 -0.887 1.7955 0
M  V30 12 O -3.0383 -0.1251 -1.4558 0
M  V30 13 C 0.1543 -0.1147 -1.6644 0
M  V30 14 C 0.4332 -1.3254 0.5108 0
M  V30 15 C 1.7063 -1.668 2.3471 0
M  V30 16 C -0.2896 -0.3892 -2.9723 0
M  V30 17 C 1.2342 0.7887 -1.4861 0
M  V30 18 N 1.3062 -2.3499 0.2556 0
M  V30 19 C 2.0999 -2.5744 1.3596 0
M  V30 20 C 2.3635 -1.6964 3.5925 0
M  V30 21 C 0.3488 0.2269 -4.0284 0
M  V30 22 C 1.8622 1.3984 -2.5777 0
M  V30 23 C 3.1269 -3.5051 1.5563 0
M  V30 24 C 3.3915 -2.6221 3.8048 0
M  V30 25 O 0.0431 0.0658 -5.3437 0
M  V30 26 C 1.3949 1.096 -3.8363 0
M  V30 27 C 3.7661 -3.5112 2.7998 0
M  V30 28 C 1.0128 0.9402 -5.9565 0
M  V30 29 O 1.88 1.5922 -5.0054 0
M  V30 30 H -0.3363 1.7734 0.8827 0
M  V30 31 H -4.3886 1.6799 -0.2777 0
M  V30 32 H -2.8596 2.5991 -0.4264 0
M  V30 33 H -5.3215 2.0659 1.8618 0
M  V30 34 H -4.4028 3.6002 1.795 0
M  V30 35 H -4.2728 2.5391 3.219 0
M  V30 36 H -0.8325 -0.2598 3.1261 0
M  V30 37 H 0.4937 0.8899 2.9571 0
M  V30 38 H -1.1477 -1.6237 -0.849 0
M  V30 39 H -1.1258 -1.0572 -3.1585 0
M  V30 40 H 1.6022 1.0132 -0.4864 0
M  V30 41 H 1.3828 -2.8541 -0.6175 0
M  V30 42 H 2.0782 -1.008 4.3825 0
M  V30 43 H 2.6908 2.0838 -2.4389 0
M  V30 44 H 3.4201 -4.2011 0.7774 0
M  V30 45 H 3.9009 -2.6461 4.765 0
M  V30 46 H 4.5673 -4.2231 2.985 0
M  V30 47 H 1.6288 0.3517 -6.646 0
M  V30 48 H 0.4801 1.7083 -6.5293 0
M  V30 END ATOM
M  V30 BEGIN BOND
M  V30 1 2 1 2
M  V30 2 1 2 3
M  V30 3 1 2 4
M  V30 4 1 3 5
M  V30 5 1 3 6
M  V30 6 1 4 7
M  V30 7 1 4 8
M  V30 8 1 5 9
M  V30 9 1 7 10
M  V30 10 1 8 11
M  V30 11 2 9 12
M  V30 12 1 10 13
M  V30 13 1 10 14
M  V30 14 1 11 15
M  V30 15 2 13 16
M  V30 16 1 13 17
M  V30 17 1 14 18
M  V30 18 2 15 19
M  V30 19 1 15 20
M  V30 20 1 16 21
M  V30 21 2 17 22
M  V30 22 1 19 23
M  V30 23 2 20 24
M  V30 24 1 21 25
M  V30 25 2 21 26
M  V30 26 2 23 27
M  V30 27 1 25 28
M  V30 28 1 26 29
M  V30 29 1 7 9
M  V30 30 2 11 14
M  V30 31 1 18 19
M  V30 32 1 22 26
M  V30 33 1 24 27
M  V30 34 1 28 29
M  V30 35 1 4 30
M  V30 36 1 5 31
M  V30 37 1 5 32
M  V30 38 1 6 33
M  V30 39 1 6 34
M  V30 40 1 6 35
M  V30 41 1 8 36
M  V30 42 1 8 37
M  V30 43 1 10 38
M  V30 44 1 16 39
M  V30 45 1 17 40
M  V30 46 1 18 41
M  V30 47 1 20 42
M  V30 48 1 22 43
M  V30 49 1 23 44
M  V30 50 1 24 45
M  V30 51 1 27 46
M  V30 52 1 28 47
M  V30 53 1 28 48
M  V30 END BOND
M  V30 END CTAB
M  END
>  <Column 1>
119

>  <level_0>
135

>  <index>
135

>  <Unnamed: 0>
135

>  <NO.>
136

>  <Name>
ac1nfq3w

>  <IUPAC_name>
2-(1-3-benzodioxol-5-yl)-6-methyl-3-6-17-triazatetracyclo[8.7.0.03-8.011-16]heptadeca-1(10)-11-13-15-tetraene-4-7-dione

>  <SMILES>
CN1CC(=O)N2C(Cc3c([nH]c4ccccc34)C2c2ccc3c(c2)OCO3)C1=O

>  <CID>
4687521

>  <logBB>
-1

>  <BBB+/BBB->
BBB+

>  <Inchi>
InChI=1S/C22H19N3O4/c1-24-10-19(26)25-16(22(24)27)9-14-13-4-2-3-5-15(13)23-20(14)21(25)12-6-7-17-18(8-12)29-11-28-17/h2-8-16-21-23H-9-11H2-1H3

>  <threshold>


>  <reference>
R47|

>  <group>
A

>  <Class>
1

>  <ABC>
23.92

>  <ABCGG>
18.41

>  <nAcid>
0

>  <nBase>
0

>  <nAromAtom>
15

>  <nAromBond>
16

>  <nAtom>
48

>  <nHeavyAtom>
29

>  <nSpiro>
0

>  <nBridgehead>
0

>  <nHetero>
7

>  <nN>
3

>  <nO>
4

>  <nF>
0

>  <BalabanJ>
1.34

>  <BertzCT>
1184.01

>  <nBonds>
53

>  <nBondsO>
34

>  <nBondsS>
35

>  <nBondsD>
2

>  <nBondsT>
0

>  <nBondsA>
16

>  <nBondsM>
18

>  <nBondsKS>
44

>  <nBondsKD>
9

>  <RNCG>
0.16

>  <RPCG>
0.09

>  <FCSP3>
0.27

>  <SZ>
34

>  <Sm>
32.42

>  <Sv>
32.28

>  <Sse>
48.75

>  <Sp>
33.48

>  <Si>
53.66

>  <MZ>
0.71

>  <Mm>
0.68

>  <Mv>
0.67

>  <Mse>
1.02

>  <Mp>
0.7

>  <Mi>
1.12

>  <NsCH3>
1

>  <NdCH2>
0

>  <NssCH2>
3

>  <NtCH>
0

>  <NdsCH>
0

>  <NaaCH>
7

>  <NsssCH>
2

>  <NddC>
0

>  <NtsC>
0

>  <NdssC>
2

>  <NaasC>
5

>  <NaaaC>
2

>  <NssssC>
0

>  <NsNH3>
0

>  <NsNH2>
0

>  <NssNH2>
0

>  <NdNH>
0

>  <NssNH>
0

>  <NaaNH>
1

>  <NtN>
0

>  <NsssNH>
0

>  <NdsN>
0

>  <NaaN>
0

>  <NsssN>
2

>  <NddsN>
0

>  <NaasN>
0

>  <NssssN>
0

>  <NsOH>
0

>  <NdO>
2

>  <NssO>
2

>  <NaaO>
0

>  <NsF>
0

>  <NsSiH3>
0

>  <NssSiH2>
0

>  <NsssSiH>
0

>  <NssssSi>
0

>  <NsPH2>
0

>  <NssPH>
0

>  <NsssP>
0

>  <NdsssP>
0

>  <NsssssP>
0

>  <NsSH>
0

>  <NdS>
0

>  <NssS>
0

>  <NaaS>
0

>  <NdssS>
0

>  <NddssS>
0

>  <NsCl>
0

>  <NsBr>
0

>  <NsI>
0

>  <fragCpx>
344.07

>  <fMF>
0.54

>  <nHBAcc>
4

>  <nHBDon>
1

>  <Kier1>
19.67

>  <Kier2>
7.55

>  <Lipinski>
1

>  <GhoseFilter>
1

>  <FilterItLogS>
-4.46

>  <VMcGowan>
270.4

>  <LabuteASA>
166.35

>  <PEOE_VSA1>
24.26

>  <PEOE_VSA2>
9.59

>  <PEOE_VSA3>
0

>  <PEOE_VSA4>
0

>  <PEOE_VSA5>
0

>  <PEOE_VSA6>
24.27

>  <PEOE_VSA7>
29.33

>  <PEOE_VSA8>
30.07

>  <PEOE_VSA9>
12.59

>  <PEOE_VSA10>
6.04

>  <PEOE_VSA11>
11.5

>  <PEOE_VSA12>
18.61

>  <PEOE_VSA13>
0

>  <SMR_VSA1>
19.06

>  <SMR_VSA2>
0

>  <SMR_VSA3>
14.78

>  <SMR_VSA4>
0

>  <SMR_VSA5>
18.5

>  <SMR_VSA6>
20.39

>  <SMR_VSA7>
59.29

>  <SMR_VSA8>
0

>  <SMR_VSA9>
11.5

>  <SlogP_VSA1>
9.47

>  <SlogP_VSA2>
53.03

>  <SlogP_VSA3>
16.01

>  <SlogP_VSA4>
0

>  <SlogP_VSA5>
22.86

>  <SlogP_VSA6>
42.46

>  <SlogP_VSA7>
0

>  <SlogP_VSA8>
10.9

>  <SlogP_VSA9>
0

>  <SlogP_VSA10>
0

>  <SlogP_VSA11>
11.5

>  <EState_VSA1>
6.04

>  <EState_VSA2>
31.19

>  <EState_VSA3>
17.92

>  <EState_VSA4>
27.72

>  <EState_VSA5>
4.9

>  <EState_VSA6>
11.95

>  <EState_VSA7>
36.4

>  <EState_VSA8>
11.05

>  <EState_VSA9>
9.47

>  <EState_VSA10>
9.59

>  <VSA_EState1>
11.01

>  <VSA_EState2>
32.9

>  <VSA_EState3>
1.1

>  <VSA_EState4>
3.97

>  <VSA_EState5>
1.28

>  <VSA_EState6>
12.92

>  <VSA_EState7>
0.51

>  <VSA_EState8>
0.28

>  <VSA_EState9>
1.69

>  <apol>
55.92

>  <bpol>
28.26

>  <nRing>
6

>  <nHRing>
4

>  <naRing>
3

>  <naHRing>
1

>  <nARing 2>
3

>  <nAHRing 2>
3

>  <nFRing>
2

>  <nFHRing>
2

>  <nFaRing>
0

>  <nFaHRing>
0

>  <nFARing 2>
2

>  <nFAHRing 2>
2

>  <nRot>
1

>  <SLogP>
2.21

>  <SMR>
104.68

>  <TopoPSA(NO)>
74.87

>  <TopoPSA>
74.87

>  <JGI1>
0.15

>  <JGI2>
0.07

>  <JGI3>
0.05

>  <JGI4>
0.04

>  <JGI5>
0.03

>  <Diameter>
10

>  <Radius>
5

>  <TMWC10>
143.09

>  <TSRW10>
81.66

>  <MW>
389.14

>  <AMW>
8.11

>  <WPath>
1914

>  <WPol>
56

>  <Zagreb1>
172

>  <Zagreb2>
216

>  <mZagreb2>
6.06

>  <yes>


>  <nAR-cont>
0.691115

>  <nHA-cont>
0.785905698

>  <MWHBN>
0.253464457

>  <MWHBN-cont>
0.953763634

>  <TPSA-cont>
0.477360909

>  <pka_cont>
0.97

>  <yes.1>


>  <BBB_SCORE>
4.347387967

>  <MMFF94 Energy>
93.624

$$$$
Compound 93
Actelion Java MolfileCreator 2.0

  0  0  0  0  0  0              0 V3000
M  V30 BEGIN CTAB
M  V30 COUNTS 38 39 0 0 0
M  V30 BEGIN ATOM
M  V30 1 O 2.1551 5.1143 3.1941 0
M  V30 2 N 1.1316 5.4638 2.5886 0 CHG=1
M  V30 3 O 0.6714 6.6144 2.5928 0 CHG=-1
M  V30 4 C 0.4133 4.443 1.8173 0
M  V30 5 C 0.9349 3.1427 1.7364 0
M  V30 6 C -0.7808 4.7766 1.1706 0
M  V30 7 C 0.2628 2.1525 1.0064 0
M  V30 8 C -1.4518 3.7985 0.4417 0
M  V30 9 N 0.8406 0.8725 0.9186 0
M  V30 10 C -0.9309 2.5023 0.3603 0
M  V30 11 C 0.7028 -0.1073 -0.0515 0
M  V30 12 C 0.4096 0.1204 -1.3448 0
M  V30 13 C 1.0003 -1.5196 0.4292 0
M  V30 14 C 0.2418 -0.9768 -2.3302 0
M  V30 15 C 1.3901 -2.4762 -0.7063 0
M  V30 16 O -0.052 -0.6938 -3.4907 0
M  V30 17 C 0.3839 -2.4067 -1.8652 0
M  V30 18 C 1.6065 -3.8936 -0.1753 0
M  V30 19 C -0.9466 -3.0493 -1.5499 0
M  V30 20 O -1.1557 -4.2516 -1.6628 0
M  V30 21 O -1.8483 -2.156 -1.0612 0
M  V30 22 C -3.1192 -2.7218 -0.7355 0
M  V30 23 H 1.8736 2.8974 2.2289 0
M  V30 24 H -1.1968 5.7805 1.225 0
M  V30 25 H -2.3847 4.0387 -0.0638 0
M  V30 26 H 1.3977 0.6115 1.7286 0
M  V30 27 H -1.4959 1.7571 -0.1949 0
M  V30 28 H 0.2625 1.1162 -1.7455 0
M  V30 29 H 0.1235 -1.8962 0.9713 0
M  V30 30 H 1.8283 -1.4939 1.1501 0
M  V30 31 H 2.3605 -2.1362 -1.0988 0
M  V30 32 H 0.8047 -2.9574 -2.718 0
M  V30 33 H 0.717 -4.2794 0.3328 0
M  V30 34 H 2.4301 -3.9095 0.5467 0
M  V30 35 H 1.8636 -4.5793 -0.9892 0
M  V30 36 H -3.7683 -1.915 -0.384 0
M  V30 37 H -3.5769 -3.1742 -1.6206 0
M  V30 38 H -3.0143 -3.4575 0.0678 0
M  V30 END ATOM
M  V30 BEGIN BOND
M  V30 1 2 1 2
M  V30 2 1 2 3
M  V30 3 1 2 4
M  V30 4 2 4 5
M  V30 5 1 4 6
M  V30 6 1 5 7
M  V30 7 2 6 8
M  V30 8 1 7 9
M  V30 9 2 7 10
M  V30 10 1 9 11
M  V30 11 2 11 12
M  V30 12 1 11 13
M  V30 13 1 12 14
M  V30 14 1 13 15
M  V30 15 2 14 16
M  V30 16 1 14 17
M  V30 17 1 15 18
M  V30 18 1 17 19
M  V30 19 2 19 20
M  V30 20 1 19 21
M  V30 21 1 21 22
M  V30 22 1 8 10
M  V30 23 1 15 17
M  V30 24 1 5 23
M  V30 25 1 6 24
M  V30 26 1 8 25
M  V30 27 1 9 26
M  V30 28 1 10 27
M  V30 29 1 12 28
M  V30 30 1 13 29
M  V30 31 1 13 30
M  V30 32 1 15 31
M  V30 33 1 17 32
M  V30 34 1 18 33
M  V30 35 1 18 34
M  V30 36 1 18 35
M  V30 37 1 22 36
M  V30 38 1 22 37
M  V30 39 1 22 38
M  V30 END BOND
M  V30 END CTAB
M  END
>  <Column 1>
120

>  <level_0>
136

>  <index>
136

>  <Unnamed: 0>
136

>  <NO.>
137

>  <Name>
156154-71-1

>  <IUPAC_name>
methyl 6-methyl-4-(3-nitroanilino)-2-oxocyclohex-3-ene-1-carboxylate

>  <SMILES>
COC(=O)C1C(=O)C=C(Nc2cccc([N+](=O)[O-])c2)CC1C

>  <CID>
15186924

>  <logBB>
-1

>  <BBB+/BBB->
BBB+

>  <Inchi>
InChI=1S/C15H16N2O5/c1-9-6-11(8-13(18)14(9)15(19)22-2)16-10-4-3-5-12(7-10)17(20)21/h3-5-7-9-14-16H-6H2-1-2H3

>  <threshold>


>  <reference>
R2|R2|R4|R25|R40|R46|R47|

>  <group>
A

>  <Class>
1

>  <ABC>
16.65

>  <ABCGG>
14.03

>  <nAcid>
0

>  <nBase>
0

>  <nAromAtom>
6

>  <nAromBond>
6

>  <nAtom>
38

>  <nHeavyAtom>
22

>  <nSpiro>
0

>  <nBridgehead>
0

>  <nHetero>
7

>  <nN>
2

>  <nO>
5

>  <nF>
0

>  <BalabanJ>
1.87

>  <BertzCT>
653.09

>  <nBonds>
39

>  <nBondsO>
23

>  <nBondsS>
29

>  <nBondsD>
4

>  <nBondsT>
0

>  <nBondsA>
6

>  <nBondsM>
10

>  <nBondsKS>
32

>  <nBondsKD>
7

>  <RNCG>
0.23

>  <RPCG>
0.15

>  <FCSP3>
0.33

>  <SZ>
26.67

>  <Sm>
25.34

>  <Sv>
24.42

>  <Sse>
39.08

>  <Sp>
25.11

>  <Si>
42.95

>  <MZ>
0.7

>  <Mm>
0.67

>  <Mv>
0.64

>  <Mse>
1.03

>  <Mp>
0.66

>  <Mi>
1.13

>  <NsCH3>
2

>  <NdCH2>
0

>  <NssCH2>
1

>  <NtCH>
0

>  <NdsCH>
1

>  <NaaCH>
4

>  <NsssCH>
2

>  <NddC>
0

>  <NtsC>
0

>  <NdssC>
3

>  <NaasC>
2

>  <NaaaC>
0

>  <NssssC>
0

>  <NsNH3>
0

>  <NsNH2>
0

>  <NssNH2>
0

>  <NdNH>
0

>  <NssNH>
1

>  <NaaNH>
0

>  <NtN>
0

>  <NsssNH>
0

>  <NdsN>
0

>  <NaaN>
0

>  <NsssN>
0

>  <NddsN>
1

>  <NaasN>
0

>  <NssssN>
0

>  <NsOH>
0

>  <NdO>
3

>  <NssO>
1

>  <NaaO>
0

>  <NsF>
0

>  <NsSiH3>
0

>  <NssSiH2>
0

>  <NsssSiH>
0

>  <NssssSi>
0

>  <NsPH2>
0

>  <NssPH>
0

>  <NsssP>
0

>  <NdsssP>
0

>  <NsssssP>
0

>  <NsSH>
0

>  <NdS>
0

>  <NssS>
0

>  <NaaS>
0

>  <NdssS>
0

>  <NddssS>
0

>  <NsCl>
0

>  <NsBr>
0

>  <NsI>
0

>  <fragCpx>
67.07

>  <fMF>
0.34

>  <nHBAcc>
6

>  <nHBDon>
1

>  <Kier1>
18.34

>  <Kier2>
8.2

>  <Lipinski>
1

>  <GhoseFilter>
1

>  <FilterItLogS>
-3.15

>  <VMcGowan>
219.7

>  <LabuteASA>
126.66

>  <PEOE_VSA1>
10.05

>  <PEOE_VSA2>
19.7

>  <PEOE_VSA3>
0

>  <PEOE_VSA4>
0

>  <PEOE_VSA5>
0

>  <PEOE_VSA6>
12.99

>  <PEOE_VSA7>
18.41

>  <PEOE_VSA8>
29.59

>  <PEOE_VSA9>
12.03

>  <PEOE_VSA10>
5.92

>  <PEOE_VSA11>
5.78

>  <PEOE_VSA12>
0

>  <PEOE_VSA13>
5.69

>  <SMR_VSA1>
19.25

>  <SMR_VSA2>
0

>  <SMR_VSA3>
0

>  <SMR_VSA4>
11.84

>  <SMR_VSA5>
13.34

>  <SMR_VSA6>
12.43

>  <SMR_VSA7>
46.15

>  <SMR_VSA8>
0

>  <SMR_VSA9>
0

>  <SlogP_VSA1>
5.32

>  <SlogP_VSA2>
23.79

>  <SlogP_VSA3>
14.33

>  <SlogP_VSA4>
21.95

>  <SlogP_VSA5>
13.34

>  <SlogP_VSA6>
36.04

>  <SlogP_VSA7>
0

>  <SlogP_VSA8>
0

>  <SlogP_VSA9>
0

>  <SlogP_VSA10>
11.37

>  <SlogP_VSA11>
0

>  <EState_VSA1>
16.81

>  <EState_VSA2>
17.39

>  <EState_VSA3>
17.81

>  <EState_VSA4>
0

>  <EState_VSA5>
25.32

>  <EState_VSA6>
19.06

>  <EState_VSA7>
0

>  <EState_VSA8>
10.05

>  <EState_VSA9>
0

>  <EState_VSA10>
19.7

>  <VSA_EState1>
4.64

>  <VSA_EState2>
33.93

>  <VSA_EState3>
13.76

>  <VSA_EState4>
1.11

>  <VSA_EState5>
-1.85

>  <VSA_EState6>
6.02

>  <VSA_EState7>
1.84

>  <VSA_EState8>
1.79

>  <VSA_EState9>
1.25

>  <apol>
41.93

>  <bpol>
21.26

>  <nRing>
2

>  <nHRing>
0

>  <naRing>
1

>  <naHRing>
0

>  <nARing 2>
1

>  <nAHRing 2>
0

>  <nFRing>
0

>  <nFHRing>
0

>  <nFaRing>
0

>  <nFaHRing>
0

>  <nFARing 2>
0

>  <nFAHRing 2>
0

>  <nRot>
4

>  <SLogP>
2.29

>  <SMR>
79.1

>  <TopoPSA(NO)>
98.54

>  <TopoPSA>
98.54

>  <JGI1>
0.24

>  <JGI2>
0.08

>  <JGI3>
0.07

>  <JGI4>
0.04

>  <JGI5>
0.03

>  <Diameter>
12

>  <Radius>
6

>  <TMWC10>
118.26

>  <TSRW10>
55.88

>  <MW>
304.11

>  <AMW>
8

>  <WPath>
1122

>  <WPol>
34

>  <Zagreb1>
110

>  <Zagreb2>
127

>  <mZagreb2>
4.94

>  <yes>


>  <nAR-cont>
0.816016

>  <nHA-cont>
0.983774276

>  <MWHBN>
0.401404918

>  <MWHBN-cont>
0.470532947

>  <TPSA-cont>
0.31212961

>  <pka_cont>
0.97

>  <yes.1>


>  <BBB_SCORE>
3.614848917

>  <MMFF94 Energy>
37.086

$$$$
Compound 94
Actelion Java MolfileCreator 2.0

  0  0  0  0  0  0              0 V3000
M  V30 BEGIN CTAB
M  V30 COUNTS 27 28 0 0 0
M  V30 BEGIN ATOM
M  V30 1 O 1.5008 -1.2637 0.3947 0
M  V30 2 C 0.962 -0.0219 0.6872 0
M  V30 3 C 2.3527 -1.1731 -0.7518 0
M  V30 4 N -0.2673 0.3703 0.2743 0 CHG=1
M  V30 5 C 1.7654 0.8336 1.4538 0
M  V30 6 N -0.6897 1.8246 0.5577 0
M  V30 7 C -1.2124 -0.4692 -0.4266 0
M  V30 8 C 1.3774 2.1285 1.775 0
M  V30 9 C 0.1639 2.57 1.2784 0
M  V30 10 C -2.1868 0.1709 -1.2021 0
M  V30 11 C -1.2065 -1.8621 -0.3127 0
M  V30 12 N 2.2203 2.9558 2.4903 0
M  V30 13 C -3.1323 -0.5881 -1.8939 0
M  V30 14 C -2.1579 -2.6139 -1.0078 0
M  V30 15 C -3.1137 -1.9783 -1.7996 0
M  V30 16 H 1.8267 -0.7273 -1.6033 0
M  V30 17 H 3.2589 -0.6033 -0.5215 0
M  V30 18 H 2.6498 -2.1889 -1.0281 0
M  V30 19 H 2.7324 0.4676 1.7975 0
M  V30 20 H -0.1733 3.5877 1.4639 0
M  V30 21 H -2.2235 1.2527 -1.2989 0
M  V30 22 H -0.5177 -2.4011 0.329 0
M  V30 23 H 1.9339 3.8845 2.7846 0
M  V30 24 H 3.0775 2.6093 2.9091 0
M  V30 25 H -3.888 -0.0983 -2.5066 0
M  V30 26 H -2.166 -3.7001 -0.9234 0
M  V30 27 H -3.855 -2.5693 -2.3365 0
M  V30 END ATOM
M  V30 BEGIN BOND
M  V30 1 1 1 2
M  V30 2 1 1 3
M  V30 3 2 2 4
M  V30 4 1 2 5
M  V30 5 1 4 6
M  V30 6 1 4 7
M  V30 7 2 5 8
M  V30 8 2 6 9
M  V30 9 2 7 10
M  V30 10 1 7 11
M  V30 11 1 8 12
M  V30 12 1 10 13
M  V30 13 2 11 14
M  V30 14 2 13 15
M  V30 15 1 8 9
M  V30 16 1 14 15
M  V30 17 1 3 16
M  V30 18 1 3 17
M  V30 19 1 3 18
M  V30 20 1 5 19
M  V30 21 1 9 20
M  V30 22 1 10 21
M  V30 23 1 11 22
M  V30 24 1 12 23
M  V30 25 1 12 24
M  V30 26 1 13 25
M  V30 27 1 14 26
M  V30 28 1 15 27
M  V30 END BOND
M  V30 END CTAB
M  END
>  <Column 1>
121

>  <level_0>
138

>  <index>
138

>  <Unnamed: 0>
138

>  <NO.>
139

>  <Name>
amezinium

>  <IUPAC_name>
6-methoxy-1-phenylpyridazin-1-ium-4-amine

>  <SMILES>
COc1cc(N)cn[n+]1-c1ccccc1

>  <CID>
71927

>  <logBB>
-1

>  <BBB+/BBB->
BBB+

>  <Inchi>
InChI=1S/C11H11N3O/c1-15-11-7-9(12)8-13-14(11)10-5-3-2-4-6-10/h2-8-12H-1H3/p+1

>  <threshold>


>  <reference>
R18|R26|R27|

>  <group>
A

>  <Class>
1

>  <ABC>
11.34

>  <ABCGG>
9.89

>  <nAcid>
0

>  <nBase>
1

>  <nAromAtom>
12

>  <nAromBond>
12

>  <nAtom>
27

>  <nHeavyAtom>
15

>  <nSpiro>
0

>  <nBridgehead>
0

>  <nHetero>
4

>  <nN>
3

>  <nO>
1

>  <nF>
0

>  <BalabanJ>
1.93

>  <BertzCT>
456.65

>  <nBonds>
28

>  <nBondsO>
16

>  <nBondsS>
16

>  <nBondsD>
0

>  <nBondsT>
0

>  <nBondsA>
12

>  <nBondsM>
12

>  <nBondsKS>
22

>  <nBondsKD>
6

>  <RNCG>
0.43

>  <RPCG>
0.2

>  <FCSP3>
0.09

>  <SZ>
17.83

>  <Sm>
16.84

>  <Sv>
17.24

>  <Sse>
27.15

>  <Sp>
18.25

>  <Si>
30.57

>  <MZ>
0.66

>  <Mm>
0.62

>  <Mv>
0.64

>  <Mse>
1.01

>  <Mp>
0.68

>  <Mi>
1.13

>  <NsCH3>
1

>  <NdCH2>
0

>  <NssCH2>
0

>  <NtCH>
0

>  <NdsCH>
0

>  <NaaCH>
7

>  <NsssCH>
0

>  <NddC>
0

>  <NtsC>
0

>  <NdssC>
0

>  <NaasC>
3

>  <NaaaC>
0

>  <NssssC>
0

>  <NsNH3>
0

>  <NsNH2>
1

>  <NssNH2>
0

>  <NdNH>
0

>  <NssNH>
0

>  <NaaNH>
0

>  <NtN>
0

>  <NsssNH>
0

>  <NdsN>
0

>  <NaaN>
1

>  <NsssN>
0

>  <NddsN>
0

>  <NaasN>
1

>  <NssssN>
0

>  <NsOH>
0

>  <NdO>
0

>  <NssO>
1

>  <NaaO>
0

>  <NsF>
0

>  <NsSiH3>
0

>  <NssSiH2>
0

>  <NsssSiH>
0

>  <NssssSi>
0

>  <NsPH2>
0

>  <NssPH>
0

>  <NsssP>
0

>  <NdsssP>
0

>  <NsssssP>
0

>  <NsSH>
0

>  <NdS>
0

>  <NssS>
0

>  <NaaS>
0

>  <NdssS>
0

>  <NddssS>
0

>  <NsCl>
0

>  <NsBr>
0

>  <NsI>
0

>  <fragCpx>
46.04

>  <fMF>
0.44

>  <nHBAcc>
3

>  <nHBDon>
1

>  <Kier1>
11.48

>  <Kier2>
5.37

>  <Lipinski>
1

>  <GhoseFilter>
1

>  <FilterItLogS>
-2.06

>  <VMcGowan>
156.29

>  <LabuteASA>
87.92

>  <PEOE_VSA1>
10.47

>  <PEOE_VSA2>
0

>  <PEOE_VSA3>
0

>  <PEOE_VSA4>
0

>  <PEOE_VSA5>
0

>  <PEOE_VSA6>
18.2

>  <PEOE_VSA7>
4.68

>  <PEOE_VSA8>
17.23

>  <PEOE_VSA9>
18.86

>  <PEOE_VSA10>
6.2

>  <PEOE_VSA11>
0

>  <PEOE_VSA12>
5.69

>  <PEOE_VSA13>
0

>  <SMR_VSA1>
9.42

>  <SMR_VSA2>
0

>  <SMR_VSA3>
5.1

>  <SMR_VSA4>
0

>  <SMR_VSA5>
0

>  <SMR_VSA6>
12.84

>  <SMR_VSA7>
42.6

>  <SMR_VSA8>
0

>  <SMR_VSA9>
11.57

>  <SlogP_VSA1>
15.15

>  <SlogP_VSA2>
12.21

>  <SlogP_VSA3>
0

>  <SlogP_VSA4>
0

>  <SlogP_VSA5>
0

>  <SlogP_VSA6>
42.6

>  <SlogP_VSA7>
0

>  <SlogP_VSA8>
5.69

>  <SlogP_VSA9>
0

>  <SlogP_VSA10>
5.69

>  <SlogP_VSA11>
5.88

>  <EState_VSA1>
0

>  <EState_VSA2>
0

>  <EState_VSA3>
11.57

>  <EState_VSA4>
5.69

>  <EState_VSA5>
0

>  <EState_VSA6>
24.05

>  <EState_VSA7>
30.33

>  <EState_VSA8>
5.1

>  <EState_VSA9>
10.47

>  <EState_VSA10>
0

>  <VSA_EState1>
6.89

>  <VSA_EState2>
0

>  <VSA_EState3>
4.19

>  <VSA_EState4>
7.15

>  <VSA_EState5>
0.61

>  <VSA_EState6>
11.48

>  <VSA_EState7>
1.59

>  <VSA_EState8>
0

>  <VSA_EState9>
1.59

>  <apol>
30.47

>  <bpol>
14.91

>  <nRing>
2

>  <nHRing>
1

>  <naRing>
2

>  <naHRing>
1

>  <nARing 2>
0

>  <nAHRing 2>
0

>  <nFRing>
0

>  <nFHRing>
0

>  <nFaRing>
0

>  <nFaHRing>
0

>  <nFARing 2>
0

>  <nFAHRing 2>
0

>  <nRot>
2

>  <SLogP>
0.95

>  <SMR>
56.73

>  <TopoPSA(NO)>
52.02

>  <TopoPSA>
52.02

>  <JGI1>
0.16

>  <JGI2>
0.07

>  <JGI3>
0.05

>  <JGI4>
0.04

>  <JGI5>
0.02

>  <Diameter>
8

>  <Radius>
4

>  <TMWC10>
100.36

>  <TSRW10>
46.83

>  <MW>
202.1

>  <AMW>
7.49

>  <WPath>
358

>  <WPol>
21

>  <Zagreb1>
74

>  <Zagreb2>
85

>  <mZagreb2>
3.47

>  <yes>


>  <nAR-cont>
0.336376

>  <nHA-cont>
0.92539861

>  <MWHBN>
0.281369381

>  <MWHBN-cont>
0.892591535

>  <TPSA-cont>
0.636868098

>  <pka_cont>
0.97

>  <yes.1>


>  <BBB_SCORE>
4.359398108

>  <MMFF94 Energy>
107.59

$$$$
Compound 95
Actelion Java MolfileCreator 2.0

  0  0  0  0  0  0              0 V3000
M  V30 BEGIN CTAB
M  V30 COUNTS 72 77 0 0 0
M  V30 BEGIN ATOM
M  V30 1 S -3.8096 0.8096 -4.9465 0
M  V30 2 O -4.2793 2.1424 -5.2654 0
M  V30 3 O -2.4223 0.4426 -5.1402 0
M  V30 4 N -4.2906 0.4338 -3.3589 0
M  V30 5 C -4.7797 -0.3539 -5.8807 0
M  V30 6 C -3.5311 0.9988 -2.279 0
M  V30 7 C -5.7342 0.6816 -3.0255 0
M  V30 8 C -4.366 1.3195 -1.213 0
M  V30 9 C -2.1611 1.1189 -2.152 0
M  V30 10 C -5.7865 0.9768 -1.5189 0
M  V30 11 C -3.8629 1.8257 -0.0205 0
M  V30 12 C -1.6231 1.6522 -0.9621 0
M  V30 13 C -2.4807 2.0034 0.1081 0
M  V30 14 C -0.1186 1.777 -0.8455 0
M  V30 15 O -1.8637 2.4931 1.2303 0
M  V30 16 N 0.4629 0.5101 -0.3991 0
M  V30 17 C -2.6811 2.7855 2.3553 0
M  V30 18 C 1.913 0.5977 -0.2117 0
M  V30 19 C 2.5504 -0.7299 0.3241 0
M  V30 20 C 2.738 0.8232 -1.4916 0
M  V30 21 N 3.7391 -0.9358 -0.5956 0
M  V30 22 C 2.935 -0.6493 1.8447 0
M  V30 23 C 4.1184 0.447 -0.9852 0
M  V30 24 C 2.4916 -0.2821 -2.5211 0
M  V30 25 C 3.2058 -1.4726 -1.8823 0
M  V30 26 C 1.6975 -0.3731 2.7072 0
M  V30 27 C 3.7286 -1.8336 2.411 0
M  V30 28 C 1.5834 0.8383 3.4079 0
M  V30 29 C 0.657 -1.3104 2.8121 0
M  V30 30 C 3.7016 -3.1163 1.8437 0
M  V30 31 C 4.4958 -1.6413 3.5755 0
M  V30 32 C 0.4559 1.1065 4.1861 0
M  V30 33 C -0.4699 -1.0388 3.5893 0
M  V30 34 C 4.426 -4.1673 2.4131 0
M  V30 35 C 5.2177 -2.6922 4.1448 0
M  V30 36 C -0.5701 0.1687 4.276 0
M  V30 37 C 5.1834 -3.9556 3.5622 0
M  V30 38 H -4.5459 -1.3643 -5.54 0
M  V30 39 H -4.507 -0.2475 -6.9332 0
M  V30 40 H -5.8399 -0.1296 -5.7545 0
M  V30 41 H -6.1212 1.546 -3.5773 0
M  V30 42 H -6.3427 -0.1928 -3.2753 0
M  V30 43 H -1.4896 0.7995 -2.9425 0
M  V30 44 H -6.0853 0.0845 -0.9585 0
M  V30 45 H -6.474 1.7981 -1.2964 0
M  V30 46 H -4.5532 2.0566 0.7819 0
M  V30 47 H 0.1441 2.5943 -0.1632 0
M  V30 48 H 0.2786 2.0603 -1.8278 0
M  V30 49 H 0.0288 0.278 0.4981 0
M  V30 50 H -3.3962 3.5827 2.1272 0
M  V30 51 H -2.0298 3.1455 3.1575 0
M  V30 52 H -3.1907 1.8868 2.7182 0
M  V30 53 H 2.1352 1.4186 0.4842 0
M  V30 54 H 1.8493 -1.5663 0.1948 0
M  V30 55 H 2.6587 1.8327 -1.9015 0
M  V30 56 H 3.6078 0.2162 1.9401 0
M  V30 57 H 4.8952 0.4608 -1.759 0
M  V30 58 H 4.4657 1.0442 -0.1348 0
M  V30 59 H 2.9622 -0.0277 -3.4778 0
M  V30 60 H 1.4303 -0.4768 -2.6996 0
M  V30 61 H 2.5484 -2.3374 -1.7409 0
M  V30 62 H 4.0393 -1.8035 -2.5133 0
M  V30 63 H 2.3732 1.584 3.3522 0
M  V30 64 H 0.72 -2.2639 2.292 0
M  V30 65 H 3.1253 -3.3178 0.9451 0
M  V30 66 H 4.5294 -0.6634 4.051 0
M  V30 67 H 0.3804 2.048 4.7238 0
M  V30 68 H -1.2662 -1.7749 3.6625 0
M  V30 69 H 4.3992 -5.1517 1.9537 0
M  V30 70 H 5.8043 -2.5229 5.0435 0
M  V30 71 H -1.4454 0.3758 4.8853 0
M  V30 72 H 5.7459 -4.7743 4.002 0
M  V30 END ATOM
M  V30 BEGIN BOND
M  V30 1 2 1 2
M  V30 2 2 1 3
M  V30 3 1 1 4
M  V30 4 1 1 5
M  V30 5 1 4 6
M  V30 6 1 4 7
M  V30 7 2 6 8
M  V30 8 1 6 9
M  V30 9 1 7 10
M  V30 10 1 8 11
M  V30 11 2 9 12
M  V30 12 2 11 13
M  V30 13 1 12 14
M  V30 14 1 13 15
M  V30 15 1 14 16
M  V30 16 1 15 17
M  V30 17 1 16 18
M  V30 18 1 18 19
M  V30 19 1 18 20
M  V30 20 1 19 21
M  V30 21 1 19 22
M  V30 22 1 20 23
M  V30 23 1 20 24
M  V30 24 1 21 25
M  V30 25 1 22 26
M  V30 26 1 22 27
M  V30 27 2 26 28
M  V30 28 1 26 29
M  V30 29 2 27 30
M  V30 30 1 27 31
M  V30 31 1 28 32
M  V30 32 2 29 33
M  V30 33 1 30 34
M  V30 34 2 31 35
M  V30 35 2 32 36
M  V30 36 2 34 37
M  V30 37 1 8 10
M  V30 38 1 12 13
M  V30 39 1 21 23
M  V30 40 1 24 25
M  V30 41 1 33 36
M  V30 42 1 35 37
M  V30 43 1 5 38
M  V30 44 1 5 39
M  V30 45 1 5 40
M  V30 46 1 7 41
M  V30 47 1 7 42
M  V30 48 1 9 43
M  V30 49 1 10 44
M  V30 50 1 10 45
M  V30 51 1 11 46
M  V30 52 1 14 47
M  V30 53 1 14 48
M  V30 54 1 16 49
M  V30 55 1 17 50
M  V30 56 1 17 51
M  V30 57 1 17 52
M  V30 58 1 18 53
M  V30 59 1 19 54
M  V30 60 1 20 55
M  V30 61 1 22 56
M  V30 62 1 23 57
M  V30 63 1 23 58
M  V30 64 1 24 59
M  V30 65 1 24 60
M  V30 66 1 25 61
M  V30 67 1 25 62
M  V30 68 1 28 63
M  V30 69 1 29 64
M  V30 70 1 30 65
M  V30 71 1 31 66
M  V30 72 1 32 67
M  V30 73 1 33 68
M  V30 74 1 34 69
M  V30 75 1 35 70
M  V30 76 1 36 71
M  V30 77 1 37 72
M  V30 END BOND
M  V30 END CTAB
M  END
>  <Column 1>
122

>  <level_0>
139

>  <index>
139

>  <Unnamed: 0>
139

>  <NO.>
140

>  <Name>
-

>  <IUPAC_name>


>  <SMILES>
COc1cc2c(cc1CNC1C3CCN(C3)C1C(c1ccccc1)c1ccccc1)N(S(C)(=O)=O)CC2

>  <CID>


>  <logBB>
-1

>  <BBB+/BBB->
BBB+

>  <Inchi>
InChI=1S/C30H35N3O3S/c1-36-27-18-23-14-16-33(37(2-34)35)26(23)17-25(27)19-31-29-24-13-15-32(20-24)30(29)28(21-9-5-3-6-10-21)22-11-7-4-8-12-22/h3-12-17-18-24-28-31H-13-16-19-20H2-1-2H3

>  <threshold>


>  <reference>
R2|R2|R4|R8|R25|R40|R46|R47|

>  <group>
A

>  <Class>
1

>  <ABC>
29.75

>  <ABCGG>
23.56

>  <nAcid>
0

>  <nBase>
2

>  <nAromAtom>
18

>  <nAromBond>
18

>  <nAtom>
72

>  <nHeavyAtom>
37

>  <nSpiro>
0

>  <nBridgehead>
2

>  <nHetero>
7

>  <nN>
3

>  <nO>
3

>  <nF>
0

>  <BalabanJ>
1.18

>  <BertzCT>
1324.08

>  <nBonds>
77

>  <nBondsO>
42

>  <nBondsS>
57

>  <nBondsD>
2

>  <nBondsT>
0

>  <nBondsA>
18

>  <nBondsM>
20

>  <nBondsKS>
66

>  <nBondsKD>
11

>  <RNCG>
0.19

>  <RPCG>
0.09

>  <FCSP3>
0.4

>  <SZ>
46

>  <Sm>
43.1

>  <Sv>
45.09

>  <Sse>
71.6

>  <Sp>
49.13

>  <Si>
80.69

>  <MZ>
0.64

>  <Mm>
0.6

>  <Mv>
0.63

>  <Mse>
0.99

>  <Mp>
0.68

>  <Mi>
1.12

>  <NsCH3>
2

>  <NdCH2>
0

>  <NssCH2>
6

>  <NtCH>
0

>  <NdsCH>
0

>  <NaaCH>
12

>  <NsssCH>
4

>  <NddC>
0

>  <NtsC>
0

>  <NdssC>
0

>  <NaasC>
6

>  <NaaaC>
0

>  <NssssC>
0

>  <NsNH3>
0

>  <NsNH2>
0

>  <NssNH2>
0

>  <NdNH>
0

>  <NssNH>
1

>  <NaaNH>
0

>  <NtN>
0

>  <NsssNH>
0

>  <NdsN>
0

>  <NaaN>
0

>  <NsssN>
2

>  <NddsN>
0

>  <NaasN>
0

>  <NssssN>
0

>  <NsOH>
0

>  <NdO>
2

>  <NssO>
1

>  <NaaO>
0

>  <NsF>
0

>  <NsSiH3>
0

>  <NssSiH2>
0

>  <NsssSiH>
0

>  <NssssSi>
0

>  <NsPH2>
0

>  <NssPH>
0

>  <NsssP>
0

>  <NdsssP>
0

>  <NsssssP>
0

>  <NsSH>
0

>  <NdS>
0

>  <NssS>
0

>  <NaaS>
0

>  <NdssS>
0

>  <NddssS>
1

>  <NsCl>
0

>  <NsBr>
0

>  <NsI>
0

>  <fragCpx>
432.07

>  <fMF>
0.43

>  <nHBAcc>
5

>  <nHBDon>
1

>  <Kier1>
27.18

>  <Kier2>
11.47

>  <Lipinski>
0

>  <GhoseFilter>
0

>  <FilterItLogS>
-6.55

>  <VMcGowan>
393.6

>  <LabuteASA>
219.85

>  <PEOE_VSA1>
10.05

>  <PEOE_VSA2>
9.21

>  <PEOE_VSA3>
8.42

>  <PEOE_VSA4>
0

>  <PEOE_VSA5>
0

>  <PEOE_VSA6>
60.66

>  <PEOE_VSA7>
54.13

>  <PEOE_VSA8>
43.2

>  <PEOE_VSA9>
19.05

>  <PEOE_VSA10>
5.75

>  <PEOE_VSA11>
0

>  <PEOE_VSA12>
10.02

>  <PEOE_VSA13>
0

>  <SMR_VSA1>
13.15

>  <SMR_VSA2>
0

>  <SMR_VSA3>
10.22

>  <SMR_VSA4>
5.92

>  <SMR_VSA5>
37.39

>  <SMR_VSA6>
37.31

>  <SMR_VSA7>
95.05

>  <SMR_VSA8>
0

>  <SMR_VSA9>
5.75

>  <SlogP_VSA1>
14.36

>  <SlogP_VSA2>
58.4

>  <SlogP_VSA3>
22.99

>  <SlogP_VSA4>
5.92

>  <SlogP_VSA5>
34.59

>  <SlogP_VSA6>
72.8

>  <SlogP_VSA7>
0

>  <SlogP_VSA8>
0

>  <SlogP_VSA9>
0

>  <SlogP_VSA10>
5.69

>  <SlogP_VSA11>
5.75

>  <EState_VSA1>
10.02

>  <EState_VSA2>
5.92

>  <EState_VSA3>
37.51

>  <EState_VSA4>
35.65

>  <EState_VSA5>
28.11

>  <EState_VSA6>
7.11

>  <EState_VSA7>
12.13

>  <EState_VSA8>
70.88

>  <EState_VSA9>
4.74

>  <EState_VSA10>
8.42

>  <VSA_EState1>
32.04

>  <VSA_EState2>
2.67

>  <VSA_EState3>
3.93

>  <VSA_EState4>
5.51

>  <VSA_EState5>
1.69

>  <VSA_EState6>
26.45

>  <VSA_EState7>
3.2

>  <VSA_EState8>
3.37

>  <VSA_EState9>
-1.61

>  <apol>
82.04

>  <bpol>
47.49

>  <nRing>
6

>  <nHRing>
3

>  <naRing>
3

>  <naHRing>
0

>  <nARing 2>
3

>  <nAHRing 2>
3

>  <nFRing>
2

>  <nFHRing>
2

>  <nFaRing>
0

>  <nFaHRing>
0

>  <nFARing 2>
2

>  <nFAHRing 2>
2

>  <nRot>
8

>  <SLogP>
4.01

>  <SMR>
147.71

>  <TopoPSA(NO)>
61.88

>  <TopoPSA>
70.26

>  <JGI1>
0.17

>  <JGI2>
0.07

>  <JGI3>
0.05

>  <JGI4>
0.04

>  <JGI5>
0.02

>  <Diameter>
14

>  <Radius>
7

>  <TMWC10>
159.95

>  <TSRW10>
91.59

>  <MW>
517.24

>  <AMW>
7.18

>  <WPath>
4206

>  <WPol>
61

>  <Zagreb1>
208

>  <Zagreb2>
253

>  <mZagreb2>
7.92

>  <yes>


>  <nAR-cont>
0.691115

>  <nHA-cont>
0.433355441

>  <MWHBN>
0.263818471

>  <MWHBN-cont>
0.933617246

>  <TPSA-cont>
0.509541571

>  <pka_cont>
0.97

>  <yes.1>


>  <BBB_SCORE>
4.028979452

>  <MMFF94 Energy>
109.73

$$$$
Compound 96
Actelion Java MolfileCreator 2.0

  0  0  0  0  0  0              0 V3000
M  V30 BEGIN CTAB
M  V30 COUNTS 52 56 0 0 0
M  V30 BEGIN ATOM
M  V30 1 S 0.4933 -1.3159 3.3747 0
M  V30 2 O -0.7257 -0.9036 4.0399 0
M  V30 3 O 1.7912 -1.0095 3.944 0
M  V30 4 C 0.3753 -3.0597 3.0865 0
M  V30 5 C 0.5025 -0.5989 1.8227 0
M  V30 6 C -0.8147 -3.5811 2.5677 0
M  V30 7 C 1.4472 -3.8985 3.4013 0
M  V30 8 C 1.5372 -0.6506 0.8788 0
M  V30 9 C -0.5128 0.1138 1.2159 0
M  V30 10 C -0.9205 -4.9528 2.3418 0
M  V30 11 C 1.3332 -5.2691 3.1706 0
M  V30 12 S 3.065 -1.4977 1.0047 0
M  V30 13 N 1.2397 0.0018 -0.2422 0
M  V30 14 N -1.7711 0.4553 1.6333 0
M  V30 15 N -0.0158 0.497 -0.0471 0
M  V30 16 C 0.153 -5.7939 2.64 0
M  V30 17 C 4.0903 -0.5742 -0.1599 0
M  V30 18 C -2.4495 1.195 0.8195 0
M  V30 19 C -0.7898 1.3078 -0.9437 0
M  V30 20 C -2.0137 1.67 -0.5206 0
M  V30 21 C -3.8361 1.6756 1.1159 0
M  V30 22 N -0.2577 1.6747 -2.192 0
M  V30 23 C -3.1424 2.4432 -1.1099 0
M  V30 24 C -3.9807 2.8222 0.115 0
M  V30 25 C 0.4273 0.7203 -3.0879 0
M  V30 26 C -0.222 3.0673 -2.6732 0
M  V30 27 C 1.8518 1.2036 -3.4317 0
M  V30 28 C 1.2179 3.4843 -3.057 0
M  V30 29 N 1.8754 2.5662 -4.0096 0
M  V30 30 H -1.6592 -2.9296 2.3501 0
M  V30 31 H 2.3682 -3.4971 3.8189 0
M  V30 32 H -1.8412 -5.3689 1.9402 0
M  V30 33 H 2.1637 -5.93 3.4071 0
M  V30 34 H 0.0676 -6.8638 2.4651 0
M  V30 35 H 3.7369 -0.7148 -1.1851 0
M  V30 36 H 5.1177 -0.9435 -0.1006 0
M  V30 37 H 4.094 0.4917 0.0843 0
M  V30 38 H -4.5471 0.8682 0.9164 0
M  V30 39 H -3.9348 2.0153 2.1497 0
M  V30 40 H -2.8312 3.3369 -1.6544 0
M  V30 41 H -3.7231 1.8013 -1.7814 0
M  V30 42 H -5.0277 3.0049 -0.1463 0
M  V30 43 H -3.5867 3.7468 0.5575 0
M  V30 44 H -0.1594 0.6433 -4.0124 0
M  V30 45 H 0.4608 -0.2912 -2.6702 0
M  V30 46 H -0.5811 3.7618 -1.9054 0
M  V30 47 H -0.8829 3.1605 -3.5431 0
M  V30 48 H 2.4861 1.1856 -2.538 0
M  V30 49 H 2.3019 0.5134 -4.1534 0
M  V30 50 H 1.8331 3.5544 -2.151 0
M  V30 51 H 1.1947 4.4868 -3.4984 0
M  V30 52 H 1.327 2.5533 -4.8693 0
M  V30 END ATOM
M  V30 BEGIN BOND
M  V30 1 2 1 2
M  V30 2 2 1 3
M  V30 3 1 1 4
M  V30 4 1 1 5
M  V30 5 2 4 6
M  V30 6 1 4 7
M  V30 7 1 5 8
M  V30 8 2 5 9
M  V30 9 1 6 10
M  V30 10 2 7 11
M  V30 11 1 8 12
M  V30 12 2 8 13
M  V30 13 1 9 14
M  V30 14 1 9 15
M  V30 15 2 10 16
M  V30 16 1 12 17
M  V30 17 2 14 18
M  V30 18 1 15 19
M  V30 19 1 18 20
M  V30 20 1 18 21
M  V30 21 1 19 22
M  V30 22 1 20 23
M  V30 23 1 21 24
M  V30 24 1 22 25
M  V30 25 1 22 26
M  V30 26 1 25 27
M  V30 27 1 26 28
M  V30 28 1 27 29
M  V30 29 1 11 16
M  V30 30 1 13 15
M  V30 31 2 19 20
M  V30 32 1 23 24
M  V30 33 1 28 29
M  V30 34 1 6 30
M  V30 35 1 7 31
M  V30 36 1 10 32
M  V30 37 1 11 33
M  V30 38 1 16 34
M  V30 39 1 17 35
M  V30 40 1 17 36
M  V30 41 1 17 37
M  V30 42 1 21 38
M  V30 43 1 21 39
M  V30 44 1 23 40
M  V30 45 1 23 41
M  V30 46 1 24 42
M  V30 47 1 24 43
M  V30 48 1 25 44
M  V30 49 1 25 45
M  V30 50 1 26 46
M  V30 51 1 26 47
M  V30 52 1 27 48
M  V30 53 1 27 49
M  V30 54 1 28 50
M  V30 55 1 28 51
M  V30 56 1 29 52
M  V30 END BOND
M  V30 END CTAB
M  END
>  <Column 1>
123

>  <level_0>
140

>  <index>
140

>  <Unnamed: 0>
140

>  <NO.>
141

>  <Name>
ro65-7674

>  <IUPAC_name>
10-(benzenesulfonyl)-11-methylsulfanyl-2-piperazin-1-yl-1-8-12-triazatricyclo[7.3.0.03-7]dodeca-2-7-9-11-tetraene

>  <SMILES>
CSc1nn2c(N3CCNCC3)c3c(nc2c1S(=O)(=O)c1ccccc1)CCC3

>  <CID>
6918479

>  <logBB>
-1

>  <BBB+/BBB->
BBB+

>  <Inchi>
InChI=1S/C20H23N5O2S2/c1-28-19-17(29(26-27)14-6-3-2-4-7-14)18-22-16-9-5-8-15(16)20(25(18)23-19)24-12-10-21-11-13-24/h2-4-6-7-21H-5-8-13H2-1H3

>  <threshold>


>  <reference>
R18|R26|R27|

>  <group>
A

>  <Class>
1

>  <ABC>
23.25

>  <ABCGG>
19.01

>  <nAcid>
0

>  <nBase>
1

>  <nAromAtom>
15

>  <nAromBond>
16

>  <nAtom>
52

>  <nHeavyAtom>
29

>  <nSpiro>
0

>  <nBridgehead>
0

>  <nHetero>
9

>  <nN>
5

>  <nO>
2

>  <nF>
0

>  <BalabanJ>
1.45

>  <BertzCT>
1168.79

>  <nBonds>
56

>  <nBondsO>
33

>  <nBondsS>
38

>  <nBondsD>
2

>  <nBondsT>
0

>  <nBondsA>
16

>  <nBondsM>
18

>  <nBondsKS>
47

>  <nBondsKD>
9

>  <RNCG>
0.16

>  <RPCG>
0.1

>  <FCSP3>
0.4

>  <SZ>
37.67

>  <Sm>
35.76

>  <Sv>
33.82

>  <Sse>
52.34

>  <Sp>
36.91

>  <Si>
58.49

>  <MZ>
0.72

>  <Mm>
0.69

>  <Mv>
0.65

>  <Mse>
1.01

>  <Mp>
0.71

>  <Mi>
1.12

>  <NsCH3>
1

>  <NdCH2>
0

>  <NssCH2>
7

>  <NtCH>
0

>  <NdsCH>
0

>  <NaaCH>
5

>  <NsssCH>
0

>  <NddC>
0

>  <NtsC>
0

>  <NdssC>
0

>  <NaasC>
6

>  <NaaaC>
1

>  <NssssC>
0

>  <NsNH3>
0

>  <NsNH2>
0

>  <NssNH2>
0

>  <NdNH>
0

>  <NssNH>
1

>  <NaaNH>
0

>  <NtN>
0

>  <NsssNH>
0

>  <NdsN>
0

>  <NaaN>
2

>  <NsssN>
1

>  <NddsN>
0

>  <NaasN>
1

>  <NssssN>
0

>  <NsOH>
0

>  <NdO>
2

>  <NssO>
0

>  <NaaO>
0

>  <NsF>
0

>  <NsSiH3>
0

>  <NssSiH2>
0

>  <NsssSiH>
0

>  <NssssSi>
0

>  <NsPH2>
0

>  <NssPH>
0

>  <NsssP>
0

>  <NdsssP>
0

>  <NsssssP>
0

>  <NsSH>
0

>  <NdS>
0

>  <NssS>
1

>  <NaaS>
0

>  <NdssS>
0

>  <NddssS>
1

>  <NsCl>
0

>  <NsBr>
0

>  <NsI>
0

>  <fragCpx>
277.09

>  <fMF>
0.48

>  <nHBAcc>
8

>  <nHBDon>
1

>  <Kier1>
20.88

>  <Kier2>
8.5

>  <Lipinski>
1

>  <GhoseFilter>
1

>  <FilterItLogS>
-5.12

>  <VMcGowan>
302.6

>  <LabuteASA>
173.98

>  <PEOE_VSA1>
10.22

>  <PEOE_VSA2>
0

>  <PEOE_VSA3>
13.4

>  <PEOE_VSA4>
9.61

>  <PEOE_VSA5>
11.76

>  <PEOE_VSA6>
18.2

>  <PEOE_VSA7>
37.65

>  <PEOE_VSA8>
37.44

>  <PEOE_VSA9>
4.9

>  <PEOE_VSA10>
10.84

>  <PEOE_VSA11>
10.54

>  <PEOE_VSA12>
9.84

>  <PEOE_VSA13>
0

>  <SMR_VSA1>
8.42

>  <SMR_VSA2>
0

>  <SMR_VSA3>
19.91

>  <SMR_VSA4>
0

>  <SMR_VSA5>
34.08

>  <SMR_VSA6>
37.33

>  <SMR_VSA7>
41.59

>  <SMR_VSA8>
0

>  <SMR_VSA9>
0

>  <SlogP_VSA1>
10.22

>  <SlogP_VSA2>
55.45

>  <SlogP_VSA3>
22.68

>  <SlogP_VSA4>
0

>  <SlogP_VSA5>
17.68

>  <SlogP_VSA6>
45.15

>  <SlogP_VSA7>
0

>  <SlogP_VSA8>
5.65

>  <SlogP_VSA9>
0

>  <SlogP_VSA10>
5.82

>  <SlogP_VSA11>
0

>  <EState_VSA1>
9.84

>  <EState_VSA2>
9.79

>  <EState_VSA3>
10.67

>  <EState_VSA4>
56.95

>  <EState_VSA5>
17.33

>  <EState_VSA6>
28.78

>  <EState_VSA7>
12.32

>  <EState_VSA8>
10.22

>  <EState_VSA9>
10.08

>  <EState_VSA10>
8.42

>  <VSA_EState1>
28.88

>  <VSA_EState2>
7.66

>  <VSA_EState3>
8.64

>  <VSA_EState4>
2.69

>  <VSA_EState5>
1.02

>  <VSA_EState6>
8.57

>  <VSA_EState7>
4.76

>  <VSA_EState8>
3.57

>  <VSA_EState9>
-3.73

>  <apol>
61.64

>  <bpol>
37.32

>  <nRing>
5

>  <nHRing>
3

>  <naRing>
3

>  <naHRing>
2

>  <nARing 2>
2

>  <nAHRing 2>
1

>  <nFRing>
1

>  <nFHRing>
1

>  <nFaRing>
0

>  <nFaHRing>
0

>  <nFARing 2>
1

>  <nFAHRing 2>
1

>  <nRot>
4

>  <SLogP>
2.18

>  <SMR>
113.77

>  <TopoPSA(NO)>
79.6

>  <TopoPSA>
113.28

>  <JGI1>
0.15

>  <JGI2>
0.08

>  <JGI3>
0.06

>  <JGI4>
0.04

>  <JGI5>
0.02

>  <Diameter>
12

>  <Radius>
6

>  <TMWC10>
141.48

>  <TSRW10>
81.37

>  <MW>
429.13

>  <AMW>
8.25

>  <WPath>
1963

>  <WPol>
53

>  <Zagreb1>
164

>  <Zagreb2>
203

>  <mZagreb2>
6.28

>  <yes>


>  <nAR-cont>
1

>  <nHA-cont>
0.785905698

>  <MWHBN>
0.434458273

>  <MWHBN-cont>
0.342912846

>  <TPSA-cont>
0.209235257

>  <pka_cont>
0.97

>  <yes.1>


>  <BBB_SCORE>
3.203745483

>  <MMFF94 Energy>
195.85

$$$$
Compound 97
Actelion Java MolfileCreator 2.0

  0  0  0  0  0  0              0 V3000
M  V30 BEGIN CTAB
M  V30 COUNTS 59 61 0 0 0
M  V30 BEGIN ATOM
M  V30 1 O 3.473 0.0788 -0.8673 0
M  V30 2 C 2.6941 0.7435 -0.1972 0
M  V30 3 N 2.9103 2.0511 0.1539 0
M  V30 4 C 1.3896 0.2261 0.2818 0
M  V30 5 C 4.0814 2.7772 -0.3026 0
M  V30 6 C 1.0108 -1.0209 -0.0356 0
M  V30 7 C 3.9406 3.3151 -1.7296 0
M  V30 8 C -0.2661 -1.6109 0.3848 0
M  V30 9 N 2.8905 4.3228 -1.8416 0
M  V30 10 C -0.2936 -2.9516 0.7913 0
M  V30 11 C -1.4635 -0.8902 0.3412 0
M  V30 12 C 1.5796 4.0548 -2.2025 0
M  V30 13 C 3.0458 5.6711 -1.5841 0
M  V30 14 C -1.495 -3.5593 1.179 0
M  V30 15 C -2.6688 -1.4892 0.7195 0
M  V30 16 C 0.8786 5.2596 -2.1226 0
M  V30 17 C 0.9454 2.8596 -2.5849 0
M  V30 18 C 1.8068 6.2609 -1.7385 0
M  V30 19 C 4.3406 6.3038 -1.2149 0
M  V30 20 O -1.6059 -4.864 1.5926 0
M  V30 21 C -2.695 -2.8223 1.1377 0
M  V30 22 C -0.4989 5.2741 -2.4192 0
M  V30 23 C -0.4219 2.897 -2.8741 0
M  V30 24 C -0.4035 -5.5972 1.8079 0
M  V30 25 O -3.8274 -3.4898 1.5335 0
M  V30 26 C -1.1376 4.0868 -2.7908 0
M  V30 27 C -0.7708 -6.9582 2.3884 0
M  V30 28 C -5.0853 -2.8365 1.344 0
M  V30 29 O 0.4013 -7.7333 2.6094 0
M  V30 30 C -6.1986 -3.8008 1.7511 0
M  V30 31 O -6.314 -3.8534 3.1723 0
M  V30 32 H 2.194 2.572 0.6445 0
M  V30 33 H 0.7696 0.8796 0.8817 0
M  V30 34 H 4.9466 2.1068 -0.2527 0
M  V30 35 H 4.246 3.5906 0.4113 0
M  V30 36 H 1.6668 -1.6643 -0.6198 0
M  V30 37 H 4.8785 3.7786 -2.0533 0
M  V30 38 H 3.7225 2.5134 -2.4423 0
M  V30 39 H 0.6398 -3.5058 0.8021 0
M  V30 40 H -1.478 0.1432 0.0022 0
M  V30 41 H -3.5685 -0.8848 0.6783 0
M  V30 42 H 1.4915 1.9246 -2.6646 0
M  V30 43 H 1.5907 7.3125 -1.6001 0
M  V30 44 H 4.7499 5.8581 -0.3037 0
M  V30 45 H 5.0705 6.19 -2.0225 0
M  V30 46 H 4.2115 7.3757 -1.0314 0
M  V30 47 H -1.0607 6.202 -2.3659 0
M  V30 48 H -0.9283 1.9829 -3.1753 0
M  V30 49 H 0.2552 -5.0745 2.5126 0
M  V30 50 H 0.1332 -5.7433 0.8627 0
M  V30 51 H -2.199 4.0984 -3.025 0
M  V30 52 H -1.303 -6.8369 3.3381 0
M  V30 53 H -1.4326 -7.4999 1.7041 0
M  V30 54 H -5.2083 -2.5863 0.284 0
M  V30 55 H -5.1338 -1.9352 1.9658 0
M  V30 56 H 0.1096 -8.5795 2.9906 0
M  V30 57 H -7.1595 -3.4569 1.3572 0
M  V30 58 H -5.9928 -4.8117 1.3849 0
M  V30 59 H -6.8732 -4.6198 3.3841 0
M  V30 END ATOM
M  V30 BEGIN BOND
M  V30 1 2 1 2
M  V30 2 1 2 3
M  V30 3 1 2 4
M  V30 4 1 3 5
M  V30 5 2 4 6
M  V30 6 1 5 7
M  V30 7 1 6 8
M  V30 8 1 7 9
M  V30 9 2 8 10
M  V30 10 1 8 11
M  V30 11 1 9 12
M  V30 12 1 9 13
M  V30 13 1 10 14
M  V30 14 2 11 15
M  V30 15 2 12 16
M  V30 16 1 12 17
M  V30 17 2 13 18
M  V30 18 1 13 19
M  V30 19 1 14 20
M  V30 20 2 14 21
M  V30 21 1 16 22
M  V30 22 2 17 23
M  V30 23 1 20 24
M  V30 24 1 21 25
M  V30 25 2 22 26
M  V30 26 1 24 27
M  V30 27 1 25 28
M  V30 28 1 27 29
M  V30 29 1 28 30
M  V30 30 1 30 31
M  V30 31 1 15 21
M  V30 32 1 16 18
M  V30 33 1 23 26
M  V30 34 1 3 32
M  V30 35 1 4 33
M  V30 36 1 5 34
M  V30 37 1 5 35
M  V30 38 1 6 36
M  V30 39 1 7 37
M  V30 40 1 7 38
M  V30 41 1 10 39
M  V30 42 1 11 40
M  V30 43 1 15 41
M  V30 44 1 17 42
M  V30 45 1 18 43
M  V30 46 1 19 44
M  V30 47 1 19 45
M  V30 48 1 19 46
M  V30 49 1 22 47
M  V30 50 1 23 48
M  V30 51 1 24 49
M  V30 52 1 24 50
M  V30 53 1 26 51
M  V30 54 1 27 52
M  V30 55 1 27 53
M  V30 56 1 28 54
M  V30 57 1 28 55
M  V30 58 1 29 56
M  V30 59 1 30 57
M  V30 60 1 30 58
M  V30 61 1 31 59
M  V30 END BOND
M  V30 END CTAB
M  END
>  <Column 1>
124

>  <level_0>
141

>  <index>
141

>  <Unnamed: 0>
141

>  <NO.>
142

>  <Name>
chembl3264225

>  <IUPAC_name>
(e)-3-[3-4-bis(2-hydroxyethoxy)phenyl]-n-[2-(2-methylindol-1-yl)ethyl]prop-2-enamide

>  <SMILES>
Cc1cc2ccccc2n1CCNC(=O)/C=C/c1ccc(OCCO)c(OCCO)c1

>  <CID>
86765134

>  <logBB>
-1

>  <BBB+/BBB->
BBB+

>  <Inchi>
InChI=1S/C24H28N2O5/c1-18-16-20-4-2-3-5-21(20)26(18)11-10-25-24(29)9-7-19-6-8-22(30-14-12-27)23(17-19)31-15-13-28/h2-9-16-17-27-28H-10-15H2-1H3-(H-25-29)/b9-7+

>  <threshold>


>  <reference>
R47|

>  <group>
A

>  <Class>
1

>  <ABC>
23.39

>  <ABCGG>
17.89

>  <nAcid>
0

>  <nBase>
0

>  <nAromAtom>
15

>  <nAromBond>
16

>  <nAtom>
59

>  <nHeavyAtom>
31

>  <nSpiro>
0

>  <nBridgehead>
0

>  <nHetero>
7

>  <nN>
2

>  <nO>
5

>  <nF>
0

>  <BalabanJ>
1.34

>  <BertzCT>
1041.63

>  <nBonds>
61

>  <nBondsO>
33

>  <nBondsS>
43

>  <nBondsD>
2

>  <nBondsT>
0

>  <nBondsA>
16

>  <nBondsM>
18

>  <nBondsKS>
52

>  <nBondsKD>
9

>  <RNCG>
0.16

>  <RPCG>
0.08

>  <FCSP3>
0.29

>  <SZ>
37.67

>  <Sm>
35.34

>  <Sv>
36.68

>  <Sse>
59.41

>  <Sp>
38.9

>  <Si>
66.44

>  <MZ>
0.64

>  <Mm>
0.6

>  <Mv>
0.62

>  <Mse>
1.01

>  <Mp>
0.66

>  <Mi>
1.13

>  <NsCH3>
1

>  <NdCH2>
0

>  <NssCH2>
6

>  <NtCH>
0

>  <NdsCH>
2

>  <NaaCH>
8

>  <NsssCH>
0

>  <NddC>
0

>  <NtsC>
0

>  <NdssC>
1

>  <NaasC>
4

>  <NaaaC>
2

>  <NssssC>
0

>  <NsNH3>
0

>  <NsNH2>
0

>  <NssNH2>
0

>  <NdNH>
0

>  <NssNH>
1

>  <NaaNH>
0

>  <NtN>
0

>  <NsssNH>
0

>  <NdsN>
0

>  <NaaN>
0

>  <NsssN>
0

>  <NddsN>
0

>  <NaasN>
1

>  <NssssN>
0

>  <NsOH>
2

>  <NdO>
1

>  <NssO>
2

>  <NaaO>
0

>  <NsF>
0

>  <NsSiH3>
0

>  <NssSiH2>
0

>  <NsssSiH>
0

>  <NssssSi>
0

>  <NsPH2>
0

>  <NssPH>
0

>  <NsssP>
0

>  <NdsssP>
0

>  <NsssssP>
0

>  <NsSH>
0

>  <NdS>
0

>  <NssS>
0

>  <NaaS>
0

>  <NdssS>
0

>  <NddssS>
0

>  <NsCl>
0

>  <NsBr>
0

>  <NsI>
0

>  <fragCpx>
159.07

>  <fMF>
0.36

>  <nHBAcc>
6

>  <nHBDon>
3

>  <Kier1>
25.62

>  <Kier2>
13.65

>  <Lipinski>
1

>  <GhoseFilter>
1

>  <FilterItLogS>
-4.9

>  <VMcGowan>
327.05

>  <LabuteASA>
181.08

>  <PEOE_VSA1>
29.57

>  <PEOE_VSA2>
4.79

>  <PEOE_VSA3>
0

>  <PEOE_VSA4>
0

>  <PEOE_VSA5>
0

>  <PEOE_VSA6>
24.27

>  <PEOE_VSA7>
48.21

>  <PEOE_VSA8>
30.38

>  <PEOE_VSA9>
13.21

>  <PEOE_VSA10>
13.21

>  <PEOE_VSA11>
11.5

>  <PEOE_VSA12>
5.91

>  <PEOE_VSA13>
0

>  <SMR_VSA1>
24.48

>  <SMR_VSA2>
0

>  <SMR_VSA3>
9.88

>  <SMR_VSA4>
0

>  <SMR_VSA5>
13.47

>  <SMR_VSA6>
32.97

>  <SMR_VSA7>
65.86

>  <SMR_VSA8>
0

>  <SMR_VSA9>
11.5

>  <SlogP_VSA1>
14.79

>  <SlogP_VSA2>
53.66

>  <SlogP_VSA3>
11.34

>  <SlogP_VSA4>
6.92

>  <SlogP_VSA5>
11.26

>  <SlogP_VSA6>
54.61

>  <SlogP_VSA7>
0

>  <SlogP_VSA8>
16.98

>  <SlogP_VSA9>
0

>  <SlogP_VSA10>
0

>  <SlogP_VSA11>
11.5

>  <EState_VSA1>
0

>  <EState_VSA2>
32.33

>  <EState_VSA3>
24.59

>  <EState_VSA4>
16.77

>  <EState_VSA5>
11.46

>  <EState_VSA6>
24.28

>  <EState_VSA7>
12.13

>  <EState_VSA8>
35.01

>  <EState_VSA9>
19.69

>  <EState_VSA10>
4.79

>  <VSA_EState1>
13.11

>  <VSA_EState2>
12.23

>  <VSA_EState3>
22.02

>  <VSA_EState4>
3.07

>  <VSA_EState5>
0.73

>  <VSA_EState6>
15.55

>  <VSA_EState7>
3.16

>  <VSA_EState8>
3.29

>  <VSA_EState9>
0

>  <apol>
64.96

>  <bpol>
34.71

>  <nRing>
3

>  <nHRing>
1

>  <naRing>
3

>  <naHRing>
1

>  <nARing 2>
0

>  <nAHRing 2>
0

>  <nFRing>
1

>  <nFHRing>
1

>  <nFaRing>
1

>  <nFaHRing>
1

>  <nFARing 2>
0

>  <nFAHRing 2>
0

>  <nRot>
11

>  <SLogP>
2.52

>  <SMR>
120.32

>  <TopoPSA(NO)>
92.95

>  <TopoPSA>
92.95

>  <JGI1>
0.15

>  <JGI2>
0.07

>  <JGI3>
0.05

>  <JGI4>
0.03

>  <JGI5>
0.02

>  <Diameter>
18

>  <Radius>
9

>  <TMWC10>
139.92

>  <TSRW10>
80.5

>  <MW>
424.2

>  <AMW>
7.19

>  <WPath>
3336

>  <WPol>
44

>  <Zagreb1>
152

>  <Zagreb2>
174

>  <mZagreb2>
7.19

>  <yes>


>  <nAR-cont>
0.336376

>  <nHA-cont>
0.702745138

>  <MWHBN>
0.43697559

>  <MWHBN-cont>
0.333507143

>  <TPSA-cont>
0.351151282

>  <pka_cont>
0.97

>  <yes.1>


>  <BBB_SCORE>
2.726684415

>  <MMFF94 Energy>
63.931

$$$$
Compound 98
Actelion Java MolfileCreator 2.0

  0  0  0  0  0  0              0 V3000
M  V30 BEGIN CTAB
M  V30 COUNTS 40 42 0 0 0
M  V30 BEGIN ATOM
M  V30 1 S 3.2017 -3.3661 -2.0515 0
M  V30 2 O 4.5881 -3.106 -1.7426 0
M  V30 3 O 2.6676 -3.2304 -3.3865 0
M  V30 4 N 2.9134 -4.9553 -1.5975 0
M  V30 5 C 2.177 -2.4704 -0.9207 0
M  V30 6 C 2.693 -2.089 0.322 0
M  V30 7 C 0.8759 -2.1187 -1.2955 0
M  V30 8 C 1.8944 -1.3599 1.2047 0
M  V30 9 C 0.0757 -1.3896 -0.4131 0
M  V30 10 C 0.5918 -0.9999 0.8303 0
M  V30 11 N -0.2065 -0.2632 1.7425 0
M  V30 12 N -0.2114 -0.6328 3.0492 0
M  V30 13 C -1.0761 0.7938 1.4904 0
M  V30 14 C -1.1586 0.1228 3.6302 0
M  V30 15 C -1.1983 1.5492 0.2373 0
M  V30 16 C -1.7245 1.0185 2.693 0
M  V30 17 C -1.5118 0.007 5.0887 0
M  V30 18 C -0.0674 1.9662 -0.4772 0
M  V30 19 C -2.4539 2.0077 -0.1838 0
M  V30 20 F -1.9716 -1.2294 5.4161 0
M  V30 21 F -0.4558 0.2702 5.9031 0
M  V30 22 F -2.4936 0.8847 5.4395 0
M  V30 23 C -0.1946 2.7541 -1.6258 0
M  V30 24 C -2.5836 2.7958 -1.3318 0
M  V30 25 C -1.4535 3.1799 -2.0588 0
M  V30 26 C -1.5925 3.9966 -3.3092 0
M  V30 27 H 3.7746 -5.3812 -1.2543 0
M  V30 28 H 2.4795 -5.4643 -2.3678 0
M  V30 29 H 3.7071 -2.3575 0.6099 0
M  V30 30 H 0.4786 -2.411 -2.2653 0
M  V30 31 H 2.2926 -1.0739 2.177 0
M  V30 32 H -0.9422 -1.1429 -0.7068 0
M  V30 33 H -2.4771 1.7719 2.8884 0
M  V30 34 H 0.9332 1.6926 -0.1505 0
M  V30 35 H -3.3535 1.7366 0.3645 0
M  V30 36 H 0.7008 3.0427 -2.1724 0
M  V30 37 H -3.5747 3.1123 -1.6498 0
M  V30 38 H -0.7137 4.6322 -3.4605 0
M  V30 39 H -1.7063 3.3376 -4.1753 0
M  V30 40 H -2.464 4.6571 -3.2499 0
M  V30 END ATOM
M  V30 BEGIN BOND
M  V30 1 2 1 2
M  V30 2 2 1 3
M  V30 3 1 1 4
M  V30 4 1 1 5
M  V30 5 2 5 6
M  V30 6 1 5 7
M  V30 7 1 6 8
M  V30 8 2 7 9
M  V30 9 2 8 10
M  V30 10 1 10 11
M  V30 11 1 11 12
M  V30 12 1 11 13
M  V30 13 2 12 14
M  V30 14 1 13 15
M  V30 15 2 13 16
M  V30 16 1 14 17
M  V30 17 2 15 18
M  V30 18 1 15 19
M  V30 19 1 17 20
M  V30 20 1 17 21
M  V30 21 1 17 22
M  V30 22 1 18 23
M  V30 23 2 19 24
M  V30 24 2 23 25
M  V30 25 1 25 26
M  V30 26 1 9 10
M  V30 27 1 14 16
M  V30 28 1 24 25
M  V30 29 1 4 27
M  V30 30 1 4 28
M  V30 31 1 6 29
M  V30 32 1 7 30
M  V30 33 1 8 31
M  V30 34 1 9 32
M  V30 35 1 16 33
M  V30 36 1 18 34
M  V30 37 1 19 35
M  V30 38 1 23 36
M  V30 39 1 24 37
M  V30 40 1 26 38
M  V30 41 1 26 39
M  V30 42 1 26 40
M  V30 END BOND
M  V30 END CTAB
M  END
>  <Column 1>
125

>  <level_0>
142

>  <index>
142

>  <Unnamed: 0>
142

>  <NO.>
143

>  <Name>
celecoxib;celebrex

>  <IUPAC_name>
4-[5-(4-methylphenyl)-3-(trifluoromethyl)pyrazol-1-yl]benzenesulfonamide

>  <SMILES>
Cc1ccc(-c2cc(C(F)(F)F)nn2-c2ccc(S(N)(=O)=O)cc2)cc1

>  <CID>
2662

>  <logBB>
-1

>  <BBB+/BBB->
BBB+

>  <Inchi>
InChI=1S/C17H14F3N3O2S/c1-11-2-4-12(5-3-11)15-10-16(17(18-19)20)22-23(15)13-6-8-14(9-7-13)26(21-24)25/h2-10H-1H3-(H2-21-24-25)

>  <threshold>


>  <reference>
R18|R26|R27|

>  <group>
A

>  <Class>
1

>  <ABC>
20.62

>  <ABCGG>
16.68

>  <nAcid>
0

>  <nBase>
0

>  <nAromAtom>
17

>  <nAromBond>
17

>  <nAtom>
40

>  <nHeavyAtom>
26

>  <nSpiro>
0

>  <nBridgehead>
0

>  <nHetero>
9

>  <nN>
3

>  <nO>
2

>  <nF>
3

>  <BalabanJ>
1.68

>  <BertzCT>
1038.35

>  <nBonds>
42

>  <nBondsO>
28

>  <nBondsS>
23

>  <nBondsD>
2

>  <nBondsT>
0

>  <nBondsA>
17

>  <nBondsM>
19

>  <nBondsKS>
32

>  <nBondsKD>
10

>  <RNCG>
0.12

>  <RPCG>
0.22

>  <FCSP3>
0.12

>  <SZ>
32.67

>  <Sm>
31.75

>  <Sv>
27.62

>  <Sse>
41.81

>  <Sp>
28.26

>  <Si>
45.76

>  <MZ>
0.82

>  <Mm>
0.79

>  <Mv>
0.69

>  <Mse>
1.05

>  <Mp>
0.71

>  <Mi>
1.14

>  <NsCH3>
1

>  <NdCH2>
0

>  <NssCH2>
0

>  <NtCH>
0

>  <NdsCH>
0

>  <NaaCH>
9

>  <NsssCH>
0

>  <NddC>
0

>  <NtsC>
0

>  <NdssC>
0

>  <NaasC>
6

>  <NaaaC>
0

>  <NssssC>
1

>  <NsNH3>
0

>  <NsNH2>
1

>  <NssNH2>
0

>  <NdNH>
0

>  <NssNH>
0

>  <NaaNH>
0

>  <NtN>
0

>  <NsssNH>
0

>  <NdsN>
0

>  <NaaN>
1

>  <NsssN>
0

>  <NddsN>
0

>  <NaasN>
1

>  <NssssN>
0

>  <NsOH>
0

>  <NdO>
2

>  <NssO>
0

>  <NaaO>
0

>  <NsF>
3

>  <NsSiH3>
0

>  <NssSiH2>
0

>  <NsssSiH>
0

>  <NssssSi>
0

>  <NsPH2>
0

>  <NssPH>
0

>  <NsssP>
0

>  <NdsssP>
0

>  <NsssssP>
0

>  <NsSH>
0

>  <NdS>
0

>  <NssS>
0

>  <NaaS>
0

>  <NdssS>
0

>  <NddssS>
1

>  <NsCl>
0

>  <NsBr>
0

>  <NsI>
0

>  <fragCpx>
134.09

>  <fMF>
0.43

>  <nHBAcc>
4

>  <nHBDon>
1

>  <Kier1>
20.73

>  <Kier2>
7.79

>  <Lipinski>
1

>  <GhoseFilter>
1

>  <FilterItLogS>
-4.86

>  <VMcGowan>
246.72

>  <LabuteASA>
147.48

>  <PEOE_VSA1>
0

>  <PEOE_VSA2>
0

>  <PEOE_VSA3>
18.24

>  <PEOE_VSA4>
18.27

>  <PEOE_VSA5>
0

>  <PEOE_VSA6>
29.83

>  <PEOE_VSA7>
37.26

>  <PEOE_VSA8>
5.56

>  <PEOE_VSA9>
16.28

>  <PEOE_VSA10>
0

>  <PEOE_VSA11>
5.69

>  <PEOE_VSA12>
10.02

>  <PEOE_VSA13>
0

>  <SMR_VSA1>
21.59

>  <SMR_VSA2>
0

>  <SMR_VSA3>
9.78

>  <SMR_VSA4>
5.14

>  <SMR_VSA5>
18

>  <SMR_VSA6>
0

>  <SMR_VSA7>
65.85

>  <SMR_VSA8>
0

>  <SMR_VSA9>
16.94

>  <SlogP_VSA1>
5.14

>  <SlogP_VSA2>
18.2

>  <SlogP_VSA3>
16.2

>  <SlogP_VSA4>
6.92

>  <SlogP_VSA5>
11.26

>  <SlogP_VSA6>
59.49

>  <SlogP_VSA7>
0

>  <SlogP_VSA8>
16.94

>  <SlogP_VSA9>
0

>  <SlogP_VSA10>
13.17

>  <SlogP_VSA11>
0

>  <EState_VSA1>
21.89

>  <EState_VSA2>
16.28

>  <EState_VSA3>
5.56

>  <EState_VSA4>
16.31

>  <EState_VSA5>
24.27

>  <EState_VSA6>
24.27

>  <EState_VSA7>
6.92

>  <EState_VSA8>
5.1

>  <EState_VSA9>
5.14

>  <EState_VSA10>
21.59

>  <VSA_EState1>
63.19

>  <VSA_EState2>
-0.14

>  <VSA_EState3>
8.7

>  <VSA_EState4>
1

>  <VSA_EState5>
0

>  <VSA_EState6>
13.06

>  <VSA_EState7>
-4.61

>  <VSA_EState8>
1.87

>  <VSA_EState9>
-3.9

>  <apol>
47.2

>  <bpol>
25.18

>  <nRing>
3

>  <nHRing>
1

>  <naRing>
3

>  <naHRing>
1

>  <nARing 2>
0

>  <nAHRing 2>
0

>  <nFRing>
0

>  <nFHRing>
0

>  <nFaRing>
0

>  <nFaHRing>
0

>  <nFARing 2>
0

>  <nFAHRing 2>
0

>  <nRot>
3

>  <SLogP>
3.51

>  <SMR>
90.11

>  <TopoPSA(NO)>
77.98

>  <TopoPSA>
86.36

>  <JGI1>
0.3

>  <JGI2>
0.1

>  <JGI3>
0.04

>  <JGI4>
0.05

>  <JGI5>
0.04

>  <Diameter>
12

>  <Radius>
6

>  <TMWC10>
130.6

>  <TSRW10>
75.38

>  <MW>
381.08

>  <AMW>
9.53

>  <WPath>
1654

>  <WPol>
41

>  <Zagreb1>
142

>  <Zagreb2>
166

>  <mZagreb2>
5.33

>  <yes>


>  <nAR-cont>
0.336376

>  <nHA-cont>
0.892715677

>  <MWHBN>
0.256130871

>  <MWHBN-cont>
0.948882368

>  <TPSA-cont>
0.397153574

>  <pka_cont>
0.97

>  <yes.1>


>  <BBB_SCORE>
3.931722376

>  <MMFF94 Energy>
62.328

$$$$
Compound 99
Actelion Java MolfileCreator 2.0

  0  0  0  0  0  0              0 V3000
M  V30 BEGIN CTAB
M  V30 COUNTS 35 38 0 0 0
M  V30 BEGIN ATOM
M  V30 1 Cl -3.4125 2.9244 1.5426 0
M  V30 2 C -1.8321 2.4043 1.9824 0
M  V30 3 C -1.1655 1.4708 1.1869 0
M  V30 4 C -1.228 2.9226 3.1245 0
M  V30 5 C 0.1267 1.0342 1.5302 0
M  V30 6 C 0.0552 2.5078 3.4744 0
M  V30 7 C 0.7283 1.5741 2.6831 0
M  V30 8 C 0.9051 0.0307 0.6804 0 CFG=1
M  V30 9 N 1.8692 0.6924 -0.2144 0
M  V30 10 C 0.0466 -1.0154 -0.0402 0
M  V30 11 C 3.0699 0.1492 -0.5933 0
M  V30 12 C 1.7737 1.9185 -0.8205 0
M  V30 13 C -0.2585 -0.9269 -1.4155 0
M  V30 14 C -0.4785 -2.0831 0.7187 0
M  V30 15 N 3.7345 0.9528 -1.392 0
M  V30 16 C 2.9392 2.0581 -1.5368 0
M  V30 17 C -1.0626 -1.9314 -1.9632 0
M  V30 18 C -1.2868 -3.0731 0.1415 0
M  V30 19 N -1.5284 -2.1508 -3.2353 0
M  V30 20 C -1.5774 -2.9898 -1.225 0
M  V30 21 C -2.2813 -3.291 -3.2171 0
M  V30 22 N -2.3312 -3.8205 -2.0164 0
M  V30 23 H -1.6632 1.0893 0.2979 0
M  V30 24 H -1.7481 3.6506 3.7417 0
M  V30 25 H 0.5343 2.9154 4.3618 0
M  V30 26 H 1.7355 1.2751 2.9715 0
M  V30 27 H 1.5432 -0.5387 1.3747 0
M  V30 28 H 3.4031 -0.8274 -0.2654 0
M  V30 29 H 0.9234 2.5749 -0.6982 0
M  V30 30 H 0.1106 -0.1196 -2.0405 0
M  V30 31 H -0.2659 -2.1544 1.7851 0
M  V30 32 H 3.2465 2.8961 -2.1493 0
M  V30 33 H -1.686 -3.8903 0.7324 0
M  V30 34 H -1.3439 -1.5749 -4.0438 0
M  V30 35 H -2.7637 -3.6827 -4.1029 0
M  V30 END ATOM
M  V30 BEGIN BOND
M  V30 1 1 1 2
M  V30 2 2 2 3
M  V30 3 1 2 4
M  V30 4 1 3 5
M  V30 5 2 4 6
M  V30 6 2 5 7
M  V30 7 1 5 8
M  V30 8 1 8 9
M  V30 9 1 8 10
M  V30 10 1 9 11
M  V30 11 1 9 12
M  V30 12 2 10 13
M  V30 13 1 10 14
M  V30 14 2 11 15
M  V30 15 2 12 16
M  V30 16 1 13 17
M  V30 17 2 14 18
M  V30 18 1 17 19
M  V30 19 2 17 20
M  V30 20 1 19 21
M  V30 21 1 20 22
M  V30 22 1 6 7
M  V30 23 1 15 16
M  V30 24 1 18 20
M  V30 25 2 21 22
M  V30 26 1 3 23
M  V30 27 1 4 24
M  V30 28 1 6 25
M  V30 29 1 7 26
M  V30 30 1 8 27
M  V30 31 1 11 28
M  V30 32 1 12 29
M  V30 33 1 13 30
M  V30 34 1 14 31
M  V30 35 1 16 32
M  V30 36 1 18 33
M  V30 37 1 19 34
M  V30 38 1 21 35
M  V30 END BOND
M  V30 BEGIN COLLECTION
M  V30 MDLV30/STERAC1 ATOMS=(1 8)
M  V30 END COLLECTION
M  V30 END CTAB
M  END
>  <Column 1>
126

>  <level_0>
143

>  <index>
143

>  <Unnamed: 0>
143

>  <NO.>
144

>  <Name>
liarozole

>  <IUPAC_name>
6-[(3-chlorophenyl)-imidazol-1-ylmethyl]-1h-benzimidazole

>  <SMILES>
Clc1cccc(C(c2ccc3nc[nH]c3c2)n2ccnc2)c1

>  <CID>
60652

>  <logBB>
-1

>  <BBB+/BBB->
BBB+

>  <Inchi>
InChI=1S/C17H13ClN4/c18-14-3-1-2-12(8-14)17(22-7-6-19-11-22)13-4-5-15-16(9-13)21-10-20-15/h1-11-17H-(H-20-21)

>  <threshold>


>  <reference>
R2|R2|R25|R46|

>  <group>
A

>  <Class>
1

>  <ABC>
17.63

>  <ABCGG>
14.85

>  <nAcid>
0

>  <nBase>
0

>  <nAromAtom>
20

>  <nAromBond>
21

>  <nAtom>
35

>  <nHeavyAtom>
22

>  <nSpiro>
0

>  <nBridgehead>
0

>  <nHetero>
5

>  <nN>
4

>  <nO>
0

>  <nF>
0

>  <BalabanJ>
1.49

>  <BertzCT>
911.23

>  <nBonds>
38

>  <nBondsO>
25

>  <nBondsS>
17

>  <nBondsD>
0

>  <nBondsT>
0

>  <nBondsA>
21

>  <nBondsM>
21

>  <nBondsKS>
29

>  <nBondsKD>
9

>  <RNCG>
0.22

>  <RPCG>
0.11

>  <FCSP3>
0.06

>  <SZ>
26.67

>  <Sm>
25.71

>  <Sv>
24.64

>  <Sse>
35.19

>  <Sp>
26.13

>  <Si>
39.01

>  <MZ>
0.76

>  <Mm>
0.73

>  <Mv>
0.7

>  <Mse>
1.01

>  <Mp>
0.75

>  <Mi>
1.11

>  <NsCH3>
0

>  <NdCH2>
0

>  <NssCH2>
0

>  <NtCH>
0

>  <NdsCH>
0

>  <NaaCH>
11

>  <NsssCH>
1

>  <NddC>
0

>  <NtsC>
0

>  <NdssC>
0

>  <NaasC>
3

>  <NaaaC>
2

>  <NssssC>
0

>  <NsNH3>
0

>  <NsNH2>
0

>  <NssNH2>
0

>  <NdNH>
0

>  <NssNH>
0

>  <NaaNH>
1

>  <NtN>
0

>  <NsssNH>
0

>  <NdsN>
0

>  <NaaN>
2

>  <NsssN>
0

>  <NddsN>
0

>  <NaasN>
1

>  <NssssN>
0

>  <NsOH>
0

>  <NdO>
0

>  <NssO>
0

>  <NaaO>
0

>  <NsF>
0

>  <NsSiH3>
0

>  <NssSiH2>
0

>  <NsssSiH>
0

>  <NssssSi>
0

>  <NsPH2>
0

>  <NssPH>
0

>  <NsssP>
0

>  <NdsssP>
0

>  <NsssssP>
0

>  <NsSH>
0

>  <NdS>
0

>  <NssS>
0

>  <NaaS>
0

>  <NdssS>
0

>  <NddssS>
0

>  <NsCl>
1

>  <NsBr>
0

>  <NsI>
0

>  <fragCpx>
163.05

>  <fMF>
0.6

>  <nHBAcc>
3

>  <nHBDon>
1

>  <Kier1>
15.52

>  <Kier2>
6.86

>  <Lipinski>
1

>  <GhoseFilter>
1

>  <FilterItLogS>
-4.94

>  <VMcGowan>
220.41

>  <LabuteASA>
131.96

>  <PEOE_VSA1>
9.55

>  <PEOE_VSA2>
0

>  <PEOE_VSA3>
9.97

>  <PEOE_VSA4>
0

>  <PEOE_VSA5>
0

>  <PEOE_VSA6>
29.8

>  <PEOE_VSA7>
35.39

>  <PEOE_VSA8>
17.42

>  <PEOE_VSA9>
29.73

>  <PEOE_VSA10>
0

>  <PEOE_VSA11>
0

>  <PEOE_VSA12>
0

>  <PEOE_VSA13>
0

>  <SMR_VSA1>
0

>  <SMR_VSA2>
0

>  <SMR_VSA3>
19.52

>  <SMR_VSA4>
0

>  <SMR_VSA5>
6.04

>  <SMR_VSA6>
0

>  <SMR_VSA7>
83.66

>  <SMR_VSA8>
0

>  <SMR_VSA9>
0

>  <SlogP_VSA1>
0

>  <SlogP_VSA2>
19.52

>  <SlogP_VSA3>
0

>  <SlogP_VSA4>
0

>  <SlogP_VSA5>
17.17

>  <SlogP_VSA6>
67.51

>  <SlogP_VSA7>
5.02

>  <SlogP_VSA8>
11.03

>  <SlogP_VSA9>
0

>  <SlogP_VSA10>
0

>  <SlogP_VSA11>
0

>  <EState_VSA1>
0

>  <EState_VSA2>
6.04

>  <EState_VSA3>
0

>  <EState_VSA4>
27.18

>  <EState_VSA5>
0

>  <EState_VSA6>
12.52

>  <EState_VSA7>
36.79

>  <EState_VSA8>
37.72

>  <EState_VSA9>
11.6

>  <EState_VSA10>
0

>  <VSA_EState1>
2.07

>  <VSA_EState2>
11.61

>  <VSA_EState3>
0.73

>  <VSA_EState4>
4.24

>  <VSA_EState5>
0

>  <VSA_EState6>
14.17

>  <VSA_EState7>
7.28

>  <VSA_EState8>
0

>  <VSA_EState9>
0

>  <apol>
43.64

>  <bpol>
18.11

>  <nRing>
4

>  <nHRing>
2

>  <naRing>
4

>  <naHRing>
2

>  <nARing 2>
0

>  <nAHRing 2>
0

>  <nFRing>
1

>  <nFHRing>
1

>  <nFaRing>
1

>  <nFaHRing>
1

>  <nFARing 2>
0

>  <nFAHRing 2>
0

>  <nRot>
3

>  <SLogP>
4.05

>  <SMR>
87.01

>  <TopoPSA(NO)>
46.5

>  <TopoPSA>
46.5

>  <JGI1>
0.14

>  <JGI2>
0.06

>  <JGI3>
0.05

>  <JGI4>
0.02

>  <JGI5>
0.02

>  <Diameter>
9

>  <Radius>
5

>  <TMWC10>
121.96

>  <TSRW10>
71.74

>  <MW>
308.08

>  <AMW>
8.8

>  <WPath>
985

>  <WPol>
32

>  <Zagreb1>
120

>  <Zagreb2>
143

>  <mZagreb2>
4.78

>  <yes>


>  <nAR-cont>
0.336376

>  <nHA-cont>
0.983774276

>  <MWHBN>
0.227891559

>  <MWHBN-cont>
0.988805686

>  <TPSA-cont>
0.675401125

>  <pka_cont>
0.97

>  <yes.1>


>  <BBB_SCORE>
4.639161056

>  <MMFF94 Energy>
66.183

$$$$
Compound 100
Actelion Java MolfileCreator 2.0

  0  0  0  0  0  0              0 V3000
M  V30 BEGIN CTAB
M  V30 COUNTS 43 44 0 0 0
M  V30 BEGIN ATOM
M  V30 1 F 2.4894 4.098 3.6957 0
M  V30 2 C 2.5594 2.7634 3.9556 0
M  V30 3 F 1.3988 2.4447 4.5927 0
M  V30 4 F 3.5466 2.6126 4.8815 0
M  V30 5 C 2.7788 1.9503 2.7029 0
M  V30 6 C 1.7133 1.7326 1.8096 0
M  V30 7 C 4.0428 1.4252 2.397 0
M  V30 8 C 1.905 0.9961 0.6316 0
M  V30 9 C 4.2368 0.6833 1.2324 0
M  V30 10 C 0.787 0.7449 -0.3375 0
M  V30 11 C 3.1725 0.467 0.3561 0
M  V30 12 N 0.9 -0.2532 -1.1677 0
M  V30 13 C -0.386 1.6482 -0.303 0
M  V30 14 O -0.1926 -0.341 -2.0437 0
M  V30 15 C -1.6213 1.1715 0.1117 0
M  V30 16 C -0.2672 2.9903 -0.6616 0
M  V30 17 C -0.0162 -1.4694 -2.9008 0
M  V30 18 N -2.7261 1.9501 0.2077 0
M  V30 19 C -1.392 3.807 -0.5837 0
M  V30 20 C -0.4182 -2.7649 -2.198 0
M  V30 21 C -2.5854 3.2478 -0.1471 0
M  V30 22 C -1.882 -2.7503 -1.7523 0
M  V30 23 C -2.264 -4.0514 -1.0573 0
M  V30 24 C -3.7003 -4.0153 -0.6227 0
M  V30 25 O -4.645 -4.5116 -1.2128 0
M  V30 26 O -3.8802 -3.334 0.5241 0
M  V30 27 H 0.734 2.1365 2.0624 0
M  V30 28 H 4.8838 1.5871 3.0706 0
M  V30 29 H 5.2175 0.2713 1.0047 0
M  V30 30 H 3.3416 -0.1143 -0.5484 0
M  V30 31 H -1.7599 0.1314 0.3921 0
M  V30 32 H 0.6807 3.3934 -1.0051 0
M  V30 33 H 1.0227 -1.5202 -3.2481 0
M  V30 34 H -0.6458 -1.3109 -3.7828 0
M  V30 35 H -1.3428 4.8549 -0.8594 0
M  V30 36 H -0.2459 -3.6079 -2.8771 0
M  V30 37 H 0.218 -2.9168 -1.3178 0
M  V30 38 H -3.4886 3.8476 -0.0707 0
M  V30 39 H -2.5326 -2.5917 -2.6215 0
M  V30 40 H -2.0601 -1.9085 -1.073 0
M  V30 41 H -2.1332 -4.9072 -1.7294 0
M  V30 42 H -1.6338 -4.2397 -0.1805 0
M  V30 43 H -4.8489 -3.362 0.6716 0
M  V30 END ATOM
M  V30 BEGIN BOND
M  V30 1 1 1 2
M  V30 2 1 2 3
M  V30 3 1 2 4
M  V30 4 1 2 5
M  V30 5 2 5 6
M  V30 6 1 5 7
M  V30 7 1 6 8
M  V30 8 2 7 9
M  V30 9 1 8 10
M  V30 10 2 8 11
M  V30 11 2 10 12
M  V30 12 1 10 13
M  V30 13 1 12 14
M  V30 14 2 13 15
M  V30 15 1 13 16
M  V30 16 1 14 17
M  V30 17 1 15 18
M  V30 18 2 16 19
M  V30 19 1 17 20
M  V30 20 2 18 21
M  V30 21 1 20 22
M  V30 22 1 22 23
M  V30 23 1 23 24
M  V30 24 2 24 25
M  V30 25 1 24 26
M  V30 26 1 9 11
M  V30 27 1 19 21
M  V30 28 1 6 27
M  V30 29 1 7 28
M  V30 30 1 9 29
M  V30 31 1 11 30
M  V30 32 1 15 31
M  V30 33 1 16 32
M  V30 34 1 17 33
M  V30 35 1 17 34
M  V30 36 1 19 35
M  V30 37 1 20 36
M  V30 38 1 20 37
M  V30 39 1 21 38
M  V30 40 1 22 39
M  V30 41 1 22 40
M  V30 42 1 23 41
M  V30 43 1 23 42
M  V30 44 1 26 43
M  V30 END BOND
M  V30 END CTAB
M  END
>  <Column 1>
127

>  <level_0>
144

>  <index>
144

>  <Unnamed: 0>
144

>  <NO.>
145

>  <Name>
ridogrel

>  <IUPAC_name>
5-[(z)-[pyridin-3-yl-[3-(trifluoromethyl)phenyl]methylidene]amino]oxypentanoic acid

>  <SMILES>
O=C(O)CCCCO/N=C(\c1cccnc1)c1cccc(C(F)(F)F)c1

>  <CID>
5362391

>  <logBB>
-1

>  <BBB+/BBB->
BBB+

>  <Inchi>
InChI=1S/C18H17F3N2O3/c19-18(20-21)15-7-3-5-13(11-15)17(14-6-4-9-22-12-14)23-26-10-2-1-8-16(24)25/h3-7-9-11-12H-1-2-8-10H2-(H-24-25)/b23-17-

>  <threshold>


>  <reference>
R2|R2|R25|R46|

>  <group>
A

>  <Class>
1

>  <ABC>
19.64

>  <ABCGG>
15.94

>  <nAcid>
1

>  <nBase>
0

>  <nAromAtom>
12

>  <nAromBond>
12

>  <nAtom>
43

>  <nHeavyAtom>
26

>  <nSpiro>
0

>  <nBridgehead>
0

>  <nHetero>
8

>  <nN>
2

>  <nO>
3

>  <nF>
3

>  <BalabanJ>
1.86

>  <BertzCT>
761.78

>  <nBonds>
44

>  <nBondsO>
27

>  <nBondsS>
30

>  <nBondsD>
2

>  <nBondsT>
0

>  <nBondsA>
12

>  <nBondsM>
14

>  <nBondsKS>
36

>  <nBondsKD>
8

>  <RNCG>
0.21

>  <RPCG>
0.18

>  <FCSP3>
0.28

>  <SZ>
31.67

>  <Sm>
30.5

>  <Sv>
28.21

>  <Sse>
44.73

>  <Sp>
28.55

>  <Si>
49.38

>  <MZ>
0.74

>  <Mm>
0.71

>  <Mv>
0.66

>  <Mse>
1.04

>  <Mp>
0.66

>  <Mi>
1.15

>  <NsCH3>
0

>  <NdCH2>
0

>  <NssCH2>
4

>  <NtCH>
0

>  <NdsCH>
0

>  <NaaCH>
8

>  <NsssCH>
0

>  <NddC>
0

>  <NtsC>
0

>  <NdssC>
2

>  <NaasC>
3

>  <NaaaC>
0

>  <NssssC>
1

>  <NsNH3>
0

>  <NsNH2>
0

>  <NssNH2>
0

>  <NdNH>
0

>  <NssNH>
0

>  <NaaNH>
0

>  <NtN>
0

>  <NsssNH>
0

>  <NdsN>
1

>  <NaaN>
1

>  <NsssN>
0

>  <NddsN>
0

>  <NaasN>
0

>  <NssssN>
0

>  <NsOH>
1

>  <NdO>
1

>  <NssO>
1

>  <NaaO>
0

>  <NsF>
3

>  <NsSiH3>
0

>  <NssSiH2>
0

>  <NsssSiH>
0

>  <NssssSi>
0

>  <NsPH2>
0

>  <NssPH>
0

>  <NsssP>
0

>  <NdsssP>
0

>  <NsssssP>
0

>  <NsSH>
0

>  <NdS>
0

>  <NssS>
0

>  <NaaS>
0

>  <NdssS>
0

>  <NddssS>
0

>  <NsCl>
0

>  <NsBr>
0

>  <NsI>
0

>  <fragCpx>
79.08

>  <fMF>
0.3

>  <nHBAcc>
4

>  <nHBDon>
1

>  <Kier1>
22.29

>  <Kier2>
11.11

>  <Lipinski>
1

>  <GhoseFilter>
1

>  <FilterItLogS>
-4.99

>  <VMcGowan>
251.21

>  <LabuteASA>
147.68

>  <PEOE_VSA1>
9.94

>  <PEOE_VSA2>
9.78

>  <PEOE_VSA3>
0

>  <PEOE_VSA4>
13.17

>  <PEOE_VSA5>
0

>  <PEOE_VSA6>
17.29

>  <PEOE_VSA7>
37.11

>  <PEOE_VSA8>
29.94

>  <PEOE_VSA9>
5.56

>  <PEOE_VSA10>
12.32

>  <PEOE_VSA11>
0

>  <PEOE_VSA12>
0

>  <PEOE_VSA13>
0

>  <SMR_VSA1>
27.91

>  <SMR_VSA2>
0

>  <SMR_VSA3>
4.98

>  <SMR_VSA4>
5.16

>  <SMR_VSA5>
25.44

>  <SMR_VSA6>
6.61

>  <SMR_VSA7>
65.48

>  <SMR_VSA8>
0

>  <SMR_VSA9>
0

>  <SlogP_VSA1>
0

>  <SlogP_VSA2>
28.38

>  <SlogP_VSA3>
15.81

>  <SlogP_VSA4>
0

>  <SlogP_VSA5>
35.95

>  <SlogP_VSA6>
53.95

>  <SlogP_VSA7>
0

>  <SlogP_VSA8>
0

>  <SlogP_VSA9>
0

>  <SlogP_VSA10>
13.17

>  <SlogP_VSA11>
0

>  <EState_VSA1>
17.71

>  <EState_VSA2>
24.3

>  <EState_VSA3>
18.41

>  <EState_VSA4>
12.13

>  <EState_VSA5>
18.33

>  <EState_VSA6>
18.33

>  <EState_VSA7>
0

>  <EState_VSA8>
10.14

>  <EState_VSA9>
9.94

>  <EState_VSA10>
17.97

>  <VSA_EState1>
38.88

>  <VSA_EState2>
19.61

>  <VSA_EState3>
12.55

>  <VSA_EState4>
0.2

>  <VSA_EState5>
-0.89

>  <VSA_EState6>
8.1

>  <VSA_EState7>
-0.52

>  <VSA_EState8>
0.16

>  <VSA_EState9>
0

>  <apol>
47.67

>  <bpol>
24.14

>  <nRing>
2

>  <nHRing>
1

>  <naRing>
2

>  <naHRing>
1

>  <nARing 2>
0

>  <nAHRing 2>
0

>  <nFRing>
0

>  <nFHRing>
0

>  <nFaRing>
0

>  <nFaHRing>
0

>  <nFARing 2>
0

>  <nFAHRing 2>
0

>  <nRot>
8

>  <SLogP>
4.12

>  <SMR>
88.76

>  <TopoPSA(NO)>
71.78

>  <TopoPSA>
71.78

>  <JGI1>
0.2

>  <JGI2>
0.07

>  <JGI3>
0.04

>  <JGI4>
0.03

>  <JGI5>
0.02

>  <Diameter>
13

>  <Radius>
7

>  <TMWC10>
126.69

>  <TSRW10>
60.31

>  <MW>
366.12

>  <AMW>
8.51

>  <WPath>
1847

>  <WPol>
35

>  <Zagreb1>
126

>  <Zagreb2>
140

>  <mZagreb2>
5.81

>  <yes>


>  <nAR-cont>
0.336376

>  <nHA-cont>
0.892715677

>  <MWHBN>
0.261311352

>  <MWHBN-cont>
0.938786286

>  <TPSA-cont>
0.498931027

>  <pka_cont>
0.97

>  <yes.1>


>  <BBB_SCORE>
4.120133161

>  <MMFF94 Energy>
78.606

$$$$
Compound 101
Actelion Java MolfileCreator 2.0

  0  0  0  0  0  0              0 V3000
M  V30 BEGIN CTAB
M  V30 COUNTS 74 79 0 0 0
M  V30 BEGIN ATOM
M  V30 1 O -3.9334 -0.3206 -0.8017 0
M  V30 2 C -3.3382 0.6524 -0.3312 0
M  V30 3 N -1.9447 0.7678 -0.2953 0
M  V30 4 C -4.1525 1.8059 0.2864 0
M  V30 5 C -1.1174 -0.2636 -0.818 0
M  V30 6 C -1.2917 1.9963 0.1565 0
M  V30 7 N -3.4243 2.9461 0.8381 0
M  V30 8 C -1.2893 -1.5867 -0.3998 0
M  V30 9 C -0.101 0.031 -1.7305 0
M  V30 10 C -2.0647 2.6696 1.2822 0
M  V30 11 C -4.1448 4.1053 1.0939 0
M  V30 12 C -0.4613 -2.6053 -0.8887 0
M  V30 13 C 0.7254 -0.9875 -2.2138 0
M  V30 14 O -5.355 4.2039 0.9159 0
M  V30 15 C -3.4286 5.2903 1.6041 0
M  V30 16 C 0.5488 -2.3106 -1.8014 0
M  V30 17 C -2.5141 5.9628 0.7849 0
M  V30 18 C -3.7289 5.7676 2.8824 0
M  V30 19 O 1.4296 -3.1953 -2.3543 0
M  V30 20 C -1.8612 7.0997 1.2683 0
M  V30 21 C -3.0732 6.9028 3.3635 0
M  V30 22 C 1.2264 -4.598 -2.1566 0
M  V30 23 C -2.123 7.5575 2.5669 0
M  V30 24 C 1.8137 -5.3184 -3.3696 0
M  V30 25 C 1.9501 -5.0718 -0.8985 0
M  V30 26 C -1.4681 8.7728 3.1115 0
M  V30 27 C 1.7733 -6.8324 -3.1788 0
M  V30 28 C 1.9042 -6.594 -0.7851 0
M  V30 29 O -2.1448 9.5835 3.7379 0
M  V30 30 N -0.1225 8.9174 2.9174 0
M  V30 31 N 2.5147 -7.2385 -1.9662 0
M  V30 32 C 0.7577 9.9707 3.3873 0
M  V30 33 C 0.9449 8.0722 2.4301 0
M  V30 34 C 2.4421 -8.7131 -1.8159 0
M  V30 35 C 1.8923 8.9481 3.2596 0
M  V30 36 C 3.3506 -9.4154 -2.8672 0
M  V30 37 C 3.4659 -9.2053 -0.7512 0
M  V30 38 C 4.5169 -9.3307 -1.8675 0
M  V30 39 H -4.7434 1.3809 1.107 0
M  V30 40 H -4.85 2.1673 -0.4782 0
M  V30 41 H -1.2267 2.6705 -0.7062 0
M  V30 42 H -0.2778 1.7692 0.5062 0
M  V30 43 H -2.0735 -1.8418 0.3092 0
M  V30 44 H 0.0523 1.0429 -2.0927 0
M  V30 45 H -1.5461 3.5719 1.6107 0
M  V30 46 H -2.1397 2.0042 2.1511 0
M  V30 47 H -0.6376 -3.6121 -0.5276 0
M  V30 48 H 1.51 -0.7496 -2.9283 0
M  V30 49 H -2.3317 5.6198 -0.2302 0
M  V30 50 H -4.478 5.269 3.4934 0
M  V30 51 H -1.1819 7.6422 0.6167 0
M  V30 52 H -3.3109 7.2864 4.3544 0
M  V30 53 H 0.158 -4.8461 -2.1171 0
M  V30 54 H 1.2545 -5.0377 -4.2707 0
M  V30 55 H 2.8455 -4.9848 -3.5443 0
M  V30 56 H 1.5024 -4.6217 -0.0054 0
M  V30 57 H 2.9917 -4.7236 -0.9122 0
M  V30 58 H 0.7297 -7.172 -3.1306 0
M  V30 59 H 2.2125 -7.2823 -4.0745 0
M  V30 60 H 2.4417 -6.8653 0.1288 0
M  V30 61 H 0.8647 -6.9239 -0.653 0
M  V30 62 H 0.8051 10.817 2.6964 0
M  V30 63 H 0.5536 10.3135 4.4044 0
M  V30 64 H 1.0858 8.14 1.348 0
M  V30 65 H 0.8871 7.0292 2.7495 0
M  V30 66 H 1.432 -9.1258 -1.7198 0
M  V30 67 H 2.7843 9.3011 2.7348 0
M  V30 68 H 2.1932 8.4977 4.2125 0
M  V30 69 H 3.5355 -8.9317 -3.8288 0
M  V30 70 H 3.0391 -10.4483 -3.0709 0
M  V30 71 H 3.748 -8.5445 0.0714 0
M  V30 72 H 3.1891 -10.1748 -0.3166 0
M  V30 73 H 5.1423 -8.4391 -1.99 0
M  V30 74 H 5.1628 -10.2108 -1.8153 0
M  V30 END ATOM
M  V30 BEGIN BOND
M  V30 1 2 1 2
M  V30 2 1 2 3
M  V30 3 1 2 4
M  V30 4 1 3 5
M  V30 5 1 3 6
M  V30 6 1 4 7
M  V30 7 2 5 8
M  V30 8 1 5 9
M  V30 9 1 6 10
M  V30 10 1 7 11
M  V30 11 1 8 12
M  V30 12 2 9 13
M  V30 13 2 11 14
M  V30 14 1 11 15
M  V30 15 2 12 16
M  V30 16 2 15 17
M  V30 17 1 15 18
M  V30 18 1 16 19
M  V30 19 1 17 20
M  V30 20 2 18 21
M  V30 21 1 19 22
M  V30 22 2 20 23
M  V30 23 1 22 24
M  V30 24 1 22 25
M  V30 25 1 23 26
M  V30 26 1 24 27
M  V30 27 1 25 28
M  V30 28 2 26 29
M  V30 29 1 26 30
M  V30 30 1 27 31
M  V30 31 1 30 32
M  V30 32 1 30 33
M  V30 33 1 31 34
M  V30 34 1 32 35
M  V30 35 1 34 36
M  V30 36 1 34 37
M  V30 37 1 36 38
M  V30 38 1 7 10
M  V30 39 1 13 16
M  V30 40 1 21 23
M  V30 41 1 28 31
M  V30 42 1 33 35
M  V30 43 1 37 38
M  V30 44 1 4 39
M  V30 45 1 4 40
M  V30 46 1 6 41
M  V30 47 1 6 42
M  V30 48 1 8 43
M  V30 49 1 9 44
M  V30 50 1 10 45
M  V30 51 1 10 46
M  V30 52 1 12 47
M  V30 53 1 13 48
M  V30 54 1 17 49
M  V30 55 1 18 50
M  V30 56 1 20 51
M  V30 57 1 21 52
M  V30 58 1 22 53
M  V30 59 1 24 54
M  V30 60 1 24 55
M  V30 61 1 25 56
M  V30 62 1 25 57
M  V30 63 1 27 58
M  V30 64 1 27 59
M  V30 65 1 28 60
M  V30 66 1 28 61
M  V30 67 1 32 62
M  V30 68 1 32 63
M  V30 69 1 33 64
M  V30 70 1 33 65
M  V30 71 1 34 66
M  V30 72 1 35 67
M  V30 73 1 35 68
M  V30 74 1 36 69
M  V30 75 1 36 70
M  V30 76 1 37 71
M  V30 77 1 37 72
M  V30 78 1 38 73
M  V30 79 1 38 74
M  V30 END BOND
M  V30 END CTAB
M  END
>  <Column 1>
128

>  <level_0>
145

>  <index>
145

>  <Unnamed: 0>
145

>  <NO.>
146

>  <Name>
chembl1185227

>  <IUPAC_name>
4-[4-(azetidine-1-carbonyl)benzoyl]-1-[4-(1-cyclobutylpiperidin-4-yl)oxyphenyl]piperazin-2-one

>  <SMILES>
O=C(c1ccc(C(=O)N2CCN(c3ccc(OC4CCN(C5CCC5)CC4)cc3)C(=O)C2)cc1)N1CCC1

>  <CID>
15986375

>  <logBB>
-1

>  <BBB+/BBB->
BBB+

>  <Inchi>
InChI=1S/C30H36N4O4/c35-28-21-33(30(37)23-7-5-22(6-8-23)29(36)32-15-2-16-32)19-20-34(28)25-9-11-26(12-10-25)38-27-13-17-31(18-14-27)24-3-1-4-24/h5-12-24-27H-1-4-13-21H2

>  <threshold>


>  <reference>
R18|R26|R27|

>  <group>
A

>  <Class>
1

>  <ABC>
30.45

>  <ABCGG>
20.31

>  <nAcid>
0

>  <nBase>
1

>  <nAromAtom>
12

>  <nAromBond>
12

>  <nAtom>
74

>  <nHeavyAtom>
38

>  <nSpiro>
0

>  <nBridgehead>
0

>  <nHetero>
8

>  <nN>
4

>  <nO>
4

>  <nF>
0

>  <BalabanJ>
0.89

>  <BertzCT>
1165.74

>  <nBonds>
79

>  <nBondsO>
43

>  <nBondsS>
64

>  <nBondsD>
3

>  <nBondsT>
0

>  <nBondsA>
12

>  <nBondsM>
15

>  <nBondsKS>
70

>  <nBondsKD>
9

>  <RNCG>
0.16

>  <RPCG>
0.08

>  <FCSP3>
0.5

>  <SZ>
46

>  <Sm>
43.01

>  <Sv>
45.64

>  <Sse>
73.96

>  <Sp>
48.93

>  <Si>
83.48

>  <MZ>
0.62

>  <Mm>
0.58

>  <Mv>
0.62

>  <Mse>
1

>  <Mp>
0.66

>  <Mi>
1.13

>  <NsCH3>
0

>  <NdCH2>
0

>  <NssCH2>
13

>  <NtCH>
0

>  <NdsCH>
0

>  <NaaCH>
8

>  <NsssCH>
2

>  <NddC>
0

>  <NtsC>
0

>  <NdssC>
3

>  <NaasC>
4

>  <NaaaC>
0

>  <NssssC>
0

>  <NsNH3>
0

>  <NsNH2>
0

>  <NssNH2>
0

>  <NdNH>
0

>  <NssNH>
0

>  <NaaNH>
0

>  <NtN>
0

>  <NsssNH>
0

>  <NdsN>
0

>  <NaaN>
0

>  <NsssN>
4

>  <NddsN>
0

>  <NaasN>
0

>  <NssssN>
0

>  <NsOH>
0

>  <NdO>
3

>  <NssO>
1

>  <NaaO>
0

>  <NsF>
0

>  <NsSiH3>
0

>  <NssSiH2>
0

>  <NsssSiH>
0

>  <NssssSi>
0

>  <NsPH2>
0

>  <NssPH>
0

>  <NsssP>
0

>  <NdsssP>
0

>  <NsssssP>
0

>  <NsSH>
0

>  <NdS>
0

>  <NssS>
0

>  <NaaS>
0

>  <NdssS>
0

>  <NddssS>
0

>  <NsCl>
0

>  <NsBr>
0

>  <NsI>
0

>  <fragCpx>
443.08

>  <fMF>
0.47

>  <nHBAcc>
5

>  <nHBDon>
0

>  <Kier1>
28.14

>  <Kier2>
12.89

>  <Lipinski>
0

>  <GhoseFilter>
0

>  <FilterItLogS>
-4.35

>  <VMcGowan>
393.1

>  <LabuteASA>
223.67

>  <PEOE_VSA1>
24.34

>  <PEOE_VSA2>
14.38

>  <PEOE_VSA3>
0

>  <PEOE_VSA4>
0

>  <PEOE_VSA5>
0

>  <PEOE_VSA6>
6.42

>  <PEOE_VSA7>
80.64

>  <PEOE_VSA8>
62.12

>  <PEOE_VSA9>
0

>  <PEOE_VSA10>
18.4

>  <PEOE_VSA11>
0

>  <PEOE_VSA12>
5.91

>  <PEOE_VSA13>
11.81

>  <SMR_VSA1>
19.12

>  <SMR_VSA2>
0

>  <SMR_VSA3>
14.7

>  <SMR_VSA4>
0

>  <SMR_VSA5>
50.67

>  <SMR_VSA6>
50.71

>  <SMR_VSA7>
59.66

>  <SMR_VSA8>
0

>  <SMR_VSA9>
5.75

>  <SlogP_VSA1>
9.64

>  <SlogP_VSA2>
90.38

>  <SlogP_VSA3>
4.79

>  <SlogP_VSA4>
0

>  <SlogP_VSA5>
59.24

>  <SlogP_VSA6>
48.53

>  <SlogP_VSA7>
0

>  <SlogP_VSA8>
0

>  <SlogP_VSA9>
0

>  <SlogP_VSA10>
5.69

>  <SlogP_VSA11>
5.75

>  <EState_VSA1>
0

>  <EState_VSA2>
30.37

>  <EState_VSA3>
24.22

>  <EState_VSA4>
62.92

>  <EState_VSA5>
19.26

>  <EState_VSA6>
38.97

>  <EState_VSA7>
24.27

>  <EState_VSA8>
4.9

>  <EState_VSA9>
4.74

>  <EState_VSA10>
14.38

>  <VSA_EState1>
6.24

>  <VSA_EState2>
46.08

>  <VSA_EState3>
0

>  <VSA_EState4>
1.91

>  <VSA_EState5>
0.55

>  <VSA_EState6>
15.33

>  <VSA_EState7>
7.48

>  <VSA_EState8>
4.75

>  <VSA_EState9>
0

>  <apol>
81.71

>  <bpol>
47.3

>  <nRing>
6

>  <nHRing>
3

>  <naRing>
2

>  <naHRing>
0

>  <nARing 2>
4

>  <nAHRing 2>
3

>  <nFRing>
0

>  <nFHRing>
0

>  <nFaRing>
0

>  <nFaHRing>
0

>  <nFARing 2>
0

>  <nFAHRing 2>
0

>  <nRot>
6

>  <SLogP>
3.42

>  <SMR>
144.52

>  <TopoPSA(NO)>
73.4

>  <TopoPSA>
73.4

>  <JGI1>
0.16

>  <JGI2>
0.09

>  <JGI3>
0.04

>  <JGI4>
0.03

>  <JGI5>
0.02

>  <Diameter>
24

>  <Radius>
12

>  <TMWC10>
160.53

>  <TSRW10>
75.42

>  <MW>
516.27

>  <AMW>
6.98

>  <WPath>
5961

>  <WPol>
61

>  <Zagreb1>
208

>  <Zagreb2>
248

>  <mZagreb2>
8.19

>  <yes>


>  <nAR-cont>
0.199399

>  <nHA-cont>
0.390024847

>  <MWHBN>
0.220055162

>  <MWHBN-cont>
0.994926223

>  <TPSA-cont>
0.487622421

>  <pka_cont>
0.97

>  <yes.1>


>  <BBB_SCORE>
3.542058023

>  <MMFF94 Energy>
130.38

$$$$
Compound 102
Actelion Java MolfileCreator 2.0

  0  0  0  0  0  0              0 V3000
M  V30 BEGIN CTAB
M  V30 COUNTS 49 50 0 0 0
M  V30 BEGIN ATOM
M  V30 1 O 0.4718 -0.7078 -0.2359 0
M  V30 2 C 0.9643 -1.2421 0.927 0
M  V30 3 C -0.8565 -0.1668 -0.2112 0
M  V30 4 C 2.2349 -1.8497 0.831 0
M  V30 5 C 0.3013 -1.2095 2.1565 0
M  V30 6 C -1.2059 0.3194 -1.6266 0
M  V30 7 C 2.8099 -2.4503 1.9697 0
M  V30 8 C 2.9355 -1.9084 -0.512 0
M  V30 9 C 0.8831 -1.7835 3.2859 0
M  V30 10 O -1.3615 -0.8163 -2.4926 0
M  V30 11 C -2.5165 1.1339 -1.6525 0
M  V30 12 C 2.128 -2.3984 3.1939 0
M  V30 13 C 4.1698 -3.1125 1.9358 0
M  V30 14 C 4.4339 -2.2127 -0.4138 0
M  V30 15 N -2.3968 2.3997 -0.9255 0
M  V30 16 C 4.7114 -3.3868 0.5295 0
M  V30 17 O 5.1665 -1.0524 -0.0035 0
M  V30 18 C -3.6221 3.217 -0.8359 0
M  V30 19 O 4.1449 -4.6 0.0258 0
M  V30 20 C -4.1102 3.6746 -2.2202 0
M  V30 21 C -3.2441 4.465 -0.0141 0
M  V30 22 C -4.7508 2.4786 -0.098 0
M  V30 23 H -0.8851 0.673 0.4914 0
M  V30 24 H -1.5629 -0.9492 0.0917 0
M  V30 25 H -0.6724 -0.7458 2.2707 0
M  V30 26 H -0.3739 0.9118 -2.027 0
M  V30 27 H 2.4427 -2.6842 -1.1108 0
M  V30 28 H 2.817 -0.9471 -1.0268 0
M  V30 29 H 0.3609 -1.7554 4.2387 0
M  V30 30 H -1.2918 -0.4936 -3.4068 0
M  V30 31 H -2.7816 1.3175 -2.7 0
M  V30 32 H -3.3119 0.5067 -1.2349 0
M  V30 33 H 2.5653 -2.8464 4.0839 0
M  V30 34 H 4.1182 -4.0569 2.4919 0
M  V30 35 H 4.8663 -2.4468 2.4615 0
M  V30 36 H 4.7933 -2.4635 -1.4185 0
M  V30 37 H -1.6518 2.9589 -1.3443 0
M  V30 38 H 5.7922 -3.5524 0.613 0
M  V30 39 H 4.6434 -0.6032 0.6861 0
M  V30 40 H 4.5641 -4.7847 -0.8321 0
M  V30 41 H -4.4726 2.836 -2.8241 0
M  V30 42 H -4.9393 4.3859 -2.1269 0
M  V30 43 H -3.311 4.1738 -2.7801 0
M  V30 44 H -2.4516 5.0441 -0.503 0
M  V30 45 H -4.1056 5.1313 0.1122 0
M  V30 46 H -2.8897 4.1923 0.9871 0
M  V30 47 H -5.1422 1.6376 -0.68 0
M  V30 48 H -4.408 2.0915 0.8685 0
M  V30 49 H -5.5947 3.1506 0.0984 0
M  V30 END ATOM
M  V30 BEGIN BOND
M  V30 1 1 1 2
M  V30 2 1 1 3
M  V30 3 2 2 4
M  V30 4 1 2 5
M  V30 5 1 3 6
M  V30 6 1 4 7
M  V30 7 1 4 8
M  V30 8 2 5 9
M  V30 9 1 6 10
M  V30 10 1 6 11
M  V30 11 2 7 12
M  V30 12 1 7 13
M  V30 13 1 8 14
M  V30 14 1 11 15
M  V30 15 1 13 16
M  V30 16 1 14 17
M  V30 17 1 15 18
M  V30 18 1 16 19
M  V30 19 1 18 20
M  V30 20 1 18 21
M  V30 21 1 18 22
M  V30 22 1 9 12
M  V30 23 1 14 16
M  V30 24 1 3 23
M  V30 25 1 3 24
M  V30 26 1 5 25
M  V30 27 1 6 26
M  V30 28 1 8 27
M  V30 29 1 8 28
M  V30 30 1 9 29
M  V30 31 1 10 30
M  V30 32 1 11 31
M  V30 33 1 11 32
M  V30 34 1 12 33
M  V30 35 1 13 34
M  V30 36 1 13 35
M  V30 37 1 14 36
M  V30 38 1 15 37
M  V30 39 1 16 38
M  V30 40 1 17 39
M  V30 41 1 19 40
M  V30 42 1 20 41
M  V30 43 1 20 42
M  V30 44 1 20 43
M  V30 45 1 21 44
M  V30 46 1 21 45
M  V30 47 1 21 46
M  V30 48 1 22 47
M  V30 49 1 22 48
M  V30 50 1 22 49
M  V30 END BOND
M  V30 END CTAB
M  END
>  <Column 1>
130

>  <level_0>
148

>  <index>
148

>  <Unnamed: 0>
148

>  <NO.>
149

>  <Name>
anabet

>  <IUPAC_name>
5-[3-(tert-butylamino)-2-hydroxypropoxy]-1-2-3-4-tetrahydronaphthalene-2-3-diol

>  <SMILES>
CC(C)(C)NCC(O)COc1cccc2c1CC(O)C(O)C2

>  <CID>
4411

>  <logBB>
-0.95

>  <BBB+/BBB->
BBB+

>  <Inchi>
InChI=1S/C17H27NO4/c1-17(2-3)18-9-12(19)10-22-16-6-4-5-11-7-14(20)15(21)8-13(11)16/h4-6-12-14-15-18-21H-7-10H2-1-3H3

>  <threshold>


>  <reference>
R2|R2|R25|R46|

>  <group>
A

>  <Class>
1

>  <ABC>
16.95

>  <ABCGG>
13.89

>  <nAcid>
0

>  <nBase>
1

>  <nAromAtom>
6

>  <nAromBond>
6

>  <nAtom>
49

>  <nHeavyAtom>
22

>  <nSpiro>
0

>  <nBridgehead>
0

>  <nHetero>
5

>  <nN>
1

>  <nO>
4

>  <nF>
0

>  <BalabanJ>
1.79

>  <BertzCT>
497.92

>  <nBonds>
50

>  <nBondsO>
23

>  <nBondsS>
44

>  <nBondsD>
0

>  <nBondsT>
0

>  <nBondsA>
6

>  <nBondsM>
6

>  <nBondsKS>
47

>  <nBondsKD>
3

>  <RNCG>
0.21

>  <RPCG>
0.09

>  <FCSP3>
0.65

>  <SZ>
28

>  <Sm>
25.76

>  <Sv>
27.93

>  <Sse>
48.97

>  <Sp>
30.36

>  <Si>
55.73

>  <MZ>
0.57

>  <Mm>
0.53

>  <Mv>
0.57

>  <Mse>
1

>  <Mp>
0.62

>  <Mi>
1.14

>  <NsCH3>
3

>  <NdCH2>
0

>  <NssCH2>
4

>  <NtCH>
0

>  <NdsCH>
0

>  <NaaCH>
3

>  <NsssCH>
3

>  <NddC>
0

>  <NtsC>
0

>  <NdssC>
0

>  <NaasC>
3

>  <NaaaC>
0

>  <NssssC>
1

>  <NsNH3>
0

>  <NsNH2>
0

>  <NssNH2>
0

>  <NdNH>
0

>  <NssNH>
1

>  <NaaNH>
0

>  <NtN>
0

>  <NsssNH>
0

>  <NdsN>
0

>  <NaaN>
0

>  <NsssN>
0

>  <NddsN>
0

>  <NaasN>
0

>  <NssssN>
0

>  <NsOH>
3

>  <NdO>
0

>  <NssO>
1

>  <NaaO>
0

>  <NsF>
0

>  <NsSiH3>
0

>  <NssSiH2>
0

>  <NsssSiH>
0

>  <NssssSi>
0

>  <NsPH2>
0

>  <NssPH>
0

>  <NsssP>
0

>  <NdsssP>
0

>  <NsssssP>
0

>  <NsSH>
0

>  <NdS>
0

>  <NssS>
0

>  <NaaS>
0

>  <NdssS>
0

>  <NddssS>
0

>  <NsCl>
0

>  <NsBr>
0

>  <NsI>
0

>  <fragCpx>
67.05

>  <fMF>
0.2

>  <nHBAcc>
5

>  <nHBDon>
4

>  <Kier1>
18.34

>  <Kier2>
7.71

>  <Lipinski>
1

>  <GhoseFilter>
1

>  <FilterItLogS>
-2.71

>  <VMcGowan>
249.23

>  <LabuteASA>
131.49

>  <PEOE_VSA1>
25.37

>  <PEOE_VSA2>
0

>  <PEOE_VSA3>
0

>  <PEOE_VSA4>
0

>  <PEOE_VSA5>
0

>  <PEOE_VSA6>
12.13

>  <PEOE_VSA7>
32.4

>  <PEOE_VSA8>
30.49

>  <PEOE_VSA9>
12.21

>  <PEOE_VSA10>
18.46

>  <PEOE_VSA11>
0

>  <PEOE_VSA12>
0

>  <PEOE_VSA13>
0

>  <SMR_VSA1>
20.06

>  <SMR_VSA2>
0

>  <SMR_VSA3>
5.32

>  <SMR_VSA4>
0

>  <SMR_VSA5>
57.46

>  <SMR_VSA6>
13.15

>  <SMR_VSA7>
29.33

>  <SMR_VSA8>
0

>  <SMR_VSA9>
5.75

>  <SlogP_VSA1>
10.05

>  <SlogP_VSA2>
52.32

>  <SlogP_VSA3>
12.84

>  <SlogP_VSA4>
0

>  <SlogP_VSA5>
31.9

>  <SlogP_VSA6>
18.2

>  <SlogP_VSA7>
0

>  <SlogP_VSA8>
0

>  <SlogP_VSA9>
0

>  <SlogP_VSA10>
0

>  <SlogP_VSA11>
5.75

>  <EState_VSA1>
18.31

>  <EState_VSA2>
12.15

>  <EState_VSA3>
25.14

>  <EState_VSA4>
11.13

>  <EState_VSA5>
0

>  <EState_VSA6>
0

>  <EState_VSA7>
38.97

>  <EState_VSA8>
5.32

>  <EState_VSA9>
4.74

>  <EState_VSA10>
15.32

>  <VSA_EState1>
5.73

>  <VSA_EState2>
0

>  <VSA_EState3>
32.8

>  <VSA_EState4>
1.88

>  <VSA_EState5>
0.68

>  <VSA_EState6>
5.65

>  <VSA_EState7>
-1.27

>  <VSA_EState8>
6.78

>  <VSA_EState9>
0

>  <apol>
50.7

>  <bpol>
29.39

>  <nRing>
2

>  <nHRing>
0

>  <naRing>
1

>  <naHRing>
0

>  <nARing 2>
1

>  <nAHRing 2>
0

>  <nFRing>
1

>  <nFHRing>
0

>  <nFaRing>
0

>  <nFaHRing>
0

>  <nFARing 2>
1

>  <nFAHRing 2>
0

>  <nRot>
5

>  <SLogP>
0.63

>  <SMR>
85.12

>  <TopoPSA(NO)>
81.95

>  <TopoPSA>
81.95

>  <JGI1>
0.28

>  <JGI2>
0.09

>  <JGI3>
0.04

>  <JGI4>
0.06

>  <JGI5>
0.03

>  <Diameter>
12

>  <Radius>
6

>  <TMWC10>
118.15

>  <TSRW10>
55.95

>  <MW>
309.19

>  <AMW>
6.31

>  <WPath>
1168

>  <WPol>
31

>  <Zagreb1>
112

>  <Zagreb2>
126

>  <mZagreb2>
4.71

>  <yes>


>  <nAR-cont>
0.816016

>  <nHA-cont>
0.983774276

>  <MWHBN>
0.511834776

>  <MWHBN-cont>
0

>  <TPSA-cont>
0.427938112

>  <pka_cont>
0.97

>  <yes.1>


>  <BBB_SCORE>
3.1406665

>  <MMFF94 Energy>
108.4

$$$$
Compound 103
Actelion Java MolfileCreator 2.0

  0  0  0  0  0  0              0 V3000
M  V30 BEGIN CTAB
M  V30 COUNTS 36 37 0 0 0
M  V30 BEGIN ATOM
M  V30 1 Cl -4.1809 4.5836 3.6978 0
M  V30 2 C -3.4431 3.1963 2.9992 0
M  V30 3 C -2.2108 3.3111 2.3641 0
M  V30 4 C -4.0796 1.9616 3.0722 0
M  V30 5 C -1.612 2.1808 1.7962 0
M  V30 6 C -3.4751 0.8356 2.504 0
M  V30 7 C -2.2302 0.9257 1.8613 0
M  V30 8 N -1.6892 -0.2339 1.2781 0
M  V30 9 C -0.8001 -0.381 0.2268 0
M  V30 10 C -0.6302 0.4956 -0.7775 0
M  V30 11 C -0.0325 -1.6891 0.2287 0
M  V30 12 C 0.2943 0.2457 -1.9091 0
M  V30 13 C 1.2981 -1.6153 -0.5341 0
M  V30 14 O 0.3449 1.0789 -2.8128 0
M  V30 15 C 1.072 -1.0517 -1.9466 0
M  V30 16 C 1.9475 -3.003 -0.5643 0
M  V30 17 C 2.3838 -0.8862 -2.6761 0
M  V30 18 O 2.7356 -1.6032 -3.6054 0
M  V30 19 O 3.1413 0.1012 -2.1228 0
M  V30 20 C 4.3887 0.3166 -2.7837 0
M  V30 21 H -1.7063 4.272 2.308 0
M  V30 22 H -5.0447 1.8666 3.5623 0
M  V30 23 H -0.6369 2.2947 1.3309 0
M  V30 24 H -3.9957 -0.1176 2.5564 0
M  V30 25 H -1.9656 -1.0958 1.7411 0
M  V30 26 H -1.1977 1.416 -0.8506 0
M  V30 27 H -0.6766 -2.4718 -0.1934 0
M  V30 28 H 0.1834 -1.9813 1.2654 0
M  V30 29 H 1.9709 -0.9459 0.021 0
M  V30 30 H 0.4594 -1.7519 -2.5312 0
M  V30 31 H 2.0585 -3.4008 0.4501 0
M  V30 32 H 1.3433 -3.7117 -1.1408 0
M  V30 33 H 2.9461 -2.9656 -1.0107 0
M  V30 34 H 4.8929 1.1527 -2.2911 0
M  V30 35 H 5.0236 -0.5705 -2.6978 0
M  V30 36 H 4.2279 0.5798 -3.8339 0
M  V30 END ATOM
M  V30 BEGIN BOND
M  V30 1 1 1 2
M  V30 2 2 2 3
M  V30 3 1 2 4
M  V30 4 1 3 5
M  V30 5 2 4 6
M  V30 6 2 5 7
M  V30 7 1 7 8
M  V30 8 1 8 9
M  V30 9 2 9 10
M  V30 10 1 9 11
M  V30 11 1 10 12
M  V30 12 1 11 13
M  V30 13 2 12 14
M  V30 14 1 12 15
M  V30 15 1 13 16
M  V30 16 1 15 17
M  V30 17 2 17 18
M  V30 18 1 17 19
M  V30 19 1 19 20
M  V30 20 1 6 7
M  V30 21 1 13 15
M  V30 22 1 3 21
M  V30 23 1 4 22
M  V30 24 1 5 23
M  V30 25 1 6 24
M  V30 26 1 8 25
M  V30 27 1 10 26
M  V30 28 1 11 27
M  V30 29 1 11 28
M  V30 30 1 13 29
M  V30 31 1 15 30
M  V30 32 1 16 31
M  V30 33 1 16 32
M  V30 34 1 16 33
M  V30 35 1 20 34
M  V30 36 1 20 35
M  V30 37 1 20 36
M  V30 END BOND
M  V30 END CTAB
M  END
>  <Column 1>
131

>  <level_0>
149

>  <index>
149

>  <Unnamed: 0>
149

>  <NO.>
150

>  <Name>
156154-42-6

>  <IUPAC_name>
methyl 4-(4-chloroanilino)-6-methyl-2-oxocyclohex-3-ene-1-carboxylate

>  <SMILES>
COC(=O)C1C(=O)C=C(Nc2ccc(Cl)cc2)CC1C

>  <CID>
197322

>  <logBB>
-0.95

>  <BBB+/BBB->
BBB+

>  <Inchi>
InChI=1S/C15H16ClNO3/c1-9-7-12(8-13(18)14(9)15(19)20-2)17-11-5-3-10(16)4-6-11/h3-6-8-9-14-17H-7H2-1-2H3

>  <threshold>


>  <reference>
R4|R47|R2|R2|R8|R40|

>  <group>
A

>  <Class>
1

>  <ABC>
15.17

>  <ABCGG>
12.75

>  <nAcid>
0

>  <nBase>
0

>  <nAromAtom>
6

>  <nAromBond>
6

>  <nAtom>
36

>  <nHeavyAtom>
20

>  <nSpiro>
0

>  <nBridgehead>
0

>  <nHetero>
5

>  <nN>
1

>  <nO>
3

>  <nF>
0

>  <BalabanJ>
1.84

>  <BertzCT>
550.74

>  <nBonds>
37

>  <nBondsO>
21

>  <nBondsS>
28

>  <nBondsD>
3

>  <nBondsT>
0

>  <nBondsA>
6

>  <nBondsM>
9

>  <nBondsKS>
31

>  <nBondsKD>
6

>  <RNCG>
0.28

>  <RPCG>
0.19

>  <FCSP3>
0.33

>  <SZ>
25.67

>  <Sm>
24.46

>  <Sv>
23.33

>  <Sse>
36.52

>  <Sp>
24.79

>  <Si>
40.39

>  <MZ>
0.71

>  <Mm>
0.68

>  <Mv>
0.65

>  <Mse>
1.01

>  <Mp>
0.69

>  <Mi>
1.12

>  <NsCH3>
2

>  <NdCH2>
0

>  <NssCH2>
1

>  <NtCH>
0

>  <NdsCH>
1

>  <NaaCH>
4

>  <NsssCH>
2

>  <NddC>
0

>  <NtsC>
0

>  <NdssC>
3

>  <NaasC>
2

>  <NaaaC>
0

>  <NssssC>
0

>  <NsNH3>
0

>  <NsNH2>
0

>  <NssNH2>
0

>  <NdNH>
0

>  <NssNH>
1

>  <NaaNH>
0

>  <NtN>
0

>  <NsssNH>
0

>  <NdsN>
0

>  <NaaN>
0

>  <NsssN>
0

>  <NddsN>
0

>  <NaasN>
0

>  <NssssN>
0

>  <NsOH>
0

>  <NdO>
2

>  <NssO>
1

>  <NaaO>
0

>  <NsF>
0

>  <NsSiH3>
0

>  <NssSiH2>
0

>  <NsssSiH>
0

>  <NssssSi>
0

>  <NsPH2>
0

>  <NssPH>
0

>  <NsssP>
0

>  <NdsssP>
0

>  <NsssssP>
0

>  <NsSH>
0

>  <NdS>
0

>  <NssS>
0

>  <NaaS>
0

>  <NdssS>
0

>  <NddssS>
0

>  <NsCl>
1

>  <NsBr>
0

>  <NsI>
0

>  <fragCpx>
61.05

>  <fMF>
0.36

>  <nHBAcc>
4

>  <nHBDon>
1

>  <Kier1>
16.37

>  <Kier2>
7.32

>  <Lipinski>
1

>  <GhoseFilter>
1

>  <FilterItLogS>
-3.76

>  <VMcGowan>
214.52

>  <LabuteASA>
122.31

>  <PEOE_VSA1>
10.05

>  <PEOE_VSA2>
9.59

>  <PEOE_VSA3>
0

>  <PEOE_VSA4>
0

>  <PEOE_VSA5>
0

>  <PEOE_VSA6>
18.52

>  <PEOE_VSA7>
36.6

>  <PEOE_VSA8>
22.48

>  <PEOE_VSA9>
7.11

>  <PEOE_VSA10>
5.92

>  <PEOE_VSA11>
5.78

>  <PEOE_VSA12>
0

>  <PEOE_VSA13>
0

>  <SMR_VSA1>
14.33

>  <SMR_VSA2>
0

>  <SMR_VSA3>
0

>  <SMR_VSA4>
11.84

>  <SMR_VSA5>
13.34

>  <SMR_VSA6>
12.43

>  <SMR_VSA7>
41.06

>  <SMR_VSA8>
0

>  <SMR_VSA9>
0

>  <SlogP_VSA1>
5.32

>  <SlogP_VSA2>
18.86

>  <SlogP_VSA3>
14.33

>  <SlogP_VSA4>
11.84

>  <SlogP_VSA5>
13.34

>  <SlogP_VSA6>
36.04

>  <SlogP_VSA7>
5.02

>  <SlogP_VSA8>
0

>  <SlogP_VSA9>
0

>  <SlogP_VSA10>
5.69

>  <SlogP_VSA11>
0

>  <EState_VSA1>
11.89

>  <EState_VSA2>
11.7

>  <EState_VSA3>
11.44

>  <EState_VSA4>
11.38

>  <EState_VSA5>
13.19

>  <EState_VSA6>
12.13

>  <EState_VSA7>
19.06

>  <EState_VSA8>
10.05

>  <EState_VSA9>
11.6

>  <EState_VSA10>
9.59

>  <VSA_EState1>
4.67

>  <VSA_EState2>
23.6

>  <VSA_EState3>
3.83

>  <VSA_EState4>
1.65

>  <VSA_EState5>
-1.47

>  <VSA_EState6>
7.22

>  <VSA_EState7>
2.1

>  <VSA_EState8>
1.87

>  <VSA_EState9>
1.3

>  <apol>
41.4

>  <bpol>
20.6

>  <nRing>
2

>  <nHRing>
0

>  <naRing>
1

>  <naHRing>
0

>  <nARing 2>
1

>  <nAHRing 2>
0

>  <nFRing>
0

>  <nFHRing>
0

>  <nFaRing>
0

>  <nFaHRing>
0

>  <nFARing 2>
0

>  <nFAHRing 2>
0

>  <nRot>
3

>  <SLogP>
3.03

>  <SMR>
77.45

>  <TopoPSA(NO)>
55.4

>  <TopoPSA>
55.4

>  <JGI1>
0.24

>  <JGI2>
0.08

>  <JGI3>
0.07

>  <JGI4>
0.04

>  <JGI5>
0.03

>  <Diameter>
12

>  <Radius>
6

>  <TMWC10>
113.26

>  <TSRW10>
53.38

>  <MW>
293.08

>  <AMW>
8.14

>  <WPath>
865

>  <WPol>
30

>  <Zagreb1>
100

>  <Zagreb2>
115

>  <mZagreb2>
4.5

>  <yes>


>  <nAR-cont>
0.816016

>  <nHA-cont>
0.999629945

>  <MWHBN>
0.29206325

>  <MWHBN-cont>
0.863785106

>  <TPSA-cont>
0.613273599

>  <pka_cont>
0.97

>  <yes.1>


>  <BBB_SCORE>
4.8228708

>  <MMFF94 Energy>
8.4827

$$$$
Compound 104
Actelion Java MolfileCreator 2.0

  0  0  0  0  0  0              0 V3000
M  V30 BEGIN CTAB
M  V30 COUNTS 85 88 0 0 0
M  V30 BEGIN ATOM
M  V30 1 S -2.6336 -1.4358 -1.9947 0
M  V30 2 C -3.0052 -1.3012 -3.7341 0
M  V30 3 C -0.7964 -1.4939 -2.0595 0
M  V30 4 C -3.8415 -0.2674 -4.1679 0
M  V30 5 C -2.5125 -2.2177 -4.6682 0
M  V30 6 C -0.1981 -1.4389 -0.6401 0
M  V30 7 C -4.1611 -0.1367 -5.5212 0
M  V30 8 C -2.8321 -2.0868 -6.0217 0
M  V30 9 N -0.5971 -2.6038 0.1718 0
M  V30 10 C 1.3437 -1.2212 -0.6518 0
M  V30 11 C -3.6536 -1.0449 -6.4481 0
M  V30 12 C -0.142 -3.8849 -0.0188 0
M  V30 13 O 1.9871 -2.0599 -1.6211 0
M  V30 14 C 1.7508 0.2391 -0.9835 0
M  V30 15 O 0.6823 -4.1994 -0.868 0
M  V30 16 C -0.7617 -4.9156 0.8478 0
M  V30 17 N 1.1208 1.2925 -0.1592 0
M  V30 18 C -0.7857 -4.8195 2.2529 0
M  V30 19 C -1.3382 -6.0131 0.1912 0
M  V30 20 C 1.5777 1.259 1.2667 0
M  V30 21 C 1.3335 2.631 -0.7537 0
M  V30 22 C -1.4684 -5.8194 2.9602 0
M  V30 23 C -0.1235 -3.6905 2.9943 0
M  V30 24 C -1.9869 -7.005 0.9227 0
M  V30 25 C 0.5303 1.9631 2.1774 0
M  V30 26 C 2.9952 1.8094 1.4915 0
M  V30 27 C 2.765 3.169 -0.6085 0
M  V30 28 O -1.5484 -5.7226 4.3221 0
M  V30 29 C -2.0623 -6.9032 2.3098 0
M  V30 30 O 0.8179 2.5021 3.2407 0
M  V30 31 N -0.7584 1.8446 1.6957 0
M  V30 32 C 3.1715 3.2003 0.8733 0
M  V30 33 C 2.9028 4.5659 -1.2292 0
M  V30 34 C -1.973 2.3674 2.3251 0
M  V30 35 C 4.6073 3.7134 1.031 0
M  V30 36 C 4.3227 5.106 -1.0638 0
M  V30 37 C -2.1663 1.7762 3.7301 0
M  V30 38 C -1.9262 3.9005 2.3974 0
M  V30 39 C -3.1728 1.9504 1.4558 0
M  V30 40 C 4.7719 5.0931 0.3953 0
M  V30 41 H -0.4908 -2.4098 -2.5733 0
M  V30 42 H -0.4588 -0.6363 -2.649 0
M  V30 43 H -4.2495 0.4465 -3.4565 0
M  V30 44 H -1.886 -3.0489 -4.3556 0
M  V30 45 H -0.6502 -0.599 -0.1015 0
M  V30 46 H -4.8082 0.6721 -5.8502 0
M  V30 47 H -2.4433 -2.8023 -6.7418 0
M  V30 48 H -1.3712 -2.4676 0.812 0
M  V30 49 H 1.7617 -1.496 0.323 0
M  V30 50 H -3.9032 -0.9448 -7.5012 0
M  V30 51 H 1.7017 -2.9826 -1.427 0
M  V30 52 H 2.8455 0.3052 -0.9492 0
M  V30 53 H 1.4972 0.4122 -2.0379 0
M  V30 54 H -1.2896 -6.0864 -0.8934 0
M  V30 55 H 1.5567 0.224 1.6293 0
M  V30 56 H 1.0449 2.6131 -1.8125 0
M  V30 57 H 0.6339 3.3359 -0.2858 0
M  V30 58 H 0.7678 -3.3344 2.4681 0
M  V30 59 H 0.2224 -4.0093 3.9832 0
M  V30 60 H -0.8242 -2.8597 3.1216 0
M  V30 61 H -2.4388 -7.8505 0.4105 0
M  V30 62 H 3.7269 1.1173 1.0561 0
M  V30 63 H 3.2192 1.8562 2.5643 0
M  V30 64 H 3.4483 2.5018 -1.1515 0
M  V30 65 H -2.0181 -6.499 4.6689 0
M  V30 66 H -2.5817 -7.6772 2.8672 0
M  V30 67 H -0.805 1.5009 0.7399 0
M  V30 68 H 2.509 3.8981 1.405 0
M  V30 69 H 2.6518 4.5286 -2.2958 0
M  V30 70 H 2.1935 5.2584 -0.7585 0
M  V30 71 H 5.3106 3.0122 0.5645 0
M  V30 72 H 4.871 3.7702 2.0937 0
M  V30 73 H 4.376 6.1277 -1.4565 0
M  V30 74 H 5.0137 4.4986 -1.6611 0
M  V30 75 H -1.3785 2.093 4.4207 0
M  V30 76 H -3.1228 2.0908 4.1631 0
M  V30 77 H -2.1541 0.6806 3.7006 0
M  V30 78 H -2.8616 4.3072 2.798 0
M  V30 79 H -1.1129 4.2525 3.0406 0
M  V30 80 H -1.7669 4.3363 1.4042 0
M  V30 81 H -3.237 0.8593 1.3695 0
M  V30 82 H -3.0823 2.3507 0.4391 0
M  V30 83 H -4.1179 2.3119 1.8761 0
M  V30 84 H 5.8198 5.4064 0.461 0
M  V30 85 H 4.1841 5.8259 0.9619 0
M  V30 END ATOM
M  V30 BEGIN BOND
M  V30 1 1 1 2
M  V30 2 1 1 3
M  V30 3 2 2 4
M  V30 4 1 2 5
M  V30 5 1 3 6
M  V30 6 1 4 7
M  V30 7 2 5 8
M  V30 8 1 6 9
M  V30 9 1 6 10
M  V30 10 2 7 11
M  V30 11 1 9 12
M  V30 12 1 10 13
M  V30 13 1 10 14
M  V30 14 2 12 15
M  V30 15 1 12 16
M  V30 16 1 14 17
M  V30 17 2 16 18
M  V30 18 1 16 19
M  V30 19 1 17 20
M  V30 20 1 17 21
M  V30 21 1 18 22
M  V30 22 1 18 23
M  V30 23 2 19 24
M  V30 24 1 20 25
M  V30 25 1 20 26
M  V30 26 1 21 27
M  V30 27 1 22 28
M  V30 28 2 22 29
M  V30 29 2 25 30
M  V30 30 1 25 31
M  V30 31 1 26 32
M  V30 32 1 27 33
M  V30 33 1 31 34
M  V30 34 1 32 35
M  V30 35 1 33 36
M  V30 36 1 34 37
M  V30 37 1 34 38
M  V30 38 1 34 39
M  V30 39 1 35 40
M  V30 40 1 8 11
M  V30 41 1 24 29
M  V30 42 1 27 32
M  V30 43 1 36 40
M  V30 44 1 3 41
M  V30 45 1 3 42
M  V30 46 1 4 43
M  V30 47 1 5 44
M  V30 48 1 6 45
M  V30 49 1 7 46
M  V30 50 1 8 47
M  V30 51 1 9 48
M  V30 52 1 10 49
M  V30 53 1 11 50
M  V30 54 1 13 51
M  V30 55 1 14 52
M  V30 56 1 14 53
M  V30 57 1 19 54
M  V30 58 1 20 55
M  V30 59 1 21 56
M  V30 60 1 21 57
M  V30 61 1 23 58
M  V30 62 1 23 59
M  V30 63 1 23 60
M  V30 64 1 24 61
M  V30 65 1 26 62
M  V30 66 1 26 63
M  V30 67 1 27 64
M  V30 68 1 28 65
M  V30 69 1 29 66
M  V30 70 1 31 67
M  V30 71 1 32 68
M  V30 72 1 33 69
M  V30 73 1 33 70
M  V30 74 1 35 71
M  V30 75 1 35 72
M  V30 76 1 36 73
M  V30 77 1 36 74
M  V30 78 1 37 75
M  V30 79 1 37 76
M  V30 80 1 37 77
M  V30 81 1 38 78
M  V30 82 1 38 79
M  V30 83 1 38 80
M  V30 84 1 39 81
M  V30 85 1 39 82
M  V30 86 1 39 83
M  V30 87 1 40 84
M  V30 88 1 40 85
M  V30 END BOND
M  V30 END CTAB
M  END
>  <Column 1>
132

>  <level_0>
150

>  <index>
150

>  <Unnamed: 0>
150

>  <NO.>
151

>  <Name>
nelfinavir mesylate

>  <IUPAC_name>
n-tert-butyl-2-[2-hydroxy-3-[(3-hydroxy-2-methylbenzoyl)amino]-4-phenylsulfanylbutyl]-3-4-4a-5-6-7-8-8a-octahydro-1h-isoquinoline-3-carboxamide

>  <SMILES>
Cc1c(O)cccc1C(=O)NC(CSc1ccccc1)C(O)CN1CC2CCCCC2CC1C(=O)NC(C)(C)C

>  <CID>
4451

>  <logBB>
-0.93

>  <BBB+/BBB->
BBB+

>  <Inchi>
InChI=1S/C32H45N3O4S/c1-21-25(15-10-16-28(21)36)30(38)33-26(20-40-24-13-6-5-7-14-24)29(37)19-35-18-23-12-9-8-11-22(23)17-27(35)31(39)34-32(2-3)4/h5-7-10-13-16-22-23-26-27-29-36-37H-8-9-11-12-17-20H2-1-4H3-(H-33-38)(H-34-39)

>  <threshold>


>  <reference>
R2|R2|R40|R25|R27|R47|R27|R4|

>  <group>
A

>  <Class>
1

>  <ABC>
31.15

>  <ABCGG>
24.13

>  <nAcid>
0

>  <nBase>
1

>  <nAromAtom>
12

>  <nAromBond>
12

>  <nAtom>
85

>  <nHeavyAtom>
40

>  <nSpiro>
0

>  <nBridgehead>
0

>  <nHetero>
8

>  <nN>
3

>  <nO>
4

>  <nF>
0

>  <BalabanJ>
1.46

>  <BertzCT>
1152.59

>  <nBonds>
88

>  <nBondsO>
43

>  <nBondsS>
74

>  <nBondsD>
2

>  <nBondsT>
0

>  <nBondsA>
12

>  <nBondsM>
14

>  <nBondsKS>
80

>  <nBondsKD>
8

>  <RNCG>
0.15

>  <RPCG>
0.09

>  <FCSP3>
0.56

>  <SZ>
51

>  <Sm>
47.27

>  <Sv>
50.51

>  <Sse>
84.37

>  <Sp>
55.6

>  <Si>
95.97

>  <MZ>
0.6

>  <Mm>
0.56

>  <Mv>
0.59

>  <Mse>
0.99

>  <Mp>
0.65

>  <Mi>
1.13

>  <NsCH3>
4

>  <NdCH2>
0

>  <NssCH2>
8

>  <NtCH>
0

>  <NdsCH>
0

>  <NaaCH>
8

>  <NsssCH>
5

>  <NddC>
0

>  <NtsC>
0

>  <NdssC>
2

>  <NaasC>
4

>  <NaaaC>
0

>  <NssssC>
1

>  <NsNH3>
0

>  <NsNH2>
0

>  <NssNH2>
0

>  <NdNH>
0

>  <NssNH>
2

>  <NaaNH>
0

>  <NtN>
0

>  <NsssNH>
0

>  <NdsN>
0

>  <NaaN>
0

>  <NsssN>
1

>  <NddsN>
0

>  <NaasN>
0

>  <NssssN>
0

>  <NsOH>
2

>  <NdO>
2

>  <NssO>
0

>  <NaaO>
0

>  <NsF>
0

>  <NsSiH3>
0

>  <NssSiH2>
0

>  <NsssSiH>
0

>  <NssssSi>
0

>  <NsPH2>
0

>  <NssPH>
0

>  <NsssP>
0

>  <NdsssP>
0

>  <NsssssP>
0

>  <NsSH>
0

>  <NdS>
0

>  <NssS>
1

>  <NaaS>
0

>  <NdssS>
0

>  <NddssS>
0

>  <NsCl>
0

>  <NsBr>
0

>  <NsI>
0

>  <fragCpx>
289.08

>  <fMF>
0.34

>  <nHBAcc>
6

>  <nHBDon>
4

>  <Kier1>
32.9

>  <Kier2>
15.13

>  <Lipinski>
0

>  <GhoseFilter>
0

>  <FilterItLogS>
-6.05

>  <VMcGowan>
453.67

>  <LabuteASA>
242.67

>  <PEOE_VSA1>
20.85

>  <PEOE_VSA2>
14.49

>  <PEOE_VSA3>
0

>  <PEOE_VSA4>
0

>  <PEOE_VSA5>
11.76

>  <PEOE_VSA6>
43.53

>  <PEOE_VSA7>
76.64

>  <PEOE_VSA8>
40.4

>  <PEOE_VSA9>
18.19

>  <PEOE_VSA10>
5.75

>  <PEOE_VSA11>
0

>  <PEOE_VSA12>
5.91

>  <PEOE_VSA13>
5.91

>  <SMR_VSA1>
19.8

>  <SMR_VSA2>
0

>  <SMR_VSA3>
15.53

>  <SMR_VSA4>
11.84

>  <SMR_VSA5>
88.42

>  <SMR_VSA6>
18.84

>  <SMR_VSA7>
59.66

>  <SMR_VSA8>
0

>  <SMR_VSA9>
5.75

>  <SlogP_VSA1>
10.63

>  <SlogP_VSA2>
69.5

>  <SlogP_VSA3>
4.79

>  <SlogP_VSA4>
18.76

>  <SlogP_VSA5>
68.8

>  <SlogP_VSA6>
53.43

>  <SlogP_VSA7>
0

>  <SlogP_VSA8>
0

>  <SlogP_VSA9>
0

>  <SlogP_VSA10>
0

>  <SlogP_VSA11>
5.75

>  <EState_VSA1>
12.15

>  <EState_VSA2>
29.14

>  <EState_VSA3>
35.26

>  <EState_VSA4>
30.7

>  <EState_VSA5>
12.84

>  <EState_VSA6>
36.88

>  <EState_VSA7>
51.1

>  <EState_VSA8>
15.53

>  <EState_VSA9>
0

>  <EState_VSA10>
19.8

>  <VSA_EState1>
0

>  <VSA_EState2>
30

>  <VSA_EState3>
28

>  <VSA_EState4>
0.54

>  <VSA_EState5>
1.27

>  <VSA_EState6>
13.93

>  <VSA_EState7>
4.67

>  <VSA_EState8>
8.76

>  <VSA_EState9>
0

>  <apol>
92.85

>  <bpol>
52.19

>  <nRing>
4

>  <nHRing>
1

>  <naRing>
2

>  <naHRing>
0

>  <nARing 2>
2

>  <nAHRing 2>
1

>  <nFRing>
1

>  <nFHRing>
1

>  <nFaRing>
0

>  <nFaHRing>
0

>  <nFARing 2>
1

>  <nFAHRing 2>
1

>  <nRot>
9

>  <SLogP>
4.75

>  <SMR>
160.59

>  <TopoPSA(NO)>
101.9

>  <TopoPSA>
127.2

>  <JGI1>
0.22

>  <JGI2>
0.08

>  <JGI3>
0.05

>  <JGI4>
0.04

>  <JGI5>
0.03

>  <Diameter>
14

>  <Radius>
7

>  <TMWC10>
162.16

>  <TSRW10>
77.07

>  <MW>
567.31

>  <AMW>
6.67

>  <WPath>
5398

>  <WPol>
63

>  <Zagreb1>
208

>  <Zagreb2>
240

>  <mZagreb2>
8.65

>  <yes>


>  <nAR-cont>
1

>  <nHA-cont>
0.308539627

>  <MWHBN>
0.419845769

>  <MWHBN-cont>
0.398558817

>  <TPSA-cont>
0

>  <pka_cont>
0.97

>  <yes.1>


>  <BBB_SCORE>
2.391377852

>  <MMFF94 Energy>
100.91

$$$$
Compound 105
Actelion Java MolfileCreator 2.0

  0  0  0  0  0  0              0 V3000
M  V30 BEGIN CTAB
M  V30 COUNTS 88 91 0 0 0
M  V30 BEGIN ATOM
M  V30 1 S 3.1131 -0.2392 3.193 0
M  V30 2 C 3.0976 -1.9296 3.7564 0
M  V30 3 C 1.4035 -0.133 2.5215 0
M  V30 4 C 2.4432 -2.2763 4.9421 0
M  V30 5 C 3.7508 -2.9182 3.0153 0
M  V30 6 C 1.1974 -0.9317 1.2154 0 CFG=2
M  V30 7 C 2.4291 -3.6038 5.3744 0
M  V30 8 C 3.7341 -4.2457 3.4472 0
M  V30 9 N 2.2619 -0.5774 0.2516 0
M  V30 10 C -0.2078 -0.7127 0.5589 0 CFG=1
M  V30 11 C 3.0725 -4.588 4.6256 0
M  V30 12 C 2.5557 -1.3021 -0.8756 0
M  V30 13 O -0.5392 -1.8442 -0.2627 0
M  V30 14 C -1.3657 -0.4843 1.5693 0
M  V30 15 O 1.9146 -2.2817 -1.2324 0
M  V30 16 C 3.698 -0.7856 -1.6724 0
M  V30 17 N -2.7154 -0.1433 1.0572 0
M  V30 18 C 3.5758 -0.5602 -3.0571 0
M  V30 19 C 4.9083 -0.532 -1.0056 0
M  V30 20 C -2.7324 0.9477 0.0527 0 CFG=2
M  V30 21 C -3.4338 -1.3301 0.5678 0
M  V30 22 C 4.7061 -0.0983 -3.7451 0
M  V30 23 C 2.289 -0.8353 -3.7866 0
M  V30 24 C 6.0102 -0.0572 -1.7129 0
M  V30 25 C -2.012 2.2093 0.5658 0
M  V30 26 C -4.1741 1.3506 -0.2963 0
M  V30 27 C -4.9014 -0.9836 0.2665 0
M  V30 28 O 4.6212 0.1074 -5.0943 0
M  V30 29 C 5.9104 0.158 -3.0854 0
M  V30 30 O -2.1863 2.6815 1.695 0
M  V30 31 C -1.0468 2.8869 -0.4105 0
M  V30 32 C -4.9804 0.1421 -0.7791 0
M  V30 33 C -5.6824 -2.2145 -0.2113 0
M  V30 34 N 0.2679 2.9855 0.2426 0
M  V30 35 C -6.4382 0.5117 -1.0735 0
M  V30 36 C -7.1344 -1.8598 -0.5293 0
M  V30 37 C 1.3166 3.6785 -0.5257 0
M  V30 38 C -7.2352 -0.7098 -1.5282 0
M  V30 39 C 1.6105 2.961 -1.853 0
M  V30 40 C 2.5871 3.6293 0.3444 0
M  V30 41 C 0.9627 5.151 -0.7892 0
M  V30 42 H 0.7107 -0.4623 3.3018 0
M  V30 43 H 1.2189 0.9307 2.3366 0
M  V30 44 H 1.9428 -1.5183 5.5399 0
M  V30 45 H 4.2667 -2.6679 2.092 0
M  V30 46 H 1.3107 -2.004 1.4187 0
M  V30 47 H 1.9174 -3.8695 6.2959 0
M  V30 48 H 4.2353 -5.0126 2.8622 0
M  V30 49 H 2.7993 0.2599 0.4461 0
M  V30 50 H -0.1344 0.1455 -0.1141 0
M  V30 51 H 3.0596 -5.622 4.9609 0
M  V30 52 H 0.2783 -2.1185 -0.7353 0
M  V30 53 H -1.0943 0.3311 2.2466 0
M  V30 54 H -1.4521 -1.3714 2.2108 0
M  V30 55 H 5.0034 -0.7237 0.0609 0
M  V30 56 H -2.236 0.6021 -0.8618 0
M  V30 57 H -2.9654 -1.7402 -0.3336 0
M  V30 58 H -3.4175 -2.1154 1.3336 0
M  V30 59 H 2.1882 -1.9079 -3.9784 0
M  V30 60 H 2.2396 -0.3098 -4.7455 0
M  V30 61 H 1.4278 -0.4858 -3.2071 0
M  V30 62 H 6.9482 0.1328 -1.197 0
M  V30 63 H -4.1638 2.1248 -1.0743 0
M  V30 64 H -4.6621 1.8012 0.579 0
M  V30 65 H -5.3671 -0.6327 1.1997 0
M  V30 66 H 5.4947 0.3618 -5.4336 0
M  V30 67 H 6.7797 0.5208 -3.6262 0
M  V30 68 H -1.4722 3.8659 -0.6508 0
M  V30 69 H -0.9842 2.2966 -1.3275 0
M  V30 70 H -4.5266 -0.214 -1.7153 0
M  V30 71 H -5.2072 -2.6364 -1.1059 0
M  V30 72 H -5.661 -2.9945 0.5587 0
M  V30 73 H 0.1231 3.4665 1.1377 0
M  V30 74 H -6.9066 0.9375 -0.177 0
M  V30 75 H -6.4801 1.2827 -1.8518 0
M  V30 76 H -7.6495 -2.7407 -0.9286 0
M  V30 77 H -7.6513 -1.5813 0.3974 0
M  V30 78 H -8.2865 -0.433 -1.6666 0
M  V30 79 H -6.8623 -1.0437 -2.5043 0
M  V30 80 H 0.7773 3.0458 -2.5587 0
M  V30 81 H 2.4924 3.3892 -2.3435 0
M  V30 82 H 1.809 1.8958 -1.6925 0
M  V30 83 H 2.8874 2.5973 0.5584 0
M  V30 84 H 3.4296 4.1182 -0.1583 0
M  V30 85 H 2.4374 4.1387 1.3039 0
M  V30 86 H 0.1149 5.2528 -1.4748 0
M  V30 87 H 0.7095 5.6731 0.1407 0
M  V30 88 H 1.8083 5.6807 -1.2432 0
M  V30 END ATOM
M  V30 BEGIN BOND
M  V30 1 1 1 2
M  V30 2 1 1 3
M  V30 3 2 2 4
M  V30 4 1 2 5
M  V30 5 1 3 6
M  V30 6 1 4 7
M  V30 7 2 5 8
M  V30 8 1 6 9
M  V30 9 1 6 10
M  V30 10 2 7 11
M  V30 11 1 9 12
M  V30 12 1 10 13
M  V30 13 1 10 14
M  V30 14 2 12 15
M  V30 15 1 12 16
M  V30 16 1 14 17
M  V30 17 2 16 18
M  V30 18 1 16 19
M  V30 19 1 17 20
M  V30 20 1 17 21
M  V30 21 1 18 22
M  V30 22 1 18 23
M  V30 23 2 19 24
M  V30 24 1 20 25
M  V30 25 1 20 26
M  V30 26 1 21 27
M  V30 27 1 22 28
M  V30 28 2 22 29
M  V30 29 2 25 30
M  V30 30 1 25 31
M  V30 31 1 26 32
M  V30 32 1 27 33
M  V30 33 1 31 34
M  V30 34 1 32 35
M  V30 35 1 33 36
M  V30 36 1 34 37
M  V30 37 1 35 38
M  V30 38 1 37 39
M  V30 39 1 37 40
M  V30 40 1 37 41
M  V30 41 1 8 11
M  V30 42 1 24 29
M  V30 43 1 27 32
M  V30 44 1 36 38
M  V30 45 1 3 42
M  V30 46 1 3 43
M  V30 47 1 4 44
M  V30 48 1 5 45
M  V30 49 1 6 46
M  V30 50 1 7 47
M  V30 51 1 8 48
M  V30 52 1 9 49
M  V30 53 1 10 50
M  V30 54 1 11 51
M  V30 55 1 13 52
M  V30 56 1 14 53
M  V30 57 1 14 54
M  V30 58 1 19 55
M  V30 59 1 20 56
M  V30 60 1 21 57
M  V30 61 1 21 58
M  V30 62 1 23 59
M  V30 63 1 23 60
M  V30 64 1 23 61
M  V30 65 1 24 62
M  V30 66 1 26 63
M  V30 67 1 26 64
M  V30 68 1 27 65
M  V30 69 1 28 66
M  V30 70 1 29 67
M  V30 71 1 31 68
M  V30 72 1 31 69
M  V30 73 1 32 70
M  V30 74 1 33 71
M  V30 75 1 33 72
M  V30 76 1 34 73
M  V30 77 1 35 74
M  V30 78 1 35 75
M  V30 79 1 36 76
M  V30 80 1 36 77
M  V30 81 1 38 78
M  V30 82 1 38 79
M  V30 83 1 39 80
M  V30 84 1 39 81
M  V30 85 1 39 82
M  V30 86 1 40 83
M  V30 87 1 40 84
M  V30 88 1 40 85
M  V30 89 1 41 86
M  V30 90 1 41 87
M  V30 91 1 41 88
M  V30 END BOND
M  V30 BEGIN COLLECTION
M  V30 MDLV30/STEABS ATOMS=(3 6 10 20)
M  V30 END COLLECTION
M  V30 END CTAB
M  END
>  <Column 1>
133

>  <level_0>
151

>  <index>
151

>  <Unnamed: 0>
151

>  <NO.>
152

>  <Name>
nelfinavir

>  <IUPAC_name>


>  <SMILES>
Cc1c(O)cccc1C(=O)N[C@@H](CSc1ccccc1)[C@@H](O)CN1CC2CCCCC2C[C@H]1C(=O)CNC(C)(C)C

>  <CID>


>  <logBB>
-0.93

>  <BBB+/BBB->
BBB+

>  <Inchi>
InChI=1S/C33H47N3O4S/c1-22-26(15-10-16-29(22)37)32(40)35-27(21-41-25-13-6-5-7-14-25)31(39)20-36-19-24-12-9-8-11-23(24)17-28(36)30(38)18-34-33(2-3)4/h5-7-10-13-16-23-24-27-28-31-34-37-39H-8-9-11-12-17-21H2-1-4H3-(H-35-40)/t23?-24?-27--28--31-/m0/s1

>  <threshold>


>  <reference>
R25|

>  <group>
A

>  <Class>
1

>  <ABC>
31.85

>  <ABCGG>
24.49

>  <nAcid>
0

>  <nBase>
2

>  <nAromAtom>
12

>  <nAromBond>
12

>  <nAtom>
88

>  <nHeavyAtom>
41

>  <nSpiro>
0

>  <nBridgehead>
0

>  <nHetero>
8

>  <nN>
3

>  <nO>
4

>  <nF>
0

>  <BalabanJ>
1.45

>  <BertzCT>
1168.81

>  <nBonds>
91

>  <nBondsO>
44

>  <nBondsS>
77

>  <nBondsD>
2

>  <nBondsT>
0

>  <nBondsA>
12

>  <nBondsM>
14

>  <nBondsKS>
83

>  <nBondsKD>
8

>  <RNCG>
0.15

>  <RPCG>
0.09

>  <FCSP3>
0.58

>  <SZ>
52.33

>  <Sm>
48.44

>  <Sv>
52.05

>  <Sse>
87.25

>  <Sp>
57.4

>  <Si>
99.39

>  <MZ>
0.59

>  <Mm>
0.55

>  <Mv>
0.59

>  <Mse>
0.99

>  <Mp>
0.65

>  <Mi>
1.13

>  <NsCH3>
4

>  <NdCH2>
0

>  <NssCH2>
9

>  <NtCH>
0

>  <NdsCH>
0

>  <NaaCH>
8

>  <NsssCH>
5

>  <NddC>
0

>  <NtsC>
0

>  <NdssC>
2

>  <NaasC>
4

>  <NaaaC>
0

>  <NssssC>
1

>  <NsNH3>
0

>  <NsNH2>
0

>  <NssNH2>
0

>  <NdNH>
0

>  <NssNH>
2

>  <NaaNH>
0

>  <NtN>
0

>  <NsssNH>
0

>  <NdsN>
0

>  <NaaN>
0

>  <NsssN>
1

>  <NddsN>
0

>  <NaasN>
0

>  <NssssN>
0

>  <NsOH>
2

>  <NdO>
2

>  <NssO>
0

>  <NaaO>
0

>  <NsF>
0

>  <NsSiH3>
0

>  <NssSiH2>
0

>  <NsssSiH>
0

>  <NssssSi>
0

>  <NsPH2>
0

>  <NssPH>
0

>  <NsssP>
0

>  <NdsssP>
0

>  <NsssssP>
0

>  <NsSH>
0

>  <NdS>
0

>  <NssS>
1

>  <NaaS>
0

>  <NdssS>
0

>  <NddssS>
0

>  <NsCl>
0

>  <NsBr>
0

>  <NsI>
0

>  <fragCpx>
296.08

>  <fMF>
0.33

>  <nHBAcc>
7

>  <nHBDon>
4

>  <Kier1>
33.88

>  <Kier2>
15.83

>  <Lipinski>
0

>  <GhoseFilter>
0

>  <FilterItLogS>
-6.44

>  <VMcGowan>
467.76

>  <LabuteASA>
249.03

>  <PEOE_VSA1>
20.85

>  <PEOE_VSA2>
14.49

>  <PEOE_VSA3>
0

>  <PEOE_VSA4>
0

>  <PEOE_VSA5>
11.76

>  <PEOE_VSA6>
43.53

>  <PEOE_VSA7>
76.64

>  <PEOE_VSA8>
40.4

>  <PEOE_VSA9>
24.73

>  <PEOE_VSA10>
5.75

>  <PEOE_VSA11>
5.78

>  <PEOE_VSA12>
0

>  <PEOE_VSA13>
5.91

>  <SMR_VSA1>
19.8

>  <SMR_VSA2>
0

>  <SMR_VSA3>
15.53

>  <SMR_VSA4>
11.84

>  <SMR_VSA5>
88.42

>  <SMR_VSA6>
25.39

>  <SMR_VSA7>
59.66

>  <SMR_VSA8>
0

>  <SMR_VSA9>
5.75

>  <SlogP_VSA1>
10.63

>  <SlogP_VSA2>
75.92

>  <SlogP_VSA3>
4.79

>  <SlogP_VSA4>
18.76

>  <SlogP_VSA5>
68.8

>  <SlogP_VSA6>
53.43

>  <SlogP_VSA7>
0

>  <SlogP_VSA8>
0

>  <SlogP_VSA9>
0

>  <SlogP_VSA10>
0

>  <SlogP_VSA11>
5.75

>  <EState_VSA1>
12.15

>  <EState_VSA2>
29.02

>  <EState_VSA3>
41.81

>  <EState_VSA4>
17.86

>  <EState_VSA5>
25.68

>  <EState_VSA6>
36.88

>  <EState_VSA7>
30.33

>  <EState_VSA8>
36.3

>  <EState_VSA9>
0

>  <EState_VSA10>
19.8

>  <VSA_EState1>
0

>  <VSA_EState2>
30.14

>  <VSA_EState3>
28.24

>  <VSA_EState4>
0.73

>  <VSA_EState5>
1.47

>  <VSA_EState6>
14.03

>  <VSA_EState7>
4.74

>  <VSA_EState8>
9.31

>  <VSA_EState9>
0

>  <apol>
95.86

>  <bpol>
54.2

>  <nRing>
4

>  <nHRing>
1

>  <naRing>
2

>  <naHRing>
0

>  <nARing 2>
2

>  <nAHRing 2>
1

>  <nFRing>
1

>  <nFHRing>
1

>  <nFaRing>
0

>  <nFaHRing>
0

>  <nFARing 2>
1

>  <nFAHRing 2>
1

>  <nRot>
11

>  <SLogP>
4.79

>  <SMR>
165.46

>  <TopoPSA(NO)>
101.9

>  <TopoPSA>
127.2

>  <JGI1>
0.22

>  <JGI2>
0.08

>  <JGI3>
0.04

>  <JGI4>
0.05

>  <JGI5>
0.03

>  <Diameter>
15

>  <Radius>
8

>  <TMWC10>
164.2

>  <TSRW10>
78.13

>  <MW>
581.33

>  <AMW>
6.61

>  <WPath>
5842

>  <WPol>
64

>  <Zagreb1>
212

>  <Zagreb2>
244

>  <mZagreb2>
8.9

>  <yes>


>  <nAR-cont>
1

>  <nHA-cont>
0.27123661

>  <MWHBN>
0.45622735

>  <MWHBN-cont>
0

>  <TPSA-cont>
0

>  <pka_cont>
0.97

>  <yes.1>


>  <BBB_SCORE>
1.75623661

>  <MMFF94 Energy>
147.25

$$$$
Compound 106
Actelion Java MolfileCreator 2.0

  0  0  0  0  0  0              0 V3000
M  V30 BEGIN CTAB
M  V30 COUNTS 28 30 0 0 0
M  V30 BEGIN ATOM
M  V30 1 O 0.243 -1.459 2.8385 0
M  V30 2 C -0.0497 -1.2798 1.6621 0
M  V30 3 C -0.4791 -2.3885 0.7683 0
M  V30 4 C 0.0404 0.0882 1.0851 0
M  V30 5 C -0.7315 -3.7497 1.2717 0
M  V30 6 C -0.6552 -2.0919 -0.5294 0
M  V30 7 C -0.1824 0.2727 -0.3035 0
M  V30 8 C 0.3441 1.1698 1.9255 0
M  V30 9 O -0.9181 -4.0866 2.4258 0
M  V30 10 O -0.7504 -4.6808 0.2953 0
M  V30 11 N -0.4735 -0.856 -1.1152 0
M  V30 12 C -0.1116 1.5675 -0.8415 0
M  V30 13 C 0.4089 2.4193 1.3517 0
M  V30 14 O -0.7468 -0.7056 -2.4799 0
M  V30 15 C 0.1861 2.6127 0.0088 0
M  V30 16 O 0.6856 3.5799 2.0032 0
M  V30 17 C 0.4563 -0.9744 -3.2028 0
M  V30 18 O 0.2952 3.9198 -0.3511 0
M  V30 19 C 0.6068 4.5292 0.9197 0
M  V30 20 H -0.9817 -2.8403 -1.2465 0
M  V30 21 H 0.5184 1.0339 2.9881 0
M  V30 22 H -0.9161 -5.5129 0.7889 0
M  V30 23 H -0.2895 1.7556 -1.8943 0
M  V30 24 H 0.7617 -2.0174 -3.0722 0
M  V30 25 H 0.256 -0.805 -4.2644 0
M  V30 26 H 1.2619 -0.3013 -2.8924 0
M  V30 27 H 1.57 5.0452 0.8344 0
M  V30 28 H -0.1689 5.2671 1.1548 0
M  V30 END ATOM
M  V30 BEGIN BOND
M  V30 1 2 1 2
M  V30 2 1 2 3
M  V30 3 1 2 4
M  V30 4 1 3 5
M  V30 5 2 3 6
M  V30 6 2 4 7
M  V30 7 1 4 8
M  V30 8 2 5 9
M  V30 9 1 5 10
M  V30 10 1 6 11
M  V30 11 1 7 12
M  V30 12 2 8 13
M  V30 13 1 11 14
M  V30 14 2 12 15
M  V30 15 1 13 16
M  V30 16 1 14 17
M  V30 17 1 15 18
M  V30 18 1 16 19
M  V30 19 1 7 11
M  V30 20 1 13 15
M  V30 21 1 18 19
M  V30 22 1 6 20
M  V30 23 1 8 21
M  V30 24 1 10 22
M  V30 25 1 12 23
M  V30 26 1 17 24
M  V30 27 1 17 25
M  V30 28 1 17 26
M  V30 29 1 19 27
M  V30 30 1 19 28
M  V30 END BOND
M  V30 END CTAB
M  END
>  <Column 1>
134

>  <level_0>
152

>  <index>
152

>  <Unnamed: 0>
152

>  <NO.>
153

>  <Name>
miloxacin

>  <IUPAC_name>
5-methoxy-8-oxo-[1-3]dioxolo[4-5-g]quinoline-7-carboxylic acid

>  <SMILES>
COn1cc(C(=O)O)c(=O)c2cc3c(cc21)OCO3

>  <CID>
37614

>  <logBB>
-0.92

>  <BBB+/BBB->
BBB+

>  <Inchi>
InChI=1S/C12H9NO6/c1-17-13-4-7(12(15)16)11(14)6-2-9-10(3-8(6)13)19-5-18-9/h2-4H-5H2-1H3-(H-15-16)

>  <threshold>


>  <reference>
R18|R25|R26|R41|R3|R38|R40|R2|R2|R8|R21|R27|R27|R46|R47|

>  <group>
A

>  <Class>
1

>  <ABC>
14.93

>  <ABCGG>
13.01

>  <nAcid>
1

>  <nBase>
0

>  <nAromAtom>
10

>  <nAromBond>
11

>  <nAtom>
28

>  <nHeavyAtom>
19

>  <nSpiro>
0

>  <nBridgehead>
0

>  <nHetero>
7

>  <nN>
1

>  <nO>
6

>  <nF>
0

>  <BalabanJ>
1.8

>  <BertzCT>
747.95

>  <nBonds>
30

>  <nBondsO>
21

>  <nBondsS>
17

>  <nBondsD>
2

>  <nBondsT>
0

>  <nBondsA>
11

>  <nBondsM>
13

>  <nBondsKS>
24

>  <nBondsKD>
6

>  <RNCG>
0.19

>  <RPCG>
0.13

>  <FCSP3>
0.17

>  <SZ>
22.67

>  <Sm>
21.91

>  <Sv>
19.48

>  <Sse>
29.64

>  <Sp>
19.13

>  <Si>
31.42

>  <MZ>
0.81

>  <Mm>
0.78

>  <Mv>
0.7

>  <Mse>
1.06

>  <Mp>
0.68

>  <Mi>
1.12

>  <NsCH3>
1

>  <NdCH2>
0

>  <NssCH2>
1

>  <NtCH>
0

>  <NdsCH>
0

>  <NaaCH>
3

>  <NsssCH>
0

>  <NddC>
0

>  <NtsC>
0

>  <NdssC>
1

>  <NaasC>
3

>  <NaaaC>
2

>  <NssssC>
0

>  <NsNH3>
0

>  <NsNH2>
0

>  <NssNH2>
0

>  <NdNH>
0

>  <NssNH>
0

>  <NaaNH>
0

>  <NtN>
0

>  <NsssNH>
0

>  <NdsN>
0

>  <NaaN>
0

>  <NsssN>
0

>  <NddsN>
0

>  <NaasN>
1

>  <NssssN>
0

>  <NsOH>
1

>  <NdO>
2

>  <NssO>
3

>  <NaaO>
0

>  <NsF>
0

>  <NsSiH3>
0

>  <NssSiH2>
0

>  <NsssSiH>
0

>  <NssssSi>
0

>  <NsPH2>
0

>  <NssPH>
0

>  <NsssP>
0

>  <NdsssP>
0

>  <NsssssP>
0

>  <NsSH>
0

>  <NdS>
0

>  <NssS>
0

>  <NaaS>
0

>  <NdssS>
0

>  <NddssS>
0

>  <NsCl>
0

>  <NsBr>
0

>  <NsI>
0

>  <fragCpx>
99.07

>  <fMF>
0.46

>  <nHBAcc>
6

>  <nHBDon>
1

>  <Kier1>
13.96

>  <Kier2>
5.41

>  <Lipinski>
1

>  <GhoseFilter>
1

>  <FilterItLogS>
-1.59

>  <VMcGowan>
166.76

>  <LabuteASA>
106.04

>  <PEOE_VSA1>
19.42

>  <PEOE_VSA2>
4.79

>  <PEOE_VSA3>
4.79

>  <PEOE_VSA4>
4.73

>  <PEOE_VSA5>
0

>  <PEOE_VSA6>
0

>  <PEOE_VSA7>
6.07

>  <PEOE_VSA8>
6.07

>  <PEOE_VSA9>
17.1

>  <PEOE_VSA10>
12.67

>  <PEOE_VSA11>
11.5

>  <PEOE_VSA12>
12.22

>  <PEOE_VSA13>
0

>  <SMR_VSA1>
24.21

>  <SMR_VSA2>
0

>  <SMR_VSA3>
4.73

>  <SMR_VSA4>
0

>  <SMR_VSA5>
0

>  <SMR_VSA6>
13.9

>  <SMR_VSA7>
34.12

>  <SMR_VSA8>
0

>  <SMR_VSA9>
11.5

>  <SlogP_VSA1>
19.74

>  <SlogP_VSA2>
29.71

>  <SlogP_VSA3>
0

>  <SlogP_VSA4>
0

>  <SlogP_VSA5>
10.36

>  <SlogP_VSA6>
23.12

>  <SlogP_VSA7>
0

>  <SlogP_VSA8>
10.9

>  <SlogP_VSA9>
0

>  <SlogP_VSA10>
0

>  <SlogP_VSA11>
11.5

>  <EState_VSA1>
11.4

>  <EState_VSA2>
17.74

>  <EState_VSA3>
17.02

>  <EState_VSA4>
6.2

>  <EState_VSA5>
17.91

>  <EState_VSA6>
6.07

>  <EState_VSA7>
0

>  <EState_VSA8>
0

>  <EState_VSA9>
19.42

>  <EState_VSA10>
9.59

>  <VSA_EState1>
11.6

>  <VSA_EState2>
28.19

>  <VSA_EState3>
9.21

>  <VSA_EState4>
-0.54

>  <VSA_EState5>
-0.41

>  <VSA_EState6>
3.04

>  <VSA_EState7>
1.13

>  <VSA_EState8>
0.07

>  <VSA_EState9>
1.38

>  <apol>
31.95

>  <bpol>
16.54

>  <nRing>
3

>  <nHRing>
2

>  <naRing>
2

>  <naHRing>
1

>  <nARing 2>
1

>  <nAHRing 2>
1

>  <nFRing>
1

>  <nFHRing>
1

>  <nFaRing>
0

>  <nFaHRing>
0

>  <nFARing 2>
1

>  <nFAHRing 2>
1

>  <nRot>
2

>  <SLogP>
0.49

>  <SMR>
63.79

>  <TopoPSA(NO)>
86.99

>  <TopoPSA>
86.99

>  <JGI1>
0.19

>  <JGI2>
0.09

>  <JGI3>
0.05

>  <JGI4>
0.06

>  <JGI5>
0.03

>  <Diameter>
8

>  <Radius>
4

>  <TMWC10>
114.6

>  <TSRW10>
66.57

>  <MW>
263.04

>  <AMW>
9.39

>  <WPath>
629

>  <WPol>
33

>  <Zagreb1>
104

>  <Zagreb2>
127

>  <mZagreb2>
4.17

>  <yes>


>  <nAR-cont>
0.816016

>  <nHA-cont>
0.998649058

>  <MWHBN>
0.431605671

>  <MWHBN-cont>
0.353642095

>  <TPSA-cont>
0.392755782

>  <pka_cont>
0.97

>  <yes.1>


>  <BBB_SCORE>
3.615639765

>  <MMFF94 Energy>
6.8543

$$$$
Compound 107
Actelion Java MolfileCreator 2.0

  0  0  0  0  0  0              0 V3000
M  V30 BEGIN CTAB
M  V30 COUNTS 41 41 0 0 0
M  V30 BEGIN ATOM
M  V30 1 O 7.1004 -2.4923 1.635 0
M  V30 2 C 6.1226 -1.7671 1.7889 0
M  V30 3 N 6.2288 -0.4147 1.64 0
M  V30 4 C 4.761 -2.2861 2.2101 0
M  V30 5 C 3.6375 -1.8623 1.2933 0
M  V30 6 C 2.588 -1.065 1.7682 0
M  V30 7 C 3.6227 -2.2699 -0.0457 0
M  V30 8 C 1.5478 -0.6726 0.9176 0
M  V30 9 C 2.5834 -1.8759 -0.8914 0
M  V30 10 C 1.5427 -1.075 -0.4173 0
M  V30 11 O 0.5903 -0.7649 -1.3485 0
M  V30 12 C -0.4785 0.0943 -0.9239 0
M  V30 13 C -1.4001 0.3028 -2.1329 0 CFG=1
M  V30 14 O -2.0113 -0.948 -2.4977 0
M  V30 15 C -2.5055 1.3407 -1.8632 0
M  V30 16 N -3.3726 0.9189 -0.751 0
M  V30 17 C -4.5765 1.7492 -0.6155 0
M  V30 18 C -5.5263 1.0605 0.3679 0
M  V30 19 C -4.2464 3.1553 -0.1126 0
M  V30 20 H 7.1265 -0.0362 1.3692 0
M  V30 21 H 5.4321 0.2045 1.6986 0
M  V30 22 H 4.5769 -1.9409 3.2347 0
M  V30 23 H 4.7962 -3.3815 2.2442 0
M  V30 24 H 2.5644 -0.7453 2.8082 0
M  V30 25 H 4.4198 -2.8972 -0.4413 0
M  V30 26 H 0.7546 -0.0596 1.3338 0
M  V30 27 H 2.5865 -2.1991 -1.9296 0
M  V30 28 H -0.0738 1.0581 -0.5939 0
M  V30 29 H -1.0289 -0.3979 -0.1136 0
M  V30 30 H -0.808 0.6226 -2.9983 0
M  V30 31 H -1.2853 -1.6006 -2.5099 0
M  V30 32 H -2.0416 2.3076 -1.6432 0
M  V30 33 H -3.1084 1.4413 -2.7739 0
M  V30 34 H -3.6531 -0.0465 -0.956 0
M  V30 35 H -5.0927 1.8221 -1.5808 0
M  V30 36 H -5.0708 0.9521 1.3589 0
M  V30 37 H -5.8063 0.0625 0.0124 0
M  V30 38 H -6.4493 1.6392 0.4838 0
M  V30 39 H -3.6528 3.7158 -0.8416 0
M  V30 40 H -3.6871 3.1226 0.8291 0
M  V30 41 H -5.1643 3.727 0.0641 0
M  V30 END ATOM
M  V30 BEGIN BOND
M  V30 1 2 1 2
M  V30 2 1 2 3
M  V30 3 1 2 4
M  V30 4 1 4 5
M  V30 5 2 5 6
M  V30 6 1 5 7
M  V30 7 1 6 8
M  V30 8 2 7 9
M  V30 9 2 8 10
M  V30 10 1 10 11
M  V30 11 1 11 12
M  V30 12 1 12 13
M  V30 13 1 13 14
M  V30 14 1 13 15
M  V30 15 1 15 16
M  V30 16 1 16 17
M  V30 17 1 17 18
M  V30 18 1 17 19
M  V30 19 1 9 10
M  V30 20 1 3 20
M  V30 21 1 3 21
M  V30 22 1 4 22
M  V30 23 1 4 23
M  V30 24 1 6 24
M  V30 25 1 7 25
M  V30 26 1 8 26
M  V30 27 1 9 27
M  V30 28 1 12 28
M  V30 29 1 12 29
M  V30 30 1 13 30
M  V30 31 1 14 31
M  V30 32 1 15 32
M  V30 33 1 15 33
M  V30 34 1 16 34
M  V30 35 1 17 35
M  V30 36 1 18 36
M  V30 37 1 18 37
M  V30 38 1 18 38
M  V30 39 1 19 39
M  V30 40 1 19 40
M  V30 41 1 19 41
M  V30 END BOND
M  V30 BEGIN COLLECTION
M  V30 MDLV30/STERAC1 ATOMS=(1 13)
M  V30 END COLLECTION
M  V30 END CTAB
M  END
>  <Column 1>
136

>  <level_0>
154

>  <index>
154

>  <Unnamed: 0>
154

>  <NO.>
155

>  <Name>
atenolol 

>  <IUPAC_name>
2-[4-[2-hydroxy-3-(propan-2-ylamino)propoxy]phenyl]acetamide

>  <SMILES>
CC(C)NCC(O)COc1ccc(CC(N)=O)cc1

>  <CID>
2249

>  <logBB>
-0.9

>  <BBB+/BBB->
BBB+

>  <Inchi>
InChI=1S/C14H22N2O3/c1-10(2)16-8-12(17)9-19-13-5-3-11(4-6-13)7-14(15)18/h3-6-10-12-16-17H-7-9H2-1-2H3-(H2-15-18)

>  <threshold>


>  <reference>
R36|R43|R47|R5|R8|R21|R27|R4|R40|R50|R2|R2|R27|R12|R31|R35|R39|R46|R25|R41|R3|R38|R44|

>  <group>
A

>  <Class>
1

>  <ABC>
13.98

>  <ABCGG>
11.63

>  <nAcid>
0

>  <nBase>
1

>  <nAromAtom>
6

>  <nAromBond>
6

>  <nAtom>
41

>  <nHeavyAtom>
19

>  <nSpiro>
0

>  <nBridgehead>
0

>  <nHetero>
5

>  <nN>
2

>  <nO>
3

>  <nF>
0

>  <BalabanJ>
2.09

>  <BertzCT>
390.18

>  <nBonds>
41

>  <nBondsO>
19

>  <nBondsS>
34

>  <nBondsD>
1

>  <nBondsT>
0

>  <nBondsA>
6

>  <nBondsM>
7

>  <nBondsKS>
37

>  <nBondsKD>
4

>  <RNCG>
0.23

>  <RPCG>
0.1

>  <FCSP3>
0.5

>  <SZ>
24

>  <Sm>
22.17

>  <Sv>
23.62

>  <Sse>
41.08

>  <Sp>
25.54

>  <Si>
46.78

>  <MZ>
0.59

>  <Mm>
0.54

>  <Mv>
0.58

>  <Mse>
1

>  <Mp>
0.62

>  <Mi>
1.14

>  <NsCH3>
2

>  <NdCH2>
0

>  <NssCH2>
3

>  <NtCH>
0

>  <NdsCH>
0

>  <NaaCH>
4

>  <NsssCH>
2

>  <NddC>
0

>  <NtsC>
0

>  <NdssC>
1

>  <NaasC>
2

>  <NaaaC>
0

>  <NssssC>
0

>  <NsNH3>
0

>  <NsNH2>
1

>  <NssNH2>
0

>  <NdNH>
0

>  <NssNH>
1

>  <NaaNH>
0

>  <NtN>
0

>  <NsssNH>
0

>  <NdsN>
0

>  <NaaN>
0

>  <NsssN>
0

>  <NddsN>
0

>  <NaasN>
0

>  <NssssN>
0

>  <NsOH>
1

>  <NdO>
1

>  <NssO>
1

>  <NaaO>
0

>  <NsF>
0

>  <NsSiH3>
0

>  <NssSiH2>
0

>  <NsssSiH>
0

>  <NssssSi>
0

>  <NsPH2>
0

>  <NssPH>
0

>  <NsssP>
0

>  <NdsssP>
0

>  <NsssssP>
0

>  <NsSH>
0

>  <NdS>
0

>  <NssS>
0

>  <NaaS>
0

>  <NdssS>
0

>  <NddssS>
0

>  <NsCl>
0

>  <NsBr>
0

>  <NsI>
0

>  <fragCpx>
19.05

>  <fMF>
0.15

>  <nHBAcc>
4

>  <nHBDon>
3

>  <Kier1>
17.05

>  <Kier2>
9.03

>  <Lipinski>
1

>  <GhoseFilter>
1

>  <FilterItLogS>
-2.69

>  <VMcGowan>
217.63

>  <LabuteASA>
113.31

>  <PEOE_VSA1>
20.89

>  <PEOE_VSA2>
4.79

>  <PEOE_VSA3>
0

>  <PEOE_VSA4>
0

>  <PEOE_VSA5>
0

>  <PEOE_VSA6>
25.98

>  <PEOE_VSA7>
17.7

>  <PEOE_VSA8>
12.59

>  <PEOE_VSA9>
6.42

>  <PEOE_VSA10>
18.46

>  <PEOE_VSA11>
0

>  <PEOE_VSA12>
5.91

>  <PEOE_VSA13>
0

>  <SMR_VSA1>
14.64

>  <SMR_VSA2>
0

>  <SMR_VSA3>
5.32

>  <SMR_VSA4>
5.73

>  <SMR_VSA5>
32.41

>  <SMR_VSA6>
13.15

>  <SMR_VSA7>
29.83

>  <SMR_VSA8>
0

>  <SMR_VSA9>
5.75

>  <SlogP_VSA1>
15.79

>  <SlogP_VSA2>
36.31

>  <SlogP_VSA3>
11.22

>  <SlogP_VSA4>
0

>  <SlogP_VSA5>
19.41

>  <SlogP_VSA6>
24.27

>  <SlogP_VSA7>
0

>  <SlogP_VSA8>
0

>  <SlogP_VSA9>
0

>  <SlogP_VSA10>
0

>  <SlogP_VSA11>
5.75

>  <EState_VSA1>
6.1

>  <EState_VSA2>
18.93

>  <EState_VSA3>
18.34

>  <EState_VSA4>
5.56

>  <EState_VSA5>
0

>  <EState_VSA6>
24.27

>  <EState_VSA7>
13.85

>  <EState_VSA8>
5.32

>  <EState_VSA9>
10.47

>  <EState_VSA10>
9.9

>  <VSA_EState1>
5.45

>  <VSA_EState2>
10.75

>  <VSA_EState3>
12.82

>  <VSA_EState4>
5.96

>  <VSA_EState5>
0.31

>  <VSA_EState6>
7.45

>  <VSA_EState7>
-0.33

>  <VSA_EState8>
4.77

>  <VSA_EState9>
0

>  <apol>
42.66

>  <bpol>
24.67

>  <nRing>
1

>  <nHRing>
0

>  <naRing>
1

>  <naHRing>
0

>  <nARing 2>
0

>  <nAHRing 2>
0

>  <nFRing>
0

>  <nFHRing>
0

>  <nFaRing>
0

>  <nFaHRing>
0

>  <nFARing 2>
0

>  <nFAHRing 2>
0

>  <nRot>
8

>  <SLogP>
0.45

>  <SMR>
73.98

>  <TopoPSA(NO)>
84.58

>  <TopoPSA>
84.58

>  <JGI1>
0.26

>  <JGI2>
0.06

>  <JGI3>
0.03

>  <JGI4>
0.05

>  <JGI5>
0.02

>  <Diameter>
13

>  <Radius>
7

>  <TMWC10>
106.41

>  <TSRW10>
50.89

>  <MW>
266.16

>  <AMW>
6.49

>  <WPath>
890

>  <WPol>
21

>  <Zagreb1>
86

>  <Zagreb2>
91

>  <mZagreb2>
4.33

>  <yes>


>  <nAR-cont>
0.336376

>  <nHA-cont>
0.998649058

>  <MWHBN>
0.429068514

>  <MWHBN-cont>
0.363244079

>  <TPSA-cont>
0.409579079

>  <pka_cont>
0.97

>  <yes.1>


>  <BBB_SCORE>
3.184049335

>  <MMFF94 Energy>
45.393

$$$$
Compound 108
Actelion Java MolfileCreator 2.0

  0  0  0  0  0  0              0 V3000
M  V30 BEGIN CTAB
M  V30 COUNTS 49 52 0 0 0
M  V30 BEGIN ATOM
M  V30 1 O -1.6716 4.9416 -3.0265 0
M  V30 2 C -1.2673 3.8666 -3.4777 0
M  V30 3 N -1.1218 2.7686 -2.6245 0
M  V30 4 C -0.9456 3.7386 -4.8926 0
M  V30 5 C -0.8841 1.3853 -3.0564 0
M  V30 6 C -1.2784 2.9787 -1.1827 0
M  V30 7 O -0.1802 2.7063 -5.3688 0
M  V30 8 C -1.2533 4.5861 -5.9447 0
M  V30 9 C -1.2955 0.3264 -2.0148 0
M  V30 10 C -0.4449 2.002 -0.336 0
M  V30 11 C -0.0297 2.8892 -6.7048 0
M  V30 12 C -0.6733 4.0326 -7.11 0
M  V30 13 N -0.716 0.6174 -0.7093 0
M  V30 14 C -0.442 -0.3973 0.1732 0
M  V30 15 N -0.8011 -1.6463 -0.1486 0
M  V30 16 N 0.1712 -0.095 1.326 0
M  V30 17 C -0.5365 -2.6261 0.7246 0
M  V30 18 C 0.4576 -1.0805 2.182 0
M  V30 19 N -0.9405 -3.89 0.3177 0
M  V30 20 C 0.1299 -2.4101 1.9315 0
M  V30 21 C 1.1094 -0.7657 3.368 0
M  V30 22 C 0.4804 -3.4156 2.8674 0
M  V30 23 C 1.4533 -1.7439 4.3089 0
M  V30 24 C 1.1405 -3.0884 4.0524 0
M  V30 25 O 2.0959 -1.4888 5.495 0
M  V30 26 O 1.5128 -3.9932 5.0128 0
M  V30 27 C 2.4342 -0.14 5.7864 0
M  V30 28 C 1.3084 -5.3718 4.7391 0
M  V30 29 H -1.4297 1.1928 -3.9854 0
M  V30 30 H 0.1904 1.2982 -3.2561 0
M  V30 31 H -2.3452 2.8482 -0.9621 0
M  V30 32 H -1.0135 4.0082 -0.9183 0
M  V30 33 H -1.8291 5.4983 -5.8603 0
M  V30 34 H -2.3882 0.3069 -1.9211 0
M  V30 35 H -0.9769 -0.6499 -2.3991 0
M  V30 36 H -0.6874 2.1886 0.7172 0
M  V30 37 H 0.6223 2.209 -0.4804 0
M  V30 38 H 0.5555 2.138 -7.2168 0
M  V30 39 H -0.7106 4.4241 -8.1168 0
M  V30 40 H -1.3765 -3.8713 -0.5966 0
M  V30 41 H -1.3702 -4.488 1.0073 0
M  V30 42 H 1.3456 0.2805 3.5335 0
M  V30 43 H 0.2323 -4.4451 2.6361 0
M  V30 44 H 3.1354 0.2598 5.0468 0
M  V30 45 H 2.9336 -0.1235 6.76 0
M  V30 46 H 1.5381 0.4845 5.8624 0
M  V30 47 H 0.2413 -5.6018 4.6546 0
M  V30 48 H 1.7052 -5.9431 5.5837 0
M  V30 49 H 1.8532 -5.683 3.8417 0
M  V30 END ATOM
M  V30 BEGIN BOND
M  V30 1 2 1 2
M  V30 2 1 2 3
M  V30 3 1 2 4
M  V30 4 1 3 5
M  V30 5 1 3 6
M  V30 6 1 4 7
M  V30 7 2 4 8
M  V30 8 1 5 9
M  V30 9 1 6 10
M  V30 10 1 7 11
M  V30 11 1 8 12
M  V30 12 1 9 13
M  V30 13 1 13 14
M  V30 14 1 14 15
M  V30 15 2 14 16
M  V30 16 2 15 17
M  V30 17 1 16 18
M  V30 18 1 17 19
M  V30 19 1 17 20
M  V30 20 2 18 21
M  V30 21 2 20 22
M  V30 22 1 21 23
M  V30 23 1 22 24
M  V30 24 1 23 25
M  V30 25 1 24 26
M  V30 26 1 25 27
M  V30 27 1 26 28
M  V30 28 1 10 13
M  V30 29 2 11 12
M  V30 30 1 18 20
M  V30 31 2 23 24
M  V30 32 1 5 29
M  V30 33 1 5 30
M  V30 34 1 6 31
M  V30 35 1 6 32
M  V30 36 1 8 33
M  V30 37 1 9 34
M  V30 38 1 9 35
M  V30 39 1 10 36
M  V30 40 1 10 37
M  V30 41 1 11 38
M  V30 42 1 12 39
M  V30 43 1 19 40
M  V30 44 1 19 41
M  V30 45 1 21 42
M  V30 46 1 22 43
M  V30 47 1 27 44
M  V30 48 1 27 45
M  V30 49 1 27 46
M  V30 50 1 28 47
M  V30 51 1 28 48
M  V30 52 1 28 49
M  V30 END BOND
M  V30 END CTAB
M  END
>  <Column 1>
137

>  <level_0>
155

>  <index>
155

>  <Unnamed: 0>
155

>  <NO.>
156

>  <Name>
prazosin

>  <IUPAC_name>
[4-(4-amino-6-7-dimethoxyquinazolin-2-yl)piperazin-1-yl]-(furan-2-yl)methanone

>  <SMILES>
COc1cc2nc(N3CCN(C(=O)c4ccco4)CC3)nc(N)c2cc1OC

>  <CID>
4893

>  <logBB>
-0.9

>  <BBB+/BBB->
BBB+

>  <Inchi>
InChI=1S/C19H21N5O4/c1-26-15-10-12-13(11-16(15)27-2)21-19(22-17(12)20)24-7-5-23(6-8-24)18(25)14-4-3-9-28-14/h3-4-9-11H-5-8H2-1-2H3-(H2-20-21-22)

>  <threshold>


>  <reference>
R2|R2|R25|R46|

>  <group>
A

>  <Class>
1

>  <ABC>
21.9

>  <ABCGG>
16.79

>  <nAcid>
0

>  <nBase>
0

>  <nAromAtom>
15

>  <nAromBond>
16

>  <nAtom>
49

>  <nHeavyAtom>
28

>  <nSpiro>
0

>  <nBridgehead>
0

>  <nHetero>
9

>  <nN>
5

>  <nO>
4

>  <nF>
0

>  <BalabanJ>
1.31

>  <BertzCT>
997.23

>  <nBonds>
52

>  <nBondsO>
31

>  <nBondsS>
35

>  <nBondsD>
1

>  <nBondsT>
0

>  <nBondsA>
16

>  <nBondsM>
17

>  <nBondsKS>
44

>  <nBondsKD>
8

>  <RNCG>
0.15

>  <RPCG>
0.09

>  <FCSP3>
0.32

>  <SZ>
33.67

>  <Sm>
31.92

>  <Sv>
31.34

>  <Sse>
49.96

>  <Sp>
32.6

>  <Si>
55.65

>  <MZ>
0.69

>  <Mm>
0.65

>  <Mv>
0.64

>  <Mse>
1.02

>  <Mp>
0.67

>  <Mi>
1.14

>  <NsCH3>
2

>  <NdCH2>
0

>  <NssCH2>
4

>  <NtCH>
0

>  <NdsCH>
0

>  <NaaCH>
5

>  <NsssCH>
0

>  <NddC>
0

>  <NtsC>
0

>  <NdssC>
1

>  <NaasC>
5

>  <NaaaC>
2

>  <NssssC>
0

>  <NsNH3>
0

>  <NsNH2>
1

>  <NssNH2>
0

>  <NdNH>
0

>  <NssNH>
0

>  <NaaNH>
0

>  <NtN>
0

>  <NsssNH>
0

>  <NdsN>
0

>  <NaaN>
2

>  <NsssN>
2

>  <NddsN>
0

>  <NaasN>
0

>  <NssssN>
0

>  <NsOH>
0

>  <NdO>
1

>  <NssO>
2

>  <NaaO>
1

>  <NsF>
0

>  <NsSiH3>
0

>  <NssSiH2>
0

>  <NsssSiH>
0

>  <NssssSi>
0

>  <NsPH2>
0

>  <NssPH>
0

>  <NsssP>
0

>  <NdsssP>
0

>  <NsssssP>
0

>  <NsSH>
0

>  <NdS>
0

>  <NssS>
0

>  <NaaS>
0

>  <NdssS>
0

>  <NddssS>
0

>  <NsCl>
0

>  <NsBr>
0

>  <NsI>
0

>  <fragCpx>
205.09

>  <fMF>
0.45

>  <nHBAcc>
8

>  <nHBDon>
1

>  <Kier1>
21.24

>  <Kier2>
9.43

>  <Lipinski>
1

>  <GhoseFilter>
1

>  <FilterItLogS>
-3.87

>  <VMcGowan>
274.11

>  <LabuteASA>
161.2

>  <PEOE_VSA1>
29.42

>  <PEOE_VSA2>
4.79

>  <PEOE_VSA3>
4.98

>  <PEOE_VSA4>
4.98

>  <PEOE_VSA5>
0

>  <PEOE_VSA6>
0

>  <PEOE_VSA7>
18.2

>  <PEOE_VSA8>
37.63

>  <PEOE_VSA9>
26

>  <PEOE_VSA10>
5.82

>  <PEOE_VSA11>
17.26

>  <PEOE_VSA12>
5.95

>  <PEOE_VSA13>
5.91

>  <SMR_VSA1>
18.69

>  <SMR_VSA2>
0

>  <SMR_VSA3>
14.87

>  <SMR_VSA4>
0

>  <SMR_VSA5>
0

>  <SMR_VSA6>
51.03

>  <SMR_VSA7>
36.29

>  <SMR_VSA8>
0

>  <SMR_VSA9>
11.5

>  <SlogP_VSA1>
20.11

>  <SlogP_VSA2>
61.17

>  <SlogP_VSA3>
0

>  <SlogP_VSA4>
0

>  <SlogP_VSA5>
10.55

>  <SlogP_VSA6>
34.95

>  <SlogP_VSA7>
0

>  <SlogP_VSA8>
10.9

>  <SlogP_VSA9>
0

>  <SlogP_VSA10>
11.77

>  <SlogP_VSA11>
11.5

>  <EState_VSA1>
0

>  <EState_VSA2>
5.91

>  <EState_VSA3>
66.11

>  <EState_VSA4>
0

>  <EState_VSA5>
6.26

>  <EState_VSA6>
43.38

>  <EState_VSA7>
4.9

>  <EState_VSA8>
9.97

>  <EState_VSA9>
19.62

>  <EState_VSA10>
4.79

>  <VSA_EState1>
15.87

>  <VSA_EState2>
25.26

>  <VSA_EState3>
0.7

>  <VSA_EState4>
6.84

>  <VSA_EState5>
2.29

>  <VSA_EState6>
6.93

>  <VSA_EState7>
1.5

>  <VSA_EState8>
2.3

>  <VSA_EState9>
3.14

>  <apol>
54.44

>  <bpol>
32.27

>  <nRing>
4

>  <nHRing>
3

>  <naRing>
3

>  <naHRing>
2

>  <nARing 2>
1

>  <nAHRing 2>
1

>  <nFRing>
1

>  <nFHRing>
1

>  <nFaRing>
1

>  <nFaHRing>
1

>  <nFARing 2>
0

>  <nFAHRing 2>
0

>  <nRot>
4

>  <SLogP>
1.78

>  <SMR>
103.88

>  <TopoPSA(NO)>
106.95

>  <TopoPSA>
106.95

>  <JGI1>
0.18

>  <JGI2>
0.09

>  <JGI3>
0.04

>  <JGI4>
0.05

>  <JGI5>
0.03

>  <Diameter>
15

>  <Radius>
8

>  <TMWC10>
136.04

>  <TSRW10>
76.74

>  <MW>
383.16

>  <AMW>
7.82

>  <WPath>
2195

>  <WPol>
47

>  <Zagreb1>
150

>  <Zagreb2>
180

>  <mZagreb2>
6.25

>  <yes>


>  <nAR-cont>
0.816016

>  <nHA-cont>
0.82432561

>  <MWHBN>
0.459782489

>  <MWHBN-cont>
0

>  <TPSA-cont>
0.253422588

>  <pka_cont>
0.97

>  <yes.1>


>  <BBB_SCORE>
2.632186786

>  <MMFF94 Energy>
-9.9526

$$$$
Compound 109
Actelion Java MolfileCreator 2.0

  0  0  0  0  0  0              0 V3000
M  V30 BEGIN CTAB
M  V30 COUNTS 61 63 0 0 0
M  V30 BEGIN ATOM
M  V30 1 Cl 5.1668 -0.5641 7.5957 0
M  V30 2 C 4.0759 0.5789 6.9171 0
M  V30 3 C 3.379 0.2705 5.7541 0
M  V30 4 C 3.8945 1.8096 7.535 0
M  V30 5 C 2.4829 1.1976 5.1877 0
M  V30 6 C 3.0085 2.7412 6.9865 0
M  V30 7 C 2.2943 2.4514 5.8132 0
M  V30 8 C 1.7906 0.7492 3.9326 0
M  V30 9 O 1.4121 3.3316 5.2373 0
M  V30 10 O 2.0 -0.3729 3.4796 0
M  V30 11 N 0.9264 1.629 3.3246 0
M  V30 12 C 1.2215 4.5968 5.8633 0
M  V30 13 C 0.2192 1.3022 2.1035 0
M  V30 14 C -1.008 0.4271 2.3661 0
M  V30 15 C -1.7371 0.0898 1.0882 0
M  V30 16 C -1.3221 -1.0021 0.3114 0
M  V30 17 C -2.8168 0.8721 0.6546 0
M  V30 18 C -1.976 -1.3119 -0.8813 0
M  V30 19 C -3.4745 0.5683 -0.5382 0
M  V30 20 C -3.0417 -0.5156 -1.307 0
M  V30 21 S -3.8877 -0.8955 -2.8216 0
M  V30 22 O -5.2843 -0.5654 -2.643 0
M  V30 23 O -3.4628 -2.2101 -3.2577 0
M  V30 24 N -3.2493 0.2221 -3.8572 0
M  V30 25 C -1.9704 0.2773 -4.3882 0
M  V30 26 O -1.5823 1.3228 -4.8854 0
M  V30 27 N -1.2383 -0.8678 -4.3433 0
M  V30 28 C 0.1137 -0.9709 -4.8704 0
M  V30 29 C 0.9478 -1.9473 -4.0318 0
M  V30 30 C 0.0935 -1.3797 -6.3488 0
M  V30 31 C 0.5453 -3.4069 -4.2426 0
M  V30 32 C -0.3216 -2.8374 -6.5463 0
M  V30 33 C 0.5428 -3.7849 -5.7204 0
M  V30 34 H 3.5323 -0.6983 5.2816 0
M  V30 35 H 4.4383 2.0532 8.4447 0
M  V30 36 H 2.9011 3.6882 7.5067 0
M  V30 37 H 0.7916 2.5414 3.7486 0
M  V30 38 H 0.8072 4.4802 6.87 0
M  V30 39 H 0.4934 5.1555 5.2674 0
M  V30 40 H 2.1518 5.1738 5.8775 0
M  V30 41 H 0.9156 0.8003 1.4214 0
M  V30 42 H -0.0745 2.2503 1.6393 0
M  V30 43 H -0.7196 -0.5021 2.8737 0
M  V30 44 H -1.6898 0.9375 3.0589 0
M  V30 45 H -0.4857 -1.6187 0.6389 0
M  V30 46 H -3.1548 1.7198 1.2476 0
M  V30 47 H -1.6457 -2.169 -1.4627 0
M  V30 48 H -4.319 1.1755 -0.8564 0
M  V30 49 H -3.8138 1.0566 -3.9779 0
M  V30 50 H -1.7272 -1.7179 -4.0781 0
M  V30 51 H 0.571 0.0234 -4.7954 0
M  V30 52 H 2.0047 -1.8334 -4.3049 0
M  V30 53 H 0.8671 -1.6986 -2.9667 0
M  V30 54 H 1.0974 -1.2396 -6.7694 0
M  V30 55 H -0.5818 -0.7299 -6.9182 0
M  V30 56 H 1.2385 -4.0588 -3.6988 0
M  V30 57 H -0.4499 -3.5842 -3.8178 0
M  V30 58 H -1.3747 -2.9645 -6.2673 0
M  V30 59 H -0.2418 -3.0997 -7.6074 0
M  V30 60 H 0.1794 -4.8121 -5.8373 0
M  V30 61 H 1.571 -3.7651 -6.1024 0
M  V30 END ATOM
M  V30 BEGIN BOND
M  V30 1 1 1 2
M  V30 2 2 2 3
M  V30 3 1 2 4
M  V30 4 1 3 5
M  V30 5 2 4 6
M  V30 6 2 5 7
M  V30 7 1 5 8
M  V30 8 1 7 9
M  V30 9 2 8 10
M  V30 10 1 8 11
M  V30 11 1 9 12
M  V30 12 1 11 13
M  V30 13 1 13 14
M  V30 14 1 14 15
M  V30 15 2 15 16
M  V30 16 1 15 17
M  V30 17 1 16 18
M  V30 18 2 17 19
M  V30 19 2 18 20
M  V30 20 1 20 21
M  V30 21 2 21 22
M  V30 22 2 21 23
M  V30 23 1 21 24
M  V30 24 1 24 25
M  V30 25 2 25 26
M  V30 26 1 25 27
M  V30 27 1 27 28
M  V30 28 1 28 29
M  V30 29 1 28 30
M  V30 30 1 29 31
M  V30 31 1 30 32
M  V30 32 1 31 33
M  V30 33 1 6 7
M  V30 34 1 19 20
M  V30 35 1 32 33
M  V30 36 1 3 34
M  V30 37 1 4 35
M  V30 38 1 6 36
M  V30 39 1 11 37
M  V30 40 1 12 38
M  V30 41 1 12 39
M  V30 42 1 12 40
M  V30 43 1 13 41
M  V30 44 1 13 42
M  V30 45 1 14 43
M  V30 46 1 14 44
M  V30 47 1 16 45
M  V30 48 1 17 46
M  V30 49 1 18 47
M  V30 50 1 19 48
M  V30 51 1 24 49
M  V30 52 1 27 50
M  V30 53 1 28 51
M  V30 54 1 29 52
M  V30 55 1 29 53
M  V30 56 1 30 54
M  V30 57 1 30 55
M  V30 58 1 31 56
M  V30 59 1 31 57
M  V30 60 1 32 58
M  V30 61 1 32 59
M  V30 62 1 33 60
M  V30 63 1 33 61
M  V30 END BOND
M  V30 END CTAB
M  END
>  <Column 1>
138

>  <level_0>
156

>  <index>
156

>  <Unnamed: 0>
156

>  <NO.>
157

>  <Name>
glibenclamide

>  <IUPAC_name>
5-chloro-n-[2-[4-(cyclohexylcarbamoylsulfamoyl)phenyl]ethyl]-2-methoxybenzamide

>  <SMILES>
COc1ccc(Cl)cc1C(=O)NCCc1ccc(S(=O)(=O)NC(=O)NC2CCCCC2)cc1

>  <CID>
3488

>  <logBB>
-0.9

>  <BBB+/BBB->
BBB+

>  <Inchi>
InChI=1S/C23H28ClN3O5S/c1-32-21-12-9-17(24)15-20(21)22(28)25-14-13-16-7-10-19(11-8-16)33(30-31)27-23(29)26-18-5-3-2-4-6-18/h7-12-15-18H-2-6-13-14H2-1H3-(H-25-28)(H2-26-27-29)

>  <threshold>


>  <reference>
R2|R2|R25|R46|

>  <group>
A

>  <Class>
1

>  <ABC>
25.25

>  <ABCGG>
18.88

>  <nAcid>
0

>  <nBase>
0

>  <nAromAtom>
12

>  <nAromBond>
12

>  <nAtom>
61

>  <nHeavyAtom>
33

>  <nSpiro>
0

>  <nBridgehead>
0

>  <nHetero>
10

>  <nN>
3

>  <nO>
5

>  <nF>
0

>  <BalabanJ>
1.34

>  <BertzCT>
1083.78

>  <nBonds>
63

>  <nBondsO>
35

>  <nBondsS>
47

>  <nBondsD>
4

>  <nBondsT>
0

>  <nBondsA>
12

>  <nBondsM>
16

>  <nBondsKS>
53

>  <nBondsKD>
10

>  <RNCG>
0.17

>  <RPCG>
0.11

>  <FCSP3>
0.39

>  <SZ>
43.33

>  <Sm>
41.13

>  <Sv>
38.71

>  <Sse>
61.91

>  <Sp>
41.6

>  <Si>
68.8

>  <MZ>
0.71

>  <Mm>
0.67

>  <Mv>
0.63

>  <Mse>
1.02

>  <Mp>
0.68

>  <Mi>
1.13

>  <NsCH3>
1

>  <NdCH2>
0

>  <NssCH2>
7

>  <NtCH>
0

>  <NdsCH>
0

>  <NaaCH>
7

>  <NsssCH>
1

>  <NddC>
0

>  <NtsC>
0

>  <NdssC>
2

>  <NaasC>
5

>  <NaaaC>
0

>  <NssssC>
0

>  <NsNH3>
0

>  <NsNH2>
0

>  <NssNH2>
0

>  <NdNH>
0

>  <NssNH>
3

>  <NaaNH>
0

>  <NtN>
0

>  <NsssNH>
0

>  <NdsN>
0

>  <NaaN>
0

>  <NsssN>
0

>  <NddsN>
0

>  <NaasN>
0

>  <NssssN>
0

>  <NsOH>
0

>  <NdO>
4

>  <NssO>
1

>  <NaaO>
0

>  <NsF>
0

>  <NsSiH3>
0

>  <NssSiH2>
0

>  <NsssSiH>
0

>  <NssssSi>
0

>  <NsPH2>
0

>  <NssPH>
0

>  <NsssP>
0

>  <NdsssP>
0

>  <NsssssP>
0

>  <NsSH>
0

>  <NdS>
0

>  <NssS>
0

>  <NaaS>
0

>  <NdssS>
0

>  <NddssS>
1

>  <NsCl>
1

>  <NsBr>
0

>  <NsI>
0

>  <fragCpx>
169.1

>  <fMF>
0.43

>  <nHBAcc>
5

>  <nHBDon>
3

>  <Kier1>
27.59

>  <Kier2>
13.35

>  <Lipinski>
1

>  <GhoseFilter>
0

>  <FilterItLogS>
-6.65

>  <VMcGowan>
355.83

>  <LabuteASA>
198.65

>  <PEOE_VSA1>
15.37

>  <PEOE_VSA2>
4.79

>  <PEOE_VSA3>
17.93

>  <PEOE_VSA4>
0

>  <PEOE_VSA5>
0

>  <PEOE_VSA6>
43

>  <PEOE_VSA7>
55.16

>  <PEOE_VSA8>
17.61

>  <PEOE_VSA9>
17.57

>  <PEOE_VSA10>
5.75

>  <PEOE_VSA11>
0

>  <PEOE_VSA12>
0

>  <PEOE_VSA13>
15.93

>  <SMR_VSA1>
22.74

>  <SMR_VSA2>
0

>  <SMR_VSA3>
15.36

>  <SMR_VSA4>
0

>  <SMR_VSA5>
49.46

>  <SMR_VSA6>
13.65

>  <SMR_VSA7>
58.61

>  <SMR_VSA8>
0

>  <SMR_VSA9>
5.75

>  <SlogP_VSA1>
20.09

>  <SlogP_VSA2>
40.05

>  <SlogP_VSA3>
16.44

>  <SlogP_VSA4>
0

>  <SlogP_VSA5>
48.03

>  <SlogP_VSA6>
47.36

>  <SlogP_VSA7>
5.02

>  <SlogP_VSA8>
0

>  <SlogP_VSA9>
0

>  <SlogP_VSA10>
4.79

>  <SlogP_VSA11>
5.75

>  <EState_VSA1>
16.05

>  <EState_VSA2>
16.84

>  <EState_VSA3>
29.3

>  <EState_VSA4>
37.67

>  <EState_VSA5>
25.31

>  <EState_VSA6>
24.27

>  <EState_VSA7>
0

>  <EState_VSA8>
15.36

>  <EState_VSA9>
16.34

>  <EState_VSA10>
18.01

>  <VSA_EState1>
32.25

>  <VSA_EState2>
24.52

>  <VSA_EState3>
5.96

>  <VSA_EState4>
1.17

>  <VSA_EState5>
0.1

>  <VSA_EState6>
10.29

>  <VSA_EState7>
5.43

>  <VSA_EState8>
0.34

>  <VSA_EState9>
-2.49

>  <apol>
69.47

>  <bpol>
40.44

>  <nRing>
3

>  <nHRing>
0

>  <naRing>
2

>  <naHRing>
0

>  <nARing 2>
1

>  <nAHRing 2>
0

>  <nFRing>
0

>  <nFHRing>
0

>  <nFaRing>
0

>  <nFaHRing>
0

>  <nFARing 2>
0

>  <nFAHRing 2>
0

>  <nRot>
8

>  <SLogP>
3.64

>  <SMR>
126.21

>  <TopoPSA(NO)>
113.6

>  <TopoPSA>
121.98

>  <JGI1>
0.23

>  <JGI2>
0.08

>  <JGI3>
0.05

>  <JGI4>
0.04

>  <JGI5>
0.03

>  <Diameter>
19

>  <Radius>
10

>  <TMWC10>
144.51

>  <TSRW10>
68.82

>  <MW>
493.14

>  <AMW>
8.08

>  <WPath>
3998

>  <WPol>
49

>  <Zagreb1>
166

>  <Zagreb2>
189

>  <mZagreb2>
7.35

>  <yes>


>  <nAR-cont>
0.816016

>  <nHA-cont>
0.61399562

>  <MWHBN>
0.360250732

>  <MWHBN-cont>
0.631462343

>  <TPSA-cont>
0

>  <pka_cont>
0.97

>  <yes.1>


>  <BBB_SCORE>
2.862205135

>  <MMFF94 Energy>
-141.12

$$$$
Compound 110
Actelion Java MolfileCreator 2.0

  0  0  0  0  0  0              0 V3000
M  V30 BEGIN CTAB
M  V30 COUNTS 52 55 0 0 0
M  V30 BEGIN ATOM
M  V30 1 O 1.4572 -6.2448 1.5382 0
M  V30 2 C 0.8702 -5.2138 1.236 0
M  V30 3 C 0.616 -4.1544 2.2328 0
M  V30 4 C 0.4043 -4.9682 -0.14 0
M  V30 5 C -0.0407 -3.0227 1.9196 0
M  V30 6 C -0.2518 -3.8435 -0.4552 0
M  V30 7 C -0.6033 -2.7215 0.5176 0 CFG=2
M  V30 8 C -0.2093 -1.9388 2.955 0
M  V30 9 C 0.028 -1.3678 0.048 0 CFG=1
M  V30 10 C -2.1453 -2.672 0.6113 0
M  V30 11 C 0.4089 -0.6343 2.4625 0
M  V30 12 C -0.4241 -0.8579 -1.3331 0
M  V30 13 C -0.1502 -0.2196 1.0922 0 CFG=1
M  V30 14 O -1.2251 -1.4498 -2.0535 0
M  V30 15 C 0.2144 0.4373 -1.8185 0
M  V30 16 C 0.5436 1.0462 0.5644 0 CFG=1
M  V30 17 C -0.0316 1.5481 -0.7885 0 CFG=1
M  V30 18 C 0.5336 2.2901 1.4429 0
M  V30 19 C 0.7972 2.8553 -0.9646 0
M  V30 20 C -1.5495 1.869 -0.73 0
M  V30 21 C 0.8393 3.4468 0.4744 0
M  V30 22 O 2.1371 2.519 -1.3386 0
M  V30 23 C 0.2358 3.8603 -1.9944 0
M  V30 24 O -0.259 4.9433 -1.6654 0
M  V30 25 C 0.2939 3.4729 -3.4684 0
M  V30 26 O 0.1115 4.6092 -4.3041 0
M  V30 27 H 1.0138 -4.3498 3.2224 0
M  V30 28 H 0.6107 -5.7444 -0.8667 0
M  V30 29 H -0.592 -3.7364 -1.4844 0
M  V30 30 H 0.2626 -2.2169 3.9054 0
M  V30 31 H -1.2735 -1.7946 3.1736 0
M  V30 32 H 1.1098 -1.545 -0.0702 0
M  V30 33 H -2.541 -3.5868 1.0715 0
M  V30 34 H -2.6198 -2.5872 -0.3717 0
M  V30 35 H -2.505 -1.8315 1.2124 0
M  V30 36 H 1.4995 -0.7462 2.4016 0
M  V30 37 H 0.2123 0.1492 3.2035 0
M  V30 38 H -1.2167 -0.0067 1.2258 0
M  V30 39 H -0.2157 0.6929 -2.7915 0
M  V30 40 H 1.2799 0.2366 -1.9752 0
M  V30 41 H 1.6037 0.7809 0.4196 0
M  V30 42 H 1.2827 2.2342 2.2396 0
M  V30 43 H -0.4422 2.4384 1.9188 0
M  V30 44 H -1.7854 2.6516 -0.0023 0
M  V30 45 H -1.9119 2.214 -1.7046 0
M  V30 46 H -2.1542 0.9952 -0.47 0
M  V30 47 H 0.0964 4.2361 0.6327 0
M  V30 48 H 1.8219 3.8747 0.7042 0
M  V30 49 H 2.6911 3.3153 -1.2298 0
M  V30 50 H 1.2637 3.0327 -3.7087 0
M  V30 51 H -0.5045 2.7614 -3.6865 0
M  V30 52 H -0.4669 5.2247 -3.81 0
M  V30 END ATOM
M  V30 BEGIN BOND
M  V30 1 2 1 2
M  V30 2 1 2 3
M  V30 3 1 2 4
M  V30 4 2 3 5
M  V30 5 2 4 6
M  V30 6 1 5 7
M  V30 7 1 5 8
M  V30 8 1 7 9
M  V30 9 1 7 10
M  V30 10 1 8 11
M  V30 11 1 9 12
M  V30 12 1 9 13
M  V30 13 2 12 14
M  V30 14 1 12 15
M  V30 15 1 13 16
M  V30 16 1 15 17
M  V30 17 1 16 18
M  V30 18 1 17 19
M  V30 19 1 17 20
M  V30 20 1 18 21
M  V30 21 1 19 22
M  V30 22 1 19 23
M  V30 23 2 23 24
M  V30 24 1 23 25
M  V30 25 1 25 26
M  V30 26 1 6 7
M  V30 27 1 11 13
M  V30 28 1 16 17
M  V30 29 1 19 21
M  V30 30 1 3 27
M  V30 31 1 4 28
M  V30 32 1 6 29
M  V30 33 1 8 30
M  V30 34 1 8 31
M  V30 35 1 9 32
M  V30 36 1 10 33
M  V30 37 1 10 34
M  V30 38 1 10 35
M  V30 39 1 11 36
M  V30 40 1 11 37
M  V30 41 1 13 38
M  V30 42 1 15 39
M  V30 43 1 15 40
M  V30 44 1 16 41
M  V30 45 1 18 42
M  V30 46 1 18 43
M  V30 47 1 20 44
M  V30 48 1 20 45
M  V30 49 1 20 46
M  V30 50 1 21 47
M  V30 51 1 21 48
M  V30 52 1 22 49
M  V30 53 1 25 50
M  V30 54 1 25 51
M  V30 55 1 26 52
M  V30 END BOND
M  V30 BEGIN COLLECTION
M  V30 MDLV30/STEABS ATOMS=(5 7 9 13 16 17)
M  V30 END COLLECTION
M  V30 END CTAB
M  END
>  <Column 1>
139

>  <level_0>
157

>  <index>
157

>  <Unnamed: 0>
157

>  <NO.>
158

>  <Name>
prednisone

>  <IUPAC_name>


>  <SMILES>
C[C@]12CC(=O)[C@H]3[C@@H](CCC4=CC(=O)C=C[C@@]43C)[C@@H]1CCC2(O)C(=O)CO

>  <CID>


>  <logBB>
-0.9

>  <BBB+/BBB->
BBB+

>  <Inchi>
InChI=1S/C21H26O5/c1-19-7-5-13(23)9-12(19)3-4-14-15-6-8-21(26-17(25)11-22)20(15-2)10-16(24)18(14)19/h5-7-9-14-15-18-22-26H-3-4-6-8-10-11H2-1-2H3/t14--15--18+-19--20--21?/m0/s1

>  <threshold>


>  <reference>
R18|R26|R27|

>  <group>
A

>  <Class>
1

>  <ABC>
20.85

>  <ABCGG>
17.26

>  <nAcid>
0

>  <nBase>
0

>  <nAromAtom>
0

>  <nAromBond>
0

>  <nAtom>
52

>  <nHeavyAtom>
26

>  <nSpiro>
0

>  <nBridgehead>
0

>  <nHetero>
5

>  <nN>
0

>  <nO>
5

>  <nF>
0

>  <BalabanJ>
1.68

>  <BertzCT>
764.36

>  <nBonds>
55

>  <nBondsO>
29

>  <nBondsS>
50

>  <nBondsD>
5

>  <nBondsT>
0

>  <nBondsA>
0

>  <nBondsM>
5

>  <nBondsKS>
50

>  <nBondsKD>
5

>  <RNCG>
0.18

>  <RPCG>
0.1

>  <FCSP3>
0.67

>  <SZ>
32

>  <Sm>
29.84

>  <Sv>
31.62

>  <Sse>
52.2

>  <Sp>
33.78

>  <Si>
58.45

>  <MZ>
0.62

>  <Mm>
0.57

>  <Mv>
0.61

>  <Mse>
1

>  <Mp>
0.65

>  <Mi>
1.12

>  <NsCH3>
2

>  <NdCH2>
0

>  <NssCH2>
6

>  <NtCH>
0

>  <NdsCH>
3

>  <NaaCH>
0

>  <NsssCH>
3

>  <NddC>
0

>  <NtsC>
0

>  <NdssC>
4

>  <NaasC>
0

>  <NaaaC>
0

>  <NssssC>
3

>  <NsNH3>
0

>  <NsNH2>
0

>  <NssNH2>
0

>  <NdNH>
0

>  <NssNH>
0

>  <NaaNH>
0

>  <NtN>
0

>  <NsssNH>
0

>  <NdsN>
0

>  <NaaN>
0

>  <NsssN>
0

>  <NddsN>
0

>  <NaasN>
0

>  <NssssN>
0

>  <NsOH>
2

>  <NdO>
3

>  <NssO>
0

>  <NaaO>
0

>  <NsF>
0

>  <NsSiH3>
0

>  <NssSiH2>
0

>  <NsssSiH>
0

>  <NssssSi>
0

>  <NsPH2>
0

>  <NssPH>
0

>  <NsssP>
0

>  <NdsssP>
0

>  <NsssssP>
0

>  <NsSH>
0

>  <NdS>
0

>  <NssS>
0

>  <NaaS>
0

>  <NdssS>
0

>  <NddssS>
0

>  <NsCl>
0

>  <NsBr>
0

>  <NsI>
0

>  <fragCpx>
191.05

>  <fMF>
0.33

>  <nHBAcc>
5

>  <nHBDon>
2

>  <Kier1>
19.32

>  <Kier2>
6.25

>  <Lipinski>
1

>  <GhoseFilter>
1

>  <FilterItLogS>
-2.86

>  <VMcGowan>
271.16

>  <LabuteASA>
152.71

>  <PEOE_VSA1>
10.21

>  <PEOE_VSA2>
14.38

>  <PEOE_VSA3>
0

>  <PEOE_VSA4>
0

>  <PEOE_VSA5>
0

>  <PEOE_VSA6>
25.5

>  <PEOE_VSA7>
49.67

>  <PEOE_VSA8>
23.17

>  <PEOE_VSA9>
0

>  <PEOE_VSA10>
17.99

>  <PEOE_VSA11>
11.57

>  <PEOE_VSA12>
0

>  <PEOE_VSA13>
0

>  <SMR_VSA1>
24.6

>  <SMR_VSA2>
0

>  <SMR_VSA3>
0

>  <SMR_VSA4>
28.58

>  <SMR_VSA5>
51.55

>  <SMR_VSA6>
6.61

>  <SMR_VSA7>
23.8

>  <SMR_VSA8>
0

>  <SMR_VSA9>
0

>  <SlogP_VSA1>
0

>  <SlogP_VSA2>
39.77

>  <SlogP_VSA3>
14.38

>  <SlogP_VSA4>
28.58

>  <SlogP_VSA5>
45.95

>  <SlogP_VSA6>
23.8

>  <SlogP_VSA7>
0

>  <SlogP_VSA8>
0

>  <SlogP_VSA9>
0

>  <SlogP_VSA10>
0

>  <SlogP_VSA11>
0

>  <EState_VSA1>
28.82

>  <EState_VSA2>
35.74

>  <EState_VSA3>
12.84

>  <EState_VSA4>
18.41

>  <EState_VSA5>
0

>  <EState_VSA6>
12.15

>  <EState_VSA7>
19.92

>  <EState_VSA8>
0

>  <EState_VSA9>
0

>  <EState_VSA10>
24.6

>  <VSA_EState1>
0

>  <VSA_EState2>
37.39

>  <VSA_EState3>
20.46

>  <VSA_EState4>
-1.86

>  <VSA_EState5>
-0.59

>  <VSA_EState6>
0

>  <VSA_EState7>
7.82

>  <VSA_EState8>
3.19

>  <VSA_EState9>
0

>  <apol>
56.42

>  <bpol>
28.69

>  <nRing>
4

>  <nHRing>
0

>  <naRing>
0

>  <naHRing>
0

>  <nARing 2>
4

>  <nAHRing 2>
0

>  <nFRing>
1

>  <nFHRing>
0

>  <nFaRing>
0

>  <nFaHRing>
0

>  <nFARing 2>
1

>  <nFAHRing 2>
0

>  <nRot>
2

>  <SLogP>
1.77

>  <SMR>
94.05

>  <TopoPSA(NO)>
91.67

>  <TopoPSA>
91.67

>  <JGI1>
0.29

>  <JGI2>
0.14

>  <JGI3>
0.07

>  <JGI4>
0.06

>  <JGI5>
0.04

>  <Diameter>
12

>  <Radius>
6

>  <TMWC10>
135.18

>  <TSRW10>
77.19

>  <MW>
358.18

>  <AMW>
6.89

>  <WPath>
1425

>  <WPol>
59

>  <Zagreb1>
154

>  <Zagreb2>
198

>  <mZagreb2>
5.44

>  <yes>


>  <nAR-cont>
0.199399

>  <nHA-cont>
0.892715677

>  <MWHBN>
0.369868524

>  <MWHBN-cont>
0.59437592

>  <TPSA-cont>
0.360086476

>  <pka_cont>
0.97

>  <yes.1>


>  <BBB_SCORE>
3.18885151

>  <MMFF94 Energy>
118.88

$$$$
Compound 111
Actelion Java MolfileCreator 2.0

  0  0  0  0  0  0              0 V3000
M  V30 BEGIN CTAB
M  V30 COUNTS 62 65 0 0 0
M  V30 BEGIN ATOM
M  V30 1 F 2.5579 -1.838 -5.6822 0
M  V30 2 C 2.2213 -0.9475 -4.7332 0
M  V30 3 F 0.9661 -0.5148 -4.9998 0
M  V30 4 C 2.2787 -1.5399 -3.3419 0
M  V30 5 C 3.1749 0.2273 -4.6882 0
M  V30 6 C 2.2492 -0.2828 -2.4664 0
M  V30 7 C 3.0994 0.7429 -3.2468 0
M  V30 8 C 2.6038 -0.4692 -0.9706 0
M  V30 9 O 2.5676 0.8594 -0.3769 0
M  V30 10 C 3.991 -1.0685 -0.7006 0
M  V30 11 C 1.4133 -1.2436 -0.2924 0
M  V30 12 C 5.1111 -0.2304 -0.5161 0
M  V30 13 C 4.2194 -2.4545 -0.6607 0
M  V30 14 O 1.2627 -2.4617 -0.3208 0
M  V30 15 N 0.4787 -0.4051 0.2928 0
M  V30 16 C 6.3867 -0.7513 -0.2818 0
M  V30 17 C 5.4953 -2.9777 -0.4255 0
M  V30 18 C -0.7496 -0.8877 0.9038 0
M  V30 19 C 6.5778 -2.1268 -0.233 0
M  V30 20 C -1.2277 0.0785 1.9873 0
M  V30 21 C -1.8356 -1.0972 -0.1539 0
M  V30 22 C -2.5762 -0.3649 2.555 0
M  V30 23 C -3.1614 -1.4936 0.4962 0
M  V30 24 N -3.6216 -0.5647 1.5387 0
M  V30 25 C -4.1139 0.704 0.9586 0
M  V30 26 C -4.8189 1.61 1.9536 0
M  V30 27 N -4.248 2.8175 2.2085 0
M  V30 28 C -5.9963 1.1924 2.5687 0
M  V30 29 C -4.8532 3.6268 3.094 0
M  V30 30 C -6.6147 2.0489 3.4694 0
M  V30 31 N -4.269 4.859 3.2994 0
M  V30 32 C -6.038 3.2875 3.7307 0
M  V30 33 H 1.4247 -2.1946 -3.1459 0
M  V30 34 H 3.1987 -2.1193 -3.2246 0
M  V30 35 H 4.1958 -0.0967 -4.9194 0
M  V30 36 H 2.8967 1.0062 -5.4047 0
M  V30 37 H 1.219 0.1076 -2.5042 0
M  V30 38 H 2.6311 1.7331 -3.2092 0
M  V30 39 H 4.1121 0.8517 -2.8514 0
M  V30 40 H 2.8935 0.7439 0.5358 0
M  V30 41 H 5.0065 0.8528 -0.565 0
M  V30 42 H 3.4118 -3.166 -0.8212 0
M  V30 43 H 0.6332 0.594 0.1759 0
M  V30 44 H 7.2305 -0.0802 -0.1428 0
M  V30 45 H 5.6389 -4.0553 -0.3967 0
M  V30 46 H -0.5292 -1.8563 1.3715 0
M  V30 47 H 7.568 -2.5359 -0.0521 0
M  V30 48 H -1.3003 1.0975 1.5872 0
M  V30 49 H -0.4876 0.1223 2.796 0
M  V30 50 H -1.9626 -0.1862 -0.7523 0
M  V30 51 H -1.5284 -1.881 -0.8571 0
M  V30 52 H -2.4373 -1.3149 3.0884 0
M  V30 53 H -2.9029 0.3429 3.3254 0
M  V30 54 H -3.0522 -2.4888 0.9468 0
M  V30 55 H -3.9322 -1.6095 -0.2757 0
M  V30 56 H -4.8461 0.4833 0.1703 0
M  V30 57 H -3.3076 1.2678 0.4748 0
M  V30 58 H -6.4173 0.2161 2.3506 0
M  V30 59 H -7.5378 1.7575 3.961 0
M  V30 60 H -4.2951 5.2517 4.2273 0
M  V30 61 H -3.4233 4.9841 2.7585 0
M  V30 62 H -6.5133 3.9775 4.4185 0
M  V30 END ATOM
M  V30 BEGIN BOND
M  V30 1 1 1 2
M  V30 2 1 2 3
M  V30 3 1 2 4
M  V30 4 1 2 5
M  V30 5 1 4 6
M  V30 6 1 5 7
M  V30 7 1 6 8
M  V30 8 1 8 9
M  V30 9 1 8 10
M  V30 10 1 8 11
M  V30 11 2 10 12
M  V30 12 1 10 13
M  V30 13 2 11 14
M  V30 14 1 11 15
M  V30 15 1 12 16
M  V30 16 2 13 17
M  V30 17 1 15 18
M  V30 18 2 16 19
M  V30 19 1 18 20
M  V30 20 1 18 21
M  V30 21 1 20 22
M  V30 22 1 21 23
M  V30 23 1 22 24
M  V30 24 1 24 25
M  V30 25 1 25 26
M  V30 26 2 26 27
M  V30 27 1 26 28
M  V30 28 1 27 29
M  V30 29 2 28 30
M  V30 30 1 29 31
M  V30 31 2 29 32
M  V30 32 1 6 7
M  V30 33 1 17 19
M  V30 34 1 23 24
M  V30 35 1 30 32
M  V30 36 1 4 33
M  V30 37 1 4 34
M  V30 38 1 5 35
M  V30 39 1 5 36
M  V30 40 1 6 37
M  V30 41 1 7 38
M  V30 42 1 7 39
M  V30 43 1 9 40
M  V30 44 1 12 41
M  V30 45 1 13 42
M  V30 46 1 15 43
M  V30 47 1 16 44
M  V30 48 1 17 45
M  V30 49 1 18 46
M  V30 50 1 19 47
M  V30 51 1 20 48
M  V30 52 1 20 49
M  V30 53 1 21 50
M  V30 54 1 21 51
M  V30 55 1 22 52
M  V30 56 1 22 53
M  V30 57 1 23 54
M  V30 58 1 23 55
M  V30 59 1 25 56
M  V30 60 1 25 57
M  V30 61 1 28 58
M  V30 62 1 30 59
M  V30 63 1 31 60
M  V30 64 1 31 61
M  V30 65 1 32 62
M  V30 END BOND
M  V30 END CTAB
M  END
>  <Column 1>
141

>  <level_0>
159

>  <index>
159

>  <Unnamed: 0>
159

>  <NO.>
160

>  <Name>
l001588

>  <IUPAC_name>
n-[1-[(6-aminopyridin-2-yl)methyl]piperidin-4-yl]-2-(3-3-difluorocyclopentyl)-2-hydroxy-2-phenylacetamide

>  <SMILES>
Nc1cccc(CN2CCC(NC(=O)C(O)(c3ccccc3)C3CCC(F)(F)C3)CC2)n1

>  <CID>
19349126

>  <logBB>
-0.89

>  <BBB+/BBB->
BBB+

>  <Inchi>
InChI=1S/C24H30F2N4O2/c25-23(26)12-9-18(15-23)24(32-17-5-2-1-3-6-17)22(31)29-19-10-13-30(14-11-19)16-20-7-4-8-21(27)28-20/h1-8-18-19-32H-9-16H2-(H2-27-28)(H-29-31)

>  <threshold>


>  <reference>
R18|R26|R27|R47|R4|R2|R2|R40|

>  <group>
A

>  <Class>
1

>  <ABC>
25.26

>  <ABCGG>
19.51

>  <nAcid>
0

>  <nBase>
1

>  <nAromAtom>
12

>  <nAromBond>
12

>  <nAtom>
62

>  <nHeavyAtom>
32

>  <nSpiro>
0

>  <nBridgehead>
0

>  <nHetero>
8

>  <nN>
4

>  <nO>
2

>  <nF>
2

>  <BalabanJ>
1.32

>  <BertzCT>
934.61

>  <nBonds>
65

>  <nBondsO>
35

>  <nBondsS>
52

>  <nBondsD>
1

>  <nBondsT>
0

>  <nBondsA>
12

>  <nBondsM>
13

>  <nBondsKS>
58

>  <nBondsKD>
7

>  <RNCG>
0.14

>  <RPCG>
0.09

>  <FCSP3>
0.5

>  <SZ>
39.33

>  <Sm>
37.01

>  <Sv>
37.88

>  <Sse>
62.54

>  <Sp>
40.24

>  <Si>
70.91

>  <MZ>
0.63

>  <Mm>
0.6

>  <Mv>
0.61

>  <Mse>
1.01

>  <Mp>
0.65

>  <Mi>
1.14

>  <NsCH3>
0

>  <NdCH2>
0

>  <NssCH2>
8

>  <NtCH>
0

>  <NdsCH>
0

>  <NaaCH>
8

>  <NsssCH>
2

>  <NddC>
0

>  <NtsC>
0

>  <NdssC>
1

>  <NaasC>
3

>  <NaaaC>
0

>  <NssssC>
2

>  <NsNH3>
0

>  <NsNH2>
1

>  <NssNH2>
0

>  <NdNH>
0

>  <NssNH>
1

>  <NaaNH>
0

>  <NtN>
0

>  <NsssNH>
0

>  <NdsN>
0

>  <NaaN>
1

>  <NsssN>
1

>  <NddsN>
0

>  <NaasN>
0

>  <NssssN>
0

>  <NsOH>
1

>  <NdO>
1

>  <NssO>
0

>  <NaaO>
0

>  <NsF>
2

>  <NsSiH3>
0

>  <NssSiH2>
0

>  <NsssSiH>
0

>  <NssssSi>
0

>  <NsPH2>
0

>  <NssPH>
0

>  <NsssP>
0

>  <NdsssP>
0

>  <NsssssP>
0

>  <NsSH>
0

>  <NdS>
0

>  <NssS>
0

>  <NaaS>
0

>  <NdssS>
0

>  <NddssS>
0

>  <NsCl>
0

>  <NsBr>
0

>  <NsI>
0

>  <fragCpx>
233.08

>  <fMF>
0.44

>  <nHBAcc>
5

>  <nHBDon>
3

>  <Kier1>
25.1

>  <Kier2>
10.73

>  <Lipinski>
1

>  <GhoseFilter>
1

>  <FilterItLogS>
-4.93

>  <VMcGowan>
330.66

>  <LabuteASA>
186.38

>  <PEOE_VSA1>
16.16

>  <PEOE_VSA2>
9.69

>  <PEOE_VSA3>
13.76

>  <PEOE_VSA4>
0

>  <PEOE_VSA5>
0

>  <PEOE_VSA6>
36.4

>  <PEOE_VSA7>
36.96

>  <PEOE_VSA8>
44.44

>  <PEOE_VSA9>
5.69

>  <PEOE_VSA10>
5.82

>  <PEOE_VSA11>
5.6

>  <PEOE_VSA12>
5.92

>  <PEOE_VSA13>
5.91

>  <SMR_VSA1>
18.68

>  <SMR_VSA2>
0

>  <SMR_VSA3>
15.2

>  <SMR_VSA4>
5.92

>  <SMR_VSA5>
56.21

>  <SMR_VSA6>
18.82

>  <SMR_VSA7>
59.79

>  <SMR_VSA8>
0

>  <SMR_VSA9>
0

>  <SlogP_VSA1>
11.05

>  <SlogP_VSA2>
45.95

>  <SlogP_VSA3>
16.94

>  <SlogP_VSA4>
5.92

>  <SlogP_VSA5>
43.36

>  <SlogP_VSA6>
48.53

>  <SlogP_VSA7>
0

>  <SlogP_VSA8>
0

>  <SlogP_VSA9>
0

>  <SlogP_VSA10>
14.6

>  <SlogP_VSA11>
0

>  <EState_VSA1>
29.77

>  <EState_VSA2>
18.88

>  <EState_VSA3>
30.77

>  <EState_VSA4>
18.78

>  <EState_VSA5>
0

>  <EState_VSA6>
36.4

>  <EState_VSA7>
12.13

>  <EState_VSA8>
15.2

>  <EState_VSA9>
5.73

>  <EState_VSA10>
18.68

>  <VSA_EState1>
27.9

>  <VSA_EState2>
19.87

>  <VSA_EState3>
14.47

>  <VSA_EState4>
5.04

>  <VSA_EState5>
-3.77

>  <VSA_EState6>
13.91

>  <VSA_EState7>
0.73

>  <VSA_EState8>
2.19

>  <VSA_EState9>
0

>  <apol>
67.2

>  <bpol>
36.04

>  <nRing>
4

>  <nHRing>
2

>  <naRing>
2

>  <naHRing>
1

>  <nARing 2>
2

>  <nAHRing 2>
1

>  <nFRing>
0

>  <nFHRing>
0

>  <nFaRing>
0

>  <nFaHRing>
0

>  <nFARing 2>
0

>  <nFAHRing 2>
0

>  <nRot>
6

>  <SLogP>
3.07

>  <SMR>
117.72

>  <TopoPSA(NO)>
91.48

>  <TopoPSA>
91.48

>  <JGI1>
0.26

>  <JGI2>
0.08

>  <JGI3>
0.06

>  <JGI4>
0.04

>  <JGI5>
0.03

>  <Diameter>
15

>  <Radius>
8

>  <TMWC10>
145.2

>  <TSRW10>
82.25

>  <MW>
444.23

>  <AMW>
7.17

>  <WPath>
3157

>  <WPol>
51

>  <Zagreb1>
172

>  <Zagreb2>
202

>  <mZagreb2>
6.83

>  <yes>


>  <nAR-cont>
1

>  <nHA-cont>
0.658856097

>  <MWHBN>
0.3795649

>  <MWHBN-cont>
0.556512225

>  <TPSA-cont>
0.361412794

>  <pka_cont>
0.97

>  <yes.1>


>  <BBB_SCORE>
3.701450023

>  <MMFF94 Energy>
60.199

$$$$
Compound 112
Actelion Java MolfileCreator 2.0

  0  0  0  0  0  0              0 V3000
M  V30 BEGIN CTAB
M  V30 COUNTS 51 53 0 0 0
M  V30 BEGIN ATOM
M  V30 1 S 1.5277 -0.7234 2.574 0
M  V30 2 O 1.1321 -1.8755 1.7877 0
M  V30 3 O 2.7636 -0.76 3.3313 0
M  V30 4 N 1.6761 0.5715 1.4718 0
M  V30 5 C 0.2028 -0.2558 3.5981 0
M  V30 6 C 2.6179 0.5196 0.2995 0 CFG=2
M  V30 7 C 2.2252 1.9129 1.8409 0
M  V30 8 C 0.4617 0.4193 4.7302 0
M  V30 9 C -1.1904 -0.5805 3.1444 0
M  V30 10 C 3.3813 1.7409 0.8499 0
M  V30 11 C 1.8849 0.7371 -1.0223 0
M  V30 12 C -0.6049 0.8753 5.5797 0
M  V30 13 C -2.2823 -0.3451 4.2064 0
M  V30 14 C 1.0634 -0.5051 -1.3894 0
M  V30 15 O -0.2009 1.6599 6.6254 0
M  V30 16 C -1.8803 0.5324 5.36 0
M  V30 17 N 0.5128 -0.4388 -2.7579 0
M  V30 18 C -0.5611 0.561 -2.8673 0
M  V30 19 C 0.0236 -1.7711 -3.1545 0
M  V30 20 C -1.1149 0.6362 -4.2936 0
M  V30 21 C -0.5065 -1.772 -4.59 0
M  V30 22 C -1.5973 -0.7204 -4.8166 0
M  V30 23 C -2.9274 -1.134 -4.1822 0
M  V30 24 H 3.2362 -0.3864 0.2928 0
M  V30 25 H 2.5237 2.0081 2.8878 0
M  V30 26 H 1.5211 2.7121 1.5886 0
M  V30 27 H 1.4766 0.6565 5.0403 0
M  V30 28 H -1.2536 -1.6261 2.8211 0
M  V30 29 H -1.4161 0.0319 2.262 0
M  V30 30 H 3.5305 2.5735 0.1576 0
M  V30 31 H 4.3357 1.4888 1.3236 0
M  V30 32 H 2.6248 0.9283 -1.8094 0
M  V30 33 H 1.2451 1.6247 -0.9599 0
M  V30 34 H -3.1629 0.0877 3.7168 0
M  V30 35 H -2.6016 -1.3123 4.6148 0
M  V30 36 H 1.7313 -1.3736 -1.3163 0
M  V30 37 H 0.2622 -0.6654 -0.6567 0
M  V30 38 H -0.9826 1.8893 7.1553 0
M  V30 39 H -2.6722 0.8654 6.0229 0
M  V30 40 H -0.1791 1.5575 -2.6211 0
M  V30 41 H -1.3715 0.3451 -2.1599 0
M  V30 42 H 0.8471 -2.4942 -3.1058 0
M  V30 43 H -0.7531 -2.1243 -2.4646 0
M  V30 44 H -1.9277 1.3711 -4.3346 0
M  V30 45 H -0.325 1.0102 -4.9586 0
M  V30 46 H 0.3278 -1.5691 -5.2746 0
M  V30 47 H -0.8806 -2.7707 -4.8444 0
M  V30 48 H -1.7711 -0.6314 -5.8966 0
M  V30 49 H -3.2698 -2.0883 -4.5961 0
M  V30 50 H -3.7004 -0.3864 -4.3897 0
M  V30 51 H -2.8561 -1.2473 -3.0966 0
M  V30 END ATOM
M  V30 BEGIN BOND
M  V30 1 2 1 2
M  V30 2 2 1 3
M  V30 3 1 1 4
M  V30 4 1 1 5
M  V30 5 1 4 6
M  V30 6 1 4 7
M  V30 7 2 5 8
M  V30 8 1 5 9
M  V30 9 1 6 10
M  V30 10 1 6 11
M  V30 11 1 8 12
M  V30 12 1 9 13
M  V30 13 1 11 14
M  V30 14 1 12 15
M  V30 15 2 12 16
M  V30 16 1 14 17
M  V30 17 1 17 18
M  V30 18 1 17 19
M  V30 19 1 18 20
M  V30 20 1 19 21
M  V30 21 1 20 22
M  V30 22 1 22 23
M  V30 23 1 7 10
M  V30 24 1 13 16
M  V30 25 1 21 22
M  V30 26 1 6 24
M  V30 27 1 7 25
M  V30 28 1 7 26
M  V30 29 1 8 27
M  V30 30 1 9 28
M  V30 31 1 9 29
M  V30 32 1 10 30
M  V30 33 1 10 31
M  V30 34 1 11 32
M  V30 35 1 11 33
M  V30 36 1 13 34
M  V30 37 1 13 35
M  V30 38 1 14 36
M  V30 39 1 14 37
M  V30 40 1 15 38
M  V30 41 1 16 39
M  V30 42 1 18 40
M  V30 43 1 18 41
M  V30 44 1 19 42
M  V30 45 1 19 43
M  V30 46 1 20 44
M  V30 47 1 20 45
M  V30 48 1 21 46
M  V30 49 1 21 47
M  V30 50 1 22 48
M  V30 51 1 23 49
M  V30 52 1 23 50
M  V30 53 1 23 51
M  V30 END BOND
M  V30 BEGIN COLLECTION
M  V30 MDLV30/STERAC1 ATOMS=(1 6)
M  V30 END COLLECTION
M  V30 END CTAB
M  END
>  <Column 1>
142

>  <level_0>
161

>  <index>
161

>  <Unnamed: 0>
161

>  <NO.>
162

>  <Name>
s118

>  <IUPAC_name>


>  <SMILES>
CC1CCN(CCC2CCN2S(=O)(=O)C2=CC(O)=CCC2)CC1

>  <CID>


>  <logBB>
-0.89

>  <BBB+/BBB->
BBB+

>  <Inchi>
InChI=1S/C17H28N2O3S/c1-14-5-9-18(10-6-14)11-7-15-8-12-19(15)23(21-22)17-4-2-3-16(20)13-17/h3-13-15-20H-2-4-12H2-1H3

>  <threshold>


>  <reference>
R45|

>  <group>
A

>  <Class>
1

>  <ABC>
18.05

>  <ABCGG>
14.65

>  <nAcid>
0

>  <nBase>
1

>  <nAromAtom>
0

>  <nAromBond>
0

>  <nAtom>
51

>  <nHeavyAtom>
23

>  <nSpiro>
0

>  <nBridgehead>
0

>  <nHetero>
6

>  <nN>
2

>  <nO>
3

>  <nF>
0

>  <BalabanJ>
1.48

>  <BertzCT>
588.96

>  <nBonds>
53

>  <nBondsO>
25

>  <nBondsS>
49

>  <nBondsD>
4

>  <nBondsT>
0

>  <nBondsA>
0

>  <nBondsM>
4

>  <nBondsKS>
49

>  <nBondsKD>
4

>  <RNCG>
0.29

>  <RPCG>
0.17

>  <FCSP3>
0.76

>  <SZ>
30.67

>  <Sm>
28.35

>  <Sv>
29.43

>  <Sse>
50.82

>  <Sp>
32.67

>  <Si>
57.94

>  <MZ>
0.6

>  <Mm>
0.56

>  <Mv>
0.58

>  <Mse>
1

>  <Mp>
0.64

>  <Mi>
1.14

>  <NsCH3>
1

>  <NdCH2>
0

>  <NssCH2>
10

>  <NtCH>
0

>  <NdsCH>
2

>  <NaaCH>
0

>  <NsssCH>
2

>  <NddC>
0

>  <NtsC>
0

>  <NdssC>
2

>  <NaasC>
0

>  <NaaaC>
0

>  <NssssC>
0

>  <NsNH3>
0

>  <NsNH2>
0

>  <NssNH2>
0

>  <NdNH>
0

>  <NssNH>
0

>  <NaaNH>
0

>  <NtN>
0

>  <NsssNH>
0

>  <NdsN>
0

>  <NaaN>
0

>  <NsssN>
2

>  <NddsN>
0

>  <NaasN>
0

>  <NssssN>
0

>  <NsOH>
1

>  <NdO>
2

>  <NssO>
0

>  <NaaO>
0

>  <NsF>
0

>  <NsSiH3>
0

>  <NssSiH2>
0

>  <NsssSiH>
0

>  <NssssSi>
0

>  <NsPH2>
0

>  <NssPH>
0

>  <NsssP>
0

>  <NdsssP>
0

>  <NsssssP>
0

>  <NsSH>
0

>  <NdS>
0

>  <NssS>
0

>  <NaaS>
0

>  <NdssS>
0

>  <NddssS>
1

>  <NsCl>
0

>  <NsBr>
0

>  <NsI>
0

>  <fragCpx>
119.06

>  <fMF>
0.37

>  <nHBAcc>
4

>  <nHBDon>
1

>  <Kier1>
17.81

>  <Kier2>
7.49

>  <Lipinski>
1

>  <GhoseFilter>
1

>  <FilterItLogS>
-1.99

>  <VMcGowan>
263.13

>  <LabuteASA>
139.26

>  <PEOE_VSA1>
10.01

>  <PEOE_VSA2>
0

>  <PEOE_VSA3>
8.42

>  <PEOE_VSA4>
4.31

>  <PEOE_VSA5>
0

>  <PEOE_VSA6>
6.92

>  <PEOE_VSA7>
76.23

>  <PEOE_VSA8>
12.59

>  <PEOE_VSA9>
4.91

>  <PEOE_VSA10>
5.76

>  <PEOE_VSA11>
0

>  <PEOE_VSA12>
10.02

>  <PEOE_VSA13>
0

>  <SMR_VSA1>
13.52

>  <SMR_VSA2>
0

>  <SMR_VSA3>
9.21

>  <SMR_VSA4>
5.92

>  <SMR_VSA5>
51.49

>  <SMR_VSA6>
26.18

>  <SMR_VSA7>
22.82

>  <SMR_VSA8>
0

>  <SMR_VSA9>
0

>  <SlogP_VSA1>
0

>  <SlogP_VSA2>
54.95

>  <SlogP_VSA3>
10.02

>  <SlogP_VSA4>
5.92

>  <SlogP_VSA5>
45.45

>  <SlogP_VSA6>
22.82

>  <SlogP_VSA7>
0

>  <SlogP_VSA8>
0

>  <SlogP_VSA9>
0

>  <SlogP_VSA10>
0

>  <SlogP_VSA11>
0

>  <EState_VSA1>
10.02

>  <EState_VSA2>
11.8

>  <EState_VSA3>
24.29

>  <EState_VSA4>
38.39

>  <EState_VSA5>
18.92

>  <EState_VSA6>
10.38

>  <EState_VSA7>
0

>  <EState_VSA8>
11.82

>  <EState_VSA9>
0

>  <EState_VSA10>
13.52

>  <VSA_EState1>
27.09

>  <VSA_EState2>
2.84

>  <VSA_EState3>
9.57

>  <VSA_EState4>
0

>  <VSA_EState5>
0.9

>  <VSA_EState6>
0.13

>  <VSA_EState7>
8.57

>  <VSA_EState8>
6.2

>  <VSA_EState9>
-3.39

>  <apol>
54.57

>  <bpol>
38.17

>  <nRing>
3

>  <nHRing>
2

>  <naRing>
0

>  <naHRing>
0

>  <nARing 2>
3

>  <nAHRing 2>
2

>  <nFRing>
0

>  <nFHRing>
0

>  <nFaRing>
0

>  <nFaHRing>
0

>  <nFARing 2>
0

>  <nFAHRing 2>
0

>  <nRot>
5

>  <SLogP>
2.63

>  <SMR>
91.51

>  <TopoPSA(NO)>
60.85

>  <TopoPSA>
69.23

>  <JGI1>
0.24

>  <JGI2>
0.1

>  <JGI3>
0.06

>  <JGI4>
0.05

>  <JGI5>
0.02

>  <Diameter>
13

>  <Radius>
7

>  <TMWC10>
122.86

>  <TSRW10>
57.9

>  <MW>
340.18

>  <AMW>
6.67

>  <WPath>
1302

>  <WPol>
34

>  <Zagreb1>
122

>  <Zagreb2>
143

>  <mZagreb2>
4.94

>  <yes>


>  <nAR-cont>
0.691115

>  <nHA-cont>
0.967789328

>  <MWHBN>
0.271091322

>  <MWHBN-cont>
0.917617478

>  <TPSA-cont>
0.516731611

>  <pka_cont>
0.97

>  <yes.1>


>  <BBB_SCORE>
4.553793767

>  <MMFF94 Energy>
-63.452

$$$$
Compound 113
Actelion Java MolfileCreator 2.0

  0  0  0  0  0  0              0 V3000
M  V30 BEGIN CTAB
M  V30 COUNTS 26 27 0 0 0
M  V30 BEGIN ATOM
M  V30 1 Cl 4.1539 0.3988 3.434 0
M  V30 2 C 2.8965 0.2859 2.2656 0
M  V30 3 C 3.2059 0.0094 0.9375 0
M  V30 4 C 1.5764 0.4718 2.6474 0
M  V30 5 C 2.1875 -0.0861 -0.031 0
M  V30 6 C 0.5588 0.3801 1.6922 0
M  V30 7 C 0.833 0.1021 0.3431 0
M  V30 8 C 2.5857 -0.3939 -1.4507 0
M  V30 9 N -0.1859 0.0086 -0.6263 0
M  V30 10 C -1.5345 -0.0155 -0.4655 0
M  V30 11 N -2.2508 -0.0919 0.6185 0
M  V30 12 N -2.2321 0.0432 -1.6299 0
M  V30 13 C -3.6655 -0.1132 0.1561 0
M  V30 14 C -3.6418 0.0995 -1.3597 0
M  V30 15 H 4.2458 -0.135 0.6535 0
M  V30 16 H 1.3214 0.6884 3.681 0
M  V30 17 H -0.4618 0.5397 2.0302 0
M  V30 18 H 2.1097 -1.3209 -1.7861 0
M  V30 19 H 2.297 0.4291 -2.1122 0
M  V30 20 H 3.6683 -0.5289 -1.5477 0
M  V30 21 H 0.133 -0.1319 -1.5692 0
M  V30 22 H -1.8515 0.4045 -2.4896 0
M  V30 23 H -4.2368 0.6748 0.6573 0
M  V30 24 H -4.1144 -1.0793 0.4107 0
M  V30 25 H -4.1904 -0.6833 -1.8907 0
M  V30 26 H -4.0521 1.0773 -1.6302 0
M  V30 END ATOM
M  V30 BEGIN BOND
M  V30 1 1 1 2
M  V30 2 2 2 3
M  V30 3 1 2 4
M  V30 4 1 3 5
M  V30 5 2 4 6
M  V30 6 2 5 7
M  V30 7 1 5 8
M  V30 8 1 7 9
M  V30 9 1 9 10
M  V30 10 2 10 11
M  V30 11 1 10 12
M  V30 12 1 11 13
M  V30 13 1 12 14
M  V30 14 1 6 7
M  V30 15 1 13 14
M  V30 16 1 3 15
M  V30 17 1 4 16
M  V30 18 1 6 17
M  V30 19 1 8 18
M  V30 20 1 8 19
M  V30 21 1 8 20
M  V30 22 1 9 21
M  V30 23 1 12 22
M  V30 24 1 13 23
M  V30 25 1 13 24
M  V30 26 1 14 25
M  V30 27 1 14 26
M  V30 END BOND
M  V30 END CTAB
M  END
>  <Column 1>
143

>  <level_0>
162

>  <index>
162

>  <Unnamed: 0>
162

>  <NO.>
163

>  <Name>
4201-26-7

>  <IUPAC_name>
n-(4-chloro-2-methylphenyl)-4-5-dihydro-1h-imidazol-2-amine

>  <SMILES>
Cc1cc(Cl)ccc1NC1=NCCN1

>  <CID>
77870

>  <logBB>
-0.87

>  <BBB+/BBB->
BBB+

>  <Inchi>
InChI=1S/C10H12ClN3/c1-7-6-8(11)2-3-9(7)14-10-12-4-5-13-10/h2-3-6H-4-5H2-1H3-(H2-12-13-14)

>  <threshold>


>  <reference>
R2|R2|R8|R25|R47|R4|R40|

>  <group>
A

>  <Class>
1

>  <ABC>
10.78

>  <ABCGG>
9.7

>  <nAcid>
0

>  <nBase>
3

>  <nAromAtom>
6

>  <nAromBond>
6

>  <nAtom>
26

>  <nHeavyAtom>
14

>  <nSpiro>
0

>  <nBridgehead>
0

>  <nHetero>
4

>  <nN>
3

>  <nO>
0

>  <nF>
0

>  <BalabanJ>
1.79

>  <BertzCT>
373.63

>  <nBonds>
27

>  <nBondsO>
15

>  <nBondsS>
20

>  <nBondsD>
1

>  <nBondsT>
0

>  <nBondsA>
6

>  <nBondsM>
7

>  <nBondsKS>
23

>  <nBondsKD>
4

>  <RNCG>
0.3

>  <RPCG>
0.16

>  <FCSP3>
0.3

>  <SZ>
18.33

>  <Sm>
17.46

>  <Sv>
16.62

>  <Sse>
26.08

>  <Sp>
18.07

>  <Si>
29.52

>  <MZ>
0.71

>  <Mm>
0.67

>  <Mv>
0.64

>  <Mse>
1

>  <Mp>
0.7

>  <Mi>
1.14

>  <NsCH3>
1

>  <NdCH2>
0

>  <NssCH2>
2

>  <NtCH>
0

>  <NdsCH>
0

>  <NaaCH>
3

>  <NsssCH>
0

>  <NddC>
0

>  <NtsC>
0

>  <NdssC>
1

>  <NaasC>
3

>  <NaaaC>
0

>  <NssssC>
0

>  <NsNH3>
0

>  <NsNH2>
0

>  <NssNH2>
0

>  <NdNH>
0

>  <NssNH>
2

>  <NaaNH>
0

>  <NtN>
0

>  <NsssNH>
0

>  <NdsN>
1

>  <NaaN>
0

>  <NsssN>
0

>  <NddsN>
0

>  <NaasN>
0

>  <NssssN>
0

>  <NsOH>
0

>  <NdO>
0

>  <NssO>
0

>  <NaaO>
0

>  <NsF>
0

>  <NsSiH3>
0

>  <NssSiH2>
0

>  <NsssSiH>
0

>  <NssssSi>
0

>  <NsPH2>
0

>  <NssPH>
0

>  <NsssP>
0

>  <NdsssP>
0

>  <NsssssP>
0

>  <NsSH>
0

>  <NdS>
0

>  <NssS>
0

>  <NaaS>
0

>  <NdssS>
0

>  <NddssS>
0

>  <NsCl>
1

>  <NsBr>
0

>  <NsI>
0

>  <fragCpx>
43.04

>  <fMF>
0.46

>  <nHBAcc>
3

>  <nHBDon>
2

>  <Kier1>
10.52

>  <Kier2>
4.68

>  <Lipinski>
1

>  <GhoseFilter>
1

>  <FilterItLogS>
-3.92

>  <VMcGowan>
155.02

>  <LabuteASA>
88.18

>  <PEOE_VSA1>
10.63

>  <PEOE_VSA2>
4.99

>  <PEOE_VSA3>
0

>  <PEOE_VSA4>
0

>  <PEOE_VSA5>
0

>  <PEOE_VSA6>
11.6

>  <PEOE_VSA7>
30.69

>  <PEOE_VSA8>
17.25

>  <PEOE_VSA9>
6.54

>  <PEOE_VSA10>
0

>  <PEOE_VSA11>
5.96

>  <PEOE_VSA12>
0

>  <PEOE_VSA13>
0

>  <SMR_VSA1>
0

>  <SMR_VSA2>
0

>  <SMR_VSA3>
5.32

>  <SMR_VSA4>
4.99

>  <SMR_VSA5>
6.92

>  <SMR_VSA6>
18.41

>  <SMR_VSA7>
28.79

>  <SMR_VSA8>
0

>  <SMR_VSA9>
0

>  <SlogP_VSA1>
10.63

>  <SlogP_VSA2>
19.05

>  <SlogP_VSA3>
0

>  <SlogP_VSA4>
6.92

>  <SlogP_VSA5>
5.56

>  <SlogP_VSA6>
23.19

>  <SlogP_VSA7>
5.02

>  <SlogP_VSA8>
0

>  <SlogP_VSA9>
0

>  <SlogP_VSA10>
5.69

>  <SlogP_VSA11>
0

>  <EState_VSA1>
0

>  <EState_VSA2>
0

>  <EState_VSA3>
0

>  <EState_VSA4>
35.32

>  <EState_VSA5>
0

>  <EState_VSA6>
0

>  <EState_VSA7>
25.12

>  <EState_VSA8>
15.63

>  <EState_VSA9>
11.6

>  <EState_VSA10>
0

>  <VSA_EState1>
0

>  <VSA_EState2>
4.26

>  <VSA_EState3>
7.13

>  <VSA_EState4>
2.16

>  <VSA_EState5>
0.84

>  <VSA_EState6>
5.76

>  <VSA_EState7>
0

>  <VSA_EState8>
3.77

>  <VSA_EState9>
0

>  <apol>
30.18

>  <bpol>
14.83

>  <nRing>
2

>  <nHRing>
1

>  <naRing>
1

>  <naHRing>
0

>  <nARing 2>
1

>  <nAHRing 2>
1

>  <nFRing>
0

>  <nFHRing>
0

>  <nFaRing>
0

>  <nFaHRing>
0

>  <nFARing 2>
0

>  <nFAHRing 2>
0

>  <nRot>
1

>  <SLogP>
2.02

>  <SMR>
60.12

>  <TopoPSA(NO)>
36.42

>  <TopoPSA>
36.42

>  <JGI1>
0.2

>  <JGI2>
0.07

>  <JGI3>
0.05

>  <JGI4>
0.05

>  <JGI5>
0.01

>  <Diameter>
8

>  <Radius>
4

>  <TMWC10>
97.23

>  <TSRW10>
58.4

>  <MW>
209.07

>  <AMW>
8.04

>  <WPath>
313

>  <WPol>
16

>  <Zagreb1>
70

>  <Zagreb2>
79

>  <mZagreb2>
3.11

>  <yes>


>  <nAR-cont>
0.816016

>  <nHA-cont>
0.887625254

>  <MWHBN>
0.345799328

>  <MWHBN-cont>
0.685871933

>  <TPSA-cont>
0.745765785

>  <pka_cont>
0.97

>  <yes.1>


>  <BBB_SCORE>
4.708980723

>  <MMFF94 Energy>
-35.486

$$$$
Compound 114
Actelion Java MolfileCreator 2.0

  0  0  0  0  0  0              0 V3000
M  V30 BEGIN CTAB
M  V30 COUNTS 64 68 0 0 0
M  V30 BEGIN ATOM
M  V30 1 O 2.1509 -5.0243 2.5496 0
M  V30 2 C 1.8439 -3.7556 2.1477 0
M  V30 3 C 3.0881 -5.1678 3.618 0
M  V30 4 C 2.3955 -2.5769 2.6465 0
M  V30 5 C 0.8942 -3.6803 1.1295 0
M  V30 6 C 3.2875 -6.664 3.933 0
M  V30 7 C 1.9892 -1.3336 2.1381 0
M  V30 8 C 0.4904 -2.4418 0.6213 0
M  V30 9 N 2.0952 -7.3711 4.4468 0
M  V30 10 C 1.0107 -1.2478 1.1371 0
M  V30 11 C 1.6748 -6.8771 5.7571 0
M  V30 12 C 2.3539 -8.8109 4.5132 0
M  V30 13 C 0.6027 0.0278 0.5392 0
M  V30 14 N -0.0571 0.1786 -0.5923 0
M  V30 15 N 0.8338 1.2611 1.0999 0
M  V30 16 C -0.2383 1.532 -0.7663 0
M  V30 17 C 0.3572 2.2482 0.2621 0
M  V30 18 C -0.9697 2.056 -1.9072 0
M  V30 19 C 0.5213 3.6715 0.5552 0
M  V30 20 C -1.9343 3.0672 -1.7536 0
M  V30 21 C -0.7231 1.5099 -3.1855 0
M  V30 22 C 0.2969 4.1655 1.8431 0
M  V30 23 C 0.797 4.5852 -0.4638 0
M  V30 24 C -2.6076 3.531 -2.8756 0
M  V30 25 C -1.4031 1.9801 -4.3115 0
M  V30 26 C 0.3969 5.5313 2.059 0
M  V30 27 C 0.8798 5.9318 -0.149 0
M  V30 28 C -2.3309 2.9878 -4.1236 0
M  V30 29 C -3.65 4.6005 -2.9315 0
M  V30 30 N 0.6903 6.4243 1.0925 0
M  V30 31 C -3.1724 3.6485 -5.1108 0
M  V30 32 C -4.0587 4.6556 -4.4125 0
M  V30 33 N -3.116 3.3711 -6.367 0
M  V30 34 C -4.0123 4.0954 -7.2488 0
M  V30 35 O -3.589 5.4151 -7.5233 0
M  V30 36 H 2.7502 -4.6264 4.5083 0
M  V30 37 H 4.0572 -4.7607 3.303 0
M  V30 38 H 3.1525 -2.5871 3.4234 0
M  V30 39 H 0.4657 -4.5933 0.7228 0
M  V30 40 H 3.5922 -7.1466 2.9951 0
M  V30 41 H 4.1205 -6.7688 4.64 0
M  V30 42 H 2.4663 -0.4436 2.5373 0
M  V30 43 H -0.2437 -2.4131 -0.1826 0
M  V30 44 H 1.3451 -5.8352 5.7018 0
M  V30 45 H 2.4746 -6.9518 6.5026 0
M  V30 46 H 0.8118 -7.4448 6.1243 0
M  V30 47 H 3.1725 -9.0517 5.2012 0
M  V30 48 H 2.6074 -9.2044 3.5226 0
M  V30 49 H 1.4575 -9.3496 4.8408 0
M  V30 50 H 1.3257 1.4216 1.9647 0
M  V30 51 H -2.1615 3.4779 -0.7736 0
M  V30 52 H 0.0052 0.7078 -3.2967 0
M  V30 53 H 0.0251 3.5162 2.6677 0
M  V30 54 H 0.9641 4.2637 -1.4868 0
M  V30 55 H -1.2174 1.5655 -5.2966 0
M  V30 56 H 0.2291 5.9564 3.0448 0
M  V30 57 H 1.1056 6.671 -0.9125 0
M  V30 58 H -4.5084 4.3484 -2.3005 0
M  V30 59 H -3.237 5.5616 -2.6077 0
M  V30 60 H -3.9029 5.6577 -4.8227 0
M  V30 61 H -5.1106 4.3781 -4.5348 0
M  V30 62 H -4.0585 3.5621 -8.2042 0
M  V30 63 H -5.04 4.1229 -6.8702 0
M  V30 64 H -2.6244 5.3264 -7.6082 0
M  V30 END ATOM
M  V30 BEGIN BOND
M  V30 1 1 1 2
M  V30 2 1 1 3
M  V30 3 2 2 4
M  V30 4 1 2 5
M  V30 5 1 3 6
M  V30 6 1 4 7
M  V30 7 2 5 8
M  V30 8 1 6 9
M  V30 9 2 7 10
M  V30 10 1 9 11
M  V30 11 1 9 12
M  V30 12 1 10 13
M  V30 13 2 13 14
M  V30 14 1 13 15
M  V30 15 1 14 16
M  V30 16 1 15 17
M  V30 17 1 16 18
M  V30 18 1 17 19
M  V30 19 2 18 20
M  V30 20 1 18 21
M  V30 21 2 19 22
M  V30 22 1 19 23
M  V30 23 1 20 24
M  V30 24 2 21 25
M  V30 25 1 22 26
M  V30 26 2 23 27
M  V30 27 2 24 28
M  V30 28 1 24 29
M  V30 29 2 26 30
M  V30 30 1 28 31
M  V30 31 1 29 32
M  V30 32 2 31 33
M  V30 33 1 33 34
M  V30 34 1 34 35
M  V30 35 1 8 10
M  V30 36 2 16 17
M  V30 37 1 25 28
M  V30 38 1 27 30
M  V30 39 1 31 32
M  V30 40 1 3 36
M  V30 41 1 3 37
M  V30 42 1 4 38
M  V30 43 1 5 39
M  V30 44 1 6 40
M  V30 45 1 6 41
M  V30 46 1 7 42
M  V30 47 1 8 43
M  V30 48 1 11 44
M  V30 49 1 11 45
M  V30 50 1 11 46
M  V30 51 1 12 47
M  V30 52 1 12 48
M  V30 53 1 12 49
M  V30 54 1 15 50
M  V30 55 1 20 51
M  V30 56 1 21 52
M  V30 57 1 22 53
M  V30 58 1 23 54
M  V30 59 1 25 55
M  V30 60 1 26 56
M  V30 61 1 27 57
M  V30 62 1 29 58
M  V30 63 1 29 59
M  V30 64 1 32 60
M  V30 65 1 32 61
M  V30 66 1 34 62
M  V30 67 1 34 63
M  V30 68 1 35 64
M  V30 END BOND
M  V30 END CTAB
M  END
>  <Column 1>
144

>  <level_0>
163

>  <index>
163

>  <Unnamed: 0>
163

>  <NO.>
164

>  <Name>
takle-1; sb-590885

>  <IUPAC_name>


>  <SMILES>
CN(C)CCOc1ccc(-c2nc(-c3ccc4c(c3)CC/C4=N\CO)c(-c3ccncc3)[nH]2)cc1

>  <CID>


>  <logBB>
-0.85

>  <BBB+/BBB->
BBB+

>  <Inchi>
InChI=1S/C28H29N5O2/c1-33(2)15-16-35-23-7-3-20(4-8-23)28-31-26(19-11-13-29-14-12-19)27(32-28)22-5-9-24-21(17-22)6-10-25(24)30-18-34/h3-5-7-9-11-14-17-34H-6-10-15-16-18H2-1-2H3-(H-31-32)/b30-25+

>  <threshold>


>  <reference>
R18|R26|R27|

>  <group>
A

>  <Class>
1

>  <ABC>
27.55

>  <ABCGG>
19.72

>  <nAcid>
0

>  <nBase>
1

>  <nAromAtom>
23

>  <nAromBond>
23

>  <nAtom>
64

>  <nHeavyAtom>
35

>  <nSpiro>
0

>  <nBridgehead>
0

>  <nHetero>
7

>  <nN>
5

>  <nO>
2

>  <nF>
0

>  <BalabanJ>
1.18

>  <BertzCT>
1327.48

>  <nBonds>
68

>  <nBondsO>
39

>  <nBondsS>
44

>  <nBondsD>
1

>  <nBondsT>
0

>  <nBondsA>
23

>  <nBondsM>
24

>  <nBondsKS>
56

>  <nBondsKD>
12

>  <RNCG>
0.18

>  <RPCG>
0.08

>  <FCSP3>
0.25

>  <SZ>
41.33

>  <Sm>
38.93

>  <Sv>
41.08

>  <Sse>
63.85

>  <Sp>
43.83

>  <Si>
71.89

>  <MZ>
0.65

>  <Mm>
0.61

>  <Mv>
0.64

>  <Mse>
1

>  <Mp>
0.68

>  <Mi>
1.12

>  <NsCH3>
2

>  <NdCH2>
0

>  <NssCH2>
5

>  <NtCH>
0

>  <NdsCH>
0

>  <NaaCH>
11

>  <NsssCH>
0

>  <NddC>
0

>  <NtsC>
0

>  <NdssC>
1

>  <NaasC>
9

>  <NaaaC>
0

>  <NssssC>
0

>  <NsNH3>
0

>  <NsNH2>
0

>  <NssNH2>
0

>  <NdNH>
0

>  <NssNH>
0

>  <NaaNH>
1

>  <NtN>
0

>  <NsssNH>
0

>  <NdsN>
1

>  <NaaN>
2

>  <NsssN>
1

>  <NddsN>
0

>  <NaasN>
0

>  <NssssN>
0

>  <NsOH>
1

>  <NdO>
0

>  <NssO>
1

>  <NaaO>
0

>  <NsF>
0

>  <NsSiH3>
0

>  <NssSiH2>
0

>  <NsssSiH>
0

>  <NssssSi>
0

>  <NsPH2>
0

>  <NssPH>
0

>  <NsssP>
0

>  <NdsssP>
0

>  <NsssssP>
0

>  <NsSH>
0

>  <NdS>
0

>  <NssS>
0

>  <NaaS>
0

>  <NdssS>
0

>  <NddssS>
0

>  <NsCl>
0

>  <NsBr>
0

>  <NsI>
0

>  <fragCpx>
331.07

>  <fMF>
0.41

>  <nHBAcc>
6

>  <nHBDon>
2

>  <Kier1>
26.6

>  <Kier2>
12.7

>  <Lipinski>
1

>  <GhoseFilter>
0

>  <FilterItLogS>
-7.96

>  <VMcGowan>
361.12

>  <LabuteASA>
204.73

>  <PEOE_VSA1>
19.73

>  <PEOE_VSA2>
9.98

>  <PEOE_VSA3>
4.98

>  <PEOE_VSA4>
0

>  <PEOE_VSA5>
0

>  <PEOE_VSA6>
12.13

>  <PEOE_VSA7>
80.53

>  <PEOE_VSA8>
41.34

>  <PEOE_VSA9>
11.39

>  <PEOE_VSA10>
24.91

>  <PEOE_VSA11>
0

>  <PEOE_VSA12>
0

>  <PEOE_VSA13>
0

>  <SMR_VSA1>
9.84

>  <SMR_VSA2>
0

>  <SMR_VSA3>
19.85

>  <SMR_VSA4>
4.99

>  <SMR_VSA5>
12.84

>  <SMR_VSA6>
33.98

>  <SMR_VSA7>
78.12

>  <SMR_VSA8>
0

>  <SMR_VSA9>
39.65

>  <SlogP_VSA1>
4.74

>  <SlogP_VSA2>
64.65

>  <SlogP_VSA3>
6.42

>  <SlogP_VSA4>
0

>  <SlogP_VSA5>
17.55

>  <SlogP_VSA6>
71.98

>  <SlogP_VSA7>
0

>  <SlogP_VSA8>
33.9

>  <SlogP_VSA9>
0

>  <SlogP_VSA10>
0

>  <SlogP_VSA11>
5.75

>  <EState_VSA1>
0

>  <EState_VSA2>
6.73

>  <EState_VSA3>
6.61

>  <EState_VSA4>
70.31

>  <EState_VSA5>
5.56

>  <EState_VSA6>
12.39

>  <EState_VSA7>
50.49

>  <EState_VSA8>
38.06

>  <EState_VSA9>
9.72

>  <EState_VSA10>
5.11

>  <VSA_EState1>
5.84

>  <VSA_EState2>
19.08

>  <VSA_EState3>
9.22

>  <VSA_EState4>
8.24

>  <VSA_EState5>
1.64

>  <VSA_EState6>
18.38

>  <VSA_EState7>
5.35

>  <VSA_EState8>
1.34

>  <VSA_EState9>
4.06

>  <apol>
73.2

>  <bpol>
36.53

>  <nRing>
5

>  <nHRing>
2

>  <naRing>
4

>  <naHRing>
2

>  <nARing 2>
1

>  <nAHRing 2>
0

>  <nFRing>
1

>  <nFHRing>
0

>  <nFaRing>
0

>  <nFaHRing>
0

>  <nFARing 2>
1

>  <nFAHRing 2>
0

>  <nRot>
8

>  <SLogP>
4.43

>  <SMR>
138.68

>  <TopoPSA(NO)>
86.63

>  <TopoPSA>
86.63

>  <JGI1>
0.15

>  <JGI2>
0.07

>  <JGI3>
0.03

>  <JGI4>
0.03

>  <JGI5>
0.03

>  <Diameter>
19

>  <Radius>
10

>  <TMWC10>
152.89

>  <TSRW10>
87.48

>  <MW>
467.23

>  <AMW>
7.3

>  <WPath>
4092

>  <WPol>
54

>  <Zagreb1>
186

>  <Zagreb2>
220

>  <mZagreb2>
7.75

>  <yes>


>  <nAR-cont>
0.816016

>  <nHA-cont>
0.523063577

>  <MWHBN>
0.370104723

>  <MWHBN-cont>
0.593458423

>  <TPSA-cont>
0.395268806

>  <pka_cont>
0.97

>  <yes.1>


>  <BBB_SCORE>
3.504804825

>  <MMFF94 Energy>
85.167

$$$$
Compound 115
Actelion Java MolfileCreator 2.0

  0  0  0  0  0  0              0 V3000
M  V30 BEGIN CTAB
M  V30 COUNTS 31 32 0 0 0
M  V30 BEGIN ATOM
M  V30 1 S -2.1039 -1.4561 1.5371 0
M  V30 2 O -1.6067 -2.8068 1.3782 0
M  V30 3 O -3.4311 -1.2071 2.0592 0
M  V30 4 N -1.0386 -0.5941 2.5144 0
M  V30 5 C -1.9899 -0.635 -0.0356 0
M  V30 6 C 0.2901 -0.4871 2.0568 0
M  V30 7 C -2.7098 0.5423 -0.2482 0
M  V30 8 C -1.2255 -1.1935 -1.0617 0
M  V30 9 N 0.6399 0.7592 1.685 0
M  V30 10 C 1.1514 -1.5627 1.9728 0
M  V30 11 C -2.6319 1.1794 -1.4896 0
M  V30 12 C -1.1567 -0.5446 -2.2974 0
M  V30 13 N 1.8949 0.9823 1.194 0
M  V30 14 C 2.4284 -1.3347 1.4733 0
M  V30 15 C -1.8422 0.6541 -2.517 0
M  V30 16 C 2.7635 -0.0488 1.0918 0
M  V30 17 N -1.8002 1.2698 -3.7541 0
M  V30 18 O 4.0362 0.1436 0.5965 0
M  V30 19 C 4.2896 1.4951 0.2239 0
M  V30 20 H -1.429 0.3103 2.7728 0
M  V30 21 H -3.336 0.9656 0.5333 0
M  V30 22 H -0.6866 -2.1266 -0.9162 0
M  V30 23 H 0.8482 -2.5551 2.2877 0
M  V30 24 H -3.199 2.093 -1.6508 0
M  V30 25 H -0.5627 -0.9866 -3.0934 0
M  V30 26 H 3.146 -2.1423 1.3838 0
M  V30 27 H -1.1751 0.9308 -4.4723 0
M  V30 28 H -2.2355 2.172 -3.8903 0
M  V30 29 H 4.2187 2.1646 1.0883 0
M  V30 30 H 5.3143 1.5494 -0.1563 0
M  V30 31 H 3.6181 1.8173 -0.5796 0
M  V30 END ATOM
M  V30 BEGIN BOND
M  V30 1 2 1 2
M  V30 2 2 1 3
M  V30 3 1 1 4
M  V30 4 1 1 5
M  V30 5 1 4 6
M  V30 6 2 5 7
M  V30 7 1 5 8
M  V30 8 2 6 9
M  V30 9 1 6 10
M  V30 10 1 7 11
M  V30 11 2 8 12
M  V30 12 1 9 13
M  V30 13 2 10 14
M  V30 14 2 11 15
M  V30 15 2 13 16
M  V30 16 1 15 17
M  V30 17 1 16 18
M  V30 18 1 18 19
M  V30 19 1 12 15
M  V30 20 1 14 16
M  V30 21 1 4 20
M  V30 22 1 7 21
M  V30 23 1 8 22
M  V30 24 1 10 23
M  V30 25 1 11 24
M  V30 26 1 12 25
M  V30 27 1 14 26
M  V30 28 1 17 27
M  V30 29 1 17 28
M  V30 30 1 19 29
M  V30 31 1 19 30
M  V30 32 1 19 31
M  V30 END BOND
M  V30 END CTAB
M  END
>  <Column 1>
145

>  <level_0>
164

>  <index>
164

>  <Unnamed: 0>
164

>  <NO.>
165

>  <Name>
sulfamethoxypyridazine

>  <IUPAC_name>
4-amino-n-(6-methoxypyridazin-3-yl)benzenesulfonamide

>  <SMILES>
COc1ccc(NS(=O)(=O)c2ccc(N)cc2)nn1

>  <CID>
5330

>  <logBB>
-0.85

>  <BBB+/BBB->
BBB+

>  <Inchi>
InChI=1S/C11H12N4O3S/c1-18-11-7-6-10(13-14-11)15-19(16-17)9-4-2-8(12)3-5-9/h2-7H-12H2-1H3-(H-13-15)

>  <threshold>


>  <reference>
R18|R26|R27|

>  <group>
A

>  <Class>
1

>  <ABC>
14.51

>  <ABCGG>
12.07

>  <nAcid>
0

>  <nBase>
0

>  <nAromAtom>
12

>  <nAromBond>
12

>  <nAtom>
31

>  <nHeavyAtom>
19

>  <nSpiro>
0

>  <nBridgehead>
0

>  <nHetero>
8

>  <nN>
4

>  <nO>
3

>  <nF>
0

>  <BalabanJ>
1.8

>  <BertzCT>
653.34

>  <nBonds>
32

>  <nBondsO>
20

>  <nBondsS>
18

>  <nBondsD>
2

>  <nBondsT>
0

>  <nBondsA>
12

>  <nBondsM>
14

>  <nBondsKS>
24

>  <nBondsKD>
8

>  <RNCG>
0.25

>  <RPCG>
0.13

>  <FCSP3>
0.09

>  <SZ>
24.33

>  <Sm>
23.34

>  <Sv>
20.61

>  <Sse>
32.05

>  <Sp>
21.6

>  <Si>
35.2

>  <MZ>
0.78

>  <Mm>
0.75

>  <Mv>
0.66

>  <Mse>
1.03

>  <Mp>
0.7

>  <Mi>
1.14

>  <NsCH3>
1

>  <NdCH2>
0

>  <NssCH2>
0

>  <NtCH>
0

>  <NdsCH>
0

>  <NaaCH>
6

>  <NsssCH>
0

>  <NddC>
0

>  <NtsC>
0

>  <NdssC>
0

>  <NaasC>
4

>  <NaaaC>
0

>  <NssssC>
0

>  <NsNH3>
0

>  <NsNH2>
1

>  <NssNH2>
0

>  <NdNH>
0

>  <NssNH>
1

>  <NaaNH>
0

>  <NtN>
0

>  <NsssNH>
0

>  <NdsN>
0

>  <NaaN>
2

>  <NsssN>
0

>  <NddsN>
0

>  <NaasN>
0

>  <NssssN>
0

>  <NsOH>
0

>  <NdO>
2

>  <NssO>
1

>  <NaaO>
0

>  <NsF>
0

>  <NsSiH3>
0

>  <NssSiH2>
0

>  <NsssSiH>
0

>  <NssssSi>
0

>  <NsPH2>
0

>  <NssPH>
0

>  <NsssP>
0

>  <NdsssP>
0

>  <NsssssP>
0

>  <NsSH>
0

>  <NdS>
0

>  <NssS>
0

>  <NaaS>
0

>  <NdssS>
0

>  <NddssS>
1

>  <NsCl>
0

>  <NsBr>
0

>  <NsI>
0

>  <fragCpx>
58.08

>  <fMF>
0.45

>  <nHBAcc>
6

>  <nHBDon>
2

>  <Kier1>
15.39

>  <Kier2>
6.64

>  <Lipinski>
1

>  <GhoseFilter>
1

>  <FilterItLogS>
-3

>  <VMcGowan>
192.21

>  <LabuteASA>
110.03

>  <PEOE_VSA1>
10.47

>  <PEOE_VSA2>
4.72

>  <PEOE_VSA3>
8.42

>  <PEOE_VSA4>
0

>  <PEOE_VSA5>
10.2

>  <PEOE_VSA6>
0

>  <PEOE_VSA7>
30.33

>  <PEOE_VSA8>
11.75

>  <PEOE_VSA9>
12.01

>  <PEOE_VSA10>
0

>  <PEOE_VSA11>
5.82

>  <PEOE_VSA12>
5.88

>  <PEOE_VSA13>
10.02

>  <SMR_VSA1>
13.15

>  <SMR_VSA2>
0

>  <SMR_VSA3>
10.2

>  <SMR_VSA4>
0

>  <SMR_VSA5>
4.9

>  <SMR_VSA6>
17.57

>  <SMR_VSA7>
36.4

>  <SMR_VSA8>
0

>  <SMR_VSA9>
5.88

>  <SlogP_VSA1>
15.19

>  <SlogP_VSA2>
25.72

>  <SlogP_VSA3>
10.02

>  <SlogP_VSA4>
0

>  <SlogP_VSA5>
0

>  <SlogP_VSA6>
41.29

>  <SlogP_VSA7>
0

>  <SlogP_VSA8>
0

>  <SlogP_VSA9>
0

>  <SlogP_VSA10>
11.51

>  <SlogP_VSA11>
5.88

>  <EState_VSA1>
10.02

>  <EState_VSA2>
10.71

>  <EState_VSA3>
11.57

>  <EState_VSA4>
0

>  <EState_VSA5>
43.51

>  <EState_VSA6>
0

>  <EState_VSA7>
0

>  <EState_VSA8>
14.92

>  <EState_VSA9>
10.47

>  <EState_VSA10>
8.42

>  <VSA_EState1>
31.17

>  <VSA_EState2>
0.1

>  <VSA_EState3>
7.36

>  <VSA_EState4>
5.99

>  <VSA_EState5>
0.41

>  <VSA_EState6>
8.81

>  <VSA_EState7>
0

>  <VSA_EState8>
0

>  <VSA_EState9>
-2.25

>  <apol>
36.08

>  <bpol>
21.57

>  <nRing>
2

>  <nHRing>
1

>  <naRing>
2

>  <naHRing>
1

>  <nARing 2>
0

>  <nAHRing 2>
0

>  <nFRing>
0

>  <nFHRing>
0

>  <nFaRing>
0

>  <nFaHRing>
0

>  <nFARing 2>
0

>  <nFAHRing 2>
0

>  <nRot>
4

>  <SLogP>
0.87

>  <SMR>
70.25

>  <TopoPSA(NO)>
107.2

>  <TopoPSA>
115.58

>  <JGI1>
0.28

>  <JGI2>
0.1

>  <JGI3>
0.05

>  <JGI4>
0.05

>  <JGI5>
0.03

>  <Diameter>
12

>  <Radius>
6

>  <TMWC10>
110.67

>  <TSRW10>
52.19

>  <MW>
280.06

>  <AMW>
9.03

>  <WPath>
758

>  <WPol>
27

>  <Zagreb1>
96

>  <Zagreb2>
109

>  <mZagreb2>
4.21

>  <yes>


>  <nAR-cont>
0.336376

>  <nHA-cont>
0.998649058

>  <MWHBN>
0.478040228

>  <MWHBN-cont>
0

>  <TPSA-cont>
0.193179829

>  <pka_cont>
0.97

>  <yes.1>


>  <BBB_SCORE>
2.206384716

>  <MMFF94 Energy>
-49.024

$$$$
Compound 116
Actelion Java MolfileCreator 2.0

  0  0  0  0  0  0              0 V3000
M  V30 BEGIN CTAB
M  V30 COUNTS 49 51 0 0 0
M  V30 BEGIN ATOM
M  V30 1 O -2.6888 -2.9263 -0.237 0
M  V30 2 C -2.1195 -2.8489 0.8407 0
M  V30 3 O -2.6714 -2.3915 1.9873 0
M  V30 4 N -0.8307 -3.2025 1.0824 0
M  V30 5 C -4.0344 -1.9869 1.8451 0
M  V30 6 C 0.0512 -3.7026 0.0615 0
M  V30 7 C -4.5156 -1.5004 3.1879 0
M  V30 8 C 0.9361 -2.604 -0.469 0
M  V30 9 C -5.1327 -2.3825 4.0861 0
M  V30 10 C -4.3169 -0.167 3.5737 0
M  V30 11 C 2.2151 -2.3942 0.0639 0
M  V30 12 C 0.4753 -1.7575 -1.4887 0
M  V30 13 C -5.5619 -1.9338 5.3364 0
M  V30 14 C -4.7468 0.2795 4.8245 0
M  V30 15 C 3.0222 -1.3622 -0.4213 0
M  V30 16 C 1.2806 -0.7242 -1.9759 0
M  V30 17 C -5.371 -0.603 5.7041 0
M  V30 18 C 2.5544 -0.5156 -1.4335 0
M  V30 19 C 3.45 0.5738 -1.9172 0
M  V30 20 O 4.6631 0.401 -1.877 0
M  V30 21 N 2.8052 1.7223 -2.329 0
M  V30 22 C 3.4126 2.8699 -2.8826 0
M  V30 23 C 2.7342 4.1002 -2.7503 0
M  V30 24 C 4.5976 2.7993 -3.6206 0
M  V30 25 N 1.5364 4.1974 -2.033 0
M  V30 26 C 3.2223 5.2187 -3.4347 0
M  V30 27 C 5.0986 3.9374 -4.254 0
M  V30 28 C 4.4063 5.1428 -4.1708 0
M  V30 29 H -0.4888 -3.0437 2.0188 0
M  V30 30 H -4.6487 -2.832 1.5102 0
M  V30 31 H -4.1175 -1.1803 1.1059 0
M  V30 32 H 0.6561 -4.4988 0.5095 0
M  V30 33 H -0.5236 -4.1542 -0.7551 0
M  V30 34 H -5.2803 -3.426 3.8167 0
M  V30 35 H -3.8227 0.5302 2.9009 0
M  V30 36 H 2.5957 -3.0344 0.857 0
M  V30 37 H -0.5175 -1.9072 -1.9126 0
M  V30 38 H -6.0423 -2.6239 6.0252 0
M  V30 39 H -4.5914 1.3155 5.1141 0
M  V30 40 H 4.0179 -1.2158 -0.0059 0
M  V30 41 H 0.9075 -0.1135 -2.7935 0
M  V30 42 H -5.7042 -0.255 6.6783 0
M  V30 43 H 1.8073 1.8084 -2.191 0
M  V30 44 H 5.1311 1.86 -3.736 0
M  V30 45 H 1.1165 5.1148 -1.9433 0
M  V30 46 H 1.4323 3.5856 -1.2333 0
M  V30 47 H 2.6942 6.1669 -3.3852 0
M  V30 48 H 6.0192 3.8743 -4.8283 0
M  V30 49 H 4.7864 6.0239 -4.681 0
M  V30 END ATOM
M  V30 BEGIN BOND
M  V30 1 2 1 2
M  V30 2 1 2 3
M  V30 3 1 2 4
M  V30 4 1 3 5
M  V30 5 1 4 6
M  V30 6 1 5 7
M  V30 7 1 6 8
M  V30 8 2 7 9
M  V30 9 1 7 10
M  V30 10 2 8 11
M  V30 11 1 8 12
M  V30 12 1 9 13
M  V30 13 2 10 14
M  V30 14 1 11 15
M  V30 15 2 12 16
M  V30 16 2 13 17
M  V30 17 2 15 18
M  V30 18 1 18 19
M  V30 19 2 19 20
M  V30 20 1 19 21
M  V30 21 1 21 22
M  V30 22 2 22 23
M  V30 23 1 22 24
M  V30 24 1 23 25
M  V30 25 1 23 26
M  V30 26 2 24 27
M  V30 27 2 26 28
M  V30 28 1 14 17
M  V30 29 1 16 18
M  V30 30 1 27 28
M  V30 31 1 4 29
M  V30 32 1 5 30
M  V30 33 1 5 31
M  V30 34 1 6 32
M  V30 35 1 6 33
M  V30 36 1 9 34
M  V30 37 1 10 35
M  V30 38 1 11 36
M  V30 39 1 12 37
M  V30 40 1 13 38
M  V30 41 1 14 39
M  V30 42 1 15 40
M  V30 43 1 16 41
M  V30 44 1 17 42
M  V30 45 1 21 43
M  V30 46 1 24 44
M  V30 47 1 25 45
M  V30 48 1 25 46
M  V30 49 1 26 47
M  V30 50 1 27 48
M  V30 51 1 28 49
M  V30 END BOND
M  V30 END CTAB
M  END
>  <Column 1>
147

>  <level_0>
166

>  <index>
166

>  <Unnamed: 0>
166

>  <NO.>
167

>  <Name>
chembl357268

>  <IUPAC_name>
benzyl n-[[4-[(2-aminophenyl)carbamoyl]phenyl]methyl]carbamate

>  <SMILES>
Nc1ccccc1NC(=O)c1ccc(CNC(=O)OCc2ccccc2)cc1

>  <CID>
5044

>  <logBB>
-0.85

>  <BBB+/BBB->
BBB+

>  <Inchi>
InChI=1S/C22H21N3O3/c23-19-8-4-5-9-20(19)25-21(26)18-12-10-16(11-13-18)14-24-22(27)28-15-17-6-2-1-3-7-17/h1-13H-14-15-23H2-(H-24-27)(H-25-26)

>  <threshold>


>  <reference>
R47|

>  <group>
A

>  <Class>
1

>  <ABC>
21.46

>  <ABCGG>
15.66

>  <nAcid>
0

>  <nBase>
0

>  <nAromAtom>
18

>  <nAromBond>
18

>  <nAtom>
49

>  <nHeavyAtom>
28

>  <nSpiro>
0

>  <nBridgehead>
0

>  <nHetero>
6

>  <nN>
3

>  <nO>
3

>  <nF>
0

>  <BalabanJ>
1.27

>  <BertzCT>
940.76

>  <nBonds>
51

>  <nBondsO>
30

>  <nBondsS>
31

>  <nBondsD>
2

>  <nBondsT>
0

>  <nBondsA>
18

>  <nBondsM>
20

>  <nBondsKS>
40

>  <nBondsKD>
11

>  <RNCG>
0.16

>  <RPCG>
0.15

>  <FCSP3>
0.09

>  <SZ>
33

>  <Sm>
31.26

>  <Sv>
32.11

>  <Sse>
49.3

>  <Sp>
33.8

>  <Si>
54.86

>  <MZ>
0.67

>  <Mm>
0.64

>  <Mv>
0.66

>  <Mse>
1.01

>  <Mp>
0.69

>  <Mi>
1.12

>  <NsCH3>
0

>  <NdCH2>
0

>  <NssCH2>
2

>  <NtCH>
0

>  <NdsCH>
0

>  <NaaCH>
13

>  <NsssCH>
0

>  <NddC>
0

>  <NtsC>
0

>  <NdssC>
2

>  <NaasC>
5

>  <NaaaC>
0

>  <NssssC>
0

>  <NsNH3>
0

>  <NsNH2>
1

>  <NssNH2>
0

>  <NdNH>
0

>  <NssNH>
2

>  <NaaNH>
0

>  <NtN>
0

>  <NsssNH>
0

>  <NdsN>
0

>  <NaaN>
0

>  <NsssN>
0

>  <NddsN>
0

>  <NaasN>
0

>  <NssssN>
0

>  <NsOH>
0

>  <NdO>
2

>  <NssO>
1

>  <NaaO>
0

>  <NsF>
0

>  <NsSiH3>
0

>  <NssSiH2>
0

>  <NsssSiH>
0

>  <NssssSi>
0

>  <NsPH2>
0

>  <NssPH>
0

>  <NsssP>
0

>  <NdsssP>
0

>  <NsssssP>
0

>  <NsSH>
0

>  <NdS>
0

>  <NssS>
0

>  <NaaS>
0

>  <NdssS>
0

>  <NddssS>
0

>  <NsCl>
0

>  <NsBr>
0

>  <NsI>
0

>  <fragCpx>
144.06

>  <fMF>
0.51

>  <nHBAcc>
4

>  <nHBDon>
3

>  <Kier1>
22.68

>  <Kier2>
12

>  <Lipinski>
1

>  <GhoseFilter>
1

>  <FilterItLogS>
-5.6

>  <VMcGowan>
288.51

>  <LabuteASA>
162.88

>  <PEOE_VSA1>
21.1

>  <PEOE_VSA2>
4.79

>  <PEOE_VSA3>
4.79

>  <PEOE_VSA4>
0

>  <PEOE_VSA5>
0

>  <PEOE_VSA6>
54.6

>  <PEOE_VSA7>
35.39

>  <PEOE_VSA8>
12.11

>  <PEOE_VSA9>
11.37

>  <PEOE_VSA10>
6.61

>  <PEOE_VSA11>
0

>  <PEOE_VSA12>
0

>  <PEOE_VSA13>
5.91

>  <SMR_VSA1>
14.33

>  <SMR_VSA2>
0

>  <SMR_VSA3>
5.32

>  <SMR_VSA4>
0

>  <SMR_VSA5>
13.15

>  <SMR_VSA6>
11.05

>  <SMR_VSA7>
95.55

>  <SMR_VSA8>
0

>  <SMR_VSA9>
0

>  <SlogP_VSA1>
16.37

>  <SlogP_VSA2>
12

>  <SlogP_VSA3>
17.89

>  <SlogP_VSA4>
0

>  <SlogP_VSA5>
21.48

>  <SlogP_VSA6>
78.86

>  <SlogP_VSA7>
0

>  <SlogP_VSA8>
0

>  <SlogP_VSA9>
0

>  <SlogP_VSA10>
16.17

>  <SlogP_VSA11>
0

>  <EState_VSA1>
6.09

>  <EState_VSA2>
12.51

>  <EState_VSA3>
23.48

>  <EState_VSA4>
11.13

>  <EState_VSA5>
0

>  <EState_VSA6>
48.53

>  <EState_VSA7>
30.33

>  <EState_VSA8>
10.63

>  <EState_VSA9>
10.47

>  <EState_VSA10>
9.59

>  <VSA_EState1>
5.16

>  <VSA_EState2>
24.1

>  <VSA_EState3>
5.46

>  <VSA_EState4>
9.18

>  <VSA_EState5>
-0.25

>  <VSA_EState6>
23.48

>  <VSA_EState7>
-0.5

>  <VSA_EState8>
0.52

>  <VSA_EState9>
0

>  <apol>
56.45

>  <bpol>
25.11

>  <nRing>
3

>  <nHRing>
0

>  <naRing>
3

>  <naHRing>
0

>  <nARing 2>
0

>  <nAHRing 2>
0

>  <nFRing>
0

>  <nFHRing>
0

>  <nFaRing>
0

>  <nFaHRing>
0

>  <nFARing 2>
0

>  <nFAHRing 2>
0

>  <nRot>
6

>  <SLogP>
3.95

>  <SMR>
108.72

>  <TopoPSA(NO)>
93.45

>  <TopoPSA>
93.45

>  <JGI1>
0.17

>  <JGI2>
0.07

>  <JGI3>
0.02

>  <JGI4>
0.04

>  <JGI5>
0.03

>  <Diameter>
18

>  <Radius>
9

>  <TMWC10>
131.97

>  <TSRW10>
62.64

>  <MW>
375.16

>  <AMW>
7.66

>  <WPath>
2622

>  <WPol>
38

>  <Zagreb1>
138

>  <Zagreb2>
155

>  <mZagreb2>
6.31

>  <yes>


>  <nAR-cont>
0.336376

>  <nHA-cont>
0.82432561

>  <MWHBN>
0.361401355

>  <MWHBN-cont>
0.627056732

>  <TPSA-cont>
0.347660971

>  <pka_cont>
0.97

>  <yes.1>


>  <BBB_SCORE>
3.281608651

>  <MMFF94 Energy>
-11.019

$$$$
Compound 117
Actelion Java MolfileCreator 2.0

  0  0  0  0  0  0              0 V3000
M  V30 BEGIN CTAB
M  V30 COUNTS 43 45 0 0 0
M  V30 BEGIN ATOM
M  V30 1 S 1.0481 0.1611 -1.1287 0 CFG=2
M  V30 2 O 2.1304 -0.1975 -0.1474 0
M  V30 3 C 0.5402 1.8236 -0.651 0
M  V30 4 C -0.4977 -0.6721 -0.6603 0
M  V30 5 N -0.6193 2.3787 -0.9257 0
M  V30 6 N 1.3458 2.663 0.069 0
M  V30 7 C -0.438 -2.1471 -0.9667 0
M  V30 8 C -0.5561 3.6309 -0.3632 0
M  V30 9 C 0.6656 3.8354 0.2703 0
M  V30 10 N -0.7285 -2.4733 -2.2556 0
M  V30 11 C -0.1065 -3.1113 -0.0049 0
M  V30 12 C -1.511 4.655 -0.3491 0
M  V30 13 C 1.0041 5.021 0.9338 0
M  V30 14 C -0.6748 -3.7739 -2.6128 0
M  V30 15 C -0.131 -4.4552 -0.4135 0
M  V30 16 C 0.2176 -2.7406 1.4145 0
M  V30 17 C -1.1956 5.8526 0.308 0
M  V30 18 C 0.0399 6.038 0.9408 0
M  V30 19 C -0.366 -4.8064 -1.7449 0
M  V30 20 O 0.1528 -5.4506 0.491 0
M  V30 21 O 0.1855 7.2645 1.5354 0
M  V30 22 C -0.3376 -6.2226 -2.2265 0
M  V30 23 C -1.0441 -5.8897 1.1371 0
M  V30 24 C 1.4219 7.5227 2.1885 0
M  V30 25 H -0.7159 -0.4792 0.3943 0
M  V30 26 H -1.3121 -0.2293 -1.2456 0
M  V30 27 H 2.2709 2.4242 0.3985 0
M  V30 28 H -2.4698 4.5192 -0.8368 0
M  V30 29 H 1.9704 5.1232 1.4104 0
M  V30 30 H -0.896 -3.9631 -3.6601 0
M  V30 31 H 0.8777 -1.8703 1.4578 0
M  V30 32 H -0.7038 -2.5193 1.9623 0
M  V30 33 H 0.7448 -3.5432 1.9395 0
M  V30 34 H -1.9299 6.6555 0.325 0
M  V30 35 H 0.4751 -6.7826 -1.7528 0
M  V30 36 H -0.1673 -6.2675 -3.3076 0
M  V30 37 H -1.2893 -6.716 -2.0072 0
M  V30 38 H -1.5076 -5.0811 1.7122 0
M  V30 39 H -0.7728 -6.6877 1.8347 0
M  V30 40 H -1.7608 -6.2989 0.4172 0
M  V30 41 H 1.5802 6.8301 3.0217 0
M  V30 42 H 1.3767 8.5351 2.6015 0
M  V30 43 H 2.2568 7.4889 1.4809 0
M  V30 END ATOM
M  V30 BEGIN BOND
M  V30 1 2 1 2
M  V30 2 1 1 3
M  V30 3 1 1 4
M  V30 4 2 3 5
M  V30 5 1 3 6
M  V30 6 1 4 7
M  V30 7 1 5 8
M  V30 8 1 6 9
M  V30 9 2 7 10
M  V30 10 1 7 11
M  V30 11 1 8 12
M  V30 12 1 9 13
M  V30 13 1 10 14
M  V30 14 2 11 15
M  V30 15 1 11 16
M  V30 16 2 12 17
M  V30 17 2 13 18
M  V30 18 2 14 19
M  V30 19 1 15 20
M  V30 20 1 18 21
M  V30 21 1 19 22
M  V30 22 1 20 23
M  V30 23 1 21 24
M  V30 24 2 8 9
M  V30 25 1 15 19
M  V30 26 1 17 18
M  V30 27 1 4 25
M  V30 28 1 4 26
M  V30 29 1 6 27
M  V30 30 1 12 28
M  V30 31 1 13 29
M  V30 32 1 14 30
M  V30 33 1 16 31
M  V30 34 1 16 32
M  V30 35 1 16 33
M  V30 36 1 17 34
M  V30 37 1 22 35
M  V30 38 1 22 36
M  V30 39 1 22 37
M  V30 40 1 23 38
M  V30 41 1 23 39
M  V30 42 1 23 40
M  V30 43 1 24 41
M  V30 44 1 24 42
M  V30 45 1 24 43
M  V30 END BOND
M  V30 BEGIN COLLECTION
M  V30 MDLV30/STERAC1 ATOMS=(1 1)
M  V30 END COLLECTION
M  V30 END CTAB
M  END
>  <Column 1>
149

>  <level_0>
169

>  <index>
169

>  <Unnamed: 0>
169

>  <NO.>
170

>  <Name>
omeprazole

>  <IUPAC_name>
6-methoxy-2-[(4-methoxy-3-5-dimethylpyridin-2-yl)methylsulfinyl]-1h-benzimidazole

>  <SMILES>
COc1ccc2nc([S+]([O-])Cc3ncc(C)c(OC)c3C)[nH]c2c1

>  <CID>
4594

>  <logBB>
-0.82

>  <BBB+/BBB->
BBB+

>  <Inchi>
InChI=1S/C17H19N3O3S/c1-10-8-18-15(11(2)16(10)23-4)9-24(21)17-19-13-6-5-12(22-3)7-14(13)20-17/h5-8H-9H2-1-4H3-(H-19-20)

>  <threshold>


>  <reference>
R4|R11|R21|R25|R27|R43|R46|R47|R2|R2|R8|R40|

>  <group>
A

>  <Class>
1

>  <ABC>
18.51

>  <ABCGG>
15.2

>  <nAcid>
0

>  <nBase>
0

>  <nAromAtom>
15

>  <nAromBond>
16

>  <nAtom>
43

>  <nHeavyAtom>
24

>  <nSpiro>
0

>  <nBridgehead>
0

>  <nHetero>
7

>  <nN>
3

>  <nO>
3

>  <nF>
0

>  <BalabanJ>
1.53

>  <BertzCT>
878.89

>  <nBonds>
45

>  <nBondsO>
26

>  <nBondsS>
29

>  <nBondsD>
0

>  <nBondsT>
0

>  <nBondsA>
16

>  <nBondsM>
16

>  <nBondsKS>
38

>  <nBondsKD>
7

>  <RNCG>
0.25

>  <RPCG>
0.13

>  <FCSP3>
0.29

>  <SZ>
30.33

>  <Sm>
28.76

>  <Sv>
27.75

>  <Sse>
43.49

>  <Sp>
29.74

>  <Si>
48.37

>  <MZ>
0.71

>  <Mm>
0.67

>  <Mv>
0.65

>  <Mse>
1.01

>  <Mp>
0.69

>  <Mi>
1.12

>  <NsCH3>
4

>  <NdCH2>
0

>  <NssCH2>
1

>  <NtCH>
0

>  <NdsCH>
0

>  <NaaCH>
4

>  <NsssCH>
0

>  <NddC>
0

>  <NtsC>
0

>  <NdssC>
0

>  <NaasC>
6

>  <NaaaC>
2

>  <NssssC>
0

>  <NsNH3>
0

>  <NsNH2>
0

>  <NssNH2>
0

>  <NdNH>
0

>  <NssNH>
0

>  <NaaNH>
1

>  <NtN>
0

>  <NsssNH>
0

>  <NdsN>
0

>  <NaaN>
2

>  <NsssN>
0

>  <NddsN>
0

>  <NaasN>
0

>  <NssssN>
0

>  <NsOH>
0

>  <NdO>
0

>  <NssO>
2

>  <NaaO>
0

>  <NsF>
0

>  <NsSiH3>
0

>  <NssSiH2>
0

>  <NsssSiH>
0

>  <NssssSi>
0

>  <NsPH2>
0

>  <NssPH>
0

>  <NsssP>
0

>  <NdsssP>
0

>  <NsssssP>
0

>  <NsSH>
0

>  <NdS>
0

>  <NssS>
0

>  <NaaS>
0

>  <NdssS>
0

>  <NddssS>
0

>  <NsCl>
0

>  <NsBr>
0

>  <NsI>
0

>  <fragCpx>
124.07

>  <fMF>
0.4

>  <nHBAcc>
5

>  <nHBDon>
1

>  <Kier1>
18.78

>  <Kier2>
8.13

>  <Lipinski>
1

>  <GhoseFilter>
1

>  <FilterItLogS>
-6.01

>  <VMcGowan>
251.61

>  <LabuteASA>
142.96

>  <PEOE_VSA1>
14.03

>  <PEOE_VSA2>
9.97

>  <PEOE_VSA3>
0

>  <PEOE_VSA4>
4.98

>  <PEOE_VSA5>
0

>  <PEOE_VSA6>
0

>  <PEOE_VSA7>
25.98

>  <PEOE_VSA8>
34.57

>  <PEOE_VSA9>
30.95

>  <PEOE_VSA10>
11.5

>  <PEOE_VSA11>
5.75

>  <PEOE_VSA12>
0

>  <PEOE_VSA13>
0

>  <SMR_VSA1>
14.03

>  <SMR_VSA2>
0

>  <SMR_VSA3>
14.95

>  <SMR_VSA4>
0

>  <SMR_VSA5>
24.76

>  <SMR_VSA6>
14.22

>  <SMR_VSA7>
41.22

>  <SMR_VSA8>
0

>  <SMR_VSA9>
11.5

>  <SlogP_VSA1>
9.47

>  <SlogP_VSA2>
33.72

>  <SlogP_VSA3>
16.93

>  <SlogP_VSA4>
13.85

>  <SlogP_VSA5>
16.82

>  <SlogP_VSA6>
29.55

>  <SlogP_VSA7>
0

>  <SlogP_VSA8>
11.03

>  <SlogP_VSA9>
0

>  <SlogP_VSA10>
0

>  <SlogP_VSA11>
11.5

>  <EState_VSA1>
11.18

>  <EState_VSA2>
5.75

>  <EState_VSA3>
5.16

>  <EState_VSA4>
39.35

>  <EState_VSA5>
0

>  <EState_VSA6>
20.42

>  <EState_VSA7>
32.05

>  <EState_VSA8>
14.95

>  <EState_VSA9>
9.47

>  <EState_VSA10>
4.55

>  <VSA_EState1>
23.27

>  <VSA_EState2>
11.9

>  <VSA_EState3>
0.43

>  <VSA_EState4>
4.16

>  <VSA_EState5>
1.79

>  <VSA_EState6>
5.5

>  <VSA_EState7>
1.74

>  <VSA_EState8>
3.86

>  <VSA_EState9>
3.23

>  <apol>
49.67

>  <bpol>
29.94

>  <nRing>
3

>  <nHRing>
2

>  <naRing>
3

>  <naHRing>
2

>  <nARing 2>
0

>  <nAHRing 2>
0

>  <nFRing>
1

>  <nFHRing>
1

>  <nFaRing>
1

>  <nFaHRing>
1

>  <nFARing 2>
0

>  <nFAHRing 2>
0

>  <nRot>
5

>  <SLogP>
2.9

>  <SMR>
93.02

>  <TopoPSA(NO)>
83.09

>  <TopoPSA>
83.09

>  <JGI1>
0.21

>  <JGI2>
0.09

>  <JGI3>
0.05

>  <JGI4>
0.05

>  <JGI5>
0.03

>  <Diameter>
13

>  <Radius>
7

>  <TMWC10>
125.26

>  <TSRW10>
72.64

>  <MW>
345.11

>  <AMW>
8.03

>  <WPath>
1419

>  <WPol>
39

>  <Zagreb1>
126

>  <Zagreb2>
150

>  <mZagreb2>
5.39

>  <yes>


>  <nAR-cont>
0.336376

>  <nHA-cont>
0.94700071

>  <MWHBN>
0.322977656

>  <MWHBN-cont>
0.767103222

>  <TPSA-cont>
0.419980204

>  <pka_cont>
0.97

>  <yes.1>


>  <BBB_SCORE>
3.758991951

>  <MMFF94 Energy>
45.829

$$$$
Compound 118
Actelion Java MolfileCreator 2.0

  0  0  0  0  0  0              0 V3000
M  V30 BEGIN CTAB
M  V30 COUNTS 54 58 0 0 0
M  V30 BEGIN ATOM
M  V30 1 Cl 2.657 4.1085 -5.6424 0
M  V30 2 C 2.1999 2.5589 -5.0459 0
M  V30 3 C 2.5463 1.4179 -5.7692 0
M  V30 4 C 1.4818 2.4706 -3.8363 0
M  V30 5 C 2.1501 0.2119 -5.2371 0
M  V30 6 C 1.091 1.2272 -3.3206 0
M  V30 7 N 2.3575 -1.0646 -5.7415 0
M  V30 8 C 1.4376 0.1028 -4.0393 0
M  V30 9 C 1.7805 -2.0003 -4.8727 0
M  V30 10 N 1.2077 -1.2653 -3.8076 0
M  V30 11 O 1.7865 -3.2089 -5.0335 0
M  V30 12 C 0.5058 -1.8793 -2.6959 0
M  V30 13 C 1.1859 -1.6378 -1.3439 0
M  V30 14 C -0.9849 -1.5264 -2.6617 0
M  V30 15 C 0.3935 -2.3049 -0.2197 0
M  V30 16 C -1.6712 -2.192 -1.4671 0
M  V30 17 N -1.0223 -1.9113 -0.1757 0
M  V30 18 C -1.2646 -0.5295 0.2675 0
M  V30 19 C -0.798 -0.256 1.7016 0
M  V30 20 C -1.2747 1.1196 2.1696 0
M  V30 21 N -0.7281 1.4723 3.4539 0
M  V30 22 C 0.4379 2.2389 3.6535 0
M  V30 23 C -1.2144 1.0592 4.7015 0
M  V30 24 O 1.1491 2.7496 2.8046 0
M  V30 25 N 0.6402 2.3018 5.0411 0
M  V30 26 C -0.3639 1.581 5.6772 0
M  V30 27 C -2.3053 0.287 5.0354 0
M  V30 28 C -0.5576 1.3626 7.0215 0
M  V30 29 C -2.5249 0.0497 6.3975 0
M  V30 30 C -1.6612 0.5819 7.3794 0
M  V30 31 H 3.0977 1.4788 -6.6988 0
M  V30 32 H 1.2267 3.3773 -3.2909 0
M  V30 33 H 0.5404 1.1775 -2.3903 0
M  V30 34 H 2.8382 -1.3187 -6.5888 0
M  V30 35 H 0.5553 -2.9637 -2.8696 0
M  V30 36 H 1.295 -0.5699 -1.1323 0
M  V30 37 H 2.2031 -2.0481 -1.3656 0
M  V30 38 H -1.4648 -1.8616 -3.5896 0
M  V30 39 H -1.1366 -0.4432 -2.6181 0
M  V30 40 H 0.8863 -2.1248 0.7411 0
M  V30 41 H 0.4407 -3.3941 -0.3532 0
M  V30 42 H -1.6815 -3.2791 -1.6206 0
M  V30 43 H -2.727 -1.896 -1.4347 0
M  V30 44 H -2.3459 -0.3426 0.2327 0
M  V30 45 H -0.8001 0.1985 -0.407 0
M  V30 46 H -1.1813 -1.0298 2.378 0
M  V30 47 H 0.2958 -0.2912 1.7609 0
M  V30 48 H -2.3685 1.1621 2.2211 0
M  V30 49 H -0.9522 1.8788 1.4473 0
M  V30 50 H 1.4087 2.788 5.4719 0
M  V30 51 H -2.9695 -0.1259 4.2865 0
M  V30 52 H 0.1087 1.7708 7.7712 0
M  V30 53 H -3.3744 -0.5561 6.7069 0
M  V30 54 H -1.8586 0.3785 8.43 0
M  V30 END ATOM
M  V30 BEGIN BOND
M  V30 1 1 1 2
M  V30 2 2 2 3
M  V30 3 1 2 4
M  V30 4 1 3 5
M  V30 5 2 4 6
M  V30 6 1 5 7
M  V30 7 2 5 8
M  V30 8 1 7 9
M  V30 9 1 8 10
M  V30 10 2 9 11
M  V30 11 1 10 12
M  V30 12 1 12 13
M  V30 13 1 12 14
M  V30 14 1 13 15
M  V30 15 1 14 16
M  V30 16 1 15 17
M  V30 17 1 17 18
M  V30 18 1 18 19
M  V30 19 1 19 20
M  V30 20 1 20 21
M  V30 21 1 21 22
M  V30 22 1 21 23
M  V30 23 2 22 24
M  V30 24 1 22 25
M  V30 25 2 23 26
M  V30 26 1 23 27
M  V30 27 1 26 28
M  V30 28 2 27 29
M  V30 29 2 28 30
M  V30 30 1 6 8
M  V30 31 1 9 10
M  V30 32 1 16 17
M  V30 33 1 25 26
M  V30 34 1 29 30
M  V30 35 1 3 31
M  V30 36 1 4 32
M  V30 37 1 6 33
M  V30 38 1 7 34
M  V30 39 1 12 35
M  V30 40 1 13 36
M  V30 41 1 13 37
M  V30 42 1 14 38
M  V30 43 1 14 39
M  V30 44 1 15 40
M  V30 45 1 15 41
M  V30 46 1 16 42
M  V30 47 1 16 43
M  V30 48 1 18 44
M  V30 49 1 18 45
M  V30 50 1 19 46
M  V30 51 1 19 47
M  V30 52 1 20 48
M  V30 53 1 20 49
M  V30 54 1 25 50
M  V30 55 1 27 51
M  V30 56 1 28 52
M  V30 57 1 29 53
M  V30 58 1 30 54
M  V30 END BOND
M  V30 END CTAB
M  END
>  <Column 1>
151

>  <level_0>
171

>  <index>
171

>  <Unnamed: 0>
171

>  <NO.>
172

>  <Name>
domperidone

>  <IUPAC_name>
6-chloro-3-[1-[3-(2-oxo-3h-benzimidazol-1-yl)propyl]piperidin-4-yl]-1h-benzimidazol-2-one

>  <SMILES>
O=c1[nH]c2ccccc2n1CCCN1CCC(n2c(=O)[nH]c3cc(Cl)ccc32)CC1

>  <CID>
3151

>  <logBB>
-0.8

>  <BBB+/BBB->
BBB+

>  <Inchi>
InChI=1S/C22H24ClN5O2/c23-15-6-7-20-18(14-15)25-22(30)28(20)16-8-12-26(13-9-16)10-3-11-27-19-5-2-1-4-17(19)24-21(27)29/h1-2-4-7-14-16H-3-8-13H2-(H-24-29)(H-25-30)

>  <threshold>


>  <reference>
R27|R47|R3|R18|R26|R38|R41|R40|R8|R21|R27|R2|R2|R5|R25|R36|R39|R46|R49|

>  <group>
A

>  <Class>
1

>  <ABC>
24.09

>  <ABCGG>
17.59

>  <nAcid>
0

>  <nBase>
1

>  <nAromAtom>
18

>  <nAromBond>
20

>  <nAtom>
54

>  <nHeavyAtom>
30

>  <nSpiro>
0

>  <nBridgehead>
0

>  <nHetero>
8

>  <nN>
5

>  <nO>
2

>  <nF>
0

>  <BalabanJ>
1.06

>  <BertzCT>
1306.55

>  <nBonds>
58

>  <nBondsO>
34

>  <nBondsS>
36

>  <nBondsD>
2

>  <nBondsT>
0

>  <nBondsA>
20

>  <nBondsM>
22

>  <nBondsKS>
50

>  <nBondsKD>
8

>  <RNCG>
0.13

>  <RPCG>
0.13

>  <FCSP3>
0.36

>  <SZ>
37.33

>  <Sm>
35.46

>  <Sv>
34.81

>  <Sse>
54.4

>  <Sp>
37.14

>  <Si>
61.01

>  <MZ>
0.69

>  <Mm>
0.66

>  <Mv>
0.64

>  <Mse>
1.01

>  <Mp>
0.69

>  <Mi>
1.13

>  <NsCH3>
0

>  <NdCH2>
0

>  <NssCH2>
7

>  <NtCH>
0

>  <NdsCH>
0

>  <NaaCH>
7

>  <NsssCH>
1

>  <NddC>
0

>  <NtsC>
0

>  <NdssC>
0

>  <NaasC>
1

>  <NaaaC>
4

>  <NssssC>
0

>  <NsNH3>
0

>  <NsNH2>
0

>  <NssNH2>
0

>  <NdNH>
0

>  <NssNH>
0

>  <NaaNH>
2

>  <NtN>
0

>  <NsssNH>
0

>  <NdsN>
0

>  <NaaN>
0

>  <NsssN>
1

>  <NddsN>
0

>  <NaasN>
2

>  <NssssN>
0

>  <NsOH>
0

>  <NdO>
2

>  <NssO>
0

>  <NaaO>
0

>  <NsF>
0

>  <NsSiH3>
0

>  <NssSiH2>
0

>  <NsssSiH>
0

>  <NssssSi>
0

>  <NsPH2>
0

>  <NssPH>
0

>  <NsssP>
0

>  <NdsssP>
0

>  <NsssssP>
0

>  <NsSH>
0

>  <NdS>
0

>  <NssS>
0

>  <NaaS>
0

>  <NdssS>
0

>  <NddssS>
0

>  <NsCl>
1

>  <NsBr>
0

>  <NsI>
0

>  <fragCpx>
286.08

>  <fMF>
0.5

>  <nHBAcc>
5

>  <nHBDon>
2

>  <Kier1>
21.83

>  <Kier2>
9.47

>  <Lipinski>
1

>  <GhoseFilter>
1

>  <FilterItLogS>
-5.27

>  <VMcGowan>
306.02

>  <LabuteASA>
177.43

>  <PEOE_VSA1>
14.87

>  <PEOE_VSA2>
9.13

>  <PEOE_VSA3>
9.59

>  <PEOE_VSA4>
0

>  <PEOE_VSA5>
0

>  <PEOE_VSA6>
23.73

>  <PEOE_VSA7>
56.14

>  <PEOE_VSA8>
30.7

>  <PEOE_VSA9>
22.07

>  <PEOE_VSA10>
0

>  <PEOE_VSA11>
0

>  <PEOE_VSA12>
0

>  <PEOE_VSA13>
0

>  <SMR_VSA1>
0

>  <SMR_VSA2>
0

>  <SMR_VSA3>
24

>  <SMR_VSA4>
0

>  <SMR_VSA5>
31.85

>  <SMR_VSA6>
19.63

>  <SMR_VSA7>
68.46

>  <SMR_VSA8>
0

>  <SMR_VSA9>
0

>  <SlogP_VSA1>
11.38

>  <SlogP_VSA2>
43.64

>  <SlogP_VSA3>
6.54

>  <SlogP_VSA4>
0

>  <SlogP_VSA5>
25.3

>  <SlogP_VSA6>
52.05

>  <SlogP_VSA7>
5.02

>  <SlogP_VSA8>
22.07

>  <SlogP_VSA9>
0

>  <SlogP_VSA10>
0

>  <SlogP_VSA11>
0

>  <EState_VSA1>
0

>  <EState_VSA2>
17.42

>  <EState_VSA3>
11.57

>  <EState_VSA4>
60.96

>  <EState_VSA5>
0

>  <EState_VSA6>
6.07

>  <EState_VSA7>
45.53

>  <EState_VSA8>
14.87

>  <EState_VSA9>
11.6

>  <EState_VSA10>
9.59

>  <VSA_EState1>
3.7

>  <VSA_EState2>
32.95

>  <VSA_EState3>
0.63

>  <VSA_EState4>
3.44

>  <VSA_EState5>
0

>  <VSA_EState6>
13.54

>  <VSA_EState7>
2.78

>  <VSA_EState8>
3.53

>  <VSA_EState9>
0

>  <apol>
62.03

>  <bpol>
32.59

>  <nRing>
5

>  <nHRing>
3

>  <naRing>
4

>  <naHRing>
2

>  <nARing 2>
1

>  <nAHRing 2>
1

>  <nFRing>
2

>  <nFHRing>
2

>  <nFaRing>
2

>  <nFaHRing>
2

>  <nFARing 2>
0

>  <nFAHRing 2>
0

>  <nRot>
5

>  <SLogP>
3.35

>  <SMR>
119.46

>  <TopoPSA(NO)>
78.82

>  <TopoPSA>
78.82

>  <JGI1>
0.16

>  <JGI2>
0.07

>  <JGI3>
0.06

>  <JGI4>
0.03

>  <JGI5>
0.02

>  <Diameter>
17

>  <Radius>
9

>  <TMWC10>
142.27

>  <TSRW10>
82.39

>  <MW>
425.16

>  <AMW>
7.87

>  <WPath>
2853

>  <WPol>
49

>  <Zagreb1>
166

>  <Zagreb2>
200

>  <mZagreb2>
6.44

>  <yes>


>  <nAR-cont>
0.816016

>  <nHA-cont>
0.74523694

>  <MWHBN>
0.339485978

>  <MWHBN-cont>
0.70899862

>  <TPSA-cont>
0.449787456

>  <pka_cont>
0.97

>  <yes.1>


>  <BBB_SCORE>
4.009325781

>  <MMFF94 Energy>
-43.744

$$$$
Compound 119
Actelion Java MolfileCreator 2.0

  0  0  0  0  0  0              0 V3000
M  V30 BEGIN CTAB
M  V30 COUNTS 22 21 0 0 0
M  V30 BEGIN ATOM
M  V30 1 O 0.2326 1.1638 1.8627 0
M  V30 2 C -0.0148 0.8586 0.6966 0
M  V30 3 C -0.2763 -0.571 0.3176 0
M  V30 4 C -0.0272 1.9167 -0.3695 0
M  V30 5 O 0.0453 -1.0343 -0.9434 0
M  V30 6 C -0.8723 -1.3314 1.2492 0
M  V30 7 C -0.7438 1.8077 -1.5003 0
M  V30 8 C 0.775 3.1441 -0.0501 0
M  V30 9 C 1.4538 -1.2247 -1.0677 0
M  V30 10 C -1.1896 -2.7453 1.0365 0
M  V30 11 O -0.8367 -3.4775 0.1341 0
M  V30 12 O -1.968 -3.1881 2.0392 0
M  V30 13 H -1.1411 -0.9263 2.2194 0
M  V30 14 H -0.7465 2.6027 -2.2403 0
M  V30 15 H -1.3621 0.9444 -1.7261 0
M  V30 16 H 0.7646 3.8655 -0.8743 0
M  V30 17 H 0.3751 3.6484 0.8359 0
M  V30 18 H 1.8199 2.8774 0.1406 0
M  V30 19 H 1.9924 -0.2749 -0.9859 0
M  V30 20 H 1.6504 -1.6424 -2.0594 0
M  V30 21 H 1.8216 -1.9348 -0.3188 0
M  V30 22 H -2.1238 -4.1292 1.8145 0
M  V30 END ATOM
M  V30 BEGIN BOND
M  V30 1 2 1 2
M  V30 2 1 2 3
M  V30 3 1 2 4
M  V30 4 1 3 5
M  V30 5 2 3 6
M  V30 6 2 4 7
M  V30 7 1 4 8
M  V30 8 1 5 9
M  V30 9 1 6 10
M  V30 10 2 10 11
M  V30 11 1 10 12
M  V30 12 1 6 13
M  V30 13 1 7 14
M  V30 14 1 7 15
M  V30 15 1 8 16
M  V30 16 1 8 17
M  V30 17 1 8 18
M  V30 18 1 9 19
M  V30 19 1 9 20
M  V30 20 1 9 21
M  V30 21 1 12 22
M  V30 END BOND
M  V30 END CTAB
M  END
>  <Column 1>
154

>  <level_0>
174

>  <index>
174

>  <Unnamed: 0>
174

>  <NO.>
175

>  <Name>
penicillic acid

>  <IUPAC_name>
(2z)-3-methoxy-5-methyl-4-oxohexa-2-5-dienoic acid

>  <SMILES>
C=C(C)C(=O)/C(=C/C(=O)O)OC

>  <CID>
1268111

>  <logBB>
-0.8

>  <BBB+/BBB->
BBB+

>  <Inchi>
InChI=1S/C8H10O4/c1-5(2)8(11)6(12-3)4-7(9)10/h4H-1H2-2-3H3-(H-9-10)/b6-4-

>  <threshold>


>  <reference>
R20|

>  <group>
A

>  <Class>
1

>  <ABC>
8.24

>  <ABCGG>
8.74

>  <nAcid>
1

>  <nBase>
0

>  <nAromAtom>
0

>  <nAromBond>
0

>  <nAtom>
22

>  <nHeavyAtom>
12

>  <nSpiro>
0

>  <nBridgehead>
0

>  <nHetero>
4

>  <nN>
0

>  <nO>
4

>  <nF>
0

>  <BalabanJ>
3.96

>  <BertzCT>
249.78

>  <nBonds>
21

>  <nBondsO>
11

>  <nBondsS>
17

>  <nBondsD>
4

>  <nBondsT>
0

>  <nBondsA>
0

>  <nBondsM>
4

>  <nBondsKS>
17

>  <nBondsKD>
4

>  <RNCG>
0.3

>  <RPCG>
0.2

>  <FCSP3>
0.25

>  <SZ>
15

>  <Sm>
14.17

>  <Sv>
13.57

>  <Sse>
22.76

>  <Sp>
13.91

>  <Si>
24.91

>  <MZ>
0.68

>  <Mm>
0.64

>  <Mv>
0.62

>  <Mse>
1.03

>  <Mp>
0.63

>  <Mi>
1.13

>  <NsCH3>
2

>  <NdCH2>
1

>  <NssCH2>
0

>  <NtCH>
0

>  <NdsCH>
1

>  <NaaCH>
0

>  <NsssCH>
0

>  <NddC>
0

>  <NtsC>
0

>  <NdssC>
4

>  <NaasC>
0

>  <NaaaC>
0

>  <NssssC>
0

>  <NsNH3>
0

>  <NsNH2>
0

>  <NssNH2>
0

>  <NdNH>
0

>  <NssNH>
0

>  <NaaNH>
0

>  <NtN>
0

>  <NsssNH>
0

>  <NdsN>
0

>  <NaaN>
0

>  <NsssN>
0

>  <NddsN>
0

>  <NaasN>
0

>  <NssssN>
0

>  <NsOH>
1

>  <NdO>
2

>  <NssO>
1

>  <NaaO>
0

>  <NsF>
0

>  <NsSiH3>
0

>  <NssSiH2>
0

>  <NsssSiH>
0

>  <NssssSi>
0

>  <NsPH2>
0

>  <NssPH>
0

>  <NsssP>
0

>  <NdsssP>
0

>  <NsssssP>
0

>  <NsSH>
0

>  <NdS>
0

>  <NssS>
0

>  <NaaS>
0

>  <NdssS>
0

>  <NddssS>
0

>  <NsCl>
0

>  <NsBr>
0

>  <NsI>
0

>  <fragCpx>
11.04

>  <fMF>
0

>  <nHBAcc>
3

>  <nHBDon>
1

>  <Kier1>
12

>  <Kier2>
5.61

>  <Lipinski>
1

>  <GhoseFilter>
1

>  <FilterItLogS>
-0.25

>  <VMcGowan>
129.86

>  <LabuteASA>
70.15

>  <PEOE_VSA1>
9.84

>  <PEOE_VSA2>
4.79

>  <PEOE_VSA3>
4.79

>  <PEOE_VSA4>
0

>  <PEOE_VSA5>
0

>  <PEOE_VSA6>
6.58

>  <PEOE_VSA7>
12.5

>  <PEOE_VSA8>
0

>  <PEOE_VSA9>
13.19

>  <PEOE_VSA10>
0

>  <PEOE_VSA11>
5.76

>  <PEOE_VSA12>
5.78

>  <PEOE_VSA13>
0

>  <SMR_VSA1>
19.43

>  <SMR_VSA2>
0

>  <SMR_VSA3>
0

>  <SMR_VSA4>
0

>  <SMR_VSA5>
6.92

>  <SMR_VSA6>
7.11

>  <SMR_VSA7>
23.99

>  <SMR_VSA8>
0

>  <SMR_VSA9>
0

>  <SlogP_VSA1>
0

>  <SlogP_VSA2>
23.97

>  <SlogP_VSA3>
14.33

>  <SlogP_VSA4>
0

>  <SlogP_VSA5>
6.92

>  <SlogP_VSA6>
23.99

>  <SlogP_VSA7>
0

>  <SlogP_VSA8>
0

>  <SlogP_VSA9>
0

>  <SlogP_VSA10>
0

>  <SlogP_VSA11>
0

>  <EState_VSA1>
11.75

>  <EState_VSA2>
11.33

>  <EState_VSA3>
6.08

>  <EState_VSA4>
0

>  <EState_VSA5>
14.03

>  <EState_VSA6>
0

>  <EState_VSA7>
0

>  <EState_VSA8>
11.32

>  <EState_VSA9>
5.11

>  <EState_VSA10>
9.59

>  <VSA_EState1>
4.55

>  <VSA_EState2>
21.21

>  <VSA_EState3>
8.31

>  <VSA_EState4>
0.24

>  <VSA_EState5>
-1.93

>  <VSA_EState6>
0

>  <VSA_EState7>
0.71

>  <VSA_EState8>
4.85

>  <VSA_EState9>
1.23

>  <apol>
23.24

>  <bpol>
13.5

>  <nRing>
0

>  <nHRing>
0

>  <naRing>
0

>  <naHRing>
0

>  <nARing 2>
0

>  <nAHRing 2>
0

>  <nFRing>
0

>  <nFHRing>
0

>  <nFaRing>
0

>  <nFaHRing>
0

>  <nFARing 2>
0

>  <nFAHRing 2>
0

>  <nRot>
4

>  <SLogP>
0.75

>  <SMR>
42.55

>  <TopoPSA(NO)>
63.6

>  <TopoPSA>
63.6

>  <JGI1>
0.32

>  <JGI2>
0.11

>  <JGI3>
0.07

>  <JGI4>
0.05

>  <JGI5>
0.02

>  <Diameter>
6

>  <Radius>
3

>  <TMWC10>
86.65

>  <TSRW10>
41.35

>  <MW>
170.06

>  <AMW>
7.73

>  <WPath>
207

>  <WPol>
14

>  <Zagreb1>
50

>  <Zagreb2>
53

>  <mZagreb2>
2.89

>  <yes>


>  <nAR-cont>
0.336376

>  <nHA-cont>
0.785745021

>  <MWHBN>
0.306731871

>  <MWHBN-cont>
0.820170545

>  <TPSA-cont>
0.556032507

>  <pka_cont>
0.97

>  <yes.1>


>  <BBB_SCORE>
3.949441852

>  <MMFF94 Energy>
5.0458

$$$$
Compound 120
Actelion Java MolfileCreator 2.0

  0  0  0  0  0  0              0 V3000
M  V30 BEGIN CTAB
M  V30 COUNTS 55 59 0 0 0
M  V30 BEGIN ATOM
M  V30 1 S 1.2121 2.9918 -2.4253 0
M  V30 2 C -0.4004 3.0882 -1.8687 0
M  V30 3 C 1.5257 1.6714 -1.4223 0
M  V30 4 N -1.2109 4.0215 -2.4056 0
M  V30 5 C -0.7182 2.1507 -0.878 0
M  V30 6 C 2.7901 0.9864 -1.3793 0
M  V30 7 C 0.4392 1.3195 -0.6669 0
M  V30 8 C -2.4551 4.01 -1.9138 0
M  V30 9 C -2.0521 2.1905 -0.3595 0
M  V30 10 O 3.7696 1.3166 -2.0454 0
M  V30 11 N 2.7736 -0.0916 -0.4877 0
M  V30 12 N 0.4906 0.2169 0.2011 0
M  V30 13 C -2.9094 3.1496 -0.9344 0
M  V30 14 N -2.5739 1.3925 0.6605 0
M  V30 15 C 3.9366 -0.8865 -0.3074 0
M  V30 16 C 1.6289 -0.4034 0.2274 0
M  V30 17 C -3.7229 0.526 0.3634 0
M  V30 18 C -1.7967 1.1128 1.857 0
M  V30 19 C 4.4748 -1.0641 0.973 0
M  V30 20 C 4.544 -1.5131 -1.4003 0
M  V30 21 C -4.9408 0.9133 1.2033 0
M  V30 22 C 5.6051 -1.8643 1.1567 0
M  V30 23 C 5.6744 -2.3124 -1.2143 0
M  V30 24 C -6.1393 0.0857 0.8216 0
M  V30 25 C 6.2101 -2.5006 0.0658 0
M  V30 26 N -6.226 -1.1537 1.3621 0
M  V30 27 C -7.0882 0.5803 -0.07 0
M  V30 28 C 7.4436 -3.3453 0.2607 0
M  V30 29 C -7.2892 -1.911 1.0131 0
M  V30 30 C -8.1716 -0.2238 -0.4122 0
M  V30 31 C 8.7172 -2.5224 0.1418 0
M  V30 32 C -8.2778 -1.4945 0.1389 0
M  V30 33 H -3.121 4.7566 -2.3389 0
M  V30 34 H -3.932 3.2471 -0.5861 0
M  V30 35 H 1.7276 -1.2878 0.8791 0
M  V30 36 H -3.4464 -0.518 0.561 0
M  V30 37 H -3.9762 0.564 -0.7048 0
M  V30 38 H -2.4385 1.191 2.7412 0
M  V30 39 H -0.9805 1.8284 2.0026 0
M  V30 40 H -1.397 0.0952 1.8404 0
M  V30 41 H 4.0351 -0.5711 1.8366 0
M  V30 42 H 4.151 -1.3816 -2.4059 0
M  V30 43 H -4.7334 0.7588 2.2692 0
M  V30 44 H -5.1696 1.9798 1.0921 0
M  V30 45 H 6.0171 -1.9827 2.1568 0
M  V30 46 H 6.1389 -2.7826 -2.0787 0
M  V30 47 H -6.9915 1.5741 -0.4949 0
M  V30 48 H 7.4556 -4.1561 -0.4776 0
M  V30 49 H 7.4063 -3.8309 1.2434 0
M  V30 50 H -7.3253 -2.8955 1.4704 0
M  V30 51 H -8.9265 0.1386 -1.1039 0
M  V30 52 H 9.5946 -3.1602 0.2875 0
M  V30 53 H 8.7476 -1.7264 0.8936 0
M  V30 54 H 8.7975 -2.055 -0.8453 0
M  V30 55 H -9.1095 -2.1447 -0.1068 0
M  V30 END ATOM
M  V30 BEGIN BOND
M  V30 1 1 1 2
M  V30 2 1 1 3
M  V30 3 2 2 4
M  V30 4 1 2 5
M  V30 5 1 3 6
M  V30 6 2 3 7
M  V30 7 1 4 8
M  V30 8 2 5 9
M  V30 9 2 6 10
M  V30 10 1 6 11
M  V30 11 1 7 12
M  V30 12 2 8 13
M  V30 13 1 9 14
M  V30 14 1 11 15
M  V30 15 1 11 16
M  V30 16 1 14 17
M  V30 17 1 14 18
M  V30 18 2 15 19
M  V30 19 1 15 20
M  V30 20 1 17 21
M  V30 21 1 19 22
M  V30 22 2 20 23
M  V30 23 1 21 24
M  V30 24 2 22 25
M  V30 25 2 24 26
M  V30 26 1 24 27
M  V30 27 1 25 28
M  V30 28 1 26 29
M  V30 29 2 27 30
M  V30 30 1 28 31
M  V30 31 2 29 32
M  V30 32 1 5 7
M  V30 33 1 9 13
M  V30 34 2 12 16
M  V30 35 1 23 25
M  V30 36 1 30 32
M  V30 37 1 8 33
M  V30 38 1 13 34
M  V30 39 1 16 35
M  V30 40 1 17 36
M  V30 41 1 17 37
M  V30 42 1 18 38
M  V30 43 1 18 39
M  V30 44 1 18 40
M  V30 45 1 19 41
M  V30 46 1 20 42
M  V30 47 1 21 43
M  V30 48 1 21 44
M  V30 49 1 22 45
M  V30 50 1 23 46
M  V30 51 1 27 47
M  V30 52 1 28 48
M  V30 53 1 28 49
M  V30 54 1 29 50
M  V30 55 1 30 51
M  V30 56 1 31 52
M  V30 57 1 31 53
M  V30 58 1 31 54
M  V30 59 1 32 55
M  V30 END BOND
M  V30 END CTAB
M  END
>  <Column 1>
155

>  <level_0>
175

>  <index>
175

>  <Unnamed: 0>
175

>  <NO.>
176

>  <Name>
chembl213760

>  <IUPAC_name>
5-(4-ethylphenyl)-13-[methyl(2-pyridin-2-ylethyl)amino]-8-thia-3-5-10-triazatricyclo[7.4.0.02-7]trideca-1(13)-2(7)-3-9-11-pentaen-6-one

>  <SMILES>
CCc1ccc(-n2cnc3c(sc4nccc(N(C)CCc5ccccn5)c43)c2=O)cc1

>  <CID>
44416780

>  <logBB>
-0.8

>  <BBB+/BBB->
BBB+

>  <Inchi>
InChI=1S/C25H23N5OS/c1-3-17-7-9-19(10-8-17)30-16-28-22-21-20(11-14-27-24(21)32-23(22)25(30)31)29(2)15-12-18-6-4-5-13-26-18/h4-11-13-14-16H-3-12-15H2-1-2H3

>  <threshold>


>  <reference>
R2|R2|R25|R46|

>  <group>
A

>  <Class>
1

>  <ABC>
25.35

>  <ABCGG>
18.34

>  <nAcid>
0

>  <nBase>
0

>  <nAromAtom>
25

>  <nAromBond>
27

>  <nAtom>
55

>  <nHeavyAtom>
32

>  <nSpiro>
0

>  <nBridgehead>
0

>  <nHetero>
7

>  <nN>
5

>  <nO>
1

>  <nF>
0

>  <BalabanJ>
1.2

>  <BertzCT>
1441.01

>  <nBonds>
59

>  <nBondsO>
36

>  <nBondsS>
31

>  <nBondsD>
1

>  <nBondsT>
0

>  <nBondsA>
27

>  <nBondsM>
28

>  <nBondsKS>
47

>  <nBondsKD>
12

>  <RNCG>
0.17

>  <RPCG>
0.12

>  <FCSP3>
0.2

>  <SZ>
38.67

>  <Sm>
36.76

>  <Sv>
36.92

>  <Sse>
54.93

>  <Sp>
39.69

>  <Si>
61.36

>  <MZ>
0.7

>  <Mm>
0.67

>  <Mv>
0.67

>  <Mse>
1

>  <Mp>
0.72

>  <Mi>
1.12

>  <NsCH3>
2

>  <NdCH2>
0

>  <NssCH2>
3

>  <NtCH>
0

>  <NdsCH>
0

>  <NaaCH>
11

>  <NsssCH>
0

>  <NddC>
0

>  <NtsC>
0

>  <NdssC>
0

>  <NaasC>
4

>  <NaaaC>
4

>  <NssssC>
0

>  <NsNH3>
0

>  <NsNH2>
0

>  <NssNH2>
0

>  <NdNH>
0

>  <NssNH>
0

>  <NaaNH>
0

>  <NtN>
0

>  <NsssNH>
0

>  <NdsN>
0

>  <NaaN>
3

>  <NsssN>
1

>  <NddsN>
0

>  <NaasN>
1

>  <NssssN>
0

>  <NsOH>
0

>  <NdO>
1

>  <NssO>
0

>  <NaaO>
0

>  <NsF>
0

>  <NsSiH3>
0

>  <NssSiH2>
0

>  <NsssSiH>
0

>  <NssssSi>
0

>  <NsPH2>
0

>  <NssPH>
0

>  <NsssP>
0

>  <NdsssP>
0

>  <NsssssP>
0

>  <NsSH>
0

>  <NdS>
0

>  <NssS>
0

>  <NaaS>
1

>  <NdssS>
0

>  <NddssS>
0

>  <NsCl>
0

>  <NsBr>
0

>  <NsI>
0

>  <fragCpx>
304.07

>  <fMF>
0.51

>  <nHBAcc>
7

>  <nHBDon>
0

>  <Kier1>
23.73

>  <Kier2>
10.73

>  <Lipinski>
1

>  <GhoseFilter>
0

>  <FilterItLogS>
-7.19

>  <VMcGowan>
329.33

>  <LabuteASA>
189.38

>  <PEOE_VSA1>
4.9

>  <PEOE_VSA2>
14.35

>  <PEOE_VSA3>
9.97

>  <PEOE_VSA4>
0

>  <PEOE_VSA5>
11.34

>  <PEOE_VSA6>
25.12

>  <PEOE_VSA7>
42.32

>  <PEOE_VSA8>
38.1

>  <PEOE_VSA9>
16.76

>  <PEOE_VSA10>
21.37

>  <PEOE_VSA11>
0

>  <PEOE_VSA12>
0

>  <PEOE_VSA13>
5.56

>  <SMR_VSA1>
0

>  <SMR_VSA2>
0

>  <SMR_VSA3>
19.52

>  <SMR_VSA4>
0

>  <SMR_VSA5>
19.77

>  <SMR_VSA6>
18.49

>  <SMR_VSA7>
88.86

>  <SMR_VSA8>
0

>  <SMR_VSA9>
5.69

>  <SlogP_VSA1>
10.46

>  <SlogP_VSA2>
33.11

>  <SlogP_VSA3>
12.84

>  <SlogP_VSA4>
0

>  <SlogP_VSA5>
18.18

>  <SlogP_VSA6>
72.05

>  <SlogP_VSA7>
0

>  <SlogP_VSA8>
26.12

>  <SlogP_VSA9>
0

>  <SlogP_VSA10>
5.69

>  <SlogP_VSA11>
0

>  <EState_VSA1>
0

>  <EState_VSA2>
5.56

>  <EState_VSA3>
10.22

>  <EState_VSA4>
46.67

>  <EState_VSA5>
16.9

>  <EState_VSA6>
17.09

>  <EState_VSA7>
54.73

>  <EState_VSA8>
28.84

>  <EState_VSA9>
4.98

>  <EState_VSA10>
4.79

>  <VSA_EState1>
2.24

>  <VSA_EState2>
29.99

>  <VSA_EState3>
0.93

>  <VSA_EState4>
4.78

>  <VSA_EState5>
0

>  <VSA_EState6>
15.99

>  <VSA_EState7>
7.04

>  <VSA_EState8>
2.91

>  <VSA_EState9>
2.05

>  <apol>
66.29

>  <bpol>
33.24

>  <nRing>
5

>  <nHRing>
4

>  <naRing>
5

>  <naHRing>
4

>  <nARing 2>
0

>  <nAHRing 2>
0

>  <nFRing>
1

>  <nFHRing>
1

>  <nFaRing>
1

>  <nFaHRing>
1

>  <nFARing 2>
0

>  <nFAHRing 2>
0

>  <nRot>
6

>  <SLogP>
4.63

>  <SMR>
131.11

>  <TopoPSA(NO)>
63.91

>  <TopoPSA>
92.15

>  <JGI1>
0.14

>  <JGI2>
0.07

>  <JGI3>
0.04

>  <JGI4>
0.04

>  <JGI5>
0.03

>  <Diameter>
18

>  <Radius>
9

>  <TMWC10>
146.83

>  <TSRW10>
82.71

>  <MW>
441.16

>  <AMW>
8.02

>  <WPath>
3122

>  <WPol>
55

>  <Zagreb1>
174

>  <Zagreb2>
210

>  <mZagreb2>
7.06

>  <yes>


>  <nAR-cont>
0.336376

>  <nHA-cont>
0.658856097

>  <MWHBN>
0.333272881

>  <MWHBN-cont>
0.731298593

>  <TPSA-cont>
0.356735778

>  <pka_cont>
0.97

>  <yes.1>


>  <BBB_SCORE>
3.290651543

>  <MMFF94 Energy>
72.137

$$$$
Compound 121
Actelion Java MolfileCreator 2.0

  0  0  0  0  0  0              0 V3000
M  V30 BEGIN CTAB
M  V30 COUNTS 39 42 0 0 0
M  V30 BEGIN ATOM
M  V30 1 O 1.5278 0.0803 0.4823 0
M  V30 2 C 0.3279 0.1712 0.2374 0
M  V30 3 N -0.231 1.0667 -0.6508 0
M  V30 4 C -0.7263 -0.7359 0.9021 0
M  V30 5 C 0.4884 1.9833 -1.363 0
M  V30 6 C -0.5335 -2.1767 0.487 0
M  V30 7 C -0.7234 -0.5557 2.4029 0
M  V30 8 N 1.75 2.4131 -1.0623 0
M  V30 9 N -0.0488 2.6115 -2.4159 0
M  V30 10 C -0.1711 -3.1348 1.4362 0
M  V30 11 C -0.7058 -2.5742 -0.85 0
M  V30 12 C -0.3501 -1.6143 3.2336 0
M  V30 13 C -1.0843 0.6719 2.9844 0
M  V30 14 N 2.0636 3.3318 -1.9666 0
M  V30 15 N 0.9817 3.4117 -2.7534 0
M  V30 16 O 0.0029 -2.8571 2.7696 0
M  V30 17 C 0.0327 -4.4639 1.0578 0
M  V30 18 C -0.5069 -3.9042 -1.2247 0
M  V30 19 C -0.3221 -1.4491 4.6205 0
M  V30 20 C -1.0606 0.8329 4.3709 0
M  V30 21 C 0.9292 4.3029 -3.8888 0
M  V30 22 C -0.1353 -4.849 -0.2712 0
M  V30 23 C -0.6776 -0.2269 5.1893 0
M  V30 24 C 1.423 3.6371 -5.16 0
M  V30 25 H -1.212 1.0532 -0.8792 0
M  V30 26 H -1.7318 -0.4496 0.562 0
M  V30 27 H -0.9859 -1.8525 -1.6137 0
M  V30 28 H -1.375 1.5166 2.3641 0
M  V30 29 H 0.3225 -5.1999 1.8031 0
M  V30 30 H -0.6342 -4.2026 -2.2623 0
M  V30 31 H -0.0221 -2.2767 5.2579 0
M  V30 32 H -1.3323 1.7884 4.8128 0
M  V30 33 H -0.1086 4.6334 -4.0044 0
M  V30 34 H 1.5375 5.1825 -3.6519 0
M  V30 35 H 0.0263 -5.8837 -0.5614 0
M  V30 36 H -0.6516 -0.1019 6.2685 0
M  V30 37 H 0.8169 2.7588 -5.4063 0
M  V30 38 H 1.3704 4.3357 -6.0006 0
M  V30 39 H 2.4617 3.3064 -5.0541 0
M  V30 END ATOM
M  V30 BEGIN BOND
M  V30 1 2 1 2
M  V30 2 1 2 3
M  V30 3 1 2 4
M  V30 4 1 3 5
M  V30 5 1 4 6
M  V30 6 1 4 7
M  V30 7 1 5 8
M  V30 8 2 5 9
M  V30 9 2 6 10
M  V30 10 1 6 11
M  V30 11 2 7 12
M  V30 12 1 7 13
M  V30 13 2 8 14
M  V30 14 1 9 15
M  V30 15 1 10 16
M  V30 16 1 10 17
M  V30 17 2 11 18
M  V30 18 1 12 19
M  V30 19 2 13 20
M  V30 20 1 15 21
M  V30 21 2 17 22
M  V30 22 2 19 23
M  V30 23 1 21 24
M  V30 24 1 12 16
M  V30 25 1 14 15
M  V30 26 1 18 22
M  V30 27 1 20 23
M  V30 28 1 3 25
M  V30 29 1 4 26
M  V30 30 1 11 27
M  V30 31 1 13 28
M  V30 32 1 17 29
M  V30 33 1 18 30
M  V30 34 1 19 31
M  V30 35 1 20 32
M  V30 36 1 21 33
M  V30 37 1 21 34
M  V30 38 1 22 35
M  V30 39 1 23 36
M  V30 40 1 24 37
M  V30 41 1 24 38
M  V30 42 1 24 39
M  V30 END BOND
M  V30 END CTAB
M  END
>  <Column 1>
156

>  <level_0>
176

>  <index>
176

>  <Unnamed: 0>
176

>  <NO.>
177

>  <Name>
compound 4b [pmid: 16099654]

>  <IUPAC_name>
n-(2-ethyltetrazol-5-yl)-9h-xanthene-9-carboxamide

>  <SMILES>
CCn1nnc(NC(=O)C2c3ccccc3Oc3ccccc32)n1

>  <CID>
9923127

>  <logBB>
-0.8

>  <BBB+/BBB->
BBB+

>  <Inchi>
InChI=1S/C17H15N5O2/c1-2-22-20-17(19-21-22)18-16(23)15-11-7-3-5-9-13(11)24-14-10-6-4-8-12(14)15/h3-10-15H-2H2-1H3-(H-18-20-23)

>  <threshold>


>  <reference>
R47|

>  <group>
A

>  <Class>
1

>  <ABC>
19

>  <ABCGG>
15.06

>  <nAcid>
2

>  <nBase>
0

>  <nAromAtom>
17

>  <nAromBond>
17

>  <nAtom>
39

>  <nHeavyAtom>
24

>  <nSpiro>
0

>  <nBridgehead>
0

>  <nHetero>
7

>  <nN>
5

>  <nO>
2

>  <nF>
0

>  <BalabanJ>
1.46

>  <BertzCT>
859.76

>  <nBonds>
42

>  <nBondsO>
27

>  <nBondsS>
24

>  <nBondsD>
1

>  <nBondsT>
0

>  <nBondsA>
17

>  <nBondsM>
18

>  <nBondsKS>
33

>  <nBondsKD>
9

>  <RNCG>
0.25

>  <RPCG>
0.14

>  <FCSP3>
0.18

>  <SZ>
28

>  <Sm>
26.75

>  <Sv>
26.28

>  <Sse>
39.64

>  <Sp>
27.24

>  <Si>
43.99

>  <MZ>
0.72

>  <Mm>
0.69

>  <Mv>
0.67

>  <Mse>
1.02

>  <Mp>
0.7

>  <Mi>
1.13

>  <NsCH3>
1

>  <NdCH2>
0

>  <NssCH2>
1

>  <NtCH>
0

>  <NdsCH>
0

>  <NaaCH>
8

>  <NsssCH>
1

>  <NddC>
0

>  <NtsC>
0

>  <NdssC>
1

>  <NaasC>
5

>  <NaaaC>
0

>  <NssssC>
0

>  <NsNH3>
0

>  <NsNH2>
0

>  <NssNH2>
0

>  <NdNH>
0

>  <NssNH>
1

>  <NaaNH>
0

>  <NtN>
0

>  <NsssNH>
0

>  <NdsN>
0

>  <NaaN>
3

>  <NsssN>
0

>  <NddsN>
0

>  <NaasN>
1

>  <NssssN>
0

>  <NsOH>
0

>  <NdO>
1

>  <NssO>
1

>  <NaaO>
0

>  <NsF>
0

>  <NsSiH3>
0

>  <NssSiH2>
0

>  <NsssSiH>
0

>  <NssssSi>
0

>  <NsPH2>
0

>  <NssPH>
0

>  <NsssP>
0

>  <NdsssP>
0

>  <NsssssP>
0

>  <NsSH>
0

>  <NdS>
0

>  <NssS>
0

>  <NaaS>
0

>  <NdssS>
0

>  <NddssS>
0

>  <NsCl>
0

>  <NsBr>
0

>  <NsI>
0

>  <fragCpx>
177.07

>  <fMF>
0.54

>  <nHBAcc>
6

>  <nHBDon>
1

>  <Kier1>
17.42

>  <Kier2>
7.71

>  <Lipinski>
1

>  <GhoseFilter>
1

>  <FilterItLogS>
-4.04

>  <VMcGowan>
229.89

>  <LabuteASA>
137.81

>  <PEOE_VSA1>
4.74

>  <PEOE_VSA2>
10.11

>  <PEOE_VSA3>
0

>  <PEOE_VSA4>
4.8

>  <PEOE_VSA5>
5.1

>  <PEOE_VSA6>
41.5

>  <PEOE_VSA7>
24.27

>  <PEOE_VSA8>
11.13

>  <PEOE_VSA9>
12.46

>  <PEOE_VSA10>
11.5

>  <PEOE_VSA11>
0

>  <PEOE_VSA12>
5.91

>  <PEOE_VSA13>
5.95

>  <SMR_VSA1>
9.53

>  <SMR_VSA2>
0

>  <SMR_VSA3>
20.21

>  <SMR_VSA4>
0

>  <SMR_VSA5>
19.39

>  <SMR_VSA6>
5.32

>  <SMR_VSA7>
59.66

>  <SMR_VSA8>
0

>  <SMR_VSA9>
11.5

>  <SlogP_VSA1>
10.05

>  <SlogP_VSA2>
26.11

>  <SlogP_VSA3>
11.34

>  <SlogP_VSA4>
0

>  <SlogP_VSA5>
23.97

>  <SlogP_VSA6>
48.53

>  <SlogP_VSA7>
0

>  <SlogP_VSA8>
0

>  <SlogP_VSA9>
0

>  <SlogP_VSA10>
5.95

>  <SlogP_VSA11>
11.5

>  <EState_VSA1>
5.92

>  <EState_VSA2>
11.86

>  <EState_VSA3>
18.04

>  <EState_VSA4>
11.13

>  <EState_VSA5>
4.8

>  <EState_VSA6>
0

>  <EState_VSA7>
55.45

>  <EState_VSA8>
20.73

>  <EState_VSA9>
4.74

>  <EState_VSA10>
4.79

>  <VSA_EState1>
5.9

>  <VSA_EState2>
14.33

>  <VSA_EState3>
14.56

>  <VSA_EState4>
1.63

>  <VSA_EState5>
0.86

>  <VSA_EState6>
15.06

>  <VSA_EState7>
0

>  <VSA_EState8>
2.49

>  <VSA_EState9>
0

>  <apol>
45.5

>  <bpol>
19.93

>  <nRing>
4

>  <nHRing>
2

>  <naRing>
3

>  <naHRing>
1

>  <nARing 2>
1

>  <nAHRing 2>
1

>  <nFRing>
1

>  <nFHRing>
1

>  <nFaRing>
0

>  <nFaHRing>
0

>  <nFARing 2>
1

>  <nFAHRing 2>
1

>  <nRot>
3

>  <SLogP>
2.57

>  <SMR>
86.92

>  <TopoPSA(NO)>
81.93

>  <TopoPSA>
81.93

>  <JGI1>
0.15

>  <JGI2>
0.06

>  <JGI3>
0.05

>  <JGI4>
0.04

>  <JGI5>
0.02

>  <Diameter>
11

>  <Radius>
6

>  <TMWC10>
127.03

>  <TSRW10>
72.47

>  <MW>
321.12

>  <AMW>
8.23

>  <WPath>
1283

>  <WPol>
39

>  <Zagreb1>
130

>  <Zagreb2>
156

>  <mZagreb2>
5.31

>  <yes>


>  <nAR-cont>
0.816016

>  <nHA-cont>
0.94700071

>  <MWHBN>
0.390628893

>  <MWHBN-cont>
0.512984573

>  <TPSA-cont>
0.428077725

>  <pka_cont>
0.97

>  <yes.1>


>  <BBB_SCORE>
3.873649019

>  <MMFF94 Energy>
20.629

$$$$
Compound 122
Actelion Java MolfileCreator 2.0

  0  0  0  0  0  0              0 V3000
M  V30 BEGIN CTAB
M  V30 COUNTS 65 68 0 0 0
M  V30 BEGIN ATOM
M  V30 1 Cl 2.1785 6.6275 1.6941 0
M  V30 2 C 1.1922 5.2428 1.9445 0
M  V30 3 C 1.273 4.099 1.1681 0
M  V30 4 C 0.249 5.2215 2.9423 0
M  V30 5 N 0.4656 3.0398 1.3892 0
M  V30 6 N 2.2422 4.0022 0.1453 0
M  V30 7 N -0.5736 4.1779 3.1744 0
M  V30 8 C -0.4352 3.1032 2.3796 0
M  V30 9 C 2.6598 2.8385 -0.5188 0
M  V30 10 N -1.3207 2.0636 2.6426 0
M  V30 11 C 3.0715 1.6495 0.1044 0
M  V30 12 C 2.5376 2.8272 -1.9223 0
M  V30 13 C -1.5467 0.8094 2.0652 0
M  V30 14 S 3.451 1.5375 1.8423 0
M  V30 15 C 3.3123 0.4862 -0.6526 0
M  V30 16 C 2.7943 1.6769 -2.6739 0
M  V30 17 C -0.821 0.3032 0.9845 0
M  V30 18 C -2.5734 0.0062 2.5877 0
M  V30 19 O 2.5496 0.5689 2.4293 0
M  V30 20 O 3.6466 2.8502 2.4257 0
M  V30 21 N 5.0256 0.8173 1.8294 0
M  V30 22 C 3.1715 0.5014 -2.0373 0
M  V30 23 C -1.1014 -0.9586 0.446 0
M  V30 24 C -2.8613 -1.2557 2.0542 0
M  V30 25 C 6.0893 1.6881 1.2775 0
M  V30 26 C 5.4064 0.2689 3.1514 0
M  V30 27 C -2.1267 -1.7512 0.9732 0
M  V30 28 C -2.4155 -3.1217 0.4001 0
M  V30 29 N -2.757 -3.098 -1.0314 0
M  V30 30 C -4.0631 -2.446 -1.2683 0
M  V30 31 C -2.8031 -4.4735 -1.5667 0
M  V30 32 C -4.476 -2.4872 -2.7578 0
M  V30 33 C -3.2124 -4.5104 -3.0565 0
M  V30 34 N -4.5182 -3.8642 -3.2884 0
M  V30 35 C -4.8485 -3.8594 -4.7109 0
M  V30 36 H 0.1123 6.0679 3.6084 0
M  V30 37 H 2.4017 4.8786 -0.3354 0
M  V30 38 H -1.8901 2.309 3.4379 0
M  V30 39 H 2.1968 3.719 -2.4447 0
M  V30 40 H 3.6199 -0.4331 -0.1568 0
M  V30 41 H 2.6743 1.697 -3.7542 0
M  V30 42 H -0.0132 0.8727 0.5374 0
M  V30 43 H -3.1662 0.3586 3.4283 0
M  V30 44 H 3.3567 -0.4004 -2.6149 0
M  V30 45 H -0.5129 -1.3183 -0.3951 0
M  V30 46 H -3.6632 -1.8445 2.4922 0
M  V30 47 H 5.8114 2.0833 0.2974 0
M  V30 48 H 6.3126 2.5182 1.9544 0
M  V30 49 H 7.0024 1.1005 1.1367 0
M  V30 50 H 4.7049 -0.5119 3.4584 0
M  V30 51 H 5.4387 1.0563 3.9106 0
M  V30 52 H 6.3961 -0.1953 3.0908 0
M  V30 53 H -3.2069 -3.6171 0.9785 0
M  V30 54 H -1.5063 -3.7187 0.5533 0
M  V30 55 H -4.8476 -2.9261 -0.6674 0
M  V30 56 H -4.0198 -1.3928 -0.9679 0
M  V30 57 H -3.5041 -5.0899 -0.9873 0
M  V30 58 H -1.8117 -4.9335 -1.4759 0
M  V30 59 H -3.7772 -1.8702 -3.3391 0
M  V30 60 H -5.4691 -2.0311 -2.8505 0
M  V30 61 H -2.4287 -4.0265 -3.6553 0
M  V30 62 H -3.2635 -5.5595 -3.3718 0
M  V30 63 H -4.1118 -3.3105 -5.3086 0
M  V30 64 H -5.8319 -3.4049 -4.8745 0
M  V30 65 H -4.9075 -4.8841 -5.0939 0
M  V30 END ATOM
M  V30 BEGIN BOND
M  V30 1 1 1 2
M  V30 2 2 2 3
M  V30 3 1 2 4
M  V30 4 1 3 5
M  V30 5 1 3 6
M  V30 6 2 4 7
M  V30 7 2 5 8
M  V30 8 1 6 9
M  V30 9 1 8 10
M  V30 10 2 9 11
M  V30 11 1 9 12
M  V30 12 1 10 13
M  V30 13 1 11 14
M  V30 14 1 11 15
M  V30 15 2 12 16
M  V30 16 2 13 17
M  V30 17 1 13 18
M  V30 18 2 14 19
M  V30 19 2 14 20
M  V30 20 1 14 21
M  V30 21 2 15 22
M  V30 22 1 17 23
M  V30 23 2 18 24
M  V30 24 1 21 25
M  V30 25 1 21 26
M  V30 26 2 23 27
M  V30 27 1 27 28
M  V30 28 1 28 29
M  V30 29 1 29 30
M  V30 30 1 29 31
M  V30 31 1 30 32
M  V30 32 1 31 33
M  V30 33 1 32 34
M  V30 34 1 34 35
M  V30 35 1 7 8
M  V30 36 1 16 22
M  V30 37 1 24 27
M  V30 38 1 33 34
M  V30 39 1 4 36
M  V30 40 1 6 37
M  V30 41 1 10 38
M  V30 42 1 12 39
M  V30 43 1 15 40
M  V30 44 1 16 41
M  V30 45 1 17 42
M  V30 46 1 18 43
M  V30 47 1 22 44
M  V30 48 1 23 45
M  V30 49 1 24 46
M  V30 50 1 25 47
M  V30 51 1 25 48
M  V30 52 1 25 49
M  V30 53 1 26 50
M  V30 54 1 26 51
M  V30 55 1 26 52
M  V30 56 1 28 53
M  V30 57 1 28 54
M  V30 58 1 30 55
M  V30 59 1 30 56
M  V30 60 1 31 57
M  V30 61 1 31 58
M  V30 62 1 32 59
M  V30 63 1 32 60
M  V30 64 1 33 61
M  V30 65 1 33 62
M  V30 66 1 35 63
M  V30 67 1 35 64
M  V30 68 1 35 65
M  V30 END BOND
M  V30 END CTAB
M  END
>  <Column 1>
157

>  <level_0>
177

>  <index>
177

>  <Unnamed: 0>
177

>  <NO.>
178

>  <Name>
compound 13

>  <IUPAC_name>
2-[[5-chloro-2-[4-[(4-methylpiperazin-1-yl)methyl]anilino]pyrimidin-4-yl]amino]-n-n-dimethylbenzenesulfonamide

>  <SMILES>
CN1CCN(Cc2ccc(Nc3ncc(Cl)c(Nc4ccccc4S(=O)(=O)N(C)C)n3)cc2)CC1

>  <CID>
56839178

>  <logBB>
-0.8

>  <BBB+/BBB->
BBB+

>  <Inchi>
InChI=1S/C24H30ClN7O2S/c1-30(2)35(33-34)22-7-5-4-6-21(22)28-23-20(25)16-26-24(29-23)27-19-10-8-18(9-11-19)17-32-14-12-31(3)13-15-32/h4-11-16H-12-15-17H2-1-3H3-(H2-26-27-28-29)

>  <threshold>


>  <reference>
R20|

>  <group>
A

>  <Class>
1

>  <ABC>
27.42

>  <ABCGG>
19.74

>  <nAcid>
0

>  <nBase>
2

>  <nAromAtom>
18

>  <nAromBond>
18

>  <nAtom>
65

>  <nHeavyAtom>
35

>  <nSpiro>
0

>  <nBridgehead>
0

>  <nHetero>
11

>  <nN>
7

>  <nO>
2

>  <nF>
0

>  <BalabanJ>
1.23

>  <BertzCT>
1261.12

>  <nBonds>
68

>  <nBondsO>
38

>  <nBondsS>
48

>  <nBondsD>
2

>  <nBondsT>
0

>  <nBondsA>
18

>  <nBondsM>
20

>  <nBondsKS>
57

>  <nBondsKD>
11

>  <RNCG>
0.12

>  <RPCG>
0.09

>  <FCSP3>
0.33

>  <SZ>
45.33

>  <Sm>
42.97

>  <Sv>
41.14

>  <Sse>
65.46

>  <Sp>
44.59

>  <Si>
73.75

>  <MZ>
0.7

>  <Mm>
0.66

>  <Mv>
0.63

>  <Mse>
1.01

>  <Mp>
0.69

>  <Mi>
1.13

>  <NsCH3>
3

>  <NdCH2>
0

>  <NssCH2>
5

>  <NtCH>
0

>  <NdsCH>
0

>  <NaaCH>
9

>  <NsssCH>
0

>  <NddC>
0

>  <NtsC>
0

>  <NdssC>
0

>  <NaasC>
7

>  <NaaaC>
0

>  <NssssC>
0

>  <NsNH3>
0

>  <NsNH2>
0

>  <NssNH2>
0

>  <NdNH>
0

>  <NssNH>
2

>  <NaaNH>
0

>  <NtN>
0

>  <NsssNH>
0

>  <NdsN>
0

>  <NaaN>
2

>  <NsssN>
3

>  <NddsN>
0

>  <NaasN>
0

>  <NssssN>
0

>  <NsOH>
0

>  <NdO>
2

>  <NssO>
0

>  <NaaO>
0

>  <NsF>
0

>  <NsSiH3>
0

>  <NssSiH2>
0

>  <NsssSiH>
0

>  <NssssSi>
0

>  <NsPH2>
0

>  <NssPH>
0

>  <NsssP>
0

>  <NdsssP>
0

>  <NsssssP>
0

>  <NsSH>
0

>  <NdS>
0

>  <NssS>
0

>  <NaaS>
0

>  <NdssS>
0

>  <NddssS>
1

>  <NsCl>
1

>  <NsBr>
0

>  <NsI>
0

>  <fragCpx>
254.11

>  <fMF>
0.42

>  <nHBAcc>
8

>  <nHBDon>
2

>  <Kier1>
28.02

>  <Kier2>
12.7

>  <Lipinski>
0

>  <GhoseFilter>
0

>  <FilterItLogS>
-6.46

>  <VMcGowan>
377.07

>  <LabuteASA>
211.34

>  <PEOE_VSA1>
15.53

>  <PEOE_VSA2>
4.9

>  <PEOE_VSA3>
17.71

>  <PEOE_VSA4>
4.98

>  <PEOE_VSA5>
0

>  <PEOE_VSA6>
35.87

>  <PEOE_VSA7>
36.88

>  <PEOE_VSA8>
52.51

>  <PEOE_VSA9>
11.88

>  <PEOE_VSA10>
9.92

>  <PEOE_VSA11>
5.82

>  <PEOE_VSA12>
15.97

>  <PEOE_VSA13>
0

>  <SMR_VSA1>
8.42

>  <SMR_VSA2>
0

>  <SMR_VSA3>
24.07

>  <SMR_VSA4>
0

>  <SMR_VSA5>
11.44

>  <SMR_VSA6>
57.96

>  <SMR_VSA7>
65.31

>  <SMR_VSA8>
0

>  <SMR_VSA9>
0

>  <SlogP_VSA1>
10.63

>  <SlogP_VSA2>
79.81

>  <SlogP_VSA3>
16.57

>  <SlogP_VSA4>
0

>  <SlogP_VSA5>
5.56

>  <SlogP_VSA6>
59.62

>  <SlogP_VSA7>
5.02

>  <SlogP_VSA8>
0

>  <SlogP_VSA9>
0

>  <SlogP_VSA10>
23.14

>  <SlogP_VSA11>
0

>  <EState_VSA1>
10.02

>  <EState_VSA2>
9.92

>  <EState_VSA3>
17.45

>  <EState_VSA4>
42.72

>  <EState_VSA5>
31.92

>  <EState_VSA6>
18.2

>  <EState_VSA7>
12.13

>  <EState_VSA8>
49.58

>  <EState_VSA9>
11.6

>  <EState_VSA10>
8.42

>  <VSA_EState1>
26.58

>  <VSA_EState2>
13.66

>  <VSA_EState3>
6.51

>  <VSA_EState4>
2.47

>  <VSA_EState5>
0.65

>  <VSA_EState6>
14.8

>  <VSA_EState7>
1.48

>  <VSA_EState8>
5.26

>  <VSA_EState9>
1.48

>  <apol>
74.47

>  <bpol>
45.81

>  <nRing>
4

>  <nHRing>
2

>  <naRing>
3

>  <naHRing>
1

>  <nARing 2>
1

>  <nAHRing 2>
1

>  <nFRing>
0

>  <nFHRing>
0

>  <nFaRing>
0

>  <nFaHRing>
0

>  <nFARing 2>
0

>  <nFAHRing 2>
0

>  <nRot>
8

>  <SLogP>
3.61

>  <SMR>
140.14

>  <TopoPSA(NO)>
93.7

>  <TopoPSA>
102.08

>  <JGI1>
0.24

>  <JGI2>
0.08

>  <JGI3>
0.04

>  <JGI4>
0.04

>  <JGI5>
0.02

>  <Diameter>
19

>  <Radius>
10

>  <TMWC10>
151.08

>  <TSRW10>
71.51

>  <MW>
515.19

>  <AMW>
7.93

>  <WPath>
4368

>  <WPol>
56

>  <Zagreb1>
184

>  <Zagreb2>
214

>  <mZagreb2>
7.56

>  <yes>


>  <nAR-cont>
0.816016

>  <nHA-cont>
0.523063577

>  <MWHBN>
0.440571386

>  <MWHBN-cont>
0.320180682

>  <TPSA-cont>
0.287418212

>  <pka_cont>
0.97

>  <yes.1>


>  <BBB_SCORE>
2.879187025

>  <MMFF94 Energy>
24.511

$$$$
Compound 123
Actelion Java MolfileCreator 2.0

  0  0  0  0  0  0              0 V3000
M  V30 BEGIN CTAB
M  V30 COUNTS 54 56 0 0 0
M  V30 BEGIN ATOM
M  V30 1 O 4.3812 2.4676 -0.7954 0
M  V30 2 C 3.7499 1.7616 -0.0115 0
M  V30 3 C 4.3538 0.5364 0.6034 0
M  V30 4 C 2.4364 2.2335 0.4816 0
M  V30 5 O 5.7097 0.6553 0.8627 0
M  V30 6 C 3.6132 -0.5576 0.854 0
M  V30 7 C 1.3275 1.5106 0.7242 0
M  V30 8 C 6.4158 -0.469 1.3653 0
M  V30 9 C 2.2317 -0.8031 0.5118 0
M  V30 10 C 1.2107 0.0724 0.4435 0
M  V30 11 C 0.0774 2.2507 1.2086 0 CFG=1
M  V30 12 C -0.1216 -0.5467 0.1615 0
M  V30 13 N -0.8042 2.443 0.0631 0
M  V30 14 C -0.6448 1.6365 2.4351 0
M  V30 15 C -0.4501 -1.084 -1.0984 0
M  V30 16 C -1.092 -0.53 1.1828 0
M  V30 17 C -1.7808 3.408 0.0332 0
M  V30 18 C -0.7691 0.11 2.5095 0
M  V30 19 O 0.5026 -0.9683 -2.0846 0
M  V30 20 C -1.7371 -1.6064 -1.3327 0
M  V30 21 C -2.372 -1.0487 0.94 0
M  V30 22 O -2.0101 4.1783 0.959 0
M  V30 23 C -2.5776 3.4132 -1.2424 0
M  V30 24 C 0.8064 -2.195 -2.743 0
M  V30 25 O -2.025 -2.0246 -2.6118 0
M  V30 26 C -2.7109 -1.5704 -0.3134 0
M  V30 27 C -2.5849 -3.3352 -2.6786 0
M  V30 28 O -3.9627 -2.0332 -0.6291 0
M  V30 29 C -5.0198 -1.7635 0.283 0
M  V30 30 H 2.4162 3.3157 0.5899 0
M  V30 31 H 4.0823 -1.431 1.2985 0
M  V30 32 H 6.0435 -0.755 2.3543 0
M  V30 33 H 7.4673 -0.1863 1.4721 0
M  V30 34 H 6.3633 -1.3105 0.6669 0
M  V30 35 H 2.0283 -1.8607 0.3325 0
M  V30 36 H 0.3613 3.2661 1.5213 0
M  V30 37 H -0.6785 1.8538 -0.7519 0
M  V30 38 H -1.653 2.0636 2.5114 0
M  V30 39 H -0.1181 1.96 3.3431 0
M  V30 40 H 0.1572 -0.3262 2.9054 0
M  V30 41 H -1.5352 -0.1465 3.2525 0
M  V30 42 H -3.1004 -1.0086 1.7445 0
M  V30 43 H -1.9147 3.32 -2.1072 0
M  V30 44 H -3.1311 4.3524 -1.3259 0
M  V30 45 H -3.2818 2.5767 -1.2326 0
M  V30 46 H 0.6324 -3.073 -2.1102 0
M  V30 47 H 1.8697 -2.1777 -3.0016 0
M  V30 48 H 0.2411 -2.2717 -3.676 0
M  V30 49 H -2.2903 -3.9696 -1.8346 0
M  V30 50 H -2.2129 -3.8071 -3.5934 0
M  V30 51 H -3.6741 -3.2759 -2.759 0
M  V30 52 H -4.8897 -2.3302 1.2106 0
M  V30 53 H -5.9532 -2.0967 -0.1806 0
M  V30 54 H -5.1118 -0.6904 0.4818 0
M  V30 END ATOM
M  V30 BEGIN BOND
M  V30 1 2 1 2
M  V30 2 1 2 3
M  V30 3 1 2 4
M  V30 4 1 3 5
M  V30 5 2 3 6
M  V30 6 2 4 7
M  V30 7 1 5 8
M  V30 8 1 6 9
M  V30 9 1 7 10
M  V30 10 1 7 11
M  V30 11 1 10 12
M  V30 12 1 11 13
M  V30 13 1 11 14
M  V30 14 2 12 15
M  V30 15 1 12 16
M  V30 16 1 13 17
M  V30 17 1 14 18
M  V30 18 1 15 19
M  V30 19 1 15 20
M  V30 20 2 16 21
M  V30 21 2 17 22
M  V30 22 1 17 23
M  V30 23 1 19 24
M  V30 24 1 20 25
M  V30 25 2 20 26
M  V30 26 1 25 27
M  V30 27 1 26 28
M  V30 28 1 28 29
M  V30 29 2 9 10
M  V30 30 1 16 18
M  V30 31 1 21 26
M  V30 32 1 4 30
M  V30 33 1 6 31
M  V30 34 1 8 32
M  V30 35 1 8 33
M  V30 36 1 8 34
M  V30 37 1 9 35
M  V30 38 1 11 36
M  V30 39 1 13 37
M  V30 40 1 14 38
M  V30 41 1 14 39
M  V30 42 1 18 40
M  V30 43 1 18 41
M  V30 44 1 21 42
M  V30 45 1 23 43
M  V30 46 1 23 44
M  V30 47 1 23 45
M  V30 48 1 24 46
M  V30 49 1 24 47
M  V30 50 1 24 48
M  V30 51 1 27 49
M  V30 52 1 27 50
M  V30 53 1 27 51
M  V30 54 1 29 52
M  V30 55 1 29 53
M  V30 56 1 29 54
M  V30 END BOND
M  V30 BEGIN COLLECTION
M  V30 MDLV30/STERAC1 ATOMS=(1 11)
M  V30 END COLLECTION
M  V30 END CTAB
M  END
>  <Column 1>
158

>  <level_0>
178

>  <index>
178

>  <Unnamed: 0>
178

>  <NO.>
179

>  <Name>
colchicine

>  <IUPAC_name>
n-(1-2-3-10-tetramethoxy-9-oxo-6-7-dihydro-5h-benzo[a]heptalen-7-yl)acetamide

>  <SMILES>
COc1cc2c(c(OC)c1OC)-c1ccc(OC)c(=O)cc1C(NC(C)=O)CC2

>  <CID>
2833

>  <logBB>
-0.8

>  <BBB+/BBB->
BBB+

>  <Inchi>
InChI=1S/C22H25NO6/c1-12(24)23-16-8-6-13-10-19(27-3)21(28-4)22(29-5)20(13)14-7-9-18(26-2)17(25)11-15(14)16/h7-9-11-16H-6-8H2-1-5H3-(H-23-24)

>  <threshold>


>  <reference>
R2|R2|R25|R46|

>  <group>
A

>  <Class>
1

>  <ABC>
21.92

>  <ABCGG>
18.48

>  <nAcid>
0

>  <nBase>
0

>  <nAromAtom>
13

>  <nAromBond>
13

>  <nAtom>
54

>  <nHeavyAtom>
29

>  <nSpiro>
0

>  <nBridgehead>
0

>  <nHetero>
7

>  <nN>
1

>  <nO>
6

>  <nF>
0

>  <BalabanJ>
1.97

>  <BertzCT>
1001.39

>  <nBonds>
56

>  <nBondsO>
31

>  <nBondsS>
41

>  <nBondsD>
2

>  <nBondsT>
0

>  <nBondsA>
13

>  <nBondsM>
15

>  <nBondsKS>
48

>  <nBondsKD>
8

>  <RNCG>
0.16

>  <RPCG>
0.07

>  <FCSP3>
0.36

>  <SZ>
35.33

>  <Sm>
33.26

>  <Sv>
33.82

>  <Sse>
54.75

>  <Sp>
35.52

>  <Si>
60.74

>  <MZ>
0.65

>  <Mm>
0.62

>  <Mv>
0.63

>  <Mse>
1.01

>  <Mp>
0.66

>  <Mi>
1.12

>  <NsCH3>
5

>  <NdCH2>
0

>  <NssCH2>
2

>  <NtCH>
0

>  <NdsCH>
0

>  <NaaCH>
4

>  <NsssCH>
1

>  <NddC>
0

>  <NtsC>
0

>  <NdssC>
1

>  <NaasC>
8

>  <NaaaC>
0

>  <NssssC>
0

>  <NsNH3>
0

>  <NsNH2>
0

>  <NssNH2>
0

>  <NdNH>
0

>  <NssNH>
1

>  <NaaNH>
0

>  <NtN>
0

>  <NsssNH>
0

>  <NdsN>
0

>  <NaaN>
0

>  <NsssN>
0

>  <NddsN>
0

>  <NaasN>
0

>  <NssssN>
0

>  <NsOH>
0

>  <NdO>
2

>  <NssO>
4

>  <NaaO>
0

>  <NsF>
0

>  <NsSiH3>
0

>  <NssSiH2>
0

>  <NsssSiH>
0

>  <NssssSi>
0

>  <NsPH2>
0

>  <NssPH>
0

>  <NsssP>
0

>  <NdsssP>
0

>  <NsssssP>
0

>  <NsSH>
0

>  <NdS>
0

>  <NssS>
0

>  <NaaS>
0

>  <NdssS>
0

>  <NddssS>
0

>  <NsCl>
0

>  <NsBr>
0

>  <NsI>
0

>  <fragCpx>
149.07

>  <fMF>
0.3

>  <nHBAcc>
6

>  <nHBDon>
1

>  <Kier1>
23.66

>  <Kier2>
10.54

>  <Lipinski>
1

>  <GhoseFilter>
1

>  <FilterItLogS>
-6.05

>  <VMcGowan>
299.06

>  <LabuteASA>
169.1

>  <PEOE_VSA1>
24.26

>  <PEOE_VSA2>
9.59

>  <PEOE_VSA3>
0

>  <PEOE_VSA4>
0

>  <PEOE_VSA5>
0

>  <PEOE_VSA6>
6.07

>  <PEOE_VSA7>
47.73

>  <PEOE_VSA8>
12.49

>  <PEOE_VSA9>
34.48

>  <PEOE_VSA10>
0

>  <PEOE_VSA11>
17.25

>  <PEOE_VSA12>
17.09

>  <PEOE_VSA13>
0

>  <SMR_VSA1>
23.74

>  <SMR_VSA2>
0

>  <SMR_VSA3>
5.32

>  <SMR_VSA4>
0

>  <SMR_VSA5>
25.81

>  <SMR_VSA6>
28.44

>  <SMR_VSA7>
45.62

>  <SMR_VSA8>
0

>  <SMR_VSA9>
34.12

>  <SlogP_VSA1>
29.69

>  <SlogP_VSA2>
34.35

>  <SlogP_VSA3>
11.22

>  <SlogP_VSA4>
0

>  <SlogP_VSA5>
30.51

>  <SlogP_VSA6>
29.06

>  <SlogP_VSA7>
0

>  <SlogP_VSA8>
11.13

>  <SlogP_VSA9>
0

>  <SlogP_VSA10>
0

>  <SlogP_VSA11>
23

>  <EState_VSA1>
0

>  <EState_VSA2>
23.13

>  <EState_VSA3>
35.65

>  <EState_VSA4>
16.69

>  <EState_VSA5>
20.1

>  <EState_VSA6>
27.4

>  <EState_VSA7>
12.13

>  <EState_VSA8>
5.32

>  <EState_VSA9>
18.95

>  <EState_VSA10>
9.59

>  <VSA_EState1>
22

>  <VSA_EState2>
24.48

>  <VSA_EState3>
2.96

>  <VSA_EState4>
3.01

>  <VSA_EState5>
1.6

>  <VSA_EState6>
6.57

>  <VSA_EState7>
1.27

>  <VSA_EState8>
1.46

>  <VSA_EState9>
6.14

>  <apol>
59.32

>  <bpol>
34.33

>  <nRing>
3

>  <nHRing>
0

>  <naRing>
2

>  <naHRing>
0

>  <nARing 2>
1

>  <nAHRing 2>
0

>  <nFRing>
1

>  <nFHRing>
0

>  <nFaRing>
0

>  <nFaHRing>
0

>  <nFARing 2>
1

>  <nFAHRing 2>
0

>  <nRot>
5

>  <SLogP>
2.87

>  <SMR>
109.23

>  <TopoPSA(NO)>
83.09

>  <TopoPSA>
83.09

>  <JGI1>
0.19

>  <JGI2>
0.09

>  <JGI3>
0.05

>  <JGI4>
0.05

>  <JGI5>
0.03

>  <Diameter>
11

>  <Radius>
6

>  <TMWC10>
137.74

>  <TSRW10>
74

>  <MW>
399.17

>  <AMW>
7.39

>  <WPath>
1944

>  <WPol>
59

>  <Zagreb1>
150

>  <Zagreb2>
181

>  <mZagreb2>
6.72

>  <yes>


>  <nAR-cont>
0.816016

>  <nHA-cont>
0.785905698

>  <MWHBN>
0.350363691

>  <MWHBN-cont>
0.668890307

>  <TPSA-cont>
0.419980204

>  <pka_cont>
0.97

>  <yes.1>


>  <BBB_SCORE>
3.930217567

>  <MMFF94 Energy>
108.31

$$$$
Compound 124
Actelion Java MolfileCreator 2.0

  0  0  0  0  0  0              0 V3000
M  V30 BEGIN CTAB
M  V30 COUNTS 59 63 0 0 0
M  V30 BEGIN ATOM
M  V30 1 F -9.7414 -3.534 1.0431 0
M  V30 2 C -8.5291 -3.0902 0.6825 0
M  V30 3 C -8.1556 -3.1628 -0.6565 0
M  V30 4 C -7.6843 -2.5713 1.6614 0
M  V30 5 C -6.8843 -2.6845 -0.958 0
M  V30 6 C -6.4087 -2.0974 1.3242 0
M  V30 7 O -6.3278 -2.6641 -2.1979 0
M  V30 8 C -5.999 -2.1563 -0.0228 0
M  V30 9 C -5.0902 -2.126 -2.068 0
M  V30 10 C -4.823 -1.7909 -0.7529 0
M  V30 11 C -3.5645 -1.1751 -0.2086 0
M  V30 12 C -2.3456 -2.0838 -0.4043 0
M  V30 13 C -3.286 0.205 -0.8141 0
M  V30 14 C -1.0731 -1.4206 0.1248 0
M  V30 15 C -1.9824 0.7889 -0.2702 0
M  V30 16 N -0.8462 -0.1151 -0.5143 0
M  V30 17 C 0.4068 0.515 -0.0483 0
M  V30 18 C 1.6645 -0.1319 -0.6546 0
M  V30 19 C 2.9284 0.5005 -0.1248 0
M  V30 20 C 3.383 1.7426 -0.805 0
M  V30 21 C 3.6912 0.0367 0.8812 0
M  V30 22 O 2.6777 2.2723 -1.6621 0
M  V30 23 N 4.5979 2.2573 -0.3956 0
M  V30 24 N 4.8553 0.6355 1.2889 0
M  V30 25 C 3.3408 -1.1876 1.6892 0
M  V30 26 C 5.2626 1.6957 0.6638 0
M  V30 27 C 5.0405 3.4883 -1.0403 0
M  V30 28 C 6.6071 2.2835 1.1117 0 CFG=1
M  V30 29 C 6.5108 3.8118 -0.8421 0
M  V30 30 O 7.6376 1.4359 0.6009 0
M  V30 31 C 6.8535 3.703 0.6338 0
M  V30 32 H -8.8129 -3.5657 -1.4146 0
M  V30 33 H -8.0253 -2.5373 2.6924 0
M  V30 34 H -5.7555 -1.6939 2.0918 0
M  V30 35 H -4.5225 -2.0455 -2.9854 0
M  V30 36 H -3.6974 -1.0357 0.8735 0
M  V30 37 H -2.5011 -3.0384 0.1138 0
M  V30 38 H -2.212 -2.3246 -1.4676 0
M  V30 39 H -3.2239 0.1399 -1.9087 0
M  V30 40 H -4.1139 0.8893 -0.5894 0
M  V30 41 H -0.2416 -2.102 -0.0819 0
M  V30 42 H -1.1395 -1.3137 1.2156 0
M  V30 43 H -2.0884 1.0004 0.802 0
M  V30 44 H -1.8108 1.7475 -0.7752 0
M  V30 45 H 0.4558 0.5028 1.0488 0
M  V30 46 H 0.4077 1.5722 -0.3451 0
M  V30 47 H 1.6848 -1.2095 -0.4652 0
M  V30 48 H 1.6339 -0.0445 -1.7487 0
M  V30 49 H 3.5283 -1.0048 2.7537 0
M  V30 50 H 3.9589 -2.0346 1.3744 0
M  V30 51 H 2.2892 -1.4745 1.606 0
M  V30 52 H 4.4223 4.2978 -0.6305 0
M  V30 53 H 4.8194 3.4367 -2.1132 0
M  V30 54 H 6.6668 2.2457 2.2055 0
M  V30 55 H 6.7214 4.8231 -1.207 0
M  V30 56 H 7.1294 3.1212 -1.4276 0
M  V30 57 H 7.4239 0.5393 0.9243 0
M  V30 58 H 7.9037 3.9789 0.7822 0
M  V30 59 H 6.2363 4.405 1.2075 0
M  V30 END ATOM
M  V30 BEGIN BOND
M  V30 1 1 1 2
M  V30 2 2 2 3
M  V30 3 1 2 4
M  V30 4 1 3 5
M  V30 5 2 4 6
M  V30 6 1 5 7
M  V30 7 2 5 8
M  V30 8 1 7 9
M  V30 9 1 8 10
M  V30 10 1 10 11
M  V30 11 1 11 12
M  V30 12 1 11 13
M  V30 13 1 12 14
M  V30 14 1 13 15
M  V30 15 1 14 16
M  V30 16 1 16 17
M  V30 17 1 17 18
M  V30 18 1 18 19
M  V30 19 1 19 20
M  V30 20 2 19 21
M  V30 21 2 20 22
M  V30 22 1 20 23
M  V30 23 1 21 24
M  V30 24 1 21 25
M  V30 25 1 23 26
M  V30 26 1 23 27
M  V30 27 1 26 28
M  V30 28 1 27 29
M  V30 29 1 28 30
M  V30 30 1 28 31
M  V30 31 1 6 8
M  V30 32 2 9 10
M  V30 33 1 15 16
M  V30 34 2 24 26
M  V30 35 1 29 31
M  V30 36 1 3 32
M  V30 37 1 4 33
M  V30 38 1 6 34
M  V30 39 1 9 35
M  V30 40 1 11 36
M  V30 41 1 12 37
M  V30 42 1 12 38
M  V30 43 1 13 39
M  V30 44 1 13 40
M  V30 45 1 14 41
M  V30 46 1 14 42
M  V30 47 1 15 43
M  V30 48 1 15 44
M  V30 49 1 17 45
M  V30 50 1 17 46
M  V30 51 1 18 47
M  V30 52 1 18 48
M  V30 53 1 25 49
M  V30 54 1 25 50
M  V30 55 1 25 51
M  V30 56 1 27 52
M  V30 57 1 27 53
M  V30 58 1 28 54
M  V30 59 1 29 55
M  V30 60 1 29 56
M  V30 61 1 30 57
M  V30 62 1 31 58
M  V30 63 1 31 59
M  V30 END BOND
M  V30 BEGIN COLLECTION
M  V30 MDLV30/STERAC1 ATOMS=(1 28)
M  V30 END COLLECTION
M  V30 END CTAB
M  END
>  <Column 1>
159

>  <level_0>
179

>  <index>
179

>  <Unnamed: 0>
179

>  <NO.>
180

>  <Name>
risperidone-9-oh

>  <IUPAC_name>


>  <SMILES>
Cc1nc2n(c(=O)c1CCN1CCC(c3coc4cc(F)ccc34)CC1)CCCC2O

>  <CID>


>  <logBB>
-0.8

>  <BBB+/BBB->
BBB+

>  <Inchi>
InChI=1S/C24H28FN3O3/c1-15-18(24(30)28-9-2-3-21(29)23(28)26-15)8-12-27-10-6-16(7-11-27)20-14-31-22-13-17(25)4-5-19(20)22/h4-5-13-14-16-21-29H-2-3-6-12H2-1H3

>  <threshold>


>  <reference>
R18|R26|R27|

>  <group>
A

>  <Class>
1

>  <ABC>
24.86

>  <ABCGG>
17.81

>  <nAcid>
0

>  <nBase>
1

>  <nAromAtom>
15

>  <nAromBond>
16

>  <nAtom>
59

>  <nHeavyAtom>
31

>  <nSpiro>
0

>  <nBridgehead>
0

>  <nHetero>
7

>  <nN>
3

>  <nO>
3

>  <nF>
1

>  <BalabanJ>
1.09

>  <BertzCT>
1160.82

>  <nBonds>
63

>  <nBondsO>
35

>  <nBondsS>
46

>  <nBondsD>
1

>  <nBondsT>
0

>  <nBondsA>
16

>  <nBondsM>
17

>  <nBondsKS>
56

>  <nBondsKD>
7

>  <RNCG>
0.19

>  <RPCG>
0.11

>  <FCSP3>
0.5

>  <SZ>
37.67

>  <Sm>
35.43

>  <Sv>
36.65

>  <Sse>
59.37

>  <Sp>
38.93

>  <Si>
66.86

>  <MZ>
0.64

>  <Mm>
0.6

>  <Mv>
0.62

>  <Mse>
1.01

>  <Mp>
0.66

>  <Mi>
1.13

>  <NsCH3>
1

>  <NdCH2>
0

>  <NssCH2>
9

>  <NtCH>
0

>  <NdsCH>
0

>  <NaaCH>
4

>  <NsssCH>
2

>  <NddC>
0

>  <NtsC>
0

>  <NdssC>
0

>  <NaasC>
5

>  <NaaaC>
2

>  <NssssC>
0

>  <NsNH3>
0

>  <NsNH2>
0

>  <NssNH2>
0

>  <NdNH>
0

>  <NssNH>
0

>  <NaaNH>
0

>  <NtN>
0

>  <NsssNH>
0

>  <NdsN>
0

>  <NaaN>
1

>  <NsssN>
1

>  <NddsN>
0

>  <NaasN>
1

>  <NssssN>
0

>  <NsOH>
1

>  <NdO>
1

>  <NssO>
0

>  <NaaO>
1

>  <NsF>
1

>  <NsSiH3>
0

>  <NssSiH2>
0

>  <NsssSiH>
0

>  <NssssSi>
0

>  <NsPH2>
0

>  <NssPH>
0

>  <NsssP>
0

>  <NdsssP>
0

>  <NsssssP>
0

>  <NsSH>
0

>  <NdS>
0

>  <NssS>
0

>  <NaaS>
0

>  <NdssS>
0

>  <NddssS>
0

>  <NsCl>
0

>  <NsBr>
0

>  <NsI>
0

>  <fragCpx>
295.07

>  <fMF>
0.46

>  <nHBAcc>
6

>  <nHBDon>
1

>  <Kier1>
22.78

>  <Kier2>
9.7

>  <Lipinski>
1

>  <GhoseFilter>
1

>  <FilterItLogS>
-5.71

>  <VMcGowan>
313.93

>  <LabuteASA>
179.86

>  <PEOE_VSA1>
14.42

>  <PEOE_VSA2>
9.36

>  <PEOE_VSA3>
9.37

>  <PEOE_VSA4>
0

>  <PEOE_VSA5>
0

>  <PEOE_VSA6>
0

>  <PEOE_VSA7>
70.17

>  <PEOE_VSA8>
41.36

>  <PEOE_VSA9>
6.26

>  <PEOE_VSA10>
23.33

>  <PEOE_VSA11>
0

>  <PEOE_VSA12>
0

>  <PEOE_VSA13>
5.56

>  <SMR_VSA1>
13.91

>  <SMR_VSA2>
0

>  <SMR_VSA3>
14.45

>  <SMR_VSA4>
0

>  <SMR_VSA5>
57.59

>  <SMR_VSA6>
19.63

>  <SMR_VSA7>
63.28

>  <SMR_VSA8>
0

>  <SMR_VSA9>
0

>  <SlogP_VSA1>
5.56

>  <SlogP_VSA2>
39.19

>  <SlogP_VSA3>
12.97

>  <SlogP_VSA4>
12.74

>  <SlogP_VSA5>
60.35

>  <SlogP_VSA6>
33.67

>  <SlogP_VSA7>
0

>  <SlogP_VSA8>
10.97

>  <SlogP_VSA9>
0

>  <SlogP_VSA10>
4.39

>  <SlogP_VSA11>
0

>  <EState_VSA1>
6.1

>  <EState_VSA2>
11.38

>  <EState_VSA3>
36.71

>  <EState_VSA4>
55.54

>  <EState_VSA5>
17.7

>  <EState_VSA6>
10.83

>  <EState_VSA7>
12.99

>  <EState_VSA8>
9.88

>  <EState_VSA9>
4.42

>  <EState_VSA10>
14.29

>  <VSA_EState1>
20.67

>  <VSA_EState2>
19.92

>  <VSA_EState3>
11.17

>  <VSA_EState4>
3.29

>  <VSA_EState5>
0.65

>  <VSA_EState6>
4.75

>  <VSA_EState7>
5.32

>  <VSA_EState8>
5.24

>  <VSA_EState9>
0

>  <apol>
65.01

>  <bpol>
36.37

>  <nRing>
5

>  <nHRing>
4

>  <naRing>
3

>  <naHRing>
2

>  <nARing 2>
2

>  <nAHRing 2>
2

>  <nFRing>
2

>  <nFHRing>
2

>  <nFaRing>
1

>  <nFaHRing>
1

>  <nFARing 2>
1

>  <nFAHRing 2>
1

>  <nRot>
4

>  <SLogP>
3.69

>  <SMR>
115.72

>  <TopoPSA(NO)>
71.5

>  <TopoPSA>
71.5

>  <JGI1>
0.17

>  <JGI2>
0.09

>  <JGI3>
0.05

>  <JGI4>
0.05

>  <JGI5>
0.03

>  <Diameter>
17

>  <Radius>
9

>  <TMWC10>
144.58

>  <TSRW10>
81.35

>  <MW>
425.21

>  <AMW>
7.21

>  <WPath>
3047

>  <WPol>
54

>  <Zagreb1>
172

>  <Zagreb2>
208

>  <mZagreb2>
6.64

>  <yes>


>  <nAR-cont>
1

>  <nHA-cont>
0.702745138

>  <MWHBN>
0.339466017

>  <MWHBN-cont>
0.709071021

>  <TPSA-cont>
0.500885601

>  <pka_cont>
0.97

>  <yes.1>


>  <BBB_SCORE>
4.253122871

>  <MMFF94 Energy>
0.56075

$$$$
Compound 125
Actelion Java MolfileCreator 2.0

  0  0  0  0  0  0              0 V3000
M  V30 BEGIN CTAB
M  V30 COUNTS 25 25 0 0 0
M  V30 BEGIN ATOM
M  V30 1 O 0.3911 2.7405 0.5476 0
M  V30 2 C 0.97 2.0808 1.3935 0
M  V30 3 O 2.0028 2.6301 2.0798 0
M  V30 4 C 0.6947 0.63 1.8242 0 CFG=1
M  V30 5 N 0.7923 0.5325 3.3071 0
M  V30 6 C -0.6898 0.1484 1.3601 0
M  V30 7 C -0.701 -0.3296 -0.0761 0
M  V30 8 C -0.2097 -1.6051 -0.3964 0
M  V30 9 C -1.184 0.4957 -1.1052 0
M  V30 10 C -0.2092 -2.0308 -1.7181 0
M  V30 11 C -1.194 0.0517 -2.4301 0
M  V30 12 O 0.3326 -3.247 -2.0195 0
M  V30 13 C -0.7223 -1.2183 -2.7237 0
M  V30 14 O -0.7963 -1.672 -4.0088 0
M  V30 15 H 2.084 3.5285 1.6948 0
M  V30 16 H 1.4885 0.0079 1.395 0
M  V30 17 H 1.6849 0.9599 3.573 0
M  V30 18 H 0.08 1.1316 3.7252 0
M  V30 19 H -1.0254 -0.6938 1.9813 0
M  V30 20 H -1.4445 0.9339 1.4983 0
M  V30 21 H 0.1839 -2.2592 0.3774 0
M  V30 22 H -1.5573 1.4937 -0.8809 0
M  V30 23 H -1.5816 0.6894 -3.2187 0
M  V30 24 H 0.7653 -3.1378 -2.8863 0
M  V30 25 H -1.0655 -2.6068 -3.9437 0
M  V30 END ATOM
M  V30 BEGIN BOND
M  V30 1 2 1 2
M  V30 2 1 2 3
M  V30 3 1 2 4
M  V30 4 1 4 5
M  V30 5 1 4 6
M  V30 6 1 6 7
M  V30 7 2 7 8
M  V30 8 1 7 9
M  V30 9 1 8 10
M  V30 10 2 9 11
M  V30 11 1 10 12
M  V30 12 2 10 13
M  V30 13 1 13 14
M  V30 14 1 11 13
M  V30 15 1 3 15
M  V30 16 1 4 16
M  V30 17 1 5 17
M  V30 18 1 5 18
M  V30 19 1 6 19
M  V30 20 1 6 20
M  V30 21 1 8 21
M  V30 22 1 9 22
M  V30 23 1 11 23
M  V30 24 1 12 24
M  V30 25 1 14 25
M  V30 END BOND
M  V30 BEGIN COLLECTION
M  V30 MDLV30/STEABS ATOMS=(1 4)
M  V30 END COLLECTION
M  V30 END CTAB
M  END
>  <Column 1>
160

>  <level_0>
180

>  <index>
180

>  <Unnamed: 0>
180

>  <NO.>
181

>  <Name>
levodopa

>  <IUPAC_name>
(2s)-2-amino-3-(3-4-dihydroxyphenyl)propanoic acid

>  <SMILES>
N[C@@H](Cc1ccc(O)c(O)c1)C(=O)O

>  <CID>
6047

>  <logBB>
-0.8

>  <BBB+/BBB->
BBB+

>  <Inchi>
InChI=1S/C9H11NO4/c10-6(9(13)14)3-5-1-2-7(11)8(12)4-5/h1-2-4-6-11-12H-3-10H2-(H-13-14)/t6-/m0/s1

>  <threshold>


>  <reference>
R5|R21|R8|R39|

>  <group>
A

>  <Class>
1

>  <ABC>
10.37

>  <ABCGG>
9.58

>  <nAcid>
1

>  <nBase>
1

>  <nAromAtom>
6

>  <nAromBond>
6

>  <nAtom>
25

>  <nHeavyAtom>
14

>  <nSpiro>
0

>  <nBridgehead>
0

>  <nHetero>
5

>  <nN>
1

>  <nO>
4

>  <nF>
0

>  <BalabanJ>
2.33

>  <BertzCT>
350.67

>  <nBonds>
25

>  <nBondsO>
14

>  <nBondsS>
18

>  <nBondsD>
1

>  <nBondsT>
0

>  <nBondsA>
6

>  <nBondsM>
7

>  <nBondsKS>
21

>  <nBondsKD>
4

>  <RNCG>
0.23

>  <RPCG>
0.15

>  <FCSP3>
0.22

>  <SZ>
17.33

>  <Sm>
16.42

>  <Sv>
15.6

>  <Sse>
25.87

>  <Sp>
15.97

>  <Si>
28.41

>  <MZ>
0.69

>  <Mm>
0.66

>  <Mv>
0.62

>  <Mse>
1.03

>  <Mp>
0.64

>  <Mi>
1.14

>  <NsCH3>
0

>  <NdCH2>
0

>  <NssCH2>
1

>  <NtCH>
0

>  <NdsCH>
0

>  <NaaCH>
3

>  <NsssCH>
1

>  <NddC>
0

>  <NtsC>
0

>  <NdssC>
1

>  <NaasC>
3

>  <NaaaC>
0

>  <NssssC>
0

>  <NsNH3>
0

>  <NsNH2>
1

>  <NssNH2>
0

>  <NdNH>
0

>  <NssNH>
0

>  <NaaNH>
0

>  <NtN>
0

>  <NsssNH>
0

>  <NdsN>
0

>  <NaaN>
0

>  <NsssN>
0

>  <NddsN>
0

>  <NaasN>
0

>  <NssssN>
0

>  <NsOH>
3

>  <NdO>
1

>  <NssO>
0

>  <NaaO>
0

>  <NsF>
0

>  <NsSiH3>
0

>  <NssSiH2>
0

>  <NsssSiH>
0

>  <NssssSi>
0

>  <NsPH2>
0

>  <NssPH>
0

>  <NsssP>
0

>  <NdsssP>
0

>  <NsssssP>
0

>  <NsSH>
0

>  <NdS>
0

>  <NssS>
0

>  <NaaS>
0

>  <NdssS>
0

>  <NddssS>
0

>  <NsCl>
0

>  <NsBr>
0

>  <NsI>
0

>  <fragCpx>
14.05

>  <fMF>
0.24

>  <nHBAcc>
4

>  <nHBDon>
4

>  <Kier1>
12.07

>  <Kier2>
5.19

>  <Lipinski>
1

>  <GhoseFilter>
1

>  <FilterItLogS>
-0.27

>  <VMcGowan>
143.07

>  <LabuteASA>
80.41

>  <PEOE_VSA1>
21.05

>  <PEOE_VSA2>
4.79

>  <PEOE_VSA3>
0

>  <PEOE_VSA4>
0

>  <PEOE_VSA5>
0

>  <PEOE_VSA6>
6.07

>  <PEOE_VSA7>
24.12

>  <PEOE_VSA8>
0

>  <PEOE_VSA9>
0

>  <PEOE_VSA10>
6.04

>  <PEOE_VSA11>
11.5

>  <PEOE_VSA12>
0

>  <PEOE_VSA13>
0

>  <SMR_VSA1>
20.11

>  <SMR_VSA2>
0

>  <SMR_VSA3>
0

>  <SMR_VSA4>
5.73

>  <SMR_VSA5>
12.46

>  <SMR_VSA6>
0

>  <SMR_VSA7>
23.76

>  <SMR_VSA8>
0

>  <SMR_VSA9>
11.5

>  <SlogP_VSA1>
5.73

>  <SlogP_VSA2>
27.33

>  <SlogP_VSA3>
11.22

>  <SlogP_VSA4>
0

>  <SlogP_VSA5>
5.56

>  <SlogP_VSA6>
18.2

>  <SlogP_VSA7>
0

>  <SlogP_VSA8>
0

>  <SlogP_VSA9>
0

>  <SlogP_VSA10>
0

>  <SlogP_VSA11>
11.5

>  <EState_VSA1>
12.01

>  <EState_VSA2>
17.92

>  <EState_VSA3>
5.56

>  <EState_VSA4>
0

>  <EState_VSA5>
18.2

>  <EState_VSA6>
0

>  <EState_VSA7>
0

>  <EState_VSA8>
0

>  <EState_VSA9>
21.05

>  <EState_VSA10>
4.79

>  <VSA_EState1>
0

>  <VSA_EState2>
10.42

>  <VSA_EState3>
26.63

>  <VSA_EState4>
5.86

>  <VSA_EState5>
-1.62

>  <VSA_EState6>
3.09

>  <VSA_EState7>
0.11

>  <VSA_EState8>
0

>  <VSA_EState9>
0

>  <apol>
26.67

>  <bpol>
11.33

>  <nRing>
1

>  <nHRing>
0

>  <naRing>
1

>  <naHRing>
0

>  <nARing 2>
0

>  <nAHRing 2>
0

>  <nFRing>
0

>  <nFHRing>
0

>  <nFaRing>
0

>  <nFaHRing>
0

>  <nFARing 2>
0

>  <nFAHRing 2>
0

>  <nRot>
3

>  <SLogP>
0.05

>  <SMR>
49.09

>  <TopoPSA(NO)>
103.78

>  <TopoPSA>
103.78

>  <JGI1>
0.29

>  <JGI2>
0.11

>  <JGI3>
0.05

>  <JGI4>
0.06

>  <JGI5>
0.03

>  <Diameter>
8

>  <Radius>
4

>  <TMWC10>
95.2

>  <TSRW10>
45.05

>  <MW>
197.07

>  <AMW>
7.88

>  <WPath>
321

>  <WPol>
18

>  <Zagreb1>
66

>  <Zagreb2>
73

>  <mZagreb2>
3.14

>  <yes>


>  <nAR-cont>
0.336376

>  <nHA-cont>
0.887625254

>  <MWHBN>
0.569875162

>  <MWHBN-cont>
0

>  <TPSA-cont>
0.275551156

>  <pka_cont>
0.97

>  <yes.1>


>  <BBB_SCORE>
2.260103567

>  <MMFF94 Energy>
43.104

$$$$
Compound 126
Actelion Java MolfileCreator 2.0

  0  0  0  0  0  0              0 V3000
M  V30 BEGIN CTAB
M  V30 COUNTS 38 39 0 0 0
M  V30 BEGIN ATOM
M  V30 1 O 0.0 0.1588 2.6236 0
M  V30 2 C -0.4328 1.2619 2.9258 0
M  V30 3 O -0.1963 1.7489 4.1633 0
M  V30 4 C -1.1355 2.2559 2.0084 0 CFG=1
M  V30 5 N -1.989 1.565 1.022 0
M  V30 6 C -2.1547 3.1534 2.708 0
M  V30 7 O -1.1184 1.0574 -0.0337 0
M  V30 8 C -2.8151 2.6191 0.4399 0
M  V30 9 C -3.2592 3.3866 1.6754 0
M  V30 10 C -1.4183 -0.2557 -0.3399 0
M  V30 11 O -2.364 -0.917 0.0811 0
M  V30 12 C -0.342 -0.8013 -1.2861 0 CFG=2
M  V30 13 N -0.9558 -1.7542 -2.2463 0
M  V30 14 C 0.7606 -1.438 -0.4207 0
M  V30 15 C 1.9429 -1.9453 -1.2146 0
M  V30 16 C 2.8293 -1.048 -1.8263 0
M  V30 17 C 2.165 -3.3221 -1.3547 0
M  V30 18 C 3.9125 -1.5201 -2.5692 0
M  V30 19 C 3.2489 -3.7916 -2.098 0
M  V30 20 C 4.1214 -2.891 -2.7058 0
M  V30 21 H 0.2643 1.0108 4.6156 0
M  V30 22 H -0.3676 2.8683 1.5174 0
M  V30 23 H -1.6981 4.1012 3.0139 0
M  V30 24 H -2.5802 2.687 3.6047 0
M  V30 25 H -2.2372 3.2716 -0.2267 0
M  V30 26 H -3.6668 2.2149 -0.1151 0
M  V30 27 H -3.3963 4.4513 1.4606 0
M  V30 28 H -4.2099 2.9947 2.0564 0
M  V30 29 H 0.0562 0.0302 -1.8789 0
M  V30 30 H -1.5103 -2.4289 -1.7123 0
M  V30 31 H -0.2173 -2.2898 -2.7033 0
M  V30 32 H 0.3392 -2.253 0.1835 0
M  V30 33 H 1.1344 -0.7048 0.3059 0
M  V30 34 H 2.6846 0.0252 -1.7272 0
M  V30 35 H 1.4956 -4.0397 -0.8849 0
M  V30 36 H 4.5951 -0.8178 -3.0406 0
M  V30 37 H 3.4138 -4.861 -2.2011 0
M  V30 38 H 4.9657 -3.2577 -3.2836 0
M  V30 END ATOM
M  V30 BEGIN BOND
M  V30 1 2 1 2
M  V30 2 1 2 3
M  V30 3 1 2 4
M  V30 4 1 4 5
M  V30 5 1 4 6
M  V30 6 1 5 7
M  V30 7 1 5 8
M  V30 8 1 6 9
M  V30 9 1 7 10
M  V30 10 2 10 11
M  V30 11 1 10 12
M  V30 12 1 12 13
M  V30 13 1 12 14
M  V30 14 1 14 15
M  V30 15 2 15 16
M  V30 16 1 15 17
M  V30 17 1 16 18
M  V30 18 2 17 19
M  V30 19 2 18 20
M  V30 20 1 8 9
M  V30 21 1 19 20
M  V30 22 1 3 21
M  V30 23 1 4 22
M  V30 24 1 6 23
M  V30 25 1 6 24
M  V30 26 1 8 25
M  V30 27 1 8 26
M  V30 28 1 9 27
M  V30 29 1 9 28
M  V30 30 1 12 29
M  V30 31 1 13 30
M  V30 32 1 13 31
M  V30 33 1 14 32
M  V30 34 1 14 33
M  V30 35 1 16 34
M  V30 36 1 17 35
M  V30 37 1 18 36
M  V30 38 1 19 37
M  V30 39 1 20 38
M  V30 END BOND
M  V30 BEGIN COLLECTION
M  V30 MDLV30/STEABS ATOMS=(2 4 12)
M  V30 END COLLECTION
M  V30 END CTAB
M  END
>  <Column 1>
161

>  <level_0>
181

>  <index>
181

>  <Unnamed: 0>
181

>  <NO.>
182

>  <Name>
d-phenylalanine-l-proline

>  <IUPAC_name>


>  <SMILES>
N[C@H](Cc1ccccc1)C(=O)ON1CCC[C@H]1C(=O)O

>  <CID>


>  <logBB>
-0.8

>  <BBB+/BBB->
BBB+

>  <Inchi>
InChI=1S/C14H18N2O4/c15-11(9-10-5-2-1-3-6-10)14(19)20-16-8-4-7-12(16)13(17)18/h1-3-5-6-11-12H-4-7-9-15H2-(H-17-18)/t11--12+/m1/s1

>  <threshold>


>  <reference>
R2|R2|R25|R46|

>  <group>
A

>  <Class>
1

>  <ABC>
15.17

>  <ABCGG>
13.57

>  <nAcid>
1

>  <nBase>
1

>  <nAromAtom>
6

>  <nAromBond>
6

>  <nAtom>
38

>  <nHeavyAtom>
20

>  <nSpiro>
0

>  <nBridgehead>
0

>  <nHetero>
6

>  <nN>
2

>  <nO>
4

>  <nF>
0

>  <BalabanJ>
1.76

>  <BertzCT>
477.32

>  <nBonds>
39

>  <nBondsO>
21

>  <nBondsS>
31

>  <nBondsD>
2

>  <nBondsT>
0

>  <nBondsA>
6

>  <nBondsM>
8

>  <nBondsKS>
34

>  <nBondsKD>
5

>  <RNCG>
0.22

>  <RPCG>
0.16

>  <FCSP3>
0.43

>  <SZ>
24.67

>  <Sm>
23.17

>  <Sv>
23.25

>  <Sse>
38.64

>  <Sp>
24.43

>  <Si>
43.16

>  <MZ>
0.65

>  <Mm>
0.61

>  <Mv>
0.61

>  <Mse>
1.02

>  <Mp>
0.64

>  <Mi>
1.14

>  <NsCH3>
0

>  <NdCH2>
0

>  <NssCH2>
4

>  <NtCH>
0

>  <NdsCH>
0

>  <NaaCH>
5

>  <NsssCH>
2

>  <NddC>
0

>  <NtsC>
0

>  <NdssC>
2

>  <NaasC>
1

>  <NaaaC>
0

>  <NssssC>
0

>  <NsNH3>
0

>  <NsNH2>
1

>  <NssNH2>
0

>  <NdNH>
0

>  <NssNH>
0

>  <NaaNH>
0

>  <NtN>
0

>  <NsssNH>
0

>  <NdsN>
0

>  <NaaN>
0

>  <NsssN>
1

>  <NddsN>
0

>  <NaasN>
0

>  <NssssN>
0

>  <NsOH>
1

>  <NdO>
2

>  <NssO>
1

>  <NaaO>
0

>  <NsF>
0

>  <NsSiH3>
0

>  <NssSiH2>
0

>  <NsssSiH>
0

>  <NssssSi>
0

>  <NsPH2>
0

>  <NssPH>
0

>  <NsssP>
0

>  <NdsssP>
0

>  <NsssssP>
0

>  <NsSH>
0

>  <NdS>
0

>  <NssS>
0

>  <NaaS>
0

>  <NdssS>
0

>  <NddssS>
0

>  <NsCl>
0

>  <NsBr>
0

>  <NsI>
0

>  <fragCpx>
61.06

>  <fMF>
0.39

>  <nHBAcc>
5

>  <nHBDon>
2

>  <Kier1>
16.37

>  <Kier2>
7.85

>  <Lipinski>
1

>  <GhoseFilter>
1

>  <FilterItLogS>
-1.01

>  <VMcGowan>
208.34

>  <LabuteASA>
116.63

>  <PEOE_VSA1>
15.68

>  <PEOE_VSA2>
4.79

>  <PEOE_VSA3>
4.79

>  <PEOE_VSA4>
0

>  <PEOE_VSA5>
5.06

>  <PEOE_VSA6>
30.33

>  <PEOE_VSA7>
24.83

>  <PEOE_VSA8>
6.54

>  <PEOE_VSA9>
0

>  <PEOE_VSA10>
12.08

>  <PEOE_VSA11>
0

>  <PEOE_VSA12>
0

>  <PEOE_VSA13>
0

>  <SMR_VSA1>
19.53

>  <SMR_VSA2>
0

>  <SMR_VSA3>
5.06

>  <SMR_VSA4>
5.73

>  <SMR_VSA5>
31.35

>  <SMR_VSA6>
6.54

>  <SMR_VSA7>
35.9

>  <SMR_VSA8>
0

>  <SMR_VSA9>
0

>  <SlogP_VSA1>
5.73

>  <SlogP_VSA2>
40.74

>  <SlogP_VSA3>
20.85

>  <SlogP_VSA4>
0

>  <SlogP_VSA5>
18.41

>  <SlogP_VSA6>
30.33

>  <SlogP_VSA7>
0

>  <SlogP_VSA8>
0

>  <SlogP_VSA9>
0

>  <SlogP_VSA10>
0

>  <SlogP_VSA11>
0

>  <EState_VSA1>
24.02

>  <EState_VSA2>
0

>  <EState_VSA3>
25.81

>  <EState_VSA4>
5.56

>  <EState_VSA5>
5.06

>  <EState_VSA6>
0

>  <EState_VSA7>
30.33

>  <EState_VSA8>
0

>  <EState_VSA9>
15.68

>  <EState_VSA10>
9.59

>  <VSA_EState1>
0

>  <VSA_EState2>
27.99

>  <VSA_EState3>
10.22

>  <VSA_EState4>
6.74

>  <VSA_EState5>
-1.58

>  <VSA_EState6>
7.82

>  <VSA_EState7>
1.54

>  <VSA_EState8>
0.43

>  <VSA_EState9>
0

>  <apol>
40.79

>  <bpol>
21.53

>  <nRing>
2

>  <nHRing>
1

>  <naRing>
1

>  <naHRing>
0

>  <nARing 2>
1

>  <nAHRing 2>
1

>  <nFRing>
0

>  <nFHRing>
0

>  <nFaRing>
0

>  <nFaHRing>
0

>  <nFARing 2>
0

>  <nFAHRing 2>
0

>  <nRot>
5

>  <SLogP>
0.56

>  <SMR>
71.58

>  <TopoPSA(NO)>
92.86

>  <TopoPSA>
92.86

>  <JGI1>
0.19

>  <JGI2>
0.08

>  <JGI3>
0.05

>  <JGI4>
0.04

>  <JGI5>
0.03

>  <Diameter>
11

>  <Radius>
6

>  <TMWC10>
112.41

>  <TSRW10>
66.53

>  <MW>
278.13

>  <AMW>
7.32

>  <WPath>
890

>  <WPol>
26

>  <Zagreb1>
98

>  <Zagreb2>
111

>  <mZagreb2>
4.5

>  <yes>


>  <nAR-cont>
0.816016

>  <nHA-cont>
0.999629945

>  <MWHBN>
0.419733973

>  <MWHBN-cont>
0.398990387

>  <TPSA-cont>
0.351779537

>  <pka_cont>
0.97

>  <yes.1>


>  <BBB_SCORE>
3.6026906

>  <MMFF94 Energy>
133.67

$$$$
Compound 127
Actelion Java MolfileCreator 2.0

  0  0  0  0  0  0              0 V3000
M  V30 BEGIN CTAB
M  V30 COUNTS 70 73 0 0 0
M  V30 BEGIN ATOM
M  V30 1 O -0.9549 -0.9549 -1.831 0
M  V30 2 C 0.1614 -0.8567 -1.3252 0
M  V30 3 N 1.2937 -1.2651 -1.9971 0
M  V30 4 C 0.3231 -0.2836 0.0444 0
M  V30 5 C 1.2238 -1.8214 -3.3243 0
M  V30 6 C 1.4572 -0.451 0.8297 0
M  V30 7 C -0.7117 0.4494 0.6354 0
M  V30 8 O 2.528 -1.1623 0.3168 0
M  V30 9 N 1.5955 0.0502 2.0733 0
M  V30 10 N -0.596 0.9644 1.8789 0
M  V30 11 N -1.8784 0.7399 -0.0488 0
M  V30 12 C 3.5812 -1.4118 1.2571 0
M  V30 13 C 0.5464 0.7397 2.54 0
M  V30 14 C -2.9501 1.5084 0.551 0
M  V30 15 C 4.6581 -2.2709 0.5706 0
M  V30 16 C 0.6585 1.2866 3.8661 0
M  V30 17 C -4.1255 1.6615 -0.4316 0
M  V30 18 C 5.3093 -1.5586 -0.6289 0
M  V30 19 C 5.7462 -2.7102 1.5635 0
M  V30 20 N 0.7635 1.7208 4.9407 0
M  V30 21 C -4.8657 0.3274 -0.6437 0
M  V30 22 C -5.1045 2.7314 0.0829 0
M  V30 23 C 6.248 -0.432 -0.2012 0
M  V30 24 C 6.6804 -1.5665 1.9579 0
M  V30 25 C -6.0707 0.488 -1.571 0
M  V30 26 C -6.2993 2.9 -0.8532 0
M  V30 27 N 7.227 -0.9032 0.7752 0
M  V30 28 C -7.0244 1.5638 -1.0328 0
M  V30 29 C 8.5698 -0.6142 0.5702 0
M  V30 30 C -8.3433 1.6905 -1.8561 0
M  V30 31 C -7.9267 1.1307 0.1671 0
M  V30 32 O 8.977 -0.0092 -0.4219 0
M  V30 33 C 9.548 -1.0759 1.6201 0
M  V30 34 C -9.0098 0.7322 -0.852 0
M  V30 35 H 2.1944 -1.2225 -1.5337 0
M  V30 36 H 0.6636 -1.1465 -3.9772 0
M  V30 37 H 0.7163 -2.7886 -3.2779 0
M  V30 38 H 2.2399 -1.9509 -3.7036 0
M  V30 39 H -2.0651 0.1747 -0.8809 0
M  V30 40 H 4.0042 -0.4624 1.604 0
M  V30 41 H 3.1801 -1.9655 2.1158 0
M  V30 42 H -3.2964 1.0275 1.4744 0
M  V30 43 H -2.5706 2.5037 0.8138 0
M  V30 44 H 4.1587 -3.1688 0.1824 0
M  V30 45 H -3.7318 1.996 -1.4017 0
M  V30 46 H 5.8892 -2.299 -1.1957 0
M  V30 47 H 4.5502 -1.1673 -1.3144 0
M  V30 48 H 5.2932 -3.1465 2.4612 0
M  V30 49 H 6.3435 -3.5033 1.0947 0
M  V30 50 H -4.1906 -0.4201 -1.0747 0
M  V30 51 H -5.197 -0.0675 0.3245 0
M  V30 52 H -4.5877 3.6939 0.1778 0
M  V30 53 H -5.4576 2.4583 1.0855 0
M  V30 54 H 5.69 0.3883 0.2639 0
M  V30 55 H 6.7391 -0.0184 -1.0878 0
M  V30 56 H 6.1446 -0.8069 2.5382 0
M  V30 57 H 7.4688 -1.9593 2.603 0
M  V30 58 H -5.723 0.7676 -2.5736 0
M  V30 59 H -6.5775 -0.4787 -1.6717 0
M  V30 60 H -6.9745 3.6611 -0.444 0
M  V30 61 H -5.9545 3.2732 -1.8258 0
M  V30 62 H -8.3081 1.3347 -2.8898 0
M  V30 63 H -8.7883 2.6932 -1.8512 0
M  V30 64 H -8.2356 1.9546 0.822 0
M  V30 65 H -7.5556 0.3144 0.7926 0
M  V30 66 H 9.3113 -0.6191 2.5848 0
M  V30 67 H 9.5303 -2.1661 1.6978 0
M  V30 68 H 10.559 -0.7688 1.3355 0
M  V30 69 H -10.0371 0.9797 -0.5719 0
M  V30 70 H -8.97 -0.3209 -1.1515 0
M  V30 END ATOM
M  V30 BEGIN BOND
M  V30 1 2 1 2
M  V30 2 1 2 3
M  V30 3 1 2 4
M  V30 4 1 3 5
M  V30 5 2 4 6
M  V30 6 1 4 7
M  V30 7 1 6 8
M  V30 8 1 6 9
M  V30 9 2 7 10
M  V30 10 1 7 11
M  V30 11 1 8 12
M  V30 12 2 9 13
M  V30 13 1 11 14
M  V30 14 1 12 15
M  V30 15 1 13 16
M  V30 16 1 14 17
M  V30 17 1 15 18
M  V30 18 1 15 19
M  V30 19 3 16 20
M  V30 20 1 17 21
M  V30 21 1 17 22
M  V30 22 1 18 23
M  V30 23 1 19 24
M  V30 24 1 21 25
M  V30 25 1 22 26
M  V30 26 1 23 27
M  V30 27 1 25 28
M  V30 28 1 27 29
M  V30 29 1 28 30
M  V30 30 1 28 31
M  V30 31 2 29 32
M  V30 32 1 29 33
M  V30 33 1 30 34
M  V30 34 1 10 13
M  V30 35 1 24 27
M  V30 36 1 26 28
M  V30 37 1 31 34
M  V30 38 1 3 35
M  V30 39 1 5 36
M  V30 40 1 5 37
M  V30 41 1 5 38
M  V30 42 1 11 39
M  V30 43 1 12 40
M  V30 44 1 12 41
M  V30 45 1 14 42
M  V30 46 1 14 43
M  V30 47 1 15 44
M  V30 48 1 17 45
M  V30 49 1 18 46
M  V30 50 1 18 47
M  V30 51 1 19 48
M  V30 52 1 19 49
M  V30 53 1 21 50
M  V30 54 1 21 51
M  V30 55 1 22 52
M  V30 56 1 22 53
M  V30 57 1 23 54
M  V30 58 1 23 55
M  V30 59 1 24 56
M  V30 60 1 24 57
M  V30 61 1 25 58
M  V30 62 1 25 59
M  V30 63 1 26 60
M  V30 64 1 26 61
M  V30 65 1 30 62
M  V30 66 1 30 63
M  V30 67 1 31 64
M  V30 68 1 31 65
M  V30 69 1 33 66
M  V30 70 1 33 67
M  V30 71 1 33 68
M  V30 72 1 34 69
M  V30 73 1 34 70
M  V30 END BOND
M  V30 END CTAB
M  END
>  <Column 1>
163

>  <level_0>
184

>  <index>
184

>  <Unnamed: 0>
184

>  <NO.>
185

>  <Name>
irie-16c

>  <IUPAC_name>
4-[(1-acetylpiperidin-4-yl)methoxy]-2-cyano-n-methyl-6-(spiro[3.5]nonan-7-ylmethylamino)pyrimidine-5-carboxamide

>  <SMILES>
CNC(=O)c1c(NCC2CCC3(CCC3)CC2)nc(C#N)nc1OCC1CCN(C(C)=O)CC1

>  <CID>
44579173

>  <logBB>
-0.79

>  <BBB+/BBB->
BBB+

>  <Inchi>
InChI=1S/C25H36N6O3/c1-17(32)31-12-6-19(7-13-31)16-34-24-21(23(33)27-2)22(29-20(14-26)30-24)28-15-18-4-10-25(11-5-18)8-3-9-25/h18-19H-3-13-15-16H2-1-2H3-(H-27-33)(H-28-29-30)

>  <threshold>


>  <reference>
R27|R18|R26|

>  <group>
A

>  <Class>
1

>  <ABC>
26.33

>  <ABCGG>
19.98

>  <nAcid>
0

>  <nBase>
0

>  <nAromAtom>
6

>  <nAromBond>
6

>  <nAtom>
70

>  <nHeavyAtom>
34

>  <nSpiro>
1

>  <nBridgehead>
0

>  <nHetero>
9

>  <nN>
6

>  <nO>
3

>  <nF>
0

>  <BalabanJ>
1.31

>  <BertzCT>
936.7

>  <nBonds>
73

>  <nBondsO>
37

>  <nBondsS>
64

>  <nBondsD>
2

>  <nBondsT>
1

>  <nBondsA>
6

>  <nBondsM>
9

>  <nBondsKS>
67

>  <nBondsKD>
5

>  <RNCG>
0.15

>  <RPCG>
0.08

>  <FCSP3>
0.72

>  <SZ>
42

>  <Sm>
39.01

>  <Sv>
41.45

>  <Sse>
69.95

>  <Sp>
44.77

>  <Si>
79.85

>  <MZ>
0.6

>  <Mm>
0.56

>  <Mv>
0.59

>  <Mse>
1

>  <Mp>
0.64

>  <Mi>
1.14

>  <NsCH3>
2

>  <NdCH2>
0

>  <NssCH2>
13

>  <NtCH>
0

>  <NdsCH>
0

>  <NaaCH>
0

>  <NsssCH>
2

>  <NddC>
0

>  <NtsC>
1

>  <NdssC>
2

>  <NaasC>
4

>  <NaaaC>
0

>  <NssssC>
1

>  <NsNH3>
0

>  <NsNH2>
0

>  <NssNH2>
0

>  <NdNH>
0

>  <NssNH>
2

>  <NaaNH>
0

>  <NtN>
1

>  <NsssNH>
0

>  <NdsN>
0

>  <NaaN>
2

>  <NsssN>
1

>  <NddsN>
0

>  <NaasN>
0

>  <NssssN>
0

>  <NsOH>
0

>  <NdO>
2

>  <NssO>
1

>  <NaaO>
0

>  <NsF>
0

>  <NsSiH3>
0

>  <NssSiH2>
0

>  <NsssSiH>
0

>  <NssssSi>
0

>  <NsPH2>
0

>  <NssPH>
0

>  <NsssP>
0

>  <NdsssP>
0

>  <NsssssP>
0

>  <NsSH>
0

>  <NdS>
0

>  <NssS>
0

>  <NaaS>
0

>  <NdssS>
0

>  <NddssS>
0

>  <NsCl>
0

>  <NsBr>
0

>  <NsI>
0

>  <fragCpx>
247.09

>  <fMF>
0.36

>  <nHBAcc>
7

>  <nHBDon>
2

>  <Kier1>
27.05

>  <Kier2>
12.5

>  <Lipinski>
1

>  <GhoseFilter>
1

>  <FilterItLogS>
-5.67

>  <VMcGowan>
367.06

>  <LabuteASA>
201.21

>  <PEOE_VSA1>
20.27

>  <PEOE_VSA2>
9.59

>  <PEOE_VSA3>
4.98

>  <PEOE_VSA4>
10.25

>  <PEOE_VSA5>
0

>  <PEOE_VSA6>
6.42

>  <PEOE_VSA7>
68.62

>  <PEOE_VSA8>
33.61

>  <PEOE_VSA9>
6.61

>  <PEOE_VSA10>
17.45

>  <PEOE_VSA11>
0

>  <PEOE_VSA12>
17.61

>  <PEOE_VSA13>
5.91

>  <SMR_VSA1>
14.33

>  <SMR_VSA2>
5.26

>  <SMR_VSA3>
20.18

>  <SMR_VSA4>
17.25

>  <SMR_VSA5>
64.71

>  <SMR_VSA6>
38.61

>  <SMR_VSA7>
11.39

>  <SMR_VSA8>
0

>  <SMR_VSA9>
11.95

>  <SlogP_VSA1>
15.37

>  <SlogP_VSA2>
59.97

>  <SlogP_VSA3>
4.79

>  <SlogP_VSA4>
28.58

>  <SlogP_VSA5>
80.89

>  <SlogP_VSA6>
0

>  <SlogP_VSA7>
0

>  <SlogP_VSA8>
0

>  <SlogP_VSA9>
0

>  <SlogP_VSA10>
5.82

>  <SlogP_VSA11>
5.88

>  <EState_VSA1>
0

>  <EState_VSA2>
35

>  <EState_VSA3>
43.39

>  <EState_VSA4>
12.84

>  <EState_VSA5>
44.95

>  <EState_VSA6>
13.97

>  <EState_VSA7>
10.97

>  <EState_VSA8>
20.6

>  <EState_VSA9>
4.74

>  <EState_VSA10>
14.85

>  <VSA_EState1>
6.01

>  <VSA_EState2>
34.71

>  <VSA_EState3>
15.48

>  <VSA_EState4>
0.85

>  <VSA_EState5>
1.01

>  <VSA_EState6>
1.99

>  <VSA_EState7>
10.71

>  <VSA_EState8>
4.08

>  <VSA_EState9>
1.56

>  <apol>
74.76

>  <bpol>
45.29

>  <nRing>
4

>  <nHRing>
2

>  <naRing>
1

>  <naHRing>
1

>  <nARing 2>
3

>  <nAHRing 2>
1

>  <nFRing>
0

>  <nFHRing>
0

>  <nFaRing>
0

>  <nFaHRing>
0

>  <nFARing 2>
0

>  <nFAHRing 2>
0

>  <nRot>
7

>  <SLogP>
3.12

>  <SMR>
127.34

>  <TopoPSA(NO)>
120.24

>  <TopoPSA>
120.24

>  <JGI1>
0.22

>  <JGI2>
0.08

>  <JGI3>
0.04

>  <JGI4>
0.04

>  <JGI5>
0.03

>  <Diameter>
18

>  <Radius>
9

>  <TMWC10>
149.08

>  <TSRW10>
70.61

>  <MW>
468.28

>  <AMW>
6.69

>  <WPath>
3799

>  <WPol>
53

>  <Zagreb1>
178

>  <Zagreb2>
209

>  <mZagreb2>
7.61

>  <yes>


>  <nAR-cont>
0.691115

>  <nHA-cont>
0.568589513

>  <MWHBN>
0.415900751

>  <MWHBN-cont>
0.413831244

>  <TPSA-cont>
0

>  <pka_cont>
0.97

>  <yes.1>


>  <BBB_SCORE>
2.365451378

>  <MMFF94 Energy>
1.2798

$$$$
Compound 128
Actelion Java MolfileCreator 2.0

  0  0  0  0  0  0              0 V3000
M  V30 BEGIN CTAB
M  V30 COUNTS 40 42 0 0 0
M  V30 BEGIN ATOM
M  V30 1 Cl 4.55 -1.4874 4.1357 0
M  V30 2 C 3.7205 0.0262 4.0714 0
M  V30 3 C 2.5803 0.2664 3.2881 0
M  V30 4 C 4.2484 1.049 4.8689 0
M  V30 5 C 1.9565 -0.761 2.3981 0
M  V30 6 C 1.973 1.5434 3.3149 0
M  V30 7 C 3.6459 2.3028 4.8864 0
M  V30 8 O 2.4137 -1.8809 2.2095 0
M  V30 9 C 0.7163 -0.4046 1.6687 0
M  V30 10 N 0.8319 1.8044 2.5462 0
M  V30 11 C 2.5141 2.5546 4.1162 0
M  V30 12 Cl 4.3032 3.5532 5.867 0
M  V30 13 C 0.232 0.8393 1.7671 0
M  V30 14 C -0.9882 1.2473 0.9972 0
M  V30 15 O -1.4036 2.3981 0.989 0
M  V30 16 O -1.5325 0.2096 0.3129 0
M  V30 17 C -2.6778 0.5539 -0.4798 0
M  V30 18 C -3.2371 -0.7145 -1.1281 0
M  V30 19 C -2.2575 -1.3576 -2.0762 0
M  V30 20 S -1.3577 -2.7385 -1.5751 0
M  V30 21 C -1.9217 -1.0268 -3.377 0
M  V30 22 C -0.5502 -2.8345 -3.0761 0
M  V30 23 N -0.9549 -1.882 -3.8965 0 CHG=1
M  V30 24 C -2.446 0.0757 -4.2212 0
M  V30 25 C -0.4042 -1.7678 -5.2435 0
M  V30 26 H 5.1315 0.8661 5.4783 0
M  V30 27 H 0.2807 -1.1909 1.0677 0
M  V30 28 H 0.3925 2.7232 2.5597 0
M  V30 29 H 2.0547 3.5401 4.1446 0
M  V30 30 H -2.3822 1.2814 -1.245 0
M  V30 31 H -3.4474 0.9969 0.1634 0
M  V30 32 H -4.1553 -0.4687 -1.6746 0
M  V30 33 H -3.517 -1.4279 -0.3426 0
M  V30 34 H 0.1933 -3.5881 -3.3069 0
M  V30 35 H -1.6433 0.7676 -4.4942 0
M  V30 36 H -2.8995 -0.3183 -5.1357 0
M  V30 37 H -3.2139 0.6525 -3.6964 0
M  V30 38 H 0.0656 -0.7872 -5.3631 0
M  V30 39 H -1.2073 -1.8906 -5.976 0
M  V30 40 H 0.3515 -2.5385 -5.4242 0
M  V30 END ATOM
M  V30 BEGIN BOND
M  V30 1 1 1 2
M  V30 2 2 2 3
M  V30 3 1 2 4
M  V30 4 1 3 5
M  V30 5 1 3 6
M  V30 6 2 4 7
M  V30 7 2 5 8
M  V30 8 1 5 9
M  V30 9 1 6 10
M  V30 10 2 6 11
M  V30 11 1 7 12
M  V30 12 2 9 13
M  V30 13 1 13 14
M  V30 14 2 14 15
M  V30 15 1 14 16
M  V30 16 1 16 17
M  V30 17 1 17 18
M  V30 18 1 18 19
M  V30 19 1 19 20
M  V30 20 2 19 21
M  V30 21 1 20 22
M  V30 22 1 21 23
M  V30 23 1 21 24
M  V30 24 1 23 25
M  V30 25 1 7 11
M  V30 26 1 10 13
M  V30 27 2 22 23
M  V30 28 1 4 26
M  V30 29 1 9 27
M  V30 30 1 10 28
M  V30 31 1 11 29
M  V30 32 1 17 30
M  V30 33 1 17 31
M  V30 34 1 18 32
M  V30 35 1 18 33
M  V30 36 1 22 34
M  V30 37 1 24 35
M  V30 38 1 24 36
M  V30 39 1 24 37
M  V30 40 1 25 38
M  V30 41 1 25 39
M  V30 42 1 25 40
M  V30 END BOND
M  V30 END CTAB
M  END
>  <Column 1>
166

>  <level_0>
190

>  <index>
190

>  <Unnamed: 0>
190

>  <NO.>
191

>  <Name>
n-methylthiazolium-dcka

>  <IUPAC_name>


>  <SMILES>
Cc1c(CCOC(=O)c2cc(=O)c3c(Cl)cc(Cl)cc3[nH]2)sc[n+]1C

>  <CID>


>  <logBB>
-0.78

>  <BBB+/BBB->
BBB+

>  <Inchi>
InChI=1S/C17H14Cl2N2O3S/c1-9-15(25-8-21(9)2)3-4-24-17(23)13-7-14(22)16-11(19)5-10(18)6-12(16)20-13/h5-8H-3-4H2-1-2H3/p+1

>  <threshold>


>  <reference>
R2|R2|R20|R25|R46|

>  <group>
A

>  <Class>
1

>  <ABC>
19.51

>  <ABCGG>
15.88

>  <nAcid>
0

>  <nBase>
1

>  <nAromAtom>
15

>  <nAromBond>
16

>  <nAtom>
40

>  <nHeavyAtom>
25

>  <nSpiro>
0

>  <nBridgehead>
0

>  <nHetero>
8

>  <nN>
2

>  <nO>
3

>  <nF>
0

>  <BalabanJ>
1.47

>  <BertzCT>
1026.64

>  <nBonds>
42

>  <nBondsO>
27

>  <nBondsS>
24

>  <nBondsD>
2

>  <nBondsT>
0

>  <nBondsA>
16

>  <nBondsM>
18

>  <nBondsKS>
34

>  <nBondsKD>
8

>  <RNCG>
0.25

>  <RPCG>
0.13

>  <FCSP3>
0.24

>  <SZ>
34.17

>  <Sm>
33.16

>  <Sv>
28.09

>  <Sse>
41.08

>  <Sp>
30.09

>  <Si>
44.55

>  <MZ>
0.85

>  <Mm>
0.83

>  <Mv>
0.7

>  <Mse>
1.03

>  <Mp>
0.75

>  <Mi>
1.11

>  <NsCH3>
2

>  <NdCH2>
0

>  <NssCH2>
2

>  <NtCH>
0

>  <NdsCH>
0

>  <NaaCH>
4

>  <NsssCH>
0

>  <NddC>
0

>  <NtsC>
0

>  <NdssC>
1

>  <NaasC>
5

>  <NaaaC>
2

>  <NssssC>
0

>  <NsNH3>
0

>  <NsNH2>
0

>  <NssNH2>
0

>  <NdNH>
0

>  <NssNH>
0

>  <NaaNH>
1

>  <NtN>
0

>  <NsssNH>
0

>  <NdsN>
0

>  <NaaN>
0

>  <NsssN>
0

>  <NddsN>
0

>  <NaasN>
1

>  <NssssN>
0

>  <NsOH>
0

>  <NdO>
2

>  <NssO>
1

>  <NaaO>
0

>  <NsF>
0

>  <NsSiH3>
0

>  <NssSiH2>
0

>  <NsssSiH>
0

>  <NssssSi>
0

>  <NsPH2>
0

>  <NssPH>
0

>  <NsssP>
0

>  <NdsssP>
0

>  <NsssssP>
0

>  <NsSH>
0

>  <NdS>
0

>  <NssS>
0

>  <NaaS>
1

>  <NdssS>
0

>  <NddssS>
0

>  <NsCl>
2

>  <NsBr>
0

>  <NsI>
0

>  <fragCpx>
129.08

>  <fMF>
0.48

>  <nHBAcc>
4

>  <nHBDon>
1

>  <Kier1>
19.75

>  <Kier2>
8.35

>  <Lipinski>
1

>  <GhoseFilter>
1

>  <FilterItLogS>
-6.02

>  <VMcGowan>
263.96

>  <LabuteASA>
157.33

>  <PEOE_VSA1>
9.72

>  <PEOE_VSA2>
4.79

>  <PEOE_VSA3>
4.79

>  <PEOE_VSA4>
4.57

>  <PEOE_VSA5>
0

>  <PEOE_VSA6>
34.54

>  <PEOE_VSA7>
12.13

>  <PEOE_VSA8>
24.43

>  <PEOE_VSA9>
27.41

>  <PEOE_VSA10>
12.74

>  <PEOE_VSA11>
11.12

>  <PEOE_VSA12>
5.51

>  <PEOE_VSA13>
0

>  <SMR_VSA1>
14.1

>  <SMR_VSA2>
0

>  <SMR_VSA3>
4.98

>  <SMR_VSA4>
7.05

>  <SMR_VSA5>
13.34

>  <SMR_VSA6>
6.61

>  <SMR_VSA7>
60.24

>  <SMR_VSA8>
0

>  <SMR_VSA9>
0

>  <SlogP_VSA1>
10

>  <SlogP_VSA2>
17.56

>  <SlogP_VSA3>
18.21

>  <SlogP_VSA4>
6.92

>  <SlogP_VSA5>
21.06

>  <SlogP_VSA6>
28.5

>  <SlogP_VSA7>
10.05

>  <SlogP_VSA8>
10.9

>  <SlogP_VSA9>
0

>  <SlogP_VSA10>
0

>  <SlogP_VSA11>
0

>  <EState_VSA1>
5.97

>  <EState_VSA2>
22.75

>  <EState_VSA3>
22.35

>  <EState_VSA4>
10.57

>  <EState_VSA5>
12.13

>  <EState_VSA6>
17.4

>  <EState_VSA7>
24.05

>  <EState_VSA8>
4.98

>  <EState_VSA9>
27.94

>  <EState_VSA10>
9.59

>  <VSA_EState1>
7.31

>  <VSA_EState2>
28.47

>  <VSA_EState3>
0.91

>  <VSA_EState4>
3.26

>  <VSA_EState5>
-0.59

>  <VSA_EState6>
4.23

>  <VSA_EState7>
0.62

>  <VSA_EState8>
2.25

>  <VSA_EState9>
1.97

>  <apol>
50.26

>  <bpol>
24.28

>  <nRing>
3

>  <nHRing>
2

>  <naRing>
3

>  <naHRing>
2

>  <nARing 2>
0

>  <nAHRing 2>
0

>  <nFRing>
1

>  <nFHRing>
1

>  <nFaRing>
1

>  <nFaHRing>
1

>  <nFARing 2>
0

>  <nFAHRing 2>
0

>  <nRot>
4

>  <SLogP>
3.43

>  <SMR>
98.81

>  <TopoPSA(NO)>
63.04

>  <TopoPSA>
91.28

>  <JGI1>
0.22

>  <JGI2>
0.09

>  <JGI3>
0.07

>  <JGI4>
0.05

>  <JGI5>
0.03

>  <Diameter>
13

>  <Radius>
7

>  <TMWC10>
127.58

>  <TSRW10>
73.8

>  <MW>
397.02

>  <AMW>
9.93

>  <WPath>
1650

>  <WPol>
40

>  <Zagreb1>
132

>  <Zagreb2>
156

>  <mZagreb2>
5.42

>  <yes>


>  <nAR-cont>
0.336376

>  <nHA-cont>
0.921834225

>  <MWHBN>
0.250936486

>  <MWHBN-cont>
0.958188585

>  <TPSA-cont>
0.362808919

>  <pka_cont>
0.97

>  <yes.1>


>  <BBB_SCORE>
3.90611094

>  <MMFF94 Energy>
70.661

$$$$
Compound 129
Actelion Java MolfileCreator 2.0

  0  0  0  0  0  0              0 V3000
M  V30 BEGIN CTAB
M  V30 COUNTS 46 49 0 0 0
M  V30 BEGIN ATOM
M  V30 1 F 1.0477 -0.4028 3.388 0
M  V30 2 C 0.2534 -0.1089 2.3447 0
M  V30 3 C 0.6999 -0.3474 1.0281 0
M  V30 4 C -1.01 0.3927 2.632 0
M  V30 5 N 1.9761 -0.869 0.8138 0
M  V30 6 C -0.2149 -0.0345 -0.0105 0
M  V30 7 C -1.8942 0.6644 1.5898 0
M  V30 8 C 2.2615 -1.7785 -0.3026 0
M  V30 9 C 3.1344 -0.1465 1.3645 0
M  V30 10 O 0.217 -0.2169 -1.31 0
M  V30 11 C -1.5218 0.454 0.252 0
M  V30 12 C -3.2489 1.1778 1.9116 0
M  V30 13 C 3.471 -2.6892 0.0241 0
M  V30 14 C 4.3161 -1.1103 1.6274 0
M  V30 15 C -0.4767 0.622 -2.2307 0
M  V30 16 N -2.4579 0.7285 -0.7827 0
M  V30 17 O -3.5241 1.4738 3.0688 0
M  V30 18 C -4.218 1.3208 0.798 0
M  V30 19 N 4.6887 -1.9933 0.4984 0
M  V30 20 C -1.9885 0.3916 -2.1456 0 CFG=1
M  V30 21 C -3.7531 1.0828 -0.4396 0
M  V30 22 C -5.6309 1.6751 1.0292 0
M  V30 23 C 5.3365 -1.247 -0.5769 0
M  V30 24 C -2.67 1.2248 -3.2333 0
M  V30 25 O -6.2372 1.6459 2.0838 0
M  V30 26 O -6.2743 2.0605 -0.093 0
M  V30 27 H -1.2962 0.547 3.6689 0
M  V30 28 H 1.401 -2.429 -0.5016 0
M  V30 29 H 2.4769 -1.2044 -1.2108 0
M  V30 30 H 2.903 0.3663 2.3038 0
M  V30 31 H 3.4357 0.6316 0.6525 0
M  V30 32 H 3.1676 -3.3956 0.8086 0
M  V30 33 H 3.7101 -3.3066 -0.8504 0
M  V30 34 H 4.0514 -1.754 2.4771 0
M  V30 35 H 5.1908 -0.5353 1.9556 0
M  V30 36 H -0.2059 1.6704 -2.0446 0
M  V30 37 H -0.11 0.3665 -3.2312 0
M  V30 38 H -2.1995 -0.6714 -2.321 0
M  V30 39 H -4.4262 1.1514 -1.2887 0
M  V30 40 H 5.6354 -1.926 -1.3832 0
M  V30 41 H 4.7041 -0.4654 -1.0093 0
M  V30 42 H 6.2555 -0.7756 -0.2112 0
M  V30 43 H -2.2117 1.0397 -4.2109 0
M  V30 44 H -2.5968 2.2972 -3.0212 0
M  V30 45 H -3.7299 0.9693 -3.3295 0
M  V30 46 H -7.1756 2.2684 0.2354 0
M  V30 END ATOM
M  V30 BEGIN BOND
M  V30 1 1 1 2
M  V30 2 2 2 3
M  V30 3 1 2 4
M  V30 4 1 3 5
M  V30 5 1 3 6
M  V30 6 2 4 7
M  V30 7 1 5 8
M  V30 8 1 5 9
M  V30 9 1 6 10
M  V30 10 2 6 11
M  V30 11 1 7 12
M  V30 12 1 8 13
M  V30 13 1 9 14
M  V30 14 1 10 15
M  V30 15 1 11 16
M  V30 16 2 12 17
M  V30 17 1 12 18
M  V30 18 1 13 19
M  V30 19 1 15 20
M  V30 20 1 16 21
M  V30 21 1 18 22
M  V30 22 1 19 23
M  V30 23 1 20 24
M  V30 24 2 22 25
M  V30 25 1 22 26
M  V30 26 1 7 11
M  V30 27 1 14 19
M  V30 28 1 16 20
M  V30 29 2 18 21
M  V30 30 1 4 27
M  V30 31 1 8 28
M  V30 32 1 8 29
M  V30 33 1 9 30
M  V30 34 1 9 31
M  V30 35 1 13 32
M  V30 36 1 13 33
M  V30 37 1 14 34
M  V30 38 1 14 35
M  V30 39 1 15 36
M  V30 40 1 15 37
M  V30 41 1 20 38
M  V30 42 1 21 39
M  V30 43 1 23 40
M  V30 44 1 23 41
M  V30 45 1 23 42
M  V30 46 1 24 43
M  V30 47 1 24 44
M  V30 48 1 24 45
M  V30 49 1 26 46
M  V30 END BOND
M  V30 BEGIN COLLECTION
M  V30 MDLV30/STERAC1 ATOMS=(1 20)
M  V30 END COLLECTION
M  V30 END CTAB
M  END
>  <Column 1>
168

>  <level_0>
193

>  <index>
193

>  <Unnamed: 0>
193

>  <NO.>
194

>  <Name>
ofloxacin

>  <IUPAC_name>
7-fluoro-2-methyl-6-(4-methylpiperazin-1-yl)-10-oxo-4-oxa-1-azatricyclo[7.3.1.05-13]trideca-5(13)-6-8-11-tetraene-11-carboxylic acid

>  <SMILES>
CC1COc2c(N3CCN(C)CC3)c(F)cc3c(=O)c(C(=O)O)cn1c23

>  <CID>
4583

>  <logBB>
-0.76

>  <BBB+/BBB->
BBB+

>  <Inchi>
InChI=1S/C18H20FN3O4/c1-10-9-26-17-14-11(16(23)12(18(24)25)8-22(10)14)7-13(19)15(17)21-5-3-20(2)4-6-21/h7-8-10H-3-6-9H2-1-2H3-(H-24-25)

>  <threshold>


>  <reference>
R2|R2|R25|R46|

>  <group>
A

>  <Class>
1

>  <ABC>
20.76

>  <ABCGG>
16.16

>  <nAcid>
1

>  <nBase>
1

>  <nAromAtom>
10

>  <nAromBond>
11

>  <nAtom>
46

>  <nHeavyAtom>
26

>  <nSpiro>
0

>  <nBridgehead>
0

>  <nHetero>
8

>  <nN>
3

>  <nO>
4

>  <nF>
1

>  <BalabanJ>
1.61

>  <BertzCT>
963.29

>  <nBonds>
49

>  <nBondsO>
29

>  <nBondsS>
36

>  <nBondsD>
2

>  <nBondsT>
0

>  <nBondsA>
11

>  <nBondsM>
13

>  <nBondsKS>
43

>  <nBondsKD>
6

>  <RNCG>
0.18

>  <RPCG>
0.12

>  <FCSP3>
0.44

>  <SZ>
31.67

>  <Sm>
30.09

>  <Sv>
29.2

>  <Sse>
47.15

>  <Sp>
30.22

>  <Si>
52.41

>  <MZ>
0.69

>  <Mm>
0.65

>  <Mv>
0.63

>  <Mse>
1.02

>  <Mp>
0.66

>  <Mi>
1.14

>  <NsCH3>
2

>  <NdCH2>
0

>  <NssCH2>
5

>  <NtCH>
0

>  <NdsCH>
0

>  <NaaCH>
2

>  <NsssCH>
1

>  <NddC>
0

>  <NtsC>
0

>  <NdssC>
1

>  <NaasC>
4

>  <NaaaC>
2

>  <NssssC>
0

>  <NsNH3>
0

>  <NsNH2>
0

>  <NssNH2>
0

>  <NdNH>
0

>  <NssNH>
0

>  <NaaNH>
0

>  <NtN>
0

>  <NsssNH>
0

>  <NdsN>
0

>  <NaaN>
0

>  <NsssN>
2

>  <NddsN>
0

>  <NaasN>
1

>  <NssssN>
0

>  <NsOH>
1

>  <NdO>
2

>  <NssO>
1

>  <NaaO>
0

>  <NsF>
1

>  <NsSiH3>
0

>  <NssSiH2>
0

>  <NsssSiH>
0

>  <NssssSi>
0

>  <NsPH2>
0

>  <NssPH>
0

>  <NsssP>
0

>  <NdsssP>
0

>  <NsssssP>
0

>  <NsSH>
0

>  <NdS>
0

>  <NssS>
0

>  <NaaS>
0

>  <NdssS>
0

>  <NddssS>
0

>  <NsCl>
0

>  <NsBr>
0

>  <NsI>
0

>  <fragCpx>
191.08

>  <fMF>
0.41

>  <nHBAcc>
6

>  <nHBDon>
1

>  <Kier1>
19.32

>  <Kier2>
7.44

>  <Lipinski>
1

>  <GhoseFilter>
1

>  <FilterItLogS>
-2.7

>  <VMcGowan>
250.42

>  <LabuteASA>
148.73

>  <PEOE_VSA1>
24.21

>  <PEOE_VSA2>
4.79

>  <PEOE_VSA3>
9.18

>  <PEOE_VSA4>
0

>  <PEOE_VSA5>
0

>  <PEOE_VSA6>
0

>  <PEOE_VSA7>
20.04

>  <PEOE_VSA8>
32.38

>  <PEOE_VSA9>
16.94

>  <PEOE_VSA10>
17.86

>  <PEOE_VSA11>
11.57

>  <PEOE_VSA12>
5.43

>  <PEOE_VSA13>
0

>  <SMR_VSA1>
19.03

>  <SMR_VSA2>
0

>  <SMR_VSA3>
9.47

>  <SMR_VSA4>
0

>  <SMR_VSA5>
12.97

>  <SMR_VSA6>
44.73

>  <SMR_VSA7>
33.87

>  <SMR_VSA8>
0

>  <SMR_VSA9>
5.75

>  <SlogP_VSA1>
15.07

>  <SlogP_VSA2>
60.38

>  <SlogP_VSA3>
0

>  <SlogP_VSA4>
5.82

>  <SlogP_VSA5>
23.32

>  <SlogP_VSA6>
17.06

>  <SlogP_VSA7>
0

>  <SlogP_VSA8>
10.9

>  <SlogP_VSA9>
0

>  <SlogP_VSA10>
10.08

>  <SlogP_VSA11>
5.75

>  <EState_VSA1>
17.22

>  <EState_VSA2>
23.6

>  <EState_VSA3>
30.04

>  <EState_VSA4>
19.16

>  <EState_VSA5>
6.2

>  <EState_VSA6>
4.57

>  <EState_VSA7>
18.87

>  <EState_VSA8>
4.9

>  <EState_VSA9>
4.74

>  <EState_VSA10>
19.09

>  <VSA_EState1>
22.56

>  <VSA_EState2>
28.09

>  <VSA_EState3>
9.36

>  <VSA_EState4>
-0.22

>  <VSA_EState5>
-1.54

>  <VSA_EState6>
0.99

>  <VSA_EState7>
1.34

>  <VSA_EState8>
5.08

>  <VSA_EState9>
2.02

>  <apol>
50.46

>  <bpol>
29.78

>  <nRing>
4

>  <nHRing>
3

>  <naRing>
2

>  <naHRing>
1

>  <nARing 2>
2

>  <nAHRing 2>
2

>  <nFRing>
1

>  <nFHRing>
1

>  <nFaRing>
0

>  <nFaHRing>
0

>  <nFARing 2>
1

>  <nFAHRing 2>
1

>  <nRot>
2

>  <SLogP>
1.54

>  <SMR>
95.04

>  <TopoPSA(NO)>
75.01

>  <TopoPSA>
75.01

>  <JGI1>
0.19

>  <JGI2>
0.09

>  <JGI3>
0.05

>  <JGI4>
0.06

>  <JGI5>
0.03

>  <Diameter>
12

>  <Radius>
6

>  <TMWC10>
133.23

>  <TSRW10>
61.86

>  <MW>
361.14

>  <AMW>
7.85

>  <WPath>
1484

>  <WPol>
51

>  <Zagreb1>
146

>  <Zagreb2>
180

>  <mZagreb2>
5.53

>  <yes>


>  <nAR-cont>
1

>  <nHA-cont>
0.892715677

>  <MWHBN>
0.368349634

>  <MWHBN-cont>
0.600269047

>  <TPSA-cont>
0.476383622

>  <pka_cont>
0.97

>  <yes.1>


>  <BBB_SCORE>
4.230886491

>  <MMFF94 Energy>
170.05

$$$$
Compound 130
Actelion Java MolfileCreator 2.0

  0  0  0  0  0  0              0 V3000
M  V30 BEGIN CTAB
M  V30 COUNTS 92 96 0 0 0
M  V30 BEGIN ATOM
M  V30 1 O -3.1015 -0.3177 1.192 0
M  V30 2 C -3.1494 0.7043 0.5136 0
M  V30 3 N -3.1309 1.9801 1.053 0
M  V30 4 C -3.2101 0.6824 -1.027 0
M  V30 5 C -3.097 2.2895 2.4922 0
M  V30 6 N -1.8954 0.2811 -1.6257 0
M  V30 7 C -4.3365 -0.3071 -1.4263 0
M  V30 8 C -4.3341 1.721 3.2049 0
M  V30 9 C -1.8148 1.752 3.1456 0
M  V30 10 C -3.1096 3.8218 2.6486 0
M  V30 11 C -2.0734 0.1786 -3.0934 0
M  V30 12 C -0.8031 1.2281 -1.3057 0
M  V30 13 N -4.5084 -0.392 -2.8948 0
M  V30 14 C -3.2157 -0.7815 -3.4972 0
M  V30 15 C 0.0785 0.6558 -0.1728 0
M  V30 16 C -5.5701 -1.358 -3.2241 0
M  V30 17 O 0.5284 -0.6488 -0.5594 0
M  V30 18 C 1.278 1.5682 0.1206 0
M  V30 19 C -5.9737 -1.3249 -4.6758 0
M  V30 20 C 2.206 0.9784 1.2092 0
M  V30 21 C -6.4549 -0.1561 -5.2594 0
M  V30 22 C -5.9017 -2.4623 -5.4848 0
M  V30 23 C 3.4502 0.3901 0.536 0
M  V30 24 C 2.593 2.0477 2.2492 0
M  V30 25 N -6.8512 -0.055 -6.5495 0
M  V30 26 C -6.2999 -2.388 -6.8168 0
M  V30 27 O 4.5425 0.9486 0.5375 0
M  V30 28 N 3.2046 -0.7913 -0.1165 0
M  V30 29 C 3.0544 1.4391 3.556 0
M  V30 30 C -6.7632 -1.1745 -7.2977 0
M  V30 31 C 4.2075 -1.6498 -0.7154 0
M  V30 32 C 2.122 1.0852 4.5418 0
M  V30 33 C 4.4125 1.1887 3.788 0
M  V30 34 C 5.0291 -2.3775 0.3112 0
M  V30 35 C 5.2853 -0.9471 -1.5916 0
M  V30 36 C 2.5422 0.5007 5.7377 0
M  V30 37 C 4.8309 0.6011 4.9827 0
M  V30 38 C 6.3779 -2.0214 0.236 0
M  V30 39 C 4.5884 -3.2972 1.2529 0
M  V30 40 O 5.4363 -1.6635 -2.8338 0
M  V30 41 C 6.616 -0.9743 -0.808 0
M  V30 42 C 3.8966 0.2591 5.9581 0
M  V30 43 C 7.311 -2.5711 1.1018 0
M  V30 44 C 5.5223 -3.8615 2.1238 0
M  V30 45 C 6.8756 -3.5013 2.0478 0
M  V30 46 H -3.178 2.7637 0.4139 0
M  V30 47 H -3.4867 1.6816 -1.3922 0
M  V30 48 H -4.1298 -1.3034 -1.0102 0
M  V30 49 H -5.2756 0.0374 -0.9736 0
M  V30 50 H -4.3507 0.6267 3.1873 0
M  V30 51 H -4.3616 2.0296 4.2562 0
M  V30 52 H -5.2573 2.0693 2.7276 0
M  V30 53 H -1.7555 2.045 4.2 0
M  V30 54 H -1.7605 0.6596 3.1085 0
M  V30 55 H -0.9243 2.1418 2.6401 0
M  V30 56 H -4.0093 4.2573 2.1981 0
M  V30 57 H -2.2448 4.2762 2.151 0
M  V30 58 H -3.0848 4.1179 3.7033 0
M  V30 59 H -1.1472 -0.1992 -3.5438 0
M  V30 60 H -2.2677 1.1705 -3.5241 0
M  V30 61 H -1.1759 2.2291 -1.0591 0
M  V30 62 H -0.1541 1.3485 -2.1837 0
M  V30 63 H -3.2888 -0.766 -4.5907 0
M  V30 64 H -2.9438 -1.8038 -3.2011 0
M  V30 65 H -0.5014 0.5319 0.745 0
M  V30 66 H -5.2741 -2.3746 -2.9323 0
M  V30 67 H -6.4743 -1.1256 -2.645 0
M  V30 68 H -0.2884 -1.0836 -0.8888 0
M  V30 69 H 1.8457 1.7298 -0.8048 0
M  V30 70 H 0.8904 2.5473 0.427 0
M  V30 71 H 1.6891 0.1602 1.7293 0
M  V30 72 H -6.5332 0.7634 -4.6847 0
M  V30 73 H -5.537 -3.4051 -5.086 0
M  V30 74 H 3.3616 2.7293 1.8637 0
M  V30 75 H 1.7271 2.6837 2.4766 0
M  V30 76 H -6.2519 -3.2561 -7.4643 0
M  V30 77 H 2.2303 -1.086 -0.1946 0
M  V30 78 H -7.086 -1.0679 -8.3292 0
M  V30 79 H 3.6619 -2.3862 -1.3183 0
M  V30 80 H 1.0607 1.2573 4.3823 0
M  V30 81 H 5.1549 1.4378 3.0318 0
M  V30 82 H 5.002 0.0722 -1.8736 0
M  V30 83 H 1.8122 0.2281 6.495 0
M  V30 84 H 5.887 0.4039 5.1454 0
M  V30 85 H 3.5394 -3.5677 1.3179 0
M  V30 86 H 6.148 -1.2226 -3.3282 0
M  V30 87 H 6.8026 -0.0143 -0.3169 0
M  V30 88 H 7.4668 -1.2375 -1.4437 0
M  V30 89 H 4.2243 -0.2013 6.8859 0
M  V30 90 H 8.3555 -2.2808 1.055 0
M  V30 91 H 5.1972 -4.5802 2.8716 0
M  V30 92 H 7.5892 -3.9438 2.7379 0
M  V30 END ATOM
M  V30 BEGIN BOND
M  V30 1 2 1 2
M  V30 2 1 2 3
M  V30 3 1 2 4
M  V30 4 1 3 5
M  V30 5 1 4 6
M  V30 6 1 4 7
M  V30 7 1 5 8
M  V30 8 1 5 9
M  V30 9 1 5 10
M  V30 10 1 6 11
M  V30 11 1 6 12
M  V30 12 1 7 13
M  V30 13 1 11 14
M  V30 14 1 12 15
M  V30 15 1 13 16
M  V30 16 1 15 17
M  V30 17 1 15 18
M  V30 18 1 16 19
M  V30 19 1 18 20
M  V30 20 2 19 21
M  V30 21 1 19 22
M  V30 22 1 20 23
M  V30 23 1 20 24
M  V30 24 1 21 25
M  V30 25 2 22 26
M  V30 26 2 23 27
M  V30 27 1 23 28
M  V30 28 1 24 29
M  V30 29 2 25 30
M  V30 30 1 28 31
M  V30 31 2 29 32
M  V30 32 1 29 33
M  V30 33 1 31 34
M  V30 34 1 31 35
M  V30 35 1 32 36
M  V30 36 2 33 37
M  V30 37 2 34 38
M  V30 38 1 34 39
M  V30 39 1 35 40
M  V30 40 1 35 41
M  V30 41 2 36 42
M  V30 42 1 38 43
M  V30 43 2 39 44
M  V30 44 2 43 45
M  V30 45 1 13 14
M  V30 46 1 26 30
M  V30 47 1 37 42
M  V30 48 1 38 41
M  V30 49 1 44 45
M  V30 50 1 3 46
M  V30 51 1 4 47
M  V30 52 1 7 48
M  V30 53 1 7 49
M  V30 54 1 8 50
M  V30 55 1 8 51
M  V30 56 1 8 52
M  V30 57 1 9 53
M  V30 58 1 9 54
M  V30 59 1 9 55
M  V30 60 1 10 56
M  V30 61 1 10 57
M  V30 62 1 10 58
M  V30 63 1 11 59
M  V30 64 1 11 60
M  V30 65 1 12 61
M  V30 66 1 12 62
M  V30 67 1 14 63
M  V30 68 1 14 64
M  V30 69 1 15 65
M  V30 70 1 16 66
M  V30 71 1 16 67
M  V30 72 1 17 68
M  V30 73 1 18 69
M  V30 74 1 18 70
M  V30 75 1 20 71
M  V30 76 1 21 72
M  V30 77 1 22 73
M  V30 78 1 24 74
M  V30 79 1 24 75
M  V30 80 1 26 76
M  V30 81 1 28 77
M  V30 82 1 30 78
M  V30 83 1 31 79
M  V30 84 1 32 80
M  V30 85 1 33 81
M  V30 86 1 35 82
M  V30 87 1 36 83
M  V30 88 1 37 84
M  V30 89 1 39 85
M  V30 90 1 40 86
M  V30 91 1 41 87
M  V30 92 1 41 88
M  V30 93 1 42 89
M  V30 94 1 43 90
M  V30 95 1 44 91
M  V30 96 1 45 92
M  V30 END BOND
M  V30 END CTAB
M  END
>  <Column 1>
169

>  <level_0>
194

>  <index>
194

>  <Unnamed: 0>
194

>  <NO.>
195

>  <Name>
indinavir

>  <IUPAC_name>
1-[4-benzyl-2-hydroxy-5-[(2-hydroxy-2-3-dihydro-1h-inden-1-yl)amino]-5-oxopentyl]-n-tert-butyl-4-(pyridin-3-ylmethyl)piperazine-2-carboxamide

>  <SMILES>
CC(C)(C)NC(=O)C1CN(Cc2cccnc2)CCN1CC(O)CC(Cc1ccccc1)C(=O)NC1c2ccccc2CC1O

>  <CID>
3706

>  <logBB>
-0.74

>  <BBB+/BBB->
BBB+

>  <Inchi>
InChI=1S/C36H47N5O4/c1-36(2-3)39-35(45)31-24-40(22-26-12-9-15-37-21-26)16-17-41(31)23-29(42)19-28(18-25-10-5-4-6-11-25)34(44)38-33-30-14-8-7-13-27(30)20-32(33)43/h4-15-21-28-29-31-33-42-43H-16-20-22-24H2-1-3H3-(H-38-44)(H-39-45)

>  <threshold>


>  <reference>
R46|R2|R2|R12|R25|R35|R41|R3|R38|R40|R27|R36|R43|R47|R4|

>  <group>
A

>  <Class>
1

>  <ABC>
35.32

>  <ABCGG>
26.67

>  <nAcid>
0

>  <nBase>
2

>  <nAromAtom>
18

>  <nAromBond>
18

>  <nAtom>
92

>  <nHeavyAtom>
45

>  <nSpiro>
0

>  <nBridgehead>
0

>  <nHetero>
9

>  <nN>
5

>  <nO>
4

>  <nF>
0

>  <BalabanJ>
1.22

>  <BertzCT>
1413.7

>  <nBonds>
96

>  <nBondsO>
49

>  <nBondsS>
76

>  <nBondsD>
2

>  <nBondsT>
0

>  <nBondsA>
18

>  <nBondsM>
20

>  <nBondsKS>
85

>  <nBondsKD>
11

>  <RNCG>
0.1

>  <RPCG>
0.06

>  <FCSP3>
0.47

>  <SZ>
55

>  <Sm>
51.1

>  <Sv>
55.38

>  <Sse>
91.5

>  <Sp>
59.98

>  <Si>
104.05

>  <MZ>
0.6

>  <Mm>
0.56

>  <Mv>
0.6

>  <Mse>
0.99

>  <Mp>
0.65

>  <Mi>
1.13

>  <NsCH3>
3

>  <NdCH2>
0

>  <NssCH2>
8

>  <NtCH>
0

>  <NdsCH>
0

>  <NaaCH>
13

>  <NsssCH>
5

>  <NddC>
0

>  <NtsC>
0

>  <NdssC>
2

>  <NaasC>
4

>  <NaaaC>
0

>  <NssssC>
1

>  <NsNH3>
0

>  <NsNH2>
0

>  <NssNH2>
0

>  <NdNH>
0

>  <NssNH>
2

>  <NaaNH>
0

>  <NtN>
0

>  <NsssNH>
0

>  <NdsN>
0

>  <NaaN>
1

>  <NsssN>
2

>  <NddsN>
0

>  <NaasN>
0

>  <NssssN>
0

>  <NsOH>
2

>  <NdO>
2

>  <NssO>
0

>  <NaaO>
0

>  <NsF>
0

>  <NsSiH3>
0

>  <NssSiH2>
0

>  <NsssSiH>
0

>  <NssssSi>
0

>  <NsPH2>
0

>  <NssPH>
0

>  <NsssP>
0

>  <NdsssP>
0

>  <NsssssP>
0

>  <NsSH>
0

>  <NdS>
0

>  <NssS>
0

>  <NaaS>
0

>  <NdssS>
0

>  <NddssS>
0

>  <NsCl>
0

>  <NsBr>
0

>  <NsI>
0

>  <fragCpx>
421.09

>  <fMF>
0.38

>  <nHBAcc>
7

>  <nHBDon>
4

>  <Kier1>
36.28

>  <Kier2>
17.09

>  <Lipinski>
0

>  <GhoseFilter>
0

>  <FilterItLogS>
-6.47

>  <VMcGowan>
489.88

>  <LabuteASA>
266.22

>  <PEOE_VSA1>
20.85

>  <PEOE_VSA2>
24.37

>  <PEOE_VSA3>
0

>  <PEOE_VSA4>
0

>  <PEOE_VSA5>
0

>  <PEOE_VSA6>
60.66

>  <PEOE_VSA7>
61.93

>  <PEOE_VSA8>
63

>  <PEOE_VSA9>
18.25

>  <PEOE_VSA10>
6.04

>  <PEOE_VSA11>
0

>  <PEOE_VSA12>
11.81

>  <PEOE_VSA13>
0

>  <SMR_VSA1>
19.8

>  <SMR_VSA2>
0

>  <SMR_VSA3>
25.42

>  <SMR_VSA4>
5.92

>  <SMR_VSA5>
76.41

>  <SMR_VSA6>
26.18

>  <SMR_VSA7>
101.38

>  <SMR_VSA8>
0

>  <SMR_VSA9>
0

>  <SlogP_VSA1>
10.63

>  <SlogP_VSA2>
86.78

>  <SlogP_VSA3>
28.98

>  <SlogP_VSA4>
5.92

>  <SlogP_VSA5>
55.49

>  <SlogP_VSA6>
79.12

>  <SlogP_VSA7>
0

>  <SlogP_VSA8>
0

>  <SlogP_VSA9>
0

>  <SlogP_VSA10>
0

>  <SlogP_VSA11>
0

>  <EState_VSA1>
35.75

>  <EState_VSA2>
24.78

>  <EState_VSA3>
32.48

>  <EState_VSA4>
28.8

>  <EState_VSA5>
0

>  <EState_VSA6>
6.2

>  <EState_VSA7>
93.7

>  <EState_VSA8>
25.42

>  <EState_VSA9>
0

>  <EState_VSA10>
19.8

>  <VSA_EState1>
0

>  <VSA_EState2>
35.89

>  <VSA_EState3>
28.51

>  <VSA_EState4>
3.68

>  <VSA_EState5>
-0.78

>  <VSA_EState6>
20.63

>  <VSA_EState7>
3.26

>  <VSA_EState8>
8.74

>  <VSA_EState9>
0

>  <apol>
100.17

>  <bpol>
54.59

>  <nRing>
5

>  <nHRing>
2

>  <naRing>
3

>  <naHRing>
1

>  <nARing 2>
2

>  <nAHRing 2>
1

>  <nFRing>
1

>  <nFHRing>
0

>  <nFaRing>
0

>  <nFaHRing>
0

>  <nFARing 2>
1

>  <nFAHRing 2>
0

>  <nRot>
11

>  <SLogP>
2.87

>  <SMR>
174.07

>  <TopoPSA(NO)>
118.03

>  <TopoPSA>
118.03

>  <JGI1>
0.21

>  <JGI2>
0.06

>  <JGI3>
0.05

>  <JGI4>
0.04

>  <JGI5>
0.02

>  <Diameter>
19

>  <Radius>
10

>  <TMWC10>
174.33

>  <TSRW10>
96.87

>  <MW>
613.36

>  <AMW>
6.67

>  <WPath>
7788

>  <WPol>
68

>  <Zagreb1>
236

>  <Zagreb2>
272

>  <mZagreb2>
9.71

>  <yes>


>  <nAR-cont>
1

>  <nHA-cont>
0.154890577

>  <MWHBN>
0.444155414

>  <MWHBN-cont>
0.307034521

>  <TPSA-cont>
0.176077308

>  <pka_cont>
0.97

>  <yes.1>


>  <BBB_SCORE>
2.452596974

>  <MMFF94 Energy>
184.85

$$$$
Compound 131
Actelion Java MolfileCreator 2.0

  0  0  0  0  0  0              0 V3000
M  V30 BEGIN CTAB
M  V30 COUNTS 55 57 0 0 0
M  V30 BEGIN ATOM
M  V30 1 S -0.8784 -1.5975 3.8374 0
M  V30 2 C -0.823 0.2277 3.7945 0
M  V30 3 C 0.3334 -2.0032 2.5115 0
M  V30 4 C 0.5377 0.7513 4.0559 0
M  V30 5 C -0.0406 -1.4798 1.1163 0
M  V30 6 O 1.3032 0.9987 2.957 0
M  V30 7 C 1.2489 1.0482 5.1998 0
M  V30 8 N -1.3811 -1.9238 0.7393 0
M  V30 9 C 2.5269 1.4076 3.3951 0
M  V30 10 C 2.5313 1.475 4.7733 0
M  V30 11 C -1.8885 -1.8343 -0.5141 0
M  V30 12 C 3.5483 1.6802 2.3426 0
M  V30 13 N -3.1641 -2.3165 -0.6967 0
M  V30 14 C -1.4594 -1.3852 -1.758 0
M  V30 15 N 4.093 0.4411 1.7543 0
M  V30 16 C -3.5361 -2.229 -2.0099 0
M  V30 17 N -0.1887 -0.7896 -2.0579 0 CHG=1
M  V30 18 C -2.5025 -1.6421 -2.7179 0
M  V30 19 C 4.9747 -0.2602 2.6876 0
M  V30 20 C 4.8124 0.749 0.518 0
M  V30 21 O 0.4854 -1.3391 -2.941 0
M  V30 22 O 0.1255 0.2361 -1.441 0 CHG=-1
M  V30 23 C -2.4911 -1.3633 -4.1889 0
M  V30 24 C -2.7371 0.1174 -4.3496 0
M  V30 25 C -1.6852 0.9801 -4.6937 0
M  V30 26 C -4.0207 0.6589 -4.172 0
M  V30 27 C -1.9091 2.3501 -4.8426 0
M  V30 28 C -4.2426 2.0288 -4.3231 0
M  V30 29 C -3.1867 2.874 -4.6567 0
M  V30 30 H -1.5084 0.5937 4.5666 0
M  V30 31 H -1.212 0.5853 2.8363 0
M  V30 32 H 1.331 -1.6604 2.8012 0
M  V30 33 H 0.3804 -3.0978 2.4764 0
M  V30 34 H 0.009 -0.3879 1.0903 0
M  V30 35 H 0.6984 -1.8694 0.4068 0
M  V30 36 H 0.8918 0.9478 6.2153 0
M  V30 37 H -1.938 -2.2421 1.5339 0
M  V30 38 H 3.3651 1.7734 5.3929 0
M  V30 39 H 3.0502 2.2712 1.5621 0
M  V30 40 H 4.3505 2.3106 2.7477 0
M  V30 41 H -3.7294 -2.7098 0.0416 0
M  V30 42 H -4.5059 -2.5867 -2.331 0
M  V30 43 H 4.4323 -0.5828 3.5825 0
M  V30 44 H 5.8231 0.3592 3.0006 0
M  V30 45 H 5.3701 -1.1732 2.2278 0
M  V30 46 H 5.6598 1.4228 0.6897 0
M  V30 47 H 4.1423 1.2148 -0.2134 0
M  V30 48 H 5.1896 -0.1684 0.0524 0
M  V30 49 H -3.2776 -1.927 -4.7052 0
M  V30 50 H -1.5414 -1.6643 -4.6434 0
M  V30 51 H -0.6796 0.5923 -4.8461 0
M  V30 52 H -4.8558 0.0135 -3.9086 0
M  V30 53 H -1.0836 3.0084 -5.1012 0
M  V30 54 H -5.2394 2.4367 -4.1773 0
M  V30 55 H -3.3582 3.9411 -4.7706 0
M  V30 END ATOM
M  V30 BEGIN BOND
M  V30 1 1 1 2
M  V30 2 1 1 3
M  V30 3 1 2 4
M  V30 4 1 3 5
M  V30 5 1 4 6
M  V30 6 2 4 7
M  V30 7 1 5 8
M  V30 8 1 6 9
M  V30 9 1 7 10
M  V30 10 1 8 11
M  V30 11 1 9 12
M  V30 12 1 11 13
M  V30 13 2 11 14
M  V30 14 1 12 15
M  V30 15 1 13 16
M  V30 16 1 14 17
M  V30 17 1 14 18
M  V30 18 1 15 19
M  V30 19 1 15 20
M  V30 20 2 17 21
M  V30 21 1 17 22
M  V30 22 1 18 23
M  V30 23 1 23 24
M  V30 24 2 24 25
M  V30 25 1 24 26
M  V30 26 1 25 27
M  V30 27 2 26 28
M  V30 28 2 27 29
M  V30 29 2 9 10
M  V30 30 2 16 18
M  V30 31 1 28 29
M  V30 32 1 2 30
M  V30 33 1 2 31
M  V30 34 1 3 32
M  V30 35 1 3 33
M  V30 36 1 5 34
M  V30 37 1 5 35
M  V30 38 1 7 36
M  V30 39 1 8 37
M  V30 40 1 10 38
M  V30 41 1 12 39
M  V30 42 1 12 40
M  V30 43 1 13 41
M  V30 44 1 16 42
M  V30 45 1 19 43
M  V30 46 1 19 44
M  V30 47 1 19 45
M  V30 48 1 20 46
M  V30 49 1 20 47
M  V30 50 1 20 48
M  V30 51 1 23 49
M  V30 52 1 23 50
M  V30 53 1 25 51
M  V30 54 1 26 52
M  V30 55 1 27 53
M  V30 56 1 28 54
M  V30 57 1 29 55
M  V30 END BOND
M  V30 END CTAB
M  END
>  <Column 1>
170

>  <level_0>
195

>  <index>
195

>  <Unnamed: 0>
195

>  <NO.>
196

>  <Name>
chembl344991

>  <IUPAC_name>
4-benzyl-n-[2-[[5-[(dimethylamino)methyl]furan-2-yl]methylsulfanyl]ethyl]-3-nitro-1h-pyrrol-2-amine

>  <SMILES>
CN(C)Cc1ccc(CSCCNc2[nH]cc(Cc3ccccc3)c2[N+](=O)[O-])o1

>  <CID>
14022484

>  <logBB>
-0.73

>  <BBB+/BBB->
BBB+

>  <Inchi>
InChI=1S/C21H26N4O3S/c1-24(2)14-18-8-9-19(28-18)15-29-11-10-22-21-20(25(26)27)17(13-23-21)12-16-6-4-3-5-7-16/h3-9-13-22-23H-10-12-14-15H2-1-2H3

>  <threshold>


>  <reference>
R2|R2|R8|R40|R3|R12|R21|R25|R27|R36|R38|R41|R43|R46|R47|R48|R49|R49|R4|

>  <group>
A

>  <Class>
1

>  <ABC>
22.24

>  <ABCGG>
17.55

>  <nAcid>
0

>  <nBase>
1

>  <nAromAtom>
16

>  <nAromBond>
16

>  <nAtom>
55

>  <nHeavyAtom>
29

>  <nSpiro>
0

>  <nBridgehead>
0

>  <nHetero>
8

>  <nN>
4

>  <nO>
3

>  <nF>
0

>  <BalabanJ>
1.31

>  <BertzCT>
921.17

>  <nBonds>
57

>  <nBondsO>
31

>  <nBondsS>
40

>  <nBondsD>
1

>  <nBondsT>
0

>  <nBondsA>
16

>  <nBondsM>
17

>  <nBondsKS>
49

>  <nBondsKD>
8

>  <RNCG>
0.18

>  <RPCG>
0.12

>  <FCSP3>
0.33

>  <SZ>
36.67

>  <Sm>
34.51

>  <Sv>
34.41

>  <Sse>
55.26

>  <Sp>
37.19

>  <Si>
62.11

>  <MZ>
0.67

>  <Mm>
0.63

>  <Mv>
0.63

>  <Mse>
1

>  <Mp>
0.68

>  <Mi>
1.13

>  <NsCH3>
2

>  <NdCH2>
0

>  <NssCH2>
5

>  <NtCH>
0

>  <NdsCH>
0

>  <NaaCH>
8

>  <NsssCH>
0

>  <NddC>
0

>  <NtsC>
0

>  <NdssC>
0

>  <NaasC>
6

>  <NaaaC>
0

>  <NssssC>
0

>  <NsNH3>
0

>  <NsNH2>
0

>  <NssNH2>
0

>  <NdNH>
0

>  <NssNH>
1

>  <NaaNH>
1

>  <NtN>
0

>  <NsssNH>
0

>  <NdsN>
0

>  <NaaN>
0

>  <NsssN>
1

>  <NddsN>
1

>  <NaasN>
0

>  <NssssN>
0

>  <NsOH>
0

>  <NdO>
1

>  <NssO>
0

>  <NaaO>
1

>  <NsF>
0

>  <NsSiH3>
0

>  <NssSiH2>
0

>  <NsssSiH>
0

>  <NssssSi>
0

>  <NsPH2>
0

>  <NssPH>
0

>  <NsssP>
0

>  <NdsssP>
0

>  <NsssssP>
0

>  <NsSH>
0

>  <NdS>
0

>  <NssS>
1

>  <NaaS>
0

>  <NdssS>
0

>  <NddssS>
0

>  <NsCl>
0

>  <NsBr>
0

>  <NsI>
0

>  <fragCpx>
149.08

>  <fMF>
0.4

>  <nHBAcc>
6

>  <nHBDon>
2

>  <Kier1>
23.66

>  <Kier2>
12.14

>  <Lipinski>
1

>  <GhoseFilter>
1

>  <FilterItLogS>
-6.86

>  <VMcGowan>
313.65

>  <LabuteASA>
174.19

>  <PEOE_VSA1>
19.62

>  <PEOE_VSA2>
10.11

>  <PEOE_VSA3>
0

>  <PEOE_VSA4>
11.76

>  <PEOE_VSA5>
0

>  <PEOE_VSA6>
30.33

>  <PEOE_VSA7>
31.79

>  <PEOE_VSA8>
24.92

>  <PEOE_VSA9>
22.78

>  <PEOE_VSA10>
11.52

>  <PEOE_VSA11>
5.82

>  <PEOE_VSA12>
0

>  <PEOE_VSA13>
0

>  <SMR_VSA1>
9.34

>  <SMR_VSA2>
0

>  <SMR_VSA3>
9.88

>  <SMR_VSA4>
0

>  <SMR_VSA5>
18.72

>  <SMR_VSA6>
31.71

>  <SMR_VSA7>
81.42

>  <SMR_VSA8>
0

>  <SMR_VSA9>
0

>  <SlogP_VSA1>
5.32

>  <SlogP_VSA2>
41.2

>  <SlogP_VSA3>
18.72

>  <SlogP_VSA4>
10.11

>  <SlogP_VSA5>
22.65

>  <SlogP_VSA6>
53.08

>  <SlogP_VSA7>
0

>  <SlogP_VSA8>
0

>  <SlogP_VSA9>
0

>  <SlogP_VSA10>
11.51

>  <SlogP_VSA11>
0

>  <EState_VSA1>
0

>  <EState_VSA2>
10.61

>  <EState_VSA3>
24.35

>  <EState_VSA4>
35.13

>  <EState_VSA5>
0

>  <EState_VSA6>
17.96

>  <EState_VSA7>
56.56

>  <EState_VSA8>
15.2

>  <EState_VSA9>
4.42

>  <EState_VSA10>
10.11

>  <VSA_EState1>
5.79

>  <VSA_EState2>
16.34

>  <VSA_EState3>
14.73

>  <VSA_EState4>
1.85

>  <VSA_EState5>
3.96

>  <VSA_EState6>
13.76

>  <VSA_EState7>
2.24

>  <VSA_EState8>
1.41

>  <VSA_EState9>
4.02

>  <apol>
62.11

>  <bpol>
34.3

>  <nRing>
3

>  <nHRing>
2

>  <naRing>
3

>  <naHRing>
2

>  <nARing 2>
0

>  <nAHRing 2>
0

>  <nFRing>
0

>  <nFHRing>
0

>  <nFaRing>
0

>  <nFaHRing>
0

>  <nFARing 2>
0

>  <nFAHRing 2>
0

>  <nRot>
11

>  <SLogP>
4.51

>  <SMR>
117.45

>  <TopoPSA(NO)>
87.34

>  <TopoPSA>
112.64

>  <JGI1>
0.18

>  <JGI2>
0.05

>  <JGI3>
0.06

>  <JGI4>
0.03

>  <JGI5>
0.03

>  <Diameter>
18

>  <Radius>
9

>  <TMWC10>
135.13

>  <TSRW10>
79.6

>  <MW>
414.17

>  <AMW>
7.53

>  <WPath>
2821

>  <WPol>
37

>  <Zagreb1>
144

>  <Zagreb2>
163

>  <mZagreb2>
6.5

>  <yes>


>  <nAR-cont>
0.336376

>  <nHA-cont>
0.785905698

>  <MWHBN>
0.39309785

>  <MWHBN-cont>
0.503252927

>  <TPSA-cont>
0.213702855

>  <pka_cont>
0.97

>  <yes.1>


>  <BBB_SCORE>
2.789566798

>  <MMFF94 Energy>
126.92

$$$$
Compound 132
Actelion Java MolfileCreator 2.0

  0  0  0  0  0  0              0 V3000
M  V30 BEGIN CTAB
M  V30 COUNTS 52 54 0 0 0
M  V30 BEGIN ATOM
M  V30 1 S 3.6023 1.8399 2.4004 0
M  V30 2 C 4.1644 0.9272 1.0271 0
M  V30 3 C 1.7994 1.7736 2.1459 0
M  V30 4 O 3.322 0.2424 0.2005 0
M  V30 5 C 5.4615 0.7797 0.5797 0
M  V30 6 C 1.3463 2.6273 0.955 0
M  V30 7 C 4.0729 -0.3035 -0.7974 0
M  V30 8 C 5.4044 -0.0092 -0.5949 0
M  V30 9 N -0.1033 2.5864 0.8089 0
M  V30 10 C 3.3464 -1.0676 -1.8536 0
M  V30 11 C -0.8093 1.5526 0.2821 0
M  V30 12 N 2.1764 -0.3465 -2.399 0
M  V30 13 N -0.1996 0.5175 -0.3858 0
M  V30 14 C -2.179 1.3034 0.2637 0
M  V30 15 C 1.453 -1.224 -3.3253 0
M  V30 16 C 2.5779 0.8763 -3.1035 0
M  V30 17 C -1.1374 -0.4071 -0.7674 0
M  V30 18 N -3.1785 2.1939 0.809 0 CHG=1
M  V30 19 C -2.3906 0.0305 -0.374 0
M  V30 20 O -4.3212 2.1207 0.3362 0
M  V30 21 O -2.8233 2.9893 1.6928 0 CHG=-1
M  V30 22 C -3.6739 -0.7077 -0.6002 0
M  V30 23 C -4.0081 -1.398 0.7019 0
M  V30 24 C -3.2965 -2.5341 1.1213 0
M  V30 25 C -5.0522 -0.9251 1.5114 0
M  V30 26 C -3.6116 -3.1695 2.324 0
M  V30 27 C -5.3659 -1.5613 2.7142 0
M  V30 28 C -4.6451 -2.682 3.1206 0
M  V30 29 H 1.4846 0.7302 2.0369 0
M  V30 30 H 1.3251 2.1465 3.0611 0
M  V30 31 H 6.3414 1.2067 1.0408 0
M  V30 32 H 1.631 3.6721 1.1312 0
M  V30 33 H 1.828 2.3346 0.0166 0
M  V30 34 H 6.2303 -0.3155 -1.2216 0
M  V30 35 H -0.6075 3.3248 1.3093 0
M  V30 36 H 4.0437 -1.3386 -2.6571 0
M  V30 37 H 3.0089 -2.0048 -1.3921 0
M  V30 38 H 0.7926 0.4393 -0.5857 0
M  V30 39 H 1.1117 -2.1297 -2.8116 0
M  V30 40 H 2.0704 -1.5247 -4.1797 0
M  V30 41 H 0.5556 -0.7241 -3.7072 0
M  V30 42 H 3.2753 0.6717 -3.9239 0
M  V30 43 H 3.045 1.5943 -2.4212 0
M  V30 44 H 1.6987 1.3826 -3.5187 0
M  V30 45 H -0.8293 -1.3046 -1.2858 0
M  V30 46 H -3.5604 -1.4584 -1.3921 0
M  V30 47 H -4.4776 -0.0397 -0.9247 0
M  V30 48 H -2.4855 -2.9275 0.5127 0
M  V30 49 H -5.632 -0.0542 1.211 0
M  V30 50 H -3.0487 -4.0438 2.6396 0
M  V30 51 H -6.1739 -1.1798 3.3333 0
M  V30 52 H -4.8895 -3.1748 4.0578 0
M  V30 END ATOM
M  V30 BEGIN BOND
M  V30 1 1 1 2
M  V30 2 1 1 3
M  V30 3 1 2 4
M  V30 4 2 2 5
M  V30 5 1 3 6
M  V30 6 1 4 7
M  V30 7 1 5 8
M  V30 8 1 6 9
M  V30 9 1 7 10
M  V30 10 1 9 11
M  V30 11 1 10 12
M  V30 12 1 11 13
M  V30 13 2 11 14
M  V30 14 1 12 15
M  V30 15 1 12 16
M  V30 16 1 13 17
M  V30 17 1 14 18
M  V30 18 1 14 19
M  V30 19 2 18 20
M  V30 20 1 18 21
M  V30 21 1 19 22
M  V30 22 1 22 23
M  V30 23 2 23 24
M  V30 24 1 23 25
M  V30 25 1 24 26
M  V30 26 2 25 27
M  V30 27 2 26 28
M  V30 28 2 7 8
M  V30 29 2 17 19
M  V30 30 1 27 28
M  V30 31 1 3 29
M  V30 32 1 3 30
M  V30 33 1 5 31
M  V30 34 1 6 32
M  V30 35 1 6 33
M  V30 36 1 8 34
M  V30 37 1 9 35
M  V30 38 1 10 36
M  V30 39 1 10 37
M  V30 40 1 13 38
M  V30 41 1 15 39
M  V30 42 1 15 40
M  V30 43 1 15 41
M  V30 44 1 16 42
M  V30 45 1 16 43
M  V30 46 1 16 44
M  V30 47 1 17 45
M  V30 48 1 22 46
M  V30 49 1 22 47
M  V30 50 1 24 48
M  V30 51 1 25 49
M  V30 52 1 26 50
M  V30 53 1 27 51
M  V30 54 1 28 52
M  V30 END BOND
M  V30 END CTAB
M  END
>  <Column 1>
171

>  <level_0>
196

>  <index>
196

>  <Unnamed: 0>
196

>  <NO.>
197

>  <Name>
-

>  <IUPAC_name>


>  <SMILES>
CN(C)Cc1ccc(SCCNc2[nH]cc(Cc3ccccc3)c2[N+](=O)[O-])o1

>  <CID>


>  <logBB>
-0.73

>  <BBB+/BBB->
BBB+

>  <Inchi>
InChI=1S/C20H24N4O3S/c1-23(2)14-17-8-9-18(27-17)28-11-10-21-20-19(24(25)26)16(13-22-20)12-15-6-4-3-5-7-15/h3-9-13-21-22H-10-12-14H2-1-2H3

>  <threshold>


>  <reference>
R2|R2|R8|R3|R38|R41|R43|

>  <group>
A

>  <Class>
1

>  <ABC>
21.53

>  <ABCGG>
17.23

>  <nAcid>
0

>  <nBase>
1

>  <nAromAtom>
16

>  <nAromBond>
16

>  <nAtom>
52

>  <nHeavyAtom>
28

>  <nSpiro>
0

>  <nBridgehead>
0

>  <nHetero>
8

>  <nN>
4

>  <nO>
3

>  <nF>
0

>  <BalabanJ>
1.35

>  <BertzCT>
905.33

>  <nBonds>
54

>  <nBondsO>
30

>  <nBondsS>
37

>  <nBondsD>
1

>  <nBondsT>
0

>  <nBondsA>
16

>  <nBondsM>
17

>  <nBondsKS>
46

>  <nBondsKD>
8

>  <RNCG>
0.18

>  <RPCG>
0.13

>  <FCSP3>
0.3

>  <SZ>
35.33

>  <Sm>
33.34

>  <Sv>
32.87

>  <Sse>
52.38

>  <Sp>
35.39

>  <Si>
58.69

>  <MZ>
0.68

>  <Mm>
0.64

>  <Mv>
0.63

>  <Mse>
1.01

>  <Mp>
0.68

>  <Mi>
1.13

>  <NsCH3>
2

>  <NdCH2>
0

>  <NssCH2>
4

>  <NtCH>
0

>  <NdsCH>
0

>  <NaaCH>
8

>  <NsssCH>
0

>  <NddC>
0

>  <NtsC>
0

>  <NdssC>
0

>  <NaasC>
6

>  <NaaaC>
0

>  <NssssC>
0

>  <NsNH3>
0

>  <NsNH2>
0

>  <NssNH2>
0

>  <NdNH>
0

>  <NssNH>
1

>  <NaaNH>
1

>  <NtN>
0

>  <NsssNH>
0

>  <NdsN>
0

>  <NaaN>
0

>  <NsssN>
1

>  <NddsN>
1

>  <NaasN>
0

>  <NssssN>
0

>  <NsOH>
0

>  <NdO>
1

>  <NssO>
0

>  <NaaO>
1

>  <NsF>
0

>  <NsSiH3>
0

>  <NssSiH2>
0

>  <NsssSiH>
0

>  <NssssSi>
0

>  <NsPH2>
0

>  <NssPH>
0

>  <NsssP>
0

>  <NdsssP>
0

>  <NsssssP>
0

>  <NsSH>
0

>  <NdS>
0

>  <NssS>
1

>  <NaaS>
0

>  <NdssS>
0

>  <NddssS>
0

>  <NsCl>
0

>  <NsBr>
0

>  <NsI>
0

>  <fragCpx>
144.08

>  <fMF>
0.4

>  <nHBAcc>
6

>  <nHBDon>
2

>  <Kier1>
22.68

>  <Kier2>
11.41

>  <Lipinski>
1

>  <GhoseFilter>
1

>  <FilterItLogS>
-6.47

>  <VMcGowan>
299.56

>  <LabuteASA>
167.82

>  <PEOE_VSA1>
19.62

>  <PEOE_VSA2>
10.11

>  <PEOE_VSA3>
0

>  <PEOE_VSA4>
0

>  <PEOE_VSA5>
0

>  <PEOE_VSA6>
42.09

>  <PEOE_VSA7>
31.79

>  <PEOE_VSA8>
24.92

>  <PEOE_VSA9>
17.03

>  <PEOE_VSA10>
5.76

>  <PEOE_VSA11>
10.91

>  <PEOE_VSA12>
0

>  <PEOE_VSA13>
0

>  <SMR_VSA1>
9.34

>  <SMR_VSA2>
0

>  <SMR_VSA3>
9.88

>  <SMR_VSA4>
0

>  <SMR_VSA5>
18.06

>  <SMR_VSA6>
31.71

>  <SMR_VSA7>
75.66

>  <SMR_VSA8>
0

>  <SMR_VSA9>
0

>  <SlogP_VSA1>
5.32

>  <SlogP_VSA2>
41.2

>  <SlogP_VSA3>
12.97

>  <SlogP_VSA4>
10.11

>  <SlogP_VSA5>
16.89

>  <SlogP_VSA6>
58.17

>  <SlogP_VSA7>
0

>  <SlogP_VSA8>
0

>  <SlogP_VSA9>
0

>  <SlogP_VSA10>
11.51

>  <SlogP_VSA11>
0

>  <EState_VSA1>
0

>  <EState_VSA2>
10.61

>  <EState_VSA3>
24.35

>  <EState_VSA4>
28.71

>  <EState_VSA5>
0

>  <EState_VSA6>
17.96

>  <EState_VSA7>
61.46

>  <EState_VSA8>
10.3

>  <EState_VSA9>
4.42

>  <EState_VSA10>
10.11

>  <VSA_EState1>
5.76

>  <VSA_EState2>
16.29

>  <VSA_EState3>
15.55

>  <VSA_EState4>
1.82

>  <VSA_EState5>
2.11

>  <VSA_EState6>
13.66

>  <VSA_EState7>
2.23

>  <VSA_EState8>
1.35

>  <VSA_EState9>
3.99

>  <apol>
59.11

>  <bpol>
32.29

>  <nRing>
3

>  <nHRing>
2

>  <naRing>
3

>  <naHRing>
2

>  <nARing 2>
0

>  <nAHRing 2>
0

>  <nFRing>
0

>  <nFHRing>
0

>  <nFaRing>
0

>  <nFaHRing>
0

>  <nFARing 2>
0

>  <nFAHRing 2>
0

>  <nRot>
10

>  <SLogP>
4.37

>  <SMR>
112.01

>  <TopoPSA(NO)>
87.34

>  <TopoPSA>
112.64

>  <JGI1>
0.18

>  <JGI2>
0.05

>  <JGI3>
0.06

>  <JGI4>
0.03

>  <JGI5>
0.02

>  <Diameter>
17

>  <Radius>
9

>  <TMWC10>
132.98

>  <TSRW10>
78.49

>  <MW>
400.16

>  <AMW>
7.7

>  <WPath>
2483

>  <WPol>
36

>  <Zagreb1>
140

>  <Zagreb2>
159

>  <mZagreb2>
6.25

>  <yes>


>  <nAR-cont>
0.336376

>  <nHA-cont>
0.82432561

>  <MWHBN>
0.399920024

>  <MWHBN-cont>
0.47637556

>  <TPSA-cont>
0.213702855

>  <pka_cont>
0.97

>  <yes.1>


>  <BBB_SCORE>
2.78767066

>  <MMFF94 Energy>
104.85

$$$$
Compound 133
Actelion Java MolfileCreator 2.0

  0  0  0  0  0  0              0 V3000
M  V30 BEGIN CTAB
M  V30 COUNTS 53 55 0 0 0
M  V30 BEGIN ATOM
M  V30 1 S 3.9003 1.1131 0.3974 0
M  V30 2 C 4.366 -0.0558 1.7221 0
M  V30 3 C 2.218 0.4881 0.0235 0
M  V30 4 C 4.173 -1.4686 1.319 0
M  V30 5 C 1.3857 1.5248 -0.726 0
M  V30 6 O 2.9672 -2.0191 1.6384 0
M  V30 7 C 4.9444 -2.388 0.6404 0
M  V30 8 N 0.1984 0.9598 -1.3786 0
M  V30 9 C 2.9377 -3.2713 1.1026 0
M  V30 10 C 4.1474 -3.5514 0.501 0
M  V30 11 C -0.9108 0.6037 -0.6863 0
M  V30 12 C 1.6658 -4.0348 1.2606 0
M  V30 13 N -0.8683 -0.3242 0.324 0
M  V30 14 C -2.2337 0.979 -0.8651 0
M  V30 15 N 0.5199 -3.3901 0.5835 0
M  V30 16 C -2.124 -0.5062 0.8421 0
M  V30 17 C -2.992 0.2789 0.123 0
M  V30 18 C -2.7857 1.9206 -1.8861 0
M  V30 19 C -0.719 -4.0782 0.9565 0
M  V30 20 C 0.6743 -3.4162 -0.8748 0
M  V30 21 C -3.0248 3.2362 -1.1834 0
M  V30 22 C -4.3133 3.594 -0.7574 0
M  V30 23 C -1.9663 4.1274 -0.9486 0
M  V30 24 C -4.5366 4.8135 -0.1152 0
M  V30 25 C -2.1911 5.3459 -0.3058 0
M  V30 26 C -3.4761 5.689 0.1094 0
M  V30 27 H 3.7782 0.1774 2.6161 0
M  V30 28 H 5.4171 0.1207 1.9723 0
M  V30 29 H 2.3092 -0.4228 -0.5755 0
M  V30 30 H 1.7278 0.2486 0.9708 0
M  V30 31 H 1.0872 2.3383 -0.0527 0
M  V30 32 H 1.9916 1.9805 -1.5189 0
M  V30 33 H 5.9446 -2.2252 0.2638 0
M  V30 34 H 0.0712 1.3224 -2.3213 0
M  V30 35 H 4.4108 -4.4715 -0.0011 0
M  V30 36 H 1.802 -5.0638 0.9036 0
M  V30 37 H 1.4629 -4.0968 2.338 0
M  V30 38 H -0.0568 -0.8672 0.5889 0
M  V30 39 H -2.2864 -1.1954 1.6586 0
M  V30 40 H -4.0604 0.3438 0.2813 0
M  V30 41 H -3.7193 1.5265 -2.3047 0
M  V30 42 H -2.0992 2.0623 -2.7282 0
M  V30 43 H -0.8867 -4.0083 2.037 0
M  V30 44 H -0.7049 -5.1377 0.676 0
M  V30 45 H -1.5839 -3.6084 0.4756 0
M  V30 46 H 0.7789 -4.4365 -1.2611 0
M  V30 47 H 1.5447 -2.8336 -1.1932 0
M  V30 48 H -0.1931 -2.9547 -1.3603 0
M  V30 49 H -5.1506 2.9197 -0.9205 0
M  V30 50 H -0.9572 3.8667 -1.2582 0
M  V30 51 H -5.5381 5.0781 0.2128 0
M  V30 52 H -1.3617 6.024 -0.1247 0
M  V30 53 H -3.6501 6.6362 0.6126 0
M  V30 END ATOM
M  V30 BEGIN BOND
M  V30 1 1 1 2
M  V30 2 1 1 3
M  V30 3 1 2 4
M  V30 4 1 3 5
M  V30 5 1 4 6
M  V30 6 2 4 7
M  V30 7 1 5 8
M  V30 8 1 6 9
M  V30 9 1 7 10
M  V30 10 1 8 11
M  V30 11 1 9 12
M  V30 12 1 11 13
M  V30 13 2 11 14
M  V30 14 1 12 15
M  V30 15 1 13 16
M  V30 16 1 14 17
M  V30 17 1 14 18
M  V30 18 1 15 19
M  V30 19 1 15 20
M  V30 20 1 18 21
M  V30 21 2 21 22
M  V30 22 1 21 23
M  V30 23 1 22 24
M  V30 24 2 23 25
M  V30 25 2 24 26
M  V30 26 2 9 10
M  V30 27 2 16 17
M  V30 28 1 25 26
M  V30 29 1 2 27
M  V30 30 1 2 28
M  V30 31 1 3 29
M  V30 32 1 3 30
M  V30 33 1 5 31
M  V30 34 1 5 32
M  V30 35 1 7 33
M  V30 36 1 8 34
M  V30 37 1 10 35
M  V30 38 1 12 36
M  V30 39 1 12 37
M  V30 40 1 13 38
M  V30 41 1 16 39
M  V30 42 1 17 40
M  V30 43 1 18 41
M  V30 44 1 18 42
M  V30 45 1 19 43
M  V30 46 1 19 44
M  V30 47 1 19 45
M  V30 48 1 20 46
M  V30 49 1 20 47
M  V30 50 1 20 48
M  V30 51 1 22 49
M  V30 52 1 23 50
M  V30 53 1 24 51
M  V30 54 1 25 52
M  V30 55 1 26 53
M  V30 END BOND
M  V30 END CTAB
M  END
>  <Column 1>
172

>  <level_0>
197

>  <index>
197

>  <Unnamed: 0>
197

>  <NO.>
198

>  <Name>
b-057

>  <IUPAC_name>


>  <SMILES>
CN(C)Cc1ccc(CSCCNc2[nH]ccc2Cc2ccccc2)o1

>  <CID>


>  <logBB>
-0.73

>  <BBB+/BBB->
BBB+

>  <Inchi>
InChI=1S/C21H27N3OS/c1-24(2)15-19-8-9-20(25-19)16-26-13-12-23-21-18(10-11-22-21)14-17-6-4-3-5-7-17/h3-11-22-23H-12-16H2-1-2H3

>  <threshold>


>  <reference>
R18|R26|R27|

>  <group>
A

>  <Class>
1

>  <ABC>
19.98

>  <ABCGG>
15.77

>  <nAcid>
0

>  <nBase>
1

>  <nAromAtom>
16

>  <nAromBond>
16

>  <nAtom>
53

>  <nHeavyAtom>
26

>  <nSpiro>
0

>  <nBridgehead>
0

>  <nHetero>
5

>  <nN>
3

>  <nO>
1

>  <nF>
0

>  <BalabanJ>
1.24

>  <BertzCT>
779.42

>  <nBonds>
55

>  <nBondsO>
28

>  <nBondsS>
39

>  <nBondsD>
0

>  <nBondsT>
0

>  <nBondsA>
16

>  <nBondsM>
16

>  <nBondsKS>
48

>  <nBondsKD>
7

>  <RNCG>
0.22

>  <RPCG>
0.08

>  <FCSP3>
0.33

>  <SZ>
33

>  <Sm>
30.77

>  <Sv>
32.49

>  <Sse>
52.38

>  <Sp>
35.97

>  <Si>
59.61

>  <MZ>
0.62

>  <Mm>
0.58

>  <Mv>
0.61

>  <Mse>
0.99

>  <Mp>
0.68

>  <Mi>
1.12

>  <NsCH3>
2

>  <NdCH2>
0

>  <NssCH2>
5

>  <NtCH>
0

>  <NdsCH>
0

>  <NaaCH>
9

>  <NsssCH>
0

>  <NddC>
0

>  <NtsC>
0

>  <NdssC>
0

>  <NaasC>
5

>  <NaaaC>
0

>  <NssssC>
0

>  <NsNH3>
0

>  <NsNH2>
0

>  <NssNH2>
0

>  <NdNH>
0

>  <NssNH>
1

>  <NaaNH>
1

>  <NtN>
0

>  <NsssNH>
0

>  <NdsN>
0

>  <NaaN>
0

>  <NsssN>
1

>  <NddsN>
0

>  <NaasN>
0

>  <NssssN>
0

>  <NsOH>
0

>  <NdO>
0

>  <NssO>
0

>  <NaaO>
1

>  <NsF>
0

>  <NsSiH3>
0

>  <NssSiH2>
0

>  <NsssSiH>
0

>  <NssssSi>
0

>  <NsPH2>
0

>  <NssPH>
0

>  <NsssP>
0

>  <NdsssP>
0

>  <NsssssP>
0

>  <NsSH>
0

>  <NdS>
0

>  <NssS>
1

>  <NaaS>
0

>  <NdssS>
0

>  <NddssS>
0

>  <NsCl>
0

>  <NsBr>
0

>  <NsI>
0

>  <fragCpx>
134.05

>  <fMF>
0.42

>  <nHBAcc>
4

>  <nHBDon>
2

>  <Kier1>
20.73

>  <Kier2>
11.11

>  <Lipinski>
1

>  <GhoseFilter>
1

>  <FilterItLogS>
-6.74

>  <VMcGowan>
296.23

>  <LabuteASA>
159.54

>  <PEOE_VSA1>
19.62

>  <PEOE_VSA2>
0

>  <PEOE_VSA3>
0

>  <PEOE_VSA4>
11.76

>  <PEOE_VSA5>
0

>  <PEOE_VSA6>
30.33

>  <PEOE_VSA7>
43.42

>  <PEOE_VSA8>
24.92

>  <PEOE_VSA9>
12.3

>  <PEOE_VSA10>
17.34

>  <PEOE_VSA11>
0

>  <PEOE_VSA12>
0

>  <PEOE_VSA13>
0

>  <SMR_VSA1>
4.42

>  <SMR_VSA2>
0

>  <SMR_VSA3>
9.88

>  <SMR_VSA4>
0

>  <SMR_VSA5>
18.72

>  <SMR_VSA6>
31.71

>  <SMR_VSA7>
77.38

>  <SMR_VSA8>
0

>  <SMR_VSA9>
0

>  <SlogP_VSA1>
5.32

>  <SlogP_VSA2>
36.28

>  <SlogP_VSA3>
18.72

>  <SlogP_VSA4>
0

>  <SlogP_VSA5>
22.65

>  <SlogP_VSA6>
59.14

>  <SlogP_VSA7>
0

>  <SlogP_VSA8>
0

>  <SlogP_VSA9>
0

>  <SlogP_VSA10>
5.82

>  <SlogP_VSA11>
0

>  <EState_VSA1>
0

>  <EState_VSA2>
0

>  <EState_VSA3>
0

>  <EState_VSA4>
48.35

>  <EState_VSA5>
11.13

>  <EState_VSA6>
0

>  <EState_VSA7>
17.96

>  <EState_VSA8>
77.83

>  <EState_VSA9>
4.42

>  <EState_VSA10>
0

>  <VSA_EState1>
5.84

>  <VSA_EState2>
5.43

>  <VSA_EState3>
3.52

>  <VSA_EState4>
2.64

>  <VSA_EState5>
5.16

>  <VSA_EState6>
16.87

>  <VSA_EState7>
2.95

>  <VSA_EState8>
1.78

>  <VSA_EState9>
4.1

>  <apol>
60.08

>  <bpol>
34.13

>  <nRing>
3

>  <nHRing>
2

>  <naRing>
3

>  <naHRing>
2

>  <nARing 2>
0

>  <nAHRing 2>
0

>  <nFRing>
0

>  <nFHRing>
0

>  <nFaRing>
0

>  <nFaHRing>
0

>  <nFARing 2>
0

>  <nFAHRing 2>
0

>  <nRot>
10

>  <SLogP>
4.61

>  <SMR>
110.79

>  <TopoPSA(NO)>
44.2

>  <TopoPSA>
69.5

>  <JGI1>
0.16

>  <JGI2>
0.04

>  <JGI3>
0.04

>  <JGI4>
0.03

>  <JGI5>
0.02

>  <Diameter>
17

>  <Radius>
9

>  <TMWC10>
127.38

>  <TSRW10>
75.62

>  <MW>
369.19

>  <AMW>
6.97

>  <WPath>
2166

>  <WPol>
30

>  <Zagreb1>
128

>  <Zagreb2>
143

>  <mZagreb2>
5.86

>  <yes>


>  <nAR-cont>
0.336376

>  <nHA-cont>
0.892715677

>  <MWHBN>
0.31226714

>  <MWHBN-cont>
0.802607405

>  <TPSA-cont>
0.514846843

>  <pka_cont>
0.97

>  <yes.1>


>  <BBB_SCORE>
3.947696471

>  <MMFF94 Energy>
75.728

$$$$
Compound 134
Actelion Java MolfileCreator 2.0

  0  0  0  0  0  0              0 V3000
M  V30 BEGIN CTAB
M  V30 COUNTS 53 55 0 0 0
M  V30 BEGIN ATOM
M  V30 1 S 1.9875 -1.3512 2.3058 0
M  V30 2 C 3.2437 -0.5115 1.2854 0
M  V30 3 C 1.1649 -2.3342 1.0094 0
M  V30 4 C 4.0582 0.4142 2.1105 0
M  V30 5 C 0.1951 -1.5014 0.1645 0
M  V30 6 O 3.8353 1.7485 1.9289 0
M  V30 7 C 5.0484 0.2261 3.0531 0
M  V30 8 N -0.4173 -2.3241 -0.8699 0
M  V30 9 C 4.6771 2.4155 2.7708 0
M  V30 10 C 5.4462 1.5151 3.4785 0
M  V30 11 C -1.2817 -1.8539 -1.7952 0
M  V30 12 C 4.6008 3.9053 2.7526 0
M  V30 13 N -1.6755 -0.5432 -1.8571 0
M  V30 14 C -1.9266 -2.5222 -2.8117 0
M  V30 15 N 4.3578 4.48 4.0902 0
M  V30 16 C -2.545 -0.3655 -2.9017 0
M  V30 17 C -2.7419 -1.5877 -3.5188 0
M  V30 18 C 3.0059 4.164 4.5623 0
M  V30 19 C 4.54 5.9316 4.0487 0
M  V30 20 C -3.6019 -1.8727 -4.7059 0
M  V30 21 C -4.9694 -2.2229 -4.1712 0
M  V30 22 C -5.2966 -3.5508 -3.8561 0
M  V30 23 C -5.9389 -1.2262 -3.9794 0
M  V30 24 C -6.5631 -3.8734 -3.3655 0
M  V30 25 C -7.2049 -1.5509 -3.489 0
M  V30 26 C -7.5167 -2.874 -3.1833 0
M  V30 27 H 2.7519 0.0433 0.4812 0
M  V30 28 H 3.8946 -1.2656 0.8316 0
M  V30 29 H 1.9231 -2.8146 0.3813 0
M  V30 30 H 0.6132 -3.1391 1.5079 0
M  V30 31 H -0.5881 -1.0817 0.8077 0
M  V30 32 H 0.7284 -0.6708 -0.3106 0
M  V30 33 H 5.426 -0.7261 3.398 0
M  V30 34 H -0.2013 -3.3187 -0.8556 0
M  V30 35 H 6.1902 1.7698 4.2202 0
M  V30 36 H 5.5665 4.2639 2.3727 0
M  V30 37 H 3.8371 4.2402 2.0385 0
M  V30 38 H -1.3726 0.1834 -1.227 0
M  V30 39 H -1.8293 -3.5772 -3.0281 0
M  V30 40 H -2.9587 0.6115 -3.1105 0
M  V30 41 H 2.8646 3.0843 4.6779 0
M  V30 42 H 2.2319 4.5437 3.8853 0
M  V30 43 H 2.8367 4.6004 5.5535 0
M  V30 44 H 3.8445 6.4177 3.3547 0
M  V30 45 H 5.5624 6.1835 3.7459 0
M  V30 46 H 4.3947 6.3668 5.0439 0
M  V30 47 H -3.1954 -2.7009 -5.2978 0
M  V30 48 H -3.6575 -1.0031 -5.3712 0
M  V30 49 H -4.5608 -4.3406 -3.9867 0
M  V30 50 H -5.7075 -0.1884 -4.2073 0
M  V30 51 H -6.8034 -4.9046 -3.1218 0
M  V30 52 H -7.9462 -0.77 -3.342 0
M  V30 53 H -8.5012 -3.1256 -2.7986 0
M  V30 END ATOM
M  V30 BEGIN BOND
M  V30 1 1 1 2
M  V30 2 1 1 3
M  V30 3 1 2 4
M  V30 4 1 3 5
M  V30 5 1 4 6
M  V30 6 2 4 7
M  V30 7 1 5 8
M  V30 8 1 6 9
M  V30 9 1 7 10
M  V30 10 1 8 11
M  V30 11 1 9 12
M  V30 12 1 11 13
M  V30 13 2 11 14
M  V30 14 1 12 15
M  V30 15 1 13 16
M  V30 16 1 14 17
M  V30 17 1 15 18
M  V30 18 1 15 19
M  V30 19 1 17 20
M  V30 20 1 20 21
M  V30 21 2 21 22
M  V30 22 1 21 23
M  V30 23 1 22 24
M  V30 24 2 23 25
M  V30 25 2 24 26
M  V30 26 2 9 10
M  V30 27 2 16 17
M  V30 28 1 25 26
M  V30 29 1 2 27
M  V30 30 1 2 28
M  V30 31 1 3 29
M  V30 32 1 3 30
M  V30 33 1 5 31
M  V30 34 1 5 32
M  V30 35 1 7 33
M  V30 36 1 8 34
M  V30 37 1 10 35
M  V30 38 1 12 36
M  V30 39 1 12 37
M  V30 40 1 13 38
M  V30 41 1 14 39
M  V30 42 1 16 40
M  V30 43 1 18 41
M  V30 44 1 18 42
M  V30 45 1 18 43
M  V30 46 1 19 44
M  V30 47 1 19 45
M  V30 48 1 19 46
M  V30 49 1 20 47
M  V30 50 1 20 48
M  V30 51 1 22 49
M  V30 52 1 23 50
M  V30 53 1 24 51
M  V30 54 1 25 52
M  V30 55 1 26 53
M  V30 END BOND
M  V30 END CTAB
M  END
>  <Column 1>
173

>  <level_0>
198

>  <index>
198

>  <Unnamed: 0>
198

>  <NO.>
199

>  <Name>


>  <IUPAC_name>


>  <SMILES>
CN(C)Cc1ccc(CSCCNc2cc(Cc3ccccc3)c[nH]2)o1

>  <CID>


>  <logBB>
-0.73

>  <BBB+/BBB->
BBB+

>  <Inchi>
InChI=1S/C21H27N3OS/c1-24(2)15-19-8-9-20(25-19)16-26-11-10-22-21-13-18(14-23-21)12-17-6-4-3-5-7-17/h3-9-13-14-22-23H-10-12-15-16H2-1-2H3

>  <threshold>


>  <reference>
R35|

>  <group>
A

>  <Class>
1

>  <ABC>
20.02

>  <ABCGG>
15.15

>  <nAcid>
0

>  <nBase>
1

>  <nAromAtom>
16

>  <nAromBond>
16

>  <nAtom>
53

>  <nHeavyAtom>
26

>  <nSpiro>
0

>  <nBridgehead>
0

>  <nHetero>
5

>  <nN>
3

>  <nO>
1

>  <nF>
0

>  <BalabanJ>
1.18

>  <BertzCT>
779.42

>  <nBonds>
55

>  <nBondsO>
28

>  <nBondsS>
39

>  <nBondsD>
0

>  <nBondsT>
0

>  <nBondsA>
16

>  <nBondsM>
16

>  <nBondsKS>
48

>  <nBondsKD>
7

>  <RNCG>
0.22

>  <RPCG>
0.08

>  <FCSP3>
0.33

>  <SZ>
33

>  <Sm>
30.77

>  <Sv>
32.49

>  <Sse>
52.38

>  <Sp>
35.97

>  <Si>
59.61

>  <MZ>
0.62

>  <Mm>
0.58

>  <Mv>
0.61

>  <Mse>
0.99

>  <Mp>
0.68

>  <Mi>
1.12

>  <NsCH3>
2

>  <NdCH2>
0

>  <NssCH2>
5

>  <NtCH>
0

>  <NdsCH>
0

>  <NaaCH>
9

>  <NsssCH>
0

>  <NddC>
0

>  <NtsC>
0

>  <NdssC>
0

>  <NaasC>
5

>  <NaaaC>
0

>  <NssssC>
0

>  <NsNH3>
0

>  <NsNH2>
0

>  <NssNH2>
0

>  <NdNH>
0

>  <NssNH>
1

>  <NaaNH>
1

>  <NtN>
0

>  <NsssNH>
0

>  <NdsN>
0

>  <NaaN>
0

>  <NsssN>
1

>  <NddsN>
0

>  <NaasN>
0

>  <NssssN>
0

>  <NsOH>
0

>  <NdO>
0

>  <NssO>
0

>  <NaaO>
1

>  <NsF>
0

>  <NsSiH3>
0

>  <NssSiH2>
0

>  <NsssSiH>
0

>  <NssssSi>
0

>  <NsPH2>
0

>  <NssPH>
0

>  <NsssP>
0

>  <NdsssP>
0

>  <NsssssP>
0

>  <NsSH>
0

>  <NdS>
0

>  <NssS>
1

>  <NaaS>
0

>  <NdssS>
0

>  <NddssS>
0

>  <NsCl>
0

>  <NsBr>
0

>  <NsI>
0

>  <fragCpx>
134.05

>  <fMF>
0.42

>  <nHBAcc>
4

>  <nHBDon>
2

>  <Kier1>
20.73

>  <Kier2>
11.11

>  <Lipinski>
1

>  <GhoseFilter>
1

>  <FilterItLogS>
-6.74

>  <VMcGowan>
296.23

>  <LabuteASA>
159.54

>  <PEOE_VSA1>
19.62

>  <PEOE_VSA2>
0

>  <PEOE_VSA3>
0

>  <PEOE_VSA4>
11.76

>  <PEOE_VSA5>
0

>  <PEOE_VSA6>
30.33

>  <PEOE_VSA7>
49.84

>  <PEOE_VSA8>
18.49

>  <PEOE_VSA9>
12.3

>  <PEOE_VSA10>
17.34

>  <PEOE_VSA11>
0

>  <PEOE_VSA12>
0

>  <PEOE_VSA13>
0

>  <SMR_VSA1>
4.42

>  <SMR_VSA2>
0

>  <SMR_VSA3>
9.88

>  <SMR_VSA4>
0

>  <SMR_VSA5>
18.72

>  <SMR_VSA6>
31.71

>  <SMR_VSA7>
77.38

>  <SMR_VSA8>
0

>  <SMR_VSA9>
0

>  <SlogP_VSA1>
5.32

>  <SlogP_VSA2>
36.28

>  <SlogP_VSA3>
18.72

>  <SlogP_VSA4>
0

>  <SlogP_VSA5>
22.65

>  <SlogP_VSA6>
59.14

>  <SlogP_VSA7>
0

>  <SlogP_VSA8>
0

>  <SlogP_VSA9>
0

>  <SlogP_VSA10>
5.82

>  <SlogP_VSA11>
0

>  <EState_VSA1>
0

>  <EState_VSA2>
0

>  <EState_VSA3>
0

>  <EState_VSA4>
48.35

>  <EState_VSA5>
11.13

>  <EState_VSA6>
0

>  <EState_VSA7>
11.76

>  <EState_VSA8>
84.02

>  <EState_VSA9>
4.42

>  <EState_VSA10>
0

>  <VSA_EState1>
5.83

>  <VSA_EState2>
5.43

>  <VSA_EState3>
3.45

>  <VSA_EState4>
2.64

>  <VSA_EState5>
5.12

>  <VSA_EState6>
16.89

>  <VSA_EState7>
3.04

>  <VSA_EState8>
1.78

>  <VSA_EState9>
4.1

>  <apol>
60.08

>  <bpol>
34.13

>  <nRing>
3

>  <nHRing>
2

>  <naRing>
3

>  <naHRing>
2

>  <nARing 2>
0

>  <nAHRing 2>
0

>  <nFRing>
0

>  <nFHRing>
0

>  <nFaRing>
0

>  <nFaHRing>
0

>  <nFARing 2>
0

>  <nFAHRing 2>
0

>  <nRot>
10

>  <SLogP>
4.61

>  <SMR>
110.79

>  <TopoPSA(NO)>
44.2

>  <TopoPSA>
69.5

>  <JGI1>
0.18

>  <JGI2>
0.03

>  <JGI3>
0.05

>  <JGI4>
0.02

>  <JGI5>
0.02

>  <Diameter>
18

>  <Radius>
9

>  <TMWC10>
127.18

>  <TSRW10>
75.56

>  <MW>
369.19

>  <AMW>
6.97

>  <WPath>
2264

>  <WPol>
29

>  <Zagreb1>
128

>  <Zagreb2>
142

>  <mZagreb2>
5.83

>  <yes>


>  <nAR-cont>
0.336376

>  <nHA-cont>
0.892715677

>  <MWHBN>
0.31226714

>  <MWHBN-cont>
0.802607405

>  <TPSA-cont>
0.514846843

>  <pka_cont>
0.97

>  <yes.1>


>  <BBB_SCORE>
3.947696471

>  <MMFF94 Energy>
74.567

$$$$
Compound 135
Actelion Java MolfileCreator 2.0

  0  0  0  0  0  0              0 V3000
M  V30 BEGIN CTAB
M  V30 COUNTS 52 54 0 0 0
M  V30 BEGIN ATOM
M  V30 1 O 1.3354 -2.9084 1.0211 0
M  V30 2 C 1.304 -3.4907 -0.2807 0
M  V30 3 C 0.0052 -3.1187 -1.028 0 CFG=1
M  V30 4 N 0.0608 -1.7407 -1.4858 0
M  V30 5 C -0.2456 -4.0359 -2.2412 0
M  V30 6 C -0.4552 -0.6934 -0.7679 0
M  V30 7 C 0.8839 -4.0903 -3.2629 0
M  V30 8 N -0.0447 0.52 -1.1933 0
M  V30 9 N -1.3064 -0.9252 0.2428 0
M  V30 10 C -0.4796 1.6494 -0.5725 0
M  V30 11 C -1.7133 0.2012 0.8404 0
M  V30 12 N -0.0678 2.8993 -0.987 0
M  V30 13 C -1.3637 1.4956 0.5079 0
M  V30 14 N -2.5575 0.3255 1.9099 0
M  V30 15 C 0.9899 3.082 -1.9455 0
M  V30 16 N -1.9827 2.4042 1.346 0
M  V30 17 C -2.6889 1.6644 2.175 0
M  V30 18 C -3.1855 -0.7713 2.6315 0
M  V30 19 C 2.2933 3.3692 -1.2386 0
M  V30 20 C -2.716 -0.8293 4.0852 0
M  V30 21 C -4.7102 -0.7049 2.5417 0
M  V30 22 C 2.7352 4.6877 -1.0548 0
M  V30 23 C 3.0686 2.3179 -0.7275 0
M  V30 24 C 3.9359 4.9462 -0.3907 0
M  V30 25 C 4.2678 2.5781 -0.0628 0
M  V30 26 C 4.7022 3.8918 0.1028 0
M  V30 27 H 2.2413 -3.0037 1.3584 0
M  V30 28 H 2.187 -3.1424 -0.8278 0
M  V30 29 H 1.3748 -4.5755 -0.1517 0
M  V30 30 H -0.8429 -3.2615 -0.3463 0
M  V30 31 H 0.7263 -1.4418 -2.1811 0
M  V30 32 H -1.1618 -3.7139 -2.7524 0
M  V30 33 H -0.4318 -5.0551 -1.8803 0
M  V30 34 H 1.0967 -3.1029 -3.6826 0
M  V30 35 H 1.8038 -4.4871 -2.8239 0
M  V30 36 H 0.6033 -4.7492 -4.0911 0
M  V30 37 H -0.3658 3.6783 -0.4131 0
M  V30 38 H 1.1066 2.2339 -2.6313 0
M  V30 39 H 0.7341 3.9353 -2.5857 0
M  V30 40 H -3.3062 2.0437 2.9794 0
M  V30 41 H -2.8657 -1.6998 2.1429 0
M  V30 42 H -3.0297 0.0568 4.6477 0
M  V30 43 H -3.1274 -1.71 4.5895 0
M  V30 44 H -1.6234 -0.8886 4.1404 0
M  V30 45 H -5.1072 0.1848 3.0425 0
M  V30 46 H -5.0387 -0.6731 1.4971 0
M  V30 47 H -5.1635 -1.5844 3.0112 0
M  V30 48 H 2.1438 5.5213 -1.426 0
M  V30 49 H 2.7282 1.2901 -0.8387 0
M  V30 50 H 4.2704 5.971 -0.2538 0
M  V30 51 H 4.8574 1.7553 0.3315 0
M  V30 52 H 5.6342 4.0943 0.6234 0
M  V30 END ATOM
M  V30 BEGIN BOND
M  V30 1 1 1 2
M  V30 2 1 2 3
M  V30 3 1 3 4
M  V30 4 1 3 5
M  V30 5 1 4 6
M  V30 6 1 5 7
M  V30 7 2 6 8
M  V30 8 1 6 9
M  V30 9 1 8 10
M  V30 10 2 9 11
M  V30 11 1 10 12
M  V30 12 2 10 13
M  V30 13 1 11 14
M  V30 14 1 12 15
M  V30 15 1 13 16
M  V30 16 1 14 17
M  V30 17 1 14 18
M  V30 18 1 15 19
M  V30 19 1 18 20
M  V30 20 1 18 21
M  V30 21 2 19 22
M  V30 22 1 19 23
M  V30 23 1 22 24
M  V30 24 2 23 25
M  V30 25 2 24 26
M  V30 26 1 11 13
M  V30 27 2 16 17
M  V30 28 1 25 26
M  V30 29 1 1 27
M  V30 30 1 2 28
M  V30 31 1 2 29
M  V30 32 1 3 30
M  V30 33 1 4 31
M  V30 34 1 5 32
M  V30 35 1 5 33
M  V30 36 1 7 34
M  V30 37 1 7 35
M  V30 38 1 7 36
M  V30 39 1 12 37
M  V30 40 1 15 38
M  V30 41 1 15 39
M  V30 42 1 17 40
M  V30 43 1 18 41
M  V30 44 1 20 42
M  V30 45 1 20 43
M  V30 46 1 20 44
M  V30 47 1 21 45
M  V30 48 1 21 46
M  V30 49 1 21 47
M  V30 50 1 22 48
M  V30 51 1 23 49
M  V30 52 1 24 50
M  V30 53 1 25 51
M  V30 54 1 26 52
M  V30 END BOND
M  V30 BEGIN COLLECTION
M  V30 MDLV30/STERAC1 ATOMS=(1 3)
M  V30 END COLLECTION
M  V30 END CTAB
M  END
>  <Column 1>
175

>  <level_0>
200

>  <index>
200

>  <Unnamed: 0>
200

>  <NO.>
201

>  <Name>
roscovitine

>  <IUPAC_name>
2-[[6-(benzylamino)-9-propan-2-ylpurin-2-yl]amino]butan-1-ol

>  <SMILES>
CCC(CO)Nc1nc(NCc2ccccc2)c2ncn(C(C)C)c2n1

>  <CID>
5097

>  <logBB>
-0.72

>  <BBB+/BBB->
BBB+

>  <Inchi>
InChI=1S/C19H26N6O/c1-4-15(11-26)22-19-23-17(20-10-14-8-6-5-7-9-14)16-18(24-19)25(12-21-16)13(2)3/h5-9-12-13-15-26H-4-10-11H2-1-3H3-(H2-20-22-23-24)

>  <threshold>


>  <reference>
R18|R26|R27|

>  <group>
A

>  <Class>
1

>  <ABC>
19.86

>  <ABCGG>
16.41

>  <nAcid>
0

>  <nBase>
0

>  <nAromAtom>
15

>  <nAromBond>
16

>  <nAtom>
52

>  <nHeavyAtom>
26

>  <nSpiro>
0

>  <nBridgehead>
0

>  <nHetero>
7

>  <nN>
6

>  <nO>
1

>  <nF>
0

>  <BalabanJ>
1.62

>  <BertzCT>
841.86

>  <nBonds>
54

>  <nBondsO>
28

>  <nBondsS>
38

>  <nBondsD>
0

>  <nBondsT>
0

>  <nBondsA>
16

>  <nBondsM>
16

>  <nBondsKS>
47

>  <nBondsKD>
7

>  <RNCG>
0.15

>  <RPCG>
0.09

>  <FCSP3>
0.42

>  <SZ>
31.67

>  <Sm>
29.51

>  <Sv>
31.31

>  <Sse>
51.85

>  <Sp>
33.81

>  <Si>
59.35

>  <MZ>
0.61

>  <Mm>
0.57

>  <Mv>
0.6

>  <Mse>
1

>  <Mp>
0.65

>  <Mi>
1.14

>  <NsCH3>
3

>  <NdCH2>
0

>  <NssCH2>
3

>  <NtCH>
0

>  <NdsCH>
0

>  <NaaCH>
6

>  <NsssCH>
2

>  <NddC>
0

>  <NtsC>
0

>  <NdssC>
0

>  <NaasC>
3

>  <NaaaC>
2

>  <NssssC>
0

>  <NsNH3>
0

>  <NsNH2>
0

>  <NssNH2>
0

>  <NdNH>
0

>  <NssNH>
2

>  <NaaNH>
0

>  <NtN>
0

>  <NsssNH>
0

>  <NdsN>
0

>  <NaaN>
3

>  <NsssN>
0

>  <NddsN>
0

>  <NaasN>
1

>  <NssssN>
0

>  <NsOH>
1

>  <NdO>
0

>  <NssO>
0

>  <NaaO>
0

>  <NsF>
0

>  <NsSiH3>
0

>  <NssSiH2>
0

>  <NsssSiH>
0

>  <NssssSi>
0

>  <NsPH2>
0

>  <NssPH>
0

>  <NsssP>
0

>  <NdsssP>
0

>  <NsssssP>
0

>  <NsSH>
0

>  <NdS>
0

>  <NssS>
0

>  <NaaS>
0

>  <NdssS>
0

>  <NddssS>
0

>  <NsCl>
0

>  <NsBr>
0

>  <NsI>
0

>  <fragCpx>
134.07

>  <fMF>
0.33

>  <nHBAcc>
7

>  <nHBDon>
3

>  <Kier1>
20.73

>  <Kier2>
9.97

>  <Lipinski>
1

>  <GhoseFilter>
1

>  <FilterItLogS>
-4.91

>  <VMcGowan>
281.64

>  <LabuteASA>
153.06

>  <PEOE_VSA1>
20.31

>  <PEOE_VSA2>
0

>  <PEOE_VSA3>
4.98

>  <PEOE_VSA4>
9.97

>  <PEOE_VSA5>
0

>  <PEOE_VSA6>
37.26

>  <PEOE_VSA7>
25.83

>  <PEOE_VSA8>
12.59

>  <PEOE_VSA9>
18.98

>  <PEOE_VSA10>
0

>  <PEOE_VSA11>
16.98

>  <PEOE_VSA12>
5.95

>  <PEOE_VSA13>
0

>  <SMR_VSA1>
5.11

>  <SMR_VSA2>
0

>  <SMR_VSA3>
19.52

>  <SMR_VSA4>
0

>  <SMR_VSA5>
45.82

>  <SMR_VSA6>
17.24

>  <SMR_VSA7>
42.22

>  <SMR_VSA8>
0

>  <SMR_VSA9>
0

>  <SlogP_VSA1>
10.63

>  <SlogP_VSA2>
37.27

>  <SlogP_VSA3>
6.54

>  <SlogP_VSA4>
0

>  <SlogP_VSA5>
38.8

>  <SlogP_VSA6>
36.66

>  <SlogP_VSA7>
0

>  <SlogP_VSA8>
11.16

>  <SlogP_VSA9>
0

>  <SlogP_VSA10>
11.77

>  <SlogP_VSA11>
0

>  <EState_VSA1>
0

>  <EState_VSA2>
18.69

>  <EState_VSA3>
18.31

>  <EState_VSA4>
17.58

>  <EState_VSA5>
5.56

>  <EState_VSA6>
6.33

>  <EState_VSA7>
29.69

>  <EState_VSA8>
51.57

>  <EState_VSA9>
0

>  <EState_VSA10>
5.11

>  <VSA_EState1>
2.02

>  <VSA_EState2>
13.75

>  <VSA_EState3>
16.06

>  <VSA_EState4>
2.69

>  <VSA_EState5>
1.19

>  <VSA_EState6>
10.32

>  <VSA_EState7>
2.58

>  <VSA_EState8>
6.89

>  <VSA_EState9>
0

>  <apol>
56.47

>  <bpol>
32.35

>  <nRing>
3

>  <nHRing>
2

>  <naRing>
3

>  <naHRing>
2

>  <nARing 2>
0

>  <nAHRing 2>
0

>  <nFRing>
1

>  <nFHRing>
1

>  <nFaRing>
1

>  <nFaHRing>
1

>  <nFARing 2>
0

>  <nFAHRing 2>
0

>  <nRot>
8

>  <SLogP>
3.2

>  <SMR>
104.26

>  <TopoPSA(NO)>
87.89

>  <TopoPSA>
87.89

>  <JGI1>
0.18

>  <JGI2>
0.06

>  <JGI3>
0.04

>  <JGI4>
0.03

>  <JGI5>
0.03

>  <Diameter>
12

>  <Radius>
6

>  <TMWC10>
129.36

>  <TSRW10>
74.71

>  <MW>
354.22

>  <AMW>
6.81

>  <WPath>
1705

>  <WPol>
39

>  <Zagreb1>
132

>  <Zagreb2>
154

>  <mZagreb2>
5.94

>  <yes>


>  <nAR-cont>
0.336376

>  <nHA-cont>
0.892715677

>  <MWHBN>
0.531328927

>  <MWHBN-cont>
0

>  <TPSA-cont>
0.386473224

>  <pka_cont>
0.97

>  <yes.1>


>  <BBB_SCORE>
2.487038125

>  <MMFF94 Energy>
-18.624

$$$$
Compound 136
Actelion Java MolfileCreator 2.0

  0  0  0  0  0  0              0 V3000
M  V30 BEGIN CTAB
M  V30 COUNTS 65 67 0 0 0
M  V30 BEGIN ATOM
M  V30 1 O 4.4321 -0.7112 -4.0358 0
M  V30 2 C 3.3119 -1.1323 -4.2668 0
M  V30 3 N 2.5229 -1.9519 -3.4869 0
M  V30 4 N 2.5236 -0.9191 -5.3785 0
M  V30 5 N 1.3573 -2.2327 -4.1455 0
M  V30 6 C 2.8775 -2.5476 -2.223 0
M  V30 7 N 1.3547 -1.6183 -5.2575 0
M  V30 8 C 2.8604 -0.1617 -6.5531 0
M  V30 9 C 3.0711 -1.5269 -1.0824 0
M  V30 10 C 3.3928 -1.0519 -7.6621 0
M  V30 11 N 1.8652 -1.2357 -0.2734 0
M  V30 12 C 2.2481 -0.4414 0.9039 0
M  V30 13 C 0.8339 -0.5368 -1.0484 0
M  V30 14 C 1.064 -0.1757 1.834 0
M  V30 15 C -0.4267 -0.267 -0.2222 0
M  V30 16 C -0.1822 0.4365 1.1396 0
M  V30 17 N -1.4127 0.2407 2.0408 0
M  V30 18 C 0.095 1.97 0.8685 0
M  V30 19 C -2.1071 1.3939 2.4852 0
M  V30 20 C -1.8618 -1.0366 2.4266 0
M  V30 21 O 1.2221 2.223 0.0312 0
M  V30 22 C -3.1605 1.9078 1.7234 0
M  V30 23 C -1.7401 2.0063 3.6871 0
M  V30 24 O -1.3091 -2.0804 2.0775 0
M  V30 25 C -3.1006 -1.0955 3.3249 0
M  V30 26 C 1.4248 3.6138 -0.1825 0
M  V30 27 C -3.8433 3.0414 2.1639 0
M  V30 28 C -2.4262 3.1396 4.1231 0
M  V30 29 C -3.4957 -2.5293 3.681 0
M  V30 30 C -3.4757 3.6563 3.3617 0
M  V30 31 C -4.7267 -2.5628 4.5725 0
M  V30 32 H 2.1376 -3.3103 -1.9551 0
M  V30 33 H 3.8338 -3.06 -2.3847 0
M  V30 34 H 3.6228 0.5775 -6.285 0
M  V30 35 H 1.966 0.3747 -6.887 0
M  V30 36 H 3.8094 -1.979 -0.4064 0
M  V30 37 H 3.5184 -0.5978 -1.4575 0
M  V30 38 H 2.6475 -1.7967 -7.9604 0
M  V30 39 H 4.2897 -1.5895 -7.3368 0
M  V30 40 H 3.6505 -0.4536 -8.5412 0
M  V30 41 H 2.9931 -0.9989 1.487 0
M  V30 42 H 2.7382 0.4934 0.6124 0
M  V30 43 H 0.5124 -1.1662 -1.8831 0
M  V30 44 H 1.222 0.3853 -1.4931 0
M  V30 45 H 0.818 -1.1291 2.3123 0
M  V30 46 H 1.3867 0.4755 2.6568 0
M  V30 47 H -1.1336 0.3217 -0.8216 0
M  V30 48 H -0.9212 -1.2333 -0.0783 0
M  V30 49 H 0.2704 2.4863 1.8197 0
M  V30 50 H -0.7788 2.4225 0.3853 0
M  V30 51 H -3.4511 1.4292 0.7918 0
M  V30 52 H -0.9255 1.6041 4.2839 0
M  V30 53 H -3.9378 -0.6169 2.8057 0
M  V30 54 H -2.8941 -0.5459 4.2495 0
M  V30 55 H 2.2986 3.7381 -0.8276 0
M  V30 56 H 1.6155 4.124 0.7664 0
M  V30 57 H 0.5567 4.0557 -0.6811 0
M  V30 58 H -4.664 3.4446 1.5756 0
M  V30 59 H -2.1456 3.6191 5.0577 0
M  V30 60 H -3.6967 -3.1001 2.7666 0
M  V30 61 H -2.6654 -3.03 4.1931 0
M  V30 62 H -4.011 4.5388 3.7047 0
M  V30 63 H -4.9913 -3.5968 4.8147 0
M  V30 64 H -4.5458 -2.0297 5.5114 0
M  V30 65 H -5.5847 -2.1003 4.0743 0
M  V30 END ATOM
M  V30 BEGIN BOND
M  V30 1 2 1 2
M  V30 2 1 2 3
M  V30 3 1 2 4
M  V30 4 1 3 5
M  V30 5 1 3 6
M  V30 6 1 4 7
M  V30 7 1 4 8
M  V30 8 1 6 9
M  V30 9 1 8 10
M  V30 10 1 9 11
M  V30 11 1 11 12
M  V30 12 1 11 13
M  V30 13 1 12 14
M  V30 14 1 13 15
M  V30 15 1 14 16
M  V30 16 1 16 17
M  V30 17 1 16 18
M  V30 18 1 17 19
M  V30 19 1 17 20
M  V30 20 1 18 21
M  V30 21 2 19 22
M  V30 22 1 19 23
M  V30 23 2 20 24
M  V30 24 1 20 25
M  V30 25 1 21 26
M  V30 26 1 22 27
M  V30 27 2 23 28
M  V30 28 1 25 29
M  V30 29 2 27 30
M  V30 30 1 29 31
M  V30 31 2 5 7
M  V30 32 1 15 16
M  V30 33 1 28 30
M  V30 34 1 6 32
M  V30 35 1 6 33
M  V30 36 1 8 34
M  V30 37 1 8 35
M  V30 38 1 9 36
M  V30 39 1 9 37
M  V30 40 1 10 38
M  V30 41 1 10 39
M  V30 42 1 10 40
M  V30 43 1 12 41
M  V30 44 1 12 42
M  V30 45 1 13 43
M  V30 46 1 13 44
M  V30 47 1 14 45
M  V30 48 1 14 46
M  V30 49 1 15 47
M  V30 50 1 15 48
M  V30 51 1 18 49
M  V30 52 1 18 50
M  V30 53 1 22 51
M  V30 54 1 23 52
M  V30 55 1 25 53
M  V30 56 1 25 54
M  V30 57 1 26 55
M  V30 58 1 26 56
M  V30 59 1 26 57
M  V30 60 1 27 58
M  V30 61 1 28 59
M  V30 62 1 29 60
M  V30 63 1 29 61
M  V30 64 1 30 62
M  V30 65 1 31 63
M  V30 66 1 31 64
M  V30 67 1 31 65
M  V30 END BOND
M  V30 END CTAB
M  END
>  <Column 1>
177

>  <level_0>
204

>  <index>
204

>  <Unnamed: 0>
204

>  <NO.>
205

>  <Name>
alfentanil;rapifen

>  <IUPAC_name>


>  <SMILES>
CCCC(=O)N(c1ccccc1)C1(COC)CCN(CCn2nnn(CC)c2=O)CC1

>  <CID>


>  <logBB>
-0.71

>  <BBB+/BBB->
BBB+

>  <Inchi>
InChI=1S/C22H34N6O3/c1-4-9-20(29)28(19-10-7-6-8-11-19)22(18-31-3)12-14-25(15-13-22)16-17-27-21(30)26(5-2)23-24-27/h6-8-10-11H-4-5-9-12-18H2-1-3H3

>  <threshold>


>  <reference>
R18|R26|R27|

>  <group>
A

>  <Class>
1

>  <ABC>
23.33

>  <ABCGG>
19.2

>  <nAcid>
2

>  <nBase>
1

>  <nAromAtom>
11

>  <nAromBond>
11

>  <nAtom>
65

>  <nHeavyAtom>
31

>  <nSpiro>
0

>  <nBridgehead>
0

>  <nHetero>
9

>  <nN>
6

>  <nO>
3

>  <nF>
0

>  <BalabanJ>
1.61

>  <BertzCT>
886.15

>  <nBonds>
67

>  <nBondsO>
33

>  <nBondsS>
54

>  <nBondsD>
2

>  <nBondsT>
0

>  <nBondsA>
11

>  <nBondsM>
13

>  <nBondsKS>
61

>  <nBondsKD>
6

>  <RNCG>
0.16

>  <RPCG>
0.15

>  <FCSP3>
0.64

>  <SZ>
38.67

>  <Sm>
35.85

>  <Sv>
37.9

>  <Sse>
65.06

>  <Sp>
40.97

>  <Si>
74.43

>  <MZ>
0.59

>  <Mm>
0.55

>  <Mv>
0.58

>  <Mse>
1

>  <Mp>
0.63

>  <Mi>
1.15

>  <NsCH3>
3

>  <NdCH2>
0

>  <NssCH2>
10

>  <NtCH>
0

>  <NdsCH>
0

>  <NaaCH>
5

>  <NsssCH>
0

>  <NddC>
0

>  <NtsC>
0

>  <NdssC>
1

>  <NaasC>
1

>  <NaaaC>
0

>  <NssssC>
1

>  <NsNH3>
0

>  <NsNH2>
0

>  <NssNH2>
0

>  <NdNH>
0

>  <NssNH>
0

>  <NaaNH>
0

>  <NtN>
0

>  <NsssNH>
0

>  <NdsN>
0

>  <NaaN>
2

>  <NsssN>
2

>  <NddsN>
0

>  <NaasN>
2

>  <NssssN>
0

>  <NsOH>
0

>  <NdO>
2

>  <NssO>
1

>  <NaaO>
0

>  <NsF>
0

>  <NsSiH3>
0

>  <NssSiH2>
0

>  <NsssSiH>
0

>  <NssssSi>
0

>  <NsPH2>
0

>  <NssPH>
0

>  <NsssP>
0

>  <NdsssP>
0

>  <NsssssP>
0

>  <NsSH>
0

>  <NdS>
0

>  <NssS>
0

>  <NaaS>
0

>  <NdssS>
0

>  <NddssS>
0

>  <NsCl>
0

>  <NsBr>
0

>  <NsI>
0

>  <fragCpx>
159.09

>  <fMF>
0.31

>  <nHBAcc>
8

>  <nHBDon>
0

>  <Kier1>
25.62

>  <Kier2>
12.46

>  <Lipinski>
1

>  <GhoseFilter>
1

>  <FilterItLogS>
-3.73

>  <VMcGowan>
339.95

>  <LabuteASA>
183.11

>  <PEOE_VSA1>
14.54

>  <PEOE_VSA2>
4.79

>  <PEOE_VSA3>
4.79

>  <PEOE_VSA4>
9.36

>  <PEOE_VSA5>
0

>  <PEOE_VSA6>
25.12

>  <PEOE_VSA7>
48.75

>  <PEOE_VSA8>
45.4

>  <PEOE_VSA9>
18.69

>  <PEOE_VSA10>
0

>  <PEOE_VSA11>
0

>  <PEOE_VSA12>
5.91

>  <PEOE_VSA13>
0

>  <SMR_VSA1>
9.53

>  <SMR_VSA2>
0

>  <SMR_VSA3>
24.69

>  <SMR_VSA4>
0

>  <SMR_VSA5>
58.16

>  <SMR_VSA6>
38.25

>  <SMR_VSA7>
40.82

>  <SMR_VSA8>
0

>  <SMR_VSA9>
0

>  <SlogP_VSA1>
10.59

>  <SlogP_VSA2>
69.49

>  <SlogP_VSA3>
22.62

>  <SlogP_VSA4>
0

>  <SlogP_VSA5>
39.53

>  <SlogP_VSA6>
35.13

>  <SlogP_VSA7>
0

>  <SlogP_VSA8>
0

>  <SlogP_VSA9>
0

>  <SlogP_VSA10>
5.69

>  <SlogP_VSA11>
0

>  <EState_VSA1>
0

>  <EState_VSA2>
17.14

>  <EState_VSA3>
26.12

>  <EState_VSA4>
44.58

>  <EState_VSA5>
9.36

>  <EState_VSA6>
7.11

>  <EState_VSA7>
49.08

>  <EState_VSA8>
15.33

>  <EState_VSA9>
4.74

>  <EState_VSA10>
9.59

>  <VSA_EState1>
8.41

>  <VSA_EState2>
29.65

>  <VSA_EState3>
7.84

>  <VSA_EState4>
0.38

>  <VSA_EState5>
0.14

>  <VSA_EState6>
9.91

>  <VSA_EState7>
2.94

>  <VSA_EState8>
7.79

>  <VSA_EState9>
1.7

>  <apol>
68.42

>  <bpol>
43.28

>  <nRing>
3

>  <nHRing>
2

>  <naRing>
2

>  <naHRing>
1

>  <nARing 2>
1

>  <nAHRing 2>
1

>  <nFRing>
0

>  <nFHRing>
0

>  <nFaRing>
0

>  <nFaHRing>
0

>  <nFARing 2>
0

>  <nFAHRing 2>
0

>  <nRot>
10

>  <SLogP>
1.77

>  <SMR>
119.07

>  <TopoPSA(NO)>
85.49

>  <TopoPSA>
85.49

>  <JGI1>
0.18

>  <JGI2>
0.09

>  <JGI3>
0.06

>  <JGI4>
0.03

>  <JGI5>
0.02

>  <Diameter>
15

>  <Radius>
8

>  <TMWC10>
141.25

>  <TSRW10>
80.63

>  <MW>
430.27

>  <AMW>
6.62

>  <WPath>
2834

>  <WPol>
50

>  <Zagreb1>
156

>  <Zagreb2>
184

>  <mZagreb2>
7.24

>  <yes>


>  <nAR-cont>
0.816016

>  <nHA-cont>
0.702745138

>  <MWHBN>
0.385673193

>  <MWHBN-cont>
0.532506083

>  <TPSA-cont>
0.403226714

>  <pka_cont>
0.97

>  <yes.1>


>  <BBB_SCORE>
3.60897369

>  <MMFF94 Energy>
39.303

$$$$
Compound 137
Actelion Java MolfileCreator 2.0

  0  0  0  0  0  0              0 V3000
M  V30 BEGIN CTAB
M  V30 COUNTS 14 15 0 0 0
M  V30 BEGIN ATOM
M  V30 1 S -1.0554 2.3556 1.8678 0
M  V30 2 C -0.4689 0.8626 1.3988 0
M  V30 3 N -0.1956 -0.2048 2.2362 0
M  V30 4 C -0.2077 0.6117 0.0127 0
M  V30 5 C 0.2579 -1.303 1.7124 0
M  V30 6 N -0.3371 1.375 -1.1167 0
M  V30 7 C 0.2719 -0.5823 -0.4475 0
M  V30 8 N 0.5204 -1.5821 0.3966 0
M  V30 9 C 0.0687 0.5999 -2.1747 0
M  V30 10 N 0.4463 -0.6032 -1.789 0
M  V30 11 H 0.4783 -2.1587 2.3729 0
M  V30 12 H -0.6698 2.3299 -1.1576 0
M  V30 13 H 0.8751 -2.4769 0.0896 0
M  V30 14 H 0.0654 0.9675 -3.1928 0
M  V30 END ATOM
M  V30 BEGIN BOND
M  V30 1 2 1 2
M  V30 2 1 2 3
M  V30 3 1 2 4
M  V30 4 2 3 5
M  V30 5 1 4 6
M  V30 6 2 4 7
M  V30 7 1 5 8
M  V30 8 1 6 9
M  V30 9 1 7 10
M  V30 10 1 7 8
M  V30 11 2 9 10
M  V30 12 1 5 11
M  V30 13 1 6 12
M  V30 14 1 8 13
M  V30 15 1 9 14
M  V30 END BOND
M  V30 END CTAB
M  END
>  <Column 1>
178

>  <level_0>
205

>  <index>
205

>  <Unnamed: 0>
205

>  <NO.>
206

>  <Name>
6-mercaptopurine

>  <IUPAC_name>
3-7-dihydropurine-6-thione

>  <SMILES>
S=c1nc[nH]c2nc[nH]c12

>  <CID>
667490

>  <logBB>
-0.71

>  <BBB+/BBB->
BBB+

>  <Inchi>
InChI=1S/C5H4N4S/c10-5-3-4(7-1-6-3)8-2-9-5/h1-2H-(H2-6-7-8-9-10)

>  <threshold>


>  <reference>
R18|R26|R27|

>  <group>
A

>  <Class>
1

>  <ABC>
7.81

>  <ABCGG>
7.34

>  <nAcid>
0

>  <nBase>
0

>  <nAromAtom>
9

>  <nAromBond>
10

>  <nAtom>
14

>  <nHeavyAtom>
10

>  <nSpiro>
0

>  <nBridgehead>
0

>  <nHetero>
5

>  <nN>
4

>  <nO>
0

>  <nF>
0

>  <BalabanJ>
2.03

>  <BertzCT>
400.94

>  <nBonds>
15

>  <nBondsO>
11

>  <nBondsS>
4

>  <nBondsD>
1

>  <nBondsT>
0

>  <nBondsA>
10

>  <nBondsM>
11

>  <nBondsKS>
11

>  <nBondsKD>
4

>  <RNCG>
0.29

>  <RPCG>
0.14

>  <FCSP3>
0

>  <SZ>
13

>  <Sm>
12.67

>  <Sv>
10.3

>  <Sse>
14.51

>  <Sp>
10.97

>  <Si>
15.91

>  <MZ>
0.93

>  <Mm>
0.9

>  <Mv>
0.74

>  <Mse>
1.04

>  <Mp>
0.78

>  <Mi>
1.14

>  <NsCH3>
0

>  <NdCH2>
0

>  <NssCH2>
0

>  <NtCH>
0

>  <NdsCH>
0

>  <NaaCH>
2

>  <NsssCH>
0

>  <NddC>
0

>  <NtsC>
0

>  <NdssC>
0

>  <NaasC>
0

>  <NaaaC>
2

>  <NssssC>
0

>  <NsNH3>
0

>  <NsNH2>
0

>  <NssNH2>
0

>  <NdNH>
0

>  <NssNH>
0

>  <NaaNH>
2

>  <NtN>
0

>  <NsssNH>
0

>  <NdsN>
0

>  <NaaN>
2

>  <NsssN>
0

>  <NddsN>
0

>  <NaasN>
0

>  <NssssN>
0

>  <NsOH>
0

>  <NdO>
0

>  <NssO>
0

>  <NaaO>
0

>  <NsF>
0

>  <NsSiH3>
0

>  <NssSiH2>
0

>  <NsssSiH>
0

>  <NssssSi>
0

>  <NsPH2>
0

>  <NssPH>
0

>  <NsssP>
0

>  <NdsssP>
0

>  <NsssssP>
0

>  <NsSH>
0

>  <NdS>
1

>  <NssS>
0

>  <NaaS>
0

>  <NdssS>
0

>  <NddssS>
0

>  <NsCl>
0

>  <NsBr>
0

>  <NsI>
0

>  <fragCpx>
31.05

>  <fMF>
0.64

>  <nHBAcc>
3

>  <nHBDon>
2

>  <Kier1>
6.69

>  <Kier2>
2.56

>  <Lipinski>
1

>  <GhoseFilter>
0

>  <FilterItLogS>
-1.96

>  <VMcGowan>
98.66

>  <LabuteASA>
61.34

>  <PEOE_VSA1>
9.97

>  <PEOE_VSA2>
0

>  <PEOE_VSA3>
9.97

>  <PEOE_VSA4>
0

>  <PEOE_VSA5>
0

>  <PEOE_VSA6>
12.22

>  <PEOE_VSA7>
0

>  <PEOE_VSA8>
0

>  <PEOE_VSA9>
12.65

>  <PEOE_VSA10>
5.52

>  <PEOE_VSA11>
10.29

>  <PEOE_VSA12>
0

>  <PEOE_VSA13>
0

>  <SMR_VSA1>
0

>  <SMR_VSA2>
0

>  <SMR_VSA3>
19.94

>  <SMR_VSA4>
0

>  <SMR_VSA5>
0

>  <SMR_VSA6>
0

>  <SMR_VSA7>
17.3

>  <SMR_VSA8>
0

>  <SMR_VSA9>
0

>  <SlogP_VSA1>
0

>  <SlogP_VSA2>
19.94

>  <SlogP_VSA3>
0

>  <SlogP_VSA4>
4.64

>  <SlogP_VSA5>
0

>  <SlogP_VSA6>
12.65

>  <SlogP_VSA7>
0

>  <SlogP_VSA8>
11.16

>  <SlogP_VSA9>
0

>  <SlogP_VSA10>
0

>  <SlogP_VSA11>
0

>  <EState_VSA1>
0

>  <EState_VSA2>
0

>  <EState_VSA3>
4.64

>  <EState_VSA4>
11.16

>  <EState_VSA5>
6.33

>  <EState_VSA6>
6.33

>  <EState_VSA7>
0

>  <EState_VSA8>
19.94

>  <EState_VSA9>
12.22

>  <EState_VSA10>
0

>  <VSA_EState1>
0.55

>  <VSA_EState2>
13.56

>  <VSA_EState3>
0

>  <VSA_EState4>
1.54

>  <VSA_EState5>
0

>  <VSA_EState6>
0

>  <VSA_EState7>
3.12

>  <VSA_EState8>
0

>  <VSA_EState9>
0

>  <apol>
18.32

>  <bpol>
8.66

>  <nRing>
2

>  <nHRing>
2

>  <naRing>
2

>  <naHRing>
2

>  <nARing 2>
0

>  <nAHRing 2>
0

>  <nFRing>
1

>  <nFHRing>
1

>  <nFaRing>
1

>  <nFaHRing>
1

>  <nFARing 2>
0

>  <nFAHRing 2>
0

>  <nRot>
0

>  <SLogP>
1.02

>  <SMR>
39.07

>  <TopoPSA(NO)>
57.36

>  <TopoPSA>
89.45

>  <JGI1>
0.14

>  <JGI2>
0.09

>  <JGI3>
0.05

>  <JGI4>
0.05

>  <JGI5>
0

>  <Diameter>
4

>  <Radius>
3

>  <TMWC10>
87.58

>  <TSRW10>
53.75

>  <MW>
152.02

>  <AMW>
10.86

>  <WPath>
105

>  <WPol>
12

>  <Zagreb1>
52

>  <Zagreb2>
61

>  <mZagreb2>
2.22

>  <yes>


>  <nAR-cont>
0.336376

>  <nHA-cont>
0.645914733

>  <MWHBN>
0.405526874

>  <MWHBN-cont>
0.454338843

>  <TPSA-cont>
0.375583455

>  <pka_cont>
0.97

>  <yes.1>


>  <BBB_SCORE>
2.899965908

>  <MMFF94 Energy>
-78.943

$$$$
Compound 138
Actelion Java MolfileCreator 2.0

  0  0  0  0  0  0              0 V3000
M  V30 BEGIN CTAB
M  V30 COUNTS 49 52 0 0 0
M  V30 BEGIN ATOM
M  V30 1 O 3.043 -2.0012 -3.2034 0
M  V30 2 C 3.2247 -2.0009 -1.8488 0
M  V30 3 C 3.8108 -2.9343 -3.9541 0
M  V30 4 C 2.4466 -1.0714 -1.1528 0
M  V30 5 C 4.0878 -2.8201 -1.1368 0
M  V30 6 C 2.511 -0.9399 0.2579 0
M  V30 7 C 4.1618 -2.7029 0.2547 0
M  V30 8 C 3.3969 -1.7875 0.9632 0
M  V30 9 C 1.743 -0.0121 1.0192 0
M  V30 10 N 3.5401 -1.7574 2.2961 0
M  V30 11 C 1.9039 0.0 2.4113 0
M  V30 12 C 0.7473 0.9415 0.37 0 CFG=2
M  V30 13 C 2.7993 -0.874 2.9916 0
M  V30 14 O 0.5642 2.0862 1.2043 0
M  V30 15 C -0.6071 0.2506 0.0691 0 CFG=2
M  V30 16 C -1.4783 1.0161 -0.9687 0 CFG=2
M  V30 17 C -1.462 -0.0415 1.3276 0
M  V30 18 C -2.1297 2.2788 -0.373 0
M  V30 19 C -2.6282 0.0767 -1.3918 0
M  V30 20 C -2.927 0.3849 1.0955 0 CFG=1
M  V30 21 C -2.9354 1.9234 0.8959 0
M  V30 22 C -3.4452 -0.34 -0.1616 0
M  V30 23 C -4.3334 2.4925 0.837 0
M  V30 24 C -4.8337 3.3417 1.7441 0
M  V30 25 H 4.8829 -2.7371 -3.8502 0
M  V30 26 H 3.5499 -2.8092 -5.0094 0
M  V30 27 H 3.568 -3.9638 -3.6706 0
M  V30 28 H 1.7779 -0.4474 -1.7397 0
M  V30 29 H 4.7166 -3.5593 -1.6206 0
M  V30 30 H 4.8407 -3.3503 0.8062 0
M  V30 31 H 1.34 0.6837 3.0389 0
M  V30 32 H 1.1919 1.315 -0.5599 0
M  V30 33 H 2.9491 -0.8875 4.0673 0
M  V30 34 H 0.6318 2.8704 0.6344 0
M  V30 35 H -0.3756 -0.7212 -0.3902 0
M  V30 36 H -0.8827 1.2802 -1.8498 0
M  V30 37 H -1.0745 0.4669 2.2171 0
M  V30 38 H -1.4194 -1.1153 1.5501 0
M  V30 39 H -1.3725 3.0315 -0.1334 0
M  V30 40 H -2.7685 2.747 -1.134 0
M  V30 41 H -3.2793 0.5775 -2.1188 0
M  V30 42 H -2.2312 -0.8134 -1.8942 0
M  V30 43 H -3.5321 0.1049 1.966 0
M  V30 44 H -2.4188 2.3763 1.7543 0
M  V30 45 H -3.3694 -1.4255 -0.0217 0
M  V30 46 H -4.5072 -0.1287 -0.3287 0
M  V30 47 H -4.9647 2.1942 0.0023 0
M  V30 48 H -4.2511 3.6754 2.5973 0
M  V30 49 H -5.8468 3.7209 1.6504 0
M  V30 END ATOM
M  V30 BEGIN BOND
M  V30 1 1 1 2
M  V30 2 1 1 3
M  V30 3 2 2 4
M  V30 4 1 2 5
M  V30 5 1 4 6
M  V30 6 2 5 7
M  V30 7 1 6 8
M  V30 8 2 6 9
M  V30 9 2 8 10
M  V30 10 1 9 11
M  V30 11 1 9 12
M  V30 12 1 10 13
M  V30 13 1 12 14
M  V30 14 1 12 15
M  V30 15 1 15 16
M  V30 16 1 15 17
M  V30 17 1 16 18
M  V30 18 1 16 19
M  V30 19 1 17 20
M  V30 20 1 18 21
M  V30 21 1 19 22
M  V30 22 1 21 23
M  V30 23 2 23 24
M  V30 24 1 7 8
M  V30 25 2 11 13
M  V30 26 1 20 21
M  V30 27 1 20 22
M  V30 28 1 3 25
M  V30 29 1 3 26
M  V30 30 1 3 27
M  V30 31 1 4 28
M  V30 32 1 5 29
M  V30 33 1 7 30
M  V30 34 1 11 31
M  V30 35 1 12 32
M  V30 36 1 13 33
M  V30 37 1 14 34
M  V30 38 1 15 35
M  V30 39 1 16 36
M  V30 40 1 17 37
M  V30 41 1 17 38
M  V30 42 1 18 39
M  V30 43 1 18 40
M  V30 44 1 19 41
M  V30 45 1 19 42
M  V30 46 1 20 43
M  V30 47 1 21 44
M  V30 48 1 22 45
M  V30 49 1 22 46
M  V30 50 1 23 47
M  V30 51 1 24 48
M  V30 52 1 24 49
M  V30 END BOND
M  V30 BEGIN COLLECTION
M  V30 MDLV30/STEABS ATOMS=(4 12 15 16 20)
M  V30 END COLLECTION
M  V30 END CTAB
M  END
>  <Column 1>
179

>  <level_0>
208

>  <index>
208

>  <Unnamed: 0>
208

>  <NO.>
209

>  <Name>
quinidine

>  <IUPAC_name>


>  <SMILES>
C=CC1C[C@@H]2CC[C@H]1C[C@@H]2[C@@H](O)c1ccnc2ccc(OC)cc12

>  <CID>


>  <logBB>
-0.7

>  <BBB+/BBB->
BBB+

>  <Inchi>
InChI=1S/C21H25NO2/c1-3-13-10-15-5-4-14(13)11-18(15)21(23)17-8-9-22-20-7-6-16(24-2)12-19(17)20/h3-6-9-12-15-18-21-23H-1-4-5-10-11H2-2H3/t13?-14--15--18--21-/m0/s1

>  <threshold>


>  <reference>
R18|R26|R27|

>  <group>
A

>  <Class>
1

>  <ABC>
18.96

>  <ABCGG>
14.85

>  <nAcid>
0

>  <nBase>
0

>  <nAromAtom>
10

>  <nAromBond>
11

>  <nAtom>
49

>  <nHeavyAtom>
24

>  <nSpiro>
0

>  <nBridgehead>
2

>  <nHetero>
3

>  <nN>
1

>  <nO>
2

>  <nF>
0

>  <BalabanJ>
1.46

>  <BertzCT>
756.59

>  <nBonds>
52

>  <nBondsO>
27

>  <nBondsS>
40

>  <nBondsD>
1

>  <nBondsT>
0

>  <nBondsA>
11

>  <nBondsM>
12

>  <nBondsKS>
46

>  <nBondsKD>
6

>  <RNCG>
0.29

>  <RPCG>
0.12

>  <FCSP3>
0.48

>  <SZ>
29

>  <Sm>
26.93

>  <Sv>
29.96

>  <Sse>
48.42

>  <Sp>
32.6

>  <Si>
54.9

>  <MZ>
0.59

>  <Mm>
0.55

>  <Mv>
0.61

>  <Mse>
0.99

>  <Mp>
0.67

>  <Mi>
1.12

>  <NsCH3>
1

>  <NdCH2>
1

>  <NssCH2>
4

>  <NtCH>
0

>  <NdsCH>
1

>  <NaaCH>
5

>  <NsssCH>
5

>  <NddC>
0

>  <NtsC>
0

>  <NdssC>
0

>  <NaasC>
2

>  <NaaaC>
2

>  <NssssC>
0

>  <NsNH3>
0

>  <NsNH2>
0

>  <NssNH2>
0

>  <NdNH>
0

>  <NssNH>
0

>  <NaaNH>
0

>  <NtN>
0

>  <NsssNH>
0

>  <NdsN>
0

>  <NaaN>
1

>  <NsssN>
0

>  <NddsN>
0

>  <NaasN>
0

>  <NssssN>
0

>  <NsOH>
1

>  <NdO>
0

>  <NssO>
1

>  <NaaO>
0

>  <NsF>
0

>  <NsSiH3>
0

>  <NssSiH2>
0

>  <NsssSiH>
0

>  <NssssSi>
0

>  <NsPH2>
0

>  <NssPH>
0

>  <NsssP>
0

>  <NdsssP>
0

>  <NsssssP>
0

>  <NsSH>
0

>  <NdS>
0

>  <NssS>
0

>  <NaaS>
0

>  <NdssS>
0

>  <NddssS>
0

>  <NsCl>
0

>  <NsBr>
0

>  <NsI>
0

>  <fragCpx>
177.03

>  <fMF>
0.39

>  <nHBAcc>
3

>  <nHBDon>
1

>  <Kier1>
17.42

>  <Kier2>
7.32

>  <Lipinski>
1

>  <GhoseFilter>
1

>  <FilterItLogS>
-4.26

>  <VMcGowan>
259.23

>  <LabuteASA>
142.92

>  <PEOE_VSA1>
9.84

>  <PEOE_VSA2>
4.98

>  <PEOE_VSA3>
0

>  <PEOE_VSA4>
0

>  <PEOE_VSA5>
6.58

>  <PEOE_VSA6>
6.08

>  <PEOE_VSA7>
79.18

>  <PEOE_VSA8>
11.58

>  <PEOE_VSA9>
18.73

>  <PEOE_VSA10>
5.75

>  <PEOE_VSA11>
0

>  <PEOE_VSA12>
0

>  <PEOE_VSA13>
0

>  <SMR_VSA1>
9.84

>  <SMR_VSA2>
0

>  <SMR_VSA3>
4.98

>  <SMR_VSA4>
23.67

>  <SMR_VSA5>
31.79

>  <SMR_VSA6>
7.11

>  <SMR_VSA7>
48.68

>  <SMR_VSA8>
0

>  <SMR_VSA9>
5.75

>  <SlogP_VSA1>
4.74

>  <SlogP_VSA2>
17.2

>  <SlogP_VSA3>
0

>  <SlogP_VSA4>
23.67

>  <SlogP_VSA5>
37.35

>  <SlogP_VSA6>
43.12

>  <SlogP_VSA7>
0

>  <SlogP_VSA8>
10.9

>  <SlogP_VSA9>
0

>  <SlogP_VSA10>
0

>  <SlogP_VSA11>
5.75

>  <EState_VSA1>
6.1

>  <EState_VSA2>
0

>  <EState_VSA3>
23.67

>  <EState_VSA4>
28.64

>  <EState_VSA5>
19.26

>  <EState_VSA6>
13.31

>  <EState_VSA7>
24.27

>  <EState_VSA8>
17.64

>  <EState_VSA9>
4.74

>  <EState_VSA10>
5.11

>  <VSA_EState1>
5.36

>  <VSA_EState2>
4.44

>  <VSA_EState3>
12.2

>  <VSA_EState4>
1.91

>  <VSA_EState5>
3.08

>  <VSA_EState6>
7.85

>  <VSA_EState7>
8.32

>  <VSA_EState8>
4.01

>  <VSA_EState9>
1.67

>  <apol>
54.44

>  <bpol>
27.96

>  <nRing>
5

>  <nHRing>
1

>  <naRing>
2

>  <naHRing>
1

>  <nARing 2>
3

>  <nAHRing 2>
0

>  <nFRing>
2

>  <nFHRing>
1

>  <nFaRing>
1

>  <nFaHRing>
1

>  <nFARing 2>
1

>  <nFAHRing 2>
0

>  <nRot>
4

>  <SLogP>
4.52

>  <SMR>
95.88

>  <TopoPSA(NO)>
42.35

>  <TopoPSA>
42.35

>  <JGI1>
0.17

>  <JGI2>
0.08

>  <JGI3>
0.04

>  <JGI4>
0.05

>  <JGI5>
0.03

>  <Diameter>
12

>  <Radius>
6

>  <TMWC10>
127.51

>  <TSRW10>
59.27

>  <MW>
323.19

>  <AMW>
6.6

>  <WPath>
1286

>  <WPol>
42

>  <Zagreb1>
132

>  <Zagreb2>
161

>  <mZagreb2>
5.33

>  <yes>


>  <nAR-cont>
0.691115

>  <nHA-cont>
0.94700071

>  <MWHBN>
0.222500522

>  <MWHBN-cont>
0.993263911

>  <TPSA-cont>
0.704370702

>  <pka_cont>
0.97

>  <yes.1>


>  <BBB_SCORE>
5.02175298

>  <MMFF94 Energy>
79.515

$$$$
Compound 139
Actelion Java MolfileCreator 2.0

  0  0  0  0  0  0              0 V3000
M  V30 BEGIN CTAB
M  V30 COUNTS 60 63 0 0 0
M  V30 BEGIN ATOM
M  V30 1 F 1.6083 -3.5409 -5.7993 0
M  V30 2 C 1.4535 -2.2917 -5.3432 0
M  V30 3 C 2.5689 -1.5235 -5.0529 0
M  V30 4 C 0.1788 -1.7741 -5.1777 0
M  V30 5 C 2.405 -0.2192 -4.5768 0
M  V30 6 C 0.0143 -0.4684 -4.7025 0
M  V30 7 C 1.1221 0.3348 -4.3654 0
M  V30 8 C 0.9728 1.7877 -3.8527 0
M  V30 9 C 1.3111 2.7114 -4.975 0
M  V30 10 C 1.9406 2.0957 -2.6699 0
M  V30 11 C -0.4569 2.1639 -3.3598 0
M  V30 12 N 1.5781 3.4473 -5.8326 0
M  V30 13 C 1.5702 1.3496 -1.384 0
M  V30 14 C -0.8687 1.4601 -2.06 0
M  V30 15 C 0.1453 1.7078 -0.9272 0
M  V30 16 N -0.3066 1.061 0.32 0
M  V30 17 C -0.1473 -0.3965 0.3589 0
M  V30 18 C 0.2845 1.6834 1.5092 0
M  V30 19 C -0.8564 -1.0104 1.5871 0
M  V30 20 C -0.3641 1.1531 2.7923 0
M  V30 21 C -0.2909 -0.3965 2.9181 0
M  V30 22 C -2.3833 -0.8563 1.436 0
M  V30 23 C -1.0286 -0.9497 4.1621 0
M  V30 24 C 1.2072 -0.7433 3.0952 0
M  V30 25 C -1.1165 -2.3425 4.3651 0
M  V30 26 C -1.6091 -0.119 5.1359 0
M  V30 27 O 2.0539 -0.0547 3.6464 0
M  V30 28 O 1.5654 -1.953 2.6152 0
M  V30 29 C -1.7667 -2.8777 5.4799 0
M  V30 30 C -2.2599 -0.6556 6.2518 0
M  V30 31 C -2.3405 -2.0334 6.4231 0
M  V30 32 H 3.5605 -1.9369 -5.208 0
M  V30 33 H -0.6834 -2.385 -5.4267 0
M  V30 34 H 3.3072 0.3604 -4.3929 0
M  V30 35 H -1.0059 -0.1052 -4.6118 0
M  V30 36 H 1.9221 3.1747 -2.4553 0
M  V30 37 H 2.9846 1.8798 -2.923 0
M  V30 38 H -1.2114 1.9834 -4.1352 0
M  V30 39 H -0.5004 3.2482 -3.1763 0
M  V30 40 H 1.6704 0.272 -1.554 0
M  V30 41 H 2.2941 1.6174 -0.6059 0
M  V30 42 H -0.9911 0.3898 -2.2483 0
M  V30 43 H -1.8552 1.8342 -1.7573 0
M  V30 44 H 0.1234 2.7942 -0.7572 0
M  V30 45 H -0.5743 -0.8577 -0.538 0
M  V30 46 H 0.9133 -0.6728 0.3694 0
M  V30 47 H 1.3696 1.5319 1.5384 0
M  V30 48 H 0.1174 2.7675 1.4848 0
M  V30 49 H -0.656 -2.0892 1.5565 0
M  V30 50 H -1.4092 1.4891 2.8136 0
M  V30 51 H 0.1276 1.6397 3.6451 0
M  V30 52 H -2.9214 -1.3891 2.2253 0
M  V30 53 H -2.7151 -1.2827 0.4826 0
M  V30 54 H -2.704 0.1891 1.4569 0
M  V30 55 H -0.6744 -3.0361 3.6527 0
M  V30 56 H -1.571 0.9638 5.0577 0
M  V30 57 H 2.5088 -2.0299 2.8719 0
M  V30 58 H -1.8219 -3.9553 5.6099 0
M  V30 59 H -2.7027 0.0085 6.99 0
M  V30 60 H -2.846 -2.447 7.2913 0
M  V30 END ATOM
M  V30 BEGIN BOND
M  V30 1 1 1 2
M  V30 2 2 2 3
M  V30 3 1 2 4
M  V30 4 1 3 5
M  V30 5 2 4 6
M  V30 6 2 5 7
M  V30 7 1 7 8
M  V30 8 1 8 9
M  V30 9 1 8 10
M  V30 10 1 8 11
M  V30 11 3 9 12
M  V30 12 1 10 13
M  V30 13 1 11 14
M  V30 14 1 13 15
M  V30 15 1 15 16
M  V30 16 1 16 17
M  V30 17 1 16 18
M  V30 18 1 17 19
M  V30 19 1 18 20
M  V30 20 1 19 21
M  V30 21 1 19 22
M  V30 22 1 21 23
M  V30 23 1 21 24
M  V30 24 2 23 25
M  V30 25 1 23 26
M  V30 26 2 24 27
M  V30 27 1 24 28
M  V30 28 1 25 29
M  V30 29 2 26 30
M  V30 30 2 29 31
M  V30 31 1 6 7
M  V30 32 1 14 15
M  V30 33 1 20 21
M  V30 34 1 30 31
M  V30 35 1 3 32
M  V30 36 1 4 33
M  V30 37 1 5 34
M  V30 38 1 6 35
M  V30 39 1 10 36
M  V30 40 1 10 37
M  V30 41 1 11 38
M  V30 42 1 11 39
M  V30 43 1 13 40
M  V30 44 1 13 41
M  V30 45 1 14 42
M  V30 46 1 14 43
M  V30 47 1 15 44
M  V30 48 1 17 45
M  V30 49 1 17 46
M  V30 50 1 18 47
M  V30 51 1 18 48
M  V30 52 1 19 49
M  V30 53 1 20 50
M  V30 54 1 20 51
M  V30 55 1 22 52
M  V30 56 1 22 53
M  V30 57 1 22 54
M  V30 58 1 25 55
M  V30 59 1 26 56
M  V30 60 1 28 57
M  V30 61 1 29 58
M  V30 62 1 30 59
M  V30 63 1 31 60
M  V30 END BOND
M  V30 END CTAB
M  END
>  <Column 1>
181

>  <level_0>
210

>  <index>
210

>  <Unnamed: 0>
210

>  <NO.>
211

>  <Name>
levocabastine hydrochloride

>  <IUPAC_name>
1-[4-cyano-4-(4-fluorophenyl)cyclohexyl]-3-methyl-4-phenylpiperidine-4-carboxylic acid

>  <SMILES>
CC1CN(C2CCC(C#N)(c3ccc(F)cc3)CC2)CCC1(C(=O)O)c1ccccc1

>  <CID>
3915

>  <logBB>
-0.7

>  <BBB+/BBB->
BBB+

>  <Inchi>
InChI=1S/C26H29FN2O2/c1-19-17-29(16-15-26(19-24(30)31)21-5-3-2-4-6-21)23-11-13-25(18-28-14-12-23)20-7-9-22(27)10-8-20/h2-10-19-23H-11-17H2-1H3-(H-30-31)

>  <threshold>


>  <reference>
R2|R2|R25|R46|R47|

>  <group>
A

>  <Class>
1

>  <ABC>
24.19

>  <ABCGG>
18.31

>  <nAcid>
1

>  <nBase>
1

>  <nAromAtom>
12

>  <nAromBond>
12

>  <nAtom>
60

>  <nHeavyAtom>
31

>  <nSpiro>
0

>  <nBridgehead>
0

>  <nHetero>
5

>  <nN>
2

>  <nO>
2

>  <nF>
1

>  <BalabanJ>
1.37

>  <BertzCT>
961.15

>  <nBonds>
63

>  <nBondsO>
34

>  <nBondsS>
49

>  <nBondsD>
1

>  <nBondsT>
1

>  <nBondsA>
12

>  <nBondsM>
14

>  <nBondsKS>
55

>  <nBondsKD>
7

>  <RNCG>
0.22

>  <RPCG>
0.14

>  <FCSP3>
0.46

>  <SZ>
37.33

>  <Sm>
35.01

>  <Sv>
37.45

>  <Sse>
59.82

>  <Sp>
40.19

>  <Si>
67.57

>  <MZ>
0.62

>  <Mm>
0.58

>  <Mv>
0.62

>  <Mse>
1

>  <Mp>
0.67

>  <Mi>
1.13

>  <NsCH3>
1

>  <NdCH2>
0

>  <NssCH2>
7

>  <NtCH>
0

>  <NdsCH>
0

>  <NaaCH>
9

>  <NsssCH>
2

>  <NddC>
0

>  <NtsC>
1

>  <NdssC>
1

>  <NaasC>
3

>  <NaaaC>
0

>  <NssssC>
2

>  <NsNH3>
0

>  <NsNH2>
0

>  <NssNH2>
0

>  <NdNH>
0

>  <NssNH>
0

>  <NaaNH>
0

>  <NtN>
1

>  <NsssNH>
0

>  <NdsN>
0

>  <NaaN>
0

>  <NsssN>
1

>  <NddsN>
0

>  <NaasN>
0

>  <NssssN>
0

>  <NsOH>
1

>  <NdO>
1

>  <NssO>
0

>  <NaaO>
0

>  <NsF>
1

>  <NsSiH3>
0

>  <NssSiH2>
0

>  <NsssSiH>
0

>  <NssssSi>
0

>  <NsPH2>
0

>  <NssPH>
0

>  <NsssP>
0

>  <NdsssP>
0

>  <NsssssP>
0

>  <NsSH>
0

>  <NdS>
0

>  <NssS>
0

>  <NaaS>
0

>  <NdssS>
0

>  <NddssS>
0

>  <NsCl>
0

>  <NsBr>
0

>  <NsI>
0

>  <fragCpx>
226.05

>  <fMF>
0.4

>  <nHBAcc>
3

>  <nHBDon>
1

>  <Kier1>
24.13

>  <Kier2>
10.09

>  <Lipinski>
1

>  <GhoseFilter>
1

>  <FilterItLogS>
-5.49

>  <VMcGowan>
328.52

>  <LabuteASA>
182.86

>  <PEOE_VSA1>
10.01

>  <PEOE_VSA2>
4.79

>  <PEOE_VSA3>
4.39

>  <PEOE_VSA4>
5.26

>  <PEOE_VSA5>
0

>  <PEOE_VSA6>
49.39

>  <PEOE_VSA7>
67.83

>  <PEOE_VSA8>
12.59

>  <PEOE_VSA9>
16.9

>  <PEOE_VSA10>
5.82

>  <PEOE_VSA11>
0

>  <PEOE_VSA12>
0

>  <PEOE_VSA13>
0

>  <SMR_VSA1>
14.29

>  <SMR_VSA2>
5.26

>  <SMR_VSA3>
4.9

>  <SMR_VSA4>
5.92

>  <SMR_VSA5>
55.9

>  <SMR_VSA6>
13.09

>  <SMR_VSA7>
71.54

>  <SMR_VSA8>
0

>  <SMR_VSA9>
6.07

>  <SlogP_VSA1>
0

>  <SlogP_VSA2>
35.11

>  <SlogP_VSA3>
15.62

>  <SlogP_VSA4>
23.07

>  <SlogP_VSA5>
50.15

>  <SlogP_VSA6>
54.6

>  <SlogP_VSA7>
0

>  <SlogP_VSA8>
0

>  <SlogP_VSA9>
0

>  <SlogP_VSA10>
4.39

>  <SlogP_VSA11>
0

>  <EState_VSA1>
16.8

>  <EState_VSA2>
11.74

>  <EState_VSA3>
12.46

>  <EState_VSA4>
49.9

>  <EState_VSA5>
12.13

>  <EState_VSA6>
12.13

>  <EState_VSA7>
37.26

>  <EState_VSA8>
10.97

>  <EState_VSA9>
0

>  <EState_VSA10>
19.55

>  <VSA_EState1>
13.33

>  <VSA_EState2>
14.83

>  <VSA_EState3>
20.11

>  <VSA_EState4>
0.38

>  <VSA_EState5>
-1.04

>  <VSA_EState6>
18.83

>  <VSA_EState7>
3.86

>  <VSA_EState8>
3.53

>  <VSA_EState9>
0

>  <apol>
67.12

>  <bpol>
33.35

>  <nRing>
4

>  <nHRing>
1

>  <naRing>
2

>  <naHRing>
0

>  <nARing 2>
2

>  <nAHRing 2>
1

>  <nFRing>
0

>  <nFHRing>
0

>  <nFaRing>
0

>  <nFaHRing>
0

>  <nFARing 2>
0

>  <nFAHRing 2>
0

>  <nRot>
4

>  <SLogP>
4.89

>  <SMR>
117.06

>  <TopoPSA(NO)>
64.33

>  <TopoPSA>
64.33

>  <JGI1>
0.24

>  <JGI2>
0.11

>  <JGI3>
0.05

>  <JGI4>
0.03

>  <JGI5>
0.04

>  <Diameter>
16

>  <Radius>
8

>  <TMWC10>
143.83

>  <TSRW10>
67.51

>  <MW>
420.22

>  <AMW>
7

>  <WPath>
2806

>  <WPol>
59

>  <Zagreb1>
168

>  <Zagreb2>
205

>  <mZagreb2>
6.86

>  <yes>


>  <nAR-cont>
1

>  <nHA-cont>
0.702745138

>  <MWHBN>
0.195128916

>  <MWHBN-cont>
0.998228815

>  <TPSA-cont>
0.550936653

>  <pka_cont>
0.97

>  <yes.1>


>  <BBB_SCORE>
4.786961667

>  <MMFF94 Energy>
73.259

$$$$
Compound 140
Actelion Java MolfileCreator 2.0

  0  0  0  0  0  0              0 V3000
M  V30 BEGIN CTAB
M  V30 COUNTS 23 24 0 0 0
M  V30 BEGIN ATOM
M  V30 1 Cl 1.36 2.2407 -2.2407 0
M  V30 2 C 1.4732 1.2634 -0.8198 0
M  V30 3 C 0.458 0.3709 -0.4398 0
M  V30 4 C 2.641 1.377 -0.0584 0
M  V30 5 C 0.6538 -0.4296 0.6974 0
M  V30 6 C -0.8637 0.2401 -1.1768 0 CFG=1
M  V30 7 C 2.8131 0.5981 1.0831 0
M  V30 8 N -0.3081 -1.3903 1.0138 0
M  V30 9 C 1.8238 -0.3091 1.4555 0
M  V30 10 N -1.6747 -0.9603 -0.8685 0
M  V30 11 C -1.7717 1.4453 -0.9003 0
M  V30 12 C -1.3502 -1.6275 0.1811 0
M  V30 13 N -2.0891 -2.6997 0.5305 0
M  V30 14 H 3.4237 2.0713 -0.3549 0
M  V30 15 H -0.65 0.1877 -2.2508 0
M  V30 16 H 3.7227 0.6872 1.6712 0
M  V30 17 H -0.2044 -1.9165 1.8635 0
M  V30 18 H 1.9793 -0.931 2.3329 0
M  V30 19 H -2.711 1.3552 -1.4576 0
M  V30 20 H -1.3077 2.3936 -1.1846 0
M  V30 21 H -2.0278 1.5097 0.164 0
M  V30 22 H -1.8147 -3.3649 1.2327 0
M  V30 23 H -2.87 -2.9254 -0.0718 0
M  V30 END ATOM
M  V30 BEGIN BOND
M  V30 1 1 1 2
M  V30 2 2 2 3
M  V30 3 1 2 4
M  V30 4 1 3 5
M  V30 5 1 3 6
M  V30 6 2 4 7
M  V30 7 1 5 8
M  V30 8 2 5 9
M  V30 9 1 6 10
M  V30 10 1 6 11
M  V30 11 1 8 12
M  V30 12 1 12 13
M  V30 13 1 7 9
M  V30 14 2 10 12
M  V30 15 1 4 14
M  V30 16 1 6 15
M  V30 17 1 7 16
M  V30 18 1 8 17
M  V30 19 1 9 18
M  V30 20 1 11 19
M  V30 21 1 11 20
M  V30 22 1 11 21
M  V30 23 1 13 22
M  V30 24 1 13 23
M  V30 END BOND
M  V30 BEGIN COLLECTION
M  V30 MDLV30/STERAC1 ATOMS=(1 6)
M  V30 END COLLECTION
M  V30 END CTAB
M  END
>  <Column 1>
182

>  <level_0>
211

>  <index>
211

>  <Unnamed: 0>
211

>  <NO.>
212

>  <Name>
5-chloro-4-methyl-1-4-dihydroquinazolin-2-amine

>  <IUPAC_name>
5-chloro-4-methyl-1-4-dihydroquinazolin-2-amine

>  <SMILES>
CC1N=C(N)Nc2cccc(Cl)c21

>  <CID>
16006492

>  <logBB>
-0.7

>  <BBB+/BBB->
BBB+

>  <Inchi>
InChI=1S/C9H10ClN3/c1-5-8-6(10)3-2-4-7(8)13-9(11)12-5/h2-5H-1H3-(H3-11-12-13)

>  <threshold>


>  <reference>
R2|R2|R20|R25|R46|

>  <group>
A

>  <Class>
1

>  <ABC>
10.11

>  <ABCGG>
8.88

>  <nAcid>
0

>  <nBase>
3

>  <nAromAtom>
6

>  <nAromBond>
6

>  <nAtom>
23

>  <nHeavyAtom>
13

>  <nSpiro>
0

>  <nBridgehead>
0

>  <nHetero>
4

>  <nN>
3

>  <nO>
0

>  <nF>
0

>  <BalabanJ>
2.08

>  <BertzCT>
373.12

>  <nBonds>
24

>  <nBondsO>
14

>  <nBondsS>
17

>  <nBondsD>
1

>  <nBondsT>
0

>  <nBondsA>
6

>  <nBondsM>
7

>  <nBondsKS>
20

>  <nBondsKD>
4

>  <RNCG>
0.31

>  <RPCG>
0.16

>  <FCSP3>
0.22

>  <SZ>
17

>  <Sm>
16.29

>  <Sv>
15.07

>  <Sse>
23.19

>  <Sp>
16.27

>  <Si>
26.1

>  <MZ>
0.74

>  <Mm>
0.71

>  <Mv>
0.66

>  <Mse>
1.01

>  <Mp>
0.71

>  <Mi>
1.13

>  <NsCH3>
1

>  <NdCH2>
0

>  <NssCH2>
0

>  <NtCH>
0

>  <NdsCH>
0

>  <NaaCH>
3

>  <NsssCH>
1

>  <NddC>
0

>  <NtsC>
0

>  <NdssC>
1

>  <NaasC>
3

>  <NaaaC>
0

>  <NssssC>
0

>  <NsNH3>
0

>  <NsNH2>
1

>  <NssNH2>
0

>  <NdNH>
0

>  <NssNH>
1

>  <NaaNH>
0

>  <NtN>
0

>  <NsssNH>
0

>  <NdsN>
1

>  <NaaN>
0

>  <NsssN>
0

>  <NddsN>
0

>  <NaasN>
0

>  <NssssN>
0

>  <NsOH>
0

>  <NdO>
0

>  <NssO>
0

>  <NaaO>
0

>  <NsF>
0

>  <NsSiH3>
0

>  <NssSiH2>
0

>  <NsssSiH>
0

>  <NssssSi>
0

>  <NsPH2>
0

>  <NssPH>
0

>  <NsssP>
0

>  <NdsssP>
0

>  <NsssssP>
0

>  <NsSH>
0

>  <NdS>
0

>  <NssS>
0

>  <NaaS>
0

>  <NdssS>
0

>  <NddssS>
0

>  <NsCl>
1

>  <NsBr>
0

>  <NsI>
0

>  <fragCpx>
40.04

>  <fMF>
0.43

>  <nHBAcc>
3

>  <nHBDon>
2

>  <Kier1>
9.55

>  <Kier2>
3.63

>  <Lipinski>
1

>  <GhoseFilter>
1

>  <FilterItLogS>
-3

>  <VMcGowan>
140.93

>  <LabuteASA>
81.61

>  <PEOE_VSA1>
11.05

>  <PEOE_VSA2>
0

>  <PEOE_VSA3>
4.99

>  <PEOE_VSA4>
0

>  <PEOE_VSA5>
0

>  <PEOE_VSA6>
17.67

>  <PEOE_VSA7>
19.06

>  <PEOE_VSA8>
16.27

>  <PEOE_VSA9>
6.04

>  <PEOE_VSA10>
0

>  <PEOE_VSA11>
5.96

>  <PEOE_VSA12>
0

>  <PEOE_VSA13>
0

>  <SMR_VSA1>
0

>  <SMR_VSA2>
0

>  <SMR_VSA3>
0

>  <SMR_VSA4>
10.73

>  <SMR_VSA5>
12.97

>  <SMR_VSA6>
5.32

>  <SMR_VSA7>
28.79

>  <SMR_VSA8>
0

>  <SMR_VSA9>
0

>  <SlogP_VSA1>
11.05

>  <SlogP_VSA2>
5.96

>  <SlogP_VSA3>
0

>  <SlogP_VSA4>
0

>  <SlogP_VSA5>
18.53

>  <SlogP_VSA6>
23.19

>  <SlogP_VSA7>
5.02

>  <SlogP_VSA8>
0

>  <SlogP_VSA9>
0

>  <SlogP_VSA10>
5.69

>  <SlogP_VSA11>
0

>  <EState_VSA1>
0

>  <EState_VSA2>
6.04

>  <EState_VSA3>
5.96

>  <EState_VSA4>
16.27

>  <EState_VSA5>
0

>  <EState_VSA6>
0

>  <EState_VSA7>
25.12

>  <EState_VSA8>
10.31

>  <EState_VSA9>
17.33

>  <EState_VSA10>
0

>  <VSA_EState1>
0

>  <VSA_EState2>
4.18

>  <VSA_EState3>
3.7

>  <VSA_EState4>
7.55

>  <VSA_EState5>
0.45

>  <VSA_EState6>
5.72

>  <VSA_EState7>
0

>  <VSA_EState8>
1.97

>  <VSA_EState9>
0

>  <apol>
27.18

>  <bpol>
11.68

>  <nRing>
2

>  <nHRing>
1

>  <naRing>
1

>  <naHRing>
0

>  <nARing 2>
1

>  <nAHRing 2>
1

>  <nFRing>
1

>  <nFHRing>
1

>  <nFaRing>
0

>  <nFaHRing>
0

>  <nFARing 2>
1

>  <nFAHRing 2>
1

>  <nRot>
0

>  <SLogP>
2.14

>  <SMR>
55.11

>  <TopoPSA(NO)>
50.41

>  <TopoPSA>
50.41

>  <JGI1>
0.21

>  <JGI2>
0.08

>  <JGI3>
0.08

>  <JGI4>
0.05

>  <JGI5>
0.04

>  <Diameter>
6

>  <Radius>
3

>  <TMWC10>
96.58

>  <TSRW10>
44.76

>  <MW>
195.06

>  <AMW>
8.48

>  <WPath>
220

>  <WPol>
20

>  <Zagreb1>
68

>  <Zagreb2>
80

>  <mZagreb2>
2.83

>  <yes>


>  <nAR-cont>
0.816016

>  <nHA-cont>
0.841215992

>  <MWHBN>
0.358002364

>  <MWHBN-cont>
0.640043255

>  <TPSA-cont>
0.648106897

>  <pka_cont>
0.97

>  <yes.1>


>  <BBB_SCORE>
4.398510669

>  <MMFF94 Energy>
-84.9

$$$$
Compound 141
Actelion Java MolfileCreator 2.0

  0  0  0  0  0  0              0 V3000
M  V30 BEGIN CTAB
M  V30 COUNTS 64 68 0 0 0
M  V30 BEGIN ATOM
M  V30 1 O -1.124 1.7668 2.1687 0
M  V30 2 C -1.3449 2.6846 1.3736 0
M  V30 3 N -1.1104 2.6019 -0.0021 0
M  V30 4 C -1.8594 4.0314 1.9249 0
M  V30 5 C -0.6067 1.4046 -0.5817 0
M  V30 6 C -1.4952 3.6842 -0.9155 0
M  V30 7 N -2.1764 5.0721 0.9473 0
M  V30 8 C 0.5453 0.8005 -0.0691 0
M  V30 9 C -1.2368 0.828 -1.6875 0
M  V30 10 C -1.3624 5.05 -0.2573 0
M  V30 11 C -3.2422 5.9571 1.0336 0
M  V30 12 C 1.0617 -0.3655 -0.6489 0
M  V30 13 C -0.7172 -0.3341 -2.2653 0
M  V30 14 O -3.6274 6.6418 0.0896 0
M  V30 15 C -3.9658 6.0936 2.3182 0
M  V30 16 C 0.4333 -0.9382 -1.7524 0
M  V30 17 C -3.2835 6.4185 3.4962 0
M  V30 18 C -5.3581 5.9594 2.3233 0
M  V30 19 O 0.8198 -2.066 -2.4177 0
M  V30 20 C -3.995 6.5699 4.69 0
M  V30 21 C -6.067 6.1112 3.5181 0
M  V30 22 C 1.9771 -2.7822 -1.9761 0
M  V30 23 C -5.3872 6.4131 4.7046 0
M  V30 24 C 1.6201 -3.7456 -0.8463 0
M  V30 25 C 2.4958 -3.5851 -3.1686 0
M  V30 26 C -6.1152 6.5725 5.9301 0
M  V30 27 C 2.803 -4.6498 -0.5066 0
M  V30 28 C 3.6515 -4.4929 -2.7561 0
M  V30 29 N -6.7013 6.7003 6.9236 0
M  V30 30 N 3.2429 -5.4253 -1.685 0
M  V30 31 C 4.3956 -6.281 -1.3098 0
M  V30 32 C 3.9257 -7.4768 -0.4303 0
M  V30 33 C 4.6763 -7.3376 -2.4183 0
M  V30 34 C 3.6909 -8.2878 -1.7163 0
M  V30 35 H -1.0722 4.434 2.5724 0
M  V30 36 H -2.7397 3.8089 2.5355 0
M  V30 37 H -2.5373 3.5105 -1.2104 0
M  V30 38 H -0.8621 3.6534 -1.8099 0
M  V30 39 H 1.0527 1.2266 0.7931 0
M  V30 40 H -2.1437 1.256 -2.104 0
M  V30 41 H -1.6565 5.8383 -0.9569 0
M  V30 42 H -0.3248 5.2385 0.0428 0
M  V30 43 H 1.9497 -0.7965 -0.2013 0
M  V30 44 H -1.2197 -0.7789 -3.1212 0
M  V30 45 H -2.2072 6.5715 3.4872 0
M  V30 46 H -5.8894 5.7426 1.3985 0
M  V30 47 H -3.4594 6.821 5.6044 0
M  V30 48 H -7.1504 6.001 3.514 0
M  V30 49 H 2.7779 -2.0952 -1.6756 0
M  V30 50 H 1.3124 -3.1921 0.0478 0
M  V30 51 H 0.7494 -4.3511 -1.1318 0
M  V30 52 H 2.8206 -2.8992 -3.9607 0
M  V30 53 H 1.6827 -4.18 -3.606 0
M  V30 54 H 2.4788 -5.3153 0.2994 0
M  V30 55 H 3.6279 -4.0443 -0.1072 0
M  V30 56 H 3.9676 -5.0391 -3.6502 0
M  V30 57 H 4.5067 -3.882 -2.437 0
M  V30 58 H 5.2765 -5.7456 -0.9396 0
M  V30 59 H 3.046 -7.3643 0.2072 0
M  V30 60 H 4.7334 -7.8871 0.1897 0
M  V30 61 H 4.4296 -7.1076 -3.4572 0
M  V30 62 H 5.7103 -7.7059 -2.3976 0
M  V30 63 H 2.6658 -8.2256 -2.099 0
M  V30 64 H 3.9901 -9.3383 -1.6769 0
M  V30 END ATOM
M  V30 BEGIN BOND
M  V30 1 2 1 2
M  V30 2 1 2 3
M  V30 3 1 2 4
M  V30 4 1 3 5
M  V30 5 1 3 6
M  V30 6 1 4 7
M  V30 7 2 5 8
M  V30 8 1 5 9
M  V30 9 1 6 10
M  V30 10 1 7 11
M  V30 11 1 8 12
M  V30 12 2 9 13
M  V30 13 2 11 14
M  V30 14 1 11 15
M  V30 15 2 12 16
M  V30 16 2 15 17
M  V30 17 1 15 18
M  V30 18 1 16 19
M  V30 19 1 17 20
M  V30 20 2 18 21
M  V30 21 1 19 22
M  V30 22 2 20 23
M  V30 23 1 22 24
M  V30 24 1 22 25
M  V30 25 1 23 26
M  V30 26 1 24 27
M  V30 27 1 25 28
M  V30 28 3 26 29
M  V30 29 1 27 30
M  V30 30 1 30 31
M  V30 31 1 31 32
M  V30 32 1 31 33
M  V30 33 1 32 34
M  V30 34 1 7 10
M  V30 35 1 13 16
M  V30 36 1 21 23
M  V30 37 1 28 30
M  V30 38 1 33 34
M  V30 39 1 4 35
M  V30 40 1 4 36
M  V30 41 1 6 37
M  V30 42 1 6 38
M  V30 43 1 8 39
M  V30 44 1 9 40
M  V30 45 1 10 41
M  V30 46 1 10 42
M  V30 47 1 12 43
M  V30 48 1 13 44
M  V30 49 1 17 45
M  V30 50 1 18 46
M  V30 51 1 20 47
M  V30 52 1 21 48
M  V30 53 1 22 49
M  V30 54 1 24 50
M  V30 55 1 24 51
M  V30 56 1 25 52
M  V30 57 1 25 53
M  V30 58 1 27 54
M  V30 59 1 27 55
M  V30 60 1 28 56
M  V30 61 1 28 57
M  V30 62 1 31 58
M  V30 63 1 32 59
M  V30 64 1 32 60
M  V30 65 1 33 61
M  V30 66 1 33 62
M  V30 67 1 34 63
M  V30 68 1 34 64
M  V30 END BOND
M  V30 END CTAB
M  END
>  <Column 1>
186

>  <level_0>
216

>  <index>
216

>  <Unnamed: 0>
216

>  <NO.>
217

>  <Name>
chembl239099

>  <IUPAC_name>
4-[4-[4-(1-cyclobutylpiperidin-4-yl)oxyphenyl]-3-oxopiperazine-1-carbonyl]benzonitrile

>  <SMILES>
N#Cc1ccc(C(=O)N2CCN(c3ccc(OC4CCN(C5CCC5)CC4)cc3)C(=O)C2)cc1

>  <CID>
15987108

>  <logBB>
-0.7

>  <BBB+/BBB->
BBB+

>  <Inchi>
InChI=1S/C27H30N4O3/c28-18-20-4-6-21(7-5-20)27(33)30-16-17-31(26(32)19-30)23-8-10-24(11-9-23)34-25-12-14-29(15-13-25)22-2-1-3-22/h4-11-22-25H-1-3-12-17-19H2

>  <threshold>


>  <reference>
R18|R26|R27|

>  <group>
A

>  <Class>
1

>  <ABC>
26.89

>  <ABCGG>
18.18

>  <nAcid>
0

>  <nBase>
1

>  <nAromAtom>
12

>  <nAromBond>
12

>  <nAtom>
64

>  <nHeavyAtom>
34

>  <nSpiro>
0

>  <nBridgehead>
0

>  <nHetero>
7

>  <nN>
4

>  <nO>
3

>  <nF>
0

>  <BalabanJ>
1.01

>  <BertzCT>
1064.55

>  <nBonds>
68

>  <nBondsO>
38

>  <nBondsS>
53

>  <nBondsD>
2

>  <nBondsT>
1

>  <nBondsA>
12

>  <nBondsM>
15

>  <nBondsKS>
59

>  <nBondsKD>
8

>  <RNCG>
0.19

>  <RPCG>
0.1

>  <FCSP3>
0.44

>  <SZ>
40.67

>  <Sm>
38.18

>  <Sv>
40.3

>  <Sse>
63.96

>  <Sp>
43.05

>  <Si>
72.02

>  <MZ>
0.64

>  <Mm>
0.6

>  <Mv>
0.63

>  <Mse>
1

>  <Mp>
0.67

>  <Mi>
1.13

>  <NsCH3>
0

>  <NdCH2>
0

>  <NssCH2>
10

>  <NtCH>
0

>  <NdsCH>
0

>  <NaaCH>
8

>  <NsssCH>
2

>  <NddC>
0

>  <NtsC>
1

>  <NdssC>
2

>  <NaasC>
4

>  <NaaaC>
0

>  <NssssC>
0

>  <NsNH3>
0

>  <NsNH2>
0

>  <NssNH2>
0

>  <NdNH>
0

>  <NssNH>
0

>  <NaaNH>
0

>  <NtN>
1

>  <NsssNH>
0

>  <NdsN>
0

>  <NaaN>
0

>  <NsssN>
3

>  <NddsN>
0

>  <NaasN>
0

>  <NssssN>
0

>  <NsOH>
0

>  <NdO>
2

>  <NssO>
1

>  <NaaO>
0

>  <NsF>
0

>  <NsSiH3>
0

>  <NssSiH2>
0

>  <NsssSiH>
0

>  <NssssSi>
0

>  <NsPH2>
0

>  <NssPH>
0

>  <NsssP>
0

>  <NdsssP>
0

>  <NsssssP>
0

>  <NsSH>
0

>  <NdS>
0

>  <NssS>
0

>  <NaaS>
0

>  <NdssS>
0

>  <NddssS>
0

>  <NsCl>
0

>  <NsBr>
0

>  <NsI>
0

>  <fragCpx>
322.07

>  <fMF>
0.47

>  <nHBAcc>
5

>  <nHBDon>
0

>  <Kier1>
25.64

>  <Kier2>
12.03

>  <Lipinski>
1

>  <GhoseFilter>
1

>  <FilterItLogS>
-4.39

>  <VMcGowan>
351.52

>  <LabuteASA>
200.05

>  <PEOE_VSA1>
19.44

>  <PEOE_VSA2>
9.59

>  <PEOE_VSA3>
0

>  <PEOE_VSA4>
5.26

>  <PEOE_VSA5>
0

>  <PEOE_VSA6>
6.42

>  <PEOE_VSA7>
74.21

>  <PEOE_VSA8>
43.47

>  <PEOE_VSA9>
11.63

>  <PEOE_VSA10>
18.4

>  <PEOE_VSA11>
0

>  <PEOE_VSA12>
5.91

>  <PEOE_VSA13>
5.91

>  <SMR_VSA1>
14.33

>  <SMR_VSA2>
5.26

>  <SMR_VSA3>
9.8

>  <SMR_VSA4>
0

>  <SMR_VSA5>
44.25

>  <SMR_VSA6>
37.62

>  <SMR_VSA7>
59.66

>  <SMR_VSA8>
0

>  <SMR_VSA9>
11.82

>  <SlogP_VSA1>
9.64

>  <SlogP_VSA2>
66.48

>  <SlogP_VSA3>
4.79

>  <SlogP_VSA4>
11.33

>  <SlogP_VSA5>
48.03

>  <SlogP_VSA6>
48.53

>  <SlogP_VSA7>
0

>  <SlogP_VSA8>
0

>  <SlogP_VSA9>
0

>  <SlogP_VSA10>
5.69

>  <SlogP_VSA11>
5.75

>  <EState_VSA1>
0

>  <EState_VSA2>
24.46

>  <EState_VSA3>
24.22

>  <EState_VSA4>
43.41

>  <EState_VSA5>
19.26

>  <EState_VSA6>
34.07

>  <EState_VSA7>
30.33

>  <EState_VSA8>
4.9

>  <EState_VSA9>
10

>  <EState_VSA10>
9.59

>  <VSA_EState1>
6.22

>  <VSA_EState2>
31.47

>  <VSA_EState3>
8.92

>  <VSA_EState4>
1.81

>  <VSA_EState5>
0.54

>  <VSA_EState6>
17.08

>  <VSA_EState7>
6.45

>  <VSA_EState8>
3.18

>  <VSA_EState9>
0

>  <apol>
71.9

>  <bpol>
39.27

>  <nRing>
5

>  <nHRing>
2

>  <naRing>
2

>  <naHRing>
0

>  <nARing 2>
3

>  <nAHRing 2>
2

>  <nFRing>
0

>  <nFHRing>
0

>  <nFaRing>
0

>  <nFaHRing>
0

>  <nFARing 2>
0

>  <nFAHRing 2>
0

>  <nRot>
5

>  <SLogP>
3.44

>  <SMR>
128.72

>  <TopoPSA(NO)>
76.88

>  <TopoPSA>
76.88

>  <JGI1>
0.17

>  <JGI2>
0.08

>  <JGI3>
0.04

>  <JGI4>
0.04

>  <JGI5>
0.03

>  <Diameter>
22

>  <Radius>
11

>  <TMWC10>
150.09

>  <TSRW10>
70.59

>  <MW>
458.23

>  <AMW>
7.16

>  <WPath>
4309

>  <WPol>
54

>  <Zagreb1>
182

>  <Zagreb2>
215

>  <mZagreb2>
7.47

>  <yes>


>  <nAR-cont>
0.691115

>  <nHA-cont>
0.568589513

>  <MWHBN>
0.233576015

>  <MWHBN-cont>
0.982953787

>  <TPSA-cont>
0.46332986

>  <pka_cont>
0.97

>  <yes.1>


>  <BBB_SCORE>
4.145794914

>  <MMFF94 Energy>
124.03

$$$$
Compound 142
Actelion Java MolfileCreator 2.0

  0  0  0  0  0  0              0 V3000
M  V30 BEGIN CTAB
M  V30 COUNTS 58 62 0 0 0
M  V30 BEGIN ATOM
M  V30 1 F -6.4467 5.7199 4.4287 0
M  V30 2 C -5.4765 5.2853 3.613 0
M  V30 3 C -4.4195 4.5562 4.1528 0
M  V30 4 C -5.5602 5.5782 2.2519 0
M  V30 5 C -3.4533 4.1406 3.2436 0
M  V30 6 C -4.5662 5.1422 1.3642 0
M  V30 7 O -2.3397 3.4194 3.5323 0
M  V30 8 C -3.4869 4.4051 1.885 0
M  V30 9 N -1.6202 3.1928 2.3731 0
M  V30 10 C -2.3062 3.7868 1.3862 0
M  V30 11 C -1.8308 3.7483 -0.0422 0
M  V30 12 C -0.3114 3.8827 -0.2078 0
M  V30 13 C -2.3501 2.5162 -0.7918 0
M  V30 14 C 0.4416 2.5669 -0.0011 0
M  V30 15 C -1.519 1.2626 -0.516 0
M  V30 16 N -0.1038 1.4938 -0.8518 0
M  V30 17 C 0.6973 0.2642 -0.6662 0
M  V30 18 C 0.4287 -0.794 -1.7504 0
M  V30 19 C 1.3868 -1.9547 -1.6425 0
M  V30 20 C 1.0513 -2.9889 -0.6277 0
M  V30 21 C 2.4824 -2.1624 -2.3941 0
M  V30 22 O 0.0287 -2.8822 0.0479 0
M  V30 23 N 1.9321 -4.0468 -0.5142 0
M  V30 24 N 3.2915 -3.2621 -2.2669 0
M  V30 25 C 2.9618 -1.1898 -3.4421 0
M  V30 26 C 2.9997 -4.1496 -1.3683 0
M  V30 27 C 1.5907 -5.0864 0.4497 0
M  V30 28 C 3.9709 -5.3286 -1.2276 0 CFG=1
M  V30 29 C 2.7385 -6.0105 0.8161 0
M  V30 30 O 5.1369 -4.8464 -0.5573 0
M  V30 31 C 3.408 -6.5066 -0.4535 0
M  V30 32 H -4.3574 4.3293 5.2083 0
M  V30 33 H -6.4083 6.1504 1.8848 0
M  V30 34 H -4.6352 5.3712 0.305 0
M  V30 35 H -2.2727 4.6307 -0.5275 0
M  V30 36 H -0.1065 4.235 -1.2282 0
M  V30 37 H 0.0892 4.6479 0.4684 0
M  V30 38 H -2.32 2.7232 -1.8703 0
M  V30 39 H -3.4008 2.3209 -0.5438 0
M  V30 40 H 0.4336 2.2731 1.0549 0
M  V30 41 H 1.4909 2.7462 -0.2678 0
M  V30 42 H -1.9335 0.4629 -1.1387 0
M  V30 43 H -1.6343 0.9474 0.5286 0
M  V30 44 H 0.5368 -0.1557 0.3354 0
M  V30 45 H 1.762 0.5284 -0.727 0
M  V30 46 H -0.5984 -1.1712 -1.6833 0
M  V30 47 H 0.4913 -0.3303 -2.7417 0
M  V30 48 H 2.6709 -1.5376 -4.4384 0
M  V30 49 H 4.0546 -1.11 -3.4142 0
M  V30 50 H 2.5762 -0.177 -3.2983 0
M  V30 51 H 0.7709 -5.6673 0.0076 0
M  V30 52 H 1.1914 -4.6227 1.3598 0
M  V30 53 H 4.2816 -5.6563 -2.2261 0
M  V30 54 H 2.3622 -6.856 1.4024 0
M  V30 55 H 3.4628 -5.4783 1.4443 0
M  V30 56 H 5.4466 -4.0857 -1.0861 0
M  V30 57 H 4.2082 -7.2075 -0.1898 0
M  V30 58 H 2.6771 -7.0453 -1.0684 0
M  V30 END ATOM
M  V30 BEGIN BOND
M  V30 1 1 1 2
M  V30 2 2 2 3
M  V30 3 1 2 4
M  V30 4 1 3 5
M  V30 5 2 4 6
M  V30 6 1 5 7
M  V30 7 2 5 8
M  V30 8 1 7 9
M  V30 9 1 8 10
M  V30 10 1 10 11
M  V30 11 1 11 12
M  V30 12 1 11 13
M  V30 13 1 12 14
M  V30 14 1 13 15
M  V30 15 1 14 16
M  V30 16 1 16 17
M  V30 17 1 17 18
M  V30 18 1 18 19
M  V30 19 1 19 20
M  V30 20 2 19 21
M  V30 21 2 20 22
M  V30 22 1 20 23
M  V30 23 1 21 24
M  V30 24 1 21 25
M  V30 25 1 23 26
M  V30 26 1 23 27
M  V30 27 1 26 28
M  V30 28 1 27 29
M  V30 29 1 28 30
M  V30 30 1 28 31
M  V30 31 1 6 8
M  V30 32 2 9 10
M  V30 33 1 15 16
M  V30 34 2 24 26
M  V30 35 1 29 31
M  V30 36 1 3 32
M  V30 37 1 4 33
M  V30 38 1 6 34
M  V30 39 1 11 35
M  V30 40 1 12 36
M  V30 41 1 12 37
M  V30 42 1 13 38
M  V30 43 1 13 39
M  V30 44 1 14 40
M  V30 45 1 14 41
M  V30 46 1 15 42
M  V30 47 1 15 43
M  V30 48 1 17 44
M  V30 49 1 17 45
M  V30 50 1 18 46
M  V30 51 1 18 47
M  V30 52 1 25 48
M  V30 53 1 25 49
M  V30 54 1 25 50
M  V30 55 1 27 51
M  V30 56 1 27 52
M  V30 57 1 28 53
M  V30 58 1 29 54
M  V30 59 1 29 55
M  V30 60 1 30 56
M  V30 61 1 31 57
M  V30 62 1 31 58
M  V30 END BOND
M  V30 BEGIN COLLECTION
M  V30 MDLV30/STERAC1 ATOMS=(1 28)
M  V30 END COLLECTION
M  V30 END CTAB
M  END
>  <Column 1>
187

>  <level_0>
217

>  <index>
217

>  <Unnamed: 0>
217

>  <NO.>
218

>  <Name>
paliperidone

>  <IUPAC_name>
3-[2-[4-(6-fluoro-1-2-benzoxazol-3-yl)piperidin-1-yl]ethyl]-9-hydroxy-2-methyl-6-7-8-9-tetrahydropyrido[1-2-a]pyrimidin-4-one

>  <SMILES>
Cc1nc2n(c(=O)c1CCN1CCC(c3noc4cc(F)ccc34)CC1)CCCC2O

>  <CID>
115237

>  <logBB>
-0.7

>  <BBB+/BBB->
BBB+

>  <Inchi>
InChI=1S/C23H27FN4O3/c1-14-17(23(30)28-9-2-3-19(29)22(28)25-14)8-12-27-10-6-15(7-11-27)21-18-5-4-16(24)13-20(18)31-26-21/h4-5-13-15-19-29H-2-3-6-12H2-1H3

>  <threshold>


>  <reference>
R2|R2|R8|R3|R12|R21|R25|R27|R36|R38|R39|R41|R43|R46|R47|R49|R20|

>  <group>
A

>  <Class>
1

>  <ABC>
24.86

>  <ABCGG>
17.81

>  <nAcid>
0

>  <nBase>
1

>  <nAromAtom>
15

>  <nAromBond>
16

>  <nAtom>
58

>  <nHeavyAtom>
31

>  <nSpiro>
0

>  <nBridgehead>
0

>  <nHetero>
8

>  <nN>
4

>  <nO>
3

>  <nF>
1

>  <BalabanJ>
1.09

>  <BertzCT>
1163.57

>  <nBonds>
62

>  <nBondsO>
35

>  <nBondsS>
45

>  <nBondsD>
1

>  <nBondsT>
0

>  <nBondsA>
16

>  <nBondsM>
17

>  <nBondsKS>
55

>  <nBondsKD>
7

>  <RNCG>
0.16

>  <RPCG>
0.11

>  <FCSP3>
0.52

>  <SZ>
37.67

>  <Sm>
35.51

>  <Sv>
36.14

>  <Sse>
58.59

>  <Sp>
38.19

>  <Si>
65.94

>  <MZ>
0.65

>  <Mm>
0.61

>  <Mv>
0.62

>  <Mse>
1.01

>  <Mp>
0.66

>  <Mi>
1.14

>  <NsCH3>
1

>  <NdCH2>
0

>  <NssCH2>
9

>  <NtCH>
0

>  <NdsCH>
0

>  <NaaCH>
3

>  <NsssCH>
2

>  <NddC>
0

>  <NtsC>
0

>  <NdssC>
0

>  <NaasC>
5

>  <NaaaC>
2

>  <NssssC>
0

>  <NsNH3>
0

>  <NsNH2>
0

>  <NssNH2>
0

>  <NdNH>
0

>  <NssNH>
0

>  <NaaNH>
0

>  <NtN>
0

>  <NsssNH>
0

>  <NdsN>
0

>  <NaaN>
2

>  <NsssN>
1

>  <NddsN>
0

>  <NaasN>
1

>  <NssssN>
0

>  <NsOH>
1

>  <NdO>
1

>  <NssO>
0

>  <NaaO>
1

>  <NsF>
1

>  <NsSiH3>
0

>  <NssSiH2>
0

>  <NsssSiH>
0

>  <NssssSi>
0

>  <NsPH2>
0

>  <NssPH>
0

>  <NsssP>
0

>  <NdsssP>
0

>  <NsssssP>
0

>  <NsSH>
0

>  <NdS>
0

>  <NssS>
0

>  <NaaS>
0

>  <NdssS>
0

>  <NddssS>
0

>  <NsCl>
0

>  <NsBr>
0

>  <NsI>
0

>  <fragCpx>
295.08

>  <fMF>
0.47

>  <nHBAcc>
7

>  <nHBDon>
1

>  <Kier1>
22.78

>  <Kier2>
9.7

>  <Lipinski>
1

>  <GhoseFilter>
1

>  <FilterItLogS>
-5.49

>  <VMcGowan>
309.82

>  <LabuteASA>
179.03

>  <PEOE_VSA1>
14.53

>  <PEOE_VSA2>
9.36

>  <PEOE_VSA3>
9.37

>  <PEOE_VSA4>
0

>  <PEOE_VSA5>
0

>  <PEOE_VSA6>
5.16

>  <PEOE_VSA7>
64.25

>  <PEOE_VSA8>
41.72

>  <PEOE_VSA9>
5.69

>  <PEOE_VSA10>
17.75

>  <PEOE_VSA11>
5.58

>  <PEOE_VSA12>
0

>  <PEOE_VSA13>
5.56

>  <SMR_VSA1>
14.02

>  <SMR_VSA2>
0

>  <SMR_VSA3>
19.61

>  <SMR_VSA4>
0

>  <SMR_VSA5>
57.59

>  <SMR_VSA6>
19.63

>  <SMR_VSA7>
57.15

>  <SMR_VSA8>
0

>  <SMR_VSA9>
0

>  <SlogP_VSA1>
5.56

>  <SlogP_VSA2>
44.35

>  <SlogP_VSA3>
12.97

>  <SlogP_VSA4>
12.74

>  <SlogP_VSA5>
60.48

>  <SlogP_VSA6>
27.52

>  <SlogP_VSA7>
0

>  <SlogP_VSA8>
10.97

>  <SlogP_VSA9>
0

>  <SlogP_VSA10>
4.39

>  <SlogP_VSA11>
0

>  <EState_VSA1>
6.1

>  <EState_VSA2>
11.38

>  <EState_VSA3>
36.71

>  <EState_VSA4>
61.23

>  <EState_VSA5>
12.13

>  <EState_VSA6>
10.63

>  <EState_VSA7>
6.92

>  <EState_VSA8>
15.04

>  <EState_VSA9>
4.52

>  <EState_VSA10>
14.29

>  <VSA_EState1>
20.38

>  <VSA_EState2>
19.88

>  <VSA_EState3>
15.27

>  <VSA_EState4>
2.9

>  <VSA_EState5>
0.49

>  <VSA_EState6>
4.58

>  <VSA_EState7>
3.38

>  <VSA_EState8>
5.13

>  <VSA_EState9>
0

>  <apol>
63.78

>  <bpol>
35.36

>  <nRing>
5

>  <nHRing>
4

>  <naRing>
3

>  <naHRing>
2

>  <nARing 2>
2

>  <nAHRing 2>
2

>  <nFRing>
2

>  <nFHRing>
2

>  <nFaRing>
1

>  <nFaHRing>
1

>  <nFARing 2>
1

>  <nFAHRing 2>
1

>  <nRot>
4

>  <SLogP>
3.08

>  <SMR>
113.51

>  <TopoPSA(NO)>
84.39

>  <TopoPSA>
84.39

>  <JGI1>
0.17

>  <JGI2>
0.09

>  <JGI3>
0.05

>  <JGI4>
0.05

>  <JGI5>
0.03

>  <Diameter>
17

>  <Radius>
9

>  <TMWC10>
144.58

>  <TSRW10>
81.35

>  <MW>
426.21

>  <AMW>
7.35

>  <WPath>
3047

>  <WPol>
54

>  <Zagreb1>
172

>  <Zagreb2>
208

>  <mZagreb2>
6.64

>  <yes>


>  <nAR-cont>
1

>  <nHA-cont>
0.702745138

>  <MWHBN>
0.387505766

>  <MWHBN-cont>
0.525290237

>  <TPSA-cont>
0.410905397

>  <pka_cont>
0.97

>  <yes.1>


>  <BBB_SCORE>
3.797491288

>  <MMFF94 Energy>
1.9901

$$$$
Compound 143
Actelion Java MolfileCreator 2.0

  0  0  0  0  0  0              0 V3000
M  V30 BEGIN CTAB
M  V30 COUNTS 47 50 0 0 0
M  V30 BEGIN ATOM
M  V30 1 O 0.9564 0.0796 1.9135 0
M  V30 2 C -0.0856 -0.198 1.3275 0
M  V30 3 N -0.3434 0.1634 0.0216 0
M  V30 4 C -1.1876 -0.9583 1.9395 0
M  V30 5 C 0.6092 0.8691 -0.8214 0
M  V30 6 N -2.3058 -1.2565 1.2406 0
M  V30 7 C -1.2535 -1.4714 3.2679 0
M  V30 8 C 1.6177 -0.1105 -1.4303 0
M  V30 9 C -0.1243 1.6882 -1.8867 0
M  V30 10 N -3.0624 -1.9428 2.1189 0
M  V30 11 C -2.4887 -2.108 3.3531 0
M  V30 12 C -0.4103 -1.466 4.3966 0
M  V30 13 C 2.4237 0.4675 -2.6066 0
M  V30 14 C 0.7754 2.1724 -3.0372 0
M  V30 15 C -4.3589 -2.43 1.7101 0
M  V30 16 C -2.9303 -2.7471 4.5207 0
M  V30 17 C -0.8354 -2.0991 5.57 0
M  V30 18 N 1.5697 1.0879 -3.6296 0
M  V30 19 C 3.482 1.5039 -2.1806 0
M  V30 20 C 1.742 3.3031 -2.6335 0
M  V30 21 C -2.0769 -2.7292 5.6285 0
M  V30 22 C 0.7703 0.1238 -4.3787 0
M  V30 23 C 2.9144 2.8588 -1.7599 0
M  V30 24 H -1.2295 -0.1732 -0.348 0
M  V30 25 H 1.1411 1.5525 -0.1554 0
M  V30 26 H 2.3028 -0.466 -0.6499 0
M  V30 27 H 1.0839 -1.0064 -1.7754 0
M  V30 28 H -0.9393 1.0853 -2.3098 0
M  V30 29 H -0.6177 2.5458 -1.411 0
M  V30 30 H 0.5598 -0.9764 4.3587 0
M  V30 31 H 2.9814 -0.3623 -3.0614 0
M  V30 32 H 0.1199 2.5985 -3.8089 0
M  V30 33 H -4.5513 -2.1355 0.6752 0
M  V30 34 H -4.3591 -3.5197 1.7921 0
M  V30 35 H -5.1151 -1.9923 2.3665 0
M  V30 36 H -3.8957 -3.2397 4.5736 0
M  V30 37 H -0.1874 -2.0972 6.4434 0
M  V30 38 H 4.1563 1.6725 -3.0318 0
M  V30 39 H 4.1068 1.1012 -1.3745 0
M  V30 40 H 2.1558 3.742 -3.552 0
M  V30 41 H 1.1955 4.1106 -2.1317 0
M  V30 42 H -2.3872 -3.2153 6.5511 0
M  V30 43 H 0.2183 0.6286 -5.1793 0
M  V30 44 H 1.4202 -0.6106 -4.867 0
M  V30 45 H 0.0486 -0.4207 -3.7625 0
M  V30 46 H 2.6118 2.8304 -0.71 0
M  V30 47 H 3.7077 3.6152 -1.8033 0
M  V30 END ATOM
M  V30 BEGIN BOND
M  V30 1 2 1 2
M  V30 2 1 2 3
M  V30 3 1 2 4
M  V30 4 1 3 5
M  V30 5 2 4 6
M  V30 6 1 4 7
M  V30 7 1 5 8
M  V30 8 1 5 9
M  V30 9 1 6 10
M  V30 10 2 7 11
M  V30 11 1 7 12
M  V30 12 1 8 13
M  V30 13 1 9 14
M  V30 14 1 10 15
M  V30 15 1 11 16
M  V30 16 2 12 17
M  V30 17 1 13 18
M  V30 18 1 13 19
M  V30 19 1 14 20
M  V30 20 2 16 21
M  V30 21 1 18 22
M  V30 22 1 19 23
M  V30 23 1 10 11
M  V30 24 1 14 18
M  V30 25 1 17 21
M  V30 26 1 20 23
M  V30 27 1 3 24
M  V30 28 1 5 25
M  V30 29 1 8 26
M  V30 30 1 8 27
M  V30 31 1 9 28
M  V30 32 1 9 29
M  V30 33 1 12 30
M  V30 34 1 13 31
M  V30 35 1 14 32
M  V30 36 1 15 33
M  V30 37 1 15 34
M  V30 38 1 15 35
M  V30 39 1 16 36
M  V30 40 1 17 37
M  V30 41 1 19 38
M  V30 42 1 19 39
M  V30 43 1 20 40
M  V30 44 1 20 41
M  V30 45 1 21 42
M  V30 46 1 22 43
M  V30 47 1 22 44
M  V30 48 1 22 45
M  V30 49 1 23 46
M  V30 50 1 23 47
M  V30 END BOND
M  V30 END CTAB
M  END
>  <Column 1>
188

>  <level_0>
218

>  <index>
218

>  <Unnamed: 0>
218

>  <NO.>
219

>  <Name>
granisetron

>  <IUPAC_name>
1-methyl-n-(9-methyl-9-azabicyclo[3.3.1]nonan-3-yl)indazole-3-carboxamide

>  <SMILES>
CN1C2CCCC1CC(NC(=O)c1nn(C)c3ccccc13)C2

>  <CID>
3510

>  <logBB>
-0.69

>  <BBB+/BBB->
BBB+

>  <Inchi>
InChI=1S/C18H24N4O/c1-21-13-6-5-7-14(21)11-12(10-13)19-18(23)17-15-8-3-4-9-16(15)22(2)20-17/h3-4-8-9-12-14H-5-7-10-11H2-1-2H3-(H-19-23)

>  <threshold>


>  <reference>
R2|R2|R8|R21|R25|R27|R43|R46|R47|R36|

>  <group>
A

>  <Class>
1

>  <ABC>
18.47

>  <ABCGG>
14.61

>  <nAcid>
0

>  <nBase>
1

>  <nAromAtom>
9

>  <nAromBond>
10

>  <nAtom>
47

>  <nHeavyAtom>
23

>  <nSpiro>
0

>  <nBridgehead>
2

>  <nHetero>
5

>  <nN>
4

>  <nO>
1

>  <nF>
0

>  <BalabanJ>
1.37

>  <BertzCT>
723.7

>  <nBonds>
50

>  <nBondsO>
26

>  <nBondsS>
39

>  <nBondsD>
1

>  <nBondsT>
0

>  <nBondsA>
10

>  <nBondsM>
11

>  <nBondsKS>
45

>  <nBondsKD>
5

>  <RNCG>
0.2

>  <RPCG>
0.16

>  <FCSP3>
0.56

>  <SZ>
28

>  <Sm>
26.01

>  <Sv>
28.25

>  <Sse>
46.64

>  <Sp>
30.7

>  <Si>
53.36

>  <MZ>
0.6

>  <Mm>
0.55

>  <Mv>
0.6

>  <Mse>
0.99

>  <Mp>
0.65

>  <Mi>
1.14

>  <NsCH3>
2

>  <NdCH2>
0

>  <NssCH2>
5

>  <NtCH>
0

>  <NdsCH>
0

>  <NaaCH>
4

>  <NsssCH>
3

>  <NddC>
0

>  <NtsC>
0

>  <NdssC>
1

>  <NaasC>
1

>  <NaaaC>
2

>  <NssssC>
0

>  <NsNH3>
0

>  <NsNH2>
0

>  <NssNH2>
0

>  <NdNH>
0

>  <NssNH>
1

>  <NaaNH>
0

>  <NtN>
0

>  <NsssNH>
0

>  <NdsN>
0

>  <NaaN>
1

>  <NsssN>
1

>  <NddsN>
0

>  <NaasN>
1

>  <NssssN>
0

>  <NsOH>
0

>  <NdO>
1

>  <NssO>
0

>  <NaaO>
0

>  <NsF>
0

>  <NsSiH3>
0

>  <NssSiH2>
0

>  <NsssSiH>
0

>  <NssssSi>
0

>  <NsPH2>
0

>  <NssPH>
0

>  <NsssP>
0

>  <NdsssP>
0

>  <NsssssP>
0

>  <NsSH>
0

>  <NdS>
0

>  <NssS>
0

>  <NaaS>
0

>  <NdssS>
0

>  <NddssS>
0

>  <NsCl>
0

>  <NsBr>
0

>  <NsI>
0

>  <fragCpx>
170.05

>  <fMF>
0.43

>  <nHBAcc>
4

>  <nHBDon>
1

>  <Kier1>
16.47

>  <Kier2>
6.72

>  <Lipinski>
1

>  <GhoseFilter>
1

>  <FilterItLogS>
-3.1

>  <VMcGowan>
245.33

>  <LabuteASA>
136.19

>  <PEOE_VSA1>
10.22

>  <PEOE_VSA2>
9.48

>  <PEOE_VSA3>
0

>  <PEOE_VSA4>
5.1

>  <PEOE_VSA5>
0

>  <PEOE_VSA6>
24.62

>  <PEOE_VSA7>
38.8

>  <PEOE_VSA8>
30.56

>  <PEOE_VSA9>
5.52

>  <PEOE_VSA10>
0

>  <PEOE_VSA11>
5.69

>  <PEOE_VSA12>
0

>  <PEOE_VSA13>
5.91

>  <SMR_VSA1>
4.79

>  <SMR_VSA2>
0

>  <SMR_VSA3>
20

>  <SMR_VSA4>
7.05

>  <SMR_VSA5>
50.23

>  <SMR_VSA6>
7.05

>  <SMR_VSA7>
29.96

>  <SMR_VSA8>
0

>  <SMR_VSA9>
0

>  <SlogP_VSA1>
5.32

>  <SlogP_VSA2>
45.76

>  <SlogP_VSA3>
7.05

>  <SlogP_VSA4>
0

>  <SlogP_VSA5>
42.59

>  <SlogP_VSA6>
24.27

>  <SlogP_VSA7>
0

>  <SlogP_VSA8>
10.9

>  <SlogP_VSA9>
0

>  <SlogP_VSA10>
0

>  <SlogP_VSA11>
0

>  <EState_VSA1>
0

>  <EState_VSA2>
11.95

>  <EState_VSA3>
17.78

>  <EState_VSA4>
23.74

>  <EState_VSA5>
19.26

>  <EState_VSA6>
4.68

>  <EState_VSA7>
31.31

>  <EState_VSA8>
22.36

>  <EState_VSA9>
0

>  <EState_VSA10>
4.79

>  <VSA_EState1>
1.79

>  <VSA_EState2>
15.26

>  <VSA_EState3>
8.62

>  <VSA_EState4>
1.55

>  <VSA_EState5>
-0.03

>  <VSA_EState6>
9.42

>  <VSA_EState7>
5.95

>  <VSA_EState8>
0

>  <VSA_EState9>
4.12

>  <apol>
51.27

>  <bpol>
28.93

>  <nRing>
4

>  <nHRing>
3

>  <naRing>
2

>  <naHRing>
1

>  <nARing 2>
2

>  <nAHRing 2>
2

>  <nFRing>
2

>  <nFHRing>
2

>  <nFaRing>
1

>  <nFaHRing>
1

>  <nFARing 2>
1

>  <nFAHRing 2>
1

>  <nRot>
2

>  <SLogP>
2.32

>  <SMR>
90.39

>  <TopoPSA(NO)>
50.16

>  <TopoPSA>
50.16

>  <JGI1>
0.17

>  <JGI2>
0.08

>  <JGI3>
0.06

>  <JGI4>
0.04

>  <JGI5>
0.02

>  <Diameter>
11

>  <Radius>
6

>  <TMWC10>
124.99

>  <TSRW10>
72.2

>  <MW>
312.2

>  <AMW>
6.64

>  <WPath>
1195

>  <WPol>
39

>  <Zagreb1>
128

>  <Zagreb2>
155

>  <mZagreb2>
4.92

>  <yes>


>  <nAR-cont>
1

>  <nHA-cont>
0.967789328

>  <MWHBN>
0.282978575

>  <MWHBN-cont>
0.888430799

>  <TPSA-cont>
0.649852053

>  <pka_cont>
0.97

>  <yes.1>


>  <BBB_SCORE>
5.085139632

>  <MMFF94 Energy>
49.869

$$$$
Compound 144
Actelion Java MolfileCreator 2.0

  0  0  0  0  0  0              0 V3000
M  V30 BEGIN CTAB
M  V30 COUNTS 65 68 0 0 0
M  V30 BEGIN ATOM
M  V30 1 O -0.4772 -2.0692 -1.3526 0
M  V30 2 C 0.6216 -1.8631 -0.8412 0
M  V30 3 N 1.794 -2.1984 -1.4848 0
M  V30 4 C 0.7182 -1.2304 0.506 0
M  V30 5 C 1.7893 -2.8034 -2.7919 0
M  V30 6 C 1.8252 -1.3417 1.3376 0
M  V30 7 C -0.3531 -0.4961 1.0239 0
M  V30 8 O 2.9208 -2.0574 0.8909 0
M  V30 9 N 1.9054 -0.7841 2.5608 0
M  V30 10 N -0.2951 0.075 2.246 0
M  V30 11 N -1.4922 -0.2525 0.2754 0
M  V30 12 C 4.0025 -2.209 1.8199 0
M  V30 13 C 0.8266 -0.097 2.9576 0
M  V30 14 C -2.6025 0.514 0.8033 0
M  V30 15 C 4.9893 -1.0295 1.7314 0
M  V30 16 C 0.8785 0.5113 4.2604 0
M  V30 17 C -3.6941 0.6868 -0.2681 0
M  V30 18 C 6.1209 -1.1717 2.7591 0
M  V30 19 C 5.5914 -0.8718 0.325 0
M  V30 20 N 0.9301 0.9979 5.3163 0
M  V30 21 C -4.9532 1.3089 0.3591 0
M  V30 22 C -3.2029 1.5516 -1.4434 0
M  V30 23 C 7.1389 -2.2409 2.363 0
M  V30 24 C 6.6255 -1.9522 0.0092 0
M  V30 25 C -6.0541 1.5331 -0.6766 0
M  V30 26 C -4.302 1.7623 -2.4833 0
M  V30 27 N 7.6734 -1.9976 1.0253 0
M  V30 28 C -5.5341 2.3977 -1.8336 0
M  V30 29 C -6.6392 2.7812 -2.8654 0
M  V30 30 C -5.4142 3.9271 -1.5364 0
M  V30 31 C -6.8384 4.0995 -2.0954 0
M  V30 32 H 2.6797 -2.0746 -1.0066 0
M  V30 33 H 1.1614 -2.2171 -3.4683 0
M  V30 34 H 1.3902 -3.8179 -2.7114 0
M  V30 35 H 2.8147 -2.8348 -3.1668 0
M  V30 36 H -1.6641 -0.9039 -0.4951 0
M  V30 37 H 4.5013 -3.1439 1.544 0
M  V30 38 H 3.6433 -2.3686 2.8446 0
M  V30 39 H -3.0232 -0.0098 1.6704 0
M  V30 40 H -2.2607 1.5009 1.1399 0
M  V30 41 H 4.4375 -0.1075 1.9525 0
M  V30 42 H -3.9614 -0.3047 -0.6593 0
M  V30 43 H 6.6377 -0.2069 2.8501 0
M  V30 44 H 5.7112 -1.3983 3.7504 0
M  V30 45 H 6.0777 0.1109 0.2609 0
M  V30 46 H 4.8069 -0.8749 -0.4397 0
M  V30 47 H -5.3365 0.6534 1.1503 0
M  V30 48 H -4.6953 2.2628 0.8357 0
M  V30 49 H -2.3435 1.0775 -1.931 0
M  V30 50 H -2.8605 2.5246 -1.0686 0
M  V30 51 H 7.9666 -2.2258 3.0805 0
M  V30 52 H 6.6935 -3.2409 2.4172 0
M  V30 53 H 7.0856 -1.7296 -0.9598 0
M  V30 54 H 6.147 -2.9333 -0.088 0
M  V30 55 H -6.3946 0.5636 -1.0614 0
M  V30 56 H -6.9179 1.999 -0.1881 0
M  V30 57 H -3.9166 2.393 -3.2933 0
M  V30 58 H -4.571 0.7986 -2.9337 0
M  V30 59 H 8.3482 -2.7251 0.7898 0
M  V30 60 H -7.5148 2.1268 -2.9069 0
M  V30 61 H -6.2736 2.9337 -3.8882 0
M  V30 62 H -4.6533 4.4459 -2.1319 0
M  V30 63 H -5.2886 4.2168 -0.4896 0
M  V30 64 H -7.0005 4.9877 -2.7115 0
M  V30 65 H -7.6227 4.0524 -1.3316 0
M  V30 END ATOM
M  V30 BEGIN BOND
M  V30 1 2 1 2
M  V30 2 1 2 3
M  V30 3 1 2 4
M  V30 4 1 3 5
M  V30 5 2 4 6
M  V30 6 1 4 7
M  V30 7 1 6 8
M  V30 8 1 6 9
M  V30 9 2 7 10
M  V30 10 1 7 11
M  V30 11 1 8 12
M  V30 12 2 9 13
M  V30 13 1 11 14
M  V30 14 1 12 15
M  V30 15 1 13 16
M  V30 16 1 14 17
M  V30 17 1 15 18
M  V30 18 1 15 19
M  V30 19 3 16 20
M  V30 20 1 17 21
M  V30 21 1 17 22
M  V30 22 1 18 23
M  V30 23 1 19 24
M  V30 24 1 21 25
M  V30 25 1 22 26
M  V30 26 1 23 27
M  V30 27 1 25 28
M  V30 28 1 28 29
M  V30 29 1 28 30
M  V30 30 1 29 31
M  V30 31 1 10 13
M  V30 32 1 24 27
M  V30 33 1 26 28
M  V30 34 1 30 31
M  V30 35 1 3 32
M  V30 36 1 5 33
M  V30 37 1 5 34
M  V30 38 1 5 35
M  V30 39 1 11 36
M  V30 40 1 12 37
M  V30 41 1 12 38
M  V30 42 1 14 39
M  V30 43 1 14 40
M  V30 44 1 15 41
M  V30 45 1 17 42
M  V30 46 1 18 43
M  V30 47 1 18 44
M  V30 48 1 19 45
M  V30 49 1 19 46
M  V30 50 1 21 47
M  V30 51 1 21 48
M  V30 52 1 22 49
M  V30 53 1 22 50
M  V30 54 1 23 51
M  V30 55 1 23 52
M  V30 56 1 24 53
M  V30 57 1 24 54
M  V30 58 1 25 55
M  V30 59 1 25 56
M  V30 60 1 26 57
M  V30 61 1 26 58
M  V30 62 1 27 59
M  V30 63 1 29 60
M  V30 64 1 29 61
M  V30 65 1 30 62
M  V30 66 1 30 63
M  V30 67 1 31 64
M  V30 68 1 31 65
M  V30 END BOND
M  V30 END CTAB
M  END
>  <Column 1>
190

>  <level_0>
220

>  <index>
220

>  <Unnamed: 0>
220

>  <NO.>
221

>  <Name>
chembl476130

>  <IUPAC_name>
2-cyano-n-methyl-4-(piperidin-4-ylmethoxy)-6-(spiro[3.5]nonan-7-ylmethylamino)pyrimidine-5-carboxamide

>  <SMILES>
CNC(=O)c1c(NCC2CCC3(CCC3)CC2)nc(C#N)nc1OCC1CCNCC1

>  <CID>
44579171

>  <logBB>
-0.67

>  <BBB+/BBB->
BBB+

>  <Inchi>
InChI=1S/C23H34N6O2/c1-25-21(30)19-20(27-14-16-3-9-23(10-4-16)7-2-8-23)28-18(13-24)29-22(19)31-15-17-5-11-26-12-6-17/h16-17-26H-2-12-14-15H2-1H3-(H-25-30)(H-27-28-29)

>  <threshold>


>  <reference>
R18|R26|R27|

>  <group>
A

>  <Class>
1

>  <ABC>
24.03

>  <ABCGG>
18.59

>  <nAcid>
0

>  <nBase>
1

>  <nAromAtom>
6

>  <nAromBond>
6

>  <nAtom>
65

>  <nHeavyAtom>
31

>  <nSpiro>
1

>  <nBridgehead>
0

>  <nHetero>
8

>  <nN>
6

>  <nO>
2

>  <nF>
0

>  <BalabanJ>
1.33

>  <BertzCT>
816.09

>  <nBonds>
68

>  <nBondsO>
34

>  <nBondsS>
60

>  <nBondsD>
1

>  <nBondsT>
1

>  <nBondsA>
6

>  <nBondsM>
8

>  <nBondsKS>
63

>  <nBondsKD>
4

>  <RNCG>
0.17

>  <RPCG>
0.09

>  <FCSP3>
0.74

>  <SZ>
38.33

>  <Sm>
35.51

>  <Sv>
38.19

>  <Sse>
64.73

>  <Sp>
41.49

>  <Si>
74.22

>  <MZ>
0.59

>  <Mm>
0.55

>  <Mv>
0.59

>  <Mse>
1

>  <Mp>
0.64

>  <Mi>
1.14

>  <NsCH3>
1

>  <NdCH2>
0

>  <NssCH2>
13

>  <NtCH>
0

>  <NdsCH>
0

>  <NaaCH>
0

>  <NsssCH>
2

>  <NddC>
0

>  <NtsC>
1

>  <NdssC>
1

>  <NaasC>
4

>  <NaaaC>
0

>  <NssssC>
1

>  <NsNH3>
0

>  <NsNH2>
0

>  <NssNH2>
0

>  <NdNH>
0

>  <NssNH>
3

>  <NaaNH>
0

>  <NtN>
1

>  <NsssNH>
0

>  <NdsN>
0

>  <NaaN>
2

>  <NsssN>
0

>  <NddsN>
0

>  <NaasN>
0

>  <NssssN>
0

>  <NsOH>
0

>  <NdO>
1

>  <NssO>
1

>  <NaaO>
0

>  <NsF>
0

>  <NsSiH3>
0

>  <NssSiH2>
0

>  <NsssSiH>
0

>  <NssssSi>
0

>  <NsPH2>
0

>  <NssPH>
0

>  <NsssP>
0

>  <NdsssP>
0

>  <NsssssP>
0

>  <NsSH>
0

>  <NdS>
0

>  <NssS>
0

>  <NaaS>
0

>  <NdssS>
0

>  <NddssS>
0

>  <NsCl>
0

>  <NsBr>
0

>  <NsI>
0

>  <fragCpx>
226.08

>  <fMF>
0.38

>  <nHBAcc>
7

>  <nHBDon>
3

>  <Kier1>
24.13

>  <Kier2>
11.42

>  <Lipinski>
1

>  <GhoseFilter>
1

>  <FilterItLogS>
-6.09

>  <VMcGowan>
337.31

>  <LabuteASA>
184.1

>  <PEOE_VSA1>
20.69

>  <PEOE_VSA2>
4.79

>  <PEOE_VSA3>
4.98

>  <PEOE_VSA4>
10.25

>  <PEOE_VSA5>
0

>  <PEOE_VSA6>
6.42

>  <PEOE_VSA7>
81.71

>  <PEOE_VSA8>
13.59

>  <PEOE_VSA9>
6.61

>  <PEOE_VSA10>
17.45

>  <PEOE_VSA11>
0

>  <PEOE_VSA12>
11.7

>  <PEOE_VSA13>
5.91

>  <SMR_VSA1>
9.53

>  <SMR_VSA2>
5.26

>  <SMR_VSA3>
20.6

>  <SMR_VSA4>
17.25

>  <SMR_VSA5>
57.79

>  <SMR_VSA6>
38.61

>  <SMR_VSA7>
11.39

>  <SMR_VSA8>
0

>  <SMR_VSA9>
11.95

>  <SlogP_VSA1>
20.69

>  <SlogP_VSA2>
49.16

>  <SlogP_VSA3>
0

>  <SlogP_VSA4>
28.58

>  <SlogP_VSA5>
73.97

>  <SlogP_VSA6>
0

>  <SlogP_VSA7>
0

>  <SlogP_VSA8>
0

>  <SlogP_VSA9>
0

>  <SlogP_VSA10>
5.82

>  <SlogP_VSA11>
5.88

>  <EState_VSA1>
0

>  <EState_VSA2>
17.61

>  <EState_VSA3>
35.24

>  <EState_VSA4>
32.48

>  <EState_VSA5>
44.95

>  <EState_VSA6>
7.05

>  <EState_VSA7>
6.07

>  <EState_VSA8>
25.92

>  <EState_VSA9>
4.74

>  <EState_VSA10>
10.06

>  <VSA_EState1>
5.99

>  <VSA_EState2>
21.23

>  <VSA_EState3>
18.8

>  <VSA_EState4>
0.92

>  <VSA_EState5>
1.29

>  <VSA_EState6>
2.01

>  <VSA_EState7>
11.25

>  <VSA_EState8>
3.17

>  <VSA_EState9>
1.58

>  <apol>
69.28

>  <bpol>
41.27

>  <nRing>
4

>  <nHRing>
2

>  <naRing>
1

>  <naHRing>
1

>  <nARing 2>
3

>  <nAHRing 2>
1

>  <nFRing>
0

>  <nFHRing>
0

>  <nFaRing>
0

>  <nFaHRing>
0

>  <nFARing 2>
0

>  <nFAHRing 2>
0

>  <nRot>
7

>  <SLogP>
2.86

>  <SMR>
117.96

>  <TopoPSA(NO)>
111.96

>  <TopoPSA>
111.96

>  <JGI1>
0.19

>  <JGI2>
0.06

>  <JGI3>
0.04

>  <JGI4>
0.04

>  <JGI5>
0.02

>  <Diameter>
16

>  <Radius>
8

>  <TMWC10>
142.21

>  <TSRW10>
67.15

>  <MW>
426.27

>  <AMW>
6.56

>  <WPath>
2866

>  <WPol>
47

>  <Zagreb1>
162

>  <Zagreb2>
190

>  <mZagreb2>
7

>  <yes>


>  <nAR-cont>
0.691115

>  <nHA-cont>
0.702745138

>  <MWHBN>
0.484348117

>  <MWHBN-cont>
0

>  <TPSA-cont>
0.218449677

>  <pka_cont>
0.97

>  <yes.1>


>  <BBB_SCORE>
2.315759492

>  <MMFF94 Energy>
11.133

$$$$
Compound 145
Actelion Java MolfileCreator 2.0

  0  0  0  0  0  0              0 V3000
M  V30 BEGIN CTAB
M  V30 COUNTS 58 62 0 0 0
M  V30 BEGIN ATOM
M  V30 1 F 6.2022 -5.3144 -4.6691 0
M  V30 2 C 5.5374 -4.5116 -3.8267 0
M  V30 3 C 4.5947 -3.6258 -4.3436 0
M  V30 4 C 5.8131 -4.5919 -2.4617 0
M  V30 5 C 3.9473 -2.8268 -3.4075 0
M  V30 6 C 5.1401 -3.7697 -1.5463 0
M  V30 7 O 2.9943 -1.8957 -3.6724 0
M  V30 8 C 4.1838 -2.8653 -2.0434 0
M  V30 9 N 2.5823 -1.3038 -2.491 0
M  V30 10 C 3.2992 -1.885 -1.5173 0
M  V30 11 C 3.1092 -1.4883 -0.0826 0
M  V30 12 C 3.2065 0.0289 0.1292 0
M  V30 13 C 1.7909 -2.0261 0.4889 0
M  V30 14 C 2.9668 0.3891 1.5957 0
M  V30 15 C 1.597 -1.5731 1.938 0
M  V30 16 N 1.6969 -0.1185 2.1377 0
M  V30 17 C 0.5392 0.625 1.6023 0
M  V30 18 C -0.7324 0.4329 2.448 0
M  V30 19 C -1.8716 1.2753 1.9293 0
M  V30 20 C -2.6354 0.7073 0.786 0
M  V30 21 C -2.2849 2.4579 2.418 0
M  V30 22 O -2.3294 -0.3914 0.3257 0
M  V30 23 N -3.6797 1.4731 0.304 0
M  V30 24 N -3.3512 3.1554 1.9113 0
M  V30 25 C -1.5998 3.1679 3.5582 0
M  V30 26 C -4.0013 2.6601 0.9093 0
M  V30 27 C -4.4822 0.8871 -0.7652 0
M  V30 28 C -5.1362 3.4951 0.346 0
M  V30 29 C -5.3974 1.866 -1.4945 0 CFG=2
M  V30 30 C -6.1378 2.7081 -0.4709 0
M  V30 31 O -6.3357 1.1474 -2.2882 0
M  V30 32 H 4.3815 -3.566 -5.402 0
M  V30 33 H 6.5582 -5.3024 -2.1132 0
M  V30 34 H 5.357 -3.8364 -0.4843 0
M  V30 35 H 3.9251 -1.944 0.4969 0
M  V30 36 H 4.1997 0.384 -0.1732 0
M  V30 37 H 2.4844 0.5596 -0.5041 0
M  V30 38 H 0.9413 -1.7016 -0.1246 0
M  V30 39 H 1.7906 -3.1231 0.4524 0
M  V30 40 H 3.0285 1.4767 1.7252 0
M  V30 41 H 3.7871 -0.0183 2.2014 0
M  V30 42 H 2.3652 -2.0523 2.5599 0
M  V30 43 H 0.6476 -1.9617 2.3204 0
M  V30 44 H 0.3456 0.3725 0.5535 0
M  V30 45 H 0.7749 1.698 1.6188 0
M  V30 46 H -1.0436 -0.6179 2.4593 0
M  V30 47 H -0.5175 0.6706 3.4964 0
M  V30 48 H -1.5284 4.2414 3.3482 0
M  V30 49 H -2.1751 3.0387 4.4808 0
M  V30 50 H -0.5786 2.8197 3.7329 0
M  V30 51 H -5.0751 0.0784 -0.3161 0
M  V30 52 H -3.824 0.3943 -1.4921 0
M  V30 53 H -5.6476 4.0032 1.172 0
M  V30 54 H -4.6804 4.2772 -0.2744 0
M  V30 55 H -4.805 2.5052 -2.1601 0
M  V30 56 H -6.8423 3.3859 -0.9673 0
M  V30 57 H -6.7436 2.0635 0.179 0
M  V30 58 H -6.881 1.7961 -2.767 0
M  V30 END ATOM
M  V30 BEGIN BOND
M  V30 1 1 1 2
M  V30 2 2 2 3
M  V30 3 1 2 4
M  V30 4 1 3 5
M  V30 5 2 4 6
M  V30 6 1 5 7
M  V30 7 2 5 8
M  V30 8 1 7 9
M  V30 9 1 8 10
M  V30 10 1 10 11
M  V30 11 1 11 12
M  V30 12 1 11 13
M  V30 13 1 12 14
M  V30 14 1 13 15
M  V30 15 1 14 16
M  V30 16 1 16 17
M  V30 17 1 17 18
M  V30 18 1 18 19
M  V30 19 1 19 20
M  V30 20 2 19 21
M  V30 21 2 20 22
M  V30 22 1 20 23
M  V30 23 1 21 24
M  V30 24 1 21 25
M  V30 25 1 23 26
M  V30 26 1 23 27
M  V30 27 1 26 28
M  V30 28 1 27 29
M  V30 29 1 28 30
M  V30 30 1 29 31
M  V30 31 1 6 8
M  V30 32 2 9 10
M  V30 33 1 15 16
M  V30 34 2 24 26
M  V30 35 1 29 30
M  V30 36 1 3 32
M  V30 37 1 4 33
M  V30 38 1 6 34
M  V30 39 1 11 35
M  V30 40 1 12 36
M  V30 41 1 12 37
M  V30 42 1 13 38
M  V30 43 1 13 39
M  V30 44 1 14 40
M  V30 45 1 14 41
M  V30 46 1 15 42
M  V30 47 1 15 43
M  V30 48 1 17 44
M  V30 49 1 17 45
M  V30 50 1 18 46
M  V30 51 1 18 47
M  V30 52 1 25 48
M  V30 53 1 25 49
M  V30 54 1 25 50
M  V30 55 1 27 51
M  V30 56 1 27 52
M  V30 57 1 28 53
M  V30 58 1 28 54
M  V30 59 1 29 55
M  V30 60 1 30 56
M  V30 61 1 30 57
M  V30 62 1 31 58
M  V30 END BOND
M  V30 BEGIN COLLECTION
M  V30 MDLV30/STERAC1 ATOMS=(1 29)
M  V30 END COLLECTION
M  V30 END CTAB
M  END
>  <Column 1>
191

>  <level_0>
221

>  <index>
221

>  <Unnamed: 0>
221

>  <NO.>
222

>  <Name>
7-hydroxy risperidone

>  <IUPAC_name>
3-[2-[4-(6-fluoro-1-2-benzoxazol-3-yl)piperidin-1-yl]ethyl]-7-hydroxy-2-methyl-6-7-8-9-tetrahydropyrido[1-2-a]pyrimidin-4-one

>  <SMILES>
Cc1nc2n(c(=O)c1CCN1CCC(c3noc4cc(F)ccc34)CC1)CC(O)CC2

>  <CID>
475100

>  <logBB>
-0.67

>  <BBB+/BBB->
BBB+

>  <Inchi>
InChI=1S/C23H27FN4O3/c1-14-18(23(30)28-13-17(29)3-5-21(28)25-14)8-11-27-9-6-15(7-10-27)22-19-4-2-16(24)12-20(19)31-26-22/h2-4-12-15-17-29H-3-5-11-13H2-1H3

>  <threshold>


>  <reference>
R2|R2|R8|R40|R21|R27|

>  <group>
A

>  <Class>
1

>  <ABC>
24.9

>  <ABCGG>
17.74

>  <nAcid>
0

>  <nBase>
1

>  <nAromAtom>
15

>  <nAromBond>
16

>  <nAtom>
58

>  <nHeavyAtom>
31

>  <nSpiro>
0

>  <nBridgehead>
0

>  <nHetero>
8

>  <nN>
4

>  <nO>
3

>  <nF>
1

>  <BalabanJ>
1.09

>  <BertzCT>
1163.57

>  <nBonds>
62

>  <nBondsO>
35

>  <nBondsS>
45

>  <nBondsD>
1

>  <nBondsT>
0

>  <nBondsA>
16

>  <nBondsM>
17

>  <nBondsKS>
55

>  <nBondsKD>
7

>  <RNCG>
0.17

>  <RPCG>
0.11

>  <FCSP3>
0.52

>  <SZ>
37.67

>  <Sm>
35.51

>  <Sv>
36.14

>  <Sse>
58.59

>  <Sp>
38.19

>  <Si>
65.94

>  <MZ>
0.65

>  <Mm>
0.61

>  <Mv>
0.62

>  <Mse>
1.01

>  <Mp>
0.66

>  <Mi>
1.14

>  <NsCH3>
1

>  <NdCH2>
0

>  <NssCH2>
9

>  <NtCH>
0

>  <NdsCH>
0

>  <NaaCH>
3

>  <NsssCH>
2

>  <NddC>
0

>  <NtsC>
0

>  <NdssC>
0

>  <NaasC>
5

>  <NaaaC>
2

>  <NssssC>
0

>  <NsNH3>
0

>  <NsNH2>
0

>  <NssNH2>
0

>  <NdNH>
0

>  <NssNH>
0

>  <NaaNH>
0

>  <NtN>
0

>  <NsssNH>
0

>  <NdsN>
0

>  <NaaN>
2

>  <NsssN>
1

>  <NddsN>
0

>  <NaasN>
1

>  <NssssN>
0

>  <NsOH>
1

>  <NdO>
1

>  <NssO>
0

>  <NaaO>
1

>  <NsF>
1

>  <NsSiH3>
0

>  <NssSiH2>
0

>  <NsssSiH>
0

>  <NssssSi>
0

>  <NsPH2>
0

>  <NssPH>
0

>  <NsssP>
0

>  <NdsssP>
0

>  <NsssssP>
0

>  <NsSH>
0

>  <NdS>
0

>  <NssS>
0

>  <NaaS>
0

>  <NdssS>
0

>  <NddssS>
0

>  <NsCl>
0

>  <NsBr>
0

>  <NsI>
0

>  <fragCpx>
295.08

>  <fMF>
0.47

>  <nHBAcc>
7

>  <nHBDon>
1

>  <Kier1>
22.78

>  <Kier2>
9.7

>  <Lipinski>
1

>  <GhoseFilter>
1

>  <FilterItLogS>
-5.49

>  <VMcGowan>
309.82

>  <LabuteASA>
179.03

>  <PEOE_VSA1>
14.53

>  <PEOE_VSA2>
9.36

>  <PEOE_VSA3>
9.37

>  <PEOE_VSA4>
0

>  <PEOE_VSA5>
0

>  <PEOE_VSA6>
5.16

>  <PEOE_VSA7>
57.83

>  <PEOE_VSA8>
41.59

>  <PEOE_VSA9>
18.34

>  <PEOE_VSA10>
11.64

>  <PEOE_VSA11>
5.58

>  <PEOE_VSA12>
0

>  <PEOE_VSA13>
5.56

>  <SMR_VSA1>
14.02

>  <SMR_VSA2>
0

>  <SMR_VSA3>
19.61

>  <SMR_VSA4>
0

>  <SMR_VSA5>
57.59

>  <SMR_VSA6>
19.63

>  <SMR_VSA7>
57.15

>  <SMR_VSA8>
0

>  <SMR_VSA9>
0

>  <SlogP_VSA1>
5.56

>  <SlogP_VSA2>
50.45

>  <SlogP_VSA3>
19.39

>  <SlogP_VSA4>
12.74

>  <SlogP_VSA5>
47.96

>  <SlogP_VSA6>
27.52

>  <SlogP_VSA7>
0

>  <SlogP_VSA8>
10.97

>  <SlogP_VSA9>
0

>  <SlogP_VSA10>
4.39

>  <SlogP_VSA11>
0

>  <EState_VSA1>
6.1

>  <EState_VSA2>
11.38

>  <EState_VSA3>
37.31

>  <EState_VSA4>
60.64

>  <EState_VSA5>
12.13

>  <EState_VSA6>
10.63

>  <EState_VSA7>
6.92

>  <EState_VSA8>
15.04

>  <EState_VSA9>
4.52

>  <EState_VSA10>
14.29

>  <VSA_EState1>
20.38

>  <VSA_EState2>
19.97

>  <VSA_EState3>
15.04

>  <VSA_EState4>
2.98

>  <VSA_EState5>
0.77

>  <VSA_EState6>
4.58

>  <VSA_EState7>
3.4

>  <VSA_EState8>
4.88

>  <VSA_EState9>
0

>  <apol>
63.78

>  <bpol>
35.36

>  <nRing>
5

>  <nHRing>
4

>  <naRing>
3

>  <naHRing>
2

>  <nARing 2>
2

>  <nAHRing 2>
2

>  <nFRing>
2

>  <nFHRing>
2

>  <nFaRing>
1

>  <nFaHRing>
1

>  <nFARing 2>
1

>  <nFAHRing 2>
1

>  <nRot>
4

>  <SLogP>
2.56

>  <SMR>
113.65

>  <TopoPSA(NO)>
84.39

>  <TopoPSA>
84.39

>  <JGI1>
0.19

>  <JGI2>
0.08

>  <JGI3>
0.04

>  <JGI4>
0.05

>  <JGI5>
0.03

>  <Diameter>
17

>  <Radius>
9

>  <TMWC10>
144.48

>  <TSRW10>
81.32

>  <MW>
426.21

>  <AMW>
7.35

>  <WPath>
3053

>  <WPol>
53

>  <Zagreb1>
172

>  <Zagreb2>
207

>  <mZagreb2>
6.61

>  <yes>


>  <nAR-cont>
1

>  <nHA-cont>
0.702745138

>  <MWHBN>
0.387505766

>  <MWHBN-cont>
0.525290237

>  <TPSA-cont>
0.410905397

>  <pka_cont>
0.97

>  <yes.1>


>  <BBB_SCORE>
3.797491288

>  <MMFF94 Energy>
-3.0109

$$$$
Compound 146
Actelion Java MolfileCreator 2.0

  0  0  0  0  0  0              0 V3000
M  V30 BEGIN CTAB
M  V30 COUNTS 34 35 0 0 0
M  V30 BEGIN ATOM
M  V30 1 Br -3.1839 0.3262 1.5502 0
M  V30 2 C -2.0494 -0.6407 2.7207 0
M  V30 3 C -0.6654 -0.7435 2.55 0
M  V30 4 C -2.6424 -1.2888 3.8063 0
M  V30 5 N 0.1123 -1.4639 3.4132 0
M  V30 6 C 0.0801 -0.0699 1.4203 0
M  V30 7 C -1.8539 -2.0169 4.6902 0
M  V30 8 C -0.4935 -2.0743 4.4542 0
M  V30 9 S 0.402 1.6953 1.7684 0
M  V30 10 C 1.8437 1.9803 0.6805 0
M  V30 11 C 1.5819 1.8248 -0.8232 0
M  V30 12 N 1.5853 0.4222 -1.2359 0
M  V30 13 C 0.9742 -0.0046 -2.3696 0
M  V30 14 N 1.5999 -1.0183 -3.061 0
M  V30 15 C -0.1792 0.3232 -3.077 0
M  V30 16 C 0.962 -1.2628 -4.2435 0
M  V30 17 C -1.2663 1.2255 -2.7407 0
M  V30 18 C -0.1402 -0.4462 -4.2868 0
M  V30 19 O -2.0307 1.7328 -3.5513 0
M  V30 20 O -1.4663 1.4355 -1.4228 0
M  V30 21 H -3.715 -1.2294 3.9709 0
M  V30 22 H -0.467 -0.1871 0.4823 0
M  V30 23 H 1.0419 -0.5816 1.3027 0
M  V30 24 H -2.291 -2.5255 5.5421 0
M  V30 25 H 0.1673 -2.6282 5.1149 0
M  V30 26 H 2.1573 3.0131 0.8685 0
M  V30 27 H 2.6654 1.3348 1.0094 0
M  V30 28 H 0.6761 2.3638 -1.1064 0
M  V30 29 H 2.4039 2.3161 -1.3589 0
M  V30 30 H 2.3405 -0.1201 -0.8211 0
M  V30 31 H 2.4555 -1.4627 -2.7643 0
M  V30 32 H 1.3383 -1.9982 -4.9416 0
M  V30 33 H -0.8749 -0.4153 -5.0826 0
M  V30 34 H -2.2571 2.0095 -1.3988 0
M  V30 END ATOM
M  V30 BEGIN BOND
M  V30 1 1 1 2
M  V30 2 2 2 3
M  V30 3 1 2 4
M  V30 4 1 3 5
M  V30 5 1 3 6
M  V30 6 2 4 7
M  V30 7 2 5 8
M  V30 8 1 6 9
M  V30 9 1 9 10
M  V30 10 1 10 11
M  V30 11 1 11 12
M  V30 12 1 12 13
M  V30 13 1 13 14
M  V30 14 2 13 15
M  V30 15 1 14 16
M  V30 16 1 15 17
M  V30 17 1 15 18
M  V30 18 2 17 19
M  V30 19 1 17 20
M  V30 20 1 7 8
M  V30 21 2 16 18
M  V30 22 1 4 21
M  V30 23 1 6 22
M  V30 24 1 6 23
M  V30 25 1 7 24
M  V30 26 1 8 25
M  V30 27 1 10 26
M  V30 28 1 10 27
M  V30 29 1 11 28
M  V30 30 1 11 29
M  V30 31 1 12 30
M  V30 32 1 14 31
M  V30 33 1 16 32
M  V30 34 1 18 33
M  V30 35 1 20 34
M  V30 END BOND
M  V30 END CTAB
M  END
>  <Column 1>
193

>  <level_0>
223

>  <index>
223

>  <Unnamed: 0>
223

>  <NO.>
224

>  <Name>
-

>  <IUPAC_name>


>  <SMILES>
O=C(O)c1cc[nH]c1NCCSCc1ncccc1Br

>  <CID>


>  <logBB>
-0.67

>  <BBB+/BBB->
BBB+

>  <Inchi>
InChI=1S/C13H14BrN3O2S/c14-10-2-1-4-15-11(10)8-20-7-6-17-12-9(13(18)19)3-5-16-12/h1-5-16-17H-6-8H2-(H-18-19)

>  <threshold>


>  <reference>
R2|R2|R8|R48|

>  <group>
A

>  <Class>
1

>  <ABC>
15.06

>  <ABCGG>
12.86

>  <nAcid>
1

>  <nBase>
0

>  <nAromAtom>
11

>  <nAromBond>
11

>  <nAtom>
34

>  <nHeavyAtom>
20

>  <nSpiro>
0

>  <nBridgehead>
0

>  <nHetero>
7

>  <nN>
3

>  <nO>
2

>  <nF>
0

>  <BalabanJ>
1.55

>  <BertzCT>
588.5

>  <nBonds>
35

>  <nBondsO>
21

>  <nBondsS>
23

>  <nBondsD>
1

>  <nBondsT>
0

>  <nBondsA>
11

>  <nBondsM>
12

>  <nBondsKS>
29

>  <nBondsKD>
6

>  <RNCG>
0.24

>  <RPCG>
0.17

>  <FCSP3>
0.23

>  <SZ>
30

>  <Sm>
29.66

>  <Sv>
22.97

>  <Sse>
34.61

>  <Sp>
25.09

>  <Si>
38.17

>  <MZ>
0.88

>  <Mm>
0.87

>  <Mv>
0.68

>  <Mse>
1.02

>  <Mp>
0.74

>  <Mi>
1.12

>  <NsCH3>
0

>  <NdCH2>
0

>  <NssCH2>
3

>  <NtCH>
0

>  <NdsCH>
0

>  <NaaCH>
5

>  <NsssCH>
0

>  <NddC>
0

>  <NtsC>
0

>  <NdssC>
1

>  <NaasC>
4

>  <NaaaC>
0

>  <NssssC>
0

>  <NsNH3>
0

>  <NsNH2>
0

>  <NssNH2>
0

>  <NdNH>
0

>  <NssNH>
1

>  <NaaNH>
1

>  <NtN>
0

>  <NsssNH>
0

>  <NdsN>
0

>  <NaaN>
1

>  <NsssN>
0

>  <NddsN>
0

>  <NaasN>
0

>  <NssssN>
0

>  <NsOH>
1

>  <NdO>
1

>  <NssO>
0

>  <NaaO>
0

>  <NsF>
0

>  <NsSiH3>
0

>  <NssSiH2>
0

>  <NsssSiH>
0

>  <NssssSi>
0

>  <NsPH2>
0

>  <NssPH>
0

>  <NsssP>
0

>  <NdsssP>
0

>  <NsssssP>
0

>  <NsSH>
0

>  <NdS>
0

>  <NssS>
1

>  <NaaS>
0

>  <NdssS>
0

>  <NddssS>
0

>  <NsCl>
0

>  <NsBr>
1

>  <NsI>
0

>  <fragCpx>
61.07

>  <fMF>
0.47

>  <nHBAcc>
4

>  <nHBDon>
3

>  <Kier1>
16.37

>  <Kier2>
8.44

>  <Lipinski>
1

>  <GhoseFilter>
1

>  <FilterItLogS>
-4.55

>  <VMcGowan>
222.04

>  <LabuteASA>
128.87

>  <PEOE_VSA1>
15.41

>  <PEOE_VSA2>
4.98

>  <PEOE_VSA3>
4.79

>  <PEOE_VSA4>
11.76

>  <PEOE_VSA5>
0

>  <PEOE_VSA6>
0

>  <PEOE_VSA7>
34.13

>  <PEOE_VSA8>
34.92

>  <PEOE_VSA9>
5.69

>  <PEOE_VSA10>
11.38

>  <PEOE_VSA11>
0

>  <PEOE_VSA12>
0

>  <PEOE_VSA13>
0

>  <SMR_VSA1>
9.9

>  <SMR_VSA2>
0

>  <SMR_VSA3>
9.97

>  <SMR_VSA4>
0

>  <SMR_VSA5>
5.75

>  <SMR_VSA6>
17.61

>  <SMR_VSA7>
46.32

>  <SMR_VSA8>
0

>  <SMR_VSA9>
0

>  <SlogP_VSA1>
5.32

>  <SlogP_VSA2>
33.34

>  <SlogP_VSA3>
5.75

>  <SlogP_VSA4>
0

>  <SlogP_VSA5>
16.05

>  <SlogP_VSA6>
35.07

>  <SlogP_VSA7>
0

>  <SlogP_VSA8>
0

>  <SlogP_VSA9>
0

>  <SlogP_VSA10>
5.82

>  <SlogP_VSA11>
0

>  <EState_VSA1>
5.97

>  <EState_VSA2>
5.56

>  <EState_VSA3>
12.36

>  <EState_VSA4>
21.67

>  <EState_VSA5>
0

>  <EState_VSA6>
30.22

>  <EState_VSA7>
12.13

>  <EState_VSA8>
31.21

>  <EState_VSA9>
5.11

>  <EState_VSA10>
4.79

>  <VSA_EState1>
1.01

>  <VSA_EState2>
18.09

>  <VSA_EState3>
12.04

>  <VSA_EState4>
1.28

>  <VSA_EState5>
1.3

>  <VSA_EState6>
5.4

>  <VSA_EState7>
3.39

>  <VSA_EState8>
0.69

>  <VSA_EState9>
0

>  <apol>
41.9

>  <bpol>
21.03

>  <nRing>
2

>  <nHRing>
2

>  <naRing>
2

>  <naHRing>
2

>  <nARing 2>
0

>  <nAHRing 2>
0

>  <nFRing>
0

>  <nFHRing>
0

>  <nFaRing>
0

>  <nFaHRing>
0

>  <nFARing 2>
0

>  <nFAHRing 2>
0

>  <nRot>
7

>  <SLogP>
3.22

>  <SMR>
84.34

>  <TopoPSA(NO)>
78.01

>  <TopoPSA>
103.31

>  <JGI1>
0.14

>  <JGI2>
0.08

>  <JGI3>
0.05

>  <JGI4>
0.04

>  <JGI5>
0.02

>  <Diameter>
12

>  <Radius>
6

>  <TMWC10>
111.78

>  <TSRW10>
66.35

>  <MW>
355

>  <AMW>
10.44

>  <WPath>
996

>  <WPol>
25

>  <Zagreb1>
96

>  <Zagreb2>
108

>  <mZagreb2>
4.58

>  <yes>


>  <nAR-cont>
0.336376

>  <nHA-cont>
0.999629945

>  <MWHBN>
0.371521425

>  <MWHBN-cont>
0.587949578

>  <TPSA-cont>
0.278832048

>  <pka_cont>
0.97

>  <yes.1>


>  <BBB_SCORE>
3.260594408

>  <MMFF94 Energy>
66.508

$$$$
Compound 147
Actelion Java MolfileCreator 2.0

  0  0  0  0  0  0              0 V3000
M  V30 BEGIN CTAB
M  V30 COUNTS 33 34 0 0 0
M  V30 BEGIN ATOM
M  V30 1 Br 4.9266 1.0659 -1.3119 0
M  V30 2 C 4.1011 -0.5935 -0.9092 0
M  V30 3 C 3.2443 -0.7789 0.1826 0
M  V30 4 C 4.3782 -1.6749 -1.7478 0
M  V30 5 N 2.7003 -1.9993 0.4495 0
M  V30 6 C 2.9367 0.3623 1.1344 0
M  V30 7 C 3.8107 -2.9149 -1.4805 0
M  V30 8 C 2.9873 -3.0279 -0.3775 0
M  V30 9 S 1.5835 0.1152 2.3396 0
M  V30 10 C 0.1554 -0.0861 1.2149 0
M  V30 11 C -0.2279 1.2149 0.5043 0
M  V30 12 N -1.4388 1.045 -0.2861 0
M  V30 13 C -2.7113 1.1124 0.1796 0
M  V30 14 N -2.9914 1.398 1.4967 0
M  V30 15 C -3.9308 0.9361 -0.4637 0
M  V30 16 C -4.3469 1.4057 1.7052 0
M  V30 17 N -4.1259 0.6202 -1.8575 0 CHG=1
M  V30 18 C -4.9589 1.123 0.5056 0
M  V30 19 O -5.2981 0.5138 -2.2448 0
M  V30 20 O -3.119 0.4764 -2.5671 0 CHG=-1
M  V30 21 H 5.0364 -1.5619 -2.6053 0
M  V30 22 H 2.7015 1.2727 0.5765 0
M  V30 23 H 3.84 0.5607 1.722 0
M  V30 24 H 4.0103 -3.7719 -2.1138 0
M  V30 25 H 2.5218 -3.9746 -0.1174 0
M  V30 26 H 0.3393 -0.8842 0.4902 0
M  V30 27 H -0.6793 -0.4274 1.8369 0
M  V30 28 H -0.3445 2.0424 1.2143 0
M  V30 29 H 0.5707 1.5091 -0.1851 0
M  V30 30 H -1.2864 0.8199 -1.2747 0
M  V30 31 H -2.2996 1.5744 2.211 0
M  V30 32 H -4.7547 1.6113 2.6865 0
M  V30 33 H -6.0269 1.0558 0.3375 0
M  V30 END ATOM
M  V30 BEGIN BOND
M  V30 1 1 1 2
M  V30 2 2 2 3
M  V30 3 1 2 4
M  V30 4 1 3 5
M  V30 5 1 3 6
M  V30 6 2 4 7
M  V30 7 2 5 8
M  V30 8 1 6 9
M  V30 9 1 9 10
M  V30 10 1 10 11
M  V30 11 1 11 12
M  V30 12 1 12 13
M  V30 13 1 13 14
M  V30 14 2 13 15
M  V30 15 1 14 16
M  V30 16 1 15 17
M  V30 17 1 15 18
M  V30 18 2 17 19
M  V30 19 1 17 20
M  V30 20 1 7 8
M  V30 21 2 16 18
M  V30 22 1 4 21
M  V30 23 1 6 22
M  V30 24 1 6 23
M  V30 25 1 7 24
M  V30 26 1 8 25
M  V30 27 1 10 26
M  V30 28 1 10 27
M  V30 29 1 11 28
M  V30 30 1 11 29
M  V30 31 1 12 30
M  V30 32 1 14 31
M  V30 33 1 16 32
M  V30 34 1 18 33
M  V30 END BOND
M  V30 END CTAB
M  END
>  <Column 1>
194

>  <level_0>
224

>  <index>
224

>  <Unnamed: 0>
224

>  <NO.>
225

>  <Name>
bbcpd12 (cimetidine derivative) (skb15)

>  <IUPAC_name>
n-[2-[(3-bromopyridin-2-yl)methylsulfanyl]ethyl]-3-nitro-1h-pyrrol-2-amine

>  <SMILES>
O=[N+]([O-])c1cc[nH]c1NCCSCc1ncccc1Br

>  <CID>
14022480

>  <logBB>
-0.67

>  <BBB+/BBB->
BBB+

>  <Inchi>
InChI=1S/C12H13BrN4O2S/c13-9-2-1-4-14-10(9)8-20-7-6-16-12-11(17(18)19)3-5-15-12/h1-5-15-16H-6-8H2

>  <threshold>


>  <reference>
R2|R2|R8|R40|R3|R3|R4|R12|R21|R25|R27|R38|R38|R41|R41|R43|R46|R47|R49|R49|

>  <group>
A

>  <Class>
1

>  <ABC>
15.06

>  <ABCGG>
12.86

>  <nAcid>
0

>  <nBase>
0

>  <nAromAtom>
11

>  <nAromBond>
11

>  <nAtom>
33

>  <nHeavyAtom>
20

>  <nSpiro>
0

>  <nBridgehead>
0

>  <nHetero>
8

>  <nN>
4

>  <nO>
2

>  <nF>
0

>  <BalabanJ>
1.55

>  <BertzCT>
590.34

>  <nBonds>
34

>  <nBondsO>
21

>  <nBondsS>
22

>  <nBondsD>
1

>  <nBondsT>
0

>  <nBondsA>
11

>  <nBondsM>
12

>  <nBondsKS>
28

>  <nBondsKD>
6

>  <RNCG>
0.21

>  <RPCG>
0.18

>  <FCSP3>
0.25

>  <SZ>
30

>  <Sm>
29.74

>  <Sv>
22.46

>  <Sse>
33.83

>  <Sp>
24.35

>  <Si>
37.25

>  <MZ>
0.91

>  <Mm>
0.9

>  <Mv>
0.68

>  <Mse>
1.03

>  <Mp>
0.74

>  <Mi>
1.13

>  <NsCH3>
0

>  <NdCH2>
0

>  <NssCH2>
3

>  <NtCH>
0

>  <NdsCH>
0

>  <NaaCH>
5

>  <NsssCH>
0

>  <NddC>
0

>  <NtsC>
0

>  <NdssC>
0

>  <NaasC>
4

>  <NaaaC>
0

>  <NssssC>
0

>  <NsNH3>
0

>  <NsNH2>
0

>  <NssNH2>
0

>  <NdNH>
0

>  <NssNH>
1

>  <NaaNH>
1

>  <NtN>
0

>  <NsssNH>
0

>  <NdsN>
0

>  <NaaN>
1

>  <NsssN>
0

>  <NddsN>
1

>  <NaasN>
0

>  <NssssN>
0

>  <NsOH>
0

>  <NdO>
1

>  <NssO>
0

>  <NaaO>
0

>  <NsF>
0

>  <NsSiH3>
0

>  <NssSiH2>
0

>  <NsssSiH>
0

>  <NssssSi>
0

>  <NsPH2>
0

>  <NssPH>
0

>  <NsssP>
0

>  <NdsssP>
0

>  <NsssssP>
0

>  <NsSH>
0

>  <NdS>
0

>  <NssS>
1

>  <NaaS>
0

>  <NdssS>
0

>  <NddssS>
0

>  <NsCl>
0

>  <NsBr>
1

>  <NsI>
0

>  <fragCpx>
61.08

>  <fMF>
0.48

>  <nHBAcc>
5

>  <nHBDon>
2

>  <Kier1>
16.37

>  <Kier2>
8.44

>  <Lipinski>
1

>  <GhoseFilter>
1

>  <FilterItLogS>
-5.19

>  <VMcGowan>
217.93

>  <LabuteASA>
128.21

>  <PEOE_VSA1>
10.3

>  <PEOE_VSA2>
15.1

>  <PEOE_VSA3>
0

>  <PEOE_VSA4>
11.76

>  <PEOE_VSA5>
0

>  <PEOE_VSA6>
0

>  <PEOE_VSA7>
28.06

>  <PEOE_VSA8>
40.98

>  <PEOE_VSA9>
10.62

>  <PEOE_VSA10>
0

>  <PEOE_VSA11>
5.82

>  <PEOE_VSA12>
0

>  <PEOE_VSA13>
0

>  <SMR_VSA1>
4.92

>  <SMR_VSA2>
0

>  <SMR_VSA3>
9.97

>  <SMR_VSA4>
0

>  <SMR_VSA5>
5.75

>  <SMR_VSA6>
17.61

>  <SMR_VSA7>
50.87

>  <SMR_VSA8>
0

>  <SMR_VSA9>
0

>  <SlogP_VSA1>
5.32

>  <SlogP_VSA2>
27.19

>  <SlogP_VSA3>
5.75

>  <SlogP_VSA4>
10.11

>  <SlogP_VSA5>
5.69

>  <SlogP_VSA6>
35.07

>  <SlogP_VSA7>
0

>  <SlogP_VSA8>
0

>  <SlogP_VSA9>
0

>  <SlogP_VSA10>
11.51

>  <SlogP_VSA11>
0

>  <EState_VSA1>
4.92

>  <EState_VSA2>
5.69

>  <EState_VSA3>
12.36

>  <EState_VSA4>
21.67

>  <EState_VSA5>
6.07

>  <EState_VSA6>
24.16

>  <EState_VSA7>
12.13

>  <EState_VSA8>
31.21

>  <EState_VSA9>
0

>  <EState_VSA10>
10.11

>  <VSA_EState1>
1

>  <VSA_EState2>
17.42

>  <VSA_EState3>
13.75

>  <VSA_EState4>
1.07

>  <VSA_EState5>
2.09

>  <VSA_EState6>
5.29

>  <VSA_EState7>
3.32

>  <VSA_EState8>
0.65

>  <VSA_EState9>
0

>  <apol>
40.66

>  <bpol>
20.33

>  <nRing>
2

>  <nHRing>
2

>  <naRing>
2

>  <naHRing>
2

>  <nARing 2>
0

>  <nAHRing 2>
0

>  <nFRing>
0

>  <nFHRing>
0

>  <nFaRing>
0

>  <nFaHRing>
0

>  <nFARing 2>
0

>  <nFAHRing 2>
0

>  <nRot>
7

>  <SLogP>
3.43

>  <SMR>
84.04

>  <TopoPSA(NO)>
83.85

>  <TopoPSA>
109.15

>  <JGI1>
0.14

>  <JGI2>
0.08

>  <JGI3>
0.05

>  <JGI4>
0.04

>  <JGI5>
0.02

>  <Diameter>
12

>  <Radius>
6

>  <TMWC10>
111.78

>  <TSRW10>
66.35

>  <MW>
355.99

>  <AMW>
10.79

>  <WPath>
996

>  <WPol>
25

>  <Zagreb1>
96

>  <Zagreb2>
108

>  <mZagreb2>
4.58

>  <yes>


>  <nAR-cont>
0.336376

>  <nHA-cont>
0.999629945

>  <MWHBN>
0.371004469

>  <MWHBN-cont>
0.589960888

>  <TPSA-cont>
0.238065222

>  <pka_cont>
0.97

>  <yes.1>


>  <BBB_SCORE>
3.18207772

>  <MMFF94 Energy>
121.05

$$$$
Compound 148
Actelion Java MolfileCreator 2.0

  0  0  0  0  0  0              0 V3000
M  V30 BEGIN CTAB
M  V30 COUNTS 20 20 0 0 0
M  V30 BEGIN ATOM
M  V30 1 N -1.1381 -1.0622 2.3532 0
M  V30 2 C -0.5584 -0.5182 1.2025 0
M  V30 3 C -0.6975 0.8526 0.9074 0
M  V30 4 C 0.0718 -1.3574 0.277 0
M  V30 5 N -1.3431 1.7126 1.8018 0
M  V30 6 C -0.0863 1.3715 -0.2393 0
M  V30 7 C 0.6829 -0.8384 -0.8697 0
M  V30 8 C 0.5439 0.5323 -1.1648 0
M  V30 9 N 1.3285 -1.6984 -1.7641 0
M  V30 10 N 1.1236 1.0763 -2.3156 0
M  V30 11 H -1.2642 -0.4248 3.1285 0
M  V30 12 H -0.937 -2.0257 2.5827 0
M  V30 13 H 0.1287 -2.4228 0.4758 0
M  V30 14 H -2.0395 1.2874 2.3996 0
M  V30 15 H -1.5096 2.6672 1.5146 0
M  V30 16 H -0.1433 2.437 -0.438 0
M  V30 17 H 2.0248 -1.2732 -2.3617 0
M  V30 18 H 1.4949 -2.6529 -1.4768 0
M  V30 19 H 0.9224 2.0399 -2.5449 0
M  V30 20 H 1.2496 0.439 -3.0907 0
M  V30 END ATOM
M  V30 BEGIN BOND
M  V30 1 1 1 2
M  V30 2 2 2 3
M  V30 3 1 2 4
M  V30 4 1 3 5
M  V30 5 1 3 6
M  V30 6 2 4 7
M  V30 7 2 6 8
M  V30 8 1 7 9
M  V30 9 1 8 10
M  V30 10 1 7 8
M  V30 11 1 1 11
M  V30 12 1 1 12
M  V30 13 1 4 13
M  V30 14 1 5 14
M  V30 15 1 5 15
M  V30 16 1 6 16
M  V30 17 1 9 17
M  V30 18 1 9 18
M  V30 19 1 10 19
M  V30 20 1 10 20
M  V30 END BOND
M  V30 END CTAB
M  END
>  <Column 1>
196

>  <level_0>
226

>  <index>
226

>  <Unnamed: 0>
226

>  <NO.>
227

>  <Name>
y15

>  <IUPAC_name>
benzene-1-2-4-5-tetramine;tetrahydrochloride

>  <SMILES>
Nc1cc(N)c(N)cc1N

>  <CID>
78261

>  <logBB>
-0.67

>  <BBB+/BBB->
BBB+

>  <Inchi>
InChI=1S/C6H10N4/c7-3-1-4(8)6(10)2-5(3)9/h1-2H-7-10H2

>  <threshold>


>  <reference>
R11|

>  <group>
A

>  <Class>
1

>  <ABC>
7.43

>  <ABCGG>
7.17

>  <nAcid>
0

>  <nBase>
0

>  <nAromAtom>
6

>  <nAromBond>
6

>  <nAtom>
20

>  <nHeavyAtom>
10

>  <nSpiro>
0

>  <nBridgehead>
0

>  <nHetero>
4

>  <nN>
4

>  <nO>
0

>  <nF>
0

>  <BalabanJ>
2.46

>  <BertzCT>
205.92

>  <nBonds>
20

>  <nBondsO>
10

>  <nBondsS>
14

>  <nBondsD>
0

>  <nBondsT>
0

>  <nBondsA>
6

>  <nBondsM>
6

>  <nBondsKS>
17

>  <nBondsKD>
3

>  <RNCG>
0.25

>  <RPCG>
0.1

>  <FCSP3>
0

>  <SZ>
12.33

>  <Sm>
11.5

>  <Sv>
11.74

>  <Sse>
20.09

>  <Sp>
12.63

>  <Si>
23.24

>  <MZ>
0.62

>  <Mm>
0.58

>  <Mv>
0.59

>  <Mse>
1

>  <Mp>
0.63

>  <Mi>
1.16

>  <NsCH3>
0

>  <NdCH2>
0

>  <NssCH2>
0

>  <NtCH>
0

>  <NdsCH>
0

>  <NaaCH>
2

>  <NsssCH>
0

>  <NddC>
0

>  <NtsC>
0

>  <NdssC>
0

>  <NaasC>
4

>  <NaaaC>
0

>  <NssssC>
0

>  <NsNH3>
0

>  <NsNH2>
4

>  <NssNH2>
0

>  <NdNH>
0

>  <NssNH>
0

>  <NaaNH>
0

>  <NtN>
0

>  <NsssNH>
0

>  <NdsN>
0

>  <NaaN>
0

>  <NsssN>
0

>  <NddsN>
0

>  <NaasN>
0

>  <NssssN>
0

>  <NsOH>
0

>  <NdO>
0

>  <NssO>
0

>  <NaaO>
0

>  <NsF>
0

>  <NsSiH3>
0

>  <NssSiH2>
0

>  <NsssSiH>
0

>  <NssssSi>
0

>  <NsPH2>
0

>  <NssPH>
0

>  <NsssP>
0

>  <NdsssP>
0

>  <NsssssP>
0

>  <NsSH>
0

>  <NdS>
0

>  <NssS>
0

>  <NaaS>
0

>  <NdssS>
0

>  <NddssS>
0

>  <NsCl>
0

>  <NsBr>
0

>  <NsI>
0

>  <fragCpx>
10.04

>  <fMF>
0.3

>  <nHBAcc>
4

>  <nHBDon>
4

>  <Kier1>
8.1

>  <Kier2>
2.94

>  <Lipinski>
1

>  <GhoseFilter>
0

>  <FilterItLogS>
-0.63

>  <VMcGowan>
111.56

>  <LabuteASA>
58.79

>  <PEOE_VSA1>
22.93

>  <PEOE_VSA2>
0

>  <PEOE_VSA3>
0

>  <PEOE_VSA4>
0

>  <PEOE_VSA5>
0

>  <PEOE_VSA6>
0

>  <PEOE_VSA7>
12.13

>  <PEOE_VSA8>
0

>  <PEOE_VSA9>
22.75

>  <PEOE_VSA10>
0

>  <PEOE_VSA11>
0

>  <PEOE_VSA12>
0

>  <PEOE_VSA13>
0

>  <SMR_VSA1>
0

>  <SMR_VSA2>
0

>  <SMR_VSA3>
0

>  <SMR_VSA4>
0

>  <SMR_VSA5>
0

>  <SMR_VSA6>
22.93

>  <SMR_VSA7>
12.13

>  <SMR_VSA8>
0

>  <SMR_VSA9>
0

>  <SlogP_VSA1>
22.93

>  <SlogP_VSA2>
0

>  <SlogP_VSA3>
0

>  <SlogP_VSA4>
0

>  <SlogP_VSA5>
0

>  <SlogP_VSA6>
12.13

>  <SlogP_VSA7>
0

>  <SlogP_VSA8>
0

>  <SlogP_VSA9>
0

>  <SlogP_VSA10>
22.75

>  <SlogP_VSA11>
0

>  <EState_VSA1>
0

>  <EState_VSA2>
0

>  <EState_VSA3>
22.75

>  <EState_VSA4>
0

>  <EState_VSA5>
0

>  <EState_VSA6>
12.13

>  <EState_VSA7>
0

>  <EState_VSA8>
0

>  <EState_VSA9>
22.93

>  <EState_VSA10>
0

>  <VSA_EState1>
0

>  <VSA_EState2>
0

>  <VSA_EState3>
0

>  <VSA_EState4>
23.57

>  <VSA_EState5>
0

>  <VSA_EState6>
3.09

>  <VSA_EState7>
0

>  <VSA_EState8>
0

>  <VSA_EState9>
0

>  <apol>
21.09

>  <bpol>
7.75

>  <nRing>
1

>  <nHRing>
0

>  <naRing>
1

>  <naHRing>
0

>  <nARing 2>
0

>  <nAHRing 2>
0

>  <nFRing>
0

>  <nFHRing>
0

>  <nFaRing>
0

>  <nFaHRing>
0

>  <nFARing 2>
0

>  <nFAHRing 2>
0

>  <nRot>
0

>  <SLogP>
0.02

>  <SMR>
44.09

>  <TopoPSA(NO)>
104.08

>  <TopoPSA>
104.08

>  <JGI1>
0.3

>  <JGI2>
0.13

>  <JGI3>
0.06

>  <JGI4>
0.1

>  <JGI5>
0

>  <Diameter>
5

>  <Radius>
3

>  <TMWC10>
84.78

>  <TSRW10>
39.73

>  <MW>
138.09

>  <AMW>
6.9

>  <WPath>
111

>  <WPol>
13

>  <Zagreb1>
48

>  <Zagreb2>
54

>  <mZagreb2>
2.22

>  <yes>


>  <nAR-cont>
0.336376

>  <nHA-cont>
0.645914733

>  <MWHBN>
0.680783266

>  <MWHBN-cont>
0

>  <TPSA-cont>
0.27345697

>  <pka_cont>
0.97

>  <yes.1>


>  <BBB_SCORE>
2.014204674

>  <MMFF94 Energy>
23.441

$$$$
Compound 149
Actelion Java MolfileCreator 2.0

  0  0  0  0  0  0              0 V3000
M  V30 BEGIN CTAB
M  V30 COUNTS 33 34 0 0 0
M  V30 BEGIN ATOM
M  V30 1 Br 0.7429 2.8917 -1.8169 0
M  V30 2 C 0.7319 1.2334 -2.7394 0
M  V30 3 C -0.2481 0.2515 -2.5468 0
M  V30 4 C 1.7553 1.0008 -3.6606 0
M  V30 5 N -0.2288 -0.9106 -3.2603 0
M  V30 6 C -1.3935 0.4756 -1.5764 0
M  V30 7 C 1.7786 -0.1895 -4.377 0
M  V30 8 C 0.771 -1.1055 -4.1465 0
M  V30 9 S -2.4025 -0.9707 -1.1017 0
M  V30 10 C -1.1281 -2.0824 -0.392 0
M  V30 11 C -0.0801 -1.4501 0.5393 0
M  V30 12 N -0.6786 -0.6455 1.6123 0
M  V30 13 C 0.3325 -0.0896 2.5012 0 CFG=1
M  V30 14 N 1.2345 0.8241 1.7495 0
M  V30 15 C -0.2203 0.8147 3.5311 0
M  V30 16 C 1.0689 1.9817 2.3161 0
M  V30 17 N -1.0223 0.3156 4.6014 0 CHG=1
M  V30 18 C 0.18 2.079 3.4674 0
M  V30 19 O -1.2504 -0.9005 4.6189 0
M  V30 20 O -1.4232 1.1252 5.4486 0 CHG=-1
M  V30 21 H 2.5322 1.7418 -3.829 0
M  V30 22 H -2.082 1.1926 -2.0379 0
M  V30 23 H -1.0321 0.9293 -0.6503 0
M  V30 24 H 2.5595 -0.3938 -5.1006 0
M  V30 25 H 0.7351 -2.0492 -4.6835 0
M  V30 26 H -0.622 -2.6015 -1.2121 0
M  V30 27 H -1.6756 -2.8526 0.1636 0
M  V30 28 H 0.6095 -0.8472 -0.0598 0
M  V30 29 H 0.5136 -2.2626 0.977 0
M  V30 30 H -1.3003 -1.2491 2.1556 0
M  V30 31 H 0.9373 -0.881 2.9619 0
M  V30 32 H 1.5917 2.8895 1.9784 0
M  V30 33 H -0.0142 2.9298 4.0909 0
M  V30 END ATOM
M  V30 BEGIN BOND
M  V30 1 1 1 2
M  V30 2 2 2 3
M  V30 3 1 2 4
M  V30 4 1 3 5
M  V30 5 1 3 6
M  V30 6 2 4 7
M  V30 7 2 5 8
M  V30 8 1 6 9
M  V30 9 1 9 10
M  V30 10 1 10 11
M  V30 11 1 11 12
M  V30 12 1 12 13
M  V30 13 1 13 14
M  V30 14 1 13 15
M  V30 15 2 14 16
M  V30 16 1 15 17
M  V30 17 2 15 18
M  V30 18 2 17 19
M  V30 19 1 17 20
M  V30 20 1 7 8
M  V30 21 1 16 18
M  V30 22 1 4 21
M  V30 23 1 6 22
M  V30 24 1 6 23
M  V30 25 1 7 24
M  V30 26 1 8 25
M  V30 27 1 10 26
M  V30 28 1 10 27
M  V30 29 1 11 28
M  V30 30 1 11 29
M  V30 31 1 12 30
M  V30 32 1 13 31
M  V30 33 1 16 32
M  V30 34 1 18 33
M  V30 END BOND
M  V30 BEGIN COLLECTION
M  V30 MDLV30/STERAC1 ATOMS=(1 13)
M  V30 END COLLECTION
M  V30 END CTAB
M  END
>  <Column 1>
197

>  <level_0>
227

>  <index>
227

>  <Unnamed: 0>
227

>  <NO.>
228

>  <Name>
compound 31

>  <IUPAC_name>


>  <SMILES>
O=[N+]([O-])C1=CC=NC1NCCSCc1ncccc1Br

>  <CID>


>  <logBB>
-0.67

>  <BBB+/BBB->
BBB+

>  <Inchi>
InChI=1S/C12H13BrN4O2S/c13-9-2-1-4-14-10(9)8-20-7-6-16-12-11(17(18)19)3-5-15-12/h1-5-12-16H-6-8H2

>  <threshold>


>  <reference>
R36|

>  <group>
A

>  <Class>
1

>  <ABC>
15.06

>  <ABCGG>
12.86

>  <nAcid>
0

>  <nBase>
1

>  <nAromAtom>
6

>  <nAromBond>
6

>  <nAtom>
33

>  <nHeavyAtom>
20

>  <nSpiro>
0

>  <nBridgehead>
0

>  <nHetero>
8

>  <nN>
4

>  <nO>
2

>  <nF>
0

>  <BalabanJ>
1.55

>  <BertzCT>
550.01

>  <nBonds>
34

>  <nBondsO>
21

>  <nBondsS>
25

>  <nBondsD>
3

>  <nBondsT>
0

>  <nBondsA>
6

>  <nBondsM>
9

>  <nBondsKS>
28

>  <nBondsKD>
6

>  <RNCG>
0.18

>  <RPCG>
0.18

>  <FCSP3>
0.33

>  <SZ>
30

>  <Sm>
29.74

>  <Sv>
22.46

>  <Sse>
33.83

>  <Sp>
24.35

>  <Si>
37.25

>  <MZ>
0.91

>  <Mm>
0.9

>  <Mv>
0.68

>  <Mse>
1.03

>  <Mp>
0.74

>  <Mi>
1.13

>  <NsCH3>
0

>  <NdCH2>
0

>  <NssCH2>
3

>  <NtCH>
0

>  <NdsCH>
2

>  <NaaCH>
3

>  <NsssCH>
1

>  <NddC>
0

>  <NtsC>
0

>  <NdssC>
1

>  <NaasC>
2

>  <NaaaC>
0

>  <NssssC>
0

>  <NsNH3>
0

>  <NsNH2>
0

>  <NssNH2>
0

>  <NdNH>
0

>  <NssNH>
1

>  <NaaNH>
0

>  <NtN>
0

>  <NsssNH>
0

>  <NdsN>
1

>  <NaaN>
1

>  <NsssN>
0

>  <NddsN>
1

>  <NaasN>
0

>  <NssssN>
0

>  <NsOH>
0

>  <NdO>
1

>  <NssO>
0

>  <NaaO>
0

>  <NsF>
0

>  <NsSiH3>
0

>  <NssSiH2>
0

>  <NsssSiH>
0

>  <NssssSi>
0

>  <NsPH2>
0

>  <NssPH>
0

>  <NsssP>
0

>  <NdsssP>
0

>  <NsssssP>
0

>  <NsSH>
0

>  <NdS>
0

>  <NssS>
1

>  <NaaS>
0

>  <NdssS>
0

>  <NddssS>
0

>  <NsCl>
0

>  <NsBr>
1

>  <NsI>
0

>  <fragCpx>
61.08

>  <fMF>
0.48

>  <nHBAcc>
6

>  <nHBDon>
1

>  <Kier1>
16.37

>  <Kier2>
8.44

>  <Lipinski>
1

>  <GhoseFilter>
1

>  <FilterItLogS>
-4.21

>  <VMcGowan>
217.93

>  <LabuteASA>
128.6

>  <PEOE_VSA1>
0

>  <PEOE_VSA2>
25.41

>  <PEOE_VSA3>
0

>  <PEOE_VSA4>
11.76

>  <PEOE_VSA5>
0

>  <PEOE_VSA6>
0

>  <PEOE_VSA7>
28.06

>  <PEOE_VSA8>
41.01

>  <PEOE_VSA9>
10.62

>  <PEOE_VSA10>
0

>  <PEOE_VSA11>
6.17

>  <PEOE_VSA12>
0

>  <PEOE_VSA13>
5.7

>  <SMR_VSA1>
4.92

>  <SMR_VSA2>
0

>  <SMR_VSA3>
10.3

>  <SMR_VSA4>
4.99

>  <SMR_VSA5>
11.92

>  <SMR_VSA6>
12.3

>  <SMR_VSA7>
50.38

>  <SMR_VSA8>
0

>  <SMR_VSA9>
0

>  <SlogP_VSA1>
5.32

>  <SlogP_VSA2>
34.59

>  <SlogP_VSA3>
5.75

>  <SlogP_VSA4>
10.11

>  <SlogP_VSA5>
5.69

>  <SlogP_VSA6>
39.57

>  <SlogP_VSA7>
0

>  <SlogP_VSA8>
0

>  <SlogP_VSA9>
0

>  <SlogP_VSA10>
0

>  <SlogP_VSA11>
0

>  <EState_VSA1>
11.09

>  <EState_VSA2>
5.7

>  <EState_VSA3>
6.54

>  <EState_VSA4>
21.67

>  <EState_VSA5>
12.29

>  <EState_VSA6>
17.96

>  <EState_VSA7>
12.13

>  <EState_VSA8>
31.22

>  <EState_VSA9>
0

>  <EState_VSA10>
10.11

>  <VSA_EState1>
1

>  <VSA_EState2>
18.61

>  <VSA_EState3>
13.78

>  <VSA_EState4>
1.1

>  <VSA_EState5>
1.63

>  <VSA_EState6>
3.84

>  <VSA_EState7>
4.14

>  <VSA_EState8>
0.66

>  <VSA_EState9>
0

>  <apol>
40.66

>  <bpol>
20.9

>  <nRing>
2

>  <nHRing>
2

>  <naRing>
1

>  <naHRing>
1

>  <nARing 2>
1

>  <nAHRing 2>
1

>  <nFRing>
0

>  <nFHRing>
0

>  <nFaRing>
0

>  <nFaHRing>
0

>  <nFARing 2>
0

>  <nFAHRing 2>
0

>  <nRot>
7

>  <SLogP>
2.24

>  <SMR>
83.46

>  <TopoPSA(NO)>
80.42

>  <TopoPSA>
105.72

>  <JGI1>
0.14

>  <JGI2>
0.08

>  <JGI3>
0.05

>  <JGI4>
0.04

>  <JGI5>
0.02

>  <Diameter>
12

>  <Radius>
6

>  <TMWC10>
111.78

>  <TSRW10>
66.35

>  <MW>
355.99

>  <AMW>
10.79

>  <WPath>
996

>  <WPol>
25

>  <Zagreb1>
96

>  <Zagreb2>
108

>  <mZagreb2>
4.58

>  <yes>


>  <nAR-cont>
0.816016

>  <nHA-cont>
0.999629945

>  <MWHBN>
0.371004469

>  <MWHBN-cont>
0.589960888

>  <TPSA-cont>
0.262008752

>  <pka_cont>
0.97

>  <yes.1>


>  <BBB_SCORE>
3.70960478

>  <MMFF94 Energy>
18.976

$$$$
Compound 150
Actelion Java MolfileCreator 2.0

  0  0  0  0  0  0              0 V3000
M  V30 BEGIN CTAB
M  V30 COUNTS 33 34 0 0 0
M  V30 BEGIN ATOM
M  V30 1 Br 4.6744 -0.2456 3.3606 0
M  V30 2 C 3.77 -0.9975 1.8752 0
M  V30 3 C 2.9458 -0.2609 1.0201 0
M  V30 4 C 3.9475 -2.3598 1.6274 0
M  V30 5 N 2.316 -0.839 -0.0441 0
M  V30 6 C 2.6604 1.2081 1.2076 0
M  V30 7 C 3.306 -2.9536 0.5457 0
M  V30 8 C 2.5075 -2.1593 -0.255 0
M  V30 9 S 1.3806 1.5693 2.4602 0
M  V30 10 C -0.0446 0.6404 1.7839 0
M  V30 11 C -0.5603 1.1786 0.4448 0
M  V30 12 N -1.7673 0.4673 0.0372 0
M  V30 13 C -2.4847 0.7826 -1.0623 0
M  V30 14 C -3.6048 0.1272 -1.516 0
M  V30 15 C -2.2409 1.8423 -1.9749 0
M  V30 16 N -4.3078 -1.0051 -1.0154 0 CHG=1
M  V30 17 N -4.05 0.7438 -2.6557 0
M  V30 18 C -3.2206 1.7964 -2.9475 0
M  V30 19 O -3.8734 -1.5465 0.0091 0
M  V30 20 O -5.3064 -1.3591 -1.6588 0 CHG=-1
M  V30 21 H 4.5806 -2.9647 2.2716 0
M  V30 22 H 2.3476 1.6507 0.2555 0
M  V30 23 H 3.5765 1.7416 1.4815 0
M  V30 24 H 3.4265 -4.0103 0.3344 0
M  V30 25 H 1.983 -2.5733 -1.112 0
M  V30 26 H 0.2007 -0.4241 1.7161 0
M  V30 27 H -0.8442 0.7169 2.5303 0
M  V30 28 H -0.7862 2.2473 0.5469 0
M  V30 29 H 0.199 1.0626 -0.3348 0
M  V30 30 H -2.0326 -0.3381 0.6081 0
M  V30 31 H -1.4391 2.5679 -1.9363 0
M  V30 32 H -4.8637 0.453 -3.1856 0
M  V30 33 H -3.3953 2.4194 -3.815 0
M  V30 END ATOM
M  V30 BEGIN BOND
M  V30 1 1 1 2
M  V30 2 2 2 3
M  V30 3 1 2 4
M  V30 4 1 3 5
M  V30 5 1 3 6
M  V30 6 2 4 7
M  V30 7 2 5 8
M  V30 8 1 6 9
M  V30 9 1 9 10
M  V30 10 1 10 11
M  V30 11 1 11 12
M  V30 12 1 12 13
M  V30 13 2 13 14
M  V30 14 1 13 15
M  V30 15 1 14 16
M  V30 16 1 14 17
M  V30 17 2 15 18
M  V30 18 2 16 19
M  V30 19 1 16 20
M  V30 20 1 7 8
M  V30 21 1 17 18
M  V30 22 1 4 21
M  V30 23 1 6 22
M  V30 24 1 6 23
M  V30 25 1 7 24
M  V30 26 1 8 25
M  V30 27 1 10 26
M  V30 28 1 10 27
M  V30 29 1 11 28
M  V30 30 1 11 29
M  V30 31 1 12 30
M  V30 32 1 15 31
M  V30 33 1 17 32
M  V30 34 1 18 33
M  V30 END BOND
M  V30 END CTAB
M  END
>  <Column 1>
198

>  <level_0>
228

>  <index>
228

>  <Unnamed: 0>
228

>  <NO.>
229

>  <Name>
b-049

>  <IUPAC_name>


>  <SMILES>
O=[N+]([O-])c1[nH]ccc1NCCSCc1ncccc1Br

>  <CID>


>  <logBB>
-0.67

>  <BBB+/BBB->
BBB+

>  <Inchi>
InChI=1S/C12H13BrN4O2S/c13-9-2-1-4-14-11(9)8-20-7-6-15-10-3-5-16-12(10)17(18)19/h1-5-15-16H-6-8H2

>  <threshold>


>  <reference>
R18|R26|R27|

>  <group>
A

>  <Class>
1

>  <ABC>
15.06

>  <ABCGG>
12.86

>  <nAcid>
0

>  <nBase>
0

>  <nAromAtom>
11

>  <nAromBond>
11

>  <nAtom>
33

>  <nHeavyAtom>
20

>  <nSpiro>
0

>  <nBridgehead>
0

>  <nHetero>
8

>  <nN>
4

>  <nO>
2

>  <nF>
0

>  <BalabanJ>
1.55

>  <BertzCT>
590.34

>  <nBonds>
34

>  <nBondsO>
21

>  <nBondsS>
22

>  <nBondsD>
1

>  <nBondsT>
0

>  <nBondsA>
11

>  <nBondsM>
12

>  <nBondsKS>
28

>  <nBondsKD>
6

>  <RNCG>
0.2

>  <RPCG>
0.18

>  <FCSP3>
0.25

>  <SZ>
30

>  <Sm>
29.74

>  <Sv>
22.46

>  <Sse>
33.83

>  <Sp>
24.35

>  <Si>
37.25

>  <MZ>
0.91

>  <Mm>
0.9

>  <Mv>
0.68

>  <Mse>
1.03

>  <Mp>
0.74

>  <Mi>
1.13

>  <NsCH3>
0

>  <NdCH2>
0

>  <NssCH2>
3

>  <NtCH>
0

>  <NdsCH>
0

>  <NaaCH>
5

>  <NsssCH>
0

>  <NddC>
0

>  <NtsC>
0

>  <NdssC>
0

>  <NaasC>
4

>  <NaaaC>
0

>  <NssssC>
0

>  <NsNH3>
0

>  <NsNH2>
0

>  <NssNH2>
0

>  <NdNH>
0

>  <NssNH>
1

>  <NaaNH>
1

>  <NtN>
0

>  <NsssNH>
0

>  <NdsN>
0

>  <NaaN>
1

>  <NsssN>
0

>  <NddsN>
1

>  <NaasN>
0

>  <NssssN>
0

>  <NsOH>
0

>  <NdO>
1

>  <NssO>
0

>  <NaaO>
0

>  <NsF>
0

>  <NsSiH3>
0

>  <NssSiH2>
0

>  <NsssSiH>
0

>  <NssssSi>
0

>  <NsPH2>
0

>  <NssPH>
0

>  <NsssP>
0

>  <NdsssP>
0

>  <NsssssP>
0

>  <NsSH>
0

>  <NdS>
0

>  <NssS>
1

>  <NaaS>
0

>  <NdssS>
0

>  <NddssS>
0

>  <NsCl>
0

>  <NsBr>
1

>  <NsI>
0

>  <fragCpx>
61.08

>  <fMF>
0.48

>  <nHBAcc>
5

>  <nHBDon>
2

>  <Kier1>
16.37

>  <Kier2>
8.44

>  <Lipinski>
1

>  <GhoseFilter>
1

>  <FilterItLogS>
-5.19

>  <VMcGowan>
217.93

>  <LabuteASA>
128.21

>  <PEOE_VSA1>
15.43

>  <PEOE_VSA2>
4.98

>  <PEOE_VSA3>
4.98

>  <PEOE_VSA4>
11.76

>  <PEOE_VSA5>
0

>  <PEOE_VSA6>
0

>  <PEOE_VSA7>
32.99

>  <PEOE_VSA8>
34.79

>  <PEOE_VSA9>
11.89

>  <PEOE_VSA10>
5.69

>  <PEOE_VSA11>
0

>  <PEOE_VSA12>
0

>  <PEOE_VSA13>
0

>  <SMR_VSA1>
4.92

>  <SMR_VSA2>
0

>  <SMR_VSA3>
9.97

>  <SMR_VSA4>
0

>  <SMR_VSA5>
5.75

>  <SMR_VSA6>
17.61

>  <SMR_VSA7>
50.87

>  <SMR_VSA8>
0

>  <SMR_VSA9>
0

>  <SlogP_VSA1>
5.32

>  <SlogP_VSA2>
27.19

>  <SlogP_VSA3>
5.75

>  <SlogP_VSA4>
10.11

>  <SlogP_VSA5>
5.69

>  <SlogP_VSA6>
35.07

>  <SlogP_VSA7>
0

>  <SlogP_VSA8>
0

>  <SlogP_VSA9>
0

>  <SlogP_VSA10>
11.51

>  <SlogP_VSA11>
0

>  <EState_VSA1>
4.92

>  <EState_VSA2>
5.82

>  <EState_VSA3>
12.23

>  <EState_VSA4>
21.67

>  <EState_VSA5>
0

>  <EState_VSA6>
30.22

>  <EState_VSA7>
12.13

>  <EState_VSA8>
31.21

>  <EState_VSA9>
0

>  <EState_VSA10>
10.11

>  <VSA_EState1>
1

>  <VSA_EState2>
17.16

>  <VSA_EState3>
13.76

>  <VSA_EState4>
1.53

>  <VSA_EState5>
1.64

>  <VSA_EState6>
5.51

>  <VSA_EState7>
3.32

>  <VSA_EState8>
0.66

>  <VSA_EState9>
0

>  <apol>
40.66

>  <bpol>
20.33

>  <nRing>
2

>  <nHRing>
2

>  <naRing>
2

>  <naHRing>
2

>  <nARing 2>
0

>  <nAHRing 2>
0

>  <nFRing>
0

>  <nFHRing>
0

>  <nFaRing>
0

>  <nFaHRing>
0

>  <nFARing 2>
0

>  <nFAHRing 2>
0

>  <nRot>
7

>  <SLogP>
3.43

>  <SMR>
84.04

>  <TopoPSA(NO)>
83.85

>  <TopoPSA>
109.15

>  <JGI1>
0.14

>  <JGI2>
0.08

>  <JGI3>
0.05

>  <JGI4>
0.04

>  <JGI5>
0.02

>  <Diameter>
12

>  <Radius>
6

>  <TMWC10>
111.78

>  <TSRW10>
66.35

>  <MW>
355.99

>  <AMW>
10.79

>  <WPath>
996

>  <WPol>
25

>  <Zagreb1>
96

>  <Zagreb2>
108

>  <mZagreb2>
4.58

>  <yes>


>  <nAR-cont>
0.336376

>  <nHA-cont>
0.999629945

>  <MWHBN>
0.371004469

>  <MWHBN-cont>
0.589960888

>  <TPSA-cont>
0.238065222

>  <pka_cont>
0.97

>  <yes.1>


>  <BBB_SCORE>
3.18207772

>  <MMFF94 Energy>
66.539

$$$$
Compound 151
Actelion Java MolfileCreator 2.0

  0  0  0  0  0  0              0 V3000
M  V30 BEGIN CTAB
M  V30 COUNTS 29 30 0 0 0
M  V30 BEGIN ATOM
M  V30 1 O -3.0226 -0.4767 1.5899 0
M  V30 2 C -1.8288 -0.3494 1.338 0
M  V30 3 C -0.768 -0.5216 2.3597 0
M  V30 4 C -1.4102 0.0259 -0.033 0
M  V30 5 C -0.983 -0.9759 3.7391 0
M  V30 6 C 0.4884 -0.2334 1.9874 0
M  V30 7 C -0.0645 0.2881 -0.3108 0
M  V30 8 C -2.3605 0.131 -1.0516 0
M  V30 9 O -0.2421 -0.7542 4.6836 0
M  V30 10 O -2.0708 -1.7447 3.889 0
M  V30 11 N 0.8855 0.1822 0.7299 0
M  V30 12 N 0.3306 0.6399 -1.5603 0
M  V30 13 C -1.9483 0.491 -2.328 0
M  V30 14 C 2.2815 0.461 0.3759 0
M  V30 15 C -0.5984 0.7366 -2.5437 0
M  V30 16 C 2.9628 -0.78 -0.1835 0
M  V30 17 C -0.1139 1.1279 -3.9078 0
M  V30 18 H 1.3138 -0.328 2.6914 0
M  V30 19 H -3.411 -0.0653 -0.8507 0
M  V30 20 H -2.0996 -1.9621 4.8424 0
M  V30 21 H -2.6696 0.5781 -3.1344 0
M  V30 22 H 2.8277 0.7826 1.2723 0
M  V30 23 H 2.3665 1.2982 -0.3277 0
M  V30 24 H 2.4814 -1.1232 -1.1045 0
M  V30 25 H 2.9313 -1.6042 0.5369 0
M  V30 26 H 4.012 -0.5657 -0.4092 0
M  V30 27 H -0.3459 0.3406 -4.6316 0
M  V30 28 H -0.5902 2.0609 -4.2248 0
M  V30 29 H 0.9699 1.2815 -3.9067 0
M  V30 END ATOM
M  V30 BEGIN BOND
M  V30 1 2 1 2
M  V30 2 1 2 3
M  V30 3 1 2 4
M  V30 4 1 3 5
M  V30 5 2 3 6
M  V30 6 2 4 7
M  V30 7 1 4 8
M  V30 8 2 5 9
M  V30 9 1 5 10
M  V30 10 1 6 11
M  V30 11 1 7 12
M  V30 12 2 8 13
M  V30 13 1 11 14
M  V30 14 2 12 15
M  V30 15 1 14 16
M  V30 16 1 15 17
M  V30 17 1 7 11
M  V30 18 1 13 15
M  V30 19 1 6 18
M  V30 20 1 8 19
M  V30 21 1 10 20
M  V30 22 1 13 21
M  V30 23 1 14 22
M  V30 24 1 14 23
M  V30 25 1 16 24
M  V30 26 1 16 25
M  V30 27 1 16 26
M  V30 28 1 17 27
M  V30 29 1 17 28
M  V30 30 1 17 29
M  V30 END BOND
M  V30 END CTAB
M  END
>  <Column 1>
199

>  <level_0>
229

>  <index>
229

>  <Unnamed: 0>
229

>  <NO.>
230

>  <Name>
nalidixicacid

>  <IUPAC_name>
1-ethyl-7-methyl-4-oxo-1-8-naphthyridine-3-carboxylic acid

>  <SMILES>
CCn1cc(C(=O)O)c(=O)c2ccc(C)nc21

>  <CID>
4421

>  <logBB>
-0.66

>  <BBB+/BBB->
BBB+

>  <Inchi>
InChI=1S/C12H12N2O3/c1-3-14-6-9(12(16)17)10(15)8-5-4-7(2)13-11(8)14/h4-6H-3H2-1-2H3-(H-16-17)

>  <threshold>


>  <reference>
R2|R2|R8|R21|R27|R43|R46|R47|R40|R25|R41|R3|R38|

>  <group>
A

>  <Class>
1

>  <ABC>
12.96

>  <ABCGG>
11.5

>  <nAcid>
1

>  <nBase>
0

>  <nAromAtom>
10

>  <nAromBond>
11

>  <nAtom>
29

>  <nHeavyAtom>
17

>  <nSpiro>
0

>  <nBridgehead>
0

>  <nHetero>
5

>  <nN>
2

>  <nO>
3

>  <nF>
0

>  <BalabanJ>
2.15

>  <BertzCT>
658.58

>  <nBonds>
30

>  <nBondsO>
18

>  <nBondsS>
17

>  <nBondsD>
2

>  <nBondsT>
0

>  <nBondsA>
11

>  <nBondsM>
13

>  <nBondsKS>
24

>  <nBondsKD>
6

>  <RNCG>
0.28

>  <RPCG>
0.2

>  <FCSP3>
0.25

>  <SZ>
20.33

>  <Sm>
19.34

>  <Sv>
18.91

>  <Sse>
29.65

>  <Sp>
19.55

>  <Si>
32.7

>  <MZ>
0.7

>  <Mm>
0.67

>  <Mv>
0.65

>  <Mse>
1.02

>  <Mp>
0.67

>  <Mi>
1.13

>  <NsCH3>
2

>  <NdCH2>
0

>  <NssCH2>
1

>  <NtCH>
0

>  <NdsCH>
0

>  <NaaCH>
3

>  <NsssCH>
0

>  <NddC>
0

>  <NtsC>
0

>  <NdssC>
1

>  <NaasC>
2

>  <NaaaC>
2

>  <NssssC>
0

>  <NsNH3>
0

>  <NsNH2>
0

>  <NssNH2>
0

>  <NdNH>
0

>  <NssNH>
0

>  <NaaNH>
0

>  <NtN>
0

>  <NsssNH>
0

>  <NdsN>
0

>  <NaaN>
1

>  <NsssN>
0

>  <NddsN>
0

>  <NaasN>
1

>  <NssssN>
0

>  <NsOH>
1

>  <NdO>
2

>  <NssO>
0

>  <NaaO>
0

>  <NsF>
0

>  <NsSiH3>
0

>  <NssSiH2>
0

>  <NsssSiH>
0

>  <NssssSi>
0

>  <NsPH2>
0

>  <NssPH>
0

>  <NsssP>
0

>  <NdsssP>
0

>  <NsssssP>
0

>  <NsSH>
0

>  <NdS>
0

>  <NssS>
0

>  <NaaS>
0

>  <NdssS>
0

>  <NddssS>
0

>  <NsCl>
0

>  <NsBr>
0

>  <NsI>
0

>  <fragCpx>
52.05

>  <fMF>
0.34

>  <nHBAcc>
4

>  <nHBDon>
1

>  <Kier1>
13.43

>  <Kier2>
5.33

>  <Lipinski>
1

>  <GhoseFilter>
1

>  <FilterItLogS>
-2.52

>  <VMcGowan>
169.99

>  <LabuteASA>
97.34

>  <PEOE_VSA1>
9.67

>  <PEOE_VSA2>
4.79

>  <PEOE_VSA3>
9.78

>  <PEOE_VSA4>
0

>  <PEOE_VSA5>
0

>  <PEOE_VSA6>
0

>  <PEOE_VSA7>
25.98

>  <PEOE_VSA8>
18.44

>  <PEOE_VSA9>
5.39

>  <PEOE_VSA10>
11.21

>  <PEOE_VSA11>
0

>  <PEOE_VSA12>
5.43

>  <PEOE_VSA13>
0

>  <SMR_VSA1>
9.9

>  <SMR_VSA2>
0

>  <SMR_VSA3>
9.55

>  <SMR_VSA4>
0

>  <SMR_VSA5>
20.39

>  <SMR_VSA6>
0

>  <SMR_VSA7>
39.81

>  <SMR_VSA8>
0

>  <SMR_VSA9>
0

>  <SlogP_VSA1>
5.43

>  <SlogP_VSA2>
20.63

>  <SlogP_VSA3>
6.54

>  <SlogP_VSA4>
6.92

>  <SlogP_VSA5>
22.98

>  <SlogP_VSA6>
23.12

>  <SlogP_VSA7>
0

>  <SlogP_VSA8>
11.03

>  <SlogP_VSA9>
0

>  <SlogP_VSA10>
0

>  <SlogP_VSA11>
0

>  <EState_VSA1>
11.4

>  <EState_VSA2>
5.56

>  <EState_VSA3>
17.58

>  <EState_VSA4>
5.69

>  <EState_VSA5>
6.2

>  <EState_VSA6>
16.7

>  <EState_VSA7>
13.85

>  <EState_VSA8>
4.98

>  <EState_VSA9>
5.11

>  <EState_VSA10>
9.59

>  <VSA_EState1>
1.67

>  <VSA_EState2>
27.16

>  <VSA_EState3>
9.31

>  <VSA_EState4>
0.62

>  <VSA_EState5>
-1.21

>  <VSA_EState6>
3.33

>  <VSA_EState7>
1.35

>  <VSA_EState8>
4.27

>  <VSA_EState9>
0

>  <apol>
32.65

>  <bpol>
16.62

>  <nRing>
2

>  <nHRing>
2

>  <naRing>
2

>  <naHRing>
2

>  <nARing 2>
0

>  <nAHRing 2>
0

>  <nFRing>
1

>  <nFHRing>
1

>  <nFaRing>
1

>  <nFaHRing>
1

>  <nFARing 2>
0

>  <nFAHRing 2>
0

>  <nRot>
2

>  <SLogP>
1.42

>  <SMR>
63.37

>  <TopoPSA(NO)>
72.19

>  <TopoPSA>
72.19

>  <JGI1>
0.22

>  <JGI2>
0.09

>  <JGI3>
0.06

>  <JGI4>
0.06

>  <JGI5>
0.04

>  <Diameter>
8

>  <Radius>
4

>  <TMWC10>
107.49

>  <TSRW10>
50.11

>  <MW>
232.08

>  <AMW>
8

>  <WPath>
470

>  <WPol>
29

>  <Zagreb1>
88

>  <Zagreb2>
105

>  <mZagreb2>
3.81

>  <yes>


>  <nAR-cont>
0.336376

>  <nHA-cont>
0.976740822

>  <MWHBN>
0.328209499

>  <MWHBN-cont>
0.749097783

>  <TPSA-cont>
0.496068973

>  <pka_cont>
0.97

>  <yes.1>


>  <BBB_SCORE>
3.913901442

>  <MMFF94 Energy>
4.2091

$$$$
Compound 152
Actelion Java MolfileCreator 2.0

  0  0  0  0  0  0              0 V3000
M  V30 BEGIN CTAB
M  V30 COUNTS 33 34 0 0 0
M  V30 BEGIN ATOM
M  V30 1 S 2.2546 2.4157 0.4828 0
M  V30 2 C 2.4373 1.4963 -1.0833 0
M  V30 3 C 0.6626 1.7404 1.0801 0
M  V30 4 C 2.5357 3.0E-4 -0.9024 0
M  V30 5 C -0.527 2.174 0.2201 0
M  V30 6 N 1.4398 -0.746 -1.2124 0
M  V30 7 C 3.7196 -0.5666 -0.4285 0
M  V30 8 N -1.7696 1.6082 0.7234 0
M  V30 9 C 1.5578 -2.0889 -1.0725 0
M  V30 10 C 3.796 -1.9476 -0.2811 0
M  V30 11 C -2.2575 0.3805 0.415 0
M  V30 12 C 2.6971 -2.7272 -0.6133 0
M  V30 13 N -1.5578 -0.506 -0.3744 0
M  V30 14 C -3.4491 -0.242 0.7678 0
M  V30 15 C -2.2859 -1.6569 -0.5502 0
M  V30 16 N -4.4913 0.3093 1.5987 0 CHG=1
M  V30 17 C -3.4618 -1.5265 0.1515 0
M  V30 18 O -5.488 -0.4031 1.7861 0
M  V30 19 O -4.3226 1.4451 2.0674 0 CHG=-1
M  V30 20 H 1.6121 1.7452 -1.7573 0
M  V30 21 H 3.3476 1.8547 -1.5776 0
M  V30 22 H 0.7315 0.6517 1.162 0
M  V30 23 H 0.5203 2.1119 2.1017 0
M  V30 24 H -0.6179 3.2666 0.2557 0
M  V30 25 H -0.3975 1.9122 -0.8345 0
M  V30 26 H 4.5722 0.0567 -0.1749 0
M  V30 27 H -2.3188 2.2254 1.3302 0
M  V30 28 H 0.6801 -2.6662 -1.3492 0
M  V30 29 H 4.7076 -2.41 0.087 0
M  V30 30 H 2.7271 -3.8069 -0.5166 0
M  V30 31 H -0.633 -0.3449 -0.7606 0
M  V30 32 H -1.9008 -2.4653 -1.1563 0
M  V30 33 H -4.2491 -2.2674 0.2163 0
M  V30 END ATOM
M  V30 BEGIN BOND
M  V30 1 1 1 2
M  V30 2 1 1 3
M  V30 3 1 2 4
M  V30 4 1 3 5
M  V30 5 2 4 6
M  V30 6 1 4 7
M  V30 7 1 5 8
M  V30 8 1 6 9
M  V30 9 2 7 10
M  V30 10 1 8 11
M  V30 11 2 9 12
M  V30 12 1 11 13
M  V30 13 2 11 14
M  V30 14 1 13 15
M  V30 15 1 14 16
M  V30 16 1 14 17
M  V30 17 2 16 18
M  V30 18 1 16 19
M  V30 19 1 10 12
M  V30 20 2 15 17
M  V30 21 1 2 20
M  V30 22 1 2 21
M  V30 23 1 3 22
M  V30 24 1 3 23
M  V30 25 1 5 24
M  V30 26 1 5 25
M  V30 27 1 7 26
M  V30 28 1 8 27
M  V30 29 1 9 28
M  V30 30 1 10 29
M  V30 31 1 12 30
M  V30 32 1 13 31
M  V30 33 1 15 32
M  V30 34 1 17 33
M  V30 END BOND
M  V30 END CTAB
M  END
>  <Column 1>
200

>  <level_0>
230

>  <index>
230

>  <Unnamed: 0>
230

>  <NO.>
231

>  <Name>
112598-30-8

>  <IUPAC_name>
3-nitro-n-[2-(pyridin-2-ylmethylsulfanyl)ethyl]-1h-pyrrol-2-amine

>  <SMILES>
O=[N+]([O-])c1cc[nH]c1NCCSCc1ccccn1

>  <CID>
14022481

>  <logBB>
-0.66

>  <BBB+/BBB->
BBB+

>  <Inchi>
InChI=1S/C12H14N4O2S/c17-16(18)11-4-6-14-12(11)15-7-8-19-9-10-3-1-2-5-13-10/h1-6-14-15H-7-9H2

>  <threshold>


>  <reference>
R2|R2|R8|R40|R3|R3|R4|R12|R18|R21|R25|R26|R27|R27|R38|R38|R41|R41|R43|R46|R47|R48|R49|R49|

>  <group>
A

>  <Class>
1

>  <ABC>
14.28

>  <ABCGG>
12.1

>  <nAcid>
0

>  <nBase>
0

>  <nAromAtom>
11

>  <nAromBond>
11

>  <nAtom>
33

>  <nHeavyAtom>
19

>  <nSpiro>
0

>  <nBridgehead>
0

>  <nHetero>
7

>  <nN>
4

>  <nO>
2

>  <nF>
0

>  <BalabanJ>
1.51

>  <BertzCT>
529.54

>  <nBonds>
34

>  <nBondsO>
20

>  <nBondsS>
22

>  <nBondsD>
1

>  <nBondsT>
0

>  <nBondsA>
11

>  <nBondsM>
12

>  <nBondsKS>
28

>  <nBondsKD>
6

>  <RNCG>
0.21

>  <RPCG>
0.17

>  <FCSP3>
0.25

>  <SZ>
24.33

>  <Sm>
23.17

>  <Sv>
21.44

>  <Sse>
33.61

>  <Sp>
22.92

>  <Si>
37.41

>  <MZ>
0.74

>  <Mm>
0.7

>  <Mv>
0.65

>  <Mse>
1.02

>  <Mp>
0.69

>  <Mi>
1.13

>  <NsCH3>
0

>  <NdCH2>
0

>  <NssCH2>
3

>  <NtCH>
0

>  <NdsCH>
0

>  <NaaCH>
6

>  <NsssCH>
0

>  <NddC>
0

>  <NtsC>
0

>  <NdssC>
0

>  <NaasC>
3

>  <NaaaC>
0

>  <NssssC>
0

>  <NsNH3>
0

>  <NsNH2>
0

>  <NssNH2>
0

>  <NdNH>
0

>  <NssNH>
1

>  <NaaNH>
1

>  <NtN>
0

>  <NsssNH>
0

>  <NdsN>
0

>  <NaaN>
1

>  <NsssN>
0

>  <NddsN>
1

>  <NaasN>
0

>  <NssssN>
0

>  <NsOH>
0

>  <NdO>
1

>  <NssO>
0

>  <NaaO>
0

>  <NsF>
0

>  <NsSiH3>
0

>  <NssSiH2>
0

>  <NsssSiH>
0

>  <NssssSi>
0

>  <NsPH2>
0

>  <NssPH>
0

>  <NsssP>
0

>  <NdsssP>
0

>  <NsssssP>
0

>  <NsSH>
0

>  <NdS>
0

>  <NssS>
1

>  <NaaS>
0

>  <NdssS>
0

>  <NddssS>
0

>  <NsCl>
0

>  <NsBr>
0

>  <NsI>
0

>  <fragCpx>
58.07

>  <fMF>
0.48

>  <nHBAcc>
5

>  <nHBDon>
2

>  <Kier1>
15.39

>  <Kier2>
8.32

>  <Lipinski>
1

>  <GhoseFilter>
1

>  <FilterItLogS>
-4.23

>  <VMcGowan>
200.43

>  <LabuteASA>
114.34

>  <PEOE_VSA1>
10.3

>  <PEOE_VSA2>
15.1

>  <PEOE_VSA3>
0

>  <PEOE_VSA4>
11.76

>  <PEOE_VSA5>
0

>  <PEOE_VSA6>
6.07

>  <PEOE_VSA7>
12.13

>  <PEOE_VSA8>
36.51

>  <PEOE_VSA9>
10.62

>  <PEOE_VSA10>
0

>  <PEOE_VSA11>
5.82

>  <PEOE_VSA12>
0

>  <PEOE_VSA13>
0

>  <SMR_VSA1>
4.92

>  <SMR_VSA2>
0

>  <SMR_VSA3>
9.97

>  <SMR_VSA4>
0

>  <SMR_VSA5>
5.75

>  <SMR_VSA6>
17.61

>  <SMR_VSA7>
52.47

>  <SMR_VSA8>
0

>  <SMR_VSA9>
0

>  <SlogP_VSA1>
5.32

>  <SlogP_VSA2>
27.19

>  <SlogP_VSA3>
5.75

>  <SlogP_VSA4>
10.11

>  <SlogP_VSA5>
5.69

>  <SlogP_VSA6>
36.66

>  <SlogP_VSA7>
0

>  <SlogP_VSA8>
0

>  <SlogP_VSA9>
0

>  <SlogP_VSA10>
11.51

>  <SlogP_VSA11>
0

>  <EState_VSA1>
4.92

>  <EState_VSA2>
5.69

>  <EState_VSA3>
12.36

>  <EState_VSA4>
17.2

>  <EState_VSA5>
6.07

>  <EState_VSA6>
24.16

>  <EState_VSA7>
18.2

>  <EState_VSA8>
15.28

>  <EState_VSA9>
0

>  <EState_VSA10>
10.11

>  <VSA_EState1>
0

>  <VSA_EState2>
17.33

>  <VSA_EState3>
13.71

>  <VSA_EState4>
1.12

>  <VSA_EState5>
2.16

>  <VSA_EState6>
7.28

>  <VSA_EState7>
3.33

>  <VSA_EState8>
0.67

>  <VSA_EState9>
0

>  <apol>
38.28

>  <bpol>
19.95

>  <nRing>
2

>  <nHRing>
2

>  <naRing>
2

>  <naHRing>
2

>  <nARing 2>
0

>  <nAHRing 2>
0

>  <nFRing>
0

>  <nFHRing>
0

>  <nFaRing>
0

>  <nFaHRing>
0

>  <nFARing 2>
0

>  <nFAHRing 2>
0

>  <nRot>
7

>  <SLogP>
2.66

>  <SMR>
76.34

>  <TopoPSA(NO)>
83.85

>  <TopoPSA>
109.15

>  <JGI1>
0.13

>  <JGI2>
0.06

>  <JGI3>
0.04

>  <JGI4>
0.03

>  <JGI5>
0.02

>  <Diameter>
12

>  <Radius>
6

>  <TMWC10>
108.81

>  <TSRW10>
64.88

>  <MW>
278.08

>  <AMW>
8.43

>  <WPath>
878

>  <WPol>
22

>  <Zagreb1>
90

>  <Zagreb2>
100

>  <mZagreb2>
4.39

>  <yes>


>  <nAR-cont>
0.336376

>  <nHA-cont>
0.998649058

>  <MWHBN>
0.419771706

>  <MWHBN-cont>
0.398844715

>  <TPSA-cont>
0.238065222

>  <pka_cont>
0.97

>  <yes.1>


>  <BBB_SCORE>
2.894422574

>  <MMFF94 Energy>
103.22

$$$$
Compound 153
Actelion Java MolfileCreator 2.0

  0  0  0  0  0  0              0 V3000
M  V30 BEGIN CTAB
M  V30 COUNTS 50 53 0 0 0
M  V30 BEGIN ATOM
M  V30 1 O -0.6376 -4.9502 -3.7508 0
M  V30 2 C 0.0319 -4.7159 -2.7429 0
M  V30 3 N 0.0319 -3.4311 -2.1895 0
M  V30 4 C 0.8389 -5.7454 -2.1088 0
M  V30 5 C 0.5091 -3.0931 -0.8426 0
M  V30 6 C -0.6422 -2.3593 -2.928 0
M  V30 7 O 0.3508 -7.0275 -2.1061 0
M  V30 8 C 2.0875 -5.7435 -1.5084 0
M  V30 9 C -0.2158 -1.8844 -0.2195 0
M  V30 10 C -0.1377 -0.9533 -2.5614 0
M  V30 11 C 1.266 -7.815 -1.4891 0
M  V30 12 C 2.3544 -7.0734 -1.1007 0
M  V30 13 N -0.174 -0.7374 -1.1177 0
M  V30 14 C -0.209 0.5399 -0.6184 0
M  V30 15 N -0.3514 0.7139 0.7023 0
M  V30 16 N -0.0955 1.5663 -1.4708 0
M  V30 17 C -0.3869 1.9582 1.1922 0
M  V30 18 C -0.1301 2.8226 -0.9761 0
M  V30 19 C -0.2783 3.0917 0.3867 0
M  V30 20 C -0.5382 2.1255 2.5628 0
M  V30 21 C 0.0018 3.9172 -1.9954 0
M  V30 22 C -0.3224 4.3822 0.972 0
M  V30 23 C -0.5844 3.3923 3.1568 0
M  V30 24 C -0.4745 4.5366 2.351 0
M  V30 25 O -0.7314 3.6138 4.5037 0
M  V30 26 O -0.5265 5.7432 3.0001 0
M  V30 27 C -0.8713 2.4804 5.3488 0
M  V30 28 C -0.4297 6.9248 2.218 0
M  V30 29 H 0.4017 -3.9576 -0.1804 0
M  V30 30 H 1.5761 -2.8606 -0.9384 0
M  V30 31 H -1.7112 -2.4435 -2.6948 0
M  V30 32 H -0.5298 -2.5227 -4.0056 0
M  V30 33 H 2.7401 -4.8893 -1.3987 0
M  V30 34 H -1.2623 -2.1427 -0.0169 0
M  V30 35 H 0.269 -1.6727 0.7409 0
M  V30 36 H -0.7655 -0.2283 -3.0936 0
M  V30 37 H 0.8937 -0.831 -2.9135 0
M  V30 38 H 1.0047 -8.8616 -1.4139 0
M  V30 39 H 3.237 -7.4487 -0.6021 0
M  V30 40 H -0.6197 1.2227 3.1596 0
M  V30 41 H 0.1074 3.5003 -3.0027 0
M  V30 42 H -0.8882 4.5541 -1.9903 0
M  V30 43 H 0.889 4.5248 -1.7917 0
M  V30 44 H -0.2355 5.2507 0.3287 0
M  V30 45 H -1.7676 1.9054 5.0941 0
M  V30 46 H -0.989 2.8411 6.3752 0
M  V30 47 H 0.0251 1.8526 5.3183 0
M  V30 48 H 0.5355 6.98 1.7043 0
M  V30 49 H -0.4946 7.7813 2.896 0
M  V30 50 H -1.2609 6.9984 1.5091 0
M  V30 END ATOM
M  V30 BEGIN BOND
M  V30 1 2 1 2
M  V30 2 1 2 3
M  V30 3 1 2 4
M  V30 4 1 3 5
M  V30 5 1 3 6
M  V30 6 1 4 7
M  V30 7 2 4 8
M  V30 8 1 5 9
M  V30 9 1 6 10
M  V30 10 1 7 11
M  V30 11 1 8 12
M  V30 12 1 9 13
M  V30 13 1 13 14
M  V30 14 2 14 15
M  V30 15 1 14 16
M  V30 16 1 15 17
M  V30 17 2 16 18
M  V30 18 1 17 19
M  V30 19 2 17 20
M  V30 20 1 18 21
M  V30 21 2 19 22
M  V30 22 1 20 23
M  V30 23 1 22 24
M  V30 24 1 23 25
M  V30 25 1 24 26
M  V30 26 1 25 27
M  V30 27 1 26 28
M  V30 28 1 10 13
M  V30 29 2 11 12
M  V30 30 1 18 19
M  V30 31 2 23 24
M  V30 32 1 5 29
M  V30 33 1 5 30
M  V30 34 1 6 31
M  V30 35 1 6 32
M  V30 36 1 8 33
M  V30 37 1 9 34
M  V30 38 1 9 35
M  V30 39 1 10 36
M  V30 40 1 10 37
M  V30 41 1 11 38
M  V30 42 1 12 39
M  V30 43 1 20 40
M  V30 44 1 21 41
M  V30 45 1 21 42
M  V30 46 1 21 43
M  V30 47 1 22 44
M  V30 48 1 27 45
M  V30 49 1 27 46
M  V30 50 1 27 47
M  V30 51 1 28 48
M  V30 52 1 28 49
M  V30 53 1 28 50
M  V30 END BOND
M  V30 END CTAB
M  END
>  <Column 1>
201

>  <level_0>
231

>  <index>
231

>  <Unnamed: 0>
231

>  <NO.>
232

>  <Name>
prazosin

>  <IUPAC_name>
[4-(6-7-dimethoxy-4-methylquinazolin-2-yl)piperazin-1-yl]-(furan-2-yl)methanone

>  <SMILES>
COc1cc2nc(N3CCN(C(=O)c4ccco4)CC3)nc(C)c2cc1OC

>  <CID>
149104152

>  <logBB>
-0.66

>  <BBB+/BBB->
BBB+

>  <Inchi>
InChI=1S/C20H22N4O4/c1-13-14-11-17(26-2)18(27-3)12-15(14)22-20(21-13)24-8-6-23(7-9-24)19(25)16-5-4-10-28-16/h4-5-10-12H-6-9H2-1-3H3

>  <threshold>


>  <reference>
R18|R26|R27|

>  <group>
A

>  <Class>
1

>  <ABC>
21.9

>  <ABCGG>
16.79

>  <nAcid>
0

>  <nBase>
0

>  <nAromAtom>
15

>  <nAromBond>
16

>  <nAtom>
50

>  <nHeavyAtom>
28

>  <nSpiro>
0

>  <nBridgehead>
0

>  <nHetero>
8

>  <nN>
4

>  <nO>
4

>  <nF>
0

>  <BalabanJ>
1.31

>  <BertzCT>
995.11

>  <nBonds>
53

>  <nBondsO>
31

>  <nBondsS>
36

>  <nBondsD>
1

>  <nBondsT>
0

>  <nBondsA>
16

>  <nBondsM>
17

>  <nBondsKS>
45

>  <nBondsKD>
8

>  <RNCG>
0.17

>  <RPCG>
0.1

>  <FCSP3>
0.35

>  <SZ>
33.67

>  <Sm>
31.84

>  <Sv>
31.85

>  <Sse>
50.74

>  <Sp>
33.34

>  <Si>
56.57

>  <MZ>
0.67

>  <Mm>
0.64

>  <Mv>
0.64

>  <Mse>
1.01

>  <Mp>
0.67

>  <Mi>
1.13

>  <NsCH3>
3

>  <NdCH2>
0

>  <NssCH2>
4

>  <NtCH>
0

>  <NdsCH>
0

>  <NaaCH>
5

>  <NsssCH>
0

>  <NddC>
0

>  <NtsC>
0

>  <NdssC>
1

>  <NaasC>
5

>  <NaaaC>
2

>  <NssssC>
0

>  <NsNH3>
0

>  <NsNH2>
0

>  <NssNH2>
0

>  <NdNH>
0

>  <NssNH>
0

>  <NaaNH>
0

>  <NtN>
0

>  <NsssNH>
0

>  <NdsN>
0

>  <NaaN>
2

>  <NsssN>
2

>  <NddsN>
0

>  <NaasN>
0

>  <NssssN>
0

>  <NsOH>
0

>  <NdO>
1

>  <NssO>
2

>  <NaaO>
1

>  <NsF>
0

>  <NsSiH3>
0

>  <NssSiH2>
0

>  <NsssSiH>
0

>  <NssssSi>
0

>  <NsPH2>
0

>  <NssPH>
0

>  <NsssP>
0

>  <NdsssP>
0

>  <NsssssP>
0

>  <NsSH>
0

>  <NdS>
0

>  <NssS>
0

>  <NaaS>
0

>  <NdssS>
0

>  <NddssS>
0

>  <NsCl>
0

>  <NsBr>
0

>  <NsI>
0

>  <fragCpx>
205.08

>  <fMF>
0.44

>  <nHBAcc>
7

>  <nHBDon>
0

>  <Kier1>
21.24

>  <Kier2>
9.43

>  <Lipinski>
1

>  <GhoseFilter>
1

>  <FilterItLogS>
-4.61

>  <VMcGowan>
278.22

>  <LabuteASA>
162.23

>  <PEOE_VSA1>
23.69

>  <PEOE_VSA2>
4.79

>  <PEOE_VSA3>
9.97

>  <PEOE_VSA4>
0

>  <PEOE_VSA5>
0

>  <PEOE_VSA6>
0

>  <PEOE_VSA7>
25.12

>  <PEOE_VSA8>
37.63

>  <PEOE_VSA9>
31.69

>  <PEOE_VSA10>
0

>  <PEOE_VSA11>
17.26

>  <PEOE_VSA12>
5.95

>  <PEOE_VSA13>
5.91

>  <SMR_VSA1>
18.69

>  <SMR_VSA2>
0

>  <SMR_VSA3>
14.87

>  <SMR_VSA4>
0

>  <SMR_VSA5>
6.92

>  <SMR_VSA6>
45.3

>  <SMR_VSA7>
41.98

>  <SMR_VSA8>
0

>  <SMR_VSA9>
11.5

>  <SlogP_VSA1>
14.37

>  <SlogP_VSA2>
61.17

>  <SlogP_VSA3>
0

>  <SlogP_VSA4>
6.92

>  <SlogP_VSA5>
16.25

>  <SlogP_VSA6>
34.95

>  <SlogP_VSA7>
0

>  <SlogP_VSA8>
10.9

>  <SlogP_VSA9>
0

>  <SlogP_VSA10>
5.95

>  <SlogP_VSA11>
11.5

>  <EState_VSA1>
0

>  <EState_VSA2>
5.91

>  <EState_VSA3>
49.39

>  <EState_VSA4>
16.6

>  <EState_VSA5>
6.26

>  <EState_VSA6>
31.25

>  <EState_VSA7>
19.06

>  <EState_VSA8>
9.88

>  <EState_VSA9>
18.87

>  <EState_VSA10>
4.79

>  <VSA_EState1>
15.98

>  <VSA_EState2>
25.69

>  <VSA_EState3>
0.92

>  <VSA_EState4>
1.67

>  <VSA_EState5>
2.22

>  <VSA_EState6>
7.17

>  <VSA_EState7>
1.51

>  <VSA_EState8>
4.45

>  <VSA_EState9>
3.21

>  <apol>
55.68

>  <bpol>
33.85

>  <nRing>
4

>  <nHRing>
3

>  <naRing>
3

>  <naHRing>
2

>  <nARing 2>
1

>  <nAHRing 2>
1

>  <nFRing>
1

>  <nFHRing>
1

>  <nFaRing>
1

>  <nFaHRing>
1

>  <nFARing 2>
0

>  <nFAHRing 2>
0

>  <nRot>
4

>  <SLogP>
2.51

>  <SMR>
104.2

>  <TopoPSA(NO)>
80.93

>  <TopoPSA>
80.93

>  <JGI1>
0.18

>  <JGI2>
0.09

>  <JGI3>
0.04

>  <JGI4>
0.05

>  <JGI5>
0.03

>  <Diameter>
15

>  <Radius>
8

>  <TMWC10>
136.04

>  <TSRW10>
76.74

>  <MW>
382.16

>  <AMW>
7.64

>  <WPath>
2195

>  <WPol>
47

>  <Zagreb1>
150

>  <Zagreb2>
180

>  <mZagreb2>
6.25

>  <yes>


>  <nAR-cont>
0.816016

>  <nHA-cont>
0.82432561

>  <MWHBN>
0.358076175

>  <MWHBN-cont>
0.639762159

>  <TPSA-cont>
0.435058345

>  <pka_cont>
0.97

>  <yes.1>


>  <BBB_SCORE>
3.955101539

>  <MMFF94 Energy>
32.297

$$$$
Compound 154
Actelion Java MolfileCreator 2.0

  0  0  0  0  0  0              0 V3000
M  V30 BEGIN CTAB
M  V30 COUNTS 49 52 0 0 0
M  V30 BEGIN ATOM
M  V30 1 O 0.3196 1.8388 4.6421 0
M  V30 2 C 0.3827 0.7144 4.1764 0
M  V30 3 N 0.3335 -0.5341 4.8042 0
M  V30 4 C 0.5243 0.3886 2.7294 0
M  V30 5 N 0.4482 -1.5621 3.8702 0
M  V30 6 C 0.1894 -0.7794 6.185 0
M  V30 7 C 0.5828 -1.0845 2.5856 0
M  V30 8 C 0.5965 1.3495 1.7978 0
M  V30 9 C -0.4389 -1.95 6.6343 0
M  V30 10 C 0.6741 0.1295 7.1331 0
M  V30 11 O 0.7347 -1.7493 1.581 0
M  V30 12 C 0.7355 1.1416 0.3554 0
M  V30 13 C -0.5742 -2.206 8.0018 0
M  V30 14 C 0.5391 -0.1277 8.5004 0
M  V30 15 C -0.2598 0.4974 -0.3883 0
M  V30 16 C 1.8618 1.6443 -0.3027 0
M  V30 17 C -0.0832 -1.2955 8.9341 0
M  V30 18 C -0.1205 0.3234 -1.7682 0
M  V30 19 C 1.995 1.4904 -1.6832 0
M  V30 20 O -1.1647 -0.3134 -2.3817 0
M  V30 21 C 1.004 0.8338 -2.416 0
M  V30 22 C -0.8683 -1.0365 -3.5811 0
M  V30 23 C -1.115 -0.2321 -4.8385 0
M  V30 24 C -0.3902 -0.5249 -6.0052 0
M  V30 25 C -2.095 0.7679 -4.8858 0
M  V30 26 C -0.6099 0.1902 -7.1906 0
M  V30 27 C -2.3296 1.4745 -6.0651 0
M  V30 28 C -1.5929 1.1852 -7.213 0
M  V30 29 C 0.1539 -0.1503 -8.4357 0
M  V30 30 H 0.5247 -2.537 4.1227 0
M  V30 31 H 0.5647 2.3947 2.1027 0
M  V30 32 H -0.8568 -2.6666 5.9331 0
M  V30 33 H 1.1708 1.0475 6.8275 0
M  V30 34 H -1.0701 -3.1129 8.339 0
M  V30 35 H 0.9202 0.5878 9.2251 0
M  V30 36 H -1.1508 0.112 0.1014 0
M  V30 37 H 2.642 2.1611 0.2512 0
M  V30 38 H -0.1903 -1.4921 9.998 0
M  V30 39 H 2.8684 1.8903 -2.1918 0
M  V30 40 H 1.1252 0.7564 -3.4914 0
M  V30 41 H -1.5497 -1.8957 -3.603 0
M  V30 42 H 0.1478 -1.451 -3.5548 0
M  V30 43 H 0.3558 -1.3176 -5.9903 0
M  V30 44 H -2.6817 1.0031 -3.9998 0
M  V30 45 H -3.0914 2.2494 -6.089 0
M  V30 46 H -1.7935 1.7401 -8.1266 0
M  V30 47 H 1.161 -0.504 -8.1911 0
M  V30 48 H 0.2665 0.7291 -9.0784 0
M  V30 49 H -0.3702 -0.9318 -8.9942 0
M  V30 END ATOM
M  V30 BEGIN BOND
M  V30 1 2 1 2
M  V30 2 1 2 3
M  V30 3 1 2 4
M  V30 4 1 3 5
M  V30 5 1 3 6
M  V30 6 1 4 7
M  V30 7 2 4 8
M  V30 8 2 6 9
M  V30 9 1 6 10
M  V30 10 2 7 11
M  V30 11 1 8 12
M  V30 12 1 9 13
M  V30 13 2 10 14
M  V30 14 2 12 15
M  V30 15 1 12 16
M  V30 16 2 13 17
M  V30 17 1 15 18
M  V30 18 2 16 19
M  V30 19 1 18 20
M  V30 20 2 18 21
M  V30 21 1 20 22
M  V30 22 1 22 23
M  V30 23 2 23 24
M  V30 24 1 23 25
M  V30 25 1 24 26
M  V30 26 2 25 27
M  V30 27 2 26 28
M  V30 28 1 26 29
M  V30 29 1 5 7
M  V30 30 1 14 17
M  V30 31 1 19 21
M  V30 32 1 27 28
M  V30 33 1 5 30
M  V30 34 1 8 31
M  V30 35 1 9 32
M  V30 36 1 10 33
M  V30 37 1 13 34
M  V30 38 1 14 35
M  V30 39 1 15 36
M  V30 40 1 16 37
M  V30 41 1 17 38
M  V30 42 1 19 39
M  V30 43 1 21 40
M  V30 44 1 22 41
M  V30 45 1 22 42
M  V30 46 1 24 43
M  V30 47 1 25 44
M  V30 48 1 27 45
M  V30 49 1 28 46
M  V30 50 1 29 47
M  V30 51 1 29 48
M  V30 52 1 29 49
M  V30 END BOND
M  V30 END CTAB
M  END
>  <Column 1>
202

>  <level_0>
232

>  <index>
232

>  <Unnamed: 0>
232

>  <NO.>
233

>  <Name>
y16

>  <IUPAC_name>
(4e)-4-[[3-[(3-methylphenyl)methoxy]phenyl]methylidene]-1-phenylpyrazolidine-3-5-dione

>  <SMILES>
Cc1cccc(COc2cccc(/C=C3\C(=O)NN(c4ccccc4)C3=O)c2)c1

>  <CID>
989521

>  <logBB>
-0.66

>  <BBB+/BBB->
BBB+

>  <Inchi>
InChI=1S/C24H20N2O3/c1-17-7-5-9-19(13-17)16-29-21-12-6-8-18(14-21)15-22-23(27)25-26(24(22)28)20-10-3-2-4-11-20/h2-15H-16H2-1H3-(H-25-27)/b22-15+

>  <threshold>


>  <reference>
R11|

>  <group>
A

>  <Class>
1

>  <ABC>
22.79

>  <ABCGG>
17.13

>  <nAcid>
0

>  <nBase>
0

>  <nAromAtom>
18

>  <nAromBond>
18

>  <nAtom>
49

>  <nHeavyAtom>
29

>  <nSpiro>
0

>  <nBridgehead>
0

>  <nHetero>
5

>  <nN>
2

>  <nO>
3

>  <nF>
0

>  <BalabanJ>
1.24

>  <BertzCT>
1090.04

>  <nBonds>
52

>  <nBondsO>
32

>  <nBondsS>
31

>  <nBondsD>
3

>  <nBondsT>
0

>  <nBondsA>
18

>  <nBondsM>
21

>  <nBondsKS>
40

>  <nBondsKD>
12

>  <RNCG>
0.21

>  <RPCG>
0.12

>  <FCSP3>
0.08

>  <SZ>
33.67

>  <Sm>
32.01

>  <Sv>
33.08

>  <Sse>
49.2

>  <Sp>
34.74

>  <Si>
54.36

>  <MZ>
0.69

>  <Mm>
0.65

>  <Mv>
0.68

>  <Mse>
1

>  <Mp>
0.71

>  <Mi>
1.11

>  <NsCH3>
1

>  <NdCH2>
0

>  <NssCH2>
1

>  <NtCH>
0

>  <NdsCH>
1

>  <NaaCH>
13

>  <NsssCH>
0

>  <NddC>
0

>  <NtsC>
0

>  <NdssC>
3

>  <NaasC>
5

>  <NaaaC>
0

>  <NssssC>
0

>  <NsNH3>
0

>  <NsNH2>
0

>  <NssNH2>
0

>  <NdNH>
0

>  <NssNH>
1

>  <NaaNH>
0

>  <NtN>
0

>  <NsssNH>
0

>  <NdsN>
0

>  <NaaN>
0

>  <NsssN>
1

>  <NddsN>
0

>  <NaasN>
0

>  <NssssN>
0

>  <NsOH>
0

>  <NdO>
2

>  <NssO>
1

>  <NaaO>
0

>  <NsF>
0

>  <NsSiH3>
0

>  <NssSiH2>
0

>  <NsssSiH>
0

>  <NssssSi>
0

>  <NsPH2>
0

>  <NssPH>
0

>  <NsssP>
0

>  <NdsssP>
0

>  <NsssssP>
0

>  <NsSH>
0

>  <NdS>
0

>  <NssS>
0

>  <NaaS>
0

>  <NdssS>
0

>  <NddssS>
0

>  <NsCl>
0

>  <NsBr>
0

>  <NsI>
0

>  <fragCpx>
212.05

>  <fMF>
0.53

>  <nHBAcc>
3

>  <nHBDon>
1

>  <Kier1>
22.2

>  <Kier2>
10.54

>  <Lipinski>
1

>  <GhoseFilter>
1

>  <FilterItLogS>
-5.96

>  <VMcGowan>
291.55

>  <LabuteASA>
168.76

>  <PEOE_VSA1>
4.74

>  <PEOE_VSA2>
15.01

>  <PEOE_VSA3>
5.01

>  <PEOE_VSA4>
0

>  <PEOE_VSA5>
0

>  <PEOE_VSA6>
60.16

>  <PEOE_VSA7>
48.39

>  <PEOE_VSA8>
0

>  <PEOE_VSA9>
5.69

>  <PEOE_VSA10>
17.93

>  <PEOE_VSA11>
0

>  <PEOE_VSA12>
0

>  <PEOE_VSA13>
11.81

>  <SMR_VSA1>
14.33

>  <SMR_VSA2>
0

>  <SMR_VSA3>
5.43

>  <SMR_VSA4>
0

>  <SMR_VSA5>
13.53

>  <SMR_VSA6>
5.01

>  <SMR_VSA7>
101.13

>  <SMR_VSA8>
0

>  <SMR_VSA9>
5.75

>  <SlogP_VSA1>
15.17

>  <SlogP_VSA2>
11.81

>  <SlogP_VSA3>
16.2

>  <SlogP_VSA4>
6.92

>  <SlogP_VSA5>
16.69

>  <SlogP_VSA6>
84.44

>  <SlogP_VSA7>
0

>  <SlogP_VSA8>
6.08

>  <SlogP_VSA9>
0

>  <SlogP_VSA10>
5.69

>  <SlogP_VSA11>
5.75

>  <EState_VSA1>
5.91

>  <EState_VSA2>
11.48

>  <EState_VSA3>
18.04

>  <EState_VSA4>
11.13

>  <EState_VSA5>
10.57

>  <EState_VSA6>
18.21

>  <EState_VSA7>
67.59

>  <EState_VSA8>
11.49

>  <EState_VSA9>
4.74

>  <EState_VSA10>
9.59

>  <VSA_EState1>
5.87

>  <VSA_EState2>
25.02

>  <VSA_EState3>
1.26

>  <VSA_EState4>
6.29

>  <VSA_EState5>
-0.14

>  <VSA_EState6>
24.46

>  <VSA_EState7>
1.58

>  <VSA_EState8>
2.49

>  <VSA_EState9>
0

>  <apol>
58.02

>  <bpol>
24.68

>  <nRing>
4

>  <nHRing>
1

>  <naRing>
3

>  <naHRing>
0

>  <nARing 2>
1

>  <nAHRing 2>
1

>  <nFRing>
0

>  <nFHRing>
0

>  <nFaRing>
0

>  <nFaHRing>
0

>  <nFARing 2>
0

>  <nFAHRing 2>
0

>  <nRot>
5

>  <SLogP>
4.04

>  <SMR>
112

>  <TopoPSA(NO)>
58.64

>  <TopoPSA>
58.64

>  <JGI1>
0.17

>  <JGI2>
0.06

>  <JGI3>
0.05

>  <JGI4>
0.04

>  <JGI5>
0.02

>  <Diameter>
16

>  <Radius>
8

>  <TMWC10>
137.34

>  <TSRW10>
78.64

>  <MW>
384.15

>  <AMW>
7.84

>  <WPath>
2543

>  <WPol>
43

>  <Zagreb1>
152

>  <Zagreb2>
177

>  <mZagreb2>
6.36

>  <yes>


>  <nAR-cont>
0.816016

>  <nHA-cont>
0.785905698

>  <MWHBN>
0.204084289

>  <MWHBN-cont>
0.999999471

>  <TPSA-cont>
0.590656387

>  <pka_cont>
0.97

>  <yes.1>


>  <BBB_SCORE>
4.768233678

>  <MMFF94 Energy>
87.326

$$$$
Compound 155
Actelion Java MolfileCreator 2.0

  0  0  0  0  0  0              0 V3000
M  V30 BEGIN CTAB
M  V30 COUNTS 33 34 0 0 0
M  V30 BEGIN ATOM
M  V30 1 S -2.8382 1.5399 0.405 0
M  V30 2 C -1.555 2.3506 -0.615 0
M  V30 3 C -1.8829 0.1076 1.0139 0
M  V30 4 C -1.1874 1.5597 -1.8485 0
M  V30 5 C -0.9282 0.4885 2.1567 0
M  V30 6 N -0.005 0.89 -1.8316 0
M  V30 7 C -2.0513 1.5175 -2.9426 0
M  V30 8 N -0.0045 -0.5991 2.5239 0
M  V30 9 C 0.3198 0.1764 -2.9325 0
M  V30 10 C -1.689 0.7704 -4.0597 0
M  V30 11 C 1.1559 -0.6425 1.6363 0 CFG=1
M  V30 12 C -0.4802 0.0866 -4.0583 0
M  V30 13 N 2.003 0.5622 1.8436 0
M  V30 14 C 2.1053 -1.7316 1.9511 0
M  V30 15 C 3.1492 0.0927 2.2332 0
M  V30 16 N 1.7588 -3.0994 1.735 0 CHG=1
M  V30 17 C 3.3233 -1.3519 2.3184 0
M  V30 18 O 2.6287 -3.9558 1.9443 0
M  V30 19 O 0.6091 -3.3384 1.3434 0 CHG=-1
M  V30 20 H -1.937 3.3311 -0.9214 0
M  V30 21 H -0.6651 2.5436 -0.0079 0
M  V30 22 H -1.3614 -0.3641 0.178 0
M  V30 23 H -2.6043 -0.6307 1.3827 0
M  V30 24 H -1.5321 0.7071 3.0465 0
M  V30 25 H -0.3754 1.4088 1.9418 0
M  V30 26 H -2.9965 2.0519 -2.925 0
M  V30 27 H -0.5071 -1.4854 2.4392 0
M  V30 28 H 1.2741 -0.3398 -2.8844 0
M  V30 29 H -2.3474 0.7212 -4.9223 0
M  V30 30 H 0.8635 -0.6917 0.5807 0
M  V30 31 H -0.1699 -0.5035 -4.913 0
M  V30 32 H 4.0033 0.7402 2.4837 0
M  V30 33 H 4.2107 -1.9043 2.5579 0
M  V30 END ATOM
M  V30 BEGIN BOND
M  V30 1 1 1 2
M  V30 2 1 1 3
M  V30 3 1 2 4
M  V30 4 1 3 5
M  V30 5 2 4 6
M  V30 6 1 4 7
M  V30 7 1 5 8
M  V30 8 1 6 9
M  V30 9 2 7 10
M  V30 10 1 8 11
M  V30 11 2 9 12
M  V30 12 1 11 13
M  V30 13 1 11 14
M  V30 14 2 13 15
M  V30 15 1 14 16
M  V30 16 2 14 17
M  V30 17 2 16 18
M  V30 18 1 16 19
M  V30 19 1 10 12
M  V30 20 1 15 17
M  V30 21 1 2 20
M  V30 22 1 2 21
M  V30 23 1 3 22
M  V30 24 1 3 23
M  V30 25 1 5 24
M  V30 26 1 5 25
M  V30 27 1 7 26
M  V30 28 1 8 27
M  V30 29 1 9 28
M  V30 30 1 10 29
M  V30 31 1 11 30
M  V30 32 1 12 31
M  V30 33 1 15 32
M  V30 34 1 17 33
M  V30 END BOND
M  V30 BEGIN COLLECTION
M  V30 MDLV30/STERAC1 ATOMS=(1 11)
M  V30 END COLLECTION
M  V30 END CTAB
M  END
>  <Column 1>
204

>  <level_0>
234

>  <index>
234

>  <Unnamed: 0>
234

>  <NO.>
235

>  <Name>
compound 32

>  <IUPAC_name>


>  <SMILES>
O=[N+]([O-])C1=CC=NC1NCCSCc1ccccn1

>  <CID>


>  <logBB>
-0.66

>  <BBB+/BBB->
BBB+

>  <Inchi>
InChI=1S/C12H14N4O2S/c17-16(18)11-4-6-14-12(11)15-7-8-19-9-10-3-1-2-5-13-10/h1-6-12-15H-7-9H2

>  <threshold>


>  <reference>
R36|

>  <group>
A

>  <Class>
1

>  <ABC>
14.28

>  <ABCGG>
12.1

>  <nAcid>
0

>  <nBase>
1

>  <nAromAtom>
6

>  <nAromBond>
6

>  <nAtom>
33

>  <nHeavyAtom>
19

>  <nSpiro>
0

>  <nBridgehead>
0

>  <nHetero>
7

>  <nN>
4

>  <nO>
2

>  <nF>
0

>  <BalabanJ>
1.51

>  <BertzCT>
489.76

>  <nBonds>
34

>  <nBondsO>
20

>  <nBondsS>
25

>  <nBondsD>
3

>  <nBondsT>
0

>  <nBondsA>
6

>  <nBondsM>
9

>  <nBondsKS>
28

>  <nBondsKD>
6

>  <RNCG>
0.18

>  <RPCG>
0.18

>  <FCSP3>
0.33

>  <SZ>
24.33

>  <Sm>
23.17

>  <Sv>
21.44

>  <Sse>
33.61

>  <Sp>
22.92

>  <Si>
37.41

>  <MZ>
0.74

>  <Mm>
0.7

>  <Mv>
0.65

>  <Mse>
1.02

>  <Mp>
0.69

>  <Mi>
1.13

>  <NsCH3>
0

>  <NdCH2>
0

>  <NssCH2>
3

>  <NtCH>
0

>  <NdsCH>
2

>  <NaaCH>
4

>  <NsssCH>
1

>  <NddC>
0

>  <NtsC>
0

>  <NdssC>
1

>  <NaasC>
1

>  <NaaaC>
0

>  <NssssC>
0

>  <NsNH3>
0

>  <NsNH2>
0

>  <NssNH2>
0

>  <NdNH>
0

>  <NssNH>
1

>  <NaaNH>
0

>  <NtN>
0

>  <NsssNH>
0

>  <NdsN>
1

>  <NaaN>
1

>  <NsssN>
0

>  <NddsN>
1

>  <NaasN>
0

>  <NssssN>
0

>  <NsOH>
0

>  <NdO>
1

>  <NssO>
0

>  <NaaO>
0

>  <NsF>
0

>  <NsSiH3>
0

>  <NssSiH2>
0

>  <NsssSiH>
0

>  <NssssSi>
0

>  <NsPH2>
0

>  <NssPH>
0

>  <NsssP>
0

>  <NdsssP>
0

>  <NsssssP>
0

>  <NsSH>
0

>  <NdS>
0

>  <NssS>
1

>  <NaaS>
0

>  <NdssS>
0

>  <NddssS>
0

>  <NsCl>
0

>  <NsBr>
0

>  <NsI>
0

>  <fragCpx>
58.07

>  <fMF>
0.48

>  <nHBAcc>
6

>  <nHBDon>
1

>  <Kier1>
15.39

>  <Kier2>
8.32

>  <Lipinski>
1

>  <GhoseFilter>
1

>  <FilterItLogS>
-3.25

>  <VMcGowan>
200.43

>  <LabuteASA>
114.73

>  <PEOE_VSA1>
0

>  <PEOE_VSA2>
25.41

>  <PEOE_VSA3>
0

>  <PEOE_VSA4>
11.76

>  <PEOE_VSA5>
0

>  <PEOE_VSA6>
6.07

>  <PEOE_VSA7>
12.13

>  <PEOE_VSA8>
36.54

>  <PEOE_VSA9>
10.62

>  <PEOE_VSA10>
0

>  <PEOE_VSA11>
6.17

>  <PEOE_VSA12>
0

>  <PEOE_VSA13>
5.7

>  <SMR_VSA1>
4.92

>  <SMR_VSA2>
0

>  <SMR_VSA3>
10.3

>  <SMR_VSA4>
4.99

>  <SMR_VSA5>
11.92

>  <SMR_VSA6>
12.3

>  <SMR_VSA7>
51.98

>  <SMR_VSA8>
0

>  <SMR_VSA9>
0

>  <SlogP_VSA1>
5.32

>  <SlogP_VSA2>
34.59

>  <SlogP_VSA3>
5.75

>  <SlogP_VSA4>
10.11

>  <SlogP_VSA5>
5.69

>  <SlogP_VSA6>
41.16

>  <SlogP_VSA7>
0

>  <SlogP_VSA8>
0

>  <SlogP_VSA9>
0

>  <SlogP_VSA10>
0

>  <SlogP_VSA11>
0

>  <EState_VSA1>
11.09

>  <EState_VSA2>
5.7

>  <EState_VSA3>
6.54

>  <EState_VSA4>
17.2

>  <EState_VSA5>
12.29

>  <EState_VSA6>
17.96

>  <EState_VSA7>
18.2

>  <EState_VSA8>
15.29

>  <EState_VSA9>
0

>  <EState_VSA10>
10.11

>  <VSA_EState1>
0

>  <VSA_EState2>
18.52

>  <VSA_EState3>
13.74

>  <VSA_EState4>
1.15

>  <VSA_EState5>
1.7

>  <VSA_EState6>
5.83

>  <VSA_EState7>
4.16

>  <VSA_EState8>
0.67

>  <VSA_EState9>
0

>  <apol>
38.28

>  <bpol>
20.52

>  <nRing>
2

>  <nHRing>
2

>  <naRing>
1

>  <naHRing>
1

>  <nARing 2>
1

>  <nAHRing 2>
1

>  <nFRing>
0

>  <nFHRing>
0

>  <nFaRing>
0

>  <nFaHRing>
0

>  <nFARing 2>
0

>  <nFAHRing 2>
0

>  <nRot>
7

>  <SLogP>
1.48

>  <SMR>
75.76

>  <TopoPSA(NO)>
80.42

>  <TopoPSA>
105.72

>  <JGI1>
0.13

>  <JGI2>
0.06

>  <JGI3>
0.04

>  <JGI4>
0.03

>  <JGI5>
0.02

>  <Diameter>
12

>  <Radius>
6

>  <TMWC10>
108.81

>  <TSRW10>
64.88

>  <MW>
278.08

>  <AMW>
8.43

>  <WPath>
878

>  <WPol>
22

>  <Zagreb1>
90

>  <Zagreb2>
100

>  <mZagreb2>
4.39

>  <yes>


>  <nAR-cont>
0.816016

>  <nHA-cont>
0.998649058

>  <MWHBN>
0.419771706

>  <MWHBN-cont>
0.398844715

>  <TPSA-cont>
0.262008752

>  <pka_cont>
0.97

>  <yes.1>


>  <BBB_SCORE>
3.421949634

>  <MMFF94 Energy>
9.1757

$$$$
Compound 156
Actelion Java MolfileCreator 2.0

  0  0  0  0  0  0              0 V3000
M  V30 BEGIN CTAB
M  V30 COUNTS 26 27 0 0 0
M  V30 BEGIN ATOM
M  V30 1 Cl 2.0757 2.4753 1.0374 0
M  V30 2 C 1.0255 1.8682 -0.2028 0
M  V30 3 C 0.3755 0.6259 -0.0434 0
M  V30 4 C 0.8537 2.6484 -1.3523 0
M  V30 5 N 0.5769 -0.118 1.1374 0
M  V30 6 C -0.455 0.2032 -1.0867 0
M  V30 7 C 0.0112 2.2127 -2.3779 0
M  V30 8 C 0.1096 -1.3406 1.4892 0
M  V30 9 C -0.631 0.9795 -2.2403 0
M  V30 10 C -0.1533 3.0231 -3.6286 0
M  V30 11 N -0.6063 -2.1909 0.8115 0
M  V30 12 N 0.4454 -1.7258 2.7466 0
M  V30 13 C -0.7836 -3.3625 1.7138 0
M  V30 14 C -0.165 -2.985 3.0629 0
M  V30 15 H 1.3777 3.5967 -1.4451 0
M  V30 16 H 1.2175 0.3261 1.7801 0
M  V30 17 H -0.985 -0.7435 -1.0281 0
M  V30 18 H -1.2799 0.6046 -3.0297 0
M  V30 19 H -0.0583 4.0932 -3.4159 0
M  V30 20 H -1.1442 2.8665 -4.0681 0
M  V30 21 H 0.6078 2.7389 -4.3616 0
M  V30 22 H 0.781 -1.1019 3.4623 0
M  V30 23 H -0.2791 -4.2323 1.2795 0
M  V30 24 H -1.8476 -3.598 1.8187 0
M  V30 25 H -0.9333 -2.8644 3.8328 0
M  V30 26 H 0.5697 -3.7232 3.3959 0
M  V30 END ATOM
M  V30 BEGIN BOND
M  V30 1 1 1 2
M  V30 2 2 2 3
M  V30 3 1 2 4
M  V30 4 1 3 5
M  V30 5 1 3 6
M  V30 6 2 4 7
M  V30 7 1 5 8
M  V30 8 2 6 9
M  V30 9 1 7 10
M  V30 10 2 8 11
M  V30 11 1 8 12
M  V30 12 1 11 13
M  V30 13 1 12 14
M  V30 14 1 7 9
M  V30 15 1 13 14
M  V30 16 1 4 15
M  V30 17 1 5 16
M  V30 18 1 6 17
M  V30 19 1 9 18
M  V30 20 1 10 19
M  V30 21 1 10 20
M  V30 22 1 10 21
M  V30 23 1 12 22
M  V30 24 1 13 23
M  V30 25 1 13 24
M  V30 26 1 14 25
M  V30 27 1 14 26
M  V30 END BOND
M  V30 END CTAB
M  END
>  <Column 1>
205

>  <level_0>
235

>  <index>
235

>  <Unnamed: 0>
235

>  <NO.>
236

>  <Name>
tolonidine

>  <IUPAC_name>
n-(2-chloro-4-methylphenyl)-4-5-dihydro-1h-imidazol-2-amine

>  <SMILES>
Cc1ccc(NC2=NCCN2)c(Cl)c1

>  <CID>
72138

>  <logBB>
-0.65

>  <BBB+/BBB->
BBB+

>  <Inchi>
InChI=1S/C10H12ClN3/c1-7-2-3-9(8(11)6-7)14-10-12-4-5-13-10/h2-3-6H-4-5H2-1H3-(H2-12-13-14)

>  <threshold>


>  <reference>
R25|R47|R4|R2|R2|R8|R40|

>  <group>
A

>  <Class>
1

>  <ABC>
10.78

>  <ABCGG>
9.7

>  <nAcid>
0

>  <nBase>
3

>  <nAromAtom>
6

>  <nAromBond>
6

>  <nAtom>
26

>  <nHeavyAtom>
14

>  <nSpiro>
0

>  <nBridgehead>
0

>  <nHetero>
4

>  <nN>
3

>  <nO>
0

>  <nF>
0

>  <BalabanJ>
1.79

>  <BertzCT>
373.63

>  <nBonds>
27

>  <nBondsO>
15

>  <nBondsS>
20

>  <nBondsD>
1

>  <nBondsT>
0

>  <nBondsA>
6

>  <nBondsM>
7

>  <nBondsKS>
23

>  <nBondsKD>
4

>  <RNCG>
0.29

>  <RPCG>
0.16

>  <FCSP3>
0.3

>  <SZ>
18.33

>  <Sm>
17.46

>  <Sv>
16.62

>  <Sse>
26.08

>  <Sp>
18.07

>  <Si>
29.52

>  <MZ>
0.71

>  <Mm>
0.67

>  <Mv>
0.64

>  <Mse>
1

>  <Mp>
0.7

>  <Mi>
1.14

>  <NsCH3>
1

>  <NdCH2>
0

>  <NssCH2>
2

>  <NtCH>
0

>  <NdsCH>
0

>  <NaaCH>
3

>  <NsssCH>
0

>  <NddC>
0

>  <NtsC>
0

>  <NdssC>
1

>  <NaasC>
3

>  <NaaaC>
0

>  <NssssC>
0

>  <NsNH3>
0

>  <NsNH2>
0

>  <NssNH2>
0

>  <NdNH>
0

>  <NssNH>
2

>  <NaaNH>
0

>  <NtN>
0

>  <NsssNH>
0

>  <NdsN>
1

>  <NaaN>
0

>  <NsssN>
0

>  <NddsN>
0

>  <NaasN>
0

>  <NssssN>
0

>  <NsOH>
0

>  <NdO>
0

>  <NssO>
0

>  <NaaO>
0

>  <NsF>
0

>  <NsSiH3>
0

>  <NssSiH2>
0

>  <NsssSiH>
0

>  <NssssSi>
0

>  <NsPH2>
0

>  <NssPH>
0

>  <NsssP>
0

>  <NdsssP>
0

>  <NsssssP>
0

>  <NsSH>
0

>  <NdS>
0

>  <NssS>
0

>  <NaaS>
0

>  <NdssS>
0

>  <NddssS>
0

>  <NsCl>
1

>  <NsBr>
0

>  <NsI>
0

>  <fragCpx>
43.04

>  <fMF>
0.46

>  <nHBAcc>
3

>  <nHBDon>
2

>  <Kier1>
10.52

>  <Kier2>
4.68

>  <Lipinski>
1

>  <GhoseFilter>
1

>  <FilterItLogS>
-3.92

>  <VMcGowan>
155.02

>  <LabuteASA>
88.18

>  <PEOE_VSA1>
10.63

>  <PEOE_VSA2>
4.99

>  <PEOE_VSA3>
0

>  <PEOE_VSA4>
0

>  <PEOE_VSA5>
0

>  <PEOE_VSA6>
17.67

>  <PEOE_VSA7>
24.62

>  <PEOE_VSA8>
6.54

>  <PEOE_VSA9>
17.25

>  <PEOE_VSA10>
0

>  <PEOE_VSA11>
5.96

>  <PEOE_VSA12>
0

>  <PEOE_VSA13>
0

>  <SMR_VSA1>
0

>  <SMR_VSA2>
0

>  <SMR_VSA3>
5.32

>  <SMR_VSA4>
4.99

>  <SMR_VSA5>
6.92

>  <SMR_VSA6>
18.41

>  <SMR_VSA7>
28.79

>  <SMR_VSA8>
0

>  <SMR_VSA9>
0

>  <SlogP_VSA1>
10.63

>  <SlogP_VSA2>
19.05

>  <SlogP_VSA3>
0

>  <SlogP_VSA4>
6.92

>  <SlogP_VSA5>
5.56

>  <SlogP_VSA6>
23.19

>  <SlogP_VSA7>
5.02

>  <SlogP_VSA8>
0

>  <SlogP_VSA9>
0

>  <SlogP_VSA10>
5.69

>  <SlogP_VSA11>
0

>  <EState_VSA1>
0

>  <EState_VSA2>
0

>  <EState_VSA3>
0

>  <EState_VSA4>
35.32

>  <EState_VSA5>
0

>  <EState_VSA6>
0

>  <EState_VSA7>
25.12

>  <EState_VSA8>
15.63

>  <EState_VSA9>
11.6

>  <EState_VSA10>
0

>  <VSA_EState1>
0

>  <VSA_EState2>
4.23

>  <VSA_EState3>
6.99

>  <VSA_EState4>
2.05

>  <VSA_EState5>
0.8

>  <VSA_EState6>
5.91

>  <VSA_EState7>
0

>  <VSA_EState8>
3.73

>  <VSA_EState9>
0

>  <apol>
30.18

>  <bpol>
14.83

>  <nRing>
2

>  <nHRing>
1

>  <naRing>
1

>  <naHRing>
0

>  <nARing 2>
1

>  <nAHRing 2>
1

>  <nFRing>
0

>  <nFHRing>
0

>  <nFaRing>
0

>  <nFaHRing>
0

>  <nFARing 2>
0

>  <nFAHRing 2>
0

>  <nRot>
1

>  <SLogP>
2.02

>  <SMR>
60.12

>  <TopoPSA(NO)>
36.42

>  <TopoPSA>
36.42

>  <JGI1>
0.2

>  <JGI2>
0.07

>  <JGI3>
0.05

>  <JGI4>
0.05

>  <JGI5>
0.01

>  <Diameter>
8

>  <Radius>
4

>  <TMWC10>
97.23

>  <TSRW10>
58.4

>  <MW>
209.07

>  <AMW>
8.04

>  <WPath>
313

>  <WPol>
16

>  <Zagreb1>
70

>  <Zagreb2>
79

>  <mZagreb2>
3.11

>  <yes>


>  <nAR-cont>
0.816016

>  <nHA-cont>
0.887625254

>  <MWHBN>
0.345799328

>  <MWHBN-cont>
0.685871933

>  <TPSA-cont>
0.745765785

>  <pka_cont>
0.97

>  <yes.1>


>  <BBB_SCORE>
4.708980723

>  <MMFF94 Energy>
-25.095

$$$$
Compound 157
Actelion Java MolfileCreator 2.0

  0  0  0  0  0  0              0 V3000
M  V30 BEGIN CTAB
M  V30 COUNTS 68 69 0 0 0
M  V30 BEGIN ATOM
M  V30 1 O 1.8096 0.7865 2.5972 0
M  V30 2 C 1.3589 1.5558 1.5526 0
M  V30 3 C 2.8039 -0.19 2.3265 0
M  V30 4 C 0.3831 2.5155 1.8729 0
M  V30 5 C 1.7972 1.4281 0.2265 0
M  V30 6 O -0.006 2.5688 3.1884 0
M  V30 7 C -0.1254 3.3335 0.863 0
M  V30 8 C 1.2791 2.2375 -0.8097 0
M  V30 9 C -0.9898 3.5305 3.5435 0
M  V30 10 C 0.3164 3.1976 -0.4585 0
M  V30 11 C 1.7526 2.0323 -2.2757 0 CFG=1
M  V30 12 C 1.0425 2.9108 -3.2518 0
M  V30 13 C 3.307 2.336 -2.3638 0
M  V30 14 C 1.4667 0.548 -2.705 0
M  V30 15 N 0.4968 3.587 -4.0228 0
M  V30 16 C 3.932 2.0372 -3.7375 0
M  V30 17 C 3.6648 3.7817 -1.9699 0
M  V30 18 C 0.001 0.1 -2.5472 0
M  V30 19 C -0.1548 -1.4036 -2.7929 0
M  V30 20 N -1.5241 -1.7768 -2.4585 0
M  V30 21 C -1.7298 -3.216 -2.289 0
M  V30 22 C -1.0808 -3.8311 -1.033 0
M  V30 23 C -1.5205 -3.1994 0.269 0
M  V30 24 C -2.6786 -3.6403 0.9266 0
M  V30 25 C -0.7862 -2.148 0.8267 0
M  V30 26 C -3.0947 -3.0447 2.1264 0
M  V30 27 C -1.1936 -1.5452 2.0181 0
M  V30 28 O -4.2117 -3.4211 2.8328 0
M  V30 29 C -2.3452 -1.9849 2.6758 0
M  V30 30 C -5.0171 -4.4557 2.2891 0
M  V30 31 O -2.8138 -1.4508 3.8522 0
M  V30 32 C -2.1422 -0.3039 4.3571 0
M  V30 33 H 2.433 -0.9485 1.6295 0
M  V30 34 H 3.0431 -0.6938 3.268 0
M  V30 35 H 3.7231 0.2744 1.9549 0
M  V30 36 H 2.5439 0.6811 -0.0205 0
M  V30 37 H -0.879 4.0882 1.0647 0
M  V30 38 H -0.6327 4.5488 3.3578 0
M  V30 39 H -1.1776 3.4351 4.6173 0
M  V30 40 H -1.9346 3.3396 3.0238 0
M  V30 41 H -0.1285 3.8603 -1.1994 0
M  V30 42 H 3.8286 1.6827 -1.6514 0
M  V30 43 H 2.1099 -0.1305 -2.1302 0
M  V30 44 H 1.7359 0.4015 -3.7592 0
M  V30 45 H 3.8552 0.9763 -3.9918 0
M  V30 46 H 3.4643 2.621 -4.5363 0
M  V30 47 H 5.0004 2.2818 -3.7337 0
M  V30 48 H 4.7513 3.924 -1.9859 0
M  V30 49 H 3.228 4.511 -2.6597 0
M  V30 50 H 3.3279 4.0223 -0.9573 0
M  V30 51 H -0.3557 0.3239 -1.5356 0
M  V30 52 H -0.6385 0.6567 -3.2429 0
M  V30 53 H 0.568 -1.9354 -2.167 0
M  V30 54 H 0.0651 -1.6479 -3.8381 0
M  V30 55 H -2.1633 -1.4156 -3.1663 0
M  V30 56 H -2.8122 -3.3858 -2.2303 0
M  V30 57 H -1.3821 -3.751 -3.1809 0
M  V30 58 H -1.3256 -4.9011 -1.0025 0
M  V30 59 H 0.0128 -3.7944 -1.1047 0
M  V30 60 H -3.2429 -4.4521 0.4807 0
M  V30 61 H 0.1045 -1.7754 0.3285 0
M  V30 62 H -0.5909 -0.7298 2.4041 0
M  V30 63 H -5.4214 -4.1712 1.312 0
M  V30 64 H -5.8636 -4.611 2.9651 0
M  V30 65 H -4.4629 -5.3982 2.2304 0
M  V30 66 H -1.1121 -0.542 4.6416 0
M  V30 67 H -2.6683 0.0199 5.2604 0
M  V30 68 H -2.1772 0.5224 3.6397 0
M  V30 END ATOM
M  V30 BEGIN BOND
M  V30 1 1 1 2
M  V30 2 1 1 3
M  V30 3 2 2 4
M  V30 4 1 2 5
M  V30 5 1 4 6
M  V30 6 1 4 7
M  V30 7 2 5 8
M  V30 8 1 6 9
M  V30 9 2 7 10
M  V30 10 1 8 11
M  V30 11 1 11 12
M  V30 12 1 11 13
M  V30 13 1 11 14
M  V30 14 3 12 15
M  V30 15 1 13 16
M  V30 16 1 13 17
M  V30 17 1 14 18
M  V30 18 1 18 19
M  V30 19 1 19 20
M  V30 20 1 20 21
M  V30 21 1 21 22
M  V30 22 1 22 23
M  V30 23 2 23 24
M  V30 24 1 23 25
M  V30 25 1 24 26
M  V30 26 2 25 27
M  V30 27 1 26 28
M  V30 28 2 26 29
M  V30 29 1 28 30
M  V30 30 1 29 31
M  V30 31 1 31 32
M  V30 32 1 8 10
M  V30 33 1 27 29
M  V30 34 1 3 33
M  V30 35 1 3 34
M  V30 36 1 3 35
M  V30 37 1 5 36
M  V30 38 1 7 37
M  V30 39 1 9 38
M  V30 40 1 9 39
M  V30 41 1 9 40
M  V30 42 1 10 41
M  V30 43 1 13 42
M  V30 44 1 14 43
M  V30 45 1 14 44
M  V30 46 1 16 45
M  V30 47 1 16 46
M  V30 48 1 16 47
M  V30 49 1 17 48
M  V30 50 1 17 49
M  V30 51 1 17 50
M  V30 52 1 18 51
M  V30 53 1 18 52
M  V30 54 1 19 53
M  V30 55 1 19 54
M  V30 56 1 20 55
M  V30 57 1 21 56
M  V30 58 1 21 57
M  V30 59 1 22 58
M  V30 60 1 22 59
M  V30 61 1 24 60
M  V30 62 1 25 61
M  V30 63 1 27 62
M  V30 64 1 30 63
M  V30 65 1 30 64
M  V30 66 1 30 65
M  V30 67 1 32 66
M  V30 68 1 32 67
M  V30 69 1 32 68
M  V30 END BOND
M  V30 BEGIN COLLECTION
M  V30 MDLV30/STERAC1 ATOMS=(1 11)
M  V30 END COLLECTION
M  V30 END CTAB
M  END
>  <Column 1>
207

>  <level_0>
238

>  <index>
238

>  <Unnamed: 0>
238

>  <NO.>
239

>  <Name>
norverapamil

>  <IUPAC_name>
2-(3-4-dimethoxyphenyl)-5-[2-(3-4-dimethoxyphenyl)ethylamino]-2-propan-2-ylpentanenitrile

>  <SMILES>
COc1ccc(CCNCCCC(C#N)(c2ccc(OC)c(OC)c2)C(C)C)cc1OC

>  <CID>
104972

>  <logBB>
-0.64

>  <BBB+/BBB->
BBB+

>  <Inchi>
InChI=1S/C26H36N2O4/c1-19(2)26(18-27-21-9-11-23(30-4)25(17-21)32-6)13-7-14-28-15-12-20-8-10-22(29-3)24(16-20)31-5/h8-11-16-17-19-28H-7-12-15H2-1-6H3

>  <threshold>


>  <reference>
R12|R21|R25|R27|R43|R46|R47|R2|R2|R8|R40|

>  <group>
A

>  <Class>
1

>  <ABC>
23.35

>  <ABCGG>
19.04

>  <nAcid>
0

>  <nBase>
1

>  <nAromAtom>
12

>  <nAromBond>
12

>  <nAtom>
68

>  <nHeavyAtom>
32

>  <nSpiro>
0

>  <nBridgehead>
0

>  <nHetero>
6

>  <nN>
2

>  <nO>
4

>  <nF>
0

>  <BalabanJ>
1.77

>  <BertzCT>
907.19

>  <nBonds>
69

>  <nBondsO>
33

>  <nBondsS>
56

>  <nBondsD>
0

>  <nBondsT>
1

>  <nBondsA>
12

>  <nBondsM>
13

>  <nBondsKS>
62

>  <nBondsKD>
6

>  <RNCG>
0.17

>  <RPCG>
0.05

>  <FCSP3>
0.5

>  <SZ>
39.67

>  <Sm>
36.68

>  <Sv>
40.13

>  <Sse>
67.63

>  <Sp>
43.61

>  <Si>
76.89

>  <MZ>
0.58

>  <Mm>
0.54

>  <Mv>
0.59

>  <Mse>
0.99

>  <Mp>
0.64

>  <Mi>
1.13

>  <NsCH3>
6

>  <NdCH2>
0

>  <NssCH2>
5

>  <NtCH>
0

>  <NdsCH>
0

>  <NaaCH>
6

>  <NsssCH>
1

>  <NddC>
0

>  <NtsC>
1

>  <NdssC>
0

>  <NaasC>
6

>  <NaaaC>
0

>  <NssssC>
1

>  <NsNH3>
0

>  <NsNH2>
0

>  <NssNH2>
0

>  <NdNH>
0

>  <NssNH>
1

>  <NaaNH>
0

>  <NtN>
1

>  <NsssNH>
0

>  <NdsN>
0

>  <NaaN>
0

>  <NsssN>
0

>  <NddsN>
0

>  <NaasN>
0

>  <NssssN>
0

>  <NsOH>
0

>  <NdO>
0

>  <NssO>
4

>  <NaaO>
0

>  <NsF>
0

>  <NsSiH3>
0

>  <NssSiH2>
0

>  <NsssSiH>
0

>  <NssssSi>
0

>  <NsPH2>
0

>  <NssPH>
0

>  <NsssP>
0

>  <NdsssP>
0

>  <NsssssP>
0

>  <NsSH>
0

>  <NdS>
0

>  <NssS>
0

>  <NaaS>
0

>  <NdssS>
0

>  <NddssS>
0

>  <NsCl>
0

>  <NsBr>
0

>  <NsI>
0

>  <fragCpx>
97.06

>  <fMF>
0.28

>  <nHBAcc>
6

>  <nHBDon>
1

>  <Kier1>
28.24

>  <Kier2>
14.41

>  <Lipinski>
1

>  <GhoseFilter>
1

>  <FilterItLogS>
-7.43

>  <VMcGowan>
364.52

>  <LabuteASA>
191.99

>  <PEOE_VSA1>
24.26

>  <PEOE_VSA2>
0

>  <PEOE_VSA3>
0

>  <PEOE_VSA4>
5.26

>  <PEOE_VSA5>
0

>  <PEOE_VSA6>
25.98

>  <PEOE_VSA7>
73.66

>  <PEOE_VSA8>
0

>  <PEOE_VSA9>
39.92

>  <PEOE_VSA10>
0

>  <PEOE_VSA11>
23

>  <PEOE_VSA12>
0

>  <PEOE_VSA13>
0

>  <SMR_VSA1>
18.95

>  <SMR_VSA2>
5.26

>  <SMR_VSA3>
5.32

>  <SMR_VSA4>
5.92

>  <SMR_VSA5>
38.52

>  <SMR_VSA6>
41.53

>  <SMR_VSA7>
47.53

>  <SMR_VSA8>
0

>  <SMR_VSA9>
29.07

>  <SlogP_VSA1>
24.26

>  <SlogP_VSA2>
41.53

>  <SlogP_VSA3>
11.84

>  <SlogP_VSA4>
17.25

>  <SlogP_VSA5>
37.82

>  <SlogP_VSA6>
36.4

>  <SlogP_VSA7>
0

>  <SlogP_VSA8>
0

>  <SlogP_VSA9>
0

>  <SlogP_VSA10>
0

>  <SlogP_VSA11>
23

>  <EState_VSA1>
5.41

>  <EState_VSA2>
5.92

>  <EState_VSA3>
11.5

>  <EState_VSA4>
49.41

>  <EState_VSA5>
5.56

>  <EState_VSA6>
28.44

>  <EState_VSA7>
30.33

>  <EState_VSA8>
31.3

>  <EState_VSA9>
18.95

>  <EState_VSA10>
5.26

>  <VSA_EState1>
21.48

>  <VSA_EState2>
0

>  <VSA_EState3>
13.67

>  <VSA_EState4>
1.58

>  <VSA_EState5>
2.97

>  <VSA_EState6>
14.41

>  <VSA_EState7>
2.55

>  <VSA_EState8>
5.9

>  <VSA_EState9>
6.52

>  <apol>
72.83

>  <bpol>
44.2

>  <nRing>
2

>  <nHRing>
0

>  <naRing>
2

>  <naHRing>
0

>  <nARing 2>
0

>  <nAHRing 2>
0

>  <nFRing>
0

>  <nFHRing>
0

>  <nFaRing>
0

>  <nFaHRing>
0

>  <nFARing 2>
0

>  <nFAHRing 2>
0

>  <nRot>
13

>  <SLogP>
4.75

>  <SMR>
127.03

>  <TopoPSA(NO)>
72.74

>  <TopoPSA>
72.74

>  <JGI1>
0.21

>  <JGI2>
0.1

>  <JGI3>
0.05

>  <JGI4>
0.04

>  <JGI5>
0.03

>  <Diameter>
18

>  <Radius>
9

>  <TMWC10>
141.52

>  <TSRW10>
67.63

>  <MW>
440.27

>  <AMW>
6.47

>  <WPath>
3495

>  <WPol>
53

>  <Zagreb1>
154

>  <Zagreb2>
180

>  <mZagreb2>
7.72

>  <yes>


>  <nAR-cont>
0.336376

>  <nHA-cont>
0.658856097

>  <MWHBN>
0.333609564

>  <MWHBN-cont>
0.730102746

>  <TPSA-cont>
0.492229631

>  <pka_cont>
0.97

>  <yes.1>


>  <BBB_SCORE>
3.559845478

>  <MMFF94 Energy>
131.31

$$$$
Compound 158
Actelion Java MolfileCreator 2.0

  0  0  0  0  0  0              0 V3000
M  V30 BEGIN CTAB
M  V30 COUNTS 64 68 0 0 0
M  V30 BEGIN ATOM
M  V30 1 Cl 1.8655 -4.628 -3.7336 0
M  V30 2 C 0.3 -5.2391 -3.3196 0
M  V30 3 C -0.1379 -5.3998 -1.9877 0
M  V30 4 C -0.5211 -5.5938 -4.3986 0
M  V30 5 C -1.4235 -5.955 -1.7933 0
M  V30 6 C 0.7209 -5.0327 -0.7662 0 CFG=1
M  V30 7 C -1.7858 -6.1225 -4.1693 0
M  V30 8 C -2.2403 -6.3086 -2.8707 0
M  V30 9 O 1.2823 -3.7241 -0.9669 0
M  V30 10 O -0.1159 -4.9967 0.4151 0
M  V30 11 C 1.8138 -6.1063 -0.5591 0
M  V30 12 Cl -2.7877 -6.5565 -5.4975 0
M  V30 13 C 0.9273 -2.9575 0.1876 0
M  V30 14 C -0.3422 -3.6081 0.6713 0
M  V30 15 N 2.6951 -5.8331 0.5623 0
M  V30 16 C 0.7656 -1.4839 -0.1604 0
M  V30 17 C 2.4434 -6.1309 1.871 0
M  V30 18 C 3.9407 -5.2734 0.4961 0
M  V30 19 O 0.3353 -0.7779 1.0011 0
M  V30 20 N 3.4447 -5.7745 2.6434 0
M  V30 21 C 4.3831 -5.2415 1.7978 0
M  V30 22 C 0.1261 0.5652 0.8694 0
M  V30 23 C 0.3069 1.3185 -0.284 0
M  V30 24 C -0.3088 1.2077 2.0244 0
M  V30 25 C 0.0492 2.6991 -0.274 0
M  V30 26 C -0.5615 2.5862 2.0251 0
M  V30 27 C -0.3913 3.3723 0.8763 0
M  V30 28 N -0.6431 4.7347 0.8788 0
M  V30 29 C -0.6075 5.5102 2.1329 0
M  V30 30 C -0.9031 5.4734 -0.3662 0
M  V30 31 C -0.3147 6.9992 1.8763 0
M  V30 32 C -1.7755 6.7192 -0.1173 0
M  V30 33 N -1.2483 7.6058 0.9246 0
M  V30 34 C -1.582 8.9407 1.0654 0
M  V30 35 O -1.0816 9.6633 1.9269 0
M  V30 36 C -2.5983 9.4976 0.1005 0
M  V30 37 H -0.1702 -5.4602 -5.4192 0
M  V30 38 H -1.8109 -6.1193 -0.7876 0
M  V30 39 H -3.2266 -6.7275 -2.6851 0
M  V30 40 H 1.3614 -7.0872 -0.3646 0
M  V30 41 H 2.46 -6.2093 -1.4368 0
M  V30 42 H 1.7161 -3.0814 0.9388 0
M  V30 43 H -0.5362 -3.4457 1.7349 0
M  V30 44 H -1.2202 -3.2949 0.0956 0
M  V30 45 H 0.0337 -1.3784 -0.9718 0
M  V30 46 H 1.7296 -1.0967 -0.5135 0
M  V30 47 H 1.5234 -6.5937 2.2052 0
M  V30 48 H 4.3904 -4.9478 -0.4315 0
M  V30 49 H 5.3264 -4.8644 2.1708 0
M  V30 50 H 0.6542 0.8764 -1.2115 0
M  V30 51 H -0.4578 0.6375 2.9379 0
M  V30 52 H 0.2306 3.2455 -1.1954 0
M  V30 53 H -0.9185 3.0281 2.9511 0
M  V30 54 H -1.5748 5.4096 2.6401 0
M  V30 55 H 0.1739 5.1313 2.8025 0
M  V30 56 H -1.4329 4.8466 -1.0933 0
M  V30 57 H 0.0541 5.775 -0.8082 0
M  V30 58 H -0.3288 7.5469 2.8247 0
M  V30 59 H 0.6878 7.1139 1.4465 0
M  V30 60 H -1.894 7.2759 -1.0518 0
M  V30 61 H -2.7747 6.4106 0.2137 0
M  V30 62 H -2.155 9.5861 -0.8945 0
M  V30 63 H -3.4849 8.8594 0.0628 0
M  V30 64 H -2.9092 10.4921 0.4343 0
M  V30 END ATOM
M  V30 BEGIN BOND
M  V30 1 1 1 2
M  V30 2 2 2 3
M  V30 3 1 2 4
M  V30 4 1 3 5
M  V30 5 1 3 6
M  V30 6 2 4 7
M  V30 7 2 5 8
M  V30 8 1 6 9
M  V30 9 1 6 10
M  V30 10 1 6 11
M  V30 11 1 7 12
M  V30 12 1 9 13
M  V30 13 1 10 14
M  V30 14 1 11 15
M  V30 15 1 13 16
M  V30 16 1 15 17
M  V30 17 1 15 18
M  V30 18 1 16 19
M  V30 19 2 17 20
M  V30 20 2 18 21
M  V30 21 1 19 22
M  V30 22 2 22 23
M  V30 23 1 22 24
M  V30 24 1 23 25
M  V30 25 2 24 26
M  V30 26 2 25 27
M  V30 27 1 27 28
M  V30 28 1 28 29
M  V30 29 1 28 30
M  V30 30 1 29 31
M  V30 31 1 30 32
M  V30 32 1 31 33
M  V30 33 1 33 34
M  V30 34 2 34 35
M  V30 35 1 34 36
M  V30 36 1 7 8
M  V30 37 1 13 14
M  V30 38 1 20 21
M  V30 39 1 26 27
M  V30 40 1 32 33
M  V30 41 1 4 37
M  V30 42 1 5 38
M  V30 43 1 8 39
M  V30 44 1 11 40
M  V30 45 1 11 41
M  V30 46 1 13 42
M  V30 47 1 14 43
M  V30 48 1 14 44
M  V30 49 1 16 45
M  V30 50 1 16 46
M  V30 51 1 17 47
M  V30 52 1 18 48
M  V30 53 1 21 49
M  V30 54 1 23 50
M  V30 55 1 24 51
M  V30 56 1 25 52
M  V30 57 1 26 53
M  V30 58 1 29 54
M  V30 59 1 29 55
M  V30 60 1 30 56
M  V30 61 1 30 57
M  V30 62 1 31 58
M  V30 63 1 31 59
M  V30 64 1 32 60
M  V30 65 1 32 61
M  V30 66 1 36 62
M  V30 67 1 36 63
M  V30 68 1 36 64
M  V30 END BOND
M  V30 BEGIN COLLECTION
M  V30 MDLV30/STEABS ATOMS=(1 6)
M  V30 END COLLECTION
M  V30 END CTAB
M  END
>  <Column 1>
208

>  <level_0>
239

>  <index>
239

>  <Unnamed: 0>
239

>  <NO.>
240

>  <Name>
ketoconazole

>  <IUPAC_name>
1-[4-[4-[[(2s)-2-(2-4-dichlorophenyl)-2-(imidazol-1-ylmethyl)-1-3-dioxolan-4-yl]methoxy]phenyl]piperazin-1-yl]ethanone

>  <SMILES>
CC(=O)N1CCN(c2ccc(OCC3CO[C@@](Cn4ccnc4)(c4ccc(Cl)cc4Cl)O3)cc2)CC1

>  <CID>
16757695

>  <logBB>
-0.63

>  <BBB+/BBB->
BBB+

>  <Inchi>
InChI=1S/C26H28Cl2N4O4/c1-19(33)31-10-12-32(13-11-31)21-3-5-22(6-4-21)34-15-23-16-35-26(36-23-17-30-9-8-29-18-30)24-7-2-20(27)14-25(24)28/h2-9-14-18-23H-10-13-15-17H2-1H3/t23?-26-/m1/s1

>  <threshold>


>  <reference>
R2|R2|R25|

>  <group>
A

>  <Class>
1

>  <ABC>
28.54

>  <ABCGG>
20.78

>  <nAcid>
0

>  <nBase>
0

>  <nAromAtom>
17

>  <nAromBond>
17

>  <nAtom>
64

>  <nHeavyAtom>
36

>  <nSpiro>
0

>  <nBridgehead>
0

>  <nHetero>
10

>  <nN>
4

>  <nO>
4

>  <nF>
0

>  <BalabanJ>
1.09

>  <BertzCT>
1183.16

>  <nBonds>
68

>  <nBondsO>
40

>  <nBondsS>
50

>  <nBondsD>
1

>  <nBondsT>
0

>  <nBondsA>
17

>  <nBondsM>
18

>  <nBondsKS>
59

>  <nBondsKD>
9

>  <RNCG>
0.16

>  <RPCG>
0.07

>  <FCSP3>
0.38

>  <SZ>
46.33

>  <Sm>
44.25

>  <Sv>
41.66

>  <Sse>
64.94

>  <Sp>
44.35

>  <Si>
72.12

>  <MZ>
0.72

>  <Mm>
0.69

>  <Mv>
0.65

>  <Mse>
1.01

>  <Mp>
0.69

>  <Mi>
1.13

>  <NsCH3>
1

>  <NdCH2>
0

>  <NssCH2>
7

>  <NtCH>
0

>  <NdsCH>
0

>  <NaaCH>
10

>  <NsssCH>
1

>  <NddC>
0

>  <NtsC>
0

>  <NdssC>
1

>  <NaasC>
5

>  <NaaaC>
0

>  <NssssC>
1

>  <NsNH3>
0

>  <NsNH2>
0

>  <NssNH2>
0

>  <NdNH>
0

>  <NssNH>
0

>  <NaaNH>
0

>  <NtN>
0

>  <NsssNH>
0

>  <NdsN>
0

>  <NaaN>
1

>  <NsssN>
2

>  <NddsN>
0

>  <NaasN>
1

>  <NssssN>
0

>  <NsOH>
0

>  <NdO>
1

>  <NssO>
3

>  <NaaO>
0

>  <NsF>
0

>  <NsSiH3>
0

>  <NssSiH2>
0

>  <NsssSiH>
0

>  <NssssSi>
0

>  <NsPH2>
0

>  <NssPH>
0

>  <NsssP>
0

>  <NdsssP>
0

>  <NsssssP>
0

>  <NsSH>
0

>  <NdS>
0

>  <NssS>
0

>  <NaaS>
0

>  <NdssS>
0

>  <NddssS>
0

>  <NsCl>
2

>  <NsBr>
0

>  <NsI>
0

>  <fragCpx>
340.1

>  <fMF>
0.48

>  <nHBAcc>
7

>  <nHBDon>
0

>  <Kier1>
27.56

>  <Kier2>
12.45

>  <Lipinski>
0

>  <GhoseFilter>
0

>  <FilterItLogS>
-5.68

>  <VMcGowan>
372.08

>  <LabuteASA>
219.82

>  <PEOE_VSA1>
28.58

>  <PEOE_VSA2>
4.79

>  <PEOE_VSA3>
4.98

>  <PEOE_VSA4>
0

>  <PEOE_VSA5>
0

>  <PEOE_VSA6>
29.27

>  <PEOE_VSA7>
36.4

>  <PEOE_VSA8>
61.77

>  <PEOE_VSA9>
24.5

>  <PEOE_VSA10>
18.46

>  <PEOE_VSA11>
0

>  <PEOE_VSA12>
11.69

>  <PEOE_VSA13>
0

>  <SMR_VSA1>
19.01

>  <SMR_VSA2>
0

>  <SMR_VSA3>
14.45

>  <SMR_VSA4>
0

>  <SMR_VSA5>
25.36

>  <SMR_VSA6>
44.29

>  <SMR_VSA7>
76.79

>  <SMR_VSA8>
0

>  <SMR_VSA9>
5.75

>  <SlogP_VSA1>
9.64

>  <SlogP_VSA2>
65.85

>  <SlogP_VSA3>
26.6

>  <SlogP_VSA4>
0

>  <SlogP_VSA5>
12.49

>  <SlogP_VSA6>
61.19

>  <SlogP_VSA7>
10.05

>  <SlogP_VSA8>
0

>  <SlogP_VSA9>
0

>  <SlogP_VSA10>
5.69

>  <SlogP_VSA11>
5.75

>  <EState_VSA1>
5.79

>  <EState_VSA2>
12.01

>  <EState_VSA3>
35.37

>  <EState_VSA4>
37.62

>  <EState_VSA5>
0

>  <EState_VSA6>
31.58

>  <EState_VSA7>
46

>  <EState_VSA8>
9.88

>  <EState_VSA9>
37.41

>  <EState_VSA10>
4.79

>  <VSA_EState1>
20.6

>  <VSA_EState2>
19.83

>  <VSA_EState3>
1.02

>  <VSA_EState4>
1.82

>  <VSA_EState5>
-0.2

>  <VSA_EState6>
13.29

>  <VSA_EState7>
4.98

>  <VSA_EState8>
5.8

>  <VSA_EState9>
0

>  <apol>
74.06

>  <bpol>
41.46

>  <nRing>
5

>  <nHRing>
3

>  <naRing>
3

>  <naHRing>
1

>  <nARing 2>
2

>  <nAHRing 2>
2

>  <nFRing>
0

>  <nFHRing>
0

>  <nFaRing>
0

>  <nFaHRing>
0

>  <nFARing 2>
0

>  <nFAHRing 2>
0

>  <nRot>
7

>  <SLogP>
4.21

>  <SMR>
137.6

>  <TopoPSA(NO)>
69.06

>  <TopoPSA>
69.06

>  <JGI1>
0.21

>  <JGI2>
0.08

>  <JGI3>
0.05

>  <JGI4>
0.03

>  <JGI5>
0.03

>  <Diameter>
19

>  <Radius>
10

>  <TMWC10>
155.18

>  <TSRW10>
88.39

>  <MW>
530.15

>  <AMW>
8.28

>  <WPath>
4692

>  <WPol>
56

>  <Zagreb1>
194

>  <Zagreb2>
229

>  <mZagreb2>
7.79

>  <yes>


>  <nAR-cont>
1

>  <nHA-cont>
0.477843619

>  <MWHBN>
0.304017552

>  <MWHBN-cont>
0.828571605

>  <TPSA-cont>
0.517918316

>  <pka_cont>
0.97

>  <yes.1>


>  <BBB_SCORE>
4.241537659

>  <MMFF94 Energy>
116.06

$$$$
Compound 159
Actelion Java MolfileCreator 2.0

  0  0  0  0  0  0              0 V3000
M  V30 BEGIN CTAB
M  V30 COUNTS 75 79 0 0 0
M  V30 BEGIN ATOM
M  V30 1 O -0.8776 -3.7539 2.3948 0
M  V30 2 C -0.9422 -2.8578 1.5514 0
M  V30 3 N 0.1496 -2.0701 1.1493 0
M  V30 4 C -2.2494 -2.5603 0.8847 0
M  V30 5 N 0.0247 -1.1145 0.0956 0
M  V30 6 C 1.4173 -2.2973 1.7517 0
M  V30 7 C -3.3225 -3.3273 1.1366 0
M  V30 8 C 0.2195 0.2823 0.5138 0
M  V30 9 C 0.8417 -1.4148 -1.0889 0
M  V30 10 C 1.8689 -1.4488 2.7699 0
M  V30 11 C 2.192 -3.3996 1.3437 0
M  V30 12 C -4.6495 -3.1029 0.5484 0
M  V30 13 C -0.103 1.258 -0.6406 0
M  V30 14 C 0.5125 -0.4422 -2.2414 0
M  V30 15 C 3.1054 -1.7008 3.3377 0
M  V30 16 C 3.433 -3.6511 1.9311 0
M  V30 17 C -5.7854 -3.3859 1.3193 0
M  V30 18 C -4.8201 -2.6667 -0.7725 0
M  V30 19 N 0.6836 0.9763 -1.8606 0
M  V30 20 N 3.7693 -0.9998 4.362 0
M  V30 21 C 3.8726 -2.7933 2.9278 0
M  V30 22 C -7.0694 -3.2099 0.7883 0
M  V30 23 C -6.0994 -2.4904 -1.3054 0
M  V30 24 C 0.3103 1.8518 -2.9838 0
M  V30 25 C 3.3471 0.1862 4.9341 0
M  V30 26 C 4.9805 -1.7554 4.7241 0
M  V30 27 C 5.1648 -2.8594 3.6756 0
M  V30 28 C -8.2237 -3.4936 1.5895 0
M  V30 29 C -7.2235 -2.7587 -0.5255 0
M  V30 30 C 0.7114 3.3166 -2.756 0
M  V30 31 O 2.3582 0.8298 4.5843 0
M  V30 32 C 4.2086 0.7004 6.0626 0
M  V30 33 N -9.1615 -3.7224 2.2339 0
M  V30 34 C 0.497 4.1778 -4.004 0
M  V30 35 C -0.9635 4.3134 -4.4326 0
M  V30 36 C 0.9077 5.633 -3.7894 0
M  V30 37 C -1.0043 5.5766 -5.2903 0
M  V30 38 C 0.2653 6.361 -4.9621 0
M  V30 39 H -2.3053 -1.7059 0.2255 0
M  V30 40 H -3.2441 -4.1612 1.8329 0
M  V30 41 H 1.2517 0.4593 0.8396 0
M  V30 42 H -0.4417 0.5138 1.3574 0
M  V30 43 H 1.913 -1.3491 -0.8598 0
M  V30 44 H 0.6377 -2.4363 -1.4317 0
M  V30 45 H 1.2495 -0.6261 3.106 0
M  V30 46 H 1.8177 -4.0674 0.5722 0
M  V30 47 H 0.1119 2.2692 -0.2793 0
M  V30 48 H -1.1781 1.2084 -0.8602 0
M  V30 49 H 1.1774 -0.6768 -3.0815 0
M  V30 50 H -0.5169 -0.6243 -2.5792 0
M  V30 51 H 4.0294 -4.501 1.6159 0
M  V30 52 H -5.6713 -3.7381 2.344 0
M  V30 53 H -3.9592 -2.4699 -1.4076 0
M  V30 54 H -6.2174 -2.1494 -2.3313 0
M  V30 55 H -0.7654 1.7788 -3.1869 0
M  V30 56 H 0.8295 1.5055 -3.8868 0
M  V30 57 H 5.848 -1.0889 4.768 0
M  V30 58 H 4.8269 -2.181 5.7229 0
M  V30 59 H 5.3237 -3.8339 4.146 0
M  V30 60 H 6.002 -2.6293 3.009 0
M  V30 61 H -8.2161 -2.6195 -0.9499 0
M  V30 62 H 1.7707 3.3637 -2.4729 0
M  V30 63 H 0.1399 3.7422 -1.923 0
M  V30 64 H 4.3304 -0.0661 6.8321 0
M  V30 65 H 5.1852 1.0046 5.6774 0
M  V30 66 H 3.7286 1.5705 6.5207 0
M  V30 67 H 1.08 3.7633 -4.8377 0
M  V30 68 H -1.615 4.4417 -3.5593 0
M  V30 69 H -1.3181 3.4388 -4.9866 0
M  V30 70 H 1.9941 5.762 -3.7726 0
M  V30 71 H 0.5052 6.0192 -2.8448 0
M  V30 72 H -1.9045 6.1622 -5.0756 0
M  V30 73 H -1.0255 5.3237 -6.3561 0
M  V30 74 H 0.053 7.408 -4.7249 0
M  V30 75 H 0.9394 6.3487 -5.8267 0
M  V30 END ATOM
M  V30 BEGIN BOND
M  V30 1 2 1 2
M  V30 2 1 2 3
M  V30 3 1 2 4
M  V30 4 1 3 5
M  V30 5 1 3 6
M  V30 6 2 4 7
M  V30 7 1 5 8
M  V30 8 1 5 9
M  V30 9 2 6 10
M  V30 10 1 6 11
M  V30 11 1 7 12
M  V30 12 1 8 13
M  V30 13 1 9 14
M  V30 14 1 10 15
M  V30 15 2 11 16
M  V30 16 2 12 17
M  V30 17 1 12 18
M  V30 18 1 13 19
M  V30 19 1 15 20
M  V30 20 2 15 21
M  V30 21 1 17 22
M  V30 22 2 18 23
M  V30 23 1 19 24
M  V30 24 1 20 25
M  V30 25 1 20 26
M  V30 26 1 21 27
M  V30 27 1 22 28
M  V30 28 2 22 29
M  V30 29 1 24 30
M  V30 30 2 25 31
M  V30 31 1 25 32
M  V30 32 3 28 33
M  V30 33 1 30 34
M  V30 34 1 34 35
M  V30 35 1 34 36
M  V30 36 1 35 37
M  V30 37 1 36 38
M  V30 38 1 14 19
M  V30 39 1 16 21
M  V30 40 1 23 29
M  V30 41 1 26 27
M  V30 42 1 37 38
M  V30 43 1 4 39
M  V30 44 1 7 40
M  V30 45 1 8 41
M  V30 46 1 8 42
M  V30 47 1 9 43
M  V30 48 1 9 44
M  V30 49 1 10 45
M  V30 50 1 11 46
M  V30 51 1 13 47
M  V30 52 1 13 48
M  V30 53 1 14 49
M  V30 54 1 14 50
M  V30 55 1 16 51
M  V30 56 1 17 52
M  V30 57 1 18 53
M  V30 58 1 23 54
M  V30 59 1 24 55
M  V30 60 1 24 56
M  V30 61 1 26 57
M  V30 62 1 26 58
M  V30 63 1 27 59
M  V30 64 1 27 60
M  V30 65 1 29 61
M  V30 66 1 30 62
M  V30 67 1 30 63
M  V30 68 1 32 64
M  V30 69 1 32 65
M  V30 70 1 32 66
M  V30 71 1 34 67
M  V30 72 1 35 68
M  V30 73 1 35 69
M  V30 74 1 36 70
M  V30 75 1 36 71
M  V30 76 1 37 72
M  V30 77 1 37 73
M  V30 78 1 38 74
M  V30 79 1 38 75
M  V30 END BOND
M  V30 END CTAB
M  END
>  <Column 1>
209

>  <level_0>
240

>  <index>
240

>  <Unnamed: 0>
240

>  <NO.>
241

>  <Name>
jnj-5207787

>  <IUPAC_name>


>  <SMILES>
CC(=O)N1CCc2ccc(N(C(=O)/C=C/c3cccc(C#N)c3)N3CCN(CCC4CCCC4)CC3)cc21

>  <CID>


>  <logBB>
-0.63

>  <BBB+/BBB->
BBB+

>  <Inchi>
InChI=1S/C31H37N5O2/c1-24(37)35-16-14-28-10-11-29(22-30(28)35)36(31(38)12-9-26-7-4-8-27(21-26)23-32)34-19-17-33(18-20-34)15-13-25-5-2-3-6-25/h4-7-12-21-22-25H-2-3-5-6-13-20H2-1H3/b12-9+

>  <threshold>


>  <reference>
R18|R26|R27|

>  <group>
A

>  <Class>
1

>  <ABC>
29.78

>  <ABCGG>
22.39

>  <nAcid>
0

>  <nBase>
1

>  <nAromAtom>
12

>  <nAromBond>
12

>  <nAtom>
75

>  <nHeavyAtom>
38

>  <nSpiro>
0

>  <nBridgehead>
0

>  <nHetero>
7

>  <nN>
5

>  <nO>
2

>  <nF>
0

>  <BalabanJ>
1.2

>  <BertzCT>
1235.07

>  <nBonds>
79

>  <nBondsO>
42

>  <nBondsS>
63

>  <nBondsD>
3

>  <nBondsT>
1

>  <nBondsA>
12

>  <nBondsM>
16

>  <nBondsKS>
69

>  <nBondsKD>
9

>  <RNCG>
0.13

>  <RPCG>
0.11

>  <FCSP3>
0.45

>  <SZ>
45.67

>  <Sm>
42.6

>  <Sv>
46.24

>  <Sse>
74.4

>  <Sp>
50.03

>  <Si>
84.56

>  <MZ>
0.61

>  <Mm>
0.57

>  <Mv>
0.62

>  <Mse>
0.99

>  <Mp>
0.67

>  <Mi>
1.13

>  <NsCH3>
1

>  <NdCH2>
0

>  <NssCH2>
12

>  <NtCH>
0

>  <NdsCH>
2

>  <NaaCH>
7

>  <NsssCH>
1

>  <NddC>
0

>  <NtsC>
1

>  <NdssC>
2

>  <NaasC>
5

>  <NaaaC>
0

>  <NssssC>
0

>  <NsNH3>
0

>  <NsNH2>
0

>  <NssNH2>
0

>  <NdNH>
0

>  <NssNH>
0

>  <NaaNH>
0

>  <NtN>
1

>  <NsssNH>
0

>  <NdsN>
0

>  <NaaN>
0

>  <NsssN>
4

>  <NddsN>
0

>  <NaasN>
0

>  <NssssN>
0

>  <NsOH>
0

>  <NdO>
2

>  <NssO>
0

>  <NaaO>
0

>  <NsF>
0

>  <NsSiH3>
0

>  <NssSiH2>
0

>  <NsssSiH>
0

>  <NssssSi>
0

>  <NsPH2>
0

>  <NssPH>
0

>  <NsssP>
0

>  <NdsssP>
0

>  <NsssssP>
0

>  <NsSH>
0

>  <NdS>
0

>  <NssS>
0

>  <NaaS>
0

>  <NdssS>
0

>  <NddssS>
0

>  <NsCl>
0

>  <NsBr>
0

>  <NsI>
0

>  <fragCpx>
358.07

>  <fMF>
0.43

>  <nHBAcc>
5

>  <nHBDon>
0

>  <Kier1>
29.49

>  <Kier2>
14.25

>  <Lipinski>
0

>  <GhoseFilter>
0

>  <FilterItLogS>
-5.1

>  <VMcGowan>
407.69

>  <LabuteASA>
225.44

>  <PEOE_VSA1>
9.8

>  <PEOE_VSA2>
9.59

>  <PEOE_VSA3>
10.02

>  <PEOE_VSA4>
5.26

>  <PEOE_VSA5>
0

>  <PEOE_VSA6>
43.88

>  <PEOE_VSA7>
66.77

>  <PEOE_VSA8>
51.41

>  <PEOE_VSA9>
17.32

>  <PEOE_VSA10>
0

>  <PEOE_VSA11>
0

>  <PEOE_VSA12>
5.91

>  <PEOE_VSA13>
5.91

>  <SMR_VSA1>
9.59

>  <SMR_VSA2>
5.26

>  <SMR_VSA3>
9.91

>  <SMR_VSA4>
5.92

>  <SMR_VSA5>
45.45

>  <SMR_VSA6>
49.18

>  <SMR_VSA7>
65.23

>  <SMR_VSA8>
0

>  <SMR_VSA9>
6.07

>  <SlogP_VSA1>
9.91

>  <SlogP_VSA2>
60.99

>  <SlogP_VSA3>
16.01

>  <SlogP_VSA4>
17.25

>  <SlogP_VSA5>
55.72

>  <SlogP_VSA6>
48.54

>  <SlogP_VSA7>
0

>  <SlogP_VSA8>
6.08

>  <SlogP_VSA9>
0

>  <SlogP_VSA10>
11.37

>  <SlogP_VSA11>
0

>  <EState_VSA1>
0

>  <EState_VSA2>
11.81

>  <EState_VSA3>
12.11

>  <EState_VSA4>
67.56

>  <EState_VSA5>
32.1

>  <EState_VSA6>
41.12

>  <EState_VSA7>
30.33

>  <EState_VSA8>
15.98

>  <EState_VSA9>
0

>  <EState_VSA10>
14.85

>  <VSA_EState1>
0

>  <VSA_EState2>
30.26

>  <VSA_EState3>
13.13

>  <VSA_EState4>
4.18

>  <VSA_EState5>
0.76

>  <VSA_EState6>
15.42

>  <VSA_EState7>
10.97

>  <VSA_EState8>
6.78

>  <VSA_EState9>
0

>  <apol>
83.55

>  <bpol>
45.12

>  <nRing>
5

>  <nHRing>
2

>  <naRing>
2

>  <naHRing>
0

>  <nARing 2>
3

>  <nAHRing 2>
2

>  <nFRing>
1

>  <nFHRing>
1

>  <nFaRing>
0

>  <nFaHRing>
0

>  <nFARing 2>
1

>  <nFAHRing 2>
1

>  <nRot>
7

>  <SLogP>
4.63

>  <SMR>
150.44

>  <TopoPSA(NO)>
70.89

>  <TopoPSA>
70.89

>  <JGI1>
0.17

>  <JGI2>
0.07

>  <JGI3>
0.04

>  <JGI4>
0.03

>  <JGI5>
0.02

>  <Diameter>
17

>  <Radius>
9

>  <TMWC10>
159.07

>  <TSRW10>
90.41

>  <MW>
511.29

>  <AMW>
6.82

>  <WPath>
5004

>  <WPol>
58

>  <Zagreb1>
200

>  <Zagreb2>
235

>  <mZagreb2>
8.42

>  <yes>


>  <nAR-cont>
0.691115

>  <nHA-cont>
0.390024847

>  <MWHBN>
0.221124241

>  <MWHBN-cont>
0.994227486

>  <TPSA-cont>
0.50514378

>  <pka_cont>
0.97

>  <yes.1>


>  <BBB_SCORE>
4.067768636

>  <MMFF94 Energy>
161.6

$$$$
Compound 160
Actelion Java MolfileCreator 2.0

  0  0  0  0  0  0              0 V3000
M  V30 BEGIN CTAB
M  V30 COUNTS 43 45 0 0 0
M  V30 BEGIN ATOM
M  V30 1 S 3.2227 -4.2719 -1.2881 0
M  V30 2 C 1.6837 -4.955 -0.9283 0
M  V30 3 C 3.733 -5.6607 -2.1385 0
M  V30 4 C 0.6826 -4.2036 -0.1437 0
M  V30 5 C 1.5868 -6.2287 -1.4675 0
M  V30 6 C 2.7635 -6.6346 -2.1624 0
M  V30 7 C 0.5754 -2.8044 -0.2148 0
M  V30 8 C -0.2697 -4.8953 0.6194 0
M  V30 9 C -0.414 -2.1147 0.499 0
M  V30 10 C -1.26 -4.2134 1.3346 0
M  V30 11 N -0.6168 -0.7229 0.3575 0
M  V30 12 C -1.3165 -2.8197 1.319 0
M  V30 13 C 0.3367 0.2164 0.0214 0
M  V30 14 N -2.3268 -2.1598 2.0257 0
M  V30 15 O 1.5224 -0.0015 -0.199 0
M  V30 16 C -0.1583 1.6184 -0.0893 0
M  V30 17 C 0.4557 2.4654 -1.0198 0
M  V30 18 C -1.1867 2.1144 0.7202 0
M  V30 19 C 0.0307 3.7886 -1.1599 0
M  V30 20 C -1.6109 3.4388 0.5787 0
M  V30 21 C -1.0078 4.2856 -0.3626 0
M  V30 22 C -1.4635 5.7163 -0.497 0
M  V30 23 C -1.1487 6.5481 0.7293 0
M  V30 24 O -2.0367 6.9199 1.4985 0
M  V30 25 C 0.2975 6.8872 0.9819 0
M  V30 26 H 4.7185 -5.6939 -2.5817 0
M  V30 27 H 0.7027 -6.8479 -1.3799 0
M  V30 28 H 2.8887 -7.5903 -2.6558 0
M  V30 29 H 1.2446 -2.2501 -0.8667 0
M  V30 30 H -0.2444 -5.9805 0.6833 0
M  V30 31 H -1.9739 -4.7868 1.9194 0
M  V30 32 H -1.5777 -0.4356 0.4877 0
M  V30 33 H -2.9164 -2.7153 2.6339 0
M  V30 34 H -2.1171 -1.2248 2.3508 0
M  V30 35 H 1.2685 2.0924 -1.6409 0
M  V30 36 H -1.6498 1.4999 1.4861 0
M  V30 37 H 0.5219 4.4232 -1.8947 0
M  V30 38 H -2.41 3.8134 1.2185 0
M  V30 39 H -1.0074 6.2019 -1.3675 0
M  V30 40 H -2.5465 5.7367 -0.6695 0
M  V30 41 H 0.3666 7.6063 1.8031 0
M  V30 42 H 0.8497 5.9848 1.2534 0
M  V30 43 H 0.7309 7.3408 0.0871 0
M  V30 END ATOM
M  V30 BEGIN BOND
M  V30 1 1 1 2
M  V30 2 1 1 3
M  V30 3 1 2 4
M  V30 4 2 2 5
M  V30 5 2 3 6
M  V30 6 2 4 7
M  V30 7 1 4 8
M  V30 8 1 7 9
M  V30 9 2 8 10
M  V30 10 1 9 11
M  V30 11 2 9 12
M  V30 12 1 11 13
M  V30 13 1 12 14
M  V30 14 2 13 15
M  V30 15 1 13 16
M  V30 16 2 16 17
M  V30 17 1 16 18
M  V30 18 1 17 19
M  V30 19 2 18 20
M  V30 20 2 19 21
M  V30 21 1 21 22
M  V30 22 1 22 23
M  V30 23 2 23 24
M  V30 24 1 23 25
M  V30 25 1 5 6
M  V30 26 1 10 12
M  V30 27 1 20 21
M  V30 28 1 3 26
M  V30 29 1 5 27
M  V30 30 1 6 28
M  V30 31 1 7 29
M  V30 32 1 8 30
M  V30 33 1 10 31
M  V30 34 1 11 32
M  V30 35 1 14 33
M  V30 36 1 14 34
M  V30 37 1 17 35
M  V30 38 1 18 36
M  V30 39 1 19 37
M  V30 40 1 20 38
M  V30 41 1 22 39
M  V30 42 1 22 40
M  V30 43 1 25 41
M  V30 44 1 25 42
M  V30 45 1 25 43
M  V30 END BOND
M  V30 END CTAB
M  END
>  <Column 1>
210

>  <level_0>
241

>  <index>
241

>  <Unnamed: 0>
241

>  <NO.>
242

>  <Name>


>  <IUPAC_name>


>  <SMILES>
CC(=O)Cc1ccc(C(=O)Nc2cc(-c3cccs3)ccc2N)cc1

>  <CID>


>  <logBB>
-0.62

>  <BBB+/BBB->
BBB+

>  <Inchi>
InChI=1S/C20H18N2O2S/c1-13(23)11-14-4-6-15(7-5-14)20(24)22-18-12-16(8-9-17(18)21)19-3-2-10-25-19/h2-10-12H-11-21H2-1H3-(H-22-24)

>  <threshold>


>  <reference>
R47|

>  <group>
A

>  <Class>
1

>  <ABC>
19.41

>  <ABCGG>
15.46

>  <nAcid>
0

>  <nBase>
0

>  <nAromAtom>
17

>  <nAromBond>
17

>  <nAtom>
43

>  <nHeavyAtom>
25

>  <nSpiro>
0

>  <nBridgehead>
0

>  <nHetero>
5

>  <nN>
2

>  <nO>
2

>  <nF>
0

>  <BalabanJ>
1.45

>  <BertzCT>
899.96

>  <nBonds>
45

>  <nBondsO>
27

>  <nBondsS>
26

>  <nBondsD>
2

>  <nBondsT>
0

>  <nBondsA>
17

>  <nBondsM>
19

>  <nBondsKS>
35

>  <nBondsKD>
10

>  <RNCG>
0.21

>  <RPCG>
0.13

>  <FCSP3>
0.1

>  <SZ>
30.67

>  <Sm>
29.18

>  <Sv>
29.01

>  <Sse>
43.05

>  <Sp>
31.2

>  <Si>
47.66

>  <MZ>
0.71

>  <Mm>
0.68

>  <Mv>
0.67

>  <Mse>
1

>  <Mp>
0.73

>  <Mi>
1.11

>  <NsCH3>
1

>  <NdCH2>
0

>  <NssCH2>
1

>  <NtCH>
0

>  <NdsCH>
0

>  <NaaCH>
10

>  <NsssCH>
0

>  <NddC>
0

>  <NtsC>
0

>  <NdssC>
2

>  <NaasC>
6

>  <NaaaC>
0

>  <NssssC>
0

>  <NsNH3>
0

>  <NsNH2>
1

>  <NssNH2>
0

>  <NdNH>
0

>  <NssNH>
1

>  <NaaNH>
0

>  <NtN>
0

>  <NsssNH>
0

>  <NdsN>
0

>  <NaaN>
0

>  <NsssN>
0

>  <NddsN>
0

>  <NaasN>
0

>  <NssssN>
0

>  <NsOH>
0

>  <NdO>
2

>  <NssO>
0

>  <NaaO>
0

>  <NsF>
0

>  <NsSiH3>
0

>  <NssSiH2>
0

>  <NsssSiH>
0

>  <NssssSi>
0

>  <NsPH2>
0

>  <NssPH>
0

>  <NsssP>
0

>  <NdsssP>
0

>  <NsssssP>
0

>  <NsSH>
0

>  <NdS>
0

>  <NssS>
0

>  <NaaS>
1

>  <NdssS>
0

>  <NddssS>
0

>  <NsCl>
0

>  <NsBr>
0

>  <NsI>
0

>  <fragCpx>
129.05

>  <fMF>
0.44

>  <nHBAcc>
4

>  <nHBDon>
2

>  <Kier1>
19.75

>  <Kier2>
9.27

>  <Lipinski>
1

>  <GhoseFilter>
1

>  <FilterItLogS>
-5.53

>  <VMcGowan>
265.13

>  <LabuteASA>
149.86

>  <PEOE_VSA1>
11.05

>  <PEOE_VSA2>
9.59

>  <PEOE_VSA3>
0

>  <PEOE_VSA4>
0

>  <PEOE_VSA5>
11.34

>  <PEOE_VSA6>
24.27

>  <PEOE_VSA7>
53.76

>  <PEOE_VSA8>
16.86

>  <PEOE_VSA9>
11.37

>  <PEOE_VSA10>
5.78

>  <PEOE_VSA11>
0

>  <PEOE_VSA12>
0

>  <PEOE_VSA13>
5.91

>  <SMR_VSA1>
9.59

>  <SMR_VSA2>
0

>  <SMR_VSA3>
0

>  <SMR_VSA4>
0

>  <SMR_VSA5>
13.34

>  <SMR_VSA6>
11.05

>  <SMR_VSA7>
71.1

>  <SMR_VSA8>
0

>  <SMR_VSA9>
10.44

>  <SlogP_VSA1>
11.05

>  <SlogP_VSA2>
11.69

>  <SlogP_VSA3>
11.22

>  <SlogP_VSA4>
0

>  <SlogP_VSA5>
22.85

>  <SlogP_VSA6>
59.98

>  <SlogP_VSA7>
0

>  <SlogP_VSA8>
10.44

>  <SlogP_VSA9>
0

>  <SlogP_VSA10>
11.37

>  <SlogP_VSA11>
0

>  <EState_VSA1>
0

>  <EState_VSA2>
11.69

>  <EState_VSA3>
23.36

>  <EState_VSA4>
16

>  <EState_VSA5>
0

>  <EState_VSA6>
48.59

>  <EState_VSA7>
29.65

>  <EState_VSA8>
5.32

>  <EState_VSA9>
5.73

>  <EState_VSA10>
9.59

>  <VSA_EState1>
0

>  <VSA_EState2>
24.73

>  <VSA_EState3>
4.87

>  <VSA_EState4>
9.53

>  <VSA_EState5>
-0.14

>  <VSA_EState6>
16.63

>  <VSA_EState7>
0.37

>  <VSA_EState8>
1.55

>  <VSA_EState9>
0

>  <apol>
52.11

>  <bpol>
22.25

>  <nRing>
3

>  <nHRing>
1

>  <naRing>
3

>  <naHRing>
1

>  <nARing 2>
0

>  <nAHRing 2>
0

>  <nFRing>
0

>  <nFHRing>
0

>  <nFaRing>
0

>  <nFaHRing>
0

>  <nFARing 2>
0

>  <nFAHRing 2>
0

>  <nRot>
5

>  <SLogP>
4.38

>  <SMR>
102.95

>  <TopoPSA(NO)>
72.19

>  <TopoPSA>
100.43

>  <JGI1>
0.2

>  <JGI2>
0.08

>  <JGI3>
0.03

>  <JGI4>
0.04

>  <JGI5>
0.03

>  <Diameter>
14

>  <Radius>
7

>  <TMWC10>
126.33

>  <TSRW10>
72.59

>  <MW>
350.11

>  <AMW>
8.14

>  <WPath>
1677

>  <WPol>
35

>  <Zagreb1>
128

>  <Zagreb2>
147

>  <mZagreb2>
5.5

>  <yes>


>  <nAR-cont>
0.336376

>  <nHA-cont>
0.921834225

>  <MWHBN>
0.320663104

>  <MWHBN-cont>
0.774935475

>  <TPSA-cont>
0.298936237

>  <pka_cont>
0.97

>  <yes.1>


>  <BBB_SCORE>
3.50348591

>  <MMFF94 Energy>
69.637

$$$$
Compound 161
Actelion Java MolfileCreator 2.0

  0  0  0  0  0  0              0 V3000
M  V30 BEGIN CTAB
M  V30 COUNTS 62 66 0 0 0
M  V30 BEGIN ATOM
M  V30 1 O -2.1637 1.1214 -1.6024 0
M  V30 2 C -1.3138 1.6579 -2.3112 0
M  V30 3 N -1.5343 1.6924 -3.6643 0
M  V30 4 C -0.0093 2.3701 -1.7692 0
M  V30 5 C 1.1702 2.1441 -2.7837 0
M  V30 6 C -0.306 3.902 -1.5493 0
M  V30 7 C 0.3795 1.7208 -0.3756 0 CFG=2
M  V30 8 C 1.4365 0.8551 -3.2961 0
M  V30 9 C 1.9953 3.1881 -3.243 0
M  V30 10 C 0.5177 4.6879 -0.7106 0
M  V30 11 C -1.3747 4.563 -2.185 0
M  V30 12 C 0.5285 0.1941 -0.3201 0
M  V30 13 C -0.5804 2.0219 0.7983 0
M  V30 14 C 2.4769 0.6214 -4.2004 0
M  V30 15 C 3.0369 2.9547 -4.1486 0
M  V30 16 C 0.2769 6.0503 -0.5092 0
M  V30 17 C -1.6151 5.9272 -1.9825 0
M  V30 18 N 0.3805 -0.0973 1.1125 0
M  V30 19 C -0.7804 0.6958 1.5209 0
M  V30 20 C 3.2798 1.6721 -4.6246 0
M  V30 21 C -0.7915 6.6698 -1.1444 0
M  V30 22 C 0.2124 -1.5367 1.3548 0
M  V30 23 C 0.1909 -1.8857 2.8514 0
M  V30 24 C 0.1028 -3.3792 3.0718 0
M  V30 25 C -1.1498 -4.0125 3.1222 0
M  V30 26 C 1.2815 -4.1453 3.2067 0
M  V30 27 C -1.1893 -5.3842 3.3006 0
M  V30 28 C 1.221 -5.5281 3.3972 0
M  V30 29 C -0.0231 -6.1199 3.4339 0
M  V30 30 C -2.3529 -6.2846 3.4538 0
M  V30 31 O -0.2362 -7.4614 3.6191 0
M  V30 32 C -1.6384 -7.6283 3.302 0
M  V30 33 H -0.8853 2.1202 -4.3133 0
M  V30 34 H -2.3709 1.2526 -4.0228 0
M  V30 35 H 1.3644 2.1173 -0.0843 0
M  V30 36 H 0.8237 0.0018 -3.0127 0
M  V30 37 H 1.8533 4.2157 -2.9198 0
M  V30 38 H 1.3784 4.2537 -0.2065 0
M  V30 39 H -2.0603 4.0414 -2.8464 0
M  V30 40 H 1.517 -0.1238 -0.6665 0
M  V30 41 H -0.235 -0.3268 -0.9067 0
M  V30 42 H -1.5444 2.4367 0.489 0
M  V30 43 H -0.1137 2.7494 1.4739 0
M  V30 44 H 2.6565 -0.3842 -4.5725 0
M  V30 45 H 3.6584 3.7832 -4.4801 0
M  V30 46 H 0.9286 6.6248 0.1443 0
M  V30 47 H -2.4541 6.407 -2.4807 0
M  V30 48 H -1.7218 0.2358 1.1945 0
M  V30 49 H -0.8231 0.8433 2.6045 0
M  V30 50 H 4.0906 1.4935 -5.3255 0
M  V30 51 H -0.9824 7.7279 -0.9875 0
M  V30 52 H 1.0549 -2.0675 0.8916 0
M  V30 53 H -0.6974 -1.9128 0.8676 0
M  V30 54 H 1.0924 -1.4982 3.3434 0
M  V30 55 H -0.6583 -1.4058 3.3533 0
M  V30 56 H -2.0686 -3.4407 3.0306 0
M  V30 57 H 2.2542 -3.6589 3.1665 0
M  V30 58 H 2.1221 -6.1199 3.5086 0
M  V30 59 H -2.7858 -6.1782 4.4537 0
M  V30 60 H -3.1251 -6.1453 2.6931 0
M  V30 61 H -2.07 -8.3899 3.9598 0
M  V30 62 H -1.7055 -7.9964 2.2701 0
M  V30 END ATOM
M  V30 BEGIN BOND
M  V30 1 2 1 2
M  V30 2 1 2 3
M  V30 3 1 2 4
M  V30 4 1 4 5
M  V30 5 1 4 6
M  V30 6 1 4 7
M  V30 7 2 5 8
M  V30 8 1 5 9
M  V30 9 2 6 10
M  V30 10 1 6 11
M  V30 11 1 7 12
M  V30 12 1 7 13
M  V30 13 1 8 14
M  V30 14 2 9 15
M  V30 15 1 10 16
M  V30 16 2 11 17
M  V30 17 1 12 18
M  V30 18 1 13 19
M  V30 19 2 14 20
M  V30 20 2 16 21
M  V30 21 1 18 22
M  V30 22 1 22 23
M  V30 23 1 23 24
M  V30 24 2 24 25
M  V30 25 1 24 26
M  V30 26 1 25 27
M  V30 27 2 26 28
M  V30 28 2 27 29
M  V30 29 1 27 30
M  V30 30 1 29 31
M  V30 31 1 30 32
M  V30 32 1 15 20
M  V30 33 1 17 21
M  V30 34 1 18 19
M  V30 35 1 28 29
M  V30 36 1 31 32
M  V30 37 1 3 33
M  V30 38 1 3 34
M  V30 39 1 7 35
M  V30 40 1 8 36
M  V30 41 1 9 37
M  V30 42 1 10 38
M  V30 43 1 11 39
M  V30 44 1 12 40
M  V30 45 1 12 41
M  V30 46 1 13 42
M  V30 47 1 13 43
M  V30 48 1 14 44
M  V30 49 1 15 45
M  V30 50 1 16 46
M  V30 51 1 17 47
M  V30 52 1 19 48
M  V30 53 1 19 49
M  V30 54 1 20 50
M  V30 55 1 21 51
M  V30 56 1 22 52
M  V30 57 1 22 53
M  V30 58 1 23 54
M  V30 59 1 23 55
M  V30 60 1 25 56
M  V30 61 1 26 57
M  V30 62 1 28 58
M  V30 63 1 30 59
M  V30 64 1 30 60
M  V30 65 1 32 61
M  V30 66 1 32 62
M  V30 END BOND
M  V30 BEGIN COLLECTION
M  V30 MDLV30/STERAC1 ATOMS=(1 7)
M  V30 END COLLECTION
M  V30 END CTAB
M  END
>  <Column 1>
211

>  <level_0>
242

>  <index>
242

>  <Unnamed: 0>
242

>  <NO.>
243

>  <Name>
darifenacin

>  <IUPAC_name>
2-[1-[2-(2-3-dihydro-1-benzofuran-5-yl)ethyl]pyrrolidin-3-yl]-2-2-diphenylacetamide

>  <SMILES>
NC(=O)C(c1ccccc1)(c1ccccc1)C1CCN(CCc2ccc3c(c2)CCO3)C1

>  <CID>
72054

>  <logBB>
-0.62

>  <BBB+/BBB->
BBB+

>  <Inchi>
InChI=1S/C28H30N2O2/c29-27(31)28(23-7-3-1-4-8-23-24-9-5-2-6-10-24)25-14-17-30(20-25)16-13-21-11-12-26-22(19-21)15-18-32-26/h1-12-19-25H-13-18-20H2-(H2-29-31)

>  <threshold>


>  <reference>
R2|R2|R25|R27|R43|R46|R47|R4|R40|

>  <group>
A

>  <Class>
1

>  <ABC>
25.39

>  <ABCGG>
20.02

>  <nAcid>
0

>  <nBase>
1

>  <nAromAtom>
18

>  <nAromBond>
18

>  <nAtom>
62

>  <nHeavyAtom>
32

>  <nSpiro>
0

>  <nBridgehead>
0

>  <nHetero>
4

>  <nN>
2

>  <nO>
2

>  <nF>
0

>  <BalabanJ>
1.24

>  <BertzCT>
1041.6

>  <nBonds>
66

>  <nBondsO>
36

>  <nBondsS>
47

>  <nBondsD>
1

>  <nBondsT>
0

>  <nBondsA>
18

>  <nBondsM>
19

>  <nBondsKS>
56

>  <nBondsKD>
10

>  <RNCG>
0.21

>  <RPCG>
0.1

>  <FCSP3>
0.32

>  <SZ>
38

>  <Sm>
35.51

>  <Sv>
39.07

>  <Sse>
61.31

>  <Sp>
42.26

>  <Si>
69.23

>  <MZ>
0.61

>  <Mm>
0.57

>  <Mv>
0.63

>  <Mse>
0.99

>  <Mp>
0.68

>  <Mi>
1.12

>  <NsCH3>
0

>  <NdCH2>
0

>  <NssCH2>
7

>  <NtCH>
0

>  <NdsCH>
0

>  <NaaCH>
13

>  <NsssCH>
1

>  <NddC>
0

>  <NtsC>
0

>  <NdssC>
1

>  <NaasC>
5

>  <NaaaC>
0

>  <NssssC>
1

>  <NsNH3>
0

>  <NsNH2>
1

>  <NssNH2>
0

>  <NdNH>
0

>  <NssNH>
0

>  <NaaNH>
0

>  <NtN>
0

>  <NsssNH>
0

>  <NdsN>
0

>  <NaaN>
0

>  <NsssN>
1

>  <NddsN>
0

>  <NaasN>
0

>  <NssssN>
0

>  <NsOH>
0

>  <NdO>
1

>  <NssO>
1

>  <NaaO>
0

>  <NsF>
0

>  <NsSiH3>
0

>  <NssSiH2>
0

>  <NsssSiH>
0

>  <NssssSi>
0

>  <NsPH2>
0

>  <NssPH>
0

>  <NsssP>
0

>  <NdsssP>
0

>  <NsssssP>
0

>  <NsSH>
0

>  <NdS>
0

>  <NssS>
0

>  <NaaS>
0

>  <NdssS>
0

>  <NddssS>
0

>  <NsCl>
0

>  <NsBr>
0

>  <NsI>
0

>  <fragCpx>
304.04

>  <fMF>
0.47

>  <nHBAcc>
3

>  <nHBDon>
1

>  <Kier1>
23.73

>  <Kier2>
10.73

>  <Lipinski>
1

>  <GhoseFilter>
1

>  <FilterItLogS>
-6.32

>  <VMcGowan>
339.78

>  <LabuteASA>
189.56

>  <PEOE_VSA1>
15.37

>  <PEOE_VSA2>
4.79

>  <PEOE_VSA3>
0

>  <PEOE_VSA4>
0

>  <PEOE_VSA5>
0

>  <PEOE_VSA6>
72.8

>  <PEOE_VSA7>
53.62

>  <PEOE_VSA8>
19.51

>  <PEOE_VSA9>
6.61

>  <PEOE_VSA10>
11.16

>  <PEOE_VSA11>
0

>  <PEOE_VSA12>
5.91

>  <PEOE_VSA13>
0

>  <SMR_VSA1>
9.53

>  <SMR_VSA2>
0

>  <SMR_VSA3>
4.9

>  <SMR_VSA4>
11.65

>  <SMR_VSA5>
24.68

>  <SMR_VSA6>
26.24

>  <SMR_VSA7>
101.12

>  <SMR_VSA8>
0

>  <SMR_VSA9>
5.75

>  <SlogP_VSA1>
10.47

>  <SlogP_VSA2>
37.05

>  <SlogP_VSA3>
23.05

>  <SlogP_VSA4>
5.92

>  <SlogP_VSA5>
28.67

>  <SlogP_VSA6>
78.86

>  <SlogP_VSA7>
0

>  <SlogP_VSA8>
0

>  <SlogP_VSA9>
0

>  <SlogP_VSA10>
0

>  <SlogP_VSA11>
5.75

>  <EState_VSA1>
5.41

>  <EState_VSA2>
11.83

>  <EState_VSA3>
0

>  <EState_VSA4>
62.38

>  <EState_VSA5>
11.13

>  <EState_VSA6>
0

>  <EState_VSA7>
60.66

>  <EState_VSA8>
23.1

>  <EState_VSA9>
10.47

>  <EState_VSA10>
4.79

>  <VSA_EState1>
5.64

>  <VSA_EState2>
15.68

>  <VSA_EState3>
0

>  <VSA_EState4>
10.05

>  <VSA_EState5>
0.91

>  <VSA_EState6>
26.75

>  <VSA_EState7>
2.95

>  <VSA_EState8>
3.61

>  <VSA_EState9>
0

>  <apol>
70.57

>  <bpol>
33.84

>  <nRing>
5

>  <nHRing>
2

>  <naRing>
3

>  <naHRing>
0

>  <nARing 2>
2

>  <nAHRing 2>
2

>  <nFRing>
1

>  <nFHRing>
1

>  <nFaRing>
0

>  <nFaHRing>
0

>  <nFARing 2>
1

>  <nFAHRing 2>
1

>  <nRot>
7

>  <SLogP>
3.96

>  <SMR>
126.75

>  <TopoPSA(NO)>
55.56

>  <TopoPSA>
55.56

>  <JGI1>
0.17

>  <JGI2>
0.07

>  <JGI3>
0.06

>  <JGI4>
0.03

>  <JGI5>
0.02

>  <Diameter>
14

>  <Radius>
7

>  <TMWC10>
147.06

>  <TSRW10>
84.07

>  <MW>
426.23

>  <AMW>
6.87

>  <WPath>
2965

>  <WPol>
54

>  <Zagreb1>
174

>  <Zagreb2>
211

>  <mZagreb2>
7.03

>  <yes>


>  <nAR-cont>
1

>  <nHA-cont>
0.658856097

>  <MWHBN>
0.193748337

>  <MWHBN-cont>
0.99764692

>  <TPSA-cont>
0.612156699

>  <pka_cont>
0.97

>  <yes.1>


>  <BBB_SCORE>
4.864639876

>  <MMFF94 Energy>
122.95

$$$$
Compound 162
Actelion Java MolfileCreator 2.0

  0  0  0  0  0  0              0 V3000
M  V30 BEGIN CTAB
M  V30 COUNTS 11 10 0 0 0
M  V30 BEGIN ATOM
M  V30 1 S -0.9366 0.4682 -0.7805 0
M  V30 2 C 0.3622 0.8089 0.3129 0
M  V30 3 C -0.6478 -1.3024 -0.9901 0
M  V30 4 N 1.5539 0.9431 -0.1413 0
M  V30 5 N 0.0505 0.9265 1.6113 0
M  V30 6 H -0.7067 -1.8158 -0.0264 0
M  V30 7 H 0.3346 -1.4816 -1.4349 0
M  V30 8 H -1.4111 -1.7175 -1.6534 0
M  V30 9 H 1.5039 0.8345 -1.1598 0
M  V30 10 H 0.7861 1.1622 2.2616 0
M  V30 11 H -0.9064 0.8831 1.9255 0
M  V30 END ATOM
M  V30 BEGIN BOND
M  V30 1 1 1 2
M  V30 2 1 1 3
M  V30 3 2 2 4
M  V30 4 1 2 5
M  V30 5 1 3 6
M  V30 6 1 3 7
M  V30 7 1 3 8
M  V30 8 1 4 9
M  V30 9 1 5 10
M  V30 10 1 5 11
M  V30 END BOND
M  V30 END CTAB
M  END
>  <Column 1>
212

>  <level_0>
245

>  <index>
245

>  <Unnamed: 0>
245

>  <NO.>
246

>  <Name>
s-methylisothiourea

>  <IUPAC_name>
methyl carbamimidothioate

>  <SMILES>
CSC(=N)N

>  <CID>
5142

>  <logBB>
-0.6

>  <BBB+/BBB->
BBB+

>  <Inchi>
InChI=1S/C2H6N2S/c1-5-2(3)4/h1H3-(H3-3-4)

>  <threshold>


>  <reference>
R3|R38|R18|R25|R26|R41|R40|R2|R2|R8|R21|R27|R27|R43|R46|R47|

>  <group>
A

>  <Class>
1

>  <ABC>
3.05

>  <ABCGG>
3.31

>  <nAcid>
0

>  <nBase>
2

>  <nAromAtom>
0

>  <nAromBond>
0

>  <nAtom>
11

>  <nHeavyAtom>
5

>  <nSpiro>
0

>  <nBridgehead>
0

>  <nHetero>
3

>  <nN>
2

>  <nO>
0

>  <nF>
0

>  <BalabanJ>
2.54

>  <BertzCT>
42.91

>  <nBonds>
10

>  <nBondsO>
4

>  <nBondsS>
9

>  <nBondsD>
1

>  <nBondsT>
0

>  <nBondsA>
0

>  <nBondsM>
1

>  <nBondsKS>
9

>  <nBondsKD>
1

>  <RNCG>
0.5

>  <RPCG>
0.25

>  <FCSP3>
0.5

>  <SZ>
8

>  <Sm>
7.51

>  <Sv>
6.33

>  <Sse>
11.07

>  <Sp>
7.45

>  <Si>
12.75

>  <MZ>
0.73

>  <Mm>
0.68

>  <Mv>
0.58

>  <Mse>
1.01

>  <Mp>
0.68

>  <Mi>
1.16

>  <NsCH3>
1

>  <NdCH2>
0

>  <NssCH2>
0

>  <NtCH>
0

>  <NdsCH>
0

>  <NaaCH>
0

>  <NsssCH>
0

>  <NddC>
0

>  <NtsC>
0

>  <NdssC>
1

>  <NaasC>
0

>  <NaaaC>
0

>  <NssssC>
0

>  <NsNH3>
0

>  <NsNH2>
1

>  <NssNH2>
0

>  <NdNH>
1

>  <NssNH>
0

>  <NaaNH>
0

>  <NtN>
0

>  <NsssNH>
0

>  <NdsN>
0

>  <NaaN>
0

>  <NsssN>
0

>  <NddsN>
0

>  <NaasN>
0

>  <NssssN>
0

>  <NsOH>
0

>  <NdO>
0

>  <NssO>
0

>  <NaaO>
0

>  <NsF>
0

>  <NsSiH3>
0

>  <NssSiH2>
0

>  <NsssSiH>
0

>  <NssssSi>
0

>  <NsPH2>
0

>  <NssPH>
0

>  <NsssP>
0

>  <NdsssP>
0

>  <NsssssP>
0

>  <NsSH>
0

>  <NdS>
0

>  <NssS>
1

>  <NaaS>
0

>  <NdssS>
0

>  <NddssS>
0

>  <NsCl>
0

>  <NsBr>
0

>  <NsI>
0

>  <fragCpx>
4.03

>  <fMF>
0

>  <nHBAcc>
2

>  <nHBDon>
2

>  <Kier1>
5

>  <Kier2>
2.25

>  <Lipinski>
1

>  <GhoseFilter>
0

>  <FilterItLogS>
-0.01

>  <VMcGowan>
71.05

>  <LabuteASA>
35.25

>  <PEOE_VSA1>
5.73

>  <PEOE_VSA2>
5.41

>  <PEOE_VSA3>
0

>  <PEOE_VSA4>
0

>  <PEOE_VSA5>
0

>  <PEOE_VSA6>
11.76

>  <PEOE_VSA7>
6.26

>  <PEOE_VSA8>
0

>  <PEOE_VSA9>
0

>  <PEOE_VSA10>
0

>  <PEOE_VSA11>
5.17

>  <PEOE_VSA12>
0

>  <PEOE_VSA13>
0

>  <SMR_VSA1>
0

>  <SMR_VSA2>
5.41

>  <SMR_VSA3>
0

>  <SMR_VSA4>
5.73

>  <SMR_VSA5>
0

>  <SMR_VSA6>
6.26

>  <SMR_VSA7>
0

>  <SMR_VSA8>
0

>  <SMR_VSA9>
0

>  <SlogP_VSA1>
5.73

>  <SlogP_VSA2>
11.42

>  <SlogP_VSA3>
0

>  <SlogP_VSA4>
5.41

>  <SlogP_VSA5>
0

>  <SlogP_VSA6>
0

>  <SlogP_VSA7>
0

>  <SlogP_VSA8>
0

>  <SlogP_VSA9>
0

>  <SlogP_VSA10>
0

>  <SlogP_VSA11>
0

>  <EState_VSA1>
0

>  <EState_VSA2>
5.17

>  <EState_VSA3>
0

>  <EState_VSA4>
0

>  <EState_VSA5>
11.76

>  <EState_VSA6>
6.26

>  <EState_VSA7>
0

>  <EState_VSA8>
0

>  <EState_VSA9>
11.14

>  <EState_VSA10>
0

>  <VSA_EState1>
0

>  <VSA_EState2>
0

>  <VSA_EState3>
6.66

>  <VSA_EState4>
4.84

>  <VSA_EState5>
0

>  <VSA_EState6>
0

>  <VSA_EState7>
1.77

>  <VSA_EState8>
0

>  <VSA_EState9>
0

>  <apol>
12.44

>  <bpol>
7.91

>  <nRing>
0

>  <nHRing>
0

>  <naRing>
0

>  <naHRing>
0

>  <nARing 2>
0

>  <nAHRing 2>
0

>  <nFRing>
0

>  <nFHRing>
0

>  <nFaRing>
0

>  <nFaHRing>
0

>  <nFARing 2>
0

>  <nFAHRing 2>
0

>  <nRot>
0

>  <SLogP>
0.24

>  <SMR>
25.43

>  <TopoPSA(NO)>
49.87

>  <TopoPSA>
75.17

>  <JGI1>
0.38

>  <JGI2>
0.11

>  <JGI3>
0

>  <JGI4>
0

>  <JGI5>
0

>  <Diameter>
3

>  <Radius>
2

>  <TMWC10>
55.94

>  <TSRW10>
27.25

>  <MW>
90.03

>  <AMW>
8.18

>  <WPath>
18

>  <WPol>
2

>  <Zagreb1>
16

>  <Zagreb2>
14

>  <mZagreb2>
1.33

>  <yes>


>  <nAR-cont>
0.336376

>  <nHA-cont>
0

>  <MWHBN>
0.421566766

>  <MWHBN-cont>
0.391924849

>  <TPSA-cont>
0.475266722

>  <pka_cont>
0.97

>  <yes.1>


>  <BBB_SCORE>
2.359796719

>  <MMFF94 Energy>
-91.251

$$$$
Compound 163
Actelion Java MolfileCreator 2.0

  0  0  0  0  0  0              0 V3000
M  V30 BEGIN CTAB
M  V30 COUNTS 43 47 0 0 0
M  V30 BEGIN ATOM
M  V30 1 O 0.8121 -1.4622 -1.4622 0
M  V30 2 C 1.5423 -0.7169 -0.5214 0
M  V30 3 C -0.4822 -1.3275 -0.8302 0 CFG=1
M  V30 4 C 2.857 -0.8447 -0.1363 0
M  V30 5 C 0.6909 0.1698 0.1447 0
M  V30 6 C -0.634 0.1665 -0.5329 0 CFG=2
M  V30 7 C -1.8041 -1.8829 -1.3239 0
M  V30 8 O 3.6312 -1.7154 -0.839 0
M  V30 9 C 3.2517 -0.0813 0.9812 0
M  V30 10 C 1.0198 0.8777 1.2719 0
M  V30 11 C -1.847 0.5203 0.3291 0 CFG=2
M  V30 12 C -0.5279 1.2259 -1.6512 0
M  V30 13 O -1.6845 -3.2498 -1.7052 0
M  V30 14 C -2.7888 -1.7917 -0.1001 0
M  V30 15 C 4.9914 -1.8268 -0.4471 0
M  V30 16 C 2.3393 0.7511 1.6924 0
M  V30 17 C -0.0811 1.6356 1.9618 0
M  V30 18 O -2.9699 0.9371 -0.5095 0
M  V30 19 C -1.3997 1.7851 1.1233 0
M  V30 20 C -2.3948 -0.7349 1.0052 0
M  V30 21 C -0.4072 2.6375 -1.0132 0
M  V30 22 N -1.3118 2.9143 0.1299 0
M  V30 23 H -0.3411 -1.9355 0.0894 0
M  V30 24 H -2.1739 -1.3204 -2.1876 0
M  V30 25 H 4.2692 -0.1322 1.3584 0
M  V30 26 H -1.4061 1.1867 -2.3067 0
M  V30 27 H 0.3361 1.0641 -2.3081 0
M  V30 28 H -2.5313 -3.5169 -2.1011 0
M  V30 29 H -3.789 -1.5585 -0.4868 0
M  V30 30 H -2.8836 -2.7714 0.3852 0
M  V30 31 H 5.5122 -0.8686 -0.5473 0
M  V30 32 H 5.4765 -2.5409 -1.1194 0
M  V30 33 H 5.0775 -2.218 0.5719 0
M  V30 34 H 2.6867 1.2844 2.5747 0
M  V30 35 H 0.2819 2.6276 2.2566 0
M  V30 36 H -0.3281 1.0918 2.8825 0
M  V30 37 H -3.6734 1.2538 0.0856 0
M  V30 38 H -2.2001 2.0743 1.816 0
M  V30 39 H -3.2927 -0.5059 1.5918 0
M  V30 40 H -1.6641 -1.164 1.6999 0
M  V30 41 H 0.6252 2.8188 -0.6936 0
M  V30 42 H -0.6006 3.3877 -1.7892 0
M  V30 43 H -2.2446 2.9971 -0.2852 0
M  V30 END ATOM
M  V30 BEGIN BOND
M  V30 1 1 1 2
M  V30 2 1 1 3
M  V30 3 2 2 4
M  V30 4 1 2 5
M  V30 5 1 3 6
M  V30 6 1 3 7
M  V30 7 1 4 8
M  V30 8 1 4 9
M  V30 9 2 5 10
M  V30 10 1 6 11
M  V30 11 1 6 12
M  V30 12 1 7 13
M  V30 13 1 7 14
M  V30 14 1 8 15
M  V30 15 2 9 16
M  V30 16 1 10 17
M  V30 17 1 11 18
M  V30 18 1 11 19
M  V30 19 1 11 20
M  V30 20 1 12 21
M  V30 21 1 19 22
M  V30 22 1 5 6
M  V30 23 1 10 16
M  V30 24 1 14 20
M  V30 25 1 17 19
M  V30 26 1 21 22
M  V30 27 1 3 23
M  V30 28 1 7 24
M  V30 29 1 9 25
M  V30 30 1 12 26
M  V30 31 1 12 27
M  V30 32 1 13 28
M  V30 33 1 14 29
M  V30 34 1 14 30
M  V30 35 1 15 31
M  V30 36 1 15 32
M  V30 37 1 15 33
M  V30 38 1 16 34
M  V30 39 1 17 35
M  V30 40 1 17 36
M  V30 41 1 18 37
M  V30 42 1 19 38
M  V30 43 1 20 39
M  V30 44 1 20 40
M  V30 45 1 21 41
M  V30 46 1 21 42
M  V30 47 1 22 43
M  V30 END BOND
M  V30 BEGIN COLLECTION
M  V30 MDLV30/STEABS ATOMS=(3 3 6 11)
M  V30 END COLLECTION
M  V30 END CTAB
M  END
>  <Column 1>
213

>  <level_0>
246

>  <index>
246

>  <Unnamed: 0>
246

>  <NO.>
247

>  <Name>
beta-oxycodol

>  <IUPAC_name>


>  <SMILES>
COc1ccc2c3c1O[C@@H]1C(O)CC[C@@]4(O)C(C2)NCC[C@]314

>  <CID>


>  <logBB>
-0.6

>  <BBB+/BBB->
BBB+

>  <Inchi>
InChI=1S/C17H21NO4/c1-21-11-3-2-9-8-12-17(20)5-4-10(19)15-16(17-6-7-18-12)13(9)14(11)22-15/h2-3-10-12-15-18-20H-4-8H2-1H3/t10?-12?-15--16+-17-/m1/s1

>  <threshold>


>  <reference>
R2|R2|R25|R46|

>  <group>
A

>  <Class>
1

>  <ABC>
18.21

>  <ABCGG>
14.19

>  <nAcid>
0

>  <nBase>
1

>  <nAromAtom>
6

>  <nAromBond>
6

>  <nAtom>
43

>  <nHeavyAtom>
22

>  <nSpiro>
1

>  <nBridgehead>
2

>  <nHetero>
5

>  <nN>
1

>  <nO>
4

>  <nF>
0

>  <BalabanJ>
1.67

>  <BertzCT>
662.3

>  <nBonds>
47

>  <nBondsO>
26

>  <nBondsS>
41

>  <nBondsD>
0

>  <nBondsT>
0

>  <nBondsA>
6

>  <nBondsM>
6

>  <nBondsKS>
44

>  <nBondsKD>
3

>  <RNCG>
0.22

>  <RPCG>
0.09

>  <FCSP3>
0.65

>  <SZ>
27

>  <Sm>
25.26

>  <Sv>
26.31

>  <Sse>
43.31

>  <Sp>
27.96

>  <Si>
48.49

>  <MZ>
0.63

>  <Mm>
0.59

>  <Mv>
0.61

>  <Mse>
1.01

>  <Mp>
0.65

>  <Mi>
1.13

>  <NsCH3>
1

>  <NdCH2>
0

>  <NssCH2>
5

>  <NtCH>
0

>  <NdsCH>
0

>  <NaaCH>
2

>  <NsssCH>
3

>  <NddC>
0

>  <NtsC>
0

>  <NdssC>
0

>  <NaasC>
4

>  <NaaaC>
0

>  <NssssC>
2

>  <NsNH3>
0

>  <NsNH2>
0

>  <NssNH2>
0

>  <NdNH>
0

>  <NssNH>
1

>  <NaaNH>
0

>  <NtN>
0

>  <NsssNH>
0

>  <NdsN>
0

>  <NaaN>
0

>  <NsssN>
0

>  <NddsN>
0

>  <NaasN>
0

>  <NssssN>
0

>  <NsOH>
2

>  <NdO>
0

>  <NssO>
2

>  <NaaO>
0

>  <NsF>
0

>  <NsSiH3>
0

>  <NssSiH2>
0

>  <NsssSiH>
0

>  <NssssSi>
0

>  <NsPH2>
0

>  <NssPH>
0

>  <NsssP>
0

>  <NdsssP>
0

>  <NsssssP>
0

>  <NsSH>
0

>  <NdS>
0

>  <NssS>
0

>  <NaaS>
0

>  <NdssS>
0

>  <NddssS>
0

>  <NsCl>
0

>  <NsBr>
0

>  <NsI>
0

>  <fragCpx>
214.05

>  <fMF>
0.42

>  <nHBAcc>
5

>  <nHBDon>
3

>  <Kier1>
14.35

>  <Kier2>
4.54

>  <Lipinski>
1

>  <GhoseFilter>
1

>  <FilterItLogS>
-2.9

>  <VMcGowan>
216.65

>  <LabuteASA>
128.79

>  <PEOE_VSA1>
25

>  <PEOE_VSA2>
0

>  <PEOE_VSA3>
0

>  <PEOE_VSA4>
0

>  <PEOE_VSA5>
0

>  <PEOE_VSA6>
6.07

>  <PEOE_VSA7>
43.86

>  <PEOE_VSA8>
11.61

>  <PEOE_VSA9>
24.23

>  <PEOE_VSA10>
6.1

>  <PEOE_VSA11>
11.5

>  <PEOE_VSA12>
0

>  <PEOE_VSA13>
0

>  <SMR_VSA1>
19.69

>  <SMR_VSA2>
0

>  <SMR_VSA3>
5.32

>  <SMR_VSA4>
0

>  <SMR_VSA5>
54.95

>  <SMR_VSA6>
13.65

>  <SMR_VSA7>
23.26

>  <SMR_VSA8>
0

>  <SMR_VSA9>
11.5

>  <SlogP_VSA1>
14.79

>  <SlogP_VSA2>
47.72

>  <SlogP_VSA3>
11.84

>  <SlogP_VSA4>
0

>  <SlogP_VSA5>
30.39

>  <SlogP_VSA6>
12.13

>  <SlogP_VSA7>
0

>  <SlogP_VSA8>
0

>  <SlogP_VSA9>
0

>  <SlogP_VSA10>
0

>  <SlogP_VSA11>
11.5

>  <EState_VSA1>
17.12

>  <EState_VSA2>
12.15

>  <EState_VSA3>
18.59

>  <EState_VSA4>
30.7

>  <EState_VSA5>
5.56

>  <EState_VSA6>
7.11

>  <EState_VSA7>
6.07

>  <EState_VSA8>
11.38

>  <EState_VSA9>
9.47

>  <EState_VSA10>
10.21

>  <VSA_EState1>
11.69

>  <VSA_EState2>
0

>  <VSA_EState3>
25.66

>  <VSA_EState4>
0.96

>  <VSA_EState5>
1.44

>  <VSA_EState6>
4.06

>  <VSA_EState7>
1.86

>  <VSA_EState8>
0.84

>  <VSA_EState9>
1.64

>  <apol>
46.7

>  <bpol>
25.11

>  <nRing>
5

>  <nHRing>
2

>  <naRing>
1

>  <naHRing>
0

>  <nARing 2>
4

>  <nAHRing 2>
2

>  <nFRing>
1

>  <nFHRing>
1

>  <nFaRing>
0

>  <nFaHRing>
0

>  <nFARing 2>
1

>  <nFAHRing 2>
1

>  <nRot>
1

>  <SLogP>
0.5

>  <SMR>
79.39

>  <TopoPSA(NO)>
70.95

>  <TopoPSA>
70.95

>  <JGI1>
0.21

>  <JGI2>
0.12

>  <JGI3>
0.06

>  <JGI4>
0.06

>  <JGI5>
0.03

>  <Diameter>
8

>  <Radius>
4

>  <TMWC10>
128.21

>  <TSRW10>
72.92

>  <MW>
303.15

>  <AMW>
7.05

>  <WPath>
802

>  <WPol>
54

>  <Zagreb1>
138

>  <Zagreb2>
183

>  <mZagreb2>
4.59

>  <yes>


>  <nAR-cont>
0.199399

>  <nHA-cont>
0.983774276

>  <MWHBN>
0.459474275

>  <MWHBN-cont>
0

>  <TPSA-cont>
0.504724943

>  <pka_cont>
0.97

>  <yes.1>


>  <BBB_SCORE>
2.677623161

>  <MMFF94 Energy>
162.89

$$$$
Compound 164
Actelion Java MolfileCreator 2.0

  0  0  0  0  0  0              0 V3000
M  V30 BEGIN CTAB
M  V30 COUNTS 46 50 0 0 0
M  V30 BEGIN ATOM
M  V30 1 O -0.4853 0.1617 2.4284 0
M  V30 2 C -1.0023 0.7953 1.3145 0
M  V30 3 C 0.308 -0.9369 1.8439 0 CFG=2
M  V30 4 C -2.0957 1.6376 1.26 0
M  V30 5 C -0.3219 0.4338 0.1653 0
M  V30 6 C 0.8536 -0.4188 0.5051 0 CFG=2
M  V30 7 C -0.6324 -2.1655 1.733 0 CFG=2
M  V30 8 O -2.6948 1.9459 2.445 0
M  V30 9 C -2.5012 2.0663 -0.015 0
M  V30 10 C -0.7252 0.7958 -1.104 0
M  V30 11 C 1.1136 -1.4501 -0.6039 0 CFG=2
M  V30 12 C 2.0915 0.4931 0.6692 0
M  V30 13 O -0.704 -2.8205 3.0033 0
M  V30 14 C -0.1949 -3.1838 0.6857 0
M  V30 15 C -3.7876 2.8528 2.3968 0
M  V30 16 C -1.8342 1.6351 -1.188 0
M  V30 17 C -0.0116 0.1967 -2.2891 0
M  V30 18 O 2.3388 -2.1802 -0.3713 0
M  V30 19 C 1.2895 -0.6066 -1.9258 0
M  V30 20 C 0.0167 -2.5258 -0.6809 0
M  V30 21 C 2.4915 1.1662 -0.6557 0
M  V30 22 N 2.5152 0.236 -1.7871 0
M  V30 23 C 2.922 0.8935 -3.022 0
M  V30 24 H 1.1209 -1.155 2.5475 0
M  V30 25 H -1.6576 -1.8513 1.5009 0
M  V30 26 H -3.359 2.7204 -0.1413 0
M  V30 27 H 2.9371 -0.0997 1.041 0
M  V30 28 H 1.9189 1.276 1.4196 0
M  V30 29 H -1.0452 -2.1564 3.6327 0
M  V30 30 H -0.9592 -3.9666 0.6012 0
M  V30 31 H 0.7114 -3.7038 1.0186 0
M  V30 32 H -3.4819 3.8203 1.9847 0
M  V30 33 H -4.1287 3.021 3.4229 0
M  V30 34 H -4.6255 2.43 1.8328 0
M  V30 35 H -2.2056 1.9579 -2.1585 0
M  V30 36 H 0.1989 0.9797 -3.0244 0
M  V30 37 H -0.7095 -0.4987 -2.7734 0
M  V30 38 H 2.43 -2.3798 0.5738 0
M  V30 39 H 1.4926 -1.3118 -2.7432 0
M  V30 40 H 0.3104 -3.3035 -1.3968 0
M  V30 41 H -0.9372 -2.1162 -1.0291 0
M  V30 42 H 3.49 1.6007 -0.5195 0
M  V30 43 H 1.8192 2.0089 -0.8599 0
M  V30 44 H 3.9307 1.3084 -2.915 0
M  V30 45 H 2.9675 0.1778 -3.85 0
M  V30 46 H 2.2538 1.7123 -3.3069 0
M  V30 END ATOM
M  V30 BEGIN BOND
M  V30 1 1 1 2
M  V30 2 1 1 3
M  V30 3 2 2 4
M  V30 4 1 2 5
M  V30 5 1 3 6
M  V30 6 1 3 7
M  V30 7 1 4 8
M  V30 8 1 4 9
M  V30 9 2 5 10
M  V30 10 1 6 11
M  V30 11 1 6 12
M  V30 12 1 7 13
M  V30 13 1 7 14
M  V30 14 1 8 15
M  V30 15 2 9 16
M  V30 16 1 10 17
M  V30 17 1 11 18
M  V30 18 1 11 19
M  V30 19 1 11 20
M  V30 20 1 12 21
M  V30 21 1 19 22
M  V30 22 1 22 23
M  V30 23 1 5 6
M  V30 24 1 10 16
M  V30 25 1 14 20
M  V30 26 1 17 19
M  V30 27 1 21 22
M  V30 28 1 3 24
M  V30 29 1 7 25
M  V30 30 1 9 26
M  V30 31 1 12 27
M  V30 32 1 12 28
M  V30 33 1 13 29
M  V30 34 1 14 30
M  V30 35 1 14 31
M  V30 36 1 15 32
M  V30 37 1 15 33
M  V30 38 1 15 34
M  V30 39 1 16 35
M  V30 40 1 17 36
M  V30 41 1 17 37
M  V30 42 1 18 38
M  V30 43 1 19 39
M  V30 44 1 20 40
M  V30 45 1 20 41
M  V30 46 1 21 42
M  V30 47 1 21 43
M  V30 48 1 23 44
M  V30 49 1 23 45
M  V30 50 1 23 46
M  V30 END BOND
M  V30 BEGIN COLLECTION
M  V30 MDLV30/STEABS ATOMS=(4 3 6 7 11)
M  V30 END COLLECTION
M  V30 END CTAB
M  END
>  <Column 1>
214

>  <level_0>
247

>  <index>
247

>  <Unnamed: 0>
247

>  <NO.>
248

>  <Name>
(4as-7r-7ar-12bs)-9-methoxy-3-methyl-1-2-4-5-6-7-7a-13-octahydro-4-12-methanobenzofuro[3-2-e]isoquinoline-4a-7-diol

>  <IUPAC_name>
(4as-7r-7ar-12bs)-9-methoxy-3-methyl-1-2-4-5-6-7-7a-13-octahydro-4-12-methanobenzofuro[3-2-e]isoquinoline-4a-7-diol

>  <SMILES>
COc1ccc2c3c1O[C@H]1[C@H](O)CC[C@@]4(O)C(C2)N(C)CC[C@]314

>  <CID>
131770023

>  <logBB>
-0.6

>  <BBB+/BBB->
BBB+

>  <Inchi>
InChI=1S/C18H23NO4/c1-19-8-7-17-14-10-3-4-12(22-2)15(14)23-16(17)11(20)5-6-18(17-21)13(19)9-10/h3-4-11-13-16-20-21H-5-9H2-1-2H3/t11--13?-16+-17+-18-/m1/s1

>  <threshold>


>  <reference>
R20|

>  <group>
A

>  <Class>
1

>  <ABC>
18.99

>  <ABCGG>
14.83

>  <nAcid>
0

>  <nBase>
1

>  <nAromAtom>
6

>  <nAromBond>
6

>  <nAtom>
46

>  <nHeavyAtom>
23

>  <nSpiro>
1

>  <nBridgehead>
2

>  <nHetero>
5

>  <nN>
1

>  <nO>
4

>  <nF>
0

>  <BalabanJ>
1.68

>  <BertzCT>
691.84

>  <nBonds>
50

>  <nBondsO>
27

>  <nBondsS>
44

>  <nBondsD>
0

>  <nBondsT>
0

>  <nBondsA>
6

>  <nBondsM>
6

>  <nBondsKS>
47

>  <nBondsKD>
3

>  <RNCG>
0.22

>  <RPCG>
0.09

>  <FCSP3>
0.67

>  <SZ>
28.33

>  <Sm>
26.42

>  <Sv>
27.85

>  <Sse>
46.2

>  <Sp>
29.76

>  <Si>
51.9

>  <MZ>
0.62

>  <Mm>
0.57

>  <Mv>
0.61

>  <Mse>
1

>  <Mp>
0.65

>  <Mi>
1.13

>  <NsCH3>
2

>  <NdCH2>
0

>  <NssCH2>
5

>  <NtCH>
0

>  <NdsCH>
0

>  <NaaCH>
2

>  <NsssCH>
3

>  <NddC>
0

>  <NtsC>
0

>  <NdssC>
0

>  <NaasC>
4

>  <NaaaC>
0

>  <NssssC>
2

>  <NsNH3>
0

>  <NsNH2>
0

>  <NssNH2>
0

>  <NdNH>
0

>  <NssNH>
0

>  <NaaNH>
0

>  <NtN>
0

>  <NsssNH>
0

>  <NdsN>
0

>  <NaaN>
0

>  <NsssN>
1

>  <NddsN>
0

>  <NaasN>
0

>  <NssssN>
0

>  <NsOH>
2

>  <NdO>
0

>  <NssO>
2

>  <NaaO>
0

>  <NsF>
0

>  <NsSiH3>
0

>  <NssSiH2>
0

>  <NsssSiH>
0

>  <NssssSi>
0

>  <NsPH2>
0

>  <NssPH>
0

>  <NsssP>
0

>  <NdsssP>
0

>  <NsssssP>
0

>  <NsSH>
0

>  <NdS>
0

>  <NssS>
0

>  <NaaS>
0

>  <NdssS>
0

>  <NddssS>
0

>  <NsCl>
0

>  <NsBr>
0

>  <NsI>
0

>  <fragCpx>
223.05

>  <fMF>
0.39

>  <nHBAcc>
5

>  <nHBDon>
2

>  <Kier1>
15.27

>  <Kier2>
4.79

>  <Lipinski>
1

>  <GhoseFilter>
1

>  <FilterItLogS>
-2.56

>  <VMcGowan>
230.74

>  <LabuteASA>
135.36

>  <PEOE_VSA1>
24.59

>  <PEOE_VSA2>
0

>  <PEOE_VSA3>
0

>  <PEOE_VSA4>
0

>  <PEOE_VSA5>
0

>  <PEOE_VSA6>
6.07

>  <PEOE_VSA7>
50.91

>  <PEOE_VSA8>
11.61

>  <PEOE_VSA9>
24.23

>  <PEOE_VSA10>
6.1

>  <PEOE_VSA11>
11.5

>  <PEOE_VSA12>
0

>  <PEOE_VSA13>
0

>  <SMR_VSA1>
19.69

>  <SMR_VSA2>
0

>  <SMR_VSA3>
4.9

>  <SMR_VSA4>
0

>  <SMR_VSA5>
54.95

>  <SMR_VSA6>
20.7

>  <SMR_VSA7>
23.26

>  <SMR_VSA8>
0

>  <SMR_VSA9>
11.5

>  <SlogP_VSA1>
9.47

>  <SlogP_VSA2>
59.67

>  <SlogP_VSA3>
11.84

>  <SlogP_VSA4>
0

>  <SlogP_VSA5>
30.39

>  <SlogP_VSA6>
12.13

>  <SlogP_VSA7>
0

>  <SlogP_VSA8>
0

>  <SlogP_VSA9>
0

>  <SlogP_VSA10>
0

>  <SlogP_VSA11>
11.5

>  <EState_VSA1>
17.12

>  <EState_VSA2>
12.15

>  <EState_VSA3>
18.59

>  <EState_VSA4>
30.7

>  <EState_VSA5>
5.56

>  <EState_VSA6>
7.11

>  <EState_VSA7>
6.07

>  <EState_VSA8>
18.01

>  <EState_VSA9>
9.47

>  <EState_VSA10>
10.21

>  <VSA_EState1>
11.76

>  <VSA_EState2>
2.28

>  <VSA_EState3>
22.43

>  <VSA_EState4>
1

>  <VSA_EState5>
1.46

>  <VSA_EState6>
4.15

>  <VSA_EState7>
1.93

>  <VSA_EState8>
0.91

>  <VSA_EState9>
3.74

>  <apol>
49.7

>  <bpol>
28.26

>  <nRing>
5

>  <nHRing>
2

>  <naRing>
1

>  <naHRing>
0

>  <nARing 2>
4

>  <nAHRing 2>
2

>  <nFRing>
1

>  <nFHRing>
1

>  <nFaRing>
0

>  <nFaHRing>
0

>  <nFARing 2>
1

>  <nFAHRing 2>
1

>  <nRot>
1

>  <SLogP>
0.84

>  <SMR>
84.02

>  <TopoPSA(NO)>
62.16

>  <TopoPSA>
62.16

>  <JGI1>
0.22

>  <JGI2>
0.12

>  <JGI3>
0.06

>  <JGI4>
0.06

>  <JGI5>
0.03

>  <Diameter>
9

>  <Radius>
5

>  <TMWC10>
130.66

>  <TSRW10>
74.13

>  <MW>
317.16

>  <AMW>
6.89

>  <WPath>
907

>  <WPol>
57

>  <Zagreb1>
144

>  <Zagreb2>
191

>  <mZagreb2>
4.78

>  <yes>


>  <nAR-cont>
0.199399

>  <nHA-cont>
0.967789328

>  <MWHBN>
0.393059987

>  <MWHBN-cont>
0.50340217

>  <TPSA-cont>
0.566084601

>  <pka_cont>
0.97

>  <yes.1>


>  <BBB_SCORE>
3.539460786

>  <MMFF94 Energy>
132.54

$$$$
Compound 165
Actelion Java MolfileCreator 2.0

  0  0  0  0  0  0              0 V3000
M  V30 BEGIN CTAB
M  V30 COUNTS 62 65 0 0 0
M  V30 BEGIN ATOM
M  V30 1 F 4.3219 -5.6855 0.4795 0
M  V30 2 C 4.847 -5.9287 1.6889 0
M  V30 3 C 5.451 -4.9076 2.4227 0
M  V30 4 C 4.7818 -7.2208 2.1981 0
M  V30 5 C 5.557 -3.5438 1.8768 0
M  V30 6 C 6.0344 -5.1854 3.665 0
M  V30 7 C 5.3429 -7.4841 3.4422 0
M  V30 8 O 6.6873 -3.0997 1.6904 0
M  V30 9 N 4.3993 -2.8114 1.6392 0
M  V30 10 C 5.9709 -6.4817 4.1788 0
M  V30 11 F 5.2864 -8.7261 3.939 0
M  V30 12 C 3.0564 -3.2296 2.06 0
M  V30 13 C 4.5355 -1.4751 1.0738 0
M  V30 14 C 1.9322 -2.1787 2.0377 0
M  V30 15 C 3.2925 -1.0697 0.2921 0
M  V30 16 O 0.9133 -2.3652 2.7059 0
M  V30 17 N 2.1037 -1.1241 1.1387 0
M  V30 18 C 1.1016 -0.1354 0.9597 0
M  V30 19 C 0.6646 0.2079 -0.3244 0
M  V30 20 C 0.5554 0.5265 2.0614 0
M  V30 21 C -0.3045 1.2029 -0.5056 0
M  V30 22 C -0.4113 1.5193 1.8776 0
M  V30 23 C -0.8452 1.8647 0.5963 0
M  V30 24 O -1.7914 2.851 0.5594 0
M  V30 25 C -2.2729 3.242 -0.7296 0
M  V30 26 C -3.3234 4.3302 -0.5223 0
M  V30 27 C -3.8165 4.9449 -1.834 0
M  V30 28 N -4.29 3.9655 -2.8194 0
M  V30 29 C -5.7131 3.5984 -2.6949 0 CFG=1
M  V30 30 C -4.1821 4.5086 -4.182 0
M  V30 31 C -5.992 2.9207 -4.0398 0
M  V30 32 C -6.0512 2.6629 -1.542 0
M  V30 33 C -5.0247 3.565 -5.022 0
M  V30 34 H 4.308 -8.0137 1.6309 0
M  V30 35 H 6.539 -4.399 4.2223 0
M  V30 36 H 6.4131 -6.7193 5.1422 0
M  V30 37 H 2.7395 -4.0377 1.3926 0
M  V30 38 H 3.1241 -3.6278 3.0785 0
M  V30 39 H 4.7006 -0.789 1.9136 0
M  V30 40 H 5.4185 -1.4275 0.4274 0
M  V30 41 H 3.1318 -1.7563 -0.5478 0
M  V30 42 H 3.4321 -0.0558 -0.1 0
M  V30 43 H 1.0559 -0.3032 -1.1994 0
M  V30 44 H 0.8704 0.2779 3.0714 0
M  V30 45 H -0.6185 1.4306 -1.5189 0
M  V30 46 H -0.8326 2.0243 2.7435 0
M  V30 47 H -2.7246 2.3795 -1.2329 0
M  V30 48 H -1.4454 3.6396 -1.3294 0
M  V30 49 H -4.1495 3.9316 0.0733 0
M  V30 50 H -2.8917 5.1272 0.0976 0
M  V30 51 H -4.5805 5.7049 -1.6267 0
M  V30 52 H -2.9593 5.4883 -2.2558 0
M  V30 53 H -6.3391 4.499 -2.6231 0
M  V30 54 H -3.1445 4.5338 -4.5305 0
M  V30 55 H -4.5942 5.5246 -4.2427 0
M  V30 56 H -5.8035 1.8406 -3.9982 0
M  V30 57 H -7.0325 3.0641 -4.3508 0
M  V30 58 H -6.0411 3.1905 -0.5851 0
M  V30 59 H -5.3493 1.8241 -1.4833 0
M  V30 60 H -7.0572 2.2469 -1.6672 0
M  V30 61 H -4.4018 2.795 -5.4915 0
M  V30 62 H -5.5524 4.1017 -5.8171 0
M  V30 END ATOM
M  V30 BEGIN BOND
M  V30 1 1 1 2
M  V30 2 2 2 3
M  V30 3 1 2 4
M  V30 4 1 3 5
M  V30 5 1 3 6
M  V30 6 2 4 7
M  V30 7 2 5 8
M  V30 8 1 5 9
M  V30 9 2 6 10
M  V30 10 1 7 11
M  V30 11 1 9 12
M  V30 12 1 9 13
M  V30 13 1 12 14
M  V30 14 1 13 15
M  V30 15 2 14 16
M  V30 16 1 14 17
M  V30 17 1 17 18
M  V30 18 2 18 19
M  V30 19 1 18 20
M  V30 20 1 19 21
M  V30 21 2 20 22
M  V30 22 2 21 23
M  V30 23 1 23 24
M  V30 24 1 24 25
M  V30 25 1 25 26
M  V30 26 1 26 27
M  V30 27 1 27 28
M  V30 28 1 28 29
M  V30 29 1 28 30
M  V30 30 1 29 31
M  V30 31 1 29 32
M  V30 32 1 30 33
M  V30 33 1 7 10
M  V30 34 1 15 17
M  V30 35 1 22 23
M  V30 36 1 31 33
M  V30 37 1 4 34
M  V30 38 1 6 35
M  V30 39 1 10 36
M  V30 40 1 12 37
M  V30 41 1 12 38
M  V30 42 1 13 39
M  V30 43 1 13 40
M  V30 44 1 15 41
M  V30 45 1 15 42
M  V30 46 1 19 43
M  V30 47 1 20 44
M  V30 48 1 21 45
M  V30 49 1 22 46
M  V30 50 1 25 47
M  V30 51 1 25 48
M  V30 52 1 26 49
M  V30 53 1 26 50
M  V30 54 1 27 51
M  V30 55 1 27 52
M  V30 56 1 29 53
M  V30 57 1 30 54
M  V30 58 1 30 55
M  V30 59 1 31 56
M  V30 60 1 31 57
M  V30 61 1 32 58
M  V30 62 1 32 59
M  V30 63 1 32 60
M  V30 64 1 33 61
M  V30 65 1 33 62
M  V30 END BOND
M  V30 BEGIN COLLECTION
M  V30 MDLV30/STEABS ATOMS=(1 29)
M  V30 END COLLECTION
M  V30 END CTAB
M  END
>  <Column 1>
215

>  <level_0>
248

>  <index>
248

>  <Unnamed: 0>
248

>  <NO.>
249

>  <Name>
chembl239299

>  <IUPAC_name>
4-(2-4-difluorobenzoyl)-1-[4-[3-[(2r)-2-methylpyrrolidin-1-yl]propoxy]phenyl]piperazin-2-one

>  <SMILES>
C[C@@H]1CCCN1CCCOc1ccc(N2CCN(C(=O)c3ccc(F)cc3F)CC2=O)cc1

>  <CID>
12001199

>  <logBB>
-0.6

>  <BBB+/BBB->
BBB+

>  <Inchi>
InChI=1S/C25H29F2N3O3/c1-18-4-2-11-28(18)12-3-15-33-21-8-6-20(7-9-21)30-14-13-29(17-24(30)31)25(32)22-10-5-19(26)16-23(22)27/h5-10-16-18H-2-4-11-15-17H2-1H3/t18-/m1/s1

>  <threshold>


>  <reference>
R18|R26|R27|

>  <group>
A

>  <Class>
1

>  <ABC>
25.76

>  <ABCGG>
18.57

>  <nAcid>
0

>  <nBase>
1

>  <nAromAtom>
12

>  <nAromBond>
12

>  <nAtom>
62

>  <nHeavyAtom>
33

>  <nSpiro>
0

>  <nBridgehead>
0

>  <nHetero>
8

>  <nN>
3

>  <nO>
3

>  <nF>
2

>  <BalabanJ>
1.14

>  <BertzCT>
998.89

>  <nBonds>
65

>  <nBondsO>
36

>  <nBondsS>
51

>  <nBondsD>
2

>  <nBondsT>
0

>  <nBondsA>
12

>  <nBondsM>
14

>  <nBondsKS>
57

>  <nBondsKD>
8

>  <RNCG>
0.18

>  <RPCG>
0.1

>  <FCSP3>
0.44

>  <SZ>
40.33

>  <Sm>
38.09

>  <Sv>
38.57

>  <Sse>
62.77

>  <Sp>
40.66

>  <Si>
70.62

>  <MZ>
0.65

>  <Mm>
0.61

>  <Mv>
0.62

>  <Mse>
1.01

>  <Mp>
0.66

>  <Mi>
1.14

>  <NsCH3>
1

>  <NdCH2>
0

>  <NssCH2>
9

>  <NtCH>
0

>  <NdsCH>
0

>  <NaaCH>
7

>  <NsssCH>
1

>  <NddC>
0

>  <NtsC>
0

>  <NdssC>
2

>  <NaasC>
5

>  <NaaaC>
0

>  <NssssC>
0

>  <NsNH3>
0

>  <NsNH2>
0

>  <NssNH2>
0

>  <NdNH>
0

>  <NssNH>
0

>  <NaaNH>
0

>  <NtN>
0

>  <NsssNH>
0

>  <NdsN>
0

>  <NaaN>
0

>  <NsssN>
3

>  <NddsN>
0

>  <NaasN>
0

>  <NssssN>
0

>  <NsOH>
0

>  <NdO>
2

>  <NssO>
1

>  <NaaO>
0

>  <NsF>
2

>  <NsSiH3>
0

>  <NssSiH2>
0

>  <NsssSiH>
0

>  <NssssSi>
0

>  <NsPH2>
0

>  <NssPH>
0

>  <NsssP>
0

>  <NdsssP>
0

>  <NsssssP>
0

>  <NsSH>
0

>  <NdS>
0

>  <NssS>
0

>  <NaaS>
0

>  <NdssS>
0

>  <NddssS>
0

>  <NsCl>
0

>  <NsBr>
0

>  <NsI>
0

>  <fragCpx>
240.08

>  <fMF>
0.45

>  <nHBAcc>
4

>  <nHBDon>
0

>  <Kier1>
26.07

>  <Kier2>
12.3

>  <Lipinski>
1

>  <GhoseFilter>
1

>  <FilterItLogS>
-5.46

>  <VMcGowan>
336.34

>  <LabuteASA>
192.27

>  <PEOE_VSA1>
19.44

>  <PEOE_VSA2>
9.59

>  <PEOE_VSA3>
8.78

>  <PEOE_VSA4>
0

>  <PEOE_VSA5>
0

>  <PEOE_VSA6>
0

>  <PEOE_VSA7>
69.13

>  <PEOE_VSA8>
37.43

>  <PEOE_VSA9>
12.17

>  <PEOE_VSA10>
23.93

>  <PEOE_VSA11>
0

>  <PEOE_VSA12>
5.91

>  <PEOE_VSA13>
5.91

>  <SMR_VSA1>
23.11

>  <SMR_VSA2>
0

>  <SMR_VSA3>
9.8

>  <SMR_VSA4>
0

>  <SMR_VSA5>
32.23

>  <SMR_VSA6>
44.23

>  <SMR_VSA7>
59.66

>  <SMR_VSA8>
0

>  <SMR_VSA9>
5.75

>  <SlogP_VSA1>
9.64

>  <SlogP_VSA2>
66.99

>  <SlogP_VSA3>
4.79

>  <SlogP_VSA4>
11.63

>  <SlogP_VSA5>
36.54

>  <SlogP_VSA6>
42.46

>  <SlogP_VSA7>
0

>  <SlogP_VSA8>
0

>  <SlogP_VSA9>
0

>  <SlogP_VSA10>
14.47

>  <SlogP_VSA11>
5.75

>  <EState_VSA1>
17.54

>  <EState_VSA2>
24.56

>  <EState_VSA3>
25.26

>  <EState_VSA4>
36.54

>  <EState_VSA5>
24.29

>  <EState_VSA6>
4.9

>  <EState_VSA7>
24.27

>  <EState_VSA8>
11.82

>  <EState_VSA9>
4.74

>  <EState_VSA10>
18.37

>  <VSA_EState1>
32.9

>  <VSA_EState2>
30.62

>  <VSA_EState3>
0

>  <VSA_EState4>
0.48

>  <VSA_EState5>
-1.81

>  <VSA_EState6>
10.8

>  <VSA_EState7>
3.51

>  <VSA_EState8>
5.51

>  <VSA_EState9>
0

>  <apol>
67.91

>  <bpol>
39.92

>  <nRing>
4

>  <nHRing>
2

>  <naRing>
2

>  <naHRing>
0

>  <nARing 2>
2

>  <nAHRing 2>
2

>  <nFRing>
0

>  <nFHRing>
0

>  <nFaRing>
0

>  <nFaHRing>
0

>  <nFARing 2>
0

>  <nFAHRing 2>
0

>  <nRot>
7

>  <SLogP>
3.71

>  <SMR>
121.44

>  <TopoPSA(NO)>
53.09

>  <TopoPSA>
53.09

>  <JGI1>
0.18

>  <JGI2>
0.09

>  <JGI3>
0.05

>  <JGI4>
0.04

>  <JGI5>
0.02

>  <Diameter>
20

>  <Radius>
10

>  <TMWC10>
146.36

>  <TSRW10>
82.59

>  <MW>
457.22

>  <AMW>
7.37

>  <WPath>
4000

>  <WPol>
51

>  <Zagreb1>
172

>  <Zagreb2>
201

>  <mZagreb2>
7.25

>  <yes>


>  <nAR-cont>
1

>  <nHA-cont>
0.61399562

>  <MWHBN>
0.187067086

>  <MWHBN-cont>
0.993630855

>  <TPSA-cont>
0.629398833

>  <pka_cont>
0.97

>  <yes.1>


>  <BBB_SCORE>
4.848239569

>  <MMFF94 Energy>
85.468

$$$$
Compound 166
Actelion Java MolfileCreator 2.0

  0  0  0  0  0  0              0 V3000
M  V30 BEGIN CTAB
M  V30 COUNTS 27 29 0 0 0
M  V30 BEGIN ATOM
M  V30 1 S 1.1491 -2.0527 0.0 0
M  V30 2 O 0.8033 -3.2254 0.7727 0
M  V30 3 O 2.3653 -2.0069 -0.7842 0
M  V30 4 N -0.1197 -1.789 -1.0822 0
M  V30 5 C 1.1259 -0.6431 1.0494 0
M  V30 6 C -0.0664 -0.4289 -1.587 0 CFG=2
M  V30 7 C 0.3475 0.4595 0.6782 0
M  V30 8 C 1.8319 -0.7022 2.2581 0
M  V30 9 N -0.3482 0.4875 -0.5037 0
M  V30 10 C -1.1927 -0.176 -2.5956 0
M  V30 11 C 0.3097 1.5282 1.5852 0
M  V30 12 C 1.7789 0.3779 3.1312 0
M  V30 13 C -1.5843 1.2286 -0.708 0
M  V30 14 C -2.3222 0.395 -1.7508 0
M  V30 15 C 1.0176 1.4935 2.7942 0
M  V30 16 H -0.0138 -2.4638 -1.837 0
M  V30 17 H 0.8948 -0.2225 -2.073 0
M  V30 18 H 2.4085 -1.587 2.5175 0
M  V30 19 H -1.4963 -1.0673 -3.1532 0
M  V30 20 H -0.8716 0.583 -3.32 0
M  V30 21 H -0.2649 2.4218 1.3548 0
M  V30 22 H 2.3218 0.349 4.0724 0
M  V30 23 H -2.19 1.316 0.2005 0
M  V30 24 H -1.3612 2.2309 -1.0899 0
M  V30 25 H -3.0331 0.9869 -2.334 0
M  V30 26 H -2.8714 -0.4192 -1.2629 0
M  V30 27 H 0.9697 2.3426 3.4718 0
M  V30 END ATOM
M  V30 BEGIN BOND
M  V30 1 2 1 2
M  V30 2 2 1 3
M  V30 3 1 1 4
M  V30 4 1 1 5
M  V30 5 1 4 6
M  V30 6 2 5 7
M  V30 7 1 5 8
M  V30 8 1 6 9
M  V30 9 1 6 10
M  V30 10 1 7 11
M  V30 11 2 8 12
M  V30 12 1 9 13
M  V30 13 1 10 14
M  V30 14 2 11 15
M  V30 15 1 7 9
M  V30 16 1 12 15
M  V30 17 1 13 14
M  V30 18 1 4 16
M  V30 19 1 6 17
M  V30 20 1 8 18
M  V30 21 1 10 19
M  V30 22 1 10 20
M  V30 23 1 11 21
M  V30 24 1 12 22
M  V30 25 1 13 23
M  V30 26 1 13 24
M  V30 27 1 14 25
M  V30 28 1 14 26
M  V30 29 1 15 27
M  V30 END BOND
M  V30 BEGIN COLLECTION
M  V30 MDLV30/STEABS ATOMS=(1 6)
M  V30 END COLLECTION
M  V30 END CTAB
M  END
>  <Column 1>
216

>  <level_0>
249

>  <index>
249

>  <Unnamed: 0>
249

>  <NO.>
250

>  <Name>
s 18986

>  <IUPAC_name>
(3as)-2-3-3a-4-tetrahydro-1h-pyrrolo[2-1-c][1-2-4]benzothiadiazine 5-5-dioxide

>  <SMILES>
O=S1(=O)N[C@H]2CCCN2c2ccccc21

>  <CID>
637863

>  <logBB>
-0.6

>  <BBB+/BBB->
BBB+

>  <Inchi>
InChI=1S/C10H12N2O2S/c13-15(14)9-5-2-1-4-8(9)12-7-3-6-10(12)11-15/h1-2-4-5-10-11H-3-6-7H2/t10-/m1/s1

>  <threshold>


>  <reference>
R18|R26|R27|

>  <group>
A

>  <Class>
1

>  <ABC>
12.16

>  <ABCGG>
10.59

>  <nAcid>
0

>  <nBase>
0

>  <nAromAtom>
6

>  <nAromBond>
6

>  <nAtom>
27

>  <nHeavyAtom>
15

>  <nSpiro>
0

>  <nBridgehead>
0

>  <nHetero>
5

>  <nN>
2

>  <nO>
2

>  <nF>
0

>  <BalabanJ>
1.87

>  <BertzCT>
497.9

>  <nBonds>
29

>  <nBondsO>
17

>  <nBondsS>
21

>  <nBondsD>
2

>  <nBondsT>
0

>  <nBondsA>
6

>  <nBondsM>
8

>  <nBondsKS>
24

>  <nBondsKD>
5

>  <RNCG>
0.29

>  <RPCG>
0.2

>  <FCSP3>
0.4

>  <SZ>
19.67

>  <Sm>
18.67

>  <Sv>
17.38

>  <Sse>
27.39

>  <Sp>
18.81

>  <Si>
30.41

>  <MZ>
0.73

>  <Mm>
0.69

>  <Mv>
0.64

>  <Mse>
1.01

>  <Mp>
0.7

>  <Mi>
1.13

>  <NsCH3>
0

>  <NdCH2>
0

>  <NssCH2>
3

>  <NtCH>
0

>  <NdsCH>
0

>  <NaaCH>
4

>  <NsssCH>
1

>  <NddC>
0

>  <NtsC>
0

>  <NdssC>
0

>  <NaasC>
2

>  <NaaaC>
0

>  <NssssC>
0

>  <NsNH3>
0

>  <NsNH2>
0

>  <NssNH2>
0

>  <NdNH>
0

>  <NssNH>
1

>  <NaaNH>
0

>  <NtN>
0

>  <NsssNH>
0

>  <NdsN>
0

>  <NaaN>
0

>  <NsssN>
1

>  <NddsN>
0

>  <NaasN>
0

>  <NssssN>
0

>  <NsOH>
0

>  <NdO>
2

>  <NssO>
0

>  <NaaO>
0

>  <NsF>
0

>  <NsSiH3>
0

>  <NssSiH2>
0

>  <NsssSiH>
0

>  <NssssSi>
0

>  <NsPH2>
0

>  <NssPH>
0

>  <NsssP>
0

>  <NdsssP>
0

>  <NsssssP>
0

>  <NsSH>
0

>  <NdS>
0

>  <NssS>
0

>  <NaaS>
0

>  <NdssS>
0

>  <NddssS>
1

>  <NsCl>
0

>  <NsBr>
0

>  <NsI>
0

>  <fragCpx>
79.05

>  <fMF>
0.48

>  <nHBAcc>
3

>  <nHBDon>
1

>  <Kier1>
10.17

>  <Kier2>
3.5

>  <Lipinski>
1

>  <GhoseFilter>
1

>  <FilterItLogS>
-1.98

>  <VMcGowan>
154.33

>  <LabuteASA>
88.95

>  <PEOE_VSA1>
4.9

>  <PEOE_VSA2>
0

>  <PEOE_VSA3>
8.42

>  <PEOE_VSA4>
4.72

>  <PEOE_VSA5>
0

>  <PEOE_VSA6>
12.13

>  <PEOE_VSA7>
24.97

>  <PEOE_VSA8>
6.54

>  <PEOE_VSA9>
11.85

>  <PEOE_VSA10>
4.9

>  <PEOE_VSA11>
0

>  <PEOE_VSA12>
10.02

>  <PEOE_VSA13>
0

>  <SMR_VSA1>
8.42

>  <SMR_VSA2>
0

>  <SMR_VSA3>
4.72

>  <SMR_VSA4>
0

>  <SMR_VSA5>
23.9

>  <SMR_VSA6>
11.44

>  <SMR_VSA7>
24.27

>  <SMR_VSA8>
0

>  <SMR_VSA9>
0

>  <SlogP_VSA1>
9.62

>  <SlogP_VSA2>
21.13

>  <SlogP_VSA3>
10.02

>  <SlogP_VSA4>
0

>  <SlogP_VSA5>
12.84

>  <SlogP_VSA6>
29.16

>  <SlogP_VSA7>
0

>  <SlogP_VSA8>
0

>  <SlogP_VSA9>
0

>  <SlogP_VSA10>
5.69

>  <SlogP_VSA11>
0

>  <EState_VSA1>
10.02

>  <EState_VSA2>
6.17

>  <EState_VSA3>
4.9

>  <EState_VSA4>
25.07

>  <EState_VSA5>
0

>  <EState_VSA6>
12.13

>  <EState_VSA7>
12.13

>  <EState_VSA8>
9.62

>  <EState_VSA9>
0

>  <EState_VSA10>
8.42

>  <VSA_EState1>
26.46

>  <VSA_EState2>
2.54

>  <VSA_EState3>
0

>  <VSA_EState4>
0.85

>  <VSA_EState5>
0

>  <VSA_EState6>
7.18

>  <VSA_EState7>
1.9

>  <VSA_EState8>
0.93

>  <VSA_EState9>
-3.29

>  <apol>
31.41

>  <bpol>
20.97

>  <nRing>
3

>  <nHRing>
2

>  <naRing>
1

>  <naHRing>
0

>  <nARing 2>
2

>  <nAHRing 2>
2

>  <nFRing>
1

>  <nFHRing>
1

>  <nFaRing>
0

>  <nFaHRing>
0

>  <nFARing 2>
1

>  <nFAHRing 2>
1

>  <nRot>
0

>  <SLogP>
0.9

>  <SMR>
57.13

>  <TopoPSA(NO)>
49.41

>  <TopoPSA>
57.79

>  <JGI1>
0.21

>  <JGI2>
0.09

>  <JGI3>
0.07

>  <JGI4>
0.05

>  <JGI5>
0.03

>  <Diameter>
6

>  <Radius>
3

>  <TMWC10>
105.18

>  <TSRW10>
61.82

>  <MW>
224.06

>  <AMW>
8.3

>  <WPath>
309

>  <WPol>
25

>  <Zagreb1>
86

>  <Zagreb2>
105

>  <mZagreb2>
3.13

>  <yes>


>  <nAR-cont>
1

>  <nHA-cont>
0.92539861

>  <MWHBN>
0.267225455

>  <MWHBN-cont>
0.926305333

>  <TPSA-cont>
0.596589915

>  <pka_cont>
0.97

>  <yes.1>


>  <BBB_SCORE>
4.993036439

>  <MMFF94 Energy>
-112.07

$$$$
Compound 167
Actelion Java MolfileCreator 2.0

  0  0  0  0  0  0              0 V3000
M  V30 BEGIN CTAB
M  V30 COUNTS 82 88 0 0 0
M  V30 BEGIN ATOM
M  V30 1 Br 3.0757 0.2425 -8.516 0
M  V30 2 C 2.0869 0.8411 -7.012 0
M  V30 3 N 1.4851 2.0705 -6.9124 0
M  V30 4 C 1.8517 0.1491 -5.8507 0
M  V30 5 C 0.8585 2.1932 -5.6912 0
M  V30 6 C 1.0824 0.999 -5.0236 0
M  V30 7 C 2.2414 -1.1995 -5.3506 0
M  V30 8 C 0.1242 3.2298 -5.1115 0
M  V30 9 C 0.5854 0.7704 -3.7338 0
M  V30 10 C 1.2634 -1.6871 -4.2136 0 CFG=2
M  V30 11 C -0.3802 3.0039 -3.8208 0
M  V30 12 C 0.9218 -0.5628 -3.1835 0
M  V30 13 C -0.158 1.7978 -3.1407 0
M  V30 14 N 1.8099 -2.9218 -3.5687 0
M  V30 15 C 0.9526 -0.7719 -1.854 0
M  V30 16 C 1.0607 -3.2356 -2.3341 0
M  V30 17 C 1.7544 -4.0745 -4.4731 0
M  V30 18 C 1.2519 -2.1336 -1.2788 0 CFG=2
M  V30 19 C 0.3459 -2.396 -0.0687 0
M  V30 20 O -0.6132 -3.1595 -0.0982 0
M  V30 21 N 0.7132 -1.6807 1.0508 0
M  V30 22 C 0.0319 -1.7653 2.3316 0 CFG=2
M  V30 23 O -1.3485 -1.4008 2.1439 0
M  V30 24 C 0.5748 -0.6245 3.2176 0
M  V30 25 C 0.1158 -3.1597 2.9957 0
M  V30 26 C -1.5021 -0.0151 2.41 0
M  V30 27 O 1.6753 -0.553 3.7402 0
M  V30 28 N -0.3722 0.3682 3.196 0
M  V30 29 C 1.5483 -3.6775 3.1572 0
M  V30 30 C -0.6081 -3.2043 4.3486 0
M  V30 31 C -2.7827 0.2629 3.1921 0 CFG=1
M  V30 32 C -0.3528 1.6178 3.9598 0
M  V30 33 N -2.8342 1.6406 3.6603 0
M  V30 34 C -4.0781 0.1079 2.4004 0
M  V30 35 C -1.7269 2.3568 4.0627 0
M  V30 36 C 0.7569 2.5956 3.5166 0
M  V30 37 C -4.1746 2.1876 3.5928 0
M  V30 38 C -5.0429 1.0026 3.1812 0
M  V30 39 O -1.8252 3.4991 4.5088 0
M  V30 40 C 0.6014 3.1912 2.0988 0
M  V30 41 C 1.2911 4.5589 2.034 0
M  V30 42 C 1.1998 2.2888 1.0184 0
M  V30 43 H 1.5067 2.7805 -7.6296 0
M  V30 44 H 3.2669 -1.1477 -4.9628 0
M  V30 45 H 2.2331 -1.9091 -6.1848 0
M  V30 46 H -0.0541 4.1668 -5.6279 0
M  V30 47 H 0.3013 -1.9386 -4.6883 0
M  V30 48 H -0.9625 3.7861 -3.337 0
M  V30 49 H -0.5842 1.669 -2.1502 0
M  V30 50 H 0.7665 0.0377 -1.1575 0
M  V30 51 H 1.4278 -4.1775 -1.9048 0
M  V30 52 H -0.0032 -3.3892 -2.5642 0
M  V30 53 H 2.1354 -4.9726 -3.9731 0
M  V30 54 H 0.7349 -4.2827 -4.8169 0
M  V30 55 H 2.3952 -3.9284 -5.3474 0
M  V30 56 H 2.2928 -2.1407 -0.9285 0
M  V30 57 H 1.5689 -1.1391 1.0237 0
M  V30 58 H -0.4143 -3.8739 2.3522 0
M  V30 59 H -1.4777 0.5439 1.4674 0
M  V30 60 H 1.5409 -4.7024 3.5445 0
M  V30 61 H 2.0782 -3.6967 2.1999 0
M  V30 62 H 2.1269 -3.0684 3.8577 0
M  V30 63 H -0.5978 -4.2213 4.756 0
M  V30 64 H -1.6558 -2.903 4.2491 0
M  V30 65 H -0.1318 -2.548 5.0842 0
M  V30 66 H -2.8265 -0.3766 4.0847 0
M  V30 67 H -0.1136 1.3165 4.9893 0
M  V30 68 H -4.4168 -0.9303 2.3444 0
M  V30 69 H -3.9644 0.4915 1.3793 0
M  V30 70 H 1.7369 2.1104 3.6029 0
M  V30 71 H 0.7716 3.4189 4.2438 0
M  V30 72 H -4.1801 2.9768 2.8333 0
M  V30 73 H -4.4643 2.6195 4.5552 0
M  V30 74 H -5.397 0.4717 4.0733 0
M  V30 75 H -5.9151 1.3041 2.5948 0
M  V30 76 H -0.4597 3.347 1.8725 0
M  V30 77 H 0.8446 5.2542 2.7531 0
M  V30 78 H 2.3599 4.4762 2.2589 0
M  V30 79 H 1.1864 5.0022 1.0379 0
M  V30 80 H 0.6761 1.3351 0.9534 0
M  V30 81 H 2.2577 2.0818 1.2121 0
M  V30 82 H 1.1262 2.7628 0.0334 0
M  V30 END ATOM
M  V30 BEGIN BOND
M  V30 1 1 1 2
M  V30 2 1 2 3
M  V30 3 2 2 4
M  V30 4 1 3 5
M  V30 5 1 4 6
M  V30 6 1 4 7
M  V30 7 1 5 8
M  V30 8 1 6 9
M  V30 9 1 7 10
M  V30 10 2 8 11
M  V30 11 1 9 12
M  V30 12 2 9 13
M  V30 13 1 10 14
M  V30 14 2 12 15
M  V30 15 1 14 16
M  V30 16 1 14 17
M  V30 17 1 15 18
M  V30 18 1 18 19
M  V30 19 2 19 20
M  V30 20 1 19 21
M  V30 21 1 21 22
M  V30 22 1 22 23
M  V30 23 1 22 24
M  V30 24 1 22 25
M  V30 25 1 23 26
M  V30 26 2 24 27
M  V30 27 1 24 28
M  V30 28 1 25 29
M  V30 29 1 25 30
M  V30 30 1 26 31
M  V30 31 1 28 32
M  V30 32 1 31 33
M  V30 33 1 31 34
M  V30 34 1 32 35
M  V30 35 1 32 36
M  V30 36 1 33 37
M  V30 37 1 34 38
M  V30 38 2 35 39
M  V30 39 1 36 40
M  V30 40 1 40 41
M  V30 41 1 40 42
M  V30 42 2 5 6
M  V30 43 1 10 12
M  V30 44 1 11 13
M  V30 45 1 16 18
M  V30 46 1 26 28
M  V30 47 1 33 35
M  V30 48 1 37 38
M  V30 49 1 3 43
M  V30 50 1 7 44
M  V30 51 1 7 45
M  V30 52 1 8 46
M  V30 53 1 10 47
M  V30 54 1 11 48
M  V30 55 1 13 49
M  V30 56 1 15 50
M  V30 57 1 16 51
M  V30 58 1 16 52
M  V30 59 1 17 53
M  V30 60 1 17 54
M  V30 61 1 17 55
M  V30 62 1 18 56
M  V30 63 1 21 57
M  V30 64 1 25 58
M  V30 65 1 26 59
M  V30 66 1 29 60
M  V30 67 1 29 61
M  V30 68 1 29 62
M  V30 69 1 30 63
M  V30 70 1 30 64
M  V30 71 1 30 65
M  V30 72 1 31 66
M  V30 73 1 32 67
M  V30 74 1 34 68
M  V30 75 1 34 69
M  V30 76 1 36 70
M  V30 77 1 36 71
M  V30 78 1 37 72
M  V30 79 1 37 73
M  V30 80 1 38 74
M  V30 81 1 38 75
M  V30 82 1 40 76
M  V30 83 1 41 77
M  V30 84 1 41 78
M  V30 85 1 41 79
M  V30 86 1 42 80
M  V30 87 1 42 81
M  V30 88 1 42 82
M  V30 END BOND
M  V30 BEGIN COLLECTION
M  V30 MDLV30/STEABS ATOMS=(4 10 18 22 31)
M  V30 END COLLECTION
M  V30 END CTAB
M  END
>  <Column 1>
217

>  <level_0>
250

>  <index>
250

>  <Unnamed: 0>
250

>  <NO.>
251

>  <Name>
bromocriptine

>  <IUPAC_name>


>  <SMILES>
CC(C)CC1C(=O)N2CCC[C@H]2C2O[C@](NC(=O)[C@@H]3C=C4c5cccc6[nH]c(Br)c(c56)C[C@H]4N(C)C3)(C(C)C)C(=O)N12

>  <CID>


>  <logBB>
-0.59

>  <BBB+/BBB->
BBB+

>  <Inchi>
InChI=1S/C32H40BrN5O4/c1-16(2)12-25-29(40)37-11-7-10-23(37)30-38(25)31(41)32(42-30-17(3)4)35-28(39)18-13-20-19-8-6-9-22-26(19)21(27(33)34-22)14-24(20)36(5)15-18/h6-8-9-13-16-18-23-25-30-34H-7-10-12-14-15H2-1-5H3-(H-35-39)/t18--23+-24--25?-30?-32-/m1/s1

>  <threshold>


>  <reference>
R18|R26|R27|

>  <group>
A

>  <Class>
1

>  <ABC>
34.2

>  <ABCGG>
26.4

>  <nAcid>
0

>  <nBase>
1

>  <nAromAtom>
9

>  <nAromBond>
10

>  <nAtom>
82

>  <nHeavyAtom>
42

>  <nSpiro>
0

>  <nBridgehead>
0

>  <nHetero>
10

>  <nN>
5

>  <nO>
4

>  <nF>
0

>  <BalabanJ>
1.13

>  <BertzCT>
1515.54

>  <nBonds>
88

>  <nBondsO>
48

>  <nBondsS>
74

>  <nBondsD>
4

>  <nBondsT>
0

>  <nBondsA>
10

>  <nBondsM>
14

>  <nBondsKS>
80

>  <nBondsKD>
8

>  <RNCG>
0.1

>  <RPCG>
0.08

>  <FCSP3>
0.59

>  <SZ>
55.67

>  <Sm>
53.17

>  <Sv>
50.77

>  <Sse>
82.07

>  <Sp>
55.01

>  <Si>
92.65

>  <MZ>
0.68

>  <Mm>
0.65

>  <Mv>
0.62

>  <Mse>
1

>  <Mp>
0.67

>  <Mi>
1.13

>  <NsCH3>
5

>  <NdCH2>
0

>  <NssCH2>
6

>  <NtCH>
0

>  <NdsCH>
1

>  <NaaCH>
3

>  <NsssCH>
7

>  <NddC>
0

>  <NtsC>
0

>  <NdssC>
4

>  <NaasC>
3

>  <NaaaC>
2

>  <NssssC>
1

>  <NsNH3>
0

>  <NsNH2>
0

>  <NssNH2>
0

>  <NdNH>
0

>  <NssNH>
1

>  <NaaNH>
1

>  <NtN>
0

>  <NsssNH>
0

>  <NdsN>
0

>  <NaaN>
0

>  <NsssN>
3

>  <NddsN>
0

>  <NaasN>
0

>  <NssssN>
0

>  <NsOH>
0

>  <NdO>
3

>  <NssO>
1

>  <NaaO>
0

>  <NsF>
0

>  <NsSiH3>
0

>  <NssSiH2>
0

>  <NsssSiH>
0

>  <NssssSi>
0

>  <NsPH2>
0

>  <NssPH>
0

>  <NsssP>
0

>  <NdsssP>
0

>  <NsssssP>
0

>  <NsSH>
0

>  <NdS>
0

>  <NssS>
0

>  <NaaS>
0

>  <NdssS>
0

>  <NddssS>
0

>  <NsCl>
0

>  <NsBr>
1

>  <NsI>
0

>  <fragCpx>
582.1

>  <fMF>
0.37

>  <nHBAcc>
5

>  <nHBDon>
2

>  <Kier1>
30.64

>  <Kier2>
11.36

>  <Lipinski>
0

>  <GhoseFilter>
0

>  <FilterItLogS>
-6.03

>  <VMcGowan>
442.2

>  <LabuteASA>
254.66

>  <PEOE_VSA1>
19.94

>  <PEOE_VSA2>
24.18

>  <PEOE_VSA3>
0

>  <PEOE_VSA4>
0

>  <PEOE_VSA5>
0

>  <PEOE_VSA6>
45.9

>  <PEOE_VSA7>
77.35

>  <PEOE_VSA8>
35.95

>  <PEOE_VSA9>
16.56

>  <PEOE_VSA10>
6.04

>  <PEOE_VSA11>
6.23

>  <PEOE_VSA12>
17.54

>  <PEOE_VSA13>
5.91

>  <SMR_VSA1>
19.12

>  <SMR_VSA2>
0

>  <SMR_VSA3>
25

>  <SMR_VSA4>
17.75

>  <SMR_VSA5>
83.46

>  <SMR_VSA6>
20.14

>  <SMR_VSA7>
40.01

>  <SMR_VSA8>
0

>  <SMR_VSA9>
0

>  <SlogP_VSA1>
5.32

>  <SlogP_VSA2>
87.62

>  <SlogP_VSA3>
25.54

>  <SlogP_VSA4>
17.75

>  <SlogP_VSA5>
58.08

>  <SlogP_VSA6>
28.88

>  <SlogP_VSA7>
0

>  <SlogP_VSA8>
16.48

>  <SlogP_VSA9>
0

>  <SlogP_VSA10>
0

>  <SlogP_VSA11>
0

>  <EState_VSA1>
23.91

>  <EState_VSA2>
41.64

>  <EState_VSA3>
19.51

>  <EState_VSA4>
40.52

>  <EState_VSA5>
10.95

>  <EState_VSA6>
4.9

>  <EState_VSA7>
24.81

>  <EState_VSA8>
70.23

>  <EState_VSA9>
4.74

>  <EState_VSA10>
14.38

>  <VSA_EState1>
7.71

>  <VSA_EState2>
51.43

>  <VSA_EState3>
4.34

>  <VSA_EState4>
3.12

>  <VSA_EState5>
-1.06

>  <VSA_EState6>
5.67

>  <VSA_EState7>
4.65

>  <VSA_EState8>
9.19

>  <VSA_EState9>
2.07

>  <apol>
91.87

>  <bpol>
52.12

>  <nRing>
7

>  <nHRing>
5

>  <naRing>
2

>  <naHRing>
1

>  <nARing 2>
5

>  <nAHRing 2>
4

>  <nFRing>
2

>  <nFHRing>
2

>  <nFaRing>
0

>  <nFaHRing>
0

>  <nFARing 2>
2

>  <nFAHRing 2>
2

>  <nRot>
5

>  <SLogP>
3.87

>  <SMR>
163

>  <TopoPSA(NO)>
97.98

>  <TopoPSA>
97.98

>  <JGI1>
0.21

>  <JGI2>
0.09

>  <JGI3>
0.06

>  <JGI4>
0.05

>  <JGI5>
0.03

>  <Diameter>
16

>  <Radius>
8

>  <TMWC10>
173.87

>  <TSRW10>
98.04

>  <MW>
637.23

>  <AMW>
7.77

>  <WPath>
5682

>  <WPol>
87

>  <Zagreb1>
248

>  <Zagreb2>
314

>  <mZagreb2>
8.75

>  <yes>


>  <nAR-cont>
0

>  <nHA-cont>
0.236794392

>  <MWHBN>
0.277300041

>  <MWHBN-cont>
0.902825565

>  <TPSA-cont>
0.316038758

>  <pka_cont>
0.97

>  <yes.1>


>  <BBB_SCORE>
2.708110256

>  <MMFF94 Energy>
143.94

$$$$
Compound 168
Actelion Java MolfileCreator 2.0

  0  0  0  0  0  0              0 V3000
M  V30 BEGIN CTAB
M  V30 COUNTS 38 40 0 0 0
M  V30 BEGIN ATOM
M  V30 1 O -2.3984 2.7986 -2.1584 0
M  V30 2 N -2.3465 2.7071 -0.9228 0 CHG=1
M  V30 3 O -2.0857 3.6357 -0.1441 0 CHG=-1
M  V30 4 C -2.6278 1.432 -0.3579 0
M  V30 5 C -1.6402 0.6663 0.1573 0
M  V30 6 C -4.035 1.0554 -0.2359 0
M  V30 7 N -1.9765 -0.5054 0.8264 0
M  V30 8 N -0.2682 0.9761 0.094 0
M  V30 9 O -4.9775 1.7198 -0.6502 0
M  V30 10 N -4.2451 -0.1323 0.4085 0
M  V30 11 C -3.2153 -0.86 0.922 0
M  V30 12 C 0.4615 1.1864 -1.1708 0
M  V30 13 C 0.5917 0.7663 1.2758 0
M  V30 14 C -3.585 -2.1304 1.6319 0
M  V30 15 C 1.1148 -0.1069 -1.6753 0
M  V30 16 C 1.2723 -0.6065 1.2782 0
M  V30 17 C 2.4257 -0.4278 -0.9915 0
M  V30 18 C 2.5001 -0.6635 0.3946 0
M  V30 19 C 3.5968 -0.5099 -1.7645 0
M  V30 20 C 3.7428 -0.9772 0.9715 0
M  V30 21 C 4.8235 -0.8153 -1.1761 0
M  V30 22 C 4.8964 -1.0493 0.192 0
M  V30 23 H -5.2079 -0.4249 0.5057 0
M  V30 24 H 1.2052 1.9828 -1.0435 0
M  V30 25 H -0.2223 1.5264 -1.9521 0
M  V30 26 H -0.0202 0.8604 2.1825 0
M  V30 27 H 1.336 1.5709 1.3343 0
M  V30 28 H -3.2473 -2.0711 2.6708 0
M  V30 29 H -4.6638 -2.3057 1.6157 0
M  V30 30 H -3.0777 -2.9713 1.1501 0
M  V30 31 H 0.436 -0.9625 -1.5711 0
M  V30 32 H 1.2941 0.0079 -2.7521 0
M  V30 33 H 1.566 -0.8304 2.3117 0
M  V30 34 H 0.5841 -1.4054 0.9787 0
M  V30 35 H 3.5621 -0.3366 -2.8381 0
M  V30 36 H 3.8215 -1.1697 2.0396 0
M  V30 37 H 5.7201 -0.8738 -1.7873 0
M  V30 38 H 5.8501 -1.2914 0.6531 0
M  V30 END ATOM
M  V30 BEGIN BOND
M  V30 1 2 1 2
M  V30 2 1 2 3
M  V30 3 1 2 4
M  V30 4 2 4 5
M  V30 5 1 4 6
M  V30 6 1 5 7
M  V30 7 1 5 8
M  V30 8 2 6 9
M  V30 9 1 6 10
M  V30 10 2 7 11
M  V30 11 1 8 12
M  V30 12 1 8 13
M  V30 13 1 11 14
M  V30 14 1 12 15
M  V30 15 1 13 16
M  V30 16 1 15 17
M  V30 17 1 16 18
M  V30 18 1 17 19
M  V30 19 1 18 20
M  V30 20 2 19 21
M  V30 21 2 20 22
M  V30 22 1 10 11
M  V30 23 2 17 18
M  V30 24 1 21 22
M  V30 25 1 10 23
M  V30 26 1 12 24
M  V30 27 1 12 25
M  V30 28 1 13 26
M  V30 29 1 13 27
M  V30 30 1 14 28
M  V30 31 1 14 29
M  V30 32 1 14 30
M  V30 33 1 15 31
M  V30 34 1 15 32
M  V30 35 1 16 33
M  V30 36 1 16 34
M  V30 37 1 19 35
M  V30 38 1 20 36
M  V30 39 1 21 37
M  V30 40 1 22 38
M  V30 END BOND
M  V30 END CTAB
M  END
>  <Column 1>
218

>  <level_0>
251

>  <index>
251

>  <Unnamed: 0>
251

>  <NO.>
252

>  <Name>
schembl6949469

>  <IUPAC_name>
2-methyl-5-nitro-4-(1-2-4-5-tetrahydro-3-benzazepin-3-yl)-1h-pyrimidin-6-one

>  <SMILES>
Cc1nc(N2CCc3ccccc3CC2)c([N+](=O)[O-])c(=O)[nH]1

>  <CID>
135819130

>  <logBB>
-0.59

>  <BBB+/BBB->
BBB+

>  <Inchi>
InChI=1S/C15H16N4O3/c1-10-16-14(13(19(21)22)15(20)17-10)18-8-6-11-4-2-3-5-12(11)7-9-18/h2-5H-6-9H2-1H3-(H-16-17-20)

>  <threshold>


>  <reference>
R47|

>  <group>
A

>  <Class>
1

>  <ABC>
17.21

>  <ABCGG>
14.05

>  <nAcid>
0

>  <nBase>
0

>  <nAromAtom>
12

>  <nAromBond>
12

>  <nAtom>
38

>  <nHeavyAtom>
22

>  <nSpiro>
0

>  <nBridgehead>
0

>  <nHetero>
7

>  <nN>
4

>  <nO>
3

>  <nF>
0

>  <BalabanJ>
1.7

>  <BertzCT>
757.6

>  <nBonds>
40

>  <nBondsO>
24

>  <nBondsS>
26

>  <nBondsD>
2

>  <nBondsT>
0

>  <nBondsA>
12

>  <nBondsM>
14

>  <nBondsKS>
33

>  <nBondsKD>
7

>  <RNCG>
0.18

>  <RPCG>
0.19

>  <FCSP3>
0.33

>  <SZ>
26.33

>  <Sm>
25

>  <Sv>
24.51

>  <Sse>
38.75

>  <Sp>
25.46

>  <Si>
43.11

>  <MZ>
0.69

>  <Mm>
0.66

>  <Mv>
0.65

>  <Mse>
1.02

>  <Mp>
0.67

>  <Mi>
1.13

>  <NsCH3>
1

>  <NdCH2>
0

>  <NssCH2>
4

>  <NtCH>
0

>  <NdsCH>
0

>  <NaaCH>
4

>  <NsssCH>
0

>  <NddC>
0

>  <NtsC>
0

>  <NdssC>
0

>  <NaasC>
5

>  <NaaaC>
0

>  <NssssC>
0

>  <NsNH3>
0

>  <NsNH2>
0

>  <NssNH2>
0

>  <NdNH>
0

>  <NssNH>
0

>  <NaaNH>
1

>  <NtN>
0

>  <NsssNH>
0

>  <NdsN>
0

>  <NaaN>
1

>  <NsssN>
1

>  <NddsN>
1

>  <NaasN>
0

>  <NssssN>
0

>  <NsOH>
0

>  <NdO>
2

>  <NssO>
0

>  <NaaO>
0

>  <NsF>
0

>  <NsSiH3>
0

>  <NssSiH2>
0

>  <NsssSiH>
0

>  <NssssSi>
0

>  <NsPH2>
0

>  <NssPH>
0

>  <NsssP>
0

>  <NdsssP>
0

>  <NsssssP>
0

>  <NsSH>
0

>  <NdS>
0

>  <NssS>
0

>  <NaaS>
0

>  <NdssS>
0

>  <NddssS>
0

>  <NsCl>
0

>  <NsBr>
0

>  <NsI>
0

>  <fragCpx>
114.07

>  <fMF>
0.45

>  <nHBAcc>
5

>  <nHBDon>
1

>  <Kier1>
16.84

>  <Kier2>
7.27

>  <Lipinski>
1

>  <GhoseFilter>
1

>  <FilterItLogS>
-4.3

>  <VMcGowan>
217.06

>  <LabuteASA>
126.32

>  <PEOE_VSA1>
9.88

>  <PEOE_VSA2>
14.91

>  <PEOE_VSA3>
4.98

>  <PEOE_VSA4>
0

>  <PEOE_VSA5>
0

>  <PEOE_VSA6>
24.27

>  <PEOE_VSA7>
30.89

>  <PEOE_VSA8>
13.09

>  <PEOE_VSA9>
4.92

>  <PEOE_VSA10>
5.82

>  <PEOE_VSA11>
0

>  <PEOE_VSA12>
5.82

>  <PEOE_VSA13>
0

>  <SMR_VSA1>
4.92

>  <SMR_VSA2>
0

>  <SMR_VSA3>
9.97

>  <SMR_VSA4>
0

>  <SMR_VSA5>
19.77

>  <SMR_VSA6>
17.99

>  <SMR_VSA7>
61.68

>  <SMR_VSA8>
0

>  <SMR_VSA9>
0

>  <SlogP_VSA1>
10.46

>  <SlogP_VSA2>
27.98

>  <SlogP_VSA3>
12.84

>  <SlogP_VSA4>
17.04

>  <SlogP_VSA5>
16.95

>  <SlogP_VSA6>
29.06

>  <SlogP_VSA7>
0

>  <SlogP_VSA8>
0

>  <SlogP_VSA9>
0

>  <SlogP_VSA10>
11.51

>  <SlogP_VSA11>
0

>  <EState_VSA1>
16.17

>  <EState_VSA2>
5.82

>  <EState_VSA3>
18.91

>  <EState_VSA4>
12.84

>  <EState_VSA5>
11.13

>  <EState_VSA6>
6.92

>  <EState_VSA7>
17.03

>  <EState_VSA8>
22.1

>  <EState_VSA9>
0

>  <EState_VSA10>
14.91

>  <VSA_EState1>
0

>  <VSA_EState2>
30.89

>  <VSA_EState3>
11.22

>  <VSA_EState4>
1.31

>  <VSA_EState5>
0.55

>  <VSA_EState6>
8.13

>  <VSA_EState7>
1.56

>  <VSA_EState8>
2.84

>  <VSA_EState9>
0

>  <apol>
42.52

>  <bpol>
21.51

>  <nRing>
3

>  <nHRing>
2

>  <naRing>
2

>  <naHRing>
1

>  <nARing 2>
1

>  <nAHRing 2>
1

>  <nFRing>
1

>  <nFHRing>
1

>  <nFaRing>
0

>  <nFaHRing>
0

>  <nFARing 2>
1

>  <nFAHRing 2>
1

>  <nRot>
2

>  <SLogP>
1.59

>  <SMR>
82.31

>  <TopoPSA(NO)>
92.13

>  <TopoPSA>
92.13

>  <JGI1>
0.19

>  <JGI2>
0.08

>  <JGI3>
0.05

>  <JGI4>
0.04

>  <JGI5>
0.03

>  <Diameter>
9

>  <Radius>
5

>  <TMWC10>
120.45

>  <TSRW10>
64.14

>  <MW>
300.12

>  <AMW>
7.9

>  <WPath>
996

>  <WPol>
39

>  <Zagreb1>
116

>  <Zagreb2>
137

>  <mZagreb2>
4.81

>  <yes>


>  <nAR-cont>
0.816016

>  <nHA-cont>
0.983774276

>  <MWHBN>
0.3463409

>  <MWHBN-cont>
0.683867955

>  <TPSA-cont>
0.356875391

>  <pka_cont>
0.97

>  <yes.1>


>  <BBB_SCORE>
4.02434299

>  <MMFF94 Energy>
17.397

$$$$
Compound 169
Actelion Java MolfileCreator 2.0

  0  0  0  0  0  0              0 V3000
M  V30 BEGIN CTAB
M  V30 COUNTS 33 35 0 0 0
M  V30 BEGIN ATOM
M  V30 1 O -2.2322 2.0726 1.5143 0
M  V30 2 C -1.0365 1.8533 1.3298 0
M  V30 3 N -0.4965 0.6825 0.8022 0
M  V30 4 N -0.1514 2.843 1.6394 0
M  V30 5 C 0.8935 0.457 0.6564 0
M  V30 6 C -1.332 -0.3942 0.3856 0
M  V30 7 C 1.4704 0.5111 -0.6219 0
M  V30 8 C 1.6819 0.2148 1.788 0
M  V30 9 C -1.2625 -0.9616 -0.9051 0
M  V30 10 C -2.2508 -0.9112 1.3175 0
M  V30 11 C 2.8545 0.3301 -0.7441 0
M  V30 12 C 0.5545 0.7169 -1.8048 0 CFG=2
M  V30 13 C 3.057 0.0359 1.6499 0
M  V30 14 C -2.1195 -2.0409 -1.2108 0
M  V30 15 C -0.329 -0.5212 -2.017 0
M  V30 16 C -3.0917 -1.9742 0.9905 0
M  V30 17 C 3.6422 0.0975 0.3861 0
M  V30 18 O 1.3128 0.9629 -2.9939 0
M  V30 19 C -3.0245 -2.5409 -0.2748 0
M  V30 20 H -0.528 3.7022 2.0131 0
M  V30 21 H 0.8383 2.7756 1.4593 0
M  V30 22 H 1.2261 0.1636 2.7737 0
M  V30 23 H -2.3185 -0.4802 2.3145 0
M  V30 24 H 3.327 0.3601 -1.724 0
M  V30 25 H -0.0557 1.6135 -1.6397 0
M  V30 26 H 3.6722 -0.155 2.5256 0
M  V30 27 H -2.0831 -2.502 -2.1968 0
M  V30 28 H 0.3193 -1.3739 -2.2661 0
M  V30 29 H -0.9375 -0.3414 -2.9146 0
M  V30 30 H -3.7971 -2.3537 1.7248 0
M  V30 31 H 4.7145 -0.0455 0.2759 0
M  V30 32 H 0.6777 1.2193 -3.6841 0
M  V30 33 H -3.6764 -3.3704 -0.5359 0
M  V30 END ATOM
M  V30 BEGIN BOND
M  V30 1 2 1 2
M  V30 2 1 2 3
M  V30 3 1 2 4
M  V30 4 1 3 5
M  V30 5 1 3 6
M  V30 6 2 5 7
M  V30 7 1 5 8
M  V30 8 2 6 9
M  V30 9 1 6 10
M  V30 10 1 7 11
M  V30 11 1 7 12
M  V30 12 2 8 13
M  V30 13 1 9 14
M  V30 14 1 9 15
M  V30 15 2 10 16
M  V30 16 2 11 17
M  V30 17 1 12 18
M  V30 18 2 14 19
M  V30 19 1 12 15
M  V30 20 1 13 17
M  V30 21 1 16 19
M  V30 22 1 4 20
M  V30 23 1 4 21
M  V30 24 1 8 22
M  V30 25 1 10 23
M  V30 26 1 11 24
M  V30 27 1 12 25
M  V30 28 1 13 26
M  V30 29 1 14 27
M  V30 30 1 15 28
M  V30 31 1 15 29
M  V30 32 1 16 30
M  V30 33 1 17 31
M  V30 34 1 18 32
M  V30 35 1 19 33
M  V30 END BOND
M  V30 BEGIN COLLECTION
M  V30 MDLV30/STERAC1 ATOMS=(1 12)
M  V30 END COLLECTION
M  V30 END CTAB
M  END
>  <Column 1>
219

>  <level_0>
252

>  <index>
252

>  <Unnamed: 0>
252

>  <NO.>
253

>  <Name>
s-licarbizine

>  <IUPAC_name>
5-hydroxy-5-6-dihydrobenzo[b][1]benzazepine-11-carboxamide

>  <SMILES>
NC(=O)N1c2ccccc2CC(O)c2ccccc21

>  <CID>
114709

>  <logBB>
-0.59

>  <BBB+/BBB->
BBB+

>  <Inchi>
InChI=1S/C15H14N2O2/c16-15(19)17-12-7-3-1-5-10(12)9-14(18)11-6-2-4-8-13(11)17/h1-8-14-18H-9H2-(H2-16-19)

>  <threshold>


>  <reference>
R18|R26|R27|

>  <group>
A

>  <Class>
1

>  <ABC>
14.93

>  <ABCGG>
12.56

>  <nAcid>
0

>  <nBase>
0

>  <nAromAtom>
12

>  <nAromBond>
12

>  <nAtom>
33

>  <nHeavyAtom>
19

>  <nSpiro>
0

>  <nBridgehead>
0

>  <nHetero>
4

>  <nN>
2

>  <nO>
2

>  <nF>
0

>  <BalabanJ>
1.9

>  <BertzCT>
639.55

>  <nBonds>
35

>  <nBondsO>
21

>  <nBondsS>
22

>  <nBondsD>
1

>  <nBondsT>
0

>  <nBondsA>
12

>  <nBondsM>
13

>  <nBondsKS>
28

>  <nBondsKD>
7

>  <RNCG>
0.23

>  <RPCG>
0.19

>  <FCSP3>
0.13

>  <SZ>
22.33

>  <Sm>
21.17

>  <Sv>
21.74

>  <Sse>
33.2

>  <Sp>
22.87

>  <Si>
36.91

>  <MZ>
0.68

>  <Mm>
0.64

>  <Mv>
0.66

>  <Mse>
1.01

>  <Mp>
0.69

>  <Mi>
1.12

>  <NsCH3>
0

>  <NdCH2>
0

>  <NssCH2>
1

>  <NtCH>
0

>  <NdsCH>
0

>  <NaaCH>
8

>  <NsssCH>
1

>  <NddC>
0

>  <NtsC>
0

>  <NdssC>
1

>  <NaasC>
4

>  <NaaaC>
0

>  <NssssC>
0

>  <NsNH3>
0

>  <NsNH2>
1

>  <NssNH2>
0

>  <NdNH>
0

>  <NssNH>
0

>  <NaaNH>
0

>  <NtN>
0

>  <NsssNH>
0

>  <NdsN>
0

>  <NaaN>
0

>  <NsssN>
1

>  <NddsN>
0

>  <NaasN>
0

>  <NssssN>
0

>  <NsOH>
1

>  <NdO>
1

>  <NssO>
0

>  <NaaO>
0

>  <NsF>
0

>  <NsSiH3>
0

>  <NssSiH2>
0

>  <NsssSiH>
0

>  <NssssSi>
0

>  <NsPH2>
0

>  <NssPH>
0

>  <NsssP>
0

>  <NdsssP>
0

>  <NsssssP>
0

>  <NsSH>
0

>  <NdS>
0

>  <NssS>
0

>  <NaaS>
0

>  <NdssS>
0

>  <NddssS>
0

>  <NsCl>
0

>  <NsBr>
0

>  <NsI>
0

>  <fragCpx>
99.04

>  <fMF>
0.45

>  <nHBAcc>
2

>  <nHBDon>
2

>  <Kier1>
13.96

>  <Kier2>
5.78

>  <Lipinski>
1

>  <GhoseFilter>
1

>  <FilterItLogS>
-2.38

>  <VMcGowan>
191.23

>  <LabuteASA>
110.63

>  <PEOE_VSA1>
10.84

>  <PEOE_VSA2>
4.9

>  <PEOE_VSA3>
4.79

>  <PEOE_VSA4>
0

>  <PEOE_VSA5>
0

>  <PEOE_VSA6>
36.4

>  <PEOE_VSA7>
17.7

>  <PEOE_VSA8>
11.98

>  <PEOE_VSA9>
17.48

>  <PEOE_VSA10>
0

>  <PEOE_VSA11>
0

>  <PEOE_VSA12>
0

>  <PEOE_VSA13>
0

>  <SMR_VSA1>
9.9

>  <SMR_VSA2>
0

>  <SMR_VSA3>
0

>  <SMR_VSA4>
5.73

>  <SMR_VSA5>
12.52

>  <SMR_VSA6>
4.9

>  <SMR_VSA7>
59.66

>  <SMR_VSA8>
0

>  <SMR_VSA9>
0

>  <SlogP_VSA1>
10.63

>  <SlogP_VSA2>
11.14

>  <SlogP_VSA3>
6.42

>  <SlogP_VSA4>
0

>  <SlogP_VSA5>
17.23

>  <SlogP_VSA6>
48.53

>  <SlogP_VSA7>
0

>  <SlogP_VSA8>
0

>  <SlogP_VSA9>
0

>  <SlogP_VSA10>
16.17

>  <SlogP_VSA11>
0

>  <EState_VSA1>
12.14

>  <EState_VSA2>
0

>  <EState_VSA3>
12.11

>  <EState_VSA4>
16.81

>  <EState_VSA5>
4.9

>  <EState_VSA6>
6.07

>  <EState_VSA7>
42.46

>  <EState_VSA8>
0

>  <EState_VSA9>
5.73

>  <EState_VSA10>
9.9

>  <VSA_EState1>
0

>  <VSA_EState2>
13.27

>  <VSA_EState3>
10.31

>  <VSA_EState4>
8.53

>  <VSA_EState5>
0

>  <VSA_EState6>
14.24

>  <VSA_EState7>
-0.17

>  <VSA_EState8>
0

>  <VSA_EState9>
0

>  <apol>
38.19

>  <bpol>
16.05

>  <nRing>
3

>  <nHRing>
1

>  <naRing>
2

>  <naHRing>
0

>  <nARing 2>
1

>  <nAHRing 2>
1

>  <nFRing>
1

>  <nFHRing>
1

>  <nFaRing>
0

>  <nFaHRing>
0

>  <nFARing 2>
1

>  <nFAHRing 2>
1

>  <nRot>
0

>  <SLogP>
2.49

>  <SMR>
73.27

>  <TopoPSA(NO)>
66.56

>  <TopoPSA>
66.56

>  <JGI1>
0.14

>  <JGI2>
0.07

>  <JGI3>
0.05

>  <JGI4>
0.05

>  <JGI5>
0.02

>  <Diameter>
7

>  <Radius>
4

>  <TMWC10>
114.08

>  <TSRW10>
60.91

>  <MW>
254.11

>  <AMW>
7.7

>  <WPath>
593

>  <WPol>
36

>  <Zagreb1>
102

>  <Zagreb2>
123

>  <mZagreb2>
4.17

>  <yes>


>  <nAR-cont>
0.816016

>  <nHA-cont>
0.998649058

>  <MWHBN>
0.250927993

>  <MWHBN-cont>
0.958203114

>  <TPSA-cont>
0.535369869

>  <pka_cont>
0.97

>  <yes.1>


>  <BBB_SCORE>
4.807709466

>  <MMFF94 Energy>
20.485

$$$$
Compound 170
Actelion Java MolfileCreator 2.0

  0  0  0  0  0  0              0 V3000
M  V30 BEGIN CTAB
M  V30 COUNTS 35 36 0 0 0
M  V30 BEGIN ATOM
M  V30 1 O 0.157 -2.4371 -0.9428 0
M  V30 2 C -0.0216 -1.2289 -0.8445 0
M  V30 3 N -0.2882 -0.3509 -1.8754 0
M  V30 4 C 0.0616 -0.6077 0.5071 0
M  V30 5 C -0.3917 -0.6656 -3.2489 0
M  V30 6 C 0.9815 -1.1254 1.4239 0
M  V30 7 C -0.7713 0.4483 0.8912 0
M  V30 8 C -1.0958 0.2386 -4.0733 0
M  V30 9 C 0.2424 -1.775 -3.8148 0
M  V30 10 C 1.0926 -0.5724 2.7049 0
M  V30 11 C -0.6594 0.9951 2.175 0
M  V30 12 N -1.7302 1.3667 -3.5395 0
M  V30 13 C -1.0758 0.0506 -5.4596 0
M  V30 14 C 0.2086 -1.9758 -5.1957 0
M  V30 15 C 0.2809 0.4973 3.0865 0
M  V30 16 C -0.4396 -1.0588 -6.0181 0
M  V30 17 N 0.3235 1.092 4.363 0
M  V30 18 C 1.3199 0.95 5.3127 0
M  V30 19 O 2.3621 0.3164 5.1961 0
M  V30 20 C 1.0142 1.7188 6.5734 0
M  V30 21 H -0.3697 0.6374 -1.6778 0
M  V30 22 H 1.6186 -1.9632 1.1461 0
M  V30 23 H -1.5305 0.8371 0.2196 0
M  V30 24 H 0.7954 -2.4813 -3.2028 0
M  V30 25 H 1.816 -1.0104 3.387 0
M  V30 26 H -1.3191 1.814 2.4511 0
M  V30 27 H -2.2448 1.9603 -4.1788 0
M  V30 28 H -2.1216 1.2699 -2.6122 0
M  V30 29 H -1.573 0.7575 -6.1177 0
M  V30 30 H 0.7085 -2.8392 -5.6271 0
M  V30 31 H -0.4475 -1.2054 -7.0949 0
M  V30 32 H -0.4363 1.7205 4.591 0
M  V30 33 H 1.15 2.788 6.3897 0
M  V30 34 H 1.6908 1.4012 7.3717 0
M  V30 35 H -0.0145 1.5314 6.894 0
M  V30 END ATOM
M  V30 BEGIN BOND
M  V30 1 2 1 2
M  V30 2 1 2 3
M  V30 3 1 2 4
M  V30 4 1 3 5
M  V30 5 2 4 6
M  V30 6 1 4 7
M  V30 7 2 5 8
M  V30 8 1 5 9
M  V30 9 1 6 10
M  V30 10 2 7 11
M  V30 11 1 8 12
M  V30 12 1 8 13
M  V30 13 2 9 14
M  V30 14 2 10 15
M  V30 15 2 13 16
M  V30 16 1 15 17
M  V30 17 1 17 18
M  V30 18 2 18 19
M  V30 19 1 18 20
M  V30 20 1 11 15
M  V30 21 1 14 16
M  V30 22 1 3 21
M  V30 23 1 6 22
M  V30 24 1 7 23
M  V30 25 1 9 24
M  V30 26 1 10 25
M  V30 27 1 11 26
M  V30 28 1 12 27
M  V30 29 1 12 28
M  V30 30 1 13 29
M  V30 31 1 14 30
M  V30 32 1 16 31
M  V30 33 1 17 32
M  V30 34 1 20 33
M  V30 35 1 20 34
M  V30 36 1 20 35
M  V30 END BOND
M  V30 END CTAB
M  END
>  <Column 1>
221

>  <level_0>
254

>  <index>
254

>  <Unnamed: 0>
254

>  <NO.>
255

>  <Name>
tacedinaline

>  <IUPAC_name>
4-acetamido-n-(2-aminophenyl)benzamide

>  <SMILES>
CC(=O)Nc1ccc(C(=O)Nc2ccccc2N)cc1

>  <CID>
2746

>  <logBB>
-0.58

>  <BBB+/BBB->
BBB+

>  <Inchi>
InChI=1S/C15H15N3O2/c1-10(19)17-12-8-6-11(7-9-12)15(20)18-14-5-3-2-4-13(14)16/h2-9H-16H2-1H3-(H-17-19)(H-18-20)

>  <threshold>


>  <reference>
R47|

>  <group>
A

>  <Class>
1

>  <ABC>
15.21

>  <ABCGG>
12.43

>  <nAcid>
0

>  <nBase>
0

>  <nAromAtom>
12

>  <nAromBond>
12

>  <nAtom>
35

>  <nHeavyAtom>
20

>  <nSpiro>
0

>  <nBridgehead>
0

>  <nHetero>
5

>  <nN>
3

>  <nO>
2

>  <nF>
0

>  <BalabanJ>
1.72

>  <BertzCT>
635.82

>  <nBonds>
36

>  <nBondsO>
21

>  <nBondsS>
22

>  <nBondsD>
2

>  <nBondsT>
0

>  <nBondsA>
12

>  <nBondsM>
14

>  <nBondsKS>
28

>  <nBondsKD>
8

>  <RNCG>
0.2

>  <RPCG>
0.13

>  <FCSP3>
0.07

>  <SZ>
23.67

>  <Sm>
22.42

>  <Sv>
22.77

>  <Sse>
35.31

>  <Sp>
23.93

>  <Si>
39.41

>  <MZ>
0.68

>  <Mm>
0.64

>  <Mv>
0.65

>  <Mse>
1.01

>  <Mp>
0.68

>  <Mi>
1.13

>  <NsCH3>
1

>  <NdCH2>
0

>  <NssCH2>
0

>  <NtCH>
0

>  <NdsCH>
0

>  <NaaCH>
8

>  <NsssCH>
0

>  <NddC>
0

>  <NtsC>
0

>  <NdssC>
2

>  <NaasC>
4

>  <NaaaC>
0

>  <NssssC>
0

>  <NsNH3>
0

>  <NsNH2>
1

>  <NssNH2>
0

>  <NdNH>
0

>  <NssNH>
2

>  <NaaNH>
0

>  <NtN>
0

>  <NsssNH>
0

>  <NdsN>
0

>  <NaaN>
0

>  <NsssN>
0

>  <NddsN>
0

>  <NaasN>
0

>  <NssssN>
0

>  <NsOH>
0

>  <NdO>
2

>  <NssO>
0

>  <NaaO>
0

>  <NsF>
0

>  <NsSiH3>
0

>  <NssSiH2>
0

>  <NsssSiH>
0

>  <NssssSi>
0

>  <NsPH2>
0

>  <NssPH>
0

>  <NsssP>
0

>  <NdsssP>
0

>  <NsssssP>
0

>  <NsSH>
0

>  <NdS>
0

>  <NssS>
0

>  <NaaS>
0

>  <NdssS>
0

>  <NddssS>
0

>  <NsCl>
0

>  <NsBr>
0

>  <NsI>
0

>  <fragCpx>
61.05

>  <fMF>
0.4

>  <nHBAcc>
3

>  <nHBDon>
3

>  <Kier1>
16.37

>  <Kier2>
7.85

>  <Lipinski>
1

>  <GhoseFilter>
1

>  <FilterItLogS>
-3.73

>  <VMcGowan>
207.77

>  <LabuteASA>
116.35

>  <PEOE_VSA1>
16.37

>  <PEOE_VSA2>
9.59

>  <PEOE_VSA3>
0

>  <PEOE_VSA4>
0

>  <PEOE_VSA5>
0

>  <PEOE_VSA6>
12.13

>  <PEOE_VSA7>
36.4

>  <PEOE_VSA8>
18.17

>  <PEOE_VSA9>
11.37

>  <PEOE_VSA10>
0

>  <PEOE_VSA11>
0

>  <PEOE_VSA12>
5.91

>  <PEOE_VSA13>
5.91

>  <SMR_VSA1>
9.59

>  <SMR_VSA2>
0

>  <SMR_VSA3>
0

>  <SMR_VSA4>
0

>  <SMR_VSA5>
6.92

>  <SMR_VSA6>
16.37

>  <SMR_VSA7>
54.09

>  <SMR_VSA8>
0

>  <SMR_VSA9>
0

>  <SlogP_VSA1>
16.37

>  <SlogP_VSA2>
11.81

>  <SlogP_VSA3>
4.79

>  <SlogP_VSA4>
0

>  <SlogP_VSA5>
17.28

>  <SlogP_VSA6>
48.53

>  <SlogP_VSA7>
0

>  <SlogP_VSA8>
0

>  <SlogP_VSA9>
0

>  <SlogP_VSA10>
17.06

>  <SlogP_VSA11>
0

>  <EState_VSA1>
0

>  <EState_VSA2>
11.81

>  <EState_VSA3>
22.63

>  <EState_VSA4>
0

>  <EState_VSA5>
6.92

>  <EState_VSA6>
48.53

>  <EState_VSA7>
0

>  <EState_VSA8>
10.63

>  <EState_VSA9>
5.73

>  <EState_VSA10>
9.59

>  <VSA_EState1>
0

>  <VSA_EState2>
22.95

>  <VSA_EState3>
5.37

>  <VSA_EState4>
7.98

>  <VSA_EState5>
-0.41

>  <VSA_EState6>
13.67

>  <VSA_EState7>
0

>  <VSA_EState8>
1.43

>  <VSA_EState9>
0

>  <apol>
39.96

>  <bpol>
17.35

>  <nRing>
2

>  <nHRing>
0

>  <naRing>
2

>  <naHRing>
0

>  <nARing 2>
0

>  <nAHRing 2>
0

>  <nFRing>
0

>  <nFHRing>
0

>  <nFaRing>
0

>  <nFaHRing>
0

>  <nFARing 2>
0

>  <nFAHRing 2>
0

>  <nRot>
3

>  <SLogP>
2.48

>  <SMR>
79.55

>  <TopoPSA(NO)>
84.22

>  <TopoPSA>
84.22

>  <JGI1>
0.21

>  <JGI2>
0.08

>  <JGI3>
0.04

>  <JGI4>
0.05

>  <JGI5>
0.03

>  <Diameter>
12

>  <Radius>
6

>  <TMWC10>
112.19

>  <TSRW10>
53.03

>  <MW>
269.12

>  <AMW>
7.69

>  <WPath>
917

>  <WPol>
27

>  <Zagreb1>
98

>  <Zagreb2>
110

>  <mZagreb2>
4.47

>  <yes>


>  <nAR-cont>
0.336376

>  <nHA-cont>
0.999629945

>  <MWHBN>
0.365744887

>  <MWHBN-cont>
0.610345713

>  <TPSA-cont>
0.412092103

>  <pka_cont>
0.97

>  <yes.1>


>  <BBB_SCORE>
3.56070872

>  <MMFF94 Energy>
26.345

$$$$
Compound 171
Actelion Java MolfileCreator 2.0

  0  0  0  0  0  0              0 V3000
M  V30 BEGIN CTAB
M  V30 COUNTS 70 72 0 0 0
M  V30 BEGIN ATOM
M  V30 1 S -0.7182 2.5555 0.1595 0
M  V30 2 O -2.1422 2.6674 -0.0765 0
M  V30 3 O -0.1918 2.4327 1.5011 0
M  V30 4 N -0.1461 1.2171 -0.7722 0
M  V30 5 C 0.1051 3.9295 -0.6034 0
M  V30 6 C -0.4579 -0.1133 -0.1188 0
M  V30 7 C -0.5763 1.2467 -2.213 0
M  V30 8 C 1.4923 4.0368 -0.4875 0
M  V30 9 C -0.6262 4.8892 -1.3036 0
M  V30 10 C 0.6715 -0.4954 0.8639 0
M  V30 11 C 0.6503 1.1257 -3.1343 0
M  V30 12 C 2.1502 5.1088 -1.0951 0
M  V30 13 C 0.0454 5.9561 -1.9062 0
M  V30 14 O 1.9294 -0.2765 0.2111 0
M  V30 15 C 0.5357 -1.96 1.3653 0
M  V30 16 C 1.1104 -0.3242 -3.2926 0
M  V30 17 C 0.3283 1.7085 -4.5131 0
M  V30 18 C 1.4338 6.0837 -1.7963 0
M  V30 19 N -0.606 -2.0819 2.2774 0
M  V30 20 C 1.8135 -2.4665 2.0763 0
M  V30 21 N 2.0952 7.1182 -2.4318 0
M  V30 22 C -1.8582 -2.4228 1.8754 0
M  V30 23 C 2.7036 -3.3083 1.1899 0
M  V30 24 O -2.185 -2.6775 0.7272 0
M  V30 25 O -2.6874 -2.394 2.9429 0
M  V30 26 C 2.3659 -4.6406 0.9109 0
M  V30 27 C 3.8698 -2.7737 0.6293 0
M  V30 28 C -4.072 -2.6718 2.6575 0
M  V30 29 C 3.181 -5.4212 0.09 0
M  V30 30 C 4.6837 -3.5552 -0.1921 0
M  V30 31 C -4.7987 -2.9234 3.9712 0
M  V30 32 C -4.7665 -1.4246 2.1573 0
M  V30 33 C 4.3401 -4.8785 -0.4608 0
M  V30 34 O -5.2539 -1.6484 4.4622 0
M  V30 35 C -5.018 -0.6667 3.4442 0
M  V30 36 H -1.4344 -0.0714 0.3739 0
M  V30 37 H -0.5201 -0.8835 -0.896 0
M  V30 38 H -1.0892 2.1896 -2.4301 0
M  V30 39 H -1.3124 0.4617 -2.4229 0
M  V30 40 H 2.0625 3.2953 0.0667 0
M  V30 41 H -1.7075 4.8156 -1.3917 0
M  V30 42 H 0.6586 0.1695 1.7326 0
M  V30 43 H 1.4817 1.7053 -2.7138 0
M  V30 44 H 3.2317 5.1802 -1.0121 0
M  V30 45 H -0.5276 6.6941 -2.462 0
M  V30 46 H 1.7969 0.5347 -0.3189 0
M  V30 47 H 0.3332 -2.602 0.4983 0
M  V30 48 H 0.31 -0.953 -3.6973 0
M  V30 49 H 1.4265 -0.7523 -2.3389 0
M  V30 50 H 1.9645 -0.3868 -3.9756 0
M  V30 51 H -0.5055 1.177 -4.9843 0
M  V30 52 H 0.0562 2.7666 -4.4344 0
M  V30 53 H 1.1954 1.6388 -5.1783 0
M  V30 54 H -0.5067 -1.8401 3.2554 0
M  V30 55 H 2.3809 -1.6295 2.5033 0
M  V30 56 H 1.5459 -3.0922 2.9396 0
M  V30 57 H 1.573 7.8667 -2.8667 0
M  V30 58 H 3.0857 7.2565 -2.2845 0
M  V30 59 H 1.463 -5.0777 1.3319 0
M  V30 60 H 4.1453 -1.7387 0.8211 0
M  V30 61 H -4.1524 -3.5345 1.9875 0
M  V30 62 H 2.9106 -6.4524 -0.1203 0
M  V30 63 H 5.5843 -3.128 -0.6245 0
M  V30 64 H -4.1652 -3.3873 4.7328 0
M  V30 65 H -5.6889 -3.5418 3.8163 0
M  V30 66 H -4.1879 -0.8295 1.4459 0
M  V30 67 H -5.7241 -1.6948 1.6973 0
M  V30 68 H 4.9741 -5.4855 -1.1011 0
M  V30 69 H -4.1418 -0.0794 3.7395 0
M  V30 70 H -5.8787 0.0043 3.3741 0
M  V30 END ATOM
M  V30 BEGIN BOND
M  V30 1 2 1 2
M  V30 2 2 1 3
M  V30 3 1 1 4
M  V30 4 1 1 5
M  V30 5 1 4 6
M  V30 6 1 4 7
M  V30 7 2 5 8
M  V30 8 1 5 9
M  V30 9 1 6 10
M  V30 10 1 7 11
M  V30 11 1 8 12
M  V30 12 2 9 13
M  V30 13 1 10 14
M  V30 14 1 10 15
M  V30 15 1 11 16
M  V30 16 1 11 17
M  V30 17 2 12 18
M  V30 18 1 15 19
M  V30 19 1 15 20
M  V30 20 1 18 21
M  V30 21 1 19 22
M  V30 22 1 20 23
M  V30 23 2 22 24
M  V30 24 1 22 25
M  V30 25 2 23 26
M  V30 26 1 23 27
M  V30 27 1 25 28
M  V30 28 1 26 29
M  V30 29 2 27 30
M  V30 30 1 28 31
M  V30 31 1 28 32
M  V30 32 2 29 33
M  V30 33 1 31 34
M  V30 34 1 32 35
M  V30 35 1 13 18
M  V30 36 1 30 33
M  V30 37 1 34 35
M  V30 38 1 6 36
M  V30 39 1 6 37
M  V30 40 1 7 38
M  V30 41 1 7 39
M  V30 42 1 8 40
M  V30 43 1 9 41
M  V30 44 1 10 42
M  V30 45 1 11 43
M  V30 46 1 12 44
M  V30 47 1 13 45
M  V30 48 1 14 46
M  V30 49 1 15 47
M  V30 50 1 16 48
M  V30 51 1 16 49
M  V30 52 1 16 50
M  V30 53 1 17 51
M  V30 54 1 17 52
M  V30 55 1 17 53
M  V30 56 1 19 54
M  V30 57 1 20 55
M  V30 58 1 20 56
M  V30 59 1 21 57
M  V30 60 1 21 58
M  V30 61 1 26 59
M  V30 62 1 27 60
M  V30 63 1 28 61
M  V30 64 1 29 62
M  V30 65 1 30 63
M  V30 66 1 31 64
M  V30 67 1 31 65
M  V30 68 1 32 66
M  V30 69 1 32 67
M  V30 70 1 33 68
M  V30 71 1 35 69
M  V30 72 1 35 70
M  V30 END BOND
M  V30 END CTAB
M  END
>  <Column 1>
224

>  <level_0>
257

>  <index>
257

>  <Unnamed: 0>
257

>  <NO.>
258

>  <Name>
chembl195725

>  <IUPAC_name>
oxolan-3-yl n-[4-[(4-aminophenyl)sulfonyl-(2-methylpropyl)amino]-3-hydroxy-1-phenylbutan-2-yl]carbamate

>  <SMILES>
CC(C)CN(CC(O)C(Cc1ccccc1)NC(=O)OC1CCOC1)S(=O)(=O)c1ccc(N)cc1

>  <CID>
2177

>  <logBB>
-0.56

>  <BBB+/BBB->
BBB+

>  <Inchi>
InChI=1S/C25H35N3O6S/c1-18(2)15-28(35(31-32)22-10-8-20(26)9-11-22)16-24(29)23(14-19-6-4-3-5-7-19)27-25(30)34-21-12-13-33-17-21/h3-11-18-21-23-24-29H-12-17-26H2-1-2H3-(H-27-30)

>  <threshold>


>  <reference>
R4|R40|R43|R47|

>  <group>
A

>  <Class>
1

>  <ABC>
26.86

>  <ABCGG>
22.43

>  <nAcid>
0

>  <nBase>
0

>  <nAromAtom>
12

>  <nAromBond>
12

>  <nAtom>
70

>  <nHeavyAtom>
35

>  <nSpiro>
0

>  <nBridgehead>
0

>  <nHetero>
10

>  <nN>
3

>  <nO>
6

>  <nF>
0

>  <BalabanJ>
1.68

>  <BertzCT>
1040.63

>  <nBonds>
72

>  <nBondsO>
37

>  <nBondsS>
57

>  <nBondsD>
3

>  <nBondsT>
0

>  <nBondsA>
12

>  <nBondsM>
15

>  <nBondsKS>
63

>  <nBondsKD>
9

>  <RNCG>
0.13

>  <RPCG>
0.12

>  <FCSP3>
0.48

>  <SZ>
45

>  <Sm>
42.1

>  <Sv>
42.23

>  <Sse>
70.59

>  <Sp>
45.57

>  <Si>
79.32

>  <MZ>
0.64

>  <Mm>
0.6

>  <Mv>
0.6

>  <Mse>
1.01

>  <Mp>
0.65

>  <Mi>
1.13

>  <NsCH3>
2

>  <NdCH2>
0

>  <NssCH2>
6

>  <NtCH>
0

>  <NdsCH>
0

>  <NaaCH>
9

>  <NsssCH>
4

>  <NddC>
0

>  <NtsC>
0

>  <NdssC>
1

>  <NaasC>
3

>  <NaaaC>
0

>  <NssssC>
0

>  <NsNH3>
0

>  <NsNH2>
1

>  <NssNH2>
0

>  <NdNH>
0

>  <NssNH>
1

>  <NaaNH>
0

>  <NtN>
0

>  <NsssNH>
0

>  <NdsN>
0

>  <NaaN>
0

>  <NsssN>
1

>  <NddsN>
0

>  <NaasN>
0

>  <NssssN>
0

>  <NsOH>
1

>  <NdO>
3

>  <NssO>
2

>  <NaaO>
0

>  <NsF>
0

>  <NsSiH3>
0

>  <NssSiH2>
0

>  <NsssSiH>
0

>  <NssssSi>
0

>  <NsPH2>
0

>  <NssPH>
0

>  <NsssP>
0

>  <NdsssP>
0

>  <NsssssP>
0

>  <NsSH>
0

>  <NdS>
0

>  <NssS>
0

>  <NaaS>
0

>  <NdssS>
0

>  <NddssS>
1

>  <NsCl>
0

>  <NsBr>
0

>  <NsI>
0

>  <fragCpx>
179.1

>  <fMF>
0.37

>  <nHBAcc>
7

>  <nHBDon>
3

>  <Kier1>
29.55

>  <Kier2>
14.24

>  <Lipinski>
0

>  <GhoseFilter>
0

>  <FilterItLogS>
-4.19

>  <VMcGowan>
381.94

>  <LabuteASA>
206.82

>  <PEOE_VSA1>
25.63

>  <PEOE_VSA2>
0

>  <PEOE_VSA3>
13.21

>  <PEOE_VSA4>
4.31

>  <PEOE_VSA5>
0

>  <PEOE_VSA6>
44.18

>  <PEOE_VSA7>
42.17

>  <PEOE_VSA8>
25.2

>  <PEOE_VSA9>
30.26

>  <PEOE_VSA10>
6.1

>  <PEOE_VSA11>
0

>  <PEOE_VSA12>
10.02

>  <PEOE_VSA13>
0

>  <SMR_VSA1>
27.79

>  <SMR_VSA2>
0

>  <SMR_VSA3>
9.62

>  <SMR_VSA4>
5.92

>  <SMR_VSA5>
49.83

>  <SMR_VSA6>
32.04

>  <SMR_VSA7>
60.16

>  <SMR_VSA8>
0

>  <SMR_VSA9>
0

>  <SlogP_VSA1>
11.05

>  <SlogP_VSA2>
68.48

>  <SlogP_VSA3>
25.92

>  <SlogP_VSA4>
5.92

>  <SlogP_VSA5>
25.83

>  <SlogP_VSA6>
59.49

>  <SlogP_VSA7>
0

>  <SlogP_VSA8>
0

>  <SlogP_VSA9>
0

>  <SlogP_VSA10>
10.48

>  <SlogP_VSA11>
0

>  <EState_VSA1>
28.26

>  <EState_VSA2>
30.01

>  <EState_VSA3>
31.74

>  <EState_VSA4>
5.56

>  <EState_VSA5>
28.57

>  <EState_VSA6>
0

>  <EState_VSA7>
44.18

>  <EState_VSA8>
5.32

>  <EState_VSA9>
15.21

>  <EState_VSA10>
18.32

>  <VSA_EState1>
38.71

>  <VSA_EState2>
12.66

>  <VSA_EState3>
13.94

>  <VSA_EState4>
7.06

>  <VSA_EState5>
0.01

>  <VSA_EState6>
14.55

>  <VSA_EState7>
-1.29

>  <VSA_EState8>
4.67

>  <VSA_EState9>
-3.9

>  <apol>
76.1

>  <bpol>
47.82

>  <nRing>
3

>  <nHRing>
1

>  <naRing>
2

>  <naHRing>
0

>  <nARing 2>
1

>  <nAHRing 2>
1

>  <nFRing>
0

>  <nFHRing>
0

>  <nFaRing>
0

>  <nFaHRing>
0

>  <nFARing 2>
0

>  <nFAHRing 2>
0

>  <nRot>
11

>  <SLogP>
2.4

>  <SMR>
133.23

>  <TopoPSA(NO)>
131.19

>  <TopoPSA>
139.57

>  <JGI1>
0.24

>  <JGI2>
0.08

>  <JGI3>
0.06

>  <JGI4>
0.04

>  <JGI5>
0.02

>  <Diameter>
15

>  <Radius>
8

>  <TMWC10>
149.21

>  <TSRW10>
84.15

>  <MW>
505.22

>  <AMW>
7.22

>  <WPath>
3813

>  <WPol>
50

>  <Zagreb1>
176

>  <Zagreb2>
200

>  <mZagreb2>
7.69

>  <yes>


>  <nAR-cont>
0.816016

>  <nHA-cont>
0.523063577

>  <MWHBN>
0.444897262

>  <MWHBN-cont>
0.304331419

>  <TPSA-cont>
0

>  <pka_cont>
0.97

>  <yes.1>


>  <BBB_SCORE>
2.280576706

>  <MMFF94 Energy>
-12.766

$$$$
Compound 172
Actelion Java MolfileCreator 2.0

  0  0  0  0  0  0              0 V3000
M  V30 BEGIN CTAB
M  V30 COUNTS 58 61 0 0 0
M  V30 BEGIN ATOM
M  V30 1 Br 4.1989 -5.0079 -3.3096 0
M  V30 2 C 3.343 -4.359 -1.7554 0
M  V30 3 C 4.0311 -3.5231 -0.8826 0
M  V30 4 C 2.0279 -4.721 -1.4856 0
M  V30 5 C 3.3926 -3.0466 0.2671 0
M  V30 6 C 1.3993 -4.2366 -0.3338 0
M  V30 7 C 2.0642 -3.3877 0.5587 0
M  V30 8 N 1.4309 -2.9227 1.6868 0
M  V30 9 C 0.4859 -1.772 1.7184 0
M  V30 10 C 1.9932 -3.2043 2.9915 0
M  V30 11 C 0.3118 -1.5702 3.2414 0
M  V30 12 C 1.1183 -0.5107 1.1125 0
M  V30 13 C -0.8651 -2.1207 1.0869 0
M  V30 14 N 1.1938 -2.4214 3.8812 0
M  V30 15 O -0.4489 -0.7932 3.7989 0
M  V30 16 C 0.1034 0.6224 0.9516 0
M  V30 17 C -1.766 -0.894 0.9238 0
M  V30 18 C 1.3565 -2.51 5.3106 0
M  V30 19 N -1.1181 0.232 0.2353 0
M  V30 20 C -0.9211 -0.0344 -1.198 0
M  V30 21 C -0.5266 1.201 -2.0181 0
M  V30 22 C -1.5154 2.3583 -1.8586 0
M  V30 23 C -1.1707 3.532 -2.7585 0
M  V30 24 O -0.2166 3.5097 -3.5337 0
M  V30 25 C -2.0304 4.7556 -2.6987 0
M  V30 26 C -1.7138 5.8351 -3.5398 0
M  V30 27 C -3.1326 4.8571 -1.8373 0
M  V30 28 C -2.4871 6.998 -3.5203 0
M  V30 29 C -3.9041 6.0233 -1.8208 0
M  V30 30 C -3.5751 7.081 -2.6609 0
M  V30 31 F -4.3178 8.1949 -2.6406 0
M  V30 32 H 5.0578 -3.2314 -1.0856 0
M  V30 33 H 1.4829 -5.38 -2.1556 0
M  V30 34 H 3.9419 -2.379 0.9264 0
M  V30 35 H 0.3797 -4.5503 -0.1245 0
M  V30 36 H 1.8985 -4.2641 3.2489 0
M  V30 37 H 3.0344 -2.8795 3.0887 0
M  V30 38 H 1.5526 -0.7296 0.1302 0
M  V30 39 H 1.9487 -0.1579 1.738 0
M  V30 40 H -1.3891 -2.8733 1.6897 0
M  V30 41 H -0.7253 -2.5673 0.0978 0
M  V30 42 H -0.1813 1.0044 1.9397 0
M  V30 43 H 0.5859 1.4756 0.4625 0
M  V30 44 H -2.1164 -0.5518 1.9048 0
M  V30 45 H -2.6797 -1.1833 0.3892 0
M  V30 46 H 0.6601 -1.8423 5.8245 0
M  V30 47 H 1.1688 -3.5402 5.6251 0
M  V30 48 H 2.3815 -2.229 5.5673 0
M  V30 49 H -1.8641 -0.407 -1.6196 0
M  V30 50 H -0.1786 -0.8222 -1.3681 0
M  V30 51 H -0.479 0.907 -3.0746 0
M  V30 52 H 0.4848 1.5323 -1.7552 0
M  V30 53 H -1.5032 2.7102 -0.8216 0
M  V30 54 H -2.5225 2.0106 -2.1149 0
M  V30 55 H -0.8615 5.774 -4.2147 0
M  V30 56 H -3.4126 4.0476 -1.1691 0
M  V30 57 H -2.246 7.8346 -4.1685 0
M  V30 58 H -4.759 6.1132 -1.1573 0
M  V30 END ATOM
M  V30 BEGIN BOND
M  V30 1 1 1 2
M  V30 2 2 2 3
M  V30 3 1 2 4
M  V30 4 1 3 5
M  V30 5 2 4 6
M  V30 6 2 5 7
M  V30 7 1 7 8
M  V30 8 1 8 9
M  V30 9 1 8 10
M  V30 10 1 9 11
M  V30 11 1 9 12
M  V30 12 1 9 13
M  V30 13 1 10 14
M  V30 14 2 11 15
M  V30 15 1 12 16
M  V30 16 1 13 17
M  V30 17 1 14 18
M  V30 18 1 16 19
M  V30 19 1 19 20
M  V30 20 1 20 21
M  V30 21 1 21 22
M  V30 22 1 22 23
M  V30 23 2 23 24
M  V30 24 1 23 25
M  V30 25 2 25 26
M  V30 26 1 25 27
M  V30 27 1 26 28
M  V30 28 2 27 29
M  V30 29 2 28 30
M  V30 30 1 30 31
M  V30 31 1 6 7
M  V30 32 1 11 14
M  V30 33 1 17 19
M  V30 34 1 29 30
M  V30 35 1 3 32
M  V30 36 1 4 33
M  V30 37 1 5 34
M  V30 38 1 6 35
M  V30 39 1 10 36
M  V30 40 1 10 37
M  V30 41 1 12 38
M  V30 42 1 12 39
M  V30 43 1 13 40
M  V30 44 1 13 41
M  V30 45 1 16 42
M  V30 46 1 16 43
M  V30 47 1 17 44
M  V30 48 1 17 45
M  V30 49 1 18 46
M  V30 50 1 18 47
M  V30 51 1 18 48
M  V30 52 1 20 49
M  V30 53 1 20 50
M  V30 54 1 21 51
M  V30 55 1 21 52
M  V30 56 1 22 53
M  V30 57 1 22 54
M  V30 58 1 26 55
M  V30 59 1 27 56
M  V30 60 1 28 57
M  V30 61 1 29 58
M  V30 END BOND
M  V30 END CTAB
M  END
>  <Column 1>
225

>  <level_0>
260

>  <index>
260

>  <Unnamed: 0>
260

>  <NO.>
261

>  <Name>
bmsp

>  <IUPAC_name>
1-(4-bromophenyl)-8-[4-(4-fluorophenyl)-4-oxobutyl]-3-methyl-1-3-8-triazaspiro[4.5]decan-4-one

>  <SMILES>
CN1CN(c2ccc(Br)cc2)C2(CCN(CCCC(=O)c3ccc(F)cc3)CC2)C1=O

>  <CID>
13497177

>  <logBB>
-0.55

>  <BBB+/BBB->
BBB+

>  <Inchi>
InChI=1S/C24H27BrFN3O2/c1-27-17-29(21-10-6-19(25)7-11-21)24(23(27)31)12-15-28(16-13-24)14-2-3-22(30)18-4-8-20(26)9-5-18/h4-11H-2-3-12-17H2-1H3

>  <threshold>


>  <reference>
R40|R2|R2|R3|R25|R38|R41|R43|R46|R47|

>  <group>
A

>  <Class>
1

>  <ABC>
24.34

>  <ABCGG>
18.16

>  <nAcid>
0

>  <nBase>
1

>  <nAromAtom>
12

>  <nAromBond>
12

>  <nAtom>
58

>  <nHeavyAtom>
31

>  <nSpiro>
1

>  <nBridgehead>
0

>  <nHetero>
7

>  <nN>
3

>  <nO>
2

>  <nF>
1

>  <BalabanJ>
1.24

>  <BertzCT>
940.3

>  <nBonds>
61

>  <nBondsO>
34

>  <nBondsS>
47

>  <nBondsD>
2

>  <nBondsT>
0

>  <nBondsA>
12

>  <nBondsM>
14

>  <nBondsKS>
53

>  <nBondsKD>
8

>  <RNCG>
0.16

>  <RPCG>
0.12

>  <FCSP3>
0.42

>  <SZ>
42

>  <Sm>
40.66

>  <Sv>
36.95

>  <Sse>
58.27

>  <Sp>
39.88

>  <Si>
65.49

>  <MZ>
0.72

>  <Mm>
0.7

>  <Mv>
0.64

>  <Mse>
1

>  <Mp>
0.69

>  <Mi>
1.13

>  <NsCH3>
1

>  <NdCH2>
0

>  <NssCH2>
8

>  <NtCH>
0

>  <NdsCH>
0

>  <NaaCH>
8

>  <NsssCH>
0

>  <NddC>
0

>  <NtsC>
0

>  <NdssC>
2

>  <NaasC>
4

>  <NaaaC>
0

>  <NssssC>
1

>  <NsNH3>
0

>  <NsNH2>
0

>  <NssNH2>
0

>  <NdNH>
0

>  <NssNH>
0

>  <NaaNH>
0

>  <NtN>
0

>  <NsssNH>
0

>  <NdsN>
0

>  <NaaN>
0

>  <NsssN>
3

>  <NddsN>
0

>  <NaasN>
0

>  <NssssN>
0

>  <NsOH>
0

>  <NdO>
2

>  <NssO>
0

>  <NaaO>
0

>  <NsF>
1

>  <NsSiH3>
0

>  <NssSiH2>
0

>  <NsssSiH>
0

>  <NssssSi>
0

>  <NsPH2>
0

>  <NssPH>
0

>  <NsssP>
0

>  <NdsssP>
0

>  <NsssssP>
0

>  <NsSH>
0

>  <NdS>
0

>  <NssS>
0

>  <NaaS>
0

>  <NdssS>
0

>  <NddssS>
0

>  <NsCl>
0

>  <NsBr>
1

>  <NsI>
0

>  <fragCpx>
226.07

>  <fMF>
0.45

>  <nHBAcc>
4

>  <nHBDon>
0

>  <Kier1>
24.13

>  <Kier2>
10.51

>  <Lipinski>
1

>  <GhoseFilter>
0

>  <FilterItLogS>
-6.05

>  <VMcGowan>
332.12

>  <LabuteASA>
190.49

>  <PEOE_VSA1>
14.7

>  <PEOE_VSA2>
9.59

>  <PEOE_VSA3>
4.39

>  <PEOE_VSA4>
0

>  <PEOE_VSA5>
0

>  <PEOE_VSA6>
15.93

>  <PEOE_VSA7>
74.34

>  <PEOE_VSA8>
42.28

>  <PEOE_VSA9>
6.67

>  <PEOE_VSA10>
11.36

>  <PEOE_VSA11>
5.78

>  <PEOE_VSA12>
5.91

>  <PEOE_VSA13>
0

>  <SMR_VSA1>
13.98

>  <SMR_VSA2>
0

>  <SMR_VSA3>
9.8

>  <SMR_VSA4>
0

>  <SMR_VSA5>
31.22

>  <SMR_VSA6>
38.25

>  <SMR_VSA7>
64.38

>  <SMR_VSA8>
0

>  <SMR_VSA9>
0

>  <SlogP_VSA1>
4.9

>  <SlogP_VSA2>
60.38

>  <SlogP_VSA3>
4.79

>  <SlogP_VSA4>
5.82

>  <SlogP_VSA5>
36.04

>  <SlogP_VSA6>
53

>  <SlogP_VSA7>
0

>  <SlogP_VSA8>
0

>  <SlogP_VSA9>
0

>  <SlogP_VSA10>
10.08

>  <SlogP_VSA11>
0

>  <EState_VSA1>
5.54

>  <EState_VSA2>
17.51

>  <EState_VSA3>
18.65

>  <EState_VSA4>
49.06

>  <EState_VSA5>
12.13

>  <EState_VSA6>
12.13

>  <EState_VSA7>
24.08

>  <EState_VSA8>
37.86

>  <EState_VSA9>
0

>  <EState_VSA10>
13.98

>  <VSA_EState1>
14.05

>  <VSA_EState2>
31.82

>  <VSA_EState3>
0

>  <VSA_EState4>
1.14

>  <VSA_EState5>
-0.09

>  <VSA_EState6>
13.88

>  <VSA_EState7>
2.75

>  <VSA_EState8>
3.09

>  <VSA_EState9>
1.87

>  <apol>
66.59

>  <bpol>
36.45

>  <nRing>
4

>  <nHRing>
2

>  <naRing>
2

>  <naHRing>
0

>  <nARing 2>
2

>  <nAHRing 2>
2

>  <nFRing>
0

>  <nFHRing>
0

>  <nFaRing>
0

>  <nFaHRing>
0

>  <nFARing 2>
0

>  <nFAHRing 2>
0

>  <nRot>
6

>  <SLogP>
4.32

>  <SMR>
122.63

>  <TopoPSA(NO)>
43.86

>  <TopoPSA>
43.86

>  <JGI1>
0.22

>  <JGI2>
0.1

>  <JGI3>
0.05

>  <JGI4>
0.04

>  <JGI5>
0.03

>  <Diameter>
18

>  <Radius>
9

>  <TMWC10>
143.22

>  <TSRW10>
81.72

>  <MW>
487.13

>  <AMW>
8.4

>  <WPath>
3080

>  <WPol>
52

>  <Zagreb1>
166

>  <Zagreb2>
198

>  <mZagreb2>
6.75

>  <yes>


>  <nAR-cont>
1

>  <nHA-cont>
0.702745138

>  <MWHBN>
0.181233114

>  <MWHBN-cont>
0.98845989

>  <TPSA-cont>
0.693829965

>  <pka_cont>
0.97

>  <yes.1>


>  <BBB_SCORE>
5.058094902

>  <MMFF94 Energy>
40.851

$$$$
Compound 173
Actelion Java MolfileCreator 2.0

  0  0  0  0  0  0              0 V3000
M  V30 BEGIN CTAB
M  V30 COUNTS 41 41 0 0 0
M  V30 BEGIN ATOM
M  V30 1 O 4.0506 -3.5826 -2.3353 0
M  V30 2 C 4.9903 -2.7991 -2.2646 0
M  V30 3 N 4.9885 -1.5421 -1.6866 0
M  V30 4 C 6.3448 -3.1599 -2.821 0
M  V30 5 C 3.902 -0.8812 -1.0786 0
M  V30 6 C 2.589 -1.3524 -1.1045 0
M  V30 7 C 4.1691 0.3274 -0.4274 0
M  V30 8 C 1.5571 -0.6335 -0.4832 0
M  V30 9 C 3.1396 1.0426 0.1922 0
M  V30 10 C 1.8285 0.567 0.1693 0
M  V30 11 O 0.9216 1.3596 0.8144 0
M  V30 12 C -0.4458 0.9326 0.8014 0
M  V30 13 C -1.2902 1.9588 1.5726 0 CFG=1
M  V30 14 O -1.445 3.1541 0.7885 0
M  V30 15 C -2.6973 1.4274 1.9173 0
M  V30 16 N -3.5097 1.2662 0.6979 0
M  V30 17 C -4.936 1.055 0.9866 0
M  V30 18 C -5.702 1.1853 -0.3313 0
M  V30 19 C -5.2108 -0.3127 1.6141 0
M  V30 20 H 5.87 -1.0446 -1.6772 0
M  V30 21 H 6.7034 -2.3671 -3.4839 0
M  V30 22 H 6.2736 -4.0893 -3.3928 0
M  V30 23 H 7.0533 -3.2978 -1.9994 0
M  V30 24 H 2.3276 -2.2784 -1.6075 0
M  V30 25 H 5.1765 0.7323 -0.3869 0
M  V30 26 H 0.5553 -1.046 -0.5348 0
M  V30 27 H 3.3608 1.9809 0.6957 0
M  V30 28 H -0.521 -0.0436 1.2947 0
M  V30 29 H -0.7927 0.8693 -0.2367 0
M  V30 30 H -0.7703 2.2487 2.4926 0
M  V30 31 H -2.2404 2.9946 0.24 0
M  V30 32 H -2.6176 0.486 2.4708 0
M  V30 33 H -3.1802 2.1683 2.5664 0
M  V30 34 H -3.162 0.48 0.1474 0
M  V30 35 H -5.299 1.8418 1.6593 0
M  V30 36 H -5.3955 0.4208 -1.0545 0
M  V30 37 H -5.5359 2.1684 -0.7863 0
M  V30 38 H -6.7794 1.0769 -0.1645 0
M  V30 39 H -4.7476 -0.4022 2.6018 0
M  V30 40 H -4.8319 -1.1261 0.9853 0
M  V30 41 H -6.2876 -0.4664 1.7457 0
M  V30 END ATOM
M  V30 BEGIN BOND
M  V30 1 2 1 2
M  V30 2 1 2 3
M  V30 3 1 2 4
M  V30 4 1 3 5
M  V30 5 2 5 6
M  V30 6 1 5 7
M  V30 7 1 6 8
M  V30 8 2 7 9
M  V30 9 2 8 10
M  V30 10 1 10 11
M  V30 11 1 11 12
M  V30 12 1 12 13
M  V30 13 1 13 14
M  V30 14 1 13 15
M  V30 15 1 15 16
M  V30 16 1 16 17
M  V30 17 1 17 18
M  V30 18 1 17 19
M  V30 19 1 9 10
M  V30 20 1 3 20
M  V30 21 1 4 21
M  V30 22 1 4 22
M  V30 23 1 4 23
M  V30 24 1 6 24
M  V30 25 1 7 25
M  V30 26 1 8 26
M  V30 27 1 9 27
M  V30 28 1 12 28
M  V30 29 1 12 29
M  V30 30 1 13 30
M  V30 31 1 14 31
M  V30 32 1 15 32
M  V30 33 1 15 33
M  V30 34 1 16 34
M  V30 35 1 17 35
M  V30 36 1 18 36
M  V30 37 1 18 37
M  V30 38 1 18 38
M  V30 39 1 19 39
M  V30 40 1 19 40
M  V30 41 1 19 41
M  V30 END BOND
M  V30 BEGIN COLLECTION
M  V30 MDLV30/STEABS ATOMS=(1 13)
M  V30 END COLLECTION
M  V30 END CTAB
M  END
>  <Column 1>
226

>  <level_0>
261

>  <index>
261

>  <Unnamed: 0>
261

>  <NO.>
262

>  <Name>
practolol

>  <IUPAC_name>
n-[4-[(2s)-2-hydroxy-3-(propan-2-ylamino)propoxy]phenyl]acetamide

>  <SMILES>
CC(=O)Nc1ccc(OC[C@@H](O)CNC(C)C)cc1

>  <CID>
443371

>  <logBB>
-0.55

>  <BBB+/BBB->
BBB+

>  <Inchi>
InChI=1S/C14H22N2O3/c1-10(2)15-8-13(18)9-19-14-6-4-12(5-7-14)16-11(3)17/h4-7-10-13-15-18H-8-9H2-1-3H3-(H-16-17)/t13-/m0/s1

>  <threshold>


>  <reference>
R2|R2|R25|R46|

>  <group>
A

>  <Class>
1

>  <ABC>
13.98

>  <ABCGG>
11.63

>  <nAcid>
0

>  <nBase>
1

>  <nAromAtom>
6

>  <nAromBond>
6

>  <nAtom>
41

>  <nHeavyAtom>
19

>  <nSpiro>
0

>  <nBridgehead>
0

>  <nHetero>
5

>  <nN>
2

>  <nO>
3

>  <nF>
0

>  <BalabanJ>
2.09

>  <BertzCT>
390.18

>  <nBonds>
41

>  <nBondsO>
19

>  <nBondsS>
34

>  <nBondsD>
1

>  <nBondsT>
0

>  <nBondsA>
6

>  <nBondsM>
7

>  <nBondsKS>
37

>  <nBondsKD>
4

>  <RNCG>
0.25

>  <RPCG>
0.11

>  <FCSP3>
0.5

>  <SZ>
24

>  <Sm>
22.17

>  <Sv>
23.62

>  <Sse>
41.08

>  <Sp>
25.54

>  <Si>
46.78

>  <MZ>
0.59

>  <Mm>
0.54

>  <Mv>
0.58

>  <Mse>
1

>  <Mp>
0.62

>  <Mi>
1.14

>  <NsCH3>
3

>  <NdCH2>
0

>  <NssCH2>
2

>  <NtCH>
0

>  <NdsCH>
0

>  <NaaCH>
4

>  <NsssCH>
2

>  <NddC>
0

>  <NtsC>
0

>  <NdssC>
1

>  <NaasC>
2

>  <NaaaC>
0

>  <NssssC>
0

>  <NsNH3>
0

>  <NsNH2>
0

>  <NssNH2>
0

>  <NdNH>
0

>  <NssNH>
2

>  <NaaNH>
0

>  <NtN>
0

>  <NsssNH>
0

>  <NdsN>
0

>  <NaaN>
0

>  <NsssN>
0

>  <NddsN>
0

>  <NaasN>
0

>  <NssssN>
0

>  <NsOH>
1

>  <NdO>
1

>  <NssO>
1

>  <NaaO>
0

>  <NsF>
0

>  <NsSiH3>
0

>  <NssSiH2>
0

>  <NsssSiH>
0

>  <NssssSi>
0

>  <NsPH2>
0

>  <NssPH>
0

>  <NsssP>
0

>  <NdsssP>
0

>  <NsssssP>
0

>  <NsSH>
0

>  <NdS>
0

>  <NssS>
0

>  <NaaS>
0

>  <NdssS>
0

>  <NddssS>
0

>  <NsCl>
0

>  <NsBr>
0

>  <NsI>
0

>  <fragCpx>
19.05

>  <fMF>
0.15

>  <nHBAcc>
4

>  <nHBDon>
3

>  <Kier1>
17.05

>  <Kier2>
9.03

>  <Lipinski>
1

>  <GhoseFilter>
1

>  <FilterItLogS>
-3.08

>  <VMcGowan>
217.63

>  <LabuteASA>
113.52

>  <PEOE_VSA1>
20.48

>  <PEOE_VSA2>
4.79

>  <PEOE_VSA3>
0

>  <PEOE_VSA4>
0

>  <PEOE_VSA5>
0

>  <PEOE_VSA6>
13.85

>  <PEOE_VSA7>
24.27

>  <PEOE_VSA8>
25.2

>  <PEOE_VSA9>
0

>  <PEOE_VSA10>
18.46

>  <PEOE_VSA11>
0

>  <PEOE_VSA12>
5.91

>  <PEOE_VSA13>
0

>  <SMR_VSA1>
14.64

>  <SMR_VSA2>
0

>  <SMR_VSA3>
5.32

>  <SMR_VSA4>
0

>  <SMR_VSA5>
32.92

>  <SMR_VSA6>
18.47

>  <SMR_VSA7>
24.27

>  <SMR_VSA8>
0

>  <SMR_VSA9>
5.75

>  <SlogP_VSA1>
15.37

>  <SlogP_VSA2>
36.31

>  <SlogP_VSA3>
4.79

>  <SlogP_VSA4>
0

>  <SlogP_VSA5>
20.77

>  <SlogP_VSA6>
24.27

>  <SlogP_VSA7>
0

>  <SlogP_VSA8>
0

>  <SlogP_VSA9>
0

>  <SlogP_VSA10>
5.69

>  <SlogP_VSA11>
5.75

>  <EState_VSA1>
6.1

>  <EState_VSA2>
12.51

>  <EState_VSA3>
18.34

>  <EState_VSA4>
5.69

>  <EState_VSA5>
6.92

>  <EState_VSA6>
24.27

>  <EState_VSA7>
13.85

>  <EState_VSA8>
10.63

>  <EState_VSA9>
4.74

>  <EState_VSA10>
9.9

>  <VSA_EState1>
5.46

>  <VSA_EState2>
10.86

>  <VSA_EState3>
15.5

>  <VSA_EState4>
0.72

>  <VSA_EState5>
0.56

>  <VSA_EState6>
7.37

>  <VSA_EState7>
-0.54

>  <VSA_EState8>
6.24

>  <VSA_EState9>
0

>  <apol>
42.66

>  <bpol>
25.81

>  <nRing>
1

>  <nHRing>
0

>  <naRing>
1

>  <naHRing>
0

>  <nARing 2>
0

>  <nAHRing 2>
0

>  <nFRing>
0

>  <nFHRing>
0

>  <nFaRing>
0

>  <nFaHRing>
0

>  <nFARing 2>
0

>  <nFAHRing 2>
0

>  <nRot>
7

>  <SLogP>
1.38

>  <SMR>
75.39

>  <TopoPSA(NO)>
70.59

>  <TopoPSA>
70.59

>  <JGI1>
0.26

>  <JGI2>
0.06

>  <JGI3>
0.03

>  <JGI4>
0.05

>  <JGI5>
0.02

>  <Diameter>
13

>  <Radius>
7

>  <TMWC10>
106.41

>  <TSRW10>
50.89

>  <MW>
266.16

>  <AMW>
6.49

>  <WPath>
890

>  <WPol>
21

>  <Zagreb1>
86

>  <Zagreb2>
91

>  <mZagreb2>
4.33

>  <yes>


>  <nAR-cont>
0.336376

>  <nHA-cont>
0.998649058

>  <MWHBN>
0.429068514

>  <MWHBN-cont>
0.363244079

>  <TPSA-cont>
0.507237966

>  <pka_cont>
0.97

>  <yes.1>


>  <BBB_SCORE>
3.379367109

>  <MMFF94 Energy>
36.436

$$$$
Compound 174
Actelion Java MolfileCreator 2.0

  0  0  0  0  0  0              0 V3000
M  V30 BEGIN CTAB
M  V30 COUNTS 28 27 0 0 0
M  V30 BEGIN ATOM
M  V30 1 O -2.6873 0.0767 -2.9948 0
M  V30 2 C -1.8282 0.756 -2.4549 0
M  V30 3 O -2.0359 2.0569 -2.1837 0
M  V30 4 C -0.4735 0.2731 -2.0243 0
M  V30 5 C -0.3707 0.0424 -0.5036 0 CFG=1
M  V30 6 C -1.0954 -1.2472 -0.0592 0
M  V30 7 C 1.1319 0.0012 -0.1252 0
M  V30 8 N -2.5383 -1.1966 -0.2619 0
M  V30 9 C 1.4655 -0.1453 1.3738 0
M  V30 10 C 2.9858 -0.1452 1.5639 0
M  V30 11 C 0.8402 0.9597 2.2252 0
M  V30 12 H -2.9612 2.2153 -2.4641 0
M  V30 13 H -0.2414 -0.6448 -2.5775 0
M  V30 14 H 0.2535 1.0219 -2.363 0
M  V30 15 H -0.8333 0.8965 0.007 0
M  V30 16 H -0.9359 -1.4146 1.0097 0
M  V30 17 H -0.6842 -2.1159 -0.5858 0
M  V30 18 H 1.606 0.922 -0.4922 0
M  V30 19 H 1.6083 -0.8245 -0.671 0
M  V30 20 H -2.9634 -2.041 0.121 0
M  V30 21 H -2.7654 -1.2166 -1.2606 0
M  V30 22 H 1.0977 -1.1118 1.736 0
M  V30 23 H 3.4498 -0.9527 0.9879 0
M  V30 24 H 3.428 0.8024 1.2381 0
M  V30 25 H 3.2461 -0.2956 2.6171 0
M  V30 26 H -0.252 0.8976 2.2192 0
M  V30 27 H 1.129 1.9519 1.8625 0
M  V30 28 H 1.1622 0.8752 3.2689 0
M  V30 END ATOM
M  V30 BEGIN BOND
M  V30 1 2 1 2
M  V30 2 1 2 3
M  V30 3 1 2 4
M  V30 4 1 4 5
M  V30 5 1 5 6
M  V30 6 1 5 7
M  V30 7 1 6 8
M  V30 8 1 7 9
M  V30 9 1 9 10
M  V30 10 1 9 11
M  V30 11 1 3 12
M  V30 12 1 4 13
M  V30 13 1 4 14
M  V30 14 1 5 15
M  V30 15 1 6 16
M  V30 16 1 6 17
M  V30 17 1 7 18
M  V30 18 1 7 19
M  V30 19 1 8 20
M  V30 20 1 8 21
M  V30 21 1 9 22
M  V30 22 1 10 23
M  V30 23 1 10 24
M  V30 24 1 10 25
M  V30 25 1 11 26
M  V30 26 1 11 27
M  V30 27 1 11 28
M  V30 END BOND
M  V30 BEGIN COLLECTION
M  V30 MDLV30/STERAC1 ATOMS=(1 5)
M  V30 END COLLECTION
M  V30 END CTAB
M  END
>  <Column 1>
228

>  <level_0>
263

>  <index>
263

>  <Unnamed: 0>
263

>  <NO.>
264

>  <Name>
pregabalin

>  <IUPAC_name>
3-(aminomethyl)-5-methylhexanoic acid

>  <SMILES>
CC(C)CC(CN)CC(=O)O

>  <CID>
4715169

>  <logBB>
-0.54

>  <BBB+/BBB->
BBB+

>  <Inchi>
InChI=1S/C8H17NO2/c1-6(2)3-7(5-9)4-8(10)11/h6-7H-3-5-9H2-1-2H3-(H-10-11)

>  <threshold>


>  <reference>
R18|R26|R27|

>  <group>
A

>  <Class>
1

>  <ABC>
7.51

>  <ABCGG>
7.81

>  <nAcid>
1

>  <nBase>
1

>  <nAromAtom>
0

>  <nAromBond>
0

>  <nAtom>
28

>  <nHeavyAtom>
11

>  <nSpiro>
0

>  <nBridgehead>
0

>  <nHetero>
3

>  <nN>
1

>  <nO>
2

>  <nF>
0

>  <BalabanJ>
3.58

>  <BertzCT>
123.26

>  <nBonds>
27

>  <nBondsO>
10

>  <nBondsS>
26

>  <nBondsD>
1

>  <nBondsT>
0

>  <nBondsA>
0

>  <nBondsM>
1

>  <nBondsKS>
26

>  <nBondsKD>
1

>  <RNCG>
0.37

>  <RPCG>
0.23

>  <FCSP3>
0.88

>  <SZ>
14.67

>  <Sm>
13.26

>  <Sv>
14.79

>  <Sse>
27.87

>  <Sp>
16.41

>  <Si>
32.24

>  <MZ>
0.52

>  <Mm>
0.47

>  <Mv>
0.53

>  <Mse>
1

>  <Mp>
0.59

>  <Mi>
1.15

>  <NsCH3>
2

>  <NdCH2>
0

>  <NssCH2>
3

>  <NtCH>
0

>  <NdsCH>
0

>  <NaaCH>
0

>  <NsssCH>
2

>  <NddC>
0

>  <NtsC>
0

>  <NdssC>
1

>  <NaasC>
0

>  <NaaaC>
0

>  <NssssC>
0

>  <NsNH3>
0

>  <NsNH2>
1

>  <NssNH2>
0

>  <NdNH>
0

>  <NssNH>
0

>  <NaaNH>
0

>  <NtN>
0

>  <NsssNH>
0

>  <NdsN>
0

>  <NaaN>
0

>  <NsssN>
0

>  <NddsN>
0

>  <NaasN>
0

>  <NssssN>
0

>  <NsOH>
1

>  <NdO>
1

>  <NssO>
0

>  <NaaO>
0

>  <NsF>
0

>  <NsSiH3>
0

>  <NssSiH2>
0

>  <NsssSiH>
0

>  <NssssSi>
0

>  <NsPH2>
0

>  <NssPH>
0

>  <NsssP>
0

>  <NdsssP>
0

>  <NsssssP>
0

>  <NsSH>
0

>  <NdS>
0

>  <NssS>
0

>  <NaaS>
0

>  <NdssS>
0

>  <NddssS>
0

>  <NsCl>
0

>  <NsBr>
0

>  <NsI>
0

>  <fragCpx>
10.03

>  <fMF>
0

>  <nHBAcc>
2

>  <nHBDon>
2

>  <Kier1>
11

>  <Kier2>
5.63

>  <Lipinski>
1

>  <GhoseFilter>
0

>  <FilterItLogS>
-0.97

>  <VMcGowan>
141

>  <LabuteASA>
67.59

>  <PEOE_VSA1>
10.84

>  <PEOE_VSA2>
4.79

>  <PEOE_VSA3>
0

>  <PEOE_VSA4>
0

>  <PEOE_VSA5>
0

>  <PEOE_VSA6>
13.85

>  <PEOE_VSA7>
24.8

>  <PEOE_VSA8>
6.42

>  <PEOE_VSA9>
0

>  <PEOE_VSA10>
0

>  <PEOE_VSA11>
0

>  <PEOE_VSA12>
0

>  <PEOE_VSA13>
0

>  <SMR_VSA1>
9.9

>  <SMR_VSA2>
0

>  <SMR_VSA3>
0

>  <SMR_VSA4>
17.57

>  <SMR_VSA5>
26.69

>  <SMR_VSA6>
6.54

>  <SMR_VSA7>
0

>  <SMR_VSA8>
0

>  <SMR_VSA9>
0

>  <SlogP_VSA1>
5.73

>  <SlogP_VSA2>
17.62

>  <SlogP_VSA3>
4.79

>  <SlogP_VSA4>
11.84

>  <SlogP_VSA5>
26.69

>  <SlogP_VSA6>
0

>  <SlogP_VSA7>
0

>  <SlogP_VSA8>
0

>  <SlogP_VSA9>
0

>  <SlogP_VSA10>
0

>  <SlogP_VSA11>
0

>  <EState_VSA1>
5.97

>  <EState_VSA2>
12.34

>  <EState_VSA3>
12.46

>  <EState_VSA4>
6.42

>  <EState_VSA5>
0

>  <EState_VSA6>
0

>  <EState_VSA7>
0

>  <EState_VSA8>
13.85

>  <EState_VSA9>
10.84

>  <EState_VSA10>
4.79

>  <VSA_EState1>
0

>  <VSA_EState2>
10.29

>  <VSA_EState3>
8.47

>  <VSA_EState4>
5.41

>  <VSA_EState5>
-0.07

>  <VSA_EState6>
0

>  <VSA_EState7>
1.11

>  <VSA_EState8>
4.62

>  <VSA_EState9>
0

>  <apol>
27.4

>  <bpol>
17.35

>  <nRing>
0

>  <nHRing>
0

>  <naRing>
0

>  <naHRing>
0

>  <nARing 2>
0

>  <nAHRing 2>
0

>  <nFRing>
0

>  <nFHRing>
0

>  <nFaRing>
0

>  <nFaHRing>
0

>  <nFARing 2>
0

>  <nFAHRing 2>
0

>  <nRot>
5

>  <SLogP>
1.08

>  <SMR>
44.25

>  <TopoPSA(NO)>
63.32

>  <TopoPSA>
63.32

>  <JGI1>
0.35

>  <JGI2>
0.06

>  <JGI3>
0.09

>  <JGI4>
0.04

>  <JGI5>
0.03

>  <Diameter>
6

>  <Radius>
3

>  <TMWC10>
82.02

>  <TSRW10>
39.22

>  <MW>
159.13

>  <AMW>
5.68

>  <WPath>
172

>  <WPol>
10

>  <Zagreb1>
44

>  <Zagreb2>
44

>  <mZagreb2>
2.67

>  <yes>


>  <nAR-cont>
0.336376

>  <nHA-cont>
0.720786536

>  <MWHBN>
0.317091032

>  <MWHBN-cont>
0.786853947

>  <TPSA-cont>
0.557987081

>  <pka_cont>
0.97

>  <yes.1>


>  <BBB_SCORE>
3.838417618

>  <MMFF94 Energy>
-23.064

$$$$
Compound 175
Actelion Java MolfileCreator 2.0

  0  0  0  0  0  0              0 V3000
M  V30 BEGIN CTAB
M  V30 COUNTS 46 48 0 0 0
M  V30 BEGIN ATOM
M  V30 1 O 0.6309 -2.5258 -0.3943 0
M  V30 2 C -0.5262 -2.1878 -0.1348 0
M  V30 3 N -1.536 -3.1366 0.039 0
M  V30 4 C -0.9247 -0.7207 0.0461 0
M  V30 5 C -2.8894 -2.8388 0.4811 0
M  V30 6 C -1.2516 -4.5314 -0.2558 0
M  V30 7 C 0.0495 0.2232 -0.5833 0
M  V30 8 N 0.0312 0.5741 -1.9503 0
M  V30 9 C 0.9946 0.9749 0.032 0
M  V30 10 C -0.9932 0.4479 -2.8664 0
M  V30 11 C 1.1783 1.4692 -2.2323 0 CFG=2
M  V30 12 N 1.5951 1.822 -0.8924 0
M  V30 13 C 1.3902 0.9993 1.4376 0
M  V30 14 C -1.2052 1.3794 -3.8167 0
M  V30 15 C 0.7298 2.6464 -3.039 0
M  V30 16 C 1.8309 -0.162 2.0812 0
M  V30 17 C 1.3602 2.2009 2.1544 0
M  V30 18 C -0.3748 2.5829 -3.8086 0
M  V30 19 C -2.3098 1.2984 -4.8217 0
M  V30 20 C 2.2156 -0.127 3.4246 0
M  V30 21 C 1.7436 2.2373 3.498 0
M  V30 22 C 2.161 1.07 4.1476 0
M  V30 23 C 2.6065 1.114 5.5789 0
M  V30 24 H -1.9154 -0.5441 -0.3847 0
M  V30 25 H -1.0092 -0.5344 1.1228 0
M  V30 26 H -2.9521 -1.8829 1.0035 0
M  V30 27 H -3.5421 -2.8178 -0.396 0
M  V30 28 H -3.2261 -3.6226 1.1666 0
M  V30 29 H -0.2473 -4.6771 -0.6608 0
M  V30 30 H -1.9801 -4.8906 -0.989 0
M  V30 31 H -1.3482 -5.1111 0.6668 0
M  V30 32 H -1.6287 -0.4211 -2.7413 0
M  V30 33 H 1.9777 0.9234 -2.748 0
M  V30 34 H 2.5028 2.2117 -0.6967 0
M  V30 35 H 1.336 3.5426 -3.0151 0
M  V30 36 H 1.894 -1.1012 1.5345 0
M  V30 37 H 1.0299 3.1152 1.6659 0
M  V30 38 H -0.6866 3.4344 -4.4048 0
M  V30 39 H -2.9973 2.1437 -4.7108 0
M  V30 40 H -2.8936 0.3784 -4.7097 0
M  V30 41 H -1.9037 1.312 -5.8386 0
M  V30 42 H 2.5627 -1.0422 3.8986 0
M  V30 43 H 1.7129 3.1838 4.0325 0
M  V30 44 H 2.409 0.16 6.0789 0
M  V30 45 H 3.6788 1.3257 5.6307 0
M  V30 46 H 2.0654 1.8885 6.1328 0
M  V30 END ATOM
M  V30 BEGIN BOND
M  V30 1 2 1 2
M  V30 2 1 2 3
M  V30 3 1 2 4
M  V30 4 1 3 5
M  V30 5 1 3 6
M  V30 6 1 4 7
M  V30 7 1 7 8
M  V30 8 2 7 9
M  V30 9 1 8 10
M  V30 10 1 8 11
M  V30 11 1 9 12
M  V30 12 1 9 13
M  V30 13 2 10 14
M  V30 14 1 11 15
M  V30 15 2 13 16
M  V30 16 1 13 17
M  V30 17 1 14 18
M  V30 18 1 14 19
M  V30 19 1 16 20
M  V30 20 2 17 21
M  V30 21 2 20 22
M  V30 22 1 22 23
M  V30 23 1 11 12
M  V30 24 2 15 18
M  V30 25 1 21 22
M  V30 26 1 4 24
M  V30 27 1 4 25
M  V30 28 1 5 26
M  V30 29 1 5 27
M  V30 30 1 5 28
M  V30 31 1 6 29
M  V30 32 1 6 30
M  V30 33 1 6 31
M  V30 34 1 10 32
M  V30 35 1 11 33
M  V30 36 1 12 34
M  V30 37 1 15 35
M  V30 38 1 16 36
M  V30 39 1 17 37
M  V30 40 1 18 38
M  V30 41 1 19 39
M  V30 42 1 19 40
M  V30 43 1 19 41
M  V30 44 1 20 42
M  V30 45 1 21 43
M  V30 46 1 23 44
M  V30 47 1 23 45
M  V30 48 1 23 46
M  V30 END BOND
M  V30 BEGIN COLLECTION
M  V30 MDLV30/STERAC1 ATOMS=(1 11)
M  V30 END COLLECTION
M  V30 END CTAB
M  END
>  <Column 1>
229

>  <level_0>
264

>  <index>
264

>  <Unnamed: 0>
264

>  <NO.>
265

>  <Name>
zolpidem

>  <IUPAC_name>


>  <SMILES>
CC1=CN2C(CC(=O)N(C)C)=C(c3ccc(C)cc3)NC2C=C1

>  <CID>


>  <logBB>
-0.54

>  <BBB+/BBB->
BBB+

>  <Inchi>
InChI=1S/C19H23N3O/c1-13-5-8-15(9-6-13)19-16(11-18(23)21(3)4)22-12-14(2)7-10-17(22)20-19/h5-10-12-17-20H-11H2-1-4H3

>  <threshold>


>  <reference>
R2|R2|R25|R46|

>  <group>
A

>  <Class>
1

>  <ABC>
18.02

>  <ABCGG>
15.06

>  <nAcid>
0

>  <nBase>
0

>  <nAromAtom>
6

>  <nAromBond>
6

>  <nAtom>
46

>  <nHeavyAtom>
23

>  <nSpiro>
0

>  <nBridgehead>
0

>  <nHetero>
4

>  <nN>
3

>  <nO>
1

>  <nF>
0

>  <BalabanJ>
1.73

>  <BertzCT>
710.64

>  <nBonds>
48

>  <nBondsO>
25

>  <nBondsS>
38

>  <nBondsD>
4

>  <nBondsT>
0

>  <nBondsA>
6

>  <nBondsM>
10

>  <nBondsKS>
41

>  <nBondsKD>
7

>  <RNCG>
0.2

>  <RPCG>
0.13

>  <FCSP3>
0.32

>  <SZ>
27.67

>  <Sm>
25.76

>  <Sv>
28.22

>  <Sse>
45.53

>  <Sp>
30.64

>  <Si>
51.86

>  <MZ>
0.6

>  <Mm>
0.56

>  <Mv>
0.61

>  <Mse>
0.99

>  <Mp>
0.67

>  <Mi>
1.13

>  <NsCH3>
4

>  <NdCH2>
0

>  <NssCH2>
1

>  <NtCH>
0

>  <NdsCH>
3

>  <NaaCH>
4

>  <NsssCH>
1

>  <NddC>
0

>  <NtsC>
0

>  <NdssC>
4

>  <NaasC>
2

>  <NaaaC>
0

>  <NssssC>
0

>  <NsNH3>
0

>  <NsNH2>
0

>  <NssNH2>
0

>  <NdNH>
0

>  <NssNH>
1

>  <NaaNH>
0

>  <NtN>
0

>  <NsssNH>
0

>  <NdsN>
0

>  <NaaN>
0

>  <NsssN>
2

>  <NddsN>
0

>  <NaasN>
0

>  <NssssN>
0

>  <NsOH>
0

>  <NdO>
1

>  <NssO>
0

>  <NaaO>
0

>  <NsF>
0

>  <NsSiH3>
0

>  <NssSiH2>
0

>  <NsssSiH>
0

>  <NssssSi>
0

>  <NsPH2>
0

>  <NssPH>
0

>  <NsssP>
0

>  <NdsssP>
0

>  <NsssssP>
0

>  <NsSH>
0

>  <NdS>
0

>  <NssS>
0

>  <NaaS>
0

>  <NdssS>
0

>  <NddssS>
0

>  <NsCl>
0

>  <NsBr>
0

>  <NsI>
0

>  <fragCpx>
119.04

>  <fMF>
0.33

>  <nHBAcc>
3

>  <nHBDon>
1

>  <Kier1>
17.81

>  <Kier2>
7.49

>  <Lipinski>
1

>  <GhoseFilter>
1

>  <FilterItLogS>
-3.37

>  <VMcGowan>
251.7

>  <LabuteASA>
137.33

>  <PEOE_VSA1>
15.12

>  <PEOE_VSA2>
4.79

>  <PEOE_VSA3>
0

>  <PEOE_VSA4>
0

>  <PEOE_VSA5>
0

>  <PEOE_VSA6>
35.9

>  <PEOE_VSA7>
31.06

>  <PEOE_VSA8>
20.3

>  <PEOE_VSA9>
17.81

>  <PEOE_VSA10>
6.17

>  <PEOE_VSA11>
0

>  <PEOE_VSA12>
5.91

>  <PEOE_VSA13>
0

>  <SMR_VSA1>
4.79

>  <SMR_VSA2>
0

>  <SMR_VSA3>
15.12

>  <SMR_VSA4>
0

>  <SMR_VSA5>
26.43

>  <SMR_VSA6>
14.1

>  <SMR_VSA7>
65.01

>  <SMR_VSA8>
0

>  <SMR_VSA9>
0

>  <SlogP_VSA1>
5.32

>  <SlogP_VSA2>
35.97

>  <SlogP_VSA3>
4.79

>  <SlogP_VSA4>
6.92

>  <SlogP_VSA5>
24.47

>  <SlogP_VSA6>
53.89

>  <SlogP_VSA7>
0

>  <SlogP_VSA8>
5.7

>  <SlogP_VSA9>
0

>  <SlogP_VSA10>
0

>  <SlogP_VSA11>
0

>  <EState_VSA1>
0

>  <EState_VSA2>
12.07

>  <EState_VSA3>
6.42

>  <EState_VSA4>
16.96

>  <EState_VSA5>
11.14

>  <EState_VSA6>
19

>  <EState_VSA7>
0

>  <EState_VSA8>
66.68

>  <EState_VSA9>
0

>  <EState_VSA10>
4.79

>  <VSA_EState1>
0

>  <VSA_EState2>
16.1

>  <VSA_EState3>
3.55

>  <VSA_EState4>
5.6

>  <VSA_EState5>
0.1

>  <VSA_EState6>
8.42

>  <VSA_EState7>
6.82

>  <VSA_EState8>
4.15

>  <VSA_EState9>
3.59

>  <apol>
51.17

>  <bpol>
27.93

>  <nRing>
3

>  <nHRing>
2

>  <naRing>
1

>  <naHRing>
0

>  <nARing 2>
2

>  <nAHRing 2>
2

>  <nFRing>
1

>  <nFHRing>
1

>  <nFaRing>
0

>  <nFaHRing>
0

>  <nFARing 2>
1

>  <nFAHRing 2>
1

>  <nRot>
3

>  <SLogP>
2.85

>  <SMR>
93.07

>  <TopoPSA(NO)>
35.58

>  <TopoPSA>
35.58

>  <JGI1>
0.22

>  <JGI2>
0.09

>  <JGI3>
0.04

>  <JGI4>
0.05

>  <JGI5>
0.03

>  <Diameter>
10

>  <Radius>
5

>  <TMWC10>
123.27

>  <TSRW10>
71.77

>  <MW>
309.18

>  <AMW>
6.72

>  <WPath>
1137

>  <WPol>
36

>  <Zagreb1>
122

>  <Zagreb2>
144

>  <mZagreb2>
4.97

>  <yes>


>  <nAR-cont>
1

>  <nHA-cont>
0.967789328

>  <MWHBN>
0.227485801

>  <MWHBN-cont>
0.989178673

>  <TPSA-cont>
0.751629506

>  <pka_cont>
0.97

>  <yes.1>


>  <BBB_SCORE>
5.439816349

>  <MMFF94 Energy>
54.248

$$$$
Compound 176
Actelion Java MolfileCreator 2.0

  0  0  0  0  0  0              0 V3000
M  V30 BEGIN CTAB
M  V30 COUNTS 50 53 0 0 0
M  V30 BEGIN ATOM
M  V30 1 O -1.2711 3.18 5.0121 0
M  V30 2 C -1.1521 3.0463 3.7988 0
M  V30 3 N -0.4636 3.9291 2.9875 0
M  V30 4 C -1.7986 1.8947 3.1139 0
M  V30 5 C 0.2062 5.0764 3.5124 0
M  V30 6 C -1.2458 1.3058 1.9704 0
M  V30 7 C -2.9769 1.3769 3.6556 0
M  V30 8 C 0.8233 6.094 2.5923 0
M  V30 9 C -0.4069 6.4423 3.3773 0
M  V30 10 C -1.8761 0.2151 1.3412 0
M  V30 11 C -3.6147 0.2981 3.0427 0
M  V30 12 C -1.2529 -0.3686 0.1463 0
M  V30 13 C -3.0796 -0.2883 1.8844 0
M  V30 14 C -1.5965 0.0856 -1.1348 0
M  V30 15 C -0.3 -1.392 0.2649 0
M  V30 16 C -3.799 -1.4536 1.2564 0
M  V30 17 C -1.0 -0.4686 -2.2709 0
M  V30 18 C 0.2997 -1.9494 -0.8696 0
M  V30 19 C -0.0403 -1.4797 -2.1435 0
M  V30 20 C 0.5622 -2.0394 -3.3853 0
M  V30 21 O -0.0571 -1.9969 -4.4424 0
M  V30 22 N 1.832 -2.5613 -3.274 0
M  V30 23 C 2.4885 -3.1482 -4.4169 0
M  V30 24 C 3.8649 -3.5836 -4.0309 0
M  V30 25 C 4.0753 -4.833 -3.2126 0
M  V30 26 C 4.4827 -4.8059 -4.6602 0
M  V30 27 H -0.484 3.8069 1.984 0
M  V30 28 H 0.742 4.8716 4.438 0
M  V30 29 H -0.3014 1.6664 1.5692 0
M  V30 30 H -3.4034 1.8152 4.5563 0
M  V30 31 H 0.7196 5.9666 1.5219 0
M  V30 32 H 1.7618 6.5436 2.8963 0
M  V30 33 H -0.3062 7.1198 4.2175 0
M  V30 34 H -1.3474 6.533 2.847 0
M  V30 35 H -4.5348 -0.0848 3.4805 0
M  V30 36 H -2.3403 0.8712 -1.2559 0
M  V30 37 H -0.0305 -1.7702 1.2499 0
M  V30 38 H -3.1628 -2.3442 1.2637 0
M  V30 39 H -4.7153 -1.7006 1.8035 0
M  V30 40 H -4.0879 -1.2158 0.2278 0
M  V30 41 H -1.2861 -0.1092 -3.2578 0
M  V30 42 H 1.0033 -2.7657 -0.7379 0
M  V30 43 H 2.3418 -2.5002 -2.4053 0
M  V30 44 H 1.8746 -3.9847 -4.7701 0
M  V30 45 H 2.535 -2.4014 -5.2169 0
M  V30 46 H 4.5185 -2.7378 -3.8457 0
M  V30 47 H 3.2113 -5.4307 -2.9432 0
M  V30 48 H 4.861 -4.8262 -2.4656 0
M  V30 49 H 3.8948 -5.386 -5.3629 0
M  V30 50 H 5.5421 -4.7779 -4.8897 0
M  V30 END ATOM
M  V30 BEGIN BOND
M  V30 1 2 1 2
M  V30 2 1 2 3
M  V30 3 1 2 4
M  V30 4 1 3 5
M  V30 5 2 4 6
M  V30 6 1 4 7
M  V30 7 1 5 8
M  V30 8 1 5 9
M  V30 9 1 6 10
M  V30 10 2 7 11
M  V30 11 1 10 12
M  V30 12 2 10 13
M  V30 13 2 12 14
M  V30 14 1 12 15
M  V30 15 1 13 16
M  V30 16 1 14 17
M  V30 17 2 15 18
M  V30 18 2 17 19
M  V30 19 1 19 20
M  V30 20 2 20 21
M  V30 21 1 20 22
M  V30 22 1 22 23
M  V30 23 1 23 24
M  V30 24 1 24 25
M  V30 25 1 24 26
M  V30 26 1 8 9
M  V30 27 1 11 13
M  V30 28 1 18 19
M  V30 29 1 25 26
M  V30 30 1 3 27
M  V30 31 1 5 28
M  V30 32 1 6 29
M  V30 33 1 7 30
M  V30 34 1 8 31
M  V30 35 1 8 32
M  V30 36 1 9 33
M  V30 37 1 9 34
M  V30 38 1 11 35
M  V30 39 1 14 36
M  V30 40 1 15 37
M  V30 41 1 16 38
M  V30 42 1 16 39
M  V30 43 1 16 40
M  V30 44 1 17 41
M  V30 45 1 18 42
M  V30 46 1 22 43
M  V30 47 1 23 44
M  V30 48 1 23 45
M  V30 49 1 24 46
M  V30 50 1 25 47
M  V30 51 1 25 48
M  V30 52 1 26 49
M  V30 53 1 26 50
M  V30 END BOND
M  V30 END CTAB
M  END
>  <Column 1>
230

>  <level_0>
265

>  <index>
265

>  <Unnamed: 0>
265

>  <NO.>
266

>  <Name>
515134-70-0

>  <IUPAC_name>
n-cyclopropyl-3-[4-(cyclopropylmethylcarbamoyl)phenyl]-4-methylbenzamide

>  <SMILES>
Cc1ccc(C(=O)NC2CC2)cc1-c1ccc(C(=O)NCC2CC2)cc1

>  <CID>
24856363

>  <logBB>
-0.52

>  <BBB+/BBB->
BBB+

>  <Inchi>
InChI=1S/C22H24N2O2/c1-14-2-5-18(22(26)24-19-10-11-19)12-20(14)16-6-8-17(9-7-16)21(25)23-13-15-3-4-15/h2-5-9-12-15-19H-3-4-10-11-13H2-1H3-(H-23-25)(H-24-26)

>  <threshold>


>  <reference>
R18|R26|R27|

>  <group>
A

>  <Class>
1

>  <ABC>
20.67

>  <ABCGG>
15.76

>  <nAcid>
0

>  <nBase>
0

>  <nAromAtom>
12

>  <nAromBond>
12

>  <nAtom>
50

>  <nHeavyAtom>
26

>  <nSpiro>
0

>  <nBridgehead>
0

>  <nHetero>
4

>  <nN>
2

>  <nO>
2

>  <nF>
0

>  <BalabanJ>
1.23

>  <BertzCT>
833.72

>  <nBonds>
53

>  <nBondsO>
29

>  <nBondsS>
39

>  <nBondsD>
2

>  <nBondsT>
0

>  <nBondsA>
12

>  <nBondsM>
14

>  <nBondsKS>
45

>  <nBondsKD>
8

>  <RNCG>
0.19

>  <RPCG>
0.13

>  <FCSP3>
0.36

>  <SZ>
31

>  <Sm>
29.01

>  <Sv>
31.45

>  <Sse>
49.64

>  <Sp>
33.86

>  <Si>
55.98

>  <MZ>
0.62

>  <Mm>
0.58

>  <Mv>
0.63

>  <Mse>
0.99

>  <Mp>
0.68

>  <Mi>
1.12

>  <NsCH3>
1

>  <NdCH2>
0

>  <NssCH2>
5

>  <NtCH>
0

>  <NdsCH>
0

>  <NaaCH>
7

>  <NsssCH>
2

>  <NddC>
0

>  <NtsC>
0

>  <NdssC>
2

>  <NaasC>
5

>  <NaaaC>
0

>  <NssssC>
0

>  <NsNH3>
0

>  <NsNH2>
0

>  <NssNH2>
0

>  <NdNH>
0

>  <NssNH>
2

>  <NaaNH>
0

>  <NtN>
0

>  <NsssNH>
0

>  <NdsN>
0

>  <NaaN>
0

>  <NsssN>
0

>  <NddsN>
0

>  <NaasN>
0

>  <NssssN>
0

>  <NsOH>
0

>  <NdO>
2

>  <NssO>
0

>  <NaaO>
0

>  <NsF>
0

>  <NsSiH3>
0

>  <NssSiH2>
0

>  <NsssSiH>
0

>  <NssssSi>
0

>  <NsPH2>
0

>  <NssPH>
0

>  <NsssP>
0

>  <NdsssP>
0

>  <NsssssP>
0

>  <NsSH>
0

>  <NdS>
0

>  <NssS>
0

>  <NaaS>
0

>  <NdssS>
0

>  <NddssS>
0

>  <NsCl>
0

>  <NsBr>
0

>  <NsI>
0

>  <fragCpx>
191.04

>  <fMF>
0.46

>  <nHBAcc>
2

>  <nHBDon>
2

>  <Kier1>
19.32

>  <Kier2>
8.57

>  <Lipinski>
1

>  <GhoseFilter>
1

>  <FilterItLogS>
-5.81

>  <VMcGowan>
274.7

>  <LabuteASA>
153.55

>  <PEOE_VSA1>
10.63

>  <PEOE_VSA2>
9.59

>  <PEOE_VSA3>
0

>  <PEOE_VSA4>
0

>  <PEOE_VSA5>
0

>  <PEOE_VSA6>
18.2

>  <PEOE_VSA7>
79.48

>  <PEOE_VSA8>
23.71

>  <PEOE_VSA9>
0

>  <PEOE_VSA10>
0

>  <PEOE_VSA11>
0

>  <PEOE_VSA12>
0

>  <PEOE_VSA13>
11.81

>  <SMR_VSA1>
9.59

>  <SMR_VSA2>
0

>  <SMR_VSA3>
10.63

>  <SMR_VSA4>
5.92

>  <SMR_VSA5>
38.65

>  <SMR_VSA6>
6.54

>  <SMR_VSA7>
59.15

>  <SMR_VSA8>
0

>  <SMR_VSA9>
11.13

>  <SlogP_VSA1>
10.63

>  <SlogP_VSA2>
24.4

>  <SlogP_VSA3>
0

>  <SlogP_VSA4>
12.84

>  <SlogP_VSA5>
51.96

>  <SlogP_VSA6>
42.46

>  <SlogP_VSA7>
0

>  <SlogP_VSA8>
11.13

>  <SlogP_VSA9>
0

>  <SlogP_VSA10>
0

>  <SlogP_VSA11>
0

>  <EState_VSA1>
0

>  <EState_VSA2>
11.81

>  <EState_VSA3>
23.09

>  <EState_VSA4>
36.08

>  <EState_VSA5>
12.84

>  <EState_VSA6>
0

>  <EState_VSA7>
49.39

>  <EState_VSA8>
10.63

>  <EState_VSA9>
0

>  <EState_VSA10>
9.59

>  <VSA_EState1>
0

>  <VSA_EState2>
24.48

>  <VSA_EState3>
6.02

>  <VSA_EState4>
4.51

>  <VSA_EState5>
0.65

>  <VSA_EState6>
13.76

>  <VSA_EState7>
4.61

>  <VSA_EState8>
2.81

>  <VSA_EState9>
0

>  <apol>
56.55

>  <bpol>
26.95

>  <nRing>
4

>  <nHRing>
0

>  <naRing>
2

>  <naHRing>
0

>  <nARing 2>
2

>  <nAHRing 2>
0

>  <nFRing>
0

>  <nFHRing>
0

>  <nFaRing>
0

>  <nFaHRing>
0

>  <nFARing 2>
0

>  <nFAHRing 2>
0

>  <nRot>
6

>  <SLogP>
3.69

>  <SMR>
102.16

>  <TopoPSA(NO)>
58.2

>  <TopoPSA>
58.2

>  <JGI1>
0.19

>  <JGI2>
0.1

>  <JGI3>
0.04

>  <JGI4>
0.03

>  <JGI5>
0.03

>  <Diameter>
15

>  <Radius>
8

>  <TMWC10>
130.72

>  <TSRW10>
81.95

>  <MW>
348.18

>  <AMW>
6.96

>  <WPath>
1888

>  <WPol>
38

>  <Zagreb1>
140

>  <Zagreb2>
165

>  <mZagreb2>
5.61

>  <yes>


>  <nAR-cont>
1

>  <nHA-cont>
0.892715677

>  <MWHBN>
0.214367074

>  <MWHBN-cont>
0.997900779

>  <TPSA-cont>
0.59372786

>  <pka_cont>
0.97

>  <yes.1>


>  <BBB_SCORE>
5.062022566

>  <MMFF94 Energy>
49.999

$$$$
Compound 177
Actelion Java MolfileCreator 2.0

  0  0  0  0  0  0              0 V3000
M  V30 BEGIN CTAB
M  V30 COUNTS 60 63 0 0 0
M  V30 BEGIN ATOM
M  V30 1 O 0.0801 1.2831 -3.6119 0
M  V30 2 C -0.0639 0.6523 -2.5563 0
M  V30 3 C 0.5933 1.1388 -1.3071 0
M  V30 4 C -0.9314 -0.6282 -2.5097 0 CFG=2
M  V30 5 C 0.9523 2.4354 -1.2094 0
M  V30 6 C 0.9079 0.1476 -0.2222 0 CFG=1
M  V30 7 O -0.9016 -1.1997 -3.8285 0
M  V30 8 C -2.3911 -0.3194 -2.2435 0
M  V30 9 C -0.3309 -1.6551 -1.5412 0 CFG=1
M  V30 10 O 0.6601 3.3752 -2.1767 0
M  V30 11 C 1.7166 2.9232 -0.0277 0
M  V30 12 C 0.9461 0.8313 1.1581 0
M  V30 13 C -0.0761 -1.0287 -0.1565 0
M  V30 14 O -2.8343 0.8466 -2.8597 0
M  V30 15 C -3.1982 -1.1167 -1.506 0
M  V30 16 C -1.2697 -2.8893 -1.4769 0 CFG=2
M  V30 17 C 2.4628 4.1165 -0.0206 0
M  V30 18 C 1.7124 2.1361 1.154 0
M  V30 19 C -2.6396 -2.3886 -0.9324 0
M  V30 20 C -4.62 -0.7053 -1.2912 0
M  V30 21 N -0.7399 -4.0316 -0.6615 0
M  V30 22 O 2.5785 4.882 -1.1499 0
M  V30 23 C 3.1407 4.5395 1.1229 0
M  V30 24 C 2.3802 2.5686 2.3256 0
M  V30 25 O -3.2933 -2.9816 -0.0705 0
M  V30 26 O -5.0902 0.2999 -1.8204 0
M  V30 27 N -5.3811 -1.4819 -0.4831 0
M  V30 28 C 0.6537 -4.3658 -0.9866 0
M  V30 29 C -1.5425 -5.2507 -0.8776 0
M  V30 30 C 3.09 3.7744 2.285 0
M  V30 31 N 2.3083 1.8198 3.5047 0
M  V30 32 C 1.1449 2.1049 4.3372 0
M  V30 33 C 3.5573 1.5206 4.1917 0
M  V30 34 H 1.9059 -0.2586 -0.4421 0
M  V30 35 H -1.0283 -0.4377 -4.4346 0
M  V30 36 H 0.633 -1.9665 -1.9656 0
M  V30 37 H 0.3843 2.9086 -2.9934 0
M  V30 38 H -0.0722 1.0494 1.5069 0
M  V30 39 H 1.3901 0.1219 1.8668 0
M  V30 40 H -1.0173 -0.6886 0.2925 0
M  V30 41 H 0.328 -1.7815 0.5309 0
M  V30 42 H -3.7938 0.9818 -2.6725 0
M  V30 43 H -1.4494 -3.2612 -2.4951 0
M  V30 44 H 2.9861 5.7321 -0.9283 0
M  V30 45 H 3.7156 5.4602 1.1259 0
M  V30 46 H -4.996 -2.3011 -0.0131 0
M  V30 47 H -6.3449 -1.2304 -0.3136 0
M  V30 48 H 0.7928 -4.5526 -2.0576 0
M  V30 49 H 1.3413 -3.5752 -0.6723 0
M  V30 50 H 0.9765 -5.2597 -0.4394 0
M  V30 51 H -1.5054 -5.5823 -1.9222 0
M  V30 52 H -2.5917 -5.1264 -0.6016 0
M  V30 53 H -1.1682 -6.067 -0.2483 0
M  V30 54 H 3.604 4.1376 3.1703 0
M  V30 55 H 1.233 3.0916 4.806 0
M  V30 56 H 1.0561 1.3574 5.1331 0
M  V30 57 H 0.2141 2.0753 3.7606 0
M  V30 58 H 4.3225 1.1758 3.4873 0
M  V30 59 H 3.4015 0.7165 4.9193 0
M  V30 60 H 3.9382 2.3933 4.7331 0
M  V30 END ATOM
M  V30 BEGIN BOND
M  V30 1 2 1 2
M  V30 2 1 2 3
M  V30 3 1 2 4
M  V30 4 2 3 5
M  V30 5 1 3 6
M  V30 6 1 4 7
M  V30 7 1 4 8
M  V30 8 1 4 9
M  V30 9 1 5 10
M  V30 10 1 5 11
M  V30 11 1 6 12
M  V30 12 1 6 13
M  V30 13 1 8 14
M  V30 14 2 8 15
M  V30 15 1 9 16
M  V30 16 2 11 17
M  V30 17 1 11 18
M  V30 18 1 15 19
M  V30 19 1 15 20
M  V30 20 1 16 21
M  V30 21 1 17 22
M  V30 22 1 17 23
M  V30 23 2 18 24
M  V30 24 2 19 25
M  V30 25 2 20 26
M  V30 26 1 20 27
M  V30 27 1 21 28
M  V30 28 1 21 29
M  V30 29 2 23 30
M  V30 30 1 24 31
M  V30 31 1 31 32
M  V30 32 1 31 33
M  V30 33 1 9 13
M  V30 34 1 12 18
M  V30 35 1 16 19
M  V30 36 1 24 30
M  V30 37 1 6 34
M  V30 38 1 7 35
M  V30 39 1 9 36
M  V30 40 1 10 37
M  V30 41 1 12 38
M  V30 42 1 12 39
M  V30 43 1 13 40
M  V30 44 1 13 41
M  V30 45 1 14 42
M  V30 46 1 16 43
M  V30 47 1 22 44
M  V30 48 1 23 45
M  V30 49 1 27 46
M  V30 50 1 27 47
M  V30 51 1 28 48
M  V30 52 1 28 49
M  V30 53 1 28 50
M  V30 54 1 29 51
M  V30 55 1 29 52
M  V30 56 1 29 53
M  V30 57 1 30 54
M  V30 58 1 32 55
M  V30 59 1 32 56
M  V30 60 1 32 57
M  V30 61 1 33 58
M  V30 62 1 33 59
M  V30 63 1 33 60
M  V30 END BOND
M  V30 BEGIN COLLECTION
M  V30 MDLV30/STEABS ATOMS=(4 4 6 9 16)
M  V30 END COLLECTION
M  V30 END CTAB
M  END
>  <Column 1>
232

>  <level_0>
267

>  <index>
267

>  <Unnamed: 0>
267

>  <NO.>
268

>  <Name>
4-epiminocycline

>  <IUPAC_name>
(4r-4as-5ar-12ar)-4-7-bis(dimethylamino)-1-10-11-12a-tetrahydroxy-3-12-dioxo-4a-5-5a-6-tetrahydro-4h-tetracene-2-carboxamide

>  <SMILES>
CN(C)c1ccc(O)c2c1C[C@H]1C[C@H]3[C@@H](N(C)C)C(=O)C(C(N)=O)=C(O)[C@@]3(O)C(=O)C1=C2O

>  <CID>
54749602

>  <logBB>
-0.52

>  <BBB+/BBB->
BBB+

>  <Inchi>
InChI=1S/C23H27N3O7/c1-25(2)12-5-6-13(27)15-10(12)7-9-8-11-17(26(3)4)19(29)16(22(24)32)21(31)23(11-33)20(30)14(9)18(15)28/h5-6-9-11-17-27-28-31-33H-7-8H2-1-4H3-(H2-24-32)/t9--11--17+-23-/m0/s1

>  <threshold>


>  <reference>
R25|

>  <group>
A

>  <Class>
1

>  <ABC>
26.07

>  <ABCGG>
21.46

>  <nAcid>
0

>  <nBase>
1

>  <nAromAtom>
6

>  <nAromBond>
6

>  <nAtom>
60

>  <nHeavyAtom>
33

>  <nSpiro>
0

>  <nBridgehead>
0

>  <nHetero>
10

>  <nN>
3

>  <nO>
7

>  <nF>
0

>  <BalabanJ>
1.75

>  <BertzCT>
1166.83

>  <nBonds>
63

>  <nBondsO>
36

>  <nBondsS>
52

>  <nBondsD>
5

>  <nBondsT>
0

>  <nBondsA>
6

>  <nBondsM>
11

>  <nBondsKS>
55

>  <nBondsKD>
8

>  <RNCG>
0.13

>  <RPCG>
0.07

>  <FCSP3>
0.43

>  <SZ>
40.33

>  <Sm>
38.09

>  <Sv>
37.59

>  <Sse>
61.29

>  <Sp>
39.12

>  <Si>
67.94

>  <MZ>
0.67

>  <Mm>
0.63

>  <Mv>
0.63

>  <Mse>
1.02

>  <Mp>
0.65

>  <Mi>
1.13

>  <NsCH3>
4

>  <NdCH2>
0

>  <NssCH2>
2

>  <NtCH>
0

>  <NdsCH>
0

>  <NaaCH>
2

>  <NsssCH>
3

>  <NddC>
0

>  <NtsC>
0

>  <NdssC>
7

>  <NaasC>
4

>  <NaaaC>
0

>  <NssssC>
1

>  <NsNH3>
0

>  <NsNH2>
1

>  <NssNH2>
0

>  <NdNH>
0

>  <NssNH>
0

>  <NaaNH>
0

>  <NtN>
0

>  <NsssNH>
0

>  <NdsN>
0

>  <NaaN>
0

>  <NsssN>
2

>  <NddsN>
0

>  <NaasN>
0

>  <NssssN>
0

>  <NsOH>
4

>  <NdO>
3

>  <NssO>
0

>  <NaaO>
0

>  <NsF>
0

>  <NsSiH3>
0

>  <NssSiH2>
0

>  <NsssSiH>
0

>  <NssssSi>
0

>  <NsPH2>
0

>  <NssPH>
0

>  <NsssP>
0

>  <NdsssP>
0

>  <NsssssP>
0

>  <NsSH>
0

>  <NdS>
0

>  <NssS>
0

>  <NaaS>
0

>  <NdssS>
0

>  <NddssS>
0

>  <NsCl>
0

>  <NsBr>
0

>  <NsI>
0

>  <fragCpx>
240.1

>  <fMF>
0.3

>  <nHBAcc>
9

>  <nHBDon>
5

>  <Kier1>
26.07

>  <Kier2>
9.14

>  <Lipinski>
1

>  <GhoseFilter>
1

>  <FilterItLogS>
-1.82

>  <VMcGowan>
328.12

>  <LabuteASA>
189.76

>  <PEOE_VSA1>
31.06

>  <PEOE_VSA2>
19.28

>  <PEOE_VSA3>
0

>  <PEOE_VSA4>
0

>  <PEOE_VSA5>
0

>  <PEOE_VSA6>
0

>  <PEOE_VSA7>
50.55

>  <PEOE_VSA8>
31.27

>  <PEOE_VSA9>
11.61

>  <PEOE_VSA10>
22.84

>  <PEOE_VSA11>
11.38

>  <PEOE_VSA12>
5.78

>  <PEOE_VSA13>
5.91

>  <SMR_VSA1>
34.81

>  <SMR_VSA2>
0

>  <SMR_VSA3>
4.9

>  <SMR_VSA4>
17.57

>  <SMR_VSA5>
24.48

>  <SMR_VSA6>
33.09

>  <SMR_VSA7>
40.17

>  <SMR_VSA8>
0

>  <SMR_VSA9>
5.75

>  <SlogP_VSA1>
10.63

>  <SlogP_VSA2>
82.63

>  <SlogP_VSA3>
20.8

>  <SlogP_VSA4>
11.84

>  <SlogP_VSA5>
17.55

>  <SlogP_VSA6>
29.04

>  <SlogP_VSA7>
0

>  <SlogP_VSA8>
5.76

>  <SlogP_VSA9>
0

>  <SlogP_VSA10>
5.69

>  <SlogP_VSA11>
5.75

>  <EState_VSA1>
58.04

>  <EState_VSA2>
29.73

>  <EState_VSA3>
5.56

>  <EState_VSA4>
5.69

>  <EState_VSA5>
10.97

>  <EState_VSA6>
20.16

>  <EState_VSA7>
19

>  <EState_VSA8>
0

>  <EState_VSA9>
5.73

>  <EState_VSA10>
34.81

>  <VSA_EState1>
0

>  <VSA_EState2>
41.99

>  <VSA_EState3>
43.9

>  <VSA_EState4>
3.15

>  <VSA_EState5>
-6.54

>  <VSA_EState6>
2.01

>  <VSA_EState7>
0.32

>  <VSA_EState8>
0

>  <VSA_EState9>
6.75

>  <apol>
65.33

>  <bpol>
32.54

>  <nRing>
4

>  <nHRing>
0

>  <naRing>
1

>  <naHRing>
0

>  <nARing 2>
3

>  <nAHRing 2>
0

>  <nFRing>
1

>  <nFHRing>
0

>  <nFaRing>
0

>  <nFaHRing>
0

>  <nFARing 2>
1

>  <nFAHRing 2>
0

>  <nRot>
3

>  <SLogP>
0.03

>  <SMR>
118.57

>  <TopoPSA(NO)>
164.63

>  <TopoPSA>
164.63

>  <JGI1>
0.24

>  <JGI2>
0.1

>  <JGI3>
0.07

>  <JGI4>
0.06

>  <JGI5>
0.04

>  <Diameter>
12

>  <Radius>
6

>  <TMWC10>
150.6

>  <TSRW10>
70.43

>  <MW>
457.18

>  <AMW>
7.62

>  <WPath>
2672

>  <WPol>
75

>  <Zagreb1>
188

>  <Zagreb2>
239

>  <mZagreb2>
6.97

>  <yes>


>  <nAR-cont>
0.691115

>  <nHA-cont>
0.61399562

>  <MWHBN>
0.654763443

>  <MWHBN-cont>
0

>  <TPSA-cont>
0

>  <pka_cont>
0.97

>  <yes.1>


>  <BBB_SCORE>
1.79011062

>  <MMFF94 Energy>
104.3

$$$$
Compound 178
Actelion Java MolfileCreator 2.0

  0  0  0  0  0  0              0 V3000
M  V30 BEGIN CTAB
M  V30 COUNTS 53 56 0 0 0
M  V30 BEGIN ATOM
M  V30 1 S -2.9839 0.8058 3.8723 0
M  V30 2 O -2.8916 1.9477 4.7631 0
M  V30 3 O -3.5133 -0.4579 4.3506 0
M  V30 4 C -3.9777 1.2795 2.4767 0
M  V30 5 C -1.3738 0.5011 3.1839 0
M  V30 6 C -4.3427 2.6168 2.3007 0
M  V30 7 C -4.4062 0.2952 1.5811 0
M  V30 8 C -0.7338 1.76 2.62 0
M  V30 9 C -5.1206 2.9735 1.1995 0
M  V30 10 C -5.1845 0.6609 0.4834 0
M  V30 11 C 0.6085 1.4527 2.0037 0
M  V30 12 C -5.5371 1.9981 0.2914 0
M  V30 13 C 0.6927 1.1014 0.6443 0
M  V30 14 C 1.7676 1.4784 2.7861 0
M  V30 15 C 1.9427 0.7809 0.0725 0
M  V30 16 C 3.0182 1.167 2.2438 0
M  V30 17 C 3.0725 0.823 0.8888 0
M  V30 18 C 2.3705 0.3866 -1.2387 0
M  V30 19 N 4.1482 0.4742 0.1074 0
M  V30 20 C 3.7407 0.2219 -1.1724 0
M  V30 21 C 1.5125 0.2107 -2.4586 0
M  V30 22 C 1.2575 -1.2441 -2.9054 0 CFG=1
M  V30 23 N 2.4606 -2.017 -3.2756 0
M  V30 24 C 0.559 -2.109 -1.8432 0
M  V30 25 C 2.0884 -3.4249 -3.1395 0
M  V30 26 C 2.9575 -1.7093 -4.6093 0
M  V30 27 C 1.3229 -3.4263 -1.8315 0
M  V30 28 H -1.482 -0.2795 2.4231 0
M  V30 29 H -0.7648 0.0868 3.9956 0
M  V30 30 H -4.0324 3.3814 3.0098 0
M  V30 31 H -4.1514 -0.7508 1.7366 0
M  V30 32 H -1.3749 2.2244 1.8618 0
M  V30 33 H -0.6108 2.517 3.4048 0
M  V30 34 H -5.4102 4.0115 1.052 0
M  V30 35 H -5.5267 -0.0962 -0.2181 0
M  V30 36 H -6.1494 2.2799 -0.5622 0
M  V30 37 H -0.2007 1.0718 0.0274 0
M  V30 38 H 1.7094 1.7446 3.8404 0
M  V30 39 H 3.9119 1.1913 2.8589 0
M  V30 40 H 5.1013 0.4138 0.4365 0
M  V30 41 H 4.4529 -0.0735 -1.9315 0
M  V30 42 H 0.5409 0.6914 -2.2866 0
M  V30 43 H 1.9713 0.7698 -3.2844 0
M  V30 44 H 0.5821 -1.2002 -3.773 0
M  V30 45 H -0.4829 -2.2844 -2.1369 0
M  V30 46 H 0.5454 -1.6711 -0.8416 0
M  V30 47 H 2.9633 -4.0807 -3.0943 0
M  V30 48 H 1.4378 -3.7563 -3.9589 0
M  V30 49 H 3.8431 -2.314 -4.8335 0
M  V30 50 H 3.2681 -0.6617 -4.6776 0
M  V30 51 H 2.2093 -1.8979 -5.3874 0
M  V30 52 H 2.0193 -3.4413 -0.9837 0
M  V30 53 H 0.6572 -4.2895 -1.7373 0
M  V30 END ATOM
M  V30 BEGIN BOND
M  V30 1 2 1 2
M  V30 2 2 1 3
M  V30 3 1 1 4
M  V30 4 1 1 5
M  V30 5 2 4 6
M  V30 6 1 4 7
M  V30 7 1 5 8
M  V30 8 1 6 9
M  V30 9 2 7 10
M  V30 10 1 8 11
M  V30 11 2 9 12
M  V30 12 2 11 13
M  V30 13 1 11 14
M  V30 14 1 13 15
M  V30 15 2 14 16
M  V30 16 2 15 17
M  V30 17 1 15 18
M  V30 18 1 17 19
M  V30 19 2 18 20
M  V30 20 1 18 21
M  V30 21 1 21 22
M  V30 22 1 22 23
M  V30 23 1 22 24
M  V30 24 1 23 25
M  V30 25 1 23 26
M  V30 26 1 24 27
M  V30 27 1 10 12
M  V30 28 1 16 17
M  V30 29 1 19 20
M  V30 30 1 25 27
M  V30 31 1 5 28
M  V30 32 1 5 29
M  V30 33 1 6 30
M  V30 34 1 7 31
M  V30 35 1 8 32
M  V30 36 1 8 33
M  V30 37 1 9 34
M  V30 38 1 10 35
M  V30 39 1 12 36
M  V30 40 1 13 37
M  V30 41 1 14 38
M  V30 42 1 16 39
M  V30 43 1 19 40
M  V30 44 1 20 41
M  V30 45 1 21 42
M  V30 46 1 21 43
M  V30 47 1 22 44
M  V30 48 1 24 45
M  V30 49 1 24 46
M  V30 50 1 25 47
M  V30 51 1 25 48
M  V30 52 1 26 49
M  V30 53 1 26 50
M  V30 54 1 26 51
M  V30 55 1 27 52
M  V30 56 1 27 53
M  V30 END BOND
M  V30 BEGIN COLLECTION
M  V30 MDLV30/STEABS ATOMS=(1 22)
M  V30 END COLLECTION
M  V30 END CTAB
M  END
>  <Column 1>
233

>  <level_0>
269

>  <index>
269

>  <Unnamed: 0>
269

>  <NO.>
270

>  <Name>
eletriptan

>  <IUPAC_name>
5-[2-(benzenesulfonyl)ethyl]-3-[[(2s)-1-methylpyrrolidin-2-yl]methyl]-1h-indole

>  <SMILES>
CN1CCC[C@H]1Cc1c[nH]c2ccc(CCS(=O)(=O)c3ccccc3)cc12

>  <CID>
25273626

>  <logBB>
-0.52

>  <BBB+/BBB->
BBB+

>  <Inchi>
InChI=1S/C22H26N2O2S/c1-24-12-5-6-19(24)15-18-16-23-22-10-9-17(14-21(18)22)11-13-27(25-26)20-7-3-2-4-8-20/h2-4-7-10-14-16-19-23H-5-6-11-13-15H2-1H3/t19-/m0/s1

>  <threshold>


>  <reference>
R18|R26|R27|

>  <group>
A

>  <Class>
1

>  <ABC>
21.46

>  <ABCGG>
17.25

>  <nAcid>
0

>  <nBase>
1

>  <nAromAtom>
15

>  <nAromBond>
16

>  <nAtom>
53

>  <nHeavyAtom>
27

>  <nSpiro>
0

>  <nBridgehead>
0

>  <nHetero>
5

>  <nN>
2

>  <nO>
2

>  <nF>
0

>  <BalabanJ>
1.28

>  <BertzCT>
1024.91

>  <nBonds>
56

>  <nBondsO>
30

>  <nBondsS>
38

>  <nBondsD>
2

>  <nBondsT>
0

>  <nBondsA>
16

>  <nBondsM>
18

>  <nBondsKS>
47

>  <nBondsKD>
9

>  <RNCG>
0.21

>  <RPCG>
0.1

>  <FCSP3>
0.36

>  <SZ>
34

>  <Sm>
31.85

>  <Sv>
33.18

>  <Sse>
52.61

>  <Sp>
36.4

>  <Si>
59.32

>  <MZ>
0.64

>  <Mm>
0.6

>  <Mv>
0.63

>  <Mse>
0.99

>  <Mp>
0.69

>  <Mi>
1.12

>  <NsCH3>
1

>  <NdCH2>
0

>  <NssCH2>
6

>  <NtCH>
0

>  <NdsCH>
0

>  <NaaCH>
9

>  <NsssCH>
1

>  <NddC>
0

>  <NtsC>
0

>  <NdssC>
0

>  <NaasC>
3

>  <NaaaC>
2

>  <NssssC>
0

>  <NsNH3>
0

>  <NsNH2>
0

>  <NssNH2>
0

>  <NdNH>
0

>  <NssNH>
0

>  <NaaNH>
1

>  <NtN>
0

>  <NsssNH>
0

>  <NdsN>
0

>  <NaaN>
0

>  <NsssN>
1

>  <NddsN>
0

>  <NaasN>
0

>  <NssssN>
0

>  <NsOH>
0

>  <NdO>
2

>  <NssO>
0

>  <NaaO>
0

>  <NsF>
0

>  <NsSiH3>
0

>  <NssSiH2>
0

>  <NsssSiH>
0

>  <NssssSi>
0

>  <NsPH2>
0

>  <NssPH>
0

>  <NsssP>
0

>  <NdsssP>
0

>  <NsssssP>
0

>  <NsSH>
0

>  <NdS>
0

>  <NssS>
0

>  <NaaS>
0

>  <NdssS>
0

>  <NddssS>
1

>  <NsCl>
0

>  <NsBr>
0

>  <NsI>
0

>  <fragCpx>
198.05

>  <fMF>
0.45

>  <nHBAcc>
3

>  <nHBDon>
1

>  <Kier1>
20.28

>  <Kier2>
8.79

>  <Lipinski>
1

>  <GhoseFilter>
1

>  <FilterItLogS>
-6.12

>  <VMcGowan>
295.35

>  <LabuteASA>
160.68

>  <PEOE_VSA1>
9.88

>  <PEOE_VSA2>
0

>  <PEOE_VSA3>
8.42

>  <PEOE_VSA4>
0

>  <PEOE_VSA5>
0

>  <PEOE_VSA6>
24.27

>  <PEOE_VSA7>
74.67

>  <PEOE_VSA8>
23.14

>  <PEOE_VSA9>
10.65

>  <PEOE_VSA10>
0

>  <PEOE_VSA11>
9.84

>  <PEOE_VSA12>
0

>  <PEOE_VSA13>
0

>  <SMR_VSA1>
8.42

>  <SMR_VSA2>
0

>  <SMR_VSA3>
9.88

>  <SMR_VSA4>
0

>  <SMR_VSA5>
36.62

>  <SMR_VSA6>
19.35

>  <SMR_VSA7>
65.85

>  <SMR_VSA8>
0

>  <SMR_VSA9>
0

>  <SlogP_VSA1>
0

>  <SlogP_VSA2>
43.69

>  <SlogP_VSA3>
22.68

>  <SlogP_VSA4>
0

>  <SlogP_VSA5>
23.97

>  <SlogP_VSA6>
59.62

>  <SlogP_VSA7>
0

>  <SlogP_VSA8>
10.9

>  <SlogP_VSA9>
0

>  <SlogP_VSA10>
0

>  <SlogP_VSA11>
0

>  <EState_VSA1>
9.84

>  <EState_VSA2>
5.75

>  <EState_VSA3>
17.36

>  <EState_VSA4>
17.5

>  <EState_VSA5>
30.34

>  <EState_VSA6>
24.27

>  <EState_VSA7>
12.13

>  <EState_VSA8>
35.26

>  <EState_VSA9>
0

>  <EState_VSA10>
8.42

>  <VSA_EState1>
25.08

>  <VSA_EState2>
6.21

>  <VSA_EState3>
1.23

>  <VSA_EState4>
3.53

>  <VSA_EState5>
0.13

>  <VSA_EState6>
15.58

>  <VSA_EState7>
6.2

>  <VSA_EState8>
1.18

>  <VSA_EState9>
-1.05

>  <apol>
60.78

>  <bpol>
35.02

>  <nRing>
4

>  <nHRing>
2

>  <naRing>
3

>  <naHRing>
1

>  <nARing 2>
1

>  <nAHRing 2>
1

>  <nFRing>
1

>  <nFHRing>
1

>  <nFaRing>
1

>  <nFaHRing>
1

>  <nFARing 2>
0

>  <nFAHRing 2>
0

>  <nRot>
6

>  <SLogP>
3.82

>  <SMR>
109.85

>  <TopoPSA(NO)>
53.17

>  <TopoPSA>
61.55

>  <JGI1>
0.2

>  <JGI2>
0.09

>  <JGI3>
0.05

>  <JGI4>
0.03

>  <JGI5>
0.03

>  <Diameter>
14

>  <Radius>
7

>  <TMWC10>
133.38

>  <TSRW10>
78.11

>  <MW>
382.17

>  <AMW>
7.21

>  <WPath>
2018

>  <WPol>
40

>  <Zagreb1>
146

>  <Zagreb2>
172

>  <mZagreb2>
5.79

>  <yes>


>  <nAR-cont>
0.816016

>  <nHA-cont>
0.860070871

>  <MWHBN>
0.20461228

>  <MWHBN-cont>
0.999997477

>  <TPSA-cont>
0.57034278

>  <pka_cont>
0.97

>  <yes.1>


>  <BBB_SCORE>
4.801768646

>  <MMFF94 Energy>
74.89

$$$$
Compound 179
Actelion Java MolfileCreator 2.0

  0  0  0  0  0  0              0 V3000
M  V30 BEGIN CTAB
M  V30 COUNTS 55 57 0 0 0
M  V30 BEGIN ATOM
M  V30 1 O 1.656 -0.7883 0.1576 0
M  V30 2 C 0.7416 0.009 0.3168 0
M  V30 3 N 0.8604 1.3614 0.113 0
M  V30 4 C -0.6189 -0.397 0.7449 0
M  V30 5 C 2.132 1.9553 -0.2656 0
M  V30 6 C -0.8712 -1.688 1.0094 0
M  V30 7 C 2.5173 1.6634 -1.7151 0
M  V30 8 C -2.1811 -2.1758 1.4588 0
M  V30 9 N 3.7638 2.3206 -2.0819 0
M  V30 10 C -3.366 -1.8078 0.8034 0
M  V30 11 C -2.2321 -3.0623 2.5445 0
M  V30 12 C 3.8525 3.6159 -2.5625 0
M  V30 13 C 5.0196 1.7571 -1.9914 0
M  V30 14 C -4.5996 -2.2996 1.2367 0
M  V30 15 C -3.4548 -3.563 2.9974 0
M  V30 16 C 5.2066 3.8768 -2.7817 0
M  V30 17 C 2.864 4.5813 -2.8201 0
M  V30 18 C 5.9241 2.7067 -2.4226 0
M  V30 19 C 5.2709 0.3721 -1.5076 0
M  V30 20 O -5.8096 -1.9956 0.668 0
M  V30 21 C -4.6307 -3.1869 2.3262 0
M  V30 22 O -3.6071 -4.4209 4.056 0
M  V30 23 C 5.5912 5.1391 -3.275 0
M  V30 24 C 3.2694 5.8271 -3.3092 0
M  V30 25 C -5.8217 -1.0412 -0.3836 0
M  V30 26 O -5.8471 -3.6402 2.7898 0
M  V30 27 C -2.4558 -4.7091 4.837 0
M  V30 28 C 4.6138 6.1049 -3.5344 0
M  V30 29 C -6.1818 -4.8684 2.1462 0
M  V30 30 H 0.0759 1.9755 0.2853 0
M  V30 31 H -1.3769 0.368 0.85 0
M  V30 32 H 2.9015 1.582 0.42 0
M  V30 33 H 2.0398 3.0342 -0.0983 0
M  V30 34 H -0.0838 -2.4358 0.9271 0
M  V30 35 H 2.6306 0.59 -1.8964 0
M  V30 36 H 1.7373 2.0066 -2.4043 0
M  V30 37 H -3.3025 -1.1459 -0.0534 0
M  V30 38 H -1.3009 -3.3418 3.0275 0
M  V30 39 H 1.8118 4.3791 -2.652 0
M  V30 40 H 6.9969 2.5734 -2.4737 0
M  V30 41 H 4.8356 0.2182 -0.5155 0
M  V30 42 H 4.8432 -0.3609 -2.1986 0
M  V30 43 H 6.3454 0.1753 -1.4336 0
M  V30 44 H 6.639 5.3612 -3.453 0
M  V30 45 H 2.5221 6.5891 -3.5181 0
M  V30 46 H -5.4246 -0.077 -0.0492 0
M  V30 47 H -6.8628 -0.886 -0.6826 0
M  V30 48 H -5.2769 -1.4125 -1.2575 0
M  V30 49 H -1.7161 -5.2672 4.2541 0
M  V30 50 H -2.7684 -5.3441 5.6715 0
M  V30 51 H -2.0221 -3.7961 5.2582 0
M  V30 52 H 4.9098 7.0788 -3.9159 0
M  V30 53 H -6.2764 -4.7393 1.0625 0
M  V30 54 H -7.1523 -5.1942 2.5323 0
M  V30 55 H -5.4495 -5.6511 2.3717 0
M  V30 END ATOM
M  V30 BEGIN BOND
M  V30 1 2 1 2
M  V30 2 1 2 3
M  V30 3 1 2 4
M  V30 4 1 3 5
M  V30 5 2 4 6
M  V30 6 1 5 7
M  V30 7 1 6 8
M  V30 8 1 7 9
M  V30 9 2 8 10
M  V30 10 1 8 11
M  V30 11 1 9 12
M  V30 12 1 9 13
M  V30 13 1 10 14
M  V30 14 2 11 15
M  V30 15 2 12 16
M  V30 16 1 12 17
M  V30 17 2 13 18
M  V30 18 1 13 19
M  V30 19 1 14 20
M  V30 20 2 14 21
M  V30 21 1 15 22
M  V30 22 1 16 23
M  V30 23 2 17 24
M  V30 24 1 20 25
M  V30 25 1 21 26
M  V30 26 1 22 27
M  V30 27 2 23 28
M  V30 28 1 26 29
M  V30 29 1 15 21
M  V30 30 1 16 18
M  V30 31 1 24 28
M  V30 32 1 3 30
M  V30 33 1 4 31
M  V30 34 1 5 32
M  V30 35 1 5 33
M  V30 36 1 6 34
M  V30 37 1 7 35
M  V30 38 1 7 36
M  V30 39 1 10 37
M  V30 40 1 11 38
M  V30 41 1 17 39
M  V30 42 1 18 40
M  V30 43 1 19 41
M  V30 44 1 19 42
M  V30 45 1 19 43
M  V30 46 1 23 44
M  V30 47 1 24 45
M  V30 48 1 25 46
M  V30 49 1 25 47
M  V30 50 1 25 48
M  V30 51 1 27 49
M  V30 52 1 27 50
M  V30 53 1 27 51
M  V30 54 1 28 52
M  V30 55 1 29 53
M  V30 56 1 29 54
M  V30 57 1 29 55
M  V30 END BOND
M  V30 END CTAB
M  END
>  <Column 1>
234

>  <level_0>
270

>  <index>
270

>  <Unnamed: 0>
270

>  <NO.>
271

>  <Name>
tg4-155

>  <IUPAC_name>
(e)-n-[2-(2-methylindol-1-yl)ethyl]-3-(3-4-5-trimethoxyphenyl)prop-2-enamide

>  <SMILES>
COc1cc(/C=C/C(=O)NCCn2c(C)cc3ccccc32)cc(OC)c1OC

>  <CID>
5886965

>  <logBB>
-0.52

>  <BBB+/BBB->
BBB+

>  <Inchi>
InChI=1S/C23H26N2O4/c1-16-13-18-7-5-6-8-19(18)25(16)12-11-24-22(26)10-9-17-14-20(27-2)23(29-4)21(15-17)28-3/h5-10-13-15H-11-12H2-1-4H3-(H-24-26)/b10-9+

>  <threshold>


>  <reference>
R47|

>  <group>
A

>  <Class>
1

>  <ABC>
21.94

>  <ABCGG>
17.61

>  <nAcid>
0

>  <nBase>
0

>  <nAromAtom>
15

>  <nAromBond>
16

>  <nAtom>
55

>  <nHeavyAtom>
29

>  <nSpiro>
0

>  <nBridgehead>
0

>  <nHetero>
6

>  <nN>
2

>  <nO>
4

>  <nF>
0

>  <BalabanJ>
1.37

>  <BertzCT>
1011.53

>  <nBonds>
57

>  <nBondsO>
31

>  <nBondsS>
39

>  <nBondsD>
2

>  <nBondsT>
0

>  <nBondsA>
16

>  <nBondsM>
18

>  <nBondsKS>
48

>  <nBondsKD>
9

>  <RNCG>
0.18

>  <RPCG>
0.09

>  <FCSP3>
0.26

>  <SZ>
35

>  <Sm>
32.84

>  <Sv>
34.42

>  <Sse>
55.19

>  <Sp>
36.62

>  <Si>
61.82

>  <MZ>
0.64

>  <Mm>
0.6

>  <Mv>
0.63

>  <Mse>
1

>  <Mp>
0.67

>  <Mi>
1.12

>  <NsCH3>
4

>  <NdCH2>
0

>  <NssCH2>
2

>  <NtCH>
0

>  <NdsCH>
2

>  <NaaCH>
7

>  <NsssCH>
0

>  <NddC>
0

>  <NtsC>
0

>  <NdssC>
1

>  <NaasC>
5

>  <NaaaC>
2

>  <NssssC>
0

>  <NsNH3>
0

>  <NsNH2>
0

>  <NssNH2>
0

>  <NdNH>
0

>  <NssNH>
1

>  <NaaNH>
0

>  <NtN>
0

>  <NsssNH>
0

>  <NdsN>
0

>  <NaaN>
0

>  <NsssN>
0

>  <NddsN>
0

>  <NaasN>
1

>  <NssssN>
0

>  <NsOH>
0

>  <NdO>
1

>  <NssO>
3

>  <NaaO>
0

>  <NsF>
0

>  <NsSiH3>
0

>  <NssSiH2>
0

>  <NsssSiH>
0

>  <NssssSi>
0

>  <NsPH2>
0

>  <NssPH>
0

>  <NsssP>
0

>  <NdsssP>
0

>  <NsssssP>
0

>  <NsSH>
0

>  <NdS>
0

>  <NssS>
0

>  <NaaS>
0

>  <NdssS>
0

>  <NddssS>
0

>  <NsCl>
0

>  <NsBr>
0

>  <NsI>
0

>  <fragCpx>
149.06

>  <fMF>
0.38

>  <nHBAcc>
5

>  <nHBDon>
1

>  <Kier1>
23.66

>  <Kier2>
11.57

>  <Lipinski>
1

>  <GhoseFilter>
1

>  <FilterItLogS>
-5.51

>  <VMcGowan>
307.09

>  <LabuteASA>
170.24

>  <PEOE_VSA1>
24.09

>  <PEOE_VSA2>
4.79

>  <PEOE_VSA3>
0

>  <PEOE_VSA4>
0

>  <PEOE_VSA5>
0

>  <PEOE_VSA6>
18.2

>  <PEOE_VSA7>
48.21

>  <PEOE_VSA8>
30.38

>  <PEOE_VSA9>
21.33

>  <PEOE_VSA10>
0

>  <PEOE_VSA11>
11.5

>  <PEOE_VSA12>
11.66

>  <PEOE_VSA13>
0

>  <SMR_VSA1>
19.01

>  <SMR_VSA2>
0

>  <SMR_VSA3>
9.88

>  <SMR_VSA4>
0

>  <SMR_VSA5>
13.47

>  <SMR_VSA6>
27.87

>  <SMR_VSA7>
59.8

>  <SMR_VSA8>
0

>  <SMR_VSA9>
17.25

>  <SlogP_VSA1>
19.53

>  <SlogP_VSA2>
38.35

>  <SlogP_VSA3>
11.34

>  <SlogP_VSA4>
6.92

>  <SlogP_VSA5>
11.26

>  <SlogP_VSA6>
48.54

>  <SlogP_VSA7>
0

>  <SlogP_VSA8>
16.98

>  <SlogP_VSA9>
0

>  <SlogP_VSA10>
0

>  <SlogP_VSA11>
17.25

>  <EState_VSA1>
0

>  <EState_VSA2>
5.91

>  <EState_VSA3>
30.34

>  <EState_VSA4>
5.56

>  <EState_VSA5>
22.67

>  <EState_VSA6>
39.54

>  <EState_VSA7>
12.13

>  <EState_VSA8>
35.01

>  <EState_VSA9>
14.21

>  <EState_VSA10>
4.79

>  <VSA_EState1>
18.19

>  <VSA_EState2>
12.23

>  <VSA_EState3>
4.14

>  <VSA_EState4>
3.13

>  <VSA_EState5>
1.45

>  <VSA_EState6>
13.98

>  <VSA_EState7>
3.22

>  <VSA_EState8>
3.33

>  <VSA_EState9>
4.67

>  <apol>
61.15

>  <bpol>
34.44

>  <nRing>
3

>  <nHRing>
1

>  <naRing>
3

>  <naHRing>
1

>  <nARing 2>
0

>  <nAHRing 2>
0

>  <nFRing>
1

>  <nFHRing>
1

>  <nFaRing>
1

>  <nFaHRing>
1

>  <nFARing 2>
0

>  <nFAHRing 2>
0

>  <nRot>
8

>  <SLogP>
3.81

>  <SMR>
114.82

>  <TopoPSA(NO)>
61.72

>  <TopoPSA>
61.72

>  <JGI1>
0.18

>  <JGI2>
0.08

>  <JGI3>
0.06

>  <JGI4>
0.04

>  <JGI5>
0.02

>  <Diameter>
16

>  <Radius>
8

>  <TMWC10>
136.14

>  <TSRW10>
78.51

>  <MW>
394.19

>  <AMW>
7.17

>  <WPath>
2672

>  <WPol>
45

>  <Zagreb1>
146

>  <Zagreb2>
171

>  <mZagreb2>
6.72

>  <yes>


>  <nAR-cont>
0.336376

>  <nHA-cont>
0.785905698

>  <MWHBN>
0.302202776

>  <MWHBN-cont>
0.83410786

>  <TPSA-cont>
0.569156074

>  <pka_cont>
0.97

>  <yes.1>


>  <BBB_SCORE>
3.996755637

>  <MMFF94 Energy>
50.785

$$$$
Compound 180
Actelion Java MolfileCreator 2.0

  0  0  0  0  0  0              0 V3000
M  V30 BEGIN CTAB
M  V30 COUNTS 45 47 0 0 0
M  V30 BEGIN ATOM
M  V30 1 Br 1.8274 -1.9106 -3.6574 0
M  V30 2 C 0.7485 -2.6882 -2.3023 0
M  V30 3 C 1.3621 -3.3579 -1.2433 0
M  V30 4 C -0.6506 -2.598 -2.3458 0
M  V30 5 F 2.6981 -3.4561 -1.1791 0
M  V30 6 C 0.6083 -3.9374 -0.2286 0
M  V30 7 N -1.3036 -1.8776 -3.3991 0
M  V30 8 C -1.4129 -3.1938 -1.3359 0
M  V30 9 C -0.7791 -3.8522 -0.281 0
M  V30 10 S -2.1869 -0.4818 -3.0176 0
M  V30 11 Br -1.814 -4.6225 1.0994 0
M  V30 12 O -2.3958 0.2145 -4.2689 0
M  V30 13 O -3.2965 -0.8458 -2.1638 0
M  V30 14 C -1.034 0.4677 -2.0562 0
M  V30 15 C -1.0586 0.3726 -0.6614 0
M  V30 16 C -0.1281 1.3072 -2.6973 0
M  V30 17 C -0.1388 1.0786 0.1288 0
M  V30 18 C 0.7964 2.0194 -1.9348 0
M  V30 19 N -0.1614 0.9585 1.5179 0
M  V30 20 C 0.8125 1.9001 -0.5359 0
M  V30 21 C -0.4523 2.1779 2.2948 0
M  V30 22 C -0.5942 -0.2883 2.1651 0
M  V30 23 O 1.7377 2.5298 0.2657 0
M  V30 24 C 0.0781 2.0363 3.7389 0
M  V30 25 C -0.0598 -0.3597 3.6139 0
M  V30 26 C 2.8105 3.2114 -0.3674 0
M  V30 27 N -0.4009 0.8215 4.43 0
M  V30 28 H 1.1156 -4.4471 0.5847 0
M  V30 29 H -0.7675 -1.7407 -4.2582 0
M  V30 30 H -2.4996 -3.1454 -1.3699 0
M  V30 31 H -1.8136 -0.2489 -0.187 0
M  V30 32 H -0.1258 1.4078 -3.7801 0
M  V30 33 H 1.4987 2.6576 -2.4608 0
M  V30 34 H -0.0116 3.0778 1.8542 0
M  V30 35 H -1.5387 2.3347 2.3166 0
M  V30 36 H -0.2111 -1.1579 1.6183 0
M  V30 37 H -1.6899 -0.345 2.1757 0
M  V30 38 H -0.2319 2.9118 4.3198 0
M  V30 39 H 1.1754 2.032 3.7242 0
M  V30 40 H -0.469 -1.2517 4.1005 0
M  V30 41 H 1.031 -0.4777 3.5928 0
M  V30 42 H 3.3856 2.5382 -1.0116 0
M  V30 43 H 3.4828 3.5756 0.4153 0
M  V30 44 H 2.4484 4.0818 -0.9239 0
M  V30 45 H 0.0699 0.7489 5.3306 0
M  V30 END ATOM
M  V30 BEGIN BOND
M  V30 1 1 1 2
M  V30 2 2 2 3
M  V30 3 1 2 4
M  V30 4 1 3 5
M  V30 5 1 3 6
M  V30 6 1 4 7
M  V30 7 2 4 8
M  V30 8 2 6 9
M  V30 9 1 7 10
M  V30 10 1 9 11
M  V30 11 2 10 12
M  V30 12 2 10 13
M  V30 13 1 10 14
M  V30 14 2 14 15
M  V30 15 1 14 16
M  V30 16 1 15 17
M  V30 17 2 16 18
M  V30 18 1 17 19
M  V30 19 2 17 20
M  V30 20 1 19 21
M  V30 21 1 19 22
M  V30 22 1 20 23
M  V30 23 1 21 24
M  V30 24 1 22 25
M  V30 25 1 23 26
M  V30 26 1 24 27
M  V30 27 1 8 9
M  V30 28 1 18 20
M  V30 29 1 25 27
M  V30 30 1 6 28
M  V30 31 1 7 29
M  V30 32 1 8 30
M  V30 33 1 15 31
M  V30 34 1 16 32
M  V30 35 1 18 33
M  V30 36 1 21 34
M  V30 37 1 21 35
M  V30 38 1 22 36
M  V30 39 1 22 37
M  V30 40 1 24 38
M  V30 41 1 24 39
M  V30 42 1 25 40
M  V30 43 1 25 41
M  V30 44 1 26 42
M  V30 45 1 26 43
M  V30 46 1 26 44
M  V30 47 1 27 45
M  V30 END BOND
M  V30 END CTAB
M  END
>  <Column 1>
235

>  <level_0>
271

>  <index>
271

>  <Unnamed: 0>
271

>  <NO.>
272

>  <Name>
sb-357134

>  <IUPAC_name>
n-(2-5-dibromo-3-fluorophenyl)-4-methoxy-3-piperazin-1-ylbenzenesulfonamide

>  <SMILES>
COc1ccc(S(=O)(=O)Nc2cc(Br)cc(F)c2Br)cc1N1CCNCC1

>  <CID>
6918553

>  <logBB>
-0.52

>  <BBB+/BBB->
BBB+

>  <Inchi>
InChI=1S/C17H18Br2FN3O3S/c1-26-16-3-2-12(10-15(16)23-6-4-21-5-7-23)27(24-25)22-14-9-11(18)8-13(20)17(14)19/h2-3-8-10-21-22H-4-7H2-1H3

>  <threshold>


>  <reference>
R18|R26|R27|

>  <group>
A

>  <Class>
1

>  <ABC>
20.93

>  <ABCGG>
17.13

>  <nAcid>
0

>  <nBase>
1

>  <nAromAtom>
12

>  <nAromBond>
12

>  <nAtom>
45

>  <nHeavyAtom>
27

>  <nSpiro>
0

>  <nBridgehead>
0

>  <nHetero>
10

>  <nN>
3

>  <nO>
3

>  <nF>
1

>  <BalabanJ>
1.66

>  <BertzCT>
950.68

>  <nBonds>
47

>  <nBondsO>
29

>  <nBondsS>
33

>  <nBondsD>
2

>  <nBondsT>
0

>  <nBondsA>
12

>  <nBondsM>
14

>  <nBondsKS>
39

>  <nBondsKD>
8

>  <RNCG>
0.22

>  <RPCG>
0.12

>  <FCSP3>
0.29

>  <SZ>
43.33

>  <Sm>
43.56

>  <Sv>
30.71

>  <Sse>
46.35

>  <Sp>
33.33

>  <Si>
50.8

>  <MZ>
0.96

>  <Mm>
0.97

>  <Mv>
0.68

>  <Mse>
1.03

>  <Mp>
0.74

>  <Mi>
1.13

>  <NsCH3>
1

>  <NdCH2>
0

>  <NssCH2>
4

>  <NtCH>
0

>  <NdsCH>
0

>  <NaaCH>
5

>  <NsssCH>
0

>  <NddC>
0

>  <NtsC>
0

>  <NdssC>
0

>  <NaasC>
7

>  <NaaaC>
0

>  <NssssC>
0

>  <NsNH3>
0

>  <NsNH2>
0

>  <NssNH2>
0

>  <NdNH>
0

>  <NssNH>
2

>  <NaaNH>
0

>  <NtN>
0

>  <NsssNH>
0

>  <NdsN>
0

>  <NaaN>
0

>  <NsssN>
1

>  <NddsN>
0

>  <NaasN>
0

>  <NssssN>
0

>  <NsOH>
0

>  <NdO>
2

>  <NssO>
1

>  <NaaO>
0

>  <NsF>
1

>  <NsSiH3>
0

>  <NssSiH2>
0

>  <NsssSiH>
0

>  <NssssSi>
0

>  <NsPH2>
0

>  <NssPH>
0

>  <NsssP>
0

>  <NdsssP>
0

>  <NsssssP>
0

>  <NsSH>
0

>  <NdS>
0

>  <NssS>
0

>  <NaaS>
0

>  <NdssS>
0

>  <NddssS>
1

>  <NsCl>
0

>  <NsBr>
2

>  <NsI>
0

>  <fragCpx>
139.1

>  <fMF>
0.44

>  <nHBAcc>
5

>  <nHBDon>
2

>  <Kier1>
21.7

>  <Kier2>
9.21

>  <Lipinski>
0

>  <GhoseFilter>
0

>  <FilterItLogS>
-6.54

>  <VMcGowan>
292.67

>  <LabuteASA>
173.94

>  <PEOE_VSA1>
14.95

>  <PEOE_VSA2>
4.72

>  <PEOE_VSA3>
12.81

>  <PEOE_VSA4>
0

>  <PEOE_VSA5>
0

>  <PEOE_VSA6>
15.93

>  <PEOE_VSA7>
46.26

>  <PEOE_VSA8>
30.65

>  <PEOE_VSA9>
27.85

>  <PEOE_VSA10>
11.57

>  <PEOE_VSA11>
0

>  <PEOE_VSA12>
0

>  <PEOE_VSA13>
10.02

>  <SMR_VSA1>
17.55

>  <SMR_VSA2>
0

>  <SMR_VSA3>
5.32

>  <SMR_VSA4>
0

>  <SMR_VSA5>
4.9

>  <SMR_VSA6>
42.91

>  <SMR_VSA7>
45.09

>  <SMR_VSA8>
0

>  <SMR_VSA9>
5.75

>  <SlogP_VSA1>
19.68

>  <SlogP_VSA2>
41.71

>  <SlogP_VSA3>
10.02

>  <SlogP_VSA4>
5.82

>  <SlogP_VSA5>
0

>  <SlogP_VSA6>
44.17

>  <SlogP_VSA7>
0

>  <SlogP_VSA8>
0

>  <SlogP_VSA9>
0

>  <SlogP_VSA10>
15.77

>  <SlogP_VSA11>
5.75

>  <EState_VSA1>
15.84

>  <EState_VSA2>
15.06

>  <EState_VSA3>
15.91

>  <EState_VSA4>
26.18

>  <EState_VSA5>
18.2

>  <EState_VSA6>
19.24

>  <EState_VSA7>
0

>  <EState_VSA8>
46.8

>  <EState_VSA9>
4.74

>  <EState_VSA10>
12.81

>  <VSA_EState1>
47.93

>  <VSA_EState2>
2.15

>  <VSA_EState3>
3.26

>  <VSA_EState4>
0.82

>  <VSA_EState5>
0.03

>  <VSA_EState6>
7.41

>  <VSA_EState7>
0

>  <VSA_EState8>
3.11

>  <VSA_EState9>
-2.37

>  <apol>
55.66

>  <bpol>
33.17

>  <nRing>
3

>  <nHRing>
1

>  <naRing>
2

>  <naHRing>
0

>  <nARing 2>
1

>  <nAHRing 2>
1

>  <nFRing>
0

>  <nFHRing>
0

>  <nFaRing>
0

>  <nFaHRing>
0

>  <nFARing 2>
0

>  <nFAHRing 2>
0

>  <nRot>
5

>  <SLogP>
3.57

>  <SMR>
110.69

>  <TopoPSA(NO)>
70.67

>  <TopoPSA>
79.05

>  <JGI1>
0.24

>  <JGI2>
0.1

>  <JGI3>
0.06

>  <JGI4>
0.05

>  <JGI5>
0.03

>  <Diameter>
12

>  <Radius>
6

>  <TMWC10>
132.33

>  <TSRW10>
62.37

>  <MW>
520.94

>  <AMW>
11.58

>  <WPath>
1836

>  <WPol>
45

>  <Zagreb1>
142

>  <Zagreb2>
167

>  <mZagreb2>
5.9

>  <yes>


>  <nAR-cont>
0.816016

>  <nHA-cont>
0.860070871

>  <MWHBN>
0.306693228

>  <MWHBN-cont>
0.820291145

>  <TPSA-cont>
0.448181913

>  <pka_cont>
0.97

>  <yes.1>


>  <BBB_SCORE>
4.287887415

>  <MMFF94 Energy>
89.3

$$$$
Compound 181
Actelion Java MolfileCreator 2.0

  0  0  0  0  0  0              0 V3000
M  V30 BEGIN CTAB
M  V30 COUNTS 21 20 0 0 0
M  V30 BEGIN ATOM
M  V30 1 Cl 4.0724 -1.3018 -1.7089 0
M  V30 2 C 2.3356 -1.1679 -1.3425 0
M  V30 3 C 2.1099 -1.0741 0.1604 0
M  V30 4 N 0.6894 -0.9679 0.4819 0
M  V30 5 N -0.1288 -2.2086 0.6475 0
M  V30 6 C 0.0914 0.2846 0.5484 0
M  V30 7 O 0.5167 -3.2481 0.4845 0
M  V30 8 O 0.7096 1.3279 0.3334 0
M  V30 9 N -1.247 0.3081 0.8587 0
M  V30 10 C -1.9938 1.5507 0.9484 0
M  V30 11 C -2.3776 2.1241 -0.4137 0
M  V30 12 Cl -3.4951 1.0314 -1.2756 0
M  V30 13 H 1.9529 -0.2813 -1.8576 0
M  V30 14 H 1.8387 -2.0457 -1.7664 0
M  V30 15 H 2.5387 -1.9359 0.6848 0
M  V30 16 H 2.6244 -0.1879 0.5522 0
M  V30 17 H -1.7548 -0.559 0.9679 0
M  V30 18 H -1.3823 2.2811 1.4901 0
M  V30 19 H -2.8859 1.3511 1.552 0
M  V30 20 H -1.5029 2.2712 -1.0533 0
M  V30 21 H -2.888 3.0838 -0.2925 0
M  V30 END ATOM
M  V30 BEGIN BOND
M  V30 1 1 1 2
M  V30 2 1 2 3
M  V30 3 1 3 4
M  V30 4 1 4 5
M  V30 5 1 4 6
M  V30 6 2 5 7
M  V30 7 2 6 8
M  V30 8 1 6 9
M  V30 9 1 9 10
M  V30 10 1 10 11
M  V30 11 1 11 12
M  V30 12 1 2 13
M  V30 13 1 2 14
M  V30 14 1 3 15
M  V30 15 1 3 16
M  V30 16 1 9 17
M  V30 17 1 10 18
M  V30 18 1 10 19
M  V30 19 1 11 20
M  V30 20 1 11 21
M  V30 END BOND
M  V30 END CTAB
M  END
>  <Column 1>
236

>  <level_0>
272

>  <index>
272

>  <Unnamed: 0>
272

>  <NO.>
273

>  <Name>
bis(chloroethyl)nitrosourea (carmustine) (bcnu)

>  <IUPAC_name>
1-3-bis(2-chloroethyl)-1-nitrosourea

>  <SMILES>
O=NN(CCCl)C(=O)NCCCl

>  <CID>
2578

>  <logBB>
-0.52

>  <BBB+/BBB->
BBB+

>  <Inchi>
InChI=1S/C5H9Cl2N3O2/c6-1-3-8-5(11)10(9-12)4-2-7/h1-4H2-(H-8-11)

>  <threshold>


>  <reference>
R3|R11|R12|R17|R21|R25|R27|R35|R36|R38|R41|R43|R46|R47|R48|R49|R2|R2|R8|R27|R40|

>  <group>
A

>  <Class>
1

>  <ABC>
7.85

>  <ABCGG>
8.24

>  <nAcid>
0

>  <nBase>
0

>  <nAromAtom>
0

>  <nAromBond>
0

>  <nAtom>
21

>  <nHeavyAtom>
12

>  <nSpiro>
0

>  <nBridgehead>
0

>  <nHetero>
7

>  <nN>
3

>  <nO>
2

>  <nF>
0

>  <BalabanJ>
3.6

>  <BertzCT>
155.63

>  <nBonds>
20

>  <nBondsO>
11

>  <nBondsS>
18

>  <nBondsD>
2

>  <nBondsT>
0

>  <nBondsA>
0

>  <nBondsM>
2

>  <nBondsKS>
18

>  <nBondsKD>
2

>  <RNCG>
0.3

>  <RPCG>
0.3

>  <FCSP3>
0.8

>  <SZ>
18.33

>  <Sm>
17.82

>  <Sv>
13.32

>  <Sse>
22.18

>  <Sp>
14.14

>  <Si>
24.46

>  <MZ>
0.87

>  <Mm>
0.85

>  <Mv>
0.63

>  <Mse>
1.06

>  <Mp>
0.67

>  <Mi>
1.16

>  <NsCH3>
0

>  <NdCH2>
0

>  <NssCH2>
4

>  <NtCH>
0

>  <NdsCH>
0

>  <NaaCH>
0

>  <NsssCH>
0

>  <NddC>
0

>  <NtsC>
0

>  <NdssC>
1

>  <NaasC>
0

>  <NaaaC>
0

>  <NssssC>
0

>  <NsNH3>
0

>  <NsNH2>
0

>  <NssNH2>
0

>  <NdNH>
0

>  <NssNH>
1

>  <NaaNH>
0

>  <NtN>
0

>  <NsssNH>
0

>  <NdsN>
1

>  <NaaN>
0

>  <NsssN>
1

>  <NddsN>
0

>  <NaasN>
0

>  <NssssN>
0

>  <NsOH>
0

>  <NdO>
2

>  <NssO>
0

>  <NaaO>
0

>  <NsF>
0

>  <NsSiH3>
0

>  <NssSiH2>
0

>  <NsssSiH>
0

>  <NssssSi>
0

>  <NsPH2>
0

>  <NssPH>
0

>  <NsssP>
0

>  <NdsssP>
0

>  <NsssssP>
0

>  <NsSH>
0

>  <NdS>
0

>  <NssS>
0

>  <NaaS>
0

>  <NdssS>
0

>  <NddssS>
0

>  <NsCl>
2

>  <NsBr>
0

>  <NsI>
0

>  <fragCpx>
11.07

>  <fMF>
0

>  <nHBAcc>
3

>  <nHBDon>
1

>  <Kier1>
12

>  <Kier2>
7.64

>  <Lipinski>
1

>  <GhoseFilter>
1

>  <FilterItLogS>
-2.03

>  <VMcGowan>
138.87

>  <LabuteASA>
79.94

>  <PEOE_VSA1>
5.32

>  <PEOE_VSA2>
0

>  <PEOE_VSA3>
4.79

>  <PEOE_VSA4>
5.01

>  <PEOE_VSA5>
28.11

>  <PEOE_VSA6>
0

>  <PEOE_VSA7>
0

>  <PEOE_VSA8>
18.3

>  <PEOE_VSA9>
11.83

>  <PEOE_VSA10>
0

>  <PEOE_VSA11>
0

>  <PEOE_VSA12>
0

>  <PEOE_VSA13>
0

>  <SMR_VSA1>
4.79

>  <SMR_VSA2>
0

>  <SMR_VSA3>
10.33

>  <SMR_VSA4>
5.29

>  <SMR_VSA5>
0

>  <SMR_VSA6>
24.85

>  <SMR_VSA7>
4.91

>  <SMR_VSA8>
0

>  <SMR_VSA9>
0

>  <SlogP_VSA1>
5.32

>  <SlogP_VSA2>
35.89

>  <SlogP_VSA3>
0

>  <SlogP_VSA4>
4.91

>  <SlogP_VSA5>
0

>  <SlogP_VSA6>
5.29

>  <SlogP_VSA7>
0

>  <SlogP_VSA8>
0

>  <SlogP_VSA9>
0

>  <SlogP_VSA10>
4.79

>  <SlogP_VSA11>
0

>  <EState_VSA1>
6.03

>  <EState_VSA2>
12.42

>  <EState_VSA3>
17.43

>  <EState_VSA4>
0

>  <EState_VSA5>
0

>  <EState_VSA6>
0

>  <EState_VSA7>
0

>  <EState_VSA8>
10.6

>  <EState_VSA9>
23.2

>  <EState_VSA10>
9.7

>  <VSA_EState1>
0

>  <VSA_EState2>
20.95

>  <VSA_EState3>
5.55

>  <VSA_EState4>
0

>  <VSA_EState5>
0.46

>  <VSA_EState6>
-0.58

>  <VSA_EState7>
0

>  <VSA_EState8>
0.4

>  <VSA_EState9>
0

>  <apol>
23.62

>  <bpol>
12.92

>  <nRing>
0

>  <nHRing>
0

>  <naRing>
0

>  <naHRing>
0

>  <nARing 2>
0

>  <nAHRing 2>
0

>  <nFRing>
0

>  <nFHRing>
0

>  <nFaRing>
0

>  <nFaHRing>
0

>  <nFARing 2>
0

>  <nFAHRing 2>
0

>  <nRot>
5

>  <SLogP>
1.16

>  <SMR>
47.34

>  <TopoPSA(NO)>
61.77

>  <TopoPSA>
61.77

>  <JGI1>
0.18

>  <JGI2>
0.11

>  <JGI3>
0.06

>  <JGI4>
0.03

>  <JGI5>
0.01

>  <Diameter>
8

>  <Radius>
4

>  <TMWC10>
84.83

>  <TSRW10>
40.53

>  <MW>
213.01

>  <AMW>
10.14

>  <WPath>
226

>  <WPol>
13

>  <Zagreb1>
46

>  <Zagreb2>
48

>  <mZagreb2>
3.19

>  <yes>


>  <nAR-cont>
0.336376

>  <nHA-cont>
0.785745021

>  <MWHBN>
0.27406905

>  <MWHBN-cont>
0.910649812

>  <TPSA-cont>
0.568807043

>  <pka_cont>
0.97

>  <yes.1>


>  <BBB_SCORE>
4.110709825

>  <MMFF94 Energy>
-39.521

$$$$
Compound 182
Actelion Java MolfileCreator 2.0

  0  0  0  0  0  0              0 V3000
M  V30 BEGIN CTAB
M  V30 COUNTS 51 54 0 0 0
M  V30 BEGIN ATOM
M  V30 1 S 1.4624 -2.9265 -2.3569 0 CFG=2
M  V30 2 O 2.029 -2.7697 -3.7381 0
M  V30 3 C -0.114 -3.7863 -2.5891 0
M  V30 4 C 0.7888 -1.2958 -1.8716 0
M  V30 5 C -0.8123 -3.6733 -3.8008 0
M  V30 6 C -0.6206 -4.592 -1.5411 0
M  V30 7 C 0.5104 -1.2496 -0.3665 0
M  V30 8 C -2.003 -4.3564 -3.9124 0
M  V30 9 C -1.8328 -5.2769 -1.6806 0
M  V30 10 N -0.1391 -1.0E-4 0.0793 0
M  V30 11 O -2.8359 -4.3656 -5.0198 0
M  V30 12 C -2.4889 -5.1289 -2.879 0
M  V30 13 C 0.7421 1.1697 -0.066 0
M  V30 14 C -0.6065 -0.1425 1.4683 0
M  V30 15 C -3.8779 -5.2026 -4.6 0
M  V30 16 N -3.6666 -5.6568 -3.3188 0
M  V30 17 C 0.0418 2.4581 0.375 0
M  V30 18 C -1.3418 1.1106 1.9498 0
M  V30 19 O -4.8472 -5.4866 -5.2882 0
M  V30 20 C -0.492 2.3828 1.8129 0
M  V30 21 C 0.6211 2.4217 2.8838 0
M  V30 22 C 1.3747 3.7312 2.9346 0
M  V30 23 C 2.7084 3.8014 2.503 0
M  V30 24 C 0.7499 4.8929 3.4152 0
M  V30 25 C 3.4015 5.012 2.5473 0
M  V30 26 C 1.445 6.1022 3.4587 0
M  V30 27 C 2.7635 6.1505 3.0241 0
M  V30 28 F 3.4302 7.3116 3.0663 0
M  V30 29 H 1.5567 -0.5659 -2.1459 0
M  V30 30 H -0.1087 -1.0805 -2.4599 0
M  V30 31 H -0.4314 -3.077 -4.6236 0
M  V30 32 H -0.0634 -4.6923 -0.6116 0
M  V30 33 H 1.4405 -1.4187 0.1928 0
M  V30 34 H -0.1543 -2.0855 -0.1179 0
M  V30 35 H -2.2257 -5.8953 -0.8822 0
M  V30 36 H 1.0212 1.3041 -1.1165 0
M  V30 37 H 1.6724 1.0311 0.4983 0
M  V30 38 H -1.308 -0.9835 1.5345 0
M  V30 39 H 0.23 -0.3717 2.1401 0
M  V30 40 H -4.2977 -6.2728 -2.8339 0
M  V30 41 H 0.7214 3.3082 0.2511 0
M  V30 42 H -0.8027 2.6468 -0.3019 0
M  V30 43 H -1.6609 0.9746 2.99 0
M  V30 44 H -2.2595 1.232 1.3586 0
M  V30 45 H -1.1538 3.244 1.9741 0
M  V30 46 H 0.1794 2.2576 3.8762 0
M  V30 47 H 1.3303 1.5979 2.7434 0
M  V30 48 H 3.2152 2.9152 2.1282 0
M  V30 49 H -0.2817 4.8609 3.7592 0
M  V30 50 H 4.4323 5.0745 2.2142 0
M  V30 51 H 0.9676 7.0041 3.8282 0
M  V30 END ATOM
M  V30 BEGIN BOND
M  V30 1 2 1 2
M  V30 2 1 1 3
M  V30 3 1 1 4
M  V30 4 2 3 5
M  V30 5 1 3 6
M  V30 6 1 4 7
M  V30 7 1 5 8
M  V30 8 2 6 9
M  V30 9 1 7 10
M  V30 10 1 8 11
M  V30 11 2 8 12
M  V30 12 1 10 13
M  V30 13 1 10 14
M  V30 14 1 11 15
M  V30 15 1 12 16
M  V30 16 1 13 17
M  V30 17 1 14 18
M  V30 18 2 15 19
M  V30 19 1 17 20
M  V30 20 1 20 21
M  V30 21 1 21 22
M  V30 22 2 22 23
M  V30 23 1 22 24
M  V30 24 1 23 25
M  V30 25 2 24 26
M  V30 26 2 25 27
M  V30 27 1 27 28
M  V30 28 1 9 12
M  V30 29 1 15 16
M  V30 30 1 18 20
M  V30 31 1 26 27
M  V30 32 1 4 29
M  V30 33 1 4 30
M  V30 34 1 5 31
M  V30 35 1 6 32
M  V30 36 1 7 33
M  V30 37 1 7 34
M  V30 38 1 9 35
M  V30 39 1 13 36
M  V30 40 1 13 37
M  V30 41 1 14 38
M  V30 42 1 14 39
M  V30 43 1 16 40
M  V30 44 1 17 41
M  V30 45 1 17 42
M  V30 46 1 18 43
M  V30 47 1 18 44
M  V30 48 1 20 45
M  V30 49 1 21 46
M  V30 50 1 21 47
M  V30 51 1 23 48
M  V30 52 1 24 49
M  V30 53 1 25 50
M  V30 54 1 26 51
M  V30 END BOND
M  V30 BEGIN COLLECTION
M  V30 MDLV30/STERAC1 ATOMS=(1 1)
M  V30 END COLLECTION
M  V30 END CTAB
M  END
>  <Column 1>
237

>  <level_0>
273

>  <index>
273

>  <Unnamed: 0>
273

>  <NO.>
274

>  <Name>
besonprodil

>  <IUPAC_name>
6-[2-[4-[(4-fluorophenyl)methyl]piperidin-1-yl]ethylsulfinyl]-3h-1-3-benzoxazol-2-one

>  <SMILES>
O=c1[nH]c2ccc([S+]([O-])CCN3CCC(Cc4ccc(F)cc4)CC3)cc2o1

>  <CID>
156328

>  <logBB>
-0.52

>  <BBB+/BBB->
BBB+

>  <Inchi>
InChI=1S/C21H23FN2O3S/c22-17-3-1-15(2-4-17)13-16-7-9-24(10-8-16)11-12-28(26)18-5-6-19-20(14-18)27-21(25)23-19/h1-6-14-16H-7-13H2-(H-23-25)

>  <threshold>


>  <reference>
R47|

>  <group>
A

>  <Class>
1

>  <ABC>
22.17

>  <ABCGG>
15.75

>  <nAcid>
0

>  <nBase>
1

>  <nAromAtom>
15

>  <nAromBond>
16

>  <nAtom>
51

>  <nHeavyAtom>
28

>  <nSpiro>
0

>  <nBridgehead>
0

>  <nHetero>
7

>  <nN>
2

>  <nO>
3

>  <nF>
1

>  <BalabanJ>
1.12

>  <BertzCT>
977.23

>  <nBonds>
54

>  <nBondsO>
31

>  <nBondsS>
37

>  <nBondsD>
1

>  <nBondsT>
0

>  <nBondsA>
16

>  <nBondsM>
17

>  <nBondsKS>
47

>  <nBondsKD>
7

>  <RNCG>
0.25

>  <RPCG>
0.17

>  <FCSP3>
0.38

>  <SZ>
35.33

>  <Sm>
33.51

>  <Sv>
32.72

>  <Sse>
51.56

>  <Sp>
35.01

>  <Si>
57.45

>  <MZ>
0.69

>  <Mm>
0.66

>  <Mv>
0.64

>  <Mse>
1.01

>  <Mp>
0.69

>  <Mi>
1.13

>  <NsCH3>
0

>  <NdCH2>
0

>  <NssCH2>
7

>  <NtCH>
0

>  <NdsCH>
0

>  <NaaCH>
7

>  <NsssCH>
1

>  <NddC>
0

>  <NtsC>
0

>  <NdssC>
0

>  <NaasC>
3

>  <NaaaC>
2

>  <NssssC>
0

>  <NsNH3>
0

>  <NsNH2>
0

>  <NssNH2>
0

>  <NdNH>
0

>  <NssNH>
0

>  <NaaNH>
1

>  <NtN>
0

>  <NsssNH>
0

>  <NdsN>
0

>  <NaaN>
0

>  <NsssN>
1

>  <NddsN>
0

>  <NaasN>
0

>  <NssssN>
0

>  <NsOH>
0

>  <NdO>
1

>  <NssO>
0

>  <NaaO>
1

>  <NsF>
1

>  <NsSiH3>
0

>  <NssSiH2>
0

>  <NsssSiH>
0

>  <NssssSi>
0

>  <NsPH2>
0

>  <NssPH>
0

>  <NsssP>
0

>  <NdsssP>
0

>  <NsssssP>
0

>  <NsSH>
0

>  <NdS>
0

>  <NssS>
0

>  <NaaS>
0

>  <NdssS>
0

>  <NddssS>
0

>  <NsCl>
0

>  <NsBr>
0

>  <NsI>
0

>  <fragCpx>
205.07

>  <fMF>
0.49

>  <nHBAcc>
4

>  <nHBDon>
1

>  <Kier1>
21.24

>  <Kier2>
9.87

>  <Lipinski>
1

>  <GhoseFilter>
1

>  <FilterItLogS>
-6.35

>  <VMcGowan>
288.89

>  <LabuteASA>
165.28

>  <PEOE_VSA1>
8.97

>  <PEOE_VSA2>
9.88

>  <PEOE_VSA3>
9.18

>  <PEOE_VSA4>
0

>  <PEOE_VSA5>
0

>  <PEOE_VSA6>
12.13

>  <PEOE_VSA7>
79.27

>  <PEOE_VSA8>
12.61

>  <PEOE_VSA9>
5.52

>  <PEOE_VSA10>
11.57

>  <PEOE_VSA11>
10.48

>  <PEOE_VSA12>
0

>  <PEOE_VSA13>
0

>  <SMR_VSA1>
13.36

>  <SMR_VSA2>
0

>  <SMR_VSA3>
9.88

>  <SMR_VSA4>
5.92

>  <SMR_VSA5>
24.16

>  <SMR_VSA6>
25.39

>  <SMR_VSA7>
64.4

>  <SMR_VSA8>
0

>  <SMR_VSA9>
0

>  <SlogP_VSA1>
5.76

>  <SlogP_VSA2>
39.82

>  <SlogP_VSA3>
17.6

>  <SlogP_VSA4>
11.74

>  <SlogP_VSA5>
18.41

>  <SlogP_VSA6>
56.57

>  <SlogP_VSA7>
0

>  <SlogP_VSA8>
11.1

>  <SlogP_VSA9>
0

>  <SlogP_VSA10>
4.39

>  <SlogP_VSA11>
0

>  <EState_VSA1>
16.93

>  <EState_VSA2>
5.82

>  <EState_VSA3>
27.67

>  <EState_VSA4>
38.9

>  <EState_VSA5>
17.7

>  <EState_VSA6>
18.2

>  <EState_VSA7>
12.13

>  <EState_VSA8>
9.88

>  <EState_VSA9>
4.42

>  <EState_VSA10>
13.74

>  <VSA_EState1>
30.65

>  <VSA_EState2>
16.86

>  <VSA_EState3>
0

>  <VSA_EState4>
2.25

>  <VSA_EState5>
0.49

>  <VSA_EState6>
11.97

>  <VSA_EState7>
3.19

>  <VSA_EState8>
2.77

>  <VSA_EState9>
0

>  <apol>
58.47

>  <bpol>
33.63

>  <nRing>
4

>  <nHRing>
2

>  <naRing>
3

>  <naHRing>
1

>  <nARing 2>
1

>  <nAHRing 2>
1

>  <nFRing>
1

>  <nFHRing>
1

>  <nFaRing>
1

>  <nFaHRing>
1

>  <nFARing 2>
0

>  <nFAHRing 2>
0

>  <nRot>
6

>  <SLogP>
3.32

>  <SMR>
107.38

>  <TopoPSA(NO)>
72.3

>  <TopoPSA>
72.3

>  <JGI1>
0.21

>  <JGI2>
0.07

>  <JGI3>
0.04

>  <JGI4>
0.04

>  <JGI5>
0.02

>  <Diameter>
18

>  <Radius>
9

>  <TMWC10>
134.74

>  <TSRW10>
77.14

>  <MW>
402.14

>  <AMW>
7.89

>  <WPath>
2531

>  <WPol>
40

>  <Zagreb1>
148

>  <Zagreb2>
171

>  <mZagreb2>
6.06

>  <yes>


>  <nAR-cont>
0.816016

>  <nHA-cont>
0.82432561

>  <MWHBN>
0.249333921

>  <MWHBN-cont>
0.960889774

>  <TPSA-cont>
0.495301104

>  <pka_cont>
0.97

>  <yes.1>


>  <BBB_SCORE>
4.557278481

>  <MMFF94 Energy>
36.703

$$$$
Compound 183
Actelion Java MolfileCreator 2.0

  0  0  0  0  0  0              0 V3000
M  V30 BEGIN CTAB
M  V30 COUNTS 43 45 0 0 0
M  V30 BEGIN ATOM
M  V30 1 O 0.7121 2.217 -0.7913 0
M  V30 2 C 0.1551 1.2094 -0.3848 0
M  V30 3 N 0.0394 -0.0426 -0.9865 0
M  V30 4 C -0.5181 1.1248 0.9427 0
M  V30 5 N -0.5614 -0.916 -0.0615 0
M  V30 6 C 0.8696 -0.4881 -2.0232 0
M  V30 7 C -0.9166 -0.1532 1.0377 0
M  V30 8 C -0.6789 2.3007 1.8339 0
M  V30 9 C -1.2846 -2.0295 -0.5603 0
M  V30 10 C 2.2409 -0.6589 -1.8092 0
M  V30 11 C 0.3205 -0.7459 -3.2825 0
M  V30 12 O -1.6023 -0.6985 2.0893 0
M  V30 13 C 0.6002 2.5984 2.6196 0
M  V30 14 C -2.6885 -2.062 -0.5458 0
M  V30 15 C -0.6064 -3.152 -1.0621 0
M  V30 16 C 3.0576 -1.0998 -2.8514 0
M  V30 17 C 1.1396 -1.1882 -4.3219 0
M  V30 18 C 0.418 3.8082 3.5367 0
M  V30 19 C -3.3898 -3.1667 -1.0376 0
M  V30 20 C -1.3046 -4.2575 -1.5552 0
M  V30 21 C 2.5065 -1.3656 -4.1055 0
M  V30 22 C 1.6854 4.1088 4.3207 0
M  V30 23 C -2.6969 -4.2628 -1.545 0
M  V30 24 H -1.506 2.1317 2.5337 0
M  V30 25 H -0.9636 3.1753 1.2361 0
M  V30 26 H 2.6759 -0.4494 -0.8359 0
M  V30 27 H -0.7441 -0.6097 -3.4536 0
M  V30 28 H -1.6863 -0.0299 2.787 0
M  V30 29 H 1.4306 2.788 1.9281 0
M  V30 30 H 0.878 1.7229 3.2203 0
M  V30 31 H -3.2486 -1.2167 -0.1547 0
M  V30 32 H 0.4804 -3.1735 -1.0616 0
M  V30 33 H 4.1237 -1.2315 -2.6867 0
M  V30 34 H 0.7117 -1.3922 -5.2998 0
M  V30 35 H 0.1456 4.6882 2.9425 0
M  V30 36 H -0.4034 3.6233 4.2388 0
M  V30 37 H -4.4763 -3.1693 -1.0209 0
M  V30 38 H -0.7581 -5.1135 -1.9416 0
M  V30 39 H 3.1442 -1.7066 -4.9171 0
M  V30 40 H 1.5328 4.9769 4.9697 0
M  V30 41 H 1.9678 3.2592 4.9506 0
M  V30 42 H 2.5198 4.3303 3.6477 0
M  V30 43 H -3.2411 -5.1228 -1.9261 0
M  V30 END ATOM
M  V30 BEGIN BOND
M  V30 1 2 1 2
M  V30 2 1 2 3
M  V30 3 1 2 4
M  V30 4 1 3 5
M  V30 5 1 3 6
M  V30 6 2 4 7
M  V30 7 1 4 8
M  V30 8 1 5 9
M  V30 9 2 6 10
M  V30 10 1 6 11
M  V30 11 1 7 12
M  V30 12 1 8 13
M  V30 13 2 9 14
M  V30 14 1 9 15
M  V30 15 1 10 16
M  V30 16 2 11 17
M  V30 17 1 13 18
M  V30 18 1 14 19
M  V30 19 2 15 20
M  V30 20 2 16 21
M  V30 21 1 18 22
M  V30 22 2 19 23
M  V30 23 1 5 7
M  V30 24 1 17 21
M  V30 25 1 20 23
M  V30 26 1 8 24
M  V30 27 1 8 25
M  V30 28 1 10 26
M  V30 29 1 11 27
M  V30 30 1 12 28
M  V30 31 1 13 29
M  V30 32 1 13 30
M  V30 33 1 14 31
M  V30 34 1 15 32
M  V30 35 1 16 33
M  V30 36 1 17 34
M  V30 37 1 18 35
M  V30 38 1 18 36
M  V30 39 1 19 37
M  V30 40 1 20 38
M  V30 41 1 21 39
M  V30 42 1 22 40
M  V30 43 1 22 41
M  V30 44 1 22 42
M  V30 45 1 23 43
M  V30 END BOND
M  V30 END CTAB
M  END
>  <Column 1>
238

>  <level_0>
274

>  <index>
274

>  <Unnamed: 0>
274

>  <NO.>
275

>  <Name>
chembl2111136

>  <IUPAC_name>
4-butyl-5-hydroxy-1-2-diphenylpyrazol-3-one

>  <SMILES>
CCCCc1c(O)n(-c2ccccc2)n(-c2ccccc2)c1=O

>  <CID>
31113

>  <logBB>
-0.52

>  <BBB+/BBB->
BBB+

>  <Inchi>
InChI=1S/C19H20N2O2/c1-2-3-14-17-18(22)20(15-10-6-4-7-11-15)21(19(17)23)16-12-8-5-9-13-16/h4-13-22H-2-3-14H2-1H3

>  <threshold>


>  <reference>
R2|R2|R27|

>  <group>
A

>  <Class>
1

>  <ABC>
17.61

>  <ABCGG>
15.03

>  <nAcid>
0

>  <nBase>
0

>  <nAromAtom>
17

>  <nAromBond>
17

>  <nAtom>
43

>  <nHeavyAtom>
23

>  <nSpiro>
0

>  <nBridgehead>
0

>  <nHetero>
4

>  <nN>
2

>  <nO>
2

>  <nF>
0

>  <BalabanJ>
1.78

>  <BertzCT>
833.06

>  <nBonds>
45

>  <nBondsO>
25

>  <nBondsS>
27

>  <nBondsD>
1

>  <nBondsT>
0

>  <nBondsA>
17

>  <nBondsM>
18

>  <nBondsKS>
37

>  <nBondsKD>
8

>  <RNCG>
0.26

>  <RPCG>
0.16

>  <FCSP3>
0.21

>  <SZ>
27.33

>  <Sm>
25.67

>  <Sv>
27.36

>  <Sse>
42.87

>  <Sp>
29.26

>  <Si>
48.15

>  <MZ>
0.64

>  <Mm>
0.6

>  <Mv>
0.64

>  <Mse>
1

>  <Mp>
0.68

>  <Mi>
1.12

>  <NsCH3>
1

>  <NdCH2>
0

>  <NssCH2>
3

>  <NtCH>
0

>  <NdsCH>
0

>  <NaaCH>
10

>  <NsssCH>
0

>  <NddC>
0

>  <NtsC>
0

>  <NdssC>
0

>  <NaasC>
4

>  <NaaaC>
0

>  <NssssC>
0

>  <NsNH3>
0

>  <NsNH2>
0

>  <NssNH2>
0

>  <NdNH>
0

>  <NssNH>
0

>  <NaaNH>
0

>  <NtN>
0

>  <NsssNH>
0

>  <NdsN>
0

>  <NaaN>
0

>  <NsssN>
0

>  <NddsN>
0

>  <NaasN>
2

>  <NssssN>
0

>  <NsOH>
1

>  <NdO>
1

>  <NssO>
0

>  <NaaO>
0

>  <NsF>
0

>  <NsSiH3>
0

>  <NssSiH2>
0

>  <NsssSiH>
0

>  <NssssSi>
0

>  <NsPH2>
0

>  <NssPH>
0

>  <NsssP>
0

>  <NdsssP>
0

>  <NsssssP>
0

>  <NsSH>
0

>  <NdS>
0

>  <NssS>
0

>  <NaaS>
0

>  <NdssS>
0

>  <NddssS>
0

>  <NsCl>
0

>  <NsBr>
0

>  <NsI>
0

>  <fragCpx>
119.04

>  <fMF>
0.4

>  <nHBAcc>
4

>  <nHBDon>
1

>  <Kier1>
17.81

>  <Kier2>
8.39

>  <Lipinski>
1

>  <GhoseFilter>
1

>  <FilterItLogS>
-4.02

>  <VMcGowan>
243.29

>  <LabuteASA>
134.78

>  <PEOE_VSA1>
5.11

>  <PEOE_VSA2>
4.79

>  <PEOE_VSA3>
9.36

>  <PEOE_VSA4>
0

>  <PEOE_VSA5>
0

>  <PEOE_VSA6>
49.74

>  <PEOE_VSA7>
37.11

>  <PEOE_VSA8>
0

>  <PEOE_VSA9>
16.94

>  <PEOE_VSA10>
0

>  <PEOE_VSA11>
0

>  <PEOE_VSA12>
5.88

>  <PEOE_VSA13>
5.56

>  <SMR_VSA1>
5.11

>  <SMR_VSA2>
0

>  <SMR_VSA3>
9.36

>  <SMR_VSA4>
0

>  <SMR_VSA5>
26.19

>  <SMR_VSA6>
0

>  <SMR_VSA7>
76.58

>  <SMR_VSA8>
0

>  <SMR_VSA9>
17.25

>  <SlogP_VSA1>
5.56

>  <SlogP_VSA2>
14.47

>  <SlogP_VSA3>
6.42

>  <SlogP_VSA4>
0

>  <SlogP_VSA5>
25.33

>  <SlogP_VSA6>
65.46

>  <SlogP_VSA7>
0

>  <SlogP_VSA8>
11.37

>  <SlogP_VSA9>
0

>  <SlogP_VSA10>
0

>  <SlogP_VSA11>
5.88

>  <EState_VSA1>
0

>  <EState_VSA2>
11.44

>  <EState_VSA3>
11.98

>  <EState_VSA4>
24.22

>  <EState_VSA5>
4.68

>  <EState_VSA6>
4.68

>  <EState_VSA7>
60.66

>  <EState_VSA8>
6.92

>  <EState_VSA9>
0

>  <EState_VSA10>
9.9

>  <VSA_EState1>
3.12

>  <VSA_EState2>
12.87

>  <VSA_EState3>
10.67

>  <VSA_EState4>
1.8

>  <VSA_EState5>
0.03

>  <VSA_EState6>
18.84

>  <VSA_EState7>
2.42

>  <VSA_EState8>
2.07

>  <VSA_EState9>
0

>  <apol>
48.87

>  <bpol>
23.21

>  <nRing>
3

>  <nHRing>
1

>  <naRing>
3

>  <naHRing>
1

>  <nARing 2>
0

>  <nAHRing 2>
0

>  <nFRing>
0

>  <nFHRing>
0

>  <nFaRing>
0

>  <nFaHRing>
0

>  <nFARing 2>
0

>  <nFAHRing 2>
0

>  <nRot>
5

>  <SLogP>
3.68

>  <SMR>
91.64

>  <TopoPSA(NO)>
47.16

>  <TopoPSA>
47.16

>  <JGI1>
0.1

>  <JGI2>
0.07

>  <JGI3>
0.07

>  <JGI4>
0.05

>  <JGI5>
0.02

>  <Diameter>
10

>  <Radius>
6

>  <TMWC10>
123.33

>  <TSRW10>
71.9

>  <MW>
308.15

>  <AMW>
7.17

>  <WPath>
1109

>  <WPol>
37

>  <Zagreb1>
118

>  <Zagreb2>
141

>  <mZagreb2>
5.28

>  <yes>


>  <nAR-cont>
0.336376

>  <nHA-cont>
0.967789328

>  <MWHBN>
0.284832091

>  <MWHBN-cont>
0.883560233

>  <TPSA-cont>
0.670793915

>  <pka_cont>
0.97

>  <yes.1>


>  <BBB_SCORE>
4.456093509

>  <MMFF94 Energy>
60.758

$$$$
Compound 184
Actelion Java MolfileCreator 2.0

  0  0  0  0  0  0              0 V3000
M  V30 BEGIN CTAB
M  V30 COUNTS 61 64 0 0 0
M  V30 BEGIN ATOM
M  V30 1 O 1.672 0.3183 -0.5571 0
M  V30 2 C 0.7461 -0.3596 -0.0961 0
M  V30 3 N -0.5142 -0.3583 -0.6969 0
M  V30 4 C 0.9492 -1.2304 1.1678 0
M  V30 5 C -0.824 0.7127 -1.6725 0
M  V30 6 C -1.5845 -1.279 -0.3382 0
M  V30 7 C 1.5 -2.6282 0.8732 0
M  V30 8 C 1.7414 -0.4719 2.2377 0
M  V30 9 C -1.0098 0.131 -3.0748 0
M  V30 10 C -1.977 1.643 -1.1612 0
M  V30 11 C 1.2724 -3.6608 1.801 0
M  V30 12 C 2.2462 -2.9212 -0.2791 0
M  V30 13 C 3.1432 -0.4056 2.2161 0
M  V30 14 C 1.0538 0.2165 3.2526 0
M  V30 15 C 0.1139 -0.4122 -3.7256 0
M  V30 16 C -2.2408 0.1003 -3.7475 0
M  V30 17 N -1.7866 2.191 0.1975 0
M  V30 18 C 1.7596 -4.9488 1.5732 0
M  V30 19 C 2.7317 -4.2111 -0.5053 0
M  V30 20 C 3.8379 0.3074 3.195 0
M  V30 21 C 1.7507 0.929 4.2302 0
M  V30 22 C 0.0116 -0.9637 -5.0035 0
M  V30 23 C -2.3419 -0.4521 -5.0278 0
M  V30 24 C -2.9376 2.9988 0.6276 0
M  V30 25 C -0.64 3.0984 0.3007 0
M  V30 26 C 2.4865 -5.2241 0.4183 0
M  V30 27 C 3.1424 0.9714 4.2029 0
M  V30 28 C -1.2175 -0.983 -5.6549 0
M  V30 29 C -2.3891 3.8985 1.742 0
M  V30 30 C -0.8729 3.7663 1.6472 0
M  V30 31 O -2.7826 5.2506 1.5261 0
M  V30 32 H -0.0422 -1.3937 1.6089 0
M  V30 33 H 0.0478 1.3735 -1.764 0
M  V30 34 H -2.1432 -0.8582 0.5025 0
M  V30 35 H -2.2604 -1.4343 -1.1824 0
M  V30 36 H -1.1812 -2.2523 -0.0511 0
M  V30 37 H -2.9101 1.0659 -1.143 0
M  V30 38 H -2.1245 2.457 -1.8842 0
M  V30 39 H 0.7173 -3.4623 2.7159 0
M  V30 40 H 2.469 -2.1499 -1.014 0
M  V30 41 H 3.7062 -0.9009 1.428 0
M  V30 42 H -0.0336 0.208 3.285 0
M  V30 43 H 1.0836 -0.4044 -3.2287 0
M  V30 44 H -3.1444 0.4981 -3.295 0
M  V30 45 H 1.5764 -5.7351 2.3006 0
M  V30 46 H 3.3072 -4.4218 -1.403 0
M  V30 47 H 4.9233 0.3487 3.1638 0
M  V30 48 H 1.2071 1.4546 5.0106 0
M  V30 49 H 0.8927 -1.3767 -5.487 0
M  V30 50 H -3.3025 -0.4684 -5.5365 0
M  V30 51 H -3.3465 3.6062 -0.19 0
M  V30 52 H -3.7371 2.3525 1.0048 0
M  V30 53 H -0.6424 3.8489 -0.4997 0
M  V30 54 H 0.3186 2.574 0.2908 0
M  V30 55 H 2.8687 -6.2256 0.2411 0
M  V30 56 H 3.686 1.5277 4.9615 0
M  V30 57 H -1.2994 -1.4115 -6.6499 0
M  V30 58 H -2.75 3.586 2.7278 0
M  V30 59 H -0.5126 3.1074 2.4468 0
M  V30 60 H -0.345 4.7219 1.7215 0
M  V30 61 H -2.3722 5.7855 2.2274 0
M  V30 END ATOM
M  V30 BEGIN BOND
M  V30 1 2 1 2
M  V30 2 1 2 3
M  V30 3 1 2 4
M  V30 4 1 3 5
M  V30 5 1 3 6
M  V30 6 1 4 7
M  V30 7 1 4 8
M  V30 8 1 5 9
M  V30 9 1 5 10
M  V30 10 2 7 11
M  V30 11 1 7 12
M  V30 12 2 8 13
M  V30 13 1 8 14
M  V30 14 2 9 15
M  V30 15 1 9 16
M  V30 16 1 10 17
M  V30 17 1 11 18
M  V30 18 2 12 19
M  V30 19 1 13 20
M  V30 20 2 14 21
M  V30 21 1 15 22
M  V30 22 2 16 23
M  V30 23 1 17 24
M  V30 24 1 17 25
M  V30 25 2 18 26
M  V30 26 2 20 27
M  V30 27 2 22 28
M  V30 28 1 24 29
M  V30 29 1 25 30
M  V30 30 1 29 31
M  V30 31 1 19 26
M  V30 32 1 21 27
M  V30 33 1 23 28
M  V30 34 1 29 30
M  V30 35 1 4 32
M  V30 36 1 5 33
M  V30 37 1 6 34
M  V30 38 1 6 35
M  V30 39 1 6 36
M  V30 40 1 10 37
M  V30 41 1 10 38
M  V30 42 1 11 39
M  V30 43 1 12 40
M  V30 44 1 13 41
M  V30 45 1 14 42
M  V30 46 1 15 43
M  V30 47 1 16 44
M  V30 48 1 18 45
M  V30 49 1 19 46
M  V30 50 1 20 47
M  V30 51 1 21 48
M  V30 52 1 22 49
M  V30 53 1 23 50
M  V30 54 1 24 51
M  V30 55 1 24 52
M  V30 56 1 25 53
M  V30 57 1 25 54
M  V30 58 1 26 55
M  V30 59 1 27 56
M  V30 60 1 28 57
M  V30 61 1 29 58
M  V30 62 1 30 59
M  V30 63 1 30 60
M  V30 64 1 31 61
M  V30 END BOND
M  V30 END CTAB
M  END
>  <Column 1>
239

>  <level_0>
275

>  <index>
275

>  <Unnamed: 0>
275

>  <NO.>
276

>  <Name>
schembl8717354

>  <IUPAC_name>
n-[2-(3-hydroxypyrrolidin-1-yl)-1-phenylethyl]-n-methyl-2-2-diphenylacetamide

>  <SMILES>
CN(C(=O)C(c1ccccc1)c1ccccc1)C(CN1CCC(O)C1)c1ccccc1

>  <CID>
9823095

>  <logBB>
-0.51

>  <BBB+/BBB->
BBB+

>  <Inchi>
InChI=1S/C27H30N2O2/c1-28(25(21-11-5-2-6-12-21)20-29-18-17-24(30)19-29)27(31)26(22-13-7-3-8-14-22)23-15-9-4-10-16-23/h2-16-24-26-30H-17-20H2-1H3

>  <threshold>


>  <reference>
R18|R26|R27|

>  <group>
A

>  <Class>
1

>  <ABC>
24.13

>  <ABCGG>
19.93

>  <nAcid>
0

>  <nBase>
1

>  <nAromAtom>
18

>  <nAromBond>
18

>  <nAtom>
61

>  <nHeavyAtom>
31

>  <nSpiro>
0

>  <nBridgehead>
0

>  <nHetero>
4

>  <nN>
2

>  <nO>
2

>  <nF>
0

>  <BalabanJ>
1.5

>  <BertzCT>
922.8

>  <nBonds>
64

>  <nBondsO>
34

>  <nBondsS>
45

>  <nBondsD>
1

>  <nBondsT>
0

>  <nBondsA>
18

>  <nBondsM>
19

>  <nBondsKS>
54

>  <nBondsKD>
10

>  <RNCG>
0.17

>  <RPCG>
0.1

>  <FCSP3>
0.3

>  <SZ>
37

>  <Sm>
34.51

>  <Sv>
38.07

>  <Sse>
60.31

>  <Sp>
41.26

>  <Si>
68.23

>  <MZ>
0.61

>  <Mm>
0.57

>  <Mv>
0.62

>  <Mse>
0.99

>  <Mp>
0.68

>  <Mi>
1.12

>  <NsCH3>
1

>  <NdCH2>
0

>  <NssCH2>
4

>  <NtCH>
0

>  <NdsCH>
0

>  <NaaCH>
15

>  <NsssCH>
3

>  <NddC>
0

>  <NtsC>
0

>  <NdssC>
1

>  <NaasC>
3

>  <NaaaC>
0

>  <NssssC>
0

>  <NsNH3>
0

>  <NsNH2>
0

>  <NssNH2>
0

>  <NdNH>
0

>  <NssNH>
0

>  <NaaNH>
0

>  <NtN>
0

>  <NsssNH>
0

>  <NdsN>
0

>  <NaaN>
0

>  <NsssN>
2

>  <NddsN>
0

>  <NaasN>
0

>  <NssssN>
0

>  <NsOH>
1

>  <NdO>
1

>  <NssO>
0

>  <NaaO>
0

>  <NsF>
0

>  <NsSiH3>
0

>  <NssSiH2>
0

>  <NsssSiH>
0

>  <NssssSi>
0

>  <NsPH2>
0

>  <NssPH>
0

>  <NsssP>
0

>  <NdsssP>
0

>  <NsssssP>
0

>  <NsSH>
0

>  <NdS>
0

>  <NssS>
0

>  <NaaS>
0

>  <NdssS>
0

>  <NddssS>
0

>  <NsCl>
0

>  <NsBr>
0

>  <NsI>
0

>  <fragCpx>
226.04

>  <fMF>
0.46

>  <nHBAcc>
3

>  <nHBDon>
1

>  <Kier1>
24.13

>  <Kier2>
11.92

>  <Lipinski>
1

>  <GhoseFilter>
1

>  <FilterItLogS>
-4.88

>  <VMcGowan>
336.55

>  <LabuteASA>
184.3

>  <PEOE_VSA1>
10.01

>  <PEOE_VSA2>
9.69

>  <PEOE_VSA3>
0

>  <PEOE_VSA4>
0

>  <PEOE_VSA5>
0

>  <PEOE_VSA6>
91

>  <PEOE_VSA7>
23.11

>  <PEOE_VSA8>
26.68

>  <PEOE_VSA9>
18.06

>  <PEOE_VSA10>
0

>  <PEOE_VSA11>
0

>  <PEOE_VSA12>
5.91

>  <PEOE_VSA13>
0

>  <SMR_VSA1>
9.9

>  <SMR_VSA2>
0

>  <SMR_VSA3>
9.8

>  <SMR_VSA4>
0

>  <SMR_VSA5>
24.48

>  <SMR_VSA6>
26.68

>  <SMR_VSA7>
107.69

>  <SMR_VSA8>
0

>  <SMR_VSA9>
0

>  <SlogP_VSA1>
0

>  <SlogP_VSA2>
53.6

>  <SlogP_VSA3>
4.79

>  <SlogP_VSA4>
0

>  <SlogP_VSA5>
35.07

>  <SlogP_VSA6>
91

>  <SlogP_VSA7>
0

>  <SlogP_VSA8>
0

>  <SlogP_VSA9>
0

>  <SlogP_VSA10>
0

>  <SlogP_VSA11>
0

>  <EState_VSA1>
0

>  <EState_VSA2>
23.97

>  <EState_VSA3>
13.09

>  <EState_VSA4>
29.66

>  <EState_VSA5>
0

>  <EState_VSA6>
0

>  <EState_VSA7>
90.81

>  <EState_VSA8>
17.03

>  <EState_VSA9>
0

>  <EState_VSA10>
9.9

>  <VSA_EState1>
0

>  <VSA_EState2>
18.1

>  <VSA_EState3>
9.99

>  <VSA_EState4>
3.1

>  <VSA_EState5>
-0.28

>  <VSA_EState6>
30.11

>  <VSA_EState7>
0.51

>  <VSA_EState8>
2.22

>  <VSA_EState9>
1.91

>  <apol>
68.9

>  <bpol>
34.38

>  <nRing>
4

>  <nHRing>
1

>  <naRing>
3

>  <naHRing>
0

>  <nARing 2>
1

>  <nAHRing 2>
1

>  <nFRing>
0

>  <nFHRing>
0

>  <nFaRing>
0

>  <nFaHRing>
0

>  <nFARing 2>
0

>  <nFAHRing 2>
0

>  <nRot>
7

>  <SLogP>
4.08

>  <SMR>
123.74

>  <TopoPSA(NO)>
43.78

>  <TopoPSA>
43.78

>  <JGI1>
0.13

>  <JGI2>
0.06

>  <JGI3>
0.05

>  <JGI4>
0.03

>  <JGI5>
0.02

>  <Diameter>
12

>  <Radius>
6

>  <TMWC10>
141.97

>  <TSRW10>
80.18

>  <MW>
414.23

>  <AMW>
6.79

>  <WPath>
2547

>  <WPol>
47

>  <Zagreb1>
160

>  <Zagreb2>
187

>  <mZagreb2>
6.92

>  <yes>


>  <nAR-cont>
0.816016

>  <nHA-cont>
0.702745138

>  <MWHBN>
0.196534689

>  <MWHBN-cont>
0.998735435

>  <TPSA-cont>
0.694388414

>  <pka_cont>
0.97

>  <yes.1>


>  <BBB_SCORE>
4.890641119

>  <MMFF94 Energy>
150.93

$$$$
Compound 185
Actelion Java MolfileCreator 2.0

  0  0  0  0  0  0              0 V3000
M  V30 BEGIN CTAB
M  V30 COUNTS 38 38 0 0 0
M  V30 BEGIN ATOM
M  V30 1 F 3.6055 0.9396 -4.1551 0
M  V30 2 C 3.6226 2.2118 -3.6538 0
M  V30 3 C 3.8328 2.2335 -2.1522 0
M  V30 4 O 3.9184 3.2792 -1.5151 0
M  V30 5 N 3.9014 0.9786 -1.5876 0
M  V30 6 C 4.1479 0.7545 -0.1801 0
M  V30 7 C 3.2337 -0.3162 0.4121 0
M  V30 8 C 1.8336 0.1759 0.7975 0
M  V30 9 C 0.9631 0.5891 -0.3924 0
M  V30 10 C -0.4814 0.8744 0.0198 0
M  V30 11 C -1.2943 -0.3793 0.3174 0
M  V30 12 O -0.8754 -1.5031 0.0671 0
M  V30 13 N -2.5285 -0.0602 0.8618 0
M  V30 14 C -3.5453 -0.9492 1.267 0
M  V30 15 C -3.4112 -2.3384 1.275 0
M  V30 16 C -4.7543 -0.3849 1.6963 0
M  V30 17 C -4.4685 -3.1504 1.6989 0
M  V30 18 C -5.8106 -1.1961 2.1198 0
M  V30 19 C -5.6672 -2.5805 2.1204 0
M  V30 20 H 4.4369 2.7544 -4.1404 0
M  V30 21 H 2.6637 2.6798 -3.8899 0
M  V30 22 H 3.8628 0.1833 -2.2195 0
M  V30 23 H 4.0722 1.6912 0.3815 0
M  V30 24 H 5.1871 0.414 -0.1125 0
M  V30 25 H 3.7079 -0.6884 1.3292 0
M  V30 26 H 3.1527 -1.1721 -0.2687 0
M  V30 27 H 1.9208 1.0175 1.4958 0
M  V30 28 H 1.3397 -0.6327 1.3493 0
M  V30 29 H 0.9917 -0.1844 -1.1685 0
M  V30 30 H 1.368 1.5063 -0.8318 0
M  V30 31 H -0.5019 1.5369 0.8932 0
M  V30 32 H -0.988 1.3948 -0.8024 0
M  V30 33 H -2.736 0.9243 0.9695 0
M  V30 34 H -2.4938 -2.8253 0.9603 0
M  V30 35 H -4.8943 0.6925 1.7053 0
M  V30 36 H -4.3496 -4.231 1.6984 0
M  V30 37 H -6.744 -0.7467 2.4484 0
M  V30 38 H -6.4861 -3.2151 2.4486 0
M  V30 END ATOM
M  V30 BEGIN BOND
M  V30 1 1 1 2
M  V30 2 1 2 3
M  V30 3 2 3 4
M  V30 4 1 3 5
M  V30 5 1 5 6
M  V30 6 1 6 7
M  V30 7 1 7 8
M  V30 8 1 8 9
M  V30 9 1 9 10
M  V30 10 1 10 11
M  V30 11 2 11 12
M  V30 12 1 11 13
M  V30 13 1 13 14
M  V30 14 2 14 15
M  V30 15 1 14 16
M  V30 16 1 15 17
M  V30 17 2 16 18
M  V30 18 2 17 19
M  V30 19 1 18 19
M  V30 20 1 2 20
M  V30 21 1 2 21
M  V30 22 1 5 22
M  V30 23 1 6 23
M  V30 24 1 6 24
M  V30 25 1 7 25
M  V30 26 1 7 26
M  V30 27 1 8 27
M  V30 28 1 8 28
M  V30 29 1 9 29
M  V30 30 1 9 30
M  V30 31 1 10 31
M  V30 32 1 10 32
M  V30 33 1 13 33
M  V30 34 1 15 34
M  V30 35 1 16 35
M  V30 36 1 17 36
M  V30 37 1 18 37
M  V30 38 1 19 38
M  V30 END BOND
M  V30 END CTAB
M  END
>  <Column 1>
240

>  <level_0>
276

>  <index>
276

>  <Unnamed: 0>
276

>  <NO.>
277

>  <Name>
faha

>  <IUPAC_name>
6-[(2-fluoroacetyl)amino]-n-phenylhexanamide

>  <SMILES>
O=C(CF)NCCCCCC(=O)Nc1ccccc1

>  <CID>
11995317

>  <logBB>
-0.51

>  <BBB+/BBB->
BBB+

>  <Inchi>
InChI=1S/C14H19FN2O2/c15-11-14(19)16-10-6-2-5-9-13(18)17-12-7-3-1-4-8-12/h1-3-4-7-8H-2-5-6-9-11H2-(H-16-19)(H-17-18)

>  <threshold>


>  <reference>
R47|

>  <group>
A

>  <Class>
1

>  <ABC>
13.65

>  <ABCGG>
11.36

>  <nAcid>
0

>  <nBase>
0

>  <nAromAtom>
6

>  <nAromBond>
6

>  <nAtom>
38

>  <nHeavyAtom>
19

>  <nSpiro>
0

>  <nBridgehead>
0

>  <nHetero>
5

>  <nN>
2

>  <nO>
2

>  <nF>
1

>  <BalabanJ>
1.9

>  <BertzCT>
395.69

>  <nBonds>
38

>  <nBondsO>
19

>  <nBondsS>
30

>  <nBondsD>
2

>  <nBondsT>
0

>  <nBondsA>
6

>  <nBondsM>
8

>  <nBondsKS>
33

>  <nBondsKD>
5

>  <RNCG>
0.19

>  <RPCG>
0.14

>  <FCSP3>
0.43

>  <SZ>
23.67

>  <Sm>
22.17

>  <Sv>
22.74

>  <Sse>
38.38

>  <Sp>
24.2

>  <Si>
43.49

>  <MZ>
0.62

>  <Mm>
0.58

>  <Mv>
0.6

>  <Mse>
1.01

>  <Mp>
0.64

>  <Mi>
1.14

>  <NsCH3>
0

>  <NdCH2>
0

>  <NssCH2>
6

>  <NtCH>
0

>  <NdsCH>
0

>  <NaaCH>
5

>  <NsssCH>
0

>  <NddC>
0

>  <NtsC>
0

>  <NdssC>
2

>  <NaasC>
1

>  <NaaaC>
0

>  <NssssC>
0

>  <NsNH3>
0

>  <NsNH2>
0

>  <NssNH2>
0

>  <NdNH>
0

>  <NssNH>
2

>  <NaaNH>
0

>  <NtN>
0

>  <NsssNH>
0

>  <NdsN>
0

>  <NaaN>
0

>  <NsssN>
0

>  <NddsN>
0

>  <NaasN>
0

>  <NssssN>
0

>  <NsOH>
0

>  <NdO>
2

>  <NssO>
0

>  <NaaO>
0

>  <NsF>
1

>  <NsSiH3>
0

>  <NssSiH2>
0

>  <NsssSiH>
0

>  <NssssSi>
0

>  <NsPH2>
0

>  <NssPH>
0

>  <NsssP>
0

>  <NdsssP>
0

>  <NsssssP>
0

>  <NsSH>
0

>  <NdS>
0

>  <NssS>
0

>  <NaaS>
0

>  <NdssS>
0

>  <NddssS>
0

>  <NsCl>
0

>  <NsBr>
0

>  <NsI>
0

>  <fragCpx>
19.05

>  <fMF>
0.16

>  <nHBAcc>
2

>  <nHBDon>
2

>  <Kier1>
17.05

>  <Kier2>
10.75

>  <Lipinski>
1

>  <GhoseFilter>
1

>  <FilterItLogS>
-4.35

>  <VMcGowan>
209.22

>  <LabuteASA>
111.94

>  <PEOE_VSA1>
10.63

>  <PEOE_VSA2>
9.59

>  <PEOE_VSA3>
4.39

>  <PEOE_VSA4>
0

>  <PEOE_VSA5>
0

>  <PEOE_VSA6>
24.62

>  <PEOE_VSA7>
24.97

>  <PEOE_VSA8>
18.65

>  <PEOE_VSA9>
0

>  <PEOE_VSA10>
0

>  <PEOE_VSA11>
6.67

>  <PEOE_VSA12>
5.91

>  <PEOE_VSA13>
5.91

>  <SMR_VSA1>
13.98

>  <SMR_VSA2>
0

>  <SMR_VSA3>
5.32

>  <SMR_VSA4>
0

>  <SMR_VSA5>
25.68

>  <SMR_VSA6>
18.54

>  <SMR_VSA7>
30.33

>  <SMR_VSA8>
0

>  <SMR_VSA9>
0

>  <SlogP_VSA1>
10.63

>  <SlogP_VSA2>
25.03

>  <SlogP_VSA3>
9.59

>  <SlogP_VSA4>
0

>  <SlogP_VSA5>
25.68

>  <SlogP_VSA6>
30.33

>  <SlogP_VSA7>
0

>  <SlogP_VSA8>
0

>  <SlogP_VSA9>
0

>  <SlogP_VSA10>
10.08

>  <SlogP_VSA11>
0

>  <EState_VSA1>
12.58

>  <EState_VSA2>
5.91

>  <EState_VSA3>
12.97

>  <EState_VSA4>
24.95

>  <EState_VSA5>
0

>  <EState_VSA6>
0

>  <EState_VSA7>
30.33

>  <EState_VSA8>
10.63

>  <EState_VSA9>
0

>  <EState_VSA10>
13.98

>  <VSA_EState1>
11.81

>  <VSA_EState2>
22.17

>  <VSA_EState3>
5.25

>  <VSA_EState4>
0.79

>  <VSA_EState5>
-0.6

>  <VSA_EState6>
9.29

>  <VSA_EState7>
2.79

>  <VSA_EState8>
-0.51

>  <VSA_EState9>
0

>  <apol>
40.41

>  <bpol>
23.05

>  <nRing>
1

>  <nHRing>
0

>  <naRing>
1

>  <naHRing>
0

>  <nARing 2>
0

>  <nAHRing 2>
0

>  <nFRing>
0

>  <nFHRing>
0

>  <nFaRing>
0

>  <nFaHRing>
0

>  <nFARing 2>
0

>  <nFAHRing 2>
0

>  <nRot>
8

>  <SLogP>
2.27

>  <SMR>
72.52

>  <TopoPSA(NO)>
58.2

>  <TopoPSA>
58.2

>  <JGI1>
0.16

>  <JGI2>
0.05

>  <JGI3>
0.03

>  <JGI4>
0.03

>  <JGI5>
0.01

>  <Diameter>
14

>  <Radius>
7

>  <TMWC10>
105.04

>  <TSRW10>
50.38

>  <MW>
266.14

>  <AMW>
7

>  <WPath>
954

>  <WPol>
20

>  <Zagreb1>
82

>  <Zagreb2>
86

>  <mZagreb2>
4.58

>  <yes>


>  <nAR-cont>
0.336376

>  <nHA-cont>
0.998649058

>  <MWHBN>
0.24519122

>  <MWHBN-cont>
0.967491481

>  <TPSA-cont>
0.59372786

>  <pka_cont>
0.97

>  <yes.1>


>  <BBB_SCORE>
4.458717999

>  <MMFF94 Energy>
6.5316

$$$$
Compound 186
Actelion Java MolfileCreator 2.0

  0  0  0  0  0  0              0 V3000
M  V30 BEGIN CTAB
M  V30 COUNTS 21 21 0 0 0
M  V30 BEGIN ATOM
M  V30 1 O 0.8698 2.2943 -2.136 0
M  V30 2 C 0.7572 1.2321 -1.5484 0
M  V30 3 O 0.9155 0.0754 -2.2136 0
M  V30 4 C 0.4874 1.0853 -0.0961 0
M  V30 5 C 0.2398 -0.1285 0.559 0
M  V30 6 C 0.4908 2.2656 0.666 0
M  V30 7 O 0.2325 -1.3587 -0.1022 0
M  V30 8 C 0.0403 -0.1713 1.9446 0
M  V30 9 C 0.2728 2.2276 2.0465 0
M  V30 10 C -0.9897 -1.6342 -0.7034 0
M  V30 11 C 0.052 1.0091 2.6852 0
M  V30 12 O -2.0022 -0.9479 -0.6577 0
M  V30 13 C -0.888 -2.944 -1.4264 0
M  V30 14 H 1.0968 0.3691 -3.1314 0
M  V30 15 H 0.6678 3.227 0.1858 0
M  V30 16 H -0.1334 -1.1208 2.4435 0
M  V30 17 H 0.2779 3.1508 2.6214 0
M  V30 18 H -0.1142 0.9797 3.7593 0
M  V30 19 H -0.0996 -2.8913 -2.1813 0
M  V30 20 H -0.6857 -3.7461 -0.7125 0
M  V30 21 H -1.8361 -3.1538 -1.9298 0
M  V30 END ATOM
M  V30 BEGIN BOND
M  V30 1 2 1 2
M  V30 2 1 2 3
M  V30 3 1 2 4
M  V30 4 2 4 5
M  V30 5 1 4 6
M  V30 6 1 5 7
M  V30 7 1 5 8
M  V30 8 2 6 9
M  V30 9 1 7 10
M  V30 10 2 8 11
M  V30 11 2 10 12
M  V30 12 1 10 13
M  V30 13 1 9 11
M  V30 14 1 3 14
M  V30 15 1 6 15
M  V30 16 1 8 16
M  V30 17 1 9 17
M  V30 18 1 11 18
M  V30 19 1 13 19
M  V30 20 1 13 20
M  V30 21 1 13 21
M  V30 END BOND
M  V30 END CTAB
M  END
>  <Column 1>
241

>  <level_0>
277

>  <index>
277

>  <Unnamed: 0>
277

>  <NO.>
278

>  <Name>
50-78-2

>  <IUPAC_name>
2-acetyloxybenzoate

>  <SMILES>
CC(=O)Oc1ccccc1C(=O)O

>  <CID>
2244

>  <logBB>
-0.5

>  <BBB+/BBB->
BBB+

>  <Inchi>
InChI=1S/C9H8O4/c1-6(10)13-8-5-3-2-4-7(8)9(11)12/h2-5H-1H3-(H-11-12)

>  <threshold>


>  <reference>
R4|R8|R21|R27|R2|R2|R27|R5|R11|R12|R17|R18|R25|R26|R27|R35|R36|R39|R43|R46|R47|R48|R49|R49|

>  <group>
A

>  <Class>
1

>  <ABC>
9.55

>  <ABCGG>
9.04

>  <nAcid>
1

>  <nBase>
0

>  <nAromAtom>
6

>  <nAromBond>
6

>  <nAtom>
21

>  <nHeavyAtom>
13

>  <nSpiro>
0

>  <nBridgehead>
0

>  <nHetero>
4

>  <nN>
0

>  <nO>
4

>  <nF>
0

>  <BalabanJ>
2.46

>  <BertzCT>
343.22

>  <nBonds>
21

>  <nBondsO>
13

>  <nBondsS>
13

>  <nBondsD>
2

>  <nBondsT>
0

>  <nBondsA>
6

>  <nBondsM>
8

>  <nBondsKS>
16

>  <nBondsKD>
5

>  <RNCG>
0.3

>  <RPCG>
0.21

>  <FCSP3>
0.11

>  <SZ>
15.67

>  <Sm>
15

>  <Sv>
14.03

>  <Sse>
21.87

>  <Sp>
14.12

>  <Si>
23.5

>  <MZ>
0.75

>  <Mm>
0.71

>  <Mv>
0.67

>  <Mse>
1.04

>  <Mp>
0.67

>  <Mi>
1.12

>  <NsCH3>
1

>  <NdCH2>
0

>  <NssCH2>
0

>  <NtCH>
0

>  <NdsCH>
0

>  <NaaCH>
4

>  <NsssCH>
0

>  <NddC>
0

>  <NtsC>
0

>  <NdssC>
2

>  <NaasC>
2

>  <NaaaC>
0

>  <NssssC>
0

>  <NsNH3>
0

>  <NsNH2>
0

>  <NssNH2>
0

>  <NdNH>
0

>  <NssNH>
0

>  <NaaNH>
0

>  <NtN>
0

>  <NsssNH>
0

>  <NdsN>
0

>  <NaaN>
0

>  <NsssN>
0

>  <NddsN>
0

>  <NaasN>
0

>  <NssssN>
0

>  <NsOH>
1

>  <NdO>
2

>  <NssO>
1

>  <NaaO>
0

>  <NsF>
0

>  <NsSiH3>
0

>  <NssSiH2>
0

>  <NsssSiH>
0

>  <NssssSi>
0

>  <NsPH2>
0

>  <NssPH>
0

>  <NsssP>
0

>  <NdsssP>
0

>  <NsssssP>
0

>  <NsSH>
0

>  <NdS>
0

>  <NssS>
0

>  <NaaS>
0

>  <NdssS>
0

>  <NddssS>
0

>  <NsCl>
0

>  <NsBr>
0

>  <NsI>
0

>  <fragCpx>
13.04

>  <fMF>
0.29

>  <nHBAcc>
3

>  <nHBDon>
1

>  <Kier1>
11.08

>  <Kier2>
5.02

>  <Lipinski>
1

>  <GhoseFilter>
1

>  <FilterItLogS>
-1.24

>  <VMcGowan>
128.79

>  <LabuteASA>
74.76

>  <PEOE_VSA1>
9.84

>  <PEOE_VSA2>
4.79

>  <PEOE_VSA3>
4.79

>  <PEOE_VSA4>
0

>  <PEOE_VSA5>
0

>  <PEOE_VSA6>
12.13

>  <PEOE_VSA7>
12.13

>  <PEOE_VSA8>
6.92

>  <PEOE_VSA9>
0

>  <PEOE_VSA10>
11.31

>  <PEOE_VSA11>
0

>  <PEOE_VSA12>
0

>  <PEOE_VSA13>
0

>  <SMR_VSA1>
19.43

>  <SMR_VSA2>
0

>  <SMR_VSA3>
0

>  <SMR_VSA4>
0

>  <SMR_VSA5>
6.92

>  <SMR_VSA6>
0

>  <SMR_VSA7>
29.83

>  <SMR_VSA8>
0

>  <SMR_VSA9>
5.75

>  <SlogP_VSA1>
4.74

>  <SlogP_VSA2>
17.05

>  <SlogP_VSA3>
4.79

>  <SlogP_VSA4>
0

>  <SlogP_VSA5>
17.28

>  <SlogP_VSA6>
24.27

>  <SlogP_VSA7>
0

>  <SlogP_VSA8>
0

>  <SlogP_VSA9>
0

>  <SlogP_VSA10>
0

>  <SlogP_VSA11>
5.75

>  <EState_VSA1>
11.94

>  <EState_VSA2>
11.31

>  <EState_VSA3>
0

>  <EState_VSA4>
0

>  <EState_VSA5>
19.06

>  <EState_VSA6>
12.13

>  <EState_VSA7>
0

>  <EState_VSA8>
4.74

>  <EState_VSA9>
5.11

>  <EState_VSA10>
9.59

>  <VSA_EState1>
4.69

>  <VSA_EState2>
21.18

>  <VSA_EState3>
8.69

>  <VSA_EState4>
-0.02

>  <VSA_EState5>
-1.58

>  <VSA_EState6>
5.98

>  <VSA_EState7>
0

>  <VSA_EState8>
1.22

>  <VSA_EState9>
0

>  <apol>
23.57

>  <bpol>
11.5

>  <nRing>
1

>  <nHRing>
0

>  <naRing>
1

>  <naHRing>
0

>  <nARing 2>
0

>  <nAHRing 2>
0

>  <nFRing>
0

>  <nFHRing>
0

>  <nFaRing>
0

>  <nFaHRing>
0

>  <nFARing 2>
0

>  <nFAHRing 2>
0

>  <nRot>
2

>  <SLogP>
1.31

>  <SMR>
44.71

>  <TopoPSA(NO)>
63.6

>  <TopoPSA>
63.6

>  <JGI1>
0.23

>  <JGI2>
0.08

>  <JGI3>
0.06

>  <JGI4>
0.04

>  <JGI5>
0.04

>  <Diameter>
6

>  <Radius>
3

>  <TMWC10>
92.54

>  <TSRW10>
43.56

>  <MW>
180.04

>  <AMW>
8.57

>  <WPath>
246

>  <WPol>
16

>  <Zagreb1>
60

>  <Zagreb2>
66

>  <mZagreb2>
2.97

>  <yes>


>  <nAR-cont>
0.336376

>  <nHA-cont>
0.841215992

>  <MWHBN>
0.298109276

>  <MWHBN-cont>
0.846350723

>  <TPSA-cont>
0.556032507

>  <pka_cont>
0.97

>  <yes.1>


>  <BBB_SCORE>
4.04418309

>  <MMFF94 Energy>
20.833

$$$$
Compound 187
Actelion Java MolfileCreator 2.0

  0  0  0  0  0  0              0 V3000
M  V30 BEGIN CTAB
M  V30 COUNTS 43 45 0 0 0
M  V30 BEGIN ATOM
M  V30 1 O -1.1921 -1.1126 -1.7489 0
M  V30 2 C -0.8237 -0.3039 -0.9089 0
M  V30 3 N -0.5213 -0.5266 0.4363 0
M  V30 4 C -0.6682 1.1785 -1.1563 0
M  V30 5 N -0.1466 0.6715 1.0657 0
M  V30 6 C -0.8842 -1.7137 1.1139 0
M  V30 7 C -0.24 1.7447 0.1776 0
M  V30 8 C 0.3752 1.4771 -2.2342 0
M  V30 9 C 0.5572 0.7536 2.2896 0
M  V30 10 C -1.593 -1.6663 2.3213 0
M  V30 11 C -0.5391 -2.9594 0.5759 0
M  V30 12 O 0.0062 2.9256 0.3801 0
M  V30 13 C -0.1977 1.3523 -3.6496 0
M  V30 14 C 1.5418 -0.1868 2.6186 0
M  V30 15 C 0.2775 1.7892 3.1894 0
M  V30 16 C -1.9374 -2.8457 2.9856 0
M  V30 17 C -0.886 -4.1379 1.2404 0
M  V30 18 C 0.8568 1.6856 -4.7056 0
M  V30 19 C 2.2241 -0.0999 3.8344 0
M  V30 20 C 0.962 1.8759 4.4037 0
M  V30 21 C -1.5825 -4.0803 2.4459 0
M  V30 22 C 0.2937 1.5648 -6.1126 0
M  V30 23 C 1.9327 0.93 4.7266 0
M  V30 24 H -1.6492 1.6026 -1.3981 0
M  V30 25 H 0.7653 2.4947 -2.1059 0
M  V30 26 H 1.2327 0.8 -2.1268 0
M  V30 27 H -1.8921 -0.7159 2.7553 0
M  V30 28 H 0.0014 -3.0256 -0.3655 0
M  V30 29 H -1.0524 2.0308 -3.7597 0
M  V30 30 H -0.5688 0.3355 -3.8185 0
M  V30 31 H 1.7955 -0.9911 1.9336 0
M  V30 32 H -0.4741 2.5394 2.9543 0
M  V30 33 H -2.486 -2.7997 3.9231 0
M  V30 34 H -0.6155 -5.1002 0.8132 0
M  V30 35 H 1.2274 2.7059 -4.5533 0
M  V30 36 H 1.7137 1.0099 -4.6019 0
M  V30 37 H 2.9854 -0.835 4.0826 0
M  V30 38 H 0.7392 2.6852 5.0947 0
M  V30 39 H -1.8537 -4.998 2.9617 0
M  V30 40 H 1.064 1.8075 -6.8512 0
M  V30 41 H -0.0563 0.5464 -6.309 0
M  V30 42 H -0.546 2.2515 -6.2593 0
M  V30 43 H 2.4664 0.9991 5.6713 0
M  V30 END ATOM
M  V30 BEGIN BOND
M  V30 1 2 1 2
M  V30 2 1 2 3
M  V30 3 1 2 4
M  V30 4 1 3 5
M  V30 5 1 3 6
M  V30 6 1 4 7
M  V30 7 1 4 8
M  V30 8 1 5 9
M  V30 9 2 6 10
M  V30 10 1 6 11
M  V30 11 2 7 12
M  V30 12 1 8 13
M  V30 13 2 9 14
M  V30 14 1 9 15
M  V30 15 1 10 16
M  V30 16 2 11 17
M  V30 17 1 13 18
M  V30 18 1 14 19
M  V30 19 2 15 20
M  V30 20 2 16 21
M  V30 21 1 18 22
M  V30 22 2 19 23
M  V30 23 1 5 7
M  V30 24 1 17 21
M  V30 25 1 20 23
M  V30 26 1 4 24
M  V30 27 1 8 25
M  V30 28 1 8 26
M  V30 29 1 10 27
M  V30 30 1 11 28
M  V30 31 1 13 29
M  V30 32 1 13 30
M  V30 33 1 14 31
M  V30 34 1 15 32
M  V30 35 1 16 33
M  V30 36 1 17 34
M  V30 37 1 18 35
M  V30 38 1 18 36
M  V30 39 1 19 37
M  V30 40 1 20 38
M  V30 41 1 21 39
M  V30 42 1 22 40
M  V30 43 1 22 41
M  V30 44 1 22 42
M  V30 45 1 23 43
M  V30 END BOND
M  V30 END CTAB
M  END
>  <Column 1>
242

>  <level_0>
278

>  <index>
278

>  <Unnamed: 0>
278

>  <NO.>
279

>  <Name>
phenylbutazone

>  <IUPAC_name>
4-butyl-1-2-diphenylpyrazolidine-3-5-dione

>  <SMILES>
CCCCC1C(=O)N(c2ccccc2)N(c2ccccc2)C1=O

>  <CID>
4781

>  <logBB>
-0.5

>  <BBB+/BBB->
BBB+

>  <Inchi>
InChI=1S/C19H20N2O2/c1-2-3-14-17-18(22)20(15-10-6-4-7-11-15)21(19(17)23)16-12-8-5-9-13-16/h4-13-17H-2-3-14H2-1H3

>  <threshold>


>  <reference>
R2|R2|R3|R11|R12|R18|R21|R25|R26|R27|R27|R27|R35|R36|R38|R39|R41|R43|R46|R47|R50|R8|R40|R5|R44|

>  <group>
A

>  <Class>
1

>  <ABC>
17.61

>  <ABCGG>
15.03

>  <nAcid>
0

>  <nBase>
0

>  <nAromAtom>
12

>  <nAromBond>
12

>  <nAtom>
43

>  <nHeavyAtom>
23

>  <nSpiro>
0

>  <nBridgehead>
0

>  <nHetero>
4

>  <nN>
2

>  <nO>
2

>  <nF>
0

>  <BalabanJ>
1.78

>  <BertzCT>
627.53

>  <nBonds>
45

>  <nBondsO>
25

>  <nBondsS>
31

>  <nBondsD>
2

>  <nBondsT>
0

>  <nBondsA>
12

>  <nBondsM>
14

>  <nBondsKS>
37

>  <nBondsKD>
8

>  <RNCG>
0.16

>  <RPCG>
0.15

>  <FCSP3>
0.26

>  <SZ>
27.33

>  <Sm>
25.67

>  <Sv>
27.36

>  <Sse>
42.87

>  <Sp>
29.26

>  <Si>
48.15

>  <MZ>
0.64

>  <Mm>
0.6

>  <Mv>
0.64

>  <Mse>
1

>  <Mp>
0.68

>  <Mi>
1.12

>  <NsCH3>
1

>  <NdCH2>
0

>  <NssCH2>
3

>  <NtCH>
0

>  <NdsCH>
0

>  <NaaCH>
10

>  <NsssCH>
1

>  <NddC>
0

>  <NtsC>
0

>  <NdssC>
2

>  <NaasC>
2

>  <NaaaC>
0

>  <NssssC>
0

>  <NsNH3>
0

>  <NsNH2>
0

>  <NssNH2>
0

>  <NdNH>
0

>  <NssNH>
0

>  <NaaNH>
0

>  <NtN>
0

>  <NsssNH>
0

>  <NdsN>
0

>  <NaaN>
0

>  <NsssN>
2

>  <NddsN>
0

>  <NaasN>
0

>  <NssssN>
0

>  <NsOH>
0

>  <NdO>
2

>  <NssO>
0

>  <NaaO>
0

>  <NsF>
0

>  <NsSiH3>
0

>  <NssSiH2>
0

>  <NsssSiH>
0

>  <NssssSi>
0

>  <NsPH2>
0

>  <NssPH>
0

>  <NsssP>
0

>  <NdsssP>
0

>  <NsssssP>
0

>  <NsSH>
0

>  <NdS>
0

>  <NssS>
0

>  <NaaS>
0

>  <NdssS>
0

>  <NddssS>
0

>  <NsCl>
0

>  <NsBr>
0

>  <NsI>
0

>  <fragCpx>
119.04

>  <fMF>
0.4

>  <nHBAcc>
2

>  <nHBDon>
0

>  <Kier1>
17.81

>  <Kier2>
8.39

>  <Lipinski>
1

>  <GhoseFilter>
1

>  <FilterItLogS>
-4.04

>  <VMcGowan>
243.29

>  <LabuteASA>
135.85

>  <PEOE_VSA1>
0

>  <PEOE_VSA2>
9.59

>  <PEOE_VSA3>
10.02

>  <PEOE_VSA4>
0

>  <PEOE_VSA5>
0

>  <PEOE_VSA6>
56.16

>  <PEOE_VSA7>
30.69

>  <PEOE_VSA8>
0

>  <PEOE_VSA9>
11.37

>  <PEOE_VSA10>
5.92

>  <PEOE_VSA11>
0

>  <PEOE_VSA12>
0

>  <PEOE_VSA13>
11.81

>  <SMR_VSA1>
9.59

>  <SMR_VSA2>
0

>  <SMR_VSA3>
0

>  <SMR_VSA4>
5.92

>  <SMR_VSA5>
26.19

>  <SMR_VSA6>
10.02

>  <SMR_VSA7>
60.66

>  <SMR_VSA8>
0

>  <SMR_VSA9>
0

>  <SlogP_VSA1>
10.02

>  <SlogP_VSA2>
11.81

>  <SlogP_VSA3>
9.59

>  <SlogP_VSA4>
5.92

>  <SlogP_VSA5>
26.19

>  <SlogP_VSA6>
60.66

>  <SlogP_VSA7>
0

>  <SlogP_VSA8>
0

>  <SlogP_VSA9>
0

>  <SlogP_VSA10>
11.37

>  <SlogP_VSA11>
0

>  <EState_VSA1>
5.92

>  <EState_VSA2>
11.81

>  <EState_VSA3>
17.8

>  <EState_VSA4>
12.84

>  <EState_VSA5>
10.02

>  <EState_VSA6>
0

>  <EState_VSA7>
60.66

>  <EState_VSA8>
6.92

>  <EState_VSA9>
0

>  <EState_VSA10>
9.59

>  <VSA_EState1>
0

>  <VSA_EState2>
25.74

>  <VSA_EState3>
3.02

>  <VSA_EState4>
1.43

>  <VSA_EState5>
-0.87

>  <VSA_EState6>
18.68

>  <VSA_EState7>
2.43

>  <VSA_EState8>
2.06

>  <VSA_EState9>
0

>  <apol>
48.87

>  <bpol>
24.08

>  <nRing>
3

>  <nHRing>
1

>  <naRing>
2

>  <naHRing>
0

>  <nARing 2>
1

>  <nAHRing 2>
1

>  <nFRing>
0

>  <nFHRing>
0

>  <nFaRing>
0

>  <nFaHRing>
0

>  <nFARing 2>
0

>  <nFAHRing 2>
0

>  <nRot>
5

>  <SLogP>
3.79

>  <SMR>
90.87

>  <TopoPSA(NO)>
40.62

>  <TopoPSA>
40.62

>  <JGI1>
0.1

>  <JGI2>
0.07

>  <JGI3>
0.07

>  <JGI4>
0.05

>  <JGI5>
0.02

>  <Diameter>
10

>  <Radius>
6

>  <TMWC10>
123.33

>  <TSRW10>
71.9

>  <MW>
308.15

>  <AMW>
7.17

>  <WPath>
1109

>  <WPol>
37

>  <Zagreb1>
118

>  <Zagreb2>
141

>  <mZagreb2>
5.28

>  <yes>


>  <nAR-cont>
0.816016

>  <nHA-cont>
0.967789328

>  <MWHBN>
0.113932836

>  <MWHBN-cont>
0.802087899

>  <TPSA-cont>
0.716447176

>  <pka_cont>
0.97

>  <yes.1>


>  <BBB_SCORE>
4.90483153

>  <MMFF94 Energy>
51.029

$$$$
Compound 188
Actelion Java MolfileCreator 2.0

  0  0  0  0  0  0              0 V3000
M  V30 BEGIN CTAB
M  V30 COUNTS 55 58 0 0 0
M  V30 BEGIN ATOM
M  V30 1 Cl -3.9462 -6.9339 -3.7849 0
M  V30 2 C -4.3372 -5.6162 -2.7462 0
M  V30 3 C -5.3435 -5.741 -1.7941 0
M  V30 4 C -3.6297 -4.4163 -2.8603 0
M  V30 5 F -6.0336 -6.8839 -1.6664 0
M  V30 6 C -5.6469 -4.68 -0.9503 0
M  V30 7 C -3.9271 -3.3251 -2.0318 0
M  V30 8 C -4.9379 -3.4812 -1.0667 0
M  V30 9 N -3.2317 -2.1042 -2.0928 0
M  V30 10 C -2.4041 -1.5656 -3.1041 0
M  V30 11 N -2.5509 -2.0101 -4.3653 0
M  V30 12 C -1.4443 -0.5879 -2.7691 0
M  V30 13 C -1.7678 -1.4601 -5.2959 0
M  V30 14 C -0.6897 -0.088 -3.8361 0
M  V30 15 C -1.1893 -0.099 -1.4655 0
M  V30 16 N -0.8475 -0.5122 -5.0921 0
M  V30 17 C 0.2631 0.8953 -3.5891 0
M  V30 18 C -0.2104 0.87 -1.23 0
M  V30 19 C 0.5095 1.4015 -2.3054 0
M  V30 20 O -0.1071 1.2407 0.0852 0
M  V30 21 O 1.4054 2.4016 -2.0384 0
M  V30 22 C 1.2203 1.4809 0.5612 0
M  V30 23 C 2.0495 3.0309 -3.1395 0
M  V30 24 C 1.2337 1.2001 2.0635 0
M  V30 25 C 2.6169 1.4735 2.6614 0
M  V30 26 N 2.7063 1.0844 4.0776 0
M  V30 27 C 4.1124 1.0715 4.5459 0
M  V30 28 C 1.9374 1.9664 4.9854 0
M  V30 29 C 4.7126 2.4714 4.7614 0
M  V30 30 C 2.5696 3.3526 5.2019 0
M  V30 31 O 3.9199 3.2459 5.6693 0
M  V30 32 H -2.8363 -4.3445 -3.5986 0
M  V30 33 H -6.4307 -4.7917 -0.2076 0
M  V30 34 H -5.1889 -2.6629 -0.3953 0
M  V30 35 H -3.5588 -1.3991 -1.4453 0
M  V30 36 H -1.8919 -1.8146 -6.3134 0
M  V30 37 H -1.736 -0.4891 -0.6103 0
M  V30 38 H 0.8133 1.2617 -4.451 0
M  V30 39 H 1.4787 2.5318 0.3919 0
M  V30 40 H 1.9487 0.8285 0.0634 0
M  V30 41 H 2.7028 2.3278 -3.6661 0
M  V30 42 H 2.678 3.8342 -2.7429 0
M  V30 43 H 1.3208 3.4841 -3.8198 0
M  V30 44 H 0.4636 1.8168 2.5408 0
M  V30 45 H 0.9397 0.1571 2.2376 0
M  V30 46 H 3.3404 0.8776 2.0896 0
M  V30 47 H 2.8873 2.5244 2.5068 0
M  V30 48 H 4.1323 0.5351 5.5037 0
M  V30 49 H 4.7422 0.4912 3.8614 0
M  V30 50 H 1.8868 1.4594 5.9584 0
M  V30 51 H 0.8992 2.0741 4.6569 0
M  V30 52 H 4.8159 3.0178 3.817 0
M  V30 53 H 5.7127 2.3786 5.1972 0
M  V30 54 H 2.0029 3.8985 5.9634 0
M  V30 55 H 2.5515 3.9551 4.2868 0
M  V30 END ATOM
M  V30 BEGIN BOND
M  V30 1 1 1 2
M  V30 2 2 2 3
M  V30 3 1 2 4
M  V30 4 1 3 5
M  V30 5 1 3 6
M  V30 6 2 4 7
M  V30 7 2 6 8
M  V30 8 1 7 9
M  V30 9 1 9 10
M  V30 10 2 10 11
M  V30 11 1 10 12
M  V30 12 1 11 13
M  V30 13 1 12 14
M  V30 14 2 12 15
M  V30 15 2 13 16
M  V30 16 2 14 17
M  V30 17 1 15 18
M  V30 18 1 17 19
M  V30 19 1 18 20
M  V30 20 1 19 21
M  V30 21 1 20 22
M  V30 22 1 21 23
M  V30 23 1 22 24
M  V30 24 1 24 25
M  V30 25 1 25 26
M  V30 26 1 26 27
M  V30 27 1 26 28
M  V30 28 1 27 29
M  V30 29 1 28 30
M  V30 30 1 29 31
M  V30 31 1 7 8
M  V30 32 1 14 16
M  V30 33 2 18 19
M  V30 34 1 30 31
M  V30 35 1 4 32
M  V30 36 1 6 33
M  V30 37 1 8 34
M  V30 38 1 9 35
M  V30 39 1 13 36
M  V30 40 1 15 37
M  V30 41 1 17 38
M  V30 42 1 22 39
M  V30 43 1 22 40
M  V30 44 1 23 41
M  V30 45 1 23 42
M  V30 46 1 23 43
M  V30 47 1 24 44
M  V30 48 1 24 45
M  V30 49 1 25 46
M  V30 50 1 25 47
M  V30 51 1 27 48
M  V30 52 1 27 49
M  V30 53 1 28 50
M  V30 54 1 28 51
M  V30 55 1 29 52
M  V30 56 1 29 53
M  V30 57 1 30 54
M  V30 58 1 30 55
M  V30 END BOND
M  V30 END CTAB
M  END
>  <Column 1>
243

>  <level_0>
279

>  <index>
279

>  <Unnamed: 0>
279

>  <NO.>
280

>  <Name>
gefitinib

>  <IUPAC_name>
n-(3-chloro-4-fluorophenyl)-7-methoxy-6-(3-morpholin-4-ylpropoxy)quinazolin-4-amine

>  <SMILES>
COc1cc2ncnc(Nc3ccc(F)c(Cl)c3)c2cc1OCCCN1CCOCC1

>  <CID>
123631

>  <logBB>
-0.5

>  <BBB+/BBB->
BBB+

>  <Inchi>
InChI=1S/C22H24ClFN4O3/c1-29-20-13-19-16(12-21(20)31-8-2-5-28-6-9-30-10-7-28)22(26-14-25-19)27-15-3-4-18(24)17(23)11-15/h3-4-11-14H-2-5-10H2-1H3-(H-25-26-27)

>  <threshold>


>  <reference>
R2|R2|R20|R25|R27|R46|

>  <group>
A

>  <Class>
1

>  <ABC>
24.1

>  <ABCGG>
17.42

>  <nAcid>
0

>  <nBase>
1

>  <nAromAtom>
16

>  <nAromBond>
17

>  <nAtom>
55

>  <nHeavyAtom>
31

>  <nSpiro>
0

>  <nBridgehead>
0

>  <nHetero>
9

>  <nN>
4

>  <nO>
3

>  <nF>
1

>  <BalabanJ>
1.27

>  <BertzCT>
1046.68

>  <nBonds>
58

>  <nBondsO>
34

>  <nBondsS>
41

>  <nBondsD>
0

>  <nBondsT>
0

>  <nBondsA>
17

>  <nBondsM>
17

>  <nBondsKS>
50

>  <nBondsKD>
8

>  <RNCG>
0.17

>  <RPCG>
0.06

>  <FCSP3>
0.36

>  <SZ>
39

>  <Sm>
37.21

>  <Sv>
35.42

>  <Sse>
56.02

>  <Sp>
37.3

>  <Si>
62.47

>  <MZ>
0.71

>  <Mm>
0.68

>  <Mv>
0.64

>  <Mse>
1.02

>  <Mp>
0.68

>  <Mi>
1.14

>  <NsCH3>
1

>  <NdCH2>
0

>  <NssCH2>
7

>  <NtCH>
0

>  <NdsCH>
0

>  <NaaCH>
6

>  <NsssCH>
0

>  <NddC>
0

>  <NtsC>
0

>  <NdssC>
0

>  <NaasC>
6

>  <NaaaC>
2

>  <NssssC>
0

>  <NsNH3>
0

>  <NsNH2>
0

>  <NssNH2>
0

>  <NdNH>
0

>  <NssNH>
1

>  <NaaNH>
0

>  <NtN>
0

>  <NsssNH>
0

>  <NdsN>
0

>  <NaaN>
2

>  <NsssN>
1

>  <NddsN>
0

>  <NaasN>
0

>  <NssssN>
0

>  <NsOH>
0

>  <NdO>
0

>  <NssO>
3

>  <NaaO>
0

>  <NsF>
1

>  <NsSiH3>
0

>  <NssSiH2>
0

>  <NsssSiH>
0

>  <NssssSi>
0

>  <NsPH2>
0

>  <NssPH>
0

>  <NsssP>
0

>  <NdsssP>
0

>  <NsssssP>
0

>  <NsSH>
0

>  <NdS>
0

>  <NssS>
0

>  <NaaS>
0

>  <NdssS>
0

>  <NddssS>
0

>  <NsCl>
1

>  <NsBr>
0

>  <NsI>
0

>  <fragCpx>
226.09

>  <fMF>
0.49

>  <nHBAcc>
7

>  <nHBDon>
1

>  <Kier1>
24.13

>  <Kier2>
11.92

>  <Lipinski>
1

>  <GhoseFilter>
1

>  <FilterItLogS>
-7.03

>  <VMcGowan>
314.53

>  <LabuteASA>
184.64

>  <PEOE_VSA1>
19.53

>  <PEOE_VSA2>
4.9

>  <PEOE_VSA3>
14.36

>  <PEOE_VSA4>
0

>  <PEOE_VSA5>
0

>  <PEOE_VSA6>
11.6

>  <PEOE_VSA7>
30.69

>  <PEOE_VSA8>
36.77

>  <PEOE_VSA9>
37.47

>  <PEOE_VSA10>
17.96

>  <PEOE_VSA11>
11.5

>  <PEOE_VSA12>
0

>  <PEOE_VSA13>
0

>  <SMR_VSA1>
18.6

>  <SMR_VSA2>
0

>  <SMR_VSA3>
14.87

>  <SMR_VSA4>
0

>  <SMR_VSA5>
6.42

>  <SMR_VSA6>
51.88

>  <SMR_VSA7>
47.5

>  <SMR_VSA8>
0

>  <SMR_VSA9>
11.5

>  <SlogP_VSA1>
14.79

>  <SlogP_VSA2>
61.43

>  <SlogP_VSA3>
4.74

>  <SlogP_VSA4>
5.82

>  <SlogP_VSA5>
6.42

>  <SlogP_VSA6>
36.66

>  <SlogP_VSA7>
5.02

>  <SlogP_VSA8>
10.9

>  <SlogP_VSA9>
0

>  <SlogP_VSA10>
15.9

>  <SlogP_VSA11>
11.5

>  <EState_VSA1>
5.82

>  <EState_VSA2>
5.02

>  <EState_VSA3>
35.13

>  <EState_VSA4>
44.66

>  <EState_VSA5>
18.46

>  <EState_VSA6>
13.18

>  <EState_VSA7>
12.13

>  <EState_VSA8>
20.18

>  <EState_VSA9>
25.81

>  <EState_VSA10>
4.39

>  <VSA_EState1>
30.37

>  <VSA_EState2>
11.04

>  <VSA_EState3>
3.97

>  <VSA_EState4>
1.32

>  <VSA_EState5>
1.31

>  <VSA_EState6>
8.09

>  <VSA_EState7>
2.35

>  <VSA_EState8>
5

>  <VSA_EState9>
1.6

>  <apol>
62.29

>  <bpol>
35.47

>  <nRing>
4

>  <nHRing>
2

>  <naRing>
3

>  <naHRing>
1

>  <nARing 2>
1

>  <nAHRing 2>
1

>  <nFRing>
1

>  <nFHRing>
1

>  <nFaRing>
1

>  <nFaHRing>
1

>  <nFARing 2>
0

>  <nFAHRing 2>
0

>  <nRot>
8

>  <SLogP>
4.28

>  <SMR>
118.15

>  <TopoPSA(NO)>
68.74

>  <TopoPSA>
68.74

>  <JGI1>
0.16

>  <JGI2>
0.07

>  <JGI3>
0.03

>  <JGI4>
0.04

>  <JGI5>
0.02

>  <Diameter>
17

>  <Radius>
9

>  <TMWC10>
141.69

>  <TSRW10>
66.72

>  <MW>
446.15

>  <AMW>
8.11

>  <WPath>
3020

>  <WPol>
48

>  <Zagreb1>
160

>  <Zagreb2>
186

>  <mZagreb2>
6.94

>  <yes>


>  <nAR-cont>
0.816016

>  <nHA-cont>
0.702745138

>  <MWHBN>
0.378747294

>  <MWHBN-cont>
0.559718339

>  <TPSA-cont>
0.520152115

>  <pka_cont>
0.97

>  <yes.1>


>  <BBB_SCORE>
3.883642876

>  <MMFF94 Energy>
83.632

$$$$
Compound 189
Actelion Java MolfileCreator 2.0

  0  0  0  0  0  0              0 V3000
M  V30 BEGIN CTAB
M  V30 COUNTS 55 58 0 0 0
M  V30 BEGIN ATOM
M  V30 1 O 0.6434 -4.4302 4.753 0
M  V30 2 C 0.2152 -3.5913 3.965 0
M  V30 3 C 0.7697 -2.2203 3.9862 0
M  V30 4 C -0.9235 -3.8702 3.0252 0
M  V30 5 C 0.3815 -1.2828 3.1028 0
M  V30 6 C -0.7472 -3.0852 1.7327 0
M  V30 7 C -0.5813 -1.5478 1.9305 0 CFG=2
M  V30 8 C 0.8902 0.1287 3.2654 0
M  V30 9 C 0.0095 -0.8972 0.6048 0 CFG=1
M  V30 10 C -1.9591 -0.9484 2.2942 0
M  V30 11 C 1.478 0.6681 1.9709 0
M  V30 12 C -0.8967 -1.0255 -0.6603 0 CFG=2
M  V30 13 C 0.4578 0.5861 0.8289 0 CFG=1
M  V30 14 O -1.0803 -2.3897 -1.03 0
M  V30 15 C -0.3434 -0.3085 -1.9102 0
M  V30 16 C 1.0381 1.1476 -0.4735 0 CFG=1
M  V30 17 C 0.0214 1.1528 -1.6357 0 CFG=1
M  V30 18 C 1.5852 2.5695 -0.4741 0
M  V30 19 C 0.8772 1.8375 -2.7301 0 CFG=2
M  V30 20 C -1.2618 1.9729 -1.3524 0
M  V30 21 C 1.6632 2.9321 -1.9647 0
M  V30 22 C 0.1051 2.3888 -3.926 0
M  V30 23 O -0.2053 3.5781 -4.0318 0
M  V30 24 C -0.3095 1.3948 -5.0051 0
M  V30 25 O -0.678 2.0591 -6.2046 0
M  V30 26 H 1.4614 -2.0171 4.7968 0
M  V30 27 H -0.9318 -4.9417 2.7966 0
M  V30 28 H -1.8639 -3.6218 3.5272 0
M  V30 29 H -1.6149 -3.3025 1.1004 0
M  V30 30 H 0.1359 -3.4827 1.2138 0
M  V30 31 H 0.0633 0.7712 3.5925 0
M  V30 32 H 1.6543 0.1898 4.0502 0
M  V30 33 H 0.9249 -1.4678 0.378 0
M  V30 34 H -1.9393 0.1446 2.3409 0
M  V30 35 H -2.7258 -1.2315 1.5654 0
M  V30 36 H -2.3046 -1.3 3.2735 0
M  V30 37 H 1.7823 1.7082 2.1354 0
M  V30 38 H 2.3851 0.1079 1.7101 0
M  V30 39 H -1.8917 -0.627 -0.4425 0
M  V30 40 H -0.4073 1.1909 1.1209 0
M  V30 41 H -0.2088 -2.7749 -1.2264 0
M  V30 42 H 0.5359 -0.8563 -2.2763 0
M  V30 43 H -1.0813 -0.3859 -2.7172 0
M  V30 44 H 1.8826 0.4948 -0.7516 0
M  V30 45 H 2.5696 2.6353 1.0E-4 0
M  V30 46 H 0.9159 3.2576 0.0543 0
M  V30 47 H 1.6162 1.1287 -3.1292 0
M  V30 48 H -1.8067 1.6194 -0.4732 0
M  V30 49 H -1.9572 1.9063 -2.1971 0
M  V30 50 H -1.0505 3.0349 -1.1909 0
M  V30 51 H 1.2744 3.9434 -2.1216 0
M  V30 52 H 2.7066 2.9382 -2.3015 0
M  V30 53 H 0.5227 0.7237 -5.2303 0
M  V30 54 H -1.1686 0.8201 -4.6536 0
M  V30 55 H -0.9973 2.9454 -5.9372 0
M  V30 END ATOM
M  V30 BEGIN BOND
M  V30 1 2 1 2
M  V30 2 1 2 3
M  V30 3 1 2 4
M  V30 4 2 3 5
M  V30 5 1 4 6
M  V30 6 1 5 7
M  V30 7 1 5 8
M  V30 8 1 7 9
M  V30 9 1 7 10
M  V30 10 1 8 11
M  V30 11 1 9 12
M  V30 12 1 9 13
M  V30 13 1 12 14
M  V30 14 1 12 15
M  V30 15 1 13 16
M  V30 16 1 15 17
M  V30 17 1 16 18
M  V30 18 1 17 19
M  V30 19 1 17 20
M  V30 20 1 18 21
M  V30 21 1 19 22
M  V30 22 2 22 23
M  V30 23 1 22 24
M  V30 24 1 24 25
M  V30 25 1 6 7
M  V30 26 1 11 13
M  V30 27 1 16 17
M  V30 28 1 19 21
M  V30 29 1 3 26
M  V30 30 1 4 27
M  V30 31 1 4 28
M  V30 32 1 6 29
M  V30 33 1 6 30
M  V30 34 1 8 31
M  V30 35 1 8 32
M  V30 36 1 9 33
M  V30 37 1 10 34
M  V30 38 1 10 35
M  V30 39 1 10 36
M  V30 40 1 11 37
M  V30 41 1 11 38
M  V30 42 1 12 39
M  V30 43 1 13 40
M  V30 44 1 14 41
M  V30 45 1 15 42
M  V30 46 1 15 43
M  V30 47 1 16 44
M  V30 48 1 18 45
M  V30 49 1 18 46
M  V30 50 1 19 47
M  V30 51 1 20 48
M  V30 52 1 20 49
M  V30 53 1 20 50
M  V30 54 1 21 51
M  V30 55 1 21 52
M  V30 56 1 24 53
M  V30 57 1 24 54
M  V30 58 1 25 55
M  V30 END BOND
M  V30 BEGIN COLLECTION
M  V30 MDLV30/STEABS ATOMS=(7 7 9 12 13 16 17 19)
M  V30 END COLLECTION
M  V30 END CTAB
M  END
>  <Column 1>
244

>  <level_0>
280

>  <index>
280

>  <Unnamed: 0>
280

>  <NO.>
281

>  <Name>
epicorticosterone

>  <IUPAC_name>
(8s-9s-10r-11r-13s-14s-17s)-11-hydroxy-17-(2-hydroxyacetyl)-10-13-dimethyl-1-2-6-7-8-9-11-12-14-15-16-17-dodecahydrocyclopenta[a]phenanthren-3-one

>  <SMILES>
C[C@]12C[C@@H](O)[C@H]3[C@@H](CCC4=CC(=O)CC[C@@]43C)[C@@H]1CC[C@@H]2C(=O)CO

>  <CID>
256277

>  <logBB>
-0.5

>  <BBB+/BBB->
BBB+

>  <Inchi>
InChI=1S/C21H30O4/c1-20-8-7-13(23)9-12(20)3-4-14-15-5-6-16(18(25)11-22)21(15-2)10-17(24)19(14)20/h9-14-17-19-22-24H-3-8-10-11H2-1-2H3/t14--15--16+-17+-19+-20--21-/m0/s1

>  <threshold>


>  <reference>
R2|R2|R25|R27|R46|

>  <group>
A

>  <Class>
1

>  <ABC>
20.04

>  <ABCGG>
16.39

>  <nAcid>
0

>  <nBase>
0

>  <nAromAtom>
0

>  <nAromBond>
0

>  <nAtom>
55

>  <nHeavyAtom>
25

>  <nSpiro>
0

>  <nBridgehead>
0

>  <nHetero>
4

>  <nN>
0

>  <nO>
4

>  <nF>
0

>  <BalabanJ>
1.64

>  <BertzCT>
637.81

>  <nBonds>
58

>  <nBondsO>
28

>  <nBondsS>
55

>  <nBondsD>
3

>  <nBondsT>
0

>  <nBondsA>
0

>  <nBondsM>
3

>  <nBondsKS>
55

>  <nBondsKD>
3

>  <RNCG>
0.21

>  <RPCG>
0.11

>  <FCSP3>
0.81

>  <SZ>
31.33

>  <Sm>
28.85

>  <Sv>
31.99

>  <Sse>
54.64

>  <Sp>
34.9

>  <Si>
62.07

>  <MZ>
0.57

>  <Mm>
0.52

>  <Mv>
0.58

>  <Mse>
0.99

>  <Mp>
0.63

>  <Mi>
1.13

>  <NsCH3>
2

>  <NdCH2>
0

>  <NssCH2>
8

>  <NtCH>
0

>  <NdsCH>
1

>  <NaaCH>
0

>  <NsssCH>
5

>  <NddC>
0

>  <NtsC>
0

>  <NdssC>
3

>  <NaasC>
0

>  <NaaaC>
0

>  <NssssC>
2

>  <NsNH3>
0

>  <NsNH2>
0

>  <NssNH2>
0

>  <NdNH>
0

>  <NssNH>
0

>  <NaaNH>
0

>  <NtN>
0

>  <NsssNH>
0

>  <NdsN>
0

>  <NaaN>
0

>  <NsssN>
0

>  <NddsN>
0

>  <NaasN>
0

>  <NssssN>
0

>  <NsOH>
2

>  <NdO>
2

>  <NssO>
0

>  <NaaO>
0

>  <NsF>
0

>  <NsSiH3>
0

>  <NssSiH2>
0

>  <NsssSiH>
0

>  <NssssSi>
0

>  <NsPH2>
0

>  <NssPH>
0

>  <NsssP>
0

>  <NdsssP>
0

>  <NsssssP>
0

>  <NsSH>
0

>  <NdS>
0

>  <NssS>
0

>  <NaaS>
0

>  <NdssS>
0

>  <NddssS>
0

>  <NsCl>
0

>  <NsBr>
0

>  <NsI>
0

>  <fragCpx>
184.04

>  <fMF>
0.31

>  <nHBAcc>
4

>  <nHBDon>
2

>  <Kier1>
18.37

>  <Kier2>
6.27

>  <Lipinski>
1

>  <GhoseFilter>
1

>  <FilterItLogS>
-3

>  <VMcGowan>
273.89

>  <LabuteASA>
149.24

>  <PEOE_VSA1>
10.21

>  <PEOE_VSA2>
9.59

>  <PEOE_VSA3>
0

>  <PEOE_VSA4>
0

>  <PEOE_VSA5>
0

>  <PEOE_VSA6>
19.42

>  <PEOE_VSA7>
73.18

>  <PEOE_VSA8>
12.34

>  <PEOE_VSA9>
6.1

>  <PEOE_VSA10>
6.61

>  <PEOE_VSA11>
11.57

>  <PEOE_VSA12>
0

>  <PEOE_VSA13>
0

>  <SMR_VSA1>
19.8

>  <SMR_VSA2>
0

>  <SMR_VSA3>
0

>  <SMR_VSA4>
34.5

>  <SMR_VSA5>
64.9

>  <SMR_VSA6>
6.61

>  <SMR_VSA7>
11.65

>  <SMR_VSA8>
0

>  <SMR_VSA9>
0

>  <SlogP_VSA1>
0

>  <SlogP_VSA2>
34.49

>  <SlogP_VSA3>
9.59

>  <SlogP_VSA4>
34.5

>  <SlogP_VSA5>
58.79

>  <SlogP_VSA6>
11.65

>  <SlogP_VSA7>
0

>  <SlogP_VSA8>
0

>  <SlogP_VSA9>
0

>  <SlogP_VSA10>
0

>  <SlogP_VSA11>
0

>  <EState_VSA1>
6.1

>  <EState_VSA2>
40.84

>  <EState_VSA3>
24.68

>  <EState_VSA4>
32.1

>  <EState_VSA5>
5.57

>  <EState_VSA6>
0

>  <EState_VSA7>
6.08

>  <EState_VSA8>
13.85

>  <EState_VSA9>
0

>  <EState_VSA10>
19.8

>  <VSA_EState1>
0

>  <VSA_EState2>
24.18

>  <VSA_EState3>
20.54

>  <VSA_EState4>
0.98

>  <VSA_EState5>
1.12

>  <VSA_EState6>
0

>  <VSA_EState7>
7.32

>  <VSA_EState8>
4.03

>  <VSA_EState9>
0

>  <apol>
58.28

>  <bpol>
31.83

>  <nRing>
4

>  <nHRing>
0

>  <naRing>
0

>  <naHRing>
0

>  <nARing 2>
4

>  <nAHRing 2>
0

>  <nFRing>
1

>  <nFHRing>
0

>  <nFaRing>
0

>  <nFaHRing>
0

>  <nFARing 2>
1

>  <nFAHRing 2>
0

>  <nRot>
2

>  <SLogP>
2.67

>  <SMR>
93.68

>  <TopoPSA(NO)>
74.6

>  <TopoPSA>
74.6

>  <JGI1>
0.27

>  <JGI2>
0.12

>  <JGI3>
0.07

>  <JGI4>
0.06

>  <JGI5>
0.03

>  <Diameter>
12

>  <Radius>
6

>  <TMWC10>
132.27

>  <TSRW10>
75.48

>  <MW>
346.21

>  <AMW>
6.29

>  <WPath>
1305

>  <WPol>
53

>  <Zagreb1>
146

>  <Zagreb2>
185

>  <mZagreb2>
5.28

>  <yes>


>  <nAR-cont>
0.199399

>  <nHA-cont>
0.921834225

>  <MWHBN>
0.322464156

>  <MWHBN-cont>
0.76884812

>  <TPSA-cont>
0.479245676

>  <pka_cont>
0.97

>  <yes.1>


>  <BBB_SCORE>
3.717996758

>  <MMFF94 Energy>
99.248

$$$$
Compound 190
Actelion Java MolfileCreator 2.0

  0  0  0  0  0  0              0 V3000
M  V30 BEGIN CTAB
M  V30 COUNTS 37 37 0 0 0
M  V30 BEGIN ATOM
M  V30 1 Cl -2.5671 -1.9249 3.29 0
M  V30 2 C -0.8256 -1.5748 3.111 0
M  V30 3 C -0.1485 -2.5393 2.1329 0
M  V30 4 N -0.6318 -2.4071 0.7458 0
M  V30 5 C -0.2712 -1.2292 0.0904 0
M  V30 6 C -0.6675 -3.6321 -0.0729 0
M  V30 7 C -1.2194 -0.213 -0.0659 0
M  V30 8 C 1.0132 -1.0256 -0.4228 0
M  V30 9 C -1.6904 -3.5456 -1.2072 0
M  V30 10 C -0.8942 0.9817 -0.7127 0
M  V30 11 C 1.3441 0.1672 -1.0716 0
M  V30 12 Cl -1.7813 -5.0946 -2.0873 0
M  V30 13 C 0.3946 1.1857 -1.2175 0
M  V30 14 C 0.7592 2.4858 -1.9008 0
M  V30 15 C 1.3639 3.5664 -0.9854 0 CFG=2
M  V30 16 N 2.6603 3.1458 -0.3905 0
M  V30 17 C 0.3942 4.0022 0.1183 0
M  V30 18 O 0.6263 4.0232 1.3185 0
M  V30 19 O -0.7874 4.4509 -0.3501 0
M  V30 20 H -0.7231 -0.5304 2.8045 0
M  V30 21 H -0.3776 -1.68 4.1037 0
M  V30 22 H -0.3196 -3.5631 2.4893 0
M  V30 23 H 0.9378 -2.3871 2.1643 0
M  V30 24 H 0.3317 -3.8541 -0.4681 0
M  V30 25 H -0.9438 -4.4777 0.5697 0
M  V30 26 H -2.2266 -0.3549 0.32 0
M  V30 27 H 1.7718 -1.7967 -0.319 0
M  V30 28 H -1.4244 -2.7752 -1.9366 0
M  V30 29 H -2.6896 -3.323 -0.8195 0
M  V30 30 H -1.6596 1.7469 -0.8204 0
M  V30 31 H 2.3524 0.2985 -1.4602 0
M  V30 32 H -0.1366 2.8825 -2.3967 0
M  V30 33 H 1.4613 2.2674 -2.717 0
M  V30 34 H 1.5725 4.4595 -1.5868 0
M  V30 35 H 2.4688 2.3601 0.2372 0
M  V30 36 H 2.9676 3.8891 0.2418 0
M  V30 37 H -1.2745 4.7165 0.4587 0
M  V30 END ATOM
M  V30 BEGIN BOND
M  V30 1 1 1 2
M  V30 2 1 2 3
M  V30 3 1 3 4
M  V30 4 1 4 5
M  V30 5 1 4 6
M  V30 6 2 5 7
M  V30 7 1 5 8
M  V30 8 1 6 9
M  V30 9 1 7 10
M  V30 10 2 8 11
M  V30 11 1 9 12
M  V30 12 2 10 13
M  V30 13 1 13 14
M  V30 14 1 14 15
M  V30 15 1 15 16
M  V30 16 1 15 17
M  V30 17 2 17 18
M  V30 18 1 17 19
M  V30 19 1 11 13
M  V30 20 1 2 20
M  V30 21 1 2 21
M  V30 22 1 3 22
M  V30 23 1 3 23
M  V30 24 1 6 24
M  V30 25 1 6 25
M  V30 26 1 7 26
M  V30 27 1 8 27
M  V30 28 1 9 28
M  V30 29 1 9 29
M  V30 30 1 10 30
M  V30 31 1 11 31
M  V30 32 1 14 32
M  V30 33 1 14 33
M  V30 34 1 15 34
M  V30 35 1 16 35
M  V30 36 1 16 36
M  V30 37 1 19 37
M  V30 END BOND
M  V30 BEGIN COLLECTION
M  V30 MDLV30/STERAC1 ATOMS=(1 15)
M  V30 END COLLECTION
M  V30 END CTAB
M  END
>  <Column 1>
245

>  <level_0>
281

>  <index>
281

>  <Unnamed: 0>
281

>  <NO.>
282

>  <Name>
melphalan

>  <IUPAC_name>
2-amino-3-[4-[bis(2-chloroethyl)amino]phenyl]propanoic acid

>  <SMILES>
NC(Cc1ccc(N(CCCl)CCCl)cc1)C(=O)O

>  <CID>
4053

>  <logBB>
-0.5

>  <BBB+/BBB->
BBB+

>  <Inchi>
InChI=1S/C13H18Cl2N2O2/c14-5-7-17(8-6-15)11-3-1-10(2-4-11)9-12(16)13(18)19/h1-4-12H-5-9-16H2-(H-18-19)

>  <threshold>


>  <reference>
R2|R2|R25|R27|R46|

>  <group>
A

>  <Class>
1

>  <ABC>
13.68

>  <ABCGG>
12.08

>  <nAcid>
1

>  <nBase>
1

>  <nAromAtom>
6

>  <nAromBond>
6

>  <nAtom>
37

>  <nHeavyAtom>
19

>  <nSpiro>
0

>  <nBridgehead>
0

>  <nHetero>
6

>  <nN>
2

>  <nO>
2

>  <nF>
0

>  <BalabanJ>
2.34

>  <BertzCT>
392.13

>  <nBonds>
37

>  <nBondsO>
19

>  <nBondsS>
30

>  <nBondsD>
1

>  <nBondsT>
0

>  <nBondsA>
6

>  <nBondsM>
7

>  <nBondsKS>
33

>  <nBondsKD>
4

>  <RNCG>
0.25

>  <RPCG>
0.17

>  <FCSP3>
0.46

>  <SZ>
26.67

>  <Sm>
25.41

>  <Sv>
23

>  <Sse>
37.51

>  <Sp>
25.08

>  <Si>
42.04

>  <MZ>
0.72

>  <Mm>
0.69

>  <Mv>
0.62

>  <Mse>
1.01

>  <Mp>
0.68

>  <Mi>
1.14

>  <NsCH3>
0

>  <NdCH2>
0

>  <NssCH2>
5

>  <NtCH>
0

>  <NdsCH>
0

>  <NaaCH>
4

>  <NsssCH>
1

>  <NddC>
0

>  <NtsC>
0

>  <NdssC>
1

>  <NaasC>
2

>  <NaaaC>
0

>  <NssssC>
0

>  <NsNH3>
0

>  <NsNH2>
1

>  <NssNH2>
0

>  <NdNH>
0

>  <NssNH>
0

>  <NaaNH>
0

>  <NtN>
0

>  <NsssNH>
0

>  <NdsN>
0

>  <NaaN>
0

>  <NsssN>
1

>  <NddsN>
0

>  <NaasN>
0

>  <NssssN>
0

>  <NsOH>
1

>  <NdO>
1

>  <NssO>
0

>  <NaaO>
0

>  <NsF>
0

>  <NsSiH3>
0

>  <NssSiH2>
0

>  <NsssSiH>
0

>  <NssssSi>
0

>  <NsPH2>
0

>  <NssPH>
0

>  <NsssP>
0

>  <NdsssP>
0

>  <NsssssP>
0

>  <NsSH>
0

>  <NdS>
0

>  <NssS>
0

>  <NaaS>
0

>  <NdssS>
0

>  <NddssS>
0

>  <NsCl>
2

>  <NsBr>
0

>  <NsI>
0

>  <fragCpx>
19.06

>  <fMF>
0.16

>  <nHBAcc>
3

>  <nHBDon>
2

>  <Kier1>
17.05

>  <Kier2>
9.03

>  <Lipinski>
1

>  <GhoseFilter>
1

>  <FilterItLogS>
-3.43

>  <VMcGowan>
222.15

>  <LabuteASA>
122.65

>  <PEOE_VSA1>
15.74

>  <PEOE_VSA2>
4.79

>  <PEOE_VSA3>
0

>  <PEOE_VSA4>
0

>  <PEOE_VSA5>
23.2

>  <PEOE_VSA6>
12.13

>  <PEOE_VSA7>
24.12

>  <PEOE_VSA8>
30.54

>  <PEOE_VSA9>
0

>  <PEOE_VSA10>
6.04

>  <PEOE_VSA11>
0

>  <PEOE_VSA12>
0

>  <PEOE_VSA13>
0

>  <SMR_VSA1>
9.9

>  <SMR_VSA2>
0

>  <SMR_VSA3>
0

>  <SMR_VSA4>
5.73

>  <SMR_VSA5>
12.46

>  <SMR_VSA6>
29.75

>  <SMR_VSA7>
29.83

>  <SMR_VSA8>
0

>  <SMR_VSA9>
0

>  <SlogP_VSA1>
10.63

>  <SlogP_VSA2>
41.97

>  <SlogP_VSA3>
11.22

>  <SlogP_VSA4>
0

>  <SlogP_VSA5>
5.56

>  <SlogP_VSA6>
24.27

>  <SlogP_VSA7>
0

>  <SlogP_VSA8>
0

>  <SlogP_VSA9>
0

>  <SlogP_VSA10>
5.69

>  <SlogP_VSA11>
0

>  <EState_VSA1>
12.01

>  <EState_VSA2>
0

>  <EState_VSA3>
18.18

>  <EState_VSA4>
24.34

>  <EState_VSA5>
0

>  <EState_VSA6>
0

>  <EState_VSA7>
24.27

>  <EState_VSA8>
4.9

>  <EState_VSA9>
34.04

>  <EState_VSA10>
4.79

>  <VSA_EState1>
0

>  <VSA_EState2>
12.77

>  <VSA_EState3>
8.76

>  <VSA_EState4>
7.42

>  <VSA_EState5>
0.07

>  <VSA_EState6>
6.76

>  <VSA_EState7>
0.32

>  <VSA_EState8>
1.45

>  <VSA_EState9>
0

>  <apol>
41.88

>  <bpol>
21.09

>  <nRing>
1

>  <nHRing>
0

>  <naRing>
1

>  <naHRing>
0

>  <nARing 2>
0

>  <nAHRing 2>
0

>  <nFRing>
0

>  <nFHRing>
0

>  <nFaRing>
0

>  <nFaHRing>
0

>  <nFARing 2>
0

>  <nFAHRing 2>
0

>  <nRot>
8

>  <SLogP>
1.93

>  <SMR>
79.41

>  <TopoPSA(NO)>
66.56

>  <TopoPSA>
66.56

>  <JGI1>
0.21

>  <JGI2>
0.09

>  <JGI3>
0.04

>  <JGI4>
0.04

>  <JGI5>
0.03

>  <Diameter>
11

>  <Radius>
6

>  <TMWC10>
107.56

>  <TSRW10>
51.2

>  <MW>
304.07

>  <AMW>
8.22

>  <WPath>
804

>  <WPol>
25

>  <Zagreb1>
86

>  <Zagreb2>
95

>  <mZagreb2>
4.56

>  <yes>


>  <nAR-cont>
0.336376

>  <nHA-cont>
0.998649058

>  <MWHBN>
0.286736657

>  <MWHBN-cont>
0.878469836

>  <TPSA-cont>
0.535369869

>  <pka_cont>
0.97

>  <yes.1>


>  <BBB_SCORE>
4.20846955

>  <MMFF94 Energy>
91.499

$$$$
Compound 191
Actelion Java MolfileCreator 2.0

  0  0  0  0  0  0              0 V3000
M  V30 BEGIN CTAB
M  V30 COUNTS 44 46 0 0 0
M  V30 BEGIN ATOM
M  V30 1 O 1.8974 1.7391 -0.158 0
M  V30 2 C 1.3244 1.1952 -1.1041 0
M  V30 3 N 1.1439 1.8507 -2.3203 0
M  V30 4 C 0.8009 -0.2375 -1.0045 0
M  V30 5 C 1.4856 3.2609 -2.4205 0
M  V30 6 C 0.581 1.242 -3.5159 0
M  V30 7 C 0.5213 -0.636 0.4089 0
M  V30 8 N 1.4889 -1.0877 1.2891 0
M  V30 9 C -0.6613 -0.6877 1.1302 0
M  V30 10 C 0.8258 -1.4597 2.4557 0
M  V30 11 C 2.872 -1.2087 1.1321 0
M  V30 12 N -0.4678 -1.2438 2.3703 0
M  V30 13 C -1.9722 -0.2837 0.6597 0
M  V30 14 C 1.6119 -1.9957 3.5131 0
M  V30 15 C 3.6196 -1.7102 2.1344 0
M  V30 16 C -3.0558 -1.1562 0.8021 0
M  V30 17 C -2.1829 0.9777 0.091 0
M  V30 18 C 2.9444 -2.1189 3.3638 0
M  V30 19 C 5.106 -1.8636 2.0658 0
M  V30 20 C -4.3261 -0.7878 0.3504 0
M  V30 21 C -3.4536 1.3469 -0.3599 0
M  V30 22 C -4.5311 0.4602 -0.2491 0
M  V30 23 C -5.9027 0.8713 -0.6957 0
M  V30 24 H -0.1244 -0.3397 -1.58 0
M  V30 25 H 1.5402 -0.9057 -1.4595 0
M  V30 26 H 1.8378 3.6745 -1.4724 0
M  V30 27 H 2.2724 3.3785 -3.1714 0
M  V30 28 H 0.5961 3.815 -2.7353 0
M  V30 29 H 0.7158 0.1587 -3.5208 0
M  V30 30 H 1.0776 1.6506 -4.4011 0
M  V30 31 H -0.4861 1.4782 -3.5537 0
M  V30 32 H 3.2981 -0.8713 0.1967 0
M  V30 33 H 1.1114 -2.2925 4.4273 0
M  V30 34 H -2.912 -2.1264 1.2734 0
M  V30 35 H -1.3677 1.6936 0.0207 0
M  V30 36 H 3.5461 -2.5242 4.1723 0
M  V30 37 H 5.5047 -1.5219 1.1046 0
M  V30 38 H 5.5905 -1.2774 2.8538 0
M  V30 39 H 5.3905 -2.9138 2.1891 0
M  V30 40 H -5.1544 -1.4808 0.4784 0
M  V30 41 H -3.5981 2.3371 -0.7859 0
M  V30 42 H -6.4826 0.0028 -1.0252 0
M  V30 43 H -6.4335 1.3603 0.1268 0
M  V30 44 H -5.8463 1.5638 -1.5422 0
M  V30 END ATOM
M  V30 BEGIN BOND
M  V30 1 2 1 2
M  V30 2 1 2 3
M  V30 3 1 2 4
M  V30 4 1 3 5
M  V30 5 1 3 6
M  V30 6 1 4 7
M  V30 7 1 7 8
M  V30 8 2 7 9
M  V30 9 1 8 10
M  V30 10 1 8 11
M  V30 11 1 9 12
M  V30 12 1 9 13
M  V30 13 1 10 14
M  V30 14 2 11 15
M  V30 15 2 13 16
M  V30 16 1 13 17
M  V30 17 2 14 18
M  V30 18 1 15 19
M  V30 19 1 16 20
M  V30 20 2 17 21
M  V30 21 2 20 22
M  V30 22 1 22 23
M  V30 23 2 10 12
M  V30 24 1 15 18
M  V30 25 1 21 22
M  V30 26 1 4 24
M  V30 27 1 4 25
M  V30 28 1 5 26
M  V30 29 1 5 27
M  V30 30 1 5 28
M  V30 31 1 6 29
M  V30 32 1 6 30
M  V30 33 1 6 31
M  V30 34 1 11 32
M  V30 35 1 14 33
M  V30 36 1 16 34
M  V30 37 1 17 35
M  V30 38 1 18 36
M  V30 39 1 19 37
M  V30 40 1 19 38
M  V30 41 1 19 39
M  V30 42 1 20 40
M  V30 43 1 21 41
M  V30 44 1 23 42
M  V30 45 1 23 43
M  V30 46 1 23 44
M  V30 END BOND
M  V30 END CTAB
M  END
>  <Column 1>
247

>  <level_0>
285

>  <index>
285

>  <Unnamed: 0>
285

>  <NO.>
286

>  <Name>
zolpidem

>  <IUPAC_name>
n-n-dimethyl-2-[6-methyl-2-(4-methylphenyl)imidazo[1-2-a]pyridin-3-yl]acetamide

>  <SMILES>
Cc1ccc(-c2nc3ccc(C)cn3c2CC(=O)N(C)C)cc1

>  <CID>
5732

>  <logBB>
-0.48

>  <BBB+/BBB->
BBB+

>  <Inchi>
InChI=1S/C19H21N3O/c1-13-5-8-15(9-6-13)19-16(11-18(23)21(3)4)22-12-14(2)7-10-17(22)20-19/h5-10-12H-11H2-1-4H3

>  <threshold>


>  <reference>
R18|R26|R27|R4|R21|R27|R43|R47|R50|R2|R2|R8|R27|R40|

>  <group>
A

>  <Class>
1

>  <ABC>
18.02

>  <ABCGG>
15.06

>  <nAcid>
0

>  <nBase>
0

>  <nAromAtom>
15

>  <nAromBond>
16

>  <nAtom>
44

>  <nHeavyAtom>
23

>  <nSpiro>
0

>  <nBridgehead>
0

>  <nHetero>
4

>  <nN>
3

>  <nO>
1

>  <nF>
0

>  <BalabanJ>
1.73

>  <BertzCT>
860.2

>  <nBonds>
46

>  <nBondsO>
25

>  <nBondsS>
29

>  <nBondsD>
1

>  <nBondsT>
0

>  <nBondsA>
16

>  <nBondsM>
17

>  <nBondsKS>
38

>  <nBondsKD>
8

>  <RNCG>
0.22

>  <RPCG>
0.14

>  <FCSP3>
0.26

>  <SZ>
27.33

>  <Sm>
25.59

>  <Sv>
27.68

>  <Sse>
43.64

>  <Sp>
29.84

>  <Si>
49.44

>  <MZ>
0.62

>  <Mm>
0.58

>  <Mv>
0.63

>  <Mse>
0.99

>  <Mp>
0.68

>  <Mi>
1.12

>  <NsCH3>
4

>  <NdCH2>
0

>  <NssCH2>
1

>  <NtCH>
0

>  <NdsCH>
0

>  <NaaCH>
7

>  <NsssCH>
0

>  <NddC>
0

>  <NtsC>
0

>  <NdssC>
1

>  <NaasC>
5

>  <NaaaC>
1

>  <NssssC>
0

>  <NsNH3>
0

>  <NsNH2>
0

>  <NssNH2>
0

>  <NdNH>
0

>  <NssNH>
0

>  <NaaNH>
0

>  <NtN>
0

>  <NsssNH>
0

>  <NdsN>
0

>  <NaaN>
1

>  <NsssN>
1

>  <NddsN>
0

>  <NaasN>
1

>  <NssssN>
0

>  <NsOH>
0

>  <NdO>
1

>  <NssO>
0

>  <NaaO>
0

>  <NsF>
0

>  <NsSiH3>
0

>  <NssSiH2>
0

>  <NsssSiH>
0

>  <NssssSi>
0

>  <NsPH2>
0

>  <NssPH>
0

>  <NsssP>
0

>  <NdsssP>
0

>  <NsssssP>
0

>  <NsSH>
0

>  <NdS>
0

>  <NssS>
0

>  <NaaS>
0

>  <NdssS>
0

>  <NddssS>
0

>  <NsCl>
0

>  <NsBr>
0

>  <NsI>
0

>  <fragCpx>
119.04

>  <fMF>
0.34

>  <nHBAcc>
3

>  <nHBDon>
0

>  <Kier1>
17.81

>  <Kier2>
7.49

>  <Lipinski>
1

>  <GhoseFilter>
1

>  <FilterItLogS>
-4.77

>  <VMcGowan>
247.4

>  <LabuteASA>
135.94

>  <PEOE_VSA1>
9.3

>  <PEOE_VSA2>
4.79

>  <PEOE_VSA3>
4.98

>  <PEOE_VSA4>
0

>  <PEOE_VSA5>
0

>  <PEOE_VSA6>
35.9

>  <PEOE_VSA7>
25.48

>  <PEOE_VSA8>
25.86

>  <PEOE_VSA9>
17.81

>  <PEOE_VSA10>
5.65

>  <PEOE_VSA11>
0

>  <PEOE_VSA12>
5.91

>  <PEOE_VSA13>
0

>  <SMR_VSA1>
4.79

>  <SMR_VSA2>
0

>  <SMR_VSA3>
14.28

>  <SMR_VSA4>
0

>  <SMR_VSA5>
20.27

>  <SMR_VSA6>
14.1

>  <SMR_VSA7>
59.42

>  <SMR_VSA8>
0

>  <SMR_VSA9>
11.26

>  <SlogP_VSA1>
0

>  <SlogP_VSA2>
34.29

>  <SlogP_VSA3>
11.22

>  <SlogP_VSA4>
13.85

>  <SlogP_VSA5>
16.82

>  <SlogP_VSA6>
42.6

>  <SlogP_VSA7>
0

>  <SlogP_VSA8>
16.9

>  <SlogP_VSA9>
0

>  <SlogP_VSA10>
0

>  <SlogP_VSA11>
0

>  <EState_VSA1>
0

>  <EState_VSA2>
5.91

>  <EState_VSA3>
6.42

>  <EState_VSA4>
28.16

>  <EState_VSA5>
5.56

>  <EState_VSA6>
19

>  <EState_VSA7>
29.65

>  <EState_VSA8>
31.19

>  <EState_VSA9>
4.98

>  <EState_VSA10>
4.79

>  <VSA_EState1>
2.03

>  <VSA_EState2>
18.64

>  <VSA_EState3>
0

>  <VSA_EState4>
6.08

>  <VSA_EState5>
0.07

>  <VSA_EState6>
12.31

>  <VSA_EState7>
2.37

>  <VSA_EState8>
4.11

>  <VSA_EState9>
3.56

>  <apol>
49.83

>  <bpol>
26.5

>  <nRing>
3

>  <nHRing>
2

>  <naRing>
3

>  <naHRing>
2

>  <nARing 2>
0

>  <nAHRing 2>
0

>  <nFRing>
1

>  <nFHRing>
1

>  <nFaRing>
1

>  <nFaHRing>
1

>  <nFARing 2>
0

>  <nFAHRing 2>
0

>  <nRot>
3

>  <SLogP>
3.25

>  <SMR>
92.5

>  <TopoPSA(NO)>
37.61

>  <TopoPSA>
37.61

>  <JGI1>
0.22

>  <JGI2>
0.09

>  <JGI3>
0.04

>  <JGI4>
0.05

>  <JGI5>
0.03

>  <Diameter>
10

>  <Radius>
5

>  <TMWC10>
123.27

>  <TSRW10>
71.77

>  <MW>
307.17

>  <AMW>
6.98

>  <WPath>
1137

>  <WPol>
36

>  <Zagreb1>
122

>  <Zagreb2>
144

>  <mZagreb2>
4.97

>  <yes>


>  <nAR-cont>
0.336376

>  <nHA-cont>
0.967789328

>  <MWHBN>
0.171171657

>  <MWHBN-cont>
0.975762983

>  <TPSA-cont>
0.737458846

>  <pka_cont>
0.97

>  <yes.1>


>  <BBB_SCORE>
4.727727494

>  <MMFF94 Energy>
49.071

$$$$
Compound 192
Actelion Java MolfileCreator 2.0

  0  0  0  0  0  0              0 V3000
M  V30 BEGIN CTAB
M  V30 COUNTS 41 43 0 0 0
M  V30 BEGIN ATOM
M  V30 1 S -0.6458 2.828 2.181 0
M  V30 2 O -1.5842 3.8868 2.6857 0
M  V30 3 C -1.6305 1.3363 1.9615 0
M  V30 4 C -0.3791 3.1718 0.4345 0
M  V30 5 C -1.3528 0.4366 0.9148 0
M  V30 6 C -2.5962 1.0292 2.9347 0
M  V30 7 C -0.2152 2.124 -0.4912 0
M  V30 8 C -0.2326 4.5117 0.0373 0
M  V30 9 N -0.4358 0.784 -0.1034 0
M  V30 10 C -2.0733 -0.7719 0.8885 0
M  V30 11 C -3.2981 -0.1713 2.8818 0
M  V30 12 C 0.0713 2.4764 -1.8233 0
M  V30 13 C 0.0652 4.8306 -1.2839 0
M  V30 14 C 0.3511 -0.2879 -0.7514 0
M  V30 15 C -3.0324 -1.0745 1.8607 0
M  V30 16 C 0.217 3.8116 -2.2148 0
M  V30 17 C 1.3013 -0.9521 0.256 0
M  V30 18 C 2.2398 -1.9661 -0.4089 0
M  V30 19 N 1.5437 -3.0446 -1.1304 0
M  V30 20 C 0.8492 -3.9541 -0.2141 0
M  V30 21 C 2.5024 -3.8052 -1.9387 0
M  V30 22 H -2.7966 1.7308 3.7424 0
M  V30 23 H -0.3528 5.3113 0.7661 0
M  V30 24 H -1.9294 -1.49 0.0869 0
M  V30 25 H -4.0473 -0.3984 3.6355 0
M  V30 26 H 0.1358 1.7184 -2.5988 0
M  V30 27 H 0.1694 5.8697 -1.5841 0
M  V30 28 H 0.9765 0.1004 -1.5621 0
M  V30 29 H -0.3128 -1.0181 -1.2259 0
M  V30 30 H -3.5817 -2.011 1.8064 0
M  V30 31 H 0.4289 4.0513 -3.2538 0
M  V30 32 H 0.744 -1.4307 1.0682 0
M  V30 33 H 1.9161 -0.1771 0.7324 0
M  V30 34 H 2.8687 -1.4086 -1.1158 0
M  V30 35 H 2.9179 -2.3809 0.3483 0
M  V30 36 H 0.0522 -3.4375 0.3293 0
M  V30 37 H 1.5307 -4.4074 0.5145 0
M  V30 38 H 0.3594 -4.7601 -0.7725 0
M  V30 39 H 3.2773 -4.2784 -1.3247 0
M  V30 40 H 2.9912 -3.1531 -2.6711 0
M  V30 41 H 1.9896 -4.5858 -2.5116 0
M  V30 END ATOM
M  V30 BEGIN BOND
M  V30 1 2 1 2
M  V30 2 1 1 3
M  V30 3 1 1 4
M  V30 4 2 3 5
M  V30 5 1 3 6
M  V30 6 2 4 7
M  V30 7 1 4 8
M  V30 8 1 5 9
M  V30 9 1 5 10
M  V30 10 2 6 11
M  V30 11 1 7 12
M  V30 12 2 8 13
M  V30 13 1 9 14
M  V30 14 2 10 15
M  V30 15 2 12 16
M  V30 16 1 14 17
M  V30 17 1 17 18
M  V30 18 1 18 19
M  V30 19 1 19 20
M  V30 20 1 19 21
M  V30 21 1 7 9
M  V30 22 1 11 15
M  V30 23 1 13 16
M  V30 24 1 6 22
M  V30 25 1 8 23
M  V30 26 1 10 24
M  V30 27 1 11 25
M  V30 28 1 12 26
M  V30 29 1 13 27
M  V30 30 1 14 28
M  V30 31 1 14 29
M  V30 32 1 15 30
M  V30 33 1 16 31
M  V30 34 1 17 32
M  V30 35 1 17 33
M  V30 36 1 18 34
M  V30 37 1 18 35
M  V30 38 1 20 36
M  V30 39 1 20 37
M  V30 40 1 20 38
M  V30 41 1 21 39
M  V30 42 1 21 40
M  V30 43 1 21 41
M  V30 END BOND
M  V30 END CTAB
M  END
>  <Column 1>
249

>  <level_0>
287

>  <index>
287

>  <Unnamed: 0>
287

>  <NO.>
288

>  <Name>
phenothiazine

>  <IUPAC_name>
n-n-dimethyl-3-(5-oxophenothiazin-10-yl)propan-1-amine

>  <SMILES>
CN(C)CCCN1c2ccccc2[S+]([O-])c2ccccc21

>  <CID>
547559

>  <logBB>
-0.48

>  <BBB+/BBB->
BBB+

>  <Inchi>
InChI=1S/C17H20N2OS/c1-18(2)12-7-13-19-14-8-3-5-10-16(14)21(20)17-11-6-4-9-15(17)19/h3-6-8-11H-7-12-13H2-1-2H3

>  <threshold>


>  <reference>
R21|R25|R27|R43|R47|R4|R2|R2|R8|R27|R40|

>  <group>
A

>  <Class>
1

>  <ABC>
16.35

>  <ABCGG>
13.16

>  <nAcid>
0

>  <nBase>
1

>  <nAromAtom>
12

>  <nAromBond>
12

>  <nAtom>
41

>  <nHeavyAtom>
21

>  <nSpiro>
0

>  <nBridgehead>
0

>  <nHetero>
4

>  <nN>
2

>  <nO>
1

>  <nF>
0

>  <BalabanJ>
1.72

>  <BertzCT>
582.19

>  <nBonds>
43

>  <nBondsO>
23

>  <nBondsS>
31

>  <nBondsD>
0

>  <nBondsT>
0

>  <nBondsA>
12

>  <nBondsM>
12

>  <nBondsKS>
37

>  <nBondsKD>
6

>  <RNCG>
0.38

>  <RPCG>
0.11

>  <FCSP3>
0.29

>  <SZ>
26.67

>  <Sm>
25.01

>  <Sv>
25.84

>  <Sse>
40.61

>  <Sp>
28.52

>  <Si>
45.86

>  <MZ>
0.65

>  <Mm>
0.61

>  <Mv>
0.63

>  <Mse>
0.99

>  <Mp>
0.7

>  <Mi>
1.12

>  <NsCH3>
2

>  <NdCH2>
0

>  <NssCH2>
3

>  <NtCH>
0

>  <NdsCH>
0

>  <NaaCH>
8

>  <NsssCH>
0

>  <NddC>
0

>  <NtsC>
0

>  <NdssC>
0

>  <NaasC>
4

>  <NaaaC>
0

>  <NssssC>
0

>  <NsNH3>
0

>  <NsNH2>
0

>  <NssNH2>
0

>  <NdNH>
0

>  <NssNH>
0

>  <NaaNH>
0

>  <NtN>
0

>  <NsssNH>
0

>  <NdsN>
0

>  <NaaN>
0

>  <NsssN>
2

>  <NddsN>
0

>  <NaasN>
0

>  <NssssN>
0

>  <NsOH>
0

>  <NdO>
0

>  <NssO>
0

>  <NaaO>
0

>  <NsF>
0

>  <NsSiH3>
0

>  <NssSiH2>
0

>  <NsssSiH>
0

>  <NssssSi>
0

>  <NsPH2>
0

>  <NssPH>
0

>  <NsssP>
0

>  <NdsssP>
0

>  <NsssssP>
0

>  <NsSH>
0

>  <NdS>
0

>  <NssS>
0

>  <NaaS>
0

>  <NdssS>
0

>  <NddssS>
0

>  <NsCl>
0

>  <NsBr>
0

>  <NsI>
0

>  <fragCpx>
109.04

>  <fMF>
0.34

>  <nHBAcc>
3

>  <nHBDon>
0

>  <Kier1>
15.88

>  <Kier2>
7.05

>  <Lipinski>
1

>  <GhoseFilter>
1

>  <FilterItLogS>
-4.51

>  <VMcGowan>
234.19

>  <LabuteASA>
128.92

>  <PEOE_VSA1>
14.35

>  <PEOE_VSA2>
0

>  <PEOE_VSA3>
0

>  <PEOE_VSA4>
0

>  <PEOE_VSA5>
0

>  <PEOE_VSA6>
24.27

>  <PEOE_VSA7>
51.33

>  <PEOE_VSA8>
17.72

>  <PEOE_VSA9>
11.37

>  <PEOE_VSA10>
0

>  <PEOE_VSA11>
9.79

>  <PEOE_VSA12>
0

>  <PEOE_VSA13>
0

>  <SMR_VSA1>
4.55

>  <SMR_VSA2>
0

>  <SMR_VSA3>
4.9

>  <SMR_VSA4>
0

>  <SMR_VSA5>
16.21

>  <SMR_VSA6>
32.08

>  <SMR_VSA7>
48.53

>  <SMR_VSA8>
0

>  <SMR_VSA9>
0

>  <SlogP_VSA1>
4.9

>  <SlogP_VSA2>
36.64

>  <SlogP_VSA3>
11.18

>  <SlogP_VSA4>
0

>  <SlogP_VSA5>
6.42

>  <SlogP_VSA6>
58.32

>  <SlogP_VSA7>
0

>  <SlogP_VSA8>
0

>  <SlogP_VSA9>
0

>  <SlogP_VSA10>
11.37

>  <SlogP_VSA11>
0

>  <EState_VSA1>
11.18

>  <EState_VSA2>
0

>  <EState_VSA3>
0

>  <EState_VSA4>
40.68

>  <EState_VSA5>
0

>  <EState_VSA6>
0

>  <EState_VSA7>
36.4

>  <EState_VSA8>
36.03

>  <EState_VSA9>
0

>  <EState_VSA10>
4.55

>  <VSA_EState1>
12.71

>  <VSA_EState2>
6.33

>  <VSA_EState3>
0

>  <VSA_EState4>
2.15

>  <VSA_EState5>
0

>  <VSA_EState6>
16.04

>  <VSA_EState7>
1.07

>  <VSA_EState8>
1.98

>  <VSA_EState9>
4.18

>  <apol>
47.63

>  <bpol>
28.04

>  <nRing>
3

>  <nHRing>
1

>  <naRing>
2

>  <naHRing>
0

>  <nARing 2>
1

>  <nAHRing 2>
1

>  <nFRing>
1

>  <nFHRing>
1

>  <nFaRing>
0

>  <nFaHRing>
0

>  <nFARing 2>
1

>  <nFAHRing 2>
1

>  <nRot>
4

>  <SLogP>
3.26

>  <SMR>
87.74

>  <TopoPSA(NO)>
29.54

>  <TopoPSA>
29.54

>  <JGI1>
0.13

>  <JGI2>
0.08

>  <JGI3>
0.05

>  <JGI4>
0.04

>  <JGI5>
0.02

>  <Diameter>
9

>  <Radius>
5

>  <TMWC10>
118.56

>  <TSRW10>
55.16

>  <MW>
300.13

>  <AMW>
7.32

>  <WPath>
880

>  <WPol>
35

>  <Zagreb1>
110

>  <Zagreb2>
131

>  <mZagreb2>
4.67

>  <yes>


>  <nAR-cont>
0.816016

>  <nHA-cont>
0.994529749

>  <MWHBN>
0.173167565

>  <MWHBN-cont>
0.978670338

>  <TPSA-cont>
0.793792457

>  <pka_cont>
0.97

>  <yes.1>


>  <BBB_SCORE>
5.351136169

>  <MMFF94 Energy>
80.675

$$$$
Compound 193
Actelion Java MolfileCreator 2.0

  0  0  0  0  0  0              0 V3000
M  V30 BEGIN CTAB
M  V30 COUNTS 43 46 0 0 0
M  V30 BEGIN ATOM
M  V30 1 S -0.7276 2.9129 -2.508 0
M  V30 2 C -2.2557 3.113 -1.7682 0
M  V30 3 C -0.3501 1.622 -1.4845 0
M  V30 4 N -3.0657 4.1037 -2.192 0
M  V30 5 C -2.5136 2.1863 -0.7546 0
M  V30 6 C 0.8973 0.9073 -1.5222 0
M  V30 7 C -1.3632 1.3365 -0.6099 0
M  V30 8 C -4.2297 4.1736 -1.5297 0
M  V30 9 C -3.773 2.2866 -0.0871 0
M  V30 10 O 1.8026 1.1534 -2.3173 0
M  V30 11 N 0.9534 -0.103 -0.5545 0
M  V30 12 N -1.2416 0.3077 0.3402 0
M  V30 13 C -4.6182 3.3269 -0.5078 0
M  V30 14 N -4.1713 1.4174 0.9277 0
M  V30 15 C 2.1107 -0.9189 -0.4433 0
M  V30 16 C -0.1101 -0.3244 0.3071 0
M  V30 17 C -4.4568 0.0455 0.5309 0
M  V30 18 C -4.8641 1.9368 2.095 0
M  V30 19 C 3.3669 -0.3418 -0.2304 0
M  V30 20 C 1.9991 -2.3123 -0.5235 0
M  V30 21 C 4.4991 -1.1494 -0.0981 0
M  V30 22 C 3.1326 -3.1181 -0.3906 0
M  V30 23 C 4.3923 -2.5433 -0.1812 0
M  V30 24 C 5.6139 -3.4131 -0.0258 0
M  V30 25 C 5.8542 -3.7955 1.4265 0
M  V30 26 H -4.8919 4.9708 -1.859 0
M  V30 27 H -5.5947 3.4661 -0.0573 0
M  V30 28 H 0.0592 -1.1324 1.0385 0
M  V30 29 H -5.4747 -0.0267 0.1315 0
M  V30 30 H -4.3836 -0.6227 1.3955 0
M  V30 31 H -3.7716 -0.3327 -0.2335 0
M  V30 32 H -4.3993 2.8621 2.4532 0
M  V30 33 H -4.8181 1.2139 2.9168 0
M  V30 34 H -5.92 2.1291 1.8769 0
M  V30 35 H 3.4795 0.7382 -0.1691 0
M  V30 36 H 1.037 -2.7856 -0.7039 0
M  V30 37 H 5.4676 -0.6813 0.0653 0
M  V30 38 H 3.0285 -4.1991 -0.4576 0
M  V30 39 H 6.4926 -2.8895 -0.4216 0
M  V30 40 H 5.5015 -4.3189 -0.634 0
M  V30 41 H 6.7452 -4.4256 1.5094 0
M  V30 42 H 5.005 -4.3528 1.8363 0
M  V30 43 H 6.0064 -2.9086 2.0509 0
M  V30 END ATOM
M  V30 BEGIN BOND
M  V30 1 1 1 2
M  V30 2 1 1 3
M  V30 3 2 2 4
M  V30 4 1 2 5
M  V30 5 1 3 6
M  V30 6 2 3 7
M  V30 7 1 4 8
M  V30 8 2 5 9
M  V30 9 2 6 10
M  V30 10 1 6 11
M  V30 11 1 7 12
M  V30 12 2 8 13
M  V30 13 1 9 14
M  V30 14 1 11 15
M  V30 15 1 11 16
M  V30 16 1 14 17
M  V30 17 1 14 18
M  V30 18 2 15 19
M  V30 19 1 15 20
M  V30 20 1 19 21
M  V30 21 2 20 22
M  V30 22 2 21 23
M  V30 23 1 23 24
M  V30 24 1 24 25
M  V30 25 1 5 7
M  V30 26 1 9 13
M  V30 27 2 12 16
M  V30 28 1 22 23
M  V30 29 1 8 26
M  V30 30 1 13 27
M  V30 31 1 16 28
M  V30 32 1 17 29
M  V30 33 1 17 30
M  V30 34 1 17 31
M  V30 35 1 18 32
M  V30 36 1 18 33
M  V30 37 1 18 34
M  V30 38 1 19 35
M  V30 39 1 20 36
M  V30 40 1 21 37
M  V30 41 1 22 38
M  V30 42 1 24 39
M  V30 43 1 24 40
M  V30 44 1 25 41
M  V30 45 1 25 42
M  V30 46 1 25 43
M  V30 END BOND
M  V30 END CTAB
M  END
>  <Column 1>
250

>  <level_0>
288

>  <index>
288

>  <Unnamed: 0>
288

>  <NO.>
289

>  <Name>
chembl385336

>  <IUPAC_name>
13-(dimethylamino)-5-(4-ethylphenyl)-8-thia-3-5-10-triazatricyclo[7.4.0.02-7]trideca-1(13)-2(7)-3-9-11-pentaen-6-one

>  <SMILES>
CCc1ccc(-n2cnc3c(sc4nccc(N(C)C)c43)c2=O)cc1

>  <CID>
11530404

>  <logBB>
-0.47

>  <BBB+/BBB->
BBB+

>  <Inchi>
InChI=1S/C19H18N4OS/c1-4-12-5-7-13(8-6-12)23-11-21-16-15-14(22(2)3)9-10-20-18(15)25-17(16)19(23)24/h5-11H-4H2-1-3H3

>  <threshold>


>  <reference>
R2|R2|R20|R25|R27|R46|

>  <group>
A

>  <Class>
1

>  <ABC>
19.8

>  <ABCGG>
15.4

>  <nAcid>
0

>  <nBase>
0

>  <nAromAtom>
19

>  <nAromBond>
21

>  <nAtom>
43

>  <nHeavyAtom>
25

>  <nSpiro>
0

>  <nBridgehead>
0

>  <nHetero>
6

>  <nN>
4

>  <nO>
1

>  <nF>
0

>  <BalabanJ>
1.44

>  <BertzCT>
1126.04

>  <nBonds>
46

>  <nBondsO>
28

>  <nBondsS>
24

>  <nBondsD>
1

>  <nBondsT>
0

>  <nBondsA>
21

>  <nBondsM>
22

>  <nBondsKS>
37

>  <nBondsKD>
9

>  <RNCG>
0.2

>  <RPCG>
0.15

>  <FCSP3>
0.21

>  <SZ>
30.67

>  <Sm>
29.18

>  <Sv>
28.81

>  <Sse>
43.05

>  <Sp>
31.04

>  <Si>
48.03

>  <MZ>
0.71

>  <Mm>
0.68

>  <Mv>
0.67

>  <Mse>
1

>  <Mp>
0.72

>  <Mi>
1.12

>  <NsCH3>
3

>  <NdCH2>
0

>  <NssCH2>
1

>  <NtCH>
0

>  <NdsCH>
0

>  <NaaCH>
7

>  <NsssCH>
0

>  <NddC>
0

>  <NtsC>
0

>  <NdssC>
0

>  <NaasC>
3

>  <NaaaC>
4

>  <NssssC>
0

>  <NsNH3>
0

>  <NsNH2>
0

>  <NssNH2>
0

>  <NdNH>
0

>  <NssNH>
0

>  <NaaNH>
0

>  <NtN>
0

>  <NsssNH>
0

>  <NdsN>
0

>  <NaaN>
2

>  <NsssN>
1

>  <NddsN>
0

>  <NaasN>
1

>  <NssssN>
0

>  <NsOH>
0

>  <NdO>
1

>  <NssO>
0

>  <NaaO>
0

>  <NsF>
0

>  <NsSiH3>
0

>  <NssSiH2>
0

>  <NsssSiH>
0

>  <NssssSi>
0

>  <NsPH2>
0

>  <NssPH>
0

>  <NsssP>
0

>  <NdsssP>
0

>  <NsssssP>
0

>  <NsSH>
0

>  <NdS>
0

>  <NssS>
0

>  <NaaS>
1

>  <NdssS>
0

>  <NddssS>
0

>  <NsCl>
0

>  <NsBr>
0

>  <NsI>
0

>  <fragCpx>
184.06

>  <fMF>
0.44

>  <nHBAcc>
6

>  <nHBDon>
0

>  <Kier1>
18.37

>  <Kier2>
7.55

>  <Lipinski>
1

>  <GhoseFilter>
1

>  <FilterItLogS>
-5.3

>  <VMcGowan>
258.57

>  <LabuteASA>
148.74

>  <PEOE_VSA1>
4.9

>  <PEOE_VSA2>
9.36

>  <PEOE_VSA3>
9.97

>  <PEOE_VSA4>
0

>  <PEOE_VSA5>
11.34

>  <PEOE_VSA6>
19.06

>  <PEOE_VSA7>
30.18

>  <PEOE_VSA8>
20.29

>  <PEOE_VSA9>
22.28

>  <PEOE_VSA10>
15.86

>  <PEOE_VSA11>
0

>  <PEOE_VSA12>
0

>  <PEOE_VSA13>
5.56

>  <SMR_VSA1>
0

>  <SMR_VSA2>
0

>  <SMR_VSA3>
14.54

>  <SMR_VSA4>
0

>  <SMR_VSA5>
13.34

>  <SMR_VSA6>
19

>  <SMR_VSA7>
58.77

>  <SMR_VSA8>
0

>  <SMR_VSA9>
5.69

>  <SlogP_VSA1>
10.46

>  <SlogP_VSA2>
28.63

>  <SlogP_VSA3>
6.42

>  <SlogP_VSA4>
0

>  <SlogP_VSA5>
12.49

>  <SlogP_VSA6>
47.65

>  <SlogP_VSA7>
0

>  <SlogP_VSA8>
26.12

>  <SlogP_VSA9>
0

>  <SlogP_VSA10>
5.69

>  <SlogP_VSA11>
0

>  <EState_VSA1>
0

>  <EState_VSA2>
5.56

>  <EState_VSA3>
4.7

>  <EState_VSA4>
33.53

>  <EState_VSA5>
16.9

>  <EState_VSA6>
17.09

>  <EState_VSA7>
49.33

>  <EState_VSA8>
16.89

>  <EState_VSA9>
0

>  <EState_VSA10>
4.79

>  <VSA_EState1>
2.24

>  <VSA_EState2>
24.91

>  <VSA_EState3>
0.94

>  <VSA_EState4>
3.76

>  <VSA_EState5>
0

>  <VSA_EState6>
9.96

>  <VSA_EState7>
4.36

>  <VSA_EState8>
2.11

>  <VSA_EState9>
3.96

>  <apol>
51.83

>  <bpol>
27.09

>  <nRing>
4

>  <nHRing>
3

>  <naRing>
4

>  <naHRing>
3

>  <nARing 2>
0

>  <nAHRing 2>
0

>  <nFRing>
1

>  <nFHRing>
1

>  <nFaRing>
1

>  <nFaHRing>
1

>  <nFARing 2>
0

>  <nFAHRing 2>
0

>  <nRot>
3

>  <SLogP>
3.62

>  <SMR>
104.22

>  <TopoPSA(NO)>
51.02

>  <TopoPSA>
79.26

>  <JGI1>
0.16

>  <JGI2>
0.08

>  <JGI3>
0.05

>  <JGI4>
0.04

>  <JGI5>
0.03

>  <Diameter>
13

>  <Radius>
7

>  <TMWC10>
130.27

>  <TSRW10>
74.7

>  <MW>
350.12

>  <AMW>
8.14

>  <WPath>
1473

>  <WPol>
45

>  <Zagreb1>
138

>  <Zagreb2>
169

>  <mZagreb2>
5.47

>  <yes>


>  <nAR-cont>
0.336376

>  <nHA-cont>
0.921834225

>  <MWHBN>
0.320658525

>  <MWHBN-cont>
0.774950887

>  <TPSA-cont>
0.446715982

>  <pka_cont>
0.97

>  <yes.1>


>  <BBB_SCORE>
3.79906852

>  <MMFF94 Energy>
47.152

$$$$
Compound 194
Actelion Java MolfileCreator 2.0

  0  0  0  0  0  0              0 V3000
M  V30 BEGIN CTAB
M  V30 COUNTS 50 52 0 0 0
M  V30 BEGIN ATOM
M  V30 1 S -0.9735 1.8665 1.9478 0
M  V30 2 O -0.9341 3.2456 1.4982 0
M  V30 3 O -0.3084 1.4703 3.1746 0
M  V30 4 C -2.697 1.4498 2.1203 0
M  V30 5 C -0.3954 0.8234 0.6112 0
M  V30 6 C -3.1283 0.7027 3.2198 0
M  V30 7 C -3.6087 1.9121 1.1693 0
M  V30 8 C 1.0691 1.1319 0.3034 0
M  V30 9 C -0.5643 -0.6622 0.917 0
M  V30 10 C -4.4846 0.3867 3.3529 0
M  V30 11 C -4.9611 1.591 1.3057 0
M  V30 12 C 1.6128 0.2134 -0.7883 0
M  V30 13 C 0.027 -1.5174 -0.2006 0
M  V30 14 C -5.4079 0.8182 2.3898 0
M  V30 15 N 1.4464 -1.2009 -0.4261 0
M  V30 16 C -6.8647 0.5146 2.4728 0
M  V30 17 C 1.9965 -2.1061 -1.4622 0
M  V30 18 O -7.6805 1.1078 1.7774 0
M  V30 19 N -7.2754 -0.4679 3.3284 0
M  V30 20 C 3.5381 -2.1805 -1.5072 0
M  V30 21 C 4.2276 -1.1796 -2.4021 0
M  V30 22 C 3.9677 -1.1452 -3.7782 0
M  V30 23 C 5.1787 -0.2901 -1.8782 0
M  V30 24 F 3.091 -2.0072 -4.313 0
M  V30 25 C 4.6072 -0.2407 -4.6171 0
M  V30 26 C 5.825 0.6224 -2.7143 0
M  V30 27 C 5.5311 0.6392 -4.0737 0
M  V30 28 F 6.1547 1.5159 -4.8711 0
M  V30 29 H -1.0016 1.0888 -0.2643 0
M  V30 30 H -2.4232 0.3732 3.981 0
M  V30 31 H -3.2847 2.53 0.3344 0
M  V30 32 H 1.1769 2.176 -0.0142 0
M  V30 33 H 1.6781 1.0203 1.2103 0
M  V30 34 H -0.0778 -0.915 1.8679 0
M  V30 35 H -1.6241 -0.9143 1.0325 0
M  V30 36 H -4.7973 -0.1718 4.2293 0
M  V30 37 H -5.674 1.954 0.5658 0
M  V30 38 H 1.1156 0.4352 -1.7415 0
M  V30 39 H 2.6703 0.4584 -0.9051 0
M  V30 40 H -0.5546 -1.3777 -1.1215 0
M  V30 41 H -0.0789 -2.5687 0.094 0
M  V30 42 H 1.5642 -1.8801 -2.444 0
M  V30 43 H 1.6701 -3.125 -1.2122 0
M  V30 44 H -6.6673 -1.0471 3.8847 0
M  V30 45 H -8.2699 -0.6541 3.3626 0
M  V30 46 H 3.9369 -2.1211 -0.4862 0
M  V30 47 H 3.8249 -3.1771 -1.8702 0
M  V30 48 H 5.4149 -0.2986 -0.8157 0
M  V30 49 H 4.3922 -0.2269 -5.6787 0
M  V30 50 H 6.5567 1.3181 -2.3145 0
M  V30 END ATOM
M  V30 BEGIN BOND
M  V30 1 2 1 2
M  V30 2 2 1 3
M  V30 3 1 1 4
M  V30 4 1 1 5
M  V30 5 2 4 6
M  V30 6 1 4 7
M  V30 7 1 5 8
M  V30 8 1 5 9
M  V30 9 1 6 10
M  V30 10 2 7 11
M  V30 11 1 8 12
M  V30 12 1 9 13
M  V30 13 2 10 14
M  V30 14 1 12 15
M  V30 15 1 14 16
M  V30 16 1 15 17
M  V30 17 2 16 18
M  V30 18 1 16 19
M  V30 19 1 17 20
M  V30 20 1 20 21
M  V30 21 2 21 22
M  V30 22 1 21 23
M  V30 23 1 22 24
M  V30 24 1 22 25
M  V30 25 2 23 26
M  V30 26 2 25 27
M  V30 27 1 27 28
M  V30 28 1 11 14
M  V30 29 1 13 15
M  V30 30 1 26 27
M  V30 31 1 5 29
M  V30 32 1 6 30
M  V30 33 1 7 31
M  V30 34 1 8 32
M  V30 35 1 8 33
M  V30 36 1 9 34
M  V30 37 1 9 35
M  V30 38 1 10 36
M  V30 39 1 11 37
M  V30 40 1 12 38
M  V30 41 1 12 39
M  V30 42 1 13 40
M  V30 43 1 13 41
M  V30 44 1 17 42
M  V30 45 1 17 43
M  V30 46 1 19 44
M  V30 47 1 19 45
M  V30 48 1 20 46
M  V30 49 1 20 47
M  V30 50 1 23 48
M  V30 51 1 25 49
M  V30 52 1 26 50
M  V30 END BOND
M  V30 END CTAB
M  END
>  <Column 1>
252

>  <level_0>
290

>  <index>
290

>  <Unnamed: 0>
290

>  <NO.>
291

>  <Name>
chembl148058

>  <IUPAC_name>
4-[1-[2-(2-4-difluorophenyl)ethyl]piperidin-4-yl]sulfonylbenzamide

>  <SMILES>
NC(=O)c1ccc(S(=O)(=O)C2CCN(CCc3ccc(F)cc3F)CC2)cc1

>  <CID>
9953268

>  <logBB>
-0.47

>  <BBB+/BBB->
BBB+

>  <Inchi>
InChI=1S/C20H22F2N2O3S/c21-16-4-1-14(19(22)13-16)7-10-24-11-8-18(9-12-24)28(26-27)17-5-2-15(3-6-17)20(23)25/h1-6-13-18H-7-12H2-(H2-23-25)

>  <threshold>


>  <reference>
R18|R26|R27|

>  <group>
A

>  <Class>
1

>  <ABC>
21.76

>  <ABCGG>
16.29

>  <nAcid>
0

>  <nBase>
1

>  <nAromAtom>
12

>  <nAromBond>
12

>  <nAtom>
50

>  <nHeavyAtom>
28

>  <nSpiro>
0

>  <nBridgehead>
0

>  <nHetero>
8

>  <nN>
2

>  <nO>
3

>  <nF>
2

>  <BalabanJ>
1.4

>  <BertzCT>
953.92

>  <nBonds>
52

>  <nBondsO>
30

>  <nBondsS>
37

>  <nBondsD>
3

>  <nBondsT>
0

>  <nBondsA>
12

>  <nBondsM>
15

>  <nBondsKS>
43

>  <nBondsKD>
9

>  <RNCG>
0.17

>  <RPCG>
0.12

>  <FCSP3>
0.35

>  <SZ>
35.67

>  <Sm>
34.01

>  <Sv>
32.1

>  <Sse>
51.07

>  <Sp>
33.95

>  <Si>
56.79

>  <MZ>
0.71

>  <Mm>
0.68

>  <Mv>
0.64

>  <Mse>
1.02

>  <Mp>
0.68

>  <Mi>
1.14

>  <NsCH3>
0

>  <NdCH2>
0

>  <NssCH2>
6

>  <NtCH>
0

>  <NdsCH>
0

>  <NaaCH>
7

>  <NsssCH>
1

>  <NddC>
0

>  <NtsC>
0

>  <NdssC>
1

>  <NaasC>
5

>  <NaaaC>
0

>  <NssssC>
0

>  <NsNH3>
0

>  <NsNH2>
1

>  <NssNH2>
0

>  <NdNH>
0

>  <NssNH>
0

>  <NaaNH>
0

>  <NtN>
0

>  <NsssNH>
0

>  <NdsN>
0

>  <NaaN>
0

>  <NsssN>
1

>  <NddsN>
0

>  <NaasN>
0

>  <NssssN>
0

>  <NsOH>
0

>  <NdO>
3

>  <NssO>
0

>  <NaaO>
0

>  <NsF>
2

>  <NsSiH3>
0

>  <NssSiH2>
0

>  <NsssSiH>
0

>  <NssssSi>
0

>  <NsPH2>
0

>  <NssPH>
0

>  <NsssP>
0

>  <NdsssP>
0

>  <NsssssP>
0

>  <NsSH>
0

>  <NdS>
0

>  <NssS>
0

>  <NaaS>
0

>  <NdssS>
0

>  <NddssS>
1

>  <NsCl>
0

>  <NsBr>
0

>  <NsI>
0

>  <fragCpx>
144.08

>  <fMF>
0.42

>  <nHBAcc>
4

>  <nHBDon>
1

>  <Kier1>
22.68

>  <Kier2>
9.87

>  <Lipinski>
1

>  <GhoseFilter>
1

>  <FilterItLogS>
-5.15

>  <VMcGowan>
287.42

>  <LabuteASA>
162.62

>  <PEOE_VSA1>
10.63

>  <PEOE_VSA2>
4.79

>  <PEOE_VSA3>
17.2

>  <PEOE_VSA4>
0

>  <PEOE_VSA5>
0

>  <PEOE_VSA6>
6.07

>  <PEOE_VSA7>
68.25

>  <PEOE_VSA8>
18.17

>  <PEOE_VSA9>
10.15

>  <PEOE_VSA10>
11.63

>  <PEOE_VSA11>
9.84

>  <PEOE_VSA12>
5.91

>  <PEOE_VSA13>
0

>  <SMR_VSA1>
21.99

>  <SMR_VSA2>
0

>  <SMR_VSA3>
4.9

>  <SMR_VSA4>
5.73

>  <SMR_VSA5>
29.41

>  <SMR_VSA6>
19.63

>  <SMR_VSA7>
65.23

>  <SMR_VSA8>
0

>  <SMR_VSA9>
0

>  <SlogP_VSA1>
5.73

>  <SlogP_VSA2>
44.11

>  <SlogP_VSA3>
16.26

>  <SlogP_VSA4>
11.63

>  <SlogP_VSA5>
28.76

>  <SlogP_VSA6>
47.36

>  <SlogP_VSA7>
0

>  <SlogP_VSA8>
0

>  <SlogP_VSA9>
0

>  <SlogP_VSA10>
8.78

>  <SlogP_VSA11>
0

>  <EState_VSA1>
32.63

>  <EState_VSA2>
10.46

>  <EState_VSA3>
44.46

>  <EState_VSA4>
6.07

>  <EState_VSA5>
36.4

>  <EState_VSA6>
0

>  <EState_VSA7>
0

>  <EState_VSA8>
4.9

>  <EState_VSA9>
5.73

>  <EState_VSA10>
21.99

>  <VSA_EState1>
52.31

>  <VSA_EState2>
13.4

>  <VSA_EState3>
-0.49

>  <VSA_EState4>
5.9

>  <VSA_EState5>
-1.76

>  <VSA_EState6>
9.22

>  <VSA_EState7>
1.4

>  <VSA_EState8>
1.76

>  <VSA_EState9>
-3.49

>  <apol>
56.69

>  <bpol>
32.96

>  <nRing>
3

>  <nHRing>
1

>  <naRing>
2

>  <naHRing>
0

>  <nARing 2>
1

>  <nAHRing 2>
1

>  <nFRing>
0

>  <nFHRing>
0

>  <nFaRing>
0

>  <nFaHRing>
0

>  <nFARing 2>
0

>  <nFAHRing 2>
0

>  <nRot>
6

>  <SLogP>
2.54

>  <SMR>
101.67

>  <TopoPSA(NO)>
80.47

>  <TopoPSA>
88.85

>  <JGI1>
0.25

>  <JGI2>
0.11

>  <JGI3>
0.05

>  <JGI4>
0.04

>  <JGI5>
0.04

>  <Diameter>
17

>  <Radius>
9

>  <TMWC10>
134

>  <TSRW10>
63.41

>  <MW>
408.13

>  <AMW>
8.16

>  <WPath>
2399

>  <WPol>
45

>  <Zagreb1>
146

>  <Zagreb2>
170

>  <mZagreb2>
6.06

>  <yes>


>  <nAR-cont>
0.816016

>  <nHA-cont>
0.82432561

>  <MWHBN>
0.247497459

>  <MWHBN-cont>
0.963884651

>  <TPSA-cont>
0.379771827

>  <pka_cont>
0.97

>  <yes.1>


>  <BBB_SCORE>
4.330712241

>  <MMFF94 Energy>
37.493

$$$$
Compound 195
Actelion Java MolfileCreator 2.0

  0  0  0  0  0  0              0 V3000
M  V30 BEGIN CTAB
M  V30 COUNTS 47 48 0 0 0
M  V30 BEGIN ATOM
M  V30 1 O -0.6273 -0.6273 5.4996 0
M  V30 2 C -1.4038 0.2581 5.8385 0
M  V30 3 N -2.1832 0.9783 4.9619 0
M  V30 4 C -1.6178 0.6317 7.2802 0
M  V30 5 C -2.1244 0.767 3.528 0
M  V30 6 C -2.9904 -0.4148 3.0976 0
M  V30 7 C -3.0996 -0.5187 1.5786 0
M  V30 8 O -1.7954 -0.682 1.0281 0
M  V30 9 C -1.6971 -0.7703 -0.3329 0
M  V30 10 C -0.3901 -0.901 -0.8127 0
M  V30 11 C -2.7585 -0.7419 -1.237 0
M  V30 12 C -0.1292 -0.9981 -2.1877 0
M  V30 13 C -2.5126 -0.8393 -2.6089 0
M  V30 14 C -1.207 -0.9672 -3.0817 0
M  V30 15 C 1.2899 -1.1517 -2.6933 0
M  V30 16 N 1.6954 -0.0857 -3.6252 0
M  V30 17 C 2.9431 -0.4224 -4.3261 0
M  V30 18 C 1.8014 1.2363 -2.9871 0
M  V30 19 C 4.1956 -0.3355 -3.4501 0
M  V30 20 C 3.011 1.3919 -2.0614 0
M  V30 21 C 4.3068 1.0288 -2.7784 0
M  V30 22 H -2.8122 1.6836 5.3222 0
M  V30 23 H -1.7886 1.7072 7.382 0
M  V30 24 H -0.731 0.3651 7.8617 0
M  V30 25 H -2.4841 0.0891 7.668 0
M  V30 26 H -1.0796 0.6121 3.2372 0
M  V30 27 H -2.4761 1.6922 3.059 0
M  V30 28 H -3.9959 -0.3191 3.5248 0
M  V30 29 H -2.5568 -1.3396 3.4973 0
M  V30 30 H -3.7224 -1.3864 1.3306 0
M  V30 31 H -3.5662 0.3934 1.1868 0
M  V30 32 H 0.4305 -0.9245 -0.0988 0
M  V30 33 H -3.788 -0.6462 -0.9104 0
M  V30 34 H -3.3406 -0.8142 -3.3124 0
M  V30 35 H -1.0245 -1.035 -4.1522 0
M  V30 36 H 1.3242 -2.122 -3.2073 0
M  V30 37 H 1.9833 -1.2371 -1.8485 0
M  V30 38 H 3.0563 0.2649 -5.1747 0
M  V30 39 H 2.8718 -1.422 -4.7721 0
M  V30 40 H 0.8852 1.4873 -2.4404 0
M  V30 41 H 1.8702 1.9906 -3.7823 0
M  V30 42 H 5.0855 -0.5139 -4.0644 0
M  V30 43 H 4.178 -1.122 -2.6865 0
M  V30 44 H 2.8917 0.7618 -1.1723 0
M  V30 45 H 3.069 2.4271 -1.7058 0
M  V30 46 H 5.1426 1.0328 -2.0702 0
M  V30 47 H 4.5266 1.7898 -3.5375 0
M  V30 END ATOM
M  V30 BEGIN BOND
M  V30 1 2 1 2
M  V30 2 1 2 3
M  V30 3 1 2 4
M  V30 4 1 3 5
M  V30 5 1 5 6
M  V30 6 1 6 7
M  V30 7 1 7 8
M  V30 8 1 8 9
M  V30 9 2 9 10
M  V30 10 1 9 11
M  V30 11 1 10 12
M  V30 12 2 11 13
M  V30 13 2 12 14
M  V30 14 1 12 15
M  V30 15 1 15 16
M  V30 16 1 16 17
M  V30 17 1 16 18
M  V30 18 1 17 19
M  V30 19 1 18 20
M  V30 20 1 19 21
M  V30 21 1 13 14
M  V30 22 1 20 21
M  V30 23 1 3 22
M  V30 24 1 4 23
M  V30 25 1 4 24
M  V30 26 1 4 25
M  V30 27 1 5 26
M  V30 28 1 5 27
M  V30 29 1 6 28
M  V30 30 1 6 29
M  V30 31 1 7 30
M  V30 32 1 7 31
M  V30 33 1 10 32
M  V30 34 1 11 33
M  V30 35 1 13 34
M  V30 36 1 14 35
M  V30 37 1 15 36
M  V30 38 1 15 37
M  V30 39 1 17 38
M  V30 40 1 17 39
M  V30 41 1 18 40
M  V30 42 1 18 41
M  V30 43 1 19 42
M  V30 44 1 19 43
M  V30 45 1 20 44
M  V30 46 1 20 45
M  V30 47 1 21 46
M  V30 48 1 21 47
M  V30 END BOND
M  V30 END CTAB
M  END
>  <Column 1>
253

>  <level_0>
291

>  <index>
291

>  <Unnamed: 0>
291

>  <NO.>
292

>  <Name>
skb30 (npropylacetamide33npiperidinylmethylphenoxy)

>  <IUPAC_name>
n-[3-[3-(piperidin-1-ylmethyl)phenoxy]propyl]acetamide

>  <SMILES>
CC(=O)NCCCOc1cccc(CN2CCCCC2)c1

>  <CID>
9971484

>  <logBB>
-0.46

>  <BBB+/BBB->
BBB+

>  <Inchi>
InChI=1S/C17H26N2O2/c1-15(20)18-9-6-12-21-17-8-5-7-16(13-17)14-19-10-3-2-4-11-19/h5-7-8-13H-2-4-6-9-12-14H2-1H3-(H-18-20)

>  <threshold>


>  <reference>
R2|R2|R8|R27|R40|R3|R3|R18|R21|R25|R26|R27|R27|R35|R36|R38|R38|R41|R41|R43|R46|R47|R48|R49|R49|R4|

>  <group>
A

>  <Class>
1

>  <ABC>
15.78

>  <ABCGG>
12.19

>  <nAcid>
0

>  <nBase>
1

>  <nAromAtom>
6

>  <nAromBond>
6

>  <nAtom>
47

>  <nHeavyAtom>
21

>  <nSpiro>
0

>  <nBridgehead>
0

>  <nHetero>
4

>  <nN>
2

>  <nO>
2

>  <nF>
0

>  <BalabanJ>
1.57

>  <BertzCT>
442.17

>  <nBonds>
48

>  <nBondsO>
22

>  <nBondsS>
41

>  <nBondsD>
1

>  <nBondsT>
0

>  <nBondsA>
6

>  <nBondsM>
7

>  <nBondsKS>
44

>  <nBondsKD>
4

>  <RNCG>
0.28

>  <RPCG>
0.12

>  <FCSP3>
0.59

>  <SZ>
26.33

>  <Sm>
24.18

>  <Sv>
26.99

>  <Sse>
46.53

>  <Sp>
29.66

>  <Si>
53.4

>  <MZ>
0.56

>  <Mm>
0.51

>  <Mv>
0.57

>  <Mse>
0.99

>  <Mp>
0.63

>  <Mi>
1.14

>  <NsCH3>
1

>  <NdCH2>
0

>  <NssCH2>
9

>  <NtCH>
0

>  <NdsCH>
0

>  <NaaCH>
4

>  <NsssCH>
0

>  <NddC>
0

>  <NtsC>
0

>  <NdssC>
1

>  <NaasC>
2

>  <NaaaC>
0

>  <NssssC>
0

>  <NsNH3>
0

>  <NsNH2>
0

>  <NssNH2>
0

>  <NdNH>
0

>  <NssNH>
1

>  <NaaNH>
0

>  <NtN>
0

>  <NsssNH>
0

>  <NdsN>
0

>  <NaaN>
0

>  <NsssN>
1

>  <NddsN>
0

>  <NaasN>
0

>  <NssssN>
0

>  <NsOH>
0

>  <NdO>
1

>  <NssO>
1

>  <NaaO>
0

>  <NsF>
0

>  <NsSiH3>
0

>  <NssSiH2>
0

>  <NsssSiH>
0

>  <NssssSi>
0

>  <NsPH2>
0

>  <NssPH>
0

>  <NsssP>
0

>  <NdsssP>
0

>  <NsssssP>
0

>  <NsSH>
0

>  <NdS>
0

>  <NssS>
0

>  <NaaS>
0

>  <NdssS>
0

>  <NddssS>
0

>  <NsCl>
0

>  <NsBr>
0

>  <NsI>
0

>  <fragCpx>
64.04

>  <fMF>
0.28

>  <nHBAcc>
3

>  <nHBDon>
1

>  <Kier1>
17.36

>  <Kier2>
9.9

>  <Lipinski>
1

>  <GhoseFilter>
1

>  <FilterItLogS>
-4.26

>  <VMcGowan>
243.17

>  <LabuteASA>
127.02

>  <PEOE_VSA1>
10.05

>  <PEOE_VSA2>
9.69

>  <PEOE_VSA3>
0

>  <PEOE_VSA4>
0

>  <PEOE_VSA5>
0

>  <PEOE_VSA6>
18.55

>  <PEOE_VSA7>
50.05

>  <PEOE_VSA8>
20.01

>  <PEOE_VSA9>
6.61

>  <PEOE_VSA10>
5.75

>  <PEOE_VSA11>
0

>  <PEOE_VSA12>
5.91

>  <PEOE_VSA13>
0

>  <SMR_VSA1>
9.53

>  <SMR_VSA2>
0

>  <SMR_VSA3>
10.22

>  <SMR_VSA4>
0

>  <SMR_VSA5>
39.15

>  <SMR_VSA6>
26.24

>  <SMR_VSA7>
29.83

>  <SMR_VSA8>
0

>  <SMR_VSA9>
5.75

>  <SlogP_VSA1>
10.05

>  <SlogP_VSA2>
37.05

>  <SlogP_VSA3>
11.34

>  <SlogP_VSA4>
0

>  <SlogP_VSA5>
38.17

>  <SlogP_VSA6>
24.27

>  <SlogP_VSA7>
0

>  <SlogP_VSA8>
0

>  <SlogP_VSA9>
0

>  <SlogP_VSA10>
0

>  <SlogP_VSA11>
5.75

>  <EState_VSA1>
0

>  <EState_VSA2>
5.91

>  <EState_VSA3>
13.15

>  <EState_VSA4>
18.72

>  <EState_VSA5>
44.84

>  <EState_VSA6>
0

>  <EState_VSA7>
6.07

>  <EState_VSA8>
28.42

>  <EState_VSA9>
4.74

>  <EState_VSA10>
4.79

>  <VSA_EState1>
5.75

>  <VSA_EState2>
13.27

>  <VSA_EState3>
2.77

>  <VSA_EState4>
1.32

>  <VSA_EState5>
0.94

>  <VSA_EState6>
8.35

>  <VSA_EState7>
4.84

>  <VSA_EState8>
6.27

>  <VSA_EState9>
0

>  <apol>
49.53

>  <bpol>
30.97

>  <nRing>
2

>  <nHRing>
1

>  <naRing>
1

>  <naHRing>
0

>  <nARing 2>
1

>  <nAHRing 2>
1

>  <nFRing>
0

>  <nFHRing>
0

>  <nFaRing>
0

>  <nFaHRing>
0

>  <nFARing 2>
0

>  <nFAHRing 2>
0

>  <nRot>
7

>  <SLogP>
2.58

>  <SMR>
84.37

>  <TopoPSA(NO)>
41.57

>  <TopoPSA>
41.57

>  <JGI1>
0.16

>  <JGI2>
0.03

>  <JGI3>
0.03

>  <JGI4>
0.03

>  <JGI5>
0.01

>  <Diameter>
14

>  <Radius>
7

>  <TMWC10>
112.96

>  <TSRW10>
53.62

>  <MW>
290.2

>  <AMW>
6.17

>  <WPath>
1158

>  <WPol>
24

>  <Zagreb1>
98

>  <Zagreb2>
106

>  <mZagreb2>
4.83

>  <yes>


>  <nAR-cont>
0.816016

>  <nHA-cont>
0.994529749

>  <MWHBN>
0.234807134

>  <MWHBN-cont>
0.981534626

>  <TPSA-cont>
0.709815587

>  <pka_cont>
0.97

>  <yes.1>


>  <BBB_SCORE>
5.187478862

>  <MMFF94 Energy>
-2.0621

$$$$
Compound 196
Actelion Java MolfileCreator 2.0

  0  0  0  0  0  0              0 V3000
M  V30 BEGIN CTAB
M  V30 COUNTS 48 50 0 0 0
M  V30 BEGIN ATOM
M  V30 1 S -0.1601 1.7627 4.09 0
M  V30 2 O -1.4234 2.1095 4.705 0
M  V30 3 O 1.091 1.9867 4.7807 0
M  V30 4 N -0.2168 0.1341 3.7095 0
M  V30 5 C -0.0892 2.5836 2.4989 0
M  V30 6 C -1.3988 -0.4078 3.0466 0
M  V30 7 C 1.2917 2.578 1.8562 0
M  V30 8 C 1.753 1.2176 1.395 0
M  V30 9 C 1.0985 0.5698 0.3322 0
M  V30 10 C 2.8186 0.5818 2.0403 0
M  V30 11 C 1.4894 -0.7288 -0.06 0
M  V30 12 C 3.2344 -0.6987 1.6671 0
M  V30 13 C 2.5487 -1.3273 0.6223 0
M  V30 14 C 1.0353 -1.66 -1.0557 0
M  V30 15 N 2.7424 -2.5678 0.0641 0
M  V30 16 C 1.8379 -2.7804 -0.9385 0
M  V30 17 C -0.0851 -1.5026 -2.0535 0
M  V30 18 C -1.4557 -1.3484 -1.3811 0
M  V30 19 C 0.1668 -0.3638 -3.0501 0
M  V30 20 C -2.5594 -1.17 -2.4254 0
M  V30 21 C -1.0025 -0.2238 -4.0268 0
M  V30 22 N -2.3117 -0.0817 -3.378 0
M  V30 23 C -2.4974 1.238 -2.7804 0
M  V30 24 H 0.6805 -0.2529 3.4119 0
M  V30 25 H -0.8662 2.1599 1.8565 0
M  V30 26 H -0.3752 3.6229 2.7016 0
M  V30 27 H -1.382 -1.4981 3.1349 0
M  V30 28 H -1.3966 -0.1576 1.9837 0
M  V30 29 H -2.3215 -0.0503 3.51 0
M  V30 30 H 1.2773 3.2392 0.9799 0
M  V30 31 H 2.0295 3.0153 2.54 0
M  V30 32 H 0.2818 1.0639 -0.1854 0
M  V30 33 H 3.3349 1.0775 2.863 0
M  V30 34 H 4.0606 -1.1836 2.1782 0
M  V30 35 H 3.4534 -3.2237 0.3572 0
M  V30 36 H 1.8415 -3.7111 -1.4907 0
M  V30 37 H -0.1246 -2.4329 -2.6407 0
M  V30 38 H -1.674 -2.2353 -0.7726 0
M  V30 39 H -1.4629 -0.4976 -0.6907 0
M  V30 40 H 1.0871 -0.5602 -3.6146 0
M  V30 41 H 0.3268 0.5873 -2.53 0
M  V30 42 H -3.5234 -1.022 -1.923 0
M  V30 43 H -2.6673 -2.1049 -2.9909 0
M  V30 44 H -1.0332 -1.1111 -4.6725 0
M  V30 45 H -0.8206 0.6208 -4.7029 0
M  V30 46 H -3.5129 1.3365 -2.3805 0
M  V30 47 H -2.387 2.0202 -3.5399 0
M  V30 48 H -1.7923 1.4498 -1.9705 0
M  V30 END ATOM
M  V30 BEGIN BOND
M  V30 1 2 1 2
M  V30 2 2 1 3
M  V30 3 1 1 4
M  V30 4 1 1 5
M  V30 5 1 4 6
M  V30 6 1 5 7
M  V30 7 1 7 8
M  V30 8 2 8 9
M  V30 9 1 8 10
M  V30 10 1 9 11
M  V30 11 2 10 12
M  V30 12 2 11 13
M  V30 13 1 11 14
M  V30 14 1 13 15
M  V30 15 2 14 16
M  V30 16 1 14 17
M  V30 17 1 17 18
M  V30 18 1 17 19
M  V30 19 1 18 20
M  V30 20 1 19 21
M  V30 21 1 20 22
M  V30 22 1 22 23
M  V30 23 1 12 13
M  V30 24 1 15 16
M  V30 25 1 21 22
M  V30 26 1 4 24
M  V30 27 1 5 25
M  V30 28 1 5 26
M  V30 29 1 6 27
M  V30 30 1 6 28
M  V30 31 1 6 29
M  V30 32 1 7 30
M  V30 33 1 7 31
M  V30 34 1 9 32
M  V30 35 1 10 33
M  V30 36 1 12 34
M  V30 37 1 15 35
M  V30 38 1 16 36
M  V30 39 1 17 37
M  V30 40 1 18 38
M  V30 41 1 18 39
M  V30 42 1 19 40
M  V30 43 1 19 41
M  V30 44 1 20 42
M  V30 45 1 20 43
M  V30 46 1 21 44
M  V30 47 1 21 45
M  V30 48 1 23 46
M  V30 49 1 23 47
M  V30 50 1 23 48
M  V30 END BOND
M  V30 END CTAB
M  END
>  <Column 1>
255

>  <level_0>
293

>  <index>
293

>  <Unnamed: 0>
293

>  <NO.>
294

>  <Name>
naratriptan

>  <IUPAC_name>
n-methyl-2-[3-(1-methylpiperidin-4-yl)-1h-indol-5-yl]ethanesulfonamide

>  <SMILES>
CNS(=O)(=O)CCc1ccc2[nH]cc(C3CCN(C)CC3)c2c1

>  <CID>
4440

>  <logBB>
-0.46

>  <BBB+/BBB->
BBB+

>  <Inchi>
InChI=1S/C17H25N3O2S/c1-18-23(21-22)10-7-13-3-4-17-15(11-13)16(12-19-17)14-5-8-20(2)9-6-14/h3-4-11-12-14-18-19H-5-10H2-1-2H3

>  <threshold>


>  <reference>
R18|R26|R27|R47|

>  <group>
A

>  <Class>
1

>  <ABC>
17.98

>  <ABCGG>
14.61

>  <nAcid>
0

>  <nBase>
1

>  <nAromAtom>
9

>  <nAromBond>
10

>  <nAtom>
48

>  <nHeavyAtom>
23

>  <nSpiro>
0

>  <nBridgehead>
0

>  <nHetero>
6

>  <nN>
3

>  <nO>
2

>  <nF>
0

>  <BalabanJ>
1.53

>  <BertzCT>
774.23

>  <nBonds>
50

>  <nBondsO>
25

>  <nBondsS>
38

>  <nBondsD>
2

>  <nBondsT>
0

>  <nBondsA>
10

>  <nBondsM>
12

>  <nBondsKS>
44

>  <nBondsKD>
6

>  <RNCG>
0.22

>  <RPCG>
0.13

>  <FCSP3>
0.53

>  <SZ>
30

>  <Sm>
27.93

>  <Sv>
28.66

>  <Sse>
47.83

>  <Sp>
31.65

>  <Si>
54.4

>  <MZ>
0.63

>  <Mm>
0.58

>  <Mv>
0.6

>  <Mse>
1

>  <Mp>
0.66

>  <Mi>
1.13

>  <NsCH3>
2

>  <NdCH2>
0

>  <NssCH2>
6

>  <NtCH>
0

>  <NdsCH>
0

>  <NaaCH>
4

>  <NsssCH>
1

>  <NddC>
0

>  <NtsC>
0

>  <NdssC>
0

>  <NaasC>
2

>  <NaaaC>
2

>  <NssssC>
0

>  <NsNH3>
0

>  <NsNH2>
0

>  <NssNH2>
0

>  <NdNH>
0

>  <NssNH>
1

>  <NaaNH>
1

>  <NtN>
0

>  <NsssNH>
0

>  <NdsN>
0

>  <NaaN>
0

>  <NsssN>
1

>  <NddsN>
0

>  <NaasN>
0

>  <NssssN>
0

>  <NsOH>
0

>  <NdO>
2

>  <NssO>
0

>  <NaaO>
0

>  <NsF>
0

>  <NsSiH3>
0

>  <NssSiH2>
0

>  <NsssSiH>
0

>  <NssssSi>
0

>  <NsPH2>
0

>  <NssPH>
0

>  <NsssP>
0

>  <NdsssP>
0

>  <NsssssP>
0

>  <NsSH>
0

>  <NdS>
0

>  <NssS>
0

>  <NaaS>
0

>  <NdssS>
0

>  <NddssS>
1

>  <NsCl>
0

>  <NsBr>
0

>  <NsI>
0

>  <fragCpx>
119.06

>  <fMF>
0.31

>  <nHBAcc>
3

>  <nHBDon>
2

>  <Kier1>
17.81

>  <Kier2>
7.49

>  <Lipinski>
1

>  <GhoseFilter>
1

>  <FilterItLogS>
-4.7

>  <VMcGowan>
258.64

>  <LabuteASA>
137.67

>  <PEOE_VSA1>
9.88

>  <PEOE_VSA2>
0

>  <PEOE_VSA3>
13.14

>  <PEOE_VSA4>
0

>  <PEOE_VSA5>
0

>  <PEOE_VSA6>
6.07

>  <PEOE_VSA7>
75.62

>  <PEOE_VSA8>
17.1

>  <PEOE_VSA9>
5.75

>  <PEOE_VSA10>
0

>  <PEOE_VSA11>
0

>  <PEOE_VSA12>
10.02

>  <PEOE_VSA13>
0

>  <SMR_VSA1>
8.42

>  <SMR_VSA2>
0

>  <SMR_VSA3>
14.61

>  <SMR_VSA4>
0

>  <SMR_VSA5>
25.18

>  <SMR_VSA6>
32.94

>  <SMR_VSA7>
35.52

>  <SMR_VSA8>
0

>  <SMR_VSA9>
0

>  <SlogP_VSA1>
4.72

>  <SlogP_VSA2>
51.24

>  <SlogP_VSA3>
16.44

>  <SlogP_VSA4>
0

>  <SlogP_VSA5>
29.89

>  <SlogP_VSA6>
24.4

>  <SlogP_VSA7>
0

>  <SlogP_VSA8>
10.9

>  <SlogP_VSA9>
0

>  <SlogP_VSA10>
0

>  <SlogP_VSA11>
0

>  <EState_VSA1>
10.02

>  <EState_VSA2>
5.75

>  <EState_VSA3>
12.34

>  <EState_VSA4>
24.17

>  <EState_VSA5>
30.84

>  <EState_VSA6>
0

>  <EState_VSA7>
6.07

>  <EState_VSA8>
39.98

>  <EState_VSA9>
0

>  <EState_VSA10>
8.42

>  <VSA_EState1>
25.59

>  <VSA_EState2>
5.74

>  <VSA_EState3>
1.25

>  <VSA_EState4>
3.59

>  <VSA_EState5>
0.72

>  <VSA_EState6>
6.24

>  <VSA_EState7>
5.04

>  <VSA_EState8>
2.27

>  <VSA_EState9>
0.48

>  <apol>
52.86

>  <bpol>
34.59

>  <nRing>
3

>  <nHRing>
2

>  <naRing>
2

>  <naHRing>
1

>  <nARing 2>
1

>  <nAHRing 2>
1

>  <nFRing>
1

>  <nFHRing>
1

>  <nFaRing>
1

>  <nFaHRing>
1

>  <nFARing 2>
0

>  <nFAHRing 2>
0

>  <nRot>
5

>  <SLogP>
2.07

>  <SMR>
94.32

>  <TopoPSA(NO)>
65.2

>  <TopoPSA>
73.58

>  <JGI1>
0.24

>  <JGI2>
0.09

>  <JGI3>
0.03

>  <JGI4>
0.04

>  <JGI5>
0.03

>  <Diameter>
13

>  <Radius>
7

>  <TMWC10>
122.69

>  <TSRW10>
71.42

>  <MW>
335.17

>  <AMW>
6.98

>  <WPath>
1266

>  <WPol>
34

>  <Zagreb1>
122

>  <Zagreb2>
142

>  <mZagreb2>
5

>  <yes>


>  <nAR-cont>
0.816016

>  <nHA-cont>
0.967789328

>  <MWHBN>
0.273109895

>  <MWHBN-cont>
0.912919943

>  <TPSA-cont>
0.48636591

>  <pka_cont>
0.97

>  <yes.1>


>  <BBB_SCORE>
4.610917062

>  <MMFF94 Energy>
-57.61

$$$$
Compound 197
Actelion Java MolfileCreator 2.0

  0  0  0  0  0  0              0 V3000
M  V30 BEGIN CTAB
M  V30 COUNTS 62 65 0 0 0
M  V30 BEGIN ATOM
M  V30 1 F 9.4375 -3.7508 -5.1102 0
M  V30 2 C 8.2303 -4.0524 -4.6155 0
M  V30 3 C 7.9621 -3.807 -3.2713 0
M  V30 4 C 7.2693 -4.6139 -5.4516 0
M  V30 5 C 6.7061 -4.1215 -2.7509 0
M  V30 6 C 6.0114 -4.9307 -4.938 0
M  V30 7 C 5.7289 -4.6655 -3.593 0
M  V30 8 C 4.3986 -5.0284 -3.0617 0
M  V30 9 O 4.0931 -6.2172 -3.0549 0
M  V30 10 N 3.5568 -4.0149 -2.6164 0
M  V30 11 C 3.8124 -2.5861 -2.8287 0
M  V30 12 C 2.2422 -4.3835 -2.1101 0
M  V30 13 C 2.7068 -1.5779 -2.4651 0
M  V30 14 C 1.7639 -3.3915 -1.0592 0
M  V30 15 O 2.7923 -0.4166 -2.87 0
M  V30 16 N 1.7127 -2.0352 -1.5989 0
M  V30 17 C 0.6777 -1.1743 -1.1492 0
M  V30 18 C -0.0824 -0.4448 -2.0656 0
M  V30 19 C 0.3868 -1.0654 0.215 0
M  V30 20 C -1.1194 0.3795 -1.6204 0
M  V30 21 C -0.6519 -0.2369 0.6584 0
M  V30 22 C -1.4103 0.489 -0.2592 0
M  V30 23 O -2.4485 1.3273 0.0369 0
M  V30 24 C -2.7515 1.5288 1.4174 0
M  V30 25 C -3.9112 2.5191 1.5056 0
M  V30 26 C -4.2705 2.8164 2.9646 0
M  V30 27 N -5.4849 3.6348 3.1048 0
M  V30 28 C -5.3511 5.0088 2.5963 0
M  V30 29 C -5.9729 3.6536 4.4942 0
M  V30 30 C -4.4697 5.9109 3.4639 0
M  V30 31 C -5.1178 4.4995 5.4414 0
M  V30 32 C -4.9458 5.9195 4.9129 0
M  V30 33 H 8.7361 -3.3824 -2.6395 0
M  V30 34 H 7.5092 -4.8075 -6.4924 0
M  V30 35 H 6.4983 -3.9565 -1.6971 0
M  V30 36 H 5.2583 -5.3855 -5.577 0
M  V30 37 H 4.6893 -2.3127 -2.233 0
M  V30 38 H 4.0565 -2.4434 -3.8874 0
M  V30 39 H 1.5593 -4.3962 -2.9682 0
M  V30 40 H 2.2655 -5.3937 -1.6882 0
M  V30 41 H 2.4539 -3.3811 -0.2069 0
M  V30 42 H 0.7708 -3.6938 -0.7076 0
M  V30 43 H 0.1227 -0.5058 -3.131 0
M  V30 44 H 0.9718 -1.6083 0.9518 0
M  V30 45 H -1.7022 0.9452 -2.3433 0
M  V30 46 H -0.8386 -0.1811 1.7253 0
M  V30 47 H -1.8783 1.9424 1.9364 0
M  V30 48 H -3.0468 0.5787 1.8785 0
M  V30 49 H -3.6286 3.4335 0.9717 0
M  V30 50 H -4.7777 2.1084 0.9721 0
M  V30 51 H -4.4436 1.8513 3.4586 0
M  V30 52 H -3.4112 3.2734 3.4685 0
M  V30 53 H -6.3557 5.4495 2.5413 0
M  V30 54 H -4.9875 5.0177 1.564 0
M  V30 55 H -6.056 2.6314 4.8832 0
M  V30 56 H -6.9981 4.0467 4.4943 0
M  V30 57 H -4.4898 6.9328 3.068 0
M  V30 58 H -3.4264 5.5777 3.4192 0
M  V30 59 H -4.1339 4.0355 5.5778 0
M  V30 60 H -5.5891 4.5323 6.4304 0
M  V30 61 H -4.2361 6.4711 5.5391 0
M  V30 62 H -5.9054 6.4476 4.9755 0
M  V30 END ATOM
M  V30 BEGIN BOND
M  V30 1 1 1 2
M  V30 2 2 2 3
M  V30 3 1 2 4
M  V30 4 1 3 5
M  V30 5 2 4 6
M  V30 6 2 5 7
M  V30 7 1 7 8
M  V30 8 2 8 9
M  V30 9 1 8 10
M  V30 10 1 10 11
M  V30 11 1 10 12
M  V30 12 1 11 13
M  V30 13 1 12 14
M  V30 14 2 13 15
M  V30 15 1 13 16
M  V30 16 1 16 17
M  V30 17 2 17 18
M  V30 18 1 17 19
M  V30 19 1 18 20
M  V30 20 2 19 21
M  V30 21 2 20 22
M  V30 22 1 22 23
M  V30 23 1 23 24
M  V30 24 1 24 25
M  V30 25 1 25 26
M  V30 26 1 26 27
M  V30 27 1 27 28
M  V30 28 1 27 29
M  V30 29 1 28 30
M  V30 30 1 29 31
M  V30 31 1 30 32
M  V30 32 1 6 7
M  V30 33 1 14 16
M  V30 34 1 21 22
M  V30 35 1 31 32
M  V30 36 1 3 33
M  V30 37 1 4 34
M  V30 38 1 5 35
M  V30 39 1 6 36
M  V30 40 1 11 37
M  V30 41 1 11 38
M  V30 42 1 12 39
M  V30 43 1 12 40
M  V30 44 1 14 41
M  V30 45 1 14 42
M  V30 46 1 18 43
M  V30 47 1 19 44
M  V30 48 1 20 45
M  V30 49 1 21 46
M  V30 50 1 24 47
M  V30 51 1 24 48
M  V30 52 1 25 49
M  V30 53 1 25 50
M  V30 54 1 26 51
M  V30 55 1 26 52
M  V30 56 1 28 53
M  V30 57 1 28 54
M  V30 58 1 29 55
M  V30 59 1 29 56
M  V30 60 1 30 57
M  V30 61 1 30 58
M  V30 62 1 31 59
M  V30 63 1 31 60
M  V30 64 1 32 61
M  V30 65 1 32 62
M  V30 END BOND
M  V30 END CTAB
M  END
>  <Column 1>
256

>  <level_0>
294

>  <index>
294

>  <Unnamed: 0>
294

>  <NO.>
295

>  <Name>
chembl239975

>  <IUPAC_name>
4-(4-fluorobenzoyl)-1-[4-(3-piperidin-1-ylpropoxy)phenyl]piperazin-2-one

>  <SMILES>
O=C(c1ccc(F)cc1)N1CCN(c2ccc(OCCCN3CCCCC3)cc2)C(=O)C1

>  <CID>
15986917

>  <logBB>
-0.46

>  <BBB+/BBB->
BBB+

>  <Inchi>
InChI=1S/C25H30FN3O3/c26-21-7-5-20(6-8-21)25(31)28-16-17-29(24(30)19-28)22-9-11-23(12-10-22)32-18-4-15-27-13-2-1-3-14-27/h5-12H-1-4-13-19H2

>  <threshold>


>  <reference>
R18|R26|R27|

>  <group>
A

>  <Class>
1

>  <ABC>
24.92

>  <ABCGG>
16.92

>  <nAcid>
0

>  <nBase>
1

>  <nAromAtom>
12

>  <nAromBond>
12

>  <nAtom>
62

>  <nHeavyAtom>
32

>  <nSpiro>
0

>  <nBridgehead>
0

>  <nHetero>
7

>  <nN>
3

>  <nO>
3

>  <nF>
1

>  <BalabanJ>
1.11

>  <BertzCT>
911.03

>  <nBonds>
65

>  <nBondsO>
35

>  <nBondsS>
51

>  <nBondsD>
2

>  <nBondsT>
0

>  <nBondsA>
12

>  <nBondsM>
14

>  <nBondsKS>
57

>  <nBondsKD>
8

>  <RNCG>
0.19

>  <RPCG>
0.1

>  <FCSP3>
0.44

>  <SZ>
39

>  <Sm>
36.59

>  <Sv>
38.19

>  <Sse>
62.26

>  <Sp>
40.73

>  <Si>
70.28

>  <MZ>
0.63

>  <Mm>
0.59

>  <Mv>
0.62

>  <Mse>
1

>  <Mp>
0.66

>  <Mi>
1.13

>  <NsCH3>
0

>  <NdCH2>
0

>  <NssCH2>
11

>  <NtCH>
0

>  <NdsCH>
0

>  <NaaCH>
8

>  <NsssCH>
0

>  <NddC>
0

>  <NtsC>
0

>  <NdssC>
2

>  <NaasC>
4

>  <NaaaC>
0

>  <NssssC>
0

>  <NsNH3>
0

>  <NsNH2>
0

>  <NssNH2>
0

>  <NdNH>
0

>  <NssNH>
0

>  <NaaNH>
0

>  <NtN>
0

>  <NsssNH>
0

>  <NdsN>
0

>  <NaaN>
0

>  <NsssN>
3

>  <NddsN>
0

>  <NaasN>
0

>  <NssssN>
0

>  <NsOH>
0

>  <NdO>
2

>  <NssO>
1

>  <NaaO>
0

>  <NsF>
1

>  <NsSiH3>
0

>  <NssSiH2>
0

>  <NsssSiH>
0

>  <NssssSi>
0

>  <NsPH2>
0

>  <NssPH>
0

>  <NsssP>
0

>  <NdsssP>
0

>  <NsssssP>
0

>  <NsSH>
0

>  <NdS>
0

>  <NssS>
0

>  <NaaS>
0

>  <NdssS>
0

>  <NddssS>
0

>  <NsCl>
0

>  <NsBr>
0

>  <NsI>
0

>  <fragCpx>
233.07

>  <fMF>
0.47

>  <nHBAcc>
4

>  <nHBDon>
0

>  <Kier1>
25.1

>  <Kier2>
12.63

>  <Lipinski>
1

>  <GhoseFilter>
1

>  <FilterItLogS>
-5.17

>  <VMcGowan>
334.58

>  <LabuteASA>
188.1

>  <PEOE_VSA1>
19.44

>  <PEOE_VSA2>
9.59

>  <PEOE_VSA3>
4.39

>  <PEOE_VSA4>
0

>  <PEOE_VSA5>
0

>  <PEOE_VSA6>
6.42

>  <PEOE_VSA7>
80.88

>  <PEOE_VSA8>
30.89

>  <PEOE_VSA9>
6.61

>  <PEOE_VSA10>
18.11

>  <PEOE_VSA11>
0

>  <PEOE_VSA12>
5.91

>  <PEOE_VSA13>
5.91

>  <SMR_VSA1>
18.72

>  <SMR_VSA2>
0

>  <SMR_VSA3>
9.8

>  <SMR_VSA4>
0

>  <SMR_VSA5>
25.68

>  <SMR_VSA6>
50.78

>  <SMR_VSA7>
59.91

>  <SMR_VSA8>
0

>  <SMR_VSA9>
5.75

>  <SlogP_VSA1>
9.64

>  <SlogP_VSA2>
67.49

>  <SlogP_VSA3>
4.79

>  <SlogP_VSA4>
5.82

>  <SlogP_VSA5>
36.04

>  <SlogP_VSA6>
48.53

>  <SlogP_VSA7>
0

>  <SlogP_VSA8>
0

>  <SlogP_VSA9>
0

>  <SlogP_VSA10>
10.08

>  <SlogP_VSA11>
5.75

>  <EState_VSA1>
5.82

>  <EState_VSA2>
18.36

>  <EState_VSA3>
25.26

>  <EState_VSA4>
24.4

>  <EState_VSA5>
61.52

>  <EState_VSA6>
4.9

>  <EState_VSA7>
24.27

>  <EState_VSA8>
4.9

>  <EState_VSA9>
4.74

>  <EState_VSA10>
13.98

>  <VSA_EState1>
18.95

>  <VSA_EState2>
30.96

>  <VSA_EState3>
0

>  <VSA_EState4>
1.18

>  <VSA_EState5>
0.01

>  <VSA_EState6>
12.94

>  <VSA_EState7>
4.96

>  <VSA_EState8>
5.01

>  <VSA_EState9>
0

>  <apol>
68.02

>  <bpol>
39.81

>  <nRing>
4

>  <nHRing>
2

>  <naRing>
2

>  <naHRing>
0

>  <nARing 2>
2

>  <nAHRing 2>
2

>  <nFRing>
0

>  <nFHRing>
0

>  <nFaRing>
0

>  <nFaHRing>
0

>  <nFARing 2>
0

>  <nFAHRing 2>
0

>  <nRot>
7

>  <SLogP>
3.57

>  <SMR>
121.5

>  <TopoPSA(NO)>
53.09

>  <TopoPSA>
53.09

>  <JGI1>
0.16

>  <JGI2>
0.08

>  <JGI3>
0.04

>  <JGI4>
0.03

>  <JGI5>
0.02

>  <Diameter>
21

>  <Radius>
11

>  <TMWC10>
143.46

>  <TSRW10>
67.73

>  <MW>
439.23

>  <AMW>
7.08

>  <WPath>
3746

>  <WPol>
48

>  <Zagreb1>
164

>  <Zagreb2>
189

>  <mZagreb2>
7.11

>  <yes>


>  <nAR-cont>
1

>  <nHA-cont>
0.658856097

>  <MWHBN>
0.190859593

>  <MWHBN-cont>
0.99615632

>  <TPSA-cont>
0.629398833

>  <pka_cont>
0.97

>  <yes.1>


>  <BBB_SCORE>
4.896888243

>  <MMFF94 Energy>
94.781

$$$$
Compound 198
Actelion Java MolfileCreator 2.0

  0  0  0  0  0  0              0 V3000
M  V30 BEGIN CTAB
M  V30 COUNTS 56 59 0 0 0
M  V30 BEGIN ATOM
M  V30 1 F 5.8446 -8.1737 -2.7989 0
M  V30 2 C 5.0609 -7.2869 -2.1725 0
M  V30 3 C 5.5081 -6.6882 -0.9991 0
M  V30 4 C 3.8107 -6.985 -2.6995 0
M  V30 5 C 4.6944 -5.7625 -0.3401 0
M  V30 6 C 2.9938 -6.0616 -2.0443 0
M  V30 7 C 3.4367 -5.4363 -0.8687 0
M  V30 8 C 2.5274 -4.4608 -0.2057 0
M  V30 9 O 1.3143 -4.554 -0.3523 0
M  V30 10 N 3.1263 -3.4587 0.5268 0
M  V30 11 C 2.3367 -2.461 1.2292 0
M  V30 12 C 1.818 -1.3571 0.2884 0
M  V30 13 N 1.1913 -0.2262 1.0009 0
M  V30 14 C 0.9474 0.8898 0.0503 0
M  V30 15 C -0.1124 -0.6172 1.5953 0
M  V30 16 C 0.2554 2.1061 0.7056 0
M  V30 17 C -0.8445 0.5582 2.288 0
M  V30 18 N -0.9903 1.6935 1.3701 0
M  V30 19 C -1.9583 2.6713 1.5918 0
M  V30 20 C -2.5802 3.3638 0.5257 0
M  V30 21 C -2.3562 3.0125 2.897 0
M  V30 22 O -2.2267 3.0137 -0.7615 0
M  V30 23 C -3.5638 4.3365 0.7749 0
M  V30 24 C -3.313 4.0028 3.1423 0
M  V30 25 C -2.639 3.9907 -1.7213 0
M  V30 26 O -4.2358 5.0133 -0.2124 0
M  V30 27 C -3.914 4.6678 2.0801 0
M  V30 28 C -4.095 4.3723 -1.4876 0 CFG=1
M  V30 29 C -4.5968 5.3399 -2.5591 0
M  V30 30 O -4.604 4.7427 -3.8506 0
M  V30 31 H 6.4823 -6.9547 -0.6008 0
M  V30 32 H 3.4777 -7.4708 -3.6112 0
M  V30 33 H 5.0427 -5.3316 0.5937 0
M  V30 34 H 2.0112 -5.8277 -2.4505 0
M  V30 35 H 4.1308 -3.3553 0.5328 0
M  V30 36 H 2.9864 -2.0307 1.9992 0
M  V30 37 H 1.5077 -2.9736 1.7281 0
M  V30 38 H 2.6839 -0.9811 -0.273 0
M  V30 39 H 1.1323 -1.7835 -0.4552 0
M  V30 40 H 1.905 1.2296 -0.3624 0
M  V30 41 H 0.3316 0.5423 -0.7904 0
M  V30 42 H -0.7697 -1.0337 0.8201 0
M  V30 43 H 0.0389 -1.3958 2.3505 0
M  V30 44 H 0.0939 2.8647 -0.0667 0
M  V30 45 H 0.9262 2.5525 1.4513 0
M  V30 46 H -0.2793 0.8661 3.1767 0
M  V30 47 H -1.8276 0.199 2.6165 0
M  V30 48 H -1.8994 2.5242 3.7534 0
M  V30 49 H -3.5866 4.2503 4.1645 0
M  V30 50 H -2.5019 3.5468 -2.7124 0
M  V30 51 H -1.9709 4.858 -1.6431 0
M  V30 52 H -4.6649 5.43 2.2671 0
M  V30 53 H -4.7214 3.4697 -1.4919 0
M  V30 54 H -3.9649 6.2342 -2.5971 0
M  V30 55 H -5.6105 5.6854 -2.3265 0
M  V30 56 H -5.3206 4.0838 -3.8646 0
M  V30 END ATOM
M  V30 BEGIN BOND
M  V30 1 1 1 2
M  V30 2 2 2 3
M  V30 3 1 2 4
M  V30 4 1 3 5
M  V30 5 2 4 6
M  V30 6 2 5 7
M  V30 7 1 7 8
M  V30 8 2 8 9
M  V30 9 1 8 10
M  V30 10 1 10 11
M  V30 11 1 11 12
M  V30 12 1 12 13
M  V30 13 1 13 14
M  V30 14 1 13 15
M  V30 15 1 14 16
M  V30 16 1 15 17
M  V30 17 1 16 18
M  V30 18 1 18 19
M  V30 19 2 19 20
M  V30 20 1 19 21
M  V30 21 1 20 22
M  V30 22 1 20 23
M  V30 23 2 21 24
M  V30 24 1 22 25
M  V30 25 1 23 26
M  V30 26 2 23 27
M  V30 27 1 25 28
M  V30 28 1 28 29
M  V30 29 1 29 30
M  V30 30 1 6 7
M  V30 31 1 17 18
M  V30 32 1 24 27
M  V30 33 1 26 28
M  V30 34 1 3 31
M  V30 35 1 4 32
M  V30 36 1 5 33
M  V30 37 1 6 34
M  V30 38 1 10 35
M  V30 39 1 11 36
M  V30 40 1 11 37
M  V30 41 1 12 38
M  V30 42 1 12 39
M  V30 43 1 14 40
M  V30 44 1 14 41
M  V30 45 1 15 42
M  V30 46 1 15 43
M  V30 47 1 16 44
M  V30 48 1 16 45
M  V30 49 1 17 46
M  V30 50 1 17 47
M  V30 51 1 21 48
M  V30 52 1 24 49
M  V30 53 1 25 50
M  V30 54 1 25 51
M  V30 55 1 27 52
M  V30 56 1 28 53
M  V30 57 1 29 54
M  V30 58 1 29 55
M  V30 59 1 30 56
M  V30 END BOND
M  V30 BEGIN COLLECTION
M  V30 MDLV30/STERAC1 ATOMS=(1 28)
M  V30 END COLLECTION
M  V30 END CTAB
M  END
>  <Column 1>
257

>  <level_0>
295

>  <index>
295

>  <Unnamed: 0>
295

>  <NO.>
296

>  <Name>
flesinoxan

>  <IUPAC_name>
4-fluoro-n-[2-[4-[2-(hydroxymethyl)-2-3-dihydro-1-4-benzodioxin-5-yl]piperazin-1-yl]ethyl]benzamide

>  <SMILES>
O=C(NCCN1CCN(c2cccc3c2OCC(CO)O3)CC1)c1ccc(F)cc1

>  <CID>
9844747

>  <logBB>
-0.45

>  <BBB+/BBB->
BBB+

>  <Inchi>
InChI=1S/C22H26FN3O4/c23-17-6-4-16(5-7-17)22(28)24-8-9-25-10-12-26(13-11-25)19-2-1-3-20-21(19)29-15-18(14-27)30-20/h1-7-18-27H-8-15H2-(H-24-28)

>  <threshold>


>  <reference>
R27|R43|R46|R47|R2|R2|R27|R25|R40|

>  <group>
A

>  <Class>
1

>  <ABC>
23.39

>  <ABCGG>
16.24

>  <nAcid>
0

>  <nBase>
1

>  <nAromAtom>
12

>  <nAromBond>
12

>  <nAtom>
56

>  <nHeavyAtom>
30

>  <nSpiro>
0

>  <nBridgehead>
0

>  <nHetero>
8

>  <nN>
3

>  <nO>
4

>  <nF>
1

>  <BalabanJ>
1.15

>  <BertzCT>
869.19

>  <nBonds>
59

>  <nBondsO>
33

>  <nBondsS>
46

>  <nBondsD>
1

>  <nBondsT>
0

>  <nBondsA>
12

>  <nBondsM>
13

>  <nBondsKS>
52

>  <nBondsKD>
7

>  <RNCG>
0.16

>  <RPCG>
0.08

>  <FCSP3>
0.41

>  <SZ>
36.67

>  <Sm>
34.59

>  <Sv>
34.82

>  <Sse>
56.81

>  <Sp>
36.61

>  <Si>
63.66

>  <MZ>
0.65

>  <Mm>
0.62

>  <Mv>
0.62

>  <Mse>
1.01

>  <Mp>
0.65

>  <Mi>
1.14

>  <NsCH3>
0

>  <NdCH2>
0

>  <NssCH2>
8

>  <NtCH>
0

>  <NdsCH>
0

>  <NaaCH>
7

>  <NsssCH>
1

>  <NddC>
0

>  <NtsC>
0

>  <NdssC>
1

>  <NaasC>
5

>  <NaaaC>
0

>  <NssssC>
0

>  <NsNH3>
0

>  <NsNH2>
0

>  <NssNH2>
0

>  <NdNH>
0

>  <NssNH>
1

>  <NaaNH>
0

>  <NtN>
0

>  <NsssNH>
0

>  <NdsN>
0

>  <NaaN>
0

>  <NsssN>
2

>  <NddsN>
0

>  <NaasN>
0

>  <NssssN>
0

>  <NsOH>
1

>  <NdO>
1

>  <NssO>
2

>  <NaaO>
0

>  <NsF>
1

>  <NsSiH3>
0

>  <NssSiH2>
0

>  <NsssSiH>
0

>  <NssssSi>
0

>  <NsPH2>
0

>  <NssPH>
0

>  <NsssP>
0

>  <NdsssP>
0

>  <NsssssP>
0

>  <NsSH>
0

>  <NdS>
0

>  <NssS>
0

>  <NaaS>
0

>  <NdssS>
0

>  <NddssS>
0

>  <NsCl>
0

>  <NsBr>
0

>  <NsI>
0

>  <fragCpx>
219.08

>  <fMF>
0.46

>  <nHBAcc>
6

>  <nHBDon>
2

>  <Kier1>
23.17

>  <Kier2>
11.23

>  <Lipinski>
1

>  <GhoseFilter>
1

>  <FilterItLogS>
-4.27

>  <VMcGowan>
302.48

>  <LabuteASA>
174.54

>  <PEOE_VSA1>
24.8

>  <PEOE_VSA2>
9.69

>  <PEOE_VSA3>
4.39

>  <PEOE_VSA4>
0

>  <PEOE_VSA5>
0

>  <PEOE_VSA6>
6.07

>  <PEOE_VSA7>
36.4

>  <PEOE_VSA8>
44.83

>  <PEOE_VSA9>
12.29

>  <PEOE_VSA10>
12.42

>  <PEOE_VSA11>
17.6

>  <PEOE_VSA12>
0

>  <PEOE_VSA13>
5.91

>  <SMR_VSA1>
23.77

>  <SMR_VSA2>
0

>  <SMR_VSA3>
10.22

>  <SMR_VSA4>
0

>  <SMR_VSA5>
6.1

>  <SMR_VSA6>
57.38

>  <SMR_VSA7>
53.85

>  <SMR_VSA8>
0

>  <SMR_VSA9>
11.5

>  <SlogP_VSA1>
19.69

>  <SlogP_VSA2>
74.5

>  <SlogP_VSA3>
0

>  <SlogP_VSA4>
5.82

>  <SlogP_VSA5>
10.36

>  <SlogP_VSA6>
42.46

>  <SlogP_VSA7>
0

>  <SlogP_VSA8>
0

>  <SlogP_VSA9>
0

>  <SlogP_VSA10>
10.08

>  <SlogP_VSA11>
11.5

>  <EState_VSA1>
0

>  <EState_VSA2>
24.44

>  <EState_VSA3>
24.46

>  <EState_VSA4>
44.16

>  <EState_VSA5>
24.27

>  <EState_VSA6>
0

>  <EState_VSA7>
18.2

>  <EState_VSA8>
15.12

>  <EState_VSA9>
9.47

>  <EState_VSA10>
14.29

>  <VSA_EState1>
24.61

>  <VSA_EState2>
16.69

>  <VSA_EState3>
12.17

>  <VSA_EState4>
1.47

>  <VSA_EState5>
0.86

>  <VSA_EState6>
11.37

>  <VSA_EState7>
-0.32

>  <VSA_EState8>
4.99

>  <VSA_EState9>
0

>  <apol>
61.14

>  <bpol>
35.53

>  <nRing>
4

>  <nHRing>
2

>  <naRing>
2

>  <naHRing>
0

>  <nARing 2>
2

>  <nAHRing 2>
2

>  <nFRing>
1

>  <nFHRing>
1

>  <nFaRing>
0

>  <nFaHRing>
0

>  <nFARing 2>
1

>  <nFAHRing 2>
1

>  <nRot>
6

>  <SLogP>
1.51

>  <SMR>
110.83

>  <TopoPSA(NO)>
74.27

>  <TopoPSA>
74.27

>  <JGI1>
0.17

>  <JGI2>
0.08

>  <JGI3>
0.03

>  <JGI4>
0.03

>  <JGI5>
0.02

>  <Diameter>
19

>  <Radius>
10

>  <TMWC10>
139.49

>  <TSRW10>
65.61

>  <MW>
415.19

>  <AMW>
7.41

>  <WPath>
3002

>  <WPol>
47

>  <Zagreb1>
156

>  <Zagreb2>
182

>  <mZagreb2>
6.69

>  <yes>


>  <nAR-cont>
1

>  <nHA-cont>
0.74523694

>  <MWHBN>
0.39261469

>  <MWHBN-cont>
0.505157415

>  <TPSA-cont>
0.481549281

>  <pka_cont>
0.97

>  <yes.1>


>  <BBB_SCORE>
3.951071624

>  <MMFF94 Energy>
181.07

$$$$
Compound 199
Actelion Java MolfileCreator 2.0

  0  0  0  0  0  0              0 V3000
M  V30 BEGIN CTAB
M  V30 COUNTS 23 23 0 0 0
M  V30 BEGIN ATOM
M  V30 1 O 1.1791 -1.3364 -0.9432 0
M  V30 2 C 0.6739 -0.2869 -0.5511 0
M  V30 3 N 0.3528 0.7518 -1.3951 0
M  V30 4 C 0.3383 -0.1353 0.8924 0
M  V30 5 C 0.5712 0.648 -2.8309 0
M  V30 6 C 0.2262 -1.2794 1.6989 0
M  V30 7 C 0.1512 1.1263 1.4776 0
M  V30 8 C -0.6494 0.1432 -3.5889 0
M  V30 9 O 0.4295 -2.5513 1.2304 0
M  V30 10 C -0.1048 -1.1702 3.0484 0
M  V30 11 C -0.1748 1.2334 2.8335 0
M  V30 12 O -0.6876 -0.1156 -4.7823 0
M  V30 13 O -1.7747 0.0629 -2.8462 0
M  V30 14 C -0.3089 0.0867 3.6151 0
M  V30 15 H -0.2479 1.4974 -1.0738 0
M  V30 16 H 1.4087 -0.026 -3.0318 0
M  V30 17 H 0.8038 1.6542 -3.191 0
M  V30 18 H 0.2784 2.0407 0.9068 0
M  V30 19 H 0.7871 -2.4799 0.3165 0
M  V30 20 H -0.1955 -2.0663 3.6569 0
M  V30 21 H -0.3174 2.2134 3.2835 0
M  V30 22 H -2.4431 -0.2911 -3.4696 0
M  V30 23 H -0.5618 0.1704 4.6693 0
M  V30 END ATOM
M  V30 BEGIN BOND
M  V30 1 2 1 2
M  V30 2 1 2 3
M  V30 3 1 2 4
M  V30 4 1 3 5
M  V30 5 2 4 6
M  V30 6 1 4 7
M  V30 7 1 5 8
M  V30 8 1 6 9
M  V30 9 1 6 10
M  V30 10 2 7 11
M  V30 11 2 8 12
M  V30 12 1 8 13
M  V30 13 2 10 14
M  V30 14 1 11 14
M  V30 15 1 3 15
M  V30 16 1 5 16
M  V30 17 1 5 17
M  V30 18 1 7 18
M  V30 19 1 9 19
M  V30 20 1 10 20
M  V30 21 1 11 21
M  V30 22 1 13 22
M  V30 23 1 14 23
M  V30 END BOND
M  V30 END CTAB
M  END
>  <Column 1>
258

>  <level_0>
297

>  <index>
297

>  <Unnamed: 0>
297

>  <NO.>
298

>  <Name>
salicyluric acid (salicylurate)

>  <IUPAC_name>
2-[(2-hydroxybenzoyl)amino]acetic acid

>  <SMILES>
O=C(O)CNC(=O)c1ccccc1O

>  <CID>
10253

>  <logBB>
-0.44

>  <BBB+/BBB->
BBB+

>  <Inchi>
InChI=1S/C9H9NO4/c11-7-4-2-1-3-6(7)9(14)10-5-8(12)13/h1-4-11H-5H2-(H-10-14)(H-12-13)

>  <threshold>


>  <reference>
R2|R2|R8|R11|R12|R18|R21|R25|R26|R27|R27|R27|R35|R36|R39|R43|R46|R47|R40|

>  <group>
A

>  <Class>
1

>  <ABC>
10.26

>  <ABCGG>
9.51

>  <nAcid>
1

>  <nBase>
0

>  <nAromAtom>
6

>  <nAromBond>
6

>  <nAtom>
23

>  <nHeavyAtom>
14

>  <nSpiro>
0

>  <nBridgehead>
0

>  <nHetero>
5

>  <nN>
1

>  <nO>
4

>  <nF>
0

>  <BalabanJ>
2.3

>  <BertzCT>
361.58

>  <nBonds>
23

>  <nBondsO>
14

>  <nBondsS>
15

>  <nBondsD>
2

>  <nBondsT>
0

>  <nBondsA>
6

>  <nBondsM>
8

>  <nBondsKS>
18

>  <nBondsKD>
5

>  <RNCG>
0.25

>  <RPCG>
0.16

>  <FCSP3>
0.11

>  <SZ>
17

>  <Sm>
16.25

>  <Sv>
15.06

>  <Sse>
23.98

>  <Sp>
15.17

>  <Si>
26

>  <MZ>
0.74

>  <Mm>
0.71

>  <Mv>
0.65

>  <Mse>
1.04

>  <Mp>
0.66

>  <Mi>
1.13

>  <NsCH3>
0

>  <NdCH2>
0

>  <NssCH2>
1

>  <NtCH>
0

>  <NdsCH>
0

>  <NaaCH>
4

>  <NsssCH>
0

>  <NddC>
0

>  <NtsC>
0

>  <NdssC>
2

>  <NaasC>
2

>  <NaaaC>
0

>  <NssssC>
0

>  <NsNH3>
0

>  <NsNH2>
0

>  <NssNH2>
0

>  <NdNH>
0

>  <NssNH>
1

>  <NaaNH>
0

>  <NtN>
0

>  <NsssNH>
0

>  <NdsN>
0

>  <NaaN>
0

>  <NsssN>
0

>  <NddsN>
0

>  <NaasN>
0

>  <NssssN>
0

>  <NsOH>
2

>  <NdO>
2

>  <NssO>
0

>  <NaaO>
0

>  <NsF>
0

>  <NsSiH3>
0

>  <NssSiH2>
0

>  <NsssSiH>
0

>  <NssssSi>
0

>  <NsPH2>
0

>  <NssPH>
0

>  <NsssP>
0

>  <NdsssP>
0

>  <NsssssP>
0

>  <NsSH>
0

>  <NdS>
0

>  <NssS>
0

>  <NaaS>
0

>  <NdssS>
0

>  <NddssS>
0

>  <NsCl>
0

>  <NsBr>
0

>  <NsI>
0

>  <fragCpx>
14.05

>  <fMF>
0.26

>  <nHBAcc>
3

>  <nHBDon>
3

>  <Kier1>
12.07

>  <Kier2>
5.78

>  <Lipinski>
1

>  <GhoseFilter>
1

>  <FilterItLogS>
-1

>  <VMcGowan>
138.77

>  <LabuteASA>
79.99

>  <PEOE_VSA1>
15.53

>  <PEOE_VSA2>
9.59

>  <PEOE_VSA3>
0

>  <PEOE_VSA4>
0

>  <PEOE_VSA5>
0

>  <PEOE_VSA6>
12.13

>  <PEOE_VSA7>
12.13

>  <PEOE_VSA8>
0

>  <PEOE_VSA9>
5.56

>  <PEOE_VSA10>
12.29

>  <PEOE_VSA11>
0

>  <PEOE_VSA12>
0

>  <PEOE_VSA13>
5.91

>  <SMR_VSA1>
19.8

>  <SMR_VSA2>
0

>  <SMR_VSA3>
5.32

>  <SMR_VSA4>
0

>  <SMR_VSA5>
0

>  <SMR_VSA6>
6.54

>  <SMR_VSA7>
29.83

>  <SMR_VSA8>
0

>  <SMR_VSA9>
5.75

>  <SlogP_VSA1>
5.32

>  <SlogP_VSA2>
28.63

>  <SlogP_VSA3>
4.79

>  <SlogP_VSA4>
0

>  <SlogP_VSA5>
10.36

>  <SlogP_VSA6>
24.27

>  <SlogP_VSA7>
0

>  <SlogP_VSA8>
0

>  <SlogP_VSA9>
0

>  <SlogP_VSA10>
0

>  <SlogP_VSA11>
5.75

>  <EState_VSA1>
18.42

>  <EState_VSA2>
11.31

>  <EState_VSA3>
0

>  <EState_VSA4>
0

>  <EState_VSA5>
12.13

>  <EState_VSA6>
12.13

>  <EState_VSA7>
0

>  <EState_VSA8>
5.32

>  <EState_VSA9>
5.11

>  <EState_VSA10>
14.7

>  <VSA_EState1>
0

>  <VSA_EState2>
21.38

>  <VSA_EState3>
19.68

>  <VSA_EState4>
0.06

>  <VSA_EState5>
-1.91

>  <VSA_EState6>
5.92

>  <VSA_EState7>
0

>  <VSA_EState8>
-0.47

>  <VSA_EState9>
0

>  <apol>
25.34

>  <bpol>
11.33

>  <nRing>
1

>  <nHRing>
0

>  <naRing>
1

>  <naHRing>
0

>  <nARing 2>
0

>  <nAHRing 2>
0

>  <nFRing>
0

>  <nFHRing>
0

>  <nFaRing>
0

>  <nFaHRing>
0

>  <nFARing 2>
0

>  <nFAHRing 2>
0

>  <nRot>
3

>  <SLogP>
0.21

>  <SMR>
48.08

>  <TopoPSA(NO)>
86.63

>  <TopoPSA>
86.63

>  <JGI1>
0.21

>  <JGI2>
0.1

>  <JGI3>
0.06

>  <JGI4>
0.04

>  <JGI5>
0.02

>  <Diameter>
8

>  <Radius>
4

>  <TMWC10>
94.66

>  <TSRW10>
44.77

>  <MW>
195.05

>  <AMW>
8.48

>  <WPath>
325

>  <WPol>
17

>  <Zagreb1>
64

>  <Zagreb2>
70

>  <mZagreb2>
3.22

>  <yes>


>  <nAR-cont>
0.336376

>  <nHA-cont>
0.887625254

>  <MWHBN>
0.429613849

>  <MWHBN-cont>
0.361175726

>  <TPSA-cont>
0.395268806

>  <pka_cont>
0.97

>  <yes.1>


>  <BBB_SCORE>
3.041302455

>  <MMFF94 Energy>
13.507

$$$$
Compound 200
Actelion Java MolfileCreator 2.0

  0  0  0  0  0  0              0 V3000
M  V30 BEGIN CTAB
M  V30 COUNTS 44 45 0 0 0
M  V30 BEGIN ATOM
M  V30 1 O 5.6538 -2.8238 0.9405 0
M  V30 2 C 4.4744 -2.6855 0.6611 0
M  V30 3 N 3.4467 -3.5525 1.003 0
M  V30 4 C 3.8532 -1.5266 -0.1309 0
M  V30 5 C 2.2252 -3.0982 0.5285 0
M  V30 6 C 2.4023 -1.9012 -0.1558 0
M  V30 7 C 0.9877 -3.6849 0.6784 0
M  V30 8 C 1.3227 -1.2487 -0.7217 0
M  V30 9 O 0.8744 -4.8563 1.3617 0
M  V30 10 C -0.1144 -3.0418 0.1168 0
M  V30 11 C 0.045 -1.8231 -0.5891 0
M  V30 12 C -1.1634 -1.1287 -1.1814 0
M  V30 13 C -1.739 -0.0195 -0.2782 0
M  V30 14 N -0.9059 1.1941 -0.1676 0
M  V30 15 C -1.3224 2.0489 0.9571 0
M  V30 16 C -0.8003 1.9623 -1.4213 0
M  V30 17 C -0.8289 1.5028 2.3035 0
M  V30 18 C -2.1021 2.5646 -1.9684 0
M  V30 19 C -1.1833 2.4463 3.4439 0
M  V30 20 C -1.8414 3.3813 -3.2266 0
M  V30 21 H 3.5655 -4.4039 1.5313 0
M  V30 22 H 4.0152 -0.588 0.4048 0
M  V30 23 H 4.2776 -1.5013 -1.1375 0
M  V30 24 H 1.4579 -0.3059 -1.2436 0
M  V30 25 H -0.0609 -5.1167 1.3734 0
M  V30 26 H -1.1072 -3.471 0.2188 0
M  V30 27 H -1.9499 -1.8776 -1.3444 0
M  V30 28 H -0.9214 -0.7567 -2.1831 0
M  V30 29 H -2.7434 0.2406 -0.6322 0
M  V30 30 H -1.8863 -0.4642 0.7127 0
M  V30 31 H -2.412 2.1785 0.9725 0
M  V30 32 H -0.8875 3.0503 0.8402 0
M  V30 33 H -0.3411 1.3377 -2.1955 0
M  V30 34 H -0.0734 2.7709 -1.2648 0
M  V30 35 H -1.2676 0.5232 2.5182 0
M  V30 36 H 0.2594 1.371 2.2749 0
M  V30 37 H -2.8195 1.7749 -2.2138 0
M  V30 38 H -2.5708 3.2144 -1.2214 0
M  V30 39 H -0.8235 2.0423 4.3953 0
M  V30 40 H -0.7245 3.4293 3.298 0
M  V30 41 H -2.2672 2.5798 3.5193 0
M  V30 42 H -2.7782 3.801 -3.6063 0
M  V30 43 H -1.1567 4.2103 -3.0214 0
M  V30 44 H -1.4038 2.7596 -4.014 0
M  V30 END ATOM
M  V30 BEGIN BOND
M  V30 1 2 1 2
M  V30 2 1 2 3
M  V30 3 1 2 4
M  V30 4 1 3 5
M  V30 5 1 4 6
M  V30 6 1 5 7
M  V30 7 1 6 8
M  V30 8 1 7 9
M  V30 9 2 7 10
M  V30 10 2 8 11
M  V30 11 1 11 12
M  V30 12 1 12 13
M  V30 13 1 13 14
M  V30 14 1 14 15
M  V30 15 1 14 16
M  V30 16 1 15 17
M  V30 17 1 16 18
M  V30 18 1 17 19
M  V30 19 1 18 20
M  V30 20 2 5 6
M  V30 21 1 10 11
M  V30 22 1 3 21
M  V30 23 1 4 22
M  V30 24 1 4 23
M  V30 25 1 8 24
M  V30 26 1 9 25
M  V30 27 1 10 26
M  V30 28 1 12 27
M  V30 29 1 12 28
M  V30 30 1 13 29
M  V30 31 1 13 30
M  V30 32 1 15 31
M  V30 33 1 15 32
M  V30 34 1 16 33
M  V30 35 1 16 34
M  V30 36 1 17 35
M  V30 37 1 17 36
M  V30 38 1 18 37
M  V30 39 1 18 38
M  V30 40 1 19 39
M  V30 41 1 19 40
M  V30 42 1 19 41
M  V30 43 1 20 42
M  V30 44 1 20 43
M  V30 45 1 20 44
M  V30 END BOND
M  V30 END CTAB
M  END
>  <Column 1>
259

>  <level_0>
298

>  <index>
298

>  <Unnamed: 0>
298

>  <NO.>
299

>  <Name>
-

>  <IUPAC_name>


>  <SMILES>
CCCN(CCC)CCc1cc(O)c2c(c1)CC(=O)N2

>  <CID>


>  <logBB>
-0.43

>  <BBB+/BBB->
BBB+

>  <Inchi>
InChI=1S/C16H24N2O2/c1-3-6-18(7-4-2)8-5-12-9-13-11-15(20)17-16(13)14(19)10-12/h9-10-19H-3-8-11H2-1-2H3-(H-17-20)

>  <threshold>


>  <reference>
R2|R2|R8|R27|R48|

>  <group>
A

>  <Class>
1

>  <ABC>
14.99

>  <ABCGG>
12.97

>  <nAcid>
0

>  <nBase>
1

>  <nAromAtom>
6

>  <nAromBond>
6

>  <nAtom>
44

>  <nHeavyAtom>
20

>  <nSpiro>
0

>  <nBridgehead>
0

>  <nHetero>
4

>  <nN>
2

>  <nO>
2

>  <nF>
0

>  <BalabanJ>
1.78

>  <BertzCT>
479.61

>  <nBonds>
45

>  <nBondsO>
21

>  <nBondsS>
38

>  <nBondsD>
1

>  <nBondsT>
0

>  <nBondsA>
6

>  <nBondsM>
7

>  <nBondsKS>
41

>  <nBondsKD>
4

>  <RNCG>
0.29

>  <RPCG>
0.17

>  <FCSP3>
0.56

>  <SZ>
25

>  <Sm>
23.01

>  <Sv>
25.45

>  <Sse>
43.64

>  <Sp>
27.86

>  <Si>
49.98

>  <MZ>
0.57

>  <Mm>
0.52

>  <Mv>
0.58

>  <Mse>
0.99

>  <Mp>
0.63

>  <Mi>
1.14

>  <NsCH3>
2

>  <NdCH2>
0

>  <NssCH2>
7

>  <NtCH>
0

>  <NdsCH>
0

>  <NaaCH>
2

>  <NsssCH>
0

>  <NddC>
0

>  <NtsC>
0

>  <NdssC>
1

>  <NaasC>
4

>  <NaaaC>
0

>  <NssssC>
0

>  <NsNH3>
0

>  <NsNH2>
0

>  <NssNH2>
0

>  <NdNH>
0

>  <NssNH>
1

>  <NaaNH>
0

>  <NtN>
0

>  <NsssNH>
0

>  <NdsN>
0

>  <NaaN>
0

>  <NsssN>
1

>  <NddsN>
0

>  <NaasN>
0

>  <NssssN>
0

>  <NsOH>
1

>  <NdO>
1

>  <NssO>
0

>  <NaaO>
0

>  <NsF>
0

>  <NsSiH3>
0

>  <NssSiH2>
0

>  <NsssSiH>
0

>  <NssssSi>
0

>  <NsPH2>
0

>  <NssPH>
0

>  <NsssP>
0

>  <NdsssP>
0

>  <NsssssP>
0

>  <NsSH>
0

>  <NdS>
0

>  <NssS>
0

>  <NaaS>
0

>  <NdssS>
0

>  <NddssS>
0

>  <NsCl>
0

>  <NsBr>
0

>  <NsI>
0

>  <fragCpx>
61.04

>  <fMF>
0.2

>  <nHBAcc>
3

>  <nHBDon>
2

>  <Kier1>
16.37

>  <Kier2>
7.85

>  <Lipinski>
1

>  <GhoseFilter>
1

>  <FilterItLogS>
-4.55

>  <VMcGowan>
229.08

>  <LabuteASA>
120.34

>  <PEOE_VSA1>
15.32

>  <PEOE_VSA2>
4.79

>  <PEOE_VSA3>
0

>  <PEOE_VSA4>
0

>  <PEOE_VSA5>
0

>  <PEOE_VSA6>
19.91

>  <PEOE_VSA7>
49.55

>  <PEOE_VSA8>
6.54

>  <PEOE_VSA9>
12.11

>  <PEOE_VSA10>
5.75

>  <PEOE_VSA11>
0

>  <PEOE_VSA12>
5.91

>  <PEOE_VSA13>
0

>  <SMR_VSA1>
9.9

>  <SMR_VSA2>
0

>  <SMR_VSA3>
4.9

>  <SMR_VSA4>
0

>  <SMR_VSA5>
39.53

>  <SMR_VSA6>
24.95

>  <SMR_VSA7>
23.26

>  <SMR_VSA8>
0

>  <SMR_VSA9>
5.75

>  <SlogP_VSA1>
5.32

>  <SlogP_VSA2>
35.55

>  <SlogP_VSA3>
17.64

>  <SlogP_VSA4>
0

>  <SlogP_VSA5>
37.82

>  <SlogP_VSA6>
12.13

>  <SlogP_VSA7>
0

>  <SlogP_VSA8>
0

>  <SlogP_VSA9>
0

>  <SlogP_VSA10>
5.69

>  <SlogP_VSA11>
5.75

>  <EState_VSA1>
0

>  <EState_VSA2>
11.66

>  <EState_VSA3>
12.11

>  <EState_VSA4>
50.02

>  <EState_VSA5>
0

>  <EState_VSA6>
6.07

>  <EState_VSA7>
6.07

>  <EState_VSA8>
24.06

>  <EState_VSA9>
0

>  <EState_VSA10>
9.9

>  <VSA_EState1>
0

>  <VSA_EState2>
13.82

>  <VSA_EState3>
12.67

>  <VSA_EState4>
2.62

>  <VSA_EState5>
0.16

>  <VSA_EState6>
3.82

>  <VSA_EState7>
3.61

>  <VSA_EState8>
7.62

>  <VSA_EState9>
0

>  <apol>
46.53

>  <bpol>
27.22

>  <nRing>
2

>  <nHRing>
1

>  <naRing>
1

>  <naHRing>
0

>  <nARing 2>
1

>  <nAHRing 2>
1

>  <nFRing>
1

>  <nFHRing>
1

>  <nFaRing>
0

>  <nFaHRing>
0

>  <nFARing 2>
1

>  <nFAHRing 2>
1

>  <nRot>
7

>  <SLogP>
2.55

>  <SMR>
81.17

>  <TopoPSA(NO)>
52.57

>  <TopoPSA>
52.57

>  <JGI1>
0.21

>  <JGI2>
0.06

>  <JGI3>
0.05

>  <JGI4>
0.04

>  <JGI5>
0.02

>  <Diameter>
11

>  <Radius>
6

>  <TMWC10>
113.15

>  <TSRW10>
67.05

>  <MW>
276.18

>  <AMW>
6.28

>  <WPath>
889

>  <WPol>
27

>  <Zagreb1>
98

>  <Zagreb2>
112

>  <mZagreb2>
4.64

>  <yes>


>  <nAR-cont>
0.816016

>  <nHA-cont>
0.999629945

>  <MWHBN>
0.30086654

>  <MWHBN-cont>
0.838142032

>  <TPSA-cont>
0.633028756

>  <pka_cont>
0.97

>  <yes.1>


>  <BBB_SCORE>
4.823916505

>  <MMFF94 Energy>
31.035

$$$$
Compound 201
Actelion Java MolfileCreator 2.0

  0  0  0  0  0  0              0 V3000
M  V30 BEGIN CTAB
M  V30 COUNTS 44 45 0 0 0
M  V30 BEGIN ATOM
M  V30 1 O 0.5486 -4.9463 2.039 0
M  V30 2 C -0.0724 -4.2247 1.2768 0
M  V30 3 N -1.2994 -4.5273 0.7015 0
M  V30 4 C 0.3425 -2.8374 0.7854 0
M  V30 5 C -1.7402 -3.4934 -0.1159 0
M  V30 6 C -0.8034 -2.4565 -0.1075 0
M  V30 7 C -2.9049 -3.4155 -0.8529 0
M  V30 8 C -1.0085 -1.2991 -0.8508 0
M  V30 9 O -3.8373 -4.4042 -0.8857 0
M  V30 10 C -3.1358 -2.2649 -1.5988 0
M  V30 11 C -2.198 -1.2159 -1.597 0
M  V30 12 C -0.0261 -0.1551 -0.8499 0
M  V30 13 C -0.3289 0.8565 0.2656 0
M  V30 14 N 0.6342 1.9773 0.2177 0
M  V30 15 C 1.5345 1.9854 1.387 0
M  V30 16 C -0.0533 3.2779 0.1047 0
M  V30 17 C 2.4938 0.7887 1.4104 0
M  V30 18 C -0.695 3.5139 -1.2711 0
M  V30 19 C 3.4725 0.888 2.5716 0
M  V30 20 C 0.3224 3.5471 -2.4035 0
M  V30 21 H -1.7653 -5.3993 0.8913 0
M  V30 22 H 0.4262 -2.1609 1.6393 0
M  V30 23 H 1.2793 -2.9121 0.2278 0
M  V30 24 H -3.5158 -5.1386 -0.3404 0
M  V30 25 H -4.0453 -2.1756 -2.1874 0
M  V30 26 H -2.4076 -0.3271 -2.1908 0
M  V30 27 H -0.0597 0.341 -1.8283 0
M  V30 28 H 0.9926 -0.5487 -0.754 0
M  V30 29 H -1.3629 1.2085 0.1529 0
M  V30 30 H -0.32 0.357 1.2434 0
M  V30 31 H 0.9578 2.0297 2.3204 0
M  V30 32 H 2.1539 2.8914 1.3546 0
M  V30 33 H 0.6658 4.0928 0.2615 0
M  V30 34 H -0.8132 3.3814 0.8904 0
M  V30 35 H 1.9424 -0.1519 1.5055 0
M  V30 36 H 3.0575 0.744 0.4709 0
M  V30 37 H -1.4547 2.7553 -1.4882 0
M  V30 38 H -1.2188 4.4774 -1.2463 0
M  V30 39 H 4.1466 0.0257 2.5732 0
M  V30 40 H 4.0814 1.7945 2.4961 0
M  V30 41 H 2.943 0.9074 3.5296 0
M  V30 42 H -0.1776 3.771 -3.3512 0
M  V30 43 H 1.0769 4.3208 -2.2288 0
M  V30 44 H 0.8342 2.5867 -2.5138 0
M  V30 END ATOM
M  V30 BEGIN BOND
M  V30 1 2 1 2
M  V30 2 1 2 3
M  V30 3 1 2 4
M  V30 4 1 3 5
M  V30 5 1 4 6
M  V30 6 1 5 7
M  V30 7 1 6 8
M  V30 8 1 7 9
M  V30 9 2 7 10
M  V30 10 2 8 11
M  V30 11 1 8 12
M  V30 12 1 12 13
M  V30 13 1 13 14
M  V30 14 1 14 15
M  V30 15 1 14 16
M  V30 16 1 15 17
M  V30 17 1 16 18
M  V30 18 1 17 19
M  V30 19 1 18 20
M  V30 20 2 5 6
M  V30 21 1 10 11
M  V30 22 1 3 21
M  V30 23 1 4 22
M  V30 24 1 4 23
M  V30 25 1 9 24
M  V30 26 1 10 25
M  V30 27 1 11 26
M  V30 28 1 12 27
M  V30 29 1 12 28
M  V30 30 1 13 29
M  V30 31 1 13 30
M  V30 32 1 15 31
M  V30 33 1 15 32
M  V30 34 1 16 33
M  V30 35 1 16 34
M  V30 36 1 17 35
M  V30 37 1 17 36
M  V30 38 1 18 37
M  V30 39 1 18 38
M  V30 40 1 19 39
M  V30 41 1 19 40
M  V30 42 1 19 41
M  V30 43 1 20 42
M  V30 44 1 20 43
M  V30 45 1 20 44
M  V30 END BOND
M  V30 END CTAB
M  END
>  <Column 1>
260

>  <level_0>
299

>  <index>
299

>  <Unnamed: 0>
299

>  <NO.>
300

>  <Name>
skf 89124

>  <IUPAC_name>
4-[2-(dipropylamino)ethyl]-7-hydroxy-1-3-dihydroindol-2-one

>  <SMILES>
CCCN(CCC)CCc1ccc(O)c2c1CC(=O)N2

>  <CID>
133741

>  <logBB>
-0.43

>  <BBB+/BBB->
BBB+

>  <Inchi>
InChI=1S/C16H24N2O2/c1-3-8-18(9-4-2)10-7-12-5-6-14(19)16-13(12)11-15(20)17-16/h5-6-19H-3-4-7-11H2-1-2H3-(H-17-20)

>  <threshold>


>  <reference>
R2|R2|R8|R27|R3|R18|R21|R25|R26|R27|R27|R35|R36|R38|R39|R41|R43|R46|R47|R49|R4|R40|R12|R20|R48|

>  <group>
A

>  <Class>
1

>  <ABC>
14.95

>  <ABCGG>
13.14

>  <nAcid>
0

>  <nBase>
1

>  <nAromAtom>
6

>  <nAromBond>
6

>  <nAtom>
44

>  <nHeavyAtom>
20

>  <nSpiro>
0

>  <nBridgehead>
0

>  <nHetero>
4

>  <nN>
2

>  <nO>
2

>  <nF>
0

>  <BalabanJ>
1.85

>  <BertzCT>
479.61

>  <nBonds>
45

>  <nBondsO>
21

>  <nBondsS>
38

>  <nBondsD>
1

>  <nBondsT>
0

>  <nBondsA>
6

>  <nBondsM>
7

>  <nBondsKS>
41

>  <nBondsKD>
4

>  <RNCG>
0.29

>  <RPCG>
0.17

>  <FCSP3>
0.56

>  <SZ>
25

>  <Sm>
23.01

>  <Sv>
25.45

>  <Sse>
43.64

>  <Sp>
27.86

>  <Si>
49.98

>  <MZ>
0.57

>  <Mm>
0.52

>  <Mv>
0.58

>  <Mse>
0.99

>  <Mp>
0.63

>  <Mi>
1.14

>  <NsCH3>
2

>  <NdCH2>
0

>  <NssCH2>
7

>  <NtCH>
0

>  <NdsCH>
0

>  <NaaCH>
2

>  <NsssCH>
0

>  <NddC>
0

>  <NtsC>
0

>  <NdssC>
1

>  <NaasC>
4

>  <NaaaC>
0

>  <NssssC>
0

>  <NsNH3>
0

>  <NsNH2>
0

>  <NssNH2>
0

>  <NdNH>
0

>  <NssNH>
1

>  <NaaNH>
0

>  <NtN>
0

>  <NsssNH>
0

>  <NdsN>
0

>  <NaaN>
0

>  <NsssN>
1

>  <NddsN>
0

>  <NaasN>
0

>  <NssssN>
0

>  <NsOH>
1

>  <NdO>
1

>  <NssO>
0

>  <NaaO>
0

>  <NsF>
0

>  <NsSiH3>
0

>  <NssSiH2>
0

>  <NsssSiH>
0

>  <NssssSi>
0

>  <NsPH2>
0

>  <NssPH>
0

>  <NsssP>
0

>  <NdsssP>
0

>  <NsssssP>
0

>  <NsSH>
0

>  <NdS>
0

>  <NssS>
0

>  <NaaS>
0

>  <NdssS>
0

>  <NddssS>
0

>  <NsCl>
0

>  <NsBr>
0

>  <NsI>
0

>  <fragCpx>
61.04

>  <fMF>
0.2

>  <nHBAcc>
3

>  <nHBDon>
2

>  <Kier1>
16.37

>  <Kier2>
7.85

>  <Lipinski>
1

>  <GhoseFilter>
1

>  <FilterItLogS>
-4.55

>  <VMcGowan>
229.08

>  <LabuteASA>
120.34

>  <PEOE_VSA1>
15.32

>  <PEOE_VSA2>
4.79

>  <PEOE_VSA3>
0

>  <PEOE_VSA4>
0

>  <PEOE_VSA5>
0

>  <PEOE_VSA6>
19.91

>  <PEOE_VSA7>
49.55

>  <PEOE_VSA8>
6.54

>  <PEOE_VSA9>
12.11

>  <PEOE_VSA10>
5.75

>  <PEOE_VSA11>
0

>  <PEOE_VSA12>
5.91

>  <PEOE_VSA13>
0

>  <SMR_VSA1>
9.9

>  <SMR_VSA2>
0

>  <SMR_VSA3>
4.9

>  <SMR_VSA4>
0

>  <SMR_VSA5>
39.53

>  <SMR_VSA6>
24.95

>  <SMR_VSA7>
23.26

>  <SMR_VSA8>
0

>  <SMR_VSA9>
5.75

>  <SlogP_VSA1>
5.32

>  <SlogP_VSA2>
35.55

>  <SlogP_VSA3>
17.64

>  <SlogP_VSA4>
0

>  <SlogP_VSA5>
37.82

>  <SlogP_VSA6>
12.13

>  <SlogP_VSA7>
0

>  <SlogP_VSA8>
0

>  <SlogP_VSA9>
0

>  <SlogP_VSA10>
5.69

>  <SlogP_VSA11>
5.75

>  <EState_VSA1>
0

>  <EState_VSA2>
11.66

>  <EState_VSA3>
12.11

>  <EState_VSA4>
44.46

>  <EState_VSA5>
5.56

>  <EState_VSA6>
6.07

>  <EState_VSA7>
6.07

>  <EState_VSA8>
24.06

>  <EState_VSA9>
0

>  <EState_VSA10>
9.9

>  <VSA_EState1>
0

>  <VSA_EState2>
13.98

>  <VSA_EState3>
12.54

>  <VSA_EState4>
2.77

>  <VSA_EState5>
0.15

>  <VSA_EState6>
3.63

>  <VSA_EState7>
3.64

>  <VSA_EState8>
7.64

>  <VSA_EState9>
0

>  <apol>
46.53

>  <bpol>
27.22

>  <nRing>
2

>  <nHRing>
1

>  <naRing>
1

>  <naHRing>
0

>  <nARing 2>
1

>  <nAHRing 2>
1

>  <nFRing>
1

>  <nFHRing>
1

>  <nFaRing>
0

>  <nFaHRing>
0

>  <nFARing 2>
1

>  <nFAHRing 2>
1

>  <nRot>
7

>  <SLogP>
2.55

>  <SMR>
81.17

>  <TopoPSA(NO)>
52.57

>  <TopoPSA>
52.57

>  <JGI1>
0.19

>  <JGI2>
0.08

>  <JGI3>
0.04

>  <JGI4>
0.04

>  <JGI5>
0.03

>  <Diameter>
10

>  <Radius>
5

>  <TMWC10>
113.42

>  <TSRW10>
67.14

>  <MW>
276.18

>  <AMW>
6.28

>  <WPath>
862

>  <WPol>
28

>  <Zagreb1>
98

>  <Zagreb2>
113

>  <mZagreb2>
4.67

>  <yes>


>  <nAR-cont>
0.816016

>  <nHA-cont>
0.999629945

>  <MWHBN>
0.30086654

>  <MWHBN-cont>
0.838142032

>  <TPSA-cont>
0.633028756

>  <pka_cont>
0.97

>  <yes.1>


>  <BBB_SCORE>
4.823916505

>  <MMFF94 Energy>
29.332

$$$$
Compound 202
Actelion Java MolfileCreator 2.0

  0  0  0  0  0  0              0 V3000
M  V30 BEGIN CTAB
M  V30 COUNTS 61 64 0 0 0
M  V30 BEGIN ATOM
M  V30 1 Br -7.7488 0.8855 -1.6911 0
M  V30 2 C -6.2825 0.9668 -0.5024 0
M  V30 3 C -5.865 -0.18 0.1632 0
M  V30 4 C -5.6253 2.1745 -0.2937 0
M  V30 5 C -4.7786 -0.1134 1.0419 0
M  V30 6 C -4.5412 2.229 0.5886 0
M  V30 7 C -4.0942 1.0866 1.268 0
M  V30 8 N -3.0325 1.1355 2.1401 0
M  V30 9 C -1.6496 0.6838 1.8235 0
M  V30 10 C -3.0678 2.0487 3.2632 0
M  V30 11 C -0.8791 1.1934 3.063 0
M  V30 12 C -1.5402 -0.8365 1.7249 0
M  V30 13 C -1.1062 1.3725 0.5683 0
M  V30 14 N -1.7472 1.9712 3.8087 0
M  V30 15 O 0.2895 0.9758 3.3483 0
M  V30 16 C -0.1569 -1.2889 1.2559 0
M  V30 17 C 0.2594 0.8228 0.1516 0
M  V30 18 C -1.3939 2.6216 5.0537 0
M  V30 19 N 0.2252 -0.6387 -0.0089 0
M  V30 20 C -1.7878 1.7871 6.2605 0
M  V30 21 C 1.5216 -1.1733 -0.4654 0
M  V30 22 C 1.8854 -0.7534 -1.8953 0
M  V30 23 C 3.1402 -1.4865 -2.3773 0
M  V30 24 C 3.5501 -1.0642 -3.7786 0
M  V30 25 O 2.9659 -0.1764 -4.3962 0
M  V30 26 C 4.7129 -1.7513 -4.4228 0
M  V30 27 C 5.0504 -1.3969 -5.7396 0
M  V30 28 C 5.4712 -2.7266 -3.7589 0
M  V30 29 C 6.1277 -2.0093 -6.3837 0
M  V30 30 C 6.5491 -3.3373 -4.4075 0
M  V30 31 C 6.8667 -2.974 -5.7115 0
M  V30 32 F 7.9001 -3.5626 -6.3264 0
M  V30 33 H -6.3733 -1.1282 0.0125 0
M  V30 34 H -5.9395 3.0756 -0.8129 0
M  V30 35 H -4.4804 -1.0145 1.5716 0
M  V30 36 H -4.0279 3.1781 0.7207 0
M  V30 37 H -3.7993 1.7289 4.012 0
M  V30 38 H -3.2549 3.0865 2.9686 0
M  V30 39 H -1.7685 -1.3064 2.6899 0
M  V30 40 H -2.271 -1.2251 1.007 0
M  V30 41 H -1.0249 2.4562 0.7229 0
M  V30 42 H -1.7995 1.2308 -0.2709 0
M  V30 43 H 0.596 -1.1137 2.033 0
M  V30 44 H -0.2027 -2.3755 1.1082 0
M  V30 45 H 1.0313 1.1223 0.8707 0
M  V30 46 H 0.5116 1.3045 -0.799 0
M  V30 47 H -1.8803 3.6023 5.0842 0
M  V30 48 H -0.3106 2.783 5.072 0
M  V30 49 H -1.306 0.8042 6.2316 0
M  V30 50 H -2.8702 1.627 6.2954 0
M  V30 51 H -1.488 2.2898 7.1852 0
M  V30 52 H 1.4718 -2.2701 -0.4509 0
M  V30 53 H 2.3255 -0.8838 0.2241 0
M  V30 54 H 2.0654 0.3263 -1.9451 0
M  V30 55 H 1.0508 -0.9721 -2.5735 0
M  V30 56 H 2.9442 -2.5646 -2.3808 0
M  V30 57 H 3.97 -1.2697 -1.6951 0
M  V30 58 H 4.4735 -0.6406 -6.2701 0
M  V30 59 H 5.249 -3.0286 -2.7398 0
M  V30 60 H 6.3913 -1.7385 -7.4013 0
M  V30 61 H 7.1439 -4.0936 -3.904 0
M  V30 END ATOM
M  V30 BEGIN BOND
M  V30 1 1 1 2
M  V30 2 2 2 3
M  V30 3 1 2 4
M  V30 4 1 3 5
M  V30 5 2 4 6
M  V30 6 2 5 7
M  V30 7 1 7 8
M  V30 8 1 8 9
M  V30 9 1 8 10
M  V30 10 1 9 11
M  V30 11 1 9 12
M  V30 12 1 9 13
M  V30 13 1 10 14
M  V30 14 2 11 15
M  V30 15 1 12 16
M  V30 16 1 13 17
M  V30 17 1 14 18
M  V30 18 1 16 19
M  V30 19 1 18 20
M  V30 20 1 19 21
M  V30 21 1 21 22
M  V30 22 1 22 23
M  V30 23 1 23 24
M  V30 24 2 24 25
M  V30 25 1 24 26
M  V30 26 2 26 27
M  V30 27 1 26 28
M  V30 28 1 27 29
M  V30 29 2 28 30
M  V30 30 2 29 31
M  V30 31 1 31 32
M  V30 32 1 6 7
M  V30 33 1 11 14
M  V30 34 1 17 19
M  V30 35 1 30 31
M  V30 36 1 3 33
M  V30 37 1 4 34
M  V30 38 1 5 35
M  V30 39 1 6 36
M  V30 40 1 10 37
M  V30 41 1 10 38
M  V30 42 1 12 39
M  V30 43 1 12 40
M  V30 44 1 13 41
M  V30 45 1 13 42
M  V30 46 1 16 43
M  V30 47 1 16 44
M  V30 48 1 17 45
M  V30 49 1 17 46
M  V30 50 1 18 47
M  V30 51 1 18 48
M  V30 52 1 20 49
M  V30 53 1 20 50
M  V30 54 1 20 51
M  V30 55 1 21 52
M  V30 56 1 21 53
M  V30 57 1 22 54
M  V30 58 1 22 55
M  V30 59 1 23 56
M  V30 60 1 23 57
M  V30 61 1 27 58
M  V30 62 1 28 59
M  V30 63 1 29 60
M  V30 64 1 30 61
M  V30 END BOND
M  V30 END CTAB
M  END
>  <Column 1>
261

>  <level_0>
300

>  <index>
300

>  <Unnamed: 0>
300

>  <NO.>
301

>  <Name>
besp

>  <IUPAC_name>
1-(4-bromophenyl)-3-ethyl-8-[4-(4-fluorophenyl)-4-oxobutyl]-1-3-8-triazaspiro[4.5]decan-4-one

>  <SMILES>
CCN1CN(c2ccc(Br)cc2)C2(CCN(CCCC(=O)c3ccc(F)cc3)CC2)C1=O

>  <CID>
13497179

>  <logBB>
-0.43

>  <BBB+/BBB->
BBB+

>  <Inchi>
InChI=1S/C25H29BrFN3O2/c1-2-29-18-30(22-11-7-20(26)8-12-22)25(24(29)32)13-16-28(17-14-25)15-3-4-23(31)19-5-9-21(27)10-6-19/h5-12H-2-4-13-18H2-1H3

>  <threshold>


>  <reference>
R2|R2|R8|R27|R40|R3|R25|R38|R41|R43|R47|

>  <group>
A

>  <Class>
1

>  <ABC>
24.94

>  <ABCGG>
18.61

>  <nAcid>
0

>  <nBase>
1

>  <nAromAtom>
12

>  <nAromBond>
12

>  <nAtom>
61

>  <nHeavyAtom>
32

>  <nSpiro>
1

>  <nBridgehead>
0

>  <nHetero>
7

>  <nN>
3

>  <nO>
2

>  <nF>
1

>  <BalabanJ>
1.27

>  <BertzCT>
956.16

>  <nBonds>
64

>  <nBondsO>
35

>  <nBondsS>
50

>  <nBondsD>
2

>  <nBondsT>
0

>  <nBondsA>
12

>  <nBondsM>
14

>  <nBondsKS>
56

>  <nBondsKD>
8

>  <RNCG>
0.15

>  <RPCG>
0.11

>  <FCSP3>
0.44

>  <SZ>
43.33

>  <Sm>
41.83

>  <Sv>
38.5

>  <Sse>
61.15

>  <Sp>
41.68

>  <Si>
68.91

>  <MZ>
0.71

>  <Mm>
0.69

>  <Mv>
0.63

>  <Mse>
1

>  <Mp>
0.68

>  <Mi>
1.13

>  <NsCH3>
1

>  <NdCH2>
0

>  <NssCH2>
9

>  <NtCH>
0

>  <NdsCH>
0

>  <NaaCH>
8

>  <NsssCH>
0

>  <NddC>
0

>  <NtsC>
0

>  <NdssC>
2

>  <NaasC>
4

>  <NaaaC>
0

>  <NssssC>
1

>  <NsNH3>
0

>  <NsNH2>
0

>  <NssNH2>
0

>  <NdNH>
0

>  <NssNH>
0

>  <NaaNH>
0

>  <NtN>
0

>  <NsssNH>
0

>  <NdsN>
0

>  <NaaN>
0

>  <NsssN>
3

>  <NddsN>
0

>  <NaasN>
0

>  <NssssN>
0

>  <NsOH>
0

>  <NdO>
2

>  <NssO>
0

>  <NaaO>
0

>  <NsF>
1

>  <NsSiH3>
0

>  <NssSiH2>
0

>  <NsssSiH>
0

>  <NssssSi>
0

>  <NsPH2>
0

>  <NssPH>
0

>  <NsssP>
0

>  <NdsssP>
0

>  <NsssssP>
0

>  <NsSH>
0

>  <NdS>
0

>  <NssS>
0

>  <NaaS>
0

>  <NdssS>
0

>  <NddssS>
0

>  <NsCl>
0

>  <NsBr>
1

>  <NsI>
0

>  <fragCpx>
233.07

>  <fMF>
0.43

>  <nHBAcc>
4

>  <nHBDon>
0

>  <Kier1>
25.1

>  <Kier2>
11.16

>  <Lipinski>
0

>  <GhoseFilter>
0

>  <FilterItLogS>
-6.43

>  <VMcGowan>
346.21

>  <LabuteASA>
196.86

>  <PEOE_VSA1>
14.7

>  <PEOE_VSA2>
9.59

>  <PEOE_VSA3>
4.39

>  <PEOE_VSA4>
0

>  <PEOE_VSA5>
0

>  <PEOE_VSA6>
15.93

>  <PEOE_VSA7>
81.26

>  <PEOE_VSA8>
41.78

>  <PEOE_VSA9>
6.67

>  <PEOE_VSA10>
11.36

>  <PEOE_VSA11>
5.78

>  <PEOE_VSA12>
5.91

>  <PEOE_VSA13>
0

>  <SMR_VSA1>
13.98

>  <SMR_VSA2>
0

>  <SMR_VSA3>
9.8

>  <SMR_VSA4>
0

>  <SMR_VSA5>
38.15

>  <SMR_VSA6>
37.75

>  <SMR_VSA7>
64.38

>  <SMR_VSA8>
0

>  <SMR_VSA9>
0

>  <SlogP_VSA1>
4.9

>  <SlogP_VSA2>
59.88

>  <SlogP_VSA3>
4.79

>  <SlogP_VSA4>
5.82

>  <SlogP_VSA5>
42.97

>  <SlogP_VSA6>
53

>  <SlogP_VSA7>
0

>  <SlogP_VSA8>
0

>  <SlogP_VSA9>
0

>  <SlogP_VSA10>
10.08

>  <SlogP_VSA11>
0

>  <EState_VSA1>
5.54

>  <EState_VSA2>
17.51

>  <EState_VSA3>
25.2

>  <EState_VSA4>
49.06

>  <EState_VSA5>
12.13

>  <EState_VSA6>
12.13

>  <EState_VSA7>
23.96

>  <EState_VSA8>
37.86

>  <EState_VSA9>
0

>  <EState_VSA10>
13.98

>  <VSA_EState1>
14.07

>  <VSA_EState2>
32.25

>  <VSA_EState3>
0

>  <VSA_EState4>
1.16

>  <VSA_EState5>
-0.05

>  <VSA_EState6>
13.94

>  <VSA_EState7>
2.77

>  <VSA_EState8>
5.87

>  <VSA_EState9>
0

>  <apol>
69.6

>  <bpol>
38.45

>  <nRing>
4

>  <nHRing>
2

>  <naRing>
2

>  <naHRing>
0

>  <nARing 2>
2

>  <nAHRing 2>
2

>  <nFRing>
0

>  <nFHRing>
0

>  <nFaRing>
0

>  <nFaHRing>
0

>  <nFARing 2>
0

>  <nFAHRing 2>
0

>  <nRot>
7

>  <SLogP>
4.71

>  <SMR>
127.24

>  <TopoPSA(NO)>
43.86

>  <TopoPSA>
43.86

>  <JGI1>
0.21

>  <JGI2>
0.1

>  <JGI3>
0.05

>  <JGI4>
0.04

>  <JGI5>
0.03

>  <Diameter>
18

>  <Radius>
9

>  <TMWC10>
145.48

>  <TSRW10>
82.85

>  <MW>
501.14

>  <AMW>
8.22

>  <WPath>
3325

>  <WPol>
54

>  <Zagreb1>
170

>  <Zagreb2>
203

>  <mZagreb2>
7.08

>  <yes>


>  <nAR-cont>
1

>  <nHA-cont>
0.658856097

>  <MWHBN>
0.178681857

>  <MWHBN-cont>
0.985699041

>  <TPSA-cont>
0.693829965

>  <pka_cont>
0.97

>  <yes.1>


>  <BBB_SCORE>
5.010064587

>  <MMFF94 Energy>
37.545

$$$$
Compound 203
Actelion Java MolfileCreator 2.0

  0  0  0  0  0  0              0 V3000
M  V30 BEGIN CTAB
M  V30 COUNTS 44 46 0 0 0
M  V30 BEGIN ATOM
M  V30 1 F 1.2905 -0.1612 1.2098 0
M  V30 2 C 0.276 -0.5153 0.4029 0
M  V30 3 C -0.9887 0.0795 0.653 0
M  V30 4 C 0.5271 -1.4581 -0.6258 0
M  V30 5 N -1.173 0.9983 1.6855 0
M  V30 6 C -2.0233 -0.3108 -0.2114 0
M  V30 7 N 1.7795 -2.0729 -0.8787 0
M  V30 8 C -0.5686 -1.792 -1.4432 0
M  V30 9 C -0.1558 2.0431 1.9166 0
M  V30 10 C -2.4775 1.2356 2.3225 0
M  V30 11 F -3.245 0.2373 -0.1145 0
M  V30 12 C -1.8296 -1.2254 -1.239 0
M  V30 13 C 1.8972 -2.9574 -1.9447 0
M  V30 14 C 2.9511 -1.7788 -0.0237 0
M  V30 15 C -0.4094 -2.7547 -2.5638 0
M  V30 16 C -0.7063 3.2119 2.7749 0
M  V30 17 C -2.9627 2.6605 1.9781 0
M  V30 18 C 0.9307 -3.342 -2.7927 0
M  V30 19 C 3.6721 -0.5057 -0.451 0
M  V30 20 O -1.3778 -3.0253 -3.2648 0
M  V30 21 N -2.03 3.7435 2.3852 0
M  V30 22 C 1.1974 -4.3015 -3.8828 0
M  V30 23 F 4.7811 -0.3439 0.3221 0
M  V30 24 C -1.9163 4.7472 1.3297 0
M  V30 25 O 0.3981 -4.7649 -4.6742 0
M  V30 26 O 2.4935 -4.6695 -3.9648 0
M  V30 27 H 0.1837 2.4471 0.9547 0
M  V30 28 H 0.7084 1.6219 2.4404 0
M  V30 29 H -2.3589 1.1396 3.4099 0
M  V30 30 H -3.2331 0.4899 2.0579 0
M  V30 31 H -2.6698 -1.4781 -1.8818 0
M  V30 32 H 2.9056 -3.3541 -2.0508 0
M  V30 33 H 3.673 -2.6044 -0.094 0
M  V30 34 H 2.6961 -1.7673 1.0413 0
M  V30 35 H 0.0384 4.0166 2.8194 0
M  V30 36 H -0.7969 2.8572 3.8107 0
M  V30 37 H -3.149 2.6958 0.8963 0
M  V30 38 H -3.9252 2.8406 2.4703 0
M  V30 39 H 3.9989 -0.5672 -1.4937 0
M  V30 40 H 3.0508 0.3866 -0.3407 0
M  V30 41 H -1.4761 4.3393 0.4129 0
M  V30 42 H -1.2982 5.588 1.6635 0
M  V30 43 H -2.9014 5.1613 1.0868 0
M  V30 44 H 2.4946 -5.2932 -4.7229 0
M  V30 END ATOM
M  V30 BEGIN BOND
M  V30 1 1 1 2
M  V30 2 2 2 3
M  V30 3 1 2 4
M  V30 4 1 3 5
M  V30 5 1 3 6
M  V30 6 1 4 7
M  V30 7 2 4 8
M  V30 8 1 5 9
M  V30 9 1 5 10
M  V30 10 1 6 11
M  V30 11 2 6 12
M  V30 12 1 7 13
M  V30 13 1 7 14
M  V30 14 1 8 15
M  V30 15 1 9 16
M  V30 16 1 10 17
M  V30 17 2 13 18
M  V30 18 1 14 19
M  V30 19 2 15 20
M  V30 20 1 16 21
M  V30 21 1 18 22
M  V30 22 1 19 23
M  V30 23 1 21 24
M  V30 24 2 22 25
M  V30 25 1 22 26
M  V30 26 1 8 12
M  V30 27 1 15 18
M  V30 28 1 17 21
M  V30 29 1 9 27
M  V30 30 1 9 28
M  V30 31 1 10 29
M  V30 32 1 10 30
M  V30 33 1 12 31
M  V30 34 1 13 32
M  V30 35 1 14 33
M  V30 36 1 14 34
M  V30 37 1 16 35
M  V30 38 1 16 36
M  V30 39 1 17 37
M  V30 40 1 17 38
M  V30 41 1 19 39
M  V30 42 1 19 40
M  V30 43 1 24 41
M  V30 44 1 24 42
M  V30 45 1 24 43
M  V30 46 1 26 44
M  V30 END BOND
M  V30 END CTAB
M  END
>  <Column 1>
262

>  <level_0>
301

>  <index>
301

>  <Unnamed: 0>
301

>  <NO.>
302

>  <Name>
fleroxacin

>  <IUPAC_name>
6-8-difluoro-1-(2-fluoroethyl)-7-(4-methylpiperazin-1-yl)-4-oxoquinoline-3-carboxylic acid

>  <SMILES>
CN1CCN(c2c(F)cc3c(=O)c(C(=O)O)cn(CCF)c3c2F)CC1

>  <CID>
3357

>  <logBB>
-0.43

>  <BBB+/BBB->
BBB+

>  <Inchi>
InChI=1S/C17H18F3N3O3/c1-21-4-6-22(7-5-21)15-12(19)8-10-14(13(15)20)23(3-2-18)9-11(16(10)24)17(25)26/h8-9H-2-7H2-1H3-(H-25-26)

>  <threshold>


>  <reference>
R2|R2|R20|R25|R27|R46|

>  <group>
A

>  <Class>
1

>  <ABC>
20.09

>  <ABCGG>
16.63

>  <nAcid>
1

>  <nBase>
1

>  <nAromAtom>
10

>  <nAromBond>
11

>  <nAtom>
44

>  <nHeavyAtom>
26

>  <nSpiro>
0

>  <nBridgehead>
0

>  <nHetero>
9

>  <nN>
3

>  <nO>
3

>  <nF>
3

>  <BalabanJ>
1.82

>  <BertzCT>
921.08

>  <nBonds>
46

>  <nBondsO>
28

>  <nBondsS>
33

>  <nBondsD>
2

>  <nBondsT>
0

>  <nBondsA>
11

>  <nBondsM>
13

>  <nBondsKS>
40

>  <nBondsKD>
6

>  <RNCG>
0.18

>  <RPCG>
0.13

>  <FCSP3>
0.41

>  <SZ>
32

>  <Sm>
30.75

>  <Sv>
28.23

>  <Sse>
45.84

>  <Sp>
28.6

>  <Si>
50.88

>  <MZ>
0.73

>  <Mm>
0.7

>  <Mv>
0.64

>  <Mse>
1.04

>  <Mp>
0.65

>  <Mi>
1.16

>  <NsCH3>
1

>  <NdCH2>
0

>  <NssCH2>
6

>  <NtCH>
0

>  <NdsCH>
0

>  <NaaCH>
2

>  <NsssCH>
0

>  <NddC>
0

>  <NtsC>
0

>  <NdssC>
1

>  <NaasC>
4

>  <NaaaC>
2

>  <NssssC>
0

>  <NsNH3>
0

>  <NsNH2>
0

>  <NssNH2>
0

>  <NdNH>
0

>  <NssNH>
0

>  <NaaNH>
0

>  <NtN>
0

>  <NsssNH>
0

>  <NdsN>
0

>  <NaaN>
0

>  <NsssN>
2

>  <NddsN>
0

>  <NaasN>
1

>  <NssssN>
0

>  <NsOH>
1

>  <NdO>
2

>  <NssO>
0

>  <NaaO>
0

>  <NsF>
3

>  <NsSiH3>
0

>  <NssSiH2>
0

>  <NsssSiH>
0

>  <NssssSi>
0

>  <NsPH2>
0

>  <NssPH>
0

>  <NsssP>
0

>  <NdsssP>
0

>  <NsssssP>
0

>  <NsSH>
0

>  <NdS>
0

>  <NssS>
0

>  <NaaS>
0

>  <NdssS>
0

>  <NddssS>
0

>  <NsCl>
0

>  <NsBr>
0

>  <NsI>
0

>  <fragCpx>
134.09

>  <fMF>
0.36

>  <nHBAcc>
5

>  <nHBDon>
1

>  <Kier1>
20.73

>  <Kier2>
8.57

>  <Lipinski>
1

>  <GhoseFilter>
1

>  <FilterItLogS>
-3.62

>  <VMcGowan>
244.84

>  <LabuteASA>
146.59

>  <PEOE_VSA1>
19.47

>  <PEOE_VSA2>
4.79

>  <PEOE_VSA3>
17.97

>  <PEOE_VSA4>
0

>  <PEOE_VSA5>
0

>  <PEOE_VSA6>
0

>  <PEOE_VSA7>
13.11

>  <PEOE_VSA8>
32.38

>  <PEOE_VSA9>
17.45

>  <PEOE_VSA10>
23.74

>  <PEOE_VSA11>
5.82

>  <PEOE_VSA12>
5.43

>  <PEOE_VSA13>
0

>  <SMR_VSA1>
23.07

>  <SMR_VSA2>
0

>  <SMR_VSA3>
9.47

>  <SMR_VSA4>
0

>  <SMR_VSA5>
6.54

>  <SMR_VSA6>
44.8

>  <SMR_VSA7>
39.68

>  <SMR_VSA8>
0

>  <SMR_VSA9>
0

>  <SlogP_VSA1>
10.33

>  <SlogP_VSA2>
60.44

>  <SlogP_VSA3>
6.54

>  <SlogP_VSA4>
11.63

>  <SlogP_VSA5>
10.36

>  <SlogP_VSA6>
17.06

>  <SlogP_VSA7>
0

>  <SlogP_VSA8>
10.9

>  <SlogP_VSA9>
0

>  <SlogP_VSA10>
18.86

>  <SlogP_VSA11>
0

>  <EState_VSA1>
40.66

>  <EState_VSA2>
17.75

>  <EState_VSA3>
26.18

>  <EState_VSA4>
16.83

>  <EState_VSA5>
0

>  <EState_VSA6>
4.9

>  <EState_VSA7>
11.95

>  <EState_VSA8>
0

>  <EState_VSA9>
5.11

>  <EState_VSA10>
18.37

>  <VSA_EState1>
43.72

>  <VSA_EState2>
27.11

>  <VSA_EState3>
8.72

>  <VSA_EState4>
-2.21

>  <VSA_EState5>
-3.45

>  <VSA_EState6>
0.84

>  <VSA_EState7>
0.9

>  <VSA_EState8>
0.8

>  <VSA_EState9>
1.9

>  <apol>
47.77

>  <bpol>
28.26

>  <nRing>
3

>  <nHRing>
2

>  <naRing>
2

>  <naHRing>
1

>  <nARing 2>
1

>  <nAHRing 2>
1

>  <nFRing>
1

>  <nFHRing>
1

>  <nFaRing>
1

>  <nFaHRing>
1

>  <nFARing 2>
0

>  <nFAHRing 2>
0

>  <nRot>
4

>  <SLogP>
1.7

>  <SMR>
90.77

>  <TopoPSA(NO)>
65.78

>  <TopoPSA>
65.78

>  <JGI1>
0.2

>  <JGI2>
0.09

>  <JGI3>
0.06

>  <JGI4>
0.05

>  <JGI5>
0.04

>  <Diameter>
12

>  <Radius>
6

>  <TMWC10>
131.14

>  <TSRW10>
61.42

>  <MW>
369.13

>  <AMW>
8.39

>  <WPath>
1537

>  <WPol>
48

>  <Zagreb1>
138

>  <Zagreb2>
167

>  <mZagreb2>
5.75

>  <yes>


>  <nAR-cont>
0.816016

>  <nHA-cont>
0.892715677

>  <MWHBN>
0.312292518

>  <MWHBN-cont>
0.802525594

>  <TPSA-cont>
0.540814753

>  <pka_cont>
0.97

>  <yes.1>


>  <BBB_SCORE>
4.479149575

>  <MMFF94 Energy>
167.03

$$$$
Compound 204
Actelion Java MolfileCreator 2.0

  0  0  0  0  0  0              0 V3000
M  V30 BEGIN CTAB
M  V30 COUNTS 20 20 0 0 0
M  V30 BEGIN ATOM
M  V30 1 O -0.0782 -0.3912 2.7414 0
M  V30 2 C -0.5834 0.297 1.8693 0
M  V30 3 O -1.5921 1.144 2.1828 0
M  V30 4 C -0.229 0.3024 0.3733 0
M  V30 5 N -0.7495 1.5154 -0.3073 0
M  V30 6 C -0.7646 -0.9564 -0.3134 0
M  V30 7 C 1.2783 0.1749 0.1379 0
M  V30 8 C 0.1037 -1.1313 -1.5583 0
M  V30 9 C 1.4078 -0.3827 -1.2779 0
M  V30 10 H -1.7121 1.0125 3.1472 0
M  V30 11 H -0.3147 2.3343 0.1197 0
M  V30 12 H -1.7389 1.5997 -0.0571 0
M  V30 13 H -1.8291 -0.8905 -0.5661 0
M  V30 14 H -0.65 -1.8321 0.3388 0
M  V30 15 H 1.8154 1.1231 0.2534 0
M  V30 16 H 1.7283 -0.5304 0.8482 0
M  V30 17 H -0.3914 -0.7026 -2.4373 0
M  V30 18 H 0.2824 -2.1907 -1.7687 0
M  V30 19 H 2.2803 -1.0375 -1.3696 0
M  V30 20 H 1.5327 0.4316 -2.0009 0
M  V30 END ATOM
M  V30 BEGIN BOND
M  V30 1 2 1 2
M  V30 2 1 2 3
M  V30 3 1 2 4
M  V30 4 1 4 5
M  V30 5 1 4 6
M  V30 6 1 4 7
M  V30 7 1 6 8
M  V30 8 1 7 9
M  V30 9 1 8 9
M  V30 10 1 3 10
M  V30 11 1 5 11
M  V30 12 1 5 12
M  V30 13 1 6 13
M  V30 14 1 6 14
M  V30 15 1 7 15
M  V30 16 1 7 16
M  V30 17 1 8 17
M  V30 18 1 8 18
M  V30 19 1 9 19
M  V30 20 1 9 20
M  V30 END BOND
M  V30 END CTAB
M  END
>  <Column 1>
263

>  <level_0>
302

>  <index>
302

>  <Unnamed: 0>
302

>  <NO.>
303

>  <Name>
cycloleucine

>  <IUPAC_name>
1-aminocyclopentane-1-carboxylic acid

>  <SMILES>
NC1(C(=O)O)CCCC1

>  <CID>
2901

>  <logBB>
-0.43

>  <BBB+/BBB->
BBB+

>  <Inchi>
InChI=1S/C6H11NO2/c7-6(5(8)9)3-1-2-4-6/h1-4-7H2-(H-8-9)

>  <threshold>


>  <reference>
R2|R2|R20|R25|R27|R46|

>  <group>
A

>  <Class>
1

>  <ABC>
6.68

>  <ABCGG>
6.97

>  <nAcid>
1

>  <nBase>
1

>  <nAromAtom>
0

>  <nAromBond>
0

>  <nAtom>
20

>  <nHeavyAtom>
9

>  <nSpiro>
0

>  <nBridgehead>
0

>  <nHetero>
3

>  <nN>
1

>  <nO>
2

>  <nF>
0

>  <BalabanJ>
2.51

>  <BertzCT>
127.02

>  <nBonds>
20

>  <nBondsO>
9

>  <nBondsS>
19

>  <nBondsD>
1

>  <nBondsT>
0

>  <nBondsA>
0

>  <nBondsM>
1

>  <nBondsKS>
19

>  <nBondsKD>
1

>  <RNCG>
0.4

>  <RPCG>
0.27

>  <FCSP3>
0.83

>  <SZ>
11.67

>  <Sm>
10.75

>  <Sv>
11.17

>  <Sse>
20.21

>  <Sp>
12.01

>  <Si>
22.99

>  <MZ>
0.58

>  <Mm>
0.54

>  <Mv>
0.56

>  <Mse>
1.01

>  <Mp>
0.6

>  <Mi>
1.15

>  <NsCH3>
0

>  <NdCH2>
0

>  <NssCH2>
4

>  <NtCH>
0

>  <NdsCH>
0

>  <NaaCH>
0

>  <NsssCH>
0

>  <NddC>
0

>  <NtsC>
0

>  <NdssC>
1

>  <NaasC>
0

>  <NaaaC>
0

>  <NssssC>
1

>  <NsNH3>
0

>  <NsNH2>
1

>  <NssNH2>
0

>  <NdNH>
0

>  <NssNH>
0

>  <NaaNH>
0

>  <NtN>
0

>  <NsssNH>
0

>  <NdsN>
0

>  <NaaN>
0

>  <NsssN>
0

>  <NddsN>
0

>  <NaasN>
0

>  <NssssN>
0

>  <NsOH>
1

>  <NdO>
1

>  <NssO>
0

>  <NaaO>
0

>  <NsF>
0

>  <NsSiH3>
0

>  <NssSiH2>
0

>  <NsssSiH>
0

>  <NssssSi>
0

>  <NsPH2>
0

>  <NssPH>
0

>  <NsssP>
0

>  <NdsssP>
0

>  <NsssssP>
0

>  <NsSH>
0

>  <NdS>
0

>  <NssS>
0

>  <NaaS>
0

>  <NdssS>
0

>  <NddssS>
0

>  <NsCl>
0

>  <NsBr>
0

>  <NsI>
0

>  <fragCpx>
9.03

>  <fMF>
0.25

>  <nHBAcc>
2

>  <nHBDon>
2

>  <Kier1>
7.11

>  <Kier2>
2.32

>  <Lipinski>
1

>  <GhoseFilter>
0

>  <FilterItLogS>
-0.23

>  <VMcGowan>
101.96

>  <LabuteASA>
53.85

>  <PEOE_VSA1>
10.84

>  <PEOE_VSA2>
4.79

>  <PEOE_VSA3>
0

>  <PEOE_VSA4>
0

>  <PEOE_VSA5>
0

>  <PEOE_VSA6>
12.84

>  <PEOE_VSA7>
12.84

>  <PEOE_VSA8>
0

>  <PEOE_VSA9>
0

>  <PEOE_VSA10>
5.54

>  <PEOE_VSA11>
0

>  <PEOE_VSA12>
0

>  <PEOE_VSA13>
0

>  <SMR_VSA1>
9.9

>  <SMR_VSA2>
0

>  <SMR_VSA3>
0

>  <SMR_VSA4>
5.73

>  <SMR_VSA5>
31.22

>  <SMR_VSA6>
0

>  <SMR_VSA7>
0

>  <SMR_VSA8>
0

>  <SMR_VSA9>
0

>  <SlogP_VSA1>
5.73

>  <SlogP_VSA2>
16.61

>  <SlogP_VSA3>
4.79

>  <SlogP_VSA4>
0

>  <SlogP_VSA5>
25.68

>  <SlogP_VSA6>
0

>  <SlogP_VSA7>
0

>  <SlogP_VSA8>
0

>  <SlogP_VSA9>
0

>  <SlogP_VSA10>
0

>  <SlogP_VSA11>
0

>  <EState_VSA1>
11.51

>  <EState_VSA2>
0

>  <EState_VSA3>
12.84

>  <EState_VSA4>
12.84

>  <EState_VSA5>
0

>  <EState_VSA6>
0

>  <EState_VSA7>
0

>  <EState_VSA8>
0

>  <EState_VSA9>
10.84

>  <EState_VSA10>
4.79

>  <VSA_EState1>
0

>  <VSA_EState2>
10.4

>  <VSA_EState3>
8.55

>  <VSA_EState4>
4.61

>  <VSA_EState5>
-0.85

>  <VSA_EState6>
0

>  <VSA_EState7>
3.2

>  <VSA_EState8>
0

>  <VSA_EState9>
0

>  <apol>
20.06

>  <bpol>
11.33

>  <nRing>
1

>  <nHRing>
0

>  <naRing>
0

>  <naHRing>
0

>  <nARing 2>
1

>  <nAHRing 2>
0

>  <nFRing>
0

>  <nFHRing>
0

>  <nFaRing>
0

>  <nFaHRing>
0

>  <nFARing 2>
0

>  <nFAHRing 2>
0

>  <nRot>
1

>  <SLogP>
0.34

>  <SMR>
33.02

>  <TopoPSA(NO)>
63.32

>  <TopoPSA>
63.32

>  <JGI1>
0.33

>  <JGI2>
0.14

>  <JGI3>
0.05

>  <JGI4>
0.06

>  <JGI5>
0

>  <Diameter>
4

>  <Radius>
2

>  <TMWC10>
82.59

>  <TSRW10>
51.98

>  <MW>
129.08

>  <AMW>
6.45

>  <WPath>
81

>  <WPol>
10

>  <Zagreb1>
44

>  <Zagreb2>
50

>  <mZagreb2>
2

>  <yes>


>  <nAR-cont>
0.816016

>  <nHA-cont>
0.56070381

>  <MWHBN>
0.35207121

>  <MWHBN-cont>
0.662486049

>  <TPSA-cont>
0.557987081

>  <pka_cont>
0.97

>  <yes.1>


>  <BBB_SCORE>
3.971423044

>  <MMFF94 Energy>
31.269

$$$$
Compound 205
Actelion Java MolfileCreator 2.0

  0  0  0  0  0  0              0 V3000
M  V30 BEGIN CTAB
M  V30 COUNTS 61 62 0 0 0
M  V30 BEGIN ATOM
M  V30 1 O 2.4519 3.4815 1.6604 0
M  V30 2 N 1.4022 3.9713 1.2199 0 CHG=1
M  V30 3 O 1.1162 5.1766 1.2681 0 CHG=-1
M  V30 4 C 0.4255 3.0621 0.6079 0
M  V30 5 C 0.7424 1.706 0.4502 0
M  V30 6 C -0.8179 3.5574 0.1963 0
M  V30 7 C -0.1938 0.8285 -0.1261 0
M  V30 8 C -1.749 2.6883 -0.371 0
M  V30 9 C -1.4411 1.3353 -0.5286 0
M  V30 10 C 0.1158 -0.6646 -0.2963 0
M  V30 11 C 1.338 -0.8776 -1.1849 0
M  V30 12 C 0.242 -1.343 1.0613 0
M  V30 13 C 2.4286 -1.5406 -0.7366 0
M  V30 14 C 1.2961 -0.2846 -2.5415 0
M  V30 15 C 1.3639 -2.0 1.4285 0
M  V30 16 C -0.9591 -1.2384 1.9146 0
M  V30 17 N 2.4328 -2.0612 0.5489 0
M  V30 18 C 3.6678 -1.8024 -1.555 0
M  V30 19 O 2.2192 0.3292 -3.0497 0
M  V30 20 O 0.0861 -0.5373 -3.0937 0
M  V30 21 C 1.5409 -2.7315 2.7337 0
M  V30 22 O -2.0774 -1.5348 1.5276 0
M  V30 23 O -0.6174 -0.6872 3.1023 0
M  V30 24 C -0.2356 -0.0525 -4.4221 0
M  V30 25 C -1.6327 -0.3549 4.0816 0
M  V30 26 C -0.2063 1.4787 -4.4804 0
M  V30 27 C -1.6761 -0.5248 -4.6693 0
M  V30 28 C 0.6773 -0.6838 -5.4781 0
M  V30 29 C -2.5894 0.7138 3.5414 0
M  V30 30 C -0.8531 0.2357 5.2657 0
M  V30 31 C -2.3786 -1.6052 4.5588 0
M  V30 32 H 1.7101 1.3238 0.7741 0
M  V30 33 H -1.0759 4.6078 0.3138 0
M  V30 34 H -2.7198 3.063 -0.6884 0
M  V30 35 H -2.1879 0.6727 -0.9655 0
M  V30 36 H -0.7325 -1.1477 -0.8025 0
M  V30 37 H 3.2712 -2.5479 0.8571 0
M  V30 38 H 3.4767 -1.7986 -2.6315 0
M  V30 39 H 4.434 -1.0548 -1.3275 0
M  V30 40 H 4.0779 -2.7919 -1.3228 0
M  V30 41 H 0.5945 -2.9439 3.2384 0
M  V30 42 H 2.1728 -2.1466 3.4097 0
M  V30 43 H 2.0254 -3.6997 2.5641 0
M  V30 44 H 0.8079 1.8734 -4.3702 0
M  V30 45 H -0.5996 1.8481 -5.4336 0
M  V30 46 H -0.8011 1.911 -3.6683 0
M  V30 47 H -2.3539 -0.1228 -3.907 0
M  V30 48 H -2.0421 -0.2174 -5.6545 0
M  V30 49 H -1.7457 -1.6165 -4.599 0
M  V30 50 H 1.7092 -0.3309 -5.3894 0
M  V30 51 H 0.7075 -1.7732 -5.3646 0
M  V30 52 H 0.3362 -0.4483 -6.4919 0
M  V30 53 H -3.2137 0.3301 2.729 0
M  V30 54 H -3.2598 1.0816 4.3256 0
M  V30 55 H -2.0315 1.564 3.133 0
M  V30 56 H -0.2751 1.1131 4.9527 0
M  V30 57 H -1.518 0.5331 6.0833 0
M  V30 58 H -0.1281 -0.4886 5.6546 0
M  V30 59 H -3.0076 -2.0314 3.7716 0
M  V30 60 H -1.673 -2.389 4.8561 0
M  V30 61 H -3.0288 -1.3801 5.4111 0
M  V30 END ATOM
M  V30 BEGIN BOND
M  V30 1 2 1 2
M  V30 2 1 2 3
M  V30 3 1 2 4
M  V30 4 2 4 5
M  V30 5 1 4 6
M  V30 6 1 5 7
M  V30 7 2 6 8
M  V30 8 2 7 9
M  V30 9 1 7 10
M  V30 10 1 10 11
M  V30 11 1 10 12
M  V30 12 2 11 13
M  V30 13 1 11 14
M  V30 14 2 12 15
M  V30 15 1 12 16
M  V30 16 1 13 17
M  V30 17 1 13 18
M  V30 18 2 14 19
M  V30 19 1 14 20
M  V30 20 1 15 21
M  V30 21 2 16 22
M  V30 22 1 16 23
M  V30 23 1 20 24
M  V30 24 1 23 25
M  V30 25 1 24 26
M  V30 26 1 24 27
M  V30 27 1 24 28
M  V30 28 1 25 29
M  V30 29 1 25 30
M  V30 30 1 25 31
M  V30 31 1 8 9
M  V30 32 1 15 17
M  V30 33 1 5 32
M  V30 34 1 6 33
M  V30 35 1 8 34
M  V30 36 1 9 35
M  V30 37 1 10 36
M  V30 38 1 17 37
M  V30 39 1 18 38
M  V30 40 1 18 39
M  V30 41 1 18 40
M  V30 42 1 21 41
M  V30 43 1 21 42
M  V30 44 1 21 43
M  V30 45 1 26 44
M  V30 46 1 26 45
M  V30 47 1 26 46
M  V30 48 1 27 47
M  V30 49 1 27 48
M  V30 50 1 27 49
M  V30 51 1 28 50
M  V30 52 1 28 51
M  V30 53 1 28 52
M  V30 54 1 29 53
M  V30 55 1 29 54
M  V30 56 1 29 55
M  V30 57 1 30 56
M  V30 58 1 30 57
M  V30 59 1 30 58
M  V30 60 1 31 59
M  V30 61 1 31 60
M  V30 62 1 31 61
M  V30 END BOND
M  V30 END CTAB
M  END
>  <Column 1>
264

>  <level_0>
303

>  <index>
303

>  <Unnamed: 0>
303

>  <NO.>
304

>  <Name>
dibudipine

>  <IUPAC_name>
ditert-butyl 2-6-dimethyl-4-(3-nitrophenyl)-1-4-dihydropyridine-3-5-dicarboxylate

>  <SMILES>
CC1=C(C(=O)OC(C)(C)C)C(c2cccc([N+](=O)[O-])c2)C(C(=O)OC(C)(C)C)=C(C)N1

>  <CID>
10252115

>  <logBB>
-0.42

>  <BBB+/BBB->
BBB+

>  <Inchi>
InChI=1S/C23H30N2O6/c1-13-17(20(26)30-22(3-4)5)19(15-10-9-11-16(12-15)25(28)29)18(14(2)24-13)21(27)31-23(6-7)8/h9-12-19-24H-1-8H3

>  <threshold>


>  <reference>
R18|R26|R27|

>  <group>
A

>  <Class>
1

>  <ABC>
23.91

>  <ABCGG>
20.91

>  <nAcid>
0

>  <nBase>
0

>  <nAromAtom>
6

>  <nAromBond>
6

>  <nAtom>
61

>  <nHeavyAtom>
31

>  <nSpiro>
0

>  <nBridgehead>
0

>  <nHetero>
8

>  <nN>
2

>  <nO>
6

>  <nF>
0

>  <BalabanJ>
2.43

>  <BertzCT>
926.52

>  <nBonds>
62

>  <nBondsO>
32

>  <nBondsS>
51

>  <nBondsD>
5

>  <nBondsT>
0

>  <nBondsA>
6

>  <nBondsM>
11

>  <nBondsKS>
54

>  <nBondsKD>
8

>  <RNCG>
0.17

>  <RPCG>
0.13

>  <FCSP3>
0.48

>  <SZ>
38.33

>  <Sm>
35.84

>  <Sv>
36.93

>  <Sse>
61.63

>  <Sp>
39.18

>  <Si>
69.07

>  <MZ>
0.63

>  <Mm>
0.59

>  <Mv>
0.61

>  <Mse>
1.01

>  <Mp>
0.64

>  <Mi>
1.13

>  <NsCH3>
8

>  <NdCH2>
0

>  <NssCH2>
0

>  <NtCH>
0

>  <NdsCH>
0

>  <NaaCH>
4

>  <NsssCH>
1

>  <NddC>
0

>  <NtsC>
0

>  <NdssC>
6

>  <NaasC>
2

>  <NaaaC>
0

>  <NssssC>
2

>  <NsNH3>
0

>  <NsNH2>
0

>  <NssNH2>
0

>  <NdNH>
0

>  <NssNH>
1

>  <NaaNH>
0

>  <NtN>
0

>  <NsssNH>
0

>  <NdsN>
0

>  <NaaN>
0

>  <NsssN>
0

>  <NddsN>
1

>  <NaasN>
0

>  <NssssN>
0

>  <NsOH>
0

>  <NdO>
3

>  <NssO>
2

>  <NaaO>
0

>  <NsF>
0

>  <NsSiH3>
0

>  <NssSiH2>
0

>  <NsssSiH>
0

>  <NssssSi>
0

>  <NsPH2>
0

>  <NssPH>
0

>  <NsssP>
0

>  <NdsssP>
0

>  <NsssssP>
0

>  <NsSH>
0

>  <NdS>
0

>  <NssS>
0

>  <NaaS>
0

>  <NdssS>
0

>  <NddssS>
0

>  <NsCl>
0

>  <NsBr>
0

>  <NsI>
0

>  <fragCpx>
94.08

>  <fMF>
0.2

>  <nHBAcc>
7

>  <nHBDon>
1

>  <Kier1>
27.25

>  <Kier2>
10.51

>  <Lipinski>
1

>  <GhoseFilter>
1

>  <FilterItLogS>
-5.42

>  <VMcGowan>
333.99

>  <LabuteASA>
182

>  <PEOE_VSA1>
14.79

>  <PEOE_VSA2>
10.11

>  <PEOE_VSA3>
9.59

>  <PEOE_VSA4>
0

>  <PEOE_VSA5>
0

>  <PEOE_VSA6>
12.13

>  <PEOE_VSA7>
60.95

>  <PEOE_VSA8>
23.53

>  <PEOE_VSA9>
21.99

>  <PEOE_VSA10>
11.2

>  <PEOE_VSA11>
0

>  <PEOE_VSA12>
0

>  <PEOE_VSA13>
5.69

>  <SMR_VSA1>
23.99

>  <SMR_VSA2>
0

>  <SMR_VSA3>
5.32

>  <SMR_VSA4>
0

>  <SMR_VSA5>
72.51

>  <SMR_VSA6>
0

>  <SMR_VSA7>
62.48

>  <SMR_VSA8>
0

>  <SMR_VSA9>
0

>  <SlogP_VSA1>
5.32

>  <SlogP_VSA2>
28.06

>  <SlogP_VSA3>
19.06

>  <SlogP_VSA4>
10.11

>  <SlogP_VSA5>
66.87

>  <SlogP_VSA6>
46.81

>  <SlogP_VSA7>
0

>  <SlogP_VSA8>
0

>  <SlogP_VSA9>
0

>  <SlogP_VSA10>
5.69

>  <SlogP_VSA11>
0

>  <EState_VSA1>
33.98

>  <EState_VSA2>
16.83

>  <EState_VSA3>
16.96

>  <EState_VSA4>
0

>  <EState_VSA5>
18.2

>  <EState_VSA6>
61.46

>  <EState_VSA7>
0

>  <EState_VSA8>
5.32

>  <EState_VSA9>
9.47

>  <EState_VSA10>
19.7

>  <VSA_EState1>
11.19

>  <VSA_EState2>
37.16

>  <VSA_EState3>
14.43

>  <VSA_EState4>
0.2

>  <VSA_EState5>
-2.1

>  <VSA_EState6>
5.9

>  <VSA_EState7>
0

>  <VSA_EState8>
13.89

>  <VSA_EState9>
0

>  <apol>
65.43

>  <bpol>
37.04

>  <nRing>
2

>  <nHRing>
1

>  <naRing>
1

>  <naHRing>
0

>  <nARing 2>
1

>  <nAHRing 2>
1

>  <nFRing>
0

>  <nFHRing>
0

>  <nFaRing>
0

>  <nFaHRing>
0

>  <nFARing 2>
0

>  <nFAHRing 2>
0

>  <nRot>
4

>  <SLogP>
4.51

>  <SMR>
116.06

>  <TopoPSA(NO)>
107.77

>  <TopoPSA>
107.77

>  <JGI1>
0.33

>  <JGI2>
0.08

>  <JGI3>
0.07

>  <JGI4>
0.04

>  <JGI5>
0.04

>  <Diameter>
10

>  <Radius>
5

>  <TMWC10>
140.84

>  <TSRW10>
67.03

>  <MW>
430.21

>  <AMW>
7.05

>  <WPath>
2408

>  <WPol>
50

>  <Zagreb1>
162

>  <Zagreb2>
186

>  <mZagreb2>
6.47

>  <yes>


>  <nAR-cont>
0.816016

>  <nHA-cont>
0.702745138

>  <MWHBN>
0.385700087

>  <MWHBN-cont>
0.532400224

>  <TPSA-cont>
0.247698479

>  <pka_cont>
0.97

>  <yes.1>


>  <BBB_SCORE>
3.297758431

>  <MMFF94 Energy>
62.436

$$$$
Compound 206
Actelion Java MolfileCreator 2.0

  0  0  0  0  0  0              0 V3000
M  V30 BEGIN CTAB
M  V30 COUNTS 54 58 0 0 0
M  V30 BEGIN ATOM
M  V30 1 O -0.3216 4.3486 -0.0803 0
M  V30 2 C -0.2552 3.3486 -0.787 0
M  V30 3 N -0.1707 2.07 -0.3012 0
M  V30 4 C -0.2747 3.4546 -2.2828 0
M  V30 5 C -0.1052 0.9424 -1.0971 0
M  V30 6 C -0.1298 1.7202 1.1224 0
M  V30 7 C -0.2171 2.3499 -3.0486 0
M  V30 8 C -0.3823 4.8307 -2.8337 0
M  V30 9 C -0.0199 -0.2229 -0.2257 0
M  V30 10 C -0.1229 1.0332 -2.4292 0
M  V30 11 C -0.0345 0.2272 1.0834 0
M  V30 12 C -0.2762 2.4564 -4.5467 0 CFG=2
M  V30 13 O -0.2193 4.9326 -4.2636 0
M  V30 14 N 0.0521 -1.4994 -0.6105 0
M  V30 15 C 0.0354 -0.7004 2.1008 0
M  V30 16 O 0.7432 1.5938 -5.0904 0
M  V30 17 C 0.0388 3.8775 -5.0621 0
M  V30 18 C -1.6213 1.9877 -5.1443 0
M  V30 19 C 0.1228 -2.4056 0.3809 0
M  V30 20 C 0.1199 -2.077 1.7745 0
M  V30 21 O 0.467 4.046 -6.2058 0
M  V30 22 C -2.8521 2.7282 -4.6365 0
M  V30 23 C 0.2008 -3.7335 0.0019 0
M  V30 24 C 0.2004 -3.1266 2.7425 0
M  V30 25 C 0.2709 -4.7628 0.9369 0
M  V30 26 C 0.2675 -4.4563 2.291 0
M  V30 27 C 0.2316 -2.8618 4.241 0
M  V30 28 O 0.3087 -5.4742 3.2033 0
M  V30 29 N 1.5819 -2.9234 4.8345 0
M  V30 30 C 1.4856 -2.9674 6.2939 0
M  V30 31 C 2.4365 -1.8138 4.4208 0
M  V30 32 H -1.0481 2.0698 1.604 0
M  V30 33 H 0.7481 2.1851 1.581 0
M  V30 34 H 0.3842 5.478 -2.3942 0
M  V30 35 H -1.3612 5.259 -2.5924 0
M  V30 36 H -0.0569 0.1455 -3.0524 0
M  V30 37 H 0.0289 -0.3515 3.1269 0
M  V30 38 H 0.9039 1.9054 -6.0043 0
M  V30 39 H -1.7533 0.9132 -4.9603 0
M  V30 40 H -1.5848 2.0851 -6.2378 0
M  V30 41 H -3.7478 2.3471 -5.1381 0
M  V30 42 H -2.9928 2.587 -3.5608 0
M  V30 43 H -2.7885 3.8007 -4.8424 0
M  V30 44 H 0.2025 -3.9781 -1.0582 0
M  V30 45 H 0.3177 -5.7899 0.5888 0
M  V30 46 H -0.408 -3.6226 4.7109 0
M  V30 47 H -0.2639 -1.9176 4.4934 0
M  V30 48 H 0.555 -6.2971 2.7511 0
M  V30 49 H 0.909 -3.8411 6.6182 0
M  V30 50 H 1.011 -2.0681 6.7033 0
M  V30 51 H 2.4795 -3.0685 6.7442 0
M  V30 52 H 2.0106 -0.8406 4.6894 0
M  V30 53 H 2.6199 -1.8325 3.342 0
M  V30 54 H 3.423 -1.8931 4.8923 0
M  V30 END ATOM
M  V30 BEGIN BOND
M  V30 1 2 1 2
M  V30 2 1 2 3
M  V30 3 1 2 4
M  V30 4 1 3 5
M  V30 5 1 3 6
M  V30 6 2 4 7
M  V30 7 1 4 8
M  V30 8 1 5 9
M  V30 9 2 5 10
M  V30 10 1 6 11
M  V30 11 1 7 12
M  V30 12 1 8 13
M  V30 13 2 9 14
M  V30 14 2 11 15
M  V30 15 1 12 16
M  V30 16 1 12 17
M  V30 17 1 12 18
M  V30 18 1 14 19
M  V30 19 1 15 20
M  V30 20 2 17 21
M  V30 21 1 18 22
M  V30 22 2 19 23
M  V30 23 2 20 24
M  V30 24 1 23 25
M  V30 25 1 24 26
M  V30 26 1 24 27
M  V30 27 1 26 28
M  V30 28 1 27 29
M  V30 29 1 29 30
M  V30 30 1 29 31
M  V30 31 1 7 10
M  V30 32 1 9 11
M  V30 33 1 13 17
M  V30 34 1 19 20
M  V30 35 2 25 26
M  V30 36 1 6 32
M  V30 37 1 6 33
M  V30 38 1 8 34
M  V30 39 1 8 35
M  V30 40 1 10 36
M  V30 41 1 15 37
M  V30 42 1 16 38
M  V30 43 1 18 39
M  V30 44 1 18 40
M  V30 45 1 22 41
M  V30 46 1 22 42
M  V30 47 1 22 43
M  V30 48 1 23 44
M  V30 49 1 25 45
M  V30 50 1 27 46
M  V30 51 1 27 47
M  V30 52 1 28 48
M  V30 53 1 30 49
M  V30 54 1 30 50
M  V30 55 1 30 51
M  V30 56 1 31 52
M  V30 57 1 31 53
M  V30 58 1 31 54
M  V30 END BOND
M  V30 BEGIN COLLECTION
M  V30 MDLV30/STEABS ATOMS=(1 12)
M  V30 END COLLECTION
M  V30 END CTAB
M  END
>  <Column 1>
265

>  <level_0>
304

>  <index>
304

>  <Unnamed: 0>
304

>  <NO.>
305

>  <Name>
topotecan

>  <IUPAC_name>
(19s)-8-[(dimethylamino)methyl]-19-ethyl-7-19-dihydroxy-17-oxa-3-13-diazapentacyclo[11.8.0.02-11.04-9.015-20]henicosa-1(21)-2-4(9)-5-7-10-15(20)-heptaene-14-18-dione

>  <SMILES>
CC[C@@]1(O)C(=O)OCc2c1cc1n(c2=O)Cc2cc3c(CN(C)C)c(O)ccc3nc2-1

>  <CID>
60700

>  <logBB>
-0.42

>  <BBB+/BBB->
BBB+

>  <Inchi>
InChI=1S/C23H23N3O5/c1-4-23(30)16-8-18-20-12(9-26(18)21(28)15(16)11-31-22(23)29)7-13-14(10-25(2)3)19(27)6-5-17(13)24-20/h5-8-27-30H-4-9-11H2-1-3H3/t23-/m0/s1

>  <threshold>


>  <reference>
R2|R2|R20|R25|R27|R46|

>  <group>
A

>  <Class>
1

>  <ABC>
24.97

>  <ABCGG>
18.91

>  <nAcid>
0

>  <nBase>
1

>  <nAromAtom>
16

>  <nAromBond>
17

>  <nAtom>
54

>  <nHeavyAtom>
31

>  <nSpiro>
0

>  <nBridgehead>
0

>  <nHetero>
8

>  <nN>
3

>  <nO>
5

>  <nF>
0

>  <BalabanJ>
1.38

>  <BertzCT>
1327.26

>  <nBonds>
58

>  <nBondsO>
35

>  <nBondsS>
39

>  <nBondsD>
2

>  <nBondsT>
0

>  <nBondsA>
17

>  <nBondsM>
19

>  <nBondsKS>
49

>  <nBondsKD>
9

>  <RNCG>
0.17

>  <RPCG>
0.12

>  <FCSP3>
0.35

>  <SZ>
37

>  <Sm>
35.09

>  <Sv>
35.08

>  <Sse>
54.85

>  <Sp>
36.56

>  <Si>
60.69

>  <MZ>
0.69

>  <Mm>
0.65

>  <Mv>
0.65

>  <Mse>
1.02

>  <Mp>
0.68

>  <Mi>
1.12

>  <NsCH3>
3

>  <NdCH2>
0

>  <NssCH2>
4

>  <NtCH>
0

>  <NdsCH>
0

>  <NaaCH>
4

>  <NsssCH>
0

>  <NddC>
0

>  <NtsC>
0

>  <NdssC>
1

>  <NaasC>
7

>  <NaaaC>
2

>  <NssssC>
1

>  <NsNH3>
0

>  <NsNH2>
0

>  <NssNH2>
0

>  <NdNH>
0

>  <NssNH>
0

>  <NaaNH>
0

>  <NtN>
0

>  <NsssNH>
0

>  <NdsN>
0

>  <NaaN>
1

>  <NsssN>
1

>  <NddsN>
0

>  <NaasN>
1

>  <NssssN>
0

>  <NsOH>
2

>  <NdO>
2

>  <NssO>
1

>  <NaaO>
0

>  <NsF>
0

>  <NsSiH3>
0

>  <NssSiH2>
0

>  <NsssSiH>
0

>  <NssssSi>
0

>  <NsPH2>
0

>  <NssPH>
0

>  <NsssP>
0

>  <NdsssP>
0

>  <NsssssP>
0

>  <NsSH>
0

>  <NdS>
0

>  <NssS>
0

>  <NaaS>
0

>  <NdssS>
0

>  <NddssS>
0

>  <NsCl>
0

>  <NsBr>
0

>  <NsI>
0

>  <fragCpx>
295.08

>  <fMF>
0.39

>  <nHBAcc>
8

>  <nHBDon>
2

>  <Kier1>
22.78

>  <Kier2>
8.34

>  <Lipinski>
1

>  <GhoseFilter>
1

>  <FilterItLogS>
-5.1

>  <VMcGowan>
301.22

>  <LabuteASA>
177.88

>  <PEOE_VSA1>
24.42

>  <PEOE_VSA2>
4.79

>  <PEOE_VSA3>
9.78

>  <PEOE_VSA4>
0

>  <PEOE_VSA5>
0

>  <PEOE_VSA6>
6.92

>  <PEOE_VSA7>
44.78

>  <PEOE_VSA8>
28.62

>  <PEOE_VSA9>
29.01

>  <PEOE_VSA10>
12.36

>  <PEOE_VSA11>
5.6

>  <PEOE_VSA12>
0

>  <PEOE_VSA13>
5.56

>  <SMR_VSA1>
19.74

>  <SMR_VSA2>
0

>  <SMR_VSA3>
14.45

>  <SMR_VSA4>
0

>  <SMR_VSA5>
38.64

>  <SMR_VSA6>
14.1

>  <SMR_VSA7>
56.87

>  <SMR_VSA8>
0

>  <SMR_VSA9>
17.14

>  <SlogP_VSA1>
5.56

>  <SlogP_VSA2>
44.73

>  <SlogP_VSA3>
34.83

>  <SlogP_VSA4>
0

>  <SlogP_VSA5>
35.6

>  <SlogP_VSA6>
29.06

>  <SlogP_VSA7>
0

>  <SlogP_VSA8>
22.29

>  <SlogP_VSA9>
0

>  <SlogP_VSA10>
0

>  <SlogP_VSA11>
5.75

>  <EState_VSA1>
11.57

>  <EState_VSA2>
24.34

>  <EState_VSA3>
41.12

>  <EState_VSA4>
16.51

>  <EState_VSA5>
0

>  <EState_VSA6>
29.69

>  <EState_VSA7>
25.06

>  <EState_VSA8>
0

>  <EState_VSA9>
9.72

>  <EState_VSA10>
19.8

>  <VSA_EState1>
6.71

>  <VSA_EState2>
32.28

>  <VSA_EState3>
22.18

>  <VSA_EState4>
2.03

>  <VSA_EState5>
-0.53

>  <VSA_EState6>
7.05

>  <VSA_EState7>
0.1

>  <VSA_EState8>
2.41

>  <VSA_EState9>
3.86

>  <apol>
61.06

>  <bpol>
31.11

>  <nRing>
5

>  <nHRing>
4

>  <naRing>
3

>  <naHRing>
2

>  <nARing 2>
2

>  <nAHRing 2>
2

>  <nFRing>
1

>  <nFHRing>
1

>  <nFaRing>
0

>  <nFaHRing>
0

>  <nFARing 2>
1

>  <nFAHRing 2>
1

>  <nRot>
3

>  <SLogP>
1.85

>  <SMR>
113.58

>  <TopoPSA(NO)>
104.89

>  <TopoPSA>
104.89

>  <JGI1>
0.23

>  <JGI2>
0.1

>  <JGI3>
0.05

>  <JGI4>
0.06

>  <JGI5>
0.03

>  <Diameter>
13

>  <Radius>
7

>  <TMWC10>
146.61

>  <TSRW10>
82.33

>  <MW>
421.16

>  <AMW>
7.8

>  <WPath>
2485

>  <WPol>
64

>  <Zagreb1>
180

>  <Zagreb2>
226

>  <mZagreb2>
6.54

>  <yes>


>  <nAR-cont>
1

>  <nHA-cont>
0.702745138

>  <MWHBN>
0.487277593

>  <MWHBN-cont>
0

>  <TPSA-cont>
0.267802667

>  <pka_cont>
0.97

>  <yes.1>


>  <BBB_SCORE>
2.723350472

>  <MMFF94 Energy>
77.108

$$$$
Compound 207
Actelion Java MolfileCreator 2.0

  0  0  0  0  0  0              0 V3000
M  V30 BEGIN CTAB
M  V30 COUNTS 54 58 0 0 0
M  V30 BEGIN ATOM
M  V30 1 S 4.635 -1.7057 -2.1122 0 CFG=2
M  V30 2 O 3.8426 -1.7342 -3.5253 0
M  V30 3 C 5.5423 -3.1659 -2.0757 0
M  V30 4 C 3.4821 -1.7312 -0.8915 0
M  V30 5 C 5.5753 -0.2468 -2.1797 0
M  V30 6 O 6.0582 -3.5165 -3.1284 0
M  V30 7 O 5.6072 -3.8987 -0.9403 0
M  V30 8 C 3.7541 -2.5531 0.1379 0
M  V30 9 C 2.3059 -0.8984 -0.945 0
M  V30 10 C 6.6074 -0.2426 -3.2867 0
M  V30 11 C 4.9474 -3.462 0.273 0
M  V30 12 C 2.7974 -2.5734 1.2998 0
M  V30 13 C 1.4595 -0.9392 0.0858 0
M  V30 14 O 3.011 -3.274 2.2844 0
M  V30 15 N 1.7028 -1.7541 1.176 0
M  V30 16 C 0.2091 -0.2271 0.3183 0
M  V30 17 C 0.6409 -1.6295 2.1813 0
M  V30 18 N -0.3641 0.6597 -0.5053 0
M  V30 19 C -0.2797 -0.6295 1.5553 0
M  V30 20 C -1.5233 1.188 -0.069 0
M  V30 21 C -1.4635 -0.0889 2.0057 0
M  V30 22 C -2.1119 0.8447 1.1808 0
M  V30 23 C -2.1756 2.1125 -0.8691 0
M  V30 24 C -3.3229 1.4377 1.5718 0
M  V30 25 C -3.3819 2.6954 -0.4718 0
M  V30 26 C -3.9815 2.3611 0.7438 0
M  V30 27 O -3.9898 3.6131 -1.2834 0
M  V30 28 C -5.2758 3.0039 1.2036 0
M  V30 29 N -6.2568 2.0361 1.7417 0
M  V30 30 C -6.817 1.2104 0.6669 0
M  V30 31 C -7.3361 2.7526 2.4248 0
M  V30 32 H 4.2645 -2.3134 -4.2141 0
M  V30 33 H 4.8801 0.5882 -2.3103 0
M  V30 34 H 6.0662 -0.1306 -1.2085 0
M  V30 35 H 2.1236 -0.2716 -1.8122 0
M  V30 36 H 7.3414 -1.042 -3.1468 0
M  V30 37 H 7.146 0.7099 -3.299 0
M  V30 38 H 6.1409 -0.3822 -4.2669 0
M  V30 39 H 5.7062 -2.9891 0.9064 0
M  V30 40 H 4.6464 -4.3917 0.768 0
M  V30 41 H 0.1665 -2.605 2.3242 0
M  V30 42 H 1.0756 -1.27 3.119 0
M  V30 43 H -1.8791 -0.3787 2.9657 0
M  V30 44 H -1.7197 2.3754 -1.8192 0
M  V30 45 H -3.7745 1.1766 2.5283 0
M  V30 46 H -3.4583 3.7232 -2.0899 0
M  V30 47 H -5.7372 3.5954 0.4032 0
M  V30 48 H -4.993 3.7161 1.991 0
M  V30 49 H -6.0407 0.6131 0.1772 0
M  V30 50 H -7.3234 1.8117 -0.097 0
M  V30 51 H -7.5409 0.4952 1.0742 0
M  V30 52 H -7.8746 3.4314 1.7533 0
M  V30 53 H -6.9401 3.3376 3.2625 0
M  V30 54 H -8.0567 2.0463 2.8522 0
M  V30 END ATOM
M  V30 BEGIN BOND
M  V30 1 1 1 2
M  V30 2 1 1 3
M  V30 3 1 1 4
M  V30 4 1 1 5
M  V30 5 2 3 6
M  V30 6 1 3 7
M  V30 7 2 4 8
M  V30 8 1 4 9
M  V30 9 1 5 10
M  V30 10 1 7 11
M  V30 11 1 8 12
M  V30 12 2 9 13
M  V30 13 2 12 14
M  V30 14 1 12 15
M  V30 15 1 13 16
M  V30 16 1 15 17
M  V30 17 2 16 18
M  V30 18 1 16 19
M  V30 19 1 18 20
M  V30 20 2 19 21
M  V30 21 1 20 22
M  V30 22 2 20 23
M  V30 23 2 22 24
M  V30 24 1 23 25
M  V30 25 1 24 26
M  V30 26 1 25 27
M  V30 27 1 26 28
M  V30 28 1 28 29
M  V30 29 1 29 30
M  V30 30 1 29 31
M  V30 31 1 8 11
M  V30 32 1 13 15
M  V30 33 1 17 19
M  V30 34 1 21 22
M  V30 35 2 25 26
M  V30 36 1 2 32
M  V30 37 1 5 33
M  V30 38 1 5 34
M  V30 39 1 9 35
M  V30 40 1 10 36
M  V30 41 1 10 37
M  V30 42 1 10 38
M  V30 43 1 11 39
M  V30 44 1 11 40
M  V30 45 1 17 41
M  V30 46 1 17 42
M  V30 47 1 21 43
M  V30 48 1 23 44
M  V30 49 1 24 45
M  V30 50 1 27 46
M  V30 51 1 28 47
M  V30 52 1 28 48
M  V30 53 1 30 49
M  V30 54 1 30 50
M  V30 55 1 30 51
M  V30 56 1 31 52
M  V30 57 1 31 53
M  V30 58 1 31 54
M  V30 END BOND
M  V30 BEGIN COLLECTION
M  V30 MDLV30/STEABS ATOMS=(1 1)
M  V30 END COLLECTION
M  V30 END CTAB
M  END
>  <Column 1>
266

>  <level_0>
305

>  <index>
305

>  <Unnamed: 0>
305

>  <NO.>
306

>  <Name>
topotecan

>  <IUPAC_name>


>  <SMILES>
CC[S@@]1(O)C(=O)OCc2c1cc1n(c2=O)Cc2cc3cc(CN(C)C)c(O)cc3nc2-1

>  <CID>


>  <logBB>
-0.42

>  <BBB+/BBB->
BBB+

>  <Inchi>
InChI=1S/C22H23N3O5S/c1-4-31(29)19-8-17-20-14(10-25(17)21(27)15(19)11-30-22(31)28)6-12-5-13(9-24(2)3)18(26)7-16(12)23-20/h5-8-26-29H-4-9-11H2-1-3H3

>  <threshold>


>  <reference>
R18|R26|R27|

>  <group>
A

>  <Class>
1

>  <ABC>
25.01

>  <ABCGG>
18.68

>  <nAcid>
0

>  <nBase>
1

>  <nAromAtom>
16

>  <nAromBond>
17

>  <nAtom>
54

>  <nHeavyAtom>
31

>  <nSpiro>
0

>  <nBridgehead>
0

>  <nHetero>
9

>  <nN>
3

>  <nO>
5

>  <nF>
0

>  <BalabanJ>
1.34

>  <BertzCT>
1333.2

>  <nBonds>
58

>  <nBondsO>
35

>  <nBondsS>
39

>  <nBondsD>
2

>  <nBondsT>
0

>  <nBondsA>
17

>  <nBondsM>
19

>  <nBondsKS>
49

>  <nBondsKD>
9

>  <RNCG>
0.18

>  <RPCG>
0.13

>  <FCSP3>
0.32

>  <SZ>
38.67

>  <Sm>
36.76

>  <Sv>
35.27

>  <Sse>
54.93

>  <Sp>
37.3

>  <Si>
60.62

>  <MZ>
0.72

>  <Mm>
0.68

>  <Mv>
0.65

>  <Mse>
1.02

>  <Mp>
0.69

>  <Mi>
1.12

>  <NsCH3>
3

>  <NdCH2>
0

>  <NssCH2>
4

>  <NtCH>
0

>  <NdsCH>
0

>  <NaaCH>
4

>  <NsssCH>
0

>  <NddC>
0

>  <NtsC>
0

>  <NdssC>
1

>  <NaasC>
7

>  <NaaaC>
2

>  <NssssC>
0

>  <NsNH3>
0

>  <NsNH2>
0

>  <NssNH2>
0

>  <NdNH>
0

>  <NssNH>
0

>  <NaaNH>
0

>  <NtN>
0

>  <NsssNH>
0

>  <NdsN>
0

>  <NaaN>
1

>  <NsssN>
1

>  <NddsN>
0

>  <NaasN>
1

>  <NssssN>
0

>  <NsOH>
2

>  <NdO>
2

>  <NssO>
1

>  <NaaO>
0

>  <NsF>
0

>  <NsSiH3>
0

>  <NssSiH2>
0

>  <NsssSiH>
0

>  <NssssSi>
0

>  <NsPH2>
0

>  <NssPH>
0

>  <NsssP>
0

>  <NdsssP>
0

>  <NsssssP>
0

>  <NsSH>
0

>  <NdS>
0

>  <NssS>
0

>  <NaaS>
0

>  <NdssS>
0

>  <NddssS>
0

>  <NsCl>
0

>  <NsBr>
0

>  <NsI>
0

>  <fragCpx>
295.09

>  <fMF>
0.39

>  <nHBAcc>
8

>  <nHBDon>
2

>  <Kier1>
22.78

>  <Kier2>
8.34

>  <Lipinski>
1

>  <GhoseFilter>
1

>  <FilterItLogS>
-4.93

>  <VMcGowan>
307.78

>  <LabuteASA>
179.78

>  <PEOE_VSA1>
23.86

>  <PEOE_VSA2>
4.79

>  <PEOE_VSA3>
9.78

>  <PEOE_VSA4>
0

>  <PEOE_VSA5>
0

>  <PEOE_VSA6>
6.92

>  <PEOE_VSA7>
42.6

>  <PEOE_VSA8>
39.77

>  <PEOE_VSA9>
29.01

>  <PEOE_VSA10>
12.36

>  <PEOE_VSA11>
0

>  <PEOE_VSA12>
0

>  <PEOE_VSA13>
5.56

>  <SMR_VSA1>
19.19

>  <SMR_VSA2>
0

>  <SMR_VSA3>
14.45

>  <SMR_VSA4>
0

>  <SMR_VSA5>
31.52

>  <SMR_VSA6>
19.85

>  <SMR_VSA7>
51.31

>  <SMR_VSA8>
0

>  <SMR_VSA9>
17.14

>  <SlogP_VSA1>
5.56

>  <SlogP_VSA2>
49.26

>  <SlogP_VSA3>
24.43

>  <SlogP_VSA4>
0

>  <SlogP_VSA5>
23.61

>  <SlogP_VSA6>
33.96

>  <SlogP_VSA7>
0

>  <SlogP_VSA8>
22.29

>  <SlogP_VSA9>
0

>  <SlogP_VSA10>
4.79

>  <SlogP_VSA11>
5.75

>  <EState_VSA1>
15.61

>  <EState_VSA2>
23.67

>  <EState_VSA3>
40.45

>  <EState_VSA4>
16.51

>  <EState_VSA5>
0

>  <EState_VSA6>
23.62

>  <EState_VSA7>
31.13

>  <EState_VSA8>
0

>  <EState_VSA9>
9.72

>  <EState_VSA10>
19.25

>  <VSA_EState1>
17.77

>  <VSA_EState2>
32.59

>  <VSA_EState3>
10.66

>  <VSA_EState4>
3.58

>  <VSA_EState5>
0.35

>  <VSA_EState6>
7.27

>  <VSA_EState7>
0

>  <VSA_EState8>
2.54

>  <VSA_EState9>
0.99

>  <apol>
62.29

>  <bpol>
36.03

>  <nRing>
5

>  <nHRing>
4

>  <naRing>
3

>  <naHRing>
2

>  <nARing 2>
2

>  <nAHRing 2>
2

>  <nFRing>
1

>  <nFHRing>
1

>  <nFaRing>
0

>  <nFaHRing>
0

>  <nFARing 2>
1

>  <nFAHRing 2>
1

>  <nRot>
3

>  <SLogP>
3.5

>  <SMR>
118.81

>  <TopoPSA(NO)>
104.89

>  <TopoPSA>
104.89

>  <JGI1>
0.24

>  <JGI2>
0.1

>  <JGI3>
0.05

>  <JGI4>
0.06

>  <JGI5>
0.03

>  <Diameter>
14

>  <Radius>
7

>  <TMWC10>
146.48

>  <TSRW10>
82.3

>  <MW>
441.14

>  <AMW>
8.17

>  <WPath>
2557

>  <WPol>
63

>  <Zagreb1>
180

>  <Zagreb2>
225

>  <mZagreb2>
6.51

>  <yes>


>  <nAR-cont>
1

>  <nHA-cont>
0.702745138

>  <MWHBN>
0.476114908

>  <MWHBN-cont>
0

>  <TPSA-cont>
0.267802667

>  <pka_cont>
0.97

>  <yes.1>


>  <BBB_SCORE>
2.723350472

>  <MMFF94 Energy>
50.192

$$$$
Compound 208
Actelion Java MolfileCreator 2.0

  0  0  0  0  0  0              0 V3000
M  V30 BEGIN CTAB
M  V30 COUNTS 61 64 0 0 0
M  V30 BEGIN ATOM
M  V30 1 S 0.3213 3.9421 -0.482 0
M  V30 2 O 1.0527 3.3314 0.6082 0
M  V30 3 O 0.4283 5.3678 -0.7214 0
M  V30 4 N 0.6888 3.1455 -1.9217 0
M  V30 5 C -1.4098 3.5706 -0.2604 0
M  V30 6 C 0.5212 1.7346 -2.0377 0
M  V30 7 C 0.2888 3.7804 -3.2195 0
M  V30 8 C 0.1123 1.4014 -3.3221 0
M  V30 9 C 0.7887 0.7519 -1.1049 0
M  V30 10 C -0.0907 2.6172 -4.1682 0
M  V30 11 C 1.4613 4.5863 -3.768 0
M  V30 12 C -0.077 0.0777 -3.6997 0
M  V30 13 C 0.593 -0.5997 -1.4564 0
M  V30 14 C 0.1555 -0.9345 -2.7609 0
M  V30 15 C 0.8125 -1.658 -0.3927 0
M  V30 16 O 0.0111 -2.2725 -3.0197 0
M  V30 17 N -0.4378 -1.9416 0.3142 0
M  V30 18 C -0.6208 -2.6412 -4.2378 0
M  V30 19 C -0.2875 -2.6877 1.58 0
M  V30 20 C 0.3228 -1.8663 2.7777 0
M  V30 21 C 0.4705 -4.0152 1.4021 0
M  V30 22 N 0.3981 -2.6602 4.0202 0
M  V30 23 C -0.4365 -0.5696 3.0472 0
M  V30 24 C 0.5462 -4.7707 2.7269 0
M  V30 25 C 1.1493 -3.8983 3.8243 0
M  V30 26 C 0.2482 0.6555 3.0342 0
M  V30 27 C -1.8169 -0.5583 3.3117 0
M  V30 28 C -0.4279 1.8555 3.265 0
M  V30 29 C -2.4915 0.6433 3.5415 0
M  V30 30 C -1.7972 1.8502 3.5164 0
M  V30 31 H -1.9685 3.9219 -1.1292 0
M  V30 32 H -1.7503 4.101 0.6322 0
M  V30 33 H -1.5384 2.4972 -0.1154 0
M  V30 34 H -0.5809 4.4346 -3.0876 0
M  V30 35 H 1.1468 1.0047 -0.112 0
M  V30 36 H 0.5381 2.5823 -5.0636 0
M  V30 37 H -1.1407 2.6981 -4.4696 0
M  V30 38 H 1.7346 5.4004 -3.0893 0
M  V30 39 H 2.35 3.9591 -3.9006 0
M  V30 40 H 1.2071 5.0273 -4.7374 0
M  V30 41 H -0.3938 -0.1378 -4.7134 0
M  V30 42 H 1.5881 -1.2975 0.2929 0
M  V30 43 H 1.212 -2.5661 -0.8576 0
M  V30 44 H -0.9006 -1.0546 0.52 0
M  V30 45 H -1.6146 -2.1892 -4.3245 0
M  V30 46 H -0.7492 -3.7279 -4.232 0
M  V30 47 H 0.007 -2.3857 -5.0974 0
M  V30 48 H -1.3136 -2.9625 1.862 0
M  V30 49 H 1.3537 -1.5971 2.5114 0
M  V30 50 H 1.4934 -3.8356 1.0497 0
M  V30 51 H -0.0267 -4.6409 0.6513 0
M  V30 52 H -0.5481 -2.8826 4.325 0
M  V30 53 H 1.1526 -5.6746 2.5998 0
M  V30 54 H -0.4584 -5.0986 3.0223 0
M  V30 55 H 1.158 -4.4566 4.7671 0
M  V30 56 H 2.1954 -3.6644 3.5921 0
M  V30 57 H 1.3193 0.689 2.8444 0
M  V30 58 H -2.3808 -1.487 3.3445 0
M  V30 59 H 0.1229 2.7936 3.2485 0
M  V30 60 H -3.5585 0.6351 3.7482 0
M  V30 61 H -2.3188 2.7848 3.7035 0
M  V30 END ATOM
M  V30 BEGIN BOND
M  V30 1 2 1 2
M  V30 2 2 1 3
M  V30 3 1 1 4
M  V30 4 1 1 5
M  V30 5 1 4 6
M  V30 6 1 4 7
M  V30 7 2 6 8
M  V30 8 1 6 9
M  V30 9 1 7 10
M  V30 10 1 7 11
M  V30 11 1 8 12
M  V30 12 2 9 13
M  V30 13 2 12 14
M  V30 14 1 13 15
M  V30 15 1 14 16
M  V30 16 1 15 17
M  V30 17 1 16 18
M  V30 18 1 17 19
M  V30 19 1 19 20
M  V30 20 1 19 21
M  V30 21 1 20 22
M  V30 22 1 20 23
M  V30 23 1 21 24
M  V30 24 1 22 25
M  V30 25 2 23 26
M  V30 26 1 23 27
M  V30 27 1 26 28
M  V30 28 2 27 29
M  V30 29 2 28 30
M  V30 30 1 8 10
M  V30 31 1 13 14
M  V30 32 1 24 25
M  V30 33 1 29 30
M  V30 34 1 5 31
M  V30 35 1 5 32
M  V30 36 1 5 33
M  V30 37 1 7 34
M  V30 38 1 9 35
M  V30 39 1 10 36
M  V30 40 1 10 37
M  V30 41 1 11 38
M  V30 42 1 11 39
M  V30 43 1 11 40
M  V30 44 1 12 41
M  V30 45 1 15 42
M  V30 46 1 15 43
M  V30 47 1 17 44
M  V30 48 1 18 45
M  V30 49 1 18 46
M  V30 50 1 18 47
M  V30 51 1 19 48
M  V30 52 1 20 49
M  V30 53 1 21 50
M  V30 54 1 21 51
M  V30 55 1 22 52
M  V30 56 1 24 53
M  V30 57 1 24 54
M  V30 58 1 25 55
M  V30 59 1 25 56
M  V30 60 1 26 57
M  V30 61 1 27 58
M  V30 62 1 28 59
M  V30 63 1 29 60
M  V30 64 1 30 61
M  V30 END BOND
M  V30 END CTAB
M  END
>  <Column 1>
267

>  <level_0>
306

>  <index>
306

>  <Unnamed: 0>
306

>  <NO.>
307

>  <Name>
pfizer compound 14

>  <IUPAC_name>
n-[(5-methoxy-2-methyl-1-methylsulfonyl-2-3-dihydroindol-6-yl)methyl]-2-phenylpiperidin-3-amine

>  <SMILES>
COc1cc2c(cc1CNC1CCCNC1c1ccccc1)N(S(C)(=O)=O)C(C)C2

>  <CID>
19696654

>  <logBB>
-0.42

>  <BBB+/BBB->
BBB+

>  <Inchi>
InChI=1S/C23H31N3O3S/c1-16-12-18-14-22(29-2)19(13-21(18)26(16)30(3-27)28)15-25-20-10-7-11-24-23(20)17-8-5-4-6-9-17/h4-6-8-9-13-14-16-20-23-25H-7-10-12-15H2-1-3H3

>  <threshold>


>  <reference>
R25|R46|R47|R4|R2|R2|R8|R27|R40|

>  <group>
A

>  <Class>
1

>  <ABC>
23.62

>  <ABCGG>
18.76

>  <nAcid>
0

>  <nBase>
2

>  <nAromAtom>
12

>  <nAromBond>
12

>  <nAtom>
61

>  <nHeavyAtom>
30

>  <nSpiro>
0

>  <nBridgehead>
0

>  <nHetero>
7

>  <nN>
3

>  <nO>
3

>  <nF>
0

>  <BalabanJ>
1.4

>  <BertzCT>
994.25

>  <nBonds>
64

>  <nBondsO>
33

>  <nBondsS>
50

>  <nBondsD>
2

>  <nBondsT>
0

>  <nBondsA>
12

>  <nBondsM>
14

>  <nBondsKS>
56

>  <nBondsKD>
8

>  <RNCG>
0.21

>  <RPCG>
0.1

>  <FCSP3>
0.48

>  <SZ>
38.33

>  <Sm>
35.77

>  <Sv>
37

>  <Sse>
60.82

>  <Sp>
40.53

>  <Si>
68.86

>  <MZ>
0.63

>  <Mm>
0.59

>  <Mv>
0.61

>  <Mse>
1

>  <Mp>
0.66

>  <Mi>
1.13

>  <NsCH3>
3

>  <NdCH2>
0

>  <NssCH2>
5

>  <NtCH>
0

>  <NdsCH>
0

>  <NaaCH>
7

>  <NsssCH>
3

>  <NddC>
0

>  <NtsC>
0

>  <NdssC>
0

>  <NaasC>
5

>  <NaaaC>
0

>  <NssssC>
0

>  <NsNH3>
0

>  <NsNH2>
0

>  <NssNH2>
0

>  <NdNH>
0

>  <NssNH>
2

>  <NaaNH>
0

>  <NtN>
0

>  <NsssNH>
0

>  <NdsN>
0

>  <NaaN>
0

>  <NsssN>
1

>  <NddsN>
0

>  <NaasN>
0

>  <NssssN>
0

>  <NsOH>
0

>  <NdO>
2

>  <NssO>
1

>  <NaaO>
0

>  <NsF>
0

>  <NsSiH3>
0

>  <NssSiH2>
0

>  <NsssSiH>
0

>  <NssssSi>
0

>  <NsPH2>
0

>  <NssPH>
0

>  <NsssP>
0

>  <NdsssP>
0

>  <NsssssP>
0

>  <NsSH>
0

>  <NdS>
0

>  <NssS>
0

>  <NaaS>
0

>  <NdssS>
0

>  <NddssS>
1

>  <NsCl>
0

>  <NsBr>
0

>  <NsI>
0

>  <fragCpx>
219.07

>  <fMF>
0.38

>  <nHBAcc>
5

>  <nHBDon>
2

>  <Kier1>
23.17

>  <Kier2>
9.87

>  <Lipinski>
1

>  <GhoseFilter>
1

>  <FilterItLogS>
-5.67

>  <VMcGowan>
329.59

>  <LabuteASA>
179.23

>  <PEOE_VSA1>
15.37

>  <PEOE_VSA2>
4.31

>  <PEOE_VSA3>
8.42

>  <PEOE_VSA4>
0

>  <PEOE_VSA5>
0

>  <PEOE_VSA6>
30.33

>  <PEOE_VSA7>
55.99

>  <PEOE_VSA8>
30.23

>  <PEOE_VSA9>
19.05

>  <PEOE_VSA10>
5.75

>  <PEOE_VSA11>
0

>  <PEOE_VSA12>
10.02

>  <PEOE_VSA13>
0

>  <SMR_VSA1>
13.15

>  <SMR_VSA2>
0

>  <SMR_VSA3>
10.63

>  <SMR_VSA4>
0

>  <SMR_VSA5>
50.86

>  <SMR_VSA6>
24.22

>  <SMR_VSA7>
59.15

>  <SMR_VSA8>
0

>  <SMR_VSA9>
5.75

>  <SlogP_VSA1>
19.68

>  <SlogP_VSA2>
40.41

>  <SlogP_VSA3>
22.99

>  <SlogP_VSA4>
0

>  <SlogP_VSA5>
42.5

>  <SlogP_VSA6>
42.46

>  <SlogP_VSA7>
0

>  <SlogP_VSA8>
0

>  <SlogP_VSA9>
0

>  <SlogP_VSA10>
5.69

>  <SlogP_VSA11>
5.75

>  <EState_VSA1>
10.02

>  <EState_VSA2>
12.08

>  <EState_VSA3>
19.01

>  <EState_VSA4>
41.95

>  <EState_VSA5>
11.82

>  <EState_VSA6>
11.42

>  <EState_VSA7>
25.12

>  <EState_VSA8>
34.9

>  <EState_VSA9>
4.74

>  <EState_VSA10>
8.42

>  <VSA_EState1>
31.89

>  <VSA_EState2>
0

>  <VSA_EState3>
7.35

>  <VSA_EState4>
4.07

>  <VSA_EState5>
0.81

>  <VSA_EState6>
14.99

>  <VSA_EState7>
4.2

>  <VSA_EState8>
3.59

>  <VSA_EState9>
-1.65

>  <apol>
67.69

>  <bpol>
42.34

>  <nRing>
4

>  <nHRing>
2

>  <naRing>
2

>  <naHRing>
0

>  <nARing 2>
2

>  <nAHRing 2>
2

>  <nFRing>
1

>  <nFHRing>
1

>  <nFaRing>
0

>  <nFaHRing>
0

>  <nFARing 2>
1

>  <nFAHRing 2>
1

>  <nRot>
6

>  <SLogP>
2.99

>  <SMR>
120.53

>  <TopoPSA(NO)>
70.67

>  <TopoPSA>
79.05

>  <JGI1>
0.2

>  <JGI2>
0.08

>  <JGI3>
0.06

>  <JGI4>
0.03

>  <JGI5>
0.03

>  <Diameter>
13

>  <Radius>
7

>  <TMWC10>
141.05

>  <TSRW10>
80.34

>  <MW>
429.21

>  <AMW>
7.04

>  <WPath>
2491

>  <WPol>
50

>  <Zagreb1>
162

>  <Zagreb2>
193

>  <mZagreb2>
6.5

>  <yes>


>  <nAR-cont>
1

>  <nHA-cont>
0.74523694

>  <MWHBN>
0.337880497

>  <MWHBN-cont>
0.714806833

>  <TPSA-cont>
0.448181913

>  <pka_cont>
0.97

>  <yes.1>


>  <BBB_SCORE>
4.198811015

>  <MMFF94 Energy>
45.057

$$$$
Compound 209
Actelion Java MolfileCreator 2.0

  0  0  0  0  0  0              0 V3000
M  V30 BEGIN CTAB
M  V30 COUNTS 41 42 0 0 0
M  V30 BEGIN ATOM
M  V30 1 S 0.7972 2.8723 2.3932 0
M  V30 2 O 1.611 3.6383 3.3141 0
M  V30 3 O -0.0101 1.7693 2.8703 0
M  V30 4 N -0.2669 3.9374 1.6601 0
M  V30 5 C 1.8453 2.3026 1.0441 0
M  V30 6 C 0.1214 5.333 1.5147 0
M  V30 7 C 1.0276 1.8441 -0.1369 0
M  V30 8 C 0.3477 0.6128 -0.0984 0
M  V30 9 C 0.9525 2.6336 -1.292 0
M  V30 10 C -0.4094 0.1856 -1.2096 0
M  V30 11 C 0.2121 2.2305 -2.4087 0
M  V30 12 C -0.456 1.0044 -2.3362 0
M  V30 13 C -1.205 -0.9727 -1.4855 0
M  V30 14 N -1.2463 0.3689 -3.2651 0
M  V30 15 C -1.7019 -0.8205 -2.7653 0
M  V30 16 C -1.4574 -2.1283 -0.5633 0
M  V30 17 C -0.2834 -3.1233 -0.5465 0
M  V30 18 N -0.5366 -4.3299 0.2685 0
M  V30 19 C -0.6149 -4.0158 1.6973 0
M  V30 20 C 0.5236 -5.3152 0.0389 0
M  V30 21 H -1.2419 3.7275 1.875 0
M  V30 22 H 2.4623 1.4848 1.4303 0
M  V30 23 H 2.5108 3.1301 0.777 0
M  V30 24 H 0.0092 5.8603 2.4657 0
M  V30 25 H -0.535 5.8098 0.7811 0
M  V30 26 H 1.1496 5.4253 1.1549 0
M  V30 27 H 0.3896 -0.014 0.7894 0
M  V30 28 H 1.4749 3.5876 -1.3375 0
M  V30 29 H 0.1611 2.8528 -3.2962 0
M  V30 30 H -1.4597 0.7344 -4.1825 0
M  V30 31 H -2.3438 -1.4584 -3.3585 0
M  V30 32 H -2.3737 -2.6468 -0.8738 0
M  V30 33 H -1.646 -1.7322 0.441 0
M  V30 34 H -0.1027 -3.434 -1.5848 0
M  V30 35 H 0.6335 -2.6199 -0.2116 0
M  V30 36 H -1.476 -3.3772 1.9168 0
M  V30 37 H 0.291 -3.5184 2.0618 0
M  V30 38 H -0.7624 -4.9301 2.2838 0
M  V30 39 H 1.5105 -4.9359 0.3279 0
M  V30 40 H 0.5597 -5.6043 -1.0173 0
M  V30 41 H 0.3265 -6.2326 0.6049 0
M  V30 END ATOM
M  V30 BEGIN BOND
M  V30 1 2 1 2
M  V30 2 2 1 3
M  V30 3 1 1 4
M  V30 4 1 1 5
M  V30 5 1 4 6
M  V30 6 1 5 7
M  V30 7 2 7 8
M  V30 8 1 7 9
M  V30 9 1 8 10
M  V30 10 2 9 11
M  V30 11 2 10 12
M  V30 12 1 10 13
M  V30 13 1 12 14
M  V30 14 2 13 15
M  V30 15 1 13 16
M  V30 16 1 16 17
M  V30 17 1 17 18
M  V30 18 1 18 19
M  V30 19 1 18 20
M  V30 20 1 11 12
M  V30 21 1 14 15
M  V30 22 1 4 21
M  V30 23 1 5 22
M  V30 24 1 5 23
M  V30 25 1 6 24
M  V30 26 1 6 25
M  V30 27 1 6 26
M  V30 28 1 8 27
M  V30 29 1 9 28
M  V30 30 1 11 29
M  V30 31 1 14 30
M  V30 32 1 15 31
M  V30 33 1 16 32
M  V30 34 1 16 33
M  V30 35 1 17 34
M  V30 36 1 17 35
M  V30 37 1 19 36
M  V30 38 1 19 37
M  V30 39 1 19 38
M  V30 40 1 20 39
M  V30 41 1 20 40
M  V30 42 1 20 41
M  V30 END BOND
M  V30 END CTAB
M  END
>  <Column 1>
269

>  <level_0>
308

>  <index>
308

>  <Unnamed: 0>
308

>  <NO.>
309

>  <Name>
sumatriptan

>  <IUPAC_name>
1-[3-[2-(dimethylamino)ethyl]-1h-indol-5-yl]-n-methylmethanesulfonamide

>  <SMILES>
CNS(=O)(=O)Cc1ccc2[nH]cc(CCN(C)C)c2c1

>  <CID>
5358

>  <logBB>
-0.4

>  <BBB+/BBB->
BBB+

>  <Inchi>
InChI=1S/C14H21N3O2S/c1-15-20(18-19)10-11-4-5-14-13(8-11)12(9-16-14)6-7-17(2)3/h4-5-8-9-15-16H-6-7-10H2-1-3H3

>  <threshold>


>  <reference>
R18|R26|R27|R47|R2|R2|R25|R27|R46|

>  <group>
A

>  <Class>
1

>  <ABC>
15.3

>  <ABCGG>
13.34

>  <nAcid>
0

>  <nBase>
1

>  <nAromAtom>
9

>  <nAromBond>
10

>  <nAtom>
41

>  <nHeavyAtom>
20

>  <nSpiro>
0

>  <nBridgehead>
0

>  <nHetero>
6

>  <nN>
3

>  <nO>
2

>  <nF>
0

>  <BalabanJ>
1.87

>  <BertzCT>
689.51

>  <nBonds>
42

>  <nBondsO>
21

>  <nBondsS>
30

>  <nBondsD>
2

>  <nBondsT>
0

>  <nBondsA>
10

>  <nBondsM>
12

>  <nBondsKS>
36

>  <nBondsKD>
6

>  <RNCG>
0.23

>  <RPCG>
0.14

>  <FCSP3>
0.43

>  <SZ>
26.33

>  <Sm>
24.59

>  <Sv>
24.58

>  <Sse>
41.05

>  <Sp>
27.06

>  <Si>
46.57

>  <MZ>
0.64

>  <Mm>
0.6

>  <Mv>
0.6

>  <Mse>
1

>  <Mp>
0.66

>  <Mi>
1.14

>  <NsCH3>
3

>  <NdCH2>
0

>  <NssCH2>
3

>  <NtCH>
0

>  <NdsCH>
0

>  <NaaCH>
4

>  <NsssCH>
0

>  <NddC>
0

>  <NtsC>
0

>  <NdssC>
0

>  <NaasC>
2

>  <NaaaC>
2

>  <NssssC>
0

>  <NsNH3>
0

>  <NsNH2>
0

>  <NssNH2>
0

>  <NdNH>
0

>  <NssNH>
1

>  <NaaNH>
1

>  <NtN>
0

>  <NsssNH>
0

>  <NdsN>
0

>  <NaaN>
0

>  <NsssN>
1

>  <NddsN>
0

>  <NaasN>
0

>  <NssssN>
0

>  <NsOH>
0

>  <NdO>
2

>  <NssO>
0

>  <NaaO>
0

>  <NsF>
0

>  <NsSiH3>
0

>  <NssSiH2>
0

>  <NsssSiH>
0

>  <NssssSi>
0

>  <NsPH2>
0

>  <NssPH>
0

>  <NsssP>
0

>  <NdsssP>
0

>  <NsssssP>
0

>  <NsSH>
0

>  <NdS>
0

>  <NssS>
0

>  <NaaS>
0

>  <NdssS>
0

>  <NddssS>
1

>  <NsCl>
0

>  <NsBr>
0

>  <NsI>
0

>  <fragCpx>
61.06

>  <fMF>
0.22

>  <nHBAcc>
3

>  <nHBDon>
2

>  <Kier1>
16.37

>  <Kier2>
6.84

>  <Lipinski>
1

>  <GhoseFilter>
1

>  <FilterItLogS>
-4.36

>  <VMcGowan>
227.23

>  <LabuteASA>
119.58

>  <PEOE_VSA1>
9.88

>  <PEOE_VSA2>
0

>  <PEOE_VSA3>
13.14

>  <PEOE_VSA4>
0

>  <PEOE_VSA5>
0

>  <PEOE_VSA6>
6.07

>  <PEOE_VSA7>
50.82

>  <PEOE_VSA8>
23.64

>  <PEOE_VSA9>
5.75

>  <PEOE_VSA10>
0

>  <PEOE_VSA11>
0

>  <PEOE_VSA12>
10.02

>  <PEOE_VSA13>
0

>  <SMR_VSA1>
8.42

>  <SMR_VSA2>
0

>  <SMR_VSA3>
14.61

>  <SMR_VSA4>
0

>  <SMR_VSA5>
12.17

>  <SMR_VSA6>
27.69

>  <SMR_VSA7>
35.52

>  <SMR_VSA8>
0

>  <SMR_VSA9>
0

>  <SlogP_VSA1>
4.72

>  <SlogP_VSA2>
45.99

>  <SlogP_VSA3>
22.2

>  <SlogP_VSA4>
0

>  <SlogP_VSA5>
11.13

>  <SlogP_VSA6>
24.4

>  <SlogP_VSA7>
0

>  <SlogP_VSA8>
10.9

>  <SlogP_VSA9>
0

>  <SlogP_VSA10>
0

>  <SlogP_VSA11>
0

>  <EState_VSA1>
10.02

>  <EState_VSA2>
5.75

>  <EState_VSA3>
0

>  <EState_VSA4>
29.43

>  <EState_VSA5>
12.61

>  <EState_VSA6>
0

>  <EState_VSA7>
38.49

>  <EState_VSA8>
14.61

>  <EState_VSA9>
0

>  <EState_VSA10>
8.42

>  <VSA_EState1>
25.58

>  <VSA_EState2>
5.37

>  <VSA_EState3>
1.11

>  <VSA_EState4>
3.07

>  <VSA_EState5>
0.01

>  <VSA_EState6>
5.75

>  <VSA_EState7>
2.94

>  <VSA_EState8>
0.96

>  <VSA_EState9>
2.29

>  <apol>
45.19

>  <bpol>
30.57

>  <nRing>
2

>  <nHRing>
1

>  <naRing>
2

>  <naHRing>
1

>  <nARing 2>
0

>  <nAHRing 2>
0

>  <nFRing>
1

>  <nFHRing>
1

>  <nFaRing>
1

>  <nFaHRing>
1

>  <nFARing 2>
0

>  <nFAHRing 2>
0

>  <nRot>
6

>  <SLogP>
1.32

>  <SMR>
82.24

>  <TopoPSA(NO)>
65.2

>  <TopoPSA>
73.58

>  <JGI1>
0.29

>  <JGI2>
0.08

>  <JGI3>
0.05

>  <JGI4>
0.04

>  <JGI5>
0.03

>  <Diameter>
11

>  <Radius>
6

>  <TMWC10>
113.71

>  <TSRW10>
67.38

>  <MW>
295.14

>  <AMW>
7.2

>  <WPath>
859

>  <WPol>
27

>  <Zagreb1>
102

>  <Zagreb2>
116

>  <mZagreb2>
4.39

>  <yes>


>  <nAR-cont>
0.336376

>  <nHA-cont>
0.999629945

>  <MWHBN>
0.291042202

>  <MWHBN-cont>
0.866650143

>  <TPSA-cont>
0.48636591

>  <pka_cont>
0.97

>  <yes.1>


>  <BBB_SCORE>
4.093712978

>  <MMFF94 Energy>
1.9101

$$$$
Compound 210
Actelion Java MolfileCreator 2.0

  0  0  0  0  0  0              0 V3000
M  V30 BEGIN CTAB
M  V30 COUNTS 45 46 0 0 0
M  V30 BEGIN ATOM
M  V30 1 O 5.3515 0.0785 5.3515 0
M  V30 2 C 4.4686 0.2783 4.5206 0
M  V30 3 N 3.3073 0.9166 4.8637 0
M  V30 4 C 4.635 -0.067 3.0611 0
M  V30 5 C 2.2467 1.1409 3.9798 0
M  V30 6 C 3.3194 -0.5031 2.4348 0
M  V30 7 C 2.215 0.4754 2.7455 0
M  V30 8 C 1.2206 2.0049 4.3534 0
M  V30 9 C 1.1248 0.6736 1.8808 0
M  V30 10 C 0.1514 2.2139 3.4864 0
M  V30 11 O 1.1506 -0.0408 0.7126 0
M  V30 12 C 0.1024 1.5512 2.2566 0
M  V30 13 C 0.0889 0.1863 -0.2266 0
M  V30 14 C 0.369 -0.6985 -1.4485 0 CFG=1
M  V30 15 O 0.29 -2.0851 -1.0711 0
M  V30 16 C -0.6114 -0.4362 -2.608 0
M  V30 17 N -1.9947 -0.715 -2.1996 0
M  V30 18 C -3.0123 -0.6525 -3.2634 0
M  V30 19 C -3.0215 0.71 -3.9746 0
M  V30 20 C -4.3705 -0.8442 -2.5617 0
M  V30 21 C -2.8336 -1.7811 -4.2927 0
M  V30 22 H 3.2405 1.2214 5.8262 0
M  V30 23 H 5.3768 -0.8668 2.9647 0
M  V30 24 H 5.0267 0.8233 2.5544 0
M  V30 25 H 3.0242 -1.4862 2.8219 0
M  V30 26 H 3.4699 -0.6004 1.354 0
M  V30 27 H 1.2425 2.5205 5.3092 0
M  V30 28 H -0.6527 2.8889 3.7695 0
M  V30 29 H -0.7578 1.7353 1.6205 0
M  V30 30 H 0.0744 1.2403 -0.5268 0
M  V30 31 H -0.8612 -0.1038 0.2366 0
M  V30 32 H 1.3944 -0.5307 -1.7981 0
M  V30 33 H 0.8062 -2.1629 -0.2465 0
M  V30 34 H -0.5064 0.605 -2.9292 0
M  V30 35 H -0.3263 -1.0895 -3.4388 0
M  V30 36 H -1.9975 -1.6515 -1.7811 0
M  V30 37 H -2.1141 0.8686 -4.5671 0
M  V30 38 H -3.8717 0.7868 -4.6625 0
M  V30 39 H -3.1052 1.5338 -3.2562 0
M  V30 40 H -4.5495 -0.0605 -1.8156 0
M  V30 41 H -5.1964 -0.8072 -3.2816 0
M  V30 42 H -4.4255 -1.8121 -2.0491 0
M  V30 43 H -1.9211 -1.6567 -4.8847 0
M  V30 44 H -2.7887 -2.7621 -3.8058 0
M  V30 45 H -3.6732 -1.8033 -4.9973 0
M  V30 END ATOM
M  V30 BEGIN BOND
M  V30 1 2 1 2
M  V30 2 1 2 3
M  V30 3 1 2 4
M  V30 4 1 3 5
M  V30 5 1 4 6
M  V30 6 2 5 7
M  V30 7 1 5 8
M  V30 8 1 7 9
M  V30 9 2 8 10
M  V30 10 1 9 11
M  V30 11 2 9 12
M  V30 12 1 11 13
M  V30 13 1 13 14
M  V30 14 1 14 15
M  V30 15 1 14 16
M  V30 16 1 16 17
M  V30 17 1 17 18
M  V30 18 1 18 19
M  V30 19 1 18 20
M  V30 20 1 18 21
M  V30 21 1 6 7
M  V30 22 1 10 12
M  V30 23 1 3 22
M  V30 24 1 4 23
M  V30 25 1 4 24
M  V30 26 1 6 25
M  V30 27 1 6 26
M  V30 28 1 8 27
M  V30 29 1 10 28
M  V30 30 1 12 29
M  V30 31 1 13 30
M  V30 32 1 13 31
M  V30 33 1 14 32
M  V30 34 1 15 33
M  V30 35 1 16 34
M  V30 36 1 16 35
M  V30 37 1 17 36
M  V30 38 1 19 37
M  V30 39 1 19 38
M  V30 40 1 19 39
M  V30 41 1 20 40
M  V30 42 1 20 41
M  V30 43 1 20 42
M  V30 44 1 21 43
M  V30 45 1 21 44
M  V30 46 1 21 45
M  V30 END BOND
M  V30 BEGIN COLLECTION
M  V30 MDLV30/STERAC1 ATOMS=(1 14)
M  V30 END COLLECTION
M  V30 END CTAB
M  END
>  <Column 1>
270

>  <level_0>
309

>  <index>
309

>  <Unnamed: 0>
309

>  <NO.>
310

>  <Name>
carteolol

>  <IUPAC_name>
5-[3-(tert-butylamino)-2-hydroxypropoxy]-3-4-dihydro-1h-quinolin-2-one

>  <SMILES>
CC(C)(C)NCC(O)COc1cccc2c1CCC(=O)N2

>  <CID>
2583

>  <logBB>
-0.4

>  <BBB+/BBB->
BBB+

>  <Inchi>
InChI=1S/C16H24N2O3/c1-16(2-3)17-9-11(19)10-21-14-6-4-5-13-12(14)7-8-15(20)18-13/h4-6-11-17-19H-7-10H2-1-3H3-(H-18-20)

>  <threshold>


>  <reference>
R18|R26|R27|R40|R3|R25|R38|R41|R46|R47|R8|R21|R27|R43|

>  <group>
A

>  <Class>
1

>  <ABC>
16.17

>  <ABCGG>
13.15

>  <nAcid>
0

>  <nBase>
1

>  <nAromAtom>
6

>  <nAromBond>
6

>  <nAtom>
45

>  <nHeavyAtom>
21

>  <nSpiro>
0

>  <nBridgehead>
0

>  <nHetero>
5

>  <nN>
2

>  <nO>
3

>  <nF>
0

>  <BalabanJ>
1.74

>  <BertzCT>
508.73

>  <nBonds>
46

>  <nBondsO>
22

>  <nBondsS>
39

>  <nBondsD>
1

>  <nBondsT>
0

>  <nBondsA>
6

>  <nBondsM>
7

>  <nBondsKS>
42

>  <nBondsKD>
4

>  <RNCG>
0.24

>  <RPCG>
0.11

>  <FCSP3>
0.56

>  <SZ>
26.33

>  <Sm>
24.34

>  <Sv>
26.16

>  <Sse>
44.97

>  <Sp>
28.34

>  <Si>
51.19

>  <MZ>
0.59

>  <Mm>
0.54

>  <Mv>
0.58

>  <Mse>
1

>  <Mp>
0.63

>  <Mi>
1.14

>  <NsCH3>
3

>  <NdCH2>
0

>  <NssCH2>
4

>  <NtCH>
0

>  <NdsCH>
0

>  <NaaCH>
3

>  <NsssCH>
1

>  <NddC>
0

>  <NtsC>
0

>  <NdssC>
1

>  <NaasC>
3

>  <NaaaC>
0

>  <NssssC>
1

>  <NsNH3>
0

>  <NsNH2>
0

>  <NssNH2>
0

>  <NdNH>
0

>  <NssNH>
2

>  <NaaNH>
0

>  <NtN>
0

>  <NsssNH>
0

>  <NdsN>
0

>  <NaaN>
0

>  <NsssN>
0

>  <NddsN>
0

>  <NaasN>
0

>  <NssssN>
0

>  <NsOH>
1

>  <NdO>
1

>  <NssO>
1

>  <NaaO>
0

>  <NsF>
0

>  <NsSiH3>
0

>  <NssSiH2>
0

>  <NsssSiH>
0

>  <NssssSi>
0

>  <NsPH2>
0

>  <NssPH>
0

>  <NsssP>
0

>  <NdsssP>
0

>  <NsssssP>
0

>  <NsSH>
0

>  <NdS>
0

>  <NssS>
0

>  <NaaS>
0

>  <NdssS>
0

>  <NddssS>
0

>  <NsCl>
0

>  <NsBr>
0

>  <NsI>
0

>  <fragCpx>
64.05

>  <fMF>
0.22

>  <nHBAcc>
4

>  <nHBDon>
3

>  <Kier1>
17.36

>  <Kier2>
7.51

>  <Lipinski>
1

>  <GhoseFilter>
1

>  <FilterItLogS>
-3.99

>  <VMcGowan>
234.95

>  <LabuteASA>
125.24

>  <PEOE_VSA1>
20.48

>  <PEOE_VSA2>
4.79

>  <PEOE_VSA3>
0

>  <PEOE_VSA4>
0

>  <PEOE_VSA5>
0

>  <PEOE_VSA6>
6.07

>  <PEOE_VSA7>
39.32

>  <PEOE_VSA8>
29.76

>  <PEOE_VSA9>
0

>  <PEOE_VSA10>
18.46

>  <PEOE_VSA11>
0

>  <PEOE_VSA12>
5.91

>  <PEOE_VSA13>
0

>  <SMR_VSA1>
14.64

>  <SMR_VSA2>
0

>  <SMR_VSA3>
5.32

>  <SMR_VSA4>
0

>  <SMR_VSA5>
45.26

>  <SMR_VSA6>
18.47

>  <SMR_VSA7>
23.76

>  <SMR_VSA8>
0

>  <SMR_VSA9>
5.75

>  <SlogP_VSA1>
15.37

>  <SlogP_VSA2>
35.81

>  <SlogP_VSA3>
11.22

>  <SlogP_VSA4>
0

>  <SlogP_VSA5>
32.76

>  <SlogP_VSA6>
18.2

>  <SlogP_VSA7>
0

>  <SlogP_VSA8>
0

>  <SlogP_VSA9>
0

>  <SlogP_VSA10>
5.69

>  <SlogP_VSA11>
5.75

>  <EState_VSA1>
6.1

>  <EState_VSA2>
18.05

>  <EState_VSA3>
19.39

>  <EState_VSA4>
17

>  <EState_VSA5>
0

>  <EState_VSA6>
0

>  <EState_VSA7>
18.2

>  <EState_VSA8>
31.4

>  <EState_VSA9>
4.74

>  <EState_VSA10>
9.9

>  <VSA_EState1>
5.73

>  <VSA_EState2>
11.38

>  <VSA_EState3>
16.04

>  <VSA_EState4>
1.79

>  <VSA_EState5>
0.77

>  <VSA_EState6>
5.59

>  <VSA_EState7>
0.58

>  <VSA_EState8>
6.87

>  <VSA_EState9>
0

>  <apol>
47.33

>  <bpol>
27.82

>  <nRing>
2

>  <nHRing>
1

>  <naRing>
1

>  <naHRing>
0

>  <nARing 2>
1

>  <nAHRing 2>
1

>  <nFRing>
1

>  <nFHRing>
1

>  <nFaRing>
0

>  <nFaHRing>
0

>  <nFARing 2>
1

>  <nFAHRing 2>
1

>  <nRot>
5

>  <SLogP>
1.7

>  <SMR>
82.65

>  <TopoPSA(NO)>
70.59

>  <TopoPSA>
70.59

>  <JGI1>
0.27

>  <JGI2>
0.08

>  <JGI3>
0.04

>  <JGI4>
0.05

>  <JGI5>
0.02

>  <Diameter>
12

>  <Radius>
6

>  <TMWC10>
115.31

>  <TSRW10>
54.58

>  <MW>
292.18

>  <AMW>
6.49

>  <WPath>
1044

>  <WPol>
28

>  <Zagreb1>
106

>  <Zagreb2>
118

>  <mZagreb2>
4.51

>  <yes>


>  <nAR-cont>
0.816016

>  <nHA-cont>
0.994529749

>  <MWHBN>
0.409517813

>  <MWHBN-cont>
0.438705371

>  <TPSA-cont>
0.507237966

>  <pka_cont>
0.97

>  <yes.1>


>  <BBB_SCORE>
3.968079738

>  <MMFF94 Energy>
29.764

$$$$
Compound 211
Actelion Java MolfileCreator 2.0

  0  0  0  0  0  0              0 V3000
M  V30 BEGIN CTAB
M  V30 COUNTS 7 6 0 0 0
M  V30 BEGIN ATOM
M  V30 1 N 2.0107 -1.9302 0.0 0
M  V30 2 C 0.9103 -1.2517 -0.0273 0
M  V30 3 C -0.4716 -0.3994 -0.0617 0
M  V30 4 C -0.4353 1.1372 0.1394 0
M  V30 5 H -1.4167 -0.9005 -0.2245 0
M  V30 6 H 0.5105 1.6409 0.3027 0
M  V30 7 H -1.3534 1.7094 0.1174 0
M  V30 END ATOM
M  V30 BEGIN BOND
M  V30 1 3 1 2
M  V30 2 1 2 3
M  V30 3 2 3 4
M  V30 4 1 3 5
M  V30 5 1 4 6
M  V30 6 1 4 7
M  V30 END BOND
M  V30 END CTAB
M  END
>  <Column 1>
271

>  <level_0>
310

>  <index>
310

>  <Unnamed: 0>
310

>  <NO.>
311

>  <Name>
acrylonitrile

>  <IUPAC_name>
prop-2-enenitrile

>  <SMILES>
C=CC#N

>  <CID>
7855

>  <logBB>
-0.4

>  <BBB+/BBB->
BBB+

>  <Inchi>
InChI=1S/C3H3N/c1-2-3-4/h2H-1H2

>  <threshold>


>  <reference>
R2|R2|R8|R27|R40|R3|R21|R25|R27|R38|R41|R43|R46|R47|

>  <group>
A

>  <Class>
1

>  <ABC>
2.12

>  <ABCGG>
2.34

>  <nAcid>
0

>  <nBase>
0

>  <nAromAtom>
0

>  <nAromBond>
0

>  <nAtom>
7

>  <nHeavyAtom>
4

>  <nSpiro>
0

>  <nBridgehead>
0

>  <nHetero>
1

>  <nN>
1

>  <nO>
0

>  <nF>
0

>  <BalabanJ>
1.97

>  <BertzCT>
48.79

>  <nBonds>
6

>  <nBondsO>
3

>  <nBondsS>
4

>  <nBondsD>
1

>  <nBondsT>
1

>  <nBondsA>
0

>  <nBondsM>
2

>  <nBondsKS>
4

>  <nBondsKD>
1

>  <RNCG>
0.69

>  <RPCG>
0.32

>  <FCSP3>
0

>  <SZ>
4.67

>  <Sm>
4.42

>  <Sv>
4.57

>  <Sse>
6.99

>  <Sp>
4.86

>  <Si>
7.91

>  <MZ>
0.67

>  <Mm>
0.63

>  <Mv>
0.65

>  <Mse>
1

>  <Mp>
0.69

>  <Mi>
1.13

>  <NsCH3>
0

>  <NdCH2>
1

>  <NssCH2>
0

>  <NtCH>
0

>  <NdsCH>
1

>  <NaaCH>
0

>  <NsssCH>
0

>  <NddC>
0

>  <NtsC>
1

>  <NdssC>
0

>  <NaasC>
0

>  <NaaaC>
0

>  <NssssC>
0

>  <NsNH3>
0

>  <NsNH2>
0

>  <NssNH2>
0

>  <NdNH>
0

>  <NssNH>
0

>  <NaaNH>
0

>  <NtN>
1

>  <NsssNH>
0

>  <NdsN>
0

>  <NaaN>
0

>  <NsssN>
0

>  <NddsN>
0

>  <NaasN>
0

>  <NssssN>
0

>  <NsOH>
0

>  <NdO>
0

>  <NssO>
0

>  <NaaO>
0

>  <NsF>
0

>  <NsSiH3>
0

>  <NssSiH2>
0

>  <NsssSiH>
0

>  <NssssSi>
0

>  <NsPH2>
0

>  <NssPH>
0

>  <NsssP>
0

>  <NdsssP>
0

>  <NsssssP>
0

>  <NsSH>
0

>  <NdS>
0

>  <NssS>
0

>  <NaaS>
0

>  <NdssS>
0

>  <NddssS>
0

>  <NsCl>
0

>  <NsBr>
0

>  <NsI>
0

>  <fragCpx>
3.01

>  <fMF>
0

>  <nHBAcc>
1

>  <nHBDon>
0

>  <Kier1>
4

>  <Kier2>
3

>  <Lipinski>
1

>  <GhoseFilter>
0

>  <FilterItLogS>
-0.21

>  <VMcGowan>
50.21

>  <LabuteASA>
25.17

>  <PEOE_VSA1>
0

>  <PEOE_VSA2>
0

>  <PEOE_VSA3>
0

>  <PEOE_VSA4>
5.26

>  <PEOE_VSA5>
0

>  <PEOE_VSA6>
6.58

>  <PEOE_VSA7>
0

>  <PEOE_VSA8>
6.08

>  <PEOE_VSA9>
6.07

>  <PEOE_VSA10>
0

>  <PEOE_VSA11>
0

>  <PEOE_VSA12>
0

>  <PEOE_VSA13>
0

>  <SMR_VSA1>
0

>  <SMR_VSA2>
5.26

>  <SMR_VSA3>
0

>  <SMR_VSA4>
0

>  <SMR_VSA5>
0

>  <SMR_VSA6>
0

>  <SMR_VSA7>
12.65

>  <SMR_VSA8>
0

>  <SMR_VSA9>
6.07

>  <SlogP_VSA1>
0

>  <SlogP_VSA2>
0

>  <SlogP_VSA3>
0

>  <SlogP_VSA4>
11.33

>  <SlogP_VSA5>
0

>  <SlogP_VSA6>
12.65

>  <SlogP_VSA7>
0

>  <SlogP_VSA8>
0

>  <SlogP_VSA9>
0

>  <SlogP_VSA10>
0

>  <SlogP_VSA11>
0

>  <EState_VSA1>
0

>  <EState_VSA2>
0

>  <EState_VSA3>
0

>  <EState_VSA4>
0

>  <EState_VSA5>
6.08

>  <EState_VSA6>
6.07

>  <EState_VSA7>
0

>  <EState_VSA8>
6.58

>  <EState_VSA9>
5.26

>  <EState_VSA10>
0

>  <VSA_EState1>
0

>  <VSA_EState2>
0

>  <VSA_EState3>
7.51

>  <VSA_EState4>
0

>  <VSA_EState5>
0

>  <VSA_EState6>
1.69

>  <VSA_EState7>
1.18

>  <VSA_EState8>
3.12

>  <VSA_EState9>
0

>  <apol>
8.11

>  <bpol>
3.58

>  <nRing>
0

>  <nHRing>
0

>  <naRing>
0

>  <naHRing>
0

>  <nARing 2>
0

>  <nAHRing 2>
0

>  <nFRing>
0

>  <nFHRing>
0

>  <nFaRing>
0

>  <nFaHRing>
0

>  <nFARing 2>
0

>  <nFAHRing 2>
0

>  <nRot>
0

>  <SLogP>
0.7

>  <SMR>
15.81

>  <TopoPSA(NO)>
23.79

>  <TopoPSA>
23.79

>  <JGI1>
0.17

>  <JGI2>
0.11

>  <JGI3>
0

>  <JGI4>
0

>  <JGI5>
0

>  <Diameter>
3

>  <Radius>
2

>  <TMWC10>
45.23

>  <TSRW10>
22.33

>  <MW>
53.03

>  <AMW>
7.58

>  <WPath>
10

>  <WPol>
1

>  <Zagreb1>
10

>  <Zagreb2>
8

>  <mZagreb2>
1.25

>  <yes>


>  <nAR-cont>
0.336376

>  <nHA-cont>
0

>  <MWHBN>
0.137321705

>  <MWHBN-cont>
0.895189947

>  <TPSA-cont>
0.833931027

>  <pka_cont>
0.97

>  <yes.1>


>  <BBB_SCORE>
3.832022975

>  <MMFF94 Energy>
MMFF94 error code 2

$$$$
Compound 212
Actelion Java MolfileCreator 2.0

  0  0  0  0  0  0              0 V3000
M  V30 BEGIN CTAB
M  V30 COUNTS 54 58 0 0 0
M  V30 BEGIN ATOM
M  V30 1 O 2.406 -0.8015 -4.736 0
M  V30 2 C 1.6419 -0.6441 -3.7921 0
M  V30 3 N 1.3266 -1.658 -2.9049 0
M  V30 4 C 0.9816 0.5846 -3.4733 0
M  V30 5 C 0.4577 -1.5067 -1.8283 0
M  V30 6 C 0.146 0.6228 -2.3858 0
M  V30 7 C 0.9614 1.8737 -4.0103 0
M  V30 8 N -0.1432 -0.3886 -1.532 0
M  V30 9 C 0.3003 -2.7474 -0.9662 0
M  V30 10 N -0.3294 1.9078 -2.3218 0
M  V30 11 N 0.1675 2.6946 -3.3098 0
M  V30 12 C 1.3557 -2.7638 0.1487 0
M  V30 13 C -1.0458 -2.8115 -0.2329 0
M  V30 14 C -1.2437 2.4363 -1.3119 0
M  V30 15 C 0.5891 -3.2962 1.3551 0
M  V30 16 C 2.5772 -3.6107 -0.182 0
M  V30 17 N -0.7715 -2.7612 1.215 0
M  V30 18 C -0.4829 2.9345 -0.0785 0
M  V30 19 C -2.213 3.5014 -1.8458 0
M  V30 20 C -0.8942 -1.3665 1.7182 0
M  V30 21 C 0.0536 4.3418 -0.2861 0
M  V30 22 C -1.5905 4.8914 -1.8883 0
M  V30 23 C -0.7381 -1.203 3.2259 0
M  V30 24 O -1.0149 5.2235 -0.6253 0
M  V30 25 N -1.808 -1.4603 4.0088 0
M  V30 26 N 0.4677 -0.8047 3.6914 0
M  V30 27 C -1.632 -1.3153 5.3345 0
M  V30 28 C 0.5812 -0.6748 5.0262 0
M  V30 29 C -0.4462 -0.9205 5.9048 0
M  V30 30 H 1.7772 -2.5415 -3.0901 0
M  V30 31 H 1.4901 2.257 -4.8737 0
M  V30 32 H 0.4024 -3.6337 -1.6057 0
M  V30 33 H 1.7035 -1.7438 0.361 0
M  V30 34 H -1.7843 -2.0716 -0.5606 0
M  V30 35 H -1.5015 -3.7887 -0.4403 0
M  V30 36 H -1.8532 1.5732 -1.0113 0
M  V30 37 H 1.0761 -3.0459 2.3022 0
M  V30 38 H 0.5309 -4.392 1.3195 0
M  V30 39 H 3.2729 -3.6286 0.6633 0
M  V30 40 H 3.1097 -3.2049 -1.0477 0
M  V30 41 H 2.2988 -4.6448 -0.4107 0
M  V30 42 H 0.3319 2.2555 0.1966 0
M  V30 43 H -1.1863 2.9562 0.764 0
M  V30 44 H -2.6078 3.2293 -2.8312 0
M  V30 45 H -3.0679 3.5411 -1.1576 0
M  V30 46 H -1.8976 -0.9936 1.4736 0
M  V30 47 H -0.1857 -0.6913 1.2243 0
M  V30 48 H 0.8313 4.3801 -1.0569 0
M  V30 49 H 0.4991 4.7065 0.645 0
M  V30 50 H -2.3689 5.6323 -2.0991 0
M  V30 51 H -0.8352 4.9939 -2.6734 0
M  V30 52 H -2.5039 -1.5341 5.9437 0
M  V30 53 H 1.5574 -0.3567 5.3798 0
M  V30 54 H -0.3298 -0.8106 6.9733 0
M  V30 END ATOM
M  V30 BEGIN BOND
M  V30 1 2 1 2
M  V30 2 1 2 3
M  V30 3 1 2 4
M  V30 4 1 3 5
M  V30 5 2 4 6
M  V30 6 1 4 7
M  V30 7 2 5 8
M  V30 8 1 5 9
M  V30 9 1 6 10
M  V30 10 2 7 11
M  V30 11 1 9 12
M  V30 12 1 9 13
M  V30 13 1 10 14
M  V30 14 1 12 15
M  V30 15 1 12 16
M  V30 16 1 13 17
M  V30 17 1 14 18
M  V30 18 1 14 19
M  V30 19 1 17 20
M  V30 20 1 18 21
M  V30 21 1 19 22
M  V30 22 1 20 23
M  V30 23 1 21 24
M  V30 24 2 23 25
M  V30 25 1 23 26
M  V30 26 1 25 27
M  V30 27 2 26 28
M  V30 28 2 27 29
M  V30 29 1 6 8
M  V30 30 1 10 11
M  V30 31 1 15 17
M  V30 32 1 22 24
M  V30 33 1 28 29
M  V30 34 1 3 30
M  V30 35 1 7 31
M  V30 36 1 9 32
M  V30 37 1 12 33
M  V30 38 1 13 34
M  V30 39 1 13 35
M  V30 40 1 14 36
M  V30 41 1 15 37
M  V30 42 1 15 38
M  V30 43 1 16 39
M  V30 44 1 16 40
M  V30 45 1 16 41
M  V30 46 1 18 42
M  V30 47 1 18 43
M  V30 48 1 19 44
M  V30 49 1 19 45
M  V30 50 1 20 46
M  V30 51 1 20 47
M  V30 52 1 21 48
M  V30 53 1 21 49
M  V30 54 1 22 50
M  V30 55 1 22 51
M  V30 56 1 27 52
M  V30 57 1 28 53
M  V30 58 1 29 54
M  V30 END BOND
M  V30 END CTAB
M  END
>  <Column 1>
272

>  <level_0>
311

>  <index>
311

>  <Unnamed: 0>
311

>  <NO.>
312

>  <Name>
pf-4447943

>  <IUPAC_name>
6-[4-methyl-1-(pyrimidin-2-ylmethyl)pyrrolidin-3-yl]-1-(oxan-4-yl)-5h-pyrazolo[3-4-d]pyrimidin-4-one

>  <SMILES>
CC1CN(Cc2ncccn2)CC1c1nc2c(cnn2C2CCOCC2)c(=O)[nH]1

>  <CID>
137068312

>  <logBB>
-0.4

>  <BBB+/BBB->
BBB+

>  <Inchi>
InChI=1S/C20H25N7O2/c1-13-10-26(12-17-21-5-2-6-22-17)11-16(13)18-24-19-15(20(28)25-18)9-23-27(19)14-3-7-29-8-4-14/h2-5-6-9-13-14-16H-3-4-7-8-10-12H2-1H3-(H-24-25-28)

>  <threshold>


>  <reference>
R47|

>  <group>
A

>  <Class>
1

>  <ABC>
23.31

>  <ABCGG>
17.8

>  <nAcid>
0

>  <nBase>
1

>  <nAromAtom>
15

>  <nAromBond>
16

>  <nAtom>
54

>  <nHeavyAtom>
29

>  <nSpiro>
0

>  <nBridgehead>
0

>  <nHetero>
9

>  <nN>
7

>  <nO>
2

>  <nF>
0

>  <BalabanJ>
1.21

>  <BertzCT>
1041.91

>  <nBonds>
58

>  <nBondsO>
33

>  <nBondsS>
41

>  <nBondsD>
1

>  <nBondsT>
0

>  <nBondsA>
16

>  <nBondsM>
17

>  <nBondsKS>
51

>  <nBondsKD>
7

>  <RNCG>
0.15

>  <RPCG>
0.1

>  <FCSP3>
0.55

>  <SZ>
35

>  <Sm>
32.93

>  <Sv>
33.51

>  <Sse>
54.4

>  <Sp>
35.55

>  <Si>
61.65

>  <MZ>
0.65

>  <Mm>
0.61

>  <Mv>
0.62

>  <Mse>
1.01

>  <Mp>
0.66

>  <Mi>
1.14

>  <NsCH3>
1

>  <NdCH2>
0

>  <NssCH2>
7

>  <NtCH>
0

>  <NdsCH>
0

>  <NaaCH>
4

>  <NsssCH>
3

>  <NddC>
0

>  <NtsC>
0

>  <NdssC>
0

>  <NaasC>
2

>  <NaaaC>
2

>  <NssssC>
0

>  <NsNH3>
0

>  <NsNH2>
0

>  <NssNH2>
0

>  <NdNH>
0

>  <NssNH>
0

>  <NaaNH>
1

>  <NtN>
0

>  <NsssNH>
0

>  <NdsN>
0

>  <NaaN>
4

>  <NsssN>
1

>  <NddsN>
0

>  <NaasN>
1

>  <NssssN>
0

>  <NsOH>
0

>  <NdO>
1

>  <NssO>
1

>  <NaaO>
0

>  <NsF>
0

>  <NsSiH3>
0

>  <NssSiH2>
0

>  <NsssSiH>
0

>  <NssssSi>
0

>  <NsPH2>
0

>  <NssPH>
0

>  <NsssP>
0

>  <NdsssP>
0

>  <NsssssP>
0

>  <NsSH>
0

>  <NdS>
0

>  <NssS>
0

>  <NaaS>
0

>  <NdssS>
0

>  <NddssS>
0

>  <NsCl>
0

>  <NsBr>
0

>  <NsI>
0

>  <fragCpx>
277.09

>  <fMF>
0.5

>  <nHBAcc>
8

>  <nHBDon>
1

>  <Kier1>
20.88

>  <Kier2>
9.24

>  <Lipinski>
1

>  <GhoseFilter>
1

>  <FilterItLogS>
-4.02

>  <VMcGowan>
289.86

>  <LabuteASA>
167.69

>  <PEOE_VSA1>
9.72

>  <PEOE_VSA2>
9.69

>  <PEOE_VSA3>
19.63

>  <PEOE_VSA4>
5.1

>  <PEOE_VSA5>
0

>  <PEOE_VSA6>
6.92

>  <PEOE_VSA7>
24.83

>  <PEOE_VSA8>
44.61

>  <PEOE_VSA9>
18.78

>  <PEOE_VSA10>
17.04

>  <PEOE_VSA11>
5.65

>  <PEOE_VSA12>
0

>  <PEOE_VSA13>
5.56

>  <SMR_VSA1>
4.74

>  <SMR_VSA2>
0

>  <SMR_VSA3>
34.62

>  <SMR_VSA4>
5.92

>  <SMR_VSA5>
38.27

>  <SMR_VSA6>
26.3

>  <SMR_VSA7>
46.66

>  <SMR_VSA8>
0

>  <SMR_VSA9>
0

>  <SlogP_VSA1>
5.56

>  <SlogP_VSA2>
60.92

>  <SlogP_VSA3>
11.28

>  <SlogP_VSA4>
5.92

>  <SlogP_VSA5>
43.37

>  <SlogP_VSA6>
29.45

>  <SlogP_VSA7>
0

>  <SlogP_VSA8>
11.03

>  <SlogP_VSA9>
0

>  <SlogP_VSA10>
0

>  <SlogP_VSA11>
0

>  <EState_VSA1>
0

>  <EState_VSA2>
17.52

>  <EState_VSA3>
23.5

>  <EState_VSA4>
50.79

>  <EState_VSA5>
0

>  <EState_VSA6>
18.59

>  <EState_VSA7>
10.75

>  <EState_VSA8>
31.87

>  <EState_VSA9>
9.72

>  <EState_VSA10>
4.79

>  <VSA_EState1>
7.39

>  <VSA_EState2>
31.62

>  <VSA_EState3>
5.04

>  <VSA_EState4>
0.58

>  <VSA_EState5>
2.1

>  <VSA_EState6>
2.06

>  <VSA_EState7>
6.96

>  <VSA_EState8>
6.09

>  <VSA_EState9>
0

>  <apol>
59.37

>  <bpol>
35.09

>  <nRing>
5

>  <nHRing>
5

>  <naRing>
3

>  <naHRing>
3

>  <nARing 2>
2

>  <nAHRing 2>
2

>  <nFRing>
1

>  <nFHRing>
1

>  <nFaRing>
1

>  <nFaHRing>
1

>  <nFARing 2>
0

>  <nFAHRing 2>
0

>  <nRot>
4

>  <SLogP>
1.5

>  <SMR>
106.45

>  <TopoPSA(NO)>
101.82

>  <TopoPSA>
101.82

>  <JGI1>
0.15

>  <JGI2>
0.06

>  <JGI3>
0.05

>  <JGI4>
0.03

>  <JGI5>
0.02

>  <Diameter>
15

>  <Radius>
8

>  <TMWC10>
139.88

>  <TSRW10>
80.84

>  <MW>
395.21

>  <AMW>
7.32

>  <WPath>
2317

>  <WPol>
46

>  <Zagreb1>
160

>  <Zagreb2>
192

>  <mZagreb2>
6.25

>  <yes>


>  <nAR-cont>
1

>  <nHA-cont>
0.785905698

>  <MWHBN>
0.452718818

>  <MWHBN-cont>
0

>  <TPSA-cont>
0.289233174

>  <pka_cont>
0.97

>  <yes.1>


>  <BBB_SCORE>
2.849372046

>  <MMFF94 Energy>
9.475

$$$$
Compound 213
Actelion Java MolfileCreator 2.0

  0  0  0  0  0  0              0 V3000
M  V30 BEGIN CTAB
M  V30 COUNTS 38 38 0 0 0
M  V30 BEGIN ATOM
M  V30 1 S 0.2396 1.2784 1.4384 0
M  V30 2 O -0.9351 1.5136 2.2516 0
M  V30 3 O 1.5132 1.8782 1.7759 0
M  V30 4 N 0.4587 -0.4053 1.289 0
M  V30 5 C -0.1555 1.7854 -0.2275 0
M  V30 6 C -0.7629 -1.2303 1.1135 0
M  V30 7 C 1.6418 -0.8668 0.5214 0
M  V30 8 C -1.4929 1.9192 -0.6151 0
M  V30 9 C 0.8768 2.1173 -1.1109 0
M  V30 10 C -1.1361 -1.8691 2.4497 0
M  V30 11 C 2.2375 -2.1173 1.1677 0
M  V30 12 C -1.7988 2.345 -1.9108 0
M  V30 13 C 0.5673 2.5418 -2.4054 0
M  V30 14 C -2.3787 -2.7354 2.3238 0
M  V30 15 C 3.5042 -2.5617 0.4537 0
M  V30 16 C -0.77 2.6528 -2.8119 0
M  V30 17 C -1.0467 3.1076 -4.1965 0
M  V30 18 O -0.2094 3.3843 -5.0348 0
M  V30 19 O -2.3612 3.1889 -4.4657 0
M  V30 20 H -1.5968 -0.6273 0.742 0
M  V30 21 H -0.5977 -2.0074 0.3581 0
M  V30 22 H 1.3581 -1.0646 -0.5187 0
M  V30 23 H 2.4145 -0.0914 0.5046 0
M  V30 24 H -2.2995 1.7036 0.083 0
M  V30 25 H 1.9175 2.059 -0.7989 0
M  V30 26 H -0.3061 -2.4814 2.8206 0
M  V30 27 H -1.3135 -1.093 3.2032 0
M  V30 28 H 2.4662 -1.9186 2.2218 0
M  V30 29 H 1.5144 -2.9402 1.1493 0
M  V30 30 H -2.8417 2.4428 -2.205 0
M  V30 31 H 1.3718 2.7968 -3.0937 0
M  V30 32 H -2.6287 -3.1827 3.2909 0
M  V30 33 H -3.2375 -2.1433 1.9913 0
M  V30 34 H -2.2205 -3.546 1.6054 0
M  V30 35 H 3.9121 -3.4592 0.929 0
M  V30 36 H 3.3004 -2.7955 -0.596 0
M  V30 37 H 4.2702 -1.7805 0.49 0
M  V30 38 H -2.3933 3.5027 -5.3941 0
M  V30 END ATOM
M  V30 BEGIN BOND
M  V30 1 2 1 2
M  V30 2 2 1 3
M  V30 3 1 1 4
M  V30 4 1 1 5
M  V30 5 1 4 6
M  V30 6 1 4 7
M  V30 7 2 5 8
M  V30 8 1 5 9
M  V30 9 1 6 10
M  V30 10 1 7 11
M  V30 11 1 8 12
M  V30 12 2 9 13
M  V30 13 1 10 14
M  V30 14 1 11 15
M  V30 15 2 12 16
M  V30 16 1 16 17
M  V30 17 2 17 18
M  V30 18 1 17 19
M  V30 19 1 13 16
M  V30 20 1 6 20
M  V30 21 1 6 21
M  V30 22 1 7 22
M  V30 23 1 7 23
M  V30 24 1 8 24
M  V30 25 1 9 25
M  V30 26 1 10 26
M  V30 27 1 10 27
M  V30 28 1 11 28
M  V30 29 1 11 29
M  V30 30 1 12 30
M  V30 31 1 13 31
M  V30 32 1 14 32
M  V30 33 1 14 33
M  V30 34 1 14 34
M  V30 35 1 15 35
M  V30 36 1 15 36
M  V30 37 1 15 37
M  V30 38 1 19 38
M  V30 END BOND
M  V30 END CTAB
M  END
>  <Column 1>
273

>  <level_0>
312

>  <index>
312

>  <Unnamed: 0>
312

>  <NO.>
313

>  <Name>
probenecid

>  <IUPAC_name>
4-(dipropylsulfamoyl)benzoic acid

>  <SMILES>
CCCN(CCC)S(=O)(=O)c1ccc(C(=O)O)cc1

>  <CID>
4911

>  <logBB>
-0.4

>  <BBB+/BBB->
BBB+

>  <Inchi>
InChI=1S/C13H19NO4S/c1-3-9-14(10-4-2)19(17-18)12-7-5-11(6-8-12)13(15)16/h5-8H-3-4-9-10H2-1-2H3-(H-15-16)

>  <threshold>


>  <reference>
R2|R2|R25|R27|R46|

>  <group>
A

>  <Class>
1

>  <ABC>
13.81

>  <ABCGG>
12.72

>  <nAcid>
1

>  <nBase>
0

>  <nAromAtom>
6

>  <nAromBond>
6

>  <nAtom>
38

>  <nHeavyAtom>
19

>  <nSpiro>
0

>  <nBridgehead>
0

>  <nHetero>
6

>  <nN>
1

>  <nO>
4

>  <nF>
0

>  <BalabanJ>
2.61

>  <BertzCT>
516.08

>  <nBonds>
38

>  <nBondsO>
19

>  <nBondsS>
29

>  <nBondsD>
3

>  <nBondsT>
0

>  <nBondsA>
6

>  <nBondsM>
9

>  <nBondsKS>
32

>  <nBondsKD>
6

>  <RNCG>
0.28

>  <RPCG>
0.19

>  <FCSP3>
0.46

>  <SZ>
25.33

>  <Sm>
23.76

>  <Sv>
22.95

>  <Sse>
38.5

>  <Sp>
24.9

>  <Si>
42.99

>  <MZ>
0.67

>  <Mm>
0.63

>  <Mv>
0.6

>  <Mse>
1.01

>  <Mp>
0.66

>  <Mi>
1.13

>  <NsCH3>
2

>  <NdCH2>
0

>  <NssCH2>
4

>  <NtCH>
0

>  <NdsCH>
0

>  <NaaCH>
4

>  <NsssCH>
0

>  <NddC>
0

>  <NtsC>
0

>  <NdssC>
1

>  <NaasC>
2

>  <NaaaC>
0

>  <NssssC>
0

>  <NsNH3>
0

>  <NsNH2>
0

>  <NssNH2>
0

>  <NdNH>
0

>  <NssNH>
0

>  <NaaNH>
0

>  <NtN>
0

>  <NsssNH>
0

>  <NdsN>
0

>  <NaaN>
0

>  <NsssN>
1

>  <NddsN>
0

>  <NaasN>
0

>  <NssssN>
0

>  <NsOH>
1

>  <NdO>
3

>  <NssO>
0

>  <NaaO>
0

>  <NsF>
0

>  <NsSiH3>
0

>  <NssSiH2>
0

>  <NsssSiH>
0

>  <NssssSi>
0

>  <NsPH2>
0

>  <NssPH>
0

>  <NsssP>
0

>  <NdsssP>
0

>  <NsssssP>
0

>  <NsSH>
0

>  <NdS>
0

>  <NssS>
0

>  <NaaS>
0

>  <NdssS>
0

>  <NddssS>
1

>  <NsCl>
0

>  <NsBr>
0

>  <NsI>
0

>  <fragCpx>
19.06

>  <fMF>
0.16

>  <nHBAcc>
3

>  <nHBDon>
1

>  <Kier1>
17.05

>  <Kier2>
7.7

>  <Lipinski>
1

>  <GhoseFilter>
1

>  <FilterItLogS>
-2.82

>  <VMcGowan>
215.78

>  <LabuteASA>
113.46

>  <PEOE_VSA1>
5.11

>  <PEOE_VSA2>
0

>  <PEOE_VSA3>
13.21

>  <PEOE_VSA4>
4.31

>  <PEOE_VSA5>
0

>  <PEOE_VSA6>
13.85

>  <PEOE_VSA7>
37.11

>  <PEOE_VSA8>
13.09

>  <PEOE_VSA9>
10.46

>  <PEOE_VSA10>
0

>  <PEOE_VSA11>
0

>  <PEOE_VSA12>
10.02

>  <PEOE_VSA13>
0

>  <SMR_VSA1>
18.32

>  <SMR_VSA2>
0

>  <SMR_VSA3>
4.31

>  <SMR_VSA4>
0

>  <SMR_VSA5>
31.58

>  <SMR_VSA6>
13.09

>  <SMR_VSA7>
29.83

>  <SMR_VSA8>
0

>  <SMR_VSA9>
0

>  <SlogP_VSA1>
0

>  <SlogP_VSA2>
36.89

>  <SlogP_VSA3>
10.02

>  <SlogP_VSA4>
0

>  <SlogP_VSA5>
37.05

>  <SlogP_VSA6>
29.16

>  <SlogP_VSA7>
0

>  <SlogP_VSA8>
0

>  <SlogP_VSA9>
0

>  <SlogP_VSA10>
0

>  <SlogP_VSA11>
0

>  <EState_VSA1>
15.99

>  <EState_VSA2>
10.46

>  <EState_VSA3>
13.09

>  <EState_VSA4>
12.84

>  <EState_VSA5>
28.57

>  <EState_VSA6>
0

>  <EState_VSA7>
13.85

>  <EState_VSA8>
0

>  <EState_VSA9>
5.11

>  <EState_VSA10>
13.21

>  <VSA_EState1>
26.18

>  <VSA_EState2>
10.88

>  <VSA_EState3>
8.8

>  <VSA_EState4>
0.08

>  <VSA_EState5>
-1.07

>  <VSA_EState6>
5.31

>  <VSA_EState7>
1.49

>  <VSA_EState8>
4.78

>  <VSA_EState9>
-3.53

>  <apol>
41.59

>  <bpol>
28.29

>  <nRing>
1

>  <nHRing>
0

>  <naRing>
1

>  <naHRing>
0

>  <nARing 2>
0

>  <nAHRing 2>
0

>  <nFRing>
0

>  <nFHRing>
0

>  <nFaRing>
0

>  <nFaHRing>
0

>  <nFARing 2>
0

>  <nFAHRing 2>
0

>  <nRot>
7

>  <SLogP>
2.2

>  <SMR>
72.74

>  <TopoPSA(NO)>
74.68

>  <TopoPSA>
83.06

>  <JGI1>
0.26

>  <JGI2>
0.13

>  <JGI3>
0.06

>  <JGI4>
0.04

>  <JGI5>
0.03

>  <Diameter>
10

>  <Radius>
5

>  <TMWC10>
109.47

>  <TSRW10>
51.96

>  <MW>
285.1

>  <AMW>
7.5

>  <WPath>
728

>  <WPol>
29

>  <Zagreb1>
90

>  <Zagreb2>
103

>  <mZagreb2>
4.44

>  <yes>


>  <nAR-cont>
0.336376

>  <nHA-cont>
0.998649058

>  <MWHBN>
0.236897994

>  <MWHBN-cont>
0.979002898

>  <TPSA-cont>
0.420189623

>  <pka_cont>
0.97

>  <yes.1>


>  <BBB_SCORE>
4.128908651

>  <MMFF94 Energy>
-26.378

$$$$
Compound 214
Actelion Java MolfileCreator 2.0

  0  0  0  0  0  0              0 V3000
M  V30 BEGIN CTAB
M  V30 COUNTS 52 55 0 0 0
M  V30 BEGIN ATOM
M  V30 1 S -1.7164 3.0257 3.6808 0
M  V30 2 O -2.8564 3.1357 4.6509 0
M  V30 3 C -1.4911 1.2583 3.3744 0
M  V30 4 C -2.3634 3.4524 2.0424 0
M  V30 5 C -0.4005 0.8239 2.6076 0
M  V30 6 C -2.3774 0.3221 3.8966 0
M  V30 7 C -0.1872 -0.5396 2.3145 0
M  V30 8 C -2.1755 -1.033 3.6466 0
M  V30 9 N 0.9045 -0.955 1.5038 0
M  V30 10 C -1.0886 -1.4689 2.8701 0
M  V30 11 C 1.4308 -2.2735 1.4786 0
M  V30 12 C 1.2222 -0.0958 0.3342 0
M  V30 13 S -0.9572 -3.225 2.608 0
M  V30 14 C 0.6852 -3.3765 1.9381 0
M  V30 15 C 2.7471 -2.5269 1.0401 0
M  V30 16 C 0.0742 -0.105 -0.6916 0
M  V30 17 C 1.2188 -4.6765 1.8786 0
M  V30 18 C 3.2771 -3.8203 0.993 0
M  V30 19 C 0.4394 0.5432 -2.0519 0
M  V30 20 C 2.5071 -4.8988 1.4014 0
M  V30 21 N -0.7257 0.5819 -2.9751 0
M  V30 22 C 0.9784 1.9766 -1.8394 0
M  V30 23 C -0.3738 1.196 -4.2676 0
M  V30 24 C -1.3023 -0.7444 -3.2237 0
M  V30 25 C 1.3089 2.6758 -3.1526 0
M  V30 26 C 0.1178 2.6285 -4.0927 0
M  V30 27 H -2.6546 4.5056 2.0505 0
M  V30 28 H -3.2377 2.8383 1.8127 0
M  V30 29 H -1.5878 3.3012 1.2879 0
M  V30 30 H 0.3024 1.5723 2.2566 0
M  V30 31 H -3.2238 0.6368 4.5036 0
M  V30 32 H -2.8758 -1.7524 4.0668 0
M  V30 33 H 2.1321 -0.4133 -0.1831 0
M  V30 34 H 1.444 0.9229 0.6657 0
M  V30 35 H 3.4077 -1.7108 0.7619 0
M  V30 36 H -0.8041 0.4021 -0.2732 0
M  V30 37 H -0.213 -1.151 -0.852 0
M  V30 38 H 0.6309 -5.5264 2.2192 0
M  V30 39 H 4.2961 -3.9772 0.6488 0
M  V30 40 H 1.2378 -0.0583 -2.5092 0
M  V30 41 H 2.9112 -5.9069 1.3695 0
M  V30 42 H 0.2404 2.5727 -1.2862 0
M  V30 43 H 1.8929 1.9595 -1.2371 0
M  V30 44 H 0.3903 0.6006 -4.7844 0
M  V30 45 H -1.2566 1.2259 -4.9184 0
M  V30 46 H -2.103 -0.6866 -3.9706 0
M  V30 47 H -0.5523 -1.4579 -3.5826 0
M  V30 48 H -1.7769 -1.148 -2.3242 0
M  V30 49 H 1.5969 3.7156 -2.9619 0
M  V30 50 H 2.1696 2.1844 -3.6224 0
M  V30 51 H -0.6922 3.2533 -3.6955 0
M  V30 52 H 0.3968 3.0472 -5.0662 0
M  V30 END ATOM
M  V30 BEGIN BOND
M  V30 1 2 1 2
M  V30 2 1 1 3
M  V30 3 1 1 4
M  V30 4 2 3 5
M  V30 5 1 3 6
M  V30 6 1 5 7
M  V30 7 2 6 8
M  V30 8 1 7 9
M  V30 9 2 7 10
M  V30 10 1 9 11
M  V30 11 1 9 12
M  V30 12 1 10 13
M  V30 13 2 11 14
M  V30 14 1 11 15
M  V30 15 1 12 16
M  V30 16 1 14 17
M  V30 17 2 15 18
M  V30 18 1 16 19
M  V30 19 2 17 20
M  V30 20 1 19 21
M  V30 21 1 19 22
M  V30 22 1 21 23
M  V30 23 1 21 24
M  V30 24 1 22 25
M  V30 25 1 23 26
M  V30 26 1 8 10
M  V30 27 1 13 14
M  V30 28 1 18 20
M  V30 29 1 25 26
M  V30 30 1 4 27
M  V30 31 1 4 28
M  V30 32 1 4 29
M  V30 33 1 5 30
M  V30 34 1 6 31
M  V30 35 1 8 32
M  V30 36 1 12 33
M  V30 37 1 12 34
M  V30 38 1 15 35
M  V30 39 1 16 36
M  V30 40 1 16 37
M  V30 41 1 17 38
M  V30 42 1 18 39
M  V30 43 1 19 40
M  V30 44 1 20 41
M  V30 45 1 22 42
M  V30 46 1 22 43
M  V30 47 1 23 44
M  V30 48 1 23 45
M  V30 49 1 24 46
M  V30 50 1 24 47
M  V30 51 1 24 48
M  V30 52 1 25 49
M  V30 53 1 25 50
M  V30 54 1 26 51
M  V30 55 1 26 52
M  V30 END BOND
M  V30 END CTAB
M  END
>  <Column 1>
274

>  <level_0>
313

>  <index>
313

>  <Unnamed: 0>
313

>  <NO.>
314

>  <Name>
mesoridazine

>  <IUPAC_name>
10-[2-(1-methylpiperidin-2-yl)ethyl]-2-methylsulfinylphenothiazine

>  <SMILES>
CN1CCCCC1CCN1c2ccccc2Sc2ccc([S+](C)[O-])cc21

>  <CID>
4078

>  <logBB>
-0.4

>  <BBB+/BBB->
BBB+

>  <Inchi>
InChI=1S/C21H26N2OS2/c1-22-13-6-5-7-16(22)12-14-23-18-8-3-4-9-20(18)25-21-11-10-17(26(2)24)15-19(21)23/h3-4-8-11-15-16H-5-7-12-14H2-1-2H3

>  <threshold>


>  <reference>
R5|R11|R12|R20|R25|R35|R36|R39|R43|R47|R2|R2|R27|R8|R21|R27|R40|R4|

>  <group>
A

>  <Class>
1

>  <ABC>
20.59

>  <ABCGG>
15.63

>  <nAcid>
0

>  <nBase>
1

>  <nAromAtom>
12

>  <nAromBond>
12

>  <nAtom>
52

>  <nHeavyAtom>
26

>  <nSpiro>
0

>  <nBridgehead>
0

>  <nHetero>
5

>  <nN>
2

>  <nO>
1

>  <nF>
0

>  <BalabanJ>
1.46

>  <BertzCT>
780.36

>  <nBonds>
55

>  <nBondsO>
29

>  <nBondsS>
43

>  <nBondsD>
0

>  <nBondsT>
0

>  <nBondsA>
12

>  <nBondsM>
12

>  <nBondsKS>
49

>  <nBondsKD>
6

>  <RNCG>
0.35

>  <RPCG>
0.09

>  <FCSP3>
0.43

>  <SZ>
34.33

>  <Sm>
32.18

>  <Sv>
32.65

>  <Sse>
51.35

>  <Sp>
36.65

>  <Si>
58.03

>  <MZ>
0.66

>  <Mm>
0.62

>  <Mv>
0.63

>  <Mse>
0.99

>  <Mp>
0.7

>  <Mi>
1.12

>  <NsCH3>
2

>  <NdCH2>
0

>  <NssCH2>
6

>  <NtCH>
0

>  <NdsCH>
0

>  <NaaCH>
7

>  <NsssCH>
1

>  <NddC>
0

>  <NtsC>
0

>  <NdssC>
0

>  <NaasC>
5

>  <NaaaC>
0

>  <NssssC>
0

>  <NsNH3>
0

>  <NsNH2>
0

>  <NssNH2>
0

>  <NdNH>
0

>  <NssNH>
0

>  <NaaNH>
0

>  <NtN>
0

>  <NsssNH>
0

>  <NdsN>
0

>  <NaaN>
0

>  <NsssN>
2

>  <NddsN>
0

>  <NaasN>
0

>  <NssssN>
0

>  <NsOH>
0

>  <NdO>
0

>  <NssO>
0

>  <NaaO>
0

>  <NsF>
0

>  <NsSiH3>
0

>  <NssSiH2>
0

>  <NsssSiH>
0

>  <NssssSi>
0

>  <NsPH2>
0

>  <NssPH>
0

>  <NsssP>
0

>  <NdsssP>
0

>  <NsssssP>
0

>  <NsSH>
0

>  <NdS>
0

>  <NssS>
1

>  <NaaS>
0

>  <NdssS>
0

>  <NddssS>
0

>  <NsCl>
0

>  <NsBr>
0

>  <NsI>
0

>  <fragCpx>
191.05

>  <fMF>
0.42

>  <nHBAcc>
4

>  <nHBDon>
0

>  <Kier1>
19.32

>  <Kier2>
8.57

>  <Lipinski>
1

>  <GhoseFilter>
1

>  <FilterItLogS>
-5.47

>  <VMcGowan>
296.04

>  <LabuteASA>
163.5

>  <PEOE_VSA1>
14.35

>  <PEOE_VSA2>
0

>  <PEOE_VSA3>
0

>  <PEOE_VSA4>
0

>  <PEOE_VSA5>
0

>  <PEOE_VSA6>
30.32

>  <PEOE_VSA7>
68.3

>  <PEOE_VSA8>
28.44

>  <PEOE_VSA9>
11.37

>  <PEOE_VSA10>
6.26

>  <PEOE_VSA11>
4.9

>  <PEOE_VSA12>
0

>  <PEOE_VSA13>
0

>  <SMR_VSA1>
4.55

>  <SMR_VSA2>
0

>  <SMR_VSA3>
4.9

>  <SMR_VSA4>
0

>  <SMR_VSA5>
46.41

>  <SMR_VSA6>
31.29

>  <SMR_VSA7>
42.46

>  <SMR_VSA8>
0

>  <SMR_VSA9>
0

>  <SlogP_VSA1>
4.9

>  <SlogP_VSA2>
41.89

>  <SlogP_VSA3>
11.18

>  <SlogP_VSA4>
0

>  <SlogP_VSA5>
25.68

>  <SlogP_VSA6>
57.15

>  <SlogP_VSA7>
0

>  <SlogP_VSA8>
0

>  <SlogP_VSA9>
0

>  <SlogP_VSA10>
11.37

>  <SlogP_VSA11>
0

>  <EState_VSA1>
11.18

>  <EState_VSA2>
0

>  <EState_VSA3>
6.04

>  <EState_VSA4>
17.86

>  <EState_VSA5>
46.97

>  <EState_VSA6>
6.26

>  <EState_VSA7>
17.83

>  <EState_VSA8>
53.25

>  <EState_VSA9>
0

>  <EState_VSA10>
4.55

>  <VSA_EState1>
12.01

>  <VSA_EState2>
8.44

>  <VSA_EState3>
0

>  <VSA_EState4>
2.49

>  <VSA_EState5>
0

>  <VSA_EState6>
15.57

>  <VSA_EState7>
6.88

>  <VSA_EState8>
2.21

>  <VSA_EState9>
2.26

>  <apol>
61.21

>  <bpol>
36.52

>  <nRing>
4

>  <nHRing>
2

>  <naRing>
2

>  <naHRing>
0

>  <nARing 2>
2

>  <nAHRing 2>
2

>  <nFRing>
1

>  <nFHRing>
1

>  <nFaRing>
0

>  <nFaHRing>
0

>  <nFARing 2>
1

>  <nFAHRing 2>
1

>  <nRot>
4

>  <SLogP>
4.9

>  <SMR>
111.23

>  <TopoPSA(NO)>
29.54

>  <TopoPSA>
54.84

>  <JGI1>
0.16

>  <JGI2>
0.08

>  <JGI3>
0.04

>  <JGI4>
0.04

>  <JGI5>
0.02

>  <Diameter>
11

>  <Radius>
6

>  <TMWC10>
131.45

>  <TSRW10>
61.32

>  <MW>
386.15

>  <AMW>
7.43

>  <WPath>
1604

>  <WPol>
44

>  <Zagreb1>
140

>  <Zagreb2>
167

>  <mZagreb2>
5.67

>  <yes>


>  <nAR-cont>
1

>  <nHA-cont>
0.892715677

>  <MWHBN>
0.203555092

>  <MWHBN-cont>
0.999989757

>  <TPSA-cont>
0.617182746

>  <pka_cont>
0.97

>  <yes.1>


>  <BBB_SCORE>
5.112065806

>  <MMFF94 Energy>
79.154

$$$$
Compound 215
Actelion Java MolfileCreator 2.0

  0  0  0  0  0  0              0 V3000
M  V30 BEGIN CTAB
M  V30 COUNTS 36 39 0 0 0
M  V30 BEGIN ATOM
M  V30 1 O -0.9691 2.1815 -0.8075 0
M  V30 2 C -0.5248 1.1001 -0.4228 0
M  V30 3 N 0.6991 0.5724 -0.7664 0
M  V30 4 C -1.3632 0.1942 0.4929 0
M  V30 5 C 1.598 1.2307 -1.5546 0
M  V30 6 C -1.775 -1.0705 -0.225 0
M  V30 7 C -0.647 -0.0894 1.7938 0
M  V30 8 N 2.3633 0.6004 -2.4533 0
M  V30 9 N 1.8784 2.5577 -1.3951 0
M  V30 10 C -1.275 -2.3065 0.1905 0
M  V30 11 C -2.6403 -1.0189 -1.3296 0
M  V30 12 C -0.2158 -1.3848 2.0882 0
M  V30 13 C -0.383 0.9437 2.7073 0
M  V30 14 O 3.1563 1.6246 -2.9745 0
M  V30 15 C 2.8077 2.7568 -2.2988 0
M  V30 16 O -0.4266 -2.4595 1.2596 0
M  V30 17 C -1.6199 -3.4737 -0.4932 0
M  V30 18 C -2.9886 -2.1871 -2.008 0
M  V30 19 C 0.48 -1.6458 3.27 0
M  V30 20 C 0.3075 0.6798 3.8905 0
M  V30 21 C 3.5161 3.9937 -2.6662 0
M  V30 22 C -2.4771 -3.4143 -1.5915 0
M  V30 23 C 0.7406 -0.6143 4.1714 0
M  V30 24 H 0.9399 -0.3792 -0.5324 0
M  V30 25 H -2.2858 0.735 0.7483 0
M  V30 26 H -3.0424 -0.066 -1.6716 0
M  V30 27 H -0.7079 1.9621 2.4979 0
M  V30 28 H -1.2245 -4.432 -0.1668 0
M  V30 29 H -3.6572 -2.1389 -2.8642 0
M  V30 30 H 0.8153 -2.6556 3.4917 0
M  V30 31 H 0.5103 1.4856 4.592 0
M  V30 32 H 3.3566 4.2281 -3.7228 0
M  V30 33 H 4.5907 3.8867 -2.4918 0
M  V30 34 H 3.1552 4.8375 -2.0705 0
M  V30 35 H -2.7469 -4.3246 -2.1207 0
M  V30 36 H 1.2796 -0.8202 5.0926 0
M  V30 END ATOM
M  V30 BEGIN BOND
M  V30 1 2 1 2
M  V30 2 1 2 3
M  V30 3 1 2 4
M  V30 4 1 3 5
M  V30 5 1 4 6
M  V30 6 1 4 7
M  V30 7 2 5 8
M  V30 8 1 5 9
M  V30 9 2 6 10
M  V30 10 1 6 11
M  V30 11 2 7 12
M  V30 12 1 7 13
M  V30 13 1 8 14
M  V30 14 2 9 15
M  V30 15 1 10 16
M  V30 16 1 10 17
M  V30 17 2 11 18
M  V30 18 1 12 19
M  V30 19 2 13 20
M  V30 20 1 15 21
M  V30 21 2 17 22
M  V30 22 2 19 23
M  V30 23 1 12 16
M  V30 24 1 14 15
M  V30 25 1 18 22
M  V30 26 1 20 23
M  V30 27 1 3 24
M  V30 28 1 4 25
M  V30 29 1 11 26
M  V30 30 1 13 27
M  V30 31 1 17 28
M  V30 32 1 18 29
M  V30 33 1 19 30
M  V30 34 1 20 31
M  V30 35 1 21 32
M  V30 36 1 21 33
M  V30 37 1 21 34
M  V30 38 1 22 35
M  V30 39 1 23 36
M  V30 END BOND
M  V30 END CTAB
M  END
>  <Column 1>
275

>  <level_0>
314

>  <index>
314

>  <Unnamed: 0>
314

>  <NO.>
315

>  <Name>
compound 3a [pmid: 16099654]

>  <IUPAC_name>
n-(5-methyl-1-2-4-oxadiazol-3-yl)-9h-xanthene-9-carboxamide

>  <SMILES>
Cc1nc(NC(=O)C2c3ccccc3Oc3ccccc32)no1

>  <CID>
44573698

>  <logBB>
-0.4

>  <BBB+/BBB->
BBB+

>  <Inchi>
InChI=1S/C17H13N3O3/c1-10-18-17(20-23-10)19-16(21)15-11-6-2-4-8-13(11)22-14-9-5-3-7-12(14)15/h2-9-15H-1H3-(H-19-20-21)

>  <threshold>


>  <reference>
R47|

>  <group>
A

>  <Class>
1

>  <ABC>
18.4

>  <ABCGG>
14.64

>  <nAcid>
0

>  <nBase>
0

>  <nAromAtom>
17

>  <nAromBond>
17

>  <nAtom>
36

>  <nHeavyAtom>
23

>  <nSpiro>
0

>  <nBridgehead>
0

>  <nHetero>
6

>  <nN>
3

>  <nO>
3

>  <nF>
0

>  <BalabanJ>
1.49

>  <BertzCT>
842.55

>  <nBonds>
39

>  <nBondsO>
26

>  <nBondsS>
21

>  <nBondsD>
1

>  <nBondsT>
0

>  <nBondsA>
17

>  <nBondsM>
18

>  <nBondsKS>
30

>  <nBondsKD>
9

>  <RNCG>
0.23

>  <RPCG>
0.14

>  <FCSP3>
0.12

>  <SZ>
26.67

>  <Sm>
25.59

>  <Sv>
24.94

>  <Sse>
36.75

>  <Sp>
25.61

>  <Si>
40.2

>  <MZ>
0.74

>  <Mm>
0.71

>  <Mv>
0.69

>  <Mse>
1.02

>  <Mp>
0.71

>  <Mi>
1.12

>  <NsCH3>
1

>  <NdCH2>
0

>  <NssCH2>
0

>  <NtCH>
0

>  <NdsCH>
0

>  <NaaCH>
8

>  <NsssCH>
1

>  <NddC>
0

>  <NtsC>
0

>  <NdssC>
1

>  <NaasC>
6

>  <NaaaC>
0

>  <NssssC>
0

>  <NsNH3>
0

>  <NsNH2>
0

>  <NssNH2>
0

>  <NdNH>
0

>  <NssNH>
1

>  <NaaNH>
0

>  <NtN>
0

>  <NsssNH>
0

>  <NdsN>
0

>  <NaaN>
2

>  <NsssN>
0

>  <NddsN>
0

>  <NaasN>
0

>  <NssssN>
0

>  <NsOH>
0

>  <NdO>
1

>  <NssO>
1

>  <NaaO>
1

>  <NsF>
0

>  <NsSiH3>
0

>  <NssSiH2>
0

>  <NsssSiH>
0

>  <NssssSi>
0

>  <NsPH2>
0

>  <NssPH>
0

>  <NsssP>
0

>  <NdsssP>
0

>  <NsssssP>
0

>  <NsSH>
0

>  <NdS>
0

>  <NssS>
0

>  <NaaS>
0

>  <NdssS>
0

>  <NddssS>
0

>  <NsCl>
0

>  <NsBr>
0

>  <NsI>
0

>  <fragCpx>
170.06

>  <fMF>
0.58

>  <nHBAcc>
5

>  <nHBDon>
1

>  <Kier1>
16.47

>  <Kier2>
7.09

>  <Lipinski>
1

>  <GhoseFilter>
1

>  <FilterItLogS>
-4.84

>  <VMcGowan>
215.8

>  <LabuteASA>
131.64

>  <PEOE_VSA1>
9.26

>  <PEOE_VSA2>
10.11

>  <PEOE_VSA3>
0

>  <PEOE_VSA4>
4.98

>  <PEOE_VSA5>
0

>  <PEOE_VSA6>
36.4

>  <PEOE_VSA7>
17.29

>  <PEOE_VSA8>
18.05

>  <PEOE_VSA9>
5.92

>  <PEOE_VSA10>
11.5

>  <PEOE_VSA11>
0

>  <PEOE_VSA12>
11.8

>  <PEOE_VSA13>
5.95

>  <SMR_VSA1>
14.05

>  <SMR_VSA2>
0

>  <SMR_VSA3>
10.14

>  <SMR_VSA4>
0

>  <SMR_VSA5>
12.84

>  <SMR_VSA6>
5.32

>  <SMR_VSA7>
65.55

>  <SMR_VSA8>
0

>  <SMR_VSA9>
11.5

>  <SlogP_VSA1>
10.05

>  <SlogP_VSA2>
16.05

>  <SlogP_VSA3>
4.79

>  <SlogP_VSA4>
6.92

>  <SlogP_VSA5>
22.94

>  <SlogP_VSA6>
53.05

>  <SlogP_VSA7>
0

>  <SlogP_VSA8>
0

>  <SlogP_VSA9>
0

>  <SlogP_VSA10>
5.95

>  <SlogP_VSA11>
11.5

>  <EState_VSA1>
5.92

>  <EState_VSA2>
11.86

>  <EState_VSA3>
17.39

>  <EState_VSA4>
11.13

>  <EState_VSA5>
0

>  <EState_VSA6>
6.92

>  <EState_VSA7>
48.53

>  <EState_VSA8>
15.46

>  <EState_VSA9>
9.26

>  <EState_VSA10>
4.79

>  <VSA_EState1>
10.77

>  <VSA_EState2>
16.83

>  <VSA_EState3>
6.42

>  <VSA_EState4>
1.62

>  <VSA_EState5>
1.19

>  <VSA_EState6>
15

>  <VSA_EState7>
0

>  <VSA_EState8>
1.67

>  <VSA_EState9>
0

>  <apol>
42.76

>  <bpol>
19.09

>  <nRing>
4

>  <nHRing>
2

>  <naRing>
3

>  <naHRing>
1

>  <nARing 2>
1

>  <nAHRing 2>
1

>  <nFRing>
1

>  <nFHRing>
1

>  <nFaRing>
0

>  <nFaHRing>
0

>  <nFARing 2>
1

>  <nFAHRing 2>
1

>  <nRot>
2

>  <SLogP>
3.25

>  <SMR>
82.47

>  <TopoPSA(NO)>
77.25

>  <TopoPSA>
77.25

>  <JGI1>
0.15

>  <JGI2>
0.06

>  <JGI3>
0.05

>  <JGI4>
0.04

>  <JGI5>
0.02

>  <Diameter>
10

>  <Radius>
5

>  <TMWC10>
124.77

>  <TSRW10>
71.3

>  <MW>
307.1

>  <AMW>
8.53

>  <WPath>
1117

>  <WPol>
37

>  <Zagreb1>
126

>  <Zagreb2>
151

>  <mZagreb2>
4.97

>  <yes>


>  <nAR-cont>
0.816016

>  <nHA-cont>
0.967789328

>  <MWHBN>
0.342382329

>  <MWHBN-cont>
0.698443971

>  <TPSA-cont>
0.460747031

>  <pka_cont>
0.97

>  <yes.1>


>  <BBB_SCORE>
4.237965345

>  <MMFF94 Energy>
11.822

$$$$
Compound 216
Actelion Java MolfileCreator 2.0

  0  0  0  0  0  0              0 V3000
M  V30 BEGIN CTAB
M  V30 COUNTS 63 67 0 0 0
M  V30 BEGIN ATOM
M  V30 1 Cl -5.8174 9.4664 -2.7439 0
M  V30 2 C -4.6476 8.6997 -1.7424 0
M  V30 3 C -5.0661 7.8523 -0.7152 0
M  V30 4 C -3.2898 8.9377 -1.9579 0
M  V30 5 C -4.1188 7.229 0.1003 0
M  V30 6 C -2.3396 8.3164 -1.1446 0
M  V30 7 C -2.7551 7.4472 -0.1298 0
M  V30 8 C -1.7296 6.8203 0.7344 0
M  V30 9 O -0.9131 7.56 1.277 0
M  V30 10 N -1.7288 5.441 0.8915 0
M  V30 11 C -2.4737 4.4952 0.0609 0
M  V30 12 C -0.8316 4.8334 1.8607 0
M  V30 13 C -1.7837 3.1541 -0.2666 0
M  V30 14 C 0.1456 3.9276 1.1261 0
M  V30 15 O -2.3637 2.3563 -1.0085 0
M  V30 16 N -0.551 2.9013 0.3424 0
M  V30 17 C 0.1328 1.6754 0.1145 0
M  V30 18 C -0.5212 0.4546 0.3066 0
M  V30 19 C 1.475 1.6694 -0.2736 0
M  V30 20 C 0.152 -0.7575 0.1084 0
M  V30 21 C 2.1445 0.4577 -0.4678 0
M  V30 22 C 1.4887 -0.7617 -0.2835 0
M  V30 23 O 2.2681 -1.86 -0.5076 0
M  V30 24 C 1.6631 -3.1566 -0.5156 0
M  V30 25 C 2.5003 -4.0439 -1.4357 0
M  V30 26 C 1.6627 -3.7569 0.888 0
M  V30 27 C 2.0123 -5.4896 -1.3936 0
M  V30 28 C 1.1998 -5.2118 0.8574 0
M  V30 29 N 2.0618 -6.0312 -0.0192 0
M  V30 30 C 1.5712 -7.4316 -0.0239 0
M  V30 31 C 2.6271 -8.3788 -0.6654 0
M  V30 32 C 1.9085 -8.1338 1.324 0
M  V30 33 C 3.2589 -8.5626 0.725 0
M  V30 34 H -6.1257 7.6829 -0.5403 0
M  V30 35 H -2.9665 9.6092 -2.7492 0
M  V30 36 H -4.4472 6.5927 0.918 0
M  V30 37 H -1.2805 8.512 -1.2977 0
M  V30 38 H -3.3962 4.2564 0.6023 0
M  V30 39 H -2.735 4.9597 -0.8945 0
M  V30 40 H -0.2887 5.589 2.4366 0
M  V30 41 H -1.4463 4.2561 2.5616 0
M  V30 42 H 0.7522 4.5181 0.4288 0
M  V30 43 H 0.8079 3.4472 1.8556 0
M  V30 44 H -1.5649 0.4319 0.611 0
M  V30 45 H 2.0137 2.5961 -0.4468 0
M  V30 46 H -0.4032 -1.6732 0.2755 0
M  V30 47 H 3.1879 0.4641 -0.7747 0
M  V30 48 H 0.6487 -3.1219 -0.9328 0
M  V30 49 H 2.451 -3.66 -2.462 0
M  V30 50 H 3.5595 -3.9919 -1.1497 0
M  V30 51 H 2.6679 -3.6877 1.325 0
M  V30 52 H 1.0132 -3.1773 1.5535 0
M  V30 53 H 2.6556 -6.067 -2.0645 0
M  V30 54 H 0.9935 -5.5485 -1.7999 0
M  V30 55 H 1.2281 -5.5806 1.8874 0
M  V30 56 H 0.1521 -5.2596 0.5308 0
M  V30 57 H 0.5438 -7.5676 -0.3782 0
M  V30 58 H 3.3051 -7.9917 -1.4291 0
M  V30 59 H 2.1821 -9.3033 -1.0559 0
M  V30 60 H 1.9806 -7.5402 2.238 0
M  V30 61 H 1.2467 -8.9844 1.5335 0
M  V30 62 H 3.5859 -9.5767 0.9681 0
M  V30 63 H 4.0785 -7.8661 0.9354 0
M  V30 END ATOM
M  V30 BEGIN BOND
M  V30 1 1 1 2
M  V30 2 2 2 3
M  V30 3 1 2 4
M  V30 4 1 3 5
M  V30 5 2 4 6
M  V30 6 2 5 7
M  V30 7 1 7 8
M  V30 8 2 8 9
M  V30 9 1 8 10
M  V30 10 1 10 11
M  V30 11 1 10 12
M  V30 12 1 11 13
M  V30 13 1 12 14
M  V30 14 2 13 15
M  V30 15 1 13 16
M  V30 16 1 16 17
M  V30 17 2 17 18
M  V30 18 1 17 19
M  V30 19 1 18 20
M  V30 20 2 19 21
M  V30 21 2 20 22
M  V30 22 1 22 23
M  V30 23 1 23 24
M  V30 24 1 24 25
M  V30 25 1 24 26
M  V30 26 1 25 27
M  V30 27 1 26 28
M  V30 28 1 27 29
M  V30 29 1 29 30
M  V30 30 1 30 31
M  V30 31 1 30 32
M  V30 32 1 31 33
M  V30 33 1 6 7
M  V30 34 1 14 16
M  V30 35 1 21 22
M  V30 36 1 28 29
M  V30 37 1 32 33
M  V30 38 1 3 34
M  V30 39 1 4 35
M  V30 40 1 5 36
M  V30 41 1 6 37
M  V30 42 1 11 38
M  V30 43 1 11 39
M  V30 44 1 12 40
M  V30 45 1 12 41
M  V30 46 1 14 42
M  V30 47 1 14 43
M  V30 48 1 18 44
M  V30 49 1 19 45
M  V30 50 1 20 46
M  V30 51 1 21 47
M  V30 52 1 24 48
M  V30 53 1 25 49
M  V30 54 1 25 50
M  V30 55 1 26 51
M  V30 56 1 26 52
M  V30 57 1 27 53
M  V30 58 1 27 54
M  V30 59 1 28 55
M  V30 60 1 28 56
M  V30 61 1 30 57
M  V30 62 1 31 58
M  V30 63 1 31 59
M  V30 64 1 32 60
M  V30 65 1 32 61
M  V30 66 1 33 62
M  V30 67 1 33 63
M  V30 END BOND
M  V30 END CTAB
M  END
>  <Column 1>
277

>  <level_0>
316

>  <index>
316

>  <Unnamed: 0>
316

>  <NO.>
317

>  <Name>
chembl1190347

>  <IUPAC_name>
4-(4-chlorobenzoyl)-1-[4-(1-cyclobutylpiperidin-4-yl)oxyphenyl]piperazin-2-one

>  <SMILES>
O=C(c1ccc(Cl)cc1)N1CCN(c2ccc(OC3CCN(C4CCC4)CC3)cc2)C(=O)C1

>  <CID>
15986644

>  <logBB>
-0.4

>  <BBB+/BBB->
BBB+

>  <Inchi>
InChI=1S/C26H30ClN3O3/c27-20-6-4-19(5-7-20)26(32)29-16-17-30(25(31)18-29)22-8-10-23(11-9-22)33-24-12-14-28(15-13-24)21-2-1-3-21/h4-11-21-24H-1-3-12-18H2

>  <threshold>


>  <reference>
R18|R26|R27|

>  <group>
A

>  <Class>
1

>  <ABC>
26.29

>  <ABCGG>
17.87

>  <nAcid>
0

>  <nBase>
1

>  <nAromAtom>
12

>  <nAromBond>
12

>  <nAtom>
63

>  <nHeavyAtom>
33

>  <nSpiro>
0

>  <nBridgehead>
0

>  <nHetero>
7

>  <nN>
3

>  <nO>
3

>  <nF>
0

>  <BalabanJ>
1.01

>  <BertzCT>
982.85

>  <nBonds>
67

>  <nBondsO>
37

>  <nBondsS>
53

>  <nBondsD>
2

>  <nBondsT>
0

>  <nBondsA>
12

>  <nBondsM>
14

>  <nBondsKS>
59

>  <nBondsKD>
8

>  <RNCG>
0.2

>  <RPCG>
0.1

>  <FCSP3>
0.46

>  <SZ>
41.33

>  <Sm>
38.96

>  <Sv>
39.64

>  <Sse>
63.06

>  <Sp>
42.7

>  <Si>
70.88

>  <MZ>
0.66

>  <Mm>
0.62

>  <Mv>
0.63

>  <Mse>
1

>  <Mp>
0.68

>  <Mi>
1.13

>  <NsCH3>
0

>  <NdCH2>
0

>  <NssCH2>
10

>  <NtCH>
0

>  <NdsCH>
0

>  <NaaCH>
8

>  <NsssCH>
2

>  <NddC>
0

>  <NtsC>
0

>  <NdssC>
2

>  <NaasC>
4

>  <NaaaC>
0

>  <NssssC>
0

>  <NsNH3>
0

>  <NsNH2>
0

>  <NssNH2>
0

>  <NdNH>
0

>  <NssNH>
0

>  <NaaNH>
0

>  <NtN>
0

>  <NsssNH>
0

>  <NdsN>
0

>  <NaaN>
0

>  <NsssN>
3

>  <NddsN>
0

>  <NaasN>
0

>  <NssssN>
0

>  <NsOH>
0

>  <NdO>
2

>  <NssO>
1

>  <NaaO>
0

>  <NsF>
0

>  <NsSiH3>
0

>  <NssSiH2>
0

>  <NsssSiH>
0

>  <NssssSi>
0

>  <NsPH2>
0

>  <NssPH>
0

>  <NsssP>
0

>  <NdsssP>
0

>  <NsssssP>
0

>  <NsSH>
0

>  <NdS>
0

>  <NssS>
0

>  <NaaS>
0

>  <NdssS>
0

>  <NddssS>
0

>  <NsCl>
1

>  <NsBr>
0

>  <NsI>
0

>  <fragCpx>
313.07

>  <fMF>
0.48

>  <nHBAcc>
4

>  <nHBDon>
0

>  <Kier1>
24.68

>  <Kier2>
11.37

>  <Lipinski>
1

>  <GhoseFilter>
1

>  <FilterItLogS>
-4.91

>  <VMcGowan>
348.29

>  <LabuteASA>
199.6

>  <PEOE_VSA1>
19.44

>  <PEOE_VSA2>
9.59

>  <PEOE_VSA3>
0

>  <PEOE_VSA4>
0

>  <PEOE_VSA5>
0

>  <PEOE_VSA6>
18.02

>  <PEOE_VSA7>
74.21

>  <PEOE_VSA8>
48.49

>  <PEOE_VSA9>
0

>  <PEOE_VSA10>
18.4

>  <PEOE_VSA11>
0

>  <PEOE_VSA12>
5.91

>  <PEOE_VSA13>
5.91

>  <SMR_VSA1>
14.33

>  <SMR_VSA2>
0

>  <SMR_VSA3>
9.8

>  <SMR_VSA4>
0

>  <SMR_VSA5>
44.25

>  <SMR_VSA6>
37.62

>  <SMR_VSA7>
59.12

>  <SMR_VSA8>
0

>  <SMR_VSA9>
5.75

>  <SlogP_VSA1>
9.64

>  <SlogP_VSA2>
66.48

>  <SlogP_VSA3>
4.79

>  <SlogP_VSA4>
0

>  <SlogP_VSA5>
42.46

>  <SlogP_VSA6>
48.53

>  <SlogP_VSA7>
5.02

>  <SlogP_VSA8>
0

>  <SlogP_VSA9>
0

>  <SlogP_VSA10>
5.69

>  <SlogP_VSA11>
5.75

>  <EState_VSA1>
0

>  <EState_VSA2>
24.46

>  <EState_VSA3>
23.68

>  <EState_VSA4>
43.41

>  <EState_VSA5>
19.26

>  <EState_VSA6>
34.07

>  <EState_VSA7>
24.27

>  <EState_VSA8>
4.9

>  <EState_VSA9>
16.34

>  <EState_VSA10>
9.59

>  <VSA_EState1>
6.22

>  <VSA_EState2>
31.45

>  <VSA_EState3>
0.58

>  <VSA_EState4>
1.38

>  <VSA_EState5>
0.62

>  <VSA_EState6>
15.35

>  <VSA_EState7>
6.49

>  <VSA_EState8>
3.28

>  <VSA_EState9>
0

>  <apol>
71.31

>  <bpol>
39.21

>  <nRing>
5

>  <nHRing>
2

>  <naRing>
2

>  <naHRing>
0

>  <nARing 2>
3

>  <nAHRing 2>
2

>  <nFRing>
0

>  <nFHRing>
0

>  <nFaRing>
0

>  <nFaHRing>
0

>  <nFARing 2>
0

>  <nFAHRing 2>
0

>  <nRot>
5

>  <SLogP>
4.22

>  <SMR>
129.01

>  <TopoPSA(NO)>
53.09

>  <TopoPSA>
53.09

>  <JGI1>
0.18

>  <JGI2>
0.08

>  <JGI3>
0.04

>  <JGI4>
0.04

>  <JGI5>
0.02

>  <Diameter>
21

>  <Radius>
11

>  <TMWC10>
147.9

>  <TSRW10>
69.49

>  <MW>
467.2

>  <AMW>
7.42

>  <WPath>
3934

>  <WPol>
52

>  <Zagreb1>
178

>  <Zagreb2>
210

>  <mZagreb2>
7.14

>  <yes>


>  <nAR-cont>
0.691115

>  <nHA-cont>
0.61399562

>  <MWHBN>
0.185058303

>  <MWHBN-cont>
0.992027973

>  <TPSA-cont>
0.629398833

>  <pka_cont>
0.97

>  <yes.1>


>  <BBB_SCORE>
4.536950246

>  <MMFF94 Energy>
108.5

$$$$
Compound 217
Actelion Java MolfileCreator 2.0

  0  0  0  0  0  0              0 V3000
M  V30 BEGIN CTAB
M  V30 COUNTS 63 66 0 0 0
M  V30 BEGIN ATOM
M  V30 1 O 3.3999 -2.292 -3.0041 0
M  V30 2 C 3.5778 -1.3508 -2.2357 0
M  V30 3 N 4.8232 -0.8309 -2.0405 0
M  V30 4 C 2.5039 -0.7281 -1.4906 0
M  V30 5 C 2.5932 0.3353 -0.6087 0
M  V30 6 C 1.1241 -1.0841 -1.5083 0
M  V30 7 N 3.6553 1.0911 -0.1813 0
M  V30 8 N 1.2964 0.5635 -0.1544 0
M  V30 9 N 0.4085 -0.2971 -0.7058 0
M  V30 10 N 0.6586 -2.106 -2.2739 0
M  V30 11 C 3.3787 2.0328 0.6726 0
M  V30 12 C 1.0046 1.5957 0.7769 0
M  V30 13 C -0.6343 -2.6558 -2.4323 0
M  V30 14 C 2.0255 2.3544 1.2121 0
M  V30 15 C 4.5449 2.8402 1.1302 0
M  V30 16 N -0.3243 1.7236 1.154 0
M  V30 17 C -0.8146 -3.692 -3.3623 0
M  V30 18 C -1.757 -2.2169 -1.7191 0
M  V30 19 C 4.451 4.3164 1.4278 0
M  V30 20 C 4.6794 3.3394 2.5481 0
M  V30 21 C -0.9865 2.6426 2.0652 0 CFG=2
M  V30 22 C -2.0669 -4.2775 -3.5761 0
M  V30 23 C -3.0158 -2.7904 -1.92 0
M  V30 24 C -1.2513 1.9764 3.4425 0
M  V30 25 C -2.2752 3.1615 1.3787 0
M  V30 26 O -2.0795 -5.275 -4.5134 0
M  V30 27 C -3.1649 -3.8214 -2.8507 0
M  V30 28 O -4.1699 -2.4324 -1.2721 0
M  V30 29 C -2.0564 0.674 3.3907 0
M  V30 30 C 0.0583 1.7302 4.2025 0
M  V30 31 O -3.1038 2.0968 0.9115 0
M  V30 32 C -3.3299 -5.9054 -4.761 0
M  V30 33 C -4.0652 -1.3861 -0.3112 0
M  V30 34 H 4.9623 -0.0521 -1.4033 0
M  V30 35 H 5.6065 -1.2286 -2.5351 0
M  V30 36 H 1.3544 -2.5923 -2.8437 0
M  V30 37 H 1.9016 3.157 1.92 0
M  V30 38 H 5.4783 2.5252 0.6642 0
M  V30 39 H -0.9521 1.0546 0.6896 0
M  V30 40 H 0.0316 -4.0586 -3.9391 0
M  V30 41 H -1.6399 -1.4208 -0.9962 0
M  V30 42 H 3.4932 4.8179 1.3655 0
M  V30 43 H 5.2836 4.943 1.1242 0
M  V30 44 H 5.6656 3.3065 2.9999 0
M  V30 45 H 3.8779 3.1667 3.256 0
M  V30 46 H -0.3584 3.5264 2.2329 0
M  V30 47 H -1.8303 2.6913 4.0431 0
M  V30 48 H -2.0032 3.7699 0.5086 0
M  V30 49 H -2.8581 3.7827 2.0662 0
M  V30 50 H -4.154 -4.2455 -2.9837 0
M  V30 51 H -2.1557 0.2445 4.394 0
M  V30 52 H -3.0709 0.8429 3.0212 0
M  V30 53 H -1.5761 -0.078 2.7569 0
M  V30 54 H -0.1479 1.4005 5.2268 0
M  V30 55 H 0.6529 2.6473 4.2665 0
M  V30 56 H 0.6663 0.9566 3.7232 0
M  V30 57 H -3.7984 2.5005 0.3629 0
M  V30 58 H -3.7063 -6.4037 -3.8615 0
M  V30 59 H -3.1714 -6.673 -5.5245 0
M  V30 60 H -4.0611 -5.1914 -5.1542 0
M  V30 61 H -3.3978 -1.6678 0.5099 0
M  V30 62 H -5.0609 -1.2225 0.1122 0
M  V30 63 H -3.7467 -0.4494 -0.7804 0
M  V30 END ATOM
M  V30 BEGIN BOND
M  V30 1 2 1 2
M  V30 2 1 2 3
M  V30 3 1 2 4
M  V30 4 2 4 5
M  V30 5 1 4 6
M  V30 6 1 5 7
M  V30 7 1 5 8
M  V30 8 2 6 9
M  V30 9 1 6 10
M  V30 10 2 7 11
M  V30 11 1 8 12
M  V30 12 1 10 13
M  V30 13 1 11 14
M  V30 14 1 11 15
M  V30 15 1 12 16
M  V30 16 2 13 17
M  V30 17 1 13 18
M  V30 18 1 15 19
M  V30 19 1 15 20
M  V30 20 1 16 21
M  V30 21 1 17 22
M  V30 22 2 18 23
M  V30 23 1 21 24
M  V30 24 1 21 25
M  V30 25 1 22 26
M  V30 26 2 22 27
M  V30 27 1 23 28
M  V30 28 1 24 29
M  V30 29 1 24 30
M  V30 30 1 25 31
M  V30 31 1 26 32
M  V30 32 1 28 33
M  V30 33 1 8 9
M  V30 34 2 12 14
M  V30 35 1 19 20
M  V30 36 1 23 27
M  V30 37 1 3 34
M  V30 38 1 3 35
M  V30 39 1 10 36
M  V30 40 1 14 37
M  V30 41 1 15 38
M  V30 42 1 16 39
M  V30 43 1 17 40
M  V30 44 1 18 41
M  V30 45 1 19 42
M  V30 46 1 19 43
M  V30 47 1 20 44
M  V30 48 1 20 45
M  V30 49 1 21 46
M  V30 50 1 24 47
M  V30 51 1 25 48
M  V30 52 1 25 49
M  V30 53 1 27 50
M  V30 54 1 29 51
M  V30 55 1 29 52
M  V30 56 1 29 53
M  V30 57 1 30 54
M  V30 58 1 30 55
M  V30 59 1 30 56
M  V30 60 1 31 57
M  V30 61 1 32 58
M  V30 62 1 32 59
M  V30 63 1 32 60
M  V30 64 1 33 61
M  V30 65 1 33 62
M  V30 66 1 33 63
M  V30 END BOND
M  V30 BEGIN COLLECTION
M  V30 MDLV30/STERAC1 ATOMS=(1 21)
M  V30 END COLLECTION
M  V30 END CTAB
M  END
>  <Column 1>
278

>  <level_0>
317

>  <index>
317

>  <Unnamed: 0>
317

>  <NO.>
318

>  <Name>
compound 6h

>  <IUPAC_name>
5-cyclopropyl-2-(3-5-dimethoxyanilino)-7-[(1-hydroxy-3-methylbutan-2-yl)amino]pyrazolo[1-5-a]pyrimidine-3-carboxamide

>  <SMILES>
COc1cc(Nc2nn3c(NC(CO)C(C)C)cc(C4CC4)nc3c2C(N)=O)cc(OC)c1

>  <CID>
75029315

>  <logBB>
-0.39

>  <BBB+/BBB->
BBB+

>  <Inchi>
InChI=1S/C23H30N6O4/c1-12(2)18(11-30)26-19-10-17(13-5-6-13)27-23-20(21(24)31)22(28-29(19)23)25-14-7-15(32-3)9-16(8-14)33-4/h7-10-12-13-18-26-30H-5-6-11H2-1-4H3-(H2-24-31)(H-25-28)

>  <threshold>


>  <reference>
R18|R26|R27|

>  <group>
A

>  <Class>
1

>  <ABC>
25.61

>  <ABCGG>
20.9

>  <nAcid>
0

>  <nBase>
0

>  <nAromAtom>
15

>  <nAromBond>
16

>  <nAtom>
63

>  <nHeavyAtom>
33

>  <nSpiro>
0

>  <nBridgehead>
0

>  <nHetero>
10

>  <nN>
6

>  <nO>
4

>  <nF>
0

>  <BalabanJ>
1.51

>  <BertzCT>
1149.21

>  <nBonds>
66

>  <nBondsO>
36

>  <nBondsS>
49

>  <nBondsD>
1

>  <nBondsT>
0

>  <nBondsA>
16

>  <nBondsM>
17

>  <nBondsKS>
58

>  <nBondsKD>
8

>  <RNCG>
0.14

>  <RPCG>
0.07

>  <FCSP3>
0.43

>  <SZ>
40.33

>  <Sm>
37.84

>  <Sv>
38.53

>  <Sse>
63.62

>  <Sp>
40.85

>  <Si>
71.81

>  <MZ>
0.64

>  <Mm>
0.6

>  <Mv>
0.61

>  <Mse>
1.01

>  <Mp>
0.65

>  <Mi>
1.14

>  <NsCH3>
4

>  <NdCH2>
0

>  <NssCH2>
3

>  <NtCH>
0

>  <NdsCH>
0

>  <NaaCH>
4

>  <NsssCH>
3

>  <NddC>
0

>  <NtsC>
0

>  <NdssC>
1

>  <NaasC>
7

>  <NaaaC>
1

>  <NssssC>
0

>  <NsNH3>
0

>  <NsNH2>
1

>  <NssNH2>
0

>  <NdNH>
0

>  <NssNH>
2

>  <NaaNH>
0

>  <NtN>
0

>  <NsssNH>
0

>  <NdsN>
0

>  <NaaN>
2

>  <NsssN>
0

>  <NddsN>
0

>  <NaasN>
1

>  <NssssN>
0

>  <NsOH>
1

>  <NdO>
1

>  <NssO>
2

>  <NaaO>
0

>  <NsF>
0

>  <NsSiH3>
0

>  <NssSiH2>
0

>  <NsssSiH>
0

>  <NssssSi>
0

>  <NsPH2>
0

>  <NssPH>
0

>  <NsssP>
0

>  <NdsssP>
0

>  <NsssssP>
0

>  <NsSH>
0

>  <NdS>
0

>  <NssS>
0

>  <NaaS>
0

>  <NdssS>
0

>  <NddssS>
0

>  <NsCl>
0

>  <NsBr>
0

>  <NsI>
0

>  <fragCpx>
240.1

>  <fMF>
0.3

>  <nHBAcc>
9

>  <nHBDon>
4

>  <Kier1>
26.07

>  <Kier2>
11.37

>  <Lipinski>
1

>  <GhoseFilter>
1

>  <FilterItLogS>
-4.75

>  <VMcGowan>
340.45

>  <LabuteASA>
191.65

>  <PEOE_VSA1>
30.95

>  <PEOE_VSA2>
4.79

>  <PEOE_VSA3>
4.98

>  <PEOE_VSA4>
4.52

>  <PEOE_VSA5>
5.1

>  <PEOE_VSA6>
13.85

>  <PEOE_VSA7>
18.76

>  <PEOE_VSA8>
41.56

>  <PEOE_VSA9>
26.87

>  <PEOE_VSA10>
22.88

>  <PEOE_VSA11>
11.47

>  <PEOE_VSA12>
0

>  <PEOE_VSA13>
5.91

>  <SMR_VSA1>
19.37

>  <SMR_VSA2>
0

>  <SMR_VSA3>
14.6

>  <SMR_VSA4>
11.65

>  <SMR_VSA5>
38.65

>  <SMR_VSA6>
31.46

>  <SMR_VSA7>
35.52

>  <SMR_VSA8>
0

>  <SMR_VSA9>
11.5

>  <SlogP_VSA1>
25.84

>  <SlogP_VSA2>
52.48

>  <SlogP_VSA3>
0

>  <SlogP_VSA4>
5.92

>  <SlogP_VSA5>
48.66

>  <SlogP_VSA6>
24.27

>  <SlogP_VSA7>
0

>  <SlogP_VSA8>
5.65

>  <SlogP_VSA9>
0

>  <SlogP_VSA10>
17.32

>  <SlogP_VSA11>
11.5

>  <EState_VSA1>
5.91

>  <EState_VSA2>
29.95

>  <EState_VSA3>
34.57

>  <EState_VSA4>
18.54

>  <EState_VSA5>
0

>  <EState_VSA6>
36.93

>  <EState_VSA7>
19.91

>  <EState_VSA8>
15.73

>  <EState_VSA9>
20.19

>  <EState_VSA10>
9.9

>  <VSA_EState1>
12.24

>  <VSA_EState2>
17.24

>  <VSA_EState3>
21

>  <VSA_EState4>
7.82

>  <VSA_EState5>
1.96

>  <VSA_EState6>
7.02

>  <VSA_EState7>
2.09

>  <VSA_EState8>
4

>  <VSA_EState9>
3.12

>  <apol>
68.22

>  <bpol>
37.86

>  <nRing>
4

>  <nHRing>
2

>  <naRing>
3

>  <naHRing>
2

>  <nARing 2>
1

>  <nAHRing 2>
0

>  <nFRing>
1

>  <nFHRing>
1

>  <nFaRing>
1

>  <nFaHRing>
1

>  <nFARing 2>
0

>  <nFAHRing 2>
0

>  <nRot>
10

>  <SLogP>
2.9

>  <SMR>
125.64

>  <TopoPSA(NO)>
136.03

>  <TopoPSA>
136.03

>  <JGI1>
0.22

>  <JGI2>
0.06

>  <JGI3>
0.06

>  <JGI4>
0.04

>  <JGI5>
0.03

>  <Diameter>
13

>  <Radius>
7

>  <TMWC10>
147.99

>  <TSRW10>
89.02

>  <MW>
454.23

>  <AMW>
7.21

>  <WPath>
3081

>  <WPol>
55

>  <Zagreb1>
176

>  <Zagreb2>
211

>  <mZagreb2>
7.36

>  <yes>


>  <nAR-cont>
0.816016

>  <nHA-cont>
0.61399562

>  <MWHBN>
0.609965744

>  <MWHBN-cont>
0

>  <TPSA-cont>
0

>  <pka_cont>
0.97

>  <yes.1>


>  <BBB_SCORE>
1.91501162

>  <MMFF94 Energy>
75.975

$$$$
Compound 218
Actelion Java MolfileCreator 2.0

  0  0  0  0  0  0              0 V3000
M  V30 BEGIN CTAB
M  V30 COUNTS 61 65 0 0 0
M  V30 BEGIN ATOM
M  V30 1 O -1.6782 5.4422 -7.9308 0
M  V30 2 C -0.8533 5.4192 -7.0206 0
M  V30 3 N -1.2163 5.1297 -5.7346 0
M  V30 4 C 0.6441 5.6295 -7.2387 0
M  V30 5 C -0.2854 5.1379 -4.6961 0
M  V30 6 O 1.4614 6.0221 -6.1455 0
M  V30 7 C 1.0178 5.5813 -4.9289 0
M  V30 8 C -0.6758 4.7319 -3.4189 0
M  V30 9 C 1.9292 5.633 -3.8773 0
M  V30 10 C 0.2416 4.7664 -2.3579 0
M  V30 11 C 1.5455 5.2227 -2.5984 0
M  V30 12 C -0.1695 4.3174 -0.9752 0
M  V30 13 C -0.3169 2.7902 -0.8411 0
M  V30 14 C 1.0269 2.0616 -0.9808 0
M  V30 15 C -0.9409 2.4385 0.5163 0
M  V30 16 C 0.8806 0.5619 -0.7181 0
M  V30 17 C -1.0209 0.9252 0.7291 0
M  V30 18 N 0.3045 0.2994 0.6114 0
M  V30 19 C 0.2446 -1.1575 0.847 0
M  V30 20 C -0.0385 -1.5496 2.3069 0
M  V30 21 O 0.0367 -2.9758 2.4025 0
M  V30 22 C -0.1923 -3.5484 3.6309 0
M  V30 23 C -0.1517 -4.9671 3.675 0
M  V30 24 C -0.4518 -2.8261 4.798 0
M  V30 25 C -0.3766 -5.6425 4.8931 0
M  V30 26 C 0.1058 -5.7689 2.5475 0
M  V30 27 C -0.6722 -3.4986 5.9964 0
M  V30 28 N -0.3537 -6.9834 5.0025 0
M  V30 29 C -0.633 -4.8924 6.0301 0
M  V30 30 C 0.1315 -7.155 2.6558 0
M  V30 31 C -0.1027 -7.7237 3.8978 0
M  V30 32 C -0.0842 -9.2138 4.06 0
M  V30 33 H -2.1936 4.9371 -5.5631 0
M  V30 34 H 0.7529 6.4 -8.01 0
M  V30 35 H 1.0499 4.6963 -7.6474 0
M  V30 36 H -1.6922 4.3906 -3.2398 0
M  V30 37 H 2.9401 5.9915 -4.0523 0
M  V30 38 H 2.2732 5.2625 -1.7902 0
M  V30 39 H -1.124 4.8049 -0.7349 0
M  V30 40 H 0.5471 4.6924 -0.2327 0
M  V30 41 H -0.9902 2.4225 -1.6277 0
M  V30 42 H 1.7576 2.4844 -0.2787 0
M  V30 43 H 1.4345 2.2028 -1.9883 0
M  V30 44 H -1.9492 2.8649 0.5839 0
M  V30 45 H -0.352 2.888 1.327 0
M  V30 46 H 1.879 0.1123 -0.7851 0
M  V30 47 H 0.2656 0.1075 -1.5062 0
M  V30 48 H -1.4344 0.7609 1.7298 0
M  V30 49 H -1.7253 0.4882 0.0093 0
M  V30 50 H 1.211 -1.6086 0.5828 0
M  V30 51 H -0.4912 -1.6362 0.1866 0
M  V30 52 H 0.7173 -1.0913 2.9561 0
M  V30 53 H -1.0412 -1.2202 2.5995 0
M  V30 54 H -0.4871 -1.7419 4.8111 0
M  V30 55 H 0.2888 -5.311 1.5784 0
M  V30 56 H -0.8738 -2.9414 6.9078 0
M  V30 57 H -0.806 -5.4105 6.9707 0
M  V30 58 H 0.331 -7.7708 1.7855 0
M  V30 59 H -0.2872 -9.4956 5.0983 0
M  V30 60 H 0.8972 -9.612 3.7847 0
M  V30 61 H -0.8497 -9.6727 3.4266 0
M  V30 END ATOM
M  V30 BEGIN BOND
M  V30 1 2 1 2
M  V30 2 1 2 3
M  V30 3 1 2 4
M  V30 4 1 3 5
M  V30 5 1 4 6
M  V30 6 2 5 7
M  V30 7 1 5 8
M  V30 8 1 7 9
M  V30 9 2 8 10
M  V30 10 2 9 11
M  V30 11 1 10 12
M  V30 12 1 12 13
M  V30 13 1 13 14
M  V30 14 1 13 15
M  V30 15 1 14 16
M  V30 16 1 15 17
M  V30 17 1 16 18
M  V30 18 1 18 19
M  V30 19 1 19 20
M  V30 20 1 20 21
M  V30 21 1 21 22
M  V30 22 1 22 23
M  V30 23 2 22 24
M  V30 24 1 23 25
M  V30 25 2 23 26
M  V30 26 1 24 27
M  V30 27 2 25 28
M  V30 28 1 25 29
M  V30 29 1 26 30
M  V30 30 1 28 31
M  V30 31 1 31 32
M  V30 32 1 6 7
M  V30 33 1 10 11
M  V30 34 1 17 18
M  V30 35 2 27 29
M  V30 36 2 30 31
M  V30 37 1 3 33
M  V30 38 1 4 34
M  V30 39 1 4 35
M  V30 40 1 8 36
M  V30 41 1 9 37
M  V30 42 1 11 38
M  V30 43 1 12 39
M  V30 44 1 12 40
M  V30 45 1 13 41
M  V30 46 1 14 42
M  V30 47 1 14 43
M  V30 48 1 15 44
M  V30 49 1 15 45
M  V30 50 1 16 46
M  V30 51 1 16 47
M  V30 52 1 17 48
M  V30 53 1 17 49
M  V30 54 1 19 50
M  V30 55 1 19 51
M  V30 56 1 20 52
M  V30 57 1 20 53
M  V30 58 1 24 54
M  V30 59 1 26 55
M  V30 60 1 27 56
M  V30 61 1 29 57
M  V30 62 1 30 58
M  V30 63 1 32 59
M  V30 64 1 32 60
M  V30 65 1 32 61
M  V30 END BOND
M  V30 END CTAB
M  END
>  <Column 1>
279

>  <level_0>
318

>  <index>
318

>  <Unnamed: 0>
318

>  <NO.>
319

>  <Name>
sb 649915

>  <IUPAC_name>
6-[[1-[2-(2-methylquinolin-5-yl)oxyethyl]piperidin-4-yl]methyl]-4h-1-4-benzoxazin-3-one

>  <SMILES>
Cc1ccc2c(OCCN3CCC(Cc4ccc5c(c4)NC(=O)CO5)CC3)cccc2n1

>  <CID>
10296414

>  <logBB>
-0.39

>  <BBB+/BBB->
BBB+

>  <Inchi>
InChI=1S/C26H29N3O3/c1-18-5-7-21-22(27-18)3-2-4-24(21)31-14-13-29-11-9-19(10-12-29)15-20-6-8-25-23(16-20)28-26(30)17-32-25/h2-8-16-19H-9-15-17H2-1H3-(H-28-30)

>  <threshold>


>  <reference>
R18|R26|R27|

>  <group>
A

>  <Class>
1

>  <ABC>
25.55

>  <ABCGG>
16.56

>  <nAcid>
0

>  <nBase>
1

>  <nAromAtom>
16

>  <nAromBond>
17

>  <nAtom>
61

>  <nHeavyAtom>
32

>  <nSpiro>
0

>  <nBridgehead>
0

>  <nHetero>
6

>  <nN>
3

>  <nO>
3

>  <nF>
0

>  <BalabanJ>
0.98

>  <BertzCT>
1122.5

>  <nBonds>
65

>  <nBondsO>
36

>  <nBondsS>
47

>  <nBondsD>
1

>  <nBondsT>
0

>  <nBondsA>
17

>  <nBondsM>
18

>  <nBondsKS>
56

>  <nBondsKD>
9

>  <RNCG>
0.19

>  <RPCG>
0.1

>  <FCSP3>
0.38

>  <SZ>
38.33

>  <Sm>
35.93

>  <Sv>
38.27

>  <Sse>
60.86

>  <Sp>
41

>  <Si>
68.52

>  <MZ>
0.63

>  <Mm>
0.59

>  <Mv>
0.63

>  <Mse>
1

>  <Mp>
0.67

>  <Mi>
1.12

>  <NsCH3>
1

>  <NdCH2>
0

>  <NssCH2>
8

>  <NtCH>
0

>  <NdsCH>
0

>  <NaaCH>
8

>  <NsssCH>
1

>  <NddC>
0

>  <NtsC>
0

>  <NdssC>
1

>  <NaasC>
5

>  <NaaaC>
2

>  <NssssC>
0

>  <NsNH3>
0

>  <NsNH2>
0

>  <NssNH2>
0

>  <NdNH>
0

>  <NssNH>
1

>  <NaaNH>
0

>  <NtN>
0

>  <NsssNH>
0

>  <NdsN>
0

>  <NaaN>
1

>  <NsssN>
1

>  <NddsN>
0

>  <NaasN>
0

>  <NssssN>
0

>  <NsOH>
0

>  <NdO>
1

>  <NssO>
2

>  <NaaO>
0

>  <NsF>
0

>  <NsSiH3>
0

>  <NssSiH2>
0

>  <NsssSiH>
0

>  <NssssSi>
0

>  <NsPH2>
0

>  <NssPH>
0

>  <NsssP>
0

>  <NdsssP>
0

>  <NsssssP>
0

>  <NsSH>
0

>  <NdS>
0

>  <NssS>
0

>  <NaaS>
0

>  <NdssS>
0

>  <NddssS>
0

>  <NsCl>
0

>  <NsBr>
0

>  <NsI>
0

>  <fragCpx>
304.06

>  <fMF>
0.49

>  <nHBAcc>
5

>  <nHBDon>
1

>  <Kier1>
23.73

>  <Kier2>
11.16

>  <Lipinski>
1

>  <GhoseFilter>
1

>  <FilterItLogS>
-6.97

>  <VMcGowan>
331.75

>  <LabuteASA>
188.09

>  <PEOE_VSA1>
14.79

>  <PEOE_VSA2>
14.68

>  <PEOE_VSA3>
0

>  <PEOE_VSA4>
0

>  <PEOE_VSA5>
0

>  <PEOE_VSA6>
12.13

>  <PEOE_VSA7>
87.16

>  <PEOE_VSA8>
17.62

>  <PEOE_VSA9>
11.2

>  <PEOE_VSA10>
18.11

>  <PEOE_VSA11>
6.61

>  <PEOE_VSA12>
0

>  <PEOE_VSA13>
5.91

>  <SMR_VSA1>
14.27

>  <SMR_VSA2>
0

>  <SMR_VSA3>
9.88

>  <SMR_VSA4>
5.92

>  <SMR_VSA5>
26.19

>  <SMR_VSA6>
38.16

>  <SMR_VSA7>
59.79

>  <SMR_VSA8>
0

>  <SMR_VSA9>
11.5

>  <SlogP_VSA1>
14.79

>  <SlogP_VSA2>
48.64

>  <SlogP_VSA3>
11.22

>  <SlogP_VSA4>
12.84

>  <SlogP_VSA5>
24.1

>  <SlogP_VSA6>
48.53

>  <SlogP_VSA7>
0

>  <SlogP_VSA8>
10.9

>  <SlogP_VSA9>
0

>  <SlogP_VSA10>
5.69

>  <SlogP_VSA11>
11.5

>  <EState_VSA1>
0

>  <EState_VSA2>
12.51

>  <EState_VSA3>
12.52

>  <EState_VSA4>
59.84

>  <EState_VSA5>
18.41

>  <EState_VSA6>
0

>  <EState_VSA7>
37.26

>  <EState_VSA8>
33.4

>  <EState_VSA9>
9.47

>  <EState_VSA10>
4.79

>  <VSA_EState1>
11.58

>  <VSA_EState2>
18.64

>  <VSA_EState3>
3.98

>  <VSA_EState4>
4.06

>  <VSA_EState5>
2.26

>  <VSA_EState6>
16.35

>  <VSA_EState7>
3.39

>  <VSA_EState8>
5.91

>  <VSA_EState9>
0

>  <apol>
68.46

>  <bpol>
36.85

>  <nRing>
5

>  <nHRing>
3

>  <naRing>
3

>  <naHRing>
1

>  <nARing 2>
2

>  <nAHRing 2>
2

>  <nFRing>
2

>  <nFHRing>
2

>  <nFaRing>
1

>  <nFaHRing>
1

>  <nFARing 2>
1

>  <nFAHRing 2>
1

>  <nRot>
6

>  <SLogP>
4.21

>  <SMR>
125.41

>  <TopoPSA(NO)>
63.69

>  <TopoPSA>
63.69

>  <JGI1>
0.18

>  <JGI2>
0.06

>  <JGI3>
0.03

>  <JGI4>
0.04

>  <JGI5>
0.02

>  <Diameter>
19

>  <Radius>
10

>  <TMWC10>
145.42

>  <TSRW10>
68.14

>  <MW>
431.22

>  <AMW>
7.07

>  <WPath>
3670

>  <WPol>
50

>  <Zagreb1>
172

>  <Zagreb2>
201

>  <mZagreb2>
6.92

>  <yes>


>  <nAR-cont>
1

>  <nHA-cont>
0.658856097

>  <MWHBN>
0.288936098

>  <MWHBN-cont>
0.872485245

>  <TPSA-cont>
0.555404251

>  <pka_cont>
0.97

>  <yes.1>


>  <BBB_SCORE>
4.563392466

>  <MMFF94 Energy>
106.12

$$$$
Compound 219
Actelion Java MolfileCreator 2.0

  0  0  0  0  0  0              0 V3000
M  V30 BEGIN CTAB
M  V30 COUNTS 28 28 0 0 0
M  V30 BEGIN ATOM
M  V30 1 O -4.7081 1.0186 -3.1368 0 CHG=-1
M  V30 2 N -3.712 0.7787 -2.3925 0 CHG=1
M  V30 3 C -2.5301 0.2916 -2.9189 0
M  V30 4 C -3.7836 0.989 -1.0271 0
M  V30 5 C -1.4268 0.0155 -2.1082 0
M  V30 6 C -2.6987 0.7242 -0.19 0
M  V30 7 C -1.5066 0.2468 -0.7369 0
M  V30 8 C -0.4186 -0.0327 0.2154 0
M  V30 9 N 0.8716 -0.0712 -0.0622 0 CHG=1
M  V30 10 O 1.2837 0.179 -1.2438 0 CHG=-1
M  V30 11 C 1.9045 -0.3777 1.0049 0
M  V30 12 C 3.3017 -0.3881 0.367 0
M  V30 13 C 1.5953 -1.7624 1.5791 0
M  V30 14 C 1.8289 0.7259 2.0621 0
M  V30 15 H -2.5615 0.1496 -3.9883 0
M  V30 16 H -4.7415 1.3654 -0.7018 0
M  V30 17 H -0.5317 -0.3843 -2.5754 0
M  V30 18 H -2.7996 0.9044 0.8768 0
M  V30 19 H -0.6998 -0.2031 1.2658 0
M  V30 20 H 4.0696 -0.6156 1.1153 0
M  V30 21 H 3.3792 -1.1445 -0.4225 0
M  V30 22 H 3.5531 0.5837 -0.0732 0
M  V30 23 H 0.6368 -1.7898 2.1076 0
M  V30 24 H 1.5558 -2.5194 0.7876 0
M  V30 25 H 2.3656 -2.0668 2.2967 0
M  V30 26 H 0.8685 0.7325 2.588 0
M  V30 27 H 2.6098 0.5936 2.8194 0
M  V30 28 H 1.9625 1.716 1.6112 0
M  V30 END ATOM
M  V30 BEGIN BOND
M  V30 1 1 1 2
M  V30 2 2 2 3
M  V30 3 1 2 4
M  V30 4 1 3 5
M  V30 5 2 4 6
M  V30 6 2 5 7
M  V30 7 1 7 8
M  V30 8 2 8 9
M  V30 9 1 9 10
M  V30 10 1 9 11
M  V30 11 1 11 12
M  V30 12 1 11 13
M  V30 13 1 11 14
M  V30 14 1 6 7
M  V30 15 1 3 15
M  V30 16 1 4 16
M  V30 17 1 5 17
M  V30 18 1 6 18
M  V30 19 1 8 19
M  V30 20 1 12 20
M  V30 21 1 12 21
M  V30 22 1 12 22
M  V30 23 1 13 23
M  V30 24 1 13 24
M  V30 25 1 13 25
M  V30 26 1 14 26
M  V30 27 1 14 27
M  V30 28 1 14 28
M  V30 END BOND
M  V30 END CTAB
M  END
>  <Column 1>
280

>  <level_0>
319

>  <index>
319

>  <Unnamed: 0>
319

>  <NO.>
320

>  <Name>
alpha-(4-pyridyl-1-oxide)-n-tert-butylnitrone

>  <IUPAC_name>
n-tert-butyl-1-(1-oxidopyridin-1-ium-4-yl)methanimine oxide

>  <SMILES>
CC(C)(C)/[N+]([O-])=C/c1cc[n+]([O-])cc1

>  <CID>
135532295

>  <logBB>
-0.38

>  <BBB+/BBB->
BBB+

>  <Inchi>
InChI=1S/C10H14N2O2/c1-10(2-3)12(14)8-9-4-6-11(13)7-5-9/h4-8H-1-3H3/b12-8-

>  <threshold>


>  <reference>
R20|

>  <group>
A

>  <Class>
1

>  <ABC>
10.53

>  <ABCGG>
9.63

>  <nAcid>
0

>  <nBase>
0

>  <nAromAtom>
6

>  <nAromBond>
6

>  <nAtom>
28

>  <nHeavyAtom>
14

>  <nSpiro>
0

>  <nBridgehead>
0

>  <nHetero>
4

>  <nN>
2

>  <nO>
2

>  <nF>
0

>  <BalabanJ>
2.31

>  <BertzCT>
336.13

>  <nBonds>
28

>  <nBondsO>
14

>  <nBondsS>
21

>  <nBondsD>
1

>  <nBondsT>
0

>  <nBondsA>
6

>  <nBondsM>
7

>  <nBondsKS>
24

>  <nBondsKD>
4

>  <RNCG>
0.38

>  <RPCG>
0.11

>  <FCSP3>
0.4

>  <SZ>
17.33

>  <Sm>
16.17

>  <Sv>
16.74

>  <Sse>
28.2

>  <Sp>
17.87

>  <Si>
31.91

>  <MZ>
0.62

>  <Mm>
0.58

>  <Mv>
0.6

>  <Mse>
1.01

>  <Mp>
0.64

>  <Mi>
1.14

>  <NsCH3>
3

>  <NdCH2>
0

>  <NssCH2>
0

>  <NtCH>
0

>  <NdsCH>
1

>  <NaaCH>
4

>  <NsssCH>
0

>  <NddC>
0

>  <NtsC>
0

>  <NdssC>
0

>  <NaasC>
1

>  <NaaaC>
0

>  <NssssC>
1

>  <NsNH3>
0

>  <NsNH2>
0

>  <NssNH2>
0

>  <NdNH>
0

>  <NssNH>
0

>  <NaaNH>
0

>  <NtN>
0

>  <NsssNH>
0

>  <NdsN>
0

>  <NaaN>
0

>  <NsssN>
0

>  <NddsN>
0

>  <NaasN>
1

>  <NssssN>
0

>  <NsOH>
0

>  <NdO>
0

>  <NssO>
0

>  <NaaO>
0

>  <NsF>
0

>  <NsSiH3>
0

>  <NssSiH2>
0

>  <NsssSiH>
0

>  <NssssSi>
0

>  <NsPH2>
0

>  <NssPH>
0

>  <NsssP>
0

>  <NdsssP>
0

>  <NsssssP>
0

>  <NsSH>
0

>  <NdS>
0

>  <NssS>
0

>  <NaaS>
0

>  <NdssS>
0

>  <NddssS>
0

>  <NsCl>
0

>  <NsBr>
0

>  <NsI>
0

>  <fragCpx>
14.04

>  <fMF>
0.21

>  <nHBAcc>
2

>  <nHBDon>
0

>  <Kier1>
12.07

>  <Kier2>
4.68

>  <Lipinski>
1

>  <GhoseFilter>
1

>  <FilterItLogS>
-2.01

>  <VMcGowan>
155.4

>  <LabuteASA>
83.29

>  <PEOE_VSA1>
10.41

>  <PEOE_VSA2>
0

>  <PEOE_VSA3>
4.74

>  <PEOE_VSA4>
4.73

>  <PEOE_VSA5>
0

>  <PEOE_VSA6>
0

>  <PEOE_VSA7>
0

>  <PEOE_VSA8>
32.9

>  <PEOE_VSA9>
5.56

>  <PEOE_VSA10>
0

>  <PEOE_VSA11>
24.15

>  <PEOE_VSA12>
0

>  <PEOE_VSA13>
0

>  <SMR_VSA1>
9.47

>  <SMR_VSA2>
0

>  <SMR_VSA3>
0

>  <SMR_VSA4>
0

>  <SMR_VSA5>
26.31

>  <SMR_VSA6>
0

>  <SMR_VSA7>
40.5

>  <SMR_VSA8>
0

>  <SMR_VSA9>
0

>  <SlogP_VSA1>
4.73

>  <SlogP_VSA2>
16.49

>  <SlogP_VSA3>
0

>  <SlogP_VSA4>
10.41

>  <SlogP_VSA5>
26.33

>  <SlogP_VSA6>
24.53

>  <SlogP_VSA7>
0

>  <SlogP_VSA8>
0

>  <SlogP_VSA9>
0

>  <SlogP_VSA10>
0

>  <SlogP_VSA11>
0

>  <EState_VSA1>
5.54

>  <EState_VSA2>
0

>  <EState_VSA3>
4.73

>  <EState_VSA4>
10.3

>  <EState_VSA5>
18.61

>  <EState_VSA6>
12.13

>  <EState_VSA7>
20.77

>  <EState_VSA8>
0

>  <EState_VSA9>
0

>  <EState_VSA10>
10.41

>  <VSA_EState1>
1.56

>  <VSA_EState2>
0

>  <VSA_EState3>
22.21

>  <VSA_EState4>
0.27

>  <VSA_EState5>
0

>  <VSA_EState6>
3.2

>  <VSA_EState7>
4.2

>  <VSA_EState8>
5.48

>  <VSA_EState9>
0

>  <apol>
29.84

>  <bpol>
16.92

>  <nRing>
1

>  <nHRing>
1

>  <naRing>
1

>  <naHRing>
1

>  <nARing 2>
0

>  <nAHRing 2>
0

>  <nFRing>
0

>  <nFHRing>
0

>  <nFaRing>
0

>  <nFaHRing>
0

>  <nFARing 2>
0

>  <nFAHRing 2>
0

>  <nRot>
1

>  <SLogP>
1.05

>  <SMR>
53.95

>  <TopoPSA(NO)>
53.01

>  <TopoPSA>
53.01

>  <JGI1>
0.36

>  <JGI2>
0.1

>  <JGI3>
0.04

>  <JGI4>
0.07

>  <JGI5>
0.03

>  <Diameter>
8

>  <Radius>
4

>  <TMWC10>
95.47

>  <TSRW10>
45.31

>  <MW>
194.11

>  <AMW>
6.93

>  <WPath>
322

>  <WPol>
17

>  <Zagreb1>
68

>  <Zagreb2>
74

>  <mZagreb2>
3

>  <yes>


>  <nAR-cont>
0.336376

>  <nHA-cont>
0.887625254

>  <MWHBN>
0.14355094

>  <MWHBN-cont>
0.914639293

>  <TPSA-cont>
0.629957283

>  <pka_cont>
0.97

>  <yes.1>


>  <BBB_SCORE>
4.34087476

>  <MMFF94 Energy>
28.302

$$$$
Compound 220
Actelion Java MolfileCreator 2.0

  0  0  0  0  0  0              0 V3000
M  V30 BEGIN CTAB
M  V30 COUNTS 28 28 0 0 0
M  V30 BEGIN ATOM
M  V30 1 O -0.8693 0.9483 -2.293 0
M  V30 2 N -0.7177 0.0939 -1.1503 0 CHG=1
M  V30 3 C -1.1963 0.6233 0.0966 0
M  V30 4 C -0.3636 -1.3434 -1.3299 0
M  V30 5 C -0.3395 1.2693 0.9064 0
M  V30 6 C -1.6096 -2.0276 -1.8921 0
M  V30 7 C 0.7944 -1.3919 -2.3293 0
M  V30 8 C 0.062 -1.9773 -0.0047 0
M  V30 9 C -0.8314 1.7103 2.2243 0
M  V30 10 C 1.068 1.5405 0.5659 0
M  V30 11 C 0.0552 2.2323 3.092 0
M  V30 12 C 1.8586 2.0733 1.5167 0
M  V30 13 N 1.3908 2.3942 2.7772 0
M  V30 14 O 2.2822 2.9302 3.7448 0 CHG=-1
M  V30 15 H -2.2293 0.4298 0.3473 0
M  V30 16 H -2.4537 -1.954 -1.1966 0
M  V30 17 H -1.4223 -3.0906 -2.0795 0
M  V30 18 H -1.9267 -1.5736 -2.838 0
M  V30 19 H 0.5111 -0.9775 -3.3034 0
M  V30 20 H 1.6561 -0.8193 -1.9676 0
M  V30 21 H 1.1235 -2.4235 -2.4971 0
M  V30 22 H -0.7441 -1.9651 0.737 0
M  V30 23 H 0.3429 -3.0266 -0.1529 0
M  V30 24 H 0.9293 -1.4685 0.4293 0
M  V30 25 H -1.871 1.6005 2.4987 0
M  V30 26 H 1.4664 1.3333 -0.4168 0
M  V30 27 H -0.2192 2.564 4.0867 0
M  V30 28 H 2.9057 2.2994 1.3516 0
M  V30 END ATOM
M  V30 BEGIN BOND
M  V30 1 2 1 2
M  V30 2 1 2 3
M  V30 3 1 2 4
M  V30 4 2 3 5
M  V30 5 1 4 6
M  V30 6 1 4 7
M  V30 7 1 4 8
M  V30 8 1 5 9
M  V30 9 1 5 10
M  V30 10 2 9 11
M  V30 11 2 10 12
M  V30 12 1 11 13
M  V30 13 1 13 14
M  V30 14 1 12 13
M  V30 15 1 3 15
M  V30 16 1 6 16
M  V30 17 1 6 17
M  V30 18 1 6 18
M  V30 19 1 7 19
M  V30 20 1 7 20
M  V30 21 1 7 21
M  V30 22 1 8 22
M  V30 23 1 8 23
M  V30 24 1 8 24
M  V30 25 1 9 25
M  V30 26 1 10 26
M  V30 27 1 11 27
M  V30 28 1 12 28
M  V30 END BOND
M  V30 END CTAB
M  END
>  <Column 1>
281

>  <level_0>
321

>  <index>
321

>  <Unnamed: 0>
321

>  <NO.>
322

>  <Name>
alpha-(4-pyridyl-1-oxide)-n-tert-butylnitrone

>  <IUPAC_name>
tert-butyl-[(1-oxidopyridin-4-ylidene)methyl]-oxoazanium

>  <SMILES>
CC(C)(C)[N+](=O)C=C1C=CN([O-])C=C1

>  <CID>
92375

>  <logBB>
-0.38

>  <BBB+/BBB->
BBB+

>  <Inchi>
InChI=1S/C10H14N2O2/c1-10(2-3)12(14)8-9-4-6-11(13)7-5-9/h4-8H-1-3H3

>  <threshold>


>  <reference>
R8|R21|R27|R3|

>  <group>
A

>  <Class>
1

>  <ABC>
10.53

>  <ABCGG>
9.63

>  <nAcid>
1

>  <nBase>
1

>  <nAromAtom>
0

>  <nAromBond>
0

>  <nAtom>
28

>  <nHeavyAtom>
14

>  <nSpiro>
0

>  <nBridgehead>
0

>  <nHetero>
4

>  <nN>
2

>  <nO>
2

>  <nF>
0

>  <BalabanJ>
2.31

>  <BertzCT>
305.5

>  <nBonds>
28

>  <nBondsO>
14

>  <nBondsS>
24

>  <nBondsD>
4

>  <nBondsT>
0

>  <nBondsA>
0

>  <nBondsM>
4

>  <nBondsKS>
24

>  <nBondsKD>
4

>  <RNCG>
0.6

>  <RPCG>
0.18

>  <FCSP3>
0.4

>  <SZ>
17.33

>  <Sm>
16.17

>  <Sv>
16.74

>  <Sse>
28.2

>  <Sp>
17.87

>  <Si>
31.91

>  <MZ>
0.62

>  <Mm>
0.58

>  <Mv>
0.6

>  <Mse>
1.01

>  <Mp>
0.64

>  <Mi>
1.14

>  <NsCH3>
3

>  <NdCH2>
0

>  <NssCH2>
0

>  <NtCH>
0

>  <NdsCH>
5

>  <NaaCH>
0

>  <NsssCH>
0

>  <NddC>
0

>  <NtsC>
0

>  <NdssC>
1

>  <NaasC>
0

>  <NaaaC>
0

>  <NssssC>
1

>  <NsNH3>
0

>  <NsNH2>
0

>  <NssNH2>
0

>  <NdNH>
0

>  <NssNH>
0

>  <NaaNH>
0

>  <NtN>
0

>  <NsssNH>
0

>  <NdsN>
0

>  <NaaN>
0

>  <NsssN>
1

>  <NddsN>
0

>  <NaasN>
0

>  <NssssN>
0

>  <NsOH>
0

>  <NdO>
1

>  <NssO>
0

>  <NaaO>
0

>  <NsF>
0

>  <NsSiH3>
0

>  <NssSiH2>
0

>  <NsssSiH>
0

>  <NssssSi>
0

>  <NsPH2>
0

>  <NssPH>
0

>  <NsssP>
0

>  <NdsssP>
0

>  <NsssssP>
0

>  <NsSH>
0

>  <NdS>
0

>  <NssS>
0

>  <NaaS>
0

>  <NdssS>
0

>  <NddssS>
0

>  <NsCl>
0

>  <NsBr>
0

>  <NsI>
0

>  <fragCpx>
14.04

>  <fMF>
0.21

>  <nHBAcc>
3

>  <nHBDon>
0

>  <Kier1>
12.07

>  <Kier2>
4.68

>  <Lipinski>
1

>  <GhoseFilter>
1

>  <FilterItLogS>
-0.92

>  <VMcGowan>
155.4

>  <LabuteASA>
83.36

>  <PEOE_VSA1>
10.27

>  <PEOE_VSA2>
0

>  <PEOE_VSA3>
0

>  <PEOE_VSA4>
0

>  <PEOE_VSA5>
0

>  <PEOE_VSA6>
0

>  <PEOE_VSA7>
24.55

>  <PEOE_VSA8>
36.01

>  <PEOE_VSA9>
0

>  <PEOE_VSA10>
0

>  <PEOE_VSA11>
0

>  <PEOE_VSA12>
11.74

>  <PEOE_VSA13>
0

>  <SMR_VSA1>
4.76

>  <SMR_VSA2>
0

>  <SMR_VSA3>
5.06

>  <SMR_VSA4>
0

>  <SMR_VSA5>
26.31

>  <SMR_VSA6>
0

>  <SMR_VSA7>
46.44

>  <SMR_VSA8>
0

>  <SMR_VSA9>
0

>  <SlogP_VSA1>
0

>  <SlogP_VSA2>
15.36

>  <SlogP_VSA3>
0

>  <SlogP_VSA4>
10.11

>  <SlogP_VSA5>
20.77

>  <SlogP_VSA6>
36.33

>  <SlogP_VSA7>
0

>  <SlogP_VSA8>
0

>  <SlogP_VSA9>
0

>  <SlogP_VSA10>
0

>  <SlogP_VSA11>
0

>  <EState_VSA1>
5.54

>  <EState_VSA2>
0

>  <EState_VSA3>
5.06

>  <EState_VSA4>
10.33

>  <EState_VSA5>
18.6

>  <EState_VSA6>
12.15

>  <EState_VSA7>
20.77

>  <EState_VSA8>
0

>  <EState_VSA9>
0

>  <EState_VSA10>
10.11

>  <VSA_EState1>
0.87

>  <VSA_EState2>
11.5

>  <VSA_EState3>
11.4

>  <VSA_EState4>
0.27

>  <VSA_EState5>
0

>  <VSA_EState6>
0

>  <VSA_EState7>
7.4

>  <VSA_EState8>
5.48

>  <VSA_EState9>
0

>  <apol>
29.84

>  <bpol>
16.92

>  <nRing>
1

>  <nHRing>
1

>  <naRing>
0

>  <naHRing>
0

>  <nARing 2>
1

>  <nAHRing 2>
1

>  <nFRing>
0

>  <nFHRing>
0

>  <nFaRing>
0

>  <nFaHRing>
0

>  <nFARing 2>
0

>  <nFAHRing 2>
0

>  <nRot>
1

>  <SLogP>
2.29

>  <SMR>
54.95

>  <TopoPSA(NO)>
46.38

>  <TopoPSA>
46.38

>  <JGI1>
0.36

>  <JGI2>
0.1

>  <JGI3>
0.04

>  <JGI4>
0.07

>  <JGI5>
0.03

>  <Diameter>
8

>  <Radius>
4

>  <TMWC10>
95.47

>  <TSRW10>
45.31

>  <MW>
194.11

>  <AMW>
6.93

>  <WPath>
322

>  <WPol>
17

>  <Zagreb1>
68

>  <Zagreb2>
74

>  <mZagreb2>
3

>  <yes>


>  <nAR-cont>
0.816016

>  <nHA-cont>
0.887625254

>  <MWHBN>
0.21532641

>  <MWHBN-cont>
0.99748778

>  <TPSA-cont>
0.6762388

>  <pka_cont>
0.97

>  <yes.1>


>  <BBB_SCORE>
5.037350523

>  <MMFF94 Energy>
8.9912

$$$$
Compound 221
Actelion Java MolfileCreator 2.0

  0  0  0  0  0  0              0 V3000
M  V30 BEGIN CTAB
M  V30 COUNTS 45 47 0 0 0
M  V30 BEGIN ATOM
M  V30 1 F 4.8849 2.4802 2.4802 0
M  V30 2 C 3.8446 1.8469 1.9229 0
M  V30 3 C 2.5892 1.9478 2.5042 0
M  V30 4 C 4.0342 1.1036 0.7671 0
M  V30 5 C 1.5039 1.2882 1.9214 0
M  V30 6 C 2.9489 0.4441 0.1838 0
M  V30 7 C 1.6615 0.5135 0.7542 0
M  V30 8 C 0.4669 -0.2044 0.1022 0 CFG=2
M  V30 9 O -0.7152 -0.0625 0.945 0
M  V30 10 C 0.638 -1.7086 0.0568 0
M  V30 11 C 0.1396 0.3641 -1.3021 0
M  V30 12 C -0.8988 -1.2388 1.7601 0
M  V30 13 C -0.1576 -2.2943 1.0345 0
M  V30 14 C 1.4095 -2.5019 -0.7838 0
M  V30 15 C -0.1956 1.8625 -1.3701 0
M  V30 16 C -0.1844 -3.6672 1.2307 0
M  V30 17 C 1.3909 -3.8896 -0.6072 0
M  V30 18 C -1.5464 2.3175 -0.8004 0
M  V30 19 C 0.6008 -4.4729 0.3991 0
M  V30 20 N -2.6815 1.8237 -1.6011 0
M  V30 21 C 0.5953 -5.8968 0.5686 0
M  V30 22 C -3.6492 2.8974 -1.8449 0
M  V30 23 C -3.3609 0.7082 -0.9362 0
M  V30 24 N 0.5893 -7.0491 0.7074 0
M  V30 25 H 2.459 2.5412 3.4036 0
M  V30 26 H 5.0233 1.0437 0.3244 0
M  V30 27 H 0.5264 1.3956 2.3875 0
M  V30 28 H 3.1236 -0.1205 -0.728 0
M  V30 29 H -0.6851 -0.2016 -1.7512 0
M  V30 30 H 0.9985 0.1984 -1.9668 0
M  V30 31 H -1.9696 -1.448 1.8275 0
M  V30 32 H -0.4805 -1.0575 2.7545 0
M  V30 33 H 2.0176 -2.0673 -1.5712 0
M  V30 34 H 0.5983 2.4395 -0.8813 0
M  V30 35 H -0.1574 2.1625 -2.4267 0
M  V30 36 H -0.8072 -4.1032 2.0077 0
M  V30 37 H 1.9959 -4.5168 -1.2604 0
M  V30 38 H -1.6475 2.0772 0.263 0
M  V30 39 H -1.5219 3.4161 -0.8339 0
M  V30 40 H -3.1819 3.7154 -2.4049 0
M  V30 41 H -4.0601 3.3036 -0.9132 0
M  V30 42 H -4.4803 2.5364 -2.4615 0
M  V30 43 H -3.7631 0.9926 0.0433 0
M  V30 44 H -2.6928 -0.145 -0.7986 0
M  V30 45 H -4.1914 0.345 -1.5527 0
M  V30 END ATOM
M  V30 BEGIN BOND
M  V30 1 1 1 2
M  V30 2 2 2 3
M  V30 3 1 2 4
M  V30 4 1 3 5
M  V30 5 2 4 6
M  V30 6 2 5 7
M  V30 7 1 7 8
M  V30 8 1 8 9
M  V30 9 1 8 10
M  V30 10 1 8 11
M  V30 11 1 9 12
M  V30 12 2 10 13
M  V30 13 1 10 14
M  V30 14 1 11 15
M  V30 15 1 13 16
M  V30 16 2 14 17
M  V30 17 1 15 18
M  V30 18 2 16 19
M  V30 19 1 18 20
M  V30 20 1 19 21
M  V30 21 1 20 22
M  V30 22 1 20 23
M  V30 23 3 21 24
M  V30 24 1 6 7
M  V30 25 1 12 13
M  V30 26 1 17 19
M  V30 27 1 3 25
M  V30 28 1 4 26
M  V30 29 1 5 27
M  V30 30 1 6 28
M  V30 31 1 11 29
M  V30 32 1 11 30
M  V30 33 1 12 31
M  V30 34 1 12 32
M  V30 35 1 14 33
M  V30 36 1 15 34
M  V30 37 1 15 35
M  V30 38 1 16 36
M  V30 39 1 17 37
M  V30 40 1 18 38
M  V30 41 1 18 39
M  V30 42 1 22 40
M  V30 43 1 22 41
M  V30 44 1 22 42
M  V30 45 1 23 43
M  V30 46 1 23 44
M  V30 47 1 23 45
M  V30 END BOND
M  V30 BEGIN COLLECTION
M  V30 MDLV30/STEABS ATOMS=(1 8)
M  V30 END COLLECTION
M  V30 END CTAB
M  END
>  <Column 1>
283

>  <level_0>
323

>  <index>
323

>  <Unnamed: 0>
323

>  <NO.>
324

>  <Name>
escitalopram

>  <IUPAC_name>
(1s)-1-[3-(dimethylamino)propyl]-1-(4-fluorophenyl)-3h-2-benzofuran-5-carbonitrile

>  <SMILES>
CN(C)CCC[C@@]1(c2ccc(F)cc2)OCc2cc(C#N)ccc21

>  <CID>
146570

>  <logBB>
-0.37

>  <BBB+/BBB->
BBB+

>  <Inchi>
InChI=1S/C20H21FN2O/c1-23(2)11-3-10-20(17-5-7-18(21)8-6-17)19-9-4-15(13-22)12-16(19)14-24-20/h4-9-12H-3-10-11-14H2-1-2H3/t20-/m0/s1

>  <threshold>


>  <reference>
R18|R26|R27|

>  <group>
A

>  <Class>
1

>  <ABC>
18.55

>  <ABCGG>
15.37

>  <nAcid>
0

>  <nBase>
1

>  <nAromAtom>
12

>  <nAromBond>
12

>  <nAtom>
45

>  <nHeavyAtom>
24

>  <nSpiro>
0

>  <nBridgehead>
0

>  <nHetero>
4

>  <nN>
2

>  <nO>
1

>  <nF>
1

>  <BalabanJ>
1.73

>  <BertzCT>
764.2

>  <nBonds>
47

>  <nBondsO>
26

>  <nBondsS>
34

>  <nBondsD>
0

>  <nBondsT>
1

>  <nBondsA>
12

>  <nBondsM>
13

>  <nBondsKS>
40

>  <nBondsKD>
6

>  <RNCG>
0.24

>  <RPCG>
0.08

>  <FCSP3>
0.35

>  <SZ>
28.67

>  <Sm>
27.01

>  <Sv>
28.57

>  <Sse>
44.94

>  <Sp>
30.52

>  <Si>
50.7

>  <MZ>
0.64

>  <Mm>
0.6

>  <Mv>
0.63

>  <Mse>
1

>  <Mp>
0.68

>  <Mi>
1.13

>  <NsCH3>
2

>  <NdCH2>
0

>  <NssCH2>
4

>  <NtCH>
0

>  <NdsCH>
0

>  <NaaCH>
7

>  <NsssCH>
0

>  <NddC>
0

>  <NtsC>
1

>  <NdssC>
0

>  <NaasC>
5

>  <NaaaC>
0

>  <NssssC>
1

>  <NsNH3>
0

>  <NsNH2>
0

>  <NssNH2>
0

>  <NdNH>
0

>  <NssNH>
0

>  <NaaNH>
0

>  <NtN>
1

>  <NsssNH>
0

>  <NdsN>
0

>  <NaaN>
0

>  <NsssN>
1

>  <NddsN>
0

>  <NaasN>
0

>  <NssssN>
0

>  <NsOH>
0

>  <NdO>
0

>  <NssO>
1

>  <NaaO>
0

>  <NsF>
1

>  <NsSiH3>
0

>  <NssSiH2>
0

>  <NsssSiH>
0

>  <NssssSi>
0

>  <NsPH2>
0

>  <NssPH>
0

>  <NsssP>
0

>  <NdsssP>
0

>  <NsssssP>
0

>  <NsSH>
0

>  <NdS>
0

>  <NssS>
0

>  <NaaS>
0

>  <NdssS>
0

>  <NddssS>
0

>  <NsCl>
0

>  <NsBr>
0

>  <NsI>
0

>  <fragCpx>
124.04

>  <fMF>
0.33

>  <nHBAcc>
3

>  <nHBDon>
0

>  <Kier1>
18.78

>  <Kier2>
8.13

>  <Lipinski>
1

>  <GhoseFilter>
1

>  <FilterItLogS>
-5.8

>  <VMcGowan>
253.27

>  <LabuteASA>
141.83

>  <PEOE_VSA1>
9.64

>  <PEOE_VSA2>
0

>  <PEOE_VSA3>
4.39

>  <PEOE_VSA4>
5.26

>  <PEOE_VSA5>
0

>  <PEOE_VSA6>
18.2

>  <PEOE_VSA7>
74.44

>  <PEOE_VSA8>
0

>  <PEOE_VSA9>
18.24

>  <PEOE_VSA10>
11.42

>  <PEOE_VSA11>
0

>  <PEOE_VSA12>
0

>  <PEOE_VSA13>
0

>  <SMR_VSA1>
9.13

>  <SMR_VSA2>
5.26

>  <SMR_VSA3>
4.9

>  <SMR_VSA4>
0

>  <SMR_VSA5>
25.05

>  <SMR_VSA6>
20.64

>  <SMR_VSA7>
70.54

>  <SMR_VSA8>
0

>  <SMR_VSA9>
6.07

>  <SlogP_VSA1>
0

>  <SlogP_VSA2>
25.54

>  <SlogP_VSA3>
16.94

>  <SlogP_VSA4>
17.15

>  <SlogP_VSA5>
35.1

>  <SlogP_VSA6>
42.46

>  <SlogP_VSA7>
0

>  <SlogP_VSA8>
0

>  <SlogP_VSA9>
0

>  <SlogP_VSA10>
4.39

>  <SlogP_VSA11>
0

>  <EState_VSA1>
5.6

>  <EState_VSA2>
5.82

>  <EState_VSA3>
12.17

>  <EState_VSA4>
36.08

>  <EState_VSA5>
12.13

>  <EState_VSA6>
12.13

>  <EState_VSA7>
32.29

>  <EState_VSA8>
10.97

>  <EState_VSA9>
10

>  <EState_VSA10>
4.39

>  <VSA_EState1>
19.64

>  <VSA_EState2>
2.15

>  <VSA_EState3>
9.11

>  <VSA_EState4>
3.18

>  <VSA_EState5>
-0.25

>  <VSA_EState6>
14.46

>  <VSA_EState7>
1.78

>  <VSA_EState8>
1.43

>  <VSA_EState9>
4.1

>  <apol>
50.96

>  <bpol>
26.2

>  <nRing>
3

>  <nHRing>
1

>  <naRing>
2

>  <naHRing>
0

>  <nARing 2>
1

>  <nAHRing 2>
1

>  <nFRing>
1

>  <nFHRing>
1

>  <nFaRing>
0

>  <nFaHRing>
0

>  <nFARing 2>
1

>  <nFAHRing 2>
1

>  <nRot>
5

>  <SLogP>
3.81

>  <SMR>
90.91

>  <TopoPSA(NO)>
36.26

>  <TopoPSA>
36.26

>  <JGI1>
0.23

>  <JGI2>
0.1

>  <JGI3>
0.05

>  <JGI4>
0.03

>  <JGI5>
0.03

>  <Diameter>
11

>  <Radius>
6

>  <TMWC10>
126.04

>  <TSRW10>
73.13

>  <MW>
324.16

>  <AMW>
7.2

>  <WPath>
1298

>  <WPol>
39

>  <Zagreb1>
126

>  <Zagreb2>
150

>  <mZagreb2>
5.36

>  <yes>


>  <nAR-cont>
0.816016

>  <nHA-cont>
0.94700071

>  <MWHBN>
0.16662553

>  <MWHBN-cont>
0.968406739

>  <TPSA-cont>
0.746882684

>  <pka_cont>
0.97

>  <yes.1>


>  <BBB_SCORE>
5.194392186

>  <MMFF94 Energy>
90.369

$$$$
Compound 222
Actelion Java MolfileCreator 2.0

  0  0  0  0  0  0              0 V3000
M  V30 BEGIN CTAB
M  V30 COUNTS 66 69 0 0 0
M  V30 BEGIN ATOM
M  V30 1 S 0.5661 3.2381 0.8087 0
M  V30 2 O 1.18 3.0428 -0.4912 0
M  V30 3 O -0.8779 3.1746 0.9425 0
M  V30 4 N 1.2584 2.1818 1.9312 0
M  V30 5 C 1.0522 4.8374 1.4274 0
M  V30 6 C 0.6503 0.8917 2.1215 0
M  V30 7 C 2.7235 2.1844 1.8524 0
M  V30 8 C 0.1797 0.1087 1.0586 0
M  V30 9 C 0.6878 0.3439 3.4087 0
M  V30 10 S 3.6763 1.0434 1.001 0
M  V30 11 N 3.3942 3.1129 2.4951 0
M  V30 12 C -0.3019 -1.1959 1.2766 0
M  V30 13 C 0.2046 -0.9431 3.6427 0
M  V30 14 C 5.0979 1.8541 1.514 0
M  V30 15 C 4.7566 2.9365 2.3075 0
M  V30 16 C -0.3082 -1.6953 2.5853 0
M  V30 17 C -0.8157 -2.0044 0.107 0
M  V30 18 C 6.4347 1.3552 1.0947 0
M  V30 19 C 5.6875 3.8968 2.9574 0
M  V30 20 O -0.7424 -2.97 2.8381 0
M  V30 21 N -2.2106 -1.6729 -0.1761 0
M  V30 22 C -2.0936 -2.9409 3.3034 0
M  V30 23 C -2.768 -2.2832 -1.4027 0
M  V30 24 C -2.1207 -1.8321 -2.7634 0
M  V30 25 C -2.7983 -3.82 -1.3171 0
M  V30 26 N -2.8003 -2.4551 -3.9162 0
M  V30 27 C -2.1253 -0.3171 -2.9222 0
M  V30 28 C -3.4484 -4.4155 -2.5644 0
M  V30 29 C -2.773 -3.9127 -3.8375 0
M  V30 30 C -0.9177 0.398 -2.9123 0
M  V30 31 C -3.3276 0.397 -3.0526 0
M  V30 32 C -0.9152 1.7905 -3.0078 0
M  V30 33 C -3.3226 1.789 -3.1524 0
M  V30 34 C -2.1167 2.4852 -3.1247 0
M  V30 35 H 0.7907 4.9047 2.485 0
M  V30 36 H 0.4953 5.5916 0.8658 0
M  V30 37 H 2.1194 4.99 1.2668 0
M  V30 38 H 0.1867 0.5016 0.0444 0
M  V30 39 H 1.0919 0.9212 4.2368 0
M  V30 40 H 0.2359 -1.3618 4.6445 0
M  V30 41 H -0.7037 -3.0706 0.329 0
M  V30 42 H -0.1691 -1.801 -0.7535 0
M  V30 43 H 6.5977 0.3345 1.456 0
M  V30 44 H 7.238 1.9818 1.4948 0
M  V30 45 H 6.5241 1.3569 0.0034 0
M  V30 46 H 6.3562 3.3739 3.6481 0
M  V30 47 H 6.2929 4.4116 2.2051 0
M  V30 48 H 5.1368 4.6533 3.5254 0
M  V30 49 H -2.2907 -0.6567 -0.268 0
M  V30 50 H -2.15 -2.5056 4.307 0
M  V30 51 H -2.4483 -3.9742 3.3625 0
M  V30 52 H -2.7505 -2.3964 2.6167 0
M  V30 53 H -3.8186 -1.9586 -1.4179 0
M  V30 54 H -1.0765 -2.1725 -2.7841 0
M  V30 55 H -1.7832 -4.2254 -1.2324 0
M  V30 56 H -3.3518 -4.1422 -0.4268 0
M  V30 57 H -2.3368 -2.1454 -4.7701 0
M  V30 58 H -3.3887 -5.509 -2.5228 0
M  V30 59 H -4.5142 -4.1546 -2.5825 0
M  V30 60 H -3.2992 -4.3226 -4.7065 0
M  V30 61 H -1.7395 -4.2761 -3.8891 0
M  V30 62 H 0.0329 -0.1202 -2.8147 0
M  V30 63 H -4.2771 -0.1341 -3.0738 0
M  V30 64 H 0.0252 2.3359 -2.9769 0
M  V30 65 H -4.2607 2.3295 -3.2445 0
M  V30 66 H -2.112 3.5699 -3.1885 0
M  V30 END ATOM
M  V30 BEGIN BOND
M  V30 1 2 1 2
M  V30 2 2 1 3
M  V30 3 1 1 4
M  V30 4 1 1 5
M  V30 5 1 4 6
M  V30 6 1 4 7
M  V30 7 2 6 8
M  V30 8 1 6 9
M  V30 9 1 7 10
M  V30 10 2 7 11
M  V30 11 1 8 12
M  V30 12 2 9 13
M  V30 13 1 10 14
M  V30 14 1 11 15
M  V30 15 2 12 16
M  V30 16 1 12 17
M  V30 17 1 14 18
M  V30 18 1 15 19
M  V30 19 1 16 20
M  V30 20 1 17 21
M  V30 21 1 20 22
M  V30 22 1 21 23
M  V30 23 1 23 24
M  V30 24 1 23 25
M  V30 25 1 24 26
M  V30 26 1 24 27
M  V30 27 1 25 28
M  V30 28 1 26 29
M  V30 29 2 27 30
M  V30 30 1 27 31
M  V30 31 1 30 32
M  V30 32 2 31 33
M  V30 33 2 32 34
M  V30 34 1 13 16
M  V30 35 2 14 15
M  V30 36 1 28 29
M  V30 37 1 33 34
M  V30 38 1 5 35
M  V30 39 1 5 36
M  V30 40 1 5 37
M  V30 41 1 8 38
M  V30 42 1 9 39
M  V30 43 1 13 40
M  V30 44 1 17 41
M  V30 45 1 17 42
M  V30 46 1 18 43
M  V30 47 1 18 44
M  V30 48 1 18 45
M  V30 49 1 19 46
M  V30 50 1 19 47
M  V30 51 1 19 48
M  V30 52 1 21 49
M  V30 53 1 22 50
M  V30 54 1 22 51
M  V30 55 1 22 52
M  V30 56 1 23 53
M  V30 57 1 24 54
M  V30 58 1 25 55
M  V30 59 1 25 56
M  V30 60 1 26 57
M  V30 61 1 28 58
M  V30 62 1 28 59
M  V30 63 1 29 60
M  V30 64 1 29 61
M  V30 65 1 30 62
M  V30 66 1 31 63
M  V30 67 1 32 64
M  V30 68 1 33 65
M  V30 69 1 34 66
M  V30 END BOND
M  V30 END CTAB
M  END
>  <Column 1>
285

>  <level_0>
325

>  <index>
325

>  <Unnamed: 0>
325

>  <NO.>
326

>  <Name>
pfizer compound 18

>  <IUPAC_name>
n-(4-5-dimethyl-1-3-thiazol-2-yl)-n-[4-methoxy-3-[[(2-phenylpiperidin-3-yl)amino]methyl]phenyl]methanesulfonamide

>  <SMILES>
COc1ccc(N(c2nc(C)c(C)s2)S(C)(=O)=O)cc1CNC1CCCNC1c1ccccc1

>  <CID>
19696689

>  <logBB>
-0.37

>  <BBB+/BBB->
BBB+

>  <Inchi>
InChI=1S/C25H32N4O3S2/c1-17-18(2)33-25(28-17)29(34(4-30)31)21-12-13-23(32-3)20(15-21)16-27-22-11-8-14-26-24(22)19-9-6-5-7-10-19/h5-7-9-10-12-13-15-22-24-26-27H-8-11-14-16H2-1-4H3

>  <threshold>


>  <reference>
R2|R2|R8|R25|R27|R46|R47|R4|R40|

>  <group>
A

>  <Class>
1

>  <ABC>
26.55

>  <ABCGG>
21.13

>  <nAcid>
0

>  <nBase>
2

>  <nAromAtom>
17

>  <nAromBond>
17

>  <nAtom>
66

>  <nHeavyAtom>
34

>  <nSpiro>
0

>  <nBridgehead>
0

>  <nHetero>
9

>  <nN>
4

>  <nO>
3

>  <nF>
0

>  <BalabanJ>
1.41

>  <BertzCT>
1208.71

>  <nBonds>
69

>  <nBondsO>
37

>  <nBondsS>
50

>  <nBondsD>
2

>  <nBondsT>
0

>  <nBondsA>
17

>  <nBondsM>
19

>  <nBondsKS>
59

>  <nBondsKD>
10

>  <RNCG>
0.19

>  <RPCG>
0.09

>  <FCSP3>
0.4

>  <SZ>
44.33

>  <Sm>
41.68

>  <Sv>
41.22

>  <Sse>
66

>  <Sp>
45.33

>  <Si>
74.28

>  <MZ>
0.67

>  <Mm>
0.63

>  <Mv>
0.62

>  <Mse>
1

>  <Mp>
0.69

>  <Mi>
1.13

>  <NsCH3>
4

>  <NdCH2>
0

>  <NssCH2>
4

>  <NtCH>
0

>  <NdsCH>
0

>  <NaaCH>
8

>  <NsssCH>
2

>  <NddC>
0

>  <NtsC>
0

>  <NdssC>
0

>  <NaasC>
7

>  <NaaaC>
0

>  <NssssC>
0

>  <NsNH3>
0

>  <NsNH2>
0

>  <NssNH2>
0

>  <NdNH>
0

>  <NssNH>
2

>  <NaaNH>
0

>  <NtN>
0

>  <NsssNH>
0

>  <NdsN>
0

>  <NaaN>
1

>  <NsssN>
1

>  <NddsN>
0

>  <NaasN>
0

>  <NssssN>
0

>  <NsOH>
0

>  <NdO>
2

>  <NssO>
1

>  <NaaO>
0

>  <NsF>
0

>  <NsSiH3>
0

>  <NssSiH2>
0

>  <NsssSiH>
0

>  <NssssSi>
0

>  <NsPH2>
0

>  <NssPH>
0

>  <NsssP>
0

>  <NdsssP>
0

>  <NsssssP>
0

>  <NsSH>
0

>  <NdS>
0

>  <NssS>
0

>  <NaaS>
1

>  <NdssS>
0

>  <NddssS>
1

>  <NsCl>
0

>  <NsBr>
0

>  <NsI>
0

>  <fragCpx>
247.09

>  <fMF>
0.39

>  <nHBAcc>
7

>  <nHBDon>
2

>  <Kier1>
27.05

>  <Kier2>
12.03

>  <Lipinski>
0

>  <GhoseFilter>
0

>  <FilterItLogS>
-6.92

>  <VMcGowan>
375.5

>  <LabuteASA>
205.78

>  <PEOE_VSA1>
15.37

>  <PEOE_VSA2>
0

>  <PEOE_VSA3>
17.71

>  <PEOE_VSA4>
0

>  <PEOE_VSA5>
11.34

>  <PEOE_VSA6>
30.33

>  <PEOE_VSA7>
57

>  <PEOE_VSA8>
29.07

>  <PEOE_VSA9>
24.75

>  <PEOE_VSA10>
5.75

>  <PEOE_VSA11>
0

>  <PEOE_VSA12>
15.15

>  <PEOE_VSA13>
0

>  <SMR_VSA1>
13.15

>  <SMR_VSA2>
0

>  <SMR_VSA3>
15.62

>  <SMR_VSA4>
0

>  <SMR_VSA5>
45.32

>  <SMR_VSA6>
24.22

>  <SMR_VSA7>
70.23

>  <SMR_VSA8>
0

>  <SMR_VSA9>
5.75

>  <SlogP_VSA1>
19.68

>  <SlogP_VSA2>
39.35

>  <SlogP_VSA3>
16.57

>  <SlogP_VSA4>
13.85

>  <SlogP_VSA5>
40.58

>  <SlogP_VSA6>
48.53

>  <SlogP_VSA7>
0

>  <SlogP_VSA8>
0

>  <SlogP_VSA9>
0

>  <SlogP_VSA10>
10.82

>  <SlogP_VSA11>
5.75

>  <EState_VSA1>
10.02

>  <EState_VSA2>
12.08

>  <EState_VSA3>
17.36

>  <EState_VSA4>
41.27

>  <EState_VSA5>
27.46

>  <EState_VSA6>
13.18

>  <EState_VSA7>
32.05

>  <EState_VSA8>
39.88

>  <EState_VSA9>
4.74

>  <EState_VSA10>
8.42

>  <VSA_EState1>
32.45

>  <VSA_EState2>
5.49

>  <VSA_EState3>
7.78

>  <VSA_EState4>
3.55

>  <VSA_EState5>
0.72

>  <VSA_EState6>
16.42

>  <VSA_EState7>
3.36

>  <VSA_EState8>
5.38

>  <VSA_EState9>
-1.95

>  <apol>
75.69

>  <bpol>
46.94

>  <nRing>
4

>  <nHRing>
2

>  <naRing>
3

>  <naHRing>
1

>  <nARing 2>
1

>  <nAHRing 2>
1

>  <nFRing>
0

>  <nFHRing>
0

>  <nFaRing>
0

>  <nFaHRing>
0

>  <nFARing 2>
0

>  <nFAHRing 2>
0

>  <nRot>
8

>  <SLogP>
4.45

>  <SMR>
138.61

>  <TopoPSA(NO)>
83.56

>  <TopoPSA>
120.18

>  <JGI1>
0.2

>  <JGI2>
0.08

>  <JGI3>
0.06

>  <JGI4>
0.03

>  <JGI5>
0.03

>  <Diameter>
15

>  <Radius>
8

>  <TMWC10>
149.51

>  <TSRW10>
84.36

>  <MW>
500.19

>  <AMW>
7.58

>  <WPath>
3523

>  <WPol>
55

>  <Zagreb1>
180

>  <Zagreb2>
212

>  <mZagreb2>
7.42

>  <yes>


>  <nAR-cont>
0.816016

>  <nHA-cont>
0.568589513

>  <MWHBN>
0.402415784

>  <MWHBN-cont>
0.466557883

>  <TPSA-cont>
0

>  <pka_cont>
0.97

>  <yes.1>


>  <BBB_SCORE>
2.569442337

>  <MMFF94 Energy>
30.871

$$$$
Compound 223
Actelion Java MolfileCreator 2.0

  0  0  0  0  0  0              0 V3000
M  V30 BEGIN CTAB
M  V30 COUNTS 46 48 0 0 0
M  V30 BEGIN ATOM
M  V30 1 O 2.2164 1.8204 -1.5828 0
M  V30 2 C 1.5783 0.7738 -1.5867 0
M  V30 3 O 1.7889 -0.2362 -2.4701 0
M  V30 4 N 0.5585 0.4912 -0.6946 0
M  V30 5 C 2.8526 -0.0416 -3.4077 0
M  V30 6 C -0.1534 -0.7812 -0.6496 0
M  V30 7 C 0.2317 1.4443 0.3567 0
M  V30 8 C 4.0819 -0.7704 -2.9307 0
M  V30 9 C -1.6633 -0.5598 -0.6111 0
M  V30 10 C -1.2708 1.7059 0.4139 0
M  V30 11 C 4.25 -2.1364 -3.1964 0
M  V30 12 C 5.0556 -0.0995 -2.178 0
M  V30 13 C -2.0629 0.3907 0.5305 0
M  V30 14 C 5.3818 -2.8121 -2.737 0
M  V30 15 C 6.1861 -0.7768 -1.719 0
M  V30 16 C -3.5802 0.6359 0.5064 0
M  V30 17 C 6.3502 -2.1316 -2.0009 0
M  V30 18 N -4.0146 1.3995 1.6474 0
M  V30 19 C -4.2065 0.8535 2.8839 0
M  V30 20 N -4.0307 -0.4612 3.0808 0
M  V30 21 N -4.5675 1.7095 3.8493 0
M  V30 22 C -4.2371 -0.9261 4.3269 0
M  V30 23 C -4.7622 1.1981 5.0794 0
M  V30 24 C -4.6094 -0.1311 5.3808 0
M  V30 25 H 3.0642 1.0162 -3.6057 0
M  V30 26 H 2.5241 -0.462 -4.3655 0
M  V30 27 H 0.0977 -1.4178 -1.5024 0
M  V30 28 H 0.1776 -1.3061 0.2543 0
M  V30 29 H 0.5807 1.0172 1.3045 0
M  V30 30 H 0.7635 2.39 0.2114 0
M  V30 31 H -2.1692 -1.525 -0.4926 0
M  V30 32 H -1.99 -0.139 -1.571 0
M  V30 33 H -1.5782 2.2403 -0.4942 0
M  V30 34 H -1.4873 2.3627 1.2641 0
M  V30 35 H 3.4963 -2.6816 -3.76 0
M  V30 36 H 4.9318 0.9559 -1.9399 0
M  V30 37 H -1.7887 -0.0883 1.48 0
M  V30 38 H 5.5058 -3.8705 -2.9496 0
M  V30 39 H 6.9355 -0.2467 -1.137 0
M  V30 40 H -4.1272 -0.3133 0.4472 0
M  V30 41 H -3.8446 1.1924 -0.4011 0
M  V30 42 H 7.23 -2.6584 -1.6414 0
M  V30 43 H -4.1616 2.3952 1.5985 0
M  V30 44 H -4.0883 -1.9941 4.4525 0
M  V30 45 H -5.0549 1.9177 5.8381 0
M  V30 46 H -4.7706 -0.5226 6.3744 0
M  V30 END ATOM
M  V30 BEGIN BOND
M  V30 1 2 1 2
M  V30 2 1 2 3
M  V30 3 1 2 4
M  V30 4 1 3 5
M  V30 5 1 4 6
M  V30 6 1 4 7
M  V30 7 1 5 8
M  V30 8 1 6 9
M  V30 9 1 7 10
M  V30 10 2 8 11
M  V30 11 1 8 12
M  V30 12 1 9 13
M  V30 13 1 11 14
M  V30 14 2 12 15
M  V30 15 1 13 16
M  V30 16 2 14 17
M  V30 17 1 16 18
M  V30 18 1 18 19
M  V30 19 2 19 20
M  V30 20 1 19 21
M  V30 21 1 20 22
M  V30 22 2 21 23
M  V30 23 2 22 24
M  V30 24 1 10 13
M  V30 25 1 15 17
M  V30 26 1 23 24
M  V30 27 1 5 25
M  V30 28 1 5 26
M  V30 29 1 6 27
M  V30 30 1 6 28
M  V30 31 1 7 29
M  V30 32 1 7 30
M  V30 33 1 9 31
M  V30 34 1 9 32
M  V30 35 1 10 33
M  V30 36 1 10 34
M  V30 37 1 11 35
M  V30 38 1 12 36
M  V30 39 1 13 37
M  V30 40 1 14 38
M  V30 41 1 15 39
M  V30 42 1 16 40
M  V30 43 1 16 41
M  V30 44 1 17 42
M  V30 45 1 18 43
M  V30 46 1 22 44
M  V30 47 1 23 45
M  V30 48 1 24 46
M  V30 END BOND
M  V30 END CTAB
M  END
>  <Column 1>
286

>  <level_0>
326

>  <index>
326

>  <Unnamed: 0>
326

>  <NO.>
327

>  <Name>
liv-20a

>  <IUPAC_name>
benzyl 4-[(pyrimidin-2-ylamino)methyl]piperidine-1-carboxylate

>  <SMILES>
O=C(OCc1ccccc1)N1CCC(CNc2ncccn2)CC1

>  <CID>
9923385

>  <logBB>
-0.37

>  <BBB+/BBB->
BBB+

>  <Inchi>
InChI=1S/C18H22N4O2/c23-18(24-14-16-5-2-1-3-6-16)22-11-7-15(8-12-22)13-21-17-19-9-4-10-20-17/h1-6-9-10-15H-7-8-11-14H2-(H-19-20-21)

>  <threshold>


>  <reference>
R18|R26|R27|

>  <group>
A

>  <Class>
1

>  <ABC>
18.45

>  <ABCGG>
13.41

>  <nAcid>
0

>  <nBase>
0

>  <nAromAtom>
12

>  <nAromBond>
12

>  <nAtom>
46

>  <nHeavyAtom>
24

>  <nSpiro>
0

>  <nBridgehead>
0

>  <nHetero>
6

>  <nN>
4

>  <nO>
2

>  <nF>
0

>  <BalabanJ>
1.27

>  <BertzCT>
627.98

>  <nBonds>
48

>  <nBondsO>
26

>  <nBondsS>
35

>  <nBondsD>
1

>  <nBondsT>
0

>  <nBondsA>
12

>  <nBondsM>
13

>  <nBondsKS>
41

>  <nBondsKD>
7

>  <RNCG>
0.2

>  <RPCG>
0.19

>  <FCSP3>
0.39

>  <SZ>
29

>  <Sm>
27.18

>  <Sv>
28.42

>  <Sse>
46.08

>  <Sp>
30.38

>  <Si>
52.15

>  <MZ>
0.63

>  <Mm>
0.59

>  <Mv>
0.62

>  <Mse>
1

>  <Mp>
0.66

>  <Mi>
1.13

>  <NsCH3>
0

>  <NdCH2>
0

>  <NssCH2>
6

>  <NtCH>
0

>  <NdsCH>
0

>  <NaaCH>
8

>  <NsssCH>
1

>  <NddC>
0

>  <NtsC>
0

>  <NdssC>
1

>  <NaasC>
2

>  <NaaaC>
0

>  <NssssC>
0

>  <NsNH3>
0

>  <NsNH2>
0

>  <NssNH2>
0

>  <NdNH>
0

>  <NssNH>
1

>  <NaaNH>
0

>  <NtN>
0

>  <NsssNH>
0

>  <NdsN>
0

>  <NaaN>
2

>  <NsssN>
1

>  <NddsN>
0

>  <NaasN>
0

>  <NssssN>
0

>  <NsOH>
0

>  <NdO>
1

>  <NssO>
1

>  <NaaO>
0

>  <NsF>
0

>  <NsSiH3>
0

>  <NssSiH2>
0

>  <NsssSiH>
0

>  <NssssSi>
0

>  <NsPH2>
0

>  <NssPH>
0

>  <NsssP>
0

>  <NdsssP>
0

>  <NsssssP>
0

>  <NsSH>
0

>  <NdS>
0

>  <NssS>
0

>  <NaaS>
0

>  <NdssS>
0

>  <NddssS>
0

>  <NsCl>
0

>  <NsBr>
0

>  <NsI>
0

>  <fragCpx>
124.06

>  <fMF>
0.5

>  <nHBAcc>
5

>  <nHBDon>
1

>  <Kier1>
18.78

>  <Kier2>
10.22

>  <Lipinski>
1

>  <GhoseFilter>
1

>  <FilterItLogS>
-3.98

>  <VMcGowan>
253.46

>  <LabuteASA>
141.43

>  <PEOE_VSA1>
14.95

>  <PEOE_VSA2>
0

>  <PEOE_VSA3>
14.76

>  <PEOE_VSA4>
0

>  <PEOE_VSA5>
0

>  <PEOE_VSA6>
30.33

>  <PEOE_VSA7>
30.39

>  <PEOE_VSA8>
32.03

>  <PEOE_VSA9>
0

>  <PEOE_VSA10>
6.61

>  <PEOE_VSA11>
0

>  <PEOE_VSA12>
5.95

>  <PEOE_VSA13>
0

>  <SMR_VSA1>
9.53

>  <SMR_VSA2>
0

>  <SMR_VSA3>
14.87

>  <SMR_VSA4>
5.92

>  <SMR_VSA5>
19.45

>  <SMR_VSA6>
24.95

>  <SMR_VSA7>
54.36

>  <SMR_VSA8>
0

>  <SMR_VSA9>
0

>  <SlogP_VSA1>
5.32

>  <SlogP_VSA2>
40.6

>  <SlogP_VSA3>
11.34

>  <SlogP_VSA4>
5.92

>  <SlogP_VSA5>
18.41

>  <SlogP_VSA6>
48.79

>  <SlogP_VSA7>
0

>  <SlogP_VSA8>
0

>  <SlogP_VSA9>
0

>  <SlogP_VSA10>
10.74

>  <SlogP_VSA11>
0

>  <EState_VSA1>
0

>  <EState_VSA2>
6.09

>  <EState_VSA3>
18.47

>  <EState_VSA4>
38.04

>  <EState_VSA5>
0

>  <EState_VSA6>
23.36

>  <EState_VSA7>
30.33

>  <EState_VSA8>
15.28

>  <EState_VSA9>
4.74

>  <EState_VSA10>
4.79

>  <VSA_EState1>
5.38

>  <VSA_EState2>
22.22

>  <VSA_EState3>
3.25

>  <VSA_EState4>
1.01

>  <VSA_EState5>
1.18

>  <VSA_EState6>
11.54

>  <VSA_EState7>
5.14

>  <VSA_EState8>
2.62

>  <VSA_EState9>
0

>  <apol>
50.73

>  <bpol>
29.23

>  <nRing>
3

>  <nHRing>
2

>  <naRing>
2

>  <naHRing>
1

>  <nARing 2>
1

>  <nAHRing 2>
1

>  <nFRing>
0

>  <nFHRing>
0

>  <nFaRing>
0

>  <nFaHRing>
0

>  <nFARing 2>
0

>  <nFAHRing 2>
0

>  <nRot>
5

>  <SLogP>
2.94

>  <SMR>
91.45

>  <TopoPSA(NO)>
67.35

>  <TopoPSA>
67.35

>  <JGI1>
0.13

>  <JGI2>
0.06

>  <JGI3>
0.02

>  <JGI4>
0.03

>  <JGI5>
0.03

>  <Diameter>
16

>  <Radius>
8

>  <TMWC10>
122.27

>  <TSRW10>
57.78

>  <MW>
326.17

>  <AMW>
7.09

>  <WPath>
1680

>  <WPol>
31

>  <Zagreb1>
118

>  <Zagreb2>
132

>  <mZagreb2>
5.44

>  <yes>


>  <nAR-cont>
0.816016

>  <nHA-cont>
0.94700071

>  <MWHBN>
0.332222654

>  <MWHBN-cont>
0.735019189

>  <TPSA-cont>
0.529855178

>  <pka_cont>
0.97

>  <yes.1>


>  <BBB_SCORE>
4.41025585

>  <MMFF94 Energy>
-114.5

$$$$
Compound 224
Actelion Java MolfileCreator 2.0

  0  0  0  0  0  0              0 V3000
M  V30 BEGIN CTAB
M  V30 COUNTS 48 50 0 0 0
M  V30 BEGIN ATOM
M  V30 1 S 3.055 3.4575 1.1247 0
M  V30 2 C 2.6265 2.8627 -0.5118 0
M  V30 3 C 2.22 2.1777 2.0896 0
M  V30 4 C 1.5521 1.9746 -0.7769 0
M  V30 5 C 3.4473 3.3499 -1.5475 0
M  V30 6 C 0.7901 1.9525 1.6206 0
M  V30 7 N 0.6899 1.497 0.2111 0
M  V30 8 C 1.3893 1.6005 -2.1278 0
M  V30 9 C 3.2423 2.9596 -2.8646 0
M  V30 10 C -0.112 3.1476 1.9517 0
M  V30 11 C -0.3701 0.5077 -0.0595 0
M  V30 12 C 2.2136 2.0795 -3.1541 0
M  V30 13 O -0.3575 3.4382 3.1286 0
M  V30 14 C -0.6889 3.9764 0.8326 0
M  V30 15 C 0.2042 -0.9126 -0.0456 0
M  V30 16 C -0.855 -1.9783 -0.3907 0
M  V30 17 N -2.0337 -1.9778 0.5034 0
M  V30 18 C -0.2006 -3.3695 -0.506 0
M  V30 19 C -3.0214 -2.9748 0.0544 0
M  V30 20 C -1.7216 -2.1497 1.9241 0
M  V30 21 C -1.2138 -4.4254 -0.941 0
M  V30 22 C -2.4594 -4.3933 -0.0632 0
M  V30 23 H 2.7973 1.2501 2.0025 0
M  V30 24 H 2.2436 2.48 3.1419 0
M  V30 25 H 4.2615 4.0373 -1.3263 0
M  V30 26 H 0.3961 1.1398 2.2484 0
M  V30 27 H 0.6026 0.9173 -2.4314 0
M  V30 28 H 3.8837 3.3385 -3.655 0
M  V30 29 H -0.8923 0.7249 -0.9977 0
M  V30 30 H -1.1473 0.5971 0.7095 0
M  V30 31 H 2.0413 1.7611 -4.179 0
M  V30 32 H -1.3052 4.7751 1.2569 0
M  V30 33 H 0.108 4.4384 0.248 0
M  V30 34 H -1.327 3.3596 0.1962 0
M  V30 35 H 0.6682 -1.1217 0.9261 0
M  V30 36 H 1.0186 -0.9816 -0.7778 0
M  V30 37 H -1.2234 -1.7157 -1.3935 0
M  V30 38 H 0.6137 -3.3391 -1.2399 0
M  V30 39 H 0.252 -3.6635 0.4486 0
M  V30 40 H -3.891 -2.9755 0.7232 0
M  V30 41 H -3.4092 -2.6619 -0.9238 0
M  V30 42 H -1.1872 -3.079 2.1425 0
M  V30 43 H -2.6423 -2.1433 2.5193 0
M  V30 44 H -1.1229 -1.3152 2.3018 0
M  V30 45 H -0.7565 -5.4203 -0.9084 0
M  V30 46 H -1.5018 -4.2408 -1.9834 0
M  V30 47 H -3.2226 -5.056 -0.487 0
M  V30 48 H -2.2192 -4.7887 0.9306 0
M  V30 END ATOM
M  V30 BEGIN BOND
M  V30 1 1 1 2
M  V30 2 1 1 3
M  V30 3 2 2 4
M  V30 4 1 2 5
M  V30 5 1 3 6
M  V30 6 1 4 7
M  V30 7 1 4 8
M  V30 8 2 5 9
M  V30 9 1 6 10
M  V30 10 1 7 11
M  V30 11 2 8 12
M  V30 12 2 10 13
M  V30 13 1 10 14
M  V30 14 1 11 15
M  V30 15 1 15 16
M  V30 16 1 16 17
M  V30 17 1 16 18
M  V30 18 1 17 19
M  V30 19 1 17 20
M  V30 20 1 18 21
M  V30 21 1 19 22
M  V30 22 1 6 7
M  V30 23 1 9 12
M  V30 24 1 21 22
M  V30 25 1 3 23
M  V30 26 1 3 24
M  V30 27 1 5 25
M  V30 28 1 6 26
M  V30 29 1 8 27
M  V30 30 1 9 28
M  V30 31 1 11 29
M  V30 32 1 11 30
M  V30 33 1 12 31
M  V30 34 1 14 32
M  V30 35 1 14 33
M  V30 36 1 14 34
M  V30 37 1 15 35
M  V30 38 1 15 36
M  V30 39 1 16 37
M  V30 40 1 18 38
M  V30 41 1 18 39
M  V30 42 1 19 40
M  V30 43 1 19 41
M  V30 44 1 20 42
M  V30 45 1 20 43
M  V30 46 1 20 44
M  V30 47 1 21 45
M  V30 48 1 21 46
M  V30 49 1 22 47
M  V30 50 1 22 48
M  V30 END BOND
M  V30 END CTAB
M  END
>  <Column 1>
287

>  <level_0>
327

>  <index>
327

>  <Unnamed: 0>
327

>  <NO.>
328

>  <Name>
mesoridazine

>  <IUPAC_name>


>  <SMILES>
CC(=O)C1CSc2ccccc2N1CCC1CCCCN1C

>  <CID>


>  <logBB>
-0.36

>  <BBB+/BBB->
BBB+

>  <Inchi>
InChI=1S/C18H26N2OS/c1-14(21)17-13-22-18-9-4-3-8-16(18)20(17)12-10-15-7-5-6-11-19(15)2/h3-4-8-9-15-17H-5-7-10-13H2-1-2H3

>  <threshold>


>  <reference>
R18|R26|R27|

>  <group>
A

>  <Class>
1

>  <ABC>
17.1

>  <ABCGG>
13.83

>  <nAcid>
0

>  <nBase>
1

>  <nAromAtom>
6

>  <nAromBond>
6

>  <nAtom>
48

>  <nHeavyAtom>
22

>  <nSpiro>
0

>  <nBridgehead>
0

>  <nHetero>
4

>  <nN>
2

>  <nO>
1

>  <nF>
0

>  <BalabanJ>
1.63

>  <BertzCT>
533.57

>  <nBonds>
50

>  <nBondsO>
24

>  <nBondsS>
43

>  <nBondsD>
1

>  <nBondsT>
0

>  <nBondsA>
6

>  <nBondsM>
7

>  <nBondsKS>
46

>  <nBondsKD>
4

>  <RNCG>
0.25

>  <RPCG>
0.1

>  <FCSP3>
0.61

>  <SZ>
28.67

>  <Sm>
26.52

>  <Sv>
28.46

>  <Sse>
47.28

>  <Sp>
31.92

>  <Si>
54.11

>  <MZ>
0.6

>  <Mm>
0.55

>  <Mv>
0.59

>  <Mse>
0.98

>  <Mp>
0.66

>  <Mi>
1.13

>  <NsCH3>
2

>  <NdCH2>
0

>  <NssCH2>
7

>  <NtCH>
0

>  <NdsCH>
0

>  <NaaCH>
4

>  <NsssCH>
2

>  <NddC>
0

>  <NtsC>
0

>  <NdssC>
1

>  <NaasC>
2

>  <NaaaC>
0

>  <NssssC>
0

>  <NsNH3>
0

>  <NsNH2>
0

>  <NssNH2>
0

>  <NdNH>
0

>  <NssNH>
0

>  <NaaNH>
0

>  <NtN>
0

>  <NsssNH>
0

>  <NdsN>
0

>  <NaaN>
0

>  <NsssN>
2

>  <NddsN>
0

>  <NaasN>
0

>  <NssssN>
0

>  <NsOH>
0

>  <NdO>
1

>  <NssO>
0

>  <NaaO>
0

>  <NsF>
0

>  <NsSiH3>
0

>  <NssSiH2>
0

>  <NsssSiH>
0

>  <NssssSi>
0

>  <NsPH2>
0

>  <NssPH>
0

>  <NsssP>
0

>  <NdsssP>
0

>  <NsssssP>
0

>  <NsSH>
0

>  <NdS>
0

>  <NssS>
1

>  <NaaS>
0

>  <NdssS>
0

>  <NddssS>
0

>  <NsCl>
0

>  <NsBr>
0

>  <NsI>
0

>  <fragCpx>
114.04

>  <fMF>
0.38

>  <nHBAcc>
4

>  <nHBDon>
0

>  <Kier1>
16.84

>  <Kier2>
7.71

>  <Lipinski>
1

>  <GhoseFilter>
1

>  <FilterItLogS>
-3.57

>  <VMcGowan>
256.88

>  <LabuteASA>
137.6

>  <PEOE_VSA1>
9.8

>  <PEOE_VSA2>
4.79

>  <PEOE_VSA3>
0

>  <PEOE_VSA4>
0

>  <PEOE_VSA5>
11.76

>  <PEOE_VSA6>
18.55

>  <PEOE_VSA7>
51.91

>  <PEOE_VSA8>
23.23

>  <PEOE_VSA9>
11.73

>  <PEOE_VSA10>
0

>  <PEOE_VSA11>
5.78

>  <PEOE_VSA12>
0

>  <PEOE_VSA13>
0

>  <SMR_VSA1>
4.79

>  <SMR_VSA2>
0

>  <SMR_VSA3>
4.9

>  <SMR_VSA4>
0

>  <SMR_VSA5>
49.59

>  <SMR_VSA6>
30.79

>  <SMR_VSA7>
24.27

>  <SMR_VSA8>
0

>  <SMR_VSA9>
0

>  <SlogP_VSA1>
4.9

>  <SlogP_VSA2>
48.66

>  <SlogP_VSA3>
4.79

>  <SlogP_VSA4>
0

>  <SlogP_VSA5>
32.61

>  <SlogP_VSA6>
29.16

>  <SlogP_VSA7>
0

>  <SlogP_VSA8>
0

>  <SlogP_VSA9>
0

>  <SlogP_VSA10>
5.69

>  <SlogP_VSA11>
0

>  <EState_VSA1>
0

>  <EState_VSA2>
6.04

>  <EState_VSA3>
11.83

>  <EState_VSA4>
18.72

>  <EState_VSA5>
36.39

>  <EState_VSA6>
6.92

>  <EState_VSA7>
11.76

>  <EState_VSA8>
41.11

>  <EState_VSA9>
0

>  <EState_VSA10>
4.79

>  <VSA_EState1>
0

>  <VSA_EState2>
18.24

>  <VSA_EState3>
0

>  <VSA_EState4>
1.25

>  <VSA_EState5>
1.17

>  <VSA_EState6>
9.23

>  <VSA_EState7>
5.12

>  <VSA_EState8>
3.93

>  <VSA_EState9>
2.24

>  <apol>
53.3

>  <bpol>
32.83

>  <nRing>
3

>  <nHRing>
2

>  <naRing>
1

>  <naHRing>
0

>  <nARing 2>
2

>  <nAHRing 2>
2

>  <nFRing>
1

>  <nFHRing>
1

>  <nFaRing>
0

>  <nFaHRing>
0

>  <nFARing 2>
1

>  <nFAHRing 2>
1

>  <nRot>
4

>  <SLogP>
3.43

>  <SMR>
93.87

>  <TopoPSA(NO)>
23.55

>  <TopoPSA>
48.85

>  <JGI1>
0.15

>  <JGI2>
0.09

>  <JGI3>
0.04

>  <JGI4>
0.04

>  <JGI5>
0.03

>  <Diameter>
10

>  <Radius>
5

>  <TMWC10>
120

>  <TSRW10>
56.17

>  <MW>
318.18

>  <AMW>
6.63

>  <WPath>
1040

>  <WPol>
35

>  <Zagreb1>
114

>  <Zagreb2>
134

>  <mZagreb2>
4.89

>  <yes>


>  <nAR-cont>
1

>  <nHA-cont>
0.983774276

>  <MWHBN>
0.224245405

>  <MWHBN-cont>
0.991939456

>  <TPSA-cont>
0.658996666

>  <pka_cont>
0.97

>  <yes.1>


>  <BBB_SCORE>
5.274676792

>  <MMFF94 Energy>
92.564

$$$$
Compound 225
Actelion Java MolfileCreator 2.0

  0  0  0  0  0  0              0 V3000
M  V30 BEGIN CTAB
M  V30 COUNTS 39 41 0 0 0
M  V30 BEGIN ATOM
M  V30 1 O -3.2086 2.486 -0.0801 0
M  V30 2 C -2.0006 2.5627 -0.2946 0
M  V30 3 N -1.4442 3.8029 -0.4733 0
M  V30 4 C -1.0202 1.3632 -0.3671 0 CFG=1
M  V30 5 C -0.6951 0.7905 1.0204 0
M  V30 6 C -1.3354 0.296 -1.4292 0
M  V30 7 C 0.532 0.1108 1.2309 0
M  V30 8 C -1.5902 0.9129 2.0995 0
M  V30 9 C -0.4754 -0.8041 -1.688 0
M  V30 10 C -2.4857 0.4284 -2.2412 0
M  V30 11 C 0.8409 -0.3673 2.5162 0
M  V30 12 C 1.435 -0.1662 0.0382 0 CFG=2
M  V30 13 C -1.2659 0.4279 3.3663 0
M  V30 14 C -0.8165 -1.7175 -2.715 0
M  V30 15 C 0.7859 -1.1806 -0.9181 0
M  V30 16 C -2.7947 -0.4829 -3.2533 0
M  V30 17 C -0.0475 -0.2017 3.5771 0
M  V30 18 O 2.8153 -0.4503 0.3992 0
M  V30 19 C -1.9588 -1.5588 -3.4915 0
M  V30 20 C 3.2492 -1.7104 0.6477 0
M  V30 21 O 2.5736 -2.7267 0.6428 0
M  V30 22 C 4.7159 -1.684 0.9562 0
M  V30 23 H -2.0631 4.6018 -0.4211 0
M  V30 24 H -0.4581 3.9625 -0.6214 0
M  V30 25 H -0.1026 1.8408 -0.736 0
M  V30 26 H -2.5641 1.383 1.9775 0
M  V30 27 H -3.1871 1.249 -2.1057 0
M  V30 28 H 1.7661 -0.9011 2.7106 0
M  V30 29 H 1.5633 0.7715 -0.5106 0
M  V30 30 H -1.9727 0.5371 4.185 0
M  V30 31 H -0.1802 -2.5816 -2.9052 0
M  V30 32 H 1.5494 -1.468 -1.6544 0
M  V30 33 H 0.5274 -2.0904 -0.3603 0
M  V30 34 H -3.695 -0.3478 -3.8471 0
M  V30 35 H 0.2025 -0.5877 4.5618 0
M  V30 36 H -2.1967 -2.2781 -4.2698 0
M  V30 37 H 5.2654 -1.2612 0.1113 0
M  V30 38 H 4.8931 -1.0997 1.8627 0
M  V30 39 H 5.0698 -2.7053 1.1233 0
M  V30 END ATOM
M  V30 BEGIN BOND
M  V30 1 2 1 2
M  V30 2 1 2 3
M  V30 3 1 2 4
M  V30 4 1 4 5
M  V30 5 1 4 6
M  V30 6 2 5 7
M  V30 7 1 5 8
M  V30 8 2 6 9
M  V30 9 1 6 10
M  V30 10 1 7 11
M  V30 11 1 7 12
M  V30 12 2 8 13
M  V30 13 1 9 14
M  V30 14 1 9 15
M  V30 15 2 10 16
M  V30 16 2 11 17
M  V30 17 1 12 18
M  V30 18 2 14 19
M  V30 19 1 18 20
M  V30 20 2 20 21
M  V30 21 1 20 22
M  V30 22 1 12 15
M  V30 23 1 13 17
M  V30 24 1 16 19
M  V30 25 1 3 23
M  V30 26 1 3 24
M  V30 27 1 4 25
M  V30 28 1 8 26
M  V30 29 1 10 27
M  V30 30 1 11 28
M  V30 31 1 12 29
M  V30 32 1 13 30
M  V30 33 1 14 31
M  V30 34 1 15 32
M  V30 35 1 15 33
M  V30 36 1 16 34
M  V30 37 1 17 35
M  V30 38 1 19 36
M  V30 39 1 22 37
M  V30 40 1 22 38
M  V30 41 1 22 39
M  V30 END BOND
M  V30 BEGIN COLLECTION
M  V30 MDLV30/STEABS ATOMS=(2 4 12)
M  V30 END COLLECTION
M  V30 END CTAB
M  END
>  <Column 1>
288

>  <level_0>
328

>  <index>
328

>  <Unnamed: 0>
328

>  <NO.>
329

>  <Name>
[(2r-9s)-2-carbamoyl-9-tricyclo[9.4.0.03-8]pentadeca-1(15)-3-5-7-11-13-hexaenyl] acetate

>  <IUPAC_name>
[(2r-9s)-2-carbamoyl-9-tricyclo[9.4.0.03-8]pentadeca-1(15)-3-5-7-11-13-hexaenyl] acetate

>  <SMILES>
CC(=O)O[C@H]1Cc2ccccc2[C@@H](C(N)=O)c2ccccc21

>  <CID>
29939457

>  <logBB>
-0.34

>  <BBB+/BBB->
BBB+

>  <Inchi>
InChI=1S/C18H17NO3/c1-11(20)22-16-10-12-6-2-3-7-13(12)17(18(19)21)15-9-5-4-8-14(15)16/h2-9-16-17H-10H2-1H3-(H2-19-21)/t16--17+/m0/s1

>  <threshold>


>  <reference>
R8|

>  <group>
A

>  <Class>
1

>  <ABC>
17.17

>  <ABCGG>
14.3

>  <nAcid>
0

>  <nBase>
0

>  <nAromAtom>
12

>  <nAromBond>
12

>  <nAtom>
39

>  <nHeavyAtom>
22

>  <nSpiro>
0

>  <nBridgehead>
0

>  <nHetero>
4

>  <nN>
1

>  <nO>
3

>  <nF>
0

>  <BalabanJ>
1.9

>  <BertzCT>
738.62

>  <nBonds>
41

>  <nBondsO>
24

>  <nBondsS>
27

>  <nBondsD>
2

>  <nBondsT>
0

>  <nBondsA>
12

>  <nBondsM>
14

>  <nBondsKS>
33

>  <nBondsKD>
8

>  <RNCG>
0.24

>  <RPCG>
0.16

>  <FCSP3>
0.22

>  <SZ>
26

>  <Sm>
24.59

>  <Sv>
25.51

>  <Sse>
39.2

>  <Sp>
26.89

>  <Si>
43.45

>  <MZ>
0.67

>  <Mm>
0.63

>  <Mv>
0.65

>  <Mse>
1.01

>  <Mp>
0.69

>  <Mi>
1.11

>  <NsCH3>
1

>  <NdCH2>
0

>  <NssCH2>
1

>  <NtCH>
0

>  <NdsCH>
0

>  <NaaCH>
8

>  <NsssCH>
2

>  <NddC>
0

>  <NtsC>
0

>  <NdssC>
2

>  <NaasC>
4

>  <NaaaC>
0

>  <NssssC>
0

>  <NsNH3>
0

>  <NsNH2>
1

>  <NssNH2>
0

>  <NdNH>
0

>  <NssNH>
0

>  <NaaNH>
0

>  <NtN>
0

>  <NsssNH>
0

>  <NdsN>
0

>  <NaaN>
0

>  <NsssN>
0

>  <NddsN>
0

>  <NaasN>
0

>  <NssssN>
0

>  <NsOH>
0

>  <NdO>
2

>  <NssO>
1

>  <NaaO>
0

>  <NsF>
0

>  <NsSiH3>
0

>  <NssSiH2>
0

>  <NsssSiH>
0

>  <NssssSi>
0

>  <NsPH2>
0

>  <NssPH>
0

>  <NsssP>
0

>  <NdsssP>
0

>  <NsssssP>
0

>  <NsSH>
0

>  <NdS>
0

>  <NssS>
0

>  <NaaS>
0

>  <NdssS>
0

>  <NddssS>
0

>  <NsCl>
0

>  <NsBr>
0

>  <NsI>
0

>  <fragCpx>
114.04

>  <fMF>
0.38

>  <nHBAcc>
3

>  <nHBDon>
1

>  <Kier1>
16.84

>  <Kier2>
7.27

>  <Lipinski>
1

>  <GhoseFilter>
1

>  <FilterItLogS>
-3.73

>  <VMcGowan>
225.09

>  <LabuteASA>
128.45

>  <PEOE_VSA1>
10.47

>  <PEOE_VSA2>
9.59

>  <PEOE_VSA3>
0

>  <PEOE_VSA4>
0

>  <PEOE_VSA5>
0

>  <PEOE_VSA6>
48.53

>  <PEOE_VSA7>
22.25

>  <PEOE_VSA8>
13.34

>  <PEOE_VSA9>
5.92

>  <PEOE_VSA10>
6.1

>  <PEOE_VSA11>
0

>  <PEOE_VSA12>
5.91

>  <PEOE_VSA13>
0

>  <SMR_VSA1>
14.33

>  <SMR_VSA2>
0

>  <SMR_VSA3>
0

>  <SMR_VSA4>
5.73

>  <SMR_VSA5>
25.37

>  <SMR_VSA6>
0

>  <SMR_VSA7>
70.78

>  <SMR_VSA8>
0

>  <SMR_VSA9>
0

>  <SlogP_VSA1>
5.73

>  <SlogP_VSA2>
11.88

>  <SlogP_VSA3>
20.75

>  <SlogP_VSA4>
0

>  <SlogP_VSA5>
41.2

>  <SlogP_VSA6>
48.53

>  <SlogP_VSA7>
0

>  <SlogP_VSA8>
0

>  <SlogP_VSA9>
0

>  <SlogP_VSA10>
0

>  <SlogP_VSA11>
0

>  <EState_VSA1>
17.93

>  <EState_VSA2>
5.97

>  <EState_VSA3>
6.42

>  <EState_VSA4>
22.25

>  <EState_VSA5>
6.92

>  <EState_VSA6>
0

>  <EState_VSA7>
48.53

>  <EState_VSA8>
0

>  <EState_VSA9>
10.47

>  <EState_VSA10>
9.59

>  <VSA_EState1>
5.49

>  <VSA_EState2>
23.52

>  <VSA_EState3>
0

>  <VSA_EState4>
9.19

>  <VSA_EState5>
-1.26

>  <VSA_EState6>
15.19

>  <VSA_EState7>
0.13

>  <VSA_EState8>
1.39

>  <VSA_EState9>
0

>  <apol>
44.9

>  <bpol>
19.96

>  <nRing>
3

>  <nHRing>
0

>  <naRing>
2

>  <naHRing>
0

>  <nARing 2>
1

>  <nAHRing 2>
0

>  <nFRing>
1

>  <nFHRing>
0

>  <nFaRing>
0

>  <nFaHRing>
0

>  <nFARing 2>
1

>  <nFAHRing 2>
0

>  <nRot>
2

>  <SLogP>
2.46

>  <SMR>
82.13

>  <TopoPSA(NO)>
69.39

>  <TopoPSA>
69.39

>  <JGI1>
0.17

>  <JGI2>
0.07

>  <JGI3>
0.05

>  <JGI4>
0.04

>  <JGI5>
0.02

>  <Diameter>
8

>  <Radius>
5

>  <TMWC10>
121.12

>  <TSRW10>
64.47

>  <MW>
295.12

>  <AMW>
7.57

>  <WPath>
908

>  <WPol>
40

>  <Zagreb1>
116

>  <Zagreb2>
138

>  <mZagreb2>
4.83

>  <yes>


>  <nAR-cont>
0.816016

>  <nHA-cont>
0.983774276

>  <MWHBN>
0.232841651

>  <MWHBN-cont>
0.983774851

>  <TPSA-cont>
0.515614711

>  <pka_cont>
0.97

>  <yes.1>


>  <BBB_SCORE>
4.791681976

>  <MMFF94 Energy>
86.84

$$$$
Compound 226
Actelion Java MolfileCreator 2.0

  0  0  0  0  0  0              0 V3000
M  V30 BEGIN CTAB
M  V30 COUNTS 38 40 0 0 0
M  V30 BEGIN ATOM
M  V30 1 O 2.2247 -2.7019 -0.8735 0
M  V30 2 C 2.1776 -1.4729 -0.8634 0
M  V30 3 N 1.3182 -0.7017 -0.0849 0
M  V30 4 N 3.0089 -0.7962 -1.7049 0
M  V30 5 C 0.2871 -1.3392 0.6445 0
M  V30 6 C 1.3846 0.712 0.0488 0
M  V30 7 C -1.0401 -1.2301 0.1919 0
M  V30 8 C 0.6024 -2.1043 1.7726 0
M  V30 9 C 0.316 1.5774 -0.2717 0
M  V30 10 C 2.6046 1.2508 0.5083 0
M  V30 11 C -2.0447 -1.8965 0.9084 0
M  V30 12 C -1.3037 -0.3589 -1.0259 0
M  V30 13 C -0.4083 -2.7599 2.4709 0
M  V30 14 C 0.5588 2.9698 -0.2027 0
M  V30 15 C -1.1021 1.1461 -0.676 0
M  V30 16 C 2.8035 2.6263 0.5949 0
M  V30 17 C -1.7288 -2.655 2.0395 0
M  V30 18 C -2.6472 -0.6191 -1.7255 0
M  V30 19 C 1.7828 3.4876 0.2232 0
M  V30 20 C -2.1086 1.6271 0.393 0
M  V30 21 H 3.625 -1.3452 -2.2863 0
M  V30 22 H 2.9402 0.1982 -1.8545 0
M  V30 23 H 1.6345 -2.2007 2.0975 0
M  V30 24 H 3.416 0.5856 0.7993 0
M  V30 25 H -3.0865 -1.8362 0.6077 0
M  V30 26 H -0.5589 -0.6299 -1.7886 0
M  V30 27 H -0.1648 -3.3588 3.3441 0
M  V30 28 H -0.2262 3.6743 -0.4747 0
M  V30 29 H -1.323 1.7005 -1.6003 0
M  V30 30 H 3.7532 3.0199 0.9467 0
M  V30 31 H -2.5175 -3.1693 2.5832 0
M  V30 32 H -2.7335 -0.0044 -2.6282 0
M  V30 33 H -2.7242 -1.6682 -2.0332 0
M  V30 34 H -3.5112 -0.3987 -1.0924 0
M  V30 35 H 1.9286 4.5635 0.2776 0
M  V30 36 H -3.1376 1.3665 0.1315 0
M  V30 37 H -1.8867 1.2009 1.3776 0
M  V30 38 H -2.0883 2.7165 0.5055 0
M  V30 END ATOM
M  V30 BEGIN BOND
M  V30 1 2 1 2
M  V30 2 1 2 3
M  V30 3 1 2 4
M  V30 4 1 3 5
M  V30 5 1 3 6
M  V30 6 2 5 7
M  V30 7 1 5 8
M  V30 8 2 6 9
M  V30 9 1 6 10
M  V30 10 1 7 11
M  V30 11 1 7 12
M  V30 12 2 8 13
M  V30 13 1 9 14
M  V30 14 1 9 15
M  V30 15 2 10 16
M  V30 16 2 11 17
M  V30 17 1 12 18
M  V30 18 2 14 19
M  V30 19 1 15 20
M  V30 20 1 12 15
M  V30 21 1 13 17
M  V30 22 1 16 19
M  V30 23 1 4 21
M  V30 24 1 4 22
M  V30 25 1 8 23
M  V30 26 1 10 24
M  V30 27 1 11 25
M  V30 28 1 12 26
M  V30 29 1 13 27
M  V30 30 1 14 28
M  V30 31 1 15 29
M  V30 32 1 16 30
M  V30 33 1 17 31
M  V30 34 1 18 32
M  V30 35 1 18 33
M  V30 36 1 18 34
M  V30 37 1 19 35
M  V30 38 1 20 36
M  V30 39 1 20 37
M  V30 40 1 20 38
M  V30 END BOND
M  V30 END CTAB
M  END
>  <Column 1>
289

>  <level_0>
329

>  <index>
329

>  <Unnamed: 0>
329

>  <NO.>
330

>  <Name>
schembl11119364

>  <IUPAC_name>
5-6-dimethyl-5-6-dihydrobenzo[b][1]benzazepine-11-carboxamide

>  <SMILES>
CC1c2ccccc2N(C(N)=O)c2ccccc2C1C

>  <CID>
70517986

>  <logBB>
-0.34

>  <BBB+/BBB->
BBB+

>  <Inchi>
InChI=1S/C17H18N2O/c1-11-12(2)14-8-4-6-10-16(14)19(17(18)20)15-9-5-3-7-13(11)15/h3-12H-1-2H3-(H2-18-20)

>  <threshold>


>  <reference>
R2|R2|R8|R27|

>  <group>
A

>  <Class>
1

>  <ABC>
15.67

>  <ABCGG>
13.38

>  <nAcid>
0

>  <nBase>
0

>  <nAromAtom>
12

>  <nAromBond>
12

>  <nAtom>
38

>  <nHeavyAtom>
20

>  <nSpiro>
0

>  <nBridgehead>
0

>  <nHetero>
3

>  <nN>
2

>  <nO>
1

>  <nF>
0

>  <BalabanJ>
1.96

>  <BertzCT>
614.04

>  <nBonds>
40

>  <nBondsO>
22

>  <nBondsS>
27

>  <nBondsD>
1

>  <nBondsT>
0

>  <nBondsA>
12

>  <nBondsM>
13

>  <nBondsKS>
33

>  <nBondsKD>
7

>  <RNCG>
0.24

>  <RPCG>
0.22

>  <FCSP3>
0.24

>  <SZ>
23.67

>  <Sm>
22.18

>  <Sv>
24.11

>  <Sse>
37.65

>  <Sp>
25.98

>  <Si>
42.53

>  <MZ>
0.62

>  <Mm>
0.58

>  <Mv>
0.63

>  <Mse>
0.99

>  <Mp>
0.68

>  <Mi>
1.12

>  <NsCH3>
2

>  <NdCH2>
0

>  <NssCH2>
0

>  <NtCH>
0

>  <NdsCH>
0

>  <NaaCH>
8

>  <NsssCH>
2

>  <NddC>
0

>  <NtsC>
0

>  <NdssC>
1

>  <NaasC>
4

>  <NaaaC>
0

>  <NssssC>
0

>  <NsNH3>
0

>  <NsNH2>
1

>  <NssNH2>
0

>  <NdNH>
0

>  <NssNH>
0

>  <NaaNH>
0

>  <NtN>
0

>  <NsssNH>
0

>  <NdsN>
0

>  <NaaN>
0

>  <NsssN>
1

>  <NddsN>
0

>  <NaasN>
0

>  <NssssN>
0

>  <NsOH>
0

>  <NdO>
1

>  <NssO>
0

>  <NaaO>
0

>  <NsF>
0

>  <NsSiH3>
0

>  <NssSiH2>
0

>  <NsssSiH>
0

>  <NssssSi>
0

>  <NsPH2>
0

>  <NssPH>
0

>  <NsssP>
0

>  <NdsssP>
0

>  <NsssssP>
0

>  <NsSH>
0

>  <NdS>
0

>  <NssS>
0

>  <NaaS>
0

>  <NdssS>
0

>  <NddssS>
0

>  <NsCl>
0

>  <NsBr>
0

>  <NsI>
0

>  <fragCpx>
104.03

>  <fMF>
0.39

>  <nHBAcc>
1

>  <nHBDon>
1

>  <Kier1>
14.92

>  <Kier2>
6.01

>  <Lipinski>
1

>  <GhoseFilter>
1

>  <FilterItLogS>
-3.5

>  <VMcGowan>
213.54

>  <LabuteASA>
118.57

>  <PEOE_VSA1>
5.73

>  <PEOE_VSA2>
4.9

>  <PEOE_VSA3>
4.79

>  <PEOE_VSA4>
0

>  <PEOE_VSA5>
0

>  <PEOE_VSA6>
50.25

>  <PEOE_VSA7>
35.1

>  <PEOE_VSA8>
0

>  <PEOE_VSA9>
11.37

>  <PEOE_VSA10>
0

>  <PEOE_VSA11>
0

>  <PEOE_VSA12>
0

>  <PEOE_VSA13>
0

>  <SMR_VSA1>
4.79

>  <SMR_VSA2>
0

>  <SMR_VSA3>
0

>  <SMR_VSA4>
5.73

>  <SMR_VSA5>
25.68

>  <SMR_VSA6>
4.9

>  <SMR_VSA7>
59.66

>  <SMR_VSA8>
0

>  <SMR_VSA9>
0

>  <SlogP_VSA1>
10.63

>  <SlogP_VSA2>
6.03

>  <SlogP_VSA3>
0

>  <SlogP_VSA4>
0

>  <SlogP_VSA5>
36.81

>  <SlogP_VSA6>
48.53

>  <SlogP_VSA7>
0

>  <SlogP_VSA8>
0

>  <SlogP_VSA9>
0

>  <SlogP_VSA10>
16.17

>  <SlogP_VSA11>
0

>  <EState_VSA1>
6.03

>  <EState_VSA2>
0

>  <EState_VSA3>
11.84

>  <EState_VSA4>
22.5

>  <EState_VSA5>
0

>  <EState_VSA6>
4.9

>  <EState_VSA7>
36.4

>  <EState_VSA8>
25.98

>  <EState_VSA9>
5.73

>  <EState_VSA10>
4.79

>  <VSA_EState1>
0

>  <VSA_EState2>
13.62

>  <VSA_EState3>
0

>  <VSA_EState4>
9.75

>  <VSA_EState5>
0.66

>  <VSA_EState6>
15.56

>  <VSA_EState7>
0

>  <VSA_EState8>
4.4

>  <VSA_EState9>
0

>  <apol>
43.39

>  <bpol>
20.07

>  <nRing>
3

>  <nHRing>
1

>  <naRing>
2

>  <naHRing>
0

>  <nARing 2>
1

>  <nAHRing 2>
1

>  <nFRing>
1

>  <nFHRing>
1

>  <nFaRing>
0

>  <nFaHRing>
0

>  <nFARing 2>
1

>  <nFAHRing 2>
1

>  <nRot>
0

>  <SLogP>
4.12

>  <SMR>
81.44

>  <TopoPSA(NO)>
46.33

>  <TopoPSA>
46.33

>  <JGI1>
0.14

>  <JGI2>
0.08

>  <JGI3>
0.06

>  <JGI4>
0.05

>  <JGI5>
0.03

>  <Diameter>
7

>  <Radius>
4

>  <TMWC10>
116.99

>  <TSRW10>
62.37

>  <MW>
266.14

>  <AMW>
7

>  <WPath>
668

>  <WPol>
40

>  <Zagreb1>
108

>  <Zagreb2>
132

>  <mZagreb2>
4.39

>  <yes>


>  <nAR-cont>
0.816016

>  <nHA-cont>
0.999629945

>  <MWHBN>
0.12259561

>  <MWHBN-cont>
0.840366952

>  <TPSA-cont>
0.676587831

>  <pka_cont>
0.97

>  <yes.1>


>  <BBB_SCORE>
4.914372034

>  <MMFF94 Energy>
26.581

$$$$
Compound 227
Actelion Java MolfileCreator 2.0

  0  0  0  0  0  0              0 V3000
M  V30 BEGIN CTAB
M  V30 COUNTS 32 35 0 0 0
M  V30 BEGIN ATOM
M  V30 1 O 2.0292 -1.8668 1.2983 0
M  V30 2 C 1.5053 -1.7738 0.1915 0
M  V30 3 N 1.3453 -2.9076 -0.5619 0
M  V30 4 C 1.0591 -0.4576 -0.475 0
M  V30 5 C 1.1664 0.7743 0.4219 0
M  V30 6 C -0.3287 -0.5484 -1.115 0
M  V30 7 C 0.3981 0.8878 1.6049 0
M  V30 8 C 2.0109 1.8324 0.0295 0
M  V30 9 C -1.4754 -0.8074 -0.3277 0
M  V30 10 C -0.4568 -0.3415 -2.5031 0
M  V30 11 C 0.4878 2.0897 2.3334 0
M  V30 12 C -0.5339 -0.1956 2.0863 0
M  V30 13 C 2.0938 2.9992 0.7862 0
M  V30 14 C -2.7239 -0.8263 -0.9779 0
M  V30 15 C -1.42 -1.0047 1.167 0
M  V30 16 C -1.7056 -0.3883 -3.1176 0
M  V30 17 C 1.3274 3.131 1.9366 0
M  V30 18 O -1.9462 0.0534 1.9854 0
M  V30 19 C -2.8409 -0.6283 -2.3544 0
M  V30 20 H 0.8837 -2.911 -1.4617 0
M  V30 21 H 1.6459 -3.7863 -0.1614 0
M  V30 22 H 1.7889 -0.3329 -1.2893 0
M  V30 23 H 2.6055 1.7573 -0.878 0
M  V30 24 H 0.4176 -0.1251 -3.1133 0
M  V30 25 H -0.1131 2.2101 3.2334 0
M  V30 26 H -0.2013 -0.7116 2.9843 0
M  V30 27 H 2.7479 3.8081 0.4721 0
M  V30 28 H -3.6259 -0.9919 -0.3902 0
M  V30 29 H -1.6342 -2.0167 1.5024 0
M  V30 30 H -1.7949 -0.2197 -4.1876 0
M  V30 31 H 1.3774 4.0422 2.5263 0
M  V30 32 H -3.8212 -0.6482 -2.8234 0
M  V30 END ATOM
M  V30 BEGIN BOND
M  V30 1 2 1 2
M  V30 2 1 2 3
M  V30 3 1 2 4
M  V30 4 1 4 5
M  V30 5 1 4 6
M  V30 6 2 5 7
M  V30 7 1 5 8
M  V30 8 2 6 9
M  V30 9 1 6 10
M  V30 10 1 7 11
M  V30 11 1 7 12
M  V30 12 2 8 13
M  V30 13 1 9 14
M  V30 14 1 9 15
M  V30 15 2 10 16
M  V30 16 2 11 17
M  V30 17 1 12 18
M  V30 18 2 14 19
M  V30 19 1 12 15
M  V30 20 1 13 17
M  V30 21 1 15 18
M  V30 22 1 16 19
M  V30 23 1 3 20
M  V30 24 1 3 21
M  V30 25 1 4 22
M  V30 26 1 8 23
M  V30 27 1 10 24
M  V30 28 1 11 25
M  V30 29 1 12 26
M  V30 30 1 13 27
M  V30 31 1 14 28
M  V30 32 1 15 29
M  V30 33 1 16 30
M  V30 34 1 17 31
M  V30 35 1 19 32
M  V30 END BOND
M  V30 END CTAB
M  END
>  <Column 1>
290

>  <level_0>
330

>  <index>
330

>  <Unnamed: 0>
330

>  <NO.>
331

>  <Name>
carbamazepine;9-10-epoxide

>  <IUPAC_name>
3-oxatetracyclo[10.4.0.02-4.05-10]hexadeca-1(16)-5-7-9-12-14-hexaene-11-carboxamide

>  <SMILES>
NC(=O)C1c2ccccc2C2OC2c2ccccc21

>  <CID>
91751467

>  <logBB>
-0.34

>  <BBB+/BBB->
BBB+

>  <Inchi>
InChI=1S/C16H13NO2/c17-16(18)13-9-5-1-3-7-11(9)14-15(19-14)12-8-4-2-6-10(12)13/h1-8-13-15H-(H2-17-18)

>  <threshold>


>  <reference>
R2|R2|R27|

>  <group>
A

>  <Class>
1

>  <ABC>
15.45

>  <ABCGG>
13.49

>  <nAcid>
0

>  <nBase>
0

>  <nAromAtom>
12

>  <nAromBond>
12

>  <nAtom>
32

>  <nHeavyAtom>
19

>  <nSpiro>
0

>  <nBridgehead>
0

>  <nHetero>
3

>  <nN>
1

>  <nO>
2

>  <nF>
0

>  <BalabanJ>
1.68

>  <BertzCT>
628.45

>  <nBonds>
35

>  <nBondsO>
22

>  <nBondsS>
22

>  <nBondsD>
1

>  <nBondsT>
0

>  <nBondsA>
12

>  <nBondsM>
13

>  <nBondsKS>
28

>  <nBondsKD>
7

>  <RNCG>
0.24

>  <RPCG>
0.15

>  <FCSP3>
0.19

>  <SZ>
22

>  <Sm>
20.92

>  <Sv>
21.71

>  <Sse>
32.1

>  <Sp>
22.81

>  <Si>
35.41

>  <MZ>
0.69

>  <Mm>
0.65

>  <Mv>
0.68

>  <Mse>
1

>  <Mp>
0.71

>  <Mi>
1.11

>  <NsCH3>
0

>  <NdCH2>
0

>  <NssCH2>
0

>  <NtCH>
0

>  <NdsCH>
0

>  <NaaCH>
8

>  <NsssCH>
3

>  <NddC>
0

>  <NtsC>
0

>  <NdssC>
1

>  <NaasC>
4

>  <NaaaC>
0

>  <NssssC>
0

>  <NsNH3>
0

>  <NsNH2>
1

>  <NssNH2>
0

>  <NdNH>
0

>  <NssNH>
0

>  <NaaNH>
0

>  <NtN>
0

>  <NsssNH>
0

>  <NdsN>
0

>  <NaaN>
0

>  <NsssN>
0

>  <NddsN>
0

>  <NaasN>
0

>  <NssssN>
0

>  <NsOH>
0

>  <NdO>
1

>  <NssO>
1

>  <NaaO>
0

>  <NsF>
0

>  <NsSiH3>
0

>  <NssSiH2>
0

>  <NsssSiH>
0

>  <NssssSi>
0

>  <NsPH2>
0

>  <NssPH>
0

>  <NsssP>
0

>  <NdsssP>
0

>  <NsssssP>
0

>  <NsSH>
0

>  <NdS>
0

>  <NssS>
0

>  <NaaS>
0

>  <NdssS>
0

>  <NddssS>
0

>  <NsCl>
0

>  <NsBr>
0

>  <NsI>
0

>  <fragCpx>
142.03

>  <fMF>
0.5

>  <nHBAcc>
2

>  <nHBDon>
1

>  <Kier1>
12.72

>  <Kier2>
4.78

>  <Lipinski>
1

>  <GhoseFilter>
1

>  <FilterItLogS>
-3.17

>  <VMcGowan>
184.48

>  <LabuteASA>
110.55

>  <PEOE_VSA1>
10.47

>  <PEOE_VSA2>
4.79

>  <PEOE_VSA3>
0

>  <PEOE_VSA4>
0

>  <PEOE_VSA5>
0

>  <PEOE_VSA6>
48.53

>  <PEOE_VSA7>
22.25

>  <PEOE_VSA8>
0

>  <PEOE_VSA9>
5.92

>  <PEOE_VSA10>
12.21

>  <PEOE_VSA11>
0

>  <PEOE_VSA12>
5.91

>  <PEOE_VSA13>
0

>  <SMR_VSA1>
9.53

>  <SMR_VSA2>
0

>  <SMR_VSA3>
0

>  <SMR_VSA4>
5.73

>  <SMR_VSA5>
18.13

>  <SMR_VSA6>
0

>  <SMR_VSA7>
70.78

>  <SMR_VSA8>
0

>  <SMR_VSA9>
0

>  <SlogP_VSA1>
5.73

>  <SlogP_VSA2>
5.91

>  <SlogP_VSA3>
9.53

>  <SlogP_VSA4>
0

>  <SlogP_VSA5>
40.38

>  <SlogP_VSA6>
48.53

>  <SlogP_VSA7>
0

>  <SlogP_VSA8>
0

>  <SlogP_VSA9>
0

>  <SlogP_VSA10>
0

>  <SlogP_VSA11>
0

>  <EState_VSA1>
0

>  <EState_VSA2>
24.03

>  <EState_VSA3>
0

>  <EState_VSA4>
22.25

>  <EState_VSA5>
0

>  <EState_VSA6>
0

>  <EState_VSA7>
48.53

>  <EState_VSA8>
0

>  <EState_VSA9>
10.47

>  <EState_VSA10>
4.79

>  <VSA_EState1>
5.79

>  <VSA_EState2>
11.94

>  <VSA_EState3>
0

>  <VSA_EState4>
9.79

>  <VSA_EState5>
-0.68

>  <VSA_EState6>
15.86

>  <VSA_EState7>
0.14

>  <VSA_EState8>
0

>  <VSA_EState9>
0

>  <apol>
38.09

>  <bpol>
15.08

>  <nRing>
4

>  <nHRing>
1

>  <naRing>
2

>  <naHRing>
0

>  <nARing 2>
2

>  <nAHRing 2>
1

>  <nFRing>
1

>  <nFHRing>
1

>  <nFaRing>
0

>  <nFaHRing>
0

>  <nFARing 2>
1

>  <nFAHRing 2>
1

>  <nRot>
1

>  <SLogP>
2.43

>  <SMR>
70.49

>  <TopoPSA(NO)>
55.62

>  <TopoPSA>
55.62

>  <JGI1>
0.11

>  <JGI2>
0.07

>  <JGI3>
0.05

>  <JGI4>
0.05

>  <JGI5>
0.02

>  <Diameter>
7

>  <Radius>
4

>  <TMWC10>
117.17

>  <TSRW10>
73.17

>  <MW>
251.09

>  <AMW>
7.85

>  <WPath>
586

>  <WPol>
37

>  <Zagreb1>
110

>  <Zagreb2>
138

>  <mZagreb2>
4.06

>  <yes>


>  <nAR-cont>
1

>  <nHA-cont>
0.998649058

>  <MWHBN>
0.189324381

>  <MWHBN-cont>
0.995212329

>  <TPSA-cont>
0.611737862

>  <pka_cont>
0.97

>  <yes.1>


>  <BBB_SCORE>
5.199943275

>  <MMFF94 Energy>
54.348

$$$$
Compound 228
Actelion Java MolfileCreator 2.0

  0  0  0  0  0  0              0 V3000
M  V30 BEGIN CTAB
M  V30 COUNTS 33 36 0 0 0
M  V30 BEGIN ATOM
M  V30 1 O -1.2046 -3.2149 -0.562 0
M  V30 2 C -0.3168 -2.5644 -0.0137 0
M  V30 3 N -0.3059 -1.187 0.1404 0
M  V30 4 N 0.7608 -3.2368 0.4796 0
M  V30 5 C -1.3462 -0.3856 -0.3992 0
M  V30 6 C 0.6559 -0.4607 0.8874 0
M  V30 7 C -1.0741 0.5089 -1.4566 0
M  V30 8 C -2.6354 -0.4903 0.1452 0
M  V30 9 C 1.5757 0.3831 0.2312 0
M  V30 10 C 0.6633 -0.5932 2.2854 0
M  V30 11 C -2.1325 1.3237 -1.9006 0
M  V30 12 C 0.2976 0.6508 -2.0781 0
M  V30 13 C -3.6667 0.3141 -0.3327 0
M  V30 14 C 2.4787 1.1011 1.0369 0
M  V30 15 C 1.5739 0.5867 -1.2664 0
M  V30 16 C 1.5832 0.1164 3.0523 0
M  V30 17 C -3.4136 1.227 -1.3511 0
M  V30 18 C 1.1033 1.9025 -1.8355 0
M  V30 19 C 2.4902 0.9658 2.4279 0
M  V30 20 H 0.7736 -4.2395 0.3658 0
M  V30 21 H 1.568 -2.7681 0.8594 0
M  V30 22 H -2.8344 -1.2005 0.9433 0
M  V30 23 H -0.0595 -1.2405 2.7761 0
M  V30 24 H -1.9546 2.0398 -2.7003 0
M  V30 25 H 0.3714 0.2245 -3.0778 0
M  V30 26 H -4.6637 0.2287 0.0905 0
M  V30 27 H 3.1877 1.7805 0.5672 0
M  V30 28 H 2.4143 0.12 -1.7782 0
M  V30 29 H 1.5831 0.0173 4.1347 0
M  V30 30 H -4.2133 1.8613 -1.7245 0
M  V30 31 H 0.7056 2.6492 -1.1565 0
M  V30 32 H 1.6532 2.3189 -2.6713 0
M  V30 33 H 3.203 1.5331 3.0214 0
M  V30 END ATOM
M  V30 BEGIN BOND
M  V30 1 2 1 2
M  V30 2 1 2 3
M  V30 3 1 2 4
M  V30 4 1 3 5
M  V30 5 1 3 6
M  V30 6 2 5 7
M  V30 7 1 5 8
M  V30 8 2 6 9
M  V30 9 1 6 10
M  V30 10 1 7 11
M  V30 11 1 7 12
M  V30 12 2 8 13
M  V30 13 1 9 14
M  V30 14 1 9 15
M  V30 15 2 10 16
M  V30 16 2 11 17
M  V30 17 1 12 18
M  V30 18 2 14 19
M  V30 19 1 12 15
M  V30 20 1 13 17
M  V30 21 1 15 18
M  V30 22 1 16 19
M  V30 23 1 4 20
M  V30 24 1 4 21
M  V30 25 1 8 22
M  V30 26 1 10 23
M  V30 27 1 11 24
M  V30 28 1 12 25
M  V30 29 1 13 26
M  V30 30 1 14 27
M  V30 31 1 15 28
M  V30 32 1 16 29
M  V30 33 1 17 30
M  V30 34 1 18 31
M  V30 35 1 18 32
M  V30 36 1 19 33
M  V30 END BOND
M  V30 END CTAB
M  END
>  <Column 1>
291

>  <level_0>
331

>  <index>
331

>  <Unnamed: 0>
331

>  <NO.>
332

>  <Name>
cbz-epo

>  <IUPAC_name>
11-azatetracyclo[10.4.0.02-4.05-10]hexadeca-1(16)-5-7-9-12-14-hexaene-11-carboxamide

>  <SMILES>
NC(=O)N1c2ccccc2C2CC2c2ccccc21

>  <CID>
12323381

>  <logBB>
-0.34

>  <BBB+/BBB->
BBB+

>  <Inchi>
InChI=1S/C16H14N2O/c17-16(19)18-14-7-3-1-5-10(14)12-9-13(12)11-6-2-4-8-15(11)18/h1-8-12-13H-9H2-(H2-17-19)

>  <threshold>


>  <reference>
R3|R38|R41|R43|

>  <group>
A

>  <Class>
1

>  <ABC>
15.45

>  <ABCGG>
13.49

>  <nAcid>
0

>  <nBase>
0

>  <nAromAtom>
12

>  <nAromBond>
12

>  <nAtom>
33

>  <nHeavyAtom>
19

>  <nSpiro>
0

>  <nBridgehead>
0

>  <nHetero>
3

>  <nN>
2

>  <nO>
1

>  <nF>
0

>  <BalabanJ>
1.68

>  <BertzCT>
628.45

>  <nBonds>
36

>  <nBondsO>
22

>  <nBondsS>
23

>  <nBondsD>
1

>  <nBondsT>
0

>  <nBondsA>
12

>  <nBondsM>
13

>  <nBondsKS>
29

>  <nBondsKD>
7

>  <RNCG>
0.25

>  <RPCG>
0.23

>  <FCSP3>
0.19

>  <SZ>
22

>  <Sm>
20.84

>  <Sv>
22.02

>  <Sse>
32.87

>  <Sp>
23.39

>  <Si>
36.7

>  <MZ>
0.67

>  <Mm>
0.63

>  <Mv>
0.67

>  <Mse>
1

>  <Mp>
0.71

>  <Mi>
1.11

>  <NsCH3>
0

>  <NdCH2>
0

>  <NssCH2>
1

>  <NtCH>
0

>  <NdsCH>
0

>  <NaaCH>
8

>  <NsssCH>
2

>  <NddC>
0

>  <NtsC>
0

>  <NdssC>
1

>  <NaasC>
4

>  <NaaaC>
0

>  <NssssC>
0

>  <NsNH3>
0

>  <NsNH2>
1

>  <NssNH2>
0

>  <NdNH>
0

>  <NssNH>
0

>  <NaaNH>
0

>  <NtN>
0

>  <NsssNH>
0

>  <NdsN>
0

>  <NaaN>
0

>  <NsssN>
1

>  <NddsN>
0

>  <NaasN>
0

>  <NssssN>
0

>  <NsOH>
0

>  <NdO>
1

>  <NssO>
0

>  <NaaO>
0

>  <NsF>
0

>  <NsSiH3>
0

>  <NssSiH2>
0

>  <NsssSiH>
0

>  <NssssSi>
0

>  <NsPH2>
0

>  <NssPH>
0

>  <NsssP>
0

>  <NdsssP>
0

>  <NsssssP>
0

>  <NsSH>
0

>  <NdS>
0

>  <NssS>
0

>  <NaaS>
0

>  <NdssS>
0

>  <NddssS>
0

>  <NsCl>
0

>  <NsBr>
0

>  <NsI>
0

>  <fragCpx>
142.03

>  <fMF>
0.48

>  <nHBAcc>
1

>  <nHBDon>
1

>  <Kier1>
12.72

>  <Kier2>
4.78

>  <Lipinski>
1

>  <GhoseFilter>
1

>  <FilterItLogS>
-3

>  <VMcGowan>
188.59

>  <LabuteASA>
111.2

>  <PEOE_VSA1>
5.73

>  <PEOE_VSA2>
4.9

>  <PEOE_VSA3>
4.79

>  <PEOE_VSA4>
0

>  <PEOE_VSA5>
0

>  <PEOE_VSA6>
36.4

>  <PEOE_VSA7>
41.52

>  <PEOE_VSA8>
0

>  <PEOE_VSA9>
11.37

>  <PEOE_VSA10>
0

>  <PEOE_VSA11>
0

>  <PEOE_VSA12>
0

>  <PEOE_VSA13>
0

>  <SMR_VSA1>
4.79

>  <SMR_VSA2>
0

>  <SMR_VSA3>
0

>  <SMR_VSA4>
5.73

>  <SMR_VSA5>
18.26

>  <SMR_VSA6>
4.9

>  <SMR_VSA7>
59.66

>  <SMR_VSA8>
0

>  <SMR_VSA9>
0

>  <SlogP_VSA1>
10.63

>  <SlogP_VSA2>
6.03

>  <SlogP_VSA3>
0

>  <SlogP_VSA4>
0

>  <SlogP_VSA5>
29.38

>  <SlogP_VSA6>
48.53

>  <SlogP_VSA7>
0

>  <SlogP_VSA8>
0

>  <SlogP_VSA9>
0

>  <SlogP_VSA10>
16.17

>  <SlogP_VSA11>
0

>  <EState_VSA1>
6.03

>  <EState_VSA2>
0

>  <EState_VSA3>
11.84

>  <EState_VSA4>
11.37

>  <EState_VSA5>
17.55

>  <EState_VSA6>
4.9

>  <EState_VSA7>
36.4

>  <EState_VSA8>
12.13

>  <EState_VSA9>
5.73

>  <EState_VSA10>
4.79

>  <VSA_EState1>
0

>  <VSA_EState2>
13.55

>  <VSA_EState3>
0

>  <VSA_EState4>
9.97

>  <VSA_EState5>
1.06

>  <VSA_EState6>
15.76

>  <VSA_EState7>
1.17

>  <VSA_EState8>
0

>  <VSA_EState9>
0

>  <apol>
39.06

>  <bpol>
16.05

>  <nRing>
4

>  <nHRing>
1

>  <naRing>
2

>  <naHRing>
0

>  <nARing 2>
2

>  <nAHRing 2>
1

>  <nFRing>
1

>  <nFHRing>
1

>  <nFaRing>
0

>  <nFaHRing>
0

>  <nFARing 2>
1

>  <nFAHRing 2>
1

>  <nRot>
0

>  <SLogP>
3.49

>  <SMR>
74.71

>  <TopoPSA(NO)>
46.33

>  <TopoPSA>
46.33

>  <JGI1>
0.11

>  <JGI2>
0.07

>  <JGI3>
0.05

>  <JGI4>
0.05

>  <JGI5>
0.02

>  <Diameter>
7

>  <Radius>
4

>  <TMWC10>
117.17

>  <TSRW10>
73.17

>  <MW>
250.11

>  <AMW>
7.58

>  <WPath>
586

>  <WPol>
37

>  <Zagreb1>
110

>  <Zagreb2>
138

>  <mZagreb2>
4.06

>  <yes>


>  <nAR-cont>
1

>  <nHA-cont>
0.998649058

>  <MWHBN>
0.126463288

>  <MWHBN-cont>
0.855995899

>  <TPSA-cont>
0.676587831

>  <pka_cont>
0.97

>  <yes.1>


>  <BBB_SCORE>
5.120818567

>  <MMFF94 Energy>
5.2495

$$$$
Compound 229
Actelion Java MolfileCreator 2.0

  0  0  0  0  0  0              0 V3000
M  V30 BEGIN CTAB
M  V30 COUNTS 25 26 0 0 0
M  V30 BEGIN ATOM
M  V30 1 O 0.396 3.5686 0.0 0
M  V30 2 C 0.571 2.3898 0.2572 0
M  V30 3 N 0.7386 1.3565 -0.6504 0
M  V30 4 C 0.5897 1.7936 1.6423 0
M  V30 5 C 0.8987 0.0664 -0.015 0 CFG=1
M  V30 6 C 0.7673 1.5254 -2.0864 0
M  V30 7 C 1.2589 0.4404 1.4233 0
M  V30 8 C -0.3138 -0.8302 -0.0906 0
M  V30 9 C -1.6188 -0.3499 -0.1696 0
M  V30 10 C -0.1568 -2.2219 -0.0455 0
M  V30 11 N -2.721 -1.135 -0.2119 0
M  V30 12 C -1.2725 -3.0539 -0.0901 0
M  V30 13 C -2.5229 -2.4682 -0.1729 0
M  V30 14 H -0.4393 1.6844 1.9977 0
M  V30 15 H 1.1597 2.4215 2.3314 0
M  V30 16 H 1.7495 -0.4358 -0.4926 0
M  V30 17 H -0.0344 0.9339 -2.5358 0
M  V30 18 H 0.6332 2.5769 -2.3535 0
M  V30 19 H 1.7337 1.178 -2.4616 0
M  V30 20 H 2.3463 0.5731 1.5004 0
M  V30 21 H 0.9638 -0.2999 2.1735 0
M  V30 22 H -1.8348 0.7151 -0.2044 0
M  V30 23 H 0.8333 -2.6662 0.0251 0
M  V30 24 H -1.1692 -4.1327 -0.0591 0
M  V30 25 H -3.4248 -3.0723 -0.21 0
M  V30 END ATOM
M  V30 BEGIN BOND
M  V30 1 2 1 2
M  V30 2 1 2 3
M  V30 3 1 2 4
M  V30 4 1 3 5
M  V30 5 1 3 6
M  V30 6 1 4 7
M  V30 7 1 5 8
M  V30 8 2 8 9
M  V30 9 1 8 10
M  V30 10 1 9 11
M  V30 11 2 10 12
M  V30 12 2 11 13
M  V30 13 1 5 7
M  V30 14 1 12 13
M  V30 15 1 4 14
M  V30 16 1 4 15
M  V30 17 1 5 16
M  V30 18 1 6 17
M  V30 19 1 6 18
M  V30 20 1 6 19
M  V30 21 1 7 20
M  V30 22 1 7 21
M  V30 23 1 9 22
M  V30 24 1 10 23
M  V30 25 1 12 24
M  V30 26 1 13 25
M  V30 END BOND
M  V30 BEGIN COLLECTION
M  V30 MDLV30/STEABS ATOMS=(1 5)
M  V30 END COLLECTION
M  V30 END CTAB
M  END
>  <Column 1>
292

>  <level_0>
333

>  <index>
333

>  <Unnamed: 0>
333

>  <NO.>
334

>  <Name>
cotinine

>  <IUPAC_name>
(5s)-1-methyl-5-pyridin-3-ylpyrrolidin-2-one

>  <SMILES>
CN1C(=O)CC[C@H]1c1cccnc1

>  <CID>
854019

>  <logBB>
-0.32

>  <BBB+/BBB->
BBB+

>  <Inchi>
InChI=1S/C10H12N2O/c1-12-9(4-5-10(12)13)8-3-2-6-11-7-8/h2-3-6-7-9H-4-5H2-1H3/t9-/m0/s1

>  <threshold>


>  <reference>
R11|

>  <group>
A

>  <Class>
1

>  <ABC>
10

>  <ABCGG>
9.25

>  <nAcid>
0

>  <nBase>
0

>  <nAromAtom>
6

>  <nAromBond>
6

>  <nAtom>
25

>  <nHeavyAtom>
13

>  <nSpiro>
0

>  <nBridgehead>
0

>  <nHetero>
3

>  <nN>
2

>  <nO>
1

>  <nF>
0

>  <BalabanJ>
1.92

>  <BertzCT>
309.96

>  <nBonds>
26

>  <nBondsO>
14

>  <nBondsS>
19

>  <nBondsD>
1

>  <nBondsT>
0

>  <nBondsA>
6

>  <nBondsM>
7

>  <nBondsKS>
22

>  <nBondsKD>
4

>  <RNCG>
0.34

>  <RPCG>
0.22

>  <FCSP3>
0.4

>  <SZ>
15.67

>  <Sm>
14.67

>  <Sv>
15.48

>  <Sse>
24.98

>  <Sp>
16.59

>  <Si>
28.28

>  <MZ>
0.63

>  <Mm>
0.59

>  <Mv>
0.62

>  <Mse>
1

>  <Mp>
0.66

>  <Mi>
1.13

>  <NsCH3>
1

>  <NdCH2>
0

>  <NssCH2>
2

>  <NtCH>
0

>  <NdsCH>
0

>  <NaaCH>
4

>  <NsssCH>
1

>  <NddC>
0

>  <NtsC>
0

>  <NdssC>
1

>  <NaasC>
1

>  <NaaaC>
0

>  <NssssC>
0

>  <NsNH3>
0

>  <NsNH2>
0

>  <NssNH2>
0

>  <NdNH>
0

>  <NssNH>
0

>  <NaaNH>
0

>  <NtN>
0

>  <NsssNH>
0

>  <NdsN>
0

>  <NaaN>
1

>  <NsssN>
1

>  <NddsN>
0

>  <NaasN>
0

>  <NssssN>
0

>  <NsOH>
0

>  <NdO>
1

>  <NssO>
0

>  <NaaO>
0

>  <NsF>
0

>  <NsSiH3>
0

>  <NssSiH2>
0

>  <NsssSiH>
0

>  <NssssSi>
0

>  <NsPH2>
0

>  <NssPH>
0

>  <NsssP>
0

>  <NdsssP>
0

>  <NsssssP>
0

>  <NsSH>
0

>  <NdS>
0

>  <NssS>
0

>  <NaaS>
0

>  <NdssS>
0

>  <NddssS>
0

>  <NsCl>
0

>  <NsBr>
0

>  <NsI>
0

>  <fragCpx>
40.03

>  <fMF>
0.44

>  <nHBAcc>
2

>  <nHBDon>
0

>  <Kier1>
9.55

>  <Kier2>
4.02

>  <Lipinski>
1

>  <GhoseFilter>
1

>  <FilterItLogS>
-1.91

>  <VMcGowan>
138.67

>  <LabuteASA>
77.39

>  <PEOE_VSA1>
4.9

>  <PEOE_VSA2>
9.78

>  <PEOE_VSA3>
0

>  <PEOE_VSA4>
0

>  <PEOE_VSA5>
0

>  <PEOE_VSA6>
6.07

>  <PEOE_VSA7>
18.05

>  <PEOE_VSA8>
25.86

>  <PEOE_VSA9>
6.04

>  <PEOE_VSA10>
0

>  <PEOE_VSA11>
0

>  <PEOE_VSA12>
5.91

>  <PEOE_VSA13>
0

>  <SMR_VSA1>
4.79

>  <SMR_VSA2>
0

>  <SMR_VSA3>
9.88

>  <SMR_VSA4>
0

>  <SMR_VSA5>
18.88

>  <SMR_VSA6>
7.05

>  <SMR_VSA7>
30.09

>  <SMR_VSA8>
0

>  <SMR_VSA9>
0

>  <SlogP_VSA1>
0

>  <SlogP_VSA2>
22.84

>  <SlogP_VSA3>
4.79

>  <SlogP_VSA4>
0

>  <SlogP_VSA5>
24.45

>  <SlogP_VSA6>
24.53

>  <SlogP_VSA7>
0

>  <SlogP_VSA8>
0

>  <SlogP_VSA9>
0

>  <SlogP_VSA10>
0

>  <SlogP_VSA11>
0

>  <EState_VSA1>
0

>  <EState_VSA2>
11.95

>  <EState_VSA3>
6.42

>  <EState_VSA4>
11.98

>  <EState_VSA5>
0

>  <EState_VSA6>
11.1

>  <EState_VSA7>
25.38

>  <EState_VSA8>
4.98

>  <EState_VSA9>
0

>  <EState_VSA10>
4.79

>  <VSA_EState1>
0

>  <VSA_EState2>
17.12

>  <VSA_EState3>
0

>  <VSA_EState4>
1.14

>  <VSA_EState5>
0.23

>  <VSA_EState6>
4.17

>  <VSA_EState7>
5.16

>  <VSA_EState8>
0

>  <VSA_EState9>
1.85

>  <apol>
27.7

>  <bpol>
15.76

>  <nRing>
2

>  <nHRing>
2

>  <naRing>
1

>  <naHRing>
1

>  <nARing 2>
1

>  <nAHRing 2>
1

>  <nFRing>
0

>  <nFHRing>
0

>  <nFaRing>
0

>  <nFaHRing>
0

>  <nFARing 2>
0

>  <nFAHRing 2>
0

>  <nRot>
1

>  <SLogP>
1.37

>  <SMR>
48.98

>  <TopoPSA(NO)>
33.2

>  <TopoPSA>
33.2

>  <JGI1>
0.14

>  <JGI2>
0.09

>  <JGI3>
0.06

>  <JGI4>
0.04

>  <JGI5>
0.03

>  <Diameter>
7

>  <Radius>
4

>  <TMWC10>
95.67

>  <TSRW10>
58.14

>  <MW>
176.09

>  <AMW>
7.04

>  <WPath>
238

>  <WPol>
17

>  <Zagreb1>
66

>  <Zagreb2>
77

>  <mZagreb2>
2.92

>  <yes>


>  <nAR-cont>
0.816016

>  <nHA-cont>
0.841215992

>  <MWHBN>
0.150717142

>  <MWHBN-cont>
0.934362782

>  <TPSA-cont>
0.768243384

>  <pka_cont>
0.97

>  <yes.1>


>  <BBB_SCORE>
5.080262933

>  <MMFF94 Energy>
0.033059

$$$$
Compound 230
Actelion Java MolfileCreator 2.0

  0  0  0  0  0  0              0 V3000
M  V30 BEGIN CTAB
M  V30 COUNTS 58 62 0 0 0
M  V30 BEGIN ATOM
M  V30 1 F -6.8316 5.221 -4.4164 0
M  V30 2 C -5.9905 4.3958 -3.7776 0
M  V30 3 C -4.962 4.9405 -3.0139 0
M  V30 4 C -6.1745 3.0206 -3.8999 0
M  V30 5 C -4.128 4.0252 -2.3795 0
M  V30 6 C -5.3155 2.1255 -3.2469 0
M  V30 7 O -3.0688 4.3456 -1.592 0
M  V30 8 C -4.2632 2.6432 -2.4644 0
M  V30 9 C -2.5203 3.1797 -1.1694 0
M  V30 10 C -3.2068 2.087 -1.6671 0
M  V30 11 C -2.929 0.6198 -1.4426 0
M  V30 12 C -1.627 0.1449 -2.1013 0
M  V30 13 C -2.9991 0.2035 0.0333 0
M  V30 14 C -0.3908 0.4091 -1.2417 0
M  V30 15 C -1.6888 0.4171 0.797 0
M  V30 16 N -0.4952 -0.1138 0.1263 0
M  V30 17 C -0.3959 -1.5844 0.1714 0
M  V30 18 C 0.1115 -2.1158 1.5275 0
M  V30 19 C 1.5584 -1.7756 1.7982 0
M  V30 20 C 2.5596 -2.6092 1.0768 0
M  V30 21 C 2.0364 -0.8222 2.6185 0
M  V30 22 O 2.1872 -3.4769 0.2861 0
M  V30 23 N 3.8906 -2.3449 1.3385 0
M  V30 24 N 3.3751 -0.5958 2.8188 0
M  V30 25 C 1.1694 0.1209 3.4125 0
M  V30 26 C 4.2349 -1.3277 2.1896 0
M  V30 27 C 4.8723 -3.0974 0.5662 0
M  V30 28 C 5.7018 -1.0696 2.4809 0
M  V30 29 C 6.2879 -3.0381 1.1132 0
M  V30 30 C 6.6457 -1.5971 1.4192 0
M  V30 31 H -4.8203 6.0084 -2.9204 0
M  V30 32 H -6.9931 2.6471 -4.5088 0
M  V30 33 H -5.4656 1.055 -3.348 0
M  V30 34 H -1.6562 3.2941 -0.5294 0
M  V30 35 H -3.7424 0.0801 -1.948 0
M  V30 36 H -1.4962 0.6148 -3.084 0
M  V30 37 H -1.702 -0.9347 -2.2861 0
M  V30 38 H -3.2614 -0.8611 0.0801 0
M  V30 39 H -3.8101 0.7351 0.5472 0
M  V30 40 H -0.1983 1.487 -1.1897 0
M  V30 41 H 0.4954 -0.0058 -1.738 0
M  V30 42 H -1.7924 -0.0087 1.8009 0
M  V30 43 H -1.5367 1.489 0.968 0
M  V30 44 H 0.295 -1.9313 -0.607 0
M  V30 45 H -1.3583 -2.0553 -0.0597 0
M  V30 46 H -0.5418 -1.787 2.3406 0
M  V30 47 H 0.0015 -3.2088 1.5309 0
M  V30 48 H 1.3747 1.1554 3.1156 0
M  V30 49 H 0.0988 -0.0446 3.2899 0
M  V30 50 H 1.3917 0.0224 4.4809 0
M  V30 51 H 4.5534 -4.1439 0.4913 0
M  V30 52 H 4.8498 -2.6887 -0.4523 0
M  V30 53 H 5.8546 0.0079 2.6123 0
M  V30 54 H 5.924 -1.542 3.4463 0
M  V30 55 H 6.3624 -3.6429 2.0254 0
M  V30 56 H 6.988 -3.4607 0.3845 0
M  V30 57 H 7.6805 -1.5293 1.772 0
M  V30 58 H 6.5691 -0.9892 0.5095 0
M  V30 END ATOM
M  V30 BEGIN BOND
M  V30 1 1 1 2
M  V30 2 2 2 3
M  V30 3 1 2 4
M  V30 4 1 3 5
M  V30 5 2 4 6
M  V30 6 1 5 7
M  V30 7 2 5 8
M  V30 8 1 7 9
M  V30 9 1 8 10
M  V30 10 1 10 11
M  V30 11 1 11 12
M  V30 12 1 11 13
M  V30 13 1 12 14
M  V30 14 1 13 15
M  V30 15 1 14 16
M  V30 16 1 16 17
M  V30 17 1 17 18
M  V30 18 1 18 19
M  V30 19 1 19 20
M  V30 20 2 19 21
M  V30 21 2 20 22
M  V30 22 1 20 23
M  V30 23 1 21 24
M  V30 24 1 21 25
M  V30 25 1 23 26
M  V30 26 1 23 27
M  V30 27 1 26 28
M  V30 28 1 27 29
M  V30 29 1 28 30
M  V30 30 1 6 8
M  V30 31 2 9 10
M  V30 32 1 15 16
M  V30 33 2 24 26
M  V30 34 1 29 30
M  V30 35 1 3 31
M  V30 36 1 4 32
M  V30 37 1 6 33
M  V30 38 1 9 34
M  V30 39 1 11 35
M  V30 40 1 12 36
M  V30 41 1 12 37
M  V30 42 1 13 38
M  V30 43 1 13 39
M  V30 44 1 14 40
M  V30 45 1 14 41
M  V30 46 1 15 42
M  V30 47 1 15 43
M  V30 48 1 17 44
M  V30 49 1 17 45
M  V30 50 1 18 46
M  V30 51 1 18 47
M  V30 52 1 25 48
M  V30 53 1 25 49
M  V30 54 1 25 50
M  V30 55 1 27 51
M  V30 56 1 27 52
M  V30 57 1 28 53
M  V30 58 1 28 54
M  V30 59 1 29 55
M  V30 60 1 29 56
M  V30 61 1 30 57
M  V30 62 1 30 58
M  V30 END BOND
M  V30 END CTAB
M  END
>  <Column 1>
293

>  <level_0>
334

>  <index>
334

>  <Unnamed: 0>
334

>  <NO.>
335

>  <Name>
risperidone

>  <IUPAC_name>


>  <SMILES>
Cc1nc2n(c(=O)c1CCN1CCC(c3coc4cc(F)ccc34)CC1)CCCC2

>  <CID>


>  <logBB>
-0.32

>  <BBB+/BBB->
BBB+

>  <Inchi>
InChI=1S/C24H28FN3O2/c1-16-19(24(29)28-10-3-2-4-23(28)26-16)9-13-27-11-7-17(8-12-27)21-15-30-22-14-18(25)5-6-20(21)22/h5-6-14-15-17H-2-4-7-13H2-1H3

>  <threshold>


>  <reference>
R18|R26|R27|

>  <group>
A

>  <Class>
1

>  <ABC>
24.09

>  <ABCGG>
17.17

>  <nAcid>
0

>  <nBase>
1

>  <nAromAtom>
15

>  <nAromBond>
16

>  <nAtom>
58

>  <nHeavyAtom>
30

>  <nSpiro>
0

>  <nBridgehead>
0

>  <nHetero>
6

>  <nN>
3

>  <nO>
2

>  <nF>
1

>  <BalabanJ>
1.08

>  <BertzCT>
1125.42

>  <nBonds>
62

>  <nBondsO>
34

>  <nBondsS>
45

>  <nBondsD>
1

>  <nBondsT>
0

>  <nBondsA>
16

>  <nBondsM>
17

>  <nBondsKS>
55

>  <nBondsKD>
7

>  <RNCG>
0.23

>  <RPCG>
0.13

>  <FCSP3>
0.5

>  <SZ>
36.33

>  <Sm>
34.09

>  <Sv>
35.94

>  <Sse>
58.04

>  <Sp>
38.45

>  <Si>
65.65

>  <MZ>
0.63

>  <Mm>
0.59

>  <Mv>
0.62

>  <Mse>
1

>  <Mp>
0.66

>  <Mi>
1.13

>  <NsCH3>
1

>  <NdCH2>
0

>  <NssCH2>
10

>  <NtCH>
0

>  <NdsCH>
0

>  <NaaCH>
4

>  <NsssCH>
1

>  <NddC>
0

>  <NtsC>
0

>  <NdssC>
0

>  <NaasC>
5

>  <NaaaC>
2

>  <NssssC>
0

>  <NsNH3>
0

>  <NsNH2>
0

>  <NssNH2>
0

>  <NdNH>
0

>  <NssNH>
0

>  <NaaNH>
0

>  <NtN>
0

>  <NsssNH>
0

>  <NdsN>
0

>  <NaaN>
1

>  <NsssN>
1

>  <NddsN>
0

>  <NaasN>
1

>  <NssssN>
0

>  <NsOH>
0

>  <NdO>
1

>  <NssO>
0

>  <NaaO>
1

>  <NsF>
1

>  <NsSiH3>
0

>  <NssSiH2>
0

>  <NsssSiH>
0

>  <NssssSi>
0

>  <NsPH2>
0

>  <NssPH>
0

>  <NsssP>
0

>  <NdsssP>
0

>  <NsssssP>
0

>  <NsSH>
0

>  <NdS>
0

>  <NssS>
0

>  <NaaS>
0

>  <NdssS>
0

>  <NddssS>
0

>  <NsCl>
0

>  <NsBr>
0

>  <NsI>
0

>  <fragCpx>
286.06

>  <fMF>
0.47

>  <nHBAcc>
5

>  <nHBDon>
0

>  <Kier1>
21.83

>  <Kier2>
9.47

>  <Lipinski>
1

>  <GhoseFilter>
1

>  <FilterItLogS>
-6.53

>  <VMcGowan>
308.06

>  <LabuteASA>
175.07

>  <PEOE_VSA1>
9.32

>  <PEOE_VSA2>
9.36

>  <PEOE_VSA3>
9.37

>  <PEOE_VSA4>
0

>  <PEOE_VSA5>
0

>  <PEOE_VSA6>
0

>  <PEOE_VSA7>
70.17

>  <PEOE_VSA8>
47.78

>  <PEOE_VSA9>
6.26

>  <PEOE_VSA10>
17.22

>  <PEOE_VSA11>
0

>  <PEOE_VSA12>
0

>  <PEOE_VSA13>
5.56

>  <SMR_VSA1>
8.81

>  <SMR_VSA2>
0

>  <SMR_VSA3>
14.45

>  <SMR_VSA4>
0

>  <SMR_VSA5>
57.91

>  <SMR_VSA6>
19.63

>  <SMR_VSA7>
63.28

>  <SMR_VSA8>
0

>  <SMR_VSA9>
0

>  <SlogP_VSA1>
5.56

>  <SlogP_VSA2>
34.09

>  <SlogP_VSA3>
19.39

>  <SlogP_VSA4>
12.74

>  <SlogP_VSA5>
54.25

>  <SlogP_VSA6>
33.67

>  <SlogP_VSA7>
0

>  <SlogP_VSA8>
10.97

>  <SlogP_VSA9>
0

>  <SlogP_VSA10>
4.39

>  <SlogP_VSA11>
0

>  <EState_VSA1>
0

>  <EState_VSA2>
11.38

>  <EState_VSA3>
11.5

>  <EState_VSA4>
87.17

>  <EState_VSA5>
17.7

>  <EState_VSA6>
6.26

>  <EState_VSA7>
17.56

>  <EState_VSA8>
4.9

>  <EState_VSA9>
9.4

>  <EState_VSA10>
9.18

>  <VSA_EState1>
20.9

>  <VSA_EState2>
20.1

>  <VSA_EState3>
1.03

>  <VSA_EState4>
3.77

>  <VSA_EState5>
1.13

>  <VSA_EState6>
4.79

>  <VSA_EState7>
7.77

>  <VSA_EState8>
5.67

>  <VSA_EState9>
0

>  <apol>
64.21

>  <bpol>
36.37

>  <nRing>
5

>  <nHRing>
4

>  <naRing>
3

>  <naHRing>
2

>  <nARing 2>
2

>  <nAHRing 2>
2

>  <nFRing>
2

>  <nFHRing>
2

>  <nFaRing>
1

>  <nFaHRing>
1

>  <nFARing 2>
1

>  <nFAHRing 2>
1

>  <nRot>
4

>  <SLogP>
4.2

>  <SMR>
114.46

>  <TopoPSA(NO)>
51.27

>  <TopoPSA>
51.27

>  <JGI1>
0.16

>  <JGI2>
0.08

>  <JGI3>
0.05

>  <JGI4>
0.04

>  <JGI5>
0.03

>  <Diameter>
17

>  <Radius>
9

>  <TMWC10>
142.11

>  <TSRW10>
80.13

>  <MW>
409.22

>  <AMW>
7.06

>  <WPath>
2793

>  <WPol>
51

>  <Zagreb1>
166

>  <Zagreb2>
200

>  <mZagreb2>
6.44

>  <yes>


>  <nAR-cont>
1

>  <nHA-cont>
0.74523694

>  <MWHBN>
0.247167622

>  <MWHBN-cont>
0.964411068

>  <TPSA-cont>
0.642103563

>  <pka_cont>
0.97

>  <yes.1>


>  <BBB_SCORE>
4.961060668

>  <MMFF94 Energy>
-18.044

$$$$
Compound 231
Actelion Java MolfileCreator 2.0

  0  0  0  0  0  0              0 V3000
M  V30 BEGIN CTAB
M  V30 COUNTS 42 45 0 0 0
M  V30 BEGIN ATOM
M  V30 1 O -0.3214 -3.3794 -2.735 0
M  V30 2 C -0.137 -2.5453 -1.852 0
M  V30 3 N 0.8172 -1.5388 -1.9108 0
M  V30 4 C -0.9685 -2.582 -0.6302 0
M  V30 5 N 1.0422 -0.6207 -0.9048 0
M  V30 6 C 1.6212 -1.4055 -3.1127 0
M  V30 7 C -0.7945 -1.6864 0.3437 0
M  V30 8 C 0.267 -0.6881 0.1283 0
M  V30 9 C 0.8062 -0.7557 -4.2265 0
M  V30 10 C 0.4398 0.2678 1.1979 0
M  V30 11 O -0.0429 0.1154 -4.0285 0
M  V30 12 C 1.1391 -1.1968 -5.6282 0
M  V30 13 C -0.5273 1.0976 1.8426 0
M  V30 14 C 1.6327 0.5857 1.8183 0
M  V30 15 N 0.0164 1.7946 2.8506 0
M  V30 16 C -1.9491 1.2459 1.5272 0
M  V30 17 N 1.3392 1.5144 2.815 0
M  V30 18 C 2.9916 0.1756 1.6683 0
M  V30 19 C -2.8992 1.2773 2.5574 0
M  V30 20 C -2.3813 1.3618 0.1982 0
M  V30 21 C 2.3268 2.0396 3.6516 0
M  V30 22 C 3.9357 0.6892 2.4795 0
M  V30 23 C -4.2591 1.3981 2.263 0
M  V30 24 C -3.7421 1.4814 -0.0938 0
M  V30 25 C 3.6058 1.6553 3.5122 0
M  V30 26 C -4.6797 1.4957 0.9376 0
M  V30 27 H -1.7174 -3.3613 -0.5769 0
M  V30 28 H 2.509 -0.7969 -2.9145 0
M  V30 29 H 1.9362 -2.4037 -3.4347 0
M  V30 30 H -1.3831 -1.691 1.2505 0
M  V30 31 H 0.5042 -0.666 -6.3432 0
M  V30 32 H 2.1854 -0.9678 -5.8444 0
M  V30 33 H 0.9579 -2.2699 -5.7274 0
M  V30 34 H 3.2543 -0.5394 0.8942 0
M  V30 35 H -2.5806 1.2114 3.5959 0
M  V30 36 H -1.6673 1.3776 -0.6236 0
M  V30 37 H 1.9916 2.7531 4.3921 0
M  V30 38 H 4.9757 0.3938 2.3754 0
M  V30 39 H -4.988 1.4233 3.069 0
M  V30 40 H -4.0673 1.5733 -1.1275 0
M  V30 41 H 4.3949 2.046 4.1449 0
M  V30 42 H -5.7378 1.5953 0.7086 0
M  V30 END ATOM
M  V30 BEGIN BOND
M  V30 1 2 1 2
M  V30 2 1 2 3
M  V30 3 1 2 4
M  V30 4 1 3 5
M  V30 5 1 3 6
M  V30 6 2 4 7
M  V30 7 2 5 8
M  V30 8 1 6 9
M  V30 9 1 8 10
M  V30 10 2 9 11
M  V30 11 1 9 12
M  V30 12 1 10 13
M  V30 13 2 10 14
M  V30 14 2 13 15
M  V30 15 1 13 16
M  V30 16 1 14 17
M  V30 17 1 14 18
M  V30 18 2 16 19
M  V30 19 1 16 20
M  V30 20 1 17 21
M  V30 21 2 18 22
M  V30 22 1 19 23
M  V30 23 2 20 24
M  V30 24 2 21 25
M  V30 25 2 23 26
M  V30 26 1 7 8
M  V30 27 1 15 17
M  V30 28 1 22 25
M  V30 29 1 24 26
M  V30 30 1 4 27
M  V30 31 1 6 28
M  V30 32 1 6 29
M  V30 33 1 7 30
M  V30 34 1 12 31
M  V30 35 1 12 32
M  V30 36 1 12 33
M  V30 37 1 18 34
M  V30 38 1 19 35
M  V30 39 1 20 36
M  V30 40 1 21 37
M  V30 41 1 22 38
M  V30 42 1 23 39
M  V30 43 1 24 40
M  V30 44 1 25 41
M  V30 45 1 26 42
M  V30 END BOND
M  V30 END CTAB
M  END
>  <Column 1>
294

>  <level_0>
335

>  <index>
335

>  <Unnamed: 0>
335

>  <NO.>
336

>  <Name>
schembl8639797

>  <IUPAC_name>
2-(2-oxopropyl)-6-(2-phenylpyrazolo[1-5-a]pyridin-3-yl)pyridazin-3-one

>  <SMILES>
CC(=O)Cn1nc(-c2c(-c3ccccc3)nn3ccccc23)ccc1=O

>  <CID>
11110698

>  <logBB>
-0.31

>  <BBB+/BBB->
BBB+

>  <Inchi>
InChI=1S/C20H16N4O2/c1-14(25)13-24-18(26)11-10-16(21-24)19-17-9-5-6-12-23(17)22-20(19)15-7-3-2-4-8-15/h2-12H-13H2-1H3

>  <threshold>


>  <reference>
R2|R2|R4|R8|R27|R40|R47|

>  <group>
A

>  <Class>
1

>  <ABC>
20.59

>  <ABCGG>
16.41

>  <nAcid>
0

>  <nBase>
0

>  <nAromAtom>
21

>  <nAromBond>
22

>  <nAtom>
42

>  <nHeavyAtom>
26

>  <nSpiro>
0

>  <nBridgehead>
0

>  <nHetero>
6

>  <nN>
4

>  <nO>
2

>  <nF>
0

>  <BalabanJ>
1.51

>  <BertzCT>
1159.37

>  <nBonds>
45

>  <nBondsO>
29

>  <nBondsS>
21

>  <nBondsD>
2

>  <nBondsT>
0

>  <nBondsA>
22

>  <nBondsM>
24

>  <nBondsKS>
34

>  <nBondsKD>
11

>  <RNCG>
0.16

>  <RPCG>
0.15

>  <FCSP3>
0.1

>  <SZ>
30

>  <Sm>
28.67

>  <Sv>
28.8

>  <Sse>
42.42

>  <Sp>
29.98

>  <Si>
46.9

>  <MZ>
0.71

>  <Mm>
0.68

>  <Mv>
0.69

>  <Mse>
1.01

>  <Mp>
0.71

>  <Mi>
1.12

>  <NsCH3>
1

>  <NdCH2>
0

>  <NssCH2>
1

>  <NtCH>
0

>  <NdsCH>
0

>  <NaaCH>
11

>  <NsssCH>
0

>  <NddC>
0

>  <NtsC>
0

>  <NdssC>
1

>  <NaasC>
4

>  <NaaaC>
1

>  <NssssC>
0

>  <NsNH3>
0

>  <NsNH2>
0

>  <NssNH2>
0

>  <NdNH>
0

>  <NssNH>
0

>  <NaaNH>
0

>  <NtN>
0

>  <NsssNH>
0

>  <NdsN>
0

>  <NaaN>
2

>  <NsssN>
0

>  <NddsN>
0

>  <NaasN>
2

>  <NssssN>
0

>  <NsOH>
0

>  <NdO>
2

>  <NssO>
0

>  <NaaO>
0

>  <NsF>
0

>  <NsSiH3>
0

>  <NssSiH2>
0

>  <NsssSiH>
0

>  <NssssSi>
0

>  <NsPH2>
0

>  <NssPH>
0

>  <NsssP>
0

>  <NdsssP>
0

>  <NsssssP>
0

>  <NsSH>
0

>  <NdS>
0

>  <NssS>
0

>  <NaaS>
0

>  <NdssS>
0

>  <NddssS>
0

>  <NsCl>
0

>  <NsBr>
0

>  <NsI>
0

>  <fragCpx>
191.06

>  <fMF>
0.5

>  <nHBAcc>
6

>  <nHBDon>
0

>  <Kier1>
19.32

>  <Kier2>
8.57

>  <Lipinski>
1

>  <GhoseFilter>
1

>  <FilterItLogS>
-4.5

>  <VMcGowan>
253.58

>  <LabuteASA>
148.89

>  <PEOE_VSA1>
0

>  <PEOE_VSA2>
9.59

>  <PEOE_VSA3>
9.2

>  <PEOE_VSA4>
10.2

>  <PEOE_VSA5>
0

>  <PEOE_VSA6>
36.4

>  <PEOE_VSA7>
25.12

>  <PEOE_VSA8>
17.83

>  <PEOE_VSA9>
16.77

>  <PEOE_VSA10>
12.24

>  <PEOE_VSA11>
5.78

>  <PEOE_VSA12>
0

>  <PEOE_VSA13>
5.56

>  <SMR_VSA1>
4.79

>  <SMR_VSA2>
0

>  <SMR_VSA3>
19.39

>  <SMR_VSA4>
0

>  <SMR_VSA5>
13.47

>  <SMR_VSA6>
0

>  <SMR_VSA7>
77.21

>  <SMR_VSA8>
0

>  <SMR_VSA9>
22.51

>  <SlogP_VSA1>
5.56

>  <SlogP_VSA2>
25.18

>  <SlogP_VSA3>
11.34

>  <SlogP_VSA4>
0

>  <SlogP_VSA5>
6.92

>  <SlogP_VSA6>
71.66

>  <SlogP_VSA7>
0

>  <SlogP_VSA8>
28.03

>  <SlogP_VSA9>
0

>  <SlogP_VSA10>
0

>  <SlogP_VSA11>
0

>  <EState_VSA1>
0

>  <EState_VSA2>
17.89

>  <EState_VSA3>
5.69

>  <EState_VSA4>
22.34

>  <EState_VSA5>
17.67

>  <EState_VSA6>
10.58

>  <EState_VSA7>
54.73

>  <EState_VSA8>
5.1

>  <EState_VSA9>
5.1

>  <EState_VSA10>
9.59

>  <VSA_EState1>
2.98

>  <VSA_EState2>
23.47

>  <VSA_EState3>
9.12

>  <VSA_EState4>
3.74

>  <VSA_EState5>
-0.13

>  <VSA_EState6>
18.72

>  <VSA_EState7>
1.87

>  <VSA_EState8>
1.39

>  <VSA_EState9>
0

>  <apol>
50.07

>  <bpol>
21.21

>  <nRing>
4

>  <nHRing>
3

>  <naRing>
4

>  <naHRing>
3

>  <nARing 2>
0

>  <nAHRing 2>
0

>  <nFRing>
1

>  <nFHRing>
1

>  <nFaRing>
1

>  <nFaHRing>
1

>  <nFARing 2>
0

>  <nFAHRing 2>
0

>  <nRot>
4

>  <SLogP>
2.81

>  <SMR>
98.8

>  <TopoPSA(NO)>
69.26

>  <TopoPSA>
69.26

>  <JGI1>
0.16

>  <JGI2>
0.07

>  <JGI3>
0.05

>  <JGI4>
0.04

>  <JGI5>
0.02

>  <Diameter>
11

>  <Radius>
6

>  <TMWC10>
131.8

>  <TSRW10>
75.54

>  <MW>
344.13

>  <AMW>
8.19

>  <WPath>
1563

>  <WPol>
42

>  <Zagreb1>
140

>  <Zagreb2>
167

>  <mZagreb2>
5.67

>  <yes>


>  <nAR-cont>
0.336376

>  <nHA-cont>
0.892715677

>  <MWHBN>
0.323437211

>  <MWHBN-cont>
0.765538172

>  <TPSA-cont>
0.516522192

>  <pka_cont>
0.97

>  <yes.1>


>  <BBB_SCORE>
3.89544332

>  <MMFF94 Energy>
99.057

$$$$
Compound 232
Actelion Java MolfileCreator 2.0

  0  0  0  0  0  0              0 V3000
M  V30 BEGIN CTAB
M  V30 COUNTS 20 20 0 0 0
M  V30 BEGIN ATOM
M  V30 1 O -1.3997 -1.1663 2.1001 0
M  V30 2 C -1.8163 -1.2177 0.949 0
M  V30 3 N -1.2298 -0.6711 -0.1785 0
M  V30 4 C -3.1027 -1.9331 0.6207 0
M  V30 5 C -0.0284 0.0627 -0.2522 0
M  V30 6 C 0.7771 0.356 0.851 0
M  V30 7 C 0.3658 0.5178 -1.518 0
M  V30 8 C 1.9578 1.0916 0.6955 0
M  V30 9 C 1.5439 1.2521 -1.6756 0
M  V30 10 C 2.3307 1.5334 -0.5677 0
M  V30 11 O 3.4718 2.252 -0.7627 0
M  V30 12 H -1.7161 -0.8117 -1.0549 0
M  V30 13 H -3.8153 -1.2311 0.1784 0
M  V30 14 H -3.537 -2.3512 1.5331 0
M  V30 15 H -2.9056 -2.7467 -0.0829 0
M  V30 16 H 0.5149 0.0261 1.8515 0
M  V30 17 H -0.2343 0.3096 -2.3994 0
M  V30 18 H 2.5635 1.3043 1.5708 0
M  V30 19 H 1.845 1.6025 -2.6586 0
M  V30 20 H 3.9127 2.3688 0.095 0
M  V30 END ATOM
M  V30 BEGIN BOND
M  V30 1 2 1 2
M  V30 2 1 2 3
M  V30 3 1 2 4
M  V30 4 1 3 5
M  V30 5 2 5 6
M  V30 6 1 5 7
M  V30 7 1 6 8
M  V30 8 2 7 9
M  V30 9 2 8 10
M  V30 10 1 10 11
M  V30 11 1 9 10
M  V30 12 1 3 12
M  V30 13 1 4 13
M  V30 14 1 4 14
M  V30 15 1 4 15
M  V30 16 1 6 16
M  V30 17 1 7 17
M  V30 18 1 8 18
M  V30 19 1 9 19
M  V30 20 1 11 20
M  V30 END BOND
M  V30 END CTAB
M  END
>  <Column 1>
295

>  <level_0>
336

>  <index>
336

>  <Unnamed: 0>
336

>  <NO.>
337

>  <Name>
acetaminophen (p-acetamidophenol)

>  <IUPAC_name>
n-(4-hydroxyphenyl)acetamide

>  <SMILES>
CC(=O)Nc1ccc(O)cc1

>  <CID>
1983

>  <logBB>
-0.3

>  <BBB+/BBB->
BBB+

>  <Inchi>
InChI=1S/C8H9NO2/c1-6(10)9-7-2-4-8(11)5-3-7/h2-5-11H-1H3-(H-9-10)

>  <threshold>


>  <reference>
R4|R40|R50|R18|R26|R27|R8|R21|R27|R2|R2|R3|R27|R38|R41|R47|R12|R17|R25|R35|R36|R39|R43|R46|R48|R49|R49|R5|R42|R44|

>  <group>
A

>  <Class>
1

>  <ABC>
8.11

>  <ABCGG>
7.43

>  <nAcid>
0

>  <nBase>
0

>  <nAromAtom>
6

>  <nAromBond>
6

>  <nAtom>
20

>  <nHeavyAtom>
11

>  <nSpiro>
0

>  <nBridgehead>
0

>  <nHetero>
3

>  <nN>
1

>  <nO>
2

>  <nF>
0

>  <BalabanJ>
2.17

>  <BertzCT>
253.3

>  <nBonds>
20

>  <nBondsO>
11

>  <nBondsS>
13

>  <nBondsD>
1

>  <nBondsT>
0

>  <nBondsA>
6

>  <nBondsM>
7

>  <nBondsKS>
16

>  <nBondsKD>
4

>  <RNCG>
0.42

>  <RPCG>
0.24

>  <FCSP3>
0.13

>  <SZ>
13.33

>  <Sm>
12.59

>  <Sv>
12.63

>  <Sse>
20.32

>  <Sp>
13.21

>  <Si>
22.58

>  <MZ>
0.67

>  <Mm>
0.63

>  <Mv>
0.63

>  <Mse>
1.02

>  <Mp>
0.66

>  <Mi>
1.13

>  <NsCH3>
1

>  <NdCH2>
0

>  <NssCH2>
0

>  <NtCH>
0

>  <NdsCH>
0

>  <NaaCH>
4

>  <NsssCH>
0

>  <NddC>
0

>  <NtsC>
0

>  <NdssC>
1

>  <NaasC>
2

>  <NaaaC>
0

>  <NssssC>
0

>  <NsNH3>
0

>  <NsNH2>
0

>  <NssNH2>
0

>  <NdNH>
0

>  <NssNH>
1

>  <NaaNH>
0

>  <NtN>
0

>  <NsssNH>
0

>  <NdsN>
0

>  <NaaN>
0

>  <NsssN>
0

>  <NddsN>
0

>  <NaasN>
0

>  <NssssN>
0

>  <NsOH>
1

>  <NdO>
1

>  <NssO>
0

>  <NaaO>
0

>  <NsF>
0

>  <NsSiH3>
0

>  <NssSiH2>
0

>  <NsssSiH>
0

>  <NssssSi>
0

>  <NsPH2>
0

>  <NssPH>
0

>  <NsssP>
0

>  <NdsssP>
0

>  <NsssssP>
0

>  <NsSH>
0

>  <NdS>
0

>  <NssS>
0

>  <NaaS>
0

>  <NdssS>
0

>  <NddssS>
0

>  <NsCl>
0

>  <NsBr>
0

>  <NsI>
0

>  <fragCpx>
11.03

>  <fMF>
0.3

>  <nHBAcc>
2

>  <nHBDon>
2

>  <Kier1>
9.09

>  <Kier2>
4.13

>  <Lipinski>
1

>  <GhoseFilter>
0

>  <FilterItLogS>
-1.59

>  <VMcGowan>
117.24

>  <LabuteASA>
64.67

>  <PEOE_VSA1>
10.42

>  <PEOE_VSA2>
4.79

>  <PEOE_VSA3>
0

>  <PEOE_VSA4>
0

>  <PEOE_VSA5>
0

>  <PEOE_VSA6>
0

>  <PEOE_VSA7>
24.27

>  <PEOE_VSA8>
12.61

>  <PEOE_VSA9>
0

>  <PEOE_VSA10>
5.75

>  <PEOE_VSA11>
0

>  <PEOE_VSA12>
5.91

>  <PEOE_VSA13>
0

>  <SMR_VSA1>
9.9

>  <SMR_VSA2>
0

>  <SMR_VSA3>
0

>  <SMR_VSA4>
0

>  <SMR_VSA5>
6.92

>  <SMR_VSA6>
5.32

>  <SMR_VSA7>
24.27

>  <SMR_VSA8>
0

>  <SMR_VSA9>
5.75

>  <SlogP_VSA1>
5.32

>  <SlogP_VSA2>
11.01

>  <SlogP_VSA3>
4.79

>  <SlogP_VSA4>
0

>  <SlogP_VSA5>
6.92

>  <SlogP_VSA6>
24.27

>  <SlogP_VSA7>
0

>  <SlogP_VSA8>
0

>  <SlogP_VSA9>
0

>  <SlogP_VSA10>
5.69

>  <SlogP_VSA11>
5.75

>  <EState_VSA1>
0

>  <EState_VSA2>
11.66

>  <EState_VSA3>
5.69

>  <EState_VSA4>
0

>  <EState_VSA5>
19.06

>  <EState_VSA6>
12.13

>  <EState_VSA7>
0

>  <EState_VSA8>
5.32

>  <EState_VSA9>
5.11

>  <EState_VSA10>
4.79

>  <VSA_EState1>
0

>  <VSA_EState2>
10.52

>  <VSA_EState3>
11.46

>  <VSA_EState4>
0.69

>  <VSA_EState5>
0.08

>  <VSA_EState6>
6.31

>  <VSA_EState7>
0

>  <VSA_EState8>
1.44

>  <VSA_EState9>
0

>  <apol>
22.07

>  <bpol>
10.47

>  <nRing>
1

>  <nHRing>
0

>  <naRing>
1

>  <naHRing>
0

>  <nARing 2>
0

>  <nAHRing 2>
0

>  <nFRing>
0

>  <nFHRing>
0

>  <nFaRing>
0

>  <nFaHRing>
0

>  <nFARing 2>
0

>  <nFAHRing 2>
0

>  <nRot>
1

>  <SLogP>
1.35

>  <SMR>
42.41

>  <TopoPSA(NO)>
49.33

>  <TopoPSA>
49.33

>  <JGI1>
0.27

>  <JGI2>
0.06

>  <JGI3>
0.05

>  <JGI4>
0.06

>  <JGI5>
0.03

>  <Diameter>
7

>  <Radius>
4

>  <TMWC10>
85.58

>  <TSRW10>
40.34

>  <MW>
151.06

>  <AMW>
7.55

>  <WPath>
166

>  <WPol>
11

>  <Zagreb1>
50

>  <Zagreb2>
53

>  <mZagreb2>
2.5

>  <yes>


>  <nAR-cont>
0.336376

>  <nHA-cont>
0.720786536

>  <MWHBN>
0.325450731

>  <MWHBN-cont>
0.758642971

>  <TPSA-cont>
0.655645968

>  <pka_cont>
0.97

>  <yes.1>


>  <BBB_SCORE>
3.991418929

>  <MMFF94 Energy>
-12.32

$$$$
Compound 233
Actelion Java MolfileCreator 2.0

  0  0  0  0  0  0              0 V3000
M  V30 BEGIN CTAB
M  V30 COUNTS 22 22 0 0 0
M  V30 BEGIN ATOM
M  V30 1 N -1.1624 1.6276 0.1549 0
M  V30 2 C -0.2364 0.9692 -0.5842 0
M  V30 3 C -0.92 2.9259 0.4404 0
M  V30 4 C 0.933 1.5785 -1.0326 0
M  V30 5 C -0.507 -0.4826 -0.8835 0
M  V30 6 C 0.2123 3.6072 0.0293 0
M  V30 7 C 1.1558 2.9166 -0.7206 0
M  V30 8 C -0.0549 -1.3737 0.2769 0
M  V30 9 N -0.2932 -2.7892 -0.0379 0
M  V30 10 C 0.136 -3.6427 1.0627 0
M  V30 11 H -1.6871 3.4202 1.0295 0
M  V30 12 H 1.6616 1.0241 -1.6154 0
M  V30 13 H -0.001 -0.7718 -1.8131 0
M  V30 14 H -1.5824 -0.6107 -1.0616 0
M  V30 15 H 0.3555 4.65 0.288 0
M  V30 16 H 2.0587 3.4153 -1.0607 0
M  V30 17 H -0.596 -1.0954 1.1903 0
M  V30 18 H 1.0143 -1.2142 0.4644 0
M  V30 19 H -1.2917 -2.9302 -0.1958 0
M  V30 20 H -0.4141 -3.4197 1.9826 0
M  V30 21 H 1.209 -3.5353 1.2514 0
M  V30 22 H -0.0495 -4.6899 0.8048 0
M  V30 END ATOM
M  V30 BEGIN BOND
M  V30 1 2 1 2
M  V30 2 1 1 3
M  V30 3 1 2 4
M  V30 4 1 2 5
M  V30 5 2 3 6
M  V30 6 2 4 7
M  V30 7 1 5 8
M  V30 8 1 8 9
M  V30 9 1 9 10
M  V30 10 1 6 7
M  V30 11 1 3 11
M  V30 12 1 4 12
M  V30 13 1 5 13
M  V30 14 1 5 14
M  V30 15 1 6 15
M  V30 16 1 7 16
M  V30 17 1 8 17
M  V30 18 1 8 18
M  V30 19 1 9 19
M  V30 20 1 10 20
M  V30 21 1 10 21
M  V30 22 1 10 22
M  V30 END BOND
M  V30 END CTAB
M  END
>  <Column 1>
296

>  <level_0>
337

>  <index>
337

>  <Unnamed: 0>
337

>  <NO.>
338

>  <Name>
betahistine (y-g 14)

>  <IUPAC_name>
n-methyl-2-pyridin-2-ylethanamine

>  <SMILES>
CNCCc1ccccn1

>  <CID>
2366

>  <logBB>
-0.3

>  <BBB+/BBB->
BBB+

>  <Inchi>
InChI=1S/C8H12N2/c1-9-7-5-8-4-2-3-6-10-8/h2-4-6-9H-5-7H2-1H3

>  <threshold>


>  <reference>
R12|R20|R25|R46|R48|R2|R2|R27|R50|R40|R8|R21|R27|R3|R35|R36|R38|R41|R43|R47|R48|R49|R4|R42|

>  <group>
A

>  <Class>
1

>  <ABC>
7.07

>  <ABCGG>
6.55

>  <nAcid>
0

>  <nBase>
1

>  <nAromAtom>
6

>  <nAromBond>
6

>  <nAtom>
22

>  <nHeavyAtom>
10

>  <nSpiro>
0

>  <nBridgehead>
0

>  <nHetero>
2

>  <nN>
2

>  <nO>
0

>  <nF>
0

>  <BalabanJ>
2.02

>  <BertzCT>
171.87

>  <nBonds>
22

>  <nBondsO>
10

>  <nBondsS>
16

>  <nBondsD>
0

>  <nBondsT>
0

>  <nBondsA>
6

>  <nBondsM>
6

>  <nBondsKS>
19

>  <nBondsKD>
3

>  <RNCG>
0.43

>  <RPCG>
0.16

>  <FCSP3>
0.38

>  <SZ>
12.33

>  <Sm>
11.34

>  <Sv>
12.77

>  <Sse>
21.65

>  <Sp>
14.11

>  <Si>
25.07

>  <MZ>
0.56

>  <Mm>
0.52

>  <Mv>
0.58

>  <Mse>
0.98

>  <Mp>
0.64

>  <Mi>
1.14

>  <NsCH3>
1

>  <NdCH2>
0

>  <NssCH2>
2

>  <NtCH>
0

>  <NdsCH>
0

>  <NaaCH>
4

>  <NsssCH>
0

>  <NddC>
0

>  <NtsC>
0

>  <NdssC>
0

>  <NaasC>
1

>  <NaaaC>
0

>  <NssssC>
0

>  <NsNH3>
0

>  <NsNH2>
0

>  <NssNH2>
0

>  <NdNH>
0

>  <NssNH>
1

>  <NaaNH>
0

>  <NtN>
0

>  <NsssNH>
0

>  <NdsN>
0

>  <NaaN>
1

>  <NsssN>
0

>  <NddsN>
0

>  <NaasN>
0

>  <NssssN>
0

>  <NsOH>
0

>  <NdO>
0

>  <NssO>
0

>  <NaaO>
0

>  <NsF>
0

>  <NsSiH3>
0

>  <NssSiH2>
0

>  <NsssSiH>
0

>  <NssssSi>
0

>  <NsPH2>
0

>  <NssPH>
0

>  <NsssP>
0

>  <NdsssP>
0

>  <NsssssP>
0

>  <NsSH>
0

>  <NdS>
0

>  <NssS>
0

>  <NaaS>
0

>  <NdssS>
0

>  <NddssS>
0

>  <NsCl>
0

>  <NsBr>
0

>  <NsI>
0

>  <fragCpx>
10.02

>  <fMF>
0.27

>  <nHBAcc>
2

>  <nHBDon>
1

>  <Kier1>
8.1

>  <Kier2>
4.76

>  <Lipinski>
1

>  <GhoseFilter>
0

>  <FilterItLogS>
-2.64

>  <VMcGowan>
119.78

>  <LabuteASA>
61.3

>  <PEOE_VSA1>
5.32

>  <PEOE_VSA2>
4.98

>  <PEOE_VSA3>
0

>  <PEOE_VSA4>
0

>  <PEOE_VSA5>
0

>  <PEOE_VSA6>
6.07

>  <PEOE_VSA7>
19.18

>  <PEOE_VSA8>
24.86

>  <PEOE_VSA9>
0

>  <PEOE_VSA10>
0

>  <PEOE_VSA11>
0

>  <PEOE_VSA12>
0

>  <PEOE_VSA13>
0

>  <SMR_VSA1>
0

>  <SMR_VSA2>
0

>  <SMR_VSA3>
10.3

>  <SMR_VSA4>
0

>  <SMR_VSA5>
6.42

>  <SMR_VSA6>
13.59

>  <SMR_VSA7>
30.09

>  <SMR_VSA8>
0

>  <SMR_VSA9>
0

>  <SlogP_VSA1>
5.32

>  <SlogP_VSA2>
18.58

>  <SlogP_VSA3>
6.42

>  <SlogP_VSA4>
0

>  <SlogP_VSA5>
5.69

>  <SlogP_VSA6>
24.4

>  <SlogP_VSA7>
0

>  <SlogP_VSA8>
0

>  <SlogP_VSA9>
0

>  <SlogP_VSA10>
0

>  <SlogP_VSA11>
0

>  <EState_VSA1>
0

>  <EState_VSA2>
0

>  <EState_VSA3>
0

>  <EState_VSA4>
18.66

>  <EState_VSA5>
0

>  <EState_VSA6>
0

>  <EState_VSA7>
31.44

>  <EState_VSA8>
10.3

>  <EState_VSA9>
0

>  <EState_VSA10>
0

>  <VSA_EState1>
0

>  <VSA_EState2>
4.18

>  <VSA_EState3>
3.08

>  <VSA_EState4>
1.15

>  <VSA_EState5>
0

>  <VSA_EState6>
5.98

>  <VSA_EState7>
2.84

>  <VSA_EState8>
1

>  <VSA_EState9>
1.95

>  <apol>
23.56

>  <bpol>
13.75

>  <nRing>
1

>  <nHRing>
1

>  <naRing>
1

>  <naHRing>
1

>  <nARing 2>
0

>  <nAHRing 2>
0

>  <nFRing>
0

>  <nFHRing>
0

>  <nFaRing>
0

>  <nFaHRing>
0

>  <nFARing 2>
0

>  <nFAHRing 2>
0

>  <nRot>
3

>  <SLogP>
0.84

>  <SMR>
41.87

>  <TopoPSA(NO)>
24.92

>  <TopoPSA>
24.92

>  <JGI1>
0.1

>  <JGI2>
0.04

>  <JGI3>
0.02

>  <JGI4>
0.03

>  <JGI5>
0.02

>  <Diameter>
7

>  <Radius>
4

>  <TMWC10>
80.91

>  <TSRW10>
38.13

>  <MW>
136.1

>  <AMW>
6.19

>  <WPath>
133

>  <WPol>
9

>  <Zagreb1>
42

>  <Zagreb2>
44

>  <mZagreb2>
2.5

>  <yes>


>  <nAR-cont>
0.336376

>  <nHA-cont>
0.645914733

>  <MWHBN>
0.257153353

>  <MWHBN-cont>
0.946953155

>  <TPSA-cont>
0.826042926

>  <pka_cont>
0.97

>  <yes.1>


>  <BBB_SCORE>
4.539806317

>  <MMFF94 Energy>
25.374

$$$$
Compound 234
Actelion Java MolfileCreator 2.0

  0  0  0  0  0  0              0 V3000
M  V30 BEGIN CTAB
M  V30 COUNTS 31 34 0 0 0
M  V30 BEGIN ATOM
M  V30 1 O -1.2923 -1.3731 2.7477 0
M  V30 2 C -0.7793 -0.3587 2.2792 0
M  V30 3 N -0.4696 -0.1602 0.9426 0
M  V30 4 N -0.4634 0.6555 3.1322 0
M  V30 5 C -0.7097 -1.1782 -0.0196 0
M  V30 6 C 0.0228 1.0514 0.3922 0
M  V30 7 C 0.3734 -1.8029 -0.675 0
M  V30 8 C -2.0344 -1.5322 -0.3173 0
M  V30 9 C 1.3418 1.1209 -0.1023 0
M  V30 10 C -0.8318 2.1641 0.3348 0
M  V30 11 C 0.0688 -2.7503 -1.6698 0
M  V30 12 C 1.8108 -1.4708 -0.3657 0
M  V30 13 C -2.3023 -2.491 -1.2915 0
M  V30 14 C 1.7543 2.339 -0.6727 0
M  V30 15 C 2.2776 -0.0598 -0.0843 0
M  V30 16 C -0.3865 3.3619 -0.2181 0
M  V30 17 C -1.2509 -3.0944 -1.9739 0
M  V30 18 O 2.5402 -0.7064 -1.3412 0
M  V30 19 C 0.9063 3.4487 -0.7244 0
M  V30 20 H -0.675 0.521 4.1105 0
M  V30 21 H 0.014 1.4933 2.8393 0
M  V30 22 H -2.8587 -1.0581 0.2093 0
M  V30 23 H -1.8511 2.0909 0.707 0
M  V30 24 H 0.8799 -3.2316 -2.2132 0
M  V30 25 H 2.3666 -2.2599 0.1339 0
M  V30 26 H -3.3296 -2.7622 -1.5197 0
M  V30 27 H 2.7563 2.4184 -1.0917 0
M  V30 28 H 3.1222 0.0283 0.5937 0
M  V30 29 H -1.0516 4.2202 -0.2693 0
M  V30 30 H -1.4545 -3.8365 -2.7416 0
M  V30 31 H 1.2548 4.3759 -1.1732 0
M  V30 END ATOM
M  V30 BEGIN BOND
M  V30 1 2 1 2
M  V30 2 1 2 3
M  V30 3 1 2 4
M  V30 4 1 3 5
M  V30 5 1 3 6
M  V30 6 2 5 7
M  V30 7 1 5 8
M  V30 8 2 6 9
M  V30 9 1 6 10
M  V30 10 1 7 11
M  V30 11 1 7 12
M  V30 12 2 8 13
M  V30 13 1 9 14
M  V30 14 1 9 15
M  V30 15 2 10 16
M  V30 16 2 11 17
M  V30 17 1 12 18
M  V30 18 2 14 19
M  V30 19 1 12 15
M  V30 20 1 13 17
M  V30 21 1 15 18
M  V30 22 1 16 19
M  V30 23 1 4 20
M  V30 24 1 4 21
M  V30 25 1 8 22
M  V30 26 1 10 23
M  V30 27 1 11 24
M  V30 28 1 12 25
M  V30 29 1 13 26
M  V30 30 1 14 27
M  V30 31 1 15 28
M  V30 32 1 16 29
M  V30 33 1 17 30
M  V30 34 1 19 31
M  V30 END BOND
M  V30 END CTAB
M  END
>  <Column 1>
298

>  <level_0>
339

>  <index>
339

>  <Unnamed: 0>
339

>  <NO.>
340

>  <Name>
b-096

>  <IUPAC_name>
3-oxa-11-azatetracyclo[10.4.0.02-4.05-10]hexadeca-1(16)-5-7-9-12-14-hexaene-11-carboxamide

>  <SMILES>
NC(=O)N1c2ccccc2C2OC2c2ccccc21

>  <CID>
2555

>  <logBB>
-0.3

>  <BBB+/BBB->
BBB+

>  <Inchi>
InChI=1S/C15H12N2O2/c16-15(18)17-11-7-3-1-5-9(11)13-14(19-13)10-6-2-4-8-12(10)17/h1-8-13-14H-(H2-16-18)

>  <threshold>


>  <reference>
R12|R25|R36|R46|R40|R2|R2|R27|R8|R11|R18|R21|R26|R27|R27|R35|R39|R43|R47|R49|R49|R5|

>  <group>
A

>  <Class>
1

>  <ABC>
15.45

>  <ABCGG>
13.49

>  <nAcid>
0

>  <nBase>
0

>  <nAromAtom>
12

>  <nAromBond>
12

>  <nAtom>
31

>  <nHeavyAtom>
19

>  <nSpiro>
0

>  <nBridgehead>
0

>  <nHetero>
4

>  <nN>
2

>  <nO>
2

>  <nF>
0

>  <BalabanJ>
1.68

>  <BertzCT>
631.85

>  <nBonds>
34

>  <nBondsO>
22

>  <nBondsS>
21

>  <nBondsD>
1

>  <nBondsT>
0

>  <nBondsA>
12

>  <nBondsM>
13

>  <nBondsKS>
27

>  <nBondsKD>
7

>  <RNCG>
0.22

>  <RPCG>
0.2

>  <FCSP3>
0.13

>  <SZ>
22

>  <Sm>
21

>  <Sv>
21.2

>  <Sse>
31.31

>  <Sp>
22.07

>  <Si>
34.49

>  <MZ>
0.71

>  <Mm>
0.68

>  <Mv>
0.68

>  <Mse>
1.01

>  <Mp>
0.71

>  <Mi>
1.11

>  <NsCH3>
0

>  <NdCH2>
0

>  <NssCH2>
0

>  <NtCH>
0

>  <NdsCH>
0

>  <NaaCH>
8

>  <NsssCH>
2

>  <NddC>
0

>  <NtsC>
0

>  <NdssC>
1

>  <NaasC>
4

>  <NaaaC>
0

>  <NssssC>
0

>  <NsNH3>
0

>  <NsNH2>
1

>  <NssNH2>
0

>  <NdNH>
0

>  <NssNH>
0

>  <NaaNH>
0

>  <NtN>
0

>  <NsssNH>
0

>  <NdsN>
0

>  <NaaN>
0

>  <NsssN>
1

>  <NddsN>
0

>  <NaasN>
0

>  <NssssN>
0

>  <NsOH>
0

>  <NdO>
1

>  <NssO>
1

>  <NaaO>
0

>  <NsF>
0

>  <NsSiH3>
0

>  <NssSiH2>
0

>  <NsssSiH>
0

>  <NssssSi>
0

>  <NsPH2>
0

>  <NssPH>
0

>  <NsssP>
0

>  <NdsssP>
0

>  <NsssssP>
0

>  <NsSH>
0

>  <NdS>
0

>  <NssS>
0

>  <NaaS>
0

>  <NdssS>
0

>  <NddssS>
0

>  <NsCl>
0

>  <NsBr>
0

>  <NsI>
0

>  <fragCpx>
142.04

>  <fMF>
0.52

>  <nHBAcc>
2

>  <nHBDon>
1

>  <Kier1>
12.72

>  <Kier2>
4.78

>  <Lipinski>
1

>  <GhoseFilter>
1

>  <FilterItLogS>
-2.46

>  <VMcGowan>
180.37

>  <LabuteASA>
109.95

>  <PEOE_VSA1>
10.47

>  <PEOE_VSA2>
4.9

>  <PEOE_VSA3>
4.79

>  <PEOE_VSA4>
0

>  <PEOE_VSA5>
0

>  <PEOE_VSA6>
36.4

>  <PEOE_VSA7>
12.13

>  <PEOE_VSA8>
11.13

>  <PEOE_VSA9>
11.37

>  <PEOE_VSA10>
12.21

>  <PEOE_VSA11>
0

>  <PEOE_VSA12>
0

>  <PEOE_VSA13>
0

>  <SMR_VSA1>
9.53

>  <SMR_VSA2>
0

>  <SMR_VSA3>
0

>  <SMR_VSA4>
5.73

>  <SMR_VSA5>
12.21

>  <SMR_VSA6>
4.9

>  <SMR_VSA7>
59.66

>  <SMR_VSA8>
0

>  <SMR_VSA9>
0

>  <SlogP_VSA1>
10.63

>  <SlogP_VSA2>
6.03

>  <SlogP_VSA3>
4.74

>  <SlogP_VSA4>
0

>  <SlogP_VSA5>
23.33

>  <SlogP_VSA6>
48.53

>  <SlogP_VSA7>
0

>  <SlogP_VSA8>
0

>  <SlogP_VSA9>
0

>  <SlogP_VSA10>
16.17

>  <SlogP_VSA11>
0

>  <EState_VSA1>
6.03

>  <EState_VSA2>
12.21

>  <EState_VSA3>
0

>  <EState_VSA4>
22.5

>  <EState_VSA5>
0

>  <EState_VSA6>
4.9

>  <EState_VSA7>
48.53

>  <EState_VSA8>
0

>  <EState_VSA9>
10.47

>  <EState_VSA10>
4.79

>  <VSA_EState1>
5.76

>  <VSA_EState2>
13.43

>  <VSA_EState3>
0

>  <VSA_EState4>
9.23

>  <VSA_EState5>
0

>  <VSA_EState6>
15.02

>  <VSA_EState7>
0.06

>  <VSA_EState8>
0

>  <VSA_EState9>
0

>  <apol>
36.86

>  <bpol>
15.78

>  <nRing>
4

>  <nHRing>
2

>  <naRing>
2

>  <naHRing>
0

>  <nARing 2>
2

>  <nAHRing 2>
2

>  <nFRing>
1

>  <nFHRing>
1

>  <nFaRing>
0

>  <nFaHRing>
0

>  <nFARing 2>
1

>  <nFAHRing 2>
1

>  <nRot>
0

>  <SLogP>
3.03

>  <SMR>
71.17

>  <TopoPSA(NO)>
58.86

>  <TopoPSA>
58.86

>  <JGI1>
0.11

>  <JGI2>
0.07

>  <JGI3>
0.05

>  <JGI4>
0.05

>  <JGI5>
0.02

>  <Diameter>
7

>  <Radius>
4

>  <TMWC10>
117.17

>  <TSRW10>
73.17

>  <MW>
252.09

>  <AMW>
8.13

>  <WPath>
586

>  <WPol>
37

>  <Zagreb1>
110

>  <Zagreb2>
138

>  <mZagreb2>
4.06

>  <yes>


>  <nAR-cont>
1

>  <nHA-cont>
0.998649058

>  <MWHBN>
0.188948499

>  <MWHBN-cont>
0.994965016

>  <TPSA-cont>
0.58912065

>  <pka_cont>
0.97

>  <yes.1>


>  <BBB_SCORE>
5.154337883

>  <MMFF94 Energy>
1.4778

$$$$
Compound 235
Actelion Java MolfileCreator 2.0

  0  0  0  0  0  0              0 V3000
M  V30 BEGIN CTAB
M  V30 COUNTS 5 4 0 0 0
M  V30 BEGIN ATOM
M  V30 1 Cl -1.4307 -0.5363 -0.7151 0
M  V30 2 C 0.0287 0.0067 0.1204 0
M  V30 3 Cl 1.2169 0.6451 -1.0214 0
M  V30 4 H 0.4679 -0.8388 0.6552 0
M  V30 5 H -0.2397 0.7926 0.8308 0
M  V30 END ATOM
M  V30 BEGIN BOND
M  V30 1 1 1 2
M  V30 2 1 2 3
M  V30 3 1 2 4
M  V30 4 1 2 5
M  V30 END BOND
M  V30 END CTAB
M  END
>  <Column 1>
299

>  <level_0>
340

>  <index>
340

>  <Unnamed: 0>
340

>  <NO.>
341

>  <Name>
dichloromethane

>  <IUPAC_name>
dichloromethane

>  <SMILES>
ClCCl

>  <CID>
6344

>  <logBB>
-0.3

>  <BBB+/BBB->
BBB+

>  <Inchi>
InChI=1S/CH2Cl2/c2-1-3/h1H2

>  <threshold>


>  <reference>
R25|R41|R3|R38|R46|R47|R40|R2|R2|R27|R8|R21|R27|R12|R18|R26|R27|R35|R39|R43|R5|

>  <group>
A

>  <Class>
1

>  <ABC>
1.41

>  <ABCGG>
1.41

>  <nAcid>
0

>  <nBase>
0

>  <nAromAtom>
0

>  <nAromBond>
0

>  <nAtom>
5

>  <nHeavyAtom>
3

>  <nSpiro>
0

>  <nBridgehead>
0

>  <nHetero>
2

>  <nN>
0

>  <nO>
0

>  <nF>
0

>  <BalabanJ>
1.63

>  <BertzCT>
2.75

>  <nBonds>
4

>  <nBondsO>
2

>  <nBondsS>
4

>  <nBondsD>
0

>  <nBondsT>
0

>  <nBondsA>
0

>  <nBondsM>
0

>  <nBondsKS>
4

>  <nBondsKD>
0

>  <RNCG>
0.5

>  <RPCG>
0.44

>  <FCSP3>
1

>  <SZ>
7

>  <Sm>
7.07

>  <Sv>
3.72

>  <Sse>
5.42

>  <Sp>
4.41

>  <Si>
5.72

>  <MZ>
1.4

>  <Mm>
1.41

>  <Mv>
0.74

>  <Mse>
1.08

>  <Mp>
0.88

>  <Mi>
1.14

>  <NsCH3>
0

>  <NdCH2>
0

>  <NssCH2>
1

>  <NtCH>
0

>  <NdsCH>
0

>  <NaaCH>
0

>  <NsssCH>
0

>  <NddC>
0

>  <NtsC>
0

>  <NdssC>
0

>  <NaasC>
0

>  <NaaaC>
0

>  <NssssC>
0

>  <NsNH3>
0

>  <NsNH2>
0

>  <NssNH2>
0

>  <NdNH>
0

>  <NssNH>
0

>  <NaaNH>
0

>  <NtN>
0

>  <NsssNH>
0

>  <NdsN>
0

>  <NaaN>
0

>  <NsssN>
0

>  <NddsN>
0

>  <NaasN>
0

>  <NssssN>
0

>  <NsOH>
0

>  <NdO>
0

>  <NssO>
0

>  <NaaO>
0

>  <NsF>
0

>  <NsSiH3>
0

>  <NssSiH2>
0

>  <NsssSiH>
0

>  <NssssSi>
0

>  <NsPH2>
0

>  <NssPH>
0

>  <NsssP>
0

>  <NdsssP>
0

>  <NsssssP>
0

>  <NsSH>
0

>  <NdS>
0

>  <NssS>
0

>  <NaaS>
0

>  <NdssS>
0

>  <NddssS>
0

>  <NsCl>
2

>  <NsBr>
0

>  <NsI>
0

>  <fragCpx>
2.02

>  <fMF>
0

>  <nHBAcc>
0

>  <nHBDon>
0

>  <Kier1>
3

>  <Kier2>
2

>  <Lipinski>
1

>  <GhoseFilter>
0

>  <FilterItLogS>
-1.41

>  <VMcGowan>
49.43

>  <LabuteASA>
29.35

>  <PEOE_VSA1>
0

>  <PEOE_VSA2>
0

>  <PEOE_VSA3>
0

>  <PEOE_VSA4>
0

>  <PEOE_VSA5>
23.2

>  <PEOE_VSA6>
0

>  <PEOE_VSA7>
0

>  <PEOE_VSA8>
0

>  <PEOE_VSA9>
5.34

>  <PEOE_VSA10>
0

>  <PEOE_VSA11>
0

>  <PEOE_VSA12>
0

>  <PEOE_VSA13>
0

>  <SMR_VSA1>
0

>  <SMR_VSA2>
0

>  <SMR_VSA3>
0

>  <SMR_VSA4>
0

>  <SMR_VSA5>
0

>  <SMR_VSA6>
5.34

>  <SMR_VSA7>
0

>  <SMR_VSA8>
0

>  <SMR_VSA9>
0

>  <SlogP_VSA1>
0

>  <SlogP_VSA2>
5.34

>  <SlogP_VSA3>
0

>  <SlogP_VSA4>
0

>  <SlogP_VSA5>
0

>  <SlogP_VSA6>
0

>  <SlogP_VSA7>
0

>  <SlogP_VSA8>
0

>  <SlogP_VSA9>
0

>  <SlogP_VSA10>
0

>  <SlogP_VSA11>
0

>  <EState_VSA1>
0

>  <EState_VSA2>
5.34

>  <EState_VSA3>
0

>  <EState_VSA4>
0

>  <EState_VSA5>
0

>  <EState_VSA6>
0

>  <EState_VSA7>
0

>  <EState_VSA8>
0

>  <EState_VSA9>
23.2

>  <EState_VSA10>
0

>  <VSA_EState1>
0

>  <VSA_EState2>
0

>  <VSA_EState3>
0.19

>  <VSA_EState4>
0

>  <VSA_EState5>
0

>  <VSA_EState6>
0

>  <VSA_EState7>
0

>  <VSA_EState8>
0

>  <VSA_EState9>
0

>  <apol>
7.36

>  <bpol>
3.03

>  <nRing>
0

>  <nHRing>
0

>  <naRing>
0

>  <naHRing>
0

>  <nARing 2>
0

>  <nAHRing 2>
0

>  <nFRing>
0

>  <nFHRing>
0

>  <nFaRing>
0

>  <nFaHRing>
0

>  <nFARing 2>
0

>  <nFAHRing 2>
0

>  <nRot>
0

>  <SLogP>
1.42

>  <SMR>
16.57

>  <TopoPSA(NO)>
0

>  <TopoPSA>
0

>  <JGI1>
0.25

>  <JGI2>
0

>  <JGI3>
0

>  <JGI4>
0

>  <JGI5>
0

>  <Diameter>
2

>  <Radius>
1

>  <TMWC10>
33.9

>  <TSRW10>
17.31

>  <MW>
83.95

>  <AMW>
16.79

>  <WPath>
4

>  <WPol>
0

>  <Zagreb1>
6

>  <Zagreb2>
4

>  <mZagreb2>
1

>  <yes>


>  <nAR-cont>
0.336376

>  <nHA-cont>
0

>  <MWHBN>
0

>  <MWHBN-cont>
0

>  <TPSA-cont>
0

>  <pka_cont>
0.97

>  <yes.1>


>  <BBB_SCORE>
0.821376

>  <MMFF94 Energy>
0.048507

$$$$
Compound 236
Actelion Java MolfileCreator 2.0

  0  0  0  0  0  0              0 V3000
M  V30 BEGIN CTAB
M  V30 COUNTS 40 44 0 0 0
M  V30 BEGIN ATOM
M  V30 1 O 0.6497 1.2184 2.438 0
M  V30 2 C -0.1784 1.641 1.4291 0
M  V30 3 C 0.9684 -0.1773 2.0825 0 CFG=2
M  V30 4 C -1.0072 2.7407 1.4394 0
M  V30 5 C -0.1751 0.7801 0.3543 0
M  V30 6 C 0.8267 -0.3102 0.5527 0 CFG=2
M  V30 7 C 0.0783 -1.1517 2.9108 0 CFG=1
M  V30 8 O -0.9983 3.5864 2.5054 0
M  V30 9 C -1.8695 2.9357 0.355 0
M  V30 10 C -1.063 0.8936 -0.7009 0
M  V30 11 C 0.2547 -1.6229 -8.0E-4 0 CFG=1
M  V30 12 C 2.1296 0.0379 -0.1945 0
M  V30 13 O -0.5691 -0.4938 3.9995 0
M  V30 14 C -0.9691 -1.91 2.1466 0
M  V30 15 C -1.9112 2.0035 -0.7034 0
M  V30 16 C -1.1466 -0.2304 -1.7004 0
M  V30 17 C -0.8977 -2.14 0.8263 0
M  V30 18 C -0.0728 -1.3604 -1.5086 0 CFG=1
M  V30 19 C 1.9482 0.0476 -1.7198 0
M  V30 20 N 1.2264 -1.137 -2.1992 0
M  V30 21 C 1.1112 -1.1313 -3.6548 0
M  V30 22 H 2.01 -0.3348 2.3902 0
M  V30 23 H 0.7346 -1.9077 3.3596 0
M  V30 24 H -1.6445 4.293 2.3494 0
M  V30 25 H -2.5465 3.7848 0.3297 0
M  V30 26 H 1.024 -2.4087 0.0478 0
M  V30 27 H 2.8948 -0.7061 0.0647 0
M  V30 28 H 2.5241 1.0126 0.1207 0
M  V30 29 H -0.5109 0.4645 3.8126 0
M  V30 30 H -1.79 -2.3292 2.7235 0
M  V30 31 H -2.6298 2.1421 -1.5081 0
M  V30 32 H -1.1185 0.1774 -2.7155 0
M  V30 33 H -2.1352 -0.694 -1.5803 0
M  V30 34 H -1.657 -2.7489 0.3429 0
M  V30 35 H -0.4966 -2.2858 -1.9227 0
M  V30 36 H 1.4432 0.9702 -2.0318 0
M  V30 37 H 2.9467 0.0765 -2.174 0
M  V30 38 H 2.1069 -1.1513 -4.112 0
M  V30 39 H 0.5898 -2.0277 -4.0079 0
M  V30 40 H 0.5858 -0.2506 -4.0375 0
M  V30 END ATOM
M  V30 BEGIN BOND
M  V30 1 1 1 2
M  V30 2 1 1 3
M  V30 3 2 2 4
M  V30 4 1 2 5
M  V30 5 1 3 6
M  V30 6 1 3 7
M  V30 7 1 4 8
M  V30 8 1 4 9
M  V30 9 2 5 10
M  V30 10 1 6 11
M  V30 11 1 6 12
M  V30 12 1 7 13
M  V30 13 1 7 14
M  V30 14 2 9 15
M  V30 15 1 10 16
M  V30 16 1 11 17
M  V30 17 1 11 18
M  V30 18 1 12 19
M  V30 19 1 18 20
M  V30 20 1 20 21
M  V30 21 1 5 6
M  V30 22 1 10 15
M  V30 23 2 14 17
M  V30 24 1 16 18
M  V30 25 1 19 20
M  V30 26 1 3 22
M  V30 27 1 7 23
M  V30 28 1 8 24
M  V30 29 1 9 25
M  V30 30 1 11 26
M  V30 31 1 12 27
M  V30 32 1 12 28
M  V30 33 1 13 29
M  V30 34 1 14 30
M  V30 35 1 15 31
M  V30 36 1 16 32
M  V30 37 1 16 33
M  V30 38 1 17 34
M  V30 39 1 18 35
M  V30 40 1 19 36
M  V30 41 1 19 37
M  V30 42 1 21 38
M  V30 43 1 21 39
M  V30 44 1 21 40
M  V30 END BOND
M  V30 BEGIN COLLECTION
M  V30 MDLV30/STEABS ATOMS=(5 3 6 7 11 18)
M  V30 END COLLECTION
M  V30 END CTAB
M  END
>  <Column 1>
300

>  <level_0>
341

>  <index>
341

>  <Unnamed: 0>
341

>  <NO.>
342

>  <Name>
morphine

>  <IUPAC_name>
(4r-4ar-7s-7ar-12bs)-3-methyl-2-4-4a-7-7a-13-hexahydro-1h-4-12-methanobenzofuro[3-2-e]isoquinoline-7-9-diol

>  <SMILES>
CN1CC[C@]23c4c5ccc(O)c4O[C@H]2[C@@H](O)C=C[C@H]3[C@H]1C5

>  <CID>
5288826

>  <logBB>
-0.3

>  <BBB+/BBB->
BBB+

>  <Inchi>
InChI=1S/C17H19NO3/c1-18-7-6-17-10-3-5-13(20)16(17)21-15-12(19)4-2-9(14(15)17)8-11(10)18/h2-5-10-11-13-16-19-20H-6-8H2-1H3/t10--11+-13--16--17-/m0/s1

>  <threshold>


>  <reference>
R18|R26|R27|R21|R8|R5|R39|R20|

>  <group>
A

>  <Class>
1

>  <ABC>
17.58

>  <ABCGG>
13.51

>  <nAcid>
0

>  <nBase>
1

>  <nAromAtom>
6

>  <nAromBond>
6

>  <nAtom>
40

>  <nHeavyAtom>
21

>  <nSpiro>
1

>  <nBridgehead>
2

>  <nHetero>
4

>  <nN>
1

>  <nO>
3

>  <nF>
0

>  <BalabanJ>
1.65

>  <BertzCT>
670.24

>  <nBonds>
44

>  <nBondsO>
25

>  <nBondsS>
37

>  <nBondsD>
1

>  <nBondsT>
0

>  <nBondsA>
6

>  <nBondsM>
7

>  <nBondsKS>
40

>  <nBondsKD>
4

>  <RNCG>
0.26

>  <RPCG>
0.15

>  <FCSP3>
0.53

>  <SZ>
25.33

>  <Sm>
23.76

>  <Sv>
25.05

>  <Sse>
40.09

>  <Sp>
26.69

>  <Si>
44.86

>  <MZ>
0.63

>  <Mm>
0.59

>  <Mv>
0.63

>  <Mse>
1

>  <Mp>
0.67

>  <Mi>
1.12

>  <NsCH3>
1

>  <NdCH2>
0

>  <NssCH2>
3

>  <NtCH>
0

>  <NdsCH>
2

>  <NaaCH>
2

>  <NsssCH>
4

>  <NddC>
0

>  <NtsC>
0

>  <NdssC>
0

>  <NaasC>
4

>  <NaaaC>
0

>  <NssssC>
1

>  <NsNH3>
0

>  <NsNH2>
0

>  <NssNH2>
0

>  <NdNH>
0

>  <NssNH>
0

>  <NaaNH>
0

>  <NtN>
0

>  <NsssNH>
0

>  <NdsN>
0

>  <NaaN>
0

>  <NsssN>
1

>  <NddsN>
0

>  <NaasN>
0

>  <NssssN>
0

>  <NsOH>
2

>  <NdO>
0

>  <NssO>
1

>  <NaaO>
0

>  <NsF>
0

>  <NsSiH3>
0

>  <NssSiH2>
0

>  <NsssSiH>
0

>  <NssssSi>
0

>  <NsPH2>
0

>  <NssPH>
0

>  <NsssP>
0

>  <NdsssP>
0

>  <NsssssP>
0

>  <NsSH>
0

>  <NdS>
0

>  <NssS>
0

>  <NaaS>
0

>  <NdssS>
0

>  <NddssS>
0

>  <NsCl>
0

>  <NsBr>
0

>  <NsI>
0

>  <fragCpx>
205.04

>  <fMF>
0.45

>  <nHBAcc>
4

>  <nHBDon>
2

>  <Kier1>
13.44

>  <Kier2>
4.3

>  <Lipinski>
1

>  <GhoseFilter>
1

>  <FilterItLogS>
-1.76

>  <VMcGowan>
206.48

>  <LabuteASA>
123.19

>  <PEOE_VSA1>
19.85

>  <PEOE_VSA2>
0

>  <PEOE_VSA3>
0

>  <PEOE_VSA4>
0

>  <PEOE_VSA5>
0

>  <PEOE_VSA6>
18.22

>  <PEOE_VSA7>
38.06

>  <PEOE_VSA8>
22.94

>  <PEOE_VSA9>
0

>  <PEOE_VSA10>
12.21

>  <PEOE_VSA11>
11.5

>  <PEOE_VSA12>
0

>  <PEOE_VSA13>
0

>  <SMR_VSA1>
14.95

>  <SMR_VSA2>
0

>  <SMR_VSA3>
4.9

>  <SMR_VSA4>
5.92

>  <SMR_VSA5>
36.51

>  <SMR_VSA6>
13.59

>  <SMR_VSA7>
35.41

>  <SMR_VSA8>
0

>  <SMR_VSA9>
11.5

>  <SlogP_VSA1>
4.74

>  <SlogP_VSA2>
46.96

>  <SlogP_VSA3>
11.84

>  <SlogP_VSA4>
5.92

>  <SlogP_VSA5>
17.55

>  <SlogP_VSA6>
24.28

>  <SlogP_VSA7>
0

>  <SlogP_VSA8>
0

>  <SlogP_VSA9>
0

>  <SlogP_VSA10>
0

>  <SlogP_VSA11>
11.5

>  <EState_VSA1>
6.1

>  <EState_VSA2>
17.27

>  <EState_VSA3>
17.71

>  <EState_VSA4>
19.39

>  <EState_VSA5>
11.13

>  <EState_VSA6>
6.07

>  <EState_VSA7>
12.14

>  <EState_VSA8>
18.02

>  <EState_VSA9>
4.74

>  <EState_VSA10>
10.21

>  <VSA_EState1>
6.09

>  <VSA_EState2>
2.43

>  <VSA_EState3>
20.65

>  <VSA_EState4>
2.29

>  <VSA_EState5>
1.19

>  <VSA_EState6>
4.23

>  <VSA_EState7>
5.18

>  <VSA_EState8>
1.01

>  <VSA_EState9>
2.19

>  <apol>
44.57

>  <bpol>
22.51

>  <nRing>
5

>  <nHRing>
2

>  <naRing>
1

>  <naHRing>
0

>  <nARing 2>
4

>  <nAHRing 2>
2

>  <nFRing>
1

>  <nFHRing>
1

>  <nFaRing>
0

>  <nFaHRing>
0

>  <nFARing 2>
1

>  <nFAHRing 2>
1

>  <nRot>
0

>  <SLogP>
1.2

>  <SMR>
77.58

>  <TopoPSA(NO)>
52.93

>  <TopoPSA>
52.93

>  <JGI1>
0.2

>  <JGI2>
0.1

>  <JGI3>
0.05

>  <JGI4>
0.06

>  <JGI5>
0.03

>  <Diameter>
8

>  <Radius>
4

>  <TMWC10>
125.38

>  <TSRW10>
71.52

>  <MW>
285.14

>  <AMW>
7.13

>  <WPath>
712

>  <WPol>
49

>  <Zagreb1>
132

>  <Zagreb2>
173

>  <mZagreb2>
4.29

>  <yes>


>  <nAR-cont>
0.199399

>  <nHA-cont>
0.994529749

>  <MWHBN>
0.355322065

>  <MWHBN-cont>
0.650221534

>  <TPSA-cont>
0.630515732

>  <pka_cont>
0.97

>  <yes.1>


>  <BBB_SCORE>
3.915292515

>  <MMFF94 Energy>
99.208

$$$$
Compound 237
Actelion Java MolfileCreator 2.0

  0  0  0  0  0  0              0 V3000
M  V30 BEGIN CTAB
M  V30 COUNTS 44 47 0 0 0
M  V30 BEGIN ATOM
M  V30 1 F -3.2224 -3.8678 -0.4023 0
M  V30 2 C -2.7504 -2.7 0.1088 0
M  V30 3 C -3.3079 -1.5344 -0.7046 0
M  V30 4 C -1.2361 -2.6362 -0.0469 0
M  V30 5 O -4.5136 -1.0245 -0.1503 0
M  V30 6 C -2.1754 -0.4821 -0.7112 0
M  V30 7 C -0.935 -1.3866 -0.9093 0
M  V30 8 C -2.1003 0.3078 0.6135 0
M  V30 9 C -2.4126 0.4868 -1.8816 0
M  V30 10 C 0.4378 -0.7714 -0.5599 0
M  V30 11 C -0.7675 1.0293 0.8051 0
M  V30 12 C 0.4229 0.0549 0.7493 0
M  V30 13 C 1.0071 0.0706 -1.7127 0
M  V30 14 C 1.7307 0.7963 0.9885 0
M  V30 15 C 2.4576 0.4518 -1.4286 0
M  V30 16 C 2.6638 1.0074 -0.0435 0
M  V30 17 C 2.0119 1.2934 2.2749 0
M  V30 18 C 3.8541 1.6993 0.2319 0
M  V30 19 C 3.1937 1.9885 2.5357 0
M  V30 20 C 4.1061 2.1858 1.5088 0
M  V30 21 O 5.2767 2.8539 1.7157 0
M  V30 22 H -3.0532 -2.66 1.1601 0
M  V30 23 H -3.5319 -1.8746 -1.7239 0
M  V30 24 H -0.8379 -3.5405 -0.5194 0
M  V30 25 H -0.7773 -2.5596 0.9445 0
M  V30 26 H -5.1657 -1.7482 -0.1807 0
M  V30 27 H -0.9081 -1.7315 -1.9534 0
M  V30 28 H -2.2483 -0.3611 1.4706 0
M  V30 29 H -2.9147 1.0419 0.6634 0
M  V30 30 H -1.6792 1.2942 -1.9168 0
M  V30 31 H -2.3752 -0.0356 -2.844 0
M  V30 32 H -3.3996 0.9575 -1.8026 0
M  V30 33 H 1.1387 -1.6086 -0.4192 0
M  V30 34 H -0.654 1.825 0.0596 0
M  V30 35 H -0.7934 1.5377 1.7774 0
M  V30 36 H 0.3116 -0.6577 1.5786 0
M  V30 37 H 0.9643 -0.4864 -2.656 0
M  V30 38 H 0.4263 0.9855 -1.8575 0
M  V30 39 H 2.7807 1.1853 -2.1772 0
M  V30 40 H 3.0945 -0.4348 -1.5389 0
M  V30 41 H 1.3035 1.1384 3.0864 0
M  V30 42 H 4.5922 1.858 -0.5504 0
M  V30 43 H 3.3812 2.361 3.5374 0
M  V30 44 H 5.31 3.1355 2.6444 0
M  V30 END ATOM
M  V30 BEGIN BOND
M  V30 1 1 1 2
M  V30 2 1 2 3
M  V30 3 1 2 4
M  V30 4 1 3 5
M  V30 5 1 3 6
M  V30 6 1 4 7
M  V30 7 1 6 8
M  V30 8 1 6 9
M  V30 9 1 7 10
M  V30 10 1 8 11
M  V30 11 1 10 12
M  V30 12 1 10 13
M  V30 13 1 12 14
M  V30 14 1 13 15
M  V30 15 2 14 16
M  V30 16 1 14 17
M  V30 17 1 16 18
M  V30 18 2 17 19
M  V30 19 2 18 20
M  V30 20 1 20 21
M  V30 21 1 6 7
M  V30 22 1 11 12
M  V30 23 1 15 16
M  V30 24 1 19 20
M  V30 25 1 2 22
M  V30 26 1 3 23
M  V30 27 1 4 24
M  V30 28 1 4 25
M  V30 29 1 5 26
M  V30 30 1 7 27
M  V30 31 1 8 28
M  V30 32 1 8 29
M  V30 33 1 9 30
M  V30 34 1 9 31
M  V30 35 1 9 32
M  V30 36 1 10 33
M  V30 37 1 11 34
M  V30 38 1 11 35
M  V30 39 1 12 36
M  V30 40 1 13 37
M  V30 41 1 13 38
M  V30 42 1 15 39
M  V30 43 1 15 40
M  V30 44 1 17 41
M  V30 45 1 18 42
M  V30 46 1 19 43
M  V30 47 1 21 44
M  V30 END BOND
M  V30 END CTAB
M  END
>  <Column 1>
301

>  <level_0>
342

>  <index>
342

>  <Unnamed: 0>
342

>  <NO.>
343

>  <Name>
16a-fluoroestradiol

>  <IUPAC_name>
16-fluoro-13-methyl-6-7-8-9-11-12-14-15-16-17-decahydrocyclopenta[a]phenanthrene-3-17-diol

>  <SMILES>
CC12CCC3c4ccc(O)cc4CCC3C1CC(F)C2O

>  <CID>
14211618

>  <logBB>
-0.3

>  <BBB+/BBB->
BBB+

>  <Inchi>
InChI=1S/C18H23FO2/c1-18-7-6-13-12-5-3-11(20)8-10(12)2-4-14(13)15(18)9-16(19)17(18)21/h3-5-8-13-17-20-21H-2-4-6-7-9H2-1H3

>  <threshold>


>  <reference>
R3|R38|R25|R41|R40|R2|R2|R27|R21|R27|R43|R46|R47|

>  <group>
A

>  <Class>
1

>  <ABC>
17.13

>  <ABCGG>
13.55

>  <nAcid>
0

>  <nBase>
0

>  <nAromAtom>
6

>  <nAromBond>
6

>  <nAtom>
44

>  <nHeavyAtom>
21

>  <nSpiro>
0

>  <nBridgehead>
0

>  <nHetero>
3

>  <nN>
0

>  <nO>
2

>  <nF>
1

>  <BalabanJ>
1.58

>  <BertzCT>
572.34

>  <nBonds>
47

>  <nBondsO>
24

>  <nBondsS>
41

>  <nBondsD>
0

>  <nBondsT>
0

>  <nBondsA>
6

>  <nBondsM>
6

>  <nBondsKS>
44

>  <nBondsKD>
3

>  <RNCG>
0.31

>  <RPCG>
0.18

>  <FCSP3>
0.67

>  <SZ>
26

>  <Sm>
24.18

>  <Sv>
26.31

>  <Sse>
43.83

>  <Sp>
28.48

>  <Si>
49.74

>  <MZ>
0.59

>  <Mm>
0.55

>  <Mv>
0.6

>  <Mse>
1

>  <Mp>
0.65

>  <Mi>
1.13

>  <NsCH3>
1

>  <NdCH2>
0

>  <NssCH2>
5

>  <NtCH>
0

>  <NdsCH>
0

>  <NaaCH>
3

>  <NsssCH>
5

>  <NddC>
0

>  <NtsC>
0

>  <NdssC>
0

>  <NaasC>
3

>  <NaaaC>
0

>  <NssssC>
1

>  <NsNH3>
0

>  <NsNH2>
0

>  <NssNH2>
0

>  <NdNH>
0

>  <NssNH>
0

>  <NaaNH>
0

>  <NtN>
0

>  <NsssNH>
0

>  <NdsN>
0

>  <NaaN>
0

>  <NsssN>
0

>  <NddsN>
0

>  <NaasN>
0

>  <NssssN>
0

>  <NsOH>
2

>  <NdO>
0

>  <NssO>
0

>  <NaaO>
0

>  <NsF>
1

>  <NsSiH3>
0

>  <NssSiH2>
0

>  <NsssSiH>
0

>  <NssssSi>
0

>  <NsPH2>
0

>  <NssPH>
0

>  <NsssP>
0

>  <NdsssP>
0

>  <NsssssP>
0

>  <NsSH>
0

>  <NdS>
0

>  <NssS>
0

>  <NaaS>
0

>  <NdssS>
0

>  <NddssS>
0

>  <NsCl>
0

>  <NsBr>
0

>  <NsI>
0

>  <fragCpx>
156.03

>  <fMF>
0.39

>  <nHBAcc>
2

>  <nHBDon>
2

>  <Kier1>
14.58

>  <Kier2>
5

>  <Lipinski>
1

>  <GhoseFilter>
1

>  <FilterItLogS>
-3.34

>  <VMcGowan>
221.64

>  <LabuteASA>
124.55

>  <PEOE_VSA1>
10.21

>  <PEOE_VSA2>
0

>  <PEOE_VSA3>
4.39

>  <PEOE_VSA4>
0

>  <PEOE_VSA5>
0

>  <PEOE_VSA6>
12.99

>  <PEOE_VSA7>
78.53

>  <PEOE_VSA8>
0

>  <PEOE_VSA9>
6.1

>  <PEOE_VSA10>
11.92

>  <PEOE_VSA11>
0

>  <PEOE_VSA12>
0

>  <PEOE_VSA13>
0

>  <SMR_VSA1>
14.6

>  <SMR_VSA2>
0

>  <SMR_VSA3>
0

>  <SMR_VSA4>
17.25

>  <SMR_VSA5>
57.22

>  <SMR_VSA6>
0

>  <SMR_VSA7>
29.33

>  <SMR_VSA8>
0

>  <SMR_VSA9>
5.75

>  <SlogP_VSA1>
0

>  <SlogP_VSA2>
22.49

>  <SlogP_VSA3>
6.42

>  <SlogP_VSA4>
17.25

>  <SlogP_VSA5>
49.65

>  <SlogP_VSA6>
18.2

>  <SlogP_VSA7>
0

>  <SlogP_VSA8>
0

>  <SlogP_VSA9>
0

>  <SlogP_VSA10>
4.39

>  <SlogP_VSA11>
5.75

>  <EState_VSA1>
12.28

>  <EState_VSA2>
5.41

>  <EState_VSA3>
29.92

>  <EState_VSA4>
25.68

>  <EState_VSA5>
11.13

>  <EState_VSA6>
6.07

>  <EState_VSA7>
6.07

>  <EState_VSA8>
12.99

>  <EState_VSA9>
0

>  <EState_VSA10>
14.6

>  <VSA_EState1>
14.09

>  <VSA_EState2>
0

>  <VSA_EState3>
19.93

>  <VSA_EState4>
2.37

>  <VSA_EState5>
1.59

>  <VSA_EState6>
5.72

>  <VSA_EState7>
2.63

>  <VSA_EState8>
2.09

>  <VSA_EState9>
0

>  <apol>
47.56

>  <bpol>
24.19

>  <nRing>
4

>  <nHRing>
0

>  <naRing>
1

>  <naHRing>
0

>  <nARing 2>
3

>  <nAHRing 2>
0

>  <nFRing>
1

>  <nFHRing>
0

>  <nFaRing>
0

>  <nFaHRing>
0

>  <nFARing 2>
1

>  <nFAHRing 2>
0

>  <nRot>
0

>  <SLogP>
3.56

>  <SMR>
79.01

>  <TopoPSA(NO)>
40.46

>  <TopoPSA>
40.46

>  <JGI1>
0.23

>  <JGI2>
0.11

>  <JGI3>
0.07

>  <JGI4>
0.05

>  <JGI5>
0.03

>  <Diameter>
10

>  <Radius>
5

>  <TMWC10>
122.24

>  <TSRW10>
70.76

>  <MW>
290.17

>  <AMW>
6.59

>  <WPath>
826

>  <WPol>
42

>  <Zagreb1>
124

>  <Zagreb2>
156

>  <mZagreb2>
4.35

>  <yes>


>  <nAR-cont>
0.691115

>  <nHA-cont>
0.994529749

>  <MWHBN>
0.234819272

>  <MWHBN-cont>
0.98152037

>  <TPSA-cont>
0.717564076

>  <pka_cont>
0.97

>  <yes.1>


>  <BBB_SCORE>
5.078053455

>  <MMFF94 Energy>
74.256

$$$$
Compound 238
Actelion Java MolfileCreator 2.0

  0  0  0  0  0  0              0 V3000
M  V30 BEGIN CTAB
M  V30 COUNTS 33 34 0 0 0
M  V30 BEGIN ATOM
M  V30 1 O 3.4149 -1.4284 2.3815 0
M  V30 2 C 2.5683 -1.1786 1.5306 0
M  V30 3 N 2.7116 -0.1397 0.6696 0
M  V30 4 N 1.4476 -1.9324 1.4007 0
M  V30 5 C 1.8464 0.2321 -0.3205 0
M  V30 6 C 0.4367 -1.7533 0.4984 0
M  V30 7 O 2.1384 1.1819 -1.0481 0
M  V30 8 C 0.5469 -0.5612 -0.4513 0
M  V30 9 O -0.5095 -2.5414 0.4927 0
M  V30 10 C -0.6107 0.411 -0.087 0
M  V30 11 C 0.486 -1.1178 -1.9047 0
M  V30 12 C -1.639 0.706 -0.9116 0
M  V30 13 C -0.5447 1.056 1.2928 0
M  V30 14 C 1.6345 -2.0569 -2.2741 0
M  V30 15 C -2.7457 1.6716 -0.5924 0
M  V30 16 C -1.852 1.71 1.7467 0
M  V30 17 C -2.4611 2.5408 0.6282 0
M  V30 18 H 3.5566 0.4074 0.7581 0
M  V30 19 H 1.3523 -2.7142 2.0338 0
M  V30 20 H 0.4895 -0.29 -2.626 0
M  V30 21 H -0.45 -1.6702 -2.0594 0
M  V30 22 H -1.7244 0.2454 -1.8921 0
M  V30 23 H 0.2448 1.8175 1.2836 0
M  V30 24 H -0.2672 0.3158 2.0506 0
M  V30 25 H 1.5102 -2.4052 -3.3047 0
M  V30 26 H 1.6582 -2.9391 -1.6278 0
M  V30 27 H 2.604 -1.5543 -2.2107 0
M  V30 28 H -2.9218 2.3202 -1.4581 0
M  V30 29 H -3.6656 1.0969 -0.4311 0
M  V30 30 H -2.5635 0.9347 2.0582 0
M  V30 31 H -1.6632 2.3398 2.6235 0
M  V30 32 H -1.7703 3.3484 0.3544 0
M  V30 33 H -3.3876 3.0161 0.9693 0
M  V30 END ATOM
M  V30 BEGIN BOND
M  V30 1 2 1 2
M  V30 2 1 2 3
M  V30 3 1 2 4
M  V30 4 1 3 5
M  V30 5 1 4 6
M  V30 6 2 5 7
M  V30 7 1 5 8
M  V30 8 2 6 9
M  V30 9 1 8 10
M  V30 10 1 8 11
M  V30 11 2 10 12
M  V30 12 1 10 13
M  V30 13 1 11 14
M  V30 14 1 12 15
M  V30 15 1 13 16
M  V30 16 1 15 17
M  V30 17 1 6 8
M  V30 18 1 16 17
M  V30 19 1 3 18
M  V30 20 1 4 19
M  V30 21 1 11 20
M  V30 22 1 11 21
M  V30 23 1 12 22
M  V30 24 1 13 23
M  V30 25 1 13 24
M  V30 26 1 14 25
M  V30 27 1 14 26
M  V30 28 1 14 27
M  V30 29 1 15 28
M  V30 30 1 15 29
M  V30 31 1 16 30
M  V30 32 1 16 31
M  V30 33 1 17 32
M  V30 34 1 17 33
M  V30 END BOND
M  V30 END CTAB
M  END
>  <Column 1>
302

>  <level_0>
343

>  <index>
343

>  <Unnamed: 0>
343

>  <NO.>
344

>  <Name>
cyclobarbital

>  <IUPAC_name>
5-(cyclohexen-1-yl)-5-ethyl-1-3-diazinane-2-4-6-trione

>  <SMILES>
CCC1(C2=CCCCC2)C(=O)NC(=O)NC1=O

>  <CID>
5838

>  <logBB>
-0.3

>  <BBB+/BBB->
BBB+

>  <Inchi>
InChI=1S/C12H16N2O3/c1-2-12(8-6-4-3-5-7-8)9(15)13-11(17)14-10(12)16/h6H-2-5-7H2-1H3-(H2-13-14-15-16-17)

>  <threshold>


>  <reference>
R25|R2|R2|R27|R46|

>  <group>
A

>  <Class>
1

>  <ABC>
12.87

>  <ABCGG>
11.72

>  <nAcid>
0

>  <nBase>
0

>  <nAromAtom>
0

>  <nAromBond>
0

>  <nAtom>
33

>  <nHeavyAtom>
17

>  <nSpiro>
0

>  <nBridgehead>
0

>  <nHetero>
5

>  <nN>
2

>  <nO>
3

>  <nF>
0

>  <BalabanJ>
2.2

>  <BertzCT>
391.97

>  <nBonds>
34

>  <nBondsO>
18

>  <nBondsS>
30

>  <nBondsD>
4

>  <nBondsT>
0

>  <nBondsA>
0

>  <nBondsM>
4

>  <nBondsKS>
30

>  <nBondsKD>
4

>  <RNCG>
0.16

>  <RPCG>
0.19

>  <FCSP3>
0.58

>  <SZ>
21

>  <Sm>
19.67

>  <Sv>
19.99

>  <Sse>
33.42

>  <Sp>
21.15

>  <Si>
37.53

>  <MZ>
0.64

>  <Mm>
0.6

>  <Mv>
0.61

>  <Mse>
1.01

>  <Mp>
0.64

>  <Mi>
1.14

>  <NsCH3>
1

>  <NdCH2>
0

>  <NssCH2>
5

>  <NtCH>
0

>  <NdsCH>
1

>  <NaaCH>
0

>  <NsssCH>
0

>  <NddC>
0

>  <NtsC>
0

>  <NdssC>
4

>  <NaasC>
0

>  <NaaaC>
0

>  <NssssC>
1

>  <NsNH3>
0

>  <NsNH2>
0

>  <NssNH2>
0

>  <NdNH>
0

>  <NssNH>
2

>  <NaaNH>
0

>  <NtN>
0

>  <NsssNH>
0

>  <NdsN>
0

>  <NaaN>
0

>  <NsssN>
0

>  <NddsN>
0

>  <NaasN>
0

>  <NssssN>
0

>  <NsOH>
0

>  <NdO>
3

>  <NssO>
0

>  <NaaO>
0

>  <NsF>
0

>  <NsSiH3>
0

>  <NssSiH2>
0

>  <NsssSiH>
0

>  <NssssSi>
0

>  <NsPH2>
0

>  <NssPH>
0

>  <NsssP>
0

>  <NdsssP>
0

>  <NsssssP>
0

>  <NsSH>
0

>  <NdS>
0

>  <NssS>
0

>  <NaaS>
0

>  <NdssS>
0

>  <NddssS>
0

>  <NsCl>
0

>  <NsBr>
0

>  <NsI>
0

>  <fragCpx>
52.05

>  <fMF>
0.36

>  <nHBAcc>
3

>  <nHBDon>
2

>  <Kier1>
13.43

>  <Kier2>
5.33

>  <Lipinski>
1

>  <GhoseFilter>
1

>  <FilterItLogS>
-2.97

>  <VMcGowan>
178.59

>  <LabuteASA>
99.64

>  <PEOE_VSA1>
0

>  <PEOE_VSA2>
20.22

>  <PEOE_VSA3>
4.79

>  <PEOE_VSA4>
0

>  <PEOE_VSA5>
0

>  <PEOE_VSA6>
13

>  <PEOE_VSA7>
37.68

>  <PEOE_VSA8>
0

>  <PEOE_VSA9>
0

>  <PEOE_VSA10>
5.41

>  <PEOE_VSA11>
0

>  <PEOE_VSA12>
11.81

>  <PEOE_VSA13>
0

>  <SMR_VSA1>
14.38

>  <SMR_VSA2>
0

>  <SMR_VSA3>
10.63

>  <SMR_VSA4>
5.41

>  <SMR_VSA5>
39.03

>  <SMR_VSA6>
0

>  <SMR_VSA7>
11.65

>  <SMR_VSA8>
0

>  <SMR_VSA9>
0

>  <SlogP_VSA1>
10.63

>  <SlogP_VSA2>
17.85

>  <SlogP_VSA3>
9.59

>  <SlogP_VSA4>
5.41

>  <SlogP_VSA5>
39.03

>  <SlogP_VSA6>
11.65

>  <SlogP_VSA7>
0

>  <SlogP_VSA8>
0

>  <SlogP_VSA9>
0

>  <SlogP_VSA10>
4.79

>  <SlogP_VSA11>
0

>  <EState_VSA1>
23.26

>  <EState_VSA2>
0

>  <EState_VSA3>
6.42

>  <EState_VSA4>
31.26

>  <EState_VSA5>
0

>  <EState_VSA6>
6.92

>  <EState_VSA7>
6.08

>  <EState_VSA8>
10.63

>  <EState_VSA9>
0

>  <EState_VSA10>
14.38

>  <VSA_EState1>
0

>  <VSA_EState2>
35.15

>  <VSA_EState3>
4.4

>  <VSA_EState4>
-0.32

>  <VSA_EState5>
-0.97

>  <VSA_EState6>
-0.72

>  <VSA_EState7>
6.08

>  <VSA_EState8>
1.8

>  <VSA_EState9>
0

>  <apol>
35.31

>  <bpol>
19.8

>  <nRing>
2

>  <nHRing>
1

>  <naRing>
0

>  <naHRing>
0

>  <nARing 2>
2

>  <nAHRing 2>
1

>  <nFRing>
0

>  <nFHRing>
0

>  <nFaRing>
0

>  <nFaHRing>
0

>  <nFARing 2>
0

>  <nFAHRing 2>
0

>  <nRot>
2

>  <SLogP>
1.25

>  <SMR>
60.96

>  <TopoPSA(NO)>
75.27

>  <TopoPSA>
75.27

>  <JGI1>
0.25

>  <JGI2>
0.11

>  <JGI3>
0.08

>  <JGI4>
0.04

>  <JGI5>
0.03

>  <Diameter>
8

>  <Radius>
4

>  <TMWC10>
108.02

>  <TSRW10>
50.36

>  <MW>
236.12

>  <AMW>
7.16

>  <WPath>
458

>  <WPol>
31

>  <Zagreb1>
88

>  <Zagreb2>
107

>  <mZagreb2>
3.88

>  <yes>


>  <nAR-cont>
1

>  <nHA-cont>
0.976740822

>  <MWHBN>
0.325389562

>  <MWHBN-cont>
0.758853342

>  <TPSA-cont>
0.47456866

>  <pka_cont>
0.97

>  <yes.1>


>  <BBB_SCORE>
4.549158156

>  <MMFF94 Energy>
-87.323

$$$$
Compound 239
Actelion Java MolfileCreator 2.0

  0  0  0  0  0  0              0 V3000
M  V30 BEGIN CTAB
M  V30 COUNTS 41 44 0 0 0
M  V30 BEGIN ATOM
M  V30 1 Cl -1.8689 5.6148 0.8935 0
M  V30 2 C -2.3277 4.101 1.5972 0
M  V30 3 C -2.019 2.8568 1.0203 0
M  V30 4 C -2.9827 4.1652 2.8346 0
M  V30 5 C -1.439 2.8133 -0.3533 0
M  V30 6 C -2.3591 1.6832 1.7289 0
M  V30 7 C -3.3336 2.9998 3.5127 0
M  V30 8 O -1.9892 3.4727 -1.2315 0
M  V30 9 N -0.3398 1.9962 -0.5993 0
M  V30 10 N -1.9871 0.4055 1.2521 0
M  V30 11 C -3.0161 1.7581 2.9687 0
M  V30 12 C 0.2364 1.1186 0.4018 0
M  V30 13 C 0.1927 1.8976 -1.9486 0
M  V30 14 C -0.7787 0.0824 0.6727 0
M  V30 15 C -2.7075 -0.7588 1.3442 0
M  V30 16 C -0.8355 -1.2794 0.4401 0
M  V30 17 N -2.0393 -1.7896 0.8798 0
M  V30 18 C 0.1684 -2.1534 -0.1826 0
M  V30 19 N 0.0321 -3.4772 -0.3414 0
M  V30 20 N 1.354 -1.6381 -0.6562 0
M  V30 21 O 1.2167 -3.8511 -0.9733 0
M  V30 22 C 1.9493 -2.71 -1.1285 0
M  V30 23 C 3.2779 -2.8337 -1.7905 0
M  V30 24 C 4.2108 -3.7386 -0.988 0
M  V30 25 C 3.1319 -3.333 -3.2266 0
M  V30 26 H -3.2181 5.1307 3.2792 0
M  V30 27 H -3.8385 3.0627 4.4747 0
M  V30 28 H -3.2658 0.8643 3.5384 0
M  V30 29 H 0.4538 1.6993 1.3061 0
M  V30 30 H 1.1875 0.7183 0.0443 0
M  V30 31 H 0.0164 0.8849 -2.3235 0
M  V30 32 H 1.2684 2.0945 -1.9187 0
M  V30 33 H -0.2765 2.6126 -2.6291 0
M  V30 34 H -3.7103 -0.7986 1.7496 0
M  V30 35 H 3.729 -1.8337 -1.8267 0
M  V30 36 H 5.2044 -3.7759 -1.4472 0
M  V30 37 H 4.3281 -3.3698 0.0373 0
M  V30 38 H 3.8282 -4.7639 -0.9296 0
M  V30 39 H 2.4767 -2.6729 -3.8063 0
M  V30 40 H 2.7027 -4.3408 -3.2625 0
M  V30 41 H 4.1055 -3.3638 -3.7273 0
M  V30 END ATOM
M  V30 BEGIN BOND
M  V30 1 1 1 2
M  V30 2 2 2 3
M  V30 3 1 2 4
M  V30 4 1 3 5
M  V30 5 1 3 6
M  V30 6 2 4 7
M  V30 7 2 5 8
M  V30 8 1 5 9
M  V30 9 1 6 10
M  V30 10 2 6 11
M  V30 11 1 9 12
M  V30 12 1 9 13
M  V30 13 1 10 14
M  V30 14 1 10 15
M  V30 15 2 14 16
M  V30 16 2 15 17
M  V30 17 1 16 18
M  V30 18 2 18 19
M  V30 19 1 18 20
M  V30 20 1 19 21
M  V30 21 2 20 22
M  V30 22 1 22 23
M  V30 23 1 23 24
M  V30 24 1 23 25
M  V30 25 1 7 11
M  V30 26 1 12 14
M  V30 27 1 16 17
M  V30 28 1 21 22
M  V30 29 1 4 26
M  V30 30 1 7 27
M  V30 31 1 11 28
M  V30 32 1 12 29
M  V30 33 1 12 30
M  V30 34 1 13 31
M  V30 35 1 13 32
M  V30 36 1 13 33
M  V30 37 1 15 34
M  V30 38 1 23 35
M  V30 39 1 24 36
M  V30 40 1 24 37
M  V30 41 1 24 38
M  V30 42 1 25 39
M  V30 43 1 25 40
M  V30 44 1 25 41
M  V30 END BOND
M  V30 END CTAB
M  END
>  <Column 1>
303

>  <level_0>
344

>  <index>
344

>  <Unnamed: 0>
344

>  <NO.>
345

>  <Name>
fg-8205

>  <IUPAC_name>
7-chloro-5-methyl-3-(5-propan-2-yl-1-2-4-oxadiazol-3-yl)-4h-imidazo[1-5-a][1-4]benzodiazepin-6-one

>  <SMILES>
CC(C)c1nc(-c2ncn3c2CN(C)C(=O)c2c(Cl)cccc2-3)no1

>  <CID>
129710

>  <logBB>
-0.3

>  <BBB+/BBB->
BBB+

>  <Inchi>
InChI=1S/C17H16ClN5O2/c1-9(2)16-20-15(21-25-16)14-12-7-22(3)17(24)13-10(18)5-4-6-11(13)23(12)8-19-14/h4-6-8-9H-7H2-1-3H3

>  <threshold>


>  <reference>
R2|R2|R8|R27|R40|R3|R4|R12|R21|R25|R27|R36|R38|R41|R43|R46|R47|R48|R49|R49|

>  <group>
A

>  <Class>
1

>  <ABC>
19.98

>  <ABCGG>
16.69

>  <nAcid>
0

>  <nBase>
0

>  <nAromAtom>
16

>  <nAromBond>
16

>  <nAtom>
41

>  <nHeavyAtom>
25

>  <nSpiro>
0

>  <nBridgehead>
0

>  <nHetero>
8

>  <nN>
5

>  <nO>
2

>  <nF>
0

>  <BalabanJ>
1.54

>  <BertzCT>
975.33

>  <nBonds>
44

>  <nBondsO>
28

>  <nBondsS>
27

>  <nBondsD>
1

>  <nBondsT>
0

>  <nBondsA>
16

>  <nBondsM>
17

>  <nBondsKS>
36

>  <nBondsKD>
8

>  <RNCG>
0.17

>  <RPCG>
0.13

>  <FCSP3>
0.29

>  <SZ>
31

>  <Sm>
29.79

>  <Sv>
27.64

>  <Sse>
41.85

>  <Sp>
28.95

>  <Si>
46.35

>  <MZ>
0.76

>  <Mm>
0.73

>  <Mv>
0.67

>  <Mse>
1.02

>  <Mp>
0.71

>  <Mi>
1.13

>  <NsCH3>
3

>  <NdCH2>
0

>  <NssCH2>
1

>  <NtCH>
0

>  <NdsCH>
0

>  <NaaCH>
4

>  <NsssCH>
1

>  <NddC>
0

>  <NtsC>
0

>  <NdssC>
1

>  <NaasC>
7

>  <NaaaC>
0

>  <NssssC>
0

>  <NsNH3>
0

>  <NsNH2>
0

>  <NssNH2>
0

>  <NdNH>
0

>  <NssNH>
0

>  <NaaNH>
0

>  <NtN>
0

>  <NsssNH>
0

>  <NdsN>
0

>  <NaaN>
3

>  <NsssN>
1

>  <NddsN>
0

>  <NaasN>
1

>  <NssssN>
0

>  <NsOH>
0

>  <NdO>
1

>  <NssO>
0

>  <NaaO>
1

>  <NsF>
0

>  <NsSiH3>
0

>  <NssSiH2>
0

>  <NsssSiH>
0

>  <NssssSi>
0

>  <NsPH2>
0

>  <NssPH>
0

>  <NsssP>
0

>  <NdsssP>
0

>  <NsssssP>
0

>  <NsSH>
0

>  <NdS>
0

>  <NssS>
0

>  <NaaS>
0

>  <NdssS>
0

>  <NddssS>
0

>  <NsCl>
1

>  <NsBr>
0

>  <NsI>
0

>  <fragCpx>
184.08

>  <fMF>
0.46

>  <nHBAcc>
6

>  <nHBDon>
0

>  <Kier1>
18.37

>  <Kier2>
7.2

>  <Lipinski>
1

>  <GhoseFilter>
1

>  <FilterItLogS>
-4.87

>  <VMcGowan>
246.43

>  <LabuteASA>
148.78

>  <PEOE_VSA1>
9.42

>  <PEOE_VSA2>
9.36

>  <PEOE_VSA3>
4.98

>  <PEOE_VSA4>
4.98

>  <PEOE_VSA5>
0

>  <PEOE_VSA6>
36.67

>  <PEOE_VSA7>
12.13

>  <PEOE_VSA8>
12.97

>  <PEOE_VSA9>
28.51

>  <PEOE_VSA10>
12.02

>  <PEOE_VSA11>
0

>  <PEOE_VSA12>
11.72

>  <PEOE_VSA13>
5.91

>  <SMR_VSA1>
9.32

>  <SMR_VSA2>
0

>  <SMR_VSA3>
24.59

>  <SMR_VSA4>
0

>  <SMR_VSA5>
26.31

>  <SMR_VSA6>
7.05

>  <SMR_VSA7>
46.7

>  <SMR_VSA8>
0

>  <SMR_VSA9>
17.21

>  <SlogP_VSA1>
0

>  <SlogP_VSA2>
37.55

>  <SlogP_VSA3>
6.54

>  <SlogP_VSA4>
0

>  <SlogP_VSA5>
41.71

>  <SlogP_VSA6>
29.05

>  <SlogP_VSA7>
5.02

>  <SlogP_VSA8>
17.21

>  <SlogP_VSA9>
0

>  <SlogP_VSA10>
0

>  <SlogP_VSA11>
0

>  <EState_VSA1>
0

>  <EState_VSA2>
11.83

>  <EState_VSA3>
40.23

>  <EState_VSA4>
5.69

>  <EState_VSA5>
0

>  <EState_VSA6>
24.34

>  <EState_VSA7>
30.55

>  <EState_VSA8>
15.12

>  <EState_VSA9>
16.12

>  <EState_VSA10>
4.79

>  <VSA_EState1>
7.16

>  <VSA_EState2>
23.23

>  <VSA_EState3>
4.46

>  <VSA_EState4>
2.57

>  <VSA_EState5>
0.97

>  <VSA_EState6>
5.38

>  <VSA_EState7>
1.66

>  <VSA_EState8>
4.33

>  <VSA_EState9>
1.73

>  <apol>
48.34

>  <bpol>
24.87

>  <nRing>
4

>  <nHRing>
3

>  <naRing>
3

>  <naHRing>
2

>  <nARing 2>
1

>  <nAHRing 2>
1

>  <nFRing>
1

>  <nFHRing>
1

>  <nFaRing>
0

>  <nFaHRing>
0

>  <nFARing 2>
1

>  <nFAHRing 2>
1

>  <nRot>
2

>  <SLogP>
3.28

>  <SMR>
91.75

>  <TopoPSA(NO)>
77.05

>  <TopoPSA>
77.05

>  <JGI1>
0.18

>  <JGI2>
0.09

>  <JGI3>
0.05

>  <JGI4>
0.04

>  <JGI5>
0.03

>  <Diameter>
11

>  <Radius>
6

>  <TMWC10>
130.48

>  <TSRW10>
76.35

>  <MW>
357.1

>  <AMW>
8.71

>  <WPath>
1375

>  <WPol>
47

>  <Zagreb1>
140

>  <Zagreb2>
172

>  <mZagreb2>
5.33

>  <yes>


>  <nAR-cont>
0.816016

>  <nHA-cont>
0.921834225

>  <MWHBN>
0.317509208

>  <MWHBN-cont>
0.785469548

>  <TPSA-cont>
0.462143155

>  <pka_cont>
0.97

>  <yes.1>


>  <BBB_SCORE>
4.325340856

>  <MMFF94 Energy>
44.419

$$$$
Compound 240
Actelion Java MolfileCreator 2.0

  0  0  0  0  0  0              0 V3000
M  V30 BEGIN CTAB
M  V30 COUNTS 38 41 0 0 0
M  V30 BEGIN ATOM
M  V30 1 Cl -3.6685 3.0155 4.5667 0
M  V30 2 C -2.4252 1.817 4.4455 0
M  V30 3 C -2.033 1.228 3.2302 0
M  V30 4 C -1.7619 1.4937 5.6369 0
M  V30 5 C -2.8156 1.5127 1.9963 0
M  V30 6 C -0.9465 0.3255 3.2384 0
M  V30 7 C -0.7022 0.5901 5.6355 0
M  V30 8 O -4.041 1.4806 2.0074 0
M  V30 9 N -2.1546 1.7729 0.8257 0
M  V30 10 N -0.4544 -0.2549 2.0449 0
M  V30 11 C -0.2871 0.0109 4.4396 0
M  V30 12 C -0.7306 1.7725 0.6278 0
M  V30 13 C -0.2904 0.3815 0.8308 0
M  V30 14 C 0.0186 -1.5344 1.8883 0
M  V30 15 C 0.3049 -0.556 0.0041 0
M  V30 16 N 0.496 -1.7409 0.6835 0
M  V30 17 C 0.7169 -0.4323 -1.4026 0
M  V30 18 N 0.6057 0.6896 -2.1298 0
M  V30 19 N 1.2685 -1.496 -2.0749 0
M  V30 20 O 1.1187 0.3194 -3.3736 0
M  V30 21 C 1.4904 -0.9902 -3.2649 0
M  V30 22 C 2.0769 -1.6417 -4.4688 0
M  V30 23 C 1.0754 -1.6692 -5.6219 0
M  V30 24 C 3.3754 -0.955 -4.888 0
M  V30 25 H -2.0666 1.9545 6.575 0
M  V30 26 H -0.1912 0.351 6.566 0
M  V30 27 H -2.7593 1.9452 0.031 0
M  V30 28 H 0.5661 -0.6651 4.4627 0
M  V30 29 H -0.2623 2.4544 1.3457 0
M  V30 30 H -0.5372 2.1514 -0.3765 0
M  V30 31 H -0.0117 -2.2724 2.6794 0
M  V30 32 H 2.3155 -2.6803 -4.2062 0
M  V30 33 H 1.4906 -2.2025 -6.4835 0
M  V30 34 H 0.1507 -2.1773 -5.3258 0
M  V30 35 H 0.8076 -0.6579 -5.949 0
M  V30 36 H 4.0998 -0.9511 -4.0656 0
M  V30 37 H 3.2047 0.0862 -5.1841 0
M  V30 38 H 3.8328 -1.4753 -5.7362 0
M  V30 END ATOM
M  V30 BEGIN BOND
M  V30 1 1 1 2
M  V30 2 2 2 3
M  V30 3 1 2 4
M  V30 4 1 3 5
M  V30 5 1 3 6
M  V30 6 2 4 7
M  V30 7 2 5 8
M  V30 8 1 5 9
M  V30 9 1 6 10
M  V30 10 2 6 11
M  V30 11 1 9 12
M  V30 12 1 10 13
M  V30 13 1 10 14
M  V30 14 2 13 15
M  V30 15 2 14 16
M  V30 16 1 15 17
M  V30 17 2 17 18
M  V30 18 1 17 19
M  V30 19 1 18 20
M  V30 20 2 19 21
M  V30 21 1 21 22
M  V30 22 1 22 23
M  V30 23 1 22 24
M  V30 24 1 7 11
M  V30 25 1 12 13
M  V30 26 1 15 16
M  V30 27 1 20 21
M  V30 28 1 4 25
M  V30 29 1 7 26
M  V30 30 1 9 27
M  V30 31 1 11 28
M  V30 32 1 12 29
M  V30 33 1 12 30
M  V30 34 1 14 31
M  V30 35 1 22 32
M  V30 36 1 23 33
M  V30 37 1 23 34
M  V30 38 1 23 35
M  V30 39 1 24 36
M  V30 40 1 24 37
M  V30 41 1 24 38
M  V30 END BOND
M  V30 END CTAB
M  END
>  <Column 1>
304

>  <level_0>
347

>  <index>
347

>  <Unnamed: 0>
347

>  <NO.>
348

>  <Name>


>  <IUPAC_name>


>  <SMILES>
CC(C)c1nc(-c2ncn3c2CNC(=O)c2c(Cl)cccc2-3)no1

>  <CID>


>  <logBB>
-0.3

>  <BBB+/BBB->
BBB+

>  <Inchi>
InChI=1S/C16H14ClN5O2/c1-8(2)16-20-14(21-24-16)13-11-6-18-15(23)12-9(17)4-3-5-10(12)22(11)7-19-13/h3-5-7-8H-6H2-1-2H3-(H-18-23)

>  <threshold>


>  <reference>
R35|

>  <group>
A

>  <Class>
1

>  <ABC>
19.21

>  <ABCGG>
15.87

>  <nAcid>
0

>  <nBase>
0

>  <nAromAtom>
16

>  <nAromBond>
16

>  <nAtom>
38

>  <nHeavyAtom>
24

>  <nSpiro>
0

>  <nBridgehead>
0

>  <nHetero>
8

>  <nN>
5

>  <nO>
2

>  <nF>
0

>  <BalabanJ>
1.5

>  <BertzCT>
943.85

>  <nBonds>
41

>  <nBondsO>
27

>  <nBondsS>
24

>  <nBondsD>
1

>  <nBondsT>
0

>  <nBondsA>
16

>  <nBondsM>
17

>  <nBondsKS>
33

>  <nBondsKD>
8

>  <RNCG>
0.17

>  <RPCG>
0.12

>  <FCSP3>
0.25

>  <SZ>
29.67

>  <Sm>
28.62

>  <Sv>
26.1

>  <Sse>
38.96

>  <Sp>
27.15

>  <Si>
42.93

>  <MZ>
0.78

>  <Mm>
0.75

>  <Mv>
0.69

>  <Mse>
1.03

>  <Mp>
0.71

>  <Mi>
1.13

>  <NsCH3>
2

>  <NdCH2>
0

>  <NssCH2>
1

>  <NtCH>
0

>  <NdsCH>
0

>  <NaaCH>
4

>  <NsssCH>
1

>  <NddC>
0

>  <NtsC>
0

>  <NdssC>
1

>  <NaasC>
7

>  <NaaaC>
0

>  <NssssC>
0

>  <NsNH3>
0

>  <NsNH2>
0

>  <NssNH2>
0

>  <NdNH>
0

>  <NssNH>
1

>  <NaaNH>
0

>  <NtN>
0

>  <NsssNH>
0

>  <NdsN>
0

>  <NaaN>
3

>  <NsssN>
0

>  <NddsN>
0

>  <NaasN>
1

>  <NssssN>
0

>  <NsOH>
0

>  <NdO>
1

>  <NssO>
0

>  <NaaO>
1

>  <NsF>
0

>  <NsSiH3>
0

>  <NssSiH2>
0

>  <NsssSiH>
0

>  <NssssSi>
0

>  <NsPH2>
0

>  <NssPH>
0

>  <NsssP>
0

>  <NdsssP>
0

>  <NsssssP>
0

>  <NsSH>
0

>  <NdS>
0

>  <NssS>
0

>  <NaaS>
0

>  <NdssS>
0

>  <NddssS>
0

>  <NsCl>
1

>  <NsBr>
0

>  <NsI>
0

>  <fragCpx>
177.08

>  <fMF>
0.5

>  <nHBAcc>
6

>  <nHBDon>
1

>  <Kier1>
17.42

>  <Kier2>
6.96

>  <Lipinski>
1

>  <GhoseFilter>
1

>  <FilterItLogS>
-5.2

>  <VMcGowan>
232.34

>  <LabuteASA>
142.2

>  <PEOE_VSA1>
9.84

>  <PEOE_VSA2>
9.36

>  <PEOE_VSA3>
4.98

>  <PEOE_VSA4>
4.98

>  <PEOE_VSA5>
0

>  <PEOE_VSA6>
36.67

>  <PEOE_VSA7>
12.13

>  <PEOE_VSA8>
5.92

>  <PEOE_VSA9>
28.51

>  <PEOE_VSA10>
12.02

>  <PEOE_VSA11>
0

>  <PEOE_VSA12>
11.72

>  <PEOE_VSA13>
5.91

>  <SMR_VSA1>
9.32

>  <SMR_VSA2>
0

>  <SMR_VSA3>
25.01

>  <SMR_VSA4>
0

>  <SMR_VSA5>
26.31

>  <SMR_VSA6>
0

>  <SMR_VSA7>
46.7

>  <SMR_VSA8>
0

>  <SMR_VSA9>
17.21

>  <SlogP_VSA1>
5.32

>  <SlogP_VSA2>
25.6

>  <SlogP_VSA3>
6.54

>  <SlogP_VSA4>
0

>  <SlogP_VSA5>
41.71

>  <SlogP_VSA6>
29.05

>  <SlogP_VSA7>
5.02

>  <SlogP_VSA8>
17.21

>  <SlogP_VSA9>
0

>  <SlogP_VSA10>
0

>  <SlogP_VSA11>
0

>  <EState_VSA1>
0

>  <EState_VSA2>
11.83

>  <EState_VSA3>
40.23

>  <EState_VSA4>
5.69

>  <EState_VSA5>
0

>  <EState_VSA6>
18.46

>  <EState_VSA7>
24.48

>  <EState_VSA8>
20.44

>  <EState_VSA9>
16.12

>  <EState_VSA10>
4.79

>  <VSA_EState1>
7.1

>  <VSA_EState2>
21.17

>  <VSA_EState3>
7.26

>  <VSA_EState4>
2.47

>  <VSA_EState5>
0.87

>  <VSA_EState6>
5.32

>  <VSA_EState7>
1.64

>  <VSA_EState8>
4.25

>  <VSA_EState9>
0

>  <apol>
45.34

>  <bpol>
21.72

>  <nRing>
4

>  <nHRing>
3

>  <naRing>
3

>  <naHRing>
2

>  <nARing 2>
1

>  <nAHRing 2>
1

>  <nFRing>
1

>  <nFHRing>
1

>  <nFaRing>
0

>  <nFaHRing>
0

>  <nFARing 2>
1

>  <nFAHRing 2>
1

>  <nRot>
2

>  <SLogP>
2.94

>  <SMR>
87.13

>  <TopoPSA(NO)>
85.84

>  <TopoPSA>
85.84

>  <JGI1>
0.17

>  <JGI2>
0.09

>  <JGI3>
0.05

>  <JGI4>
0.04

>  <JGI5>
0.02

>  <Diameter>
11

>  <Radius>
6

>  <TMWC10>
127.91

>  <TSRW10>
75.08

>  <MW>
343.08

>  <AMW>
9.03

>  <WPath>
1257

>  <WPol>
44

>  <Zagreb1>
134

>  <Zagreb2>
164

>  <mZagreb2>
5.14

>  <yes>


>  <nAR-cont>
0.816016

>  <nHA-cont>
0.94700071

>  <MWHBN>
0.377920403

>  <MWHBN-cont>
0.56295875

>  <TPSA-cont>
0.400783497

>  <pka_cont>
0.97

>  <yes.1>


>  <BBB_SCORE>
3.894021828

>  <MMFF94 Energy>
33.979

$$$$
Compound 241
Actelion Java MolfileCreator 2.0

  0  0  0  0  0  0              0 V3000
M  V30 BEGIN CTAB
M  V30 COUNTS 21 21 0 0 0
M  V30 BEGIN ATOM
M  V30 1 O -0.5474 2.1128 -1.0951 0
M  V30 2 C -0.0189 1.3759 -0.2787 0
M  V30 3 N 1.1397 1.6449 0.3721 0
M  V30 4 C -0.5225 0.0111 0.1537 0 CFG=2
M  V30 5 C 1.5003 0.6858 1.2575 0
M  V30 6 C 0.4389 -0.3752 1.2912 0
M  V30 7 C -0.495 -0.9744 -1.034 0
M  V30 8 C -1.9561 0.1504 0.6785 0
M  V30 9 O 2.5128 0.6971 1.9371 0
M  V30 10 C 0.8658 -1.1732 -1.6947 0
M  V30 11 H 1.6799 2.4801 0.2127 0
M  V30 12 H 0.8898 -1.3623 1.16 0
M  V30 13 H -0.0436 -0.3417 2.2743 0
M  V30 14 H -1.1937 -0.6306 -1.8081 0
M  V30 15 H -0.8604 -1.9532 -0.6979 0
M  V30 16 H -2.0184 0.9021 1.4742 0
M  V30 17 H -2.6414 0.4676 -0.1158 0
M  V30 18 H -2.3222 -0.8003 1.0811 0
M  V30 19 H 0.7743 -1.8843 -2.5224 0
M  V30 20 H 1.2525 -0.2365 -2.107 0
M  V30 21 H 1.6044 -1.5756 -0.9962 0
M  V30 END ATOM
M  V30 BEGIN BOND
M  V30 1 2 1 2
M  V30 2 1 2 3
M  V30 3 1 2 4
M  V30 4 1 3 5
M  V30 5 1 4 6
M  V30 6 1 4 7
M  V30 7 1 4 8
M  V30 8 2 5 9
M  V30 9 1 7 10
M  V30 10 1 5 6
M  V30 11 1 3 11
M  V30 12 1 6 12
M  V30 13 1 6 13
M  V30 14 1 7 14
M  V30 15 1 7 15
M  V30 16 1 8 16
M  V30 17 1 8 17
M  V30 18 1 8 18
M  V30 19 1 10 19
M  V30 20 1 10 20
M  V30 21 1 10 21
M  V30 END BOND
M  V30 BEGIN COLLECTION
M  V30 MDLV30/STERAC1 ATOMS=(1 4)
M  V30 END COLLECTION
M  V30 END CTAB
M  END
>  <Column 1>
308

>  <level_0>
351

>  <index>
351

>  <Unnamed: 0>
351

>  <NO.>
352

>  <Name>
ethosuximide

>  <IUPAC_name>
3-ethyl-3-methylpyrrolidine-2-5-dione

>  <SMILES>
CCC1(C)CC(=O)NC1=O

>  <CID>
3291

>  <logBB>
-0.3

>  <BBB+/BBB->
BBB+

>  <Inchi>
InChI=1S/C7H11NO2/c1-3-7(2)4-5(9)8-6(7)10/h3-4H2-1-2H3-(H-8-9-10)

>  <threshold>


>  <reference>
R2|R2|R25|R27|R46|R18|R26|R27|

>  <group>
A

>  <Class>
1

>  <ABC>
7.39

>  <ABCGG>
7.66

>  <nAcid>
0

>  <nBase>
0

>  <nAromAtom>
0

>  <nAromBond>
0

>  <nAtom>
21

>  <nHeavyAtom>
10

>  <nSpiro>
0

>  <nBridgehead>
0

>  <nHetero>
3

>  <nN>
1

>  <nO>
2

>  <nF>
0

>  <BalabanJ>
2.61

>  <BertzCT>
188.05

>  <nBonds>
21

>  <nBondsO>
10

>  <nBondsS>
19

>  <nBondsD>
2

>  <nBondsT>
0

>  <nBondsA>
0

>  <nBondsM>
2

>  <nBondsKS>
19

>  <nBondsKD>
2

>  <RNCG>
0.3

>  <RPCG>
0.23

>  <FCSP3>
0.71

>  <SZ>
12.67

>  <Sm>
11.75

>  <Sv>
12.17

>  <Sse>
21.21

>  <Sp>
13.01

>  <Si>
23.99

>  <MZ>
0.6

>  <Mm>
0.56

>  <Mv>
0.58

>  <Mse>
1.01

>  <Mp>
0.62

>  <Mi>
1.14

>  <NsCH3>
2

>  <NdCH2>
0

>  <NssCH2>
2

>  <NtCH>
0

>  <NdsCH>
0

>  <NaaCH>
0

>  <NsssCH>
0

>  <NddC>
0

>  <NtsC>
0

>  <NdssC>
2

>  <NaasC>
0

>  <NaaaC>
0

>  <NssssC>
1

>  <NsNH3>
0

>  <NsNH2>
0

>  <NssNH2>
0

>  <NdNH>
0

>  <NssNH>
1

>  <NaaNH>
0

>  <NtN>
0

>  <NsssNH>
0

>  <NdsN>
0

>  <NaaN>
0

>  <NsssN>
0

>  <NddsN>
0

>  <NaasN>
0

>  <NssssN>
0

>  <NsOH>
0

>  <NdO>
2

>  <NssO>
0

>  <NaaO>
0

>  <NsF>
0

>  <NsSiH3>
0

>  <NssSiH2>
0

>  <NsssSiH>
0

>  <NssssSi>
0

>  <NsPH2>
0

>  <NssPH>
0

>  <NsssP>
0

>  <NdsssP>
0

>  <NsssssP>
0

>  <NsSH>
0

>  <NdS>
0

>  <NssS>
0

>  <NaaS>
0

>  <NdssS>
0

>  <NddssS>
0

>  <NsCl>
0

>  <NsBr>
0

>  <NsI>
0

>  <fragCpx>
10.03

>  <fMF>
0.24

>  <nHBAcc>
2

>  <nHBDon>
1

>  <Kier1>
8.1

>  <Kier2>
2.56

>  <Lipinski>
1

>  <GhoseFilter>
0

>  <FilterItLogS>
-1.96

>  <VMcGowan>
111.75

>  <LabuteASA>
59.8

>  <PEOE_VSA1>
0

>  <PEOE_VSA2>
14.91

>  <PEOE_VSA3>
0

>  <PEOE_VSA4>
0

>  <PEOE_VSA5>
0

>  <PEOE_VSA6>
13.85

>  <PEOE_VSA7>
6.42

>  <PEOE_VSA8>
6.42

>  <PEOE_VSA9>
5.41

>  <PEOE_VSA10>
0

>  <PEOE_VSA11>
0

>  <PEOE_VSA12>
11.81

>  <PEOE_VSA13>
0

>  <SMR_VSA1>
9.59

>  <SMR_VSA2>
0

>  <SMR_VSA3>
5.32

>  <SMR_VSA4>
5.41

>  <SMR_VSA5>
26.69

>  <SMR_VSA6>
0

>  <SMR_VSA7>
0

>  <SMR_VSA8>
0

>  <SMR_VSA9>
0

>  <SlogP_VSA1>
5.32

>  <SlogP_VSA2>
11.81

>  <SlogP_VSA3>
9.59

>  <SlogP_VSA4>
5.41

>  <SlogP_VSA5>
26.69

>  <SlogP_VSA6>
0

>  <SlogP_VSA7>
0

>  <SlogP_VSA8>
0

>  <SlogP_VSA9>
0

>  <SlogP_VSA10>
0

>  <SlogP_VSA11>
0

>  <EState_VSA1>
5.41

>  <EState_VSA2>
11.81

>  <EState_VSA3>
6.42

>  <EState_VSA4>
6.42

>  <EState_VSA5>
0

>  <EState_VSA6>
0

>  <EState_VSA7>
13.85

>  <EState_VSA8>
5.32

>  <EState_VSA9>
0

>  <EState_VSA10>
9.59

>  <VSA_EState1>
0

>  <VSA_EState2>
21.7

>  <VSA_EState3>
2.28

>  <VSA_EState4>
-0.43

>  <VSA_EState5>
-0.27

>  <VSA_EState6>
0

>  <VSA_EState7>
1.08

>  <VSA_EState8>
3.73

>  <VSA_EState9>
0

>  <apol>
21.73

>  <bpol>
13.34

>  <nRing>
1

>  <nHRing>
1

>  <naRing>
0

>  <naHRing>
0

>  <nARing 2>
1

>  <nAHRing 2>
1

>  <nFRing>
0

>  <nFHRing>
0

>  <nFaRing>
0

>  <nFaHRing>
0

>  <nFARing 2>
0

>  <nFAHRing 2>
0

>  <nRot>
1

>  <SLogP>
0.45

>  <SMR>
36.16

>  <TopoPSA(NO)>
46.17

>  <TopoPSA>
46.17

>  <JGI1>
0.4

>  <JGI2>
0.13

>  <JGI3>
0.11

>  <JGI4>
0.03

>  <JGI5>
0

>  <Diameter>
5

>  <Radius>
3

>  <TMWC10>
86.66

>  <TSRW10>
54.41

>  <MW>
141.08

>  <AMW>
6.72

>  <WPath>
108

>  <WPol>
13

>  <Zagreb1>
50

>  <Zagreb2>
58

>  <mZagreb2>
2.25

>  <yes>


>  <nAR-cont>
0.816016

>  <nHA-cont>
0.645914733

>  <MWHBN>
0.252573934

>  <MWHBN-cont>
0.955345122

>  <TPSA-cont>
0.67770473

>  <pka_cont>
0.97

>  <yes.1>


>  <BBB_SCORE>
4.735357877

>  <MMFF94 Energy>
-43.388

$$$$
Compound 242
Actelion Java MolfileCreator 2.0

  0  0  0  0  0  0              0 V3000
M  V30 BEGIN CTAB
M  V30 COUNTS 36 38 0 0 0
M  V30 BEGIN ATOM
M  V30 1 F -4.259 -1.9269 4.1785 0
M  V30 2 C -3.1355 -1.5936 3.5311 0
M  V30 3 C -3.1411 -1.5183 2.144 0
M  V30 4 C -1.9832 -1.3273 4.2591 0
M  V30 5 C -1.9738 -1.1598 1.451 0
M  V30 6 C -0.8082 -0.9843 3.5904 0
M  V30 7 C -2.0771 -1.1563 -0.039 0
M  V30 8 C -0.798 -0.9055 2.1858 0
M  V30 9 O -2.7941 -2.0089 -0.5592 0
M  V30 10 N -1.3858 -0.2018 -0.7741 0
M  V30 11 N 0.4128 -0.5586 1.5443 0
M  V30 12 C -0.6421 0.8833 -0.1668 0
M  V30 13 C -1.4033 -0.2615 -2.2267 0
M  V30 14 C 0.5502 0.2796 0.4579 0
M  V30 15 C 1.6746 -0.9562 1.9017 0
M  V30 16 C 1.9138 0.3348 0.1892 0
M  V30 17 N 2.5924 -0.4312 1.1264 0
M  V30 18 C 2.626 1.0454 -0.8828 0
M  V30 19 O 3.847 1.0615 -0.9907 0
M  V30 20 O 1.7832 1.6799 -1.7527 0
M  V30 21 C 2.4116 2.3734 -2.8405 0
M  V30 22 C 2.6405 1.4232 -4.0007 0
M  V30 23 H -4.0597 -1.747 1.6081 0
M  V30 24 H -2.0087 -1.3903 5.3434 0
M  V30 25 H 0.0796 -0.7684 4.182 0
M  V30 26 H -1.2724 1.3696 0.5877 0
M  V30 27 H -0.4149 1.6449 -0.915 0
M  V30 28 H -0.3728 -0.3136 -2.5905 0
M  V30 29 H -1.8803 0.6458 -2.6091 0
M  V30 30 H -1.9507 -1.1319 -2.5967 0
M  V30 31 H 1.8688 -1.6348 2.7223 0
M  V30 32 H 3.3428 2.8574 -2.525 0
M  V30 33 H 1.7259 3.1697 -3.1485 0
M  V30 34 H 3.0625 1.9536 -4.859 0
M  V30 35 H 3.3231 0.6155 -3.7186 0
M  V30 36 H 1.699 0.953 -4.3036 0
M  V30 END ATOM
M  V30 BEGIN BOND
M  V30 1 1 1 2
M  V30 2 2 2 3
M  V30 3 1 2 4
M  V30 4 1 3 5
M  V30 5 2 4 6
M  V30 6 1 5 7
M  V30 7 2 5 8
M  V30 8 2 7 9
M  V30 9 1 7 10
M  V30 10 1 8 11
M  V30 11 1 10 12
M  V30 12 1 10 13
M  V30 13 1 11 14
M  V30 14 1 11 15
M  V30 15 2 14 16
M  V30 16 2 15 17
M  V30 17 1 16 18
M  V30 18 2 18 19
M  V30 19 1 18 20
M  V30 20 1 20 21
M  V30 21 1 21 22
M  V30 22 1 6 8
M  V30 23 1 12 14
M  V30 24 1 16 17
M  V30 25 1 3 23
M  V30 26 1 4 24
M  V30 27 1 6 25
M  V30 28 1 12 26
M  V30 29 1 12 27
M  V30 30 1 13 28
M  V30 31 1 13 29
M  V30 32 1 13 30
M  V30 33 1 15 31
M  V30 34 1 21 32
M  V30 35 1 21 33
M  V30 36 1 22 34
M  V30 37 1 22 35
M  V30 38 1 22 36
M  V30 END BOND
M  V30 END CTAB
M  END
>  <Column 1>
309

>  <level_0>
352

>  <index>
352

>  <Unnamed: 0>
352

>  <NO.>
353

>  <Name>
78755-81-4

>  <IUPAC_name>
ethyl 8-fluoro-5-methyl-6-oxo-4h-imidazo[1-5-a][1-4]benzodiazepine-3-carboxylate

>  <SMILES>
CCOC(=O)c1ncn2c1CN(C)C(=O)c1cc(F)ccc1-2

>  <CID>
3373

>  <logBB>
-0.3

>  <BBB+/BBB->
BBB+

>  <Inchi>
InChI=1S/C15H14FN3O3/c1-3-22-15(21)13-12-7-18(2)14(20)10-6-9(16)4-5-11(10)19(12)8-17-13/h4-6-8H-3-7H2-1-2H3

>  <threshold>


>  <reference>
R5|R3|R4|R11|R18|R21|R25|R26|R27|R27|R36|R38|R39|R41|R43|R46|R47|R2|R2|R8|R27|R40|

>  <group>
A

>  <Class>
1

>  <ABC>
17.13

>  <ABCGG>
14.67

>  <nAcid>
0

>  <nBase>
0

>  <nAromAtom>
11

>  <nAromBond>
11

>  <nAtom>
36

>  <nHeavyAtom>
22

>  <nSpiro>
0

>  <nBridgehead>
0

>  <nHetero>
7

>  <nN>
3

>  <nO>
3

>  <nF>
1

>  <BalabanJ>
1.81

>  <BertzCT>
769.39

>  <nBonds>
38

>  <nBondsO>
24

>  <nBondsS>
25

>  <nBondsD>
2

>  <nBondsT>
0

>  <nBondsA>
11

>  <nBondsM>
13

>  <nBondsKS>
31

>  <nBondsKD>
7

>  <RNCG>
0.21

>  <RPCG>
0.17

>  <FCSP3>
0.27

>  <SZ>
26.33

>  <Sm>
25.25

>  <Sv>
23.86

>  <Sse>
37.15

>  <Sp>
24.34

>  <Si>
40.95

>  <MZ>
0.73

>  <Mm>
0.7

>  <Mv>
0.66

>  <Mse>
1.03

>  <Mp>
0.68

>  <Mi>
1.14

>  <NsCH3>
2

>  <NdCH2>
0

>  <NssCH2>
2

>  <NtCH>
0

>  <NdsCH>
0

>  <NaaCH>
4

>  <NsssCH>
0

>  <NddC>
0

>  <NtsC>
0

>  <NdssC>
2

>  <NaasC>
5

>  <NaaaC>
0

>  <NssssC>
0

>  <NsNH3>
0

>  <NsNH2>
0

>  <NssNH2>
0

>  <NdNH>
0

>  <NssNH>
0

>  <NaaNH>
0

>  <NtN>
0

>  <NsssNH>
0

>  <NdsN>
0

>  <NaaN>
1

>  <NsssN>
1

>  <NddsN>
0

>  <NaasN>
1

>  <NssssN>
0

>  <NsOH>
0

>  <NdO>
2

>  <NssO>
1

>  <NaaO>
0

>  <NsF>
1

>  <NsSiH3>
0

>  <NssSiH2>
0

>  <NsssSiH>
0

>  <NssssSi>
0

>  <NsPH2>
0

>  <NssPH>
0

>  <NsssP>
0

>  <NdsssP>
0

>  <NsssssP>
0

>  <NsSH>
0

>  <NdS>
0

>  <NssS>
0

>  <NaaS>
0

>  <NdssS>
0

>  <NddssS>
0

>  <NsCl>
0

>  <NsBr>
0

>  <NsI>
0

>  <fragCpx>
114.07

>  <fMF>
0.39

>  <nHBAcc>
5

>  <nHBDon>
0

>  <Kier1>
16.84

>  <Kier2>
6.86

>  <Lipinski>
1

>  <GhoseFilter>
1

>  <FilterItLogS>
-3.23

>  <VMcGowan>
208.84

>  <LabuteASA>
125.67

>  <PEOE_VSA1>
9.64

>  <PEOE_VSA2>
9.36

>  <PEOE_VSA3>
14.17

>  <PEOE_VSA4>
0

>  <PEOE_VSA5>
0

>  <PEOE_VSA6>
0

>  <PEOE_VSA7>
25.12

>  <PEOE_VSA8>
7.05

>  <PEOE_VSA9>
30.1

>  <PEOE_VSA10>
12.14

>  <PEOE_VSA11>
5.69

>  <PEOE_VSA12>
0

>  <PEOE_VSA13>
5.91

>  <SMR_VSA1>
18.72

>  <SMR_VSA2>
0

>  <SMR_VSA3>
14.45

>  <SMR_VSA4>
0

>  <SMR_VSA5>
13.47

>  <SMR_VSA6>
13.65

>  <SMR_VSA7>
47.29

>  <SMR_VSA8>
0

>  <SMR_VSA9>
5.69

>  <SlogP_VSA1>
0

>  <SlogP_VSA2>
39.98

>  <SlogP_VSA3>
11.28

>  <SlogP_VSA4>
5.82

>  <SlogP_VSA5>
33.46

>  <SlogP_VSA6>
24.53

>  <SlogP_VSA7>
0

>  <SlogP_VSA8>
5.69

>  <SlogP_VSA9>
0

>  <SlogP_VSA10>
4.39

>  <SlogP_VSA11>
0

>  <EState_VSA1>
11.79

>  <EState_VSA2>
30.32

>  <EState_VSA3>
11.38

>  <EState_VSA4>
0

>  <EState_VSA5>
29.43

>  <EState_VSA6>
18.54

>  <EState_VSA7>
0

>  <EState_VSA8>
4.98

>  <EState_VSA9>
4.74

>  <EState_VSA10>
13.98

>  <VSA_EState1>
20.08

>  <VSA_EState2>
29.87

>  <VSA_EState3>
0

>  <VSA_EState4>
1.43

>  <VSA_EState5>
-1.34

>  <VSA_EState6>
3.96

>  <VSA_EState7>
1.45

>  <VSA_EState8>
2.13

>  <VSA_EState9>
1.59

>  <apol>
40.65

>  <bpol>
23.19

>  <nRing>
3

>  <nHRing>
2

>  <naRing>
2

>  <naHRing>
1

>  <nARing 2>
1

>  <nAHRing 2>
1

>  <nFRing>
1

>  <nFHRing>
1

>  <nFaRing>
0

>  <nFaHRing>
0

>  <nFARing 2>
1

>  <nFAHRing 2>
1

>  <nRot>
2

>  <SLogP>
1.77

>  <SMR>
75.28

>  <TopoPSA(NO)>
64.43

>  <TopoPSA>
64.43

>  <JGI1>
0.19

>  <JGI2>
0.1

>  <JGI3>
0.05

>  <JGI4>
0.05

>  <JGI5>
0.03

>  <Diameter>
11

>  <Radius>
6

>  <TMWC10>
121.65

>  <TSRW10>
70.74

>  <MW>
303.1

>  <AMW>
8.42

>  <WPath>
956

>  <WPol>
41

>  <Zagreb1>
118

>  <Zagreb2>
143

>  <mZagreb2>
4.86

>  <yes>


>  <nAR-cont>
0.816016

>  <nHA-cont>
0.983774276

>  <MWHBN>
0.287195107

>  <MWHBN-cont>
0.877231721

>  <TPSA-cont>
0.550238591

>  <pka_cont>
0.97

>  <yes.1>


>  <BBB_SCORE>
4.701115041

>  <MMFF94 Energy>
36.448

$$$$
Compound 243
Actelion Java MolfileCreator 2.0

  0  0  0  0  0  0              0 V3000
M  V30 BEGIN CTAB
M  V30 COUNTS 37 40 0 0 0
M  V30 BEGIN ATOM
M  V30 1 Cl 4.3317 0.6529 1.9598 0
M  V30 2 C 3.0897 0.2743 0.8311 0
M  V30 3 C 1.7888 0.7195 1.0597 0
M  V30 4 C 3.3959 -0.4647 -0.308 0
M  V30 5 C 0.7665 0.4124 0.1465 0
M  V30 6 C 2.3925 -0.7679 -1.2297 0
M  V30 7 C -0.6106 0.9224 0.441 0
M  V30 8 C 1.0731 -0.349 -0.996 0
M  V30 9 N -1.423 1.4387 -0.4161 0
M  V30 10 C -1.1006 0.796 1.8386 0
M  V30 11 N 0.0809 -0.6345 -1.9645 0
M  V30 12 C -1.0457 1.5947 -1.8073 0 CFG=2
M  V30 13 C -1.5526 1.921 2.5282 0
M  V30 14 C -1.1229 -0.4598 2.458 0
M  V30 15 C -0.8684 0.2595 -2.4084 0
M  V30 16 C -0.1376 -1.816 -2.6619 0
M  V30 17 O 0.1312 2.3397 -2.0691 0
M  V30 18 F -1.5111 3.1393 1.9702 0
M  V30 19 C -2.0184 1.8045 3.8355 0
M  V30 20 C -1.5915 -0.5757 3.769 0
M  V30 21 C -1.55 -0.3888 -3.4106 0
M  V30 22 N -1.0815 -1.6612 -3.5723 0
M  V30 23 C 0.5528 -3.1041 -2.3904 0
M  V30 24 C -2.0381 0.5549 4.457 0
M  V30 25 H 1.5844 1.3266 1.9384 0
M  V30 26 H 4.4168 -0.7895 -0.4946 0
M  V30 27 H 2.6686 -1.2982 -2.1379 0
M  V30 28 H -1.8679 2.1188 -2.3082 0
M  V30 29 H -0.7966 -1.349 1.9254 0
M  V30 30 H 0.1367 2.4973 -3.0269 0
M  V30 31 H -2.3613 2.6906 4.3612 0
M  V30 32 H -1.6165 -1.5495 4.2533 0
M  V30 33 H -2.3711 -0.0126 -4.0078 0
M  V30 34 H -0.0731 -3.9402 -2.7195 0
M  V30 35 H 0.7477 -3.2435 -1.3229 0
M  V30 36 H 1.4962 -3.1604 -2.9405 0
M  V30 37 H -2.4051 0.4619 5.4767 0
M  V30 END ATOM
M  V30 BEGIN BOND
M  V30 1 1 1 2
M  V30 2 2 2 3
M  V30 3 1 2 4
M  V30 4 1 3 5
M  V30 5 2 4 6
M  V30 6 1 5 7
M  V30 7 2 5 8
M  V30 8 2 7 9
M  V30 9 1 7 10
M  V30 10 1 8 11
M  V30 11 1 9 12
M  V30 12 2 10 13
M  V30 13 1 10 14
M  V30 14 1 11 15
M  V30 15 1 11 16
M  V30 16 1 12 17
M  V30 17 1 13 18
M  V30 18 1 13 19
M  V30 19 2 14 20
M  V30 20 2 15 21
M  V30 21 2 16 22
M  V30 22 1 16 23
M  V30 23 2 19 24
M  V30 24 1 6 8
M  V30 25 1 12 15
M  V30 26 1 20 24
M  V30 27 1 21 22
M  V30 28 1 3 25
M  V30 29 1 4 26
M  V30 30 1 6 27
M  V30 31 1 12 28
M  V30 32 1 14 29
M  V30 33 1 17 30
M  V30 34 1 19 31
M  V30 35 1 20 32
M  V30 36 1 21 33
M  V30 37 1 23 34
M  V30 38 1 23 35
M  V30 39 1 23 36
M  V30 40 1 24 37
M  V30 END BOND
M  V30 BEGIN COLLECTION
M  V30 MDLV30/STERAC1 ATOMS=(1 12)
M  V30 END COLLECTION
M  V30 END CTAB
M  END
>  <Column 1>
310

>  <level_0>
353

>  <index>
353

>  <Unnamed: 0>
353

>  <NO.>
354

>  <Name>
59468-85-8

>  <IUPAC_name>
8-chloro-6-(2-fluorophenyl)-1-methyl-4h-imidazo[1-5-a][1-4]benzodiazepin-4-ol

>  <SMILES>
Cc1ncc2n1-c1ccc(Cl)cc1C(c1ccccc1F)=NC2O

>  <CID>
124449

>  <logBB>
-0.3

>  <BBB+/BBB->
BBB+

>  <Inchi>
InChI=1S/C18H13ClFN3O/c1-10-21-9-16-18(24)22-17(12-4-2-3-5-14(12)20)13-8-11(19)6-7-15(13)23(10)16/h2-9-18-24H-1H3

>  <threshold>


>  <reference>
R5|R11|R12|R18|R26|R27|R36|R39|R43|R8|R21|R27|R40|R3|R4|R38|R41|R47|R44|

>  <group>
A

>  <Class>
1

>  <ABC>
19.21

>  <ABCGG>
15.93

>  <nAcid>
0

>  <nBase>
0

>  <nAromAtom>
17

>  <nAromBond>
17

>  <nAtom>
37

>  <nHeavyAtom>
24

>  <nSpiro>
0

>  <nBridgehead>
0

>  <nHetero>
6

>  <nN>
3

>  <nO>
1

>  <nF>
1

>  <BalabanJ>
1.65

>  <BertzCT>
980.15

>  <nBonds>
40

>  <nBondsO>
27

>  <nBondsS>
22

>  <nBondsD>
1

>  <nBondsT>
0

>  <nBondsA>
17

>  <nBondsM>
18

>  <nBondsKS>
31

>  <nBondsKD>
9

>  <RNCG>
0.21

>  <RPCG>
0.12

>  <FCSP3>
0.11

>  <SZ>
29.33

>  <Sm>
28.45

>  <Sv>
26.25

>  <Sse>
37.81

>  <Sp>
27.29

>  <Si>
41.48

>  <MZ>
0.79

>  <Mm>
0.77

>  <Mv>
0.71

>  <Mse>
1.02

>  <Mp>
0.74

>  <Mi>
1.12

>  <NsCH3>
1

>  <NdCH2>
0

>  <NssCH2>
0

>  <NtCH>
0

>  <NdsCH>
0

>  <NaaCH>
8

>  <NsssCH>
1

>  <NddC>
0

>  <NtsC>
0

>  <NdssC>
1

>  <NaasC>
7

>  <NaaaC>
0

>  <NssssC>
0

>  <NsNH3>
0

>  <NsNH2>
0

>  <NssNH2>
0

>  <NdNH>
0

>  <NssNH>
0

>  <NaaNH>
0

>  <NtN>
0

>  <NsssNH>
0

>  <NdsN>
1

>  <NaaN>
1

>  <NsssN>
0

>  <NddsN>
0

>  <NaasN>
1

>  <NssssN>
0

>  <NsOH>
1

>  <NdO>
0

>  <NssO>
0

>  <NaaO>
0

>  <NsF>
1

>  <NsSiH3>
0

>  <NssSiH2>
0

>  <NsssSiH>
0

>  <NssssSi>
0

>  <NsPH2>
0

>  <NssPH>
0

>  <NsssP>
0

>  <NdsssP>
0

>  <NsssssP>
0

>  <NsSH>
0

>  <NdS>
0

>  <NssS>
0

>  <NaaS>
0

>  <NdssS>
0

>  <NddssS>
0

>  <NsCl>
1

>  <NsBr>
0

>  <NsI>
0

>  <fragCpx>
177.06

>  <fMF>
0.54

>  <nHBAcc>
4

>  <nHBDon>
1

>  <Kier1>
17.42

>  <Kier2>
6.96

>  <Lipinski>
1

>  <GhoseFilter>
1

>  <FilterItLogS>
-5.26

>  <VMcGowan>
232.15

>  <LabuteASA>
142.43

>  <PEOE_VSA1>
5.11

>  <PEOE_VSA2>
4.57

>  <PEOE_VSA3>
14.37

>  <PEOE_VSA4>
0

>  <PEOE_VSA5>
0

>  <PEOE_VSA6>
23.73

>  <PEOE_VSA7>
37.26

>  <PEOE_VSA8>
16.15

>  <PEOE_VSA9>
23.29

>  <PEOE_VSA10>
11.64

>  <PEOE_VSA11>
6.23

>  <PEOE_VSA12>
0

>  <PEOE_VSA13>
0

>  <SMR_VSA1>
9.5

>  <SMR_VSA2>
0

>  <SMR_VSA3>
9.55

>  <SMR_VSA4>
4.99

>  <SMR_VSA5>
13.15

>  <SMR_VSA6>
0

>  <SMR_VSA7>
82.15

>  <SMR_VSA8>
0

>  <SMR_VSA9>
5.69

>  <SlogP_VSA1>
0

>  <SlogP_VSA2>
20.37

>  <SlogP_VSA3>
0

>  <SlogP_VSA4>
12.74

>  <SlogP_VSA5>
28.87

>  <SlogP_VSA6>
53.65

>  <SlogP_VSA7>
5.02

>  <SlogP_VSA8>
5.69

>  <SlogP_VSA9>
0

>  <SlogP_VSA10>
4.39

>  <SlogP_VSA11>
0

>  <EState_VSA1>
12.05

>  <EState_VSA2>
0

>  <EState_VSA3>
33.38

>  <EState_VSA4>
5.69

>  <EState_VSA5>
6.07

>  <EState_VSA6>
36.53

>  <EState_VSA7>
17.56

>  <EState_VSA8>
9.98

>  <EState_VSA9>
11.6

>  <EState_VSA10>
9.5

>  <VSA_EState1>
16.16

>  <VSA_EState2>
8.61

>  <VSA_EState3>
11.02

>  <VSA_EState4>
2.61

>  <VSA_EState5>
0.3

>  <VSA_EState6>
11.65

>  <VSA_EState7>
0.43

>  <VSA_EState8>
1.84

>  <VSA_EState9>
0

>  <apol>
45.57

>  <bpol>
18.65

>  <nRing>
4

>  <nHRing>
2

>  <naRing>
3

>  <naHRing>
1

>  <nARing 2>
1

>  <nAHRing 2>
1

>  <nFRing>
1

>  <nFHRing>
1

>  <nFaRing>
0

>  <nFaHRing>
0

>  <nFARing 2>
1

>  <nFAHRing 2>
1

>  <nRot>
1

>  <SLogP>
3.82

>  <SMR>
90.31

>  <TopoPSA(NO)>
50.41

>  <TopoPSA>
50.41

>  <JGI1>
0.17

>  <JGI2>
0.08

>  <JGI3>
0.05

>  <JGI4>
0.05

>  <JGI5>
0.03

>  <Diameter>
9

>  <Radius>
5

>  <TMWC10>
128.07

>  <TSRW10>
73.45

>  <MW>
341.07

>  <AMW>
9.22

>  <WPath>
1138

>  <WPol>
46

>  <Zagreb1>
134

>  <Zagreb2>
164

>  <mZagreb2>
5.14

>  <yes>


>  <nAR-cont>
0.816016

>  <nHA-cont>
0.94700071

>  <MWHBN>
0.270737394

>  <MWHBN-cont>
0.918429843

>  <TPSA-cont>
0.648106897

>  <pka_cont>
0.97

>  <yes.1>


>  <BBB_SCORE>
4.921875268

>  <MMFF94 Energy>
32.093

$$$$
Compound 244
Actelion Java MolfileCreator 2.0

  0  0  0  0  0  0              0 V3000
M  V30 BEGIN CTAB
M  V30 COUNTS 40 43 0 0 0
M  V30 BEGIN ATOM
M  V30 1 F 0.4865 -2.5968 3.8971 0
M  V30 2 C -0.5754 -1.9654 4.423 0
M  V30 3 C -1.3041 -1.0442 3.6527 0
M  V30 4 C -0.9235 -2.2627 5.7405 0
M  V30 5 C -0.937 -0.7305 2.259 0
M  V30 6 C -2.4075 -0.4229 4.2665 0
M  V30 7 C -2.0206 -1.6365 6.3251 0
M  V30 8 C 0.3859 -0.4155 1.9062 0
M  V30 9 C -1.8973 -0.7342 1.2383 0
M  V30 10 C -2.7622 -0.7157 5.5883 0
M  V30 11 C 0.7434 -0.1001 0.5846 0
M  V30 12 C -1.5459 -0.4398 -0.0833 0
M  V30 13 N 2.1029 0.1985 0.3648 0
M  V30 14 C -0.2314 -0.1159 -0.4351 0
M  V30 15 C 2.6026 1.0976 -0.5342 0
M  V30 16 N 0.007 0.064 -1.8128 0
M  V30 17 O 3.8143 1.2734 -0.6513 0
M  V30 18 C 1.6104 1.8736 -1.3469 0
M  V30 19 C 0.8528 0.9433 -2.2549 0
M  V30 20 C 1.0848 1.0256 -3.7252 0
M  V30 21 C 0.0423 0.6815 -4.5876 0
M  V30 22 C 2.3225 1.3952 -4.2498 0
M  V30 23 C 0.2761 0.7481 -5.9509 0
M  V30 24 C 2.4586 1.4306 -5.6263 0
M  V30 25 N 1.4637 1.1253 -6.4857 0
M  V30 26 C -0.7612 0.4165 -6.8889 0
M  V30 27 N -1.6273 0.1464 -7.6154 0
M  V30 28 H -0.3347 -2.9838 6.2987 0
M  V30 29 H -2.9981 0.31 3.7196 0
M  V30 30 H -2.2967 -1.8645 7.3516 0
M  V30 31 H 1.1494 -0.4 2.6827 0
M  V30 32 H -2.9318 -0.9952 1.4549 0
M  V30 33 H -3.6183 -0.2207 6.0416 0
M  V30 34 H -2.3077 -0.484 -0.8587 0
M  V30 35 H 2.7961 -0.2477 0.9534 0
M  V30 36 H 2.1315 2.6571 -1.904 0
M  V30 37 H 0.9102 2.3947 -0.6835 0
M  V30 38 H -0.9244 0.3698 -4.2024 0
M  V30 39 H 3.1785 1.6262 -3.6242 0
M  V30 40 H 3.4029 1.7078 -6.089 0
M  V30 END ATOM
M  V30 BEGIN BOND
M  V30 1 1 1 2
M  V30 2 2 2 3
M  V30 3 1 2 4
M  V30 4 1 3 5
M  V30 5 1 3 6
M  V30 6 2 4 7
M  V30 7 2 5 8
M  V30 8 1 5 9
M  V30 9 2 6 10
M  V30 10 1 8 11
M  V30 11 2 9 12
M  V30 12 1 11 13
M  V30 13 2 11 14
M  V30 14 1 13 15
M  V30 15 1 14 16
M  V30 16 2 15 17
M  V30 17 1 15 18
M  V30 18 2 16 19
M  V30 19 1 19 20
M  V30 20 2 20 21
M  V30 21 1 20 22
M  V30 22 1 21 23
M  V30 23 2 22 24
M  V30 24 2 23 25
M  V30 25 1 23 26
M  V30 26 3 26 27
M  V30 27 1 7 10
M  V30 28 1 12 14
M  V30 29 1 18 19
M  V30 30 1 24 25
M  V30 31 1 4 28
M  V30 32 1 6 29
M  V30 33 1 7 30
M  V30 34 1 8 31
M  V30 35 1 9 32
M  V30 36 1 10 33
M  V30 37 1 12 34
M  V30 38 1 13 35
M  V30 39 1 18 36
M  V30 40 1 18 37
M  V30 41 1 21 38
M  V30 42 1 22 39
M  V30 43 1 24 40
M  V30 END BOND
M  V30 END CTAB
M  END
>  <Column 1>
312

>  <level_0>
355

>  <index>
355

>  <Unnamed: 0>
355

>  <NO.>
356

>  <Name>
schembl5869149

>  <IUPAC_name>
4-[8-(2-fluorophenyl)-2-oxo-1-3-dihydro-1-5-benzodiazepin-4-yl]pyridine-2-carbonitrile

>  <SMILES>
N#Cc1cc(C2=Nc3ccc(-c4ccccc4F)cc3NC(=O)C2)ccn1

>  <CID>
22224963

>  <logBB>
-0.3

>  <BBB+/BBB->
BBB+

>  <Inchi>
InChI=1S/C21H13FN4O/c22-17-4-2-1-3-16(17)13-5-6-18-20(10-13)26-21(27)11-19(25-18)14-7-8-24-15(9-14)12-23/h1-10H-11H2-(H-26-27)

>  <threshold>


>  <reference>
R47|

>  <group>
A

>  <Class>
1

>  <ABC>
21.27

>  <ABCGG>
15.86

>  <nAcid>
0

>  <nBase>
0

>  <nAromAtom>
18

>  <nAromBond>
18

>  <nAtom>
40

>  <nHeavyAtom>
27

>  <nSpiro>
0

>  <nBridgehead>
0

>  <nHetero>
6

>  <nN>
4

>  <nO>
1

>  <nF>
1

>  <BalabanJ>
1.39

>  <BertzCT>
1131.02

>  <nBonds>
43

>  <nBondsO>
30

>  <nBondsS>
22

>  <nBondsD>
2

>  <nBondsT>
1

>  <nBondsA>
18

>  <nBondsM>
21

>  <nBondsKS>
31

>  <nBondsKD>
11

>  <RNCG>
0.17

>  <RPCG>
0.12

>  <FCSP3>
0.05

>  <SZ>
30.67

>  <Sm>
29.67

>  <Sv>
28.92

>  <Sse>
40.71

>  <Sp>
29.64

>  <Si>
44.62

>  <MZ>
0.77

>  <Mm>
0.74

>  <Mv>
0.72

>  <Mse>
1.02

>  <Mp>
0.74

>  <Mi>
1.12

>  <NsCH3>
0

>  <NdCH2>
0

>  <NssCH2>
1

>  <NtCH>
0

>  <NdsCH>
0

>  <NaaCH>
10

>  <NsssCH>
0

>  <NddC>
0

>  <NtsC>
1

>  <NdssC>
2

>  <NaasC>
7

>  <NaaaC>
0

>  <NssssC>
0

>  <NsNH3>
0

>  <NsNH2>
0

>  <NssNH2>
0

>  <NdNH>
0

>  <NssNH>
1

>  <NaaNH>
0

>  <NtN>
1

>  <NsssNH>
0

>  <NdsN>
1

>  <NaaN>
1

>  <NsssN>
0

>  <NddsN>
0

>  <NaasN>
0

>  <NssssN>
0

>  <NsOH>
0

>  <NdO>
1

>  <NssO>
0

>  <NaaO>
0

>  <NsF>
1

>  <NsSiH3>
0

>  <NssSiH2>
0

>  <NsssSiH>
0

>  <NssssSi>
0

>  <NsPH2>
0

>  <NssPH>
0

>  <NsssP>
0

>  <NdsssP>
0

>  <NsssssP>
0

>  <NsSH>
0

>  <NdS>
0

>  <NssS>
0

>  <NaaS>
0

>  <NdssS>
0

>  <NddssS>
0

>  <NsCl>
0

>  <NsBr>
0

>  <NsI>
0

>  <fragCpx>
198.06

>  <fMF>
0.58

>  <nHBAcc>
4

>  <nHBDon>
1

>  <Kier1>
20.28

>  <Kier2>
9.21

>  <Lipinski>
1

>  <GhoseFilter>
1

>  <FilterItLogS>
-6.67

>  <VMcGowan>
254.96

>  <LabuteASA>
154.38

>  <PEOE_VSA1>
5.32

>  <PEOE_VSA2>
9.79

>  <PEOE_VSA3>
9.37

>  <PEOE_VSA4>
5.26

>  <PEOE_VSA5>
0

>  <PEOE_VSA6>
24.27

>  <PEOE_VSA7>
35.9

>  <PEOE_VSA8>
17.32

>  <PEOE_VSA9>
23.51

>  <PEOE_VSA10>
17.58

>  <PEOE_VSA11>
0

>  <PEOE_VSA12>
5.91

>  <PEOE_VSA13>
0

>  <SMR_VSA1>
9.18

>  <SMR_VSA2>
5.26

>  <SMR_VSA3>
4.98

>  <SMR_VSA4>
4.99

>  <SMR_VSA5>
6.42

>  <SMR_VSA6>
5.32

>  <SMR_VSA7>
77.87

>  <SMR_VSA8>
0

>  <SMR_VSA9>
17.2

>  <SlogP_VSA1>
5.32

>  <SlogP_VSA2>
16.6

>  <SlogP_VSA3>
4.79

>  <SlogP_VSA4>
17.15

>  <SlogP_VSA5>
17.68

>  <SlogP_VSA6>
65.79

>  <SlogP_VSA7>
0

>  <SlogP_VSA8>
11.13

>  <SlogP_VSA9>
0

>  <SlogP_VSA10>
15.77

>  <SlogP_VSA11>
0

>  <EState_VSA1>
0

>  <EState_VSA2>
23.84

>  <EState_VSA3>
33.78

>  <EState_VSA4>
0

>  <EState_VSA5>
12.26

>  <EState_VSA6>
48.53

>  <EState_VSA7>
6.07

>  <EState_VSA8>
15.29

>  <EState_VSA9>
5.26

>  <EState_VSA10>
9.18

>  <VSA_EState1>
14.07

>  <VSA_EState2>
20.89

>  <VSA_EState3>
11.85

>  <VSA_EState4>
3.68

>  <VSA_EState5>
-0.56

>  <VSA_EState6>
16.99

>  <VSA_EState7>
1.58

>  <VSA_EState8>
0

>  <VSA_EState9>
0

>  <apol>
49.5

>  <bpol>
18.44

>  <nRing>
4

>  <nHRing>
2

>  <naRing>
3

>  <naHRing>
1

>  <nARing 2>
1

>  <nAHRing 2>
1

>  <nFRing>
1

>  <nFHRing>
1

>  <nFaRing>
0

>  <nFaHRing>
0

>  <nFARing 2>
1

>  <nFAHRing 2>
1

>  <nRot>
2

>  <SLogP>
4.22

>  <SMR>
100.23

>  <TopoPSA(NO)>
78.14

>  <TopoPSA>
78.14

>  <JGI1>
0.18

>  <JGI2>
0.07

>  <JGI3>
0.04

>  <JGI4>
0.04

>  <JGI5>
0.02

>  <Diameter>
14

>  <Radius>
7

>  <TMWC10>
133.28

>  <TSRW10>
70.26

>  <MW>
356.11

>  <AMW>
8.9

>  <WPath>
1876

>  <WPol>
47

>  <Zagreb1>
144

>  <Zagreb2>
170

>  <mZagreb2>
5.94

>  <yes>


>  <nAR-cont>
0.816016

>  <nHA-cont>
0.860070871

>  <MWHBN>
0.264958539

>  <MWHBN-cont>
0.931207023

>  <TPSA-cont>
0.454534278

>  <pka_cont>
0.97

>  <yes.1>


>  <BBB_SCORE>
4.466965961

>  <MMFF94 Energy>
78.392

$$$$
Compound 245
Actelion Java MolfileCreator 2.0

  0  0  0  0  0  0              0 V3000
M  V30 BEGIN CTAB
M  V30 COUNTS 50 53 0 0 0
M  V30 BEGIN ATOM
M  V30 1 Cl -4.2013 -4.4441 -2.988 0
M  V30 2 C -2.9216 -3.572 -2.2376 0
M  V30 3 C -2.6329 -3.7921 -0.8903 0
M  V30 4 C -2.1743 -2.6639 -2.9846 0
M  V30 5 C -1.5899 -3.0879 -0.2729 0
M  V30 6 C -1.1358 -1.9573 -2.3764 0
M  V30 7 C -0.8559 -2.1477 -1.0167 0
M  V30 8 C -1.2087 -3.3592 1.1617 0
M  V30 9 C 0.2476 -1.4182 -0.3479 0
M  V30 10 C 0.1481 -4.0681 1.2681 0
M  V30 11 C 1.4656 -2.1701 0.0645 0
M  V30 12 C 0.0919 -0.1042 -0.019 0
M  V30 13 C 1.4057 -3.3639 0.7981 0
M  V30 14 N 2.6377 -1.6216 -0.3578 0
M  V30 15 C -1.1517 0.7181 -0.3419 0
M  V30 16 C 1.137 0.6846 0.7697 0
M  V30 17 C 2.63 -3.9881 1.0973 0
M  V30 18 C 3.7838 -2.2565 -0.0429 0
M  V30 19 C -0.8497 2.2135 -0.4964 0
M  V30 20 C 0.5366 1.8621 1.5461 0
M  V30 21 C 3.832 -3.431 0.678 0
M  V30 22 N -0.1932 2.7791 0.6792 0
M  V30 23 C -0.2172 4.1273 0.9771 0
M  V30 24 O 0.2992 4.6171 1.9745 0
M  V30 25 O -0.8743 4.8518 0.0302 0
M  V30 26 C -0.9437 6.2665 0.256 0
M  V30 27 C 0.2936 6.947 -0.2983 0
M  V30 28 H -3.2116 -4.5205 -0.3279 0
M  V30 29 H -2.3901 -2.5051 -4.0374 0
M  V30 30 H -0.5438 -1.2582 -2.963 0
M  V30 31 H -1.2119 -2.424 1.7355 0
M  V30 32 H -1.972 -3.9949 1.6283 0
M  V30 33 H 0.291 -4.3181 2.3282 0
M  V30 34 H 0.086 -5.0202 0.7232 0
M  V30 35 H -1.8692 0.5838 0.4781 0
M  V30 36 H -1.6424 0.3882 -1.2604 0
M  V30 37 H 1.6547 0.0473 1.4945 0
M  V30 38 H 1.8807 1.0733 0.0625 0
M  V30 39 H 2.6471 -4.9211 1.6571 0
M  V30 40 H 4.691 -1.7789 -0.4007 0
M  V30 41 H -0.1835 2.3838 -1.3509 0
M  V30 42 H -1.7809 2.7558 -0.6937 0
M  V30 43 H -0.172 1.5004 2.3013 0
M  V30 44 H 1.33 2.3992 2.0775 0
M  V30 45 H 4.7798 -3.906 0.9033 0
M  V30 46 H -1.0881 6.4963 1.318 0
M  V30 47 H -1.8305 6.6307 -0.2729 0
M  V30 48 H 0.2227 8.0325 -0.1853 0
M  V30 49 H 1.1962 6.6006 0.2146 0
M  V30 50 H 0.4196 6.7096 -1.3596 0
M  V30 END ATOM
M  V30 BEGIN BOND
M  V30 1 1 1 2
M  V30 2 2 2 3
M  V30 3 1 2 4
M  V30 4 1 3 5
M  V30 5 2 4 6
M  V30 6 2 5 7
M  V30 7 1 5 8
M  V30 8 1 7 9
M  V30 9 1 8 10
M  V30 10 1 9 11
M  V30 11 2 9 12
M  V30 12 1 10 13
M  V30 13 1 11 14
M  V30 14 1 12 15
M  V30 15 1 12 16
M  V30 16 1 13 17
M  V30 17 2 14 18
M  V30 18 1 15 19
M  V30 19 1 16 20
M  V30 20 2 17 21
M  V30 21 1 19 22
M  V30 22 1 22 23
M  V30 23 2 23 24
M  V30 24 1 23 25
M  V30 25 1 25 26
M  V30 26 1 26 27
M  V30 27 1 6 7
M  V30 28 2 11 13
M  V30 29 1 18 21
M  V30 30 1 20 22
M  V30 31 1 3 28
M  V30 32 1 4 29
M  V30 33 1 6 30
M  V30 34 1 8 31
M  V30 35 1 8 32
M  V30 36 1 10 33
M  V30 37 1 10 34
M  V30 38 1 15 35
M  V30 39 1 15 36
M  V30 40 1 16 37
M  V30 41 1 16 38
M  V30 42 1 17 39
M  V30 43 1 18 40
M  V30 44 1 19 41
M  V30 45 1 19 42
M  V30 46 1 20 43
M  V30 47 1 20 44
M  V30 48 1 21 45
M  V30 49 1 26 46
M  V30 50 1 26 47
M  V30 51 1 27 48
M  V30 52 1 27 49
M  V30 53 1 27 50
M  V30 END BOND
M  V30 END CTAB
M  END
>  <Column 1>
314

>  <level_0>
357

>  <index>
357

>  <Unnamed: 0>
357

>  <NO.>
359

>  <Name>
loratadine

>  <IUPAC_name>
ethyl 4-(13-chloro-4-azatricyclo[9.4.0.03-8]pentadeca-1(11)-3(8)-4-6-12-14-hexaen-2-ylidene)piperidine-1-carboxylate

>  <SMILES>
CCOC(=O)N1CCC(=C2c3ccc(Cl)cc3CCc3cccnc32)CC1

>  <CID>
3957

>  <logBB>
-0.3

>  <BBB+/BBB->
BBB+

>  <Inchi>
InChI=1S/C22H23ClN2O2/c1-2-27-22(26)25-12-9-15(10-13-25)20-19-8-7-18(23)14-17(19)6-5-16-4-3-11-24-21(16)20/h3-4-7-8-11-14H-2-5-6-9-10-12-13H2-1H3

>  <threshold>


>  <reference>
R27|R18|R26|R47|

>  <group>
A

>  <Class>
1

>  <ABC>
21.19

>  <ABCGG>
16.08

>  <nAcid>
0

>  <nBase>
0

>  <nAromAtom>
12

>  <nAromBond>
12

>  <nAtom>
50

>  <nHeavyAtom>
27

>  <nSpiro>
0

>  <nBridgehead>
0

>  <nHetero>
5

>  <nN>
2

>  <nO>
2

>  <nF>
0

>  <BalabanJ>
1.49

>  <BertzCT>
896.94

>  <nBonds>
53

>  <nBondsO>
30

>  <nBondsS>
39

>  <nBondsD>
2

>  <nBondsT>
0

>  <nBondsA>
12

>  <nBondsM>
14

>  <nBondsKS>
45

>  <nBondsKD>
8

>  <RNCG>
0.25

>  <RPCG>
0.23

>  <FCSP3>
0.36

>  <SZ>
33.67

>  <Sm>
31.88

>  <Sv>
32.27

>  <Sse>
49.96

>  <Sp>
34.77

>  <Si>
55.93

>  <MZ>
0.67

>  <Mm>
0.64

>  <Mv>
0.65

>  <Mse>
1

>  <Mp>
0.7

>  <Mi>
1.12

>  <NsCH3>
1

>  <NdCH2>
0

>  <NssCH2>
7

>  <NtCH>
0

>  <NdsCH>
0

>  <NaaCH>
6

>  <NsssCH>
0

>  <NddC>
0

>  <NtsC>
0

>  <NdssC>
3

>  <NaasC>
5

>  <NaaaC>
0

>  <NssssC>
0

>  <NsNH3>
0

>  <NsNH2>
0

>  <NssNH2>
0

>  <NdNH>
0

>  <NssNH>
0

>  <NaaNH>
0

>  <NtN>
0

>  <NsssNH>
0

>  <NdsN>
0

>  <NaaN>
1

>  <NsssN>
1

>  <NddsN>
0

>  <NaasN>
0

>  <NssssN>
0

>  <NsOH>
0

>  <NdO>
1

>  <NssO>
1

>  <NaaO>
0

>  <NsF>
0

>  <NsSiH3>
0

>  <NssSiH2>
0

>  <NsssSiH>
0

>  <NssssSi>
0

>  <NsPH2>
0

>  <NssPH>
0

>  <NsssP>
0

>  <NdsssP>
0

>  <NsssssP>
0

>  <NsSH>
0

>  <NdS>
0

>  <NssS>
0

>  <NaaS>
0

>  <NdssS>
0

>  <NddssS>
0

>  <NsCl>
1

>  <NsBr>
0

>  <NsI>
0

>  <fragCpx>
198.05

>  <fMF>
0.42

>  <nHBAcc>
3

>  <nHBDon>
0

>  <Kier1>
20.28

>  <Kier2>
9.21

>  <Lipinski>
1

>  <GhoseFilter>
1

>  <FilterItLogS>
-6.19

>  <VMcGowan>
286.94

>  <LabuteASA>
164.36

>  <PEOE_VSA1>
9.64

>  <PEOE_VSA2>
4.98

>  <PEOE_VSA3>
4.79

>  <PEOE_VSA4>
0

>  <PEOE_VSA5>
0

>  <PEOE_VSA6>
29.31

>  <PEOE_VSA7>
67.5

>  <PEOE_VSA8>
29.88

>  <PEOE_VSA9>
12.3

>  <PEOE_VSA10>
0

>  <PEOE_VSA11>
0

>  <PEOE_VSA12>
0

>  <PEOE_VSA13>
0

>  <SMR_VSA1>
9.53

>  <SMR_VSA2>
0

>  <SMR_VSA3>
9.88

>  <SMR_VSA4>
0

>  <SMR_VSA5>
32.61

>  <SMR_VSA6>
19.7

>  <SMR_VSA7>
69.51

>  <SMR_VSA8>
0

>  <SMR_VSA9>
0

>  <SlogP_VSA1>
0

>  <SlogP_VSA2>
35.67

>  <SlogP_VSA3>
17.58

>  <SlogP_VSA4>
0

>  <SlogP_VSA5>
42.15

>  <SlogP_VSA6>
42.1

>  <SlogP_VSA7>
5.02

>  <SlogP_VSA8>
5.57

>  <SlogP_VSA9>
0

>  <SlogP_VSA10>
4.79

>  <SlogP_VSA11>
0

>  <EState_VSA1>
0

>  <EState_VSA2>
6.09

>  <EState_VSA3>
19.7

>  <EState_VSA4>
36.4

>  <EState_VSA5>
27.84

>  <EState_VSA6>
4.9

>  <EState_VSA7>
25.25

>  <EState_VSA8>
18.2

>  <EState_VSA9>
21.32

>  <EState_VSA10>
4.79

>  <VSA_EState1>
5.15

>  <VSA_EState2>
18.57

>  <VSA_EState3>
0.77

>  <VSA_EState4>
7.46

>  <VSA_EState5>
0

>  <VSA_EState6>
10.35

>  <VSA_EState7>
5.25

>  <VSA_EState8>
3.62

>  <VSA_EState9>
0

>  <apol>
58.06

>  <bpol>
29.04

>  <nRing>
4

>  <nHRing>
2

>  <naRing>
2

>  <naHRing>
1

>  <nARing 2>
2

>  <nAHRing 2>
1

>  <nFRing>
1

>  <nFHRing>
1

>  <nFaRing>
0

>  <nFaHRing>
0

>  <nFARing 2>
1

>  <nFAHRing 2>
1

>  <nRot>
1

>  <SLogP>
4.89

>  <SMR>
106.95

>  <TopoPSA(NO)>
42.43

>  <TopoPSA>
42.43

>  <JGI1>
0.15

>  <JGI2>
0.08

>  <JGI3>
0.04

>  <JGI4>
0.04

>  <JGI5>
0.02

>  <Diameter>
13

>  <Radius>
7

>  <TMWC10>
133.83

>  <TSRW10>
70.45

>  <MW>
382.14

>  <AMW>
7.64

>  <WPath>
1772

>  <WPol>
49

>  <Zagreb1>
144

>  <Zagreb2>
172

>  <mZagreb2>
6

>  <yes>


>  <nAR-cont>
1

>  <nHA-cont>
0.860070871

>  <MWHBN>
0.153465234

>  <MWHBN-cont>
0.941190105

>  <TPSA-cont>
0.703812253

>  <pka_cont>
0.97

>  <yes.1>


>  <BBB_SCORE>
5.164480534

>  <MMFF94 Energy>
39.467

$$$$
Compound 246
Actelion Java MolfileCreator 2.0

  0  0  0  0  0  0              0 V3000
M  V30 BEGIN CTAB
M  V30 COUNTS 42 46 0 0 0
M  V30 BEGIN ATOM
M  V30 1 O 1.0553 2.6805 -2.5179 0
M  V30 2 C 0.4949 2.0275 -1.6439 0
M  V30 3 N 0.6653 0.6795 -1.4647 0
M  V30 4 C -0.4383 2.6803 -0.6682 0
M  V30 5 C 0.0412 -0.0542 -0.4739 0
M  V30 6 C 1.522 -0.1695 -2.2988 0
M  V30 7 C -1.036 1.9578 0.2967 0
M  V30 8 C -0.6265 4.1454 -0.8322 0
M  V30 9 C 0.4629 -1.444 -0.6028 0
M  V30 10 C -0.79 0.5241 0.3966 0
M  V30 11 C 1.3388 -1.5195 -1.6793 0
M  V30 12 C -1.9403 2.6212 1.2974 0 CFG=2
M  V30 13 O -1.6567 4.7273 -0.0064 0
M  V30 14 N 0.0834 -2.4634 0.1778 0
M  V30 15 C 1.8827 -2.7422 -2.0054 0
M  V30 16 O -3.1214 1.8053 1.4334 0
M  V30 17 C -2.4267 4.0135 0.8396 0
M  V30 18 C -1.3169 2.7408 2.7057 0
M  V30 19 C 0.6114 -3.6609 -0.1381 0
M  V30 20 C 1.5175 -3.8502 -1.223 0
M  V30 21 O -3.4747 4.4863 1.2849 0
M  V30 22 C -0.004 3.5108 2.7727 0
M  V30 23 C 0.2638 -4.7682 0.6219 0
M  V30 24 C 2.0305 -5.1289 -1.4954 0
M  V30 25 C 0.7764 -6.0397 0.3476 0
M  V30 26 C 1.6598 -6.2196 -0.711 0
M  V30 27 H 2.5544 0.1867 -2.2309 0
M  V30 28 H 1.1671 -0.1307 -3.3332 0
M  V30 29 H -0.8982 4.3811 -1.8668 0
M  V30 30 H 0.3044 4.6742 -0.6013 0
M  V30 31 H -1.29 -0.0585 1.1658 0
M  V30 32 H 2.5696 -2.8401 -2.8398 0
M  V30 33 H -3.8088 2.3843 1.821 0
M  V30 34 H -1.1622 1.739 3.128 0
M  V30 35 H -2.037 3.2239 3.3803 0
M  V30 36 H 0.3407 3.5669 3.8106 0
M  V30 37 H 0.7817 3.0198 2.1914 0
M  V30 38 H -0.1206 4.5352 2.4069 0
M  V30 39 H -0.427 -4.6391 1.452 0
M  V30 40 H 2.7219 -5.284 -2.3206 0
M  V30 41 H 0.4817 -6.8855 0.9638 0
M  V30 42 H 2.0591 -7.2076 -0.926 0
M  V30 END ATOM
M  V30 BEGIN BOND
M  V30 1 2 1 2
M  V30 2 1 2 3
M  V30 3 1 2 4
M  V30 4 1 3 5
M  V30 5 1 3 6
M  V30 6 2 4 7
M  V30 7 1 4 8
M  V30 8 1 5 9
M  V30 9 2 5 10
M  V30 10 1 6 11
M  V30 11 1 7 12
M  V30 12 1 8 13
M  V30 13 2 9 14
M  V30 14 2 11 15
M  V30 15 1 12 16
M  V30 16 1 12 17
M  V30 17 1 12 18
M  V30 18 1 14 19
M  V30 19 1 15 20
M  V30 20 2 17 21
M  V30 21 1 18 22
M  V30 22 2 19 23
M  V30 23 2 20 24
M  V30 24 1 23 25
M  V30 25 1 24 26
M  V30 26 1 7 10
M  V30 27 1 9 11
M  V30 28 1 13 17
M  V30 29 1 19 20
M  V30 30 2 25 26
M  V30 31 1 6 27
M  V30 32 1 6 28
M  V30 33 1 8 29
M  V30 34 1 8 30
M  V30 35 1 10 31
M  V30 36 1 15 32
M  V30 37 1 16 33
M  V30 38 1 18 34
M  V30 39 1 18 35
M  V30 40 1 22 36
M  V30 41 1 22 37
M  V30 42 1 22 38
M  V30 43 1 23 39
M  V30 44 1 24 40
M  V30 45 1 25 41
M  V30 46 1 26 42
M  V30 END BOND
M  V30 BEGIN COLLECTION
M  V30 MDLV30/STEABS ATOMS=(1 12)
M  V30 END COLLECTION
M  V30 END CTAB
M  END
>  <Column 1>
315

>  <level_0>
358

>  <index>
358

>  <Unnamed: 0>
358

>  <NO.>
360

>  <Name>
camptothecin

>  <IUPAC_name>
(19s)-19-ethyl-19-hydroxy-17-oxa-3-13-diazapentacyclo[11.8.0.02-11.04-9.015-20]henicosa-1(21)-2-4-6-8-10-15(20)-heptaene-14-18-dione

>  <SMILES>
CC[C@@]1(O)C(=O)OCc2c1cc1n(c2=O)Cc2cc3ccccc3nc2-1

>  <CID>
24360

>  <logBB>
-0.29

>  <BBB+/BBB->
BBB+

>  <Inchi>
InChI=1S/C20H16N2O4/c1-2-20(25)14-8-16-17-12(7-11-5-3-4-6-15(11)21-17)9-22(16)18(23)13(14)10-26-19(20)24/h3-8-25H-2-9-10H2-1H3/t20-/m0/s1

>  <threshold>


>  <reference>
R2|R2|R20|R25|R27|R46|

>  <group>
A

>  <Class>
1

>  <ABC>
21.18

>  <ABCGG>
16.12

>  <nAcid>
0

>  <nBase>
0

>  <nAromAtom>
16

>  <nAromBond>
17

>  <nAtom>
42

>  <nHeavyAtom>
26

>  <nSpiro>
0

>  <nBridgehead>
0

>  <nHetero>
6

>  <nN>
2

>  <nO>
4

>  <nF>
0

>  <BalabanJ>
1.41

>  <BertzCT>
1164.42

>  <nBonds>
46

>  <nBondsO>
30

>  <nBondsS>
27

>  <nBondsD>
2

>  <nBondsT>
0

>  <nBondsA>
17

>  <nBondsM>
19

>  <nBondsKS>
37

>  <nBondsKD>
9

>  <RNCG>
0.2

>  <RPCG>
0.15

>  <FCSP3>
0.25

>  <SZ>
30.33

>  <Sm>
29

>  <Sv>
28.71

>  <Sse>
42.75

>  <Sp>
29.63

>  <Si>
46.74

>  <MZ>
0.72

>  <Mm>
0.69

>  <Mv>
0.68

>  <Mse>
1.02

>  <Mp>
0.71

>  <Mi>
1.11

>  <NsCH3>
1

>  <NdCH2>
0

>  <NssCH2>
3

>  <NtCH>
0

>  <NdsCH>
0

>  <NaaCH>
6

>  <NsssCH>
0

>  <NddC>
0

>  <NtsC>
0

>  <NdssC>
1

>  <NaasC>
5

>  <NaaaC>
2

>  <NssssC>
1

>  <NsNH3>
0

>  <NsNH2>
0

>  <NssNH2>
0

>  <NdNH>
0

>  <NssNH>
0

>  <NaaNH>
0

>  <NtN>
0

>  <NsssNH>
0

>  <NdsN>
0

>  <NaaN>
1

>  <NsssN>
0

>  <NddsN>
0

>  <NaasN>
1

>  <NssssN>
0

>  <NsOH>
1

>  <NdO>
2

>  <NssO>
1

>  <NaaO>
0

>  <NsF>
0

>  <NsSiH3>
0

>  <NssSiH2>
0

>  <NsssSiH>
0

>  <NssssSi>
0

>  <NsPH2>
0

>  <NssPH>
0

>  <NsssP>
0

>  <NdsssP>
0

>  <NsssssP>
0

>  <NsSH>
0

>  <NdS>
0

>  <NssS>
0

>  <NaaS>
0

>  <NdssS>
0

>  <NddssS>
0

>  <NsCl>
0

>  <NsBr>
0

>  <NsI>
0

>  <fragCpx>
250.06

>  <fMF>
0.5

>  <nHBAcc>
6

>  <nHBDon>
1

>  <Kier1>
18.06

>  <Kier2>
6.52

>  <Lipinski>
1

>  <GhoseFilter>
1

>  <FilterItLogS>
-4.92

>  <VMcGowan>
243.1

>  <LabuteASA>
148.23

>  <PEOE_VSA1>
14.41

>  <PEOE_VSA2>
4.79

>  <PEOE_VSA3>
9.78

>  <PEOE_VSA4>
0

>  <PEOE_VSA5>
0

>  <PEOE_VSA6>
25.12

>  <PEOE_VSA7>
24.62

>  <PEOE_VSA8>
16.51

>  <PEOE_VSA9>
29.01

>  <PEOE_VSA10>
6.61

>  <PEOE_VSA11>
5.6

>  <PEOE_VSA12>
0

>  <PEOE_VSA13>
5.56

>  <SMR_VSA1>
14.64

>  <SMR_VSA2>
0

>  <SMR_VSA3>
9.55

>  <SMR_VSA4>
0

>  <SMR_VSA5>
32.1

>  <SMR_VSA6>
0

>  <SMR_VSA7>
63.44

>  <SMR_VSA8>
0

>  <SMR_VSA9>
11.39

>  <SlogP_VSA1>
5.56

>  <SlogP_VSA2>
20.63

>  <SlogP_VSA3>
28.28

>  <SlogP_VSA4>
0

>  <SlogP_VSA5>
30.03

>  <SlogP_VSA6>
41.19

>  <SlogP_VSA7>
0

>  <SlogP_VSA8>
22.29

>  <SlogP_VSA9>
0

>  <SlogP_VSA10>
0

>  <SlogP_VSA11>
0

>  <EState_VSA1>
11.57

>  <EState_VSA2>
18.59

>  <EState_VSA3>
23.37

>  <EState_VSA4>
22.16

>  <EState_VSA5>
0

>  <EState_VSA6>
17.56

>  <EState_VSA7>
30.33

>  <EState_VSA8>
0

>  <EState_VSA9>
9.72

>  <EState_VSA10>
14.7

>  <VSA_EState1>
6.72

>  <VSA_EState2>
29.88

>  <VSA_EState3>
11.85

>  <VSA_EState4>
1.81

>  <VSA_EState5>
-0.71

>  <VSA_EState6>
11.55

>  <VSA_EState7>
0.14

>  <VSA_EState8>
2.01

>  <VSA_EState9>
0

>  <apol>
49.48

>  <bpol>
22.37

>  <nRing>
5

>  <nHRing>
4

>  <naRing>
3

>  <naHRing>
2

>  <nARing 2>
2

>  <nAHRing 2>
2

>  <nFRing>
1

>  <nFHRing>
1

>  <nFaRing>
0

>  <nFaHRing>
0

>  <nFARing 2>
1

>  <nFAHRing 2>
1

>  <nRot>
1

>  <SLogP>
2.08

>  <SMR>
94.52

>  <TopoPSA(NO)>
81.42

>  <TopoPSA>
81.42

>  <JGI1>
0.2

>  <JGI2>
0.1

>  <JGI3>
0.05

>  <JGI4>
0.06

>  <JGI5>
0.03

>  <Diameter>
11

>  <Radius>
6

>  <TMWC10>
135.27

>  <TSRW10>
76.59

>  <MW>
348.11

>  <AMW>
8.29

>  <WPath>
1479

>  <WPol>
54

>  <Zagreb1>
154

>  <Zagreb2>
195

>  <mZagreb2>
5.49

>  <yes>


>  <nAR-cont>
1

>  <nHA-cont>
0.892715677

>  <MWHBN>
0.375180096

>  <MWHBN-cont>
0.573680703

>  <TPSA-cont>
0.431637841

>  <pka_cont>
0.97

>  <yes.1>


>  <BBB_SCORE>
4.101512415

>  <MMFF94 Energy>
73.868

$$$$
Compound 247
Actelion Java MolfileCreator 2.0

  0  0  0  0  0  0              0 V3000
M  V30 BEGIN CTAB
M  V30 COUNTS 42 46 0 0 0
M  V30 BEGIN ATOM
M  V30 1 S 2.0548 -1.5613 -2.4661 0 CFG=2
M  V30 2 O 0.9954 -1.4239 -3.685 0
M  V30 3 C 2.6761 -3.1575 -2.6063 0
M  V30 4 C 1.1927 -1.3957 -1.0374 0
M  V30 5 C 3.2108 -0.31 -2.7975 0
M  V30 6 O 2.9611 -3.5343 -3.7349 0
M  V30 7 O 2.7815 -3.9473 -1.5139 0
M  V30 8 C 1.4663 -2.3097 -0.0896 0
M  V30 9 C 0.2513 -0.3199 -0.8458 0
M  V30 10 C 4.3401 -0.2788 -1.7898 0
M  V30 11 C 2.4221 -3.4686 -0.1951 0
M  V30 12 C 0.7761 -2.1765 1.2419 0
M  V30 13 C -0.3612 -0.2231 0.3355 0
M  V30 14 O 1.0103 -2.9589 2.1578 0
M  V30 15 N -0.1024 -1.1274 1.3485 0
M  V30 16 C -1.3433 0.738 0.8216 0
M  V30 17 C -0.8884 -0.8213 2.549 0
M  V30 18 N -1.846 1.7732 0.1375 0
M  V30 19 C -1.6595 0.3908 2.1296 0
M  V30 20 C -2.7424 2.5255 0.8032 0
M  V30 21 C -2.5749 1.1583 2.8153 0
M  V30 22 C -3.1393 2.257 2.1463 0
M  V30 23 C -3.3116 3.6152 0.1607 0
M  V30 24 C -4.0802 3.085 2.7802 0
M  V30 25 C -4.2481 4.4372 0.7949 0
M  V30 26 C -4.632 4.1717 2.1046 0
M  V30 27 H 1.1792 -2.0264 -4.4534 0
M  V30 28 H 3.6067 -0.485 -3.8023 0
M  V30 29 H 2.6787 0.6459 -2.8027 0
M  V30 30 H 0.0494 0.3757 -1.6543 0
M  V30 31 H 3.9644 -0.0884 -0.7794 0
M  V30 32 H 5.053 0.5121 -2.0416 0
M  V30 33 H 4.8796 -1.2311 -1.7713 0
M  V30 34 H 3.3549 -3.2274 0.3265 0
M  V30 35 H 1.9894 -4.3431 0.303 0
M  V30 36 H -1.5369 -1.672 2.7792 0
M  V30 37 H -0.2075 -0.6181 3.381 0
M  V30 38 H -2.8473 0.9176 3.8379 0
M  V30 39 H -3.0191 3.8317 -0.8641 0
M  V30 40 H -4.3898 2.8887 3.8043 0
M  V30 41 H -4.6744 5.2827 0.2608 0
M  V30 42 H -5.3604 4.8096 2.5993 0
M  V30 END ATOM
M  V30 BEGIN BOND
M  V30 1 1 1 2
M  V30 2 1 1 3
M  V30 3 1 1 4
M  V30 4 1 1 5
M  V30 5 2 3 6
M  V30 6 1 3 7
M  V30 7 2 4 8
M  V30 8 1 4 9
M  V30 9 1 5 10
M  V30 10 1 7 11
M  V30 11 1 8 12
M  V30 12 2 9 13
M  V30 13 2 12 14
M  V30 14 1 12 15
M  V30 15 1 13 16
M  V30 16 1 15 17
M  V30 17 2 16 18
M  V30 18 1 16 19
M  V30 19 1 18 20
M  V30 20 2 19 21
M  V30 21 1 20 22
M  V30 22 2 20 23
M  V30 23 2 22 24
M  V30 24 1 23 25
M  V30 25 1 24 26
M  V30 26 1 8 11
M  V30 27 1 13 15
M  V30 28 1 17 19
M  V30 29 1 21 22
M  V30 30 2 25 26
M  V30 31 1 2 27
M  V30 32 1 5 28
M  V30 33 1 5 29
M  V30 34 1 9 30
M  V30 35 1 10 31
M  V30 36 1 10 32
M  V30 37 1 10 33
M  V30 38 1 11 34
M  V30 39 1 11 35
M  V30 40 1 17 36
M  V30 41 1 17 37
M  V30 42 1 21 38
M  V30 43 1 23 39
M  V30 44 1 24 40
M  V30 45 1 25 41
M  V30 46 1 26 42
M  V30 END BOND
M  V30 BEGIN COLLECTION
M  V30 MDLV30/STEABS ATOMS=(1 1)
M  V30 END COLLECTION
M  V30 END CTAB
M  END
>  <Column 1>
316

>  <level_0>
359

>  <index>
359

>  <Unnamed: 0>
359

>  <NO.>
361

>  <Name>
camptothecin

>  <IUPAC_name>


>  <SMILES>
CC[S@@]1(O)C(=O)OCc2c1cc1n(c2=O)Cc2cc3ccccc3nc2-1

>  <CID>


>  <logBB>
-0.29

>  <BBB+/BBB->
BBB+

>  <Inchi>
InChI=1S/C19H16N2O4S/c1-2-26(24)16-8-15-17-12(7-11-5-3-4-6-14(11)20-17)9-21(15)18(22)13(16)10-25-19(26)23/h3-8-24H-2-9-10H2-1H3

>  <threshold>


>  <reference>
R18|R26|R27|

>  <group>
A

>  <Class>
1

>  <ABC>
21.18

>  <ABCGG>
16.12

>  <nAcid>
0

>  <nBase>
0

>  <nAromAtom>
16

>  <nAromBond>
17

>  <nAtom>
42

>  <nHeavyAtom>
26

>  <nSpiro>
0

>  <nBridgehead>
0

>  <nHetero>
7

>  <nN>
2

>  <nO>
4

>  <nF>
0

>  <BalabanJ>
1.41

>  <BertzCT>
1170.15

>  <nBonds>
46

>  <nBondsO>
30

>  <nBondsS>
27

>  <nBondsD>
2

>  <nBondsT>
0

>  <nBondsA>
17

>  <nBondsM>
19

>  <nBondsKS>
37

>  <nBondsKD>
9

>  <RNCG>
0.21

>  <RPCG>
0.17

>  <FCSP3>
0.21

>  <SZ>
32

>  <Sm>
30.67

>  <Sv>
28.9

>  <Sse>
42.83

>  <Sp>
30.36

>  <Si>
46.66

>  <MZ>
0.76

>  <Mm>
0.73

>  <Mv>
0.69

>  <Mse>
1.02

>  <Mp>
0.72

>  <Mi>
1.11

>  <NsCH3>
1

>  <NdCH2>
0

>  <NssCH2>
3

>  <NtCH>
0

>  <NdsCH>
0

>  <NaaCH>
6

>  <NsssCH>
0

>  <NddC>
0

>  <NtsC>
0

>  <NdssC>
1

>  <NaasC>
5

>  <NaaaC>
2

>  <NssssC>
0

>  <NsNH3>
0

>  <NsNH2>
0

>  <NssNH2>
0

>  <NdNH>
0

>  <NssNH>
0

>  <NaaNH>
0

>  <NtN>
0

>  <NsssNH>
0

>  <NdsN>
0

>  <NaaN>
1

>  <NsssN>
0

>  <NddsN>
0

>  <NaasN>
1

>  <NssssN>
0

>  <NsOH>
1

>  <NdO>
2

>  <NssO>
1

>  <NaaO>
0

>  <NsF>
0

>  <NsSiH3>
0

>  <NssSiH2>
0

>  <NsssSiH>
0

>  <NssssSi>
0

>  <NsPH2>
0

>  <NssPH>
0

>  <NsssP>
0

>  <NdsssP>
0

>  <NsssssP>
0

>  <NsSH>
0

>  <NdS>
0

>  <NssS>
0

>  <NaaS>
0

>  <NdssS>
0

>  <NddssS>
0

>  <NsCl>
0

>  <NsBr>
0

>  <NsI>
0

>  <fragCpx>
250.07

>  <fMF>
0.5

>  <nHBAcc>
6

>  <nHBDon>
1

>  <Kier1>
18.06

>  <Kier2>
6.52

>  <Lipinski>
1

>  <GhoseFilter>
1

>  <FilterItLogS>
-4.75

>  <VMcGowan>
249.66

>  <LabuteASA>
150.13

>  <PEOE_VSA1>
13.86

>  <PEOE_VSA2>
4.79

>  <PEOE_VSA3>
9.78

>  <PEOE_VSA4>
0

>  <PEOE_VSA5>
0

>  <PEOE_VSA6>
25.12

>  <PEOE_VSA7>
28.51

>  <PEOE_VSA8>
21.6

>  <PEOE_VSA9>
29.01

>  <PEOE_VSA10>
6.61

>  <PEOE_VSA11>
0

>  <PEOE_VSA12>
0

>  <PEOE_VSA13>
5.56

>  <SMR_VSA1>
14.08

>  <SMR_VSA2>
0

>  <SMR_VSA3>
9.55

>  <SMR_VSA4>
0

>  <SMR_VSA5>
24.97

>  <SMR_VSA6>
5.75

>  <SMR_VSA7>
57.88

>  <SMR_VSA8>
0

>  <SMR_VSA9>
11.39

>  <SlogP_VSA1>
5.56

>  <SlogP_VSA2>
25.16

>  <SlogP_VSA3>
17.89

>  <SlogP_VSA4>
0

>  <SlogP_VSA5>
18.05

>  <SlogP_VSA6>
46.09

>  <SlogP_VSA7>
0

>  <SlogP_VSA8>
22.29

>  <SlogP_VSA9>
0

>  <SlogP_VSA10>
4.79

>  <SlogP_VSA11>
0

>  <EState_VSA1>
15.61

>  <EState_VSA2>
17.92

>  <EState_VSA3>
22.7

>  <EState_VSA4>
22.16

>  <EState_VSA5>
0

>  <EState_VSA6>
17.56

>  <EState_VSA7>
30.33

>  <EState_VSA8>
0

>  <EState_VSA9>
9.72

>  <EState_VSA10>
14.14

>  <VSA_EState1>
17.68

>  <VSA_EState2>
30.36

>  <VSA_EState3>
0.4

>  <VSA_EState4>
3.37

>  <VSA_EState5>
0.22

>  <VSA_EState6>
11.61

>  <VSA_EState7>
0

>  <VSA_EState8>
2.08

>  <VSA_EState9>
-2.81

>  <apol>
50.71

>  <bpol>
27.29

>  <nRing>
5

>  <nHRing>
4

>  <naRing>
3

>  <naHRing>
2

>  <nARing 2>
2

>  <nAHRing 2>
2

>  <nFRing>
1

>  <nFHRing>
1

>  <nFaRing>
0

>  <nFaHRing>
0

>  <nFARing 2>
1

>  <nFAHRing 2>
1

>  <nRot>
1

>  <SLogP>
3.73

>  <SMR>
99.75

>  <TopoPSA(NO)>
81.42

>  <TopoPSA>
81.42

>  <JGI1>
0.2

>  <JGI2>
0.1

>  <JGI3>
0.05

>  <JGI4>
0.06

>  <JGI5>
0.03

>  <Diameter>
11

>  <Radius>
6

>  <TMWC10>
135.27

>  <TSRW10>
76.59

>  <MW>
368.08

>  <AMW>
8.76

>  <WPath>
1479

>  <WPol>
54

>  <Zagreb1>
154

>  <Zagreb2>
195

>  <mZagreb2>
5.49

>  <yes>


>  <nAR-cont>
1

>  <nHA-cont>
0.892715677

>  <MWHBN>
0.364860568

>  <MWHBN-cont>
0.61375773

>  <TPSA-cont>
0.431637841

>  <pka_cont>
0.97

>  <yes.1>


>  <BBB_SCORE>
4.161627956

>  <MMFF94 Energy>
52.697

$$$$
Compound 248
Actelion Java MolfileCreator 2.0

  0  0  0  0  0  0              0 V3000
M  V30 BEGIN CTAB
M  V30 COUNTS 38 38 0 0 0
M  V30 BEGIN ATOM
M  V30 1 S 4.2964 0.6356 -0.874 0
M  V30 2 O 5.6022 0.0831 -1.1677 0
M  V30 3 O 3.1448 0.3185 -1.688 0
M  V30 4 N 4.0036 0.2509 0.7498 0
M  V30 5 C 4.4712 2.4032 -0.7798 0
M  V30 6 C 2.6571 -0.0528 1.1065 0
M  V30 7 C 1.7673 0.9775 1.3963 0
M  V30 8 C 2.2168 -1.3744 1.0856 0
M  V30 9 C 0.433 0.6833 1.6877 0
M  V30 10 C 0.882 -1.6671 1.3764 0
M  V30 11 C -0.0295 -0.6418 1.6791 0
M  V30 12 C -1.4832 -0.9878 1.9488 0 CFG=1
M  V30 13 O -2.1485 0.0879 2.6222 0
M  V30 14 C -2.2712 -1.3353 0.6576 0
M  V30 15 N -2.5733 -0.1088 -0.1089 0
M  V30 16 C -3.4106 -0.3653 -1.2881 0
M  V30 17 C -3.9367 0.9829 -1.7838 0
M  V30 18 C -2.6429 -1.0657 -2.4107 0
M  V30 19 H 4.6927 -0.4415 1.0496 0
M  V30 20 H 3.5184 2.8432 -0.4823 0
M  V30 21 H 5.2583 2.6453 -0.0633 0
M  V30 22 H 4.7502 2.7655 -1.7717 0
M  V30 23 H 2.0998 2.0104 1.4117 0
M  V30 24 H 2.8962 -2.1821 0.8294 0
M  V30 25 H -0.2471 1.5 1.922 0
M  V30 26 H 0.5544 -2.7045 1.3536 0
M  V30 27 H -1.5116 -1.8448 2.6319 0
M  V30 28 H -2.682 0.5172 1.9213 0
M  V30 29 H -1.7193 -2.0647 0.0565 0
M  V30 30 H -3.2234 -1.7876 0.9607 0
M  V30 31 H -1.6897 0.3127 -0.4093 0
M  V30 32 H -4.2769 -0.9756 -1.0048 0
M  V30 33 H -3.1209 1.6465 -2.0927 0
M  V30 34 H -4.51 1.4926 -1.0011 0
M  V30 35 H -4.6019 0.846 -2.6434 0
M  V30 36 H -2.3267 -2.0712 -2.1171 0
M  V30 37 H -1.7504 -0.4998 -2.7003 0
M  V30 38 H -3.2738 -1.1711 -3.3001 0
M  V30 END ATOM
M  V30 BEGIN BOND
M  V30 1 2 1 2
M  V30 2 2 1 3
M  V30 3 1 1 4
M  V30 4 1 1 5
M  V30 5 1 4 6
M  V30 6 2 6 7
M  V30 7 1 6 8
M  V30 8 1 7 9
M  V30 9 2 8 10
M  V30 10 2 9 11
M  V30 11 1 11 12
M  V30 12 1 12 13
M  V30 13 1 12 14
M  V30 14 1 14 15
M  V30 15 1 15 16
M  V30 16 1 16 17
M  V30 17 1 16 18
M  V30 18 1 10 11
M  V30 19 1 4 19
M  V30 20 1 5 20
M  V30 21 1 5 21
M  V30 22 1 5 22
M  V30 23 1 7 23
M  V30 24 1 8 24
M  V30 25 1 9 25
M  V30 26 1 10 26
M  V30 27 1 12 27
M  V30 28 1 13 28
M  V30 29 1 14 29
M  V30 30 1 14 30
M  V30 31 1 15 31
M  V30 32 1 16 32
M  V30 33 1 17 33
M  V30 34 1 17 34
M  V30 35 1 17 35
M  V30 36 1 18 36
M  V30 37 1 18 37
M  V30 38 1 18 38
M  V30 END BOND
M  V30 BEGIN COLLECTION
M  V30 MDLV30/STERAC1 ATOMS=(1 12)
M  V30 END COLLECTION
M  V30 END CTAB
M  END
>  <Column 1>
319

>  <level_0>
363

>  <index>
363

>  <Unnamed: 0>
363

>  <NO.>
365

>  <Name>
sotalol

>  <IUPAC_name>
n-[4-[1-hydroxy-2-(propan-2-ylamino)ethyl]phenyl]methanesulfonamide

>  <SMILES>
CC(C)NCC(O)c1ccc(NS(C)(=O)=O)cc1

>  <CID>
5253

>  <logBB>
-0.28

>  <BBB+/BBB->
BBB+

>  <Inchi>
InChI=1S/C12H20N2O3S/c1-9(2)13-8-12(15)10-4-6-11(7-5-10)14-18(3-16)17/h4-7-9-12-15H-8H2-1-3H3

>  <threshold>


>  <reference>
R2|R2|R4|R8|R21|R25|R27|R27|R43|R46|R47|R50|R40|R42|

>  <group>
A

>  <Class>
1

>  <ABC>
13.49

>  <ABCGG>
11.62

>  <nAcid>
0

>  <nBase>
1

>  <nAromAtom>
6

>  <nAromBond>
6

>  <nAtom>
38

>  <nHeavyAtom>
18

>  <nSpiro>
0

>  <nBridgehead>
0

>  <nHetero>
6

>  <nN>
2

>  <nO>
3

>  <nF>
0

>  <BalabanJ>
2.26

>  <BertzCT>
468.6

>  <nBonds>
38

>  <nBondsO>
18

>  <nBondsS>
30

>  <nBondsD>
2

>  <nBondsT>
0

>  <nBondsA>
6

>  <nBondsM>
8

>  <nBondsKS>
33

>  <nBondsKD>
5

>  <RNCG>
0.23

>  <RPCG>
0.14

>  <FCSP3>
0.5

>  <SZ>
24.33

>  <Sm>
22.68

>  <Sv>
22.27

>  <Sse>
38.27

>  <Sp>
24.48

>  <Si>
43.28

>  <MZ>
0.64

>  <Mm>
0.6

>  <Mv>
0.59

>  <Mse>
1.01

>  <Mp>
0.64

>  <Mi>
1.14

>  <NsCH3>
3

>  <NdCH2>
0

>  <NssCH2>
1

>  <NtCH>
0

>  <NdsCH>
0

>  <NaaCH>
4

>  <NsssCH>
2

>  <NddC>
0

>  <NtsC>
0

>  <NdssC>
0

>  <NaasC>
2

>  <NaaaC>
0

>  <NssssC>
0

>  <NsNH3>
0

>  <NsNH2>
0

>  <NssNH2>
0

>  <NdNH>
0

>  <NssNH>
2

>  <NaaNH>
0

>  <NtN>
0

>  <NsssNH>
0

>  <NdsN>
0

>  <NaaN>
0

>  <NsssN>
0

>  <NddsN>
0

>  <NaasN>
0

>  <NssssN>
0

>  <NsOH>
1

>  <NdO>
2

>  <NssO>
0

>  <NaaO>
0

>  <NsF>
0

>  <NsSiH3>
0

>  <NssSiH2>
0

>  <NsssSiH>
0

>  <NssssSi>
0

>  <NsPH2>
0

>  <NssPH>
0

>  <NsssP>
0

>  <NdsssP>
0

>  <NsssssP>
0

>  <NsSH>
0

>  <NdS>
0

>  <NssS>
0

>  <NaaS>
0

>  <NdssS>
0

>  <NddssS>
1

>  <NsCl>
0

>  <NsBr>
0

>  <NsI>
0

>  <fragCpx>
18.06

>  <fMF>
0.16

>  <nHBAcc>
4

>  <nHBDon>
3

>  <Kier1>
16.06

>  <Kier2>
6.96

>  <Lipinski>
1

>  <GhoseFilter>
1

>  <FilterItLogS>
-2.91

>  <VMcGowan>
210.1

>  <LabuteASA>
108.28

>  <PEOE_VSA1>
10.42

>  <PEOE_VSA2>
4.72

>  <PEOE_VSA3>
8.42

>  <PEOE_VSA4>
0

>  <PEOE_VSA5>
0

>  <PEOE_VSA6>
25.98

>  <PEOE_VSA7>
17.7

>  <PEOE_VSA8>
18.27

>  <PEOE_VSA9>
12.36

>  <PEOE_VSA10>
0

>  <PEOE_VSA11>
0

>  <PEOE_VSA12>
10.02

>  <PEOE_VSA13>
0

>  <SMR_VSA1>
13.52

>  <SMR_VSA2>
0

>  <SMR_VSA3>
5.32

>  <SMR_VSA4>
0

>  <SMR_VSA5>
25.99

>  <SMR_VSA6>
17.52

>  <SMR_VSA7>
29.83

>  <SMR_VSA8>
0

>  <SMR_VSA9>
0

>  <SlogP_VSA1>
10.04

>  <SlogP_VSA2>
32.37

>  <SlogP_VSA3>
10.02

>  <SlogP_VSA4>
0

>  <SlogP_VSA5>
25.51

>  <SlogP_VSA6>
24.27

>  <SlogP_VSA7>
0

>  <SlogP_VSA8>
0

>  <SlogP_VSA9>
0

>  <SlogP_VSA10>
5.69

>  <SlogP_VSA11>
0

>  <EState_VSA1>
16.13

>  <EState_VSA2>
0

>  <EState_VSA3>
18.27

>  <EState_VSA4>
11.82

>  <EState_VSA5>
0

>  <EState_VSA6>
24.27

>  <EState_VSA7>
13.85

>  <EState_VSA8>
10.04

>  <EState_VSA9>
0

>  <EState_VSA10>
13.52

>  <VSA_EState1>
24.43

>  <VSA_EState2>
0

>  <VSA_EState3>
13.03

>  <VSA_EState4>
1.24

>  <VSA_EState5>
0

>  <VSA_EState6>
7

>  <VSA_EState7>
0.5

>  <VSA_EState8>
4.48

>  <VSA_EState9>
-3.26

>  <apol>
40.88

>  <bpol>
27.86

>  <nRing>
1

>  <nHRing>
0

>  <naRing>
1

>  <naHRing>
0

>  <nARing 2>
0

>  <nAHRing 2>
0

>  <nFRing>
0

>  <nFHRing>
0

>  <nFaRing>
0

>  <nFaHRing>
0

>  <nFARing 2>
0

>  <nFAHRing 2>
0

>  <nRot>
6

>  <SLogP>
1.09

>  <SMR>
73.01

>  <TopoPSA(NO)>
78.43

>  <TopoPSA>
86.81

>  <JGI1>
0.33

>  <JGI2>
0.08

>  <JGI3>
0.05

>  <JGI4>
0.05

>  <JGI5>
0.03

>  <Diameter>
11

>  <Radius>
6

>  <TMWC10>
105.42

>  <TSRW10>
50.28

>  <MW>
272.12

>  <AMW>
7.16

>  <WPath>
706

>  <WPol>
21

>  <Zagreb1>
86

>  <Zagreb2>
92

>  <mZagreb2>
3.9

>  <yes>


>  <nAR-cont>
0.336376

>  <nHA-cont>
0.991161285

>  <MWHBN>
0.424343749

>  <MWHBN-cont>
0.381260845

>  <TPSA-cont>
0.394012294

>  <pka_cont>
0.97

>  <yes.1>


>  <BBB_SCORE>
3.172453141

>  <MMFF94 Energy>
-5.5507

$$$$
Compound 249
Actelion Java MolfileCreator 2.0

  0  0  0  0  0  0              0 V3000
M  V30 BEGIN CTAB
M  V30 COUNTS 8 7 0 0 0
M  V30 BEGIN ATOM
M  V30 1 Cl 1.098 1.5205 0.929 0
M  V30 2 C 0.637 -0.0468 0.226 0
M  V30 3 Cl 0.6221 -1.2974 1.4908 0
M  V30 4 C -0.7267 0.0519 -0.4334 0
M  V30 5 H 1.4002 -0.3219 -0.5072 0
M  V30 6 H -1.5071 0.3269 0.2851 0
M  V30 7 H -0.7215 0.8053 -1.2288 0
M  V30 8 H -1.0101 -0.9035 -0.8882 0
M  V30 END ATOM
M  V30 BEGIN BOND
M  V30 1 1 1 2
M  V30 2 1 2 3
M  V30 3 1 2 4
M  V30 4 1 2 5
M  V30 5 1 4 6
M  V30 6 1 4 7
M  V30 7 1 4 8
M  V30 END BOND
M  V30 END CTAB
M  END
>  <Column 1>
320

>  <level_0>
364

>  <index>
364

>  <Unnamed: 0>
364

>  <NO.>
366

>  <Name>
1-1-dichloroethane (ethylidene chloride)

>  <IUPAC_name>
1-1-dichloroethane

>  <SMILES>
CC(Cl)Cl

>  <CID>
6365

>  <logBB>
-0.28

>  <BBB+/BBB->
BBB+

>  <Inchi>
InChI=1S/C2H4Cl2/c1-2(3)4/h2H-1H3

>  <threshold>


>  <reference>
R2|R2|R3|R8|R21|R25|R27|R27|R38|R40|R41|R43|R46|R47|

>  <group>
A

>  <Class>
1

>  <ABC>
2.45

>  <ABCGG>
2.45

>  <nAcid>
0

>  <nBase>
0

>  <nAromAtom>
0

>  <nAromBond>
0

>  <nAtom>
8

>  <nHeavyAtom>
4

>  <nSpiro>
0

>  <nBridgehead>
0

>  <nHetero>
2

>  <nN>
0

>  <nO>
0

>  <nF>
0

>  <BalabanJ>
2.32

>  <BertzCT>
8.75

>  <nBonds>
7

>  <nBondsO>
3

>  <nBondsS>
7

>  <nBondsD>
0

>  <nBondsT>
0

>  <nBondsA>
0

>  <nBondsM>
0

>  <nBondsKS>
7

>  <nBondsKD>
0

>  <RNCG>
0.43

>  <RPCG>
0.42

>  <FCSP3>
1

>  <SZ>
8.33

>  <Sm>
8.24

>  <Sv>
5.27

>  <Sse>
8.31

>  <Sp>
6.21

>  <Si>
9.13

>  <MZ>
1.04

>  <Mm>
1.03

>  <Mv>
0.66

>  <Mse>
1.04

>  <Mp>
0.78

>  <Mi>
1.14

>  <NsCH3>
1

>  <NdCH2>
0

>  <NssCH2>
0

>  <NtCH>
0

>  <NdsCH>
0

>  <NaaCH>
0

>  <NsssCH>
1

>  <NddC>
0

>  <NtsC>
0

>  <NdssC>
0

>  <NaasC>
0

>  <NaaaC>
0

>  <NssssC>
0

>  <NsNH3>
0

>  <NsNH2>
0

>  <NssNH2>
0

>  <NdNH>
0

>  <NssNH>
0

>  <NaaNH>
0

>  <NtN>
0

>  <NsssNH>
0

>  <NdsN>
0

>  <NaaN>
0

>  <NsssN>
0

>  <NddsN>
0

>  <NaasN>
0

>  <NssssN>
0

>  <NsOH>
0

>  <NdO>
0

>  <NssO>
0

>  <NaaO>
0

>  <NsF>
0

>  <NsSiH3>
0

>  <NssSiH2>
0

>  <NsssSiH>
0

>  <NssssSi>
0

>  <NsPH2>
0

>  <NssPH>
0

>  <NsssP>
0

>  <NdsssP>
0

>  <NsssssP>
0

>  <NsSH>
0

>  <NdS>
0

>  <NssS>
0

>  <NaaS>
0

>  <NdssS>
0

>  <NddssS>
0

>  <NsCl>
2

>  <NsBr>
0

>  <NsI>
0

>  <fragCpx>
3.02

>  <fMF>
0

>  <nHBAcc>
0

>  <nHBDon>
0

>  <Kier1>
4

>  <Kier2>
1.33

>  <Lipinski>
1

>  <GhoseFilter>
0

>  <FilterItLogS>
-1.47

>  <VMcGowan>
63.52

>  <LabuteASA>
35.71

>  <PEOE_VSA1>
0

>  <PEOE_VSA2>
0

>  <PEOE_VSA3>
0

>  <PEOE_VSA4>
0

>  <PEOE_VSA5>
23.2

>  <PEOE_VSA6>
0

>  <PEOE_VSA7>
6.92

>  <PEOE_VSA8>
0

>  <PEOE_VSA9>
0

>  <PEOE_VSA10>
4.84

>  <PEOE_VSA11>
0

>  <PEOE_VSA12>
0

>  <PEOE_VSA13>
0

>  <SMR_VSA1>
0

>  <SMR_VSA2>
0

>  <SMR_VSA3>
0

>  <SMR_VSA4>
0

>  <SMR_VSA5>
11.76

>  <SMR_VSA6>
0

>  <SMR_VSA7>
0

>  <SMR_VSA8>
0

>  <SMR_VSA9>
0

>  <SlogP_VSA1>
0

>  <SlogP_VSA2>
4.84

>  <SlogP_VSA3>
0

>  <SlogP_VSA4>
0

>  <SlogP_VSA5>
6.92

>  <SlogP_VSA6>
0

>  <SlogP_VSA7>
0

>  <SlogP_VSA8>
0

>  <SlogP_VSA9>
0

>  <SlogP_VSA10>
0

>  <SlogP_VSA11>
0

>  <EState_VSA1>
0

>  <EState_VSA2>
4.84

>  <EState_VSA3>
0

>  <EState_VSA4>
0

>  <EState_VSA5>
0

>  <EState_VSA6>
6.92

>  <EState_VSA7>
0

>  <EState_VSA8>
0

>  <EState_VSA9>
23.2

>  <EState_VSA10>
0

>  <VSA_EState1>
0

>  <VSA_EState2>
-0.22

>  <VSA_EState3>
0

>  <VSA_EState4>
0

>  <VSA_EState5>
0

>  <VSA_EState6>
0

>  <VSA_EState7>
0

>  <VSA_EState8>
1.7

>  <VSA_EState9>
0

>  <apol>
10.37

>  <bpol>
5.03

>  <nRing>
0

>  <nHRing>
0

>  <naRing>
0

>  <naHRing>
0

>  <nARing 2>
0

>  <nAHRing 2>
0

>  <nFRing>
0

>  <nFHRing>
0

>  <nFaRing>
0

>  <nFaHRing>
0

>  <nFARing 2>
0

>  <nFAHRing 2>
0

>  <nRot>
0

>  <SLogP>
1.81

>  <SMR>
21.17

>  <TopoPSA(NO)>
0

>  <TopoPSA>
0

>  <JGI1>
0.5

>  <JGI2>
0

>  <JGI3>
0

>  <JGI4>
0

>  <JGI5>
0

>  <Diameter>
2

>  <Radius>
1

>  <TMWC10>
48.77

>  <TSRW10>
24.18

>  <MW>
97.97

>  <AMW>
12.25

>  <WPath>
9

>  <WPol>
0

>  <Zagreb1>
12

>  <Zagreb2>
9

>  <mZagreb2>
1

>  <yes>


>  <nAR-cont>
0.336376

>  <nHA-cont>
0

>  <MWHBN>
0

>  <MWHBN-cont>
0

>  <TPSA-cont>
0

>  <pka_cont>
0.97

>  <yes.1>


>  <BBB_SCORE>
0.821376

>  <MMFF94 Energy>
0.43763

$$$$
Compound 250
Actelion Java MolfileCreator 2.0

  0  0  0  0  0  0              0 V3000
M  V30 BEGIN CTAB
M  V30 COUNTS 44 46 0 0 0
M  V30 BEGIN ATOM
M  V30 1 O 1.6709 3.1845 2.2283 0
M  V30 2 N 0.6878 3.2549 2.9771 0 CHG=1
M  V30 3 O 0.6208 2.7473 4.105 0 CHG=-1
M  V30 4 C -0.436 4.0035 2.5218 0
M  V30 5 C -1.4355 4.3568 3.3211 0
M  V30 6 C -0.4881 4.5594 1.1578 0 CFG=2
M  V30 7 C -2.1692 5.2241 2.4043 0
M  V30 8 N -1.7098 5.4042 1.2006 0
M  V30 9 N -0.4478 3.5287 0.138 0
M  V30 10 C -1.3582 2.5097 -0.0628 0
M  V30 11 C -0.873 1.2329 -0.3998 0
M  V30 12 C -2.7353 2.6563 0.0929 0
M  V30 13 C -1.7152 0.1141 -0.5676 0
M  V30 14 C -3.6009 1.5761 -0.0845 0
M  V30 15 C -1.1852 -1.2253 -0.8989 0
M  V30 16 C -3.0938 0.3195 -0.4098 0
M  V30 17 N -1.9842 -1.9982 -1.6781 0
M  V30 18 C 0.0479 -1.6874 -0.4329 0
M  V30 19 C -1.5409 -3.2293 -2.0122 0
M  V30 20 C 0.4914 -2.9677 -0.7874 0
M  V30 21 C -0.3307 -3.7522 -1.5967 0
M  V30 22 C 1.8144 -3.4981 -0.2819 0
M  V30 23 N 2.7083 -3.9564 -1.3598 0
M  V30 24 C 3.8381 -4.6946 -0.7919 0
M  V30 25 C 3.2037 -2.8318 -2.1589 0
M  V30 26 H -1.6407 4.1511 4.3536 0
M  V30 27 H 0.361 5.2352 0.995 0
M  V30 28 H -3.0877 5.7111 2.7668 0
M  V30 29 H 0.4745 3.3838 -0.2599 0
M  V30 30 H 0.1991 1.1109 -0.539 0
M  V30 31 H -3.1712 3.6276 0.3011 0
M  V30 32 H -4.6737 1.7168 0.0169 0
M  V30 33 H -3.7844 -0.5111 -0.5476 0
M  V30 34 H 0.6576 -1.0658 0.215 0
M  V30 35 H -2.2093 -3.8048 -2.6458 0
M  V30 36 H -0.028 -4.7486 -1.9019 0
M  V30 37 H 1.5732 -4.3381 0.3837 0
M  V30 38 H 2.3169 -2.7464 0.3414 0
M  V30 39 H 3.4857 -5.571 -0.2364 0
M  V30 40 H 4.4399 -4.076 -0.1161 0
M  V30 41 H 4.4903 -5.0724 -1.5872 0
M  V30 42 H 3.7581 -2.1062 -1.5526 0
M  V30 43 H 2.384 -2.3077 -2.6614 0
M  V30 44 H 3.8672 -3.1914 -2.9537 0
M  V30 END ATOM
M  V30 BEGIN BOND
M  V30 1 2 1 2
M  V30 2 1 2 3
M  V30 3 1 2 4
M  V30 4 2 4 5
M  V30 5 1 4 6
M  V30 6 1 5 7
M  V30 7 1 6 8
M  V30 8 1 6 9
M  V30 9 1 9 10
M  V30 10 2 10 11
M  V30 11 1 10 12
M  V30 12 1 11 13
M  V30 13 2 12 14
M  V30 14 1 13 15
M  V30 15 2 13 16
M  V30 16 2 15 17
M  V30 17 1 15 18
M  V30 18 1 17 19
M  V30 19 2 18 20
M  V30 20 2 19 21
M  V30 21 1 20 22
M  V30 22 1 22 23
M  V30 23 1 23 24
M  V30 24 1 23 25
M  V30 25 2 7 8
M  V30 26 1 14 16
M  V30 27 1 20 21
M  V30 28 1 5 26
M  V30 29 1 6 27
M  V30 30 1 7 28
M  V30 31 1 9 29
M  V30 32 1 11 30
M  V30 33 1 12 31
M  V30 34 1 14 32
M  V30 35 1 16 33
M  V30 36 1 18 34
M  V30 37 1 19 35
M  V30 38 1 21 36
M  V30 39 1 22 37
M  V30 40 1 22 38
M  V30 41 1 24 39
M  V30 42 1 24 40
M  V30 43 1 24 41
M  V30 44 1 25 42
M  V30 45 1 25 43
M  V30 46 1 25 44
M  V30 END BOND
M  V30 BEGIN COLLECTION
M  V30 MDLV30/STERAC1 ATOMS=(1 6)
M  V30 END COLLECTION
M  V30 END CTAB
M  END
>  <Column 1>
321

>  <level_0>
365

>  <index>
365

>  <Unnamed: 0>
365

>  <NO.>
367

>  <Name>
compound 38

>  <IUPAC_name>


>  <SMILES>
CN(C)Cc1ccnc(-c2cccc(NC3N=CC=C3[N+](=O)[O-])c2)c1

>  <CID>


>  <logBB>
-0.28

>  <BBB+/BBB->
BBB+

>  <Inchi>
InChI=1S/C18H19N5O2/c1-22(2)12-13-6-8-19-16(10-13)14-4-3-5-15(11-14)21-18-17(23(24)25)7-9-20-18/h3-11-18-21H-12H2-1-2H3

>  <threshold>


>  <reference>
R36|

>  <group>
A

>  <Class>
1

>  <ABC>
19.41

>  <ABCGG>
15.74

>  <nAcid>
0

>  <nBase>
1

>  <nAromAtom>
12

>  <nAromBond>
12

>  <nAtom>
44

>  <nHeavyAtom>
25

>  <nSpiro>
0

>  <nBridgehead>
0

>  <nHetero>
7

>  <nN>
5

>  <nO>
2

>  <nF>
0

>  <BalabanJ>
1.5

>  <BertzCT>
844.87

>  <nBonds>
46

>  <nBondsO>
27

>  <nBondsS>
31

>  <nBondsD>
3

>  <nBondsT>
0

>  <nBondsA>
12

>  <nBondsM>
15

>  <nBondsKS>
37

>  <nBondsKD>
9

>  <RNCG>
0.18

>  <RPCG>
0.15

>  <FCSP3>
0.22

>  <SZ>
29.67

>  <Sm>
28.09

>  <Sv>
28.37

>  <Sse>
44.41

>  <Sp>
29.84

>  <Si>
49.82

>  <MZ>
0.67

>  <Mm>
0.64

>  <Mv>
0.64

>  <Mse>
1.01

>  <Mp>
0.68

>  <Mi>
1.13

>  <NsCH3>
2

>  <NdCH2>
0

>  <NssCH2>
1

>  <NtCH>
0

>  <NdsCH>
2

>  <NaaCH>
7

>  <NsssCH>
1

>  <NddC>
0

>  <NtsC>
0

>  <NdssC>
1

>  <NaasC>
4

>  <NaaaC>
0

>  <NssssC>
0

>  <NsNH3>
0

>  <NsNH2>
0

>  <NssNH2>
0

>  <NdNH>
0

>  <NssNH>
1

>  <NaaNH>
0

>  <NtN>
0

>  <NsssNH>
0

>  <NdsN>
1

>  <NaaN>
1

>  <NsssN>
1

>  <NddsN>
1

>  <NaasN>
0

>  <NssssN>
0

>  <NsOH>
0

>  <NdO>
1

>  <NssO>
0

>  <NaaO>
0

>  <NsF>
0

>  <NsSiH3>
0

>  <NssSiH2>
0

>  <NsssSiH>
0

>  <NssssSi>
0

>  <NsPH2>
0

>  <NssPH>
0

>  <NsssP>
0

>  <NdsssP>
0

>  <NsssssP>
0

>  <NsSH>
0

>  <NdS>
0

>  <NssS>
0

>  <NaaS>
0

>  <NdssS>
0

>  <NddssS>
0

>  <NsCl>
0

>  <NsBr>
0

>  <NsI>
0

>  <fragCpx>
129.07

>  <fMF>
0.41

>  <nHBAcc>
6

>  <nHBDon>
1

>  <Kier1>
19.75

>  <Kier2>
9.27

>  <Lipinski>
1

>  <GhoseFilter>
1

>  <FilterItLogS>
-4.47

>  <VMcGowan>
254.84

>  <LabuteASA>
145.43

>  <PEOE_VSA1>
10.22

>  <PEOE_VSA2>
20.09

>  <PEOE_VSA3>
0

>  <PEOE_VSA4>
0

>  <PEOE_VSA5>
0

>  <PEOE_VSA6>
12.13

>  <PEOE_VSA7>
43.92

>  <PEOE_VSA8>
36.28

>  <PEOE_VSA9>
10.62

>  <PEOE_VSA10>
0

>  <PEOE_VSA11>
0

>  <PEOE_VSA12>
6.17

>  <PEOE_VSA13>
5.7

>  <SMR_VSA1>
4.92

>  <SMR_VSA2>
0

>  <SMR_VSA3>
9.88

>  <SMR_VSA4>
4.99

>  <SMR_VSA5>
12.71

>  <SMR_VSA6>
19.41

>  <SMR_VSA7>
70.05

>  <SMR_VSA8>
0

>  <SMR_VSA9>
11.26

>  <SlogP_VSA1>
5.32

>  <SlogP_VSA2>
41.28

>  <SlogP_VSA3>
6.54

>  <SlogP_VSA4>
10.11

>  <SlogP_VSA5>
5.56

>  <SlogP_VSA6>
59.36

>  <SlogP_VSA7>
0

>  <SlogP_VSA8>
11.26

>  <SlogP_VSA9>
0

>  <SlogP_VSA10>
5.69

>  <SlogP_VSA11>
0

>  <EState_VSA1>
11.09

>  <EState_VSA2>
5.7

>  <EState_VSA3>
0

>  <EState_VSA4>
23.49

>  <EState_VSA5>
17.85

>  <EState_VSA6>
6.2

>  <EState_VSA7>
44.43

>  <EState_VSA8>
26.26

>  <EState_VSA9>
0

>  <EState_VSA10>
10.11

>  <VSA_EState1>
0

>  <VSA_EState2>
21.23

>  <VSA_EState3>
14.1

>  <VSA_EState4>
3.78

>  <VSA_EState5>
0

>  <VSA_EState6>
11.69

>  <VSA_EState7>
3.99

>  <VSA_EState8>
0.83

>  <VSA_EState9>
4.04

>  <apol>
49.83

>  <bpol>
24.79

>  <nRing>
3

>  <nHRing>
2

>  <naRing>
2

>  <naHRing>
1

>  <nARing 2>
1

>  <nAHRing 2>
1

>  <nFRing>
0

>  <nFHRing>
0

>  <nFaRing>
0

>  <nFaHRing>
0

>  <nFARing 2>
0

>  <nFAHRing 2>
0

>  <nRot>
6

>  <SLogP>
2.79

>  <SMR>
98.04

>  <TopoPSA(NO)>
83.66

>  <TopoPSA>
83.66

>  <JGI1>
0.2

>  <JGI2>
0.06

>  <JGI3>
0.05

>  <JGI4>
0.03

>  <JGI5>
0.02

>  <Diameter>
13

>  <Radius>
7

>  <TMWC10>
126.47

>  <TSRW10>
73.03

>  <MW>
337.15

>  <AMW>
7.66

>  <WPath>
1624

>  <WPol>
35

>  <Zagreb1>
128

>  <Zagreb2>
147

>  <mZagreb2>
5.5

>  <yes>


>  <nAR-cont>
0.816016

>  <nHA-cont>
0.921834225

>  <MWHBN>
0.381229464

>  <MWHBN-cont>
0.549979006

>  <TPSA-cont>
0.41600125

>  <pka_cont>
0.97

>  <yes.1>


>  <BBB_SCORE>
3.879821235

>  <MMFF94 Energy>
6.5001

$$$$
Compound 251
Actelion Java MolfileCreator 2.0

  0  0  0  0  0  0              0 V3000
M  V30 BEGIN CTAB
M  V30 COUNTS 46 48 0 0 0
M  V30 BEGIN ATOM
M  V30 1 O 4.6045 5.1614 0.872 0
M  V30 2 N 3.6399 4.8336 0.1644 0 CHG=1
M  V30 3 O 3.2404 5.477 -0.817 0 CHG=-1
M  V30 4 C 2.8758 3.59 0.5062 0
M  V30 5 C 3.8264 2.4277 0.7538 0
M  V30 6 C 2.2086 3.8058 1.8845 0
M  V30 7 C 3.6257 1.9457 1.987 0
M  V30 8 N 2.6783 2.6683 2.6509 0
M  V30 9 N 0.7598 3.8685 1.9003 0
M  V30 10 C -0.1746 2.9948 1.3883 0
M  V30 11 C 0.121 1.7364 0.8534 0
M  V30 12 C -1.5163 3.3984 1.3578 0
M  V30 13 C -0.8597 0.8842 0.2979 0
M  V30 14 C -2.5136 2.5866 0.8153 0
M  V30 15 C -0.4775 -0.431 -0.2568 0
M  V30 16 C -2.1856 1.3407 0.286 0
M  V30 17 N 0.7363 -0.4823 -0.8637 0
M  V30 18 C -1.2969 -1.558 -0.1613 0
M  V30 19 C 1.1275 -1.6621 -1.3918 0
M  V30 20 C -0.8748 -2.7735 -0.7143 0
M  V30 21 C 0.371 -2.8181 -1.3413 0
M  V30 22 C -1.733 -4.0144 -0.6091 0
M  V30 23 N -2.0065 -4.6455 -1.9118 0
M  V30 24 C -2.9003 -3.8214 -2.7306 0
M  V30 25 C -2.5985 -5.9698 -1.7123 0
M  V30 26 H 2.182 3.3827 -0.3136 0
M  V30 27 H 4.5075 2.023 0.0213 0
M  V30 28 H 2.5731 4.7144 2.3801 0
M  V30 29 H 4.0913 1.0851 2.451 0
M  V30 30 H 2.1654 2.314 3.4461 0
M  V30 31 H 0.3889 4.6801 2.3807 0
M  V30 32 H 1.1409 1.3651 0.8676 0
M  V30 33 H -1.8026 4.3716 1.7504 0
M  V30 34 H -3.5435 2.9335 0.7949 0
M  V30 35 H -2.9765 0.7398 -0.1558 0
M  V30 36 H -2.2514 -1.499 0.3518 0
M  V30 37 H 2.1004 -1.653 -1.8743 0
M  V30 38 H 0.7391 -3.7362 -1.7882 0
M  V30 39 H -2.6722 -3.7889 -0.086 0
M  V30 40 H -1.1825 -4.7135 0.0351 0
M  V30 41 H -2.4477 -2.8517 -2.9631 0
M  V30 42 H -3.8644 -3.6443 -2.2399 0
M  V30 43 H -3.0912 -4.307 -3.6945 0
M  V30 44 H -3.552 -5.9205 -1.1737 0
M  V30 45 H -1.9163 -6.6162 -1.1489 0
M  V30 46 H -2.7708 -6.4639 -2.6751 0
M  V30 END ATOM
M  V30 BEGIN BOND
M  V30 1 2 1 2
M  V30 2 1 2 3
M  V30 3 1 2 4
M  V30 4 1 4 5
M  V30 5 1 4 6
M  V30 6 2 5 7
M  V30 7 1 6 8
M  V30 8 1 6 9
M  V30 9 1 9 10
M  V30 10 2 10 11
M  V30 11 1 10 12
M  V30 12 1 11 13
M  V30 13 2 12 14
M  V30 14 1 13 15
M  V30 15 2 13 16
M  V30 16 2 15 17
M  V30 17 1 15 18
M  V30 18 1 17 19
M  V30 19 2 18 20
M  V30 20 2 19 21
M  V30 21 1 20 22
M  V30 22 1 22 23
M  V30 23 1 23 24
M  V30 24 1 23 25
M  V30 25 1 7 8
M  V30 26 1 14 16
M  V30 27 1 20 21
M  V30 28 1 4 26
M  V30 29 1 5 27
M  V30 30 1 6 28
M  V30 31 1 7 29
M  V30 32 1 8 30
M  V30 33 1 9 31
M  V30 34 1 11 32
M  V30 35 1 12 33
M  V30 36 1 14 34
M  V30 37 1 16 35
M  V30 38 1 18 36
M  V30 39 1 19 37
M  V30 40 1 21 38
M  V30 41 1 22 39
M  V30 42 1 22 40
M  V30 43 1 24 41
M  V30 44 1 24 42
M  V30 45 1 24 43
M  V30 46 1 25 44
M  V30 47 1 25 45
M  V30 48 1 25 46
M  V30 END BOND
M  V30 END CTAB
M  END
>  <Column 1>
322

>  <level_0>
366

>  <index>
366

>  <Unnamed: 0>
366

>  <NO.>
368

>  <Name>
bbcpd19 (ranitidine analog)

>  <IUPAC_name>


>  <SMILES>
CN(C)Cc1ccnc(-c2cccc(NC3NC=CC3[N+](=O)[O-])c2)c1

>  <CID>


>  <logBB>
-0.28

>  <BBB+/BBB->
BBB+

>  <Inchi>
InChI=1S/C18H21N5O2/c1-22(2)12-13-6-8-19-16(10-13)14-4-3-5-15(11-14)21-18-17(23(24)25)7-9-20-18/h3-11-17-18-20-21H-12H2-1-2H3

>  <threshold>


>  <reference>
R12|

>  <group>
A

>  <Class>
1

>  <ABC>
19.41

>  <ABCGG>
15.74

>  <nAcid>
0

>  <nBase>
1

>  <nAromAtom>
12

>  <nAromBond>
12

>  <nAtom>
46

>  <nHeavyAtom>
25

>  <nSpiro>
0

>  <nBridgehead>
0

>  <nHetero>
7

>  <nN>
5

>  <nO>
2

>  <nF>
0

>  <BalabanJ>
1.5

>  <BertzCT>
790.54

>  <nBonds>
48

>  <nBondsO>
27

>  <nBondsS>
34

>  <nBondsD>
2

>  <nBondsT>
0

>  <nBondsA>
12

>  <nBondsM>
14

>  <nBondsKS>
40

>  <nBondsKD>
8

>  <RNCG>
0.17

>  <RPCG>
0.13

>  <FCSP3>
0.28

>  <SZ>
30

>  <Sm>
28.26

>  <Sv>
28.91

>  <Sse>
46.3

>  <Sp>
30.64

>  <Si>
52.23

>  <MZ>
0.65

>  <Mm>
0.61

>  <Mv>
0.63

>  <Mse>
1.01

>  <Mp>
0.67

>  <Mi>
1.14

>  <NsCH3>
2

>  <NdCH2>
0

>  <NssCH2>
1

>  <NtCH>
0

>  <NdsCH>
2

>  <NaaCH>
7

>  <NsssCH>
2

>  <NddC>
0

>  <NtsC>
0

>  <NdssC>
0

>  <NaasC>
4

>  <NaaaC>
0

>  <NssssC>
0

>  <NsNH3>
0

>  <NsNH2>
0

>  <NssNH2>
0

>  <NdNH>
0

>  <NssNH>
2

>  <NaaNH>
0

>  <NtN>
0

>  <NsssNH>
0

>  <NdsN>
0

>  <NaaN>
1

>  <NsssN>
1

>  <NddsN>
1

>  <NaasN>
0

>  <NssssN>
0

>  <NsOH>
0

>  <NdO>
1

>  <NssO>
0

>  <NaaO>
0

>  <NsF>
0

>  <NsSiH3>
0

>  <NssSiH2>
0

>  <NsssSiH>
0

>  <NssssSi>
0

>  <NsPH2>
0

>  <NssPH>
0

>  <NsssP>
0

>  <NdsssP>
0

>  <NsssssP>
0

>  <NsSH>
0

>  <NdS>
0

>  <NssS>
0

>  <NaaS>
0

>  <NdssS>
0

>  <NddssS>
0

>  <NsCl>
0

>  <NsBr>
0

>  <NsI>
0

>  <fragCpx>
129.07

>  <fMF>
0.39

>  <nHBAcc>
6

>  <nHBDon>
2

>  <Kier1>
19.75

>  <Kier2>
9.27

>  <Lipinski>
1

>  <GhoseFilter>
1

>  <FilterItLogS>
-4.26

>  <VMcGowan>
259.14

>  <LabuteASA>
146.08

>  <PEOE_VSA1>
15.53

>  <PEOE_VSA2>
15.1

>  <PEOE_VSA3>
0

>  <PEOE_VSA4>
0

>  <PEOE_VSA5>
0

>  <PEOE_VSA6>
12.13

>  <PEOE_VSA7>
43.92

>  <PEOE_VSA8>
41.19

>  <PEOE_VSA9>
5.69

>  <PEOE_VSA10>
0

>  <PEOE_VSA11>
6.17

>  <PEOE_VSA12>
0

>  <PEOE_VSA13>
6.04

>  <SMR_VSA1>
4.92

>  <SMR_VSA2>
0

>  <SMR_VSA3>
15.2

>  <SMR_VSA4>
0

>  <SMR_VSA5>
18.75

>  <SMR_VSA6>
19.41

>  <SMR_VSA7>
70.55

>  <SMR_VSA8>
0

>  <SMR_VSA9>
11.26

>  <SlogP_VSA1>
10.63

>  <SlogP_VSA2>
41.11

>  <SlogP_VSA3>
6.54

>  <SlogP_VSA4>
10.11

>  <SlogP_VSA5>
5.56

>  <SlogP_VSA6>
54.87

>  <SlogP_VSA7>
0

>  <SlogP_VSA8>
11.26

>  <SlogP_VSA9>
0

>  <SlogP_VSA10>
5.69

>  <SlogP_VSA11>
0

>  <EState_VSA1>
12.21

>  <EState_VSA2>
4.92

>  <EState_VSA3>
0

>  <EState_VSA4>
23.49

>  <EState_VSA5>
5.56

>  <EState_VSA6>
18.47

>  <EState_VSA7>
44.43

>  <EState_VSA8>
26.58

>  <EState_VSA9>
0

>  <EState_VSA10>
10.11

>  <VSA_EState1>
0

>  <VSA_EState2>
17.33

>  <VSA_EState3>
17.23

>  <VSA_EState4>
3.84

>  <VSA_EState5>
0

>  <VSA_EState6>
11.03

>  <VSA_EState7>
4.51

>  <VSA_EState8>
0.84

>  <VSA_EState9>
4.05

>  <apol>
51.17

>  <bpol>
26.22

>  <nRing>
3

>  <nHRing>
2

>  <naRing>
2

>  <naHRing>
1

>  <nARing 2>
1

>  <nAHRing 2>
1

>  <nFRing>
0

>  <nFHRing>
0

>  <nFaRing>
0

>  <nFaHRing>
0

>  <nFARing 2>
0

>  <nFAHRing 2>
0

>  <nRot>
6

>  <SLogP>
2.31

>  <SMR>
97.53

>  <TopoPSA(NO)>
83.33

>  <TopoPSA>
83.33

>  <JGI1>
0.2

>  <JGI2>
0.06

>  <JGI3>
0.05

>  <JGI4>
0.03

>  <JGI5>
0.02

>  <Diameter>
13

>  <Radius>
7

>  <TMWC10>
126.47

>  <TSRW10>
73.03

>  <MW>
339.17

>  <AMW>
7.37

>  <WPath>
1624

>  <WPol>
35

>  <Zagreb1>
128

>  <Zagreb2>
147

>  <mZagreb2>
5.5

>  <yes>


>  <nAR-cont>
0.816016

>  <nHA-cont>
0.921834225

>  <MWHBN>
0.434391453

>  <MWHBN-cont>
0.343163328

>  <TPSA-cont>
0.418304855

>  <pka_cont>
0.97

>  <yes.1>


>  <BBB_SCORE>
3.574204927

>  <MMFF94 Energy>
61.475

$$$$
Compound 252
Actelion Java MolfileCreator 2.0

  0  0  0  0  0  0              0 V3000
M  V30 BEGIN CTAB
M  V30 COUNTS 44 46 0 0 0
M  V30 BEGIN ATOM
M  V30 1 O 0.9507 5.556 3.9662 0
M  V30 2 N 2.1395 5.225 4.0916 0 CHG=1
M  V30 3 O 2.904 5.6099 4.9868 0 CHG=-1
M  V30 4 C 2.6899 4.3272 3.1086 0
M  V30 5 C 1.9844 3.7001 2.0896 0
M  V30 6 C 4.0508 3.9171 3.008 0
M  V30 7 N 2.9004 2.9786 1.3566 0
M  V30 8 N 0.6756 3.7704 1.7345 0
M  V30 9 C 4.1483 3.0848 1.9161 0
M  V30 10 C -0.0738 2.9144 0.9014 0
M  V30 11 C 0.2289 1.5576 0.7207 0
M  V30 12 C -1.1388 3.4541 0.1714 0
M  V30 13 C -0.4881 0.7336 -0.1709 0
M  V30 14 C -1.8705 2.6657 -0.7161 0
M  V30 15 C -0.1159 -0.6862 -0.3364 0
M  V30 16 C -1.5428 1.32 -0.8893 0
M  V30 17 N 1.2084 -0.9638 -0.2071 0
M  V30 18 C -1.0488 -1.6881 -0.6027 0
M  V30 19 C 1.5999 -2.2475 -0.3591 0
M  V30 20 C -0.6235 -3.0141 -0.7632 0
M  V30 21 C 0.7362 -3.2933 -0.6338 0
M  V30 22 C -1.623 -4.1154 -1.0392 0
M  V30 23 N -2.4714 -3.8486 -2.2141 0
M  V30 24 C -3.5836 -4.8006 -2.2547 0
M  V30 25 C -1.7035 -3.931 -3.4599 0
M  V30 26 H 4.8663 4.212 3.6572 0
M  V30 27 H 2.6791 2.4587 0.5171 0
M  V30 28 H 0.0973 4.49 2.1772 0
M  V30 29 H 4.9935 2.5677 1.4806 0
M  V30 30 H 1.0183 1.1002 1.3143 0
M  V30 31 H -1.3942 4.5063 0.2745 0
M  V30 32 H -2.6871 3.1037 -1.2846 0
M  V30 33 H -2.1141 0.7374 -1.6091 0
M  V30 34 H -2.1071 -1.4561 -0.6834 0
M  V30 35 H 2.6668 -2.4196 -0.2493 0
M  V30 36 H 1.1221 -4.3011 -0.742 0
M  V30 37 H -2.2476 -4.1945 -0.1387 0
M  V30 38 H -1.1109 -5.0812 -1.1449 0
M  V30 39 H -4.2006 -4.7112 -1.3534 0
M  V30 40 H -3.2384 -5.8378 -2.336 0
M  V30 41 H -4.2421 -4.5879 -3.1044 0
M  V30 42 H -1.2461 -4.9174 -3.5992 0
M  V30 43 H -0.9115 -3.1753 -3.4909 0
M  V30 44 H -2.3506 -3.7292 -4.3213 0
M  V30 END ATOM
M  V30 BEGIN BOND
M  V30 1 2 1 2
M  V30 2 1 2 3
M  V30 3 1 2 4
M  V30 4 2 4 5
M  V30 5 1 4 6
M  V30 6 1 5 7
M  V30 7 1 5 8
M  V30 8 2 6 9
M  V30 9 1 8 10
M  V30 10 2 10 11
M  V30 11 1 10 12
M  V30 12 1 11 13
M  V30 13 2 12 14
M  V30 14 1 13 15
M  V30 15 2 13 16
M  V30 16 2 15 17
M  V30 17 1 15 18
M  V30 18 1 17 19
M  V30 19 2 18 20
M  V30 20 2 19 21
M  V30 21 1 20 22
M  V30 22 1 22 23
M  V30 23 1 23 24
M  V30 24 1 23 25
M  V30 25 1 7 9
M  V30 26 1 14 16
M  V30 27 1 20 21
M  V30 28 1 6 26
M  V30 29 1 7 27
M  V30 30 1 8 28
M  V30 31 1 9 29
M  V30 32 1 11 30
M  V30 33 1 12 31
M  V30 34 1 14 32
M  V30 35 1 16 33
M  V30 36 1 18 34
M  V30 37 1 19 35
M  V30 38 1 21 36
M  V30 39 1 22 37
M  V30 40 1 22 38
M  V30 41 1 24 39
M  V30 42 1 24 40
M  V30 43 1 24 41
M  V30 44 1 25 42
M  V30 45 1 25 43
M  V30 46 1 25 44
M  V30 END BOND
M  V30 END CTAB
M  END
>  <Column 1>
323

>  <level_0>
367

>  <index>
367

>  <Unnamed: 0>
367

>  <NO.>
369

>  <Name>
112598-49-9

>  <IUPAC_name>
n-[3-[4-[(dimethylamino)methyl]pyridin-2-yl]phenyl]-3-nitro-1h-pyrrol-2-amine

>  <SMILES>
CN(C)Cc1ccnc(-c2cccc(Nc3[nH]ccc3[N+](=O)[O-])c2)c1

>  <CID>
14022486

>  <logBB>
-0.28

>  <BBB+/BBB->
BBB+

>  <Inchi>
InChI=1S/C18H19N5O2/c1-22(2)12-13-6-8-19-16(10-13)14-4-3-5-15(11-14)21-18-17(23(24)25)7-9-20-18/h3-11-20-21H-12H2-1-2H3

>  <threshold>


>  <reference>
R2|R2|R3|R3|R8|R18|R20|R25|R26|R27|R27|R38|R38|R41|R41|R43|R46|R47|R48|R49|R49|R4|R40|

>  <group>
A

>  <Class>
1

>  <ABC>
19.41

>  <ABCGG>
15.74

>  <nAcid>
0

>  <nBase>
1

>  <nAromAtom>
17

>  <nAromBond>
17

>  <nAtom>
44

>  <nHeavyAtom>
25

>  <nSpiro>
0

>  <nBridgehead>
0

>  <nHetero>
7

>  <nN>
5

>  <nO>
2

>  <nF>
0

>  <BalabanJ>
1.5

>  <BertzCT>
888.43

>  <nBonds>
46

>  <nBondsO>
27

>  <nBondsS>
28

>  <nBondsD>
1

>  <nBondsT>
0

>  <nBondsA>
17

>  <nBondsM>
18

>  <nBondsKS>
37

>  <nBondsKD>
9

>  <RNCG>
0.17

>  <RPCG>
0.15

>  <FCSP3>
0.17

>  <SZ>
29.67

>  <Sm>
28.09

>  <Sv>
28.37

>  <Sse>
44.41

>  <Sp>
29.84

>  <Si>
49.82

>  <MZ>
0.67

>  <Mm>
0.64

>  <Mv>
0.64

>  <Mse>
1.01

>  <Mp>
0.68

>  <Mi>
1.13

>  <NsCH3>
2

>  <NdCH2>
0

>  <NssCH2>
1

>  <NtCH>
0

>  <NdsCH>
0

>  <NaaCH>
9

>  <NsssCH>
0

>  <NddC>
0

>  <NtsC>
0

>  <NdssC>
0

>  <NaasC>
6

>  <NaaaC>
0

>  <NssssC>
0

>  <NsNH3>
0

>  <NsNH2>
0

>  <NssNH2>
0

>  <NdNH>
0

>  <NssNH>
1

>  <NaaNH>
1

>  <NtN>
0

>  <NsssNH>
0

>  <NdsN>
0

>  <NaaN>
1

>  <NsssN>
1

>  <NddsN>
1

>  <NaasN>
0

>  <NssssN>
0

>  <NsOH>
0

>  <NdO>
1

>  <NssO>
0

>  <NaaO>
0

>  <NsF>
0

>  <NsSiH3>
0

>  <NssSiH2>
0

>  <NsssSiH>
0

>  <NssssSi>
0

>  <NsPH2>
0

>  <NssPH>
0

>  <NsssP>
0

>  <NdsssP>
0

>  <NsssssP>
0

>  <NsSH>
0

>  <NdS>
0

>  <NssS>
0

>  <NaaS>
0

>  <NdssS>
0

>  <NddssS>
0

>  <NsCl>
0

>  <NsBr>
0

>  <NsI>
0

>  <fragCpx>
129.07

>  <fMF>
0.41

>  <nHBAcc>
5

>  <nHBDon>
2

>  <Kier1>
19.75

>  <Kier2>
9.27

>  <Lipinski>
1

>  <GhoseFilter>
1

>  <FilterItLogS>
-5.45

>  <VMcGowan>
254.84

>  <LabuteASA>
145.03

>  <PEOE_VSA1>
15.2

>  <PEOE_VSA2>
15.1

>  <PEOE_VSA3>
0

>  <PEOE_VSA4>
0

>  <PEOE_VSA5>
0

>  <PEOE_VSA6>
12.13

>  <PEOE_VSA7>
43.92

>  <PEOE_VSA8>
36.26

>  <PEOE_VSA9>
10.62

>  <PEOE_VSA10>
0

>  <PEOE_VSA11>
5.82

>  <PEOE_VSA12>
0

>  <PEOE_VSA13>
0

>  <SMR_VSA1>
4.92

>  <SMR_VSA2>
0

>  <SMR_VSA3>
14.87

>  <SMR_VSA4>
0

>  <SMR_VSA5>
6.54

>  <SMR_VSA6>
19.41

>  <SMR_VSA7>
70.54

>  <SMR_VSA8>
0

>  <SMR_VSA9>
11.26

>  <SlogP_VSA1>
5.32

>  <SlogP_VSA2>
33.89

>  <SlogP_VSA3>
6.54

>  <SlogP_VSA4>
10.11

>  <SlogP_VSA5>
5.56

>  <SlogP_VSA6>
54.86

>  <SlogP_VSA7>
0

>  <SlogP_VSA8>
11.26

>  <SlogP_VSA9>
0

>  <SlogP_VSA10>
17.19

>  <SlogP_VSA11>
0

>  <EState_VSA1>
4.92

>  <EState_VSA2>
5.69

>  <EState_VSA3>
5.82

>  <EState_VSA4>
23.49

>  <EState_VSA5>
17.83

>  <EState_VSA6>
6.2

>  <EState_VSA7>
44.43

>  <EState_VSA8>
26.25

>  <EState_VSA9>
0

>  <EState_VSA10>
10.11

>  <VSA_EState1>
0

>  <VSA_EState2>
19.99

>  <VSA_EState3>
14.08

>  <VSA_EState4>
3.75

>  <VSA_EState5>
0.36

>  <VSA_EState6>
13.12

>  <VSA_EState7>
3.33

>  <VSA_EState8>
0.84

>  <VSA_EState9>
4.04

>  <apol>
49.83

>  <bpol>
24.22

>  <nRing>
3

>  <nHRing>
2

>  <naRing>
3

>  <naHRing>
2

>  <nARing 2>
0

>  <nAHRing 2>
0

>  <nFRing>
0

>  <nFHRing>
0

>  <nFaRing>
0

>  <nFaHRing>
0

>  <nFARing 2>
0

>  <nFAHRing 2>
0

>  <nRot>
6

>  <SLogP>
3.79

>  <SMR>
97.79

>  <TopoPSA(NO)>
87.09

>  <TopoPSA>
87.09

>  <JGI1>
0.2

>  <JGI2>
0.06

>  <JGI3>
0.05

>  <JGI4>
0.03

>  <JGI5>
0.02

>  <Diameter>
13

>  <Radius>
7

>  <TMWC10>
126.47

>  <TSRW10>
73.03

>  <MW>
337.15

>  <AMW>
7.66

>  <WPath>
1624

>  <WPol>
35

>  <Zagreb1>
128

>  <Zagreb2>
147

>  <mZagreb2>
5.5

>  <yes>


>  <nAR-cont>
0.336376

>  <nHA-cont>
0.921834225

>  <MWHBN>
0.381229464

>  <MWHBN-cont>
0.549979006

>  <TPSA-cont>
0.39205772

>  <pka_cont>
0.97

>  <yes.1>


>  <BBB_SCORE>
3.352294175

>  <MMFF94 Energy>
89.731

$$$$
Compound 253
Actelion Java MolfileCreator 2.0

  0  0  0  0  0  0              0 V3000
M  V30 BEGIN CTAB
M  V30 COUNTS 29 30 0 0 0
M  V30 BEGIN ATOM
M  V30 1 Br -2.8793 3.4399 3.1196 0
M  V30 2 C -2.084 2.0942 2.0562 0
M  V30 3 C -0.886 1.5143 2.4563 0
M  V30 4 C -2.7011 1.6886 0.8792 0
M  V30 5 C -0.2862 0.5028 1.6834 0
M  V30 6 C -2.112 0.6981 0.0756 0
M  V30 7 C -0.8913 0.0922 0.4724 0
M  V30 8 C 0.9921 -0.0993 2.2046 0
M  V30 9 C -2.7937 0.3218 -1.214 0
M  V30 10 N -0.3006 -0.8638 -0.3795 0
M  V30 11 C 0.9646 -0.8408 -0.8697 0
M  V30 12 N 1.8658 0.0949 -0.7884 0
M  V30 13 N 1.322 -1.958 -1.5524 0
M  V30 14 C 3.0372 -0.4298 -1.5426 0
M  V30 15 C 2.7017 -1.8702 -1.9433 0
M  V30 16 H -0.4099 1.84 3.3786 0
M  V30 17 H -3.6351 2.154 0.5731 0
M  V30 18 H 1.8541 0.4802 1.8629 0
M  V30 19 H 1.1033 -1.144 1.899 0
M  V30 20 H 0.9965 -0.1019 3.3008 0
M  V30 21 H -3.6778 0.9412 -1.3996 0
M  V30 22 H -3.123 -0.7214 -1.177 0
M  V30 23 H -2.1139 0.4629 -2.0605 0
M  V30 24 H -0.9495 -1.4627 -0.8631 0
M  V30 25 H 0.875 -2.8494 -1.4069 0
M  V30 26 H 3.9347 -0.3923 -0.9169 0
M  V30 27 H 3.2062 0.1946 -2.4266 0
M  V30 28 H 2.8338 -2.0373 -3.0158 0
M  V30 29 H 3.3106 -2.5888 -1.3862 0
M  V30 END ATOM
M  V30 BEGIN BOND
M  V30 1 1 1 2
M  V30 2 2 2 3
M  V30 3 1 2 4
M  V30 4 1 3 5
M  V30 5 2 4 6
M  V30 6 2 5 7
M  V30 7 1 5 8
M  V30 8 1 6 9
M  V30 9 1 7 10
M  V30 10 1 10 11
M  V30 11 2 11 12
M  V30 12 1 11 13
M  V30 13 1 12 14
M  V30 14 1 13 15
M  V30 15 1 6 7
M  V30 16 1 14 15
M  V30 17 1 3 16
M  V30 18 1 4 17
M  V30 19 1 8 18
M  V30 20 1 8 19
M  V30 21 1 8 20
M  V30 22 1 9 21
M  V30 23 1 9 22
M  V30 24 1 9 23
M  V30 25 1 10 24
M  V30 26 1 13 25
M  V30 27 1 14 26
M  V30 28 1 14 27
M  V30 29 1 15 28
M  V30 30 1 15 29
M  V30 END BOND
M  V30 END CTAB
M  END
>  <Column 1>
324

>  <level_0>
368

>  <index>
368

>  <Unnamed: 0>
368

>  <NO.>
370

>  <Name>
65936-23-4

>  <IUPAC_name>
n-(4-bromo-2-6-dimethylphenyl)-4-5-dihydro-1h-imidazol-2-amine

>  <SMILES>
Cc1cc(Br)cc(C)c1NC1=NCCN1

>  <CID>
12406830

>  <logBB>
-0.28

>  <BBB+/BBB->
BBB+

>  <Inchi>
InChI=1S/C11H14BrN3/c1-7-5-9(12)6-8(2)10(7)15-11-13-3-4-14-11/h5-6H-3-4H2-1-2H3-(H2-13-14-15)

>  <threshold>


>  <reference>
R2|R2|R8|R27|R47|R4|R40|

>  <group>
A

>  <Class>
1

>  <ABC>
11.56

>  <ABCGG>
10.55

>  <nAcid>
0

>  <nBase>
3

>  <nAromAtom>
6

>  <nAromBond>
6

>  <nAtom>
29

>  <nHeavyAtom>
15

>  <nSpiro>
0

>  <nBridgehead>
0

>  <nHetero>
4

>  <nN>
3

>  <nO>
0

>  <nF>
0

>  <BalabanJ>
1.88

>  <BertzCT>
389.29

>  <nBonds>
30

>  <nBondsO>
16

>  <nBondsS>
23

>  <nBondsD>
1

>  <nBondsT>
0

>  <nBondsA>
6

>  <nBondsM>
7

>  <nBondsKS>
26

>  <nBondsKD>
4

>  <RNCG>
0.3

>  <RPCG>
0.16

>  <FCSP3>
0.36

>  <SZ>
22.67

>  <Sm>
22.33

>  <Sv>
18.36

>  <Sse>
28.88

>  <Sp>
20.39

>  <Si>
32.83

>  <MZ>
0.78

>  <Mm>
0.77

>  <Mv>
0.63

>  <Mse>
1

>  <Mp>
0.7

>  <Mi>
1.13

>  <NsCH3>
2

>  <NdCH2>
0

>  <NssCH2>
2

>  <NtCH>
0

>  <NdsCH>
0

>  <NaaCH>
2

>  <NsssCH>
0

>  <NddC>
0

>  <NtsC>
0

>  <NdssC>
1

>  <NaasC>
4

>  <NaaaC>
0

>  <NssssC>
0

>  <NsNH3>
0

>  <NsNH2>
0

>  <NssNH2>
0

>  <NdNH>
0

>  <NssNH>
2

>  <NaaNH>
0

>  <NtN>
0

>  <NsssNH>
0

>  <NdsN>
1

>  <NaaN>
0

>  <NsssN>
0

>  <NddsN>
0

>  <NaasN>
0

>  <NssssN>
0

>  <NsOH>
0

>  <NdO>
0

>  <NssO>
0

>  <NaaO>
0

>  <NsF>
0

>  <NsSiH3>
0

>  <NssSiH2>
0

>  <NsssSiH>
0

>  <NssssSi>
0

>  <NsPH2>
0

>  <NssPH>
0

>  <NsssP>
0

>  <NdsssP>
0

>  <NsssssP>
0

>  <NsSH>
0

>  <NdS>
0

>  <NssS>
0

>  <NaaS>
0

>  <NdssS>
0

>  <NddssS>
0

>  <NsCl>
0

>  <NsBr>
1

>  <NsI>
0

>  <fragCpx>
46.04

>  <fMF>
0.41

>  <nHBAcc>
3

>  <nHBDon>
2

>  <Kier1>
11.48

>  <Kier2>
4.89

>  <Lipinski>
1

>  <GhoseFilter>
1

>  <FilterItLogS>
-4.69

>  <VMcGowan>
174.37

>  <LabuteASA>
98.11

>  <PEOE_VSA1>
10.63

>  <PEOE_VSA2>
4.99

>  <PEOE_VSA3>
0

>  <PEOE_VSA4>
0

>  <PEOE_VSA5>
0

>  <PEOE_VSA6>
15.93

>  <PEOE_VSA7>
37.11

>  <PEOE_VSA8>
16.7

>  <PEOE_VSA9>
6.54

>  <PEOE_VSA10>
0

>  <PEOE_VSA11>
5.96

>  <PEOE_VSA12>
0

>  <PEOE_VSA13>
0

>  <SMR_VSA1>
0

>  <SMR_VSA2>
0

>  <SMR_VSA3>
5.32

>  <SMR_VSA4>
4.99

>  <SMR_VSA5>
13.85

>  <SMR_VSA6>
18.41

>  <SMR_VSA7>
27.73

>  <SMR_VSA8>
0

>  <SMR_VSA9>
0

>  <SlogP_VSA1>
10.63

>  <SlogP_VSA2>
19.05

>  <SlogP_VSA3>
0

>  <SlogP_VSA4>
13.85

>  <SlogP_VSA5>
11.13

>  <SlogP_VSA6>
21.6

>  <SlogP_VSA7>
0

>  <SlogP_VSA8>
0

>  <SlogP_VSA9>
0

>  <SlogP_VSA10>
5.69

>  <SlogP_VSA11>
0

>  <EState_VSA1>
0

>  <EState_VSA2>
0

>  <EState_VSA3>
0

>  <EState_VSA4>
29.21

>  <EState_VSA5>
11.13

>  <EState_VSA6>
0

>  <EState_VSA7>
0

>  <EState_VSA8>
57.54

>  <EState_VSA9>
0

>  <EState_VSA10>
0

>  <VSA_EState1>
1.12

>  <VSA_EState2>
4.32

>  <VSA_EState3>
6.52

>  <VSA_EState4>
3.59

>  <VSA_EState5>
0.88

>  <VSA_EState6>
4.2

>  <VSA_EState7>
0

>  <VSA_EState8>
5.97

>  <VSA_EState9>
0

>  <apol>
34.06

>  <bpol>
17.7

>  <nRing>
2

>  <nHRing>
1

>  <naRing>
1

>  <naHRing>
0

>  <nARing 2>
1

>  <nAHRing 2>
1

>  <nFRing>
0

>  <nFHRing>
0

>  <nFaRing>
0

>  <nFaHRing>
0

>  <nFARing 2>
0

>  <nFAHRing 2>
0

>  <nRot>
1

>  <SLogP>
2.44

>  <SMR>
67.54

>  <TopoPSA(NO)>
36.42

>  <TopoPSA>
36.42

>  <JGI1>
0.22

>  <JGI2>
0.07

>  <JGI3>
0.06

>  <JGI4>
0.05

>  <JGI5>
0.02

>  <Diameter>
8

>  <Radius>
4

>  <TMWC10>
100.6

>  <TSRW10>
59.99

>  <MW>
267.04

>  <AMW>
9.21

>  <WPath>
365

>  <WPol>
19

>  <Zagreb1>
76

>  <Zagreb2>
87

>  <mZagreb2>
3.31

>  <yes>


>  <nAR-cont>
0.816016

>  <nHA-cont>
0.92539861

>  <MWHBN>
0.305972112

>  <MWHBN-cont>
0.822536428

>  <TPSA-cont>
0.745765785

>  <pka_cont>
0.97

>  <yes.1>


>  <BBB_SCORE>
4.951750822

>  <MMFF94 Energy>
-25.693

$$$$
Compound 254
Actelion Java MolfileCreator 2.0

  0  0  0  0  0  0              0 V3000
M  V30 BEGIN CTAB
M  V30 COUNTS 14 13 0 0 0
M  V30 BEGIN ATOM
M  V30 1 S 0.5547 0.3962 1.1891 0
M  V30 2 C 0.4822 -1.1624 0.4244 0
M  V30 3 C -0.7933 1.2815 0.3507 0
M  V30 4 N -0.3118 -1.3864 -0.5557 0
M  V30 5 N 1.3171 -2.0783 0.9438 0
M  V30 6 C -0.416 1.7434 -1.0459 0
M  V30 7 F -1.4112 2.5503 -1.5165 0
M  V30 8 H -1.7078 0.6793 0.3294 0
M  V30 9 H -1.0327 2.1626 0.9563 0
M  V30 10 H -0.2021 -2.3566 -0.856 0
M  V30 11 H 1.3721 -3.0231 0.5979 0
M  V30 12 H 1.9062 -1.8152 1.7228 0
M  V30 13 H -0.3019 0.9191 -1.7532 0
M  V30 14 H 0.5032 2.337 -1.0422 0
M  V30 END ATOM
M  V30 BEGIN BOND
M  V30 1 1 1 2
M  V30 2 1 1 3
M  V30 3 2 2 4
M  V30 4 1 2 5
M  V30 5 1 3 6
M  V30 6 1 6 7
M  V30 7 1 3 8
M  V30 8 1 3 9
M  V30 9 1 4 10
M  V30 10 1 5 11
M  V30 11 1 5 12
M  V30 12 1 6 13
M  V30 13 1 6 14
M  V30 END BOND
M  V30 END CTAB
M  END
>  <Column 1>
325

>  <level_0>
369

>  <index>
369

>  <Unnamed: 0>
369

>  <NO.>
371

>  <Name>
unii-13w6wjx09r

>  <IUPAC_name>
2-fluoroethyl carbamimidothioate

>  <SMILES>
N=C(N)SCCF

>  <CID>
10011896

>  <logBB>
-0.27

>  <BBB+/BBB->
BBB+

>  <Inchi>
InChI=1S/C3H7FN2S/c4-1-2-7-3(5)6/h1-2H2-(H3-5-6)

>  <threshold>


>  <reference>
R46|R2|R2|R27|R25|R41|R3|R38|R40|R8|R21|R27|R43|R47|

>  <group>
A

>  <Class>
1

>  <ABC>
4.46

>  <ABCGG>
4.74

>  <nAcid>
0

>  <nBase>
2

>  <nAromAtom>
0

>  <nAromBond>
0

>  <nAtom>
14

>  <nHeavyAtom>
7

>  <nSpiro>
0

>  <nBridgehead>
0

>  <nHetero>
4

>  <nN>
2

>  <nO>
0

>  <nF>
1

>  <BalabanJ>
2.68

>  <BertzCT>
65.96

>  <nBonds>
13

>  <nBondsO>
6

>  <nBondsS>
12

>  <nBondsD>
1

>  <nBondsT>
0

>  <nBondsA>
0

>  <nBondsM>
1

>  <nBondsKS>
12

>  <nBondsKD>
1

>  <RNCG>
0.38

>  <RPCG>
0.19

>  <FCSP3>
0.67

>  <SZ>
10.67

>  <Sm>
10.17

>  <Sv>
8.25

>  <Sse>
14.47

>  <Sp>
9.18

>  <Si>
16.5

>  <MZ>
0.76

>  <Mm>
0.73

>  <Mv>
0.59

>  <Mse>
1.03

>  <Mp>
0.66

>  <Mi>
1.18

>  <NsCH3>
0

>  <NdCH2>
0

>  <NssCH2>
2

>  <NtCH>
0

>  <NdsCH>
0

>  <NaaCH>
0

>  <NsssCH>
0

>  <NddC>
0

>  <NtsC>
0

>  <NdssC>
1

>  <NaasC>
0

>  <NaaaC>
0

>  <NssssC>
0

>  <NsNH3>
0

>  <NsNH2>
1

>  <NssNH2>
0

>  <NdNH>
1

>  <NssNH>
0

>  <NaaNH>
0

>  <NtN>
0

>  <NsssNH>
0

>  <NdsN>
0

>  <NaaN>
0

>  <NsssN>
0

>  <NddsN>
0

>  <NaasN>
0

>  <NssssN>
0

>  <NsOH>
0

>  <NdO>
0

>  <NssO>
0

>  <NaaO>
0

>  <NsF>
1

>  <NsSiH3>
0

>  <NssSiH2>
0

>  <NsssSiH>
0

>  <NssssSi>
0

>  <NsPH2>
0

>  <NssPH>
0

>  <NsssP>
0

>  <NdsssP>
0

>  <NsssssP>
0

>  <NsSH>
0

>  <NdS>
0

>  <NssS>
1

>  <NaaS>
0

>  <NdssS>
0

>  <NddssS>
0

>  <NsCl>
0

>  <NsBr>
0

>  <NsI>
0

>  <fragCpx>
6.04

>  <fMF>
0

>  <nHBAcc>
2

>  <nHBDon>
2

>  <Kier1>
7

>  <Kier2>
4.17

>  <Lipinski>
1

>  <GhoseFilter>
0

>  <FilterItLogS>
-0.77

>  <VMcGowan>
86.9

>  <LabuteASA>
45.78

>  <PEOE_VSA1>
5.73

>  <PEOE_VSA2>
9.8

>  <PEOE_VSA3>
0

>  <PEOE_VSA4>
0

>  <PEOE_VSA5>
0

>  <PEOE_VSA6>
11.76

>  <PEOE_VSA7>
0

>  <PEOE_VSA8>
5.75

>  <PEOE_VSA9>
6.67

>  <PEOE_VSA10>
0

>  <PEOE_VSA11>
5.17

>  <PEOE_VSA12>
0

>  <PEOE_VSA13>
0

>  <SMR_VSA1>
4.39

>  <SMR_VSA2>
5.41

>  <SMR_VSA3>
0

>  <SMR_VSA4>
5.73

>  <SMR_VSA5>
0

>  <SMR_VSA6>
12.43

>  <SMR_VSA7>
0

>  <SMR_VSA8>
0

>  <SMR_VSA9>
0

>  <SlogP_VSA1>
5.73

>  <SlogP_VSA2>
17.6

>  <SlogP_VSA3>
0

>  <SlogP_VSA4>
5.41

>  <SlogP_VSA5>
0

>  <SlogP_VSA6>
0

>  <SlogP_VSA7>
0

>  <SlogP_VSA8>
0

>  <SlogP_VSA9>
0

>  <SlogP_VSA10>
4.39

>  <SlogP_VSA11>
0

>  <EState_VSA1>
6.67

>  <EState_VSA2>
5.17

>  <EState_VSA3>
5.75

>  <EState_VSA4>
11.76

>  <EState_VSA5>
0

>  <EState_VSA6>
0

>  <EState_VSA7>
0

>  <EState_VSA8>
0

>  <EState_VSA9>
11.14

>  <EState_VSA10>
4.39

>  <VSA_EState1>
11.18

>  <VSA_EState2>
0

>  <VSA_EState3>
6.56

>  <VSA_EState4>
4.86

>  <VSA_EState5>
0.3

>  <VSA_EState6>
0

>  <VSA_EState7>
0

>  <VSA_EState8>
-0.41

>  <VSA_EState9>
0

>  <apol>
15.33

>  <bpol>
10.03

>  <nRing>
0

>  <nHRing>
0

>  <naRing>
0

>  <naHRing>
0

>  <nARing 2>
0

>  <nAHRing 2>
0

>  <nFRing>
0

>  <nFHRing>
0

>  <nFaRing>
0

>  <nFaHRing>
0

>  <nFARing 2>
0

>  <nFAHRing 2>
0

>  <nRot>
2

>  <SLogP>
0.58

>  <SMR>
30.35

>  <TopoPSA(NO)>
49.87

>  <TopoPSA>
75.17

>  <JGI1>
0.25

>  <JGI2>
0.07

>  <JGI3>
0.06

>  <JGI4>
0.05

>  <JGI5>
0

>  <Diameter>
5

>  <Radius>
3

>  <TMWC10>
65.08

>  <TSRW10>
31.34

>  <MW>
122.03

>  <AMW>
8.72

>  <WPath>
52

>  <WPol>
4

>  <Zagreb1>
24

>  <Zagreb2>
22

>  <mZagreb2>
1.83

>  <yes>


>  <nAR-cont>
0.336376

>  <nHA-cont>
0.357561384

>  <MWHBN>
0.362098467

>  <MWHBN-cont>
0.62438307

>  <TPSA-cont>
0.475266722

>  <pka_cont>
0.97

>  <yes.1>


>  <BBB_SCORE>
3.066045433

>  <MMFF94 Energy>
-85.14

$$$$
Compound 255
Actelion Java MolfileCreator 2.0

  0  0  0  0  0  0              0 V3000
M  V30 BEGIN CTAB
M  V30 COUNTS 42 44 0 0 0
M  V30 BEGIN ATOM
M  V30 1 O 3.5698 -6.9902 0.3961 0
M  V30 2 N 3.2863 -5.8939 0.8969 0 CHG=1
M  V30 3 O 3.123 -5.6722 2.1061 0 CHG=-1
M  V30 4 C 3.1484 -4.7823 -0.0088 0
M  V30 5 C 2.7298 -3.5018 0.3272 0
M  V30 6 C 3.407 -4.7963 -1.4099 0
M  V30 7 N 2.7991 -2.7445 -0.8201 0
M  V30 8 N 2.3835 -2.9552 1.52 0
M  V30 9 C 3.182 -3.5227 -1.8819 0
M  V30 10 C 1.6394 -1.7859 1.7813 0
M  V30 11 C 0.6494 -1.2987 0.9142 0
M  V30 12 C 1.9324 -1.0504 2.9358 0
M  V30 13 C -0.0409 -0.1027 1.1765 0
M  V30 14 C 1.2607 0.1389 3.2153 0
M  V30 15 C -1.0726 0.3749 0.2577 0
M  V30 16 C 0.2833 0.6098 2.3386 0
M  V30 17 O -1.576 1.6222 0.5068 0
M  V30 18 C -1.69 -0.1495 -0.8622 0
M  V30 19 C -2.5077 1.891 -0.4518 0
M  V30 20 C -2.6119 0.8237 -1.3173 0
M  V30 21 C -3.191 3.2139 -0.3701 0
M  V30 22 N -2.9675 4.0404 -1.572 0
M  V30 23 C -1.5741 4.49 -1.6509 0
M  V30 24 C -3.8599 5.2007 -1.5498 0
M  V30 25 H 3.7373 -5.6432 -1.9992 0
M  V30 26 H 2.6166 -1.7505 -0.8577 0
M  V30 27 H 2.5864 -3.4875 2.3713 0
M  V30 28 H 3.2762 -3.0988 -2.8733 0
M  V30 29 H 0.3826 -1.8828 0.0381 0
M  V30 30 H 2.7027 -1.3941 3.6224 0
M  V30 31 H 1.5005 0.7017 4.1137 0
M  V30 32 H -0.2303 1.5392 2.576 0
M  V30 33 H -1.5039 -1.1183 -1.3024 0
M  V30 34 H -3.2699 0.7675 -2.1732 0
M  V30 35 H -4.2643 3.0075 -0.2642 0
M  V30 36 H -2.8828 3.7491 0.5375 0
M  V30 37 H -0.8862 3.6435 -1.7468 0
M  V30 38 H -1.2787 5.0786 -0.7745 0
M  V30 39 H -1.4228 5.1074 -2.5437 0
M  V30 40 H -3.6874 5.8405 -0.6766 0
M  V30 41 H -4.908 4.8811 -1.542 0
M  V30 42 H -3.7267 5.8065 -2.4531 0
M  V30 END ATOM
M  V30 BEGIN BOND
M  V30 1 2 1 2
M  V30 2 1 2 3
M  V30 3 1 2 4
M  V30 4 2 4 5
M  V30 5 1 4 6
M  V30 6 1 5 7
M  V30 7 1 5 8
M  V30 8 2 6 9
M  V30 9 1 8 10
M  V30 10 2 10 11
M  V30 11 1 10 12
M  V30 12 1 11 13
M  V30 13 2 12 14
M  V30 14 1 13 15
M  V30 15 2 13 16
M  V30 16 1 15 17
M  V30 17 2 15 18
M  V30 18 1 17 19
M  V30 19 1 18 20
M  V30 20 1 19 21
M  V30 21 1 21 22
M  V30 22 1 22 23
M  V30 23 1 22 24
M  V30 24 1 7 9
M  V30 25 1 14 16
M  V30 26 2 19 20
M  V30 27 1 6 25
M  V30 28 1 7 26
M  V30 29 1 8 27
M  V30 30 1 9 28
M  V30 31 1 11 29
M  V30 32 1 12 30
M  V30 33 1 14 31
M  V30 34 1 16 32
M  V30 35 1 18 33
M  V30 36 1 20 34
M  V30 37 1 21 35
M  V30 38 1 21 36
M  V30 39 1 23 37
M  V30 40 1 23 38
M  V30 41 1 23 39
M  V30 42 1 24 40
M  V30 43 1 24 41
M  V30 44 1 24 42
M  V30 END BOND
M  V30 END CTAB
M  END
>  <Column 1>
326

>  <level_0>
370

>  <index>
370

>  <Unnamed: 0>
370

>  <NO.>
372

>  <Name>
chembl358151

>  <IUPAC_name>
n-[3-[5-[(dimethylamino)methyl]furan-2-yl]phenyl]-3-nitro-1h-pyrrol-2-amine

>  <SMILES>
CN(C)Cc1ccc(-c2cccc(Nc3[nH]ccc3[N+](=O)[O-])c2)o1

>  <CID>
14022491

>  <logBB>
-0.27

>  <BBB+/BBB->
BBB+

>  <Inchi>
InChI=1S/C17H18N4O3/c1-20(2)11-14-6-7-16(24-14)12-4-3-5-13(10-12)19-17-15(21(22)23)8-9-18-17/h3-10-18-19H-11H2-1-2H3

>  <threshold>


>  <reference>
R2|R2|R8|R27|R40|R3|R3|R18|R25|R26|R27|R38|R38|R41|R41|R43|R46|R47|R48|R49|R49|R4|

>  <group>
A

>  <Class>
1

>  <ABC>
18.7

>  <ABCGG>
15.67

>  <nAcid>
0

>  <nBase>
1

>  <nAromAtom>
16

>  <nAromBond>
16

>  <nAtom>
42

>  <nHeavyAtom>
24

>  <nSpiro>
0

>  <nBridgehead>
0

>  <nHetero>
7

>  <nN>
4

>  <nO>
3

>  <nF>
0

>  <BalabanJ>
1.48

>  <BertzCT>
850.91

>  <nBonds>
44

>  <nBondsO>
26

>  <nBondsS>
27

>  <nBondsD>
1

>  <nBondsT>
0

>  <nBondsA>
16

>  <nBondsM>
17

>  <nBondsKS>
36

>  <nBondsKD>
8

>  <RNCG>
0.21

>  <RPCG>
0.14

>  <FCSP3>
0.18

>  <SZ>
28.67

>  <Sm>
27.17

>  <Sv>
27.05

>  <Sse>
42.64

>  <Sp>
28.26

>  <Si>
47.53

>  <MZ>
0.68

>  <Mm>
0.65

>  <Mv>
0.64

>  <Mse>
1.02

>  <Mp>
0.67

>  <Mi>
1.13

>  <NsCH3>
2

>  <NdCH2>
0

>  <NssCH2>
1

>  <NtCH>
0

>  <NdsCH>
0

>  <NaaCH>
8

>  <NsssCH>
0

>  <NddC>
0

>  <NtsC>
0

>  <NdssC>
0

>  <NaasC>
6

>  <NaaaC>
0

>  <NssssC>
0

>  <NsNH3>
0

>  <NsNH2>
0

>  <NssNH2>
0

>  <NdNH>
0

>  <NssNH>
1

>  <NaaNH>
1

>  <NtN>
0

>  <NsssNH>
0

>  <NdsN>
0

>  <NaaN>
0

>  <NsssN>
1

>  <NddsN>
1

>  <NaasN>
0

>  <NssssN>
0

>  <NsOH>
0

>  <NdO>
1

>  <NssO>
0

>  <NaaO>
1

>  <NsF>
0

>  <NsSiH3>
0

>  <NssSiH2>
0

>  <NsssSiH>
0

>  <NssssSi>
0

>  <NsPH2>
0

>  <NssPH>
0

>  <NsssP>
0

>  <NdsssP>
0

>  <NsssssP>
0

>  <NsSH>
0

>  <NdS>
0

>  <NssS>
0

>  <NaaS>
0

>  <NdssS>
0

>  <NddssS>
0

>  <NsCl>
0

>  <NsBr>
0

>  <NsI>
0

>  <fragCpx>
124.07

>  <fMF>
0.4

>  <nHBAcc>
5

>  <nHBDon>
2

>  <Kier1>
18.78

>  <Kier2>
8.59

>  <Lipinski>
1

>  <GhoseFilter>
1

>  <FilterItLogS>
-5.19

>  <VMcGowan>
240.94

>  <LabuteASA>
138.61

>  <PEOE_VSA1>
19.62

>  <PEOE_VSA2>
10.11

>  <PEOE_VSA3>
0

>  <PEOE_VSA4>
0

>  <PEOE_VSA5>
0

>  <PEOE_VSA6>
12.13

>  <PEOE_VSA7>
38.36

>  <PEOE_VSA8>
23.51

>  <PEOE_VSA9>
11.47

>  <PEOE_VSA10>
11.52

>  <PEOE_VSA11>
5.82

>  <PEOE_VSA12>
0

>  <PEOE_VSA13>
0

>  <SMR_VSA1>
9.34

>  <SMR_VSA2>
0

>  <SMR_VSA3>
9.88

>  <SMR_VSA4>
0

>  <SMR_VSA5>
6.54

>  <SMR_VSA6>
19.41

>  <SMR_VSA7>
64.54

>  <SMR_VSA8>
0

>  <SMR_VSA9>
11.32

>  <SlogP_VSA1>
5.32

>  <SlogP_VSA2>
28.9

>  <SlogP_VSA3>
6.54

>  <SlogP_VSA4>
10.11

>  <SlogP_VSA5>
5.76

>  <SlogP_VSA6>
53.08

>  <SlogP_VSA7>
0

>  <SlogP_VSA8>
11.32

>  <SlogP_VSA9>
0

>  <SlogP_VSA10>
17.19

>  <SlogP_VSA11>
0

>  <EState_VSA1>
4.92

>  <EState_VSA2>
5.69

>  <EState_VSA3>
5.82

>  <EState_VSA4>
29.32

>  <EState_VSA5>
12.26

>  <EState_VSA6>
0

>  <EState_VSA7>
55.39

>  <EState_VSA8>
10.3

>  <EState_VSA9>
4.42

>  <EState_VSA10>
10.11

>  <VSA_EState1>
5.85

>  <VSA_EState2>
15.42

>  <VSA_EState3>
14.01

>  <VSA_EState4>
1.65

>  <VSA_EState5>
2

>  <VSA_EState6>
12.85

>  <VSA_EState7>
1.53

>  <VSA_EState8>
0.73

>  <VSA_EState9>
3.96

>  <apol>
47.2

>  <bpol>
23.81

>  <nRing>
3

>  <nHRing>
2

>  <naRing>
3

>  <naHRing>
2

>  <nARing 2>
0

>  <nAHRing 2>
0

>  <nFRing>
0

>  <nFHRing>
0

>  <nFaRing>
0

>  <nFaHRing>
0

>  <nFARing 2>
0

>  <nFAHRing 2>
0

>  <nRot>
6

>  <SLogP>
3.99

>  <SMR>
92.26

>  <TopoPSA(NO)>
87.34

>  <TopoPSA>
87.34

>  <JGI1>
0.21

>  <JGI2>
0.06

>  <JGI3>
0.05

>  <JGI4>
0.03

>  <JGI5>
0.02

>  <Diameter>
13

>  <Radius>
7

>  <TMWC10>
124.35

>  <TSRW10>
73.85

>  <MW>
326.14

>  <AMW>
7.77

>  <WPath>
1473

>  <WPol>
32

>  <Zagreb1>
124

>  <Zagreb2>
143

>  <mZagreb2>
5.25

>  <yes>


>  <nAR-cont>
0.336376

>  <nHA-cont>
0.94700071

>  <MWHBN>
0.387610923

>  <MWHBN-cont>
0.524876049

>  <TPSA-cont>
0.390312565

>  <pka_cont>
0.97

>  <yes.1>


>  <BBB_SCORE>
3.336315913

>  <MMFF94 Energy>
81.031

$$$$
Compound 256
Actelion Java MolfileCreator 2.0

  0  0  0  0  0  0              0 V3000
M  V30 BEGIN CTAB
M  V30 COUNTS 42 44 0 0 0
M  V30 BEGIN ATOM
M  V30 1 O 0.3182 -5.5812 1.3532 0
M  V30 2 N 1.2948 -5.0832 0.7766 0 CHG=1
M  V30 3 O 1.5017 -5.1401 -0.4422 0 CHG=-1
M  V30 4 C 2.2739 -4.4303 1.5807 0
M  V30 5 C 2.3028 -4.5386 2.9037 0
M  V30 6 C 3.4222 -3.7319 0.9766 0 CFG=2
M  V30 7 C 3.5786 -3.878 3.1619 0
M  V30 8 N 4.266 -3.4163 2.1584 0
M  V30 9 N 3.0141 -2.615 0.1464 0
M  V30 10 C 2.3894 -1.4425 0.5198 0
M  V30 11 C 1.5051 -0.8355 -0.3913 0
M  V30 12 C 2.553 -0.8264 1.7599 0
M  V30 13 C 0.793 0.3391 -0.088 0
M  V30 14 C 1.8613 0.3427 2.0872 0
M  V30 15 C -0.1217 0.9292 -1.0643 0
M  V30 16 C 0.9845 0.9184 1.1703 0
M  V30 17 O -0.7513 2.084 -0.6859 0
M  V30 18 C -0.528 0.588 -2.3408 0
M  V30 19 C -1.5554 2.4736 -1.716 0
M  V30 20 C -1.4475 1.5799 -2.7595 0
M  V30 21 C -2.3425 3.724 -1.5145 0
M  V30 22 N -3.7962 3.5084 -1.6531 0
M  V30 23 C -4.488 4.7977 -1.6956 0
M  V30 24 C -4.3178 2.7032 -0.544 0
M  V30 25 H 1.6512 -5.0284 3.6011 0
M  V30 26 H 3.9975 -4.4278 0.3525 0
M  V30 27 H 3.926 -3.8 4.2037 0
M  V30 28 H 2.9646 -2.8456 -0.8412 0
M  V30 29 H 1.3609 -1.3032 -1.3627 0
M  V30 30 H 3.2585 -1.2117 2.4869 0
M  V30 31 H 2.0174 0.8116 3.0552 0
M  V30 32 H 0.4576 1.8293 1.4457 0
M  V30 33 H -0.2066 -0.2746 -2.9059 0
M  V30 34 H -1.9791 1.6394 -3.6989 0
M  V30 35 H -2.1042 4.1739 -0.5416 0
M  V30 36 H -2.0053 4.4345 -2.2808 0
M  V30 37 H -4.1448 5.3916 -2.5501 0
M  V30 38 H -4.3309 5.3835 -0.7824 0
M  V30 39 H -5.5657 4.6524 -1.8311 0
M  V30 40 H -4.1358 3.1727 0.4297 0
M  V30 41 H -3.8741 1.7021 -0.5335 0
M  V30 42 H -5.3982 2.5556 -0.6554 0
M  V30 END ATOM
M  V30 BEGIN BOND
M  V30 1 2 1 2
M  V30 2 1 2 3
M  V30 3 1 2 4
M  V30 4 2 4 5
M  V30 5 1 4 6
M  V30 6 1 5 7
M  V30 7 1 6 8
M  V30 8 1 6 9
M  V30 9 1 9 10
M  V30 10 2 10 11
M  V30 11 1 10 12
M  V30 12 1 11 13
M  V30 13 2 12 14
M  V30 14 1 13 15
M  V30 15 2 13 16
M  V30 16 1 15 17
M  V30 17 2 15 18
M  V30 18 1 17 19
M  V30 19 1 18 20
M  V30 20 1 19 21
M  V30 21 1 21 22
M  V30 22 1 22 23
M  V30 23 1 22 24
M  V30 24 2 7 8
M  V30 25 1 14 16
M  V30 26 2 19 20
M  V30 27 1 5 25
M  V30 28 1 6 26
M  V30 29 1 7 27
M  V30 30 1 9 28
M  V30 31 1 11 29
M  V30 32 1 12 30
M  V30 33 1 14 31
M  V30 34 1 16 32
M  V30 35 1 18 33
M  V30 36 1 20 34
M  V30 37 1 21 35
M  V30 38 1 21 36
M  V30 39 1 23 37
M  V30 40 1 23 38
M  V30 41 1 23 39
M  V30 42 1 24 40
M  V30 43 1 24 41
M  V30 44 1 24 42
M  V30 END BOND
M  V30 BEGIN COLLECTION
M  V30 MDLV30/STERAC1 ATOMS=(1 6)
M  V30 END COLLECTION
M  V30 END CTAB
M  END
>  <Column 1>
327

>  <level_0>
371

>  <index>
371

>  <Unnamed: 0>
371

>  <NO.>
373

>  <Name>
compound 37

>  <IUPAC_name>


>  <SMILES>
CN(C)Cc1ccc(-c2cccc(NC3N=CC=C3[N+](=O)[O-])c2)o1

>  <CID>


>  <logBB>
-0.27

>  <BBB+/BBB->
BBB+

>  <Inchi>
InChI=1S/C17H18N4O3/c1-20(2)11-14-6-7-16(24-14)12-4-3-5-13(10-12)19-17-15(21(22)23)8-9-18-17/h3-10-17-19H-11H2-1-2H3

>  <threshold>


>  <reference>
R36|

>  <group>
A

>  <Class>
1

>  <ABC>
18.7

>  <ABCGG>
15.67

>  <nAcid>
0

>  <nBase>
1

>  <nAromAtom>
11

>  <nAromBond>
11

>  <nAtom>
42

>  <nHeavyAtom>
24

>  <nSpiro>
0

>  <nBridgehead>
0

>  <nHetero>
7

>  <nN>
4

>  <nO>
3

>  <nF>
0

>  <BalabanJ>
1.48

>  <BertzCT>
807.67

>  <nBonds>
44

>  <nBondsO>
26

>  <nBondsS>
30

>  <nBondsD>
3

>  <nBondsT>
0

>  <nBondsA>
11

>  <nBondsM>
14

>  <nBondsKS>
36

>  <nBondsKD>
8

>  <RNCG>
0.22

>  <RPCG>
0.14

>  <FCSP3>
0.24

>  <SZ>
28.67

>  <Sm>
27.17

>  <Sv>
27.05

>  <Sse>
42.64

>  <Sp>
28.26

>  <Si>
47.53

>  <MZ>
0.68

>  <Mm>
0.65

>  <Mv>
0.64

>  <Mse>
1.02

>  <Mp>
0.67

>  <Mi>
1.13

>  <NsCH3>
2

>  <NdCH2>
0

>  <NssCH2>
1

>  <NtCH>
0

>  <NdsCH>
2

>  <NaaCH>
6

>  <NsssCH>
1

>  <NddC>
0

>  <NtsC>
0

>  <NdssC>
1

>  <NaasC>
4

>  <NaaaC>
0

>  <NssssC>
0

>  <NsNH3>
0

>  <NsNH2>
0

>  <NssNH2>
0

>  <NdNH>
0

>  <NssNH>
1

>  <NaaNH>
0

>  <NtN>
0

>  <NsssNH>
0

>  <NdsN>
1

>  <NaaN>
0

>  <NsssN>
1

>  <NddsN>
1

>  <NaasN>
0

>  <NssssN>
0

>  <NsOH>
0

>  <NdO>
1

>  <NssO>
0

>  <NaaO>
1

>  <NsF>
0

>  <NsSiH3>
0

>  <NssSiH2>
0

>  <NsssSiH>
0

>  <NssssSi>
0

>  <NsPH2>
0

>  <NssPH>
0

>  <NsssP>
0

>  <NdsssP>
0

>  <NsssssP>
0

>  <NsSH>
0

>  <NdS>
0

>  <NssS>
0

>  <NaaS>
0

>  <NdssS>
0

>  <NddssS>
0

>  <NsCl>
0

>  <NsBr>
0

>  <NsI>
0

>  <fragCpx>
124.07

>  <fMF>
0.4

>  <nHBAcc>
6

>  <nHBDon>
1

>  <Kier1>
18.78

>  <Kier2>
8.59

>  <Lipinski>
1

>  <GhoseFilter>
1

>  <FilterItLogS>
-4.21

>  <VMcGowan>
240.94

>  <LabuteASA>
139

>  <PEOE_VSA1>
14.63

>  <PEOE_VSA2>
15.11

>  <PEOE_VSA3>
0

>  <PEOE_VSA4>
0

>  <PEOE_VSA5>
0

>  <PEOE_VSA6>
12.13

>  <PEOE_VSA7>
38.36

>  <PEOE_VSA8>
23.54

>  <PEOE_VSA9>
11.47

>  <PEOE_VSA10>
11.52

>  <PEOE_VSA11>
0

>  <PEOE_VSA12>
6.17

>  <PEOE_VSA13>
5.7

>  <SMR_VSA1>
9.34

>  <SMR_VSA2>
0

>  <SMR_VSA3>
4.9

>  <SMR_VSA4>
4.99

>  <SMR_VSA5>
12.71

>  <SMR_VSA6>
19.41

>  <SMR_VSA7>
64.05

>  <SMR_VSA8>
0

>  <SMR_VSA9>
11.32

>  <SlogP_VSA1>
5.32

>  <SlogP_VSA2>
36.3

>  <SlogP_VSA3>
6.54

>  <SlogP_VSA4>
10.11

>  <SlogP_VSA5>
5.76

>  <SlogP_VSA6>
57.58

>  <SlogP_VSA7>
0

>  <SlogP_VSA8>
11.32

>  <SlogP_VSA9>
0

>  <SlogP_VSA10>
5.69

>  <SlogP_VSA11>
0

>  <EState_VSA1>
11.09

>  <EState_VSA2>
5.7

>  <EState_VSA3>
0

>  <EState_VSA4>
29.32

>  <EState_VSA5>
12.29

>  <EState_VSA6>
0

>  <EState_VSA7>
55.39

>  <EState_VSA8>
10.31

>  <EState_VSA9>
4.42

>  <EState_VSA10>
10.11

>  <VSA_EState1>
5.85

>  <VSA_EState2>
16.66

>  <VSA_EState3>
14.04

>  <VSA_EState4>
1.68

>  <VSA_EState5>
1.64

>  <VSA_EState6>
11.42

>  <VSA_EState7>
2.18

>  <VSA_EState8>
0.73

>  <VSA_EState9>
3.96

>  <apol>
47.2

>  <bpol>
24.38

>  <nRing>
3

>  <nHRing>
2

>  <naRing>
2

>  <naHRing>
1

>  <nARing 2>
1

>  <nAHRing 2>
1

>  <nFRing>
0

>  <nFHRing>
0

>  <nFaRing>
0

>  <nFaHRing>
0

>  <nFARing 2>
0

>  <nFAHRing 2>
0

>  <nRot>
6

>  <SLogP>
2.99

>  <SMR>
92.52

>  <TopoPSA(NO)>
83.91

>  <TopoPSA>
83.91

>  <JGI1>
0.21

>  <JGI2>
0.06

>  <JGI3>
0.05

>  <JGI4>
0.03

>  <JGI5>
0.02

>  <Diameter>
13

>  <Radius>
7

>  <TMWC10>
124.35

>  <TSRW10>
73.85

>  <MW>
326.14

>  <AMW>
7.77

>  <WPath>
1473

>  <WPol>
32

>  <Zagreb1>
124

>  <Zagreb2>
143

>  <mZagreb2>
5.25

>  <yes>


>  <nAR-cont>
0.816016

>  <nHA-cont>
0.94700071

>  <MWHBN>
0.387610923

>  <MWHBN-cont>
0.524876049

>  <TPSA-cont>
0.414256095

>  <pka_cont>
0.97

>  <yes.1>


>  <BBB_SCORE>
3.863842973

>  <MMFF94 Energy>
-3.279

$$$$
Compound 257
Actelion Java MolfileCreator 2.0

  0  0  0  0  0  0              0 V3000
M  V30 BEGIN CTAB
M  V30 COUNTS 39 41 0 0 0
M  V30 BEGIN ATOM
M  V30 1 O 4.282 -4.9176 -0.3958 0
M  V30 2 N 3.5588 -4.247 0.3531 0 CHG=1
M  V30 3 O 3.8084 -3.9637 1.5345 0 CHG=-1
M  V30 4 C 2.316 -3.7715 -0.1985 0
M  V30 5 C 1.4163 -2.9201 0.4294 0
M  V30 6 C 1.7895 -4.0817 -1.4858 0
M  V30 7 N 0.347 -2.7695 -0.4247 0
M  V30 8 N 1.4316 -2.3544 1.6634 0
M  V30 9 C 0.5724 -3.4479 -1.595 0
M  V30 10 C 0.6959 -1.2553 2.1536 0
M  V30 11 C 0.2239 -0.2196 1.335 0
M  V30 12 C 0.3744 -1.2192 3.5159 0
M  V30 13 C -0.5609 0.831 1.8426 0
M  V30 14 C -0.396 -0.1826 4.0433 0
M  V30 15 C -1.0503 1.8945 0.9681 0
M  V30 16 C -0.8633 0.8341 3.21 0
M  V30 17 O -0.8376 1.7212 -0.3705 0
M  V30 18 C -1.7168 3.0862 1.1697 0
M  V30 19 C -1.3556 2.797 -1.0273 0
M  V30 20 C -1.9112 3.6632 -0.11 0
M  V30 21 N -1.2425 2.8245 -2.3773 0
M  V30 22 C -0.685 1.6816 -3.0801 0
M  V30 23 C -1.9137 3.8515 -3.1514 0
M  V30 24 H 2.2478 -4.7116 -2.2384 0
M  V30 25 H -0.4901 -2.2468 -0.2037 0
M  V30 26 H 2.1326 -2.6843 2.333 0
M  V30 27 H -0.1579 -3.4299 -2.3933 0
M  V30 28 H 0.5067 -0.1986 0.2853 0
M  V30 29 H 0.7129 -2.0129 4.1781 0
M  V30 30 H -0.6383 -0.1719 5.103 0
M  V30 31 H -1.4673 1.6264 3.6448 0
M  V30 32 H -2.024 3.4976 2.1201 0
M  V30 33 H -2.3958 4.6017 -0.3328 0
M  V30 34 H -1.3781 0.8341 -3.044 0
M  V30 35 H 0.272 1.3738 -2.6438 0
M  V30 36 H -0.4923 1.9122 -4.1335 0
M  V30 37 H -1.73 4.8487 -2.7361 0
M  V30 38 H -2.994 3.6718 -3.1706 0
M  V30 39 H -1.5578 3.8713 -4.1871 0
M  V30 END ATOM
M  V30 BEGIN BOND
M  V30 1 2 1 2
M  V30 2 1 2 3
M  V30 3 1 2 4
M  V30 4 2 4 5
M  V30 5 1 4 6
M  V30 6 1 5 7
M  V30 7 1 5 8
M  V30 8 2 6 9
M  V30 9 1 8 10
M  V30 10 2 10 11
M  V30 11 1 10 12
M  V30 12 1 11 13
M  V30 13 2 12 14
M  V30 14 1 13 15
M  V30 15 2 13 16
M  V30 16 1 15 17
M  V30 17 2 15 18
M  V30 18 1 17 19
M  V30 19 1 18 20
M  V30 20 1 19 21
M  V30 21 1 21 22
M  V30 22 1 21 23
M  V30 23 1 7 9
M  V30 24 1 14 16
M  V30 25 2 19 20
M  V30 26 1 6 24
M  V30 27 1 7 25
M  V30 28 1 8 26
M  V30 29 1 9 27
M  V30 30 1 11 28
M  V30 31 1 12 29
M  V30 32 1 14 30
M  V30 33 1 16 31
M  V30 34 1 18 32
M  V30 35 1 20 33
M  V30 36 1 22 34
M  V30 37 1 22 35
M  V30 38 1 22 36
M  V30 39 1 23 37
M  V30 40 1 23 38
M  V30 41 1 23 39
M  V30 END BOND
M  V30 END CTAB
M  END
>  <Column 1>
328

>  <level_0>
372

>  <index>
372

>  <Unnamed: 0>
372

>  <NO.>
374

>  <Name>
bbcpd18 (ranitidine analog)

>  <IUPAC_name>


>  <SMILES>
CN(C)c1ccc(-c2cccc(Nc3[nH]ccc3[N+](=O)[O-])c2)o1

>  <CID>


>  <logBB>
-0.27

>  <BBB+/BBB->
BBB+

>  <Inchi>
InChI=1S/C16H16N4O3/c1-19(2)15-7-6-14(23-15)11-4-3-5-12(10-11)18-16-13(20(21)22)8-9-17-16/h3-10-17-18H-1-2H3

>  <threshold>


>  <reference>
R2|R2|R12|R25|R27|R46|R47|

>  <group>
A

>  <Class>
1

>  <ABC>
17.95

>  <ABCGG>
15.3

>  <nAcid>
0

>  <nBase>
0

>  <nAromAtom>
16

>  <nAromBond>
16

>  <nAtom>
39

>  <nHeavyAtom>
23

>  <nSpiro>
0

>  <nBridgehead>
0

>  <nHetero>
7

>  <nN>
4

>  <nO>
3

>  <nF>
0

>  <BalabanJ>
1.5

>  <BertzCT>
835.23

>  <nBonds>
41

>  <nBondsO>
25

>  <nBondsS>
24

>  <nBondsD>
1

>  <nBondsT>
0

>  <nBondsA>
16

>  <nBondsM>
17

>  <nBondsKS>
33

>  <nBondsKD>
8

>  <RNCG>
0.2

>  <RPCG>
0.14

>  <FCSP3>
0.13

>  <SZ>
27.33

>  <Sm>
26

>  <Sv>
25.51

>  <Sse>
39.75

>  <Sp>
26.46

>  <Si>
44.11

>  <MZ>
0.7

>  <Mm>
0.67

>  <Mv>
0.65

>  <Mse>
1.02

>  <Mp>
0.68

>  <Mi>
1.13

>  <NsCH3>
2

>  <NdCH2>
0

>  <NssCH2>
0

>  <NtCH>
0

>  <NdsCH>
0

>  <NaaCH>
8

>  <NsssCH>
0

>  <NddC>
0

>  <NtsC>
0

>  <NdssC>
0

>  <NaasC>
6

>  <NaaaC>
0

>  <NssssC>
0

>  <NsNH3>
0

>  <NsNH2>
0

>  <NssNH2>
0

>  <NdNH>
0

>  <NssNH>
1

>  <NaaNH>
1

>  <NtN>
0

>  <NsssNH>
0

>  <NdsN>
0

>  <NaaN>
0

>  <NsssN>
1

>  <NddsN>
1

>  <NaasN>
0

>  <NssssN>
0

>  <NsOH>
0

>  <NdO>
1

>  <NssO>
0

>  <NaaO>
1

>  <NsF>
0

>  <NsSiH3>
0

>  <NssSiH2>
0

>  <NsssSiH>
0

>  <NssssSi>
0

>  <NsPH2>
0

>  <NssPH>
0

>  <NsssP>
0

>  <NdsssP>
0

>  <NsssssP>
0

>  <NsSH>
0

>  <NdS>
0

>  <NssS>
0

>  <NaaS>
0

>  <NdssS>
0

>  <NddssS>
0

>  <NsCl>
0

>  <NsBr>
0

>  <NsI>
0

>  <fragCpx>
119.07

>  <fMF>
0.44

>  <nHBAcc>
5

>  <nHBDon>
2

>  <Kier1>
17.81

>  <Kier2>
7.92

>  <Lipinski>
1

>  <GhoseFilter>
1

>  <FilterItLogS>
-4.8

>  <VMcGowan>
226.85

>  <LabuteASA>
132.24

>  <PEOE_VSA1>
19.62

>  <PEOE_VSA2>
10.11

>  <PEOE_VSA3>
0

>  <PEOE_VSA4>
0

>  <PEOE_VSA5>
0

>  <PEOE_VSA6>
12.13

>  <PEOE_VSA7>
18.2

>  <PEOE_VSA8>
43.68

>  <PEOE_VSA9>
4.92

>  <PEOE_VSA10>
5.76

>  <PEOE_VSA11>
11.7

>  <PEOE_VSA12>
0

>  <PEOE_VSA13>
0

>  <SMR_VSA1>
9.34

>  <SMR_VSA2>
0

>  <SMR_VSA3>
4.98

>  <SMR_VSA4>
0

>  <SMR_VSA5>
0

>  <SMR_VSA6>
24.31

>  <SMR_VSA7>
58.78

>  <SMR_VSA8>
0

>  <SMR_VSA9>
11.32

>  <SlogP_VSA1>
10.22

>  <SlogP_VSA2>
24

>  <SlogP_VSA3>
0

>  <SlogP_VSA4>
10.11

>  <SlogP_VSA5>
0

>  <SlogP_VSA6>
53.08

>  <SlogP_VSA7>
0

>  <SlogP_VSA8>
11.32

>  <SlogP_VSA9>
0

>  <SlogP_VSA10>
23.08

>  <SlogP_VSA11>
0

>  <EState_VSA1>
4.92

>  <EState_VSA2>
5.69

>  <EState_VSA3>
5.82

>  <EState_VSA4>
22.9

>  <EState_VSA5>
12.26

>  <EState_VSA6>
0

>  <EState_VSA7>
55.39

>  <EState_VSA8>
10.3

>  <EState_VSA9>
4.42

>  <EState_VSA10>
10.11

>  <VSA_EState1>
5.77

>  <VSA_EState2>
15.24

>  <VSA_EState3>
13.98

>  <VSA_EState4>
1.62

>  <VSA_EState5>
1.84

>  <VSA_EState6>
12.71

>  <VSA_EState7>
1.53

>  <VSA_EState8>
0

>  <VSA_EState9>
3.82

>  <apol>
44.19

>  <bpol>
21.8

>  <nRing>
3

>  <nHRing>
2

>  <naRing>
3

>  <naHRing>
2

>  <nARing 2>
0

>  <nAHRing 2>
0

>  <nFRing>
0

>  <nFHRing>
0

>  <nFaRing>
0

>  <nFaHRing>
0

>  <nFARing 2>
0

>  <nFAHRing 2>
0

>  <nRot>
5

>  <SLogP>
3.99

>  <SMR>
89.2

>  <TopoPSA(NO)>
87.34

>  <TopoPSA>
87.34

>  <JGI1>
0.2

>  <JGI2>
0.08

>  <JGI3>
0.04

>  <JGI4>
0.04

>  <JGI5>
0.02

>  <Diameter>
12

>  <Radius>
6

>  <TMWC10>
122.25

>  <TSRW10>
72.78

>  <MW>
312.12

>  <AMW>
8

>  <WPath>
1279

>  <WPol>
32

>  <Zagreb1>
120

>  <Zagreb2>
140

>  <mZagreb2>
5.03

>  <yes>


>  <nAR-cont>
0.336376

>  <nHA-cont>
0.967789328

>  <MWHBN>
0.396220773

>  <MWHBN-cont>
0.490944777

>  <TPSA-cont>
0.390312565

>  <pka_cont>
0.97

>  <yes.1>


>  <BBB_SCORE>
3.306207624

>  <MMFF94 Energy>
51.401

$$$$
Compound 258
Actelion Java MolfileCreator 2.0

  0  0  0  0  0  0              0 V3000
M  V30 BEGIN CTAB
M  V30 COUNTS 55 58 0 0 0
M  V30 BEGIN ATOM
M  V30 1 I 0.5707 5.3914 -8.6695 0
M  V30 2 C 0.0392 4.0642 -7.1441 0
M  V30 3 S -0.4593 2.4745 -7.4374 0
M  V30 4 C 0.0578 4.3869 -5.8117 0
M  V30 5 C -0.6637 2.182 -5.7599 0
M  V30 6 C -0.3553 3.285 -4.9804 0
M  V30 7 C -0.4318 3.3384 -3.5128 0
M  V30 8 O -0.1172 4.3672 -2.9168 0
M  V30 9 C -0.8946 2.0949 -2.7655 0
M  V30 10 C -0.9754 2.3141 -1.2535 0
M  V30 11 C -1.3941 1.0239 -0.5375 0
M  V30 12 N -1.6627 1.2135 0.8954 0
M  V30 13 C -0.5002 1.625 1.6931 0
M  V30 14 C -2.2844 0.027 1.5013 0
M  V30 15 C 0.566 0.5366 1.8295 0
M  V30 16 C -1.3355 -1.1667 1.6282 0
M  V30 17 C -0.0176 -0.7917 2.3227 0
M  V30 18 N 0.975 -1.8979 2.239 0
M  V30 19 C -0.2563 -0.7175 3.8483 0
M  V30 20 C 1.3747 -2.5096 1.0742 0
M  V30 21 C 1.1389 -2.5868 3.5016 0
M  V30 22 O -0.9464 0.0943 4.4466 0
M  V30 23 N 0.441 -1.7578 4.4341 0
M  V30 24 C 2.3393 -1.9193 0.2504 0
M  V30 25 C 0.8489 -3.7461 0.675 0
M  V30 26 C 0.4524 -2.0436 5.8468 0
M  V30 27 C 2.7575 -2.5301 -0.9355 0
M  V30 28 C 1.2598 -4.3631 -0.5104 0
M  V30 29 C 2.2148 -3.7529 -1.3173 0
M  V30 30 H 0.3481 5.3564 -5.4206 0
M  V30 31 H -1.0021 1.2049 -5.4432 0
M  V30 32 H -1.8837 1.8121 -3.1439 0
M  V30 33 H -0.1884 1.2847 -2.9809 0
M  V30 34 H 0.0021 2.6523 -0.8917 0
M  V30 35 H -1.6944 3.1144 -1.0374 0
M  V30 36 H -2.3162 0.6685 -1.0162 0
M  V30 37 H -0.636 0.2518 -0.7126 0
M  V30 38 H -0.8496 1.9294 2.6873 0
M  V30 39 H -0.0455 2.5328 1.2822 0
M  V30 40 H -2.6765 0.2982 2.4893 0
M  V30 41 H -3.1677 -0.2701 0.9219 0
M  V30 42 H 1.0449 0.4127 0.8538 0
M  V30 43 H 1.3517 0.8874 2.5109 0
M  V30 44 H -1.8455 -1.9699 2.1761 0
M  V30 45 H -1.1435 -1.563 0.6243 0
M  V30 46 H 0.6771 -3.5796 3.5117 0
M  V30 47 H 2.1935 -2.6541 3.7881 0
M  V30 48 H 2.7987 -0.9786 0.5431 0
M  V30 49 H 0.0889 -4.2355 1.2787 0
M  V30 50 H -0.1301 -1.3021 6.3996 0
M  V30 51 H 0.0215 -3.0353 6.0098 0
M  V30 52 H 1.4862 -2.03 6.2025 0
M  V30 53 H 3.5129 -2.0516 -1.5531 0
M  V30 54 H 0.8307 -5.3181 -0.8015 0
M  V30 55 H 2.5389 -4.2309 -2.2377 0
M  V30 END ATOM
M  V30 BEGIN BOND
M  V30 1 1 1 2
M  V30 2 1 2 3
M  V30 3 2 2 4
M  V30 4 1 3 5
M  V30 5 1 4 6
M  V30 6 1 6 7
M  V30 7 2 7 8
M  V30 8 1 7 9
M  V30 9 1 9 10
M  V30 10 1 10 11
M  V30 11 1 11 12
M  V30 12 1 12 13
M  V30 13 1 12 14
M  V30 14 1 13 15
M  V30 15 1 14 16
M  V30 16 1 15 17
M  V30 17 1 17 18
M  V30 18 1 17 19
M  V30 19 1 18 20
M  V30 20 1 18 21
M  V30 21 2 19 22
M  V30 22 1 19 23
M  V30 23 2 20 24
M  V30 24 1 20 25
M  V30 25 1 23 26
M  V30 26 1 24 27
M  V30 27 2 25 28
M  V30 28 2 27 29
M  V30 29 2 5 6
M  V30 30 1 16 17
M  V30 31 1 21 23
M  V30 32 1 28 29
M  V30 33 1 4 30
M  V30 34 1 5 31
M  V30 35 1 9 32
M  V30 36 1 9 33
M  V30 37 1 10 34
M  V30 38 1 10 35
M  V30 39 1 11 36
M  V30 40 1 11 37
M  V30 41 1 13 38
M  V30 42 1 13 39
M  V30 43 1 14 40
M  V30 44 1 14 41
M  V30 45 1 15 42
M  V30 46 1 15 43
M  V30 47 1 16 44
M  V30 48 1 16 45
M  V30 49 1 21 46
M  V30 50 1 21 47
M  V30 51 1 24 48
M  V30 52 1 25 49
M  V30 53 1 26 50
M  V30 54 1 26 51
M  V30 55 1 26 52
M  V30 56 1 27 53
M  V30 57 1 28 54
M  V30 58 1 29 55
M  V30 END BOND
M  V30 END CTAB
M  END
>  <Column 1>
330

>  <level_0>
375

>  <index>
375

>  <Unnamed: 0>
375

>  <NO.>
377

>  <Name>
i-1

>  <IUPAC_name>


>  <SMILES>
CN1CN(c2ccccc2)C2(CCN(CCCC(=O)c3csc(I)c3)CC2)C1=O

>  <CID>


>  <logBB>
-0.25

>  <BBB+/BBB->
BBB+

>  <Inchi>
InChI=1S/C22H26IN3O2S/c1-24-16-26(18-6-3-2-4-7-18)22(21(24)28)9-12-25(13-10-22)11-5-8-19(27)17-14-20(23)29-15-17/h2-4-6-7-14-15H-5-8-13-16H2-1H3

>  <threshold>


>  <reference>
R3|R38|R25|R41|R40|R2|R2|R27|R43|R46|R47|

>  <group>
A

>  <Class>
1

>  <ABC>
22.82

>  <ABCGG>
17.88

>  <nAcid>
0

>  <nBase>
1

>  <nAromAtom>
11

>  <nAromBond>
11

>  <nAtom>
55

>  <nHeavyAtom>
29

>  <nSpiro>
1

>  <nBridgehead>
0

>  <nHetero>
7

>  <nN>
3

>  <nO>
2

>  <nF>
0

>  <BalabanJ>
1.26

>  <BertzCT>
877.19

>  <nBonds>
58

>  <nBondsO>
32

>  <nBondsS>
45

>  <nBondsD>
2

>  <nBondsT>
0

>  <nBondsA>
11

>  <nBondsM>
13

>  <nBondsKS>
51

>  <nBondsKD>
7

>  <RNCG>
0.17

>  <RPCG>
0.12

>  <FCSP3>
0.45

>  <SZ>
44

>  <Sm>
43.58

>  <Sv>
35.51

>  <Sse>
54.78

>  <Sp>
40.26

>  <Si>
61.54

>  <MZ>
0.8

>  <Mm>
0.79

>  <Mv>
0.65

>  <Mse>
1

>  <Mp>
0.73

>  <Mi>
1.12

>  <NsCH3>
1

>  <NdCH2>
0

>  <NssCH2>
8

>  <NtCH>
0

>  <NdsCH>
0

>  <NaaCH>
7

>  <NsssCH>
0

>  <NddC>
0

>  <NtsC>
0

>  <NdssC>
2

>  <NaasC>
3

>  <NaaaC>
0

>  <NssssC>
1

>  <NsNH3>
0

>  <NsNH2>
0

>  <NssNH2>
0

>  <NdNH>
0

>  <NssNH>
0

>  <NaaNH>
0

>  <NtN>
0

>  <NsssNH>
0

>  <NdsN>
0

>  <NaaN>
0

>  <NsssN>
3

>  <NddsN>
0

>  <NaasN>
0

>  <NssssN>
0

>  <NsOH>
0

>  <NdO>
2

>  <NssO>
0

>  <NaaO>
0

>  <NsF>
0

>  <NsSiH3>
0

>  <NssSiH2>
0

>  <NsssSiH>
0

>  <NssssSi>
0

>  <NsPH2>
0

>  <NssPH>
0

>  <NsssP>
0

>  <NdsssP>
0

>  <NsssssP>
0

>  <NsSH>
0

>  <NdS>
0

>  <NssS>
0

>  <NaaS>
1

>  <NdssS>
0

>  <NddssS>
0

>  <NsCl>
0

>  <NsBr>
0

>  <NsI>
1

>  <fragCpx>
212.07

>  <fMF>
0.45

>  <nHBAcc>
5

>  <nHBDon>
0

>  <Kier1>
22.2

>  <Kier2>
9.65

>  <Lipinski>
0

>  <GhoseFilter>
0

>  <FilterItLogS>
-5.24

>  <VMcGowan>
331.16

>  <LabuteASA>
189.36

>  <PEOE_VSA1>
14.7

>  <PEOE_VSA2>
9.59

>  <PEOE_VSA3>
0

>  <PEOE_VSA4>
0

>  <PEOE_VSA5>
11.34

>  <PEOE_VSA6>
18.2

>  <PEOE_VSA7>
66.6

>  <PEOE_VSA8>
43.19

>  <PEOE_VSA9>
9.55

>  <PEOE_VSA10>
5.54

>  <PEOE_VSA11>
5.78

>  <PEOE_VSA12>
5.91

>  <PEOE_VSA13>
0

>  <SMR_VSA1>
9.59

>  <SMR_VSA2>
0

>  <SMR_VSA3>
9.8

>  <SMR_VSA4>
0

>  <SMR_VSA5>
31.22

>  <SMR_VSA6>
38.25

>  <SMR_VSA7>
50.23

>  <SMR_VSA8>
0

>  <SMR_VSA9>
0

>  <SlogP_VSA1>
4.9

>  <SlogP_VSA2>
60.38

>  <SlogP_VSA3>
4.79

>  <SlogP_VSA4>
2.88

>  <SlogP_VSA5>
36.04

>  <SlogP_VSA6>
41.78

>  <SlogP_VSA7>
0

>  <SlogP_VSA8>
0

>  <SlogP_VSA9>
0

>  <SlogP_VSA10>
5.69

>  <SlogP_VSA11>
0

>  <EState_VSA1>
5.54

>  <EState_VSA2>
11.69

>  <EState_VSA3>
13.09

>  <EState_VSA4>
53.03

>  <EState_VSA5>
0

>  <EState_VSA6>
11.34

>  <EState_VSA7>
41.59

>  <EState_VSA8>
44.52

>  <EState_VSA9>
0

>  <EState_VSA10>
9.59

>  <VSA_EState1>
1.15

>  <VSA_EState2>
31.91

>  <VSA_EState3>
1.95

>  <VSA_EState4>
1.54

>  <VSA_EState5>
0.48

>  <VSA_EState6>
12.24

>  <VSA_EState7>
3.13

>  <VSA_EState8>
3.36

>  <VSA_EState9>
1.9

>  <apol>
67.23

>  <bpol>
39.09

>  <nRing>
4

>  <nHRing>
3

>  <naRing>
2

>  <naHRing>
1

>  <nARing 2>
2

>  <nAHRing 2>
2

>  <nFRing>
0

>  <nFHRing>
0

>  <nFaRing>
0

>  <nFaHRing>
0

>  <nFARing 2>
0

>  <nFAHRing 2>
0

>  <nRot>
6

>  <SLogP>
4.09

>  <SMR>
125.56

>  <TopoPSA(NO)>
43.86

>  <TopoPSA>
72.1

>  <JGI1>
0.2

>  <JGI2>
0.1

>  <JGI3>
0.06

>  <JGI4>
0.04

>  <JGI5>
0.02

>  <Diameter>
16

>  <Radius>
8

>  <TMWC10>
138.81

>  <TSRW10>
80.98

>  <MW>
523.08

>  <AMW>
9.51

>  <WPath>
2521

>  <WPol>
47

>  <Zagreb1>
156

>  <Zagreb2>
187

>  <mZagreb2>
6.33

>  <yes>


>  <nAR-cont>
1

>  <nHA-cont>
0.785905698

>  <MWHBN>
0.218618015

>  <MWHBN-cont>
0.995796453

>  <TPSA-cont>
0.496697229

>  <pka_cont>
0.97

>  <yes.1>


>  <BBB_SCORE>
4.757994834

>  <MMFF94 Energy>
27.419

$$$$
Compound 259
Actelion Java MolfileCreator 2.0

  0  0  0  0  0  0              0 V3000
M  V30 BEGIN CTAB
M  V30 COUNTS 55 58 0 0 0
M  V30 BEGIN ATOM
M  V30 1 I 0.4076 4.6544 -9.1609 0
M  V30 2 C -0.0143 3.8214 -7.2893 0
M  V30 3 S 0.1884 4.6675 -5.8386 0
M  V30 4 C -0.4795 2.5444 -7.1122 0
M  V30 5 C -0.3513 3.3262 -4.9073 0
M  V30 6 C -0.6752 2.2559 -5.7261 0
M  V30 7 C -0.4075 3.4437 -3.4509 0
M  V30 8 O -0.0723 4.4581 -2.8391 0
M  V30 9 C -0.9029 2.2114 -2.6996 0
M  V30 10 C -0.9934 2.4371 -1.1888 0
M  V30 11 C -1.4373 1.1556 -0.4721 0
M  V30 12 N -1.7229 1.3539 0.9563 0
M  V30 13 C -0.5694 1.7663 1.7665 0
M  V30 14 C -2.3566 0.1732 1.561 0
M  V30 15 C 0.4912 0.675 1.9221 0
M  V30 16 C -1.4137 -1.023 1.7078 0
M  V30 17 C -0.1032 -0.6482 2.4163 0
M  V30 18 N 0.8867 -1.7582 2.3518 0
M  V30 19 C -0.3605 -0.5634 3.9383 0
M  V30 20 C 1.2976 -2.3803 1.1965 0
M  V30 21 C 1.0385 -2.4353 3.6221 0
M  V30 22 O -1.0581 0.2524 4.5225 0
M  V30 23 N 0.3299 -1.5992 4.5401 0
M  V30 24 C 2.271 -1.7983 0.3771 0
M  V30 25 C 0.7748 -3.62 0.8033 0
M  V30 26 C 0.325 -1.874 5.955 0
M  V30 27 C 2.7007 -2.4205 -0.7988 0
M  V30 28 C 1.1973 -4.2483 -0.372 0
M  V30 29 C 2.1611 -3.6464 -1.1747 0
M  V30 30 H -0.6736 1.8456 -7.917 0
M  V30 31 H -1.038 1.3016 -5.3632 0
M  V30 32 H -1.8947 1.9461 -3.0838 0
M  V30 33 H -0.2114 1.3857 -2.9048 0
M  V30 34 H -0.014 2.7612 -0.819 0
M  V30 35 H -1.7023 3.2488 -0.9819 0
M  V30 36 H -2.357 0.8084 -0.9611 0
M  V30 37 H -0.6856 0.3743 -0.6337 0
M  V30 38 H -0.9303 2.0772 2.7545 0
M  V30 39 H -0.1066 2.6705 1.3566 0
M  V30 40 H -2.7609 0.4516 2.542 0
M  V30 41 H -3.2331 -0.1246 0.9717 0
M  V30 42 H 0.9811 0.5436 0.9529 0
M  V30 43 H 1.27 1.0272 2.6107 0
M  V30 44 H -1.9333 -1.8207 2.2546 0
M  V30 45 H -1.2106 -1.4268 0.7092 0
M  V30 46 H 0.578 -3.4287 3.6364 0
M  V30 47 H 2.0901 -2.4985 3.9201 0
M  V30 48 H 2.7283 -0.8554 0.6658 0
M  V30 49 H 0.0083 -4.1032 1.4038 0
M  V30 50 H -0.2636 -1.1281 6.4953 0
M  V30 51 H -0.1079 -2.8644 6.1208 0
M  V30 52 H 1.3547 -1.8578 6.3224 0
M  V30 53 H 3.4629 -1.9482 -1.4127 0
M  V30 54 H 0.7705 -5.2057 -0.6584 0
M  V30 55 H 2.4946 -4.1332 -2.087 0
M  V30 END ATOM
M  V30 BEGIN BOND
M  V30 1 1 1 2
M  V30 2 1 2 3
M  V30 3 2 2 4
M  V30 4 1 3 5
M  V30 5 1 4 6
M  V30 6 1 5 7
M  V30 7 2 7 8
M  V30 8 1 7 9
M  V30 9 1 9 10
M  V30 10 1 10 11
M  V30 11 1 11 12
M  V30 12 1 12 13
M  V30 13 1 12 14
M  V30 14 1 13 15
M  V30 15 1 14 16
M  V30 16 1 15 17
M  V30 17 1 17 18
M  V30 18 1 17 19
M  V30 19 1 18 20
M  V30 20 1 18 21
M  V30 21 2 19 22
M  V30 22 1 19 23
M  V30 23 2 20 24
M  V30 24 1 20 25
M  V30 25 1 23 26
M  V30 26 1 24 27
M  V30 27 2 25 28
M  V30 28 2 27 29
M  V30 29 2 5 6
M  V30 30 1 16 17
M  V30 31 1 21 23
M  V30 32 1 28 29
M  V30 33 1 4 30
M  V30 34 1 6 31
M  V30 35 1 9 32
M  V30 36 1 9 33
M  V30 37 1 10 34
M  V30 38 1 10 35
M  V30 39 1 11 36
M  V30 40 1 11 37
M  V30 41 1 13 38
M  V30 42 1 13 39
M  V30 43 1 14 40
M  V30 44 1 14 41
M  V30 45 1 15 42
M  V30 46 1 15 43
M  V30 47 1 16 44
M  V30 48 1 16 45
M  V30 49 1 21 46
M  V30 50 1 21 47
M  V30 51 1 24 48
M  V30 52 1 25 49
M  V30 53 1 26 50
M  V30 54 1 26 51
M  V30 55 1 26 52
M  V30 56 1 27 53
M  V30 57 1 28 54
M  V30 58 1 29 55
M  V30 END BOND
M  V30 END CTAB
M  END
>  <Column 1>
332

>  <level_0>
377

>  <index>
377

>  <Unnamed: 0>
377

>  <NO.>
379

>  <Name>
8-[4-(5-(123i)iodanylthiophen-2-yl)-4-oxobutyl]-3-methyl-1-phenyl-1-3-8-triazaspiro[4.5]decan-4-one

>  <IUPAC_name>
8-[4-(5-(123i)iodanylthiophen-2-yl)-4-oxobutyl]-3-methyl-1-phenyl-1-3-8-triazaspiro[4.5]decan-4-one

>  <SMILES>
CN1CN(c2ccccc2)C2(CCN(CCCC(=O)c3ccc(I)s3)CC2)C1=O

>  <CID>
10098275

>  <logBB>
-0.25

>  <BBB+/BBB->
BBB+

>  <Inchi>
InChI=1S/C22H26IN3O2S/c1-24-16-26(17-6-3-2-4-7-17)22(21(24)28)11-14-25(15-12-22)13-5-8-18(27)19-9-10-20(23)29-19/h2-4-6-7-9-10H-5-8-11-16H2-1H3

>  <threshold>


>  <reference>
R8|

>  <group>
A

>  <Class>
1

>  <ABC>
22.82

>  <ABCGG>
17.88

>  <nAcid>
0

>  <nBase>
1

>  <nAromAtom>
11

>  <nAromBond>
11

>  <nAtom>
55

>  <nHeavyAtom>
29

>  <nSpiro>
1

>  <nBridgehead>
0

>  <nHetero>
7

>  <nN>
3

>  <nO>
2

>  <nF>
0

>  <BalabanJ>
1.26

>  <BertzCT>
877.19

>  <nBonds>
58

>  <nBondsO>
32

>  <nBondsS>
45

>  <nBondsD>
2

>  <nBondsT>
0

>  <nBondsA>
11

>  <nBondsM>
13

>  <nBondsKS>
51

>  <nBondsKD>
7

>  <RNCG>
0.16

>  <RPCG>
0.12

>  <FCSP3>
0.45

>  <SZ>
44

>  <Sm>
43.58

>  <Sv>
35.51

>  <Sse>
54.78

>  <Sp>
40.26

>  <Si>
61.54

>  <MZ>
0.8

>  <Mm>
0.79

>  <Mv>
0.65

>  <Mse>
1

>  <Mp>
0.73

>  <Mi>
1.12

>  <NsCH3>
1

>  <NdCH2>
0

>  <NssCH2>
8

>  <NtCH>
0

>  <NdsCH>
0

>  <NaaCH>
7

>  <NsssCH>
0

>  <NddC>
0

>  <NtsC>
0

>  <NdssC>
2

>  <NaasC>
3

>  <NaaaC>
0

>  <NssssC>
1

>  <NsNH3>
0

>  <NsNH2>
0

>  <NssNH2>
0

>  <NdNH>
0

>  <NssNH>
0

>  <NaaNH>
0

>  <NtN>
0

>  <NsssNH>
0

>  <NdsN>
0

>  <NaaN>
0

>  <NsssN>
3

>  <NddsN>
0

>  <NaasN>
0

>  <NssssN>
0

>  <NsOH>
0

>  <NdO>
2

>  <NssO>
0

>  <NaaO>
0

>  <NsF>
0

>  <NsSiH3>
0

>  <NssSiH2>
0

>  <NsssSiH>
0

>  <NssssSi>
0

>  <NsPH2>
0

>  <NssPH>
0

>  <NsssP>
0

>  <NdsssP>
0

>  <NsssssP>
0

>  <NsSH>
0

>  <NdS>
0

>  <NssS>
0

>  <NaaS>
1

>  <NdssS>
0

>  <NddssS>
0

>  <NsCl>
0

>  <NsBr>
0

>  <NsI>
1

>  <fragCpx>
212.07

>  <fMF>
0.45

>  <nHBAcc>
5

>  <nHBDon>
0

>  <Kier1>
22.2

>  <Kier2>
9.65

>  <Lipinski>
0

>  <GhoseFilter>
0

>  <FilterItLogS>
-5.24

>  <VMcGowan>
331.16

>  <LabuteASA>
189.36

>  <PEOE_VSA1>
14.7

>  <PEOE_VSA2>
9.59

>  <PEOE_VSA3>
0

>  <PEOE_VSA4>
0

>  <PEOE_VSA5>
11.34

>  <PEOE_VSA6>
18.2

>  <PEOE_VSA7>
72.66

>  <PEOE_VSA8>
32.25

>  <PEOE_VSA9>
14.43

>  <PEOE_VSA10>
5.54

>  <PEOE_VSA11>
5.78

>  <PEOE_VSA12>
5.91

>  <PEOE_VSA13>
0

>  <SMR_VSA1>
9.59

>  <SMR_VSA2>
0

>  <SMR_VSA3>
9.8

>  <SMR_VSA4>
0

>  <SMR_VSA5>
31.22

>  <SMR_VSA6>
38.25

>  <SMR_VSA7>
50.23

>  <SMR_VSA8>
0

>  <SMR_VSA9>
0

>  <SlogP_VSA1>
4.9

>  <SlogP_VSA2>
60.38

>  <SlogP_VSA3>
4.79

>  <SlogP_VSA4>
2.88

>  <SlogP_VSA5>
35.35

>  <SlogP_VSA6>
42.46

>  <SlogP_VSA7>
0

>  <SlogP_VSA8>
0

>  <SlogP_VSA9>
0

>  <SlogP_VSA10>
5.69

>  <SlogP_VSA11>
0

>  <EState_VSA1>
5.54

>  <EState_VSA2>
11.69

>  <EState_VSA3>
13.09

>  <EState_VSA4>
52.35

>  <EState_VSA5>
0

>  <EState_VSA6>
11.34

>  <EState_VSA7>
42.28

>  <EState_VSA8>
44.52

>  <EState_VSA9>
0

>  <EState_VSA10>
9.59

>  <VSA_EState1>
1.15

>  <VSA_EState2>
32.78

>  <VSA_EState3>
0

>  <VSA_EState4>
0.7

>  <VSA_EState5>
0.48

>  <VSA_EState6>
14.2

>  <VSA_EState7>
3.14

>  <VSA_EState8>
3.36

>  <VSA_EState9>
1.9

>  <apol>
67.23

>  <bpol>
39.09

>  <nRing>
4

>  <nHRing>
3

>  <naRing>
2

>  <naHRing>
1

>  <nARing 2>
2

>  <nAHRing 2>
2

>  <nFRing>
0

>  <nFHRing>
0

>  <nFaRing>
0

>  <nFaHRing>
0

>  <nFARing 2>
0

>  <nFAHRing 2>
0

>  <nRot>
6

>  <SLogP>
4.09

>  <SMR>
125.56

>  <TopoPSA(NO)>
43.86

>  <TopoPSA>
72.1

>  <JGI1>
0.2

>  <JGI2>
0.1

>  <JGI3>
0.06

>  <JGI4>
0.04

>  <JGI5>
0.02

>  <Diameter>
16

>  <Radius>
8

>  <TMWC10>
138.81

>  <TSRW10>
80.98

>  <MW>
523.08

>  <AMW>
9.51

>  <WPath>
2521

>  <WPol>
47

>  <Zagreb1>
156

>  <Zagreb2>
187

>  <mZagreb2>
6.33

>  <yes>


>  <nAR-cont>
1

>  <nHA-cont>
0.785905698

>  <MWHBN>
0.218618015

>  <MWHBN-cont>
0.995796453

>  <TPSA-cont>
0.496697229

>  <pka_cont>
0.97

>  <yes.1>


>  <BBB_SCORE>
4.757994834

>  <MMFF94 Energy>
30.984

$$$$
Compound 260
Actelion Java MolfileCreator 2.0

  0  0  0  0  0  0              0 V3000
M  V30 BEGIN CTAB
M  V30 COUNTS 39 41 0 0 0
M  V30 BEGIN ATOM
M  V30 1 S -3.0764 3.0764 3.3196 0
M  V30 2 C -2.1956 1.9787 2.3246 0
M  V30 3 C -2.2188 2.6214 4.7201 0
M  V30 4 C -2.6338 1.8164 0.9345 0
M  V30 5 C -1.2262 1.3157 3.0672 0
M  V30 6 C -1.2712 1.6599 4.4558 0
M  V30 7 O -3.7739 2.108 0.5686 0
M  V30 8 N -1.7306 1.2703 0.0208 0
M  V30 9 N -0.3193 0.3566 2.5297 0
M  V30 10 C -0.3012 1.2891 0.2314 0
M  V30 11 C -2.2013 0.8518 -1.288 0
M  V30 12 C 0.0669 0.2467 1.2092 0
M  V30 13 C 0.3661 -0.6117 3.2165 0
M  V30 14 C 0.8716 -0.8856 1.1386 0
M  V30 15 N 1.0603 -1.3865 2.4177 0
M  V30 16 C 1.5132 -1.5032 -0.0319 0
M  V30 17 O 2.3258 -2.415 0.0519 0
M  V30 18 O 1.0961 -0.9539 -1.2093 0
M  V30 19 C 1.6112 -1.4343 -2.478 0
M  V30 20 C 3.1225 -1.2049 -2.5902 0
M  V30 21 C 0.9076 -0.5683 -3.535 0
M  V30 22 C 1.2308 -2.8994 -2.717 0
M  V30 23 H -2.4538 3.0771 5.673 0
M  V30 24 H -0.6288 1.258 5.2306 0
M  V30 25 H 0.2143 1.1846 -0.7257 0
M  V30 26 H -0.018 2.2782 0.6145 0
M  V30 27 H -1.8745 1.5859 -2.0304 0
M  V30 28 H -3.2908 0.7701 -1.3236 0
M  V30 29 H -1.7715 -0.1261 -1.5226 0
M  V30 30 H 0.2943 -0.7357 4.2885 0
M  V30 31 H 3.6871 -1.8509 -1.9114 0
M  V30 32 H 3.4815 -1.4059 -3.6053 0
M  V30 33 H 3.3792 -0.1724 -2.3276 0
M  V30 34 H 1.1141 0.4953 -3.368 0
M  V30 35 H 1.2249 -0.8275 -4.5506 0
M  V30 36 H -0.1805 -0.685 -3.4736 0
M  V30 37 H 1.7601 -3.5763 -2.0399 0
M  V30 38 H 0.16 -3.0559 -2.544 0
M  V30 39 H 1.4676 -3.2103 -3.7403 0
M  V30 END ATOM
M  V30 BEGIN BOND
M  V30 1 1 1 2
M  V30 2 1 1 3
M  V30 3 1 2 4
M  V30 4 2 2 5
M  V30 5 2 3 6
M  V30 6 2 4 7
M  V30 7 1 4 8
M  V30 8 1 5 9
M  V30 9 1 8 10
M  V30 10 1 8 11
M  V30 11 1 9 12
M  V30 12 1 9 13
M  V30 13 2 12 14
M  V30 14 2 13 15
M  V30 15 1 14 16
M  V30 16 2 16 17
M  V30 17 1 16 18
M  V30 18 1 18 19
M  V30 19 1 19 20
M  V30 20 1 19 21
M  V30 21 1 19 22
M  V30 22 1 5 6
M  V30 23 1 10 12
M  V30 24 1 14 15
M  V30 25 1 3 23
M  V30 26 1 6 24
M  V30 27 1 10 25
M  V30 28 1 10 26
M  V30 29 1 11 27
M  V30 30 1 11 28
M  V30 31 1 11 29
M  V30 32 1 13 30
M  V30 33 1 20 31
M  V30 34 1 20 32
M  V30 35 1 20 33
M  V30 36 1 21 34
M  V30 37 1 21 35
M  V30 38 1 21 36
M  V30 39 1 22 37
M  V30 40 1 22 38
M  V30 41 1 22 39
M  V30 END BOND
M  V30 END CTAB
M  END
>  <Column 1>
333

>  <level_0>
378

>  <index>
378

>  <Unnamed: 0>
378

>  <NO.>
380

>  <Name>
99632-94-7

>  <IUPAC_name>
tert-butyl 8-methyl-7-oxo-5-thia-1-8-12-triazatricyclo[8.3.0.02-6]trideca-2(6)-3-10-12-tetraene-11-carboxylate

>  <SMILES>
CN1Cc2c(C(=O)OC(C)(C)C)ncn2-c2ccsc2C1=O

>  <CID>
127382

>  <logBB>
-0.25

>  <BBB+/BBB->
BBB+

>  <Inchi>
InChI=1S/C15H17N3O3S/c1-15(2-3)21-14(20)11-10-7-17(4)13(19)12-9(5-6-22-12)18(10)8-16-11/h5-6-8H-7H2-1-4H3

>  <threshold>


>  <reference>
R2|R2|R4|R8|R11|R21|R25|R27|R27|R36|R40|R43|R46|R47|

>  <group>
A

>  <Class>
1

>  <ABC>
17.49

>  <ABCGG>
15.67

>  <nAcid>
0

>  <nBase>
0

>  <nAromAtom>
10

>  <nAromBond>
10

>  <nAtom>
39

>  <nHeavyAtom>
22

>  <nSpiro>
0

>  <nBridgehead>
0

>  <nHetero>
7

>  <nN>
3

>  <nO>
3

>  <nF>
0

>  <BalabanJ>
1.78

>  <BertzCT>
754.42

>  <nBonds>
41

>  <nBondsO>
24

>  <nBondsS>
29

>  <nBondsD>
2

>  <nBondsT>
0

>  <nBondsA>
10

>  <nBondsM>
12

>  <nBondsKS>
35

>  <nBondsKD>
6

>  <RNCG>
0.22

>  <RPCG>
0.17

>  <FCSP3>
0.4

>  <SZ>
28

>  <Sm>
26.59

>  <Sv>
25.21

>  <Sse>
39.6

>  <Sp>
26.94

>  <Si>
43.95

>  <MZ>
0.72

>  <Mm>
0.68

>  <Mv>
0.65

>  <Mse>
1.02

>  <Mp>
0.69

>  <Mi>
1.13

>  <NsCH3>
4

>  <NdCH2>
0

>  <NssCH2>
1

>  <NtCH>
0

>  <NdsCH>
0

>  <NaaCH>
3

>  <NsssCH>
0

>  <NddC>
0

>  <NtsC>
0

>  <NdssC>
2

>  <NaasC>
4

>  <NaaaC>
0

>  <NssssC>
1

>  <NsNH3>
0

>  <NsNH2>
0

>  <NssNH2>
0

>  <NdNH>
0

>  <NssNH>
0

>  <NaaNH>
0

>  <NtN>
0

>  <NsssNH>
0

>  <NdsN>
0

>  <NaaN>
1

>  <NsssN>
1

>  <NddsN>
0

>  <NaasN>
1

>  <NssssN>
0

>  <NsOH>
0

>  <NdO>
2

>  <NssO>
1

>  <NaaO>
0

>  <NsF>
0

>  <NsSiH3>
0

>  <NssSiH2>
0

>  <NsssSiH>
0

>  <NssssSi>
0

>  <NsPH2>
0

>  <NssPH>
0

>  <NsssP>
0

>  <NdsssP>
0

>  <NsssssP>
0

>  <NsSH>
0

>  <NdS>
0

>  <NssS>
0

>  <NaaS>
1

>  <NdssS>
0

>  <NddssS>
0

>  <NsCl>
0

>  <NsBr>
0

>  <NsI>
0

>  <fragCpx>
114.07

>  <fMF>
0.33

>  <nHBAcc>
6

>  <nHBDon>
0

>  <Kier1>
16.84

>  <Kier2>
6.14

>  <Lipinski>
1

>  <GhoseFilter>
1

>  <FilterItLogS>
-2.78

>  <VMcGowan>
227.73

>  <LabuteASA>
131.88

>  <PEOE_VSA1>
9.64

>  <PEOE_VSA2>
9.36

>  <PEOE_VSA3>
9.78

>  <PEOE_VSA4>
0

>  <PEOE_VSA5>
11.34

>  <PEOE_VSA6>
0

>  <PEOE_VSA7>
32.22

>  <PEOE_VSA8>
7.05

>  <PEOE_VSA9>
17.93

>  <PEOE_VSA10>
16.81

>  <PEOE_VSA11>
5.69

>  <PEOE_VSA12>
0

>  <PEOE_VSA13>
5.91

>  <SMR_VSA1>
14.33

>  <SMR_VSA2>
0

>  <SMR_VSA3>
14.45

>  <SMR_VSA4>
0

>  <SMR_VSA5>
32.92

>  <SMR_VSA6>
7.05

>  <SMR_VSA7>
34.04

>  <SMR_VSA8>
0

>  <SMR_VSA9>
5.69

>  <SlogP_VSA1>
0

>  <SlogP_VSA2>
38.98

>  <SlogP_VSA3>
11.28

>  <SlogP_VSA4>
0

>  <SlogP_VSA5>
46.63

>  <SlogP_VSA6>
17.77

>  <SlogP_VSA7>
0

>  <SlogP_VSA8>
5.69

>  <SlogP_VSA9>
0

>  <SlogP_VSA10>
0

>  <SlogP_VSA11>
0

>  <EState_VSA1>
11.57

>  <EState_VSA2>
11.6

>  <EState_VSA3>
17.12

>  <EState_VSA4>
5.69

>  <EState_VSA5>
11.34

>  <EState_VSA6>
22.84

>  <EState_VSA7>
32.22

>  <EState_VSA8>
4.98

>  <EState_VSA9>
4.74

>  <EState_VSA10>
9.59

>  <VSA_EState1>
7.2

>  <VSA_EState2>
31.16

>  <VSA_EState3>
1.86

>  <VSA_EState4>
1.1

>  <VSA_EState5>
-0.52

>  <VSA_EState6>
1.86

>  <VSA_EState7>
1.58

>  <VSA_EState8>
5.75

>  <VSA_EState9>
1.72

>  <apol>
44.99

>  <bpol>
27.55

>  <nRing>
3

>  <nHRing>
3

>  <naRing>
2

>  <naHRing>
2

>  <nARing 2>
1

>  <nAHRing 2>
1

>  <nFRing>
1

>  <nFHRing>
1

>  <nFaRing>
0

>  <nFaHRing>
0

>  <nFARing 2>
1

>  <nFAHRing 2>
1

>  <nRot>
1

>  <SLogP>
2.47

>  <SMR>
82.41

>  <TopoPSA(NO)>
64.43

>  <TopoPSA>
92.67

>  <JGI1>
0.25

>  <JGI2>
0.09

>  <JGI3>
0.05

>  <JGI4>
0.04

>  <JGI5>
0.03

>  <Diameter>
9

>  <Radius>
5

>  <TMWC10>
121.92

>  <TSRW10>
72.59

>  <MW>
319.1

>  <AMW>
8.18

>  <WPath>
968

>  <WPol>
38

>  <Zagreb1>
122

>  <Zagreb2>
146

>  <mZagreb2>
4.57

>  <yes>


>  <nAR-cont>
0.816016

>  <nHA-cont>
0.983774276

>  <MWHBN>
0.335882864

>  <MWHBN-cont>
0.721989841

>  <TPSA-cont>
0.353105855

>  <pka_cont>
0.97

>  <yes.1>


>  <BBB_SCORE>
4.073986747

>  <MMFF94 Energy>
35.381

$$$$
Compound 261
Actelion Java MolfileCreator 2.0

  0  0  0  0  0  0              0 V3000
M  V30 BEGIN CTAB
M  V30 COUNTS 74 77 0 0 0
M  V30 BEGIN ATOM
M  V30 1 O -1.0319 -1.0319 -2.0647 0
M  V30 2 C -0.2257 -1.4301 -1.2254 0
M  V30 3 N 0.5067 -2.5806 -1.4289 0
M  V30 4 C -0.017 -0.6714 0.0467 0
M  V30 5 C 0.3639 -3.364 -2.6293 0
M  V30 6 C 1.0373 -0.8956 0.9246 0
M  V30 7 C -0.8935 0.3556 0.416 0
M  V30 8 O 1.9486 -1.8923 0.6285 0
M  V30 9 N 1.2344 -0.1986 2.0606 0
M  V30 10 N -0.7181 1.0658 1.5518 0
M  V30 11 N -2.015 0.6599 -0.3331 0
M  V30 12 C 3.0548 -2.0453 1.5367 0
M  V30 13 C 0.3363 0.7597 2.3175 0
M  V30 14 C -2.9309 1.7174 0.0409 0
M  V30 15 C 3.592 -3.4637 1.3401 0
M  V30 16 C 4.1679 -1.0585 1.1847 0
M  V30 17 C 0.5205 1.5247 3.522 0
M  V30 18 C -4.0656 1.8443 -0.992 0
M  V30 19 C 4.8504 -3.7412 2.1805 0
M  V30 20 C 5.4346 -1.2796 2.0285 0
M  V30 21 N 0.6818 2.1364 4.499 0
M  V30 22 C -5.1864 2.7389 -0.434 0
M  V30 23 C -3.5544 2.4114 -2.3297 0
M  V30 24 N 5.8568 -2.6852 2.0279 0
M  V30 25 C 5.5111 -5.0311 1.6493 0
M  V30 26 C 4.4938 -3.9898 3.6571 0
M  V30 27 C 5.256 -0.7287 3.4547 0
M  V30 28 C 6.5927 -0.4936 1.3779 0
M  V30 29 C -6.3221 2.9238 -1.4398 0
M  V30 30 C -4.6896 2.5811 -3.3382 0
M  V30 31 C -5.7816 3.4863 -2.7619 0
M  V30 32 C -6.9007 3.8264 -3.794 0
M  V30 33 C -5.4482 5.013 -2.763 0
M  V30 34 C -6.8757 5.2765 -3.2765 0
M  V30 35 H 1.2028 -2.8599 -0.7451 0
M  V30 36 H 0.7396 -2.7861 -3.4779 0
M  V30 37 H -0.691 -3.6029 -2.7893 0
M  V30 38 H 0.9428 -4.2836 -2.5185 0
M  V30 39 H -2.0564 0.2579 -1.273 0
M  V30 40 H 2.7201 -1.9441 2.575 0
M  V30 41 H -3.3629 1.4843 1.0221 0
M  V30 42 H -2.3985 2.6728 0.1279 0
M  V30 43 H 3.8062 -3.6122 0.2715 0
M  V30 44 H 2.8012 -4.1893 1.5735 0
M  V30 45 H 4.3988 -1.162 0.1144 0
M  V30 46 H 3.813 -0.0262 1.2961 0
M  V30 47 H -4.4855 0.8458 -1.1778 0
M  V30 48 H -4.7743 3.7176 -0.158 0
M  V30 49 H -5.5929 2.2964 0.4834 0
M  V30 50 H -2.7972 1.7481 -2.7624 0
M  V30 51 H -3.068 3.3802 -2.1584 0
M  V30 52 H 6.6361 -2.8294 2.6711 0
M  V30 53 H 6.4013 -5.2971 2.232 0
M  V30 54 H 4.8176 -5.8789 1.6995 0
M  V30 55 H 5.8205 -4.9222 0.6027 0
M  V30 56 H 3.9142 -3.1779 4.0996 0
M  V30 57 H 5.3943 -4.1288 4.2669 0
M  V30 58 H 3.8888 -4.8985 3.7621 0
M  V30 59 H 6.1316 -0.9441 4.0782 0
M  V30 60 H 5.1319 0.3608 3.4366 0
M  V30 61 H 4.3776 -1.1321 3.9614 0
M  V30 62 H 7.5197 -0.5899 1.9562 0
M  V30 63 H 6.7979 -0.849 0.3608 0
M  V30 64 H 6.3554 0.5746 1.31 0
M  V30 65 H -7.082 3.5847 -1.0067 0
M  V30 66 H -6.8102 1.9575 -1.6192 0
M  V30 67 H -4.2862 2.9973 -4.2692 0
M  V30 68 H -5.1098 1.5985 -3.587 0
M  V30 69 H -7.8527 3.302 -3.6705 0
M  V30 70 H -6.5931 3.7409 -4.8434 0
M  V30 71 H -5.2122 5.4661 -1.7962 0
M  V30 72 H -4.6725 5.3068 -3.4806 0
M  V30 73 H -6.968 6.0532 -4.0401 0
M  V30 74 H -7.6028 5.4757 -2.4812 0
M  V30 END ATOM
M  V30 BEGIN BOND
M  V30 1 2 1 2
M  V30 2 1 2 3
M  V30 3 1 2 4
M  V30 4 1 3 5
M  V30 5 2 4 6
M  V30 6 1 4 7
M  V30 7 1 6 8
M  V30 8 1 6 9
M  V30 9 2 7 10
M  V30 10 1 7 11
M  V30 11 1 8 12
M  V30 12 2 9 13
M  V30 13 1 11 14
M  V30 14 1 12 15
M  V30 15 1 12 16
M  V30 16 1 13 17
M  V30 17 1 14 18
M  V30 18 1 15 19
M  V30 19 1 16 20
M  V30 20 3 17 21
M  V30 21 1 18 22
M  V30 22 1 18 23
M  V30 23 1 19 24
M  V30 24 1 19 25
M  V30 25 1 19 26
M  V30 26 1 20 27
M  V30 27 1 20 28
M  V30 28 1 22 29
M  V30 29 1 23 30
M  V30 30 1 29 31
M  V30 31 1 31 32
M  V30 32 1 31 33
M  V30 33 1 32 34
M  V30 34 1 10 13
M  V30 35 1 20 24
M  V30 36 1 30 31
M  V30 37 1 33 34
M  V30 38 1 3 35
M  V30 39 1 5 36
M  V30 40 1 5 37
M  V30 41 1 5 38
M  V30 42 1 11 39
M  V30 43 1 12 40
M  V30 44 1 14 41
M  V30 45 1 14 42
M  V30 46 1 15 43
M  V30 47 1 15 44
M  V30 48 1 16 45
M  V30 49 1 16 46
M  V30 50 1 18 47
M  V30 51 1 22 48
M  V30 52 1 22 49
M  V30 53 1 23 50
M  V30 54 1 23 51
M  V30 55 1 24 52
M  V30 56 1 25 53
M  V30 57 1 25 54
M  V30 58 1 25 55
M  V30 59 1 26 56
M  V30 60 1 26 57
M  V30 61 1 26 58
M  V30 62 1 27 59
M  V30 63 1 27 60
M  V30 64 1 27 61
M  V30 65 1 28 62
M  V30 66 1 28 63
M  V30 67 1 28 64
M  V30 68 1 29 65
M  V30 69 1 29 66
M  V30 70 1 30 67
M  V30 71 1 30 68
M  V30 72 1 32 69
M  V30 73 1 32 70
M  V30 74 1 33 71
M  V30 75 1 33 72
M  V30 76 1 34 73
M  V30 77 1 34 74
M  V30 END BOND
M  V30 END CTAB
M  END
>  <Column 1>
334

>  <level_0>
379

>  <index>
379

>  <Unnamed: 0>
379

>  <NO.>
381

>  <Name>
chembl478224

>  <IUPAC_name>
2-cyano-n-methyl-4-(spiro[3.5]nonan-7-ylmethylamino)-6-(2-2-6-6-tetramethylpiperidin-4-yl)oxypyrimidine-5-carboxamide

>  <SMILES>
CNC(=O)c1c(NCC2CCC3(CCC3)CC2)nc(C#N)nc1OC1CC(C)(C)NC(C)(C)C1

>  <CID>
44579172

>  <logBB>
-0.24

>  <BBB+/BBB->
BBB+

>  <Inchi>
InChI=1S/C26H40N6O2/c1-24(2)13-18(14-25(3-4)32-24)34-23-20(22(33)28-5)21(30-19(15-27)31-23)29-16-17-7-11-26(12-8-17)9-6-10-26/h17-18-32H-6-14-16H2-1-5H3-(H-28-33)(H-29-30-31)

>  <threshold>


>  <reference>
R18|R26|R27|

>  <group>
A

>  <Class>
1

>  <ABC>
26.79

>  <ABCGG>
21.06

>  <nAcid>
0

>  <nBase>
1

>  <nAromAtom>
6

>  <nAromBond>
6

>  <nAtom>
74

>  <nHeavyAtom>
34

>  <nSpiro>
1

>  <nBridgehead>
0

>  <nHetero>
8

>  <nN>
6

>  <nO>
2

>  <nF>
0

>  <BalabanJ>
1.41

>  <BertzCT>
936.77

>  <nBonds>
77

>  <nBondsO>
37

>  <nBondsS>
69

>  <nBondsD>
1

>  <nBondsT>
1

>  <nBondsA>
6

>  <nBondsM>
8

>  <nBondsKS>
72

>  <nBondsKD>
4

>  <RNCG>
0.16

>  <RPCG>
0.09

>  <FCSP3>
0.77

>  <SZ>
42.33

>  <Sm>
39.02

>  <Sv>
42.81

>  <Sse>
73.4

>  <Sp>
46.88

>  <Si>
84.47

>  <MZ>
0.57

>  <Mm>
0.53

>  <Mv>
0.58

>  <Mse>
0.99

>  <Mp>
0.63

>  <Mi>
1.14

>  <NsCH3>
5

>  <NdCH2>
0

>  <NssCH2>
10

>  <NtCH>
0

>  <NdsCH>
0

>  <NaaCH>
0

>  <NsssCH>
2

>  <NddC>
0

>  <NtsC>
1

>  <NdssC>
1

>  <NaasC>
4

>  <NaaaC>
0

>  <NssssC>
3

>  <NsNH3>
0

>  <NsNH2>
0

>  <NssNH2>
0

>  <NdNH>
0

>  <NssNH>
3

>  <NaaNH>
0

>  <NtN>
1

>  <NsssNH>
0

>  <NdsN>
0

>  <NaaN>
2

>  <NsssN>
0

>  <NddsN>
0

>  <NaasN>
0

>  <NssssN>
0

>  <NsOH>
0

>  <NdO>
1

>  <NssO>
1

>  <NaaO>
0

>  <NsF>
0

>  <NsSiH3>
0

>  <NssSiH2>
0

>  <NsssSiH>
0

>  <NssssSi>
0

>  <NsPH2>
0

>  <NssPH>
0

>  <NsssP>
0

>  <NdsssP>
0

>  <NsssssP>
0

>  <NsSH>
0

>  <NdS>
0

>  <NssS>
0

>  <NaaS>
0

>  <NdssS>
0

>  <NddssS>
0

>  <NsCl>
0

>  <NsBr>
0

>  <NsI>
0

>  <fragCpx>
247.08

>  <fMF>
0.32

>  <nHBAcc>
7

>  <nHBDon>
3

>  <Kier1>
27.05

>  <Kier2>
10.78

>  <Lipinski>
1

>  <GhoseFilter>
0

>  <FilterItLogS>
-7.17

>  <VMcGowan>
379.58

>  <LabuteASA>
203.2

>  <PEOE_VSA1>
20.69

>  <PEOE_VSA2>
4.79

>  <PEOE_VSA3>
4.98

>  <PEOE_VSA4>
10.25

>  <PEOE_VSA5>
0

>  <PEOE_VSA6>
6.42

>  <PEOE_VSA7>
77.55

>  <PEOE_VSA8>
37.51

>  <PEOE_VSA9>
0

>  <PEOE_VSA10>
23.55

>  <PEOE_VSA11>
0

>  <PEOE_VSA12>
11.7

>  <PEOE_VSA13>
5.91

>  <SMR_VSA1>
9.53

>  <SMR_VSA2>
5.26

>  <SMR_VSA3>
20.6

>  <SMR_VSA4>
11.33

>  <SMR_VSA5>
102.66

>  <SMR_VSA6>
18.91

>  <SMR_VSA7>
11.39

>  <SMR_VSA8>
0

>  <SMR_VSA9>
11.95

>  <SlogP_VSA1>
20.69

>  <SlogP_VSA2>
46.65

>  <SlogP_VSA3>
0

>  <SlogP_VSA4>
22.66

>  <SlogP_VSA5>
101.66

>  <SlogP_VSA6>
0

>  <SlogP_VSA7>
0

>  <SlogP_VSA8>
0

>  <SlogP_VSA9>
0

>  <SlogP_VSA10>
5.82

>  <SlogP_VSA11>
5.88

>  <EState_VSA1>
0

>  <EState_VSA2>
40.36

>  <EState_VSA3>
17.15

>  <EState_VSA4>
19.39

>  <EState_VSA5>
44.95

>  <EState_VSA6>
7.05

>  <EState_VSA7>
6.07

>  <EState_VSA8>
53.61

>  <EState_VSA9>
4.74

>  <EState_VSA10>
10.06

>  <VSA_EState1>
6.36

>  <VSA_EState2>
21.63

>  <VSA_EState3>
19.32

>  <VSA_EState4>
0.65

>  <VSA_EState5>
0.81

>  <VSA_EState6>
2.04

>  <VSA_EState7>
10.53

>  <VSA_EState8>
9.32

>  <VSA_EState9>
1.59

>  <apol>
78.3

>  <bpol>
47.29

>  <nRing>
4

>  <nHRing>
2

>  <naRing>
1

>  <naHRing>
1

>  <nARing 2>
3

>  <nAHRing 2>
1

>  <nFRing>
0

>  <nFHRing>
0

>  <nFaRing>
0

>  <nFaHRing>
0

>  <nFARing 2>
0

>  <nFAHRing 2>
0

>  <nRot>
6

>  <SLogP>
4.17

>  <SMR>
131.81

>  <TopoPSA(NO)>
111.96

>  <TopoPSA>
111.96

>  <JGI1>
0.31

>  <JGI2>
0.07

>  <JGI3>
0.07

>  <JGI4>
0.04

>  <JGI5>
0.03

>  <Diameter>
15

>  <Radius>
8

>  <TMWC10>
150.09

>  <TSRW10>
71.02

>  <MW>
468.32

>  <AMW>
6.33

>  <WPath>
3522

>  <WPol>
54

>  <Zagreb1>
186

>  <Zagreb2>
218

>  <mZagreb2>
7.25

>  <yes>


>  <nAR-cont>
0.691115

>  <nHA-cont>
0.568589513

>  <MWHBN>
0.46209221

>  <MWHBN-cont>
0

>  <TPSA-cont>
0.218449677

>  <pka_cont>
0.97

>  <yes.1>


>  <BBB_SCORE>
2.181603867

>  <MMFF94 Energy>
19.933

$$$$
Compound 262
Actelion Java MolfileCreator 2.0

  0  0  0  0  0  0              0 V3000
M  V30 BEGIN CTAB
M  V30 COUNTS 16 16 0 0 0
M  V30 BEGIN ATOM
M  V30 1 O 1.1676 0.4669 2.5703 0
M  V30 2 C 1.1633 -0.2143 1.5524 0
M  V30 3 N 2.0688 -1.225 1.3901 0
M  V30 4 C 0.2057 0.0447 0.4435 0
M  V30 5 C -0.1307 -0.9317 -0.5028 0
M  V30 6 C -0.3904 1.3106 0.3693 0
M  V30 7 C -1.0385 -0.6336 -1.523 0
M  V30 8 C -1.2958 1.6048 -0.6517 0
M  V30 9 C -1.6165 0.6335 -1.5987 0
M  V30 10 H 2.1792 -1.7615 0.5439 0
M  V30 11 H 2.7193 -1.3835 2.1486 0
M  V30 12 H 0.2794 -1.9348 -0.4498 0
M  V30 13 H -0.1477 2.0723 1.1082 0
M  V30 14 H -1.3025 -1.393 -2.2551 0
M  V30 15 H -1.752 2.5903 -0.7043 0
M  V30 16 H -2.3244 0.8621 -2.3918 0
M  V30 END ATOM
M  V30 BEGIN BOND
M  V30 1 2 1 2
M  V30 2 1 2 3
M  V30 3 1 2 4
M  V30 4 2 4 5
M  V30 5 1 4 6
M  V30 6 1 5 7
M  V30 7 2 6 8
M  V30 8 2 7 9
M  V30 9 1 8 9
M  V30 10 1 3 10
M  V30 11 1 3 11
M  V30 12 1 5 12
M  V30 13 1 6 13
M  V30 14 1 7 14
M  V30 15 1 8 15
M  V30 16 1 9 16
M  V30 END BOND
M  V30 END CTAB
M  END
>  <Column 1>
335

>  <level_0>
380

>  <index>
380

>  <Unnamed: 0>
380

>  <NO.>
382

>  <Name>
benzamide

>  <IUPAC_name>
benzamide

>  <SMILES>
NC(=O)c1ccccc1

>  <CID>
2331

>  <logBB>
-0.24

>  <BBB+/BBB->
BBB+

>  <Inchi>
InChI=1S/C7H7NO/c8-7(9)6-4-2-1-3-5-6/h1-5H-(H2-8-9)

>  <threshold>


>  <reference>
R11|

>  <group>
A

>  <Class>
1

>  <ABC>
6.54

>  <ABCGG>
6.24

>  <nAcid>
0

>  <nBase>
0

>  <nAromAtom>
6

>  <nAromBond>
6

>  <nAtom>
16

>  <nHeavyAtom>
9

>  <nSpiro>
0

>  <nBridgehead>
0

>  <nHetero>
2

>  <nN>
1

>  <nO>
1

>  <nF>
0

>  <BalabanJ>
2.23

>  <BertzCT>
205.42

>  <nBonds>
16

>  <nBondsO>
9

>  <nBondsS>
9

>  <nBondsD>
1

>  <nBondsT>
0

>  <nBondsA>
6

>  <nBondsM>
7

>  <nBondsKS>
12

>  <nBondsKD>
4

>  <RNCG>
0.4

>  <RPCG>
0.27

>  <FCSP3>
0

>  <SZ>
10.67

>  <Sm>
10.09

>  <Sv>
10.37

>  <Sse>
16.1

>  <Sp>
10.93

>  <Si>
17.95

>  <MZ>
0.67

>  <Mm>
0.63

>  <Mv>
0.65

>  <Mse>
1.01

>  <Mp>
0.68

>  <Mi>
1.12

>  <NsCH3>
0

>  <NdCH2>
0

>  <NssCH2>
0

>  <NtCH>
0

>  <NdsCH>
0

>  <NaaCH>
5

>  <NsssCH>
0

>  <NddC>
0

>  <NtsC>
0

>  <NdssC>
1

>  <NaasC>
1

>  <NaaaC>
0

>  <NssssC>
0

>  <NsNH3>
0

>  <NsNH2>
1

>  <NssNH2>
0

>  <NdNH>
0

>  <NssNH>
0

>  <NaaNH>
0

>  <NtN>
0

>  <NsssNH>
0

>  <NdsN>
0

>  <NaaN>
0

>  <NsssN>
0

>  <NddsN>
0

>  <NaasN>
0

>  <NssssN>
0

>  <NsOH>
0

>  <NdO>
1

>  <NssO>
0

>  <NaaO>
0

>  <NsF>
0

>  <NsSiH3>
0

>  <NssSiH2>
0

>  <NsssSiH>
0

>  <NssssSi>
0

>  <NsPH2>
0

>  <NssPH>
0

>  <NsssP>
0

>  <NdsssP>
0

>  <NsssssP>
0

>  <NsSH>
0

>  <NdS>
0

>  <NssS>
0

>  <NaaS>
0

>  <NdssS>
0

>  <NddssS>
0

>  <NsCl>
0

>  <NsBr>
0

>  <NsI>
0

>  <fragCpx>
9.02

>  <fMF>
0.38

>  <nHBAcc>
1

>  <nHBDon>
1

>  <Kier1>
7.11

>  <Kier2>
3.24

>  <Lipinski>
1

>  <GhoseFilter>
0

>  <FilterItLogS>
-1.18

>  <VMcGowan>
97.28

>  <LabuteASA>
53.3

>  <PEOE_VSA1>
5.73

>  <PEOE_VSA2>
4.79

>  <PEOE_VSA3>
0

>  <PEOE_VSA4>
0

>  <PEOE_VSA5>
0

>  <PEOE_VSA6>
18.2

>  <PEOE_VSA7>
12.13

>  <PEOE_VSA8>
5.56

>  <PEOE_VSA9>
0

>  <PEOE_VSA10>
0

>  <PEOE_VSA11>
0

>  <PEOE_VSA12>
5.91

>  <PEOE_VSA13>
0

>  <SMR_VSA1>
4.79

>  <SMR_VSA2>
0

>  <SMR_VSA3>
0

>  <SMR_VSA4>
5.73

>  <SMR_VSA5>
0

>  <SMR_VSA6>
0

>  <SMR_VSA7>
35.9

>  <SMR_VSA8>
0

>  <SMR_VSA9>
0

>  <SlogP_VSA1>
5.73

>  <SlogP_VSA2>
5.91

>  <SlogP_VSA3>
0

>  <SlogP_VSA4>
0

>  <SlogP_VSA5>
10.36

>  <SlogP_VSA6>
30.33

>  <SlogP_VSA7>
0

>  <SlogP_VSA8>
0

>  <SlogP_VSA9>
0

>  <SlogP_VSA10>
0

>  <SlogP_VSA11>
0

>  <EState_VSA1>
0

>  <EState_VSA2>
5.91

>  <EState_VSA3>
5.56

>  <EState_VSA4>
0

>  <EState_VSA5>
0

>  <EState_VSA6>
24.27

>  <EState_VSA7>
6.07

>  <EState_VSA8>
0

>  <EState_VSA9>
5.73

>  <EState_VSA10>
4.79

>  <VSA_EState1>
0

>  <VSA_EState2>
10.42

>  <VSA_EState3>
0

>  <VSA_EState4>
5.53

>  <VSA_EState5>
-0.38

>  <VSA_EState6>
8.76

>  <VSA_EState7>
0

>  <VSA_EState8>
0

>  <VSA_EState9>
0

>  <apol>
18.26

>  <bpol>
7.32

>  <nRing>
1

>  <nHRing>
0

>  <naRing>
1

>  <naHRing>
0

>  <nARing 2>
0

>  <nAHRing 2>
0

>  <nFRing>
0

>  <nFHRing>
0

>  <nFaRing>
0

>  <nFaHRing>
0

>  <nFARing 2>
0

>  <nFAHRing 2>
0

>  <nRot>
1

>  <SLogP>
0.79

>  <SMR>
34.96

>  <TopoPSA(NO)>
43.09

>  <TopoPSA>
43.09

>  <JGI1>
0.17

>  <JGI2>
0.08

>  <JGI3>
0.05

>  <JGI4>
0.04

>  <JGI5>
0.06

>  <Diameter>
5

>  <Radius>
3

>  <TMWC10>
79.39

>  <TSRW10>
37.29

>  <MW>
121.05

>  <AMW>
7.57

>  <WPath>
88

>  <WPol>
9

>  <Zagreb1>
40

>  <Zagreb2>
43

>  <mZagreb2>
2.11

>  <yes>


>  <nAR-cont>
0.336376

>  <nHA-cont>
0.56070381

>  <MWHBN>
0.181780628

>  <MWHBN-cont>
0.989012435

>  <TPSA-cont>
0.699205043

>  <pka_cont>
0.97

>  <yes.1>


>  <BBB_SCORE>
4.264008548

>  <MMFF94 Energy>
4.6388

$$$$
Compound 263
Actelion Java MolfileCreator 2.0

  0  0  0  0  0  0              0 V3000
M  V30 BEGIN CTAB
M  V30 COUNTS 54 56 0 0 0
M  V30 BEGIN ATOM
M  V30 1 O -3.1617 -1.7379 4.2701 0
M  V30 2 C -2.4943 -0.7646 4.6025 0
M  V30 3 N -1.6814 -0.0693 3.7316 0
M  V30 4 C -2.5112 -0.2924 6.0145 0
M  V30 5 C -1.5804 -0.4337 2.3317 0
M  V30 6 C -2.3008 1.0505 6.3538 0
M  V30 7 C -2.7751 -1.2275 7.0234 0
M  V30 8 C -2.7444 0.1306 1.5206 0
M  V30 9 C -2.3297 1.4448 7.694 0
M  V30 10 C -2.8019 -0.8294 8.3611 0
M  V30 11 C -2.6691 -0.2936 0.0576 0
M  V30 12 C -2.5755 0.5051 8.6952 0
M  V30 13 O -1.4801 0.2501 -0.5154 0
M  V30 14 C -1.2336 -0.0411 -1.8291 0
M  V30 15 C -0.0436 0.4959 -2.3306 0
M  V30 16 C -2.0484 -0.8004 -2.6684 0
M  V30 17 C 0.3453 0.2794 -3.6611 0
M  V30 18 C -1.674 -1.0215 -3.9961 0
M  V30 19 C -0.4859 -0.4843 -4.4901 0
M  V30 20 C 1.6311 0.8753 -4.1951 0
M  V30 21 N 2.5613 -0.1306 -4.734 0
M  V30 22 C 3.1091 -1.0295 -3.7055 0
M  V30 23 C 3.6453 0.4896 -5.5092 0
M  V30 24 C 4.1377 -0.3719 -2.7815 0
M  V30 25 C 4.6916 1.2095 -4.6545 0
M  V30 26 C 5.2571 0.2874 -3.5798 0
M  V30 27 H -1.0783 0.6643 4.0755 0
M  V30 28 H -1.5511 -1.5263 2.2541 0
M  V30 29 H -0.6245 -0.0413 1.9696 0
M  V30 30 H -2.1435 1.8059 5.5902 0
M  V30 31 H -2.9582 -2.2692 6.7671 0
M  V30 32 H -2.7264 1.2255 1.5891 0
M  V30 33 H -3.6988 -0.204 1.9432 0
M  V30 34 H -2.171 2.4877 7.9579 0
M  V30 35 H -3.0037 -1.5603 9.1401 0
M  V30 36 H -2.6594 -1.3884 -0.0061 0
M  V30 37 H -3.548 0.1002 -0.4666 0
M  V30 38 H -2.6007 0.8148 9.7373 0
M  V30 39 H 0.5856 1.0867 -1.6689 0
M  V30 40 H -2.9801 -1.236 -2.324 0
M  V30 41 H -2.3088 -1.6169 -4.6472 0
M  V30 42 H -0.1988 -0.6691 -5.5233 0
M  V30 43 H 2.1063 1.495 -3.4257 0
M  V30 44 H 1.3341 1.5672 -4.9951 0
M  V30 45 H 3.5879 -1.8755 -4.2164 0
M  V30 46 H 2.3099 -1.4793 -3.1053 0
M  V30 47 H 3.2337 1.1832 -6.2527 0
M  V30 48 H 4.1438 -0.2959 -6.0919 0
M  V30 49 H 4.5639 -1.1276 -2.1117 0
M  V30 50 H 3.651 0.374 -2.1424 0
M  V30 51 H 4.2505 2.0964 -4.1844 0
M  V30 52 H 5.5059 1.5662 -5.2955 0
M  V30 53 H 5.9162 0.85 -2.9096 0
M  V30 54 H 5.8698 -0.489 -4.0542 0
M  V30 END ATOM
M  V30 BEGIN BOND
M  V30 1 2 1 2
M  V30 2 1 2 3
M  V30 3 1 2 4
M  V30 4 1 3 5
M  V30 5 2 4 6
M  V30 6 1 4 7
M  V30 7 1 5 8
M  V30 8 1 6 9
M  V30 9 2 7 10
M  V30 10 1 8 11
M  V30 11 2 9 12
M  V30 12 1 11 13
M  V30 13 1 13 14
M  V30 14 2 14 15
M  V30 15 1 14 16
M  V30 16 1 15 17
M  V30 17 2 16 18
M  V30 18 2 17 19
M  V30 19 1 17 20
M  V30 20 1 20 21
M  V30 21 1 21 22
M  V30 22 1 21 23
M  V30 23 1 22 24
M  V30 24 1 23 25
M  V30 25 1 24 26
M  V30 26 1 10 12
M  V30 27 1 18 19
M  V30 28 1 25 26
M  V30 29 1 3 27
M  V30 30 1 5 28
M  V30 31 1 5 29
M  V30 32 1 6 30
M  V30 33 1 7 31
M  V30 34 1 8 32
M  V30 35 1 8 33
M  V30 36 1 9 34
M  V30 37 1 10 35
M  V30 38 1 11 36
M  V30 39 1 11 37
M  V30 40 1 12 38
M  V30 41 1 15 39
M  V30 42 1 16 40
M  V30 43 1 18 41
M  V30 44 1 19 42
M  V30 45 1 20 43
M  V30 46 1 20 44
M  V30 47 1 22 45
M  V30 48 1 22 46
M  V30 49 1 23 47
M  V30 50 1 23 48
M  V30 51 1 24 49
M  V30 52 1 24 50
M  V30 53 1 25 51
M  V30 54 1 25 52
M  V30 55 1 26 53
M  V30 56 1 26 54
M  V30 END BOND
M  V30 END CTAB
M  END
>  <Column 1>
336

>  <level_0>
381

>  <index>
381

>  <Unnamed: 0>
381

>  <NO.>
383

>  <Name>
bbcpd21

>  <IUPAC_name>
n-[3-[3-(piperidin-1-ylmethyl)phenoxy]propyl]benzamide

>  <SMILES>
O=C(NCCCOc1cccc(CN2CCCCC2)c1)c1ccccc1

>  <CID>
10498206

>  <logBB>
-0.24

>  <BBB+/BBB->
BBB+

>  <Inchi>
InChI=1S/C22H28N2O2/c25-22(20-10-3-1-4-11-20)23-13-8-16-26-21-12-7-9-19(17-21)18-24-14-5-2-6-15-24/h1-3-4-7-9-12-17H-2-5-6-8-13-16-18H2-(H-23-25)

>  <threshold>


>  <reference>
R3|R3|R12|R18|R25|R26|R27|R35|R36|R38|R41|R43|R46|R47|R48|R49|R49|R4|R2|R2|R8|R27|R40|

>  <group>
A

>  <Class>
1

>  <ABC>
19.87

>  <ABCGG>
14.43

>  <nAcid>
0

>  <nBase>
1

>  <nAromAtom>
12

>  <nAromBond>
12

>  <nAtom>
54

>  <nHeavyAtom>
26

>  <nSpiro>
0

>  <nBridgehead>
0

>  <nHetero>
4

>  <nN>
2

>  <nO>
2

>  <nF>
0

>  <BalabanJ>
1.23

>  <BertzCT>
681.55

>  <nBonds>
56

>  <nBondsO>
28

>  <nBondsS>
43

>  <nBondsD>
1

>  <nBondsT>
0

>  <nBondsA>
12

>  <nBondsM>
13

>  <nBondsKS>
49

>  <nBondsKD>
7

>  <RNCG>
0.24

>  <RPCG>
0.12

>  <FCSP3>
0.41

>  <SZ>
31.67

>  <Sm>
29.35

>  <Sv>
32.53

>  <Sse>
53.42

>  <Sp>
35.46

>  <Si>
60.81

>  <MZ>
0.59

>  <Mm>
0.54

>  <Mv>
0.6

>  <Mse>
0.99

>  <Mp>
0.66

>  <Mi>
1.13

>  <NsCH3>
0

>  <NdCH2>
0

>  <NssCH2>
9

>  <NtCH>
0

>  <NdsCH>
0

>  <NaaCH>
9

>  <NsssCH>
0

>  <NddC>
0

>  <NtsC>
0

>  <NdssC>
1

>  <NaasC>
3

>  <NaaaC>
0

>  <NssssC>
0

>  <NsNH3>
0

>  <NsNH2>
0

>  <NssNH2>
0

>  <NdNH>
0

>  <NssNH>
1

>  <NaaNH>
0

>  <NtN>
0

>  <NsssNH>
0

>  <NdsN>
0

>  <NaaN>
0

>  <NsssN>
1

>  <NddsN>
0

>  <NaasN>
0

>  <NssssN>
0

>  <NsOH>
0

>  <NdO>
1

>  <NssO>
1

>  <NaaO>
0

>  <NsF>
0

>  <NsSiH3>
0

>  <NssSiH2>
0

>  <NsssSiH>
0

>  <NssssSi>
0

>  <NsPH2>
0

>  <NssPH>
0

>  <NsssP>
0

>  <NdsssP>
0

>  <NsssssP>
0

>  <NsSH>
0

>  <NdS>
0

>  <NssS>
0

>  <NaaS>
0

>  <NdssS>
0

>  <NddssS>
0

>  <NsCl>
0

>  <NsBr>
0

>  <NsI>
0

>  <fragCpx>
134.04

>  <fMF>
0.46

>  <nHBAcc>
3

>  <nHBDon>
1

>  <Kier1>
20.73

>  <Kier2>
11.76

>  <Lipinski>
1

>  <GhoseFilter>
1

>  <FilterItLogS>
-5.6

>  <VMcGowan>
289.86

>  <LabuteASA>
155.72

>  <PEOE_VSA1>
10.05

>  <PEOE_VSA2>
9.69

>  <PEOE_VSA3>
0

>  <PEOE_VSA4>
0

>  <PEOE_VSA5>
0

>  <PEOE_VSA6>
36.75

>  <PEOE_VSA7>
62.18

>  <PEOE_VSA8>
18.65

>  <PEOE_VSA9>
6.61

>  <PEOE_VSA10>
5.75

>  <PEOE_VSA11>
0

>  <PEOE_VSA12>
0

>  <PEOE_VSA13>
5.91

>  <SMR_VSA1>
9.53

>  <SMR_VSA2>
0

>  <SMR_VSA3>
10.22

>  <SMR_VSA4>
0

>  <SMR_VSA5>
32.23

>  <SMR_VSA6>
26.24

>  <SMR_VSA7>
65.72

>  <SMR_VSA8>
0

>  <SMR_VSA9>
5.75

>  <SlogP_VSA1>
10.05

>  <SlogP_VSA2>
37.05

>  <SlogP_VSA3>
6.54

>  <SlogP_VSA4>
0

>  <SlogP_VSA5>
41.6

>  <SlogP_VSA6>
54.6

>  <SlogP_VSA7>
0

>  <SlogP_VSA8>
0

>  <SlogP_VSA9>
0

>  <SlogP_VSA10>
0

>  <SlogP_VSA11>
5.75

>  <EState_VSA1>
0

>  <EState_VSA2>
5.91

>  <EState_VSA3>
18.72

>  <EState_VSA4>
18.72

>  <EState_VSA5>
37.92

>  <EState_VSA6>
0

>  <EState_VSA7>
36.4

>  <EState_VSA8>
28.42

>  <EState_VSA9>
4.74

>  <EState_VSA10>
4.79

>  <VSA_EState1>
5.85

>  <VSA_EState2>
14.47

>  <VSA_EState3>
2.93

>  <VSA_EState4>
2

>  <VSA_EState5>
0.88

>  <VSA_EState6>
17.65

>  <VSA_EState7>
4.77

>  <VSA_EState8>
4.62

>  <VSA_EState9>
0

>  <apol>
59.21

>  <bpol>
32.97

>  <nRing>
3

>  <nHRing>
1

>  <naRing>
2

>  <naHRing>
0

>  <nARing 2>
1

>  <nAHRing 2>
1

>  <nFRing>
0

>  <nFHRing>
0

>  <nFaRing>
0

>  <nFaHRing>
0

>  <nFARing 2>
0

>  <nFAHRing 2>
0

>  <nRot>
8

>  <SLogP>
3.87

>  <SMR>
104.46

>  <TopoPSA(NO)>
41.57

>  <TopoPSA>
41.57

>  <JGI1>
0.13

>  <JGI2>
0.04

>  <JGI3>
0.03

>  <JGI4>
0.02

>  <JGI5>
0.01

>  <Diameter>
17

>  <Radius>
9

>  <TMWC10>
126.74

>  <TSRW10>
60.05

>  <MW>
352.22

>  <AMW>
6.52

>  <WPath>
2160

>  <WPol>
33

>  <Zagreb1>
126

>  <Zagreb2>
140

>  <mZagreb2>
5.94

>  <yes>


>  <nAR-cont>
0.816016

>  <nHA-cont>
0.892715677

>  <MWHBN>
0.213134122

>  <MWHBN-cont>
0.998378041

>  <TPSA-cont>
0.709815587

>  <pka_cont>
0.97

>  <yes.1>


>  <BBB_SCORE>
5.110929911

>  <MMFF94 Energy>
29.7

$$$$
Compound 264
Actelion Java MolfileCreator 2.0

  0  0  0  0  0  0              0 V3000
M  V30 BEGIN CTAB
M  V30 COUNTS 20 20 0 0 0
M  V30 BEGIN ATOM
M  V30 1 F 2.5334 0.7911 0.1581 0
M  V30 2 C 2.0734 -0.0848 -0.772 0
M  V30 3 C 1.4221 -1.2535 -0.0542 0
M  V30 4 C 0.3456 -0.8059 0.9375 0
M  V30 5 N -0.7864 -0.1516 0.3109 0
M  V30 6 C -1.1605 1.1646 0.3411 0
M  V30 7 C -1.6914 -0.7942 -0.5036 0
M  V30 8 N -0.5171 2.1761 1.1256 0 CHG=1
M  V30 9 N -2.1974 1.4088 -0.4376 0
M  V30 10 C -2.5404 0.189 -0.9583 0
M  V30 11 O -0.2584 3.247 0.5625 0
M  V30 12 O -0.2738 1.8961 2.3078 0 CHG=-1
M  V30 13 H 1.3722 0.4444 -1.4231 0
M  V30 14 H 2.9229 -0.4199 -1.3736 0
M  V30 15 H 1.0097 -1.9516 -0.7911 0
M  V30 16 H 2.1933 -1.7926 0.5084 0
M  V30 17 H 0.782 -0.1534 1.6956 0
M  V30 18 H -0.055 -1.6799 1.4653 0
M  V30 19 H -1.6507 -1.8582 -0.6951 0
M  V30 20 H -3.3811 0.0815 -1.6332 0
M  V30 END ATOM
M  V30 BEGIN BOND
M  V30 1 1 1 2
M  V30 2 1 2 3
M  V30 3 1 3 4
M  V30 4 1 4 5
M  V30 5 1 5 6
M  V30 6 1 5 7
M  V30 7 1 6 8
M  V30 8 2 6 9
M  V30 9 2 7 10
M  V30 10 2 8 11
M  V30 11 1 8 12
M  V30 12 1 9 10
M  V30 13 1 2 13
M  V30 14 1 2 14
M  V30 15 1 3 15
M  V30 16 1 3 16
M  V30 17 1 4 17
M  V30 18 1 4 18
M  V30 19 1 7 19
M  V30 20 1 10 20
M  V30 END BOND
M  V30 END CTAB
M  END
>  <Column 1>
337

>  <level_0>
382

>  <index>
382

>  <Unnamed: 0>
382

>  <NO.>
384

>  <Name>
1-(3-fluoropropyl)-2-nitroimidazole (fpn)

>  <IUPAC_name>
1-(3-fluoropropyl)-2-nitroimidazole

>  <SMILES>
O=[N+]([O-])c1nccn1CCCF

>  <CID>
10352163

>  <logBB>
-0.24

>  <BBB+/BBB->
BBB+

>  <Inchi>
InChI=1S/C6H8FN3O2/c7-2-1-4-9-5-3-8-6(9)10(11)12/h3-5H-1-2-4H2

>  <threshold>


>  <reference>
R3|R21|R25|R27|R38|R41|R43|R46|R47|R2|R2|R8|R27|R40|

>  <group>
A

>  <Class>
1

>  <ABC>
8.62

>  <ABCGG>
8.72

>  <nAcid>
0

>  <nBase>
0

>  <nAromAtom>
5

>  <nAromBond>
5

>  <nAtom>
20

>  <nHeavyAtom>
12

>  <nSpiro>
0

>  <nBridgehead>
0

>  <nHetero>
6

>  <nN>
3

>  <nO>
2

>  <nF>
1

>  <BalabanJ>
2.3

>  <BertzCT>
273.51

>  <nBonds>
20

>  <nBondsO>
12

>  <nBondsS>
14

>  <nBondsD>
1

>  <nBondsT>
0

>  <nBondsA>
5

>  <nBondsM>
6

>  <nBondsKS>
17

>  <nBondsKD>
3

>  <RNCG>
0.28

>  <RPCG>
0.31

>  <FCSP3>
0.5

>  <SZ>
15

>  <Sm>
14.42

>  <Sv>
12.52

>  <Sse>
21.16

>  <Sp>
12.46

>  <Si>
23.5

>  <MZ>
0.75

>  <Mm>
0.72

>  <Mv>
0.63

>  <Mse>
1.06

>  <Mp>
0.62

>  <Mi>
1.17

>  <NsCH3>
0

>  <NdCH2>
0

>  <NssCH2>
3

>  <NtCH>
0

>  <NdsCH>
0

>  <NaaCH>
2

>  <NsssCH>
0

>  <NddC>
0

>  <NtsC>
0

>  <NdssC>
0

>  <NaasC>
1

>  <NaaaC>
0

>  <NssssC>
0

>  <NsNH3>
0

>  <NsNH2>
0

>  <NssNH2>
0

>  <NdNH>
0

>  <NssNH>
0

>  <NaaNH>
0

>  <NtN>
0

>  <NsssNH>
0

>  <NdsN>
0

>  <NaaN>
1

>  <NsssN>
0

>  <NddsN>
1

>  <NaasN>
1

>  <NssssN>
0

>  <NsOH>
0

>  <NdO>
1

>  <NssO>
0

>  <NaaO>
0

>  <NsF>
1

>  <NsSiH3>
0

>  <NssSiH2>
0

>  <NsssSiH>
0

>  <NssssSi>
0

>  <NsPH2>
0

>  <NssPH>
0

>  <NsssP>
0

>  <NdsssP>
0

>  <NsssssP>
0

>  <NsSH>
0

>  <NdS>
0

>  <NssS>
0

>  <NaaS>
0

>  <NdssS>
0

>  <NddssS>
0

>  <NsCl>
0

>  <NsBr>
0

>  <NsI>
0

>  <fragCpx>
12.06

>  <fMF>
0.25

>  <nHBAcc>
4

>  <nHBDon>
0

>  <Kier1>
10.08

>  <Kier2>
4.89

>  <Lipinski>
1

>  <GhoseFilter>
0

>  <FilterItLogS>
-1.6

>  <VMcGowan>
115.08

>  <LabuteASA>
67.98

>  <PEOE_VSA1>
10.11

>  <PEOE_VSA2>
4.39

>  <PEOE_VSA3>
4.57

>  <PEOE_VSA4>
0

>  <PEOE_VSA5>
0

>  <PEOE_VSA6>
4.98

>  <PEOE_VSA7>
4.92

>  <PEOE_VSA8>
6.42

>  <PEOE_VSA9>
13.22

>  <PEOE_VSA10>
12.39

>  <PEOE_VSA11>
0

>  <PEOE_VSA12>
0

>  <PEOE_VSA13>
0

>  <SMR_VSA1>
9.31

>  <SMR_VSA2>
0

>  <SMR_VSA3>
9.55

>  <SMR_VSA4>
0

>  <SMR_VSA5>
12.97

>  <SMR_VSA6>
6.67

>  <SMR_VSA7>
22.51

>  <SMR_VSA8>
0

>  <SMR_VSA9>
0

>  <SlogP_VSA1>
0

>  <SlogP_VSA2>
21.15

>  <SlogP_VSA3>
6.54

>  <SlogP_VSA4>
10.11

>  <SlogP_VSA5>
6.42

>  <SlogP_VSA6>
12.39

>  <SlogP_VSA7>
0

>  <SlogP_VSA8>
0

>  <SlogP_VSA9>
0

>  <SlogP_VSA10>
10.34

>  <SlogP_VSA11>
0

>  <EState_VSA1>
11.6

>  <EState_VSA2>
12.37

>  <EState_VSA3>
6.54

>  <EState_VSA4>
0

>  <EState_VSA5>
16.96

>  <EState_VSA6>
0

>  <EState_VSA7>
0

>  <EState_VSA8>
4.98

>  <EState_VSA9>
0

>  <EState_VSA10>
14.5

>  <VSA_EState1>
13.03

>  <VSA_EState2>
13.2

>  <VSA_EState3>
10.27

>  <VSA_EState4>
0

>  <VSA_EState5>
-0.23

>  <VSA_EState6>
0

>  <VSA_EState7>
3.07

>  <VSA_EState8>
-0.18

>  <VSA_EState9>
0

>  <apol>
20.82

>  <bpol>
13.15

>  <nRing>
1

>  <nHRing>
1

>  <naRing>
1

>  <naHRing>
1

>  <nARing 2>
0

>  <nAHRing 2>
0

>  <nFRing>
0

>  <nFHRing>
0

>  <nFaRing>
0

>  <nFaHRing>
0

>  <nFARing 2>
0

>  <nFAHRing 2>
0

>  <nRot>
4

>  <SLogP>
1.15

>  <SMR>
39.47

>  <TopoPSA(NO)>
60.96

>  <TopoPSA>
60.96

>  <JGI1>
0.17

>  <JGI2>
0.09

>  <JGI3>
0.06

>  <JGI4>
0.04

>  <JGI5>
0.03

>  <Diameter>
7

>  <Radius>
4

>  <TMWC10>
89.64

>  <TSRW10>
55.39

>  <MW>
173.06

>  <AMW>
8.65

>  <WPath>
208

>  <WPol>
13

>  <Zagreb1>
54

>  <Zagreb2>
60

>  <mZagreb2>
2.89

>  <yes>


>  <nAR-cont>
0.336376

>  <nHA-cont>
0.785745021

>  <MWHBN>
0.304061646

>  <MWHBN-cont>
0.828436277

>  <TPSA-cont>
0.574461346

>  <pka_cont>
0.97

>  <yes.1>


>  <BBB_SCORE>
3.998698129

>  <MMFF94 Energy>
48.218

$$$$
Compound 265
Actelion Java MolfileCreator 2.0

  0  0  0  0  0  0              0 V3000
M  V30 BEGIN CTAB
M  V30 COUNTS 41 41 0 0 0
M  V30 BEGIN ATOM
M  V30 1 O 1.1671 -0.5445 -0.3889 0
M  V30 2 C 2.1603 -0.6412 0.5504 0
M  V30 3 C 0.2604 0.5631 -0.2853 0
M  V30 4 C 3.0488 -1.7233 0.3978 0
M  V30 5 C 2.3304 0.2435 1.621 0
M  V30 6 C -0.7265 0.4472 -1.4545 0 CFG=1
M  V30 7 C 4.0817 -1.9031 1.3351 0
M  V30 8 C 2.9023 -2.7236 -0.7291 0
M  V30 9 C 3.3683 0.0575 2.5378 0
M  V30 10 O -1.5112 -0.7508 -1.3107 0
M  V30 11 C -1.6714 1.6583 -1.5587 0
M  V30 12 C 4.2422 -1.0151 2.3967 0
M  V30 13 C 2.0484 -3.8992 -0.3412 0
M  V30 14 N -2.471 1.8194 -0.3368 0
M  V30 15 C 2.4621 -5.1733 -0.3501 0
M  V30 16 C -3.4492 2.9078 -0.4223 0
M  V30 17 C -4.6624 2.5403 -1.2791 0
M  V30 18 C -3.9032 3.2346 1.0018 0
M  V30 19 H 0.8121 1.5073 -0.3584 0
M  V30 20 H -0.2763 0.4933 0.6679 0
M  V30 21 H 1.6677 1.0886 1.7775 0
M  V30 22 H -0.1722 0.3414 -2.3945 0
M  V30 23 H 4.7638 -2.7453 1.2397 0
M  V30 24 H 3.9009 -3.0535 -1.0447 0
M  V30 25 H 2.4692 -2.2421 -1.614 0
M  V30 26 H 3.4888 0.7499 3.3673 0
M  V30 27 H -0.872 -1.4563 -1.0947 0
M  V30 28 H -1.0826 2.5644 -1.7413 0
M  V30 29 H -2.3313 1.4963 -2.4178 0
M  V30 30 H 5.0445 -1.164 3.1145 0
M  V30 31 H 1.0267 -3.6782 -0.0388 0
M  V30 32 H -2.9471 0.9295 -0.1593 0
M  V30 33 H 3.471 -5.4448 -0.6441 0
M  V30 34 H 1.7913 -5.9752 -0.0569 0
M  V30 35 H -2.9734 3.8068 -0.8333 0
M  V30 36 H -5.1512 1.6303 -0.9133 0
M  V30 37 H -4.385 2.379 -2.3252 0
M  V30 38 H -5.404 3.3467 -1.2611 0
M  V30 39 H -3.052 3.5241 1.6286 0
M  V30 40 H -4.397 2.3783 1.4754 0
M  V30 41 H -4.6106 4.0712 0.9998 0
M  V30 END ATOM
M  V30 BEGIN BOND
M  V30 1 1 1 2
M  V30 2 1 1 3
M  V30 3 2 2 4
M  V30 4 1 2 5
M  V30 5 1 3 6
M  V30 6 1 4 7
M  V30 7 1 4 8
M  V30 8 2 5 9
M  V30 9 1 6 10
M  V30 10 1 6 11
M  V30 11 2 7 12
M  V30 12 1 8 13
M  V30 13 1 11 14
M  V30 14 2 13 15
M  V30 15 1 14 16
M  V30 16 1 16 17
M  V30 17 1 16 18
M  V30 18 1 9 12
M  V30 19 1 3 19
M  V30 20 1 3 20
M  V30 21 1 5 21
M  V30 22 1 6 22
M  V30 23 1 7 23
M  V30 24 1 8 24
M  V30 25 1 8 25
M  V30 26 1 9 26
M  V30 27 1 10 27
M  V30 28 1 11 28
M  V30 29 1 11 29
M  V30 30 1 12 30
M  V30 31 1 13 31
M  V30 32 1 14 32
M  V30 33 1 15 33
M  V30 34 1 15 34
M  V30 35 1 16 35
M  V30 36 1 17 36
M  V30 37 1 17 37
M  V30 38 1 17 38
M  V30 39 1 18 39
M  V30 40 1 18 40
M  V30 41 1 18 41
M  V30 END BOND
M  V30 BEGIN COLLECTION
M  V30 MDLV30/STERAC1 ATOMS=(1 6)
M  V30 END COLLECTION
M  V30 END CTAB
M  END
>  <Column 1>
339

>  <level_0>
384

>  <index>
384

>  <Unnamed: 0>
384

>  <NO.>
386

>  <Name>
alprenolol

>  <IUPAC_name>
1-(propan-2-ylamino)-3-(2-prop-2-enylphenoxy)propan-2-ol

>  <SMILES>
C=CCc1ccccc1OCC(O)CNC(C)C

>  <CID>
2119

>  <logBB>
-0.23

>  <BBB+/BBB->
BBB+

>  <Inchi>
InChI=1S/C15H23NO2/c1-4-7-13-8-5-6-9-15(13)18-11-14(17)10-16-12(2)3/h4-6-8-9-12-14-16-17H-1-7-10-11H2-2-3H3

>  <threshold>


>  <reference>
R2|R2|R8|R21|R25|R27|R27|R43|R46|R47|R4|R40|

>  <group>
A

>  <Class>
1

>  <ABC>
13.02

>  <ABCGG>
11.49

>  <nAcid>
0

>  <nBase>
1

>  <nAromAtom>
6

>  <nAromBond>
6

>  <nAtom>
41

>  <nHeavyAtom>
18

>  <nSpiro>
0

>  <nBridgehead>
0

>  <nHetero>
3

>  <nN>
1

>  <nO>
2

>  <nF>
0

>  <BalabanJ>
2.22

>  <BertzCT>
363.27

>  <nBonds>
41

>  <nBondsO>
18

>  <nBondsS>
34

>  <nBondsD>
1

>  <nBondsT>
0

>  <nBondsA>
6

>  <nBondsM>
7

>  <nBondsKS>
37

>  <nBondsKD>
4

>  <RNCG>
0.29

>  <RPCG>
0.13

>  <FCSP3>
0.47

>  <SZ>
22.67

>  <Sm>
20.76

>  <Sv>
23.42

>  <Sse>
40.53

>  <Sp>
25.8

>  <Si>
46.49

>  <MZ>
0.55

>  <Mm>
0.51

>  <Mv>
0.57

>  <Mse>
0.99

>  <Mp>
0.63

>  <Mi>
1.13

>  <NsCH3>
2

>  <NdCH2>
1

>  <NssCH2>
3

>  <NtCH>
0

>  <NdsCH>
1

>  <NaaCH>
4

>  <NsssCH>
2

>  <NddC>
0

>  <NtsC>
0

>  <NdssC>
0

>  <NaasC>
2

>  <NaaaC>
0

>  <NssssC>
0

>  <NsNH3>
0

>  <NsNH2>
0

>  <NssNH2>
0

>  <NdNH>
0

>  <NssNH>
1

>  <NaaNH>
0

>  <NtN>
0

>  <NsssNH>
0

>  <NdsN>
0

>  <NaaN>
0

>  <NsssN>
0

>  <NddsN>
0

>  <NaasN>
0

>  <NssssN>
0

>  <NsOH>
1

>  <NdO>
0

>  <NssO>
1

>  <NaaO>
0

>  <NsF>
0

>  <NsSiH3>
0

>  <NssSiH2>
0

>  <NsssSiH>
0

>  <NssssSi>
0

>  <NsPH2>
0

>  <NssPH>
0

>  <NsssP>
0

>  <NdsssP>
0

>  <NsssssP>
0

>  <NsSH>
0

>  <NdS>
0

>  <NssS>
0

>  <NaaS>
0

>  <NdssS>
0

>  <NddssS>
0

>  <NsCl>
0

>  <NsBr>
0

>  <NsI>
0

>  <fragCpx>
18.03

>  <fMF>
0.15

>  <nHBAcc>
3

>  <nHBDon>
2

>  <Kier1>
16.06

>  <Kier2>
8.99

>  <Lipinski>
1

>  <GhoseFilter>
1

>  <FilterItLogS>
-3.55

>  <VMcGowan>
215.87

>  <LabuteASA>
109.48

>  <PEOE_VSA1>
15.16

>  <PEOE_VSA2>
0

>  <PEOE_VSA3>
0

>  <PEOE_VSA4>
0

>  <PEOE_VSA5>
6.58

>  <PEOE_VSA6>
38.12

>  <PEOE_VSA7>
18.05

>  <PEOE_VSA8>
12.59

>  <PEOE_VSA9>
0

>  <PEOE_VSA10>
18.46

>  <PEOE_VSA11>
0

>  <PEOE_VSA12>
0

>  <PEOE_VSA13>
0

>  <SMR_VSA1>
9.84

>  <SMR_VSA2>
0

>  <SMR_VSA3>
5.32

>  <SMR_VSA4>
0

>  <SMR_VSA5>
32.41

>  <SMR_VSA6>
13.15

>  <SMR_VSA7>
42.48

>  <SMR_VSA8>
0

>  <SMR_VSA9>
5.75

>  <SlogP_VSA1>
10.05

>  <SlogP_VSA2>
30.4

>  <SlogP_VSA3>
6.42

>  <SlogP_VSA4>
0

>  <SlogP_VSA5>
19.41

>  <SlogP_VSA6>
36.92

>  <SlogP_VSA7>
0

>  <SlogP_VSA8>
0

>  <SlogP_VSA9>
0

>  <SlogP_VSA10>
0

>  <SlogP_VSA11>
5.75

>  <EState_VSA1>
6.1

>  <EState_VSA2>
0

>  <EState_VSA3>
19.19

>  <EState_VSA4>
17.73

>  <EState_VSA5>
0

>  <EState_VSA6>
0

>  <EState_VSA7>
44.19

>  <EState_VSA8>
11.9

>  <EState_VSA9>
4.74

>  <EState_VSA10>
5.11

>  <VSA_EState1>
5.65

>  <VSA_EState2>
0

>  <VSA_EState3>
12.95

>  <VSA_EState4>
1.09

>  <VSA_EState5>
0.82

>  <VSA_EState6>
8.2

>  <VSA_EState7>
2.12

>  <VSA_EState8>
8.67

>  <VSA_EState9>
0

>  <apol>
43.09

>  <bpol>
25.38

>  <nRing>
1

>  <nHRing>
0

>  <naRing>
1

>  <naHRing>
0

>  <nARing 2>
0

>  <nAHRing 2>
0

>  <nFRing>
0

>  <nFHRing>
0

>  <nFaRing>
0

>  <nFaHRing>
0

>  <nFARing 2>
0

>  <nFAHRing 2>
0

>  <nRot>
8

>  <SLogP>
2.15

>  <SMR>
74.98

>  <TopoPSA(NO)>
41.49

>  <TopoPSA>
41.49

>  <JGI1>
0.19

>  <JGI2>
0.08

>  <JGI3>
0.03

>  <JGI4>
0.04

>  <JGI5>
0.02

>  <Diameter>
11

>  <Radius>
6

>  <TMWC10>
104.1

>  <TSRW10>
49.62

>  <MW>
249.17

>  <AMW>
6.08

>  <WPath>
711

>  <WPol>
21

>  <Zagreb1>
80

>  <Zagreb2>
86

>  <mZagreb2>
4.28

>  <yes>


>  <nAR-cont>
0.336376

>  <nHA-cont>
0.991161285

>  <MWHBN>
0.316754015

>  <MWHBN-cont>
0.787967531

>  <TPSA-cont>
0.710374036

>  <pka_cont>
0.97

>  <yes.1>


>  <BBB_SCORE>
4.415236654

>  <MMFF94 Energy>
66.552

$$$$
Compound 266
Actelion Java MolfileCreator 2.0

  0  0  0  0  0  0              0 V3000
M  V30 BEGIN CTAB
M  V30 COUNTS 47 50 0 0 0
M  V30 BEGIN ATOM
M  V30 1 O -1.1191 -3.0398 -2.4793 0
M  V30 2 C -0.8329 -2.0593 -1.7978 0
M  V30 3 N 0.0082 -2.0755 -0.691 0
M  V30 4 C -1.3986 -0.7438 -2.1651 0
M  V30 5 N 0.2789 -0.9641 0.0864 0
M  V30 6 C 0.6078 -3.332 -0.2507 0
M  V30 7 C -1.1417 0.3438 -1.437 0
M  V30 8 C -0.2818 0.15 -0.2579 0
M  V30 9 C 2.0016 -3.6485 -0.8451 0
M  V30 10 C -0.0581 1.332 0.5474 0
M  V30 11 O 2.4399 -4.9114 -0.3094 0
M  V30 12 C 3.0481 -2.6161 -0.4242 0
M  V30 13 C 1.9862 -3.7814 -2.3697 0
M  V30 14 C -0.9952 2.296 1.0338 0
M  V30 15 C 1.1592 1.7671 1.0379 0
M  V30 16 N -0.3844 3.2953 1.6843 0
M  V30 17 C -2.4527 2.2939 0.9043 0
M  V30 18 N 0.9247 2.9602 1.7195 0
M  V30 19 C 2.5036 1.2916 0.9786 0
M  V30 20 C -3.1938 1.1338 1.1696 0
M  V30 21 C -3.1259 3.4599 0.5158 0
M  V30 22 C 1.9535 3.6816 2.3293 0
M  V30 23 C 3.4878 1.9935 1.5711 0
M  V30 24 C -4.5829 1.1354 1.0232 0
M  V30 25 C -4.5147 3.4593 0.3706 0
M  V30 26 C 3.218 3.2347 2.2737 0
M  V30 27 C -5.2413 2.2962 0.6201 0
M  V30 28 H -2.0211 -0.716 -3.05 0
M  V30 29 H 0.6635 -3.3207 0.8458 0
M  V30 30 H -0.0777 -4.1539 -0.4948 0
M  V30 31 H -1.5302 1.3189 -1.6956 0
M  V30 32 H 1.8597 -5.6051 -0.6694 0
M  V30 33 H 3.0686 -2.5018 0.6653 0
M  V30 34 H 4.0534 -2.9384 -0.7191 0
M  V30 35 H 2.8597 -1.6382 -0.8765 0
M  V30 36 H 2.9599 -4.125 -2.7379 0
M  V30 37 H 1.7524 -2.8333 -2.8631 0
M  V30 38 H 1.2561 -4.5333 -2.689 0
M  V30 39 H 2.7224 0.3613 0.4653 0
M  V30 40 H -2.7019 0.2246 1.5084 0
M  V30 41 H -2.5685 4.3758 0.3291 0
M  V30 42 H 1.6612 4.5941 2.831 0
M  V30 43 H 4.5145 1.6403 1.5408 0
M  V30 44 H -5.1521 0.2334 1.2341 0
M  V30 45 H -5.0287 4.369 0.0708 0
M  V30 46 H 4.038 3.7705 2.7383 0
M  V30 47 H -6.3232 2.2982 0.5129 0
M  V30 END ATOM
M  V30 BEGIN BOND
M  V30 1 2 1 2
M  V30 2 1 2 3
M  V30 3 1 2 4
M  V30 4 1 3 5
M  V30 5 1 3 6
M  V30 6 2 4 7
M  V30 7 2 5 8
M  V30 8 1 6 9
M  V30 9 1 8 10
M  V30 10 1 9 11
M  V30 11 1 9 12
M  V30 12 1 9 13
M  V30 13 1 10 14
M  V30 14 2 10 15
M  V30 15 2 14 16
M  V30 16 1 14 17
M  V30 17 1 15 18
M  V30 18 1 15 19
M  V30 19 2 17 20
M  V30 20 1 17 21
M  V30 21 1 18 22
M  V30 22 2 19 23
M  V30 23 1 20 24
M  V30 24 2 21 25
M  V30 25 2 22 26
M  V30 26 2 24 27
M  V30 27 1 7 8
M  V30 28 1 16 18
M  V30 29 1 23 26
M  V30 30 1 25 27
M  V30 31 1 4 28
M  V30 32 1 6 29
M  V30 33 1 6 30
M  V30 34 1 7 31
M  V30 35 1 11 32
M  V30 36 1 12 33
M  V30 37 1 12 34
M  V30 38 1 12 35
M  V30 39 1 13 36
M  V30 40 1 13 37
M  V30 41 1 13 38
M  V30 42 1 19 39
M  V30 43 1 20 40
M  V30 44 1 21 41
M  V30 45 1 22 42
M  V30 46 1 23 43
M  V30 47 1 24 44
M  V30 48 1 25 45
M  V30 49 1 26 46
M  V30 50 1 27 47
M  V30 END BOND
M  V30 END CTAB
M  END
>  <Column 1>
340

>  <level_0>
385

>  <index>
385

>  <Unnamed: 0>
385

>  <NO.>
387

>  <Name>
222722-65-8

>  <IUPAC_name>
2-(2-hydroxy-2-methylpropyl)-6-(2-phenylpyrazolo[1-5-a]pyridin-3-yl)pyridazin-3-one

>  <SMILES>
CC(C)(O)Cn1nc(-c2c(-c3ccccc3)nn3ccccc23)ccc1=O

>  <CID>
10937291

>  <logBB>
-0.23

>  <BBB+/BBB->
BBB+

>  <Inchi>
InChI=1S/C21H20N4O2/c1-21(2-27)14-25-18(26)12-11-16(22-25)19-17-10-6-7-13-24(17)23-20(19)15-8-4-3-5-9-15/h3-13-27H-14H2-1-2H3

>  <threshold>


>  <reference>
R2|R2|R4|R8|R27|R40|R47|

>  <group>
A

>  <Class>
1

>  <ABC>
21.56

>  <ABCGG>
17.19

>  <nAcid>
0

>  <nBase>
0

>  <nAromAtom>
21

>  <nAromBond>
22

>  <nAtom>
47

>  <nHeavyAtom>
27

>  <nSpiro>
0

>  <nBridgehead>
0

>  <nHetero>
6

>  <nN>
4

>  <nO>
2

>  <nF>
0

>  <BalabanJ>
1.52

>  <BertzCT>
1154.23

>  <nBonds>
50

>  <nBondsO>
30

>  <nBondsS>
27

>  <nBondsD>
1

>  <nBondsT>
0

>  <nBondsA>
22

>  <nBondsM>
23

>  <nBondsKS>
40

>  <nBondsKD>
10

>  <RNCG>
0.2

>  <RPCG>
0.13

>  <FCSP3>
0.19

>  <SZ>
31.67

>  <Sm>
30.01

>  <Sv>
30.88

>  <Sse>
47.19

>  <Sp>
32.58

>  <Si>
52.73

>  <MZ>
0.67

>  <Mm>
0.64

>  <Mv>
0.66

>  <Mse>
1

>  <Mp>
0.69

>  <Mi>
1.12

>  <NsCH3>
2

>  <NdCH2>
0

>  <NssCH2>
1

>  <NtCH>
0

>  <NdsCH>
0

>  <NaaCH>
11

>  <NsssCH>
0

>  <NddC>
0

>  <NtsC>
0

>  <NdssC>
0

>  <NaasC>
4

>  <NaaaC>
1

>  <NssssC>
1

>  <NsNH3>
0

>  <NsNH2>
0

>  <NssNH2>
0

>  <NdNH>
0

>  <NssNH>
0

>  <NaaNH>
0

>  <NtN>
0

>  <NsssNH>
0

>  <NdsN>
0

>  <NaaN>
2

>  <NsssN>
0

>  <NddsN>
0

>  <NaasN>
2

>  <NssssN>
0

>  <NsOH>
1

>  <NdO>
1

>  <NssO>
0

>  <NaaO>
0

>  <NsF>
0

>  <NsSiH3>
0

>  <NssSiH2>
0

>  <NsssSiH>
0

>  <NssssSi>
0

>  <NsPH2>
0

>  <NssPH>
0

>  <NsssP>
0

>  <NdsssP>
0

>  <NsssssP>
0

>  <NsSH>
0

>  <NdS>
0

>  <NssS>
0

>  <NaaS>
0

>  <NdssS>
0

>  <NddssS>
0

>  <NsCl>
0

>  <NsBr>
0

>  <NsI>
0

>  <fragCpx>
198.06

>  <fMF>
0.45

>  <nHBAcc>
6

>  <nHBDon>
1

>  <Kier1>
20.28

>  <Kier2>
8.39

>  <Lipinski>
1

>  <GhoseFilter>
1

>  <FilterItLogS>
-4.4

>  <VMcGowan>
271.97

>  <LabuteASA>
155.89

>  <PEOE_VSA1>
5.11

>  <PEOE_VSA2>
4.79

>  <PEOE_VSA3>
9.2

>  <PEOE_VSA4>
10.2

>  <PEOE_VSA5>
0

>  <PEOE_VSA6>
36.4

>  <PEOE_VSA7>
32.05

>  <PEOE_VSA8>
17.83

>  <PEOE_VSA9>
28.92

>  <PEOE_VSA10>
5.69

>  <PEOE_VSA11>
0

>  <PEOE_VSA12>
0

>  <PEOE_VSA13>
5.56

>  <SMR_VSA1>
5.11

>  <SMR_VSA2>
0

>  <SMR_VSA3>
19.39

>  <SMR_VSA4>
0

>  <SMR_VSA5>
25.99

>  <SMR_VSA6>
0

>  <SMR_VSA7>
77.21

>  <SMR_VSA8>
0

>  <SMR_VSA9>
22.51

>  <SlogP_VSA1>
5.56

>  <SlogP_VSA2>
30.1

>  <SlogP_VSA3>
6.54

>  <SlogP_VSA4>
0

>  <SlogP_VSA5>
13.85

>  <SlogP_VSA6>
71.66

>  <SlogP_VSA7>
0

>  <SlogP_VSA8>
28.03

>  <SlogP_VSA9>
0

>  <SlogP_VSA10>
0

>  <SlogP_VSA11>
0

>  <EState_VSA1>
5.6

>  <EState_VSA2>
12.1

>  <EState_VSA3>
5.69

>  <EState_VSA4>
22.34

>  <EState_VSA5>
10.75

>  <EState_VSA6>
19.91

>  <EState_VSA7>
59.24

>  <EState_VSA8>
5.1

>  <EState_VSA9>
5.1

>  <EState_VSA10>
9.9

>  <VSA_EState1>
3.11

>  <VSA_EState2>
12.21

>  <VSA_EState3>
19.36

>  <VSA_EState4>
2.86

>  <VSA_EState5>
0

>  <VSA_EState6>
18.91

>  <VSA_EState7>
1.89

>  <VSA_EState8>
3.41

>  <VSA_EState9>
0

>  <apol>
54.41

>  <bpol>
24.35

>  <nRing>
4

>  <nHRing>
3

>  <naRing>
4

>  <naHRing>
3

>  <nARing 2>
0

>  <nAHRing 2>
0

>  <nFRing>
1

>  <nFHRing>
1

>  <nFaRing>
1

>  <nFaHRing>
1

>  <nFARing 2>
0

>  <nFAHRing 2>
0

>  <nRot>
4

>  <SLogP>
3

>  <SMR>
104.42

>  <TopoPSA(NO)>
72.42

>  <TopoPSA>
72.42

>  <JGI1>
0.2

>  <JGI2>
0.07

>  <JGI3>
0.05

>  <JGI4>
0.05

>  <JGI5>
0.02

>  <Diameter>
11

>  <Radius>
6

>  <TMWC10>
134.31

>  <TSRW10>
76.86

>  <MW>
360.16

>  <AMW>
7.66

>  <WPath>
1731

>  <WPol>
43

>  <Zagreb1>
148

>  <Zagreb2>
175

>  <mZagreb2>
5.71

>  <yes>


>  <nAR-cont>
0.336376

>  <nHA-cont>
0.860070871

>  <MWHBN>
0.368850436

>  <MWHBN-cont>
0.598327331

>  <TPSA-cont>
0.49446343

>  <pka_cont>
0.97

>  <yes.1>


>  <BBB_SCORE>
3.567864728

>  <MMFF94 Energy>
107.49

$$$$
Compound 267
Actelion Java MolfileCreator 2.0

  0  0  0  0  0  0              0 V3000
M  V30 BEGIN CTAB
M  V30 COUNTS 27 27 0 0 0
M  V30 BEGIN ATOM
M  V30 1 O -2.9853 -1.8846 1.1776 0
M  V30 2 C -2.0013 -1.2964 0.7418 0
M  V30 3 N -1.4411 -1.6359 -0.447 0
M  V30 4 N -1.4211 -0.2768 1.4234 0
M  V30 5 C -0.3519 -1.0564 -1.0293 0
M  V30 6 C -0.3296 0.4452 1.0371 0
M  V30 7 O 0.0503 -1.4683 -2.1175 0
M  V30 8 C 0.313 0.0837 -0.2878 0
M  V30 9 O 0.091 1.3488 1.7606 0
M  V30 10 C 0.2867 1.342 -1.1934 0
M  V30 11 C 1.7903 -0.3004 -0.016 0
M  V30 12 C -1.0964 1.797 -1.5919 0
M  V30 13 C 1.9693 -1.552 0.8086 0
M  V30 14 C -1.7135 2.8597 -1.0609 0
M  V30 15 C 2.3228 -1.5498 2.0997 0
M  V30 16 H -1.8775 -2.3957 -0.9498 0
M  V30 17 H -1.8404 -0.0267 2.3076 0
M  V30 18 H 0.8121 2.1693 -0.6963 0
M  V30 19 H 0.8455 1.1523 -2.1196 0
M  V30 20 H 2.32 -0.4583 -0.9651 0
M  V30 21 H 2.3078 0.5353 0.4749 0
M  V30 22 H -1.5968 1.2376 -2.3815 0
M  V30 23 H 1.8306 -2.5065 0.3023 0
M  V30 24 H -1.2507 3.4609 -0.2825 0
M  V30 25 H -2.7021 3.1573 -1.3985 0
M  V30 26 H 2.4895 -0.625 2.6463 0
M  V30 27 H 2.4588 -2.4806 2.6426 0
M  V30 END ATOM
M  V30 BEGIN BOND
M  V30 1 2 1 2
M  V30 2 1 2 3
M  V30 3 1 2 4
M  V30 4 1 3 5
M  V30 5 1 4 6
M  V30 6 2 5 7
M  V30 7 1 5 8
M  V30 8 2 6 9
M  V30 9 1 8 10
M  V30 10 1 8 11
M  V30 11 1 10 12
M  V30 12 1 11 13
M  V30 13 2 12 14
M  V30 14 2 13 15
M  V30 15 1 6 8
M  V30 16 1 3 16
M  V30 17 1 4 17
M  V30 18 1 10 18
M  V30 19 1 10 19
M  V30 20 1 11 20
M  V30 21 1 11 21
M  V30 22 1 12 22
M  V30 23 1 13 23
M  V30 24 1 14 24
M  V30 25 1 14 25
M  V30 26 1 15 26
M  V30 27 1 15 27
M  V30 END BOND
M  V30 END CTAB
M  END
>  <Column 1>
341

>  <level_0>
386

>  <index>
386

>  <Unnamed: 0>
386

>  <NO.>
388

>  <Name>
allobarbital

>  <IUPAC_name>
5-5-bis(prop-2-enyl)-1-3-diazinane-2-4-6-trione

>  <SMILES>
C=CCC1(CC=C)C(=O)NC(=O)NC1=O

>  <CID>
5842

>  <logBB>
-0.22

>  <BBB+/BBB->
BBB+

>  <Inchi>
InChI=1S/C10H12N2O3/c1-3-5-10(6-4-2)7(13)11-9(15)12-8(10)14/h3-4H-1-2-5-6H2-(H2-11-12-13-14-15)

>  <threshold>


>  <reference>
R2|R2|R25|R27|R46|

>  <group>
A

>  <Class>
1

>  <ABC>
10.81

>  <ABCGG>
10.56

>  <nAcid>
0

>  <nBase>
0

>  <nAromAtom>
0

>  <nAromBond>
0

>  <nAtom>
27

>  <nHeavyAtom>
15

>  <nSpiro>
0

>  <nBridgehead>
0

>  <nHetero>
5

>  <nN>
2

>  <nO>
3

>  <nF>
0

>  <BalabanJ>
2.82

>  <BertzCT>
314.58

>  <nBonds>
27

>  <nBondsO>
15

>  <nBondsS>
22

>  <nBondsD>
5

>  <nBondsT>
0

>  <nBondsA>
0

>  <nBondsM>
5

>  <nBondsKS>
22

>  <nBondsKD>
5

>  <RNCG>
0.16

>  <RPCG>
0.19

>  <FCSP3>
0.3

>  <SZ>
18.33

>  <Sm>
17.34

>  <Sv>
16.91

>  <Sse>
27.65

>  <Sp>
17.55

>  <Si>
30.7

>  <MZ>
0.68

>  <Mm>
0.64

>  <Mv>
0.63

>  <Mse>
1.02

>  <Mp>
0.65

>  <Mi>
1.14

>  <NsCH3>
0

>  <NdCH2>
2

>  <NssCH2>
2

>  <NtCH>
0

>  <NdsCH>
2

>  <NaaCH>
0

>  <NsssCH>
0

>  <NddC>
0

>  <NtsC>
0

>  <NdssC>
3

>  <NaasC>
0

>  <NaaaC>
0

>  <NssssC>
1

>  <NsNH3>
0

>  <NsNH2>
0

>  <NssNH2>
0

>  <NdNH>
0

>  <NssNH>
2

>  <NaaNH>
0

>  <NtN>
0

>  <NsssNH>
0

>  <NdsN>
0

>  <NaaN>
0

>  <NsssN>
0

>  <NddsN>
0

>  <NaasN>
0

>  <NssssN>
0

>  <NsOH>
0

>  <NdO>
3

>  <NssO>
0

>  <NaaO>
0

>  <NsF>
0

>  <NsSiH3>
0

>  <NssSiH2>
0

>  <NsssSiH>
0

>  <NssssSi>
0

>  <NsPH2>
0

>  <NssPH>
0

>  <NsssP>
0

>  <NdsssP>
0

>  <NsssssP>
0

>  <NsSH>
0

>  <NdS>
0

>  <NssS>
0

>  <NaaS>
0

>  <NdssS>
0

>  <NddssS>
0

>  <NsCl>
0

>  <NsBr>
0

>  <NsI>
0

>  <fragCpx>
15.05

>  <fMF>
0.22

>  <nHBAcc>
3

>  <nHBDon>
2

>  <Kier1>
13.07

>  <Kier2>
5.37

>  <Lipinski>
1

>  <GhoseFilter>
1

>  <FilterItLogS>
-2.46

>  <VMcGowan>
156.97

>  <LabuteASA>
87.22

>  <PEOE_VSA1>
0

>  <PEOE_VSA2>
20.22

>  <PEOE_VSA3>
4.79

>  <PEOE_VSA4>
0

>  <PEOE_VSA5>
13.16

>  <PEOE_VSA6>
12.15

>  <PEOE_VSA7>
12.84

>  <PEOE_VSA8>
0

>  <PEOE_VSA9>
0

>  <PEOE_VSA10>
5.41

>  <PEOE_VSA11>
0

>  <PEOE_VSA12>
11.81

>  <PEOE_VSA13>
0

>  <SMR_VSA1>
14.38

>  <SMR_VSA2>
0

>  <SMR_VSA3>
10.63

>  <SMR_VSA4>
5.41

>  <SMR_VSA5>
12.84

>  <SMR_VSA6>
0

>  <SMR_VSA7>
25.31

>  <SMR_VSA8>
0

>  <SMR_VSA9>
0

>  <SlogP_VSA1>
10.63

>  <SlogP_VSA2>
17.85

>  <SlogP_VSA3>
9.59

>  <SlogP_VSA4>
5.41

>  <SlogP_VSA5>
12.84

>  <SlogP_VSA6>
25.31

>  <SlogP_VSA7>
0

>  <SlogP_VSA8>
0

>  <SlogP_VSA9>
0

>  <SlogP_VSA10>
4.79

>  <SlogP_VSA11>
0

>  <EState_VSA1>
23.26

>  <EState_VSA2>
12.84

>  <EState_VSA3>
0

>  <EState_VSA4>
0

>  <EState_VSA5>
12.15

>  <EState_VSA6>
0

>  <EState_VSA7>
0

>  <EState_VSA8>
23.79

>  <EState_VSA9>
0

>  <EState_VSA10>
14.38

>  <VSA_EState1>
0

>  <VSA_EState2>
34.12

>  <VSA_EState3>
4.13

>  <VSA_EState4>
-1.28

>  <VSA_EState5>
-1.2

>  <VSA_EState6>
-0.78

>  <VSA_EState7>
3.28

>  <VSA_EState8>
6.98

>  <VSA_EState9>
0

>  <apol>
29.31

>  <bpol>
15.78

>  <nRing>
1

>  <nHRing>
1

>  <naRing>
0

>  <naHRing>
0

>  <nARing 2>
1

>  <nAHRing 2>
1

>  <nFRing>
0

>  <nFHRing>
0

>  <nFaRing>
0

>  <nFaHRing>
0

>  <nFARing 2>
0

>  <nFAHRing 2>
0

>  <nRot>
4

>  <SLogP>
0.49

>  <SMR>
53.74

>  <TopoPSA(NO)>
75.27

>  <TopoPSA>
75.27

>  <JGI1>
0.3

>  <JGI2>
0.13

>  <JGI3>
0.07

>  <JGI4>
0.05

>  <JGI5>
0.02

>  <Diameter>
7

>  <Radius>
4

>  <TMWC10>
100.54

>  <TSRW10>
47.22

>  <MW>
208.08

>  <AMW>
7.71

>  <WPath>
338

>  <WPol>
25

>  <Zagreb1>
72

>  <Zagreb2>
85

>  <mZagreb2>
3.58

>  <yes>


>  <nAR-cont>
0.816016

>  <nHA-cont>
0.92539861

>  <MWHBN>
0.346620971

>  <MWHBN-cont>
0.682830424

>  <TPSA-cont>
0.47456866

>  <pka_cont>
0.97

>  <yes.1>


>  <BBB_SCORE>
4.199797566

>  <MMFF94 Energy>
-114.91

$$$$
Compound 268
Actelion Java MolfileCreator 2.0

  0  0  0  0  0  0              0 V3000
M  V30 BEGIN CTAB
M  V30 COUNTS 41 42 0 0 0
M  V30 BEGIN ATOM
M  V30 1 Cl -3.7387 2.226 2.8627 0
M  V30 2 C -2.0193 2.1116 2.6995 0
M  V30 3 C -1.1761 3.0575 3.3137 0
M  V30 4 C -1.4988 1.0579 1.9453 0
M  V30 5 N -1.6768 4.1379 4.0285 0
M  V30 6 C 0.2055 2.928 3.138 0
M  V30 7 C -0.114 0.938 1.7891 0
M  V30 8 C 0.7367 1.8625 2.4019 0
M  V30 9 C 0.4228 -0.193 0.9978 0
M  V30 10 O 2.0908 1.8167 2.2021 0
M  V30 11 O 1.2776 -0.9317 1.4674 0
M  V30 12 N -0.1303 -0.3336 -0.2565 0
M  V30 13 C 2.7444 1.2441 3.3365 0
M  V30 14 C 0.3405 -1.329 -1.2242 0
M  V30 15 C -0.3324 -1.1014 -2.6005 0
M  V30 16 C 0.0757 -2.7649 -0.754 0
M  V30 17 O 0.0121 0.2201 -3.0482 0
M  V30 18 C 0.1307 -2.194 -3.5835 0
M  V30 19 C 0.5348 -3.7732 -1.8033 0
M  V30 20 C -0.7441 0.6615 -4.1673 0
M  V30 21 N -0.1169 -3.5551 -3.0959 0
M  V30 22 H -2.1662 0.3277 1.4959 0
M  V30 23 H -1.0652 4.77 4.5257 0
M  V30 24 H -2.6761 4.198 4.1906 0
M  V30 25 H 0.8809 3.6655 3.5634 0
M  V30 26 H -0.6814 0.432 -0.6269 0
M  V30 27 H 2.7703 1.9602 4.1648 0
M  V30 28 H 3.7759 1.0186 3.0503 0
M  V30 29 H 2.2686 0.3116 3.66 0
M  V30 30 H 1.4229 -1.1674 -1.3172 0
M  V30 31 H -1.423 -1.1512 -2.4733 0
M  V30 32 H 0.5988 -2.9731 0.1852 0
M  V30 33 H -0.9944 -2.8996 -0.5476 0
M  V30 34 H 1.1955 -2.0644 -3.8159 0
M  V30 35 H -0.3896 -2.0801 -4.5404 0
M  V30 36 H 1.6238 -3.7267 -1.9252 0
M  V30 37 H 0.3026 -4.7873 -1.4598 0
M  V30 38 H -0.5086 1.715 -4.3422 0
M  V30 39 H -1.8171 0.5745 -3.9714 0
M  V30 40 H -0.4741 0.1007 -5.0655 0
M  V30 41 H -1.1212 -3.7043 -2.993 0
M  V30 END ATOM
M  V30 BEGIN BOND
M  V30 1 1 1 2
M  V30 2 2 2 3
M  V30 3 1 2 4
M  V30 4 1 3 5
M  V30 5 1 3 6
M  V30 6 2 4 7
M  V30 7 2 6 8
M  V30 8 1 7 9
M  V30 9 1 8 10
M  V30 10 2 9 11
M  V30 11 1 9 12
M  V30 12 1 10 13
M  V30 13 1 12 14
M  V30 14 1 14 15
M  V30 15 1 14 16
M  V30 16 1 15 17
M  V30 17 1 15 18
M  V30 18 1 16 19
M  V30 19 1 17 20
M  V30 20 1 18 21
M  V30 21 1 7 8
M  V30 22 1 19 21
M  V30 23 1 4 22
M  V30 24 1 5 23
M  V30 25 1 5 24
M  V30 26 1 6 25
M  V30 27 1 12 26
M  V30 28 1 13 27
M  V30 29 1 13 28
M  V30 30 1 13 29
M  V30 31 1 14 30
M  V30 32 1 15 31
M  V30 33 1 16 32
M  V30 34 1 16 33
M  V30 35 1 18 34
M  V30 36 1 18 35
M  V30 37 1 19 36
M  V30 38 1 19 37
M  V30 39 1 20 38
M  V30 40 1 20 39
M  V30 41 1 20 40
M  V30 42 1 21 41
M  V30 END BOND
M  V30 END CTAB
M  END
>  <Column 1>
343

>  <level_0>
388

>  <index>
388

>  <Unnamed: 0>
388

>  <NO.>
390

>  <Name>
ticalopride

>  <IUPAC_name>
4-amino-5-chloro-2-methoxy-n-(3-methoxypiperidin-4-yl)benzamide

>  <SMILES>
COc1cc(N)c(Cl)cc1C(=O)NC1CCNCC1OC

>  <CID>
3019427

>  <logBB>
-0.22

>  <BBB+/BBB->
BBB+

>  <Inchi>
InChI=1S/C14H20ClN3O3/c1-20-12-6-10(16)9(15)5-8(12)14(19)18-11-3-4-17-7-13(11)21-2/h5-6-11-13-17H-3-4-7-16H2-1-2H3-(H-18-19)

>  <threshold>


>  <reference>
R2|R2|R25|R27|R46|

>  <group>
A

>  <Class>
1

>  <ABC>
15.72

>  <ABCGG>
13.77

>  <nAcid>
0

>  <nBase>
1

>  <nAromAtom>
6

>  <nAromBond>
6

>  <nAtom>
41

>  <nHeavyAtom>
21

>  <nSpiro>
0

>  <nBridgehead>
0

>  <nHetero>
7

>  <nN>
3

>  <nO>
3

>  <nF>
0

>  <BalabanJ>
1.95

>  <BertzCT>
524.43

>  <nBonds>
42

>  <nBondsO>
22

>  <nBondsS>
35

>  <nBondsD>
1

>  <nBondsT>
0

>  <nBondsA>
6

>  <nBondsM>
7

>  <nBondsKS>
38

>  <nBondsKD>
4

>  <RNCG>
0.21

>  <RPCG>
0.11

>  <FCSP3>
0.5

>  <SZ>
27.67

>  <Sm>
26.12

>  <Sv>
24.93

>  <Sse>
41.63

>  <Sp>
26.71

>  <Si>
46.8

>  <MZ>
0.67

>  <Mm>
0.64

>  <Mv>
0.61

>  <Mse>
1.02

>  <Mp>
0.65

>  <Mi>
1.14

>  <NsCH3>
2

>  <NdCH2>
0

>  <NssCH2>
3

>  <NtCH>
0

>  <NdsCH>
0

>  <NaaCH>
2

>  <NsssCH>
2

>  <NddC>
0

>  <NtsC>
0

>  <NdssC>
1

>  <NaasC>
4

>  <NaaaC>
0

>  <NssssC>
0

>  <NsNH3>
0

>  <NsNH2>
1

>  <NssNH2>
0

>  <NdNH>
0

>  <NssNH>
2

>  <NaaNH>
0

>  <NtN>
0

>  <NsssNH>
0

>  <NdsN>
0

>  <NaaN>
0

>  <NsssN>
0

>  <NddsN>
0

>  <NaasN>
0

>  <NssssN>
0

>  <NsOH>
0

>  <NdO>
1

>  <NssO>
2

>  <NaaO>
0

>  <NsF>
0

>  <NsSiH3>
0

>  <NssSiH2>
0

>  <NsssSiH>
0

>  <NssssSi>
0

>  <NsPH2>
0

>  <NssPH>
0

>  <NsssP>
0

>  <NdsssP>
0

>  <NsssssP>
0

>  <NsSH>
0

>  <NdS>
0

>  <NssS>
0

>  <NaaS>
0

>  <NdssS>
0

>  <NddssS>
0

>  <NsCl>
1

>  <NsBr>
0

>  <NsI>
0

>  <fragCpx>
64.07

>  <fMF>
0.34

>  <nHBAcc>
5

>  <nHBDon>
3

>  <Kier1>
17.36

>  <Kier2>
8.02

>  <Lipinski>
1

>  <GhoseFilter>
1

>  <FilterItLogS>
-3.57

>  <VMcGowan>
228.99

>  <LabuteASA>
128.48

>  <PEOE_VSA1>
25.84

>  <PEOE_VSA2>
4.79

>  <PEOE_VSA3>
0

>  <PEOE_VSA4>
0

>  <PEOE_VSA5>
0

>  <PEOE_VSA6>
11.6

>  <PEOE_VSA7>
19.03

>  <PEOE_VSA8>
19.72

>  <PEOE_VSA9>
35.53

>  <PEOE_VSA10>
5.75

>  <PEOE_VSA11>
0

>  <PEOE_VSA12>
0

>  <PEOE_VSA13>
5.91

>  <SMR_VSA1>
14.27

>  <SMR_VSA2>
0

>  <SMR_VSA3>
10.63

>  <SMR_VSA4>
0

>  <SMR_VSA5>
18.57

>  <SMR_VSA6>
33.04

>  <SMR_VSA7>
22.72

>  <SMR_VSA8>
0

>  <SMR_VSA9>
5.75

>  <SlogP_VSA1>
21.1

>  <SlogP_VSA2>
45.36

>  <SlogP_VSA3>
4.74

>  <SlogP_VSA4>
0

>  <SlogP_VSA5>
16.78

>  <SlogP_VSA6>
12.13

>  <SlogP_VSA7>
5.02

>  <SlogP_VSA8>
0

>  <SlogP_VSA9>
0

>  <SlogP_VSA10>
5.69

>  <SlogP_VSA11>
5.75

>  <EState_VSA1>
0

>  <EState_VSA2>
18.05

>  <EState_VSA3>
28.57

>  <EState_VSA4>
12.97

>  <EState_VSA5>
13.18

>  <EState_VSA6>
13.18

>  <EState_VSA7>
0

>  <EState_VSA8>
10.63

>  <EState_VSA9>
26.81

>  <EState_VSA10>
4.79

>  <VSA_EState1>
10.59

>  <VSA_EState2>
12.45

>  <VSA_EState3>
6.53

>  <VSA_EState4>
6.46

>  <VSA_EState5>
0.15

>  <VSA_EState6>
3.02

>  <VSA_EState7>
0.74

>  <VSA_EState8>
1.55

>  <VSA_EState9>
3.12

>  <apol>
44.6

>  <bpol>
25.48

>  <nRing>
2

>  <nHRing>
1

>  <naRing>
1

>  <naHRing>
0

>  <nARing 2>
1

>  <nAHRing 2>
1

>  <nFRing>
0

>  <nFHRing>
0

>  <nFaRing>
0

>  <nFaHRing>
0

>  <nFARing 2>
0

>  <nFAHRing 2>
0

>  <nRot>
4

>  <SLogP>
1.04

>  <SMR>
81.95

>  <TopoPSA(NO)>
85.61

>  <TopoPSA>
85.61

>  <JGI1>
0.2

>  <JGI2>
0.1

>  <JGI3>
0.05

>  <JGI4>
0.05

>  <JGI5>
0.03

>  <Diameter>
10

>  <Radius>
5

>  <TMWC10>
115.81

>  <TSRW10>
54.62

>  <MW>
313.12

>  <AMW>
7.64

>  <WPath>
936

>  <WPol>
33

>  <Zagreb1>
104

>  <Zagreb2>
121

>  <mZagreb2>
4.86

>  <yes>


>  <nAR-cont>
0.816016

>  <nHA-cont>
0.994529749

>  <MWHBN>
0.452100079

>  <MWHBN-cont>
0

>  <TPSA-cont>
0.402389039

>  <pka_cont>
0.97

>  <yes.1>


>  <BBB_SCORE>
3.100323828

>  <MMFF94 Energy>
71.723

$$$$
Compound 269
Actelion Java MolfileCreator 2.0

  0  0  0  0  0  0              0 V3000
M  V30 BEGIN CTAB
M  V30 COUNTS 57 60 0 0 0
M  V30 BEGIN ATOM
M  V30 1 O -1.8282 4.2167 4.0573 0
M  V30 2 C -1.3347 4.2488 2.9408 0
M  V30 3 N -0.8853 3.1879 2.1456 0
M  V30 4 C -1.1648 5.5175 2.1375 0
M  V30 5 C -0.9049 1.8199 2.5011 0
M  V30 6 C -0.4445 3.6502 0.8518 0
M  V30 7 C -0.1538 5.1198 1.0758 0
M  V30 8 C -1.0038 0.8327 1.5101 0
M  V30 9 C -0.8028 1.4161 3.8356 0
M  V30 10 C -0.9847 -0.5407 1.8289 0
M  V30 11 C -0.7854 0.0592 4.1707 0
M  V30 12 C -0.8509 -0.9097 3.1701 0
M  V30 13 C -1.0835 -1.5567 0.7154 0
M  V30 14 O -0.8495 -2.2314 3.5294 0
M  V30 15 N 0.1708 -1.6092 -0.0434 0
M  V30 16 C 0.493 -2.6833 3.7154 0
M  V30 17 C 0.0305 -2.3511 -1.3129 0
M  V30 18 C 1.1057 -1.9014 -2.3724 0
M  V30 19 C 0.1645 -3.8594 -1.0498 0
M  V30 20 N 1.0484 -2.7004 -3.6107 0
M  V30 21 C 0.9899 -0.4154 -2.7138 0
M  V30 22 C 0.1494 -4.642 -2.3605 0
M  V30 23 C 1.2101 -4.1256 -3.3283 0
M  V30 24 C 2.0955 0.4299 -2.5252 0
M  V30 25 C -0.2036 0.1448 -3.1999 0
M  V30 26 C 2.0055 1.7966 -2.7979 0
M  V30 27 C -0.2917 1.5121 -3.4721 0
M  V30 28 C 0.8115 2.3376 -3.2686 0
M  V30 29 H -2.1292 5.7866 1.6953 0
M  V30 30 H -0.7977 6.3335 2.7647 0
M  V30 31 H -1.2605 3.5173 0.1323 0
M  V30 32 H 0.447 3.1126 0.5138 0
M  V30 33 H 0.8621 5.2432 1.4713 0
M  V30 34 H -0.2356 5.7146 0.1619 0
M  V30 35 H -1.1084 1.116 0.4656 0
M  V30 36 H -0.7272 2.1455 4.638 0
M  V30 37 H -0.7192 -0.2364 5.214 0
M  V30 38 H -1.9213 -1.2591 0.0711 0
M  V30 39 H -1.3308 -2.5467 1.112 0
M  V30 40 H 0.4488 -0.65 -0.2545 0
M  V30 41 H 1.1021 -2.5155 2.8203 0
M  V30 42 H 0.4593 -3.7605 3.904 0
M  V30 43 H 0.9531 -2.2018 4.5851 0
M  V30 44 H -0.9627 -2.1622 -1.7425 0
M  V30 45 H 2.0978 -2.0625 -1.9258 0
M  V30 46 H -0.6507 -4.2174 -0.4106 0
M  V30 47 H 1.1025 -4.0673 -0.5181 0
M  V30 48 H 0.15 -2.5449 -4.0641 0
M  V30 49 H -0.843 -4.5649 -2.8222 0
M  V30 50 H 0.3244 -5.7043 -2.1554 0
M  V30 51 H 1.1422 -4.6803 -4.2706 0
M  V30 52 H 2.2139 -4.3135 -2.9284 0
M  V30 53 H 3.039 0.0251 -2.1641 0
M  V30 54 H -1.076 -0.4792 -3.3759 0
M  V30 55 H 2.8726 2.4355 -2.651 0
M  V30 56 H -1.2199 1.9302 -3.8534 0
M  V30 57 H 0.7459 3.3993 -3.4913 0
M  V30 END ATOM
M  V30 BEGIN BOND
M  V30 1 2 1 2
M  V30 2 1 2 3
M  V30 3 1 2 4
M  V30 4 1 3 5
M  V30 5 1 3 6
M  V30 6 1 4 7
M  V30 7 2 5 8
M  V30 8 1 5 9
M  V30 9 1 8 10
M  V30 10 2 9 11
M  V30 11 2 10 12
M  V30 12 1 10 13
M  V30 13 1 12 14
M  V30 14 1 13 15
M  V30 15 1 14 16
M  V30 16 1 15 17
M  V30 17 1 17 18
M  V30 18 1 17 19
M  V30 19 1 18 20
M  V30 20 1 18 21
M  V30 21 1 19 22
M  V30 22 1 20 23
M  V30 23 2 21 24
M  V30 24 1 21 25
M  V30 25 1 24 26
M  V30 26 2 25 27
M  V30 27 2 26 28
M  V30 28 1 6 7
M  V30 29 1 11 12
M  V30 30 1 22 23
M  V30 31 1 27 28
M  V30 32 1 4 29
M  V30 33 1 4 30
M  V30 34 1 6 31
M  V30 35 1 6 32
M  V30 36 1 7 33
M  V30 37 1 7 34
M  V30 38 1 8 35
M  V30 39 1 9 36
M  V30 40 1 11 37
M  V30 41 1 13 38
M  V30 42 1 13 39
M  V30 43 1 15 40
M  V30 44 1 16 41
M  V30 45 1 16 42
M  V30 46 1 16 43
M  V30 47 1 17 44
M  V30 48 1 18 45
M  V30 49 1 19 46
M  V30 50 1 19 47
M  V30 51 1 20 48
M  V30 52 1 22 49
M  V30 53 1 22 50
M  V30 54 1 23 51
M  V30 55 1 23 52
M  V30 56 1 24 53
M  V30 57 1 25 54
M  V30 58 1 26 55
M  V30 59 1 27 56
M  V30 60 1 28 57
M  V30 END BOND
M  V30 END CTAB
M  END
>  <Column 1>
344

>  <level_0>
390

>  <index>
390

>  <Unnamed: 0>
390

>  <NO.>
392

>  <Name>
pfizer compound 16

>  <IUPAC_name>
1-[4-methoxy-3-[[(2-phenylpiperidin-3-yl)amino]methyl]phenyl]pyrrolidin-2-one

>  <SMILES>
COc1ccc(N2CCCC2=O)cc1CNC1CCCNC1c1ccccc1

>  <CID>
22620062

>  <logBB>
-0.22

>  <BBB+/BBB->
BBB+

>  <Inchi>
InChI=1S/C23H29N3O2/c1-28-21-12-11-19(26-14-6-10-22(26)27)15-18(21)16-25-20-9-5-13-24-23(20)17-7-3-2-4-8-17/h2-4-7-8-11-12-15-20-23-25H-5-6-9-10-13-14-16H2-1H3

>  <threshold>


>  <reference>
R2|R2|R8|R25|R27|R46|R4|R40|

>  <group>
A

>  <Class>
1

>  <ABC>
21.83

>  <ABCGG>
17.25

>  <nAcid>
0

>  <nBase>
2

>  <nAromAtom>
12

>  <nAromBond>
12

>  <nAtom>
57

>  <nHeavyAtom>
28

>  <nSpiro>
0

>  <nBridgehead>
0

>  <nHetero>
5

>  <nN>
3

>  <nO>
2

>  <nF>
0

>  <BalabanJ>
1.34

>  <BertzCT>
808.75

>  <nBonds>
60

>  <nBondsO>
31

>  <nBondsS>
47

>  <nBondsD>
1

>  <nBondsT>
0

>  <nBondsA>
12

>  <nBondsM>
13

>  <nBondsKS>
53

>  <nBondsKD>
7

>  <RNCG>
0.22

>  <RPCG>
0.1

>  <FCSP3>
0.43

>  <SZ>
34

>  <Sm>
31.6

>  <Sv>
34.56

>  <Sse>
56.52

>  <Sp>
37.52

>  <Si>
64.31

>  <MZ>
0.6

>  <Mm>
0.55

>  <Mv>
0.61

>  <Mse>
0.99

>  <Mp>
0.66

>  <Mi>
1.13

>  <NsCH3>
1

>  <NdCH2>
0

>  <NssCH2>
7

>  <NtCH>
0

>  <NdsCH>
0

>  <NaaCH>
8

>  <NsssCH>
2

>  <NddC>
0

>  <NtsC>
0

>  <NdssC>
1

>  <NaasC>
4

>  <NaaaC>
0

>  <NssssC>
0

>  <NsNH3>
0

>  <NsNH2>
0

>  <NssNH2>
0

>  <NdNH>
0

>  <NssNH>
2

>  <NaaNH>
0

>  <NtN>
0

>  <NsssNH>
0

>  <NdsN>
0

>  <NaaN>
0

>  <NsssN>
1

>  <NddsN>
0

>  <NaasN>
0

>  <NssssN>
0

>  <NsOH>
0

>  <NdO>
1

>  <NssO>
1

>  <NaaO>
0

>  <NsF>
0

>  <NsSiH3>
0

>  <NssSiH2>
0

>  <NsssSiH>
0

>  <NssssSi>
0

>  <NsPH2>
0

>  <NssPH>
0

>  <NsssP>
0

>  <NdsssP>
0

>  <NsssssP>
0

>  <NsSH>
0

>  <NdS>
0

>  <NssS>
0

>  <NaaS>
0

>  <NdssS>
0

>  <NddssS>
0

>  <NsCl>
0

>  <NsBr>
0

>  <NsI>
0

>  <fragCpx>
205.05

>  <fMF>
0.44

>  <nHBAcc>
4

>  <nHBDon>
2

>  <Kier1>
21.24

>  <Kier2>
10.35

>  <Lipinski>
1

>  <GhoseFilter>
1

>  <FilterItLogS>
-5.54

>  <VMcGowan>
303.07

>  <LabuteASA>
166.63

>  <PEOE_VSA1>
20.27

>  <PEOE_VSA2>
4.79

>  <PEOE_VSA3>
0

>  <PEOE_VSA4>
0

>  <PEOE_VSA5>
0

>  <PEOE_VSA6>
30.33

>  <PEOE_VSA7>
49.57

>  <PEOE_VSA8>
42.84

>  <PEOE_VSA9>
7.11

>  <PEOE_VSA10>
5.75

>  <PEOE_VSA11>
0

>  <PEOE_VSA12>
5.91

>  <PEOE_VSA13>
0

>  <SMR_VSA1>
9.53

>  <SMR_VSA2>
0

>  <SMR_VSA3>
10.63

>  <SMR_VSA4>
0

>  <SMR_VSA5>
44.31

>  <SMR_VSA6>
25.1

>  <SMR_VSA7>
59.66

>  <SMR_VSA8>
0

>  <SMR_VSA9>
5.75

>  <SlogP_VSA1>
20.27

>  <SlogP_VSA2>
32.15

>  <SlogP_VSA3>
11.34

>  <SlogP_VSA4>
0

>  <SlogP_VSA5>
42.85

>  <SlogP_VSA6>
48.53

>  <SlogP_VSA7>
0

>  <SlogP_VSA8>
0

>  <SlogP_VSA9>
0

>  <SlogP_VSA10>
5.69

>  <SlogP_VSA11>
5.75

>  <EState_VSA1>
0

>  <EState_VSA2>
5.91

>  <EState_VSA3>
25.05

>  <EState_VSA4>
42.93

>  <EState_VSA5>
11.98

>  <EState_VSA6>
7.11

>  <EState_VSA7>
17.03

>  <EState_VSA8>
47.03

>  <EState_VSA9>
4.74

>  <EState_VSA10>
4.79

>  <VSA_EState1>
5.58

>  <VSA_EState2>
14

>  <VSA_EState3>
7.41

>  <VSA_EState4>
3.39

>  <VSA_EState5>
1.08

>  <VSA_EState6>
17.38

>  <VSA_EState7>
3.89

>  <VSA_EState8>
2.57

>  <VSA_EState9>
1.7

>  <apol>
62.65

>  <bpol>
34.55

>  <nRing>
4

>  <nHRing>
2

>  <naRing>
2

>  <naHRing>
0

>  <nARing 2>
2

>  <nAHRing 2>
2

>  <nFRing>
0

>  <nFHRing>
0

>  <nFaRing>
0

>  <nFaHRing>
0

>  <nFARing 2>
0

>  <nFAHRing 2>
0

>  <nRot>
6

>  <SLogP>
3.4

>  <SMR>
111.63

>  <TopoPSA(NO)>
53.6

>  <TopoPSA>
53.6

>  <JGI1>
0.13

>  <JGI2>
0.08

>  <JGI3>
0.04

>  <JGI4>
0.03

>  <JGI5>
0.02

>  <Diameter>
13

>  <Radius>
7

>  <TMWC10>
135.1

>  <TSRW10>
76.81

>  <MW>
379.23

>  <AMW>
6.65

>  <WPath>
2131

>  <WPol>
43

>  <Zagreb1>
146

>  <Zagreb2>
172

>  <mZagreb2>
6.31

>  <yes>


>  <nAR-cont>
1

>  <nHA-cont>
0.82432561

>  <MWHBN>
0.308105824

>  <MWHBN-cont>
0.815864159

>  <TPSA-cont>
0.625838716

>  <pka_cont>
0.97

>  <yes.1>


>  <BBB_SCORE>
4.784799282

>  <MMFF94 Energy>
63.27

$$$$
Compound 270
Actelion Java MolfileCreator 2.0

  0  0  0  0  0  0              0 V3000
M  V30 BEGIN CTAB
M  V30 COUNTS 56 59 0 0 0
M  V30 BEGIN ATOM
M  V30 1 O 0.7246 -6.3748 1.3692 0
M  V30 2 C 0.2619 -5.2468 1.219 0
M  V30 3 C 0.7571 -4.1361 2.0641 0
M  V30 4 C -0.8635 -4.9562 0.2618 0
M  V30 5 C 0.322 -2.8743 1.8974 0
M  V30 6 C -0.7172 -3.5541 -0.3108 0
M  V30 7 C -0.6313 -2.4388 0.7736 0 CFG=2
M  V30 8 C 0.7363 -1.8021 2.8753 0
M  V30 9 C -0.0594 -1.1314 0.0895 0 CFG=1
M  V30 10 C -2.027 -2.2502 1.41 0
M  V30 11 C 1.2968 -0.5774 2.1681 0
M  V30 12 C -0.9016 -0.5741 -1.0958 0 CFG=1
M  V30 13 C 0.3185 -0.0211 1.1204 0 CFG=1
M  V30 14 O -2.2417 -0.3216 -0.6987 0
M  V30 15 C -0.3097 0.7071 -1.7232 0
M  V30 16 C 0.9544 1.1571 0.3664 0 CFG=1
M  V30 17 C 0.0249 1.8044 -0.6882 0 CFG=1
M  V30 18 C 1.4625 2.3443 1.1742 0
M  V30 19 C 0.9503 2.9668 -1.1786 0 CFG=1
M  V30 20 C -1.2741 2.3955 -0.0776 0
M  V30 21 C 1.6184 3.4707 0.1359 0
M  V30 22 O 1.9821 2.4464 -2.0253 0
M  V30 23 C 0.2172 4.0981 -1.9317 0
M  V30 24 O -0.1187 5.1572 -1.3913 0
M  V30 25 C -0.0754 3.883 -3.413 0
M  V30 26 O -0.9593 4.8767 -3.9179 0
M  V30 27 H 1.4374 -4.4256 2.8576 0
M  V30 28 H -0.8221 -5.6848 -0.5552 0
M  V30 29 H -1.8155 -5.0845 0.7865 0
M  V30 30 H -1.5557 -3.3656 -0.9922 0
M  V30 31 H 0.1925 -3.5356 -0.9271 0
M  V30 32 H 1.4882 -2.177 3.5807 0
M  V30 33 H -0.1327 -1.5125 3.4789 0
M  V30 34 H 0.8981 -1.4311 -0.369 0
M  V30 35 H -2.8208 -2.2277 0.657 0
M  V30 36 H -2.2746 -3.076 2.0885 0
M  V30 37 H -2.0947 -1.3281 1.9956 0
M  V30 38 H 2.2511 -0.8366 1.6909 0
M  V30 39 H 1.5179 0.1888 2.9205 0
M  V30 40 H -0.9487 -1.3329 -1.885 0
M  V30 41 H -0.5787 0.3179 1.6484 0
M  V30 42 H -2.7486 -0.0742 -1.4918 0
M  V30 43 H -1.0172 1.1005 -2.4608 0
M  V30 44 H 0.5954 0.4191 -2.2714 0
M  V30 45 H 1.8358 0.7461 -0.1531 0
M  V30 46 H 0.7475 2.636 1.9519 0
M  V30 47 H 2.4165 2.1294 1.6667 0
M  V30 48 H -1.0806 3.2659 0.558 0
M  V30 49 H -1.8209 1.6844 0.5442 0
M  V30 50 H -1.9568 2.7236 -0.8699 0
M  V30 51 H 1.1534 4.3792 0.5333 0
M  V30 52 H 2.6816 3.692 -0.0118 0
M  V30 53 H 2.709 3.095 -2.0577 0
M  V30 54 H 0.8615 3.9417 -3.9728 0
M  V30 55 H -0.5421 2.9124 -3.5747 0
M  V30 56 H -0.8838 5.6434 -3.3135 0
M  V30 END ATOM
M  V30 BEGIN BOND
M  V30 1 2 1 2
M  V30 2 1 2 3
M  V30 3 1 2 4
M  V30 4 2 3 5
M  V30 5 1 4 6
M  V30 6 1 5 7
M  V30 7 1 5 8
M  V30 8 1 7 9
M  V30 9 1 7 10
M  V30 10 1 8 11
M  V30 11 1 9 12
M  V30 12 1 9 13
M  V30 13 1 12 14
M  V30 14 1 12 15
M  V30 15 1 13 16
M  V30 16 1 15 17
M  V30 17 1 16 18
M  V30 18 1 17 19
M  V30 19 1 17 20
M  V30 20 1 18 21
M  V30 21 1 19 22
M  V30 22 1 19 23
M  V30 23 2 23 24
M  V30 24 1 23 25
M  V30 25 1 25 26
M  V30 26 1 6 7
M  V30 27 1 11 13
M  V30 28 1 16 17
M  V30 29 1 19 21
M  V30 30 1 3 27
M  V30 31 1 4 28
M  V30 32 1 4 29
M  V30 33 1 6 30
M  V30 34 1 6 31
M  V30 35 1 8 32
M  V30 36 1 8 33
M  V30 37 1 9 34
M  V30 38 1 10 35
M  V30 39 1 10 36
M  V30 40 1 10 37
M  V30 41 1 11 38
M  V30 42 1 11 39
M  V30 43 1 12 40
M  V30 44 1 13 41
M  V30 45 1 14 42
M  V30 46 1 15 43
M  V30 47 1 15 44
M  V30 48 1 16 45
M  V30 49 1 18 46
M  V30 50 1 18 47
M  V30 51 1 20 48
M  V30 52 1 20 49
M  V30 53 1 20 50
M  V30 54 1 21 51
M  V30 55 1 21 52
M  V30 56 1 22 53
M  V30 57 1 25 54
M  V30 58 1 25 55
M  V30 59 1 26 56
M  V30 END BOND
M  V30 BEGIN COLLECTION
M  V30 MDLV30/STEABS ATOMS=(7 7 9 12 13 16 17 19)
M  V30 END COLLECTION
M  V30 END CTAB
M  END
>  <Column 1>
345

>  <level_0>
391

>  <index>
391

>  <Unnamed: 0>
391

>  <NO.>
393

>  <Name>
cortisol

>  <IUPAC_name>
(8s-9s-10r-11s-13s-14s-17r)-11-17-dihydroxy-17-(2-hydroxyacetyl)-10-13-dimethyl-2-6-7-8-9-11-12-14-15-16-decahydro-1h-cyclopenta[a]phenanthren-3-one

>  <SMILES>
C[C@]12C[C@H](O)[C@H]3[C@@H](CCC4=CC(=O)CC[C@@]43C)[C@@H]1CC[C@]2(O)C(=O)CO

>  <CID>
5754

>  <logBB>
-0.22

>  <BBB+/BBB->
BBB+

>  <Inchi>
InChI=1S/C21H30O5/c1-19-7-5-13(23)9-12(19)3-4-14-15-6-8-21(26-17(25)11-22)20(15-2)10-16(24)18(14)19/h9-14-16-18-22-24-26H-3-8-10-11H2-1-2H3/t14--15--16--18+-19--20--21-/m0/s1

>  <threshold>


>  <reference>
R20|

>  <group>
A

>  <Class>
1

>  <ABC>
20.85

>  <ABCGG>
17.26

>  <nAcid>
0

>  <nBase>
0

>  <nAromAtom>
0

>  <nAromBond>
0

>  <nAtom>
56

>  <nHeavyAtom>
26

>  <nSpiro>
0

>  <nBridgehead>
0

>  <nHetero>
5

>  <nN>
0

>  <nO>
5

>  <nF>
0

>  <BalabanJ>
1.68

>  <BertzCT>
683.89

>  <nBonds>
59

>  <nBondsO>
29

>  <nBondsS>
56

>  <nBondsD>
3

>  <nBondsT>
0

>  <nBondsA>
0

>  <nBondsM>
3

>  <nBondsKS>
56

>  <nBondsKD>
3

>  <RNCG>
0.18

>  <RPCG>
0.1

>  <FCSP3>
0.81

>  <SZ>
32.67

>  <Sm>
30.18

>  <Sv>
32.7

>  <Sse>
55.97

>  <Sp>
35.38

>  <Si>
63.28

>  <MZ>
0.58

>  <Mm>
0.54

>  <Mv>
0.58

>  <Mse>
1

>  <Mp>
0.63

>  <Mi>
1.13

>  <NsCH3>
2

>  <NdCH2>
0

>  <NssCH2>
8

>  <NtCH>
0

>  <NdsCH>
1

>  <NaaCH>
0

>  <NsssCH>
4

>  <NddC>
0

>  <NtsC>
0

>  <NdssC>
3

>  <NaasC>
0

>  <NaaaC>
0

>  <NssssC>
3

>  <NsNH3>
0

>  <NsNH2>
0

>  <NssNH2>
0

>  <NdNH>
0

>  <NssNH>
0

>  <NaaNH>
0

>  <NtN>
0

>  <NsssNH>
0

>  <NdsN>
0

>  <NaaN>
0

>  <NsssN>
0

>  <NddsN>
0

>  <NaasN>
0

>  <NssssN>
0

>  <NsOH>
3

>  <NdO>
2

>  <NssO>
0

>  <NaaO>
0

>  <NsF>
0

>  <NsSiH3>
0

>  <NssSiH2>
0

>  <NsssSiH>
0

>  <NssssSi>
0

>  <NsPH2>
0

>  <NssPH>
0

>  <NsssP>
0

>  <NdsssP>
0

>  <NsssssP>
0

>  <NsSH>
0

>  <NdS>
0

>  <NssS>
0

>  <NaaS>
0

>  <NdssS>
0

>  <NddssS>
0

>  <NsCl>
0

>  <NsBr>
0

>  <NsI>
0

>  <fragCpx>
191.05

>  <fMF>
0.3

>  <nHBAcc>
5

>  <nHBDon>
3

>  <Kier1>
19.32

>  <Kier2>
6.25

>  <Lipinski>
1

>  <GhoseFilter>
1

>  <FilterItLogS>
-2.63

>  <VMcGowan>
279.76

>  <LabuteASA>
154.03

>  <PEOE_VSA1>
15.32

>  <PEOE_VSA2>
9.59

>  <PEOE_VSA3>
0

>  <PEOE_VSA4>
0

>  <PEOE_VSA5>
0

>  <PEOE_VSA6>
19.42

>  <PEOE_VSA7>
67.77

>  <PEOE_VSA8>
11.84

>  <PEOE_VSA9>
6.1

>  <PEOE_VSA10>
12.21

>  <PEOE_VSA11>
11.57

>  <PEOE_VSA12>
0

>  <PEOE_VSA13>
0

>  <SMR_VSA1>
24.91

>  <SMR_VSA2>
0

>  <SMR_VSA3>
0

>  <SMR_VSA4>
28.58

>  <SMR_VSA5>
70.5

>  <SMR_VSA6>
6.61

>  <SMR_VSA7>
11.65

>  <SMR_VSA8>
0

>  <SMR_VSA9>
0

>  <SlogP_VSA1>
0

>  <SlogP_VSA2>
45.2

>  <SlogP_VSA3>
9.59

>  <SlogP_VSA4>
28.58

>  <SlogP_VSA5>
58.79

>  <SlogP_VSA6>
11.65

>  <SlogP_VSA7>
0

>  <SlogP_VSA8>
0

>  <SlogP_VSA9>
0

>  <SlogP_VSA10>
0

>  <SlogP_VSA11>
0

>  <EState_VSA1>
29.51

>  <EState_VSA2>
28.95

>  <EState_VSA3>
19.26

>  <EState_VSA4>
25.68

>  <EState_VSA5>
5.57

>  <EState_VSA6>
6.08

>  <EState_VSA7>
6.92

>  <EState_VSA8>
6.92

>  <EState_VSA9>
0

>  <EState_VSA10>
24.91

>  <VSA_EState1>
0

>  <VSA_EState2>
24.26

>  <VSA_EState3>
31.73

>  <VSA_EState4>
-1.23

>  <VSA_EState5>
0.14

>  <VSA_EState6>
0

>  <VSA_EState7>
5.74

>  <VSA_EState8>
3.46

>  <VSA_EState9>
0

>  <apol>
59.08

>  <bpol>
31.83

>  <nRing>
4

>  <nHRing>
0

>  <naRing>
0

>  <naHRing>
0

>  <nARing 2>
4

>  <nAHRing 2>
0

>  <nFRing>
1

>  <nFHRing>
0

>  <nFaRing>
0

>  <nFaHRing>
0

>  <nFARing 2>
1

>  <nFAHRing 2>
0

>  <nRot>
2

>  <SLogP>
1.78

>  <SMR>
95.14

>  <TopoPSA(NO)>
94.83

>  <TopoPSA>
94.83

>  <JGI1>
0.29

>  <JGI2>
0.14

>  <JGI3>
0.07

>  <JGI4>
0.06

>  <JGI5>
0.04

>  <Diameter>
12

>  <Radius>
6

>  <TMWC10>
135.18

>  <TSRW10>
77.19

>  <MW>
362.21

>  <AMW>
6.47

>  <WPath>
1425

>  <WPol>
59

>  <Zagreb1>
154

>  <Zagreb2>
198

>  <mZagreb2>
5.44

>  <yes>


>  <nAR-cont>
0.199399

>  <nHA-cont>
0.892715677

>  <MWHBN>
0.420348758

>  <MWHBN-cont>
0.396618035

>  <TPSA-cont>
0.338027714

>  <pka_cont>
0.97

>  <yes.1>


>  <BBB_SCORE>
2.848097159

>  <MMFF94 Energy>
126.16

$$$$
Compound 271
Actelion Java MolfileCreator 2.0

  0  0  0  0  0  0              0 V3000
M  V30 BEGIN CTAB
M  V30 COUNTS 51 55 0 0 0
M  V30 BEGIN ATOM
M  V30 1 Cl 1.0477 -6.5419 1.1283 0
M  V30 2 C 0.4273 -6.1657 -0.4471 0
M  V30 3 C -0.3971 -5.0321 -0.6424 0
M  V30 4 C 0.7712 -7.0153 -1.5001 0
M  V30 5 N -0.6376 -4.1765 0.4566 0
M  V30 6 C -0.8991 -4.793 -1.9394 0
M  V30 7 C 0.3002 -6.7491 -2.7795 0
M  V30 8 C -0.4664 -2.8102 0.5142 0
M  V30 9 C -0.5269 -5.6484 -2.9957 0
M  V30 10 C -1.8467 -3.6692 -2.2656 0
M  V30 11 N 0.0508 -2.1293 -0.4775 0
M  V30 12 C -0.8307 -2.0825 1.7101 0
M  V30 13 C 0.2324 -0.7319 -0.3721 0
M  V30 14 N -0.6443 -0.7272 1.7992 0
M  V30 15 C -1.3894 -2.4364 2.9186 0
M  V30 16 C -0.1004 0.0203 0.7525 0
M  V30 17 C 0.7825 -0.0252 -1.4266 0
M  V30 18 C -1.0776 -0.3228 3.0285 0
M  V30 19 N -1.5355 -1.3379 3.7334 0
M  V30 20 N 0.0606 1.3609 0.8902 0
M  V30 21 C 0.9608 1.3595 -1.316 0
M  V30 22 C 0.5807 2.0421 -0.1546 0
M  V30 23 N 0.762 3.415 -0.0302 0
M  V30 24 C 0.4827 3.9884 1.3 0
M  V30 25 C 0.4106 4.2869 -1.1616 0
M  V30 26 C 1.0512 5.4279 1.4216 0 CFG=1
M  V30 27 C 0.9746 5.7115 -0.9634 0
M  V30 28 N 0.6085 6.3189 0.3265 0
M  V30 29 C 0.6413 6.0495 2.7556 0
M  V30 30 H 1.4108 -7.8766 -1.329 0
M  V30 31 H -0.6806 -4.6694 1.3406 0
M  V30 32 H 0.5698 -7.3991 -3.6079 0
M  V30 33 H -0.8974 -5.46 -4.0024 0
M  V30 34 H -1.2997 -2.8132 -2.6705 0
M  V30 35 H -2.4275 -3.3569 -1.3928 0
M  V30 36 H -2.5772 -3.9936 -3.0156 0
M  V30 37 H -1.6994 -3.4172 3.2551 0
M  V30 38 H 1.0841 -0.5461 -2.3302 0
M  V30 39 H -1.0362 0.7102 3.3484 0
M  V30 40 H 1.4293 1.8826 -2.1418 0
M  V30 41 H -0.6016 3.9971 1.4744 0
M  V30 42 H 0.9491 3.3816 2.0873 0
M  V30 43 H -0.6818 4.3341 -1.256 0
M  V30 44 H 0.8074 3.9133 -2.1104 0
M  V30 45 H 2.1479 5.3702 1.3962 0
M  V30 46 H 0.6049 6.3543 -1.7698 0
M  V30 47 H 2.0681 5.685 -1.0521 0
M  V30 48 H 1.0766 7.2196 0.4176 0
M  V30 49 H 0.985 5.4311 3.5917 0
M  V30 50 H 1.0815 7.0453 2.878 0
M  V30 51 H -0.4471 6.1484 2.8347 0
M  V30 END ATOM
M  V30 BEGIN BOND
M  V30 1 1 1 2
M  V30 2 2 2 3
M  V30 3 1 2 4
M  V30 4 1 3 5
M  V30 5 1 3 6
M  V30 6 2 4 7
M  V30 7 1 5 8
M  V30 8 2 6 9
M  V30 9 1 6 10
M  V30 10 2 8 11
M  V30 11 1 8 12
M  V30 12 1 11 13
M  V30 13 1 12 14
M  V30 14 2 12 15
M  V30 15 2 13 16
M  V30 16 1 13 17
M  V30 17 1 14 18
M  V30 18 1 15 19
M  V30 19 1 16 20
M  V30 20 2 17 21
M  V30 21 2 20 22
M  V30 22 1 22 23
M  V30 23 1 23 24
M  V30 24 1 23 25
M  V30 25 1 24 26
M  V30 26 1 25 27
M  V30 27 1 26 28
M  V30 28 1 26 29
M  V30 29 1 7 9
M  V30 30 1 14 16
M  V30 31 2 18 19
M  V30 32 1 21 22
M  V30 33 1 27 28
M  V30 34 1 4 30
M  V30 35 1 5 31
M  V30 36 1 7 32
M  V30 37 1 9 33
M  V30 38 1 10 34
M  V30 39 1 10 35
M  V30 40 1 10 36
M  V30 41 1 15 37
M  V30 42 1 17 38
M  V30 43 1 18 39
M  V30 44 1 21 40
M  V30 45 1 24 41
M  V30 46 1 24 42
M  V30 47 1 25 43
M  V30 48 1 25 44
M  V30 49 1 26 45
M  V30 50 1 27 46
M  V30 51 1 27 47
M  V30 52 1 28 48
M  V30 53 1 29 49
M  V30 54 1 29 50
M  V30 55 1 29 51
M  V30 END BOND
M  V30 BEGIN COLLECTION
M  V30 MDLV30/STERAC1 ATOMS=(1 26)
M  V30 END COLLECTION
M  V30 END CTAB
M  END
>  <Column 1>
346

>  <level_0>
393

>  <index>
393

>  <Unnamed: 0>
393

>  <NO.>
395

>  <Name>
schembl4036207

>  <IUPAC_name>
n-(2-chloro-6-methylphenyl)-12-(3-methylpiperazin-1-yl)-2-4-8-13-tetrazatricyclo[7.4.0.02-6]trideca-1(9)-3-5-7-10-12-hexaen-7-amine

>  <SMILES>
Cc1cccc(Cl)c1Nc1nc2ccc(N3CCNC(C)C3)nc2n2cncc12

>  <CID>
19605717

>  <logBB>
-0.22

>  <BBB+/BBB->
BBB+

>  <Inchi>
InChI=1S/C21H22ClN7/c1-13-4-3-5-15(22)19(13)27-20-17-10-23-12-29(17)21-16(25-20)6-7-18(26-21)28-9-8-24-14(2)11-28/h3-7-10-12-14-24H-8-9-11H2-1-2H3-(H-25-27)

>  <threshold>


>  <reference>
R18|R26|R27|

>  <group>
A

>  <Class>
1

>  <ABC>
23.38

>  <ABCGG>
17.52

>  <nAcid>
0

>  <nBase>
1

>  <nAromAtom>
19

>  <nAromBond>
21

>  <nAtom>
51

>  <nHeavyAtom>
29

>  <nSpiro>
0

>  <nBridgehead>
0

>  <nHetero>
8

>  <nN>
7

>  <nO>
0

>  <nF>
0

>  <BalabanJ>
1.26

>  <BertzCT>
1182.3

>  <nBonds>
55

>  <nBondsO>
33

>  <nBondsS>
34

>  <nBondsD>
0

>  <nBondsT>
0

>  <nBondsA>
21

>  <nBondsM>
21

>  <nBondsKS>
46

>  <nBondsKD>
9

>  <RNCG>
0.15

>  <RPCG>
0.07

>  <FCSP3>
0.29

>  <SZ>
35.67

>  <Sm>
33.96

>  <Sv>
33.36

>  <Sse>
51.17

>  <Sp>
35.7

>  <Si>
57.75

>  <MZ>
0.7

>  <Mm>
0.67

>  <Mv>
0.65

>  <Mse>
1

>  <Mp>
0.7

>  <Mi>
1.13

>  <NsCH3>
2

>  <NdCH2>
0

>  <NssCH2>
3

>  <NtCH>
0

>  <NdsCH>
0

>  <NaaCH>
7

>  <NsssCH>
1

>  <NddC>
0

>  <NtsC>
0

>  <NdssC>
0

>  <NaasC>
5

>  <NaaaC>
3

>  <NssssC>
0

>  <NsNH3>
0

>  <NsNH2>
0

>  <NssNH2>
0

>  <NdNH>
0

>  <NssNH>
2

>  <NaaNH>
0

>  <NtN>
0

>  <NsssNH>
0

>  <NdsN>
0

>  <NaaN>
3

>  <NsssN>
1

>  <NddsN>
0

>  <NaasN>
1

>  <NssssN>
0

>  <NsOH>
0

>  <NdO>
0

>  <NssO>
0

>  <NaaO>
0

>  <NsF>
0

>  <NsSiH3>
0

>  <NssSiH2>
0

>  <NsssSiH>
0

>  <NssssSi>
0

>  <NsPH2>
0

>  <NssPH>
0

>  <NsssP>
0

>  <NdsssP>
0

>  <NsssssP>
0

>  <NsSH>
0

>  <NdS>
0

>  <NssS>
0

>  <NaaS>
0

>  <NdssS>
0

>  <NddssS>
0

>  <NsCl>
1

>  <NsBr>
0

>  <NsI>
0

>  <fragCpx>
277.08

>  <fMF>
0.51

>  <nHBAcc>
7

>  <nHBDon>
2

>  <Kier1>
20.88

>  <Kier2>
8.86

>  <Lipinski>
1

>  <GhoseFilter>
1

>  <FilterItLogS>
-6.1

>  <VMcGowan>
295.85

>  <LabuteASA>
173.29

>  <PEOE_VSA1>
15.53

>  <PEOE_VSA2>
4.4

>  <PEOE_VSA3>
14.95

>  <PEOE_VSA4>
0

>  <PEOE_VSA5>
0

>  <PEOE_VSA6>
23.73

>  <PEOE_VSA7>
37.61

>  <PEOE_VSA8>
25.68

>  <PEOE_VSA9>
16.91

>  <PEOE_VSA10>
23.18

>  <PEOE_VSA11>
11.47

>  <PEOE_VSA12>
0

>  <PEOE_VSA13>
0

>  <SMR_VSA1>
0

>  <SMR_VSA2>
0

>  <SMR_VSA3>
24.67

>  <SMR_VSA4>
0

>  <SMR_VSA5>
19.89

>  <SMR_VSA6>
29.85

>  <SMR_VSA7>
53.44

>  <SMR_VSA8>
0

>  <SMR_VSA9>
0

>  <SlogP_VSA1>
15.53

>  <SlogP_VSA2>
45.03

>  <SlogP_VSA3>
0

>  <SlogP_VSA4>
6.92

>  <SlogP_VSA5>
12.49

>  <SlogP_VSA6>
42.86

>  <SlogP_VSA7>
5.02

>  <SlogP_VSA8>
16.68

>  <SlogP_VSA9>
0

>  <SlogP_VSA10>
17.32

>  <SlogP_VSA11>
0

>  <EState_VSA1>
0

>  <EState_VSA2>
0

>  <EState_VSA3>
16.88

>  <EState_VSA4>
53.38

>  <EState_VSA5>
0

>  <EState_VSA6>
12.52

>  <EState_VSA7>
41.66

>  <EState_VSA8>
27.44

>  <EState_VSA9>
21.57

>  <EState_VSA10>
0

>  <VSA_EState1>
1.98

>  <VSA_EState2>
16.4

>  <VSA_EState3>
7.52

>  <VSA_EState4>
4.36

>  <VSA_EState5>
1.67

>  <VSA_EState6>
10.33

>  <VSA_EState7>
3.57

>  <VSA_EState8>
7.04

>  <VSA_EState9>
0

>  <apol>
59.62

>  <bpol>
30.56

>  <nRing>
5

>  <nHRing>
4

>  <naRing>
4

>  <naHRing>
3

>  <nARing 2>
1

>  <nAHRing 2>
1

>  <nFRing>
1

>  <nFHRing>
1

>  <nFaRing>
1

>  <nFaHRing>
1

>  <nFARing 2>
0

>  <nFAHRing 2>
0

>  <nRot>
3

>  <SLogP>
3.78

>  <SMR>
117.44

>  <TopoPSA(NO)>
70.38

>  <TopoPSA>
70.38

>  <JGI1>
0.17

>  <JGI2>
0.08

>  <JGI3>
0.03

>  <JGI4>
0.04

>  <JGI5>
0.02

>  <Diameter>
14

>  <Radius>
7

>  <TMWC10>
140.2

>  <TSRW10>
78.72

>  <MW>
407.16

>  <AMW>
7.98

>  <WPath>
2244

>  <WPol>
50

>  <Zagreb1>
162

>  <Zagreb2>
196

>  <mZagreb2>
6.19

>  <yes>


>  <nAR-cont>
0.816016

>  <nHA-cont>
0.785905698

>  <MWHBN>
0.446025775

>  <MWHBN-cont>
0.300231665

>  <TPSA-cont>
0.508703897

>  <pka_cont>
0.97

>  <yes.1>


>  <BBB_SCORE>
3.55467699

>  <MMFF94 Energy>
83.89

$$$$
Compound 272
Actelion Java MolfileCreator 2.0

  0  0  0  0  0  0              0 V3000
M  V30 BEGIN CTAB
M  V30 COUNTS 39 42 0 0 0
M  V30 BEGIN ATOM
M  V30 1 O 1.5104 2.943 5.015 0
M  V30 2 C 2.3767 3.1302 3.9025 0
M  V30 3 C 2.693 1.7894 3.2409 0 CFG=2
M  V30 4 C 3.5884 1.9049 2.0439 0
M  V30 5 C 1.4375 1.1065 2.6666 0
M  V30 6 C 3.1549 1.1524 1.0267 0
M  V30 7 C 1.8909 0.4163 1.3704 0 CFG=2
M  V30 8 N 0.887 0.4603 0.3246 0
M  V30 9 C 0.1041 -0.592 -0.0664 0
M  V30 10 C 0.5197 1.546 -0.4289 0
M  V30 11 N 0.1097 -1.8446 0.4112 0
M  V30 12 C -0.7028 -0.0845 -1.0676 0
M  V30 13 N -0.4332 1.2515 -1.2887 0
M  V30 14 C -0.7922 -2.6219 -0.2072 0
M  V30 15 C -1.6144 -0.9766 -1.6542 0
M  V30 16 N -1.6315 -2.2569 -1.191 0
M  V30 17 N -0.8684 -3.9217 0.2033 0
M  V30 18 N -2.4746 -0.5595 -2.6754 0
M  V30 19 C -3.4018 -1.4625 -3.3229 0
M  V30 20 C -4.0242 -1.1026 -4.643 0
M  V30 21 C -3.01 -2.2052 -4.5685 0
M  V30 22 H 2.0031 2.4511 5.6944 0
M  V30 23 H 1.8835 3.8136 3.2026 0
M  V30 24 H 3.29 3.6213 4.256 0
M  V30 25 H 3.1597 1.1232 3.9777 0
M  V30 26 H 4.5034 2.4835 2.0295 0
M  V30 27 H 1.0225 0.3803 3.3755 0
M  V30 28 H 0.6447 1.8414 2.4729 0
M  V30 29 H 3.6705 1.0429 0.0812 0
M  V30 30 H 2.1431 -0.6341 1.5587 0
M  V30 31 H 0.9754 2.5213 -0.3094 0
M  V30 32 H -1.5396 -4.5119 -0.2563 0
M  V30 33 H -0.256 -4.2309 0.9356 0
M  V30 34 H -2.3695 0.4151 -2.9373 0
M  V30 35 H -4.0386 -1.9893 -2.6153 0
M  V30 36 H -3.7287 -0.176 -5.1193 0
M  V30 37 H -5.0609 -1.3749 -4.8011 0
M  V30 38 H -3.3528 -3.2278 -4.6682 0
M  V30 39 H -2.0234 -2.024 -4.9775 0
M  V30 END ATOM
M  V30 BEGIN BOND
M  V30 1 1 1 2
M  V30 2 1 2 3
M  V30 3 1 3 4
M  V30 4 1 3 5
M  V30 5 2 4 6
M  V30 6 1 5 7
M  V30 7 1 7 8
M  V30 8 1 8 9
M  V30 9 1 8 10
M  V30 10 2 9 11
M  V30 11 1 9 12
M  V30 12 2 10 13
M  V30 13 1 11 14
M  V30 14 2 12 15
M  V30 15 2 14 16
M  V30 16 1 14 17
M  V30 17 1 15 18
M  V30 18 1 18 19
M  V30 19 1 19 20
M  V30 20 1 19 21
M  V30 21 1 6 7
M  V30 22 1 12 13
M  V30 23 1 15 16
M  V30 24 1 20 21
M  V30 25 1 1 22
M  V30 26 1 2 23
M  V30 27 1 2 24
M  V30 28 1 3 25
M  V30 29 1 4 26
M  V30 30 1 5 27
M  V30 31 1 5 28
M  V30 32 1 6 29
M  V30 33 1 7 30
M  V30 34 1 10 31
M  V30 35 1 17 32
M  V30 36 1 17 33
M  V30 37 1 18 34
M  V30 38 1 19 35
M  V30 39 1 20 36
M  V30 40 1 20 37
M  V30 41 1 21 38
M  V30 42 1 21 39
M  V30 END BOND
M  V30 BEGIN COLLECTION
M  V30 MDLV30/STEABS ATOMS=(2 3 7)
M  V30 END COLLECTION
M  V30 END CTAB
M  END
>  <Column 1>
347

>  <level_0>
394

>  <index>
394

>  <Unnamed: 0>
394

>  <NO.>
396

>  <Name>
abacavir

>  <IUPAC_name>
[(1s-4r)-4-[2-amino-6-(cyclopropylamino)purin-9-yl]cyclopent-2-en-1-yl]methanol

>  <SMILES>
Nc1nc(NC2CC2)c2ncn([C@H]3C=C[C@@H](CO)C3)c2n1

>  <CID>
441300

>  <logBB>
-0.22

>  <BBB+/BBB->
BBB+

>  <Inchi>
InChI=1S/C14H18N6O/c15-14-18-12(17-9-2-3-9)11-13(19-14)20(7-16-11)10-4-1-8(5-10)6-21/h1-4-7-10-21H-2-3-5-6H2-(H3-15-17-18-19)/t8--10+/m1/s1

>  <threshold>


>  <reference>
R20|

>  <group>
A

>  <Class>
1

>  <ABC>
16.92

>  <ABCGG>
14.25

>  <nAcid>
0

>  <nBase>
0

>  <nAromAtom>
9

>  <nAromBond>
10

>  <nAtom>
39

>  <nHeavyAtom>
21

>  <nSpiro>
0

>  <nBridgehead>
0

>  <nHetero>
7

>  <nN>
6

>  <nO>
1

>  <nF>
0

>  <BalabanJ>
1.43

>  <BertzCT>
704.8

>  <nBonds>
42

>  <nBondsO>
24

>  <nBondsS>
31

>  <nBondsD>
1

>  <nBondsT>
0

>  <nBondsA>
10

>  <nBondsM>
11

>  <nBondsKS>
37

>  <nBondsKD>
5

>  <RNCG>
0.17

>  <RPCG>
0.1

>  <FCSP3>
0.5

>  <SZ>
25.33

>  <Sm>
23.84

>  <Sv>
24.14

>  <Sse>
39.3

>  <Sp>
25.62

>  <Si>
44.69

>  <MZ>
0.65

>  <Mm>
0.61

>  <Mv>
0.62

>  <Mse>
1.01

>  <Mp>
0.66

>  <Mi>
1.15

>  <NsCH3>
0

>  <NdCH2>
0

>  <NssCH2>
4

>  <NtCH>
0

>  <NdsCH>
2

>  <NaaCH>
1

>  <NsssCH>
3

>  <NddC>
0

>  <NtsC>
0

>  <NdssC>
0

>  <NaasC>
2

>  <NaaaC>
2

>  <NssssC>
0

>  <NsNH3>
0

>  <NsNH2>
1

>  <NssNH2>
0

>  <NdNH>
0

>  <NssNH>
1

>  <NaaNH>
0

>  <NtN>
0

>  <NsssNH>
0

>  <NdsN>
0

>  <NaaN>
3

>  <NsssN>
0

>  <NddsN>
0

>  <NaasN>
1

>  <NssssN>
0

>  <NsOH>
1

>  <NdO>
0

>  <NssO>
0

>  <NaaO>
0

>  <NsF>
0

>  <NsSiH3>
0

>  <NssSiH2>
0

>  <NsssSiH>
0

>  <NssssSi>
0

>  <NsPH2>
0

>  <NssPH>
0

>  <NsssP>
0

>  <NdsssP>
0

>  <NsssssP>
0

>  <NsSH>
0

>  <NdS>
0

>  <NssS>
0

>  <NaaS>
0

>  <NdssS>
0

>  <NddssS>
0

>  <NsCl>
0

>  <NsBr>
0

>  <NsI>
0

>  <fragCpx>
156.07

>  <fMF>
0.46

>  <nHBAcc>
7

>  <nHBDon>
3

>  <Kier1>
14.58

>  <Kier2>
5.89

>  <Lipinski>
1

>  <GhoseFilter>
1

>  <FilterItLogS>
-1.77

>  <VMcGowan>
208.93

>  <LabuteASA>
121.46

>  <PEOE_VSA1>
20.72

>  <PEOE_VSA2>
0

>  <PEOE_VSA3>
4.98

>  <PEOE_VSA4>
9.97

>  <PEOE_VSA5>
0

>  <PEOE_VSA6>
12.15

>  <PEOE_VSA7>
19.26

>  <PEOE_VSA8>
18.57

>  <PEOE_VSA9>
12.37

>  <PEOE_VSA10>
0

>  <PEOE_VSA11>
16.98

>  <PEOE_VSA12>
5.95

>  <PEOE_VSA13>
0

>  <SMR_VSA1>
5.11

>  <SMR_VSA2>
0

>  <SMR_VSA3>
19.52

>  <SMR_VSA4>
5.92

>  <SMR_VSA5>
31.35

>  <SMR_VSA6>
17.66

>  <SMR_VSA7>
18.48

>  <SMR_VSA8>
0

>  <SMR_VSA9>
0

>  <SlogP_VSA1>
11.05

>  <SlogP_VSA2>
37.27

>  <SlogP_VSA3>
0

>  <SlogP_VSA4>
5.92

>  <SlogP_VSA5>
25.3

>  <SlogP_VSA6>
18.48

>  <SlogP_VSA7>
0

>  <SlogP_VSA8>
11.16

>  <SlogP_VSA9>
0

>  <SlogP_VSA10>
11.77

>  <SlogP_VSA11>
0

>  <EState_VSA1>
0

>  <EState_VSA2>
24.51

>  <EState_VSA3>
6.04

>  <EState_VSA4>
36.24

>  <EState_VSA5>
0

>  <EState_VSA6>
6.33

>  <EState_VSA7>
10.64

>  <EState_VSA8>
26.34

>  <EState_VSA9>
5.73

>  <EState_VSA10>
5.11

>  <VSA_EState1>
2.01

>  <VSA_EState2>
13.08

>  <VSA_EState3>
12.62

>  <VSA_EState4>
7.35

>  <VSA_EState5>
1.18

>  <VSA_EState6>
0.65

>  <VSA_EState7>
9.1

>  <VSA_EState8>
0.17

>  <VSA_EState9>
0

>  <apol>
42.78

>  <bpol>
23.19

>  <nRing>
4

>  <nHRing>
2

>  <naRing>
2

>  <naHRing>
2

>  <nARing 2>
2

>  <nAHRing 2>
0

>  <nFRing>
1

>  <nFHRing>
1

>  <nFaRing>
1

>  <nFaHRing>
1

>  <nFARing 2>
0

>  <nFAHRing 2>
0

>  <nRot>
4

>  <SLogP>
1.09

>  <SMR>
79.75

>  <TopoPSA(NO)>
101.88

>  <TopoPSA>
101.88

>  <JGI1>
0.19

>  <JGI2>
0.07

>  <JGI3>
0.04

>  <JGI4>
0.04

>  <JGI5>
0.02

>  <Diameter>
11

>  <Radius>
6

>  <TMWC10>
120.47

>  <TSRW10>
75.48

>  <MW>
286.15

>  <AMW>
7.34

>  <WPath>
910

>  <WPol>
31

>  <Zagreb1>
118

>  <Zagreb2>
143

>  <mZagreb2>
4.53

>  <yes>


>  <nAR-cont>
1

>  <nHA-cont>
0.994529749

>  <MWHBN>
0.591157393

>  <MWHBN-cont>
0

>  <TPSA-cont>
0.288814336

>  <pka_cont>
0.97

>  <yes.1>


>  <BBB_SCORE>
3.057158422

>  <MMFF94 Energy>
-37.048

$$$$
Compound 273
Actelion Java MolfileCreator 2.0

  0  0  0  0  0  0              0 V3000
M  V30 BEGIN CTAB
M  V30 COUNTS 34 36 0 0 0
M  V30 BEGIN ATOM
M  V30 1 F -1.7752 2.3406 0.8873 0
M  V30 2 C -0.7695 1.8224 1.6071 0
M  V30 3 C 0.0326 0.7975 1.0659 0
M  V30 4 C -0.5295 2.3699 2.8637 0
M  V30 5 C 1.1358 0.3776 1.8325 0
M  V30 6 C -0.2714 0.2403 -0.3331 0
M  V30 7 C 0.5435 1.9063 3.6037 0
M  V30 8 C 1.3813 0.9218 3.0982 0
M  V30 9 O -1.702 0.1047 -0.4511 0
M  V30 10 C 0.3386 -1.15 -0.6585 0
M  V30 11 C 0.2391 1.3072 -1.3468 0
M  V30 12 F 0.7903 2.4278 4.8119 0
M  V30 13 N 0.0705 -2.1961 0.3085 0
M  V30 14 N 0.0684 0.9427 -2.7374 0
M  V30 15 N 1.0921 -2.8943 0.847 0
M  V30 16 C -1.1267 -2.684 0.7292 0
M  V30 17 N -1.0963 0.4211 -3.1708 0
M  V30 18 C 0.9694 1.0434 -3.7476 0
M  V30 19 C 0.4341 -3.7782 1.6026 0
M  V30 20 N -0.9259 -3.6831 1.5582 0
M  V30 21 C -0.831 0.2379 -4.4689 0
M  V30 22 N 0.4291 0.5934 -4.8559 0
M  V30 23 H -1.1694 3.1534 3.2526 0
M  V30 24 H 1.83 -0.3813 1.478 0
M  V30 25 H 2.224 0.5791 3.6925 0
M  V30 26 H -1.9297 0.1522 -1.4072 0
M  V30 27 H -0.0544 -1.5438 -1.6032 0
M  V30 28 H 1.4283 -1.074 -0.7634 0
M  V30 29 H -0.3047 2.2533 -1.2321 0
M  V30 30 H 1.3065 1.5089 -1.1921 0
M  V30 31 H -2.0844 -2.2917 0.4149 0
M  V30 32 H 1.9703 1.4371 -3.6339 0
M  V30 33 H 0.9583 -4.5136 2.1993 0
M  V30 34 H -1.5698 -0.1687 -5.1487 0
M  V30 END ATOM
M  V30 BEGIN BOND
M  V30 1 1 1 2
M  V30 2 2 2 3
M  V30 3 1 2 4
M  V30 4 1 3 5
M  V30 5 1 3 6
M  V30 6 2 4 7
M  V30 7 2 5 8
M  V30 8 1 6 9
M  V30 9 1 6 10
M  V30 10 1 6 11
M  V30 11 1 7 12
M  V30 12 1 10 13
M  V30 13 1 11 14
M  V30 14 1 13 15
M  V30 15 1 13 16
M  V30 16 1 14 17
M  V30 17 1 14 18
M  V30 18 2 15 19
M  V30 19 2 16 20
M  V30 20 2 17 21
M  V30 21 2 18 22
M  V30 22 1 7 8
M  V30 23 1 19 20
M  V30 24 1 21 22
M  V30 25 1 4 23
M  V30 26 1 5 24
M  V30 27 1 8 25
M  V30 28 1 9 26
M  V30 29 1 10 27
M  V30 30 1 10 28
M  V30 31 1 11 29
M  V30 32 1 11 30
M  V30 33 1 16 31
M  V30 34 1 18 32
M  V30 35 1 19 33
M  V30 36 1 21 34
M  V30 END BOND
M  V30 END CTAB
M  END
>  <Column 1>
348

>  <level_0>
396

>  <index>
396

>  <Unnamed: 0>
396

>  <NO.>
398

>  <Name>
fluconazole

>  <IUPAC_name>
2-(2-4-difluorophenyl)-1-3-bis(1-2-4-triazol-1-yl)propan-2-ol

>  <SMILES>
OC(Cn1cncn1)(Cn1cncn1)c1ccc(F)cc1F

>  <CID>
3365

>  <logBB>
-0.22

>  <BBB+/BBB->
BBB+

>  <Inchi>
InChI=1S/C13H12F2N6O/c14-10-1-2-11(12(15)3-10)13(22-4-20-8-16-6-18-20)5-21-9-17-7-19-21/h1-3-6-9-22H-4-5H2

>  <threshold>


>  <reference>
R2|R2|R25|R27|R46|

>  <group>
A

>  <Class>
1

>  <ABC>
17.25

>  <ABCGG>
15.38

>  <nAcid>
0

>  <nBase>
0

>  <nAromAtom>
16

>  <nAromBond>
16

>  <nAtom>
34

>  <nHeavyAtom>
22

>  <nSpiro>
0

>  <nBridgehead>
0

>  <nHetero>
9

>  <nN>
6

>  <nO>
1

>  <nF>
2

>  <BalabanJ>
1.71

>  <BertzCT>
707.75

>  <nBonds>
36

>  <nBondsO>
24

>  <nBondsS>
20

>  <nBondsD>
0

>  <nBondsT>
0

>  <nBondsA>
16

>  <nBondsM>
16

>  <nBondsKS>
29

>  <nBondsKD>
7

>  <RNCG>
0.18

>  <RPCG>
0.1

>  <FCSP3>
0.23

>  <SZ>
26.33

>  <Sm>
25.5

>  <Sv>
22.81

>  <Sse>
35.55

>  <Sp>
22.89

>  <Si>
39.54

>  <MZ>
0.77

>  <Mm>
0.75

>  <Mv>
0.67

>  <Mse>
1.05

>  <Mp>
0.67

>  <Mi>
1.16

>  <NsCH3>
0

>  <NdCH2>
0

>  <NssCH2>
2

>  <NtCH>
0

>  <NdsCH>
0

>  <NaaCH>
7

>  <NsssCH>
0

>  <NddC>
0

>  <NtsC>
0

>  <NdssC>
0

>  <NaasC>
3

>  <NaaaC>
0

>  <NssssC>
1

>  <NsNH3>
0

>  <NsNH2>
0

>  <NssNH2>
0

>  <NdNH>
0

>  <NssNH>
0

>  <NaaNH>
0

>  <NtN>
0

>  <NsssNH>
0

>  <NdsN>
0

>  <NaaN>
4

>  <NsssN>
0

>  <NddsN>
0

>  <NaasN>
2

>  <NssssN>
0

>  <NsOH>
1

>  <NdO>
0

>  <NssO>
0

>  <NaaO>
0

>  <NsF>
2

>  <NsSiH3>
0

>  <NssSiH2>
0

>  <NsssSiH>
0

>  <NssssSi>
0

>  <NsPH2>
0

>  <NssPH>
0

>  <NsssP>
0

>  <NdsssP>
0

>  <NsssssP>
0

>  <NsSH>
0

>  <NdS>
0

>  <NssS>
0

>  <NaaS>
0

>  <NdssS>
0

>  <NddssS>
0

>  <NsCl>
0

>  <NsBr>
0

>  <NsI>
0

>  <fragCpx>
114.09

>  <fMF>
0.56

>  <nHBAcc>
7

>  <nHBDon>
1

>  <Kier1>
16.84

>  <Kier2>
7.27

>  <Lipinski>
1

>  <GhoseFilter>
1

>  <FilterItLogS>
-2.48

>  <VMcGowan>
200.62

>  <LabuteASA>
123.42

>  <PEOE_VSA1>
5.11

>  <PEOE_VSA2>
0

>  <PEOE_VSA3>
28.11

>  <PEOE_VSA4>
10.2

>  <PEOE_VSA5>
0

>  <PEOE_VSA6>
6.07

>  <PEOE_VSA7>
6.07

>  <PEOE_VSA8>
11.63

>  <PEOE_VSA9>
13.09

>  <PEOE_VSA10>
42.54

>  <PEOE_VSA11>
0

>  <PEOE_VSA12>
0

>  <PEOE_VSA13>
0

>  <SMR_VSA1>
13.89

>  <SMR_VSA2>
0

>  <SMR_VSA3>
29.53

>  <SMR_VSA4>
0

>  <SMR_VSA5>
18.69

>  <SMR_VSA6>
0

>  <SMR_VSA7>
60.71

>  <SMR_VSA8>
0

>  <SMR_VSA9>
0

>  <SlogP_VSA1>
0

>  <SlogP_VSA2>
34.64

>  <SlogP_VSA3>
18.69

>  <SlogP_VSA4>
11.63

>  <SlogP_VSA5>
5.56

>  <SlogP_VSA6>
43.51

>  <SlogP_VSA7>
0

>  <SlogP_VSA8>
0

>  <SlogP_VSA9>
0

>  <SlogP_VSA10>
8.78

>  <SlogP_VSA11>
0

>  <EState_VSA1>
17.24

>  <EState_VSA2>
18.65

>  <EState_VSA3>
0

>  <EState_VSA4>
12.13

>  <EState_VSA5>
40.74

>  <EState_VSA6>
0

>  <EState_VSA7>
0

>  <EState_VSA8>
20.17

>  <EState_VSA9>
0

>  <EState_VSA10>
13.89

>  <VSA_EState1>
29.95

>  <VSA_EState2>
7.57

>  <VSA_EState3>
18.77

>  <VSA_EState4>
-1.75

>  <VSA_EState5>
-1.56

>  <VSA_EState6>
3.02

>  <VSA_EState7>
5.4

>  <VSA_EState8>
-0.15

>  <VSA_EState9>
0

>  <apol>
38.23

>  <bpol>
19.96

>  <nRing>
3

>  <nHRing>
2

>  <naRing>
3

>  <naHRing>
2

>  <nARing 2>
0

>  <nAHRing 2>
0

>  <nFRing>
0

>  <nFHRing>
0

>  <nFaRing>
0

>  <nFaHRing>
0

>  <nFARing 2>
0

>  <nFAHRing 2>
0

>  <nRot>
5

>  <SLogP>
0.74

>  <SMR>
70.3

>  <TopoPSA(NO)>
81.65

>  <TopoPSA>
81.65

>  <JGI1>
0.23

>  <JGI2>
0.08

>  <JGI3>
0.08

>  <JGI4>
0.03

>  <JGI5>
0.03

>  <Diameter>
9

>  <Radius>
5

>  <TMWC10>
120.34

>  <TSRW10>
71.28

>  <MW>
306.1

>  <AMW>
9

>  <WPath>
1000

>  <WPol>
30

>  <Zagreb1>
116

>  <Zagreb2>
135

>  <mZagreb2>
4.78

>  <yes>


>  <nAR-cont>
0.336376

>  <nHA-cont>
0.983774276

>  <MWHBN>
0.457254852

>  <MWHBN-cont>
0

>  <TPSA-cont>
0.430032298

>  <pka_cont>
0.97

>  <yes.1>


>  <BBB_SCORE>
2.665214873

>  <MMFF94 Energy>
34.177

$$$$
Compound 274
Actelion Java MolfileCreator 2.0

  0  0  0  0  0  0              0 V3000
M  V30 BEGIN CTAB
M  V30 COUNTS 48 51 0 0 0
M  V30 BEGIN ATOM
M  V30 1 O -2.2439 -2.5647 -3.3673 0
M  V30 2 C -1.6998 -1.3161 -3.479 0
M  V30 3 C -2.4548 -3.2849 -4.5757 0
M  V30 4 C -1.5316 -0.6384 -2.2682 0
M  V30 5 C -1.3141 -0.6927 -4.656 0
M  V30 6 C -0.9777 0.6658 -2.2052 0
M  V30 7 C -0.7678 0.5936 -4.6102 0
M  V30 8 C -0.5922 1.282 -3.4186 0
M  V30 9 C -0.7796 1.4036 -1.0028 0
M  V30 10 N -0.0566 2.5098 -3.4836 0
M  V30 11 C -0.2195 2.6854 -1.0921 0
M  V30 12 C -1.1292 0.8347 0.3682 0 CFG=2
M  V30 13 C 0.1157 3.1864 -2.3325 0
M  V30 14 O -1.3962 1.9074 1.2763 0
M  V30 15 C -0.0238 -0.1302 0.909 0 CFG=2
M  V30 16 N -0.4371 -0.9375 2.1107 0
M  V30 17 C 1.3451 0.5413 1.1746 0
M  V30 18 C -0.1925 -0.1787 3.3704 0
M  V30 19 C 0.4507 -2.1318 2.1456 0
M  V30 20 C 2.0663 -0.2074 2.3178 0
M  V30 21 C 1.3172 0.0751 3.6433 0 CFG=1
M  V30 22 C 1.9338 -1.7222 2.0469 0
M  V30 23 C 1.5355 1.4191 4.3062 0
M  V30 24 C 2.3826 2.3888 3.937 0
M  V30 25 H -3.1567 -2.759 -5.2314 0
M  V30 26 H -2.9006 -4.2499 -4.3161 0
M  V30 27 H -1.507 -3.4825 -5.0872 0
M  V30 28 H -1.8454 -1.1544 -1.3639 0
M  V30 29 H -1.4199 -1.1678 -5.6251 0
M  V30 30 H -0.4683 1.076 -5.5384 0
M  V30 31 H -0.0488 3.2893 -0.2057 0
M  V30 32 H -2.0771 0.2905 0.2771 0
M  V30 33 H 0.5474 4.1776 -2.4365 0
M  V30 34 H -1.9699 1.5243 1.9618 0
M  V30 35 H 0.1325 -0.8551 0.0968 0
M  V30 36 H 1.9548 0.49 0.264 0
M  V30 37 H 1.2312 1.6008 1.4241 0
M  V30 38 H -0.61 -0.7549 4.2075 0
M  V30 39 H -0.759 0.7557 3.374 0
M  V30 40 H 0.2721 -2.7019 3.0665 0
M  V30 41 H 0.1955 -2.8135 1.3249 0
M  V30 42 H 3.1228 0.0742 2.3705 0
M  V30 43 H 1.6562 -0.6683 4.3798 0
M  V30 44 H 2.3268 -1.9572 1.0502 0
M  V30 45 H 2.5242 -2.294 2.7723 0
M  V30 46 H 0.9394 1.593 5.2027 0
M  V30 47 H 3.0278 2.3065 3.0695 0
M  V30 48 H 2.4487 3.3092 4.5104 0
M  V30 END ATOM
M  V30 BEGIN BOND
M  V30 1 1 1 2
M  V30 2 1 1 3
M  V30 3 2 2 4
M  V30 4 1 2 5
M  V30 5 1 4 6
M  V30 6 2 5 7
M  V30 7 1 6 8
M  V30 8 2 6 9
M  V30 9 2 8 10
M  V30 10 1 9 11
M  V30 11 1 9 12
M  V30 12 1 10 13
M  V30 13 1 12 14
M  V30 14 1 12 15
M  V30 15 1 15 16
M  V30 16 1 15 17
M  V30 17 1 16 18
M  V30 18 1 16 19
M  V30 19 1 17 20
M  V30 20 1 18 21
M  V30 21 1 19 22
M  V30 22 1 21 23
M  V30 23 2 23 24
M  V30 24 1 7 8
M  V30 25 2 11 13
M  V30 26 1 20 21
M  V30 27 1 20 22
M  V30 28 1 3 25
M  V30 29 1 3 26
M  V30 30 1 3 27
M  V30 31 1 4 28
M  V30 32 1 5 29
M  V30 33 1 7 30
M  V30 34 1 11 31
M  V30 35 1 12 32
M  V30 36 1 13 33
M  V30 37 1 14 34
M  V30 38 1 15 35
M  V30 39 1 17 36
M  V30 40 1 17 37
M  V30 41 1 18 38
M  V30 42 1 18 39
M  V30 43 1 19 40
M  V30 44 1 19 41
M  V30 45 1 20 42
M  V30 46 1 21 43
M  V30 47 1 22 44
M  V30 48 1 22 45
M  V30 49 1 23 46
M  V30 50 1 24 47
M  V30 51 1 24 48
M  V30 END BOND
M  V30 BEGIN COLLECTION
M  V30 MDLV30/STEABS ATOMS=(3 12 15 21)
M  V30 END COLLECTION
M  V30 END CTAB
M  END
>  <Column 1>
349

>  <level_0>
397

>  <index>
397

>  <Unnamed: 0>
397

>  <NO.>
399

>  <Name>
quinidine

>  <IUPAC_name>
(s)-[(2r-5r)-5-ethenyl-1-azabicyclo[2.2.2]octan-2-yl]-(6-methoxyquinolin-4-yl)methanol

>  <SMILES>
C=C[C@H]1CN2CCC1C[C@@H]2[C@@H](O)c1ccnc2ccc(OC)cc12

>  <CID>
5953

>  <logBB>
-0.21

>  <BBB+/BBB->
BBB+

>  <Inchi>
InChI=1S/C20H24N2O2/c1-3-13-12-22-9-7-14(13)10-19(22)20(23)16-6-8-21-18-5-4-15(24-2)11-17(16)18/h3-6-8-11-13-14-19-20-23H-1-7-9-10-12H2-2H3/t13--14?-19+-20-/m0/s1

>  <threshold>


>  <reference>
R21|R8|

>  <group>
A

>  <Class>
1

>  <ABC>
18.96

>  <ABCGG>
14.85

>  <nAcid>
0

>  <nBase>
1

>  <nAromAtom>
10

>  <nAromBond>
11

>  <nAtom>
48

>  <nHeavyAtom>
24

>  <nSpiro>
0

>  <nBridgehead>
2

>  <nHetero>
4

>  <nN>
2

>  <nO>
2

>  <nF>
0

>  <BalabanJ>
1.46

>  <BertzCT>
760.39

>  <nBonds>
51

>  <nBondsO>
27

>  <nBondsS>
39

>  <nBondsD>
1

>  <nBondsT>
0

>  <nBondsA>
11

>  <nBondsM>
12

>  <nBondsKS>
45

>  <nBondsKD>
6

>  <RNCG>
0.27

>  <RPCG>
0.11

>  <FCSP3>
0.45

>  <SZ>
29

>  <Sm>
27.01

>  <Sv>
29.45

>  <Sse>
47.64

>  <Sp>
31.86

>  <Si>
53.98

>  <MZ>
0.6

>  <Mm>
0.56

>  <Mv>
0.61

>  <Mse>
0.99

>  <Mp>
0.66

>  <Mi>
1.12

>  <NsCH3>
1

>  <NdCH2>
1

>  <NssCH2>
4

>  <NtCH>
0

>  <NdsCH>
1

>  <NaaCH>
5

>  <NsssCH>
4

>  <NddC>
0

>  <NtsC>
0

>  <NdssC>
0

>  <NaasC>
2

>  <NaaaC>
2

>  <NssssC>
0

>  <NsNH3>
0

>  <NsNH2>
0

>  <NssNH2>
0

>  <NdNH>
0

>  <NssNH>
0

>  <NaaNH>
0

>  <NtN>
0

>  <NsssNH>
0

>  <NdsN>
0

>  <NaaN>
1

>  <NsssN>
1

>  <NddsN>
0

>  <NaasN>
0

>  <NssssN>
0

>  <NsOH>
1

>  <NdO>
0

>  <NssO>
1

>  <NaaO>
0

>  <NsF>
0

>  <NsSiH3>
0

>  <NssSiH2>
0

>  <NsssSiH>
0

>  <NssssSi>
0

>  <NsPH2>
0

>  <NssPH>
0

>  <NsssP>
0

>  <NdsssP>
0

>  <NsssssP>
0

>  <NsSH>
0

>  <NdS>
0

>  <NssS>
0

>  <NaaS>
0

>  <NdssS>
0

>  <NddssS>
0

>  <NsCl>
0

>  <NsBr>
0

>  <NsI>
0

>  <fragCpx>
177.04

>  <fMF>
0.4

>  <nHBAcc>
4

>  <nHBDon>
1

>  <Kier1>
17.42

>  <Kier2>
7.32

>  <Lipinski>
1

>  <GhoseFilter>
1

>  <FilterItLogS>
-3.55

>  <VMcGowan>
255.12

>  <LabuteASA>
142.31

>  <PEOE_VSA1>
9.84

>  <PEOE_VSA2>
9.88

>  <PEOE_VSA3>
0

>  <PEOE_VSA4>
0

>  <PEOE_VSA5>
6.58

>  <PEOE_VSA6>
6.08

>  <PEOE_VSA7>
61.05

>  <PEOE_VSA8>
24.17

>  <PEOE_VSA9>
18.73

>  <PEOE_VSA10>
5.75

>  <PEOE_VSA11>
0

>  <PEOE_VSA12>
0

>  <PEOE_VSA13>
0

>  <SMR_VSA1>
9.84

>  <SMR_VSA2>
0

>  <SMR_VSA3>
9.88

>  <SMR_VSA4>
11.84

>  <SMR_VSA5>
24.99

>  <SMR_VSA6>
20.2

>  <SMR_VSA7>
48.68

>  <SMR_VSA8>
0

>  <SMR_VSA9>
5.75

>  <SlogP_VSA1>
4.74

>  <SlogP_VSA2>
41.23

>  <SlogP_VSA3>
0

>  <SlogP_VSA4>
11.84

>  <SlogP_VSA5>
24.51

>  <SlogP_VSA6>
43.12

>  <SlogP_VSA7>
0

>  <SlogP_VSA8>
10.9

>  <SlogP_VSA9>
0

>  <SlogP_VSA10>
0

>  <SlogP_VSA11>
5.75

>  <EState_VSA1>
6.1

>  <EState_VSA2>
6.04

>  <EState_VSA3>
11.84

>  <EState_VSA4>
41.73

>  <EState_VSA5>
6.42

>  <EState_VSA6>
13.31

>  <EState_VSA7>
24.27

>  <EState_VSA8>
22.54

>  <EState_VSA9>
4.74

>  <EState_VSA10>
5.11

>  <VSA_EState1>
5.35

>  <VSA_EState2>
6.86

>  <VSA_EState3>
12.13

>  <VSA_EState4>
1.85

>  <VSA_EState5>
2.01

>  <VSA_EState6>
7.96

>  <VSA_EState7>
5.62

>  <VSA_EState8>
6.07

>  <VSA_EState9>
1.66

>  <apol>
53.21

>  <bpol>
28.66

>  <nRing>
5

>  <nHRing>
4

>  <naRing>
2

>  <naHRing>
1

>  <nARing 2>
3

>  <nAHRing 2>
3

>  <nFRing>
2

>  <nFHRing>
2

>  <nFaRing>
1

>  <nFaHRing>
1

>  <nFARing 2>
1

>  <nFAHRing 2>
1

>  <nRot>
4

>  <SLogP>
3.17

>  <SMR>
95.03

>  <TopoPSA(NO)>
45.59

>  <TopoPSA>
45.59

>  <JGI1>
0.17

>  <JGI2>
0.08

>  <JGI3>
0.04

>  <JGI4>
0.05

>  <JGI5>
0.03

>  <Diameter>
12

>  <Radius>
6

>  <TMWC10>
127.51

>  <TSRW10>
59.27

>  <MW>
324.18

>  <AMW>
6.75

>  <WPath>
1286

>  <WPol>
42

>  <Zagreb1>
132

>  <Zagreb2>
161

>  <mZagreb2>
5.33

>  <yes>


>  <nAR-cont>
0.691115

>  <nHA-cont>
0.94700071

>  <MWHBN>
0.277700649

>  <MWHBN-cont>
0.901836653

>  <TPSA-cont>
0.68175349

>  <pka_cont>
0.97

>  <yes.1>


>  <BBB_SCORE>
4.839377669

>  <MMFF94 Energy>
113.29

$$$$
Compound 275
Actelion Java MolfileCreator 2.0

  0  0  0  0  0  0              0 V3000
M  V30 BEGIN CTAB
M  V30 COUNTS 26 25 0 0 0
M  V30 BEGIN ATOM
M  V30 1 O -2.2264 0.3835 -0.9208 0
M  V30 2 C -1.6076 -0.3366 -0.1555 0
M  V30 3 O -2.2326 -1.3283 0.5078 0
M  V30 4 C -0.1316 -0.2592 0.1698 0
M  V30 5 C 0.6933 -0.48 -1.1098 0
M  V30 6 C 0.1904 1.1099 0.7934 0
M  V30 7 C 0.5602 -1.9049 -1.6568 0
M  V30 8 C -0.4515 1.294 2.1724 0
M  V30 9 C 1.4283 -2.1093 -2.8888 0
M  V30 10 C -0.0714 2.6324 2.7871 0
M  V30 11 H -3.1635 -1.2633 0.2076 0
M  V30 12 H 0.1203 -1.0453 0.8932 0
M  V30 13 H 0.389 0.2362 -1.8839 0
M  V30 14 H 1.7516 -0.2845 -0.8945 0
M  V30 15 H 1.2782 1.212 0.8969 0
M  V30 16 H -0.1424 1.9164 0.1273 0
M  V30 17 H 0.8544 -2.6275 -0.8868 0
M  V30 18 H -0.4821 -2.1163 -1.9202 0
M  V30 19 H -1.5431 1.2382 2.0952 0
M  V30 20 H -0.1309 0.4877 2.8422 0
M  V30 21 H 1.3193 -3.1318 -3.2636 0
M  V30 22 H 1.1402 -1.4211 -3.6899 0
M  V30 23 H 2.4852 -1.9437 -2.6563 0
M  V30 24 H -0.5392 2.7443 3.7704 0
M  V30 25 H 1.0127 2.7115 2.9161 0
M  V30 26 H -0.4044 3.4625 2.1559 0
M  V30 END ATOM
M  V30 BEGIN BOND
M  V30 1 2 1 2
M  V30 2 1 2 3
M  V30 3 1 2 4
M  V30 4 1 4 5
M  V30 5 1 4 6
M  V30 6 1 5 7
M  V30 7 1 6 8
M  V30 8 1 7 9
M  V30 9 1 8 10
M  V30 10 1 3 11
M  V30 11 1 4 12
M  V30 12 1 5 13
M  V30 13 1 5 14
M  V30 14 1 6 15
M  V30 15 1 6 16
M  V30 16 1 7 17
M  V30 17 1 7 18
M  V30 18 1 8 19
M  V30 19 1 8 20
M  V30 20 1 9 21
M  V30 21 1 9 22
M  V30 22 1 9 23
M  V30 23 1 10 24
M  V30 24 1 10 25
M  V30 25 1 10 26
M  V30 END BOND
M  V30 END CTAB
M  END
>  <Column 1>
351

>  <level_0>
399

>  <index>
399

>  <Unnamed: 0>
399

>  <NO.>
401

>  <Name>
valproate

>  <IUPAC_name>
2-propylpentanoic acid

>  <SMILES>
CCCC(CCC)C(=O)O

>  <CID>
3121

>  <logBB>
-0.2

>  <BBB+/BBB->
BBB+

>  <Inchi>
InChI=1S/C8H16O2/c1-3-5-7(6-4-2)8(9)10/h7H-3-6H2-1-2H3-(H-9-10)

>  <threshold>


>  <reference>
R41|R3|R38|R47|R4|R8|R21|R27|R2|R2|R27|R11|R12|R17|R18|R25|R26|R27|R35|R36|R39|R43|R46|R48|R49|R49|R5|

>  <group>
A

>  <Class>
1

>  <ABC>
6.54

>  <ABCGG>
7.04

>  <nAcid>
1

>  <nBase>
0

>  <nAromAtom>
0

>  <nAromBond>
0

>  <nAtom>
26

>  <nHeavyAtom>
10

>  <nSpiro>
0

>  <nBridgehead>
0

>  <nHetero>
2

>  <nN>
0

>  <nO>
2

>  <nF>
0

>  <BalabanJ>
3.5

>  <BertzCT>
93.43

>  <nBonds>
25

>  <nBondsO>
9

>  <nBondsS>
24

>  <nBondsD>
1

>  <nBondsT>
0

>  <nBondsA>
0

>  <nBondsM>
1

>  <nBondsKS>
24

>  <nBondsKD>
1

>  <RNCG>
0.46

>  <RPCG>
0.29

>  <FCSP3>
0.88

>  <SZ>
13.33

>  <Sm>
12.01

>  <Sv>
13.76

>  <Sse>
25.76

>  <Sp>
15.35

>  <Si>
29.74

>  <MZ>
0.51

>  <Mm>
0.46

>  <Mv>
0.53

>  <Mse>
0.99

>  <Mp>
0.59

>  <Mi>
1.14

>  <NsCH3>
2

>  <NdCH2>
0

>  <NssCH2>
4

>  <NtCH>
0

>  <NdsCH>
0

>  <NaaCH>
0

>  <NsssCH>
1

>  <NddC>
0

>  <NtsC>
0

>  <NdssC>
1

>  <NaasC>
0

>  <NaaaC>
0

>  <NssssC>
0

>  <NsNH3>
0

>  <NsNH2>
0

>  <NssNH2>
0

>  <NdNH>
0

>  <NssNH>
0

>  <NaaNH>
0

>  <NtN>
0

>  <NsssNH>
0

>  <NdsN>
0

>  <NaaN>
0

>  <NsssN>
0

>  <NddsN>
0

>  <NaasN>
0

>  <NssssN>
0

>  <NsOH>
1

>  <NdO>
1

>  <NssO>
0

>  <NaaO>
0

>  <NsF>
0

>  <NsSiH3>
0

>  <NssSiH2>
0

>  <NsssSiH>
0

>  <NssssSi>
0

>  <NsPH2>
0

>  <NssPH>
0

>  <NsssP>
0

>  <NdsssP>
0

>  <NsssssP>
0

>  <NsSH>
0

>  <NdS>
0

>  <NssS>
0

>  <NaaS>
0

>  <NdssS>
0

>  <NddssS>
0

>  <NsCl>
0

>  <NsBr>
0

>  <NsI>
0

>  <fragCpx>
9.02

>  <fMF>
0

>  <nHBAcc>
1

>  <nHBDon>
1

>  <Kier1>
10

>  <Kier2>
5.76

>  <Lipinski>
1

>  <GhoseFilter>
0

>  <FilterItLogS>
-1.67

>  <VMcGowan>
131.02

>  <LabuteASA>
62.25

>  <PEOE_VSA1>
5.11

>  <PEOE_VSA2>
4.79

>  <PEOE_VSA3>
0

>  <PEOE_VSA4>
0

>  <PEOE_VSA5>
0

>  <PEOE_VSA6>
26.69

>  <PEOE_VSA7>
12.84

>  <PEOE_VSA8>
0

>  <PEOE_VSA9>
5.92

>  <PEOE_VSA10>
0

>  <PEOE_VSA11>
0

>  <PEOE_VSA12>
0

>  <PEOE_VSA13>
0

>  <SMR_VSA1>
9.9

>  <SMR_VSA2>
0

>  <SMR_VSA3>
0

>  <SMR_VSA4>
5.92

>  <SMR_VSA5>
39.53

>  <SMR_VSA6>
0

>  <SMR_VSA7>
0

>  <SMR_VSA8>
0

>  <SMR_VSA9>
0

>  <SlogP_VSA1>
0

>  <SlogP_VSA2>
11.08

>  <SlogP_VSA3>
4.79

>  <SlogP_VSA4>
5.92

>  <SlogP_VSA5>
39.53

>  <SlogP_VSA6>
0

>  <SlogP_VSA7>
0

>  <SlogP_VSA8>
0

>  <SlogP_VSA9>
0

>  <SlogP_VSA10>
0

>  <SlogP_VSA11>
0

>  <EState_VSA1>
5.97

>  <EState_VSA2>
5.92

>  <EState_VSA3>
0

>  <EState_VSA4>
25.68

>  <EState_VSA5>
0

>  <EState_VSA6>
0

>  <EState_VSA7>
13.85

>  <EState_VSA8>
0

>  <EState_VSA9>
5.11

>  <EState_VSA10>
4.79

>  <VSA_EState1>
0

>  <VSA_EState2>
10.48

>  <VSA_EState3>
8.64

>  <VSA_EState4>
0

>  <VSA_EState5>
-0.74

>  <VSA_EState6>
0

>  <VSA_EState7>
3.58

>  <VSA_EState8>
4.04

>  <VSA_EState9>
0

>  <apol>
25.63

>  <bpol>
16.92

>  <nRing>
0

>  <nHRing>
0

>  <naRing>
0

>  <naHRing>
0

>  <nARing 2>
0

>  <nAHRing 2>
0

>  <nFRing>
0

>  <nFHRing>
0

>  <nFaRing>
0

>  <nFaHRing>
0

>  <nFARing 2>
0

>  <nFAHRing 2>
0

>  <nRot>
5

>  <SLogP>
2.29

>  <SMR>
40.94

>  <TopoPSA(NO)>
37.3

>  <TopoPSA>
37.3

>  <JGI1>
0.22

>  <JGI2>
0.11

>  <JGI3>
0.06

>  <JGI4>
0.04

>  <JGI5>
0.01

>  <Diameter>
6

>  <Radius>
3

>  <TMWC10>
78.77

>  <TSRW10>
37.58

>  <MW>
144.12

>  <AMW>
5.54

>  <WPath>
131

>  <WPol>
10

>  <Zagreb1>
38

>  <Zagreb2>
39

>  <mZagreb2>
2.61

>  <yes>


>  <nAR-cont>
0.336376

>  <nHA-cont>
0.645914733

>  <MWHBN>
0.166597266

>  <MWHBN-cont>
0.968357781

>  <TPSA-cont>
0.739622838

>  <pka_cont>
0.97

>  <yes.1>


>  <BBB_SCORE>
4.399073082

>  <MMFF94 Energy>
-24.552

$$$$
Compound 276
Actelion Java MolfileCreator 2.0

  0  0  0  0  0  0              0 V3000
M  V30 BEGIN CTAB
M  V30 COUNTS 48 51 0 0 0
M  V30 BEGIN ATOM
M  V30 1 F 3.1388 2.4138 -4.5094 0
M  V30 2 C 3.7118 1.7781 -3.4766 0
M  V30 3 C 2.9602 0.9208 -2.6574 0
M  V30 4 C 5.0632 2.0329 -3.2315 0
M  V30 5 C 1.5725 0.6006 -3.0034 0
M  V30 6 C 3.6326 0.2664 -1.6138 0
M  V30 7 C 5.702 1.4053 -2.1669 0
M  V30 8 N 1.053 0.6083 -4.2217 0
M  V30 9 N 0.577 0.2251 -2.1162 0
M  V30 10 C 4.9812 0.5241 -1.3716 0
M  V30 11 N -0.2653 0.2274 -4.1479 0
M  V30 12 N 0.6527 0.1272 -0.7577 0
M  V30 13 C -0.5408 0.003 -2.8854 0
M  V30 14 F 5.5953 -0.0996 -0.3583 0
M  V30 15 C -0.464 -0.2333 -0.2162 0
M  V30 16 C -1.7244 -0.399 -2.2337 0
M  V30 17 O -0.5607 -0.3572 1.1238 0
M  V30 18 C -1.7718 -0.5455 -0.8924 0
M  V30 19 C 0.6542 -0.2267 1.8785 0
M  V30 20 C -3.0251 -0.998 -0.1151 0
M  V30 21 C 0.2962 -0.4633 3.3003 0
M  V30 22 C -4.2329 -1.2845 -1.0486 0
M  V30 23 C -2.7581 -2.3128 0.6492 0
M  V30 24 C -3.4953 0.0988 0.8637 0
M  V30 25 N 0.6025 -1.521 4.0284 0
M  V30 26 N -0.4181 0.4101 4.0763 0
M  V30 27 C 0.0502 -1.2417 5.2435 0
M  V30 28 N -0.5806 -0.0699 5.3237 0
M  V30 29 C -0.9752 1.6935 3.737 0
M  V30 30 H 5.603 2.7168 -3.8796 0
M  V30 31 H 3.1344 -0.4608 -0.9799 0
M  V30 32 H 6.7522 1.5862 -1.9607 0
M  V30 33 H -2.5773 -0.583 -2.8761 0
M  V30 34 H 1.377 -0.9818 1.5489 0
M  V30 35 H 1.0814 0.7738 1.7492 0
M  V30 36 H -4.0086 -2.0833 -1.7653 0
M  V30 37 H -5.1097 -1.6085 -0.4744 0
M  V30 38 H -4.5321 -0.3904 -1.6082 0
M  V30 39 H -2.0395 -2.1945 1.4645 0
M  V30 40 H -3.679 -2.6974 1.1039 0
M  V30 41 H -2.3738 -3.0883 -0.0235 0
M  V30 42 H -3.634 1.0558 0.3472 0
M  V30 43 H -2.7947 0.2631 1.6857 0
M  V30 44 H -4.4536 -0.169 1.3248 0
M  V30 45 H 0.1114 -1.9097 6.093 0
M  V30 46 H -0.5047 2.4502 4.3701 0
M  V30 47 H -2.0523 1.661 3.9206 0
M  V30 48 H -0.7897 1.9254 2.6872 0
M  V30 END ATOM
M  V30 BEGIN BOND
M  V30 1 1 1 2
M  V30 2 2 2 3
M  V30 3 1 2 4
M  V30 4 1 3 5
M  V30 5 1 3 6
M  V30 6 2 4 7
M  V30 7 2 5 8
M  V30 8 1 5 9
M  V30 9 2 6 10
M  V30 10 1 8 11
M  V30 11 1 9 12
M  V30 12 1 9 13
M  V30 13 1 10 14
M  V30 14 2 12 15
M  V30 15 1 13 16
M  V30 16 1 15 17
M  V30 17 1 15 18
M  V30 18 1 17 19
M  V30 19 1 18 20
M  V30 20 1 19 21
M  V30 21 1 20 22
M  V30 22 1 20 23
M  V30 23 1 20 24
M  V30 24 2 21 25
M  V30 25 1 21 26
M  V30 26 1 25 27
M  V30 27 1 26 28
M  V30 28 1 26 29
M  V30 29 1 7 10
M  V30 30 2 11 13
M  V30 31 2 16 18
M  V30 32 2 27 28
M  V30 33 1 4 30
M  V30 34 1 6 31
M  V30 35 1 7 32
M  V30 36 1 16 33
M  V30 37 1 19 34
M  V30 38 1 19 35
M  V30 39 1 22 36
M  V30 40 1 22 37
M  V30 41 1 22 38
M  V30 42 1 23 39
M  V30 43 1 23 40
M  V30 44 1 23 41
M  V30 45 1 24 42
M  V30 46 1 24 43
M  V30 47 1 24 44
M  V30 48 1 27 45
M  V30 49 1 29 46
M  V30 50 1 29 47
M  V30 51 1 29 48
M  V30 END BOND
M  V30 END CTAB
M  END
>  <Column 1>
353

>  <level_0>
403

>  <index>
403

>  <Unnamed: 0>
403

>  <NO.>
405

>  <Name>
l-838417

>  <IUPAC_name>
7-tert-butyl-3-(2-5-difluorophenyl)-6-[(2-methyl-1-2-4-triazol-3-yl)methoxy]-[1-2-4]triazolo[4-3-b]pyridazine

>  <SMILES>
Cn1ncnc1COc1nn2c(-c3cc(F)ccc3F)nnc2cc1C(C)(C)C

>  <CID>
9908880

>  <logBB>
-0.2

>  <BBB+/BBB->
BBB+

>  <Inchi>
InChI=1S/C19H19F2N7O/c1-19(2-3)13-8-15-24-25-17(12-7-11(20)5-6-14(12)21)28(15)26-18(13)29-9-16-22-10-23-27(16)4/h5-8-10H-9H2-1-4H3

>  <threshold>


>  <reference>
R18|R26|R27|R20|

>  <group>
A

>  <Class>
1

>  <ABC>
23.13

>  <ABCGG>
19.09

>  <nAcid>
0

>  <nBase>
0

>  <nAromAtom>
20

>  <nAromBond>
21

>  <nAtom>
48

>  <nHeavyAtom>
29

>  <nSpiro>
0

>  <nBridgehead>
0

>  <nHetero>
10

>  <nN>
7

>  <nO>
1

>  <nF>
2

>  <BalabanJ>
1.46

>  <BertzCT>
1193.2

>  <nBonds>
51

>  <nBondsO>
32

>  <nBondsS>
30

>  <nBondsD>
0

>  <nBondsT>
0

>  <nBondsA>
21

>  <nBondsM>
21

>  <nBondsKS>
42

>  <nBondsKD>
9

>  <RNCG>
0.2

>  <RPCG>
0.1

>  <FCSP3>
0.32

>  <SZ>
34.67

>  <Sm>
33.25

>  <Sv>
31.46

>  <Sse>
49.32

>  <Sp>
32.34

>  <Si>
55.28

>  <MZ>
0.72

>  <Mm>
0.69

>  <Mv>
0.66

>  <Mse>
1.03

>  <Mp>
0.67

>  <Mi>
1.15

>  <NsCH3>
4

>  <NdCH2>
0

>  <NssCH2>
1

>  <NtCH>
0

>  <NdsCH>
0

>  <NaaCH>
5

>  <NsssCH>
0

>  <NddC>
0

>  <NtsC>
0

>  <NdssC>
0

>  <NaasC>
7

>  <NaaaC>
1

>  <NssssC>
1

>  <NsNH3>
0

>  <NsNH2>
0

>  <NssNH2>
0

>  <NdNH>
0

>  <NssNH>
0

>  <NaaNH>
0

>  <NtN>
0

>  <NsssNH>
0

>  <NdsN>
0

>  <NaaN>
5

>  <NsssN>
0

>  <NddsN>
0

>  <NaasN>
2

>  <NssssN>
0

>  <NsOH>
0

>  <NdO>
0

>  <NssO>
1

>  <NaaO>
0

>  <NsF>
2

>  <NsSiH3>
0

>  <NssSiH2>
0

>  <NsssSiH>
0

>  <NssssSi>
0

>  <NsPH2>
0

>  <NssPH>
0

>  <NsssP>
0

>  <NdsssP>
0

>  <NsssssP>
0

>  <NsSH>
0

>  <NdS>
0

>  <NssS>
0

>  <NaaS>
0

>  <NdssS>
0

>  <NddssS>
0

>  <NsCl>
0

>  <NsBr>
0

>  <NsI>
0

>  <fragCpx>
212.1

>  <fMF>
0.46

>  <nHBAcc>
8

>  <nHBDon>
0

>  <Kier1>
22.2

>  <Kier2>
8.86

>  <Lipinski>
1

>  <GhoseFilter>
1

>  <FilterItLogS>
-5.48

>  <VMcGowan>
275.68

>  <LabuteASA>
164.72

>  <PEOE_VSA1>
4.74

>  <PEOE_VSA2>
4.68

>  <PEOE_VSA3>
13.76

>  <PEOE_VSA4>
9.61

>  <PEOE_VSA5>
15.3

>  <PEOE_VSA6>
20.77

>  <PEOE_VSA7>
29.68

>  <PEOE_VSA8>
12.61

>  <PEOE_VSA9>
5.56

>  <PEOE_VSA10>
24.57

>  <PEOE_VSA11>
17.3

>  <PEOE_VSA12>
5.88

>  <PEOE_VSA13>
0

>  <SMR_VSA1>
13.52

>  <SMR_VSA2>
0

>  <SMR_VSA3>
34.58

>  <SMR_VSA4>
7.05

>  <SMR_VSA5>
32.79

>  <SMR_VSA6>
0

>  <SMR_VSA7>
53.62

>  <SMR_VSA8>
0

>  <SMR_VSA9>
17.27

>  <SlogP_VSA1>
4.74

>  <SlogP_VSA2>
34.58

>  <SlogP_VSA3>
19.07

>  <SlogP_VSA4>
11.63

>  <SlogP_VSA5>
32.16

>  <SlogP_VSA6>
30.59

>  <SlogP_VSA7>
0

>  <SlogP_VSA8>
17.04

>  <SlogP_VSA9>
0

>  <SlogP_VSA10>
8.78

>  <SlogP_VSA11>
5.88

>  <EState_VSA1>
11.63

>  <EState_VSA2>
23.41

>  <EState_VSA3>
17.35

>  <EState_VSA4>
23.76

>  <EState_VSA5>
10.84

>  <EState_VSA6>
17.8

>  <EState_VSA7>
20.77

>  <EState_VSA8>
25.38

>  <EState_VSA9>
4.74

>  <EState_VSA10>
8.78

>  <VSA_EState1>
36.83

>  <VSA_EState2>
4.14

>  <VSA_EState3>
16.62

>  <VSA_EState4>
0.86

>  <VSA_EState5>
-0.18

>  <VSA_EState6>
4.93

>  <VSA_EState7>
1.44

>  <VSA_EState8>
6.18

>  <VSA_EState9>
1.76

>  <apol>
54.02

>  <bpol>
28.72

>  <nRing>
4

>  <nHRing>
3

>  <naRing>
4

>  <naHRing>
3

>  <nARing 2>
0

>  <nAHRing 2>
0

>  <nFRing>
1

>  <nFHRing>
1

>  <nFaRing>
1

>  <nFaHRing>
1

>  <nFARing 2>
0

>  <nFAHRing 2>
0

>  <nRot>
4

>  <SLogP>
3.07

>  <SMR>
100.17

>  <TopoPSA(NO)>
83.02

>  <TopoPSA>
83.02

>  <JGI1>
0.23

>  <JGI2>
0.09

>  <JGI3>
0.05

>  <JGI4>
0.05

>  <JGI5>
0.03

>  <Diameter>
12

>  <Radius>
6

>  <TMWC10>
139.01

>  <TSRW10>
80.76

>  <MW>
399.16

>  <AMW>
8.32

>  <WPath>
2193

>  <WPol>
47

>  <Zagreb1>
160

>  <Zagreb2>
191

>  <mZagreb2>
6.08

>  <yes>


>  <nAR-cont>
0.336376

>  <nHA-cont>
0.785905698

>  <MWHBN>
0.400420663

>  <MWHBN-cont>
0.474405267

>  <TPSA-cont>
0.420468848

>  <pka_cont>
0.97

>  <yes.1>


>  <BBB_SCORE>
3.159827294

>  <MMFF94 Energy>
57.114

$$$$
Compound 277
Actelion Java MolfileCreator 2.0

  0  0  0  0  0  0              0 V3000
M  V30 BEGIN CTAB
M  V30 COUNTS 48 51 0 0 0
M  V30 BEGIN ATOM
M  V30 1 Cl 0.4016 -1.0446 -7.4912 0
M  V30 2 C -0.5719 -1.8718 -6.3358 0
M  V30 3 C -0.4661 -1.5447 -4.9802 0
M  V30 4 C -1.4556 -2.856 -6.7625 0
M  V30 5 C -1.2495 -2.1897 -4.0113 0
M  V30 6 C -2.2355 -3.5196 -5.8228 0
M  V30 7 N -1.1619 -1.8913 -2.6548 0
M  V30 8 C -2.1277 -3.1882 -4.4672 0
M  V30 9 C 0.0219 -1.1981 -2.1193 0
M  V30 10 C -2.4116 -1.6029 -1.9257 0
M  V30 11 C 0.1401 -1.3871 -0.5885 0
M  V30 12 C -2.2217 -1.7806 -0.4022 0
M  V30 13 N -1.0878 -0.9972 0.1435 0
M  V30 14 C -0.9655 -1.2291 1.5911 0
M  V30 15 C 0.0455 -0.3172 2.2942 0
M  V30 16 C -0.2509 1.1647 2.0796 0
M  V30 17 N 0.6513 1.9936 2.8451 0
M  V30 18 N 1.9362 2.2867 2.4243 0
M  V30 19 C 0.4006 2.5525 4.1092 0
M  V30 20 C 2.4141 3.0049 3.3936 0
M  V30 21 O -0.621 2.4593 4.7726 0
M  V30 22 N 1.5631 3.211 4.4326 0
M  V30 23 C 3.7594 3.6092 3.4898 0
M  V30 24 C 1.8637 3.9311 5.555 0
M  V30 25 C 4.05 4.3181 4.5943 0
M  V30 26 C 3.0798 4.488 5.6622 0
M  V30 27 H 0.2254 -0.7584 -4.6945 0
M  V30 28 H -1.5361 -3.1113 -7.8148 0
M  V30 29 H -2.9222 -4.3013 -6.1362 0
M  V30 30 H -2.725 -3.7526 -3.7553 0
M  V30 31 H -0.0395 -0.1274 -2.3521 0
M  V30 32 H 0.9387 -1.5954 -2.5719 0
M  V30 33 H -3.2337 -2.2571 -2.2341 0
M  V30 34 H -2.7204 -0.5717 -2.1408 0
M  V30 35 H 0.9878 -0.7801 -0.2531 0
M  V30 36 H 0.3849 -2.4371 -0.3795 0
M  V30 37 H -2.08 -2.8483 -0.1864 0
M  V30 38 H -3.1507 -1.4684 0.0903 0
M  V30 39 H -0.706 -2.2759 1.7961 0
M  V30 40 H -1.9416 -1.0526 2.0622 0
M  V30 41 H 0.0189 -0.539 3.3692 0
M  V30 42 H 1.0672 -0.5476 1.9704 0
M  V30 43 H -1.2751 1.3892 2.3978 0
M  V30 44 H -0.1499 1.4468 1.0265 0
M  V30 45 H 4.45 3.4578 2.6722 0
M  V30 46 H 1.0924 4.0169 6.313 0
M  V30 47 H 5.0236 4.7832 4.7145 0
M  V30 48 H 3.3604 5.0679 6.5354 0
M  V30 END ATOM
M  V30 BEGIN BOND
M  V30 1 1 1 2
M  V30 2 2 2 3
M  V30 3 1 2 4
M  V30 4 1 3 5
M  V30 5 2 4 6
M  V30 6 1 5 7
M  V30 7 2 5 8
M  V30 8 1 7 9
M  V30 9 1 7 10
M  V30 10 1 9 11
M  V30 11 1 10 12
M  V30 12 1 11 13
M  V30 13 1 13 14
M  V30 14 1 14 15
M  V30 15 1 15 16
M  V30 16 1 16 17
M  V30 17 1 17 18
M  V30 18 1 17 19
M  V30 19 2 18 20
M  V30 20 2 19 21
M  V30 21 1 19 22
M  V30 22 1 20 23
M  V30 23 1 22 24
M  V30 24 2 23 25
M  V30 25 2 24 26
M  V30 26 1 6 8
M  V30 27 1 12 13
M  V30 28 1 20 22
M  V30 29 1 25 26
M  V30 30 1 3 27
M  V30 31 1 4 28
M  V30 32 1 6 29
M  V30 33 1 8 30
M  V30 34 1 9 31
M  V30 35 1 9 32
M  V30 36 1 10 33
M  V30 37 1 10 34
M  V30 38 1 11 35
M  V30 39 1 11 36
M  V30 40 1 12 37
M  V30 41 1 12 38
M  V30 42 1 14 39
M  V30 43 1 14 40
M  V30 44 1 15 41
M  V30 45 1 15 42
M  V30 46 1 16 43
M  V30 47 1 16 44
M  V30 48 1 23 45
M  V30 49 1 24 46
M  V30 50 1 25 47
M  V30 51 1 26 48
M  V30 END BOND
M  V30 END CTAB
M  END
>  <Column 1>
354

>  <level_0>
404

>  <index>
404

>  <Unnamed: 0>
404

>  <NO.>
406

>  <Name>
trazodone

>  <IUPAC_name>
2-[3-[4-(3-chlorophenyl)piperazin-1-yl]propyl]-[1-2-4]triazolo[4-3-a]pyridin-3-one

>  <SMILES>
O=c1n(CCCN2CCN(c3cccc(Cl)c3)CC2)nc2ccccn12

>  <CID>
5533

>  <logBB>
-0.2

>  <BBB+/BBB->
BBB+

>  <Inchi>
InChI=1S/C19H22ClN5O/c20-16-5-3-6-17(15-16)23-13-11-22(12-14-23)8-4-10-25-19(26)24-9-2-1-7-18(24)21-25/h1-3-5-7-9-15H-4-8-10-14H2

>  <threshold>


>  <reference>
R18|R26|R27|R25|R42|

>  <group>
A

>  <Class>
1

>  <ABC>
20.56

>  <ABCGG>
14.95

>  <nAcid>
0

>  <nBase>
1

>  <nAromAtom>
15

>  <nAromBond>
16

>  <nAtom>
48

>  <nHeavyAtom>
26

>  <nSpiro>
0

>  <nBridgehead>
0

>  <nHetero>
7

>  <nN>
5

>  <nO>
1

>  <nF>
0

>  <BalabanJ>
1.14

>  <BertzCT>
942.25

>  <nBonds>
51

>  <nBondsO>
29

>  <nBondsS>
34

>  <nBondsD>
1

>  <nBondsT>
0

>  <nBondsA>
16

>  <nBondsM>
17

>  <nBondsKS>
44

>  <nBondsKD>
7

>  <RNCG>
0.19

>  <RPCG>
0.18

>  <FCSP3>
0.37

>  <SZ>
32.67

>  <Sm>
30.96

>  <Sv>
30.56

>  <Sse>
48.18

>  <Sp>
32.86

>  <Si>
54.38

>  <MZ>
0.68

>  <Mm>
0.65

>  <Mv>
0.64

>  <Mse>
1

>  <Mp>
0.68

>  <Mi>
1.13

>  <NsCH3>
0

>  <NdCH2>
0

>  <NssCH2>
7

>  <NtCH>
0

>  <NdsCH>
0

>  <NaaCH>
8

>  <NsssCH>
0

>  <NddC>
0

>  <NtsC>
0

>  <NdssC>
0

>  <NaasC>
2

>  <NaaaC>
1

>  <NssssC>
0

>  <NsNH3>
0

>  <NsNH2>
0

>  <NssNH2>
0

>  <NdNH>
0

>  <NssNH>
0

>  <NaaNH>
0

>  <NtN>
0

>  <NsssNH>
0

>  <NdsN>
0

>  <NaaN>
1

>  <NsssN>
2

>  <NddsN>
0

>  <NaasN>
2

>  <NssssN>
0

>  <NsOH>
0

>  <NdO>
1

>  <NssO>
0

>  <NaaO>
0

>  <NsF>
0

>  <NsSiH3>
0

>  <NssSiH2>
0

>  <NsssSiH>
0

>  <NssssSi>
0

>  <NsPH2>
0

>  <NssPH>
0

>  <NsssP>
0

>  <NdsssP>
0

>  <NsssssP>
0

>  <NsSH>
0

>  <NdS>
0

>  <NssS>
0

>  <NaaS>
0

>  <NdssS>
0

>  <NddssS>
0

>  <NsCl>
1

>  <NsBr>
0

>  <NsI>
0

>  <fragCpx>
191.07

>  <fMF>
0.5

>  <nHBAcc>
6

>  <nHBDon>
0

>  <Kier1>
19.32

>  <Kier2>
9

>  <Lipinski>
1

>  <GhoseFilter>
1

>  <FilterItLogS>
-3.66

>  <VMcGowan>
273.04

>  <LabuteASA>
156.76

>  <PEOE_VSA1>
4.9

>  <PEOE_VSA2>
9.3

>  <PEOE_VSA3>
9.48

>  <PEOE_VSA4>
0

>  <PEOE_VSA5>
5.1

>  <PEOE_VSA6>
23.73

>  <PEOE_VSA7>
36.75

>  <PEOE_VSA8>
56.18

>  <PEOE_VSA9>
0

>  <PEOE_VSA10>
0

>  <PEOE_VSA11>
5.65

>  <PEOE_VSA12>
0

>  <PEOE_VSA13>
0

>  <SMR_VSA1>
0

>  <SMR_VSA2>
0

>  <SMR_VSA3>
19.08

>  <SMR_VSA4>
0

>  <SMR_VSA5>
12.97

>  <SMR_VSA6>
37.62

>  <SMR_VSA7>
64.17

>  <SMR_VSA8>
0

>  <SMR_VSA9>
0

>  <SlogP_VSA1>
10.59

>  <SlogP_VSA2>
51.8

>  <SlogP_VSA3>
6.54

>  <SlogP_VSA4>
0

>  <SlogP_VSA5>
6.42

>  <SlogP_VSA6>
53.46

>  <SlogP_VSA7>
5.02

>  <SlogP_VSA8>
5.65

>  <SlogP_VSA9>
0

>  <SlogP_VSA10>
5.69

>  <SlogP_VSA11>
0

>  <EState_VSA1>
0

>  <EState_VSA2>
5.69

>  <EState_VSA3>
12.19

>  <EState_VSA4>
44.17

>  <EState_VSA5>
5.69

>  <EState_VSA6>
15.28

>  <EState_VSA7>
36.4

>  <EState_VSA8>
20.96

>  <EState_VSA9>
11.6

>  <EState_VSA10>
4.79

>  <VSA_EState1>
3.15

>  <VSA_EState2>
17.09

>  <VSA_EState3>
5.16

>  <VSA_EState4>
1.83

>  <VSA_EState5>
0

>  <VSA_EState6>
13.63

>  <VSA_EState7>
2.68

>  <VSA_EState8>
5.65

>  <VSA_EState9>
0

>  <apol>
54.88

>  <bpol>
30.29

>  <nRing>
4

>  <nHRing>
3

>  <naRing>
3

>  <naHRing>
2

>  <nARing 2>
1

>  <nAHRing 2>
1

>  <nFRing>
1

>  <nFHRing>
1

>  <nFaRing>
1

>  <nFaHRing>
1

>  <nFARing 2>
0

>  <nFAHRing 2>
0

>  <nRot>
5

>  <SLogP>
2.36

>  <SMR>
104.17

>  <TopoPSA(NO)>
45.78

>  <TopoPSA>
45.78

>  <JGI1>
0.16

>  <JGI2>
0.07

>  <JGI3>
0.05

>  <JGI4>
0.03

>  <JGI5>
0.03

>  <Diameter>
15

>  <Radius>
8

>  <TMWC10>
130.55

>  <TSRW10>
75.23

>  <MW>
371.15

>  <AMW>
7.73

>  <WPath>
2003

>  <WPol>
39

>  <Zagreb1>
138

>  <Zagreb2>
162

>  <mZagreb2>
5.69

>  <yes>


>  <nAR-cont>
0.816016

>  <nHA-cont>
0.892715677

>  <MWHBN>
0.311441525

>  <MWHBN-cont>
0.805262672

>  <TPSA-cont>
0.680427172

>  <pka_cont>
0.97

>  <yes.1>


>  <BBB_SCORE>
4.76248003

>  <MMFF94 Energy>
110.39

$$$$
Compound 278
Actelion Java MolfileCreator 2.0

  0  0  0  0  0  0              0 V3000
M  V30 BEGIN CTAB
M  V30 COUNTS 33 33 0 0 0
M  V30 BEGIN ATOM
M  V30 1 O 1.5627 2.8926 3.2839 0
M  V30 2 C 1.0137 3.1905 2.2347 0
M  V30 3 O 1.6936 3.8636 1.2821 0
M  V30 4 C -0.4126 2.8728 1.8254 0 CFG=1
M  V30 5 C -0.5 1.5674 1.0562 0
M  V30 6 C -1.3303 2.8773 3.0502 0
M  V30 7 C -0.1187 0.3491 1.6372 0
M  V30 8 C -0.9662 1.5627 -0.2657 0
M  V30 9 C -0.2044 -0.8437 0.915 0
M  V30 10 C -1.0515 0.3693 -0.9873 0
M  V30 11 C -0.6711 -0.845 -0.4042 0
M  V30 12 C -0.7582 -2.1329 -1.1879 0
M  V30 13 C 0.3139 -2.2665 -2.2871 0
M  V30 14 C 1.7232 -2.391 -1.7022 0
M  V30 15 C 0.0096 -3.485 -3.1622 0
M  V30 16 H 2.5938 3.9583 1.6575 0
M  V30 17 H -0.7494 3.6998 1.1852 0
M  V30 18 H -1.0475 2.1111 3.7809 0
M  V30 19 H -2.3712 2.6954 2.7607 0
M  V30 20 H -1.2845 3.8452 3.5621 0
M  V30 21 H 0.2548 0.3164 2.6595 0
M  V30 22 H -1.2663 2.4902 -0.7489 0
M  V30 23 H 0.102 -1.7725 1.391 0
M  V30 24 H -1.4174 0.394 -2.0114 0
M  V30 25 H -1.7592 -2.1814 -1.6377 0
M  V30 26 H -0.7015 -2.9903 -0.5042 0
M  V30 27 H 0.2904 -1.3787 -2.9318 0
M  V30 28 H 2.0061 -1.4894 -1.1497 0
M  V30 29 H 1.7966 -3.2456 -1.021 0
M  V30 30 H 2.4621 -2.5302 -2.4987 0
M  V30 31 H -0.9783 -3.3938 -3.626 0
M  V30 32 H 0.0255 -4.41 -2.5757 0
M  V30 33 H 0.7469 -3.5806 -3.9664 0
M  V30 END ATOM
M  V30 BEGIN BOND
M  V30 1 2 1 2
M  V30 2 1 2 3
M  V30 3 1 2 4
M  V30 4 1 4 5
M  V30 5 1 4 6
M  V30 6 2 5 7
M  V30 7 1 5 8
M  V30 8 1 7 9
M  V30 9 2 8 10
M  V30 10 2 9 11
M  V30 11 1 11 12
M  V30 12 1 12 13
M  V30 13 1 13 14
M  V30 14 1 13 15
M  V30 15 1 10 11
M  V30 16 1 3 16
M  V30 17 1 4 17
M  V30 18 1 6 18
M  V30 19 1 6 19
M  V30 20 1 6 20
M  V30 21 1 7 21
M  V30 22 1 8 22
M  V30 23 1 9 23
M  V30 24 1 10 24
M  V30 25 1 12 25
M  V30 26 1 12 26
M  V30 27 1 13 27
M  V30 28 1 14 28
M  V30 29 1 14 29
M  V30 30 1 14 30
M  V30 31 1 15 31
M  V30 32 1 15 32
M  V30 33 1 15 33
M  V30 END BOND
M  V30 BEGIN COLLECTION
M  V30 MDLV30/STERAC1 ATOMS=(1 4)
M  V30 END COLLECTION
M  V30 END CTAB
M  END
>  <Column 1>
355

>  <level_0>
405

>  <index>
405

>  <Unnamed: 0>
405

>  <NO.>
407

>  <Name>
ibuprofen 

>  <IUPAC_name>
2-[4-(2-methylpropyl)phenyl]propanoic acid

>  <SMILES>
CC(C)Cc1ccc(C(C)C(=O)O)cc1

>  <CID>
3672

>  <logBB>
-0.2

>  <BBB+/BBB->
BBB+

>  <Inchi>
InChI=1S/C13H18O2/c1-9(2)8-11-4-6-12(7-5-11)10(3)13(14)15/h4-7-9-10H-8H2-1-3H3-(H-14-15)

>  <threshold>


>  <reference>
R5|R2|R2|R8|R27|R40|R3|R11|R12|R17|R18|R21|R25|R26|R27|R27|R31|R35|R36|R38|R41|R43|R46|R47|R49|R49|R50|R4|R42|

>  <group>
A

>  <Class>
1

>  <ABC>
11.07

>  <ABCGG>
9.96

>  <nAcid>
1

>  <nBase>
0

>  <nAromAtom>
6

>  <nAromBond>
6

>  <nAtom>
33

>  <nHeavyAtom>
15

>  <nSpiro>
0

>  <nBridgehead>
0

>  <nHetero>
2

>  <nN>
0

>  <nO>
2

>  <nF>
0

>  <BalabanJ>
2.29

>  <BertzCT>
324.89

>  <nBonds>
33

>  <nBondsO>
15

>  <nBondsS>
26

>  <nBondsD>
1

>  <nBondsT>
0

>  <nBondsA>
6

>  <nBondsM>
7

>  <nBondsKS>
29

>  <nBondsKD>
4

>  <RNCG>
0.37

>  <RPCG>
0.24

>  <FCSP3>
0.46

>  <SZ>
18.67

>  <Sm>
17.17

>  <Sv>
19.31

>  <Sse>
32.65

>  <Sp>
21.15

>  <Si>
37.16

>  <MZ>
0.57

>  <Mm>
0.52

>  <Mv>
0.59

>  <Mse>
0.99

>  <Mp>
0.64

>  <Mi>
1.13

>  <NsCH3>
3

>  <NdCH2>
0

>  <NssCH2>
1

>  <NtCH>
0

>  <NdsCH>
0

>  <NaaCH>
4

>  <NsssCH>
2

>  <NddC>
0

>  <NtsC>
0

>  <NdssC>
1

>  <NaasC>
2

>  <NaaaC>
0

>  <NssssC>
0

>  <NsNH3>
0

>  <NsNH2>
0

>  <NssNH2>
0

>  <NdNH>
0

>  <NssNH>
0

>  <NaaNH>
0

>  <NtN>
0

>  <NsssNH>
0

>  <NdsN>
0

>  <NaaN>
0

>  <NsssN>
0

>  <NddsN>
0

>  <NaasN>
0

>  <NssssN>
0

>  <NsOH>
1

>  <NdO>
1

>  <NssO>
0

>  <NaaO>
0

>  <NsF>
0

>  <NsSiH3>
0

>  <NssSiH2>
0

>  <NsssSiH>
0

>  <NssssSi>
0

>  <NsPH2>
0

>  <NssPH>
0

>  <NsssP>
0

>  <NdsssP>
0

>  <NsssssP>
0

>  <NsSH>
0

>  <NdS>
0

>  <NssS>
0

>  <NaaS>
0

>  <NdssS>
0

>  <NddssS>
0

>  <NsCl>
0

>  <NsBr>
0

>  <NsI>
0

>  <fragCpx>
15.02

>  <fMF>
0.18

>  <nHBAcc>
1

>  <nHBDon>
1

>  <Kier1>
13.07

>  <Kier2>
5.92

>  <Lipinski>
1

>  <GhoseFilter>
1

>  <FilterItLogS>
-2.83

>  <VMcGowan>
177.71

>  <LabuteASA>
90.94

>  <PEOE_VSA1>
5.11

>  <PEOE_VSA2>
4.79

>  <PEOE_VSA3>
0

>  <PEOE_VSA4>
0

>  <PEOE_VSA5>
0

>  <PEOE_VSA6>
38.11

>  <PEOE_VSA7>
30.39

>  <PEOE_VSA8>
0

>  <PEOE_VSA9>
5.92

>  <PEOE_VSA10>
0

>  <PEOE_VSA11>
0

>  <PEOE_VSA12>
0

>  <PEOE_VSA13>
0

>  <SMR_VSA1>
9.9

>  <SMR_VSA2>
0

>  <SMR_VSA3>
0

>  <SMR_VSA4>
5.92

>  <SMR_VSA5>
33.11

>  <SMR_VSA6>
0

>  <SMR_VSA7>
35.39

>  <SMR_VSA8>
0

>  <SMR_VSA9>
0

>  <SlogP_VSA1>
0

>  <SlogP_VSA2>
11.08

>  <SlogP_VSA3>
11.22

>  <SlogP_VSA4>
5.92

>  <SlogP_VSA5>
37.82

>  <SlogP_VSA6>
24.27

>  <SlogP_VSA7>
0

>  <SlogP_VSA8>
0

>  <SlogP_VSA9>
0

>  <SlogP_VSA10>
0

>  <SlogP_VSA11>
0

>  <EState_VSA1>
11.89

>  <EState_VSA2>
0

>  <EState_VSA3>
5.92

>  <EState_VSA4>
11.98

>  <EState_VSA5>
5.56

>  <EState_VSA6>
6.92

>  <EState_VSA7>
24.27

>  <EState_VSA8>
13.85

>  <EState_VSA9>
5.11

>  <EState_VSA10>
4.79

>  <VSA_EState1>
0

>  <VSA_EState2>
10.76

>  <VSA_EState3>
8.85

>  <VSA_EState4>
2.14

>  <VSA_EState5>
-0.56

>  <VSA_EState6>
7.87

>  <VSA_EState7>
1.04

>  <VSA_EState8>
6.06

>  <VSA_EState9>
0

>  <apol>
35.32

>  <bpol>
18.93

>  <nRing>
1

>  <nHRing>
0

>  <naRing>
1

>  <naHRing>
0

>  <nARing 2>
0

>  <nAHRing 2>
0

>  <nFRing>
0

>  <nFHRing>
0

>  <nFaRing>
0

>  <nFaHRing>
0

>  <nFARing 2>
0

>  <nFAHRing 2>
0

>  <nRot>
4

>  <SLogP>
3.07

>  <SMR>
61.03

>  <TopoPSA(NO)>
37.3

>  <TopoPSA>
37.3

>  <JGI1>
0.27

>  <JGI2>
0.09

>  <JGI3>
0.05

>  <JGI4>
0.05

>  <JGI5>
0.03

>  <Diameter>
9

>  <Radius>
5

>  <TMWC10>
97.72

>  <TSRW10>
46.27

>  <MW>
206.13

>  <AMW>
6.25

>  <WPath>
404

>  <WPol>
19

>  <Zagreb1>
70

>  <Zagreb2>
77

>  <mZagreb2>
3.39

>  <yes>


>  <nAR-cont>
0.336376

>  <nHA-cont>
0.92539861

>  <MWHBN>
0.139302655

>  <MWHBN-cont>
0.901610996

>  <TPSA-cont>
0.739622838

>  <pka_cont>
0.97

>  <yes.1>


>  <BBB_SCORE>
4.57843678

>  <MMFF94 Energy>
23.79

$$$$
Compound 279
Actelion Java MolfileCreator 2.0

  0  0  0  0  0  0              0 V3000
M  V30 BEGIN CTAB
M  V30 COUNTS 23 24 0 0 0
M  V30 BEGIN ATOM
M  V30 1 F 0.0 2.7889 -0.2388 0
M  V30 2 C -0.8318 1.9014 -0.8067 0
M  V30 3 C -1.1598 0.7146 -0.1411 0
M  V30 4 C -1.3421 2.1937 -2.0732 0
M  V30 5 N -0.6582 0.4364 1.1436 0
M  V30 6 C -2.0347 -0.1677 -0.7852 0
M  V30 7 C -2.2054 1.296 -2.6993 0
M  V30 8 C 0.4507 -0.2071 1.2313 0
M  V30 9 F -2.389 -1.3207 -0.196 0
M  V30 10 C -2.5526 0.1114 -2.0515 0
M  V30 11 N 1.0304 -0.5318 2.4196 0
M  V30 12 N 1.2838 -0.7014 0.2687 0
M  V30 13 C 2.2737 -1.2556 2.3105 0
M  V30 14 C 2.4553 -1.377 0.7857 0
M  V30 15 H -1.0625 3.125 -2.5567 0
M  V30 16 H -2.6094 1.5206 -3.6833 0
M  V30 17 H -3.2277 -0.5996 -2.518 0
M  V30 18 H 0.5966 -0.2705 3.2919 0
M  V30 19 H 1.0999 -0.6047 -0.7167 0
M  V30 20 H 3.0967 -0.6977 2.7668 0
M  V30 21 H 2.2004 -2.2396 2.7829 0
M  V30 22 H 3.3724 -0.882 0.4528 0
M  V30 23 H 2.4762 -2.4239 0.4688 0
M  V30 END ATOM
M  V30 BEGIN BOND
M  V30 1 1 1 2
M  V30 2 2 2 3
M  V30 3 1 2 4
M  V30 4 1 3 5
M  V30 5 1 3 6
M  V30 6 2 4 7
M  V30 7 2 5 8
M  V30 8 1 6 9
M  V30 9 2 6 10
M  V30 10 1 8 11
M  V30 11 1 8 12
M  V30 12 1 11 13
M  V30 13 1 12 14
M  V30 14 1 7 10
M  V30 15 1 13 14
M  V30 16 1 4 15
M  V30 17 1 7 16
M  V30 18 1 10 17
M  V30 19 1 11 18
M  V30 20 1 12 19
M  V30 21 1 13 20
M  V30 22 1 13 21
M  V30 23 1 14 22
M  V30 24 1 14 23
M  V30 END BOND
M  V30 END CTAB
M  END
>  <Column 1>
358

>  <level_0>
408

>  <index>
408

>  <Unnamed: 0>
408

>  <NO.>
410

>  <Name>
tz-3

>  <IUPAC_name>
n-(2-6-difluorophenyl)-4-5-dihydro-1h-imidazol-2-amine

>  <SMILES>
Fc1cccc(F)c1N=C1NCCN1

>  <CID>
12296941

>  <logBB>
-0.2

>  <BBB+/BBB->
BBB+

>  <Inchi>
InChI=1S/C9H9F2N3/c10-6-2-1-3-7(11)8(6)14-9-12-4-5-13-9/h1-3H-4-5H2-(H2-12-13-14)

>  <threshold>


>  <reference>
R4|R2|R2|R2|R2|R8|R25|R27|R27|R46|R40|

>  <group>
A

>  <Class>
1

>  <ABC>
10.74

>  <ABCGG>
9.87

>  <nAcid>
0

>  <nBase>
3

>  <nAromAtom>
6

>  <nAromBond>
6

>  <nAtom>
23

>  <nHeavyAtom>
14

>  <nSpiro>
0

>  <nBridgehead>
0

>  <nHetero>
5

>  <nN>
3

>  <nO>
0

>  <nF>
2

>  <BalabanJ>
1.86

>  <BertzCT>
348.07

>  <nBonds>
24

>  <nBondsO>
15

>  <nBondsS>
17

>  <nBondsD>
1

>  <nBondsT>
0

>  <nBondsA>
6

>  <nBondsM>
7

>  <nBondsKS>
20

>  <nBondsKD>
4

>  <RNCG>
0.25

>  <RPCG>
0.14

>  <FCSP3>
0.22

>  <SZ>
17

>  <Sm>
16.42

>  <Sv>
15.01

>  <Sse>
23.9

>  <Sp>
15.24

>  <Si>
26.84

>  <MZ>
0.74

>  <Mm>
0.71

>  <Mv>
0.65

>  <Mse>
1.04

>  <Mp>
0.66

>  <Mi>
1.17

>  <NsCH3>
0

>  <NdCH2>
0

>  <NssCH2>
2

>  <NtCH>
0

>  <NdsCH>
0

>  <NaaCH>
3

>  <NsssCH>
0

>  <NddC>
0

>  <NtsC>
0

>  <NdssC>
1

>  <NaasC>
3

>  <NaaaC>
0

>  <NssssC>
0

>  <NsNH3>
0

>  <NsNH2>
0

>  <NssNH2>
0

>  <NdNH>
0

>  <NssNH>
2

>  <NaaNH>
0

>  <NtN>
0

>  <NsssNH>
0

>  <NdsN>
1

>  <NaaN>
0

>  <NsssN>
0

>  <NddsN>
0

>  <NaasN>
0

>  <NssssN>
0

>  <NsOH>
0

>  <NdO>
0

>  <NssO>
0

>  <NaaO>
0

>  <NsF>
2

>  <NsSiH3>
0

>  <NssSiH2>
0

>  <NsssSiH>
0

>  <NssssSi>
0

>  <NsPH2>
0

>  <NssPH>
0

>  <NsssP>
0

>  <NdsssP>
0

>  <NsssssP>
0

>  <NsSH>
0

>  <NdS>
0

>  <NssS>
0

>  <NaaS>
0

>  <NdssS>
0

>  <NddssS>
0

>  <NsCl>
0

>  <NsBr>
0

>  <NsI>
0

>  <fragCpx>
43.05

>  <fMF>
0.52

>  <nHBAcc>
1

>  <nHBDon>
2

>  <Kier1>
10.52

>  <Kier2>
4.68

>  <Lipinski>
1

>  <GhoseFilter>
1

>  <FilterItLogS>
-3.47

>  <VMcGowan>
132.21

>  <LabuteASA>
79.85

>  <PEOE_VSA1>
10.63

>  <PEOE_VSA2>
0

>  <PEOE_VSA3>
13.77

>  <PEOE_VSA4>
0

>  <PEOE_VSA5>
0

>  <PEOE_VSA6>
6.07

>  <PEOE_VSA7>
12.13

>  <PEOE_VSA8>
13.09

>  <PEOE_VSA9>
0

>  <PEOE_VSA10>
5.69

>  <PEOE_VSA11>
17.59

>  <PEOE_VSA12>
0

>  <PEOE_VSA13>
0

>  <SMR_VSA1>
8.78

>  <SMR_VSA2>
0

>  <SMR_VSA3>
10.63

>  <SMR_VSA4>
4.99

>  <SMR_VSA5>
0

>  <SMR_VSA6>
13.09

>  <SMR_VSA7>
29.83

>  <SMR_VSA8>
0

>  <SMR_VSA9>
0

>  <SlogP_VSA1>
10.63

>  <SlogP_VSA2>
19.05

>  <SlogP_VSA3>
0

>  <SlogP_VSA4>
11.63

>  <SlogP_VSA5>
0

>  <SlogP_VSA6>
23.19

>  <SlogP_VSA7>
0

>  <SlogP_VSA8>
0

>  <SlogP_VSA9>
0

>  <SlogP_VSA10>
14.47

>  <SlogP_VSA11>
0

>  <EState_VSA1>
11.63

>  <EState_VSA2>
5.69

>  <EState_VSA3>
5.96

>  <EState_VSA4>
13.09

>  <EState_VSA5>
18.2

>  <EState_VSA6>
0

>  <EState_VSA7>
0

>  <EState_VSA8>
15.63

>  <EState_VSA9>
0

>  <EState_VSA10>
8.78

>  <VSA_EState1>
26.2

>  <VSA_EState2>
3.8

>  <VSA_EState3>
5.73

>  <VSA_EState4>
-0.26

>  <VSA_EState5>
-0.91

>  <VSA_EState6>
3.67

>  <VSA_EState7>
0

>  <VSA_EState8>
1.43

>  <VSA_EState9>
0

>  <apol>
25.45

>  <bpol>
13.53

>  <nRing>
2

>  <nHRing>
1

>  <naRing>
1

>  <naHRing>
0

>  <nARing 2>
1

>  <nAHRing 2>
1

>  <nFRing>
0

>  <nFHRing>
0

>  <nFaRing>
0

>  <nFaHRing>
0

>  <nFARing 2>
0

>  <nFAHRing 2>
0

>  <nRot>
1

>  <SLogP>
1.15

>  <SMR>
49.46

>  <TopoPSA(NO)>
36.42

>  <TopoPSA>
36.42

>  <JGI1>
0.17

>  <JGI2>
0.08

>  <JGI3>
0.05

>  <JGI4>
0.05

>  <JGI5>
0.01

>  <Diameter>
7

>  <Radius>
4

>  <TMWC10>
97.55

>  <TSRW10>
58.5

>  <MW>
197.08

>  <AMW>
8.57

>  <WPath>
301

>  <WPol>
17

>  <Zagreb1>
70

>  <Zagreb2>
80

>  <mZagreb2>
3.14

>  <yes>


>  <nAR-cont>
0.816016

>  <nHA-cont>
0.887625254

>  <MWHBN>
0.213697764

>  <MWHBN-cont>
0.998167355

>  <TPSA-cont>
0.745765785

>  <pka_cont>
0.97

>  <yes.1>


>  <BBB_SCORE>
5.177423856

>  <MMFF94 Energy>
-34.357

$$$$
Compound 280
Actelion Java MolfileCreator 2.0

  0  0  0  0  0  0              0 V3000
M  V30 BEGIN CTAB
M  V30 COUNTS 22 22 0 0 0
M  V30 BEGIN ATOM
M  V30 1 N -2.8675 -0.2322 -0.9293 0
M  V30 2 N -3.9649 -0.6301 -0.075 0
M  V30 3 C -1.622 -0.2387 -0.1401 0
M  V30 4 C -0.4343 0.1622 -1.024 0
M  V30 5 C 0.8612 0.178 -0.2493 0
M  V30 6 C 1.2956 1.3505 0.3835 0
M  V30 7 C 1.6318 -0.986 -0.1286 0
M  V30 8 C 2.4841 1.3601 1.115 0
M  V30 9 C 2.82 -0.9742 0.6035 0
M  V30 10 C 3.2462 0.1985 1.2242 0
M  V30 11 H -2.7547 -0.8927 -1.7066 0
M  V30 12 H -4.1047 0.0523 0.6772 0
M  V30 13 H -4.8482 -0.6192 -0.5947 0
M  V30 14 H -1.7087 0.4657 0.6972 0
M  V30 15 H -1.4493 -1.2371 0.2825 0
M  V30 16 H -0.3384 -0.5296 -1.8711 0
M  V30 17 H -0.6061 1.1536 -1.4636 0
M  V30 18 H 0.7095 2.264 0.3101 0
M  V30 19 H 1.3106 -1.91 -0.6042 0
M  V30 20 H 2.8148 2.2744 1.6008 0
M  V30 21 H 3.4128 -1.8809 0.6905 0
M  V30 22 H 4.1713 0.2068 1.7943 0
M  V30 END ATOM
M  V30 BEGIN BOND
M  V30 1 1 1 2
M  V30 2 1 1 3
M  V30 3 1 3 4
M  V30 4 1 4 5
M  V30 5 2 5 6
M  V30 6 1 5 7
M  V30 7 1 6 8
M  V30 8 2 7 9
M  V30 9 2 8 10
M  V30 10 1 9 10
M  V30 11 1 1 11
M  V30 12 1 2 12
M  V30 13 1 2 13
M  V30 14 1 3 14
M  V30 15 1 3 15
M  V30 16 1 4 16
M  V30 17 1 4 17
M  V30 18 1 6 18
M  V30 19 1 7 19
M  V30 20 1 8 20
M  V30 21 1 9 21
M  V30 22 1 10 22
M  V30 END BOND
M  V30 END CTAB
M  END
>  <Column 1>
359

>  <level_0>
409

>  <index>
409

>  <Unnamed: 0>
409

>  <NO.>
411

>  <Name>
phenelzine

>  <IUPAC_name>
2-phenylethylhydrazine

>  <SMILES>
NNCCc1ccccc1

>  <CID>
3675

>  <logBB>
-0.2

>  <BBB+/BBB->
BBB+

>  <Inchi>
InChI=1S/C8H12N2/c9-10-7-6-8-4-2-1-3-5-8/h1-5-10H-6-7-9H2

>  <threshold>


>  <reference>
R25|

>  <group>
A

>  <Class>
1

>  <ABC>
7.07

>  <ABCGG>
6.55

>  <nAcid>
0

>  <nBase>
0

>  <nAromAtom>
6

>  <nAromBond>
6

>  <nAtom>
22

>  <nHeavyAtom>
10

>  <nSpiro>
0

>  <nBridgehead>
0

>  <nHetero>
2

>  <nN>
2

>  <nO>
0

>  <nF>
0

>  <BalabanJ>
2.02

>  <BertzCT>
171.87

>  <nBonds>
22

>  <nBondsO>
10

>  <nBondsS>
16

>  <nBondsD>
0

>  <nBondsT>
0

>  <nBondsA>
6

>  <nBondsM>
6

>  <nBondsKS>
19

>  <nBondsKD>
3

>  <RNCG>
0.3

>  <RPCG>
0.16

>  <FCSP3>
0.25

>  <SZ>
12.33

>  <Sm>
11.34

>  <Sv>
12.77

>  <Sse>
21.65

>  <Sp>
14.11

>  <Si>
25.07

>  <MZ>
0.56

>  <Mm>
0.52

>  <Mv>
0.58

>  <Mse>
0.98

>  <Mp>
0.64

>  <Mi>
1.14

>  <NsCH3>
0

>  <NdCH2>
0

>  <NssCH2>
2

>  <NtCH>
0

>  <NdsCH>
0

>  <NaaCH>
5

>  <NsssCH>
0

>  <NddC>
0

>  <NtsC>
0

>  <NdssC>
0

>  <NaasC>
1

>  <NaaaC>
0

>  <NssssC>
0

>  <NsNH3>
0

>  <NsNH2>
1

>  <NssNH2>
0

>  <NdNH>
0

>  <NssNH>
1

>  <NaaNH>
0

>  <NtN>
0

>  <NsssNH>
0

>  <NdsN>
0

>  <NaaN>
0

>  <NsssN>
0

>  <NddsN>
0

>  <NaasN>
0

>  <NssssN>
0

>  <NsOH>
0

>  <NdO>
0

>  <NssO>
0

>  <NaaO>
0

>  <NsF>
0

>  <NsSiH3>
0

>  <NssSiH2>
0

>  <NsssSiH>
0

>  <NssssSi>
0

>  <NsPH2>
0

>  <NssPH>
0

>  <NsssP>
0

>  <NdsssP>
0

>  <NsssssP>
0

>  <NsSH>
0

>  <NdS>
0

>  <NssS>
0

>  <NaaS>
0

>  <NdssS>
0

>  <NddssS>
0

>  <NsCl>
0

>  <NsBr>
0

>  <NsI>
0

>  <fragCpx>
10.02

>  <fMF>
0.27

>  <nHBAcc>
2

>  <nHBDon>
2

>  <Kier1>
8.1

>  <Kier2>
4.76

>  <Lipinski>
1

>  <GhoseFilter>
0

>  <FilterItLogS>
-2.11

>  <VMcGowan>
119.78

>  <LabuteASA>
61.02

>  <PEOE_VSA1>
0

>  <PEOE_VSA2>
11.27

>  <PEOE_VSA3>
0

>  <PEOE_VSA4>
0

>  <PEOE_VSA5>
0

>  <PEOE_VSA6>
30.33

>  <PEOE_VSA7>
11.98

>  <PEOE_VSA8>
6.54

>  <PEOE_VSA9>
0

>  <PEOE_VSA10>
0

>  <PEOE_VSA11>
0

>  <PEOE_VSA12>
0

>  <PEOE_VSA13>
0

>  <SMR_VSA1>
0

>  <SMR_VSA2>
0

>  <SMR_VSA3>
5.43

>  <SMR_VSA4>
5.84

>  <SMR_VSA5>
6.42

>  <SMR_VSA6>
6.54

>  <SMR_VSA7>
35.9

>  <SMR_VSA8>
0

>  <SMR_VSA9>
0

>  <SlogP_VSA1>
11.27

>  <SlogP_VSA2>
6.54

>  <SlogP_VSA3>
6.42

>  <SlogP_VSA4>
0

>  <SlogP_VSA5>
5.56

>  <SlogP_VSA6>
30.33

>  <SlogP_VSA7>
0

>  <SlogP_VSA8>
0

>  <SlogP_VSA9>
0

>  <SlogP_VSA10>
0

>  <SlogP_VSA11>
0

>  <EState_VSA1>
0

>  <EState_VSA2>
0

>  <EState_VSA3>
0

>  <EState_VSA4>
12.97

>  <EState_VSA5>
5.56

>  <EState_VSA6>
0

>  <EState_VSA7>
18.2

>  <EState_VSA8>
17.56

>  <EState_VSA9>
5.84

>  <EState_VSA10>
0

>  <VSA_EState1>
0

>  <VSA_EState2>
0

>  <VSA_EState3>
0

>  <VSA_EState4>
3.94

>  <VSA_EState5>
5.13

>  <VSA_EState6>
10.27

>  <VSA_EState7>
1

>  <VSA_EState8>
0.84

>  <VSA_EState9>
0

>  <apol>
23.56

>  <bpol>
10.9

>  <nRing>
1

>  <nHRing>
0

>  <naRing>
1

>  <naHRing>
0

>  <nARing 2>
0

>  <nAHRing 2>
0

>  <nFRing>
0

>  <nFHRing>
0

>  <nFaRing>
0

>  <nFaHRing>
0

>  <nFARing 2>
0

>  <nFAHRing 2>
0

>  <nRot>
3

>  <SLogP>
0.69

>  <SMR>
42.34

>  <TopoPSA(NO)>
38.05

>  <TopoPSA>
38.05

>  <JGI1>
0.1

>  <JGI2>
0.04

>  <JGI3>
0.02

>  <JGI4>
0.03

>  <JGI5>
0.02

>  <Diameter>
7

>  <Radius>
4

>  <TMWC10>
80.91

>  <TSRW10>
38.13

>  <MW>
136.1

>  <AMW>
6.19

>  <WPath>
133

>  <WPol>
9

>  <Zagreb1>
42

>  <Zagreb2>
44

>  <mZagreb2>
2.5

>  <yes>


>  <nAR-cont>
0.336376

>  <nHA-cont>
0.645914733

>  <MWHBN>
0.342871138

>  <MWHBN-cont>
0.696653304

>  <TPSA-cont>
0.734387372

>  <pka_cont>
0.97

>  <yes.1>


>  <BBB_SCORE>
3.981045434

>  <MMFF94 Energy>
69.749

$$$$
Compound 281
Actelion Java MolfileCreator 2.0

  0  0  0  0  0  0              0 V3000
M  V30 BEGIN CTAB
M  V30 COUNTS 64 68 0 0 0
M  V30 BEGIN ATOM
M  V30 1 O 5.7484 0.239 -0.478 0
M  V30 2 C 4.7387 -0.1693 -1.0449 0
M  V30 3 N 3.6689 0.6033 -1.4677 0
M  V30 4 C 4.57 -1.6514 -1.3722 0
M  V30 5 C 3.4534 1.9701 -1.2136 0
M  V30 6 C 3.2268 -2.2012 -0.9414 0
M  V30 7 C 2.1233 2.4118 -1.2902 0
M  V30 8 C 4.4755 2.8671 -0.9031 0
M  V30 9 C 2.8813 -2.2347 0.4165 0
M  V30 10 C 2.2883 -2.6238 -1.8894 0
M  V30 11 C 1.8596 3.7601 -1.0092 0
M  V30 12 C 4.1972 4.2183 -0.6385 0
M  V30 13 C 1.6076 -2.6493 0.8196 0
M  V30 14 C 1.0166 -3.0337 -1.4824 0
M  V30 15 N 0.6909 4.4837 -0.958 0
M  V30 16 C 2.8652 4.6634 -0.6846 0
M  V30 17 C 0.6638 -3.0355 -0.1308 0
M  V30 18 N 0.8672 5.78 -0.6303 0
M  V30 19 C -0.6487 3.975 -1.2042 0
M  V30 20 C 2.1893 5.8848 -0.4716 0
M  V30 21 O -0.6222 -3.4235 0.1209 0
M  V30 22 C -1.204 3.2475 0.0271 0
M  V30 23 C -1.0582 -3.392 1.4811 0
M  V30 24 N -2.4835 2.5603 -0.2514 0
M  V30 25 C -2.5207 -3.7684 1.5546 0
M  V30 26 C -3.1495 2.1467 0.9959 0
M  V30 27 C -2.2974 1.2907 -0.976 0
M  V30 28 C -3.3802 -3.0937 2.4347 0
M  V30 29 C -3.0333 -4.8287 0.7925 0
M  V30 30 C -2.5256 0.8147 1.3831 0
M  V30 31 C -2.0006 0.2331 0.0788 0
M  V30 32 C -4.7257 -3.4546 2.53 0
M  V30 33 C -4.3786 -5.1885 0.889 0
M  V30 34 C -5.2247 -4.5001 1.7559 0
M  V30 35 H 2.8908 0.1065 -1.8844 0
M  V30 36 H 5.3634 -2.2188 -0.8715 0
M  V30 37 H 4.7154 -1.7759 -2.4518 0
M  V30 38 H 1.3149 1.7285 -1.5283 0
M  V30 39 H 5.5123 2.5434 -0.8609 0
M  V30 40 H 3.5979 -1.9165 1.1732 0
M  V30 41 H 2.5283 -2.6254 -2.9506 0
M  V30 42 H 5.005 4.9015 -0.3923 0
M  V30 43 H 1.3878 -2.6481 1.8822 0
M  V30 44 H 0.2882 -3.3485 -2.2267 0
M  V30 45 H -1.2878 4.8229 -1.4782 0
M  V30 46 H -0.5798 3.322 -2.0801 0
M  V30 47 H 2.6097 6.8446 -0.201 0
M  V30 48 H -0.4615 2.5516 0.4377 0
M  V30 49 H -1.3655 4.0094 0.802 0
M  V30 50 H -0.9285 -2.3794 1.8831 0
M  V30 51 H -0.4869 -4.11 2.0819 0
M  V30 52 H -3.084 2.8903 1.7977 0
M  V30 53 H -4.2175 2.0038 0.7875 0
M  V30 54 H -3.2384 1.0434 -1.4837 0
M  V30 55 H -1.5261 1.3252 -1.7514 0
M  V30 56 H -3.0088 -2.2795 3.0529 0
M  V30 57 H -2.3837 -5.3779 0.1137 0
M  V30 58 H -3.2552 0.1526 1.8594 0
M  V30 59 H -1.6967 0.9624 2.0849 0
M  V30 60 H -2.4862 -0.7175 -0.1635 0
M  V30 61 H -0.923 0.0499 0.1582 0
M  V30 62 H -5.3848 -2.9215 3.2106 0
M  V30 63 H -4.7652 -6.0074 0.2878 0
M  V30 64 H -6.272 -4.781 1.8305 0
M  V30 END ATOM
M  V30 BEGIN BOND
M  V30 1 2 1 2
M  V30 2 1 2 3
M  V30 3 1 2 4
M  V30 4 1 3 5
M  V30 5 1 4 6
M  V30 6 2 5 7
M  V30 7 1 5 8
M  V30 8 2 6 9
M  V30 9 1 6 10
M  V30 10 1 7 11
M  V30 11 2 8 12
M  V30 12 1 9 13
M  V30 13 2 10 14
M  V30 14 1 11 15
M  V30 15 2 11 16
M  V30 16 2 13 17
M  V30 17 1 15 18
M  V30 18 1 15 19
M  V30 19 1 16 20
M  V30 20 1 17 21
M  V30 21 1 19 22
M  V30 22 1 21 23
M  V30 23 1 22 24
M  V30 24 1 23 25
M  V30 25 1 24 26
M  V30 26 1 24 27
M  V30 27 2 25 28
M  V30 28 1 25 29
M  V30 29 1 26 30
M  V30 30 1 27 31
M  V30 31 1 28 32
M  V30 32 2 29 33
M  V30 33 2 32 34
M  V30 34 1 12 16
M  V30 35 1 14 17
M  V30 36 2 18 20
M  V30 37 1 30 31
M  V30 38 1 33 34
M  V30 39 1 3 35
M  V30 40 1 4 36
M  V30 41 1 4 37
M  V30 42 1 7 38
M  V30 43 1 8 39
M  V30 44 1 9 40
M  V30 45 1 10 41
M  V30 46 1 12 42
M  V30 47 1 13 43
M  V30 48 1 14 44
M  V30 49 1 19 45
M  V30 50 1 19 46
M  V30 51 1 20 47
M  V30 52 1 22 48
M  V30 53 1 22 49
M  V30 54 1 23 50
M  V30 55 1 23 51
M  V30 56 1 26 52
M  V30 57 1 26 53
M  V30 58 1 27 54
M  V30 59 1 27 55
M  V30 60 1 28 56
M  V30 61 1 29 57
M  V30 62 1 30 58
M  V30 63 1 30 59
M  V30 64 1 31 60
M  V30 65 1 31 61
M  V30 66 1 32 62
M  V30 67 1 33 63
M  V30 68 1 34 64
M  V30 END BOND
M  V30 END CTAB
M  END
>  <Column 1>
360

>  <level_0>
410

>  <index>
410

>  <Unnamed: 0>
410

>  <NO.>
412

>  <Name>
indole-based mchr1 antagonist(7a)

>  <IUPAC_name>
2-(4-phenylmethoxyphenyl)-n-[1-(2-pyrrolidin-1-ylethyl)indazol-6-yl]acetamide

>  <SMILES>
O=C(Cc1ccc(OCc2ccccc2)cc1)Nc1ccc2cnn(CCN3CCCC3)c2c1

>  <CID>
11775399

>  <logBB>
-0.2

>  <BBB+/BBB->
BBB+

>  <Inchi>
InChI=1S/C28H30N4O2/c33-28(18-22-8-12-26(13-9-22)34-21-23-6-2-1-3-7-23)30-25-11-10-24-20-29-32(27(24)19-25)17-16-31-14-4-5-15-31/h1-3-6-13-19-20H-4-5-14-18-21H2-(H-30-33)

>  <threshold>


>  <reference>
R2|R2|R20|R25|R27|R46|

>  <group>
A

>  <Class>
1

>  <ABC>
26.9

>  <ABCGG>
18.82

>  <nAcid>
0

>  <nBase>
1

>  <nAromAtom>
21

>  <nAromBond>
22

>  <nAtom>
64

>  <nHeavyAtom>
34

>  <nSpiro>
0

>  <nBridgehead>
0

>  <nHetero>
6

>  <nN>
4

>  <nO>
2

>  <nF>
0

>  <BalabanJ>
0.98

>  <BertzCT>
1228.5

>  <nBonds>
68

>  <nBondsO>
38

>  <nBondsS>
45

>  <nBondsD>
1

>  <nBondsT>
0

>  <nBondsA>
22

>  <nBondsM>
23

>  <nBondsKS>
57

>  <nBondsKD>
11

>  <RNCG>
0.19

>  <RPCG>
0.09

>  <FCSP3>
0.29

>  <SZ>
40.33

>  <Sm>
37.85

>  <Sv>
40.59

>  <Sse>
63.63

>  <Sp>
43.57

>  <Si>
71.81

>  <MZ>
0.63

>  <Mm>
0.59

>  <Mv>
0.63

>  <Mse>
0.99

>  <Mp>
0.68

>  <Mi>
1.12

>  <NsCH3>
0

>  <NdCH2>
0

>  <NssCH2>
8

>  <NtCH>
0

>  <NdsCH>
0

>  <NaaCH>
13

>  <NsssCH>
0

>  <NddC>
0

>  <NtsC>
0

>  <NdssC>
1

>  <NaasC>
4

>  <NaaaC>
2

>  <NssssC>
0

>  <NsNH3>
0

>  <NsNH2>
0

>  <NssNH2>
0

>  <NdNH>
0

>  <NssNH>
1

>  <NaaNH>
0

>  <NtN>
0

>  <NsssNH>
0

>  <NdsN>
0

>  <NaaN>
1

>  <NsssN>
1

>  <NddsN>
0

>  <NaasN>
1

>  <NssssN>
0

>  <NsOH>
0

>  <NdO>
1

>  <NssO>
1

>  <NaaO>
0

>  <NsF>
0

>  <NsSiH3>
0

>  <NssSiH2>
0

>  <NsssSiH>
0

>  <NssssSi>
0

>  <NsPH2>
0

>  <NssPH>
0

>  <NsssP>
0

>  <NdsssP>
0

>  <NsssssP>
0

>  <NsSH>
0

>  <NdS>
0

>  <NssS>
0

>  <NaaS>
0

>  <NdssS>
0

>  <NddssS>
0

>  <NsCl>
0

>  <NsBr>
0

>  <NsI>
0

>  <fragCpx>
322.06

>  <fMF>
0.52

>  <nHBAcc>
5

>  <nHBDon>
1

>  <Kier1>
25.64

>  <Kier2>
12.99

>  <Lipinski>
1

>  <GhoseFilter>
0

>  <FilterItLogS>
-6.83

>  <VMcGowan>
355.44

>  <LabuteASA>
199.7

>  <PEOE_VSA1>
14.95

>  <PEOE_VSA2>
9.48

>  <PEOE_VSA3>
0

>  <PEOE_VSA4>
5.1

>  <PEOE_VSA5>
0

>  <PEOE_VSA6>
42.46

>  <PEOE_VSA7>
67.39

>  <PEOE_VSA8>
17.62

>  <PEOE_VSA9>
24.68

>  <PEOE_VSA10>
12.36

>  <PEOE_VSA11>
0

>  <PEOE_VSA12>
5.91

>  <PEOE_VSA13>
0

>  <SMR_VSA1>
9.53

>  <SMR_VSA2>
0

>  <SMR_VSA3>
14.68

>  <SMR_VSA4>
0

>  <SMR_VSA5>
32.41

>  <SMR_VSA6>
24.95

>  <SMR_VSA7>
90.12

>  <SMR_VSA8>
0

>  <SMR_VSA9>
5.75

>  <SlogP_VSA1>
10.05

>  <SlogP_VSA2>
40.22

>  <SlogP_VSA3>
24.37

>  <SlogP_VSA4>
0

>  <SlogP_VSA5>
23.97

>  <SlogP_VSA6>
78.99

>  <SlogP_VSA7>
0

>  <SlogP_VSA8>
10.9

>  <SlogP_VSA9>
0

>  <SlogP_VSA10>
5.69

>  <SlogP_VSA11>
5.75

>  <EState_VSA1>
0

>  <EState_VSA2>
5.91

>  <EState_VSA3>
13.03

>  <EState_VSA4>
46.56

>  <EState_VSA5>
25.93

>  <EState_VSA6>
0

>  <EState_VSA7>
83.68

>  <EState_VSA8>
15.32

>  <EState_VSA9>
4.74

>  <EState_VSA10>
4.79

>  <VSA_EState1>
7.87

>  <VSA_EState2>
15.15

>  <VSA_EState3>
8.68

>  <VSA_EState4>
3.92

>  <VSA_EState5>
0.75

>  <VSA_EState6>
23.75

>  <VSA_EState7>
4.79

>  <VSA_EState8>
4.76

>  <VSA_EState9>
0

>  <apol>
72.77

>  <bpol>
36.69

>  <nRing>
5

>  <nHRing>
2

>  <naRing>
4

>  <naHRing>
1

>  <nARing 2>
1

>  <nAHRing 2>
1

>  <nFRing>
1

>  <nFHRing>
1

>  <nFaRing>
1

>  <nFaHRing>
1

>  <nFARing 2>
0

>  <nFAHRing 2>
0

>  <nRot>
9

>  <SLogP>
4.89

>  <SMR>
134.96

>  <TopoPSA(NO)>
59.39

>  <TopoPSA>
59.39

>  <JGI1>
0.16

>  <JGI2>
0.05

>  <JGI3>
0.03

>  <JGI4>
0.03

>  <JGI5>
0.02

>  <Diameter>
21

>  <Radius>
11

>  <TMWC10>
149.22

>  <TSRW10>
85.6

>  <MW>
454.24

>  <AMW>
7.1

>  <WPath>
4412

>  <WPol>
46

>  <Zagreb1>
178

>  <Zagreb2>
205

>  <mZagreb2>
7.47

>  <yes>


>  <nAR-cont>
0.816016

>  <nHA-cont>
0.568589513

>  <MWHBN>
0.281519552

>  <MWHBN-cont>
0.892205945

>  <TPSA-cont>
0.585420921

>  <pka_cont>
0.97

>  <yes.1>


>  <BBB_SCORE>
4.378756272

>  <MMFF94 Energy>
94.971

$$$$
Compound 282
Actelion Java MolfileCreator 2.0

  0  0  0  0  0  0              0 V3000
M  V30 BEGIN CTAB
M  V30 COUNTS 46 48 0 0 0
M  V30 BEGIN ATOM
M  V30 1 O -3.4062 0.3164 -0.4747 0
M  V30 2 C -2.4412 -0.2193 -1.0071 0
M  V30 3 O -2.4649 -1.4718 -1.5314 0
M  V30 4 N -1.2029 0.3831 -1.1383 0
M  V30 5 C -3.6919 -2.1937 -1.3825 0
M  V30 6 C -0.0395 -0.2597 -1.7359 0
M  V30 7 C -0.9858 1.7253 -0.6189 0
M  V30 8 C -3.5766 -3.1351 -0.2117 0
M  V30 9 C 1.1082 -0.3138 -0.7298 0
M  V30 10 C 0.1405 1.722 0.4118 0
M  V30 11 C -2.9861 -4.397 -0.3658 0
M  V30 12 C -4.0207 -2.7431 1.0586 0
M  V30 13 C 1.4218 1.0824 -0.1598 0
M  V30 14 C -2.8629 -5.2582 0.7257 0
M  V30 15 C -3.8961 -3.6051 2.149 0
M  V30 16 C 2.5271 0.9812 0.9031 0
M  V30 17 C -3.32 -4.8629 1.9818 0
M  V30 18 N 2.9597 2.2868 1.3437 0
M  V30 19 C 3.8092 3.1444 0.7031 0
M  V30 20 N 3.9309 4.3482 1.284 0
M  V30 21 C 4.5039 2.8299 -0.4453 0
M  V30 22 C 4.7541 5.2295 0.6953 0
M  V30 23 C 5.3218 3.8082 -0.9668 0
M  V30 24 N 5.4673 5.0237 -0.4184 0
M  V30 25 H -3.8471 -2.7679 -2.3034 0
M  V30 26 H -4.568 -1.5405 -1.2884 0
M  V30 27 H 0.2489 0.333 -2.6119 0
M  V30 28 H -0.265 -1.2699 -2.0877 0
M  V30 29 H -1.8978 2.1296 -0.1685 0
M  V30 30 H -0.7258 2.3695 -1.4672 0
M  V30 31 H 1.9984 -0.7308 -1.2149 0
M  V30 32 H 0.8375 -0.9926 0.0893 0
M  V30 33 H 0.3349 2.7514 0.7332 0
M  V30 34 H -0.1845 1.1618 1.2981 0
M  V30 35 H -2.6162 -4.7136 -1.3383 0
M  V30 36 H -4.4615 -1.7579 1.2043 0
M  V30 37 H 1.7733 1.7122 -0.988 0
M  V30 38 H -2.4075 -6.2364 0.597 0
M  V30 39 H -4.2457 -3.292 3.1294 0
M  V30 40 H 3.3785 0.3993 0.5312 0
M  V30 41 H 2.1464 0.4333 1.7738 0
M  V30 42 H -3.223 -5.533 2.8318 0
M  V30 43 H 2.542 2.6895 2.175 0
M  V30 44 H 4.4284 1.8674 -0.9282 0
M  V30 45 H 4.8492 6.2006 1.1681 0
M  V30 46 H 5.9003 3.6319 -1.8685 0
M  V30 END ATOM
M  V30 BEGIN BOND
M  V30 1 2 1 2
M  V30 2 1 2 3
M  V30 3 1 2 4
M  V30 4 1 3 5
M  V30 5 1 4 6
M  V30 6 1 4 7
M  V30 7 1 5 8
M  V30 8 1 6 9
M  V30 9 1 7 10
M  V30 10 2 8 11
M  V30 11 1 8 12
M  V30 12 1 9 13
M  V30 13 1 11 14
M  V30 14 2 12 15
M  V30 15 1 13 16
M  V30 16 2 14 17
M  V30 17 1 16 18
M  V30 18 1 18 19
M  V30 19 2 19 20
M  V30 20 1 19 21
M  V30 21 1 20 22
M  V30 22 2 21 23
M  V30 23 2 22 24
M  V30 24 1 10 13
M  V30 25 1 15 17
M  V30 26 1 23 24
M  V30 27 1 5 25
M  V30 28 1 5 26
M  V30 29 1 6 27
M  V30 30 1 6 28
M  V30 31 1 7 29
M  V30 32 1 7 30
M  V30 33 1 9 31
M  V30 34 1 9 32
M  V30 35 1 10 33
M  V30 36 1 10 34
M  V30 37 1 11 35
M  V30 38 1 12 36
M  V30 39 1 13 37
M  V30 40 1 14 38
M  V30 41 1 15 39
M  V30 42 1 16 40
M  V30 43 1 16 41
M  V30 44 1 17 42
M  V30 45 1 18 43
M  V30 46 1 21 44
M  V30 47 1 22 45
M  V30 48 1 23 46
M  V30 END BOND
M  V30 END CTAB
M  END
>  <Column 1>
361

>  <level_0>
411

>  <index>
411

>  <Unnamed: 0>
411

>  <NO.>
413

>  <Name>
liv-21

>  <IUPAC_name>
benzyl 4-[(pyrimidin-4-ylamino)methyl]piperidine-1-carboxylate

>  <SMILES>
O=C(OCc1ccccc1)N1CCC(CNc2ccncn2)CC1

>  <CID>
10268255

>  <logBB>
-0.2

>  <BBB+/BBB->
BBB+

>  <Inchi>
InChI=1S/C18H22N4O2/c23-18(24-13-16-4-2-1-3-5-16)22-10-7-15(8-11-22)12-20-17-6-9-19-14-21-17/h1-6-9-14-15H-7-8-10-13H2-(H-19-20-21)

>  <threshold>


>  <reference>
R18|R26|R27|

>  <group>
A

>  <Class>
1

>  <ABC>
18.45

>  <ABCGG>
13.41

>  <nAcid>
0

>  <nBase>
0

>  <nAromAtom>
12

>  <nAromBond>
12

>  <nAtom>
46

>  <nHeavyAtom>
24

>  <nSpiro>
0

>  <nBridgehead>
0

>  <nHetero>
6

>  <nN>
4

>  <nO>
2

>  <nF>
0

>  <BalabanJ>
1.27

>  <BertzCT>
627.98

>  <nBonds>
48

>  <nBondsO>
26

>  <nBondsS>
35

>  <nBondsD>
1

>  <nBondsT>
0

>  <nBondsA>
12

>  <nBondsM>
13

>  <nBondsKS>
41

>  <nBondsKD>
7

>  <RNCG>
0.2

>  <RPCG>
0.19

>  <FCSP3>
0.39

>  <SZ>
29

>  <Sm>
27.18

>  <Sv>
28.42

>  <Sse>
46.08

>  <Sp>
30.38

>  <Si>
52.15

>  <MZ>
0.63

>  <Mm>
0.59

>  <Mv>
0.62

>  <Mse>
1

>  <Mp>
0.66

>  <Mi>
1.13

>  <NsCH3>
0

>  <NdCH2>
0

>  <NssCH2>
6

>  <NtCH>
0

>  <NdsCH>
0

>  <NaaCH>
8

>  <NsssCH>
1

>  <NddC>
0

>  <NtsC>
0

>  <NdssC>
1

>  <NaasC>
2

>  <NaaaC>
0

>  <NssssC>
0

>  <NsNH3>
0

>  <NsNH2>
0

>  <NssNH2>
0

>  <NdNH>
0

>  <NssNH>
1

>  <NaaNH>
0

>  <NtN>
0

>  <NsssNH>
0

>  <NdsN>
0

>  <NaaN>
2

>  <NsssN>
1

>  <NddsN>
0

>  <NaasN>
0

>  <NssssN>
0

>  <NsOH>
0

>  <NdO>
1

>  <NssO>
1

>  <NaaO>
0

>  <NsF>
0

>  <NsSiH3>
0

>  <NssSiH2>
0

>  <NsssSiH>
0

>  <NssssSi>
0

>  <NsPH2>
0

>  <NssPH>
0

>  <NsssP>
0

>  <NdsssP>
0

>  <NsssssP>
0

>  <NsSH>
0

>  <NdS>
0

>  <NssS>
0

>  <NaaS>
0

>  <NdssS>
0

>  <NddssS>
0

>  <NsCl>
0

>  <NsBr>
0

>  <NsI>
0

>  <fragCpx>
124.06

>  <fMF>
0.5

>  <nHBAcc>
5

>  <nHBDon>
1

>  <Kier1>
18.78

>  <Kier2>
10.22

>  <Lipinski>
1

>  <GhoseFilter>
1

>  <FilterItLogS>
-3.98

>  <VMcGowan>
253.46

>  <LabuteASA>
141.43

>  <PEOE_VSA1>
14.95

>  <PEOE_VSA2>
0

>  <PEOE_VSA3>
14.76

>  <PEOE_VSA4>
0

>  <PEOE_VSA5>
0

>  <PEOE_VSA6>
30.33

>  <PEOE_VSA7>
30.39

>  <PEOE_VSA8>
25.83

>  <PEOE_VSA9>
0

>  <PEOE_VSA10>
18.75

>  <PEOE_VSA11>
0

>  <PEOE_VSA12>
0

>  <PEOE_VSA13>
0

>  <SMR_VSA1>
9.53

>  <SMR_VSA2>
0

>  <SMR_VSA3>
14.87

>  <SMR_VSA4>
5.92

>  <SMR_VSA5>
19.45

>  <SMR_VSA6>
24.95

>  <SMR_VSA7>
54.49

>  <SMR_VSA8>
0

>  <SMR_VSA9>
0

>  <SlogP_VSA1>
5.32

>  <SlogP_VSA2>
40.6

>  <SlogP_VSA3>
11.34

>  <SlogP_VSA4>
5.92

>  <SlogP_VSA5>
18.41

>  <SlogP_VSA6>
48.92

>  <SlogP_VSA7>
0

>  <SlogP_VSA8>
0

>  <SlogP_VSA9>
0

>  <SlogP_VSA10>
10.61

>  <SlogP_VSA11>
0

>  <EState_VSA1>
0

>  <EState_VSA2>
6.09

>  <EState_VSA3>
12.52

>  <EState_VSA4>
43.86

>  <EState_VSA5>
6.33

>  <EState_VSA6>
11.1

>  <EState_VSA7>
36.4

>  <EState_VSA8>
15.28

>  <EState_VSA9>
4.74

>  <EState_VSA10>
4.79

>  <VSA_EState1>
5.39

>  <VSA_EState2>
21.98

>  <VSA_EState3>
3.32

>  <VSA_EState4>
1.01

>  <VSA_EState5>
1.38

>  <VSA_EState6>
11.61

>  <VSA_EState7>
4.98

>  <VSA_EState8>
2.67

>  <VSA_EState9>
0

>  <apol>
50.73

>  <bpol>
29.23

>  <nRing>
3

>  <nHRing>
2

>  <naRing>
2

>  <naHRing>
1

>  <nARing 2>
1

>  <nAHRing 2>
1

>  <nFRing>
0

>  <nFHRing>
0

>  <nFaRing>
0

>  <nFaHRing>
0

>  <nFARing 2>
0

>  <nFAHRing 2>
0

>  <nRot>
5

>  <SLogP>
2.94

>  <SMR>
91.45

>  <TopoPSA(NO)>
67.35

>  <TopoPSA>
67.35

>  <JGI1>
0.13

>  <JGI2>
0.06

>  <JGI3>
0.02

>  <JGI4>
0.03

>  <JGI5>
0.03

>  <Diameter>
16

>  <Radius>
8

>  <TMWC10>
122.27

>  <TSRW10>
57.78

>  <MW>
326.17

>  <AMW>
7.09

>  <WPath>
1680

>  <WPol>
31

>  <Zagreb1>
118

>  <Zagreb2>
132

>  <mZagreb2>
5.44

>  <yes>


>  <nAR-cont>
0.816016

>  <nHA-cont>
0.94700071

>  <MWHBN>
0.332222654

>  <MWHBN-cont>
0.735019189

>  <TPSA-cont>
0.529855178

>  <pka_cont>
0.97

>  <yes.1>


>  <BBB_SCORE>
4.41025585

>  <MMFF94 Energy>
-84.115

$$$$
Compound 283
Actelion Java MolfileCreator 2.0

  0  0  0  0  0  0              0 V3000
M  V30 BEGIN CTAB
M  V30 COUNTS 44 46 0 0 0
M  V30 BEGIN ATOM
M  V30 1 S -2.7886 -0.2387 -1.9912 0
M  V30 2 C -1.5744 0.1153 -0.887 0
M  V30 3 N -0.239 0.3567 -1.246 0
M  V30 4 N -1.7845 0.2082 0.4735 0
M  V30 5 C 0.1349 0.8001 -2.5948 0
M  V30 6 C 0.8824 -0.1152 -0.4252 0
M  V30 7 C -2.9976 -0.1315 1.2308 0
M  V30 8 C 1.2511 1.8427 -2.5644 0
M  V30 9 C 1.9692 0.9423 -0.3019 0
M  V30 10 C -3.0505 -1.6358 1.5356 0
M  V30 11 C -3.0749 0.6928 2.5251 0
M  V30 12 C 2.435 1.4762 -1.6618 0
M  V30 13 C -2.0149 -2.0608 2.5759 0
M  V30 14 C -2.0551 0.2552 3.5768 0
M  V30 15 C 3.4464 0.5847 -2.3238 0
M  V30 16 C -2.1368 -1.2413 3.8561 0
M  V30 17 N 3.1913 -0.6387 -2.8959 0
M  V30 18 C 4.8044 0.7632 -2.5072 0
M  V30 19 C 4.3696 -1.1289 -3.3819 0
M  V30 20 N 5.3626 -0.3025 -3.1594 0
M  V30 21 H -1.0428 0.6461 0.9982 0
M  V30 22 H -0.7229 1.2445 -3.1086 0
M  V30 23 H 0.4286 -0.0852 -3.167 0
M  V30 24 H 1.2699 -1.0189 -0.9081 0
M  V30 25 H 0.5607 -0.4377 0.5685 0
M  V30 26 H -3.8648 0.1338 0.617 0
M  V30 27 H 0.8175 2.7759 -2.1786 0
M  V30 28 H 1.5852 2.0565 -3.5867 0
M  V30 29 H 2.8134 0.5417 0.2719 0
M  V30 30 H 1.5632 1.7824 0.2773 0
M  V30 31 H -4.0506 -1.885 1.9129 0
M  V30 32 H -2.9033 -2.2241 0.623 0
M  V30 33 H -4.0814 0.5874 2.9502 0
M  V30 34 H -2.9347 1.7579 2.3048 0
M  V30 35 H 2.9688 2.4169 -1.4587 0
M  V30 36 H -2.1455 -3.1238 2.8083 0
M  V30 37 H -1.0056 -1.9488 2.1624 0
M  V30 38 H -1.0421 0.5095 3.2433 0
M  V30 39 H -2.2275 0.811 4.5056 0
M  V30 40 H -1.3445 -1.5296 4.5559 0
M  V30 41 H -3.0921 -1.4689 4.3449 0
M  V30 42 H 2.3023 -1.114 -2.9546 0
M  V30 43 H 5.4089 1.6075 -2.1999 0
M  V30 44 H 4.4396 -2.085 -3.883 0
M  V30 END ATOM
M  V30 BEGIN BOND
M  V30 1 2 1 2
M  V30 2 1 2 3
M  V30 3 1 2 4
M  V30 4 1 3 5
M  V30 5 1 3 6
M  V30 6 1 4 7
M  V30 7 1 5 8
M  V30 8 1 6 9
M  V30 9 1 7 10
M  V30 10 1 7 11
M  V30 11 1 8 12
M  V30 12 1 10 13
M  V30 13 1 11 14
M  V30 14 1 12 15
M  V30 15 1 13 16
M  V30 16 1 15 17
M  V30 17 2 15 18
M  V30 18 1 17 19
M  V30 19 1 18 20
M  V30 20 1 9 12
M  V30 21 1 14 16
M  V30 22 2 19 20
M  V30 23 1 4 21
M  V30 24 1 5 22
M  V30 25 1 5 23
M  V30 26 1 6 24
M  V30 27 1 6 25
M  V30 28 1 7 26
M  V30 29 1 8 27
M  V30 30 1 8 28
M  V30 31 1 9 29
M  V30 32 1 9 30
M  V30 33 1 10 31
M  V30 34 1 10 32
M  V30 35 1 11 33
M  V30 36 1 11 34
M  V30 37 1 12 35
M  V30 38 1 13 36
M  V30 39 1 13 37
M  V30 40 1 14 38
M  V30 41 1 14 39
M  V30 42 1 16 40
M  V30 43 1 16 41
M  V30 44 1 17 42
M  V30 45 1 18 43
M  V30 46 1 19 44
M  V30 END BOND
M  V30 END CTAB
M  END
>  <Column 1>
362

>  <level_0>
412

>  <index>
412

>  <Unnamed: 0>
412

>  <NO.>
414

>  <Name>
thioperamide

>  <IUPAC_name>
n-cyclohexyl-4-(1h-imidazol-5-yl)piperidine-1-carbothioamide

>  <SMILES>
S=C(NC1CCCCC1)N1CCC(c2cnc[nH]2)CC1

>  <CID>
3035905

>  <logBB>
-0.2

>  <BBB+/BBB->
BBB+

>  <Inchi>
InChI=1S/C15H24N4S/c20-15(18-13-4-2-1-3-5-13)19-8-6-12(7-9-19)14-10-16-11-17-14/h10-13H-1-9H2-(H-16-17)(H-18-20)

>  <threshold>


>  <reference>
R5|R8|R21|R27|R2|R2|R27|R35|R36|R39|R49|R3|R11|R12|R18|R20|R25|R26|R27|R38|R40|R41|R43|R46|R47|R48|

>  <group>
A

>  <Class>
1

>  <ABC>
15.58

>  <ABCGG>
12.5

>  <nAcid>
0

>  <nBase>
0

>  <nAromAtom>
5

>  <nAromBond>
5

>  <nAtom>
44

>  <nHeavyAtom>
20

>  <nSpiro>
0

>  <nBridgehead>
0

>  <nHetero>
5

>  <nN>
4

>  <nO>
0

>  <nF>
0

>  <BalabanJ>
1.4

>  <BertzCT>
417.09

>  <nBonds>
46

>  <nBondsO>
22

>  <nBondsS>
40

>  <nBondsD>
1

>  <nBondsT>
0

>  <nBondsA>
5

>  <nBondsM>
6

>  <nBondsKS>
43

>  <nBondsKD>
3

>  <RNCG>
0.22

>  <RPCG>
0.1

>  <FCSP3>
0.73

>  <SZ>
26.33

>  <Sm>
24.35

>  <Sv>
25.72

>  <Sse>
43.38

>  <Sp>
28.95

>  <Si>
50.07

>  <MZ>
0.6

>  <Mm>
0.55

>  <Mv>
0.58

>  <Mse>
0.99

>  <Mp>
0.66

>  <Mi>
1.14

>  <NsCH3>
0

>  <NdCH2>
0

>  <NssCH2>
9

>  <NtCH>
0

>  <NdsCH>
0

>  <NaaCH>
2

>  <NsssCH>
2

>  <NddC>
0

>  <NtsC>
0

>  <NdssC>
1

>  <NaasC>
1

>  <NaaaC>
0

>  <NssssC>
0

>  <NsNH3>
0

>  <NsNH2>
0

>  <NssNH2>
0

>  <NdNH>
0

>  <NssNH>
1

>  <NaaNH>
1

>  <NtN>
0

>  <NsssNH>
0

>  <NdsN>
0

>  <NaaN>
1

>  <NsssN>
1

>  <NddsN>
0

>  <NaasN>
0

>  <NssssN>
0

>  <NsOH>
0

>  <NdO>
0

>  <NssO>
0

>  <NaaO>
0

>  <NsF>
0

>  <NsSiH3>
0

>  <NssSiH2>
0

>  <NsssSiH>
0

>  <NssssSi>
0

>  <NsPH2>
0

>  <NssPH>
0

>  <NsssP>
0

>  <NdsssP>
0

>  <NsssssP>
0

>  <NsSH>
0

>  <NdS>
1

>  <NssS>
0

>  <NaaS>
0

>  <NdssS>
0

>  <NddssS>
0

>  <NsCl>
0

>  <NsBr>
0

>  <NsI>
0

>  <fragCpx>
104.05

>  <fMF>
0.43

>  <nHBAcc>
2

>  <nHBDon>
2

>  <Kier1>
14.92

>  <Kier2>
7.32

>  <Lipinski>
1

>  <GhoseFilter>
1

>  <FilterItLogS>
-3.06

>  <VMcGowan>
233

>  <LabuteASA>
125.9

>  <PEOE_VSA1>
15.2

>  <PEOE_VSA2>
0

>  <PEOE_VSA3>
4.98

>  <PEOE_VSA4>
0

>  <PEOE_VSA5>
0

>  <PEOE_VSA6>
19.26

>  <PEOE_VSA7>
37.9

>  <PEOE_VSA8>
36.94

>  <PEOE_VSA9>
6.33

>  <PEOE_VSA10>
0

>  <PEOE_VSA11>
5.11

>  <PEOE_VSA12>
0

>  <PEOE_VSA13>
0

>  <SMR_VSA1>
0

>  <SMR_VSA2>
0

>  <SMR_VSA3>
20.18

>  <SMR_VSA4>
0

>  <SMR_VSA5>
56.91

>  <SMR_VSA6>
13.09

>  <SMR_VSA7>
18.22

>  <SMR_VSA8>
0

>  <SMR_VSA9>
0

>  <SlogP_VSA1>
5.32

>  <SlogP_VSA2>
39.11

>  <SlogP_VSA3>
0

>  <SlogP_VSA4>
0

>  <SlogP_VSA5>
56.56

>  <SlogP_VSA6>
12.52

>  <SlogP_VSA7>
0

>  <SlogP_VSA8>
0

>  <SlogP_VSA9>
0

>  <SlogP_VSA10>
0

>  <SlogP_VSA11>
0

>  <EState_VSA1>
0

>  <EState_VSA2>
0

>  <EState_VSA3>
11.96

>  <EState_VSA4>
31.04

>  <EState_VSA5>
37.8

>  <EState_VSA6>
6.33

>  <EState_VSA7>
6.2

>  <EState_VSA8>
20.18

>  <EState_VSA9>
12.22

>  <EState_VSA10>
0

>  <VSA_EState1>
0

>  <VSA_EState2>
9.7

>  <VSA_EState3>
4.55

>  <VSA_EState4>
1.27

>  <VSA_EState5>
0.62

>  <VSA_EState6>
0.61

>  <VSA_EState7>
12.71

>  <VSA_EState8>
2.12

>  <VSA_EState9>
0

>  <apol>
48.35

>  <bpol>
29.3

>  <nRing>
3

>  <nHRing>
2

>  <naRing>
1

>  <naHRing>
1

>  <nARing 2>
2

>  <nAHRing 2>
1

>  <nFRing>
0

>  <nFHRing>
0

>  <nFaRing>
0

>  <nFaHRing>
0

>  <nFARing 2>
0

>  <nFAHRing 2>
0

>  <nRot>
2

>  <SLogP>
2.8

>  <SMR>
84.74

>  <TopoPSA(NO)>
43.95

>  <TopoPSA>
76.04

>  <JGI1>
0.14

>  <JGI2>
0.07

>  <JGI3>
0.03

>  <JGI4>
0.03

>  <JGI5>
0.03

>  <Diameter>
12

>  <Radius>
6

>  <TMWC10>
113.9

>  <TSRW10>
66.36

>  <MW>
292.17

>  <AMW>
6.64

>  <WPath>
914

>  <WPol>
26

>  <Zagreb1>
102

>  <Zagreb2>
117

>  <mZagreb2>
4.47

>  <yes>


>  <nAR-cont>
1

>  <nHA-cont>
0.999629945

>  <MWHBN>
0.234014184

>  <MWHBN-cont>
0.982454807

>  <TPSA-cont>
0.469193582

>  <pka_cont>
0.97

>  <yes.1>


>  <BBB_SCORE>
4.89669932

>  <MMFF94 Energy>
-42.362

$$$$
Compound 284
Actelion Java MolfileCreator 2.0

  0  0  0  0  0  0              0 V3000
M  V30 BEGIN CTAB
M  V30 COUNTS 29 29 0 0 0
M  V30 BEGIN ATOM
M  V30 1 O 0.078 2.6572 2.3443 0
M  V30 2 C 0.859 1.7229 2.292 0
M  V30 3 O 1.3249 1.1503 3.4171 0
M  V30 4 C 1.3919 1.0692 1.0429 0
M  V30 5 C 0.3901 0.1026 0.3295 0
M  V30 6 C 1.1509 -0.4721 -0.9015 0
M  V30 7 C -0.8519 0.9209 -0.121 0
M  V30 8 C 0.0275 -1.0108 1.3654 0
M  V30 9 C 0.2854 -1.0356 -2.0269 0
M  V30 10 C -1.6736 0.3273 -1.2628 0
M  V30 11 N -0.7889 -2.1283 0.9221 0
M  V30 12 C -0.8025 -0.0607 -2.4459 0
M  V30 13 H 0.8965 1.655 4.1405 0
M  V30 14 H 2.3172 0.5357 1.2993 0
M  V30 15 H 1.7022 1.8803 0.3709 0
M  V30 16 H 1.8656 -1.2391 -0.5771 0
M  V30 17 H 1.7582 0.3285 -1.3469 0
M  V30 18 H -1.5175 1.1021 0.732 0
M  V30 19 H -0.5173 1.9125 -0.4567 0
M  V30 20 H 0.9537 -1.4333 1.7748 0
M  V30 21 H -0.4987 -0.5608 2.2152 0
M  V30 22 H 0.9236 -1.2566 -2.891 0
M  V30 23 H -0.1662 -1.9878 -1.7369 0
M  V30 24 H -2.245 -0.5401 -0.922 0
M  V30 25 H -2.4159 1.0658 -1.5894 0
M  V30 26 H -1.6732 -1.8051 0.5413 0
M  V30 27 H -0.3148 -2.6548 0.1936 0
M  V30 28 H -1.4222 -0.5126 -3.2286 0
M  V30 29 H -0.3466 0.8377 -2.8796 0
M  V30 END ATOM
M  V30 BEGIN BOND
M  V30 1 2 1 2
M  V30 2 1 2 3
M  V30 3 1 2 4
M  V30 4 1 4 5
M  V30 5 1 5 6
M  V30 6 1 5 7
M  V30 7 1 5 8
M  V30 8 1 6 9
M  V30 9 1 7 10
M  V30 10 1 8 11
M  V30 11 1 9 12
M  V30 12 1 10 12
M  V30 13 1 3 13
M  V30 14 1 4 14
M  V30 15 1 4 15
M  V30 16 1 6 16
M  V30 17 1 6 17
M  V30 18 1 7 18
M  V30 19 1 7 19
M  V30 20 1 8 20
M  V30 21 1 8 21
M  V30 22 1 9 22
M  V30 23 1 9 23
M  V30 24 1 10 24
M  V30 25 1 10 25
M  V30 26 1 11 26
M  V30 27 1 11 27
M  V30 28 1 12 28
M  V30 29 1 12 29
M  V30 END BOND
M  V30 END CTAB
M  END
>  <Column 1>
363

>  <level_0>
413

>  <index>
413

>  <Unnamed: 0>
413

>  <NO.>
415

>  <Name>
gabapentin

>  <IUPAC_name>
2-[1-(aminomethyl)cyclohexyl]acetic acid

>  <SMILES>
NCC1(CC(=O)O)CCCCC1

>  <CID>
3446

>  <logBB>
-0.19

>  <BBB+/BBB->
BBB+

>  <Inchi>
InChI=1S/C9H17NO2/c10-7-9(6-8(11)12)4-2-1-3-5-9/h1-7-10H2-(H-11-12)

>  <threshold>


>  <reference>
R20|R2|R2|R25|R27|R46|

>  <group>
A

>  <Class>
1

>  <ABC>
8.7

>  <ABCGG>
8.39

>  <nAcid>
1

>  <nBase>
1

>  <nAromAtom>
0

>  <nAromBond>
0

>  <nAtom>
29

>  <nHeavyAtom>
12

>  <nSpiro>
0

>  <nBridgehead>
0

>  <nHetero>
3

>  <nN>
1

>  <nO>
2

>  <nF>
0

>  <BalabanJ>
2.48

>  <BertzCT>
161.91

>  <nBonds>
29

>  <nBondsO>
12

>  <nBondsS>
28

>  <nBondsD>
1

>  <nBondsT>
0

>  <nBondsA>
0

>  <nBondsM>
1

>  <nBondsKS>
28

>  <nBondsKD>
1

>  <RNCG>
0.36

>  <RPCG>
0.23

>  <FCSP3>
0.89

>  <SZ>
15.67

>  <Sm>
14.26

>  <Sv>
15.79

>  <Sse>
28.87

>  <Sp>
17.41

>  <Si>
33.24

>  <MZ>
0.54

>  <Mm>
0.49

>  <Mv>
0.54

>  <Mse>
1

>  <Mp>
0.6

>  <Mi>
1.15

>  <NsCH3>
0

>  <NdCH2>
0

>  <NssCH2>
7

>  <NtCH>
0

>  <NdsCH>
0

>  <NaaCH>
0

>  <NsssCH>
0

>  <NddC>
0

>  <NtsC>
0

>  <NdssC>
1

>  <NaasC>
0

>  <NaaaC>
0

>  <NssssC>
1

>  <NsNH3>
0

>  <NsNH2>
1

>  <NssNH2>
0

>  <NdNH>
0

>  <NssNH>
0

>  <NaaNH>
0

>  <NtN>
0

>  <NsssNH>
0

>  <NdsN>
0

>  <NaaN>
0

>  <NsssN>
0

>  <NddsN>
0

>  <NaasN>
0

>  <NssssN>
0

>  <NsOH>
1

>  <NdO>
1

>  <NssO>
0

>  <NaaO>
0

>  <NsF>
0

>  <NsSiH3>
0

>  <NssSiH2>
0

>  <NsssSiH>
0

>  <NssssSi>
0

>  <NsPH2>
0

>  <NssPH>
0

>  <NsssP>
0

>  <NdsssP>
0

>  <NsssssP>
0

>  <NsSH>
0

>  <NdS>
0

>  <NssS>
0

>  <NaaS>
0

>  <NdssS>
0

>  <NddssS>
0

>  <NsCl>
0

>  <NsBr>
0

>  <NsI>
0

>  <fragCpx>
12.03

>  <fMF>
0.21

>  <nHBAcc>
2

>  <nHBDon>
2

>  <Kier1>
10.08

>  <Kier2>
4.3

>  <Lipinski>
1

>  <GhoseFilter>
1

>  <FilterItLogS>
-1.35

>  <VMcGowan>
144.23

>  <LabuteASA>
72.95

>  <PEOE_VSA1>
10.84

>  <PEOE_VSA2>
4.79

>  <PEOE_VSA3>
0

>  <PEOE_VSA4>
0

>  <PEOE_VSA5>
0

>  <PEOE_VSA6>
19.26

>  <PEOE_VSA7>
24.8

>  <PEOE_VSA8>
0

>  <PEOE_VSA9>
6.42

>  <PEOE_VSA10>
0

>  <PEOE_VSA11>
0

>  <PEOE_VSA12>
0

>  <PEOE_VSA13>
0

>  <SMR_VSA1>
9.9

>  <SMR_VSA2>
0

>  <SMR_VSA3>
0

>  <SMR_VSA4>
11.15

>  <SMR_VSA5>
38.52

>  <SMR_VSA6>
6.54

>  <SMR_VSA7>
0

>  <SMR_VSA8>
0

>  <SMR_VSA9>
0

>  <SlogP_VSA1>
5.73

>  <SlogP_VSA2>
17.62

>  <SlogP_VSA3>
4.79

>  <SlogP_VSA4>
5.41

>  <SlogP_VSA5>
38.52

>  <SlogP_VSA6>
0

>  <SlogP_VSA7>
0

>  <SlogP_VSA8>
0

>  <SlogP_VSA9>
0

>  <SlogP_VSA10>
0

>  <SlogP_VSA11>
0

>  <EState_VSA1>
5.97

>  <EState_VSA2>
11.84

>  <EState_VSA3>
6.54

>  <EState_VSA4>
25.68

>  <EState_VSA5>
6.42

>  <EState_VSA6>
0

>  <EState_VSA7>
0

>  <EState_VSA8>
0

>  <EState_VSA9>
10.84

>  <EState_VSA10>
4.79

>  <VSA_EState1>
0

>  <VSA_EState2>
10.58

>  <VSA_EState3>
8.71

>  <VSA_EState4>
5.54

>  <VSA_EState5>
-0.71

>  <VSA_EState6>
0

>  <VSA_EState7>
5.77

>  <VSA_EState8>
0.53

>  <VSA_EState9>
0

>  <apol>
29.07

>  <bpol>
17.35

>  <nRing>
1

>  <nHRing>
0

>  <naRing>
0

>  <naHRing>
0

>  <nARing 2>
1

>  <nAHRing 2>
0

>  <nFRing>
0

>  <nFHRing>
0

>  <nFaRing>
0

>  <nFaHRing>
0

>  <nFARing 2>
0

>  <nFAHRing 2>
0

>  <nRot>
3

>  <SLogP>
1.37

>  <SMR>
46.83

>  <TopoPSA(NO)>
63.32

>  <TopoPSA>
63.32

>  <JGI1>
0.29

>  <JGI2>
0.07

>  <JGI3>
0.06

>  <JGI4>
0.05

>  <JGI5>
0.02

>  <Diameter>
6

>  <Radius>
3

>  <TMWC10>
90.37

>  <TSRW10>
42.5

>  <MW>
171.13

>  <AMW>
5.9

>  <WPath>
193

>  <WPol>
15

>  <Zagreb1>
56

>  <Zagreb2>
62

>  <mZagreb2>
2.83

>  <yes>


>  <nAR-cont>
0.816016

>  <nHA-cont>
0.785745021

>  <MWHBN>
0.305771438

>  <MWHBN-cont>
0.823159474

>  <TPSA-cont>
0.557987081

>  <pka_cont>
0.97

>  <yes.1>


>  <BBB_SCORE>
4.437474393

>  <MMFF94 Energy>
-10.281

$$$$
Compound 285
Actelion Java MolfileCreator 2.0

  0  0  0  0  0  0              0 V3000
M  V30 BEGIN CTAB
M  V30 COUNTS 29 29 0 0 0
M  V30 BEGIN ATOM
M  V30 1 O -1.2486 -1.7171 1.0143 0
M  V30 2 C -0.6255 -1.3636 0.0138 0
M  V30 3 N -1.2439 -1.1457 -1.2046 0
M  V30 4 C 0.8789 -1.0926 0.008 0 CFG=1
M  V30 5 C -2.6684 -1.3235 -1.3891 0
M  V30 6 C 1.1861 0.3997 0.0784 0
M  V30 7 C 1.6909 -1.867 1.0415 0
M  V30 8 C -3.4402 -0.0775 -0.9941 0
M  V30 9 C 2.1749 0.9482 -0.754 0
M  V30 10 C 0.5255 1.2434 0.9859 0
M  V30 11 O 2.8657 -2.1819 0.8491 0
M  V30 12 N 1.1035 -2.165 2.2331 0
M  V30 13 C 2.4757 2.31 -0.6981 0
M  V30 14 C 0.8278 2.6052 1.0378 0
M  V30 15 C 1.7996 3.1385 0.1943 0
M  V30 16 H -0.7019 -0.7742 -1.9757 0
M  V30 17 H 1.2331 -1.4694 -0.9638 0
M  V30 18 H -2.8332 -1.5498 -2.447 0
M  V30 19 H -3.0065 -2.1804 -0.7972 0
M  V30 20 H -4.5114 -0.2222 -1.1634 0
M  V30 21 H -3.2896 0.1627 0.0635 0
M  V30 22 H -3.1128 0.787 -1.581 0
M  V30 23 H 2.7306 0.315 -1.4432 0
M  V30 24 H -0.2296 0.8507 1.6648 0
M  V30 25 H 1.6402 -2.6579 2.9327 0
M  V30 26 H 0.1094 -2.0094 2.3884 0
M  V30 27 H 3.246 2.7225 -1.3446 0
M  V30 28 H 0.3084 3.2494 1.7429 0
M  V30 29 H 2.0379 4.1979 0.2406 0
M  V30 END ATOM
M  V30 BEGIN BOND
M  V30 1 2 1 2
M  V30 2 1 2 3
M  V30 3 1 2 4
M  V30 4 1 3 5
M  V30 5 1 4 6
M  V30 6 1 4 7
M  V30 7 1 5 8
M  V30 8 2 6 9
M  V30 9 1 6 10
M  V30 10 2 7 11
M  V30 11 1 7 12
M  V30 12 1 9 13
M  V30 13 2 10 14
M  V30 14 2 13 15
M  V30 15 1 14 15
M  V30 16 1 3 16
M  V30 17 1 4 17
M  V30 18 1 5 18
M  V30 19 1 5 19
M  V30 20 1 8 20
M  V30 21 1 8 21
M  V30 22 1 8 22
M  V30 23 1 9 23
M  V30 24 1 10 24
M  V30 25 1 12 25
M  V30 26 1 12 26
M  V30 27 1 13 27
M  V30 28 1 14 28
M  V30 29 1 15 29
M  V30 END BOND
M  V30 BEGIN COLLECTION
M  V30 MDLV30/STERAC1 ATOMS=(1 4)
M  V30 END COLLECTION
M  V30 END CTAB
M  END
>  <Column 1>
364

>  <level_0>
414

>  <index>
414

>  <Unnamed: 0>
414

>  <NO.>
416

>  <Name>
chembl3527030

>  <IUPAC_name>
n'-ethyl-2-phenylpropanediamide

>  <SMILES>
CCNC(=O)C(C(N)=O)c1ccccc1

>  <CID>
118753220

>  <logBB>
-0.19

>  <BBB+/BBB->
BBB+

>  <Inchi>
InChI=1S/C11H14N2O2/c1-2-13-11(15)9(10(12)14)8-6-4-3-5-7-8/h3-7-9H-2H2-1H3-(H2-12-14)(H-13-15)

>  <threshold>


>  <reference>
R2|R2|R25|R27|R46|

>  <group>
A

>  <Class>
1

>  <ABC>
10.81

>  <ABCGG>
10.37

>  <nAcid>
0

>  <nBase>
0

>  <nAromAtom>
6

>  <nAromBond>
6

>  <nAtom>
29

>  <nHeavyAtom>
15

>  <nSpiro>
0

>  <nBridgehead>
0

>  <nHetero>
4

>  <nN>
2

>  <nO>
2

>  <nF>
0

>  <BalabanJ>
2.54

>  <BertzCT>
348.87

>  <nBonds>
29

>  <nBondsO>
15

>  <nBondsS>
21

>  <nBondsD>
2

>  <nBondsT>
0

>  <nBondsA>
6

>  <nBondsM>
8

>  <nBondsKS>
24

>  <nBondsKD>
5

>  <RNCG>
0.22

>  <RPCG>
0.14

>  <FCSP3>
0.27

>  <SZ>
18.33

>  <Sm>
17.17

>  <Sv>
17.74

>  <Sse>
29.2

>  <Sp>
18.87

>  <Si>
32.91

>  <MZ>
0.63

>  <Mm>
0.59

>  <Mv>
0.61

>  <Mse>
1.01

>  <Mp>
0.65

>  <Mi>
1.13

>  <NsCH3>
1

>  <NdCH2>
0

>  <NssCH2>
1

>  <NtCH>
0

>  <NdsCH>
0

>  <NaaCH>
5

>  <NsssCH>
1

>  <NddC>
0

>  <NtsC>
0

>  <NdssC>
2

>  <NaasC>
1

>  <NaaaC>
0

>  <NssssC>
0

>  <NsNH3>
0

>  <NsNH2>
1

>  <NssNH2>
0

>  <NdNH>
0

>  <NssNH>
1

>  <NaaNH>
0

>  <NtN>
0

>  <NsssNH>
0

>  <NdsN>
0

>  <NaaN>
0

>  <NsssN>
0

>  <NddsN>
0

>  <NaasN>
0

>  <NssssN>
0

>  <NsOH>
0

>  <NdO>
2

>  <NssO>
0

>  <NaaO>
0

>  <NsF>
0

>  <NsSiH3>
0

>  <NssSiH2>
0

>  <NsssSiH>
0

>  <NssssSi>
0

>  <NsPH2>
0

>  <NssPH>
0

>  <NsssP>
0

>  <NdsssP>
0

>  <NsssssP>
0

>  <NsSH>
0

>  <NdS>
0

>  <NssS>
0

>  <NaaS>
0

>  <NdssS>
0

>  <NddssS>
0

>  <NsCl>
0

>  <NsBr>
0

>  <NsI>
0

>  <fragCpx>
15.04

>  <fMF>
0.21

>  <nHBAcc>
2

>  <nHBDon>
2

>  <Kier1>
13.07

>  <Kier2>
6.55

>  <Lipinski>
1

>  <GhoseFilter>
1

>  <FilterItLogS>
-2.08

>  <VMcGowan>
165.19

>  <LabuteASA>
88.47

>  <PEOE_VSA1>
11.05

>  <PEOE_VSA2>
9.59

>  <PEOE_VSA3>
0

>  <PEOE_VSA4>
0

>  <PEOE_VSA5>
0

>  <PEOE_VSA6>
30.33

>  <PEOE_VSA7>
12.49

>  <PEOE_VSA8>
6.54

>  <PEOE_VSA9>
0

>  <PEOE_VSA10>
5.92

>  <PEOE_VSA11>
0

>  <PEOE_VSA12>
11.81

>  <PEOE_VSA13>
0

>  <SMR_VSA1>
9.59

>  <SMR_VSA2>
0

>  <SMR_VSA3>
5.32

>  <SMR_VSA4>
5.73

>  <SMR_VSA5>
12.84

>  <SMR_VSA6>
6.54

>  <SMR_VSA7>
35.9

>  <SMR_VSA8>
0

>  <SMR_VSA9>
0

>  <SlogP_VSA1>
11.05

>  <SlogP_VSA2>
18.36

>  <SlogP_VSA3>
9.59

>  <SlogP_VSA4>
0

>  <SlogP_VSA5>
18.41

>  <SlogP_VSA6>
30.33

>  <SlogP_VSA7>
0

>  <SlogP_VSA8>
0

>  <SlogP_VSA9>
0

>  <SlogP_VSA10>
0

>  <SlogP_VSA11>
0

>  <EState_VSA1>
11.83

>  <EState_VSA2>
5.91

>  <EState_VSA3>
12.11

>  <EState_VSA4>
0

>  <EState_VSA5>
0

>  <EState_VSA6>
31.19

>  <EState_VSA7>
6.07

>  <EState_VSA8>
5.32

>  <EState_VSA9>
5.73

>  <EState_VSA10>
9.59

>  <VSA_EState1>
0

>  <VSA_EState2>
22.75

>  <VSA_EState3>
2.59

>  <VSA_EState4>
5.82

>  <VSA_EState5>
-1.88

>  <VSA_EState6>
8.78

>  <VSA_EState7>
0

>  <VSA_EState8>
2.27

>  <VSA_EState9>
0

>  <apol>
31.51

>  <bpol>
15.78

>  <nRing>
1

>  <nHRing>
0

>  <naRing>
1

>  <naHRing>
0

>  <nARing 2>
0

>  <nAHRing 2>
0

>  <nFRing>
0

>  <nFHRing>
0

>  <nFaRing>
0

>  <nFaHRing>
0

>  <nFARing 2>
0

>  <nFAHRing 2>
0

>  <nRot>
4

>  <SLogP>
0.39

>  <SMR>
57.06

>  <TopoPSA(NO)>
72.19

>  <TopoPSA>
72.19

>  <JGI1>
0.17

>  <JGI2>
0.08

>  <JGI3>
0.08

>  <JGI4>
0.03

>  <JGI5>
0.02

>  <Diameter>
8

>  <Radius>
4

>  <TMWC10>
97.96

>  <TSRW10>
46.2

>  <MW>
206.11

>  <AMW>
7.11

>  <WPath>
366

>  <WPol>
20

>  <Zagreb1>
68

>  <Zagreb2>
76

>  <mZagreb2>
3.58

>  <yes>


>  <nAR-cont>
0.336376

>  <nHA-cont>
0.92539861

>  <MWHBN>
0.278618827

>  <MWHBN-cont>
0.899554675

>  <TPSA-cont>
0.496068973

>  <pka_cont>
0.97

>  <yes.1>


>  <BBB_SCORE>
4.088244569

>  <MMFF94 Energy>
10.408

$$$$
Compound 286
Actelion Java MolfileCreator 2.0

  0  0  0  0  0  0              0 V3000
M  V30 BEGIN CTAB
M  V30 COUNTS 31 31 0 0 0
M  V30 BEGIN ATOM
M  V30 1 O -1.7157 -3.3556 1.3256 0
M  V30 2 C -0.6188 -3.3106 0.7938 0
M  V30 3 O -0.0704 -2.2446 0.173 0
M  V30 4 N 0.2338 -4.3565 0.7468 0
M  V30 5 C -0.8874 -1.0615 0.2031 0
M  V30 6 C -0.1257 0.0962 -0.4683 0
M  V30 7 C 1.1346 0.4765 0.2972 0
M  V30 8 C -1.0391 1.3174 -0.6608 0
M  V30 9 C 2.3891 0.3372 -0.3163 0
M  V30 10 C 1.081 0.9718 1.6096 0
M  V30 11 O -2.0897 0.9792 -1.5807 0
M  V30 12 C 3.5579 0.6845 0.3636 0
M  V30 13 C 2.2514 1.3182 2.2877 0
M  V30 14 C -2.9781 1.975 -1.7938 0
M  V30 15 C 3.4888 1.1751 1.6651 0
M  V30 16 O -2.9559 3.0856 -1.2905 0
M  V30 17 N -3.927 1.5656 -2.6627 0
M  V30 18 H -0.0332 -5.2284 1.1766 0
M  V30 19 H 1.1337 -4.2483 0.3064 0
M  V30 20 H -1.1442 -0.817 1.2411 0
M  V30 21 H -1.8117 -1.2726 -0.3476 0
M  V30 22 H 0.1709 -0.2609 -1.4646 0
M  V30 23 H -0.464 2.1543 -1.0772 0
M  V30 24 H -1.4786 1.6295 0.2949 0
M  V30 25 H 2.4671 -0.0458 -1.3314 0
M  V30 26 H 0.1291 1.0937 2.1217 0
M  V30 27 H 4.5228 0.5718 -0.1235 0
M  V30 28 H 2.1963 1.7005 3.3039 0
M  V30 29 H 4.3986 1.4456 2.1941 0
M  V30 30 H -4.6649 2.204 -2.9182 0
M  V30 31 H -3.8966 0.633 -3.0432 0
M  V30 END ATOM
M  V30 BEGIN BOND
M  V30 1 2 1 2
M  V30 2 1 2 3
M  V30 3 1 2 4
M  V30 4 1 3 5
M  V30 5 1 5 6
M  V30 6 1 6 7
M  V30 7 1 6 8
M  V30 8 2 7 9
M  V30 9 1 7 10
M  V30 10 1 8 11
M  V30 11 1 9 12
M  V30 12 2 10 13
M  V30 13 1 11 14
M  V30 14 2 12 15
M  V30 15 2 14 16
M  V30 16 1 14 17
M  V30 17 1 13 15
M  V30 18 1 4 18
M  V30 19 1 4 19
M  V30 20 1 5 20
M  V30 21 1 5 21
M  V30 22 1 6 22
M  V30 23 1 8 23
M  V30 24 1 8 24
M  V30 25 1 9 25
M  V30 26 1 10 26
M  V30 27 1 12 27
M  V30 28 1 13 28
M  V30 29 1 15 29
M  V30 30 1 17 30
M  V30 31 1 17 31
M  V30 END BOND
M  V30 END CTAB
M  END
>  <Column 1>
365

>  <level_0>
415

>  <index>
415

>  <Unnamed: 0>
415

>  <NO.>
417

>  <Name>
felbamate

>  <IUPAC_name>
(3-carbamoyloxy-2-phenylpropyl) carbamate

>  <SMILES>
NC(=O)OCC(COC(N)=O)c1ccccc1

>  <CID>
3331

>  <logBB>
-0.19

>  <BBB+/BBB->
BBB+

>  <Inchi>
InChI=1S/C11H14N2O4/c12-10(14)16-6-9(7-17-11(13)15)8-4-2-1-3-5-8/h1-5-9H-6-7H2-(H2-12-14)(H2-13-15)

>  <threshold>


>  <reference>
R18|R26|R27|

>  <group>
A

>  <Class>
1

>  <ABC>
12.42

>  <ABCGG>
11.2

>  <nAcid>
0

>  <nBase>
0

>  <nAromAtom>
6

>  <nAromBond>
6

>  <nAtom>
31

>  <nHeavyAtom>
17

>  <nSpiro>
0

>  <nBridgehead>
0

>  <nHetero>
6

>  <nN>
2

>  <nO>
4

>  <nF>
0

>  <BalabanJ>
2.38

>  <BertzCT>
362.32

>  <nBonds>
31

>  <nBondsO>
17

>  <nBondsS>
23

>  <nBondsD>
2

>  <nBondsT>
0

>  <nBondsA>
6

>  <nBondsM>
8

>  <nBondsKS>
26

>  <nBondsKD>
5

>  <RNCG>
0.19

>  <RPCG>
0.17

>  <FCSP3>
0.27

>  <SZ>
21

>  <Sm>
19.84

>  <Sv>
19.17

>  <Sse>
31.86

>  <Sp>
19.83

>  <Si>
35.33

>  <MZ>
0.68

>  <Mm>
0.64

>  <Mv>
0.62

>  <Mse>
1.03

>  <Mp>
0.64

>  <Mi>
1.14

>  <NsCH3>
0

>  <NdCH2>
0

>  <NssCH2>
2

>  <NtCH>
0

>  <NdsCH>
0

>  <NaaCH>
5

>  <NsssCH>
1

>  <NddC>
0

>  <NtsC>
0

>  <NdssC>
2

>  <NaasC>
1

>  <NaaaC>
0

>  <NssssC>
0

>  <NsNH3>
0

>  <NsNH2>
2

>  <NssNH2>
0

>  <NdNH>
0

>  <NssNH>
0

>  <NaaNH>
0

>  <NtN>
0

>  <NsssNH>
0

>  <NdsN>
0

>  <NaaN>
0

>  <NsssN>
0

>  <NddsN>
0

>  <NaasN>
0

>  <NssssN>
0

>  <NsOH>
0

>  <NdO>
2

>  <NssO>
2

>  <NaaO>
0

>  <NsF>
0

>  <NsSiH3>
0

>  <NssSiH2>
0

>  <NsssSiH>
0

>  <NssssSi>
0

>  <NsPH2>
0

>  <NssPH>
0

>  <NsssP>
0

>  <NdsssP>
0

>  <NsssssP>
0

>  <NsSH>
0

>  <NdS>
0

>  <NssS>
0

>  <NaaS>
0

>  <NdssS>
0

>  <NddssS>
0

>  <NsCl>
0

>  <NsBr>
0

>  <NsI>
0

>  <fragCpx>
17.06

>  <fMF>
0.19

>  <nHBAcc>
4

>  <nHBDon>
2

>  <Kier1>
15.06

>  <Kier2>
8.16

>  <Lipinski>
1

>  <GhoseFilter>
1

>  <FilterItLogS>
-1.17

>  <VMcGowan>
176.93

>  <LabuteASA>
98.49

>  <PEOE_VSA1>
20.94

>  <PEOE_VSA2>
0

>  <PEOE_VSA3>
9.59

>  <PEOE_VSA4>
0

>  <PEOE_VSA5>
0

>  <PEOE_VSA6>
30.33

>  <PEOE_VSA7>
5.56

>  <PEOE_VSA8>
0

>  <PEOE_VSA9>
5.92

>  <PEOE_VSA10>
13.21

>  <PEOE_VSA11>
0

>  <PEOE_VSA12>
0

>  <PEOE_VSA13>
0

>  <SMR_VSA1>
19.06

>  <SMR_VSA2>
0

>  <SMR_VSA3>
0

>  <SMR_VSA4>
11.47

>  <SMR_VSA5>
5.92

>  <SMR_VSA6>
13.21

>  <SMR_VSA7>
35.9

>  <SMR_VSA8>
0

>  <SMR_VSA9>
0

>  <SlogP_VSA1>
11.47

>  <SlogP_VSA2>
25.4

>  <SlogP_VSA3>
9.47

>  <SlogP_VSA4>
0

>  <SlogP_VSA5>
11.48

>  <SlogP_VSA6>
30.33

>  <SlogP_VSA7>
0

>  <SlogP_VSA8>
0

>  <SlogP_VSA9>
0

>  <SlogP_VSA10>
9.59

>  <SlogP_VSA11>
0

>  <EState_VSA1>
12.19

>  <EState_VSA2>
19.13

>  <EState_VSA3>
0

>  <EState_VSA4>
5.56

>  <EState_VSA5>
0

>  <EState_VSA6>
0

>  <EState_VSA7>
30.33

>  <EState_VSA8>
0

>  <EState_VSA9>
20.94

>  <EState_VSA10>
9.59

>  <VSA_EState1>
9.39

>  <VSA_EState2>
21.08

>  <VSA_EState3>
0

>  <VSA_EState4>
10.63

>  <VSA_EState5>
-0.28

>  <VSA_EState6>
9.18

>  <VSA_EState7>
-1.74

>  <VSA_EState8>
0.07

>  <VSA_EState9>
0

>  <apol>
33.11

>  <bpol>
18.11

>  <nRing>
1

>  <nHRing>
0

>  <naRing>
1

>  <naHRing>
0

>  <nARing 2>
0

>  <nAHRing 2>
0

>  <nFRing>
0

>  <nFHRing>
0

>  <nFaRing>
0

>  <nFaHRing>
0

>  <nFARing 2>
0

>  <nFAHRing 2>
0

>  <nRot>
5

>  <SLogP>
0.96

>  <SMR>
60.25

>  <TopoPSA(NO)>
104.64

>  <TopoPSA>
104.64

>  <JGI1>
0.21

>  <JGI2>
0.07

>  <JGI3>
0.03

>  <JGI4>
0.02

>  <JGI5>
0.03

>  <Diameter>
8

>  <Radius>
4

>  <TMWC10>
101.58

>  <TSRW10>
48.31

>  <MW>
238.1

>  <AMW>
7.68

>  <WPath>
564

>  <WPol>
19

>  <Zagreb1>
76

>  <Zagreb2>
81

>  <mZagreb2>
3.94

>  <yes>


>  <nAR-cont>
0.336376

>  <nHA-cont>
0.976740822

>  <MWHBN>
0.388840554

>  <MWHBN-cont>
0.520031927

>  <TPSA-cont>
0.269547822

>  <pka_cont>
0.97

>  <yes.1>


>  <BBB_SCORE>
3.117260358

>  <MMFF94 Energy>
-113.32

$$$$
Compound 287
Actelion Java MolfileCreator 2.0

  0  0  0  0  0  0              0 V3000
M  V30 BEGIN CTAB
M  V30 COUNTS 36 35 0 0 0
M  V30 BEGIN ATOM
M  V30 1 O -0.6924 1.9245 -3.0035 0
M  V30 2 C -1.461 2.0212 -2.06 0
M  V30 3 O -1.7344 1.0494 -1.1574 0
M  V30 4 N -2.1756 3.1329 -1.7369 0
M  V30 5 C -1.0722 -0.2139 -1.3428 0
M  V30 6 C -2.0891 4.3533 -2.4891 0
M  V30 7 C 0.0226 -0.453 -0.2645 0 CFG=2
M  V30 8 C 0.6111 -1.861 -0.5333 0
M  V30 9 C -0.6426 -0.3499 1.1427 0
M  V30 10 C 1.1229 0.6182 -0.4045 0
M  V30 11 O 1.7869 -2.0966 0.2516 0
M  V30 12 C 0.2442 -0.6505 2.3554 0
M  V30 13 C 2.3109 -3.3336 0.1088 0
M  V30 14 C -0.4949 -0.3756 3.6586 0
M  V30 15 O 1.879 -4.2267 -0.6008 0
M  V30 16 N 3.4114 -3.4566 0.8817 0
M  V30 17 H -2.7491 3.0729 -0.9077 0
M  V30 18 H -0.6563 -0.3115 -2.3531 0
M  V30 19 H -1.8501 -0.9826 -1.2583 0
M  V30 20 H -2.9869 4.9457 -2.2981 0
M  V30 21 H -2.0041 4.1377 -3.5575 0
M  V30 22 H -1.2057 4.9052 -2.1577 0
M  V30 23 H -0.1418 -2.6264 -0.3047 0
M  V30 24 H 0.8884 -1.9504 -1.5917 0
M  V30 25 H -1.5042 -1.0309 1.1755 0
M  V30 26 H -1.0533 0.6611 1.2663 0
M  V30 27 H 1.9622 0.4422 0.2752 0
M  V30 28 H 0.7372 1.6203 -0.1881 0
M  V30 29 H 1.5284 0.6285 -1.4226 0
M  V30 30 H 0.5459 -1.7023 2.3542 0
M  V30 31 H 1.1523 -0.0405 2.3347 0
M  V30 32 H 0.1469 -0.6086 4.5141 0
M  V30 33 H -0.7865 0.677 3.7303 0
M  V30 34 H -1.3982 -0.9893 3.7345 0
M  V30 35 H 3.9171 -4.3289 0.8802 0
M  V30 36 H 3.7194 -2.6794 1.4444 0
M  V30 END ATOM
M  V30 BEGIN BOND
M  V30 1 2 1 2
M  V30 2 1 2 3
M  V30 3 1 2 4
M  V30 4 1 3 5
M  V30 5 1 4 6
M  V30 6 1 5 7
M  V30 7 1 7 8
M  V30 8 1 7 9
M  V30 9 1 7 10
M  V30 10 1 8 11
M  V30 11 1 9 12
M  V30 12 1 11 13
M  V30 13 1 12 14
M  V30 14 2 13 15
M  V30 15 1 13 16
M  V30 16 1 4 17
M  V30 17 1 5 18
M  V30 18 1 5 19
M  V30 19 1 6 20
M  V30 20 1 6 21
M  V30 21 1 6 22
M  V30 22 1 8 23
M  V30 23 1 8 24
M  V30 24 1 9 25
M  V30 25 1 9 26
M  V30 26 1 10 27
M  V30 27 1 10 28
M  V30 28 1 10 29
M  V30 29 1 12 30
M  V30 30 1 12 31
M  V30 31 1 14 32
M  V30 32 1 14 33
M  V30 33 1 14 34
M  V30 34 1 16 35
M  V30 35 1 16 36
M  V30 END BOND
M  V30 BEGIN COLLECTION
M  V30 MDLV30/STERAC1 ATOMS=(1 7)
M  V30 END COLLECTION
M  V30 END CTAB
M  END
>  <Column 1>
367

>  <level_0>
418

>  <index>
418

>  <Unnamed: 0>
418

>  <NO.>
420

>  <Name>
carisoprodol

>  <IUPAC_name>
[2-(carbamoyloxymethyl)-2-methylpentyl] n-methylcarbamate

>  <SMILES>
CCCC(C)(COC(N)=O)COC(=O)NC

>  <CID>
117196

>  <logBB>
-0.18

>  <BBB+/BBB->
BBB+

>  <Inchi>
InChI=1S/C10H20N2O4/c1-4-5-10(2-6-15-8(11)13)7-16-9(14)12-3/h4-7H2-1-3H3-(H2-11-13)(H-12-14)

>  <threshold>


>  <reference>
R18|R26|R27|

>  <group>
A

>  <Class>
1

>  <ABC>
11.09

>  <ABCGG>
10.98

>  <nAcid>
0

>  <nBase>
0

>  <nAromAtom>
0

>  <nAromBond>
0

>  <nAtom>
36

>  <nHeavyAtom>
16

>  <nSpiro>
0

>  <nBridgehead>
0

>  <nHetero>
6

>  <nN>
2

>  <nO>
4

>  <nF>
0

>  <BalabanJ>
4.1

>  <BertzCT>
244.97

>  <nBonds>
35

>  <nBondsO>
15

>  <nBondsS>
33

>  <nBondsD>
2

>  <nBondsT>
0

>  <nBondsA>
0

>  <nBondsM>
2

>  <nBondsKS>
33

>  <nBondsKD>
2

>  <RNCG>
0.2

>  <RPCG>
0.18

>  <FCSP3>
0.8

>  <SZ>
21

>  <Sm>
19.34

>  <Sv>
19.79

>  <Sse>
36.53

>  <Sp>
21.22

>  <Si>
41.57

>  <MZ>
0.58

>  <Mm>
0.54

>  <Mv>
0.55

>  <Mse>
1.01

>  <Mp>
0.59

>  <Mi>
1.15

>  <NsCH3>
3

>  <NdCH2>
0

>  <NssCH2>
4

>  <NtCH>
0

>  <NdsCH>
0

>  <NaaCH>
0

>  <NsssCH>
0

>  <NddC>
0

>  <NtsC>
0

>  <NdssC>
2

>  <NaasC>
0

>  <NaaaC>
0

>  <NssssC>
1

>  <NsNH3>
0

>  <NsNH2>
1

>  <NssNH2>
0

>  <NdNH>
0

>  <NssNH>
1

>  <NaaNH>
0

>  <NtN>
0

>  <NsssNH>
0

>  <NdsN>
0

>  <NaaN>
0

>  <NsssN>
0

>  <NddsN>
0

>  <NaasN>
0

>  <NssssN>
0

>  <NsOH>
0

>  <NdO>
2

>  <NssO>
2

>  <NaaO>
0

>  <NsF>
0

>  <NsSiH3>
0

>  <NssSiH2>
0

>  <NsssSiH>
0

>  <NssssSi>
0

>  <NsPH2>
0

>  <NssPH>
0

>  <NsssP>
0

>  <NdsssP>
0

>  <NsssssP>
0

>  <NsSH>
0

>  <NdS>
0

>  <NssS>
0

>  <NaaS>
0

>  <NdssS>
0

>  <NddssS>
0

>  <NsCl>
0

>  <NsBr>
0

>  <NsI>
0

>  <fragCpx>
15.06

>  <fMF>
0

>  <nHBAcc>
4

>  <nHBDon>
2

>  <Kier1>
16

>  <Kier2>
8.14

>  <Lipinski>
1

>  <GhoseFilter>
1

>  <FilterItLogS>
-1.79

>  <VMcGowan>
186.6

>  <LabuteASA>
95.46

>  <PEOE_VSA1>
20.52

>  <PEOE_VSA2>
0

>  <PEOE_VSA3>
9.59

>  <PEOE_VSA4>
0

>  <PEOE_VSA5>
0

>  <PEOE_VSA6>
20.27

>  <PEOE_VSA7>
6.42

>  <PEOE_VSA8>
12.46

>  <PEOE_VSA9>
0

>  <PEOE_VSA10>
13.21

>  <PEOE_VSA11>
0

>  <PEOE_VSA12>
0

>  <PEOE_VSA13>
0

>  <SMR_VSA1>
19.06

>  <SMR_VSA2>
0

>  <SMR_VSA3>
5.32

>  <SMR_VSA4>
11.15

>  <SMR_VSA5>
26.69

>  <SMR_VSA6>
20.26

>  <SMR_VSA7>
0

>  <SMR_VSA8>
0

>  <SMR_VSA9>
0

>  <SlogP_VSA1>
11.05

>  <SlogP_VSA2>
32.45

>  <SlogP_VSA3>
9.47

>  <SlogP_VSA4>
5.41

>  <SlogP_VSA5>
26.69

>  <SlogP_VSA6>
0

>  <SlogP_VSA7>
0

>  <SlogP_VSA8>
0

>  <SlogP_VSA9>
0

>  <SlogP_VSA10>
9.59

>  <SlogP_VSA11>
0

>  <EState_VSA1>
17.6

>  <EState_VSA2>
13.21

>  <EState_VSA3>
0

>  <EState_VSA4>
12.84

>  <EState_VSA5>
7.05

>  <EState_VSA6>
0

>  <EState_VSA7>
13.85

>  <EState_VSA8>
5.32

>  <EState_VSA9>
15.21

>  <EState_VSA10>
9.59

>  <VSA_EState1>
9.71

>  <VSA_EState2>
21.46

>  <VSA_EState3>
2.35

>  <VSA_EState4>
4.5

>  <VSA_EState5>
0

>  <VSA_EState6>
0

>  <VSA_EState7>
0.36

>  <VSA_EState8>
4.21

>  <VSA_EState9>
1.49

>  <apol>
35.44

>  <bpol>
25.27

>  <nRing>
0

>  <nHRing>
0

>  <naRing>
0

>  <naHRing>
0

>  <nARing 2>
0

>  <nAHRing 2>
0

>  <nFRing>
0

>  <nFHRing>
0

>  <nFaRing>
0

>  <nFaHRing>
0

>  <nFARing 2>
0

>  <nFAHRing 2>
0

>  <nRot>
6

>  <SLogP>
1.24

>  <SMR>
58.96

>  <TopoPSA(NO)>
90.65

>  <TopoPSA>
90.65

>  <JGI1>
0.33

>  <JGI2>
0.11

>  <JGI3>
0.04

>  <JGI4>
0.05

>  <JGI5>
0.02

>  <Diameter>
9

>  <Radius>
5

>  <TMWC10>
97.48

>  <TSRW10>
46.87

>  <MW>
232.14

>  <AMW>
6.45

>  <WPath>
490

>  <WPol>
18

>  <Zagreb1>
68

>  <Zagreb2>
71

>  <mZagreb2>
3.88

>  <yes>


>  <nAR-cont>
0.336376

>  <nHA-cont>
0.954961865

>  <MWHBN>
0.393800497

>  <MWHBN-cont>
0.500483318

>  <TPSA-cont>
0.36720671

>  <pka_cont>
0.97

>  <yes.1>


>  <BBB_SCORE>
3.261476262

>  <MMFF94 Energy>
-125.05

$$$$
Compound 288
Actelion Java MolfileCreator 2.0

  0  0  0  0  0  0              0 V3000
M  V30 BEGIN CTAB
M  V30 COUNTS 54 57 0 0 0
M  V30 BEGIN ATOM
M  V30 1 O -3.4712 2.1785 -5.1698 0
M  V30 2 C -3.149 1.6708 -4.1036 0
M  V30 3 C -2.5014 0.3462 -4.0465 0
M  V30 4 C -3.385 2.3577 -2.8225 0
M  V30 5 C -2.1299 -0.2174 -2.8827 0
M  V30 6 C -3.017 1.797 -1.6632 0
M  V30 7 C -2.3374 0.4409 -1.5068 0 CFG=2
M  V30 8 C -1.4067 -1.5388 -2.8921 0
M  V30 9 C -0.9137 0.5639 -0.82 0 CFG=1
M  V30 10 C -3.3156 -0.4188 -0.674 0
M  V30 11 C -0.0442 -1.3957 -2.2257 0
M  V30 12 C -0.9025 1.2163 0.5989 0
M  V30 13 C -0.1653 -0.8175 -0.8066 0 CFG=1
M  V30 14 O -1.3256 2.5784 0.5549 0
M  V30 15 C 0.4897 1.2314 1.2656 0
M  V30 16 C 1.2147 -0.653 -0.1563 0 CFG=1
M  V30 17 C 1.1457 -0.1545 1.3059 0 CFG=1
M  V30 18 C 2.1173 -1.8795 -0.0723 0
M  V30 19 C 2.6614 -0.2141 1.6895 0 CFG=1
M  V30 20 C 0.316 -1.084 2.2343 0
M  V30 21 C 3.137 -1.5405 1.0305 0
M  V30 22 O 3.4107 0.8198 1.0435 0
M  V30 23 C 2.9371 -0.2236 3.2128 0
M  V30 24 O 2.941 -1.2558 3.8915 0
M  V30 25 C 3.1881 1.1195 3.8863 0
M  V30 26 O 3.0968 1.0257 5.2998 0
M  V30 27 H -2.3316 -0.1235 -5.0088 0
M  V30 28 H -3.8841 3.3177 -2.8725 0
M  V30 29 H -3.2677 2.3373 -0.752 0
M  V30 30 H -1.263 -1.9099 -3.9142 0
M  V30 31 H -2.0061 -2.2962 -2.3745 0
M  V30 32 H -0.3266 1.2386 -1.4649 0
M  V30 33 H -2.9195 -1.4115 -0.4424 0
M  V30 34 H -4.2616 -0.5718 -1.2096 0
M  V30 35 H -3.5646 0.0582 0.2809 0
M  V30 36 H 0.6008 -0.7516 -2.8374 0
M  V30 37 H 0.4319 -2.3824 -2.194 0
M  V30 38 H -1.6065 0.6963 1.2541 0
M  V30 39 H -0.7448 -1.5376 -0.2197 0
M  V30 40 H -0.7985 3.0415 -0.12 0
M  V30 41 H 1.1128 1.9468 0.7148 0
M  V30 42 H 0.4022 1.6474 2.2771 0
M  V30 43 H 1.7579 0.0919 -0.7599 0
M  V30 44 H 1.5499 -2.7772 0.198 0
M  V30 45 H 2.6197 -2.0822 -1.0237 0
M  V30 46 H -0.7153 -1.216 1.8983 0
M  V30 47 H 0.2589 -0.6653 3.2458 0
M  V30 48 H 0.7477 -2.086 2.3193 0
M  V30 49 H 3.1854 -2.3788 1.7336 0
M  V30 50 H 4.1361 -1.4301 0.5924 0
M  V30 51 H 3.0459 1.691 1.2683 0
M  V30 52 H 4.191 1.4665 3.624 0
M  V30 53 H 2.4454 1.847 3.5529 0
M  V30 54 H 3.3463 0.1073 5.5296 0
M  V30 END ATOM
M  V30 BEGIN BOND
M  V30 1 2 1 2
M  V30 2 1 2 3
M  V30 3 1 2 4
M  V30 4 2 3 5
M  V30 5 2 4 6
M  V30 6 1 5 7
M  V30 7 1 5 8
M  V30 8 1 7 9
M  V30 9 1 7 10
M  V30 10 1 8 11
M  V30 11 1 9 12
M  V30 12 1 9 13
M  V30 13 1 12 14
M  V30 14 1 12 15
M  V30 15 1 13 16
M  V30 16 1 15 17
M  V30 17 1 16 18
M  V30 18 1 17 19
M  V30 19 1 17 20
M  V30 20 1 18 21
M  V30 21 1 19 22
M  V30 22 1 19 23
M  V30 23 2 23 24
M  V30 24 1 23 25
M  V30 25 1 25 26
M  V30 26 1 6 7
M  V30 27 1 11 13
M  V30 28 1 16 17
M  V30 29 1 19 21
M  V30 30 1 3 27
M  V30 31 1 4 28
M  V30 32 1 6 29
M  V30 33 1 8 30
M  V30 34 1 8 31
M  V30 35 1 9 32
M  V30 36 1 10 33
M  V30 37 1 10 34
M  V30 38 1 10 35
M  V30 39 1 11 36
M  V30 40 1 11 37
M  V30 41 1 12 38
M  V30 42 1 13 39
M  V30 43 1 14 40
M  V30 44 1 15 41
M  V30 45 1 15 42
M  V30 46 1 16 43
M  V30 47 1 18 44
M  V30 48 1 18 45
M  V30 49 1 20 46
M  V30 50 1 20 47
M  V30 51 1 20 48
M  V30 52 1 21 49
M  V30 53 1 21 50
M  V30 54 1 22 51
M  V30 55 1 25 52
M  V30 56 1 25 53
M  V30 57 1 26 54
M  V30 END BOND
M  V30 BEGIN COLLECTION
M  V30 MDLV30/STEABS ATOMS=(6 7 9 13 16 17 19)
M  V30 END COLLECTION
M  V30 END CTAB
M  END
>  <Column 1>
368

>  <level_0>
419

>  <index>
419

>  <Unnamed: 0>
419

>  <NO.>
421

>  <Name>
prednisolone

>  <IUPAC_name>
(8s-9s-10r-13s-14s-17r)-11-17-dihydroxy-17-(2-hydroxyacetyl)-10-13-dimethyl-7-8-9-11-12-14-15-16-octahydro-6h-cyclopenta[a]phenanthren-3-one

>  <SMILES>
C[C@]12CC(O)[C@H]3[C@@H](CCC4=CC(=O)C=C[C@@]43C)[C@@H]1CC[C@]2(O)C(=O)CO

>  <CID>
11245343

>  <logBB>
-0.18

>  <BBB+/BBB->
BBB+

>  <Inchi>
InChI=1S/C21H28O5/c1-19-7-5-13(23)9-12(19)3-4-14-15-6-8-21(26-17(25)11-22)20(15-2)10-16(24)18(14)19/h5-7-9-14-16-18-22-24-26H-3-4-6-8-10-11H2-1-2H3/t14--15--16?-18+-19--20--21-/m0/s1

>  <threshold>


>  <reference>
R2|R2|R25|R27|R46|

>  <group>
A

>  <Class>
1

>  <ABC>
20.85

>  <ABCGG>
17.26

>  <nAcid>
0

>  <nBase>
0

>  <nAromAtom>
0

>  <nAromBond>
0

>  <nAtom>
54

>  <nHeavyAtom>
26

>  <nSpiro>
0

>  <nBridgehead>
0

>  <nHetero>
5

>  <nN>
0

>  <nO>
5

>  <nF>
0

>  <BalabanJ>
1.68

>  <BertzCT>
723.91

>  <nBonds>
57

>  <nBondsO>
29

>  <nBondsS>
53

>  <nBondsD>
4

>  <nBondsT>
0

>  <nBondsA>
0

>  <nBondsM>
4

>  <nBondsKS>
53

>  <nBondsKD>
4

>  <RNCG>
0.18

>  <RPCG>
0.09

>  <FCSP3>
0.71

>  <SZ>
32.33

>  <Sm>
30.01

>  <Sv>
32.16

>  <Sse>
54.08

>  <Sp>
34.58

>  <Si>
60.86

>  <MZ>
0.6

>  <Mm>
0.56

>  <Mv>
0.6

>  <Mse>
1

>  <Mp>
0.64

>  <Mi>
1.13

>  <NsCH3>
2

>  <NdCH2>
0

>  <NssCH2>
6

>  <NtCH>
0

>  <NdsCH>
3

>  <NaaCH>
0

>  <NsssCH>
4

>  <NddC>
0

>  <NtsC>
0

>  <NdssC>
3

>  <NaasC>
0

>  <NaaaC>
0

>  <NssssC>
3

>  <NsNH3>
0

>  <NsNH2>
0

>  <NssNH2>
0

>  <NdNH>
0

>  <NssNH>
0

>  <NaaNH>
0

>  <NtN>
0

>  <NsssNH>
0

>  <NdsN>
0

>  <NaaN>
0

>  <NsssN>
0

>  <NddsN>
0

>  <NaasN>
0

>  <NssssN>
0

>  <NsOH>
3

>  <NdO>
2

>  <NssO>
0

>  <NaaO>
0

>  <NsF>
0

>  <NsSiH3>
0

>  <NssSiH2>
0

>  <NsssSiH>
0

>  <NssssSi>
0

>  <NsPH2>
0

>  <NssPH>
0

>  <NsssP>
0

>  <NdsssP>
0

>  <NsssssP>
0

>  <NsSH>
0

>  <NdS>
0

>  <NssS>
0

>  <NaaS>
0

>  <NdssS>
0

>  <NddssS>
0

>  <NsCl>
0

>  <NsBr>
0

>  <NsI>
0

>  <fragCpx>
191.05

>  <fMF>
0.31

>  <nHBAcc>
5

>  <nHBDon>
3

>  <Kier1>
19.32

>  <Kier2>
6.25

>  <Lipinski>
1

>  <GhoseFilter>
1

>  <FilterItLogS>
-2.17

>  <VMcGowan>
275.46

>  <LabuteASA>
153.34

>  <PEOE_VSA1>
15.32

>  <PEOE_VSA2>
9.59

>  <PEOE_VSA3>
0

>  <PEOE_VSA4>
0

>  <PEOE_VSA5>
0

>  <PEOE_VSA6>
25.5

>  <PEOE_VSA7>
56.09

>  <PEOE_VSA8>
16.75

>  <PEOE_VSA9>
6.1

>  <PEOE_VSA10>
12.21

>  <PEOE_VSA11>
11.57

>  <PEOE_VSA12>
0

>  <PEOE_VSA13>
0

>  <SMR_VSA1>
24.91

>  <SMR_VSA2>
0

>  <SMR_VSA3>
0

>  <SMR_VSA4>
28.58

>  <SMR_VSA5>
57.66

>  <SMR_VSA6>
6.61

>  <SMR_VSA7>
23.8

>  <SMR_VSA8>
0

>  <SMR_VSA9>
0

>  <SlogP_VSA1>
0

>  <SlogP_VSA2>
45.2

>  <SlogP_VSA3>
9.59

>  <SlogP_VSA4>
28.58

>  <SlogP_VSA5>
45.95

>  <SlogP_VSA6>
23.8

>  <SlogP_VSA7>
0

>  <SlogP_VSA8>
0

>  <SlogP_VSA9>
0

>  <SlogP_VSA10>
0

>  <SlogP_VSA11>
0

>  <EState_VSA1>
29.51

>  <EState_VSA2>
28.95

>  <EState_VSA3>
12.84

>  <EState_VSA4>
24.84

>  <EState_VSA5>
0

>  <EState_VSA6>
12.15

>  <EState_VSA7>
13

>  <EState_VSA8>
6.92

>  <EState_VSA9>
0

>  <EState_VSA10>
24.91

>  <VSA_EState1>
0

>  <VSA_EState2>
24.16

>  <VSA_EState3>
31.67

>  <VSA_EState4>
-1.54

>  <VSA_EState5>
-0.23

>  <VSA_EState6>
0

>  <VSA_EState7>
7.68

>  <VSA_EState8>
3.34

>  <VSA_EState9>
0

>  <apol>
57.75

>  <bpol>
29.83

>  <nRing>
4

>  <nHRing>
0

>  <naRing>
0

>  <naHRing>
0

>  <nARing 2>
4

>  <nAHRing 2>
0

>  <nFRing>
1

>  <nFHRing>
0

>  <nFaRing>
0

>  <nFaHRing>
0

>  <nFARing 2>
1

>  <nFAHRing 2>
0

>  <nRot>
2

>  <SLogP>
1.56

>  <SMR>
95.05

>  <TopoPSA(NO)>
94.83

>  <TopoPSA>
94.83

>  <JGI1>
0.29

>  <JGI2>
0.14

>  <JGI3>
0.07

>  <JGI4>
0.06

>  <JGI5>
0.04

>  <Diameter>
12

>  <Radius>
6

>  <TMWC10>
135.18

>  <TSRW10>
77.19

>  <MW>
360.19

>  <AMW>
6.67

>  <WPath>
1425

>  <WPol>
59

>  <Zagreb1>
154

>  <Zagreb2>
198

>  <mZagreb2>
5.44

>  <yes>


>  <nAR-cont>
0.199399

>  <nHA-cont>
0.892715677

>  <MWHBN>
0.4215258

>  <MWHBN-cont>
0.392082546

>  <TPSA-cont>
0.338027714

>  <pka_cont>
0.97

>  <yes.1>


>  <BBB_SCORE>
2.841293925

>  <MMFF94 Energy>
133.8

$$$$
Compound 289
Actelion Java MolfileCreator 2.0

  0  0  0  0  0  0              0 V3000
M  V30 BEGIN CTAB
M  V30 COUNTS 10 9 0 0 0
M  V30 BEGIN ATOM
M  V30 1 C -0.3693 -0.2954 -0.5171 0
M  V30 2 C 0.3849 0.3227 0.545 0
M  V30 3 C -0.8886 0.3951 -1.5387 0
M  V30 4 C 0.9041 -0.3677 1.5667 0
M  V30 5 H -0.5175 -1.3726 -0.4769 0
M  V30 6 H 0.533 1.4 0.5049 0
M  V30 7 H -0.7716 1.4703 -1.6289 0
M  V30 8 H -1.45 -0.1122 -2.317 0
M  V30 9 H 0.7871 -1.4429 1.657 0
M  V30 10 H 1.4655 0.1396 2.345 0
M  V30 END ATOM
M  V30 BEGIN BOND
M  V30 1 1 1 2
M  V30 2 2 1 3
M  V30 3 2 2 4
M  V30 4 1 1 5
M  V30 5 1 2 6
M  V30 6 1 3 7
M  V30 7 1 3 8
M  V30 8 1 4 9
M  V30 9 1 4 10
M  V30 END BOND
M  V30 END CTAB
M  END
>  <Column 1>
369

>  <level_0>
421

>  <index>
421

>  <Unnamed: 0>
421

>  <NO.>
423

>  <Name>
1-3-butadiene (divinyl)

>  <IUPAC_name>
buta-1-3-diene

>  <SMILES>
C=CC=C

>  <CID>
7845

>  <logBB>
-0.17

>  <BBB+/BBB->
BBB+

>  <Inchi>
InChI=1S/C4H6/c1-3-4-2/h3-4H-1-2H2

>  <threshold>


>  <reference>
R2|R2|R8|R21|R27|R27|R43|R46|R47|R40|R3|R38|R25|R41|

>  <group>
A

>  <Class>
1

>  <ABC>
2.12

>  <ABCGG>
2.34

>  <nAcid>
0

>  <nBase>
0

>  <nAromAtom>
0

>  <nAromBond>
0

>  <nAtom>
10

>  <nHeavyAtom>
4

>  <nSpiro>
0

>  <nBridgehead>
0

>  <nHetero>
0

>  <nN>
0

>  <nO>
0

>  <nF>
0

>  <BalabanJ>
1.97

>  <BertzCT>
21.02

>  <nBonds>
9

>  <nBondsO>
3

>  <nBondsS>
7

>  <nBondsD>
2

>  <nBondsT>
0

>  <nBondsA>
0

>  <nBondsM>
2

>  <nBondsKS>
7

>  <nBondsKD>
2

>  <RNCG>
0.29

>  <RPCG>
0.18

>  <FCSP3>
0

>  <SZ>
5

>  <Sm>
4.5

>  <Sv>
5.63

>  <Sse>
9.66

>  <Sp>
6.4

>  <Si>
11.25

>  <MZ>
0.5

>  <Mm>
0.45

>  <Mv>
0.56

>  <Mse>
0.97

>  <Mp>
0.64

>  <Mi>
1.12

>  <NsCH3>
0

>  <NdCH2>
2

>  <NssCH2>
0

>  <NtCH>
0

>  <NdsCH>
2

>  <NaaCH>
0

>  <NsssCH>
0

>  <NddC>
0

>  <NtsC>
0

>  <NdssC>
0

>  <NaasC>
0

>  <NaaaC>
0

>  <NssssC>
0

>  <NsNH3>
0

>  <NsNH2>
0

>  <NssNH2>
0

>  <NdNH>
0

>  <NssNH>
0

>  <NaaNH>
0

>  <NtN>
0

>  <NsssNH>
0

>  <NdsN>
0

>  <NaaN>
0

>  <NsssN>
0

>  <NddsN>
0

>  <NaasN>
0

>  <NssssN>
0

>  <NsOH>
0

>  <NdO>
0

>  <NssO>
0

>  <NaaO>
0

>  <NsF>
0

>  <NsSiH3>
0

>  <NssSiH2>
0

>  <NsssSiH>
0

>  <NssssSi>
0

>  <NsPH2>
0

>  <NssPH>
0

>  <NsssP>
0

>  <NdsssP>
0

>  <NsssssP>
0

>  <NsSH>
0

>  <NdS>
0

>  <NssS>
0

>  <NaaS>
0

>  <NdssS>
0

>  <NddssS>
0

>  <NsCl>
0

>  <NsBr>
0

>  <NsI>
0

>  <fragCpx>
3

>  <fMF>
0

>  <nHBAcc>
0

>  <nHBDon>
0

>  <Kier1>
4

>  <Kier2>
3

>  <Lipinski>
1

>  <GhoseFilter>
0

>  <FilterItLogS>
-0.58

>  <VMcGowan>
58.62

>  <LabuteASA>
26.45

>  <PEOE_VSA1>
0

>  <PEOE_VSA2>
0

>  <PEOE_VSA3>
0

>  <PEOE_VSA4>
0

>  <PEOE_VSA5>
0

>  <PEOE_VSA6>
25.31

>  <PEOE_VSA7>
0

>  <PEOE_VSA8>
0

>  <PEOE_VSA9>
0

>  <PEOE_VSA10>
0

>  <PEOE_VSA11>
0

>  <PEOE_VSA12>
0

>  <PEOE_VSA13>
0

>  <SMR_VSA1>
0

>  <SMR_VSA2>
0

>  <SMR_VSA3>
0

>  <SMR_VSA4>
0

>  <SMR_VSA5>
0

>  <SMR_VSA6>
0

>  <SMR_VSA7>
25.31

>  <SMR_VSA8>
0

>  <SMR_VSA9>
0

>  <SlogP_VSA1>
0

>  <SlogP_VSA2>
0

>  <SlogP_VSA3>
0

>  <SlogP_VSA4>
0

>  <SlogP_VSA5>
0

>  <SlogP_VSA6>
25.31

>  <SlogP_VSA7>
0

>  <SlogP_VSA8>
0

>  <SlogP_VSA9>
0

>  <SlogP_VSA10>
0

>  <SlogP_VSA11>
0

>  <EState_VSA1>
0

>  <EState_VSA2>
0

>  <EState_VSA3>
0

>  <EState_VSA4>
0

>  <EState_VSA5>
0

>  <EState_VSA6>
12.15

>  <EState_VSA7>
0

>  <EState_VSA8>
13.16

>  <EState_VSA9>
0

>  <EState_VSA10>
0

>  <VSA_EState1>
0

>  <VSA_EState2>
0

>  <VSA_EState3>
0

>  <VSA_EState4>
0

>  <VSA_EState5>
0

>  <VSA_EState6>
0

>  <VSA_EState7>
3.28

>  <VSA_EState8>
6.72

>  <VSA_EState9>
0

>  <apol>
10.68

>  <bpol>
6.02

>  <nRing>
0

>  <nHRing>
0

>  <naRing>
0

>  <naHRing>
0

>  <nARing 2>
0

>  <nAHRing 2>
0

>  <nFRing>
0

>  <nFHRing>
0

>  <nFaRing>
0

>  <nFaHRing>
0

>  <nFARing 2>
0

>  <nFAHRing 2>
0

>  <nRot>
1

>  <SLogP>
1.36

>  <SMR>
20.39

>  <TopoPSA(NO)>
0

>  <TopoPSA>
0

>  <JGI1>
0.17

>  <JGI2>
0.11

>  <JGI3>
0

>  <JGI4>
0

>  <JGI5>
0

>  <Diameter>
3

>  <Radius>
2

>  <TMWC10>
45.23

>  <TSRW10>
22.33

>  <MW>
54.05

>  <AMW>
5.4

>  <WPath>
10

>  <WPol>
1

>  <Zagreb1>
10

>  <Zagreb2>
8

>  <mZagreb2>
1.25

>  <yes>


>  <nAR-cont>
0.336376

>  <nHA-cont>
0

>  <MWHBN>
0

>  <MWHBN-cont>
0

>  <TPSA-cont>
0

>  <pka_cont>
0.97

>  <yes.1>


>  <BBB_SCORE>
0.821376

>  <MMFF94 Energy>
4.7838

$$$$
Compound 290
Actelion Java MolfileCreator 2.0

  0  0  0  0  0  0              0 V3000
M  V30 BEGIN CTAB
M  V30 COUNTS 57 59 0 0 0
M  V30 BEGIN ATOM
M  V30 1 O 3.4062 1.8208 2.4547 0
M  V30 2 C 2.9289 1.0667 1.6094 0
M  V30 3 N 2.6306 -0.2781 1.8092 0
M  V30 4 C 2.5811 1.5355 0.1905 0
M  V30 5 N 2.9544 -0.89 2.9821 0
M  V30 6 N 1.346 2.3463 0.1581 0
M  V30 7 C 2.524 -2.0983 3.2015 0
M  V30 8 C 0.1526 1.5843 0.5659 0
M  V30 9 C 1.1393 2.8976 -1.1957 0
M  V30 10 C 1.5466 -2.8789 2.4174 0
M  V30 11 C -1.1458 2.4148 0.4459 0
M  V30 12 C -0.164 3.7199 -1.3124 0
M  V30 13 C 1.808 -4.2212 2.1163 0
M  V30 14 C 0.3301 -2.2943 2.0518 0
M  V30 15 N -1.3534 2.9323 -0.9209 0
M  V30 16 O 2.9923 -4.7574 2.5425 0
M  V30 17 C 0.8794 -4.9775 1.3823 0
M  V30 18 C -0.6068 -3.0388 1.3417 0
M  V30 19 C -2.5771 3.7504 -0.9703 0
M  V30 20 C -0.3315 -4.366 1.0056 0
M  V30 21 C 1.1263 -6.4138 0.976 0
M  V30 22 C -2.9899 4.1269 -2.378 0
M  V30 23 C 0.9414 -7.376 2.1154 0
M  V30 24 C -3.1247 5.473 -2.7471 0
M  V30 25 C -3.2609 3.1332 -3.3307 0
M  V30 26 C 1.8591 -8.2692 2.509 0
M  V30 27 C -3.5172 5.8163 -4.0424 0
M  V30 28 C -3.6528 3.478 -4.6249 0
M  V30 29 C -3.781 4.8194 -4.9801 0
M  V30 30 H 2.2368 -0.832 1.0588 0
M  V30 31 H 3.4333 2.1394 -0.1459 0
M  V30 32 H 2.5088 0.6764 -0.4878 0
M  V30 33 H 2.9193 -2.6076 4.0978 0
M  V30 34 H 0.2451 1.2752 1.6129 0
M  V30 35 H 0.0529 0.6734 -0.0395 0
M  V30 36 H 1.9793 3.5538 -1.4542 0
M  V30 37 H 1.1161 2.0885 -1.9385 0
M  V30 38 H -1.9872 1.768 0.7231 0
M  V30 39 H -1.1138 3.2388 1.1721 0
M  V30 40 H -0.254 4.0483 -2.3542 0
M  V30 41 H -0.0754 4.6215 -0.691 0
M  V30 42 H 0.1 -1.2721 2.3435 0
M  V30 43 H 2.9239 -5.7269 2.5487 0
M  V30 44 H -1.5567 -2.5918 1.0568 0
M  V30 45 H -3.417 3.1853 -0.5435 0
M  V30 46 H -2.4685 4.6504 -0.3501 0
M  V30 47 H -1.0785 -4.9286 0.4469 0
M  V30 48 H 2.1302 -6.4938 0.54 0
M  V30 49 H 0.4345 -6.6965 0.1724 0
M  V30 50 H -0.0136 -7.3406 2.638 0
M  V30 51 H -2.9222 6.2636 -2.0283 0
M  V30 52 H -3.1568 2.0841 -3.0622 0
M  V30 53 H 1.6553 -8.9428 3.3373 0
M  V30 54 H 2.8209 -8.3671 2.0144 0
M  V30 55 H -3.6169 6.8624 -4.3197 0
M  V30 56 H -3.856 2.6996 -5.3553 0
M  V30 57 H -4.0856 5.0881 -5.988 0
M  V30 END ATOM
M  V30 BEGIN BOND
M  V30 1 2 1 2
M  V30 2 1 2 3
M  V30 3 1 2 4
M  V30 4 1 3 5
M  V30 5 1 4 6
M  V30 6 2 5 7
M  V30 7 1 6 8
M  V30 8 1 6 9
M  V30 9 1 7 10
M  V30 10 1 8 11
M  V30 11 1 9 12
M  V30 12 2 10 13
M  V30 13 1 10 14
M  V30 14 1 11 15
M  V30 15 1 13 16
M  V30 16 1 13 17
M  V30 17 2 14 18
M  V30 18 1 15 19
M  V30 19 2 17 20
M  V30 20 1 17 21
M  V30 21 1 19 22
M  V30 22 1 21 23
M  V30 23 2 22 24
M  V30 24 1 22 25
M  V30 25 2 23 26
M  V30 26 1 24 27
M  V30 27 2 25 28
M  V30 28 2 27 29
M  V30 29 1 12 15
M  V30 30 1 18 20
M  V30 31 1 28 29
M  V30 32 1 3 30
M  V30 33 1 4 31
M  V30 34 1 4 32
M  V30 35 1 7 33
M  V30 36 1 8 34
M  V30 37 1 8 35
M  V30 38 1 9 36
M  V30 39 1 9 37
M  V30 40 1 11 38
M  V30 41 1 11 39
M  V30 42 1 12 40
M  V30 43 1 12 41
M  V30 44 1 14 42
M  V30 45 1 16 43
M  V30 46 1 18 44
M  V30 47 1 19 45
M  V30 48 1 19 46
M  V30 49 1 20 47
M  V30 50 1 21 48
M  V30 51 1 21 49
M  V30 52 1 23 50
M  V30 53 1 24 51
M  V30 54 1 25 52
M  V30 55 1 26 53
M  V30 56 1 26 54
M  V30 57 1 27 55
M  V30 58 1 28 56
M  V30 59 1 29 57
M  V30 END BOND
M  V30 END CTAB
M  END
>  <Column 1>
370

>  <level_0>
422

>  <index>
422

>  <Unnamed: 0>
422

>  <NO.>
424

>  <Name>
pac-1

>  <IUPAC_name>
2-(4-benzylpiperazin-1-yl)-n-[(z)-(2-hydroxy-3-prop-2-enylphenyl)methylideneamino]acetamide

>  <SMILES>
C=CCc1cccc(/C=N\NC(=O)CN2CCN(Cc3ccccc3)CC2)c1O

>  <CID>
135421197

>  <logBB>
-0.17

>  <BBB+/BBB->
BBB+

>  <Inchi>
InChI=1S/C23H28N4O2/c1-2-7-20-10-6-11-21(23(20)29)16-24-25-22(28)18-27-14-12-26(13-15-27)17-19-8-4-3-5-9-19/h2-6-8-11-16-29H-1-7-12-15-17-18H2-(H-25-28)/b24-16-

>  <threshold>


>  <reference>
R47|

>  <group>
A

>  <Class>
1

>  <ABC>
22.06

>  <ABCGG>
15.98

>  <nAcid>
0

>  <nBase>
2

>  <nAromAtom>
12

>  <nAromBond>
12

>  <nAtom>
57

>  <nHeavyAtom>
29

>  <nSpiro>
0

>  <nBridgehead>
0

>  <nHetero>
6

>  <nN>
4

>  <nO>
2

>  <nF>
0

>  <BalabanJ>
1.27

>  <BertzCT>
843.21

>  <nBonds>
59

>  <nBondsO>
31

>  <nBondsS>
44

>  <nBondsD>
3

>  <nBondsT>
0

>  <nBondsA>
12

>  <nBondsM>
15

>  <nBondsKS>
50

>  <nBondsKD>
9

>  <RNCG>
0.2

>  <RPCG>
0.12

>  <FCSP3>
0.3

>  <SZ>
35

>  <Sm>
32.68

>  <Sv>
35.05

>  <Sse>
56.74

>  <Sp>
37.77

>  <Si>
64.4

>  <MZ>
0.61

>  <Mm>
0.57

>  <Mv>
0.61

>  <Mse>
1

>  <Mp>
0.66

>  <Mi>
1.13

>  <NsCH3>
0

>  <NdCH2>
1

>  <NssCH2>
7

>  <NtCH>
0

>  <NdsCH>
2

>  <NaaCH>
8

>  <NsssCH>
0

>  <NddC>
0

>  <NtsC>
0

>  <NdssC>
1

>  <NaasC>
4

>  <NaaaC>
0

>  <NssssC>
0

>  <NsNH3>
0

>  <NsNH2>
0

>  <NssNH2>
0

>  <NdNH>
0

>  <NssNH>
1

>  <NaaNH>
0

>  <NtN>
0

>  <NsssNH>
0

>  <NdsN>
1

>  <NaaN>
0

>  <NsssN>
2

>  <NddsN>
0

>  <NaasN>
0

>  <NssssN>
0

>  <NsOH>
1

>  <NdO>
1

>  <NssO>
0

>  <NaaO>
0

>  <NsF>
0

>  <NsSiH3>
0

>  <NssSiH2>
0

>  <NsssSiH>
0

>  <NssssSi>
0

>  <NsPH2>
0

>  <NssPH>
0

>  <NsssP>
0

>  <NdsssP>
0

>  <NsssssP>
0

>  <NsSH>
0

>  <NdS>
0

>  <NssS>
0

>  <NaaS>
0

>  <NdssS>
0

>  <NddssS>
0

>  <NsCl>
0

>  <NsBr>
0

>  <NsI>
0

>  <fragCpx>
149.06

>  <fMF>
0.42

>  <nHBAcc>
5

>  <nHBDon>
2

>  <Kier1>
23.66

>  <Kier2>
12.76

>  <Lipinski>
1

>  <GhoseFilter>
1

>  <FilterItLogS>
-4.59

>  <VMcGowan>
315.31

>  <LabuteASA>
171.7

>  <PEOE_VSA1>
5.11

>  <PEOE_VSA2>
14.59

>  <PEOE_VSA3>
5.43

>  <PEOE_VSA4>
5.1

>  <PEOE_VSA5>
6.58

>  <PEOE_VSA6>
48.54

>  <PEOE_VSA7>
23.61

>  <PEOE_VSA8>
38.29

>  <PEOE_VSA9>
12.76

>  <PEOE_VSA10>
5.75

>  <PEOE_VSA11>
0

>  <PEOE_VSA12>
0

>  <PEOE_VSA13>
5.91

>  <SMR_VSA1>
9.9

>  <SMR_VSA2>
0

>  <SMR_VSA3>
15.23

>  <SMR_VSA4>
5.1

>  <SMR_VSA5>
12.97

>  <SMR_VSA6>
32.72

>  <SMR_VSA7>
77.88

>  <SMR_VSA8>
0

>  <SMR_VSA9>
5.75

>  <SlogP_VSA1>
5.43

>  <SlogP_VSA2>
59.75

>  <SlogP_VSA3>
17.76

>  <SlogP_VSA4>
0

>  <SlogP_VSA5>
16.69

>  <SlogP_VSA6>
66.29

>  <SlogP_VSA7>
0

>  <SlogP_VSA8>
0

>  <SlogP_VSA9>
0

>  <SlogP_VSA10>
0

>  <SlogP_VSA11>
5.75

>  <EState_VSA1>
0

>  <EState_VSA2>
11.66

>  <EState_VSA3>
18.53

>  <EState_VSA4>
38.29

>  <EState_VSA5>
11.78

>  <EState_VSA6>
12.14

>  <EState_VSA7>
18.2

>  <EState_VSA8>
51.17

>  <EState_VSA9>
0

>  <EState_VSA10>
9.9

>  <VSA_EState1>
0

>  <VSA_EState2>
16.71

>  <VSA_EState3>
14.2

>  <VSA_EState4>
5.22

>  <VSA_EState5>
0.01

>  <VSA_EState6>
15.87

>  <VSA_EState7>
3.78

>  <VSA_EState8>
8.54

>  <VSA_EState9>
0

>  <apol>
63.08

>  <bpol>
32.95

>  <nRing>
3

>  <nHRing>
1

>  <naRing>
2

>  <naHRing>
0

>  <nARing 2>
1

>  <nAHRing 2>
1

>  <nFRing>
0

>  <nFHRing>
0

>  <nFaRing>
0

>  <nFaHRing>
0

>  <nFARing 2>
0

>  <nFAHRing 2>
0

>  <nRot>
8

>  <SLogP>
2.39

>  <SMR>
115.9

>  <TopoPSA(NO)>
68.17

>  <TopoPSA>
68.17

>  <JGI1>
0.16

>  <JGI2>
0.06

>  <JGI3>
0.04

>  <JGI4>
0.04

>  <JGI5>
0.01

>  <Diameter>
19

>  <Radius>
10

>  <TMWC10>
134.41

>  <TSRW10>
63.81

>  <MW>
392.22

>  <AMW>
6.88

>  <WPath>
2900

>  <WPol>
40

>  <Zagreb1>
142

>  <Zagreb2>
160

>  <mZagreb2>
6.64

>  <yes>


>  <nAR-cont>
0.816016

>  <nHA-cont>
0.785905698

>  <MWHBN>
0.353454221

>  <MWHBN-cont>
0.657279567

>  <TPSA-cont>
0.524131069

>  <pka_cont>
0.97

>  <yes.1>


>  <BBB_SCORE>
4.121103187

>  <MMFF94 Energy>
211.73

$$$$
Compound 291
Actelion Java MolfileCreator 2.0

  0  0  0  0  0  0              0 V3000
M  V30 BEGIN CTAB
M  V30 COUNTS 15 14 0 0 0
M  V30 BEGIN ATOM
M  V30 1 O -1.5798 -1.053 -1.2035 0
M  V30 2 C -0.4599 -1.1323 -0.3317 0
M  V30 3 C 0.2814 0.2071 -0.3122 0
M  V30 4 C -0.6076 1.3285 0.2294 0
M  V30 5 C 1.5598 0.0966 0.5158 0
M  V30 6 H -2.0171 -1.9213 -1.1859 0
M  V30 7 H -0.8154 -1.4019 0.6686 0
M  V30 8 H 0.1964 -1.9298 -0.6955 0
M  V30 9 H 0.5513 0.4716 -1.3425 0
M  V30 10 H -0.9341 1.1164 1.2532 0
M  V30 11 H -1.5003 1.4602 -0.3906 0
M  V30 12 H -0.0676 2.2814 0.2376 0
M  V30 13 H 1.3382 -0.1596 1.5575 0
M  V30 14 H 2.2204 -0.6765 0.1096 0
M  V30 15 H 2.1106 1.043 0.5096 0
M  V30 END ATOM
M  V30 BEGIN BOND
M  V30 1 1 1 2
M  V30 2 1 2 3
M  V30 3 1 3 4
M  V30 4 1 3 5
M  V30 5 1 1 6
M  V30 6 1 2 7
M  V30 7 1 2 8
M  V30 8 1 3 9
M  V30 9 1 4 10
M  V30 10 1 4 11
M  V30 11 1 4 12
M  V30 12 1 5 13
M  V30 13 1 5 14
M  V30 14 1 5 15
M  V30 END BOND
M  V30 END CTAB
M  END
>  <Column 1>
371

>  <level_0>
423

>  <index>
423

>  <Unnamed: 0>
423

>  <NO.>
425

>  <Name>
2-methylpropan-1-ol

>  <IUPAC_name>
2-methylpropan-1-ol

>  <SMILES>
CC(C)CO

>  <CID>
6560

>  <logBB>
-0.17

>  <BBB+/BBB->
BBB+

>  <Inchi>
InChI=1S/C4H10O/c1-4(2)3-5/h4-5H-3H2-1-2H3

>  <threshold>


>  <reference>
R2|R2|R8|R11|R12|R17|R18|R21|R22|R25|R26|R27|R27|R32|R33|R36|R39|R43|R46|R48|R49|R40|R3|R38|R41|R47|R44|

>  <group>
A

>  <Class>
1

>  <ABC>
3.05

>  <ABCGG>
3.31

>  <nAcid>
0

>  <nBase>
0

>  <nAromAtom>
0

>  <nAromBond>
0

>  <nAtom>
15

>  <nHeavyAtom>
5

>  <nSpiro>
0

>  <nBridgehead>
0

>  <nHetero>
1

>  <nN>
0

>  <nO>
1

>  <nF>
0

>  <BalabanJ>
2.54

>  <BertzCT>
17.61

>  <nBonds>
14

>  <nBondsO>
4

>  <nBondsS>
14

>  <nBondsD>
0

>  <nBondsT>
0

>  <nBondsA>
0

>  <nBondsM>
0

>  <nBondsKS>
14

>  <nBondsKD>
0

>  <RNCG>
0.73

>  <RPCG>
0.39

>  <FCSP3>
1

>  <SZ>
7

>  <Sm>
6.17

>  <Sv>
7.42

>  <Sse>
14.77

>  <Sp>
8.47

>  <Si>
17.29

>  <MZ>
0.47

>  <Mm>
0.41

>  <Mv>
0.49

>  <Mse>
0.98

>  <Mp>
0.56

>  <Mi>
1.15

>  <NsCH3>
2

>  <NdCH2>
0

>  <NssCH2>
1

>  <NtCH>
0

>  <NdsCH>
0

>  <NaaCH>
0

>  <NsssCH>
1

>  <NddC>
0

>  <NtsC>
0

>  <NdssC>
0

>  <NaasC>
0

>  <NaaaC>
0

>  <NssssC>
0

>  <NsNH3>
0

>  <NsNH2>
0

>  <NssNH2>
0

>  <NdNH>
0

>  <NssNH>
0

>  <NaaNH>
0

>  <NtN>
0

>  <NsssNH>
0

>  <NdsN>
0

>  <NaaN>
0

>  <NsssN>
0

>  <NddsN>
0

>  <NaasN>
0

>  <NssssN>
0

>  <NsOH>
1

>  <NdO>
0

>  <NssO>
0

>  <NaaO>
0

>  <NsF>
0

>  <NsSiH3>
0

>  <NssSiH2>
0

>  <NsssSiH>
0

>  <NssssSi>
0

>  <NsPH2>
0

>  <NssPH>
0

>  <NsssP>
0

>  <NdsssP>
0

>  <NsssssP>
0

>  <NsSH>
0

>  <NdS>
0

>  <NssS>
0

>  <NaaS>
0

>  <NdssS>
0

>  <NddssS>
0

>  <NsCl>
0

>  <NsBr>
0

>  <NsI>
0

>  <fragCpx>
4.01

>  <fMF>
0

>  <nHBAcc>
1

>  <nHBDon>
1

>  <Kier1>
5

>  <Kier2>
2.25

>  <Lipinski>
1

>  <GhoseFilter>
0

>  <FilterItLogS>
-0.4

>  <VMcGowan>
73.09

>  <LabuteASA>
32.63

>  <PEOE_VSA1>
5.11

>  <PEOE_VSA2>
0

>  <PEOE_VSA3>
0

>  <PEOE_VSA4>
0

>  <PEOE_VSA5>
0

>  <PEOE_VSA6>
13.85

>  <PEOE_VSA7>
5.92

>  <PEOE_VSA8>
6.61

>  <PEOE_VSA9>
0

>  <PEOE_VSA10>
0

>  <PEOE_VSA11>
0

>  <PEOE_VSA12>
0

>  <PEOE_VSA13>
0

>  <SMR_VSA1>
5.11

>  <SMR_VSA2>
0

>  <SMR_VSA3>
0

>  <SMR_VSA4>
5.92

>  <SMR_VSA5>
13.85

>  <SMR_VSA6>
6.61

>  <SMR_VSA7>
0

>  <SMR_VSA8>
0

>  <SMR_VSA9>
0

>  <SlogP_VSA1>
0

>  <SlogP_VSA2>
11.71

>  <SlogP_VSA3>
0

>  <SlogP_VSA4>
5.92

>  <SlogP_VSA5>
13.85

>  <SlogP_VSA6>
0

>  <SlogP_VSA7>
0

>  <SlogP_VSA8>
0

>  <SlogP_VSA9>
0

>  <SlogP_VSA10>
0

>  <SlogP_VSA11>
0

>  <EState_VSA1>
0

>  <EState_VSA2>
0

>  <EState_VSA3>
12.52

>  <EState_VSA4>
0

>  <EState_VSA5>
0

>  <EState_VSA6>
0

>  <EState_VSA7>
13.85

>  <EState_VSA8>
0

>  <EState_VSA9>
5.11

>  <EState_VSA10>
0

>  <VSA_EState1>
0

>  <VSA_EState2>
0

>  <VSA_EState3>
8.14

>  <VSA_EState4>
0

>  <VSA_EState5>
0.44

>  <VSA_EState6>
0

>  <VSA_EState7>
0

>  <VSA_EState8>
4.25

>  <VSA_EState9>
0

>  <apol>
14.15

>  <bpol>
10.03

>  <nRing>
0

>  <nHRing>
0

>  <naRing>
0

>  <naHRing>
0

>  <nARing 2>
0

>  <nAHRing 2>
0

>  <nFRing>
0

>  <nFHRing>
0

>  <nFaRing>
0

>  <nFaHRing>
0

>  <nFARing 2>
0

>  <nFAHRing 2>
0

>  <nRot>
1

>  <SLogP>
0.63

>  <SMR>
21.92

>  <TopoPSA(NO)>
20.23

>  <TopoPSA>
20.23

>  <JGI1>
0.38

>  <JGI2>
0.11

>  <JGI3>
0

>  <JGI4>
0

>  <JGI5>
0

>  <Diameter>
3

>  <Radius>
2

>  <TMWC10>
55.94

>  <TSRW10>
27.25

>  <MW>
74.07

>  <AMW>
4.94

>  <WPath>
18

>  <WPol>
2

>  <Zagreb1>
16

>  <Zagreb2>
14

>  <mZagreb2>
1.33

>  <yes>


>  <nAR-cont>
0.336376

>  <nHA-cont>
0

>  <MWHBN>
0.232385391

>  <MWHBN-cont>
0.984275344

>  <TPSA-cont>
0.858782038

>  <pka_cont>
0.97

>  <yes.1>


>  <BBB_SCORE>
4.015353092

>  <MMFF94 Energy>
2.8559

$$$$
Compound 292
Actelion Java MolfileCreator 2.0

  0  0  0  0  0  0              0 V3000
M  V30 BEGIN CTAB
M  V30 COUNTS 52 54 0 0 0
M  V30 BEGIN ATOM
M  V30 1 S 1.9273 2.5704 -0.6421 0
M  V30 2 O 1.9728 2.4419 0.7978 0
M  V30 3 O 3.0315 3.1509 -1.378 0
M  V30 4 N 1.6171 1.0377 -1.314 0
M  V30 5 C 0.4501 3.4629 -1.0457 0
M  V30 6 C 2.5591 -0.052 -0.905 0 CFG=2
M  V30 7 C 1.4613 0.9824 -2.7882 0
M  V30 8 C -0.7639 3.0292 -0.5079 0
M  V30 9 C 0.5073 4.5795 -1.8846 0
M  V30 10 C 2.8001 -0.8772 -2.1764 0
M  V30 11 C 1.9883 -0.8504 0.2766 0
M  V30 12 C 1.6779 -0.4827 -3.1183 0
M  V30 13 C -1.9246 3.7209 -0.8264 0
M  V30 14 C -0.6692 5.2642 -2.1925 0
M  V30 15 C 0.607 -1.4742 0.0311 0
M  V30 16 O -3.0959 3.2719 -0.2931 0
M  V30 17 C -1.8892 4.8342 -1.664 0
M  V30 18 N 0.1339 -2.3037 1.1599 0
M  V30 19 C -1.0384 -3.0897 0.7368 0
M  V30 20 C -0.1924 -1.4844 2.3404 0
M  V30 21 C -1.5376 -4.0082 1.8541 0
M  V30 22 C -0.6706 -2.3489 3.5115 0
M  V30 23 C -1.8562 -3.2466 3.1444 0
M  V30 24 C -3.1583 -2.4503 3.0297 0
M  V30 25 H 3.5217 0.3736 -0.5939 0
M  V30 26 H 2.2171 1.5954 -3.2901 0
M  V30 27 H 0.4637 1.3097 -3.0925 0
M  V30 28 H -0.8042 2.1653 0.1504 0
M  V30 29 H 1.4551 4.9214 -2.2945 0
M  V30 30 H 3.7599 -0.5828 -2.6197 0
M  V30 31 H 2.8434 -1.9557 -1.9987 0
M  V30 32 H 1.9421 -0.1809 1.1415 0
M  V30 33 H 2.6999 -1.6446 0.5369 0
M  V30 34 H 1.9367 -0.6394 -4.1693 0
M  V30 35 H 0.7718 -1.0594 -2.9039 0
M  V30 36 H -0.6351 6.1356 -2.8423 0
M  V30 37 H -0.1307 -0.6975 -0.2063 0
M  V30 38 H 0.6884 -2.1215 -0.8491 0
M  V30 39 H -3.8113 3.8748 -0.5546 0
M  V30 40 H -2.7954 5.378 -1.9135 0
M  V30 41 H -0.766 -3.7244 -0.1155 0
M  V30 42 H -1.8491 -2.4321 0.3985 0
M  V30 43 H 0.6948 -0.9462 2.6891 0
M  V30 44 H -0.95 -0.7295 2.0954 0
M  V30 45 H -0.764 -4.7579 2.0673 0
M  V30 46 H -2.4195 -4.5617 1.5103 0
M  V30 47 H -0.9286 -1.7063 4.3618 0
M  V30 48 H 0.1622 -2.9829 3.8436 0
M  V30 49 H -1.9974 -3.9781 3.9504 0
M  V30 50 H -3.1146 -1.6866 2.2479 0
M  V30 51 H -3.9967 -3.1164 2.7999 0
M  V30 52 H -3.3847 -1.9469 3.9758 0
M  V30 END ATOM
M  V30 BEGIN BOND
M  V30 1 2 1 2
M  V30 2 2 1 3
M  V30 3 1 1 4
M  V30 4 1 1 5
M  V30 5 1 4 6
M  V30 6 1 4 7
M  V30 7 2 5 8
M  V30 8 1 5 9
M  V30 9 1 6 10
M  V30 10 1 6 11
M  V30 11 1 7 12
M  V30 12 1 8 13
M  V30 13 2 9 14
M  V30 14 1 11 15
M  V30 15 1 13 16
M  V30 16 2 13 17
M  V30 17 1 15 18
M  V30 18 1 18 19
M  V30 19 1 18 20
M  V30 20 1 19 21
M  V30 21 1 20 22
M  V30 22 1 21 23
M  V30 23 1 23 24
M  V30 24 1 10 12
M  V30 25 1 14 17
M  V30 26 1 22 23
M  V30 27 1 6 25
M  V30 28 1 7 26
M  V30 29 1 7 27
M  V30 30 1 8 28
M  V30 31 1 9 29
M  V30 32 1 10 30
M  V30 33 1 10 31
M  V30 34 1 11 32
M  V30 35 1 11 33
M  V30 36 1 12 34
M  V30 37 1 12 35
M  V30 38 1 14 36
M  V30 39 1 15 37
M  V30 40 1 15 38
M  V30 41 1 16 39
M  V30 42 1 17 40
M  V30 43 1 19 41
M  V30 44 1 19 42
M  V30 45 1 20 43
M  V30 46 1 20 44
M  V30 47 1 21 45
M  V30 48 1 21 46
M  V30 49 1 22 47
M  V30 50 1 22 48
M  V30 51 1 23 49
M  V30 52 1 24 50
M  V30 53 1 24 51
M  V30 54 1 24 52
M  V30 END BOND
M  V30 BEGIN COLLECTION
M  V30 MDLV30/STEABS ATOMS=(1 6)
M  V30 END COLLECTION
M  V30 END CTAB
M  END
>  <Column 1>
373

>  <level_0>
425

>  <index>
425

>  <Unnamed: 0>
425

>  <NO.>
427

>  <Name>
201038-74-6

>  <IUPAC_name>
3-[(2r)-2-[2-(4-methylpiperidin-1-yl)ethyl]pyrrolidin-1-yl]sulfonylphenol

>  <SMILES>
CC1CCN(CC[C@H]2CCCN2S(=O)(=O)c2cccc(O)c2)CC1

>  <CID>
6604889

>  <logBB>
-0.17

>  <BBB+/BBB->
BBB+

>  <Inchi>
InChI=1S/C18H28N2O3S/c1-15-7-11-19(12-8-15)13-9-16-4-3-10-20(16)24(22-23)18-6-2-5-17(21)14-18/h2-5-6-14-16-21H-3-4-7-13H2-1H3/t16-/m1/s1

>  <threshold>


>  <reference>
R18|R26|R27|

>  <group>
A

>  <Class>
1

>  <ABC>
18.76

>  <ABCGG>
15.64

>  <nAcid>
0

>  <nBase>
1

>  <nAromAtom>
6

>  <nAromBond>
6

>  <nAtom>
52

>  <nHeavyAtom>
24

>  <nSpiro>
0

>  <nBridgehead>
0

>  <nHetero>
6

>  <nN>
2

>  <nO>
3

>  <nF>
0

>  <BalabanJ>
1.54

>  <BertzCT>
653.98

>  <nBonds>
54

>  <nBondsO>
26

>  <nBondsS>
46

>  <nBondsD>
2

>  <nBondsT>
0

>  <nBondsA>
6

>  <nBondsM>
8

>  <nBondsKS>
49

>  <nBondsKD>
5

>  <RNCG>
0.28

>  <RPCG>
0.16

>  <FCSP3>
0.67

>  <SZ>
31.67

>  <Sm>
29.35

>  <Sv>
30.43

>  <Sse>
51.82

>  <Sp>
33.67

>  <Si>
58.94

>  <MZ>
0.61

>  <Mm>
0.56

>  <Mv>
0.59

>  <Mse>
1

>  <Mp>
0.65

>  <Mi>
1.13

>  <NsCH3>
1

>  <NdCH2>
0

>  <NssCH2>
9

>  <NtCH>
0

>  <NdsCH>
0

>  <NaaCH>
4

>  <NsssCH>
2

>  <NddC>
0

>  <NtsC>
0

>  <NdssC>
0

>  <NaasC>
2

>  <NaaaC>
0

>  <NssssC>
0

>  <NsNH3>
0

>  <NsNH2>
0

>  <NssNH2>
0

>  <NdNH>
0

>  <NssNH>
0

>  <NaaNH>
0

>  <NtN>
0

>  <NsssNH>
0

>  <NdsN>
0

>  <NaaN>
0

>  <NsssN>
2

>  <NddsN>
0

>  <NaasN>
0

>  <NssssN>
0

>  <NsOH>
1

>  <NdO>
2

>  <NssO>
0

>  <NaaO>
0

>  <NsF>
0

>  <NsSiH3>
0

>  <NssSiH2>
0

>  <NsssSiH>
0

>  <NssssSi>
0

>  <NsPH2>
0

>  <NssPH>
0

>  <NsssP>
0

>  <NdsssP>
0

>  <NsssssP>
0

>  <NsSH>
0

>  <NdS>
0

>  <NssS>
0

>  <NaaS>
0

>  <NdssS>
0

>  <NddssS>
1

>  <NsCl>
0

>  <NsBr>
0

>  <NsI>
0

>  <fragCpx>
124.06

>  <fMF>
0.38

>  <nHBAcc>
4

>  <nHBDon>
1

>  <Kier1>
18.78

>  <Kier2>
8.13

>  <Lipinski>
1

>  <GhoseFilter>
1

>  <FilterItLogS>
-3.01

>  <VMcGowan>
272.92

>  <LabuteASA>
144.87

>  <PEOE_VSA1>
10.01

>  <PEOE_VSA2>
0

>  <PEOE_VSA3>
8.42

>  <PEOE_VSA4>
4.31

>  <PEOE_VSA5>
0

>  <PEOE_VSA6>
12.99

>  <PEOE_VSA7>
75.86

>  <PEOE_VSA8>
12.59

>  <PEOE_VSA9>
4.9

>  <PEOE_VSA10>
5.75

>  <PEOE_VSA11>
0

>  <PEOE_VSA12>
10.02

>  <PEOE_VSA13>
0

>  <SMR_VSA1>
13.52

>  <SMR_VSA2>
0

>  <SMR_VSA3>
9.21

>  <SMR_VSA4>
5.92

>  <SMR_VSA5>
49.97

>  <SMR_VSA6>
26.18

>  <SMR_VSA7>
24.27

>  <SMR_VSA8>
0

>  <SMR_VSA9>
5.75

>  <SlogP_VSA1>
0

>  <SlogP_VSA2>
54.95

>  <SlogP_VSA3>
10.02

>  <SlogP_VSA4>
5.92

>  <SlogP_VSA5>
39.03

>  <SlogP_VSA6>
29.16

>  <SlogP_VSA7>
0

>  <SlogP_VSA8>
0

>  <SlogP_VSA9>
0

>  <SlogP_VSA10>
0

>  <SlogP_VSA11>
5.75

>  <EState_VSA1>
10.02

>  <EState_VSA2>
16.69

>  <EState_VSA3>
6.54

>  <EState_VSA4>
44.81

>  <EState_VSA5>
24.97

>  <EState_VSA6>
16.44

>  <EState_VSA7>
0

>  <EState_VSA8>
11.82

>  <EState_VSA9>
0

>  <EState_VSA10>
13.52

>  <VSA_EState1>
27.43

>  <VSA_EState2>
2.67

>  <VSA_EState3>
9.59

>  <VSA_EState4>
0

>  <VSA_EState5>
0.81

>  <VSA_EState6>
6.07

>  <VSA_EState7>
5.24

>  <VSA_EState8>
6.13

>  <VSA_EState9>
-3.52

>  <apol>
56.24

>  <bpol>
38.17

>  <nRing>
3

>  <nHRing>
2

>  <naRing>
1

>  <naHRing>
0

>  <nARing 2>
2

>  <nAHRing 2>
2

>  <nFRing>
0

>  <nFHRing>
0

>  <nFaRing>
0

>  <nFaHRing>
0

>  <nFARing 2>
0

>  <nFAHRing 2>
0

>  <nRot>
5

>  <SLogP>
2.67

>  <SMR>
94.48

>  <TopoPSA(NO)>
60.85

>  <TopoPSA>
69.23

>  <JGI1>
0.23

>  <JGI2>
0.1

>  <JGI3>
0.05

>  <JGI4>
0.05

>  <JGI5>
0.02

>  <Diameter>
13

>  <Radius>
7

>  <TMWC10>
124.96

>  <TSRW10>
72.24

>  <MW>
352.18

>  <AMW>
6.77

>  <WPath>
1415

>  <WPol>
36

>  <Zagreb1>
126

>  <Zagreb2>
147

>  <mZagreb2>
5.19

>  <yes>


>  <nAR-cont>
1

>  <nHA-cont>
0.94700071

>  <MWHBN>
0.266432782

>  <MWHBN-cont>
0.928035715

>  <TPSA-cont>
0.516731611

>  <pka_cont>
0.97

>  <yes.1>


>  <BBB_SCORE>
4.857517504

>  <MMFF94 Energy>
-24.387

$$$$
Compound 293
Actelion Java MolfileCreator 2.0

  0  0  0  0  0  0              0 V3000
M  V30 BEGIN CTAB
M  V30 COUNTS 40 41 0 0 0
M  V30 BEGIN ATOM
M  V30 1 F 4.6626 2.2488 1.9273 0
M  V30 2 C 4.1933 2.9962 2.9492 0
M  V30 3 F 3.4234 3.9927 2.4605 0
M  V30 4 F 5.2494 3.5542 3.5811 0
M  V30 5 O 3.4748 2.2024 3.8766 0
M  V30 6 C 2.3539 1.559 3.4345 0
M  V30 7 C 1.8314 1.5899 2.1375 0
M  V30 8 C 1.7013 0.8051 4.4115 0
M  V30 9 C 0.662 0.8817 1.8041 0
M  V30 10 C 0.5456 0.0934 4.0998 0
M  V30 11 N 0.2063 0.9257 0.4723 0
M  V30 12 C 0.0334 0.1308 2.8026 0
M  V30 13 C -0.5464 0.0144 -0.2488 0
M  V30 14 C -0.6001 -1.3085 -0.015 0
M  V30 15 C -1.2977 0.6101 -1.4264 0
M  V30 16 C -1.3866 -2.237 -0.8627 0
M  V30 17 C -2.509 -0.2175 -1.8826 0
M  V30 18 O -1.3907 -3.4357 -0.5838 0
M  V30 19 C -2.1302 -1.6959 -2.0608 0
M  V30 20 C -3.6888 -0.0615 -0.9125 0
M  V30 21 C -1.3919 -1.8926 -3.3627 0
M  V30 22 O -1.947 -1.8647 -4.4555 0
M  V30 23 O -0.0505 -2.0188 -3.1856 0
M  V30 24 C 0.6895 -2.2005 -4.394 0
M  V30 25 H 2.3236 2.1513 1.3489 0
M  V30 26 H 2.0942 0.7698 5.4252 0
M  V30 27 H 0.0404 -0.4879 4.8668 0
M  V30 28 H 0.4303 1.7898 -0.0142 0
M  V30 29 H -0.8845 -0.4114 2.5941 0
M  V30 30 H -0.0374 -1.7848 0.7789 0
M  V30 31 H -1.6401 1.6222 -1.173 0
M  V30 32 H -0.5921 0.7238 -2.2598 0
M  V30 33 H -2.8422 0.1911 -2.8463 0
M  V30 34 H -3.0483 -2.2947 -2.1406 0
M  V30 35 H -4.5648 -0.6051 -1.2825 0
M  V30 36 H -3.4578 -0.4395 0.0882 0
M  V30 37 H -3.9713 0.9923 -0.8159 0
M  V30 38 H 1.7427 -2.3285 -4.1295 0
M  V30 39 H 0.3525 -3.099 -4.9202 0
M  V30 40 H 0.5971 -1.3172 -5.0335 0
M  V30 END ATOM
M  V30 BEGIN BOND
M  V30 1 1 1 2
M  V30 2 1 2 3
M  V30 3 1 2 4
M  V30 4 1 2 5
M  V30 5 1 5 6
M  V30 6 2 6 7
M  V30 7 1 6 8
M  V30 8 1 7 9
M  V30 9 2 8 10
M  V30 10 1 9 11
M  V30 11 2 9 12
M  V30 12 1 11 13
M  V30 13 2 13 14
M  V30 14 1 13 15
M  V30 15 1 14 16
M  V30 16 1 15 17
M  V30 17 2 16 18
M  V30 18 1 16 19
M  V30 19 1 17 20
M  V30 20 1 19 21
M  V30 21 2 21 22
M  V30 22 1 21 23
M  V30 23 1 23 24
M  V30 24 1 10 12
M  V30 25 1 17 19
M  V30 26 1 7 25
M  V30 27 1 8 26
M  V30 28 1 10 27
M  V30 29 1 11 28
M  V30 30 1 12 29
M  V30 31 1 14 30
M  V30 32 1 15 31
M  V30 33 1 15 32
M  V30 34 1 17 33
M  V30 35 1 19 34
M  V30 36 1 20 35
M  V30 37 1 20 36
M  V30 38 1 20 37
M  V30 39 1 24 38
M  V30 40 1 24 39
M  V30 41 1 24 40
M  V30 END BOND
M  V30 END CTAB
M  END
>  <Column 1>
374

>  <level_0>
426

>  <index>
426

>  <Unnamed: 0>
426

>  <NO.>
428

>  <Name>
2-oxo-4-[3-(trifluoromethoxy)anilino]-6-methyl-3-cyclohexene-1-carboxylic acid methyl ester

>  <IUPAC_name>
methyl 6-methyl-2-oxo-4-[3-(trifluoromethoxy)anilino]cyclohex-3-ene-1-carboxylate

>  <SMILES>
COC(=O)C1C(=O)C=C(Nc2cccc(OC(F)(F)F)c2)CC1C

>  <CID>
15186911

>  <logBB>
-0.17

>  <BBB+/BBB->
BBB+

>  <Inchi>
InChI=1S/C16H16F3NO4/c1-9-6-11(8-13(21)14(9)15(22)23-2)20-10-4-3-5-12(7-10)24-16(17-18)19/h3-5-7-9-14-20H-6H2-1-2H3

>  <threshold>


>  <reference>
R2|R2|R4|R25|R27|R40|R46|R47|

>  <group>
A

>  <Class>
1

>  <ABC>
18.36

>  <ABCGG>
15.17

>  <nAcid>
0

>  <nBase>
0

>  <nAromAtom>
6

>  <nAromBond>
6

>  <nAtom>
40

>  <nHeavyAtom>
24

>  <nSpiro>
0

>  <nBridgehead>
0

>  <nHetero>
8

>  <nN>
1

>  <nO>
4

>  <nF>
3

>  <BalabanJ>
1.85

>  <BertzCT>
669.53

>  <nBonds>
41

>  <nBondsO>
25

>  <nBondsS>
32

>  <nBondsD>
3

>  <nBondsT>
0

>  <nBondsA>
6

>  <nBondsM>
9

>  <nBondsKS>
35

>  <nBondsKD>
6

>  <RNCG>
0.2

>  <RPCG>
0.24

>  <FCSP3>
0.38

>  <SZ>
29.67

>  <Sm>
28.58

>  <Sv>
25.89

>  <Sse>
41.96

>  <Sp>
25.97

>  <Si>
46.09

>  <MZ>
0.74

>  <Mm>
0.71

>  <Mv>
0.65

>  <Mse>
1.05

>  <Mp>
0.65

>  <Mi>
1.15

>  <NsCH3>
2

>  <NdCH2>
0

>  <NssCH2>
1

>  <NtCH>
0

>  <NdsCH>
1

>  <NaaCH>
4

>  <NsssCH>
2

>  <NddC>
0

>  <NtsC>
0

>  <NdssC>
3

>  <NaasC>
2

>  <NaaaC>
0

>  <NssssC>
1

>  <NsNH3>
0

>  <NsNH2>
0

>  <NssNH2>
0

>  <NdNH>
0

>  <NssNH>
1

>  <NaaNH>
0

>  <NtN>
0

>  <NsssNH>
0

>  <NdsN>
0

>  <NaaN>
0

>  <NsssN>
0

>  <NddsN>
0

>  <NaasN>
0

>  <NssssN>
0

>  <NsOH>
0

>  <NdO>
2

>  <NssO>
2

>  <NaaO>
0

>  <NsF>
3

>  <NsSiH3>
0

>  <NssSiH2>
0

>  <NsssSiH>
0

>  <NssssSi>
0

>  <NsPH2>
0

>  <NssPH>
0

>  <NsssP>
0

>  <NdsssP>
0

>  <NsssssP>
0

>  <NsSH>
0

>  <NdS>
0

>  <NssS>
0

>  <NaaS>
0

>  <NdssS>
0

>  <NddssS>
0

>  <NsCl>
0

>  <NsBr>
0

>  <NsI>
0

>  <fragCpx>
73.08

>  <fMF>
0.33

>  <nHBAcc>
5

>  <nHBDon>
1

>  <Kier1>
20.31

>  <Kier2>
8.59

>  <Lipinski>
1

>  <GhoseFilter>
1

>  <FilterItLogS>
-3.75

>  <VMcGowan>
227.52

>  <LabuteASA>
135.98

>  <PEOE_VSA1>
14.79

>  <PEOE_VSA2>
9.59

>  <PEOE_VSA3>
0

>  <PEOE_VSA4>
0

>  <PEOE_VSA5>
13.17

>  <PEOE_VSA6>
12.99

>  <PEOE_VSA7>
24.47

>  <PEOE_VSA8>
23.53

>  <PEOE_VSA9>
7.11

>  <PEOE_VSA10>
11.67

>  <PEOE_VSA11>
5.78

>  <PEOE_VSA12>
0

>  <PEOE_VSA13>
0

>  <SMR_VSA1>
32.23

>  <SMR_VSA2>
0

>  <SMR_VSA3>
0

>  <SMR_VSA4>
11.84

>  <SMR_VSA5>
19.71

>  <SMR_VSA6>
12.43

>  <SMR_VSA7>
36.04

>  <SMR_VSA8>
0

>  <SMR_VSA9>
5.75

>  <SlogP_VSA1>
10.05

>  <SlogP_VSA2>
25.22

>  <SlogP_VSA3>
14.33

>  <SlogP_VSA4>
11.84

>  <SlogP_VSA5>
13.34

>  <SlogP_VSA6>
36.04

>  <SlogP_VSA7>
0

>  <SlogP_VSA8>
0

>  <SlogP_VSA9>
0

>  <SlogP_VSA10>
18.86

>  <SlogP_VSA11>
5.75

>  <EState_VSA1>
24.03

>  <EState_VSA2>
11.67

>  <EState_VSA3>
17.81

>  <EState_VSA4>
0

>  <EState_VSA5>
31.38

>  <EState_VSA6>
12.99

>  <EState_VSA7>
0

>  <EState_VSA8>
14.79

>  <EState_VSA9>
0

>  <EState_VSA10>
22.76

>  <VSA_EState1>
45.19

>  <VSA_EState2>
23.68

>  <VSA_EState3>
2.89

>  <VSA_EState4>
0.86

>  <VSA_EState5>
-2.5

>  <VSA_EState6>
5.3

>  <VSA_EState7>
-3.12

>  <VSA_EState8>
1.73

>  <VSA_EState9>
1.21

>  <apol>
43.37

>  <bpol>
25.17

>  <nRing>
2

>  <nHRing>
0

>  <naRing>
1

>  <naHRing>
0

>  <nARing 2>
1

>  <nAHRing 2>
0

>  <nFRing>
0

>  <nFHRing>
0

>  <nFaRing>
0

>  <nFaHRing>
0

>  <nFARing 2>
0

>  <nFAHRing 2>
0

>  <nRot>
4

>  <SLogP>
3.28

>  <SMR>
79.12

>  <TopoPSA(NO)>
64.63

>  <TopoPSA>
64.63

>  <JGI1>
0.3

>  <JGI2>
0.06

>  <JGI3>
0.08

>  <JGI4>
0.04

>  <JGI5>
0.03

>  <Diameter>
13

>  <Radius>
7

>  <TMWC10>
123.08

>  <TSRW10>
58.39

>  <MW>
343.1

>  <AMW>
8.58

>  <WPath>
1457

>  <WPol>
35

>  <Zagreb1>
122

>  <Zagreb2>
138

>  <mZagreb2>
5.21

>  <yes>


>  <nAR-cont>
0.816016

>  <nHA-cont>
0.94700071

>  <MWHBN>
0.323922333

>  <MWHBN-cont>
0.763882528

>  <TPSA-cont>
0.548842467

>  <pka_cont>
0.97

>  <yes.1>


>  <BBB_SCORE>
4.491525436

>  <MMFF94 Energy>
15.537

$$$$
Compound 294
Actelion Java MolfileCreator 2.0

  0  0  0  0  0  0              0 V3000
M  V30 BEGIN CTAB
M  V30 COUNTS 19 19 0 0 0
M  V30 BEGIN ATOM
M  V30 1 O 1.0116 -2.8035 -2.3358 0
M  V30 2 N 0.3146 -1.7201 -1.7899 0
M  V30 3 C 0.8913 -1.3824 -0.6813 0
M  V30 4 C 0.4332 -0.2732 0.1795 0
M  V30 5 N -0.6491 0.4973 -0.1254 0 CHG=1
M  V30 6 C 1.1635 -0.0308 1.3492 0
M  V30 7 C -1.0192 1.5022 0.7075 0
M  V30 8 C -1.4531 0.2834 -1.3461 0
M  V30 9 C 0.7854 0.9971 2.2019 0
M  V30 10 C -0.3168 1.7698 1.8761 0
M  V30 11 H 0.5272 -3.0036 -3.1613 0
M  V30 12 H 1.782 -1.938 -0.3308 0
M  V30 13 H 2.0301 -0.6388 1.6047 0
M  V30 14 H -1.8874 2.0971 0.4335 0
M  V30 15 H -0.812 0.4411 -2.2164 0
M  V30 16 H -1.8933 -0.7153 -1.3016 0
M  V30 17 H -2.2673 1.0128 -1.3863 0
M  V30 18 H 1.3472 1.1938 3.1146 0
M  V30 19 H -0.6304 2.5811 2.5312 0
M  V30 END ATOM
M  V30 BEGIN BOND
M  V30 1 1 1 2
M  V30 2 2 2 3
M  V30 3 1 3 4
M  V30 4 2 4 5
M  V30 5 1 4 6
M  V30 6 1 5 7
M  V30 7 1 5 8
M  V30 8 2 6 9
M  V30 9 2 7 10
M  V30 10 1 9 10
M  V30 11 1 1 11
M  V30 12 1 3 12
M  V30 13 1 6 13
M  V30 14 1 7 14
M  V30 15 1 8 15
M  V30 16 1 8 16
M  V30 17 1 8 17
M  V30 18 1 9 18
M  V30 19 1 10 19
M  V30 END BOND
M  V30 END CTAB
M  END
>  <Column 1>
375

>  <level_0>
428

>  <index>
428

>  <Unnamed: 0>
428

>  <NO.>
430

>  <Name>
pralidoxime

>  <IUPAC_name>
(ne)-n-[(1-methylpyridin-1-ium-2-yl)methylidene]hydroxylamine

>  <SMILES>
C[n+]1ccccc1/C=N/O

>  <CID>
135398747

>  <logBB>
-0.17

>  <BBB+/BBB->
BBB+

>  <Inchi>
InChI=1S/C7H8N2O/c1-9-5-3-2-4-7(9)6-8-10/h2-6H-1H3/p+1

>  <threshold>


>  <reference>
R20|R2|R2|R25|R27|R46|

>  <group>
A

>  <Class>
1

>  <ABC>
7.14

>  <ABCGG>
6.83

>  <nAcid>
0

>  <nBase>
1

>  <nAromAtom>
6

>  <nAromBond>
6

>  <nAtom>
19

>  <nHeavyAtom>
10

>  <nSpiro>
0

>  <nBridgehead>
0

>  <nHetero>
3

>  <nN>
2

>  <nO>
1

>  <nF>
0

>  <BalabanJ>
2.25

>  <BertzCT>
245.12

>  <nBonds>
19

>  <nBondsO>
10

>  <nBondsS>
12

>  <nBondsD>
1

>  <nBondsT>
0

>  <nBondsA>
6

>  <nBondsM>
7

>  <nBondsKS>
15

>  <nBondsKD>
4

>  <RNCG>
0.55

>  <RPCG>
0.19

>  <FCSP3>
0.14

>  <SZ>
12.17

>  <Sm>
11.42

>  <Sv>
11.67

>  <Sse>
19.15

>  <Sp>
12.39

>  <Si>
21.66

>  <MZ>
0.64

>  <Mm>
0.6

>  <Mv>
0.61

>  <Mse>
1.01

>  <Mp>
0.65

>  <Mi>
1.14

>  <NsCH3>
1

>  <NdCH2>
0

>  <NssCH2>
0

>  <NtCH>
0

>  <NdsCH>
1

>  <NaaCH>
4

>  <NsssCH>
0

>  <NddC>
0

>  <NtsC>
0

>  <NdssC>
0

>  <NaasC>
1

>  <NaaaC>
0

>  <NssssC>
0

>  <NsNH3>
0

>  <NsNH2>
0

>  <NssNH2>
0

>  <NdNH>
0

>  <NssNH>
0

>  <NaaNH>
0

>  <NtN>
0

>  <NsssNH>
0

>  <NdsN>
1

>  <NaaN>
0

>  <NsssN>
0

>  <NddsN>
0

>  <NaasN>
1

>  <NssssN>
0

>  <NsOH>
1

>  <NdO>
0

>  <NssO>
0

>  <NaaO>
0

>  <NsF>
0

>  <NsSiH3>
0

>  <NssSiH2>
0

>  <NsssSiH>
0

>  <NssssSi>
0

>  <NsPH2>
0

>  <NssPH>
0

>  <NsssP>
0

>  <NdsssP>
0

>  <NsssssP>
0

>  <NsSH>
0

>  <NdS>
0

>  <NssS>
0

>  <NaaS>
0

>  <NdssS>
0

>  <NddssS>
0

>  <NsCl>
0

>  <NsBr>
0

>  <NsI>
0

>  <fragCpx>
10.03

>  <fMF>
0.32

>  <nHBAcc>
2

>  <nHBDon>
1

>  <Kier1>
8.1

>  <Kier2>
4

>  <Lipinski>
1

>  <GhoseFilter>
0

>  <FilterItLogS>
-0.47

>  <VMcGowan>
109.41

>  <LabuteASA>
59.23

>  <PEOE_VSA1>
5.21

>  <PEOE_VSA2>
0

>  <PEOE_VSA3>
4.57

>  <PEOE_VSA4>
0

>  <PEOE_VSA5>
0

>  <PEOE_VSA6>
5.16

>  <PEOE_VSA7>
6.07

>  <PEOE_VSA8>
12.13

>  <PEOE_VSA9>
0

>  <PEOE_VSA10>
13.26

>  <PEOE_VSA11>
6.2

>  <PEOE_VSA12>
5.69

>  <PEOE_VSA13>
0

>  <SMR_VSA1>
9.77

>  <SMR_VSA2>
0

>  <SMR_VSA3>
0

>  <SMR_VSA4>
12.2

>  <SMR_VSA5>
0

>  <SMR_VSA6>
0

>  <SMR_VSA7>
30.09

>  <SMR_VSA8>
0

>  <SMR_VSA9>
0

>  <SlogP_VSA1>
4.57

>  <SlogP_VSA2>
11.42

>  <SlogP_VSA3>
7.05

>  <SlogP_VSA4>
0

>  <SlogP_VSA5>
5.69

>  <SlogP_VSA6>
29.55

>  <SlogP_VSA7>
0

>  <SlogP_VSA8>
0

>  <SlogP_VSA9>
0

>  <SlogP_VSA10>
0

>  <SlogP_VSA11>
0

>  <EState_VSA1>
0

>  <EState_VSA2>
0

>  <EState_VSA3>
0

>  <EState_VSA4>
5.69

>  <EState_VSA5>
6.21

>  <EState_VSA6>
0

>  <EState_VSA7>
36.01

>  <EState_VSA8>
5.16

>  <EState_VSA9>
5.21

>  <EState_VSA10>
0

>  <VSA_EState1>
1.86

>  <VSA_EState2>
0

>  <VSA_EState3>
11.12

>  <VSA_EState4>
0.87

>  <VSA_EState5>
0

>  <VSA_EState6>
5.66

>  <VSA_EState7>
3.27

>  <VSA_EState8>
0

>  <VSA_EState9>
1.89

>  <apol>
20.69

>  <bpol>
10.74

>  <nRing>
1

>  <nHRing>
1

>  <naRing>
1

>  <naHRing>
1

>  <nARing 2>
0

>  <nAHRing 2>
0

>  <nFRing>
0

>  <nFHRing>
0

>  <nFaRing>
0

>  <nFaHRing>
0

>  <nFARing 2>
0

>  <nFAHRing 2>
0

>  <nRot>
1

>  <SLogP>
0.32

>  <SMR>
37

>  <TopoPSA(NO)>
36.47

>  <TopoPSA>
36.47

>  <JGI1>
0.15

>  <JGI2>
0.09

>  <JGI3>
0.05

>  <JGI4>
0.05

>  <JGI5>
0.02

>  <Diameter>
6

>  <Radius>
3

>  <TMWC10>
82.75

>  <TSRW10>
38.86

>  <MW>
137.07

>  <AMW>
7.21

>  <WPath>
121

>  <WPol>
11

>  <Zagreb1>
44

>  <Zagreb2>
48

>  <mZagreb2>
2.44

>  <yes>


>  <nAR-cont>
0.336376

>  <nHA-cont>
0.645914733

>  <MWHBN>
0.256241842

>  <MWHBN-cont>
0.948674516

>  <TPSA-cont>
0.745416753

>  <pka_cont>
0.97

>  <yes.1>


>  <BBB_SCORE>
4.381136015

>  <MMFF94 Energy>
59.03

$$$$
Compound 295
Actelion Java MolfileCreator 2.0

  0  0  0  0  0  0              0 V3000
M  V30 BEGIN CTAB
M  V30 COUNTS 35 35 0 0 0
M  V30 BEGIN ATOM
M  V30 1 F -5.4259 -1.8846 -1.1776 0
M  V30 2 C -4.8316 -2.4583 -0.098 0
M  V30 3 C -3.6131 -1.6407 0.2946 0
M  V30 4 C -2.5671 -1.6194 -0.8213 0
M  V30 5 C -1.3389 -0.8008 -0.4169 0
M  V30 6 C -0.2987 -0.7713 -1.5391 0
M  V30 7 C 0.9039 0.1246 -1.2273 0
M  V30 8 C 1.768 -0.4018 -0.0765 0
M  V30 9 C 3.0497 0.4129 0.1223 0
M  V30 10 N 2.8249 1.7723 0.5774 0
M  V30 11 C 2.4373 2.2324 1.8101 0
M  V30 12 C 2.9682 2.8812 -0.226 0
M  V30 13 N 2.1836 1.4085 2.9624 0 CHG=1
M  V30 14 N 2.3028 3.5462 1.8274 0
M  V30 15 C 2.636 3.9563 0.5646 0
M  V30 16 O 1.4547 1.876 3.8467 0
M  V30 17 O 2.7056 0.2853 2.989 0 CHG=-1
M  V30 18 H -5.5632 -2.4809 0.7146 0
M  V30 19 H -4.5638 -3.4855 -0.3612 0
M  V30 20 H -3.9271 -0.6134 0.5126 0
M  V30 21 H -3.1758 -2.0576 1.2088 0
M  V30 22 H -3.0084 -1.1947 -1.731 0
M  V30 23 H -2.2619 -2.6456 -1.0588 0
M  V30 24 H -0.9031 -1.2351 0.4894 0
M  V30 25 H -1.6447 0.2236 -0.1727 0
M  V30 26 H -0.7728 -0.3986 -2.4556 0
M  V30 27 H 0.0455 -1.7901 -1.7538 0
M  V30 28 H 0.5499 1.1372 -1.0022 0
M  V30 29 H 1.5197 0.197 -2.1322 0
M  V30 30 H 1.1847 -0.4151 0.8494 0
M  V30 31 H 2.0519 -1.4394 -0.2902 0
M  V30 32 H 3.6057 0.4663 -0.8218 0
M  V30 33 H 3.7205 -0.0739 0.8365 0
M  V30 34 H 3.2739 2.815 -1.2616 0
M  V30 35 H 2.6184 5.0037 0.2891 0
M  V30 END ATOM
M  V30 BEGIN BOND
M  V30 1 1 1 2
M  V30 2 1 2 3
M  V30 3 1 3 4
M  V30 4 1 4 5
M  V30 5 1 5 6
M  V30 6 1 6 7
M  V30 7 1 7 8
M  V30 8 1 8 9
M  V30 9 1 9 10
M  V30 10 1 10 11
M  V30 11 1 10 12
M  V30 12 1 11 13
M  V30 13 2 11 14
M  V30 14 2 12 15
M  V30 15 2 13 16
M  V30 16 1 13 17
M  V30 17 1 14 15
M  V30 18 1 2 18
M  V30 19 1 2 19
M  V30 20 1 3 20
M  V30 21 1 3 21
M  V30 22 1 4 22
M  V30 23 1 4 23
M  V30 24 1 5 24
M  V30 25 1 5 25
M  V30 26 1 6 26
M  V30 27 1 6 27
M  V30 28 1 7 28
M  V30 29 1 7 29
M  V30 30 1 8 30
M  V30 31 1 8 31
M  V30 32 1 9 32
M  V30 33 1 9 33
M  V30 34 1 12 34
M  V30 35 1 15 35
M  V30 END BOND
M  V30 END CTAB
M  END
>  <Column 1>
376

>  <level_0>
429

>  <index>
429

>  <Unnamed: 0>
429

>  <NO.>
431

>  <Name>
1-(8-fluorooctyl)-2-nitroimidazole (fon)

>  <IUPAC_name>
1-(8-fluorooctyl)-2-nitroimidazole

>  <SMILES>
O=[N+]([O-])c1nccn1CCCCCCCCF

>  <CID>
10377120

>  <logBB>
-0.17

>  <BBB+/BBB->
BBB+

>  <Inchi>
InChI=1S/C11H18FN3O2/c12-7-5-3-1-2-4-6-9-14-10-8-13-11(14)15(16)17/h8-10H-1-7-9H2

>  <threshold>


>  <reference>
R2|R2|R3|R8|R21|R25|R27|R27|R38|R40|R41|R43|R46|R47|

>  <group>
A

>  <Class>
1

>  <ABC>
12.16

>  <ABCGG>
11.03

>  <nAcid>
0

>  <nBase>
0

>  <nAromAtom>
5

>  <nAromBond>
5

>  <nAtom>
35

>  <nHeavyAtom>
17

>  <nSpiro>
0

>  <nBridgehead>
0

>  <nHetero>
6

>  <nN>
3

>  <nO>
2

>  <nF>
1

>  <BalabanJ>
1.98

>  <BertzCT>
341.21

>  <nBonds>
35

>  <nBondsO>
17

>  <nBondsS>
29

>  <nBondsD>
1

>  <nBondsT>
0

>  <nBondsA>
5

>  <nBondsM>
6

>  <nBondsKS>
32

>  <nBondsKD>
3

>  <RNCG>
0.24

>  <RPCG>
0.27

>  <FCSP3>
0.73

>  <SZ>
21.67

>  <Sm>
20.25

>  <Sv>
20.23

>  <Sse>
35.6

>  <Sp>
21.46

>  <Si>
40.58

>  <MZ>
0.62

>  <Mm>
0.58

>  <Mv>
0.58

>  <Mse>
1.02

>  <Mp>
0.61

>  <Mi>
1.16

>  <NsCH3>
0

>  <NdCH2>
0

>  <NssCH2>
8

>  <NtCH>
0

>  <NdsCH>
0

>  <NaaCH>
2

>  <NsssCH>
0

>  <NddC>
0

>  <NtsC>
0

>  <NdssC>
0

>  <NaasC>
1

>  <NaaaC>
0

>  <NssssC>
0

>  <NsNH3>
0

>  <NsNH2>
0

>  <NssNH2>
0

>  <NdNH>
0

>  <NssNH>
0

>  <NaaNH>
0

>  <NtN>
0

>  <NsssNH>
0

>  <NdsN>
0

>  <NaaN>
1

>  <NsssN>
0

>  <NddsN>
1

>  <NaasN>
1

>  <NssssN>
0

>  <NsOH>
0

>  <NdO>
1

>  <NssO>
0

>  <NaaO>
0

>  <NsF>
1

>  <NsSiH3>
0

>  <NssSiH2>
0

>  <NsssSiH>
0

>  <NssssSi>
0

>  <NsPH2>
0

>  <NssPH>
0

>  <NsssP>
0

>  <NdsssP>
0

>  <NsssssP>
0

>  <NsSH>
0

>  <NdS>
0

>  <NssS>
0

>  <NaaS>
0

>  <NdssS>
0

>  <NddssS>
0

>  <NsCl>
0

>  <NsBr>
0

>  <NsI>
0

>  <fragCpx>
17.06

>  <fMF>
0.14

>  <nHBAcc>
4

>  <nHBDon>
0

>  <Kier1>
15.06

>  <Kier2>
9

>  <Lipinski>
1

>  <GhoseFilter>
1

>  <FilterItLogS>
-3.64

>  <VMcGowan>
185.53

>  <LabuteASA>
99.81

>  <PEOE_VSA1>
10.11

>  <PEOE_VSA2>
4.39

>  <PEOE_VSA3>
4.57

>  <PEOE_VSA4>
0

>  <PEOE_VSA5>
0

>  <PEOE_VSA6>
30.67

>  <PEOE_VSA7>
17.76

>  <PEOE_VSA8>
0

>  <PEOE_VSA9>
13.22

>  <PEOE_VSA10>
12.39

>  <PEOE_VSA11>
0

>  <PEOE_VSA12>
0

>  <PEOE_VSA13>
0

>  <SMR_VSA1>
9.31

>  <SMR_VSA2>
0

>  <SMR_VSA3>
9.55

>  <SMR_VSA4>
0

>  <SMR_VSA5>
45.07

>  <SMR_VSA6>
6.67

>  <SMR_VSA7>
22.51

>  <SMR_VSA8>
0

>  <SMR_VSA9>
0

>  <SlogP_VSA1>
0

>  <SlogP_VSA2>
21.15

>  <SlogP_VSA3>
6.54

>  <SlogP_VSA4>
10.11

>  <SlogP_VSA5>
38.52

>  <SlogP_VSA6>
12.39

>  <SlogP_VSA7>
0

>  <SlogP_VSA8>
0

>  <SlogP_VSA9>
0

>  <SlogP_VSA10>
10.34

>  <SlogP_VSA11>
0

>  <EState_VSA1>
4.92

>  <EState_VSA2>
12.62

>  <EState_VSA3>
12.97

>  <EState_VSA4>
32.1

>  <EState_VSA5>
6.2

>  <EState_VSA6>
10.76

>  <EState_VSA7>
0

>  <EState_VSA8>
4.98

>  <EState_VSA9>
0

>  <EState_VSA10>
14.5

>  <VSA_EState1>
13.36

>  <VSA_EState2>
13.78

>  <VSA_EState3>
10.58

>  <VSA_EState4>
0

>  <VSA_EState5>
-0.09

>  <VSA_EState6>
0

>  <VSA_EState7>
8.65

>  <VSA_EState8>
0.39

>  <VSA_EState9>
0

>  <apol>
35.83

>  <bpol>
23.19

>  <nRing>
1

>  <nHRing>
1

>  <naRing>
1

>  <naHRing>
1

>  <nARing 2>
0

>  <nAHRing 2>
0

>  <nFRing>
0

>  <nFHRing>
0

>  <nFaRing>
0

>  <nFaHRing>
0

>  <nFARing 2>
0

>  <nFAHRing 2>
0

>  <nRot>
9

>  <SLogP>
3.1

>  <SMR>
62.56

>  <TopoPSA(NO)>
60.96

>  <TopoPSA>
60.96

>  <JGI1>
0.12

>  <JGI2>
0.07

>  <JGI3>
0.04

>  <JGI4>
0.03

>  <JGI5>
0.02

>  <Diameter>
12

>  <Radius>
6

>  <TMWC10>
101.52

>  <TSRW10>
61.63

>  <MW>
243.14

>  <AMW>
6.95

>  <WPath>
668

>  <WPol>
18

>  <Zagreb1>
74

>  <Zagreb2>
80

>  <mZagreb2>
4.14

>  <yes>


>  <nAR-cont>
0.336376

>  <nHA-cont>
0.976740822

>  <MWHBN>
0.256526234

>  <MWHBN-cont>
0.948140145

>  <TPSA-cont>
0.574461346

>  <pka_cont>
0.97

>  <yes.1>


>  <BBB_SCORE>
4.369249732

>  <MMFF94 Energy>
54.086

$$$$
Compound 296
Actelion Java MolfileCreator 2.0

  0  0  0  0  0  0              0 V3000
M  V30 BEGIN CTAB
M  V30 COUNTS 12 11 0 0 0
M  V30 BEGIN ATOM
M  V30 1 O -1.0423 -1.1168 -1.5638 0
M  V30 2 C -0.6977 -0.7042 -0.2486 0
M  V30 3 C 0.4072 0.3374 -0.3337 0
M  V30 4 C 0.829 0.8269 1.0397 0
M  V30 5 H -1.7481 -1.78 -1.4787 0
M  V30 6 H -0.3653 -1.5812 0.3156 0
M  V30 7 H -1.5898 -0.2891 0.2311 0
M  V30 8 H 1.2714 -0.0851 -0.8599 0
M  V30 9 H 0.0686 1.184 -0.9429 0
M  V30 10 H 1.6235 1.574 0.9489 0
M  V30 11 H -0.0121 1.2881 1.5671 0
M  V30 12 H 1.2071 0.0015 1.6512 0
M  V30 END ATOM
M  V30 BEGIN BOND
M  V30 1 1 1 2
M  V30 2 1 2 3
M  V30 3 1 3 4
M  V30 4 1 1 5
M  V30 5 1 2 6
M  V30 6 1 2 7
M  V30 7 1 3 8
M  V30 8 1 3 9
M  V30 9 1 4 10
M  V30 10 1 4 11
M  V30 11 1 4 12
M  V30 END BOND
M  V30 END CTAB
M  END
>  <Column 1>
377

>  <level_0>
430

>  <index>
430

>  <Unnamed: 0>
430

>  <NO.>
432

>  <Name>
propan-1-ol

>  <IUPAC_name>
propan-1-ol

>  <SMILES>
CCCO

>  <CID>
1031

>  <logBB>
-0.16

>  <BBB+/BBB->
BBB+

>  <Inchi>
InChI=1S/C3H8O/c1-2-3-4/h4H-2-3H2-1H3

>  <threshold>


>  <reference>
R11|R12|R12|R17|R18|R22|R25|R26|R27|R32|R33|R36|R48|R49|R2|R2|R8|R27|R21|R27|R43|R40|R41|R3|R38|R47|R44|

>  <group>
A

>  <Class>
1

>  <ABC>
2.12

>  <ABCGG>
2.34

>  <nAcid>
0

>  <nBase>
0

>  <nAromAtom>
0

>  <nAromBond>
0

>  <nAtom>
12

>  <nHeavyAtom>
4

>  <nSpiro>
0

>  <nBridgehead>
0

>  <nHetero>
1

>  <nN>
0

>  <nO>
1

>  <nF>
0

>  <BalabanJ>
1.97

>  <BertzCT>
5.25

>  <nBonds>
11

>  <nBondsO>
3

>  <nBondsS>
11

>  <nBondsD>
0

>  <nBondsT>
0

>  <nBondsA>
0

>  <nBondsM>
0

>  <nBondsKS>
11

>  <nBondsKD>
0

>  <RNCG>
0.81

>  <RPCG>
0.43

>  <FCSP3>
1

>  <SZ>
5.67

>  <Sm>
5

>  <Sv>
5.88

>  <Sse>
11.88

>  <Sp>
6.67

>  <Si>
13.87

>  <MZ>
0.47

>  <Mm>
0.42

>  <Mv>
0.49

>  <Mse>
0.99

>  <Mp>
0.56

>  <Mi>
1.16

>  <NsCH3>
1

>  <NdCH2>
0

>  <NssCH2>
2

>  <NtCH>
0

>  <NdsCH>
0

>  <NaaCH>
0

>  <NsssCH>
0

>  <NddC>
0

>  <NtsC>
0

>  <NdssC>
0

>  <NaasC>
0

>  <NaaaC>
0

>  <NssssC>
0

>  <NsNH3>
0

>  <NsNH2>
0

>  <NssNH2>
0

>  <NdNH>
0

>  <NssNH>
0

>  <NaaNH>
0

>  <NtN>
0

>  <NsssNH>
0

>  <NdsN>
0

>  <NaaN>
0

>  <NsssN>
0

>  <NddsN>
0

>  <NaasN>
0

>  <NssssN>
0

>  <NsOH>
1

>  <NdO>
0

>  <NssO>
0

>  <NaaO>
0

>  <NsF>
0

>  <NsSiH3>
0

>  <NssSiH2>
0

>  <NsssSiH>
0

>  <NssssSi>
0

>  <NsPH2>
0

>  <NssPH>
0

>  <NsssP>
0

>  <NdsssP>
0

>  <NsssssP>
0

>  <NsSH>
0

>  <NdS>
0

>  <NssS>
0

>  <NaaS>
0

>  <NdssS>
0

>  <NddssS>
0

>  <NsCl>
0

>  <NsBr>
0

>  <NsI>
0

>  <fragCpx>
3.01

>  <fMF>
0

>  <nHBAcc>
1

>  <nHBDon>
1

>  <Kier1>
4

>  <Kier2>
3

>  <Lipinski>
1

>  <GhoseFilter>
0

>  <FilterItLogS>
-0.33

>  <VMcGowan>
59

>  <LabuteASA>
26.26

>  <PEOE_VSA1>
5.11

>  <PEOE_VSA2>
0

>  <PEOE_VSA3>
0

>  <PEOE_VSA4>
0

>  <PEOE_VSA5>
0

>  <PEOE_VSA6>
6.92

>  <PEOE_VSA7>
6.42

>  <PEOE_VSA8>
6.61

>  <PEOE_VSA9>
0

>  <PEOE_VSA10>
0

>  <PEOE_VSA11>
0

>  <PEOE_VSA12>
0

>  <PEOE_VSA13>
0

>  <SMR_VSA1>
5.11

>  <SMR_VSA2>
0

>  <SMR_VSA3>
0

>  <SMR_VSA4>
0

>  <SMR_VSA5>
13.34

>  <SMR_VSA6>
6.61

>  <SMR_VSA7>
0

>  <SMR_VSA8>
0

>  <SMR_VSA9>
0

>  <SlogP_VSA1>
0

>  <SlogP_VSA2>
11.71

>  <SlogP_VSA3>
0

>  <SlogP_VSA4>
0

>  <SlogP_VSA5>
13.34

>  <SlogP_VSA6>
0

>  <SlogP_VSA7>
0

>  <SlogP_VSA8>
0

>  <SlogP_VSA9>
0

>  <SlogP_VSA10>
0

>  <SlogP_VSA11>
0

>  <EState_VSA1>
0

>  <EState_VSA2>
0

>  <EState_VSA3>
6.61

>  <EState_VSA4>
6.42

>  <EState_VSA5>
0

>  <EState_VSA6>
0

>  <EState_VSA7>
6.92

>  <EState_VSA8>
0

>  <EState_VSA9>
5.11

>  <EState_VSA10>
0

>  <VSA_EState1>
0

>  <VSA_EState2>
0

>  <VSA_EState3>
7.88

>  <VSA_EState4>
0

>  <VSA_EState5>
0

>  <VSA_EState6>
0

>  <VSA_EState7>
0.88

>  <VSA_EState8>
2.25

>  <VSA_EState9>
0

>  <apol>
11.15

>  <bpol>
8.03

>  <nRing>
0

>  <nHRing>
0

>  <naRing>
0

>  <naHRing>
0

>  <nARing 2>
0

>  <nAHRing 2>
0

>  <nFRing>
0

>  <nFHRing>
0

>  <nFaRing>
0

>  <nFaHRing>
0

>  <nFARing 2>
0

>  <nFAHRing 2>
0

>  <nRot>
1

>  <SLogP>
0.39

>  <SMR>
17.38

>  <TopoPSA(NO)>
20.23

>  <TopoPSA>
20.23

>  <JGI1>
0.17

>  <JGI2>
0.11

>  <JGI3>
0

>  <JGI4>
0

>  <JGI5>
0

>  <Diameter>
3

>  <Radius>
2

>  <TMWC10>
45.23

>  <TSRW10>
22.33

>  <MW>
60.06

>  <AMW>
5

>  <WPath>
10

>  <WPol>
1

>  <Zagreb1>
10

>  <Zagreb2>
8

>  <mZagreb2>
1.25

>  <yes>


>  <nAR-cont>
0.336376

>  <nHA-cont>
0

>  <MWHBN>
0.258069887

>  <MWHBN-cont>
0.945197101

>  <TPSA-cont>
0.858782038

>  <pka_cont>
0.97

>  <yes.1>


>  <BBB_SCORE>
3.956735727

>  <MMFF94 Energy>
-1.8102

$$$$
Compound 297
Actelion Java MolfileCreator 2.0

  0  0  0  0  0  0              0 V3000
M  V30 BEGIN CTAB
M  V30 COUNTS 44 46 0 0 0
M  V30 BEGIN ATOM
M  V30 1 F -0.2395 -1.9979 2.6379 0
M  V30 2 C -0.0374 -1.6572 1.3547 0
M  V30 3 C -0.1101 -0.3124 0.949 0
M  V30 4 C 0.2702 -2.6841 0.4707 0
M  V30 5 N -0.421 0.7253 1.8181 0
M  V30 6 C 0.146 -0.0613 -0.4177 0
M  V30 7 C 0.5178 -2.3912 -0.8719 0
M  V30 8 C -1.1423 0.4764 3.0795 0
M  V30 9 C -0.0093 2.1154 1.5631 0
M  V30 10 C 0.4639 -1.0701 -1.3529 0
M  V30 11 C 0.842 -3.5102 -1.7933 0
M  V30 12 C -1.8926 1.7457 3.5514 0
M  V30 13 C 0.1617 2.889 2.8911 0
M  V30 14 N 0.7208 -0.8194 -2.7202 0
M  V30 15 O 0.9307 -4.6504 -1.3513 0
M  V30 16 C 1.0544 -3.1905 -3.2252 0
M  V30 17 N -1.0679 2.9632 3.7076 0
M  V30 18 C 0.978 -1.8936 -3.5635 0
M  V30 19 C 0.6711 0.5553 -3.2502 0
M  V30 20 C 1.3226 -4.233 -4.2344 0
M  V30 21 C -0.738 3.2171 5.1077 0
M  V30 22 C -0.7522 0.9497 -3.6183 0
M  V30 23 O 1.2701 -5.4396 -4.0864 0
M  V30 24 O 1.6564 -3.734 -5.4438 0
M  V30 25 H 0.3176 -3.7042 0.8415 0
M  V30 26 H 0.057 0.9641 -0.7574 0
M  V30 27 H -0.4348 0.1545 3.8528 0
M  V30 28 H -1.8938 -0.3108 2.9449 0
M  V30 29 H -0.7543 2.6111 0.9292 0
M  V30 30 H 0.9555 2.1442 1.0424 0
M  V30 31 H -2.45 1.5209 4.4695 0
M  V30 32 H -2.6555 1.9811 2.7972 0
M  V30 33 H 0.9666 2.4 3.4577 0
M  V30 34 H 0.4976 3.9088 2.6696 0
M  V30 35 H 1.1187 -1.5871 -4.5981 0
M  V30 36 H 1.2905 0.6232 -4.1544 0
M  V30 37 H 1.1168 1.277 -2.5568 0
M  V30 38 H -0.1777 2.3898 5.5578 0
M  V30 39 H -1.65 3.375 5.6939 0
M  V30 40 H -0.1422 4.1318 5.2031 0
M  V30 41 H -1.4173 0.93 -2.7497 0
M  V30 42 H -1.1659 0.268 -4.369 0
M  V30 43 H -0.7679 1.962 -4.0341 0
M  V30 44 H 1.804 -4.5447 -5.9768 0
M  V30 END ATOM
M  V30 BEGIN BOND
M  V30 1 1 1 2
M  V30 2 2 2 3
M  V30 3 1 2 4
M  V30 4 1 3 5
M  V30 5 1 3 6
M  V30 6 2 4 7
M  V30 7 1 5 8
M  V30 8 1 5 9
M  V30 9 2 6 10
M  V30 10 1 7 11
M  V30 11 1 8 12
M  V30 12 1 9 13
M  V30 13 1 10 14
M  V30 14 2 11 15
M  V30 15 1 11 16
M  V30 16 1 12 17
M  V30 17 1 14 18
M  V30 18 1 14 19
M  V30 19 1 16 20
M  V30 20 1 17 21
M  V30 21 1 19 22
M  V30 22 2 20 23
M  V30 23 1 20 24
M  V30 24 1 7 10
M  V30 25 1 13 17
M  V30 26 2 16 18
M  V30 27 1 4 25
M  V30 28 1 6 26
M  V30 29 1 8 27
M  V30 30 1 8 28
M  V30 31 1 9 29
M  V30 32 1 9 30
M  V30 33 1 12 31
M  V30 34 1 12 32
M  V30 35 1 13 33
M  V30 36 1 13 34
M  V30 37 1 18 35
M  V30 38 1 19 36
M  V30 39 1 19 37
M  V30 40 1 21 38
M  V30 41 1 21 39
M  V30 42 1 21 40
M  V30 43 1 22 41
M  V30 44 1 22 42
M  V30 45 1 22 43
M  V30 46 1 24 44
M  V30 END BOND
M  V30 END CTAB
M  END
>  <Column 1>
378

>  <level_0>
431

>  <index>
431

>  <Unnamed: 0>
431

>  <NO.>
433

>  <Name>
pefloxacin

>  <IUPAC_name>
1-ethyl-6-fluoro-7-(4-methylpiperazin-1-yl)-4-oxoquinoline-3-carboxylic acid

>  <SMILES>
CCn1cc(C(=O)O)c(=O)c2cc(F)c(N3CCN(C)CC3)cc21

>  <CID>
51081

>  <logBB>
-0.16

>  <BBB+/BBB->
BBB+

>  <Inchi>
InChI=1S/C17H20FN3O3/c1-3-20-10-12(17(23)24)16(22)11-8-13(18)15(9-14(11)20)21-6-4-19(2)5-7-21/h8-10H-3-7H2-1-2H3-(H-23-24)

>  <threshold>


>  <reference>
R2|R2|R20|R25|R46|

>  <group>
A

>  <Class>
1

>  <ABC>
18.65

>  <ABCGG>
15.19

>  <nAcid>
1

>  <nBase>
1

>  <nAromAtom>
10

>  <nAromBond>
11

>  <nAtom>
44

>  <nHeavyAtom>
24

>  <nSpiro>
0

>  <nBridgehead>
0

>  <nHetero>
7

>  <nN>
3

>  <nO>
3

>  <nF>
1

>  <BalabanJ>
1.73

>  <BertzCT>
854.26

>  <nBonds>
46

>  <nBondsO>
26

>  <nBondsS>
33

>  <nBondsD>
2

>  <nBondsT>
0

>  <nBondsA>
11

>  <nBondsM>
13

>  <nBondsKS>
40

>  <nBondsKD>
6

>  <RNCG>
0.21

>  <RPCG>
0.15

>  <FCSP3>
0.41

>  <SZ>
29.33

>  <Sm>
27.75

>  <Sv>
27.48

>  <Sse>
44.82

>  <Sp>
28.74

>  <Si>
50.2

>  <MZ>
0.67

>  <Mm>
0.63

>  <Mv>
0.62

>  <Mse>
1.02

>  <Mp>
0.65

>  <Mi>
1.14

>  <NsCH3>
2

>  <NdCH2>
0

>  <NssCH2>
5

>  <NtCH>
0

>  <NdsCH>
0

>  <NaaCH>
3

>  <NsssCH>
0

>  <NddC>
0

>  <NtsC>
0

>  <NdssC>
1

>  <NaasC>
3

>  <NaaaC>
2

>  <NssssC>
0

>  <NsNH3>
0

>  <NsNH2>
0

>  <NssNH2>
0

>  <NdNH>
0

>  <NssNH>
0

>  <NaaNH>
0

>  <NtN>
0

>  <NsssNH>
0

>  <NdsN>
0

>  <NaaN>
0

>  <NsssN>
2

>  <NddsN>
0

>  <NaasN>
1

>  <NssssN>
0

>  <NsOH>
1

>  <NdO>
2

>  <NssO>
0

>  <NaaO>
0

>  <NsF>
1

>  <NsSiH3>
0

>  <NssSiH2>
0

>  <NsssSiH>
0

>  <NssssSi>
0

>  <NsPH2>
0

>  <NssPH>
0

>  <NsssP>
0

>  <NdsssP>
0

>  <NsssssP>
0

>  <NsSH>
0

>  <NdS>
0

>  <NssS>
0

>  <NaaS>
0

>  <NdssS>
0

>  <NddssS>
0

>  <NsCl>
0

>  <NsBr>
0

>  <NsI>
0

>  <fragCpx>
124.07

>  <fMF>
0.36

>  <nHBAcc>
5

>  <nHBDon>
1

>  <Kier1>
18.78

>  <Kier2>
7.71

>  <Lipinski>
1

>  <GhoseFilter>
1

>  <FilterItLogS>
-2.91

>  <VMcGowan>
241.32

>  <LabuteASA>
138.26

>  <PEOE_VSA1>
19.47

>  <PEOE_VSA2>
4.79

>  <PEOE_VSA3>
9.18

>  <PEOE_VSA4>
0

>  <PEOE_VSA5>
0

>  <PEOE_VSA6>
0

>  <PEOE_VSA7>
26.1

>  <PEOE_VSA8>
44.31

>  <PEOE_VSA9>
11.2

>  <PEOE_VSA10>
11.38

>  <PEOE_VSA11>
0

>  <PEOE_VSA12>
5.43

>  <PEOE_VSA13>
0

>  <SMR_VSA1>
14.29

>  <SMR_VSA2>
0

>  <SMR_VSA3>
9.47

>  <SMR_VSA4>
0

>  <SMR_VSA5>
13.47

>  <SMR_VSA6>
38.13

>  <SMR_VSA7>
39.93

>  <SMR_VSA8>
0

>  <SMR_VSA9>
0

>  <SlogP_VSA1>
10.33

>  <SlogP_VSA2>
53.77

>  <SlogP_VSA3>
6.54

>  <SlogP_VSA4>
5.82

>  <SlogP_VSA5>
17.28

>  <SlogP_VSA6>
23.12

>  <SlogP_VSA7>
0

>  <SlogP_VSA8>
10.9

>  <SlogP_VSA9>
0

>  <SlogP_VSA10>
10.08

>  <SlogP_VSA11>
0

>  <EState_VSA1>
17.22

>  <EState_VSA2>
10.95

>  <EState_VSA3>
30.84

>  <EState_VSA4>
13.09

>  <EState_VSA5>
12.26

>  <EState_VSA6>
10.63

>  <EState_VSA7>
18.87

>  <EState_VSA8>
4.9

>  <EState_VSA9>
0

>  <EState_VSA10>
19.09

>  <VSA_EState1>
16.28

>  <VSA_EState2>
27.72

>  <VSA_EState3>
9.28

>  <VSA_EState4>
0.03

>  <VSA_EState5>
-1.79

>  <VSA_EState6>
2.83

>  <VSA_EState7>
1.33

>  <VSA_EState8>
5.45

>  <VSA_EState9>
2.02

>  <apol>
47.99

>  <bpol>
28.04

>  <nRing>
3

>  <nHRing>
2

>  <naRing>
2

>  <naHRing>
1

>  <nARing 2>
1

>  <nAHRing 2>
1

>  <nFRing>
1

>  <nFHRing>
1

>  <nFaRing>
1

>  <nFaHRing>
1

>  <nFARing 2>
0

>  <nFAHRing 2>
0

>  <nRot>
3

>  <SLogP>
1.61

>  <SMR>
90.51

>  <TopoPSA(NO)>
65.78

>  <TopoPSA>
65.78

>  <JGI1>
0.21

>  <JGI2>
0.09

>  <JGI3>
0.05

>  <JGI4>
0.06

>  <JGI5>
0.04

>  <Diameter>
12

>  <Radius>
6

>  <TMWC10>
126.09

>  <TSRW10>
58.98

>  <MW>
333.15

>  <AMW>
7.57

>  <WPath>
1277

>  <WPol>
43

>  <Zagreb1>
128

>  <Zagreb2>
154

>  <mZagreb2>
5.28

>  <yes>


>  <nAR-cont>
0.816016

>  <nHA-cont>
0.94700071

>  <MWHBN>
0.328723946

>  <MWHBN-cont>
0.747305631

>  <TPSA-cont>
0.540814753

>  <pka_cont>
0.97

>  <yes.1>


>  <BBB_SCORE>
4.450604662

>  <MMFF94 Energy>
120.94

$$$$
Compound 298
Actelion Java MolfileCreator 2.0

  0  0  0  0  0  0              0 V3000
M  V30 BEGIN CTAB
M  V30 COUNTS 36 39 0 0 0
M  V30 BEGIN ATOM
M  V30 1 Cl -4.0762 -2.1996 -3.7497 0
M  V30 2 C -2.7324 -1.4593 -2.9719 0
M  V30 3 C -2.4688 -0.1085 -3.1835 0
M  V30 4 C -1.913 -2.2129 -2.137 0
M  V30 5 C -1.3786 0.4959 -2.5515 0
M  V30 6 C -0.8228 -1.6099 -1.5044 0
M  V30 7 C -0.5428 -0.2451 -1.6961 0
M  V30 8 C 0.6419 0.4334 -1.0117 0 CFG=2
M  V30 9 N 1.9128 0.182 -1.7095 0
M  V30 10 C 0.711 0.2024 0.5038 0
M  V30 11 N 2.2985 -1.0435 -2.1368 0
M  V30 12 C 2.8638 1.1125 -2.0155 0
M  V30 13 C -0.1831 0.9268 1.327 0
M  V30 14 C 1.5949 -0.7217 1.0927 0
M  V30 15 C 3.4733 -0.769 -2.708 0
M  V30 16 N 3.8581 0.539 -2.6514 0
M  V30 17 C -0.1305 0.6999 2.7084 0
M  V30 18 C 1.6304 -0.9274 2.4803 0
M  V30 19 N -0.8167 1.1915 3.7868 0
M  V30 20 C 0.7524 -0.2 3.2915 0
M  V30 21 N -0.3866 0.6543 4.9432 0
M  V30 22 C -1.8802 2.1591 3.816 0
M  V30 23 N 0.5782 -0.2067 4.6484 0
M  V30 24 H -3.1047 0.4771 -3.8424 0
M  V30 25 H -2.1095 -3.2699 -1.9781 0
M  V30 26 H -1.1888 1.5507 -2.7399 0
M  V30 27 H -0.1827 -2.2218 -0.8706 0
M  V30 28 H 0.5016 1.5193 -1.1288 0
M  V30 29 H 2.7839 2.1597 -1.7594 0
M  V30 30 H -0.8951 1.6288 0.9027 0
M  V30 31 H 2.2756 -1.3142 0.482 0
M  V30 32 H 4.0678 -1.5433 -3.1759 0
M  V30 33 H 2.3187 -1.6406 2.9217 0
M  V30 34 H -2.1255 2.4772 2.8009 0
M  V30 35 H -1.5484 3.0195 4.4027 0
M  V30 36 H -2.7561 1.6971 4.2787 0
M  V30 END ATOM
M  V30 BEGIN BOND
M  V30 1 1 1 2
M  V30 2 2 2 3
M  V30 3 1 2 4
M  V30 4 1 3 5
M  V30 5 2 4 6
M  V30 6 2 5 7
M  V30 7 1 7 8
M  V30 8 1 8 9
M  V30 9 1 8 10
M  V30 10 1 9 11
M  V30 11 1 9 12
M  V30 12 2 10 13
M  V30 13 1 10 14
M  V30 14 2 11 15
M  V30 15 2 12 16
M  V30 16 1 13 17
M  V30 17 2 14 18
M  V30 18 1 17 19
M  V30 19 2 17 20
M  V30 20 1 19 21
M  V30 21 1 19 22
M  V30 22 1 20 23
M  V30 23 1 6 7
M  V30 24 1 15 16
M  V30 25 1 18 20
M  V30 26 2 21 23
M  V30 27 1 3 24
M  V30 28 1 4 25
M  V30 29 1 5 26
M  V30 30 1 6 27
M  V30 31 1 8 28
M  V30 32 1 12 29
M  V30 33 1 13 30
M  V30 34 1 14 31
M  V30 35 1 15 32
M  V30 36 1 18 33
M  V30 37 1 22 34
M  V30 38 1 22 35
M  V30 39 1 22 36
M  V30 END BOND
M  V30 BEGIN COLLECTION
M  V30 MDLV30/STERAC1 ATOMS=(1 8)
M  V30 END COLLECTION
M  V30 END CTAB
M  END
>  <Column 1>
379

>  <level_0>
432

>  <index>
432

>  <Unnamed: 0>
432

>  <NO.>
434

>  <Name>
vorozole

>  <IUPAC_name>
6-[(4-chlorophenyl)-(1-2-4-triazol-1-yl)methyl]-1-methylbenzotriazole

>  <SMILES>
Cn1nnc2ccc(C(c3ccc(Cl)cc3)n3cncn3)cc21

>  <CID>
60796

>  <logBB>
-0.16

>  <BBB+/BBB->
BBB+

>  <Inchi>
InChI=1S/C16H13ClN6/c1-22-15-8-12(4-7-14(15)20-21-22)16(23-10-18-9-19-23)11-2-5-13(17)6-3-11/h2-10-16H-1H3

>  <threshold>


>  <reference>
R2|R2|R25|R27|R46|

>  <group>
A

>  <Class>
1

>  <ABC>
18.4

>  <ABCGG>
15.4

>  <nAcid>
0

>  <nBase>
0

>  <nAromAtom>
20

>  <nAromBond>
21

>  <nAtom>
36

>  <nHeavyAtom>
23

>  <nSpiro>
0

>  <nBridgehead>
0

>  <nHetero>
7

>  <nN>
6

>  <nO>
0

>  <nF>
0

>  <BalabanJ>
1.48

>  <BertzCT>
942.54

>  <nBonds>
39

>  <nBondsO>
26

>  <nBondsS>
18

>  <nBondsD>
0

>  <nBondsT>
0

>  <nBondsA>
21

>  <nBondsM>
21

>  <nBondsKS>
30

>  <nBondsKD>
9

>  <RNCG>
0.17

>  <RPCG>
0.09

>  <FCSP3>
0.13

>  <SZ>
28

>  <Sm>
27.04

>  <Sv>
25.16

>  <Sse>
36.52

>  <Sp>
26.45

>  <Si>
40.6

>  <MZ>
0.78

>  <Mm>
0.75

>  <Mv>
0.7

>  <Mse>
1.01

>  <Mp>
0.73

>  <Mi>
1.13

>  <NsCH3>
1

>  <NdCH2>
0

>  <NssCH2>
0

>  <NtCH>
0

>  <NdsCH>
0

>  <NaaCH>
9

>  <NsssCH>
1

>  <NddC>
0

>  <NtsC>
0

>  <NdssC>
0

>  <NaasC>
3

>  <NaaaC>
2

>  <NssssC>
0

>  <NsNH3>
0

>  <NsNH2>
0

>  <NssNH2>
0

>  <NdNH>
0

>  <NssNH>
0

>  <NaaNH>
0

>  <NtN>
0

>  <NsssNH>
0

>  <NdsN>
0

>  <NaaN>
4

>  <NsssN>
0

>  <NddsN>
0

>  <NaasN>
2

>  <NssssN>
0

>  <NsOH>
0

>  <NdO>
0

>  <NssO>
0

>  <NaaO>
0

>  <NsF>
0

>  <NsSiH3>
0

>  <NssSiH2>
0

>  <NsssSiH>
0

>  <NssssSi>
0

>  <NsPH2>
0

>  <NssPH>
0

>  <NsssP>
0

>  <NdsssP>
0

>  <NsssssP>
0

>  <NsSH>
0

>  <NdS>
0

>  <NssS>
0

>  <NaaS>
0

>  <NdssS>
0

>  <NddssS>
0

>  <NsCl>
1

>  <NsBr>
0

>  <NsI>
0

>  <fragCpx>
170.07

>  <fMF>
0.58

>  <nHBAcc>
6

>  <nHBDon>
0

>  <Kier1>
16.47

>  <Kier2>
7.09

>  <Lipinski>
1

>  <GhoseFilter>
1

>  <FilterItLogS>
-4.05

>  <VMcGowan>
226.28

>  <LabuteASA>
136.88

>  <PEOE_VSA1>
0

>  <PEOE_VSA2>
0

>  <PEOE_VSA3>
14.35

>  <PEOE_VSA4>
5.1

>  <PEOE_VSA5>
5.1

>  <PEOE_VSA6>
35.01

>  <PEOE_VSA7>
35.39

>  <PEOE_VSA8>
12.07

>  <PEOE_VSA9>
5.52

>  <PEOE_VSA10>
24.21

>  <PEOE_VSA11>
0

>  <PEOE_VSA12>
0

>  <PEOE_VSA13>
0

>  <SMR_VSA1>
0

>  <SMR_VSA2>
0

>  <SMR_VSA3>
29.76

>  <SMR_VSA4>
7.05

>  <SMR_VSA5>
6.04

>  <SMR_VSA6>
0

>  <SMR_VSA7>
71.27

>  <SMR_VSA8>
0

>  <SMR_VSA9>
0

>  <SlogP_VSA1>
0

>  <SlogP_VSA2>
29.76

>  <SlogP_VSA3>
7.05

>  <SlogP_VSA4>
0

>  <SlogP_VSA5>
17.17

>  <SlogP_VSA6>
55.12

>  <SlogP_VSA7>
5.02

>  <SlogP_VSA8>
11.03

>  <SlogP_VSA9>
0

>  <SlogP_VSA10>
0

>  <SlogP_VSA11>
0

>  <EState_VSA1>
0

>  <EState_VSA2>
6.04

>  <EState_VSA3>
5.02

>  <EState_VSA4>
22.16

>  <EState_VSA5>
6.33

>  <EState_VSA6>
11.01

>  <EState_VSA7>
48.13

>  <EState_VSA8>
26.46

>  <EState_VSA9>
11.6

>  <EState_VSA10>
0

>  <VSA_EState1>
3.59

>  <VSA_EState2>
4.08

>  <VSA_EState3>
13.21

>  <VSA_EState4>
4

>  <VSA_EState5>
0

>  <VSA_EState6>
13.76

>  <VSA_EState7>
3.25

>  <VSA_EState8>
0

>  <VSA_EState9>
1.88

>  <apol>
44.17

>  <bpol>
18.11

>  <nRing>
4

>  <nHRing>
2

>  <naRing>
4

>  <naHRing>
2

>  <nARing 2>
0

>  <nAHRing 2>
0

>  <nFRing>
1

>  <nFHRing>
1

>  <nFaRing>
1

>  <nFaHRing>
1

>  <nFARing 2>
0

>  <nFAHRing 2>
0

>  <nRot>
3

>  <SLogP>
2.85

>  <SMR>
87.22

>  <TopoPSA(NO)>
61.42

>  <TopoPSA>
61.42

>  <JGI1>
0.15

>  <JGI2>
0.08

>  <JGI3>
0.05

>  <JGI4>
0.03

>  <JGI5>
0.02

>  <Diameter>
10

>  <Radius>
5

>  <TMWC10>
124.58

>  <TSRW10>
73.25

>  <MW>
324.09

>  <AMW>
9

>  <WPath>
1123

>  <WPol>
35

>  <Zagreb1>
126

>  <Zagreb2>
151

>  <mZagreb2>
4.97

>  <yes>


>  <nAR-cont>
0.336376

>  <nHA-cont>
0.967789328

>  <MWHBN>
0.333287047

>  <MWHBN-cont>
0.731248309

>  <TPSA-cont>
0.57125026

>  <pka_cont>
0.97

>  <yes.1>


>  <BBB_SCORE>
4.028538313

>  <MMFF94 Energy>
102.47

$$$$
Compound 299
Actelion Java MolfileCreator 2.0

  0  0  0  0  0  0              0 V3000
M  V30 BEGIN CTAB
M  V30 COUNTS 34 37 0 0 0
M  V30 BEGIN ATOM
M  V30 1 N 2.247 0.9625 -2.4076 0
M  V30 2 C 1.7615 -0.2007 -2.0674 0
M  V30 3 C 1.6537 1.8909 -1.3968 0
M  V30 4 N 0.9767 -0.2653 -0.9555 0
M  V30 5 N 1.9994 -1.3112 -2.7842 0
M  V30 6 C 1.0345 1.0199 -0.2712 0 CFG=2
M  V30 7 C 0.6311 -1.379 -0.1854 0
M  V30 8 C -0.2513 1.5989 0.3028 0
M  V30 9 C -0.6878 -1.4955 0.2839 0
M  V30 10 C 1.5635 -2.3672 0.1578 0
M  V30 11 C -1.4863 0.9181 0.3904 0
M  V30 12 C -0.17 2.9029 0.8455 0
M  V30 13 C -1.0491 -2.5775 1.1001 0
M  V30 14 C -1.7099 -0.4757 -0.1555 0
M  V30 15 C 1.1977 -3.4451 0.9654 0
M  V30 16 C -2.5935 1.5725 0.9706 0
M  V30 17 C -1.2738 3.5292 1.4234 0
M  V30 18 C -0.107 -3.5472 1.4398 0
M  V30 19 C -2.4886 2.8639 1.4824 0
M  V30 20 H 0.9052 2.5125 -1.9027 0
M  V30 21 H 2.4334 2.5486 -0.9977 0
M  V30 22 H 1.483 -2.1601 -2.6128 0
M  V30 23 H 2.5503 -1.2259 -3.6258 0
M  V30 24 H 1.7629 0.944 0.5498 0
M  V30 25 H 2.5928 -2.2862 -0.1838 0
M  V30 26 H 0.773 3.4476 0.825 0
M  V30 27 H -2.0677 -2.6739 1.4682 0
M  V30 28 H -2.7064 -0.8335 0.1353 0
M  V30 29 H -1.7362 -0.4278 -1.2525 0
M  V30 30 H 1.9347 -4.198 1.2314 0
M  V30 31 H -3.5577 1.0704 1.0294 0
M  V30 32 H -1.1814 4.5338 1.8275 0
M  V30 33 H -0.392 -4.3838 2.0727 0
M  V30 34 H -3.3547 3.3455 1.9283 0
M  V30 END ATOM
M  V30 BEGIN BOND
M  V30 1 2 1 2
M  V30 2 1 1 3
M  V30 3 1 2 4
M  V30 4 1 2 5
M  V30 5 1 3 6
M  V30 6 1 4 7
M  V30 7 1 6 8
M  V30 8 2 7 9
M  V30 9 1 7 10
M  V30 10 2 8 11
M  V30 11 1 8 12
M  V30 12 1 9 13
M  V30 13 1 9 14
M  V30 14 2 10 15
M  V30 15 1 11 16
M  V30 16 2 12 17
M  V30 17 2 13 18
M  V30 18 2 16 19
M  V30 19 1 4 6
M  V30 20 1 11 14
M  V30 21 1 15 18
M  V30 22 1 17 19
M  V30 23 1 3 20
M  V30 24 1 3 21
M  V30 25 1 5 22
M  V30 26 1 5 23
M  V30 27 1 6 24
M  V30 28 1 10 25
M  V30 29 1 12 26
M  V30 30 1 13 27
M  V30 31 1 14 28
M  V30 32 1 14 29
M  V30 33 1 15 30
M  V30 34 1 16 31
M  V30 35 1 17 32
M  V30 36 1 18 33
M  V30 37 1 19 34
M  V30 END BOND
M  V30 BEGIN COLLECTION
M  V30 MDLV30/STERAC1 ATOMS=(1 6)
M  V30 END COLLECTION
M  V30 END CTAB
M  END
>  <Column 1>
380

>  <level_0>
434

>  <index>
434

>  <Unnamed: 0>
434

>  <NO.>
436

>  <Name>
epinastine

>  <IUPAC_name>
2-4-diazatetracyclo[12.4.0.02-6.07-12]octadeca-1(18)-3-7-9-11-14-16-heptaen-3-amine

>  <SMILES>
NC1=NCC2c3ccccc3Cc3ccccc3N12

>  <CID>
3241

>  <logBB>
-0.16

>  <BBB+/BBB->
BBB+

>  <Inchi>
InChI=1S/C16H15N3/c17-16-18-10-15-13-7-3-1-5-11(13)9-12-6-2-4-8-14(12)19(15)16/h1-8-15H-9-10H2-(H2-17-18)

>  <threshold>


>  <reference>
R2|R2|R20|R25|R27|R46|

>  <group>
A

>  <Class>
1

>  <ABC>
15.42

>  <ABCGG>
12.57

>  <nAcid>
0

>  <nBase>
3

>  <nAromAtom>
12

>  <nAromBond>
12

>  <nAtom>
34

>  <nHeavyAtom>
19

>  <nSpiro>
0

>  <nBridgehead>
0

>  <nHetero>
3

>  <nN>
3

>  <nO>
0

>  <nF>
0

>  <BalabanJ>
1.66

>  <BertzCT>
675.2

>  <nBonds>
37

>  <nBondsO>
22

>  <nBondsS>
24

>  <nBondsD>
1

>  <nBondsT>
0

>  <nBondsA>
12

>  <nBondsM>
13

>  <nBondsKS>
30

>  <nBondsKD>
7

>  <RNCG>
0.25

>  <RPCG>
0.13

>  <FCSP3>
0.19

>  <SZ>
22

>  <Sm>
20.76

>  <Sv>
22.34

>  <Sse>
33.65

>  <Sp>
23.97

>  <Si>
37.99

>  <MZ>
0.65

>  <Mm>
0.61

>  <Mv>
0.66

>  <Mse>
0.99

>  <Mp>
0.7

>  <Mi>
1.12

>  <NsCH3>
0

>  <NdCH2>
0

>  <NssCH2>
2

>  <NtCH>
0

>  <NdsCH>
0

>  <NaaCH>
8

>  <NsssCH>
1

>  <NddC>
0

>  <NtsC>
0

>  <NdssC>
1

>  <NaasC>
4

>  <NaaaC>
0

>  <NssssC>
0

>  <NsNH3>
0

>  <NsNH2>
1

>  <NssNH2>
0

>  <NdNH>
0

>  <NssNH>
0

>  <NaaNH>
0

>  <NtN>
0

>  <NsssNH>
0

>  <NdsN>
1

>  <NaaN>
0

>  <NsssN>
1

>  <NddsN>
0

>  <NaasN>
0

>  <NssssN>
0

>  <NsOH>
0

>  <NdO>
0

>  <NssO>
0

>  <NaaO>
0

>  <NsF>
0

>  <NsSiH3>
0

>  <NssSiH2>
0

>  <NsssSiH>
0

>  <NssssSi>
0

>  <NsPH2>
0

>  <NssPH>
0

>  <NsssP>
0

>  <NdsssP>
0

>  <NsssssP>
0

>  <NsSH>
0

>  <NdS>
0

>  <NssS>
0

>  <NaaS>
0

>  <NdssS>
0

>  <NddssS>
0

>  <NsCl>
0

>  <NsBr>
0

>  <NsI>
0

>  <fragCpx>
142.03

>  <fMF>
0.53

>  <nHBAcc>
3

>  <nHBDon>
1

>  <Kier1>
12.72

>  <Kier2>
5.08

>  <Lipinski>
1

>  <GhoseFilter>
1

>  <FilterItLogS>
-3.59

>  <VMcGowan>
192.7

>  <LabuteASA>
111.93

>  <PEOE_VSA1>
10.63

>  <PEOE_VSA2>
4.99

>  <PEOE_VSA3>
0

>  <PEOE_VSA4>
0

>  <PEOE_VSA5>
0

>  <PEOE_VSA6>
42.46

>  <PEOE_VSA7>
29.18

>  <PEOE_VSA8>
5.69

>  <PEOE_VSA9>
12.59

>  <PEOE_VSA10>
0

>  <PEOE_VSA11>
5.96

>  <PEOE_VSA12>
0

>  <PEOE_VSA13>
0

>  <SMR_VSA1>
0

>  <SMR_VSA2>
0

>  <SMR_VSA3>
0

>  <SMR_VSA4>
10.73

>  <SMR_VSA5>
12.46

>  <SMR_VSA6>
11.44

>  <SMR_VSA7>
65.22

>  <SMR_VSA8>
0

>  <SMR_VSA9>
0

>  <SlogP_VSA1>
10.63

>  <SlogP_VSA2>
12.5

>  <SlogP_VSA3>
6.42

>  <SlogP_VSA4>
0

>  <SlogP_VSA5>
22.73

>  <SlogP_VSA6>
53.52

>  <SlogP_VSA7>
0

>  <SlogP_VSA8>
0

>  <SlogP_VSA9>
0

>  <SlogP_VSA10>
5.69

>  <SlogP_VSA11>
0

>  <EState_VSA1>
0

>  <EState_VSA2>
6.04

>  <EState_VSA3>
5.96

>  <EState_VSA4>
12.97

>  <EState_VSA5>
22.38

>  <EState_VSA6>
0

>  <EState_VSA7>
0

>  <EState_VSA8>
58.42

>  <EState_VSA9>
5.73

>  <EState_VSA10>
0

>  <VSA_EState1>
0

>  <VSA_EState2>
6.62

>  <VSA_EState3>
0

>  <VSA_EState4>
11.35

>  <VSA_EState5>
0.63

>  <VSA_EState6>
17.35

>  <VSA_EState7>
0.96

>  <VSA_EState8>
0.75

>  <VSA_EState9>
0

>  <apol>
40.02

>  <bpol>
17.33

>  <nRing>
4

>  <nHRing>
2

>  <naRing>
2

>  <naHRing>
0

>  <nARing 2>
2

>  <nAHRing 2>
2

>  <nFRing>
1

>  <nFHRing>
1

>  <nFaRing>
0

>  <nFaHRing>
0

>  <nFARing 2>
1

>  <nFAHRing 2>
1

>  <nRot>
0

>  <SLogP>
2.47

>  <SMR>
77.4

>  <TopoPSA(NO)>
41.62

>  <TopoPSA>
41.62

>  <JGI1>
0.11

>  <JGI2>
0.07

>  <JGI3>
0.04

>  <JGI4>
0.04

>  <JGI5>
0.02

>  <Diameter>
7

>  <Radius>
5

>  <TMWC10>
116.15

>  <TSRW10>
67.37

>  <MW>
249.13

>  <AMW>
7.33

>  <WPath>
587

>  <WPol>
36

>  <Zagreb1>
108

>  <Zagreb2>
133

>  <mZagreb2>
4.08

>  <yes>


>  <nAR-cont>
1

>  <nHA-cont>
0.998649058

>  <MWHBN>
0.253423554

>  <MWHBN-cont>
0.953836812

>  <TPSA-cont>
0.709466556

>  <pka_cont>
0.97

>  <yes.1>


>  <BBB_SCORE>
5.333337387

>  <MMFF94 Energy>
14.834

$$$$
Compound 300
Actelion Java MolfileCreator 2.0

  0  0  0  0  0  0              0 V3000
M  V30 BEGIN CTAB
M  V30 COUNTS 57 60 0 0 0
M  V30 BEGIN ATOM
M  V30 1 F 0.7275 2.1029 0.3233 0
M  V30 2 C 0.1374 1.4351 -0.7407 0 CFG=2
M  V30 3 C 0.3797 2.3415 -2.0176 0 CFG=2
M  V30 4 C -1.3525 1.2545 -0.3145 0 CFG=1
M  V30 5 C 0.8855 0.0649 -0.8458 0 CFG=2
M  V30 6 C 1.9012 2.4481 -2.2339 0
M  V30 7 C -0.2388 3.7269 -1.8274 0
M  V30 8 C -0.24 1.7756 -3.3166 0
M  V30 9 O -2.1737 0.793 -1.3826 0
M  V30 10 C -1.5326 0.3236 0.9079 0
M  V30 11 C 0.6755 -0.7211 0.4584 0 CFG=1
M  V30 12 C 2.3879 0.2752 -1.1144 0
M  V30 13 C 2.5702 3.6143 -2.2755 0
M  V30 14 C 2.642 1.1404 -2.3441 0
M  V30 15 C 0.4324 4.8856 -1.8688 0
M  V30 16 C -0.8087 -1.0346 0.7666 0 CFG=1
M  V30 17 C 1.3806 -2.0652 0.6159 0
M  V30 18 C 1.8869 4.9131 -2.1098 0
M  V30 19 C -0.6303 -1.873 2.0817 0 CFG=1
M  V30 20 C -1.4938 -1.8971 -0.3275 0
M  V30 21 C 0.591 -2.7972 1.7298 0 CFG=2
M  V30 22 O 2.5024 5.9701 -2.1711 0
M  V30 23 O -0.2997 -0.9931 3.1591 0
M  V30 24 C -1.8833 -2.6906 2.4721 0
M  V30 25 C 1.4904 -3.1729 2.9041 0
M  V30 26 O -2.0248 -3.8828 2.1807 0
M  V30 27 C -2.9696 -1.9768 3.2704 0
M  V30 28 O -4.1773 -2.7274 3.2879 0
M  V30 29 H -1.7481 2.2328 -0.0168 0
M  V30 30 H 0.4824 -0.5117 -1.6844 0
M  V30 31 H -1.3145 3.7734 -1.6723 0
M  V30 32 H -0.0308 0.7109 -3.4553 0
M  V30 33 H -1.3274 1.9028 -3.3502 0
M  V30 34 H 0.1522 2.2962 -4.2004 0
M  V30 35 H -3.0962 0.7877 -1.0692 0
M  V30 36 H -2.6026 0.1539 1.0706 0
M  V30 37 H -1.1578 0.8587 1.789 0
M  V30 38 H 1.0709 -0.0839 1.2662 0
M  V30 39 H 2.8621 0.7393 -0.2393 0
M  V30 40 H 2.8816 -0.6924 -1.2628 0
M  V30 41 H 3.6438 3.6723 -2.4139 0
M  V30 42 H 2.3253 0.61 -3.2495 0
M  V30 43 H 3.7222 1.3015 -2.4464 0
M  V30 44 H -0.0521 5.8457 -1.7402 0
M  V30 45 H 1.3366 -2.6425 -0.3151 0
M  V30 46 H 2.4382 -1.934 0.8688 0
M  V30 47 H -1.4011 -1.4742 -1.3294 0
M  V30 48 H -1.081 -2.9085 -0.3904 0
M  V30 49 H -2.5654 -2.0002 -0.1206 0
M  V30 50 H 0.2362 -3.7406 1.2954 0
M  V30 51 H 0.0061 -1.5184 3.9192 0
M  V30 52 H 2.2661 -3.875 2.5795 0
M  V30 53 H 0.9124 -3.6581 3.6973 0
M  V30 54 H 1.9967 -2.2984 3.3261 0
M  V30 55 H -2.6266 -1.852 4.301 0
M  V30 56 H -3.1905 -1.0022 2.8369 0
M  V30 57 H -3.919 -3.6647 3.1739 0
M  V30 END ATOM
M  V30 BEGIN BOND
M  V30 1 1 1 2
M  V30 2 1 2 3
M  V30 3 1 2 4
M  V30 4 1 2 5
M  V30 5 1 3 6
M  V30 6 1 3 7
M  V30 7 1 3 8
M  V30 8 1 4 9
M  V30 9 1 4 10
M  V30 10 1 5 11
M  V30 11 1 5 12
M  V30 12 2 6 13
M  V30 13 1 6 14
M  V30 14 2 7 15
M  V30 15 1 10 16
M  V30 16 1 11 17
M  V30 17 1 13 18
M  V30 18 1 16 19
M  V30 19 1 16 20
M  V30 20 1 17 21
M  V30 21 2 18 22
M  V30 22 1 19 23
M  V30 23 1 19 24
M  V30 24 1 21 25
M  V30 25 2 24 26
M  V30 26 1 24 27
M  V30 27 1 27 28
M  V30 28 1 11 16
M  V30 29 1 12 14
M  V30 30 1 15 18
M  V30 31 1 19 21
M  V30 32 1 4 29
M  V30 33 1 5 30
M  V30 34 1 7 31
M  V30 35 1 8 32
M  V30 36 1 8 33
M  V30 37 1 8 34
M  V30 38 1 9 35
M  V30 39 1 10 36
M  V30 40 1 10 37
M  V30 41 1 11 38
M  V30 42 1 12 39
M  V30 43 1 12 40
M  V30 44 1 13 41
M  V30 45 1 14 42
M  V30 46 1 14 43
M  V30 47 1 15 44
M  V30 48 1 17 45
M  V30 49 1 17 46
M  V30 50 1 20 47
M  V30 51 1 20 48
M  V30 52 1 20 49
M  V30 53 1 21 50
M  V30 54 1 23 51
M  V30 55 1 25 52
M  V30 56 1 25 53
M  V30 57 1 25 54
M  V30 58 1 27 55
M  V30 59 1 27 56
M  V30 60 1 28 57
M  V30 END BOND
M  V30 BEGIN COLLECTION
M  V30 MDLV30/STEABS ATOMS=(8 2 3 4 5 11 16 19 21)
M  V30 END COLLECTION
M  V30 END CTAB
M  END
>  <Column 1>
381

>  <level_0>
435

>  <index>
435

>  <Unnamed: 0>
435

>  <NO.>
438

>  <Name>
dexamethasone

>  <IUPAC_name>
(8s-9r-10s-11s-13s-14s-16r-17r)-9-fluoro-11-17-dihydroxy-17-(2-hydroxyacetyl)-10-13-16-trimethyl-6-7-8-11-12-14-15-16-octahydrocyclopenta[a]phenanthren-3-one

>  <SMILES>
C[C@@H]1C[C@H]2[C@@H]3CCC4=CC(=O)C=C[C@]4(C)[C@@]3(F)[C@@H](O)C[C@]2(C)[C@@]1(O)C(=O)CO

>  <CID>
5743

>  <logBB>
-0.15

>  <BBB+/BBB->
BBB+

>  <Inchi>
InChI=1S/C22H29FO5/c1-12-8-16-15-5-4-13-9-14(25)6-7-19(13-2)21(15-23)17(26)10-20(16-3)22(12-28)18(27)11-24/h6-7-9-12-15-17-24-26-28H-4-5-8-10-11H2-1-3H3/t12--15+-16+-17+-19+-20+-21+-22+/m1/s1

>  <threshold>


>  <reference>
R47|R20|R25|

>  <group>
A

>  <Class>
1

>  <ABC>
22.39

>  <ABCGG>
18.86

>  <nAcid>
0

>  <nBase>
0

>  <nAromAtom>
0

>  <nAromBond>
0

>  <nAtom>
57

>  <nHeavyAtom>
28

>  <nSpiro>
0

>  <nBridgehead>
0

>  <nHetero>
6

>  <nN>
0

>  <nO>
5

>  <nF>
1

>  <BalabanJ>
1.77

>  <BertzCT>
804.75

>  <nBonds>
60

>  <nBondsO>
31

>  <nBondsS>
56

>  <nBondsD>
4

>  <nBondsT>
0

>  <nBondsA>
0

>  <nBondsM>
4

>  <nBondsKS>
56

>  <nBondsKD>
4

>  <RNCG>
0.16

>  <RPCG>
0.09

>  <FCSP3>
0.73

>  <SZ>
35

>  <Sm>
32.68

>  <Sv>
34.08

>  <Sse>
57.48

>  <Sp>
36.31

>  <Si>
64.62

>  <MZ>
0.61

>  <Mm>
0.57

>  <Mv>
0.6

>  <Mse>
1.01

>  <Mp>
0.64

>  <Mi>
1.13

>  <NsCH3>
3

>  <NdCH2>
0

>  <NssCH2>
5

>  <NtCH>
0

>  <NdsCH>
3

>  <NaaCH>
0

>  <NsssCH>
4

>  <NddC>
0

>  <NtsC>
0

>  <NdssC>
3

>  <NaasC>
0

>  <NaaaC>
0

>  <NssssC>
4

>  <NsNH3>
0

>  <NsNH2>
0

>  <NssNH2>
0

>  <NdNH>
0

>  <NssNH>
0

>  <NaaNH>
0

>  <NtN>
0

>  <NsssNH>
0

>  <NdsN>
0

>  <NaaN>
0

>  <NsssN>
0

>  <NddsN>
0

>  <NaasN>
0

>  <NssssN>
0

>  <NsOH>
3

>  <NdO>
2

>  <NssO>
0

>  <NaaO>
0

>  <NsF>
1

>  <NsSiH3>
0

>  <NssSiH2>
0

>  <NsssSiH>
0

>  <NssssSi>
0

>  <NsPH2>
0

>  <NssPH>
0

>  <NsssP>
0

>  <NdsssP>
0

>  <NsssssP>
0

>  <NsSH>
0

>  <NdS>
0

>  <NssS>
0

>  <NaaS>
0

>  <NdssS>
0

>  <NddssS>
0

>  <NsCl>
0

>  <NsBr>
0

>  <NsI>
0

>  <fragCpx>
205.06

>  <fMF>
0.3

>  <nHBAcc>
5

>  <nHBDon>
3

>  <Kier1>
21.24

>  <Kier2>
6.5

>  <Lipinski>
1

>  <GhoseFilter>
1

>  <FilterItLogS>
-2.8

>  <VMcGowan>
291.31

>  <LabuteASA>
163.87

>  <PEOE_VSA1>
15.32

>  <PEOE_VSA2>
9.59

>  <PEOE_VSA3>
4.39

>  <PEOE_VSA4>
0

>  <PEOE_VSA5>
0

>  <PEOE_VSA6>
25.5

>  <PEOE_VSA7>
56.59

>  <PEOE_VSA8>
16.75

>  <PEOE_VSA9>
6.1

>  <PEOE_VSA10>
12.21

>  <PEOE_VSA11>
17.24

>  <PEOE_VSA12>
0

>  <PEOE_VSA13>
0

>  <SMR_VSA1>
29.3

>  <SMR_VSA2>
0

>  <SMR_VSA3>
0

>  <SMR_VSA4>
28.58

>  <SMR_VSA5>
63.83

>  <SMR_VSA6>
6.61

>  <SMR_VSA7>
23.8

>  <SMR_VSA8>
0

>  <SMR_VSA9>
0

>  <SlogP_VSA1>
0

>  <SlogP_VSA2>
50.87

>  <SlogP_VSA3>
9.59

>  <SlogP_VSA4>
28.58

>  <SlogP_VSA5>
46.45

>  <SlogP_VSA6>
23.8

>  <SlogP_VSA7>
0

>  <SlogP_VSA8>
0

>  <SlogP_VSA9>
0

>  <SlogP_VSA10>
4.39

>  <SlogP_VSA11>
0

>  <EState_VSA1>
52.43

>  <EState_VSA2>
18.12

>  <EState_VSA3>
24.84

>  <EState_VSA4>
0

>  <EState_VSA5>
12.15

>  <EState_VSA6>
26.85

>  <EState_VSA7>
0

>  <EState_VSA8>
0

>  <EState_VSA9>
0

>  <EState_VSA10>
24.91

>  <VSA_EState1>
16.86

>  <VSA_EState2>
24.38

>  <VSA_EState3>
31.96

>  <VSA_EState4>
-5.17

>  <VSA_EState5>
-2.12

>  <VSA_EState6>
0

>  <VSA_EState7>
4.44

>  <VSA_EState8>
4.48

>  <VSA_EState9>
0

>  <apol>
60.64

>  <bpol>
31.94

>  <nRing>
4

>  <nHRing>
0

>  <naRing>
0

>  <naHRing>
0

>  <nARing 2>
4

>  <nAHRing 2>
0

>  <nFRing>
1

>  <nFHRing>
0

>  <nFaRing>
0

>  <nFaHRing>
0

>  <nFARing 2>
1

>  <nFAHRing 2>
0

>  <nRot>
2

>  <SLogP>
1.9

>  <SMR>
99.94

>  <TopoPSA(NO)>
94.83

>  <TopoPSA>
94.83

>  <JGI1>
0.32

>  <JGI2>
0.16

>  <JGI3>
0.08

>  <JGI4>
0.06

>  <JGI5>
0.04

>  <Diameter>
12

>  <Radius>
6

>  <TMWC10>
140.69

>  <TSRW10>
80.08

>  <MW>
392.2

>  <AMW>
6.88

>  <WPath>
1670

>  <WPol>
70

>  <Zagreb1>
168

>  <Zagreb2>
221

>  <mZagreb2>
5.82

>  <yes>


>  <nAR-cont>
0.199399

>  <nHA-cont>
0.82432561

>  <MWHBN>
0.40395798

>  <MWHBN-cont>
0.460497769

>  <TPSA-cont>
0.338027714

>  <pka_cont>
0.97

>  <yes.1>


>  <BBB_SCORE>
2.875526691

>  <MMFF94 Energy>
173.83

$$$$
Compound 301
Actelion Java MolfileCreator 2.0

  0  0  0  0  0  0              0 V3000
M  V30 BEGIN CTAB
M  V30 COUNTS 33 32 0 0 0
M  V30 BEGIN ATOM
M  V30 1 O 1.8457 -3.0007 1.7687 0
M  V30 2 C 0.7285 -2.605 1.4799 0
M  V30 3 O 0.4236 -1.4726 0.8096 0
M  V30 4 N -0.4044 -3.264 1.8055 0
M  V30 5 C 1.5596 -0.6905 0.4327 0
M  V30 6 C 1.1735 0.5942 -0.3438 0
M  V30 7 C 0.4312 0.261 -1.6632 0
M  V30 8 C 0.3879 1.6108 0.5405 0
M  V30 9 C 2.5013 1.2907 -0.7423 0
M  V30 10 O -0.7913 -0.4479 -1.4473 0
M  V30 11 C -0.9809 1.2041 1.0924 0
M  V30 12 C -1.457 -0.7617 -2.58 0
M  V30 13 C -1.5874 2.3255 1.9281 0
M  V30 14 O -1.1099 -0.5078 -3.7215 0
M  V30 15 N -2.6007 -1.4117 -2.2743 0
M  V30 16 H -0.3371 -4.1323 2.3135 0
M  V30 17 H -1.2981 -2.8794 1.5456 0
M  V30 18 H 2.2148 -1.3097 -0.1941 0
M  V30 19 H 2.1137 -0.4147 1.3397 0
M  V30 20 H 1.0816 -0.3538 -2.2994 0
M  V30 21 H 0.2081 1.1924 -2.2002 0
M  V30 22 H 1.0242 1.8855 1.3936 0
M  V30 23 H 0.2537 2.5356 -0.038 0
M  V30 24 H 3.1194 0.6394 -1.3707 0
M  V30 25 H 2.3131 2.2123 -1.3051 0
M  V30 26 H 3.0921 1.5552 0.1421 0
M  V30 27 H -1.6769 0.9758 0.2815 0
M  V30 28 H -0.8986 0.3189 1.7278 0
M  V30 29 H -2.5649 2.0218 2.3162 0
M  V30 30 H -0.9457 2.5716 2.7802 0
M  V30 31 H -1.7268 3.2308 1.3286 0
M  V30 32 H -3.2087 -1.7105 -3.021 0
M  V30 33 H -2.8354 -1.583 -1.3102 0
M  V30 END ATOM
M  V30 BEGIN BOND
M  V30 1 2 1 2
M  V30 2 1 2 3
M  V30 3 1 2 4
M  V30 4 1 3 5
M  V30 5 1 5 6
M  V30 6 1 6 7
M  V30 7 1 6 8
M  V30 8 1 6 9
M  V30 9 1 7 10
M  V30 10 1 8 11
M  V30 11 1 10 12
M  V30 12 1 11 13
M  V30 13 2 12 14
M  V30 14 1 12 15
M  V30 15 1 4 16
M  V30 16 1 4 17
M  V30 17 1 5 18
M  V30 18 1 5 19
M  V30 19 1 7 20
M  V30 20 1 7 21
M  V30 21 1 8 22
M  V30 22 1 8 23
M  V30 23 1 9 24
M  V30 24 1 9 25
M  V30 25 1 9 26
M  V30 26 1 11 27
M  V30 27 1 11 28
M  V30 28 1 13 29
M  V30 29 1 13 30
M  V30 30 1 13 31
M  V30 31 1 15 32
M  V30 32 1 15 33
M  V30 END BOND
M  V30 END CTAB
M  END
>  <Column 1>
382

>  <level_0>
436

>  <index>
436

>  <Unnamed: 0>
436

>  <NO.>
439

>  <Name>
meprobamate

>  <IUPAC_name>
[2-(carbamoyloxymethyl)-2-methylpentyl] carbamate

>  <SMILES>
CCCC(C)(COC(N)=O)COC(N)=O

>  <CID>
4064

>  <logBB>
-0.15

>  <BBB+/BBB->
BBB+

>  <Inchi>
InChI=1S/C9H18N2O4/c1-3-4-9(2-5-14-7(10)12)6-15-8(11)13/h3-6H2-1-2H3-(H2-10-12)(H2-11-13)

>  <threshold>


>  <reference>
R18|R26|R27|R2|R2|R20|R25|R27|R46|

>  <group>
A

>  <Class>
1

>  <ABC>
10.5

>  <ABCGG>
10.4

>  <nAcid>
0

>  <nBase>
0

>  <nAromAtom>
0

>  <nAromBond>
0

>  <nAtom>
33

>  <nHeavyAtom>
15

>  <nSpiro>
0

>  <nBridgehead>
0

>  <nHetero>
6

>  <nN>
2

>  <nO>
4

>  <nF>
0

>  <BalabanJ>
4.05

>  <BertzCT>
212.15

>  <nBonds>
32

>  <nBondsO>
14

>  <nBondsS>
30

>  <nBondsD>
2

>  <nBondsT>
0

>  <nBondsA>
0

>  <nBondsM>
2

>  <nBondsKS>
30

>  <nBondsKD>
2

>  <RNCG>
0.2

>  <RPCG>
0.18

>  <FCSP3>
0.78

>  <SZ>
19.67

>  <Sm>
18.17

>  <Sv>
18.25

>  <Sse>
33.64

>  <Sp>
19.43

>  <Si>
38.16

>  <MZ>
0.6

>  <Mm>
0.55

>  <Mv>
0.55

>  <Mse>
1.02

>  <Mp>
0.59

>  <Mi>
1.16

>  <NsCH3>
2

>  <NdCH2>
0

>  <NssCH2>
4

>  <NtCH>
0

>  <NdsCH>
0

>  <NaaCH>
0

>  <NsssCH>
0

>  <NddC>
0

>  <NtsC>
0

>  <NdssC>
2

>  <NaasC>
0

>  <NaaaC>
0

>  <NssssC>
1

>  <NsNH3>
0

>  <NsNH2>
2

>  <NssNH2>
0

>  <NdNH>
0

>  <NssNH>
0

>  <NaaNH>
0

>  <NtN>
0

>  <NsssNH>
0

>  <NdsN>
0

>  <NaaN>
0

>  <NsssN>
0

>  <NddsN>
0

>  <NaasN>
0

>  <NssssN>
0

>  <NsOH>
0

>  <NdO>
2

>  <NssO>
2

>  <NaaO>
0

>  <NsF>
0

>  <NsSiH3>
0

>  <NssSiH2>
0

>  <NsssSiH>
0

>  <NssssSi>
0

>  <NsPH2>
0

>  <NssPH>
0

>  <NsssP>
0

>  <NdsssP>
0

>  <NsssssP>
0

>  <NsSH>
0

>  <NdS>
0

>  <NssS>
0

>  <NaaS>
0

>  <NdssS>
0

>  <NddssS>
0

>  <NsCl>
0

>  <NsBr>
0

>  <NsI>
0

>  <fragCpx>
14.06

>  <fMF>
0

>  <nHBAcc>
4

>  <nHBDon>
2

>  <Kier1>
15

>  <Kier2>
7.3

>  <Lipinski>
1

>  <GhoseFilter>
1

>  <FilterItLogS>
-0.99

>  <VMcGowan>
172.51

>  <LabuteASA>
88.89

>  <PEOE_VSA1>
20.94

>  <PEOE_VSA2>
0

>  <PEOE_VSA3>
9.59

>  <PEOE_VSA4>
0

>  <PEOE_VSA5>
0

>  <PEOE_VSA6>
20.27

>  <PEOE_VSA7>
6.42

>  <PEOE_VSA8>
5.41

>  <PEOE_VSA9>
0

>  <PEOE_VSA10>
13.21

>  <PEOE_VSA11>
0

>  <PEOE_VSA12>
0

>  <PEOE_VSA13>
0

>  <SMR_VSA1>
19.06

>  <SMR_VSA2>
0

>  <SMR_VSA3>
0

>  <SMR_VSA4>
16.88

>  <SMR_VSA5>
26.69

>  <SMR_VSA6>
13.21

>  <SMR_VSA7>
0

>  <SMR_VSA8>
0

>  <SMR_VSA9>
0

>  <SlogP_VSA1>
11.47

>  <SlogP_VSA2>
25.4

>  <SlogP_VSA3>
9.47

>  <SlogP_VSA4>
5.41

>  <SlogP_VSA5>
26.69

>  <SlogP_VSA6>
0

>  <SlogP_VSA7>
0

>  <SlogP_VSA8>
0

>  <SlogP_VSA9>
0

>  <SlogP_VSA10>
9.59

>  <SlogP_VSA11>
0

>  <EState_VSA1>
17.6

>  <EState_VSA2>
13.21

>  <EState_VSA3>
0

>  <EState_VSA4>
12.84

>  <EState_VSA5>
0

>  <EState_VSA6>
0

>  <EState_VSA7>
13.85

>  <EState_VSA8>
0

>  <EState_VSA9>
20.94

>  <EState_VSA10>
9.59

>  <VSA_EState1>
9.4

>  <VSA_EState2>
20.91

>  <VSA_EState3>
0

>  <VSA_EState4>
9.28

>  <VSA_EState5>
0

>  <VSA_EState6>
0

>  <VSA_EState7>
-0.05

>  <VSA_EState8>
4.04

>  <VSA_EState9>
0

>  <apol>
32.44

>  <bpol>
22.13

>  <nRing>
0

>  <nHRing>
0

>  <naRing>
0

>  <naHRing>
0

>  <nARing 2>
0

>  <nAHRing 2>
0

>  <nFRing>
0

>  <nFHRing>
0

>  <nFaRing>
0

>  <nFaHRing>
0

>  <nFARing 2>
0

>  <nFAHRing 2>
0

>  <nRot>
6

>  <SLogP>
0.98

>  <SMR>
54.09

>  <TopoPSA(NO)>
104.64

>  <TopoPSA>
104.64

>  <JGI1>
0.36

>  <JGI2>
0.1

>  <JGI3>
0.05

>  <JGI4>
0.06

>  <JGI5>
0.02

>  <Diameter>
8

>  <Radius>
4

>  <TMWC10>
94.88

>  <TSRW10>
45.57

>  <MW>
218.13

>  <AMW>
6.61

>  <WPath>
406

>  <WPol>
16

>  <Zagreb1>
64

>  <Zagreb2>
66

>  <mZagreb2>
3.54

>  <yes>


>  <nAR-cont>
0.336376

>  <nHA-cont>
0.92539861

>  <MWHBN>
0.406250165

>  <MWHBN-cont>
0.451501763

>  <TPSA-cont>
0.269547822

>  <pka_cont>
0.97

>  <yes.1>


>  <BBB_SCORE>
2.9631229

>  <MMFF94 Energy>
-127.82

$$$$
Compound 302
Actelion Java MolfileCreator 2.0

  0  0  0  0  0  0              0 V3000
M  V30 BEGIN CTAB
M  V30 COUNTS 10 9 0 0 0
M  V30 BEGIN ATOM
M  V30 1 O -0.1499 0.675 -1.7258 0
M  V30 2 C -0.0654 0.2384 -0.5789 0
M  V30 3 C 0.4623 1.082 0.5498 0
M  V30 4 C -0.4847 -1.1653 -0.2358 0
M  V30 5 H 1.3527 0.6112 0.9736 0
M  V30 6 H -0.3082 1.1912 1.3169 0
M  V30 7 H 0.731 2.0735 0.175 0
M  V30 8 H -1.2894 -1.137 0.5029 0
M  V30 9 H 0.3716 -1.717 0.1595 0
M  V30 10 H -0.8473 -1.6719 -1.1345 0
M  V30 END ATOM
M  V30 BEGIN BOND
M  V30 1 2 1 2
M  V30 2 1 2 3
M  V30 3 1 2 4
M  V30 4 1 3 5
M  V30 5 1 3 6
M  V30 6 1 3 7
M  V30 7 1 4 8
M  V30 8 1 4 9
M  V30 9 1 4 10
M  V30 END BOND
M  V30 END CTAB
M  END
>  <Column 1>
383

>  <level_0>
437

>  <index>
437

>  <Unnamed: 0>
437

>  <NO.>
440

>  <Name>
propan-2-one (acetone)

>  <IUPAC_name>
propan-2-one

>  <SMILES>
CC(C)=O

>  <CID>
180

>  <logBB>
-0.15

>  <BBB+/BBB->
BBB+

>  <Inchi>
InChI=1S/C3H6O/c1-3(2)4/h1-2H3

>  <threshold>


>  <reference>
R3|R38|R41|R47|R40|R2|R2|R8|R27|R11|R12|R17|R21|R22|R25|R27|R32|R33|R35|R36|R39|R43|R46|R48|R49|R44|

>  <group>
A

>  <Class>
1

>  <ABC>
2.45

>  <ABCGG>
2.45

>  <nAcid>
0

>  <nBase>
0

>  <nAromAtom>
0

>  <nAromBond>
0

>  <nAtom>
10

>  <nHeavyAtom>
4

>  <nSpiro>
0

>  <nBridgehead>
0

>  <nHetero>
1

>  <nN>
0

>  <nO>
1

>  <nF>
0

>  <BalabanJ>
2.32

>  <BertzCT>
26.26

>  <nBonds>
9

>  <nBondsO>
3

>  <nBondsS>
8

>  <nBondsD>
1

>  <nBondsT>
0

>  <nBondsA>
0

>  <nBondsM>
1

>  <nBondsKS>
8

>  <nBondsKD>
1

>  <RNCG>
0.96

>  <RPCG>
0.4

>  <FCSP3>
0.67

>  <SZ>
5.33

>  <Sm>
4.84

>  <Sv>
5.34

>  <Sse>
9.99

>  <Sp>
5.88

>  <Si>
11.46

>  <MZ>
0.53

>  <Mm>
0.48

>  <Mv>
0.53

>  <Mse>
1

>  <Mp>
0.59

>  <Mi>
1.15

>  <NsCH3>
2

>  <NdCH2>
0

>  <NssCH2>
0

>  <NtCH>
0

>  <NdsCH>
0

>  <NaaCH>
0

>  <NsssCH>
0

>  <NddC>
0

>  <NtsC>
0

>  <NdssC>
1

>  <NaasC>
0

>  <NaaaC>
0

>  <NssssC>
0

>  <NsNH3>
0

>  <NsNH2>
0

>  <NssNH2>
0

>  <NdNH>
0

>  <NssNH>
0

>  <NaaNH>
0

>  <NtN>
0

>  <NsssNH>
0

>  <NdsN>
0

>  <NaaN>
0

>  <NsssN>
0

>  <NddsN>
0

>  <NaasN>
0

>  <NssssN>
0

>  <NsOH>
0

>  <NdO>
1

>  <NssO>
0

>  <NaaO>
0

>  <NsF>
0

>  <NsSiH3>
0

>  <NssSiH2>
0

>  <NsssSiH>
0

>  <NssssSi>
0

>  <NsPH2>
0

>  <NssPH>
0

>  <NsssP>
0

>  <NdsssP>
0

>  <NsssssP>
0

>  <NsSH>
0

>  <NdS>
0

>  <NssS>
0

>  <NaaS>
0

>  <NdssS>
0

>  <NddssS>
0

>  <NsCl>
0

>  <NsBr>
0

>  <NsI>
0

>  <fragCpx>
3.01

>  <fMF>
0

>  <nHBAcc>
1

>  <nHBDon>
0

>  <Kier1>
4

>  <Kier2>
1.33

>  <Lipinski>
1

>  <GhoseFilter>
0

>  <FilterItLogS>
-0.42

>  <VMcGowan>
54.7

>  <LabuteASA>
25.63

>  <PEOE_VSA1>
4.79

>  <PEOE_VSA2>
0

>  <PEOE_VSA3>
0

>  <PEOE_VSA4>
0

>  <PEOE_VSA5>
0

>  <PEOE_VSA6>
0

>  <PEOE_VSA7>
13.85

>  <PEOE_VSA8>
0

>  <PEOE_VSA9>
0

>  <PEOE_VSA10>
5.78

>  <PEOE_VSA11>
0

>  <PEOE_VSA12>
0

>  <PEOE_VSA13>
0

>  <SMR_VSA1>
4.79

>  <SMR_VSA2>
0

>  <SMR_VSA3>
0

>  <SMR_VSA4>
0

>  <SMR_VSA5>
13.85

>  <SMR_VSA6>
0

>  <SMR_VSA7>
0

>  <SMR_VSA8>
0

>  <SMR_VSA9>
0

>  <SlogP_VSA1>
0

>  <SlogP_VSA2>
5.78

>  <SlogP_VSA3>
4.79

>  <SlogP_VSA4>
0

>  <SlogP_VSA5>
13.85

>  <SlogP_VSA6>
0

>  <SlogP_VSA7>
0

>  <SlogP_VSA8>
0

>  <SlogP_VSA9>
0

>  <SlogP_VSA10>
0

>  <SlogP_VSA11>
0

>  <EState_VSA1>
0

>  <EState_VSA2>
5.78

>  <EState_VSA3>
0

>  <EState_VSA4>
0

>  <EState_VSA5>
13.85

>  <EState_VSA6>
0

>  <EState_VSA7>
0

>  <EState_VSA8>
0

>  <EState_VSA9>
0

>  <EState_VSA10>
4.79

>  <VSA_EState1>
0

>  <VSA_EState2>
9.44

>  <VSA_EState3>
0

>  <VSA_EState4>
0

>  <VSA_EState5>
0.17

>  <VSA_EState6>
0

>  <VSA_EState7>
0

>  <VSA_EState8>
3.06

>  <VSA_EState9>
0

>  <apol>
9.81

>  <bpol>
6.89

>  <nRing>
0

>  <nHRing>
0

>  <naRing>
0

>  <naHRing>
0

>  <nARing 2>
0

>  <nAHRing 2>
0

>  <nFRing>
0

>  <nFHRing>
0

>  <nFaRing>
0

>  <nFaHRing>
0

>  <nFARing 2>
0

>  <nFAHRing 2>
0

>  <nRot>
0

>  <SLogP>
0.6

>  <SMR>
16.36

>  <TopoPSA(NO)>
17.07

>  <TopoPSA>
17.07

>  <JGI1>
0.5

>  <JGI2>
0

>  <JGI3>
0

>  <JGI4>
0

>  <JGI5>
0

>  <Diameter>
2

>  <Radius>
1

>  <TMWC10>
48.77

>  <TSRW10>
24.18

>  <MW>
58.04

>  <AMW>
5.8

>  <WPath>
9

>  <WPol>
0

>  <Zagreb1>
12

>  <Zagreb2>
9

>  <mZagreb2>
1

>  <yes>


>  <nAR-cont>
0.336376

>  <nHA-cont>
0

>  <MWHBN>
0.131261178

>  <MWHBN-cont>
0.874156572

>  <TPSA-cont>
0.8808408

>  <pka_cont>
0.97

>  <yes.1>


>  <BBB_SCORE>
3.894292458

>  <MMFF94 Energy>
1.6523

$$$$
Compound 303
Actelion Java MolfileCreator 2.0

  0  0  0  0  0  0              0 V3000
M  V30 BEGIN CTAB
M  V30 COUNTS 51 55 0 0 0
M  V30 BEGIN ATOM
M  V30 1 N 0.9636 -0.1605 -2.4909 0
M  V30 2 N 0.2976 -0.9333 -1.5582 0
M  V30 3 C 1.3771 1.0889 -2.1849 0
M  V30 4 C 0.0253 -0.4755 -0.3216 0
M  V30 5 C 1.1577 1.6114 -0.9059 0
M  V30 6 C 2.0585 1.7889 -3.288 0
M  V30 7 N -0.6396 -1.2834 0.5984 0
M  V30 8 C 0.4709 0.7964 0.0164 0
M  V30 9 C 1.6362 2.9335 -0.4649 0
M  V30 10 C 3.1316 1.177 -3.9611 0
M  V30 11 C 1.66 3.0667 -3.7181 0
M  V30 12 C -1.7401 -0.6987 1.384 0
M  V30 13 C -0.8804 -2.6756 0.1686 0
M  V30 14 C 0.7346 3.9249 -0.0574 0
M  V30 15 C 3.002 3.2364 -0.4252 0
M  V30 16 C 3.7965 1.8257 -5.0048 0
M  V30 17 C 2.3254 3.718 -4.7606 0
M  V30 18 C -2.1283 -1.5917 2.5815 0
M  V30 19 C -1.2665 -3.5846 1.3536 0
M  V30 20 C 1.2277 5.1532 0.3538 0
M  V30 21 C 3.3982 4.4946 -2.0E-4 0
M  V30 22 C 3.395 3.0983 -5.4009 0
M  V30 23 N -2.3159 -2.987 2.1836 0
M  V30 24 N 2.5401 5.4593 0.3914 0
M  V30 25 C -2.9841 -3.8174 3.0631 0
M  V30 26 N -3.7102 -3.2667 4.0524 0
M  V30 27 N -2.8974 -5.1483 2.8949 0
M  V30 28 C -4.3652 -4.094 4.8892 0
M  V30 29 C -3.5684 -5.9385 3.7542 0
M  V30 30 C -4.3299 -5.4591 4.7864 0
M  V30 31 H 0.3329 1.1594 1.0303 0
M  V30 32 H 3.4545 0.1781 -3.6703 0
M  V30 33 H 0.8169 3.5677 -3.2473 0
M  V30 34 H -1.4867 0.2892 1.7819 0
M  V30 35 H -2.6124 -0.5717 0.7294 0
M  V30 36 H 0.0157 -3.106 -0.2956 0
M  V30 37 H -1.6876 -2.6891 -0.5755 0
M  V30 38 H -0.3369 3.7527 -0.0677 0
M  V30 39 H 3.7521 2.5096 -0.7212 0
M  V30 40 H 4.6232 1.3329 -5.5098 0
M  V30 41 H 2.0032 4.7077 -5.0743 0
M  V30 42 H -3.0405 -1.1649 3.0162 0
M  V30 43 H -1.3387 -1.5389 3.3422 0
M  V30 44 H -1.5788 -4.5474 0.9313 0
M  V30 45 H -0.3795 -3.7637 1.9749 0
M  V30 46 H 0.5581 5.9472 0.6722 0
M  V30 47 H 4.4494 4.7657 0.0377 0
M  V30 48 H 3.9096 3.6034 -6.2141 0
M  V30 49 H -4.9385 -3.6026 5.6693 0
M  V30 50 H -3.4683 -7.0045 3.5751 0
M  V30 51 H -4.8626 -6.1076 5.4659 0
M  V30 END ATOM
M  V30 BEGIN BOND
M  V30 1 2 1 2
M  V30 2 1 1 3
M  V30 3 1 2 4
M  V30 4 2 3 5
M  V30 5 1 3 6
M  V30 6 1 4 7
M  V30 7 2 4 8
M  V30 8 1 5 9
M  V30 9 2 6 10
M  V30 10 1 6 11
M  V30 11 1 7 12
M  V30 12 1 7 13
M  V30 13 2 9 14
M  V30 14 1 9 15
M  V30 15 1 10 16
M  V30 16 2 11 17
M  V30 17 1 12 18
M  V30 18 1 13 19
M  V30 19 1 14 20
M  V30 20 2 15 21
M  V30 21 2 16 22
M  V30 22 1 18 23
M  V30 23 2 20 24
M  V30 24 1 23 25
M  V30 25 2 25 26
M  V30 26 1 25 27
M  V30 27 1 26 28
M  V30 28 2 27 29
M  V30 29 2 28 30
M  V30 30 1 5 8
M  V30 31 1 17 22
M  V30 32 1 19 23
M  V30 33 1 21 24
M  V30 34 1 29 30
M  V30 35 1 8 31
M  V30 36 1 10 32
M  V30 37 1 11 33
M  V30 38 1 12 34
M  V30 39 1 12 35
M  V30 40 1 13 36
M  V30 41 1 13 37
M  V30 42 1 14 38
M  V30 43 1 15 39
M  V30 44 1 16 40
M  V30 45 1 17 41
M  V30 46 1 18 42
M  V30 47 1 18 43
M  V30 48 1 19 44
M  V30 49 1 19 45
M  V30 50 1 20 46
M  V30 51 1 21 47
M  V30 52 1 22 48
M  V30 53 1 28 49
M  V30 54 1 29 50
M  V30 55 1 30 51
M  V30 END BOND
M  V30 END CTAB
M  END
>  <Column 1>
384

>  <level_0>
438

>  <index>
438

>  <Unnamed: 0>
438

>  <NO.>
441

>  <Name>
minokine;mw01-2-069srm

>  <IUPAC_name>
3-phenyl-4-pyridin-4-yl-6-(4-pyrimidin-2-ylpiperazin-1-yl)pyridazine

>  <SMILES>
c1ccc(-c2nnc(N3CCN(c4ncccn4)CC3)cc2-c2ccncc2)cc1

>  <CID>
24743826

>  <logBB>
-0.15

>  <BBB+/BBB->
BBB+

>  <Inchi>
InChI=1S/C23H21N7/c1-2-5-19(6-3-1)22-20(18-7-11-24-12-8-18)17-21(27-28-22)29-13-15-30(16-14-29)23-25-9-4-10-26-23/h1-12-17H-13-16H2

>  <threshold>


>  <reference>
R27|R18|R26|

>  <group>
A

>  <Class>
1

>  <ABC>
23.84

>  <ABCGG>
16.76

>  <nAcid>
0

>  <nBase>
0

>  <nAromAtom>
24

>  <nAromBond>
24

>  <nAtom>
51

>  <nHeavyAtom>
30

>  <nSpiro>
0

>  <nBridgehead>
0

>  <nHetero>
7

>  <nN>
7

>  <nO>
0

>  <nF>
0

>  <BalabanJ>
1.19

>  <BertzCT>
1096.21

>  <nBonds>
55

>  <nBondsO>
34

>  <nBondsS>
31

>  <nBondsD>
0

>  <nBondsT>
0

>  <nBondsA>
24

>  <nBondsM>
24

>  <nBondsKS>
43

>  <nBondsKD>
12

>  <RNCG>
0.17

>  <RPCG>
0.11

>  <FCSP3>
0.17

>  <SZ>
34.67

>  <Sm>
32.93

>  <Sv>
33.99

>  <Sse>
50.96

>  <Sp>
36

>  <Si>
57.4

>  <MZ>
0.68

>  <Mm>
0.65

>  <Mv>
0.67

>  <Mse>
1

>  <Mp>
0.71

>  <Mi>
1.13

>  <NsCH3>
0

>  <NdCH2>
0

>  <NssCH2>
4

>  <NtCH>
0

>  <NdsCH>
0

>  <NaaCH>
13

>  <NsssCH>
0

>  <NddC>
0

>  <NtsC>
0

>  <NdssC>
0

>  <NaasC>
6

>  <NaaaC>
0

>  <NssssC>
0

>  <NsNH3>
0

>  <NsNH2>
0

>  <NssNH2>
0

>  <NdNH>
0

>  <NssNH>
0

>  <NaaNH>
0

>  <NtN>
0

>  <NsssNH>
0

>  <NdsN>
0

>  <NaaN>
5

>  <NsssN>
2

>  <NddsN>
0

>  <NaasN>
0

>  <NssssN>
0

>  <NsOH>
0

>  <NdO>
0

>  <NssO>
0

>  <NaaO>
0

>  <NsF>
0

>  <NsSiH3>
0

>  <NssSiH2>
0

>  <NsssSiH>
0

>  <NssssSi>
0

>  <NsPH2>
0

>  <NssPH>
0

>  <NsssP>
0

>  <NdsssP>
0

>  <NsssssP>
0

>  <NsSH>
0

>  <NdS>
0

>  <NssS>
0

>  <NaaS>
0

>  <NdssS>
0

>  <NddssS>
0

>  <NsCl>
0

>  <NsBr>
0

>  <NsI>
0

>  <fragCpx>
286.07

>  <fMF>
0.59

>  <nHBAcc>
7

>  <nHBDon>
0

>  <Kier1>
21.83

>  <Kier2>
10.74

>  <Lipinski>
1

>  <GhoseFilter>
1

>  <FilterItLogS>
-5.83

>  <VMcGowan>
298.89

>  <LabuteASA>
174.64

>  <PEOE_VSA1>
9.8

>  <PEOE_VSA2>
4.98

>  <PEOE_VSA3>
9.97

>  <PEOE_VSA4>
0

>  <PEOE_VSA5>
10.2

>  <PEOE_VSA6>
30.33

>  <PEOE_VSA7>
29.83

>  <PEOE_VSA8>
62.09

>  <PEOE_VSA9>
0

>  <PEOE_VSA10>
5.69

>  <PEOE_VSA11>
5.82

>  <PEOE_VSA12>
5.95

>  <PEOE_VSA13>
0

>  <SMR_VSA1>
0

>  <SMR_VSA2>
0

>  <SMR_VSA3>
25.15

>  <SMR_VSA4>
0

>  <SMR_VSA5>
0

>  <SMR_VSA6>
35.98

>  <SMR_VSA7>
79.38

>  <SMR_VSA8>
0

>  <SMR_VSA9>
22.38

>  <SlogP_VSA1>
9.8

>  <SlogP_VSA2>
51.33

>  <SlogP_VSA3>
0

>  <SlogP_VSA4>
0

>  <SlogP_VSA5>
0

>  <SlogP_VSA6>
79.38

>  <SlogP_VSA7>
0

>  <SlogP_VSA8>
22.38

>  <SlogP_VSA9>
0

>  <SlogP_VSA10>
11.77

>  <SlogP_VSA11>
0

>  <EState_VSA1>
0

>  <EState_VSA2>
0

>  <EState_VSA3>
0

>  <EState_VSA4>
60.33

>  <EState_VSA5>
0

>  <EState_VSA6>
12.39

>  <EState_VSA7>
48.79

>  <EState_VSA8>
53.15

>  <EState_VSA9>
0

>  <EState_VSA10>
0

>  <VSA_EState1>
0

>  <VSA_EState2>
17.35

>  <VSA_EState3>
9.2

>  <VSA_EState4>
4.06

>  <VSA_EState5>
1.66

>  <VSA_EState6>
18.17

>  <VSA_EState7>
7.18

>  <VSA_EState8>
3.37

>  <VSA_EState9>
0

>  <apol>
60.11

>  <bpol>
29.05

>  <nRing>
5

>  <nHRing>
4

>  <naRing>
4

>  <naHRing>
3

>  <nARing 2>
1

>  <nAHRing 2>
1

>  <nFRing>
0

>  <nFHRing>
0

>  <nFaRing>
0

>  <nFaHRing>
0

>  <nFARing 2>
0

>  <nFAHRing 2>
0

>  <nRot>
4

>  <SLogP>
3.32

>  <SMR>
117.16

>  <TopoPSA(NO)>
70.93

>  <TopoPSA>
70.93

>  <JGI1>
0.1

>  <JGI2>
0.07

>  <JGI3>
0.03

>  <JGI4>
0.02

>  <JGI5>
0.02

>  <Diameter>
15

>  <Radius>
8

>  <TMWC10>
141.11

>  <TSRW10>
65.79

>  <MW>
395.19

>  <AMW>
7.75

>  <WPath>
2583

>  <WPol>
48

>  <Zagreb1>
160

>  <Zagreb2>
189

>  <mZagreb2>
6.64

>  <yes>


>  <nAR-cont>
0.816016

>  <nHA-cont>
0.74523694

>  <MWHBN>
0.352123546

>  <MWHBN-cont>
0.662289335

>  <TPSA-cont>
0.504864555

>  <pka_cont>
0.97

>  <yes.1>


>  <BBB_SCORE>
4.049416052

>  <MMFF94 Energy>
65.69

$$$$
Compound 304
Actelion Java MolfileCreator 2.0

  0  0  0  0  0  0              0 V3000
M  V30 BEGIN CTAB
M  V30 COUNTS 52 52 0 0 0
M  V30 BEGIN ATOM
M  V30 1 O 3.8285 -3.4373 -0.4681 0
M  V30 2 C 2.8028 -4.0942 -0.6031 0
M  V30 3 N 1.518 -3.6632 -0.3065 0
M  V30 4 C 2.8037 -5.5175 -1.1443 0
M  V30 5 C 1.1484 -2.3954 0.1858 0
M  V30 6 C 4.1994 -6.1113 -1.3188 0
M  V30 7 C 1.9695 -1.2681 0.0996 0
M  V30 8 C -0.1209 -2.2736 0.763 0
M  V30 9 C 4.8443 -6.4868 0.008 0
M  V30 10 C 1.536 -0.0324 0.6039 0
M  V30 11 C -0.5608 -1.0448 1.2622 0
M  V30 12 C 0.2604 0.0801 1.1695 0
M  V30 13 C 2.4204 1.1585 0.4919 0
M  V30 14 O -0.1334 1.2708 1.7164 0
M  V30 15 O 1.9463 2.2608 0.2225 0
M  V30 16 C 3.9025 0.9652 0.6833 0
M  V30 17 C -1.3482 1.7804 1.1371 0
M  V30 18 C -1.2339 3.3081 1.0551 0 CFG=1
M  V30 19 O -0.369 3.6808 -0.0242 0
M  V30 20 C -2.6049 4.0072 0.8886 0
M  V30 21 N -3.3925 3.5614 -0.2726 0
M  V30 22 C -4.7274 4.1678 -0.3381 0
M  V30 23 C -4.6699 5.6579 -0.6791 0
M  V30 24 C -5.5398 3.4297 -1.4061 0
M  V30 25 H 0.7733 -4.3428 -0.4024 0
M  V30 26 H 2.307 -5.4871 -2.1219 0
M  V30 27 H 2.2004 -6.1547 -0.4869 0
M  V30 28 H 4.1218 -7.0163 -1.9329 0
M  V30 29 H 4.8512 -5.4142 -1.8577 0
M  V30 30 H 2.9398 -1.3312 -0.3826 0
M  V30 31 H -0.7787 -3.1351 0.8496 0
M  V30 32 H 5.8263 -6.9381 -0.1653 0
M  V30 33 H 4.9852 -5.6117 0.6493 0
M  V30 34 H 4.23 -7.2132 0.5498 0
M  V30 35 H -1.5348 -0.9784 1.7388 0
M  V30 36 H 4.1076 0.1283 1.3565 0
M  V30 37 H 4.3792 0.7937 -0.2847 0
M  V30 38 H 4.3217 1.8652 1.1432 0
M  V30 39 H -2.1749 1.4914 1.7954 0
M  V30 40 H -1.5114 1.3667 0.1333 0
M  V30 41 H -0.7643 3.6904 1.9696 0
M  V30 42 H 0.4815 3.2007 0.1044 0
M  V30 43 H -3.1848 3.8425 1.8049 0
M  V30 44 H -2.4118 5.0816 0.7965 0
M  V30 45 H -3.4714 2.5483 -0.2792 0
M  V30 46 H -5.244 4.0358 0.6207 0
M  V30 47 H -4.1094 5.8353 -1.6038 0
M  V30 48 H -4.2003 6.2386 0.1208 0
M  V30 49 H -5.6793 6.0609 -0.8184 0
M  V30 50 H -5.6307 2.3643 -1.1662 0
M  V30 51 H -5.0766 3.5165 -2.3956 0
M  V30 52 H -6.554 3.8389 -1.4723 0
M  V30 END ATOM
M  V30 BEGIN BOND
M  V30 1 2 1 2
M  V30 2 1 2 3
M  V30 3 1 2 4
M  V30 4 1 3 5
M  V30 5 1 4 6
M  V30 6 2 5 7
M  V30 7 1 5 8
M  V30 8 1 6 9
M  V30 9 1 7 10
M  V30 10 2 8 11
M  V30 11 2 10 12
M  V30 12 1 10 13
M  V30 13 1 12 14
M  V30 14 2 13 15
M  V30 15 1 13 16
M  V30 16 1 14 17
M  V30 17 1 17 18
M  V30 18 1 18 19
M  V30 19 1 18 20
M  V30 20 1 20 21
M  V30 21 1 21 22
M  V30 22 1 22 23
M  V30 23 1 22 24
M  V30 24 1 11 12
M  V30 25 1 3 25
M  V30 26 1 4 26
M  V30 27 1 4 27
M  V30 28 1 6 28
M  V30 29 1 6 29
M  V30 30 1 7 30
M  V30 31 1 8 31
M  V30 32 1 9 32
M  V30 33 1 9 33
M  V30 34 1 9 34
M  V30 35 1 11 35
M  V30 36 1 16 36
M  V30 37 1 16 37
M  V30 38 1 16 38
M  V30 39 1 17 39
M  V30 40 1 17 40
M  V30 41 1 18 41
M  V30 42 1 19 42
M  V30 43 1 20 43
M  V30 44 1 20 44
M  V30 45 1 21 45
M  V30 46 1 22 46
M  V30 47 1 23 47
M  V30 48 1 23 48
M  V30 49 1 23 49
M  V30 50 1 24 50
M  V30 51 1 24 51
M  V30 52 1 24 52
M  V30 END BOND
M  V30 BEGIN COLLECTION
M  V30 MDLV30/STERAC1 ATOMS=(1 18)
M  V30 END COLLECTION
M  V30 END CTAB
M  END
>  <Column 1>
385

>  <level_0>
439

>  <index>
439

>  <Unnamed: 0>
439

>  <NO.>
442

>  <Name>
acebutolol

>  <IUPAC_name>
n-[3-acetyl-4-[2-hydroxy-3-(propan-2-ylamino)propoxy]phenyl]butanamide

>  <SMILES>
CCCC(=O)Nc1ccc(OCC(O)CNC(C)C)c(C(C)=O)c1

>  <CID>
1978

>  <logBB>
-0.15

>  <BBB+/BBB->
BBB+

>  <Inchi>
InChI=1S/C18H28N2O4/c1-5-6-18(23)20-14-7-8-17(16(9-14)13(4)21)24-11-15(22)10-19-12(2)3/h7-9-12-15-19-22H-5-6-10-11H2-1-4H3-(H-20-23)

>  <threshold>


>  <reference>
R2|R2|R8|R27|R40|R21|R25|R27|R43|R46|R47|R4|R42|

>  <group>
A

>  <Class>
1

>  <ABC>
17.55

>  <ABCGG>
14.91

>  <nAcid>
0

>  <nBase>
1

>  <nAromAtom>
6

>  <nAromBond>
6

>  <nAtom>
52

>  <nHeavyAtom>
24

>  <nSpiro>
0

>  <nBridgehead>
0

>  <nHetero>
6

>  <nN>
2

>  <nO>
4

>  <nF>
0

>  <BalabanJ>
2.42

>  <BertzCT>
557.95

>  <nBonds>
52

>  <nBondsO>
24

>  <nBondsS>
44

>  <nBondsD>
2

>  <nBondsT>
0

>  <nBondsA>
6

>  <nBondsM>
8

>  <nBondsKS>
47

>  <nBondsKD>
5

>  <RNCG>
0.21

>  <RPCG>
0.09

>  <FCSP3>
0.56

>  <SZ>
30.33

>  <Sm>
28.01

>  <Sv>
29.96

>  <Sse>
52.08

>  <Sp>
32.42

>  <Si>
59.23

>  <MZ>
0.58

>  <Mm>
0.54

>  <Mv>
0.58

>  <Mse>
1

>  <Mp>
0.62

>  <Mi>
1.14

>  <NsCH3>
4

>  <NdCH2>
0

>  <NssCH2>
4

>  <NtCH>
0

>  <NdsCH>
0

>  <NaaCH>
3

>  <NsssCH>
2

>  <NddC>
0

>  <NtsC>
0

>  <NdssC>
2

>  <NaasC>
3

>  <NaaaC>
0

>  <NssssC>
0

>  <NsNH3>
0

>  <NsNH2>
0

>  <NssNH2>
0

>  <NdNH>
0

>  <NssNH>
2

>  <NaaNH>
0

>  <NtN>
0

>  <NsssNH>
0

>  <NdsN>
0

>  <NaaN>
0

>  <NsssN>
0

>  <NddsN>
0

>  <NaasN>
0

>  <NssssN>
0

>  <NsOH>
1

>  <NdO>
2

>  <NssO>
1

>  <NaaO>
0

>  <NsF>
0

>  <NsSiH3>
0

>  <NssSiH2>
0

>  <NsssSiH>
0

>  <NssssSi>
0

>  <NsPH2>
0

>  <NssPH>
0

>  <NsssP>
0

>  <NdsssP>
0

>  <NsssssP>
0

>  <NsSH>
0

>  <NdS>
0

>  <NssS>
0

>  <NaaS>
0

>  <NdssS>
0

>  <NddssS>
0

>  <NsCl>
0

>  <NsBr>
0

>  <NsI>
0

>  <fragCpx>
24.06

>  <fMF>
0.12

>  <nHBAcc>
5

>  <nHBDon>
3

>  <Kier1>
22.04

>  <Kier2>
11.58

>  <Lipinski>
1

>  <GhoseFilter>
1

>  <FilterItLogS>
-4.34

>  <VMcGowan>
275.56

>  <LabuteASA>
143.14

>  <PEOE_VSA1>
20.48

>  <PEOE_VSA2>
9.59

>  <PEOE_VSA3>
0

>  <PEOE_VSA4>
0

>  <PEOE_VSA5>
0

>  <PEOE_VSA6>
20.77

>  <PEOE_VSA7>
31.54

>  <PEOE_VSA8>
24.69

>  <PEOE_VSA9>
5.56

>  <PEOE_VSA10>
18.46

>  <PEOE_VSA11>
5.78

>  <PEOE_VSA12>
5.91

>  <PEOE_VSA13>
0

>  <SMR_VSA1>
19.43

>  <SMR_VSA2>
0

>  <SMR_VSA3>
5.32

>  <SMR_VSA4>
0

>  <SMR_VSA5>
52.68

>  <SMR_VSA6>
18.47

>  <SMR_VSA7>
23.76

>  <SMR_VSA8>
0

>  <SMR_VSA9>
5.75

>  <SlogP_VSA1>
15.37

>  <SlogP_VSA2>
42.09

>  <SlogP_VSA3>
4.79

>  <SlogP_VSA4>
0

>  <SlogP_VSA5>
50.89

>  <SlogP_VSA6>
18.2

>  <SlogP_VSA7>
0

>  <SlogP_VSA8>
0

>  <SlogP_VSA9>
0

>  <SlogP_VSA10>
5.69

>  <SlogP_VSA11>
5.75

>  <EState_VSA1>
6.1

>  <EState_VSA2>
24.34

>  <EState_VSA3>
29.97

>  <EState_VSA4>
6.42

>  <EState_VSA5>
6.92

>  <EState_VSA6>
18.2

>  <EState_VSA7>
20.77

>  <EState_VSA8>
10.63

>  <EState_VSA9>
4.74

>  <EState_VSA10>
14.7

>  <VSA_EState1>
5.58

>  <VSA_EState2>
23.48

>  <VSA_EState3>
15.77

>  <VSA_EState4>
0.95

>  <VSA_EState5>
0.15

>  <VSA_EState6>
5.21

>  <VSA_EState7>
0.52

>  <VSA_EState8>
7.85

>  <VSA_EState9>
0

>  <apol>
54.14

>  <bpol>
32.7

>  <nRing>
1

>  <nHRing>
0

>  <naRing>
1

>  <naHRing>
0

>  <nARing 2>
0

>  <nAHRing 2>
0

>  <nFRing>
0

>  <nFHRing>
0

>  <nFaRing>
0

>  <nFaHRing>
0

>  <nFARing 2>
0

>  <nFAHRing 2>
0

>  <nRot>
10

>  <SLogP>
2.37

>  <SMR>
94.62

>  <TopoPSA(NO)>
87.66

>  <TopoPSA>
87.66

>  <JGI1>
0.25

>  <JGI2>
0.08

>  <JGI3>
0.05

>  <JGI4>
0.04

>  <JGI5>
0.03

>  <Diameter>
15

>  <Radius>
8

>  <TMWC10>
119.81

>  <TSRW10>
57.38

>  <MW>
336.2

>  <AMW>
6.47

>  <WPath>
1568

>  <WPol>
31

>  <Zagreb1>
110

>  <Zagreb2>
120

>  <mZagreb2>
5.56

>  <yes>


>  <nAR-cont>
0.336376

>  <nHA-cont>
0.94700071

>  <MWHBN>
0.436305947

>  <MWHBN-cont>
0.336003264

>  <TPSA-cont>
0.388078766

>  <pka_cont>
0.97

>  <yes.1>


>  <BBB_SCORE>
3.048539139

>  <MMFF94 Energy>
58.391

$$$$
Compound 305
Actelion Java MolfileCreator 2.0

  0  0  0  0  0  0              0 V3000
M  V30 BEGIN CTAB
M  V30 COUNTS 52 54 0 0 0
M  V30 BEGIN ATOM
M  V30 1 S 1.2857 3.8611 -2.3314 0
M  V30 2 O 0.194 4.5205 -1.6403 0
M  V30 3 O 2.3654 4.6297 -2.9217 0
M  V30 4 C 2.005 2.6969 -1.2002 0
M  V30 5 C 0.5987 2.8229 -3.5956 0
M  V30 6 C 1.187 2.0573 -0.2678 0
M  V30 7 C 3.3739 2.4419 -1.2376 0
M  V30 8 C 1.7312 1.1112 0.6194 0
M  V30 9 C 3.9248 1.5143 -0.3498 0
M  V30 10 C 3.1143 0.8389 0.5728 0
M  V30 11 C 0.8119 0.3974 1.5868 0
M  V30 12 O 3.5796 -0.0734 1.4833 0
M  V30 13 N 0.3941 -0.943 1.1475 0
M  V30 14 C 4.9154 -0.5326 1.3279 0
M  V30 15 C -0.5897 -0.9227 0.0414 0
M  V30 16 C -1.8061 -1.8924 0.2798 0
M  V30 17 C 0.1335 -1.3413 -1.2521 0
M  V30 18 N -2.7099 -1.9262 -0.8868 0
M  V30 19 C -2.6011 -1.5145 1.5252 0
M  V30 20 C -0.8451 -1.435 -2.4196 0
M  V30 21 C -2.0114 -2.3618 -2.0925 0
M  V30 22 C -2.6259 -2.3754 2.6343 0
M  V30 23 C -3.3142 -0.3065 1.5964 0
M  V30 24 C -3.3356 -2.0307 3.7864 0
M  V30 25 C -4.0233 0.0358 2.7488 0
M  V30 26 C -4.0319 -0.8251 3.8439 0
M  V30 27 H -0.1559 2.1701 -3.1525 0
M  V30 28 H 1.4001 2.2372 -4.0501 0
M  V30 29 H 0.1365 3.4661 -4.3477 0
M  V30 30 H 0.1227 2.2841 -0.2302 0
M  V30 31 H 4.0209 2.9589 -1.9431 0
M  V30 32 H 4.9961 1.3463 -0.3961 0
M  V30 33 H -0.0657 1.0176 1.8123 0
M  V30 34 H 1.3309 0.2978 2.5486 0
M  V30 35 H -0.0355 -1.384 1.9611 0
M  V30 36 H 5.0788 -0.9554 0.331 0
M  V30 37 H 5.0814 -1.3303 2.0585 0
M  V30 38 H 5.6315 0.2673 1.5419 0
M  V30 39 H -0.9962 0.088 -0.0948 0
M  V30 40 H -1.4113 -2.9086 0.4254 0
M  V30 41 H 0.9264 -0.6319 -1.5108 0
M  V30 42 H 0.6172 -2.3175 -1.1128 0
M  V30 43 H -3.4732 -2.5715 -0.6822 0
M  V30 44 H -1.2226 -0.4334 -2.662 0
M  V30 45 H -0.3212 -1.8025 -3.3093 0
M  V30 46 H -2.7171 -2.359 -2.9304 0
M  V30 47 H -1.6579 -3.3935 -1.9755 0
M  V30 48 H -2.0896 -3.3216 2.6103 0
M  V30 49 H -3.3261 0.3705 0.7444 0
M  V30 50 H -3.3464 -2.7042 4.6397 0
M  V30 51 H -4.572 0.9734 2.789 0
M  V30 52 H -4.5855 -0.5583 4.7404 0
M  V30 END ATOM
M  V30 BEGIN BOND
M  V30 1 2 1 2
M  V30 2 2 1 3
M  V30 3 1 1 4
M  V30 4 1 1 5
M  V30 5 2 4 6
M  V30 6 1 4 7
M  V30 7 1 6 8
M  V30 8 2 7 9
M  V30 9 2 8 10
M  V30 10 1 8 11
M  V30 11 1 10 12
M  V30 12 1 11 13
M  V30 13 1 12 14
M  V30 14 1 13 15
M  V30 15 1 15 16
M  V30 16 1 15 17
M  V30 17 1 16 18
M  V30 18 1 16 19
M  V30 19 1 17 20
M  V30 20 1 18 21
M  V30 21 2 19 22
M  V30 22 1 19 23
M  V30 23 1 22 24
M  V30 24 2 23 25
M  V30 25 2 24 26
M  V30 26 1 9 10
M  V30 27 1 20 21
M  V30 28 1 25 26
M  V30 29 1 5 27
M  V30 30 1 5 28
M  V30 31 1 5 29
M  V30 32 1 6 30
M  V30 33 1 7 31
M  V30 34 1 9 32
M  V30 35 1 11 33
M  V30 36 1 11 34
M  V30 37 1 13 35
M  V30 38 1 14 36
M  V30 39 1 14 37
M  V30 40 1 14 38
M  V30 41 1 15 39
M  V30 42 1 16 40
M  V30 43 1 17 41
M  V30 44 1 17 42
M  V30 45 1 18 43
M  V30 46 1 20 44
M  V30 47 1 20 45
M  V30 48 1 21 46
M  V30 49 1 21 47
M  V30 50 1 22 48
M  V30 51 1 23 49
M  V30 52 1 24 50
M  V30 53 1 25 51
M  V30 54 1 26 52
M  V30 END BOND
M  V30 END CTAB
M  END
>  <Column 1>
386

>  <level_0>
440

>  <index>
440

>  <Unnamed: 0>
440

>  <NO.>
443

>  <Name>
145741-95-3

>  <IUPAC_name>
n-[(2-methoxy-5-methylsulfonylphenyl)methyl]-2-phenylpiperidin-3-amine

>  <SMILES>
COc1ccc(S(C)(=O)=O)cc1CNC1CCCNC1c1ccccc1

>  <CID>
19696721

>  <logBB>
-0.15

>  <BBB+/BBB->
BBB+

>  <Inchi>
InChI=1S/C20H26N2O3S/c1-25-19-11-10-17(26(2-23)24)13-16(19)14-22-18-9-6-12-21-20(18)15-7-4-3-5-8-15/h3-5-7-8-10-11-13-18-20-22H-6-9-12-14H2-1-2H3

>  <threshold>


>  <reference>
R2|R2|R8|R27|R40|R25|R46|R47|R4|

>  <group>
A

>  <Class>
1

>  <ABC>
20.09

>  <ABCGG>
16.07

>  <nAcid>
0

>  <nBase>
2

>  <nAromAtom>
12

>  <nAromBond>
12

>  <nAtom>
52

>  <nHeavyAtom>
26

>  <nSpiro>
0

>  <nBridgehead>
0

>  <nHetero>
6

>  <nN>
2

>  <nO>
3

>  <nF>
0

>  <BalabanJ>
1.57

>  <BertzCT>
837.39

>  <nBonds>
54

>  <nBondsO>
28

>  <nBondsS>
40

>  <nBondsD>
2

>  <nBondsT>
0

>  <nBondsA>
12

>  <nBondsM>
14

>  <nBondsKS>
46

>  <nBondsKD>
8

>  <RNCG>
0.24

>  <RPCG>
0.08

>  <FCSP3>
0.4

>  <SZ>
33.33

>  <Sm>
31.18

>  <Sv>
31.89

>  <Sse>
51.94

>  <Sp>
34.88

>  <Si>
58.53

>  <MZ>
0.64

>  <Mm>
0.6

>  <Mv>
0.61

>  <Mse>
1

>  <Mp>
0.67

>  <Mi>
1.13

>  <NsCH3>
2

>  <NdCH2>
0

>  <NssCH2>
4

>  <NtCH>
0

>  <NdsCH>
0

>  <NaaCH>
8

>  <NsssCH>
2

>  <NddC>
0

>  <NtsC>
0

>  <NdssC>
0

>  <NaasC>
4

>  <NaaaC>
0

>  <NssssC>
0

>  <NsNH3>
0

>  <NsNH2>
0

>  <NssNH2>
0

>  <NdNH>
0

>  <NssNH>
2

>  <NaaNH>
0

>  <NtN>
0

>  <NsssNH>
0

>  <NdsN>
0

>  <NaaN>
0

>  <NsssN>
0

>  <NddsN>
0

>  <NaasN>
0

>  <NssssN>
0

>  <NsOH>
0

>  <NdO>
2

>  <NssO>
1

>  <NaaO>
0

>  <NsF>
0

>  <NsSiH3>
0

>  <NssSiH2>
0

>  <NsssSiH>
0

>  <NssssSi>
0

>  <NsPH2>
0

>  <NssPH>
0

>  <NsssP>
0

>  <NdsssP>
0

>  <NsssssP>
0

>  <NsSH>
0

>  <NdS>
0

>  <NssS>
0

>  <NaaS>
0

>  <NdssS>
0

>  <NddssS>
1

>  <NsCl>
0

>  <NsBr>
0

>  <NsI>
0

>  <fragCpx>
134.06

>  <fMF>
0.38

>  <nHBAcc>
5

>  <nHBDon>
2

>  <Kier1>
20.73

>  <Kier2>
9.47

>  <Lipinski>
1

>  <GhoseFilter>
1

>  <FilterItLogS>
-5.52

>  <VMcGowan>
288.2

>  <LabuteASA>
155.24

>  <PEOE_VSA1>
15.37

>  <PEOE_VSA2>
0

>  <PEOE_VSA3>
8.42

>  <PEOE_VSA4>
0

>  <PEOE_VSA5>
0

>  <PEOE_VSA6>
30.33

>  <PEOE_VSA7>
43.15

>  <PEOE_VSA8>
30.45

>  <PEOE_VSA9>
12.01

>  <PEOE_VSA10>
5.75

>  <PEOE_VSA11>
9.84

>  <PEOE_VSA12>
0

>  <PEOE_VSA13>
0

>  <SMR_VSA1>
13.15

>  <SMR_VSA2>
0

>  <SMR_VSA3>
10.63

>  <SMR_VSA4>
0

>  <SMR_VSA5>
36.37

>  <SMR_VSA6>
19.91

>  <SMR_VSA7>
59.66

>  <SMR_VSA8>
0

>  <SMR_VSA9>
5.75

>  <SlogP_VSA1>
15.37

>  <SlogP_VSA2>
34.37

>  <SlogP_VSA3>
16.38

>  <SlogP_VSA4>
0

>  <SlogP_VSA5>
30.01

>  <SlogP_VSA6>
53.43

>  <SlogP_VSA7>
0

>  <SlogP_VSA8>
0

>  <SlogP_VSA9>
0

>  <SlogP_VSA10>
0

>  <SlogP_VSA11>
5.75

>  <EState_VSA1>
9.84

>  <EState_VSA2>
12.08

>  <EState_VSA3>
17.19

>  <EState_VSA4>
24.95

>  <EState_VSA5>
11.82

>  <EState_VSA6>
25.31

>  <EState_VSA7>
6.07

>  <EState_VSA8>
34.9

>  <EState_VSA9>
4.74

>  <EState_VSA10>
8.42

>  <VSA_EState1>
29.13

>  <VSA_EState2>
0.32

>  <VSA_EState3>
7.2

>  <VSA_EState4>
2.12

>  <VSA_EState5>
0.7

>  <VSA_EState6>
15.96

>  <VSA_EState7>
3.41

>  <VSA_EState8>
1.56

>  <VSA_EState9>
-1.64

>  <apol>
58.24

>  <bpol>
35.62

>  <nRing>
3

>  <nHRing>
1

>  <naRing>
2

>  <naHRing>
0

>  <nARing 2>
1

>  <nAHRing 2>
1

>  <nFRing>
0

>  <nFHRing>
0

>  <nFaRing>
0

>  <nFaHRing>
0

>  <nFARing 2>
0

>  <nFAHRing 2>
0

>  <nRot>
6

>  <SLogP>
2.68

>  <SMR>
103.15

>  <TopoPSA(NO)>
67.43

>  <TopoPSA>
75.81

>  <JGI1>
0.2

>  <JGI2>
0.09

>  <JGI3>
0.04

>  <JGI4>
0.03

>  <JGI5>
0.03

>  <Diameter>
12

>  <Radius>
6

>  <TMWC10>
129.12

>  <TSRW10>
60.91

>  <MW>
374.17

>  <AMW>
7.2

>  <WPath>
1730

>  <WPol>
40

>  <Zagreb1>
134

>  <Zagreb2>
155

>  <mZagreb2>
5.75

>  <yes>


>  <nAR-cont>
0.816016

>  <nHA-cont>
0.892715677

>  <MWHBN>
0.361879147

>  <MWHBN-cont>
0.625224595

>  <TPSA-cont>
0.470799125

>  <pka_cont>
0.97

>  <yes.1>


>  <BBB_SCORE>
4.07316682

>  <MMFF94 Energy>
98.097

$$$$
Compound 306
Actelion Java MolfileCreator 2.0

  0  0  0  0  0  0              0 V3000
M  V30 BEGIN CTAB
M  V30 COUNTS 29 31 0 0 0
M  V30 BEGIN ATOM
M  V30 1 O -0.2411 1.7693 0.9647 0
M  V30 2 C -0.3416 0.941 0.0671 0
M  V30 3 C 0.1949 -0.445 0.1797 0
M  V30 4 C -1.0117 1.2883 -1.1993 0
M  V30 5 C 0.8743 -0.9339 1.3938 0
M  V30 6 C 0.0063 -1.2583 -0.8717 0
M  V30 7 C -1.1133 0.3234 -2.1984 0
M  V30 8 C -1.5396 2.5698 -1.399 0
M  V30 9 C 0.2842 -0.7673 2.6549 0
M  V30 10 C 2.1226 -1.5744 1.3147 0
M  V30 11 O -0.6161 -0.9459 -2.056 0
M  V30 12 C -1.7426 0.6313 -3.4036 0
M  V30 13 C -2.1703 2.8805 -2.6056 0
M  V30 14 C 0.9191 -1.239 3.8065 0
M  V30 15 C 2.7599 -2.0458 2.4668 0
M  V30 16 C -2.2654 1.9066 -3.597 0
M  V30 17 C 2.1492 -1.8747 3.704 0
M  V30 18 O -2.8726 2.1672 -4.7894 0
M  V30 19 O 2.7334 -2.3185 4.8528 0
M  V30 20 H 0.328 -2.2927 -0.9009 0
M  V30 21 H -1.4593 3.3231 -0.6177 0
M  V30 22 H -0.6745 -0.262 2.7547 0
M  V30 23 H 2.6177 -1.7021 0.3545 0
M  V30 24 H -1.8265 -0.1154 -4.1877 0
M  V30 25 H -2.5764 3.877 -2.7512 0
M  V30 26 H 0.4553 -1.1029 4.7794 0
M  V30 27 H 3.7245 -2.535 2.3779 0
M  V30 28 H -3.1904 3.0855 -4.7879 0
M  V30 29 H 3.596 -2.7062 4.6335 0
M  V30 END ATOM
M  V30 BEGIN BOND
M  V30 1 2 1 2
M  V30 2 1 2 3
M  V30 3 1 2 4
M  V30 4 1 3 5
M  V30 5 2 3 6
M  V30 6 2 4 7
M  V30 7 1 4 8
M  V30 8 2 5 9
M  V30 9 1 5 10
M  V30 10 1 6 11
M  V30 11 1 7 12
M  V30 12 2 8 13
M  V30 13 1 9 14
M  V30 14 2 10 15
M  V30 15 2 12 16
M  V30 16 2 14 17
M  V30 17 1 16 18
M  V30 18 1 17 19
M  V30 19 1 7 11
M  V30 20 1 13 16
M  V30 21 1 15 17
M  V30 22 1 6 20
M  V30 23 1 8 21
M  V30 24 1 9 22
M  V30 25 1 10 23
M  V30 26 1 12 24
M  V30 27 1 13 25
M  V30 28 1 14 26
M  V30 29 1 15 27
M  V30 30 1 18 28
M  V30 31 1 19 29
M  V30 END BOND
M  V30 END CTAB
M  END
>  <Column 1>
387

>  <level_0>
441

>  <index>
441

>  <Unnamed: 0>
441

>  <NO.>
444

>  <Name>
daidzein ok

>  <IUPAC_name>
7-hydroxy-3-(4-hydroxyphenyl)chromen-4-one

>  <SMILES>
O=c1c(-c2ccc(O)cc2)coc2cc(O)ccc12

>  <CID>
5281708

>  <logBB>
-0.15

>  <BBB+/BBB->
BBB+

>  <Inchi>
InChI=1S/C15H10O4/c16-10-3-1-9(2-4-10)13-8-19-14-7-11(17)5-6-12(14)15(13)18/h1-8-16-17H

>  <threshold>


>  <reference>
R2|R2|R8|R27|R40|R3|R18|R21|R25|R26|R27|R27|R38|R41|R43|R46|R47|

>  <group>
A

>  <Class>
1

>  <ABC>
15.02

>  <ABCGG>
11.84

>  <nAcid>
0

>  <nBase>
0

>  <nAromAtom>
16

>  <nAromBond>
17

>  <nAtom>
29

>  <nHeavyAtom>
19

>  <nSpiro>
0

>  <nBridgehead>
0

>  <nHetero>
4

>  <nN>
0

>  <nO>
4

>  <nF>
0

>  <BalabanJ>
1.62

>  <BertzCT>
800.48

>  <nBonds>
31

>  <nBondsO>
21

>  <nBondsS>
13

>  <nBondsD>
1

>  <nBondsT>
0

>  <nBondsA>
17

>  <nBondsM>
18

>  <nBondsKS>
23

>  <nBondsKD>
8

>  <RNCG>
0.26

>  <RPCG>
0.15

>  <FCSP3>
0

>  <SZ>
22

>  <Sm>
21.17

>  <Sv>
20.57

>  <Sse>
29.76

>  <Sp>
20.91

>  <Si>
31.91

>  <MZ>
0.76

>  <Mm>
0.73

>  <Mv>
0.71

>  <Mse>
1.03

>  <Mp>
0.72

>  <Mi>
1.1

>  <NsCH3>
0

>  <NdCH2>
0

>  <NssCH2>
0

>  <NtCH>
0

>  <NdsCH>
0

>  <NaaCH>
8

>  <NsssCH>
0

>  <NddC>
0

>  <NtsC>
0

>  <NdssC>
0

>  <NaasC>
4

>  <NaaaC>
2

>  <NssssC>
0

>  <NsNH3>
0

>  <NsNH2>
0

>  <NssNH2>
0

>  <NdNH>
0

>  <NssNH>
0

>  <NaaNH>
0

>  <NtN>
0

>  <NsssNH>
0

>  <NdsN>
0

>  <NaaN>
0

>  <NsssN>
0

>  <NddsN>
0

>  <NaasN>
0

>  <NssssN>
0

>  <NsOH>
2

>  <NdO>
1

>  <NssO>
0

>  <NaaO>
1

>  <NsF>
0

>  <NsSiH3>
0

>  <NssSiH2>
0

>  <NsssSiH>
0

>  <NssssSi>
0

>  <NsPH2>
0

>  <NssPH>
0

>  <NsssP>
0

>  <NdsssP>
0

>  <NsssssP>
0

>  <NsSH>
0

>  <NdS>
0

>  <NssS>
0

>  <NaaS>
0

>  <NdssS>
0

>  <NddssS>
0

>  <NsCl>
0

>  <NsBr>
0

>  <NsI>
0

>  <fragCpx>
99.04

>  <fMF>
0.55

>  <nHBAcc>
4

>  <nHBDon>
2

>  <Kier1>
13.96

>  <Kier2>
5.78

>  <Lipinski>
1

>  <GhoseFilter>
1

>  <FilterItLogS>
-3.77

>  <VMcGowan>
178.71

>  <LabuteASA>
107.72

>  <PEOE_VSA1>
14.63

>  <PEOE_VSA2>
4.79

>  <PEOE_VSA3>
0

>  <PEOE_VSA4>
0

>  <PEOE_VSA5>
0

>  <PEOE_VSA6>
12.13

>  <PEOE_VSA7>
29.83

>  <PEOE_VSA8>
6.07

>  <PEOE_VSA9>
10.95

>  <PEOE_VSA10>
23.35

>  <PEOE_VSA11>
5.43

>  <PEOE_VSA12>
0

>  <PEOE_VSA13>
0

>  <SMR_VSA1>
14.63

>  <SMR_VSA2>
0

>  <SMR_VSA3>
0

>  <SMR_VSA4>
0

>  <SMR_VSA5>
0

>  <SMR_VSA6>
0

>  <SMR_VSA7>
58.95

>  <SMR_VSA8>
0

>  <SMR_VSA9>
22.63

>  <SlogP_VSA1>
5.43

>  <SlogP_VSA2>
10.21

>  <SlogP_VSA3>
0

>  <SlogP_VSA4>
0

>  <SlogP_VSA5>
0

>  <SlogP_VSA6>
57.94

>  <SlogP_VSA7>
0

>  <SlogP_VSA8>
22.1

>  <SlogP_VSA9>
0

>  <SlogP_VSA10>
0

>  <SlogP_VSA11>
11.5

>  <EState_VSA1>
0

>  <EState_VSA2>
16.93

>  <EState_VSA3>
22.1

>  <EState_VSA4>
0

>  <EState_VSA5>
36.6

>  <EState_VSA6>
12.13

>  <EState_VSA7>
0

>  <EState_VSA8>
0

>  <EState_VSA9>
4.42

>  <EState_VSA10>
15.01

>  <VSA_EState1>
5.37

>  <VSA_EState2>
12.32

>  <VSA_EState3>
19

>  <VSA_EState4>
1.25

>  <VSA_EState5>
0.19

>  <VSA_EState6>
10.69

>  <VSA_EState7>
1.36

>  <VSA_EState8>
0

>  <VSA_EState9>
0

>  <apol>
34.93

>  <bpol>
12.64

>  <nRing>
3

>  <nHRing>
1

>  <naRing>
3

>  <naHRing>
1

>  <nARing 2>
0

>  <nAHRing 2>
0

>  <nFRing>
1

>  <nFHRing>
1

>  <nFaRing>
1

>  <nFaHRing>
1

>  <nFARing 2>
0

>  <nFAHRing 2>
0

>  <nRot>
1

>  <SLogP>
2.87

>  <SMR>
71.25

>  <TopoPSA(NO)>
70.67

>  <TopoPSA>
70.67

>  <JGI1>
0.19

>  <JGI2>
0.09

>  <JGI3>
0.05

>  <JGI4>
0.05

>  <JGI5>
0.03

>  <Diameter>
11

>  <Radius>
6

>  <TMWC10>
113.37

>  <TSRW10>
52.73

>  <MW>
254.06

>  <AMW>
8.76

>  <WPath>
694

>  <WPol>
31

>  <Zagreb1>
102

>  <Zagreb2>
121

>  <mZagreb2>
4.11

>  <yes>


>  <nAR-cont>
0.336376

>  <nHA-cont>
0.998649058

>  <MWHBN>
0.376429026

>  <MWHBN-cont>
0.568797388

>  <TPSA-cont>
0.506679517

>  <pka_cont>
0.97

>  <yes.1>


>  <BBB_SCORE>
3.686580172

>  <MMFF94 Energy>
43.418

$$$$
Compound 307
Actelion Java MolfileCreator 2.0

  0  0  0  0  0  0              0 V3000
M  V30 BEGIN CTAB
M  V30 COUNTS 18 18 0 0 0
M  V30 BEGIN ATOM
M  V30 1 S 0.6477 1.6199 -1.4578 0
M  V30 2 C -0.3368 1.2526 -0.0894 0
M  V30 3 C 0.0974 3.2329 -1.5331 0
M  V30 4 C -1.0648 2.3756 0.2785 0
M  V30 5 C -0.3737 -0.0266 0.5471 0
M  V30 6 C -0.8178 3.5103 -0.5467 0
M  V30 7 C 0.3431 -1.0902 0.1553 0
M  V30 8 C 0.2221 -2.3764 0.8977 0
M  V30 9 O -0.5469 -2.5018 1.848 0
M  V30 10 C 1.0628 -3.5272 0.412 0
M  V30 11 H 0.4709 3.9011 -2.2969 0
M  V30 12 H -1.7543 2.3819 1.1152 0
M  V30 13 H -1.0362 -0.1233 1.407 0
M  V30 14 H -1.2882 4.4778 -0.4209 0
M  V30 15 H 1.0216 -1.0789 -0.6872 0
M  V30 16 H 0.4487 -4.189 -0.2037 0
M  V30 17 H 1.9163 -3.1744 -0.1731 0
M  V30 18 H 1.4523 -4.0757 1.2744 0
M  V30 END ATOM
M  V30 BEGIN BOND
M  V30 1 1 1 2
M  V30 2 1 1 3
M  V30 3 2 2 4
M  V30 4 1 2 5
M  V30 5 2 3 6
M  V30 6 2 5 7
M  V30 7 1 7 8
M  V30 8 2 8 9
M  V30 9 1 8 10
M  V30 10 1 4 6
M  V30 11 1 3 11
M  V30 12 1 4 12
M  V30 13 1 5 13
M  V30 14 1 6 14
M  V30 15 1 7 15
M  V30 16 1 10 16
M  V30 17 1 10 17
M  V30 18 1 10 18
M  V30 END BOND
M  V30 END CTAB
M  END
>  <Column 1>
389

>  <level_0>
443

>  <index>
443

>  <Unnamed: 0>
443

>  <NO.>
446

>  <Name>
sr-4688

>  <IUPAC_name>
(e)-4-thiophen-2-ylbut-3-en-2-one

>  <SMILES>
CC(=O)/C=C/c1cccs1

>  <CID>
735949

>  <logBB>
-0.14

>  <BBB+/BBB->
BBB+

>  <Inchi>
InChI=1S/C8H8OS/c1-7(9)4-5-8-3-2-6-10-8/h2-6H-1H3/b5-4+

>  <threshold>


>  <reference>
R18|R26|R27|

>  <group>
A

>  <Class>
1

>  <ABC>
7.29

>  <ABCGG>
7.18

>  <nAcid>
0

>  <nBase>
0

>  <nAromAtom>
5

>  <nAromBond>
5

>  <nAtom>
18

>  <nHeavyAtom>
10

>  <nSpiro>
0

>  <nBridgehead>
0

>  <nHetero>
2

>  <nN>
0

>  <nO>
1

>  <nF>
0

>  <BalabanJ>
2.01

>  <BertzCT>
233.77

>  <nBonds>
18

>  <nBondsO>
10

>  <nBondsS>
11

>  <nBondsD>
2

>  <nBondsT>
0

>  <nBondsA>
5

>  <nBondsM>
7

>  <nBondsKS>
14

>  <nBondsKD>
4

>  <RNCG>
0.49

>  <RPCG>
0.25

>  <FCSP3>
0.13

>  <SZ>
13.33

>  <Sm>
12.67

>  <Sv>
12.07

>  <Sse>
17.96

>  <Sp>
13.41

>  <Si>
19.79

>  <MZ>
0.74

>  <Mm>
0.7

>  <Mv>
0.67

>  <Mse>
1

>  <Mp>
0.75

>  <Mi>
1.1

>  <NsCH3>
1

>  <NdCH2>
0

>  <NssCH2>
0

>  <NtCH>
0

>  <NdsCH>
2

>  <NaaCH>
3

>  <NsssCH>
0

>  <NddC>
0

>  <NtsC>
0

>  <NdssC>
1

>  <NaasC>
1

>  <NaaaC>
0

>  <NssssC>
0

>  <NsNH3>
0

>  <NsNH2>
0

>  <NssNH2>
0

>  <NdNH>
0

>  <NssNH>
0

>  <NaaNH>
0

>  <NtN>
0

>  <NsssNH>
0

>  <NdsN>
0

>  <NaaN>
0

>  <NsssN>
0

>  <NddsN>
0

>  <NaasN>
0

>  <NssssN>
0

>  <NsOH>
0

>  <NdO>
1

>  <NssO>
0

>  <NaaO>
0

>  <NsF>
0

>  <NsSiH3>
0

>  <NssSiH2>
0

>  <NsssSiH>
0

>  <NssssSi>
0

>  <NsPH2>
0

>  <NssPH>
0

>  <NsssP>
0

>  <NdsssP>
0

>  <NsssssP>
0

>  <NsSH>
0

>  <NdS>
0

>  <NssS>
0

>  <NaaS>
1

>  <NdssS>
0

>  <NddssS>
0

>  <NsCl>
0

>  <NsBr>
0

>  <NsI>
0

>  <fragCpx>
10.02

>  <fMF>
0.28

>  <nHBAcc>
2

>  <nHBDon>
0

>  <Kier1>
8.1

>  <Kier2>
4

>  <Lipinski>
1

>  <GhoseFilter>
0

>  <FilterItLogS>
-1.62

>  <VMcGowan>
117.74

>  <LabuteASA>
64

>  <PEOE_VSA1>
0

>  <PEOE_VSA2>
4.79

>  <PEOE_VSA3>
0

>  <PEOE_VSA4>
0

>  <PEOE_VSA5>
11.34

>  <PEOE_VSA6>
6.07

>  <PEOE_VSA7>
30.52

>  <PEOE_VSA8>
4.88

>  <PEOE_VSA9>
0

>  <PEOE_VSA10>
0

>  <PEOE_VSA11>
5.78

>  <PEOE_VSA12>
0

>  <PEOE_VSA13>
0

>  <SMR_VSA1>
4.79

>  <SMR_VSA2>
0

>  <SMR_VSA3>
0

>  <SMR_VSA4>
0

>  <SMR_VSA5>
6.92

>  <SMR_VSA6>
0

>  <SMR_VSA7>
28.47

>  <SMR_VSA8>
0

>  <SMR_VSA9>
0

>  <SlogP_VSA1>
0

>  <SlogP_VSA2>
5.78

>  <SlogP_VSA3>
4.79

>  <SlogP_VSA4>
0

>  <SlogP_VSA5>
11.8

>  <SlogP_VSA6>
23.59

>  <SlogP_VSA7>
0

>  <SlogP_VSA8>
6.08

>  <SlogP_VSA9>
0

>  <SlogP_VSA10>
0

>  <SlogP_VSA11>
0

>  <EState_VSA1>
0

>  <EState_VSA2>
5.78

>  <EState_VSA3>
0

>  <EState_VSA4>
4.88

>  <EState_VSA5>
0

>  <EState_VSA6>
24.34

>  <EState_VSA7>
23.59

>  <EState_VSA8>
0

>  <EState_VSA9>
0

>  <EState_VSA10>
4.79

>  <VSA_EState1>
0

>  <VSA_EState2>
11.58

>  <VSA_EState3>
1.99

>  <VSA_EState4>
0

>  <VSA_EState5>
0.09

>  <VSA_EState6>
3.94

>  <VSA_EState7>
3.4

>  <VSA_EState8>
1.55

>  <VSA_EState9>
0

>  <apol>
22.4

>  <bpol>
11.35

>  <nRing>
1

>  <nHRing>
1

>  <naRing>
1

>  <naHRing>
1

>  <nARing 2>
0

>  <nAHRing 2>
0

>  <nFRing>
0

>  <nFHRing>
0

>  <nFaRing>
0

>  <nFaHRing>
0

>  <nFARing 2>
0

>  <nFAHRing 2>
0

>  <nRot>
2

>  <SLogP>
2.35

>  <SMR>
44.03

>  <TopoPSA(NO)>
17.07

>  <TopoPSA>
45.31

>  <JGI1>
0.2

>  <JGI2>
0.06

>  <JGI3>
0.03

>  <JGI4>
0.05

>  <JGI5>
0.02

>  <Diameter>
6

>  <Radius>
3

>  <TMWC10>
81.69

>  <TSRW10>
51.3

>  <MW>
152.03

>  <AMW>
8.45

>  <WPath>
133

>  <WPol>
7

>  <Zagreb1>
44

>  <Zagreb2>
46

>  <mZagreb2>
2.33

>  <yes>


>  <nAR-cont>
0.336376

>  <nHA-cont>
0.645914733

>  <MWHBN>
0.162205415

>  <MWHBN-cont>
0.960260099

>  <TPSA-cont>
0.683708064

>  <pka_cont>
0.97

>  <yes.1>


>  <BBB_SCORE>
4.27509701

>  <MMFF94 Energy>
10.612

$$$$
Compound 308
Actelion Java MolfileCreator 2.0

  0  0  0  0  0  0              0 V3000
M  V30 BEGIN CTAB
M  V30 COUNTS 36 37 0 0 0
M  V30 BEGIN ATOM
M  V30 1 N -0.1565 -2.1929 -0.861 0
M  V30 2 C 0.1942 -0.9464 -0.4623 0
M  V30 3 C -0.1514 -3.1738 0.0635 0
M  V30 4 N 0.1375 0.0978 -1.4012 0
M  V30 5 C 0.6106 -0.6586 0.8711 0
M  V30 6 C 0.1908 -2.9834 1.3874 0
M  V30 7 C -0.9805 1.0395 -1.2148 0
M  V30 8 C 0.3703 -0.2714 -2.8057 0
M  V30 9 N 1.0369 0.6217 1.2018 0
M  V30 10 C 0.5753 -1.7089 1.7907 0
M  V30 11 C -2.2539 0.5438 -1.9399 0
M  V30 12 C -0.9332 -0.7016 -3.52 0
M  V30 13 C 1.4221 1.1114 2.5101 0
M  V30 14 N -2.0383 0.2725 -3.3761 0
M  V30 15 C 2.3287 2.3298 2.3323 0
M  V30 16 C 0.179 1.4924 3.3098 0
M  V30 17 H -0.4454 -4.1531 -0.3021 0
M  V30 18 H 0.1718 -3.8087 2.0896 0
M  V30 19 H -0.6846 2.0089 -1.6357 0
M  V30 20 H -1.2116 1.218 -0.1582 0
M  V30 21 H 1.1359 -1.0518 -2.8972 0
M  V30 22 H 0.7729 0.6106 -3.3203 0
M  V30 23 H 1.1224 1.235 0.3928 0
M  V30 24 H 0.8627 -1.5577 2.825 0
M  V30 25 H -2.6324 -0.3627 -1.4513 0
M  V30 26 H -3.034 1.3073 -1.8463 0
M  V30 27 H -1.2686 -1.6771 -3.1501 0
M  V30 28 H -0.7234 -0.8275 -4.5879 0
M  V30 29 H 1.998 0.3551 3.0551 0
M  V30 30 H -2.8854 -0.1429 -3.761 0
M  V30 31 H 1.816 3.136 1.7953 0
M  V30 32 H 3.2231 2.0664 1.7569 0
M  V30 33 H 2.6533 2.7196 3.3028 0
M  V30 34 H 0.4546 1.8907 4.2919 0
M  V30 35 H -0.4125 2.2532 2.7877 0
M  V30 36 H -0.4708 0.6259 3.4711 0
M  V30 END ATOM
M  V30 BEGIN BOND
M  V30 1 2 1 2
M  V30 2 1 1 3
M  V30 3 1 2 4
M  V30 4 1 2 5
M  V30 5 2 3 6
M  V30 6 1 4 7
M  V30 7 1 4 8
M  V30 8 1 5 9
M  V30 9 2 5 10
M  V30 10 1 7 11
M  V30 11 1 8 12
M  V30 12 1 9 13
M  V30 13 1 11 14
M  V30 14 1 13 15
M  V30 15 1 13 16
M  V30 16 1 6 10
M  V30 17 1 12 14
M  V30 18 1 3 17
M  V30 19 1 6 18
M  V30 20 1 7 19
M  V30 21 1 7 20
M  V30 22 1 8 21
M  V30 23 1 8 22
M  V30 24 1 9 23
M  V30 25 1 10 24
M  V30 26 1 11 25
M  V30 27 1 11 26
M  V30 28 1 12 27
M  V30 29 1 12 28
M  V30 30 1 13 29
M  V30 31 1 14 30
M  V30 32 1 15 31
M  V30 33 1 15 32
M  V30 34 1 15 33
M  V30 35 1 16 34
M  V30 36 1 16 35
M  V30 37 1 16 36
M  V30 END BOND
M  V30 END CTAB
M  END
>  <Column 1>
390

>  <level_0>
444

>  <index>
444

>  <Unnamed: 0>
444

>  <NO.>
447

>  <Name>
u 88703

>  <IUPAC_name>
2-piperazin-1-yl-n-propan-2-ylpyridin-3-amine

>  <SMILES>
CC(C)Nc1cccnc1N1CCNCC1

>  <CID>
10013750

>  <logBB>
-0.14

>  <BBB+/BBB->
BBB+

>  <Inchi>
InChI=1S/C12H20N4/c1-10(2)15-11-4-3-5-14-12(11)16-8-6-13-7-9-16/h3-5-10-13-15H-6-9H2-1-2H3

>  <threshold>


>  <reference>
R18|R26|R27|

>  <group>
A

>  <Class>
1

>  <ABC>
12.16

>  <ABCGG>
10.49

>  <nAcid>
0

>  <nBase>
1

>  <nAromAtom>
6

>  <nAromBond>
6

>  <nAtom>
36

>  <nHeavyAtom>
16

>  <nSpiro>
0

>  <nBridgehead>
0

>  <nHetero>
4

>  <nN>
4

>  <nO>
0

>  <nF>
0

>  <BalabanJ>
1.92

>  <BertzCT>
331.55

>  <nBonds>
37

>  <nBondsO>
17

>  <nBondsS>
31

>  <nBondsD>
0

>  <nBondsT>
0

>  <nBondsA>
6

>  <nBondsM>
6

>  <nBondsKS>
34

>  <nBondsKD>
3

>  <RNCG>
0.26

>  <RPCG>
0.11

>  <FCSP3>
0.58

>  <SZ>
20

>  <Sm>
18.34

>  <Sv>
20.45

>  <Sse>
35.53

>  <Sp>
22.62

>  <Si>
41.32

>  <MZ>
0.56

>  <Mm>
0.51

>  <Mv>
0.57

>  <Mse>
0.99

>  <Mp>
0.63

>  <Mi>
1.15

>  <NsCH3>
2

>  <NdCH2>
0

>  <NssCH2>
4

>  <NtCH>
0

>  <NdsCH>
0

>  <NaaCH>
3

>  <NsssCH>
1

>  <NddC>
0

>  <NtsC>
0

>  <NdssC>
0

>  <NaasC>
2

>  <NaaaC>
0

>  <NssssC>
0

>  <NsNH3>
0

>  <NsNH2>
0

>  <NssNH2>
0

>  <NdNH>
0

>  <NssNH>
2

>  <NaaNH>
0

>  <NtN>
0

>  <NsssNH>
0

>  <NdsN>
0

>  <NaaN>
1

>  <NsssN>
1

>  <NddsN>
0

>  <NaasN>
0

>  <NssssN>
0

>  <NsOH>
0

>  <NdO>
0

>  <NssO>
0

>  <NaaO>
0

>  <NsF>
0

>  <NsSiH3>
0

>  <NssSiH2>
0

>  <NsssSiH>
0

>  <NssssSi>
0

>  <NsPH2>
0

>  <NssPH>
0

>  <NsssP>
0

>  <NdsssP>
0

>  <NsssssP>
0

>  <NsSH>
0

>  <NdS>
0

>  <NssS>
0

>  <NaaS>
0

>  <NdssS>
0

>  <NddssS>
0

>  <NsCl>
0

>  <NsBr>
0

>  <NsI>
0

>  <fragCpx>
49.04

>  <fMF>
0.33

>  <nHBAcc>
4

>  <nHBDon>
2

>  <Kier1>
12.46

>  <Kier2>
6.07

>  <Lipinski>
1

>  <GhoseFilter>
1

>  <FilterItLogS>
-2.95

>  <VMcGowan>
185.24

>  <LabuteASA>
97.06

>  <PEOE_VSA1>
15.53

>  <PEOE_VSA2>
0

>  <PEOE_VSA3>
4.98

>  <PEOE_VSA4>
0

>  <PEOE_VSA5>
0

>  <PEOE_VSA6>
0

>  <PEOE_VSA7>
25.98

>  <PEOE_VSA8>
38.42

>  <PEOE_VSA9>
5.69

>  <PEOE_VSA10>
0

>  <PEOE_VSA11>
5.82

>  <PEOE_VSA12>
0

>  <PEOE_VSA13>
0

>  <SMR_VSA1>
0

>  <SMR_VSA2>
0

>  <SMR_VSA3>
10.3

>  <SMR_VSA4>
0

>  <SMR_VSA5>
19.89

>  <SMR_VSA6>
36.4

>  <SMR_VSA7>
18.33

>  <SMR_VSA8>
0

>  <SMR_VSA9>
0

>  <SlogP_VSA1>
15.53

>  <SlogP_VSA2>
37.2

>  <SlogP_VSA3>
0

>  <SlogP_VSA4>
0

>  <SlogP_VSA5>
13.85

>  <SlogP_VSA6>
18.33

>  <SlogP_VSA7>
0

>  <SlogP_VSA8>
0

>  <SlogP_VSA9>
0

>  <SlogP_VSA10>
11.51

>  <SlogP_VSA11>
0

>  <EState_VSA1>
0

>  <EState_VSA2>
0

>  <EState_VSA3>
6.04

>  <EState_VSA4>
37.68

>  <EState_VSA5>
0

>  <EState_VSA6>
0

>  <EState_VSA7>
12.26

>  <EState_VSA8>
40.43

>  <EState_VSA9>
0

>  <EState_VSA10>
0

>  <VSA_EState1>
0

>  <VSA_EState2>
6.83

>  <VSA_EState3>
6.8

>  <VSA_EState4>
1.14

>  <VSA_EState5>
1.08

>  <VSA_EState6>
4.52

>  <VSA_EState7>
1.86

>  <VSA_EState8>
8.44

>  <VSA_EState9>
0

>  <apol>
37.78

>  <bpol>
24.05

>  <nRing>
2

>  <nHRing>
2

>  <naRing>
1

>  <naHRing>
1

>  <nARing 2>
1

>  <nAHRing 2>
1

>  <nFRing>
0

>  <nFHRing>
0

>  <nFaRing>
0

>  <nFaHRing>
0

>  <nFARing 2>
0

>  <nFAHRing 2>
0

>  <nRot>
3

>  <SLogP>
1.31

>  <SMR>
68.08

>  <TopoPSA(NO)>
40.19

>  <TopoPSA>
40.19

>  <JGI1>
0.15

>  <JGI2>
0.06

>  <JGI3>
0.04

>  <JGI4>
0.03

>  <JGI5>
0.02

>  <Diameter>
8

>  <Radius>
4

>  <TMWC10>
102.5

>  <TSRW10>
47.95

>  <MW>
220.17

>  <AMW>
6.12

>  <WPath>
435

>  <WPol>
21

>  <Zagreb1>
78

>  <Zagreb2>
88

>  <mZagreb2>
3.64

>  <yes>


>  <nAR-cont>
0.816016

>  <nHA-cont>
0.954961865

>  <MWHBN>
0.404363716

>  <MWHBN-cont>
0.458904369

>  <TPSA-cont>
0.719448844

>  <pka_cont>
0.97

>  <yes.1>


>  <BBB_SCORE>
4.383232106

>  <MMFF94 Energy>
95.447

$$$$
Compound 309
Actelion Java MolfileCreator 2.0

  0  0  0  0  0  0              0 V3000
M  V30 BEGIN CTAB
M  V30 COUNTS 25 25 0 0 0
M  V30 BEGIN ATOM
M  V30 1 O -2.508 -2.6649 1.4885 0
M  V30 2 C -1.762 -1.8341 0.9819 0
M  V30 3 N -1.2878 -1.9784 -0.283 0
M  V30 4 N -1.408 -0.6986 1.6384 0
M  V30 5 C -0.4787 -1.1017 -0.949 0
M  V30 6 C -0.6362 0.3124 1.1404 0
M  V30 7 O -0.2385 -1.2771 -2.1423 0
M  V30 8 C 0.1606 0.0051 -0.1195 0
M  V30 9 O -0.57 1.383 1.7415 0
M  V30 10 C 0.3339 1.2807 -0.9797 0
M  V30 11 C 1.5399 -0.5738 0.3208 0
M  V30 12 C -0.9737 1.8467 -1.5317 0
M  V30 13 C 2.4788 0.3983 1.027 0
M  V30 14 H -1.6304 -2.772 -0.8066 0
M  V30 15 H -1.8509 -0.538 2.5326 0
M  V30 16 H 0.8088 2.0758 -0.3925 0
M  V30 17 H 1.0032 1.0736 -1.8244 0
M  V30 18 H 2.0677 -0.9691 -0.5577 0
M  V30 19 H 1.3838 -1.4342 0.9861 0
M  V30 20 H -1.668 2.1123 -0.729 0
M  V30 21 H -1.4737 1.1384 -2.1984 0
M  V30 22 H -0.7698 2.755 -2.1085 0
M  V30 23 H 2.0246 0.8199 1.9278 0
M  V30 24 H 3.3907 -0.1258 1.3324 0
M  V30 25 H 2.7808 1.2176 0.3686 0
M  V30 END ATOM
M  V30 BEGIN BOND
M  V30 1 2 1 2
M  V30 2 1 2 3
M  V30 3 1 2 4
M  V30 4 1 3 5
M  V30 5 1 4 6
M  V30 6 2 5 7
M  V30 7 1 5 8
M  V30 8 2 6 9
M  V30 9 1 8 10
M  V30 10 1 8 11
M  V30 11 1 10 12
M  V30 12 1 11 13
M  V30 13 1 6 8
M  V30 14 1 3 14
M  V30 15 1 4 15
M  V30 16 1 10 16
M  V30 17 1 10 17
M  V30 18 1 11 18
M  V30 19 1 11 19
M  V30 20 1 12 20
M  V30 21 1 12 21
M  V30 22 1 12 22
M  V30 23 1 13 23
M  V30 24 1 13 24
M  V30 25 1 13 25
M  V30 END BOND
M  V30 END CTAB
M  END
>  <Column 1>
391

>  <level_0>
445

>  <index>
445

>  <Unnamed: 0>
445

>  <NO.>
448

>  <Name>
barbital

>  <IUPAC_name>
5-5-diethyl-1-3-diazinane-2-4-6-trione

>  <SMILES>
CCC1(CC)C(=O)NC(=O)NC1=O

>  <CID>
2294

>  <logBB>
-0.14

>  <BBB+/BBB->
BBB+

>  <Inchi>
InChI=1S/C8H12N2O3/c1-3-8(4-2)5(11)9-7(13)10-6(8)12/h3-4H2-1-2H3-(H2-9-10-11-12-13)

>  <threshold>


>  <reference>
R2|R2|R8|R21|R27|R27|R27|R43|R46|R47|R40|R18|R25|R26|R41|R3|R38|R42|

>  <group>
A

>  <Class>
1

>  <ABC>
9.4

>  <ABCGG>
9.4

>  <nAcid>
0

>  <nBase>
0

>  <nAromAtom>
0

>  <nAromBond>
0

>  <nAtom>
25

>  <nHeavyAtom>
13

>  <nSpiro>
0

>  <nBridgehead>
0

>  <nHetero>
5

>  <nN>
2

>  <nO>
3

>  <nF>
0

>  <BalabanJ>
2.8

>  <BertzCT>
246.56

>  <nBonds>
25

>  <nBondsO>
13

>  <nBondsS>
22

>  <nBondsD>
3

>  <nBondsT>
0

>  <nBondsA>
0

>  <nBondsM>
3

>  <nBondsKS>
22

>  <nBondsKD>
3

>  <RNCG>
0.18

>  <RPCG>
0.21

>  <FCSP3>
0.63

>  <SZ>
16.33

>  <Sm>
15.34

>  <Sv>
14.91

>  <Sse>
25.65

>  <Sp>
15.55

>  <Si>
28.7

>  <MZ>
0.65

>  <Mm>
0.61

>  <Mv>
0.6

>  <Mse>
1.03

>  <Mp>
0.62

>  <Mi>
1.15

>  <NsCH3>
2

>  <NdCH2>
0

>  <NssCH2>
2

>  <NtCH>
0

>  <NdsCH>
0

>  <NaaCH>
0

>  <NsssCH>
0

>  <NddC>
0

>  <NtsC>
0

>  <NdssC>
3

>  <NaasC>
0

>  <NaaaC>
0

>  <NssssC>
1

>  <NsNH3>
0

>  <NsNH2>
0

>  <NssNH2>
0

>  <NdNH>
0

>  <NssNH>
2

>  <NaaNH>
0

>  <NtN>
0

>  <NsssNH>
0

>  <NdsN>
0

>  <NaaN>
0

>  <NsssN>
0

>  <NddsN>
0

>  <NaasN>
0

>  <NssssN>
0

>  <NsOH>
0

>  <NdO>
3

>  <NssO>
0

>  <NaaO>
0

>  <NsF>
0

>  <NsSiH3>
0

>  <NssSiH2>
0

>  <NsssSiH>
0

>  <NssssSi>
0

>  <NsPH2>
0

>  <NssPH>
0

>  <NsssP>
0

>  <NdsssP>
0

>  <NsssssP>
0

>  <NsSH>
0

>  <NdS>
0

>  <NssS>
0

>  <NaaS>
0

>  <NdssS>
0

>  <NddssS>
0

>  <NsCl>
0

>  <NsBr>
0

>  <NsI>
0

>  <fragCpx>
13.05

>  <fMF>
0.24

>  <nHBAcc>
3

>  <nHBDon>
2

>  <Kier1>
11.08

>  <Kier2>
4.02

>  <Lipinski>
1

>  <GhoseFilter>
1

>  <FilterItLogS>
-2.33

>  <VMcGowan>
137.39

>  <LabuteASA>
75.87

>  <PEOE_VSA1>
0

>  <PEOE_VSA2>
20.22

>  <PEOE_VSA3>
4.79

>  <PEOE_VSA4>
0

>  <PEOE_VSA5>
0

>  <PEOE_VSA6>
13.85

>  <PEOE_VSA7>
12.84

>  <PEOE_VSA8>
0

>  <PEOE_VSA9>
0

>  <PEOE_VSA10>
5.41

>  <PEOE_VSA11>
0

>  <PEOE_VSA12>
11.81

>  <PEOE_VSA13>
0

>  <SMR_VSA1>
14.38

>  <SMR_VSA2>
0

>  <SMR_VSA3>
10.63

>  <SMR_VSA4>
5.41

>  <SMR_VSA5>
26.69

>  <SMR_VSA6>
0

>  <SMR_VSA7>
0

>  <SMR_VSA8>
0

>  <SMR_VSA9>
0

>  <SlogP_VSA1>
10.63

>  <SlogP_VSA2>
17.85

>  <SlogP_VSA3>
9.59

>  <SlogP_VSA4>
5.41

>  <SlogP_VSA5>
26.69

>  <SlogP_VSA6>
0

>  <SlogP_VSA7>
0

>  <SlogP_VSA8>
0

>  <SlogP_VSA9>
0

>  <SlogP_VSA10>
4.79

>  <SlogP_VSA11>
0

>  <EState_VSA1>
23.26

>  <EState_VSA2>
0

>  <EState_VSA3>
12.84

>  <EState_VSA4>
0

>  <EState_VSA5>
0

>  <EState_VSA6>
13.85

>  <EState_VSA7>
0

>  <EState_VSA8>
10.63

>  <EState_VSA9>
0

>  <EState_VSA10>
14.38

>  <VSA_EState1>
0

>  <VSA_EState2>
33.55

>  <VSA_EState3>
4.19

>  <VSA_EState4>
-1.06

>  <VSA_EState5>
-0.99

>  <VSA_EState6>
-0.73

>  <VSA_EState7>
0.79

>  <VSA_EState8>
3.5

>  <VSA_EState9>
0

>  <apol>
25.97

>  <bpol>
15.78

>  <nRing>
1

>  <nHRing>
1

>  <naRing>
0

>  <naHRing>
0

>  <nARing 2>
1

>  <nAHRing 2>
1

>  <nFRing>
0

>  <nFHRing>
0

>  <nFaRing>
0

>  <nFaHRing>
0

>  <nFARing 2>
0

>  <nFAHRing 2>
0

>  <nRot>
2

>  <SLogP>
0.16

>  <SMR>
44.7

>  <TopoPSA(NO)>
75.27

>  <TopoPSA>
75.27

>  <JGI1>
0.35

>  <JGI2>
0.14

>  <JGI3>
0.08

>  <JGI4>
0.05

>  <JGI5>
0.06

>  <Diameter>
6

>  <Radius>
3

>  <TMWC10>
95.57

>  <TSRW10>
44.78

>  <MW>
184.08

>  <AMW>
7.36

>  <WPath>
220

>  <WPol>
23

>  <Zagreb1>
64

>  <Zagreb2>
77

>  <mZagreb2>
3.08

>  <yes>


>  <nAR-cont>
0.816016

>  <nHA-cont>
0.841215992

>  <MWHBN>
0.368524785

>  <MWHBN-cont>
0.599590103

>  <TPSA-cont>
0.47456866

>  <pka_cont>
0.97

>  <yes.1>


>  <BBB_SCORE>
3.990754467

>  <MMFF94 Energy>
-128.16

$$$$
Compound 310
Actelion Java MolfileCreator 2.0

  0  0  0  0  0  0              0 V3000
M  V30 BEGIN CTAB
M  V30 COUNTS 39 41 0 0 0
M  V30 BEGIN ATOM
M  V30 1 F -3.0604 -2.8185 4.7547 0
M  V30 2 C -2.3524 -2.5846 3.6428 0
M  V30 3 C -2.5319 -1.3906 2.9556 0
M  V30 4 C -1.4497 -3.5409 3.1956 0
M  V30 5 C -1.7882 -1.1283 1.7949 0
M  V30 6 C -0.7138 -3.3058 2.0343 0
M  V30 7 C -2.0907 0.1534 1.1009 0
M  V30 8 C -0.8861 -2.1017 1.3283 0
M  V30 9 O -3.2653 0.5156 1.059 0
M  V30 10 N -1.061 0.8967 0.5367 0
M  V30 11 N -0.1298 -1.8979 0.1535 0
M  V30 12 C 0.3372 0.5003 0.5832 0
M  V30 13 C -1.4072 2.1207 -0.1971 0
M  V30 14 C 0.486 -0.7247 -0.2283 0
M  V30 15 C 0.1658 -2.8355 -0.8002 0
M  V30 16 C -1.6551 1.8689 -1.6788 0
M  V30 17 C 1.1643 -1.0215 -1.4073 0
M  V30 18 N 0.9434 -2.3521 -1.7377 0
M  V30 19 F -0.4629 1.6445 -2.2977 0
M  V30 20 C 2.0031 -0.1521 -2.2459 0
M  V30 21 O 2.4303 -0.4784 -3.3485 0
M  V30 22 O 2.2892 1.046 -1.6527 0
M  V30 23 C 3.0529 1.9375 -2.4713 0
M  V30 24 C 3.203 3.2476 -1.7226 0
M  V30 25 H -3.2585 -0.6717 3.3271 0
M  V30 26 H -1.3275 -4.4644 3.7547 0
M  V30 27 H -0.0043 -4.0637 1.707 0
M  V30 28 H 0.6082 0.3028 1.6276 0
M  V30 29 H 0.9653 1.3278 0.2521 0
M  V30 30 H -0.6026 2.8509 -0.0586 0
M  V30 31 H -2.3152 2.5498 0.241 0
M  V30 32 H -0.214 -3.8484 -0.7691 0
M  V30 33 H -2.2986 1.0015 -1.8512 0
M  V30 34 H -2.1037 2.7486 -2.1487 0
M  V30 35 H 2.5329 2.1139 -3.4197 0
M  V30 36 H 4.041 1.5053 -2.6641 0
M  V30 37 H 3.782 3.9677 -2.3074 0
M  V30 38 H 2.2209 3.6789 -1.5012 0
M  V30 39 H 3.7036 3.0875 -0.7619 0
M  V30 END ATOM
M  V30 BEGIN BOND
M  V30 1 1 1 2
M  V30 2 2 2 3
M  V30 3 1 2 4
M  V30 4 1 3 5
M  V30 5 2 4 6
M  V30 6 1 5 7
M  V30 7 2 5 8
M  V30 8 2 7 9
M  V30 9 1 7 10
M  V30 10 1 8 11
M  V30 11 1 10 12
M  V30 12 1 10 13
M  V30 13 1 11 14
M  V30 14 1 11 15
M  V30 15 1 13 16
M  V30 16 2 14 17
M  V30 17 2 15 18
M  V30 18 1 16 19
M  V30 19 1 17 20
M  V30 20 2 20 21
M  V30 21 1 20 22
M  V30 22 1 22 23
M  V30 23 1 23 24
M  V30 24 1 6 8
M  V30 25 1 12 14
M  V30 26 1 17 18
M  V30 27 1 3 25
M  V30 28 1 4 26
M  V30 29 1 6 27
M  V30 30 1 12 28
M  V30 31 1 12 29
M  V30 32 1 13 30
M  V30 33 1 13 31
M  V30 34 1 15 32
M  V30 35 1 16 33
M  V30 36 1 16 34
M  V30 37 1 23 35
M  V30 38 1 23 36
M  V30 39 1 24 37
M  V30 40 1 24 38
M  V30 41 1 24 39
M  V30 END BOND
M  V30 END CTAB
M  END
>  <Column 1>
392

>  <level_0>
446

>  <index>
446

>  <Unnamed: 0>
446

>  <NO.>
449

>  <Name>
fluoroethylflumazenil f-18

>  <IUPAC_name>
ethyl 5-(2-(18f)fluoranylethyl)-8-fluoro-6-oxo-4h-imidazo[1-5-a][1-4]benzodiazepine-3-carboxylate

>  <SMILES>
CCOC(=O)c1ncn2c1CN(CCF)C(=O)c1cc(F)ccc1-2

>  <CID>
6426759

>  <logBB>
-0.14

>  <BBB+/BBB->
BBB+

>  <Inchi>
InChI=1S/C16H15F2N3O3/c1-2-24-16(23)14-13-8-20(6-5-17)15(22)11-7-10(18)3-4-12(11)21(13)9-19-14/h3-4-7-9H-2-5-6-8H2-1H3

>  <threshold>


>  <reference>
R8|R21|R2|R2|R3|R25|R27|R27|R38|R40|R41|R43|R46|R47|

>  <group>
A

>  <Class>
1

>  <ABC>
18.43

>  <ABCGG>
15.75

>  <nAcid>
0

>  <nBase>
0

>  <nAromAtom>
11

>  <nAromBond>
11

>  <nAtom>
39

>  <nHeavyAtom>
24

>  <nSpiro>
0

>  <nBridgehead>
0

>  <nHetero>
8

>  <nN>
3

>  <nO>
3

>  <nF>
2

>  <BalabanJ>
1.84

>  <BertzCT>
803.86

>  <nBonds>
41

>  <nBondsO>
26

>  <nBondsS>
28

>  <nBondsD>
2

>  <nBondsT>
0

>  <nBondsA>
11

>  <nBondsM>
13

>  <nBondsKS>
34

>  <nBondsKD>
7

>  <RNCG>
0.19

>  <RPCG>
0.15

>  <FCSP3>
0.31

>  <SZ>
29

>  <Sm>
27.92

>  <Sv>
25.78

>  <Sse>
40.55

>  <Sp>
26.07

>  <Si>
44.71

>  <MZ>
0.74

>  <Mm>
0.72

>  <Mv>
0.66

>  <Mse>
1.04

>  <Mp>
0.67

>  <Mi>
1.15

>  <NsCH3>
1

>  <NdCH2>
0

>  <NssCH2>
4

>  <NtCH>
0

>  <NdsCH>
0

>  <NaaCH>
4

>  <NsssCH>
0

>  <NddC>
0

>  <NtsC>
0

>  <NdssC>
2

>  <NaasC>
5

>  <NaaaC>
0

>  <NssssC>
0

>  <NsNH3>
0

>  <NsNH2>
0

>  <NssNH2>
0

>  <NdNH>
0

>  <NssNH>
0

>  <NaaNH>
0

>  <NtN>
0

>  <NsssNH>
0

>  <NdsN>
0

>  <NaaN>
1

>  <NsssN>
1

>  <NddsN>
0

>  <NaasN>
1

>  <NssssN>
0

>  <NsOH>
0

>  <NdO>
2

>  <NssO>
1

>  <NaaO>
0

>  <NsF>
2

>  <NsSiH3>
0

>  <NssSiH2>
0

>  <NsssSiH>
0

>  <NssssSi>
0

>  <NsPH2>
0

>  <NssPH>
0

>  <NsssP>
0

>  <NdsssP>
0

>  <NsssssP>
0

>  <NsSH>
0

>  <NdS>
0

>  <NssS>
0

>  <NaaS>
0

>  <NdssS>
0

>  <NddssS>
0

>  <NsCl>
0

>  <NsBr>
0

>  <NsI>
0

>  <fragCpx>
124.08

>  <fMF>
0.36

>  <nHBAcc>
5

>  <nHBDon>
0

>  <Kier1>
18.78

>  <Kier2>
8.13

>  <Lipinski>
1

>  <GhoseFilter>
1

>  <FilterItLogS>
-3.92

>  <VMcGowan>
224.69

>  <LabuteASA>
136.2

>  <PEOE_VSA1>
9.64

>  <PEOE_VSA2>
9.36

>  <PEOE_VSA3>
18.56

>  <PEOE_VSA4>
0

>  <PEOE_VSA5>
0

>  <PEOE_VSA6>
0

>  <PEOE_VSA7>
25.12

>  <PEOE_VSA8>
6.54

>  <PEOE_VSA9>
30.1

>  <PEOE_VSA10>
18.82

>  <PEOE_VSA11>
5.69

>  <PEOE_VSA12>
0

>  <PEOE_VSA13>
5.91

>  <SMR_VSA1>
23.11

>  <SMR_VSA2>
0

>  <SMR_VSA3>
14.45

>  <SMR_VSA4>
0

>  <SMR_VSA5>
13.47

>  <SMR_VSA6>
19.83

>  <SMR_VSA7>
47.29

>  <SMR_VSA8>
0

>  <SMR_VSA9>
5.69

>  <SlogP_VSA1>
0

>  <SlogP_VSA2>
46.15

>  <SlogP_VSA3>
11.28

>  <SlogP_VSA4>
5.82

>  <SlogP_VSA5>
33.46

>  <SlogP_VSA6>
24.53

>  <SlogP_VSA7>
0

>  <SlogP_VSA8>
5.69

>  <SlogP_VSA9>
0

>  <SlogP_VSA10>
8.78

>  <SlogP_VSA11>
0

>  <EState_VSA1>
24.37

>  <EState_VSA2>
30.95

>  <EState_VSA3>
11.38

>  <EState_VSA4>
6.07

>  <EState_VSA5>
27.93

>  <EState_VSA6>
6.92

>  <EState_VSA7>
0

>  <EState_VSA8>
4.98

>  <EState_VSA9>
4.74

>  <EState_VSA10>
18.37

>  <VSA_EState1>
32.93

>  <VSA_EState2>
29.95

>  <VSA_EState3>
0

>  <VSA_EState4>
0.95

>  <VSA_EState5>
-1.69

>  <VSA_EState6>
3.74

>  <VSA_EState7>
1.38

>  <VSA_EState8>
0.92

>  <VSA_EState9>
0

>  <apol>
43.54

>  <bpol>
25.31

>  <nRing>
3

>  <nHRing>
2

>  <naRing>
2

>  <naHRing>
1

>  <nARing 2>
1

>  <nAHRing 2>
1

>  <nFRing>
1

>  <nFHRing>
1

>  <nFaRing>
0

>  <nFaHRing>
0

>  <nFARing 2>
1

>  <nFAHRing 2>
1

>  <nRot>
4

>  <SLogP>
2.11

>  <SMR>
80.19

>  <TopoPSA(NO)>
64.43

>  <TopoPSA>
64.43

>  <JGI1>
0.17

>  <JGI2>
0.09

>  <JGI3>
0.05

>  <JGI4>
0.04

>  <JGI5>
0.03

>  <Diameter>
11

>  <Radius>
6

>  <TMWC10>
126.18

>  <TSRW10>
73.02

>  <MW>
335.11

>  <AMW>
8.59

>  <WPath>
1211

>  <WPol>
44

>  <Zagreb1>
126

>  <Zagreb2>
152

>  <mZagreb2>
5.44

>  <yes>


>  <nAR-cont>
0.816016

>  <nHA-cont>
0.94700071

>  <MWHBN>
0.273134343

>  <MWHBN-cont>
0.912862381

>  <TPSA-cont>
0.550238591

>  <pka_cont>
0.97

>  <yes.1>


>  <BBB_SCORE>
4.717787464

>  <MMFF94 Energy>
44.571

$$$$
Compound 311
Actelion Java MolfileCreator 2.0

  0  0  0  0  0  0              0 V3000
M  V30 BEGIN CTAB
M  V30 COUNTS 8 7 0 0 0
M  V30 BEGIN ATOM
M  V30 1 Cl -1.6898 1.3516 0.0 0
M  V30 2 C -0.1166 0.6143 -0.3928 0
M  V30 3 C 0.1253 -0.6046 0.4771 0
M  V30 4 Cl 1.6985 -1.3419 0.0842 0
M  V30 5 H 0.6526 1.3766 -0.2351 0
M  V30 6 H -0.133 0.3501 -1.4547 0
M  V30 7 H -0.644 -1.3668 0.3194 0
M  V30 8 H 0.1417 -0.3403 1.5391 0
M  V30 END ATOM
M  V30 BEGIN BOND
M  V30 1 1 1 2
M  V30 2 1 2 3
M  V30 3 1 3 4
M  V30 4 1 2 5
M  V30 5 1 2 6
M  V30 6 1 3 7
M  V30 7 1 3 8
M  V30 END BOND
M  V30 END CTAB
M  END
>  <Column 1>
393

>  <level_0>
447

>  <index>
447

>  <Unnamed: 0>
447

>  <NO.>
450

>  <Name>
1-2-dichloroethane

>  <IUPAC_name>
1-2-dichloroethane

>  <SMILES>
ClCCCl

>  <CID>
11

>  <logBB>
-0.14

>  <BBB+/BBB->
BBB+

>  <Inchi>
InChI=1S/C2H4Cl2/c3-1-2-4/h1-2H2

>  <threshold>


>  <reference>
R2|R2|R3|R8|R21|R25|R27|R27|R38|R40|R41|R43|R46|R47|

>  <group>
A

>  <Class>
1

>  <ABC>
2.12

>  <ABCGG>
2.34

>  <nAcid>
0

>  <nBase>
0

>  <nAromAtom>
0

>  <nAromBond>
0

>  <nAtom>
8

>  <nHeavyAtom>
4

>  <nSpiro>
0

>  <nBridgehead>
0

>  <nHetero>
2

>  <nN>
0

>  <nO>
0

>  <nF>
0

>  <BalabanJ>
1.97

>  <BertzCT>
6

>  <nBonds>
7

>  <nBondsO>
3

>  <nBondsS>
7

>  <nBondsD>
0

>  <nBondsT>
0

>  <nBondsA>
0

>  <nBondsM>
0

>  <nBondsKS>
7

>  <nBondsKD>
0

>  <RNCG>
0.5

>  <RPCG>
0.18

>  <FCSP3>
1

>  <SZ>
8.33

>  <Sm>
8.24

>  <Sv>
5.27

>  <Sse>
8.31

>  <Sp>
6.21

>  <Si>
9.13

>  <MZ>
1.04

>  <Mm>
1.03

>  <Mv>
0.66

>  <Mse>
1.04

>  <Mp>
0.78

>  <Mi>
1.14

>  <NsCH3>
0

>  <NdCH2>
0

>  <NssCH2>
2

>  <NtCH>
0

>  <NdsCH>
0

>  <NaaCH>
0

>  <NsssCH>
0

>  <NddC>
0

>  <NtsC>
0

>  <NdssC>
0

>  <NaasC>
0

>  <NaaaC>
0

>  <NssssC>
0

>  <NsNH3>
0

>  <NsNH2>
0

>  <NssNH2>
0

>  <NdNH>
0

>  <NssNH>
0

>  <NaaNH>
0

>  <NtN>
0

>  <NsssNH>
0

>  <NdsN>
0

>  <NaaN>
0

>  <NsssN>
0

>  <NddsN>
0

>  <NaasN>
0

>  <NssssN>
0

>  <NsOH>
0

>  <NdO>
0

>  <NssO>
0

>  <NaaO>
0

>  <NsF>
0

>  <NsSiH3>
0

>  <NssSiH2>
0

>  <NsssSiH>
0

>  <NssssSi>
0

>  <NsPH2>
0

>  <NssPH>
0

>  <NsssP>
0

>  <NdsssP>
0

>  <NsssssP>
0

>  <NsSH>
0

>  <NdS>
0

>  <NssS>
0

>  <NaaS>
0

>  <NdssS>
0

>  <NddssS>
0

>  <NsCl>
2

>  <NsBr>
0

>  <NsI>
0

>  <fragCpx>
3.02

>  <fMF>
0

>  <nHBAcc>
0

>  <nHBDon>
0

>  <Kier1>
4

>  <Kier2>
3

>  <Lipinski>
1

>  <GhoseFilter>
0

>  <FilterItLogS>
-1.84

>  <VMcGowan>
63.52

>  <LabuteASA>
35.71

>  <PEOE_VSA1>
0

>  <PEOE_VSA2>
0

>  <PEOE_VSA3>
0

>  <PEOE_VSA4>
0

>  <PEOE_VSA5>
23.2

>  <PEOE_VSA6>
0

>  <PEOE_VSA7>
0

>  <PEOE_VSA8>
11.76

>  <PEOE_VSA9>
0

>  <PEOE_VSA10>
0

>  <PEOE_VSA11>
0

>  <PEOE_VSA12>
0

>  <PEOE_VSA13>
0

>  <SMR_VSA1>
0

>  <SMR_VSA2>
0

>  <SMR_VSA3>
0

>  <SMR_VSA4>
0

>  <SMR_VSA5>
0

>  <SMR_VSA6>
11.76

>  <SMR_VSA7>
0

>  <SMR_VSA8>
0

>  <SMR_VSA9>
0

>  <SlogP_VSA1>
0

>  <SlogP_VSA2>
11.76

>  <SlogP_VSA3>
0

>  <SlogP_VSA4>
0

>  <SlogP_VSA5>
0

>  <SlogP_VSA6>
0

>  <SlogP_VSA7>
0

>  <SlogP_VSA8>
0

>  <SlogP_VSA9>
0

>  <SlogP_VSA10>
0

>  <SlogP_VSA11>
0

>  <EState_VSA1>
0

>  <EState_VSA2>
0

>  <EState_VSA3>
11.76

>  <EState_VSA4>
0

>  <EState_VSA5>
0

>  <EState_VSA6>
0

>  <EState_VSA7>
0

>  <EState_VSA8>
0

>  <EState_VSA9>
23.2

>  <EState_VSA10>
0

>  <VSA_EState1>
0

>  <VSA_EState2>
0

>  <VSA_EState3>
0

>  <VSA_EState4>
0

>  <VSA_EState5>
1.11

>  <VSA_EState6>
0

>  <VSA_EState7>
0

>  <VSA_EState8>
0

>  <VSA_EState9>
0

>  <apol>
10.37

>  <bpol>
5.03

>  <nRing>
0

>  <nHRing>
0

>  <naRing>
0

>  <naHRing>
0

>  <nARing 2>
0

>  <nAHRing 2>
0

>  <nFRing>
0

>  <nFHRing>
0

>  <nFaRing>
0

>  <nFaHRing>
0

>  <nFARing 2>
0

>  <nFAHRing 2>
0

>  <nRot>
1

>  <SLogP>
1.46

>  <SMR>
21.44

>  <TopoPSA(NO)>
0

>  <TopoPSA>
0

>  <JGI1>
0.17

>  <JGI2>
0.11

>  <JGI3>
0

>  <JGI4>
0

>  <JGI5>
0

>  <Diameter>
3

>  <Radius>
2

>  <TMWC10>
45.23

>  <TSRW10>
22.33

>  <MW>
97.97

>  <AMW>
12.25

>  <WPath>
10

>  <WPol>
1

>  <Zagreb1>
10

>  <Zagreb2>
8

>  <mZagreb2>
1.25

>  <yes>


>  <nAR-cont>
0.336376

>  <nHA-cont>
0

>  <MWHBN>
0

>  <MWHBN-cont>
0

>  <TPSA-cont>
0

>  <pka_cont>
0.97

>  <yes.1>


>  <BBB_SCORE>
0.821376

>  <MMFF94 Energy>
5.0141

$$$$
Compound 312
Actelion Java MolfileCreator 2.0

  0  0  0  0  0  0              0 V3000
M  V30 BEGIN CTAB
M  V30 COUNTS 28 30 0 0 0
M  V30 BEGIN ATOM
M  V30 1 Cl 0.0 -2.7616 5.1931 0
M  V30 2 C 0.0262 -1.8292 3.7479 0
M  V30 3 C -0.6216 -2.3021 2.6082 0
M  V30 4 C 0.6919 -0.6094 3.7245 0
M  V30 5 C -0.5944 -1.5556 1.4222 0
M  V30 6 C 0.7014 0.1461 2.5507 0
M  V30 7 N -1.2699 -2.1097 0.3189 0
M  V30 8 C 0.067 -0.3081 1.3858 0
M  V30 9 C -0.9147 -1.9996 -0.9962 0
M  V30 10 N 0.0662 0.5909 0.306 0
M  V30 11 O -1.5845 -2.5483 -1.8693 0
M  V30 12 C 0.3364 -1.2377 -1.3115 0
M  V30 13 C 0.1772 0.2077 -0.9279 0
M  V30 14 C 0.1442 1.2516 -1.9458 0
M  V30 15 S -0.5039 0.9317 -3.504 0
M  V30 16 C 0.538 2.5773 -1.8372 0
M  V30 17 C -0.2482 2.5346 -4.0285 0
M  V30 18 C 1.1318 3.1555 -0.6637 0
M  V30 19 C 0.3138 3.3123 -3.0431 0
M  V30 20 N 1.6407 3.6534 0.2533 0
M  V30 21 H -1.1341 -3.2599 2.6452 0
M  V30 22 H 1.1913 -0.2309 4.6125 0
M  V30 23 H 1.1961 1.1166 2.5429 0
M  V30 24 H -2.0713 -2.707 0.4873 0
M  V30 25 H 0.5782 -1.3626 -2.37 0
M  V30 26 H 1.1775 -1.6723 -0.7584 0
M  V30 27 H -0.5243 2.8316 -5.0318 0
M  V30 28 H 0.5531 4.3611 -3.1802 0
M  V30 END ATOM
M  V30 BEGIN BOND
M  V30 1 1 1 2
M  V30 2 2 2 3
M  V30 3 1 2 4
M  V30 4 1 3 5
M  V30 5 2 4 6
M  V30 6 1 5 7
M  V30 7 2 5 8
M  V30 8 1 7 9
M  V30 9 1 8 10
M  V30 10 2 9 11
M  V30 11 1 9 12
M  V30 12 2 10 13
M  V30 13 1 13 14
M  V30 14 1 14 15
M  V30 15 2 14 16
M  V30 16 1 15 17
M  V30 17 1 16 18
M  V30 18 1 16 19
M  V30 19 3 18 20
M  V30 20 1 6 8
M  V30 21 1 12 13
M  V30 22 2 17 19
M  V30 23 1 3 21
M  V30 24 1 4 22
M  V30 25 1 6 23
M  V30 26 1 7 24
M  V30 27 1 12 25
M  V30 28 1 12 26
M  V30 29 1 17 27
M  V30 30 1 19 28
M  V30 END BOND
M  V30 END CTAB
M  END
>  <Column 1>
394

>  <level_0>
448

>  <index>
448

>  <Unnamed: 0>
448

>  <NO.>
451

>  <Name>


>  <IUPAC_name>


>  <SMILES>
N#Cc1ccsc1C1=Nc2ccc(Cl)cc2NC(=O)C1

>  <CID>


>  <logBB>
-0.14

>  <BBB+/BBB->
BBB+

>  <Inchi>
InChI=1S/C14H8ClN3OS/c15-9-1-2-10-11(5-9)18-13(19)6-12(17-10)14-8(7-16)3-4-20-14/h1-5H-6H2-(H-18-19)

>  <threshold>


>  <reference>
R47|

>  <group>
A

>  <Class>
1

>  <ABC>
15.65

>  <ABCGG>
13.34

>  <nAcid>
0

>  <nBase>
0

>  <nAromAtom>
11

>  <nAromBond>
11

>  <nAtom>
28

>  <nHeavyAtom>
20

>  <nSpiro>
0

>  <nBridgehead>
0

>  <nHetero>
6

>  <nN>
3

>  <nO>
1

>  <nF>
0

>  <BalabanJ>
1.7

>  <BertzCT>
772.97

>  <nBonds>
30

>  <nBondsO>
22

>  <nBondsS>
16

>  <nBondsD>
2

>  <nBondsT>
1

>  <nBondsA>
11

>  <nBondsM>
14

>  <nBondsKS>
22

>  <nBondsKD>
7

>  <RNCG>
0.23

>  <RPCG>
0.16

>  <FCSP3>
0.07

>  <SZ>
25.67

>  <Sm>
25.12

>  <Sv>
21.43

>  <Sse>
28.71

>  <Sp>
22.69

>  <Si>
30.81

>  <MZ>
0.92

>  <Mm>
0.9

>  <Mv>
0.77

>  <Mse>
1.03

>  <Mp>
0.81

>  <Mi>
1.1

>  <NsCH3>
0

>  <NdCH2>
0

>  <NssCH2>
1

>  <NtCH>
0

>  <NdsCH>
0

>  <NaaCH>
5

>  <NsssCH>
0

>  <NddC>
0

>  <NtsC>
1

>  <NdssC>
2

>  <NaasC>
5

>  <NaaaC>
0

>  <NssssC>
0

>  <NsNH3>
0

>  <NsNH2>
0

>  <NssNH2>
0

>  <NdNH>
0

>  <NssNH>
1

>  <NaaNH>
0

>  <NtN>
1

>  <NsssNH>
0

>  <NdsN>
1

>  <NaaN>
0

>  <NsssN>
0

>  <NddsN>
0

>  <NaasN>
0

>  <NssssN>
0

>  <NsOH>
0

>  <NdO>
1

>  <NssO>
0

>  <NaaO>
0

>  <NsF>
0

>  <NsSiH3>
0

>  <NssSiH2>
0

>  <NsssSiH>
0

>  <NssssSi>
0

>  <NsPH2>
0

>  <NssPH>
0

>  <NsssP>
0

>  <NdsssP>
0

>  <NsssssP>
0

>  <NsSH>
0

>  <NdS>
0

>  <NssS>
0

>  <NaaS>
1

>  <NdssS>
0

>  <NddssS>
0

>  <NsCl>
1

>  <NsBr>
0

>  <NsI>
0

>  <fragCpx>
104.06

>  <fMF>
0.57

>  <nHBAcc>
4

>  <nHBDon>
1

>  <Kier1>
14.92

>  <Kier2>
6.41

>  <Lipinski>
1

>  <GhoseFilter>
1

>  <FilterItLogS>
-4.92

>  <VMcGowan>
201.24

>  <LabuteASA>
123.89

>  <PEOE_VSA1>
5.32

>  <PEOE_VSA2>
4.79

>  <PEOE_VSA3>
4.99

>  <PEOE_VSA4>
5.26

>  <PEOE_VSA5>
11.34

>  <PEOE_VSA6>
11.6

>  <PEOE_VSA7>
29.65

>  <PEOE_VSA8>
5.02

>  <PEOE_VSA9>
33.95

>  <PEOE_VSA10>
6.07

>  <PEOE_VSA11>
0

>  <PEOE_VSA12>
5.91

>  <PEOE_VSA13>
0

>  <SMR_VSA1>
4.79

>  <SMR_VSA2>
5.26

>  <SMR_VSA3>
0

>  <SMR_VSA4>
4.99

>  <SMR_VSA5>
6.42

>  <SMR_VSA6>
5.32

>  <SMR_VSA7>
45.11

>  <SMR_VSA8>
0

>  <SMR_VSA9>
6.07

>  <SlogP_VSA1>
5.32

>  <SlogP_VSA2>
11.62

>  <SlogP_VSA3>
4.79

>  <SlogP_VSA4>
11.33

>  <SlogP_VSA5>
16.86

>  <SlogP_VSA6>
34.64

>  <SlogP_VSA7>
5.02

>  <SlogP_VSA8>
0

>  <SlogP_VSA9>
0

>  <SlogP_VSA10>
11.37

>  <SlogP_VSA11>
0

>  <EState_VSA1>
0

>  <EState_VSA2>
12.33

>  <EState_VSA3>
27.67

>  <EState_VSA4>
4.88

>  <EState_VSA5>
11.34

>  <EState_VSA6>
24.27

>  <EState_VSA7>
5.38

>  <EState_VSA8>
16.38

>  <EState_VSA9>
16.86

>  <EState_VSA10>
4.79

>  <VSA_EState1>
0

>  <VSA_EState2>
17.21

>  <VSA_EState3>
14.23

>  <VSA_EState4>
2.38

>  <VSA_EState5>
-0.16

>  <VSA_EState6>
8.99

>  <VSA_EState7>
0.14

>  <VSA_EState8>
0

>  <VSA_EState9>
0

>  <apol>
37.9

>  <bpol>
14.14

>  <nRing>
3

>  <nHRing>
2

>  <naRing>
2

>  <naHRing>
1

>  <nARing 2>
1

>  <nAHRing 2>
1

>  <nFRing>
1

>  <nFHRing>
1

>  <nFaRing>
0

>  <nFaHRing>
0

>  <nFARing 2>
1

>  <nFAHRing 2>
1

>  <nRot>
1

>  <SLogP>
3.74

>  <SMR>
79.93

>  <TopoPSA(NO)>
65.25

>  <TopoPSA>
93.49

>  <JGI1>
0.2

>  <JGI2>
0.07

>  <JGI3>
0.04

>  <JGI4>
0.04

>  <JGI5>
0.02

>  <Diameter>
10

>  <Radius>
5

>  <TMWC10>
115.58

>  <TSRW10>
67.59

>  <MW>
301.01

>  <AMW>
10.75

>  <WPath>
764

>  <WPol>
33

>  <Zagreb1>
106

>  <Zagreb2>
125

>  <mZagreb2>
4.42

>  <yes>


>  <nAR-cont>
0.816016

>  <nHA-cont>
0.999629945

>  <MWHBN>
0.288190422

>  <MWHBN-cont>
0.874526804

>  <TPSA-cont>
0.347381746

>  <pka_cont>
0.97

>  <yes.1>


>  <BBB_SCORE>
4.307199642

>  <MMFF94 Energy>
20.648

$$$$
Compound 313
Actelion Java MolfileCreator 2.0

  0  0  0  0  0  0              0 V3000
M  V30 BEGIN CTAB
M  V30 COUNTS 52 56 0 0 0
M  V30 BEGIN ATOM
M  V30 1 Cl -2.8372 -0.2429 6.5754 0
M  V30 2 C -1.3717 -1.0055 6.09 0
M  V30 3 C -1.1241 -1.2223 4.7292 0
M  V30 4 C -0.4508 -1.4014 7.056 0
M  V30 5 C 0.0649 -1.8363 4.3035 0
M  V30 6 C 0.7238 -2.0307 6.6585 0
M  V30 7 C 0.4045 -2.0911 2.8835 0
M  V30 8 C 0.9607 -2.2439 5.2975 0
M  V30 9 N -0.4389 -1.6028 1.8985 0
M  V30 10 C 1.5332 -2.7743 2.643 0
M  V30 11 O 2.1535 -2.9191 4.9869 0
M  V30 12 C -0.3604 -1.8119 0.4548 0
M  V30 13 C 2.458 -3.2439 3.6808 0
M  V30 14 C -1.771 -1.7653 -0.1395 0
M  V30 15 C 0.5226 -0.7395 -0.1837 0
M  V30 16 O 3.4638 -3.878 3.3819 0
M  V30 17 C -1.7165 -1.8463 -1.6647 0
M  V30 18 C 0.4916 -0.8529 -1.7079 0
M  V30 19 N -0.861 -0.8254 -2.2833 0
M  V30 20 C -1.4865 0.5079 -2.2562 0
M  V30 21 C -0.7911 1.5167 -3.1493 0
M  V30 22 C -0.284 2.7122 -2.6112 0
M  V30 23 C -0.6701 1.27 -4.5366 0
M  V30 24 C 0.339 3.6087 -3.4625 0
M  V30 25 C -0.0482 2.1921 -5.382 0
M  V30 26 C 0.451 3.3461 -4.8184 0
M  V30 27 C 0.9018 4.9474 -3.1791 0
M  V30 28 O 1.0781 4.3417 -5.5221 0
M  V30 29 C 1.6582 5.1726 -4.4892 0
M  V30 30 H -1.8859 -0.9165 4.0201 0
M  V30 31 H -0.6464 -1.2329 8.1117 0
M  V30 32 H 1.4476 -2.3609 7.399 0
M  V30 33 H -1.0991 -0.8886 2.186 0
M  V30 34 H 1.8591 -3.0071 1.6378 0
M  V30 35 H 0.0555 -2.805 0.2424 0
M  V30 36 H -2.291 -0.85 0.1712 0
M  V30 37 H -2.3652 -2.6011 0.2504 0
M  V30 38 H 0.1988 0.2609 0.13 0
M  V30 39 H 1.5569 -0.8467 0.1649 0
M  V30 40 H -1.3383 -2.8352 -1.9554 0
M  V30 41 H -2.7323 -1.794 -2.0757 0
M  V30 42 H 0.9644 -1.8005 -1.9991 0
M  V30 43 H 1.1269 -0.0759 -2.1479 0
M  V30 44 H -2.5194 0.4385 -2.6238 0
M  V30 45 H -1.5578 0.8979 -1.2338 0
M  V30 46 H -0.3792 2.9354 -1.5531 0
M  V30 47 H -1.0627 0.3443 -4.9539 0
M  V30 48 H 0.0447 2.0053 -6.4455 0
M  V30 49 H 0.0966 5.6791 -3.0571 0
M  V30 50 H 1.5687 4.9743 -2.3137 0
M  V30 51 H 1.6172 6.2211 -4.8023 0
M  V30 52 H 2.7145 4.8914 -4.3886 0
M  V30 END ATOM
M  V30 BEGIN BOND
M  V30 1 1 1 2
M  V30 2 2 2 3
M  V30 3 1 2 4
M  V30 4 1 3 5
M  V30 5 2 4 6
M  V30 6 1 5 7
M  V30 7 2 5 8
M  V30 8 1 7 9
M  V30 9 2 7 10
M  V30 10 1 8 11
M  V30 11 1 9 12
M  V30 12 1 10 13
M  V30 13 1 12 14
M  V30 14 1 12 15
M  V30 15 2 13 16
M  V30 16 1 14 17
M  V30 17 1 15 18
M  V30 18 1 17 19
M  V30 19 1 19 20
M  V30 20 1 20 21
M  V30 21 2 21 22
M  V30 22 1 21 23
M  V30 23 1 22 24
M  V30 24 2 23 25
M  V30 25 2 24 26
M  V30 26 1 24 27
M  V30 27 1 26 28
M  V30 28 1 27 29
M  V30 29 1 6 8
M  V30 30 1 11 13
M  V30 31 1 18 19
M  V30 32 1 25 26
M  V30 33 1 28 29
M  V30 34 1 3 30
M  V30 35 1 4 31
M  V30 36 1 6 32
M  V30 37 1 9 33
M  V30 38 1 10 34
M  V30 39 1 12 35
M  V30 40 1 14 36
M  V30 41 1 14 37
M  V30 42 1 15 38
M  V30 43 1 15 39
M  V30 44 1 17 40
M  V30 45 1 17 41
M  V30 46 1 18 42
M  V30 47 1 18 43
M  V30 48 1 20 44
M  V30 49 1 20 45
M  V30 50 1 22 46
M  V30 51 1 23 47
M  V30 52 1 25 48
M  V30 53 1 27 49
M  V30 54 1 27 50
M  V30 55 1 29 51
M  V30 56 1 29 52
M  V30 END BOND
M  V30 END CTAB
M  END
>  <Column 1>
395

>  <level_0>
449

>  <index>
449

>  <Unnamed: 0>
449

>  <NO.>
452

>  <Name>
mchr antagonist 8

>  <IUPAC_name>
6-chloro-4-[[1-(2-3-dihydro-1-benzofuran-5-ylmethyl)piperidin-4-yl]amino]chromen-2-one

>  <SMILES>
O=c1cc(NC2CCN(Cc3ccc4c(c3)CCO4)CC2)c2cc(Cl)ccc2o1

>  <CID>
11531660

>  <logBB>
-0.14

>  <BBB+/BBB->
BBB+

>  <Inchi>
InChI=1S/C23H23ClN2O3/c24-17-2-4-22-19(12-17)20(13-23(27)29-22)25-18-5-8-26(9-6-18)14-15-1-3-21-16(11-15)7-10-28-21/h1-4-11-13-18-25H-5-10-14H2

>  <threshold>


>  <reference>
R2|R2|R25|R27|R46|

>  <group>
A

>  <Class>
1

>  <ABC>
23.43

>  <ABCGG>
16.5

>  <nAcid>
0

>  <nBase>
1

>  <nAromAtom>
16

>  <nAromBond>
17

>  <nAtom>
52

>  <nHeavyAtom>
29

>  <nSpiro>
0

>  <nBridgehead>
0

>  <nHetero>
6

>  <nN>
2

>  <nO>
3

>  <nF>
0

>  <BalabanJ>
1.08

>  <BertzCT>
1102.96

>  <nBonds>
56

>  <nBondsO>
33

>  <nBondsS>
38

>  <nBondsD>
1

>  <nBondsT>
0

>  <nBondsA>
17

>  <nBondsM>
18

>  <nBondsKS>
48

>  <nBondsKD>
8

>  <RNCG>
0.22

>  <RPCG>
0.15

>  <FCSP3>
0.35

>  <SZ>
36

>  <Sm>
34.21

>  <Sv>
33.98

>  <Sse>
52.29

>  <Sp>
36.25

>  <Si>
58.14

>  <MZ>
0.69

>  <Mm>
0.66

>  <Mv>
0.65

>  <Mse>
1.01

>  <Mp>
0.7

>  <Mi>
1.12

>  <NsCH3>
0

>  <NdCH2>
0

>  <NssCH2>
7

>  <NtCH>
0

>  <NdsCH>
0

>  <NaaCH>
7

>  <NsssCH>
1

>  <NddC>
0

>  <NtsC>
0

>  <NdssC>
0

>  <NaasC>
5

>  <NaaaC>
2

>  <NssssC>
0

>  <NsNH3>
0

>  <NsNH2>
0

>  <NssNH2>
0

>  <NdNH>
0

>  <NssNH>
1

>  <NaaNH>
0

>  <NtN>
0

>  <NsssNH>
0

>  <NdsN>
0

>  <NaaN>
0

>  <NsssN>
1

>  <NddsN>
0

>  <NaasN>
0

>  <NssssN>
0

>  <NsOH>
0

>  <NdO>
1

>  <NssO>
1

>  <NaaO>
1

>  <NsF>
0

>  <NsSiH3>
0

>  <NssSiH2>
0

>  <NsssSiH>
0

>  <NssssSi>
0

>  <NsPH2>
0

>  <NssPH>
0

>  <NsssP>
0

>  <NdsssP>
0

>  <NsssssP>
0

>  <NsSH>
0

>  <NdS>
0

>  <NssS>
0

>  <NaaS>
0

>  <NdssS>
0

>  <NddssS>
0

>  <NsCl>
1

>  <NsBr>
0

>  <NsI>
0

>  <fragCpx>
277.06

>  <fMF>
0.52

>  <nHBAcc>
5

>  <nHBDon>
1

>  <Kier1>
20.88

>  <Kier2>
9.24

>  <Lipinski>
1

>  <GhoseFilter>
1

>  <FilterItLogS>
-6.84

>  <VMcGowan>
296.04

>  <LabuteASA>
173.77

>  <PEOE_VSA1>
14.47

>  <PEOE_VSA2>
4.9

>  <PEOE_VSA3>
4.79

>  <PEOE_VSA4>
0

>  <PEOE_VSA5>
0

>  <PEOE_VSA6>
23.73

>  <PEOE_VSA7>
48.23

>  <PEOE_VSA8>
48.57

>  <PEOE_VSA9>
12.29

>  <PEOE_VSA10>
11.33

>  <PEOE_VSA11>
0

>  <PEOE_VSA12>
0

>  <PEOE_VSA13>
0

>  <SMR_VSA1>
9.15

>  <SMR_VSA2>
0

>  <SMR_VSA3>
4.9

>  <SMR_VSA4>
0

>  <SMR_VSA5>
31.85

>  <SMR_VSA6>
25.01

>  <SMR_VSA7>
69.03

>  <SMR_VSA8>
0

>  <SMR_VSA9>
5.75

>  <SlogP_VSA1>
15.68

>  <SlogP_VSA2>
30.64

>  <SlogP_VSA3>
12.97

>  <SlogP_VSA4>
0

>  <SlogP_VSA5>
23.97

>  <SlogP_VSA6>
51.68

>  <SlogP_VSA7>
5.02

>  <SlogP_VSA8>
10.97

>  <SlogP_VSA9>
0

>  <SlogP_VSA10>
5.69

>  <SlogP_VSA11>
5.75

>  <EState_VSA1>
0

>  <EState_VSA2>
5.63

>  <EState_VSA3>
16.65

>  <EState_VSA4>
62.33

>  <EState_VSA5>
17.19

>  <EState_VSA6>
12.13

>  <EState_VSA7>
6.07

>  <EState_VSA8>
28.42

>  <EState_VSA9>
20.75

>  <EState_VSA10>
4.79

>  <VSA_EState1>
10.89

>  <VSA_EState2>
14.4

>  <VSA_EState3>
5.02

>  <VSA_EState4>
3.69

>  <VSA_EState5>
1.04

>  <VSA_EState6>
13.73

>  <VSA_EState7>
3.06

>  <VSA_EState8>
3.8

>  <VSA_EState9>
0

>  <apol>
60.53

>  <bpol>
30.2

>  <nRing>
5

>  <nHRing>
3

>  <naRing>
3

>  <naHRing>
1

>  <nARing 2>
2

>  <nAHRing 2>
2

>  <nFRing>
2

>  <nFHRing>
2

>  <nFaRing>
1

>  <nFaHRing>
1

>  <nFARing 2>
1

>  <nFAHRing 2>
1

>  <nRot>
4

>  <SLogP>
4.46

>  <SMR>
115.06

>  <TopoPSA(NO)>
54.71

>  <TopoPSA>
54.71

>  <JGI1>
0.2

>  <JGI2>
0.06

>  <JGI3>
0.04

>  <JGI4>
0.05

>  <JGI5>
0.02

>  <Diameter>
15

>  <Radius>
8

>  <TMWC10>
139.23

>  <TSRW10>
78.4

>  <MW>
410.14

>  <AMW>
7.89

>  <WPath>
2547

>  <WPol>
45

>  <Zagreb1>
160

>  <Zagreb2>
189

>  <mZagreb2>
6.17

>  <yes>


>  <nAR-cont>
1

>  <nHA-cont>
0.785905698

>  <MWHBN>
0.296268301

>  <MWHBN-cont>
0.851742918

>  <TPSA-cont>
0.618090227

>  <pka_cont>
0.97

>  <yes.1>


>  <BBB_SCORE>
4.78470053

>  <MMFF94 Energy>
56.144

$$$$
Compound 314
Actelion Java MolfileCreator 2.0

  0  0  0  0  0  0              0 V3000
M  V30 BEGIN CTAB
M  V30 COUNTS 11 10 0 0 0
M  V30 BEGIN ATOM
M  V30 1 O -0.8302 -0.7547 1.2078 0
M  V30 2 C 0.0734 -0.376 0.4764 0
M  V30 3 O -0.0655 0.4708 -0.5802 0
M  V30 4 C 1.5075 -0.7848 0.6203 0
M  V30 5 C -1.4062 0.9143 -0.7939 0
M  V30 6 H 1.8365 -1.3065 -0.2818 0
M  V30 7 H 2.1275 0.0962 0.8039 0
M  V30 8 H 1.6068 -1.4643 1.4716 0
M  V30 9 H -1.4078 1.584 -1.6584 0
M  V30 10 H -2.061 0.0649 -1.0125 0
M  V30 11 H -1.7693 1.471 0.0758 0
M  V30 END ATOM
M  V30 BEGIN BOND
M  V30 1 2 1 2
M  V30 2 1 2 3
M  V30 3 1 2 4
M  V30 4 1 3 5
M  V30 5 1 4 6
M  V30 6 1 4 7
M  V30 7 1 4 8
M  V30 8 1 5 9
M  V30 9 1 5 10
M  V30 10 1 5 11
M  V30 END BOND
M  V30 END CTAB
M  END
>  <Column 1>
396

>  <level_0>
450

>  <index>
450

>  <Unnamed: 0>
450

>  <NO.>
453

>  <Name>
methyl acetate

>  <IUPAC_name>
methyl acetate

>  <SMILES>
COC(C)=O

>  <CID>
6584

>  <logBB>
-0.13

>  <BBB+/BBB->
BBB+

>  <Inchi>
InChI=1S/C3H6O2/c1-3(4)5-2/h1-2H3

>  <threshold>


>  <reference>
R3|R38|R25|R41|R40|R2|R2|R8|R21|R27|R27|R43|R46|R47|

>  <group>
A

>  <Class>
1

>  <ABC>
3.05

>  <ABCGG>
3.31

>  <nAcid>
0

>  <nBase>
0

>  <nAromAtom>
0

>  <nAromBond>
0

>  <nAtom>
11

>  <nHeavyAtom>
5

>  <nSpiro>
0

>  <nBridgehead>
0

>  <nHetero>
2

>  <nN>
0

>  <nO>
2

>  <nF>
0

>  <BalabanJ>
2.54

>  <BertzCT>
40.16

>  <nBonds>
10

>  <nBondsO>
4

>  <nBondsS>
9

>  <nBondsD>
1

>  <nBondsT>
0

>  <nBondsA>
0

>  <nBondsM>
1

>  <nBondsKS>
9

>  <nBondsKD>
1

>  <RNCG>
0.65

>  <RPCG>
0.42

>  <FCSP3>
0.67

>  <SZ>
6.67

>  <Sm>
6.17

>  <Sv>
6.06

>  <Sse>
11.32

>  <Sp>
6.36

>  <Si>
12.66

>  <MZ>
0.61

>  <Mm>
0.56

>  <Mv>
0.55

>  <Mse>
1.03

>  <Mp>
0.58

>  <Mi>
1.15

>  <NsCH3>
2

>  <NdCH2>
0

>  <NssCH2>
0

>  <NtCH>
0

>  <NdsCH>
0

>  <NaaCH>
0

>  <NsssCH>
0

>  <NddC>
0

>  <NtsC>
0

>  <NdssC>
1

>  <NaasC>
0

>  <NaaaC>
0

>  <NssssC>
0

>  <NsNH3>
0

>  <NsNH2>
0

>  <NssNH2>
0

>  <NdNH>
0

>  <NssNH>
0

>  <NaaNH>
0

>  <NtN>
0

>  <NsssNH>
0

>  <NdsN>
0

>  <NaaN>
0

>  <NsssN>
0

>  <NddsN>
0

>  <NaasN>
0

>  <NssssN>
0

>  <NsOH>
0

>  <NdO>
1

>  <NssO>
1

>  <NaaO>
0

>  <NsF>
0

>  <NsSiH3>
0

>  <NssSiH2>
0

>  <NsssSiH>
0

>  <NssssSi>
0

>  <NsPH2>
0

>  <NssPH>
0

>  <NsssP>
0

>  <NdsssP>
0

>  <NsssssP>
0

>  <NsSH>
0

>  <NdS>
0

>  <NssS>
0

>  <NaaS>
0

>  <NdssS>
0

>  <NddssS>
0

>  <NsCl>
0

>  <NsBr>
0

>  <NsI>
0

>  <fragCpx>
4.02

>  <fMF>
0

>  <nHBAcc>
2

>  <nHBDon>
0

>  <Kier1>
5

>  <Kier2>
2.25

>  <Lipinski>
1

>  <GhoseFilter>
0

>  <FilterItLogS>
-0.21

>  <VMcGowan>
60.57

>  <LabuteASA>
30.74

>  <PEOE_VSA1>
4.74

>  <PEOE_VSA2>
4.79

>  <PEOE_VSA3>
0

>  <PEOE_VSA4>
0

>  <PEOE_VSA5>
0

>  <PEOE_VSA6>
0

>  <PEOE_VSA7>
0

>  <PEOE_VSA8>
6.92

>  <PEOE_VSA9>
7.11

>  <PEOE_VSA10>
0

>  <PEOE_VSA11>
0

>  <PEOE_VSA12>
0

>  <PEOE_VSA13>
0

>  <SMR_VSA1>
9.53

>  <SMR_VSA2>
0

>  <SMR_VSA3>
0

>  <SMR_VSA4>
0

>  <SMR_VSA5>
6.92

>  <SMR_VSA6>
7.11

>  <SMR_VSA7>
0

>  <SMR_VSA8>
0

>  <SMR_VSA9>
0

>  <SlogP_VSA1>
0

>  <SlogP_VSA2>
13.08

>  <SlogP_VSA3>
9.53

>  <SlogP_VSA4>
0

>  <SlogP_VSA5>
6.92

>  <SlogP_VSA6>
0

>  <SlogP_VSA7>
0

>  <SlogP_VSA8>
0

>  <SlogP_VSA9>
0

>  <SlogP_VSA10>
0

>  <SlogP_VSA11>
0

>  <EState_VSA1>
0

>  <EState_VSA2>
5.97

>  <EState_VSA3>
0

>  <EState_VSA4>
0

>  <EState_VSA5>
14.03

>  <EState_VSA6>
0

>  <EState_VSA7>
0

>  <EState_VSA8>
4.74

>  <EState_VSA9>
0

>  <EState_VSA10>
4.79

>  <VSA_EState1>
4.11

>  <VSA_EState2>
9.59

>  <VSA_EState3>
0

>  <VSA_EState4>
0

>  <VSA_EState5>
-0.25

>  <VSA_EState6>
0

>  <VSA_EState7>
0

>  <VSA_EState8>
1.36

>  <VSA_EState9>
1.35

>  <apol>
10.61

>  <bpol>
8.62

>  <nRing>
0

>  <nHRing>
0

>  <naRing>
0

>  <naHRing>
0

>  <nARing 2>
0

>  <nAHRing 2>
0

>  <nFRing>
0

>  <nFHRing>
0

>  <nFaRing>
0

>  <nFaHRing>
0

>  <nFARing 2>
0

>  <nFAHRing 2>
0

>  <nRot>
0

>  <SLogP>
0.18

>  <SMR>
17.69

>  <TopoPSA(NO)>
26.3

>  <TopoPSA>
26.3

>  <JGI1>
0.38

>  <JGI2>
0.11

>  <JGI3>
0

>  <JGI4>
0

>  <JGI5>
0

>  <Diameter>
3

>  <Radius>
2

>  <TMWC10>
55.94

>  <TSRW10>
27.25

>  <MW>
74.04

>  <AMW>
6.73

>  <WPath>
18

>  <WPol>
2

>  <Zagreb1>
16

>  <Zagreb2>
14

>  <mZagreb2>
1.33

>  <yes>


>  <nAR-cont>
0.336376

>  <nHA-cont>
0

>  <MWHBN>
0.232432466

>  <MWHBN-cont>
0.984224048

>  <TPSA-cont>
0.816409669

>  <pka_cont>
0.97

>  <yes.1>


>  <BBB_SCORE>
3.930531409

>  <MMFF94 Energy>
-8.8492

$$$$
Compound 315
Actelion Java MolfileCreator 2.0

  0  0  0  0  0  0              0 V3000
M  V30 BEGIN CTAB
M  V30 COUNTS 62 66 0 0 0
M  V30 BEGIN ATOM
M  V30 1 O -3.5839 1.7509 0.2386 0
M  V30 2 C -2.6348 1.6902 1.0162 0
M  V30 3 N -2.7643 1.6285 2.4015 0
M  V30 4 C -1.2804 1.6865 0.4307 0
M  V30 5 C -4.0905 1.7727 2.9933 0
M  V30 6 C -1.6728 1.3838 3.346 0
M  V30 7 C -0.8891 0.5889 -0.3443 0
M  V30 8 C -0.4357 2.7797 0.6241 0
M  V30 9 C -4.4393 0.5645 3.8601 0
M  V30 10 C -1.9779 0.1726 4.2287 0
M  V30 11 C 0.4024 0.5782 -0.9068 0
M  V30 12 C 0.8465 2.788 0.0696 0
M  V30 13 C -3.3552 0.2569 4.9054 0
M  V30 14 C 1.2481 1.6764 -0.6932 0
M  V30 15 C 1.1157 -0.3561 -1.7073 0
M  V30 16 C -3.3634 1.2727 6.0503 0
M  V30 17 N 2.4404 1.4108 -1.3518 0
M  V30 18 C 2.3545 0.1926 -1.9729 0
M  V30 19 C 0.6788 -1.6892 -2.2375 0
M  V30 20 C 3.5965 2.3023 -1.3809 0
M  V30 21 C 3.4094 -0.5035 -2.7654 0
M  V30 22 N 1.8675 -2.4843 -2.613 0
M  V30 23 C 4.4877 2.0996 -0.1891 0
M  V30 24 C 2.79 -1.731 -3.486 0
M  V30 25 C 1.5216 -3.8097 -3.1232 0
M  V30 26 C 4.8711 3.0725 0.6488 0
M  V30 27 C 0.737 -3.8212 -4.4022 0
M  V30 28 C 0.0047 -5.0764 -4.8112 0
M  V30 29 C -0.772 -3.8593 -4.3981 0
M  V30 30 H -4.0837 2.6918 3.5901 0
M  V30 31 H -4.8567 1.9014 2.222 0
M  V30 32 H -0.7254 1.2052 2.8334 0
M  V30 33 H -1.5521 2.2895 3.9506 0
M  V30 34 H -1.5721 -0.2403 -0.5023 0
M  V30 35 H -0.7749 3.6322 1.2075 0
M  V30 36 H -5.4081 0.7232 4.3476 0
M  V30 37 H -4.5523 -0.3123 3.2091 0
M  V30 38 H -1.1883 0.052 4.9795 0
M  V30 39 H -1.9568 -0.7284 3.6013 0
M  V30 40 H 1.5061 3.6348 0.2289 0
M  V30 41 H -3.5777 -0.7234 5.3463 0
M  V30 42 H -4.3416 1.2885 6.5428 0
M  V30 43 H -3.1443 2.2889 5.7101 0
M  V30 44 H -2.6165 1.0055 6.8055 0
M  V30 45 H 0.021 -1.515 -3.0968 0
M  V30 46 H 0.1096 -2.2181 -1.4643 0
M  V30 47 H 3.2228 3.3299 -1.452 0
M  V30 48 H 4.156 2.1027 -2.2999 0
M  V30 49 H 4.2031 -0.8387 -2.0871 0
M  V30 50 H 3.8539 0.164 -3.5106 0
M  V30 51 H 4.8324 1.083 -0.0094 0
M  V30 52 H 3.6153 -2.373 -3.8174 0
M  V30 53 H 2.266 -1.3877 -4.3878 0
M  V30 54 H 2.4448 -4.3821 -3.2791 0
M  V30 55 H 0.9784 -4.356 -2.3408 0
M  V30 56 H 4.5537 4.1023 0.5175 0
M  V30 57 H 5.5148 2.8513 1.4954 0
M  V30 58 H 1.2351 -3.2855 -5.2018 0
M  V30 59 H 0.0088 -5.9266 -4.1383 0
M  V30 60 H 0.0057 -5.3448 -5.8617 0
M  V30 61 H -1.292 -3.8907 -3.4472 0
M  V30 62 H -1.2925 -3.3 -5.1674 0
M  V30 END ATOM
M  V30 BEGIN BOND
M  V30 1 2 1 2
M  V30 2 1 2 3
M  V30 3 1 2 4
M  V30 4 1 3 5
M  V30 5 1 3 6
M  V30 6 2 4 7
M  V30 7 1 4 8
M  V30 8 1 5 9
M  V30 9 1 6 10
M  V30 10 1 7 11
M  V30 11 2 8 12
M  V30 12 1 9 13
M  V30 13 2 11 14
M  V30 14 1 11 15
M  V30 15 1 13 16
M  V30 16 1 14 17
M  V30 17 2 15 18
M  V30 18 1 15 19
M  V30 19 1 17 20
M  V30 20 1 18 21
M  V30 21 1 19 22
M  V30 22 1 20 23
M  V30 23 1 21 24
M  V30 24 1 22 25
M  V30 25 2 23 26
M  V30 26 1 25 27
M  V30 27 1 27 28
M  V30 28 1 27 29
M  V30 29 1 10 13
M  V30 30 1 12 14
M  V30 31 1 17 18
M  V30 32 1 22 24
M  V30 33 1 28 29
M  V30 34 1 5 30
M  V30 35 1 5 31
M  V30 36 1 6 32
M  V30 37 1 6 33
M  V30 38 1 7 34
M  V30 39 1 8 35
M  V30 40 1 9 36
M  V30 41 1 9 37
M  V30 42 1 10 38
M  V30 43 1 10 39
M  V30 44 1 12 40
M  V30 45 1 13 41
M  V30 46 1 16 42
M  V30 47 1 16 43
M  V30 48 1 16 44
M  V30 49 1 19 45
M  V30 50 1 19 46
M  V30 51 1 20 47
M  V30 52 1 20 48
M  V30 53 1 21 49
M  V30 54 1 21 50
M  V30 55 1 23 51
M  V30 56 1 24 52
M  V30 57 1 24 53
M  V30 58 1 25 54
M  V30 59 1 25 55
M  V30 60 1 26 56
M  V30 61 1 26 57
M  V30 62 1 27 58
M  V30 63 1 28 59
M  V30 64 1 28 60
M  V30 65 1 29 61
M  V30 66 1 29 62
M  V30 END BOND
M  V30 END CTAB
M  END
>  <Column 1>
397

>  <level_0>
451

>  <index>
451

>  <Unnamed: 0>
451

>  <NO.>
454

>  <Name>
chembl1950330

>  <IUPAC_name>
[2-(cyclopropylmethyl)-5-prop-2-enyl-3-4-dihydro-1h-pyrido[4-3-b]indol-8-yl]-(4-methylpiperidin-1-yl)methanone

>  <SMILES>
C=CCn1c2c(c3cc(C(=O)N4CCC(C)CC4)ccc31)CN(CC1CC1)CC2

>  <CID>
11502034

>  <logBB>
-0.13

>  <BBB+/BBB->
BBB+

>  <Inchi>
InChI=1S/C25H33N3O/c1-3-11-28-23-7-6-20(25(29)27-13-8-18(2)9-14-27)15-21(23)22-17-26(12-10-24(22)28)16-19-4-5-19/h3-6-7-15-18-19H-1-4-5-8-14-16-17H2-2H3

>  <threshold>


>  <reference>
R2|R2|R25|R27|R46|

>  <group>
A

>  <Class>
1

>  <ABC>
23.27

>  <ABCGG>
17.36

>  <nAcid>
0

>  <nBase>
1

>  <nAromAtom>
9

>  <nAromBond>
10

>  <nAtom>
62

>  <nHeavyAtom>
29

>  <nSpiro>
0

>  <nBridgehead>
0

>  <nHetero>
4

>  <nN>
3

>  <nO>
1

>  <nF>
0

>  <BalabanJ>
1.26

>  <BertzCT>
931.18

>  <nBonds>
66

>  <nBondsO>
33

>  <nBondsS>
54

>  <nBondsD>
2

>  <nBondsT>
0

>  <nBondsA>
10

>  <nBondsM>
12

>  <nBondsKS>
60

>  <nBondsKD>
6

>  <RNCG>
0.18

>  <RPCG>
0.14

>  <FCSP3>
0.56

>  <SZ>
35.33

>  <Sm>
32.6

>  <Sv>
36.93

>  <Sse>
60.97

>  <Sp>
40.63

>  <Si>
69.93

>  <MZ>
0.57

>  <Mm>
0.53

>  <Mv>
0.6

>  <Mse>
0.98

>  <Mp>
0.66

>  <Mi>
1.13

>  <NsCH3>
1

>  <NdCH2>
1

>  <NssCH2>
11

>  <NtCH>
0

>  <NdsCH>
1

>  <NaaCH>
3

>  <NsssCH>
2

>  <NddC>
0

>  <NtsC>
0

>  <NdssC>
1

>  <NaasC>
3

>  <NaaaC>
2

>  <NssssC>
0

>  <NsNH3>
0

>  <NsNH2>
0

>  <NssNH2>
0

>  <NdNH>
0

>  <NssNH>
0

>  <NaaNH>
0

>  <NtN>
0

>  <NsssNH>
0

>  <NdsN>
0

>  <NaaN>
0

>  <NsssN>
2

>  <NddsN>
0

>  <NaasN>
1

>  <NssssN>
0

>  <NsOH>
0

>  <NdO>
1

>  <NssO>
0

>  <NaaO>
0

>  <NsF>
0

>  <NsSiH3>
0

>  <NssSiH2>
0

>  <NsssSiH>
0

>  <NssssSi>
0

>  <NsPH2>
0

>  <NssPH>
0

>  <NsssP>
0

>  <NdsssP>
0

>  <NsssssP>
0

>  <NsSH>
0

>  <NdS>
0

>  <NssS>
0

>  <NaaS>
0

>  <NdssS>
0

>  <NddssS>
0

>  <NsCl>
0

>  <NsBr>
0

>  <NsI>
0

>  <fragCpx>
277.04

>  <fMF>
0.39

>  <nHBAcc>
3

>  <nHBDon>
0

>  <Kier1>
20.88

>  <Kier2>
8.86

>  <Lipinski>
1

>  <GhoseFilter>
1

>  <FilterItLogS>
-4.78

>  <VMcGowan>
318.82

>  <LabuteASA>
173.71

>  <PEOE_VSA1>
9.47

>  <PEOE_VSA2>
9.69

>  <PEOE_VSA3>
0

>  <PEOE_VSA4>
0

>  <PEOE_VSA5>
6.58

>  <PEOE_VSA6>
13

>  <PEOE_VSA7>
61.28

>  <PEOE_VSA8>
67.85

>  <PEOE_VSA9>
0

>  <PEOE_VSA10>
0

>  <PEOE_VSA11>
0

>  <PEOE_VSA12>
0

>  <PEOE_VSA13>
5.91

>  <SMR_VSA1>
4.79

>  <SMR_VSA2>
0

>  <SMR_VSA3>
14.37

>  <SMR_VSA4>
11.84

>  <SMR_VSA5>
52.12

>  <SMR_VSA6>
26.18

>  <SMR_VSA7>
47.67

>  <SMR_VSA8>
0

>  <SMR_VSA9>
0

>  <SlogP_VSA1>
0

>  <SlogP_VSA2>
46.45

>  <SlogP_VSA3>
19.51

>  <SlogP_VSA4>
11.84

>  <SlogP_VSA5>
54.22

>  <SlogP_VSA6>
30.85

>  <SlogP_VSA7>
0

>  <SlogP_VSA8>
10.9

>  <SlogP_VSA9>
0

>  <SlogP_VSA10>
0

>  <SlogP_VSA11>
0

>  <EState_VSA1>
0

>  <EState_VSA2>
5.91

>  <EState_VSA3>
0

>  <EState_VSA4>
69.39

>  <EState_VSA5>
41.55

>  <EState_VSA6>
0

>  <EState_VSA7>
17.04

>  <EState_VSA8>
35.1

>  <EState_VSA9>
0

>  <EState_VSA10>
4.79

>  <VSA_EState1>
2.42

>  <VSA_EState2>
17.83

>  <VSA_EState3>
1.28

>  <VSA_EState4>
5

>  <VSA_EState5>
1.85

>  <VSA_EState6>
6.38

>  <VSA_EState7>
8.12

>  <VSA_EState8>
12.29

>  <VSA_EState9>
0

>  <apol>
67.86

>  <bpol>
39.1

>  <nRing>
5

>  <nHRing>
3

>  <naRing>
2

>  <naHRing>
1

>  <nARing 2>
3

>  <nAHRing 2>
2

>  <nFRing>
1

>  <nFHRing>
1

>  <nFaRing>
0

>  <nFaHRing>
0

>  <nFARing 2>
1

>  <nFAHRing 2>
1

>  <nRot>
5

>  <SLogP>
4.47

>  <SMR>
118.14

>  <TopoPSA(NO)>
28.48

>  <TopoPSA>
28.48

>  <JGI1>
0.17

>  <JGI2>
0.08

>  <JGI3>
0.05

>  <JGI4>
0.03

>  <JGI5>
0.03

>  <Diameter>
14

>  <Radius>
7

>  <TMWC10>
140.5

>  <TSRW10>
84.71

>  <MW>
391.26

>  <AMW>
6.31

>  <WPath>
2248

>  <WPol>
49

>  <Zagreb1>
162

>  <Zagreb2>
197

>  <mZagreb2>
6.28

>  <yes>


>  <nAR-cont>
0.691115

>  <nHA-cont>
0.785905698

>  <MWHBN>
0.151666104

>  <MWHBN-cont>
0.936765993

>  <TPSA-cont>
0.801191915

>  <pka_cont>
0.97

>  <yes.1>


>  <BBB_SCORE>
4.969553518

>  <MMFF94 Energy>
89.455

$$$$
Compound 316
Actelion Java MolfileCreator 2.0

  0  0  0  0  0  0              0 V3000
M  V30 BEGIN CTAB
M  V30 COUNTS 51 52 0 0 0
M  V30 BEGIN ATOM
M  V30 1 O -1.7211 0.5473 1.1732 0
M  V30 2 C -1.6133 0.36 -0.1769 0
M  V30 3 C -3.0386 0.6001 1.7232 0
M  V30 4 C -0.3015 0.2662 -0.6503 0
M  V30 5 C -2.6717 0.2647 -1.0798 0
M  V30 6 C -2.9361 0.7817 3.2386 0
M  V30 7 C -0.0317 0.0767 -2.0151 0
M  V30 8 C -2.418 0.0759 -2.4412 0
M  V30 9 C -2.7479 -0.5266 4.0192 0
M  V30 10 C -1.1065 -0.019 -2.9072 0
M  V30 11 C 1.3962 -0.0393 -2.5056 0
M  V30 12 N -1.5929 -1.2891 3.5675 0
M  V30 13 N 2.2127 1.1517 -2.2195 0
M  V30 14 C -1.2638 -2.4346 4.4147 0
M  V30 15 C 1.7854 2.3481 -2.9613 0
M  V30 16 C 3.6444 0.895 -2.4299 0
M  V30 17 C -0.3868 -3.3834 3.5956 0
M  V30 18 C -0.5252 -2.0154 5.6869 0
M  V30 19 C 2.1209 2.311 -4.4548 0
M  V30 20 C 4.0506 0.7979 -3.9027 0
M  V30 21 C 3.6023 2.0295 -4.6823 0
M  V30 22 H -3.6023 -0.3102 1.4868 0
M  V30 23 H -3.5584 1.4727 1.3089 0
M  V30 24 H 0.5246 0.3471 0.0535 0
M  V30 25 H -3.7049 0.334 -0.7581 0
M  V30 26 H -2.1127 1.4668 3.4767 0
M  V30 27 H -3.8627 1.246 3.598 0
M  V30 28 H -3.2473 0.002 -3.1399 0
M  V30 29 H -3.651 -1.1389 3.9099 0
M  V30 30 H -2.6574 -0.2655 5.0793 0
M  V30 31 H -0.9292 -0.1658 -3.9698 0
M  V30 32 H 1.4064 -0.2901 -3.5729 0
M  V30 33 H 1.8236 -0.9106 -1.9908 0
M  V30 34 H -0.7834 -0.6831 3.4315 0
M  V30 35 H -2.1777 -2.9772 4.6865 0
M  V30 36 H 2.2815 3.2194 -2.5128 0
M  V30 37 H 0.7138 2.5359 -2.8289 0
M  V30 38 H 3.9508 -0.0154 -1.9002 0
M  V30 39 H 4.2123 1.7082 -1.9588 0
M  V30 40 H 0.553 -2.9068 3.2942 0
M  V30 41 H -0.9059 -3.7125 2.6882 0
M  V30 42 H -0.1383 -4.2782 4.1767 0
M  V30 43 H -1.15 -1.3864 6.3286 0
M  V30 44 H 0.3897 -1.4587 5.4548 0
M  V30 45 H -0.2396 -2.8959 6.2731 0
M  V30 46 H 1.8576 3.2713 -4.913 0
M  V30 47 H 1.5179 1.5472 -4.9597 0
M  V30 48 H 3.6181 -0.1022 -4.3553 0
M  V30 49 H 5.1392 0.6948 -3.9767 0
M  V30 50 H 3.7991 1.8908 -5.751 0
M  V30 51 H 4.1901 2.8974 -4.3583 0
M  V30 END ATOM
M  V30 BEGIN BOND
M  V30 1 1 1 2
M  V30 2 1 1 3
M  V30 3 2 2 4
M  V30 4 1 2 5
M  V30 5 1 3 6
M  V30 6 1 4 7
M  V30 7 2 5 8
M  V30 8 1 6 9
M  V30 9 2 7 10
M  V30 10 1 7 11
M  V30 11 1 9 12
M  V30 12 1 11 13
M  V30 13 1 12 14
M  V30 14 1 13 15
M  V30 15 1 13 16
M  V30 16 1 14 17
M  V30 17 1 14 18
M  V30 18 1 15 19
M  V30 19 1 16 20
M  V30 20 1 19 21
M  V30 21 1 8 10
M  V30 22 1 20 21
M  V30 23 1 3 22
M  V30 24 1 3 23
M  V30 25 1 4 24
M  V30 26 1 5 25
M  V30 27 1 6 26
M  V30 28 1 6 27
M  V30 29 1 8 28
M  V30 30 1 9 29
M  V30 31 1 9 30
M  V30 32 1 10 31
M  V30 33 1 11 32
M  V30 34 1 11 33
M  V30 35 1 12 34
M  V30 36 1 14 35
M  V30 37 1 15 36
M  V30 38 1 15 37
M  V30 39 1 16 38
M  V30 40 1 16 39
M  V30 41 1 17 40
M  V30 42 1 17 41
M  V30 43 1 17 42
M  V30 44 1 18 43
M  V30 45 1 18 44
M  V30 46 1 18 45
M  V30 47 1 19 46
M  V30 48 1 19 47
M  V30 49 1 20 48
M  V30 50 1 20 49
M  V30 51 1 21 50
M  V30 52 1 21 51
M  V30 END BOND
M  V30 END CTAB
M  END
>  <Column 1>
398

>  <level_0>
452

>  <index>
452

>  <Unnamed: 0>
452

>  <NO.>
455

>  <Name>


>  <IUPAC_name>


>  <SMILES>
CC(C)NCCCOc1cccc(CN2CCCCC2)c1

>  <CID>


>  <logBB>
-0.13

>  <BBB+/BBB->
BBB+

>  <Inchi>
InChI=1S/C18H30N2O/c1-16(2)19-10-7-13-21-18-9-6-8-17(14-18)15-20-11-4-3-5-12-20/h6-8-9-14-16-19H-3-5-7-10-13-15H2-1-2H3

>  <threshold>


>  <reference>
R43|

>  <group>
A

>  <Class>
1

>  <ABC>
15.78

>  <ABCGG>
12.19

>  <nAcid>
0

>  <nBase>
2

>  <nAromAtom>
6

>  <nAromBond>
6

>  <nAtom>
51

>  <nHeavyAtom>
21

>  <nSpiro>
0

>  <nBridgehead>
0

>  <nHetero>
3

>  <nN>
2

>  <nO>
1

>  <nF>
0

>  <BalabanJ>
1.57

>  <BertzCT>
399.96

>  <nBonds>
52

>  <nBondsO>
22

>  <nBondsS>
46

>  <nBondsD>
0

>  <nBondsT>
0

>  <nBondsA>
6

>  <nBondsM>
6

>  <nBondsKS>
49

>  <nBondsKD>
3

>  <RNCG>
0.32

>  <RPCG>
0.08

>  <FCSP3>
0.67

>  <SZ>
26.67

>  <Sm>
24.18

>  <Sv>
28.36

>  <Sse>
49.97

>  <Sp>
31.78

>  <Si>
58.02

>  <MZ>
0.52

>  <Mm>
0.47

>  <Mv>
0.56

>  <Mse>
0.98

>  <Mp>
0.62

>  <Mi>
1.14

>  <NsCH3>
2

>  <NdCH2>
0

>  <NssCH2>
9

>  <NtCH>
0

>  <NdsCH>
0

>  <NaaCH>
4

>  <NsssCH>
1

>  <NddC>
0

>  <NtsC>
0

>  <NdssC>
0

>  <NaasC>
2

>  <NaaaC>
0

>  <NssssC>
0

>  <NsNH3>
0

>  <NsNH2>
0

>  <NssNH2>
0

>  <NdNH>
0

>  <NssNH>
1

>  <NaaNH>
0

>  <NtN>
0

>  <NsssNH>
0

>  <NdsN>
0

>  <NaaN>
0

>  <NsssN>
1

>  <NddsN>
0

>  <NaasN>
0

>  <NssssN>
0

>  <NsOH>
0

>  <NdO>
0

>  <NssO>
1

>  <NaaO>
0

>  <NsF>
0

>  <NsSiH3>
0

>  <NssSiH2>
0

>  <NsssSiH>
0

>  <NssssSi>
0

>  <NsPH2>
0

>  <NssPH>
0

>  <NsssP>
0

>  <NdsssP>
0

>  <NsssssP>
0

>  <NsSH>
0

>  <NdS>
0

>  <NssS>
0

>  <NaaS>
0

>  <NdssS>
0

>  <NddssS>
0

>  <NsCl>
0

>  <NsBr>
0

>  <NsI>
0

>  <fragCpx>
64.03

>  <fMF>
0.25

>  <nHBAcc>
3

>  <nHBDon>
1

>  <Kier1>
17.36

>  <Kier2>
9.9

>  <Lipinski>
1

>  <GhoseFilter>
1

>  <FilterItLogS>
-4.74

>  <VMcGowan>
255.69

>  <LabuteASA>
129.23

>  <PEOE_VSA1>
10.05

>  <PEOE_VSA2>
4.9

>  <PEOE_VSA3>
0

>  <PEOE_VSA4>
0

>  <PEOE_VSA5>
0

>  <PEOE_VSA6>
32.4

>  <PEOE_VSA7>
56.59

>  <PEOE_VSA8>
12.59

>  <PEOE_VSA9>
6.61

>  <PEOE_VSA10>
5.75

>  <PEOE_VSA11>
0

>  <PEOE_VSA12>
0

>  <PEOE_VSA13>
0

>  <SMR_VSA1>
4.74

>  <SMR_VSA2>
0

>  <SMR_VSA3>
10.22

>  <SMR_VSA4>
0

>  <SMR_VSA5>
52.12

>  <SMR_VSA6>
26.24

>  <SMR_VSA7>
29.83

>  <SMR_VSA8>
0

>  <SMR_VSA9>
5.75

>  <SlogP_VSA1>
10.05

>  <SlogP_VSA2>
37.18

>  <SlogP_VSA3>
6.54

>  <SlogP_VSA4>
0

>  <SlogP_VSA5>
45.09

>  <SlogP_VSA6>
24.27

>  <SlogP_VSA7>
0

>  <SlogP_VSA8>
0

>  <SlogP_VSA9>
0

>  <SlogP_VSA10>
0

>  <SlogP_VSA11>
5.75

>  <EState_VSA1>
0

>  <EState_VSA2>
0

>  <EState_VSA3>
6.04

>  <EState_VSA4>
31.87

>  <EState_VSA5>
37.92

>  <EState_VSA6>
0

>  <EState_VSA7>
0

>  <EState_VSA8>
48.33

>  <EState_VSA9>
4.74

>  <EState_VSA10>
0

>  <VSA_EState1>
5.86

>  <VSA_EState2>
2.55

>  <VSA_EState3>
3.41

>  <VSA_EState4>
1.37

>  <VSA_EState5>
1.01

>  <VSA_EState6>
9.14

>  <VSA_EState7>
5.14

>  <VSA_EState8>
9.69

>  <VSA_EState9>
0

>  <apol>
53.07

>  <bpol>
34.11

>  <nRing>
2

>  <nHRing>
1

>  <naRing>
1

>  <naHRing>
0

>  <nARing 2>
1

>  <nAHRing 2>
1

>  <nFRing>
0

>  <nFHRing>
0

>  <nFaRing>
0

>  <nFaHRing>
0

>  <nFARing 2>
0

>  <nFAHRing 2>
0

>  <nRot>
8

>  <SLogP>
3.44

>  <SMR>
88.82

>  <TopoPSA(NO)>
24.5

>  <TopoPSA>
24.5

>  <JGI1>
0.16

>  <JGI2>
0.03

>  <JGI3>
0.03

>  <JGI4>
0.03

>  <JGI5>
0.01

>  <Diameter>
14

>  <Radius>
7

>  <TMWC10>
112.96

>  <TSRW10>
53.62

>  <MW>
290.24

>  <AMW>
5.69

>  <WPath>
1158

>  <WPol>
24

>  <Zagreb1>
98

>  <Zagreb2>
106

>  <mZagreb2>
4.83

>  <yes>


>  <nAR-cont>
0.816016

>  <nHA-cont>
0.994529749

>  <MWHBN>
0.234790953

>  <MWHBN-cont>
0.981553624

>  <TPSA-cont>
0.828974786

>  <pka_cont>
0.97

>  <yes.1>


>  <BBB_SCORE>
5.425825758

>  <MMFF94 Energy>
24.224

$$$$
Compound 317
Actelion Java MolfileCreator 2.0

  0  0  0  0  0  0              0 V3000
M  V30 BEGIN CTAB
M  V30 COUNTS 6 5 0 0 0
M  V30 BEGIN ATOM
M  V30 1 Cl -1.1252 1.6448 0.6923 0
M  V30 2 C -0.1201 0.2588 0.6505 0
M  V30 3 C 0.2109 -0.4252 -0.4429 0
M  V30 4 Cl -0.2986 -0.0629 -2.0373 0
M  V30 5 H 0.229 -0.0114 1.6388 0
M  V30 6 H 0.8515 -1.2973 -0.4165 0
M  V30 END ATOM
M  V30 BEGIN BOND
M  V30 1 1 1 2
M  V30 2 2 2 3
M  V30 3 1 3 4
M  V30 4 1 2 5
M  V30 5 1 3 6
M  V30 END BOND
M  V30 END CTAB
M  END
>  <Column 1>
399

>  <level_0>
453

>  <index>
453

>  <Unnamed: 0>
453

>  <NO.>
456

>  <Name>
cis-1-2-dichloroethylene

>  <IUPAC_name>
(z)-1-2-dichloroethene

>  <SMILES>
Cl/C=C\Cl

>  <CID>
643833

>  <logBB>
-0.13

>  <BBB+/BBB->
BBB+

>  <Inchi>
InChI=1S/C2H2Cl2/c3-1-2-4/h1-2H/b2-1-

>  <threshold>


>  <reference>
R21|R38|R40|R41|R47|R43|

>  <group>
A

>  <Class>
1

>  <ABC>
2.12

>  <ABCGG>
2.34

>  <nAcid>
0

>  <nBase>
0

>  <nAromAtom>
0

>  <nAromBond>
0

>  <nAtom>
6

>  <nHeavyAtom>
4

>  <nSpiro>
0

>  <nBridgehead>
0

>  <nHetero>
2

>  <nN>
0

>  <nO>
0

>  <nF>
0

>  <BalabanJ>
1.97

>  <BertzCT>
19.22

>  <nBonds>
5

>  <nBondsO>
3

>  <nBondsS>
4

>  <nBondsD>
1

>  <nBondsT>
0

>  <nBondsA>
0

>  <nBondsM>
1

>  <nBondsKS>
4

>  <nBondsKD>
1

>  <RNCG>
0.5

>  <RPCG>
0.42

>  <FCSP3>
0

>  <SZ>
8

>  <Sm>
8.07

>  <Sv>
4.72

>  <Sse>
6.42

>  <Sp>
5.41

>  <Si>
6.72

>  <MZ>
1.33

>  <Mm>
1.35

>  <Mv>
0.79

>  <Mse>
1.07

>  <Mp>
0.9

>  <Mi>
1.12

>  <NsCH3>
0

>  <NdCH2>
0

>  <NssCH2>
0

>  <NtCH>
0

>  <NdsCH>
2

>  <NaaCH>
0

>  <NsssCH>
0

>  <NddC>
0

>  <NtsC>
0

>  <NdssC>
0

>  <NaasC>
0

>  <NaaaC>
0

>  <NssssC>
0

>  <NsNH3>
0

>  <NsNH2>
0

>  <NssNH2>
0

>  <NdNH>
0

>  <NssNH>
0

>  <NaaNH>
0

>  <NtN>
0

>  <NsssNH>
0

>  <NdsN>
0

>  <NaaN>
0

>  <NsssN>
0

>  <NddsN>
0

>  <NaasN>
0

>  <NssssN>
0

>  <NsOH>
0

>  <NdO>
0

>  <NssO>
0

>  <NaaO>
0

>  <NsF>
0

>  <NsSiH3>
0

>  <NssSiH2>
0

>  <NsssSiH>
0

>  <NssssSi>
0

>  <NsPH2>
0

>  <NssPH>
0

>  <NsssP>
0

>  <NdsssP>
0

>  <NsssssP>
0

>  <NsSH>
0

>  <NdS>
0

>  <NssS>
0

>  <NaaS>
0

>  <NdssS>
0

>  <NddssS>
0

>  <NsCl>
2

>  <NsBr>
0

>  <NsI>
0

>  <fragCpx>
3.02

>  <fMF>
0

>  <nHBAcc>
0

>  <nHBDon>
0

>  <Kier1>
4

>  <Kier2>
3

>  <Lipinski>
1

>  <GhoseFilter>
0

>  <FilterItLogS>
-1.12

>  <VMcGowan>
59.22

>  <LabuteASA>
35.02

>  <PEOE_VSA1>
0

>  <PEOE_VSA2>
0

>  <PEOE_VSA3>
0

>  <PEOE_VSA4>
0

>  <PEOE_VSA5>
0

>  <PEOE_VSA6>
23.2

>  <PEOE_VSA7>
0

>  <PEOE_VSA8>
11.07

>  <PEOE_VSA9>
0

>  <PEOE_VSA10>
0

>  <PEOE_VSA11>
0

>  <PEOE_VSA12>
0

>  <PEOE_VSA13>
0

>  <SMR_VSA1>
0

>  <SMR_VSA2>
0

>  <SMR_VSA3>
0

>  <SMR_VSA4>
0

>  <SMR_VSA5>
0

>  <SMR_VSA6>
0

>  <SMR_VSA7>
11.07

>  <SMR_VSA8>
0

>  <SMR_VSA9>
0

>  <SlogP_VSA1>
0

>  <SlogP_VSA2>
0

>  <SlogP_VSA3>
0

>  <SlogP_VSA4>
0

>  <SlogP_VSA5>
0

>  <SlogP_VSA6>
11.07

>  <SlogP_VSA7>
0

>  <SlogP_VSA8>
0

>  <SlogP_VSA9>
0

>  <SlogP_VSA10>
0

>  <SlogP_VSA11>
0

>  <EState_VSA1>
0

>  <EState_VSA2>
0

>  <EState_VSA3>
0

>  <EState_VSA4>
0

>  <EState_VSA5>
11.07

>  <EState_VSA6>
0

>  <EState_VSA7>
0

>  <EState_VSA8>
0

>  <EState_VSA9>
23.2

>  <EState_VSA10>
0

>  <VSA_EState1>
0

>  <VSA_EState2>
0

>  <VSA_EState3>
0

>  <VSA_EState4>
2.48

>  <VSA_EState5>
0

>  <VSA_EState6>
0

>  <VSA_EState7>
0

>  <VSA_EState8>
0

>  <VSA_EState9>
0

>  <apol>
9.03

>  <bpol>
3.03

>  <nRing>
0

>  <nHRing>
0

>  <naRing>
0

>  <naHRing>
0

>  <nARing 2>
0

>  <nAHRing 2>
0

>  <nFRing>
0

>  <nFHRing>
0

>  <nFaRing>
0

>  <nFaHRing>
0

>  <nFARing 2>
0

>  <nFAHRing 2>
0

>  <nRot>
0

>  <SLogP>
1.94

>  <SMR>
20.85

>  <TopoPSA(NO)>
0

>  <TopoPSA>
0

>  <JGI1>
0.17

>  <JGI2>
0.11

>  <JGI3>
0

>  <JGI4>
0

>  <JGI5>
0

>  <Diameter>
3

>  <Radius>
2

>  <TMWC10>
45.23

>  <TSRW10>
22.33

>  <MW>
95.95

>  <AMW>
15.99

>  <WPath>
10

>  <WPol>
1

>  <Zagreb1>
10

>  <Zagreb2>
8

>  <mZagreb2>
1.25

>  <yes>


>  <nAR-cont>
0.336376

>  <nHA-cont>
0

>  <MWHBN>
0

>  <MWHBN-cont>
0

>  <TPSA-cont>
0

>  <pka_cont>
0.97

>  <yes.1>


>  <BBB_SCORE>
0.821376

>  <MMFF94 Energy>
3.1872

$$$$
Compound 318
Actelion Java MolfileCreator 2.0

  0  0  0  0  0  0              0 V3000
M  V30 BEGIN CTAB
M  V30 COUNTS 29 30 0 0 0
M  V30 BEGIN ATOM
M  V30 1 O -0.875 0.875 -4.0621 0
M  V30 2 C -0.7325 0.4687 -2.9142 0
M  V30 3 N -1.5922 0.818 -1.9241 0
M  V30 4 N 0.2826 -0.3655 -2.576 0
M  V30 5 C -1.5454 0.4179 -0.6181 0
M  V30 6 C 0.533 -0.8941 -1.3408 0
M  V30 7 O -2.4544 0.7504 0.1437 0
M  V30 8 C -0.3396 -0.4166 -0.176 0
M  V30 9 O 1.4455 -1.7113 -1.2122 0
M  V30 10 C 0.5368 0.458 0.7569 0
M  V30 11 C -0.9056 -1.6957 0.5184 0
M  V30 12 C 0.7931 0.1253 2.0982 0
M  V30 13 C 1.1143 1.6465 0.2602 0
M  V30 14 C -1.7751 -2.5795 -0.3775 0
M  V30 15 C 1.5899 0.9425 2.9065 0
M  V30 16 C 1.9099 2.461 1.0701 0
M  V30 17 C 2.1476 2.1087 2.3936 0
M  V30 18 H -2.372 1.4047 -2.1874 0
M  V30 19 H 0.8963 -0.6583 -3.3238 0
M  V30 20 H -0.0825 -2.3181 0.8936 0
M  V30 21 H -1.5116 -1.416 1.3905 0
M  V30 22 H 0.384 -0.7729 2.5529 0
M  V30 23 H 0.9567 1.9635 -0.7681 0
M  V30 24 H -1.2175 -2.9534 -1.241 0
M  V30 25 H -2.1262 -3.448 0.1896 0
M  V30 26 H -2.6576 -2.0444 -0.7403 0
M  V30 27 H 1.7739 0.664 3.9414 0
M  V30 28 H 2.3444 3.372 0.6659 0
M  V30 29 H 2.7661 2.7409 3.025 0
M  V30 END ATOM
M  V30 BEGIN BOND
M  V30 1 2 1 2
M  V30 2 1 2 3
M  V30 3 1 2 4
M  V30 4 1 3 5
M  V30 5 1 4 6
M  V30 6 2 5 7
M  V30 7 1 5 8
M  V30 8 2 6 9
M  V30 9 1 8 10
M  V30 10 1 8 11
M  V30 11 2 10 12
M  V30 12 1 10 13
M  V30 13 1 11 14
M  V30 14 1 12 15
M  V30 15 2 13 16
M  V30 16 2 15 17
M  V30 17 1 6 8
M  V30 18 1 16 17
M  V30 19 1 3 18
M  V30 20 1 4 19
M  V30 21 1 11 20
M  V30 22 1 11 21
M  V30 23 1 12 22
M  V30 24 1 13 23
M  V30 25 1 14 24
M  V30 26 1 14 25
M  V30 27 1 14 26
M  V30 28 1 15 27
M  V30 29 1 16 28
M  V30 30 1 17 29
M  V30 END BOND
M  V30 END CTAB
M  END
>  <Column 1>
400

>  <level_0>
454

>  <index>
454

>  <Unnamed: 0>
454

>  <NO.>
457

>  <Name>
phenobarbital

>  <IUPAC_name>
5-ethyl-5-phenyl-1-3-diazinane-2-4-6-trione

>  <SMILES>
CCC1(c2ccccc2)C(=O)NC(=O)NC1=O

>  <CID>
4763

>  <logBB>
-0.12

>  <BBB+/BBB->
BBB+

>  <Inchi>
InChI=1S/C12H12N2O3/c1-2-12(8-6-4-3-5-7-8)9(15)13-11(17)14-10(12)16/h3-7H-2H2-1H3-(H2-13-14-15-16-17)

>  <threshold>


>  <reference>
R20|R2|R2|R25|R27|R46|

>  <group>
A

>  <Class>
1

>  <ABC>
12.87

>  <ABCGG>
11.72

>  <nAcid>
0

>  <nBase>
0

>  <nAromAtom>
6

>  <nAromBond>
6

>  <nAtom>
29

>  <nHeavyAtom>
17

>  <nSpiro>
0

>  <nBridgehead>
0

>  <nHetero>
5

>  <nN>
2

>  <nO>
3

>  <nF>
0

>  <BalabanJ>
2.2

>  <BertzCT>
461.78

>  <nBonds>
30

>  <nBondsO>
18

>  <nBondsS>
21

>  <nBondsD>
3

>  <nBondsT>
0

>  <nBondsA>
6

>  <nBondsM>
9

>  <nBondsKS>
24

>  <nBondsKD>
6

>  <RNCG>
0.16

>  <RPCG>
0.19

>  <FCSP3>
0.25

>  <SZ>
20.33

>  <Sm>
19.34

>  <Sv>
18.91

>  <Sse>
29.65

>  <Sp>
19.55

>  <Si>
32.7

>  <MZ>
0.7

>  <Mm>
0.67

>  <Mv>
0.65

>  <Mse>
1.02

>  <Mp>
0.67

>  <Mi>
1.13

>  <NsCH3>
1

>  <NdCH2>
0

>  <NssCH2>
1

>  <NtCH>
0

>  <NdsCH>
0

>  <NaaCH>
5

>  <NsssCH>
0

>  <NddC>
0

>  <NtsC>
0

>  <NdssC>
3

>  <NaasC>
1

>  <NaaaC>
0

>  <NssssC>
1

>  <NsNH3>
0

>  <NsNH2>
0

>  <NssNH2>
0

>  <NdNH>
0

>  <NssNH>
2

>  <NaaNH>
0

>  <NtN>
0

>  <NsssNH>
0

>  <NdsN>
0

>  <NaaN>
0

>  <NsssN>
0

>  <NddsN>
0

>  <NaasN>
0

>  <NssssN>
0

>  <NsOH>
0

>  <NdO>
3

>  <NssO>
0

>  <NaaO>
0

>  <NsF>
0

>  <NsSiH3>
0

>  <NssSiH2>
0

>  <NsssSiH>
0

>  <NssssSi>
0

>  <NsPH2>
0

>  <NssPH>
0

>  <NsssP>
0

>  <NdsssP>
0

>  <NsssssP>
0

>  <NsSH>
0

>  <NdS>
0

>  <NssS>
0

>  <NaaS>
0

>  <NdssS>
0

>  <NddssS>
0

>  <NsCl>
0

>  <NsBr>
0

>  <NsI>
0

>  <fragCpx>
52.05

>  <fMF>
0.41

>  <nHBAcc>
3

>  <nHBDon>
2

>  <Kier1>
13.43

>  <Kier2>
5.33

>  <Lipinski>
1

>  <GhoseFilter>
1

>  <FilterItLogS>
-3.31

>  <VMcGowan>
169.99

>  <LabuteASA>
98.2

>  <PEOE_VSA1>
0

>  <PEOE_VSA2>
20.22

>  <PEOE_VSA3>
4.79

>  <PEOE_VSA4>
0

>  <PEOE_VSA5>
0

>  <PEOE_VSA6>
37.26

>  <PEOE_VSA7>
11.98

>  <PEOE_VSA8>
0

>  <PEOE_VSA9>
0

>  <PEOE_VSA10>
0

>  <PEOE_VSA11>
5.41

>  <PEOE_VSA12>
11.81

>  <PEOE_VSA13>
0

>  <SMR_VSA1>
14.38

>  <SMR_VSA2>
0

>  <SMR_VSA3>
10.63

>  <SMR_VSA4>
0

>  <SMR_VSA5>
18.76

>  <SMR_VSA6>
0

>  <SMR_VSA7>
35.9

>  <SMR_VSA8>
0

>  <SMR_VSA9>
0

>  <SlogP_VSA1>
10.63

>  <SlogP_VSA2>
17.85

>  <SlogP_VSA3>
15

>  <SlogP_VSA4>
0

>  <SlogP_VSA5>
18.91

>  <SlogP_VSA6>
30.33

>  <SlogP_VSA7>
0

>  <SlogP_VSA8>
0

>  <SlogP_VSA9>
0

>  <SlogP_VSA10>
4.79

>  <SlogP_VSA11>
0

>  <EState_VSA1>
23.26

>  <EState_VSA2>
0

>  <EState_VSA3>
11.98

>  <EState_VSA4>
0

>  <EState_VSA5>
0

>  <EState_VSA6>
37.26

>  <EState_VSA7>
0

>  <EState_VSA8>
10.63

>  <EState_VSA9>
0

>  <EState_VSA10>
14.38

>  <VSA_EState1>
0

>  <VSA_EState2>
35.01

>  <VSA_EState3>
4.28

>  <VSA_EState4>
-0.72

>  <VSA_EState5>
-1.14

>  <VSA_EState6>
7.96

>  <VSA_EState7>
0.29

>  <VSA_EState8>
1.74

>  <VSA_EState9>
0

>  <apol>
32.65

>  <bpol>
15.78

>  <nRing>
2

>  <nHRing>
1

>  <naRing>
1

>  <naHRing>
0

>  <nARing 2>
1

>  <nAHRing 2>
1

>  <nFRing>
0

>  <nFHRing>
0

>  <nFaRing>
0

>  <nFaHRing>
0

>  <nFARing 2>
0

>  <nFAHRing 2>
0

>  <nRot>
2

>  <SLogP>
0.7

>  <SMR>
60.09

>  <TopoPSA(NO)>
75.27

>  <TopoPSA>
75.27

>  <JGI1>
0.25

>  <JGI2>
0.11

>  <JGI3>
0.08

>  <JGI4>
0.04

>  <JGI5>
0.03

>  <Diameter>
8

>  <Radius>
4

>  <TMWC10>
108.02

>  <TSRW10>
50.36

>  <MW>
232.08

>  <AMW>
8

>  <WPath>
458

>  <WPol>
31

>  <Zagreb1>
88

>  <Zagreb2>
107

>  <mZagreb2>
3.88

>  <yes>


>  <nAR-cont>
0.816016

>  <nHA-cont>
0.976740822

>  <MWHBN>
0.328209499

>  <MWHBN-cont>
0.749097783

>  <TPSA-cont>
0.47456866

>  <pka_cont>
0.97

>  <yes.1>


>  <BBB_SCORE>
4.350540817

>  <MMFF94 Energy>
-74.769

$$$$
Compound 319
Actelion Java MolfileCreator 2.0

  0  0  0  0  0  0              0 V3000
M  V30 BEGIN CTAB
M  V30 COUNTS 33 34 0 0 0
M  V30 BEGIN ATOM
M  V30 1 O -1.7369 3.1598 -3.7136 0
M  V30 2 C -1.1584 2.2281 -2.9041 0
M  V30 3 C -1.921 1.385 -2.1081 0
M  V30 4 C 0.2262 2.1444 -2.8975 0
M  V30 5 C -1.281 0.446 -1.2943 0
M  V30 6 C 0.8657 1.2058 -2.0815 0
M  V30 7 C 0.1262 0.3383 -1.2588 0
M  V30 8 C 0.7892 -0.722 -0.3456 0
M  V30 9 C 0.2815 -0.5964 1.1122 0
M  V30 10 C 2.335 -0.6081 -0.2792 0
M  V30 11 C 0.4893 -2.0999 -0.9925 0
M  V30 12 C 0.3632 0.6483 1.7721 0
M  V30 13 C -0.2526 -1.6803 1.8318 0
M  V30 14 C -0.0766 0.8027 3.0885 0
M  V30 15 C -0.6929 -1.5268 3.1519 0
M  V30 16 C -0.6012 -0.2854 3.7685 0
M  V30 17 O -1.019 -0.0948 5.052 0
M  V30 18 H -2.7 3.1105 -3.5988 0
M  V30 19 H -3.0047 1.4401 -2.1019 0
M  V30 20 H 0.8119 2.8092 -3.5264 0
M  V30 21 H -1.8942 -0.2039 -0.6719 0
M  V30 22 H 1.951 1.1749 -2.1103 0
M  V30 23 H 2.7565 -1.3528 0.4078 0
M  V30 24 H 2.6641 0.3769 0.0726 0
M  V30 25 H 2.7963 -0.7796 -1.259 0
M  V30 26 H 0.8335 -2.1303 -2.034 0
M  V30 27 H 0.9976 -2.9148 -0.4635 0
M  V30 28 H -0.5828 -2.3299 -1.0014 0
M  V30 29 H 0.7676 1.5181 1.2567 0
M  V30 30 H -0.3376 -2.6674 1.3862 0
M  V30 31 H -0.0091 1.7705 3.5771 0
M  V30 32 H -1.1001 -2.3855 3.6765 0
M  V30 33 H -1.3531 -0.9388 5.3965 0
M  V30 END ATOM
M  V30 BEGIN BOND
M  V30 1 1 1 2
M  V30 2 2 2 3
M  V30 3 1 2 4
M  V30 4 1 3 5
M  V30 5 2 4 6
M  V30 6 2 5 7
M  V30 7 1 7 8
M  V30 8 1 8 9
M  V30 9 1 8 10
M  V30 10 1 8 11
M  V30 11 2 9 12
M  V30 12 1 9 13
M  V30 13 1 12 14
M  V30 14 2 13 15
M  V30 15 2 14 16
M  V30 16 1 16 17
M  V30 17 1 6 7
M  V30 18 1 15 16
M  V30 19 1 1 18
M  V30 20 1 3 19
M  V30 21 1 4 20
M  V30 22 1 5 21
M  V30 23 1 6 22
M  V30 24 1 10 23
M  V30 25 1 10 24
M  V30 26 1 10 25
M  V30 27 1 11 26
M  V30 28 1 11 27
M  V30 29 1 11 28
M  V30 30 1 12 29
M  V30 31 1 13 30
M  V30 32 1 14 31
M  V30 33 1 15 32
M  V30 34 1 17 33
M  V30 END BOND
M  V30 END CTAB
M  END
>  <Column 1>
401

>  <level_0>
455

>  <index>
455

>  <Unnamed: 0>
455

>  <NO.>
458

>  <Name>
bisphenol a

>  <IUPAC_name>
4-[2-(4-hydroxyphenyl)propan-2-yl]phenol

>  <SMILES>
CC(C)(c1ccc(O)cc1)c1ccc(O)cc1

>  <CID>
6623

>  <logBB>
-0.12

>  <BBB+/BBB->
BBB+

>  <Inchi>
InChI=1S/C15H16O2/c1-15(2-11-3-7-13(16)8-4-11)12-5-9-14(17)10-6-12/h3-10-16-17H-1-2H3

>  <threshold>


>  <reference>
R2|R2|R3|R8|R21|R25|R27|R27|R38|R40|R41|R43|R47|

>  <group>
A

>  <Class>
1

>  <ABC>
13.14

>  <ABCGG>
11.24

>  <nAcid>
0

>  <nBase>
0

>  <nAromAtom>
12

>  <nAromBond>
12

>  <nAtom>
33

>  <nHeavyAtom>
17

>  <nSpiro>
0

>  <nBridgehead>
0

>  <nHetero>
2

>  <nN>
0

>  <nO>
2

>  <nF>
0

>  <BalabanJ>
1.93

>  <BertzCT>
447.95

>  <nBonds>
34

>  <nBondsO>
18

>  <nBondsS>
22

>  <nBondsD>
0

>  <nBondsT>
0

>  <nBondsA>
12

>  <nBondsM>
12

>  <nBondsKS>
28

>  <nBondsKD>
6

>  <RNCG>
0.34

>  <RPCG>
0.2

>  <FCSP3>
0.2

>  <SZ>
20.33

>  <Sm>
19.01

>  <Sv>
20.76

>  <Sse>
32.76

>  <Sp>
22.35

>  <Si>
36.74

>  <MZ>
0.62

>  <Mm>
0.58

>  <Mv>
0.63

>  <Mse>
0.99

>  <Mp>
0.68

>  <Mi>
1.11

>  <NsCH3>
2

>  <NdCH2>
0

>  <NssCH2>
0

>  <NtCH>
0

>  <NdsCH>
0

>  <NaaCH>
8

>  <NsssCH>
0

>  <NddC>
0

>  <NtsC>
0

>  <NdssC>
0

>  <NaasC>
4

>  <NaaaC>
0

>  <NssssC>
1

>  <NsNH3>
0

>  <NsNH2>
0

>  <NssNH2>
0

>  <NdNH>
0

>  <NssNH>
0

>  <NaaNH>
0

>  <NtN>
0

>  <NsssNH>
0

>  <NdsN>
0

>  <NaaN>
0

>  <NsssN>
0

>  <NddsN>
0

>  <NaasN>
0

>  <NssssN>
0

>  <NsOH>
2

>  <NdO>
0

>  <NssO>
0

>  <NaaO>
0

>  <NsF>
0

>  <NsSiH3>
0

>  <NssSiH2>
0

>  <NsssSiH>
0

>  <NssssSi>
0

>  <NsPH2>
0

>  <NssPH>
0

>  <NsssP>
0

>  <NdsssP>
0

>  <NsssssP>
0

>  <NsSH>
0

>  <NdS>
0

>  <NssS>
0

>  <NaaS>
0

>  <NdssS>
0

>  <NddssS>
0

>  <NsCl>
0

>  <NsBr>
0

>  <NsI>
0

>  <fragCpx>
52.02

>  <fMF>
0.39

>  <nHBAcc>
2

>  <nHBDon>
2

>  <Kier1>
13.43

>  <Kier2>
5.33

>  <Lipinski>
1

>  <GhoseFilter>
1

>  <FilterItLogS>
-3.38

>  <VMcGowan>
186.43

>  <LabuteASA>
101.17

>  <PEOE_VSA1>
10.21

>  <PEOE_VSA2>
0

>  <PEOE_VSA3>
0

>  <PEOE_VSA4>
0

>  <PEOE_VSA5>
0

>  <PEOE_VSA6>
38.11

>  <PEOE_VSA7>
35.39

>  <PEOE_VSA8>
5.41

>  <PEOE_VSA9>
0

>  <PEOE_VSA10>
11.5

>  <PEOE_VSA11>
0

>  <PEOE_VSA12>
0

>  <PEOE_VSA13>
0

>  <SMR_VSA1>
10.21

>  <SMR_VSA2>
0

>  <SMR_VSA3>
0

>  <SMR_VSA4>
0

>  <SMR_VSA5>
19.26

>  <SMR_VSA6>
0

>  <SMR_VSA7>
59.66

>  <SMR_VSA8>
0

>  <SMR_VSA9>
11.5

>  <SlogP_VSA1>
0

>  <SlogP_VSA2>
10.21

>  <SlogP_VSA3>
5.41

>  <SlogP_VSA4>
0

>  <SlogP_VSA5>
24.97

>  <SlogP_VSA6>
48.53

>  <SlogP_VSA7>
0

>  <SlogP_VSA8>
0

>  <SlogP_VSA9>
0

>  <SlogP_VSA10>
0

>  <SlogP_VSA11>
11.5

>  <EState_VSA1>
0

>  <EState_VSA2>
16.91

>  <EState_VSA3>
0

>  <EState_VSA4>
11.13

>  <EState_VSA5>
0

>  <EState_VSA6>
24.27

>  <EState_VSA7>
24.27

>  <EState_VSA8>
13.85

>  <EState_VSA9>
0

>  <EState_VSA10>
10.21

>  <VSA_EState1>
0

>  <VSA_EState2>
0

>  <VSA_EState3>
18.59

>  <VSA_EState4>
2.1

>  <VSA_EState5>
0.55

>  <VSA_EState6>
14.44

>  <VSA_EState7>
0

>  <VSA_EState8>
4.23

>  <VSA_EState9>
0

>  <apol>
37.32

>  <bpol>
16.05

>  <nRing>
2

>  <nHRing>
0

>  <naRing>
2

>  <naHRing>
0

>  <nARing 2>
0

>  <nAHRing 2>
0

>  <nFRing>
0

>  <nFHRing>
0

>  <nFaRing>
0

>  <nFaHRing>
0

>  <nFARing 2>
0

>  <nFAHRing 2>
0

>  <nRot>
2

>  <SLogP>
3.42

>  <SMR>
68.34

>  <TopoPSA(NO)>
40.46

>  <TopoPSA>
40.46

>  <JGI1>
0.28

>  <JGI2>
0.12

>  <JGI3>
0.06

>  <JGI4>
0.04

>  <JGI5>
0.04

>  <Diameter>
10

>  <Radius>
5

>  <TMWC10>
106.55

>  <TSRW10>
49.97

>  <MW>
228.12

>  <AMW>
6.91

>  <WPath>
516

>  <WPol>
26

>  <Zagreb1>
88

>  <Zagreb2>
102

>  <mZagreb2>
3.67

>  <yes>


>  <nAR-cont>
0.336376

>  <nHA-cont>
0.976740822

>  <MWHBN>
0.264836787

>  <MWHBN-cont>
0.931466183

>  <TPSA-cont>
0.717564076

>  <pka_cont>
0.97

>  <yes.1>


>  <BBB_SCORE>
4.630444248

>  <MMFF94 Energy>
42.953

$$$$
Compound 320
Actelion Java MolfileCreator 2.0

  0  0  0  0  0  0              0 V3000
M  V30 BEGIN CTAB
M  V30 COUNTS 42 45 0 0 0
M  V30 BEGIN ATOM
M  V30 1 O 0.6418 0.0802 1.4445 0
M  V30 2 C -0.0852 -0.2473 0.5107 0
M  V30 3 N -0.2083 0.4467 -0.6751 0
M  V30 4 C -0.9632 -1.5137 0.5467 0
M  V30 5 C 0.4584 1.6058 -0.9524 0
M  V30 6 C -0.1079 -2.7592 0.598 0
M  V30 7 C -1.9623 -1.445 1.679 0
M  V30 8 N 1.0273 2.4368 -0.0299 0
M  V30 9 N 0.5383 2.0697 -2.2051 0
M  V30 10 C -0.1439 -3.5857 1.7232 0
M  V30 11 C 0.7373 -3.1016 -0.4714 0
M  V30 12 C -1.8841 -2.3532 2.7368 0
M  V30 13 C -2.9736 -0.4689 1.6926 0
M  V30 14 N 1.525 3.4661 -0.7021 0
M  V30 15 N 1.2288 3.2076 -1.9854 0
M  V30 16 O -0.9474 -3.354 2.8122 0
M  V30 17 C 0.6606 -4.7257 1.7898 0
M  V30 18 C 1.5362 -4.2444 -0.4048 0
M  V30 19 C -2.789 -2.282 3.7987 0
M  V30 20 C -3.8799 -0.4031 2.7523 0
M  V30 21 C 1.6081 4.1018 -3.0667 0
M  V30 22 C 1.4999 -5.0555 0.7268 0
M  V30 23 C -3.7867 -1.3083 3.8067 0
M  V30 24 C 0.9375 5.4668 -2.9226 0
M  V30 25 C 3.126 4.2357 -3.173 0
M  V30 26 H -0.757 0.0989 -1.4449 0
M  V30 27 H -1.5538 -1.584 -0.3778 0
M  V30 28 H 0.7899 -2.4782 -1.3608 0
M  V30 29 H -3.0577 0.2555 0.8859 0
M  V30 30 H 0.631 -5.3576 2.6735 0
M  V30 31 H 2.1935 -4.4983 -1.2326 0
M  V30 32 H -2.7145 -2.9883 4.6213 0
M  V30 33 H -4.6539 0.3605 2.7602 0
M  V30 34 H 1.2418 3.6383 -3.9917 0
M  V30 35 H 2.1256 -5.9421 0.7839 0
M  V30 36 H -4.4868 -1.2546 4.6363 0
M  V30 37 H -0.1511 5.3619 -2.8565 0
M  V30 38 H 1.1636 6.1025 -3.7852 0
M  V30 39 H 1.2756 5.9893 -2.0207 0
M  V30 40 H 3.4014 4.8431 -4.0415 0
M  V30 41 H 3.5975 3.2531 -3.2846 0
M  V30 42 H 3.5527 4.709 -2.2815 0
M  V30 END ATOM
M  V30 BEGIN BOND
M  V30 1 2 1 2
M  V30 2 1 2 3
M  V30 3 1 2 4
M  V30 4 1 3 5
M  V30 5 1 4 6
M  V30 6 1 4 7
M  V30 7 1 5 8
M  V30 8 2 5 9
M  V30 9 2 6 10
M  V30 10 1 6 11
M  V30 11 2 7 12
M  V30 12 1 7 13
M  V30 13 2 8 14
M  V30 14 1 9 15
M  V30 15 1 10 16
M  V30 16 1 10 17
M  V30 17 2 11 18
M  V30 18 1 12 19
M  V30 19 2 13 20
M  V30 20 1 15 21
M  V30 21 2 17 22
M  V30 22 2 19 23
M  V30 23 1 21 24
M  V30 24 1 21 25
M  V30 25 1 12 16
M  V30 26 1 14 15
M  V30 27 1 18 22
M  V30 28 1 20 23
M  V30 29 1 3 26
M  V30 30 1 4 27
M  V30 31 1 11 28
M  V30 32 1 13 29
M  V30 33 1 17 30
M  V30 34 1 18 31
M  V30 35 1 19 32
M  V30 36 1 20 33
M  V30 37 1 21 34
M  V30 38 1 22 35
M  V30 39 1 23 36
M  V30 40 1 24 37
M  V30 41 1 24 38
M  V30 42 1 24 39
M  V30 43 1 25 40
M  V30 44 1 25 41
M  V30 45 1 25 42
M  V30 END BOND
M  V30 END CTAB
M  END
>  <Column 1>
402

>  <level_0>
456

>  <index>
456

>  <Unnamed: 0>
456

>  <NO.>
459

>  <Name>
9h-xanthene-9-carboxamide;n-[2-(1-methylethyl)-2h-tetrazol-5-yl]-

>  <IUPAC_name>
n-(2-propan-2-yltetrazol-5-yl)-9h-xanthene-9-carboxamide

>  <SMILES>
CC(C)n1nnc(NC(=O)C2c3ccccc3Oc3ccccc32)n1

>  <CID>
9862542

>  <logBB>
-0.12

>  <BBB+/BBB->
BBB+

>  <Inchi>
InChI=1S/C18H17N5O2/c1-11(2)23-21-18(20-22-23)19-17(24)16-12-7-3-5-9-14(12)25-15-10-6-4-8-13(15)16/h3-11-16H-1-2H3-(H-19-21-24)

>  <threshold>


>  <reference>
R47|

>  <group>
A

>  <Class>
1

>  <ABC>
19.88

>  <ABCGG>
15.72

>  <nAcid>
2

>  <nBase>
0

>  <nAromAtom>
17

>  <nAromBond>
17

>  <nAtom>
42

>  <nHeavyAtom>
25

>  <nSpiro>
0

>  <nBridgehead>
0

>  <nHetero>
7

>  <nN>
5

>  <nO>
2

>  <nF>
0

>  <BalabanJ>
1.45

>  <BertzCT>
888.98

>  <nBonds>
45

>  <nBondsO>
28

>  <nBondsS>
27

>  <nBondsD>
1

>  <nBondsT>
0

>  <nBondsA>
17

>  <nBondsM>
18

>  <nBondsKS>
36

>  <nBondsKD>
9

>  <RNCG>
0.24

>  <RPCG>
0.14

>  <FCSP3>
0.22

>  <SZ>
29.33

>  <Sm>
27.92

>  <Sv>
27.82

>  <Sse>
42.52

>  <Sp>
29.04

>  <Si>
47.4

>  <MZ>
0.7

>  <Mm>
0.66

>  <Mv>
0.66

>  <Mse>
1.01

>  <Mp>
0.69

>  <Mi>
1.13

>  <NsCH3>
2

>  <NdCH2>
0

>  <NssCH2>
0

>  <NtCH>
0

>  <NdsCH>
0

>  <NaaCH>
8

>  <NsssCH>
2

>  <NddC>
0

>  <NtsC>
0

>  <NdssC>
1

>  <NaasC>
5

>  <NaaaC>
0

>  <NssssC>
0

>  <NsNH3>
0

>  <NsNH2>
0

>  <NssNH2>
0

>  <NdNH>
0

>  <NssNH>
1

>  <NaaNH>
0

>  <NtN>
0

>  <NsssNH>
0

>  <NdsN>
0

>  <NaaN>
3

>  <NsssN>
0

>  <NddsN>
0

>  <NaasN>
1

>  <NssssN>
0

>  <NsOH>
0

>  <NdO>
1

>  <NssO>
1

>  <NaaO>
0

>  <NsF>
0

>  <NsSiH3>
0

>  <NssSiH2>
0

>  <NsssSiH>
0

>  <NssssSi>
0

>  <NsPH2>
0

>  <NssPH>
0

>  <NsssP>
0

>  <NdsssP>
0

>  <NsssssP>
0

>  <NsSH>
0

>  <NdS>
0

>  <NssS>
0

>  <NaaS>
0

>  <NdssS>
0

>  <NddssS>
0

>  <NsCl>
0

>  <NsBr>
0

>  <NsI>
0

>  <fragCpx>
184.07

>  <fMF>
0.5

>  <nHBAcc>
6

>  <nHBDon>
1

>  <Kier1>
18.37

>  <Kier2>
7.94

>  <Lipinski>
1

>  <GhoseFilter>
1

>  <FilterItLogS>
-4.06

>  <VMcGowan>
243.98

>  <LabuteASA>
144.17

>  <PEOE_VSA1>
4.74

>  <PEOE_VSA2>
10.11

>  <PEOE_VSA3>
0

>  <PEOE_VSA4>
4.8

>  <PEOE_VSA5>
5.1

>  <PEOE_VSA6>
41.5

>  <PEOE_VSA7>
31.19

>  <PEOE_VSA8>
11.13

>  <PEOE_VSA9>
11.96

>  <PEOE_VSA10>
11.5

>  <PEOE_VSA11>
0

>  <PEOE_VSA12>
5.91

>  <PEOE_VSA13>
5.95

>  <SMR_VSA1>
9.53

>  <SMR_VSA2>
0

>  <SMR_VSA3>
20.21

>  <SMR_VSA4>
0

>  <SMR_VSA5>
25.81

>  <SMR_VSA6>
5.32

>  <SMR_VSA7>
59.66

>  <SMR_VSA8>
0

>  <SMR_VSA9>
11.5

>  <SlogP_VSA1>
10.05

>  <SlogP_VSA2>
26.11

>  <SlogP_VSA3>
4.79

>  <SlogP_VSA4>
0

>  <SlogP_VSA5>
36.93

>  <SlogP_VSA6>
48.53

>  <SlogP_VSA7>
0

>  <SlogP_VSA8>
0

>  <SlogP_VSA9>
0

>  <SlogP_VSA10>
5.95

>  <SlogP_VSA11>
11.5

>  <EState_VSA1>
5.92

>  <EState_VSA2>
17.9

>  <EState_VSA3>
11.5

>  <EState_VSA4>
11.13

>  <EState_VSA5>
4.8

>  <EState_VSA6>
0

>  <EState_VSA7>
62.38

>  <EState_VSA8>
20.73

>  <EState_VSA9>
4.74

>  <EState_VSA10>
4.79

>  <VSA_EState1>
5.92

>  <VSA_EState2>
14.45

>  <VSA_EState3>
14.8

>  <VSA_EState4>
1.63

>  <VSA_EState5>
0.85

>  <VSA_EState6>
15.14

>  <VSA_EState7>
0

>  <VSA_EState8>
3.89

>  <VSA_EState9>
0

>  <apol>
48.5

>  <bpol>
21.94

>  <nRing>
4

>  <nHRing>
2

>  <naRing>
3

>  <naHRing>
1

>  <nARing 2>
1

>  <nAHRing 2>
1

>  <nFRing>
1

>  <nFHRing>
1

>  <nFaRing>
0

>  <nFaHRing>
0

>  <nFARing 2>
1

>  <nFAHRing 2>
1

>  <nRot>
3

>  <SLogP>
3.13

>  <SMR>
91.63

>  <TopoPSA(NO)>
81.93

>  <TopoPSA>
81.93

>  <JGI1>
0.16

>  <JGI2>
0.07

>  <JGI3>
0.05

>  <JGI4>
0.05

>  <JGI5>
0.02

>  <Diameter>
11

>  <Radius>
6

>  <TMWC10>
129.44

>  <TSRW10>
73.72

>  <MW>
335.14

>  <AMW>
7.98

>  <WPath>
1451

>  <WPol>
41

>  <Zagreb1>
136

>  <Zagreb2>
163

>  <mZagreb2>
5.42

>  <yes>


>  <nAR-cont>
0.816016

>  <nHA-cont>
0.921834225

>  <MWHBN>
0.382370965

>  <MWHBN-cont>
0.545494601

>  <TPSA-cont>
0.428077725

>  <pka_cont>
0.97

>  <yes.1>


>  <BBB_SCORE>
3.897247575

>  <MMFF94 Energy>
23.779

$$$$
Compound 321
Actelion Java MolfileCreator 2.0

  0  0  0  0  0  0              0 V3000
M  V30 BEGIN CTAB
M  V30 COUNTS 44 47 0 0 0
M  V30 BEGIN ATOM
M  V30 1 O -4.9536 -0.3987 0.0 0
M  V30 2 C -3.9759 -0.9825 0.454 0
M  V30 3 N -4.0206 -2.3365 0.7293 0
M  V30 4 C -2.6953 -0.345 0.7326 0
M  V30 5 C -2.9933 -3.0382 1.4894 0
M  V30 6 C -2.3202 1.0254 0.7268 0
M  V30 7 C -1.5701 -1.0769 1.0692 0
M  V30 8 C -1.5623 -2.5649 1.1732 0
M  V30 9 C -0.9639 1.0899 1.0786 0
M  V30 10 C -3.0176 2.2246 0.4701 0
M  V30 11 N -0.5182 -0.2137 1.2403 0
M  V30 12 C -0.3011 2.3243 1.2033 0
M  V30 13 C -2.3573 3.4507 0.5796 0
M  V30 14 C 0.8456 -0.6017 1.5628 0
M  V30 15 C -1.0179 3.4972 0.9463 0
M  V30 16 C 1.5839 -1.3274 0.4322 0
M  V30 17 C 1.7532 -0.5168 -0.8563 0 CFG=1
M  V30 18 C 2.6263 0.7243 -0.7102 0
M  V30 19 C 2.4641 -1.3252 -1.9513 0
M  V30 20 N 3.2195 0.8811 -2.0109 0
M  V30 21 C 3.1658 -0.2727 -2.7713 0
M  V30 22 C 3.8942 2.0939 -2.4083 0
M  V30 23 O 3.6409 -0.4454 -3.8808 0
M  V30 24 H -4.9135 -2.7742 0.5456 0
M  V30 25 H -3.2183 -2.8627 2.5483 0
M  V30 26 H -3.0981 -4.1099 1.2946 0
M  V30 27 H -1.2481 -2.9832 0.2098 0
M  V30 28 H -0.8743 -2.9246 1.9439 0
M  V30 29 H -4.0686 2.1939 0.1921 0
M  V30 30 H 0.7413 2.3883 1.4941 0
M  V30 31 H -2.9006 4.3712 0.382 0
M  V30 32 H 1.4045 0.2851 1.8742 0
M  V30 33 H 0.7855 -1.2517 2.4438 0
M  V30 34 H -0.5203 4.4601 1.0352 0
M  V30 35 H 1.0638 -2.2613 0.1911 0
M  V30 36 H 2.5719 -1.6222 0.809 0
M  V30 37 H 0.7706 -0.2181 -1.2453 0
M  V30 38 H 2.0415 1.6125 -0.4602 0
M  V30 39 H 3.4309 0.5936 0.0209 0
M  V30 40 H 3.2176 -2.0071 -1.5439 0
M  V30 41 H 1.7519 -1.8819 -2.566 0
M  V30 42 H 3.1895 2.9274 -2.345 0
M  V30 43 H 4.7322 2.2685 -1.7282 0
M  V30 44 H 4.2697 2.0105 -3.4313 0
M  V30 END ATOM
M  V30 BEGIN BOND
M  V30 1 2 1 2
M  V30 2 1 2 3
M  V30 3 1 2 4
M  V30 4 1 3 5
M  V30 5 1 4 6
M  V30 6 2 4 7
M  V30 7 1 5 8
M  V30 8 2 6 9
M  V30 9 1 6 10
M  V30 10 1 7 11
M  V30 11 1 9 12
M  V30 12 2 10 13
M  V30 13 1 11 14
M  V30 14 2 12 15
M  V30 15 1 14 16
M  V30 16 1 16 17
M  V30 17 1 17 18
M  V30 18 1 17 19
M  V30 19 1 18 20
M  V30 20 1 19 21
M  V30 21 1 20 22
M  V30 22 2 21 23
M  V30 23 1 7 8
M  V30 24 1 9 11
M  V30 25 1 13 15
M  V30 26 1 20 21
M  V30 27 1 3 24
M  V30 28 1 5 25
M  V30 29 1 5 26
M  V30 30 1 8 27
M  V30 31 1 8 28
M  V30 32 1 10 29
M  V30 33 1 12 30
M  V30 34 1 13 31
M  V30 35 1 14 32
M  V30 36 1 14 33
M  V30 37 1 15 34
M  V30 38 1 16 35
M  V30 39 1 16 36
M  V30 40 1 17 37
M  V30 41 1 18 38
M  V30 42 1 18 39
M  V30 43 1 19 40
M  V30 44 1 19 41
M  V30 45 1 22 42
M  V30 46 1 22 43
M  V30 47 1 22 44
M  V30 END BOND
M  V30 BEGIN COLLECTION
M  V30 MDLV30/STEABS ATOMS=(1 17)
M  V30 END COLLECTION
M  V30 END CTAB
M  END
>  <Column 1>
403

>  <level_0>
457

>  <index>
457

>  <Unnamed: 0>
457

>  <NO.>
460

>  <Name>
y17

>  <IUPAC_name>
5-[2-[(3r)-1-methyl-5-oxopyrrolidin-3-yl]ethyl]-3-4-dihydro-2h-pyrido[4-3-b]indol-1-one

>  <SMILES>
CN1C[C@H](CCn2c3c(c4ccccc42)C(=O)NCC3)CC1=O

>  <CID>
140430644

>  <logBB>
-0.12

>  <BBB+/BBB->
BBB+

>  <Inchi>
InChI=1S/C18H21N3O2/c1-20-11-12(10-16(20)22)7-9-21-14-5-3-2-4-13(14)17-15(21)6-8-19-18(17)23/h2-5-12H-6-11H2-1H3-(H-19-23)/t12-/m1/s1

>  <threshold>


>  <reference>
R11|

>  <group>
A

>  <Class>
1

>  <ABC>
18.43

>  <ABCGG>
14.9

>  <nAcid>
0

>  <nBase>
0

>  <nAromAtom>
9

>  <nAromBond>
10

>  <nAtom>
44

>  <nHeavyAtom>
23

>  <nSpiro>
0

>  <nBridgehead>
0

>  <nHetero>
5

>  <nN>
3

>  <nO>
2

>  <nF>
0

>  <BalabanJ>
1.44

>  <BertzCT>
792.91

>  <nBonds>
47

>  <nBondsO>
26

>  <nBondsS>
35

>  <nBondsD>
2

>  <nBondsT>
0

>  <nBondsA>
10

>  <nBondsM>
12

>  <nBondsKS>
41

>  <nBondsKD>
6

>  <RNCG>
0.19

>  <RPCG>
0.14

>  <FCSP3>
0.44

>  <SZ>
27.67

>  <Sm>
25.92

>  <Sv>
27.39

>  <Sse>
43.97

>  <Sp>
29.32

>  <Si>
49.65

>  <MZ>
0.63

>  <Mm>
0.59

>  <Mv>
0.62

>  <Mse>
1

>  <Mp>
0.67

>  <Mi>
1.13

>  <NsCH3>
1

>  <NdCH2>
0

>  <NssCH2>
6

>  <NtCH>
0

>  <NdsCH>
0

>  <NaaCH>
4

>  <NsssCH>
1

>  <NddC>
0

>  <NtsC>
0

>  <NdssC>
2

>  <NaasC>
2

>  <NaaaC>
2

>  <NssssC>
0

>  <NsNH3>
0

>  <NsNH2>
0

>  <NssNH2>
0

>  <NdNH>
0

>  <NssNH>
1

>  <NaaNH>
0

>  <NtN>
0

>  <NsssNH>
0

>  <NdsN>
0

>  <NaaN>
0

>  <NsssN>
1

>  <NddsN>
0

>  <NaasN>
1

>  <NssssN>
0

>  <NsOH>
0

>  <NdO>
2

>  <NssO>
0

>  <NaaO>
0

>  <NsF>
0

>  <NsSiH3>
0

>  <NssSiH2>
0

>  <NsssSiH>
0

>  <NssssSi>
0

>  <NsPH2>
0

>  <NssPH>
0

>  <NsssP>
0

>  <NdsssP>
0

>  <NsssssP>
0

>  <NsSH>
0

>  <NdS>
0

>  <NssS>
0

>  <NaaS>
0

>  <NdssS>
0

>  <NddssS>
0

>  <NsCl>
0

>  <NsBr>
0

>  <NsI>
0

>  <fragCpx>
170.05

>  <fMF>
0.45

>  <nHBAcc>
3

>  <nHBDon>
1

>  <Kier1>
16.47

>  <Kier2>
6.72

>  <Lipinski>
1

>  <GhoseFilter>
1

>  <FilterItLogS>
-3.91

>  <VMcGowan>
236.92

>  <LabuteASA>
134.8

>  <PEOE_VSA1>
14.78

>  <PEOE_VSA2>
9.59

>  <PEOE_VSA3>
0

>  <PEOE_VSA4>
0

>  <PEOE_VSA5>
0

>  <PEOE_VSA6>
18.2

>  <PEOE_VSA7>
18.41

>  <PEOE_VSA8>
56.12

>  <PEOE_VSA9>
5.56

>  <PEOE_VSA10>
0

>  <PEOE_VSA11>
0

>  <PEOE_VSA12>
5.91

>  <PEOE_VSA13>
5.91

>  <SMR_VSA1>
9.59

>  <SMR_VSA2>
0

>  <SMR_VSA3>
14.78

>  <SMR_VSA4>
5.92

>  <SMR_VSA5>
25.81

>  <SMR_VSA6>
20.14

>  <SMR_VSA7>
35.52

>  <SMR_VSA8>
0

>  <SMR_VSA9>
0

>  <SlogP_VSA1>
5.32

>  <SlogP_VSA2>
41.42

>  <SlogP_VSA3>
17.76

>  <SlogP_VSA4>
5.92

>  <SlogP_VSA5>
28.89

>  <SlogP_VSA6>
24.27

>  <SlogP_VSA7>
0

>  <SlogP_VSA8>
10.9

>  <SlogP_VSA9>
0

>  <SlogP_VSA10>
0

>  <SlogP_VSA11>
0

>  <EState_VSA1>
0

>  <EState_VSA2>
11.81

>  <EState_VSA3>
18.88

>  <EState_VSA4>
48.09

>  <EState_VSA5>
0

>  <EState_VSA6>
0

>  <EState_VSA7>
30.15

>  <EState_VSA8>
15.95

>  <EState_VSA9>
0

>  <EState_VSA10>
9.59

>  <VSA_EState1>
2.3

>  <VSA_EState2>
25.8

>  <VSA_EState3>
3.99

>  <VSA_EState4>
3.12

>  <VSA_EState5>
0.7

>  <VSA_EState6>
8.13

>  <VSA_EState7>
2.5

>  <VSA_EState8>
2.42

>  <VSA_EState9>
1.87

>  <apol>
48.97

>  <bpol>
26.79

>  <nRing>
4

>  <nHRing>
3

>  <naRing>
2

>  <naHRing>
1

>  <nARing 2>
2

>  <nAHRing 2>
2

>  <nFRing>
1

>  <nFHRing>
1

>  <nFaRing>
0

>  <nFaHRing>
0

>  <nFARing 2>
1

>  <nFAHRing 2>
1

>  <nRot>
3

>  <SLogP>
1.8

>  <SMR>
88.34

>  <TopoPSA(NO)>
54.34

>  <TopoPSA>
54.34

>  <JGI1>
0.15

>  <JGI2>
0.08

>  <JGI3>
0.07

>  <JGI4>
0.03

>  <JGI5>
0.02

>  <Diameter>
10

>  <Radius>
5

>  <TMWC10>
125.46

>  <TSRW10>
74.19

>  <MW>
311.16

>  <AMW>
7.07

>  <WPath>
1161

>  <WPol>
38

>  <Zagreb1>
128

>  <Zagreb2>
156

>  <mZagreb2>
4.94

>  <yes>


>  <nAR-cont>
1

>  <nHA-cont>
0.967789328

>  <MWHBN>
0.226760868

>  <MWHBN-cont>
0.989830017

>  <TPSA-cont>
0.620673057

>  <pka_cont>
0.97

>  <yes.1>


>  <BBB_SCORE>
5.178880467

>  <MMFF94 Energy>
14.082

$$$$
Compound 322
Actelion Java MolfileCreator 2.0

  0  0  0  0  0  0              0 V3000
M  V30 BEGIN CTAB
M  V30 COUNTS 46 48 0 0 0
M  V30 BEGIN ATOM
M  V30 1 S -1.7693 -2.8159 -2.3327 0
M  V30 2 C -0.1793 -3.0027 -1.4521 0
M  V30 3 C -1.2294 -1.8007 -3.7583 0
M  V30 4 C -0.2878 -3.9273 -0.2629 0
M  V30 5 C -0.4521 -0.5232 -3.4083 0
M  V30 6 N 0.3269 -5.1349 -0.3558 0
M  V30 7 C -0.981 -3.5288 0.8806 0
M  V30 8 N -1.0931 0.2167 -2.3312 0
M  V30 9 C 0.2321 -5.9616 0.7089 0
M  V30 10 C -1.056 -4.4021 1.9616 0
M  V30 11 C -0.6085 1.3565 -1.7793 0
M  V30 12 C -0.4398 -5.6439 1.8769 0
M  V30 13 N 0.3625 2.0984 -2.4023 0
M  V30 14 C -0.931 2.015 -0.5979 0
M  V30 15 C 0.6708 3.2018 -1.6532 0
M  V30 16 N -1.9286 1.5639 0.3424 0 CHG=1
M  V30 17 C -0.0966 3.1844 -0.4994 0
M  V30 18 O -2.5237 2.4326 0.9944 0
M  V30 19 O -2.1306 0.3427 0.4234 0 CHG=-1
M  V30 20 C -0.0383 4.2026 0.598 0
M  V30 21 C 0.7942 3.5929 1.7016 0
M  V30 22 C 0.1867 3.1241 2.8763 0
M  V30 23 C 2.1903 3.4958 1.5834 0
M  V30 24 C 0.9526 2.5588 3.8977 0
M  V30 25 C 2.9547 2.9311 2.606 0
M  V30 26 C 2.3353 2.461 3.7617 0
M  V30 27 H 0.5623 -3.3988 -2.154 0
M  V30 28 H 0.1752 -2.0292 -1.0997 0
M  V30 29 H -0.636 -2.4263 -4.4329 0
M  V30 30 H -2.1424 -1.5246 -4.2978 0
M  V30 31 H 0.5732 -0.784 -3.1208 0
M  V30 32 H -0.388 0.0998 -4.3082 0
M  V30 33 H -1.4619 -2.5553 0.929 0
M  V30 34 H -1.82 -0.3116 -1.8318 0
M  V30 35 H 0.7285 -6.9207 0.5941 0
M  V30 36 H -1.5955 -4.1141 2.8593 0
M  V30 37 H -0.4838 -6.3478 2.6998 0
M  V30 38 H 0.7766 1.8731 -3.2945 0
M  V30 39 H 1.4206 3.9035 -1.9954 0
M  V30 40 H -1.037 4.4802 0.9488 0
M  V30 41 H 0.4353 5.1289 0.2506 0
M  V30 42 H -0.8914 3.197 3.0073 0
M  V30 43 H 2.6906 3.8583 0.6884 0
M  V30 44 H 0.4675 2.1959 4.8002 0
M  V30 45 H 4.0337 2.8577 2.5002 0
M  V30 46 H 2.9298 2.0204 4.5575 0
M  V30 END ATOM
M  V30 BEGIN BOND
M  V30 1 1 1 2
M  V30 2 1 1 3
M  V30 3 1 2 4
M  V30 4 1 3 5
M  V30 5 2 4 6
M  V30 6 1 4 7
M  V30 7 1 5 8
M  V30 8 1 6 9
M  V30 9 2 7 10
M  V30 10 1 8 11
M  V30 11 2 9 12
M  V30 12 1 11 13
M  V30 13 2 11 14
M  V30 14 1 13 15
M  V30 15 1 14 16
M  V30 16 1 14 17
M  V30 17 2 16 18
M  V30 18 1 16 19
M  V30 19 1 17 20
M  V30 20 1 20 21
M  V30 21 2 21 22
M  V30 22 1 21 23
M  V30 23 1 22 24
M  V30 24 2 23 25
M  V30 25 2 24 26
M  V30 26 1 10 12
M  V30 27 2 15 17
M  V30 28 1 25 26
M  V30 29 1 2 27
M  V30 30 1 2 28
M  V30 31 1 3 29
M  V30 32 1 3 30
M  V30 33 1 5 31
M  V30 34 1 5 32
M  V30 35 1 7 33
M  V30 36 1 8 34
M  V30 37 1 9 35
M  V30 38 1 10 36
M  V30 39 1 12 37
M  V30 40 1 13 38
M  V30 41 1 15 39
M  V30 42 1 20 40
M  V30 43 1 20 41
M  V30 44 1 22 42
M  V30 45 1 23 43
M  V30 46 1 24 44
M  V30 47 1 25 45
M  V30 48 1 26 46
M  V30 END BOND
M  V30 END CTAB
M  END
>  <Column 1>
404

>  <level_0>
458

>  <index>
458

>  <Unnamed: 0>
458

>  <NO.>
461

>  <Name>
chebi: 337303

>  <IUPAC_name>
4-benzyl-3-nitro-n-[2-(pyridin-2-ylmethylsulfanyl)ethyl]-1h-pyrrol-2-amine

>  <SMILES>
O=[N+]([O-])c1c(Cc2ccccc2)c[nH]c1NCCSCc1ccccn1

>  <CID>
14022483

>  <logBB>
-0.12

>  <BBB+/BBB->
BBB+

>  <Inchi>
InChI=1S/C19H20N4O2S/c24-23(25)18-16(12-15-6-2-1-3-7-15)13-22-19(18)21-10-11-26-14-17-8-4-5-9-20-17/h1-9-13-21-22H-10-12-14H2

>  <threshold>


>  <reference>
R2|R2|R3|R3|R4|R7|R8|R12|R18|R21|R25|R26|R27|R27|R27|R38|R38|R40|R41|R41|R43|R46|R47|R48|R49|

>  <group>
A

>  <Class>
1

>  <ABC>
19.9

>  <ABCGG>
15.55

>  <nAcid>
0

>  <nBase>
0

>  <nAromAtom>
17

>  <nAromBond>
17

>  <nAtom>
46

>  <nHeavyAtom>
26

>  <nSpiro>
0

>  <nBridgehead>
0

>  <nHetero>
7

>  <nN>
4

>  <nO>
2

>  <nF>
0

>  <BalabanJ>
1.35

>  <BertzCT>
837.26

>  <nBonds>
48

>  <nBondsO>
28

>  <nBondsS>
30

>  <nBondsD>
1

>  <nBondsT>
0

>  <nBondsA>
17

>  <nBondsM>
18

>  <nBondsKS>
39

>  <nBondsKD>
9

>  <RNCG>
0.17

>  <RPCG>
0.15

>  <FCSP3>
0.21

>  <SZ>
32.33

>  <Sm>
30.68

>  <Sv>
30.07

>  <Sse>
46.27

>  <Sp>
32.32

>  <Si>
51.65

>  <MZ>
0.7

>  <Mm>
0.67

>  <Mv>
0.65

>  <Mse>
1.01

>  <Mp>
0.7

>  <Mi>
1.12

>  <NsCH3>
0

>  <NdCH2>
0

>  <NssCH2>
4

>  <NtCH>
0

>  <NdsCH>
0

>  <NaaCH>
10

>  <NsssCH>
0

>  <NddC>
0

>  <NtsC>
0

>  <NdssC>
0

>  <NaasC>
5

>  <NaaaC>
0

>  <NssssC>
0

>  <NsNH3>
0

>  <NsNH2>
0

>  <NssNH2>
0

>  <NdNH>
0

>  <NssNH>
1

>  <NaaNH>
1

>  <NtN>
0

>  <NsssNH>
0

>  <NdsN>
0

>  <NaaN>
1

>  <NsssN>
0

>  <NddsN>
1

>  <NaasN>
0

>  <NssssN>
0

>  <NsOH>
0

>  <NdO>
1

>  <NssO>
0

>  <NaaO>
0

>  <NsF>
0

>  <NsSiH3>
0

>  <NssSiH2>
0

>  <NsssSiH>
0

>  <NssssSi>
0

>  <NsPH2>
0

>  <NssPH>
0

>  <NsssP>
0

>  <NdsssP>
0

>  <NsssssP>
0

>  <NsSH>
0

>  <NdS>
0

>  <NssS>
1

>  <NaaS>
0

>  <NdssS>
0

>  <NddssS>
0

>  <NsCl>
0

>  <NsBr>
0

>  <NsI>
0

>  <fragCpx>
134.07

>  <fMF>
0.5

>  <nHBAcc>
5

>  <nHBDon>
2

>  <Kier1>
20.73

>  <Kier2>
11.11

>  <Lipinski>
1

>  <GhoseFilter>
1

>  <FilterItLogS>
-6.49

>  <VMcGowan>
275.3

>  <LabuteASA>
155.76

>  <PEOE_VSA1>
10.3

>  <PEOE_VSA2>
15.1

>  <PEOE_VSA3>
0

>  <PEOE_VSA4>
11.76

>  <PEOE_VSA5>
0

>  <PEOE_VSA6>
36.4

>  <PEOE_VSA7>
17.7

>  <PEOE_VSA8>
36.86

>  <PEOE_VSA9>
16.18

>  <PEOE_VSA10>
0

>  <PEOE_VSA11>
5.82

>  <PEOE_VSA12>
0

>  <PEOE_VSA13>
0

>  <SMR_VSA1>
4.92

>  <SMR_VSA2>
0

>  <SMR_VSA3>
9.97

>  <SMR_VSA4>
0

>  <SMR_VSA5>
12.17

>  <SMR_VSA6>
17.61

>  <SMR_VSA7>
87.86

>  <SMR_VSA8>
0

>  <SMR_VSA9>
0

>  <SlogP_VSA1>
5.32

>  <SlogP_VSA2>
27.19

>  <SlogP_VSA3>
12.17

>  <SlogP_VSA4>
10.11

>  <SlogP_VSA5>
16.82

>  <SlogP_VSA6>
60.92

>  <SlogP_VSA7>
0

>  <SlogP_VSA8>
0

>  <SlogP_VSA9>
0

>  <SlogP_VSA10>
11.51

>  <SlogP_VSA11>
0

>  <EState_VSA1>
0

>  <EState_VSA2>
10.61

>  <EState_VSA3>
24.35

>  <EState_VSA4>
22.76

>  <EState_VSA5>
0

>  <EState_VSA6>
24.16

>  <EState_VSA7>
48.53

>  <EState_VSA8>
15.28

>  <EState_VSA9>
0

>  <EState_VSA10>
10.11

>  <VSA_EState1>
0

>  <VSA_EState2>
18.47

>  <VSA_EState3>
14.65

>  <VSA_EState4>
2.9

>  <VSA_EState5>
2.13

>  <VSA_EState6>
15.61

>  <VSA_EState7>
4.03

>  <VSA_EState8>
0.64

>  <VSA_EState9>
0

>  <apol>
53.97

>  <bpol>
25.97

>  <nRing>
3

>  <nHRing>
2

>  <naRing>
3

>  <naHRing>
2

>  <nARing 2>
0

>  <nAHRing 2>
0

>  <nFRing>
0

>  <nFHRing>
0

>  <nFaRing>
0

>  <nFaHRing>
0

>  <nFARing 2>
0

>  <nFAHRing 2>
0

>  <nRot>
9

>  <SLogP>
4.25

>  <SMR>
105.58

>  <TopoPSA(NO)>
83.85

>  <TopoPSA>
109.15

>  <JGI1>
0.13

>  <JGI2>
0.05

>  <JGI3>
0.04

>  <JGI4>
0.03

>  <JGI5>
0.02

>  <Diameter>
16

>  <Radius>
8

>  <TMWC10>
127.89

>  <TSRW10>
74.2

>  <MW>
368.13

>  <AMW>
8

>  <WPath>
2010

>  <WPol>
34

>  <Zagreb1>
128

>  <Zagreb2>
145

>  <mZagreb2>
5.92

>  <yes>


>  <nAR-cont>
0.336376

>  <nHA-cont>
0.892715677

>  <MWHBN>
0.364835789

>  <MWHBN-cont>
0.613853267

>  <TPSA-cont>
0.238065222

>  <pka_cont>
0.97

>  <yes.1>


>  <BBB_SCORE>
3.111002022

>  <MMFF94 Energy>
137.03

$$$$
Compound 323
Actelion Java MolfileCreator 2.0

  0  0  0  0  0  0              0 V3000
M  V30 BEGIN CTAB
M  V30 COUNTS 64 67 0 0 0
M  V30 BEGIN ATOM
M  V30 1 O 0.0 1.1869 -2.8504 0
M  V30 2 C 0.7012 1.2901 -1.8497 0
M  V30 3 N 1.9915 1.7802 -1.8095 0
M  V30 4 C 0.1345 0.8701 -0.5354 0
M  V30 5 C 2.7371 2.2639 -2.9076 0
M  V30 6 C 0.9283 0.3327 0.4846 0
M  V30 7 C -1.2458 1.0004 -0.3384 0
M  V30 8 C 4.1414 2.1973 -2.8229 0
M  V30 9 C 2.1279 2.8738 -4.011 0
M  V30 10 C 0.3456 -0.0441 1.698 0
M  V30 11 C -1.8258 0.6213 0.8749 0
M  V30 12 N 4.7774 1.6176 -1.7205 0
M  V30 13 C 4.9046 2.8138 -3.8159 0
M  V30 14 C 2.8917 3.4491 -5.0412 0
M  V30 15 C -1.0356 0.0937 1.9049 0
M  V30 16 C 4.2889 3.4159 -4.9181 0
M  V30 17 C 2.2428 4.0817 -6.2045 0
M  V30 18 C -1.6598 -0.3049 3.2276 0
M  V30 19 C 1.2311 3.4166 -6.9183 0
M  V30 20 C 2.6121 5.3673 -6.6359 0
M  V30 21 N -1.3473 -1.6894 3.6295 0
M  V30 22 C 0.6145 4.0113 -8.0227 0
M  V30 23 C 1.9962 5.9642 -7.7399 0
M  V30 24 C -2.0278 -2.6629 2.7601 0
M  V30 25 C -1.7358 -1.9047 5.0295 0
M  V30 26 C 0.9981 5.2851 -8.4333 0
M  V30 27 C -1.6538 -4.0957 3.1314 0
M  V30 28 C -1.3296 -3.2962 5.5126 0
M  V30 29 C -1.8238 -4.4479 4.6208 0
M  V30 30 N -3.1602 -5.0198 4.916 0
M  V30 31 C -4.2488 -4.0674 5.0931 0
M  V30 32 C -3.1107 -5.9282 6.0665 0
M  V30 33 H 2.4758 1.8472 -0.9245 0
M  V30 34 H 1.9922 0.1683 0.3486 0
M  V30 35 H -1.8739 1.4003 -1.1324 0
M  V30 36 H 1.0438 2.9423 -4.0621 0
M  V30 37 H 0.9671 -0.4697 2.4844 0
M  V30 38 H -2.8998 0.7351 1.0049 0
M  V30 39 H 5.788 1.5548 -1.7389 0
M  V30 40 H 4.2943 0.8518 -1.269 0
M  V30 41 H 5.9893 2.8124 -3.757 0
M  V30 42 H 4.9158 3.8532 -5.6926 0
M  V30 43 H -2.7464 -0.1474 3.2032 0
M  V30 44 H -1.2632 0.3978 3.9731 0
M  V30 45 H 0.9187 2.4172 -6.6192 0
M  V30 46 H 3.3786 5.9241 -6.1009 0
M  V30 47 H -0.1648 3.4767 -8.5591 0
M  V30 48 H 2.2945 6.961 -8.0534 0
M  V30 49 H -1.7241 -2.5143 1.7169 0
M  V30 50 H -3.1135 -2.5243 2.7854 0
M  V30 51 H -1.222 -1.1746 5.6679 0
M  V30 52 H -2.8095 -1.7376 5.1685 0
M  V30 53 H 0.5176 5.7484 -9.2907 0
M  V30 54 H -2.2137 -4.7992 2.5022 0
M  V30 55 H -0.5967 -4.246 2.8689 0
M  V30 56 H -1.649 -3.4356 6.5517 0
M  V30 57 H -0.2313 -3.3382 5.5377 0
M  V30 58 H -1.1162 -5.2756 4.7773 0
M  V30 59 H -5.2015 -4.5998 5.2021 0
M  V30 60 H -4.1211 -3.4421 5.9827 0
M  V30 61 H -4.3742 -3.4254 4.2202 0
M  V30 62 H -2.8566 -5.4089 6.9968 0
M  V30 63 H -4.077 -6.4264 6.2063 0
M  V30 64 H -2.3782 -6.7265 5.9032 0
M  V30 END ATOM
M  V30 BEGIN BOND
M  V30 1 2 1 2
M  V30 2 1 2 3
M  V30 3 1 2 4
M  V30 4 1 3 5
M  V30 5 2 4 6
M  V30 6 1 4 7
M  V30 7 2 5 8
M  V30 8 1 5 9
M  V30 9 1 6 10
M  V30 10 2 7 11
M  V30 11 1 8 12
M  V30 12 1 8 13
M  V30 13 2 9 14
M  V30 14 2 10 15
M  V30 15 2 13 16
M  V30 16 1 14 17
M  V30 17 1 15 18
M  V30 18 2 17 19
M  V30 19 1 17 20
M  V30 20 1 18 21
M  V30 21 1 19 22
M  V30 22 2 20 23
M  V30 23 1 21 24
M  V30 24 1 21 25
M  V30 25 2 22 26
M  V30 26 1 24 27
M  V30 27 1 25 28
M  V30 28 1 27 29
M  V30 29 1 29 30
M  V30 30 1 30 31
M  V30 31 1 30 32
M  V30 32 1 11 15
M  V30 33 1 14 16
M  V30 34 1 23 26
M  V30 35 1 28 29
M  V30 36 1 3 33
M  V30 37 1 6 34
M  V30 38 1 7 35
M  V30 39 1 9 36
M  V30 40 1 10 37
M  V30 41 1 11 38
M  V30 42 1 12 39
M  V30 43 1 12 40
M  V30 44 1 13 41
M  V30 45 1 16 42
M  V30 46 1 18 43
M  V30 47 1 18 44
M  V30 48 1 19 45
M  V30 49 1 20 46
M  V30 50 1 22 47
M  V30 51 1 23 48
M  V30 52 1 24 49
M  V30 53 1 24 50
M  V30 54 1 25 51
M  V30 55 1 25 52
M  V30 56 1 26 53
M  V30 57 1 27 54
M  V30 58 1 27 55
M  V30 59 1 28 56
M  V30 60 1 28 57
M  V30 61 1 29 58
M  V30 62 1 31 59
M  V30 63 1 31 60
M  V30 64 1 31 61
M  V30 65 1 32 62
M  V30 66 1 32 63
M  V30 67 1 32 64
M  V30 END BOND
M  V30 END CTAB
M  END
>  <Column 1>
405

>  <level_0>
459

>  <index>
459

>  <Unnamed: 0>
459

>  <NO.>
462

>  <Name>


>  <IUPAC_name>


>  <SMILES>
CN(C)C1CCN(Cc2ccc(C(=O)Nc3cc(-c4ccccc4)ccc3N)cc2)CC1

>  <CID>


>  <logBB>
-0.11

>  <BBB+/BBB->
BBB+

>  <Inchi>
InChI=1S/C27H32N4O/c1-30(2)24-14-16-31(17-15-24)19-20-8-10-22(11-9-20)27(32)29-26-18-23(12-13-25(26)28)21-6-4-3-5-7-21/h3-13-18-24H-14-17-19-28H2-1-2H3-(H-29-32)

>  <threshold>


>  <reference>
R47|

>  <group>
A

>  <Class>
1

>  <ABC>
25.02

>  <ABCGG>
17.55

>  <nAcid>
0

>  <nBase>
2

>  <nAromAtom>
18

>  <nAromBond>
18

>  <nAtom>
64

>  <nHeavyAtom>
32

>  <nSpiro>
0

>  <nBridgehead>
0

>  <nHetero>
5

>  <nN>
4

>  <nO>
1

>  <nF>
0

>  <BalabanJ>
1.17

>  <BertzCT>
1039.01

>  <nBonds>
67

>  <nBondsO>
35

>  <nBondsS>
48

>  <nBondsD>
1

>  <nBondsT>
0

>  <nBondsA>
18

>  <nBondsM>
19

>  <nBondsKS>
57

>  <nBondsKD>
10

>  <RNCG>
0.17

>  <RPCG>
0.11

>  <FCSP3>
0.3

>  <SZ>
38.33

>  <Sm>
35.68

>  <Sv>
39.42

>  <Sse>
63.19

>  <Sp>
42.89

>  <Si>
72.02

>  <MZ>
0.6

>  <Mm>
0.56

>  <Mv>
0.62

>  <Mse>
0.99

>  <Mp>
0.67

>  <Mi>
1.13

>  <NsCH3>
2

>  <NdCH2>
0

>  <NssCH2>
5

>  <NtCH>
0

>  <NdsCH>
0

>  <NaaCH>
12

>  <NsssCH>
1

>  <NddC>
0

>  <NtsC>
0

>  <NdssC>
1

>  <NaasC>
6

>  <NaaaC>
0

>  <NssssC>
0

>  <NsNH3>
0

>  <NsNH2>
1

>  <NssNH2>
0

>  <NdNH>
0

>  <NssNH>
1

>  <NaaNH>
0

>  <NtN>
0

>  <NsssNH>
0

>  <NdsN>
0

>  <NaaN>
0

>  <NsssN>
2

>  <NddsN>
0

>  <NaasN>
0

>  <NssssN>
0

>  <NsOH>
0

>  <NdO>
1

>  <NssO>
0

>  <NaaO>
0

>  <NsF>
0

>  <NsSiH3>
0

>  <NssSiH2>
0

>  <NsssSiH>
0

>  <NssssSi>
0

>  <NsPH2>
0

>  <NssPH>
0

>  <NsssP>
0

>  <NdsssP>
0

>  <NsssssP>
0

>  <NsSH>
0

>  <NdS>
0

>  <NssS>
0

>  <NaaS>
0

>  <NdssS>
0

>  <NddssS>
0

>  <NsCl>
0

>  <NsBr>
0

>  <NsI>
0

>  <fragCpx>
233.05

>  <fMF>
0.42

>  <nHBAcc>
4

>  <nHBDon>
2

>  <Kier1>
25.1

>  <Kier2>
12.11

>  <Lipinski>
1

>  <GhoseFilter>
0

>  <FilterItLogS>
-6.16

>  <VMcGowan>
350.64

>  <LabuteASA>
190.4

>  <PEOE_VSA1>
15.95

>  <PEOE_VSA2>
9.69

>  <PEOE_VSA3>
0

>  <PEOE_VSA4>
0

>  <PEOE_VSA5>
0

>  <PEOE_VSA6>
48.53

>  <PEOE_VSA7>
80.98

>  <PEOE_VSA8>
18.15

>  <PEOE_VSA9>
11.37

>  <PEOE_VSA10>
0

>  <PEOE_VSA11>
0

>  <PEOE_VSA12>
0

>  <PEOE_VSA13>
5.91

>  <SMR_VSA1>
4.79

>  <SMR_VSA2>
0

>  <SMR_VSA3>
9.8

>  <SMR_VSA4>
0

>  <SMR_VSA5>
25.43

>  <SMR_VSA6>
38.24

>  <SMR_VSA7>
83.92

>  <SMR_VSA8>
0

>  <SMR_VSA9>
11.13

>  <SlogP_VSA1>
11.05

>  <SlogP_VSA2>
48.93

>  <SlogP_VSA3>
6.54

>  <SlogP_VSA4>
0

>  <SlogP_VSA5>
28.76

>  <SlogP_VSA6>
72.8

>  <SlogP_VSA7>
0

>  <SlogP_VSA8>
11.13

>  <SlogP_VSA9>
0

>  <SlogP_VSA10>
11.37

>  <SlogP_VSA11>
0

>  <EState_VSA1>
0

>  <EState_VSA2>
5.91

>  <EState_VSA3>
22.98

>  <EState_VSA4>
30.76

>  <EState_VSA5>
18.41

>  <EState_VSA6>
0

>  <EState_VSA7>
60.66

>  <EState_VSA8>
41.34

>  <EState_VSA9>
5.73

>  <EState_VSA10>
4.79

>  <VSA_EState1>
0

>  <VSA_EState2>
17.65

>  <VSA_EState3>
2.97

>  <VSA_EState4>
11.27

>  <VSA_EState5>
-0.15

>  <VSA_EState6>
24.37

>  <VSA_EState7>
2.41

>  <VSA_EState8>
3.15

>  <VSA_EState9>
4.32

>  <apol>
71.63

>  <bpol>
36.39

>  <nRing>
4

>  <nHRing>
1

>  <naRing>
3

>  <naHRing>
0

>  <nARing 2>
1

>  <nAHRing 2>
1

>  <nFRing>
0

>  <nFHRing>
0

>  <nFaRing>
0

>  <nFaHRing>
0

>  <nFARing 2>
0

>  <nFAHRing 2>
0

>  <nRot>
6

>  <SLogP>
4.71

>  <SMR>
132.67

>  <TopoPSA(NO)>
61.6

>  <TopoPSA>
61.6

>  <JGI1>
0.19

>  <JGI2>
0.08

>  <JGI3>
0.03

>  <JGI4>
0.04

>  <JGI5>
0.03

>  <Diameter>
19

>  <Radius>
10

>  <TMWC10>
143.7

>  <TSRW10>
67.84

>  <MW>
428.26

>  <AMW>
6.69

>  <WPath>
3545

>  <WPol>
49

>  <Zagreb1>
166

>  <Zagreb2>
192

>  <mZagreb2>
7.03

>  <yes>


>  <nAR-cont>
0.816016

>  <nHA-cont>
0.658856097

>  <MWHBN>
0.289932896

>  <MWHBN-cont>
0.869736157

>  <TPSA-cont>
0.569993749

>  <pka_cont>
0.97

>  <yes.1>


>  <BBB_SCORE>
4.40446383

>  <MMFF94 Energy>
81.605

$$$$
Compound 324
Actelion Java MolfileCreator 2.0

  0  0  0  0  0  0              0 V3000
M  V30 BEGIN CTAB
M  V30 COUNTS 31 33 0 0 0
M  V30 BEGIN ATOM
M  V30 1 O -2.0839 2.0037 3.1272 0
M  V30 2 C -1.1852 1.4871 2.4885 0
M  V30 3 N 0.0964 1.3552 2.8838 0
M  V30 4 N -1.3231 0.9493 1.2397 0
M  V30 5 C 0.837 0.7453 1.917 0
M  V30 6 C -0.0878 0.3951 0.707 0
M  V30 7 O 2.0381 0.5287 2.0248 0
M  V30 8 C -0.1478 -1.1302 0.5354 0
M  V30 9 C 0.2411 1.1349 -0.5972 0
M  V30 10 C -1.2838 -1.8882 0.8749 0
M  V30 11 C 0.9741 -1.8172 0.031 0
M  V30 12 C -0.5877 0.9506 -1.7247 0
M  V30 13 C 1.3342 2.009 -0.7262 0
M  V30 14 C -1.2987 -3.2754 0.7053 0
M  V30 15 C 0.9565 -3.2031 -0.1374 0
M  V30 16 C -0.3318 1.6115 -2.9278 0
M  V30 17 C 1.5878 2.6697 -1.9321 0
M  V30 18 C -0.1806 -3.9314 0.1981 0
M  V30 19 C 0.756 2.472 -3.0304 0
M  V30 20 H 0.454 1.6761 3.7663 0
M  V30 21 H -2.2003 0.987 0.7425 0
M  V30 22 H -2.175 -1.4169 1.2832 0
M  V30 23 H 1.8807 -1.2726 -0.2327 0
M  V30 24 H -1.4415 0.2766 -1.6754 0
M  V30 25 H 2.0172 2.1938 0.1002 0
M  V30 26 H -2.1849 -3.8453 0.9742 0
M  V30 27 H 1.834 -3.7124 -0.5279 0
M  V30 28 H -0.9809 1.4511 -3.785 0
M  V30 29 H 2.4406 3.3398 -2.0123 0
M  V30 30 H -0.1934 -5.0104 0.0692 0
M  V30 31 H 0.958 2.9865 -3.9662 0
M  V30 END ATOM
M  V30 BEGIN BOND
M  V30 1 2 1 2
M  V30 2 1 2 3
M  V30 3 1 2 4
M  V30 4 1 3 5
M  V30 5 1 4 6
M  V30 6 2 5 7
M  V30 7 1 6 8
M  V30 8 1 6 9
M  V30 9 2 8 10
M  V30 10 1 8 11
M  V30 11 2 9 12
M  V30 12 1 9 13
M  V30 13 1 10 14
M  V30 14 2 11 15
M  V30 15 1 12 16
M  V30 16 2 13 17
M  V30 17 2 14 18
M  V30 18 2 16 19
M  V30 19 1 5 6
M  V30 20 1 15 18
M  V30 21 1 17 19
M  V30 22 1 3 20
M  V30 23 1 4 21
M  V30 24 1 10 22
M  V30 25 1 11 23
M  V30 26 1 12 24
M  V30 27 1 13 25
M  V30 28 1 14 26
M  V30 29 1 15 27
M  V30 30 1 16 28
M  V30 31 1 17 29
M  V30 32 1 18 30
M  V30 33 1 19 31
M  V30 END BOND
M  V30 END CTAB
M  END
>  <Column 1>
407

>  <level_0>
461

>  <index>
461

>  <Unnamed: 0>
461

>  <NO.>
464

>  <Name>
phenytoin

>  <IUPAC_name>
5-5-diphenylimidazolidine-2-4-dione

>  <SMILES>
O=C1NC(=O)C(c2ccccc2)(c2ccccc2)N1

>  <CID>
1775

>  <logBB>
-0.1

>  <BBB+/BBB->
BBB+

>  <Inchi>
InChI=1S/C15H12N2O2/c18-13-15(17-14(19)16-13-11-7-3-1-4-8-11)12-9-5-2-6-10-12/h1-10H-(H2-16-17-18-19)

>  <threshold>


>  <reference>
R18|R26|R27|R3|R25|R38|R41|R46|R40|R50|R27|R2|R2|R8|R21|R27|R3|R11|R12|R35|R36|R39|R43|R47|R5|R44|

>  <group>
A

>  <Class>
1

>  <ABC>
14.88

>  <ABCGG>
13.07

>  <nAcid>
0

>  <nBase>
0

>  <nAromAtom>
12

>  <nAromBond>
12

>  <nAtom>
31

>  <nHeavyAtom>
19

>  <nSpiro>
0

>  <nBridgehead>
0

>  <nHetero>
4

>  <nN>
2

>  <nO>
2

>  <nF>
0

>  <BalabanJ>
1.85

>  <BertzCT>
583.61

>  <nBonds>
33

>  <nBondsO>
21

>  <nBondsS>
19

>  <nBondsD>
2

>  <nBondsT>
0

>  <nBondsA>
12

>  <nBondsM>
14

>  <nBondsKS>
25

>  <nBondsKD>
8

>  <RNCG>
0.18

>  <RPCG>
0.19

>  <FCSP3>
0.07

>  <SZ>
22

>  <Sm>
21

>  <Sv>
21.2

>  <Sse>
31.31

>  <Sp>
22.07

>  <Si>
34.49

>  <MZ>
0.71

>  <Mm>
0.68

>  <Mv>
0.68

>  <Mse>
1.01

>  <Mp>
0.71

>  <Mi>
1.11

>  <NsCH3>
0

>  <NdCH2>
0

>  <NssCH2>
0

>  <NtCH>
0

>  <NdsCH>
0

>  <NaaCH>
10

>  <NsssCH>
0

>  <NddC>
0

>  <NtsC>
0

>  <NdssC>
2

>  <NaasC>
2

>  <NaaaC>
0

>  <NssssC>
1

>  <NsNH3>
0

>  <NsNH2>
0

>  <NssNH2>
0

>  <NdNH>
0

>  <NssNH>
2

>  <NaaNH>
0

>  <NtN>
0

>  <NsssNH>
0

>  <NdsN>
0

>  <NaaN>
0

>  <NsssN>
0

>  <NddsN>
0

>  <NaasN>
0

>  <NssssN>
0

>  <NsOH>
0

>  <NdO>
2

>  <NssO>
0

>  <NaaO>
0

>  <NsF>
0

>  <NsSiH3>
0

>  <NssSiH2>
0

>  <NsssSiH>
0

>  <NssssSi>
0

>  <NsPH2>
0

>  <NssPH>
0

>  <NsssP>
0

>  <NdsssP>
0

>  <NsssssP>
0

>  <NsSH>
0

>  <NdS>
0

>  <NssS>
0

>  <NaaS>
0

>  <NdssS>
0

>  <NddssS>
0

>  <NsCl>
0

>  <NsBr>
0

>  <NsI>
0

>  <fragCpx>
99.04

>  <fMF>
0.55

>  <nHBAcc>
2

>  <nHBDon>
2

>  <Kier1>
13.96

>  <Kier2>
5.78

>  <Lipinski>
1

>  <GhoseFilter>
1

>  <FilterItLogS>
-4.11

>  <VMcGowan>
186.93

>  <LabuteASA>
110

>  <PEOE_VSA1>
5.32

>  <PEOE_VSA2>
10.11

>  <PEOE_VSA3>
4.79

>  <PEOE_VSA4>
0

>  <PEOE_VSA5>
0

>  <PEOE_VSA6>
60.66

>  <PEOE_VSA7>
11.13

>  <PEOE_VSA8>
0

>  <PEOE_VSA9>
0

>  <PEOE_VSA10>
0

>  <PEOE_VSA11>
5.54

>  <PEOE_VSA12>
0

>  <PEOE_VSA13>
5.91

>  <SMR_VSA1>
9.59

>  <SMR_VSA2>
0

>  <SMR_VSA3>
10.63

>  <SMR_VSA4>
0

>  <SMR_VSA5>
5.54

>  <SMR_VSA6>
0

>  <SMR_VSA7>
71.79

>  <SMR_VSA8>
0

>  <SMR_VSA9>
0

>  <SlogP_VSA1>
10.63

>  <SlogP_VSA2>
11.94

>  <SlogP_VSA3>
10.33

>  <SlogP_VSA4>
0

>  <SlogP_VSA5>
11.13

>  <SlogP_VSA6>
60.66

>  <SlogP_VSA7>
0

>  <SlogP_VSA8>
0

>  <SlogP_VSA9>
0

>  <SlogP_VSA10>
4.79

>  <SlogP_VSA11>
0

>  <EState_VSA1>
11.57

>  <EState_VSA2>
5.91

>  <EState_VSA3>
0

>  <EState_VSA4>
11.13

>  <EState_VSA5>
0

>  <EState_VSA6>
0

>  <EState_VSA7>
60.66

>  <EState_VSA8>
10.63

>  <EState_VSA9>
0

>  <EState_VSA10>
9.59

>  <VSA_EState1>
0

>  <VSA_EState2>
23.89

>  <VSA_EState3>
5.07

>  <VSA_EState4>
0.34

>  <VSA_EState5>
-0.35

>  <VSA_EState6>
17.98

>  <VSA_EState7>
0

>  <VSA_EState8>
0

>  <VSA_EState9>
0

>  <apol>
36.86

>  <bpol>
14.91

>  <nRing>
3

>  <nHRing>
1

>  <naRing>
2

>  <naHRing>
0

>  <nARing 2>
1

>  <nAHRing 2>
1

>  <nFRing>
0

>  <nFHRing>
0

>  <nFaRing>
0

>  <nFaHRing>
0

>  <nFARing 2>
0

>  <nFAHRing 2>
0

>  <nRot>
2

>  <SLogP>
1.77

>  <SMR>
70.34

>  <TopoPSA(NO)>
58.2

>  <TopoPSA>
58.2

>  <JGI1>
0.19

>  <JGI2>
0.09

>  <JGI3>
0.07

>  <JGI4>
0.03

>  <JGI5>
0.02

>  <Diameter>
8

>  <Radius>
4

>  <TMWC10>
114.64

>  <TSRW10>
67.21

>  <MW>
252.09

>  <AMW>
8.13

>  <WPath>
617

>  <WPol>
32

>  <Zagreb1>
102

>  <Zagreb2>
124

>  <mZagreb2>
4.21

>  <yes>


>  <nAR-cont>
0.816016

>  <nHA-cont>
0.998649058

>  <MWHBN>
0.251931332

>  <MWHBN-cont>
0.956471012

>  <TPSA-cont>
0.59372786

>  <pka_cont>
0.97

>  <yes.1>


>  <BBB_SCORE>
4.921827296

>  <MMFF94 Energy>
-1.2041

$$$$
Compound 325
Actelion Java MolfileCreator 2.0

  0  0  0  0  0  0              0 V3000
M  V30 BEGIN CTAB
M  V30 COUNTS 34 34 0 0 0
M  V30 BEGIN ATOM
M  V30 1 S 2.0573 4.2765 0.7908 0
M  V30 2 C 1.0028 3.0606 0.3806 0
M  V30 3 N -0.1014 2.7981 1.1277 0
M  V30 4 N 1.1767 2.3222 -0.7465 0
M  V30 5 C -1.039 1.8377 0.85 0
M  V30 6 C 0.3423 1.3247 -1.1791 0
M  V30 7 O -2.1215 1.8581 1.4323 0
M  V30 8 C -0.6163 0.7433 -0.1352 0
M  V30 9 O 0.4376 0.9098 -2.3322 0
M  V30 10 C 0.1901 -0.35 0.6926 0 CFG=2
M  V30 11 C -1.8645 0.1399 -0.8321 0
M  V30 12 C 0.7615 -1.4908 -0.1947 0
M  V30 13 C -0.6326 -0.9546 1.847 0
M  V30 14 C -2.6906 1.1404 -1.6421 0
M  V30 15 C 1.7227 -2.429 0.5461 0
M  V30 16 C 2.3766 -3.418 -0.4081 0
M  V30 17 H -0.324 3.4324 1.8852 0
M  V30 18 H 1.9077 2.6019 -1.389 0
M  V30 19 H 1.0504 0.1535 1.1564 0
M  V30 20 H -2.5326 -0.311 -0.0892 0
M  V30 21 H -1.5662 -0.6646 -1.514 0
M  V30 22 H -0.0572 -2.0867 -0.6147 0
M  V30 23 H 1.3102 -1.0637 -1.0397 0
M  V30 24 H -0.0041 -1.5725 2.4957 0
M  V30 25 H -1.061 -0.1862 2.4953 0
M  V30 26 H -1.446 -1.5854 1.4756 0
M  V30 27 H -3.0853 1.9453 -1.0159 0
M  V30 28 H -3.5454 0.6291 -2.0975 0
M  V30 29 H -2.108 1.5901 -2.4508 0
M  V30 30 H 2.5031 -1.8449 1.0469 0
M  V30 31 H 1.1893 -2.9963 1.3155 0
M  V30 32 H 3.0511 -4.0833 0.1398 0
M  V30 33 H 1.6238 -4.0345 -0.9098 0
M  V30 34 H 2.9614 -2.8978 -1.1733 0
M  V30 END ATOM
M  V30 BEGIN BOND
M  V30 1 2 1 2
M  V30 2 1 2 3
M  V30 3 1 2 4
M  V30 4 1 3 5
M  V30 5 1 4 6
M  V30 6 2 5 7
M  V30 7 1 5 8
M  V30 8 2 6 9
M  V30 9 1 8 10
M  V30 10 1 8 11
M  V30 11 1 10 12
M  V30 12 1 10 13
M  V30 13 1 11 14
M  V30 14 1 12 15
M  V30 15 1 15 16
M  V30 16 1 6 8
M  V30 17 1 3 17
M  V30 18 1 4 18
M  V30 19 1 10 19
M  V30 20 1 11 20
M  V30 21 1 11 21
M  V30 22 1 12 22
M  V30 23 1 12 23
M  V30 24 1 13 24
M  V30 25 1 13 25
M  V30 26 1 13 26
M  V30 27 1 14 27
M  V30 28 1 14 28
M  V30 29 1 14 29
M  V30 30 1 15 30
M  V30 31 1 15 31
M  V30 32 1 16 32
M  V30 33 1 16 33
M  V30 34 1 16 34
M  V30 END BOND
M  V30 BEGIN COLLECTION
M  V30 MDLV30/STERAC1 ATOMS=(1 10)
M  V30 END COLLECTION
M  V30 END CTAB
M  END
>  <Column 1>
408

>  <level_0>
462

>  <index>
462

>  <Unnamed: 0>
462

>  <NO.>
465

>  <Name>
thiopental (thiopentone)

>  <IUPAC_name>
5-ethyl-5-pentan-2-yl-2-sulfanylidene-1-3-diazinane-4-6-dione

>  <SMILES>
CCCC(C)C1(CC)C(=O)NC(=S)NC1=O

>  <CID>
3000715

>  <logBB>
-0.1

>  <BBB+/BBB->
BBB+

>  <Inchi>
InChI=1S/C11H18N2O2S/c1-4-6-7(3)11(5-2)8(14)12-10(16)13-9(11)15/h7H-4-6H2-1-3H3-(H2-12-13-14-15-16)

>  <threshold>


>  <reference>
R4|R40|R8|R21|R27|R2|R2|R27|R3|R47|R38|R41|R3|R12|R18|R25|R26|R27|R35|R36|R39|R43|R46|R5|

>  <group>
A

>  <Class>
1

>  <ABC>
11.57

>  <ABCGG>
11.41

>  <nAcid>
0

>  <nBase>
0

>  <nAromAtom>
0

>  <nAromBond>
0

>  <nAtom>
34

>  <nHeavyAtom>
16

>  <nSpiro>
0

>  <nBridgehead>
0

>  <nHetero>
5

>  <nN>
2

>  <nO>
2

>  <nF>
0

>  <BalabanJ>
2.9

>  <BertzCT>
307.95

>  <nBonds>
34

>  <nBondsO>
16

>  <nBondsS>
31

>  <nBondsD>
3

>  <nBondsT>
0

>  <nBondsA>
0

>  <nBondsM>
3

>  <nBondsKS>
31

>  <nBondsKD>
3

>  <RNCG>
0.2

>  <RPCG>
0.16

>  <FCSP3>
0.73

>  <SZ>
21.67

>  <Sm>
20.18

>  <Sv>
20.01

>  <Sse>
34.05

>  <Sp>
22.2

>  <Si>
38.66

>  <MZ>
0.64

>  <Mm>
0.59

>  <Mv>
0.59

>  <Mse>
1

>  <Mp>
0.65

>  <Mi>
1.14

>  <NsCH3>
3

>  <NdCH2>
0

>  <NssCH2>
3

>  <NtCH>
0

>  <NdsCH>
0

>  <NaaCH>
0

>  <NsssCH>
1

>  <NddC>
0

>  <NtsC>
0

>  <NdssC>
3

>  <NaasC>
0

>  <NaaaC>
0

>  <NssssC>
1

>  <NsNH3>
0

>  <NsNH2>
0

>  <NssNH2>
0

>  <NdNH>
0

>  <NssNH>
2

>  <NaaNH>
0

>  <NtN>
0

>  <NsssNH>
0

>  <NdsN>
0

>  <NaaN>
0

>  <NsssN>
0

>  <NddsN>
0

>  <NaasN>
0

>  <NssssN>
0

>  <NsOH>
0

>  <NdO>
2

>  <NssO>
0

>  <NaaO>
0

>  <NsF>
0

>  <NsSiH3>
0

>  <NssSiH2>
0

>  <NsssSiH>
0

>  <NssssSi>
0

>  <NsPH2>
0

>  <NssPH>
0

>  <NsssP>
0

>  <NdsssP>
0

>  <NsssssP>
0

>  <NsSH>
0

>  <NdS>
1

>  <NssS>
0

>  <NaaS>
0

>  <NdssS>
0

>  <NddssS>
0

>  <NsCl>
0

>  <NsBr>
0

>  <NsI>
0

>  <fragCpx>
16.05

>  <fMF>
0.18

>  <nHBAcc>
3

>  <nHBDon>
2

>  <Kier1>
14.06

>  <Kier2>
5.56

>  <Lipinski>
1

>  <GhoseFilter>
1

>  <FilterItLogS>
-3.38

>  <VMcGowan>
190.14

>  <LabuteASA>
101.16

>  <PEOE_VSA1>
10.63

>  <PEOE_VSA2>
9.59

>  <PEOE_VSA3>
0

>  <PEOE_VSA4>
0

>  <PEOE_VSA5>
0

>  <PEOE_VSA6>
27.19

>  <PEOE_VSA7>
30.98

>  <PEOE_VSA8>
0

>  <PEOE_VSA9>
0

>  <PEOE_VSA10>
5.41

>  <PEOE_VSA11>
5.11

>  <PEOE_VSA12>
11.81

>  <PEOE_VSA13>
0

>  <SMR_VSA1>
9.59

>  <SMR_VSA2>
0

>  <SMR_VSA3>
10.63

>  <SMR_VSA4>
11.33

>  <SMR_VSA5>
40.03

>  <SMR_VSA6>
0

>  <SMR_VSA7>
0

>  <SMR_VSA8>
0

>  <SMR_VSA9>
0

>  <SlogP_VSA1>
10.63

>  <SlogP_VSA2>
16.93

>  <SlogP_VSA3>
9.59

>  <SlogP_VSA4>
11.33

>  <SlogP_VSA5>
40.03

>  <SlogP_VSA6>
0

>  <SlogP_VSA7>
0

>  <SlogP_VSA8>
0

>  <SlogP_VSA9>
0

>  <SlogP_VSA10>
0

>  <SlogP_VSA11>
0

>  <EState_VSA1>
5.41

>  <EState_VSA2>
22.84

>  <EState_VSA3>
6.42

>  <EState_VSA4>
12.84

>  <EState_VSA5>
0

>  <EState_VSA6>
0

>  <EState_VSA7>
20.77

>  <EState_VSA8>
10.63

>  <EState_VSA9>
12.22

>  <EState_VSA10>
9.59

>  <VSA_EState1>
0

>  <VSA_EState2>
24.05

>  <VSA_EState3>
5.22

>  <VSA_EState4>
-0.96

>  <VSA_EState5>
-0.5

>  <VSA_EState6>
0

>  <VSA_EState7>
2.3

>  <VSA_EState8>
5.85

>  <VSA_EState9>
0

>  <apol>
37.08

>  <bpol>
22.16

>  <nRing>
1

>  <nHRing>
1

>  <naRing>
0

>  <naHRing>
0

>  <nARing 2>
1

>  <nAHRing 2>
1

>  <nFRing>
0

>  <nFHRing>
0

>  <nFaRing>
0

>  <nFaHRing>
0

>  <nFARing 2>
0

>  <nFAHRing 2>
0

>  <nRot>
4

>  <SLogP>
1.35

>  <SMR>
65.68

>  <TopoPSA(NO)>
58.2

>  <TopoPSA>
90.29

>  <JGI1>
0.31

>  <JGI2>
0.14

>  <JGI3>
0.09

>  <JGI4>
0.04

>  <JGI5>
0.04

>  <Diameter>
8

>  <Radius>
4

>  <TMWC10>
103.73

>  <TSRW10>
48.75

>  <MW>
242.11

>  <AMW>
7.12

>  <WPath>
398

>  <WPol>
29

>  <Zagreb1>
78

>  <Zagreb2>
94

>  <mZagreb2>
3.79

>  <yes>


>  <nAR-cont>
0.816016

>  <nHA-cont>
0.954961865

>  <MWHBN>
0.32133915

>  <MWHBN-cont>
0.772656527

>  <TPSA-cont>
0.369719733

>  <pka_cont>
0.97

>  <yes.1>


>  <BBB_SCORE>
4.154402123

>  <MMFF94 Energy>
-90.977

$$$$
Compound 326
Actelion Java MolfileCreator 2.0

  0  0  0  0  0  0              0 V3000
M  V30 BEGIN CTAB
M  V30 COUNTS 26 27 0 0 0
M  V30 BEGIN ATOM
M  V30 1 O -1.2617 0.7884 2.6036 0
M  V30 2 C -0.6652 1.0896 1.583 0
M  V30 3 N -0.1044 0.2863 0.5885 0
M  V30 4 C -0.449 2.4925 1.1545 0
M  V30 5 N 0.442 1.1139 -0.411 0
M  V30 6 C -0.3813 -1.0782 0.3964 0
M  V30 7 C 0.2043 2.4263 -0.0153 0
M  V30 8 C 1.6468 0.6784 -1.103 0
M  V30 9 C -0.8023 -1.5607 -0.8489 0
M  V30 10 C -0.2595 -1.9695 1.4678 0
M  V30 11 C 0.6674 3.5974 -0.8122 0
M  V30 12 C -1.0773 -2.9187 -1.0249 0
M  V30 13 C -0.5345 -3.3275 1.2916 0
M  V30 14 C -0.9399 -3.8017 0.0449 0
M  V30 15 H -0.7691 3.3468 1.7203 0
M  V30 16 H 1.8349 1.3062 -1.9803 0
M  V30 17 H 1.5725 -0.3517 -1.4612 0
M  V30 18 H 2.5144 0.7468 -0.4377 0
M  V30 19 H -0.9355 -0.8776 -1.6837 0
M  V30 20 H 0.0469 -1.6112 2.4481 0
M  V30 21 H 1.7602 3.6196 -0.869 0
M  V30 22 H 0.3369 4.5419 -0.3668 0
M  V30 23 H 0.2659 3.5498 -1.8295 0
M  V30 24 H -1.4074 -3.2845 -1.9935 0
M  V30 25 H -0.4387 -4.0119 2.1306 0
M  V30 26 H -1.159 -4.8579 -0.0893 0
M  V30 END ATOM
M  V30 BEGIN BOND
M  V30 1 2 1 2
M  V30 2 1 2 3
M  V30 3 1 2 4
M  V30 4 1 3 5
M  V30 5 1 3 6
M  V30 6 2 4 7
M  V30 7 1 5 8
M  V30 8 2 6 9
M  V30 9 1 6 10
M  V30 10 1 7 11
M  V30 11 1 9 12
M  V30 12 2 10 13
M  V30 13 2 12 14
M  V30 14 1 5 7
M  V30 15 1 13 14
M  V30 16 1 4 15
M  V30 17 1 8 16
M  V30 18 1 8 17
M  V30 19 1 8 18
M  V30 20 1 9 19
M  V30 21 1 10 20
M  V30 22 1 11 21
M  V30 23 1 11 22
M  V30 24 1 11 23
M  V30 25 1 12 24
M  V30 26 1 13 25
M  V30 27 1 14 26
M  V30 END BOND
M  V30 END CTAB
M  END
>  <Column 1>
409

>  <level_0>
463

>  <index>
463

>  <Unnamed: 0>
463

>  <NO.>
466

>  <Name>
antipyrine ok

>  <IUPAC_name>
1-5-dimethyl-2-phenylpyrazol-3-one

>  <SMILES>
Cc1cc(=O)n(-c2ccccc2)n1C

>  <CID>
2206

>  <logBB>
-0.1

>  <BBB+/BBB->
BBB+

>  <Inchi>
InChI=1S/C11H12N2O/c1-9-8-11(14)13(12(9)2)10-6-4-3-5-7-10/h3-8H-1-2H3

>  <threshold>


>  <reference>
R3|R38|R41|R40|R8|R21|R27|R2|R2|R27|R3|R3|R5|R11|R17|R18|R26|R27|R46|R47|R48|R12|R25|R35|R36|R39|R43|R49|R49|R44|R42|

>  <group>
A

>  <Class>
1

>  <ABC>
10.77

>  <ABCGG>
10.02

>  <nAcid>
0

>  <nBase>
0

>  <nAromAtom>
11

>  <nAromBond>
11

>  <nAtom>
26

>  <nHeavyAtom>
14

>  <nSpiro>
0

>  <nBridgehead>
0

>  <nHetero>
3

>  <nN>
2

>  <nO>
1

>  <nF>
0

>  <BalabanJ>
2

>  <BertzCT>
493.75

>  <nBonds>
27

>  <nBondsO>
15

>  <nBondsS>
15

>  <nBondsD>
1

>  <nBondsT>
0

>  <nBondsA>
11

>  <nBondsM>
12

>  <nBondsKS>
22

>  <nBondsKD>
5

>  <RNCG>
0.27

>  <RPCG>
0.26

>  <FCSP3>
0.18

>  <SZ>
16.67

>  <Sm>
15.67

>  <Sv>
16.48

>  <Sse>
25.98

>  <Sp>
17.59

>  <Si>
29.28

>  <MZ>
0.64

>  <Mm>
0.6

>  <Mv>
0.63

>  <Mse>
1

>  <Mp>
0.68

>  <Mi>
1.13

>  <NsCH3>
2

>  <NdCH2>
0

>  <NssCH2>
0

>  <NtCH>
0

>  <NdsCH>
0

>  <NaaCH>
6

>  <NsssCH>
0

>  <NddC>
0

>  <NtsC>
0

>  <NdssC>
0

>  <NaasC>
2

>  <NaaaC>
0

>  <NssssC>
0

>  <NsNH3>
0

>  <NsNH2>
0

>  <NssNH2>
0

>  <NdNH>
0

>  <NssNH>
0

>  <NaaNH>
0

>  <NtN>
0

>  <NsssNH>
0

>  <NdsN>
0

>  <NaaN>
0

>  <NsssN>
0

>  <NddsN>
0

>  <NaasN>
2

>  <NssssN>
0

>  <NsOH>
0

>  <NdO>
1

>  <NssO>
0

>  <NaaO>
0

>  <NsF>
0

>  <NsSiH3>
0

>  <NssSiH2>
0

>  <NsssSiH>
0

>  <NssssSi>
0

>  <NsPH2>
0

>  <NssPH>
0

>  <NsssP>
0

>  <NdsssP>
0

>  <NsssssP>
0

>  <NsSH>
0

>  <NdS>
0

>  <NssS>
0

>  <NaaS>
0

>  <NdssS>
0

>  <NddssS>
0

>  <NsCl>
0

>  <NsBr>
0

>  <NsI>
0

>  <fragCpx>
43.03

>  <fMF>
0.42

>  <nHBAcc>
3

>  <nHBDon>
0

>  <Kier1>
10.52

>  <Kier2>
4.24

>  <Lipinski>
1

>  <GhoseFilter>
1

>  <FilterItLogS>
-1.88

>  <VMcGowan>
148.46

>  <LabuteASA>
82.2

>  <PEOE_VSA1>
0

>  <PEOE_VSA2>
9.48

>  <PEOE_VSA3>
4.68

>  <PEOE_VSA4>
0

>  <PEOE_VSA5>
0

>  <PEOE_VSA6>
18.2

>  <PEOE_VSA7>
19.06

>  <PEOE_VSA8>
18.81

>  <PEOE_VSA9>
5.69

>  <PEOE_VSA10>
0

>  <PEOE_VSA11>
0

>  <PEOE_VSA12>
0

>  <PEOE_VSA13>
5.56

>  <SMR_VSA1>
0

>  <SMR_VSA2>
0

>  <SMR_VSA3>
9.36

>  <SMR_VSA4>
7.05

>  <SMR_VSA5>
6.92

>  <SMR_VSA6>
0

>  <SMR_VSA7>
52.45

>  <SMR_VSA8>
0

>  <SMR_VSA9>
5.69

>  <SlogP_VSA1>
5.56

>  <SlogP_VSA2>
9.36

>  <SlogP_VSA3>
7.05

>  <SlogP_VSA4>
6.92

>  <SlogP_VSA5>
5.69

>  <SlogP_VSA6>
41.19

>  <SlogP_VSA7>
0

>  <SlogP_VSA8>
5.69

>  <SlogP_VSA9>
0

>  <SlogP_VSA10>
0

>  <SlogP_VSA11>
0

>  <EState_VSA1>
0

>  <EState_VSA2>
5.56

>  <EState_VSA3>
0

>  <EState_VSA4>
11.38

>  <EState_VSA5>
0

>  <EState_VSA6>
10.75

>  <EState_VSA7>
48.99

>  <EState_VSA8>
0

>  <EState_VSA9>
0

>  <EState_VSA10>
4.79

>  <VSA_EState1>
3.49

>  <VSA_EState2>
11.6

>  <VSA_EState3>
0

>  <VSA_EState4>
1.86

>  <VSA_EState5>
0

>  <VSA_EState6>
11.24

>  <VSA_EState7>
0

>  <VSA_EState8>
1.92

>  <VSA_EState9>
1.88

>  <apol>
29.37

>  <bpol>
15.19

>  <nRing>
2

>  <nHRing>
1

>  <naRing>
2

>  <naHRing>
1

>  <nARing 2>
0

>  <nAHRing 2>
0

>  <nFRing>
0

>  <nFHRing>
0

>  <nFaRing>
0

>  <nFaHRing>
0

>  <nFARing 2>
0

>  <nFAHRing 2>
0

>  <nRot>
1

>  <SLogP>
1.48

>  <SMR>
55.75

>  <TopoPSA(NO)>
26.93

>  <TopoPSA>
26.93

>  <JGI1>
0.17

>  <JGI2>
0.08

>  <JGI3>
0.09

>  <JGI4>
0.04

>  <JGI5>
0.02

>  <Diameter>
7

>  <Radius>
4

>  <TMWC10>
99.1

>  <TSRW10>
60.04

>  <MW>
188.09

>  <AMW>
7.23

>  <WPath>
284

>  <WPol>
20

>  <Zagreb1>
72

>  <Zagreb2>
85

>  <mZagreb2>
3.11

>  <yes>


>  <nAR-cont>
0.336376

>  <nHA-cont>
0.887625254

>  <MWHBN>
0.218745134

>  <MWHBN-cont>
0.995722687

>  <TPSA-cont>
0.812011877

>  <pka_cont>
0.97

>  <yes.1>


>  <BBB_SCORE>
4.826609039

>  <MMFF94 Energy>
62.235

$$$$
Compound 327
Actelion Java MolfileCreator 2.0

  0  0  0  0  0  0              0 V3000
M  V30 BEGIN CTAB
M  V30 COUNTS 12 11 0 0 0
M  V30 BEGIN ATOM
M  V30 1 O 1.1918 0.8937 0.6702 0
M  V30 2 C 0.2326 0.3192 -0.2116 0
M  V30 3 C 0.2804 -1.1961 -0.0892 0
M  V30 4 C -1.138 0.8668 0.1528 0
M  V30 5 H 2.0653 0.5482 0.4189 0
M  V30 6 H 0.4877 0.6213 -1.2331 0
M  V30 7 H -0.4505 -1.6718 -0.75 0
M  V30 8 H 0.083 -1.5132 0.9408 0
M  V30 9 H 1.2773 -1.5697 -0.3468 0
M  V30 10 H -1.3961 0.6231 1.1895 0
M  V30 11 H -1.145 1.9596 0.0767 0
M  V30 12 H -1.9147 0.4665 -0.5058 0
M  V30 END ATOM
M  V30 BEGIN BOND
M  V30 1 1 1 2
M  V30 2 1 2 3
M  V30 3 1 2 4
M  V30 4 1 1 5
M  V30 5 1 2 6
M  V30 6 1 3 7
M  V30 7 1 3 8
M  V30 8 1 3 9
M  V30 9 1 4 10
M  V30 10 1 4 11
M  V30 11 1 4 12
M  V30 END BOND
M  V30 END CTAB
M  END
>  <Column 1>
410

>  <level_0>
464

>  <index>
464

>  <Unnamed: 0>
464

>  <NO.>
467

>  <Name>
2-propanol (isopropanol)

>  <IUPAC_name>
propan-2-ol

>  <SMILES>
CC(C)O

>  <CID>
3776

>  <logBB>
-0.1

>  <BBB+/BBB->
BBB+

>  <Inchi>
InChI=1S/C3H8O/c1-3(2)4/h3-4H-1-2H3

>  <threshold>


>  <reference>
R5|R39|R2|R2|R8|R27|R11|R12|R12|R17|R18|R21|R22|R25|R26|R27|R27|R32|R33|R36|R43|R46|R48|R49|R40|R3|R38|R41|R47|R44|

>  <group>
A

>  <Class>
1

>  <ABC>
2.45

>  <ABCGG>
2.45

>  <nAcid>
0

>  <nBase>
0

>  <nAromAtom>
0

>  <nAromBond>
0

>  <nAtom>
12

>  <nHeavyAtom>
4

>  <nSpiro>
0

>  <nBridgehead>
0

>  <nHetero>
1

>  <nN>
0

>  <nO>
1

>  <nF>
0

>  <BalabanJ>
2.32

>  <BertzCT>
8

>  <nBonds>
11

>  <nBondsO>
3

>  <nBondsS>
11

>  <nBondsD>
0

>  <nBondsT>
0

>  <nBondsA>
0

>  <nBondsM>
0

>  <nBondsKS>
11

>  <nBondsKD>
0

>  <RNCG>
0.83

>  <RPCG>
0.45

>  <FCSP3>
1

>  <SZ>
5.67

>  <Sm>
5

>  <Sv>
5.88

>  <Sse>
11.88

>  <Sp>
6.67

>  <Si>
13.87

>  <MZ>
0.47

>  <Mm>
0.42

>  <Mv>
0.49

>  <Mse>
0.99

>  <Mp>
0.56

>  <Mi>
1.16

>  <NsCH3>
2

>  <NdCH2>
0

>  <NssCH2>
0

>  <NtCH>
0

>  <NdsCH>
0

>  <NaaCH>
0

>  <NsssCH>
1

>  <NddC>
0

>  <NtsC>
0

>  <NdssC>
0

>  <NaasC>
0

>  <NaaaC>
0

>  <NssssC>
0

>  <NsNH3>
0

>  <NsNH2>
0

>  <NssNH2>
0

>  <NdNH>
0

>  <NssNH>
0

>  <NaaNH>
0

>  <NtN>
0

>  <NsssNH>
0

>  <NdsN>
0

>  <NaaN>
0

>  <NsssN>
0

>  <NddsN>
0

>  <NaasN>
0

>  <NssssN>
0

>  <NsOH>
1

>  <NdO>
0

>  <NssO>
0

>  <NaaO>
0

>  <NsF>
0

>  <NsSiH3>
0

>  <NssSiH2>
0

>  <NsssSiH>
0

>  <NssssSi>
0

>  <NsPH2>
0

>  <NssPH>
0

>  <NsssP>
0

>  <NdsssP>
0

>  <NsssssP>
0

>  <NsSH>
0

>  <NdS>
0

>  <NssS>
0

>  <NaaS>
0

>  <NdssS>
0

>  <NddssS>
0

>  <NsCl>
0

>  <NsBr>
0

>  <NsI>
0

>  <fragCpx>
3.01

>  <fMF>
0

>  <nHBAcc>
1

>  <nHBDon>
1

>  <Kier1>
4

>  <Kier2>
1.33

>  <Lipinski>
1

>  <GhoseFilter>
0

>  <FilterItLogS>
0.05

>  <VMcGowan>
59

>  <LabuteASA>
26.26

>  <PEOE_VSA1>
5.11

>  <PEOE_VSA2>
0

>  <PEOE_VSA3>
0

>  <PEOE_VSA4>
0

>  <PEOE_VSA5>
0

>  <PEOE_VSA6>
0

>  <PEOE_VSA7>
13.85

>  <PEOE_VSA8>
6.1

>  <PEOE_VSA9>
0

>  <PEOE_VSA10>
0

>  <PEOE_VSA11>
0

>  <PEOE_VSA12>
0

>  <PEOE_VSA13>
0

>  <SMR_VSA1>
5.11

>  <SMR_VSA2>
0

>  <SMR_VSA3>
0

>  <SMR_VSA4>
0

>  <SMR_VSA5>
19.95

>  <SMR_VSA6>
0

>  <SMR_VSA7>
0

>  <SMR_VSA8>
0

>  <SMR_VSA9>
0

>  <SlogP_VSA1>
0

>  <SlogP_VSA2>
11.21

>  <SlogP_VSA3>
0

>  <SlogP_VSA4>
0

>  <SlogP_VSA5>
13.85

>  <SlogP_VSA6>
0

>  <SlogP_VSA7>
0

>  <SlogP_VSA8>
0

>  <SlogP_VSA9>
0

>  <SlogP_VSA10>
0

>  <SlogP_VSA11>
0

>  <EState_VSA1>
0

>  <EState_VSA2>
6.1

>  <EState_VSA3>
0

>  <EState_VSA4>
0

>  <EState_VSA5>
0

>  <EState_VSA6>
13.85

>  <EState_VSA7>
0

>  <EState_VSA8>
0

>  <EState_VSA9>
5.11

>  <EState_VSA10>
0

>  <VSA_EState1>
0

>  <VSA_EState2>
0

>  <VSA_EState3>
8.06

>  <VSA_EState4>
0

>  <VSA_EState5>
0

>  <VSA_EState6>
0

>  <VSA_EState7>
-0.17

>  <VSA_EState8>
3.44

>  <VSA_EState9>
0

>  <apol>
11.15

>  <bpol>
8.03

>  <nRing>
0

>  <nHRing>
0

>  <naRing>
0

>  <naHRing>
0

>  <nARing 2>
0

>  <nAHRing 2>
0

>  <nFRing>
0

>  <nFHRing>
0

>  <nFaRing>
0

>  <nFaHRing>
0

>  <nFARing 2>
0

>  <nFAHRing 2>
0

>  <nRot>
0

>  <SLogP>
0.39

>  <SMR>
17.35

>  <TopoPSA(NO)>
20.23

>  <TopoPSA>
20.23

>  <JGI1>
0.5

>  <JGI2>
0

>  <JGI3>
0

>  <JGI4>
0

>  <JGI5>
0

>  <Diameter>
2

>  <Radius>
1

>  <TMWC10>
48.77

>  <TSRW10>
24.18

>  <MW>
60.06

>  <AMW>
5

>  <WPath>
9

>  <WPol>
0

>  <Zagreb1>
12

>  <Zagreb2>
9

>  <mZagreb2>
1

>  <yes>


>  <nAR-cont>
0.336376

>  <nHA-cont>
0

>  <MWHBN>
0.258069887

>  <MWHBN-cont>
0.945197101

>  <TPSA-cont>
0.858782038

>  <pka_cont>
0.97

>  <yes.1>


>  <BBB_SCORE>
3.956735727

>  <MMFF94 Energy>
0.99634

$$$$
Compound 328
Actelion Java MolfileCreator 2.0

  0  0  0  0  0  0              0 V3000
M  V30 BEGIN CTAB
M  V30 COUNTS 13 12 0 0 0
M  V30 BEGIN ATOM
M  V30 1 O 0.6053 0.3026 -1.6655 0
M  V30 2 C -0.224 0.2432 -0.7591 0
M  V30 3 C 0.1172 -0.2391 0.6387 0
M  V30 4 C -1.6555 0.6538 -0.988 0
M  V30 5 C 1.5765 -0.6317 0.7817 0
M  V30 6 H -0.5179 -1.1013 0.8672 0
M  V30 7 H -0.1162 0.5652 1.3442 0
M  V30 8 H -1.7845 0.9813 -2.0234 0
M  V30 9 H -2.315 -0.1973 -0.8021 0
M  V30 10 H -1.9102 1.4816 -0.3215 0
M  V30 11 H 1.7814 -0.9728 1.8011 0
M  V30 12 H 2.2348 0.2162 0.5657 0
M  V30 13 H 1.8352 -1.4413 0.0913 0
M  V30 END ATOM
M  V30 BEGIN BOND
M  V30 1 2 1 2
M  V30 2 1 2 3
M  V30 3 1 2 4
M  V30 4 1 3 5
M  V30 5 1 3 6
M  V30 6 1 3 7
M  V30 7 1 4 8
M  V30 8 1 4 9
M  V30 9 1 4 10
M  V30 10 1 5 11
M  V30 11 1 5 12
M  V30 12 1 5 13
M  V30 END BOND
M  V30 END CTAB
M  END
>  <Column 1>
411

>  <level_0>
465

>  <index>
465

>  <Unnamed: 0>
465

>  <NO.>
468

>  <Name>
2-butanone

>  <IUPAC_name>
butan-2-one

>  <SMILES>
CCC(C)=O

>  <CID>
6569

>  <logBB>
-0.1

>  <BBB+/BBB->
BBB+

>  <Inchi>
InChI=1S/C4H8O/c1-3-4(2)5/h3H2-1-2H3

>  <threshold>


>  <reference>
R3|R38|R41|R47|R40|R5|R11|R12|R17|R22|R25|R32|R33|R35|R36|R39|R43|R46|R48|R49|R2|R2|R27|R8|R21|R27|R44|R44|

>  <group>
A

>  <Class>
1

>  <ABC>
3.05

>  <ABCGG>
3.31

>  <nAcid>
0

>  <nBase>
0

>  <nAromAtom>
0

>  <nAromBond>
0

>  <nAtom>
13

>  <nHeavyAtom>
5

>  <nSpiro>
0

>  <nBridgehead>
0

>  <nHetero>
1

>  <nN>
0

>  <nO>
1

>  <nF>
0

>  <BalabanJ>
2.54

>  <BertzCT>
38.91

>  <nBonds>
12

>  <nBondsO>
4

>  <nBondsS>
11

>  <nBondsD>
1

>  <nBondsT>
0

>  <nBondsA>
0

>  <nBondsM>
1

>  <nBondsKS>
11

>  <nBondsKD>
1

>  <RNCG>
0.82

>  <RPCG>
0.35

>  <FCSP3>
0.75

>  <SZ>
6.67

>  <Sm>
6

>  <Sv>
6.88

>  <Sse>
12.88

>  <Sp>
7.67

>  <Si>
14.87

>  <MZ>
0.51

>  <Mm>
0.46

>  <Mv>
0.53

>  <Mse>
0.99

>  <Mp>
0.59

>  <Mi>
1.14

>  <NsCH3>
2

>  <NdCH2>
0

>  <NssCH2>
1

>  <NtCH>
0

>  <NdsCH>
0

>  <NaaCH>
0

>  <NsssCH>
0

>  <NddC>
0

>  <NtsC>
0

>  <NdssC>
1

>  <NaasC>
0

>  <NaaaC>
0

>  <NssssC>
0

>  <NsNH3>
0

>  <NsNH2>
0

>  <NssNH2>
0

>  <NdNH>
0

>  <NssNH>
0

>  <NaaNH>
0

>  <NtN>
0

>  <NsssNH>
0

>  <NdsN>
0

>  <NaaN>
0

>  <NsssN>
0

>  <NddsN>
0

>  <NaasN>
0

>  <NssssN>
0

>  <NsOH>
0

>  <NdO>
1

>  <NssO>
0

>  <NaaO>
0

>  <NsF>
0

>  <NsSiH3>
0

>  <NssSiH2>
0

>  <NsssSiH>
0

>  <NssssSi>
0

>  <NsPH2>
0

>  <NssPH>
0

>  <NsssP>
0

>  <NdsssP>
0

>  <NsssssP>
0

>  <NsSH>
0

>  <NdS>
0

>  <NssS>
0

>  <NaaS>
0

>  <NdssS>
0

>  <NddssS>
0

>  <NsCl>
0

>  <NsBr>
0

>  <NsI>
0

>  <fragCpx>
4.01

>  <fMF>
0

>  <nHBAcc>
1

>  <nHBDon>
0

>  <Kier1>
5

>  <Kier2>
2.25

>  <Lipinski>
1

>  <GhoseFilter>
0

>  <FilterItLogS>
-0.87

>  <VMcGowan>
68.79

>  <LabuteASA>
32

>  <PEOE_VSA1>
4.79

>  <PEOE_VSA2>
0

>  <PEOE_VSA3>
0

>  <PEOE_VSA4>
0

>  <PEOE_VSA5>
0

>  <PEOE_VSA6>
6.92

>  <PEOE_VSA7>
6.92

>  <PEOE_VSA8>
6.42

>  <PEOE_VSA9>
0

>  <PEOE_VSA10>
5.78

>  <PEOE_VSA11>
0

>  <PEOE_VSA12>
0

>  <PEOE_VSA13>
0

>  <SMR_VSA1>
4.79

>  <SMR_VSA2>
0

>  <SMR_VSA3>
0

>  <SMR_VSA4>
0

>  <SMR_VSA5>
20.27

>  <SMR_VSA6>
0

>  <SMR_VSA7>
0

>  <SMR_VSA8>
0

>  <SMR_VSA9>
0

>  <SlogP_VSA1>
0

>  <SlogP_VSA2>
5.78

>  <SlogP_VSA3>
4.79

>  <SlogP_VSA4>
0

>  <SlogP_VSA5>
20.27

>  <SlogP_VSA6>
0

>  <SlogP_VSA7>
0

>  <SlogP_VSA8>
0

>  <SlogP_VSA9>
0

>  <SlogP_VSA10>
0

>  <SlogP_VSA11>
0

>  <EState_VSA1>
0

>  <EState_VSA2>
5.78

>  <EState_VSA3>
6.42

>  <EState_VSA4>
0

>  <EState_VSA5>
0

>  <EState_VSA6>
6.92

>  <EState_VSA7>
6.92

>  <EState_VSA8>
0

>  <EState_VSA9>
0

>  <EState_VSA10>
4.79

>  <VSA_EState1>
0

>  <VSA_EState2>
9.81

>  <VSA_EState3>
0

>  <VSA_EState4>
0

>  <VSA_EState5>
0.25

>  <VSA_EState6>
0

>  <VSA_EState7>
0.67

>  <VSA_EState8>
3.43

>  <VSA_EState9>
0

>  <apol>
12.82

>  <bpol>
8.89

>  <nRing>
0

>  <nHRing>
0

>  <naRing>
0

>  <naHRing>
0

>  <nARing 2>
0

>  <nAHRing 2>
0

>  <nFRing>
0

>  <nFHRing>
0

>  <nFaRing>
0

>  <nFaHRing>
0

>  <nFARing 2>
0

>  <nFAHRing 2>
0

>  <nRot>
1

>  <SLogP>
0.99

>  <SMR>
20.97

>  <TopoPSA(NO)>
17.07

>  <TopoPSA>
17.07

>  <JGI1>
0.38

>  <JGI2>
0.11

>  <JGI3>
0

>  <JGI4>
0

>  <JGI5>
0

>  <Diameter>
3

>  <Radius>
2

>  <TMWC10>
55.94

>  <TSRW10>
27.25

>  <MW>
72.06

>  <AMW>
5.54

>  <WPath>
18

>  <WPol>
2

>  <Zagreb1>
16

>  <Zagreb2>
14

>  <mZagreb2>
1.33

>  <yes>


>  <nAR-cont>
0.336376

>  <nHA-cont>
0

>  <MWHBN>
0.117802056

>  <MWHBN-cont>
0.819750485

>  <TPSA-cont>
0.8808408

>  <pka_cont>
0.97

>  <yes.1>


>  <BBB_SCORE>
3.812683327

>  <MMFF94 Energy>
0.45496

$$$$
Compound 329
Actelion Java MolfileCreator 2.0

  0  0  0  0  0  0              0 V3000
M  V30 BEGIN CTAB
M  V30 COUNTS 38 39 0 0 0
M  V30 BEGIN ATOM
M  V30 1 O -0.705 0.8617 -0.3916 0
M  V30 2 C -0.8705 1.6498 0.7151 0
M  V30 3 C -1.8126 0.731 -1.2875 0
M  V30 4 C 0.2617 1.8324 1.5444 0
M  V30 5 C -2.0694 2.2765 1.0896 0
M  V30 6 C -1.4375 -0.1798 -2.4695 0 CFG=1
M  V30 7 C 0.1516 2.6125 2.6971 0
M  V30 8 C 1.6131 1.3792 1.4844 0
M  V30 9 C -2.1493 3.0534 2.2482 0
M  V30 10 O -0.4342 0.4569 -3.2734 0
M  V30 11 C -0.9224 -1.5746 -2.0465 0
M  V30 12 N 1.3867 2.619 3.3067 0
M  V30 13 C -1.0407 3.2352 3.0764 0
M  V30 14 C 2.2783 1.8756 2.5814 0
M  V30 15 N 0.4308 -1.4931 -1.4648 0
M  V30 16 C 0.8938 -2.7784 -0.9234 0
M  V30 17 C 1.2411 -3.7702 -2.0344 0
M  V30 18 C 2.1304 -2.522 -0.058 0
M  V30 19 H -2.0803 1.7214 -1.6753 0
M  V30 20 H -2.6649 0.2861 -0.7604 0
M  V30 21 H -2.9695 2.1777 0.4915 0
M  V30 22 H -2.322 -0.3028 -3.1044 0
M  V30 23 H 2.0447 0.7597 0.7093 0
M  V30 24 H -3.0933 3.5269 2.5104 0
M  V30 25 H 0.413 0.201 -2.851 0
M  V30 26 H -1.6305 -2.0284 -1.3437 0
M  V30 27 H -0.8796 -2.1973 -2.9465 0
M  V30 28 H 1.5992 3.11 4.164 0
M  V30 29 H -1.1079 3.8402 3.9746 0
M  V30 30 H 3.3055 1.7686 2.9028 0
M  V30 31 H 0.3975 -0.8032 -0.7033 0
M  V30 32 H 0.1216 -3.2135 -0.2768 0
M  V30 33 H 1.9777 -3.351 -2.7291 0
M  V30 34 H 0.3561 -4.0587 -2.61 0
M  V30 35 H 1.6648 -4.6885 -1.6128 0
M  V30 36 H 1.8933 -1.8557 0.7787 0
M  V30 37 H 2.9406 -2.0651 -0.6376 0
M  V30 38 H 2.5072 -3.4591 0.3662 0
M  V30 END ATOM
M  V30 BEGIN BOND
M  V30 1 1 1 2
M  V30 2 1 1 3
M  V30 3 2 2 4
M  V30 4 1 2 5
M  V30 5 1 3 6
M  V30 6 1 4 7
M  V30 7 1 4 8
M  V30 8 2 5 9
M  V30 9 1 6 10
M  V30 10 1 6 11
M  V30 11 1 7 12
M  V30 12 2 7 13
M  V30 13 2 8 14
M  V30 14 1 11 15
M  V30 15 1 15 16
M  V30 16 1 16 17
M  V30 17 1 16 18
M  V30 18 1 9 13
M  V30 19 1 12 14
M  V30 20 1 3 19
M  V30 21 1 3 20
M  V30 22 1 5 21
M  V30 23 1 6 22
M  V30 24 1 8 23
M  V30 25 1 9 24
M  V30 26 1 10 25
M  V30 27 1 11 26
M  V30 28 1 11 27
M  V30 29 1 12 28
M  V30 30 1 13 29
M  V30 31 1 14 30
M  V30 32 1 15 31
M  V30 33 1 16 32
M  V30 34 1 17 33
M  V30 35 1 17 34
M  V30 36 1 17 35
M  V30 37 1 18 36
M  V30 38 1 18 37
M  V30 39 1 18 38
M  V30 END BOND
M  V30 BEGIN COLLECTION
M  V30 MDLV30/STERAC1 ATOMS=(1 6)
M  V30 END COLLECTION
M  V30 END CTAB
M  END
>  <Column 1>
412

>  <level_0>
466

>  <index>
466

>  <Unnamed: 0>
466

>  <NO.>
469

>  <Name>
pindolol

>  <IUPAC_name>
1-(1h-indol-4-yloxy)-3-(propan-2-ylamino)propan-2-ol

>  <SMILES>
CC(C)NCC(O)COc1cccc2[nH]ccc12

>  <CID>
4828

>  <logBB>
-0.1

>  <BBB+/BBB->
BBB+

>  <Inchi>
InChI=1S/C14H20N2O2/c1-10(2)16-8-11(17)9-18-14-5-3-4-13-12(14)6-7-15-13/h3-7-10-11-15-17H-8-9H2-1-2H3

>  <threshold>


>  <reference>
R3|R18|R26|R27|R47|R2|R2|R8|R21|R27|R27|R43|R46|R40|R25|R38|R41|R3|R42|

>  <group>
A

>  <Class>
1

>  <ABC>
13.68

>  <ABCGG>
11.92

>  <nAcid>
0

>  <nBase>
1

>  <nAromAtom>
9

>  <nAromBond>
10

>  <nAtom>
38

>  <nHeavyAtom>
18

>  <nSpiro>
0

>  <nBridgehead>
0

>  <nHetero>
4

>  <nN>
2

>  <nO>
2

>  <nF>
0

>  <BalabanJ>
1.69

>  <BertzCT>
493.25

>  <nBonds>
39

>  <nBondsO>
19

>  <nBondsS>
29

>  <nBondsD>
0

>  <nBondsT>
0

>  <nBondsA>
10

>  <nBondsM>
10

>  <nBondsKS>
35

>  <nBondsKD>
4

>  <RNCG>
0.27

>  <RPCG>
0.12

>  <FCSP3>
0.43

>  <SZ>
22.33

>  <Sm>
20.67

>  <Sv>
22.36

>  <Sse>
37.87

>  <Sp>
24.26

>  <Si>
43.15

>  <MZ>
0.59

>  <Mm>
0.54

>  <Mv>
0.59

>  <Mse>
1

>  <Mp>
0.64

>  <Mi>
1.14

>  <NsCH3>
2

>  <NdCH2>
0

>  <NssCH2>
2

>  <NtCH>
0

>  <NdsCH>
0

>  <NaaCH>
5

>  <NsssCH>
2

>  <NddC>
0

>  <NtsC>
0

>  <NdssC>
0

>  <NaasC>
1

>  <NaaaC>
2

>  <NssssC>
0

>  <NsNH3>
0

>  <NsNH2>
0

>  <NssNH2>
0

>  <NdNH>
0

>  <NssNH>
1

>  <NaaNH>
1

>  <NtN>
0

>  <NsssNH>
0

>  <NdsN>
0

>  <NaaN>
0

>  <NsssN>
0

>  <NddsN>
0

>  <NaasN>
0

>  <NssssN>
0

>  <NsOH>
1

>  <NdO>
0

>  <NssO>
1

>  <NaaO>
0

>  <NsF>
0

>  <NsSiH3>
0

>  <NssSiH2>
0

>  <NsssSiH>
0

>  <NssssSi>
0

>  <NsPH2>
0

>  <NssPH>
0

>  <NsssP>
0

>  <NdsssP>
0

>  <NsssssP>
0

>  <NsSH>
0

>  <NdS>
0

>  <NssS>
0

>  <NaaS>
0

>  <NdssS>
0

>  <NddssS>
0

>  <NsCl>
0

>  <NsBr>
0

>  <NsI>
0

>  <fragCpx>
55.04

>  <fMF>
0.24

>  <nHBAcc>
3

>  <nHBDon>
3

>  <Kier1>
14.41

>  <Kier2>
6.96

>  <Lipinski>
1

>  <GhoseFilter>
1

>  <FilterItLogS>
-3.43

>  <VMcGowan>
200.9

>  <LabuteASA>
106.97

>  <PEOE_VSA1>
20.14

>  <PEOE_VSA2>
0

>  <PEOE_VSA3>
0

>  <PEOE_VSA4>
0

>  <PEOE_VSA5>
0

>  <PEOE_VSA6>
19.91

>  <PEOE_VSA7>
18.2

>  <PEOE_VSA8>
29.69

>  <PEOE_VSA9>
0

>  <PEOE_VSA10>
18.46

>  <PEOE_VSA11>
0

>  <PEOE_VSA12>
0

>  <PEOE_VSA13>
0

>  <SMR_VSA1>
9.84

>  <SMR_VSA2>
0

>  <SMR_VSA3>
10.3

>  <SMR_VSA4>
0

>  <SMR_VSA5>
25.99

>  <SMR_VSA6>
13.15

>  <SMR_VSA7>
30.46

>  <SMR_VSA8>
0

>  <SMR_VSA9>
5.75

>  <SlogP_VSA1>
10.05

>  <SlogP_VSA2>
35.39

>  <SlogP_VSA3>
0

>  <SlogP_VSA4>
0

>  <SlogP_VSA5>
13.85

>  <SlogP_VSA6>
30.46

>  <SlogP_VSA7>
0

>  <SlogP_VSA8>
10.9

>  <SlogP_VSA9>
0

>  <SlogP_VSA10>
0

>  <SlogP_VSA11>
5.75

>  <EState_VSA1>
6.1

>  <EState_VSA2>
0

>  <EState_VSA3>
19.19

>  <EState_VSA4>
16.65

>  <EState_VSA5>
0

>  <EState_VSA6>
0

>  <EState_VSA7>
44.31

>  <EState_VSA8>
10.3

>  <EState_VSA9>
4.74

>  <EState_VSA10>
5.11

>  <VSA_EState1>
5.66

>  <VSA_EState2>
3.13

>  <VSA_EState3>
14.01

>  <VSA_EState4>
1.04

>  <VSA_EState5>
0.8

>  <VSA_EState6>
8.2

>  <VSA_EState7>
1.38

>  <VSA_EState8>
4.94

>  <VSA_EState9>
0

>  <apol>
40.52

>  <bpol>
22.94

>  <nRing>
2

>  <nHRing>
1

>  <naRing>
2

>  <naHRing>
1

>  <nARing 2>
0

>  <nAHRing 2>
0

>  <nFRing>
1

>  <nFHRing>
1

>  <nFaRing>
1

>  <nFaHRing>
1

>  <nFARing 2>
0

>  <nFAHRing 2>
0

>  <nRot>
6

>  <SLogP>
1.91

>  <SMR>
72.94

>  <TopoPSA(NO)>
57.28

>  <TopoPSA>
57.28

>  <JGI1>
0.18

>  <JGI2>
0.08

>  <JGI3>
0.03

>  <JGI4>
0.04

>  <JGI5>
0.02

>  <Diameter>
10

>  <Radius>
5

>  <TMWC10>
107.49

>  <TSRW10>
64.02

>  <MW>
248.15

>  <AMW>
6.53

>  <WPath>
687

>  <WPol>
22

>  <Zagreb1>
88

>  <Zagreb2>
99

>  <mZagreb2>
4.06

>  <yes>


>  <nAR-cont>
0.336376

>  <nHA-cont>
0.991161285

>  <MWHBN>
0.380885211

>  <MWHBN-cont>
0.55133077

>  <TPSA-cont>
0.600150031

>  <pka_cont>
0.97

>  <yes.1>


>  <BBB_SCORE>
3.839833502

>  <MMFF94 Energy>
59.795

$$$$
Compound 330
Actelion Java MolfileCreator 2.0

  0  0  0  0  0  0              0 V3000
M  V30 BEGIN CTAB
M  V30 COUNTS 30 32 0 0 0
M  V30 BEGIN ATOM
M  V30 1 O 2.7918 -1.5946 -0.7173 0
M  V30 2 C 2.1024 -0.6067 -0.9663 0
M  V30 3 N 0.8406 -0.3486 -0.4474 0
M  V30 4 N 2.6151 0.3311 -1.812 0
M  V30 5 C 0.0025 0.7234 -0.853 0
M  V30 6 C 0.2819 -1.193 0.5507 0
M  V30 7 C -0.36 1.7474 0.0416 0
M  V30 8 C -0.4591 0.7541 -2.179 0
M  V30 9 C -0.0329 -0.6947 1.8305 0
M  V30 10 C 0.0578 -2.5457 0.2522 0
M  V30 11 C 0.0788 1.7765 1.4446 0
M  V30 12 C -1.1442 2.8114 -0.4295 0
M  V30 13 C -1.2515 1.8101 -2.6266 0
M  V30 14 C 0.2178 0.6992 2.2329 0
M  V30 15 C -0.5544 -1.575 2.7915 0
M  V30 16 C -0.4738 -3.4037 1.2146 0
M  V30 17 C -1.5886 2.841 -1.7538 0
M  V30 18 C -0.7795 -2.9187 2.4832 0
M  V30 19 H 3.538 0.1618 -2.184 0
M  V30 20 H 2.1769 1.2263 -1.9606 0
M  V30 21 H -0.2017 -0.0496 -2.8651 0
M  V30 22 H 0.3104 -2.9369 -0.73 0
M  V30 23 H 0.2694 2.7606 1.8657 0
M  V30 24 H -1.4314 3.6211 0.2382 0
M  V30 25 H -1.6068 1.8267 -3.6539 0
M  V30 26 H 0.5208 0.8437 3.2674 0
M  V30 27 H -0.7953 -1.2191 3.7907 0
M  V30 28 H -0.638 -4.451 0.9755 0
M  V30 29 H -2.2067 3.6662 -2.0996 0
M  V30 30 H -1.1868 -3.5876 3.237 0
M  V30 END ATOM
M  V30 BEGIN BOND
M  V30 1 2 1 2
M  V30 2 1 2 3
M  V30 3 1 2 4
M  V30 4 1 3 5
M  V30 5 1 3 6
M  V30 6 2 5 7
M  V30 7 1 5 8
M  V30 8 2 6 9
M  V30 9 1 6 10
M  V30 10 1 7 11
M  V30 11 1 7 12
M  V30 12 2 8 13
M  V30 13 1 9 14
M  V30 14 1 9 15
M  V30 15 2 10 16
M  V30 16 2 12 17
M  V30 17 2 15 18
M  V30 18 2 11 14
M  V30 19 1 13 17
M  V30 20 1 16 18
M  V30 21 1 4 19
M  V30 22 1 4 20
M  V30 23 1 8 21
M  V30 24 1 10 22
M  V30 25 1 11 23
M  V30 26 1 12 24
M  V30 27 1 13 25
M  V30 28 1 14 26
M  V30 29 1 15 27
M  V30 30 1 16 28
M  V30 31 1 17 29
M  V30 32 1 18 30
M  V30 END BOND
M  V30 END CTAB
M  END
>  <Column 1>
413

>  <level_0>
467

>  <index>
467

>  <Unnamed: 0>
467

>  <NO.>
470

>  <Name>
carbamazepine

>  <IUPAC_name>
benzo[b][1]benzazepine-11-carboxamide

>  <SMILES>
NC(=O)N1c2ccccc2C=Cc2ccccc21

>  <CID>
2554

>  <logBB>
-0.1

>  <BBB+/BBB->
BBB+

>  <Inchi>
InChI=1S/C15H12N2O/c16-15(18)17-13-7-3-1-5-11(13)9-10-12-6-2-4-8-14(12)17/h1-10H-(H2-16-18)

>  <threshold>


>  <reference>
R11|R12|R25|R46|R48|R18|R26|R27|R20|R27|R2|R2|R40|R50|R21|R27|R8|R3|R5|R11|R36|R38|R39|R41|R43|R47|R49|R49|R44|

>  <group>
A

>  <Class>
1

>  <ABC>
14.16

>  <ABCGG>
11.79

>  <nAcid>
0

>  <nBase>
0

>  <nAromAtom>
12

>  <nAromBond>
12

>  <nAtom>
30

>  <nHeavyAtom>
18

>  <nSpiro>
0

>  <nBridgehead>
0

>  <nHetero>
3

>  <nN>
2

>  <nO>
1

>  <nF>
0

>  <BalabanJ>
1.85

>  <BertzCT>
596.95

>  <nBonds>
32

>  <nBondsO>
20

>  <nBondsS>
18

>  <nBondsD>
2

>  <nBondsT>
0

>  <nBondsA>
12

>  <nBondsM>
14

>  <nBondsKS>
24

>  <nBondsKD>
8

>  <RNCG>
0.25

>  <RPCG>
0.23

>  <FCSP3>
0

>  <SZ>
20.67

>  <Sm>
19.67

>  <Sv>
20.48

>  <Sse>
29.98

>  <Sp>
21.59

>  <Si>
33.28

>  <MZ>
0.69

>  <Mm>
0.66

>  <Mv>
0.68

>  <Mse>
1

>  <Mp>
0.72

>  <Mi>
1.11

>  <NsCH3>
0

>  <NdCH2>
0

>  <NssCH2>
0

>  <NtCH>
0

>  <NdsCH>
2

>  <NaaCH>
8

>  <NsssCH>
0

>  <NddC>
0

>  <NtsC>
0

>  <NdssC>
1

>  <NaasC>
4

>  <NaaaC>
0

>  <NssssC>
0

>  <NsNH3>
0

>  <NsNH2>
1

>  <NssNH2>
0

>  <NdNH>
0

>  <NssNH>
0

>  <NaaNH>
0

>  <NtN>
0

>  <NsssNH>
0

>  <NdsN>
0

>  <NaaN>
0

>  <NsssN>
1

>  <NddsN>
0

>  <NaasN>
0

>  <NssssN>
0

>  <NsOH>
0

>  <NdO>
1

>  <NssO>
0

>  <NaaO>
0

>  <NsF>
0

>  <NsSiH3>
0

>  <NssSiH2>
0

>  <NsssSiH>
0

>  <NssssSi>
0

>  <NsPH2>
0

>  <NssPH>
0

>  <NsssP>
0

>  <NdsssP>
0

>  <NsssssP>
0

>  <NsSH>
0

>  <NdS>
0

>  <NssS>
0

>  <NaaS>
0

>  <NdssS>
0

>  <NddssS>
0

>  <NsCl>
0

>  <NsBr>
0

>  <NsI>
0

>  <fragCpx>
94.03

>  <fMF>
0.5

>  <nHBAcc>
1

>  <nHBDon>
1

>  <Kier1>
13.01

>  <Kier2>
5.55

>  <Lipinski>
1

>  <GhoseFilter>
1

>  <FilterItLogS>
-2.72

>  <VMcGowan>
181.06

>  <LabuteASA>
105.15

>  <PEOE_VSA1>
5.73

>  <PEOE_VSA2>
4.9

>  <PEOE_VSA3>
4.79

>  <PEOE_VSA4>
0

>  <PEOE_VSA5>
0

>  <PEOE_VSA6>
48.55

>  <PEOE_VSA7>
23.26

>  <PEOE_VSA8>
0

>  <PEOE_VSA9>
11.37

>  <PEOE_VSA10>
0

>  <PEOE_VSA11>
0

>  <PEOE_VSA12>
0

>  <PEOE_VSA13>
0

>  <SMR_VSA1>
4.79

>  <SMR_VSA2>
0

>  <SMR_VSA3>
0

>  <SMR_VSA4>
5.73

>  <SMR_VSA5>
0

>  <SMR_VSA6>
4.9

>  <SMR_VSA7>
59.66

>  <SMR_VSA8>
0

>  <SMR_VSA9>
0

>  <SlogP_VSA1>
10.63

>  <SlogP_VSA2>
6.03

>  <SlogP_VSA3>
0

>  <SlogP_VSA4>
0

>  <SlogP_VSA5>
11.13

>  <SlogP_VSA6>
48.53

>  <SlogP_VSA7>
0

>  <SlogP_VSA8>
12.15

>  <SlogP_VSA9>
0

>  <SlogP_VSA10>
16.17

>  <SlogP_VSA11>
0

>  <EState_VSA1>
6.03

>  <EState_VSA2>
0

>  <EState_VSA3>
0

>  <EState_VSA4>
22.5

>  <EState_VSA5>
0

>  <EState_VSA6>
4.9

>  <EState_VSA7>
60.68

>  <EState_VSA8>
0

>  <EState_VSA9>
5.73

>  <EState_VSA10>
4.79

>  <VSA_EState1>
0

>  <VSA_EState2>
13.3

>  <VSA_EState3>
0

>  <VSA_EState4>
9.11

>  <VSA_EState5>
0

>  <VSA_EState6>
14.93

>  <VSA_EState7>
3.99

>  <VSA_EState8>
0

>  <VSA_EState9>
0

>  <apol>
36.05

>  <bpol>
14.05

>  <nRing>
3

>  <nHRing>
1

>  <naRing>
2

>  <naHRing>
0

>  <nARing 2>
1

>  <nAHRing 2>
1

>  <nFRing>
1

>  <nFHRing>
1

>  <nFaRing>
0

>  <nFaHRing>
0

>  <nFARing 2>
1

>  <nFAHRing 2>
1

>  <nRot>
0

>  <SLogP>
3.39

>  <SMR>
73.53

>  <TopoPSA(NO)>
46.33

>  <TopoPSA>
46.33

>  <JGI1>
0.13

>  <JGI2>
0.07

>  <JGI3>
0.05

>  <JGI4>
0.04

>  <JGI5>
0.02

>  <Diameter>
7

>  <Radius>
4

>  <TMWC10>
111.22

>  <TSRW10>
59.46

>  <MW>
236.09

>  <AMW>
7.87

>  <WPath>
521

>  <WPol>
33

>  <Zagreb1>
96

>  <Zagreb2>
115

>  <mZagreb2>
3.97

>  <yes>


>  <nAR-cont>
0.816016

>  <nHA-cont>
0.991161285

>  <MWHBN>
0.130164094

>  <MWHBN-cont>
0.87012266

>  <TPSA-cont>
0.676587831

>  <pka_cont>
0.97

>  <yes.1>


>  <BBB_SCORE>
4.950536937

>  <MMFF94 Energy>
21.384

$$$$
Compound 331
Actelion Java MolfileCreator 2.0

  0  0  0  0  0  0              0 V3000
M  V30 BEGIN CTAB
M  V30 COUNTS 37 37 0 0 0
M  V30 BEGIN ATOM
M  V30 1 O 0.4709 0.1569 3.2217 0
M  V30 2 C 0.3065 0.4005 2.0275 0
M  V30 3 N -0.9122 0.3423 1.3887 0
M  V30 4 N 1.3754 0.7826 1.2781 0
M  V30 5 C -1.1228 0.7184 0.0719 0
M  V30 6 C -2.0782 0.0016 2.1841 0
M  V30 7 C 1.3979 1.0506 -0.056 0
M  V30 8 O -2.2602 0.8932 -0.3763 0
M  V30 9 C 0.0999 0.884 -0.8182 0
M  V30 10 O 2.4599 1.3594 -0.5975 0
M  V30 11 C 0.2787 -0.395 -1.7061 0
M  V30 12 C -0.0863 2.152 -1.698 0
M  V30 13 C 0.4231 -1.6197 -0.8795 0
M  V30 14 C -0.8238 -0.6329 -2.7463 0
M  V30 15 C -0.2206 3.4391 -0.9168 0
M  V30 16 C 0.5402 -2.6003 -0.1958 0
M  V30 17 C 0.7409 4.3665 -0.8319 0
M  V30 18 C 0.6824 -3.7969 0.6448 0
M  V30 19 C 0.5837 -3.446 2.1197 0
M  V30 20 H 2.2559 0.8558 1.7674 0
M  V30 21 H -1.8104 -0.6227 3.0411 0
M  V30 22 H -2.5281 0.9308 2.5485 0
M  V30 23 H -2.8156 -0.5305 1.5753 0
M  V30 24 H 1.2139 -0.2862 -2.2745 0
M  V30 25 H 0.7477 2.2384 -2.4075 0
M  V30 26 H -0.9917 2.0719 -2.3118 0
M  V30 27 H -0.8921 0.1919 -3.4608 0
M  V30 28 H -1.8051 -0.7754 -2.283 0
M  V30 29 H -0.613 -1.5388 -3.3277 0
M  V30 30 H -1.1757 3.6239 -0.4259 0
M  V30 31 H 1.7059 4.235 -1.3145 0
M  V30 32 H 0.5836 5.2843 -0.2731 0
M  V30 33 H 1.6477 -4.2758 0.448 0
M  V30 34 H -0.0972 -4.5232 0.3904 0
M  V30 35 H 1.3699 -2.7414 2.412 0
M  V30 36 H 0.689 -4.3464 2.7328 0
M  V30 37 H -0.3826 -2.986 2.3534 0
M  V30 END ATOM
M  V30 BEGIN BOND
M  V30 1 2 1 2
M  V30 2 1 2 3
M  V30 3 1 2 4
M  V30 4 1 3 5
M  V30 5 1 3 6
M  V30 6 1 4 7
M  V30 7 2 5 8
M  V30 8 1 5 9
M  V30 9 2 7 10
M  V30 10 1 9 11
M  V30 11 1 9 12
M  V30 12 1 11 13
M  V30 13 1 11 14
M  V30 14 1 12 15
M  V30 15 3 13 16
M  V30 16 2 15 17
M  V30 17 1 16 18
M  V30 18 1 18 19
M  V30 19 1 7 9
M  V30 20 1 4 20
M  V30 21 1 6 21
M  V30 22 1 6 22
M  V30 23 1 6 23
M  V30 24 1 11 24
M  V30 25 1 12 25
M  V30 26 1 12 26
M  V30 27 1 14 27
M  V30 28 1 14 28
M  V30 29 1 14 29
M  V30 30 1 15 30
M  V30 31 1 17 31
M  V30 32 1 17 32
M  V30 33 1 18 33
M  V30 34 1 18 34
M  V30 35 1 19 35
M  V30 36 1 19 36
M  V30 37 1 19 37
M  V30 END BOND
M  V30 END CTAB
M  END
>  <Column 1>
414

>  <level_0>
468

>  <index>
468

>  <Unnamed: 0>
468

>  <NO.>
471

>  <Name>
151-83-7

>  <IUPAC_name>
5-hex-3-yn-2-yl-1-methyl-5-prop-2-enyl-1-3-diazinane-2-4-6-trione

>  <SMILES>
C=CCC1(C(C)C#CCC)C(=O)NC(=O)N(C)C1=O

>  <CID>
9034

>  <logBB>
-0.1

>  <BBB+/BBB->
BBB+

>  <Inchi>
InChI=1S/C14H18N2O3/c1-5-7-8-10(3)14(9-6-2)11(17)15-13(19)16(4)12(14)18/h6-10H-2-5-9H2-1-3-4H3-(H-15-17-19)

>  <threshold>


>  <reference>
R5|R8|R21|R27|R2|R2|R27|R3|R4|R11|R12|R20|R25|R35|R36|R38|R39|R41|R43|R46|R47|R40|R44|

>  <group>
A

>  <Class>
1

>  <ABC>
13.72

>  <ABCGG>
13.31

>  <nAcid>
0

>  <nBase>
0

>  <nAromAtom>
0

>  <nAromBond>
0

>  <nAtom>
37

>  <nHeavyAtom>
19

>  <nSpiro>
0

>  <nBridgehead>
0

>  <nHetero>
5

>  <nN>
2

>  <nO>
3

>  <nF>
0

>  <BalabanJ>
3

>  <BertzCT>
486.65

>  <nBonds>
37

>  <nBondsO>
19

>  <nBondsS>
32

>  <nBondsD>
4

>  <nBondsT>
1

>  <nBondsA>
0

>  <nBondsM>
5

>  <nBondsKS>
32

>  <nBondsKD>
4

>  <RNCG>
0.15

>  <RPCG>
0.18

>  <FCSP3>
0.5

>  <SZ>
23.33

>  <Sm>
21.84

>  <Sv>
22.54

>  <Sse>
37.31

>  <Sp>
23.95

>  <Si>
41.95

>  <MZ>
0.63

>  <Mm>
0.59

>  <Mv>
0.61

>  <Mse>
1.01

>  <Mp>
0.65

>  <Mi>
1.13

>  <NsCH3>
3

>  <NdCH2>
1

>  <NssCH2>
2

>  <NtCH>
0

>  <NdsCH>
1

>  <NaaCH>
0

>  <NsssCH>
1

>  <NddC>
0

>  <NtsC>
2

>  <NdssC>
3

>  <NaasC>
0

>  <NaaaC>
0

>  <NssssC>
1

>  <NsNH3>
0

>  <NsNH2>
0

>  <NssNH2>
0

>  <NdNH>
0

>  <NssNH>
1

>  <NaaNH>
0

>  <NtN>
0

>  <NsssNH>
0

>  <NdsN>
0

>  <NaaN>
0

>  <NsssN>
1

>  <NddsN>
0

>  <NaasN>
0

>  <NssssN>
0

>  <NsOH>
0

>  <NdO>
3

>  <NssO>
0

>  <NaaO>
0

>  <NsF>
0

>  <NsSiH3>
0

>  <NssSiH2>
0

>  <NsssSiH>
0

>  <NssssSi>
0

>  <NsPH2>
0

>  <NssPH>
0

>  <NsssP>
0

>  <NdsssP>
0

>  <NsssssP>
0

>  <NsSH>
0

>  <NdS>
0

>  <NssS>
0

>  <NaaS>
0

>  <NdssS>
0

>  <NddssS>
0

>  <NsCl>
0

>  <NsBr>
0

>  <NsI>
0

>  <fragCpx>
19.05

>  <fMF>
0.16

>  <nHBAcc>
3

>  <nHBDon>
1

>  <Kier1>
17.05

>  <Kier2>
7.14

>  <Lipinski>
1

>  <GhoseFilter>
1

>  <FilterItLogS>
-2.58

>  <VMcGowan>
209.03

>  <LabuteASA>
112.58

>  <PEOE_VSA1>
0

>  <PEOE_VSA2>
19.81

>  <PEOE_VSA3>
4.79

>  <PEOE_VSA4>
0

>  <PEOE_VSA5>
12.5

>  <PEOE_VSA6>
18.92

>  <PEOE_VSA7>
13.34

>  <PEOE_VSA8>
19.39

>  <PEOE_VSA9>
0

>  <PEOE_VSA10>
5.41

>  <PEOE_VSA11>
0

>  <PEOE_VSA12>
11.81

>  <PEOE_VSA13>
0

>  <SMR_VSA1>
14.38

>  <SMR_VSA2>
0

>  <SMR_VSA3>
10.22

>  <SMR_VSA4>
11.33

>  <SMR_VSA5>
26.69

>  <SMR_VSA6>
7.05

>  <SMR_VSA7>
12.65

>  <SMR_VSA8>
0

>  <SMR_VSA9>
11.84

>  <SlogP_VSA1>
5.32

>  <SlogP_VSA2>
29.79

>  <SlogP_VSA3>
9.59

>  <SlogP_VSA4>
23.17

>  <SlogP_VSA5>
26.69

>  <SlogP_VSA6>
12.65

>  <SlogP_VSA7>
0

>  <SlogP_VSA8>
0

>  <SlogP_VSA9>
0

>  <SlogP_VSA10>
4.79

>  <SlogP_VSA11>
0

>  <EState_VSA1>
29.18

>  <EState_VSA2>
6.42

>  <EState_VSA3>
6.42

>  <EState_VSA4>
4.9

>  <EState_VSA5>
13.12

>  <EState_VSA6>
6.92

>  <EState_VSA7>
6.92

>  <EState_VSA8>
23.74

>  <EState_VSA9>
0

>  <EState_VSA10>
14.38

>  <VSA_EState1>
0

>  <VSA_EState2>
36.95

>  <VSA_EState3>
2.2

>  <VSA_EState4>
-1.37

>  <VSA_EState5>
4.16

>  <VSA_EState6>
-0.7

>  <VSA_EState7>
2.29

>  <VSA_EState8>
7.19

>  <VSA_EState9>
1.35

>  <apol>
39.99

>  <bpol>
22.94

>  <nRing>
1

>  <nHRing>
1

>  <naRing>
0

>  <naHRing>
0

>  <nARing 2>
1

>  <nAHRing 2>
1

>  <nFRing>
0

>  <nFHRing>
0

>  <nFaRing>
0

>  <nFaHRing>
0

>  <nFARing 2>
0

>  <nFAHRing 2>
0

>  <nRot>
3

>  <SLogP>
1.31

>  <SMR>
70.79

>  <TopoPSA(NO)>
66.48

>  <TopoPSA>
66.48

>  <JGI1>
0.26

>  <JGI2>
0.14

>  <JGI3>
0.08

>  <JGI4>
0.05

>  <JGI5>
0.03

>  <Diameter>
9

>  <Radius>
5

>  <TMWC10>
111.43

>  <TSRW10>
52.55

>  <MW>
262.13

>  <AMW>
7.08

>  <WPath>
646

>  <WPol>
35

>  <Zagreb1>
92

>  <Zagreb2>
111

>  <mZagreb2>
4.51

>  <yes>


>  <nAR-cont>
0.816016

>  <nHA-cont>
0.998649058

>  <MWHBN>
0.247059539

>  <MWHBN-cont>
0.964582802

>  <TPSA-cont>
0.535928318

>  <pka_cont>
0.97

>  <yes.1>


>  <BBB_SCORE>
4.818395898

>  <MMFF94 Energy>
-115.92

$$$$
Compound 332
Actelion Java MolfileCreator 2.0

  0  0  0  0  0  0              0 V3000
M  V30 BEGIN CTAB
M  V30 COUNTS 53 56 0 0 0
M  V30 BEGIN ATOM
M  V30 1 O -5.3132 0.0 -2.8954 0
M  V30 2 C -4.1567 -0.2185 -2.5455 0
M  V30 3 C -3.0643 0.6534 -3.0369 0
M  V30 4 C -3.8012 -1.2803 -1.5368 0
M  V30 5 C -1.7787 0.3921 -2.7408 0
M  V30 6 C -2.4634 -1.8982 -1.9039 0
M  V30 7 C -1.3017 -0.8674 -2.0055 0 CFG=2
M  V30 8 C -0.7228 1.4418 -2.9831 0
M  V30 9 C -0.7808 -0.3709 -0.6086 0 CFG=2
M  V30 10 C -0.1894 -1.5816 -2.8144 0
M  V30 11 C -0.1642 1.9064 -1.6364 0
M  V30 12 C 0.3236 0.7348 -0.7623 0 CFG=1
M  V30 13 C -0.3198 -1.5005 0.3459 0
M  V30 14 C 0.7389 1.2045 0.6358 0 CFG=1
M  V30 15 C 0.221 -0.9834 1.6924 0
M  V30 16 C 1.3247 0.0688 1.5069 0 CFG=2
M  V30 17 C 1.77 2.3179 0.7582 0
M  V30 18 C 1.6885 0.8812 2.7744 0 CFG=2
M  V30 19 C 2.5883 -0.5986 0.9071 0
M  V30 20 C 2.2421 2.2184 2.2175 0
M  V30 21 C 2.6444 0.1948 3.7476 0
M  V30 22 O 3.8411 0.4769 3.8109 0
M  V30 23 C 2.0738 -0.8931 4.6206 0
M  V30 24 H -3.3839 1.5571 -3.544 0
M  V30 25 H -3.7874 -0.8348 -0.5374 0
M  V30 26 H -4.5763 -2.054 -1.5583 0
M  V30 27 H -2.2237 -2.7047 -1.204 0
M  V30 28 H -2.59 -2.3912 -2.8795 0
M  V30 29 H -1.1332 2.3088 -3.515 0
M  V30 30 H 0.0757 1.0452 -3.6186 0
M  V30 31 H -1.6318 0.1115 -0.1022 0
M  V30 32 H -0.5216 -1.7852 -3.84 0
M  V30 33 H 0.0725 -2.5448 -2.3629 0
M  V30 34 H 0.7333 -1.0016 -2.8926 0
M  V30 35 H 0.6596 2.6061 -1.8194 0
M  V30 36 H -0.9396 2.4678 -1.098 0
M  V30 37 H 1.1993 0.3103 -1.2632 0
M  V30 38 H 0.4438 -2.1183 -0.1368 0
M  V30 39 H -1.1597 -2.1664 0.5701 0
M  V30 40 H -0.1747 1.5811 1.1261 0
M  V30 41 H 0.5873 -1.8346 2.2761 0
M  V30 42 H -0.6134 -0.5543 2.2622 0
M  V30 43 H 1.3427 3.3031 0.546 0
M  V30 44 H 2.6095 2.1659 0.0709 0
M  V30 45 H 0.7783 1.1205 3.3424 0
M  V30 46 H 2.9354 -1.4162 1.549 0
M  V30 47 H 3.4215 0.1033 0.8017 0
M  V30 48 H 2.4108 -1.0324 -0.0801 0
M  V30 49 H 3.3336 2.2921 2.2593 0
M  V30 50 H 1.8451 3.0543 2.8055 0
M  V30 51 H 1.058 -0.635 4.9304 0
M  V30 52 H 2.0725 -1.8395 4.077 0
M  V30 53 H 2.6868 -0.9944 5.5206 0
M  V30 END ATOM
M  V30 BEGIN BOND
M  V30 1 2 1 2
M  V30 2 1 2 3
M  V30 3 1 2 4
M  V30 4 2 3 5
M  V30 5 1 4 6
M  V30 6 1 5 7
M  V30 7 1 5 8
M  V30 8 1 7 9
M  V30 9 1 7 10
M  V30 10 1 8 11
M  V30 11 1 9 12
M  V30 12 1 9 13
M  V30 13 1 12 14
M  V30 14 1 13 15
M  V30 15 1 14 16
M  V30 16 1 14 17
M  V30 17 1 16 18
M  V30 18 1 16 19
M  V30 19 1 17 20
M  V30 20 1 18 21
M  V30 21 2 21 22
M  V30 22 1 21 23
M  V30 23 1 6 7
M  V30 24 1 11 12
M  V30 25 1 15 16
M  V30 26 1 18 20
M  V30 27 1 3 24
M  V30 28 1 4 25
M  V30 29 1 4 26
M  V30 30 1 6 27
M  V30 31 1 6 28
M  V30 32 1 8 29
M  V30 33 1 8 30
M  V30 34 1 9 31
M  V30 35 1 10 32
M  V30 36 1 10 33
M  V30 37 1 10 34
M  V30 38 1 11 35
M  V30 39 1 11 36
M  V30 40 1 12 37
M  V30 41 1 13 38
M  V30 42 1 13 39
M  V30 43 1 14 40
M  V30 44 1 15 41
M  V30 45 1 15 42
M  V30 46 1 17 43
M  V30 47 1 17 44
M  V30 48 1 18 45
M  V30 49 1 19 46
M  V30 50 1 19 47
M  V30 51 1 19 48
M  V30 52 1 20 49
M  V30 53 1 20 50
M  V30 54 1 23 51
M  V30 55 1 23 52
M  V30 56 1 23 53
M  V30 END BOND
M  V30 BEGIN COLLECTION
M  V30 MDLV30/STEABS ATOMS=(6 7 9 12 14 16 18)
M  V30 END COLLECTION
M  V30 END CTAB
M  END
>  <Column 1>
415

>  <level_0>
469

>  <index>
469

>  <Unnamed: 0>
469

>  <NO.>
472

>  <Name>
progesterone

>  <IUPAC_name>
(8s-9s-10r-13s-14s-17s)-17-acetyl-10-13-dimethyl-1-2-6-7-8-9-11-12-14-15-16-17-dodecahydrocyclopenta[a]phenanthren-3-one

>  <SMILES>
CC(=O)[C@H]1CC[C@H]2[C@@H]3CCC4=CC(=O)CC[C@]4(C)[C@H]3CC[C@]12C

>  <CID>
5994

>  <logBB>
-0.1

>  <BBB+/BBB->
BBB+

>  <Inchi>
InChI=1S/C21H30O2/c1-13(22)17-6-7-18-16-5-4-14-12-15(23)8-10-20(14-2)19(16)9-11-21(17-18)3/h12-16-19H-4-11H2-1-3H3/t16--17+-18--19--20--21+/m0/s1

>  <threshold>


>  <reference>
R2|R2|R20|R25|R27|R46|

>  <group>
A

>  <Class>
1

>  <ABC>
18.66

>  <ABCGG>
14.99

>  <nAcid>
0

>  <nBase>
0

>  <nAromAtom>
0

>  <nAromBond>
0

>  <nAtom>
53

>  <nHeavyAtom>
23

>  <nSpiro>
0

>  <nBridgehead>
0

>  <nHetero>
2

>  <nN>
0

>  <nO>
2

>  <nF>
0

>  <BalabanJ>
1.6

>  <BertzCT>
588.65

>  <nBonds>
56

>  <nBondsO>
26

>  <nBondsS>
53

>  <nBondsD>
3

>  <nBondsT>
0

>  <nBondsA>
0

>  <nBondsM>
3

>  <nBondsKS>
53

>  <nBondsKD>
3

>  <RNCG>
0.25

>  <RPCG>
0.13

>  <FCSP3>
0.81

>  <SZ>
28.67

>  <Sm>
26.18

>  <Sv>
30.56

>  <Sse>
51.98

>  <Sp>
33.94

>  <Si>
59.65

>  <MZ>
0.54

>  <Mm>
0.49

>  <Mv>
0.58

>  <Mse>
0.98

>  <Mp>
0.64

>  <Mi>
1.13

>  <NsCH3>
3

>  <NdCH2>
0

>  <NssCH2>
8

>  <NtCH>
0

>  <NdsCH>
1

>  <NaaCH>
0

>  <NsssCH>
4

>  <NddC>
0

>  <NtsC>
0

>  <NdssC>
3

>  <NaasC>
0

>  <NaaaC>
0

>  <NssssC>
2

>  <NsNH3>
0

>  <NsNH2>
0

>  <NssNH2>
0

>  <NdNH>
0

>  <NssNH>
0

>  <NaaNH>
0

>  <NtN>
0

>  <NsssNH>
0

>  <NdsN>
0

>  <NaaN>
0

>  <NsssN>
0

>  <NddsN>
0

>  <NaasN>
0

>  <NssssN>
0

>  <NsOH>
0

>  <NdO>
2

>  <NssO>
0

>  <NaaO>
0

>  <NsF>
0

>  <NsSiH3>
0

>  <NssSiH2>
0

>  <NsssSiH>
0

>  <NssssSi>
0

>  <NsPH2>
0

>  <NssPH>
0

>  <NsssP>
0

>  <NdsssP>
0

>  <NsssssP>
0

>  <NsSH>
0

>  <NdS>
0

>  <NssS>
0

>  <NaaS>
0

>  <NdssS>
0

>  <NddssS>
0

>  <NsCl>
0

>  <NsBr>
0

>  <NsI>
0

>  <fragCpx>
170.02

>  <fMF>
0.32

>  <nHBAcc>
2

>  <nHBDon>
0

>  <Kier1>
16.47

>  <Kier2>
5.5

>  <Lipinski>
1

>  <GhoseFilter>
1

>  <FilterItLogS>
-4.38

>  <VMcGowan>
262.15

>  <LabuteASA>
139.65

>  <PEOE_VSA1>
0

>  <PEOE_VSA2>
9.59

>  <PEOE_VSA3>
0

>  <PEOE_VSA4>
0

>  <PEOE_VSA5>
0

>  <PEOE_VSA6>
19.42

>  <PEOE_VSA7>
86.53

>  <PEOE_VSA8>
12.34

>  <PEOE_VSA9>
0

>  <PEOE_VSA10>
5.78

>  <PEOE_VSA11>
5.78

>  <PEOE_VSA12>
0

>  <PEOE_VSA13>
0

>  <SMR_VSA1>
9.59

>  <SMR_VSA2>
0

>  <SMR_VSA3>
0

>  <SMR_VSA4>
34.5

>  <SMR_VSA5>
72.14

>  <SMR_VSA6>
0

>  <SMR_VSA7>
11.65

>  <SMR_VSA8>
0

>  <SMR_VSA9>
0

>  <SlogP_VSA1>
0

>  <SlogP_VSA2>
11.57

>  <SlogP_VSA3>
9.59

>  <SlogP_VSA4>
34.5

>  <SlogP_VSA5>
72.14

>  <SlogP_VSA6>
11.65

>  <SlogP_VSA7>
0

>  <SlogP_VSA8>
0

>  <SlogP_VSA9>
0

>  <SlogP_VSA10>
0

>  <SlogP_VSA11>
0

>  <EState_VSA1>
0

>  <EState_VSA2>
10.83

>  <EState_VSA3>
17.48

>  <EState_VSA4>
43.44

>  <EState_VSA5>
31.26

>  <EState_VSA6>
6.92

>  <EState_VSA7>
6.08

>  <EState_VSA8>
13.85

>  <EState_VSA9>
0

>  <EState_VSA10>
9.59

>  <VSA_EState1>
0

>  <VSA_EState2>
24

>  <VSA_EState3>
0

>  <VSA_EState4>
1.95

>  <VSA_EState5>
3.29

>  <VSA_EState6>
0

>  <VSA_EState7>
10.95

>  <VSA_EState8>
6.65

>  <VSA_EState9>
0

>  <apol>
56.68

>  <bpol>
31.83

>  <nRing>
4

>  <nHRing>
0

>  <naRing>
0

>  <naHRing>
0

>  <nARing 2>
4

>  <nAHRing 2>
0

>  <nFRing>
1

>  <nFHRing>
0

>  <nFaRing>
0

>  <nFaHRing>
0

>  <nFARing 2>
1

>  <nFAHRing 2>
0

>  <nRot>
1

>  <SLogP>
4.72

>  <SMR>
90.88

>  <TopoPSA(NO)>
34.14

>  <TopoPSA>
34.14

>  <JGI1>
0.27

>  <JGI2>
0.13

>  <JGI3>
0.07

>  <JGI4>
0.06

>  <JGI5>
0.03

>  <Diameter>
11

>  <Radius>
6

>  <TMWC10>
127.44

>  <TSRW10>
73.11

>  <MW>
314.22

>  <AMW>
5.93

>  <WPath>
1052

>  <WPol>
48

>  <Zagreb1>
136

>  <Zagreb2>
172

>  <mZagreb2>
4.75

>  <yes>


>  <nAR-cont>
0.199399

>  <nHA-cont>
0.967789328

>  <MWHBN>
0.112827011

>  <MWHBN-cont>
0.796870259

>  <TPSA-cont>
0.7616816

>  <pka_cont>
0.97

>  <yes.1>


>  <BBB_SCORE>
4.370856917

>  <MMFF94 Energy>
76.657

$$$$
Compound 333
Actelion Java MolfileCreator 2.0

  0  0  0  0  0  0              0 V3000
M  V30 BEGIN CTAB
M  V30 COUNTS 36 38 0 0 0
M  V30 BEGIN ATOM
M  V30 1 F -4.4421 -2.0172 3.9568 0
M  V30 2 C -3.2931 -1.7391 3.3286 0
M  V30 3 C -3.2794 -1.6258 1.9442 0
M  V30 4 C -2.1338 -1.5671 4.0737 0
M  V30 5 C -2.0845 -1.324 1.2716 0
M  V30 6 C -0.9325 -1.2821 3.4251 0
M  V30 7 C -2.1724 -1.2726 -0.2186 0
M  V30 8 C -0.9027 -1.1657 2.0235 0
M  V30 9 O -2.9358 -2.0641 -0.768 0
M  V30 10 N -1.4161 -0.3425 -0.9202 0
M  V30 11 N 0.3341 -0.8807 1.402 0
M  V30 12 C -0.6094 0.6735 -0.2763 0
M  V30 13 C -1.4356 -0.3483 -2.3745 0
M  V30 14 C 0.5359 -0.0253 0.3392 0
M  V30 15 C 1.5641 -1.3692 1.7578 0
M  V30 16 C 1.9014 -0.0595 0.0777 0
M  V30 17 N 2.5208 -0.8889 1.0002 0
M  V30 18 C 2.6661 0.6202 -0.9762 0
M  V30 19 O 3.8849 0.55 -1.0854 0
M  V30 20 O 1.8785 1.3364 -1.823 0
M  V30 21 C 2.5844 1.9668 -2.8844 0 CFG=1
M  V30 22 F 1.6483 2.2142 -3.8447 0
M  V30 23 C 3.1589 3.3003 -2.448 0
M  V30 24 H -4.2051 -1.7802 1.3942 0
M  V30 25 H -2.1748 -1.6581 5.1554 0
M  V30 26 H -0.039 -1.14 4.0303 0
M  V30 27 H -1.2133 1.1784 0.4874 0
M  V30 28 H -0.3247 1.4397 -0.9998 0
M  V30 29 H -0.4097 -0.4473 -2.7412 0
M  V30 30 H -1.8587 0.5985 -2.723 0
M  V30 31 H -2.0329 -1.1713 -2.7746 0
M  V30 32 H 1.7063 -2.0786 2.5629 0
M  V30 33 H 3.339 1.3108 -3.3314 0
M  V30 34 H 3.9164 3.1785 -1.6687 0
M  V30 35 H 2.3688 3.9394 -2.0395 0
M  V30 36 H 3.6035 3.8234 -3.2996 0
M  V30 END ATOM
M  V30 BEGIN BOND
M  V30 1 1 1 2
M  V30 2 2 2 3
M  V30 3 1 2 4
M  V30 4 1 3 5
M  V30 5 2 4 6
M  V30 6 1 5 7
M  V30 7 2 5 8
M  V30 8 2 7 9
M  V30 9 1 7 10
M  V30 10 1 8 11
M  V30 11 1 10 12
M  V30 12 1 10 13
M  V30 13 1 11 14
M  V30 14 1 11 15
M  V30 15 2 14 16
M  V30 16 2 15 17
M  V30 17 1 16 18
M  V30 18 2 18 19
M  V30 19 1 18 20
M  V30 20 1 20 21
M  V30 21 1 21 22
M  V30 22 1 21 23
M  V30 23 1 6 8
M  V30 24 1 12 14
M  V30 25 1 16 17
M  V30 26 1 3 24
M  V30 27 1 4 25
M  V30 28 1 6 26
M  V30 29 1 12 27
M  V30 30 1 12 28
M  V30 31 1 13 29
M  V30 32 1 13 30
M  V30 33 1 13 31
M  V30 34 1 15 32
M  V30 35 1 21 33
M  V30 36 1 23 34
M  V30 37 1 23 35
M  V30 38 1 23 36
M  V30 END BOND
M  V30 BEGIN COLLECTION
M  V30 MDLV30/STERAC1 ATOMS=(1 21)
M  V30 END COLLECTION
M  V30 END CTAB
M  END
>  <Column 1>
416

>  <level_0>
470

>  <index>
470

>  <Unnamed: 0>
470

>  <NO.>
473

>  <Name>
-

>  <IUPAC_name>


>  <SMILES>
CC(F)OC(=O)c1ncn2c1CN(C)C(=O)c1cc(F)ccc1-2

>  <CID>


>  <logBB>
-0.1

>  <BBB+/BBB->
BBB+

>  <Inchi>
InChI=1S/C15H13F2N3O3/c1-8(16)23-15(22)13-12-6-19(2)14(21)10-5-9(17)3-4-11(10)20(12)7-18-13/h3-5-7-8H-6H2-1-2H3

>  <threshold>


>  <reference>
R46|R2|R2|R27|R25|R41|R3|R38|R40|R8|R43|R47|

>  <group>
A

>  <Class>
1

>  <ABC>
18.05

>  <ABCGG>
15.36

>  <nAcid>
0

>  <nBase>
0

>  <nAromAtom>
11

>  <nAromBond>
11

>  <nAtom>
36

>  <nHeavyAtom>
23

>  <nSpiro>
0

>  <nBridgehead>
0

>  <nHetero>
8

>  <nN>
3

>  <nO>
3

>  <nF>
2

>  <BalabanJ>
1.8

>  <BertzCT>
801.26

>  <nBonds>
38

>  <nBondsO>
25

>  <nBondsS>
25

>  <nBondsD>
2

>  <nBondsT>
0

>  <nBondsA>
11

>  <nBondsM>
13

>  <nBondsKS>
31

>  <nBondsKD>
7

>  <RNCG>
0.19

>  <RPCG>
0.16

>  <FCSP3>
0.27

>  <SZ>
27.67

>  <Sm>
26.75

>  <Sv>
24.23

>  <Sse>
37.67

>  <Sp>
24.27

>  <Si>
41.29

>  <MZ>
0.77

>  <Mm>
0.74

>  <Mv>
0.67

>  <Mse>
1.05

>  <Mp>
0.67

>  <Mi>
1.15

>  <NsCH3>
2

>  <NdCH2>
0

>  <NssCH2>
1

>  <NtCH>
0

>  <NdsCH>
0

>  <NaaCH>
4

>  <NsssCH>
1

>  <NddC>
0

>  <NtsC>
0

>  <NdssC>
2

>  <NaasC>
5

>  <NaaaC>
0

>  <NssssC>
0

>  <NsNH3>
0

>  <NsNH2>
0

>  <NssNH2>
0

>  <NdNH>
0

>  <NssNH>
0

>  <NaaNH>
0

>  <NtN>
0

>  <NsssNH>
0

>  <NdsN>
0

>  <NaaN>
1

>  <NsssN>
1

>  <NddsN>
0

>  <NaasN>
1

>  <NssssN>
0

>  <NsOH>
0

>  <NdO>
2

>  <NssO>
1

>  <NaaO>
0

>  <NsF>
2

>  <NsSiH3>
0

>  <NssSiH2>
0

>  <NsssSiH>
0

>  <NssssSi>
0

>  <NsPH2>
0

>  <NssPH>
0

>  <NsssP>
0

>  <NdsssP>
0

>  <NsssssP>
0

>  <NsSH>
0

>  <NdS>
0

>  <NssS>
0

>  <NaaS>
0

>  <NdssS>
0

>  <NddssS>
0

>  <NsCl>
0

>  <NsBr>
0

>  <NsI>
0

>  <fragCpx>
119.08

>  <fMF>
0.39

>  <nHBAcc>
5

>  <nHBDon>
0

>  <Kier1>
17.81

>  <Kier2>
7.09

>  <Lipinski>
1

>  <GhoseFilter>
1

>  <FilterItLogS>
-3.15

>  <VMcGowan>
210.6

>  <LabuteASA>
129.84

>  <PEOE_VSA1>
9.64

>  <PEOE_VSA2>
9.36

>  <PEOE_VSA3>
18.56

>  <PEOE_VSA4>
0

>  <PEOE_VSA5>
0

>  <PEOE_VSA6>
0

>  <PEOE_VSA7>
18.2

>  <PEOE_VSA8>
13.97

>  <PEOE_VSA9>
23.49

>  <PEOE_VSA10>
12.14

>  <PEOE_VSA11>
5.69

>  <PEOE_VSA12>
6.36

>  <PEOE_VSA13>
5.91

>  <SMR_VSA1>
23.11

>  <SMR_VSA2>
0

>  <SMR_VSA3>
14.45

>  <SMR_VSA4>
0

>  <SMR_VSA5>
19.83

>  <SMR_VSA6>
7.05

>  <SMR_VSA7>
47.29

>  <SMR_VSA8>
0

>  <SMR_VSA9>
5.69

>  <SlogP_VSA1>
0

>  <SlogP_VSA2>
39.73

>  <SlogP_VSA3>
11.28

>  <SlogP_VSA4>
5.82

>  <SlogP_VSA5>
33.46

>  <SlogP_VSA6>
24.53

>  <SlogP_VSA7>
0

>  <SlogP_VSA8>
5.69

>  <SlogP_VSA9>
0

>  <SlogP_VSA10>
8.78

>  <SlogP_VSA11>
0

>  <EState_VSA1>
18.14

>  <EState_VSA2>
23.71

>  <EState_VSA3>
11.38

>  <EState_VSA4>
12.99

>  <EState_VSA5>
34.97

>  <EState_VSA6>
0

>  <EState_VSA7>
0

>  <EState_VSA8>
9.72

>  <EState_VSA9>
0

>  <EState_VSA10>
18.37

>  <VSA_EState1>
32.4

>  <VSA_EState2>
29.61

>  <VSA_EState3>
0

>  <VSA_EState4>
0.85

>  <VSA_EState5>
-1.85

>  <VSA_EState6>
3.77

>  <VSA_EState7>
-0.44

>  <VSA_EState8>
1.14

>  <VSA_EState9>
1.52

>  <apol>
40.54

>  <bpol>
23.3

>  <nRing>
3

>  <nHRing>
2

>  <naRing>
2

>  <naHRing>
1

>  <nARing 2>
1

>  <nAHRing 2>
1

>  <nFRing>
1

>  <nFHRing>
1

>  <nFaRing>
0

>  <nFaHRing>
0

>  <nFARing 2>
1

>  <nFAHRing 2>
1

>  <nRot>
2

>  <SLogP>
2.07

>  <SMR>
75.31

>  <TopoPSA(NO)>
64.43

>  <TopoPSA>
64.43

>  <JGI1>
0.22

>  <JGI2>
0.09

>  <JGI3>
0.05

>  <JGI4>
0.05

>  <JGI5>
0.03

>  <Diameter>
11

>  <Radius>
6

>  <TMWC10>
123.98

>  <TSRW10>
71.96

>  <MW>
321.09

>  <AMW>
8.92

>  <WPath>
1094

>  <WPol>
42

>  <Zagreb1>
124

>  <Zagreb2>
149

>  <mZagreb2>
4.94

>  <yes>


>  <nAR-cont>
0.816016

>  <nHA-cont>
0.967789328

>  <MWHBN>
0.279033672

>  <MWHBN-cont>
0.898516635

>  <TPSA-cont>
0.550238591

>  <pka_cont>
0.97

>  <yes.1>


>  <BBB_SCORE>
4.717057463

>  <MMFF94 Energy>
15.402

$$$$
Compound 334
Actelion Java MolfileCreator 2.0

  0  0  0  0  0  0              0 V3000
M  V30 BEGIN CTAB
M  V30 COUNTS 40 42 0 0 0
M  V30 BEGIN ATOM
M  V30 1 O -5.4848 -1.508 2.2229 0
M  V30 2 C -4.3522 -1.2441 1.8354 0
M  V30 3 N -4.1207 -0.2744 0.8927 0
M  V30 4 C -3.1553 -1.9508 2.3554 0
M  V30 5 C -2.8821 0.0649 0.4233 0
M  V30 6 C -1.8747 -1.6068 1.8769 0
M  V30 7 C -3.3375 -2.9538 3.3197 0
M  V30 8 C -1.7533 -0.5319 0.8501 0
M  V30 9 C -0.7834 -2.3165 2.4098 0
M  V30 10 C -2.238 -3.6368 3.8272 0
M  V30 11 C -0.5153 -0.0239 0.2259 0
M  V30 12 O 0.4911 -2.041 1.9962 0
M  V30 13 C -0.961 -3.3188 3.3727 0
M  V30 14 C -0.0521 -0.5733 -0.9749 0
M  V30 15 C 0.1865 1.037 0.8111 0
M  V30 16 C 1.1009 -0.069 -1.5806 0
M  V30 17 C 1.3403 1.5406 0.2043 0
M  V30 18 C 1.8066 0.9954 -1.0 0
M  V30 19 C 3.0669 1.527 -1.6511 0
M  V30 20 N 2.8642 1.989 -3.0362 0
M  V30 21 C 4.1572 2.2463 -3.6716 0
M  V30 22 C 2.0385 3.1985 -3.0811 0
M  V30 23 H -4.9438 0.2014 0.5427 0
M  V30 24 H -2.8737 0.8559 -0.3232 0
M  V30 25 H -4.3376 -3.1994 3.6717 0
M  V30 26 H -2.3772 -4.4141 4.5742 0
M  V30 27 H 1.1181 -2.6372 2.4341 0
M  V30 28 H -0.1116 -3.8607 3.7792 0
M  V30 29 H -0.584 -1.3978 -1.4425 0
M  V30 30 H -0.1596 1.4707 1.7461 0
M  V30 31 H 1.4488 -0.5028 -2.5158 0
M  V30 32 H 1.8711 2.3615 0.6798 0
M  V30 33 H 3.7904 0.7005 -1.6378 0
M  V30 34 H 3.5048 2.3271 -1.0392 0
M  V30 35 H 4.7644 1.3345 -3.6934 0
M  V30 36 H 4.7254 3.0276 -3.1538 0
M  V30 37 H 4.0199 2.5532 -4.7145 0
M  V30 38 H 2.4834 4.0243 -2.514 0
M  V30 39 H 1.0336 3.0109 -2.6883 0
M  V30 40 H 1.9024 3.5298 -4.1169 0
M  V30 END ATOM
M  V30 BEGIN BOND
M  V30 1 2 1 2
M  V30 2 1 2 3
M  V30 3 1 2 4
M  V30 4 1 3 5
M  V30 5 2 4 6
M  V30 6 1 4 7
M  V30 7 2 5 8
M  V30 8 1 6 9
M  V30 9 2 7 10
M  V30 10 1 8 11
M  V30 11 1 9 12
M  V30 12 2 9 13
M  V30 13 2 11 14
M  V30 14 1 11 15
M  V30 15 1 14 16
M  V30 16 2 15 17
M  V30 17 2 16 18
M  V30 18 1 18 19
M  V30 19 1 19 20
M  V30 20 1 20 21
M  V30 21 1 20 22
M  V30 22 1 6 8
M  V30 23 1 10 13
M  V30 24 1 17 18
M  V30 25 1 3 23
M  V30 26 1 5 24
M  V30 27 1 7 25
M  V30 28 1 10 26
M  V30 29 1 12 27
M  V30 30 1 13 28
M  V30 31 1 14 29
M  V30 32 1 15 30
M  V30 33 1 16 31
M  V30 34 1 17 32
M  V30 35 1 19 33
M  V30 36 1 19 34
M  V30 37 1 21 35
M  V30 38 1 21 36
M  V30 39 1 21 37
M  V30 40 1 22 38
M  V30 41 1 22 39
M  V30 42 1 22 40
M  V30 END BOND
M  V30 END CTAB
M  END
>  <Column 1>
417

>  <level_0>
471

>  <index>
471

>  <Unnamed: 0>
471

>  <NO.>
474

>  <Name>
kcl-440

>  <IUPAC_name>
4-[4-[(dimethylamino)methyl]phenyl]-5-hydroxy-2h-isoquinolin-1-one

>  <SMILES>
CN(C)Cc1ccc(-c2c[nH]c(=O)c3cccc(O)c23)cc1

>  <CID>
9839073

>  <logBB>
-0.1

>  <BBB+/BBB->
BBB+

>  <Inchi>
InChI=1S/C18H18N2O2/c1-20(2)11-12-6-8-13(9-7-12)15-10-19-18(22)14-4-3-5-16(21)17(14)15/h3-10-21H-11H2-1-2H3-(H-19-22)

>  <threshold>


>  <reference>
R20|R2|R2|R25|R27|R46|

>  <group>
A

>  <Class>
1

>  <ABC>
17.21

>  <ABCGG>
13.54

>  <nAcid>
0

>  <nBase>
1

>  <nAromAtom>
16

>  <nAromBond>
17

>  <nAtom>
40

>  <nHeavyAtom>
22

>  <nSpiro>
0

>  <nBridgehead>
0

>  <nHetero>
4

>  <nN>
2

>  <nO>
2

>  <nF>
0

>  <BalabanJ>
1.62

>  <BertzCT>
864.38

>  <nBonds>
42

>  <nBondsO>
24

>  <nBondsS>
24

>  <nBondsD>
1

>  <nBondsT>
0

>  <nBondsA>
17

>  <nBondsM>
18

>  <nBondsKS>
34

>  <nBondsKD>
8

>  <RNCG>
0.28

>  <RPCG>
0.16

>  <FCSP3>
0.17

>  <SZ>
26

>  <Sm>
24.51

>  <Sv>
25.82

>  <Sse>
39.98

>  <Sp>
27.46

>  <Si>
44.74

>  <MZ>
0.65

>  <Mm>
0.61

>  <Mv>
0.65

>  <Mse>
1

>  <Mp>
0.69

>  <Mi>
1.12

>  <NsCH3>
2

>  <NdCH2>
0

>  <NssCH2>
1

>  <NtCH>
0

>  <NdsCH>
0

>  <NaaCH>
8

>  <NsssCH>
0

>  <NddC>
0

>  <NtsC>
0

>  <NdssC>
0

>  <NaasC>
4

>  <NaaaC>
2

>  <NssssC>
0

>  <NsNH3>
0

>  <NsNH2>
0

>  <NssNH2>
0

>  <NdNH>
0

>  <NssNH>
0

>  <NaaNH>
1

>  <NtN>
0

>  <NsssNH>
0

>  <NdsN>
0

>  <NaaN>
0

>  <NsssN>
1

>  <NddsN>
0

>  <NaasN>
0

>  <NssssN>
0

>  <NsOH>
1

>  <NdO>
1

>  <NssO>
0

>  <NaaO>
0

>  <NsF>
0

>  <NsSiH3>
0

>  <NssSiH2>
0

>  <NsssSiH>
0

>  <NssssSi>
0

>  <NsPH2>
0

>  <NssPH>
0

>  <NsssP>
0

>  <NdsssP>
0

>  <NsssssP>
0

>  <NsSH>
0

>  <NdS>
0

>  <NssS>
0

>  <NaaS>
0

>  <NdssS>
0

>  <NddssS>
0

>  <NsCl>
0

>  <NsBr>
0

>  <NsI>
0

>  <fragCpx>
114.04

>  <fMF>
0.4

>  <nHBAcc>
3

>  <nHBDon>
2

>  <Kier1>
16.84

>  <Kier2>
7.27

>  <Lipinski>
1

>  <GhoseFilter>
1

>  <FilterItLogS>
-4.85

>  <VMcGowan>
229.2

>  <LabuteASA>
128.2

>  <PEOE_VSA1>
14.99

>  <PEOE_VSA2>
4.79

>  <PEOE_VSA3>
0

>  <PEOE_VSA4>
0

>  <PEOE_VSA5>
0

>  <PEOE_VSA6>
30.33

>  <PEOE_VSA7>
37.35

>  <PEOE_VSA8>
23.69

>  <PEOE_VSA9>
5.39

>  <PEOE_VSA10>
5.75

>  <PEOE_VSA11>
0

>  <PEOE_VSA12>
0

>  <PEOE_VSA13>
5.56

>  <SMR_VSA1>
5.11

>  <SMR_VSA2>
0

>  <SMR_VSA3>
9.88

>  <SMR_VSA4>
0

>  <SMR_VSA5>
6.54

>  <SMR_VSA6>
14.1

>  <SMR_VSA7>
64.58

>  <SMR_VSA8>
0

>  <SMR_VSA9>
16.88

>  <SlogP_VSA1>
5.56

>  <SlogP_VSA2>
29.09

>  <SlogP_VSA3>
6.54

>  <SlogP_VSA4>
0

>  <SlogP_VSA5>
5.56

>  <SlogP_VSA6>
53.46

>  <SlogP_VSA7>
0

>  <SlogP_VSA8>
21.9

>  <SlogP_VSA9>
0

>  <SlogP_VSA10>
0

>  <SlogP_VSA11>
5.75

>  <EState_VSA1>
0

>  <EState_VSA2>
11.31

>  <EState_VSA3>
10.77

>  <EState_VSA4>
17.67

>  <EState_VSA5>
5.56

>  <EState_VSA6>
24.4

>  <EState_VSA7>
26.23

>  <EState_VSA8>
22.02

>  <EState_VSA9>
0

>  <EState_VSA10>
9.9

>  <VSA_EState1>
0

>  <VSA_EState2>
16.77

>  <VSA_EState3>
11.24

>  <VSA_EState4>
2.81

>  <VSA_EState5>
0.12

>  <VSA_EState6>
13.15

>  <VSA_EState7>
1.66

>  <VSA_EState8>
0.87

>  <VSA_EState9>
4.06

>  <apol>
45.87

>  <bpol>
21.21

>  <nRing>
3

>  <nHRing>
1

>  <naRing>
3

>  <naHRing>
1

>  <nARing 2>
0

>  <nAHRing 2>
0

>  <nFRing>
1

>  <nFHRing>
1

>  <nFaRing>
1

>  <nFaHRing>
1

>  <nFARing 2>
0

>  <nFAHRing 2>
0

>  <nRot>
3

>  <SLogP>
2.96

>  <SMR>
89.06

>  <TopoPSA(NO)>
56.33

>  <TopoPSA>
56.33

>  <JGI1>
0.19

>  <JGI2>
0.08

>  <JGI3>
0.05

>  <JGI4>
0.05

>  <JGI5>
0.03

>  <Diameter>
11

>  <Radius>
6

>  <TMWC10>
120.64

>  <TSRW10>
56.35

>  <MW>
294.14

>  <AMW>
7.35

>  <WPath>
1062

>  <WPol>
36

>  <Zagreb1>
116

>  <Zagreb2>
137

>  <mZagreb2>
4.81

>  <yes>


>  <nAR-cont>
0.336376

>  <nHA-cont>
0.983774276

>  <MWHBN>
0.291536517

>  <MWHBN-cont>
0.865266031

>  <TPSA-cont>
0.606781621

>  <pka_cont>
0.97

>  <yes.1>


>  <BBB_SCORE>
4.316612564

>  <MMFF94 Energy>
61.028

$$$$
Compound 335
Actelion Java MolfileCreator 2.0

  0  0  0  0  0  0              0 V3000
M  V30 BEGIN CTAB
M  V30 COUNTS 51 53 0 0 0
M  V30 BEGIN ATOM
M  V30 1 Cl -1.5141 -0.0796 6.2271 0
M  V30 2 C -0.1385 -0.4277 5.2336 0
M  V30 3 C 1.1671 -0.2062 5.7202 0
M  V30 4 C -0.3718 -0.9492 3.9508 0
M  V30 5 N 1.4061 0.3391 6.9725 0
M  V30 6 C 2.2139 -0.48 4.8493 0
M  V30 7 C 0.7071 -1.2418 3.1099 0
M  V30 8 C 1.9881 -0.9933 3.5736 0
M  V30 9 C 3.6771 -0.3758 5.072 0
M  V30 10 C 0.4714 -1.8111 1.7662 0
M  V30 11 O 3.1452 -1.1953 2.8635 0
M  V30 12 C 4.1593 -0.5155 3.6319 0
M  V30 13 O 1.0742 -2.8068 1.3907 0
M  V30 14 N -0.4716 -1.1444 1.009 0
M  V30 15 C -0.7983 -1.5659 -0.3471 0
M  V30 16 C -2.2325 -1.1721 -0.7026 0
M  V30 17 C 0.1922 -0.9761 -1.354 0
M  V30 18 C -2.5443 -1.5096 -2.161 0
M  V30 19 C -0.2192 -1.3223 -2.7847 0
M  V30 20 N -1.5952 -0.9251 -3.121 0
M  V30 21 C -1.7898 0.5251 -3.2755 0
M  V30 22 C -1.0379 1.1132 -4.4735 0
M  V30 23 C -1.4131 2.5758 -4.6912 0
M  V30 24 O -0.6561 3.0792 -5.791 0
M  V30 25 C -0.9665 4.4387 -6.0652 0
M  V30 26 H -1.3893 -1.1466 3.624 0
M  V30 27 H 2.3374 0.3662 7.3623 0
M  V30 28 H 0.6209 0.461 7.6035 0
M  V30 29 H 3.9947 0.5725 5.5128 0
M  V30 30 H 4.0245 -1.2114 5.6881 0
M  V30 31 H 4.324 0.4677 3.1729 0
M  V30 32 H 5.0978 -1.0762 3.5731 0
M  V30 33 H -0.852 -0.2712 1.3497 0
M  V30 34 H -0.7197 -2.6606 -0.3841 0
M  V30 35 H -2.391 -0.1017 -0.52 0
M  V30 36 H -2.9352 -1.7003 -0.0463 0
M  V30 37 H 0.2598 0.1117 -1.2291 0
M  V30 38 H 1.1988 -1.3671 -1.1616 0
M  V30 39 H -2.5351 -2.6005 -2.2849 0
M  V30 40 H -3.5691 -1.201 -2.4018 0
M  V30 41 H -0.1356 -2.4088 -2.9217 0
M  V30 42 H 0.5011 -0.8979 -3.4911 0
M  V30 43 H -1.5126 1.0702 -2.3657 0
M  V30 44 H -2.8589 0.7154 -3.4383 0
M  V30 45 H -1.2611 0.5441 -5.3847 0
M  V30 46 H 0.0467 1.0502 -4.3312 0
M  V30 47 H -2.483 2.664 -4.9131 0
M  V30 48 H -1.1849 3.1634 -3.7944 0
M  V30 49 H -0.357 4.7674 -6.9111 0
M  V30 50 H -0.7323 5.067 -5.2004 0
M  V30 51 H -2.0222 4.5441 -6.333 0
M  V30 END ATOM
M  V30 BEGIN BOND
M  V30 1 1 1 2
M  V30 2 2 2 3
M  V30 3 1 2 4
M  V30 4 1 3 5
M  V30 5 1 3 6
M  V30 6 2 4 7
M  V30 7 2 6 8
M  V30 8 1 6 9
M  V30 9 1 7 10
M  V30 10 1 8 11
M  V30 11 1 9 12
M  V30 12 2 10 13
M  V30 13 1 10 14
M  V30 14 1 14 15
M  V30 15 1 15 16
M  V30 16 1 15 17
M  V30 17 1 16 18
M  V30 18 1 17 19
M  V30 19 1 18 20
M  V30 20 1 20 21
M  V30 21 1 21 22
M  V30 22 1 22 23
M  V30 23 1 23 24
M  V30 24 1 24 25
M  V30 25 1 7 8
M  V30 26 1 11 12
M  V30 27 1 19 20
M  V30 28 1 4 26
M  V30 29 1 5 27
M  V30 30 1 5 28
M  V30 31 1 9 29
M  V30 32 1 9 30
M  V30 33 1 12 31
M  V30 34 1 12 32
M  V30 35 1 14 33
M  V30 36 1 15 34
M  V30 37 1 16 35
M  V30 38 1 16 36
M  V30 39 1 17 37
M  V30 40 1 17 38
M  V30 41 1 18 39
M  V30 42 1 18 40
M  V30 43 1 19 41
M  V30 44 1 19 42
M  V30 45 1 21 43
M  V30 46 1 21 44
M  V30 47 1 22 45
M  V30 48 1 22 46
M  V30 49 1 23 47
M  V30 50 1 23 48
M  V30 51 1 25 49
M  V30 52 1 25 50
M  V30 53 1 25 51
M  V30 END BOND
M  V30 END CTAB
M  END
>  <Column 1>
418

>  <level_0>
472

>  <index>
472

>  <Unnamed: 0>
472

>  <NO.>
475

>  <Name>
prucalopride

>  <IUPAC_name>
4-amino-5-chloro-n-[1-(3-methoxypropyl)piperidin-4-yl]-2-3-dihydro-1-benzofuran-7-carboxamide

>  <SMILES>
COCCCN1CCC(NC(=O)c2cc(Cl)c(N)c3c2OCC3)CC1

>  <CID>
3052762

>  <logBB>
-0.1

>  <BBB+/BBB->
BBB+

>  <Inchi>
InChI=1S/C18H26ClN3O3/c1-24-9-2-6-22-7-3-12(4-8-22)21-18(23)14-11-15(19)16(20)13-5-10-25-17(13)14/h11-12H-2-10-20H2-1H3-(H-21-23)

>  <threshold>


>  <reference>
R2|R2|R25|R27|R46|R47|

>  <group>
A

>  <Class>
1

>  <ABC>
19.22

>  <ABCGG>
15.39

>  <nAcid>
0

>  <nBase>
1

>  <nAromAtom>
6

>  <nAromBond>
6

>  <nAtom>
51

>  <nHeavyAtom>
25

>  <nSpiro>
0

>  <nBridgehead>
0

>  <nHetero>
7

>  <nN>
3

>  <nO>
3

>  <nF>
0

>  <BalabanJ>
1.45

>  <BertzCT>
630.48

>  <nBonds>
53

>  <nBondsO>
27

>  <nBondsS>
46

>  <nBondsD>
1

>  <nBondsT>
0

>  <nBondsA>
6

>  <nBondsM>
7

>  <nBondsKS>
49

>  <nBondsKD>
4

>  <RNCG>
0.21

>  <RPCG>
0.11

>  <FCSP3>
0.61

>  <SZ>
32.67

>  <Sm>
30.63

>  <Sv>
30.55

>  <Sse>
51.29

>  <Sp>
33.1

>  <Si>
58.05

>  <MZ>
0.64

>  <Mm>
0.6

>  <Mv>
0.6

>  <Mse>
1.01

>  <Mp>
0.65

>  <Mi>
1.14

>  <NsCH3>
1

>  <NdCH2>
0

>  <NssCH2>
9

>  <NtCH>
0

>  <NdsCH>
0

>  <NaaCH>
1

>  <NsssCH>
1

>  <NddC>
0

>  <NtsC>
0

>  <NdssC>
1

>  <NaasC>
5

>  <NaaaC>
0

>  <NssssC>
0

>  <NsNH3>
0

>  <NsNH2>
1

>  <NssNH2>
0

>  <NdNH>
0

>  <NssNH>
1

>  <NaaNH>
0

>  <NtN>
0

>  <NsssNH>
0

>  <NdsN>
0

>  <NaaN>
0

>  <NsssN>
1

>  <NddsN>
0

>  <NaasN>
0

>  <NssssN>
0

>  <NsOH>
0

>  <NdO>
1

>  <NssO>
2

>  <NaaO>
0

>  <NsF>
0

>  <NsSiH3>
0

>  <NssSiH2>
0

>  <NsssSiH>
0

>  <NssssSi>
0

>  <NsPH2>
0

>  <NssPH>
0

>  <NsssP>
0

>  <NdsssP>
0

>  <NsssssP>
0

>  <NsSH>
0

>  <NdS>
0

>  <NssS>
0

>  <NaaS>
0

>  <NdssS>
0

>  <NddssS>
0

>  <NsCl>
1

>  <NsBr>
0

>  <NsI>
0

>  <fragCpx>
129.07

>  <fMF>
0.33

>  <nHBAcc>
5

>  <nHBDon>
2

>  <Kier1>
19.75

>  <Kier2>
9.27

>  <Lipinski>
1

>  <GhoseFilter>
1

>  <FilterItLogS>
-4.58

>  <VMcGowan>
274.49

>  <LabuteASA>
153.14

>  <PEOE_VSA1>
25.42

>  <PEOE_VSA2>
4.79

>  <PEOE_VSA3>
0

>  <PEOE_VSA4>
0

>  <PEOE_VSA5>
0

>  <PEOE_VSA6>
11.6

>  <PEOE_VSA7>
25.33

>  <PEOE_VSA8>
51.38

>  <PEOE_VSA9>
22.88

>  <PEOE_VSA10>
5.75

>  <PEOE_VSA11>
0

>  <PEOE_VSA12>
0

>  <PEOE_VSA13>
5.91

>  <SMR_VSA1>
14.27

>  <SMR_VSA2>
0

>  <SMR_VSA3>
10.22

>  <SMR_VSA4>
0

>  <SMR_VSA5>
31.73

>  <SMR_VSA6>
45.69

>  <SMR_VSA7>
22.22

>  <SMR_VSA8>
0

>  <SMR_VSA9>
5.75

>  <SlogP_VSA1>
15.79

>  <SlogP_VSA2>
56.81

>  <SlogP_VSA3>
11.16

>  <SlogP_VSA4>
0

>  <SlogP_VSA5>
35.18

>  <SlogP_VSA6>
6.07

>  <SlogP_VSA7>
5.02

>  <SlogP_VSA8>
0

>  <SlogP_VSA9>
0

>  <SlogP_VSA10>
5.69

>  <SlogP_VSA11>
5.75

>  <EState_VSA1>
0

>  <EState_VSA2>
11.95

>  <EState_VSA3>
35.05

>  <EState_VSA4>
51.07

>  <EState_VSA5>
0

>  <EState_VSA6>
13.18

>  <EState_VSA7>
0

>  <EState_VSA8>
10.22

>  <EState_VSA9>
26.81

>  <EState_VSA10>
4.79

>  <VSA_EState1>
10.72

>  <VSA_EState2>
15.13

>  <VSA_EState3>
3.55

>  <VSA_EState4>
7.86

>  <VSA_EState5>
0.47

>  <VSA_EState6>
1.8

>  <VSA_EState7>
3.64

>  <VSA_EState8>
4.36

>  <VSA_EState9>
1.73

>  <apol>
55.28

>  <bpol>
32.64

>  <nRing>
3

>  <nHRing>
2

>  <naRing>
1

>  <naHRing>
0

>  <nARing 2>
2

>  <nAHRing 2>
2

>  <nFRing>
1

>  <nFHRing>
1

>  <nFaRing>
0

>  <nFaHRing>
0

>  <nFARing 2>
1

>  <nFAHRing 2>
1

>  <nRot>
6

>  <SLogP>
2.09

>  <SMR>
98.48

>  <TopoPSA(NO)>
76.82

>  <TopoPSA>
76.82

>  <JGI1>
0.17

>  <JGI2>
0.08

>  <JGI3>
0.04

>  <JGI4>
0.05

>  <JGI5>
0.03

>  <Diameter>
15

>  <Radius>
8

>  <TMWC10>
127.13

>  <TSRW10>
73.26

>  <MW>
367.17

>  <AMW>
7.2

>  <WPath>
1689

>  <WPol>
38

>  <Zagreb1>
128

>  <Zagreb2>
150

>  <mZagreb2>
5.64

>  <yes>


>  <nAR-cont>
1

>  <nHA-cont>
0.921834225

>  <MWHBN>
0.365312426

>  <MWHBN-cont>
0.612014894

>  <TPSA-cont>
0.463748698

>  <pka_cont>
0.97

>  <yes.1>


>  <BBB_SCORE>
4.252353962

>  <MMFF94 Energy>
41.662

$$$$
Compound 336
Actelion Java MolfileCreator 2.0

  0  0  0  0  0  0              0 V3000
M  V30 BEGIN CTAB
M  V30 COUNTS 36 38 0 0 0
M  V30 BEGIN ATOM
M  V30 1 S 2.2917 3.2751 -2.1279 0
M  V30 2 O 3.5612 3.7516 -1.6125 0
M  V30 3 O 2.1285 2.9645 -3.535 0
M  V30 4 C 1.8531 1.8192 -1.2078 0
M  V30 5 C 1.0377 4.4415 -1.666 0
M  V30 6 C 0.9296 0.9209 -1.7429 0
M  V30 7 C 2.464 1.5644 0.0209 0
M  V30 8 C 0.5955 -0.2297 -1.0244 0
M  V30 9 C 2.1252 0.4098 0.7324 0
M  V30 10 C 1.1807 -0.4942 0.224 0
M  V30 11 C 0.8412 -1.7151 0.964 0
M  V30 12 C -0.3701 -2.2119 1.2514 0
M  V30 13 C 1.9104 -2.5916 1.4954 0
M  V30 14 C -1.7004 -1.6738 0.9541 0
M  V30 15 C -0.1219 -3.4902 1.9543 0
M  V30 16 O 1.2187 -3.6878 2.0823 0
M  V30 17 C -2.0247 -0.342 1.2535 0
M  V30 18 C -2.6828 -2.4896 0.3767 0
M  V30 19 O -0.9724 -4.2623 2.3606 0
M  V30 20 C -3.2939 0.1656 0.9646 0
M  V30 21 C -3.9522 -1.9818 0.0885 0
M  V30 22 C -4.2561 -0.654 0.3797 0
M  V30 23 H 1.0814 4.6034 -0.5872 0
M  V30 24 H 0.0614 4.0526 -1.9612 0
M  V30 25 H 1.2374 5.3787 -2.1901 0
M  V30 26 H 0.4746 1.0972 -2.7156 0
M  V30 27 H 3.2048 2.2492 0.4295 0
M  V30 28 H -0.1201 -0.9257 -1.46 0
M  V30 29 H 2.6046 0.2356 1.6938 0
M  V30 30 H 2.513 -2.107 2.2694 0
M  V30 31 H 2.5654 -2.9704 0.7045 0
M  V30 32 H -1.2947 0.3133 1.7233 0
M  V30 33 H -2.4735 -3.5336 0.1497 0
M  V30 34 H -3.5334 1.1985 1.2037 0
M  V30 35 H -4.7051 -2.6279 -0.3561 0
M  V30 36 H -5.2459 -0.2621 0.1599 0
M  V30 END ATOM
M  V30 BEGIN BOND
M  V30 1 2 1 2
M  V30 2 2 1 3
M  V30 3 1 1 4
M  V30 4 1 1 5
M  V30 5 2 4 6
M  V30 6 1 4 7
M  V30 7 1 6 8
M  V30 8 2 7 9
M  V30 9 2 8 10
M  V30 10 1 10 11
M  V30 11 2 11 12
M  V30 12 1 11 13
M  V30 13 1 12 14
M  V30 14 1 12 15
M  V30 15 1 13 16
M  V30 16 2 14 17
M  V30 17 1 14 18
M  V30 18 2 15 19
M  V30 19 1 17 20
M  V30 20 2 18 21
M  V30 21 2 20 22
M  V30 22 1 9 10
M  V30 23 1 15 16
M  V30 24 1 21 22
M  V30 25 1 5 23
M  V30 26 1 5 24
M  V30 27 1 5 25
M  V30 28 1 6 26
M  V30 29 1 7 27
M  V30 30 1 8 28
M  V30 31 1 9 29
M  V30 32 1 13 30
M  V30 33 1 13 31
M  V30 34 1 17 32
M  V30 35 1 18 33
M  V30 36 1 20 34
M  V30 37 1 21 35
M  V30 38 1 22 36
M  V30 END BOND
M  V30 END CTAB
M  END
>  <Column 1>
419

>  <level_0>
473

>  <index>
473

>  <Unnamed: 0>
473

>  <NO.>
476

>  <Name>
rofecoxib;vioxx

>  <IUPAC_name>
3-(4-methylsulfonylphenyl)-4-phenyl-2h-furan-5-one

>  <SMILES>
CS(=O)(=O)c1ccc(C2=C(c3ccccc3)C(=O)OC2)cc1

>  <CID>
5090

>  <logBB>
-0.1

>  <BBB+/BBB->
BBB+

>  <Inchi>
InChI=1S/C17H14O4S/c1-22(19-20)14-9-7-12(8-10-14)15-11-21-17(18)16(15)13-5-3-2-4-6-13/h2-10H-11H2-1H3

>  <threshold>


>  <reference>
R2|R2|R18|R20|R25|R26|R27|R27|R46|

>  <group>
A

>  <Class>
1

>  <ABC>
17.33

>  <ABCGG>
14.5

>  <nAcid>
0

>  <nBase>
0

>  <nAromAtom>
12

>  <nAromBond>
12

>  <nAtom>
36

>  <nHeavyAtom>
22

>  <nSpiro>
0

>  <nBridgehead>
0

>  <nHetero>
5

>  <nN>
0

>  <nO>
4

>  <nF>
0

>  <BalabanJ>
1.61

>  <BertzCT>
847.29

>  <nBonds>
38

>  <nBondsO>
24

>  <nBondsS>
22

>  <nBondsD>
4

>  <nBondsT>
0

>  <nBondsA>
12

>  <nBondsM>
16

>  <nBondsKS>
28

>  <nBondsKD>
10

>  <RNCG>
0.27

>  <RPCG>
0.2

>  <FCSP3>
0.12

>  <SZ>
27.33

>  <Sm>
26.17

>  <Sv>
24.84

>  <Sse>
36.61

>  <Sp>
26.25

>  <Si>
39.66

>  <MZ>
0.76

>  <Mm>
0.73

>  <Mv>
0.69

>  <Mse>
1.02

>  <Mp>
0.73

>  <Mi>
1.1

>  <NsCH3>
1

>  <NdCH2>
0

>  <NssCH2>
1

>  <NtCH>
0

>  <NdsCH>
0

>  <NaaCH>
9

>  <NsssCH>
0

>  <NddC>
0

>  <NtsC>
0

>  <NdssC>
3

>  <NaasC>
3

>  <NaaaC>
0

>  <NssssC>
0

>  <NsNH3>
0

>  <NsNH2>
0

>  <NssNH2>
0

>  <NdNH>
0

>  <NssNH>
0

>  <NaaNH>
0

>  <NtN>
0

>  <NsssNH>
0

>  <NdsN>
0

>  <NaaN>
0

>  <NsssN>
0

>  <NddsN>
0

>  <NaasN>
0

>  <NssssN>
0

>  <NsOH>
0

>  <NdO>
3

>  <NssO>
1

>  <NaaO>
0

>  <NsF>
0

>  <NsSiH3>
0

>  <NssSiH2>
0

>  <NsssSiH>
0

>  <NssssSi>
0

>  <NsPH2>
0

>  <NssPH>
0

>  <NsssP>
0

>  <NdsssP>
0

>  <NsssssP>
0

>  <NsSH>
0

>  <NdS>
0

>  <NssS>
0

>  <NaaS>
0

>  <NdssS>
0

>  <NddssS>
1

>  <NsCl>
0

>  <NsBr>
0

>  <NsI>
0

>  <fragCpx>
114.05

>  <fMF>
0.47

>  <nHBAcc>
4

>  <nHBDon>
0

>  <Kier1>
16.84

>  <Kier2>
6.86

>  <Lipinski>
1

>  <GhoseFilter>
1

>  <FilterItLogS>
-4.56

>  <VMcGowan>
223.24

>  <LabuteASA>
128.52

>  <PEOE_VSA1>
4.74

>  <PEOE_VSA2>
0

>  <PEOE_VSA3>
13.21

>  <PEOE_VSA4>
0

>  <PEOE_VSA5>
0

>  <PEOE_VSA6>
42.46

>  <PEOE_VSA7>
23.26

>  <PEOE_VSA8>
11.83

>  <PEOE_VSA9>
10.47

>  <PEOE_VSA10>
6.61

>  <PEOE_VSA11>
9.84

>  <PEOE_VSA12>
0

>  <PEOE_VSA13>
0

>  <SMR_VSA1>
17.95

>  <SMR_VSA2>
0

>  <SMR_VSA3>
0

>  <SMR_VSA4>
0

>  <SMR_VSA5>
4.9

>  <SMR_VSA6>
12.86

>  <SMR_VSA7>
65.72

>  <SMR_VSA8>
0

>  <SMR_VSA9>
0

>  <SlogP_VSA1>
0

>  <SlogP_VSA2>
27.25

>  <SlogP_VSA3>
19.37

>  <SlogP_VSA4>
0

>  <SlogP_VSA5>
11.13

>  <SlogP_VSA6>
59.49

>  <SlogP_VSA7>
0

>  <SlogP_VSA8>
11.15

>  <SlogP_VSA9>
0

>  <SlogP_VSA10>
0

>  <SlogP_VSA11>
0

>  <EState_VSA1>
9.84

>  <EState_VSA2>
17.47

>  <EState_VSA3>
5.57

>  <EState_VSA4>
16.7

>  <EState_VSA5>
6.26

>  <EState_VSA6>
24.27

>  <EState_VSA7>
30.33

>  <EState_VSA8>
0

>  <EState_VSA9>
4.74

>  <EState_VSA10>
13.21

>  <VSA_EState1>
28.18

>  <VSA_EState2>
12.26

>  <VSA_EState3>
0

>  <VSA_EState4>
2.9

>  <VSA_EState5>
-0.35

>  <VSA_EState6>
15.81

>  <VSA_EState7>
1.17

>  <VSA_EState8>
0.2

>  <VSA_EState9>
-3.23

>  <apol>
43.83

>  <bpol>
23.3

>  <nRing>
3

>  <nHRing>
1

>  <naRing>
2

>  <naHRing>
0

>  <nARing 2>
1

>  <nAHRing 2>
1

>  <nFRing>
0

>  <nFHRing>
0

>  <nFaRing>
0

>  <nFaHRing>
0

>  <nFARing 2>
0

>  <nFAHRing 2>
0

>  <nRot>
3

>  <SLogP>
2.56

>  <SMR>
83.77

>  <TopoPSA(NO)>
60.44

>  <TopoPSA>
68.82

>  <JGI1>
0.21

>  <JGI2>
0.09

>  <JGI3>
0.05

>  <JGI4>
0.04

>  <JGI5>
0.03

>  <Diameter>
11

>  <Radius>
6

>  <TMWC10>
120.77

>  <TSRW10>
70.34

>  <MW>
314.06

>  <AMW>
8.72

>  <WPath>
1061

>  <WPol>
34

>  <Zagreb1>
118

>  <Zagreb2>
139

>  <mZagreb2>
4.69

>  <yes>


>  <nAR-cont>
0.816016

>  <nHA-cont>
0.983774276

>  <MWHBN>
0.225711495

>  <MWHBN-cont>
0.990738548

>  <TPSA-cont>
0.519593665

>  <pka_cont>
0.97

>  <yes.1>


>  <BBB_SCORE>
4.810085429

>  <MMFF94 Energy>
70.518

$$$$
Compound 337
Actelion Java MolfileCreator 2.0

  0  0  0  0  0  0              0 V3000
M  V30 BEGIN CTAB
M  V30 COUNTS 26 27 0 0 0
M  V30 BEGIN ATOM
M  V30 1 I 4.0578 -2.352 0.5673 0
M  V30 2 C 2.3763 -1.3929 0.0763 0
M  V30 3 C 1.2477 -1.1704 1.0375 0
M  V30 4 C 1.9757 -0.8415 -1.0852 0
M  V30 5 O 1.2498 -1.5086 2.2115 0
M  V30 6 N 0.2608 -0.4812 0.3258 0
M  V30 7 N 0.7019 -0.2772 -0.9908 0
M  V30 8 C 2.7217 -0.8072 -2.3815 0
M  V30 9 C -0.7968 0.2425 0.9045 0
M  V30 10 C -0.279 -0.2933 -2.0689 0
M  V30 11 C -1.0144 1.5867 0.5769 0
M  V30 12 C -1.6343 -0.3768 1.8383 0
M  V30 13 C -2.0671 2.295 1.1608 0
M  V30 14 C -2.6869 0.3319 2.422 0
M  V30 15 C -2.9046 1.6659 2.0807 0
M  V30 16 H 3.7466 -1.1765 -2.294 0
M  V30 17 H 2.2122 -1.4202 -3.132 0
M  V30 18 H 2.7798 0.2203 -2.756 0
M  V30 19 H 0.1553 0.1054 -2.9914 0
M  V30 20 H -1.1573 0.3176 -1.8437 0
M  V30 21 H -0.6167 -1.3176 -2.2606 0
M  V30 22 H -0.3549 2.0944 -0.1218 0
M  V30 23 H -1.4706 -1.4142 2.1212 0
M  V30 24 H -2.2273 3.3391 0.905 0
M  V30 25 H -3.331 -0.1569 3.1486 0
M  V30 26 H -3.7208 2.2179 2.5402 0
M  V30 END ATOM
M  V30 BEGIN BOND
M  V30 1 1 1 2
M  V30 2 1 2 3
M  V30 3 2 2 4
M  V30 4 2 3 5
M  V30 5 1 3 6
M  V30 6 1 4 7
M  V30 7 1 4 8
M  V30 8 1 6 9
M  V30 9 1 7 10
M  V30 10 2 9 11
M  V30 11 1 9 12
M  V30 12 1 11 13
M  V30 13 2 12 14
M  V30 14 2 13 15
M  V30 15 1 6 7
M  V30 16 1 14 15
M  V30 17 1 8 16
M  V30 18 1 8 17
M  V30 19 1 8 18
M  V30 20 1 10 19
M  V30 21 1 10 20
M  V30 22 1 10 21
M  V30 23 1 11 22
M  V30 24 1 12 23
M  V30 25 1 13 24
M  V30 26 1 14 25
M  V30 27 1 15 26
M  V30 END BOND
M  V30 END CTAB
M  END
>  <Column 1>
420

>  <level_0>
474

>  <index>
474

>  <Unnamed: 0>
474

>  <NO.>
477

>  <Name>
iodoantipyrine

>  <IUPAC_name>
4-iodo-1-5-dimethyl-2-phenylpyrazol-3-one

>  <SMILES>
Cc1c(I)c(=O)n(-c2ccccc2)n1C

>  <CID>
8522

>  <logBB>
-0.1

>  <BBB+/BBB->
BBB+

>  <Inchi>
InChI=1S/C11H11IN2O/c1-8-10(12)11(15)14(13(8)2)9-6-4-3-5-7-9/h3-7H-1-2H3

>  <threshold>


>  <reference>
R2|R2|R3|R8|R21|R25|R27|R27|R38|R40|R41|R43|R46|R47|

>  <group>
A

>  <Class>
1

>  <ABC>
11.51

>  <ABCGG>
10.77

>  <nAcid>
0

>  <nBase>
0

>  <nAromAtom>
11

>  <nAromBond>
11

>  <nAtom>
26

>  <nHeavyAtom>
15

>  <nSpiro>
0

>  <nBridgehead>
0

>  <nHetero>
4

>  <nN>
2

>  <nO>
1

>  <nF>
0

>  <BalabanJ>
2.07

>  <BertzCT>
539.71

>  <nBonds>
27

>  <nBondsO>
16

>  <nBondsS>
15

>  <nBondsD>
1

>  <nBondsT>
0

>  <nBondsA>
11

>  <nBondsM>
12

>  <nBondsKS>
22

>  <nBondsKD>
5

>  <RNCG>
0.26

>  <RPCG>
0.26

>  <FCSP3>
0.18

>  <SZ>
25.33

>  <Sm>
26.15

>  <Sv>
17.79

>  <Sse>
26.05

>  <Sp>
20.39

>  <Si>
29

>  <MZ>
0.97

>  <Mm>
1.01

>  <Mv>
0.68

>  <Mse>
1

>  <Mp>
0.78

>  <Mi>
1.12

>  <NsCH3>
2

>  <NdCH2>
0

>  <NssCH2>
0

>  <NtCH>
0

>  <NdsCH>
0

>  <NaaCH>
5

>  <NsssCH>
0

>  <NddC>
0

>  <NtsC>
0

>  <NdssC>
0

>  <NaasC>
3

>  <NaaaC>
0

>  <NssssC>
0

>  <NsNH3>
0

>  <NsNH2>
0

>  <NssNH2>
0

>  <NdNH>
0

>  <NssNH>
0

>  <NaaNH>
0

>  <NtN>
0

>  <NsssNH>
0

>  <NdsN>
0

>  <NaaN>
0

>  <NsssN>
0

>  <NddsN>
0

>  <NaasN>
2

>  <NssssN>
0

>  <NsOH>
0

>  <NdO>
1

>  <NssO>
0

>  <NaaO>
0

>  <NsF>
0

>  <NsSiH3>
0

>  <NssSiH2>
0

>  <NsssSiH>
0

>  <NssssSi>
0

>  <NsPH2>
0

>  <NssPH>
0

>  <NsssP>
0

>  <NdsssP>
0

>  <NsssssP>
0

>  <NsSH>
0

>  <NdS>
0

>  <NssS>
0

>  <NaaS>
0

>  <NdssS>
0

>  <NddssS>
0

>  <NsCl>
0

>  <NsBr>
0

>  <NsI>
1

>  <fragCpx>
46.04

>  <fMF>
0.42

>  <nHBAcc>
3

>  <nHBDon>
0

>  <Kier1>
11.48

>  <Kier2>
4.47

>  <Lipinski>
1

>  <GhoseFilter>
1

>  <FilterItLogS>
-2.96

>  <VMcGowan>
174.29

>  <LabuteASA>
101.46

>  <PEOE_VSA1>
0

>  <PEOE_VSA2>
9.48

>  <PEOE_VSA3>
4.68

>  <PEOE_VSA4>
0

>  <PEOE_VSA5>
0

>  <PEOE_VSA6>
18.2

>  <PEOE_VSA7>
41.65

>  <PEOE_VSA8>
7.05

>  <PEOE_VSA9>
11.38

>  <PEOE_VSA10>
3.57

>  <PEOE_VSA11>
0

>  <PEOE_VSA12>
0

>  <PEOE_VSA13>
5.56

>  <SMR_VSA1>
0

>  <SMR_VSA2>
0

>  <SMR_VSA3>
9.36

>  <SMR_VSA4>
7.05

>  <SMR_VSA5>
6.92

>  <SMR_VSA6>
0

>  <SMR_VSA7>
49.95

>  <SMR_VSA8>
0

>  <SMR_VSA9>
5.69

>  <SlogP_VSA1>
5.56

>  <SlogP_VSA2>
9.36

>  <SlogP_VSA3>
7.05

>  <SlogP_VSA4>
10.49

>  <SlogP_VSA5>
5.69

>  <SlogP_VSA6>
35.13

>  <SlogP_VSA7>
0

>  <SlogP_VSA8>
5.69

>  <SlogP_VSA9>
0

>  <SlogP_VSA10>
0

>  <SlogP_VSA11>
0

>  <EState_VSA1>
0

>  <EState_VSA2>
5.56

>  <EState_VSA3>
0

>  <EState_VSA4>
14.95

>  <EState_VSA5>
0

>  <EState_VSA6>
4.68

>  <EState_VSA7>
48.99

>  <EState_VSA8>
22.59

>  <EState_VSA9>
0

>  <EState_VSA10>
4.79

>  <VSA_EState1>
4.33

>  <VSA_EState2>
11.95

>  <VSA_EState3>
0

>  <VSA_EState4>
1.93

>  <VSA_EState5>
0

>  <VSA_EState6>
9.65

>  <VSA_EState7>
0

>  <VSA_EState8>
1.95

>  <VSA_EState9>
1.89

>  <apol>
34.06

>  <bpol>
17.86

>  <nRing>
2

>  <nHRing>
1

>  <naRing>
2

>  <naHRing>
1

>  <nARing 2>
0

>  <nAHRing 2>
0

>  <nFRing>
0

>  <nFHRing>
0

>  <nFaRing>
0

>  <nFaHRing>
0

>  <nFARing 2>
0

>  <nFAHRing 2>
0

>  <nRot>
1

>  <SLogP>
2.09

>  <SMR>
68.46

>  <TopoPSA(NO)>
26.93

>  <TopoPSA>
26.93

>  <JGI1>
0.16

>  <JGI2>
0.1

>  <JGI3>
0.09

>  <JGI4>
0.04

>  <JGI5>
0.03

>  <Diameter>
7

>  <Radius>
4

>  <TMWC10>
102.41

>  <TSRW10>
61.88

>  <MW>
313.99

>  <AMW>
12.08

>  <WPath>
338

>  <WPol>
24

>  <Zagreb1>
78

>  <Zagreb2>
94

>  <mZagreb2>
3.33

>  <yes>


>  <nAR-cont>
0.336376

>  <nHA-cont>
0.92539861

>  <MWHBN>
0.16930249

>  <MWHBN-cont>
0.972862642

>  <TPSA-cont>
0.812011877

>  <pka_cont>
0.97

>  <yes.1>


>  <BBB_SCORE>
4.830092328

>  <MMFF94 Energy>
84.168

$$$$
Compound 338
Actelion Java MolfileCreator 2.0

  0  0  0  0  0  0              0 V3000
M  V30 BEGIN CTAB
M  V30 COUNTS 37 40 0 0 0
M  V30 BEGIN ATOM
M  V30 1 N -1.2014 4.2501 1.7625 0
M  V30 2 C -0.7853 3.2123 2.5368 0
M  V30 3 C -1.4524 5.4256 2.3773 0
M  V30 4 C -0.5141 1.9338 1.8581 0
M  V30 5 C -0.6176 3.3373 3.9158 0
M  V30 6 C -1.3103 5.6297 3.7392 0
M  V30 7 N -0.0931 0.8257 2.4967 0
M  V30 8 N -0.6728 1.7719 0.4966 0
M  V30 9 C -0.8846 4.5637 4.5215 0
M  V30 10 N 0.0202 -0.0826 1.4871 0
M  V30 11 C -0.3391 0.5219 0.2871 0
M  V30 12 C 0.4333 -1.4399 1.5731 0
M  V30 13 C -0.2916 -0.2566 -0.8998 0
M  V30 14 N 0.7701 -1.9431 2.8055 0
M  V30 15 C 0.4719 -2.1564 0.4322 0
M  V30 16 C 0.0988 -1.5495 -0.8477 0
M  V30 17 C 0.126 -2.312 -2.1083 0
M  V30 18 C 1.1394 -2.1012 -3.0464 0
M  V30 19 C -0.8539 -3.2676 -2.3715 0
M  V30 20 C 1.1352 -2.8503 -4.2185 0
M  V30 21 C -0.7807 -3.9659 -3.5632 0
M  V30 22 N 0.1877 -3.7792 -4.4854 0
M  V30 23 C 2.2081 -2.6466 -5.2458 0
M  V30 24 H -1.7825 6.2268 1.722 0
M  V30 25 H -0.2844 2.4952 4.5142 0
M  V30 26 H -1.5267 6.5969 4.179 0
M  V30 27 H -0.7606 4.6828 5.5942 0
M  V30 28 H -0.5823 0.2263 -1.8277 0
M  V30 29 H 0.7104 -1.3165 3.6056 0
M  V30 30 H 1.0766 -2.8992 2.9217 0
M  V30 31 H 0.7832 -3.1962 0.4308 0
M  V30 32 H 1.9208 -1.3685 -2.8678 0
M  V30 33 H -1.6597 -3.4642 -1.6726 0
M  V30 34 H -1.5219 -4.7182 -3.8179 0
M  V30 35 H 3.1902 -2.8645 -4.8149 0
M  V30 36 H 2.1942 -1.6136 -5.6071 0
M  V30 37 H 2.0573 -3.3098 -6.1037 0
M  V30 END ATOM
M  V30 BEGIN BOND
M  V30 1 2 1 2
M  V30 2 1 1 3
M  V30 3 1 2 4
M  V30 4 1 2 5
M  V30 5 2 3 6
M  V30 6 2 4 7
M  V30 7 1 4 8
M  V30 8 2 5 9
M  V30 9 1 7 10
M  V30 10 2 8 11
M  V30 11 1 10 12
M  V30 12 1 11 13
M  V30 13 1 12 14
M  V30 14 2 12 15
M  V30 15 2 13 16
M  V30 16 1 16 17
M  V30 17 2 17 18
M  V30 18 1 17 19
M  V30 19 1 18 20
M  V30 20 2 19 21
M  V30 21 2 20 22
M  V30 22 1 20 23
M  V30 23 1 6 9
M  V30 24 1 10 11
M  V30 25 1 15 16
M  V30 26 1 21 22
M  V30 27 1 3 24
M  V30 28 1 5 25
M  V30 29 1 6 26
M  V30 30 1 9 27
M  V30 31 1 13 28
M  V30 32 1 14 29
M  V30 33 1 14 30
M  V30 34 1 15 31
M  V30 35 1 18 32
M  V30 36 1 19 33
M  V30 37 1 21 34
M  V30 38 1 23 35
M  V30 39 1 23 36
M  V30 40 1 23 37
M  V30 END BOND
M  V30 END CTAB
M  END
>  <Column 1>
421

>  <level_0>
475

>  <index>
475

>  <Unnamed: 0>
475

>  <NO.>
478

>  <Name>
schembl7481790

>  <IUPAC_name>
7-(2-methylpyridin-4-yl)-2-pyridin-2-yl-[1-2-4]triazolo[1-5-a]pyridin-5-amine

>  <SMILES>
Cc1cc(-c2cc(N)n3nc(-c4ccccn4)nc3c2)ccn1

>  <CID>
22629653

>  <logBB>
-0.1

>  <BBB+/BBB->
BBB+

>  <Inchi>
InChI=1S/C17H14N6/c1-11-8-12(5-7-19-11)13-9-15(18)23-16(10-13)21-17(22-23)14-4-2-3-6-20-14/h2-10H-18H2-1H3

>  <threshold>


>  <reference>
R47|

>  <group>
A

>  <Class>
1

>  <ABC>
18.44

>  <ABCGG>
14.1

>  <nAcid>
0

>  <nBase>
0

>  <nAromAtom>
21

>  <nAromBond>
22

>  <nAtom>
37

>  <nHeavyAtom>
23

>  <nSpiro>
0

>  <nBridgehead>
0

>  <nHetero>
6

>  <nN>
6

>  <nO>
0

>  <nF>
0

>  <BalabanJ>
1.38

>  <BertzCT>
990.57

>  <nBonds>
40

>  <nBondsO>
26

>  <nBondsS>
18

>  <nBondsD>
0

>  <nBondsT>
0

>  <nBondsA>
22

>  <nBondsM>
22

>  <nBondsKS>
30

>  <nBondsKD>
10

>  <RNCG>
0.22

>  <RPCG>
0.12

>  <FCSP3>
0.06

>  <SZ>
26.33

>  <Sm>
25.17

>  <Sv>
25.34

>  <Sse>
37.19

>  <Sp>
26.54

>  <Si>
41.65

>  <MZ>
0.71

>  <Mm>
0.68

>  <Mv>
0.68

>  <Mse>
1.01

>  <Mp>
0.72

>  <Mi>
1.13

>  <NsCH3>
1

>  <NdCH2>
0

>  <NssCH2>
0

>  <NtCH>
0

>  <NdsCH>
0

>  <NaaCH>
9

>  <NsssCH>
0

>  <NddC>
0

>  <NtsC>
0

>  <NdssC>
0

>  <NaasC>
6

>  <NaaaC>
1

>  <NssssC>
0

>  <NsNH3>
0

>  <NsNH2>
1

>  <NssNH2>
0

>  <NdNH>
0

>  <NssNH>
0

>  <NaaNH>
0

>  <NtN>
0

>  <NsssNH>
0

>  <NdsN>
0

>  <NaaN>
4

>  <NsssN>
0

>  <NddsN>
0

>  <NaasN>
1

>  <NssssN>
0

>  <NsOH>
0

>  <NdO>
0

>  <NssO>
0

>  <NaaO>
0

>  <NsF>
0

>  <NsSiH3>
0

>  <NssSiH2>
0

>  <NsssSiH>
0

>  <NssssSi>
0

>  <NsPH2>
0

>  <NssPH>
0

>  <NsssP>
0

>  <NdsssP>
0

>  <NsssssP>
0

>  <NsSH>
0

>  <NdS>
0

>  <NssS>
0

>  <NaaS>
0

>  <NdssS>
0

>  <NddssS>
0

>  <NsCl>
0

>  <NsBr>
0

>  <NsI>
0

>  <fragCpx>
170.06

>  <fMF>
0.57

>  <nHBAcc>
6

>  <nHBDon>
1

>  <Kier1>
16.47

>  <Kier2>
7.09

>  <Lipinski>
1

>  <GhoseFilter>
1

>  <FilterItLogS>
-4.66

>  <VMcGowan>
223.83

>  <LabuteASA>
132.22

>  <PEOE_VSA1>
5.73

>  <PEOE_VSA2>
9.97

>  <PEOE_VSA3>
4.98

>  <PEOE_VSA4>
4.52

>  <PEOE_VSA5>
5.1

>  <PEOE_VSA6>
6.07

>  <PEOE_VSA7>
54.45

>  <PEOE_VSA8>
18.09

>  <PEOE_VSA9>
0

>  <PEOE_VSA10>
11.51

>  <PEOE_VSA11>
5.65

>  <PEOE_VSA12>
5.82

>  <PEOE_VSA13>
0

>  <SMR_VSA1>
0

>  <SMR_VSA2>
0

>  <SMR_VSA3>
24.57

>  <SMR_VSA4>
0

>  <SMR_VSA5>
6.92

>  <SMR_VSA6>
5.73

>  <SMR_VSA7>
60.55

>  <SMR_VSA8>
0

>  <SMR_VSA9>
22.65

>  <SlogP_VSA1>
5.73

>  <SlogP_VSA2>
24.57

>  <SlogP_VSA3>
0

>  <SlogP_VSA4>
6.92

>  <SlogP_VSA5>
5.69

>  <SlogP_VSA6>
54.86

>  <SlogP_VSA7>
0

>  <SlogP_VSA8>
28.29

>  <SlogP_VSA9>
0

>  <SlogP_VSA10>
5.82

>  <SlogP_VSA11>
0

>  <EState_VSA1>
0

>  <EState_VSA2>
0

>  <EState_VSA3>
17.29

>  <EState_VSA4>
22.51

>  <EState_VSA5>
0

>  <EState_VSA6>
16.91

>  <EState_VSA7>
49.39

>  <EState_VSA8>
20.05

>  <EState_VSA9>
5.73

>  <EState_VSA10>
0

>  <VSA_EState1>
1.63

>  <VSA_EState2>
13.05

>  <VSA_EState3>
4.44

>  <VSA_EState4>
10.55

>  <VSA_EState5>
1.09

>  <VSA_EState6>
13.46

>  <VSA_EState7>
3.5

>  <VSA_EState8>
1.96

>  <VSA_EState9>
0

>  <apol>
44.33

>  <bpol>
18.6

>  <nRing>
4

>  <nHRing>
4

>  <naRing>
4

>  <naHRing>
4

>  <nARing 2>
0

>  <nAHRing 2>
0

>  <nFRing>
1

>  <nFHRing>
1

>  <nFaRing>
1

>  <nFaHRing>
1

>  <nFARing 2>
0

>  <nFAHRing 2>
0

>  <nRot>
2

>  <SLogP>
2.74

>  <SMR>
88.6

>  <TopoPSA(NO)>
81.99

>  <TopoPSA>
81.99

>  <JGI1>
0.17

>  <JGI2>
0.07

>  <JGI3>
0.04

>  <JGI4>
0.04

>  <JGI5>
0.03

>  <Diameter>
12

>  <Radius>
6

>  <TMWC10>
124.47

>  <TSRW10>
71.67

>  <MW>
302.13

>  <AMW>
8.17

>  <WPath>
1206

>  <WPol>
36

>  <Zagreb1>
126

>  <Zagreb2>
150

>  <mZagreb2>
4.94

>  <yes>


>  <nAR-cont>
0.336376

>  <nHA-cont>
0.967789328

>  <MWHBN>
0.402718068

>  <MWHBN-cont>
0.465369619

>  <TPSA-cont>
0.427658887

>  <pka_cont>
0.97

>  <yes.1>


>  <BBB_SCORE>
3.342537531

>  <MMFF94 Energy>
128.68

$$$$
Compound 339
Actelion Java MolfileCreator 2.0

  0  0  0  0  0  0              0 V3000
M  V30 BEGIN CTAB
M  V30 COUNTS 22 22 0 0 0
M  V30 BEGIN ATOM
M  V30 1 N 1.0881 0.8549 -0.1553 0
M  V30 2 C 1.179 -0.4467 -0.528 0
M  V30 3 C -0.1024 1.2714 0.3452 0
M  V30 4 C 0.0959 -1.3186 -0.4021 0
M  V30 5 C 2.4992 -0.8919 -1.0788 0
M  V30 6 C -1.1856 0.3995 0.4712 0
M  V30 7 C -0.188 2.7107 0.7524 0
M  V30 8 N -1.0947 -0.902 0.0985 0
M  V30 9 C 0.1813 -2.7578 -0.8092 0
M  V30 10 C -2.5059 0.8448 1.022 0
M  V30 11 H 2.9241 -1.6868 -0.4584 0
M  V30 12 H 2.3834 -1.2531 -2.1051 0
M  V30 13 H 3.2132 -0.0616 -1.0945 0
M  V30 14 H -0.4179 2.7937 1.8191 0
M  V30 15 H 0.764 3.2218 0.5745 0
M  V30 16 H -0.9586 3.2275 0.1723 0
M  V30 17 H 0.9519 -3.2745 -0.229 0
M  V30 18 H 0.4112 -2.8407 -1.8758 0
M  V30 19 H -0.7707 -3.2688 -0.6312 0
M  V30 20 H -3.2199 0.0147 1.0377 0
M  V30 21 H -2.9308 1.6398 0.4017 0
M  V30 22 H -2.3902 1.206 2.0484 0
M  V30 END ATOM
M  V30 BEGIN BOND
M  V30 1 2 1 2
M  V30 2 1 1 3
M  V30 3 1 2 4
M  V30 4 1 2 5
M  V30 5 2 3 6
M  V30 6 1 3 7
M  V30 7 2 4 8
M  V30 8 1 4 9
M  V30 9 1 6 10
M  V30 10 1 6 8
M  V30 11 1 5 11
M  V30 12 1 5 12
M  V30 13 1 5 13
M  V30 14 1 7 14
M  V30 15 1 7 15
M  V30 16 1 7 16
M  V30 17 1 9 17
M  V30 18 1 9 18
M  V30 19 1 9 19
M  V30 20 1 10 20
M  V30 21 1 10 21
M  V30 22 1 10 22
M  V30 END BOND
M  V30 END CTAB
M  END
>  <Column 1>
422

>  <level_0>
476

>  <index>
476

>  <Unnamed: 0>
476

>  <NO.>
479

>  <Name>
2-3-5-6-tetramethylpyrazine

>  <IUPAC_name>
2-3-5-6-tetramethylpyrazine

>  <SMILES>
Cc1nc(C)c(C)nc1C

>  <CID>
14296

>  <logBB>
-0.1

>  <BBB+/BBB->
BBB+

>  <Inchi>
InChI=1S/C8H12N2/c1-5-6(2)10-8(4)7(3)9-5/h1-4H3

>  <threshold>


>  <reference>
R18|R26|R27|

>  <group>
A

>  <Class>
1

>  <ABC>
7.43

>  <ABCGG>
7.17

>  <nAcid>
0

>  <nBase>
0

>  <nAromAtom>
6

>  <nAromBond>
6

>  <nAtom>
22

>  <nHeavyAtom>
10

>  <nSpiro>
0

>  <nBridgehead>
0

>  <nHetero>
2

>  <nN>
2

>  <nO>
0

>  <nF>
0

>  <BalabanJ>
2.46

>  <BertzCT>
203.43

>  <nBonds>
22

>  <nBondsO>
10

>  <nBondsS>
16

>  <nBondsD>
0

>  <nBondsT>
0

>  <nBondsA>
6

>  <nBondsM>
6

>  <nBondsKS>
19

>  <nBondsKD>
3

>  <RNCG>
0.43

>  <RPCG>
0.1

>  <FCSP3>
0.5

>  <SZ>
12.33

>  <Sm>
11.34

>  <Sv>
12.77

>  <Sse>
21.65

>  <Sp>
14.11

>  <Si>
25.07

>  <MZ>
0.56

>  <Mm>
0.52

>  <Mv>
0.58

>  <Mse>
0.98

>  <Mp>
0.64

>  <Mi>
1.14

>  <NsCH3>
4

>  <NdCH2>
0

>  <NssCH2>
0

>  <NtCH>
0

>  <NdsCH>
0

>  <NaaCH>
0

>  <NsssCH>
0

>  <NddC>
0

>  <NtsC>
0

>  <NdssC>
0

>  <NaasC>
4

>  <NaaaC>
0

>  <NssssC>
0

>  <NsNH3>
0

>  <NsNH2>
0

>  <NssNH2>
0

>  <NdNH>
0

>  <NssNH>
0

>  <NaaNH>
0

>  <NtN>
0

>  <NsssNH>
0

>  <NdsN>
0

>  <NaaN>
2

>  <NsssN>
0

>  <NddsN>
0

>  <NaasN>
0

>  <NssssN>
0

>  <NsOH>
0

>  <NdO>
0

>  <NssO>
0

>  <NaaO>
0

>  <NsF>
0

>  <NsSiH3>
0

>  <NssSiH2>
0

>  <NsssSiH>
0

>  <NssssSi>
0

>  <NsPH2>
0

>  <NssPH>
0

>  <NsssP>
0

>  <NdsssP>
0

>  <NsssssP>
0

>  <NsSH>
0

>  <NdS>
0

>  <NssS>
0

>  <NaaS>
0

>  <NdssS>
0

>  <NddssS>
0

>  <NsCl>
0

>  <NsBr>
0

>  <NsI>
0

>  <fragCpx>
10.02

>  <fMF>
0.27

>  <nHBAcc>
2

>  <nHBDon>
0

>  <Kier1>
8.1

>  <Kier2>
2.94

>  <Lipinski>
1

>  <GhoseFilter>
0

>  <FilterItLogS>
-3.17

>  <VMcGowan>
119.78

>  <LabuteASA>
61.33

>  <PEOE_VSA1>
0

>  <PEOE_VSA2>
9.97

>  <PEOE_VSA3>
0

>  <PEOE_VSA4>
0

>  <PEOE_VSA5>
0

>  <PEOE_VSA6>
0

>  <PEOE_VSA7>
27.69

>  <PEOE_VSA8>
0

>  <PEOE_VSA9>
22.78

>  <PEOE_VSA10>
0

>  <PEOE_VSA11>
0

>  <PEOE_VSA12>
0

>  <PEOE_VSA13>
0

>  <SMR_VSA1>
0

>  <SMR_VSA2>
0

>  <SMR_VSA3>
9.97

>  <SMR_VSA4>
0

>  <SMR_VSA5>
27.69

>  <SMR_VSA6>
0

>  <SMR_VSA7>
22.78

>  <SMR_VSA8>
0

>  <SMR_VSA9>
0

>  <SlogP_VSA1>
0

>  <SlogP_VSA2>
9.97

>  <SlogP_VSA3>
0

>  <SlogP_VSA4>
27.69

>  <SlogP_VSA5>
22.78

>  <SlogP_VSA6>
0

>  <SlogP_VSA7>
0

>  <SlogP_VSA8>
0

>  <SlogP_VSA9>
0

>  <SlogP_VSA10>
0

>  <SlogP_VSA11>
0

>  <EState_VSA1>
0

>  <EState_VSA2>
0

>  <EState_VSA3>
0

>  <EState_VSA4>
22.78

>  <EState_VSA5>
0

>  <EState_VSA6>
0

>  <EState_VSA7>
27.69

>  <EState_VSA8>
9.97

>  <EState_VSA9>
0

>  <EState_VSA10>
0

>  <VSA_EState1>
0

>  <VSA_EState2>
8.62

>  <VSA_EState3>
0

>  <VSA_EState4>
4.12

>  <VSA_EState5>
0

>  <VSA_EState6>
0

>  <VSA_EState7>
0

>  <VSA_EState8>
7.92

>  <VSA_EState9>
0

>  <apol>
23.56

>  <bpol>
14.32

>  <nRing>
1

>  <nHRing>
1

>  <naRing>
1

>  <naHRing>
1

>  <nARing 2>
0

>  <nAHRing 2>
0

>  <nFRing>
0

>  <nFHRing>
0

>  <nFaRing>
0

>  <nFaHRing>
0

>  <nFARing 2>
0

>  <nFAHRing 2>
0

>  <nRot>
0

>  <SLogP>
1.71

>  <SMR>
40.98

>  <TopoPSA(NO)>
25.78

>  <TopoPSA>
25.78

>  <JGI1>
0.3

>  <JGI2>
0.13

>  <JGI3>
0.06

>  <JGI4>
0.1

>  <JGI5>
0

>  <Diameter>
5

>  <Radius>
3

>  <TMWC10>
84.78

>  <TSRW10>
39.73

>  <MW>
136.1

>  <AMW>
6.19

>  <WPath>
111

>  <WPol>
13

>  <Zagreb1>
48

>  <Zagreb2>
54

>  <mZagreb2>
2.22

>  <yes>


>  <nAR-cont>
0.336376

>  <nHA-cont>
0.645914733

>  <MWHBN>
0.171435569

>  <MWHBN-cont>
0.976158613

>  <TPSA-cont>
0.820039592

>  <pka_cont>
0.97

>  <yes.1>


>  <BBB_SCORE>
4.571607837

>  <MMFF94 Energy>
61.095

$$$$
Compound 340
Actelion Java MolfileCreator 2.0

  0  0  0  0  0  0              0 V3000
M  V30 BEGIN CTAB
M  V30 COUNTS 8 7 0 0 0
M  V30 BEGIN ATOM
M  V30 1 Cl 0.5448 2.0895 -0.2723 0
M  V30 2 C 0.6613 0.3357 0.0541 0
M  V30 3 Cl 1.2041 0.1041 1.7389 0
M  V30 4 C -0.6872 -0.3268 -0.2059 0
M  V30 5 Cl -0.5887 -2.1085 -0.1209 0
M  V30 6 H 1.4365 -0.065 -0.6055 0
M  V30 7 H -1.4463 -0.0027 0.5138 0
M  V30 8 H -1.0495 -0.0877 -1.211 0
M  V30 END ATOM
M  V30 BEGIN BOND
M  V30 1 1 1 2
M  V30 2 1 2 3
M  V30 3 1 2 4
M  V30 4 1 4 5
M  V30 5 1 2 6
M  V30 6 1 4 7
M  V30 7 1 4 8
M  V30 END BOND
M  V30 END CTAB
M  END
>  <Column 1>
423

>  <level_0>
477

>  <index>
477

>  <Unnamed: 0>
477

>  <NO.>
480

>  <Name>
vinyltrichloride

>  <IUPAC_name>
1-1-2-trichloroethane

>  <SMILES>
ClCC(Cl)Cl

>  <CID>
6574

>  <logBB>
-0.1

>  <BBB+/BBB->
BBB+

>  <Inchi>
InChI=1S/C2H3Cl3/c3-1-2(4)5/h2H-1H2

>  <threshold>


>  <reference>
R2|R2|R3|R8|R21|R25|R27|R27|R38|R40|R41|R43|R46|R47|

>  <group>
A

>  <Class>
1

>  <ABC>
3.05

>  <ABCGG>
3.31

>  <nAcid>
0

>  <nBase>
0

>  <nAromAtom>
0

>  <nAromBond>
0

>  <nAtom>
8

>  <nHeavyAtom>
5

>  <nSpiro>
0

>  <nBridgehead>
0

>  <nHetero>
3

>  <nN>
0

>  <nO>
0

>  <nF>
0

>  <BalabanJ>
2.54

>  <BertzCT>
18.85

>  <nBonds>
7

>  <nBondsO>
4

>  <nBondsS>
7

>  <nBondsD>
0

>  <nBondsT>
0

>  <nBondsA>
0

>  <nBondsM>
0

>  <nBondsKS>
7

>  <nBondsKD>
0

>  <RNCG>
0.37

>  <RPCG>
0.36

>  <FCSP3>
1

>  <SZ>
11

>  <Sm>
11.11

>  <Sv>
6.09

>  <Sse>
8.63

>  <Sp>
7.11

>  <Si>
9.08

>  <MZ>
1.38

>  <Mm>
1.39

>  <Mv>
0.76

>  <Mse>
1.08

>  <Mp>
0.89

>  <Mi>
1.13

>  <NsCH3>
0

>  <NdCH2>
0

>  <NssCH2>
1

>  <NtCH>
0

>  <NdsCH>
0

>  <NaaCH>
0

>  <NsssCH>
1

>  <NddC>
0

>  <NtsC>
0

>  <NdssC>
0

>  <NaasC>
0

>  <NaaaC>
0

>  <NssssC>
0

>  <NsNH3>
0

>  <NsNH2>
0

>  <NssNH2>
0

>  <NdNH>
0

>  <NssNH>
0

>  <NaaNH>
0

>  <NtN>
0

>  <NsssNH>
0

>  <NdsN>
0

>  <NaaN>
0

>  <NsssN>
0

>  <NddsN>
0

>  <NaasN>
0

>  <NssssN>
0

>  <NsOH>
0

>  <NdO>
0

>  <NssO>
0

>  <NaaO>
0

>  <NsF>
0

>  <NsSiH3>
0

>  <NssSiH2>
0

>  <NsssSiH>
0

>  <NssssSi>
0

>  <NsPH2>
0

>  <NssPH>
0

>  <NsssP>
0

>  <NdsssP>
0

>  <NsssssP>
0

>  <NsSH>
0

>  <NdS>
0

>  <NssS>
0

>  <NaaS>
0

>  <NdssS>
0

>  <NddssS>
0

>  <NsCl>
3

>  <NsBr>
0

>  <NsI>
0

>  <fragCpx>
4.03

>  <fMF>
0

>  <nHBAcc>
0

>  <nHBDon>
0

>  <Kier1>
5

>  <Kier2>
2.25

>  <Lipinski>
1

>  <GhoseFilter>
0

>  <FilterItLogS>
-2.15

>  <VMcGowan>
75.76

>  <LabuteASA>
46.01

>  <PEOE_VSA1>
0

>  <PEOE_VSA2>
0

>  <PEOE_VSA3>
0

>  <PEOE_VSA4>
0

>  <PEOE_VSA5>
34.8

>  <PEOE_VSA6>
0

>  <PEOE_VSA7>
0

>  <PEOE_VSA8>
0

>  <PEOE_VSA9>
5.88

>  <PEOE_VSA10>
4.84

>  <PEOE_VSA11>
0

>  <PEOE_VSA12>
0

>  <PEOE_VSA13>
0

>  <SMR_VSA1>
0

>  <SMR_VSA2>
0

>  <SMR_VSA3>
0

>  <SMR_VSA4>
0

>  <SMR_VSA5>
4.84

>  <SMR_VSA6>
5.88

>  <SMR_VSA7>
0

>  <SMR_VSA8>
0

>  <SMR_VSA9>
0

>  <SlogP_VSA1>
0

>  <SlogP_VSA2>
10.72

>  <SlogP_VSA3>
0

>  <SlogP_VSA4>
0

>  <SlogP_VSA5>
0

>  <SlogP_VSA6>
0

>  <SlogP_VSA7>
0

>  <SlogP_VSA8>
0

>  <SlogP_VSA9>
0

>  <SlogP_VSA10>
0

>  <SlogP_VSA11>
0

>  <EState_VSA1>
4.84

>  <EState_VSA2>
0

>  <EState_VSA3>
5.88

>  <EState_VSA4>
0

>  <EState_VSA5>
0

>  <EState_VSA6>
0

>  <EState_VSA7>
0

>  <EState_VSA8>
0

>  <EState_VSA9>
34.8

>  <EState_VSA10>
0

>  <VSA_EState1>
0

>  <VSA_EState2>
-0.41

>  <VSA_EState3>
0

>  <VSA_EState4>
0

>  <VSA_EState5>
0.31

>  <VSA_EState6>
0

>  <VSA_EState7>
0

>  <VSA_EState8>
0

>  <VSA_EState9>
0

>  <apol>
11.88

>  <bpol>
4.54

>  <nRing>
0

>  <nHRing>
0

>  <naRing>
0

>  <naHRing>
0

>  <nARing 2>
0

>  <nAHRing 2>
0

>  <nFRing>
0

>  <nFHRing>
0

>  <nFaRing>
0

>  <nFaHRing>
0

>  <nFARing 2>
0

>  <nFAHRing 2>
0

>  <nRot>
1

>  <SLogP>
2.03

>  <SMR>
26.21

>  <TopoPSA(NO)>
0

>  <TopoPSA>
0

>  <JGI1>
0.38

>  <JGI2>
0.11

>  <JGI3>
0

>  <JGI4>
0

>  <JGI5>
0

>  <Diameter>
3

>  <Radius>
2

>  <TMWC10>
55.94

>  <TSRW10>
27.25

>  <MW>
131.93

>  <AMW>
16.49

>  <WPath>
18

>  <WPol>
2

>  <Zagreb1>
16

>  <Zagreb2>
14

>  <mZagreb2>
1.33

>  <yes>


>  <nAR-cont>
0.336376

>  <nHA-cont>
0

>  <MWHBN>
0

>  <MWHBN-cont>
0

>  <TPSA-cont>
0

>  <pka_cont>
0.97

>  <yes.1>


>  <BBB_SCORE>
0.821376

>  <MMFF94 Energy>
13.564

$$$$
Compound 341
Actelion Java MolfileCreator 2.0

  0  0  0  0  0  0              0 V3000
M  V30 BEGIN CTAB
M  V30 COUNTS 63 67 0 0 0
M  V30 BEGIN ATOM
M  V30 1 Cl 1.5441 10.3552 2.5202 0
M  V30 2 C 1.4383 8.8317 1.729 0
M  V30 3 C 0.3904 8.5798 0.8461 0
M  V30 4 C 2.3979 7.8547 1.9747 0
M  V30 5 C 0.3004 7.341 0.2002 0
M  V30 6 C 2.3043 6.6199 1.3286 0
M  V30 7 C 1.2598 6.3557 0.436 0
M  V30 8 O 1.2952 5.1072 -0.1157 0
M  V30 9 C 0.3436 4.7584 -1.1318 0
M  V30 10 C 0.9814 3.6716 -2.0 0
M  V30 11 C -0.9448 4.223 -0.5066 0
M  V30 12 C 1.1449 2.3548 -1.2385 0
M  V30 13 C -0.7124 2.8917 0.208 0
M  V30 14 N -0.1445 1.8863 -0.7066 0
M  V30 15 C -0.0181 0.591 -0.0055 0
M  V30 16 C 0.203 -0.5842 -0.9682 0
M  V30 17 C 0.2479 -1.9742 -0.3129 0 CFG=2
M  V30 18 N -1.0143 -2.2807 0.4092 0
M  V30 19 C 1.3498 -2.1406 0.7434 0
M  V30 20 S -2.2806 -3.0677 -0.389 0
M  V30 21 C -0.7107 -2.6771 1.7983 0
M  V30 22 C 0.6319 -2.0236 2.0769 0
M  V30 23 O -3.3969 -3.145 0.5313 0
M  V30 24 O -2.4334 -2.4766 -1.7011 0
M  V30 25 C -1.6734 -4.7312 -0.6242 0
M  V30 26 C -1.9727 -5.707 0.3381 0
M  V30 27 C -0.9809 -5.0489 -1.7953 0
M  V30 28 C -1.4979 -7.0028 0.1017 0
M  V30 29 C -0.5164 -6.3521 -2.008 0
M  V30 30 N -1.6279 -8.1478 0.8563 0
M  V30 31 C -0.7734 -7.3442 -1.0412 0
M  V30 32 C -0.996 -9.1943 0.2388 0
M  V30 33 C -0.4605 -8.7277 -0.9398 0
M  V30 34 H -0.3623 9.3406 0.6563 0
M  V30 35 H 3.2168 8.0433 2.6631 0
M  V30 36 H -0.5362 7.1811 -0.4713 0
M  V30 37 H 3.0537 5.8554 1.5207 0
M  V30 38 H 0.1408 5.6154 -1.7846 0
M  V30 39 H 0.3614 3.5029 -2.8898 0
M  V30 40 H 1.9684 4.0024 -2.3454 0
M  V30 41 H -1.7011 4.0885 -1.2904 0
M  V30 42 H -1.353 4.9365 0.2173 0
M  V30 43 H 1.8809 2.4748 -0.4329 0
M  V30 44 H 1.5569 1.6258 -1.9438 0
M  V30 45 H -0.0629 3.0393 1.081 0
M  V30 46 H -1.683 2.5439 0.5833 0
M  V30 47 H -0.9468 0.3966 0.5453 0
M  V30 48 H 0.79 0.6461 0.7328 0
M  V30 49 H -0.5911 -0.5711 -1.7247 0
M  V30 50 H 1.1467 -0.4495 -1.5093 0
M  V30 51 H 0.4304 -2.7079 -1.1042 0
M  V30 52 H 1.7819 -3.146 0.6578 0
M  V30 53 H 2.1695 -1.4236 0.6392 0
M  V30 54 H -0.6164 -3.7625 1.8892 0
M  V30 55 H -1.477 -2.3165 2.4896 0
M  V30 56 H 1.1733 -2.5162 2.8898 0
M  V30 57 H 0.4941 -0.9733 2.3543 0
M  V30 58 H -2.551 -5.4707 1.2265 0
M  V30 59 H -0.8019 -4.2914 -2.5559 0
M  V30 60 H 0.0262 -6.5979 -2.9166 0
M  V30 61 H -2.1225 -8.2031 1.7364 0
M  V30 62 H -0.989 -10.1796 0.6856 0
M  V30 63 H 0.0924 -9.3187 -1.6582 0
M  V30 END ATOM
M  V30 BEGIN BOND
M  V30 1 1 1 2
M  V30 2 2 2 3
M  V30 3 1 2 4
M  V30 4 1 3 5
M  V30 5 2 4 6
M  V30 6 2 5 7
M  V30 7 1 7 8
M  V30 8 1 8 9
M  V30 9 1 9 10
M  V30 10 1 9 11
M  V30 11 1 10 12
M  V30 12 1 11 13
M  V30 13 1 12 14
M  V30 14 1 14 15
M  V30 15 1 15 16
M  V30 16 1 16 17
M  V30 17 1 17 18
M  V30 18 1 17 19
M  V30 19 1 18 20
M  V30 20 1 18 21
M  V30 21 1 19 22
M  V30 22 2 20 23
M  V30 23 2 20 24
M  V30 24 1 20 25
M  V30 25 2 25 26
M  V30 26 1 25 27
M  V30 27 1 26 28
M  V30 28 2 27 29
M  V30 29 1 28 30
M  V30 30 2 28 31
M  V30 31 1 30 32
M  V30 32 1 31 33
M  V30 33 1 6 7
M  V30 34 1 13 14
M  V30 35 1 21 22
M  V30 36 1 29 31
M  V30 37 2 32 33
M  V30 38 1 3 34
M  V30 39 1 4 35
M  V30 40 1 5 36
M  V30 41 1 6 37
M  V30 42 1 9 38
M  V30 43 1 10 39
M  V30 44 1 10 40
M  V30 45 1 11 41
M  V30 46 1 11 42
M  V30 47 1 12 43
M  V30 48 1 12 44
M  V30 49 1 13 45
M  V30 50 1 13 46
M  V30 51 1 15 47
M  V30 52 1 15 48
M  V30 53 1 16 49
M  V30 54 1 16 50
M  V30 55 1 17 51
M  V30 56 1 19 52
M  V30 57 1 19 53
M  V30 58 1 21 54
M  V30 59 1 21 55
M  V30 60 1 22 56
M  V30 61 1 22 57
M  V30 62 1 26 58
M  V30 63 1 27 59
M  V30 64 1 29 60
M  V30 65 1 30 61
M  V30 66 1 32 62
M  V30 67 1 33 63
M  V30 END BOND
M  V30 BEGIN COLLECTION
M  V30 MDLV30/STERAC1 ATOMS=(1 17)
M  V30 END COLLECTION
M  V30 END CTAB
M  END
>  <Column 1>
425

>  <level_0>
479

>  <index>
479

>  <Unnamed: 0>
479

>  <NO.>
482

>  <Name>
sb 656104a

>  <IUPAC_name>
6-[2-[2-[4-(4-chlorophenoxy)piperidin-1-yl]ethyl]pyrrolidin-1-yl]sulfonyl-1h-indole

>  <SMILES>
O=S(=O)(c1ccc2cc[nH]c2c1)N1CCCC1CCN1CCC(Oc2ccc(Cl)cc2)CC1

>  <CID>
56947090

>  <logBB>
-0.1

>  <BBB+/BBB->
BBB+

>  <Inchi>
InChI=1S/C25H30ClN3O3S/c26-20-4-6-22(7-5-20)32-23-11-16-28(17-12-23)15-10-21-2-1-14-29(21)33(30-31)24-8-3-19-9-13-27-25(19)18-24/h3-9-13-18-21-23-27H-1-2-10-12-14-17H2

>  <threshold>


>  <reference>
R18|R26|R27|

>  <group>
A

>  <Class>
1

>  <ABC>
26.39

>  <ABCGG>
19.54

>  <nAcid>
0

>  <nBase>
1

>  <nAromAtom>
15

>  <nAromBond>
16

>  <nAtom>
63

>  <nHeavyAtom>
33

>  <nSpiro>
0

>  <nBridgehead>
0

>  <nHetero>
8

>  <nN>
3

>  <nO>
3

>  <nF>
0

>  <BalabanJ>
1.06

>  <BertzCT>
1187.09

>  <nBonds>
67

>  <nBondsO>
37

>  <nBondsS>
49

>  <nBondsD>
2

>  <nBondsT>
0

>  <nBondsA>
16

>  <nBondsM>
18

>  <nBondsKS>
58

>  <nBondsKD>
9

>  <RNCG>
0.22

>  <RPCG>
0.11

>  <FCSP3>
0.44

>  <SZ>
43

>  <Sm>
40.63

>  <Sv>
39.82

>  <Sse>
63.14

>  <Sp>
43.44

>  <Si>
70.8

>  <MZ>
0.68

>  <Mm>
0.64

>  <Mv>
0.63

>  <Mse>
1

>  <Mp>
0.69

>  <Mi>
1.12

>  <NsCH3>
0

>  <NdCH2>
0

>  <NssCH2>
9

>  <NtCH>
0

>  <NdsCH>
0

>  <NaaCH>
9

>  <NsssCH>
2

>  <NddC>
0

>  <NtsC>
0

>  <NdssC>
0

>  <NaasC>
3

>  <NaaaC>
2

>  <NssssC>
0

>  <NsNH3>
0

>  <NsNH2>
0

>  <NssNH2>
0

>  <NdNH>
0

>  <NssNH>
0

>  <NaaNH>
1

>  <NtN>
0

>  <NsssNH>
0

>  <NdsN>
0

>  <NaaN>
0

>  <NsssN>
2

>  <NddsN>
0

>  <NaasN>
0

>  <NssssN>
0

>  <NsOH>
0

>  <NdO>
2

>  <NssO>
1

>  <NaaO>
0

>  <NsF>
0

>  <NsSiH3>
0

>  <NssSiH2>
0

>  <NsssSiH>
0

>  <NssssSi>
0

>  <NsPH2>
0

>  <NssPH>
0

>  <NsssP>
0

>  <NdsssP>
0

>  <NsssssP>
0

>  <NsSH>
0

>  <NdS>
0

>  <NssS>
0

>  <NaaS>
0

>  <NdssS>
0

>  <NddssS>
1

>  <NsCl>
1

>  <NsBr>
0

>  <NsI>
0

>  <fragCpx>
313.08

>  <fMF>
0.48

>  <nHBAcc>
4

>  <nHBDon>
1

>  <Kier1>
24.68

>  <Kier2>
10.95

>  <Lipinski>
1

>  <GhoseFilter>
0

>  <FilterItLogS>
-6.07

>  <VMcGowan>
354.85

>  <LabuteASA>
200.08

>  <PEOE_VSA1>
14.62

>  <PEOE_VSA2>
0

>  <PEOE_VSA3>
8.42

>  <PEOE_VSA4>
4.31

>  <PEOE_VSA5>
0

>  <PEOE_VSA6>
17.67

>  <PEOE_VSA7>
86.5

>  <PEOE_VSA8>
42.41

>  <PEOE_VSA9>
4.9

>  <PEOE_VSA10>
11.85

>  <PEOE_VSA11>
0

>  <PEOE_VSA12>
10.02

>  <PEOE_VSA13>
0

>  <SMR_VSA1>
13.15

>  <SMR_VSA2>
0

>  <SMR_VSA3>
14.19

>  <SMR_VSA4>
0

>  <SMR_VSA5>
49.15

>  <SMR_VSA6>
26.18

>  <SMR_VSA7>
59.75

>  <SMR_VSA8>
0

>  <SMR_VSA9>
5.75

>  <SlogP_VSA1>
4.74

>  <SlogP_VSA2>
60.93

>  <SlogP_VSA3>
10.02

>  <SlogP_VSA4>
0

>  <SlogP_VSA5>
32.1

>  <SlogP_VSA6>
59.62

>  <SlogP_VSA7>
5.02

>  <SlogP_VSA8>
10.9

>  <SlogP_VSA9>
0

>  <SlogP_VSA10>
0

>  <SlogP_VSA11>
5.75

>  <EState_VSA1>
10.02

>  <EState_VSA2>
12.15

>  <EState_VSA3>
16.46

>  <EState_VSA4>
68.39

>  <EState_VSA5>
0

>  <EState_VSA6>
16.44

>  <EState_VSA7>
42.6

>  <EState_VSA8>
9.88

>  <EState_VSA9>
16.34

>  <EState_VSA10>
8.42

>  <VSA_EState1>
34.57

>  <VSA_EState2>
5.94

>  <VSA_EState3>
1.74

>  <VSA_EState4>
0.86

>  <VSA_EState5>
0.86

>  <VSA_EState6>
14.91

>  <VSA_EState7>
6.73

>  <VSA_EState8>
3.47

>  <VSA_EState9>
-3.49

>  <apol>
72.54

>  <bpol>
42.99

>  <nRing>
5

>  <nHRing>
3

>  <naRing>
3

>  <naHRing>
1

>  <nARing 2>
2

>  <nAHRing 2>
2

>  <nFRing>
1

>  <nFHRing>
1

>  <nFaRing>
1

>  <nFaHRing>
1

>  <nFARing 2>
0

>  <nFAHRing 2>
0

>  <nRot>
7

>  <SLogP>
4.91

>  <SMR>
131.37

>  <TopoPSA(NO)>
65.64

>  <TopoPSA>
74.02

>  <JGI1>
0.2

>  <JGI2>
0.08

>  <JGI3>
0.04

>  <JGI4>
0.04

>  <JGI5>
0.02

>  <Diameter>
19

>  <Radius>
10

>  <TMWC10>
148.39

>  <TSRW10>
85.03

>  <MW>
487.17

>  <AMW>
7.73

>  <WPath>
3762

>  <WPol>
51

>  <Zagreb1>
180

>  <Zagreb2>
213

>  <mZagreb2>
7.06

>  <yes>


>  <nAR-cont>
1

>  <nHA-cont>
0.61399562

>  <MWHBN>
0.226532092

>  <MWHBN-cont>
0.990031554

>  <TPSA-cont>
0.483294436

>  <pka_cont>
0.97

>  <yes.1>


>  <BBB_SCORE>
4.550631824

>  <MMFF94 Energy>
2.9372

$$$$
Compound 342
Actelion Java MolfileCreator 2.0

  0  0  0  0  0  0              0 V3000
M  V30 BEGIN CTAB
M  V30 COUNTS 37 40 0 0 0
M  V30 BEGIN ATOM
M  V30 1 Cl -4.089 2.3701 -1.0619 0
M  V30 2 C -2.9506 1.3799 -0.2347 0
M  V30 3 C -1.5875 1.5539 -0.4671 0
M  V30 4 C -3.3998 0.4256 0.6749 0
M  V30 5 C -0.6518 0.7465 0.1991 0
M  V30 6 C -2.4794 -0.3683 1.3612 0
M  V30 7 C 0.8026 0.9922 -0.0699 0
M  V30 8 C -1.1068 -0.221 1.1134 0
M  V30 9 N 1.7042 1.1166 0.8503 0
M  V30 10 C 1.2596 1.13 -1.4876 0
M  V30 11 N -0.1839 -0.987 1.8631 0
M  V30 12 C 1.3493 0.9443 2.2538 0
M  V30 13 C 0.703 0.3744 -2.5222 0
M  V30 14 C 2.3023 2.0203 -1.7801 0
M  V30 15 C 0.9345 -0.4566 2.4691 0
M  V30 16 C -0.2017 -2.3387 2.1785 0
M  V30 17 F -0.2678 -0.5192 -2.2857 0
M  V30 18 C 1.1531 0.5197 -3.8333 0
M  V30 19 C 2.7555 2.1673 -3.0938 0
M  V30 20 C 1.4837 -1.4819 3.1989 0
M  V30 21 N 0.7637 -2.6318 3.0366 0
M  V30 22 C -1.1463 -3.3428 1.6157 0
M  V30 23 C 2.1784 1.4201 -4.1206 0
M  V30 24 O -1.2157 -3.1682 0.2072 0
M  V30 25 H -1.2605 2.3254 -1.1596 0
M  V30 26 H -4.4635 0.3058 0.8657 0
M  V30 27 H -2.8508 -1.0718 2.101 0
M  V30 28 H 2.2338 1.1676 2.8612 0
M  V30 29 H 0.5765 1.6571 2.5657 0
M  V30 30 H 2.7662 2.6 -0.9846 0
M  V30 31 H 0.7058 -0.0786 -4.6212 0
M  V30 32 H 3.5644 2.8607 -3.3126 0
M  V30 33 H 2.371 -1.4552 3.8183 0
M  V30 34 H -0.7762 -4.3531 1.8204 0
M  V30 35 H -2.1457 -3.2488 2.0474 0
M  V30 36 H 2.5352 1.5315 -5.1417 0
M  V30 37 H -1.5593 -3.9992 -0.1603 0
M  V30 END ATOM
M  V30 BEGIN BOND
M  V30 1 1 1 2
M  V30 2 2 2 3
M  V30 3 1 2 4
M  V30 4 1 3 5
M  V30 5 2 4 6
M  V30 6 1 5 7
M  V30 7 2 5 8
M  V30 8 2 7 9
M  V30 9 1 7 10
M  V30 10 1 8 11
M  V30 11 1 9 12
M  V30 12 2 10 13
M  V30 13 1 10 14
M  V30 14 1 11 15
M  V30 15 1 11 16
M  V30 16 1 13 17
M  V30 17 1 13 18
M  V30 18 2 14 19
M  V30 19 2 15 20
M  V30 20 2 16 21
M  V30 21 1 16 22
M  V30 22 2 18 23
M  V30 23 1 22 24
M  V30 24 1 6 8
M  V30 25 1 12 15
M  V30 26 1 19 23
M  V30 27 1 20 21
M  V30 28 1 3 25
M  V30 29 1 4 26
M  V30 30 1 6 27
M  V30 31 1 12 28
M  V30 32 1 12 29
M  V30 33 1 14 30
M  V30 34 1 18 31
M  V30 35 1 19 32
M  V30 36 1 20 33
M  V30 37 1 22 34
M  V30 38 1 22 35
M  V30 39 1 23 36
M  V30 40 1 24 37
M  V30 END BOND
M  V30 END CTAB
M  END
>  <Column 1>
426

>  <level_0>
480

>  <index>
480

>  <Unnamed: 0>
480

>  <NO.>
483

>  <Name>
59468-90-5

>  <IUPAC_name>
[8-chloro-6-(2-fluorophenyl)-4h-imidazo[1-5-a][1-4]benzodiazepin-1-yl]methanol

>  <SMILES>
OCc1ncc2n1-c1ccc(Cl)cc1C(c1ccccc1F)=NC2

>  <CID>
107917

>  <logBB>
-0.1

>  <BBB+/BBB->
BBB+

>  <Inchi>
InChI=1S/C18H13ClFN3O/c19-11-5-6-16-14(7-11)18(13-3-1-2-4-15(13)20)22-9-12-8-21-17(10-24)23(12)16/h1-8-24H-9-10H2

>  <threshold>


>  <reference>
R5|R21|R27|R2|R2|R8|R27|R3|R4|R11|R18|R26|R27|R36|R38|R39|R40|R41|R43|R47|R44|

>  <group>
A

>  <Class>
1

>  <ABC>
19.03

>  <ABCGG>
15.58

>  <nAcid>
0

>  <nBase>
0

>  <nAromAtom>
17

>  <nAromBond>
17

>  <nAtom>
37

>  <nHeavyAtom>
24

>  <nSpiro>
0

>  <nBridgehead>
0

>  <nHetero>
6

>  <nN>
3

>  <nO>
1

>  <nF>
1

>  <BalabanJ>
1.61

>  <BertzCT>
964.65

>  <nBonds>
40

>  <nBondsO>
27

>  <nBondsS>
22

>  <nBondsD>
1

>  <nBondsT>
0

>  <nBondsA>
17

>  <nBondsM>
18

>  <nBondsKS>
31

>  <nBondsKD>
9

>  <RNCG>
0.22

>  <RPCG>
0.12

>  <FCSP3>
0.11

>  <SZ>
29.33

>  <Sm>
28.45

>  <Sv>
26.25

>  <Sse>
37.81

>  <Sp>
27.29

>  <Si>
41.48

>  <MZ>
0.79

>  <Mm>
0.77

>  <Mv>
0.71

>  <Mse>
1.02

>  <Mp>
0.74

>  <Mi>
1.12

>  <NsCH3>
0

>  <NdCH2>
0

>  <NssCH2>
2

>  <NtCH>
0

>  <NdsCH>
0

>  <NaaCH>
8

>  <NsssCH>
0

>  <NddC>
0

>  <NtsC>
0

>  <NdssC>
1

>  <NaasC>
7

>  <NaaaC>
0

>  <NssssC>
0

>  <NsNH3>
0

>  <NsNH2>
0

>  <NssNH2>
0

>  <NdNH>
0

>  <NssNH>
0

>  <NaaNH>
0

>  <NtN>
0

>  <NsssNH>
0

>  <NdsN>
1

>  <NaaN>
1

>  <NsssN>
0

>  <NddsN>
0

>  <NaasN>
1

>  <NssssN>
0

>  <NsOH>
1

>  <NdO>
0

>  <NssO>
0

>  <NaaO>
0

>  <NsF>
1

>  <NsSiH3>
0

>  <NssSiH2>
0

>  <NsssSiH>
0

>  <NssssSi>
0

>  <NsPH2>
0

>  <NssPH>
0

>  <NsssP>
0

>  <NdsssP>
0

>  <NsssssP>
0

>  <NsSH>
0

>  <NdS>
0

>  <NssS>
0

>  <NaaS>
0

>  <NdssS>
0

>  <NddssS>
0

>  <NsCl>
1

>  <NsBr>
0

>  <NsI>
0

>  <fragCpx>
177.06

>  <fMF>
0.54

>  <nHBAcc>
4

>  <nHBDon>
1

>  <Kier1>
17.42

>  <Kier2>
7.32

>  <Lipinski>
1

>  <GhoseFilter>
1

>  <FilterItLogS>
-5.51

>  <VMcGowan>
232.15

>  <LabuteASA>
142.43

>  <PEOE_VSA1>
5.11

>  <PEOE_VSA2>
9.56

>  <PEOE_VSA3>
9.37

>  <PEOE_VSA4>
0

>  <PEOE_VSA5>
0

>  <PEOE_VSA6>
23.73

>  <PEOE_VSA7>
30.33

>  <PEOE_VSA8>
16.15

>  <PEOE_VSA9>
29.83

>  <PEOE_VSA10>
18.25

>  <PEOE_VSA11>
0

>  <PEOE_VSA12>
0

>  <PEOE_VSA13>
0

>  <SMR_VSA1>
9.5

>  <SMR_VSA2>
0

>  <SMR_VSA3>
9.55

>  <SMR_VSA4>
4.99

>  <SMR_VSA5>
13.15

>  <SMR_VSA6>
0

>  <SMR_VSA7>
82.15

>  <SMR_VSA8>
0

>  <SMR_VSA9>
5.69

>  <SlogP_VSA1>
0

>  <SlogP_VSA2>
20.37

>  <SlogP_VSA3>
13.15

>  <SlogP_VSA4>
5.82

>  <SlogP_VSA5>
22.65

>  <SlogP_VSA6>
53.65

>  <SlogP_VSA7>
5.02

>  <SlogP_VSA8>
5.69

>  <SlogP_VSA9>
0

>  <SlogP_VSA10>
4.39

>  <SlogP_VSA11>
0

>  <EState_VSA1>
0

>  <EState_VSA2>
12.42

>  <EState_VSA3>
34.23

>  <EState_VSA4>
11.38

>  <EState_VSA5>
6.07

>  <EState_VSA6>
36.53

>  <EState_VSA7>
10.63

>  <EState_VSA8>
9.98

>  <EState_VSA9>
11.6

>  <EState_VSA10>
9.5

>  <VSA_EState1>
16.18

>  <VSA_EState2>
8.83

>  <VSA_EState3>
10.11

>  <VSA_EState4>
3.27

>  <VSA_EState5>
0.17

>  <VSA_EState6>
11.89

>  <VSA_EState7>
1.68

>  <VSA_EState8>
0.14

>  <VSA_EState9>
0

>  <apol>
45.57

>  <bpol>
18.65

>  <nRing>
4

>  <nHRing>
2

>  <naRing>
3

>  <naHRing>
1

>  <nARing 2>
1

>  <nAHRing 2>
1

>  <nFRing>
1

>  <nFHRing>
1

>  <nFaRing>
0

>  <nFaHRing>
0

>  <nFARing 2>
1

>  <nFAHRing 2>
1

>  <nRot>
2

>  <SLogP>
3.51

>  <SMR>
90.24

>  <TopoPSA(NO)>
50.41

>  <TopoPSA>
50.41

>  <JGI1>
0.15

>  <JGI2>
0.08

>  <JGI3>
0.05

>  <JGI4>
0.04

>  <JGI5>
0.02

>  <Diameter>
10

>  <Radius>
5

>  <TMWC10>
127.73

>  <TSRW10>
73.31

>  <MW>
341.07

>  <AMW>
9.22

>  <WPath>
1170

>  <WPol>
45

>  <Zagreb1>
132

>  <Zagreb2>
161

>  <mZagreb2>
5.28

>  <yes>


>  <nAR-cont>
0.816016

>  <nHA-cont>
0.94700071

>  <MWHBN>
0.270737394

>  <MWHBN-cont>
0.918429843

>  <TPSA-cont>
0.648106897

>  <pka_cont>
0.97

>  <yes.1>


>  <BBB_SCORE>
4.921875268

>  <MMFF94 Energy>
79.07

$$$$
Compound 343
Actelion Java MolfileCreator 2.0

  0  0  0  0  0  0              0 V3000
M  V30 BEGIN CTAB
M  V30 COUNTS 46 49 0 0 0
M  V30 BEGIN ATOM
M  V30 1 Br 4.7142 4.063 0.0811 0
M  V30 2 C 4.0735 2.6566 -1.0306 0
M  V30 3 C 2.7376 2.2164 -1.0379 0
M  V30 4 C 5.0367 2.0112 -1.8187 0
M  V30 5 C 1.6997 2.9687 -0.2827 0
M  V30 6 C 2.4015 1.0993 -1.83 0
M  V30 7 C 4.6869 0.9222 -2.6136 0
M  V30 8 O 1.6434 4.1897 -0.3888 0
M  V30 9 N 0.8099 2.2513 0.4863 0
M  V30 10 N 1.0969 0.5505 -1.8232 0
M  V30 11 C 3.3746 0.4579 -2.6155 0
M  V30 12 C 0.7506 0.8019 0.6286 0 CFG=2
M  V30 13 C -0.2254 2.9223 1.256 0
M  V30 14 C 0.3108 0.298 -0.7062 0
M  V30 15 C 0.4109 0.0946 -2.9179 0
M  V30 16 C -0.1818 0.6185 1.8217 0
M  V30 17 C -1.1369 1.8031 1.7311 0
M  V30 18 C -0.7892 -0.3983 -1.203 0
M  V30 19 N -0.7117 -0.4902 -2.584 0
M  V30 20 C -1.915 -0.9897 -0.4839 0
M  V30 21 O -3.0781 -0.6548 -0.6622 0
M  V30 22 O -1.5014 -1.9816 0.3557 0
M  V30 23 C -2.4681 -2.8068 1.0554 0
M  V30 24 C -3.3314 -1.9867 2.0213 0
M  V30 25 C -1.6166 -3.7879 1.8761 0
M  V30 26 C -3.3235 -3.609 0.0681 0
M  V30 27 H 6.0713 2.3497 -1.8129 0
M  V30 28 H 5.4434 0.4262 -3.2182 0
M  V30 29 H 3.135 -0.4172 -3.2175 0
M  V30 30 H 1.7456 0.4062 0.8652 0
M  V30 31 H 0.2594 3.4309 2.0967 0
M  V30 32 H -0.7468 3.6669 0.6468 0
M  V30 33 H 0.7769 0.2115 -3.9299 0
M  V30 34 H -0.6848 -0.3425 1.8788 0
M  V30 35 H 0.4012 0.72 2.7476 0
M  V30 36 H -1.9186 1.6091 0.9885 0
M  V30 37 H -1.622 2.0338 2.6836 0
M  V30 38 H -4.0059 -1.3057 1.4943 0
M  V30 39 H -3.9507 -2.6368 2.6491 0
M  V30 40 H -2.7084 -1.3678 2.6758 0
M  V30 41 H -0.9609 -3.2482 2.5695 0
M  V30 42 H -2.237 -4.4805 2.4547 0
M  V30 43 H -0.9596 -4.3744 1.2232 0
M  V30 44 H -3.9981 -2.965 -0.5042 0
M  V30 45 H -2.6916 -4.1283 -0.661 0
M  V30 46 H -3.9399 -4.3516 0.5863 0
M  V30 END ATOM
M  V30 BEGIN BOND
M  V30 1 1 1 2
M  V30 2 2 2 3
M  V30 3 1 2 4
M  V30 4 1 3 5
M  V30 5 1 3 6
M  V30 6 2 4 7
M  V30 7 2 5 8
M  V30 8 1 5 9
M  V30 9 1 6 10
M  V30 10 2 6 11
M  V30 11 1 9 12
M  V30 12 1 9 13
M  V30 13 1 10 14
M  V30 14 1 10 15
M  V30 15 1 12 16
M  V30 16 1 13 17
M  V30 17 2 14 18
M  V30 18 2 15 19
M  V30 19 1 18 20
M  V30 20 2 20 21
M  V30 21 1 20 22
M  V30 22 1 22 23
M  V30 23 1 23 24
M  V30 24 1 23 25
M  V30 25 1 23 26
M  V30 26 1 7 11
M  V30 27 1 12 14
M  V30 28 1 16 17
M  V30 29 1 18 19
M  V30 30 1 4 27
M  V30 31 1 7 28
M  V30 32 1 11 29
M  V30 33 1 12 30
M  V30 34 1 13 31
M  V30 35 1 13 32
M  V30 36 1 15 33
M  V30 37 1 16 34
M  V30 38 1 16 35
M  V30 39 1 17 36
M  V30 40 1 17 37
M  V30 41 1 24 38
M  V30 42 1 24 39
M  V30 43 1 24 40
M  V30 44 1 25 41
M  V30 45 1 25 42
M  V30 46 1 25 43
M  V30 47 1 26 44
M  V30 48 1 26 45
M  V30 49 1 26 46
M  V30 END BOND
M  V30 BEGIN COLLECTION
M  V30 MDLV30/STERAC1 ATOMS=(1 12)
M  V30 END COLLECTION
M  V30 END CTAB
M  END
>  <Column 1>
427

>  <level_0>
481

>  <index>
481

>  <Unnamed: 0>
481

>  <NO.>
484

>  <Name>
84379-13-5

>  <IUPAC_name>
tert-butyl 14-bromo-12-oxo-2-4-11-triazatetracyclo[11.4.0.02-6.07-11]heptadeca-1(17)-3-5-13-15-pentaene-5-carboxylate

>  <SMILES>
CC(C)(C)OC(=O)c1ncn2c1C1CCCN1C(=O)c1c(Br)cccc1-2

>  <CID>
9823370

>  <logBB>
-0.09

>  <BBB+/BBB->
BBB+

>  <Inchi>
InChI=1S/C19H20BrN3O3/c1-19(2-3)26-18(25)15-16-13-8-5-9-22(13)17(24)14-11(20)6-4-7-12(14)23(16)10-21-15/h4-6-7-10-13H-5-8-9H2-1-3H3

>  <threshold>


>  <reference>
R40|R4|R18|R26|R27|R27|R36|R43|R47|

>  <group>
A

>  <Class>
1

>  <ABC>
20.91

>  <ABCGG>
17.94

>  <nAcid>
0

>  <nBase>
0

>  <nAromAtom>
11

>  <nAromBond>
11

>  <nAtom>
46

>  <nHeavyAtom>
26

>  <nSpiro>
0

>  <nBridgehead>
0

>  <nHetero>
7

>  <nN>
3

>  <nO>
3

>  <nF>
0

>  <BalabanJ>
1.65

>  <BertzCT>
913.24

>  <nBonds>
49

>  <nBondsO>
29

>  <nBondsS>
36

>  <nBondsD>
2

>  <nBondsT>
0

>  <nBondsA>
11

>  <nBondsM>
13

>  <nBondsKS>
42

>  <nBondsKD>
7

>  <RNCG>
0.21

>  <RPCG>
0.17

>  <FCSP3>
0.42

>  <SZ>
35.67

>  <Sm>
34.83

>  <Sv>
30.13

>  <Sse>
46.53

>  <Sp>
32.23

>  <Si>
51.7

>  <MZ>
0.78

>  <Mm>
0.76

>  <Mv>
0.65

>  <Mse>
1.01

>  <Mp>
0.7

>  <Mi>
1.12

>  <NsCH3>
3

>  <NdCH2>
0

>  <NssCH2>
3

>  <NtCH>
0

>  <NdsCH>
0

>  <NaaCH>
4

>  <NsssCH>
1

>  <NddC>
0

>  <NtsC>
0

>  <NdssC>
2

>  <NaasC>
5

>  <NaaaC>
0

>  <NssssC>
1

>  <NsNH3>
0

>  <NsNH2>
0

>  <NssNH2>
0

>  <NdNH>
0

>  <NssNH>
0

>  <NaaNH>
0

>  <NtN>
0

>  <NsssNH>
0

>  <NdsN>
0

>  <NaaN>
1

>  <NsssN>
1

>  <NddsN>
0

>  <NaasN>
1

>  <NssssN>
0

>  <NsOH>
0

>  <NdO>
2

>  <NssO>
1

>  <NaaO>
0

>  <NsF>
0

>  <NsSiH3>
0

>  <NssSiH2>
0

>  <NsssSiH>
0

>  <NssssSi>
0

>  <NsPH2>
0

>  <NssPH>
0

>  <NsssP>
0

>  <NdsssP>
0

>  <NsssssP>
0

>  <NsSH>
0

>  <NdS>
0

>  <NssS>
0

>  <NaaS>
0

>  <NdssS>
0

>  <NddssS>
0

>  <NsCl>
0

>  <NsBr>
1

>  <NsI>
0

>  <fragCpx>
191.07

>  <fMF>
0.37

>  <nHBAcc>
5

>  <nHBDon>
0

>  <Kier1>
19.32

>  <Kier2>
7.11

>  <Lipinski>
1

>  <GhoseFilter>
1

>  <FilterItLogS>
-4.35

>  <VMcGowan>
270.08

>  <LabuteASA>
159.83

>  <PEOE_VSA1>
9.64

>  <PEOE_VSA2>
9.36

>  <PEOE_VSA3>
9.78

>  <PEOE_VSA4>
0

>  <PEOE_VSA5>
0

>  <PEOE_VSA6>
6.07

>  <PEOE_VSA7>
61.68

>  <PEOE_VSA8>
11.02

>  <PEOE_VSA9>
22.99

>  <PEOE_VSA10>
11.93

>  <PEOE_VSA11>
5.69

>  <PEOE_VSA12>
0

>  <PEOE_VSA13>
5.91

>  <SMR_VSA1>
14.33

>  <SMR_VSA2>
0

>  <SMR_VSA3>
14.45

>  <SMR_VSA4>
0

>  <SMR_VSA5>
45.26

>  <SMR_VSA6>
6.54

>  <SMR_VSA7>
45.95

>  <SMR_VSA8>
0

>  <SMR_VSA9>
5.69

>  <SlogP_VSA1>
0

>  <SlogP_VSA2>
38.47

>  <SlogP_VSA3>
4.74

>  <SlogP_VSA4>
0

>  <SlogP_VSA5>
66.2

>  <SlogP_VSA6>
29

>  <SlogP_VSA7>
0

>  <SlogP_VSA8>
5.69

>  <SlogP_VSA9>
0

>  <SlogP_VSA10>
0

>  <SlogP_VSA11>
0

>  <EState_VSA1>
11.57

>  <EState_VSA2>
17.64

>  <EState_VSA3>
12.11

>  <EState_VSA4>
28.7

>  <EState_VSA5>
0

>  <EState_VSA6>
6.33

>  <EState_VSA7>
48.44

>  <EState_VSA8>
20.91

>  <EState_VSA9>
4.74

>  <EState_VSA10>
9.59

>  <VSA_EState1>
8.16

>  <VSA_EState2>
32.12

>  <VSA_EState3>
0

>  <VSA_EState4>
1.76

>  <VSA_EState5>
-0.47

>  <VSA_EState6>
5.44

>  <VSA_EState7>
3.32

>  <VSA_EState8>
6.16

>  <VSA_EState9>
0

>  <apol>
53.82

>  <bpol>
29.48

>  <nRing>
4

>  <nHRing>
3

>  <naRing>
2

>  <naHRing>
1

>  <nARing 2>
2

>  <nAHRing 2>
2

>  <nFRing>
1

>  <nFHRing>
1

>  <nFaRing>
0

>  <nFaHRing>
0

>  <nFARing 2>
1

>  <nFAHRing 2>
1

>  <nRot>
1

>  <SLogP>
3.88

>  <SMR>
99.44

>  <TopoPSA(NO)>
64.43

>  <TopoPSA>
64.43

>  <JGI1>
0.21

>  <JGI2>
0.08

>  <JGI3>
0.05

>  <JGI4>
0.04

>  <JGI5>
0.03

>  <Diameter>
10

>  <Radius>
5

>  <TMWC10>
133.39

>  <TSRW10>
77.76

>  <MW>
417.07

>  <AMW>
9.07

>  <WPath>
1443

>  <WPol>
49

>  <Zagreb1>
148

>  <Zagreb2>
181

>  <mZagreb2>
5.4

>  <yes>


>  <nAR-cont>
1

>  <nHA-cont>
0.892715677

>  <MWHBN>
0.244830505

>  <MWHBN-cont>
0.968039938

>  <TPSA-cont>
0.550238591

>  <pka_cont>
0.97

>  <yes.1>


>  <BBB_SCORE>
4.930252767

>  <MMFF94 Energy>
71.175

$$$$
Compound 344
Actelion Java MolfileCreator 2.0

  0  0  0  0  0  0              0 V3000
M  V30 BEGIN CTAB
M  V30 COUNTS 46 49 0 0 0
M  V30 BEGIN ATOM
M  V30 1 Br 7.5663 1.5423 -1.3798 0
M  V30 2 C 5.826 0.9056 -1.0083 0
M  V30 3 C 4.7178 1.5934 -1.4983 0
M  V30 4 C 5.6622 -0.2463 -0.2434 0
M  V30 5 C 3.419 1.1357 -1.2199 0
M  V30 6 C 4.3783 -0.7232 0.0266 0
M  V30 7 C 2.3042 1.9349 -1.7963 0
M  V30 8 C 3.2537 -0.0387 -0.4665 0
M  V30 9 O 2.4621 2.4625 -2.894 0
M  V30 10 N 1.1536 2.0829 -1.0573 0
M  V30 11 N 1.9716 -0.5784 -0.201 0
M  V30 12 C 0.9232 1.601 0.2987 0 CFG=2
M  V30 13 C 0.045 2.8864 -1.5446 0
M  V30 14 C 0.8278 0.114 0.1878 0
M  V30 15 C 1.6492 -1.9055 -0.2701 0
M  V30 16 C -0.2668 2.4267 0.7616 0
M  V30 17 C -1.0569 2.6821 -0.5179 0
M  V30 18 C -0.1464 -0.8771 0.3518 0
M  V30 19 N 0.4064 -2.1228 0.0667 0
M  V30 20 C -1.5616 -0.7888 0.7488 0
M  V30 21 O -2.1089 0.2281 1.1498 0
M  V30 22 O -2.1948 -1.9912 0.6218 0
M  V30 23 C -3.5969 -2.1461 0.9512 0
M  V30 24 C -3.8543 -1.8727 2.4371 0
M  V30 25 C -3.903 -3.6242 0.6652 0
M  V30 26 C -4.4809 -1.2802 0.0468 0
M  V30 27 H 4.8557 2.4908 -2.0999 0
M  V30 28 H 6.527 -0.7811 0.1432 0
M  V30 29 H 4.2772 -1.6226 0.632 0
M  V30 30 H 1.7864 1.8557 0.9276 0
M  V30 31 H 0.3742 3.9311 -1.5788 0
M  V30 32 H -0.2446 2.5757 -2.5528 0
M  V30 33 H 2.3523 -2.6682 -0.5793 0
M  V30 34 H 0.1001 3.3983 1.1233 0
M  V30 35 H -0.8341 2.0032 1.5879 0
M  V30 36 H -1.7228 3.5461 -0.4421 0
M  V30 37 H -1.6592 1.8097 -0.79 0
M  V30 38 H -3.7212 -0.8162 2.6884 0
M  V30 39 H -4.8749 -2.15 2.7223 0
M  V30 40 H -3.1525 -2.4351 3.063 0
M  V30 41 H -3.2625 -4.2785 1.268 0
M  V30 42 H -4.9483 -3.8722 0.8778 0
M  V30 43 H -3.6953 -3.8693 -0.3828 0
M  V30 44 H -4.3587 -0.213 0.2545 0
M  V30 45 H -4.2196 -1.4267 -1.0071 0
M  V30 46 H -5.5415 -1.5194 0.1793 0
M  V30 END ATOM
M  V30 BEGIN BOND
M  V30 1 1 1 2
M  V30 2 2 2 3
M  V30 3 1 2 4
M  V30 4 1 3 5
M  V30 5 2 4 6
M  V30 6 1 5 7
M  V30 7 2 5 8
M  V30 8 2 7 9
M  V30 9 1 7 10
M  V30 10 1 8 11
M  V30 11 1 10 12
M  V30 12 1 10 13
M  V30 13 1 11 14
M  V30 14 1 11 15
M  V30 15 1 12 16
M  V30 16 1 13 17
M  V30 17 2 14 18
M  V30 18 2 15 19
M  V30 19 1 18 20
M  V30 20 2 20 21
M  V30 21 1 20 22
M  V30 22 1 22 23
M  V30 23 1 23 24
M  V30 24 1 23 25
M  V30 25 1 23 26
M  V30 26 1 6 8
M  V30 27 1 12 14
M  V30 28 1 16 17
M  V30 29 1 18 19
M  V30 30 1 3 27
M  V30 31 1 4 28
M  V30 32 1 6 29
M  V30 33 1 12 30
M  V30 34 1 13 31
M  V30 35 1 13 32
M  V30 36 1 15 33
M  V30 37 1 16 34
M  V30 38 1 16 35
M  V30 39 1 17 36
M  V30 40 1 17 37
M  V30 41 1 24 38
M  V30 42 1 24 39
M  V30 43 1 24 40
M  V30 44 1 25 41
M  V30 45 1 25 42
M  V30 46 1 25 43
M  V30 47 1 26 44
M  V30 48 1 26 45
M  V30 49 1 26 46
M  V30 END BOND
M  V30 BEGIN COLLECTION
M  V30 MDLV30/STERAC1 ATOMS=(1 12)
M  V30 END COLLECTION
M  V30 END CTAB
M  END
>  <Column 1>
428

>  <level_0>
483

>  <index>
483

>  <Unnamed: 0>
483

>  <NO.>
486

>  <Name>
bretazenil

>  <IUPAC_name>
tert-butyl 15-bromo-12-oxo-2-4-11-triazatetracyclo[11.4.0.02-6.07-11]heptadeca-1(17)-3-5-13-15-pentaene-5-carboxylate

>  <SMILES>
CC(C)(C)OC(=O)c1ncn2c1C1CCCN1C(=O)c1cc(Br)ccc1-2

>  <CID>
133109366

>  <logBB>
-0.09

>  <BBB+/BBB->
BBB+

>  <Inchi>
InChI=1S/C19H20BrN3O3/c1-19(2-3)26-18(25)15-16-14-5-4-8-22(14)17(24)12-9-11(20)6-7-13(12)23(16)10-21-15/h6-7-9-10-14H-4-5-8H2-1-3H3

>  <threshold>


>  <reference>
R3|R38|R41|

>  <group>
A

>  <Class>
1

>  <ABC>
20.95

>  <ABCGG>
17.81

>  <nAcid>
0

>  <nBase>
0

>  <nAromAtom>
11

>  <nAromBond>
11

>  <nAtom>
46

>  <nHeavyAtom>
26

>  <nSpiro>
0

>  <nBridgehead>
0

>  <nHetero>
7

>  <nN>
3

>  <nO>
3

>  <nF>
0

>  <BalabanJ>
1.63

>  <BertzCT>
913.24

>  <nBonds>
49

>  <nBondsO>
29

>  <nBondsS>
36

>  <nBondsD>
2

>  <nBondsT>
0

>  <nBondsA>
11

>  <nBondsM>
13

>  <nBondsKS>
42

>  <nBondsKD>
7

>  <RNCG>
0.21

>  <RPCG>
0.17

>  <FCSP3>
0.42

>  <SZ>
35.67

>  <Sm>
34.83

>  <Sv>
30.13

>  <Sse>
46.53

>  <Sp>
32.23

>  <Si>
51.7

>  <MZ>
0.78

>  <Mm>
0.76

>  <Mv>
0.65

>  <Mse>
1.01

>  <Mp>
0.7

>  <Mi>
1.12

>  <NsCH3>
3

>  <NdCH2>
0

>  <NssCH2>
3

>  <NtCH>
0

>  <NdsCH>
0

>  <NaaCH>
4

>  <NsssCH>
1

>  <NddC>
0

>  <NtsC>
0

>  <NdssC>
2

>  <NaasC>
5

>  <NaaaC>
0

>  <NssssC>
1

>  <NsNH3>
0

>  <NsNH2>
0

>  <NssNH2>
0

>  <NdNH>
0

>  <NssNH>
0

>  <NaaNH>
0

>  <NtN>
0

>  <NsssNH>
0

>  <NdsN>
0

>  <NaaN>
1

>  <NsssN>
1

>  <NddsN>
0

>  <NaasN>
1

>  <NssssN>
0

>  <NsOH>
0

>  <NdO>
2

>  <NssO>
1

>  <NaaO>
0

>  <NsF>
0

>  <NsSiH3>
0

>  <NssSiH2>
0

>  <NsssSiH>
0

>  <NssssSi>
0

>  <NsPH2>
0

>  <NssPH>
0

>  <NsssP>
0

>  <NdsssP>
0

>  <NsssssP>
0

>  <NsSH>
0

>  <NdS>
0

>  <NssS>
0

>  <NaaS>
0

>  <NdssS>
0

>  <NddssS>
0

>  <NsCl>
0

>  <NsBr>
1

>  <NsI>
0

>  <fragCpx>
191.07

>  <fMF>
0.37

>  <nHBAcc>
5

>  <nHBDon>
0

>  <Kier1>
19.32

>  <Kier2>
7.11

>  <Lipinski>
1

>  <GhoseFilter>
1

>  <FilterItLogS>
-4.35

>  <VMcGowan>
270.08

>  <LabuteASA>
159.83

>  <PEOE_VSA1>
9.64

>  <PEOE_VSA2>
9.36

>  <PEOE_VSA3>
9.78

>  <PEOE_VSA4>
0

>  <PEOE_VSA5>
0

>  <PEOE_VSA6>
15.93

>  <PEOE_VSA7>
51.81

>  <PEOE_VSA8>
11.02

>  <PEOE_VSA9>
22.99

>  <PEOE_VSA10>
11.93

>  <PEOE_VSA11>
5.69

>  <PEOE_VSA12>
0

>  <PEOE_VSA13>
5.91

>  <SMR_VSA1>
14.33

>  <SMR_VSA2>
0

>  <SMR_VSA3>
14.45

>  <SMR_VSA4>
0

>  <SMR_VSA5>
45.26

>  <SMR_VSA6>
6.54

>  <SMR_VSA7>
45.95

>  <SMR_VSA8>
0

>  <SMR_VSA9>
5.69

>  <SlogP_VSA1>
0

>  <SlogP_VSA2>
38.47

>  <SlogP_VSA3>
4.74

>  <SlogP_VSA4>
0

>  <SlogP_VSA5>
66.2

>  <SlogP_VSA6>
29

>  <SlogP_VSA7>
0

>  <SlogP_VSA8>
5.69

>  <SlogP_VSA9>
0

>  <SlogP_VSA10>
0

>  <SlogP_VSA11>
0

>  <EState_VSA1>
11.57

>  <EState_VSA2>
11.95

>  <EState_VSA3>
17.8

>  <EState_VSA4>
28.7

>  <EState_VSA5>
0

>  <EState_VSA6>
6.33

>  <EState_VSA7>
48.44

>  <EState_VSA8>
20.91

>  <EState_VSA9>
4.74

>  <EState_VSA10>
9.59

>  <VSA_EState1>
8.26

>  <VSA_EState2>
32.05

>  <VSA_EState3>
0

>  <VSA_EState4>
1.78

>  <VSA_EState5>
-0.46

>  <VSA_EState6>
5.43

>  <VSA_EState7>
3.33

>  <VSA_EState8>
6.17

>  <VSA_EState9>
0

>  <apol>
53.82

>  <bpol>
29.48

>  <nRing>
4

>  <nHRing>
3

>  <naRing>
2

>  <naHRing>
1

>  <nARing 2>
2

>  <nAHRing 2>
2

>  <nFRing>
1

>  <nFHRing>
1

>  <nFaRing>
0

>  <nFaHRing>
0

>  <nFARing 2>
1

>  <nFAHRing 2>
1

>  <nRot>
1

>  <SLogP>
3.88

>  <SMR>
99.44

>  <TopoPSA(NO)>
64.43

>  <TopoPSA>
64.43

>  <JGI1>
0.22

>  <JGI2>
0.08

>  <JGI3>
0.05

>  <JGI4>
0.04

>  <JGI5>
0.03

>  <Diameter>
11

>  <Radius>
6

>  <TMWC10>
133.26

>  <TSRW10>
77.72

>  <MW>
417.07

>  <AMW>
9.07

>  <WPath>
1462

>  <WPol>
48

>  <Zagreb1>
148

>  <Zagreb2>
180

>  <mZagreb2>
5.38

>  <yes>


>  <nAR-cont>
1

>  <nHA-cont>
0.892715677

>  <MWHBN>
0.244830505

>  <MWHBN-cont>
0.968039938

>  <TPSA-cont>
0.550238591

>  <pka_cont>
0.97

>  <yes.1>


>  <BBB_SCORE>
4.930252767

>  <MMFF94 Energy>
60.019

$$$$
Compound 345
Actelion Java MolfileCreator 2.0

  0  0  0  0  0  0              0 V3000
M  V30 BEGIN CTAB
M  V30 COUNTS 92 93 0 0 0
M  V30 BEGIN ATOM
M  V30 1 O -1.6518 -2.2816 5.5933 0
M  V30 2 C -1.1757 -1.8582 4.5433 0
M  V30 3 N 0.0286 -1.196 4.5316 0
M  V30 4 C -1.9759 -1.8899 3.2817 0
M  V30 5 C 0.8482 -0.906 3.4608 0
M  V30 6 C -2.4106 -0.7579 2.6853 0
M  V30 7 C -2.3495 -3.2571 2.7948 0
M  V30 8 C 1.0705 -1.909 2.3801 0
M  V30 9 C 1.5557 0.222 3.4384 0
M  V30 10 C -2.2833 0.5813 3.2177 0
M  V30 11 O 0.7717 -3.0876 2.549 0
M  V30 12 C 1.7361 -1.4658 1.1176 0
M  V30 13 C 2.4061 0.5909 2.297 0
M  V30 14 C -2.4944 1.783 2.6586 0
M  V30 15 C 2.3638 -0.2703 1.0457 0
M  V30 16 C 1.7163 -2.5118 0.0117 0
M  V30 17 O 3.1095 1.5908 2.4137 0
M  V30 18 C -2.8853 2.315 1.2965 0
M  V30 19 N 3.0227 0.1718 -0.0997 0
M  V30 20 C 0.3241 -2.9005 -0.5324 0
M  V30 21 O -3.9163 3.2938 1.5492 0
M  V30 22 C -3.3495 1.3404 0.1728 0
M  V30 23 C 3.728 1.4243 -0.3445 0
M  V30 24 C -0.4752 -1.7319 -1.1458 0
M  V30 25 C 0.4487 -4.101 -1.477 0
M  V30 26 C -3.4493 4.6329 1.4411 0
M  V30 27 O -4.6653 0.8261 0.4642 0
M  V30 28 C -3.3583 2.0377 -1.1964 0
M  V30 29 C 5.2402 1.2474 -0.0896 0
M  V30 30 C 0.1591 -0.9369 -2.3083 0
M  V30 31 C -4.9399 -0.404 -0.0126 0
M  V30 32 C -2.3135 2.0262 -2.0535 0
M  V30 33 C -4.6316 2.7477 -1.5896 0
M  V30 34 N 5.8443 0.1347 -0.8695 0
M  V30 35 O 0.4239 -1.8327 -3.4034 0
M  V30 36 C -0.8402 0.1463 -2.8114 0
M  V30 37 O -4.1799 -1.137 -0.6243 0
M  V30 38 N -6.2076 -0.7434 0.3054 0
M  V30 39 C -0.9652 1.3585 -1.8536 0
M  V30 40 C 7.176 -0.1705 -0.3376 0
M  V30 41 C 5.9483 0.4678 -2.292 0
M  V30 42 C 1.7275 -1.6566 -3.9532 0
M  V30 43 O -0.4512 0.6002 -4.1182 0
M  V30 44 C 0.1466 2.3954 -2.0467 0
M  V30 45 H 0.3085 -0.8824 5.4532 0
M  V30 46 H -2.9901 -0.8743 1.7791 0
M  V30 47 H -2.6796 -3.2386 1.7507 0
M  V30 48 H -3.1672 -3.6593 3.4022 0
M  V30 49 H -1.5114 -3.9552 2.8619 0
M  V30 50 H 1.5011 0.9582 4.2316 0
M  V30 51 H -2.0041 0.6196 4.2733 0
M  V30 52 H -2.3282 2.6142 3.3498 0
M  V30 53 H 2.2024 -3.4146 0.4085 0
M  V30 54 H 2.346 -2.2203 -0.8324 0
M  V30 55 H -1.9837 2.8242 0.9243 0
M  V30 56 H 3.3454 -0.5567 -0.7317 0
M  V30 57 H -0.2862 -3.2602 0.3059 0
M  V30 58 H -2.6396 0.51 0.1411 0
M  V30 59 H 3.3207 2.259 0.232 0
M  V30 60 H 3.5641 1.7021 -1.3914 0
M  V30 61 H -1.4327 -2.1451 -1.492 0
M  V30 62 H -0.7246 -1.045 -0.3302 0
M  V30 63 H -0.5127 -4.3393 -1.9431 0
M  V30 64 H 1.1867 -3.9341 -2.2654 0
M  V30 65 H 0.7721 -4.987 -0.9189 0
M  V30 66 H -4.2866 5.3053 1.6463 0
M  V30 67 H -3.0828 4.8322 0.4297 0
M  V30 68 H -2.6594 4.8264 2.173 0
M  V30 69 H 5.7604 2.192 -0.2929 0
M  V30 70 H 5.3681 1.0365 0.9798 0
M  V30 71 H 1.0885 -0.4626 -1.9796 0
M  V30 72 H -2.4245 2.5212 -3.0203 0
M  V30 73 H -4.9347 3.4705 -0.8283 0
M  V30 74 H -4.5207 3.3001 -2.5292 0
M  V30 75 H -5.4451 2.0293 -1.7306 0
M  V30 76 H -1.821 -0.3297 -2.9447 0
M  V30 77 H -6.5664 -1.6417 0.0213 0
M  V30 78 H -6.7812 -0.0962 0.8243 0
M  V30 79 H -0.8818 1.0155 -0.8207 0
M  V30 80 H 7.1103 -0.48 0.7114 0
M  V30 81 H 7.8546 0.6876 -0.4041 0
M  V30 82 H 7.6247 -1.0096 -0.881 0
M  V30 83 H 6.5366 1.3764 -2.4632 0
M  V30 84 H 4.9593 0.6041 -2.7403 0
M  V30 85 H 6.419 -0.3536 -2.8441 0
M  V30 86 H 1.878 -0.6278 -4.2924 0
M  V30 87 H 2.4904 -1.9193 -3.215 0
M  V30 88 H 1.829 -2.3268 -4.8107 0
M  V30 89 H -0.4126 -0.2147 -4.6552 0
M  V30 90 H 1.1328 1.9338 -1.9465 0
M  V30 91 H 0.072 3.185 -1.29 0
M  V30 92 H 0.0974 2.8772 -3.0294 0
M  V30 END ATOM
M  V30 BEGIN BOND
M  V30 1 2 1 2
M  V30 2 1 2 3
M  V30 3 1 2 4
M  V30 4 1 3 5
M  V30 5 2 4 6
M  V30 6 1 4 7
M  V30 7 1 5 8
M  V30 8 2 5 9
M  V30 9 1 6 10
M  V30 10 2 8 11
M  V30 11 1 8 12
M  V30 12 1 9 13
M  V30 13 2 10 14
M  V30 14 2 12 15
M  V30 15 1 12 16
M  V30 16 2 13 17
M  V30 17 1 14 18
M  V30 18 1 15 19
M  V30 19 1 16 20
M  V30 20 1 18 21
M  V30 21 1 18 22
M  V30 22 1 19 23
M  V30 23 1 20 24
M  V30 24 1 20 25
M  V30 25 1 21 26
M  V30 26 1 22 27
M  V30 27 1 22 28
M  V30 28 1 23 29
M  V30 29 1 24 30
M  V30 30 1 27 31
M  V30 31 2 28 32
M  V30 32 1 28 33
M  V30 33 1 29 34
M  V30 34 1 30 35
M  V30 35 1 30 36
M  V30 36 2 31 37
M  V30 37 1 31 38
M  V30 38 1 32 39
M  V30 39 1 34 40
M  V30 40 1 34 41
M  V30 41 1 35 42
M  V30 42 1 36 43
M  V30 43 1 39 44
M  V30 44 1 13 15
M  V30 45 1 36 39
M  V30 46 1 3 45
M  V30 47 1 6 46
M  V30 48 1 7 47
M  V30 49 1 7 48
M  V30 50 1 7 49
M  V30 51 1 9 50
M  V30 52 1 10 51
M  V30 53 1 14 52
M  V30 54 1 16 53
M  V30 55 1 16 54
M  V30 56 1 18 55
M  V30 57 1 19 56
M  V30 58 1 20 57
M  V30 59 1 22 58
M  V30 60 1 23 59
M  V30 61 1 23 60
M  V30 62 1 24 61
M  V30 63 1 24 62
M  V30 64 1 25 63
M  V30 65 1 25 64
M  V30 66 1 25 65
M  V30 67 1 26 66
M  V30 68 1 26 67
M  V30 69 1 26 68
M  V30 70 1 29 69
M  V30 71 1 29 70
M  V30 72 1 30 71
M  V30 73 1 32 72
M  V30 74 1 33 73
M  V30 75 1 33 74
M  V30 76 1 33 75
M  V30 77 1 36 76
M  V30 78 1 38 77
M  V30 79 1 38 78
M  V30 80 1 39 79
M  V30 81 1 40 80
M  V30 82 1 40 81
M  V30 83 1 40 82
M  V30 84 1 41 83
M  V30 85 1 41 84
M  V30 86 1 41 85
M  V30 87 1 42 86
M  V30 88 1 42 87
M  V30 89 1 42 88
M  V30 90 1 43 89
M  V30 91 1 44 90
M  V30 92 1 44 91
M  V30 93 1 44 92
M  V30 END BOND
M  V30 END CTAB
M  END
>  <Column 1>
429

>  <level_0>
484

>  <index>
484

>  <Unnamed: 0>
484

>  <NO.>
487

>  <Name>
17-(dimethylaminoethylamino)-17-demethoxygeldamycin

>  <IUPAC_name>
[(4z-6z-10z)-19-[2-(dimethylamino)ethylamino]-13-hydroxy-8-14-dimethoxy-4-10-12-16-tetramethyl-3-20-22-trioxo-2-azabicyclo[16.3.1]docosa-1(21)-4-6-10-18-pentaen-9-yl] carbamate

>  <SMILES>
COC1/C=C\C=C(\C)C(=O)NC2=CC(=O)C(NCCN(C)C)=C(CC(C)CC(OC)C(O)C(C)/C=C(/C)C1OC(N)=O)C2=O

>  <CID>
6121520

>  <logBB>
-0.09

>  <BBB+/BBB->
BBB+

>  <Inchi>
InChI=1S/C32H48N4O8/c1-18-14-22-27(34-12-13-36(5)6)24(37)17-23(29(22)39)35-31(40)19(2)10-9-11-25(42-7)30(44-32(33)41)21(4)16-20(3)28(38)26(15-18)43-8/h9-11-16-18-20-25-26-28-30-34-38H-12-15H2-1-8H3-(H2-33-41)(H-35-40)/b11-9--19-10--21-16-

>  <threshold>


>  <reference>
R20|

>  <group>
A

>  <Class>
1

>  <ABC>
32.77

>  <ABCGG>
25.45

>  <nAcid>
0

>  <nBase>
1

>  <nAromAtom>
0

>  <nAromBond>
0

>  <nAtom>
92

>  <nHeavyAtom>
44

>  <nSpiro>
0

>  <nBridgehead>
2

>  <nHetero>
12

>  <nN>
4

>  <nO>
8

>  <nF>
0

>  <BalabanJ>
2.37

>  <BertzCT>
1232.48

>  <nBonds>
93

>  <nBondsO>
45

>  <nBondsS>
84

>  <nBondsD>
9

>  <nBondsT>
0

>  <nBondsA>
0

>  <nBondsM>
9

>  <nBondsKS>
84

>  <nBondsKD>
9

>  <RNCG>
0.1

>  <RPCG>
0.09

>  <FCSP3>
0.56

>  <SZ>
55.33

>  <Sm>
51.35

>  <Sv>
53.75

>  <Sse>
92.61

>  <Sp>
57.64

>  <Si>
104.8

>  <MZ>
0.6

>  <Mm>
0.56

>  <Mv>
0.58

>  <Mse>
1.01

>  <Mp>
0.63

>  <Mi>
1.14

>  <NsCH3>
8

>  <NdCH2>
0

>  <NssCH2>
4

>  <NtCH>
0

>  <NdsCH>
5

>  <NaaCH>
0

>  <NsssCH>
6

>  <NddC>
0

>  <NtsC>
0

>  <NdssC>
9

>  <NaasC>
0

>  <NaaaC>
0

>  <NssssC>
0

>  <NsNH3>
0

>  <NsNH2>
1

>  <NssNH2>
0

>  <NdNH>
0

>  <NssNH>
2

>  <NaaNH>
0

>  <NtN>
0

>  <NsssNH>
0

>  <NdsN>
0

>  <NaaN>
0

>  <NsssN>
1

>  <NddsN>
0

>  <NaasN>
0

>  <NssssN>
0

>  <NsOH>
1

>  <NdO>
4

>  <NssO>
3

>  <NaaO>
0

>  <NsF>
0

>  <NsSiH3>
0

>  <NssSiH2>
0

>  <NsssSiH>
0

>  <NssssSi>
0

>  <NsPH2>
0

>  <NssPH>
0

>  <NsssP>
0

>  <NdsssP>
0

>  <NsssssP>
0

>  <NsSH>
0

>  <NdS>
0

>  <NssS>
0

>  <NaaS>
0

>  <NdssS>
0

>  <NddssS>
0

>  <NsCl>
0

>  <NsBr>
0

>  <NsI>
0

>  <fragCpx>
133.12

>  <fMF>
0.24

>  <nHBAcc>
10

>  <nHBDon>
4

>  <Kier1>
40.18

>  <Kier2>
19.73

>  <Lipinski>
0

>  <GhoseFilter>
0

>  <FilterItLogS>
-4.02

>  <VMcGowan>
488.2

>  <LabuteASA>
259.57

>  <PEOE_VSA1>
40.58

>  <PEOE_VSA2>
14.38

>  <PEOE_VSA3>
4.79

>  <PEOE_VSA4>
0

>  <PEOE_VSA5>
0

>  <PEOE_VSA6>
38.15

>  <PEOE_VSA7>
52.28

>  <PEOE_VSA8>
50.45

>  <PEOE_VSA9>
23.6

>  <PEOE_VSA10>
6.1

>  <PEOE_VSA11>
6.1

>  <PEOE_VSA12>
11.57

>  <PEOE_VSA13>
5.91

>  <SMR_VSA1>
38.5

>  <SMR_VSA2>
0

>  <SMR_VSA3>
15.53

>  <SMR_VSA4>
17.57

>  <SMR_VSA5>
64.95

>  <SMR_VSA6>
41.4

>  <SMR_VSA7>
58.49

>  <SMR_VSA8>
0

>  <SMR_VSA9>
0

>  <SlogP_VSA1>
16.37

>  <SlogP_VSA2>
99.39

>  <SlogP_VSA3>
28.59

>  <SlogP_VSA4>
11.84

>  <SlogP_VSA5>
40.54

>  <SlogP_VSA6>
58.49

>  <SlogP_VSA7>
0

>  <SlogP_VSA8>
0

>  <SlogP_VSA9>
0

>  <SlogP_VSA10>
4.79

>  <SlogP_VSA11>
0

>  <EState_VSA1>
53.9

>  <EState_VSA2>
34.88

>  <EState_VSA3>
25.08

>  <EState_VSA4>
6.08

>  <EState_VSA5>
20.3

>  <EState_VSA6>
32.08

>  <EState_VSA7>
32.84

>  <EState_VSA8>
10.63

>  <EState_VSA9>
19.94

>  <EState_VSA10>
24.28

>  <VSA_EState1>
16.62

>  <VSA_EState2>
53.68

>  <VSA_EState3>
16.99

>  <VSA_EState4>
6.55

>  <VSA_EState5>
-2.06

>  <VSA_EState6>
0

>  <VSA_EState7>
3.88

>  <VSA_EState8>
8.09

>  <VSA_EState9>
6.74

>  <apol>
96.26

>  <bpol>
59.11

>  <nRing>
2

>  <nHRing>
1

>  <naRing>
0

>  <naHRing>
0

>  <nARing 2>
2

>  <nAHRing 2>
1

>  <nFRing>
1

>  <nFHRing>
1

>  <nFaRing>
0

>  <nFaHRing>
0

>  <nFARing 2>
1

>  <nFAHRing 2>
1

>  <nRot>
7

>  <SLogP>
1.91

>  <SMR>
166.1

>  <TopoPSA(NO)>
169.52

>  <TopoPSA>
169.52

>  <JGI1>
0.24

>  <JGI2>
0.1

>  <JGI3>
0.06

>  <JGI4>
0.04

>  <JGI5>
0.02

>  <Diameter>
18

>  <Radius>
9

>  <TMWC10>
168.17

>  <TSRW10>
81.03

>  <MW>
616.35

>  <AMW>
6.7

>  <WPath>
6632

>  <WPol>
73

>  <Zagreb1>
214

>  <Zagreb2>
245

>  <mZagreb2>
10

>  <yes>


>  <nAR-cont>
1

>  <nHA-cont>
0.178195572

>  <MWHBN>
0.563915894

>  <MWHBN-cont>
0

>  <TPSA-cont>
0

>  <pka_cont>
0.97

>  <yes.1>


>  <BBB_SCORE>
1.663195572

>  <MMFF94 Energy>
124.11

$$$$
Compound 346
Actelion Java MolfileCreator 2.0

  0  0  0  0  0  0              0 V3000
M  V30 BEGIN CTAB
M  V30 COUNTS 51 54 0 0 0
M  V30 BEGIN ATOM
M  V30 1 O 0.2385 -1.432 3.1048 0
M  V30 2 C -0.1548 -1.7466 1.9859 0
M  V30 3 N -1.0237 -0.9599 1.2516 0
M  V30 4 C 0.2428 -3.0401 1.3038 0
M  V30 5 C -1.5375 0.3161 1.7383 0
M  V30 6 C 0.8071 -2.7789 -0.0532 0
M  V30 7 C -0.4234 1.3845 1.7671 0
M  V30 8 C -2.753 0.7316 0.9087 0
M  V30 9 N -0.0115 -2.5247 -1.0905 0
M  V30 10 C 2.1749 -2.7166 -0.4298 0
M  V30 11 C -0.0481 1.7835 0.3516 0
M  V30 12 C -0.7911 2.6352 2.579 0
M  V30 13 C -2.4047 1.4086 -0.4104 0
M  V30 14 N 0.8303 -2.4748 -2.1475 0
M  V30 15 C 2.1583 -2.5006 -1.8048 0
M  V30 16 C 3.4106 -2.8282 0.2337 0
M  V30 17 N -1.2625 2.425 -0.3101 0 CHG=1
M  V30 18 C -1.8285 3.5385 1.9219 0
M  V30 19 C 0.2909 -2.3754 -3.4836 0
M  V30 20 C 3.3319 -2.386 -2.5629 0
M  V30 21 C 4.5913 -2.7098 -0.5082 0
M  V30 22 C -1.6416 3.719 0.4214 0
M  V30 23 C -0.8681 2.8134 -1.7447 0
M  V30 24 C 4.5499 -2.4917 -1.8841 0
M  V30 25 H -1.2559 -1.3171 0.3227 0
M  V30 26 H -0.643 -3.6819 1.2339 0
M  V30 27 H 0.9738 -3.5584 1.9336 0
M  V30 28 H -1.8708 0.1282 2.7672 0
M  V30 29 H 0.4696 0.9579 2.2399 0
M  V30 30 H -3.3782 -0.1454 0.6939 0
M  V30 31 H -3.403 1.3823 1.4978 0
M  V30 32 H 0.7647 2.5197 0.342 0
M  V30 33 H 0.2547 0.9241 -0.2581 0
M  V30 34 H -1.1306 2.352 3.5823 0
M  V30 35 H 0.1239 3.2251 2.7247 0
M  V30 36 H -2.0845 0.6459 -1.1311 0
M  V30 37 H -3.2748 1.9279 -0.8282 0
M  V30 38 H 3.4589 -3.0051 1.3049 0
M  V30 39 H -1.7902 4.5257 2.4004 0
M  V30 40 H -2.837 3.1785 2.1376 0
M  V30 41 H -0.7493 -2.711 -3.4782 0
M  V30 42 H 0.8755 -3.0122 -4.1517 0
M  V30 43 H 0.3492 -1.33 -3.7959 0
M  V30 44 H 3.3109 -2.2332 -3.6371 0
M  V30 45 H 5.5523 -2.7985 -0.0052 0
M  V30 46 H -2.5499 4.1142 -0.0472 0
M  V30 47 H -0.8254 4.4305 0.2453 0
M  V30 48 H -0.567 1.9085 -2.281 0
M  V30 49 H -1.7364 3.2744 -2.2247 0
M  V30 50 H -0.0334 3.5192 -1.6984 0
M  V30 51 H 5.4821 -2.4147 -2.441 0
M  V30 END ATOM
M  V30 BEGIN BOND
M  V30 1 2 1 2
M  V30 2 1 2 3
M  V30 3 1 2 4
M  V30 4 1 3 5
M  V30 5 1 4 6
M  V30 6 1 5 7
M  V30 7 1 5 8
M  V30 8 2 6 9
M  V30 9 1 6 10
M  V30 10 1 7 11
M  V30 11 1 7 12
M  V30 12 1 8 13
M  V30 13 1 9 14
M  V30 14 2 10 15
M  V30 15 1 10 16
M  V30 16 1 11 17
M  V30 17 1 12 18
M  V30 18 1 14 19
M  V30 19 1 15 20
M  V30 20 2 16 21
M  V30 21 1 17 22
M  V30 22 1 17 23
M  V30 23 2 20 24
M  V30 24 1 13 17
M  V30 25 1 14 15
M  V30 26 1 18 22
M  V30 27 1 21 24
M  V30 28 1 3 25
M  V30 29 1 4 26
M  V30 30 1 4 27
M  V30 31 1 5 28
M  V30 32 1 7 29
M  V30 33 1 8 30
M  V30 34 1 8 31
M  V30 35 1 11 32
M  V30 36 1 11 33
M  V30 37 1 12 34
M  V30 38 1 12 35
M  V30 39 1 13 36
M  V30 40 1 13 37
M  V30 41 1 16 38
M  V30 42 1 18 39
M  V30 43 1 18 40
M  V30 44 1 19 41
M  V30 45 1 19 42
M  V30 46 1 19 43
M  V30 47 1 20 44
M  V30 48 1 21 45
M  V30 49 1 22 46
M  V30 50 1 22 47
M  V30 51 1 23 48
M  V30 52 1 23 49
M  V30 53 1 23 50
M  V30 54 1 24 51
M  V30 END BOND
M  V30 END CTAB
M  END
>  <Column 1>
430

>  <level_0>
486

>  <index>
486

>  <Unnamed: 0>
486

>  <NO.>
489

>  <Name>
s121

>  <IUPAC_name>


>  <SMILES>
Cn1nc(CC(=O)NC2CC[N+]3(C)CCCC2C3)c2ccccc21

>  <CID>


>  <logBB>
-0.08

>  <BBB+/BBB->
BBB+

>  <Inchi>
InChI=1S/C19H26N4O/c1-22-18-8-4-3-7-15(18)17(21-22)12-19(24)20-16-9-11-23(2)10-5-6-14(16)13-23/h3-4-7-8-14-16H-5-6-9-13H2-1-2H3/p+1

>  <threshold>


>  <reference>
R45|

>  <group>
A

>  <Class>
1

>  <ABC>
19.31

>  <ABCGG>
14.84

>  <nAcid>
0

>  <nBase>
1

>  <nAromAtom>
9

>  <nAromBond>
10

>  <nAtom>
51

>  <nHeavyAtom>
24

>  <nSpiro>
0

>  <nBridgehead>
2

>  <nHetero>
5

>  <nN>
4

>  <nO>
1

>  <nF>
0

>  <BalabanJ>
1.31

>  <BertzCT>
767.81

>  <nBonds>
54

>  <nBondsO>
27

>  <nBondsS>
43

>  <nBondsD>
1

>  <nBondsT>
0

>  <nBondsA>
10

>  <nBondsM>
11

>  <nBondsKS>
49

>  <nBondsKD>
5

>  <RNCG>
0.21

>  <RPCG>
0.09

>  <FCSP3>
0.58

>  <SZ>
29.5

>  <Sm>
27.26

>  <Sv>
30.06

>  <Sse>
50.47

>  <Sp>
32.9

>  <Si>
57.98

>  <MZ>
0.58

>  <Mm>
0.53

>  <Mv>
0.59

>  <Mse>
0.99

>  <Mp>
0.65

>  <Mi>
1.14

>  <NsCH3>
2

>  <NdCH2>
0

>  <NssCH2>
7

>  <NtCH>
0

>  <NdsCH>
0

>  <NaaCH>
4

>  <NsssCH>
2

>  <NddC>
0

>  <NtsC>
0

>  <NdssC>
1

>  <NaasC>
1

>  <NaaaC>
2

>  <NssssC>
0

>  <NsNH3>
0

>  <NsNH2>
0

>  <NssNH2>
0

>  <NdNH>
0

>  <NssNH>
1

>  <NaaNH>
0

>  <NtN>
0

>  <NsssNH>
0

>  <NdsN>
0

>  <NaaN>
1

>  <NsssN>
0

>  <NddsN>
0

>  <NaasN>
1

>  <NssssN>
1

>  <NsOH>
0

>  <NdO>
1

>  <NssO>
0

>  <NaaO>
0

>  <NsF>
0

>  <NsSiH3>
0

>  <NssSiH2>
0

>  <NsssSiH>
0

>  <NssssSi>
0

>  <NsPH2>
0

>  <NssPH>
0

>  <NsssP>
0

>  <NdsssP>
0

>  <NsssssP>
0

>  <NsSH>
0

>  <NdS>
0

>  <NssS>
0

>  <NaaS>
0

>  <NdssS>
0

>  <NddssS>
0

>  <NsCl>
0

>  <NsBr>
0

>  <NsI>
0

>  <fragCpx>
177.05

>  <fMF>
0.41

>  <nHBAcc>
3

>  <nHBDon>
1

>  <Kier1>
17.42

>  <Kier2>
6.96

>  <Lipinski>
1

>  <GhoseFilter>
1

>  <FilterItLogS>
-4.45

>  <VMcGowan>
261.57

>  <LabuteASA>
142.77

>  <PEOE_VSA1>
9.8

>  <PEOE_VSA2>
9.48

>  <PEOE_VSA3>
0

>  <PEOE_VSA4>
5.1

>  <PEOE_VSA5>
0

>  <PEOE_VSA6>
18.2

>  <PEOE_VSA7>
18.91

>  <PEOE_VSA8>
30.81

>  <PEOE_VSA9>
44.31

>  <PEOE_VSA10>
0

>  <PEOE_VSA11>
0

>  <PEOE_VSA12>
5.91

>  <PEOE_VSA13>
0

>  <SMR_VSA1>
9.28

>  <SMR_VSA2>
0

>  <SMR_VSA3>
15.1

>  <SMR_VSA4>
12.97

>  <SMR_VSA5>
31.73

>  <SMR_VSA6>
26.68

>  <SMR_VSA7>
29.96

>  <SMR_VSA8>
0

>  <SMR_VSA9>
0

>  <SlogP_VSA1>
5.32

>  <SlogP_VSA2>
52.89

>  <SlogP_VSA3>
18.26

>  <SlogP_VSA4>
5.92

>  <SlogP_VSA5>
24.96

>  <SlogP_VSA6>
24.27

>  <SlogP_VSA7>
0

>  <SlogP_VSA8>
10.9

>  <SlogP_VSA9>
0

>  <SlogP_VSA10>
0

>  <SlogP_VSA11>
0

>  <EState_VSA1>
0

>  <EState_VSA2>
5.91

>  <EState_VSA3>
18.38

>  <EState_VSA4>
23.02

>  <EState_VSA5>
36.96

>  <EState_VSA6>
0

>  <EState_VSA7>
29.93

>  <EState_VSA8>
23.53

>  <EState_VSA9>
0

>  <EState_VSA10>
4.79

>  <VSA_EState1>
3.06

>  <VSA_EState2>
12.61

>  <VSA_EState3>
8.95

>  <VSA_EState4>
1.96

>  <VSA_EState5>
0.76

>  <VSA_EState6>
8.46

>  <VSA_EState7>
4.02

>  <VSA_EState8>
3.71

>  <VSA_EState9>
4.3

>  <apol>
54.94

>  <bpol>
32.51

>  <nRing>
4

>  <nHRing>
3

>  <naRing>
2

>  <naHRing>
1

>  <nARing 2>
2

>  <nAHRing 2>
2

>  <nFRing>
2

>  <nFHRing>
2

>  <nFaRing>
1

>  <nFaHRing>
1

>  <nFARing 2>
1

>  <nFAHRing 2>
1

>  <nRot>
3

>  <SLogP>
1.86

>  <SMR>
94.48

>  <TopoPSA(NO)>
46.92

>  <TopoPSA>
46.92

>  <JGI1>
0.22

>  <JGI2>
0.08

>  <JGI3>
0.06

>  <JGI4>
0.04

>  <JGI5>
0.03

>  <Diameter>
12

>  <Radius>
6

>  <TMWC10>
127.24

>  <TSRW10>
73.42

>  <MW>
327.22

>  <AMW>
6.42

>  <WPath>
1399

>  <WPol>
39

>  <Zagreb1>
134

>  <Zagreb2>
160

>  <mZagreb2>
5.07

>  <yes>


>  <nAR-cont>
1

>  <nHA-cont>
0.94700071

>  <MWHBN>
0.221126133

>  <MWHBN-cont>
0.994226211

>  <TPSA-cont>
0.672469264

>  <pka_cont>
0.97

>  <yes.1>


>  <BBB_SCORE>
5.268278555

>  <MMFF94 Energy>
41.421

$$$$
Compound 347
Actelion Java MolfileCreator 2.0

  0  0  0  0  0  0              0 V3000
M  V30 BEGIN CTAB
M  V30 COUNTS 49 51 0 0 0
M  V30 BEGIN ATOM
M  V30 1 S -1.851 -0.724 3.1403 0
M  V30 2 O -2.6507 -0.4027 4.3035 0
M  V30 3 O -2.3864 -1.5219 2.057 0
M  V30 4 N -1.2661 0.7139 2.4937 0
M  V30 5 C -0.372 -1.5288 3.7105 0
M  V30 6 C -0.2485 0.8992 1.4133 0 CFG=2
M  V30 7 C -0.6787 1.8564 3.2406 0
M  V30 8 C 0.1067 -1.2591 4.9941 0
M  V30 9 C 0.2699 -2.4628 2.8895 0
M  V30 10 C 0.0131 2.3294 1.9508 0
M  V30 11 C -0.8644 0.7797 0.0258 0
M  V30 12 C 1.2541 -1.9063 5.4341 0
M  V30 13 C 1.4198 -3.1063 3.3486 0
M  V30 14 C 0.2019 1.0683 -1.0397 0
M  V30 15 O 1.7063 -1.6099 6.6852 0
M  V30 16 C 1.917 -2.8251 4.6231 0
M  V30 17 N -0.3415 1.1784 -2.404 0
M  V30 18 C -0.909 -0.0912 -2.8846 0
M  V30 19 C 0.7012 1.6682 -3.321 0
M  V30 20 C -1.4958 0.0497 -4.2929 0
M  V30 21 C 0.1607 1.8691 -4.7382 0
M  V30 22 C -0.489 0.6034 -5.3059 0
M  V30 23 C 0.5537 -0.4443 -5.702 0
M  V30 24 H 0.6087 0.2293 1.5567 0
M  V30 25 H 0.0102 1.545 4.0309 0
M  V30 26 H -1.4297 2.5364 3.6495 0
M  V30 27 H -0.4055 -0.5585 5.6486 0
M  V30 28 H -0.1211 -2.6949 1.901 0
M  V30 29 H -0.5259 3.1265 1.4278 0
M  V30 30 H 1.0645 2.6078 2.0563 0
M  V30 31 H -1.7065 1.4745 -0.0837 0
M  V30 32 H -1.2561 -0.2342 -0.1061 0
M  V30 33 H 1.9241 -3.833 2.716 0
M  V30 34 H 0.6844 2.0196 -0.7799 0
M  V30 35 H 0.9867 0.3015 -0.9934 0
M  V30 36 H 2.4622 -2.1843 6.8914 0
M  V30 37 H 2.8125 -3.3341 4.967 0
M  V30 38 H -1.7284 -0.4129 -2.2329 0
M  V30 39 H -0.1538 -0.8866 -2.8685 0
M  V30 40 H 1.0743 2.638 -2.9684 0
M  V30 41 H 1.5587 0.9838 -3.3379 0
M  V30 42 H -2.3591 0.7273 -4.2477 0
M  V30 43 H -1.881 -0.92 -4.6297 0
M  V30 44 H 0.9684 2.2111 -5.396 0
M  V30 45 H -0.587 2.6733 -4.7205 0
M  V30 46 H -1.0334 0.8757 -6.2192 0
M  V30 47 H 1.1499 -0.7842 -4.8503 0
M  V30 48 H 0.0678 -1.3221 -6.1409 0
M  V30 49 H 1.2417 -0.0372 -6.4506 0
M  V30 END ATOM
M  V30 BEGIN BOND
M  V30 1 2 1 2
M  V30 2 2 1 3
M  V30 3 1 1 4
M  V30 4 1 1 5
M  V30 5 1 4 6
M  V30 6 1 4 7
M  V30 7 2 5 8
M  V30 8 1 5 9
M  V30 9 1 6 10
M  V30 10 1 6 11
M  V30 11 1 8 12
M  V30 12 2 9 13
M  V30 13 1 11 14
M  V30 14 1 12 15
M  V30 15 2 12 16
M  V30 16 1 14 17
M  V30 17 1 17 18
M  V30 18 1 17 19
M  V30 19 1 18 20
M  V30 20 1 19 21
M  V30 21 1 20 22
M  V30 22 1 22 23
M  V30 23 1 7 10
M  V30 24 1 13 16
M  V30 25 1 21 22
M  V30 26 1 6 24
M  V30 27 1 7 25
M  V30 28 1 7 26
M  V30 29 1 8 27
M  V30 30 1 9 28
M  V30 31 1 10 29
M  V30 32 1 10 30
M  V30 33 1 11 31
M  V30 34 1 11 32
M  V30 35 1 13 33
M  V30 36 1 14 34
M  V30 37 1 14 35
M  V30 38 1 15 36
M  V30 39 1 16 37
M  V30 40 1 18 38
M  V30 41 1 18 39
M  V30 42 1 19 40
M  V30 43 1 19 41
M  V30 44 1 20 42
M  V30 45 1 20 43
M  V30 46 1 21 44
M  V30 47 1 21 45
M  V30 48 1 22 46
M  V30 49 1 23 47
M  V30 50 1 23 48
M  V30 51 1 23 49
M  V30 END BOND
M  V30 BEGIN COLLECTION
M  V30 MDLV30/STERAC1 ATOMS=(1 6)
M  V30 END COLLECTION
M  V30 END CTAB
M  END
>  <Column 1>
431

>  <level_0>
487

>  <index>
487

>  <Unnamed: 0>
487

>  <NO.>
490

>  <Name>
s118

>  <IUPAC_name>


>  <SMILES>
CC1CCN(CCC2CCN2S(=O)(=O)c2cccc(O)c2)CC1

>  <CID>


>  <logBB>
-0.08

>  <BBB+/BBB->
BBB+

>  <Inchi>
InChI=1S/C17H26N2O3S/c1-14-5-9-18(10-6-14)11-7-15-8-12-19(15)23(21-22)17-4-2-3-16(20)13-17/h2-4-13-15-20H-5-12H2-1H3

>  <threshold>


>  <reference>
R47|

>  <group>
A

>  <Class>
1

>  <ABC>
18.05

>  <ABCGG>
14.65

>  <nAcid>
0

>  <nBase>
1

>  <nAromAtom>
6

>  <nAromBond>
6

>  <nAtom>
49

>  <nHeavyAtom>
23

>  <nSpiro>
0

>  <nBridgehead>
0

>  <nHetero>
6

>  <nN>
2

>  <nO>
3

>  <nF>
0

>  <BalabanJ>
1.48

>  <BertzCT>
638.99

>  <nBonds>
51

>  <nBondsO>
25

>  <nBondsS>
43

>  <nBondsD>
2

>  <nBondsT>
0

>  <nBondsA>
6

>  <nBondsM>
8

>  <nBondsKS>
46

>  <nBondsKD>
5

>  <RNCG>
0.29

>  <RPCG>
0.17

>  <FCSP3>
0.65

>  <SZ>
30.33

>  <Sm>
28.18

>  <Sv>
28.89

>  <Sse>
48.94

>  <Sp>
31.88

>  <Si>
55.53

>  <MZ>
0.62

>  <Mm>
0.58

>  <Mv>
0.59

>  <Mse>
1

>  <Mp>
0.65

>  <Mi>
1.13

>  <NsCH3>
1

>  <NdCH2>
0

>  <NssCH2>
8

>  <NtCH>
0

>  <NdsCH>
0

>  <NaaCH>
4

>  <NsssCH>
2

>  <NddC>
0

>  <NtsC>
0

>  <NdssC>
0

>  <NaasC>
2

>  <NaaaC>
0

>  <NssssC>
0

>  <NsNH3>
0

>  <NsNH2>
0

>  <NssNH2>
0

>  <NdNH>
0

>  <NssNH>
0

>  <NaaNH>
0

>  <NtN>
0

>  <NsssNH>
0

>  <NdsN>
0

>  <NaaN>
0

>  <NsssN>
2

>  <NddsN>
0

>  <NaasN>
0

>  <NssssN>
0

>  <NsOH>
1

>  <NdO>
2

>  <NssO>
0

>  <NaaO>
0

>  <NsF>
0

>  <NsSiH3>
0

>  <NssSiH2>
0

>  <NsssSiH>
0

>  <NssssSi>
0

>  <NsPH2>
0

>  <NssPH>
0

>  <NsssP>
0

>  <NdsssP>
0

>  <NsssssP>
0

>  <NsSH>
0

>  <NdS>
0

>  <NssS>
0

>  <NaaS>
0

>  <NdssS>
0

>  <NddssS>
1

>  <NsCl>
0

>  <NsBr>
0

>  <NsI>
0

>  <fragCpx>
119.06

>  <fMF>
0.39

>  <nHBAcc>
4

>  <nHBDon>
1

>  <Kier1>
17.81

>  <Kier2>
7.49

>  <Lipinski>
1

>  <GhoseFilter>
1

>  <FilterItLogS>
-2.74

>  <VMcGowan>
258.83

>  <LabuteASA>
138.51

>  <PEOE_VSA1>
10.01

>  <PEOE_VSA2>
0

>  <PEOE_VSA3>
8.42

>  <PEOE_VSA4>
4.31

>  <PEOE_VSA5>
0

>  <PEOE_VSA6>
12.99

>  <PEOE_VSA7>
69.43

>  <PEOE_VSA8>
12.59

>  <PEOE_VSA9>
4.9

>  <PEOE_VSA10>
5.75

>  <PEOE_VSA11>
0

>  <PEOE_VSA12>
10.02

>  <PEOE_VSA13>
0

>  <SMR_VSA1>
13.52

>  <SMR_VSA2>
0

>  <SMR_VSA3>
9.21

>  <SMR_VSA4>
5.92

>  <SMR_VSA5>
43.54

>  <SMR_VSA6>
26.18

>  <SMR_VSA7>
24.27

>  <SMR_VSA8>
0

>  <SMR_VSA9>
5.75

>  <SlogP_VSA1>
0

>  <SlogP_VSA2>
54.95

>  <SlogP_VSA3>
10.02

>  <SlogP_VSA4>
5.92

>  <SlogP_VSA5>
32.61

>  <SlogP_VSA6>
29.16

>  <SlogP_VSA7>
0

>  <SlogP_VSA8>
0

>  <SlogP_VSA9>
0

>  <SlogP_VSA10>
0

>  <SlogP_VSA11>
5.75

>  <EState_VSA1>
10.02

>  <EState_VSA2>
16.69

>  <EState_VSA3>
6.54

>  <EState_VSA4>
38.39

>  <EState_VSA5>
24.97

>  <EState_VSA6>
16.44

>  <EState_VSA7>
0

>  <EState_VSA8>
11.82

>  <EState_VSA9>
0

>  <EState_VSA10>
13.52

>  <VSA_EState1>
26.94

>  <VSA_EState2>
2.64

>  <VSA_EState3>
9.52

>  <VSA_EState4>
0

>  <VSA_EState5>
0.81

>  <VSA_EState6>
6.05

>  <VSA_EState7>
4.32

>  <VSA_EState8>
6.12

>  <VSA_EState9>
-3.48

>  <apol>
53.23

>  <bpol>
36.16

>  <nRing>
3

>  <nHRing>
2

>  <naRing>
1

>  <naHRing>
0

>  <nARing 2>
2

>  <nAHRing 2>
2

>  <nFRing>
0

>  <nFHRing>
0

>  <nFaRing>
0

>  <nFaHRing>
0

>  <nFARing 2>
0

>  <nFAHRing 2>
0

>  <nRot>
5

>  <SLogP>
2.28

>  <SMR>
89.86

>  <TopoPSA(NO)>
60.85

>  <TopoPSA>
69.23

>  <JGI1>
0.24

>  <JGI2>
0.1

>  <JGI3>
0.06

>  <JGI4>
0.05

>  <JGI5>
0.02

>  <Diameter>
13

>  <Radius>
7

>  <TMWC10>
122.86

>  <TSRW10>
57.9

>  <MW>
338.17

>  <AMW>
6.9

>  <WPath>
1302

>  <WPol>
34

>  <Zagreb1>
122

>  <Zagreb2>
143

>  <mZagreb2>
4.94

>  <yes>


>  <nAR-cont>
1

>  <nHA-cont>
0.967789328

>  <MWHBN>
0.271895779

>  <MWHBN-cont>
0.915758463

>  <TPSA-cont>
0.516731611

>  <pka_cont>
0.97

>  <yes.1>


>  <BBB_SCORE>
4.859890244

>  <MMFF94 Energy>
-14.652

$$$$
Compound 348
Actelion Java MolfileCreator 2.0

  0  0  0  0  0  0              0 V3000
M  V30 BEGIN CTAB
M  V30 COUNTS 39 42 0 0 0
M  V30 BEGIN ATOM
M  V30 1 Cl -2.2764 3.4975 2.7647 0
M  V30 2 C -1.6891 2.5688 1.4422 0
M  V30 3 C -0.5216 1.8297 1.5788 0
M  V30 4 C -2.3872 2.551 0.2445 0
M  V30 5 C -0.0423 1.0559 0.5033 0
M  V30 6 C -1.8962 1.808 -0.8343 0
M  V30 7 C 1.1469 0.1807 0.7871 0
M  V30 8 C -0.704 1.0619 -0.7492 0
M  V30 9 N 2.1952 0.0606 0.0396 0
M  V30 10 C 1.1427 -0.6243 2.0485 0
M  V30 11 N -0.1968 0.409 -1.8709 0
M  V30 12 C 2.2424 0.7454 -1.2452 0
M  V30 13 C -0.0074 -1.2766 2.4986 0
M  V30 14 C 2.3333 -0.7553 2.7757 0
M  V30 15 C 1.1709 0.2144 -2.1352 0
M  V30 16 C -0.9964 -0.2218 -2.9365 0 CFG=1
M  V30 17 F -1.1557 -1.2155 1.8082 0
M  V30 18 C 0.0136 -2.0245 3.6742 0
M  V30 19 C 2.3564 -1.5051 3.9544 0
M  V30 20 C 1.2997 -0.4903 -3.272 0
M  V30 21 O -1.6591 0.7334 -3.7146 0
M  V30 22 N 0.0543 -0.759 -3.776 0
M  V30 23 C -1.9221 -1.3139 -2.4409 0
M  V30 24 C 1.1961 -2.1358 4.4057 0
M  V30 25 H 0.0095 1.8469 2.527 0
M  V30 26 H -3.3045 3.1229 0.1294 0
M  V30 27 H -2.4565 1.8561 -1.7649 0
M  V30 28 H 3.2259 0.5628 -1.6932 0
M  V30 29 H 2.1604 1.8322 -1.1232 0
M  V30 30 H 3.2438 -0.275 2.4235 0
M  V30 31 H -0.8914 -2.5231 4.0074 0
M  V30 32 H 3.2828 -1.6019 4.516 0
M  V30 33 H 2.2006 -0.8323 -3.7606 0
M  V30 34 H -0.898 1.2595 -4.0095 0
M  V30 35 H -0.1247 -1.3728 -4.5533 0
M  V30 36 H -2.7299 -0.9024 -1.8263 0
M  V30 37 H -2.4019 -1.827 -3.2822 0
M  V30 38 H -1.3882 -2.0628 -1.8456 0
M  V30 39 H 1.2168 -2.7226 5.321 0
M  V30 END ATOM
M  V30 BEGIN BOND
M  V30 1 1 1 2
M  V30 2 2 2 3
M  V30 3 1 2 4
M  V30 4 1 3 5
M  V30 5 2 4 6
M  V30 6 1 5 7
M  V30 7 2 5 8
M  V30 8 2 7 9
M  V30 9 1 7 10
M  V30 10 1 8 11
M  V30 11 1 9 12
M  V30 12 2 10 13
M  V30 13 1 10 14
M  V30 14 1 11 15
M  V30 15 1 11 16
M  V30 16 1 13 17
M  V30 17 1 13 18
M  V30 18 2 14 19
M  V30 19 2 15 20
M  V30 20 1 16 21
M  V30 21 1 16 22
M  V30 22 1 16 23
M  V30 23 2 18 24
M  V30 24 1 6 8
M  V30 25 1 12 15
M  V30 26 1 19 24
M  V30 27 1 20 22
M  V30 28 1 3 25
M  V30 29 1 4 26
M  V30 30 1 6 27
M  V30 31 1 12 28
M  V30 32 1 12 29
M  V30 33 1 14 30
M  V30 34 1 18 31
M  V30 35 1 19 32
M  V30 36 1 20 33
M  V30 37 1 21 34
M  V30 38 1 22 35
M  V30 39 1 23 36
M  V30 40 1 23 37
M  V30 41 1 23 38
M  V30 42 1 24 39
M  V30 END BOND
M  V30 BEGIN COLLECTION
M  V30 MDLV30/STERAC1 ATOMS=(1 16)
M  V30 END COLLECTION
M  V30 END CTAB
M  END
>  <Column 1>
433

>  <level_0>
489

>  <index>
489

>  <Unnamed: 0>
489

>  <NO.>
492

>  <Name>
1-hydroxymidazolam

>  <IUPAC_name>
8-chloro-6-(2-fluorophenyl)-1-methyl-2-4-dihydroimidazo[1-5-a][1-4]benzodiazepin-1-ol

>  <SMILES>
CC1(O)NC=C2CN=C(c3ccccc3F)c3cc(Cl)ccc3N21

>  <CID>
14205604

>  <logBB>
-0.07

>  <BBB+/BBB->
BBB+

>  <Inchi>
InChI=1S/C18H15ClFN3O/c1-18(24)22-10-12-9-21-17(13-4-2-3-5-15(13)20)14-8-11(19)6-7-16(14)23(12)18/h2-8-10-22-24H-9H2-1H3

>  <threshold>


>  <reference>
R2|R2|R12|R25|R27|R35|R46|R47|

>  <group>
A

>  <Class>
1

>  <ABC>
19.32

>  <ABCGG>
15.85

>  <nAcid>
0

>  <nBase>
0

>  <nAromAtom>
12

>  <nAromBond>
12

>  <nAtom>
39

>  <nHeavyAtom>
24

>  <nSpiro>
0

>  <nBridgehead>
0

>  <nHetero>
6

>  <nN>
3

>  <nO>
1

>  <nF>
1

>  <BalabanJ>
1.64

>  <BertzCT>
891.58

>  <nBonds>
42

>  <nBondsO>
27

>  <nBondsS>
28

>  <nBondsD>
2

>  <nBondsT>
0

>  <nBondsA>
12

>  <nBondsM>
14

>  <nBondsKS>
34

>  <nBondsKD>
8

>  <RNCG>
0.19

>  <RPCG>
0.12

>  <FCSP3>
0.17

>  <SZ>
29.67

>  <Sm>
28.62

>  <Sv>
26.79

>  <Sse>
39.7

>  <Sp>
28.08

>  <Si>
43.9

>  <MZ>
0.76

>  <Mm>
0.73

>  <Mv>
0.69

>  <Mse>
1.02

>  <Mp>
0.72

>  <Mi>
1.13

>  <NsCH3>
1

>  <NdCH2>
0

>  <NssCH2>
1

>  <NtCH>
0

>  <NdsCH>
1

>  <NaaCH>
7

>  <NsssCH>
0

>  <NddC>
0

>  <NtsC>
0

>  <NdssC>
2

>  <NaasC>
5

>  <NaaaC>
0

>  <NssssC>
1

>  <NsNH3>
0

>  <NsNH2>
0

>  <NssNH2>
0

>  <NdNH>
0

>  <NssNH>
1

>  <NaaNH>
0

>  <NtN>
0

>  <NsssNH>
0

>  <NdsN>
1

>  <NaaN>
0

>  <NsssN>
1

>  <NddsN>
0

>  <NaasN>
0

>  <NssssN>
0

>  <NsOH>
1

>  <NdO>
0

>  <NssO>
0

>  <NaaO>
0

>  <NsF>
1

>  <NsSiH3>
0

>  <NssSiH2>
0

>  <NsssSiH>
0

>  <NssssSi>
0

>  <NsPH2>
0

>  <NssPH>
0

>  <NsssP>
0

>  <NdsssP>
0

>  <NsssssP>
0

>  <NsSH>
0

>  <NdS>
0

>  <NssS>
0

>  <NaaS>
0

>  <NdssS>
0

>  <NddssS>
0

>  <NsCl>
1

>  <NsBr>
0

>  <NsI>
0

>  <fragCpx>
177.06

>  <fMF>
0.51

>  <nHBAcc>
4

>  <nHBDon>
2

>  <Kier1>
17.42

>  <Kier2>
6.62

>  <Lipinski>
1

>  <GhoseFilter>
1

>  <FilterItLogS>
-5.07

>  <VMcGowan>
236.45

>  <LabuteASA>
143.44

>  <PEOE_VSA1>
10.42

>  <PEOE_VSA2>
9.89

>  <PEOE_VSA3>
4.39

>  <PEOE_VSA4>
0

>  <PEOE_VSA5>
0

>  <PEOE_VSA6>
23.73

>  <PEOE_VSA7>
30.33

>  <PEOE_VSA8>
29.27

>  <PEOE_VSA9>
23.64

>  <PEOE_VSA10>
5.82

>  <PEOE_VSA11>
0

>  <PEOE_VSA12>
5.85

>  <PEOE_VSA13>
0

>  <SMR_VSA1>
9.5

>  <SMR_VSA2>
0

>  <SMR_VSA3>
5.32

>  <SMR_VSA4>
4.99

>  <SMR_VSA5>
12.77

>  <SMR_VSA6>
11.44

>  <SMR_VSA7>
76.33

>  <SMR_VSA8>
0

>  <SMR_VSA9>
0

>  <SlogP_VSA1>
10.22

>  <SlogP_VSA2>
23.21

>  <SlogP_VSA3>
0

>  <SlogP_VSA4>
5.82

>  <SlogP_VSA5>
18.05

>  <SlogP_VSA6>
59.35

>  <SlogP_VSA7>
5.02

>  <SlogP_VSA8>
0

>  <SlogP_VSA9>
0

>  <SlogP_VSA10>
10.08

>  <SlogP_VSA11>
0

>  <EState_VSA1>
5.85

>  <EState_VSA2>
5.82

>  <EState_VSA3>
28.41

>  <EState_VSA4>
11.38

>  <EState_VSA5>
6.07

>  <EState_VSA6>
48.36

>  <EState_VSA7>
6.07

>  <EState_VSA8>
10.31

>  <EState_VSA9>
11.6

>  <EState_VSA10>
9.5

>  <VSA_EState1>
14.34

>  <VSA_EState2>
6.36

>  <VSA_EState3>
14.1

>  <VSA_EState4>
3.14

>  <VSA_EState5>
-1.62

>  <VSA_EState6>
11.83

>  <VSA_EState7>
1.73

>  <VSA_EState8>
1.97

>  <VSA_EState9>
0

>  <apol>
46.9

>  <bpol>
20.09

>  <nRing>
4

>  <nHRing>
2

>  <naRing>
2

>  <naHRing>
0

>  <nARing 2>
2

>  <nAHRing 2>
2

>  <nFRing>
1

>  <nFHRing>
1

>  <nFaRing>
0

>  <nFaHRing>
0

>  <nFARing 2>
1

>  <nFAHRing 2>
1

>  <nRot>
1

>  <SLogP>
3.25

>  <SMR>
92.68

>  <TopoPSA(NO)>
47.86

>  <TopoPSA>
47.86

>  <JGI1>
0.2

>  <JGI2>
0.09

>  <JGI3>
0.06

>  <JGI4>
0.04

>  <JGI5>
0.02

>  <Diameter>
9

>  <Radius>
5

>  <TMWC10>
128.33

>  <TSRW10>
73.87

>  <MW>
343.09

>  <AMW>
8.8

>  <WPath>
1149

>  <WPol>
46

>  <Zagreb1>
136

>  <Zagreb2>
166

>  <mZagreb2>
5.04

>  <yes>


>  <nAR-cont>
1

>  <nHA-cont>
0.94700071

>  <MWHBN>
0.323927053

>  <MWHBN-cont>
0.7638664

>  <TPSA-cont>
0.665907481

>  <pka_cont>
0.97

>  <yes.1>


>  <BBB_SCORE>
4.909615271

>  <MMFF94 Energy>
50.158

$$$$
Compound 349
Actelion Java MolfileCreator 2.0

  0  0  0  0  0  0              0 V3000
M  V30 BEGIN CTAB
M  V30 COUNTS 30 31 0 0 0
M  V30 BEGIN ATOM
M  V30 1 O 2.4584 -0.5547 1.3476 0
M  V30 2 C 1.5303 -1.0286 0.6957 0
M  V30 3 N 1.0865 -2.2878 1.0066 0
M  V30 4 C 0.7685 -0.2877 -0.4317 0
M  V30 5 C -0.0347 -2.8671 0.3542 0
M  V30 6 C 0.4087 -1.3569 -1.503 0
M  V30 7 C -0.5244 0.3945 0.077 0
M  V30 8 C 1.7001 0.7639 -1.1044 0
M  V30 9 N 0.0475 -2.5929 -1.0362 0
M  V30 10 O 0.3864 -1.1501 -2.7157 0
M  V30 11 C -0.7188 0.6954 1.438 0
M  V30 12 C -1.5308 0.7801 -0.8295 0
M  V30 13 C 1.9964 2.0284 -0.3 0
M  V30 14 C -1.8883 1.3219 1.8768 0
M  V30 15 C -2.699 1.4055 -0.3879 0
M  V30 16 C -2.8798 1.6717 0.9654 0
M  V30 17 H 1.5514 -2.7563 1.7732 0
M  V30 18 H -0.0196 -3.9489 0.5082 0
M  V30 19 H -0.9591 -2.4474 0.7609 0
M  V30 20 H 2.6558 0.2849 -1.3561 0
M  V30 21 H 1.2698 1.0908 -2.0605 0
M  V30 22 H -0.2384 -3.2735 -1.7277 0
M  V30 23 H 0.0421 0.4662 2.1819 0
M  V30 24 H -1.4149 0.6067 -1.8989 0
M  V30 25 H 2.7162 2.6488 -0.8447 0
M  V30 26 H 2.4277 1.8093 0.679 0
M  V30 27 H 1.0962 2.6328 -0.1544 0
M  V30 28 H -2.018 1.5475 2.9324 0
M  V30 29 H -3.4635 1.6927 -1.1056 0
M  V30 30 H -3.786 2.1644 1.3076 0
M  V30 END ATOM
M  V30 BEGIN BOND
M  V30 1 2 1 2
M  V30 2 1 2 3
M  V30 3 1 2 4
M  V30 4 1 3 5
M  V30 5 1 4 6
M  V30 6 1 4 7
M  V30 7 1 4 8
M  V30 8 1 5 9
M  V30 9 2 6 10
M  V30 10 2 7 11
M  V30 11 1 7 12
M  V30 12 1 8 13
M  V30 13 1 11 14
M  V30 14 2 12 15
M  V30 15 2 14 16
M  V30 16 1 6 9
M  V30 17 1 15 16
M  V30 18 1 3 17
M  V30 19 1 5 18
M  V30 20 1 5 19
M  V30 21 1 8 20
M  V30 22 1 8 21
M  V30 23 1 9 22
M  V30 24 1 11 23
M  V30 25 1 12 24
M  V30 26 1 13 25
M  V30 27 1 13 26
M  V30 28 1 13 27
M  V30 29 1 14 28
M  V30 30 1 15 29
M  V30 31 1 16 30
M  V30 END BOND
M  V30 END CTAB
M  END
>  <Column 1>
434

>  <level_0>
490

>  <index>
490

>  <Unnamed: 0>
490

>  <NO.>
493

>  <Name>
primidone

>  <IUPAC_name>
5-ethyl-5-phenyl-1-3-diazinane-4-6-dione

>  <SMILES>
CCC1(c2ccccc2)C(=O)NCNC1=O

>  <CID>
4909

>  <logBB>
-0.07

>  <BBB+/BBB->
BBB+

>  <Inchi>
InChI=1S/C12H14N2O2/c1-2-12(9-6-4-3-5-7-9)10(15)13-8-14-11(12)16/h3-7H-2-8H2-1H3-(H-13-15)(H-14-16)

>  <threshold>


>  <reference>
R2|R2|R8|R12|R20|R21|R25|R27|R27|R35|R39|R40|R43|R46|R47|

>  <group>
A

>  <Class>
1

>  <ABC>
12.05

>  <ABCGG>
11.04

>  <nAcid>
0

>  <nBase>
0

>  <nAromAtom>
6

>  <nAromBond>
6

>  <nAtom>
30

>  <nHeavyAtom>
16

>  <nSpiro>
0

>  <nBridgehead>
0

>  <nHetero>
4

>  <nN>
2

>  <nO>
2

>  <nF>
0

>  <BalabanJ>
2.19

>  <BertzCT>
398.29

>  <nBonds>
31

>  <nBondsO>
17

>  <nBondsS>
23

>  <nBondsD>
2

>  <nBondsT>
0

>  <nBondsA>
6

>  <nBondsM>
8

>  <nBondsKS>
26

>  <nBondsKD>
5

>  <RNCG>
0.21

>  <RPCG>
0.15

>  <FCSP3>
0.33

>  <SZ>
19.33

>  <Sm>
18.17

>  <Sv>
18.74

>  <Sse>
30.2

>  <Sp>
19.87

>  <Si>
33.91

>  <MZ>
0.64

>  <Mm>
0.61

>  <Mv>
0.62

>  <Mse>
1.01

>  <Mp>
0.66

>  <Mi>
1.13

>  <NsCH3>
1

>  <NdCH2>
0

>  <NssCH2>
2

>  <NtCH>
0

>  <NdsCH>
0

>  <NaaCH>
5

>  <NsssCH>
0

>  <NddC>
0

>  <NtsC>
0

>  <NdssC>
2

>  <NaasC>
1

>  <NaaaC>
0

>  <NssssC>
1

>  <NsNH3>
0

>  <NsNH2>
0

>  <NssNH2>
0

>  <NdNH>
0

>  <NssNH>
2

>  <NaaNH>
0

>  <NtN>
0

>  <NsssNH>
0

>  <NdsN>
0

>  <NaaN>
0

>  <NsssN>
0

>  <NddsN>
0

>  <NaasN>
0

>  <NssssN>
0

>  <NsOH>
0

>  <NdO>
2

>  <NssO>
0

>  <NaaO>
0

>  <NsF>
0

>  <NsSiH3>
0

>  <NssSiH2>
0

>  <NsssSiH>
0

>  <NssssSi>
0

>  <NsPH2>
0

>  <NssPH>
0

>  <NsssP>
0

>  <NdsssP>
0

>  <NsssssP>
0

>  <NsSH>
0

>  <NdS>
0

>  <NssS>
0

>  <NaaS>
0

>  <NdssS>
0

>  <NddssS>
0

>  <NsCl>
0

>  <NsBr>
0

>  <NsI>
0

>  <fragCpx>
49.04

>  <fMF>
0.4

>  <nHBAcc>
2

>  <nHBDon>
2

>  <Kier1>
12.46

>  <Kier2>
5.1

>  <Lipinski>
1

>  <GhoseFilter>
1

>  <FilterItLogS>
-3.42

>  <VMcGowan>
168.42

>  <LabuteASA>
94.04

>  <PEOE_VSA1>
10.63

>  <PEOE_VSA2>
9.59

>  <PEOE_VSA3>
0

>  <PEOE_VSA4>
0

>  <PEOE_VSA5>
0

>  <PEOE_VSA6>
37.26

>  <PEOE_VSA7>
11.98

>  <PEOE_VSA8>
0

>  <PEOE_VSA9>
6.67

>  <PEOE_VSA10>
0

>  <PEOE_VSA11>
5.41

>  <PEOE_VSA12>
11.81

>  <PEOE_VSA13>
0

>  <SMR_VSA1>
9.59

>  <SMR_VSA2>
0

>  <SMR_VSA3>
10.63

>  <SMR_VSA4>
0

>  <SMR_VSA5>
18.76

>  <SMR_VSA6>
6.67

>  <SMR_VSA7>
35.9

>  <SMR_VSA8>
0

>  <SMR_VSA9>
0

>  <SlogP_VSA1>
10.63

>  <SlogP_VSA2>
18.48

>  <SlogP_VSA3>
15

>  <SlogP_VSA4>
0

>  <SlogP_VSA5>
18.91

>  <SlogP_VSA6>
30.33

>  <SlogP_VSA7>
0

>  <SlogP_VSA8>
0

>  <SlogP_VSA9>
0

>  <SlogP_VSA10>
0

>  <SlogP_VSA11>
0

>  <EState_VSA1>
5.41

>  <EState_VSA2>
18.48

>  <EState_VSA3>
6.42

>  <EState_VSA4>
5.56

>  <EState_VSA5>
0

>  <EState_VSA6>
0

>  <EState_VSA7>
37.26

>  <EState_VSA8>
10.63

>  <EState_VSA9>
0

>  <EState_VSA10>
9.59

>  <VSA_EState1>
0

>  <VSA_EState2>
23.97

>  <VSA_EState3>
5.36

>  <VSA_EState4>
-0.33

>  <VSA_EState5>
-0.44

>  <VSA_EState6>
9.16

>  <VSA_EState7>
0.45

>  <VSA_EState8>
2.06

>  <VSA_EState9>
0

>  <apol>
33.18

>  <bpol>
16.92

>  <nRing>
2

>  <nHRing>
1

>  <naRing>
1

>  <naHRing>
0

>  <nARing 2>
1

>  <nAHRing 2>
1

>  <nFRing>
0

>  <nFHRing>
0

>  <nFaRing>
0

>  <nFaHRing>
0

>  <nFARing 2>
0

>  <nFAHRing 2>
0

>  <nRot>
2

>  <SLogP>
0.54

>  <SMR>
59.56

>  <TopoPSA(NO)>
58.2

>  <TopoPSA>
58.2

>  <JGI1>
0.21

>  <JGI2>
0.12

>  <JGI3>
0.07

>  <JGI4>
0.03

>  <JGI5>
0.02

>  <Diameter>
7

>  <Radius>
4

>  <TMWC10>
105.26

>  <TSRW10>
49

>  <MW>
218.11

>  <AMW>
7.27

>  <WPath>
385

>  <WPol>
29

>  <Zagreb1>
82

>  <Zagreb2>
100

>  <mZagreb2>
3.71

>  <yes>


>  <nAR-cont>
0.816016

>  <nHA-cont>
0.954961865

>  <MWHBN>
0.270845861

>  <MWHBN-cont>
0.918181241

>  <TPSA-cont>
0.59372786

>  <pka_cont>
0.97

>  <yes.1>


>  <BBB_SCORE>
4.820705447

>  <MMFF94 Energy>
-35.637

$$$$
Compound 350
Actelion Java MolfileCreator 2.0

  0  0  0  0  0  0              0 V3000
M  V30 BEGIN CTAB
M  V30 COUNTS 65 67 0 0 0
M  V30 BEGIN ATOM
M  V30 1 O -3.4956 -3.8139 4.371 0
M  V30 2 C -3.177 -3.359 3.2753 0
M  V30 3 O -2.0707 -2.5969 3.1366 0
M  V30 4 C -4.0956 -3.4834 2.0895 0
M  V30 5 C -1.3974 -2.4771 1.8647 0 CFG=1
M  V30 6 C -3.4152 -3.3648 0.7436 0 CFG=1
M  V30 7 C -2.3974 -2.2411 0.7422 0
M  V30 8 C -0.3846 -1.3306 2.0212 0
M  V30 9 O -2.7634 -4.5868 0.4049 0
M  V30 10 C 0.5487 -1.1652 0.8164 0
M  V30 11 C 1.5652 -0.0058 0.9701 0 CFG=2
M  V30 12 C 2.4297 0.2144 -0.3162 0 CFG=2
M  V30 13 C 2.4835 -0.1504 2.2228 0 CFG=2
M  V30 14 C 3.3729 1.4039 -0.1387 0
M  V30 15 C 1.5896 0.3364 -1.6167 0 CFG=1
M  V30 16 C 3.5406 0.9232 2.2555 0
M  V30 17 C 3.1684 -1.5148 2.3568 0
M  V30 18 C 3.9206 1.6297 1.1839 0
M  V30 19 C 3.7045 2.2271 -1.1492 0
M  V30 20 O 0.5123 1.272 -1.4101 0
M  V30 21 C 2.4606 0.7702 -2.8017 0
M  V30 22 C 3.2066 2.0914 -2.5627 0 CFG=1
M  V30 23 C -0.6065 1.0935 -2.1645 0
M  V30 24 C 2.3655 3.3134 -2.9409 0
M  V30 25 O -0.7652 0.2083 -2.9928 0
M  V30 26 C -1.6474 2.1335 -1.7903 0 CFG=2
M  V30 27 C -2.4524 1.6113 -0.5933 0
M  V30 28 C -2.5181 2.4549 -3.0032 0
M  V30 29 C -3.4161 2.6383 -0.0193 0
M  V30 30 H -4.6031 -4.452 2.1639 0
M  V30 31 H -4.8436 -2.6887 2.1936 0
M  V30 32 H -0.8423 -3.4099 1.7058 0
M  V30 33 H -4.1636 -3.1778 -0.0348 0
M  V30 34 H -1.8871 -2.2114 -0.2257 0
M  V30 35 H -2.9143 -1.2853 0.8899 0
M  V30 36 H 0.1967 -1.5202 2.9306 0
M  V30 37 H -0.9217 -0.3916 2.2083 0
M  V30 38 H -3.4475 -5.265 0.259 0
M  V30 39 H 1.074 -2.1058 0.6158 0
M  V30 40 H -0.0768 -0.9708 -0.0576 0
M  V30 41 H 0.972 0.9096 1.1229 0
M  V30 42 H 3.0733 -0.668 -0.4458 0
M  V30 43 H 1.8599 0.0011 3.1132 0
M  V30 44 H 1.1766 -0.6543 -1.8453 0
M  V30 45 H 4.0049 1.1317 3.2169 0
M  V30 46 H 3.7881 -1.7489 1.4851 0
M  V30 47 H 3.8193 -1.5389 3.2388 0
M  V30 48 H 2.4401 -2.3215 2.48 0
M  V30 49 H 4.6734 2.4056 1.3047 0
M  V30 50 H 4.3791 3.0629 -0.9694 0
M  V30 51 H 3.2017 -0.0192 -2.9862 0
M  V30 52 H 1.8563 0.8469 -3.7131 0
M  V30 53 H 4.0825 2.0903 -3.2248 0
M  V30 54 H 1.5129 3.4556 -2.27 0
M  V30 55 H 2.9702 4.2266 -2.8959 0
M  V30 56 H 1.9834 3.2233 -3.9632 0
M  V30 57 H -1.1162 3.0532 -1.5129 0
M  V30 58 H -3.0108 0.7112 -0.8791 0
M  V30 59 H -1.7636 1.3026 0.203 0
M  V30 60 H -3.1773 3.3053 -2.8042 0
M  V30 61 H -3.1408 1.5991 -3.2861 0
M  V30 62 H -1.8981 2.7123 -3.8692 0
M  V30 63 H -3.8971 2.2396 0.8796 0
M  V30 64 H -2.8911 3.558 0.2573 0
M  V30 65 H -4.206 2.8904 -0.7328 0
M  V30 END ATOM
M  V30 BEGIN BOND
M  V30 1 2 1 2
M  V30 2 1 2 3
M  V30 3 1 2 4
M  V30 4 1 3 5
M  V30 5 1 4 6
M  V30 6 1 5 7
M  V30 7 1 5 8
M  V30 8 1 6 9
M  V30 9 1 8 10
M  V30 10 1 10 11
M  V30 11 1 11 12
M  V30 12 1 11 13
M  V30 13 1 12 14
M  V30 14 1 12 15
M  V30 15 1 13 16
M  V30 16 1 13 17
M  V30 17 1 14 18
M  V30 18 2 14 19
M  V30 19 1 15 20
M  V30 20 1 15 21
M  V30 21 1 19 22
M  V30 22 1 20 23
M  V30 23 1 22 24
M  V30 24 2 23 25
M  V30 25 1 23 26
M  V30 26 1 26 27
M  V30 27 1 26 28
M  V30 28 1 27 29
M  V30 29 1 6 7
M  V30 30 2 16 18
M  V30 31 1 21 22
M  V30 32 1 4 30
M  V30 33 1 4 31
M  V30 34 1 5 32
M  V30 35 1 6 33
M  V30 36 1 7 34
M  V30 37 1 7 35
M  V30 38 1 8 36
M  V30 39 1 8 37
M  V30 40 1 9 38
M  V30 41 1 10 39
M  V30 42 1 10 40
M  V30 43 1 11 41
M  V30 44 1 12 42
M  V30 45 1 13 43
M  V30 46 1 15 44
M  V30 47 1 16 45
M  V30 48 1 17 46
M  V30 49 1 17 47
M  V30 50 1 17 48
M  V30 51 1 18 49
M  V30 52 1 19 50
M  V30 53 1 21 51
M  V30 54 1 21 52
M  V30 55 1 22 53
M  V30 56 1 24 54
M  V30 57 1 24 55
M  V30 58 1 24 56
M  V30 59 1 26 57
M  V30 60 1 27 58
M  V30 61 1 27 59
M  V30 62 1 28 60
M  V30 63 1 28 61
M  V30 64 1 28 62
M  V30 65 1 29 63
M  V30 66 1 29 64
M  V30 67 1 29 65
M  V30 END BOND
M  V30 BEGIN COLLECTION
M  V30 MDLV30/STEABS ATOMS=(8 5 6 11 12 13 15 22 26)
M  V30 END COLLECTION
M  V30 END CTAB
M  END
>  <Column 1>
435

>  <level_0>
491

>  <index>
491

>  <Unnamed: 0>
491

>  <NO.>
494

>  <Name>
lovastatin

>  <IUPAC_name>
[(1s-3r-7s-8s-8ar)-8-[2-[(2r-4r)-4-hydroxy-6-oxooxan-2-yl]ethyl]-3-7-dimethyl-1-2-3-7-8-8a-hexahydronaphthalen-1-yl] (2s)-2-methylbutanoate

>  <SMILES>
CC[C@H](C)C(=O)O[C@H]1C[C@@H](C)C=C2C=C[C@H](C)[C@H](CC[C@@H]3C[C@@H](O)CC(=O)O3)[C@H]21

>  <CID>
53232

>  <logBB>
-0.07

>  <BBB+/BBB->
BBB+

>  <Inchi>
InChI=1S/C24H36O5/c1-5-15(3)24(27)29-21-11-14(2)10-17-7-6-16(4)20(23(17)21)9-8-19-12-18(25)13-22(26)28-19/h6-7-10-14-16-18-21-23-25H-5-8-9-11-13H2-1-4H3/t14--15--16--18+-19+-20--21--23-/m0/s1

>  <threshold>


>  <reference>
R18|R26|R27|R20|

>  <group>
A

>  <Class>
1

>  <ABC>
22.37

>  <ABCGG>
18.02

>  <nAcid>
0

>  <nBase>
0

>  <nAromAtom>
0

>  <nAromBond>
0

>  <nAtom>
65

>  <nHeavyAtom>
29

>  <nSpiro>
0

>  <nBridgehead>
0

>  <nHetero>
5

>  <nN>
0

>  <nO>
5

>  <nF>
0

>  <BalabanJ>
1.68

>  <BertzCT>
666.18

>  <nBonds>
67

>  <nBondsO>
31

>  <nBondsS>
63

>  <nBondsD>
4

>  <nBondsT>
0

>  <nBondsA>
0

>  <nBondsM>
4

>  <nBondsKS>
63

>  <nBondsKD>
4

>  <RNCG>
0.18

>  <RPCG>
0.12

>  <FCSP3>
0.75

>  <SZ>
36.67

>  <Sm>
33.68

>  <Sv>
37.33

>  <Sse>
64.63

>  <Sp>
40.78

>  <Si>
73.52

>  <MZ>
0.56

>  <Mm>
0.52

>  <Mv>
0.57

>  <Mse>
0.99

>  <Mp>
0.63

>  <Mi>
1.13

>  <NsCH3>
4

>  <NdCH2>
0

>  <NssCH2>
6

>  <NtCH>
0

>  <NdsCH>
3

>  <NaaCH>
0

>  <NsssCH>
8

>  <NddC>
0

>  <NtsC>
0

>  <NdssC>
3

>  <NaasC>
0

>  <NaaaC>
0

>  <NssssC>
0

>  <NsNH3>
0

>  <NsNH2>
0

>  <NssNH2>
0

>  <NdNH>
0

>  <NssNH>
0

>  <NaaNH>
0

>  <NtN>
0

>  <NsssNH>
0

>  <NdsN>
0

>  <NaaN>
0

>  <NsssN>
0

>  <NddsN>
0

>  <NaasN>
0

>  <NssssN>
0

>  <NsOH>
1

>  <NdO>
2

>  <NssO>
2

>  <NaaO>
0

>  <NsF>
0

>  <NsSiH3>
0

>  <NssSiH2>
0

>  <NsssSiH>
0

>  <NssssSi>
0

>  <NsPH2>
0

>  <NssPH>
0

>  <NsssP>
0

>  <NdsssP>
0

>  <NsssssP>
0

>  <NsSH>
0

>  <NdS>
0

>  <NssS>
0

>  <NaaS>
0

>  <NdssS>
0

>  <NddssS>
0

>  <NsCl>
0

>  <NsBr>
0

>  <NsI>
0

>  <fragCpx>
149.05

>  <fMF>
0.28

>  <nHBAcc>
5

>  <nHBDon>
1

>  <Kier1>
23.66

>  <Kier2>
10.54

>  <Lipinski>
1

>  <GhoseFilter>
1

>  <FilterItLogS>
-3.19

>  <VMcGowan>
328.59

>  <LabuteASA>
174.08

>  <PEOE_VSA1>
14.58

>  <PEOE_VSA2>
9.59

>  <PEOE_VSA3>
0

>  <PEOE_VSA4>
0

>  <PEOE_VSA5>
0

>  <PEOE_VSA6>
45.92

>  <PEOE_VSA7>
49.01

>  <PEOE_VSA8>
12.34

>  <PEOE_VSA9>
18.44

>  <PEOE_VSA10>
12.21

>  <PEOE_VSA11>
0

>  <PEOE_VSA12>
0

>  <PEOE_VSA13>
0

>  <SMR_VSA1>
24.17

>  <SMR_VSA2>
0

>  <SMR_VSA3>
0

>  <SMR_VSA4>
29.59

>  <SMR_VSA5>
84.53

>  <SMR_VSA6>
0

>  <SMR_VSA7>
23.8

>  <SMR_VSA8>
0

>  <SMR_VSA9>
0

>  <SlogP_VSA1>
0

>  <SlogP_VSA2>
35.36

>  <SlogP_VSA3>
19.06

>  <SlogP_VSA4>
29.59

>  <SlogP_VSA5>
66.22

>  <SlogP_VSA6>
23.8

>  <SlogP_VSA7>
0

>  <SlogP_VSA8>
0

>  <SlogP_VSA9>
0

>  <SlogP_VSA10>
0

>  <SlogP_VSA11>
0

>  <EState_VSA1>
6.1

>  <EState_VSA2>
42.4

>  <EState_VSA3>
24.17

>  <EState_VSA4>
25.68

>  <EState_VSA5>
5.57

>  <EState_VSA6>
0

>  <EState_VSA7>
13.85

>  <EState_VSA8>
32.08

>  <EState_VSA9>
9.47

>  <EState_VSA10>
14.7

>  <VSA_EState1>
11.51

>  <VSA_EState2>
24.21

>  <VSA_EState3>
9.89

>  <VSA_EState4>
1.27

>  <VSA_EState5>
0.75

>  <VSA_EState6>
0

>  <VSA_EState7>
9.7

>  <VSA_EState8>
8.33

>  <VSA_EState9>
0

>  <apol>
68.09

>  <bpol>
41.32

>  <nRing>
3

>  <nHRing>
1

>  <naRing>
0

>  <naHRing>
0

>  <nARing 2>
3

>  <nAHRing 2>
1

>  <nFRing>
1

>  <nFHRing>
0

>  <nFaRing>
0

>  <nFaHRing>
0

>  <nFARing 2>
1

>  <nFAHRing 2>
0

>  <nRot>
6

>  <SLogP>
4.2

>  <SMR>
110.84

>  <TopoPSA(NO)>
72.83

>  <TopoPSA>
72.83

>  <JGI1>
0.24

>  <JGI2>
0.08

>  <JGI3>
0.06

>  <JGI4>
0.04

>  <JGI5>
0.02

>  <Diameter>
13

>  <Radius>
7

>  <TMWC10>
136.64

>  <TSRW10>
64.53

>  <MW>
404.26

>  <AMW>
6.22

>  <WPath>
2246

>  <WPol>
47

>  <Zagreb1>
150

>  <Zagreb2>
175

>  <mZagreb2>
6.39

>  <yes>


>  <nAR-cont>
0.691115

>  <nHA-cont>
0.785905698

>  <MWHBN>
0.298415148

>  <MWHBN-cont>
0.845447894

>  <TPSA-cont>
0.491601375

>  <pka_cont>
0.97

>  <yes.1>


>  <BBB_SCORE>
4.21339529

>  <MMFF94 Energy>
19.536

$$$$
Compound 351
Actelion Java MolfileCreator 2.0

  0  0  0  0  0  0              0 V3000
M  V30 BEGIN CTAB
M  V30 COUNTS 51 54 0 0 0
M  V30 BEGIN ATOM
M  V30 1 O -0.7182 -2.9553 3.5152 0
M  V30 2 C -1.474 -2.0364 2.8224 0
M  V30 3 C -0.5736 -2.6211 4.8952 0
M  V30 4 C -2.8165 -1.7642 3.151 0
M  V30 5 C -0.8622 -1.4343 1.7043 0
M  V30 6 O -3.3443 -2.4392 4.2207 0
M  V30 7 C -3.5265 -0.8449 2.3756 0
M  V30 8 C -1.6054 -0.5388 0.9189 0
M  V30 9 C 0.5485 -1.8116 1.3099 0
M  V30 10 C -4.7415 -2.3181 4.4506 0
M  V30 11 C -2.9255 -0.235 1.2722 0
M  V30 12 C -0.9773 0.1455 -0.2689 0
M  V30 13 N 1.2401 -0.8636 0.424 0
M  V30 14 C 0.3757 -0.4701 -0.7064 0 CFG=2
M  V30 15 C 1.7621 0.3094 1.1303 0
M  V30 16 C 1.0852 0.495 -1.6504 0
M  V30 17 C 2.6883 1.1144 0.2067 0
M  V30 18 C 2.1488 1.2902 -1.1932 0
M  V30 19 C 0.6439 0.6338 -2.9778 0
M  V30 20 C 2.7615 2.2036 -2.0649 0
M  V30 21 C 1.2512 1.5481 -3.8463 0
M  V30 22 C 2.3172 2.3438 -3.3843 0
M  V30 23 O 0.8724 1.7456 -5.1519 0
M  V30 24 O 2.8567 3.2176 -4.2966 0
M  V30 25 C -0.1073 0.8721 -5.693 0
M  V30 26 C 3.9519 4.017 -3.8755 0
M  V30 27 H -0.6405 -1.5431 5.0835 0
M  V30 28 H 0.4192 -2.9536 5.2138 0
M  V30 29 H -1.3113 -3.163 5.4939 0
M  V30 30 H -4.5553 -0.5821 2.5976 0
M  V30 31 H 0.4963 -2.7801 0.7953 0
M  V30 32 H 1.1665 -1.9751 2.2012 0
M  V30 33 H -5.0027 -1.2977 4.7494 0
M  V30 34 H -5.0022 -2.9829 5.2798 0
M  V30 35 H -5.3187 -2.6359 3.5759 0
M  V30 36 H -3.4989 0.4771 0.6819 0
M  V30 37 H -0.8513 1.2059 -0.0107 0
M  V30 38 H -1.6768 0.1029 -1.1143 0
M  V30 39 H 0.1734 -1.3881 -1.2771 0
M  V30 40 H 2.3493 0.0024 2.0047 0
M  V30 41 H 0.9575 0.9535 1.5059 0
M  V30 42 H 3.6533 0.597 0.129 0
M  V30 43 H 2.8716 2.0963 0.6593 0
M  V30 44 H -0.1837 0.0153 -3.3093 0
M  V30 45 H 3.5921 2.7906 -1.6869 0
M  V30 46 H 0.2184 -0.172 -5.6415 0
M  V30 47 H -0.2365 1.1276 -6.7491 0
M  V30 48 H -1.074 1.0109 -5.198 0
M  V30 49 H 3.6621 4.6857 -3.0583 0
M  V30 50 H 4.2555 4.6407 -4.7219 0
M  V30 51 H 4.8099 3.397 -3.5959 0
M  V30 END ATOM
M  V30 BEGIN BOND
M  V30 1 1 1 2
M  V30 2 1 1 3
M  V30 3 2 2 4
M  V30 4 1 2 5
M  V30 5 1 4 6
M  V30 6 1 4 7
M  V30 7 2 5 8
M  V30 8 1 5 9
M  V30 9 1 6 10
M  V30 10 2 7 11
M  V30 11 1 8 12
M  V30 12 1 9 13
M  V30 13 1 12 14
M  V30 14 1 13 15
M  V30 15 1 14 16
M  V30 16 1 15 17
M  V30 17 2 16 18
M  V30 18 1 16 19
M  V30 19 1 18 20
M  V30 20 2 19 21
M  V30 21 2 20 22
M  V30 22 1 21 23
M  V30 23 1 22 24
M  V30 24 1 23 25
M  V30 25 1 24 26
M  V30 26 1 8 11
M  V30 27 1 13 14
M  V30 28 1 17 18
M  V30 29 1 21 22
M  V30 30 1 3 27
M  V30 31 1 3 28
M  V30 32 1 3 29
M  V30 33 1 7 30
M  V30 34 1 9 31
M  V30 35 1 9 32
M  V30 36 1 10 33
M  V30 37 1 10 34
M  V30 38 1 10 35
M  V30 39 1 11 36
M  V30 40 1 12 37
M  V30 41 1 12 38
M  V30 42 1 14 39
M  V30 43 1 15 40
M  V30 44 1 15 41
M  V30 45 1 17 42
M  V30 46 1 17 43
M  V30 47 1 19 44
M  V30 48 1 20 45
M  V30 49 1 25 46
M  V30 50 1 25 47
M  V30 51 1 25 48
M  V30 52 1 26 49
M  V30 53 1 26 50
M  V30 54 1 26 51
M  V30 END BOND
M  V30 BEGIN COLLECTION
M  V30 MDLV30/STEABS ATOMS=(1 14)
M  V30 END COLLECTION
M  V30 END CTAB
M  END
>  <Column 1>
436

>  <level_0>
493

>  <index>
493

>  <Unnamed: 0>
493

>  <NO.>
496

>  <Name>
tetrahydropalmatine

>  <IUPAC_name>
(13as)-2-3-9-10-tetramethoxy-6-8-13-13a-tetrahydro-5h-isoquinolino[2-1-b]isoquinoline

>  <SMILES>
COc1cc2c(cc1OC)[C@@H]1Cc3ccc(OC)c(OC)c3CN1CC2

>  <CID>
72301

>  <logBB>
-0.07

>  <BBB+/BBB->
BBB+

>  <Inchi>
InChI=1S/C21H25NO4/c1-23-18-6-5-13-9-17-15-11-20(25-3)19(24-2)10-14(15)7-8-22(17)12-16(13)21(18)26-4/h5-6-10-11-17H-7-9-12H2-1-4H3/t17-/m0/s1

>  <threshold>


>  <reference>
R2|R2|R25|R27|R46|

>  <group>
A

>  <Class>
1

>  <ABC>
20.22

>  <ABCGG>
15.34

>  <nAcid>
0

>  <nBase>
1

>  <nAromAtom>
12

>  <nAromBond>
12

>  <nAtom>
51

>  <nHeavyAtom>
26

>  <nSpiro>
0

>  <nBridgehead>
0

>  <nHetero>
5

>  <nN>
1

>  <nO>
4

>  <nF>
0

>  <BalabanJ>
1.49

>  <BertzCT>
833.25

>  <nBonds>
54

>  <nBondsO>
29

>  <nBondsS>
42

>  <nBondsD>
0

>  <nBondsT>
0

>  <nBondsA>
12

>  <nBondsM>
12

>  <nBondsKS>
48

>  <nBondsKD>
6

>  <RNCG>
0.2

>  <RPCG>
0.07

>  <FCSP3>
0.43

>  <SZ>
31.67

>  <Sm>
29.59

>  <Sv>
31.39

>  <Sse>
51.08

>  <Sp>
33.56

>  <Si>
57.32

>  <MZ>
0.62

>  <Mm>
0.58

>  <Mv>
0.62

>  <Mse>
1

>  <Mp>
0.66

>  <Mi>
1.12

>  <NsCH3>
4

>  <NdCH2>
0

>  <NssCH2>
4

>  <NtCH>
0

>  <NdsCH>
0

>  <NaaCH>
4

>  <NsssCH>
1

>  <NddC>
0

>  <NtsC>
0

>  <NdssC>
0

>  <NaasC>
8

>  <NaaaC>
0

>  <NssssC>
0

>  <NsNH3>
0

>  <NsNH2>
0

>  <NssNH2>
0

>  <NdNH>
0

>  <NssNH>
0

>  <NaaNH>
0

>  <NtN>
0

>  <NsssNH>
0

>  <NdsN>
0

>  <NaaN>
0

>  <NsssN>
1

>  <NddsN>
0

>  <NaasN>
0

>  <NssssN>
0

>  <NsOH>
0

>  <NdO>
0

>  <NssO>
4

>  <NaaO>
0

>  <NsF>
0

>  <NsSiH3>
0

>  <NssSiH2>
0

>  <NsssSiH>
0

>  <NssssSi>
0

>  <NsPH2>
0

>  <NssPH>
0

>  <NsssP>
0

>  <NdsssP>
0

>  <NsssssP>
0

>  <NsSH>
0

>  <NdS>
0

>  <NssS>
0

>  <NaaS>
0

>  <NdssS>
0

>  <NddssS>
0

>  <NsCl>
0

>  <NsBr>
0

>  <NsI>
0

>  <fragCpx>
191.05

>  <fMF>
0.35

>  <nHBAcc>
5

>  <nHBDon>
0

>  <Kier1>
19.32

>  <Kier2>
8.16

>  <Lipinski>
1

>  <GhoseFilter>
1

>  <FilterItLogS>
-5.26

>  <VMcGowan>
270.97

>  <LabuteASA>
153.98

>  <PEOE_VSA1>
18.95

>  <PEOE_VSA2>
4.9

>  <PEOE_VSA3>
0

>  <PEOE_VSA4>
0

>  <PEOE_VSA5>
0

>  <PEOE_VSA6>
6.07

>  <PEOE_VSA7>
47.73

>  <PEOE_VSA8>
24.69

>  <PEOE_VSA9>
28.44

>  <PEOE_VSA10>
0

>  <PEOE_VSA11>
23

>  <PEOE_VSA12>
0

>  <PEOE_VSA13>
0

>  <SMR_VSA1>
18.95

>  <SMR_VSA2>
0

>  <SMR_VSA3>
4.9

>  <SMR_VSA4>
0

>  <SMR_VSA5>
25.43

>  <SMR_VSA6>
34.98

>  <SMR_VSA7>
46.52

>  <SMR_VSA8>
0

>  <SMR_VSA9>
23

>  <SlogP_VSA1>
18.95

>  <SlogP_VSA2>
39.88

>  <SlogP_VSA3>
19.39

>  <SlogP_VSA4>
0

>  <SlogP_VSA5>
28.3

>  <SlogP_VSA6>
24.27

>  <SlogP_VSA7>
0

>  <SlogP_VSA8>
0

>  <SlogP_VSA9>
0

>  <SlogP_VSA10>
0

>  <SlogP_VSA11>
23

>  <EState_VSA1>
0

>  <EState_VSA2>
0

>  <EState_VSA3>
6.04

>  <EState_VSA4>
48.93

>  <EState_VSA5>
22.25

>  <EState_VSA6>
28.44

>  <EState_VSA7>
6.07

>  <EState_VSA8>
23.1

>  <EState_VSA9>
18.95

>  <EState_VSA10>
0

>  <VSA_EState1>
22.16

>  <VSA_EState2>
2.53

>  <VSA_EState3>
0

>  <VSA_EState4>
5.26

>  <VSA_EState5>
3.27

>  <VSA_EState6>
8.81

>  <VSA_EState7>
1.96

>  <VSA_EState8>
1.89

>  <VSA_EState9>
6.79

>  <apol>
56.05

>  <bpol>
33.73

>  <nRing>
4

>  <nHRing>
2

>  <naRing>
2

>  <naHRing>
0

>  <nARing 2>
2

>  <nAHRing 2>
2

>  <nFRing>
1

>  <nFHRing>
1

>  <nFaRing>
0

>  <nFaHRing>
0

>  <nFARing 2>
1

>  <nFAHRing 2>
1

>  <nRot>
4

>  <SLogP>
3.38

>  <SMR>
99.65

>  <TopoPSA(NO)>
40.16

>  <TopoPSA>
40.16

>  <JGI1>
0.17

>  <JGI2>
0.08

>  <JGI3>
0.04

>  <JGI4>
0.06

>  <JGI5>
0.03

>  <Diameter>
13

>  <Radius>
7

>  <TMWC10>
132.57

>  <TSRW10>
61.64

>  <MW>
355.18

>  <AMW>
6.96

>  <WPath>
1589

>  <WPol>
50

>  <Zagreb1>
142

>  <Zagreb2>
175

>  <mZagreb2>
5.94

>  <yes>


>  <nAR-cont>
1

>  <nHA-cont>
0.892715677

>  <MWHBN>
0.265305194

>  <MWHBN-cont>
0.930466833

>  <TPSA-cont>
0.719658262

>  <pka_cont>
0.97

>  <yes.1>


>  <BBB_SCORE>
5.212732451

>  <MMFF94 Energy>
124.94

$$$$
Compound 352
Actelion Java MolfileCreator 2.0

  0  0  0  0  0  0              0 V3000
M  V30 BEGIN CTAB
M  V30 COUNTS 9 8 0 0 0
M  V30 BEGIN ATOM
M  V30 1 C 0.2197 -0.2197 -0.4395 0
M  V30 2 C 0.2827 -1.3483 0.2775 0
M  V30 3 C -0.2514 1.0909 0.0996 0
M  V30 4 H 0.5265 -0.237 -1.4829 0
M  V30 5 H -0.0128 -1.379 1.3217 0
M  V30 6 H 0.6347 -2.2722 -0.171 0
M  V30 7 H -1.1175 1.4393 -0.4712 0
M  V30 8 H 0.543 1.8381 0.0103 0
M  V30 9 H -0.541 1.0244 1.1532 0
M  V30 END ATOM
M  V30 BEGIN BOND
M  V30 1 2 1 2
M  V30 2 1 1 3
M  V30 3 1 1 4
M  V30 4 1 2 5
M  V30 5 1 2 6
M  V30 6 1 3 7
M  V30 7 1 3 8
M  V30 8 1 3 9
M  V30 END BOND
M  V30 END CTAB
M  END
>  <Column 1>
437

>  <level_0>
495

>  <index>
495

>  <Unnamed: 0>
495

>  <NO.>
498

>  <Name>
propene

>  <IUPAC_name>
prop-1-ene

>  <SMILES>
C=CC

>  <CID>
8252

>  <logBB>
-0.06

>  <BBB+/BBB->
BBB+

>  <Inchi>
InChI=1S/C3H6/c1-3-2/h3H-1H2-2H3

>  <threshold>


>  <reference>
R3|R21|R25|R27|R38|R41|R43|R46|R47|R2|R2|R8|R27|R40|

>  <group>
A

>  <Class>
1

>  <ABC>
1.41

>  <ABCGG>
1.41

>  <nAcid>
0

>  <nBase>
0

>  <nAromAtom>
0

>  <nAromBond>
0

>  <nAtom>
9

>  <nHeavyAtom>
3

>  <nSpiro>
0

>  <nBridgehead>
0

>  <nHetero>
0

>  <nN>
0

>  <nO>
0

>  <nF>
0

>  <BalabanJ>
1.63

>  <BertzCT>
7.51

>  <nBonds>
8

>  <nBondsO>
2

>  <nBondsS>
7

>  <nBondsD>
1

>  <nBondsT>
0

>  <nBondsA>
0

>  <nBondsM>
1

>  <nBondsKS>
7

>  <nBondsKD>
1

>  <RNCG>
0.42

>  <RPCG>
0.23

>  <FCSP3>
0.33

>  <SZ>
4

>  <Sm>
3.5

>  <Sv>
4.63

>  <Sse>
8.66

>  <Sp>
5.4

>  <Si>
10.25

>  <MZ>
0.44

>  <Mm>
0.39

>  <Mv>
0.51

>  <Mse>
0.96

>  <Mp>
0.6

>  <Mi>
1.14

>  <NsCH3>
1

>  <NdCH2>
1

>  <NssCH2>
0

>  <NtCH>
0

>  <NdsCH>
1

>  <NaaCH>
0

>  <NsssCH>
0

>  <NddC>
0

>  <NtsC>
0

>  <NdssC>
0

>  <NaasC>
0

>  <NaaaC>
0

>  <NssssC>
0

>  <NsNH3>
0

>  <NsNH2>
0

>  <NssNH2>
0

>  <NdNH>
0

>  <NssNH>
0

>  <NaaNH>
0

>  <NtN>
0

>  <NsssNH>
0

>  <NdsN>
0

>  <NaaN>
0

>  <NsssN>
0

>  <NddsN>
0

>  <NaasN>
0

>  <NssssN>
0

>  <NsOH>
0

>  <NdO>
0

>  <NssO>
0

>  <NaaO>
0

>  <NsF>
0

>  <NsSiH3>
0

>  <NssSiH2>
0

>  <NsssSiH>
0

>  <NssssSi>
0

>  <NsPH2>
0

>  <NssPH>
0

>  <NsssP>
0

>  <NdsssP>
0

>  <NsssssP>
0

>  <NsSH>
0

>  <NdS>
0

>  <NssS>
0

>  <NaaS>
0

>  <NdssS>
0

>  <NddssS>
0

>  <NsCl>
0

>  <NsBr>
0

>  <NsI>
0

>  <fragCpx>
2

>  <fMF>
0

>  <nHBAcc>
0

>  <nHBDon>
0

>  <Kier1>
3

>  <Kier2>
2

>  <Lipinski>
1

>  <GhoseFilter>
0

>  <FilterItLogS>
-0.47

>  <VMcGowan>
48.83

>  <LabuteASA>
20.78

>  <PEOE_VSA1>
0

>  <PEOE_VSA2>
0

>  <PEOE_VSA3>
0

>  <PEOE_VSA4>
0

>  <PEOE_VSA5>
6.58

>  <PEOE_VSA6>
6.08

>  <PEOE_VSA7>
6.92

>  <PEOE_VSA8>
0

>  <PEOE_VSA9>
0

>  <PEOE_VSA10>
0

>  <PEOE_VSA11>
0

>  <PEOE_VSA12>
0

>  <PEOE_VSA13>
0

>  <SMR_VSA1>
0

>  <SMR_VSA2>
0

>  <SMR_VSA3>
0

>  <SMR_VSA4>
0

>  <SMR_VSA5>
6.92

>  <SMR_VSA6>
0

>  <SMR_VSA7>
12.65

>  <SMR_VSA8>
0

>  <SMR_VSA9>
0

>  <SlogP_VSA1>
0

>  <SlogP_VSA2>
0

>  <SlogP_VSA3>
0

>  <SlogP_VSA4>
0

>  <SlogP_VSA5>
6.92

>  <SlogP_VSA6>
12.65

>  <SlogP_VSA7>
0

>  <SlogP_VSA8>
0

>  <SlogP_VSA9>
0

>  <SlogP_VSA10>
0

>  <SlogP_VSA11>
0

>  <EState_VSA1>
0

>  <EState_VSA2>
0

>  <EState_VSA3>
0

>  <EState_VSA4>
0

>  <EState_VSA5>
0

>  <EState_VSA6>
6.08

>  <EState_VSA7>
6.92

>  <EState_VSA8>
6.58

>  <EState_VSA9>
0

>  <EState_VSA10>
0

>  <VSA_EState1>
0

>  <VSA_EState2>
0

>  <VSA_EState3>
0

>  <VSA_EState4>
0

>  <VSA_EState5>
0

>  <VSA_EState6>
0

>  <VSA_EState7>
1.75

>  <VSA_EState8>
5.25

>  <VSA_EState9>
0

>  <apol>
9.01

>  <bpol>
6.02

>  <nRing>
0

>  <nHRing>
0

>  <naRing>
0

>  <naHRing>
0

>  <nARing 2>
0

>  <nAHRing 2>
0

>  <nFRing>
0

>  <nFHRing>
0

>  <nFaRing>
0

>  <nFaHRing>
0

>  <nFARing 2>
0

>  <nFAHRing 2>
0

>  <nRot>
0

>  <SLogP>
1.19

>  <SMR>
15.87

>  <TopoPSA(NO)>
0

>  <TopoPSA>
0

>  <JGI1>
0.25

>  <JGI2>
0

>  <JGI3>
0

>  <JGI4>
0

>  <JGI5>
0

>  <Diameter>
2

>  <Radius>
1

>  <TMWC10>
33.9

>  <TSRW10>
17.31

>  <MW>
42.05

>  <AMW>
4.67

>  <WPath>
4

>  <WPol>
0

>  <Zagreb1>
6

>  <Zagreb2>
4

>  <mZagreb2>
1

>  <yes>


>  <nAR-cont>
0.336376

>  <nHA-cont>
0

>  <MWHBN>
0

>  <MWHBN-cont>
0

>  <TPSA-cont>
0

>  <pka_cont>
0.97

>  <yes.1>


>  <BBB_SCORE>
0.821376

>  <MMFF94 Energy>
6.4832

$$$$
Compound 353
Actelion Java MolfileCreator 2.0

  0  0  0  0  0  0              0 V3000
M  V30 BEGIN CTAB
M  V30 COUNTS 41 41 0 0 0
M  V30 BEGIN ATOM
M  V30 1 O 4.4692 0.9396 2.115 0
M  V30 2 C 3.2835 0.9625 1.7923 0
M  V30 3 N 2.3765 -0.02 2.1121 0
M  V30 4 N 2.8064 2.0302 1.1007 0
M  V30 5 C 1.0181 0.066 1.859 0
M  V30 6 C 2.8426 -1.1284 2.9277 0
M  V30 7 C 1.5533 2.2041 0.5988 0
M  V30 8 O 0.2176 -0.6807 2.4295 0
M  V30 9 C 0.5482 1.0814 0.8122 0
M  V30 10 O 1.3155 3.2218 -0.0502 0
M  V30 11 C 0.3231 0.3438 -0.5665 0
M  V30 12 C -0.7569 1.7394 1.3803 0
M  V30 13 C -0.7541 -0.7707 -0.4992 0
M  V30 14 C 1.6255 -0.2327 -1.156 0
M  V30 15 C -1.5986 2.5466 0.4202 0
M  V30 16 C -1.2756 -1.1936 -1.8788 0
M  V30 17 C -2.8742 2.2695 0.1204 0
M  V30 18 C -2.4142 -2.2074 -1.7513 0
M  V30 19 C -2.9358 -2.6335 -3.1142 0
M  V30 20 H 3.4724 2.7658 0.9083 0
M  V30 21 H 3.9008 -1.3373 2.7466 0
M  V30 22 H 2.2621 -2.032 2.7178 0
M  V30 23 H 2.7092 -0.8597 3.9806 0
M  V30 24 H -0.0226 1.098 -1.2871 0
M  V30 25 H -0.4789 2.411 2.2056 0
M  V30 26 H -1.399 0.9808 1.8459 0
M  V30 27 H -1.6111 -0.4376 0.0923 0
M  V30 28 H -0.3477 -1.6524 0.0114 0
M  V30 29 H 1.4629 -0.6218 -2.1656 0
M  V30 30 H 2.0167 -1.0527 -0.5458 0
M  V30 31 H 2.4034 0.5304 -1.2473 0
M  V30 32 H -1.1409 3.4239 -0.0346 0
M  V30 33 H -0.4689 -1.638 -2.4709 0
M  V30 34 H -1.6328 -0.311 -2.4228 0
M  V30 35 H -3.3944 1.4196 0.5515 0
M  V30 36 H -3.4297 2.8979 -0.5694 0
M  V30 37 H -2.0653 -3.0922 -1.2064 0
M  V30 38 H -3.2374 -1.7729 -1.1721 0
M  V30 39 H -3.7491 -3.357 -2.9995 0
M  V30 40 H -3.3215 -1.7746 -3.6726 0
M  V30 41 H -2.1449 -3.1027 -3.7078 0
M  V30 END ATOM
M  V30 BEGIN BOND
M  V30 1 2 1 2
M  V30 2 1 2 3
M  V30 3 1 2 4
M  V30 4 1 3 5
M  V30 5 1 3 6
M  V30 6 1 4 7
M  V30 7 2 5 8
M  V30 8 1 5 9
M  V30 9 2 7 10
M  V30 10 1 9 11
M  V30 11 1 9 12
M  V30 12 1 11 13
M  V30 13 1 11 14
M  V30 14 1 12 15
M  V30 15 1 13 16
M  V30 16 2 15 17
M  V30 17 1 16 18
M  V30 18 1 18 19
M  V30 19 1 7 9
M  V30 20 1 4 20
M  V30 21 1 6 21
M  V30 22 1 6 22
M  V30 23 1 6 23
M  V30 24 1 11 24
M  V30 25 1 12 25
M  V30 26 1 12 26
M  V30 27 1 13 27
M  V30 28 1 13 28
M  V30 29 1 14 29
M  V30 30 1 14 30
M  V30 31 1 14 31
M  V30 32 1 15 32
M  V30 33 1 16 33
M  V30 34 1 16 34
M  V30 35 1 17 35
M  V30 36 1 17 36
M  V30 37 1 18 37
M  V30 38 1 18 38
M  V30 39 1 19 39
M  V30 40 1 19 40
M  V30 41 1 19 41
M  V30 END BOND
M  V30 END CTAB
M  END
>  <Column 1>
438

>  <level_0>
496

>  <index>
496

>  <Unnamed: 0>
496

>  <NO.>
499

>  <Name>
5-allyl-1-methyl-5-(1-methylpentyl)barbituric acid

>  <IUPAC_name>
5-hexan-2-yl-1-methyl-5-prop-2-enyl-1-3-diazinane-2-4-6-trione

>  <SMILES>
C=CCC1(C(C)CCCC)C(=O)NC(=O)N(C)C1=O

>  <CID>
48557

>  <logBB>
-0.06

>  <BBB+/BBB->
BBB+

>  <Inchi>
InChI=1S/C14H22N2O3/c1-5-7-8-10(3)14(9-6-2)11(17)15-13(19)16(4)12(14)18/h6-10H-2-5-7-9H2-1-3-4H3-(H-15-17-19)

>  <threshold>


>  <reference>
R18|R26|R27|

>  <group>
A

>  <Class>
1

>  <ABC>
13.72

>  <ABCGG>
13.31

>  <nAcid>
0

>  <nBase>
0

>  <nAromAtom>
0

>  <nAromBond>
0

>  <nAtom>
41

>  <nHeavyAtom>
19

>  <nSpiro>
0

>  <nBridgehead>
0

>  <nHetero>
5

>  <nN>
2

>  <nO>
3

>  <nF>
0

>  <BalabanJ>
3

>  <BertzCT>
405.5

>  <nBonds>
41

>  <nBondsO>
19

>  <nBondsS>
37

>  <nBondsD>
4

>  <nBondsT>
0

>  <nBondsA>
0

>  <nBondsM>
4

>  <nBondsKS>
37

>  <nBondsKD>
4

>  <RNCG>
0.15

>  <RPCG>
0.18

>  <FCSP3>
0.64

>  <SZ>
24

>  <Sm>
22.17

>  <Sv>
23.62

>  <Sse>
41.08

>  <Sp>
25.54

>  <Si>
46.78

>  <MZ>
0.59

>  <Mm>
0.54

>  <Mv>
0.58

>  <Mse>
1

>  <Mp>
0.62

>  <Mi>
1.14

>  <NsCH3>
3

>  <NdCH2>
1

>  <NssCH2>
4

>  <NtCH>
0

>  <NdsCH>
1

>  <NaaCH>
0

>  <NsssCH>
1

>  <NddC>
0

>  <NtsC>
0

>  <NdssC>
3

>  <NaasC>
0

>  <NaaaC>
0

>  <NssssC>
1

>  <NsNH3>
0

>  <NsNH2>
0

>  <NssNH2>
0

>  <NdNH>
0

>  <NssNH>
1

>  <NaaNH>
0

>  <NtN>
0

>  <NsssNH>
0

>  <NdsN>
0

>  <NaaN>
0

>  <NsssN>
1

>  <NddsN>
0

>  <NaasN>
0

>  <NssssN>
0

>  <NsOH>
0

>  <NdO>
3

>  <NssO>
0

>  <NaaO>
0

>  <NsF>
0

>  <NsSiH3>
0

>  <NssSiH2>
0

>  <NsssSiH>
0

>  <NssssSi>
0

>  <NsPH2>
0

>  <NssPH>
0

>  <NsssP>
0

>  <NdsssP>
0

>  <NsssssP>
0

>  <NsSH>
0

>  <NdS>
0

>  <NssS>
0

>  <NaaS>
0

>  <NdssS>
0

>  <NddssS>
0

>  <NsCl>
0

>  <NsBr>
0

>  <NsI>
0

>  <fragCpx>
19.05

>  <fMF>
0.15

>  <nHBAcc>
3

>  <nHBDon>
1

>  <Kier1>
17.05

>  <Kier2>
7.14

>  <Lipinski>
1

>  <GhoseFilter>
1

>  <FilterItLogS>
-3.31

>  <VMcGowan>
217.63

>  <LabuteASA>
113.58

>  <PEOE_VSA1>
0

>  <PEOE_VSA2>
19.81

>  <PEOE_VSA3>
4.79

>  <PEOE_VSA4>
0

>  <PEOE_VSA5>
6.58

>  <PEOE_VSA6>
32.77

>  <PEOE_VSA7>
18.76

>  <PEOE_VSA8>
7.05

>  <PEOE_VSA9>
0

>  <PEOE_VSA10>
5.41

>  <PEOE_VSA11>
0

>  <PEOE_VSA12>
11.81

>  <PEOE_VSA13>
0

>  <SMR_VSA1>
14.38

>  <SMR_VSA2>
0

>  <SMR_VSA3>
10.22

>  <SMR_VSA4>
11.33

>  <SMR_VSA5>
39.53

>  <SMR_VSA6>
7.05

>  <SMR_VSA7>
12.65

>  <SMR_VSA8>
0

>  <SMR_VSA9>
0

>  <SlogP_VSA1>
5.32

>  <SlogP_VSA2>
29.79

>  <SlogP_VSA3>
9.59

>  <SlogP_VSA4>
11.33

>  <SlogP_VSA5>
39.53

>  <SlogP_VSA6>
12.65

>  <SlogP_VSA7>
0

>  <SlogP_VSA8>
0

>  <SlogP_VSA9>
0

>  <SlogP_VSA10>
4.79

>  <SlogP_VSA11>
0

>  <EState_VSA1>
23.26

>  <EState_VSA2>
12.34

>  <EState_VSA3>
0

>  <EState_VSA4>
24.16

>  <EState_VSA5>
7.05

>  <EState_VSA6>
6.08

>  <EState_VSA7>
6.92

>  <EState_VSA8>
18.82

>  <EState_VSA9>
0

>  <EState_VSA10>
14.38

>  <VSA_EState1>
0

>  <VSA_EState2>
37.19

>  <VSA_EState3>
2.27

>  <VSA_EState4>
-1.19

>  <VSA_EState5>
-1.05

>  <VSA_EState6>
-0.66

>  <VSA_EState7>
4.53

>  <VSA_EState8>
7.59

>  <VSA_EState9>
1.4

>  <apol>
42.66

>  <bpol>
26.95

>  <nRing>
1

>  <nHRing>
1

>  <naRing>
0

>  <naHRing>
0

>  <nARing 2>
1

>  <nAHRing 2>
1

>  <nFRing>
0

>  <nFHRing>
0

>  <nFaRing>
0

>  <nFaHRing>
0

>  <nFARing 2>
0

>  <nFAHRing 2>
0

>  <nRot>
6

>  <SLogP>
2.08

>  <SMR>
72.24

>  <TopoPSA(NO)>
66.48

>  <TopoPSA>
66.48

>  <JGI1>
0.26

>  <JGI2>
0.14

>  <JGI3>
0.08

>  <JGI4>
0.05

>  <JGI5>
0.03

>  <Diameter>
9

>  <Radius>
5

>  <TMWC10>
111.43

>  <TSRW10>
52.55

>  <MW>
266.16

>  <AMW>
6.49

>  <WPath>
646

>  <WPol>
35

>  <Zagreb1>
92

>  <Zagreb2>
111

>  <mZagreb2>
4.51

>  <yes>


>  <nAR-cont>
0.816016

>  <nHA-cont>
0.998649058

>  <MWHBN>
0.245182008

>  <MWHBN-cont>
0.967505541

>  <TPSA-cont>
0.535928318

>  <pka_cont>
0.97

>  <yes.1>


>  <BBB_SCORE>
4.822780006

>  <MMFF94 Energy>
-98.796

$$$$
Compound 354
Actelion Java MolfileCreator 2.0

  0  0  0  0  0  0              0 V3000
M  V30 BEGIN CTAB
M  V30 COUNTS 44 46 0 0 0
M  V30 BEGIN ATOM
M  V30 1 O -0.5575 -0.4778 -2.3112 0
M  V30 2 C -0.7816 -0.8364 -1.161 0
M  V30 3 O -0.0706 -0.4222 -0.0719 0
M  V30 4 C -1.9168 -1.7674 -0.7687 0
M  V30 5 C 1.0021 0.5064 -0.3264 0
M  V30 6 C -3.1845 -1.0024 -0.4146 0
M  V30 7 C -1.4789 -2.7466 0.3295 0
M  V30 8 C 1.2777 1.2725 0.9752 0
M  V30 9 C 2.2481 -0.2388 -0.8276 0
M  V30 10 C -4.3533 -1.2079 -1.1639 0
M  V30 11 C -3.2236 -0.0871 0.6499 0
M  V30 12 O -2.2788 -3.9293 0.284 0
M  V30 13 C 2.6513 1.9646 0.9704 0
M  V30 14 C 3.5325 0.5924 -0.6653 0
M  V30 15 C -5.5267 -0.515 -0.8602 0
M  V30 16 C -4.3983 0.6051 0.9514 0
M  V30 17 N 3.7433 1.019 0.7217 0
M  V30 18 C 2.8211 2.8783 -0.2505 0
M  V30 19 C 3.4057 1.9655 -1.3388 0
M  V30 20 C -5.5488 0.3917 0.1963 0
M  V30 21 C 3.9052 -0.0421 1.6979 0
M  V30 22 H -2.1161 -2.3704 -1.6663 0
M  V30 23 H 0.6743 1.2338 -1.0807 0
M  V30 24 H -0.4399 -3.0607 0.18 0
M  V30 25 H -1.5612 -2.3127 1.3318 0
M  V30 26 H 0.4852 2.0185 1.1192 0
M  V30 27 H 1.1909 0.5984 1.8365 0
M  V30 28 H 2.1123 -0.4967 -1.8852 0
M  V30 29 H 2.3439 -1.2012 -0.31 0
M  V30 30 H -4.3602 -1.9152 -1.991 0
M  V30 31 H -2.3411 0.0994 1.2575 0
M  V30 32 H -2.0461 -4.4646 1.0622 0
M  V30 33 H 2.7978 2.5269 1.8989 0
M  V30 34 H 4.3936 0.0439 -1.0617 0
M  V30 35 H -6.4239 -0.6854 -1.4495 0
M  V30 36 H -4.4156 1.3119 1.777 0
M  V30 37 H 3.5344 3.6828 -0.0324 0
M  V30 38 H 1.8832 3.3455 -0.568 0
M  V30 39 H 4.3931 2.3419 -1.6337 0
M  V30 40 H 2.7783 1.9445 -2.2358 0
M  V30 41 H -6.4628 0.9303 0.4315 0
M  V30 42 H 4.7746 -0.6575 1.4422 0
M  V30 43 H 3.0412 -0.7064 1.7882 0
M  V30 44 H 4.1029 0.3851 2.6871 0
M  V30 END ATOM
M  V30 BEGIN BOND
M  V30 1 2 1 2
M  V30 2 1 2 3
M  V30 3 1 2 4
M  V30 4 1 3 5
M  V30 5 1 4 6
M  V30 6 1 4 7
M  V30 7 1 5 8
M  V30 8 1 5 9
M  V30 9 2 6 10
M  V30 10 1 6 11
M  V30 11 1 7 12
M  V30 12 1 8 13
M  V30 13 1 9 14
M  V30 14 1 10 15
M  V30 15 2 11 16
M  V30 16 1 13 17
M  V30 17 1 13 18
M  V30 18 1 14 19
M  V30 19 2 15 20
M  V30 20 1 17 21
M  V30 21 1 14 17
M  V30 22 1 16 20
M  V30 23 1 18 19
M  V30 24 1 4 22
M  V30 25 1 5 23
M  V30 26 1 7 24
M  V30 27 1 7 25
M  V30 28 1 8 26
M  V30 29 1 8 27
M  V30 30 1 9 28
M  V30 31 1 9 29
M  V30 32 1 10 30
M  V30 33 1 11 31
M  V30 34 1 12 32
M  V30 35 1 13 33
M  V30 36 1 14 34
M  V30 37 1 15 35
M  V30 38 1 16 36
M  V30 39 1 18 37
M  V30 40 1 18 38
M  V30 41 1 19 39
M  V30 42 1 19 40
M  V30 43 1 20 41
M  V30 44 1 21 42
M  V30 45 1 21 43
M  V30 46 1 21 44
M  V30 END BOND
M  V30 END CTAB
M  END
>  <Column 1>
439

>  <level_0>
497

>  <index>
497

>  <Unnamed: 0>
497

>  <NO.>
500

>  <Name>
l-hyoscyamine

>  <IUPAC_name>
(8-methyl-8-azabicyclo[3.2.1]octan-3-yl) 3-hydroxy-2-phenylpropanoate

>  <SMILES>
CN1C2CCC1CC(OC(=O)C(CO)c1ccccc1)C2

>  <CID>
3661

>  <logBB>
-0.06

>  <BBB+/BBB->
BBB+

>  <Inchi>
InChI=1S/C17H23NO3/c1-18-13-7-8-14(18)10-15(9-13)21-17(20)16(11-19)12-5-3-2-4-6-12/h2-6-13-16-19H-7-11H2-1H3

>  <threshold>


>  <reference>
R12|R25|R27|R35|R43|R46|R47|R2|R2|R27|R40|

>  <group>
A

>  <Class>
1

>  <ABC>
16.32

>  <ABCGG>
13.94

>  <nAcid>
0

>  <nBase>
1

>  <nAromAtom>
6

>  <nAromBond>
6

>  <nAtom>
44

>  <nHeavyAtom>
21

>  <nSpiro>
0

>  <nBridgehead>
2

>  <nHetero>
4

>  <nN>
1

>  <nO>
3

>  <nF>
0

>  <BalabanJ>
1.53

>  <BertzCT>
476.07

>  <nBonds>
46

>  <nBondsO>
23

>  <nBondsS>
39

>  <nBondsD>
1

>  <nBondsT>
0

>  <nBondsA>
6

>  <nBondsM>
7

>  <nBondsKS>
42

>  <nBondsKD>
4

>  <RNCG>
0.25

>  <RPCG>
0.17

>  <FCSP3>
0.59

>  <SZ>
26

>  <Sm>
24.09

>  <Sv>
26.13

>  <Sse>
43.87

>  <Sp>
28.28

>  <Si>
49.69

>  <MZ>
0.59

>  <Mm>
0.55

>  <Mv>
0.59

>  <Mse>
1

>  <Mp>
0.64

>  <Mi>
1.13

>  <NsCH3>
1

>  <NdCH2>
0

>  <NssCH2>
5

>  <NtCH>
0

>  <NdsCH>
0

>  <NaaCH>
5

>  <NsssCH>
4

>  <NddC>
0

>  <NtsC>
0

>  <NdssC>
1

>  <NaasC>
1

>  <NaaaC>
0

>  <NssssC>
0

>  <NsNH3>
0

>  <NsNH2>
0

>  <NssNH2>
0

>  <NdNH>
0

>  <NssNH>
0

>  <NaaNH>
0

>  <NtN>
0

>  <NsssNH>
0

>  <NdsN>
0

>  <NaaN>
0

>  <NsssN>
1

>  <NddsN>
0

>  <NaasN>
0

>  <NssssN>
0

>  <NsOH>
1

>  <NdO>
1

>  <NssO>
1

>  <NaaO>
0

>  <NsF>
0

>  <NsSiH3>
0

>  <NssSiH2>
0

>  <NsssSiH>
0

>  <NssssSi>
0

>  <NsPH2>
0

>  <NssPH>
0

>  <NsssP>
0

>  <NdsssP>
0

>  <NsssssP>
0

>  <NsSH>
0

>  <NdS>
0

>  <NssS>
0

>  <NaaS>
0

>  <NdssS>
0

>  <NddssS>
0

>  <NsCl>
0

>  <NsBr>
0

>  <NsI>
0

>  <fragCpx>
109.04

>  <fMF>
0.39

>  <nHBAcc>
4

>  <nHBDon>
1

>  <Kier1>
15.88

>  <Kier2>
7.05

>  <Lipinski>
1

>  <GhoseFilter>
1

>  <FilterItLogS>
-2.17

>  <VMcGowan>
228.2

>  <LabuteASA>
125.26

>  <PEOE_VSA1>
14.74

>  <PEOE_VSA2>
4.79

>  <PEOE_VSA3>
0

>  <PEOE_VSA4>
0

>  <PEOE_VSA5>
0

>  <PEOE_VSA6>
30.33

>  <PEOE_VSA7>
38.29

>  <PEOE_VSA8>
12.08

>  <PEOE_VSA9>
6.61

>  <PEOE_VSA10>
12.02

>  <PEOE_VSA11>
0

>  <PEOE_VSA12>
0

>  <PEOE_VSA13>
0

>  <SMR_VSA1>
14.64

>  <SMR_VSA2>
0

>  <SMR_VSA3>
4.9

>  <SMR_VSA4>
0

>  <SMR_VSA5>
49.79

>  <SMR_VSA6>
13.65

>  <SMR_VSA7>
35.9

>  <SMR_VSA8>
0

>  <SMR_VSA9>
0

>  <SlogP_VSA1>
0

>  <SlogP_VSA2>
47.82

>  <SlogP_VSA3>
9.53

>  <SlogP_VSA4>
0

>  <SlogP_VSA5>
37.16

>  <SlogP_VSA6>
30.33

>  <SlogP_VSA7>
0

>  <SlogP_VSA8>
0

>  <SlogP_VSA9>
0

>  <SlogP_VSA10>
0

>  <SlogP_VSA11>
0

>  <EState_VSA1>
5.92

>  <EState_VSA2>
18.68

>  <EState_VSA3>
12.08

>  <EState_VSA4>
18.41

>  <EState_VSA5>
12.84

>  <EState_VSA6>
0

>  <EState_VSA7>
30.33

>  <EState_VSA8>
11.95

>  <EState_VSA9>
4.74

>  <EState_VSA10>
9.9

>  <VSA_EState1>
5.7

>  <VSA_EState2>
14.78

>  <VSA_EState3>
9.53

>  <VSA_EState4>
0.82

>  <VSA_EState5>
-0.86

>  <VSA_EState6>
10.47

>  <VSA_EState7>
4.26

>  <VSA_EState8>
-0.21

>  <VSA_EState9>
2.17

>  <apol>
47.23

>  <bpol>
27.39

>  <nRing>
3

>  <nHRing>
2

>  <naRing>
1

>  <naHRing>
0

>  <nARing 2>
2

>  <nAHRing 2>
2

>  <nFRing>
1

>  <nFHRing>
1

>  <nFaRing>
0

>  <nFaHRing>
0

>  <nFARing 2>
1

>  <nFAHRing 2>
1

>  <nRot>
4

>  <SLogP>
1.93

>  <SMR>
79.96

>  <TopoPSA(NO)>
49.77

>  <TopoPSA>
49.77

>  <JGI1>
0.17

>  <JGI2>
0.08

>  <JGI3>
0.06

>  <JGI4>
0.03

>  <JGI5>
0.02

>  <Diameter>
11

>  <Radius>
6

>  <TMWC10>
117.74

>  <TSRW10>
69.13

>  <MW>
289.17

>  <AMW>
6.57

>  <WPath>
959

>  <WPol>
32

>  <Zagreb1>
110

>  <Zagreb2>
130

>  <mZagreb2>
4.69

>  <yes>


>  <nAR-cont>
1

>  <nHA-cont>
0.994529749

>  <MWHBN>
0.29403118

>  <MWHBN-cont>
0.858197632

>  <TPSA-cont>
0.652574495

>  <pka_cont>
0.97

>  <yes.1>


>  <BBB_SCORE>
5.071975187

>  <MMFF94 Energy>
54.356

$$$$
Compound 355
Actelion Java MolfileCreator 2.0

  0  0  0  0  0  0              0 V3000
M  V30 BEGIN CTAB
M  V30 COUNTS 23 23 0 0 0
M  V30 BEGIN ATOM
M  V30 1 O 0.0778 -0.7011 -3.5095 0
M  V30 2 C 0.3267 -0.3061 -2.3748 0
M  V30 3 N 1.4574 0.4201 -2.1448 0
M  V30 4 C -0.5831 -0.6002 -1.2208 0
M  V30 5 C -0.3634 -0.1802 0.1092 0
M  V30 6 C -1.7329 -1.3539 -1.525 0
M  V30 7 O 0.7666 0.5533 0.3744 0
M  V30 8 C -1.3019 -0.5281 1.0939 0
M  V30 9 C -2.6543 -1.6905 -0.5351 0
M  V30 10 C 0.9949 0.9811 1.7175 0
M  V30 11 C -2.4377 -1.2771 0.7731 0
M  V30 12 C 2.2955 1.7642 1.7403 0
M  V30 13 H 1.6865 0.7582 -1.218 0
M  V30 14 H 2.0714 0.6192 -2.9209 0
M  V30 15 H -1.9143 -1.684 -2.5471 0
M  V30 16 H -1.1825 -0.2317 2.1312 0
M  V30 17 H -3.5364 -2.2731 -0.7888 0
M  V30 18 H 1.0884 0.1148 2.3822 0
M  V30 19 H 0.1802 1.633 2.0529 0
M  V30 20 H -3.1539 -1.5372 1.5493 0
M  V30 21 H 2.5203 2.1178 2.7505 0
M  V30 22 H 3.1259 1.1423 1.3898 0
M  V30 23 H 2.2378 2.6267 1.0679 0
M  V30 END ATOM
M  V30 BEGIN BOND
M  V30 1 2 1 2
M  V30 2 1 2 3
M  V30 3 1 2 4
M  V30 4 2 4 5
M  V30 5 1 4 6
M  V30 6 1 5 7
M  V30 7 1 5 8
M  V30 8 2 6 9
M  V30 9 1 7 10
M  V30 10 2 8 11
M  V30 11 1 10 12
M  V30 12 1 9 11
M  V30 13 1 3 13
M  V30 14 1 3 14
M  V30 15 1 6 15
M  V30 16 1 8 16
M  V30 17 1 9 17
M  V30 18 1 10 18
M  V30 19 1 10 19
M  V30 20 1 11 20
M  V30 21 1 12 21
M  V30 22 1 12 22
M  V30 23 1 12 23
M  V30 END BOND
M  V30 END CTAB
M  END
>  <Column 1>
442

>  <level_0>
501

>  <index>
501

>  <Unnamed: 0>
501

>  <NO.>
504

>  <Name>
ethenzamide

>  <IUPAC_name>
2-ethoxybenzamide

>  <SMILES>
CCOc1ccccc1C(N)=O

>  <CID>
3282

>  <logBB>
-0.05

>  <BBB+/BBB->
BBB+

>  <Inchi>
InChI=1S/C9H11NO2/c1-2-12-8-6-4-3-5-7(8)9(10)11/h3-6H-2H2-1H3-(H2-10-11)

>  <threshold>


>  <reference>
R8|R21|R27|R43|R46|R47|R27|R2|R2|R25|R40|R41|R3|R38|

>  <group>
A

>  <Class>
1

>  <ABC>
8.62

>  <ABCGG>
8.27

>  <nAcid>
0

>  <nBase>
0

>  <nAromAtom>
6

>  <nAromBond>
6

>  <nAtom>
23

>  <nHeavyAtom>
12

>  <nSpiro>
0

>  <nBridgehead>
0

>  <nHetero>
3

>  <nN>
1

>  <nO>
2

>  <nF>
0

>  <BalabanJ>
2.42

>  <BertzCT>
283.61

>  <nBonds>
23

>  <nBondsO>
12

>  <nBondsS>
16

>  <nBondsD>
1

>  <nBondsT>
0

>  <nBondsA>
6

>  <nBondsM>
7

>  <nBondsKS>
19

>  <nBondsKD>
4

>  <RNCG>
0.37

>  <RPCG>
0.19

>  <FCSP3>
0.22

>  <SZ>
14.67

>  <Sm>
13.75

>  <Sv>
14.17

>  <Sse>
23.21

>  <Sp>
15.01

>  <Si>
25.99

>  <MZ>
0.64

>  <Mm>
0.6

>  <Mv>
0.62

>  <Mse>
1.01

>  <Mp>
0.65

>  <Mi>
1.13

>  <NsCH3>
1

>  <NdCH2>
0

>  <NssCH2>
1

>  <NtCH>
0

>  <NdsCH>
0

>  <NaaCH>
4

>  <NsssCH>
0

>  <NddC>
0

>  <NtsC>
0

>  <NdssC>
1

>  <NaasC>
2

>  <NaaaC>
0

>  <NssssC>
0

>  <NsNH3>
0

>  <NsNH2>
1

>  <NssNH2>
0

>  <NdNH>
0

>  <NssNH>
0

>  <NaaNH>
0

>  <NtN>
0

>  <NsssNH>
0

>  <NdsN>
0

>  <NaaN>
0

>  <NsssN>
0

>  <NddsN>
0

>  <NaasN>
0

>  <NssssN>
0

>  <NsOH>
0

>  <NdO>
1

>  <NssO>
1

>  <NaaO>
0

>  <NsF>
0

>  <NsSiH3>
0

>  <NssSiH2>
0

>  <NsssSiH>
0

>  <NssssSi>
0

>  <NsPH2>
0

>  <NssPH>
0

>  <NsssP>
0

>  <NdsssP>
0

>  <NsssssP>
0

>  <NsSH>
0

>  <NdS>
0

>  <NssS>
0

>  <NaaS>
0

>  <NdssS>
0

>  <NddssS>
0

>  <NsCl>
0

>  <NsBr>
0

>  <NsI>
0

>  <fragCpx>
12.03

>  <fMF>
0.26

>  <nHBAcc>
2

>  <nHBDon>
1

>  <Kier1>
10.08

>  <Kier2>
4.89

>  <Lipinski>
1

>  <GhoseFilter>
1

>  <FilterItLogS>
-1.91

>  <VMcGowan>
131.33

>  <LabuteASA>
71.14

>  <PEOE_VSA1>
10.47

>  <PEOE_VSA2>
4.79

>  <PEOE_VSA3>
0

>  <PEOE_VSA4>
0

>  <PEOE_VSA5>
0

>  <PEOE_VSA6>
12.13

>  <PEOE_VSA7>
19.06

>  <PEOE_VSA8>
0

>  <PEOE_VSA9>
12.17

>  <PEOE_VSA10>
5.75

>  <PEOE_VSA11>
0

>  <PEOE_VSA12>
0

>  <PEOE_VSA13>
5.91

>  <SMR_VSA1>
9.53

>  <SMR_VSA2>
0

>  <SMR_VSA3>
0

>  <SMR_VSA4>
5.73

>  <SMR_VSA5>
6.92

>  <SMR_VSA6>
6.61

>  <SMR_VSA7>
29.83

>  <SMR_VSA8>
0

>  <SMR_VSA9>
5.75

>  <SlogP_VSA1>
10.47

>  <SlogP_VSA2>
12.51

>  <SlogP_VSA3>
0

>  <SlogP_VSA4>
0

>  <SlogP_VSA5>
17.28

>  <SlogP_VSA6>
24.27

>  <SlogP_VSA7>
0

>  <SlogP_VSA8>
0

>  <SlogP_VSA9>
0

>  <SlogP_VSA10>
0

>  <SlogP_VSA11>
5.75

>  <EState_VSA1>
5.91

>  <EState_VSA2>
0

>  <EState_VSA3>
17.92

>  <EState_VSA4>
0

>  <EState_VSA5>
0

>  <EState_VSA6>
24.27

>  <EState_VSA7>
6.92

>  <EState_VSA8>
0

>  <EState_VSA9>
10.47

>  <EState_VSA10>
4.79

>  <VSA_EState1>
5.2

>  <VSA_EState2>
10.84

>  <VSA_EState3>
0

>  <VSA_EState4>
5.56

>  <VSA_EState5>
0.09

>  <VSA_EState6>
6.93

>  <VSA_EState7>
0

>  <VSA_EState8>
2.39

>  <VSA_EState9>
0

>  <apol>
25.07

>  <bpol>
13.07

>  <nRing>
1

>  <nHRing>
0

>  <naRing>
1

>  <naHRing>
0

>  <nARing 2>
0

>  <nAHRing 2>
0

>  <nFRing>
0

>  <nFHRing>
0

>  <nFaRing>
0

>  <nFaHRing>
0

>  <nFARing 2>
0

>  <nFAHRing 2>
0

>  <nRot>
3

>  <SLogP>
1.18

>  <SMR>
46.13

>  <TopoPSA(NO)>
52.32

>  <TopoPSA>
52.32

>  <JGI1>
0.17

>  <JGI2>
0.09

>  <JGI3>
0.06

>  <JGI4>
0.04

>  <JGI5>
0.04

>  <Diameter>
6

>  <Radius>
3

>  <TMWC10>
89.53

>  <TSRW10>
42.05

>  <MW>
165.08

>  <AMW>
7.18

>  <WPath>
197

>  <WPol>
15

>  <Zagreb1>
54

>  <Zagreb2>
60

>  <mZagreb2>
2.89

>  <yes>


>  <nAR-cont>
0.336376

>  <nHA-cont>
0.785745021

>  <MWHBN>
0.233493086

>  <MWHBN-cont>
0.983047463

>  <TPSA-cont>
0.634773911

>  <pka_cont>
0.97

>  <yes.1>


>  <BBB_SCORE>
4.351240038

>  <MMFF94 Energy>
14.031

$$$$
Compound 356
Actelion Java MolfileCreator 2.0

  0  0  0  0  0  0              0 V3000
M  V30 BEGIN CTAB
M  V30 COUNTS 26 27 0 0 0
M  V30 BEGIN ATOM
M  V30 1 F 3.1823 2.386 -0.8743 0
M  V30 2 C 2.1393 1.5573 -0.7586 0
M  V30 3 C 1.271 1.5162 0.439 0
M  V30 4 C 1.6689 0.6736 -1.6449 0
M  V30 5 O 1.4355 2.1827 1.4472 0
M  V30 6 N 0.3016 0.5429 0.146 0
M  V30 7 N 0.5422 0.0161 -1.1489 0
M  V30 8 C 2.2194 0.4232 -3.0039 0
M  V30 9 C -0.518 -0.0935 1.0943 0
M  V30 10 C -0.5953 -0.3776 -1.9689 0
M  V30 11 C -1.2638 0.6741 1.9953 0
M  V30 12 C -0.5833 -1.4903 1.1691 0
M  V30 13 C -2.0795 0.054 2.9446 0
M  V30 14 C -1.3992 -2.1098 2.1185 0
M  V30 15 C -2.1492 -1.3369 3.0035 0
M  V30 16 H 1.4926 0.7013 -3.7736 0
M  V30 17 H 3.1317 1.0023 -3.1814 0
M  V30 18 H 2.4676 -0.6359 -3.1258 0
M  V30 19 H -1.1408 0.5072 -2.3143 0
M  V30 20 H -1.295 -1.0206 -1.4284 0
M  V30 21 H -0.26 -0.9404 -2.8464 0
M  V30 22 H -1.2125 1.7603 1.9675 0
M  V30 23 H 0.0143 -2.1041 0.5004 0
M  V30 24 H -2.6538 0.6587 3.642 0
M  V30 25 H -1.4416 -3.1944 2.1734 0
M  V30 26 H -2.7802 -1.818 3.7466 0
M  V30 END ATOM
M  V30 BEGIN BOND
M  V30 1 1 1 2
M  V30 2 1 2 3
M  V30 3 2 2 4
M  V30 4 2 3 5
M  V30 5 1 3 6
M  V30 6 1 4 7
M  V30 7 1 4 8
M  V30 8 1 6 9
M  V30 9 1 7 10
M  V30 10 2 9 11
M  V30 11 1 9 12
M  V30 12 1 11 13
M  V30 13 2 12 14
M  V30 14 2 13 15
M  V30 15 1 6 7
M  V30 16 1 14 15
M  V30 17 1 8 16
M  V30 18 1 8 17
M  V30 19 1 8 18
M  V30 20 1 10 19
M  V30 21 1 10 20
M  V30 22 1 10 21
M  V30 23 1 11 22
M  V30 24 1 12 23
M  V30 25 1 13 24
M  V30 26 1 14 25
M  V30 27 1 15 26
M  V30 END BOND
M  V30 END CTAB
M  END
>  <Column 1>
443

>  <level_0>
502

>  <index>
502

>  <Unnamed: 0>
502

>  <NO.>
505

>  <Name>
56924-65-3

>  <IUPAC_name>
4-(18f)fluoranyl-1-5-dimethyl-2-phenylpyrazol-3-one

>  <SMILES>
Cc1c(F)c(=O)n(-c2ccccc2)n1C

>  <CID>
12718749

>  <logBB>
-0.05

>  <BBB+/BBB->
BBB+

>  <Inchi>
InChI=1S/C11H11FN2O/c1-8-10(12)11(15)14(13(8)2)9-6-4-3-5-7-9/h3-7H-1-2H3

>  <threshold>


>  <reference>
R8|R2|R2|R27|R40|R3|R25|R38|R41|R46|

>  <group>
A

>  <Class>
1

>  <ABC>
11.51

>  <ABCGG>
10.77

>  <nAcid>
0

>  <nBase>
0

>  <nAromAtom>
11

>  <nAromBond>
11

>  <nAtom>
26

>  <nHeavyAtom>
15

>  <nSpiro>
0

>  <nBridgehead>
0

>  <nHetero>
4

>  <nN>
2

>  <nO>
1

>  <nF>
1

>  <BalabanJ>
2.07

>  <BertzCT>
539.71

>  <nBonds>
27

>  <nBondsO>
16

>  <nBondsS>
15

>  <nBondsD>
1

>  <nBondsT>
0

>  <nBondsA>
11

>  <nBondsM>
12

>  <nBondsKS>
22

>  <nBondsKD>
5

>  <RNCG>
0.23

>  <RPCG>
0.25

>  <FCSP3>
0.18

>  <SZ>
18

>  <Sm>
17.17

>  <Sv>
16.86

>  <Sse>
26.5

>  <Sp>
17.52

>  <Si>
29.62

>  <MZ>
0.69

>  <Mm>
0.66

>  <Mv>
0.65

>  <Mse>
1.02

>  <Mp>
0.67

>  <Mi>
1.14

>  <NsCH3>
2

>  <NdCH2>
0

>  <NssCH2>
0

>  <NtCH>
0

>  <NdsCH>
0

>  <NaaCH>
5

>  <NsssCH>
0

>  <NddC>
0

>  <NtsC>
0

>  <NdssC>
0

>  <NaasC>
3

>  <NaaaC>
0

>  <NssssC>
0

>  <NsNH3>
0

>  <NsNH2>
0

>  <NssNH2>
0

>  <NdNH>
0

>  <NssNH>
0

>  <NaaNH>
0

>  <NtN>
0

>  <NsssNH>
0

>  <NdsN>
0

>  <NaaN>
0

>  <NsssN>
0

>  <NddsN>
0

>  <NaasN>
2

>  <NssssN>
0

>  <NsOH>
0

>  <NdO>
1

>  <NssO>
0

>  <NaaO>
0

>  <NsF>
1

>  <NsSiH3>
0

>  <NssSiH2>
0

>  <NsssSiH>
0

>  <NssssSi>
0

>  <NsPH2>
0

>  <NssPH>
0

>  <NsssP>
0

>  <NdsssP>
0

>  <NsssssP>
0

>  <NsSH>
0

>  <NdS>
0

>  <NssS>
0

>  <NaaS>
0

>  <NdssS>
0

>  <NddssS>
0

>  <NsCl>
0

>  <NsBr>
0

>  <NsI>
0

>  <fragCpx>
46.04

>  <fMF>
0.42

>  <nHBAcc>
3

>  <nHBDon>
0

>  <Kier1>
11.48

>  <Kier2>
4.47

>  <Lipinski>
1

>  <GhoseFilter>
1

>  <FilterItLogS>
-2.31

>  <VMcGowan>
150.22

>  <LabuteASA>
86.36

>  <PEOE_VSA1>
0

>  <PEOE_VSA2>
9.48

>  <PEOE_VSA3>
4.68

>  <PEOE_VSA4>
4.39

>  <PEOE_VSA5>
0

>  <PEOE_VSA6>
18.2

>  <PEOE_VSA7>
19.06

>  <PEOE_VSA8>
7.05

>  <PEOE_VSA9>
11.38

>  <PEOE_VSA10>
0

>  <PEOE_VSA11>
0

>  <PEOE_VSA12>
5.82

>  <PEOE_VSA13>
0

>  <SMR_VSA1>
4.39

>  <SMR_VSA2>
0

>  <SMR_VSA3>
9.36

>  <SMR_VSA4>
7.05

>  <SMR_VSA5>
6.92

>  <SMR_VSA6>
0

>  <SMR_VSA7>
52.2

>  <SMR_VSA8>
0

>  <SMR_VSA9>
5.69

>  <SlogP_VSA1>
5.56

>  <SlogP_VSA2>
9.36

>  <SlogP_VSA3>
7.05

>  <SlogP_VSA4>
12.74

>  <SlogP_VSA5>
5.69

>  <SlogP_VSA6>
35.13

>  <SlogP_VSA7>
0

>  <SlogP_VSA8>
5.69

>  <SlogP_VSA9>
0

>  <SlogP_VSA10>
4.39

>  <SlogP_VSA11>
0

>  <EState_VSA1>
11.38

>  <EState_VSA2>
0

>  <EState_VSA3>
11.38

>  <EState_VSA4>
0

>  <EState_VSA5>
9.36

>  <EState_VSA6>
26.1

>  <EState_VSA7>
18.2

>  <EState_VSA8>
0

>  <EState_VSA9>
0

>  <EState_VSA10>
9.18

>  <VSA_EState1>
16.16

>  <VSA_EState2>
11.58

>  <VSA_EState3>
0

>  <VSA_EState4>
0.39

>  <VSA_EState5>
-0.69

>  <VSA_EState6>
8.99

>  <VSA_EState7>
0

>  <VSA_EState8>
1.58

>  <VSA_EState9>
1.66

>  <apol>
29.26

>  <bpol>
15.3

>  <nRing>
2

>  <nHRing>
1

>  <naRing>
2

>  <naHRing>
1

>  <nARing 2>
0

>  <nAHRing 2>
0

>  <nFRing>
0

>  <nFHRing>
0

>  <nFaRing>
0

>  <nFaHRing>
0

>  <nFARing 2>
0

>  <nFAHRing 2>
0

>  <nRot>
1

>  <SLogP>
1.62

>  <SMR>
55.71

>  <TopoPSA(NO)>
26.93

>  <TopoPSA>
26.93

>  <JGI1>
0.16

>  <JGI2>
0.1

>  <JGI3>
0.09

>  <JGI4>
0.04

>  <JGI5>
0.03

>  <Diameter>
7

>  <Radius>
4

>  <TMWC10>
102.41

>  <TSRW10>
61.88

>  <MW>
206.09

>  <AMW>
7.93

>  <WPath>
338

>  <WPol>
24

>  <Zagreb1>
78

>  <Zagreb2>
94

>  <mZagreb2>
3.33

>  <yes>


>  <nAR-cont>
0.336376

>  <nHA-cont>
0.92539861

>  <MWHBN>
0.20897426

>  <MWHBN-cont>
0.999538723

>  <TPSA-cont>
0.812011877

>  <pka_cont>
0.97

>  <yes.1>


>  <BBB_SCORE>
4.87010645

>  <MMFF94 Energy>
90.5

$$$$
Compound 357
Actelion Java MolfileCreator 2.0

  0  0  0  0  0  0              0 V3000
M  V30 BEGIN CTAB
M  V30 COUNTS 26 27 0 0 0
M  V30 BEGIN ATOM
M  V30 1 F -1.1913 -5.0907 -0.1587 0
M  V30 2 C -0.921 -3.7893 0.0068 0
M  V30 3 C -1.0658 -2.9186 -1.0668 0
M  V30 4 C -0.5051 -3.3288 1.2505 0
M  V30 5 C -0.7838 -1.5616 -0.8948 0
M  V30 6 C -0.2229 -1.9718 1.4232 0
M  V30 7 C -0.3506 -1.0808 0.3493 0
M  V30 8 N -0.0683 0.2828 0.5388 0
M  V30 9 N 0.4646 1.1098 -0.4679 0
M  V30 10 C -0.6258 1.087 1.535 0
M  V30 11 C 0.2236 2.4224 -0.074 0
M  V30 12 C 1.6667 0.68 -1.1687 0
M  V30 13 O -1.215 0.7829 2.5589 0
M  V30 14 C -0.4195 2.4895 1.1015 0
M  V30 15 C 0.674 3.5935 -0.8785 0
M  V30 16 H -1.4042 -3.2981 -2.0253 0
M  V30 17 H -0.4088 -4.0236 2.0786 0
M  V30 18 H -0.9203 -0.8784 -1.7293 0
M  V30 19 H 0.0931 -1.6133 2.4006 0
M  V30 20 H 1.8398 1.3023 -2.053 0
M  V30 21 H 1.598 -0.3539 -1.5172 0
M  V30 22 H 2.5403 0.7617 -0.5128 0
M  V30 23 H -0.7388 3.3442 1.6672 0
M  V30 24 H 1.7661 3.6206 -0.9453 0
M  V30 25 H 0.343 4.5377 -0.433 0
M  V30 26 H 0.2636 3.5408 -1.892 0
M  V30 END ATOM
M  V30 BEGIN BOND
M  V30 1 1 1 2
M  V30 2 2 2 3
M  V30 3 1 2 4
M  V30 4 1 3 5
M  V30 5 2 4 6
M  V30 6 2 5 7
M  V30 7 1 7 8
M  V30 8 1 8 9
M  V30 9 1 8 10
M  V30 10 1 9 11
M  V30 11 1 9 12
M  V30 12 2 10 13
M  V30 13 1 10 14
M  V30 14 1 11 15
M  V30 15 1 6 7
M  V30 16 2 11 14
M  V30 17 1 3 16
M  V30 18 1 4 17
M  V30 19 1 5 18
M  V30 20 1 6 19
M  V30 21 1 12 20
M  V30 22 1 12 21
M  V30 23 1 12 22
M  V30 24 1 14 23
M  V30 25 1 15 24
M  V30 26 1 15 25
M  V30 27 1 15 26
M  V30 END BOND
M  V30 END CTAB
M  END
>  <Column 1>
444

>  <level_0>
503

>  <index>
503

>  <Unnamed: 0>
503

>  <NO.>
506

>  <Name>
4-fluoroantipyrine

>  <IUPAC_name>
2-(4-fluorophenyl)-1-5-dimethylpyrazol-3-one

>  <SMILES>
Cc1cc(=O)n(-c2ccc(F)cc2)n1C

>  <CID>
94957

>  <logBB>
-0.05

>  <BBB+/BBB->
BBB+

>  <Inchi>
InChI=1S/C11H11FN2O/c1-8-7-11(15)14(13(8)2)10-5-3-9(12)4-6-10/h3-7H-1-2H3

>  <threshold>


>  <reference>
R2|R2|R8|R27|R21|R27|R43|R47|

>  <group>
A

>  <Class>
1

>  <ABC>
11.59

>  <ABCGG>
10.61

>  <nAcid>
0

>  <nBase>
0

>  <nAromAtom>
11

>  <nAromBond>
11

>  <nAtom>
26

>  <nHeavyAtom>
15

>  <nSpiro>
0

>  <nBridgehead>
0

>  <nHetero>
4

>  <nN>
2

>  <nO>
1

>  <nF>
1

>  <BalabanJ>
1.98

>  <BertzCT>
536.71

>  <nBonds>
27

>  <nBondsO>
16

>  <nBondsS>
15

>  <nBondsD>
1

>  <nBondsT>
0

>  <nBondsA>
11

>  <nBondsM>
12

>  <nBondsKS>
22

>  <nBondsKD>
5

>  <RNCG>
0.26

>  <RPCG>
0.24

>  <FCSP3>
0.18

>  <SZ>
18

>  <Sm>
17.17

>  <Sv>
16.86

>  <Sse>
26.5

>  <Sp>
17.52

>  <Si>
29.62

>  <MZ>
0.69

>  <Mm>
0.66

>  <Mv>
0.65

>  <Mse>
1.02

>  <Mp>
0.67

>  <Mi>
1.14

>  <NsCH3>
2

>  <NdCH2>
0

>  <NssCH2>
0

>  <NtCH>
0

>  <NdsCH>
0

>  <NaaCH>
5

>  <NsssCH>
0

>  <NddC>
0

>  <NtsC>
0

>  <NdssC>
0

>  <NaasC>
3

>  <NaaaC>
0

>  <NssssC>
0

>  <NsNH3>
0

>  <NsNH2>
0

>  <NssNH2>
0

>  <NdNH>
0

>  <NssNH>
0

>  <NaaNH>
0

>  <NtN>
0

>  <NsssNH>
0

>  <NdsN>
0

>  <NaaN>
0

>  <NsssN>
0

>  <NddsN>
0

>  <NaasN>
2

>  <NssssN>
0

>  <NsOH>
0

>  <NdO>
1

>  <NssO>
0

>  <NaaO>
0

>  <NsF>
1

>  <NsSiH3>
0

>  <NssSiH2>
0

>  <NsssSiH>
0

>  <NssssSi>
0

>  <NsPH2>
0

>  <NssPH>
0

>  <NsssP>
0

>  <NdsssP>
0

>  <NsssssP>
0

>  <NsSH>
0

>  <NdS>
0

>  <NssS>
0

>  <NaaS>
0

>  <NdssS>
0

>  <NddssS>
0

>  <NsCl>
0

>  <NsBr>
0

>  <NsI>
0

>  <fragCpx>
46.04

>  <fMF>
0.42

>  <nHBAcc>
3

>  <nHBDon>
0

>  <Kier1>
11.48

>  <Kier2>
4.47

>  <Lipinski>
1

>  <GhoseFilter>
1

>  <FilterItLogS>
-2.31

>  <VMcGowan>
150.22

>  <LabuteASA>
86.36

>  <PEOE_VSA1>
0

>  <PEOE_VSA2>
9.48

>  <PEOE_VSA3>
9.07

>  <PEOE_VSA4>
0

>  <PEOE_VSA5>
0

>  <PEOE_VSA6>
0

>  <PEOE_VSA7>
31.19

>  <PEOE_VSA8>
18.81

>  <PEOE_VSA9>
5.69

>  <PEOE_VSA10>
5.82

>  <PEOE_VSA11>
0

>  <PEOE_VSA12>
0

>  <PEOE_VSA13>
5.56

>  <SMR_VSA1>
4.39

>  <SMR_VSA2>
0

>  <SMR_VSA3>
9.36

>  <SMR_VSA4>
7.05

>  <SMR_VSA5>
6.92

>  <SMR_VSA6>
0

>  <SMR_VSA7>
52.2

>  <SMR_VSA8>
0

>  <SMR_VSA9>
5.69

>  <SlogP_VSA1>
5.56

>  <SlogP_VSA2>
9.36

>  <SlogP_VSA3>
7.05

>  <SlogP_VSA4>
12.74

>  <SlogP_VSA5>
5.69

>  <SlogP_VSA6>
35.13

>  <SlogP_VSA7>
0

>  <SlogP_VSA8>
5.69

>  <SlogP_VSA9>
0

>  <SlogP_VSA10>
4.39

>  <SlogP_VSA11>
0

>  <EState_VSA1>
0

>  <EState_VSA2>
11.38

>  <EState_VSA3>
5.69

>  <EState_VSA4>
5.69

>  <EState_VSA5>
16.81

>  <EState_VSA6>
29.93

>  <EState_VSA7>
6.92

>  <EState_VSA8>
0

>  <EState_VSA9>
0

>  <EState_VSA10>
9.18

>  <VSA_EState1>
15.94

>  <VSA_EState2>
11.59

>  <VSA_EState3>
0

>  <VSA_EState4>
1.42

>  <VSA_EState5>
-0.31

>  <VSA_EState6>
7.38

>  <VSA_EState7>
0

>  <VSA_EState8>
1.85

>  <VSA_EState9>
1.79

>  <apol>
29.26

>  <bpol>
15.3

>  <nRing>
2

>  <nHRing>
1

>  <naRing>
2

>  <naHRing>
1

>  <nARing 2>
0

>  <nAHRing 2>
0

>  <nFRing>
0

>  <nFHRing>
0

>  <nFaRing>
0

>  <nFaHRing>
0

>  <nFARing 2>
0

>  <nFAHRing 2>
0

>  <nRot>
1

>  <SLogP>
1.62

>  <SMR>
55.71

>  <TopoPSA(NO)>
26.93

>  <TopoPSA>
26.93

>  <JGI1>
0.22

>  <JGI2>
0.1

>  <JGI3>
0.08

>  <JGI4>
0.05

>  <JGI5>
0.03

>  <Diameter>
8

>  <Radius>
4

>  <TMWC10>
101.86

>  <TSRW10>
61.46

>  <MW>
206.09

>  <AMW>
7.93

>  <WPath>
352

>  <WPol>
22

>  <Zagreb1>
78

>  <Zagreb2>
92

>  <mZagreb2>
3.28

>  <yes>


>  <nAR-cont>
0.336376

>  <nHA-cont>
0.92539861

>  <MWHBN>
0.20897426

>  <MWHBN-cont>
0.999538723

>  <TPSA-cont>
0.812011877

>  <pka_cont>
0.97

>  <yes.1>


>  <BBB_SCORE>
4.87010645

>  <MMFF94 Energy>
58.501

$$$$
Compound 358
Actelion Java MolfileCreator 2.0

  0  0  0  0  0  0              0 V3000
M  V30 BEGIN CTAB
M  V30 COUNTS 28 30 0 0 0
M  V30 BEGIN ATOM
M  V30 1 Br 3.032 4.1811 0.0818 0
M  V30 2 C 2.1529 2.567 -0.2378 0
M  V30 3 C 1.3373 1.9518 0.865 0
M  V30 4 C 2.2355 1.9359 -1.4168 0
M  V30 5 O 1.2621 2.4845 1.9722 0
M  V30 6 N 0.6851 0.7431 0.5585 0
M  V30 7 C 1.5472 0.6952 -1.6504 0
M  V30 8 C 0.7917 0.132 -0.6931 0
M  V30 9 C -0.0339 0.1065 1.6678 0
M  V30 10 C 0.0365 -1.1609 -0.956 0
M  V30 11 C -0.84 -1.1556 1.3346 0
M  V30 12 C -1.3885 -0.8679 -1.4816 0
M  V30 13 C -0.0617 -1.9894 0.3232 0
M  V30 14 C -2.2423 -0.8314 0.7841 0
M  V30 15 N -2.2357 -0.1533 -0.5151 0
M  V30 16 H 2.8186 2.3476 -2.2347 0
M  V30 17 H 1.6464 0.2445 -2.6339 0
M  V30 18 H -0.6747 0.8559 2.1499 0
M  V30 19 H 0.7338 -0.1571 2.4083 0
M  V30 20 H 0.5695 -1.7536 -1.7107 0
M  V30 21 H -0.9739 -1.7322 2.2585 0
M  V30 22 H -1.3365 -0.2745 -2.4023 0
M  V30 23 H -1.8799 -1.8107 -1.7534 0
M  V30 24 H 0.9346 -2.2398 0.7083 0
M  V30 25 H -0.5791 -2.9367 0.1282 0
M  V30 26 H -2.7883 -0.2076 1.5015 0
M  V30 27 H -2.818 -1.7609 0.6905 0
M  V30 28 H -1.8518 0.7861 -0.3886 0
M  V30 END ATOM
M  V30 BEGIN BOND
M  V30 1 1 1 2
M  V30 2 1 2 3
M  V30 3 2 2 4
M  V30 4 2 3 5
M  V30 5 1 3 6
M  V30 6 1 4 7
M  V30 7 1 6 8
M  V30 8 1 6 9
M  V30 9 1 8 10
M  V30 10 1 9 11
M  V30 11 1 10 12
M  V30 12 1 10 13
M  V30 13 1 11 14
M  V30 14 1 12 15
M  V30 15 2 7 8
M  V30 16 1 11 13
M  V30 17 1 14 15
M  V30 18 1 4 16
M  V30 19 1 7 17
M  V30 20 1 9 18
M  V30 21 1 9 19
M  V30 22 1 10 20
M  V30 23 1 11 21
M  V30 24 1 12 22
M  V30 25 1 12 23
M  V30 26 1 13 24
M  V30 27 1 13 25
M  V30 28 1 14 26
M  V30 29 1 14 27
M  V30 30 1 15 28
M  V30 END BOND
M  V30 END CTAB
M  END
>  <Column 1>
445

>  <level_0>
504

>  <index>
504

>  <Unnamed: 0>
504

>  <NO.>
507

>  <Name>
bromocytisine

>  <IUPAC_name>
5-bromo-7-11-diazatricyclo[7.3.1.02-7]trideca-2-4-dien-6-one

>  <SMILES>
O=c1c(Br)ccc2n1CC1CNCC2C1

>  <CID>
9807561

>  <logBB>
-0.05

>  <BBB+/BBB->
BBB+

>  <Inchi>
InChI=1S/C11H13BrN2O/c12-9-1-2-10-8-3-7(4-13-5-8)6-14(10)11(9)15/h1-2-7-8-13H-3-6H2

>  <threshold>


>  <reference>
R2|R2|R8|R27|R40|R43|R47|R4|

>  <group>
A

>  <Class>
1

>  <ABC>
12.08

>  <ABCGG>
9.76

>  <nAcid>
0

>  <nBase>
1

>  <nAromAtom>
6

>  <nAromBond>
6

>  <nAtom>
28

>  <nHeavyAtom>
15

>  <nSpiro>
0

>  <nBridgehead>
2

>  <nHetero>
4

>  <nN>
2

>  <nO>
1

>  <nF>
0

>  <BalabanJ>
1.8

>  <BertzCT>
454.39

>  <nBonds>
30

>  <nBondsO>
17

>  <nBondsS>
23

>  <nBondsD>
1

>  <nBondsT>
0

>  <nBondsA>
6

>  <nBondsM>
7

>  <nBondsKS>
27

>  <nBondsKD>
3

>  <RNCG>
0.3

>  <RPCG>
0.25

>  <FCSP3>
0.55

>  <SZ>
22.67

>  <Sm>
22.41

>  <Sv>
18.04

>  <Sse>
28.1

>  <Sp>
19.81

>  <Si>
31.54

>  <MZ>
0.81

>  <Mm>
0.8

>  <Mv>
0.64

>  <Mse>
1

>  <Mp>
0.71

>  <Mi>
1.13

>  <NsCH3>
0

>  <NdCH2>
0

>  <NssCH2>
4

>  <NtCH>
0

>  <NdsCH>
0

>  <NaaCH>
2

>  <NsssCH>
2

>  <NddC>
0

>  <NtsC>
0

>  <NdssC>
0

>  <NaasC>
2

>  <NaaaC>
0

>  <NssssC>
0

>  <NsNH3>
0

>  <NsNH2>
0

>  <NssNH2>
0

>  <NdNH>
0

>  <NssNH>
1

>  <NaaNH>
0

>  <NtN>
0

>  <NsssNH>
0

>  <NdsN>
0

>  <NaaN>
0

>  <NsssN>
0

>  <NddsN>
0

>  <NaasN>
1

>  <NssssN>
0

>  <NsOH>
0

>  <NdO>
1

>  <NssO>
0

>  <NaaO>
0

>  <NsF>
0

>  <NsSiH3>
0

>  <NssSiH2>
0

>  <NsssSiH>
0

>  <NssssSi>
0

>  <NsPH2>
0

>  <NssPH>
0

>  <NsssP>
0

>  <NdsssP>
0

>  <NsssssP>
0

>  <NsSH>
0

>  <NdS>
0

>  <NssS>
0

>  <NaaS>
0

>  <NdssS>
0

>  <NddssS>
0

>  <NsCl>
0

>  <NsBr>
1

>  <NsI>
0

>  <fragCpx>
79.04

>  <fMF>
0.46

>  <nHBAcc>
3

>  <nHBDon>
1

>  <Kier1>
10.17

>  <Kier2>
3.79

>  <Lipinski>
1

>  <GhoseFilter>
1

>  <FilterItLogS>
-2.91

>  <VMcGowan>
163.7

>  <LabuteASA>
96.62

>  <PEOE_VSA1>
9.88

>  <PEOE_VSA2>
4.79

>  <PEOE_VSA3>
0

>  <PEOE_VSA4>
0

>  <PEOE_VSA5>
0

>  <PEOE_VSA6>
0

>  <PEOE_VSA7>
46.95

>  <PEOE_VSA8>
24.7

>  <PEOE_VSA9>
4.47

>  <PEOE_VSA10>
0

>  <PEOE_VSA11>
0

>  <PEOE_VSA12>
0

>  <PEOE_VSA13>
5.56

>  <SMR_VSA1>
0

>  <SMR_VSA2>
0

>  <SMR_VSA3>
9.88

>  <SMR_VSA4>
5.92

>  <SMR_VSA5>
18.88

>  <SMR_VSA6>
13.09

>  <SMR_VSA7>
32.65

>  <SMR_VSA8>
0

>  <SMR_VSA9>
0

>  <SlogP_VSA1>
10.88

>  <SlogP_VSA2>
17.66

>  <SlogP_VSA3>
6.54

>  <SlogP_VSA4>
5.92

>  <SlogP_VSA5>
18.03

>  <SlogP_VSA6>
21.4

>  <SlogP_VSA7>
0

>  <SlogP_VSA8>
0

>  <SlogP_VSA9>
0

>  <SlogP_VSA10>
0

>  <SlogP_VSA11>
0

>  <EState_VSA1>
0

>  <EState_VSA2>
5.56

>  <EState_VSA3>
16.31

>  <EState_VSA4>
19.63

>  <EState_VSA5>
12.11

>  <EState_VSA6>
0

>  <EState_VSA7>
10.63

>  <EState_VSA8>
27.31

>  <EState_VSA9>
0

>  <EState_VSA10>
4.79

>  <VSA_EState1>
2.63

>  <VSA_EState2>
11.94

>  <VSA_EState3>
3.43

>  <VSA_EState4>
1.33

>  <VSA_EState5>
1.15

>  <VSA_EState6>
3.96

>  <VSA_EState7>
1.23

>  <VSA_EState8>
2.93

>  <VSA_EState9>
0

>  <apol>
33.09

>  <bpol>
17.57

>  <nRing>
3

>  <nHRing>
3

>  <naRing>
1

>  <naHRing>
1

>  <nARing 2>
2

>  <nAHRing 2>
2

>  <nFRing>
1

>  <nFHRing>
1

>  <nFaRing>
0

>  <nFaHRing>
0

>  <nFARing 2>
1

>  <nFAHRing 2>
1

>  <nRot>
0

>  <SLogP>
1.32

>  <SMR>
62.12

>  <TopoPSA(NO)>
34.03

>  <TopoPSA>
34.03

>  <JGI1>
0.18

>  <JGI2>
0.08

>  <JGI3>
0.04

>  <JGI4>
0.05

>  <JGI5>
0.03

>  <Diameter>
7

>  <Radius>
4

>  <TMWC10>
104.3

>  <TSRW10>
48

>  <MW>
268.02

>  <AMW>
9.57

>  <WPath>
320

>  <WPol>
26

>  <Zagreb1>
84

>  <Zagreb2>
102

>  <mZagreb2>
3.19

>  <yes>


>  <nAR-cont>
1

>  <nHA-cont>
0.92539861

>  <MWHBN>
0.244329772

>  <MWHBN-cont>
0.968794205

>  <TPSA-cont>
0.762449469

>  <pka_cont>
0.97

>  <yes.1>


>  <BBB_SCORE>
5.388488856

>  <MMFF94 Energy>
46.449

$$$$
Compound 359
Actelion Java MolfileCreator 2.0

  0  0  0  0  0  0              0 V3000
M  V30 BEGIN CTAB
M  V30 COUNTS 28 30 0 0 0
M  V30 BEGIN ATOM
M  V30 1 Br 3.4447 -0.2457 -1.8032 0
M  V30 2 C 1.7315 -0.6941 -0.9588 0
M  V30 3 N 0.7344 -0.8986 -2.0058 0
M  V30 4 C 1.3658 0.3546 0.1176 0
M  V30 5 C 0.1331 0.3346 -2.5027 0
M  V30 6 C 0.2719 -0.1972 1.0193 0
M  V30 7 C 0.8812 1.6597 -0.5154 0
M  V30 8 C -0.3091 1.3103 -1.3987 0
M  V30 9 N -1.0647 -0.023 0.6515 0
M  V30 10 C 0.574 -0.8427 2.1601 0
M  V30 11 C -1.4468 0.7473 -0.5339 0
M  V30 12 C -2.1211 -0.5239 1.4208 0
M  V30 13 C -0.4609 -1.3865 2.9979 0
M  V30 14 O -3.3116 -0.3868 1.1477 0
M  V30 15 C -1.7473 -1.2531 2.6595 0
M  V30 16 H 1.9384 -1.6604 -0.4847 0
M  V30 17 H 1.1619 -1.4157 -2.7725 0
M  V30 18 H 2.2506 0.5835 0.7268 0
M  V30 19 H 0.8421 0.845 -3.1665 0
M  V30 20 H -0.7298 0.0722 -3.1253 0
M  V30 21 H 0.5911 2.3857 0.255 0
M  V30 22 H 1.6735 2.1315 -1.1074 0
M  V30 23 H -0.6743 2.2185 -1.8947 0
M  V30 24 H 1.6023 -0.9902 2.4761 0
M  V30 25 H -2.0397 1.5936 -0.1594 0
M  V30 26 H -2.1365 0.1432 -1.1368 0
M  V30 27 H -0.174 -1.9123 3.9021 0
M  V30 28 H -2.5586 -1.6483 3.2558 0
M  V30 END ATOM
M  V30 BEGIN BOND
M  V30 1 1 1 2
M  V30 2 1 2 3
M  V30 3 1 2 4
M  V30 4 1 3 5
M  V30 5 1 4 6
M  V30 6 1 4 7
M  V30 7 1 5 8
M  V30 8 1 6 9
M  V30 9 2 6 10
M  V30 10 1 8 11
M  V30 11 1 9 12
M  V30 12 1 10 13
M  V30 13 2 12 14
M  V30 14 1 12 15
M  V30 15 1 7 8
M  V30 16 1 9 11
M  V30 17 2 13 15
M  V30 18 1 2 16
M  V30 19 1 3 17
M  V30 20 1 4 18
M  V30 21 1 5 19
M  V30 22 1 5 20
M  V30 23 1 7 21
M  V30 24 1 7 22
M  V30 25 1 8 23
M  V30 26 1 10 24
M  V30 27 1 11 25
M  V30 28 1 11 26
M  V30 29 1 13 27
M  V30 30 1 15 28
M  V30 END BOND
M  V30 END CTAB
M  END
>  <Column 1>
446

>  <level_0>
505

>  <index>
505

>  <Unnamed: 0>
505

>  <NO.>
508

>  <Name>
3-bromocytisine

>  <IUPAC_name>
12-bromo-7-11-diazatricyclo[7.3.1.02-7]trideca-2-4-dien-6-one

>  <SMILES>
O=c1cccc2n1CC1CNC(Br)C2C1

>  <CID>
75107290

>  <logBB>
-0.05

>  <BBB+/BBB->
BBB+

>  <Inchi>
InChI=1S/C11H13BrN2O/c12-11-8-4-7(5-13-11)6-14-9(8)2-1-3-10(14)15/h1-3-7-8-11-13H-4-6H2

>  <threshold>


>  <reference>
R2|R2|R27|R25|R27|R46|

>  <group>
A

>  <Class>
1

>  <ABC>
12.08

>  <ABCGG>
9.79

>  <nAcid>
0

>  <nBase>
1

>  <nAromAtom>
6

>  <nAromBond>
6

>  <nAtom>
28

>  <nHeavyAtom>
15

>  <nSpiro>
0

>  <nBridgehead>
2

>  <nHetero>
4

>  <nN>
2

>  <nO>
1

>  <nF>
0

>  <BalabanJ>
1.82

>  <BertzCT>
442.46

>  <nBonds>
30

>  <nBondsO>
17

>  <nBondsS>
23

>  <nBondsD>
1

>  <nBondsT>
0

>  <nBondsA>
6

>  <nBondsM>
7

>  <nBondsKS>
27

>  <nBondsKD>
3

>  <RNCG>
0.28

>  <RPCG>
0.23

>  <FCSP3>
0.55

>  <SZ>
22.67

>  <Sm>
22.41

>  <Sv>
18.04

>  <Sse>
28.1

>  <Sp>
19.81

>  <Si>
31.54

>  <MZ>
0.81

>  <Mm>
0.8

>  <Mv>
0.64

>  <Mse>
1

>  <Mp>
0.71

>  <Mi>
1.13

>  <NsCH3>
0

>  <NdCH2>
0

>  <NssCH2>
3

>  <NtCH>
0

>  <NdsCH>
0

>  <NaaCH>
3

>  <NsssCH>
3

>  <NddC>
0

>  <NtsC>
0

>  <NdssC>
0

>  <NaasC>
1

>  <NaaaC>
0

>  <NssssC>
0

>  <NsNH3>
0

>  <NsNH2>
0

>  <NssNH2>
0

>  <NdNH>
0

>  <NssNH>
1

>  <NaaNH>
0

>  <NtN>
0

>  <NsssNH>
0

>  <NdsN>
0

>  <NaaN>
0

>  <NsssN>
0

>  <NddsN>
0

>  <NaasN>
1

>  <NssssN>
0

>  <NsOH>
0

>  <NdO>
1

>  <NssO>
0

>  <NaaO>
0

>  <NsF>
0

>  <NsSiH3>
0

>  <NssSiH2>
0

>  <NsssSiH>
0

>  <NssssSi>
0

>  <NsPH2>
0

>  <NssPH>
0

>  <NsssP>
0

>  <NdsssP>
0

>  <NsssssP>
0

>  <NsSH>
0

>  <NdS>
0

>  <NssS>
0

>  <NaaS>
0

>  <NdssS>
0

>  <NddssS>
0

>  <NsCl>
0

>  <NsBr>
1

>  <NsI>
0

>  <fragCpx>
79.04

>  <fMF>
0.46

>  <nHBAcc>
3

>  <nHBDon>
1

>  <Kier1>
10.17

>  <Kier2>
3.79

>  <Lipinski>
1

>  <GhoseFilter>
1

>  <FilterItLogS>
-2.53

>  <VMcGowan>
163.7

>  <LabuteASA>
96.62

>  <PEOE_VSA1>
9.88

>  <PEOE_VSA2>
4.79

>  <PEOE_VSA3>
0

>  <PEOE_VSA4>
0

>  <PEOE_VSA5>
0

>  <PEOE_VSA6>
22

>  <PEOE_VSA7>
18.41

>  <PEOE_VSA8>
30.77

>  <PEOE_VSA9>
4.95

>  <PEOE_VSA10>
0

>  <PEOE_VSA11>
0

>  <PEOE_VSA12>
0

>  <PEOE_VSA13>
5.56

>  <SMR_VSA1>
0

>  <SMR_VSA2>
0

>  <SMR_VSA3>
9.88

>  <SMR_VSA4>
5.92

>  <SMR_VSA5>
23.83

>  <SMR_VSA6>
6.54

>  <SMR_VSA7>
34.25

>  <SMR_VSA8>
0

>  <SMR_VSA9>
0

>  <SlogP_VSA1>
10.88

>  <SlogP_VSA2>
16.06

>  <SlogP_VSA3>
6.54

>  <SlogP_VSA4>
5.92

>  <SlogP_VSA5>
18.03

>  <SlogP_VSA6>
22.99

>  <SlogP_VSA7>
0

>  <SlogP_VSA8>
0

>  <SlogP_VSA9>
0

>  <SlogP_VSA10>
0

>  <SlogP_VSA11>
0

>  <EState_VSA1>
0

>  <EState_VSA2>
5.56

>  <EState_VSA3>
16.79

>  <EState_VSA4>
13.09

>  <EState_VSA5>
12.11

>  <EState_VSA6>
6.07

>  <EState_VSA7>
10.63

>  <EState_VSA8>
27.31

>  <EState_VSA9>
0

>  <EState_VSA10>
4.79

>  <VSA_EState1>
1.94

>  <VSA_EState2>
12.04

>  <VSA_EState3>
3.45

>  <VSA_EState4>
1.32

>  <VSA_EState5>
1.04

>  <VSA_EState6>
5.59

>  <VSA_EState7>
1.19

>  <VSA_EState8>
1.88

>  <VSA_EState9>
0

>  <apol>
33.09

>  <bpol>
17.57

>  <nRing>
3

>  <nHRing>
3

>  <naRing>
1

>  <naHRing>
1

>  <nARing 2>
2

>  <nAHRing 2>
2

>  <nFRing>
1

>  <nFHRing>
1

>  <nFaRing>
0

>  <nFaHRing>
0

>  <nFARing 2>
1

>  <nFAHRing 2>
1

>  <nRot>
0

>  <SLogP>
1.28

>  <SMR>
62.27

>  <TopoPSA(NO)>
34.03

>  <TopoPSA>
34.03

>  <JGI1>
0.18

>  <JGI2>
0.08

>  <JGI3>
0.04

>  <JGI4>
0.05

>  <JGI5>
0.03

>  <Diameter>
6

>  <Radius>
4

>  <TMWC10>
104.38

>  <TSRW10>
48.01

>  <MW>
268.02

>  <AMW>
9.57

>  <WPath>
316

>  <WPol>
26

>  <Zagreb1>
84

>  <Zagreb2>
102

>  <mZagreb2>
3.19

>  <yes>


>  <nAR-cont>
1

>  <nHA-cont>
0.92539861

>  <MWHBN>
0.244329772

>  <MWHBN-cont>
0.968794205

>  <TPSA-cont>
0.762449469

>  <pka_cont>
0.97

>  <yes.1>


>  <BBB_SCORE>
5.388488856

>  <MMFF94 Energy>
19.118

$$$$
Compound 360
Actelion Java MolfileCreator 2.0

  0  0  0  0  0  0              0 V3000
M  V30 BEGIN CTAB
M  V30 COUNTS 46 48 0 0 0
M  V30 BEGIN ATOM
M  V30 1 O -1.4999 -0.3156 -0.3156 0
M  V30 2 C -0.4212 -0.6262 0.1765 0
M  V30 3 N 0.7795 -0.7214 -0.4975 0
M  V30 4 C -0.3643 -0.9967 1.6187 0
M  V30 5 C 1.0022 -0.3714 -1.8465 0
M  V30 6 C 0.7615 -0.7248 2.4066 0
M  V30 7 C -1.4825 -1.6064 2.1967 0
M  V30 8 C 2.0222 -1.0487 -2.5412 0
M  V30 9 C 0.3041 0.675 -2.4612 0
M  V30 10 C 0.7758 -1.0882 3.7569 0
M  V30 11 C -1.4638 -1.9706 3.5448 0
M  V30 12 N 2.7516 -2.0801 -1.9414 0
M  V30 13 C 2.3711 -0.6055 -3.8178 0
M  V30 14 C 0.6147 1.0898 -3.7673 0
M  V30 15 C -0.3327 -1.7218 4.3366 0
M  V30 16 C 1.6663 0.4373 -4.4289 0
M  V30 17 C -0.1305 2.1859 -4.4132 0
M  V30 18 C -0.3249 -2.1127 5.7971 0
M  V30 19 C -1.536 2.1989 -4.4197 0
M  V30 20 C 0.5372 3.2518 -5.0402 0
M  V30 21 N -1.2725 -1.3015 6.5582 0
M  V30 22 C -2.247 3.235 -5.0318 0
M  V30 23 C -0.1719 4.2892 -5.6527 0
M  V30 24 C -1.2266 -1.6301 7.9748 0
M  V30 25 C -1.5642 4.2796 -5.6486 0
M  V30 26 H 1.5775 -1.1363 -0.0358 0
M  V30 27 H 1.6213 -0.2029 1.9954 0
M  V30 28 H -2.3721 -1.7973 1.5996 0
M  V30 29 H -0.471 1.2037 -1.9106 0
M  V30 30 H 1.6545 -0.8622 4.3572 0
M  V30 31 H -2.3429 -2.4375 3.986 0
M  V30 32 H 3.4387 -2.5611 -2.5089 0
M  V30 33 H 2.2592 -2.6532 -1.2675 0
M  V30 34 H 3.1799 -1.0822 -4.3642 0
M  V30 35 H 1.9402 0.7304 -5.4404 0
M  V30 36 H 0.688 -1.9977 6.2026 0
M  V30 37 H -0.582 -3.1768 5.871 0
M  V30 38 H -2.0919 1.3894 -3.9488 0
M  V30 39 H 1.6244 3.2895 -5.0432 0
M  V30 40 H -1.0447 -0.3164 6.4274 0
M  V30 41 H -3.3337 3.2226 -5.0242 0
M  V30 42 H 0.3647 5.1058 -6.128 0
M  V30 43 H -0.2377 -1.4339 8.4016 0
M  V30 44 H -1.4892 -2.6789 8.1467 0
M  V30 45 H -1.9537 -1.0163 8.5154 0
M  V30 46 H -2.1168 5.0861 -6.1229 0
M  V30 END ATOM
M  V30 BEGIN BOND
M  V30 1 2 1 2
M  V30 2 1 2 3
M  V30 3 1 2 4
M  V30 4 1 3 5
M  V30 5 2 4 6
M  V30 6 1 4 7
M  V30 7 2 5 8
M  V30 8 1 5 9
M  V30 9 1 6 10
M  V30 10 2 7 11
M  V30 11 1 8 12
M  V30 12 1 8 13
M  V30 13 2 9 14
M  V30 14 2 10 15
M  V30 15 2 13 16
M  V30 16 1 14 17
M  V30 17 1 15 18
M  V30 18 2 17 19
M  V30 19 1 17 20
M  V30 20 1 18 21
M  V30 21 1 19 22
M  V30 22 2 20 23
M  V30 23 1 21 24
M  V30 24 2 22 25
M  V30 25 1 11 15
M  V30 26 1 14 16
M  V30 27 1 23 25
M  V30 28 1 3 26
M  V30 29 1 6 27
M  V30 30 1 7 28
M  V30 31 1 9 29
M  V30 32 1 10 30
M  V30 33 1 11 31
M  V30 34 1 12 32
M  V30 35 1 12 33
M  V30 36 1 13 34
M  V30 37 1 16 35
M  V30 38 1 18 36
M  V30 39 1 18 37
M  V30 40 1 19 38
M  V30 41 1 20 39
M  V30 42 1 21 40
M  V30 43 1 22 41
M  V30 44 1 23 42
M  V30 45 1 24 43
M  V30 46 1 24 44
M  V30 47 1 24 45
M  V30 48 1 25 46
M  V30 END BOND
M  V30 END CTAB
M  END
>  <Column 1>
448

>  <level_0>
508

>  <index>
508

>  <Unnamed: 0>
508

>  <NO.>
511

>  <Name>


>  <IUPAC_name>


>  <SMILES>
CNCc1ccc(C(=O)Nc2cc(-c3ccccc3)ccc2N)cc1

>  <CID>


>  <logBB>
-0.05

>  <BBB+/BBB->
BBB+

>  <Inchi>
InChI=1S/C21H21N3O/c1-23-14-15-7-9-17(10-8-15)21(25)24-20-13-18(11-12-19(20)22)16-5-3-2-4-6-16/h2-13-23H-14-22H2-1H3-(H-24-25)

>  <threshold>


>  <reference>
R47|

>  <group>
A

>  <Class>
1

>  <ABC>
19.19

>  <ABCGG>
14.74

>  <nAcid>
0

>  <nBase>
1

>  <nAromAtom>
18

>  <nAromBond>
18

>  <nAtom>
46

>  <nHeavyAtom>
25

>  <nSpiro>
0

>  <nBridgehead>
0

>  <nHetero>
4

>  <nN>
3

>  <nO>
1

>  <nF>
0

>  <BalabanJ>
1.46

>  <BertzCT>
858.07

>  <nBonds>
48

>  <nBondsO>
27

>  <nBondsS>
29

>  <nBondsD>
1

>  <nBondsT>
0

>  <nBondsA>
18

>  <nBondsM>
19

>  <nBondsKS>
38

>  <nBondsKD>
10

>  <RNCG>
0.2

>  <RPCG>
0.13

>  <FCSP3>
0.1

>  <SZ>
29.33

>  <Sm>
27.59

>  <Sv>
29.68

>  <Sse>
45.64

>  <Sp>
31.84

>  <Si>
51.44

>  <MZ>
0.64

>  <Mm>
0.6

>  <Mv>
0.65

>  <Mse>
0.99

>  <Mp>
0.69

>  <Mi>
1.12

>  <NsCH3>
1

>  <NdCH2>
0

>  <NssCH2>
1

>  <NtCH>
0

>  <NdsCH>
0

>  <NaaCH>
12

>  <NsssCH>
0

>  <NddC>
0

>  <NtsC>
0

>  <NdssC>
1

>  <NaasC>
6

>  <NaaaC>
0

>  <NssssC>
0

>  <NsNH3>
0

>  <NsNH2>
1

>  <NssNH2>
0

>  <NdNH>
0

>  <NssNH>
2

>  <NaaNH>
0

>  <NtN>
0

>  <NsssNH>
0

>  <NdsN>
0

>  <NaaN>
0

>  <NsssN>
0

>  <NddsN>
0

>  <NaasN>
0

>  <NssssN>
0

>  <NsOH>
0

>  <NdO>
1

>  <NssO>
0

>  <NaaO>
0

>  <NsF>
0

>  <NsSiH3>
0

>  <NssSiH2>
0

>  <NsssSiH>
0

>  <NssssSi>
0

>  <NsPH2>
0

>  <NssPH>
0

>  <NsssP>
0

>  <NdsssP>
0

>  <NsssssP>
0

>  <NsSH>
0

>  <NdS>
0

>  <NssS>
0

>  <NaaS>
0

>  <NdssS>
0

>  <NddssS>
0

>  <NsCl>
0

>  <NsBr>
0

>  <NsI>
0

>  <fragCpx>
129.04

>  <fMF>
0.43

>  <nHBAcc>
3

>  <nHBDon>
3

>  <Kier1>
19.75

>  <Kier2>
9.8

>  <Lipinski>
1

>  <GhoseFilter>
1

>  <FilterItLogS>
-6.07

>  <VMcGowan>
266.98

>  <LabuteASA>
147.24

>  <PEOE_VSA1>
16.37

>  <PEOE_VSA2>
4.79

>  <PEOE_VSA3>
0

>  <PEOE_VSA4>
0

>  <PEOE_VSA5>
0

>  <PEOE_VSA6>
48.53

>  <PEOE_VSA7>
48

>  <PEOE_VSA8>
12.11

>  <PEOE_VSA9>
11.37

>  <PEOE_VSA10>
0

>  <PEOE_VSA11>
0

>  <PEOE_VSA12>
0

>  <PEOE_VSA13>
5.91

>  <SMR_VSA1>
4.79

>  <SMR_VSA2>
0

>  <SMR_VSA3>
5.32

>  <SMR_VSA4>
0

>  <SMR_VSA5>
6.54

>  <SMR_VSA6>
18.1

>  <SMR_VSA7>
83.92

>  <SMR_VSA8>
0

>  <SMR_VSA9>
11.13

>  <SlogP_VSA1>
16.37

>  <SlogP_VSA2>
12.95

>  <SlogP_VSA3>
6.54

>  <SlogP_VSA4>
0

>  <SlogP_VSA5>
15.92

>  <SlogP_VSA6>
72.8

>  <SlogP_VSA7>
0

>  <SlogP_VSA8>
11.13

>  <SlogP_VSA9>
0

>  <SlogP_VSA10>
11.37

>  <SlogP_VSA11>
0

>  <EState_VSA1>
0

>  <EState_VSA2>
5.91

>  <EState_VSA3>
16.94

>  <EState_VSA4>
23.24

>  <EState_VSA5>
0

>  <EState_VSA6>
0

>  <EState_VSA7>
79.84

>  <EState_VSA8>
10.63

>  <EState_VSA9>
5.73

>  <EState_VSA10>
4.79

>  <VSA_EState1>
0

>  <VSA_EState2>
12.5

>  <VSA_EState3>
5.99

>  <VSA_EState4>
11.01

>  <VSA_EState5>
-0.17

>  <VSA_EState6>
23.17

>  <VSA_EState7>
0

>  <VSA_EState8>
0.77

>  <VSA_EState9>
1.89

>  <apol>
53.17

>  <bpol>
22.51

>  <nRing>
3

>  <nHRing>
0

>  <naRing>
3

>  <naHRing>
0

>  <nARing 2>
0

>  <nAHRing 2>
0

>  <nFRing>
0

>  <nFHRing>
0

>  <nFaRing>
0

>  <nFaHRing>
0

>  <nFARing 2>
0

>  <nFAHRing 2>
0

>  <nRot>
5

>  <SLogP>
3.91

>  <SMR>
103.45

>  <TopoPSA(NO)>
67.15

>  <TopoPSA>
67.15

>  <JGI1>
0.17

>  <JGI2>
0.08

>  <JGI3>
0.03

>  <JGI4>
0.04

>  <JGI5>
0.03

>  <Diameter>
15

>  <Radius>
8

>  <TMWC10>
126.11

>  <TSRW10>
59.42

>  <MW>
331.17

>  <AMW>
7.2

>  <WPath>
1664

>  <WPol>
37

>  <Zagreb1>
126

>  <Zagreb2>
145

>  <mZagreb2>
5.67

>  <yes>


>  <nAR-cont>
0.336376

>  <nHA-cont>
0.921834225

>  <MWHBN>
0.329705169

>  <MWHBN-cont>
0.743876995

>  <TPSA-cont>
0.531251302

>  <pka_cont>
0.97

>  <yes.1>


>  <BBB_SCORE>
3.921528321

>  <MMFF94 Energy>
62.001

$$$$
Compound 361
Actelion Java MolfileCreator 2.0

  0  0  0  0  0  0              0 V3000
M  V30 BEGIN CTAB
M  V30 COUNTS 68 72 0 0 0
M  V30 BEGIN ATOM
M  V30 1 O -1.9968 -1.3575 0.0 0
M  V30 2 C -0.588 -1.0626 0.0131 0 CFG=1
M  V30 3 C -2.6235 -0.9667 -1.2159 0
M  V30 4 C -0.1736 -0.6796 1.4503 0
M  V30 5 C 0.1845 -2.3182 -0.4328 0
M  V30 6 N -0.7804 0.5763 1.9023 0
M  V30 7 C 1.3477 -0.6667 1.6426 0
M  V30 8 N 1.6367 -2.1328 -0.3027 0
M  V30 9 C -0.6346 1.8111 1.2881 0
M  V30 10 C -1.5996 0.7521 3.0126 0
M  V30 11 C 1.9922 -1.9425 1.1087 0
M  V30 12 C 2.4033 -3.2212 -0.925 0
M  V30 13 C -1.4561 2.6594 2.0197 0
M  V30 14 C 0.1031 2.2728 0.1874 0
M  V30 15 N -2.0455 1.9975 3.0576 0
M  V30 16 C -1.9708 -0.3013 4.0342 0
M  V30 17 C 2.9602 -2.8894 -2.3362 0
M  V30 18 C -1.5808 4.008 1.6488 0
M  V30 19 C -0.0294 3.6216 -0.1692 0
M  V30 20 O -0.7992 -1.0713 4.3315 0
M  V30 21 C -3.072 -1.2247 3.5121 0
M  V30 22 C -2.4266 0.3546 5.3469 0
M  V30 23 C 1.8864 -2.7751 -3.4401 0
M  V30 24 C 3.7444 -1.5539 -2.3712 0
M  V30 25 C -0.8533 4.4932 0.551 0
M  V30 26 C 1.6724 -1.2959 -3.5293 0
M  V30 27 C 2.7272 -0.6029 -2.9279 0
M  V30 28 C -1.0047 5.9232 0.1227 0
M  V30 29 C 0.622 -0.6198 -4.1284 0
M  V30 30 C 2.7589 0.7812 -2.9115 0
M  V30 31 C 0.6332 0.7807 -4.1055 0
M  V30 32 C 1.6989 1.4754 -3.5014 0
M  V30 33 C -0.4463 1.511 -4.7027 0
M  V30 34 N -1.3242 2.0969 -5.1857 0
M  V30 35 H -0.3706 -0.2498 -0.687 0
M  V30 36 H -2.1672 -1.4754 -2.0697 0
M  V30 37 H -3.6783 -1.2493 -1.1636 0
M  V30 38 H -2.5605 0.1182 -1.3443 0
M  V30 39 H -0.5756 -1.4714 2.0863 0
M  V30 40 H -0.1551 -3.1913 0.142 0
M  V30 41 H -0.0952 -2.5292 -1.4685 0
M  V30 42 H 1.8013 0.1936 1.1373 0
M  V30 43 H 1.5889 -0.5548 2.7071 0
M  V30 44 H 1.6919 -2.8077 1.7136 0
M  V30 45 H 3.0786 -1.8318 1.2135 0
M  V30 46 H 1.8204 -4.151 -0.9615 0
M  V30 47 H 3.2801 -3.4582 -0.3064 0
M  V30 48 H 0.7607 1.6258 -0.3816 0
M  V30 49 H 3.6405 -3.7139 -2.5886 0
M  V30 50 H -2.2357 4.6539 2.224 0
M  V30 51 H 0.5273 3.9912 -1.0282 0
M  V30 52 H -1.018 -1.6372 5.0909 0
M  V30 53 H -3.3316 -1.982 4.261 0
M  V30 54 H -2.7539 -1.7766 2.6225 0
M  V30 55 H -3.9792 -0.6664 3.256 0
M  V30 56 H -3.3269 0.9638 5.2098 0
M  V30 57 H -2.6404 -0.402 6.1108 0
M  V30 58 H -1.638 0.9959 5.7589 0
M  V30 59 H 2.2843 -3.1339 -4.3963 0
M  V30 60 H 0.9746 -3.3299 -3.2079 0
M  V30 61 H 4.59 -1.6231 -3.0645 0
M  V30 62 H 4.1079 -1.248 -1.3858 0
M  V30 63 H -0.0801 6.2945 -0.3316 0
M  V30 64 H -1.8174 6.0115 -0.6047 0
M  V30 65 H -1.2257 6.5672 0.9805 0
M  V30 66 H -0.1894 -1.1671 -4.5999 0
M  V30 67 H 3.5818 1.3161 -2.447 0
M  V30 68 H 1.7062 2.564 -3.491 0
M  V30 END ATOM
M  V30 BEGIN BOND
M  V30 1 1 1 2
M  V30 2 1 1 3
M  V30 3 1 2 4
M  V30 4 1 2 5
M  V30 5 1 4 6
M  V30 6 1 4 7
M  V30 7 1 5 8
M  V30 8 1 6 9
M  V30 9 1 6 10
M  V30 10 1 7 11
M  V30 11 1 8 12
M  V30 12 2 9 13
M  V30 13 1 9 14
M  V30 14 2 10 15
M  V30 15 1 10 16
M  V30 16 1 12 17
M  V30 17 1 13 18
M  V30 18 2 14 19
M  V30 19 1 16 20
M  V30 20 1 16 21
M  V30 21 1 16 22
M  V30 22 1 17 23
M  V30 23 1 17 24
M  V30 24 2 18 25
M  V30 25 1 23 26
M  V30 26 1 24 27
M  V30 27 1 25 28
M  V30 28 1 26 29
M  V30 29 1 27 30
M  V30 30 2 29 31
M  V30 31 2 30 32
M  V30 32 1 31 33
M  V30 33 3 33 34
M  V30 34 1 8 11
M  V30 35 1 13 15
M  V30 36 1 19 25
M  V30 37 2 26 27
M  V30 38 1 31 32
M  V30 39 1 2 35
M  V30 40 1 3 36
M  V30 41 1 3 37
M  V30 42 1 3 38
M  V30 43 1 4 39
M  V30 44 1 5 40
M  V30 45 1 5 41
M  V30 46 1 7 42
M  V30 47 1 7 43
M  V30 48 1 11 44
M  V30 49 1 11 45
M  V30 50 1 12 46
M  V30 51 1 12 47
M  V30 52 1 14 48
M  V30 53 1 17 49
M  V30 54 1 18 50
M  V30 55 1 19 51
M  V30 56 1 20 52
M  V30 57 1 21 53
M  V30 58 1 21 54
M  V30 59 1 21 55
M  V30 60 1 22 56
M  V30 61 1 22 57
M  V30 62 1 22 58
M  V30 63 1 23 59
M  V30 64 1 23 60
M  V30 65 1 24 61
M  V30 66 1 24 62
M  V30 67 1 28 63
M  V30 68 1 28 64
M  V30 69 1 28 65
M  V30 70 1 29 66
M  V30 71 1 30 67
M  V30 72 1 32 68
M  V30 END BOND
M  V30 BEGIN COLLECTION
M  V30 MDLV30/STEABS ATOMS=(1 2)
M  V30 END COLLECTION
M  V30 END CTAB
M  END
>  <Column 1>
449

>  <level_0>
509

>  <index>
509

>  <Unnamed: 0>
509

>  <NO.>
512

>  <Name>
compound-10

>  <IUPAC_name>


>  <SMILES>
CO[C@@H]1CN(CC2Cc3ccc(C#N)cc3C2)CCC1n1c(C(C)(C)O)nc2cc(C)ccc21

>  <CID>


>  <logBB>
-0.05

>  <BBB+/BBB->
BBB+

>  <Inchi>
InChI=1S/C28H34N4O2/c1-18-5-8-24-23(11-18)30-27(28(2-3)33)32(24)25-9-10-31(17-26(25)34-4)16-20-13-21-7-6-19(15-29)12-22(21)14-20/h5-8-11-12-20-25-26-33H-9-10-13-14-16-17H2-1-4H3/t20?-25?-26-/m1/s1

>  <threshold>


>  <reference>
R18|R26|R27|

>  <group>
A

>  <Class>
1

>  <ABC>
27.15

>  <ABCGG>
20.52

>  <nAcid>
0

>  <nBase>
1

>  <nAromAtom>
15

>  <nAromBond>
16

>  <nAtom>
68

>  <nHeavyAtom>
34

>  <nSpiro>
0

>  <nBridgehead>
0

>  <nHetero>
6

>  <nN>
4

>  <nO>
2

>  <nF>
0

>  <BalabanJ>
1.22

>  <BertzCT>
1249.75

>  <nBonds>
72

>  <nBondsO>
38

>  <nBondsS>
55

>  <nBondsD>
0

>  <nBondsT>
1

>  <nBondsA>
16

>  <nBondsM>
17

>  <nBondsKS>
64

>  <nBondsKD>
7

>  <RNCG>
0.16

>  <RPCG>
0.09

>  <FCSP3>
0.5

>  <SZ>
41

>  <Sm>
38.18

>  <Sv>
41.67

>  <Sse>
67.41

>  <Sp>
45.17

>  <Si>
76.64

>  <MZ>
0.6

>  <Mm>
0.56

>  <Mv>
0.61

>  <Mse>
0.99

>  <Mp>
0.66

>  <Mi>
1.13

>  <NsCH3>
4

>  <NdCH2>
0

>  <NssCH2>
6

>  <NtCH>
0

>  <NdsCH>
0

>  <NaaCH>
6

>  <NsssCH>
3

>  <NddC>
0

>  <NtsC>
1

>  <NdssC>
0

>  <NaasC>
5

>  <NaaaC>
2

>  <NssssC>
1

>  <NsNH3>
0

>  <NsNH2>
0

>  <NssNH2>
0

>  <NdNH>
0

>  <NssNH>
0

>  <NaaNH>
0

>  <NtN>
1

>  <NsssNH>
0

>  <NdsN>
0

>  <NaaN>
1

>  <NsssN>
1

>  <NddsN>
0

>  <NaasN>
1

>  <NssssN>
0

>  <NsOH>
1

>  <NdO>
0

>  <NssO>
1

>  <NaaO>
0

>  <NsF>
0

>  <NsSiH3>
0

>  <NssSiH2>
0

>  <NsssSiH>
0

>  <NssssSi>
0

>  <NsPH2>
0

>  <NssPH>
0

>  <NsssP>
0

>  <NdsssP>
0

>  <NsssssP>
0

>  <NsSH>
0

>  <NdS>
0

>  <NssS>
0

>  <NaaS>
0

>  <NdssS>
0

>  <NddssS>
0

>  <NsCl>
0

>  <NsBr>
0

>  <NsI>
0

>  <fragCpx>
322.06

>  <fMF>
0.37

>  <nHBAcc>
6

>  <nHBDon>
1

>  <Kier1>
25.64

>  <Kier2>
10.4

>  <Lipinski>
1

>  <GhoseFilter>
0

>  <FilterItLogS>
-5.68

>  <VMcGowan>
364.04

>  <LabuteASA>
201.33

>  <PEOE_VSA1>
19.31

>  <PEOE_VSA2>
0

>  <PEOE_VSA3>
4.98

>  <PEOE_VSA4>
5.26

>  <PEOE_VSA5>
0

>  <PEOE_VSA6>
12.13

>  <PEOE_VSA7>
86.91

>  <PEOE_VSA8>
26.74

>  <PEOE_VSA9>
34.81

>  <PEOE_VSA10>
11.43

>  <PEOE_VSA11>
0

>  <PEOE_VSA12>
0

>  <PEOE_VSA13>
0

>  <SMR_VSA1>
9.84

>  <SMR_VSA2>
5.26

>  <SMR_VSA3>
14.45

>  <SMR_VSA4>
5.92

>  <SMR_VSA5>
57.78

>  <SMR_VSA6>
26.74

>  <SMR_VSA7>
64.48

>  <SMR_VSA8>
0

>  <SMR_VSA9>
6.07

>  <SlogP_VSA1>
0

>  <SlogP_VSA2>
52.41

>  <SlogP_VSA3>
23.18

>  <SlogP_VSA4>
24.17

>  <SlogP_VSA5>
54.39

>  <SlogP_VSA6>
36.4

>  <SlogP_VSA7>
0

>  <SlogP_VSA8>
11.03

>  <SlogP_VSA9>
0

>  <SlogP_VSA10>
0

>  <SlogP_VSA11>
0

>  <EState_VSA1>
5.6

>  <EState_VSA2>
12.15

>  <EState_VSA3>
11.74

>  <EState_VSA4>
61.06

>  <EState_VSA5>
11.13

>  <EState_VSA6>
7.11

>  <EState_VSA7>
19.91

>  <EState_VSA8>
52.79

>  <EState_VSA9>
9.72

>  <EState_VSA10>
10.37

>  <VSA_EState1>
8.28

>  <VSA_EState2>
7.38

>  <VSA_EState3>
20.15

>  <VSA_EState4>
5.58

>  <VSA_EState5>
1.27

>  <VSA_EState6>
14.83

>  <VSA_EState7>
3.07

>  <VSA_EState8>
8.56

>  <VSA_EState9>
1.79

>  <apol>
75.43

>  <bpol>
40.98

>  <nRing>
5

>  <nHRing>
2

>  <naRing>
3

>  <naHRing>
1

>  <nARing 2>
2

>  <nAHRing 2>
1

>  <nFRing>
2

>  <nFHRing>
1

>  <nFaRing>
1

>  <nFaHRing>
1

>  <nFARing 2>
1

>  <nFAHRing 2>
0

>  <nRot>
5

>  <SLogP>
4.12

>  <SMR>
132.66

>  <TopoPSA(NO)>
74.31

>  <TopoPSA>
74.31

>  <JGI1>
0.24

>  <JGI2>
0.07

>  <JGI3>
0.06

>  <JGI4>
0.05

>  <JGI5>
0.03

>  <Diameter>
17

>  <Radius>
9

>  <TMWC10>
151.98

>  <TSRW10>
87.06

>  <MW>
458.27

>  <AMW>
6.74

>  <WPath>
3580

>  <WPol>
58

>  <Zagreb1>
190

>  <Zagreb2>
229

>  <mZagreb2>
7.25

>  <yes>


>  <nAR-cont>
1

>  <nHA-cont>
0.568589513

>  <MWHBN>
0.32699215

>  <MWHBN-cont>
0.753323456

>  <TPSA-cont>
0.481270056

>  <pka_cont>
0.97

>  <yes.1>


>  <BBB_SCORE>
4.146114809

>  <MMFF94 Energy>
101.87

$$$$
Compound 362
Actelion Java MolfileCreator 2.0

  0  0  0  0  0  0              0 V3000
M  V30 BEGIN CTAB
M  V30 COUNTS 29 31 0 0 0
M  V30 BEGIN ATOM
M  V30 1 O 2.5844 -1.13 1.4531 0
M  V30 2 C 1.9808 -1.5935 0.486 0
M  V30 3 N 2.6669 -1.9952 -0.6333 0
M  V30 4 C 0.4575 -1.6764 0.4325 0 CFG=1
M  V30 5 C 2.1663 -2.3719 -1.8527 0
M  V30 6 N -0.1036 -0.3353 0.5236 0
M  V30 7 C -0.0712 -2.525 -0.7205 0
M  V30 8 O 2.9184 -2.7077 -2.7639 0
M  V30 9 C 0.6694 -2.3143 -2.0278 0
M  V30 10 C -0.9626 0.0503 1.5183 0
M  V30 11 C 0.1433 0.6891 -0.3469 0
M  V30 12 O -1.4247 -0.6081 2.4301 0
M  V30 13 C -1.2872 1.4537 1.274 0
M  V30 14 O 0.8586 0.7008 -1.3292 0
M  V30 15 C -0.6144 1.8429 0.1312 0
M  V30 16 C -2.1013 2.3213 1.9751 0
M  V30 17 C -0.7131 3.1236 -0.3758 0
M  V30 18 C -2.219 3.6248 1.482 0
M  V30 19 C -1.5306 4.0226 0.3166 0
M  V30 20 H 3.6748 -1.9566 -0.5705 0
M  V30 21 H 0.169 -2.2027 1.3529 0
M  V30 22 H 0.0466 -3.5814 -0.442 0
M  V30 23 H -1.1449 -2.3589 -0.866 0
M  V30 24 H 0.3799 -3.1024 -2.7326 0
M  V30 25 H 0.4057 -1.3611 -2.4914 0
M  V30 26 H -2.6244 2.0021 2.8709 0
M  V30 27 H -0.1762 3.4174 -1.272 0
M  V30 28 H -2.8485 4.344 2.0038 0
M  V30 29 H -1.6372 5.0439 -0.0455 0
M  V30 END ATOM
M  V30 BEGIN BOND
M  V30 1 2 1 2
M  V30 2 1 2 3
M  V30 3 1 2 4
M  V30 4 1 3 5
M  V30 5 1 4 6
M  V30 6 1 4 7
M  V30 7 2 5 8
M  V30 8 1 5 9
M  V30 9 1 6 10
M  V30 10 1 6 11
M  V30 11 2 10 12
M  V30 12 1 10 13
M  V30 13 2 11 14
M  V30 14 1 11 15
M  V30 15 1 13 16
M  V30 16 1 15 17
M  V30 17 2 16 18
M  V30 18 2 17 19
M  V30 19 1 7 9
M  V30 20 2 13 15
M  V30 21 1 18 19
M  V30 22 1 3 20
M  V30 23 1 4 21
M  V30 24 1 7 22
M  V30 25 1 7 23
M  V30 26 1 9 24
M  V30 27 1 9 25
M  V30 28 1 16 26
M  V30 29 1 17 27
M  V30 30 1 18 28
M  V30 31 1 19 29
M  V30 END BOND
M  V30 BEGIN COLLECTION
M  V30 MDLV30/STERAC1 ATOMS=(1 4)
M  V30 END COLLECTION
M  V30 END CTAB
M  END
>  <Column 1>
451

>  <level_0>
511

>  <index>
511

>  <Unnamed: 0>
511

>  <NO.>
514

>  <Name>
thalidomide

>  <IUPAC_name>
2-(2-6-dioxopiperidin-3-yl)isoindole-1-3-dione

>  <SMILES>
O=C1CCC(N2C(=O)c3ccccc3C2=O)C(=O)N1

>  <CID>
5426

>  <logBB>
-0.05

>  <BBB+/BBB->
BBB+

>  <Inchi>
InChI=1S/C13H10N2O4/c16-10-6-5-9(11(17)14-10)15-12(18)7-3-1-2-4-8(7)13(15)19/h1-4-9H-5-6H2-(H-14-16-17)

>  <threshold>


>  <reference>
R18|R26|R27|

>  <group>
A

>  <Class>
1

>  <ABC>
15

>  <ABCGG>
12.92

>  <nAcid>
0

>  <nBase>
0

>  <nAromAtom>
6

>  <nAromBond>
6

>  <nAtom>
29

>  <nHeavyAtom>
19

>  <nSpiro>
0

>  <nBridgehead>
0

>  <nHetero>
6

>  <nN>
2

>  <nO>
4

>  <nF>
0

>  <BalabanJ>
1.76

>  <BertzCT>
587.82

>  <nBonds>
31

>  <nBondsO>
21

>  <nBondsS>
21

>  <nBondsD>
4

>  <nBondsT>
0

>  <nBondsA>
6

>  <nBondsM>
10

>  <nBondsKS>
24

>  <nBondsKD>
7

>  <RNCG>
0.16

>  <RPCG>
0.14

>  <FCSP3>
0.23

>  <SZ>
22.33

>  <Sm>
21.5

>  <Sv>
20.08

>  <Sse>
30.09

>  <Sp>
20.23

>  <Si>
32.5

>  <MZ>
0.77

>  <Mm>
0.74

>  <Mv>
0.69

>  <Mse>
1.04

>  <Mp>
0.7

>  <Mi>
1.12

>  <NsCH3>
0

>  <NdCH2>
0

>  <NssCH2>
2

>  <NtCH>
0

>  <NdsCH>
0

>  <NaaCH>
4

>  <NsssCH>
1

>  <NddC>
0

>  <NtsC>
0

>  <NdssC>
4

>  <NaasC>
2

>  <NaaaC>
0

>  <NssssC>
0

>  <NsNH3>
0

>  <NsNH2>
0

>  <NssNH2>
0

>  <NdNH>
0

>  <NssNH>
1

>  <NaaNH>
0

>  <NtN>
0

>  <NsssNH>
0

>  <NdsN>
0

>  <NaaN>
0

>  <NsssN>
1

>  <NddsN>
0

>  <NaasN>
0

>  <NssssN>
0

>  <NsOH>
0

>  <NdO>
4

>  <NssO>
0

>  <NaaO>
0

>  <NsF>
0

>  <NsSiH3>
0

>  <NssSiH2>
0

>  <NsssSiH>
0

>  <NssssSi>
0

>  <NsPH2>
0

>  <NssPH>
0

>  <NsssP>
0

>  <NdsssP>
0

>  <NsssssP>
0

>  <NsSH>
0

>  <NdS>
0

>  <NssS>
0

>  <NaaS>
0

>  <NdssS>
0

>  <NddssS>
0

>  <NsCl>
0

>  <NsBr>
0

>  <NsI>
0

>  <fragCpx>
99.06

>  <fMF>
0.52

>  <nHBAcc>
4

>  <nHBDon>
1

>  <Kier1>
13.96

>  <Kier2>
5.41

>  <Lipinski>
1

>  <GhoseFilter>
1

>  <FilterItLogS>
-2.45

>  <VMcGowan>
174.79

>  <LabuteASA>
107.93

>  <PEOE_VSA1>
0

>  <PEOE_VSA2>
29.39

>  <PEOE_VSA3>
0

>  <PEOE_VSA4>
0

>  <PEOE_VSA5>
0

>  <PEOE_VSA6>
12.13

>  <PEOE_VSA7>
18.55

>  <PEOE_VSA8>
6.42

>  <PEOE_VSA9>
11.13

>  <PEOE_VSA10>
6.04

>  <PEOE_VSA11>
0

>  <PEOE_VSA12>
11.81

>  <PEOE_VSA13>
11.81

>  <SMR_VSA1>
19.18

>  <SMR_VSA2>
0

>  <SMR_VSA3>
10.22

>  <SMR_VSA4>
0

>  <SMR_VSA5>
18.88

>  <SMR_VSA6>
0

>  <SMR_VSA7>
35.39

>  <SMR_VSA8>
0

>  <SMR_VSA9>
0

>  <SlogP_VSA1>
5.32

>  <SlogP_VSA2>
34.57

>  <SlogP_VSA3>
9.59

>  <SlogP_VSA4>
0

>  <SlogP_VSA5>
33.56

>  <SlogP_VSA6>
24.27

>  <SlogP_VSA7>
0

>  <SlogP_VSA8>
0

>  <SlogP_VSA9>
0

>  <SlogP_VSA10>
0

>  <SlogP_VSA11>
0

>  <EState_VSA1>
23.76

>  <EState_VSA2>
18.75

>  <EState_VSA3>
11.13

>  <EState_VSA4>
4.9

>  <EState_VSA5>
0

>  <EState_VSA6>
24.27

>  <EState_VSA7>
0

>  <EState_VSA8>
5.32

>  <EState_VSA9>
0

>  <EState_VSA10>
19.18

>  <VSA_EState1>
0

>  <VSA_EState2>
48.15

>  <VSA_EState3>
2.15

>  <VSA_EState4>
0.61

>  <VSA_EState5>
-1.92

>  <VSA_EState6>
5.55

>  <VSA_EState7>
0.31

>  <VSA_EState8>
0

>  <VSA_EState9>
0

>  <apol>
33.79

>  <bpol>
15.78

>  <nRing>
3

>  <nHRing>
2

>  <naRing>
1

>  <naHRing>
0

>  <nARing 2>
2

>  <nAHRing 2>
2

>  <nFRing>
1

>  <nFHRing>
1

>  <nFaRing>
0

>  <nFaHRing>
0

>  <nFARing 2>
1

>  <nFAHRing 2>
1

>  <nRot>
1

>  <SLogP>
0.09

>  <SMR>
63.11

>  <TopoPSA(NO)>
83.55

>  <TopoPSA>
83.55

>  <JGI1>
0.17

>  <JGI2>
0.09

>  <JGI3>
0.08

>  <JGI4>
0.05

>  <JGI5>
0.03

>  <Diameter>
9

>  <Radius>
5

>  <TMWC10>
114.65

>  <TSRW10>
67.51

>  <MW>
258.06

>  <AMW>
8.9

>  <WPath>
643

>  <WPol>
33

>  <Zagreb1>
104

>  <Zagreb2>
127

>  <mZagreb2>
4.11

>  <yes>


>  <nAR-cont>
1

>  <nHA-cont>
0.998649058

>  <MWHBN>
0.311250213

>  <MWHBN-cont>
0.805876202

>  <TPSA-cont>
0.416769119

>  <pka_cont>
0.97

>  <yes.1>


>  <BBB_SCORE>
4.526001598

>  <MMFF94 Energy>
-39.071

$$$$
Compound 363
Actelion Java MolfileCreator 2.0

  0  0  0  0  0  0              0 V3000
M  V30 BEGIN CTAB
M  V30 COUNTS 63 67 0 0 0
M  V30 BEGIN ATOM
M  V30 1 Cl -0.7313 7.9037 3.335 0
M  V30 2 C 0.5787 6.7981 3.1678 0
M  V30 3 C 0.4707 5.7313 2.272 0
M  V30 4 C 1.7308 6.9788 3.9305 0
M  V30 5 C 1.5284 4.8339 2.1345 0
M  V30 6 C 2.7875 6.0819 3.7989 0
M  V30 7 O 1.5693 3.7457 1.3098 0
M  V30 8 C 2.6822 5.0148 2.9051 0
M  V30 9 C 0.4911 3.5158 0.3911 0
M  V30 10 C 1.057 2.718 -0.7855 0
M  V30 11 C -0.6282 2.7165 1.0587 0
M  V30 12 C 1.4495 1.2971 -0.3764 0
M  V30 13 C -0.174 1.3002 1.4111 0
M  V30 14 N 0.3096 0.5822 0.2192 0
M  V30 15 C 0.6538 -0.8084 0.5825 0
M  V30 16 C 0.851 -1.7086 -0.6447 0
M  V30 17 C 1.0285 -3.2063 -0.3449 0 CFG=2
M  V30 18 N -0.1253 -3.7534 0.4407 0
M  V30 19 C 2.274 -3.5253 0.4937 0
M  V30 20 S -1.2799 -4.6927 -0.3947 0
M  V30 21 C 0.4177 -4.4352 1.6471 0
M  V30 22 C 1.7488 -3.7533 1.8974 0
M  V30 23 O -0.5543 -5.6818 -1.1659 0
M  V30 24 O -2.2971 -5.0909 0.5555 0
M  V30 25 C -2.0218 -3.5308 -1.5115 0
M  V30 26 C -1.8343 -3.6832 -2.892 0
M  V30 27 C -2.7936 -2.4938 -0.9815 0
M  V30 28 C -2.4409 -2.7318 -3.7212 0
M  V30 29 C -3.3861 -1.5548 -1.8328 0
M  V30 30 N -2.4352 -2.6183 -5.0938 0
M  V30 31 C -3.2058 -1.6742 -3.2253 0
M  V30 32 C -3.161 -1.5233 -5.4809 0
M  V30 33 C -3.6508 -0.9194 -4.3455 0
M  V30 34 H -0.4478 5.6244 1.7069 0
M  V30 35 H 1.8089 7.8103 4.6256 0
M  V30 36 H 3.691 6.2104 4.3891 0
M  V30 37 H 3.5095 4.3155 2.8051 0
M  V30 38 H 0.1155 4.4634 -0.0121 0
M  V30 39 H 0.3112 2.6722 -1.5893 0
M  V30 40 H 1.9424 3.2248 -1.1876 0
M  V30 41 H -1.4916 2.665 0.3833 0
M  V30 42 H -0.9651 3.2094 1.9771 0
M  V30 43 H 2.2999 1.3257 0.317 0
M  V30 44 H 1.7905 0.7867 -1.2831 0
M  V30 45 H 0.5991 1.3335 2.1899 0
M  V30 46 H -1.0368 0.7719 1.8357 0
M  V30 47 H -0.1694 -1.2248 1.1754 0
M  V30 48 H 1.5486 -0.8202 1.2158 0
M  V30 49 H -0.0022 -1.5764 -1.3181 0
M  V30 50 H 1.7334 -1.3805 -1.2069 0
M  V30 51 H 1.1277 -3.7255 -1.3054 0
M  V30 52 H 2.7285 -4.4538 0.1255 0
M  V30 53 H 3.042 -2.7472 0.4516 0
M  V30 54 H 0.5747 -5.5026 1.4547 0
M  V30 55 H -0.2585 -4.314 2.4978 0
M  V30 56 H 2.4223 -4.3657 2.5036 0
M  V30 57 H 1.5995 -2.802 2.4184 0
M  V30 58 H -1.2468 -4.4985 -3.3019 0
M  V30 59 H -2.929 -2.4036 0.0943 0
M  V30 60 H -3.9774 -0.7415 -1.4219 0
M  V30 61 H -1.9625 -3.2555 -5.72 0
M  V30 62 H -3.2687 -1.2706 -6.5271 0
M  V30 63 H -4.2666 -0.03 -4.3198 0
M  V30 END ATOM
M  V30 BEGIN BOND
M  V30 1 1 1 2
M  V30 2 2 2 3
M  V30 3 1 2 4
M  V30 4 1 3 5
M  V30 5 2 4 6
M  V30 6 1 5 7
M  V30 7 2 5 8
M  V30 8 1 7 9
M  V30 9 1 9 10
M  V30 10 1 9 11
M  V30 11 1 10 12
M  V30 12 1 11 13
M  V30 13 1 12 14
M  V30 14 1 14 15
M  V30 15 1 15 16
M  V30 16 1 16 17
M  V30 17 1 17 18
M  V30 18 1 17 19
M  V30 19 1 18 20
M  V30 20 1 18 21
M  V30 21 1 19 22
M  V30 22 2 20 23
M  V30 23 2 20 24
M  V30 24 1 20 25
M  V30 25 2 25 26
M  V30 26 1 25 27
M  V30 27 1 26 28
M  V30 28 2 27 29
M  V30 29 1 28 30
M  V30 30 2 28 31
M  V30 31 1 30 32
M  V30 32 1 31 33
M  V30 33 1 6 8
M  V30 34 1 13 14
M  V30 35 1 21 22
M  V30 36 1 29 31
M  V30 37 2 32 33
M  V30 38 1 3 34
M  V30 39 1 4 35
M  V30 40 1 6 36
M  V30 41 1 8 37
M  V30 42 1 9 38
M  V30 43 1 10 39
M  V30 44 1 10 40
M  V30 45 1 11 41
M  V30 46 1 11 42
M  V30 47 1 12 43
M  V30 48 1 12 44
M  V30 49 1 13 45
M  V30 50 1 13 46
M  V30 51 1 15 47
M  V30 52 1 15 48
M  V30 53 1 16 49
M  V30 54 1 16 50
M  V30 55 1 17 51
M  V30 56 1 19 52
M  V30 57 1 19 53
M  V30 58 1 21 54
M  V30 59 1 21 55
M  V30 60 1 22 56
M  V30 61 1 22 57
M  V30 62 1 26 58
M  V30 63 1 27 59
M  V30 64 1 29 60
M  V30 65 1 30 61
M  V30 66 1 32 62
M  V30 67 1 33 63
M  V30 END BOND
M  V30 BEGIN COLLECTION
M  V30 MDLV30/STERAC1 ATOMS=(1 17)
M  V30 END COLLECTION
M  V30 END CTAB
M  END
>  <Column 1>
454

>  <level_0>
514

>  <index>
514

>  <Unnamed: 0>
514

>  <NO.>
517

>  <Name>
sb-656104-a

>  <IUPAC_name>


>  <SMILES>
O=S(=O)(c1ccc2cc[nH]c2c1)N1CCCC1CCN1CCC(Oc2cccc(Cl)c2)CC1

>  <CID>


>  <logBB>
-0.04

>  <BBB+/BBB->
BBB+

>  <Inchi>
InChI=1S/C25H30ClN3O3S/c26-20-3-1-5-23(17-20)32-22-10-15-28(16-11-22)14-9-21-4-2-13-29(21)33(30-31)24-7-6-19-8-12-27-25(19)18-24/h1-3-5-8-12-17-18-21-22-27H-2-4-9-11-13-16H2

>  <threshold>


>  <reference>
R47|R36|R2|R2|R25|R27|R46|

>  <group>
A

>  <Class>
1

>  <ABC>
26.39

>  <ABCGG>
19.68

>  <nAcid>
0

>  <nBase>
1

>  <nAromAtom>
15

>  <nAromBond>
16

>  <nAtom>
63

>  <nHeavyAtom>
33

>  <nSpiro>
0

>  <nBridgehead>
0

>  <nHetero>
8

>  <nN>
3

>  <nO>
3

>  <nF>
0

>  <BalabanJ>
1.06

>  <BertzCT>
1204.34

>  <nBonds>
67

>  <nBondsO>
37

>  <nBondsS>
49

>  <nBondsD>
2

>  <nBondsT>
0

>  <nBondsA>
16

>  <nBondsM>
18

>  <nBondsKS>
58

>  <nBondsKD>
9

>  <RNCG>
0.22

>  <RPCG>
0.11

>  <FCSP3>
0.44

>  <SZ>
43

>  <Sm>
40.63

>  <Sv>
39.82

>  <Sse>
63.14

>  <Sp>
43.44

>  <Si>
70.8

>  <MZ>
0.68

>  <Mm>
0.64

>  <Mv>
0.63

>  <Mse>
1

>  <Mp>
0.69

>  <Mi>
1.12

>  <NsCH3>
0

>  <NdCH2>
0

>  <NssCH2>
9

>  <NtCH>
0

>  <NdsCH>
0

>  <NaaCH>
9

>  <NsssCH>
2

>  <NddC>
0

>  <NtsC>
0

>  <NdssC>
0

>  <NaasC>
3

>  <NaaaC>
2

>  <NssssC>
0

>  <NsNH3>
0

>  <NsNH2>
0

>  <NssNH2>
0

>  <NdNH>
0

>  <NssNH>
0

>  <NaaNH>
1

>  <NtN>
0

>  <NsssNH>
0

>  <NdsN>
0

>  <NaaN>
0

>  <NsssN>
2

>  <NddsN>
0

>  <NaasN>
0

>  <NssssN>
0

>  <NsOH>
0

>  <NdO>
2

>  <NssO>
1

>  <NaaO>
0

>  <NsF>
0

>  <NsSiH3>
0

>  <NssSiH2>
0

>  <NsssSiH>
0

>  <NssssSi>
0

>  <NsPH2>
0

>  <NssPH>
0

>  <NsssP>
0

>  <NdsssP>
0

>  <NsssssP>
0

>  <NsSH>
0

>  <NdS>
0

>  <NssS>
0

>  <NaaS>
0

>  <NdssS>
0

>  <NddssS>
1

>  <NsCl>
1

>  <NsBr>
0

>  <NsI>
0

>  <fragCpx>
313.08

>  <fMF>
0.48

>  <nHBAcc>
4

>  <nHBDon>
1

>  <Kier1>
24.68

>  <Kier2>
10.95

>  <Lipinski>
1

>  <GhoseFilter>
0

>  <FilterItLogS>
-6.07

>  <VMcGowan>
354.85

>  <LabuteASA>
200.08

>  <PEOE_VSA1>
14.62

>  <PEOE_VSA2>
0

>  <PEOE_VSA3>
8.42

>  <PEOE_VSA4>
4.31

>  <PEOE_VSA5>
0

>  <PEOE_VSA6>
23.73

>  <PEOE_VSA7>
80.43

>  <PEOE_VSA8>
42.41

>  <PEOE_VSA9>
4.9

>  <PEOE_VSA10>
11.85

>  <PEOE_VSA11>
0

>  <PEOE_VSA12>
10.02

>  <PEOE_VSA13>
0

>  <SMR_VSA1>
13.15

>  <SMR_VSA2>
0

>  <SMR_VSA3>
14.19

>  <SMR_VSA4>
0

>  <SMR_VSA5>
49.15

>  <SMR_VSA6>
26.18

>  <SMR_VSA7>
59.75

>  <SMR_VSA8>
0

>  <SMR_VSA9>
5.75

>  <SlogP_VSA1>
4.74

>  <SlogP_VSA2>
60.93

>  <SlogP_VSA3>
10.02

>  <SlogP_VSA4>
0

>  <SlogP_VSA5>
32.1

>  <SlogP_VSA6>
59.62

>  <SlogP_VSA7>
5.02

>  <SlogP_VSA8>
10.9

>  <SlogP_VSA9>
0

>  <SlogP_VSA10>
0

>  <SlogP_VSA11>
5.75

>  <EState_VSA1>
10.02

>  <EState_VSA2>
12.15

>  <EState_VSA3>
16.46

>  <EState_VSA4>
68.39

>  <EState_VSA5>
0

>  <EState_VSA6>
16.44

>  <EState_VSA7>
42.6

>  <EState_VSA8>
9.88

>  <EState_VSA9>
16.34

>  <EState_VSA10>
8.42

>  <VSA_EState1>
34.57

>  <VSA_EState2>
5.93

>  <VSA_EState3>
1.71

>  <VSA_EState4>
0.86

>  <VSA_EState5>
0.82

>  <VSA_EState6>
14.93

>  <VSA_EState7>
6.69

>  <VSA_EState8>
3.45

>  <VSA_EState9>
-3.49

>  <apol>
72.54

>  <bpol>
42.99

>  <nRing>
5

>  <nHRing>
3

>  <naRing>
3

>  <naHRing>
1

>  <nARing 2>
2

>  <nAHRing 2>
2

>  <nFRing>
1

>  <nFHRing>
1

>  <nFaRing>
1

>  <nFaHRing>
1

>  <nFARing 2>
0

>  <nFAHRing 2>
0

>  <nRot>
7

>  <SLogP>
4.91

>  <SMR>
131.37

>  <TopoPSA(NO)>
65.64

>  <TopoPSA>
74.02

>  <JGI1>
0.2

>  <JGI2>
0.08

>  <JGI3>
0.05

>  <JGI4>
0.04

>  <JGI5>
0.02

>  <Diameter>
18

>  <Radius>
9

>  <TMWC10>
148.41

>  <TSRW10>
85.04

>  <MW>
487.17

>  <AMW>
7.73

>  <WPath>
3736

>  <WPol>
51

>  <Zagreb1>
180

>  <Zagreb2>
213

>  <mZagreb2>
7.06

>  <yes>


>  <nAR-cont>
1

>  <nHA-cont>
0.61399562

>  <MWHBN>
0.226532092

>  <MWHBN-cont>
0.990031554

>  <TPSA-cont>
0.483294436

>  <pka_cont>
0.97

>  <yes.1>


>  <BBB_SCORE>
4.550631824

>  <MMFF94 Energy>
0.65661

$$$$
Compound 364
Actelion Java MolfileCreator 2.0

  0  0  0  0  0  0              0 V3000
M  V30 BEGIN CTAB
M  V30 COUNTS 18 18 0 0 0
M  V30 BEGIN ATOM
M  V30 1 S -1.4236 0.3952 1.2653 0
M  V30 2 C -0.2827 0.3679 -0.0412 0
M  V30 3 C -0.7266 -1.0206 1.9236 0
M  V30 4 N 0.5692 -0.6428 0.0179 0
M  V30 5 N -0.3722 1.3604 -0.9652 0
M  V30 6 C 0.3187 -1.4271 1.126 0
M  V30 7 C -1.2568 -1.6247 3.1713 0
M  V30 8 C 0.4258 1.3456 -1.98 0
M  V30 9 N 0.3491 2.3242 -2.9046 0
M  V30 10 N 1.3848 0.4541 -2.3014 0
M  V30 11 H 0.9395 -2.2965 1.306 0
M  V30 12 H -0.6908 -2.5219 3.4427 0
M  V30 13 H -2.3053 -1.9152 3.0484 0
M  V30 14 H -1.186 -0.9195 4.0061 0
M  V30 15 H 0.7759 2.2345 -3.8112 0
M  V30 16 H -0.3547 3.0374 -2.7707 0
M  V30 17 H 1.5281 -0.314 -1.6473 0
M  V30 18 H 2.1193 0.6607 -2.9559 0
M  V30 END ATOM
M  V30 BEGIN BOND
M  V30 1 1 1 2
M  V30 2 1 1 3
M  V30 3 2 2 4
M  V30 4 1 2 5
M  V30 5 2 3 6
M  V30 6 1 3 7
M  V30 7 2 5 8
M  V30 8 1 8 9
M  V30 9 1 8 10
M  V30 10 1 4 6
M  V30 11 1 6 11
M  V30 12 1 7 12
M  V30 13 1 7 13
M  V30 14 1 7 14
M  V30 15 1 9 15
M  V30 16 1 9 16
M  V30 17 1 10 17
M  V30 18 1 10 18
M  V30 END BOND
M  V30 END CTAB
M  END
>  <Column 1>
455

>  <level_0>
515

>  <index>
515

>  <Unnamed: 0>
515

>  <NO.>
518

>  <Name>
ici 17148

>  <IUPAC_name>
2-(5-methyl-1-3-thiazol-2-yl)guanidine

>  <SMILES>
Cc1cnc(N=C(N)N)s1

>  <CID>
23545906

>  <logBB>
-0.04

>  <BBB+/BBB->
BBB+

>  <Inchi>
InChI=1S/C5H8N4S/c1-3-2-8-5(10-3)9-4(6)7/h2H-1H3-(H4-6-7-8-9)

>  <threshold>


>  <reference>
R2|R2|R12|R25|R27|R46|

>  <group>
A

>  <Class>
1

>  <ABC>
7.4

>  <ABCGG>
7.31

>  <nAcid>
0

>  <nBase>
3

>  <nAromAtom>
5

>  <nAromBond>
5

>  <nAtom>
18

>  <nHeavyAtom>
10

>  <nSpiro>
0

>  <nBridgehead>
0

>  <nHetero>
5

>  <nN>
4

>  <nO>
0

>  <nF>
0

>  <BalabanJ>
2.18

>  <BertzCT>
247.91

>  <nBonds>
18

>  <nBondsO>
10

>  <nBondsS>
12

>  <nBondsD>
1

>  <nBondsT>
0

>  <nBondsA>
5

>  <nBondsM>
6

>  <nBondsKS>
15

>  <nBondsKD>
3

>  <RNCG>
0.29

>  <RPCG>
0.17

>  <FCSP3>
0.2

>  <SZ>
13.67

>  <Sm>
13.01

>  <Sv>
11.39

>  <Sse>
18.28

>  <Sp>
12.57

>  <Si>
20.74

>  <MZ>
0.76

>  <Mm>
0.72

>  <Mv>
0.63

>  <Mse>
1.02

>  <Mp>
0.7

>  <Mi>
1.15

>  <NsCH3>
1

>  <NdCH2>
0

>  <NssCH2>
0

>  <NtCH>
0

>  <NdsCH>
0

>  <NaaCH>
1

>  <NsssCH>
0

>  <NddC>
0

>  <NtsC>
0

>  <NdssC>
1

>  <NaasC>
2

>  <NaaaC>
0

>  <NssssC>
0

>  <NsNH3>
0

>  <NsNH2>
2

>  <NssNH2>
0

>  <NdNH>
0

>  <NssNH>
0

>  <NaaNH>
0

>  <NtN>
0

>  <NsssNH>
0

>  <NdsN>
1

>  <NaaN>
1

>  <NsssN>
0

>  <NddsN>
0

>  <NaasN>
0

>  <NssssN>
0

>  <NsOH>
0

>  <NdO>
0

>  <NssO>
0

>  <NaaO>
0

>  <NsF>
0

>  <NsSiH3>
0

>  <NssSiH2>
0

>  <NsssSiH>
0

>  <NssssSi>
0

>  <NsPH2>
0

>  <NssPH>
0

>  <NsssP>
0

>  <NdsssP>
0

>  <NsssssP>
0

>  <NsSH>
0

>  <NdS>
0

>  <NssS>
0

>  <NaaS>
1

>  <NdssS>
0

>  <NddssS>
0

>  <NsCl>
0

>  <NsBr>
0

>  <NsI>
0

>  <fragCpx>
10.05

>  <fMF>
0.28

>  <nHBAcc>
3

>  <nHBDon>
2

>  <Kier1>
8.1

>  <Kier2>
3.41

>  <Lipinski>
1

>  <GhoseFilter>
0

>  <FilterItLogS>
-0.89

>  <VMcGowan>
113.82

>  <LabuteASA>
62.6

>  <PEOE_VSA1>
11.47

>  <PEOE_VSA2>
0

>  <PEOE_VSA3>
4.98

>  <PEOE_VSA4>
4.99

>  <PEOE_VSA5>
11.34

>  <PEOE_VSA6>
0

>  <PEOE_VSA7>
6.92

>  <PEOE_VSA8>
11.07

>  <PEOE_VSA9>
0

>  <PEOE_VSA10>
0

>  <PEOE_VSA11>
5.96

>  <PEOE_VSA12>
5.13

>  <PEOE_VSA13>
0

>  <SMR_VSA1>
0

>  <SMR_VSA2>
0

>  <SMR_VSA3>
4.98

>  <SMR_VSA4>
16.46

>  <SMR_VSA5>
6.92

>  <SMR_VSA6>
0

>  <SMR_VSA7>
11.07

>  <SMR_VSA8>
0

>  <SMR_VSA9>
0

>  <SlogP_VSA1>
11.47

>  <SlogP_VSA2>
10.94

>  <SlogP_VSA3>
0

>  <SlogP_VSA4>
6.92

>  <SlogP_VSA5>
4.88

>  <SlogP_VSA6>
11.19

>  <SlogP_VSA7>
0

>  <SlogP_VSA8>
0

>  <SlogP_VSA9>
0

>  <SlogP_VSA10>
5.13

>  <SlogP_VSA11>
0

>  <EState_VSA1>
0

>  <EState_VSA2>
5.96

>  <EState_VSA3>
5.13

>  <EState_VSA4>
4.88

>  <EState_VSA5>
11.34

>  <EState_VSA6>
6.2

>  <EState_VSA7>
6.92

>  <EState_VSA8>
9.98

>  <EState_VSA9>
11.47

>  <EState_VSA10>
0

>  <VSA_EState1>
0

>  <VSA_EState2>
8.78

>  <VSA_EState3>
0.61

>  <VSA_EState4>
10.26

>  <VSA_EState5>
0.05

>  <VSA_EState6>
0

>  <VSA_EState7>
1.73

>  <VSA_EState8>
1.95

>  <VSA_EState9>
0

>  <apol>
20.98

>  <bpol>
11.63

>  <nRing>
1

>  <nHRing>
1

>  <naRing>
1

>  <naHRing>
1

>  <nARing 2>
0

>  <nAHRing 2>
0

>  <nFRing>
0

>  <nFHRing>
0

>  <nFaRing>
0

>  <nFaHRing>
0

>  <nFARing 2>
0

>  <nFAHRing 2>
0

>  <nRot>
1

>  <SLogP>
0.36

>  <SMR>
42.32

>  <TopoPSA(NO)>
77.29

>  <TopoPSA>
105.53

>  <JGI1>
0.3

>  <JGI2>
0.05

>  <JGI3>
0.1

>  <JGI4>
0.03

>  <JGI5>
0.05

>  <Diameter>
6

>  <Radius>
3

>  <TMWC10>
83.24

>  <TSRW10>
52.27

>  <MW>
156.05

>  <AMW>
8.67

>  <WPath>
125

>  <WPol>
8

>  <Zagreb1>
46

>  <Zagreb2>
49

>  <mZagreb2>
2.25

>  <yes>


>  <nAR-cont>
0.336376

>  <nHA-cont>
0.645914733

>  <MWHBN>
0.400256246

>  <MWHBN-cont>
0.475052292

>  <TPSA-cont>
0.26333507

>  <pka_cont>
0.97

>  <yes.1>


>  <BBB_SCORE>
2.706539312

>  <MMFF94 Energy>
-118.82

$$$$
Compound 365
Actelion Java MolfileCreator 2.0

  0  0  0  0  0  0              0 V3000
M  V30 BEGIN CTAB
M  V30 COUNTS 18 18 0 0 0
M  V30 BEGIN ATOM
M  V30 1 S 0.4743 0.8698 2.3735 0
M  V30 2 C -0.2268 0.1628 0.9546 0
M  V30 3 C 1.8674 1.2994 1.4819 0
M  V30 4 N 0.5429 0.2505 -0.1181 0
M  V30 5 N -1.4619 -0.39 1.0798 0
M  V30 6 C 1.7352 0.893 0.1712 0
M  V30 7 C -1.9939 -0.9718 0.0572 0
M  V30 8 C 2.7227 1.0788 -0.9209 0
M  V30 9 N -3.2191 -1.5247 0.1651 0
M  V30 10 N -1.4975 -1.1403 -1.185 0
M  V30 11 H 2.6939 1.8156 1.9482 0
M  V30 12 H 2.3088 1.73 -1.6971 0
M  V30 13 H 2.9719 0.1145 -1.3744 0
M  V30 14 H 3.6483 1.5314 -0.5516 0
M  V30 15 H -3.5692 -2.1791 -0.5141 0
M  V30 16 H -3.6757 -1.4729 1.0656 0
M  V30 17 H -0.5795 -0.7359 -1.3643 0
M  V30 18 H -2.0784 -1.364 -1.9744 0
M  V30 END ATOM
M  V30 BEGIN BOND
M  V30 1 1 1 2
M  V30 2 1 1 3
M  V30 3 2 2 4
M  V30 4 1 2 5
M  V30 5 2 3 6
M  V30 6 2 5 7
M  V30 7 1 6 8
M  V30 8 1 7 9
M  V30 9 1 7 10
M  V30 10 1 4 6
M  V30 11 1 3 11
M  V30 12 1 8 12
M  V30 13 1 8 13
M  V30 14 1 8 14
M  V30 15 1 9 15
M  V30 16 1 9 16
M  V30 17 1 10 17
M  V30 18 1 10 18
M  V30 END BOND
M  V30 END CTAB
M  END
>  <Column 1>
456

>  <level_0>
516

>  <index>
516

>  <Unnamed: 0>
516

>  <NO.>
519

>  <Name>
b-038;ici17148

>  <IUPAC_name>
2-(4-methyl-1-3-thiazol-2-yl)guanidine

>  <SMILES>
Cc1csc(N=C(N)N)n1

>  <CID>
2776666

>  <logBB>
-0.04

>  <BBB+/BBB->
BBB+

>  <Inchi>
InChI=1S/C5H8N4S/c1-3-2-10-5(8-3)9-4(6)7/h2H-1H3-(H4-6-7-8-9)

>  <threshold>


>  <reference>
R3|R3|R18|R21|R26|R27|R27|R35|R36|R38|R41|R43|R47|R48|R49|R4|R2|R2|R8|R27|R40|

>  <group>
A

>  <Class>
1

>  <ABC>
7.4

>  <ABCGG>
7.31

>  <nAcid>
0

>  <nBase>
3

>  <nAromAtom>
5

>  <nAromBond>
5

>  <nAtom>
18

>  <nHeavyAtom>
10

>  <nSpiro>
0

>  <nBridgehead>
0

>  <nHetero>
5

>  <nN>
4

>  <nO>
0

>  <nF>
0

>  <BalabanJ>
2.18

>  <BertzCT>
247.91

>  <nBonds>
18

>  <nBondsO>
10

>  <nBondsS>
12

>  <nBondsD>
1

>  <nBondsT>
0

>  <nBondsA>
5

>  <nBondsM>
6

>  <nBondsKS>
15

>  <nBondsKD>
3

>  <RNCG>
0.29

>  <RPCG>
0.17

>  <FCSP3>
0.2

>  <SZ>
13.67

>  <Sm>
13.01

>  <Sv>
11.39

>  <Sse>
18.28

>  <Sp>
12.57

>  <Si>
20.74

>  <MZ>
0.76

>  <Mm>
0.72

>  <Mv>
0.63

>  <Mse>
1.02

>  <Mp>
0.7

>  <Mi>
1.15

>  <NsCH3>
1

>  <NdCH2>
0

>  <NssCH2>
0

>  <NtCH>
0

>  <NdsCH>
0

>  <NaaCH>
1

>  <NsssCH>
0

>  <NddC>
0

>  <NtsC>
0

>  <NdssC>
1

>  <NaasC>
2

>  <NaaaC>
0

>  <NssssC>
0

>  <NsNH3>
0

>  <NsNH2>
2

>  <NssNH2>
0

>  <NdNH>
0

>  <NssNH>
0

>  <NaaNH>
0

>  <NtN>
0

>  <NsssNH>
0

>  <NdsN>
1

>  <NaaN>
1

>  <NsssN>
0

>  <NddsN>
0

>  <NaasN>
0

>  <NssssN>
0

>  <NsOH>
0

>  <NdO>
0

>  <NssO>
0

>  <NaaO>
0

>  <NsF>
0

>  <NsSiH3>
0

>  <NssSiH2>
0

>  <NsssSiH>
0

>  <NssssSi>
0

>  <NsPH2>
0

>  <NssPH>
0

>  <NsssP>
0

>  <NdsssP>
0

>  <NsssssP>
0

>  <NsSH>
0

>  <NdS>
0

>  <NssS>
0

>  <NaaS>
1

>  <NdssS>
0

>  <NddssS>
0

>  <NsCl>
0

>  <NsBr>
0

>  <NsI>
0

>  <fragCpx>
10.05

>  <fMF>
0.28

>  <nHBAcc>
3

>  <nHBDon>
2

>  <Kier1>
8.1

>  <Kier2>
3.41

>  <Lipinski>
1

>  <GhoseFilter>
0

>  <FilterItLogS>
-0.89

>  <VMcGowan>
113.82

>  <LabuteASA>
62.6

>  <PEOE_VSA1>
11.47

>  <PEOE_VSA2>
0

>  <PEOE_VSA3>
4.98

>  <PEOE_VSA4>
4.99

>  <PEOE_VSA5>
11.34

>  <PEOE_VSA6>
0

>  <PEOE_VSA7>
6.92

>  <PEOE_VSA8>
5.38

>  <PEOE_VSA9>
5.69

>  <PEOE_VSA10>
0

>  <PEOE_VSA11>
5.96

>  <PEOE_VSA12>
5.13

>  <PEOE_VSA13>
0

>  <SMR_VSA1>
0

>  <SMR_VSA2>
0

>  <SMR_VSA3>
4.98

>  <SMR_VSA4>
16.46

>  <SMR_VSA5>
6.92

>  <SMR_VSA6>
0

>  <SMR_VSA7>
11.07

>  <SMR_VSA8>
0

>  <SMR_VSA9>
0

>  <SlogP_VSA1>
11.47

>  <SlogP_VSA2>
10.94

>  <SlogP_VSA3>
0

>  <SlogP_VSA4>
6.92

>  <SlogP_VSA5>
5.69

>  <SlogP_VSA6>
10.37

>  <SlogP_VSA7>
0

>  <SlogP_VSA8>
0

>  <SlogP_VSA9>
0

>  <SlogP_VSA10>
5.13

>  <SlogP_VSA11>
0

>  <EState_VSA1>
0

>  <EState_VSA2>
5.96

>  <EState_VSA3>
5.13

>  <EState_VSA4>
5.69

>  <EState_VSA5>
11.34

>  <EState_VSA6>
0

>  <EState_VSA7>
12.3

>  <EState_VSA8>
9.98

>  <EState_VSA9>
11.47

>  <EState_VSA10>
0

>  <VSA_EState1>
0

>  <VSA_EState2>
7.78

>  <VSA_EState3>
2.5

>  <VSA_EState4>
11.19

>  <VSA_EState5>
0.05

>  <VSA_EState6>
0

>  <VSA_EState7>
0

>  <VSA_EState8>
1.89

>  <VSA_EState9>
0

>  <apol>
20.98

>  <bpol>
11.63

>  <nRing>
1

>  <nHRing>
1

>  <naRing>
1

>  <naHRing>
1

>  <nARing 2>
0

>  <nAHRing 2>
0

>  <nFRing>
0

>  <nFHRing>
0

>  <nFaRing>
0

>  <nFaHRing>
0

>  <nFARing 2>
0

>  <nFAHRing 2>
0

>  <nRot>
1

>  <SLogP>
0.36

>  <SMR>
42.32

>  <TopoPSA(NO)>
77.29

>  <TopoPSA>
105.53

>  <JGI1>
0.3

>  <JGI2>
0.05

>  <JGI3>
0.1

>  <JGI4>
0.03

>  <JGI5>
0.05

>  <Diameter>
6

>  <Radius>
3

>  <TMWC10>
83.24

>  <TSRW10>
52.27

>  <MW>
156.05

>  <AMW>
8.67

>  <WPath>
125

>  <WPol>
8

>  <Zagreb1>
46

>  <Zagreb2>
49

>  <mZagreb2>
2.25

>  <yes>


>  <nAR-cont>
0.336376

>  <nHA-cont>
0.645914733

>  <MWHBN>
0.400256246

>  <MWHBN-cont>
0.475052292

>  <TPSA-cont>
0.26333507

>  <pka_cont>
0.97

>  <yes.1>


>  <BBB_SCORE>
2.706539312

>  <MMFF94 Energy>
-118.64

$$$$
Compound 366
Actelion Java MolfileCreator 2.0

  0  0  0  0  0  0              0 V3000
M  V30 BEGIN CTAB
M  V30 COUNTS 25 26 0 0 0
M  V30 BEGIN ATOM
M  V30 1 S -0.4788 -2.9556 1.1974 0
M  V30 2 C -1.334 -1.4547 1.3597 0
M  V30 3 C 0.6822 -2.1942 0.1979 0
M  V30 4 N -0.7767 -0.4503 0.7046 0
M  V30 5 N -2.4562 -1.4604 2.1254 0
M  V30 6 C 0.3614 -0.8654 0.0475 0
M  V30 7 C -3.1487 -0.3753 2.2312 0
M  V30 8 C 1.1937 0.1305 -0.7925 0
M  V30 9 N -4.2644 -0.3664 2.9883 0
M  V30 10 N -2.9375 0.832 1.67 0
M  V30 11 N 2.3368 -0.1223 -1.4979 0
M  V30 12 C 0.9399 1.4659 -0.9897 0
M  V30 13 C 2.732 1.0523 -2.0908 0
M  V30 14 N 1.8989 2.0286 -1.7958 0
M  V30 15 C 3.9437 1.1429 -2.9378 0
M  V30 16 H 1.5109 -2.7517 -0.2095 0
M  V30 17 H -4.9429 0.3744 2.9315 0
M  V30 18 H -4.5288 -1.2296 3.443 0
M  V30 19 H -2.1055 0.9292 1.0908 0
M  V30 20 H -3.3859 1.6708 1.9966 0
M  V30 21 H 2.8121 -1.0091 -1.5751 0
M  V30 22 H 0.12 2.0516 -0.5954 0
M  V30 23 H 3.8624 0.4728 -3.7991 0
M  V30 24 H 4.8351 0.8694 -2.3651 0
M  V30 25 H 4.0776 2.1629 -3.3108 0
M  V30 END ATOM
M  V30 BEGIN BOND
M  V30 1 1 1 2
M  V30 2 1 1 3
M  V30 3 2 2 4
M  V30 4 1 2 5
M  V30 5 2 3 6
M  V30 6 2 5 7
M  V30 7 1 6 8
M  V30 8 1 7 9
M  V30 9 1 7 10
M  V30 10 1 8 11
M  V30 11 2 8 12
M  V30 12 1 11 13
M  V30 13 1 12 14
M  V30 14 1 13 15
M  V30 15 1 4 6
M  V30 16 2 13 14
M  V30 17 1 3 16
M  V30 18 1 9 17
M  V30 19 1 9 18
M  V30 20 1 10 19
M  V30 21 1 10 20
M  V30 22 1 11 21
M  V30 23 1 12 22
M  V30 24 1 15 23
M  V30 25 1 15 24
M  V30 26 1 15 25
M  V30 END BOND
M  V30 END CTAB
M  END
>  <Column 1>
457

>  <level_0>
517

>  <index>
517

>  <Unnamed: 0>
517

>  <NO.>
520

>  <Name>
zaltidine

>  <IUPAC_name>
2-[4-(2-methyl-1h-imidazol-5-yl)-1-3-thiazol-2-yl]guanidine

>  <SMILES>
Cc1ncc(-c2csc(N=C(N)N)n2)[nH]1

>  <CID>
56051

>  <logBB>
-0.04

>  <BBB+/BBB->
BBB+

>  <Inchi>
InChI=1S/C8H10N6S/c1-4-11-2-5(12-4)6-3-15-8(13-6)14-7(9)10/h2-3H-1H3-(H-11-12)(H4-9-10-13-14)

>  <threshold>


>  <reference>
R2|R2|R20|R25|R27|R46|

>  <group>
A

>  <Class>
1

>  <ABC>
11.6

>  <ABCGG>
10.66

>  <nAcid>
0

>  <nBase>
3

>  <nAromAtom>
10

>  <nAromBond>
10

>  <nAtom>
25

>  <nHeavyAtom>
15

>  <nSpiro>
0

>  <nBridgehead>
0

>  <nHetero>
7

>  <nN>
6

>  <nO>
0

>  <nF>
0

>  <BalabanJ>
1.77

>  <BertzCT>
492.71

>  <nBonds>
26

>  <nBondsO>
16

>  <nBondsS>
15

>  <nBondsD>
1

>  <nBondsT>
0

>  <nBondsA>
10

>  <nBondsM>
11

>  <nBondsKS>
21

>  <nBondsKD>
5

>  <RNCG>
0.2

>  <RPCG>
0.12

>  <FCSP3>
0.13

>  <SZ>
19.33

>  <Sm>
18.51

>  <Sv>
16.44

>  <Sse>
25.49

>  <Sp>
17.68

>  <Si>
28.74

>  <MZ>
0.77

>  <Mm>
0.74

>  <Mv>
0.66

>  <Mse>
1.02

>  <Mp>
0.71

>  <Mi>
1.15

>  <NsCH3>
1

>  <NdCH2>
0

>  <NssCH2>
0

>  <NtCH>
0

>  <NdsCH>
0

>  <NaaCH>
2

>  <NsssCH>
0

>  <NddC>
0

>  <NtsC>
0

>  <NdssC>
1

>  <NaasC>
4

>  <NaaaC>
0

>  <NssssC>
0

>  <NsNH3>
0

>  <NsNH2>
2

>  <NssNH2>
0

>  <NdNH>
0

>  <NssNH>
0

>  <NaaNH>
1

>  <NtN>
0

>  <NsssNH>
0

>  <NdsN>
1

>  <NaaN>
2

>  <NsssN>
0

>  <NddsN>
0

>  <NaasN>
0

>  <NssssN>
0

>  <NsOH>
0

>  <NdO>
0

>  <NssO>
0

>  <NaaO>
0

>  <NsF>
0

>  <NsSiH3>
0

>  <NssSiH2>
0

>  <NsssSiH>
0

>  <NssssSi>
0

>  <NsPH2>
0

>  <NssPH>
0

>  <NsssP>
0

>  <NdsssP>
0

>  <NsssssP>
0

>  <NsSH>
0

>  <NdS>
0

>  <NssS>
0

>  <NaaS>
1

>  <NdssS>
0

>  <NddssS>
0

>  <NsCl>
0

>  <NsBr>
0

>  <NsI>
0

>  <fragCpx>
46.07

>  <fMF>
0.4

>  <nHBAcc>
4

>  <nHBDon>
3

>  <Kier1>
11.48

>  <Kier2>
4.89

>  <Lipinski>
1

>  <GhoseFilter>
1

>  <FilterItLogS>
-2.12

>  <VMcGowan>
156.59

>  <LabuteASA>
90.08

>  <PEOE_VSA1>
16.45

>  <PEOE_VSA2>
0

>  <PEOE_VSA3>
9.97

>  <PEOE_VSA4>
4.99

>  <PEOE_VSA5>
11.34

>  <PEOE_VSA6>
0

>  <PEOE_VSA7>
6.92

>  <PEOE_VSA8>
5.38

>  <PEOE_VSA9>
11.89

>  <PEOE_VSA10>
11.52

>  <PEOE_VSA11>
5.96

>  <PEOE_VSA12>
5.13

>  <PEOE_VSA13>
0

>  <SMR_VSA1>
0

>  <SMR_VSA2>
0

>  <SMR_VSA3>
14.95

>  <SMR_VSA4>
16.46

>  <SMR_VSA5>
6.92

>  <SMR_VSA6>
0

>  <SMR_VSA7>
17.4

>  <SMR_VSA8>
0

>  <SMR_VSA9>
11.39

>  <SlogP_VSA1>
11.47

>  <SlogP_VSA2>
20.91

>  <SlogP_VSA3>
0

>  <SlogP_VSA4>
6.92

>  <SlogP_VSA5>
5.82

>  <SlogP_VSA6>
16.57

>  <SlogP_VSA7>
0

>  <SlogP_VSA8>
11.39

>  <SlogP_VSA9>
0

>  <SlogP_VSA10>
5.13

>  <SlogP_VSA11>
0

>  <EState_VSA1>
0

>  <EState_VSA2>
5.96

>  <EState_VSA3>
5.13

>  <EState_VSA4>
17.21

>  <EState_VSA5>
11.34

>  <EState_VSA6>
6.2

>  <EState_VSA7>
12.3

>  <EState_VSA8>
19.94

>  <EState_VSA9>
11.47

>  <EState_VSA10>
0

>  <VSA_EState1>
0

>  <VSA_EState2>
15.26

>  <VSA_EState3>
2.41

>  <VSA_EState4>
12.16

>  <VSA_EState5>
0.86

>  <VSA_EState6>
0

>  <VSA_EState7>
1.73

>  <VSA_EState8>
1.88

>  <VSA_EState9>
0

>  <apol>
29.53

>  <bpol>
15.34

>  <nRing>
2

>  <nHRing>
2

>  <naRing>
2

>  <naHRing>
2

>  <nARing 2>
0

>  <nAHRing 2>
0

>  <nFRing>
0

>  <nFHRing>
0

>  <nFaRing>
0

>  <nFaHRing>
0

>  <nFARing 2>
0

>  <nFAHRing 2>
0

>  <nRot>
2

>  <SLogP>
0.75

>  <SMR>
59.9

>  <TopoPSA(NO)>
105.97

>  <TopoPSA>
134.21

>  <JGI1>
0.25

>  <JGI2>
0.06

>  <JGI3>
0.06

>  <JGI4>
0.04

>  <JGI5>
0.03

>  <Diameter>
9

>  <Radius>
5

>  <TMWC10>
100.54

>  <TSRW10>
62.2

>  <MW>
222.07

>  <AMW>
8.88

>  <WPath>
392

>  <WPol>
16

>  <Zagreb1>
76

>  <Zagreb2>
86

>  <mZagreb2>
3.28

>  <yes>


>  <nAR-cont>
0.336376

>  <nHA-cont>
0.92539861

>  <MWHBN>
0.469735187

>  <MWHBN-cont>
0

>  <TPSA-cont>
0

>  <pka_cont>
0.97

>  <yes.1>


>  <BBB_SCORE>
1.74677461

>  <MMFF94 Energy>
-129.44

$$$$
Compound 367
Actelion Java MolfileCreator 2.0

  0  0  0  0  0  0              0 V3000
M  V30 BEGIN CTAB
M  V30 COUNTS 16 17 0 0 0
M  V30 BEGIN ATOM
M  V30 1 O -1.5977 -0.8785 -1.3579 0
M  V30 2 C -0.5 -0.4186 -0.6995 0
M  V30 3 C -2.6403 -0.5325 -0.423 0
M  V30 4 C -0.8166 0.1519 0.5121 0
M  V30 5 C 0.8002 -0.4906 -1.1491 0
M  V30 6 O -2.1521 0.122 0.7668 0
M  V30 7 C 0.1495 0.6821 1.3417 0
M  V30 8 C 1.7906 0.0395 -0.3253 0
M  V30 9 C 1.4792 0.6239 0.9127 0
M  V30 10 O 3.0809 -0.0286 -0.7648 0
M  V30 11 H -3.3521 0.1348 -0.9227 0
M  V30 12 H -3.1652 -1.4486 -0.1283 0
M  V30 13 H 1.043 -0.9409 -2.1038 0
M  V30 14 H -0.1169 1.128 2.2933 0
M  V30 15 H 2.2578 1.0347 1.5485 0
M  V30 16 H 3.6604 0.3744 -0.0976 0
M  V30 END ATOM
M  V30 BEGIN BOND
M  V30 1 1 1 2
M  V30 2 1 1 3
M  V30 3 2 2 4
M  V30 4 1 2 5
M  V30 5 1 3 6
M  V30 6 1 4 7
M  V30 7 2 5 8
M  V30 8 2 7 9
M  V30 9 1 8 10
M  V30 10 1 4 6
M  V30 11 1 8 9
M  V30 12 1 3 11
M  V30 13 1 3 12
M  V30 14 1 5 13
M  V30 15 1 7 14
M  V30 16 1 9 15
M  V30 17 1 10 16
M  V30 END BOND
M  V30 END CTAB
M  END
>  <Column 1>
458

>  <level_0>
518

>  <index>
518

>  <Unnamed: 0>
518

>  <NO.>
522

>  <Name>
sesamol

>  <IUPAC_name>
1-3-benzodioxol-5-ol

>  <SMILES>
Oc1ccc2c(c1)OCO2

>  <CID>
68289

>  <logBB>
-0.04

>  <BBB+/BBB->
BBB+

>  <Inchi>
InChI=1S/C7H6O3/c8-5-1-2-6-7(3-5)10-4-9-6/h1-3-8H-4H2

>  <threshold>


>  <reference>
R18|R26|R27|

>  <group>
A

>  <Class>
1

>  <ABC>
7.85

>  <ABCGG>
7.26

>  <nAcid>
0

>  <nBase>
0

>  <nAromAtom>
6

>  <nAromBond>
6

>  <nAtom>
16

>  <nHeavyAtom>
10

>  <nSpiro>
0

>  <nBridgehead>
0

>  <nHetero>
3

>  <nN>
0

>  <nO>
3

>  <nF>
0

>  <BalabanJ>
1.96

>  <BertzCT>
257.03

>  <nBonds>
17

>  <nBondsO>
11

>  <nBondsS>
11

>  <nBondsD>
0

>  <nBondsT>
0

>  <nBondsA>
6

>  <nBondsM>
6

>  <nBondsKS>
14

>  <nBondsKD>
3

>  <RNCG>
0.35

>  <RPCG>
0.2

>  <FCSP3>
0.14

>  <SZ>
12

>  <Sm>
11.5

>  <Sv>
10.77

>  <Sse>
16.66

>  <Sp>
10.84

>  <Si>
17.87

>  <MZ>
0.75

>  <Mm>
0.72

>  <Mv>
0.67

>  <Mse>
1.04

>  <Mp>
0.68

>  <Mi>
1.12

>  <NsCH3>
0

>  <NdCH2>
0

>  <NssCH2>
1

>  <NtCH>
0

>  <NdsCH>
0

>  <NaaCH>
3

>  <NsssCH>
0

>  <NddC>
0

>  <NtsC>
0

>  <NdssC>
0

>  <NaasC>
3

>  <NaaaC>
0

>  <NssssC>
0

>  <NsNH3>
0

>  <NsNH2>
0

>  <NssNH2>
0

>  <NdNH>
0

>  <NssNH>
0

>  <NaaNH>
0

>  <NtN>
0

>  <NsssNH>
0

>  <NdsN>
0

>  <NaaN>
0

>  <NsssN>
0

>  <NddsN>
0

>  <NaasN>
0

>  <NssssN>
0

>  <NsOH>
1

>  <NdO>
0

>  <NssO>
2

>  <NaaO>
0

>  <NsF>
0

>  <NsSiH3>
0

>  <NssSiH2>
0

>  <NsssSiH>
0

>  <NssssSi>
0

>  <NsPH2>
0

>  <NssPH>
0

>  <NsssP>
0

>  <NdsssP>
0

>  <NsssssP>
0

>  <NsSH>
0

>  <NdS>
0

>  <NssS>
0

>  <NaaS>
0

>  <NdssS>
0

>  <NddssS>
0

>  <NsCl>
0

>  <NsBr>
0

>  <NsI>
0

>  <fragCpx>
31.03

>  <fMF>
0.56

>  <nHBAcc>
3

>  <nHBDon>
1

>  <Kier1>
6.69

>  <Kier2>
2.56

>  <Lipinski>
1

>  <GhoseFilter>
0

>  <FilterItLogS>
-1.09

>  <VMcGowan>
92.48

>  <LabuteASA>
57.81

>  <PEOE_VSA1>
14.58

>  <PEOE_VSA2>
0

>  <PEOE_VSA3>
0

>  <PEOE_VSA4>
0

>  <PEOE_VSA5>
0

>  <PEOE_VSA6>
0

>  <PEOE_VSA7>
12.13

>  <PEOE_VSA8>
6.07

>  <PEOE_VSA9>
0

>  <PEOE_VSA10>
5.75

>  <PEOE_VSA11>
11.5

>  <PEOE_VSA12>
6.79

>  <PEOE_VSA13>
0

>  <SMR_VSA1>
14.58

>  <SMR_VSA2>
0

>  <SMR_VSA3>
0

>  <SMR_VSA4>
0

>  <SMR_VSA5>
0

>  <SMR_VSA6>
6.79

>  <SMR_VSA7>
18.2

>  <SMR_VSA8>
0

>  <SMR_VSA9>
17.25

>  <SlogP_VSA1>
9.47

>  <SlogP_VSA2>
11.9

>  <SlogP_VSA3>
0

>  <SlogP_VSA4>
0

>  <SlogP_VSA5>
0

>  <SlogP_VSA6>
18.2

>  <SlogP_VSA7>
0

>  <SlogP_VSA8>
0

>  <SlogP_VSA9>
0

>  <SlogP_VSA10>
0

>  <SlogP_VSA11>
17.25

>  <EState_VSA1>
0

>  <EState_VSA2>
12.54

>  <EState_VSA3>
11.5

>  <EState_VSA4>
0

>  <EState_VSA5>
6.07

>  <EState_VSA6>
12.13

>  <EState_VSA7>
0

>  <EState_VSA8>
0

>  <EState_VSA9>
14.58

>  <EState_VSA10>
0

>  <VSA_EState1>
10.02

>  <VSA_EState2>
0

>  <VSA_EState3>
8.96

>  <VSA_EState4>
0

>  <VSA_EState5>
1.5

>  <VSA_EState6>
4.77

>  <VSA_EState7>
0

>  <VSA_EState8>
0.25

>  <VSA_EState9>
0

>  <apol>
18.1

>  <bpol>
9.49

>  <nRing>
2

>  <nHRing>
1

>  <naRing>
1

>  <naHRing>
0

>  <nARing 2>
1

>  <nAHRing 2>
1

>  <nFRing>
1

>  <nFHRing>
1

>  <nFaRing>
0

>  <nFaHRing>
0

>  <nFARing 2>
1

>  <nFAHRing 2>
1

>  <nRot>
0

>  <SLogP>
1.12

>  <SMR>
34.23

>  <TopoPSA(NO)>
38.69

>  <TopoPSA>
38.69

>  <JGI1>
0.18

>  <JGI2>
0.07

>  <JGI3>
0.05

>  <JGI4>
0.06

>  <JGI5>
0.04

>  <Diameter>
5

>  <Radius>
3

>  <TMWC10>
87.23

>  <TSRW10>
53.6

>  <MW>
138.03

>  <AMW>
8.63

>  <WPath>
108

>  <WPol>
11

>  <Zagreb1>
52

>  <Zagreb2>
60

>  <mZagreb2>
2.19

>  <yes>


>  <nAR-cont>
0.816016

>  <nHA-cont>
0.645914733

>  <MWHBN>
0.340465607

>  <MWHBN-cont>
0.705439557

>  <TPSA-cont>
0.729919775

>  <pka_cont>
0.97

>  <yes.1>


>  <BBB_SCORE>
4.464929619

>  <MMFF94 Energy>
6.1938

$$$$
Compound 368
Actelion Java MolfileCreator 2.0

  0  0  0  0  0  0              0 V3000
M  V30 BEGIN CTAB
M  V30 COUNTS 20 21 0 0 0
M  V30 BEGIN ATOM
M  V30 1 N -0.7956 -2.4681 2.1494 0
M  V30 2 N -1.075 -1.1853 2.3329 0
M  V30 3 N -0.3543 -2.698 0.868 0
M  V30 4 N -0.8068 -0.6003 1.1574 0
M  V30 5 C -0.3657 -1.5295 0.2611 0
M  V30 6 C -0.9881 0.8153 0.9655 0
M  V30 7 C 0.0191 -1.226 -1.1357 0
M  V30 8 C 0.2849 1.5265 0.515 0
M  V30 9 C 1.1313 -0.1823 -1.2273 0
M  V30 10 C 0.6712 1.2502 -0.9403 0
M  V30 11 H -1.3212 1.2394 1.92 0
M  V30 12 H -1.8002 0.9483 0.2423 0
M  V30 13 H 0.3716 -2.1521 -1.606 0
M  V30 14 H -0.8601 -0.9014 -1.7042 0
M  V30 15 H 0.1231 2.6068 0.6173 0
M  V30 16 H 1.1214 1.2682 1.176 0
M  V30 17 H 1.5277 -0.2027 -2.2503 0
M  V30 18 H 1.9642 -0.4457 -0.5633 0
M  V30 19 H -0.1632 1.5121 -1.6023 0
M  V30 20 H 1.4956 1.9255 -1.2017 0
M  V30 END ATOM
M  V30 BEGIN BOND
M  V30 1 2 1 2
M  V30 2 1 1 3
M  V30 3 1 2 4
M  V30 4 2 3 5
M  V30 5 1 4 6
M  V30 6 1 5 7
M  V30 7 1 6 8
M  V30 8 1 7 9
M  V30 9 1 8 10
M  V30 10 1 4 5
M  V30 11 1 9 10
M  V30 12 1 6 11
M  V30 13 1 6 12
M  V30 14 1 7 13
M  V30 15 1 7 14
M  V30 16 1 8 15
M  V30 17 1 8 16
M  V30 18 1 9 17
M  V30 19 1 9 18
M  V30 20 1 10 19
M  V30 21 1 10 20
M  V30 END BOND
M  V30 END CTAB
M  END
>  <Column 1>
459

>  <level_0>
519

>  <index>
519

>  <Unnamed: 0>
519

>  <NO.>
523

>  <Name>
pentylenetetrazole (metrazole)

>  <IUPAC_name>
6-7-8-9-tetrahydro-5h-tetrazolo[1-5-a]azepine

>  <SMILES>
C1CCc2nnnn2CC1

>  <CID>
5917

>  <logBB>
-0.03

>  <BBB+/BBB->
BBB+

>  <Inchi>
InChI=1S/C6H10N4/c1-2-4-6-7-8-9-10(6)5-3-1/h1-5H2

>  <threshold>


>  <reference>
R3|R21|R25|R27|R38|R41|R43|R46|R47|R2|R2|R8|R27|R40|

>  <group>
A

>  <Class>
1

>  <ABC>
7.74

>  <ABCGG>
7.2

>  <nAcid>
2

>  <nBase>
0

>  <nAromAtom>
5

>  <nAromBond>
5

>  <nAtom>
20

>  <nHeavyAtom>
10

>  <nSpiro>
0

>  <nBridgehead>
0

>  <nHetero>
4

>  <nN>
4

>  <nO>
0

>  <nF>
0

>  <BalabanJ>
1.95

>  <BertzCT>
196.78

>  <nBonds>
21

>  <nBondsO>
11

>  <nBondsS>
16

>  <nBondsD>
0

>  <nBondsT>
0

>  <nBondsA>
5

>  <nBondsM>
5

>  <nBondsKS>
19

>  <nBondsKD>
2

>  <RNCG>
0.42

>  <RPCG>
0.28

>  <FCSP3>
0.83

>  <SZ>
12.33

>  <Sm>
11.5

>  <Sv>
11.74

>  <Sse>
20.09

>  <Sp>
12.63

>  <Si>
23.24

>  <MZ>
0.62

>  <Mm>
0.58

>  <Mv>
0.59

>  <Mse>
1

>  <Mp>
0.63

>  <Mi>
1.16

>  <NsCH3>
0

>  <NdCH2>
0

>  <NssCH2>
5

>  <NtCH>
0

>  <NdsCH>
0

>  <NaaCH>
0

>  <NsssCH>
0

>  <NddC>
0

>  <NtsC>
0

>  <NdssC>
0

>  <NaasC>
1

>  <NaaaC>
0

>  <NssssC>
0

>  <NsNH3>
0

>  <NsNH2>
0

>  <NssNH2>
0

>  <NdNH>
0

>  <NssNH>
0

>  <NaaNH>
0

>  <NtN>
0

>  <NsssNH>
0

>  <NdsN>
0

>  <NaaN>
3

>  <NsssN>
0

>  <NddsN>
0

>  <NaasN>
1

>  <NssssN>
0

>  <NsOH>
0

>  <NdO>
0

>  <NssO>
0

>  <NaaO>
0

>  <NsF>
0

>  <NsSiH3>
0

>  <NssSiH2>
0

>  <NsssSiH>
0

>  <NssssSi>
0

>  <NsPH2>
0

>  <NssPH>
0

>  <NsssP>
0

>  <NdsssP>
0

>  <NsssssP>
0

>  <NsSH>
0

>  <NdS>
0

>  <NssS>
0

>  <NaaS>
0

>  <NdssS>
0

>  <NddssS>
0

>  <NsCl>
0

>  <NsBr>
0

>  <NsI>
0

>  <fragCpx>
31.04

>  <fMF>
0.5

>  <nHBAcc>
4

>  <nHBDon>
0

>  <Kier1>
6.69

>  <Kier2>
2.94

>  <Lipinski>
1

>  <GhoseFilter>
0

>  <FilterItLogS>
-1.02

>  <VMcGowan>
105

>  <LabuteASA>
59.23

>  <PEOE_VSA1>
0

>  <PEOE_VSA2>
0

>  <PEOE_VSA3>
4.68

>  <PEOE_VSA4>
0

>  <PEOE_VSA5>
5.1

>  <PEOE_VSA6>
6.42

>  <PEOE_VSA7>
23.27

>  <PEOE_VSA8>
12.97

>  <PEOE_VSA9>
0

>  <PEOE_VSA10>
0

>  <PEOE_VSA11>
5.82

>  <PEOE_VSA12>
0

>  <PEOE_VSA13>
0

>  <SMR_VSA1>
0

>  <SMR_VSA2>
0

>  <SMR_VSA3>
20.21

>  <SMR_VSA4>
0

>  <SMR_VSA5>
32.23

>  <SMR_VSA6>
0

>  <SMR_VSA7>
5.82

>  <SMR_VSA8>
0

>  <SMR_VSA9>
0

>  <SlogP_VSA1>
0

>  <SlogP_VSA2>
20.21

>  <SlogP_VSA3>
12.97

>  <SlogP_VSA4>
0

>  <SlogP_VSA5>
25.09

>  <SlogP_VSA6>
0

>  <SlogP_VSA7>
0

>  <SlogP_VSA8>
0

>  <SlogP_VSA9>
0

>  <SlogP_VSA10>
0

>  <SlogP_VSA11>
0

>  <EState_VSA1>
0

>  <EState_VSA2>
0

>  <EState_VSA3>
0

>  <EState_VSA4>
18.79

>  <EState_VSA5>
19.26

>  <EState_VSA6>
0

>  <EState_VSA7>
4.68

>  <EState_VSA8>
15.53

>  <EState_VSA9>
0

>  <EState_VSA10>
0

>  <VSA_EState1>
1.91

>  <VSA_EState2>
0

>  <VSA_EState3>
11.4

>  <VSA_EState4>
0

>  <VSA_EState5>
1.05

>  <VSA_EState6>
0

>  <VSA_EState7>
4.8

>  <VSA_EState8>
1

>  <VSA_EState9>
0

>  <apol>
21.09

>  <bpol>
11.74

>  <nRing>
2

>  <nHRing>
2

>  <naRing>
1

>  <naHRing>
1

>  <nARing 2>
1

>  <nAHRing 2>
1

>  <nFRing>
1

>  <nFHRing>
1

>  <nFaRing>
0

>  <nFaHRing>
0

>  <nFARing 2>
1

>  <nFAHRing 2>
1

>  <nRot>
0

>  <SLogP>
0.4

>  <SMR>
35.37

>  <TopoPSA(NO)>
43.6

>  <TopoPSA>
43.6

>  <JGI1>
0.09

>  <JGI2>
0.06

>  <JGI3>
0.03

>  <JGI4>
0.02

>  <JGI5>
0

>  <Diameter>
5

>  <Radius>
3

>  <TMWC10>
86.19

>  <TSRW10>
53.26

>  <MW>
138.09

>  <AMW>
6.9

>  <WPath>
107

>  <WPol>
13

>  <Zagreb1>
50

>  <Zagreb2>
57

>  <mZagreb2>
2.28

>  <yes>


>  <nAR-cont>
0.816016

>  <nHA-cont>
0.645914733

>  <MWHBN>
0.340391633

>  <MWHBN-cont>
0.705708701

>  <TPSA-cont>
0.695644926

>  <pka_cont>
0.97

>  <yes.1>


>  <BBB_SCORE>
4.396783637

>  <MMFF94 Energy>
-2.5659

$$$$
Compound 369
Actelion Java MolfileCreator 2.0

  0  0  0  0  0  0              0 V3000
M  V30 BEGIN CTAB
M  V30 COUNTS 51 54 0 0 0
M  V30 BEGIN ATOM
M  V30 1 Cl -5.3156 -1.0453 1.4476 0
M  V30 2 C -4.8594 -2.5623 2.1429 0
M  V30 3 C -3.5098 -2.8972 2.337 0
M  V30 4 C -5.8825 -3.4484 2.5057 0
M  V30 5 N -2.4803 -2.0031 1.9708 0
M  V30 6 C -3.2275 -4.1462 2.9031 0
M  V30 7 C -5.5739 -4.6867 3.0688 0
M  V30 8 C -1.2542 -2.3539 2.1755 0
M  V30 9 C -1.8125 -4.5023 3.1054 0
M  V30 10 C -4.2421 -5.0397 3.2692 0
M  V30 11 N -0.8997 -3.5579 2.717 0
M  V30 12 C -0.1164 -1.4439 1.7857 0
M  V30 13 O -1.472 -5.5752 3.5887 0
M  V30 14 C 0.2683 -1.695 0.3272 0
M  V30 15 C 1.516 -0.9148 -0.1085 0
M  V30 16 N 1.4449 0.5321 0.136 0
M  V30 17 C 2.7471 1.1872 -0.0503 0
M  V30 18 C 0.4105 1.2262 -0.6429 0
M  V30 19 C 3.1934 1.2939 -1.5095 0
M  V30 20 C 0.7163 1.3359 -2.1374 0
M  V30 21 C 2.1241 1.8677 -2.4537 0
M  V30 22 C 2.1874 3.3844 -2.5929 0
M  V30 23 C 2.5191 3.9396 -3.8419 0
M  V30 24 C 1.9308 4.2632 -1.5324 0
M  V30 25 C 2.591 5.3229 -4.0222 0
M  V30 26 C 2.0024 5.648 -1.7123 0
M  V30 27 C 2.3322 6.1779 -2.9561 0
M  V30 28 H -6.9235 -3.1745 2.3496 0
M  V30 29 H -6.3696 -5.3728 3.3498 0
M  V30 30 H -3.9932 -6.0041 3.7076 0
M  V30 31 H 0.0704 -3.7997 2.8586 0
M  V30 32 H 0.7422 -1.6318 2.4402 0
M  V30 33 H -0.4364 -0.4066 1.933 0
M  V30 34 H 0.4665 -2.7651 0.1816 0
M  V30 35 H -0.5797 -1.4628 -0.3281 0
M  V30 36 H 2.3603 -1.3264 0.4603 0
M  V30 37 H 1.7192 -1.139 -1.162 0
M  V30 38 H 2.7062 2.1846 0.4008 0
M  V30 39 H 3.5174 0.6582 0.5253 0
M  V30 40 H -0.5657 0.7475 -0.5083 0
M  V30 41 H 0.2729 2.2275 -0.22 0
M  V30 42 H 4.1193 1.8795 -1.5677 0
M  V30 43 H 3.4545 0.2868 -1.8611 0
M  V30 44 H 0.6203 0.3356 -2.58 0
M  V30 45 H -0.05 1.9522 -2.6238 0
M  V30 46 H 2.3694 1.4702 -3.4498 0
M  V30 47 H 2.7258 3.2952 -4.694 0
M  V30 48 H 1.6695 3.8959 -0.5459 0
M  V30 49 H 2.8484 5.7305 -4.9962 0
M  V30 50 H 1.7985 6.3127 -0.8766 0
M  V30 51 H 2.3866 7.2543 -3.0935 0
M  V30 END ATOM
M  V30 BEGIN BOND
M  V30 1 1 1 2
M  V30 2 2 2 3
M  V30 3 1 2 4
M  V30 4 1 3 5
M  V30 5 1 3 6
M  V30 6 2 4 7
M  V30 7 2 5 8
M  V30 8 1 6 9
M  V30 9 2 6 10
M  V30 10 1 8 11
M  V30 11 1 8 12
M  V30 12 2 9 13
M  V30 13 1 12 14
M  V30 14 1 14 15
M  V30 15 1 15 16
M  V30 16 1 16 17
M  V30 17 1 16 18
M  V30 18 1 17 19
M  V30 19 1 18 20
M  V30 20 1 19 21
M  V30 21 1 21 22
M  V30 22 2 22 23
M  V30 23 1 22 24
M  V30 24 1 23 25
M  V30 25 2 24 26
M  V30 26 2 25 27
M  V30 27 1 7 10
M  V30 28 1 9 11
M  V30 29 1 20 21
M  V30 30 1 26 27
M  V30 31 1 4 28
M  V30 32 1 7 29
M  V30 33 1 10 30
M  V30 34 1 11 31
M  V30 35 1 12 32
M  V30 36 1 12 33
M  V30 37 1 14 34
M  V30 38 1 14 35
M  V30 39 1 15 36
M  V30 40 1 15 37
M  V30 41 1 17 38
M  V30 42 1 17 39
M  V30 43 1 18 40
M  V30 44 1 18 41
M  V30 45 1 19 42
M  V30 46 1 19 43
M  V30 47 1 20 44
M  V30 48 1 20 45
M  V30 49 1 21 46
M  V30 50 1 23 47
M  V30 51 1 24 48
M  V30 52 1 25 49
M  V30 53 1 26 50
M  V30 54 1 27 51
M  V30 END BOND
M  V30 END CTAB
M  END
>  <Column 1>
461

>  <level_0>
522

>  <index>
522

>  <Unnamed: 0>
522

>  <NO.>
526

>  <Name>
compound-5d

>  <IUPAC_name>
8-chloro-2-[3-(4-phenylpiperidin-1-yl)propyl]-3h-quinazolin-4-one

>  <SMILES>
O=c1[nH]c(CCCN2CCC(c3ccccc3)CC2)nc2c(Cl)cccc12

>  <CID>
136104476

>  <logBB>
-0.03

>  <BBB+/BBB->
BBB+

>  <Inchi>
InChI=1S/C22H24ClN3O/c23-19-9-4-8-18-21(19)24-20(25-22(18)27)10-5-13-26-14-11-17(12-15-26)16-6-2-1-3-7-16/h1-4-6-9-17H-5-10-15H2-(H-24-25-27)

>  <threshold>


>  <reference>
R18|R26|R27|

>  <group>
A

>  <Class>
1

>  <ABC>
21.27

>  <ABCGG>
14.94

>  <nAcid>
0

>  <nBase>
1

>  <nAromAtom>
16

>  <nAromBond>
17

>  <nAtom>
51

>  <nHeavyAtom>
27

>  <nSpiro>
0

>  <nBridgehead>
0

>  <nHetero>
5

>  <nN>
3

>  <nO>
1

>  <nF>
0

>  <BalabanJ>
1.15

>  <BertzCT>
962.2

>  <nBonds>
54

>  <nBondsO>
30

>  <nBondsS>
36

>  <nBondsD>
1

>  <nBondsT>
0

>  <nBondsA>
17

>  <nBondsM>
18

>  <nBondsKS>
46

>  <nBondsKD>
8

>  <RNCG>
0.17

>  <RPCG>
0.14

>  <FCSP3>
0.36

>  <SZ>
33.67

>  <Sm>
31.8

>  <Sv>
32.58

>  <Sse>
50.74

>  <Sp>
35.34

>  <Si>
57.22

>  <MZ>
0.66

>  <Mm>
0.62

>  <Mv>
0.64

>  <Mse>
0.99

>  <Mp>
0.69

>  <Mi>
1.12

>  <NsCH3>
0

>  <NdCH2>
0

>  <NssCH2>
7

>  <NtCH>
0

>  <NdsCH>
0

>  <NaaCH>
8

>  <NsssCH>
1

>  <NddC>
0

>  <NtsC>
0

>  <NdssC>
0

>  <NaasC>
3

>  <NaaaC>
2

>  <NssssC>
0

>  <NsNH3>
0

>  <NsNH2>
0

>  <NssNH2>
0

>  <NdNH>
0

>  <NssNH>
0

>  <NaaNH>
1

>  <NtN>
0

>  <NsssNH>
0

>  <NdsN>
0

>  <NaaN>
1

>  <NsssN>
1

>  <NddsN>
0

>  <NaasN>
0

>  <NssssN>
0

>  <NsOH>
0

>  <NdO>
1

>  <NssO>
0

>  <NaaO>
0

>  <NsF>
0

>  <NsSiH3>
0

>  <NssSiH2>
0

>  <NsssSiH>
0

>  <NssssSi>
0

>  <NsPH2>
0

>  <NssPH>
0

>  <NsssP>
0

>  <NdsssP>
0

>  <NsssssP>
0

>  <NsSH>
0

>  <NdS>
0

>  <NssS>
0

>  <NaaS>
0

>  <NdssS>
0

>  <NddssS>
0

>  <NsCl>
1

>  <NsBr>
0

>  <NsI>
0

>  <fragCpx>
198.05

>  <fMF>
0.49

>  <nHBAcc>
3

>  <nHBDon>
1

>  <Kier1>
20.28

>  <Kier2>
9.67

>  <Lipinski>
1

>  <GhoseFilter>
1

>  <FilterItLogS>
-6.8

>  <VMcGowan>
291.05

>  <LabuteASA>
163.75

>  <PEOE_VSA1>
9.88

>  <PEOE_VSA2>
4.79

>  <PEOE_VSA3>
4.98

>  <PEOE_VSA4>
0

>  <PEOE_VSA5>
0

>  <PEOE_VSA6>
48

>  <PEOE_VSA7>
62.51

>  <PEOE_VSA8>
6.42

>  <PEOE_VSA9>
15.93

>  <PEOE_VSA10>
5.82

>  <PEOE_VSA11>
0

>  <PEOE_VSA12>
0

>  <PEOE_VSA13>
5.56

>  <SMR_VSA1>
0

>  <SMR_VSA2>
0

>  <SMR_VSA3>
14.87

>  <SMR_VSA4>
0

>  <SMR_VSA5>
31.6

>  <SMR_VSA6>
19.63

>  <SMR_VSA7>
75.3

>  <SMR_VSA8>
0

>  <SMR_VSA9>
0

>  <SlogP_VSA1>
5.56

>  <SlogP_VSA2>
34.5

>  <SlogP_VSA3>
6.42

>  <SlogP_VSA4>
0

>  <SlogP_VSA5>
36.57

>  <SlogP_VSA6>
53.33

>  <SlogP_VSA7>
5.02

>  <SlogP_VSA8>
10.9

>  <SlogP_VSA9>
0

>  <SlogP_VSA10>
0

>  <SlogP_VSA11>
0

>  <EState_VSA1>
0

>  <EState_VSA2>
5.56

>  <EState_VSA3>
21.84

>  <EState_VSA4>
38.3

>  <EState_VSA5>
18.41

>  <EState_VSA6>
18.2

>  <EState_VSA7>
0

>  <EState_VSA8>
45.2

>  <EState_VSA9>
11.6

>  <EState_VSA10>
4.79

>  <VSA_EState1>
0

>  <VSA_EState2>
22.21

>  <VSA_EState3>
1.08

>  <VSA_EState4>
1.95

>  <VSA_EState5>
1.41

>  <VSA_EState6>
16.14

>  <VSA_EState7>
4.17

>  <VSA_EState8>
3.3

>  <VSA_EState9>
0

>  <apol>
59.03

>  <bpol>
28.87

>  <nRing>
4

>  <nHRing>
2

>  <naRing>
3

>  <naHRing>
1

>  <nARing 2>
1

>  <nAHRing 2>
1

>  <nFRing>
1

>  <nFHRing>
1

>  <nFaRing>
1

>  <nFaHRing>
1

>  <nFARing 2>
0

>  <nFAHRing 2>
0

>  <nRot>
5

>  <SLogP>
4.39

>  <SMR>
110.55

>  <TopoPSA(NO)>
48.99

>  <TopoPSA>
48.99

>  <JGI1>
0.15

>  <JGI2>
0.07

>  <JGI3>
0.04

>  <JGI4>
0.04

>  <JGI5>
0.03

>  <Diameter>
16

>  <Radius>
8

>  <TMWC10>
132.66

>  <TSRW10>
62.18

>  <MW>
381.16

>  <AMW>
7.47

>  <WPath>
2208

>  <WPol>
42

>  <Zagreb1>
142

>  <Zagreb2>
166

>  <mZagreb2>
5.94

>  <yes>


>  <nAR-cont>
0.816016

>  <nHA-cont>
0.860070871

>  <MWHBN>
0.204883192

>  <MWHBN-cont>
0.999991933

>  <TPSA-cont>
0.658019379

>  <pka_cont>
0.97

>  <yes.1>


>  <BBB_SCORE>
4.977113529

>  <MMFF94 Energy>
17.742

$$$$
Compound 370
Actelion Java MolfileCreator 2.0

  0  0  0  0  0  0              0 V3000
M  V30 BEGIN CTAB
M  V30 COUNTS 15 14 0 0 0
M  V30 BEGIN ATOM
M  V30 1 O -2.4806 -0.9766 -0.9014 0
M  V30 2 C -1.1512 -0.5304 -1.1304 0
M  V30 3 C -0.5145 -0.1747 0.2055 0
M  V30 4 C 0.9205 0.3142 0.0332 0
M  V30 5 C 1.5528 0.6684 1.3696 0
M  V30 6 H -2.8613 -1.1959 -1.7689 0
M  V30 7 H -1.1856 0.3416 -1.7912 0
M  V30 8 H -0.5956 -1.3323 -1.6268 0
M  V30 9 H -1.1202 0.5926 0.7037 0
M  V30 10 H -0.5408 -1.0511 0.8652 0
M  V30 11 H 1.5221 -0.4612 -0.4549 0
M  V30 12 H 0.9378 1.1961 -0.6176 0
M  V30 13 H 2.5801 1.0161 1.2226 0
M  V30 14 H 0.9929 1.4651 1.8698 0
M  V30 15 H 1.5804 -0.2015 2.0335 0
M  V30 END ATOM
M  V30 BEGIN BOND
M  V30 1 1 1 2
M  V30 2 1 2 3
M  V30 3 1 3 4
M  V30 4 1 4 5
M  V30 5 1 1 6
M  V30 6 1 2 7
M  V30 7 1 2 8
M  V30 8 1 3 9
M  V30 9 1 3 10
M  V30 10 1 4 11
M  V30 11 1 4 12
M  V30 12 1 5 13
M  V30 13 1 5 14
M  V30 14 1 5 15
M  V30 END BOND
M  V30 END CTAB
M  END
>  <Column 1>
462

>  <level_0>
523

>  <index>
523

>  <Unnamed: 0>
523

>  <NO.>
527

>  <Name>
1-butanol

>  <IUPAC_name>
butan-1-ol

>  <SMILES>
CCCCO

>  <CID>
263

>  <logBB>
-0.02

>  <BBB+/BBB->
BBB+

>  <Inchi>
InChI=1S/C4H10O/c1-2-3-4-5/h5H-2-4H2-1H3

>  <threshold>


>  <reference>
R3|R38|R25|R41|R40|R2|R2|R8|R21|R27|R27|R43|R46|R47|

>  <group>
A

>  <Class>
1

>  <ABC>
2.83

>  <ABCGG>
3.15

>  <nAcid>
0

>  <nBase>
0

>  <nAromAtom>
0

>  <nAromBond>
0

>  <nAtom>
15

>  <nHeavyAtom>
5

>  <nSpiro>
0

>  <nBridgehead>
0

>  <nHetero>
1

>  <nN>
0

>  <nO>
1

>  <nF>
0

>  <BalabanJ>
2.19

>  <BertzCT>
11.12

>  <nBonds>
14

>  <nBondsO>
4

>  <nBondsS>
14

>  <nBondsD>
0

>  <nBondsT>
0

>  <nBondsA>
0

>  <nBondsM>
0

>  <nBondsKS>
14

>  <nBondsKD>
0

>  <RNCG>
0.73

>  <RPCG>
0.38

>  <FCSP3>
1

>  <SZ>
7

>  <Sm>
6.17

>  <Sv>
7.42

>  <Sse>
14.77

>  <Sp>
8.47

>  <Si>
17.29

>  <MZ>
0.47

>  <Mm>
0.41

>  <Mv>
0.49

>  <Mse>
0.98

>  <Mp>
0.56

>  <Mi>
1.15

>  <NsCH3>
1

>  <NdCH2>
0

>  <NssCH2>
3

>  <NtCH>
0

>  <NdsCH>
0

>  <NaaCH>
0

>  <NsssCH>
0

>  <NddC>
0

>  <NtsC>
0

>  <NdssC>
0

>  <NaasC>
0

>  <NaaaC>
0

>  <NssssC>
0

>  <NsNH3>
0

>  <NsNH2>
0

>  <NssNH2>
0

>  <NdNH>
0

>  <NssNH>
0

>  <NaaNH>
0

>  <NtN>
0

>  <NsssNH>
0

>  <NdsN>
0

>  <NaaN>
0

>  <NsssN>
0

>  <NddsN>
0

>  <NaasN>
0

>  <NssssN>
0

>  <NsOH>
1

>  <NdO>
0

>  <NssO>
0

>  <NaaO>
0

>  <NsF>
0

>  <NsSiH3>
0

>  <NssSiH2>
0

>  <NsssSiH>
0

>  <NssssSi>
0

>  <NsPH2>
0

>  <NssPH>
0

>  <NsssP>
0

>  <NdsssP>
0

>  <NsssssP>
0

>  <NsSH>
0

>  <NdS>
0

>  <NssS>
0

>  <NaaS>
0

>  <NdssS>
0

>  <NddssS>
0

>  <NsCl>
0

>  <NsBr>
0

>  <NsI>
0

>  <fragCpx>
4.01

>  <fMF>
0

>  <nHBAcc>
1

>  <nHBDon>
1

>  <Kier1>
5

>  <Kier2>
4

>  <Lipinski>
1

>  <GhoseFilter>
0

>  <FilterItLogS>
-0.77

>  <VMcGowan>
73.09

>  <LabuteASA>
32.63

>  <PEOE_VSA1>
5.11

>  <PEOE_VSA2>
0

>  <PEOE_VSA3>
0

>  <PEOE_VSA4>
0

>  <PEOE_VSA5>
0

>  <PEOE_VSA6>
13.34

>  <PEOE_VSA7>
6.42

>  <PEOE_VSA8>
6.61

>  <PEOE_VSA9>
0

>  <PEOE_VSA10>
0

>  <PEOE_VSA11>
0

>  <PEOE_VSA12>
0

>  <PEOE_VSA13>
0

>  <SMR_VSA1>
5.11

>  <SMR_VSA2>
0

>  <SMR_VSA3>
0

>  <SMR_VSA4>
0

>  <SMR_VSA5>
19.77

>  <SMR_VSA6>
6.61

>  <SMR_VSA7>
0

>  <SMR_VSA8>
0

>  <SMR_VSA9>
0

>  <SlogP_VSA1>
0

>  <SlogP_VSA2>
11.71

>  <SlogP_VSA3>
0

>  <SlogP_VSA4>
0

>  <SlogP_VSA5>
19.77

>  <SlogP_VSA6>
0

>  <SlogP_VSA7>
0

>  <SlogP_VSA8>
0

>  <SlogP_VSA9>
0

>  <SlogP_VSA10>
0

>  <SlogP_VSA11>
0

>  <EState_VSA1>
0

>  <EState_VSA2>
0

>  <EState_VSA3>
6.61

>  <EState_VSA4>
12.84

>  <EState_VSA5>
0

>  <EState_VSA6>
0

>  <EState_VSA7>
0

>  <EState_VSA8>
6.92

>  <EState_VSA9>
5.11

>  <EState_VSA10>
0

>  <VSA_EState1>
0

>  <VSA_EState2>
0

>  <VSA_EState3>
8.07

>  <VSA_EState4>
0

>  <VSA_EState5>
0

>  <VSA_EState6>
0

>  <VSA_EState7>
2.04

>  <VSA_EState8>
2.4

>  <VSA_EState9>
0

>  <apol>
14.15

>  <bpol>
10.03

>  <nRing>
0

>  <nHRing>
0

>  <naRing>
0

>  <naHRing>
0

>  <nARing 2>
0

>  <nAHRing 2>
0

>  <nFRing>
0

>  <nFHRing>
0

>  <nFaRing>
0

>  <nFaHRing>
0

>  <nFARing 2>
0

>  <nFAHRing 2>
0

>  <nRot>
2

>  <SLogP>
0.78

>  <SMR>
21.99

>  <TopoPSA(NO)>
20.23

>  <TopoPSA>
20.23

>  <JGI1>
0.13

>  <JGI2>
0.07

>  <JGI3>
0.06

>  <JGI4>
0

>  <JGI5>
0

>  <Diameter>
4

>  <Radius>
2

>  <TMWC10>
52.65

>  <TSRW10>
25.58

>  <MW>
74.07

>  <AMW>
4.94

>  <WPath>
20

>  <WPol>
2

>  <Zagreb1>
14

>  <Zagreb2>
12

>  <mZagreb2>
1.5

>  <yes>


>  <nAR-cont>
0.336376

>  <nHA-cont>
0

>  <MWHBN>
0.232385391

>  <MWHBN-cont>
0.984275344

>  <TPSA-cont>
0.858782038

>  <pka_cont>
0.97

>  <yes.1>


>  <BBB_SCORE>
4.015353092

>  <MMFF94 Energy>
-2.0143

$$$$
Compound 371
Actelion Java MolfileCreator 2.0

  0  0  0  0  0  0              0 V3000
M  V30 BEGIN CTAB
M  V30 COUNTS 6 5 0 0 0
M  V30 BEGIN ATOM
M  V30 1 Cl -0.2558 -1.8773 -0.7676 0
M  V30 2 C 0.2111 -0.252 -0.5055 0
M  V30 3 C -0.1517 0.4648 0.5558 0
M  V30 4 F 0.2713 1.7414 0.6682 0
M  V30 5 F -0.9347 -0.0663 1.5179 0
M  V30 6 H 0.8365 0.1392 -1.295 0
M  V30 END ATOM
M  V30 BEGIN BOND
M  V30 1 1 1 2
M  V30 2 2 2 3
M  V30 3 1 3 4
M  V30 4 1 3 5
M  V30 5 1 2 6
M  V30 END BOND
M  V30 END CTAB
M  END
>  <Column 1>
463

>  <level_0>
524

>  <index>
524

>  <Unnamed: 0>
524

>  <NO.>
528

>  <Name>
1-chloro-2-2-difluoroethylene

>  <IUPAC_name>
2-chloro-1-1-difluoroethene

>  <SMILES>
FC(F)=CCl

>  <CID>
9664

>  <logBB>
-0.02

>  <BBB+/BBB->
BBB+

>  <Inchi>
InChI=1S/C2HClF2/c3-1-2(4)5/h1H

>  <threshold>


>  <reference>
R2|R2|R3|R8|R21|R25|R27|R27|R38|R41|R46|R47|

>  <group>
A

>  <Class>
1

>  <ABC>
3.05

>  <ABCGG>
3.31

>  <nAcid>
0

>  <nBase>
0

>  <nAromAtom>
0

>  <nAromBond>
0

>  <nAtom>
6

>  <nHeavyAtom>
5

>  <nSpiro>
0

>  <nBridgehead>
0

>  <nHetero>
3

>  <nN>
0

>  <nO>
0

>  <nF>
2

>  <BalabanJ>
2.54

>  <BertzCT>
45.61

>  <nBonds>
5

>  <nBondsO>
4

>  <nBondsS>
4

>  <nBondsD>
1

>  <nBondsT>
0

>  <nBondsA>
0

>  <nBondsM>
1

>  <nBondsKS>
4

>  <nBondsKD>
1

>  <RNCG>
0.4

>  <RPCG>
0.65

>  <FCSP3>
0

>  <SZ>
8

>  <Sm>
8.2

>  <Sv>
4.65

>  <Sse>
7.12

>  <Sp>
4.37

>  <Si>
7.45

>  <MZ>
1.33

>  <Mm>
1.37

>  <Mv>
0.78

>  <Mse>
1.19

>  <Mp>
0.73

>  <Mi>
1.24

>  <NsCH3>
0

>  <NdCH2>
0

>  <NssCH2>
0

>  <NtCH>
0

>  <NdsCH>
1

>  <NaaCH>
0

>  <NsssCH>
0

>  <NddC>
0

>  <NtsC>
0

>  <NdssC>
1

>  <NaasC>
0

>  <NaaaC>
0

>  <NssssC>
0

>  <NsNH3>
0

>  <NsNH2>
0

>  <NssNH2>
0

>  <NdNH>
0

>  <NssNH>
0

>  <NaaNH>
0

>  <NtN>
0

>  <NsssNH>
0

>  <NdsN>
0

>  <NaaN>
0

>  <NsssN>
0

>  <NddsN>
0

>  <NaasN>
0

>  <NssssN>
0

>  <NsOH>
0

>  <NdO>
0

>  <NssO>
0

>  <NaaO>
0

>  <NsF>
2

>  <NsSiH3>
0

>  <NssSiH2>
0

>  <NsssSiH>
0

>  <NssssSi>
0

>  <NsPH2>
0

>  <NssPH>
0

>  <NsssP>
0

>  <NdsssP>
0

>  <NsssssP>
0

>  <NsSH>
0

>  <NdS>
0

>  <NssS>
0

>  <NaaS>
0

>  <NdssS>
0

>  <NddssS>
0

>  <NsCl>
1

>  <NsBr>
0

>  <NsI>
0

>  <fragCpx>
4.03

>  <fMF>
0

>  <nHBAcc>
0

>  <nHBDon>
0

>  <Kier1>
5

>  <Kier2>
2.25

>  <Lipinski>
1

>  <GhoseFilter>
0

>  <FilterItLogS>
-1.06

>  <VMcGowan>
50.5

>  <LabuteASA>
33.05

>  <PEOE_VSA1>
0

>  <PEOE_VSA2>
0

>  <PEOE_VSA3>
0

>  <PEOE_VSA4>
8.78

>  <PEOE_VSA5>
0

>  <PEOE_VSA6>
11.6

>  <PEOE_VSA7>
0

>  <PEOE_VSA8>
0

>  <PEOE_VSA9>
5.54

>  <PEOE_VSA10>
0

>  <PEOE_VSA11>
0

>  <PEOE_VSA12>
0

>  <PEOE_VSA13>
6.08

>  <SMR_VSA1>
8.78

>  <SMR_VSA2>
0

>  <SMR_VSA3>
0

>  <SMR_VSA4>
0

>  <SMR_VSA5>
0

>  <SMR_VSA6>
0

>  <SMR_VSA7>
11.62

>  <SMR_VSA8>
0

>  <SMR_VSA9>
0

>  <SlogP_VSA1>
0

>  <SlogP_VSA2>
0

>  <SlogP_VSA3>
0

>  <SlogP_VSA4>
0

>  <SlogP_VSA5>
0

>  <SlogP_VSA6>
11.62

>  <SlogP_VSA7>
0

>  <SlogP_VSA8>
0

>  <SlogP_VSA9>
0

>  <SlogP_VSA10>
8.78

>  <SlogP_VSA11>
0

>  <EState_VSA1>
6.08

>  <EState_VSA2>
5.54

>  <EState_VSA3>
0

>  <EState_VSA4>
0

>  <EState_VSA5>
0

>  <EState_VSA6>
0

>  <EState_VSA7>
0

>  <EState_VSA8>
11.6

>  <EState_VSA9>
0

>  <EState_VSA10>
8.78

>  <VSA_EState1>
20.99

>  <VSA_EState2>
0

>  <VSA_EState3>
0

>  <VSA_EState4>
0.22

>  <VSA_EState5>
0

>  <VSA_EState6>
0

>  <VSA_EState7>
-1.85

>  <VSA_EState8>
0

>  <VSA_EState9>
0

>  <apol>
7.3

>  <bpol>
3.74

>  <nRing>
0

>  <nHRing>
0

>  <naRing>
0

>  <naHRing>
0

>  <nARing 2>
0

>  <nAHRing 2>
0

>  <nFRing>
0

>  <nFHRing>
0

>  <nFaRing>
0

>  <nFaHRing>
0

>  <nFARing 2>
0

>  <nFAHRing 2>
0

>  <nRot>
0

>  <SLogP>
1.96

>  <SMR>
16.15

>  <TopoPSA(NO)>
0

>  <TopoPSA>
0

>  <JGI1>
0.38

>  <JGI2>
0.11

>  <JGI3>
0

>  <JGI4>
0

>  <JGI5>
0

>  <Diameter>
3

>  <Radius>
2

>  <TMWC10>
55.94

>  <TSRW10>
27.25

>  <MW>
97.97

>  <AMW>
16.33

>  <WPath>
18

>  <WPol>
2

>  <Zagreb1>
16

>  <Zagreb2>
14

>  <mZagreb2>
1.33

>  <yes>


>  <nAR-cont>
0.336376

>  <nHA-cont>
0

>  <MWHBN>
0

>  <MWHBN-cont>
0

>  <TPSA-cont>
0

>  <pka_cont>
0.97

>  <yes.1>


>  <BBB_SCORE>
0.821376

>  <MMFF94 Energy>
0.12853

$$$$
Compound 372
Actelion Java MolfileCreator 2.0

  0  0  0  0  0  0              0 V3000
M  V30 BEGIN CTAB
M  V30 COUNTS 47 49 0 0 0
M  V30 BEGIN ATOM
M  V30 1 O -2.5331 -1.6618 -1.9786 0
M  V30 2 C -2.4328 -0.678 -1.254 0
M  V30 3 O -3.4074 -0.2619 -0.4044 0
M  V30 4 N -1.3131 0.132 -1.209 0
M  V30 5 C -4.5825 -1.0765 -0.3469 0
M  V30 6 C -0.1615 -0.1664 -2.0464 0
M  V30 7 C -1.1717 1.2874 -0.3302 0
M  V30 8 C -4.4967 -1.9962 0.8435 0
M  V30 9 C 1.0864 -0.3653 -1.1893 0
M  V30 10 C 0.0507 1.1219 0.5691 0
M  V30 11 C -4.015 -3.3039 0.6954 0
M  V30 12 C -4.8564 -1.5448 2.121 0
M  V30 13 C 1.3201 0.8388 -0.256 0
M  V30 14 C -3.9159 -4.1508 1.8002 0
M  V30 15 C -4.7571 -2.3933 3.2248 0
M  V30 16 C 2.5154 0.6109 0.684 0
M  V30 17 C -4.2895 -3.6963 3.0637 0
M  V30 18 N 3.7657 0.492 -0.042 0
M  V30 19 C 4.4279 1.6199 -0.4934 0
M  V30 20 N 3.8908 2.8403 -0.2911 0
M  V30 21 C 5.676 1.4724 -1.0941 0
M  V30 22 C 4.5851 3.921 -0.7127 0
M  V30 23 C 6.3763 2.5987 -1.5226 0
M  V30 24 C 5.8192 3.8532 -1.331 0
M  V30 25 H -4.7652 -1.6333 -1.274 0
M  V30 26 H -5.4409 -0.4044 -0.2306 0
M  V30 27 H -0.024 0.6782 -2.7317 0
M  V30 28 H -0.3353 -1.0577 -2.6573 0
M  V30 29 H -2.0608 1.443 0.2867 0
M  V30 30 H -1.0594 2.1723 -0.9677 0
M  V30 31 H 1.9501 -0.5163 -1.8462 0
M  V30 32 H 0.9708 -1.2773 -0.5897 0
M  V30 33 H 0.1864 2.0291 1.1694 0
M  V30 34 H -0.1254 0.294 1.2682 0
M  V30 35 H -3.7072 -3.6657 -0.2842 0
M  V30 36 H -5.212 -0.5266 2.262 0
M  V30 37 H 1.5133 1.7182 -0.8842 0
M  V30 38 H -3.5423 -5.1634 1.6743 0
M  V30 39 H -5.0405 -2.0363 4.2113 0
M  V30 40 H 2.3622 -0.3186 1.246 0
M  V30 41 H 2.5803 1.407 1.4365 0
M  V30 42 H -4.2103 -4.3559 3.9235 0
M  V30 43 H 3.9575 -0.3794 -0.5139 0
M  V30 44 H 6.1096 0.4869 -1.2243 0
M  V30 45 H 4.1032 4.8768 -0.5293 0
M  V30 46 H 7.3485 2.4923 -1.9938 0
M  V30 47 H 6.3335 4.753 -1.6473 0
M  V30 END ATOM
M  V30 BEGIN BOND
M  V30 1 2 1 2
M  V30 2 1 2 3
M  V30 3 1 2 4
M  V30 4 1 3 5
M  V30 5 1 4 6
M  V30 6 1 4 7
M  V30 7 1 5 8
M  V30 8 1 6 9
M  V30 9 1 7 10
M  V30 10 2 8 11
M  V30 11 1 8 12
M  V30 12 1 9 13
M  V30 13 1 11 14
M  V30 14 2 12 15
M  V30 15 1 13 16
M  V30 16 2 14 17
M  V30 17 1 16 18
M  V30 18 1 18 19
M  V30 19 2 19 20
M  V30 20 1 19 21
M  V30 21 1 20 22
M  V30 22 2 21 23
M  V30 23 2 22 24
M  V30 24 1 10 13
M  V30 25 1 15 17
M  V30 26 1 23 24
M  V30 27 1 5 25
M  V30 28 1 5 26
M  V30 29 1 6 27
M  V30 30 1 6 28
M  V30 31 1 7 29
M  V30 32 1 7 30
M  V30 33 1 9 31
M  V30 34 1 9 32
M  V30 35 1 10 33
M  V30 36 1 10 34
M  V30 37 1 11 35
M  V30 38 1 12 36
M  V30 39 1 13 37
M  V30 40 1 14 38
M  V30 41 1 15 39
M  V30 42 1 16 40
M  V30 43 1 16 41
M  V30 44 1 17 42
M  V30 45 1 18 43
M  V30 46 1 21 44
M  V30 47 1 22 45
M  V30 48 1 23 46
M  V30 49 1 24 47
M  V30 END BOND
M  V30 END CTAB
M  END
>  <Column 1>
464

>  <level_0>
525

>  <index>
525

>  <Unnamed: 0>
525

>  <NO.>
529

>  <Name>
chembl218017

>  <IUPAC_name>
benzyl 4-[(pyridin-2-ylamino)methyl]piperidine-1-carboxylate

>  <SMILES>
O=C(OCc1ccccc1)N1CCC(CNc2ccccn2)CC1

>  <CID>
10268204

>  <logBB>
-0.02

>  <BBB+/BBB->
BBB+

>  <Inchi>
InChI=1S/C19H23N3O2/c23-19(24-15-17-6-2-1-3-7-17)22-12-9-16(10-13-22)14-21-18-8-4-5-11-20-18/h1-8-11-16H-9-10-12-15H2-(H-20-21)

>  <threshold>


>  <reference>
R18|R26|R27|

>  <group>
A

>  <Class>
1

>  <ABC>
18.45

>  <ABCGG>
13.41

>  <nAcid>
0

>  <nBase>
0

>  <nAromAtom>
12

>  <nAromBond>
12

>  <nAtom>
47

>  <nHeavyAtom>
24

>  <nSpiro>
0

>  <nBridgehead>
0

>  <nHetero>
5

>  <nN>
3

>  <nO>
2

>  <nF>
0

>  <BalabanJ>
1.27

>  <BertzCT>
625.57

>  <nBonds>
49

>  <nBondsO>
26

>  <nBondsS>
36

>  <nBondsD>
1

>  <nBondsT>
0

>  <nBondsA>
12

>  <nBondsM>
13

>  <nBondsKS>
42

>  <nBondsKD>
7

>  <RNCG>
0.21

>  <RPCG>
0.2

>  <FCSP3>
0.37

>  <SZ>
29

>  <Sm>
27.09

>  <Sv>
28.93

>  <Sse>
46.86

>  <Sp>
31.12

>  <Si>
53.07

>  <MZ>
0.62

>  <Mm>
0.58

>  <Mv>
0.62

>  <Mse>
1

>  <Mp>
0.66

>  <Mi>
1.13

>  <NsCH3>
0

>  <NdCH2>
0

>  <NssCH2>
6

>  <NtCH>
0

>  <NdsCH>
0

>  <NaaCH>
9

>  <NsssCH>
1

>  <NddC>
0

>  <NtsC>
0

>  <NdssC>
1

>  <NaasC>
2

>  <NaaaC>
0

>  <NssssC>
0

>  <NsNH3>
0

>  <NsNH2>
0

>  <NssNH2>
0

>  <NdNH>
0

>  <NssNH>
1

>  <NaaNH>
0

>  <NtN>
0

>  <NsssNH>
0

>  <NdsN>
0

>  <NaaN>
1

>  <NsssN>
1

>  <NddsN>
0

>  <NaasN>
0

>  <NssssN>
0

>  <NsOH>
0

>  <NdO>
1

>  <NssO>
1

>  <NaaO>
0

>  <NsF>
0

>  <NsSiH3>
0

>  <NssSiH2>
0

>  <NsssSiH>
0

>  <NssssSi>
0

>  <NsPH2>
0

>  <NssPH>
0

>  <NsssP>
0

>  <NdsssP>
0

>  <NsssssP>
0

>  <NsSH>
0

>  <NdS>
0

>  <NssS>
0

>  <NaaS>
0

>  <NdssS>
0

>  <NddssS>
0

>  <NsCl>
0

>  <NsBr>
0

>  <NsI>
0

>  <fragCpx>
124.05

>  <fMF>
0.49

>  <nHBAcc>
4

>  <nHBDon>
1

>  <Kier1>
18.78

>  <Kier2>
10.22

>  <Lipinski>
1

>  <GhoseFilter>
1

>  <FilterItLogS>
-4.2

>  <VMcGowan>
257.57

>  <LabuteASA>
142.21

>  <PEOE_VSA1>
14.95

>  <PEOE_VSA2>
0

>  <PEOE_VSA3>
9.78

>  <PEOE_VSA4>
0

>  <PEOE_VSA5>
0

>  <PEOE_VSA6>
36.4

>  <PEOE_VSA7>
36.46

>  <PEOE_VSA8>
25.83

>  <PEOE_VSA9>
0

>  <PEOE_VSA10>
12.42

>  <PEOE_VSA11>
0

>  <PEOE_VSA12>
0

>  <PEOE_VSA13>
0

>  <SMR_VSA1>
9.53

>  <SMR_VSA2>
0

>  <SMR_VSA3>
9.88

>  <SMR_VSA4>
5.92

>  <SMR_VSA5>
19.45

>  <SMR_VSA6>
24.95

>  <SMR_VSA7>
60.29

>  <SMR_VSA8>
0

>  <SMR_VSA9>
0

>  <SlogP_VSA1>
5.32

>  <SlogP_VSA2>
35.61

>  <SlogP_VSA3>
11.34

>  <SlogP_VSA4>
5.92

>  <SlogP_VSA5>
18.41

>  <SlogP_VSA6>
54.73

>  <SlogP_VSA7>
0

>  <SlogP_VSA8>
0

>  <SlogP_VSA9>
0

>  <SlogP_VSA10>
10.61

>  <SlogP_VSA11>
0

>  <EState_VSA1>
0

>  <EState_VSA2>
6.09

>  <EState_VSA3>
12.52

>  <EState_VSA4>
43.86

>  <EState_VSA5>
0

>  <EState_VSA6>
11.1

>  <EState_VSA7>
48.53

>  <EState_VSA8>
10.3

>  <EState_VSA9>
4.74

>  <EState_VSA10>
4.79

>  <VSA_EState1>
5.39

>  <VSA_EState2>
18.21

>  <VSA_EState3>
3.36

>  <VSA_EState4>
1.01

>  <VSA_EState5>
1.47

>  <VSA_EState6>
15.62

>  <VSA_EState7>
3.55

>  <VSA_EState8>
2.73

>  <VSA_EState9>
0

>  <apol>
51.97

>  <bpol>
29.1

>  <nRing>
3

>  <nHRing>
2

>  <naRing>
2

>  <naHRing>
1

>  <nARing 2>
1

>  <nAHRing 2>
1

>  <nFRing>
0

>  <nFHRing>
0

>  <nFaRing>
0

>  <nFaHRing>
0

>  <nFARing 2>
0

>  <nFAHRing 2>
0

>  <nRot>
5

>  <SLogP>
3.54

>  <SMR>
93.65

>  <TopoPSA(NO)>
54.46

>  <TopoPSA>
54.46

>  <JGI1>
0.13

>  <JGI2>
0.06

>  <JGI3>
0.02

>  <JGI4>
0.03

>  <JGI5>
0.03

>  <Diameter>
16

>  <Radius>
8

>  <TMWC10>
122.27

>  <TSRW10>
57.78

>  <MW>
325.18

>  <AMW>
6.92

>  <WPath>
1680

>  <WPol>
31

>  <Zagreb1>
118

>  <Zagreb2>
132

>  <mZagreb2>
5.44

>  <yes>


>  <nAR-cont>
0.816016

>  <nHA-cont>
0.94700071

>  <MWHBN>
0.277273325

>  <MWHBN-cont>
0.902891366

>  <TPSA-cont>
0.619835382

>  <pka_cont>
0.97

>  <yes.1>


>  <BBB_SCORE>
4.842024524

>  <MMFF94 Energy>
-55.437

$$$$
Compound 373
Actelion Java MolfileCreator 2.0

  0  0  0  0  0  0              0 V3000
M  V30 BEGIN CTAB
M  V30 COUNTS 41 42 0 0 0
M  V30 BEGIN ATOM
M  V30 1 O -2.2784 1.178 2.1998 0
M  V30 2 C -2.0617 1.0433 0.8558 0
M  V30 3 C -1.1429 1.0443 3.0544 0
M  V30 4 C -0.8237 0.862 0.2371 0
M  V30 5 C -3.2146 1.1031 0.0703 0
M  V30 6 C -1.6191 1.1766 4.4953 0
M  V30 7 C -0.731 0.7275 -1.1605 0
M  V30 8 C -3.1376 0.977 -1.3166 0
M  V30 9 C -0.4695 1.0421 5.4786 0
M  V30 10 C -1.9001 0.7906 -1.9307 0
M  V30 11 C 0.6193 0.5459 -1.8255 0
M  V30 12 O -0.9724 1.177 6.8008 0
M  V30 13 N 1.3908 -0.5858 -1.2836 0
M  V30 14 C 2.7934 -0.5484 -1.7233 0
M  V30 15 C 0.7895 -1.896 -1.582 0
M  V30 16 C 2.9984 -0.9237 -3.1932 0
M  V30 17 C 0.9198 -2.3283 -3.0451 0
M  V30 18 C 2.3709 -2.2767 -3.5107 0
M  V30 19 H -0.4161 1.8365 2.8374 0
M  V30 20 H -0.679 0.0604 2.9132 0
M  V30 21 H 0.0954 0.8116 0.8126 0
M  V30 22 H -4.1817 1.2471 0.5458 0
M  V30 23 H -2.3882 0.4232 4.7087 0
M  V30 24 H -2.1269 2.1394 4.6375 0
M  V30 25 H -4.043 1.0243 -1.9155 0
M  V30 26 H 0.0095 0.0621 5.3878 0
M  V30 27 H 0.2807 1.8216 5.3118 0
M  V30 28 H -1.8544 0.6936 -3.0128 0
M  V30 29 H 1.1681 1.4817 -1.652 0
M  V30 30 H 0.4956 0.4662 -2.9118 0
M  V30 31 H -0.2181 1.0827 7.4072 0
M  V30 32 H 3.368 -1.2436 -1.097 0
M  V30 33 H 3.2273 0.4403 -1.5295 0
M  V30 34 H -0.2644 -1.9257 -1.2825 0
M  V30 35 H 1.2837 -2.6461 -0.95 0
M  V30 36 H 4.0709 -0.9566 -3.4168 0
M  V30 37 H 2.5653 -0.1545 -3.8436 0
M  V30 38 H 0.3032 -1.6874 -3.6861 0
M  V30 39 H 0.536 -3.3485 -3.1607 0
M  V30 40 H 2.4282 -2.475 -4.5866 0
M  V30 41 H 2.9413 -3.0677 -3.0083 0
M  V30 END ATOM
M  V30 BEGIN BOND
M  V30 1 1 1 2
M  V30 2 1 1 3
M  V30 3 2 2 4
M  V30 4 1 2 5
M  V30 5 1 3 6
M  V30 6 1 4 7
M  V30 7 2 5 8
M  V30 8 1 6 9
M  V30 9 2 7 10
M  V30 10 1 7 11
M  V30 11 1 9 12
M  V30 12 1 11 13
M  V30 13 1 13 14
M  V30 14 1 13 15
M  V30 15 1 14 16
M  V30 16 1 15 17
M  V30 17 1 16 18
M  V30 18 1 8 10
M  V30 19 1 17 18
M  V30 20 1 3 19
M  V30 21 1 3 20
M  V30 22 1 4 21
M  V30 23 1 5 22
M  V30 24 1 6 23
M  V30 25 1 6 24
M  V30 26 1 8 25
M  V30 27 1 9 26
M  V30 28 1 9 27
M  V30 29 1 10 28
M  V30 30 1 11 29
M  V30 31 1 11 30
M  V30 32 1 12 31
M  V30 33 1 14 32
M  V30 34 1 14 33
M  V30 35 1 15 34
M  V30 36 1 15 35
M  V30 37 1 16 36
M  V30 38 1 16 37
M  V30 39 1 17 38
M  V30 40 1 17 39
M  V30 41 1 18 40
M  V30 42 1 18 41
M  V30 END BOND
M  V30 END CTAB
M  END
>  <Column 1>
465

>  <level_0>
526

>  <index>
526

>  <Unnamed: 0>
526

>  <NO.>
530

>  <Name>
bbcpd22 (ranitidine analog) skb34 (propanol33npiperidinylmethylp henoxy)

>  <IUPAC_name>
3-[3-(piperidin-1-ylmethyl)phenoxy]propan-1-ol

>  <SMILES>
OCCCOc1cccc(CN2CCCCC2)c1

>  <CID>
10444765

>  <logBB>
-0.02

>  <BBB+/BBB->
BBB+

>  <Inchi>
InChI=1S/C15H23NO2/c17-10-5-11-18-15-7-4-6-14(12-15)13-16-8-2-1-3-9-16/h4-6-7-12-17H-1-3-5-8-11-13H2

>  <threshold>


>  <reference>
R2|R2|R3|R3|R8|R12|R18|R21|R25|R26|R27|R27|R27|R35|R36|R38|R41|R43|R46|R47|R48|R49|R49|R4|R40|

>  <group>
A

>  <Class>
1

>  <ABC>
13.44

>  <ABCGG>
10.79

>  <nAcid>
0

>  <nBase>
1

>  <nAromAtom>
6

>  <nAromBond>
6

>  <nAtom>
41

>  <nHeavyAtom>
18

>  <nSpiro>
0

>  <nBridgehead>
0

>  <nHetero>
3

>  <nN>
1

>  <nO>
2

>  <nF>
0

>  <BalabanJ>
1.65

>  <BertzCT>
348.1

>  <nBonds>
42

>  <nBondsO>
19

>  <nBondsS>
36

>  <nBondsD>
0

>  <nBondsT>
0

>  <nBondsA>
6

>  <nBondsM>
6

>  <nBondsKS>
39

>  <nBondsKD>
3

>  <RNCG>
0.33

>  <RPCG>
0.14

>  <FCSP3>
0.6

>  <SZ>
22.67

>  <Sm>
20.76

>  <Sv>
23.42

>  <Sse>
40.53

>  <Sp>
25.8

>  <Si>
46.49

>  <MZ>
0.55

>  <Mm>
0.51

>  <Mv>
0.57

>  <Mse>
0.99

>  <Mp>
0.63

>  <Mi>
1.13

>  <NsCH3>
0

>  <NdCH2>
0

>  <NssCH2>
9

>  <NtCH>
0

>  <NdsCH>
0

>  <NaaCH>
4

>  <NsssCH>
0

>  <NddC>
0

>  <NtsC>
0

>  <NdssC>
0

>  <NaasC>
2

>  <NaaaC>
0

>  <NssssC>
0

>  <NsNH3>
0

>  <NsNH2>
0

>  <NssNH2>
0

>  <NdNH>
0

>  <NssNH>
0

>  <NaaNH>
0

>  <NtN>
0

>  <NsssNH>
0

>  <NdsN>
0

>  <NaaN>
0

>  <NsssN>
1

>  <NddsN>
0

>  <NaasN>
0

>  <NssssN>
0

>  <NsOH>
1

>  <NdO>
0

>  <NssO>
1

>  <NaaO>
0

>  <NsF>
0

>  <NsSiH3>
0

>  <NssSiH2>
0

>  <NsssSiH>
0

>  <NssssSi>
0

>  <NsPH2>
0

>  <NssPH>
0

>  <NsssP>
0

>  <NdsssP>
0

>  <NsssssP>
0

>  <NsSH>
0

>  <NdS>
0

>  <NssS>
0

>  <NaaS>
0

>  <NdssS>
0

>  <NddssS>
0

>  <NsCl>
0

>  <NsBr>
0

>  <NsI>
0

>  <fragCpx>
55.03

>  <fMF>
0.32

>  <nHBAcc>
3

>  <nHBDon>
1

>  <Kier1>
14.41

>  <Kier2>
8.23

>  <Lipinski>
1

>  <GhoseFilter>
1

>  <FilterItLogS>
-3.31

>  <VMcGowan>
209.31

>  <LabuteASA>
109.38

>  <PEOE_VSA1>
9.84

>  <PEOE_VSA2>
4.9

>  <PEOE_VSA3>
0

>  <PEOE_VSA4>
0

>  <PEOE_VSA5>
0

>  <PEOE_VSA6>
18.55

>  <PEOE_VSA7>
43.63

>  <PEOE_VSA8>
19.57

>  <PEOE_VSA9>
6.61

>  <PEOE_VSA10>
5.75

>  <PEOE_VSA11>
0

>  <PEOE_VSA12>
0

>  <PEOE_VSA13>
0

>  <SMR_VSA1>
9.84

>  <SMR_VSA2>
0

>  <SMR_VSA3>
4.9

>  <SMR_VSA4>
0

>  <SMR_VSA5>
32.23

>  <SMR_VSA6>
26.3

>  <SMR_VSA7>
29.83

>  <SMR_VSA8>
0

>  <SMR_VSA9>
5.75

>  <SlogP_VSA1>
4.74

>  <SlogP_VSA2>
36.31

>  <SlogP_VSA3>
6.54

>  <SlogP_VSA4>
0

>  <SlogP_VSA5>
31.25

>  <SlogP_VSA6>
24.27

>  <SlogP_VSA7>
0

>  <SlogP_VSA8>
0

>  <SlogP_VSA9>
0

>  <SlogP_VSA10>
0

>  <SlogP_VSA11>
5.75

>  <EState_VSA1>
0

>  <EState_VSA2>
6.61

>  <EState_VSA3>
13.03

>  <EState_VSA4>
12.29

>  <EState_VSA5>
37.92

>  <EState_VSA6>
0

>  <EState_VSA7>
12.13

>  <EState_VSA8>
17.03

>  <EState_VSA9>
9.84

>  <EState_VSA10>
0

>  <VSA_EState1>
5.6

>  <VSA_EState2>
2.51

>  <VSA_EState3>
8.73

>  <VSA_EState4>
1.32

>  <VSA_EState5>
0.91

>  <VSA_EState6>
8.31

>  <VSA_EState7>
4.72

>  <VSA_EState8>
4.24

>  <VSA_EState9>
0

>  <apol>
43.09

>  <bpol>
26.52

>  <nRing>
2

>  <nHRing>
1

>  <naRing>
1

>  <naHRing>
0

>  <nARing 2>
1

>  <nAHRing 2>
1

>  <nFRing>
0

>  <nFHRing>
0

>  <nFaRing>
0

>  <nFaHRing>
0

>  <nFARing 2>
0

>  <nFAHRing 2>
0

>  <nRot>
6

>  <SLogP>
2.43

>  <SMR>
72.77

>  <TopoPSA(NO)>
32.7

>  <TopoPSA>
32.7

>  <JGI1>
0.13

>  <JGI2>
0.03

>  <JGI3>
0.03

>  <JGI4>
0.03

>  <JGI5>
0.01

>  <Diameter>
12

>  <Radius>
6

>  <TMWC10>
105.89

>  <TSRW10>
49.95

>  <MW>
249.17

>  <AMW>
6.08

>  <WPath>
704

>  <WPol>
21

>  <Zagreb1>
84

>  <Zagreb2>
92

>  <mZagreb2>
4.25

>  <yes>


>  <nAR-cont>
0.816016

>  <nHA-cont>
0.991161285

>  <MWHBN>
0.253403212

>  <MWHBN-cont>
0.953873186

>  <TPSA-cont>
0.771733695

>  <pka_cont>
0.97

>  <yes.1>


>  <BBB_SCORE>
5.266454454

>  <MMFF94 Energy>
22.75

$$$$
Compound 374
Actelion Java MolfileCreator 2.0

  0  0  0  0  0  0              0 V3000
M  V30 BEGIN CTAB
M  V30 COUNTS 49 51 0 0 0
M  V30 BEGIN ATOM
M  V30 1 S -1.4602 -0.1621 0.2432 0
M  V30 2 C -3.1327 -0.3908 0.4536 0
M  V30 3 C -1.4063 -1.5029 -0.8181 0
M  V30 4 N -3.6685 -1.3795 -0.2223 0
M  V30 5 N -3.9062 0.4 1.2634 0
M  V30 6 S 0.0274 -2.0898 -1.637 0
M  V30 7 C -2.6816 -2.014 -0.9564 0
M  V30 8 C -3.4803 1.4165 2.0915 0
M  V30 9 C 1.2988 -1.928 -0.3434 0
M  V30 10 O -2.3175 1.7436 2.2981 0
M  V30 11 C -4.6529 2.1149 2.7952 0
M  V30 12 C 2.5635 -2.5881 -0.7596 0
M  V30 13 C -4.1827 3.0456 3.9222 0
M  V30 14 C -5.5333 2.8818 1.798 0
M  V30 15 O 3.4264 -1.8417 -1.5173 0
M  V30 16 N 2.9965 -3.803 -0.4832 0
M  V30 17 C -3.6193 4.3672 3.3976 0
M  V30 18 C -4.8867 4.1939 1.3565 0
M  V30 19 C 4.4877 -2.6778 -1.7493 0
M  V30 20 C 4.2124 -3.8687 -1.1137 0
M  V30 21 N -4.5623 5.0395 2.5026 0
M  V30 22 C 5.6161 -2.1399 -2.5806 0
M  V30 23 C 5.0928 -1.7502 -3.9744 0
M  V30 24 C 6.7244 -3.1951 -2.7498 0
M  V30 25 C 6.2193 -0.9003 -1.8965 0
M  V30 26 H -4.8875 0.1641 1.2162 0
M  V30 27 H -2.9509 -2.8569 -1.5821 0
M  V30 28 H 1.4885 -0.8688 -0.1417 0
M  V30 29 H 0.9393 -2.3939 0.5801 0
M  V30 30 H -5.2541 1.3153 3.2498 0
M  V30 31 H -3.4303 2.5494 4.5465 0
M  V30 32 H -5.0375 3.2622 4.5768 0
M  V30 33 H -5.7582 2.2778 0.912 0
M  V30 34 H -6.4974 3.1021 2.2756 0
M  V30 35 H -2.6637 4.216 2.8838 0
M  V30 36 H -3.4085 5.0293 4.245 0
M  V30 37 H -5.5799 4.7368 0.7044 0
M  V30 38 H -3.986 4.0019 0.7613 0
M  V30 39 H 4.819 -4.7629 -1.0754 0
M  V30 40 H -5.4142 5.2641 3.0165 0
M  V30 41 H 4.3253 -0.9695 -3.9133 0
M  V30 42 H 5.901 -1.3691 -4.609 0
M  V30 43 H 4.6434 -2.6103 -4.4848 0
M  V30 44 H 7.1399 -3.4991 -1.7817 0
M  V30 45 H 7.5509 -2.8072 -3.3564 0
M  V30 46 H 6.3467 -4.0975 -3.2451 0
M  V30 47 H 7.0576 -0.4965 -2.4755 0
M  V30 48 H 5.4782 -0.0996 -1.7866 0
M  V30 49 H 6.5905 -1.1413 -0.8932 0
M  V30 END ATOM
M  V30 BEGIN BOND
M  V30 1 1 1 2
M  V30 2 1 1 3
M  V30 3 2 2 4
M  V30 4 1 2 5
M  V30 5 1 3 6
M  V30 6 2 3 7
M  V30 7 1 5 8
M  V30 8 1 6 9
M  V30 9 2 8 10
M  V30 10 1 8 11
M  V30 11 1 9 12
M  V30 12 1 11 13
M  V30 13 1 11 14
M  V30 14 1 12 15
M  V30 15 2 12 16
M  V30 16 1 13 17
M  V30 17 1 14 18
M  V30 18 1 15 19
M  V30 19 1 16 20
M  V30 20 1 17 21
M  V30 21 1 19 22
M  V30 22 1 22 23
M  V30 23 1 22 24
M  V30 24 1 22 25
M  V30 25 1 4 7
M  V30 26 1 18 21
M  V30 27 2 19 20
M  V30 28 1 5 26
M  V30 29 1 7 27
M  V30 30 1 9 28
M  V30 31 1 9 29
M  V30 32 1 11 30
M  V30 33 1 13 31
M  V30 34 1 13 32
M  V30 35 1 14 33
M  V30 36 1 14 34
M  V30 37 1 17 35
M  V30 38 1 17 36
M  V30 39 1 18 37
M  V30 40 1 18 38
M  V30 41 1 20 39
M  V30 42 1 21 40
M  V30 43 1 23 41
M  V30 44 1 23 42
M  V30 45 1 23 43
M  V30 46 1 24 44
M  V30 47 1 24 45
M  V30 48 1 24 46
M  V30 49 1 25 47
M  V30 50 1 25 48
M  V30 51 1 25 49
M  V30 END BOND
M  V30 END CTAB
M  END
>  <Column 1>
466

>  <level_0>
527

>  <index>
527

>  <Unnamed: 0>
527

>  <NO.>
531

>  <Name>
sns-032

>  <IUPAC_name>
n-[5-[(5-tert-butyl-1-3-oxazol-2-yl)methylsulfanyl]-1-3-thiazol-2-yl]piperidine-4-carboxamide

>  <SMILES>
CC(C)(C)c1cnc(CSc2cnc(NC(=O)C3CCNCC3)s2)o1

>  <CID>
3025986

>  <logBB>
-0.01

>  <BBB+/BBB->
BBB+

>  <Inchi>
InChI=1S/C17H24N4O2S2/c1-17(2-3)12-8-19-13(23-12)10-24-14-9-20-16(25-14)21-15(22)11-4-6-18-7-5-11/h8-9-11-18H-4-7-10H2-1-3H3-(H-20-21-22)

>  <threshold>


>  <reference>
R18|R26|R27|R2|R2|R20|R25|R27|R46|

>  <group>
A

>  <Class>
1

>  <ABC>
19.58

>  <ABCGG>
15.78

>  <nAcid>
0

>  <nBase>
1

>  <nAromAtom>
10

>  <nAromBond>
10

>  <nAtom>
49

>  <nHeavyAtom>
25

>  <nSpiro>
0

>  <nBridgehead>
0

>  <nHetero>
8

>  <nN>
4

>  <nO>
2

>  <nF>
0

>  <BalabanJ>
1.33

>  <BertzCT>
714.3

>  <nBonds>
51

>  <nBondsO>
27

>  <nBondsS>
40

>  <nBondsD>
1

>  <nBondsT>
0

>  <nBondsA>
10

>  <nBondsM>
11

>  <nBondsKS>
46

>  <nBondsKD>
5

>  <RNCG>
0.2

>  <RPCG>
0.1

>  <FCSP3>
0.59

>  <SZ>
33.67

>  <Sm>
31.68

>  <Sv>
30.34

>  <Sse>
49.12

>  <Sp>
33.65

>  <Si>
55.41

>  <MZ>
0.69

>  <Mm>
0.65

>  <Mv>
0.62

>  <Mse>
1

>  <Mp>
0.69

>  <Mi>
1.13

>  <NsCH3>
3

>  <NdCH2>
0

>  <NssCH2>
5

>  <NtCH>
0

>  <NdsCH>
0

>  <NaaCH>
2

>  <NsssCH>
1

>  <NddC>
0

>  <NtsC>
0

>  <NdssC>
1

>  <NaasC>
4

>  <NaaaC>
0

>  <NssssC>
1

>  <NsNH3>
0

>  <NsNH2>
0

>  <NssNH2>
0

>  <NdNH>
0

>  <NssNH>
2

>  <NaaNH>
0

>  <NtN>
0

>  <NsssNH>
0

>  <NdsN>
0

>  <NaaN>
2

>  <NsssN>
0

>  <NddsN>
0

>  <NaasN>
0

>  <NssssN>
0

>  <NsOH>
0

>  <NdO>
1

>  <NssO>
0

>  <NaaO>
1

>  <NsF>
0

>  <NsSiH3>
0

>  <NssSiH2>
0

>  <NsssSiH>
0

>  <NssssSi>
0

>  <NsPH2>
0

>  <NssPH>
0

>  <NsssP>
0

>  <NdsssP>
0

>  <NsssssP>
0

>  <NsSH>
0

>  <NdS>
0

>  <NssS>
1

>  <NaaS>
1

>  <NdssS>
0

>  <NddssS>
0

>  <NsCl>
0

>  <NsBr>
0

>  <NsI>
0

>  <fragCpx>
129.08

>  <fMF>
0.41

>  <nHBAcc>
7

>  <nHBDon>
2

>  <Kier1>
19.75

>  <Kier2>
8.79

>  <Lipinski>
1

>  <GhoseFilter>
1

>  <FilterItLogS>
-5.22

>  <VMcGowan>
280.67

>  <LabuteASA>
155.76

>  <PEOE_VSA1>
15.05

>  <PEOE_VSA2>
4.79

>  <PEOE_VSA3>
9.97

>  <PEOE_VSA4>
0

>  <PEOE_VSA5>
11.76

>  <PEOE_VSA6>
32.11

>  <PEOE_VSA7>
25.93

>  <PEOE_VSA8>
11.33

>  <PEOE_VSA9>
22.36

>  <PEOE_VSA10>
5.76

>  <PEOE_VSA11>
5.13

>  <PEOE_VSA12>
11.8

>  <PEOE_VSA13>
0

>  <SMR_VSA1>
9.21

>  <SMR_VSA2>
0

>  <SMR_VSA3>
15.28

>  <SMR_VSA4>
5.92

>  <SMR_VSA5>
48.99

>  <SMR_VSA6>
18.41

>  <SMR_VSA7>
24.04

>  <SMR_VSA8>
0

>  <SMR_VSA9>
0

>  <SlogP_VSA1>
10.63

>  <SlogP_VSA2>
28.96

>  <SlogP_VSA3>
15.96

>  <SlogP_VSA4>
5.92

>  <SlogP_VSA5>
45.26

>  <SlogP_VSA6>
21.02

>  <SlogP_VSA7>
0

>  <SlogP_VSA8>
0

>  <SlogP_VSA9>
0

>  <SlogP_VSA10>
5.13

>  <SlogP_VSA11>
0

>  <EState_VSA1>
0

>  <EState_VSA2>
17.24

>  <EState_VSA3>
16.78

>  <EState_VSA4>
35.9

>  <EState_VSA5>
11.34

>  <EState_VSA6>
24.16

>  <EState_VSA7>
0

>  <EState_VSA8>
41.37

>  <EState_VSA9>
4.42

>  <EState_VSA10>
4.79

>  <VSA_EState1>
6.84

>  <VSA_EState2>
20.89

>  <VSA_EState3>
6.87

>  <VSA_EState4>
-0.04

>  <VSA_EState5>
2.42

>  <VSA_EState6>
0

>  <VSA_EState7>
5.37

>  <VSA_EState8>
8.12

>  <VSA_EState9>
0

>  <apol>
56.2

>  <bpol>
35.02

>  <nRing>
3

>  <nHRing>
3

>  <naRing>
2

>  <naHRing>
2

>  <nARing 2>
1

>  <nAHRing 2>
1

>  <nFRing>
0

>  <nFHRing>
0

>  <nFaRing>
0

>  <nFaHRing>
0

>  <nFARing 2>
0

>  <nFAHRing 2>
0

>  <nRot>
5

>  <SLogP>
3.66

>  <SMR>
101.1

>  <TopoPSA(NO)>
80.05

>  <TopoPSA>
133.59

>  <JGI1>
0.24

>  <JGI2>
0.07

>  <JGI3>
0.05

>  <JGI4>
0.04

>  <JGI5>
0.02

>  <Diameter>
15

>  <Radius>
8

>  <TMWC10>
126.35

>  <TSRW10>
75.08

>  <MW>
380.13

>  <AMW>
7.76

>  <WPath>
1816

>  <WPol>
32

>  <Zagreb1>
130

>  <Zagreb2>
148

>  <mZagreb2>
5.36

>  <yes>


>  <nAR-cont>
0.816016

>  <nHA-cont>
0.921834225

>  <MWHBN>
0.461611305

>  <MWHBN-cont>
0

>  <TPSA-cont>
0

>  <pka_cont>
0.97

>  <yes.1>


>  <BBB_SCORE>
2.222850225

>  <MMFF94 Energy>
-20.034

$$$$
Compound 375
Actelion Java MolfileCreator 2.0

  0  0  0  0  0  0              0 V3000
M  V30 BEGIN CTAB
M  V30 COUNTS 68 70 0 0 0
M  V30 BEGIN ATOM
M  V30 1 O 5.3248 -2.6994 -1.4284 0
M  V30 2 C 4.2994 -3.1776 -0.9496 0
M  V30 3 O 3.4494 -2.4131 -0.2298 0
M  V30 4 C 4.0442 -4.6617 -0.9968 0
M  V30 5 C 2.0634 -2.7777 -0.097 0 CFG=1
M  V30 6 C 2.5981 -5.0754 -0.8201 0 CFG=1
M  V30 7 C 1.9204 -4.2502 0.2554 0
M  V30 8 C 1.4421 -1.8937 0.995 0
M  V30 9 O 1.88 -4.9265 -2.043 0
M  V30 10 C 1.4785 -0.4043 0.6172 0
M  V30 11 C 0.7327 0.5041 1.6247 0 CFG=2
M  V30 12 C 0.6655 1.9981 1.1656 0 CFG=2
M  V30 13 C 1.2999 0.4064 3.0748 0 CFG=2
M  V30 14 C -0.1375 2.8316 2.1642 0
M  V30 15 C 0.1535 2.1818 -0.2896 0 CFG=1
M  V30 16 C 0.6309 1.3969 3.993 0
M  V30 17 C 2.8178 0.5908 3.1807 0
M  V30 18 C -0.0295 2.4804 3.5665 0
M  V30 19 C -0.9214 3.8585 1.7915 0
M  V30 20 O -1.0317 1.3859 -0.4951 0
M  V30 21 C -0.124 3.657 -0.601 0
M  V30 22 C -1.1136 4.3158 0.3713 0 CFG=1
M  V30 23 C -1.2583 0.9416 -1.7602 0
M  V30 24 C -2.571 4.1067 -0.0454 0
M  V30 25 O -0.5705 1.2397 -2.7294 0
M  V30 26 C -2.5002 0.0418 -1.8423 0
M  V30 27 C -3.639 0.9058 -2.434 0
M  V30 28 C -2.1474 -1.1385 -2.7649 0
M  V30 29 C -2.883 -0.5269 -0.4645 0
M  V30 30 C -4.9656 0.1895 -2.6516 0
M  V30 31 H 4.4211 -5.0317 -1.9571 0
M  V30 32 H 4.6473 -5.1004 -0.193 0
M  V30 33 H 1.5691 -2.5577 -1.0516 0
M  V30 34 H 2.5467 -6.1366 -0.5517 0
M  V30 35 H 0.8588 -4.5136 0.3272 0
M  V30 36 H 2.3934 -4.4586 1.2228 0
M  V30 37 H 1.9915 -2.0476 1.9302 0
M  V30 38 H 0.4022 -2.1977 1.1647 0
M  V30 39 H 2.2559 -5.5461 -2.6942 0
M  V30 40 H 2.513 -0.0632 0.4977 0
M  V30 41 H 1.014 -0.3162 -0.3696 0
M  V30 42 H -0.3035 0.134 1.6707 0
M  V30 43 H 1.6875 2.4045 1.1847 0
M  V30 44 H 1.0559 -0.5914 3.4615 0
M  V30 45 H 0.9465 1.8365 -0.9656 0
M  V30 46 H 0.6895 1.2012 5.0613 0
M  V30 47 H 3.3583 -0.1938 2.6437 0
M  V30 48 H 3.1416 1.5578 2.7821 0
M  V30 49 H 3.1441 0.5405 4.2263 0
M  V30 50 H -0.5056 3.1294 4.2983 0
M  V30 51 H -1.4756 4.4198 2.5423 0
M  V30 52 H -0.4868 3.7699 -1.6293 0
M  V30 53 H 0.8289 4.2006 -0.5466 0
M  V30 54 H -0.9235 5.3968 0.3397 0
M  V30 55 H -2.7261 4.3944 -1.0904 0
M  V30 56 H -2.8893 3.0671 0.0751 0
M  V30 57 H -3.2391 4.7229 0.5675 0
M  V30 58 H -3.3166 1.3272 -3.3955 0
M  V30 59 H -3.8187 1.768 -1.7795 0
M  V30 60 H -2.9519 -1.8804 -2.8032 0
M  V30 61 H -1.2425 -1.6508 -2.4167 0
M  V30 62 H -1.9552 -0.8011 -3.7898 0
M  V30 63 H -2.0268 -1.0198 0.0107 0
M  V30 64 H -3.2275 0.2621 0.2136 0
M  V30 65 H -3.6835 -1.2703 -0.5409 0
M  V30 66 H -5.3803 -0.1862 -1.712 0
M  V30 67 H -4.8632 -0.6464 -3.3488 0
M  V30 68 H -5.6963 0.8853 -3.0774 0
M  V30 END ATOM
M  V30 BEGIN BOND
M  V30 1 2 1 2
M  V30 2 1 2 3
M  V30 3 1 2 4
M  V30 4 1 3 5
M  V30 5 1 4 6
M  V30 6 1 5 7
M  V30 7 1 5 8
M  V30 8 1 6 9
M  V30 9 1 8 10
M  V30 10 1 10 11
M  V30 11 1 11 12
M  V30 12 1 11 13
M  V30 13 1 12 14
M  V30 14 1 12 15
M  V30 15 1 13 16
M  V30 16 1 13 17
M  V30 17 1 14 18
M  V30 18 2 14 19
M  V30 19 1 15 20
M  V30 20 1 15 21
M  V30 21 1 19 22
M  V30 22 1 20 23
M  V30 23 1 22 24
M  V30 24 2 23 25
M  V30 25 1 23 26
M  V30 26 1 26 27
M  V30 27 1 26 28
M  V30 28 1 26 29
M  V30 29 1 27 30
M  V30 30 1 6 7
M  V30 31 2 16 18
M  V30 32 1 21 22
M  V30 33 1 4 31
M  V30 34 1 4 32
M  V30 35 1 5 33
M  V30 36 1 6 34
M  V30 37 1 7 35
M  V30 38 1 7 36
M  V30 39 1 8 37
M  V30 40 1 8 38
M  V30 41 1 9 39
M  V30 42 1 10 40
M  V30 43 1 10 41
M  V30 44 1 11 42
M  V30 45 1 12 43
M  V30 46 1 13 44
M  V30 47 1 15 45
M  V30 48 1 16 46
M  V30 49 1 17 47
M  V30 50 1 17 48
M  V30 51 1 17 49
M  V30 52 1 18 50
M  V30 53 1 19 51
M  V30 54 1 21 52
M  V30 55 1 21 53
M  V30 56 1 22 54
M  V30 57 1 24 55
M  V30 58 1 24 56
M  V30 59 1 24 57
M  V30 60 1 27 58
M  V30 61 1 27 59
M  V30 62 1 28 60
M  V30 63 1 28 61
M  V30 64 1 28 62
M  V30 65 1 29 63
M  V30 66 1 29 64
M  V30 67 1 29 65
M  V30 68 1 30 66
M  V30 69 1 30 67
M  V30 70 1 30 68
M  V30 END BOND
M  V30 BEGIN COLLECTION
M  V30 MDLV30/STEABS ATOMS=(7 5 6 11 12 13 15 22)
M  V30 END COLLECTION
M  V30 END CTAB
M  END
>  <Column 1>
468

>  <level_0>
529

>  <index>
529

>  <Unnamed: 0>
529

>  <NO.>
533

>  <Name>
simvastatin

>  <IUPAC_name>
[(1s-3r-7s-8s-8ar)-8-[2-[(2r-4r)-4-hydroxy-6-oxooxan-2-yl]ethyl]-3-7-dimethyl-1-2-3-7-8-8a-hexahydronaphthalen-1-yl] 2-2-dimethylbutanoate

>  <SMILES>
CCC(C)(C)C(=O)O[C@H]1C[C@@H](C)C=C2C=C[C@H](C)[C@H](CC[C@@H]3C[C@@H](O)CC(=O)O3)[C@H]21

>  <CID>
54454

>  <logBB>
-0.01

>  <BBB+/BBB->
BBB+

>  <Inchi>
InChI=1S/C25H38O5/c1-6-25(4-5)24(28)30-21-12-15(2)11-17-8-7-16(3)20(23(17)21)10-9-19-13-18(26)14-22(27)29-19/h7-8-11-15-16-18-21-23-26H-6-9-10-12-14H2-1-5H3/t15--16--18+-19+-20--21--23-/m0/s1

>  <threshold>


>  <reference>
R27|R18|R26|

>  <group>
A

>  <Class>
1

>  <ABC>
23.27

>  <ABCGG>
18.86

>  <nAcid>
0

>  <nBase>
0

>  <nAromAtom>
0

>  <nAromBond>
0

>  <nAtom>
68

>  <nHeavyAtom>
30

>  <nSpiro>
0

>  <nBridgehead>
0

>  <nHetero>
5

>  <nN>
0

>  <nO>
5

>  <nF>
0

>  <BalabanJ>
1.71

>  <BertzCT>
706.33

>  <nBonds>
70

>  <nBondsO>
32

>  <nBondsS>
66

>  <nBondsD>
4

>  <nBondsT>
0

>  <nBondsA>
0

>  <nBondsM>
4

>  <nBondsKS>
66

>  <nBondsKD>
4

>  <RNCG>
0.18

>  <RPCG>
0.12

>  <FCSP3>
0.76

>  <SZ>
38

>  <Sm>
34.85

>  <Sv>
38.87

>  <Sse>
67.52

>  <Sp>
42.57

>  <Si>
76.94

>  <MZ>
0.56

>  <Mm>
0.51

>  <Mv>
0.57

>  <Mse>
0.99

>  <Mp>
0.63

>  <Mi>
1.13

>  <NsCH3>
5

>  <NdCH2>
0

>  <NssCH2>
6

>  <NtCH>
0

>  <NdsCH>
3

>  <NaaCH>
0

>  <NsssCH>
7

>  <NddC>
0

>  <NtsC>
0

>  <NdssC>
3

>  <NaasC>
0

>  <NaaaC>
0

>  <NssssC>
1

>  <NsNH3>
0

>  <NsNH2>
0

>  <NssNH2>
0

>  <NdNH>
0

>  <NssNH>
0

>  <NaaNH>
0

>  <NtN>
0

>  <NsssNH>
0

>  <NdsN>
0

>  <NaaN>
0

>  <NsssN>
0

>  <NddsN>
0

>  <NaasN>
0

>  <NssssN>
0

>  <NsOH>
1

>  <NdO>
2

>  <NssO>
2

>  <NaaO>
0

>  <NsF>
0

>  <NsSiH3>
0

>  <NssSiH2>
0

>  <NsssSiH>
0

>  <NssssSi>
0

>  <NsPH2>
0

>  <NssPH>
0

>  <NsssP>
0

>  <NdsssP>
0

>  <NsssssP>
0

>  <NsSH>
0

>  <NdS>
0

>  <NssS>
0

>  <NaaS>
0

>  <NdssS>
0

>  <NddssS>
0

>  <NsCl>
0

>  <NsBr>
0

>  <NsI>
0

>  <fragCpx>
154.05

>  <fMF>
0.26

>  <nHBAcc>
5

>  <nHBDon>
1

>  <Kier1>
24.64

>  <Kier2>
10.29

>  <Lipinski>
1

>  <GhoseFilter>
1

>  <FilterItLogS>
-3.56

>  <VMcGowan>
342.68

>  <LabuteASA>
180.45

>  <PEOE_VSA1>
14.58

>  <PEOE_VSA2>
9.59

>  <PEOE_VSA3>
0

>  <PEOE_VSA4>
0

>  <PEOE_VSA5>
0

>  <PEOE_VSA6>
39

>  <PEOE_VSA7>
62.86

>  <PEOE_VSA8>
12.34

>  <PEOE_VSA9>
17.94

>  <PEOE_VSA10>
12.21

>  <PEOE_VSA11>
0

>  <PEOE_VSA12>
0

>  <PEOE_VSA13>
0

>  <SMR_VSA1>
24.17

>  <SMR_VSA2>
0

>  <SMR_VSA3>
0

>  <SMR_VSA4>
29.09

>  <SMR_VSA5>
91.46

>  <SMR_VSA6>
0

>  <SMR_VSA7>
23.8

>  <SMR_VSA8>
0

>  <SMR_VSA9>
0

>  <SlogP_VSA1>
0

>  <SlogP_VSA2>
35.36

>  <SlogP_VSA3>
19.06

>  <SlogP_VSA4>
29.09

>  <SlogP_VSA5>
73.14

>  <SlogP_VSA6>
23.8

>  <SlogP_VSA7>
0

>  <SlogP_VSA8>
0

>  <SlogP_VSA9>
0

>  <SlogP_VSA10>
0

>  <SlogP_VSA11>
0

>  <EState_VSA1>
11.52

>  <EState_VSA2>
36.49

>  <EState_VSA3>
24.17

>  <EState_VSA4>
25.68

>  <EState_VSA5>
5.57

>  <EState_VSA6>
0

>  <EState_VSA7>
20.77

>  <EState_VSA8>
32.08

>  <EState_VSA9>
9.47

>  <EState_VSA10>
14.7

>  <VSA_EState1>
11.62

>  <VSA_EState2>
24.57

>  <VSA_EState3>
9.92

>  <VSA_EState4>
0.78

>  <VSA_EState5>
0.78

>  <VSA_EState6>
0

>  <VSA_EState7>
9.61

>  <VSA_EState8>
10.31

>  <VSA_EState9>
0

>  <apol>
71.1

>  <bpol>
43.33

>  <nRing>
3

>  <nHRing>
1

>  <naRing>
0

>  <naHRing>
0

>  <nARing 2>
3

>  <nAHRing 2>
1

>  <nFRing>
1

>  <nFHRing>
0

>  <nFaRing>
0

>  <nFaHRing>
0

>  <nFARing 2>
1

>  <nFAHRing 2>
0

>  <nRot>
6

>  <SLogP>
4.59

>  <SMR>
115.45

>  <TopoPSA(NO)>
72.83

>  <TopoPSA>
72.83

>  <JGI1>
0.28

>  <JGI2>
0.09

>  <JGI3>
0.06

>  <JGI4>
0.05

>  <JGI5>
0.03

>  <Diameter>
13

>  <Radius>
7

>  <TMWC10>
139.3

>  <TSRW10>
65.9

>  <MW>
418.27

>  <AMW>
6.15

>  <WPath>
2440

>  <WPol>
50

>  <Zagreb1>
158

>  <Zagreb2>
185

>  <mZagreb2>
6.49

>  <yes>


>  <nAR-cont>
0.691115

>  <nHA-cont>
0.74523694

>  <MWHBN>
0.293374858

>  <MWHBN-cont>
0.860070615

>  <TPSA-cont>
0.491601375

>  <pka_cont>
0.97

>  <yes.1>


>  <BBB_SCORE>
4.194660613

>  <MMFF94 Energy>
29.269

$$$$
Compound 376
Actelion Java MolfileCreator 2.0

  0  0  0  0  0  0              0 V3000
M  V30 BEGIN CTAB
M  V30 COUNTS 16 15 0 0 0
M  V30 BEGIN ATOM
M  V30 1 O 0.0 -0.7607 -1.6742 0
M  V30 2 C -0.6759 -0.711 -0.6478 0
M  V30 3 C -0.094 -0.3485 0.7085 0
M  V30 4 C -2.1444 -1.0482 -0.67 0
M  V30 5 C 1.3332 0.1898 0.644 0
M  V30 6 C 1.4001 1.6046 0.0859 0
M  V30 7 H -0.7513 0.3858 1.1869 0
M  V30 8 H -0.105 -1.262 1.3141 0
M  V30 9 H -2.453 -1.2867 -1.6917 0
M  V30 10 H -2.3303 -1.9156 -0.0319 0
M  V30 11 H -2.723 -0.19 -0.3192 0
M  V30 12 H 1.7513 0.1987 1.6576 0
M  V30 13 H 1.9678 -0.4705 0.042 0
M  V30 14 H 2.4348 1.9618 0.0894 0
M  V30 15 H 1.033 1.649 -0.9436 0
M  V30 16 H 0.8033 2.2933 0.6926 0
M  V30 END ATOM
M  V30 BEGIN BOND
M  V30 1 2 1 2
M  V30 2 1 2 3
M  V30 3 1 2 4
M  V30 4 1 3 5
M  V30 5 1 5 6
M  V30 6 1 3 7
M  V30 7 1 3 8
M  V30 8 1 4 9
M  V30 9 1 4 10
M  V30 10 1 4 11
M  V30 11 1 5 12
M  V30 12 1 5 13
M  V30 13 1 6 14
M  V30 14 1 6 15
M  V30 15 1 6 16
M  V30 END BOND
M  V30 END CTAB
M  END
>  <Column 1>
469

>  <level_0>
530

>  <index>
530

>  <Unnamed: 0>
530

>  <NO.>
534

>  <Name>
2-pentanone

>  <IUPAC_name>
pentan-2-one

>  <SMILES>
CCCC(C)=O

>  <CID>
7895

>  <logBB>
-0.01

>  <BBB+/BBB->
BBB+

>  <Inchi>
InChI=1S/C5H10O/c1-3-4-5(2)6/h3-4H2-1-2H3

>  <threshold>


>  <reference>
R2|R2|R3|R21|R25|R27|R27|R38|R41|R43|R46|R47|R8|R40|

>  <group>
A

>  <Class>
1

>  <ABC>
3.75

>  <ABCGG>
4.06

>  <nAcid>
0

>  <nBase>
0

>  <nAromAtom>
0

>  <nAromBond>
0

>  <nAtom>
16

>  <nHeavyAtom>
6

>  <nSpiro>
0

>  <nBridgehead>
0

>  <nHetero>
1

>  <nN>
0

>  <nO>
1

>  <nF>
0

>  <BalabanJ>
2.63

>  <BertzCT>
47.9

>  <nBonds>
15

>  <nBondsO>
5

>  <nBondsS>
14

>  <nBondsD>
1

>  <nBondsT>
0

>  <nBondsA>
0

>  <nBondsM>
1

>  <nBondsKS>
14

>  <nBondsKD>
1

>  <RNCG>
0.71

>  <RPCG>
0.31

>  <FCSP3>
0.8

>  <SZ>
8

>  <Sm>
7.17

>  <Sv>
8.42

>  <Sse>
15.77

>  <Sp>
9.47

>  <Si>
18.29

>  <MZ>
0.5

>  <Mm>
0.45

>  <Mv>
0.53

>  <Mse>
0.99

>  <Mp>
0.59

>  <Mi>
1.14

>  <NsCH3>
2

>  <NdCH2>
0

>  <NssCH2>
2

>  <NtCH>
0

>  <NdsCH>
0

>  <NaaCH>
0

>  <NsssCH>
0

>  <NddC>
0

>  <NtsC>
0

>  <NdssC>
1

>  <NaasC>
0

>  <NaaaC>
0

>  <NssssC>
0

>  <NsNH3>
0

>  <NsNH2>
0

>  <NssNH2>
0

>  <NdNH>
0

>  <NssNH>
0

>  <NaaNH>
0

>  <NtN>
0

>  <NsssNH>
0

>  <NdsN>
0

>  <NaaN>
0

>  <NsssN>
0

>  <NddsN>
0

>  <NaasN>
0

>  <NssssN>
0

>  <NsOH>
0

>  <NdO>
1

>  <NssO>
0

>  <NaaO>
0

>  <NsF>
0

>  <NsSiH3>
0

>  <NssSiH2>
0

>  <NsssSiH>
0

>  <NssssSi>
0

>  <NsPH2>
0

>  <NssPH>
0

>  <NsssP>
0

>  <NdsssP>
0

>  <NsssssP>
0

>  <NsSH>
0

>  <NdS>
0

>  <NssS>
0

>  <NaaS>
0

>  <NdssS>
0

>  <NddssS>
0

>  <NsCl>
0

>  <NsBr>
0

>  <NsI>
0

>  <fragCpx>
5.01

>  <fMF>
0

>  <nHBAcc>
1

>  <nHBDon>
0

>  <Kier1>
6

>  <Kier2>
3.2

>  <Lipinski>
1

>  <GhoseFilter>
0

>  <FilterItLogS>
-1.31

>  <VMcGowan>
82.88

>  <LabuteASA>
38.36

>  <PEOE_VSA1>
4.79

>  <PEOE_VSA2>
0

>  <PEOE_VSA3>
0

>  <PEOE_VSA4>
0

>  <PEOE_VSA5>
0

>  <PEOE_VSA6>
6.92

>  <PEOE_VSA7>
13.34

>  <PEOE_VSA8>
6.42

>  <PEOE_VSA9>
0

>  <PEOE_VSA10>
5.78

>  <PEOE_VSA11>
0

>  <PEOE_VSA12>
0

>  <PEOE_VSA13>
0

>  <SMR_VSA1>
4.79

>  <SMR_VSA2>
0

>  <SMR_VSA3>
0

>  <SMR_VSA4>
0

>  <SMR_VSA5>
26.69

>  <SMR_VSA6>
0

>  <SMR_VSA7>
0

>  <SMR_VSA8>
0

>  <SMR_VSA9>
0

>  <SlogP_VSA1>
0

>  <SlogP_VSA2>
5.78

>  <SlogP_VSA3>
4.79

>  <SlogP_VSA4>
0

>  <SlogP_VSA5>
26.69

>  <SlogP_VSA6>
0

>  <SlogP_VSA7>
0

>  <SlogP_VSA8>
0

>  <SlogP_VSA9>
0

>  <SlogP_VSA10>
0

>  <SlogP_VSA11>
0

>  <EState_VSA1>
0

>  <EState_VSA2>
5.78

>  <EState_VSA3>
0

>  <EState_VSA4>
12.84

>  <EState_VSA5>
0

>  <EState_VSA6>
6.92

>  <EState_VSA7>
6.92

>  <EState_VSA8>
0

>  <EState_VSA9>
0

>  <EState_VSA10>
4.79

>  <VSA_EState1>
0

>  <VSA_EState2>
10.04

>  <VSA_EState3>
0

>  <VSA_EState4>
0

>  <VSA_EState5>
0.29

>  <VSA_EState6>
0

>  <VSA_EState7>
1.72

>  <VSA_EState8>
3.62

>  <VSA_EState9>
0

>  <apol>
15.82

>  <bpol>
10.9

>  <nRing>
0

>  <nHRing>
0

>  <naRing>
0

>  <naHRing>
0

>  <nARing 2>
0

>  <nAHRing 2>
0

>  <nFRing>
0

>  <nFHRing>
0

>  <nFaRing>
0

>  <nFaHRing>
0

>  <nFARing 2>
0

>  <nFAHRing 2>
0

>  <nRot>
2

>  <SLogP>
1.38

>  <SMR>
25.59

>  <TopoPSA(NO)>
17.07

>  <TopoPSA>
17.07

>  <JGI1>
0.3

>  <JGI2>
0.09

>  <JGI3>
0.08

>  <JGI4>
0

>  <JGI5>
0

>  <Diameter>
4

>  <Radius>
2

>  <TMWC10>
60.96

>  <TSRW10>
29.44

>  <MW>
86.07

>  <AMW>
5.38

>  <WPath>
32

>  <WPol>
3

>  <Zagreb1>
20

>  <Zagreb2>
18

>  <mZagreb2>
1.58

>  <yes>


>  <nAR-cont>
0.336376

>  <nHA-cont>
0.238778273

>  <MWHBN>
0.107788915

>  <MWHBN-cont>
0.772132839

>  <TPSA-cont>
0.8808408

>  <pka_cont>
0.97

>  <yes.1>


>  <BBB_SCORE>
3.980035132

>  <MMFF94 Energy>
0.30037

$$$$
Compound 377
Actelion Java MolfileCreator 2.0

  0  0  0  0  0  0              0 V3000
M  V30 BEGIN CTAB
M  V30 COUNTS 61 64 0 0 0
M  V30 BEGIN ATOM
M  V30 1 F -1.1963 -2.3937 -7.9161 0
M  V30 2 C -0.2996 -2.1541 -6.951 0
M  V30 3 C 0.9783 -1.7312 -7.2921 0
M  V30 4 C -0.6619 -2.333 -5.6207 0
M  V30 5 C 1.9117 -1.4821 -6.2836 0
M  V30 6 C 0.2695 -2.0847 -4.6078 0
M  V30 7 C 1.5647 -1.6561 -4.9337 0
M  V30 8 C 2.6012 -1.3758 -3.8912 0
M  V30 9 O 3.7282 -1.0356 -4.2456 0
M  V30 10 C 2.2189 -1.5289 -2.4296 0
M  V30 11 C 3.3621 -1.1394 -1.4895 0
M  V30 12 C 3.0235 -1.3885 -0.0135 0
M  V30 13 N 1.773 -0.7438 0.4325 0
M  V30 14 C 1.3906 -1.2709 1.7532 0
M  V30 15 C 1.9256 0.7182 0.5145 0
M  V30 16 C 0.0171 -0.753 2.1756 0
M  V30 17 C 0.5929 1.3906 0.8423 0
M  V30 18 C -0.0934 0.773 2.0673 0
M  V30 19 N -1.5057 1.2432 2.211 0
M  V30 20 C 0.5805 1.3724 3.3201 0
M  V30 21 C -2.5789 1.0026 1.3726 0
M  V30 22 C -1.6686 2.0413 3.4163 0
M  V30 23 O 1.7479 1.2403 3.6593 0
M  V30 24 N -0.37 2.0939 4.008 0
M  V30 25 C -3.8645 1.5098 1.6503 0
M  V30 26 C -2.479 0.2459 0.1938 0
M  V30 27 C -0.1248 2.781 5.2594 0
M  V30 28 C -4.9676 1.2805 0.815 0
M  V30 29 C -3.5738 0.0089 -0.6508 0
M  V30 30 C -0.5007 1.9281 6.4591 0
M  V30 31 C -4.8215 0.5276 -0.3395 0
M  V30 32 H 1.2422 -1.5975 -8.3364 0
M  V30 33 H -1.6674 -2.6651 -5.3804 0
M  V30 34 H 2.9128 -1.1506 -6.5549 0
M  V30 35 H -0.0406 -2.2339 -3.5776 0
M  V30 36 H 1.3528 -0.8869 -2.2359 0
M  V30 37 H 1.9454 -2.575 -2.2525 0
M  V30 38 H 4.2551 -1.7272 -1.7383 0
M  V30 39 H 3.6401 -0.0917 -1.6528 0
M  V30 40 H 2.9287 -2.4756 0.1086 0
M  V30 41 H 3.8694 -1.0773 0.6131 0
M  V30 42 H 2.1479 -1.0319 2.5099 0
M  V30 43 H 1.3268 -2.3657 1.7122 0
M  V30 44 H 2.6913 0.9958 1.2492 0
M  V30 45 H 2.2561 1.1252 -0.4472 0
M  V30 46 H -0.1845 -1.081 3.2042 0
M  V30 47 H -0.7354 -1.2571 1.5628 0
M  V30 48 H 0.7673 2.4636 0.9999 0
M  V30 49 H -0.0402 1.3328 -0.0475 0
M  V30 50 H -2.3582 1.5683 4.1234 0
M  V30 51 H -1.9849 3.0653 3.19 0
M  V30 52 H -4.0526 2.1078 2.5371 0
M  V30 53 H -1.5354 -0.1916 -0.1149 0
M  V30 54 H -0.6895 3.7192 5.2582 0
M  V30 55 H 0.9401 3.03 5.3211 0
M  V30 56 H -5.938 1.695 1.075 0
M  V30 57 H -3.4398 -0.5833 -1.5518 0
M  V30 58 H 0.0579 0.9864 6.4613 0
M  V30 59 H -1.5676 1.6832 6.4523 0
M  V30 60 H -0.2797 2.4609 7.389 0
M  V30 61 H -5.6714 0.3468 -0.9909 0
M  V30 END ATOM
M  V30 BEGIN BOND
M  V30 1 1 1 2
M  V30 2 2 2 3
M  V30 3 1 2 4
M  V30 4 1 3 5
M  V30 5 2 4 6
M  V30 6 2 5 7
M  V30 7 1 7 8
M  V30 8 2 8 9
M  V30 9 1 8 10
M  V30 10 1 10 11
M  V30 11 1 11 12
M  V30 12 1 12 13
M  V30 13 1 13 14
M  V30 14 1 13 15
M  V30 15 1 14 16
M  V30 16 1 15 17
M  V30 17 1 16 18
M  V30 18 1 18 19
M  V30 19 1 18 20
M  V30 20 1 19 21
M  V30 21 1 19 22
M  V30 22 2 20 23
M  V30 23 1 20 24
M  V30 24 2 21 25
M  V30 25 1 21 26
M  V30 26 1 24 27
M  V30 27 1 25 28
M  V30 28 2 26 29
M  V30 29 1 27 30
M  V30 30 2 28 31
M  V30 31 1 6 7
M  V30 32 1 17 18
M  V30 33 1 22 24
M  V30 34 1 29 31
M  V30 35 1 3 32
M  V30 36 1 4 33
M  V30 37 1 5 34
M  V30 38 1 6 35
M  V30 39 1 10 36
M  V30 40 1 10 37
M  V30 41 1 11 38
M  V30 42 1 11 39
M  V30 43 1 12 40
M  V30 44 1 12 41
M  V30 45 1 14 42
M  V30 46 1 14 43
M  V30 47 1 15 44
M  V30 48 1 15 45
M  V30 49 1 16 46
M  V30 50 1 16 47
M  V30 51 1 17 48
M  V30 52 1 17 49
M  V30 53 1 22 50
M  V30 54 1 22 51
M  V30 55 1 25 52
M  V30 56 1 26 53
M  V30 57 1 27 54
M  V30 58 1 27 55
M  V30 59 1 28 56
M  V30 60 1 29 57
M  V30 61 1 30 58
M  V30 62 1 30 59
M  V30 63 1 30 60
M  V30 64 1 31 61
M  V30 END BOND
M  V30 END CTAB
M  END
>  <Column 1>
471

>  <level_0>
532

>  <index>
532

>  <Unnamed: 0>
532

>  <NO.>
536

>  <Name>
chembl136942

>  <IUPAC_name>
3-ethyl-8-[4-(4-fluorophenyl)-4-oxobutyl]-1-phenyl-1-3-8-triazaspiro[4.5]decan-4-one

>  <SMILES>
CCN1CN(c2ccccc2)C2(CCN(CCCC(=O)c3ccc(F)cc3)CC2)C1=O

>  <CID>
13497176

>  <logBB>
-0.01

>  <BBB+/BBB->
BBB+

>  <Inchi>
InChI=1S/C25H30FN3O2/c1-2-28-19-29(22-7-4-3-5-8-22)25(24(28)31)14-17-27(18-15-25)16-6-9-23(30)20-10-12-21(26)13-11-20/h3-5-7-8-10-13H-2-6-9-14-19H2-1H3

>  <threshold>


>  <reference>
R8|

>  <group>
A

>  <Class>
1

>  <ABC>
24.13

>  <ABCGG>
18.13

>  <nAcid>
0

>  <nBase>
1

>  <nAromAtom>
12

>  <nAromBond>
12

>  <nAtom>
61

>  <nHeavyAtom>
31

>  <nSpiro>
1

>  <nBridgehead>
0

>  <nHetero>
6

>  <nN>
3

>  <nO>
2

>  <nF>
1

>  <BalabanJ>
1.26

>  <BertzCT>
908.12

>  <nBonds>
64

>  <nBondsO>
34

>  <nBondsS>
50

>  <nBondsD>
2

>  <nBondsT>
0

>  <nBondsA>
12

>  <nBondsM>
14

>  <nBondsKS>
56

>  <nBondsKD>
8

>  <RNCG>
0.15

>  <RPCG>
0.11

>  <FCSP3>
0.44

>  <SZ>
37.67

>  <Sm>
35.26

>  <Sv>
37.48

>  <Sse>
60.92

>  <Sp>
40.25

>  <Si>
69.07

>  <MZ>
0.62

>  <Mm>
0.58

>  <Mv>
0.61

>  <Mse>
1

>  <Mp>
0.66

>  <Mi>
1.13

>  <NsCH3>
1

>  <NdCH2>
0

>  <NssCH2>
9

>  <NtCH>
0

>  <NdsCH>
0

>  <NaaCH>
9

>  <NsssCH>
0

>  <NddC>
0

>  <NtsC>
0

>  <NdssC>
2

>  <NaasC>
3

>  <NaaaC>
0

>  <NssssC>
1

>  <NsNH3>
0

>  <NsNH2>
0

>  <NssNH2>
0

>  <NdNH>
0

>  <NssNH>
0

>  <NaaNH>
0

>  <NtN>
0

>  <NsssNH>
0

>  <NdsN>
0

>  <NaaN>
0

>  <NsssN>
3

>  <NddsN>
0

>  <NaasN>
0

>  <NssssN>
0

>  <NsOH>
0

>  <NdO>
2

>  <NssO>
0

>  <NaaO>
0

>  <NsF>
1

>  <NsSiH3>
0

>  <NssSiH2>
0

>  <NsssSiH>
0

>  <NssssSi>
0

>  <NsPH2>
0

>  <NssPH>
0

>  <NsssP>
0

>  <NdsssP>
0

>  <NsssssP>
0

>  <NsSH>
0

>  <NdS>
0

>  <NssS>
0

>  <NaaS>
0

>  <NdssS>
0

>  <NddssS>
0

>  <NsCl>
0

>  <NsBr>
0

>  <NsI>
0

>  <fragCpx>
226.06

>  <fMF>
0.43

>  <nHBAcc>
4

>  <nHBDon>
0

>  <Kier1>
24.13

>  <Kier2>
10.95

>  <Lipinski>
1

>  <GhoseFilter>
1

>  <FilterItLogS>
-5.51

>  <VMcGowan>
328.71

>  <LabuteASA>
182.99

>  <PEOE_VSA1>
14.7

>  <PEOE_VSA2>
9.59

>  <PEOE_VSA3>
4.39

>  <PEOE_VSA4>
0

>  <PEOE_VSA5>
0

>  <PEOE_VSA6>
18.2

>  <PEOE_VSA7>
69.13

>  <PEOE_VSA8>
37.31

>  <PEOE_VSA9>
6.67

>  <PEOE_VSA10>
11.36

>  <PEOE_VSA11>
5.78

>  <PEOE_VSA12>
5.91

>  <PEOE_VSA13>
0

>  <SMR_VSA1>
13.98

>  <SMR_VSA2>
0

>  <SMR_VSA3>
9.8

>  <SMR_VSA4>
0

>  <SMR_VSA5>
38.15

>  <SMR_VSA6>
37.75

>  <SMR_VSA7>
65.98

>  <SMR_VSA8>
0

>  <SMR_VSA9>
0

>  <SlogP_VSA1>
4.9

>  <SlogP_VSA2>
59.88

>  <SlogP_VSA3>
4.79

>  <SlogP_VSA4>
5.82

>  <SlogP_VSA5>
42.97

>  <SlogP_VSA6>
54.6

>  <SlogP_VSA7>
0

>  <SlogP_VSA8>
0

>  <SlogP_VSA9>
0

>  <SlogP_VSA10>
10.08

>  <SlogP_VSA11>
0

>  <EState_VSA1>
5.54

>  <EState_VSA2>
17.51

>  <EState_VSA3>
18.65

>  <EState_VSA4>
51.13

>  <EState_VSA5>
12.13

>  <EState_VSA6>
12.13

>  <EState_VSA7>
30.02

>  <EState_VSA8>
21.93

>  <EState_VSA9>
0

>  <EState_VSA10>
13.98

>  <VSA_EState1>
13.03

>  <VSA_EState2>
32.19

>  <VSA_EState3>
0

>  <VSA_EState4>
1.21

>  <VSA_EState5>
-0.04

>  <VSA_EState6>
15.97

>  <VSA_EState7>
2.8

>  <VSA_EState8>
5.92

>  <VSA_EState9>
0

>  <apol>
67.21

>  <bpol>
38.08

>  <nRing>
4

>  <nHRing>
2

>  <naRing>
2

>  <naHRing>
0

>  <nARing 2>
2

>  <nAHRing 2>
2

>  <nFRing>
0

>  <nFHRing>
0

>  <nFaRing>
0

>  <nFaHRing>
0

>  <nFARing 2>
0

>  <nFAHRing 2>
0

>  <nRot>
7

>  <SLogP>
3.95

>  <SMR>
119.54

>  <TopoPSA(NO)>
43.86

>  <TopoPSA>
43.86

>  <JGI1>
0.19

>  <JGI2>
0.1

>  <JGI3>
0.06

>  <JGI4>
0.04

>  <JGI5>
0.02

>  <Diameter>
17

>  <Radius>
9

>  <TMWC10>
143.16

>  <TSRW10>
81.66

>  <MW>
423.23

>  <AMW>
6.94

>  <WPath>
3044

>  <WPol>
52

>  <Zagreb1>
164

>  <Zagreb2>
196

>  <mZagreb2>
6.92

>  <yes>


>  <nAR-cont>
1

>  <nHA-cont>
0.702745138

>  <MWHBN>
0.194433802

>  <MWHBN-cont>
0.99794632

>  <TPSA-cont>
0.693829965

>  <pka_cont>
0.97

>  <yes.1>


>  <BBB_SCORE>
5.072324547

>  <MMFF94 Energy>
32.879

$$$$
Compound 378
Actelion Java MolfileCreator 2.0

  0  0  0  0  0  0              0 V3000
M  V30 BEGIN CTAB
M  V30 COUNTS 53 56 0 0 0
M  V30 BEGIN ATOM
M  V30 1 O 0.0792 -3.3327 -1.5066 0
M  V30 2 C -0.156 -2.4715 -0.6572 0
M  V30 3 N -0.0648 -1.1222 -0.9778 0
M  V30 4 C -0.5536 -2.8714 0.6789 0
M  V30 5 C -0.6531 -0.016 -0.2038 0
M  V30 6 C 0.5179 -0.7548 -2.2742 0
M  V30 7 N -1.1104 -4.1149 0.9014 0
M  V30 8 C -0.4349 -2.2803 1.9259 0
M  V30 9 C -1.0372 1.1775 -1.0959 0
M  V30 10 C 1.1118 0.6651 -2.2815 0
M  V30 11 C -1.4144 -4.2971 2.228 0
M  V30 12 C -0.9928 -3.1551 2.9008 0
M  V30 13 N 0.12 1.6761 -1.8548 0
M  V30 14 C -2.0101 -5.3801 2.8792 0
M  V30 15 C -1.1652 -3.0813 4.2998 0
M  V30 16 C 0.7295 2.8334 -1.3272 0
M  V30 17 C -2.1771 -5.2807 4.2649 0
M  V30 18 C -1.7629 -4.1521 4.9757 0
M  V30 19 N 0.7258 2.9947 0.0193 0
M  V30 20 C 1.3442 3.765 -2.2114 0
M  V30 21 O -1.9957 -4.2154 6.3244 0
M  V30 22 C 1.3709 4.0664 0.5227 0
M  V30 23 N 1.2784 3.5722 -3.5871 0
M  V30 24 C 2.0185 4.8421 -1.6315 0
M  V30 25 C -1.5827 -3.0978 7.1004 0
M  V30 26 C 2.0321 5.0012 -0.2494 0
M  V30 27 C 1.8141 4.4764 -4.5781 0
M  V30 28 C 1.5709 3.9175 -5.9703 0
M  V30 29 H -1.5439 -0.3698 0.3235 0
M  V30 30 H 0.0956 0.2934 0.5328 0
M  V30 31 H -0.2848 -0.8322 -3.018 0
M  V30 32 H 1.2915 -1.4796 -2.5516 0
M  V30 33 H -1.2686 -4.7921 0.1668 0
M  V30 34 H 0.0183 -1.3217 2.1364 0
M  V30 35 H -1.5225 1.9636 -0.5041 0
M  V30 36 H -1.7897 0.8456 -1.823 0
M  V30 37 H 1.9754 0.6707 -1.6019 0
M  V30 38 H 1.4779 0.8898 -3.2887 0
M  V30 39 H -2.3305 -6.266 2.3413 0
M  V30 40 H -0.8283 -2.1902 4.8146 0
M  V30 41 H -2.6383 -6.1069 4.8022 0
M  V30 42 H 1.3464 4.1534 1.605 0
M  V30 43 H 0.5936 2.8716 -3.8636 0
M  V30 44 H 2.5273 5.578 -2.2447 0
M  V30 45 H -0.4988 -2.9539 7.0405 0
M  V30 46 H -1.833 -3.3057 8.1453 0
M  V30 47 H -2.12 -2.1909 6.804 0
M  V30 48 H 2.5421 5.8398 0.2105 0
M  V30 49 H 1.3353 5.4586 -4.4949 0
M  V30 50 H 2.8927 4.6042 -4.4331 0
M  V30 51 H 1.9809 4.5912 -6.729 0
M  V30 52 H 2.0458 2.9376 -6.0883 0
M  V30 53 H 0.4997 3.7956 -6.1633 0
M  V30 END ATOM
M  V30 BEGIN BOND
M  V30 1 2 1 2
M  V30 2 1 2 3
M  V30 3 1 2 4
M  V30 4 1 3 5
M  V30 5 1 3 6
M  V30 6 1 4 7
M  V30 7 2 4 8
M  V30 8 1 5 9
M  V30 9 1 6 10
M  V30 10 1 7 11
M  V30 11 1 8 12
M  V30 12 1 9 13
M  V30 13 1 11 14
M  V30 14 1 12 15
M  V30 15 1 13 16
M  V30 16 2 14 17
M  V30 17 2 15 18
M  V30 18 2 16 19
M  V30 19 1 16 20
M  V30 20 1 18 21
M  V30 21 1 19 22
M  V30 22 1 20 23
M  V30 23 2 20 24
M  V30 24 1 21 25
M  V30 25 2 22 26
M  V30 26 1 23 27
M  V30 27 1 27 28
M  V30 28 1 10 13
M  V30 29 2 11 12
M  V30 30 1 17 18
M  V30 31 1 24 26
M  V30 32 1 5 29
M  V30 33 1 5 30
M  V30 34 1 6 31
M  V30 35 1 6 32
M  V30 36 1 7 33
M  V30 37 1 8 34
M  V30 38 1 9 35
M  V30 39 1 9 36
M  V30 40 1 10 37
M  V30 41 1 10 38
M  V30 42 1 14 39
M  V30 43 1 15 40
M  V30 44 1 17 41
M  V30 45 1 22 42
M  V30 46 1 23 43
M  V30 47 1 24 44
M  V30 48 1 25 45
M  V30 49 1 25 46
M  V30 50 1 25 47
M  V30 51 1 26 48
M  V30 52 1 27 49
M  V30 53 1 27 50
M  V30 54 1 28 51
M  V30 55 1 28 52
M  V30 56 1 28 53
M  V30 END BOND
M  V30 END CTAB
M  END
>  <Column 1>
472

>  <level_0>
533

>  <index>
533

>  <Unnamed: 0>
533

>  <NO.>
537

>  <Name>
atevirdine

>  <IUPAC_name>
[4-[3-(ethylamino)pyridin-2-yl]piperazin-1-yl]-(5-methoxy-1h-indol-2-yl)methanone

>  <SMILES>
CCNc1cccnc1N1CCN(C(=O)c2cc3cc(OC)ccc3[nH]2)CC1

>  <CID>
60848

>  <logBB>
-0.01

>  <BBB+/BBB->
BBB+

>  <Inchi>
InChI=1S/C21H25N5O2/c1-3-22-18-5-4-8-23-20(18)25-9-11-26(12-10-25)21(27)19-14-15-13-16(28-2)6-7-17(15)24-19/h4-8-13-14-22-24H-3-9-12H2-1-2H3

>  <threshold>


>  <reference>
R18|R26|R27|

>  <group>
A

>  <Class>
1

>  <ABC>
21.83

>  <ABCGG>
16.37

>  <nAcid>
0

>  <nBase>
0

>  <nAromAtom>
15

>  <nAromBond>
16

>  <nAtom>
53

>  <nHeavyAtom>
28

>  <nSpiro>
0

>  <nBridgehead>
0

>  <nHetero>
7

>  <nN>
5

>  <nO>
2

>  <nF>
0

>  <BalabanJ>
1.27

>  <BertzCT>
975.84

>  <nBonds>
56

>  <nBondsO>
31

>  <nBondsS>
39

>  <nBondsD>
1

>  <nBondsT>
0

>  <nBondsA>
16

>  <nBondsM>
17

>  <nBondsKS>
48

>  <nBondsKD>
8

>  <RNCG>
0.19

>  <RPCG>
0.1

>  <FCSP3>
0.33

>  <SZ>
33.67

>  <Sm>
31.59

>  <Sv>
32.99

>  <Sse>
53.08

>  <Sp>
35.24

>  <Si>
60.06

>  <MZ>
0.64

>  <Mm>
0.6

>  <Mv>
0.62

>  <Mse>
1

>  <Mp>
0.66

>  <Mi>
1.13

>  <NsCH3>
2

>  <NdCH2>
0

>  <NssCH2>
5

>  <NtCH>
0

>  <NdsCH>
0

>  <NaaCH>
7

>  <NsssCH>
0

>  <NddC>
0

>  <NtsC>
0

>  <NdssC>
1

>  <NaasC>
4

>  <NaaaC>
2

>  <NssssC>
0

>  <NsNH3>
0

>  <NsNH2>
0

>  <NssNH2>
0

>  <NdNH>
0

>  <NssNH>
1

>  <NaaNH>
1

>  <NtN>
0

>  <NsssNH>
0

>  <NdsN>
0

>  <NaaN>
1

>  <NsssN>
2

>  <NddsN>
0

>  <NaasN>
0

>  <NssssN>
0

>  <NsOH>
0

>  <NdO>
1

>  <NssO>
1

>  <NaaO>
0

>  <NsF>
0

>  <NsSiH3>
0

>  <NssSiH2>
0

>  <NsssSiH>
0

>  <NssssSi>
0

>  <NsPH2>
0

>  <NssPH>
0

>  <NsssP>
0

>  <NdsssP>
0

>  <NsssssP>
0

>  <NsSH>
0

>  <NdS>
0

>  <NssS>
0

>  <NaaS>
0

>  <NdssS>
0

>  <NddssS>
0

>  <NsCl>
0

>  <NsBr>
0

>  <NsI>
0

>  <fragCpx>
205.07

>  <fMF>
0.42

>  <nHBAcc>
5

>  <nHBDon>
2

>  <Kier1>
21.24

>  <Kier2>
9.87

>  <Lipinski>
1

>  <GhoseFilter>
1

>  <FilterItLogS>
-5.01

>  <VMcGowan>
290.55

>  <LabuteASA>
163.86

>  <PEOE_VSA1>
24.84

>  <PEOE_VSA2>
4.79

>  <PEOE_VSA3>
4.98

>  <PEOE_VSA4>
0

>  <PEOE_VSA5>
0

>  <PEOE_VSA6>
0

>  <PEOE_VSA7>
43.32

>  <PEOE_VSA8>
49.82

>  <PEOE_VSA9>
12.8

>  <PEOE_VSA10>
11.44

>  <PEOE_VSA11>
5.82

>  <PEOE_VSA12>
0

>  <PEOE_VSA13>
5.91

>  <SMR_VSA1>
9.53

>  <SMR_VSA2>
0

>  <SMR_VSA3>
14.87

>  <SMR_VSA4>
0

>  <SMR_VSA5>
6.92

>  <SMR_VSA6>
50.05

>  <SMR_VSA7>
48.29

>  <SMR_VSA8>
0

>  <SMR_VSA9>
5.75

>  <SlogP_VSA1>
14.95

>  <SlogP_VSA2>
60.61

>  <SlogP_VSA3>
0

>  <SlogP_VSA4>
0

>  <SlogP_VSA5>
17.41

>  <SlogP_VSA6>
42.6

>  <SlogP_VSA7>
0

>  <SlogP_VSA8>
10.9

>  <SlogP_VSA9>
0

>  <SlogP_VSA10>
11.51

>  <SlogP_VSA11>
5.75

>  <EState_VSA1>
0

>  <EState_VSA2>
5.91

>  <EState_VSA3>
18.78

>  <EState_VSA4>
47.79

>  <EState_VSA5>
0

>  <EState_VSA6>
7.11

>  <EState_VSA7>
47.49

>  <EState_VSA8>
27.11

>  <EState_VSA9>
4.74

>  <EState_VSA10>
4.79

>  <VSA_EState1>
5.26

>  <VSA_EState2>
24.85

>  <VSA_EState3>
4.33

>  <VSA_EState4>
2.59

>  <VSA_EState5>
1.77

>  <VSA_EState6>
11.64

>  <VSA_EState7>
1.81

>  <VSA_EState8>
5.77

>  <VSA_EState9>
1.64

>  <apol>
58.84

>  <bpol>
33.38

>  <nRing>
4

>  <nHRing>
3

>  <naRing>
3

>  <naHRing>
2

>  <nARing 2>
1

>  <nAHRing 2>
1

>  <nFRing>
1

>  <nFHRing>
1

>  <nFaRing>
1

>  <nFaHRing>
1

>  <nFARing 2>
0

>  <nFAHRing 2>
0

>  <nRot>
5

>  <SLogP>
2.97

>  <SMR>
111.37

>  <TopoPSA(NO)>
73.49

>  <TopoPSA>
73.49

>  <JGI1>
0.16

>  <JGI2>
0.08

>  <JGI3>
0.05

>  <JGI4>
0.03

>  <JGI5>
0.02

>  <Diameter>
16

>  <Radius>
8

>  <TMWC10>
135.67

>  <TSRW10>
77.39

>  <MW>
379.2

>  <AMW>
7.15

>  <WPath>
2266

>  <WPol>
45

>  <Zagreb1>
148

>  <Zagreb2>
176

>  <mZagreb2>
6.31

>  <yes>


>  <nAR-cont>
0.816016

>  <nHA-cont>
0.82432561

>  <MWHBN>
0.359471013

>  <MWHBN-cont>
0.634442399

>  <TPSA-cont>
0.486994165

>  <pka_cont>
0.97

>  <yes.1>


>  <BBB_SCORE>
4.050993539

>  <MMFF94 Energy>
69.587

$$$$
Compound 379
Actelion Java MolfileCreator 2.0

  0  0  0  0  0  0              0 V3000
M  V30 BEGIN CTAB
M  V30 COUNTS 21 21 0 0 0
M  V30 BEGIN ATOM
M  V30 1 F 0.2378 -2.4601 -0.3171 0
M  V30 2 C 1.1229 -1.5962 -0.8789 0
M  V30 3 C 1.6844 -0.6877 0.2088 0 CFG=1
M  V30 4 O 2.554 0.2868 -0.3736 0
M  V30 5 C 0.5846 -0.0221 1.0547 0
M  V30 6 N -0.451 0.6508 0.291 0
M  V30 7 C -1.7574 0.2936 0.0783 0
M  V30 8 C -0.2544 1.8237 -0.4035 0
M  V30 9 N -2.4091 -0.8376 0.673 0 CHG=1
M  V30 10 N -2.3778 1.1272 -0.7355 0
M  V30 11 C -1.4474 2.0855 -1.036 0
M  V30 12 O -3.1675 -1.4981 -0.0474 0
M  V30 13 O -2.1704 -1.0576 1.8691 0 CHG=-1
M  V30 14 H 0.6153 -1.0351 -1.6697 0
M  V30 15 H 1.9216 -2.175 -1.3532 0
M  V30 16 H 2.2974 -1.2991 0.882 0
M  V30 17 H 3.0891 0.6803 0.3388 0
M  V30 18 H 1.0241 0.7424 1.7072 0
M  V30 19 H 0.129 -0.7729 1.7006 0
M  V30 20 H 0.6944 2.3435 -0.4106 0
M  V30 21 H -1.6833 2.914 -1.6927 0
M  V30 END ATOM
M  V30 BEGIN BOND
M  V30 1 1 1 2
M  V30 2 1 2 3
M  V30 3 1 3 4
M  V30 4 1 3 5
M  V30 5 1 5 6
M  V30 6 1 6 7
M  V30 7 1 6 8
M  V30 8 1 7 9
M  V30 9 2 7 10
M  V30 10 2 8 11
M  V30 11 2 9 12
M  V30 12 1 9 13
M  V30 13 1 10 11
M  V30 14 1 2 14
M  V30 15 1 2 15
M  V30 16 1 3 16
M  V30 17 1 4 17
M  V30 18 1 5 18
M  V30 19 1 5 19
M  V30 20 1 8 20
M  V30 21 1 11 21
M  V30 END BOND
M  V30 BEGIN COLLECTION
M  V30 MDLV30/STERAC1 ATOMS=(1 3)
M  V30 END COLLECTION
M  V30 END CTAB
M  END
>  <Column 1>
473

>  <level_0>
534

>  <index>
534

>  <Unnamed: 0>
534

>  <NO.>
538

>  <Name>
fluoromisonidazole

>  <IUPAC_name>
1-fluoro-3-(2-nitroimidazol-1-yl)propan-2-ol

>  <SMILES>
O=[N+]([O-])c1nccn1CC(O)CF

>  <CID>
92242

>  <logBB>
-0.01

>  <BBB+/BBB->
BBB+

>  <Inchi>
InChI=1S/C6H8FN3O3/c7-3-5(11)4-9-2-1-8-6(9)10(12)13/h1-2-5-11H-3-4H2

>  <threshold>


>  <reference>
R2|R2|R21|R27|R27|R43|R47|R8|

>  <group>
A

>  <Class>
1

>  <ABC>
9.44

>  <ABCGG>
9.58

>  <nAcid>
0

>  <nBase>
0

>  <nAromAtom>
5

>  <nAromBond>
5

>  <nAtom>
21

>  <nHeavyAtom>
13

>  <nSpiro>
0

>  <nBridgehead>
0

>  <nHetero>
7

>  <nN>
3

>  <nO>
3

>  <nF>
1

>  <BalabanJ>
2.39

>  <BertzCT>
301.07

>  <nBonds>
21

>  <nBondsO>
13

>  <nBondsS>
15

>  <nBondsD>
1

>  <nBondsT>
0

>  <nBondsA>
5

>  <nBondsM>
6

>  <nBondsKS>
18

>  <nBondsKD>
3

>  <RNCG>
0.22

>  <RPCG>
0.25

>  <FCSP3>
0.5

>  <SZ>
16.33

>  <Sm>
15.75

>  <Sv>
13.23

>  <Sse>
22.49

>  <Sp>
12.94

>  <Si>
24.71

>  <MZ>
0.78

>  <Mm>
0.75

>  <Mv>
0.63

>  <Mse>
1.07

>  <Mp>
0.62

>  <Mi>
1.18

>  <NsCH3>
0

>  <NdCH2>
0

>  <NssCH2>
2

>  <NtCH>
0

>  <NdsCH>
0

>  <NaaCH>
2

>  <NsssCH>
1

>  <NddC>
0

>  <NtsC>
0

>  <NdssC>
0

>  <NaasC>
1

>  <NaaaC>
0

>  <NssssC>
0

>  <NsNH3>
0

>  <NsNH2>
0

>  <NssNH2>
0

>  <NdNH>
0

>  <NssNH>
0

>  <NaaNH>
0

>  <NtN>
0

>  <NsssNH>
0

>  <NdsN>
0

>  <NaaN>
1

>  <NsssN>
0

>  <NddsN>
1

>  <NaasN>
1

>  <NssssN>
0

>  <NsOH>
1

>  <NdO>
1

>  <NssO>
0

>  <NaaO>
0

>  <NsF>
1

>  <NsSiH3>
0

>  <NssSiH2>
0

>  <NsssSiH>
0

>  <NssssSi>
0

>  <NsPH2>
0

>  <NssPH>
0

>  <NsssP>
0

>  <NdsssP>
0

>  <NsssssP>
0

>  <NsSH>
0

>  <NdS>
0

>  <NssS>
0

>  <NaaS>
0

>  <NdssS>
0

>  <NddssS>
0

>  <NsCl>
0

>  <NsBr>
0

>  <NsI>
0

>  <fragCpx>
13.07

>  <fMF>
0.24

>  <nHBAcc>
5

>  <nHBDon>
1

>  <Kier1>
11.08

>  <Kier2>
5.02

>  <Lipinski>
1

>  <GhoseFilter>
1

>  <FilterItLogS>
-0.68

>  <VMcGowan>
120.95

>  <LabuteASA>
72.78

>  <PEOE_VSA1>
15.22

>  <PEOE_VSA2>
0

>  <PEOE_VSA3>
8.96

>  <PEOE_VSA4>
0

>  <PEOE_VSA5>
0

>  <PEOE_VSA6>
4.98

>  <PEOE_VSA7>
4.92

>  <PEOE_VSA8>
0

>  <PEOE_VSA9>
0

>  <PEOE_VSA10>
31.72

>  <PEOE_VSA11>
0

>  <PEOE_VSA12>
0

>  <PEOE_VSA13>
0

>  <SMR_VSA1>
14.42

>  <SMR_VSA2>
0

>  <SMR_VSA3>
9.55

>  <SMR_VSA4>
0

>  <SMR_VSA5>
12.65

>  <SMR_VSA6>
6.67

>  <SMR_VSA7>
22.51

>  <SMR_VSA8>
0

>  <SMR_VSA9>
0

>  <SlogP_VSA1>
0

>  <SlogP_VSA2>
32.36

>  <SlogP_VSA3>
6.54

>  <SlogP_VSA4>
10.11

>  <SlogP_VSA5>
0

>  <SlogP_VSA6>
12.39

>  <SlogP_VSA7>
0

>  <SlogP_VSA8>
0

>  <SlogP_VSA9>
0

>  <SlogP_VSA10>
10.34

>  <SlogP_VSA11>
0

>  <EState_VSA1>
23.65

>  <EState_VSA2>
6.54

>  <EState_VSA3>
0

>  <EState_VSA4>
4.57

>  <EState_VSA5>
12.39

>  <EState_VSA6>
0

>  <EState_VSA7>
0

>  <EState_VSA8>
4.98

>  <EState_VSA9>
5.11

>  <EState_VSA10>
14.5

>  <VSA_EState1>
12.95

>  <VSA_EState2>
13.04

>  <VSA_EState3>
19.19

>  <VSA_EState4>
0

>  <VSA_EState5>
-0.4

>  <VSA_EState6>
0

>  <VSA_EState7>
1.31

>  <VSA_EState8>
-1.1

>  <VSA_EState9>
0

>  <apol>
21.62

>  <bpol>
13.15

>  <nRing>
1

>  <nHRing>
1

>  <naRing>
1

>  <naHRing>
1

>  <nARing 2>
0

>  <nAHRing 2>
0

>  <nFRing>
0

>  <nFHRing>
0

>  <nFaRing>
0

>  <nFaHRing>
0

>  <nFARing 2>
0

>  <nFAHRing 2>
0

>  <nRot>
4

>  <SLogP>
0.12

>  <SMR>
40.86

>  <TopoPSA(NO)>
81.19

>  <TopoPSA>
81.19

>  <JGI1>
0.23

>  <JGI2>
0.09

>  <JGI3>
0.06

>  <JGI4>
0.04

>  <JGI5>
0.04

>  <Diameter>
7

>  <Radius>
4

>  <TMWC10>
92.82

>  <TSRW10>
57

>  <MW>
189.05

>  <AMW>
9

>  <WPath>
254

>  <WPol>
15

>  <Zagreb1>
60

>  <Zagreb2>
67

>  <mZagreb2>
3.06

>  <yes>


>  <nAR-cont>
0.336376

>  <nHA-cont>
0.841215992

>  <MWHBN>
0.436378062

>  <MWHBN-cont>
0.335734241

>  <TPSA-cont>
0.433243384

>  <pka_cont>
0.97

>  <yes.1>


>  <BBB_SCORE>
3.032680122

>  <MMFF94 Energy>
78.666

$$$$
Compound 380
Actelion Java MolfileCreator 2.0

  0  0  0  0  0  0              0 V3000
M  V30 BEGIN CTAB
M  V30 COUNTS 25 25 0 0 0
M  V30 BEGIN ATOM
M  V30 1 F -2.9348 3.6497 -1.2683 0
M  V30 2 C -2.3517 2.8365 -0.3532 0
M  V30 3 O -1.8816 1.701 -1.063 0
M  V30 4 C -1.3063 0.7332 -0.1804 0
M  V30 5 C -0.751 -0.4032 -1.0472 0 CFG=1
M  V30 6 O 0.2941 0.1152 -1.8751 0
M  V30 7 C -0.2299 -1.5987 -0.243 0
M  V30 8 N 0.8213 -1.2625 0.6998 0
M  V30 9 C 2.1503 -1.0238 0.4679 0
M  V30 10 C 0.618 -1.0727 2.0486 0
M  V30 11 N 2.8051 -1.191 -0.7991 0 CHG=1
M  V30 12 N 2.7851 -0.6468 1.5631 0
M  V30 13 C 1.8388 -0.6849 2.5523 0
M  V30 14 O 2.4915 -2.1888 -1.465 0
M  V30 15 O 3.6592 -0.3499 -1.1098 0 CHG=-1
M  V30 16 H -3.1057 2.5552 0.3876 0
M  V30 17 H -1.5237 3.3771 0.114 0
M  V30 18 H -2.0761 0.3593 0.5034 0
M  V30 19 H -0.503 1.2166 0.3867 0
M  V30 20 H -1.5357 -0.7553 -1.7276 0
M  V30 21 H -0.0868 0.8894 -2.3386 0
M  V30 22 H 0.152 -2.3793 -0.9062 0
M  V30 23 H -1.0512 -2.0464 0.3299 0
M  V30 24 H -0.3441 -1.215 2.5223 0
M  V30 25 H 2.0864 -0.4335 3.5767 0
M  V30 END ATOM
M  V30 BEGIN BOND
M  V30 1 1 1 2
M  V30 2 1 2 3
M  V30 3 1 3 4
M  V30 4 1 4 5
M  V30 5 1 5 6
M  V30 6 1 5 7
M  V30 7 1 7 8
M  V30 8 1 8 9
M  V30 9 1 8 10
M  V30 10 1 9 11
M  V30 11 2 9 12
M  V30 12 2 10 13
M  V30 13 2 11 14
M  V30 14 1 11 15
M  V30 15 1 12 13
M  V30 16 1 2 16
M  V30 17 1 2 17
M  V30 18 1 4 18
M  V30 19 1 4 19
M  V30 20 1 5 20
M  V30 21 1 6 21
M  V30 22 1 7 22
M  V30 23 1 7 23
M  V30 24 1 10 24
M  V30 25 1 13 25
M  V30 END BOND
M  V30 BEGIN COLLECTION
M  V30 MDLV30/STERAC1 ATOMS=(1 5)
M  V30 END COLLECTION
M  V30 END CTAB
M  END
>  <Column 1>
474

>  <level_0>
535

>  <index>
535

>  <Unnamed: 0>
535

>  <NO.>
539

>  <Name>
misonidazole-fluoro

>  <IUPAC_name>
1-(fluoromethoxy)-3-(2-nitroimidazol-1-yl)propan-2-ol

>  <SMILES>
O=[N+]([O-])c1nccn1CC(O)COCF

>  <CID>
23274095

>  <logBB>
-0.01

>  <BBB+/BBB->
BBB+

>  <Inchi>
InChI=1S/C7H10FN3O4/c8-5-15-4-6(12)3-10-2-1-9-7(10)11(13)14/h1-2-6-12H-3-5H2

>  <threshold>


>  <reference>
R2|R2|R2|R2|R3|R3|R8|R25|R27|R27|R38|R38|R41|R41|R43|R46|R47|R40|

>  <group>
A

>  <Class>
1

>  <ABC>
10.85

>  <ABCGG>
10.62

>  <nAcid>
0

>  <nBase>
0

>  <nAromAtom>
5

>  <nAromBond>
5

>  <nAtom>
25

>  <nHeavyAtom>
15

>  <nSpiro>
0

>  <nBridgehead>
0

>  <nHetero>
8

>  <nN>
3

>  <nO>
4

>  <nF>
1

>  <BalabanJ>
2.3

>  <BertzCT>
329.79

>  <nBonds>
25

>  <nBondsO>
15

>  <nBondsS>
19

>  <nBondsD>
1

>  <nBondsT>
0

>  <nBondsA>
5

>  <nBondsM>
6

>  <nBondsKS>
22

>  <nBondsKD>
3

>  <RNCG>
0.19

>  <RPCG>
0.21

>  <FCSP3>
0.57

>  <SZ>
19

>  <Sm>
18.25

>  <Sv>
15.49

>  <Sse>
26.71

>  <Sp>
15.22

>  <Si>
29.33

>  <MZ>
0.76

>  <Mm>
0.73

>  <Mv>
0.62

>  <Mse>
1.07

>  <Mp>
0.61

>  <Mi>
1.17

>  <NsCH3>
0

>  <NdCH2>
0

>  <NssCH2>
3

>  <NtCH>
0

>  <NdsCH>
0

>  <NaaCH>
2

>  <NsssCH>
1

>  <NddC>
0

>  <NtsC>
0

>  <NdssC>
0

>  <NaasC>
1

>  <NaaaC>
0

>  <NssssC>
0

>  <NsNH3>
0

>  <NsNH2>
0

>  <NssNH2>
0

>  <NdNH>
0

>  <NssNH>
0

>  <NaaNH>
0

>  <NtN>
0

>  <NsssNH>
0

>  <NdsN>
0

>  <NaaN>
1

>  <NsssN>
0

>  <NddsN>
1

>  <NaasN>
1

>  <NssssN>
0

>  <NsOH>
1

>  <NdO>
1

>  <NssO>
1

>  <NaaO>
0

>  <NsF>
1

>  <NsSiH3>
0

>  <NssSiH2>
0

>  <NsssSiH>
0

>  <NssssSi>
0

>  <NsPH2>
0

>  <NssPH>
0

>  <NsssP>
0

>  <NdsssP>
0

>  <NsssssP>
0

>  <NsSH>
0

>  <NdS>
0

>  <NssS>
0

>  <NaaS>
0

>  <NdssS>
0

>  <NddssS>
0

>  <NsCl>
0

>  <NsBr>
0

>  <NsI>
0

>  <fragCpx>
15.08

>  <fMF>
0.2

>  <nHBAcc>
6

>  <nHBDon>
1

>  <Kier1>
13.07

>  <Kier2>
6.55

>  <Lipinski>
1

>  <GhoseFilter>
1

>  <FilterItLogS>
-0.83

>  <VMcGowan>
140.91

>  <LabuteASA>
84.26

>  <PEOE_VSA1>
19.96

>  <PEOE_VSA2>
0

>  <PEOE_VSA3>
8.96

>  <PEOE_VSA4>
0

>  <PEOE_VSA5>
0

>  <PEOE_VSA6>
4.98

>  <PEOE_VSA7>
4.92

>  <PEOE_VSA8>
0

>  <PEOE_VSA9>
13.15

>  <PEOE_VSA10>
18.5

>  <PEOE_VSA11>
6.86

>  <PEOE_VSA12>
0

>  <PEOE_VSA13>
0

>  <SMR_VSA1>
19.16

>  <SMR_VSA2>
0

>  <SMR_VSA3>
9.55

>  <SMR_VSA4>
0

>  <SMR_VSA5>
12.65

>  <SMR_VSA6>
13.47

>  <SMR_VSA7>
22.51

>  <SMR_VSA8>
0

>  <SMR_VSA9>
0

>  <SlogP_VSA1>
0

>  <SlogP_VSA2>
39.15

>  <SlogP_VSA3>
11.28

>  <SlogP_VSA4>
10.11

>  <SlogP_VSA5>
0

>  <SlogP_VSA6>
12.39

>  <SlogP_VSA7>
0

>  <SlogP_VSA8>
0

>  <SlogP_VSA9>
0

>  <SlogP_VSA10>
10.34

>  <SlogP_VSA11>
0

>  <EState_VSA1>
17.89

>  <EState_VSA2>
19.1

>  <EState_VSA3>
0

>  <EState_VSA4>
4.57

>  <EState_VSA5>
12.39

>  <EState_VSA6>
0

>  <EState_VSA7>
0

>  <EState_VSA8>
9.72

>  <EState_VSA9>
0

>  <EState_VSA10>
19.61

>  <VSA_EState1>
17.06

>  <VSA_EState2>
13.25

>  <VSA_EState3>
19.72

>  <VSA_EState4>
0

>  <VSA_EState5>
-0.37

>  <VSA_EState6>
0

>  <VSA_EState7>
1.6

>  <VSA_EState8>
-1.27

>  <VSA_EState9>
0

>  <apol>
25.42

>  <bpol>
16.9

>  <nRing>
1

>  <nHRing>
1

>  <naRing>
1

>  <naHRing>
1

>  <nARing 2>
0

>  <nAHRing 2>
0

>  <nFRing>
0

>  <nFHRing>
0

>  <nFaRing>
0

>  <nFaHRing>
0

>  <nFARing 2>
0

>  <nFAHRing 2>
0

>  <nRot>
6

>  <SLogP>
0.1

>  <SMR>
46.82

>  <TopoPSA(NO)>
90.42

>  <TopoPSA>
90.42

>  <JGI1>
0.2

>  <JGI2>
0.08

>  <JGI3>
0.06

>  <JGI4>
0.04

>  <JGI5>
0.03

>  <Diameter>
9

>  <Radius>
5

>  <TMWC10>
97.64

>  <TSRW10>
59.49

>  <MW>
219.07

>  <AMW>
8.76

>  <WPath>
404

>  <WPol>
17

>  <Zagreb1>
68

>  <Zagreb2>
75

>  <mZagreb2>
3.56

>  <yes>


>  <nAR-cont>
0.336376

>  <nHA-cont>
0.92539861

>  <MWHBN>
0.472940587

>  <MWHBN-cont>
0

>  <TPSA-cont>
0.368812253

>  <pka_cont>
0.97

>  <yes.1>


>  <BBB_SCORE>
2.484399116

>  <MMFF94 Energy>
73.659

$$$$
Compound 381
Actelion Java MolfileCreator 2.0

  0  0  0  0  0  0              0 V3000
M  V30 BEGIN CTAB
M  V30 COUNTS 48 50 0 0 0
M  V30 BEGIN ATOM
M  V30 1 O 2.9117 -0.4717 1.5731 0
M  V30 2 C 3.8175 -1.4904 1.7023 0
M  V30 3 C 2.1024 -0.2319 2.7361 0 CFG=2
M  V30 4 C 3.7578 -2.4583 2.7114 0
M  V30 5 C 4.8186 -1.5441 0.7327 0
M  V30 6 C 1.524 -1.5345 3.2888 0
M  V30 7 C 1.0107 0.8064 2.3797 0
M  V30 8 C 4.7411 -3.456 2.7592 0
M  V30 9 C 2.6736 -2.4209 3.7489 0
M  V30 10 C 5.7866 -2.5465 0.78 0
M  V30 11 N 0.0269 0.3417 1.39 0
M  V30 12 C 5.7504 -3.4996 1.796 0
M  V30 13 C -0.9737 1.3723 1.1101 0
M  V30 14 C -1.9467 0.9132 0.0241 0
M  V30 15 C -1.2681 0.76 -1.3363 0
M  V30 16 N -2.2323 0.3538 -2.3419 0
M  V30 17 C -3.1011 1.2007 -2.9492 0
M  V30 18 N -3.1412 2.4634 -2.7023 0
M  V30 19 N -3.8886 0.5449 -3.8393 0
M  V30 20 C -4.1404 3.2552 -3.4252 0
M  V30 21 C -4.8825 1.2314 -4.623 0
M  V30 22 C -4.456 2.6766 -4.7957 0
M  V30 23 H 2.7464 0.2365 3.4942 0
M  V30 24 H 4.8443 -0.7986 -0.0572 0
M  V30 25 H 0.8391 -1.3459 4.1226 0
M  V30 26 H 0.9668 -2.0651 2.5064 0
M  V30 27 H 0.4923 1.096 3.302 0
M  V30 28 H 1.5112 1.6964 1.9786 0
M  V30 29 H 4.7211 -4.2087 3.5439 0
M  V30 30 H 2.2957 -3.4308 3.9455 0
M  V30 31 H 3.0953 -2.0301 4.6829 0
M  V30 32 H 6.5677 -2.5817 0.0256 0
M  V30 33 H -0.4354 -0.5021 1.724 0
M  V30 34 H 6.5062 -4.2796 1.8359 0
M  V30 35 H -1.5422 1.591 2.022 0
M  V30 36 H -0.4878 2.3017 0.7898 0
M  V30 37 H -2.421 -0.033 0.315 0
M  V30 38 H -2.7561 1.6502 -0.0455 0
M  V30 39 H -0.7734 1.6916 -1.6353 0
M  V30 40 H -0.4886 -0.0079 -1.2831 0
M  V30 41 H -2.1568 -0.5953 -2.669 0
M  V30 42 H -3.88 -0.4619 -3.8684 0
M  V30 43 H -3.7536 4.2726 -3.5483 0
M  V30 44 H -5.0489 3.3293 -2.8159 0
M  V30 45 H -5.8505 1.1757 -4.1126 0
M  V30 46 H -4.9919 0.7462 -5.598 0
M  V30 47 H -5.2459 3.2551 -5.2859 0
M  V30 48 H -3.5637 2.729 -5.4321 0
M  V30 END ATOM
M  V30 BEGIN BOND
M  V30 1 1 1 2
M  V30 2 1 1 3
M  V30 3 2 2 4
M  V30 4 1 2 5
M  V30 5 1 3 6
M  V30 6 1 3 7
M  V30 7 1 4 8
M  V30 8 1 4 9
M  V30 9 2 5 10
M  V30 10 1 7 11
M  V30 11 2 8 12
M  V30 12 1 11 13
M  V30 13 1 13 14
M  V30 14 1 14 15
M  V30 15 1 15 16
M  V30 16 1 16 17
M  V30 17 2 17 18
M  V30 18 1 17 19
M  V30 19 1 18 20
M  V30 20 1 19 21
M  V30 21 1 20 22
M  V30 22 1 6 9
M  V30 23 1 10 12
M  V30 24 1 21 22
M  V30 25 1 3 23
M  V30 26 1 5 24
M  V30 27 1 6 25
M  V30 28 1 6 26
M  V30 29 1 7 27
M  V30 30 1 7 28
M  V30 31 1 8 29
M  V30 32 1 9 30
M  V30 33 1 9 31
M  V30 34 1 10 32
M  V30 35 1 11 33
M  V30 36 1 12 34
M  V30 37 1 13 35
M  V30 38 1 13 36
M  V30 39 1 14 37
M  V30 40 1 14 38
M  V30 41 1 15 39
M  V30 42 1 15 40
M  V30 43 1 16 41
M  V30 44 1 19 42
M  V30 45 1 20 43
M  V30 46 1 20 44
M  V30 47 1 21 45
M  V30 48 1 21 46
M  V30 49 1 22 47
M  V30 50 1 22 48
M  V30 END BOND
M  V30 BEGIN COLLECTION
M  V30 MDLV30/STERAC1 ATOMS=(1 3)
M  V30 END COLLECTION
M  V30 END CTAB
M  END
>  <Column 1>
475

>  <level_0>
536

>  <index>
536

>  <Unnamed: 0>
536

>  <NO.>
540

>  <Name>
alniditan dihydrochloride

>  <IUPAC_name>
n-(3-4-dihydro-2h-chromen-2-ylmethyl)-n'-(1-4-5-6-tetrahydropyrimidin-2-yl)propane-1-3-diamine

>  <SMILES>
c1ccc2c(c1)CCC(CNCCCNC1=NCCCN1)O2

>  <CID>
9817881

>  <logBB>
-0.01

>  <BBB+/BBB->
BBB+

>  <Inchi>
InChI=1S/C17H26N4O/c1-2-6-16-14(5-1)7-8-15(22-16)13-18-9-3-10-19-17-20-11-4-12-21-17/h1-2-5-6-15-18H-3-4-7-13H2-(H2-19-20-21)

>  <threshold>


>  <reference>
R2|R2|R25|R27|R46|R47|

>  <group>
A

>  <Class>
1

>  <ABC>
16.93

>  <ABCGG>
12.08

>  <nAcid>
0

>  <nBase>
4

>  <nAromAtom>
6

>  <nAromBond>
6

>  <nAtom>
48

>  <nHeavyAtom>
22

>  <nSpiro>
0

>  <nBridgehead>
0

>  <nHetero>
5

>  <nN>
4

>  <nO>
1

>  <nF>
0

>  <BalabanJ>
1.2

>  <BertzCT>
503.19

>  <nBonds>
50

>  <nBondsO>
24

>  <nBondsS>
43

>  <nBondsD>
1

>  <nBondsT>
0

>  <nBondsA>
6

>  <nBondsM>
7

>  <nBondsKS>
46

>  <nBondsKD>
4

>  <RNCG>
0.24

>  <RPCG>
0.09

>  <FCSP3>
0.59

>  <SZ>
27.33

>  <Sm>
25.18

>  <Sv>
27.79

>  <Sse>
47.53

>  <Sp>
30.5

>  <Si>
54.77

>  <MZ>
0.57

>  <Mm>
0.52

>  <Mv>
0.58

>  <Mse>
0.99

>  <Mp>
0.64

>  <Mi>
1.14

>  <NsCH3>
0

>  <NdCH2>
0

>  <NssCH2>
9

>  <NtCH>
0

>  <NdsCH>
0

>  <NaaCH>
4

>  <NsssCH>
1

>  <NddC>
0

>  <NtsC>
0

>  <NdssC>
1

>  <NaasC>
2

>  <NaaaC>
0

>  <NssssC>
0

>  <NsNH3>
0

>  <NsNH2>
0

>  <NssNH2>
0

>  <NdNH>
0

>  <NssNH>
3

>  <NaaNH>
0

>  <NtN>
0

>  <NsssNH>
0

>  <NdsN>
1

>  <NaaN>
0

>  <NsssN>
0

>  <NddsN>
0

>  <NaasN>
0

>  <NssssN>
0

>  <NsOH>
0

>  <NdO>
0

>  <NssO>
1

>  <NaaO>
0

>  <NsF>
0

>  <NsSiH3>
0

>  <NssSiH2>
0

>  <NsssSiH>
0

>  <NssssSi>
0

>  <NsPH2>
0

>  <NssPH>
0

>  <NsssP>
0

>  <NdsssP>
0

>  <NsssssP>
0

>  <NsSH>
0

>  <NdS>
0

>  <NssS>
0

>  <NaaS>
0

>  <NdssS>
0

>  <NddssS>
0

>  <NsCl>
0

>  <NsBr>
0

>  <NsI>
0

>  <fragCpx>
114.05

>  <fMF>
0.46

>  <nHBAcc>
5

>  <nHBDon>
3

>  <Kier1>
16.84

>  <Kier2>
9.33

>  <Lipinski>
1

>  <GhoseFilter>
1

>  <FilterItLogS>
-5.04

>  <VMcGowan>
246.4

>  <LabuteASA>
132.09

>  <PEOE_VSA1>
20.69

>  <PEOE_VSA2>
4.99

>  <PEOE_VSA3>
0

>  <PEOE_VSA4>
0

>  <PEOE_VSA5>
0

>  <PEOE_VSA6>
18.2

>  <PEOE_VSA7>
43.86

>  <PEOE_VSA8>
26.18

>  <PEOE_VSA9>
0

>  <PEOE_VSA10>
11.85

>  <PEOE_VSA11>
5.96

>  <PEOE_VSA12>
0

>  <PEOE_VSA13>
0

>  <SMR_VSA1>
4.74

>  <SMR_VSA2>
0

>  <SMR_VSA3>
15.95

>  <SMR_VSA4>
4.99

>  <SMR_VSA5>
31.79

>  <SMR_VSA6>
32.72

>  <SMR_VSA7>
29.83

>  <SMR_VSA8>
0

>  <SMR_VSA9>
5.75

>  <SlogP_VSA1>
20.69

>  <SlogP_VSA2>
44.79

>  <SlogP_VSA3>
6.42

>  <SlogP_VSA4>
0

>  <SlogP_VSA5>
24.83

>  <SlogP_VSA6>
29.26

>  <SlogP_VSA7>
0

>  <SlogP_VSA8>
0

>  <SlogP_VSA9>
0

>  <SlogP_VSA10>
0

>  <SlogP_VSA11>
5.75

>  <EState_VSA1>
0

>  <EState_VSA2>
0

>  <EState_VSA3>
6.1

>  <EState_VSA4>
70.12

>  <EState_VSA5>
5.56

>  <EState_VSA6>
0

>  <EState_VSA7>
6.07

>  <EState_VSA8>
39.14

>  <EState_VSA9>
4.74

>  <EState_VSA10>
0

>  <VSA_EState1>
6.03

>  <VSA_EState2>
4.4

>  <VSA_EState3>
10.11

>  <VSA_EState4>
1.34

>  <VSA_EState5>
2.02

>  <VSA_EState6>
8.36

>  <VSA_EState7>
4.74

>  <VSA_EState8>
4.85

>  <VSA_EState9>
0

>  <apol>
50.93

>  <bpol>
30.67

>  <nRing>
3

>  <nHRing>
2

>  <naRing>
1

>  <naHRing>
0

>  <nARing 2>
2

>  <nAHRing 2>
2

>  <nFRing>
1

>  <nFHRing>
1

>  <nFaRing>
0

>  <nFaHRing>
0

>  <nFARing 2>
1

>  <nFAHRing 2>
1

>  <nRot>
6

>  <SLogP>
1.3

>  <SMR>
89.59

>  <TopoPSA(NO)>
57.68

>  <TopoPSA>
57.68

>  <JGI1>
0.1

>  <JGI2>
0.04

>  <JGI3>
0.02

>  <JGI4>
0.03

>  <JGI5>
0.01

>  <Diameter>
15

>  <Radius>
8

>  <TMWC10>
117.68

>  <TSRW10>
55.4

>  <MW>
302.21

>  <AMW>
6.3

>  <WPath>
1371

>  <WPol>
28

>  <Zagreb1>
108

>  <Zagreb2>
121

>  <mZagreb2>
5.03

>  <yes>


>  <nAR-cont>
1

>  <nHA-cont>
0.983774276

>  <MWHBN>
0.460188299

>  <MWHBN-cont>
0

>  <TPSA-cont>
0.597357783

>  <pka_cont>
0.97

>  <yes.1>


>  <BBB_SCORE>
3.663489842

>  <MMFF94 Energy>
-93.666

$$$$
Compound 382
Actelion Java MolfileCreator 2.0

  0  0  0  0  0  0              0 V3000
M  V30 BEGIN CTAB
M  V30 COUNTS 57 61 0 0 0
M  V30 BEGIN ATOM
M  V30 1 F 9.2717 -1.8491 -1.4469 0
M  V30 2 C 7.9957 -1.6247 -1.1045 0
M  V30 3 C 7.6817 -0.4653 -0.3991 0
M  V30 4 C 7.0268 -2.56 -1.4673 0
M  V30 5 C 6.3379 -0.3035 -0.0809 0
M  V30 6 C 5.6803 -2.3632 -1.1287 0
M  V30 7 O 5.7959 0.7416 0.5957 0
M  V30 8 C 5.337 -1.2002 -0.4147 0
M  V30 9 N 4.431 0.5566 0.7195 0
M  V30 10 C 4.1566 -0.6095 0.1172 0
M  V30 11 C 2.7513 -1.146 0.0452 0
M  V30 12 C 2.0202 -1.152 1.3947 0
M  V30 13 C 1.9131 -0.4477 -1.0321 0
M  V30 14 C 1.3929 0.1971 1.7519 0
M  V30 15 C 1.3148 0.876 -0.5565 0
M  V30 16 N 0.5211 0.675 0.666 0
M  V30 17 C -0.1598 1.9318 1.0423 0
M  V30 18 C -1.3881 1.7085 1.9471 0
M  V30 19 C -2.5218 0.9976 1.2448 0
M  V30 20 C -3.3393 1.8411 0.3296 0
M  V30 21 C -2.873 -0.2963 1.3578 0
M  V30 22 O -3.0516 3.0258 0.1559 0
M  V30 23 N -4.4032 1.2222 -0.2991 0
M  V30 24 N -3.93 -0.857 0.6852 0
M  V30 25 C -2.1512 -1.2939 2.2266 0
M  V30 26 C -4.6346 -0.1138 -0.1034 0
M  V30 27 C -5.1496 2.0224 -1.263 0
M  V30 28 C -5.8213 -0.768 -0.7867 0
M  V30 29 C -6.4919 1.4376 -1.6663 0
M  V30 30 C -6.315 -0.0273 -2.0131 0
M  V30 31 H 8.4344 0.2591 -0.1197 0
M  V30 32 H 7.3278 -3.4473 -2.0181 0
M  V30 33 H 4.9292 -3.0937 -1.4139 0
M  V30 34 H 2.8455 -2.1985 -0.258 0
M  V30 35 H 2.6925 -1.4708 2.2008 0
M  V30 36 H 1.2162 -1.8996 1.3485 0
M  V30 37 H 1.0891 -1.1153 -1.3195 0
M  V30 38 H 2.5051 -0.2785 -1.94 0
M  V30 39 H 0.8148 0.0543 2.6709 0
M  V30 40 H 2.1682 0.935 1.9887 0
M  V30 41 H 2.0994 1.6273 -0.404 0
M  V30 42 H 0.6676 1.2489 -1.3603 0
M  V30 43 H -0.4975 2.455 0.1386 0
M  V30 44 H 0.5411 2.6156 1.5388 0
M  V30 45 H -1.0995 1.1987 2.8704 0
M  V30 46 H -1.7453 2.6886 2.2913 0
M  V30 47 H -1.6858 -2.0638 1.6018 0
M  V30 48 H -1.3703 -0.8606 2.8516 0
M  V30 49 H -2.8617 -1.7856 2.9006 0
M  V30 50 H -5.2974 3.0326 -0.8623 0
M  V30 51 H -4.5083 2.1263 -2.1478 0
M  V30 52 H -5.5547 -1.7966 -1.0557 0
M  V30 53 H -6.624 -0.8324 -0.041 0
M  V30 54 H -7.2086 1.5422 -0.8425 0
M  V30 55 H -6.8974 1.9881 -2.5221 0
M  V30 56 H -7.2651 -0.4551 -2.3509 0
M  V30 57 H -5.5965 -0.1352 -2.8346 0
M  V30 END ATOM
M  V30 BEGIN BOND
M  V30 1 1 1 2
M  V30 2 2 2 3
M  V30 3 1 2 4
M  V30 4 1 3 5
M  V30 5 2 4 6
M  V30 6 1 5 7
M  V30 7 2 5 8
M  V30 8 1 7 9
M  V30 9 1 8 10
M  V30 10 1 10 11
M  V30 11 1 11 12
M  V30 12 1 11 13
M  V30 13 1 12 14
M  V30 14 1 13 15
M  V30 15 1 14 16
M  V30 16 1 16 17
M  V30 17 1 17 18
M  V30 18 1 18 19
M  V30 19 1 19 20
M  V30 20 2 19 21
M  V30 21 2 20 22
M  V30 22 1 20 23
M  V30 23 1 21 24
M  V30 24 1 21 25
M  V30 25 1 23 26
M  V30 26 1 23 27
M  V30 27 1 26 28
M  V30 28 1 27 29
M  V30 29 1 28 30
M  V30 30 1 6 8
M  V30 31 2 9 10
M  V30 32 1 15 16
M  V30 33 2 24 26
M  V30 34 1 29 30
M  V30 35 1 3 31
M  V30 36 1 4 32
M  V30 37 1 6 33
M  V30 38 1 11 34
M  V30 39 1 12 35
M  V30 40 1 12 36
M  V30 41 1 13 37
M  V30 42 1 13 38
M  V30 43 1 14 39
M  V30 44 1 14 40
M  V30 45 1 15 41
M  V30 46 1 15 42
M  V30 47 1 17 43
M  V30 48 1 17 44
M  V30 49 1 18 45
M  V30 50 1 18 46
M  V30 51 1 25 47
M  V30 52 1 25 48
M  V30 53 1 25 49
M  V30 54 1 27 50
M  V30 55 1 27 51
M  V30 56 1 28 52
M  V30 57 1 28 53
M  V30 58 1 29 54
M  V30 59 1 29 55
M  V30 60 1 30 56
M  V30 61 1 30 57
M  V30 END BOND
M  V30 END CTAB
M  END
>  <Column 1>
476

>  <level_0>
537

>  <index>
537

>  <Unnamed: 0>
537

>  <NO.>
541

>  <Name>
risperidone

>  <IUPAC_name>
3-[2-[4-(6-fluoro-1-2-benzoxazol-3-yl)piperidin-1-yl]ethyl]-2-methyl-6-7-8-9-tetrahydropyrido[1-2-a]pyrimidin-4-one

>  <SMILES>
Cc1nc2n(c(=O)c1CCN1CCC(c3noc4cc(F)ccc34)CC1)CCCC2

>  <CID>
5073

>  <logBB>
0

>  <BBB+/BBB->
BBB+

>  <Inchi>
InChI=1S/C23H27FN4O2/c1-15-18(23(29)28-10-3-2-4-21(28)25-15)9-13-27-11-7-16(8-12-27)22-19-6-5-17(24)14-20(19)30-26-22/h5-6-14-16H-2-4-7-13H2-1H3

>  <threshold>


>  <reference>
R25|R46|R2|R2|R27|R3|R8|R12|R21|R27|R36|R38|R39|R41|R43|R47|R49|R50|R40|R5|R20|R42|R44|

>  <group>
A

>  <Class>
1

>  <ABC>
24.09

>  <ABCGG>
17.17

>  <nAcid>
0

>  <nBase>
1

>  <nAromAtom>
15

>  <nAromBond>
16

>  <nAtom>
57

>  <nHeavyAtom>
30

>  <nSpiro>
0

>  <nBridgehead>
0

>  <nHetero>
7

>  <nN>
4

>  <nO>
2

>  <nF>
1

>  <BalabanJ>
1.08

>  <BertzCT>
1128.17

>  <nBonds>
61

>  <nBondsO>
34

>  <nBondsS>
44

>  <nBondsD>
1

>  <nBondsT>
0

>  <nBondsA>
16

>  <nBondsM>
17

>  <nBondsKS>
54

>  <nBondsKD>
7

>  <RNCG>
0.18

>  <RPCG>
0.13

>  <FCSP3>
0.52

>  <SZ>
36.33

>  <Sm>
34.18

>  <Sv>
35.42

>  <Sse>
57.26

>  <Sp>
37.71

>  <Si>
64.74

>  <MZ>
0.64

>  <Mm>
0.6

>  <Mv>
0.62

>  <Mse>
1

>  <Mp>
0.66

>  <Mi>
1.14

>  <NsCH3>
1

>  <NdCH2>
0

>  <NssCH2>
10

>  <NtCH>
0

>  <NdsCH>
0

>  <NaaCH>
3

>  <NsssCH>
1

>  <NddC>
0

>  <NtsC>
0

>  <NdssC>
0

>  <NaasC>
5

>  <NaaaC>
2

>  <NssssC>
0

>  <NsNH3>
0

>  <NsNH2>
0

>  <NssNH2>
0

>  <NdNH>
0

>  <NssNH>
0

>  <NaaNH>
0

>  <NtN>
0

>  <NsssNH>
0

>  <NdsN>
0

>  <NaaN>
2

>  <NsssN>
1

>  <NddsN>
0

>  <NaasN>
1

>  <NssssN>
0

>  <NsOH>
0

>  <NdO>
1

>  <NssO>
0

>  <NaaO>
1

>  <NsF>
1

>  <NsSiH3>
0

>  <NssSiH2>
0

>  <NsssSiH>
0

>  <NssssSi>
0

>  <NsPH2>
0

>  <NssPH>
0

>  <NsssP>
0

>  <NdsssP>
0

>  <NsssssP>
0

>  <NsSH>
0

>  <NdS>
0

>  <NssS>
0

>  <NaaS>
0

>  <NdssS>
0

>  <NddssS>
0

>  <NsCl>
0

>  <NsBr>
0

>  <NsI>
0

>  <fragCpx>
286.07

>  <fMF>
0.47

>  <nHBAcc>
6

>  <nHBDon>
0

>  <Kier1>
21.83

>  <Kier2>
9.47

>  <Lipinski>
1

>  <GhoseFilter>
1

>  <FilterItLogS>
-6.31

>  <VMcGowan>
303.95

>  <LabuteASA>
174.24

>  <PEOE_VSA1>
9.42

>  <PEOE_VSA2>
9.36

>  <PEOE_VSA3>
9.37

>  <PEOE_VSA4>
0

>  <PEOE_VSA5>
0

>  <PEOE_VSA6>
5.16

>  <PEOE_VSA7>
64.25

>  <PEOE_VSA8>
48.14

>  <PEOE_VSA9>
5.69

>  <PEOE_VSA10>
11.64

>  <PEOE_VSA11>
5.58

>  <PEOE_VSA12>
0

>  <PEOE_VSA13>
5.56

>  <SMR_VSA1>
8.91

>  <SMR_VSA2>
0

>  <SMR_VSA3>
19.61

>  <SMR_VSA4>
0

>  <SMR_VSA5>
57.91

>  <SMR_VSA6>
19.63

>  <SMR_VSA7>
57.15

>  <SMR_VSA8>
0

>  <SMR_VSA9>
0

>  <SlogP_VSA1>
5.56

>  <SlogP_VSA2>
39.24

>  <SlogP_VSA3>
19.39

>  <SlogP_VSA4>
12.74

>  <SlogP_VSA5>
54.38

>  <SlogP_VSA6>
27.52

>  <SlogP_VSA7>
0

>  <SlogP_VSA8>
10.97

>  <SlogP_VSA9>
0

>  <SlogP_VSA10>
4.39

>  <SlogP_VSA11>
0

>  <EState_VSA1>
0

>  <EState_VSA2>
11.38

>  <EState_VSA3>
11.5

>  <EState_VSA4>
92.87

>  <EState_VSA5>
12.13

>  <EState_VSA6>
6.07

>  <EState_VSA7>
11.49

>  <EState_VSA8>
10.06

>  <EState_VSA9>
9.51

>  <EState_VSA10>
9.18

>  <VSA_EState1>
20.62

>  <VSA_EState2>
20.06

>  <VSA_EState3>
5.15

>  <VSA_EState4>
3.38

>  <VSA_EState5>
0.97

>  <VSA_EState6>
4.63

>  <VSA_EState7>
5.81

>  <VSA_EState8>
5.55

>  <VSA_EState9>
0

>  <apol>
62.97

>  <bpol>
35.36

>  <nRing>
5

>  <nHRing>
4

>  <naRing>
3

>  <naHRing>
2

>  <nARing 2>
2

>  <nAHRing 2>
2

>  <nFRing>
2

>  <nFHRing>
2

>  <nFaRing>
1

>  <nFaHRing>
1

>  <nFARing 2>
1

>  <nFAHRing 2>
1

>  <nRot>
4

>  <SLogP>
3.59

>  <SMR>
112.26

>  <TopoPSA(NO)>
64.16

>  <TopoPSA>
64.16

>  <JGI1>
0.16

>  <JGI2>
0.08

>  <JGI3>
0.05

>  <JGI4>
0.04

>  <JGI5>
0.03

>  <Diameter>
17

>  <Radius>
9

>  <TMWC10>
142.11

>  <TSRW10>
80.13

>  <MW>
410.21

>  <AMW>
7.2

>  <WPath>
2793

>  <WPol>
51

>  <Zagreb1>
166

>  <Zagreb2>
200

>  <mZagreb2>
6.44

>  <yes>


>  <nAR-cont>
1

>  <nHA-cont>
0.74523694

>  <MWHBN>
0.296243022

>  <MWHBN-cont>
0.851816459

>  <TPSA-cont>
0.552123359

>  <pka_cont>
0.97

>  <yes.1>


>  <BBB_SCORE>
4.612208346

>  <MMFF94 Energy>
-20.909

$$$$
Compound 383
Actelion Java MolfileCreator 2.0

  0  0  0  0  0  0              0 V3000
M  V30 BEGIN CTAB
M  V30 COUNTS 28 28 0 0 0
M  V30 BEGIN ATOM
M  V30 1 O 1.3272 0.078 -1.171 0 CHG=-1
M  V30 2 N 0.8756 -0.1145 0.0073 0 CHG=1
M  V30 3 C -0.4174 -0.025 0.2579 0
M  V30 4 C 1.874 -0.4175 1.1094 0
M  V30 5 C -1.4861 0.2548 -0.7163 0
M  V30 6 C 3.2849 -0.4933 0.5064 0
M  V30 7 C 1.5079 -1.7722 1.7211 0
M  V30 8 C 1.8106 0.7229 2.1279 0
M  V30 9 C -1.388 0.01 -2.0868 0
M  V30 10 C -2.6866 0.7487 -0.1897 0
M  V30 11 C -2.4719 0.2812 -2.9268 0
M  V30 12 C -3.7683 1.0185 -1.0311 0
M  V30 13 C -3.6594 0.7869 -2.4004 0
M  V30 14 H -0.7212 -0.1527 1.3079 0
M  V30 15 H 4.0274 -0.719 1.2805 0
M  V30 16 H 3.3567 -1.2782 -0.2554 0
M  V30 17 H 3.5775 0.4547 0.0403 0
M  V30 18 H 0.5378 -1.7522 2.2283 0
M  V30 19 H 1.4615 -2.5534 0.9537 0
M  V30 20 H 2.2522 -2.0767 2.4657 0
M  V30 21 H 0.8401 0.7769 2.6319 0
M  V30 22 H 2.5706 0.592 2.9066 0
M  V30 23 H 1.9852 1.6927 1.6477 0
M  V30 24 H -0.4851 -0.4007 -2.5289 0
M  V30 25 H -2.7912 0.9367 0.8757 0
M  V30 26 H -2.3857 0.0938 -3.9942 0
M  V30 27 H -4.6947 1.4096 -0.6182 0
M  V30 28 H -4.4992 0.9971 -3.0579 0
M  V30 END ATOM
M  V30 BEGIN BOND
M  V30 1 1 1 2
M  V30 2 2 2 3
M  V30 3 1 2 4
M  V30 4 1 3 5
M  V30 5 1 4 6
M  V30 6 1 4 7
M  V30 7 1 4 8
M  V30 8 2 5 9
M  V30 9 1 5 10
M  V30 10 1 9 11
M  V30 11 2 10 12
M  V30 12 2 11 13
M  V30 13 1 12 13
M  V30 14 1 3 14
M  V30 15 1 6 15
M  V30 16 1 6 16
M  V30 17 1 6 17
M  V30 18 1 7 18
M  V30 19 1 7 19
M  V30 20 1 7 20
M  V30 21 1 8 21
M  V30 22 1 8 22
M  V30 23 1 8 23
M  V30 24 1 9 24
M  V30 25 1 10 25
M  V30 26 1 11 26
M  V30 27 1 12 27
M  V30 28 1 13 28
M  V30 END BOND
M  V30 END CTAB
M  END
>  <Column 1>
477

>  <level_0>
538

>  <index>
538

>  <Unnamed: 0>
538

>  <NO.>
542

>  <Name>
phenyl-n-tert-butylnitrone

>  <IUPAC_name>
n-tert-butyl-1-phenylmethanimine oxide

>  <SMILES>
CC(C)(C)/[N+]([O-])=C/c1ccccc1

>  <CID>
638877

>  <logBB>
0

>  <BBB+/BBB->
BBB+

>  <Inchi>
InChI=1S/C11H15NO/c1-11(2-3)12(13)9-10-7-5-4-6-8-10/h4-9H-1-3H3/b12-9-

>  <threshold>


>  <reference>
R20|R43|

>  <group>
A

>  <Class>
1

>  <ABC>
9.72

>  <ABCGG>
9.04

>  <nAcid>
0

>  <nBase>
0

>  <nAromAtom>
6

>  <nAromBond>
6

>  <nAtom>
28

>  <nHeavyAtom>
13

>  <nSpiro>
0

>  <nBridgehead>
0

>  <nHetero>
2

>  <nN>
1

>  <nO>
1

>  <nF>
0

>  <BalabanJ>
2.3

>  <BertzCT>
295.62

>  <nBonds>
28

>  <nBondsO>
13

>  <nBondsS>
21

>  <nBondsD>
1

>  <nBondsT>
0

>  <nBondsA>
6

>  <nBondsM>
7

>  <nBondsKS>
24

>  <nBondsKD>
4

>  <RNCG>
0.56

>  <RPCG>
0.16

>  <FCSP3>
0.36

>  <SZ>
16

>  <Sm>
14.76

>  <Sv>
16.54

>  <Sse>
27.65

>  <Sp>
18.13

>  <Si>
31.61

>  <MZ>
0.57

>  <Mm>
0.53

>  <Mv>
0.59

>  <Mse>
0.99

>  <Mp>
0.65

>  <Mi>
1.13

>  <NsCH3>
3

>  <NdCH2>
0

>  <NssCH2>
0

>  <NtCH>
0

>  <NdsCH>
1

>  <NaaCH>
5

>  <NsssCH>
0

>  <NddC>
0

>  <NtsC>
0

>  <NdssC>
0

>  <NaasC>
1

>  <NaaaC>
0

>  <NssssC>
1

>  <NsNH3>
0

>  <NsNH2>
0

>  <NssNH2>
0

>  <NdNH>
0

>  <NssNH>
0

>  <NaaNH>
0

>  <NtN>
0

>  <NsssNH>
0

>  <NdsN>
0

>  <NaaN>
0

>  <NsssN>
0

>  <NddsN>
0

>  <NaasN>
0

>  <NssssN>
0

>  <NsOH>
0

>  <NdO>
0

>  <NssO>
0

>  <NaaO>
0

>  <NsF>
0

>  <NsSiH3>
0

>  <NssSiH2>
0

>  <NsssSiH>
0

>  <NssssSi>
0

>  <NsPH2>
0

>  <NssPH>
0

>  <NsssP>
0

>  <NdsssP>
0

>  <NsssssP>
0

>  <NsSH>
0

>  <NdS>
0

>  <NssS>
0

>  <NaaS>
0

>  <NdssS>
0

>  <NddssS>
0

>  <NsCl>
0

>  <NsBr>
0

>  <NsI>
0

>  <fragCpx>
13.02

>  <fMF>
0.21

>  <nHBAcc>
1

>  <nHBDon>
0

>  <Kier1>
11.08

>  <Kier2>
4.48

>  <Lipinski>
1

>  <GhoseFilter>
1

>  <FilterItLogS>
-3

>  <VMcGowan>
153.64

>  <LabuteASA>
79.11

>  <PEOE_VSA1>
5.21

>  <PEOE_VSA2>
0

>  <PEOE_VSA3>
4.74

>  <PEOE_VSA4>
0

>  <PEOE_VSA5>
0

>  <PEOE_VSA6>
18.2

>  <PEOE_VSA7>
12.13

>  <PEOE_VSA8>
26.33

>  <PEOE_VSA9>
0

>  <PEOE_VSA10>
0

>  <PEOE_VSA11>
11.75

>  <PEOE_VSA12>
0

>  <PEOE_VSA13>
0

>  <SMR_VSA1>
4.74

>  <SMR_VSA2>
0

>  <SMR_VSA3>
0

>  <SMR_VSA4>
0

>  <SMR_VSA5>
26.31

>  <SMR_VSA6>
0

>  <SMR_VSA7>
41.1

>  <SMR_VSA8>
0

>  <SMR_VSA9>
0

>  <SlogP_VSA1>
0

>  <SlogP_VSA2>
16.49

>  <SlogP_VSA3>
0

>  <SlogP_VSA4>
5.21

>  <SlogP_VSA5>
26.33

>  <SlogP_VSA6>
30.33

>  <SlogP_VSA7>
0

>  <SlogP_VSA8>
0

>  <SlogP_VSA9>
0

>  <SlogP_VSA10>
0

>  <SlogP_VSA11>
0

>  <EState_VSA1>
0

>  <EState_VSA2>
5.54

>  <EState_VSA3>
0

>  <EState_VSA4>
10.3

>  <EState_VSA5>
0

>  <EState_VSA6>
6.21

>  <EState_VSA7>
51.1

>  <EState_VSA8>
0

>  <EState_VSA9>
0

>  <EState_VSA10>
5.21

>  <VSA_EState1>
0.97

>  <VSA_EState2>
0

>  <VSA_EState3>
11.5

>  <VSA_EState4>
0.57

>  <VSA_EState5>
0

>  <VSA_EState6>
9.6

>  <VSA_EState7>
1.61

>  <VSA_EState8>
5.67

>  <VSA_EState9>
0

>  <apol>
30.27

>  <bpol>
16.49

>  <nRing>
1

>  <nHRing>
0

>  <naRing>
1

>  <naHRing>
0

>  <nARing 2>
0

>  <nAHRing 2>
0

>  <nFRing>
0

>  <nFHRing>
0

>  <nFaRing>
0

>  <nFaHRing>
0

>  <nFARing 2>
0

>  <nFAHRing 2>
0

>  <nRot>
1

>  <SLogP>
2.41

>  <SMR>
54.99

>  <TopoPSA(NO)>
26.07

>  <TopoPSA>
26.07

>  <JGI1>
0.31

>  <JGI2>
0.09

>  <JGI3>
0.04

>  <JGI4>
0.06

>  <JGI5>
0.03

>  <Diameter>
7

>  <Radius>
4

>  <TMWC10>
92.36

>  <TSRW10>
43.79

>  <MW>
177.12

>  <AMW>
6.33

>  <WPath>
258

>  <WPol>
15

>  <Zagreb1>
62

>  <Zagreb2>
67

>  <mZagreb2>
2.83

>  <yes>


>  <nAR-cont>
0.336376

>  <nHA-cont>
0.841215992

>  <MWHBN>
0.075139136

>  <MWHBN-cont>
0.571650438

>  <TPSA-cont>
0.818015212

>  <pka_cont>
0.97

>  <yes.1>


>  <BBB_SCORE>
4.156098072

>  <MMFF94 Energy>
39.404

$$$$
Compound 384
Actelion Java MolfileCreator 2.0

  0  0  0  0  0  0              0 V3000
M  V30 BEGIN CTAB
M  V30 COUNTS 35 38 0 0 0
M  V30 BEGIN ATOM
M  V30 1 Cl 0.0 -0.163 -4.7362 0
M  V30 2 C 0.474 -0.4831 -3.1143 0
M  V30 3 C 0.1091 0.4006 -2.1002 0
M  V30 4 C 1.2287 -1.6171 -2.8273 0
M  V30 5 C 0.4833 0.1446 -0.7704 0
M  V30 6 C 1.6274 -1.8735 -1.5141 0
M  V30 7 C 0.0568 1.131 0.275 0
M  V30 8 C 1.2467 -1.0012 -0.4822 0
M  V30 9 N 0.8275 1.6036 1.197 0
M  V30 10 C -1.3608 1.6189 0.2573 0
M  V30 11 N 1.719 -1.244 0.8255 0
M  V30 12 C 2.2105 1.15 1.3297 0
M  V30 13 C -2.4191 0.7682 -0.0875 0
M  V30 14 C -1.6278 2.9436 0.6243 0
M  V30 15 C 2.2401 -0.291 1.6672 0
M  V30 16 C 1.8163 -2.4317 1.5246 0
M  V30 17 C -3.7294 1.2519 -0.0935 0
M  V30 18 C -2.9389 3.4222 0.617 0
M  V30 19 N 2.7199 -0.869 2.7471 0
M  V30 20 N 2.4551 -2.2116 2.6567 0
M  V30 21 C 1.2543 -3.7346 1.1012 0
M  V30 22 C -3.9875 2.5778 0.2541 0
M  V30 23 H -0.4576 1.2945 -2.3538 0
M  V30 24 H 1.5278 -2.2942 -3.6245 0
M  V30 25 H 2.2634 -2.7362 -1.3278 0
M  V30 26 H 2.7876 1.3659 0.4229 0
M  V30 27 H 2.6809 1.7202 2.1385 0
M  V30 28 H -2.246 -0.2748 -0.3356 0
M  V30 29 H -0.8166 3.6059 0.9189 0
M  V30 30 H -4.5521 0.5924 -0.3594 0
M  V30 31 H -3.1416 4.4517 0.902 0
M  V30 32 H 0.3056 -3.6134 0.5699 0
M  V30 33 H 1.0613 -4.3632 1.9769 0
M  V30 34 H 1.959 -4.2689 0.4578 0
M  V30 35 H -5.009 2.9511 0.2543 0
M  V30 END ATOM
M  V30 BEGIN BOND
M  V30 1 1 1 2
M  V30 2 2 2 3
M  V30 3 1 2 4
M  V30 4 1 3 5
M  V30 5 2 4 6
M  V30 6 1 5 7
M  V30 7 2 5 8
M  V30 8 2 7 9
M  V30 9 1 7 10
M  V30 10 1 8 11
M  V30 11 1 9 12
M  V30 12 2 10 13
M  V30 13 1 10 14
M  V30 14 1 11 15
M  V30 15 1 11 16
M  V30 16 1 13 17
M  V30 17 2 14 18
M  V30 18 2 15 19
M  V30 19 2 16 20
M  V30 20 1 16 21
M  V30 21 2 17 22
M  V30 22 1 6 8
M  V30 23 1 12 15
M  V30 24 1 18 22
M  V30 25 1 19 20
M  V30 26 1 3 23
M  V30 27 1 4 24
M  V30 28 1 6 25
M  V30 29 1 12 26
M  V30 30 1 12 27
M  V30 31 1 13 28
M  V30 32 1 14 29
M  V30 33 1 17 30
M  V30 34 1 18 31
M  V30 35 1 21 32
M  V30 36 1 21 33
M  V30 37 1 21 34
M  V30 38 1 22 35
M  V30 END BOND
M  V30 END CTAB
M  END
>  <Column 1>
478

>  <level_0>
539

>  <index>
539

>  <Unnamed: 0>
539

>  <NO.>
543

>  <Name>
alprazolam

>  <IUPAC_name>
8-chloro-1-methyl-6-phenyl-4h-[1-2-4]triazolo[4-3-a][1-4]benzodiazepine

>  <SMILES>
Cc1nnc2n1-c1ccc(Cl)cc1C(c1ccccc1)=NC2

>  <CID>
2118

>  <logBB>
0

>  <BBB+/BBB->
BBB+

>  <Inchi>
InChI=1S/C17H13ClN4/c1-11-20-21-16-10-19-17(12-5-3-2-4-6-12)14-9-13(18)7-8-15(14)22(11)16/h2-9H-10H2-1H3

>  <threshold>


>  <reference>
R3|R4|R47|R5|R38|R41|R50|R40|R8|R21|R27|R31|R2|R2|R27|R3|R11|R17|R18|R26|R27|R39|R42|R46|R48|R12|R25|R35|R36|R43|R44|R49|R49|

>  <group>
A

>  <Class>
1

>  <ABC>
17.65

>  <ABCGG>
14.32

>  <nAcid>
0

>  <nBase>
0

>  <nAromAtom>
17

>  <nAromBond>
17

>  <nAtom>
35

>  <nHeavyAtom>
22

>  <nSpiro>
0

>  <nBridgehead>
0

>  <nHetero>
5

>  <nN>
4

>  <nO>
0

>  <nF>
0

>  <BalabanJ>
1.59

>  <BertzCT>
880.93

>  <nBonds>
38

>  <nBondsO>
25

>  <nBondsS>
20

>  <nBondsD>
1

>  <nBondsT>
0

>  <nBondsA>
17

>  <nBondsM>
18

>  <nBondsKS>
29

>  <nBondsKD>
9

>  <RNCG>
0.21

>  <RPCG>
0.12

>  <FCSP3>
0.12

>  <SZ>
26.67

>  <Sm>
25.71

>  <Sv>
24.64

>  <Sse>
35.19

>  <Sp>
26.13

>  <Si>
39.01

>  <MZ>
0.76

>  <Mm>
0.73

>  <Mv>
0.7

>  <Mse>
1.01

>  <Mp>
0.75

>  <Mi>
1.11

>  <NsCH3>
1

>  <NdCH2>
0

>  <NssCH2>
1

>  <NtCH>
0

>  <NdsCH>
0

>  <NaaCH>
8

>  <NsssCH>
0

>  <NddC>
0

>  <NtsC>
0

>  <NdssC>
1

>  <NaasC>
6

>  <NaaaC>
0

>  <NssssC>
0

>  <NsNH3>
0

>  <NsNH2>
0

>  <NssNH2>
0

>  <NdNH>
0

>  <NssNH>
0

>  <NaaNH>
0

>  <NtN>
0

>  <NsssNH>
0

>  <NdsN>
1

>  <NaaN>
2

>  <NsssN>
0

>  <NddsN>
0

>  <NaasN>
1

>  <NssssN>
0

>  <NsOH>
0

>  <NdO>
0

>  <NssO>
0

>  <NaaO>
0

>  <NsF>
0

>  <NsSiH3>
0

>  <NssSiH2>
0

>  <NsssSiH>
0

>  <NssssSi>
0

>  <NsPH2>
0

>  <NssPH>
0

>  <NsssP>
0

>  <NdsssP>
0

>  <NsssssP>
0

>  <NsSH>
0

>  <NdS>
0

>  <NssS>
0

>  <NaaS>
0

>  <NdssS>
0

>  <NddssS>
0

>  <NsCl>
1

>  <NsBr>
0

>  <NsI>
0

>  <fragCpx>
163.05

>  <fMF>
0.57

>  <nHBAcc>
4

>  <nHBDon>
0

>  <Kier1>
15.52

>  <Kier2>
6.48

>  <Lipinski>
1

>  <GhoseFilter>
1

>  <FilterItLogS>
-5.43

>  <VMcGowan>
220.41

>  <LabuteASA>
132.66

>  <PEOE_VSA1>
0

>  <PEOE_VSA2>
9.56

>  <PEOE_VSA3>
0

>  <PEOE_VSA4>
0

>  <PEOE_VSA5>
10.2

>  <PEOE_VSA6>
41.93

>  <PEOE_VSA7>
25.12

>  <PEOE_VSA8>
16.15

>  <PEOE_VSA9>
11.4

>  <PEOE_VSA10>
12.37

>  <PEOE_VSA11>
5.82

>  <PEOE_VSA12>
0

>  <PEOE_VSA13>
0

>  <SMR_VSA1>
0

>  <SMR_VSA2>
0

>  <SMR_VSA3>
14.76

>  <SMR_VSA4>
4.99

>  <SMR_VSA5>
13.47

>  <SMR_VSA6>
0

>  <SMR_VSA7>
76.33

>  <SMR_VSA8>
0

>  <SMR_VSA9>
5.69

>  <SlogP_VSA1>
0

>  <SlogP_VSA2>
20.48

>  <SlogP_VSA3>
6.54

>  <SlogP_VSA4>
6.92

>  <SlogP_VSA5>
22.78

>  <SlogP_VSA6>
53.52

>  <SlogP_VSA7>
5.02

>  <SlogP_VSA8>
5.69

>  <SlogP_VSA9>
0

>  <SlogP_VSA10>
0

>  <SlogP_VSA11>
0

>  <EState_VSA1>
0

>  <EState_VSA2>
0

>  <EState_VSA3>
11.57

>  <EState_VSA4>
34.17

>  <EState_VSA5>
0

>  <EState_VSA6>
0

>  <EState_VSA7>
47.89

>  <EState_VSA8>
22.33

>  <EState_VSA9>
16.59

>  <EState_VSA10>
0

>  <VSA_EState1>
2.05

>  <VSA_EState2>
4.77

>  <VSA_EState3>
9.1

>  <VSA_EState4>
4.02

>  <VSA_EState5>
1.69

>  <VSA_EState6>
15.98

>  <VSA_EState7>
0

>  <VSA_EState8>
2.44

>  <VSA_EState9>
0

>  <apol>
43.64

>  <bpol>
17.54

>  <nRing>
4

>  <nHRing>
2

>  <naRing>
3

>  <naHRing>
1

>  <nARing 2>
1

>  <nAHRing 2>
1

>  <nFRing>
1

>  <nFHRing>
1

>  <nFaRing>
0

>  <nFaHRing>
0

>  <nFARing 2>
1

>  <nFAHRing 2>
1

>  <nRot>
1

>  <SLogP>
3.58

>  <SMR>
86.89

>  <TopoPSA(NO)>
43.07

>  <TopoPSA>
43.07

>  <JGI1>
0.14

>  <JGI2>
0.07

>  <JGI3>
0.05

>  <JGI4>
0.03

>  <JGI5>
0.02

>  <Diameter>
9

>  <Radius>
5

>  <TMWC10>
122.84

>  <TSRW10>
70.85

>  <MW>
308.08

>  <AMW>
8.8

>  <WPath>
926

>  <WPol>
40

>  <Zagreb1>
122

>  <Zagreb2>
148

>  <mZagreb2>
4.75

>  <yes>


>  <nAR-cont>
0.816016

>  <nHA-cont>
0.983774276

>  <MWHBN>
0.227891559

>  <MWHBN-cont>
0.988805686

>  <TPSA-cont>
0.699344655

>  <pka_cont>
0.97

>  <yes.1>


>  <BBB_SCORE>
5.166688115

>  <MMFF94 Energy>
87.11

$$$$
Compound 385
Actelion Java MolfileCreator 2.0

  0  0  0  0  0  0              0 V3000
M  V30 BEGIN CTAB
M  V30 COUNTS 15 14 0 0 0
M  V30 BEGIN ATOM
M  V30 1 O -0.6013 -0.6765 0.4509 0
M  V30 2 C 0.3565 -1.0281 -0.5446 0
M  V30 3 C -0.6822 0.721 0.7209 0
M  V30 4 C -0.2431 -0.9062 -1.9342 0
M  V30 5 C 0.3651 1.1332 1.7401 0
M  V30 6 H 0.6317 -2.0731 -0.3685 0
M  V30 7 H 1.2682 -0.4288 -0.4534 0
M  V30 8 H -1.6763 0.909 1.1397 0
M  V30 9 H -0.5955 1.3125 -0.1963 0
M  V30 10 H 0.4635 -1.2569 -2.6917 0
M  V30 11 H -1.1626 -1.496 -2.0091 0
M  V30 12 H -0.5095 0.1298 -2.1637 0
M  V30 13 H 0.2476 2.1866 2.0101 0
M  V30 14 H 0.2797 0.5248 2.6464 0
M  V30 15 H 1.3776 0.987 1.3522 0
M  V30 END ATOM
M  V30 BEGIN BOND
M  V30 1 1 1 2
M  V30 2 1 1 3
M  V30 3 1 2 4
M  V30 4 1 3 5
M  V30 5 1 2 6
M  V30 6 1 2 7
M  V30 7 1 3 8
M  V30 8 1 3 9
M  V30 9 1 4 10
M  V30 10 1 4 11
M  V30 11 1 4 12
M  V30 12 1 5 13
M  V30 13 1 5 14
M  V30 14 1 5 15
M  V30 END BOND
M  V30 END CTAB
M  END
>  <Column 1>
479

>  <level_0>
540

>  <index>
540

>  <Unnamed: 0>
540

>  <NO.>
544

>  <Name>
diethylether (ether)

>  <IUPAC_name>
ethoxyethane

>  <SMILES>
CCOCC

>  <CID>
3283

>  <logBB>
0

>  <BBB+/BBB->
BBB+

>  <Inchi>
InChI=1S/C4H10O/c1-3-5-4-2/h3-4H2-1-2H3

>  <threshold>


>  <reference>
R3|R38|R41|R47|R40|R2|R2|R5|R8|R11|R12|R17|R21|R25|R27|R27|R32|R33|R35|R36|R39|R43|R44|R44|R46|R48|R49|R22|

>  <group>
A

>  <Class>
1

>  <ABC>
2.83

>  <ABCGG>
3.15

>  <nAcid>
0

>  <nBase>
0

>  <nAromAtom>
0

>  <nAromBond>
0

>  <nAtom>
15

>  <nHeavyAtom>
5

>  <nSpiro>
0

>  <nBridgehead>
0

>  <nHetero>
1

>  <nN>
0

>  <nO>
1

>  <nF>
0

>  <BalabanJ>
2.19

>  <BertzCT>
11.12

>  <nBonds>
14

>  <nBondsO>
4

>  <nBondsS>
14

>  <nBondsD>
0

>  <nBondsT>
0

>  <nBondsA>
0

>  <nBondsM>
0

>  <nBondsKS>
14

>  <nBondsKD>
0

>  <RNCG>
0.82

>  <RPCG>
0.12

>  <FCSP3>
1

>  <SZ>
7

>  <Sm>
6.17

>  <Sv>
7.42

>  <Sse>
14.77

>  <Sp>
8.47

>  <Si>
17.29

>  <MZ>
0.47

>  <Mm>
0.41

>  <Mv>
0.49

>  <Mse>
0.98

>  <Mp>
0.56

>  <Mi>
1.15

>  <NsCH3>
2

>  <NdCH2>
0

>  <NssCH2>
2

>  <NtCH>
0

>  <NdsCH>
0

>  <NaaCH>
0

>  <NsssCH>
0

>  <NddC>
0

>  <NtsC>
0

>  <NdssC>
0

>  <NaasC>
0

>  <NaaaC>
0

>  <NssssC>
0

>  <NsNH3>
0

>  <NsNH2>
0

>  <NssNH2>
0

>  <NdNH>
0

>  <NssNH>
0

>  <NaaNH>
0

>  <NtN>
0

>  <NsssNH>
0

>  <NdsN>
0

>  <NaaN>
0

>  <NsssN>
0

>  <NddsN>
0

>  <NaasN>
0

>  <NssssN>
0

>  <NsOH>
0

>  <NdO>
0

>  <NssO>
1

>  <NaaO>
0

>  <NsF>
0

>  <NsSiH3>
0

>  <NssSiH2>
0

>  <NsssSiH>
0

>  <NssssSi>
0

>  <NsPH2>
0

>  <NssPH>
0

>  <NsssP>
0

>  <NdsssP>
0

>  <NsssssP>
0

>  <NsSH>
0

>  <NdS>
0

>  <NssS>
0

>  <NaaS>
0

>  <NdssS>
0

>  <NddssS>
0

>  <NsCl>
0

>  <NsBr>
0

>  <NsI>
0

>  <fragCpx>
4.01

>  <fMF>
0

>  <nHBAcc>
1

>  <nHBDon>
0

>  <Kier1>
5

>  <Kier2>
4

>  <Lipinski>
1

>  <GhoseFilter>
0

>  <FilterItLogS>
-1.07

>  <VMcGowan>
73.09

>  <LabuteASA>
32.95

>  <PEOE_VSA1>
4.74

>  <PEOE_VSA2>
0

>  <PEOE_VSA3>
0

>  <PEOE_VSA4>
0

>  <PEOE_VSA5>
0

>  <PEOE_VSA6>
0

>  <PEOE_VSA7>
13.85

>  <PEOE_VSA8>
13.21

>  <PEOE_VSA9>
0

>  <PEOE_VSA10>
0

>  <PEOE_VSA11>
0

>  <PEOE_VSA12>
0

>  <PEOE_VSA13>
0

>  <SMR_VSA1>
4.74

>  <SMR_VSA2>
0

>  <SMR_VSA3>
0

>  <SMR_VSA4>
0

>  <SMR_VSA5>
13.85

>  <SMR_VSA6>
13.21

>  <SMR_VSA7>
0

>  <SMR_VSA8>
0

>  <SMR_VSA9>
0

>  <SlogP_VSA1>
0

>  <SlogP_VSA2>
13.21

>  <SlogP_VSA3>
4.74

>  <SlogP_VSA4>
0

>  <SlogP_VSA5>
13.85

>  <SlogP_VSA6>
0

>  <SlogP_VSA7>
0

>  <SlogP_VSA8>
0

>  <SlogP_VSA9>
0

>  <SlogP_VSA10>
0

>  <SlogP_VSA11>
0

>  <EState_VSA1>
0

>  <EState_VSA2>
0

>  <EState_VSA3>
0

>  <EState_VSA4>
13.21

>  <EState_VSA5>
0

>  <EState_VSA6>
0

>  <EState_VSA7>
13.85

>  <EState_VSA8>
0

>  <EState_VSA9>
4.74

>  <EState_VSA10>
0

>  <VSA_EState1>
4.83

>  <VSA_EState2>
0

>  <VSA_EState3>
0

>  <VSA_EState4>
0

>  <VSA_EState5>
0

>  <VSA_EState6>
0

>  <VSA_EState7>
0

>  <VSA_EState8>
5.67

>  <VSA_EState9>
0

>  <apol>
14.15

>  <bpol>
11.77

>  <nRing>
0

>  <nHRing>
0

>  <naRing>
0

>  <naHRing>
0

>  <nARing 2>
0

>  <nAHRing 2>
0

>  <nFRing>
0

>  <nFHRing>
0

>  <nFaRing>
0

>  <nFaHRing>
0

>  <nFARing 2>
0

>  <nFAHRing 2>
0

>  <nRot>
2

>  <SLogP>
1.04

>  <SMR>
22.17

>  <TopoPSA(NO)>
9.23

>  <TopoPSA>
9.23

>  <JGI1>
0.13

>  <JGI2>
0.07

>  <JGI3>
0.06

>  <JGI4>
0

>  <JGI5>
0

>  <Diameter>
4

>  <Radius>
2

>  <TMWC10>
52.65

>  <TSRW10>
25.58

>  <MW>
74.07

>  <AMW>
4.94

>  <WPath>
20

>  <WPol>
2

>  <Zagreb1>
14

>  <Zagreb2>
12

>  <mZagreb2>
1.5

>  <yes>


>  <nAR-cont>
0.336376

>  <nHA-cont>
0

>  <MWHBN>
0.116192696

>  <MWHBN-cont>
0.812515629

>  <TPSA-cont>
0.935568869

>  <pka_cont>
0.97

>  <yes.1>


>  <BBB_SCORE>
3.91128718

>  <MMFF94 Energy>
4.6562

$$$$
Compound 386
Actelion Java MolfileCreator 2.0

  0  0  0  0  0  0              0 V3000
M  V30 BEGIN CTAB
M  V30 COUNTS 36 38 0 0 0
M  V30 BEGIN ATOM
M  V30 1 O 2.3128 2.3926 0.0796 0
M  V30 2 N 2.2985 1.0969 -0.4096 0
M  V30 3 C 1.4158 2.5075 1.0933 0
M  V30 4 C 1.3798 0.4379 0.3163 0
M  V30 5 C 0.791 1.2903 1.2927 0
M  V30 6 C 1.1489 3.6583 1.8302 0
M  V30 7 C 1.0956 -0.9724 0.0848 0
M  V30 8 C -0.1845 1.1879 2.3011 0
M  V30 9 C 0.1769 3.5405 2.8303 0
M  V30 10 C 0.4299 -1.4325 -1.0721 0
M  V30 11 C 1.5003 -1.8889 1.073 0
M  V30 12 C -0.4798 2.3278 3.0629 0
M  V30 13 C 0.1917 -2.8183 -1.1943 0
M  V30 14 C -0.0664 -0.4948 -2.1686 0 CFG=1
M  V30 15 C 1.2532 -3.2532 0.9267 0
M  V30 16 C 0.5987 -3.7176 -0.2078 0
M  V30 17 N 0.4063 -0.9587 -3.4865 0
M  V30 18 C -1.6115 -0.3721 -2.1794 0
M  V30 19 C -2.1642 0.3429 -0.9717 0
M  V30 20 C -2.9982 -0.2142 -0.0846 0
M  V30 21 H 1.6671 4.5895 1.636 0
M  V30 22 H -0.7033 0.2509 2.4829 0
M  V30 23 H -0.0719 4.4093 3.4371 0
M  V30 24 H 2.0228 -1.5412 1.9623 0
M  V30 25 H -1.233 2.2665 3.8463 0
M  V30 26 H -0.3153 -3.2022 -2.0788 0
M  V30 27 H 0.3488 0.5089 -2.0402 0
M  V30 28 H 1.5764 -3.9513 1.6942 0
M  V30 29 H 0.4066 -4.7802 -0.3317 0
M  V30 30 H 0.1795 -0.2508 -4.183 0
M  V30 31 H 1.4263 -0.9947 -3.4527 0
M  V30 32 H -2.0773 -1.3605 -2.2861 0
M  V30 33 H -1.9211 0.2068 -3.06 0
M  V30 34 H -1.8639 1.3803 -0.836 0
M  V30 35 H -3.3259 -1.2449 -0.1806 0
M  V30 36 H -3.3693 0.3544 0.7623 0
M  V30 END ATOM
M  V30 BEGIN BOND
M  V30 1 1 1 2
M  V30 2 1 1 3
M  V30 3 2 2 4
M  V30 4 2 3 5
M  V30 5 1 3 6
M  V30 6 1 4 7
M  V30 7 1 5 8
M  V30 8 2 6 9
M  V30 9 2 7 10
M  V30 10 1 7 11
M  V30 11 2 8 12
M  V30 12 1 10 13
M  V30 13 1 10 14
M  V30 14 2 11 15
M  V30 15 2 13 16
M  V30 16 1 14 17
M  V30 17 1 14 18
M  V30 18 1 18 19
M  V30 19 2 19 20
M  V30 20 1 4 5
M  V30 21 1 9 12
M  V30 22 1 15 16
M  V30 23 1 6 21
M  V30 24 1 8 22
M  V30 25 1 9 23
M  V30 26 1 11 24
M  V30 27 1 12 25
M  V30 28 1 13 26
M  V30 29 1 14 27
M  V30 30 1 15 28
M  V30 31 1 16 29
M  V30 32 1 17 30
M  V30 33 1 17 31
M  V30 34 1 18 32
M  V30 35 1 18 33
M  V30 36 1 19 34
M  V30 37 1 20 35
M  V30 38 1 20 36
M  V30 END BOND
M  V30 BEGIN COLLECTION
M  V30 MDLV30/STERAC1 ATOMS=(1 14)
M  V30 END COLLECTION
M  V30 END CTAB
M  END
>  <Column 1>
480

>  <level_0>
541

>  <index>
541

>  <Unnamed: 0>
541

>  <NO.>
546

>  <Name>
198968-25-1

>  <IUPAC_name>
1-[2-(1-2-benzoxazol-3-yl)phenyl]but-3-en-1-amine

>  <SMILES>
C=CCC(N)c1ccccc1-c1noc2ccccc12

>  <CID>
9861160

>  <logBB>
0

>  <BBB+/BBB->
BBB+

>  <Inchi>
InChI=1S/C17H16N2O/c1-2-7-15(18)12-8-3-4-9-13(12)17-14-10-5-6-11-16(14)20-19-17/h2-6-8-11-15H-1-7-18H2

>  <threshold>


>  <reference>
R2|R2|R3|R8|R21|R25|R27|R27|R36|R38|R41|R43|R46|R47|R49|R4|R40|

>  <group>
A

>  <Class>
1

>  <ABC>
15.46

>  <ABCGG>
13.27

>  <nAcid>
0

>  <nBase>
1

>  <nAromAtom>
15

>  <nAromBond>
16

>  <nAtom>
36

>  <nHeavyAtom>
20

>  <nSpiro>
0

>  <nBridgehead>
0

>  <nHetero>
3

>  <nN>
2

>  <nO>
1

>  <nF>
0

>  <BalabanJ>
1.69

>  <BertzCT>
745.34

>  <nBonds>
38

>  <nBondsO>
22

>  <nBondsS>
21

>  <nBondsD>
1

>  <nBondsT>
0

>  <nBondsA>
16

>  <nBondsM>
17

>  <nBondsKS>
30

>  <nBondsKD>
8

>  <RNCG>
0.25

>  <RPCG>
0.12

>  <FCSP3>
0.12

>  <SZ>
23.33

>  <Sm>
22.01

>  <Sv>
23.57

>  <Sse>
35.76

>  <Sp>
25.19

>  <Si>
40.11

>  <MZ>
0.65

>  <Mm>
0.61

>  <Mv>
0.65

>  <Mse>
0.99

>  <Mp>
0.7

>  <Mi>
1.11

>  <NsCH3>
0

>  <NdCH2>
1

>  <NssCH2>
1

>  <NtCH>
0

>  <NdsCH>
1

>  <NaaCH>
8

>  <NsssCH>
1

>  <NddC>
0

>  <NtsC>
0

>  <NdssC>
0

>  <NaasC>
3

>  <NaaaC>
2

>  <NssssC>
0

>  <NsNH3>
0

>  <NsNH2>
1

>  <NssNH2>
0

>  <NdNH>
0

>  <NssNH>
0

>  <NaaNH>
0

>  <NtN>
0

>  <NsssNH>
0

>  <NdsN>
0

>  <NaaN>
1

>  <NsssN>
0

>  <NddsN>
0

>  <NaasN>
0

>  <NssssN>
0

>  <NsOH>
0

>  <NdO>
0

>  <NssO>
0

>  <NaaO>
1

>  <NsF>
0

>  <NsSiH3>
0

>  <NssSiH2>
0

>  <NsssSiH>
0

>  <NssssSi>
0

>  <NsPH2>
0

>  <NssPH>
0

>  <NsssP>
0

>  <NdsssP>
0

>  <NsssssP>
0

>  <NsSH>
0

>  <NdS>
0

>  <NssS>
0

>  <NaaS>
0

>  <NdssS>
0

>  <NddssS>
0

>  <NsCl>
0

>  <NsBr>
0

>  <NsI>
0

>  <fragCpx>
104.03

>  <fMF>
0.42

>  <nHBAcc>
3

>  <nHBDon>
1

>  <Kier1>
14.92

>  <Kier2>
6.84

>  <Lipinski>
1

>  <GhoseFilter>
1

>  <FilterItLogS>
-4.76

>  <VMcGowan>
209.24

>  <LabuteASA>
117.25

>  <PEOE_VSA1>
10.26

>  <PEOE_VSA2>
0

>  <PEOE_VSA3>
0

>  <PEOE_VSA4>
0

>  <PEOE_VSA5>
6.58

>  <PEOE_VSA6>
47.63

>  <PEOE_VSA7>
24.12

>  <PEOE_VSA8>
16.99

>  <PEOE_VSA9>
0

>  <PEOE_VSA10>
5.69

>  <PEOE_VSA11>
5.58

>  <PEOE_VSA12>
0

>  <PEOE_VSA13>
0

>  <SMR_VSA1>
4.52

>  <SMR_VSA2>
0

>  <SMR_VSA3>
5.16

>  <SMR_VSA4>
5.73

>  <SMR_VSA5>
12.46

>  <SMR_VSA6>
0

>  <SMR_VSA7>
66.75

>  <SMR_VSA8>
0

>  <SMR_VSA9>
11.26

>  <SlogP_VSA1>
5.73

>  <SlogP_VSA2>
5.16

>  <SlogP_VSA3>
0

>  <SlogP_VSA4>
0

>  <SlogP_VSA5>
18.03

>  <SlogP_VSA6>
65.71

>  <SlogP_VSA7>
0

>  <SlogP_VSA8>
22.23

>  <SlogP_VSA9>
0

>  <SlogP_VSA10>
0

>  <SlogP_VSA11>
0

>  <EState_VSA1>
0

>  <EState_VSA2>
6.04

>  <EState_VSA3>
0

>  <EState_VSA4>
34.21

>  <EState_VSA5>
0

>  <EState_VSA6>
0

>  <EState_VSA7>
54.61

>  <EState_VSA8>
11.74

>  <EState_VSA9>
10.26

>  <EState_VSA10>
0

>  <VSA_EState1>
5.39

>  <VSA_EState2>
0

>  <VSA_EState3>
5.22

>  <VSA_EState4>
9.94

>  <VSA_EState5>
0

>  <VSA_EState6>
15.8

>  <VSA_EState7>
2.56

>  <VSA_EState8>
3.75

>  <VSA_EState9>
0

>  <apol>
42.06

>  <bpol>
17.22

>  <nRing>
3

>  <nHRing>
1

>  <naRing>
3

>  <naHRing>
1

>  <nARing 2>
0

>  <nAHRing 2>
0

>  <nFRing>
1

>  <nFHRing>
1

>  <nFaRing>
1

>  <nFaHRing>
1

>  <nFARing 2>
0

>  <nFAHRing 2>
0

>  <nRot>
4

>  <SLogP>
4.07

>  <SMR>
81.19

>  <TopoPSA(NO)>
52.05

>  <TopoPSA>
52.05

>  <JGI1>
0.11

>  <JGI2>
0.08

>  <JGI3>
0.05

>  <JGI4>
0.03

>  <JGI5>
0.02

>  <Diameter>
10

>  <Radius>
5

>  <TMWC10>
115.78

>  <TSRW10>
67.67

>  <MW>
264.13

>  <AMW>
7.34

>  <WPath>
774

>  <WPol>
31

>  <Zagreb1>
104

>  <Zagreb2>
124

>  <mZagreb2>
4.56

>  <yes>


>  <nAR-cont>
0.336376

>  <nHA-cont>
0.999629945

>  <MWHBN>
0.246122391

>  <MWHBN-cont>
0.966055992

>  <TPSA-cont>
0.636658679

>  <pka_cont>
0.97

>  <yes.1>


>  <BBB_SCORE>
4.543407291

>  <MMFF94 Energy>
73.415

$$$$
Compound 387
Actelion Java MolfileCreator 2.0

  0  0  0  0  0  0              0 V3000
M  V30 BEGIN CTAB
M  V30 COUNTS 63 67 0 0 0
M  V30 BEGIN ATOM
M  V30 1 O -2.1808 -2.0191 2.6659 0
M  V30 2 C -2.5109 -2.1334 1.4885 0
M  V30 3 C -2.1416 -1.0817 0.5167 0
M  V30 4 C -3.2743 -3.3111 1.0402 0
M  V30 5 C -1.384 0.029 0.9211 0
M  V30 6 C -2.5473 -1.1874 -0.8111 0
M  V30 7 C -3.6787 -3.4174 -0.2869 0
M  V30 8 C -3.5962 -4.3231 1.9534 0
M  V30 9 O -1.0101 0.2045 2.2318 0
M  V30 10 C -0.9871 1.0193 0.0012 0
M  V30 11 C -3.3446 -2.3527 -1.2489 0
M  V30 12 C -2.2118 -0.17 -1.7201 0
M  V30 13 C -4.4079 -4.536 -0.7093 0
M  V30 14 C -4.322 -5.4382 1.5313 0
M  V30 15 C -1.433 0.9355 -1.3307 0
M  V30 16 C -0.0583 2.1314 0.4408 0 CFG=1
M  V30 17 O -3.7249 -2.4255 -2.4143 0
M  V30 18 O -2.6323 -0.2017 -3.0274 0
M  V30 19 C -4.7276 -5.5445 0.2013 0
M  V30 20 C -1.1812 2.0514 -2.3276 0
M  V30 21 O 1.2981 1.7625 0.731 0
M  V30 22 C -0.0858 3.3704 -0.4667 0
M  V30 23 C -0.0725 3.0586 -1.9637 0 CFG=1
M  V30 24 C 1.8894 0.7131 -0.0297 0 CFG=2
M  V30 25 O 1.2101 2.5527 -2.3515 0
M  V30 26 C -0.2542 4.3598 -2.7816 0
M  V30 27 O 1.6856 -0.5674 0.5703 0
M  V30 28 C 3.385 0.9976 -0.18 0
M  V30 29 O -1.0676 4.4484 -3.7044 0
M  V30 30 C 0.6338 5.5344 -2.4455 0
M  V30 31 C 2.2585 -0.6783 1.8799 0 CFG=2
M  V30 32 C 4.0895 0.9171 1.177 0 CFG=1
M  V30 33 C 3.7803 -0.4322 1.8606 0 CFG=2
M  V30 34 C 1.9114 -2.0679 2.4038 0
M  V30 35 N 5.5377 1.1417 0.9993 0
M  V30 36 O 4.456 -1.4931 1.1678 0
M  V30 37 H -3.2836 -4.2484 2.9937 0
M  V30 38 H -1.2985 -0.5814 2.7488 0
M  V30 39 H -4.7287 -4.6273 -1.7457 0
M  V30 40 H -4.571 -6.2246 2.2408 0
M  V30 41 H -0.4404 2.5017 1.4021 0
M  V30 42 H -3.1495 -1.0264 -3.1748 0
M  V30 43 H -5.2933 -6.4139 -0.1274 0
M  V30 44 H -0.9427 1.6081 -3.303 0
M  V30 45 H -2.1388 2.5801 -2.429 0
M  V30 46 H -0.9974 3.9432 -0.2446 0
M  V30 47 H 0.7686 4.0065 -0.2034 0
M  V30 48 H 1.4595 0.6537 -1.0301 0
M  V30 49 H 1.1466 2.271 -3.2839 0
M  V30 50 H 3.5332 1.9941 -0.6139 0
M  V30 51 H 3.8198 0.2614 -0.8683 0
M  V30 52 H 0.5721 6.2773 -3.2464 0
M  V30 53 H 0.3026 5.9963 -1.5127 0
M  V30 54 H 1.6735 5.2095 -2.3621 0
M  V30 55 H 1.7818 0.0608 2.5355 0
M  V30 56 H 3.7138 1.7226 1.8201 0
M  V30 57 H 4.1626 -0.4312 2.8886 0
M  V30 58 H 2.2773 -2.852 1.7322 0
M  V30 59 H 0.8245 -2.1923 2.4579 0
M  V30 60 H 2.3287 -2.2322 3.4018 0
M  V30 61 H 5.8994 0.5344 0.2662 0
M  V30 62 H 6.0388 0.936 1.8609 0
M  V30 63 H 5.4036 -1.2839 1.1971 0
M  V30 END ATOM
M  V30 BEGIN BOND
M  V30 1 2 1 2
M  V30 2 1 2 3
M  V30 3 1 2 4
M  V30 4 2 3 5
M  V30 5 1 3 6
M  V30 6 2 4 7
M  V30 7 1 4 8
M  V30 8 1 5 9
M  V30 9 1 5 10
M  V30 10 1 6 11
M  V30 11 2 6 12
M  V30 12 1 7 13
M  V30 13 2 8 14
M  V30 14 2 10 15
M  V30 15 1 10 16
M  V30 16 2 11 17
M  V30 17 1 12 18
M  V30 18 2 13 19
M  V30 19 1 15 20
M  V30 20 1 16 21
M  V30 21 1 16 22
M  V30 22 1 20 23
M  V30 23 1 21 24
M  V30 24 1 23 25
M  V30 25 1 23 26
M  V30 26 1 24 27
M  V30 27 1 24 28
M  V30 28 2 26 29
M  V30 29 1 26 30
M  V30 30 1 27 31
M  V30 31 1 28 32
M  V30 32 1 31 33
M  V30 33 1 31 34
M  V30 34 1 32 35
M  V30 35 1 33 36
M  V30 36 1 7 11
M  V30 37 1 12 15
M  V30 38 1 14 19
M  V30 39 1 22 23
M  V30 40 1 32 33
M  V30 41 1 8 37
M  V30 42 1 9 38
M  V30 43 1 13 39
M  V30 44 1 14 40
M  V30 45 1 16 41
M  V30 46 1 18 42
M  V30 47 1 19 43
M  V30 48 1 20 44
M  V30 49 1 20 45
M  V30 50 1 22 46
M  V30 51 1 22 47
M  V30 52 1 24 48
M  V30 53 1 25 49
M  V30 54 1 28 50
M  V30 55 1 28 51
M  V30 56 1 30 52
M  V30 57 1 30 53
M  V30 58 1 30 54
M  V30 59 1 31 55
M  V30 60 1 32 56
M  V30 61 1 33 57
M  V30 62 1 34 58
M  V30 63 1 34 59
M  V30 64 1 34 60
M  V30 65 1 35 61
M  V30 66 1 35 62
M  V30 67 1 36 63
M  V30 END BOND
M  V30 BEGIN COLLECTION
M  V30 MDLV30/STEABS ATOMS=(6 16 23 24 31 32 33)
M  V30 END COLLECTION
M  V30 END CTAB
M  END
>  <Column 1>
481

>  <level_0>
542

>  <index>
542

>  <Unnamed: 0>
542

>  <NO.>
547

>  <Name>
dm5

>  <IUPAC_name>
(7s-9s)-9-acetyl-7-[(2r-4s-5s-6s)-4-amino-5-hydroxy-6-methyloxan-2-yl]oxy-6-9-11-trihydroxy-8-10-dihydro-7h-tetracene-5-12-dione

>  <SMILES>
CC(=O)[C@]1(O)Cc2c(O)c3c(c(O)c2[C@@H](O[C@H]2C[C@H](N)[C@H](O)[C@H](C)O2)C1)C(=O)c1ccccc1C3=O

>  <CID>
42890

>  <logBB>
0

>  <BBB+/BBB->
BBB+

>  <Inchi>
InChI=1S/C26H27NO9/c1-10-21(29)15(27)7-17(35-10)36-16-9-26(34-11(2)28)8-14-18(16)25(33)20-19(24(14)32)22(30)12-5-3-4-6-13(12)23(20)31/h3-6-10-15-17-21-29-32-34H-7-9-27H2-1-2H3/t10--15--16--17--21+-26-/m0/s1

>  <threshold>


>  <reference>
R20|

>  <group>
A

>  <Class>
1

>  <ABC>
28.8

>  <ABCGG>
22.26

>  <nAcid>
0

>  <nBase>
1

>  <nAromAtom>
12

>  <nAromBond>
12

>  <nAtom>
63

>  <nHeavyAtom>
36

>  <nSpiro>
0

>  <nBridgehead>
0

>  <nHetero>
10

>  <nN>
1

>  <nO>
9

>  <nF>
0

>  <BalabanJ>
1.46

>  <BertzCT>
1292.81

>  <nBonds>
67

>  <nBondsO>
40

>  <nBondsS>
52

>  <nBondsD>
3

>  <nBondsT>
0

>  <nBondsA>
12

>  <nBondsM>
15

>  <nBondsKS>
58

>  <nBondsKD>
9

>  <RNCG>
0.13

>  <RPCG>
0.07

>  <FCSP3>
0.42

>  <SZ>
43.67

>  <Sm>
41.42

>  <Sv>
40.51

>  <Sse>
64.62

>  <Sp>
41.76

>  <Si>
70.78

>  <MZ>
0.69

>  <Mm>
0.66

>  <Mv>
0.64

>  <Mse>
1.03

>  <Mp>
0.66

>  <Mi>
1.12

>  <NsCH3>
2

>  <NdCH2>
0

>  <NssCH2>
3

>  <NtCH>
0

>  <NdsCH>
0

>  <NaaCH>
4

>  <NsssCH>
5

>  <NddC>
0

>  <NtsC>
0

>  <NdssC>
3

>  <NaasC>
8

>  <NaaaC>
0

>  <NssssC>
1

>  <NsNH3>
0

>  <NsNH2>
1

>  <NssNH2>
0

>  <NdNH>
0

>  <NssNH>
0

>  <NaaNH>
0

>  <NtN>
0

>  <NsssNH>
0

>  <NdsN>
0

>  <NaaN>
0

>  <NsssN>
0

>  <NddsN>
0

>  <NaasN>
0

>  <NssssN>
0

>  <NsOH>
4

>  <NdO>
3

>  <NssO>
2

>  <NaaO>
0

>  <NsF>
0

>  <NsSiH3>
0

>  <NssSiH2>
0

>  <NsssSiH>
0

>  <NssssSi>
0

>  <NsPH2>
0

>  <NssPH>
0

>  <NsssP>
0

>  <NdsssP>
0

>  <NsssssP>
0

>  <NsSH>
0

>  <NdS>
0

>  <NssS>
0

>  <NaaS>
0

>  <NdssS>
0

>  <NddssS>
0

>  <NsCl>
0

>  <NsBr>
0

>  <NsI>
0

>  <fragCpx>
340.1

>  <fMF>
0.4

>  <nHBAcc>
10

>  <nHBDon>
5

>  <Kier1>
27.56

>  <Kier2>
10.19

>  <Lipinski>
1

>  <GhoseFilter>
0

>  <FilterItLogS>
-3.34

>  <VMcGowan>
347.01

>  <LabuteASA>
205.81

>  <PEOE_VSA1>
35.63

>  <PEOE_VSA2>
14.38

>  <PEOE_VSA3>
0

>  <PEOE_VSA4>
0

>  <PEOE_VSA5>
0

>  <PEOE_VSA6>
24.27

>  <PEOE_VSA7>
13.85

>  <PEOE_VSA8>
47.56

>  <PEOE_VSA9>
29.44

>  <PEOE_VSA10>
17.1

>  <PEOE_VSA11>
23.64

>  <PEOE_VSA12>
0

>  <PEOE_VSA13>
0

>  <SMR_VSA1>
44.28

>  <SMR_VSA2>
0

>  <SMR_VSA3>
0

>  <SMR_VSA4>
5.73

>  <SMR_VSA5>
69.35

>  <SMR_VSA6>
0

>  <SMR_VSA7>
57.65

>  <SMR_VSA8>
0

>  <SMR_VSA9>
11.5

>  <SlogP_VSA1>
5.73

>  <SlogP_VSA2>
67.92

>  <SlogP_VSA3>
20.69

>  <SlogP_VSA4>
0

>  <SlogP_VSA5>
75.76

>  <SlogP_VSA6>
24.27

>  <SlogP_VSA7>
0

>  <SlogP_VSA8>
0

>  <SlogP_VSA9>
0

>  <SlogP_VSA10>
0

>  <SlogP_VSA11>
11.5

>  <EState_VSA1>
71.51

>  <EState_VSA2>
46.22

>  <EState_VSA3>
0

>  <EState_VSA4>
0

>  <EState_VSA5>
19.06

>  <EState_VSA6>
19.06

>  <EState_VSA7>
0

>  <EState_VSA8>
0

>  <EState_VSA9>
15.21

>  <EState_VSA10>
34.81

>  <VSA_EState1>
11.76

>  <VSA_EState2>
39.02

>  <VSA_EState3>
43.82

>  <VSA_EState4>
3.38

>  <VSA_EState5>
-3.06

>  <VSA_EState6>
5.4

>  <VSA_EState7>
-4.38

>  <VSA_EState8>
2.8

>  <VSA_EState9>
0

>  <apol>
69.74

>  <bpol>
32.59

>  <nRing>
5

>  <nHRing>
1

>  <naRing>
2

>  <naHRing>
0

>  <nARing 2>
3

>  <nAHRing 2>
1

>  <nFRing>
1

>  <nFHRing>
0

>  <nFaRing>
0

>  <nFaHRing>
0

>  <nFARing 2>
1

>  <nFAHRing 2>
0

>  <nRot>
3

>  <SLogP>
1.02

>  <SMR>
123.79

>  <TopoPSA(NO)>
176.61

>  <TopoPSA>
176.61

>  <JGI1>
0.23

>  <JGI2>
0.09

>  <JGI3>
0.06

>  <JGI4>
0.06

>  <JGI5>
0.03

>  <Diameter>
14

>  <Radius>
7

>  <TMWC10>
157.68

>  <TSRW10>
73.71

>  <MW>
497.17

>  <AMW>
7.89

>  <WPath>
3545

>  <WPol>
76

>  <Zagreb1>
206

>  <Zagreb2>
257

>  <mZagreb2>
7.56

>  <yes>


>  <nAR-cont>
0.691115

>  <nHA-cont>
0.477843619

>  <MWHBN>
0.672726912

>  <MWHBN-cont>
0

>  <TPSA-cont>
0

>  <pka_cont>
0.97

>  <yes.1>


>  <BBB_SCORE>
1.653958619

>  <MMFF94 Energy>
123.13

$$$$
Compound 388
Actelion Java MolfileCreator 2.0

  0  0  0  0  0  0              0 V3000
M  V30 BEGIN CTAB
M  V30 COUNTS 22 21 0 0 0
M  V30 BEGIN ATOM
M  V30 1 O 2.8351 -0.5358 0.689 0
M  V30 2 C 1.7824 -1.1509 0.602 0
M  V30 3 O 1.7105 -2.2736 -0.1388 0
M  V30 4 C 0.4634 -0.7964 1.3032 0 CFG=1
M  V30 5 N 0.6548 0.3712 2.1891 0
M  V30 6 C -0.6852 -0.596 0.2984 0
M  V30 7 C -0.523 0.5724 -0.7016 0
M  V30 8 C -1.2199 0.2263 -2.0227 0
M  V30 9 C -1.1105 1.8815 -0.166 0
M  V30 10 H 2.6141 -2.3765 -0.5044 0
M  V30 11 H 0.2166 -1.6466 1.9507 0
M  V30 12 H 1.0832 1.1191 1.6384 0
M  V30 13 H 1.3783 0.1349 2.8716 0
M  V30 14 H -1.6275 -0.4777 0.8501 0
M  V30 15 H -0.7919 -1.5329 -0.2643 0
M  V30 16 H 0.5384 0.7317 -0.9232 0
M  V30 17 H -0.781 -0.672 -2.4697 0
M  V30 18 H -2.2895 0.044 -1.8724 0
M  V30 19 H -1.1122 1.0414 -2.7463 0
M  V30 20 H -0.6068 2.2171 0.7427 0
M  V30 21 H -2.177 1.7742 0.0603 0
M  V30 22 H -1.0062 2.6818 -0.9069 0
M  V30 END ATOM
M  V30 BEGIN BOND
M  V30 1 2 1 2
M  V30 2 1 2 3
M  V30 3 1 2 4
M  V30 4 1 4 5
M  V30 5 1 4 6
M  V30 6 1 6 7
M  V30 7 1 7 8
M  V30 8 1 7 9
M  V30 9 1 3 10
M  V30 10 1 4 11
M  V30 11 1 5 12
M  V30 12 1 5 13
M  V30 13 1 6 14
M  V30 14 1 6 15
M  V30 15 1 7 16
M  V30 16 1 8 17
M  V30 17 1 8 18
M  V30 18 1 8 19
M  V30 19 1 9 20
M  V30 20 1 9 21
M  V30 21 1 9 22
M  V30 END BOND
M  V30 BEGIN COLLECTION
M  V30 MDLV30/STERAC1 ATOMS=(1 4)
M  V30 END COLLECTION
M  V30 END CTAB
M  END
>  <Column 1>
482

>  <level_0>
543

>  <index>
543

>  <Unnamed: 0>
543

>  <NO.>
548

>  <Name>
leucine

>  <IUPAC_name>
2-amino-4-methylpentanoic acid

>  <SMILES>
CC(C)CC(N)C(=O)O

>  <CID>
857

>  <logBB>
0

>  <BBB+/BBB->
BBB+

>  <Inchi>
InChI=1S/C6H13NO2/c1-4(2)3-5(7)6(8)9/h4-5H-3-7H2-1-2H3-(H-8-9)

>  <threshold>


>  <reference>
R47|

>  <group>
A

>  <Class>
1

>  <ABC>
6.16

>  <ABCGG>
6.52

>  <nAcid>
1

>  <nBase>
1

>  <nAromAtom>
0

>  <nAromBond>
0

>  <nAtom>
22

>  <nHeavyAtom>
9

>  <nSpiro>
0

>  <nBridgehead>
0

>  <nHetero>
3

>  <nN>
1

>  <nO>
2

>  <nF>
0

>  <BalabanJ>
3.38

>  <BertzCT>
101.23

>  <nBonds>
21

>  <nBondsO>
8

>  <nBondsS>
20

>  <nBondsD>
1

>  <nBondsT>
0

>  <nBondsA>
0

>  <nBondsM>
1

>  <nBondsKS>
20

>  <nBondsKD>
1

>  <RNCG>
0.39

>  <RPCG>
0.26

>  <FCSP3>
0.83

>  <SZ>
12

>  <Sm>
10.92

>  <Sv>
11.71

>  <Sse>
22.1

>  <Sp>
12.81

>  <Si>
25.41

>  <MZ>
0.55

>  <Mm>
0.5

>  <Mv>
0.53

>  <Mse>
1

>  <Mp>
0.58

>  <Mi>
1.15

>  <NsCH3>
2

>  <NdCH2>
0

>  <NssCH2>
1

>  <NtCH>
0

>  <NdsCH>
0

>  <NaaCH>
0

>  <NsssCH>
2

>  <NddC>
0

>  <NtsC>
0

>  <NdssC>
1

>  <NaasC>
0

>  <NaaaC>
0

>  <NssssC>
0

>  <NsNH3>
0

>  <NsNH2>
1

>  <NssNH2>
0

>  <NdNH>
0

>  <NssNH>
0

>  <NaaNH>
0

>  <NtN>
0

>  <NsssNH>
0

>  <NdsN>
0

>  <NaaN>
0

>  <NsssN>
0

>  <NddsN>
0

>  <NaasN>
0

>  <NssssN>
0

>  <NsOH>
1

>  <NdO>
1

>  <NssO>
0

>  <NaaO>
0

>  <NsF>
0

>  <NsSiH3>
0

>  <NssSiH2>
0

>  <NsssSiH>
0

>  <NssssSi>
0

>  <NsPH2>
0

>  <NssPH>
0

>  <NsssP>
0

>  <NdsssP>
0

>  <NsssssP>
0

>  <NsSH>
0

>  <NdS>
0

>  <NssS>
0

>  <NaaS>
0

>  <NdssS>
0

>  <NddssS>
0

>  <NsCl>
0

>  <NsBr>
0

>  <NsI>
0

>  <fragCpx>
8.03

>  <fMF>
0

>  <nHBAcc>
2

>  <nHBDon>
2

>  <Kier1>
9

>  <Kier2>
3.92

>  <Lipinski>
1

>  <GhoseFilter>
0

>  <FilterItLogS>
-0.14

>  <VMcGowan>
112.82

>  <LabuteASA>
54.86

>  <PEOE_VSA1>
10.84

>  <PEOE_VSA2>
4.79

>  <PEOE_VSA3>
0

>  <PEOE_VSA4>
0

>  <PEOE_VSA5>
0

>  <PEOE_VSA6>
13.85

>  <PEOE_VSA7>
12.34

>  <PEOE_VSA8>
0

>  <PEOE_VSA9>
0

>  <PEOE_VSA10>
6.04

>  <PEOE_VSA11>
0

>  <PEOE_VSA12>
0

>  <PEOE_VSA13>
0

>  <SMR_VSA1>
9.9

>  <SMR_VSA2>
0

>  <SMR_VSA3>
0

>  <SMR_VSA4>
11.65

>  <SMR_VSA5>
26.31

>  <SMR_VSA6>
0

>  <SMR_VSA7>
0

>  <SMR_VSA8>
0

>  <SMR_VSA9>
0

>  <SlogP_VSA1>
5.73

>  <SlogP_VSA2>
17.12

>  <SlogP_VSA3>
4.79

>  <SlogP_VSA4>
5.92

>  <SlogP_VSA5>
20.27

>  <SlogP_VSA6>
0

>  <SlogP_VSA7>
0

>  <SlogP_VSA8>
0

>  <SlogP_VSA9>
0

>  <SlogP_VSA10>
0

>  <SlogP_VSA11>
0

>  <EState_VSA1>
12.01

>  <EState_VSA2>
0

>  <EState_VSA3>
12.34

>  <EState_VSA4>
0

>  <EState_VSA5>
0

>  <EState_VSA6>
0

>  <EState_VSA7>
13.85

>  <EState_VSA8>
0

>  <EState_VSA9>
10.84

>  <EState_VSA10>
4.79

>  <VSA_EState1>
0

>  <VSA_EState2>
10.11

>  <VSA_EState3>
8.31

>  <VSA_EState4>
5.22

>  <VSA_EState5>
-0.56

>  <VSA_EState6>
-0.69

>  <VSA_EState7>
0.55

>  <VSA_EState8>
3.89

>  <VSA_EState9>
0

>  <apol>
21.39

>  <bpol>
13.34

>  <nRing>
0

>  <nHRing>
0

>  <naRing>
0

>  <naHRing>
0

>  <nARing 2>
0

>  <nAHRing 2>
0

>  <nFRing>
0

>  <nFHRing>
0

>  <nFaRing>
0

>  <nFaHRing>
0

>  <nFARing 2>
0

>  <nFAHRing 2>
0

>  <nRot>
3

>  <SLogP>
0.44

>  <SMR>
35.07

>  <TopoPSA(NO)>
63.32

>  <TopoPSA>
63.32

>  <JGI1>
0.38

>  <JGI2>
0.11

>  <JGI3>
0.06

>  <JGI4>
0.05

>  <JGI5>
0

>  <Diameter>
5

>  <Radius>
3

>  <TMWC10>
75.98

>  <TSRW10>
36.36

>  <MW>
131.09

>  <AMW>
5.96

>  <WPath>
96

>  <WPol>
8

>  <Zagreb1>
36

>  <Zagreb2>
36

>  <mZagreb2>
2.11

>  <yes>


>  <nAR-cont>
0.336376

>  <nHA-cont>
0.56070381

>  <MWHBN>
0.349361634

>  <MWHBN-cont>
0.672635956

>  <TPSA-cont>
0.557987081

>  <pka_cont>
0.97

>  <yes.1>


>  <BBB_SCORE>
3.507007905

>  <MMFF94 Energy>
28.464

$$$$
Compound 389
Actelion Java MolfileCreator 2.0

  0  0  0  0  0  0              0 V3000
M  V30 BEGIN CTAB
M  V30 COUNTS 49 52 0 0 0
M  V30 BEGIN ATOM
M  V30 1 O 4.344 -3.6995 0.0803 0
M  V30 2 C 3.2462 -3.1509 0.1234 0
M  V30 3 C 2.5608 -2.7821 -1.1374 0
M  V30 4 C 2.5991 -2.729 1.4176 0
M  V30 5 C 1.3209 -2.2609 -1.1291 0
M  V30 6 C 1.0945 -2.9057 1.3103 0
M  V30 7 C 0.4522 -2.1219 0.1287 0
M  V30 8 C 0.7681 -1.6156 -2.3757 0
M  V30 9 C 0.3317 -0.5776 0.3933 0
M  V30 10 C -0.9345 -2.7776 -0.0928 0
M  V30 11 C 0.5968 -0.1155 -2.1265 0
M  V30 12 C -0.2323 0.1818 -0.8627 0
M  V30 13 C -0.4439 -0.2032 1.6837 0
M  V30 14 C -0.2671 1.6803 -0.548 0
M  V30 15 C -0.5853 1.3162 1.8955 0
M  V30 16 C -1.1688 2.0109 0.6585 0
M  V30 17 C -0.7362 2.6582 -1.6225 0
M  V30 18 C -1.0291 3.5471 0.6563 0
M  V30 19 C -2.6523 1.5964 0.4889 0
M  V30 20 C -1.1031 3.9302 -0.8355 0
M  V30 21 O -2.0025 4.2164 1.4341 0
M  V30 22 H 3.1659 -2.8583 -2.0339 0
M  V30 23 H 2.8766 -1.6933 1.6362 0
M  V30 24 H 2.9827 -3.3657 2.2222 0
M  V30 25 H 0.9024 -3.9805 1.1727 0
M  V30 26 H 0.6227 -2.6501 2.2643 0
M  V30 27 H 1.4378 -1.7587 -3.2324 0
M  V30 28 H -0.1861 -2.0739 -2.6557 0
M  V30 29 H 1.3545 -0.1984 0.5476 0
M  V30 30 H -1.5178 -2.7947 0.8345 0
M  V30 31 H -1.5419 -2.2687 -0.8453 0
M  V30 32 H -0.8264 -3.8174 -0.4255 0
M  V30 33 H 0.1182 0.3357 -3.0036 0
M  V30 34 H 1.5869 0.3506 -2.034 0
M  V30 35 H -1.2534 -0.1564 -1.0664 0
M  V30 36 H -1.4379 -0.6614 1.6759 0
M  V30 37 H 0.0743 -0.6045 2.561 0
M  V30 38 H 0.7668 1.9749 -0.3018 0
M  V30 39 H -1.2083 1.5088 2.7773 0
M  V30 40 H 0.4064 1.7276 2.124 0
M  V30 41 H -1.6116 2.2757 -2.159 0
M  V30 42 H 0.0444 2.8599 -2.3628 0
M  V30 43 H -0.0469 3.8385 1.0491 0
M  V30 44 H -3.229 1.8539 1.3851 0
M  V30 45 H -3.1321 2.0977 -0.3575 0
M  V30 46 H -2.7774 0.5218 0.3329 0
M  V30 47 H -2.0956 4.293 -1.1251 0
M  V30 48 H -0.3954 4.7389 -1.0499 0
M  V30 49 H -2.8605 4.1513 0.9826 0
M  V30 END ATOM
M  V30 BEGIN BOND
M  V30 1 2 1 2
M  V30 2 1 2 3
M  V30 3 1 2 4
M  V30 4 2 3 5
M  V30 5 1 4 6
M  V30 6 1 5 7
M  V30 7 1 5 8
M  V30 8 1 7 9
M  V30 9 1 7 10
M  V30 10 1 8 11
M  V30 11 1 9 12
M  V30 12 1 9 13
M  V30 13 1 12 14
M  V30 14 1 13 15
M  V30 15 1 14 16
M  V30 16 1 14 17
M  V30 17 1 16 18
M  V30 18 1 16 19
M  V30 19 1 17 20
M  V30 20 1 18 21
M  V30 21 1 6 7
M  V30 22 1 11 12
M  V30 23 1 15 16
M  V30 24 1 18 20
M  V30 25 1 3 22
M  V30 26 1 4 23
M  V30 27 1 4 24
M  V30 28 1 6 25
M  V30 29 1 6 26
M  V30 30 1 8 27
M  V30 31 1 8 28
M  V30 32 1 9 29
M  V30 33 1 10 30
M  V30 34 1 10 31
M  V30 35 1 10 32
M  V30 36 1 11 33
M  V30 37 1 11 34
M  V30 38 1 12 35
M  V30 39 1 13 36
M  V30 40 1 13 37
M  V30 41 1 14 38
M  V30 42 1 15 39
M  V30 43 1 15 40
M  V30 44 1 17 41
M  V30 45 1 17 42
M  V30 46 1 18 43
M  V30 47 1 19 44
M  V30 48 1 19 45
M  V30 49 1 19 46
M  V30 50 1 20 47
M  V30 51 1 20 48
M  V30 52 1 21 49
M  V30 END BOND
M  V30 END CTAB
M  END
>  <Column 1>
483

>  <level_0>
544

>  <index>
544

>  <Unnamed: 0>
544

>  <NO.>
549

>  <Name>
testosterone

>  <IUPAC_name>
17-hydroxy-10-13-dimethyl-1-2-6-7-8-9-11-12-14-15-16-17-dodecahydrocyclopenta[a]phenanthren-3-one

>  <SMILES>
CC12CCC(=O)C=C1CCC1C2CCC2(C)C(O)CCC12

>  <CID>
5408

>  <logBB>
0

>  <BBB+/BBB->
BBB+

>  <Inchi>
InChI=1S/C19H28O2/c1-18-9-7-13(20)11-12(18)3-4-14-15-5-6-17(21)19(15-2)10-8-16(14)18/h11-14-17-21H-3-10H2-1-2H3

>  <threshold>


>  <reference>
R2|R2|R25|R27|R46|

>  <group>
A

>  <Class>
1

>  <ABC>
17.18

>  <ABCGG>
13.86

>  <nAcid>
0

>  <nBase>
0

>  <nAromAtom>
0

>  <nAromBond>
0

>  <nAtom>
49

>  <nHeavyAtom>
21

>  <nSpiro>
0

>  <nBridgehead>
0

>  <nHetero>
2

>  <nN>
0

>  <nO>
2

>  <nF>
0

>  <BalabanJ>
1.62

>  <BertzCT>
507.7

>  <nBonds>
52

>  <nBondsO>
24

>  <nBondsS>
50

>  <nBondsD>
2

>  <nBondsT>
0

>  <nBondsA>
0

>  <nBondsM>
2

>  <nBondsKS>
50

>  <nBondsKD>
2

>  <RNCG>
0.31

>  <RPCG>
0.17

>  <FCSP3>
0.84

>  <SZ>
26.33

>  <Sm>
24.01

>  <Sv>
28.02

>  <Sse>
48.09

>  <Sp>
31.14

>  <Si>
55.23

>  <MZ>
0.54

>  <Mm>
0.49

>  <Mv>
0.57

>  <Mse>
0.98

>  <Mp>
0.64

>  <Mi>
1.13

>  <NsCH3>
2

>  <NdCH2>
0

>  <NssCH2>
8

>  <NtCH>
0

>  <NdsCH>
1

>  <NaaCH>
0

>  <NsssCH>
4

>  <NddC>
0

>  <NtsC>
0

>  <NdssC>
2

>  <NaasC>
0

>  <NaaaC>
0

>  <NssssC>
2

>  <NsNH3>
0

>  <NsNH2>
0

>  <NssNH2>
0

>  <NdNH>
0

>  <NssNH>
0

>  <NaaNH>
0

>  <NtN>
0

>  <NsssNH>
0

>  <NdsN>
0

>  <NaaN>
0

>  <NsssN>
0

>  <NddsN>
0

>  <NaasN>
0

>  <NssssN>
0

>  <NsOH>
1

>  <NdO>
1

>  <NssO>
0

>  <NaaO>
0

>  <NsF>
0

>  <NsSiH3>
0

>  <NssSiH2>
0

>  <NsssSiH>
0

>  <NssssSi>
0

>  <NsPH2>
0

>  <NssPH>
0

>  <NsssP>
0

>  <NdsssP>
0

>  <NsssssP>
0

>  <NsSH>
0

>  <NdS>
0

>  <NssS>
0

>  <NaaS>
0

>  <NdssS>
0

>  <NddssS>
0

>  <NsCl>
0

>  <NsBr>
0

>  <NsI>
0

>  <fragCpx>
156.02

>  <fMF>
0.35

>  <nHBAcc>
2

>  <nHBDon>
1

>  <Kier1>
14.58

>  <Kier2>
4.75

>  <Lipinski>
1

>  <GhoseFilter>
1

>  <FilterItLogS>
-3.48

>  <VMcGowan>
238.27

>  <LabuteASA>
127.55

>  <PEOE_VSA1>
5.11

>  <PEOE_VSA2>
4.79

>  <PEOE_VSA3>
0

>  <PEOE_VSA4>
0

>  <PEOE_VSA5>
0

>  <PEOE_VSA6>
19.42

>  <PEOE_VSA7>
79.61

>  <PEOE_VSA8>
6.42

>  <PEOE_VSA9>
6.1

>  <PEOE_VSA10>
0

>  <PEOE_VSA11>
5.78

>  <PEOE_VSA12>
0

>  <PEOE_VSA13>
0

>  <SMR_VSA1>
9.9

>  <SMR_VSA2>
0

>  <SMR_VSA3>
0

>  <SMR_VSA4>
28.58

>  <SMR_VSA5>
71.32

>  <SMR_VSA6>
0

>  <SMR_VSA7>
11.65

>  <SMR_VSA8>
0

>  <SMR_VSA9>
0

>  <SlogP_VSA1>
0

>  <SlogP_VSA2>
16.99

>  <SlogP_VSA3>
4.79

>  <SlogP_VSA4>
28.58

>  <SlogP_VSA5>
65.21

>  <SlogP_VSA6>
11.65

>  <SlogP_VSA7>
0

>  <SlogP_VSA8>
0

>  <SlogP_VSA9>
0

>  <SlogP_VSA10>
0

>  <SlogP_VSA11>
0

>  <EState_VSA1>
0

>  <EState_VSA2>
16.93

>  <EState_VSA3>
11.7

>  <EState_VSA4>
37.52

>  <EState_VSA5>
31.26

>  <EState_VSA6>
0

>  <EState_VSA7>
6.08

>  <EState_VSA8>
13.85

>  <EState_VSA9>
0

>  <EState_VSA10>
9.9

>  <VSA_EState1>
0

>  <VSA_EState2>
11.79

>  <VSA_EState3>
10.45

>  <VSA_EState4>
1.89

>  <VSA_EState5>
2.57

>  <VSA_EState6>
0

>  <VSA_EState7>
10.71

>  <VSA_EState8>
4.76

>  <VSA_EState9>
0

>  <apol>
52

>  <bpol>
28.96

>  <nRing>
4

>  <nHRing>
0

>  <naRing>
0

>  <naHRing>
0

>  <nARing 2>
4

>  <nAHRing 2>
0

>  <nFRing>
1

>  <nFHRing>
0

>  <nFaRing>
0

>  <nFaHRing>
0

>  <nFARing 2>
1

>  <nFAHRing 2>
0

>  <nRot>
0

>  <SLogP>
3.88

>  <SMR>
82.72

>  <TopoPSA(NO)>
37.3

>  <TopoPSA>
37.3

>  <JGI1>
0.27

>  <JGI2>
0.13

>  <JGI3>
0.06

>  <JGI4>
0.06

>  <JGI5>
0.03

>  <Diameter>
10

>  <Radius>
5

>  <TMWC10>
122.73

>  <TSRW10>
70.73

>  <MW>
288.21

>  <AMW>
5.88

>  <WPath>
802

>  <WPol>
44

>  <Zagreb1>
126

>  <Zagreb2>
160

>  <mZagreb2>
4.31

>  <yes>


>  <nAR-cont>
0.199399

>  <nHA-cont>
0.994529749

>  <MWHBN>
0.176712281

>  <MWHBN-cont>
0.983356333

>  <TPSA-cont>
0.739622838

>  <pka_cont>
0.97

>  <yes.1>


>  <BBB_SCORE>
4.633208925

>  <MMFF94 Energy>
74.916

$$$$
Compound 390
Actelion Java MolfileCreator 2.0

  0  0  0  0  0  0              0 V3000
M  V30 BEGIN CTAB
M  V30 COUNTS 14 13 0 0 0
M  V30 BEGIN ATOM
M  V30 1 O 1.063 0.1518 1.4429 0
M  V30 2 C -0.0476 0.4588 1.0346 0
M  V30 3 O -0.4266 0.5202 -0.2712 0
M  V30 4 C -1.2022 0.8217 1.9177 0
M  V30 5 C 0.5905 0.1988 -1.2311 0
M  V30 6 C 0.6271 -1.2982 -1.4737 0
M  V30 7 H -1.5327 1.8397 1.6966 0
M  V30 8 H -2.019 0.1108 1.7706 0
M  V30 9 H -0.886 0.7783 2.9639 0
M  V30 10 H 1.5695 0.5787 -0.917 0
M  V30 11 H 0.3283 0.7158 -2.1599 0
M  V30 12 H 1.359 -1.5479 -2.2469 0
M  V30 13 H 0.8878 -1.8384 -0.5581 0
M  V30 14 H -0.357 -1.6608 -1.7881 0
M  V30 END ATOM
M  V30 BEGIN BOND
M  V30 1 2 1 2
M  V30 2 1 2 3
M  V30 3 1 2 4
M  V30 4 1 3 5
M  V30 5 1 5 6
M  V30 6 1 4 7
M  V30 7 1 4 8
M  V30 8 1 4 9
M  V30 9 1 5 10
M  V30 10 1 5 11
M  V30 11 1 6 12
M  V30 12 1 6 13
M  V30 13 1 6 14
M  V30 END BOND
M  V30 END CTAB
M  END
>  <Column 1>
485

>  <level_0>
546

>  <index>
546

>  <Unnamed: 0>
546

>  <NO.>
551

>  <Name>
ethyl acetate

>  <IUPAC_name>
ethyl acetate

>  <SMILES>
CCOC(C)=O

>  <CID>
8857

>  <logBB>
0

>  <BBB+/BBB->
BBB+

>  <Inchi>
InChI=1S/C4H8O2/c1-3-6-4(2)5/h3H2-1-2H3

>  <threshold>


>  <reference>
R2|R2|R8|R21|R27|R27|R43|R46|R47|R40|R25|R41|R3|R38|

>  <group>
A

>  <Class>
1

>  <ABC>
3.75

>  <ABCGG>
4.06

>  <nAcid>
0

>  <nBase>
0

>  <nAromAtom>
0

>  <nAromBond>
0

>  <nAtom>
14

>  <nHeavyAtom>
6

>  <nSpiro>
0

>  <nBridgehead>
0

>  <nHetero>
2

>  <nN>
0

>  <nO>
2

>  <nF>
0

>  <BalabanJ>
2.63

>  <BertzCT>
49.51

>  <nBonds>
13

>  <nBondsO>
5

>  <nBondsS>
12

>  <nBondsD>
1

>  <nBondsT>
0

>  <nBondsA>
0

>  <nBondsM>
1

>  <nBondsKS>
12

>  <nBondsKD>
1

>  <RNCG>
0.62

>  <RPCG>
0.4

>  <FCSP3>
0.75

>  <SZ>
8

>  <Sm>
7.34

>  <Sv>
7.6

>  <Sse>
14.21

>  <Sp>
8.15

>  <Si>
16.08

>  <MZ>
0.57

>  <Mm>
0.52

>  <Mv>
0.54

>  <Mse>
1.02

>  <Mp>
0.58

>  <Mi>
1.15

>  <NsCH3>
2

>  <NdCH2>
0

>  <NssCH2>
1

>  <NtCH>
0

>  <NdsCH>
0

>  <NaaCH>
0

>  <NsssCH>
0

>  <NddC>
0

>  <NtsC>
0

>  <NdssC>
1

>  <NaasC>
0

>  <NaaaC>
0

>  <NssssC>
0

>  <NsNH3>
0

>  <NsNH2>
0

>  <NssNH2>
0

>  <NdNH>
0

>  <NssNH>
0

>  <NaaNH>
0

>  <NtN>
0

>  <NsssNH>
0

>  <NdsN>
0

>  <NaaN>
0

>  <NsssN>
0

>  <NddsN>
0

>  <NaasN>
0

>  <NssssN>
0

>  <NsOH>
0

>  <NdO>
1

>  <NssO>
1

>  <NaaO>
0

>  <NsF>
0

>  <NsSiH3>
0

>  <NssSiH2>
0

>  <NsssSiH>
0

>  <NssssSi>
0

>  <NsPH2>
0

>  <NssPH>
0

>  <NsssP>
0

>  <NdsssP>
0

>  <NsssssP>
0

>  <NsSH>
0

>  <NdS>
0

>  <NssS>
0

>  <NaaS>
0

>  <NdssS>
0

>  <NddssS>
0

>  <NsCl>
0

>  <NsBr>
0

>  <NsI>
0

>  <fragCpx>
5.02

>  <fMF>
0

>  <nHBAcc>
2

>  <nHBDon>
0

>  <Kier1>
6

>  <Kier2>
3.2

>  <Lipinski>
1

>  <GhoseFilter>
0

>  <FilterItLogS>
-0.65

>  <VMcGowan>
74.66

>  <LabuteASA>
37.11

>  <PEOE_VSA1>
4.74

>  <PEOE_VSA2>
4.79

>  <PEOE_VSA3>
0

>  <PEOE_VSA4>
0

>  <PEOE_VSA5>
0

>  <PEOE_VSA6>
0

>  <PEOE_VSA7>
6.92

>  <PEOE_VSA8>
6.92

>  <PEOE_VSA9>
6.61

>  <PEOE_VSA10>
0

>  <PEOE_VSA11>
0

>  <PEOE_VSA12>
0

>  <PEOE_VSA13>
0

>  <SMR_VSA1>
9.53

>  <SMR_VSA2>
0

>  <SMR_VSA3>
0

>  <SMR_VSA4>
0

>  <SMR_VSA5>
13.85

>  <SMR_VSA6>
6.61

>  <SMR_VSA7>
0

>  <SMR_VSA8>
0

>  <SMR_VSA9>
0

>  <SlogP_VSA1>
0

>  <SlogP_VSA2>
12.58

>  <SlogP_VSA3>
9.53

>  <SlogP_VSA4>
0

>  <SlogP_VSA5>
13.85

>  <SlogP_VSA6>
0

>  <SlogP_VSA7>
0

>  <SlogP_VSA8>
0

>  <SlogP_VSA9>
0

>  <SlogP_VSA10>
0

>  <SlogP_VSA11>
0

>  <EState_VSA1>
0

>  <EState_VSA2>
5.97

>  <EState_VSA3>
6.61

>  <EState_VSA4>
0

>  <EState_VSA5>
6.92

>  <EState_VSA6>
6.92

>  <EState_VSA7>
0

>  <EState_VSA8>
4.74

>  <EState_VSA9>
0

>  <EState_VSA10>
4.79

>  <VSA_EState1>
4.4

>  <VSA_EState2>
9.82

>  <VSA_EState3>
0

>  <VSA_EState4>
0

>  <VSA_EState5>
-0.21

>  <VSA_EState6>
0

>  <VSA_EState7>
0

>  <VSA_EState8>
3.65

>  <VSA_EState9>
0

>  <apol>
13.62

>  <bpol>
10.63

>  <nRing>
0

>  <nHRing>
0

>  <naRing>
0

>  <naHRing>
0

>  <nARing 2>
0

>  <nAHRing 2>
0

>  <nFRing>
0

>  <nFHRing>
0

>  <nFaRing>
0

>  <nFaHRing>
0

>  <nFARing 2>
0

>  <nFAHRing 2>
0

>  <nRot>
1

>  <SLogP>
0.57

>  <SMR>
22.31

>  <TopoPSA(NO)>
26.3

>  <TopoPSA>
26.3

>  <JGI1>
0.3

>  <JGI2>
0.09

>  <JGI3>
0.08

>  <JGI4>
0

>  <JGI5>
0

>  <Diameter>
4

>  <Radius>
2

>  <TMWC10>
60.96

>  <TSRW10>
29.44

>  <MW>
88.05

>  <AMW>
6.29

>  <WPath>
32

>  <WPol>
3

>  <Zagreb1>
20

>  <Zagreb2>
18

>  <mZagreb2>
1.58

>  <yes>


>  <nAR-cont>
0.336376

>  <nHA-cont>
0.238778273

>  <MWHBN>
0.213140174

>  <MWHBN-cont>
0.998375846

>  <TPSA-cont>
0.816409669

>  <pka_cont>
0.97

>  <yes.1>


>  <BBB_SCORE>
4.190537379

>  <MMFF94 Energy>
-10.658

$$$$
Compound 391
Actelion Java MolfileCreator 2.0

  0  0  0  0  0  0              0 V3000
M  V30 BEGIN CTAB
M  V30 COUNTS 42 45 0 0 0
M  V30 BEGIN ATOM
M  V30 1 O -4.0937 2.4868 0.2404 0
M  V30 2 C -2.7846 2.1635 0.0337 0
M  V30 3 C -2.2996 0.8869 0.3134 0
M  V30 4 C -1.9488 3.1508 -0.4606 0
M  V30 5 C -0.9479 0.5656 0.0848 0
M  V30 6 C -0.6034 2.864 -0.6693 0
M  V30 7 C -0.0898 1.5855 -0.3886 0
M  V30 8 C -0.3843 -0.8316 0.4146 0
M  V30 9 C 1.385 1.3479 -0.6323 0
M  V30 10 C 0.8974 -1.1258 -0.4125 0
M  V30 11 C 0.0175 -0.8311 1.9137 0
M  V30 12 C -1.3845 -1.9939 0.1599 0
M  V30 13 C 1.925 -0.0129 -0.1362 0
M  V30 14 C 0.6049 -1.3364 -1.9116 0
M  V30 15 C 1.1853 0.1168 2.2179 0
M  V30 16 C -1.6915 -2.205 -1.3236 0
M  V30 17 N 2.3072 -0.0896 1.2958 0
M  V30 18 C -0.418 -2.4484 -2.126 0
M  V30 19 C 3.4332 0.775 1.6375 0
M  V30 20 H -4.5581 1.7005 0.5702 0
M  V30 21 H -2.9787 0.1463 0.7205 0
M  V30 22 H -2.34 4.1408 -0.6752 0
M  V30 23 H 0.0502 3.6462 -1.0491 0
M  V30 24 H 1.5482 1.4059 -1.7171 0
M  V30 25 H 1.9618 2.1728 -0.1998 0
M  V30 26 H 1.3298 -2.0746 -0.0558 0
M  V30 27 H -0.8376 -0.5639 2.548 0
M  V30 28 H 0.3157 -1.846 2.2116 0
M  V30 29 H -2.3195 -1.8593 0.7138 0
M  V30 30 H -0.9538 -2.928 0.5477 0
M  V30 31 H 2.83 -0.2411 -0.7157 0
M  V30 32 H 0.2281 -0.4224 -2.3831 0
M  V30 33 H 1.5335 -1.5961 -2.4337 0
M  V30 34 H 0.8452 1.1593 2.2064 0
M  V30 35 H 1.5165 -0.0839 3.2448 0
M  V30 36 H -2.3615 -3.065 -1.4374 0
M  V30 37 H -2.2232 -1.3365 -1.7289 0
M  V30 38 H -0.6614 -2.5265 -3.1917 0
M  V30 39 H 0.0212 -3.4089 -1.8295 0
M  V30 40 H 3.1762 1.8389 1.6117 0
M  V30 41 H 4.2761 0.6044 0.959 0
M  V30 42 H 3.795 0.543 2.6457 0
M  V30 END ATOM
M  V30 BEGIN BOND
M  V30 1 1 1 2
M  V30 2 2 2 3
M  V30 3 1 2 4
M  V30 4 1 3 5
M  V30 5 2 4 6
M  V30 6 2 5 7
M  V30 7 1 5 8
M  V30 8 1 7 9
M  V30 9 1 8 10
M  V30 10 1 8 11
M  V30 11 1 8 12
M  V30 12 1 9 13
M  V30 13 1 10 14
M  V30 14 1 11 15
M  V30 15 1 12 16
M  V30 16 1 13 17
M  V30 17 1 14 18
M  V30 18 1 17 19
M  V30 19 1 6 7
M  V30 20 1 10 13
M  V30 21 1 15 17
M  V30 22 1 16 18
M  V30 23 1 1 20
M  V30 24 1 3 21
M  V30 25 1 4 22
M  V30 26 1 6 23
M  V30 27 1 9 24
M  V30 28 1 9 25
M  V30 29 1 10 26
M  V30 30 1 11 27
M  V30 31 1 11 28
M  V30 32 1 12 29
M  V30 33 1 12 30
M  V30 34 1 13 31
M  V30 35 1 14 32
M  V30 36 1 14 33
M  V30 37 1 15 34
M  V30 38 1 15 35
M  V30 39 1 16 36
M  V30 40 1 16 37
M  V30 41 1 18 38
M  V30 42 1 18 39
M  V30 43 1 19 40
M  V30 44 1 19 41
M  V30 45 1 19 42
M  V30 END BOND
M  V30 END CTAB
M  END
>  <Column 1>
486

>  <level_0>
547

>  <index>
547

>  <Unnamed: 0>
547

>  <NO.>
552

>  <Name>
dl-morphan

>  <IUPAC_name>
17-methyl-17-azatetracyclo[7.5.3.01-10.02-7]heptadeca-2(7)-3-5-trien-4-ol

>  <SMILES>
CN1CCC23CCCCC2C1Cc1ccc(O)cc13

>  <CID>
3918

>  <logBB>
0

>  <BBB+/BBB->
BBB+

>  <Inchi>
InChI=1S/C17H23NO/c1-18-9-8-17-7-3-2-4-14(17)16(18)10-12-5-6-13(19)11-15(12)17/h5-6-11-14-16-19H-2-4-7-10H2-1H3

>  <threshold>


>  <reference>
R2|R2|R12|R25|R27|R27|R35|R43|R46|R47|R40|

>  <group>
A

>  <Class>
1

>  <ABC>
15.53

>  <ABCGG>
12

>  <nAcid>
0

>  <nBase>
1

>  <nAromAtom>
6

>  <nAromBond>
6

>  <nAtom>
42

>  <nHeavyAtom>
19

>  <nSpiro>
0

>  <nBridgehead>
2

>  <nHetero>
2

>  <nN>
1

>  <nO>
1

>  <nF>
0

>  <BalabanJ>
1.71

>  <BertzCT>
511.98

>  <nBonds>
45

>  <nBondsO>
22

>  <nBondsS>
39

>  <nBondsD>
0

>  <nBondsT>
0

>  <nBondsA>
6

>  <nBondsM>
6

>  <nBondsKS>
42

>  <nBondsKD>
3

>  <RNCG>
0.41

>  <RPCG>
0.24

>  <FCSP3>
0.65

>  <SZ>
23.33

>  <Sm>
21.43

>  <Sv>
24.7

>  <Sse>
41.2

>  <Sp>
27.32

>  <Si>
47.28

>  <MZ>
0.56

>  <Mm>
0.51

>  <Mv>
0.59

>  <Mse>
0.98

>  <Mp>
0.65

>  <Mi>
1.13

>  <NsCH3>
1

>  <NdCH2>
0

>  <NssCH2>
7

>  <NtCH>
0

>  <NdsCH>
0

>  <NaaCH>
3

>  <NsssCH>
2

>  <NddC>
0

>  <NtsC>
0

>  <NdssC>
0

>  <NaasC>
3

>  <NaaaC>
0

>  <NssssC>
1

>  <NsNH3>
0

>  <NsNH2>
0

>  <NssNH2>
0

>  <NdNH>
0

>  <NssNH>
0

>  <NaaNH>
0

>  <NtN>
0

>  <NsssNH>
0

>  <NdsN>
0

>  <NaaN>
0

>  <NsssN>
1

>  <NddsN>
0

>  <NaasN>
0

>  <NssssN>
0

>  <NsOH>
1

>  <NdO>
0

>  <NssO>
0

>  <NaaO>
0

>  <NsF>
0

>  <NsSiH3>
0

>  <NssSiH2>
0

>  <NsssSiH>
0

>  <NssssSi>
0

>  <NsPH2>
0

>  <NssPH>
0

>  <NsssP>
0

>  <NdsssP>
0

>  <NsssssP>
0

>  <NsSH>
0

>  <NdS>
0

>  <NssS>
0

>  <NaaS>
0

>  <NdssS>
0

>  <NddssS>
0

>  <NsCl>
0

>  <NsBr>
0

>  <NsI>
0

>  <fragCpx>
142.02

>  <fMF>
0.4

>  <nHBAcc>
2

>  <nHBDon>
1

>  <Kier1>
12.72

>  <Kier2>
4.5

>  <Lipinski>
1

>  <GhoseFilter>
1

>  <FilterItLogS>
-3.39

>  <VMcGowan>
209.9

>  <LabuteASA>
114.98

>  <PEOE_VSA1>
10.01

>  <PEOE_VSA2>
0

>  <PEOE_VSA3>
0

>  <PEOE_VSA4>
0

>  <PEOE_VSA5>
0

>  <PEOE_VSA6>
18.91

>  <PEOE_VSA7>
68.45

>  <PEOE_VSA8>
11.46

>  <PEOE_VSA9>
0

>  <PEOE_VSA10>
5.75

>  <PEOE_VSA11>
0

>  <PEOE_VSA12>
0

>  <PEOE_VSA13>
0

>  <SMR_VSA1>
5.11

>  <SMR_VSA2>
0

>  <SMR_VSA3>
4.9

>  <SMR_VSA4>
5.92

>  <SMR_VSA5>
49.98

>  <SMR_VSA6>
13.59

>  <SMR_VSA7>
29.33

>  <SMR_VSA8>
0

>  <SMR_VSA9>
5.75

>  <SlogP_VSA1>
0

>  <SlogP_VSA2>
29.64

>  <SlogP_VSA3>
11.84

>  <SlogP_VSA4>
5.92

>  <SlogP_VSA5>
43.23

>  <SlogP_VSA6>
18.2

>  <SlogP_VSA7>
0

>  <SlogP_VSA8>
0

>  <SlogP_VSA9>
0

>  <SlogP_VSA10>
0

>  <SlogP_VSA11>
5.75

>  <EState_VSA1>
0

>  <EState_VSA2>
0

>  <EState_VSA3>
11.16

>  <EState_VSA4>
11.96

>  <EState_VSA5>
56.2

>  <EState_VSA6>
0

>  <EState_VSA7>
6.07

>  <EState_VSA8>
24.08

>  <EState_VSA9>
0

>  <EState_VSA10>
5.11

>  <VSA_EState1>
0

>  <VSA_EState2>
2.59

>  <VSA_EState3>
9.91

>  <VSA_EState4>
3.36

>  <VSA_EState5>
1.27

>  <VSA_EState6>
6.85

>  <VSA_EState7>
7.93

>  <VSA_EState8>
1.22

>  <VSA_EState9>
2.3

>  <apol>
45.63

>  <bpol>
24.78

>  <nRing>
4

>  <nHRing>
1

>  <naRing>
1

>  <naHRing>
0

>  <nARing 2>
3

>  <nAHRing 2>
1

>  <nFRing>
1

>  <nFHRing>
1

>  <nFaRing>
0

>  <nFaHRing>
0

>  <nFARing 2>
1

>  <nFAHRing 2>
1

>  <nRot>
0

>  <SLogP>
3.08

>  <SMR>
76.48

>  <TopoPSA(NO)>
23.47

>  <TopoPSA>
23.47

>  <JGI1>
0.2

>  <JGI2>
0.1

>  <JGI3>
0.05

>  <JGI4>
0.05

>  <JGI5>
0.03

>  <Diameter>
8

>  <Radius>
4

>  <TMWC10>
117.54

>  <TSRW10>
53.84

>  <MW>
257.18

>  <AMW>
6.12

>  <WPath>
578

>  <WPol>
39

>  <Zagreb1>
112

>  <Zagreb2>
141

>  <mZagreb2>
4

>  <yes>


>  <nAR-cont>
0.691115

>  <nHA-cont>
0.998649058

>  <MWHBN>
0.187069359

>  <MWHBN-cont>
0.993632564

>  <TPSA-cont>
0.836164826

>  <pka_cont>
0.97

>  <yes.1>


>  <BBB_SCORE>
5.337542556

>  <MMFF94 Energy>
46.042

$$$$
Compound 392
Actelion Java MolfileCreator 2.0

  0  0  0  0  0  0              0 V3000
M  V30 BEGIN CTAB
M  V30 COUNTS 34 35 0 0 0
M  V30 BEGIN ATOM
M  V30 1 O -0.3922 1.6481 -1.4126 0
M  V30 2 C -0.1748 0.9059 -0.464 0
M  V30 3 N 0.5194 -0.3043 -0.4585 0
M  V30 4 C -0.6917 1.1226 0.9604 0
M  V30 5 N 0.4902 -0.8425 0.8301 0
M  V30 6 C 0.8182 -1.0642 -1.6035 0
M  V30 7 N -1.4584 2.2307 1.3207 0
M  V30 8 C -0.2337 0.0419 1.634 0
M  V30 9 C 1.6295 -1.6258 1.2879 0
M  V30 10 C 1.5115 -0.476 -2.6665 0
M  V30 11 C 0.4143 -2.4013 -1.7065 0
M  V30 12 C -2.3956 2.2294 2.4357 0
M  V30 13 C -1.4902 3.4392 0.4953 0
M  V30 14 C -0.365 -0.2316 3.0994 0
M  V30 15 C 1.8139 -1.2197 -3.8093 0
M  V30 16 C 0.7169 -3.1445 -2.8494 0
M  V30 17 C 1.4193 -2.5539 -3.8987 0
M  V30 18 H 2.45 -0.9649 1.588 0
M  V30 19 H 1.3495 -2.2447 2.1468 0
M  V30 20 H 2.0093 -2.3064 0.5212 0
M  V30 21 H 1.8157 0.5666 -2.6121 0
M  V30 22 H -0.1525 -2.8642 -0.9031 0
M  V30 23 H -3.2604 2.8702 2.228 0
M  V30 24 H -1.9079 2.6054 3.3405 0
M  V30 25 H -2.7931 1.2273 2.6281 0
M  V30 26 H -0.4907 3.695 0.1277 0
M  V30 27 H -1.8367 4.3028 1.0749 0
M  V30 28 H -2.1706 3.3067 -0.3518 0
M  V30 29 H 0.6119 -0.4443 3.5455 0
M  V30 30 H -1.0152 -1.0964 3.2648 0
M  V30 31 H -0.7709 0.6119 3.6592 0
M  V30 32 H 2.3506 -0.7533 -4.6313 0
M  V30 33 H 0.3964 -4.1802 -2.9238 0
M  V30 34 H 1.6504 -3.1297 -4.7911 0
M  V30 END ATOM
M  V30 BEGIN BOND
M  V30 1 2 1 2
M  V30 2 1 2 3
M  V30 3 1 2 4
M  V30 4 1 3 5
M  V30 5 1 3 6
M  V30 6 1 4 7
M  V30 7 2 4 8
M  V30 8 1 5 9
M  V30 9 2 6 10
M  V30 10 1 6 11
M  V30 11 1 7 12
M  V30 12 1 7 13
M  V30 13 1 8 14
M  V30 14 1 10 15
M  V30 15 2 11 16
M  V30 16 2 15 17
M  V30 17 1 5 8
M  V30 18 1 16 17
M  V30 19 1 9 18
M  V30 20 1 9 19
M  V30 21 1 9 20
M  V30 22 1 10 21
M  V30 23 1 11 22
M  V30 24 1 12 23
M  V30 25 1 12 24
M  V30 26 1 12 25
M  V30 27 1 13 26
M  V30 28 1 13 27
M  V30 29 1 13 28
M  V30 30 1 14 29
M  V30 31 1 14 30
M  V30 32 1 14 31
M  V30 33 1 15 32
M  V30 34 1 16 33
M  V30 35 1 17 34
M  V30 END BOND
M  V30 END CTAB
M  END
>  <Column 1>
487

>  <level_0>
550

>  <index>
550

>  <Unnamed: 0>
550

>  <NO.>
555

>  <Name>
aminophenazone

>  <IUPAC_name>
4-(dimethylamino)-1-5-dimethyl-2-phenylpyrazol-3-one

>  <SMILES>
Cc1c(N(C)C)c(=O)n(-c2ccccc2)n1C

>  <CID>
6009

>  <logBB>
0

>  <BBB+/BBB->
BBB+

>  <Inchi>
InChI=1S/C13H17N3O/c1-10-12(14(2)3)13(17)16(15(10)4)11-8-6-5-7-9-11/h5-9H-1-4H3

>  <threshold>


>  <reference>
R2|R2|R3|R5|R8|R11|R12|R21|R25|R27|R27|R35|R36|R38|R39|R40|R41|R43|R44|R44|R46|R47|

>  <group>
A

>  <Class>
1

>  <ABC>
12.99

>  <ABCGG>
12.1

>  <nAcid>
0

>  <nBase>
0

>  <nAromAtom>
11

>  <nAromBond>
11

>  <nAtom>
34

>  <nHeavyAtom>
17

>  <nSpiro>
0

>  <nBridgehead>
0

>  <nHetero>
4

>  <nN>
3

>  <nO>
1

>  <nF>
0

>  <BalabanJ>
2.11

>  <BertzCT>
578.7

>  <nBonds>
35

>  <nBondsO>
18

>  <nBondsS>
23

>  <nBondsD>
1

>  <nBondsT>
0

>  <nBondsA>
11

>  <nBondsM>
12

>  <nBondsKS>
30

>  <nBondsKD>
5

>  <RNCG>
0.26

>  <RPCG>
0.21

>  <FCSP3>
0.31

>  <SZ>
20.67

>  <Sm>
19.26

>  <Sv>
20.59

>  <Sse>
33.87

>  <Sp>
22.24

>  <Si>
38.61

>  <MZ>
0.61

>  <Mm>
0.57

>  <Mv>
0.61

>  <Mse>
1

>  <Mp>
0.65

>  <Mi>
1.14

>  <NsCH3>
4

>  <NdCH2>
0

>  <NssCH2>
0

>  <NtCH>
0

>  <NdsCH>
0

>  <NaaCH>
5

>  <NsssCH>
0

>  <NddC>
0

>  <NtsC>
0

>  <NdssC>
0

>  <NaasC>
3

>  <NaaaC>
0

>  <NssssC>
0

>  <NsNH3>
0

>  <NsNH2>
0

>  <NssNH2>
0

>  <NdNH>
0

>  <NssNH>
0

>  <NaaNH>
0

>  <NtN>
0

>  <NsssNH>
0

>  <NdsN>
0

>  <NaaN>
0

>  <NsssN>
1

>  <NddsN>
0

>  <NaasN>
2

>  <NssssN>
0

>  <NsOH>
0

>  <NdO>
1

>  <NssO>
0

>  <NaaO>
0

>  <NsF>
0

>  <NsSiH3>
0

>  <NssSiH2>
0

>  <NsssSiH>
0

>  <NssssSi>
0

>  <NsPH2>
0

>  <NssPH>
0

>  <NsssP>
0

>  <NdsssP>
0

>  <NsssssP>
0

>  <NsSH>
0

>  <NdS>
0

>  <NssS>
0

>  <NaaS>
0

>  <NdssS>
0

>  <NddssS>
0

>  <NsCl>
0

>  <NsBr>
0

>  <NsI>
0

>  <fragCpx>
52.04

>  <fMF>
0.32

>  <nHBAcc>
4

>  <nHBDon>
0

>  <Kier1>
13.43

>  <Kier2>
5.33

>  <Lipinski>
1

>  <GhoseFilter>
1

>  <FilterItLogS>
-2.14

>  <VMcGowan>
186.62

>  <LabuteASA>
100.69

>  <PEOE_VSA1>
4.9

>  <PEOE_VSA2>
9.48

>  <PEOE_VSA3>
4.68

>  <PEOE_VSA4>
0

>  <PEOE_VSA5>
0

>  <PEOE_VSA6>
18.2

>  <PEOE_VSA7>
19.06

>  <PEOE_VSA8>
21.14

>  <PEOE_VSA9>
11.38

>  <PEOE_VSA10>
5.69

>  <PEOE_VSA11>
0

>  <PEOE_VSA12>
0

>  <PEOE_VSA13>
5.56

>  <SMR_VSA1>
0

>  <SMR_VSA2>
0

>  <SMR_VSA3>
9.36

>  <SMR_VSA4>
7.05

>  <SMR_VSA5>
6.92

>  <SMR_VSA6>
19

>  <SMR_VSA7>
46.38

>  <SMR_VSA8>
0

>  <SMR_VSA9>
5.69

>  <SlogP_VSA1>
10.46

>  <SlogP_VSA2>
23.46

>  <SlogP_VSA3>
7.05

>  <SlogP_VSA4>
6.92

>  <SlogP_VSA5>
5.69

>  <SlogP_VSA6>
35.13

>  <SlogP_VSA7>
0

>  <SlogP_VSA8>
5.69

>  <SlogP_VSA9>
0

>  <SlogP_VSA10>
5.69

>  <SlogP_VSA11>
0

>  <EState_VSA1>
0

>  <EState_VSA2>
5.56

>  <EState_VSA3>
0

>  <EState_VSA4>
17.07

>  <EState_VSA5>
0

>  <EState_VSA6>
4.68

>  <EState_VSA7>
67.98

>  <EState_VSA8>
0

>  <EState_VSA9>
0

>  <EState_VSA10>
4.79

>  <VSA_EState1>
3.57

>  <VSA_EState2>
14.21

>  <VSA_EState3>
0

>  <VSA_EState4>
2.6

>  <VSA_EState5>
0

>  <VSA_EState6>
9.66

>  <VSA_EState7>
0

>  <VSA_EState8>
1.95

>  <VSA_EState9>
5.68

>  <apol>
37.15

>  <bpol>
21.91

>  <nRing>
2

>  <nHRing>
1

>  <naRing>
2

>  <naHRing>
1

>  <nARing 2>
0

>  <nAHRing 2>
0

>  <nFRing>
0

>  <nFHRing>
0

>  <nFaRing>
0

>  <nFaHRing>
0

>  <nFARing 2>
0

>  <nFAHRing 2>
0

>  <nRot>
2

>  <SLogP>
1.55

>  <SMR>
70.07

>  <TopoPSA(NO)>
30.17

>  <TopoPSA>
30.17

>  <JGI1>
0.17

>  <JGI2>
0.09

>  <JGI3>
0.1

>  <JGI4>
0.05

>  <JGI5>
0.03

>  <Diameter>
8

>  <Radius>
4

>  <TMWC10>
107.76

>  <TSRW10>
64.54

>  <MW>
231.14

>  <AMW>
6.8

>  <WPath>
478

>  <WPol>
28

>  <Zagreb1>
88

>  <Zagreb2>
106

>  <mZagreb2>
3.78

>  <yes>


>  <nAR-cont>
0.336376

>  <nHA-cont>
0.976740822

>  <MWHBN>
0.263100962

>  <MWHBN-cont>
0.935115088

>  <TPSA-cont>
0.789394666

>  <pka_cont>
0.97

>  <yes.1>


>  <BBB_SCORE>
4.779578785

>  <MMFF94 Energy>
118.97

$$$$
Compound 393
Actelion Java MolfileCreator 2.0

  0  0  0  0  0  0              0 V3000
M  V30 BEGIN CTAB
M  V30 COUNTS 34 37 0 0 0
M  V30 BEGIN ATOM
M  V30 1 O -0.8033 -3.0554 -1.366 0
M  V30 2 C -0.4409 -2.0527 -0.7464 0
M  V30 3 N 0.7385 -1.4722 -1.1061 0
M  V30 4 C -1.2516 -1.5816 0.3846 0
M  V30 5 C 1.419 -0.3699 -0.5688 0
M  V30 6 C -1.3822 -0.248 0.7565 0
M  V30 7 C -2.0333 -2.5541 1.0383 0
M  V30 8 C 0.7706 0.7517 -0.0247 0
M  V30 9 C 2.8264 -0.3496 -0.708 0
M  V30 10 N -2.2768 0.1027 1.733 0
M  V30 11 N -0.6365 0.7995 0.1615 0
M  V30 12 C -2.9161 -2.1886 2.0435 0
M  V30 13 N 1.4837 1.8602 0.3287 0
M  V30 14 C 3.5299 0.7915 -0.3194 0
M  V30 15 C 3.598 -1.5074 -1.2829 0
M  V30 16 C -3.0057 -0.8507 2.3499 0
M  V30 17 C -1.2335 2.1584 0.2572 0
M  V30 18 C 2.8211 1.8597 0.1832 0
M  V30 19 C -1.238 3.1007 -0.922 0
M  V30 20 C -2.5249 2.5023 -0.445 0
M  V30 21 H 1.1859 -1.9768 -1.8612 0
M  V30 22 H -1.9624 -3.6005 0.7465 0
M  V30 23 H -3.5256 -2.9242 2.5552 0
M  V30 24 H 4.609 0.8559 -0.4128 0
M  V30 25 H 4.6752 -1.3908 -1.121 0
M  V30 26 H 3.3026 -2.4451 -0.8008 0
M  V30 27 H 3.425 -1.5783 -2.3613 0
M  V30 28 H -3.6848 -0.4907 3.1175 0
M  V30 29 H -1.0759 2.6015 1.2386 0
M  V30 30 H 3.3213 2.773 0.4926 0
M  V30 31 H -1.0498 4.148 -0.7199 0
M  V30 32 H -0.8267 2.7463 -1.8591 0
M  V30 33 H -2.9914 1.7409 -1.058 0
M  V30 34 H -3.2237 3.1373 0.0857 0
M  V30 END ATOM
M  V30 BEGIN BOND
M  V30 1 2 1 2
M  V30 2 1 2 3
M  V30 3 1 2 4
M  V30 4 1 3 5
M  V30 5 2 4 6
M  V30 6 1 4 7
M  V30 7 2 5 8
M  V30 8 1 5 9
M  V30 9 1 6 10
M  V30 10 1 6 11
M  V30 11 2 7 12
M  V30 12 1 8 13
M  V30 13 2 9 14
M  V30 14 1 9 15
M  V30 15 2 10 16
M  V30 16 1 11 17
M  V30 17 2 13 18
M  V30 18 1 17 19
M  V30 19 1 17 20
M  V30 20 1 8 11
M  V30 21 1 12 16
M  V30 22 1 14 18
M  V30 23 1 19 20
M  V30 24 1 3 21
M  V30 25 1 7 22
M  V30 26 1 12 23
M  V30 27 1 14 24
M  V30 28 1 15 25
M  V30 29 1 15 26
M  V30 30 1 15 27
M  V30 31 1 16 28
M  V30 32 1 17 29
M  V30 33 1 18 30
M  V30 34 1 19 31
M  V30 35 1 19 32
M  V30 36 1 20 33
M  V30 37 1 20 34
M  V30 END BOND
M  V30 END CTAB
M  END
>  <Column 1>
488

>  <level_0>
551

>  <index>
551

>  <Unnamed: 0>
551

>  <NO.>
556

>  <Name>
129618-40-2

>  <IUPAC_name>
2-cyclopropyl-7-methyl-2-4-9-15-tetrazatricyclo[9.4.0.03-8]pentadeca-1(11)-3-5-7-12-14-hexaen-10-one

>  <SMILES>
Cc1ccnc2c1NC(=O)c1cccnc1N2C1CC1

>  <CID>
4463

>  <logBB>
0

>  <BBB+/BBB->
BBB+

>  <Inchi>
InChI=1S/C15H14N4O/c1-9-6-8-17-14-12(9)18-15(20)11-3-2-7-16-13(11)19(14)10-4-5-10/h2-3-6-8-10H-4-5H2-1H3-(H-18-20)

>  <threshold>


>  <reference>
R2|R2|R3|R4|R5|R8|R11|R12|R17|R21|R25|R27|R27|R35|R36|R38|R40|R41|R43|R47|R48|R49|

>  <group>
A

>  <Class>
1

>  <ABC>
16.2

>  <ABCGG>
13.3

>  <nAcid>
0

>  <nBase>
0

>  <nAromAtom>
12

>  <nAromBond>
12

>  <nAtom>
34

>  <nHeavyAtom>
20

>  <nSpiro>
0

>  <nBridgehead>
0

>  <nHetero>
5

>  <nN>
4

>  <nO>
1

>  <nF>
0

>  <BalabanJ>
1.67

>  <BertzCT>
708.77

>  <nBonds>
37

>  <nBondsO>
23

>  <nBondsS>
24

>  <nBondsD>
1

>  <nBondsT>
0

>  <nBondsA>
12

>  <nBondsM>
13

>  <nBondsKS>
30

>  <nBondsKD>
7

>  <RNCG>
0.2

>  <RPCG>
0.16

>  <FCSP3>
0.27

>  <SZ>
23.33

>  <Sm>
22.17

>  <Sv>
22.54

>  <Sse>
34.2

>  <Sp>
23.7

>  <Si>
38.28

>  <MZ>
0.69

>  <Mm>
0.65

>  <Mv>
0.66

>  <Mse>
1.01

>  <Mp>
0.7

>  <Mi>
1.13

>  <NsCH3>
1

>  <NdCH2>
0

>  <NssCH2>
2

>  <NtCH>
0

>  <NdsCH>
0

>  <NaaCH>
5

>  <NsssCH>
1

>  <NddC>
0

>  <NtsC>
0

>  <NdssC>
1

>  <NaasC>
5

>  <NaaaC>
0

>  <NssssC>
0

>  <NsNH3>
0

>  <NsNH2>
0

>  <NssNH2>
0

>  <NdNH>
0

>  <NssNH>
1

>  <NaaNH>
0

>  <NtN>
0

>  <NsssNH>
0

>  <NdsN>
0

>  <NaaN>
2

>  <NsssN>
1

>  <NddsN>
0

>  <NaasN>
0

>  <NssssN>
0

>  <NsOH>
0

>  <NdO>
1

>  <NssO>
0

>  <NaaO>
0

>  <NsF>
0

>  <NsSiH3>
0

>  <NssSiH2>
0

>  <NsssSiH>
0

>  <NssssSi>
0

>  <NsPH2>
0

>  <NssPH>
0

>  <NsssP>
0

>  <NdsssP>
0

>  <NsssssP>
0

>  <NsSH>
0

>  <NdS>
0

>  <NssS>
0

>  <NaaS>
0

>  <NdssS>
0

>  <NddssS>
0

>  <NsCl>
0

>  <NsBr>
0

>  <NsI>
0

>  <fragCpx>
149.05

>  <fMF>
0.53

>  <nHBAcc>
4

>  <nHBDon>
1

>  <Kier1>
13.65

>  <Kier2>
5.33

>  <Lipinski>
1

>  <GhoseFilter>
1

>  <FilterItLogS>
-3.95

>  <VMcGowan>
194.46

>  <LabuteASA>
116.21

>  <PEOE_VSA1>
10.22

>  <PEOE_VSA2>
4.79

>  <PEOE_VSA3>
9.97

>  <PEOE_VSA4>
0

>  <PEOE_VSA5>
0

>  <PEOE_VSA6>
0

>  <PEOE_VSA7>
43.53

>  <PEOE_VSA8>
18.44

>  <PEOE_VSA9>
11.25

>  <PEOE_VSA10>
5.82

>  <PEOE_VSA11>
5.82

>  <PEOE_VSA12>
0

>  <PEOE_VSA13>
5.91

>  <SMR_VSA1>
4.79

>  <SMR_VSA2>
0

>  <SMR_VSA3>
9.97

>  <SMR_VSA4>
0

>  <SMR_VSA5>
25.81

>  <SMR_VSA6>
10.22

>  <SMR_VSA7>
41.72

>  <SMR_VSA8>
0

>  <SMR_VSA9>
0

>  <SlogP_VSA1>
10.22

>  <SlogP_VSA2>
21.92

>  <SlogP_VSA3>
0

>  <SlogP_VSA4>
6.92

>  <SlogP_VSA5>
28.76

>  <SlogP_VSA6>
30.59

>  <SlogP_VSA7>
0

>  <SlogP_VSA8>
0

>  <SlogP_VSA9>
0

>  <SlogP_VSA10>
17.32

>  <SlogP_VSA11>
0

>  <EState_VSA1>
0

>  <EState_VSA2>
5.91

>  <EState_VSA3>
17.42

>  <EState_VSA4>
29.91

>  <EState_VSA5>
0

>  <EState_VSA6>
18.46

>  <EState_VSA7>
19.06

>  <EState_VSA8>
20.18

>  <EState_VSA9>
0

>  <EState_VSA10>
4.79

>  <VSA_EState1>
0

>  <VSA_EState2>
23.42

>  <VSA_EState3>
2.98

>  <VSA_EState4>
2.42

>  <VSA_EState5>
1.4

>  <VSA_EState6>
5.91

>  <VSA_EState7>
5.73

>  <VSA_EState8>
1.98

>  <VSA_EState9>
0

>  <apol>
39.59

>  <bpol>
19.47

>  <nRing>
4

>  <nHRing>
3

>  <naRing>
2

>  <naHRing>
2

>  <nARing 2>
2

>  <nAHRing 2>
1

>  <nFRing>
1

>  <nFHRing>
1

>  <nFaRing>
0

>  <nFaHRing>
0

>  <nFARing 2>
1

>  <nFAHRing 2>
1

>  <nRot>
1

>  <SLogP>
2.65

>  <SMR>
76.33

>  <TopoPSA(NO)>
58.12

>  <TopoPSA>
58.12

>  <JGI1>
0.13

>  <JGI2>
0.07

>  <JGI3>
0.04

>  <JGI4>
0.04

>  <JGI5>
0.02

>  <Diameter>
7

>  <Radius>
4

>  <TMWC10>
118.8

>  <TSRW10>
73.06

>  <MW>
266.12

>  <AMW>
7.83

>  <WPath>
676

>  <WPol>
39

>  <Zagreb1>
114

>  <Zagreb2>
141

>  <mZagreb2>
4.28

>  <yes>


>  <nAR-cont>
1

>  <nHA-cont>
0.999629945

>  <MWHBN>
0.306500542

>  <MWHBN-cont>
0.820892073

>  <TPSA-cont>
0.59428631

>  <pka_cont>
0.97

>  <yes.1>


>  <BBB_SCORE>
4.904540674

>  <MMFF94 Energy>
63.299

$$$$
Compound 394
Actelion Java MolfileCreator 2.0

  0  0  0  0  0  0              0 V3000
M  V30 BEGIN CTAB
M  V30 COUNTS 33 35 0 0 0
M  V30 BEGIN ATOM
M  V30 1 O -3.2862 1.6821 -1.1212 0
M  V30 2 C -3.1544 1.6502 0.2371 0
M  V30 3 C -4.2913 2.545 -1.4162 0
M  V30 4 C -2.1286 0.7724 0.8032 0
M  V30 5 C -4.098 2.4904 0.8023 0
M  V30 6 C -4.8257 3.0701 -0.2647 0
M  V30 7 N -2.2851 0.6179 2.1435 0
M  V30 8 C -1.1094 0.1599 0.093 0
M  V30 9 C -1.4209 -0.1682 2.7775 0
M  V30 10 C -0.9082 0.3271 -1.3117 0
M  V30 11 C -0.2583 -0.6384 0.8461 0
M  V30 12 N -0.4156 -0.8073 2.1844 0
M  V30 13 N -1.5732 -0.3336 4.1195 0
M  V30 14 N -0.7057 0.4267 -2.4509 0
M  V30 15 C 0.9165 -1.3655 0.2239 0
M  V30 16 O 1.8587 -0.3926 -0.2282 0
M  V30 17 C 2.9311 -0.9581 -0.8867 0
M  V30 18 N 3.0444 -2.3017 -0.9545 0
M  V30 19 C 3.8463 -0.0771 -1.4407 0
M  V30 20 C 4.1219 -2.7828 -1.6128 0
M  V30 21 C 4.9456 -0.6033 -2.1115 0
M  V30 22 C 5.0891 -1.9833 -2.2014 0
M  V30 23 H -4.5024 2.6733 -2.4692 0
M  V30 24 H -4.2352 2.6571 1.8622 0
M  V30 25 H -5.6395 3.7789 -0.2022 0
M  V30 26 H -2.3282 0.1442 4.5787 0
M  V30 27 H -0.9171 -0.9234 4.6012 0
M  V30 28 H 1.3789 -2.0094 0.9835 0
M  V30 29 H 0.5491 -1.9901 -0.601 0
M  V30 30 H 3.7025 0.9939 -1.3554 0
M  V30 31 H 4.1912 -3.8661 -1.6574 0
M  V30 32 H 5.6808 0.0577 -2.5613 0
M  V30 33 H 5.9332 -2.4257 -2.7187 0
M  V30 END ATOM
M  V30 BEGIN BOND
M  V30 1 1 1 2
M  V30 2 1 1 3
M  V30 3 1 2 4
M  V30 4 2 2 5
M  V30 5 2 3 6
M  V30 6 2 4 7
M  V30 7 1 4 8
M  V30 8 1 7 9
M  V30 9 1 8 10
M  V30 10 2 8 11
M  V30 11 2 9 12
M  V30 12 1 9 13
M  V30 13 3 10 14
M  V30 14 1 11 15
M  V30 15 1 15 16
M  V30 16 1 16 17
M  V30 17 2 17 18
M  V30 18 1 17 19
M  V30 19 1 18 20
M  V30 20 2 19 21
M  V30 21 2 20 22
M  V30 22 1 5 6
M  V30 23 1 11 12
M  V30 24 1 21 22
M  V30 25 1 3 23
M  V30 26 1 5 24
M  V30 27 1 6 25
M  V30 28 1 13 26
M  V30 29 1 13 27
M  V30 30 1 15 28
M  V30 31 1 15 29
M  V30 32 1 19 30
M  V30 33 1 20 31
M  V30 34 1 21 32
M  V30 35 1 22 33
M  V30 END BOND
M  V30 END CTAB
M  END
>  <Column 1>
489

>  <level_0>
552

>  <index>
552

>  <Unnamed: 0>
552

>  <NO.>
557

>  <Name>


>  <IUPAC_name>


>  <SMILES>
N#Cc1c(COc2ccccn2)nc(N)nc1-c1ccco1

>  <CID>


>  <logBB>
0

>  <BBB+/BBB->
BBB+

>  <Inchi>
InChI=1S/C15H11N5O2/c16-8-10-11(9-22-13-5-1-2-6-18-13)19-15(17)20-14(10)12-4-3-7-21-12/h1-7H-9H2-(H2-17-19-20)

>  <threshold>


>  <reference>
R47|

>  <group>
A

>  <Class>
1

>  <ABC>
16.96

>  <ABCGG>
14.25

>  <nAcid>
0

>  <nBase>
0

>  <nAromAtom>
17

>  <nAromBond>
17

>  <nAtom>
33

>  <nHeavyAtom>
22

>  <nSpiro>
0

>  <nBridgehead>
0

>  <nHetero>
7

>  <nN>
5

>  <nO>
2

>  <nF>
0

>  <BalabanJ>
1.57

>  <BertzCT>
809.95

>  <nBonds>
35

>  <nBondsO>
24

>  <nBondsS>
17

>  <nBondsD>
0

>  <nBondsT>
1

>  <nBondsA>
17

>  <nBondsM>
18

>  <nBondsKS>
26

>  <nBondsKD>
8

>  <RNCG>
0.21

>  <RPCG>
0.1

>  <FCSP3>
0.07

>  <SZ>
25.33

>  <Sm>
24.42

>  <Sv>
23.2

>  <Sse>
33.86

>  <Sp>
23.65

>  <Si>
37.16

>  <MZ>
0.77

>  <Mm>
0.74

>  <Mv>
0.7

>  <Mse>
1.03

>  <Mp>
0.72

>  <Mi>
1.13

>  <NsCH3>
0

>  <NdCH2>
0

>  <NssCH2>
1

>  <NtCH>
0

>  <NdsCH>
0

>  <NaaCH>
7

>  <NsssCH>
0

>  <NddC>
0

>  <NtsC>
1

>  <NdssC>
0

>  <NaasC>
6

>  <NaaaC>
0

>  <NssssC>
0

>  <NsNH3>
0

>  <NsNH2>
1

>  <NssNH2>
0

>  <NdNH>
0

>  <NssNH>
0

>  <NaaNH>
0

>  <NtN>
1

>  <NsssNH>
0

>  <NdsN>
0

>  <NaaN>
3

>  <NsssN>
0

>  <NddsN>
0

>  <NaasN>
0

>  <NssssN>
0

>  <NsOH>
0

>  <NdO>
0

>  <NssO>
1

>  <NaaO>
1

>  <NsF>
0

>  <NsSiH3>
0

>  <NssSiH2>
0

>  <NsssSiH>
0

>  <NssssSi>
0

>  <NsPH2>
0

>  <NssPH>
0

>  <NsssP>
0

>  <NdsssP>
0

>  <NsssssP>
0

>  <NsSH>
0

>  <NdS>
0

>  <NssS>
0

>  <NaaS>
0

>  <NdssS>
0

>  <NddssS>
0

>  <NsCl>
0

>  <NsBr>
0

>  <NsI>
0

>  <fragCpx>
114.07

>  <fMF>
0.58

>  <nHBAcc>
7

>  <nHBDon>
1

>  <Kier1>
16.84

>  <Kier2>
8.2

>  <Lipinski>
1

>  <GhoseFilter>
1

>  <FilterItLogS>
-4.33

>  <VMcGowan>
208.27

>  <LabuteASA>
125.57

>  <PEOE_VSA1>
14.89

>  <PEOE_VSA2>
0

>  <PEOE_VSA3>
14.95

>  <PEOE_VSA4>
5.26

>  <PEOE_VSA5>
0

>  <PEOE_VSA6>
6.07

>  <PEOE_VSA7>
18.2

>  <PEOE_VSA8>
12.26

>  <PEOE_VSA9>
6.26

>  <PEOE_VSA10>
29.63

>  <PEOE_VSA11>
5.76

>  <PEOE_VSA12>
11.83

>  <PEOE_VSA13>
0

>  <SMR_VSA1>
9.15

>  <SMR_VSA2>
5.26

>  <SMR_VSA3>
14.95

>  <SMR_VSA4>
0

>  <SMR_VSA5>
6.61

>  <SMR_VSA6>
5.73

>  <SMR_VSA7>
54.05

>  <SMR_VSA8>
0

>  <SMR_VSA9>
23.4

>  <SlogP_VSA1>
10.47

>  <SlogP_VSA2>
14.95

>  <SlogP_VSA3>
6.61

>  <SlogP_VSA4>
11.33

>  <SlogP_VSA5>
11.26

>  <SlogP_VSA6>
47.21

>  <SlogP_VSA7>
0

>  <SlogP_VSA8>
11.45

>  <SlogP_VSA9>
0

>  <SlogP_VSA10>
5.95

>  <SlogP_VSA11>
5.88

>  <EState_VSA1>
0

>  <EState_VSA2>
18.12

>  <EState_VSA3>
23.03

>  <EState_VSA4>
0

>  <EState_VSA5>
6.26

>  <EState_VSA6>
36.53

>  <EState_VSA7>
0

>  <EState_VSA8>
21.02

>  <EState_VSA9>
14.89

>  <EState_VSA10>
5.26

>  <VSA_EState1>
10.81

>  <VSA_EState2>
12.21

>  <VSA_EState3>
9.4

>  <VSA_EState4>
6.71

>  <VSA_EState5>
0.93

>  <VSA_EState6>
10.78

>  <VSA_EState7>
3.11

>  <VSA_EState8>
0.06

>  <VSA_EState9>
0

>  <apol>
39.49

>  <bpol>
17.93

>  <nRing>
3

>  <nHRing>
3

>  <naRing>
3

>  <naHRing>
3

>  <nARing 2>
0

>  <nAHRing 2>
0

>  <nFRing>
0

>  <nFHRing>
0

>  <nFaRing>
0

>  <nFaHRing>
0

>  <nFARing 2>
0

>  <nFAHRing 2>
0

>  <nRot>
4

>  <SLogP>
2.16

>  <SMR>
77.43

>  <TopoPSA(NO)>
110.85

>  <TopoPSA>
110.85

>  <JGI1>
0.15

>  <JGI2>
0.06

>  <JGI3>
0.04

>  <JGI4>
0.04

>  <JGI5>
0.02

>  <Diameter>
11

>  <Radius>
6

>  <TMWC10>
119.49

>  <TSRW10>
68.99

>  <MW>
293.09

>  <AMW>
8.88

>  <WPath>
1077

>  <WPol>
31

>  <Zagreb1>
112

>  <Zagreb2>
130

>  <mZagreb2>
5

>  <yes>


>  <nAR-cont>
0.336376

>  <nHA-cont>
0.983774276

>  <MWHBN>
0.467293227

>  <MWHBN-cont>
0

>  <TPSA-cont>
0.226198166

>  <pka_cont>
0.97

>  <yes.1>


>  <BBB_SCORE>
2.257546608

>  <MMFF94 Energy>
-84.23

$$$$
Compound 395
Actelion Java MolfileCreator 2.0

  0  0  0  0  0  0              0 V3000
M  V30 BEGIN CTAB
M  V30 COUNTS 41 43 0 0 0
M  V30 BEGIN ATOM
M  V30 1 O -4.0762 1.597 1.597 0
M  V30 2 C -3.277 1.0823 0.8158 0
M  V30 3 N -3.6351 0.0832 -0.0572 0
M  V30 4 C -1.8569 1.5032 0.7794 0
M  V30 5 C -2.6842 -0.5141 -0.8297 0
M  V30 6 C -5.0193 -0.3816 -0.0978 0
M  V30 7 C -1.493 2.6289 1.5649 0
M  V30 8 C -0.9972 0.8386 -0.0299 0
M  V30 9 N -1.4414 -0.1803 -0.8487 0
M  V30 10 C -5.2802 -1.4643 0.9509 0
M  V30 11 N -1.1805 3.5429 2.2115 0
M  V30 12 N 0.3696 1.1673 -0.117 0
M  V30 13 O -4.579 -2.6537 0.5945 0
M  V30 14 C 1.049 1.1582 -1.4279 0
M  V30 15 C 1.2765 1.1708 1.0478 0
M  V30 16 C 1.7032 -0.1893 -1.7509 0
M  V30 17 C 1.9787 -0.181 1.2319 0
M  V30 18 C 3.046 -0.3739 -1.0767 0
M  V30 19 C 3.1751 -0.3683 0.3251 0
M  V30 20 C 4.1887 -0.5727 -1.8703 0
M  V30 21 C 4.4445 -0.5592 0.8975 0
M  V30 22 C 5.4421 -0.7552 -1.2875 0
M  V30 23 C 5.57 -0.7479 0.0965 0
M  V30 24 H -3.0486 -1.332 -1.472 0
M  V30 25 H -5.2216 -0.7809 -1.0984 0
M  V30 26 H -5.6874 0.4681 0.0799 0
M  V30 27 H -4.9501 -1.1484 1.9456 0
M  V30 28 H -6.3482 -1.7003 0.987 0
M  V30 29 H -4.7338 -3.2993 1.3072 0
M  V30 30 H 1.7889 1.9683 -1.4613 0
M  V30 31 H 0.3158 1.3936 -2.2104 0
M  V30 32 H 0.7172 1.3684 1.9671 0
M  V30 33 H 2.0051 1.9851 0.9489 0
M  V30 34 H 1.056 -1.0336 -1.487 0
M  V30 35 H 1.8406 -0.2403 -2.8386 0
M  V30 36 H 2.3111 -0.245 2.2761 0
M  V30 37 H 1.2814 -1.0153 1.0851 0
M  V30 38 H 4.1096 -0.588 -2.9553 0
M  V30 39 H 4.5666 -0.5638 1.9786 0
M  V30 40 H 6.3164 -0.9064 -1.9145 0
M  V30 41 H 6.5448 -0.8933 0.5541 0
M  V30 END ATOM
M  V30 BEGIN BOND
M  V30 1 2 1 2
M  V30 2 1 2 3
M  V30 3 1 2 4
M  V30 4 1 3 5
M  V30 5 1 3 6
M  V30 6 1 4 7
M  V30 7 2 4 8
M  V30 8 2 5 9
M  V30 9 1 6 10
M  V30 10 3 7 11
M  V30 11 1 8 12
M  V30 12 1 10 13
M  V30 13 1 12 14
M  V30 14 1 12 15
M  V30 15 1 14 16
M  V30 16 1 15 17
M  V30 17 1 16 18
M  V30 18 1 17 19
M  V30 19 1 18 20
M  V30 20 1 19 21
M  V30 21 2 20 22
M  V30 22 2 21 23
M  V30 23 1 8 9
M  V30 24 2 18 19
M  V30 25 1 22 23
M  V30 26 1 5 24
M  V30 27 1 6 25
M  V30 28 1 6 26
M  V30 29 1 10 27
M  V30 30 1 10 28
M  V30 31 1 13 29
M  V30 32 1 14 30
M  V30 33 1 14 31
M  V30 34 1 15 32
M  V30 35 1 15 33
M  V30 36 1 16 34
M  V30 37 1 16 35
M  V30 38 1 17 36
M  V30 39 1 17 37
M  V30 40 1 20 38
M  V30 41 1 21 39
M  V30 42 1 22 40
M  V30 43 1 23 41
M  V30 END BOND
M  V30 END CTAB
M  END
>  <Column 1>
490

>  <level_0>
553

>  <index>
553

>  <Unnamed: 0>
553

>  <NO.>
558

>  <Name>
schembl6949318

>  <IUPAC_name>
1-(2-hydroxyethyl)-6-oxo-4-(1-2-4-5-tetrahydro-3-benzazepin-3-yl)pyrimidine-5-carbonitrile

>  <SMILES>
N#Cc1c(N2CCc3ccccc3CC2)ncn(CCO)c1=O

>  <CID>
9796717

>  <logBB>
0

>  <BBB+/BBB->
BBB+

>  <Inchi>
InChI=1S/C17H18N4O2/c18-11-15-16(19-12-21(9-10-22)17(15)23)20-7-5-13-3-1-2-4-14(13)6-8-20/h1-4-12-22H-5-10H2

>  <threshold>


>  <reference>
R47|

>  <group>
A

>  <Class>
1

>  <ABC>
17.58

>  <ABCGG>
14.15

>  <nAcid>
0

>  <nBase>
0

>  <nAromAtom>
12

>  <nAromBond>
12

>  <nAtom>
41

>  <nHeavyAtom>
23

>  <nSpiro>
0

>  <nBridgehead>
0

>  <nHetero>
6

>  <nN>
4

>  <nO>
2

>  <nF>
0

>  <BalabanJ>
1.63

>  <BertzCT>
779.97

>  <nBonds>
43

>  <nBondsO>
25

>  <nBondsS>
29

>  <nBondsD>
1

>  <nBondsT>
1

>  <nBondsA>
12

>  <nBondsM>
14

>  <nBondsKS>
36

>  <nBondsKD>
6

>  <RNCG>
0.19

>  <RPCG>
0.13

>  <FCSP3>
0.35

>  <SZ>
27.33

>  <Sm>
25.84

>  <Sv>
26.34

>  <Sse>
41.3

>  <Sp>
27.78

>  <Si>
46.32

>  <MZ>
0.67

>  <Mm>
0.63

>  <Mv>
0.64

>  <Mse>
1.01

>  <Mp>
0.68

>  <Mi>
1.13

>  <NsCH3>
0

>  <NdCH2>
0

>  <NssCH2>
6

>  <NtCH>
0

>  <NdsCH>
0

>  <NaaCH>
5

>  <NsssCH>
0

>  <NddC>
0

>  <NtsC>
1

>  <NdssC>
0

>  <NaasC>
4

>  <NaaaC>
0

>  <NssssC>
0

>  <NsNH3>
0

>  <NsNH2>
0

>  <NssNH2>
0

>  <NdNH>
0

>  <NssNH>
0

>  <NaaNH>
0

>  <NtN>
1

>  <NsssNH>
0

>  <NdsN>
0

>  <NaaN>
1

>  <NsssN>
1

>  <NddsN>
0

>  <NaasN>
1

>  <NssssN>
0

>  <NsOH>
1

>  <NdO>
1

>  <NssO>
0

>  <NaaO>
0

>  <NsF>
0

>  <NsSiH3>
0

>  <NssSiH2>
0

>  <NsssSiH>
0

>  <NssssSi>
0

>  <NsPH2>
0

>  <NssPH>
0

>  <NsssP>
0

>  <NdsssP>
0

>  <NsssssP>
0

>  <NsSH>
0

>  <NdS>
0

>  <NssS>
0

>  <NaaS>
0

>  <NdssS>
0

>  <NddssS>
0

>  <NsCl>
0

>  <NsBr>
0

>  <NsI>
0

>  <fragCpx>
119.06

>  <fMF>
0.41

>  <nHBAcc>
6

>  <nHBDon>
1

>  <Kier1>
17.81

>  <Kier2>
8.39

>  <Lipinski>
1

>  <GhoseFilter>
1

>  <FilterItLogS>
-3.25

>  <VMcGowan>
235.07

>  <LabuteASA>
133.79

>  <PEOE_VSA1>
10.01

>  <PEOE_VSA2>
9.36

>  <PEOE_VSA3>
4.98

>  <PEOE_VSA4>
5.26

>  <PEOE_VSA5>
0

>  <PEOE_VSA6>
24.27

>  <PEOE_VSA7>
23.97

>  <PEOE_VSA8>
13.09

>  <PEOE_VSA9>
13.15

>  <PEOE_VSA10>
12.4

>  <PEOE_VSA11>
11.38

>  <PEOE_VSA12>
0

>  <PEOE_VSA13>
5.56

>  <SMR_VSA1>
5.11

>  <SMR_VSA2>
5.26

>  <SMR_VSA3>
9.55

>  <SMR_VSA4>
0

>  <SMR_VSA5>
19.39

>  <SMR_VSA6>
24.6

>  <SMR_VSA7>
57.64

>  <SMR_VSA8>
0

>  <SMR_VSA9>
6.07

>  <SlogP_VSA1>
10.46

>  <SlogP_VSA2>
34.35

>  <SlogP_VSA3>
19.39

>  <SlogP_VSA4>
11.33

>  <SlogP_VSA5>
16.69

>  <SlogP_VSA6>
35.39

>  <SlogP_VSA7>
0

>  <SlogP_VSA8>
0

>  <SlogP_VSA9>
0

>  <SlogP_VSA10>
5.82

>  <SlogP_VSA11>
0

>  <EState_VSA1>
5.56

>  <EState_VSA2>
18.72

>  <EState_VSA3>
5.82

>  <EState_VSA4>
25.93

>  <EState_VSA5>
22.02

>  <EState_VSA6>
0

>  <EState_VSA7>
23.1

>  <EState_VSA8>
17.12

>  <EState_VSA9>
5.11

>  <EState_VSA10>
10.06

>  <VSA_EState1>
1.27

>  <VSA_EState2>
18.64

>  <VSA_EState3>
18.36

>  <VSA_EState4>
2.27

>  <VSA_EState5>
0.44

>  <VSA_EState6>
10.29

>  <VSA_EState7>
3.14

>  <VSA_EState8>
1.43

>  <VSA_EState9>
0

>  <apol>
46.4

>  <bpol>
24.06

>  <nRing>
3

>  <nHRing>
2

>  <naRing>
2

>  <naHRing>
1

>  <nARing 2>
1

>  <nAHRing 2>
1

>  <nFRing>
1

>  <nFHRing>
1

>  <nFaRing>
0

>  <nFaHRing>
0

>  <nFARing 2>
1

>  <nFAHRing 2>
1

>  <nRot>
3

>  <SLogP>
0.71

>  <SMR>
86.36

>  <TopoPSA(NO)>
82.15

>  <TopoPSA>
82.15

>  <JGI1>
0.14

>  <JGI2>
0.09

>  <JGI3>
0.04

>  <JGI4>
0.04

>  <JGI5>
0.03

>  <Diameter>
12

>  <Radius>
6

>  <TMWC10>
122.47

>  <TSRW10>
65.19

>  <MW>
310.14

>  <AMW>
7.56

>  <WPath>
1184

>  <WPol>
41

>  <Zagreb1>
118

>  <Zagreb2>
140

>  <mZagreb2>
5.31

>  <yes>


>  <nAR-cont>
0.816016

>  <nHA-cont>
0.967789328

>  <MWHBN>
0.39748354

>  <MWHBN-cont>
0.485969703

>  <TPSA-cont>
0.426541988

>  <pka_cont>
0.97

>  <yes.1>


>  <BBB_SCORE>
3.850843859

>  <MMFF94 Energy>
3.3613

$$$$
Compound 396
Actelion Java MolfileCreator 2.0

  0  0  0  0  0  0              0 V3000
M  V30 BEGIN CTAB
M  V30 COUNTS 29 30 0 0 0
M  V30 BEGIN ATOM
M  V30 1 N 0.3905 0.5468 0.0 0
M  V30 2 C 0.8581 1.8416 -0.2516 0
M  V30 3 C 0.1246 -0.254 -0.9845 0
M  V30 4 C 2.2299 2.094 -0.3276 0
M  V30 5 C -0.0407 2.9016 -0.3948 0
M  V30 6 N -0.3262 -1.5403 -0.8584 0
M  V30 7 N 0.2791 0.0517 -2.3036 0
M  V30 8 C 2.6989 3.3859 -0.5731 0
M  V30 9 C 0.4241 4.195 -0.6403 0
M  V30 10 C -0.8195 -2.2172 0.2722 0
M  V30 11 C 1.7947 4.4357 -0.7327 0
M  V30 12 C -1.1319 -1.5919 1.4837 0
M  V30 13 C -1.0284 -3.6051 0.1845 0
M  V30 14 C -1.6269 -2.3211 2.5711 0
M  V30 15 C -1.523 -4.3384 1.2679 0
M  V30 16 C -1.8219 -3.6944 2.4636 0
M  V30 17 H 2.9306 1.2751 -0.1904 0
M  V30 18 H -1.1071 2.7118 -0.3095 0
M  V30 19 H -0.1922 -2.1282 -1.6644 0
M  V30 20 H -0.2232 -0.4481 -3.0192 0
M  V30 21 H 0.624 0.9712 -2.5473 0
M  V30 22 H 3.7678 3.5724 -0.6301 0
M  V30 23 H -0.2824 5.0133 -0.7496 0
M  V30 24 H 2.1586 5.4433 -0.9171 0
M  V30 25 H -1.0024 -0.5205 1.6077 0
M  V30 26 H -0.8011 -4.1368 -0.7356 0
M  V30 27 H -1.8576 -1.8075 3.5008 0
M  V30 28 H -1.6717 -5.4108 1.1758 0
M  V30 29 H -2.2047 -4.2586 3.3094 0
M  V30 END ATOM
M  V30 BEGIN BOND
M  V30 1 1 1 2
M  V30 2 2 1 3
M  V30 3 2 2 4
M  V30 4 1 2 5
M  V30 5 1 3 6
M  V30 6 1 3 7
M  V30 7 1 4 8
M  V30 8 2 5 9
M  V30 9 1 6 10
M  V30 10 2 8 11
M  V30 11 2 10 12
M  V30 12 1 10 13
M  V30 13 1 12 14
M  V30 14 2 13 15
M  V30 15 2 14 16
M  V30 16 1 9 11
M  V30 17 1 15 16
M  V30 18 1 4 17
M  V30 19 1 5 18
M  V30 20 1 6 19
M  V30 21 1 7 20
M  V30 22 1 7 21
M  V30 23 1 8 22
M  V30 24 1 9 23
M  V30 25 1 11 24
M  V30 26 1 12 25
M  V30 27 1 13 26
M  V30 28 1 14 27
M  V30 29 1 15 28
M  V30 30 1 16 29
M  V30 END BOND
M  V30 END CTAB
M  END
>  <Column 1>
491

>  <level_0>
554

>  <index>
554

>  <Unnamed: 0>
554

>  <NO.>
559

>  <Name>
1-3-diphenylguanidine

>  <IUPAC_name>
1-2-diphenylguanidine

>  <SMILES>
NC(=Nc1ccccc1)Nc1ccccc1

>  <CID>
7594

>  <logBB>
0

>  <BBB+/BBB->
BBB+

>  <Inchi>
InChI=1S/C13H13N3/c14-13(15-11-7-3-1-4-8-11)16-12-9-5-2-6-10-12/h1-10H-(H3-14-15-16)

>  <threshold>


>  <reference>
R47|

>  <group>
A

>  <Class>
1

>  <ABC>
12.13

>  <ABCGG>
10.06

>  <nAcid>
0

>  <nBase>
3

>  <nAromAtom>
12

>  <nAromBond>
12

>  <nAtom>
29

>  <nHeavyAtom>
16

>  <nSpiro>
0

>  <nBridgehead>
0

>  <nHetero>
3

>  <nN>
3

>  <nO>
0

>  <nF>
0

>  <BalabanJ>
1.64

>  <BertzCT>
463.05

>  <nBonds>
30

>  <nBondsO>
17

>  <nBondsS>
17

>  <nBondsD>
1

>  <nBondsT>
0

>  <nBondsA>
12

>  <nBondsM>
13

>  <nBondsKS>
23

>  <nBondsKD>
7

>  <RNCG>
0.26

>  <RPCG>
0.14

>  <FCSP3>
0

>  <SZ>
18.67

>  <Sm>
17.59

>  <Sv>
18.8

>  <Sse>
28.76

>  <Sp>
20.17

>  <Si>
32.57

>  <MZ>
0.64

>  <Mm>
0.61

>  <Mv>
0.65

>  <Mse>
0.99

>  <Mp>
0.7

>  <Mi>
1.12

>  <NsCH3>
0

>  <NdCH2>
0

>  <NssCH2>
0

>  <NtCH>
0

>  <NdsCH>
0

>  <NaaCH>
10

>  <NsssCH>
0

>  <NddC>
0

>  <NtsC>
0

>  <NdssC>
1

>  <NaasC>
2

>  <NaaaC>
0

>  <NssssC>
0

>  <NsNH3>
0

>  <NsNH2>
1

>  <NssNH2>
0

>  <NdNH>
0

>  <NssNH>
1

>  <NaaNH>
0

>  <NtN>
0

>  <NsssNH>
0

>  <NdsN>
1

>  <NaaN>
0

>  <NsssN>
0

>  <NddsN>
0

>  <NaasN>
0

>  <NssssN>
0

>  <NsOH>
0

>  <NdO>
0

>  <NssO>
0

>  <NaaO>
0

>  <NsF>
0

>  <NsSiH3>
0

>  <NssSiH2>
0

>  <NsssSiH>
0

>  <NssssSi>
0

>  <NsPH2>
0

>  <NssPH>
0

>  <NsssP>
0

>  <NdsssP>
0

>  <NsssssP>
0

>  <NsSH>
0

>  <NdS>
0

>  <NssS>
0

>  <NaaS>
0

>  <NdssS>
0

>  <NddssS>
0

>  <NsCl>
0

>  <NsBr>
0

>  <NsI>
0

>  <fragCpx>
49.03

>  <fMF>
0.52

>  <nHBAcc>
1

>  <nHBDon>
2

>  <Kier1>
12.46

>  <Kier2>
6.67

>  <Lipinski>
1

>  <GhoseFilter>
1

>  <FilterItLogS>
-3.19

>  <VMcGowan>
172.15

>  <LabuteASA>
94.64

>  <PEOE_VSA1>
11.05

>  <PEOE_VSA2>
0

>  <PEOE_VSA3>
4.99

>  <PEOE_VSA4>
0

>  <PEOE_VSA5>
0

>  <PEOE_VSA6>
36.4

>  <PEOE_VSA7>
24.27

>  <PEOE_VSA8>
5.69

>  <PEOE_VSA9>
5.69

>  <PEOE_VSA10>
0

>  <PEOE_VSA11>
5.96

>  <PEOE_VSA12>
0

>  <PEOE_VSA13>
0

>  <SMR_VSA1>
0

>  <SMR_VSA2>
0

>  <SMR_VSA3>
0

>  <SMR_VSA4>
10.73

>  <SMR_VSA5>
0

>  <SMR_VSA6>
5.32

>  <SMR_VSA7>
60.66

>  <SMR_VSA8>
0

>  <SMR_VSA9>
0

>  <SlogP_VSA1>
11.05

>  <SlogP_VSA2>
5.96

>  <SlogP_VSA3>
0

>  <SlogP_VSA4>
0

>  <SlogP_VSA5>
0

>  <SlogP_VSA6>
65.66

>  <SlogP_VSA7>
0

>  <SlogP_VSA8>
0

>  <SlogP_VSA9>
0

>  <SlogP_VSA10>
11.37

>  <SlogP_VSA11>
0

>  <EState_VSA1>
0

>  <EState_VSA2>
0

>  <EState_VSA3>
5.96

>  <EState_VSA4>
11.37

>  <EState_VSA5>
0

>  <EState_VSA6>
0

>  <EState_VSA7>
60.66

>  <EState_VSA8>
10.31

>  <EState_VSA9>
5.73

>  <EState_VSA10>
0

>  <VSA_EState1>
0

>  <VSA_EState2>
4.24

>  <VSA_EState3>
3.02

>  <VSA_EState4>
7.54

>  <VSA_EState5>
0.39

>  <VSA_EState6>
19.31

>  <VSA_EState7>
0

>  <VSA_EState8>
0

>  <VSA_EState9>
0

>  <apol>
33.68

>  <bpol>
14.18

>  <nRing>
2

>  <nHRing>
0

>  <naRing>
2

>  <naHRing>
0

>  <nARing 2>
0

>  <nAHRing 2>
0

>  <nFRing>
0

>  <nFHRing>
0

>  <nFaRing>
0

>  <nFaHRing>
0

>  <nFARing 2>
0

>  <nFAHRing 2>
0

>  <nRot>
2

>  <SLogP>
2.74

>  <SMR>
67.79

>  <TopoPSA(NO)>
50.41

>  <TopoPSA>
50.41

>  <JGI1>
0.15

>  <JGI2>
0.03

>  <JGI3>
0.04

>  <JGI4>
0.03

>  <JGI5>
0.02

>  <Diameter>
10

>  <Radius>
5

>  <TMWC10>
100.74

>  <TSRW10>
47.44

>  <MW>
211.11

>  <AMW>
7.28

>  <WPath>
495

>  <WPol>
18

>  <Zagreb1>
76

>  <Zagreb2>
83

>  <mZagreb2>
3.67

>  <yes>


>  <nAR-cont>
0.336376

>  <nHA-cont>
0.954961865

>  <MWHBN>
0.206474704

>  <MWHBN-cont>
0.999897719

>  <TPSA-cont>
0.648106897

>  <pka_cont>
0.97

>  <yes.1>


>  <BBB_SCORE>
4.572398238

>  <MMFF94 Energy>
-56.306

$$$$
Compound 397
Actelion Java MolfileCreator 2.0

  0  0  0  0  0  0              0 V3000
M  V30 BEGIN CTAB
M  V30 COUNTS 31 33 0 0 0
M  V30 BEGIN ATOM
M  V30 1 O 2.7252 0.1601 -1.5222 0
M  V30 2 C 1.6198 -0.3794 -1.5519 0
M  V30 3 N 1.0996 -0.7302 -2.7687 0
M  V30 4 C 0.8224 -0.7928 -0.2958 0
M  V30 5 C 1.1356 0.0758 0.9169 0
M  V30 6 C -0.683 -0.9311 -0.5195 0
M  V30 7 C 0.727 1.4215 0.9866 0
M  V30 8 C 1.8633 -0.4758 1.9894 0
M  V30 9 C -1.4981 0.187 -0.7826 0
M  V30 10 C -1.2665 -2.2131 -0.4847 0
M  V30 11 C -0.0124 2.0924 -0.0925 0
M  V30 12 C 1.0735 2.1866 2.1117 0
M  V30 13 C 2.1869 0.2938 3.1062 0
M  V30 14 C -0.9766 1.5588 -0.8587 0
M  V30 15 C -2.865 -0.0057 -1.0362 0
M  V30 16 C -2.6291 -2.3852 -0.7242 0
M  V30 17 C 1.7937 1.6258 3.1669 0
M  V30 18 C -3.4277 -1.2822 -1.0037 0
M  V30 19 H 0.1857 -1.1476 -2.8796 0
M  V30 20 H 1.6276 -0.4777 -3.5926 0
M  V30 21 H 1.2058 -1.8016 -0.0809 0
M  V30 22 H 2.1937 -1.5115 1.9563 0
M  V30 23 H -0.6595 -3.0904 -0.2696 0
M  V30 24 H 0.252 3.1362 -0.252 0
M  V30 25 H 0.7765 3.231 2.1786 0
M  V30 26 H 2.7529 -0.1446 3.9237 0
M  V30 27 H -1.4513 2.1985 -1.6003 0
M  V30 28 H -3.5102 0.8447 -1.2474 0
M  V30 29 H -3.067 -3.3796 -0.6903 0
M  V30 30 H 2.0497 2.2312 4.0321 0
M  V30 31 H -4.4908 -1.4116 -1.1896 0
M  V30 END ATOM
M  V30 BEGIN BOND
M  V30 1 2 1 2
M  V30 2 1 2 3
M  V30 3 1 2 4
M  V30 4 1 4 5
M  V30 5 1 4 6
M  V30 6 2 5 7
M  V30 7 1 5 8
M  V30 8 2 6 9
M  V30 9 1 6 10
M  V30 10 1 7 11
M  V30 11 1 7 12
M  V30 12 2 8 13
M  V30 13 1 9 14
M  V30 14 1 9 15
M  V30 15 2 10 16
M  V30 16 2 12 17
M  V30 17 2 15 18
M  V30 18 2 11 14
M  V30 19 1 13 17
M  V30 20 1 16 18
M  V30 21 1 3 19
M  V30 22 1 3 20
M  V30 23 1 4 21
M  V30 24 1 8 22
M  V30 25 1 10 23
M  V30 26 1 11 24
M  V30 27 1 12 25
M  V30 28 1 13 26
M  V30 29 1 14 27
M  V30 30 1 15 28
M  V30 31 1 16 29
M  V30 32 1 17 30
M  V30 33 1 18 31
M  V30 END BOND
M  V30 END CTAB
M  END
>  <Column 1>
492

>  <level_0>
555

>  <index>
555

>  <Unnamed: 0>
555

>  <NO.>
560

>  <Name>
citenamide

>  <IUPAC_name>
tricyclo[9.4.0.03-8]pentadeca-1(15)-3-5-7-9-11-13-heptaene-2-carboxamide

>  <SMILES>
NC(=O)C1c2ccccc2C=Cc2ccccc21

>  <CID>
25255

>  <logBB>
0

>  <BBB+/BBB->
BBB+

>  <Inchi>
InChI=1S/C16H13NO/c17-16(18)15-13-7-3-1-5-11(13)9-10-12-6-2-4-8-14(12)15/h1-10-15H-(H2-17-18)

>  <threshold>


>  <reference>
R2|R2|R8|R27|R48|

>  <group>
A

>  <Class>
1

>  <ABC>
14.16

>  <ABCGG>
11.79

>  <nAcid>
0

>  <nBase>
0

>  <nAromAtom>
12

>  <nAromBond>
12

>  <nAtom>
31

>  <nHeavyAtom>
18

>  <nSpiro>
0

>  <nBridgehead>
0

>  <nHetero>
2

>  <nN>
1

>  <nO>
1

>  <nF>
0

>  <BalabanJ>
1.85

>  <BertzCT>
593.55

>  <nBonds>
33

>  <nBondsO>
20

>  <nBondsS>
19

>  <nBondsD>
2

>  <nBondsT>
0

>  <nBondsA>
12

>  <nBondsM>
14

>  <nBondsKS>
25

>  <nBondsKD>
8

>  <RNCG>
0.28

>  <RPCG>
0.17

>  <FCSP3>
0.06

>  <SZ>
20.67

>  <Sm>
19.59

>  <Sv>
20.99

>  <Sse>
30.76

>  <Sp>
22.33

>  <Si>
34.2

>  <MZ>
0.67

>  <Mm>
0.63

>  <Mv>
0.68

>  <Mse>
0.99

>  <Mp>
0.72

>  <Mi>
1.1

>  <NsCH3>
0

>  <NdCH2>
0

>  <NssCH2>
0

>  <NtCH>
0

>  <NdsCH>
2

>  <NaaCH>
8

>  <NsssCH>
1

>  <NddC>
0

>  <NtsC>
0

>  <NdssC>
1

>  <NaasC>
4

>  <NaaaC>
0

>  <NssssC>
0

>  <NsNH3>
0

>  <NsNH2>
1

>  <NssNH2>
0

>  <NdNH>
0

>  <NssNH>
0

>  <NaaNH>
0

>  <NtN>
0

>  <NsssNH>
0

>  <NdsN>
0

>  <NaaN>
0

>  <NsssN>
0

>  <NddsN>
0

>  <NaasN>
0

>  <NssssN>
0

>  <NsOH>
0

>  <NdO>
1

>  <NssO>
0

>  <NaaO>
0

>  <NsF>
0

>  <NsSiH3>
0

>  <NssSiH2>
0

>  <NsssSiH>
0

>  <NssssSi>
0

>  <NsPH2>
0

>  <NssPH>
0

>  <NsssP>
0

>  <NdsssP>
0

>  <NsssssP>
0

>  <NsSH>
0

>  <NdS>
0

>  <NssS>
0

>  <NaaS>
0

>  <NdssS>
0

>  <NddssS>
0

>  <NsCl>
0

>  <NsBr>
0

>  <NsI>
0

>  <fragCpx>
94.02

>  <fMF>
0.48

>  <nHBAcc>
1

>  <nHBDon>
1

>  <Kier1>
13.01

>  <Kier2>
5.55

>  <Lipinski>
1

>  <GhoseFilter>
1

>  <FilterItLogS>
-3.43

>  <VMcGowan>
185.17

>  <LabuteASA>
105.75

>  <PEOE_VSA1>
5.73

>  <PEOE_VSA2>
4.79

>  <PEOE_VSA3>
0

>  <PEOE_VSA4>
0

>  <PEOE_VSA5>
0

>  <PEOE_VSA6>
60.68

>  <PEOE_VSA7>
22.25

>  <PEOE_VSA8>
0

>  <PEOE_VSA9>
5.92

>  <PEOE_VSA10>
0

>  <PEOE_VSA11>
0

>  <PEOE_VSA12>
5.91

>  <PEOE_VSA13>
0

>  <SMR_VSA1>
4.79

>  <SMR_VSA2>
0

>  <SMR_VSA3>
0

>  <SMR_VSA4>
5.73

>  <SMR_VSA5>
5.92

>  <SMR_VSA6>
0

>  <SMR_VSA7>
70.78

>  <SMR_VSA8>
0

>  <SMR_VSA9>
0

>  <SlogP_VSA1>
5.73

>  <SlogP_VSA2>
5.91

>  <SlogP_VSA3>
4.79

>  <SlogP_VSA4>
0

>  <SlogP_VSA5>
28.17

>  <SlogP_VSA6>
48.53

>  <SlogP_VSA7>
0

>  <SlogP_VSA8>
12.15

>  <SlogP_VSA9>
0

>  <SlogP_VSA10>
0

>  <SlogP_VSA11>
0

>  <EState_VSA1>
0

>  <EState_VSA2>
11.83

>  <EState_VSA3>
0

>  <EState_VSA4>
22.25

>  <EState_VSA5>
0

>  <EState_VSA6>
0

>  <EState_VSA7>
60.68

>  <EState_VSA8>
0

>  <EState_VSA9>
5.73

>  <EState_VSA10>
4.79

>  <VSA_EState1>
0

>  <VSA_EState2>
11.83

>  <VSA_EState3>
0

>  <VSA_EState4>
9.66

>  <VSA_EState5>
-0.68

>  <VSA_EState6>
15.78

>  <VSA_EState7>
4.08

>  <VSA_EState8>
0

>  <VSA_EState9>
0

>  <apol>
37.29

>  <bpol>
13.34

>  <nRing>
3

>  <nHRing>
0

>  <naRing>
2

>  <naHRing>
0

>  <nARing 2>
1

>  <nAHRing 2>
0

>  <nFRing>
1

>  <nFHRing>
0

>  <nFaRing>
0

>  <nFaHRing>
0

>  <nFARing 2>
1

>  <nFAHRing 2>
0

>  <nRot>
1

>  <SLogP>
2.79

>  <SMR>
72.85

>  <TopoPSA(NO)>
43.09

>  <TopoPSA>
43.09

>  <JGI1>
0.13

>  <JGI2>
0.07

>  <JGI3>
0.05

>  <JGI4>
0.04

>  <JGI5>
0.02

>  <Diameter>
7

>  <Radius>
4

>  <TMWC10>
111.22

>  <TSRW10>
59.46

>  <MW>
235.1

>  <AMW>
7.58

>  <WPath>
521

>  <WPol>
33

>  <Zagreb1>
96

>  <Zagreb2>
115

>  <mZagreb2>
3.97

>  <yes>


>  <nAR-cont>
0.816016

>  <nHA-cont>
0.991161285

>  <MWHBN>
0.130437865

>  <MWHBN-cont>
0.871135856

>  <TPSA-cont>
0.699205043

>  <pka_cont>
0.97

>  <yes.1>


>  <BBB_SCORE>
4.997291154

>  <MMFF94 Energy>
63.742

$$$$
Compound 398
Actelion Java MolfileCreator 2.0

  0  0  0  0  0  0              0 V3000
M  V30 BEGIN CTAB
M  V30 COUNTS 7 7 0 0 0
M  V30 BEGIN ATOM
M  V30 1 O 0.7769 -0.8547 0.233 0
M  V30 2 C -0.2505 0.0219 0.7131 0
M  V30 3 C 0.1924 0.0392 -0.7228 0
M  V30 4 H 0.0507 0.839 1.356 0
M  V30 5 H -1.2104 -0.4178 0.9518 0
M  V30 6 H 0.7977 0.8683 -1.066 0
M  V30 7 H -0.4633 -0.3885 -1.4702 0
M  V30 END ATOM
M  V30 BEGIN BOND
M  V30 1 1 1 2
M  V30 2 1 1 3
M  V30 3 1 2 3
M  V30 4 1 2 4
M  V30 5 1 2 5
M  V30 6 1 3 6
M  V30 7 1 3 7
M  V30 END BOND
M  V30 END CTAB
M  END
>  <Column 1>
494

>  <level_0>
557

>  <index>
557

>  <Unnamed: 0>
557

>  <NO.>
562

>  <Name>
oxirane

>  <IUPAC_name>
oxirane

>  <SMILES>
C1CO1

>  <CID>
6354

>  <logBB>
0.01

>  <BBB+/BBB->
BBB+

>  <Inchi>
InChI=1S/C2H4O/c1-2-3-1/h1-2H2

>  <threshold>


>  <reference>
R8|R40|R2|R2|R3|R21|R25|R27|R27|R38|R41|R46|R47|

>  <group>
A

>  <Class>
1

>  <ABC>
2.12

>  <ABCGG>
0

>  <nAcid>
0

>  <nBase>
0

>  <nAromAtom>
0

>  <nAromBond>
0

>  <nAtom>
7

>  <nHeavyAtom>
3

>  <nSpiro>
0

>  <nBridgehead>
0

>  <nHetero>
1

>  <nN>
0

>  <nO>
1

>  <nF>
0

>  <BalabanJ>
2.25

>  <BertzCT>
7.51

>  <nBonds>
7

>  <nBondsO>
3

>  <nBondsS>
7

>  <nBondsD>
0

>  <nBondsT>
0

>  <nBondsA>
0

>  <nBondsM>
0

>  <nBondsKS>
7

>  <nBondsKD>
0

>  <RNCG>
1

>  <RPCG>
0.19

>  <FCSP3>
1

>  <SZ>
4

>  <Sm>
3.67

>  <Sv>
3.8

>  <Sse>
7.11

>  <Sp>
4.08

>  <Si>
8.04

>  <MZ>
0.57

>  <Mm>
0.52

>  <Mv>
0.54

>  <Mse>
1.02

>  <Mp>
0.58

>  <Mi>
1.15

>  <NsCH3>
0

>  <NdCH2>
0

>  <NssCH2>
2

>  <NtCH>
0

>  <NdsCH>
0

>  <NaaCH>
0

>  <NsssCH>
0

>  <NddC>
0

>  <NtsC>
0

>  <NdssC>
0

>  <NaasC>
0

>  <NaaaC>
0

>  <NssssC>
0

>  <NsNH3>
0

>  <NsNH2>
0

>  <NssNH2>
0

>  <NdNH>
0

>  <NssNH>
0

>  <NaaNH>
0

>  <NtN>
0

>  <NsssNH>
0

>  <NdsN>
0

>  <NaaN>
0

>  <NsssN>
0

>  <NddsN>
0

>  <NaasN>
0

>  <NssssN>
0

>  <NsOH>
0

>  <NdO>
0

>  <NssO>
1

>  <NaaO>
0

>  <NsF>
0

>  <NsSiH3>
0

>  <NssSiH2>
0

>  <NsssSiH>
0

>  <NssssSi>
0

>  <NsPH2>
0

>  <NssPH>
0

>  <NsssP>
0

>  <NdsssP>
0

>  <NsssssP>
0

>  <NsSH>
0

>  <NdS>
0

>  <NssS>
0

>  <NaaS>
0

>  <NdssS>
0

>  <NddssS>
0

>  <NsCl>
0

>  <NsBr>
0

>  <NsI>
0

>  <fragCpx>
3.01

>  <fMF>
0.43

>  <nHBAcc>
1

>  <nHBDon>
0

>  <Kier1>
1.33

>  <Kier2>
0.22

>  <Lipinski>
1

>  <GhoseFilter>
0

>  <FilterItLogS>
0.06

>  <VMcGowan>
34.05

>  <LabuteASA>
19.21

>  <PEOE_VSA1>
4.74

>  <PEOE_VSA2>
0

>  <PEOE_VSA3>
0

>  <PEOE_VSA4>
0

>  <PEOE_VSA5>
0

>  <PEOE_VSA6>
0

>  <PEOE_VSA7>
0

>  <PEOE_VSA8>
0

>  <PEOE_VSA9>
13.21

>  <PEOE_VSA10>
0

>  <PEOE_VSA11>
0

>  <PEOE_VSA12>
0

>  <PEOE_VSA13>
0

>  <SMR_VSA1>
4.74

>  <SMR_VSA2>
0

>  <SMR_VSA3>
0

>  <SMR_VSA4>
0

>  <SMR_VSA5>
0

>  <SMR_VSA6>
13.21

>  <SMR_VSA7>
0

>  <SMR_VSA8>
0

>  <SMR_VSA9>
0

>  <SlogP_VSA1>
0

>  <SlogP_VSA2>
13.21

>  <SlogP_VSA3>
4.74

>  <SlogP_VSA4>
0

>  <SlogP_VSA5>
0

>  <SlogP_VSA6>
0

>  <SlogP_VSA7>
0

>  <SlogP_VSA8>
0

>  <SlogP_VSA9>
0

>  <SlogP_VSA10>
0

>  <SlogP_VSA11>
0

>  <EState_VSA1>
0

>  <EState_VSA2>
0

>  <EState_VSA3>
0

>  <EState_VSA4>
13.21

>  <EState_VSA5>
0

>  <EState_VSA6>
0

>  <EState_VSA7>
0

>  <EState_VSA8>
4.74

>  <EState_VSA9>
0

>  <EState_VSA10>
0

>  <VSA_EState1>
4.5

>  <VSA_EState2>
0

>  <VSA_EState3>
0

>  <VSA_EState4>
0

>  <VSA_EState5>
0

>  <VSA_EState6>
0

>  <VSA_EState7>
0

>  <VSA_EState8>
2

>  <VSA_EState9>
0

>  <apol>
6.81

>  <bpol>
5.75

>  <nRing>
1

>  <nHRing>
1

>  <naRing>
0

>  <naHRing>
0

>  <nARing 2>
1

>  <nAHRing 2>
1

>  <nFRing>
0

>  <nFHRing>
0

>  <nFaRing>
0

>  <nFaHRing>
0

>  <nFARing 2>
0

>  <nFAHRing 2>
0

>  <nRot>
0

>  <SLogP>
0.02

>  <SMR>
10.82

>  <TopoPSA(NO)>
12.53

>  <TopoPSA>
12.53

>  <JGI1>
0

>  <JGI2>
0

>  <JGI3>
0

>  <JGI4>
0

>  <JGI5>
0

>  <Diameter>
1

>  <Radius>
1

>  <TMWC10>
53.48

>  <TSRW10>
41.05

>  <MW>
44.03

>  <AMW>
6.29

>  <WPath>
3

>  <WPol>
0

>  <Zagreb1>
12

>  <Zagreb2>
12

>  <mZagreb2>
0.75

>  <yes>


>  <nAR-cont>
0.816016

>  <nHA-cont>
0

>  <MWHBN>
0.150704305

>  <MWHBN-cont>
0.934329942

>  <TPSA-cont>
0.912532819

>  <pka_cont>
0.97

>  <yes.1>


>  <BBB_SCORE>
4.527576551

>  <MMFF94 Energy>
6.0513

$$$$
Compound 399
Actelion Java MolfileCreator 2.0

  0  0  0  0  0  0              0 V3000
M  V30 BEGIN CTAB
M  V30 COUNTS 40 40 0 0 0
M  V30 BEGIN ATOM
M  V30 1 O 3.0473 5.5532 1.7962 0
M  V30 2 C 2.5865 4.4473 1.5367 0
M  V30 3 N 3.2474 3.3045 1.8562 0
M  V30 4 N 1.42 4.3007 0.8558 0
M  V30 5 C 2.8475 2.0355 1.5434 0
M  V30 6 C 0.8625 3.115 0.4629 0
M  V30 7 O 3.6484 1.1076 1.6364 0
M  V30 8 C 1.3741 1.8577 1.1687 0
M  V30 9 O -0.0435 3.123 -0.3661 0
M  V30 10 C 1.2384 0.6211 0.236 0
M  V30 11 C 0.565 1.7345 2.4909 0
M  V30 12 C -0.1811 0.0743 0.0151 0
M  V30 13 C 0.9168 0.5328 3.3626 0
M  V30 14 C -0.1683 -1.0989 -0.9701 0
M  V30 15 C -1.5758 -1.6558 -1.191 0
M  V30 16 C -1.5626 -2.8269 -2.1745 0
M  V30 17 C -2.9689 -3.3834 -2.3951 0
M  V30 18 C -2.9601 -4.5478 -3.3724 0
M  V30 19 H 4.1787 3.4126 2.2334 0
M  V30 20 H 0.9993 5.146 0.4954 0
M  V30 21 H 1.8486 -0.2052 0.6231 0
M  V30 22 H 1.6738 0.8735 -0.7409 0
M  V30 23 H 0.7044 2.6369 3.1016 0
M  V30 24 H -0.5088 1.7036 2.2662 0
M  V30 25 H -0.8443 0.8533 -0.3712 0
M  V30 26 H -0.6086 -0.2682 0.963 0
M  V30 27 H 1.9472 0.59 3.7253 0
M  V30 28 H 0.2623 0.5089 4.2403 0
M  V30 29 H 0.7912 -0.4135 2.8309 0
M  V30 30 H 0.4844 -1.8928 -0.5876 0
M  V30 31 H 0.2498 -0.7687 -1.9287 0
M  V30 32 H -2.2291 -0.8622 -1.5734 0
M  V30 33 H -1.9949 -1.9857 -0.2326 0
M  V30 34 H -0.9092 -3.6205 -1.7921 0
M  V30 35 H -1.1435 -2.4971 -3.1329 0
M  V30 36 H -3.391 -3.7183 -1.4405 0
M  V30 37 H -3.6252 -2.5948 -2.7813 0
M  V30 38 H -3.9756 -4.9302 -3.5153 0
M  V30 39 H -2.5733 -4.238 -4.3483 0
M  V30 40 H -2.3377 -5.3676 -3.0 0
M  V30 END ATOM
M  V30 BEGIN BOND
M  V30 1 2 1 2
M  V30 2 1 2 3
M  V30 3 1 2 4
M  V30 4 1 3 5
M  V30 5 1 4 6
M  V30 6 2 5 7
M  V30 7 1 5 8
M  V30 8 2 6 9
M  V30 9 1 8 10
M  V30 10 1 8 11
M  V30 11 1 10 12
M  V30 12 1 11 13
M  V30 13 1 12 14
M  V30 14 1 14 15
M  V30 15 1 15 16
M  V30 16 1 16 17
M  V30 17 1 17 18
M  V30 18 1 6 8
M  V30 19 1 3 19
M  V30 20 1 4 20
M  V30 21 1 10 21
M  V30 22 1 10 22
M  V30 23 1 11 23
M  V30 24 1 11 24
M  V30 25 1 12 25
M  V30 26 1 12 26
M  V30 27 1 13 27
M  V30 28 1 13 28
M  V30 29 1 13 29
M  V30 30 1 14 30
M  V30 31 1 14 31
M  V30 32 1 15 32
M  V30 33 1 15 33
M  V30 34 1 16 34
M  V30 35 1 16 35
M  V30 36 1 17 36
M  V30 37 1 17 37
M  V30 38 1 18 38
M  V30 39 1 18 39
M  V30 40 1 18 40
M  V30 END BOND
M  V30 END CTAB
M  END
>  <Column 1>
496

>  <level_0>
559

>  <index>
559

>  <Unnamed: 0>
559

>  <NO.>
564

>  <Name>
5-ethyl-5-heptyl-1;3-diazinane-2;4; 6-trione

>  <IUPAC_name>
5-ethyl-5-heptyl-1-3-diazinane-2-4-6-trione

>  <SMILES>
CCCCCCCC1(CC)C(=O)NC(=O)NC1=O

>  <CID>
43473

>  <logBB>
0.02

>  <BBB+/BBB->
BBB+

>  <Inchi>
InChI=1S/C13H22N2O3/c1-3-5-6-7-8-9-13(4-2)10(16)14-12(18)15-11(13)17/h3-9H2-1-2H3-(H2-14-15-16-17-18)

>  <threshold>


>  <reference>
R25|R41|R3|R38|R40|R2|R2|R21|R27|R27|R43|R46|R47|

>  <group>
A

>  <Class>
1

>  <ABC>
12.93

>  <ABCGG>
11.87

>  <nAcid>
0

>  <nBase>
0

>  <nAromAtom>
0

>  <nAromBond>
0

>  <nAtom>
40

>  <nHeavyAtom>
18

>  <nSpiro>
0

>  <nBridgehead>
0

>  <nHetero>
5

>  <nN>
2

>  <nO>
3

>  <nF>
0

>  <BalabanJ>
2.49

>  <BertzCT>
319.13

>  <nBonds>
40

>  <nBondsO>
18

>  <nBondsS>
37

>  <nBondsD>
3

>  <nBondsT>
0

>  <nBondsA>
0

>  <nBondsM>
3

>  <nBondsKS>
37

>  <nBondsKD>
3

>  <RNCG>
0.15

>  <RPCG>
0.18

>  <FCSP3>
0.77

>  <SZ>
23

>  <Sm>
21.17

>  <Sv>
22.62

>  <Sse>
40.08

>  <Sp>
24.54

>  <Si>
45.78

>  <MZ>
0.58

>  <Mm>
0.53

>  <Mv>
0.57

>  <Mse>
1

>  <Mp>
0.61

>  <Mi>
1.14

>  <NsCH3>
2

>  <NdCH2>
0

>  <NssCH2>
7

>  <NtCH>
0

>  <NdsCH>
0

>  <NaaCH>
0

>  <NsssCH>
0

>  <NddC>
0

>  <NtsC>
0

>  <NdssC>
3

>  <NaasC>
0

>  <NaaaC>
0

>  <NssssC>
1

>  <NsNH3>
0

>  <NsNH2>
0

>  <NssNH2>
0

>  <NdNH>
0

>  <NssNH>
2

>  <NaaNH>
0

>  <NtN>
0

>  <NsssNH>
0

>  <NdsN>
0

>  <NaaN>
0

>  <NsssN>
0

>  <NddsN>
0

>  <NaasN>
0

>  <NssssN>
0

>  <NsOH>
0

>  <NdO>
3

>  <NssO>
0

>  <NaaO>
0

>  <NsF>
0

>  <NsSiH3>
0

>  <NssSiH2>
0

>  <NsssSiH>
0

>  <NssssSi>
0

>  <NsPH2>
0

>  <NssPH>
0

>  <NsssP>
0

>  <NdsssP>
0

>  <NsssssP>
0

>  <NsSH>
0

>  <NdS>
0

>  <NssS>
0

>  <NaaS>
0

>  <NdssS>
0

>  <NddssS>
0

>  <NsCl>
0

>  <NsBr>
0

>  <NsI>
0

>  <fragCpx>
18.05

>  <fMF>
0.15

>  <nHBAcc>
3

>  <nHBDon>
2

>  <Kier1>
16.06

>  <Kier2>
7.56

>  <Lipinski>
1

>  <GhoseFilter>
1

>  <FilterItLogS>
-4.36

>  <VMcGowan>
207.84

>  <LabuteASA>
107.7

>  <PEOE_VSA1>
0

>  <PEOE_VSA2>
20.22

>  <PEOE_VSA3>
4.79

>  <PEOE_VSA4>
0

>  <PEOE_VSA5>
0

>  <PEOE_VSA6>
45.95

>  <PEOE_VSA7>
12.84

>  <PEOE_VSA8>
0

>  <PEOE_VSA9>
0

>  <PEOE_VSA10>
5.41

>  <PEOE_VSA11>
0

>  <PEOE_VSA12>
11.81

>  <PEOE_VSA13>
0

>  <SMR_VSA1>
14.38

>  <SMR_VSA2>
0

>  <SMR_VSA3>
10.63

>  <SMR_VSA4>
5.41

>  <SMR_VSA5>
58.79

>  <SMR_VSA6>
0

>  <SMR_VSA7>
0

>  <SMR_VSA8>
0

>  <SMR_VSA9>
0

>  <SlogP_VSA1>
10.63

>  <SlogP_VSA2>
17.85

>  <SlogP_VSA3>
9.59

>  <SlogP_VSA4>
5.41

>  <SlogP_VSA5>
58.79

>  <SlogP_VSA6>
0

>  <SlogP_VSA7>
0

>  <SlogP_VSA8>
0

>  <SlogP_VSA9>
0

>  <SlogP_VSA10>
4.79

>  <SlogP_VSA11>
0

>  <EState_VSA1>
23.26

>  <EState_VSA2>
0

>  <EState_VSA3>
12.84

>  <EState_VSA4>
25.68

>  <EState_VSA5>
6.42

>  <EState_VSA6>
6.92

>  <EState_VSA7>
0

>  <EState_VSA8>
17.56

>  <EState_VSA9>
0

>  <EState_VSA10>
14.38

>  <VSA_EState1>
0

>  <VSA_EState2>
34.83

>  <VSA_EState3>
4.39

>  <VSA_EState4>
-1.06

>  <VSA_EState5>
-0.9

>  <VSA_EState6>
-0.71

>  <VSA_EState7>
6.25

>  <VSA_EState8>
3.95

>  <VSA_EState9>
0

>  <apol>
40.99

>  <bpol>
25.81

>  <nRing>
1

>  <nHRing>
1

>  <naRing>
0

>  <naHRing>
0

>  <nARing 2>
1

>  <nAHRing 2>
1

>  <nFRing>
0

>  <nFHRing>
0

>  <nFaRing>
0

>  <nFaHRing>
0

>  <nFARing 2>
0

>  <nFAHRing 2>
0

>  <nRot>
7

>  <SLogP>
2.11

>  <SMR>
67.78

>  <TopoPSA(NO)>
75.27

>  <TopoPSA>
75.27

>  <JGI1>
0.25

>  <JGI2>
0.11

>  <JGI3>
0.06

>  <JGI4>
0.04

>  <JGI5>
0.03

>  <Diameter>
11

>  <Radius>
6

>  <TMWC10>
107.18

>  <TSRW10>
50.74

>  <MW>
254.16

>  <AMW>
6.35

>  <WPath>
650

>  <WPol>
28

>  <Zagreb1>
84

>  <Zagreb2>
97

>  <mZagreb2>
4.33

>  <yes>


>  <nAR-cont>
0.816016

>  <nHA-cont>
0.991161285

>  <MWHBN>
0.313629137

>  <MWHBN-cont>
0.798200529

>  <TPSA-cont>
0.47456866

>  <pka_cont>
0.97

>  <yes.1>


>  <BBB_SCORE>
4.438615399

>  <MMFF94 Energy>
-126.98

$$$$
Compound 400
Actelion Java MolfileCreator 2.0

  0  0  0  0  0  0              0 V3000
M  V30 BEGIN CTAB
M  V30 COUNTS 42 42 0 0 0
M  V30 BEGIN ATOM
M  V30 1 O 1.2454 -0.5447 1.0896 0
M  V30 2 C 2.0229 0.3567 1.7659 0
M  V30 3 C 1.4873 -1.9288 1.3219 0
M  V30 4 C 1.8474 1.7043 1.4151 0
M  V30 5 C 2.9471 0.0405 2.764 0
M  V30 6 C 0.6122 -2.6934 0.3747 0
M  V30 7 O 0.9722 2.0585 0.4193 0
M  V30 8 C 2.6025 2.7131 2.0131 0
M  V30 9 C 3.6922 1.0526 3.381 0
M  V30 10 C -0.3054 -3.5985 0.7393 0
M  V30 11 C -0.3495 2.2385 0.9594 0
M  V30 12 C 3.5237 2.3849 3.0041 0
M  V30 13 C -1.3712 2.0163 -0.1627 0 CFG=1
M  V30 14 O -1.0941 2.9261 -1.2435 0
M  V30 15 C -1.3288 0.5683 -0.6936 0
M  V30 16 N -2.3886 0.3692 -1.6928 0
M  V30 17 C -2.331 -0.9397 -2.3456 0
M  V30 18 C -3.682 -1.1815 -3.0215 0
M  V30 19 C -1.2114 -1.0276 -3.3845 0
M  V30 20 H 1.2494 -2.1841 2.3613 0
M  V30 21 H 2.5326 -2.1779 1.1048 0
M  V30 22 H 3.1153 -0.9808 3.088 0
M  V30 23 H 0.7481 -2.4744 -0.6819 0
M  V30 24 H 2.4732 3.7467 1.7057 0
M  V30 25 H 4.412 0.7979 4.1556 0
M  V30 26 H -0.4849 -3.8454 1.781 0
M  V30 27 H -0.9083 -4.1072 -0.0068 0
M  V30 28 H -0.4201 3.2725 1.318 0
M  V30 29 H -0.5602 1.5565 1.7933 0
M  V30 30 H 4.1129 3.165 3.4793 0
M  V30 31 H -2.3741 2.2486 0.2134 0
M  V30 32 H -0.141 2.8259 -1.4302 0
M  V30 33 H -0.3502 0.3845 -1.148 0
M  V30 34 H -1.4728 -0.1329 0.1353 0
M  V30 35 H -2.3314 1.1253 -2.3795 0
M  V30 36 H -2.1909 -1.7265 -1.5942 0
M  V30 37 H -3.8873 -0.4323 -3.7948 0
M  V30 38 H -4.4983 -1.1469 -2.291 0
M  V30 39 H -3.7058 -2.1687 -3.4956 0
M  V30 40 H -0.2229 -0.9428 -2.9233 0
M  V30 41 H -1.3023 -0.239 -4.1398 0
M  V30 42 H -1.2443 -1.9917 -3.9039 0
M  V30 END ATOM
M  V30 BEGIN BOND
M  V30 1 1 1 2
M  V30 2 1 1 3
M  V30 3 2 2 4
M  V30 4 1 2 5
M  V30 5 1 3 6
M  V30 6 1 4 7
M  V30 7 1 4 8
M  V30 8 2 5 9
M  V30 9 2 6 10
M  V30 10 1 7 11
M  V30 11 2 8 12
M  V30 12 1 11 13
M  V30 13 1 13 14
M  V30 14 1 13 15
M  V30 15 1 15 16
M  V30 16 1 16 17
M  V30 17 1 17 18
M  V30 18 1 17 19
M  V30 19 1 9 12
M  V30 20 1 3 20
M  V30 21 1 3 21
M  V30 22 1 5 22
M  V30 23 1 6 23
M  V30 24 1 8 24
M  V30 25 1 9 25
M  V30 26 1 10 26
M  V30 27 1 10 27
M  V30 28 1 11 28
M  V30 29 1 11 29
M  V30 30 1 12 30
M  V30 31 1 13 31
M  V30 32 1 14 32
M  V30 33 1 15 33
M  V30 34 1 15 34
M  V30 35 1 16 35
M  V30 36 1 17 36
M  V30 37 1 18 37
M  V30 38 1 18 38
M  V30 39 1 18 39
M  V30 40 1 19 40
M  V30 41 1 19 41
M  V30 42 1 19 42
M  V30 END BOND
M  V30 BEGIN COLLECTION
M  V30 MDLV30/STERAC1 ATOMS=(1 13)
M  V30 END COLLECTION
M  V30 END CTAB
M  END
>  <Column 1>
497

>  <level_0>
560

>  <index>
560

>  <Unnamed: 0>
560

>  <NO.>
565

>  <Name>
oxprenolol

>  <IUPAC_name>
1-(propan-2-ylamino)-3-(2-prop-2-enoxyphenoxy)propan-2-ol

>  <SMILES>
C=CCOc1ccccc1OCC(O)CNC(C)C

>  <CID>
4631

>  <logBB>
0.02

>  <BBB+/BBB->
BBB+

>  <Inchi>
InChI=1S/C15H23NO3/c1-4-9-18-14-7-5-6-8-15(14)19-11-13(17)10-16-12(2)3/h4-8-12-13-16-17H-1-9-11H2-2-3H3

>  <threshold>


>  <reference>
R25|

>  <group>
A

>  <Class>
1

>  <ABC>
13.72

>  <ABCGG>
11.95

>  <nAcid>
0

>  <nBase>
1

>  <nAromAtom>
6

>  <nAromBond>
6

>  <nAtom>
42

>  <nHeavyAtom>
19

>  <nSpiro>
0

>  <nBridgehead>
0

>  <nHetero>
4

>  <nN>
1

>  <nO>
3

>  <nF>
0

>  <BalabanJ>
2.24

>  <BertzCT>
379.41

>  <nBonds>
42

>  <nBondsO>
19

>  <nBondsS>
35

>  <nBondsD>
1

>  <nBondsT>
0

>  <nBondsA>
6

>  <nBondsM>
7

>  <nBondsKS>
38

>  <nBondsKD>
4

>  <RNCG>
0.23

>  <RPCG>
0.1

>  <FCSP3>
0.47

>  <SZ>
24

>  <Sm>
22.09

>  <Sv>
24.13

>  <Sse>
41.87

>  <Sp>
26.28

>  <Si>
47.69

>  <MZ>
0.57

>  <Mm>
0.53

>  <Mv>
0.57

>  <Mse>
1

>  <Mp>
0.63

>  <Mi>
1.14

>  <NsCH3>
2

>  <NdCH2>
1

>  <NssCH2>
3

>  <NtCH>
0

>  <NdsCH>
1

>  <NaaCH>
4

>  <NsssCH>
2

>  <NddC>
0

>  <NtsC>
0

>  <NdssC>
0

>  <NaasC>
2

>  <NaaaC>
0

>  <NssssC>
0

>  <NsNH3>
0

>  <NsNH2>
0

>  <NssNH2>
0

>  <NdNH>
0

>  <NssNH>
1

>  <NaaNH>
0

>  <NtN>
0

>  <NsssNH>
0

>  <NdsN>
0

>  <NaaN>
0

>  <NsssN>
0

>  <NddsN>
0

>  <NaasN>
0

>  <NssssN>
0

>  <NsOH>
1

>  <NdO>
0

>  <NssO>
2

>  <NaaO>
0

>  <NsF>
0

>  <NsSiH3>
0

>  <NssSiH2>
0

>  <NsssSiH>
0

>  <NssssSi>
0

>  <NsPH2>
0

>  <NssPH>
0

>  <NsssP>
0

>  <NdsssP>
0

>  <NsssssP>
0

>  <NsSH>
0

>  <NdS>
0

>  <NssS>
0

>  <NaaS>
0

>  <NdssS>
0

>  <NddssS>
0

>  <NsCl>
0

>  <NsBr>
0

>  <NsI>
0

>  <fragCpx>
19.04

>  <fMF>
0.14

>  <nHBAcc>
4

>  <nHBDon>
2

>  <Kier1>
17.05

>  <Kier2>
9.83

>  <Lipinski>
1

>  <GhoseFilter>
1

>  <FilterItLogS>
-3.28

>  <VMcGowan>
221.74

>  <LabuteASA>
114.6

>  <PEOE_VSA1>
19.9

>  <PEOE_VSA2>
0

>  <PEOE_VSA3>
0

>  <PEOE_VSA4>
0

>  <PEOE_VSA5>
0

>  <PEOE_VSA6>
38.64

>  <PEOE_VSA7>
12.13

>  <PEOE_VSA8>
12.59

>  <PEOE_VSA9>
0

>  <PEOE_VSA10>
19.32

>  <PEOE_VSA11>
11.5

>  <PEOE_VSA12>
0

>  <PEOE_VSA13>
0

>  <SMR_VSA1>
14.58

>  <SMR_VSA2>
0

>  <SMR_VSA3>
5.32

>  <SMR_VSA4>
0

>  <SMR_VSA5>
25.99

>  <SMR_VSA6>
19.76

>  <SMR_VSA7>
36.92

>  <SMR_VSA8>
0

>  <SMR_VSA9>
11.5

>  <SlogP_VSA1>
14.79

>  <SlogP_VSA2>
37.01

>  <SlogP_VSA3>
0

>  <SlogP_VSA4>
0

>  <SlogP_VSA5>
13.85

>  <SlogP_VSA6>
36.92

>  <SlogP_VSA7>
0

>  <SlogP_VSA8>
0

>  <SlogP_VSA9>
0

>  <SlogP_VSA10>
0

>  <SlogP_VSA11>
11.5

>  <EState_VSA1>
6.1

>  <EState_VSA2>
6.61

>  <EState_VSA3>
30.69

>  <EState_VSA4>
0

>  <EState_VSA5>
0

>  <EState_VSA6>
6.08

>  <EState_VSA7>
38.11

>  <EState_VSA8>
11.9

>  <EState_VSA9>
9.47

>  <EState_VSA10>
5.11

>  <VSA_EState1>
11.06

>  <VSA_EState2>
0

>  <VSA_EState3>
12.94

>  <VSA_EState4>
0

>  <VSA_EState5>
1.29

>  <VSA_EState6>
7.74

>  <VSA_EState7>
1.13

>  <VSA_EState8>
8.84

>  <VSA_EState9>
0

>  <apol>
43.89

>  <bpol>
27.12

>  <nRing>
1

>  <nHRing>
0

>  <naRing>
1

>  <naHRing>
0

>  <nARing 2>
0

>  <nAHRing 2>
0

>  <nFRing>
0

>  <nFHRing>
0

>  <nFaRing>
0

>  <nFaHRing>
0

>  <nFARing 2>
0

>  <nFAHRing 2>
0

>  <nRot>
9

>  <SLogP>
1.99

>  <SMR>
76.77

>  <TopoPSA(NO)>
50.72

>  <TopoPSA>
50.72

>  <JGI1>
0.18

>  <JGI2>
0.08

>  <JGI3>
0.03

>  <JGI4>
0.04

>  <JGI5>
0.02

>  <Diameter>
12

>  <Radius>
6

>  <TMWC10>
106.46

>  <TSRW10>
50.81

>  <MW>
265.17

>  <AMW>
6.31

>  <WPath>
834

>  <WPol>
22

>  <Zagreb1>
84

>  <Zagreb2>
90

>  <mZagreb2>
4.53

>  <yes>


>  <nAR-cont>
0.336376

>  <nHA-cont>
0.998649058

>  <MWHBN>
0.368458904

>  <MWHBN-cont>
0.5998455

>  <TPSA-cont>
0.645942905

>  <pka_cont>
0.97

>  <yes.1>


>  <BBB_SCORE>
4.011679117

>  <MMFF94 Energy>
76.725

$$$$
Compound 401
Actelion Java MolfileCreator 2.0

  0  0  0  0  0  0              0 V3000
M  V30 BEGIN CTAB
M  V30 COUNTS 45 48 0 0 0
M  V30 BEGIN ATOM
M  V30 1 O -1.3611 4.0876 -0.4802 0
M  V30 2 C -1.2218 2.7711 -0.8266 0
M  V30 3 C -2.047 4.9248 -1.4022 0
M  V30 4 C -0.5426 1.9891 0.1145 0
M  V30 5 C -1.6896 2.179 -1.9941 0
M  V30 6 C -0.3043 0.6171 -0.0903 0
M  V30 7 C -1.4902 0.8148 -2.2089 0
M  V30 8 C -0.8152 0.0249 -1.2647 0
M  V30 9 C 0.4207 -0.2431 0.9622 0 CFG=2
M  V30 10 C -0.6519 -1.4514 -1.5587 0
M  V30 11 C 1.0634 -1.4937 0.3063 0 CFG=1
M  V30 12 C -0.6411 -0.7452 1.9774 0
M  V30 13 C 1.5422 0.5101 1.7301 0
M  V30 14 C -0.0407 -2.2892 -0.4111 0 CFG=1
M  V30 15 C 2.2583 -1.1429 -0.6027 0
M  V30 16 C -1.6719 -1.6904 1.3425 0
M  V30 17 C 2.7342 0.874 0.8424 0
M  V30 18 N -1.093 -2.7666 0.5239 0
M  V30 19 C 3.3211 -0.3579 0.1617 0
M  V30 20 C -0.6407 -3.8846 1.3511 0
M  V30 21 H -1.5166 4.9766 -2.3587 0
M  V30 22 H -2.0729 5.9346 -0.9814 0
M  V30 23 H -3.0821 4.5955 -1.5404 0
M  V30 24 H -0.2094 2.482 1.0234 0
M  V30 25 H -2.2204 2.7431 -2.7527 0
M  V30 26 H -1.8742 0.3618 -3.1208 0
M  V30 27 H -1.6217 -1.8761 -1.8502 0
M  V30 28 H 1.0E-4 -1.5407 -2.4379 0
M  V30 29 H 1.4814 -2.1261 1.1027 0
M  V30 30 H -1.1686 0.1015 2.4353 0
M  V30 31 H -0.1423 -1.2755 2.7995 0
M  V30 32 H 1.1648 1.41 2.227 0
M  V30 33 H 1.9135 -0.1313 2.5419 0
M  V30 34 H 0.4 -3.1767 -0.8851 0
M  V30 35 H 1.9481 -0.5542 -1.4724 0
M  V30 36 H 2.7043 -2.0649 -0.9942 0
M  V30 37 H -2.3675 -1.1134 0.7217 0
M  V30 38 H -2.3074 -2.1124 2.1321 0
M  V30 39 H 2.4334 1.6057 0.084 0
M  V30 40 H 3.5081 1.3542 1.4522 0
M  V30 41 H 4.1218 -0.0562 -0.5227 0
M  V30 42 H 3.7785 -1.0076 0.9181 0
M  V30 43 H -0.255 -4.6976 0.7262 0
M  V30 44 H -1.4825 -4.3042 1.9135 0
M  V30 45 H 0.136 -3.6045 2.0691 0
M  V30 END ATOM
M  V30 BEGIN BOND
M  V30 1 1 1 2
M  V30 2 1 1 3
M  V30 3 2 2 4
M  V30 4 1 2 5
M  V30 5 1 4 6
M  V30 6 2 5 7
M  V30 7 2 6 8
M  V30 8 1 6 9
M  V30 9 1 8 10
M  V30 10 1 9 11
M  V30 11 1 9 12
M  V30 12 1 9 13
M  V30 13 1 10 14
M  V30 14 1 11 15
M  V30 15 1 12 16
M  V30 16 1 13 17
M  V30 17 1 14 18
M  V30 18 1 15 19
M  V30 19 1 18 20
M  V30 20 1 7 8
M  V30 21 1 11 14
M  V30 22 1 16 18
M  V30 23 1 17 19
M  V30 24 1 3 21
M  V30 25 1 3 22
M  V30 26 1 3 23
M  V30 27 1 4 24
M  V30 28 1 5 25
M  V30 29 1 7 26
M  V30 30 1 10 27
M  V30 31 1 10 28
M  V30 32 1 11 29
M  V30 33 1 12 30
M  V30 34 1 12 31
M  V30 35 1 13 32
M  V30 36 1 13 33
M  V30 37 1 14 34
M  V30 38 1 15 35
M  V30 39 1 15 36
M  V30 40 1 16 37
M  V30 41 1 16 38
M  V30 42 1 17 39
M  V30 43 1 17 40
M  V30 44 1 19 41
M  V30 45 1 19 42
M  V30 46 1 20 43
M  V30 47 1 20 44
M  V30 48 1 20 45
M  V30 END BOND
M  V30 BEGIN COLLECTION
M  V30 MDLV30/STEABS ATOMS=(3 9 11 14)
M  V30 END COLLECTION
M  V30 END CTAB
M  END
>  <Column 1>
498

>  <level_0>
561

>  <index>
561

>  <Unnamed: 0>
561

>  <NO.>
567

>  <Name>
dextromethorphan

>  <IUPAC_name>
(1s-9s-10s)-4-methoxy-17-methyl-17-azatetracyclo[7.5.3.01-10.02-7]heptadeca-2(7)-3-5-triene

>  <SMILES>
COc1ccc2c(c1)[C@]13CCCC[C@@H]1[C@H](C2)N(C)CC3

>  <CID>
5360696

>  <logBB>
0.02

>  <BBB+/BBB->
BBB+

>  <Inchi>
InChI=1S/C18H25NO/c1-19-10-9-18-8-4-3-5-15(18)17(19)11-13-6-7-14(20-2)12-16(13)18/h6-7-12-15-17H-3-5-8-11H2-1-2H3/t15--17+-18+/m1/s1

>  <threshold>


>  <reference>
R18|R26|R27|R20|

>  <group>
A

>  <Class>
1

>  <ABC>
16.13

>  <ABCGG>
12.46

>  <nAcid>
0

>  <nBase>
1

>  <nAromAtom>
6

>  <nAromBond>
6

>  <nAtom>
45

>  <nHeavyAtom>
20

>  <nSpiro>
0

>  <nBridgehead>
2

>  <nHetero>
2

>  <nN>
1

>  <nO>
1

>  <nF>
0

>  <BalabanJ>
1.68

>  <BertzCT>
526.15

>  <nBonds>
48

>  <nBondsO>
23

>  <nBondsS>
42

>  <nBondsD>
0

>  <nBondsT>
0

>  <nBondsA>
6

>  <nBondsM>
6

>  <nBondsKS>
45

>  <nBondsKD>
3

>  <RNCG>
0.4

>  <RPCG>
0.1

>  <FCSP3>
0.67

>  <SZ>
24.67

>  <Sm>
22.6

>  <Sv>
26.25

>  <Sse>
44.09

>  <Sp>
29.12

>  <Si>
50.69

>  <MZ>
0.55

>  <Mm>
0.5

>  <Mv>
0.58

>  <Mse>
0.98

>  <Mp>
0.65

>  <Mi>
1.13

>  <NsCH3>
2

>  <NdCH2>
0

>  <NssCH2>
7

>  <NtCH>
0

>  <NdsCH>
0

>  <NaaCH>
3

>  <NsssCH>
2

>  <NddC>
0

>  <NtsC>
0

>  <NdssC>
0

>  <NaasC>
3

>  <NaaaC>
0

>  <NssssC>
1

>  <NsNH3>
0

>  <NsNH2>
0

>  <NssNH2>
0

>  <NdNH>
0

>  <NssNH>
0

>  <NaaNH>
0

>  <NtN>
0

>  <NsssNH>
0

>  <NdsN>
0

>  <NaaN>
0

>  <NsssN>
1

>  <NddsN>
0

>  <NaasN>
0

>  <NssssN>
0

>  <NsOH>
0

>  <NdO>
0

>  <NssO>
1

>  <NaaO>
0

>  <NsF>
0

>  <NsSiH3>
0

>  <NssSiH2>
0

>  <NsssSiH>
0

>  <NssssSi>
0

>  <NsPH2>
0

>  <NssPH>
0

>  <NsssP>
0

>  <NdsssP>
0

>  <NsssssP>
0

>  <NsSH>
0

>  <NdS>
0

>  <NssS>
0

>  <NaaS>
0

>  <NdssS>
0

>  <NddssS>
0

>  <NsCl>
0

>  <NsBr>
0

>  <NsI>
0

>  <fragCpx>
149.02

>  <fMF>
0.38

>  <nHBAcc>
2

>  <nHBDon>
0

>  <Kier1>
13.65

>  <Kier2>
5.03

>  <Lipinski>
1

>  <GhoseFilter>
1

>  <FilterItLogS>
-4.09

>  <VMcGowan>
223.99

>  <LabuteASA>
121.67

>  <PEOE_VSA1>
9.64

>  <PEOE_VSA2>
0

>  <PEOE_VSA3>
0

>  <PEOE_VSA4>
0

>  <PEOE_VSA5>
0

>  <PEOE_VSA6>
18.91

>  <PEOE_VSA7>
68.45

>  <PEOE_VSA8>
11.46

>  <PEOE_VSA9>
7.11

>  <PEOE_VSA10>
5.75

>  <PEOE_VSA11>
0

>  <PEOE_VSA12>
0

>  <PEOE_VSA13>
0

>  <SMR_VSA1>
4.74

>  <SMR_VSA2>
0

>  <SMR_VSA3>
4.9

>  <SMR_VSA4>
5.92

>  <SMR_VSA5>
49.98

>  <SMR_VSA6>
20.7

>  <SMR_VSA7>
29.33

>  <SMR_VSA8>
0

>  <SMR_VSA9>
5.75

>  <SlogP_VSA1>
4.74

>  <SlogP_VSA2>
31.64

>  <SlogP_VSA3>
11.84

>  <SlogP_VSA4>
5.92

>  <SlogP_VSA5>
43.23

>  <SlogP_VSA6>
18.2

>  <SlogP_VSA7>
0

>  <SlogP_VSA8>
0

>  <SlogP_VSA9>
0

>  <SlogP_VSA10>
0

>  <SlogP_VSA11>
5.75

>  <EState_VSA1>
0

>  <EState_VSA2>
0

>  <EState_VSA3>
5.41

>  <EState_VSA4>
17.71

>  <EState_VSA5>
45.07

>  <EState_VSA6>
18.24

>  <EState_VSA7>
0

>  <EState_VSA8>
30.15

>  <EState_VSA9>
4.74

>  <EState_VSA10>
0

>  <VSA_EState1>
5.51

>  <VSA_EState2>
2.63

>  <VSA_EState3>
0

>  <VSA_EState4>
3.67

>  <VSA_EState5>
1.91

>  <VSA_EState6>
7.6

>  <VSA_EState7>
8.22

>  <VSA_EState8>
1.26

>  <VSA_EState9>
4.12

>  <apol>
48.63

>  <bpol>
28.53

>  <nRing>
4

>  <nHRing>
1

>  <naRing>
1

>  <naHRing>
0

>  <nARing 2>
3

>  <nAHRing 2>
1

>  <nFRing>
1

>  <nFHRing>
1

>  <nFaRing>
0

>  <nFaHRing>
0

>  <nFARing 2>
1

>  <nFAHRing 2>
1

>  <nRot>
1

>  <SLogP>
3.38

>  <SMR>
81.37

>  <TopoPSA(NO)>
12.47

>  <TopoPSA>
12.47

>  <JGI1>
0.2

>  <JGI2>
0.1

>  <JGI3>
0.04

>  <JGI4>
0.05

>  <JGI5>
0.03

>  <Diameter>
9

>  <Radius>
5

>  <TMWC10>
119.8

>  <TSRW10>
54.99

>  <MW>
271.19

>  <AMW>
6.03

>  <WPath>
682

>  <WPol>
41

>  <Zagreb1>
116

>  <Zagreb2>
146

>  <mZagreb2>
4.33

>  <yes>


>  <nAR-cont>
0.691115

>  <nHA-cont>
0.999629945

>  <MWHBN>
0.121448781

>  <MWHBN-cont>
0.835560886

>  <TPSA-cont>
0.912951657

>  <pka_cont>
0.97

>  <yes.1>


>  <BBB_SCORE>
5.254989587

>  <MMFF94 Energy>
62.797

$$$$
Compound 402
Actelion Java MolfileCreator 2.0

  0  0  0  0  0  0              0 V3000
M  V30 BEGIN CTAB
M  V30 COUNTS 30 30 0 0 0
M  V30 BEGIN ATOM
M  V30 1 S -0.8605 -1.1736 -2.7402 0
M  V30 2 C -1.0103 -0.3988 -1.2656 0
M  V30 3 N -0.3604 0.7311 -0.8399 0
M  V30 4 N -1.8933 -0.9477 -0.3778 0
M  V30 5 C 0.6883 1.4221 -1.4749 0
M  V30 6 C -2.2164 -0.5542 0.9839 0
M  V30 7 C 1.8388 0.7702 -1.9224 0
M  V30 8 C 0.6036 2.8141 -1.5636 0
M  V30 9 C -1.1364 -0.9517 1.9894 0
M  V30 10 C 2.8809 1.5028 -2.4947 0
M  V30 11 C 1.646 3.5455 -2.1365 0
M  V30 12 C -0.9747 -2.4689 2.1061 0
M  V30 13 C 2.7828 2.8891 -2.605 0
M  V30 14 C 0.0695 -2.8369 3.1484 0
M  V30 15 H -0.7575 1.2067 -0.0444 0
M  V30 16 H -2.3554 -1.7772 -0.7358 0
M  V30 17 H -3.1685 -1.0322 1.2387 0
M  V30 18 H -2.377 0.528 1.0106 0
M  V30 19 H 1.9447 -0.3058 -1.82 0
M  V30 20 H -0.2781 3.3389 -1.2069 0
M  V30 21 H -1.4082 -0.5426 2.9701 0
M  V30 22 H -0.1758 -0.5027 1.7116 0
M  V30 23 H 3.7701 0.9894 -2.8508 0
M  V30 24 H 1.5702 4.6264 -2.2191 0
M  V30 25 H -1.9328 -2.9252 2.3808 0
M  V30 26 H -0.6771 -2.8938 1.141 0
M  V30 27 H 3.5939 3.4571 -3.0532 0
M  V30 28 H 0.1697 -3.9246 3.2168 0
M  V30 29 H 1.0478 -2.4213 2.8868 0
M  V30 30 H -0.2117 -2.4591 4.1365 0
M  V30 END ATOM
M  V30 BEGIN BOND
M  V30 1 2 1 2
M  V30 2 1 2 3
M  V30 3 1 2 4
M  V30 4 1 3 5
M  V30 5 1 4 6
M  V30 6 2 5 7
M  V30 7 1 5 8
M  V30 8 1 6 9
M  V30 9 1 7 10
M  V30 10 2 8 11
M  V30 11 1 9 12
M  V30 12 2 10 13
M  V30 13 1 12 14
M  V30 14 1 11 13
M  V30 15 1 3 15
M  V30 16 1 4 16
M  V30 17 1 6 17
M  V30 18 1 6 18
M  V30 19 1 7 19
M  V30 20 1 8 20
M  V30 21 1 9 21
M  V30 22 1 9 22
M  V30 23 1 10 23
M  V30 24 1 11 24
M  V30 25 1 12 25
M  V30 26 1 12 26
M  V30 27 1 13 27
M  V30 28 1 14 28
M  V30 29 1 14 29
M  V30 30 1 14 30
M  V30 END BOND
M  V30 END CTAB
M  END
>  <Column 1>
501

>  <level_0>
564

>  <index>
564

>  <Unnamed: 0>
564

>  <NO.>
572

>  <Name>
1-butyl-3-phenylthiourea

>  <IUPAC_name>
1-butyl-3-phenylthiourea

>  <SMILES>
CCCCNC(=S)Nc1ccccc1

>  <CID>
3034183

>  <logBB>
0.03

>  <BBB+/BBB->
BBB+

>  <Inchi>
InChI=1S/C11H16N2S/c1-2-3-9-12-11(14)13-10-7-5-4-6-8-10/h4-8H-2-3-9H2-1H3-(H2-12-13-14)

>  <threshold>


>  <reference>
R2|R2|R20|R25|R27|R46|R11|

>  <group>
A

>  <Class>
1

>  <ABC>
10.01

>  <ABCGG>
8.91

>  <nAcid>
0

>  <nBase>
0

>  <nAromAtom>
6

>  <nAromBond>
6

>  <nAtom>
30

>  <nHeavyAtom>
14

>  <nSpiro>
0

>  <nBridgehead>
0

>  <nHetero>
3

>  <nN>
2

>  <nO>
0

>  <nF>
0

>  <BalabanJ>
2.03

>  <BertzCT>
271.88

>  <nBonds>
30

>  <nBondsO>
14

>  <nBondsS>
23

>  <nBondsD>
1

>  <nBondsT>
0

>  <nBondsA>
6

>  <nBondsM>
7

>  <nBondsKS>
26

>  <nBondsKD>
4

>  <RNCG>
0.31

>  <RPCG>
0.15

>  <FCSP3>
0.36

>  <SZ>
18.67

>  <Sm>
17.34

>  <Sv>
18.04

>  <Sse>
29.51

>  <Sp>
20.44

>  <Si>
33.82

>  <MZ>
0.62

>  <Mm>
0.58

>  <Mv>
0.6

>  <Mse>
0.98

>  <Mp>
0.68

>  <Mi>
1.13

>  <NsCH3>
1

>  <NdCH2>
0

>  <NssCH2>
3

>  <NtCH>
0

>  <NdsCH>
0

>  <NaaCH>
5

>  <NsssCH>
0

>  <NddC>
0

>  <NtsC>
0

>  <NdssC>
1

>  <NaasC>
1

>  <NaaaC>
0

>  <NssssC>
0

>  <NsNH3>
0

>  <NsNH2>
0

>  <NssNH2>
0

>  <NdNH>
0

>  <NssNH>
2

>  <NaaNH>
0

>  <NtN>
0

>  <NsssNH>
0

>  <NdsN>
0

>  <NaaN>
0

>  <NsssN>
0

>  <NddsN>
0

>  <NaasN>
0

>  <NssssN>
0

>  <NsOH>
0

>  <NdO>
0

>  <NssO>
0

>  <NaaO>
0

>  <NsF>
0

>  <NsSiH3>
0

>  <NssSiH2>
0

>  <NsssSiH>
0

>  <NssssSi>
0

>  <NsPH2>
0

>  <NssPH>
0

>  <NsssP>
0

>  <NdsssP>
0

>  <NsssssP>
0

>  <NsSH>
0

>  <NdS>
1

>  <NssS>
0

>  <NaaS>
0

>  <NdssS>
0

>  <NddssS>
0

>  <NsCl>
0

>  <NsBr>
0

>  <NsI>
0

>  <fragCpx>
14.03

>  <fMF>
0.2

>  <nHBAcc>
1

>  <nHBDon>
2

>  <Kier1>
12.07

>  <Kier2>
7.31

>  <Lipinski>
1

>  <GhoseFilter>
1

>  <FilterItLogS>
-3.5

>  <VMcGowan>
174.1

>  <LabuteASA>
90.71

>  <PEOE_VSA1>
10.63

>  <PEOE_VSA2>
0

>  <PEOE_VSA3>
0

>  <PEOE_VSA4>
0

>  <PEOE_VSA5>
0

>  <PEOE_VSA6>
31.54

>  <PEOE_VSA7>
30.77

>  <PEOE_VSA8>
12.23

>  <PEOE_VSA9>
0

>  <PEOE_VSA10>
0

>  <PEOE_VSA11>
5.11

>  <PEOE_VSA12>
0

>  <PEOE_VSA13>
0

>  <SMR_VSA1>
0

>  <SMR_VSA2>
0

>  <SMR_VSA3>
5.32

>  <SMR_VSA4>
0

>  <SMR_VSA5>
19.77

>  <SMR_VSA6>
11.86

>  <SMR_VSA7>
30.33

>  <SMR_VSA8>
0

>  <SMR_VSA9>
0

>  <SlogP_VSA1>
10.63

>  <SlogP_VSA2>
11.66

>  <SlogP_VSA3>
0

>  <SlogP_VSA4>
0

>  <SlogP_VSA5>
19.77

>  <SlogP_VSA6>
30.33

>  <SlogP_VSA7>
0

>  <SlogP_VSA8>
0

>  <SlogP_VSA9>
0

>  <SlogP_VSA10>
5.69

>  <SlogP_VSA11>
0

>  <EState_VSA1>
0

>  <EState_VSA2>
0

>  <EState_VSA3>
5.11

>  <EState_VSA4>
18.65

>  <EState_VSA5>
6.42

>  <EState_VSA6>
0

>  <EState_VSA7>
30.33

>  <EState_VSA8>
17.56

>  <EState_VSA9>
12.22

>  <EState_VSA10>
0

>  <VSA_EState1>
0

>  <VSA_EState2>
0

>  <VSA_EState3>
6.97

>  <VSA_EState4>
1.03

>  <VSA_EState5>
0

>  <VSA_EState6>
9.94

>  <VSA_EState7>
2.33

>  <VSA_EState8>
3.1

>  <VSA_EState9>
0

>  <apol>
34.14

>  <bpol>
18.42

>  <nRing>
1

>  <nHRing>
0

>  <naRing>
1

>  <naHRing>
0

>  <nARing 2>
0

>  <nAHRing 2>
0

>  <nFRing>
0

>  <nFHRing>
0

>  <nFaRing>
0

>  <nFaHRing>
0

>  <nFARing 2>
0

>  <nFAHRing 2>
0

>  <nRot>
4

>  <SLogP>
2.77

>  <SMR>
65.57

>  <TopoPSA(NO)>
24.06

>  <TopoPSA>
56.15

>  <JGI1>
0.14

>  <JGI2>
0.04

>  <JGI3>
0.04

>  <JGI4>
0.03

>  <JGI5>
0.02

>  <Diameter>
10

>  <Radius>
5

>  <TMWC10>
92.47

>  <TSRW10>
43.9

>  <MW>
208.1

>  <AMW>
6.94

>  <WPath>
364

>  <WPol>
14

>  <Zagreb1>
60

>  <Zagreb2>
63

>  <mZagreb2>
3.42

>  <yes>


>  <nAR-cont>
0.336376

>  <nHA-cont>
0.887625254

>  <MWHBN>
0.207962589

>  <MWHBN-cont>
0.999714915

>  <TPSA-cont>
0.608038133

>  <pka_cont>
0.97

>  <yes.1>


>  <BBB_SCORE>
4.424649893

>  <MMFF94 Energy>
-37.112

$$$$
Compound 403
Actelion Java MolfileCreator 2.0

  0  0  0  0  0  0              0 V3000
M  V30 BEGIN CTAB
M  V30 COUNTS 4 3 0 0 0
M  V30 BEGIN ATOM
M  V30 1 O 0.4339 0.7957 -0.2169 0
M  V30 2 N -0.4485 -0.3113 -0.1572 0 CHG=1
M  V30 3 N -1.1093 -1.1695 -0.0974 0
M  V30 4 H 1.2109 0.6046 0.3304 0
M  V30 END ATOM
M  V30 BEGIN BOND
M  V30 1 1 1 2
M  V30 2 3 2 3
M  V30 3 1 1 4
M  V30 END BOND
M  V30 END CTAB
M  END
>  <Column 1>
502

>  <level_0>
565

>  <index>
565

>  <Unnamed: 0>
565

>  <NO.>
573

>  <Name>
nitrous oxide;99%

>  <IUPAC_name>


>  <SMILES>
N#[N+]O

>  <CID>
6455345

>  <logBB>
0.03

>  <BBB+/BBB->
BBB+

>  <Inchi>
InChI=1S/N2O/c1-2-3/p+1

>  <threshold>


>  <reference>
R12|

>  <group>
A

>  <Class>
1

>  <ABC>
1.41

>  <ABCGG>
1.41

>  <nAcid>
0

>  <nBase>
1

>  <nAromAtom>
0

>  <nAromBond>
0

>  <nAtom>
4

>  <nHeavyAtom>
3

>  <nSpiro>
0

>  <nBridgehead>
0

>  <nHetero>
3

>  <nN>
2

>  <nO>
1

>  <nF>
0

>  <BalabanJ>
1.63

>  <BertzCT>
24.26

>  <nBonds>
3

>  <nBondsO>
2

>  <nBondsS>
2

>  <nBondsD>
0

>  <nBondsT>
1

>  <nBondsA>
0

>  <nBondsM>
1

>  <nBondsKS>
2

>  <nBondsKD>
0

>  <RNCG>
1

>  <RPCG>
0.4

>  <FCSP3>
0

>  <SZ>
3.83

>  <Sm>
3.75

>  <Sv>
2.5

>  <Sse>
4.6

>  <Sp>
2.2

>  <Si>
5

>  <MZ>
0.96

>  <Mm>
0.94

>  <Mv>
0.63

>  <Mse>
1.15

>  <Mp>
0.55

>  <Mi>
1.25

>  <NsCH3>
0

>  <NdCH2>
0

>  <NssCH2>
0

>  <NtCH>
0

>  <NdsCH>
0

>  <NaaCH>
0

>  <NsssCH>
0

>  <NddC>
0

>  <NtsC>
0

>  <NdssC>
0

>  <NaasC>
0

>  <NaaaC>
0

>  <NssssC>
0

>  <NsNH3>
0

>  <NsNH2>
0

>  <NssNH2>
0

>  <NdNH>
0

>  <NssNH>
0

>  <NaaNH>
0

>  <NtN>
1

>  <NsssNH>
0

>  <NdsN>
0

>  <NaaN>
0

>  <NsssN>
0

>  <NddsN>
0

>  <NaasN>
0

>  <NssssN>
0

>  <NsOH>
1

>  <NdO>
0

>  <NssO>
0

>  <NaaO>
0

>  <NsF>
0

>  <NsSiH3>
0

>  <NssSiH2>
0

>  <NsssSiH>
0

>  <NssssSi>
0

>  <NsPH2>
0

>  <NssPH>
0

>  <NsssP>
0

>  <NdsssP>
0

>  <NsssssP>
0

>  <NsSH>
0

>  <NdS>
0

>  <NssS>
0

>  <NaaS>
0

>  <NdssS>
0

>  <NddssS>
0

>  <NsCl>
0

>  <NsBr>
0

>  <NsI>
0

>  <fragCpx>
2.03

>  <fMF>
0

>  <nHBAcc>
2

>  <nHBDon>
1

>  <Kier1>
3

>  <Kier2>
2

>  <Lipinski>
1

>  <GhoseFilter>
0

>  <FilterItLogS>
0.83

>  <VMcGowan>
30.24

>  <LabuteASA>
17.08

>  <PEOE_VSA1>
0

>  <PEOE_VSA2>
0

>  <PEOE_VSA3>
0

>  <PEOE_VSA4>
0

>  <PEOE_VSA5>
5.21

>  <PEOE_VSA6>
0

>  <PEOE_VSA7>
0

>  <PEOE_VSA8>
0

>  <PEOE_VSA9>
0

>  <PEOE_VSA10>
0

>  <PEOE_VSA11>
0

>  <PEOE_VSA12>
0

>  <PEOE_VSA13>
5.39

>  <SMR_VSA1>
5.21

>  <SMR_VSA2>
5.39

>  <SMR_VSA3>
0

>  <SMR_VSA4>
0

>  <SMR_VSA5>
0

>  <SMR_VSA6>
0

>  <SMR_VSA7>
5.14

>  <SMR_VSA8>
0

>  <SMR_VSA9>
0

>  <SlogP_VSA1>
0

>  <SlogP_VSA2>
5.21

>  <SlogP_VSA3>
0

>  <SlogP_VSA4>
5.39

>  <SlogP_VSA5>
0

>  <SlogP_VSA6>
0

>  <SlogP_VSA7>
0

>  <SlogP_VSA8>
5.14

>  <SlogP_VSA9>
0

>  <SlogP_VSA10>
0

>  <SlogP_VSA11>
0

>  <EState_VSA1>
0

>  <EState_VSA2>
0

>  <EState_VSA3>
0

>  <EState_VSA4>
0

>  <EState_VSA5>
5.14

>  <EState_VSA6>
0

>  <EState_VSA7>
0

>  <EState_VSA8>
0

>  <EState_VSA9>
10.6

>  <EState_VSA10>
0

>  <VSA_EState1>
0

>  <VSA_EState2>
0

>  <VSA_EState3>
15

>  <VSA_EState4>
0

>  <VSA_EState5>
0

>  <VSA_EState6>
0

>  <VSA_EState7>
0

>  <VSA_EState8>
0

>  <VSA_EState9>
0

>  <apol>
3.67

>  <bpol>
0.43

>  <nRing>
0

>  <nHRing>
0

>  <naRing>
0

>  <naHRing>
0

>  <nARing 2>
0

>  <nAHRing 2>
0

>  <nFRing>
0

>  <nFHRing>
0

>  <nFaRing>
0

>  <nFaHRing>
0

>  <nFARing 2>
0

>  <nFAHRing 2>
0

>  <nRot>
0

>  <SLogP>
0.23

>  <SMR>
6.87

>  <TopoPSA(NO)>
48.38

>  <TopoPSA>
48.38

>  <JGI1>
0.25

>  <JGI2>
0

>  <JGI3>
0

>  <JGI4>
0

>  <JGI5>
0

>  <Diameter>
2

>  <Radius>
1

>  <TMWC10>
33.9

>  <TSRW10>
17.31

>  <MW>
45.01

>  <AMW>
11.25

>  <WPath>
4

>  <WPol>
0

>  <Zagreb1>
6

>  <Zagreb2>
4

>  <mZagreb2>
1

>  <yes>


>  <nAR-cont>
0.336376

>  <nHA-cont>
0

>  <MWHBN>
0.447163913

>  <MWHBN-cont>
0.296112212

>  <TPSA-cont>
0.662277558

>  <pka_cont>
0.97

>  <yes.1>


>  <BBB_SCORE>
2.590099433

>  <MMFF94 Energy>
-16.229

$$$$
Compound 404
Actelion Java MolfileCreator 2.0

  0  0  0  0  0  0              0 V3000
M  V30 BEGIN CTAB
M  V30 COUNTS 18 17 0 0 0
M  V30 BEGIN ATOM
M  V30 1 O -1.2103 -1.6645 2.1947 0
M  V30 2 C -1.1222 -0.5261 1.3469 0
M  V30 3 C 0.1537 -0.6302 0.5204 0
M  V30 4 C 0.4239 0.6015 -0.3584 0
M  V30 5 C 1.7897 0.4672 -1.0357 0
M  V30 6 C -0.6594 0.8105 -1.4171 0
M  V30 7 H -2.0281 -1.5715 2.7125 0
M  V30 8 H -1.1101 0.3718 1.9725 0
M  V30 9 H -2.0112 -0.5088 0.7104 0
M  V30 10 H 0.9987 -0.7849 1.2045 0
M  V30 11 H 0.1101 -1.5374 -0.0963 0
M  V30 12 H 0.4533 1.4915 0.2828 0
M  V30 13 H 2.5848 0.3588 -0.2905 0
M  V30 14 H 1.8219 -0.406 -1.696 0
M  V30 15 H 2.0157 1.3548 -1.636 0
M  V30 16 H -1.6277 1.0315 -0.958 0
M  V30 17 H -0.7747 -0.0773 -2.0477 0
M  V30 18 H -0.409 1.656 -2.0669 0
M  V30 END ATOM
M  V30 BEGIN BOND
M  V30 1 1 1 2
M  V30 2 1 2 3
M  V30 3 1 3 4
M  V30 4 1 4 5
M  V30 5 1 4 6
M  V30 6 1 1 7
M  V30 7 1 2 8
M  V30 8 1 2 9
M  V30 9 1 3 10
M  V30 10 1 3 11
M  V30 11 1 4 12
M  V30 12 1 5 13
M  V30 13 1 5 14
M  V30 14 1 5 15
M  V30 15 1 6 16
M  V30 16 1 6 17
M  V30 17 1 6 18
M  V30 END BOND
M  V30 END CTAB
M  END
>  <Column 1>
503

>  <level_0>
566

>  <index>
566

>  <Unnamed: 0>
566

>  <NO.>
576

>  <Name>
3-methyl-1-butanol (isopentanol)

>  <IUPAC_name>
3-methylbutan-1-ol

>  <SMILES>
CC(C)CCO

>  <CID>
31260

>  <logBB>
0.04

>  <BBB+/BBB->
BBB+

>  <Inchi>
InChI=1S/C5H12O/c1-5(2)3-4-6/h5-6H-3-4H2-1-2H3

>  <threshold>


>  <reference>
R25|R40|R2|R2|R27|R46|R47|

>  <group>
A

>  <Class>
1

>  <ABC>
3.75

>  <ABCGG>
4.06

>  <nAcid>
0

>  <nBase>
0

>  <nAromAtom>
0

>  <nAromBond>
0

>  <nAtom>
18

>  <nHeavyAtom>
6

>  <nSpiro>
0

>  <nBridgehead>
0

>  <nHetero>
1

>  <nN>
0

>  <nO>
1

>  <nF>
0

>  <BalabanJ>
2.63

>  <BertzCT>
25.12

>  <nBonds>
17

>  <nBondsO>
5

>  <nBondsS>
17

>  <nBondsD>
0

>  <nBondsT>
0

>  <nBondsA>
0

>  <nBondsM>
0

>  <nBondsKS>
17

>  <nBondsKD>
0

>  <RNCG>
0.67

>  <RPCG>
0.35

>  <FCSP3>
1

>  <SZ>
8.33

>  <Sm>
7.34

>  <Sv>
8.97

>  <Sse>
17.66

>  <Sp>
10.27

>  <Si>
20.7

>  <MZ>
0.46

>  <Mm>
0.41

>  <Mv>
0.5

>  <Mse>
0.98

>  <Mp>
0.57

>  <Mi>
1.15

>  <NsCH3>
2

>  <NdCH2>
0

>  <NssCH2>
2

>  <NtCH>
0

>  <NdsCH>
0

>  <NaaCH>
0

>  <NsssCH>
1

>  <NddC>
0

>  <NtsC>
0

>  <NdssC>
0

>  <NaasC>
0

>  <NaaaC>
0

>  <NssssC>
0

>  <NsNH3>
0

>  <NsNH2>
0

>  <NssNH2>
0

>  <NdNH>
0

>  <NssNH>
0

>  <NaaNH>
0

>  <NtN>
0

>  <NsssNH>
0

>  <NdsN>
0

>  <NaaN>
0

>  <NsssN>
0

>  <NddsN>
0

>  <NaasN>
0

>  <NssssN>
0

>  <NsOH>
1

>  <NdO>
0

>  <NssO>
0

>  <NaaO>
0

>  <NsF>
0

>  <NsSiH3>
0

>  <NssSiH2>
0

>  <NsssSiH>
0

>  <NssssSi>
0

>  <NsPH2>
0

>  <NssPH>
0

>  <NsssP>
0

>  <NdsssP>
0

>  <NsssssP>
0

>  <NsSH>
0

>  <NdS>
0

>  <NssS>
0

>  <NaaS>
0

>  <NdssS>
0

>  <NddssS>
0

>  <NsCl>
0

>  <NsBr>
0

>  <NsI>
0

>  <fragCpx>
5.01

>  <fMF>
0

>  <nHBAcc>
1

>  <nHBDon>
1

>  <Kier1>
6

>  <Kier2>
3.2

>  <Lipinski>
1

>  <GhoseFilter>
0

>  <FilterItLogS>
-0.84

>  <VMcGowan>
87.18

>  <LabuteASA>
38.99

>  <PEOE_VSA1>
5.11

>  <PEOE_VSA2>
0

>  <PEOE_VSA3>
0

>  <PEOE_VSA4>
0

>  <PEOE_VSA5>
0

>  <PEOE_VSA6>
13.85

>  <PEOE_VSA7>
12.34

>  <PEOE_VSA8>
6.61

>  <PEOE_VSA9>
0

>  <PEOE_VSA10>
0

>  <PEOE_VSA11>
0

>  <PEOE_VSA12>
0

>  <PEOE_VSA13>
0

>  <SMR_VSA1>
5.11

>  <SMR_VSA2>
0

>  <SMR_VSA3>
0

>  <SMR_VSA4>
5.92

>  <SMR_VSA5>
20.27

>  <SMR_VSA6>
6.61

>  <SMR_VSA7>
0

>  <SMR_VSA8>
0

>  <SMR_VSA9>
0

>  <SlogP_VSA1>
0

>  <SlogP_VSA2>
11.71

>  <SlogP_VSA3>
0

>  <SlogP_VSA4>
5.92

>  <SlogP_VSA5>
20.27

>  <SlogP_VSA6>
0

>  <SlogP_VSA7>
0

>  <SlogP_VSA8>
0

>  <SlogP_VSA9>
0

>  <SlogP_VSA10>
0

>  <SlogP_VSA11>
0

>  <EState_VSA1>
0

>  <EState_VSA2>
0

>  <EState_VSA3>
12.52

>  <EState_VSA4>
6.42

>  <EState_VSA5>
0

>  <EState_VSA6>
0

>  <EState_VSA7>
0

>  <EState_VSA8>
13.85

>  <EState_VSA9>
5.11

>  <EState_VSA10>
0

>  <VSA_EState1>
0

>  <VSA_EState2>
0

>  <VSA_EState3>
8.24

>  <VSA_EState4>
0

>  <VSA_EState5>
0.65

>  <VSA_EState6>
0

>  <VSA_EState7>
0.93

>  <VSA_EState8>
4.52

>  <VSA_EState9>
0

>  <apol>
17.15

>  <bpol>
12.04

>  <nRing>
0

>  <nHRing>
0

>  <naRing>
0

>  <naHRing>
0

>  <nARing 2>
0

>  <nAHRing 2>
0

>  <nFRing>
0

>  <nFHRing>
0

>  <nFaRing>
0

>  <nFaHRing>
0

>  <nFARing 2>
0

>  <nFAHRing 2>
0

>  <nRot>
2

>  <SLogP>
1.02

>  <SMR>
26.54

>  <TopoPSA(NO)>
20.23

>  <TopoPSA>
20.23

>  <JGI1>
0.3

>  <JGI2>
0.09

>  <JGI3>
0.08

>  <JGI4>
0

>  <JGI5>
0

>  <Diameter>
4

>  <Radius>
2

>  <TMWC10>
60.96

>  <TSRW10>
29.44

>  <MW>
88.09

>  <AMW>
4.89

>  <WPath>
32

>  <WPol>
3

>  <Zagreb1>
20

>  <Zagreb2>
18

>  <mZagreb2>
1.58

>  <yes>


>  <nAR-cont>
0.336376

>  <nHA-cont>
0.238778273

>  <MWHBN>
0.213091777

>  <MWHBN-cont>
0.998393358

>  <TPSA-cont>
0.858782038

>  <pka_cont>
0.97

>  <yes.1>


>  <BBB_SCORE>
4.275308386

>  <MMFF94 Energy>
3.3449

$$$$
Compound 405
Actelion Java MolfileCreator 2.0

  0  0  0  0  0  0              0 V3000
M  V30 BEGIN CTAB
M  V30 COUNTS 18 17 0 0 0
M  V30 BEGIN ATOM
M  V30 1 O -1.6651 -1.9681 0.1512 0
M  V30 2 C -1.0417 -0.8442 -0.4586 0
M  V30 3 C 0.0611 -0.2962 0.4557 0 CFG=2
M  V30 4 C 0.7397 0.953 -0.1336 0
M  V30 5 C 1.1189 -1.3724 0.7319 0
M  V30 6 C -0.1945 2.1459 -0.2786 0
M  V30 7 H -2.3504 -2.2823 -0.4628 0
M  V30 8 H -0.6317 -1.1564 -1.425 0
M  V30 9 H -1.8187 -0.0947 -0.6337 0
M  V30 10 H -0.3887 -0.0355 1.4228 0
M  V30 11 H 1.5701 1.2515 0.5186 0
M  V30 12 H 1.1769 0.718 -1.1117 0
M  V30 13 H 1.5948 -1.7066 -0.1962 0
M  V30 14 H 1.9018 -0.9866 1.3938 0
M  V30 15 H 0.6783 -2.2466 1.2219 0
M  V30 16 H -0.6862 2.3784 0.6712 0
M  V30 17 H -0.9642 1.9658 -1.0343 0
M  V30 18 H 0.3719 3.0292 -0.5912 0
M  V30 END ATOM
M  V30 BEGIN BOND
M  V30 1 1 1 2
M  V30 2 1 2 3
M  V30 3 1 3 4
M  V30 4 1 3 5
M  V30 5 1 4 6
M  V30 6 1 1 7
M  V30 7 1 2 8
M  V30 8 1 2 9
M  V30 9 1 3 10
M  V30 10 1 4 11
M  V30 11 1 4 12
M  V30 12 1 5 13
M  V30 13 1 5 14
M  V30 14 1 5 15
M  V30 15 1 6 16
M  V30 16 1 6 17
M  V30 17 1 6 18
M  V30 END BOND
M  V30 BEGIN COLLECTION
M  V30 MDLV30/STERAC1 ATOMS=(1 3)
M  V30 END COLLECTION
M  V30 END CTAB
M  END
>  <Column 1>
504

>  <level_0>
567

>  <index>
567

>  <Unnamed: 0>
567

>  <NO.>
577

>  <Name>
2-methyl-1-butanol

>  <IUPAC_name>
2-methylbutan-1-ol

>  <SMILES>
CCC(C)CO

>  <CID>
8723

>  <logBB>
0.04

>  <BBB+/BBB->
BBB+

>  <Inchi>
InChI=1S/C5H12O/c1-3-5(2)4-6/h5-6H-3-4H2-1-2H3

>  <threshold>


>  <reference>
R41|R3|R38|R2|R2|R8|R27|R21|R25|R27|R43|R46|

>  <group>
A

>  <Class>
1

>  <ABC>
3.64

>  <ABCGG>
4.1

>  <nAcid>
0

>  <nBase>
0

>  <nAromAtom>
0

>  <nAromBond>
0

>  <nAtom>
18

>  <nHeavyAtom>
6

>  <nSpiro>
0

>  <nBridgehead>
0

>  <nHetero>
1

>  <nN>
0

>  <nO>
1

>  <nF>
0

>  <BalabanJ>
2.75

>  <BertzCT>
23.12

>  <nBonds>
17

>  <nBondsO>
5

>  <nBondsS>
17

>  <nBondsD>
0

>  <nBondsT>
0

>  <nBondsA>
0

>  <nBondsM>
0

>  <nBondsKS>
17

>  <nBondsKD>
0

>  <RNCG>
0.67

>  <RPCG>
0.35

>  <FCSP3>
1

>  <SZ>
8.33

>  <Sm>
7.34

>  <Sv>
8.97

>  <Sse>
17.66

>  <Sp>
10.27

>  <Si>
20.7

>  <MZ>
0.46

>  <Mm>
0.41

>  <Mv>
0.5

>  <Mse>
0.98

>  <Mp>
0.57

>  <Mi>
1.15

>  <NsCH3>
2

>  <NdCH2>
0

>  <NssCH2>
2

>  <NtCH>
0

>  <NdsCH>
0

>  <NaaCH>
0

>  <NsssCH>
1

>  <NddC>
0

>  <NtsC>
0

>  <NdssC>
0

>  <NaasC>
0

>  <NaaaC>
0

>  <NssssC>
0

>  <NsNH3>
0

>  <NsNH2>
0

>  <NssNH2>
0

>  <NdNH>
0

>  <NssNH>
0

>  <NaaNH>
0

>  <NtN>
0

>  <NsssNH>
0

>  <NdsN>
0

>  <NaaN>
0

>  <NsssN>
0

>  <NddsN>
0

>  <NaasN>
0

>  <NssssN>
0

>  <NsOH>
1

>  <NdO>
0

>  <NssO>
0

>  <NaaO>
0

>  <NsF>
0

>  <NsSiH3>
0

>  <NssSiH2>
0

>  <NsssSiH>
0

>  <NssssSi>
0

>  <NsPH2>
0

>  <NssPH>
0

>  <NsssP>
0

>  <NdsssP>
0

>  <NsssssP>
0

>  <NsSH>
0

>  <NdS>
0

>  <NssS>
0

>  <NaaS>
0

>  <NdssS>
0

>  <NddssS>
0

>  <NsCl>
0

>  <NsBr>
0

>  <NsI>
0

>  <fragCpx>
5.01

>  <fMF>
0

>  <nHBAcc>
1

>  <nHBDon>
1

>  <Kier1>
6

>  <Kier2>
3.2

>  <Lipinski>
1

>  <GhoseFilter>
0

>  <FilterItLogS>
-0.84

>  <VMcGowan>
87.18

>  <LabuteASA>
38.99

>  <PEOE_VSA1>
5.11

>  <PEOE_VSA2>
0

>  <PEOE_VSA3>
0

>  <PEOE_VSA4>
0

>  <PEOE_VSA5>
0

>  <PEOE_VSA6>
20.27

>  <PEOE_VSA7>
5.92

>  <PEOE_VSA8>
6.61

>  <PEOE_VSA9>
0

>  <PEOE_VSA10>
0

>  <PEOE_VSA11>
0

>  <PEOE_VSA12>
0

>  <PEOE_VSA13>
0

>  <SMR_VSA1>
5.11

>  <SMR_VSA2>
0

>  <SMR_VSA3>
0

>  <SMR_VSA4>
5.92

>  <SMR_VSA5>
20.27

>  <SMR_VSA6>
6.61

>  <SMR_VSA7>
0

>  <SMR_VSA8>
0

>  <SMR_VSA9>
0

>  <SlogP_VSA1>
0

>  <SlogP_VSA2>
11.71

>  <SlogP_VSA3>
0

>  <SlogP_VSA4>
5.92

>  <SlogP_VSA5>
20.27

>  <SlogP_VSA6>
0

>  <SlogP_VSA7>
0

>  <SlogP_VSA8>
0

>  <SlogP_VSA9>
0

>  <SlogP_VSA10>
0

>  <SlogP_VSA11>
0

>  <EState_VSA1>
0

>  <EState_VSA2>
0

>  <EState_VSA3>
12.52

>  <EState_VSA4>
6.42

>  <EState_VSA5>
0

>  <EState_VSA6>
0

>  <EState_VSA7>
6.92

>  <EState_VSA8>
6.92

>  <EState_VSA9>
5.11

>  <EState_VSA10>
0

>  <VSA_EState1>
0

>  <VSA_EState2>
0

>  <VSA_EState3>
8.33

>  <VSA_EState4>
0

>  <VSA_EState5>
0.49

>  <VSA_EState6>
0

>  <VSA_EState7>
1.08

>  <VSA_EState8>
4.43

>  <VSA_EState9>
0

>  <apol>
17.15

>  <bpol>
12.04

>  <nRing>
0

>  <nHRing>
0

>  <naRing>
0

>  <naHRing>
0

>  <nARing 2>
0

>  <nAHRing 2>
0

>  <nFRing>
0

>  <nFHRing>
0

>  <nFaRing>
0

>  <nFaHRing>
0

>  <nFARing 2>
0

>  <nFAHRing 2>
0

>  <nRot>
2

>  <SLogP>
1.02

>  <SMR>
26.54

>  <TopoPSA(NO)>
20.23

>  <TopoPSA>
20.23

>  <JGI1>
0.3

>  <JGI2>
0.13

>  <JGI3>
0.03

>  <JGI4>
0

>  <JGI5>
0

>  <Diameter>
4

>  <Radius>
2

>  <TMWC10>
61.67

>  <TSRW10>
29.75

>  <MW>
88.09

>  <AMW>
4.89

>  <WPath>
31

>  <WPol>
4

>  <Zagreb1>
20

>  <Zagreb2>
19

>  <mZagreb2>
1.67

>  <yes>


>  <nAR-cont>
0.336376

>  <nHA-cont>
0.238778273

>  <MWHBN>
0.213091777

>  <MWHBN-cont>
0.998393358

>  <TPSA-cont>
0.858782038

>  <pka_cont>
0.97

>  <yes.1>


>  <BBB_SCORE>
4.275308386

>  <MMFF94 Energy>
3.7786

$$$$
Compound 406
Actelion Java MolfileCreator 2.0

  0  0  0  0  0  0              0 V3000
M  V30 BEGIN CTAB
M  V30 COUNTS 29 29 0 0 0
M  V30 BEGIN ATOM
M  V30 1 O 1.9517 1.6392 -1.8735 0
M  V30 2 C 0.8873 1.676 -1.266 0
M  V30 3 N 0.6762 2.5823 -0.2727 0
M  V30 4 C -0.2585 0.7384 -1.5576 0
M  V30 5 C -0.2057 -0.5708 -0.7454 0 CFG=2
M  V30 6 O -1.2979 -1.3978 -1.2039 0
M  V30 7 C -0.4947 -0.2764 0.7357 0
M  V30 8 C 1.0952 -1.3897 -0.9661 0
M  V30 9 C -1.8199 -0.0643 1.1658 0
M  V30 10 C 0.5249 -0.1522 1.6956 0
M  V30 11 C 1.352 -1.8424 -2.4013 0
M  V30 12 C -2.1136 0.2483 2.4952 0
M  V30 13 C 0.2312 0.1618 3.0265 0
M  V30 14 C -1.0866 0.3618 3.4259 0
M  V30 15 H 1.4219 3.2269 -0.0464 0
M  V30 16 H -0.1523 2.5775 0.3093 0
M  V30 17 H -1.2066 1.2649 -1.3827 0
M  V30 18 H -0.2562 0.5305 -2.6347 0
M  V30 19 H -1.2177 -1.5022 -2.1659 0
M  V30 20 H 1.9737 -0.8241 -0.6366 0
M  V30 21 H 1.0543 -2.2961 -0.3469 0
M  V30 22 H -2.6426 -0.1551 0.4579 0
M  V30 23 H 1.57 -0.2867 1.4294 0
M  V30 24 H 2.2981 -2.392 -2.4504 0
M  V30 25 H 0.5671 -2.5137 -2.761 0
M  V30 26 H 1.429 -0.9938 -3.0862 0
M  V30 27 H -3.1461 0.3947 2.8017 0
M  V30 28 H 1.0365 0.2478 3.7519 0
M  V30 29 H -1.313 0.5992 4.4619 0
M  V30 END ATOM
M  V30 BEGIN BOND
M  V30 1 2 1 2
M  V30 2 1 2 3
M  V30 3 1 2 4
M  V30 4 1 4 5
M  V30 5 1 5 6
M  V30 6 1 5 7
M  V30 7 1 5 8
M  V30 8 2 7 9
M  V30 9 1 7 10
M  V30 10 1 8 11
M  V30 11 1 9 12
M  V30 12 2 10 13
M  V30 13 2 12 14
M  V30 14 1 13 14
M  V30 15 1 3 15
M  V30 16 1 3 16
M  V30 17 1 4 17
M  V30 18 1 4 18
M  V30 19 1 6 19
M  V30 20 1 8 20
M  V30 21 1 8 21
M  V30 22 1 9 22
M  V30 23 1 10 23
M  V30 24 1 11 24
M  V30 25 1 11 25
M  V30 26 1 11 26
M  V30 27 1 12 27
M  V30 28 1 13 28
M  V30 29 1 14 29
M  V30 END BOND
M  V30 BEGIN COLLECTION
M  V30 MDLV30/STERAC1 ATOMS=(1 5)
M  V30 END COLLECTION
M  V30 END CTAB
M  END
>  <Column 1>
505

>  <level_0>
568

>  <index>
568

>  <Unnamed: 0>
568

>  <NO.>
578

>  <Name>
hepp (beta-ethyl-beta-hydroxybenzenepropanamide) (3-hydroxy-3-phenylpentamide)

>  <IUPAC_name>
3-hydroxy-3-phenylpentanamide

>  <SMILES>
CCC(O)(CC(N)=O)c1ccccc1

>  <CID>
64814

>  <logBB>
0.04

>  <BBB+/BBB->
BBB+

>  <Inchi>
InChI=1S/C11H15NO2/c1-2-11(14-8-10(12)13)9-6-4-3-5-7-9/h3-7-14H-2-8H2-1H3-(H2-12-13)

>  <threshold>


>  <reference>
R2|R2|R8|R27|R40|R3|R21|R25|R27|R38|R41|R43|R46|R47|

>  <group>
A

>  <Class>
1

>  <ABC>
10.22

>  <ABCGG>
9.82

>  <nAcid>
0

>  <nBase>
0

>  <nAromAtom>
6

>  <nAromBond>
6

>  <nAtom>
29

>  <nHeavyAtom>
14

>  <nSpiro>
0

>  <nBridgehead>
0

>  <nHetero>
3

>  <nN>
1

>  <nO>
2

>  <nF>
0

>  <BalabanJ>
2.56

>  <BertzCT>
310.32

>  <nBonds>
29

>  <nBondsO>
14

>  <nBondsS>
22

>  <nBondsD>
1

>  <nBondsT>
0

>  <nBondsA>
6

>  <nBondsM>
7

>  <nBondsKS>
25

>  <nBondsKD>
4

>  <RNCG>
0.27

>  <RPCG>
0.15

>  <FCSP3>
0.36

>  <SZ>
17.33

>  <Sm>
16.09

>  <Sv>
17.25

>  <Sse>
28.98

>  <Sp>
18.61

>  <Si>
32.82

>  <MZ>
0.6

>  <Mm>
0.55

>  <Mv>
0.59

>  <Mse>
1

>  <Mp>
0.64

>  <Mi>
1.13

>  <NsCH3>
1

>  <NdCH2>
0

>  <NssCH2>
2

>  <NtCH>
0

>  <NdsCH>
0

>  <NaaCH>
5

>  <NsssCH>
0

>  <NddC>
0

>  <NtsC>
0

>  <NdssC>
1

>  <NaasC>
1

>  <NaaaC>
0

>  <NssssC>
1

>  <NsNH3>
0

>  <NsNH2>
1

>  <NssNH2>
0

>  <NdNH>
0

>  <NssNH>
0

>  <NaaNH>
0

>  <NtN>
0

>  <NsssNH>
0

>  <NdsN>
0

>  <NaaN>
0

>  <NsssN>
0

>  <NddsN>
0

>  <NaasN>
0

>  <NssssN>
0

>  <NsOH>
1

>  <NdO>
1

>  <NssO>
0

>  <NaaO>
0

>  <NsF>
0

>  <NsSiH3>
0

>  <NssSiH2>
0

>  <NsssSiH>
0

>  <NssssSi>
0

>  <NsPH2>
0

>  <NssPH>
0

>  <NsssP>
0

>  <NdsssP>
0

>  <NsssssP>
0

>  <NsSH>
0

>  <NdS>
0

>  <NssS>
0

>  <NaaS>
0

>  <NdssS>
0

>  <NddssS>
0

>  <NsCl>
0

>  <NsBr>
0

>  <NsI>
0

>  <fragCpx>
14.03

>  <fMF>
0.21

>  <nHBAcc>
2

>  <nHBDon>
2

>  <Kier1>
12.07

>  <Kier2>
5.19

>  <Lipinski>
1

>  <GhoseFilter>
1

>  <FilterItLogS>
-1.9

>  <VMcGowan>
159.51

>  <LabuteASA>
83.55

>  <PEOE_VSA1>
10.84

>  <PEOE_VSA2>
4.79

>  <PEOE_VSA3>
0

>  <PEOE_VSA4>
0

>  <PEOE_VSA5>
0

>  <PEOE_VSA6>
37.26

>  <PEOE_VSA7>
11.98

>  <PEOE_VSA8>
0

>  <PEOE_VSA9>
12.02

>  <PEOE_VSA10>
0

>  <PEOE_VSA11>
0

>  <PEOE_VSA12>
5.91

>  <PEOE_VSA13>
0

>  <SMR_VSA1>
9.9

>  <SMR_VSA2>
0

>  <SMR_VSA3>
0

>  <SMR_VSA4>
5.73

>  <SMR_VSA5>
25.37

>  <SMR_VSA6>
0

>  <SMR_VSA7>
35.9

>  <SMR_VSA8>
0

>  <SMR_VSA9>
0

>  <SlogP_VSA1>
5.73

>  <SlogP_VSA2>
11.01

>  <SlogP_VSA3>
10.4

>  <SlogP_VSA4>
0

>  <SlogP_VSA5>
25.33

>  <SlogP_VSA6>
30.33

>  <SlogP_VSA7>
0

>  <SlogP_VSA8>
0

>  <SlogP_VSA9>
0

>  <SlogP_VSA10>
0

>  <SlogP_VSA11>
0

>  <EState_VSA1>
11.51

>  <EState_VSA2>
6.42

>  <EState_VSA3>
6.42

>  <EState_VSA4>
5.56

>  <EState_VSA5>
0

>  <EState_VSA6>
12.13

>  <EState_VSA7>
25.12

>  <EState_VSA8>
0

>  <EState_VSA9>
5.73

>  <EState_VSA10>
9.9

>  <VSA_EState1>
0

>  <VSA_EState2>
10.81

>  <VSA_EState3>
10.16

>  <VSA_EState4>
4.71

>  <VSA_EState5>
-0.49

>  <VSA_EState6>
9.12

>  <VSA_EState7>
0.44

>  <VSA_EState8>
1.83

>  <VSA_EState9>
0

>  <apol>
31.08

>  <bpol>
15.35

>  <nRing>
1

>  <nHRing>
0

>  <naRing>
1

>  <naHRing>
0

>  <nARing 2>
0

>  <nAHRing 2>
0

>  <nFRing>
0

>  <nFHRing>
0

>  <nFaRing>
0

>  <nFaHRing>
0

>  <nFARing 2>
0

>  <nFAHRing 2>
0

>  <nRot>
4

>  <SLogP>
1.16

>  <SMR>
54.44

>  <TopoPSA(NO)>
63.32

>  <TopoPSA>
63.32

>  <JGI1>
0.29

>  <JGI2>
0.11

>  <JGI3>
0.06

>  <JGI4>
0.03

>  <JGI5>
0.03

>  <Diameter>
7

>  <Radius>
4

>  <TMWC10>
96.2

>  <TSRW10>
45.35

>  <MW>
193.11

>  <AMW>
6.66

>  <WPath>
296

>  <WPol>
19

>  <Zagreb1>
66

>  <Zagreb2>
74

>  <mZagreb2>
3.25

>  <yes>


>  <nAR-cont>
0.336376

>  <nHA-cont>
0.887625254

>  <MWHBN>
0.287844284

>  <MWHBN-cont>
0.875470103

>  <TPSA-cont>
0.557987081

>  <pka_cont>
0.97

>  <yes.1>


>  <BBB_SCORE>
4.13818057

>  <MMFF94 Energy>
3.0844

$$$$
Compound 407
Actelion Java MolfileCreator 2.0

  0  0  0  0  0  0              0 V3000
M  V30 BEGIN CTAB
M  V30 COUNTS 34 34 0 0 0
M  V30 BEGIN ATOM
M  V30 1 O -2.0333 -3.4429 2.6596 0
M  V30 2 C -1.3399 -2.6128 2.0825 0
M  V30 3 N -1.02 -1.4253 2.6597 0
M  V30 4 N -0.8941 -2.8129 0.8152 0
M  V30 5 C -0.2829 -0.4235 2.0947 0
M  V30 6 C -0.1703 -1.9291 0.0665 0
M  V30 7 O -0.1879 0.6621 2.6647 0
M  V30 8 C 0.4645 -0.7636 0.8114 0
M  V30 9 O -0.014 -2.1321 -1.1358 0
M  V30 10 C 0.5504 0.4864 -0.102 0
M  V30 11 C 1.8788 -1.2179 1.2868 0
M  V30 12 C -0.8191 1.036 -0.5436 0
M  V30 13 C 2.9107 -1.4556 0.19 0
M  V30 14 C -0.7188 2.3545 -1.3362 0
M  V30 15 C 0.0282 2.1874 -2.6601 0
M  V30 16 C -2.1216 2.9066 -1.6027 0
M  V30 17 H -1.4332 -1.235 3.5622 0
M  V30 18 H -1.225 -3.6451 0.347 0
M  V30 19 H 1.1245 0.2409 -1.0019 0
M  V30 20 H 1.1005 1.2826 0.4163 0
M  V30 21 H 1.7911 -2.1434 1.8722 0
M  V30 22 H 2.2911 -0.4683 1.9759 0
M  V30 23 H -1.4443 1.2132 0.3391 0
M  V30 24 H -1.3421 0.2867 -1.1501 0
M  V30 25 H 2.573 -2.2055 -0.5301 0
M  V30 26 H 3.8427 -1.8214 0.6339 0
M  V30 27 H 3.1483 -0.5332 -0.3471 0
M  V30 28 H -0.1791 3.0909 -0.7274 0
M  V30 29 H 1.0776 1.9258 -2.4959 0
M  V30 30 H -0.4271 1.4053 -3.2769 0
M  V30 31 H 0.0148 3.1204 -3.2339 0
M  V30 32 H -2.659 3.0751 -0.6635 0
M  V30 33 H -2.7122 2.2142 -2.2122 0
M  V30 34 H -2.0695 3.8642 -2.1316 0
M  V30 END ATOM
M  V30 BEGIN BOND
M  V30 1 2 1 2
M  V30 2 1 2 3
M  V30 3 1 2 4
M  V30 4 1 3 5
M  V30 5 1 4 6
M  V30 6 2 5 7
M  V30 7 1 5 8
M  V30 8 2 6 9
M  V30 9 1 8 10
M  V30 10 1 8 11
M  V30 11 1 10 12
M  V30 12 1 11 13
M  V30 13 1 12 14
M  V30 14 1 14 15
M  V30 15 1 14 16
M  V30 16 1 6 8
M  V30 17 1 3 17
M  V30 18 1 4 18
M  V30 19 1 10 19
M  V30 20 1 10 20
M  V30 21 1 11 21
M  V30 22 1 11 22
M  V30 23 1 12 23
M  V30 24 1 12 24
M  V30 25 1 13 25
M  V30 26 1 13 26
M  V30 27 1 13 27
M  V30 28 1 14 28
M  V30 29 1 15 29
M  V30 30 1 15 30
M  V30 31 1 15 31
M  V30 32 1 16 32
M  V30 33 1 16 33
M  V30 34 1 16 34
M  V30 END BOND
M  V30 END CTAB
M  END
>  <Column 1>
506

>  <level_0>
569

>  <index>
569

>  <Unnamed: 0>
569

>  <NO.>
579

>  <Name>
amobarbital

>  <IUPAC_name>
5-ethyl-5-(3-methylbutyl)-1-3-diazinane-2-4-6-trione

>  <SMILES>
CCC1(CCC(C)C)C(=O)NC(=O)NC1=O

>  <CID>
2164

>  <logBB>
0.04

>  <BBB+/BBB->
BBB+

>  <Inchi>
InChI=1S/C11H18N2O3/c1-4-11(6-5-7(2)3)8(14)12-10(16)13-9(11)15/h7H-4-6H2-1-3H3-(H2-12-13-14-15-16)

>  <threshold>


>  <reference>
R40|R3|R11|R12|R20|R25|R35|R36|R38|R39|R41|R43|R44|R46|R47|R2|R2|R27|R8|R21|R27|

>  <group>
A

>  <Class>
1

>  <ABC>
11.74

>  <ABCGG>
11.25

>  <nAcid>
0

>  <nBase>
0

>  <nAromAtom>
0

>  <nAromBond>
0

>  <nAtom>
34

>  <nHeavyAtom>
16

>  <nSpiro>
0

>  <nBridgehead>
0

>  <nHetero>
5

>  <nN>
2

>  <nO>
3

>  <nF>
0

>  <BalabanJ>
2.74

>  <BertzCT>
303.19

>  <nBonds>
34

>  <nBondsO>
16

>  <nBondsS>
31

>  <nBondsD>
3

>  <nBondsT>
0

>  <nBondsA>
0

>  <nBondsM>
3

>  <nBondsKS>
31

>  <nBondsKD>
3

>  <RNCG>
0.16

>  <RPCG>
0.19

>  <FCSP3>
0.73

>  <SZ>
20.33

>  <Sm>
18.84

>  <Sv>
19.54

>  <Sse>
34.31

>  <Sp>
20.95

>  <Si>
38.95

>  <MZ>
0.6

>  <Mm>
0.55

>  <Mv>
0.57

>  <Mse>
1.01

>  <Mp>
0.62

>  <Mi>
1.15

>  <NsCH3>
3

>  <NdCH2>
0

>  <NssCH2>
3

>  <NtCH>
0

>  <NdsCH>
0

>  <NaaCH>
0

>  <NsssCH>
1

>  <NddC>
0

>  <NtsC>
0

>  <NdssC>
3

>  <NaasC>
0

>  <NaaaC>
0

>  <NssssC>
1

>  <NsNH3>
0

>  <NsNH2>
0

>  <NssNH2>
0

>  <NdNH>
0

>  <NssNH>
2

>  <NaaNH>
0

>  <NtN>
0

>  <NsssNH>
0

>  <NdsN>
0

>  <NaaN>
0

>  <NsssN>
0

>  <NddsN>
0

>  <NaasN>
0

>  <NssssN>
0

>  <NsOH>
0

>  <NdO>
3

>  <NssO>
0

>  <NaaO>
0

>  <NsF>
0

>  <NsSiH3>
0

>  <NssSiH2>
0

>  <NsssSiH>
0

>  <NssssSi>
0

>  <NsPH2>
0

>  <NssPH>
0

>  <NsssP>
0

>  <NdsssP>
0

>  <NsssssP>
0

>  <NsSH>
0

>  <NdS>
0

>  <NssS>
0

>  <NaaS>
0

>  <NdssS>
0

>  <NddssS>
0

>  <NsCl>
0

>  <NsBr>
0

>  <NsI>
0

>  <fragCpx>
16.05

>  <fMF>
0.18

>  <nHBAcc>
3

>  <nHBDon>
2

>  <Kier1>
14.06

>  <Kier2>
5.56

>  <Lipinski>
1

>  <GhoseFilter>
1

>  <FilterItLogS>
-3.18

>  <VMcGowan>
179.66

>  <LabuteASA>
94.97

>  <PEOE_VSA1>
0

>  <PEOE_VSA2>
20.22

>  <PEOE_VSA3>
4.79

>  <PEOE_VSA4>
0

>  <PEOE_VSA5>
0

>  <PEOE_VSA6>
20.77

>  <PEOE_VSA7>
25.18

>  <PEOE_VSA8>
0

>  <PEOE_VSA9>
0

>  <PEOE_VSA10>
5.41

>  <PEOE_VSA11>
0

>  <PEOE_VSA12>
11.81

>  <PEOE_VSA13>
0

>  <SMR_VSA1>
14.38

>  <SMR_VSA2>
0

>  <SMR_VSA3>
10.63

>  <SMR_VSA4>
11.33

>  <SMR_VSA5>
40.03

>  <SMR_VSA6>
0

>  <SMR_VSA7>
0

>  <SMR_VSA8>
0

>  <SMR_VSA9>
0

>  <SlogP_VSA1>
10.63

>  <SlogP_VSA2>
17.85

>  <SlogP_VSA3>
9.59

>  <SlogP_VSA4>
11.33

>  <SlogP_VSA5>
40.03

>  <SlogP_VSA6>
0

>  <SlogP_VSA7>
0

>  <SlogP_VSA8>
0

>  <SlogP_VSA9>
0

>  <SlogP_VSA10>
4.79

>  <SlogP_VSA11>
0

>  <EState_VSA1>
23.26

>  <EState_VSA2>
0

>  <EState_VSA3>
18.76

>  <EState_VSA4>
6.42

>  <EState_VSA5>
0

>  <EState_VSA6>
6.92

>  <EState_VSA7>
13.85

>  <EState_VSA8>
10.63

>  <EState_VSA9>
0

>  <EState_VSA10>
14.38

>  <VSA_EState1>
0

>  <VSA_EState2>
34.54

>  <VSA_EState3>
4.33

>  <VSA_EState4>
-1.07

>  <VSA_EState5>
-0.52

>  <VSA_EState6>
-0.72

>  <VSA_EState7>
1.67

>  <VSA_EState8>
5.86

>  <VSA_EState9>
0

>  <apol>
34.98

>  <bpol>
21.8

>  <nRing>
1

>  <nHRing>
1

>  <naRing>
0

>  <naHRing>
0

>  <nARing 2>
1

>  <nAHRing 2>
1

>  <nFRing>
0

>  <nFHRing>
0

>  <nFaRing>
0

>  <nFaHRing>
0

>  <nFARing 2>
0

>  <nFAHRing 2>
0

>  <nRot>
4

>  <SLogP>
1.19

>  <SMR>
58.48

>  <TopoPSA(NO)>
75.27

>  <TopoPSA>
75.27

>  <JGI1>
0.34

>  <JGI2>
0.13

>  <JGI3>
0.07

>  <JGI4>
0.05

>  <JGI5>
0.05

>  <Diameter>
8

>  <Radius>
4

>  <TMWC10>
102.96

>  <TSRW10>
48.53

>  <MW>
226.13

>  <AMW>
6.65

>  <WPath>
418

>  <WPol>
26

>  <Zagreb1>
78

>  <Zagreb2>
91

>  <mZagreb2>
3.67

>  <yes>


>  <nAR-cont>
0.816016

>  <nHA-cont>
0.954961865

>  <MWHBN>
0.332499436

>  <MWHBN-cont>
0.734040072

>  <TPSA-cont>
0.47456866

>  <pka_cont>
0.97

>  <yes.1>


>  <BBB_SCORE>
4.306175294

>  <MMFF94 Energy>
-123.23

$$$$
Compound 408
Actelion Java MolfileCreator 2.0

  0  0  0  0  0  0              0 V3000
M  V30 BEGIN CTAB
M  V30 COUNTS 35 35 0 0 0
M  V30 BEGIN ATOM
M  V30 1 O -1.4795 -4.6001 -0.7785 0
M  V30 2 C -1.1214 -3.4391 -0.626 0
M  V30 3 N -1.7489 -2.5838 0.2317 0
M  V30 4 N -0.0713 -2.9173 -1.3154 0
M  V30 5 C -1.5545 -1.2276 0.3298 0
M  V30 6 C 0.4884 -1.6326 -0.98 0
M  V30 7 O -2.182 -0.5701 1.1583 0
M  V30 8 C -0.6093 -0.5995 -0.7021 0 CFG=2
M  V30 9 C -0.0252 0.7386 -0.1664 0
M  V30 10 C -1.4874 -0.3164 -1.962 0
M  V30 11 C 0.8338 0.6302 1.1056 0
M  V30 12 C -0.7462 0.1911 -3.1927 0
M  V30 13 C 1.3308 1.9956 1.6237 0
M  V30 14 C 0.1899 2.8817 2.1271 0
M  V30 15 C 2.3474 1.7829 2.7491 0
M  V30 16 H -2.4595 -2.9847 0.8251 0
M  V30 17 H 0.409 -3.5561 -1.9385 0
M  V30 18 H 1.1569 -1.327 -1.7898 0
M  V30 19 H 1.106 -1.8114 -0.0934 0
M  V30 20 H -0.8571 1.4282 0.0175 0
M  V30 21 H 0.5962 1.2018 -0.9416 0
M  V30 22 H -2.26 0.4191 -1.6994 0
M  V30 23 H -2.0409 -1.2183 -2.2531 0
M  V30 24 H 1.7132 0.0137 0.8882 0
M  V30 25 H 0.2781 0.1208 1.901 0
M  V30 26 H -1.4603 0.3724 -4.0033 0
M  V30 27 H -0.2288 1.1339 -2.9984 0
M  V30 28 H -0.0197 -0.5399 -3.5573 0
M  V30 29 H 1.8407 2.5202 0.8059 0
M  V30 30 H -0.4829 3.1699 1.3145 0
M  V30 31 H -0.4006 2.3706 2.8949 0
M  V30 32 H 0.5811 3.8073 2.5634 0
M  V30 33 H 3.1975 1.188 2.399 0
M  V30 34 H 1.8953 1.2614 3.5998 0
M  V30 35 H 2.7383 2.7412 3.1073 0
M  V30 END ATOM
M  V30 BEGIN BOND
M  V30 1 2 1 2
M  V30 2 1 2 3
M  V30 3 1 2 4
M  V30 4 1 3 5
M  V30 5 1 4 6
M  V30 6 2 5 7
M  V30 7 1 5 8
M  V30 8 1 8 9
M  V30 9 1 8 10
M  V30 10 1 9 11
M  V30 11 1 10 12
M  V30 12 1 11 13
M  V30 13 1 13 14
M  V30 14 1 13 15
M  V30 15 1 6 8
M  V30 16 1 3 16
M  V30 17 1 4 17
M  V30 18 1 6 18
M  V30 19 1 6 19
M  V30 20 1 9 20
M  V30 21 1 9 21
M  V30 22 1 10 22
M  V30 23 1 10 23
M  V30 24 1 11 24
M  V30 25 1 11 25
M  V30 26 1 12 26
M  V30 27 1 12 27
M  V30 28 1 12 28
M  V30 29 1 13 29
M  V30 30 1 14 30
M  V30 31 1 14 31
M  V30 32 1 14 32
M  V30 33 1 15 33
M  V30 34 1 15 34
M  V30 35 1 15 35
M  V30 END BOND
M  V30 BEGIN COLLECTION
M  V30 MDLV30/STERAC1 ATOMS=(1 8)
M  V30 END COLLECTION
M  V30 END CTAB
M  END
>  <Column 1>
507

>  <level_0>
571

>  <index>
571

>  <Unnamed: 0>
571

>  <NO.>
581

>  <Name>
5-ethyl-5-isopentyl-5-6-dihydropyrimidine-2-4(1h-3h)-dione

>  <IUPAC_name>
5-ethyl-5-(3-methylbutyl)-1-3-diazinane-2-4-dione

>  <SMILES>
CCC1(CCC(C)C)CNC(=O)NC1=O

>  <CID>
101047238

>  <logBB>
0.04

>  <BBB+/BBB->
BBB+

>  <Inchi>
InChI=1S/C11H20N2O2/c1-4-11(6-5-8(2)3)7-12-10(15)13-9(11)14/h8H-4-7H2-1-3H3-(H2-12-13-14-15)

>  <threshold>


>  <reference>
R18|R26|R27|

>  <group>
A

>  <Class>
1

>  <ABC>
10.98

>  <ABCGG>
10.37

>  <nAcid>
0

>  <nBase>
0

>  <nAromAtom>
0

>  <nAromBond>
0

>  <nAtom>
35

>  <nHeavyAtom>
15

>  <nSpiro>
0

>  <nBridgehead>
0

>  <nHetero>
4

>  <nN>
2

>  <nO>
2

>  <nF>
0

>  <BalabanJ>
2.58

>  <BertzCT>
263.31

>  <nBonds>
35

>  <nBondsO>
15

>  <nBondsS>
33

>  <nBondsD>
2

>  <nBondsT>
0

>  <nBondsA>
0

>  <nBondsM>
2

>  <nBondsKS>
33

>  <nBondsKD>
2

>  <RNCG>
0.22

>  <RPCG>
0.21

>  <FCSP3>
0.82

>  <SZ>
19.33

>  <Sm>
17.67

>  <Sv>
19.36

>  <Sse>
34.87

>  <Sp>
21.26

>  <Si>
40.15

>  <MZ>
0.55

>  <Mm>
0.51

>  <Mv>
0.55

>  <Mse>
1

>  <Mp>
0.61

>  <Mi>
1.15

>  <NsCH3>
3

>  <NdCH2>
0

>  <NssCH2>
4

>  <NtCH>
0

>  <NdsCH>
0

>  <NaaCH>
0

>  <NsssCH>
1

>  <NddC>
0

>  <NtsC>
0

>  <NdssC>
2

>  <NaasC>
0

>  <NaaaC>
0

>  <NssssC>
1

>  <NsNH3>
0

>  <NsNH2>
0

>  <NssNH2>
0

>  <NdNH>
0

>  <NssNH>
2

>  <NaaNH>
0

>  <NtN>
0

>  <NsssNH>
0

>  <NdsN>
0

>  <NaaN>
0

>  <NsssN>
0

>  <NddsN>
0

>  <NaasN>
0

>  <NssssN>
0

>  <NsOH>
0

>  <NdO>
2

>  <NssO>
0

>  <NaaO>
0

>  <NsF>
0

>  <NsSiH3>
0

>  <NssSiH2>
0

>  <NsssSiH>
0

>  <NssssSi>
0

>  <NsPH2>
0

>  <NssPH>
0

>  <NsssP>
0

>  <NdsssP>
0

>  <NsssssP>
0

>  <NsSH>
0

>  <NdS>
0

>  <NssS>
0

>  <NaaS>
0

>  <NdssS>
0

>  <NddssS>
0

>  <NsCl>
0

>  <NsBr>
0

>  <NsI>
0

>  <fragCpx>
15.04

>  <fMF>
0.17

>  <nHBAcc>
2

>  <nHBDon>
2

>  <Kier1>
13.07

>  <Kier2>
5.37

>  <Lipinski>
1

>  <GhoseFilter>
1

>  <FilterItLogS>
-3.29

>  <VMcGowan>
178.09

>  <LabuteASA>
90.81

>  <PEOE_VSA1>
5.32

>  <PEOE_VSA2>
10.11

>  <PEOE_VSA3>
4.79

>  <PEOE_VSA4>
0

>  <PEOE_VSA5>
0

>  <PEOE_VSA6>
20.77

>  <PEOE_VSA7>
25.18

>  <PEOE_VSA8>
6.54

>  <PEOE_VSA9>
5.41

>  <PEOE_VSA10>
0

>  <PEOE_VSA11>
0

>  <PEOE_VSA12>
5.91

>  <PEOE_VSA13>
0

>  <SMR_VSA1>
9.59

>  <SMR_VSA2>
0

>  <SMR_VSA3>
10.63

>  <SMR_VSA4>
11.33

>  <SMR_VSA5>
40.03

>  <SMR_VSA6>
6.54

>  <SMR_VSA7>
0

>  <SMR_VSA8>
0

>  <SMR_VSA9>
0

>  <SlogP_VSA1>
10.63

>  <SlogP_VSA2>
18.48

>  <SlogP_VSA3>
4.79

>  <SlogP_VSA4>
11.33

>  <SlogP_VSA5>
40.03

>  <SlogP_VSA6>
0

>  <SlogP_VSA7>
0

>  <SlogP_VSA8>
0

>  <SlogP_VSA9>
0

>  <SlogP_VSA10>
4.79

>  <SlogP_VSA11>
0

>  <EState_VSA1>
5.41

>  <EState_VSA2>
11.94

>  <EState_VSA3>
12.46

>  <EState_VSA4>
19.26

>  <EState_VSA5>
0

>  <EState_VSA6>
0

>  <EState_VSA7>
6.92

>  <EState_VSA8>
24.48

>  <EState_VSA9>
0

>  <EState_VSA10>
9.59

>  <VSA_EState1>
0

>  <VSA_EState2>
22.77

>  <VSA_EState3>
5.06

>  <VSA_EState4>
-0.39

>  <VSA_EState5>
0.47

>  <VSA_EState6>
-0.37

>  <VSA_EState7>
2.62

>  <VSA_EState8>
6.75

>  <VSA_EState9>
0

>  <apol>
35.51

>  <bpol>
22.94

>  <nRing>
1

>  <nHRing>
1

>  <naRing>
0

>  <naHRing>
0

>  <nARing 2>
1

>  <nAHRing 2>
1

>  <nFRing>
0

>  <nFHRing>
0

>  <nFaRing>
0

>  <nFaHRing>
0

>  <nFARing 2>
0

>  <nFAHRing 2>
0

>  <nRot>
4

>  <SLogP>
1.66

>  <SMR>
58.34

>  <TopoPSA(NO)>
58.2

>  <TopoPSA>
58.2

>  <JGI1>
0.33

>  <JGI2>
0.12

>  <JGI3>
0.05

>  <JGI4>
0.06

>  <JGI5>
0.04

>  <Diameter>
8

>  <Radius>
4

>  <TMWC10>
99.47

>  <TSRW10>
46.94

>  <MW>
212.15

>  <AMW>
6.06

>  <WPath>
364

>  <WPol>
22

>  <Zagreb1>
72

>  <Zagreb2>
82

>  <mZagreb2>
3.46

>  <yes>


>  <nAR-cont>
0.816016

>  <nHA-cont>
0.92539861

>  <MWHBN>
0.27462399

>  <MWHBN-cont>
0.909325303

>  <TPSA-cont>
0.59372786

>  <pka_cont>
0.97

>  <yes.1>


>  <BBB_SCORE>
4.777858284

>  <MMFF94 Energy>
-101.36

$$$$
Compound 409
Actelion Java MolfileCreator 2.0

  0  0  0  0  0  0              0 V3000
M  V30 BEGIN CTAB
M  V30 COUNTS 44 46 0 0 0
M  V30 BEGIN ATOM
M  V30 1 O -1.5936 2.5508 -2.6306 0
M  V30 2 N -1.585 2.6774 -1.3968 0 CHG=1
M  V30 3 O -1.3741 3.7347 -0.7847 0 CHG=-1
M  V30 4 C -1.8553 1.5122 -0.6245 0
M  V30 5 C -0.8586 0.8681 0.0132 0
M  V30 6 C -3.2592 1.1426 -0.4508 0
M  V30 7 N -1.1799 -0.173 0.8638 0
M  V30 8 N 0.5069 1.1891 -0.0962 0
M  V30 9 O -4.1692 1.7389 -1.023 0
M  V30 10 N -3.4786 0.0707 0.4084 0
M  V30 11 C -2.4106 -0.5379 1.0271 0
M  V30 12 C 1.2461 1.1614 -1.3726 0
M  V30 13 C 1.3558 1.2289 1.1107 0
M  V30 14 C -4.8691 -0.3507 0.6041 0
M  V30 15 C -2.6663 -1.6927 1.9671 0
M  V30 16 C 1.9281 -0.1923 -1.6093 0
M  V30 17 C 2.061 -0.1033 1.3854 0
M  V30 18 C -5.3127 -1.3337 -0.4709 0
M  V30 19 C 3.2369 -0.3471 -0.8664 0
M  V30 20 C 3.2997 -0.3065 0.5395 0
M  V30 21 C 4.418 -0.5543 -1.5995 0
M  V30 22 C 4.5413 -0.4762 1.1761 0
M  V30 23 C 5.6433 -0.714 -0.9536 0
M  V30 24 C 5.7049 -0.6753 0.4343 0
M  V30 25 H 1.9736 1.9821 -1.3993 0
M  V30 26 H 0.5634 1.3275 -2.2095 0
M  V30 27 H 0.7306 1.4839 1.9765 0
M  V30 28 H 2.0846 2.0445 1.0188 0
M  V30 29 H -5.5226 0.529 0.5781 0
M  V30 30 H -4.9944 -0.8051 1.5907 0
M  V30 31 H -3.2786 -2.4567 1.4823 0
M  V30 32 H -1.721 -2.1503 2.2745 0
M  V30 33 H -3.1811 -1.3292 2.8611 0
M  V30 34 H 1.2638 -1.0244 -1.3445 0
M  V30 35 H 2.1172 -0.2869 -2.6864 0
M  V30 36 H 2.3467 -0.1161 2.445 0
M  V30 37 H 1.391 -0.9588 1.242 0
M  V30 38 H -4.6848 -2.2301 -0.4733 0
M  V30 39 H -5.2514 -0.8836 -1.4671 0
M  V30 40 H -6.3488 -1.6413 -0.2994 0
M  V30 41 H 4.3922 -0.5942 -2.6866 0
M  V30 42 H 4.6114 -0.4551 2.2617 0
M  V30 43 H 6.5477 -0.8721 -1.5349 0
M  V30 44 H 6.6576 -0.8032 0.941 0
M  V30 END ATOM
M  V30 BEGIN BOND
M  V30 1 2 1 2
M  V30 2 1 2 3
M  V30 3 1 2 4
M  V30 4 2 4 5
M  V30 5 1 4 6
M  V30 6 1 5 7
M  V30 7 1 5 8
M  V30 8 2 6 9
M  V30 9 1 6 10
M  V30 10 2 7 11
M  V30 11 1 8 12
M  V30 12 1 8 13
M  V30 13 1 10 14
M  V30 14 1 11 15
M  V30 15 1 12 16
M  V30 16 1 13 17
M  V30 17 1 14 18
M  V30 18 1 16 19
M  V30 19 1 17 20
M  V30 20 1 19 21
M  V30 21 1 20 22
M  V30 22 2 21 23
M  V30 23 2 22 24
M  V30 24 1 10 11
M  V30 25 2 19 20
M  V30 26 1 23 24
M  V30 27 1 12 25
M  V30 28 1 12 26
M  V30 29 1 13 27
M  V30 30 1 13 28
M  V30 31 1 14 29
M  V30 32 1 14 30
M  V30 33 1 15 31
M  V30 34 1 15 32
M  V30 35 1 15 33
M  V30 36 1 16 34
M  V30 37 1 16 35
M  V30 38 1 17 36
M  V30 39 1 17 37
M  V30 40 1 18 38
M  V30 41 1 18 39
M  V30 42 1 18 40
M  V30 43 1 21 41
M  V30 44 1 22 42
M  V30 45 1 23 43
M  V30 46 1 24 44
M  V30 END BOND
M  V30 END CTAB
M  END
>  <Column 1>
508

>  <level_0>
572

>  <index>
572

>  <Unnamed: 0>
572

>  <NO.>
582

>  <Name>
schembl6946348

>  <IUPAC_name>
3-ethyl-2-methyl-5-nitro-6-(1-2-4-5-tetrahydro-3-benzazepin-3-yl)pyrimidin-4-one

>  <SMILES>
CCn1c(C)nc(N2CCc3ccccc3CC2)c([N+](=O)[O-])c1=O

>  <CID>
9840385

>  <logBB>
0.04

>  <BBB+/BBB->
BBB+

>  <Inchi>
InChI=1S/C17H20N4O3/c1-3-20-12(2)18-16(15(17(20)22)21(23)24)19-10-8-13-6-4-5-7-14(13)9-11-19/h4-7H-3-8-11H2-1-2H3

>  <threshold>


>  <reference>
R47|

>  <group>
A

>  <Class>
1

>  <ABC>
18.54

>  <ABCGG>
15.35

>  <nAcid>
0

>  <nBase>
0

>  <nAromAtom>
12

>  <nAromBond>
12

>  <nAtom>
44

>  <nHeavyAtom>
24

>  <nSpiro>
0

>  <nBridgehead>
0

>  <nHetero>
7

>  <nN>
4

>  <nO>
3

>  <nF>
0

>  <BalabanJ>
1.73

>  <BertzCT>
817.21

>  <nBonds>
46

>  <nBondsO>
26

>  <nBondsS>
32

>  <nBondsD>
2

>  <nBondsT>
0

>  <nBondsA>
12

>  <nBondsM>
14

>  <nBondsKS>
39

>  <nBondsKD>
7

>  <RNCG>
0.17

>  <RPCG>
0.19

>  <FCSP3>
0.41

>  <SZ>
29

>  <Sm>
27.34

>  <Sv>
27.59

>  <Sse>
44.52

>  <Sp>
29.06

>  <Si>
49.94

>  <MZ>
0.66

>  <Mm>
0.62

>  <Mv>
0.63

>  <Mse>
1.01

>  <Mp>
0.66

>  <Mi>
1.14

>  <NsCH3>
2

>  <NdCH2>
0

>  <NssCH2>
5

>  <NtCH>
0

>  <NdsCH>
0

>  <NaaCH>
4

>  <NsssCH>
0

>  <NddC>
0

>  <NtsC>
0

>  <NdssC>
0

>  <NaasC>
5

>  <NaaaC>
0

>  <NssssC>
0

>  <NsNH3>
0

>  <NsNH2>
0

>  <NssNH2>
0

>  <NdNH>
0

>  <NssNH>
0

>  <NaaNH>
0

>  <NtN>
0

>  <NsssNH>
0

>  <NdsN>
0

>  <NaaN>
1

>  <NsssN>
1

>  <NddsN>
1

>  <NaasN>
1

>  <NssssN>
0

>  <NsOH>
0

>  <NdO>
2

>  <NssO>
0

>  <NaaO>
0

>  <NsF>
0

>  <NsSiH3>
0

>  <NssSiH2>
0

>  <NsssSiH>
0

>  <NssssSi>
0

>  <NsPH2>
0

>  <NssPH>
0

>  <NsssP>
0

>  <NdsssP>
0

>  <NsssssP>
0

>  <NsSH>
0

>  <NdS>
0

>  <NssS>
0

>  <NaaS>
0

>  <NdssS>
0

>  <NddssS>
0

>  <NsCl>
0

>  <NsBr>
0

>  <NsI>
0

>  <fragCpx>
124.07

>  <fMF>
0.39

>  <nHBAcc>
6

>  <nHBDon>
0

>  <Kier1>
18.78

>  <Kier2>
8.13

>  <Lipinski>
1

>  <GhoseFilter>
1

>  <FilterItLogS>
-4.25

>  <VMcGowan>
245.24

>  <LabuteASA>
139.26

>  <PEOE_VSA1>
4.9

>  <PEOE_VSA2>
19.48

>  <PEOE_VSA3>
4.98

>  <PEOE_VSA4>
0

>  <PEOE_VSA5>
0

>  <PEOE_VSA6>
24.27

>  <PEOE_VSA7>
37.82

>  <PEOE_VSA8>
19.63

>  <PEOE_VSA9>
4.92

>  <PEOE_VSA10>
5.82

>  <PEOE_VSA11>
0

>  <PEOE_VSA12>
5.82

>  <PEOE_VSA13>
0

>  <SMR_VSA1>
4.92

>  <SMR_VSA2>
0

>  <SMR_VSA3>
9.55

>  <SMR_VSA4>
0

>  <SMR_VSA5>
33.23

>  <SMR_VSA6>
17.99

>  <SMR_VSA7>
61.68

>  <SMR_VSA8>
0

>  <SMR_VSA9>
0

>  <SlogP_VSA1>
10.46

>  <SlogP_VSA2>
27.56

>  <SlogP_VSA3>
19.39

>  <SlogP_VSA4>
17.04

>  <SlogP_VSA5>
23.88

>  <SlogP_VSA6>
29.06

>  <SlogP_VSA7>
0

>  <SlogP_VSA8>
0

>  <SlogP_VSA9>
0

>  <SlogP_VSA10>
11.51

>  <SlogP_VSA11>
0

>  <EState_VSA1>
16.17

>  <EState_VSA2>
5.82

>  <EState_VSA3>
25.46

>  <EState_VSA4>
12.84

>  <EState_VSA5>
15.69

>  <EState_VSA6>
13.85

>  <EState_VSA7>
17.03

>  <EState_VSA8>
17.12

>  <EState_VSA9>
0

>  <EState_VSA10>
14.91

>  <VSA_EState1>
1.34

>  <VSA_EState2>
29.65

>  <VSA_EState3>
11.49

>  <VSA_EState4>
1.5

>  <VSA_EState5>
0.7

>  <VSA_EState6>
8.17

>  <VSA_EState7>
1.57

>  <VSA_EState8>
5.08

>  <VSA_EState9>
0

>  <apol>
48.53

>  <bpol>
26.66

>  <nRing>
3

>  <nHRing>
2

>  <naRing>
2

>  <naHRing>
1

>  <nARing 2>
1

>  <nAHRing 2>
1

>  <nFRing>
1

>  <nFHRing>
1

>  <nFaRing>
0

>  <nFaHRing>
0

>  <nFARing 2>
1

>  <nFAHRing 2>
1

>  <nRot>
3

>  <SLogP>
2.09

>  <SMR>
91.63

>  <TopoPSA(NO)>
81.27

>  <TopoPSA>
81.27

>  <JGI1>
0.17

>  <JGI2>
0.09

>  <JGI3>
0.05

>  <JGI4>
0.05

>  <JGI5>
0.04

>  <Diameter>
11

>  <Radius>
6

>  <TMWC10>
125.58

>  <TSRW10>
66.66

>  <MW>
328.15

>  <AMW>
7.46

>  <WPath>
1259

>  <WPol>
45

>  <Zagreb1>
126

>  <Zagreb2>
151

>  <mZagreb2>
5.36

>  <yes>


>  <nAR-cont>
0.816016

>  <nHA-cont>
0.94700071

>  <MWHBN>
0.331218851

>  <MWHBN-cont>
0.738561484

>  <TPSA-cont>
0.432684934

>  <pka_cont>
0.97

>  <yes.1>


>  <BBB_SCORE>
4.221228804

>  <MMFF94 Energy>
26.822

$$$$
Compound 410
Actelion Java MolfileCreator 2.0

  0  0  0  0  0  0              0 V3000
M  V30 BEGIN CTAB
M  V30 COUNTS 37 37 0 0 0
M  V30 BEGIN ATOM
M  V30 1 O 0.1554 -2.0218 -2.0996 0
M  V30 2 C -0.2595 -1.796 -0.9738 0
M  V30 3 O -0.0109 -0.6791 -0.2461 0
M  V30 4 C -1.1272 -2.7357 -0.213 0
M  V30 5 C 0.8331 0.2798 -0.9072 0
M  V30 6 C -1.502 -3.9362 -0.8271 0
M  V30 7 C -1.581 -2.4625 1.0825 0
M  V30 8 C 0.9785 1.5053 0.0096 0
M  V30 9 C -2.3172 -4.8506 -0.1514 0
M  V30 10 C -2.3962 -3.3839 1.7505 0
M  V30 11 N 1.9399 2.5246 -0.4506 0
M  V30 12 C -2.7614 -4.5888 1.146 0
M  V30 13 C 2.0897 3.6199 0.5228 0
M  V30 14 C 1.6582 3.0436 -1.8002 0
M  V30 15 N -3.5895 -5.4809 1.7993 0
M  V30 16 C 2.8339 3.1936 1.7846 0
M  V30 17 C 0.3121 3.7374 -1.9913 0
M  V30 18 H 0.3704 0.5617 -1.8592 0
M  V30 19 H 1.8151 -0.1723 -1.0891 0
M  V30 20 H -1.1646 -4.1663 -1.8358 0
M  V30 21 H -1.3131 -1.5383 1.5876 0
M  V30 22 H -0.0131 1.9436 0.1825 0
M  V30 23 H 1.2945 1.1196 0.9863 0
M  V30 24 H -2.601 -5.7728 -0.6519 0
M  V30 25 H -2.7438 -3.1496 2.7536 0
M  V30 26 H 2.679 4.4295 0.0735 0
M  V30 27 H 1.1177 4.0482 0.7964 0
M  V30 28 H 2.4544 3.745 -2.0822 0
M  V30 29 H 1.7463 2.2302 -2.5298 0
M  V30 30 H -3.8655 -5.3194 2.758 0
M  V30 31 H -3.8087 -6.3757 1.3835 0
M  V30 32 H 3.0477 4.0713 2.404 0
M  V30 33 H 3.7892 2.7184 1.5381 0
M  V30 34 H 2.2473 2.5005 2.3943 0
M  V30 35 H 0.2268 4.0987 -3.0218 0
M  V30 36 H 0.2045 4.6027 -1.3304 0
M  V30 37 H -0.5255 3.0569 -1.8129 0
M  V30 END ATOM
M  V30 BEGIN BOND
M  V30 1 2 1 2
M  V30 2 1 2 3
M  V30 3 1 2 4
M  V30 4 1 3 5
M  V30 5 2 4 6
M  V30 6 1 4 7
M  V30 7 1 5 8
M  V30 8 1 6 9
M  V30 9 2 7 10
M  V30 10 1 8 11
M  V30 11 2 9 12
M  V30 12 1 11 13
M  V30 13 1 11 14
M  V30 14 1 12 15
M  V30 15 1 13 16
M  V30 16 1 14 17
M  V30 17 1 10 12
M  V30 18 1 5 18
M  V30 19 1 5 19
M  V30 20 1 6 20
M  V30 21 1 7 21
M  V30 22 1 8 22
M  V30 23 1 8 23
M  V30 24 1 9 24
M  V30 25 1 10 25
M  V30 26 1 13 26
M  V30 27 1 13 27
M  V30 28 1 14 28
M  V30 29 1 14 29
M  V30 30 1 15 30
M  V30 31 1 15 31
M  V30 32 1 16 32
M  V30 33 1 16 33
M  V30 34 1 16 34
M  V30 35 1 17 35
M  V30 36 1 17 36
M  V30 37 1 17 37
M  V30 END BOND
M  V30 END CTAB
M  END
>  <Column 1>
509

>  <level_0>
575

>  <index>
575

>  <Unnamed: 0>
575

>  <NO.>
585

>  <Name>
procaine

>  <IUPAC_name>
2-(diethylamino)ethyl 4-aminobenzoate

>  <SMILES>
CCN(CC)CCOC(=O)c1ccc(N)cc1

>  <CID>
4914

>  <logBB>
0.05

>  <BBB+/BBB->
BBB+

>  <Inchi>
InChI=1S/C13H20N2O2/c1-3-15(4-2)9-10-17-13(16)11-5-7-12(14)8-6-11/h5-8H-3-4-9-10-14H2-1-2H3

>  <threshold>


>  <reference>
R3|R18|R21|R25|R26|R27|R27|R38|R41|R43|R46|R47|R2|R2|R8|R27|R40|

>  <group>
A

>  <Class>
1

>  <ABC>
12.2

>  <ABCGG>
10.87

>  <nAcid>
0

>  <nBase>
1

>  <nAromAtom>
6

>  <nAromBond>
6

>  <nAtom>
37

>  <nHeavyAtom>
17

>  <nSpiro>
0

>  <nBridgehead>
0

>  <nHetero>
4

>  <nN>
2

>  <nO>
2

>  <nF>
0

>  <BalabanJ>
2.14

>  <BertzCT>
344.94

>  <nBonds>
37

>  <nBondsO>
17

>  <nBondsS>
30

>  <nBondsD>
1

>  <nBondsT>
0

>  <nBondsA>
6

>  <nBondsM>
7

>  <nBondsKS>
33

>  <nBondsKD>
4

>  <RNCG>
0.27

>  <RPCG>
0.2

>  <FCSP3>
0.46

>  <SZ>
21.33

>  <Sm>
19.67

>  <Sv>
21.36

>  <Sse>
36.87

>  <Sp>
23.26

>  <Si>
42.15

>  <MZ>
0.58

>  <Mm>
0.53

>  <Mv>
0.58

>  <Mse>
1

>  <Mp>
0.63

>  <Mi>
1.14

>  <NsCH3>
2

>  <NdCH2>
0

>  <NssCH2>
4

>  <NtCH>
0

>  <NdsCH>
0

>  <NaaCH>
4

>  <NsssCH>
0

>  <NddC>
0

>  <NtsC>
0

>  <NdssC>
1

>  <NaasC>
2

>  <NaaaC>
0

>  <NssssC>
0

>  <NsNH3>
0

>  <NsNH2>
1

>  <NssNH2>
0

>  <NdNH>
0

>  <NssNH>
0

>  <NaaNH>
0

>  <NtN>
0

>  <NsssNH>
0

>  <NdsN>
0

>  <NaaN>
0

>  <NsssN>
1

>  <NddsN>
0

>  <NaasN>
0

>  <NssssN>
0

>  <NsOH>
0

>  <NdO>
1

>  <NssO>
1

>  <NaaO>
0

>  <NsF>
0

>  <NsSiH3>
0

>  <NssSiH2>
0

>  <NsssSiH>
0

>  <NssssSi>
0

>  <NsPH2>
0

>  <NssPH>
0

>  <NsssP>
0

>  <NdsssP>
0

>  <NsssssP>
0

>  <NsSH>
0

>  <NdS>
0

>  <NssS>
0

>  <NaaS>
0

>  <NdssS>
0

>  <NddssS>
0

>  <NsCl>
0

>  <NsBr>
0

>  <NsI>
0

>  <fragCpx>
17.04

>  <fMF>
0.16

>  <nHBAcc>
4

>  <nHBDon>
1

>  <Kier1>
15.06

>  <Kier2>
8.16

>  <Lipinski>
1

>  <GhoseFilter>
1

>  <FilterItLogS>
-2.86

>  <VMcGowan>
197.67

>  <LabuteASA>
102.36

>  <PEOE_VSA1>
15.37

>  <PEOE_VSA2>
0

>  <PEOE_VSA3>
4.79

>  <PEOE_VSA4>
0

>  <PEOE_VSA5>
0

>  <PEOE_VSA6>
13.85

>  <PEOE_VSA7>
37.35

>  <PEOE_VSA8>
12.23

>  <PEOE_VSA9>
5.56

>  <PEOE_VSA10>
6.61

>  <PEOE_VSA11>
0

>  <PEOE_VSA12>
0

>  <PEOE_VSA13>
0

>  <SMR_VSA1>
9.53

>  <SMR_VSA2>
0

>  <SMR_VSA3>
4.9

>  <SMR_VSA4>
0

>  <SMR_VSA5>
13.85

>  <SMR_VSA6>
31.97

>  <SMR_VSA7>
29.83

>  <SMR_VSA8>
0

>  <SMR_VSA9>
0

>  <SlogP_VSA1>
5.73

>  <SlogP_VSA2>
37.11

>  <SlogP_VSA3>
4.74

>  <SlogP_VSA4>
0

>  <SlogP_VSA5>
24.21

>  <SlogP_VSA6>
24.27

>  <SlogP_VSA7>
0

>  <SlogP_VSA8>
0

>  <SlogP_VSA9>
0

>  <SlogP_VSA10>
5.69

>  <SlogP_VSA11>
0

>  <EState_VSA1>
0

>  <EState_VSA2>
5.97

>  <EState_VSA3>
17.86

>  <EState_VSA4>
19.63

>  <EState_VSA5>
0

>  <EState_VSA6>
24.27

>  <EState_VSA7>
0

>  <EState_VSA8>
18.75

>  <EState_VSA9>
10.47

>  <EState_VSA10>
4.79

>  <VSA_EState1>
5.18

>  <VSA_EState2>
13.84

>  <VSA_EState3>
0

>  <VSA_EState4>
6.73

>  <VSA_EState5>
-0.29

>  <VSA_EState6>
6.74

>  <VSA_EState7>
0

>  <VSA_EState8>
7.31

>  <VSA_EState9>
0

>  <apol>
38.85

>  <bpol>
23.81

>  <nRing>
1

>  <nHRing>
0

>  <naRing>
1

>  <naHRing>
0

>  <nARing 2>
0

>  <nAHRing 2>
0

>  <nFRing>
0

>  <nFHRing>
0

>  <nFaRing>
0

>  <nFaHRing>
0

>  <nFARing 2>
0

>  <nFAHRing 2>
0

>  <nRot>
6

>  <SLogP>
1.77

>  <SMR>
68.92

>  <TopoPSA(NO)>
55.56

>  <TopoPSA>
55.56

>  <JGI1>
0.21

>  <JGI2>
0.1

>  <JGI3>
0.04

>  <JGI4>
0.03

>  <JGI5>
0.03

>  <Diameter>
11

>  <Radius>
6

>  <TMWC10>
101.67

>  <TSRW10>
48.45

>  <MW>
236.15

>  <AMW>
6.38

>  <WPath>
618

>  <WPol>
21

>  <Zagreb1>
76

>  <Zagreb2>
83

>  <mZagreb2>
4.11

>  <yes>


>  <nAR-cont>
0.336376

>  <nHA-cont>
0.976740822

>  <MWHBN>
0.325368893

>  <MWHBN-cont>
0.758924414

>  <TPSA-cont>
0.612156699

>  <pka_cont>
0.97

>  <yes.1>


>  <BBB_SCORE>
4.160816842

>  <MMFF94 Energy>
38.077

$$$$
Compound 411
Actelion Java MolfileCreator 2.0

  0  0  0  0  0  0              0 V3000
M  V30 BEGIN CTAB
M  V30 COUNTS 52 56 0 0 0
M  V30 BEGIN ATOM
M  V30 1 O -2.1664 -1.765 -2.8894 0
M  V30 2 C -1.8219 -1.0489 -1.9526 0
M  V30 3 N -0.5387 -0.9923 -1.415 0
M  V30 4 C -2.8274 -0.1582 -1.3323 0
M  V30 5 N -0.1782 -0.1359 -0.392 0
M  V30 6 C 0.5355 -1.7972 -2.0144 0
M  V30 7 C -2.5019 0.6631 -0.3329 0
M  V30 8 C -1.1007 0.6161 0.1129 0
M  V30 9 C 1.2908 -0.9921 -3.0757 0
M  V30 10 C 1.5187 -2.3596 -0.9819 0
M  V30 11 C -0.7518 1.5202 1.1882 0
M  V30 12 C 2.4064 -1.8308 -3.6954 0
M  V30 13 C 2.6214 -3.1588 -1.6736 0
M  V30 14 C -1.4317 1.8021 2.4131 0
M  V30 15 C 0.3805 2.3131 1.2399 0
M  V30 16 N 3.3257 -2.3373 -2.6678 0
M  V30 17 N -0.816 2.7674 3.1099 0
M  V30 18 C -2.6428 1.1781 2.9468 0
M  V30 19 N 0.3071 3.0581 2.4149 0
M  V30 20 C 1.511 2.5189 0.3918 0
M  V30 21 C 4.4131 -3.0985 -3.2832 0
M  V30 22 C -2.7903 -0.216 2.9452 0
M  V30 23 C -3.6706 1.9727 3.4724 0
M  V30 24 C 1.292 3.9828 2.7698 0
M  V30 25 C 2.4558 3.411 0.7446 0
M  V30 26 C -3.9583 -0.8022 3.4384 0
M  V30 27 C -4.8372 1.3845 3.9655 0
M  V30 28 C 2.3546 4.1786 1.9729 0
M  V30 29 C -4.9818 -0.0018 3.9441 0
M  V30 30 H -3.8272 -0.2007 -1.7451 0
M  V30 31 H 0.0624 -2.6511 -2.5178 0
M  V30 32 H -3.2147 1.3409 0.1148 0
M  V30 33 H 0.6012 -0.6614 -3.8618 0
M  V30 34 H 1.7144 -0.0822 -2.63 0
M  V30 35 H 1.9759 -1.5505 -0.3974 0
M  V30 36 H 0.9871 -3.0012 -0.2689 0
M  V30 37 H 2.9552 -1.1979 -4.4035 0
M  V30 38 H 1.9695 -2.658 -4.2705 0
M  V30 39 H 3.3281 -3.4989 -0.9067 0
M  V30 40 H 2.1919 -4.0552 -2.1401 0
M  V30 41 H 1.608 1.9451 -0.5257 0
M  V30 42 H 5.1284 -3.431 -2.5227 0
M  V30 43 H 4.9724 -2.471 -3.986 0
M  V30 44 H 4.0477 -3.9799 -3.8225 0
M  V30 45 H -1.9938 -0.8591 2.5768 0
M  V30 46 H -3.5624 3.0553 3.503 0
M  V30 47 H 1.1364 4.5082 3.7023 0
M  V30 48 H 3.3259 3.5723 0.1148 0
M  V30 49 H -4.065 -1.8842 3.4375 0
M  V30 50 H -5.6284 2.0087 4.373 0
M  V30 51 H 3.1367 4.8873 2.2211 0
M  V30 52 H -5.8879 -0.4593 4.3337 0
M  V30 END ATOM
M  V30 BEGIN BOND
M  V30 1 2 1 2
M  V30 2 1 2 3
M  V30 3 1 2 4
M  V30 4 1 3 5
M  V30 5 1 3 6
M  V30 6 2 4 7
M  V30 7 2 5 8
M  V30 8 1 6 9
M  V30 9 1 6 10
M  V30 10 1 8 11
M  V30 11 1 9 12
M  V30 12 1 10 13
M  V30 13 1 11 14
M  V30 14 2 11 15
M  V30 15 1 12 16
M  V30 16 2 14 17
M  V30 17 1 14 18
M  V30 18 1 15 19
M  V30 19 1 15 20
M  V30 20 1 16 21
M  V30 21 2 18 22
M  V30 22 1 18 23
M  V30 23 1 19 24
M  V30 24 2 20 25
M  V30 25 1 22 26
M  V30 26 2 23 27
M  V30 27 2 24 28
M  V30 28 2 26 29
M  V30 29 1 7 8
M  V30 30 1 13 16
M  V30 31 1 17 19
M  V30 32 1 25 28
M  V30 33 1 27 29
M  V30 34 1 4 30
M  V30 35 1 6 31
M  V30 36 1 7 32
M  V30 37 1 9 33
M  V30 38 1 9 34
M  V30 39 1 10 35
M  V30 40 1 10 36
M  V30 41 1 12 37
M  V30 42 1 12 38
M  V30 43 1 13 39
M  V30 44 1 13 40
M  V30 45 1 20 41
M  V30 46 1 21 42
M  V30 47 1 21 43
M  V30 48 1 21 44
M  V30 49 1 22 45
M  V30 50 1 23 46
M  V30 51 1 24 47
M  V30 52 1 25 48
M  V30 53 1 26 49
M  V30 54 1 27 50
M  V30 55 1 28 51
M  V30 56 1 29 52
M  V30 END BOND
M  V30 END CTAB
M  END
>  <Column 1>
511

>  <level_0>
577

>  <index>
577

>  <Unnamed: 0>
577

>  <NO.>
587

>  <Name>
compound 32

>  <IUPAC_name>
2-(1-methylpiperidin-4-yl)-6-(2-phenylpyrazolo[1-5-a]pyridin-3-yl)pyridazin-3-one

>  <SMILES>
CN1CCC(n2nc(-c3c(-c4ccccc4)nn4ccccc34)ccc2=O)CC1

>  <CID>
9821511

>  <logBB>
0.06

>  <BBB+/BBB->
BBB+

>  <Inchi>
InChI=1S/C23H23N5O/c1-26-15-12-18(13-16-26)28-21(29)11-10-19(24-28)22-20-9-5-6-14-27(20)25-23(22)17-7-3-2-4-8-17/h2-11-14-18H-12-13-15-16H2-1H3

>  <threshold>


>  <reference>
R2|R2|R8|R27|R40|R47|R4|

>  <group>
A

>  <Class>
1

>  <ABC>
23.27

>  <ABCGG>
17.63

>  <nAcid>
0

>  <nBase>
1

>  <nAromAtom>
21

>  <nAromBond>
22

>  <nAtom>
52

>  <nHeavyAtom>
29

>  <nSpiro>
0

>  <nBridgehead>
0

>  <nHetero>
6

>  <nN>
5

>  <nO>
1

>  <nF>
0

>  <BalabanJ>
1.33

>  <BertzCT>
1202.91

>  <nBonds>
56

>  <nBondsO>
33

>  <nBondsS>
33

>  <nBondsD>
1

>  <nBondsT>
0

>  <nBondsA>
22

>  <nBondsM>
23

>  <nBondsKS>
46

>  <nBondsKD>
10

>  <RNCG>
0.16

>  <RPCG>
0.14

>  <FCSP3>
0.26

>  <SZ>
34

>  <Sm>
32.09

>  <Sv>
33.74

>  <Sse>
51.86

>  <Sp>
35.96

>  <Si>
58.44

>  <MZ>
0.65

>  <Mm>
0.62

>  <Mv>
0.65

>  <Mse>
1

>  <Mp>
0.69

>  <Mi>
1.12

>  <NsCH3>
1

>  <NdCH2>
0

>  <NssCH2>
4

>  <NtCH>
0

>  <NdsCH>
0

>  <NaaCH>
11

>  <NsssCH>
1

>  <NddC>
0

>  <NtsC>
0

>  <NdssC>
0

>  <NaasC>
4

>  <NaaaC>
1

>  <NssssC>
0

>  <NsNH3>
0

>  <NsNH2>
0

>  <NssNH2>
0

>  <NdNH>
0

>  <NssNH>
0

>  <NaaNH>
0

>  <NtN>
0

>  <NsssNH>
0

>  <NdsN>
0

>  <NaaN>
2

>  <NsssN>
1

>  <NddsN>
0

>  <NaasN>
2

>  <NssssN>
0

>  <NsOH>
0

>  <NdO>
1

>  <NssO>
0

>  <NaaO>
0

>  <NsF>
0

>  <NsSiH3>
0

>  <NssSiH2>
0

>  <NsssSiH>
0

>  <NssssSi>
0

>  <NsPH2>
0

>  <NssPH>
0

>  <NsssP>
0

>  <NdsssP>
0

>  <NsssssP>
0

>  <NsSH>
0

>  <NdS>
0

>  <NssS>
0

>  <NaaS>
0

>  <NdssS>
0

>  <NddssS>
0

>  <NsCl>
0

>  <NsBr>
0

>  <NsI>
0

>  <fragCpx>
277.06

>  <fMF>
0.52

>  <nHBAcc>
6

>  <nHBDon>
0

>  <Kier1>
20.88

>  <Kier2>
9.24

>  <Lipinski>
1

>  <GhoseFilter>
1

>  <FilterItLogS>
-4.61

>  <VMcGowan>
293.4

>  <LabuteASA>
168.57

>  <PEOE_VSA1>
4.9

>  <PEOE_VSA2>
4.79

>  <PEOE_VSA3>
9.2

>  <PEOE_VSA4>
10.2

>  <PEOE_VSA5>
0

>  <PEOE_VSA6>
36.4

>  <PEOE_VSA7>
51.18

>  <PEOE_VSA8>
17.83

>  <PEOE_VSA9>
22.82

>  <PEOE_VSA10>
5.69

>  <PEOE_VSA11>
0

>  <PEOE_VSA12>
0

>  <PEOE_VSA13>
5.56

>  <SMR_VSA1>
0

>  <SMR_VSA2>
0

>  <SMR_VSA3>
24.29

>  <SMR_VSA4>
0

>  <SMR_VSA5>
18.88

>  <SMR_VSA6>
20.14

>  <SMR_VSA7>
77.21

>  <SMR_VSA8>
0

>  <SMR_VSA9>
22.51

>  <SlogP_VSA1>
5.56

>  <SlogP_VSA2>
44.43

>  <SlogP_VSA3>
0

>  <SlogP_VSA4>
0

>  <SlogP_VSA5>
18.88

>  <SlogP_VSA6>
71.66

>  <SlogP_VSA7>
0

>  <SlogP_VSA8>
28.03

>  <SlogP_VSA9>
0

>  <SlogP_VSA10>
0

>  <SlogP_VSA11>
0

>  <EState_VSA1>
0

>  <EState_VSA2>
11.6

>  <EState_VSA3>
0

>  <EState_VSA4>
53.96

>  <EState_VSA5>
0

>  <EState_VSA6>
10.75

>  <EState_VSA7>
53.18

>  <EState_VSA8>
24.08

>  <EState_VSA9>
10.2

>  <EState_VSA10>
4.79

>  <VSA_EState1>
3.56

>  <VSA_EState2>
14.9

>  <VSA_EState3>
9.65

>  <VSA_EState4>
4.58

>  <VSA_EState5>
0

>  <VSA_EState6>
19.74

>  <VSA_EState7>
3.82

>  <VSA_EState8>
1.96

>  <VSA_EState9>
2.12

>  <apol>
60.05

>  <bpol>
29.07

>  <nRing>
5

>  <nHRing>
4

>  <naRing>
4

>  <naHRing>
3

>  <nARing 2>
1

>  <nAHRing 2>
1

>  <nFRing>
1

>  <nFHRing>
1

>  <nFaRing>
1

>  <nFaHRing>
1

>  <nFARing 2>
0

>  <nFAHRing 2>
0

>  <nRot>
3

>  <SLogP>
3.49

>  <SMR>
113.89

>  <TopoPSA(NO)>
55.43

>  <TopoPSA>
55.43

>  <JGI1>
0.14

>  <JGI2>
0.07

>  <JGI3>
0.04

>  <JGI4>
0.04

>  <JGI5>
0.02

>  <Diameter>
13

>  <Radius>
7

>  <TMWC10>
140.13

>  <TSRW10>
79.27

>  <MW>
385.19

>  <AMW>
7.41

>  <WPath>
2123

>  <WPol>
49

>  <Zagreb1>
160

>  <Zagreb2>
193

>  <mZagreb2>
6.28

>  <yes>


>  <nAR-cont>
0.816016

>  <nHA-cont>
0.785905698

>  <MWHBN>
0.305712889

>  <MWHBN-cont>
0.823341111

>  <TPSA-cont>
0.61306418

>  <pka_cont>
0.97

>  <yes.1>


>  <BBB_SCORE>
4.548061725

>  <MMFF94 Energy>
79.84

$$$$
Compound 412
Actelion Java MolfileCreator 2.0

  0  0  0  0  0  0              0 V3000
M  V30 BEGIN CTAB
M  V30 COUNTS 18 17 0 0 0
M  V30 BEGIN ATOM
M  V30 1 O -0.7568 1.0597 1.1354 0
M  V30 2 C -0.5259 0.1721 0.0394 0
M  V30 3 C 0.6664 -0.7478 0.3681 0
M  V30 4 C -1.7922 -0.6664 -0.1621 0
M  V30 5 C -0.2737 1.0317 -1.2 0
M  V30 6 C 1.97 -0.0135 0.661 0
M  V30 7 H -0.9207 0.5207 1.9283 0
M  V30 8 H 0.4236 -1.3448 1.2569 0
M  V30 9 H 0.8333 -1.4532 -0.455 0
M  V30 10 H -2.663 -0.0236 -0.3358 0
M  V30 11 H -2.0188 -1.2551 0.7342 0
M  V30 12 H -1.691 -1.3518 -1.0099 0
M  V30 13 H -1.1563 1.6373 -1.4379 0
M  V30 14 H -0.0326 0.4178 -2.0738 0
M  V30 15 H 0.5409 1.7447 -1.0346 0
M  V30 16 H 2.7425 -0.7304 0.958 0
M  V30 17 H 2.3373 0.5184 -0.2212 0
M  V30 18 H 1.8498 0.7058 1.4769 0
M  V30 END ATOM
M  V30 BEGIN BOND
M  V30 1 1 1 2
M  V30 2 1 2 3
M  V30 3 1 2 4
M  V30 4 1 2 5
M  V30 5 1 3 6
M  V30 6 1 1 7
M  V30 7 1 3 8
M  V30 8 1 3 9
M  V30 9 1 4 10
M  V30 10 1 4 11
M  V30 11 1 4 12
M  V30 12 1 5 13
M  V30 13 1 5 14
M  V30 14 1 5 15
M  V30 15 1 6 16
M  V30 16 1 6 17
M  V30 17 1 6 18
M  V30 END BOND
M  V30 END CTAB
M  END
>  <Column 1>
514

>  <level_0>
580

>  <index>
580

>  <Unnamed: 0>
580

>  <NO.>
590

>  <Name>
amylene-hydrate (tertiary-amyl alcohol)

>  <IUPAC_name>
2-methylbutan-2-ol

>  <SMILES>
CCC(C)(C)O

>  <CID>
6405

>  <logBB>
0.07

>  <BBB+/BBB->
BBB+

>  <Inchi>
InChI=1S/C5H12O/c1-4-5(2-3)6/h6H-4H2-1-3H3

>  <threshold>


>  <reference>
R2|R2|R8|R21|R25|R27|R27|R40|R41|R43|R46|R47|R3|R38|

>  <group>
A

>  <Class>
1

>  <ABC>
4.01

>  <ABCGG>
4.28

>  <nAcid>
0

>  <nBase>
0

>  <nAromAtom>
0

>  <nAromBond>
0

>  <nAtom>
18

>  <nHeavyAtom>
6

>  <nSpiro>
0

>  <nBridgehead>
0

>  <nHetero>
1

>  <nN>
0

>  <nO>
1

>  <nF>
0

>  <BalabanJ>
3.17

>  <BertzCT>
33.69

>  <nBonds>
17

>  <nBondsO>
5

>  <nBondsS>
17

>  <nBondsD>
0

>  <nBondsT>
0

>  <nBondsA>
0

>  <nBondsM>
0

>  <nBondsKS>
17

>  <nBondsKD>
0

>  <RNCG>
0.71

>  <RPCG>
0.38

>  <FCSP3>
1

>  <SZ>
8.33

>  <Sm>
7.34

>  <Sv>
8.97

>  <Sse>
17.66

>  <Sp>
10.27

>  <Si>
20.7

>  <MZ>
0.46

>  <Mm>
0.41

>  <Mv>
0.5

>  <Mse>
0.98

>  <Mp>
0.57

>  <Mi>
1.15

>  <NsCH3>
3

>  <NdCH2>
0

>  <NssCH2>
1

>  <NtCH>
0

>  <NdsCH>
0

>  <NaaCH>
0

>  <NsssCH>
0

>  <NddC>
0

>  <NtsC>
0

>  <NdssC>
0

>  <NaasC>
0

>  <NaaaC>
0

>  <NssssC>
1

>  <NsNH3>
0

>  <NsNH2>
0

>  <NssNH2>
0

>  <NdNH>
0

>  <NssNH>
0

>  <NaaNH>
0

>  <NtN>
0

>  <NsssNH>
0

>  <NdsN>
0

>  <NaaN>
0

>  <NsssN>
0

>  <NddsN>
0

>  <NaasN>
0

>  <NssssN>
0

>  <NsOH>
1

>  <NdO>
0

>  <NssO>
0

>  <NaaO>
0

>  <NsF>
0

>  <NsSiH3>
0

>  <NssSiH2>
0

>  <NsssSiH>
0

>  <NssssSi>
0

>  <NsPH2>
0

>  <NssPH>
0

>  <NsssP>
0

>  <NdsssP>
0

>  <NsssssP>
0

>  <NsSH>
0

>  <NdS>
0

>  <NssS>
0

>  <NaaS>
0

>  <NdssS>
0

>  <NddssS>
0

>  <NsCl>
0

>  <NsBr>
0

>  <NsI>
0

>  <fragCpx>
5.01

>  <fMF>
0

>  <nHBAcc>
1

>  <nHBDon>
1

>  <Kier1>
6

>  <Kier2>
1.63

>  <Lipinski>
1

>  <GhoseFilter>
0

>  <FilterItLogS>
-0.82

>  <VMcGowan>
87.18

>  <LabuteASA>
38.99

>  <PEOE_VSA1>
5.11

>  <PEOE_VSA2>
0

>  <PEOE_VSA3>
0

>  <PEOE_VSA4>
0

>  <PEOE_VSA5>
0

>  <PEOE_VSA6>
6.92

>  <PEOE_VSA7>
20.27

>  <PEOE_VSA8>
0

>  <PEOE_VSA9>
5.6

>  <PEOE_VSA10>
0

>  <PEOE_VSA11>
0

>  <PEOE_VSA12>
0

>  <PEOE_VSA13>
0

>  <SMR_VSA1>
5.11

>  <SMR_VSA2>
0

>  <SMR_VSA3>
0

>  <SMR_VSA4>
0

>  <SMR_VSA5>
32.79

>  <SMR_VSA6>
0

>  <SMR_VSA7>
0

>  <SMR_VSA8>
0

>  <SMR_VSA9>
0

>  <SlogP_VSA1>
0

>  <SlogP_VSA2>
10.71

>  <SlogP_VSA3>
0

>  <SlogP_VSA4>
0

>  <SlogP_VSA5>
27.19

>  <SlogP_VSA6>
0

>  <SlogP_VSA7>
0

>  <SlogP_VSA8>
0

>  <SlogP_VSA9>
0

>  <SlogP_VSA10>
0

>  <SlogP_VSA11>
0

>  <EState_VSA1>
5.6

>  <EState_VSA2>
0

>  <EState_VSA3>
0

>  <EState_VSA4>
6.42

>  <EState_VSA5>
0

>  <EState_VSA6>
13.85

>  <EState_VSA7>
6.92

>  <EState_VSA8>
0

>  <EState_VSA9>
5.11

>  <EState_VSA10>
0

>  <VSA_EState1>
0

>  <VSA_EState2>
0

>  <VSA_EState3>
8.83

>  <VSA_EState4>
-0.46

>  <VSA_EState5>
0

>  <VSA_EState6>
0

>  <VSA_EState7>
0.83

>  <VSA_EState8>
5.56

>  <VSA_EState9>
0

>  <apol>
17.15

>  <bpol>
12.04

>  <nRing>
0

>  <nHRing>
0

>  <naRing>
0

>  <naHRing>
0

>  <nARing 2>
0

>  <nAHRing 2>
0

>  <nFRing>
0

>  <nFHRing>
0

>  <nFaRing>
0

>  <nFaHRing>
0

>  <nFARing 2>
0

>  <nFAHRing 2>
0

>  <nRot>
1

>  <SLogP>
1.17

>  <SMR>
26.59

>  <TopoPSA(NO)>
20.23

>  <TopoPSA>
20.23

>  <JGI1>
0.6

>  <JGI2>
0.1

>  <JGI3>
0

>  <JGI4>
0

>  <JGI5>
0

>  <Diameter>
3

>  <Radius>
2

>  <TMWC10>
65.41

>  <TSRW10>
31.67

>  <MW>
88.09

>  <AMW>
4.89

>  <WPath>
28

>  <WPol>
3

>  <Zagreb1>
24

>  <Zagreb2>
22

>  <mZagreb2>
1.38

>  <yes>


>  <nAR-cont>
0.336376

>  <nHA-cont>
0.238778273

>  <MWHBN>
0.213091777

>  <MWHBN-cont>
0.998393358

>  <TPSA-cont>
0.858782038

>  <pka_cont>
0.97

>  <yes.1>


>  <BBB_SCORE>
4.275308386

>  <MMFF94 Energy>
8.8927

$$$$
Compound 413
Actelion Java MolfileCreator 2.0

  0  0  0  0  0  0              0 V3000
M  V30 BEGIN CTAB
M  V30 COUNTS 60 62 0 0 0
M  V30 BEGIN ATOM
M  V30 1 N 1.8844 -0.0784 -0.1569 0
M  V30 2 C 2.4063 -1.219 0.1801 0
M  V30 3 C 0.5401 0.0646 0.0517 0
M  V30 4 C 1.6569 -2.3614 0.7761 0
M  V30 5 C 3.8866 -1.406 -0.0418 0
M  V30 6 N -0.2455 -0.9507 0.6235 0
M  V30 7 C -0.3165 1.1147 -0.2096 0
M  V30 8 C 0.3397 -2.1967 1.0067 0
M  V30 9 N -1.559 -0.5685 0.6922 0
M  V30 10 C 0.0913 2.3788 -0.782 0
M  V30 11 C -1.5918 0.6735 0.2047 0
M  V30 12 N -0.4505 -3.2206 1.5767 0
M  V30 13 C 0.3688 2.5483 -2.1396 0
M  V30 14 C 0.1887 3.4979 0.0324 0
M  V30 15 C -2.8767 1.4142 0.1397 0
M  V30 16 C -1.4265 -2.9561 2.6493 0
M  V30 17 C -0.4678 -4.5838 1.022 0
M  V30 18 C 0.7463 3.8285 -2.5854 0
M  V30 19 C 0.3095 1.4114 -3.12 0
M  V30 20 N 0.5317 4.7363 -0.398 0
M  V30 21 C -0.8812 -3.4627 3.9883 0
M  V30 22 C -1.2976 -4.6251 -0.2628 0
M  V30 23 C 0.8228 4.9133 -1.7057 0
M  V30 24 C -1.8568 -3.1947 5.1233 0
M  V30 25 C -1.3614 -6.0305 -0.8386 0
M  V30 26 N 1.1793 6.184 -2.1283 0
M  V30 27 C 1.2766 7.2171 -1.1097 0
M  V30 28 C 1.7504 6.4327 -3.4364 0
M  V30 29 H 2.1919 -3.2627 1.0356 0
M  V30 30 H 4.1133 -1.2584 -1.1018 0
M  V30 31 H 4.4351 -0.6645 0.5465 0
M  V30 32 H 4.216 -2.4054 0.2532 0
M  V30 33 H -0.0121 3.436 1.0987 0
M  V30 34 H -2.8686 2.2517 0.8447 0
M  V30 35 H -3.7259 0.7695 0.3891 0
M  V30 36 H -3.0415 1.8106 -0.8673 0
M  V30 37 H -2.3807 -3.4434 2.4149 0
M  V30 38 H -1.6368 -1.8884 2.7572 0
M  V30 39 H -0.8891 -5.2879 1.7496 0
M  V30 40 H 0.5528 -4.93 0.8231 0
M  V30 41 H 0.9735 3.963 -3.6368 0
M  V30 42 H 0.3382 1.7753 -4.1528 0
M  V30 43 H 1.1623 0.7411 -2.9761 0
M  V30 44 H -0.6222 0.8475 -3.0089 0
M  V30 45 H -0.678 -4.5383 3.9392 0
M  V30 46 H 0.0741 -2.9714 4.2093 0
M  V30 47 H -2.3156 -4.2696 -0.0633 0
M  V30 48 H -0.8684 -3.9501 -1.0126 0
M  V30 49 H -1.448 -3.5627 6.0695 0
M  V30 50 H -2.049 -2.1223 5.2311 0
M  V30 51 H -2.8119 -3.6995 4.9463 0
M  V30 52 H -1.9576 -6.0373 -1.7564 0
M  V30 53 H -0.3602 -6.4006 -1.0808 0
M  V30 54 H -1.8228 -6.7247 -0.1289 0
M  V30 55 H 0.3484 7.3003 -0.5323 0
M  V30 56 H 1.4513 8.2022 -1.5565 0
M  V30 57 H 2.1086 7.014 -0.4261 0
M  V30 58 H 2.681 5.8705 -3.5703 0
M  V30 59 H 1.9873 7.4929 -3.5785 0
M  V30 60 H 1.0476 6.1618 -4.2316 0
M  V30 END ATOM
M  V30 BEGIN BOND
M  V30 1 2 1 2
M  V30 2 1 1 3
M  V30 3 1 2 4
M  V30 4 1 2 5
M  V30 5 1 3 6
M  V30 6 2 3 7
M  V30 7 2 4 8
M  V30 8 1 6 9
M  V30 9 1 7 10
M  V30 10 1 7 11
M  V30 11 1 8 12
M  V30 12 2 10 13
M  V30 13 1 10 14
M  V30 14 1 11 15
M  V30 15 1 12 16
M  V30 16 1 12 17
M  V30 17 1 13 18
M  V30 18 1 13 19
M  V30 19 2 14 20
M  V30 20 1 16 21
M  V30 21 1 17 22
M  V30 22 2 18 23
M  V30 23 1 21 24
M  V30 24 1 22 25
M  V30 25 1 23 26
M  V30 26 1 26 27
M  V30 27 1 26 28
M  V30 28 1 6 8
M  V30 29 2 9 11
M  V30 30 1 20 23
M  V30 31 1 4 29
M  V30 32 1 5 30
M  V30 33 1 5 31
M  V30 34 1 5 32
M  V30 35 1 14 33
M  V30 36 1 15 34
M  V30 37 1 15 35
M  V30 38 1 15 36
M  V30 39 1 16 37
M  V30 40 1 16 38
M  V30 41 1 17 39
M  V30 42 1 17 40
M  V30 43 1 18 41
M  V30 44 1 19 42
M  V30 45 1 19 43
M  V30 46 1 19 44
M  V30 47 1 21 45
M  V30 48 1 21 46
M  V30 49 1 22 47
M  V30 50 1 22 48
M  V30 51 1 24 49
M  V30 52 1 24 50
M  V30 53 1 24 51
M  V30 54 1 25 52
M  V30 55 1 25 53
M  V30 56 1 25 54
M  V30 57 1 27 55
M  V30 58 1 27 56
M  V30 59 1 27 57
M  V30 60 1 28 58
M  V30 61 1 28 59
M  V30 62 1 28 60
M  V30 END BOND
M  V30 END CTAB
M  END
>  <Column 1>
515

>  <level_0>
581

>  <index>
581

>  <Unnamed: 0>
581

>  <NO.>
591

>  <Name>
195055-03-9

>  <IUPAC_name>
3-[6-(dimethylamino)-4-methylpyridin-3-yl]-2-5-dimethyl-n-n-dipropylpyrazolo[1-5-a]pyrimidin-7-amine

>  <SMILES>
CCCN(CCC)c1cc(C)nc2c(-c3cnc(N(C)C)cc3C)c(C)nn12

>  <CID>
9821250

>  <logBB>
0.07

>  <BBB+/BBB->
BBB+

>  <Inchi>
InChI=1S/C22H32N6/c1-8-10-27(11-9-2)20-13-16(4)24-22-21(17(5)25-28(20)22)18-14-23-19(26(6)7)12-15(18)3/h12-14H-8-11H2-1-7H3

>  <threshold>


>  <reference>
R47|

>  <group>
A

>  <Class>
1

>  <ABC>
21.44

>  <ABCGG>
17.97

>  <nAcid>
0

>  <nBase>
0

>  <nAromAtom>
15

>  <nAromBond>
16

>  <nAtom>
60

>  <nHeavyAtom>
28

>  <nSpiro>
0

>  <nBridgehead>
0

>  <nHetero>
6

>  <nN>
6

>  <nO>
0

>  <nF>
0

>  <BalabanJ>
1.76

>  <BertzCT>
966.81

>  <nBonds>
62

>  <nBondsO>
30

>  <nBondsS>
46

>  <nBondsD>
0

>  <nBondsT>
0

>  <nBondsA>
16

>  <nBondsM>
16

>  <nBondsKS>
55

>  <nBondsKD>
7

>  <RNCG>
0.19

>  <RPCG>
0.09

>  <FCSP3>
0.5

>  <SZ>
34.33

>  <Sm>
31.68

>  <Sv>
35.22

>  <Sse>
59.18

>  <Sp>
38.73

>  <Si>
68.39

>  <MZ>
0.57

>  <Mm>
0.53

>  <Mv>
0.59

>  <Mse>
0.99

>  <Mp>
0.65

>  <Mi>
1.14

>  <NsCH3>
7

>  <NdCH2>
0

>  <NssCH2>
4

>  <NtCH>
0

>  <NdsCH>
0

>  <NaaCH>
3

>  <NsssCH>
0

>  <NddC>
0

>  <NtsC>
0

>  <NdssC>
0

>  <NaasC>
7

>  <NaaaC>
1

>  <NssssC>
0

>  <NsNH3>
0

>  <NsNH2>
0

>  <NssNH2>
0

>  <NdNH>
0

>  <NssNH>
0

>  <NaaNH>
0

>  <NtN>
0

>  <NsssNH>
0

>  <NdsN>
0

>  <NaaN>
3

>  <NsssN>
2

>  <NddsN>
0

>  <NaasN>
1

>  <NssssN>
0

>  <NsOH>
0

>  <NdO>
0

>  <NssO>
0

>  <NaaO>
0

>  <NsF>
0

>  <NsSiH3>
0

>  <NssSiH2>
0

>  <NsssSiH>
0

>  <NssssSi>
0

>  <NsPH2>
0

>  <NssPH>
0

>  <NsssP>
0

>  <NdsssP>
0

>  <NsssssP>
0

>  <NsSH>
0

>  <NdS>
0

>  <NssS>
0

>  <NaaS>
0

>  <NdssS>
0

>  <NddssS>
0

>  <NsCl>
0

>  <NsBr>
0

>  <NsI>
0

>  <fragCpx>
144.06

>  <fMF>
0.25

>  <nHBAcc>
6

>  <nHBDon>
0

>  <Kier1>
22.68

>  <Kier2>
9.87

>  <Lipinski>
1

>  <GhoseFilter>
1

>  <FilterItLogS>
-6.34

>  <VMcGowan>
318.04

>  <LabuteASA>
167.77

>  <PEOE_VSA1>
9.8

>  <PEOE_VSA2>
0

>  <PEOE_VSA3>
9.97

>  <PEOE_VSA4>
9.61

>  <PEOE_VSA5>
0

>  <PEOE_VSA6>
13.85

>  <PEOE_VSA7>
45.24

>  <PEOE_VSA8>
50.71

>  <PEOE_VSA9>
11.26

>  <PEOE_VSA10>
11.64

>  <PEOE_VSA11>
5.65

>  <PEOE_VSA12>
0

>  <PEOE_VSA13>
0

>  <SMR_VSA1>
0

>  <SMR_VSA2>
0

>  <SMR_VSA3>
19.58

>  <SMR_VSA4>
0

>  <SMR_VSA5>
47.46

>  <SMR_VSA6>
36.98

>  <SMR_VSA7>
35.28

>  <SMR_VSA8>
0

>  <SMR_VSA9>
11.13

>  <SlogP_VSA1>
9.8

>  <SlogP_VSA2>
46.77

>  <SlogP_VSA3>
0

>  <SlogP_VSA4>
20.77

>  <SlogP_VSA5>
43.64

>  <SlogP_VSA6>
18.33

>  <SlogP_VSA7>
0

>  <SlogP_VSA8>
16.77

>  <SlogP_VSA9>
0

>  <SlogP_VSA10>
11.64

>  <SlogP_VSA11>
0

>  <EState_VSA1>
0

>  <EState_VSA2>
0

>  <EState_VSA3>
0

>  <EState_VSA4>
65.73

>  <EState_VSA5>
5.56

>  <EState_VSA6>
0

>  <EState_VSA7>
29.71

>  <EState_VSA8>
56.64

>  <EState_VSA9>
10.08

>  <EState_VSA10>
0

>  <VSA_EState1>
2.02

>  <VSA_EState2>
13.94

>  <VSA_EState3>
4.89

>  <VSA_EState4>
6.26

>  <VSA_EState5>
2.08

>  <VSA_EState6>
4.27

>  <VSA_EState7>
4.16

>  <VSA_EState8>
12.71

>  <VSA_EState9>
4.02

>  <apol>
64.68

>  <bpol>
39.51

>  <nRing>
3

>  <nHRing>
3

>  <naRing>
3

>  <naHRing>
3

>  <nARing 2>
0

>  <nAHRing 2>
0

>  <nFRing>
1

>  <nFHRing>
1

>  <nFaRing>
1

>  <nFaHRing>
1

>  <nFARing 2>
0

>  <nFAHRing 2>
0

>  <nRot>
7

>  <SLogP>
4.41

>  <SMR>
117.55

>  <TopoPSA(NO)>
49.56

>  <TopoPSA>
49.56

>  <JGI1>
0.2

>  <JGI2>
0.08

>  <JGI3>
0.06

>  <JGI4>
0.05

>  <JGI5>
0.03

>  <Diameter>
13

>  <Radius>
7

>  <TMWC10>
135.48

>  <TSRW10>
77.81

>  <MW>
380.27

>  <AMW>
6.34

>  <WPath>
1963

>  <WPol>
48

>  <Zagreb1>
146

>  <Zagreb2>
175

>  <mZagreb2>
6.31

>  <yes>


>  <nAR-cont>
0.336376

>  <nHA-cont>
0.82432561

>  <MWHBN>
0.307684216

>  <MWHBN-cont>
0.817189403

>  <TPSA-cont>
0.654040425

>  <pka_cont>
0.97

>  <yes.1>


>  <BBB_SCORE>
4.179566565

>  <MMFF94 Energy>
98.875

$$$$
Compound 414
Actelion Java MolfileCreator 2.0

  0  0  0  0  0  0              0 V3000
M  V30 BEGIN CTAB
M  V30 COUNTS 55 58 0 0 0
M  V30 BEGIN ATOM
M  V30 1 Br 4.5293 -0.2422 -5.4208 0
M  V30 2 C 2.8456 -0.8014 -4.7712 0
M  V30 3 C 2.7315 -2.0095 -4.0908 0
M  V30 4 C 1.7237 -0.0057 -4.9786 0
M  V30 5 C 1.483 -2.4178 -3.6113 0
M  V30 6 C 0.481 -0.4237 -4.493 0
M  V30 7 C 0.3408 -1.6264 -3.7916 0
M  V30 8 N -0.8885 -2.0248 -3.3353 0
M  V30 9 C -1.5136 -1.6428 -2.0417 0
M  V30 10 C -1.5106 -3.1919 -3.9237 0
M  V30 11 C -2.7762 -2.5286 -2.064 0
M  V30 12 C -0.6836 -2.0673 -0.8258 0
M  V30 13 C -1.9599 -0.1808 -1.9877 0
M  V30 14 N -2.6903 -3.3643 -3.1534 0
M  V30 15 O -3.7062 -2.5392 -1.273 0
M  V30 16 C 0.3256 -1.0116 -0.3847 0
M  V30 17 C -0.8896 0.7646 -1.4507 0
M  V30 18 N -0.3301 0.288 -0.1766 0
M  V30 19 C 0.6032 1.2911 0.3633 0
M  V30 20 C 1.0819 1.0114 1.7942 0
M  V30 21 C -0.0657 0.7769 2.7732 0
M  V30 22 C 0.4634 0.6805 4.1889 0
M  V30 23 O 0.9775 -0.3584 4.6022 0
M  V30 24 C 0.3791 1.8629 5.0986 0
M  V30 25 C 0.5651 1.6522 6.4748 0
M  V30 26 C 0.1435 3.1625 4.6283 0
M  V30 27 C 0.5021 2.7226 7.3696 0
M  V30 28 C 0.0813 4.2317 5.5275 0
M  V30 29 C 0.259 4.0023 6.8874 0
M  V30 30 F 0.1994 5.0308 7.7427 0
M  V30 31 H 3.6013 -2.6394 -3.926 0
M  V30 32 H 1.7995 0.9349 -5.5168 0
M  V30 33 H 1.4118 -3.3613 -3.0753 0
M  V30 34 H -0.3923 0.1982 -4.6752 0
M  V30 35 H -0.9023 -4.0966 -3.8261 0
M  V30 36 H -1.7876 -3.0307 -4.9698 0
M  V30 37 H -0.1635 -3.0149 -1.0145 0
M  V30 38 H -1.3516 -2.2628 0.0253 0
M  V30 39 H -2.2925 0.1635 -2.975 0
M  V30 40 H -2.8367 -0.0865 -1.3317 0
M  V30 41 H -3.415 -4.0384 -3.3488 0
M  V30 42 H 0.7695 -1.3713 0.5499 0
M  V30 43 H 1.1449 -0.9255 -1.107 0
M  V30 44 H -0.0957 0.9166 -2.1889 0
M  V30 45 H -1.364 1.7432 -1.3012 0
M  V30 46 H 0.1008 2.2675 0.3839 0
M  V30 47 H 1.4764 1.4037 -0.2925 0
M  V30 48 H 1.6807 1.8689 2.1274 0
M  V30 49 H 1.7652 0.1541 1.8114 0
M  V30 50 H -0.5781 -0.1684 2.5571 0
M  V30 51 H -0.8329 1.5527 2.6935 0
M  V30 52 H 0.7588 0.6502 6.8549 0
M  V30 53 H 0.0189 3.3743 3.5708 0
M  V30 54 H 0.6427 2.5642 8.4342 0
M  V30 55 H -0.1003 5.243 5.1758 0
M  V30 END ATOM
M  V30 BEGIN BOND
M  V30 1 1 1 2
M  V30 2 2 2 3
M  V30 3 1 2 4
M  V30 4 1 3 5
M  V30 5 2 4 6
M  V30 6 2 5 7
M  V30 7 1 7 8
M  V30 8 1 8 9
M  V30 9 1 8 10
M  V30 10 1 9 11
M  V30 11 1 9 12
M  V30 12 1 9 13
M  V30 13 1 10 14
M  V30 14 2 11 15
M  V30 15 1 12 16
M  V30 16 1 13 17
M  V30 17 1 16 18
M  V30 18 1 18 19
M  V30 19 1 19 20
M  V30 20 1 20 21
M  V30 21 1 21 22
M  V30 22 2 22 23
M  V30 23 1 22 24
M  V30 24 2 24 25
M  V30 25 1 24 26
M  V30 26 1 25 27
M  V30 27 2 26 28
M  V30 28 2 27 29
M  V30 29 1 29 30
M  V30 30 1 6 7
M  V30 31 1 11 14
M  V30 32 1 17 18
M  V30 33 1 28 29
M  V30 34 1 3 31
M  V30 35 1 4 32
M  V30 36 1 5 33
M  V30 37 1 6 34
M  V30 38 1 10 35
M  V30 39 1 10 36
M  V30 40 1 12 37
M  V30 41 1 12 38
M  V30 42 1 13 39
M  V30 43 1 13 40
M  V30 44 1 14 41
M  V30 45 1 16 42
M  V30 46 1 16 43
M  V30 47 1 17 44
M  V30 48 1 17 45
M  V30 49 1 19 46
M  V30 50 1 19 47
M  V30 51 1 20 48
M  V30 52 1 20 49
M  V30 53 1 21 50
M  V30 54 1 21 51
M  V30 55 1 25 52
M  V30 56 1 26 53
M  V30 57 1 27 54
M  V30 58 1 28 55
M  V30 END BOND
M  V30 END CTAB
M  END
>  <Column 1>
516

>  <level_0>
583

>  <index>
583

>  <Unnamed: 0>
583

>  <NO.>
593

>  <Name>
p-bromospiperone

>  <IUPAC_name>
1-(4-bromophenyl)-8-[4-(4-fluorophenyl)-4-oxobutyl]-1-3-8-triazaspiro[4.5]decan-4-one

>  <SMILES>
O=C(CCCN1CCC2(CC1)C(=O)NCN2c1ccc(Br)cc1)c1ccc(F)cc1

>  <CID>
156386

>  <logBB>
0.07

>  <BBB+/BBB->
BBB+

>  <Inchi>
InChI=1S/C23H25BrFN3O2/c24-18-5-9-20(10-6-18)28-16-26-22(30)23(28)11-14-27(15-12-23)13-1-2-21(29)17-3-7-19(25)8-4-17/h3-10H-1-2-11-16H2-(H-26-30)

>  <threshold>


>  <reference>
R2|R2|R3|R8|R21|R25|R27|R27|R38|R41|R43|R47|R40|

>  <group>
A

>  <Class>
1

>  <ABC>
23.57

>  <ABCGG>
17.59

>  <nAcid>
0

>  <nBase>
1

>  <nAromAtom>
12

>  <nAromBond>
12

>  <nAtom>
55

>  <nHeavyAtom>
30

>  <nSpiro>
1

>  <nBridgehead>
0

>  <nHetero>
7

>  <nN>
3

>  <nO>
2

>  <nF>
1

>  <BalabanJ>
1.22

>  <BertzCT>
909.05

>  <nBonds>
58

>  <nBondsO>
33

>  <nBondsS>
44

>  <nBondsD>
2

>  <nBondsT>
0

>  <nBondsA>
12

>  <nBondsM>
14

>  <nBondsKS>
50

>  <nBondsKD>
8

>  <RNCG>
0.16

>  <RPCG>
0.11

>  <FCSP3>
0.39

>  <SZ>
40.67

>  <Sm>
39.5

>  <Sv>
35.41

>  <Sse>
55.38

>  <Sp>
38.08

>  <Si>
62.08

>  <MZ>
0.74

>  <Mm>
0.72

>  <Mv>
0.64

>  <Mse>
1.01

>  <Mp>
0.69

>  <Mi>
1.13

>  <NsCH3>
0

>  <NdCH2>
0

>  <NssCH2>
8

>  <NtCH>
0

>  <NdsCH>
0

>  <NaaCH>
8

>  <NsssCH>
0

>  <NddC>
0

>  <NtsC>
0

>  <NdssC>
2

>  <NaasC>
4

>  <NaaaC>
0

>  <NssssC>
1

>  <NsNH3>
0

>  <NsNH2>
0

>  <NssNH2>
0

>  <NdNH>
0

>  <NssNH>
1

>  <NaaNH>
0

>  <NtN>
0

>  <NsssNH>
0

>  <NdsN>
0

>  <NaaN>
0

>  <NsssN>
2

>  <NddsN>
0

>  <NaasN>
0

>  <NssssN>
0

>  <NsOH>
0

>  <NdO>
2

>  <NssO>
0

>  <NaaO>
0

>  <NsF>
1

>  <NsSiH3>
0

>  <NssSiH2>
0

>  <NsssSiH>
0

>  <NssssSi>
0

>  <NsPH2>
0

>  <NssPH>
0

>  <NsssP>
0

>  <NdsssP>
0

>  <NsssssP>
0

>  <NsSH>
0

>  <NdS>
0

>  <NssS>
0

>  <NaaS>
0

>  <NdssS>
0

>  <NddssS>
0

>  <NsCl>
0

>  <NsBr>
1

>  <NsI>
0

>  <fragCpx>
219.07

>  <fMF>
0.47

>  <nHBAcc>
4

>  <nHBDon>
1

>  <Kier1>
23.17

>  <Kier2>
10.29

>  <Lipinski>
1

>  <GhoseFilter>
1

>  <FilterItLogS>
-6.39

>  <VMcGowan>
318.03

>  <LabuteASA>
183.92

>  <PEOE_VSA1>
15.12

>  <PEOE_VSA2>
9.59

>  <PEOE_VSA3>
4.39

>  <PEOE_VSA4>
0

>  <PEOE_VSA5>
0

>  <PEOE_VSA6>
15.93

>  <PEOE_VSA7>
74.34

>  <PEOE_VSA8>
35.23

>  <PEOE_VSA9>
6.67

>  <PEOE_VSA10>
11.36

>  <PEOE_VSA11>
5.78

>  <PEOE_VSA12>
5.91

>  <PEOE_VSA13>
0

>  <SMR_VSA1>
13.98

>  <SMR_VSA2>
0

>  <SMR_VSA3>
10.22

>  <SMR_VSA4>
0

>  <SMR_VSA5>
31.22

>  <SMR_VSA6>
31.2

>  <SMR_VSA7>
64.38

>  <SMR_VSA8>
0

>  <SMR_VSA9>
0

>  <SlogP_VSA1>
10.22

>  <SlogP_VSA2>
48.43

>  <SlogP_VSA3>
4.79

>  <SlogP_VSA4>
5.82

>  <SlogP_VSA5>
36.04

>  <SlogP_VSA6>
53

>  <SlogP_VSA7>
0

>  <SlogP_VSA8>
0

>  <SlogP_VSA9>
0

>  <SlogP_VSA10>
10.08

>  <SlogP_VSA11>
0

>  <EState_VSA1>
5.54

>  <EState_VSA2>
17.51

>  <EState_VSA3>
18.65

>  <EState_VSA4>
49.06

>  <EState_VSA5>
24.27

>  <EState_VSA6>
0

>  <EState_VSA7>
24.27

>  <EState_VSA8>
31.05

>  <EState_VSA9>
0

>  <EState_VSA10>
13.98

>  <VSA_EState1>
14.02

>  <VSA_EState2>
29.52

>  <VSA_EState3>
3.02

>  <VSA_EState4>
1.12

>  <VSA_EState5>
-0.18

>  <VSA_EState6>
13.8

>  <VSA_EState7>
2.73

>  <VSA_EState8>
3.01

>  <VSA_EState9>
0

>  <apol>
63.59

>  <bpol>
33.3

>  <nRing>
4

>  <nHRing>
2

>  <naRing>
2

>  <naHRing>
0

>  <nARing 2>
2

>  <nAHRing 2>
2

>  <nFRing>
0

>  <nFHRing>
0

>  <nFaRing>
0

>  <nFaHRing>
0

>  <nFARing 2>
0

>  <nFAHRing 2>
0

>  <nRot>
6

>  <SLogP>
3.98

>  <SMR>
118

>  <TopoPSA(NO)>
52.65

>  <TopoPSA>
52.65

>  <JGI1>
0.21

>  <JGI2>
0.1

>  <JGI3>
0.05

>  <JGI4>
0.04

>  <JGI5>
0.03

>  <Diameter>
18

>  <Radius>
9

>  <TMWC10>
140.62

>  <TSRW10>
80.21

>  <MW>
473.11

>  <AMW>
8.6

>  <WPath>
2866

>  <WPol>
49

>  <Zagreb1>
160

>  <Zagreb2>
190

>  <mZagreb2>
6.56

>  <yes>


>  <nAR-cont>
1

>  <nHA-cont>
0.74523694

>  <MWHBN>
0.229873517

>  <MWHBN-cont>
0.986897505

>  <TPSA-cont>
0.632470306

>  <pka_cont>
0.97

>  <yes.1>


>  <BBB_SCORE>
4.975523809

>  <MMFF94 Energy>
32.809

$$$$
Compound 415
Actelion Java MolfileCreator 2.0

  0  0  0  0  0  0              0 V3000
M  V30 BEGIN CTAB
M  V30 COUNTS 74 77 0 0 0
M  V30 BEGIN ATOM
M  V30 1 O -1.3498 -0.7938 -0.635 0
M  V30 2 C -0.2109 -0.6768 -0.1859 0
M  V30 3 N 0.8679 -1.2813 -0.7943 0
M  V30 4 C 0.0346 0.1282 1.049 0
M  V30 5 C 0.7197 -2.086 -1.9799 0
M  V30 6 C 1.1891 0.0415 1.8176 0
M  V30 7 C -0.9376 1.0122 1.5285 0
M  V30 8 O 2.201 -0.8019 1.402 0
M  V30 9 N 1.4008 0.7441 2.9481 0
M  V30 10 N -0.7489 1.7309 2.6567 0
M  V30 11 N -2.1089 1.2497 0.8304 0
M  V30 12 C 3.2881 -0.9443 2.322 0
M  V30 13 C 0.4056 1.5615 3.3146 0
M  V30 14 C -3.1216 2.1627 1.3193 0
M  V30 15 C 4.316 -1.9345 1.7538 0
M  V30 16 C 0.5951 2.3286 4.5172 0
M  V30 17 C -4.2743 2.2806 0.3058 0
M  V30 18 C 3.7006 -3.3139 1.5063 0
M  V30 19 C 4.9286 -1.4262 0.4463 0
M  V30 20 N 0.7586 2.9434 5.4918 0
M  V30 21 C -5.4388 3.0735 0.9235 0
M  V30 22 C -3.8123 2.9472 -1.0029 0
M  V30 23 C 4.7118 -4.2761 0.8787 0
M  V30 24 C 5.9047 -2.4433 -0.1493 0
M  V30 25 C -6.5946 3.2475 -0.0608 0
M  V30 26 C -4.9676 3.1071 -1.9898 0
M  V30 27 N 5.269 -3.7543 -0.3847 0
M  V30 28 C -6.1027 3.9139 -1.3535 0
M  V30 29 C 6.2133 -4.7214 -1.0122 0
M  V30 30 C -7.2516 4.2461 -2.3549 0
M  V30 31 C -5.8573 5.4549 -1.2708 0
M  V30 32 C 5.553 -6.0827 -1.2957 0
M  V30 33 C 6.7778 -4.2046 -2.3477 0
M  V30 34 C -7.3035 5.6639 -1.7562 0
M  V30 35 H 1.7864 -1.2189 -0.3674 0
M  V30 36 H 0.1541 -1.5317 -2.7338 0
M  V30 37 H 0.1822 -3.002 -1.7211 0
M  V30 38 H 1.7129 -2.3319 -2.3623 0
M  V30 39 H -2.3722 0.5356 0.1457 0
M  V30 40 H 2.9167 -1.3254 3.282 0
M  V30 41 H 3.7768 0.0254 2.4805 0
M  V30 42 H -2.6884 3.1549 1.4982 0
M  V30 43 H -3.513 1.7899 2.274 0
M  V30 44 H 5.1207 -2.0402 2.4939 0
M  V30 45 H -4.6366 1.2706 0.0679 0
M  V30 46 H 2.8288 -3.2351 0.8443 0
M  V30 47 H 3.3405 -3.7345 2.4531 0
M  V30 48 H 5.4567 -0.482 0.6267 0
M  V30 49 H 4.1441 -1.2126 -0.2904 0
M  V30 50 H -5.8071 2.5564 1.8178 0
M  V30 51 H -5.0821 4.0579 1.2515 0
M  V30 52 H -3.0251 2.3496 -1.4768 0
M  V30 53 H -3.3779 3.9309 -0.7835 0
M  V30 54 H 4.1702 -5.2112 0.7058 0
M  V30 55 H 5.515 -4.4882 1.5965 0
M  V30 56 H 6.7764 -2.5493 0.5094 0
M  V30 57 H 6.2551 -2.0086 -1.0906 0
M  V30 58 H -7.0278 2.2658 -0.2907 0
M  V30 59 H -7.3866 3.8376 0.415 0
M  V30 60 H -4.6002 3.5971 -2.8994 0
M  V30 61 H -5.334 2.1172 -2.2898 0
M  V30 62 H 7.0609 -4.8951 -0.3355 0
M  V30 63 H -8.1706 3.6615 -2.2532 0
M  V30 64 H -6.9522 4.2376 -3.4101 0
M  V30 65 H -5.1083 5.8328 -1.9772 0
M  V30 66 H -5.6361 5.8659 -0.282 0
M  V30 67 H 5.3289 -6.628 -0.3738 0
M  V30 68 H 6.2206 -6.7282 -1.8777 0
M  V30 69 H 4.6245 -5.9637 -1.8652 0
M  V30 70 H 7.3587 -4.9834 -2.8549 0
M  V30 71 H 5.9749 -3.8932 -3.0252 0
M  V30 72 H 7.4593 -3.3606 -2.2038 0
M  V30 73 H -7.4491 6.4756 -2.4736 0
M  V30 74 H -8.0313 5.7757 -0.9446 0
M  V30 END ATOM
M  V30 BEGIN BOND
M  V30 1 2 1 2
M  V30 2 1 2 3
M  V30 3 1 2 4
M  V30 4 1 3 5
M  V30 5 2 4 6
M  V30 6 1 4 7
M  V30 7 1 6 8
M  V30 8 1 6 9
M  V30 9 2 7 10
M  V30 10 1 7 11
M  V30 11 1 8 12
M  V30 12 2 9 13
M  V30 13 1 11 14
M  V30 14 1 12 15
M  V30 15 1 13 16
M  V30 16 1 14 17
M  V30 17 1 15 18
M  V30 18 1 15 19
M  V30 19 3 16 20
M  V30 20 1 17 21
M  V30 21 1 17 22
M  V30 22 1 18 23
M  V30 23 1 19 24
M  V30 24 1 21 25
M  V30 25 1 22 26
M  V30 26 1 23 27
M  V30 27 1 25 28
M  V30 28 1 27 29
M  V30 29 1 28 30
M  V30 30 1 28 31
M  V30 31 1 29 32
M  V30 32 1 29 33
M  V30 33 1 30 34
M  V30 34 1 10 13
M  V30 35 1 24 27
M  V30 36 1 26 28
M  V30 37 1 31 34
M  V30 38 1 3 35
M  V30 39 1 5 36
M  V30 40 1 5 37
M  V30 41 1 5 38
M  V30 42 1 11 39
M  V30 43 1 12 40
M  V30 44 1 12 41
M  V30 45 1 14 42
M  V30 46 1 14 43
M  V30 47 1 15 44
M  V30 48 1 17 45
M  V30 49 1 18 46
M  V30 50 1 18 47
M  V30 51 1 19 48
M  V30 52 1 19 49
M  V30 53 1 21 50
M  V30 54 1 21 51
M  V30 55 1 22 52
M  V30 56 1 22 53
M  V30 57 1 23 54
M  V30 58 1 23 55
M  V30 59 1 24 56
M  V30 60 1 24 57
M  V30 61 1 25 58
M  V30 62 1 25 59
M  V30 63 1 26 60
M  V30 64 1 26 61
M  V30 65 1 29 62
M  V30 66 1 30 63
M  V30 67 1 30 64
M  V30 68 1 31 65
M  V30 69 1 31 66
M  V30 70 1 32 67
M  V30 71 1 32 68
M  V30 72 1 32 69
M  V30 73 1 33 70
M  V30 74 1 33 71
M  V30 75 1 33 72
M  V30 76 1 34 73
M  V30 77 1 34 74
M  V30 END BOND
M  V30 END CTAB
M  END
>  <Column 1>
517

>  <level_0>
584

>  <index>
584

>  <Unnamed: 0>
584

>  <NO.>
594

>  <Name>
irie-16a

>  <IUPAC_name>
2-cyano-n-methyl-4-[(1-propan-2-ylpiperidin-4-yl)methoxy]-6-(spiro[3.5]nonan-7-ylmethylamino)pyrimidine-5-carboxamide

>  <SMILES>
CNC(=O)c1c(NCC2CCC3(CCC3)CC2)nc(C#N)nc1OCC1CCN(C(C)C)CC1

>  <CID>
44579123

>  <logBB>
0.08

>  <BBB+/BBB->
BBB+

>  <Inchi>
InChI=1S/C26H40N6O2/c1-18(2)32-13-7-20(8-14-32)17-34-25-22(24(33)28-3)23(30-21(15-27)31-25)29-16-19-5-11-26(12-6-19)9-4-10-26/h18-20H-4-14-16-17H2-1-3H3-(H-28-33)(H-29-30-31)

>  <threshold>


>  <reference>
R18|R26|R27|

>  <group>
A

>  <Class>
1

>  <ABC>
26.33

>  <ABCGG>
19.98

>  <nAcid>
0

>  <nBase>
1

>  <nAromAtom>
6

>  <nAromBond>
6

>  <nAtom>
74

>  <nHeavyAtom>
34

>  <nSpiro>
1

>  <nBridgehead>
0

>  <nHetero>
8

>  <nN>
6

>  <nO>
2

>  <nF>
0

>  <BalabanJ>
1.31

>  <BertzCT>
889.29

>  <nBonds>
77

>  <nBondsO>
37

>  <nBondsS>
69

>  <nBondsD>
1

>  <nBondsT>
1

>  <nBondsA>
6

>  <nBondsM>
8

>  <nBondsKS>
72

>  <nBondsKD>
4

>  <RNCG>
0.16

>  <RPCG>
0.09

>  <FCSP3>
0.77

>  <SZ>
42.33

>  <Sm>
39.02

>  <Sv>
42.81

>  <Sse>
73.4

>  <Sp>
46.88

>  <Si>
84.47

>  <MZ>
0.57

>  <Mm>
0.53

>  <Mv>
0.58

>  <Mse>
0.99

>  <Mp>
0.63

>  <Mi>
1.14

>  <NsCH3>
3

>  <NdCH2>
0

>  <NssCH2>
13

>  <NtCH>
0

>  <NdsCH>
0

>  <NaaCH>
0

>  <NsssCH>
3

>  <NddC>
0

>  <NtsC>
1

>  <NdssC>
1

>  <NaasC>
4

>  <NaaaC>
0

>  <NssssC>
1

>  <NsNH3>
0

>  <NsNH2>
0

>  <NssNH2>
0

>  <NdNH>
0

>  <NssNH>
2

>  <NaaNH>
0

>  <NtN>
1

>  <NsssNH>
0

>  <NdsN>
0

>  <NaaN>
2

>  <NsssN>
1

>  <NddsN>
0

>  <NaasN>
0

>  <NssssN>
0

>  <NsOH>
0

>  <NdO>
1

>  <NssO>
1

>  <NaaO>
0

>  <NsF>
0

>  <NsSiH3>
0

>  <NssSiH2>
0

>  <NsssSiH>
0

>  <NssssSi>
0

>  <NsPH2>
0

>  <NssPH>
0

>  <NsssP>
0

>  <NdsssP>
0

>  <NsssssP>
0

>  <NsSH>
0

>  <NdS>
0

>  <NssS>
0

>  <NaaS>
0

>  <NdssS>
0

>  <NddssS>
0

>  <NsCl>
0

>  <NsBr>
0

>  <NsI>
0

>  <fragCpx>
247.08

>  <fMF>
0.34

>  <nHBAcc>
7

>  <nHBDon>
2

>  <Kier1>
27.05

>  <Kier2>
12.5

>  <Lipinski>
1

>  <GhoseFilter>
0

>  <FilterItLogS>
-6.16

>  <VMcGowan>
379.58

>  <LabuteASA>
203.41

>  <PEOE_VSA1>
20.27

>  <PEOE_VSA2>
4.79

>  <PEOE_VSA3>
4.98

>  <PEOE_VSA4>
10.25

>  <PEOE_VSA5>
0

>  <PEOE_VSA6>
6.42

>  <PEOE_VSA7>
95.55

>  <PEOE_VSA8>
19.63

>  <PEOE_VSA9>
6.61

>  <PEOE_VSA10>
17.45

>  <PEOE_VSA11>
0

>  <PEOE_VSA12>
11.7

>  <PEOE_VSA13>
5.91

>  <SMR_VSA1>
9.53

>  <SMR_VSA2>
5.26

>  <SMR_VSA3>
20.18

>  <SMR_VSA4>
17.25

>  <SMR_VSA5>
77.68

>  <SMR_VSA6>
38.61

>  <SMR_VSA7>
11.39

>  <SMR_VSA8>
0

>  <SMR_VSA9>
11.95

>  <SlogP_VSA1>
15.37

>  <SlogP_VSA2>
60.11

>  <SlogP_VSA3>
0

>  <SlogP_VSA4>
28.58

>  <SlogP_VSA5>
87.82

>  <SlogP_VSA6>
0

>  <SlogP_VSA7>
0

>  <SlogP_VSA8>
0

>  <SlogP_VSA9>
0

>  <SlogP_VSA10>
5.82

>  <SlogP_VSA11>
5.88

>  <EState_VSA1>
0

>  <EState_VSA2>
17.61

>  <EState_VSA3>
41.28

>  <EState_VSA4>
32.48

>  <EState_VSA5>
44.95

>  <EState_VSA6>
7.05

>  <EState_VSA7>
6.07

>  <EState_VSA8>
39.35

>  <EState_VSA9>
4.74

>  <EState_VSA10>
10.06

>  <VSA_EState1>
6.1

>  <VSA_EState2>
23.91

>  <VSA_EState3>
15.59

>  <VSA_EState4>
0.92

>  <VSA_EState5>
1.3

>  <VSA_EState6>
2.59

>  <VSA_EState7>
11.29

>  <VSA_EState8>
7.79

>  <VSA_EState9>
1.59

>  <apol>
78.3

>  <bpol>
48.43

>  <nRing>
4

>  <nHRing>
2

>  <naRing>
1

>  <naHRing>
1

>  <nARing 2>
3

>  <nAHRing 2>
1

>  <nFRing>
0

>  <nFHRing>
0

>  <nFaRing>
0

>  <nFaHRing>
0

>  <nFARing 2>
0

>  <nFAHRing 2>
0

>  <nRot>
8

>  <SLogP>
3.98

>  <SMR>
131.8

>  <TopoPSA(NO)>
103.17

>  <TopoPSA>
103.17

>  <JGI1>
0.22

>  <JGI2>
0.08

>  <JGI3>
0.04

>  <JGI4>
0.04

>  <JGI5>
0.03

>  <Diameter>
18

>  <Radius>
9

>  <TMWC10>
149.08

>  <TSRW10>
70.61

>  <MW>
468.32

>  <AMW>
6.33

>  <WPath>
3799

>  <WPol>
53

>  <Zagreb1>
178

>  <Zagreb2>
209

>  <mZagreb2>
7.61

>  <yes>


>  <nAR-cont>
0.691115

>  <nHA-cont>
0.568589513

>  <MWHBN>
0.415882989

>  <MWHBN-cont>
0.413900197

>  <TPSA-cont>
0.279809335

>  <pka_cont>
0.97

>  <yes.1>


>  <BBB_SCORE>
2.925173478

>  <MMFF94 Energy>
15.546

$$$$
Compound 416
Actelion Java MolfileCreator 2.0

  0  0  0  0  0  0              0 V3000
M  V30 BEGIN CTAB
M  V30 COUNTS 41 43 0 0 0
M  V30 BEGIN ATOM
M  V30 1 O -1.1869 3.8813 0.0 0
M  V30 2 C -0.6959 4.016 1.1123 0
M  V30 3 O 0.1908 3.1515 1.7336 0
M  V30 4 N -0.9479 5.0722 1.9437 0
M  V30 5 C 0.5171 2.0073 0.9962 0
M  V30 6 C -1.8287 6.1419 1.5664 0
M  V30 7 C -0.4305 1.0107 0.7748 0
M  V30 8 C 1.8415 1.8632 0.5709 0
M  V30 9 C -0.024 -0.1228 0.0822 0
M  V30 10 C 2.2272 0.7116 -0.1218 0
M  V30 11 C 1.2892 -0.2817 -0.3669 0
M  V30 12 C -0.8496 -1.3134 -0.3262 0
M  V30 13 N 1.483 -1.487 -1.0235 0
M  V30 14 C 0.1999 -2.2001 -1.1047 0
M  V30 15 C -1.2749 -2.1719 0.8737 0
M  V30 16 C -2.0425 -0.9154 -1.1965 0
M  V30 17 C 2.5057 -1.645 -2.0296 0
M  V30 18 N 0.0027 -3.531 -0.5018 0
M  V30 19 C -0.2414 -3.2841 0.9177 0
M  V30 20 C 1.1159 -4.4377 -0.7129 0
M  V30 21 H -0.4751 5.0778 2.8363 0
M  V30 22 H -2.8019 5.7317 1.2832 0
M  V30 23 H -1.3989 6.6761 0.7149 0
M  V30 24 H -1.9415 6.8207 2.4146 0
M  V30 25 H -1.4521 1.123 1.1192 0
M  V30 26 H 2.5695 2.6417 0.7768 0
M  V30 27 H 3.2555 0.6017 -0.4472 0
M  V30 28 H -0.0868 -2.2665 -2.163 0
M  V30 29 H -2.267 -2.6109 0.705 0
M  V30 30 H -1.315 -1.6226 1.8202 0
M  V30 31 H -1.7254 -0.3172 -2.0586 0
M  V30 32 H -2.5646 -1.7992 -1.5794 0
M  V30 33 H -2.7669 -0.3189 -0.6304 0
M  V30 34 H 2.3498 -0.9443 -2.8571 0
M  V30 35 H 2.4987 -2.6559 -2.4474 0
M  V30 36 H 3.5025 -1.4777 -1.6087 0
M  V30 37 H 0.6627 -2.9531 1.4441 0
M  V30 38 H -0.6367 -4.1694 1.4263 0
M  V30 39 H 1.2745 -4.609 -1.7827 0
M  V30 40 H 2.0518 -4.0768 -0.2722 0
M  V30 41 H 0.8949 -5.4159 -0.2712 0
M  V30 END ATOM
M  V30 BEGIN BOND
M  V30 1 2 1 2
M  V30 2 1 2 3
M  V30 3 1 2 4
M  V30 4 1 3 5
M  V30 5 1 4 6
M  V30 6 2 5 7
M  V30 7 1 5 8
M  V30 8 1 7 9
M  V30 9 2 8 10
M  V30 10 2 9 11
M  V30 11 1 9 12
M  V30 12 1 11 13
M  V30 13 1 12 14
M  V30 14 1 12 15
M  V30 15 1 12 16
M  V30 16 1 13 17
M  V30 17 1 14 18
M  V30 18 1 15 19
M  V30 19 1 18 20
M  V30 20 1 10 11
M  V30 21 1 13 14
M  V30 22 1 18 19
M  V30 23 1 4 21
M  V30 24 1 6 22
M  V30 25 1 6 23
M  V30 26 1 6 24
M  V30 27 1 7 25
M  V30 28 1 8 26
M  V30 29 1 10 27
M  V30 30 1 14 28
M  V30 31 1 15 29
M  V30 32 1 15 30
M  V30 33 1 16 31
M  V30 34 1 16 32
M  V30 35 1 16 33
M  V30 36 1 17 34
M  V30 37 1 17 35
M  V30 38 1 17 36
M  V30 39 1 19 37
M  V30 40 1 19 38
M  V30 41 1 20 39
M  V30 42 1 20 40
M  V30 43 1 20 41
M  V30 END BOND
M  V30 END CTAB
M  END
>  <Column 1>
518

>  <level_0>
585

>  <index>
585

>  <Unnamed: 0>
585

>  <NO.>
595

>  <Name>
1-3a-8-trimethyl-1-2-3-3a-8-8a-hexahydropyrrolo[2-3-b]indol-5-yl methylcarbamate

>  <IUPAC_name>
(3-4-8b-trimethyl-2-3a-dihydro-1h-pyrrolo[2-3-b]indol-7-yl) n-methylcarbamate

>  <SMILES>
CNC(=O)Oc1ccc2c(c1)C1(C)CCN(C)C1N2C

>  <CID>
4811

>  <logBB>
0.08

>  <BBB+/BBB->
BBB+

>  <Inchi>
InChI=1S/C15H21N3O2/c1-15-7-8-17(3)13(15)18(4)12-6-5-10(9-11(12)15)20-14(19)16-2/h5-6-9-13H-7-8H2-1-4H3-(H-16-19)

>  <threshold>


>  <reference>
R12|R25|R35|R36|R43|R49|R40|R2|R2|R27|R3|R18|R26|R27|R27|R38|R41|R46|R47|

>  <group>
A

>  <Class>
1

>  <ABC>
15.76

>  <ABCGG>
13.9

>  <nAcid>
0

>  <nBase>
1

>  <nAromAtom>
6

>  <nAromBond>
6

>  <nAtom>
41

>  <nHeavyAtom>
20

>  <nSpiro>
0

>  <nBridgehead>
0

>  <nHetero>
5

>  <nN>
3

>  <nO>
2

>  <nF>
0

>  <BalabanJ>
1.75

>  <BertzCT>
560.05

>  <nBonds>
43

>  <nBondsO>
22

>  <nBondsS>
36

>  <nBondsD>
1

>  <nBondsT>
0

>  <nBondsA>
6

>  <nBondsM>
7

>  <nBondsKS>
39

>  <nBondsKD>
4

>  <RNCG>
0.23

>  <RPCG>
0.23

>  <FCSP3>
0.53

>  <SZ>
24.67

>  <Sm>
22.92

>  <Sv>
24.39

>  <Sse>
40.97

>  <Sp>
26.32

>  <Si>
46.65

>  <MZ>
0.6

>  <Mm>
0.56

>  <Mv>
0.59

>  <Mse>
1

>  <Mp>
0.64

>  <Mi>
1.14

>  <NsCH3>
4

>  <NdCH2>
0

>  <NssCH2>
2

>  <NtCH>
0

>  <NdsCH>
0

>  <NaaCH>
3

>  <NsssCH>
1

>  <NddC>
0

>  <NtsC>
0

>  <NdssC>
1

>  <NaasC>
3

>  <NaaaC>
0

>  <NssssC>
1

>  <NsNH3>
0

>  <NsNH2>
0

>  <NssNH2>
0

>  <NdNH>
0

>  <NssNH>
1

>  <NaaNH>
0

>  <NtN>
0

>  <NsssNH>
0

>  <NdsN>
0

>  <NaaN>
0

>  <NsssN>
2

>  <NddsN>
0

>  <NaasN>
0

>  <NssssN>
0

>  <NsOH>
0

>  <NdO>
1

>  <NssO>
1

>  <NaaO>
0

>  <NsF>
0

>  <NsSiH3>
0

>  <NssSiH2>
0

>  <NsssSiH>
0

>  <NssssSi>
0

>  <NsPH2>
0

>  <NssPH>
0

>  <NsssP>
0

>  <NdsssP>
0

>  <NsssssP>
0

>  <NsSH>
0

>  <NdS>
0

>  <NssS>
0

>  <NaaS>
0

>  <NdssS>
0

>  <NddssS>
0

>  <NsCl>
0

>  <NsBr>
0

>  <NsI>
0

>  <fragCpx>
104.05

>  <fMF>
0.29

>  <nHBAcc>
4

>  <nHBDon>
1

>  <Kier1>
14.92

>  <Kier2>
5.33

>  <Lipinski>
1

>  <GhoseFilter>
1

>  <FilterItLogS>
-2.77

>  <VMcGowan>
214.11

>  <LabuteASA>
119.05

>  <PEOE_VSA1>
14.95

>  <PEOE_VSA2>
4.9

>  <PEOE_VSA3>
4.79

>  <PEOE_VSA4>
0

>  <PEOE_VSA5>
0

>  <PEOE_VSA6>
6.92

>  <PEOE_VSA7>
37.23

>  <PEOE_VSA8>
31.74

>  <PEOE_VSA9>
6.17

>  <PEOE_VSA10>
5.75

>  <PEOE_VSA11>
0

>  <PEOE_VSA12>
0

>  <PEOE_VSA13>
0

>  <SMR_VSA1>
9.53

>  <SMR_VSA2>
0

>  <SMR_VSA3>
10.22

>  <SMR_VSA4>
0

>  <SMR_VSA5>
24.93

>  <SMR_VSA6>
32.59

>  <SMR_VSA7>
23.76

>  <SMR_VSA8>
0

>  <SMR_VSA9>
5.75

>  <SlogP_VSA1>
14.95

>  <SlogP_VSA2>
44.85

>  <SlogP_VSA3>
5.41

>  <SlogP_VSA4>
0

>  <SlogP_VSA5>
18.91

>  <SlogP_VSA6>
18.2

>  <SlogP_VSA7>
0

>  <SlogP_VSA8>
0

>  <SlogP_VSA9>
0

>  <SlogP_VSA10>
10.48

>  <SlogP_VSA11>
5.75

>  <EState_VSA1>
6.09

>  <EState_VSA2>
5.41

>  <EState_VSA3>
11.92

>  <EState_VSA4>
12.97

>  <EState_VSA5>
11.25

>  <EState_VSA6>
7.05

>  <EState_VSA7>
18.2

>  <EState_VSA8>
36.14

>  <EState_VSA9>
4.74

>  <EState_VSA10>
4.79

>  <VSA_EState1>
5.26

>  <VSA_EState2>
16.07

>  <VSA_EState3>
2.47

>  <VSA_EState4>
2.6

>  <VSA_EState5>
0.6

>  <VSA_EState6>
5.92

>  <VSA_EState7>
1.07

>  <VSA_EState8>
3.39

>  <VSA_EState9>
5.86

>  <apol>
43.96

>  <bpol>
27.66

>  <nRing>
3

>  <nHRing>
2

>  <naRing>
1

>  <naHRing>
0

>  <nARing 2>
2

>  <nAHRing 2>
2

>  <nFRing>
1

>  <nFHRing>
1

>  <nFaRing>
0

>  <nFaHRing>
0

>  <nFARing 2>
1

>  <nFAHRing 2>
1

>  <nRot>
1

>  <SLogP>
1.77

>  <SMR>
78.32

>  <TopoPSA(NO)>
44.81

>  <TopoPSA>
44.81

>  <JGI1>
0.25

>  <JGI2>
0.1

>  <JGI3>
0.09

>  <JGI4>
0.04

>  <JGI5>
0.03

>  <Diameter>
10

>  <Radius>
5

>  <TMWC10>
118.31

>  <TSRW10>
71.13

>  <MW>
275.16

>  <AMW>
6.71

>  <WPath>
760

>  <WPol>
36

>  <Zagreb1>
112

>  <Zagreb2>
139

>  <mZagreb2>
4.32

>  <yes>


>  <nAR-cont>
1

>  <nHA-cont>
0.999629945

>  <MWHBN>
0.30142367

>  <MWHBN-cont>
0.836464418

>  <TPSA-cont>
0.687198375

>  <pka_cont>
0.97

>  <yes.1>


>  <BBB_SCORE>
5.113723321

>  <MMFF94 Energy>
-21.977

$$$$
Compound 417
Actelion Java MolfileCreator 2.0

  0  0  0  0  0  0              0 V3000
M  V30 BEGIN CTAB
M  V30 COUNTS 47 48 0 0 0
M  V30 BEGIN ATOM
M  V30 1 N 1.4131 1.256 0.7848 0
M  V30 2 C 1.6234 0.6638 -0.5558 0
M  V30 3 C 1.7281 0.2735 1.8345 0
M  V30 4 C 2.2471 2.4496 0.9619 0
M  V30 5 C 1.1221 1.5396 -1.6958 0
M  V30 6 C 0.6644 -0.759 2.0959 0
M  V30 7 C 1.9856 2.2055 -2.6165 0
M  V30 8 C -0.2739 1.6825 -1.8245 0
M  V30 9 C -0.6208 -0.6973 1.7171 0
M  V30 10 C 1.4013 2.9849 -3.6504 0
M  V30 11 C 3.4003 2.1517 -2.5727 0
M  V30 12 C -0.8268 2.4513 -2.8409 0
M  V30 13 C -1.5354 -1.7373 2.0286 0
M  V30 14 C 0.0068 3.0947 -3.7485 0
M  V30 15 C 2.2153 3.6537 -4.5799 0
M  V30 16 C 4.1966 2.824 -3.5045 0
M  V30 17 C -2.3114 -2.6161 2.2895 0
M  V30 18 C 3.6038 3.5737 -4.5094 0
M  V30 19 C -3.2669 -3.6994 2.6113 0
M  V30 20 C -2.5243 -4.8385 3.3236 0
M  V30 21 C -4.3688 -3.1515 3.5291 0
M  V30 22 C -3.8945 -4.2275 1.3138 0
M  V30 23 H 2.6702 0.3746 -0.692 0
M  V30 24 H 1.068 -0.2805 -0.638 0
M  V30 25 H 1.8794 0.7853 2.7946 0
M  V30 26 H 2.6744 -0.2363 1.61 0
M  V30 27 H 2.086 2.8865 1.9544 0
M  V30 28 H 3.315 2.2268 0.8557 0
M  V30 29 H 1.9805 3.2348 0.2472 0
M  V30 30 H 0.9994 -1.6209 2.6702 0
M  V30 31 H -0.9357 1.1881 -1.1164 0
M  V30 32 H -0.998 0.1608 1.1698 0
M  V30 33 H 3.9166 1.5872 -1.8024 0
M  V30 34 H -1.9055 2.5502 -2.924 0
M  V30 35 H -0.4449 3.6921 -4.5375 0
M  V30 36 H 1.7678 4.2495 -5.3729 0
M  V30 37 H 5.2795 2.7595 -3.4397 0
M  V30 38 H 4.2176 4.0983 -5.2364 0
M  V30 39 H -3.2053 -5.659 3.5765 0
M  V30 40 H -1.7255 -5.2488 2.6944 0
M  V30 41 H -2.0593 -4.4911 4.2541 0
M  V30 42 H -3.9511 -2.7611 4.4648 0
M  V30 43 H -4.9158 -2.3308 3.0497 0
M  V30 44 H -5.0945 -3.9311 3.7869 0
M  V30 45 H -3.1307 -4.6222 0.6331 0
M  V30 46 H -4.6088 -5.0332 1.5178 0
M  V30 47 H -4.4293 -3.4344 0.7777 0
M  V30 END ATOM
M  V30 BEGIN BOND
M  V30 1 1 1 2
M  V30 2 1 1 3
M  V30 3 1 1 4
M  V30 4 1 2 5
M  V30 5 1 3 6
M  V30 6 1 5 7
M  V30 7 2 5 8
M  V30 8 2 6 9
M  V30 9 1 7 10
M  V30 10 2 7 11
M  V30 11 1 8 12
M  V30 12 1 9 13
M  V30 13 1 10 14
M  V30 14 2 10 15
M  V30 15 1 11 16
M  V30 16 3 13 17
M  V30 17 1 15 18
M  V30 18 1 17 19
M  V30 19 1 19 20
M  V30 20 1 19 21
M  V30 21 1 19 22
M  V30 22 2 12 14
M  V30 23 2 16 18
M  V30 24 1 2 23
M  V30 25 1 2 24
M  V30 26 1 3 25
M  V30 27 1 3 26
M  V30 28 1 4 27
M  V30 29 1 4 28
M  V30 30 1 4 29
M  V30 31 1 6 30
M  V30 32 1 8 31
M  V30 33 1 9 32
M  V30 34 1 11 33
M  V30 35 1 12 34
M  V30 36 1 14 35
M  V30 37 1 15 36
M  V30 38 1 16 37
M  V30 39 1 18 38
M  V30 40 1 20 39
M  V30 41 1 20 40
M  V30 42 1 20 41
M  V30 43 1 21 42
M  V30 44 1 21 43
M  V30 45 1 21 44
M  V30 46 1 22 45
M  V30 47 1 22 46
M  V30 48 1 22 47
M  V30 END BOND
M  V30 END CTAB
M  END
>  <Column 1>
519

>  <level_0>
586

>  <index>
586

>  <Unnamed: 0>
586

>  <NO.>
596

>  <Name>
terbinafine

>  <IUPAC_name>
n-6-6-trimethyl-n-(naphthalen-1-ylmethyl)hept-2-en-4-yn-1-amine

>  <SMILES>
CN(CC=CC#CC(C)(C)C)Cc1cccc2ccccc12

>  <CID>
5402

>  <logBB>
0.08

>  <BBB+/BBB->
BBB+

>  <Inchi>
InChI=1S/C21H25N/c1-21(2-3)15-8-5-9-16-22(4)17-19-13-10-12-18-11-6-7-14-20(18)19/h5-7-9-14H-16-17H2-1-4H3

>  <threshold>


>  <reference>
R8|R21|R27|R3|

>  <group>
A

>  <Class>
1

>  <ABC>
16.77

>  <ABCGG>
13.34

>  <nAcid>
0

>  <nBase>
1

>  <nAromAtom>
10

>  <nAromBond>
11

>  <nAtom>
47

>  <nHeavyAtom>
22

>  <nSpiro>
0

>  <nBridgehead>
0

>  <nHetero>
1

>  <nN>
1

>  <nO>
0

>  <nF>
0

>  <BalabanJ>
1.62

>  <BertzCT>
702.5

>  <nBonds>
48

>  <nBondsO>
23

>  <nBondsS>
35

>  <nBondsD>
1

>  <nBondsT>
1

>  <nBondsA>
11

>  <nBondsM>
13

>  <nBondsKS>
41

>  <nBondsKD>
6

>  <RNCG>
0.26

>  <RPCG>
0.06

>  <FCSP3>
0.33

>  <SZ>
26.33

>  <Sm>
24.26

>  <Sv>
28.53

>  <Sse>
45.76

>  <Sp>
31.64

>  <Si>
52.48

>  <MZ>
0.56

>  <Mm>
0.52

>  <Mv>
0.61

>  <Mse>
0.97

>  <Mp>
0.67

>  <Mi>
1.12

>  <NsCH3>
4

>  <NdCH2>
0

>  <NssCH2>
2

>  <NtCH>
0

>  <NdsCH>
2

>  <NaaCH>
7

>  <NsssCH>
0

>  <NddC>
0

>  <NtsC>
2

>  <NdssC>
0

>  <NaasC>
1

>  <NaaaC>
2

>  <NssssC>
1

>  <NsNH3>
0

>  <NsNH2>
0

>  <NssNH2>
0

>  <NdNH>
0

>  <NssNH>
0

>  <NaaNH>
0

>  <NtN>
0

>  <NsssNH>
0

>  <NdsN>
0

>  <NaaN>
0

>  <NsssN>
1

>  <NddsN>
0

>  <NaasN>
0

>  <NssssN>
0

>  <NsOH>
0

>  <NdO>
0

>  <NssO>
0

>  <NaaO>
0

>  <NsF>
0

>  <NsSiH3>
0

>  <NssSiH2>
0

>  <NsssSiH>
0

>  <NssssSi>
0

>  <NsPH2>
0

>  <NssPH>
0

>  <NsssP>
0

>  <NdsssP>
0

>  <NsssssP>
0

>  <NsSH>
0

>  <NdS>
0

>  <NssS>
0

>  <NaaS>
0

>  <NdssS>
0

>  <NddssS>
0

>  <NsCl>
0

>  <NsBr>
0

>  <NsI>
0

>  <fragCpx>
67.01

>  <fMF>
0.21

>  <nHBAcc>
1

>  <nHBDon>
0

>  <Kier1>
18.34

>  <Kier2>
8.74

>  <Lipinski>
1

>  <GhoseFilter>
1

>  <FilterItLogS>
-4.92

>  <VMcGowan>
260.61

>  <LabuteASA>
134.2

>  <PEOE_VSA1>
0

>  <PEOE_VSA2>
4.9

>  <PEOE_VSA3>
0

>  <PEOE_VSA4>
0

>  <PEOE_VSA5>
0

>  <PEOE_VSA6>
60.38

>  <PEOE_VSA7>
50.23

>  <PEOE_VSA8>
18.5

>  <PEOE_VSA9>
0

>  <PEOE_VSA10>
0

>  <PEOE_VSA11>
0

>  <PEOE_VSA12>
0

>  <PEOE_VSA13>
0

>  <SMR_VSA1>
0

>  <SMR_VSA2>
0

>  <SMR_VSA3>
4.9

>  <SMR_VSA4>
5.41

>  <SMR_VSA5>
27.32

>  <SMR_VSA6>
13.59

>  <SMR_VSA7>
60.18

>  <SMR_VSA8>
0

>  <SMR_VSA9>
11.84

>  <SlogP_VSA1>
0

>  <SlogP_VSA2>
18.49

>  <SlogP_VSA3>
6.54

>  <SlogP_VSA4>
17.26

>  <SlogP_VSA5>
26.33

>  <SlogP_VSA6>
54.62

>  <SlogP_VSA7>
0

>  <SlogP_VSA8>
10.77

>  <SlogP_VSA9>
0

>  <SlogP_VSA10>
0

>  <SlogP_VSA11>
0

>  <EState_VSA1>
0

>  <EState_VSA2>
5.41

>  <EState_VSA3>
0

>  <EState_VSA4>
13.09

>  <EState_VSA5>
16.34

>  <EState_VSA6>
0

>  <EState_VSA7>
6.08

>  <EState_VSA8>
93.1

>  <EState_VSA9>
0

>  <EState_VSA10>
0

>  <VSA_EState1>
0

>  <VSA_EState2>
2.3

>  <VSA_EState3>
2.65

>  <VSA_EState4>
1.44

>  <VSA_EState5>
6.33

>  <VSA_EState6>
15.07

>  <VSA_EState7>
4.09

>  <VSA_EState8>
8.22

>  <VSA_EState9>
2.14

>  <apol>
52.84

>  <bpol>
26.79

>  <nRing>
2

>  <nHRing>
0

>  <naRing>
2

>  <naHRing>
0

>  <nARing 2>
0

>  <nAHRing 2>
0

>  <nFRing>
1

>  <nFHRing>
0

>  <nFaRing>
1

>  <nFaHRing>
0

>  <nFARing 2>
0

>  <nFAHRing 2>
0

>  <nRot>
4

>  <SLogP>
4.88

>  <SMR>
96.65

>  <TopoPSA(NO)>
3.24

>  <TopoPSA>
3.24

>  <JGI1>
0.22

>  <JGI2>
0.06

>  <JGI3>
0.04

>  <JGI4>
0.04

>  <JGI5>
0.02

>  <Diameter>
13

>  <Radius>
7

>  <TMWC10>
117.04

>  <TSRW10>
55.54

>  <MW>
291.2

>  <AMW>
6.2

>  <WPath>
1273

>  <WPol>
28

>  <Zagreb1>
108

>  <Zagreb2>
119

>  <mZagreb2>
4.85

>  <yes>


>  <nAR-cont>
0.336376

>  <nHA-cont>
0.983774276

>  <MWHBN>
0.058600904

>  <MWHBN-cont>
0.441911138

>  <TPSA-cont>
0.977382788

>  <pka_cont>
0.97

>  <yes.1>


>  <BBB_SCORE>
4.42278256

>  <MMFF94 Energy>
40.14

$$$$
Compound 418
Actelion Java MolfileCreator 2.0

  0  0  0  0  0  0              0 V3000
M  V30 BEGIN CTAB
M  V30 COUNTS 56 57 0 0 0
M  V30 BEGIN ATOM
M  V30 1 O 3.8863 2.8541 -1.2677 0
M  V30 2 N 3.2856 2.6651 -2.3353 0 CHG=1
M  V30 3 O 3.531 3.2605 -3.3945 0 CHG=-1
M  V30 4 C 2.2136 1.6633 -2.3481 0
M  V30 5 C 1.7516 1.1265 -1.1382 0
M  V30 6 C 1.6674 1.2507 -3.5693 0
M  V30 7 C 0.734 0.1576 -1.144 0
M  V30 8 C 0.6546 0.2923 -3.5775 0
M  V30 9 C 0.1919 -0.2501 -2.3764 0
M  V30 10 C 0.2309 -0.4333 0.1797 0 CFG=2
M  V30 11 C 0.4882 -1.9369 0.2422 0
M  V30 12 C -1.2294 -0.066 0.4189 0
M  V30 13 C -0.5235 -2.8182 0.4143 0
M  V30 14 C 1.8866 -2.391 0.0628 0
M  V30 15 C -2.1778 -1.0121 0.6018 0
M  V30 16 C -1.4999 1.386 0.4716 0
M  V30 17 N -1.8205 -2.3506 0.5625 0
M  V30 18 C -0.3506 -4.3138 0.5029 0
M  V30 19 O 2.2229 -3.3442 -0.6216 0
M  V30 20 O 2.7135 -1.5852 0.7751 0
M  V30 21 C -3.6255 -0.725 0.9108 0
M  V30 22 O -0.8081 2.1752 1.0974 0
M  V30 23 O -2.5495 1.6999 -0.3242 0
M  V30 24 C 4.118 -1.891 0.6957 0
M  V30 25 C -2.8834 3.0984 -0.3871 0
M  V30 26 C 4.8757 -0.6022 0.9898 0
M  V30 27 C 4.4619 -2.9667 1.7195 0
M  V30 28 C -3.6508 3.5482 0.8561 0
M  V30 29 O -4.9247 2.894 0.8853 0
M  V30 30 C -5.674 3.262 2.036 0
M  V30 31 H 2.1743 1.4575 -0.19 0
M  V30 32 H 2.0191 1.6598 -4.5141 0
M  V30 33 H 0.2244 -0.0371 -4.5209 0
M  V30 34 H -0.5991 -0.9996 -2.4074 0
M  V30 35 H 0.7968 0.0185 1.0076 0
M  V30 36 H -2.5579 -3.0392 0.6927 0
M  V30 37 H -0.5343 -4.7727 -0.4736 0
M  V30 38 H 0.6427 -4.6075 0.853 0
M  V30 39 H -1.0626 -4.7408 1.2186 0
M  V30 40 H -4.2242 -0.7737 -0.004 0
M  V30 41 H -4.0213 -1.4641 1.6169 0
M  V30 42 H -3.7713 0.2517 1.3804 0
M  V30 43 H 4.3822 -2.2258 -0.3147 0
M  V30 44 H -3.5089 3.2249 -1.2772 0
M  V30 45 H -1.9755 3.6955 -0.5309 0
M  V30 46 H 5.958 -0.7603 0.9579 0
M  V30 47 H 4.615 0.168 0.2562 0
M  V30 48 H 4.6065 -0.2024 1.9739 0
M  V30 49 H 5.5335 -3.1882 1.7164 0
M  V30 50 H 3.918 -3.8934 1.5092 0
M  V30 51 H 4.17 -2.6544 2.7284 0
M  V30 52 H -3.1021 3.296 1.7693 0
M  V30 53 H -3.8077 4.6317 0.8153 0
M  V30 54 H -6.6348 2.7415 2.0019 0
M  V30 55 H -5.8602 4.3403 2.0437 0
M  V30 56 H -5.1471 2.9631 2.9474 0
M  V30 END ATOM
M  V30 BEGIN BOND
M  V30 1 2 1 2
M  V30 2 1 2 3
M  V30 3 1 2 4
M  V30 4 2 4 5
M  V30 5 1 4 6
M  V30 6 1 5 7
M  V30 7 2 6 8
M  V30 8 2 7 9
M  V30 9 1 7 10
M  V30 10 1 10 11
M  V30 11 1 10 12
M  V30 12 2 11 13
M  V30 13 1 11 14
M  V30 14 2 12 15
M  V30 15 1 12 16
M  V30 16 1 13 17
M  V30 17 1 13 18
M  V30 18 2 14 19
M  V30 19 1 14 20
M  V30 20 1 15 21
M  V30 21 2 16 22
M  V30 22 1 16 23
M  V30 23 1 20 24
M  V30 24 1 23 25
M  V30 25 1 24 26
M  V30 26 1 24 27
M  V30 27 1 25 28
M  V30 28 1 28 29
M  V30 29 1 29 30
M  V30 30 1 8 9
M  V30 31 1 15 17
M  V30 32 1 5 31
M  V30 33 1 6 32
M  V30 34 1 8 33
M  V30 35 1 9 34
M  V30 36 1 10 35
M  V30 37 1 17 36
M  V30 38 1 18 37
M  V30 39 1 18 38
M  V30 40 1 18 39
M  V30 41 1 21 40
M  V30 42 1 21 41
M  V30 43 1 21 42
M  V30 44 1 24 43
M  V30 45 1 25 44
M  V30 46 1 25 45
M  V30 47 1 26 46
M  V30 48 1 26 47
M  V30 49 1 26 48
M  V30 50 1 27 49
M  V30 51 1 27 50
M  V30 52 1 27 51
M  V30 53 1 28 52
M  V30 54 1 28 53
M  V30 55 1 30 54
M  V30 56 1 30 55
M  V30 57 1 30 56
M  V30 END BOND
M  V30 BEGIN COLLECTION
M  V30 MDLV30/STERAC1 ATOMS=(1 10)
M  V30 END COLLECTION
M  V30 END CTAB
M  END
>  <Column 1>
521

>  <level_0>
589

>  <index>
589

>  <Unnamed: 0>
589

>  <NO.>
599

>  <Name>
nimodipine

>  <IUPAC_name>
3-o-(2-methoxyethyl) 5-o-propan-2-yl 2-6-dimethyl-4-(3-nitrophenyl)-1-4-dihydropyridine-3-5-dicarboxylate

>  <SMILES>
COCCOC(=O)C1=C(C)NC(C)=C(C(=O)OC(C)C)C1c1cccc([N+](=O)[O-])c1

>  <CID>
4497

>  <logBB>
0.08

>  <BBB+/BBB->
BBB+

>  <Inchi>
InChI=1S/C21H26N2O7/c1-12(2)30-21(25)18-14(4)22-13(3)17(20(24)29-10-9-28-5)19(18)15-7-6-8-16(11-15)23(26)27/h6-8-11-12-19-22H-9-10H2-1-5H3

>  <threshold>


>  <reference>
R20|R25|

>  <group>
A

>  <Class>
1

>  <ABC>
22.47

>  <ABCGG>
19.44

>  <nAcid>
0

>  <nBase>
0

>  <nAromAtom>
6

>  <nAromBond>
6

>  <nAtom>
56

>  <nHeavyAtom>
30

>  <nSpiro>
0

>  <nBridgehead>
0

>  <nHetero>
9

>  <nN>
2

>  <nO>
7

>  <nF>
0

>  <BalabanJ>
2.33

>  <BertzCT>
902.37

>  <nBonds>
57

>  <nBondsO>
31

>  <nBondsS>
46

>  <nBondsD>
5

>  <nBondsT>
0

>  <nBondsA>
6

>  <nBondsM>
11

>  <nBondsKS>
49

>  <nBondsKD>
8

>  <RNCG>
0.16

>  <RPCG>
0.12

>  <FCSP3>
0.43

>  <SZ>
37

>  <Sm>
34.84

>  <Sv>
34.56

>  <Sse>
57.18

>  <Sp>
36.06

>  <Si>
63.45

>  <MZ>
0.66

>  <Mm>
0.62

>  <Mv>
0.62

>  <Mse>
1.02

>  <Mp>
0.64

>  <Mi>
1.13

>  <NsCH3>
5

>  <NdCH2>
0

>  <NssCH2>
2

>  <NtCH>
0

>  <NdsCH>
0

>  <NaaCH>
4

>  <NsssCH>
2

>  <NddC>
0

>  <NtsC>
0

>  <NdssC>
6

>  <NaasC>
2

>  <NaaaC>
0

>  <NssssC>
0

>  <NsNH3>
0

>  <NsNH2>
0

>  <NssNH2>
0

>  <NdNH>
0

>  <NssNH>
1

>  <NaaNH>
0

>  <NtN>
0

>  <NsssNH>
0

>  <NdsN>
0

>  <NaaN>
0

>  <NsssN>
0

>  <NddsN>
1

>  <NaasN>
0

>  <NssssN>
0

>  <NsOH>
0

>  <NdO>
3

>  <NssO>
3

>  <NaaO>
0

>  <NsF>
0

>  <NsSiH3>
0

>  <NssSiH2>
0

>  <NsssSiH>
0

>  <NssssSi>
0

>  <NsPH2>
0

>  <NssPH>
0

>  <NsssP>
0

>  <NdsssP>
0

>  <NsssssP>
0

>  <NsSH>
0

>  <NdS>
0

>  <NssS>
0

>  <NaaS>
0

>  <NdssS>
0

>  <NddssS>
0

>  <NsCl>
0

>  <NsBr>
0

>  <NsI>
0

>  <fragCpx>
91.09

>  <fMF>
0.21

>  <nHBAcc>
8

>  <nHBDon>
1

>  <Kier1>
26.25

>  <Kier2>
12.3

>  <Lipinski>
1

>  <GhoseFilter>
1

>  <FilterItLogS>
-4.77

>  <VMcGowan>
311.68

>  <LabuteASA>
174.39

>  <PEOE_VSA1>
19.53

>  <PEOE_VSA2>
10.11

>  <PEOE_VSA3>
9.59

>  <PEOE_VSA4>
0

>  <PEOE_VSA5>
0

>  <PEOE_VSA6>
12.13

>  <PEOE_VSA7>
33.26

>  <PEOE_VSA8>
30.64

>  <PEOE_VSA9>
34.7

>  <PEOE_VSA10>
6.61

>  <PEOE_VSA11>
0

>  <PEOE_VSA12>
0

>  <PEOE_VSA13>
5.69

>  <SMR_VSA1>
28.72

>  <SMR_VSA2>
0

>  <SMR_VSA3>
5.32

>  <SMR_VSA4>
0

>  <SMR_VSA5>
39.72

>  <SMR_VSA6>
20.32

>  <SMR_VSA7>
62.48

>  <SMR_VSA8>
0

>  <SMR_VSA9>
0

>  <SlogP_VSA1>
5.32

>  <SlogP_VSA2>
43.29

>  <SlogP_VSA3>
23.8

>  <SlogP_VSA4>
10.11

>  <SlogP_VSA5>
39.18

>  <SlogP_VSA6>
46.81

>  <SlogP_VSA7>
0

>  <SlogP_VSA8>
0

>  <SlogP_VSA9>
0

>  <SlogP_VSA10>
5.69

>  <SlogP_VSA11>
0

>  <EState_VSA1>
22.78

>  <EState_VSA2>
36.15

>  <EState_VSA3>
16.96

>  <EState_VSA4>
0

>  <EState_VSA5>
25.31

>  <EState_VSA6>
33.76

>  <EState_VSA7>
0

>  <EState_VSA8>
5.32

>  <EState_VSA9>
14.21

>  <EState_VSA10>
19.7

>  <VSA_EState1>
15.59

>  <VSA_EState2>
36.57

>  <VSA_EState3>
14.32

>  <VSA_EState4>
1.65

>  <VSA_EState5>
-2.13

>  <VSA_EState6>
5.84

>  <VSA_EState7>
-0.38

>  <VSA_EState8>
7.05

>  <VSA_EState9>
1.48

>  <apol>
60.22

>  <bpol>
34.76

>  <nRing>
2

>  <nHRing>
1

>  <naRing>
1

>  <naHRing>
0

>  <nARing 2>
1

>  <nAHRing 2>
1

>  <nFRing>
0

>  <nFHRing>
0

>  <nFaRing>
0

>  <nFaHRing>
0

>  <nFARing 2>
0

>  <nFAHRing 2>
0

>  <nRot>
8

>  <SLogP>
2.97

>  <SMR>
108.44

>  <TopoPSA(NO)>
117

>  <TopoPSA>
117

>  <JGI1>
0.21

>  <JGI2>
0.08

>  <JGI3>
0.06

>  <JGI4>
0.04

>  <JGI5>
0.03

>  <Diameter>
12

>  <Radius>
6

>  <TMWC10>
137.85

>  <TSRW10>
65.44

>  <MW>
418.17

>  <AMW>
7.47

>  <WPath>
2290

>  <WPol>
49

>  <Zagreb1>
148

>  <Zagreb2>
172

>  <mZagreb2>
6.81

>  <yes>


>  <nAR-cont>
0.816016

>  <nHA-cont>
0.74523694

>  <MWHBN>
0.440114901

>  <MWHBN-cont>
0.321865074

>  <TPSA-cont>
0.183267347

>  <pka_cont>
0.97

>  <yes.1>


>  <BBB_SCORE>
2.895585245

>  <MMFF94 Energy>
58.882

$$$$
Compound 419
Actelion Java MolfileCreator 2.0

  0  0  0  0  0  0              0 V3000
M  V30 BEGIN CTAB
M  V30 COUNTS 8 7 0 0 0
M  V30 BEGIN ATOM
M  V30 1 Cl -1.3074 0.3734 1.5877 0
M  V30 2 C -0.6395 0.1242 -0.0533 0
M  V30 3 Cl -1.532 -1.2221 -0.8335 0
M  V30 4 Cl -0.8918 1.6089 -1.0195 0
M  V30 5 C 0.8469 -0.2257 0.0178 0
M  V30 6 F 1.5602 0.7758 0.6062 0
M  V30 7 H 1.0188 -1.1347 0.6046 0
M  V30 8 H 1.2713 -0.3842 -0.9794 0
M  V30 END ATOM
M  V30 BEGIN BOND
M  V30 1 1 1 2
M  V30 2 1 2 3
M  V30 3 1 2 4
M  V30 4 1 2 5
M  V30 5 1 5 6
M  V30 6 1 5 7
M  V30 7 1 5 8
M  V30 END BOND
M  V30 END CTAB
M  END
>  <Column 1>
522

>  <level_0>
590

>  <index>
590

>  <Unnamed: 0>
590

>  <NO.>
600

>  <Name>
1-1-1-trichloro-2-fluoroethane

>  <IUPAC_name>
1-1-1-trichloro-2-fluoroethane

>  <SMILES>
FCC(Cl)(Cl)Cl

>  <CID>
75397

>  <logBB>
0.08

>  <BBB+/BBB->
BBB+

>  <Inchi>
InChI=1S/C2H2Cl3F/c3-2(4-5)1-6/h1H2

>  <threshold>


>  <reference>
R18|R26|R27|

>  <group>
A

>  <Class>
1

>  <ABC>
4.01

>  <ABCGG>
4.28

>  <nAcid>
0

>  <nBase>
0

>  <nAromAtom>
0

>  <nAromBond>
0

>  <nAtom>
8

>  <nHeavyAtom>
6

>  <nSpiro>
0

>  <nBridgehead>
0

>  <nHetero>
4

>  <nN>
0

>  <nO>
0

>  <nF>
1

>  <BalabanJ>
3.17

>  <BertzCT>
38.55

>  <nBonds>
7

>  <nBondsO>
5

>  <nBondsS>
7

>  <nBondsD>
0

>  <nBondsT>
0

>  <nBondsA>
0

>  <nBondsM>
0

>  <nBondsKS>
7

>  <nBondsKD>
0

>  <RNCG>
0.5

>  <RPCG>
0.45

>  <FCSP3>
1

>  <SZ>
12.33

>  <Sm>
12.6

>  <Sv>
6.46

>  <Sse>
9.14

>  <Sp>
7.05

>  <Si>
9.42

>  <MZ>
1.54

>  <Mm>
1.58

>  <Mv>
0.81

>  <Mse>
1.14

>  <Mp>
0.88

>  <Mi>
1.18

>  <NsCH3>
0

>  <NdCH2>
0

>  <NssCH2>
1

>  <NtCH>
0

>  <NdsCH>
0

>  <NaaCH>
0

>  <NsssCH>
0

>  <NddC>
0

>  <NtsC>
0

>  <NdssC>
0

>  <NaasC>
0

>  <NaaaC>
0

>  <NssssC>
1

>  <NsNH3>
0

>  <NsNH2>
0

>  <NssNH2>
0

>  <NdNH>
0

>  <NssNH>
0

>  <NaaNH>
0

>  <NtN>
0

>  <NsssNH>
0

>  <NdsN>
0

>  <NaaN>
0

>  <NsssN>
0

>  <NddsN>
0

>  <NaasN>
0

>  <NssssN>
0

>  <NsOH>
0

>  <NdO>
0

>  <NssO>
0

>  <NaaO>
0

>  <NsF>
1

>  <NsSiH3>
0

>  <NssSiH2>
0

>  <NsssSiH>
0

>  <NssssSi>
0

>  <NsPH2>
0

>  <NssPH>
0

>  <NsssP>
0

>  <NdsssP>
0

>  <NsssssP>
0

>  <NsSH>
0

>  <NdS>
0

>  <NssS>
0

>  <NaaS>
0

>  <NdssS>
0

>  <NddssS>
0

>  <NsCl>
3

>  <NsBr>
0

>  <NsI>
0

>  <fragCpx>
5.04

>  <fMF>
0

>  <nHBAcc>
0

>  <nHBDon>
0

>  <Kier1>
6

>  <Kier2>
1.63

>  <Lipinski>
1

>  <GhoseFilter>
0

>  <FilterItLogS>
-2.44

>  <VMcGowan>
77.52

>  <LabuteASA>
50.18

>  <PEOE_VSA1>
0

>  <PEOE_VSA2>
0

>  <PEOE_VSA3>
4.39

>  <PEOE_VSA4>
0

>  <PEOE_VSA5>
0

>  <PEOE_VSA6>
34.8

>  <PEOE_VSA7>
0

>  <PEOE_VSA8>
0

>  <PEOE_VSA9>
0

>  <PEOE_VSA10>
6.67

>  <PEOE_VSA11>
0

>  <PEOE_VSA12>
3.79

>  <PEOE_VSA13>
0

>  <SMR_VSA1>
4.39

>  <SMR_VSA2>
0

>  <SMR_VSA3>
0

>  <SMR_VSA4>
0

>  <SMR_VSA5>
3.79

>  <SMR_VSA6>
6.67

>  <SMR_VSA7>
0

>  <SMR_VSA8>
0

>  <SMR_VSA9>
0

>  <SlogP_VSA1>
0

>  <SlogP_VSA2>
10.47

>  <SlogP_VSA3>
0

>  <SlogP_VSA4>
0

>  <SlogP_VSA5>
0

>  <SlogP_VSA6>
0

>  <SlogP_VSA7>
0

>  <SlogP_VSA8>
0

>  <SlogP_VSA9>
0

>  <SlogP_VSA10>
4.39

>  <SlogP_VSA11>
0

>  <EState_VSA1>
10.47

>  <EState_VSA2>
0

>  <EState_VSA3>
0

>  <EState_VSA4>
0

>  <EState_VSA5>
0

>  <EState_VSA6>
0

>  <EState_VSA7>
0

>  <EState_VSA8>
0

>  <EState_VSA9>
34.8

>  <EState_VSA10>
4.39

>  <VSA_EState1>
9.4

>  <VSA_EState2>
0

>  <VSA_EState3>
0

>  <VSA_EState4>
0

>  <VSA_EState5>
0

>  <VSA_EState6>
0

>  <VSA_EState7>
0

>  <VSA_EState8>
-0.93

>  <VSA_EState9>
0

>  <apol>
11.77

>  <bpol>
4.65

>  <nRing>
0

>  <nHRing>
0

>  <naRing>
0

>  <naHRing>
0

>  <nARing 2>
0

>  <nAHRing 2>
0

>  <nFRing>
0

>  <nFHRing>
0

>  <nFaRing>
0

>  <nFaHRing>
0

>  <nFARing 2>
0

>  <nFAHRing 2>
0

>  <nRot>
0

>  <SLogP>
2.33

>  <SMR>
26.27

>  <TopoPSA(NO)>
0

>  <TopoPSA>
0

>  <JGI1>
0.6

>  <JGI2>
0.1

>  <JGI3>
0

>  <JGI4>
0

>  <JGI5>
0

>  <Diameter>
3

>  <Radius>
2

>  <TMWC10>
65.41

>  <TSRW10>
31.67

>  <MW>
149.92

>  <AMW>
18.74

>  <WPath>
28

>  <WPol>
3

>  <Zagreb1>
24

>  <Zagreb2>
22

>  <mZagreb2>
1.38

>  <yes>


>  <nAR-cont>
0.336376

>  <nHA-cont>
0.238778273

>  <MWHBN>
0

>  <MWHBN-cont>
0

>  <TPSA-cont>
0

>  <pka_cont>
0.97

>  <yes.1>


>  <BBB_SCORE>
1.060154273

>  <MMFF94 Energy>
25.14

$$$$
Compound 420
Actelion Java MolfileCreator 2.0

  0  0  0  0  0  0              0 V3000
M  V30 BEGIN CTAB
M  V30 COUNTS 28 28 0 0 0
M  V30 BEGIN ATOM
M  V30 1 O -2.3486 -2.9757 2.1136 0
M  V30 2 C -1.6424 -2.1368 1.5652 0
M  V30 3 N -1.3126 -0.9705 2.179 0
M  V30 4 N -1.1915 -2.3044 0.2949 0
M  V30 5 C -0.5597 0.0385 1.6488 0
M  V30 6 C -0.4543 -1.4064 -0.4231 0
M  V30 7 O -0.4539 1.1046 2.2526 0
M  V30 8 C 0.1911 -0.2721 0.3601 0
M  V30 9 O -0.2959 -1.5735 -1.6307 0
M  V30 10 C 0.2975 1.0028 -0.5138 0
M  V30 11 C 1.5969 -0.7588 0.8275 0
M  V30 12 C -1.0589 1.5957 -0.9268 0
M  V30 13 C 2.6305 -0.9744 -0.2723 0
M  V30 14 C -0.8778 2.8309 -1.797 0
M  V30 15 H -1.7287 -0.8025 3.0846 0
M  V30 16 H -1.5297 -3.1181 -0.1998 0
M  V30 17 H 0.8683 1.7711 0.0244 0
M  V30 18 H 0.8584 0.7842 -1.4308 0
M  V30 19 H 2.0152 -0.0364 1.5416 0
M  V30 20 H 1.4953 -1.7011 1.3831 0
M  V30 21 H -1.6453 0.8564 -1.4829 0
M  V30 22 H -1.6436 1.8736 -0.0436 0
M  V30 23 H 3.5574 -1.3619 0.1637 0
M  V30 24 H 2.8785 -0.039 -0.7817 0
M  V30 25 H 2.2881 -1.6996 -1.0151 0
M  V30 26 H -1.8523 3.2403 -2.0809 0
M  V30 27 H -0.3249 3.6097 -1.2622 0
M  V30 28 H -0.3314 2.5883 -2.7139 0
M  V30 END ATOM
M  V30 BEGIN BOND
M  V30 1 2 1 2
M  V30 2 1 2 3
M  V30 3 1 2 4
M  V30 4 1 3 5
M  V30 5 1 4 6
M  V30 6 2 5 7
M  V30 7 1 5 8
M  V30 8 2 6 9
M  V30 9 1 8 10
M  V30 10 1 8 11
M  V30 11 1 10 12
M  V30 12 1 11 13
M  V30 13 1 12 14
M  V30 14 1 6 8
M  V30 15 1 3 15
M  V30 16 1 4 16
M  V30 17 1 10 17
M  V30 18 1 10 18
M  V30 19 1 11 19
M  V30 20 1 11 20
M  V30 21 1 12 21
M  V30 22 1 12 22
M  V30 23 1 13 23
M  V30 24 1 13 24
M  V30 25 1 13 25
M  V30 26 1 14 26
M  V30 27 1 14 27
M  V30 28 1 14 28
M  V30 END BOND
M  V30 END CTAB
M  END
>  <Column 1>
523

>  <level_0>
591

>  <index>
591

>  <Unnamed: 0>
591

>  <NO.>
601

>  <Name>
5-propyl-5-ethyl barbituric acid (5-ethyl-5-propyl-1-3-diazinane-2-4-6-trione)

>  <IUPAC_name>
5-ethyl-5-propyl-1-3-diazinane-2-4-6-trione

>  <SMILES>
CCCC1(CC)C(=O)NC(=O)NC1=O

>  <CID>
46516

>  <logBB>
0.09

>  <BBB+/BBB->
BBB+

>  <Inchi>
InChI=1S/C9H14N2O3/c1-3-5-9(4-2)6(12)10-8(14)11-7(9)13/h3-5H2-1-2H3-(H2-10-11-12-13-14)

>  <threshold>


>  <reference>
R25|R41|R3|R38|R40|R21|R27|R43|R46|R47|R2|R2|R27|

>  <group>
A

>  <Class>
1

>  <ABC>
10.1

>  <ABCGG>
9.98

>  <nAcid>
0

>  <nBase>
0

>  <nAromAtom>
0

>  <nAromBond>
0

>  <nAtom>
28

>  <nHeavyAtom>
14

>  <nSpiro>
0

>  <nBridgehead>
0

>  <nHetero>
5

>  <nN>
2

>  <nO>
3

>  <nF>
0

>  <BalabanJ>
2.8

>  <BertzCT>
265.78

>  <nBonds>
28

>  <nBondsO>
14

>  <nBondsS>
25

>  <nBondsD>
3

>  <nBondsT>
0

>  <nBondsA>
0

>  <nBondsM>
3

>  <nBondsKS>
25

>  <nBondsKD>
3

>  <RNCG>
0.17

>  <RPCG>
0.21

>  <FCSP3>
0.67

>  <SZ>
17.67

>  <Sm>
16.5

>  <Sv>
16.45

>  <Sse>
28.53

>  <Sp>
17.35

>  <Si>
32.12

>  <MZ>
0.63

>  <Mm>
0.59

>  <Mv>
0.59

>  <Mse>
1.02

>  <Mp>
0.62

>  <Mi>
1.15

>  <NsCH3>
2

>  <NdCH2>
0

>  <NssCH2>
3

>  <NtCH>
0

>  <NdsCH>
0

>  <NaaCH>
0

>  <NsssCH>
0

>  <NddC>
0

>  <NtsC>
0

>  <NdssC>
3

>  <NaasC>
0

>  <NaaaC>
0

>  <NssssC>
1

>  <NsNH3>
0

>  <NsNH2>
0

>  <NssNH2>
0

>  <NdNH>
0

>  <NssNH>
2

>  <NaaNH>
0

>  <NtN>
0

>  <NsssNH>
0

>  <NdsN>
0

>  <NaaN>
0

>  <NsssN>
0

>  <NddsN>
0

>  <NaasN>
0

>  <NssssN>
0

>  <NsOH>
0

>  <NdO>
3

>  <NssO>
0

>  <NaaO>
0

>  <NsF>
0

>  <NsSiH3>
0

>  <NssSiH2>
0

>  <NsssSiH>
0

>  <NssssSi>
0

>  <NsPH2>
0

>  <NssPH>
0

>  <NsssP>
0

>  <NdsssP>
0

>  <NsssssP>
0

>  <NsSH>
0

>  <NdS>
0

>  <NssS>
0

>  <NaaS>
0

>  <NdssS>
0

>  <NddssS>
0

>  <NsCl>
0

>  <NsBr>
0

>  <NsI>
0

>  <fragCpx>
14.05

>  <fMF>
0.21

>  <nHBAcc>
3

>  <nHBDon>
2

>  <Kier1>
12.07

>  <Kier2>
4.68

>  <Lipinski>
1

>  <GhoseFilter>
1

>  <FilterItLogS>
-2.74

>  <VMcGowan>
151.48

>  <LabuteASA>
82.24

>  <PEOE_VSA1>
0

>  <PEOE_VSA2>
20.22

>  <PEOE_VSA3>
4.79

>  <PEOE_VSA4>
0

>  <PEOE_VSA5>
0

>  <PEOE_VSA6>
20.27

>  <PEOE_VSA7>
12.84

>  <PEOE_VSA8>
0

>  <PEOE_VSA9>
0

>  <PEOE_VSA10>
5.41

>  <PEOE_VSA11>
0

>  <PEOE_VSA12>
11.81

>  <PEOE_VSA13>
0

>  <SMR_VSA1>
14.38

>  <SMR_VSA2>
0

>  <SMR_VSA3>
10.63

>  <SMR_VSA4>
5.41

>  <SMR_VSA5>
33.11

>  <SMR_VSA6>
0

>  <SMR_VSA7>
0

>  <SMR_VSA8>
0

>  <SMR_VSA9>
0

>  <SlogP_VSA1>
10.63

>  <SlogP_VSA2>
17.85

>  <SlogP_VSA3>
9.59

>  <SlogP_VSA4>
5.41

>  <SlogP_VSA5>
33.11

>  <SlogP_VSA6>
0

>  <SlogP_VSA7>
0

>  <SlogP_VSA8>
0

>  <SlogP_VSA9>
0

>  <SlogP_VSA10>
4.79

>  <SlogP_VSA11>
0

>  <EState_VSA1>
23.26

>  <EState_VSA2>
0

>  <EState_VSA3>
12.84

>  <EState_VSA4>
6.42

>  <EState_VSA5>
0

>  <EState_VSA6>
6.92

>  <EState_VSA7>
6.92

>  <EState_VSA8>
10.63

>  <EState_VSA9>
0

>  <EState_VSA10>
14.38

>  <VSA_EState1>
0

>  <VSA_EState2>
33.96

>  <VSA_EState3>
4.25

>  <VSA_EState4>
-1.05

>  <VSA_EState5>
-0.95

>  <VSA_EState6>
-0.72

>  <VSA_EState7>
1.6

>  <VSA_EState8>
3.67

>  <VSA_EState9>
0

>  <apol>
28.97

>  <bpol>
17.79

>  <nRing>
1

>  <nHRing>
1

>  <naRing>
0

>  <naHRing>
0

>  <nARing 2>
1

>  <nAHRing 2>
1

>  <nFRing>
0

>  <nFHRing>
0

>  <nFaRing>
0

>  <nFaHRing>
0

>  <nFARing 2>
0

>  <nFAHRing 2>
0

>  <nRot>
3

>  <SLogP>
0.55

>  <SMR>
49.31

>  <TopoPSA(NO)>
75.27

>  <TopoPSA>
75.27

>  <JGI1>
0.32

>  <JGI2>
0.13

>  <JGI3>
0.08

>  <JGI4>
0.05

>  <JGI5>
0.03

>  <Diameter>
7

>  <Radius>
4

>  <TMWC10>
98.07

>  <TSRW10>
46.01

>  <MW>
198.1

>  <AMW>
7.08

>  <WPath>
276

>  <WPol>
24

>  <Zagreb1>
68

>  <Zagreb2>
81

>  <mZagreb2>
3.33

>  <yes>


>  <nAR-cont>
0.816016

>  <nHA-cont>
0.887625254

>  <MWHBN>
0.35524483

>  <MWHBN-cont>
0.650513966

>  <TPSA-cont>
0.47456866

>  <pka_cont>
0.97

>  <yes.1>


>  <BBB_SCORE>
4.113549523

>  <MMFF94 Energy>
-128.42

$$$$
Compound 421
Actelion Java MolfileCreator 2.0

  0  0  0  0  0  0              0 V3000
M  V30 BEGIN CTAB
M  V30 COUNTS 34 34 0 0 0
M  V30 BEGIN ATOM
M  V30 1 O -1.7195 -3.9113 2.5019 0
M  V30 2 C -1.058 -3.0388 1.9501 0
M  V30 3 N -0.7558 -1.8707 2.5744 0
M  V30 4 N -0.6326 -3.1707 0.6666 0
M  V30 5 C -0.0809 -0.8162 2.0279 0
M  V30 6 C 0.0815 -2.251 -0.0478 0
M  V30 7 O -0.0621 0.2655 2.612 0
M  V30 8 C 0.6756 -1.0865 0.7351 0
M  V30 9 O 0.2811 -2.4302 -1.248 0
M  V30 10 C 0.7145 0.1847 -0.15 0
M  V30 11 C 2.1128 -1.5568 1.1166 0
M  V30 12 C -0.6661 0.6469 -0.6463 0
M  V30 13 C 3.0114 -0.5075 1.762 0
M  V30 14 C -0.5489 1.9156 -1.4955 0
M  V30 15 C -1.9177 2.3802 -1.9927 0
M  V30 16 C -1.8057 3.6401 -2.8363 0
M  V30 17 H -1.1672 -1.7271 3.4863 0
M  V30 18 H -0.9406 -3.9955 0.1705 0
M  V30 19 H 1.3602 0.0071 -1.0202 0
M  V30 20 H 1.1637 1.0165 0.4066 0
M  V30 21 H 2.6258 -1.9292 0.2193 0
M  V30 22 H 2.051 -2.414 1.8011 0
M  V30 23 H -1.3261 0.8442 0.206 0
M  V30 24 H -1.1389 -0.1403 -1.2438 0
M  V30 25 H 3.9716 -0.9601 2.0318 0
M  V30 26 H 2.5705 -0.1019 2.6766 0
M  V30 27 H 3.2235 0.3183 1.0772 0
M  V30 28 H 0.1077 1.7243 -2.3528 0
M  V30 29 H -0.0838 2.713 -0.903 0
M  V30 30 H -2.3858 1.5885 -2.5893 0
M  V30 31 H -2.5773 2.5764 -1.1392 0
M  V30 32 H -2.7957 3.9546 -3.1813 0
M  V30 33 H -1.3706 4.4618 -2.2584 0
M  V30 34 H -1.1779 3.4684 -3.7165 0
M  V30 END ATOM
M  V30 BEGIN BOND
M  V30 1 2 1 2
M  V30 2 1 2 3
M  V30 3 1 2 4
M  V30 4 1 3 5
M  V30 5 1 4 6
M  V30 6 2 5 7
M  V30 7 1 5 8
M  V30 8 2 6 9
M  V30 9 1 8 10
M  V30 10 1 8 11
M  V30 11 1 10 12
M  V30 12 1 11 13
M  V30 13 1 12 14
M  V30 14 1 14 15
M  V30 15 1 15 16
M  V30 16 1 6 8
M  V30 17 1 3 17
M  V30 18 1 4 18
M  V30 19 1 10 19
M  V30 20 1 10 20
M  V30 21 1 11 21
M  V30 22 1 11 22
M  V30 23 1 12 23
M  V30 24 1 12 24
M  V30 25 1 13 25
M  V30 26 1 13 26
M  V30 27 1 13 27
M  V30 28 1 14 28
M  V30 29 1 14 29
M  V30 30 1 15 30
M  V30 31 1 15 31
M  V30 32 1 16 32
M  V30 33 1 16 33
M  V30 34 1 16 34
M  V30 END BOND
M  V30 END CTAB
M  END
>  <Column 1>
524

>  <level_0>
592

>  <index>
592

>  <Unnamed: 0>
592

>  <NO.>
602

>  <Name>
5-ethyl-5-pentylbarbituric acid

>  <IUPAC_name>
5-ethyl-5-pentyl-1-3-diazinane-2-4-6-trione

>  <SMILES>
CCCCCC1(CC)C(=O)NC(=O)NC1=O

>  <CID>
66994

>  <logBB>
0.09

>  <BBB+/BBB->
BBB+

>  <Inchi>
InChI=1S/C11H18N2O3/c1-3-5-6-7-11(4-2)8(14)12-10(16)13-9(11)15/h3-7H2-1-2H3-(H2-12-13-14-15-16)

>  <threshold>


>  <reference>
R25|R41|R3|R38|R40|R43|R46|R47|R2|R2|R8|R27|

>  <group>
A

>  <Class>
1

>  <ABC>
11.52

>  <ABCGG>
10.99

>  <nAcid>
0

>  <nBase>
0

>  <nAromAtom>
0

>  <nAromBond>
0

>  <nAtom>
34

>  <nHeavyAtom>
16

>  <nSpiro>
0

>  <nBridgehead>
0

>  <nHetero>
5

>  <nN>
2

>  <nO>
3

>  <nF>
0

>  <BalabanJ>
2.67

>  <BertzCT>
292.35

>  <nBonds>
34

>  <nBondsO>
16

>  <nBondsS>
31

>  <nBondsD>
3

>  <nBondsT>
0

>  <nBondsA>
0

>  <nBondsM>
3

>  <nBondsKS>
31

>  <nBondsKD>
3

>  <RNCG>
0.16

>  <RPCG>
0.19

>  <FCSP3>
0.73

>  <SZ>
20.33

>  <Sm>
18.84

>  <Sv>
19.54

>  <Sse>
34.31

>  <Sp>
20.95

>  <Si>
38.95

>  <MZ>
0.6

>  <Mm>
0.55

>  <Mv>
0.57

>  <Mse>
1.01

>  <Mp>
0.62

>  <Mi>
1.15

>  <NsCH3>
2

>  <NdCH2>
0

>  <NssCH2>
5

>  <NtCH>
0

>  <NdsCH>
0

>  <NaaCH>
0

>  <NsssCH>
0

>  <NddC>
0

>  <NtsC>
0

>  <NdssC>
3

>  <NaasC>
0

>  <NaaaC>
0

>  <NssssC>
1

>  <NsNH3>
0

>  <NsNH2>
0

>  <NssNH2>
0

>  <NdNH>
0

>  <NssNH>
2

>  <NaaNH>
0

>  <NtN>
0

>  <NsssNH>
0

>  <NdsN>
0

>  <NaaN>
0

>  <NsssN>
0

>  <NddsN>
0

>  <NaasN>
0

>  <NssssN>
0

>  <NsOH>
0

>  <NdO>
3

>  <NssO>
0

>  <NaaO>
0

>  <NsF>
0

>  <NsSiH3>
0

>  <NssSiH2>
0

>  <NsssSiH>
0

>  <NssssSi>
0

>  <NsPH2>
0

>  <NssPH>
0

>  <NsssP>
0

>  <NdsssP>
0

>  <NsssssP>
0

>  <NsSH>
0

>  <NdS>
0

>  <NssS>
0

>  <NaaS>
0

>  <NdssS>
0

>  <NddssS>
0

>  <NsCl>
0

>  <NsBr>
0

>  <NsI>
0

>  <fragCpx>
16.05

>  <fMF>
0.18

>  <nHBAcc>
3

>  <nHBDon>
2

>  <Kier1>
14.06

>  <Kier2>
6.07

>  <Lipinski>
1

>  <GhoseFilter>
1

>  <FilterItLogS>
-3.55

>  <VMcGowan>
179.66

>  <LabuteASA>
94.97

>  <PEOE_VSA1>
0

>  <PEOE_VSA2>
20.22

>  <PEOE_VSA3>
4.79

>  <PEOE_VSA4>
0

>  <PEOE_VSA5>
0

>  <PEOE_VSA6>
33.11

>  <PEOE_VSA7>
12.84

>  <PEOE_VSA8>
0

>  <PEOE_VSA9>
0

>  <PEOE_VSA10>
5.41

>  <PEOE_VSA11>
0

>  <PEOE_VSA12>
11.81

>  <PEOE_VSA13>
0

>  <SMR_VSA1>
14.38

>  <SMR_VSA2>
0

>  <SMR_VSA3>
10.63

>  <SMR_VSA4>
5.41

>  <SMR_VSA5>
45.95

>  <SMR_VSA6>
0

>  <SMR_VSA7>
0

>  <SMR_VSA8>
0

>  <SMR_VSA9>
0

>  <SlogP_VSA1>
10.63

>  <SlogP_VSA2>
17.85

>  <SlogP_VSA3>
9.59

>  <SlogP_VSA4>
5.41

>  <SlogP_VSA5>
45.95

>  <SlogP_VSA6>
0

>  <SlogP_VSA7>
0

>  <SlogP_VSA8>
0

>  <SlogP_VSA9>
0

>  <SlogP_VSA10>
4.79

>  <SlogP_VSA11>
0

>  <EState_VSA1>
23.26

>  <EState_VSA2>
0

>  <EState_VSA3>
12.84

>  <EState_VSA4>
19.26

>  <EState_VSA5>
0

>  <EState_VSA6>
6.92

>  <EState_VSA7>
0

>  <EState_VSA8>
17.56

>  <EState_VSA9>
0

>  <EState_VSA10>
14.38

>  <VSA_EState1>
0

>  <VSA_EState2>
34.49

>  <VSA_EState3>
4.34

>  <VSA_EState4>
-1.05

>  <VSA_EState5>
-0.92

>  <VSA_EState6>
-0.71

>  <VSA_EState7>
3.75

>  <VSA_EState8>
3.85

>  <VSA_EState9>
0

>  <apol>
34.98

>  <bpol>
21.8

>  <nRing>
1

>  <nHRing>
1

>  <naRing>
0

>  <naHRing>
0

>  <nARing 2>
1

>  <nAHRing 2>
1

>  <nFRing>
0

>  <nFHRing>
0

>  <nFaRing>
0

>  <nFaHRing>
0

>  <nFARing 2>
0

>  <nFAHRing 2>
0

>  <nRot>
5

>  <SLogP>
1.33

>  <SMR>
58.55

>  <TopoPSA(NO)>
75.27

>  <TopoPSA>
75.27

>  <JGI1>
0.28

>  <JGI2>
0.12

>  <JGI3>
0.07

>  <JGI4>
0.05

>  <JGI5>
0.03

>  <Diameter>
9

>  <Radius>
5

>  <TMWC10>
102.68

>  <TSRW10>
48.39

>  <MW>
226.13

>  <AMW>
6.65

>  <WPath>
431

>  <WPol>
26

>  <Zagreb1>
76

>  <Zagreb2>
89

>  <mZagreb2>
3.83

>  <yes>


>  <nAR-cont>
0.816016

>  <nHA-cont>
0.954961865

>  <MWHBN>
0.332499436

>  <MWHBN-cont>
0.734040072

>  <TPSA-cont>
0.47456866

>  <pka_cont>
0.97

>  <yes.1>


>  <BBB_SCORE>
4.306175294

>  <MMFF94 Energy>
-128.9

$$$$
Compound 422
Actelion Java MolfileCreator 2.0

  0  0  0  0  0  0              0 V3000
M  V30 BEGIN CTAB
M  V30 COUNTS 43 43 0 0 0
M  V30 BEGIN ATOM
M  V30 1 Cl 5.5162 -2.2824 3.1492 0
M  V30 2 C 4.1198 -1.3552 2.7186 0
M  V30 3 C 3.7034 -0.2747 3.5178 0
M  V30 4 C 3.4118 -1.7191 1.5713 0
M  V30 5 N 4.4028 0.1176 4.6516 0
M  V30 6 C 2.585 0.4594 3.1095 0
M  V30 7 C 2.2722 -0.9985 1.1953 0
M  V30 8 C 1.8856 0.1163 1.945 0
M  V30 9 C 1.556 -1.4476 -0.0242 0
M  V30 10 O 0.8031 0.8711 1.5777 0
M  V30 11 O 2.2184 -1.8268 -0.9891 0
M  V30 12 C 0.0423 -1.5013 -0.0238 0
M  V30 13 C 1.221 2.1263 1.0331 0
M  V30 14 C -0.535 -0.5935 -1.1056 0
M  V30 15 C -2.0651 -0.6122 -1.0785 0
M  V30 16 N -2.5878 0.3156 -2.0981 0
M  V30 17 C -3.4686 1.3406 -1.5126 0
M  V30 18 C -3.2887 -0.3921 -3.1844 0
M  V30 19 C -2.7013 2.3425 -0.6537 0
M  V30 20 C -2.3598 -1.2599 -4.0283 0
M  V30 21 H 3.743 -2.5642 0.9711 0
M  V30 22 H 4.0491 0.8322 5.2719 0
M  V30 23 H 5.1879 -0.447 4.9584 0
M  V30 24 H 2.2513 1.3085 3.7003 0
M  V30 25 H -0.2434 -2.5442 -0.2087 0
M  V30 26 H -0.3606 -1.2496 0.9618 0
M  V30 27 H 1.6274 2.7782 1.8133 0
M  V30 28 H 0.3394 2.6167 0.6098 0
M  V30 29 H 1.952 1.9884 0.2285 0
M  V30 30 H -0.1706 0.4306 -0.9635 0
M  V30 31 H -0.1682 -0.9161 -2.0876 0
M  V30 32 H -2.4284 -1.6366 -1.2308 0
M  V30 33 H -2.4069 -0.343 -0.0711 0
M  V30 34 H -3.9435 1.9196 -2.3148 0
M  V30 35 H -4.2775 0.8821 -0.9298 0
M  V30 36 H -4.1132 -0.9996 -2.7903 0
M  V30 37 H -3.7337 0.3423 -3.8678 0
M  V30 38 H -3.3752 3.1377 -0.3178 0
M  V30 39 H -1.8917 2.8095 -1.2248 0
M  V30 40 H -2.269 1.8792 0.2379 0
M  V30 41 H -2.9098 -1.6743 -4.8798 0
M  V30 42 H -1.9527 -2.1012 -3.4598 0
M  V30 43 H -1.5247 -0.6722 -4.424 0
M  V30 END ATOM
M  V30 BEGIN BOND
M  V30 1 1 1 2
M  V30 2 2 2 3
M  V30 3 1 2 4
M  V30 4 1 3 5
M  V30 5 1 3 6
M  V30 6 2 4 7
M  V30 7 2 6 8
M  V30 8 1 7 9
M  V30 9 1 8 10
M  V30 10 2 9 11
M  V30 11 1 9 12
M  V30 12 1 10 13
M  V30 13 1 12 14
M  V30 14 1 14 15
M  V30 15 1 15 16
M  V30 16 1 16 17
M  V30 17 1 16 18
M  V30 18 1 17 19
M  V30 19 1 18 20
M  V30 20 1 7 8
M  V30 21 1 4 21
M  V30 22 1 5 22
M  V30 23 1 5 23
M  V30 24 1 6 24
M  V30 25 1 12 25
M  V30 26 1 12 26
M  V30 27 1 13 27
M  V30 28 1 13 28
M  V30 29 1 13 29
M  V30 30 1 14 30
M  V30 31 1 14 31
M  V30 32 1 15 32
M  V30 33 1 15 33
M  V30 34 1 17 34
M  V30 35 1 17 35
M  V30 36 1 18 36
M  V30 37 1 18 37
M  V30 38 1 19 38
M  V30 39 1 19 39
M  V30 40 1 19 40
M  V30 41 1 20 41
M  V30 42 1 20 42
M  V30 43 1 20 43
M  V30 END BOND
M  V30 END CTAB
M  END
>  <Column 1>
525

>  <level_0>
593

>  <index>
593

>  <Unnamed: 0>
593

>  <NO.>
603

>  <Name>
1-(4-amino-5-chloro-2-methoxyphenyl)-4-(diethylamino)butan-1-one

>  <IUPAC_name>
1-(4-amino-5-chloro-2-methoxyphenyl)-4-(diethylamino)butan-1-one

>  <SMILES>
CCN(CC)CCCC(=O)c1cc(Cl)c(N)cc1OC

>  <CID>
23202550

>  <logBB>
0.09

>  <BBB+/BBB->
BBB+

>  <Inchi>
InChI=1S/C15H23ClN2O2/c1-4-18(5-2)8-6-7-14(19)11-9-12(16)13(17)10-15(11)20-3/h9-10H-4-8-17H2-1-3H3

>  <threshold>


>  <reference>
R18|R26|R27|

>  <group>
A

>  <Class>
1

>  <ABC>
14.35

>  <ABCGG>
13.1

>  <nAcid>
0

>  <nBase>
1

>  <nAromAtom>
6

>  <nAromBond>
6

>  <nAtom>
43

>  <nHeavyAtom>
20

>  <nSpiro>
0

>  <nBridgehead>
0

>  <nHetero>
5

>  <nN>
2

>  <nO>
2

>  <nF>
0

>  <BalabanJ>
2.42

>  <BertzCT>
459.43

>  <nBonds>
43

>  <nBondsO>
20

>  <nBondsS>
36

>  <nBondsD>
1

>  <nBondsT>
0

>  <nBondsA>
6

>  <nBondsM>
7

>  <nBondsKS>
39

>  <nBondsKD>
4

>  <RNCG>
0.28

>  <RPCG>
0.1

>  <FCSP3>
0.53

>  <SZ>
26.67

>  <Sm>
24.88

>  <Sv>
25.27

>  <Sse>
42.96

>  <Sp>
27.77

>  <Si>
48.93

>  <MZ>
0.62

>  <Mm>
0.58

>  <Mv>
0.59

>  <Mse>
1

>  <Mp>
0.65

>  <Mi>
1.14

>  <NsCH3>
3

>  <NdCH2>
0

>  <NssCH2>
5

>  <NtCH>
0

>  <NdsCH>
0

>  <NaaCH>
2

>  <NsssCH>
0

>  <NddC>
0

>  <NtsC>
0

>  <NdssC>
1

>  <NaasC>
4

>  <NaaaC>
0

>  <NssssC>
0

>  <NsNH3>
0

>  <NsNH2>
1

>  <NssNH2>
0

>  <NdNH>
0

>  <NssNH>
0

>  <NaaNH>
0

>  <NtN>
0

>  <NsssNH>
0

>  <NdsN>
0

>  <NaaN>
0

>  <NsssN>
1

>  <NddsN>
0

>  <NaasN>
0

>  <NssssN>
0

>  <NsOH>
0

>  <NdO>
1

>  <NssO>
1

>  <NaaO>
0

>  <NsF>
0

>  <NsSiH3>
0

>  <NssSiH2>
0

>  <NsssSiH>
0

>  <NssssSi>
0

>  <NsPH2>
0

>  <NssPH>
0

>  <NsssP>
0

>  <NdsssP>
0

>  <NsssssP>
0

>  <NsSH>
0

>  <NdS>
0

>  <NssS>
0

>  <NaaS>
0

>  <NdssS>
0

>  <NddssS>
0

>  <NsCl>
1

>  <NsBr>
0

>  <NsI>
0

>  <fragCpx>
20.05

>  <fMF>
0.14

>  <nHBAcc>
4

>  <nHBDon>
1

>  <Kier1>
18.05

>  <Kier2>
9.11

>  <Lipinski>
1

>  <GhoseFilter>
1

>  <FilterItLogS>
-4.55

>  <VMcGowan>
238.09

>  <LabuteASA>
125.39

>  <PEOE_VSA1>
15.37

>  <PEOE_VSA2>
4.79

>  <PEOE_VSA3>
0

>  <PEOE_VSA4>
0

>  <PEOE_VSA5>
0

>  <PEOE_VSA6>
25.45

>  <PEOE_VSA7>
32.12

>  <PEOE_VSA8>
12.49

>  <PEOE_VSA9>
23.38

>  <PEOE_VSA10>
5.75

>  <PEOE_VSA11>
5.78

>  <PEOE_VSA12>
0

>  <PEOE_VSA13>
0

>  <SMR_VSA1>
9.53

>  <SMR_VSA2>
0

>  <SMR_VSA3>
4.9

>  <SMR_VSA4>
0

>  <SMR_VSA5>
26.69

>  <SMR_VSA6>
32.48

>  <SMR_VSA7>
22.72

>  <SMR_VSA8>
0

>  <SMR_VSA9>
5.75

>  <SlogP_VSA1>
10.47

>  <SlogP_VSA2>
37.43

>  <SlogP_VSA3>
0

>  <SlogP_VSA4>
0

>  <SlogP_VSA5>
37.05

>  <SlogP_VSA6>
12.13

>  <SlogP_VSA7>
5.02

>  <SlogP_VSA8>
0

>  <SlogP_VSA9>
0

>  <SlogP_VSA10>
5.69

>  <SlogP_VSA11>
5.75

>  <EState_VSA1>
0

>  <EState_VSA2>
5.78

>  <EState_VSA3>
28.44

>  <EState_VSA4>
26.06

>  <EState_VSA5>
7.11

>  <EState_VSA6>
12.13

>  <EState_VSA7>
0

>  <EState_VSA8>
18.75

>  <EState_VSA9>
22.07

>  <EState_VSA10>
4.79

>  <VSA_EState1>
5.2

>  <VSA_EState2>
14.54

>  <VSA_EState3>
0.39

>  <VSA_EState4>
6.64

>  <VSA_EState5>
0.52

>  <VSA_EState6>
3.19

>  <VSA_EState7>
1.3

>  <VSA_EState8>
7.16

>  <VSA_EState9>
1.52

>  <apol>
46.37

>  <bpol>
27.33

>  <nRing>
1

>  <nHRing>
0

>  <naRing>
1

>  <naHRing>
0

>  <nARing 2>
0

>  <nAHRing 2>
0

>  <nFRing>
0

>  <nFHRing>
0

>  <nFaRing>
0

>  <nFaHRing>
0

>  <nFARing 2>
0

>  <nFAHRing 2>
0

>  <nRot>
8

>  <SLogP>
3.24

>  <SMR>
83.77

>  <TopoPSA(NO)>
55.56

>  <TopoPSA>
55.56

>  <JGI1>
0.23

>  <JGI2>
0.1

>  <JGI3>
0.05

>  <JGI4>
0.05

>  <JGI5>
0.03

>  <Diameter>
11

>  <Radius>
6

>  <TMWC10>
110.85

>  <TSRW10>
52.76

>  <MW>
298.14

>  <AMW>
6.93

>  <WPath>
902

>  <WPol>
29

>  <Zagreb1>
92

>  <Zagreb2>
104

>  <mZagreb2>
4.83

>  <yes>


>  <nAR-cont>
0.336376

>  <nHA-cont>
0.999629945

>  <MWHBN>
0.28957421

>  <MWHBN-cont>
0.870728006

>  <TPSA-cont>
0.612156699

>  <pka_cont>
0.97

>  <yes.1>


>  <BBB_SCORE>
4.351411352

>  <MMFF94 Energy>
55.338

$$$$
Compound 423
Actelion Java MolfileCreator 2.0

  0  0  0  0  0  0              0 V3000
M  V30 BEGIN CTAB
M  V30 COUNTS 59 62 0 0 0
M  V30 BEGIN ATOM
M  V30 1 F 4.3909 -4.3109 -4.9508 0
M  V30 2 C 4.1484 -3.809 -3.7331 0
M  V30 3 C 4.0973 -2.4281 -3.5609 0
M  V30 4 C 3.9602 -4.678 -2.6612 0
M  V30 5 C 3.8448 -1.9021 -2.2939 0
M  V30 6 C 3.7069 -4.159 -1.3913 0
M  V30 7 C 3.6276 -2.7717 -1.2189 0
M  V30 8 C 3.3945 -2.2064 0.1241 0
M  V30 9 O 4.3767 -1.6992 0.6624 0
M  V30 10 N 2.1148 -2.2943 0.6663 0
M  V30 11 C 1.8787 -1.8157 1.9821 0
M  V30 12 C 0.924 -2.8014 -0.0417 0
M  V30 13 N 1.1753 -2.614 2.8224 0
M  V30 14 C 2.3128 -0.5473 2.3599 0
M  V30 15 C 0.2818 -1.7571 -0.987 0
M  V30 16 C 0.9342 -2.1493 4.0683 0
M  V30 17 C 2.0402 -0.0902 3.6471 0
M  V30 18 N -0.0908 -0.4819 -0.3502 0
M  V30 19 C 1.34 -0.9073 4.523 0
M  V30 20 C -0.4471 0.5302 -1.3742 0
M  V30 21 C -1.2443 -0.6408 0.5693 0
M  V30 22 C -0.8527 1.8909 -0.7623 0
M  V30 23 C -1.6641 0.6883 1.2395 0
M  V30 24 N -1.9307 1.7127 0.2229 0
M  V30 25 C -2.7085 2.8317 0.5235 0
M  V30 26 C -3.5272 3.4549 -0.4548 0
M  V30 27 C -2.7094 3.3789 1.8193 0
M  V30 28 O -3.5462 2.8675 -1.7005 0
M  V30 29 C -4.2789 4.5931 -0.1264 0
M  V30 30 C -3.4675 4.5071 2.1396 0
M  V30 31 C -4.5184 3.3246 -2.6285 0
M  V30 32 C -4.248 5.1158 1.1661 0
M  V30 33 H 4.2646 -1.7739 -4.4107 0
M  V30 34 H 4.0229 -5.7498 -2.8213 0
M  V30 35 H 3.8216 -0.8259 -2.1407 0
M  V30 36 H 3.5806 -4.8265 -0.5422 0
M  V30 37 H 0.1787 -3.1726 0.6702 0
M  V30 38 H 1.2074 -3.6722 -0.6394 0
M  V30 39 H 2.8508 0.0865 1.6632 0
M  V30 40 H 1.0063 -1.5455 -1.7814 0
M  V30 41 H -0.5877 -2.2122 -1.4786 0
M  V30 42 H 0.3848 -2.8276 4.7146 0
M  V30 43 H 2.3782 0.8937 3.9579 0
M  V30 44 H 1.1187 -0.586 5.5343 0
M  V30 45 H 0.4133 0.7005 -2.0323 0
M  V30 46 H -1.2711 0.1605 -1.9992 0
M  V30 47 H -2.105 -1.049 0.0223 0
M  V30 48 H -1.005 -1.3492 1.3677 0
M  V30 49 H -1.1322 2.5636 -1.5796 0
M  V30 50 H 0.0154 2.3415 -0.2636 0
M  V30 51 H -0.8673 1.0253 1.9142 0
M  V30 52 H -2.5625 0.4982 1.8393 0
M  V30 53 H -2.0917 2.9419 2.5984 0
M  V30 54 H -4.9017 5.0962 -0.8575 0
M  V30 55 H -3.4386 4.9106 3.1481 0
M  V30 56 H -5.5317 3.2341 -2.2235 0
M  V30 57 H -4.4584 2.6869 -3.5157 0
M  V30 58 H -4.3067 4.3511 -2.9447 0
M  V30 59 H -4.8351 5.997 1.4109 0
M  V30 END ATOM
M  V30 BEGIN BOND
M  V30 1 1 1 2
M  V30 2 2 2 3
M  V30 3 1 2 4
M  V30 4 1 3 5
M  V30 5 2 4 6
M  V30 6 2 5 7
M  V30 7 1 7 8
M  V30 8 2 8 9
M  V30 9 1 8 10
M  V30 10 1 10 11
M  V30 11 1 10 12
M  V30 12 2 11 13
M  V30 13 1 11 14
M  V30 14 1 12 15
M  V30 15 1 13 16
M  V30 16 2 14 17
M  V30 17 1 15 18
M  V30 18 2 16 19
M  V30 19 1 18 20
M  V30 20 1 18 21
M  V30 21 1 20 22
M  V30 22 1 21 23
M  V30 23 1 22 24
M  V30 24 1 24 25
M  V30 25 2 25 26
M  V30 26 1 25 27
M  V30 27 1 26 28
M  V30 28 1 26 29
M  V30 29 2 27 30
M  V30 30 1 28 31
M  V30 31 2 29 32
M  V30 32 1 6 7
M  V30 33 1 17 19
M  V30 34 1 23 24
M  V30 35 1 30 32
M  V30 36 1 3 33
M  V30 37 1 4 34
M  V30 38 1 5 35
M  V30 39 1 6 36
M  V30 40 1 12 37
M  V30 41 1 12 38
M  V30 42 1 14 39
M  V30 43 1 15 40
M  V30 44 1 15 41
M  V30 45 1 16 42
M  V30 46 1 17 43
M  V30 47 1 19 44
M  V30 48 1 20 45
M  V30 49 1 20 46
M  V30 50 1 21 47
M  V30 51 1 21 48
M  V30 52 1 22 49
M  V30 53 1 22 50
M  V30 54 1 23 51
M  V30 55 1 23 52
M  V30 56 1 27 53
M  V30 57 1 29 54
M  V30 58 1 30 55
M  V30 59 1 31 56
M  V30 60 1 31 57
M  V30 61 1 31 58
M  V30 62 1 32 59
M  V30 END BOND
M  V30 END CTAB
M  END
>  <Column 1>
526

>  <level_0>
594

>  <index>
594

>  <Unnamed: 0>
594

>  <NO.>
604

>  <Name>
mppf

>  <IUPAC_name>
4-fluoro-n-[2-[4-(2-methoxyphenyl)piperazin-1-yl]ethyl]-n-pyridin-2-ylbenzamide

>  <SMILES>
COc1ccccc1N1CCN(CCN(C(=O)c2ccc(F)cc2)c2ccccn2)CC1

>  <CID>
6603915

>  <logBB>
0.09

>  <BBB+/BBB->
BBB+

>  <Inchi>
InChI=1S/C25H27FN4O2/c1-32-23-7-3-2-6-22(23)29-17-14-28(15-18-29)16-19-30(24-8-4-5-13-27-24)25(31)20-9-11-21(26)12-10-20/h2-13H-14-19H2-1H3

>  <threshold>


>  <reference>
R2|R2|R20|R25|R27|R46|

>  <group>
A

>  <Class>
1

>  <ABC>
24.77

>  <ABCGG>
18.4

>  <nAcid>
0

>  <nBase>
1

>  <nAromAtom>
18

>  <nAromBond>
18

>  <nAtom>
59

>  <nHeavyAtom>
32

>  <nSpiro>
0

>  <nBridgehead>
0

>  <nHetero>
7

>  <nN>
4

>  <nO>
2

>  <nF>
1

>  <BalabanJ>
1.28

>  <BertzCT>
1021.63

>  <nBonds>
62

>  <nBondsO>
35

>  <nBondsS>
43

>  <nBondsD>
1

>  <nBondsT>
0

>  <nBondsA>
18

>  <nBondsM>
19

>  <nBondsKS>
52

>  <nBondsKD>
10

>  <RNCG>
0.19

>  <RPCG>
0.1

>  <FCSP3>
0.28

>  <SZ>
38.33

>  <Sm>
36.18

>  <Sv>
37.42

>  <Sse>
59.26

>  <Sp>
39.71

>  <Si>
66.74

>  <MZ>
0.65

>  <Mm>
0.61

>  <Mv>
0.63

>  <Mse>
1

>  <Mp>
0.67

>  <Mi>
1.13

>  <NsCH3>
1

>  <NdCH2>
0

>  <NssCH2>
6

>  <NtCH>
0

>  <NdsCH>
0

>  <NaaCH>
12

>  <NsssCH>
0

>  <NddC>
0

>  <NtsC>
0

>  <NdssC>
1

>  <NaasC>
5

>  <NaaaC>
0

>  <NssssC>
0

>  <NsNH3>
0

>  <NsNH2>
0

>  <NssNH2>
0

>  <NdNH>
0

>  <NssNH>
0

>  <NaaNH>
0

>  <NtN>
0

>  <NsssNH>
0

>  <NdsN>
0

>  <NaaN>
1

>  <NsssN>
3

>  <NddsN>
0

>  <NaasN>
0

>  <NssssN>
0

>  <NsOH>
0

>  <NdO>
1

>  <NssO>
1

>  <NaaO>
0

>  <NsF>
1

>  <NsSiH3>
0

>  <NssSiH2>
0

>  <NsssSiH>
0

>  <NssssSi>
0

>  <NsPH2>
0

>  <NssPH>
0

>  <NsssP>
0

>  <NdsssP>
0

>  <NsssssP>
0

>  <NsSH>
0

>  <NdS>
0

>  <NssS>
0

>  <NaaS>
0

>  <NdssS>
0

>  <NddssS>
0

>  <NsCl>
0

>  <NsBr>
0

>  <NsI>
0

>  <fragCpx>
233.07

>  <fMF>
0.47

>  <nHBAcc>
5

>  <nHBDon>
0

>  <Kier1>
25.1

>  <Kier2>
12.63

>  <Lipinski>
1

>  <GhoseFilter>
1

>  <FilterItLogS>
-5.42

>  <VMcGowan>
330.09

>  <LabuteASA>
187.4

>  <PEOE_VSA1>
9.64

>  <PEOE_VSA2>
14.59

>  <PEOE_VSA3>
9.37

>  <PEOE_VSA4>
0

>  <PEOE_VSA5>
0

>  <PEOE_VSA6>
18.2

>  <PEOE_VSA7>
48.53

>  <PEOE_VSA8>
51.03

>  <PEOE_VSA9>
12.8

>  <PEOE_VSA10>
17.38

>  <PEOE_VSA11>
0

>  <PEOE_VSA12>
0

>  <PEOE_VSA13>
5.91

>  <SMR_VSA1>
13.92

>  <SMR_VSA2>
0

>  <SMR_VSA3>
9.88

>  <SMR_VSA4>
0

>  <SMR_VSA5>
0

>  <SMR_VSA6>
56.18

>  <SMR_VSA7>
84.31

>  <SMR_VSA8>
0

>  <SMR_VSA9>
5.75

>  <SlogP_VSA1>
14.54

>  <SlogP_VSA2>
62.17

>  <SlogP_VSA3>
0

>  <SlogP_VSA4>
5.82

>  <SlogP_VSA5>
10.36

>  <SlogP_VSA6>
72.93

>  <SlogP_VSA7>
0

>  <SlogP_VSA8>
0

>  <SlogP_VSA9>
0

>  <SlogP_VSA10>
15.9

>  <SlogP_VSA11>
5.75

>  <EState_VSA1>
0

>  <EState_VSA2>
11.72

>  <EState_VSA3>
17.93

>  <EState_VSA4>
44.16

>  <EState_VSA5>
24.27

>  <EState_VSA6>
18.21

>  <EState_VSA7>
36.4

>  <EState_VSA8>
20.85

>  <EState_VSA9>
4.74

>  <EState_VSA10>
9.18

>  <VSA_EState1>
18.81

>  <VSA_EState2>
23.87

>  <VSA_EState3>
0

>  <VSA_EState4>
1.55

>  <VSA_EState5>
0.93

>  <VSA_EState6>
19.2

>  <VSA_EState7>
1.67

>  <VSA_EState8>
4.77

>  <VSA_EState9>
1.69

>  <apol>
66.31

>  <bpol>
37.07

>  <nRing>
4

>  <nHRing>
2

>  <naRing>
3

>  <naHRing>
1

>  <nARing 2>
1

>  <nAHRing 2>
1

>  <nFRing>
0

>  <nFHRing>
0

>  <nFaRing>
0

>  <nFaHRing>
0

>  <nFARing 2>
0

>  <nFAHRing 2>
0

>  <nRot>
7

>  <SLogP>
3.7

>  <SMR>
123.96

>  <TopoPSA(NO)>
48.91

>  <TopoPSA>
48.91

>  <JGI1>
0.14

>  <JGI2>
0.08

>  <JGI3>
0.04

>  <JGI4>
0.03

>  <JGI5>
0.02

>  <Diameter>
16

>  <Radius>
8

>  <TMWC10>
143.78

>  <TSRW10>
67.8

>  <MW>
434.21

>  <AMW>
7.36

>  <WPath>
3245

>  <WPol>
50

>  <Zagreb1>
164

>  <Zagreb2>
191

>  <mZagreb2>
7.22

>  <yes>


>  <nAR-cont>
0.816016

>  <nHA-cont>
0.658856097

>  <MWHBN>
0.239949635

>  <MWHBN-cont>
0.975036971

>  <TPSA-cont>
0.658577829

>  <pka_cont>
0.97

>  <yes.1>


>  <BBB_SCORE>
4.739583211

>  <MMFF94 Energy>
157.36

$$$$
Compound 424
Actelion Java MolfileCreator 2.0

  0  0  0  0  0  0              0 V3000
M  V30 BEGIN CTAB
M  V30 COUNTS 38 40 0 0 0
M  V30 BEGIN ATOM
M  V30 1 O -0.8014 1.7637 -1.4429 0
M  V30 2 C -0.3977 0.6301 -1.6347 0
M  V30 3 O -0.0177 -0.2716 -0.6968 0
M  V30 4 C -0.2592 0.0167 -2.9701 0
M  V30 5 C -0.0698 0.1881 0.6676 0 CFG=2
M  V30 6 C 0.3053 0.7286 -4.034 0
M  V30 7 C -0.7857 -1.2657 -3.1929 0
M  V30 8 C 0.903 -0.6701 1.4839 0
M  V30 9 C -1.487 0.0259 1.216 0
M  V30 10 C 0.9263 2.0541 -3.8699 0
M  V30 11 C 0.3149 0.1707 -5.3205 0
M  V30 12 C -0.7546 -1.824 -4.4724 0
M  V30 13 C 0.7286 -0.5262 2.9748 0
M  V30 14 C -1.5623 0.5327 2.6522 0
M  V30 15 O 0.8265 2.9879 -4.642 0
M  V30 16 O 1.744 2.0848 -2.8042 0
M  V30 17 C -0.2115 -1.1039 -5.5359 0
M  V30 18 C -0.4503 0.007 3.5261 0
M  V30 19 C 1.7434 -0.9837 3.8285 0
M  V30 20 C -0.5748 0.1057 4.9199 0
M  V30 21 C 1.6028 -0.8901 5.2126 0
M  V30 22 C 0.4452 -0.343 5.7581 0
M  V30 23 H 0.2471 1.2385 0.7267 0
M  V30 24 H -1.2383 -1.8254 -2.377 0
M  V30 25 H 0.7747 -1.7284 1.2201 0
M  V30 26 H 1.9282 -0.4039 1.1966 0
M  V30 27 H -1.7807 -1.0312 1.1679 0
M  V30 28 H -2.2123 0.563 0.5943 0
M  V30 29 H 0.7415 0.726 -6.1541 0
M  V30 30 H -1.1669 -2.8163 -4.6426 0
M  V30 31 H -2.5334 0.2483 3.0748 0
M  V30 32 H -1.508 1.6285 2.6542 0
M  V30 33 H 2.0768 3.0068 -2.7843 0
M  V30 34 H -0.1971 -1.5354 -6.5344 0
M  V30 35 H 2.6525 -1.4161 3.4161 0
M  V30 36 H -1.4722 0.5351 5.3604 0
M  V30 37 H 2.397 -1.2433 5.8647 0
M  V30 38 H 0.336 -0.265 6.8364 0
M  V30 END ATOM
M  V30 BEGIN BOND
M  V30 1 2 1 2
M  V30 2 1 2 3
M  V30 3 1 2 4
M  V30 4 1 3 5
M  V30 5 2 4 6
M  V30 6 1 4 7
M  V30 7 1 5 8
M  V30 8 1 5 9
M  V30 9 1 6 10
M  V30 10 1 6 11
M  V30 11 2 7 12
M  V30 12 1 8 13
M  V30 13 1 9 14
M  V30 14 2 10 15
M  V30 15 1 10 16
M  V30 16 2 11 17
M  V30 17 2 13 18
M  V30 18 1 13 19
M  V30 19 1 18 20
M  V30 20 2 19 21
M  V30 21 2 20 22
M  V30 22 1 12 17
M  V30 23 1 14 18
M  V30 24 1 21 22
M  V30 25 1 5 23
M  V30 26 1 7 24
M  V30 27 1 8 25
M  V30 28 1 8 26
M  V30 29 1 9 27
M  V30 30 1 9 28
M  V30 31 1 11 29
M  V30 32 1 12 30
M  V30 33 1 14 31
M  V30 34 1 14 32
M  V30 35 1 16 33
M  V30 36 1 17 34
M  V30 37 1 19 35
M  V30 38 1 20 36
M  V30 39 1 21 37
M  V30 40 1 22 38
M  V30 END BOND
M  V30 BEGIN COLLECTION
M  V30 MDLV30/STERAC1 ATOMS=(1 5)
M  V30 END COLLECTION
M  V30 END CTAB
M  END
>  <Column 1>
527

>  <level_0>
595

>  <index>
595

>  <Unnamed: 0>
595

>  <NO.>
605

>  <Name>
7461-08-07

>  <IUPAC_name>
2-(1-2-3-4-tetrahydronaphthalen-2-yloxycarbonyl)benzoic acid

>  <SMILES>
O=C(O)c1ccccc1C(=O)OC1CCc2ccccc2C1

>  <CID>
346516

>  <logBB>
0.09

>  <BBB+/BBB->
BBB+

>  <Inchi>
InChI=1S/C18H16O4/c19-17(20)15-7-3-4-8-16(15)18(21)22-14-10-9-12-5-1-2-6-13(12)11-14/h1-8-14H-9-11H2-(H-19-20)

>  <threshold>


>  <reference>
R8|

>  <group>
A

>  <Class>
1

>  <ABC>
17.14

>  <ABCGG>
13.6

>  <nAcid>
1

>  <nBase>
0

>  <nAromAtom>
12

>  <nAromBond>
12

>  <nAtom>
38

>  <nHeavyAtom>
22

>  <nSpiro>
0

>  <nBridgehead>
0

>  <nHetero>
4

>  <nN>
0

>  <nO>
4

>  <nF>
0

>  <BalabanJ>
1.53

>  <BertzCT>
720.53

>  <nBonds>
40

>  <nBondsO>
24

>  <nBondsS>
26

>  <nBondsD>
2

>  <nBondsT>
0

>  <nBondsA>
12

>  <nBondsM>
14

>  <nBondsKS>
32

>  <nBondsKD>
8

>  <RNCG>
0.24

>  <RPCG>
0.17

>  <FCSP3>
0.22

>  <SZ>
26

>  <Sm>
24.67

>  <Sv>
25.19

>  <Sse>
38.43

>  <Sp>
26.31

>  <Si>
42.16

>  <MZ>
0.68

>  <Mm>
0.65

>  <Mv>
0.66

>  <Mse>
1.01

>  <Mp>
0.69

>  <Mi>
1.11

>  <NsCH3>
0

>  <NdCH2>
0

>  <NssCH2>
3

>  <NtCH>
0

>  <NdsCH>
0

>  <NaaCH>
8

>  <NsssCH>
1

>  <NddC>
0

>  <NtsC>
0

>  <NdssC>
2

>  <NaasC>
4

>  <NaaaC>
0

>  <NssssC>
0

>  <NsNH3>
0

>  <NsNH2>
0

>  <NssNH2>
0

>  <NdNH>
0

>  <NssNH>
0

>  <NaaNH>
0

>  <NtN>
0

>  <NsssNH>
0

>  <NdsN>
0

>  <NaaN>
0

>  <NsssN>
0

>  <NddsN>
0

>  <NaasN>
0

>  <NssssN>
0

>  <NsOH>
1

>  <NdO>
2

>  <NssO>
1

>  <NaaO>
0

>  <NsF>
0

>  <NsSiH3>
0

>  <NssSiH2>
0

>  <NsssSiH>
0

>  <NssssSi>
0

>  <NsPH2>
0

>  <NssPH>
0

>  <NsssP>
0

>  <NdsssP>
0

>  <NsssssP>
0

>  <NsSH>
0

>  <NdS>
0

>  <NssS>
0

>  <NaaS>
0

>  <NdssS>
0

>  <NddssS>
0

>  <NsCl>
0

>  <NsBr>
0

>  <NsI>
0

>  <fragCpx>
114.04

>  <fMF>
0.47

>  <nHBAcc>
3

>  <nHBDon>
1

>  <Kier1>
16.84

>  <Kier2>
7.71

>  <Lipinski>
1

>  <GhoseFilter>
1

>  <FilterItLogS>
-3.64

>  <VMcGowan>
220.98

>  <LabuteASA>
127.9

>  <PEOE_VSA1>
9.84

>  <PEOE_VSA2>
0

>  <PEOE_VSA3>
9.59

>  <PEOE_VSA4>
0

>  <PEOE_VSA5>
0

>  <PEOE_VSA6>
36.4

>  <PEOE_VSA7>
36.1

>  <PEOE_VSA8>
6.42

>  <PEOE_VSA9>
11.13

>  <PEOE_VSA10>
6.1

>  <PEOE_VSA11>
0

>  <PEOE_VSA12>
0

>  <PEOE_VSA13>
0

>  <SMR_VSA1>
19.43

>  <SMR_VSA2>
0

>  <SMR_VSA3>
0

>  <SMR_VSA4>
0

>  <SMR_VSA5>
25.37

>  <SMR_VSA6>
0

>  <SMR_VSA7>
70.78

>  <SMR_VSA8>
0

>  <SMR_VSA9>
0

>  <SlogP_VSA1>
0

>  <SlogP_VSA2>
23.15

>  <SlogP_VSA3>
17.58

>  <SlogP_VSA4>
0

>  <SlogP_VSA5>
38.26

>  <SlogP_VSA6>
48.53

>  <SlogP_VSA7>
0

>  <SlogP_VSA8>
0

>  <SlogP_VSA9>
0

>  <SlogP_VSA10>
0

>  <SlogP_VSA11>
0

>  <EState_VSA1>
11.94

>  <EState_VSA2>
17.23

>  <EState_VSA3>
6.42

>  <EState_VSA4>
12.84

>  <EState_VSA5>
23.26

>  <EState_VSA6>
12.13

>  <EState_VSA7>
18.2

>  <EState_VSA8>
6.07

>  <EState_VSA9>
9.84

>  <EState_VSA10>
9.59

>  <VSA_EState1>
5.52

>  <VSA_EState2>
23.44

>  <VSA_EState3>
9.14

>  <VSA_EState4>
2.57

>  <VSA_EState5>
-1.69

>  <VSA_EState6>
14.25

>  <VSA_EState7>
2.1

>  <VSA_EState8>
0

>  <VSA_EState9>
0

>  <apol>
43.94

>  <bpol>
19.52

>  <nRing>
3

>  <nHRing>
0

>  <naRing>
2

>  <naHRing>
0

>  <nARing 2>
1

>  <nAHRing 2>
0

>  <nFRing>
1

>  <nFHRing>
0

>  <nFaRing>
0

>  <nFaHRing>
0

>  <nFARing 2>
1

>  <nFAHRing 2>
0

>  <nRot>
3

>  <SLogP>
3.1

>  <SMR>
81.07

>  <TopoPSA(NO)>
63.6

>  <TopoPSA>
63.6

>  <JGI1>
0.17

>  <JGI2>
0.07

>  <JGI3>
0.05

>  <JGI4>
0.04

>  <JGI5>
0.02

>  <Diameter>
11

>  <Radius>
6

>  <TMWC10>
119.7

>  <TSRW10>
56.1

>  <MW>
296.1

>  <AMW>
7.79

>  <WPath>
1097

>  <WPol>
34

>  <Zagreb1>
114

>  <Zagreb2>
133

>  <mZagreb2>
4.86

>  <yes>


>  <nAR-cont>
0.816016

>  <nHA-cont>
0.983774276

>  <MWHBN>
0.232456015

>  <MWHBN-cont>
0.984198359

>  <TPSA-cont>
0.556032507

>  <pka_cont>
0.97

>  <yes.1>


>  <BBB_SCORE>
4.873152827

>  <MMFF94 Energy>
31.393

$$$$
Compound 425
Actelion Java MolfileCreator 2.0

  0  0  0  0  0  0              0 V3000
M  V30 BEGIN CTAB
M  V30 COUNTS 33 34 0 0 0
M  V30 BEGIN ATOM
M  V30 1 O -4.0555 0.4764 0.2382 0
M  V30 2 C -2.9361 0.405 -0.2651 0
M  V30 3 N -2.0094 1.4233 -0.2333 0
M  V30 4 N -2.587 -0.7205 -0.9469 0
M  V30 5 C -0.7921 1.3786 -0.8982 0
M  V30 6 C -2.4135 2.6861 0.3571 0
M  V30 7 C -1.3744 -1.0063 -1.5052 0
M  V30 8 O -0.162 2.4059 -1.1651 0
M  V30 9 C -0.2471 -0.0143 -1.2298 0 CFG=2
M  V30 10 O -1.2297 -2.0562 -2.1313 0
M  V30 11 C 0.6256 -0.4573 -0.0232 0
M  V30 12 C 0.5877 0.0575 -2.5258 0
M  V30 13 C 0.2492 -1.3809 0.889 0
M  V30 14 C 1.9847 0.219 0.112 0
M  V30 15 C 1.0956 -1.8413 2.044 0
M  V30 16 C 2.6428 0.0457 1.483 0
M  V30 17 C 2.5519 -1.3989 1.9484 0
M  V30 18 H -3.3078 -1.4208 -1.0496 0
M  V30 19 H -3.0935 2.5243 1.1989 0
M  V30 20 H -1.5426 3.2492 0.706 0
M  V30 21 H -2.9325 3.2728 -0.4078 0
M  V30 22 H 1.3577 0.8362 -2.4901 0
M  V30 23 H 1.0889 -0.8951 -2.7344 0
M  V30 24 H -0.0517 0.2876 -3.3872 0
M  V30 25 H -0.7177 -1.8747 0.8338 0
M  V30 26 H 2.654 -0.1936 -0.653 0
M  V30 27 H 1.9004 1.2939 -0.0784 0
M  V30 28 H 0.6514 -1.4531 2.9687 0
M  V30 29 H 1.0587 -2.9349 2.1069 0
M  V30 30 H 2.1509 0.6999 2.2143 0
M  V30 31 H 3.6916 0.3588 1.4298 0
M  V30 32 H 3.0893 -2.0452 1.2427 0
M  V30 33 H 3.0401 -1.5158 2.9225 0
M  V30 END ATOM
M  V30 BEGIN BOND
M  V30 1 2 1 2
M  V30 2 1 2 3
M  V30 3 1 2 4
M  V30 4 1 3 5
M  V30 5 1 3 6
M  V30 6 1 4 7
M  V30 7 2 5 8
M  V30 8 1 5 9
M  V30 9 2 7 10
M  V30 10 1 9 11
M  V30 11 1 9 12
M  V30 12 2 11 13
M  V30 13 1 11 14
M  V30 14 1 13 15
M  V30 15 1 14 16
M  V30 16 1 15 17
M  V30 17 1 7 9
M  V30 18 1 16 17
M  V30 19 1 4 18
M  V30 20 1 6 19
M  V30 21 1 6 20
M  V30 22 1 6 21
M  V30 23 1 12 22
M  V30 24 1 12 23
M  V30 25 1 12 24
M  V30 26 1 13 25
M  V30 27 1 14 26
M  V30 28 1 14 27
M  V30 29 1 15 28
M  V30 30 1 15 29
M  V30 31 1 16 30
M  V30 32 1 16 31
M  V30 33 1 17 32
M  V30 34 1 17 33
M  V30 END BOND
M  V30 BEGIN COLLECTION
M  V30 MDLV30/STERAC1 ATOMS=(1 9)
M  V30 END COLLECTION
M  V30 END CTAB
M  END
>  <Column 1>
528

>  <level_0>
596

>  <index>
596

>  <Unnamed: 0>
596

>  <NO.>
606

>  <Name>
56-29-1

>  <IUPAC_name>
5-(cyclohexen-1-yl)-1-5-dimethyl-1-3-diazinane-2-4-6-trione

>  <SMILES>
CN1C(=O)NC(=O)C(C)(C2=CCCCC2)C1=O

>  <CID>
3608

>  <logBB>
0.1

>  <BBB+/BBB->
BBB+

>  <Inchi>
InChI=1S/C12H16N2O3/c1-12(8-6-4-3-5-7-8)9(15)13-11(17)14(2)10(12)16/h6H-3-5-7H2-1-2H3-(H-13-15-17)

>  <threshold>


>  <reference>
R4|R40|R8|R21|R27|R3|R2|R2|R27|R46|R38|R25|R41|R3|R5|R11|R12|R20|R35|R36|R39|R43|R44|R47|

>  <group>
A

>  <Class>
1

>  <ABC>
13.06

>  <ABCGG>
11.86

>  <nAcid>
0

>  <nBase>
0

>  <nAromAtom>
0

>  <nAromBond>
0

>  <nAtom>
33

>  <nHeavyAtom>
17

>  <nSpiro>
0

>  <nBridgehead>
0

>  <nHetero>
5

>  <nN>
2

>  <nO>
3

>  <nF>
0

>  <BalabanJ>
2.2

>  <BertzCT>
427.47

>  <nBonds>
34

>  <nBondsO>
18

>  <nBondsS>
30

>  <nBondsD>
4

>  <nBondsT>
0

>  <nBondsA>
0

>  <nBondsM>
4

>  <nBondsKS>
30

>  <nBondsKD>
4

>  <RNCG>
0.17

>  <RPCG>
0.2

>  <FCSP3>
0.58

>  <SZ>
21

>  <Sm>
19.67

>  <Sv>
19.99

>  <Sse>
33.42

>  <Sp>
21.15

>  <Si>
37.53

>  <MZ>
0.64

>  <Mm>
0.6

>  <Mv>
0.61

>  <Mse>
1.01

>  <Mp>
0.64

>  <Mi>
1.14

>  <NsCH3>
2

>  <NdCH2>
0

>  <NssCH2>
4

>  <NtCH>
0

>  <NdsCH>
1

>  <NaaCH>
0

>  <NsssCH>
0

>  <NddC>
0

>  <NtsC>
0

>  <NdssC>
4

>  <NaasC>
0

>  <NaaaC>
0

>  <NssssC>
1

>  <NsNH3>
0

>  <NsNH2>
0

>  <NssNH2>
0

>  <NdNH>
0

>  <NssNH>
1

>  <NaaNH>
0

>  <NtN>
0

>  <NsssNH>
0

>  <NdsN>
0

>  <NaaN>
0

>  <NsssN>
1

>  <NddsN>
0

>  <NaasN>
0

>  <NssssN>
0

>  <NsOH>
0

>  <NdO>
3

>  <NssO>
0

>  <NaaO>
0

>  <NsF>
0

>  <NsSiH3>
0

>  <NssSiH2>
0

>  <NsssSiH>
0

>  <NssssSi>
0

>  <NsPH2>
0

>  <NssPH>
0

>  <NsssP>
0

>  <NdsssP>
0

>  <NsssssP>
0

>  <NsSH>
0

>  <NdS>
0

>  <NssS>
0

>  <NaaS>
0

>  <NdssS>
0

>  <NddssS>
0

>  <NsCl>
0

>  <NsBr>
0

>  <NsI>
0

>  <fragCpx>
52.05

>  <fMF>
0.36

>  <nHBAcc>
3

>  <nHBDon>
1

>  <Kier1>
13.43

>  <Kier2>
4.94

>  <Lipinski>
1

>  <GhoseFilter>
1

>  <FilterItLogS>
-2.23

>  <VMcGowan>
178.59

>  <LabuteASA>
99.85

>  <PEOE_VSA1>
0

>  <PEOE_VSA2>
19.81

>  <PEOE_VSA3>
4.79

>  <PEOE_VSA4>
0

>  <PEOE_VSA5>
0

>  <PEOE_VSA6>
6.08

>  <PEOE_VSA7>
38.18

>  <PEOE_VSA8>
7.05

>  <PEOE_VSA9>
0

>  <PEOE_VSA10>
5.41

>  <PEOE_VSA11>
0

>  <PEOE_VSA12>
11.81

>  <PEOE_VSA13>
0

>  <SMR_VSA1>
14.38

>  <SMR_VSA2>
0

>  <SMR_VSA3>
10.22

>  <SMR_VSA4>
5.41

>  <SMR_VSA5>
32.61

>  <SMR_VSA6>
7.05

>  <SMR_VSA7>
11.65

>  <SMR_VSA8>
0

>  <SMR_VSA9>
0

>  <SlogP_VSA1>
5.32

>  <SlogP_VSA2>
29.79

>  <SlogP_VSA3>
9.59

>  <SlogP_VSA4>
5.41

>  <SlogP_VSA5>
32.61

>  <SlogP_VSA6>
11.65

>  <SlogP_VSA7>
0

>  <SlogP_VSA8>
0

>  <SlogP_VSA9>
0

>  <SlogP_VSA10>
4.79

>  <SlogP_VSA11>
0

>  <EState_VSA1>
23.26

>  <EState_VSA2>
0

>  <EState_VSA3>
0

>  <EState_VSA4>
36.16

>  <EState_VSA5>
7.05

>  <EState_VSA6>
6.92

>  <EState_VSA7>
6.08

>  <EState_VSA8>
5.32

>  <EState_VSA9>
0

>  <EState_VSA10>
14.38

>  <VSA_EState1>
0

>  <VSA_EState2>
36.45

>  <VSA_EState3>
2.23

>  <VSA_EState4>
-0.37

>  <VSA_EState5>
-0.93

>  <VSA_EState6>
-0.64

>  <VSA_EState7>
5.68

>  <VSA_EState8>
1.6

>  <VSA_EState9>
1.39

>  <apol>
35.31

>  <bpol>
20.94

>  <nRing>
2

>  <nHRing>
1

>  <naRing>
0

>  <naHRing>
0

>  <nARing 2>
2

>  <nAHRing 2>
1

>  <nFRing>
0

>  <nFHRing>
0

>  <nFaRing>
0

>  <nFaHRing>
0

>  <nFARing 2>
0

>  <nFAHRing 2>
0

>  <nRot>
1

>  <SLogP>
1.2

>  <SMR>
60.97

>  <TopoPSA(NO)>
66.48

>  <TopoPSA>
66.48

>  <JGI1>
0.25

>  <JGI2>
0.13

>  <JGI3>
0.07

>  <JGI4>
0.05

>  <JGI5>
0.03

>  <Diameter>
8

>  <Radius>
4

>  <TMWC10>
108.32

>  <TSRW10>
50.52

>  <MW>
236.12

>  <AMW>
7.16

>  <WPath>
458

>  <WPol>
32

>  <Zagreb1>
90

>  <Zagreb2>
110

>  <mZagreb2>
3.72

>  <yes>


>  <nAR-cont>
1

>  <nHA-cont>
0.976740822

>  <MWHBN>
0.260311649

>  <MWHBN-cont>
0.940796486

>  <TPSA-cont>
0.535928318

>  <pka_cont>
0.97

>  <yes.1>


>  <BBB_SCORE>
4.944792188

>  <MMFF94 Energy>
-73.214

$$$$
Compound 426
Actelion Java MolfileCreator 2.0

  0  0  0  0  0  0              0 V3000
M  V30 BEGIN CTAB
M  V30 COUNTS 9 9 0 0 0
M  V30 BEGIN ATOM
M  V30 1 C -0.1529 -0.7648 -0.3823 0
M  V30 2 C 0.3635 -0.0461 0.8315 0
M  V30 3 C -0.1551 0.7368 -0.3407 0
M  V30 4 H 0.5665 -1.2549 -1.0279 0
M  V30 5 H -1.1047 -1.2773 -0.3036 0
M  V30 6 H -0.2384 -0.0719 1.7326 0
M  V30 7 H 1.4328 -0.0494 1.0082 0
M  V30 8 H -1.1084 1.2416 -0.2339 0
M  V30 9 H 0.5628 1.264 -0.9582 0
M  V30 END ATOM
M  V30 BEGIN BOND
M  V30 1 1 1 2
M  V30 2 1 1 3
M  V30 3 1 2 3
M  V30 4 1 1 4
M  V30 5 1 1 5
M  V30 6 1 2 6
M  V30 7 1 2 7
M  V30 8 1 3 8
M  V30 9 1 3 9
M  V30 END BOND
M  V30 END CTAB
M  END
>  <Column 1>
529

>  <level_0>
597

>  <index>
597

>  <Unnamed: 0>
597

>  <NO.>
607

>  <Name>
cyclopropane (trimethylene)

>  <IUPAC_name>
cyclopropane

>  <SMILES>
C1CC1

>  <CID>
6351

>  <logBB>
0.1

>  <BBB+/BBB->
BBB+

>  <Inchi>
InChI=1S/C3H6/c1-2-3-1/h1-3H2

>  <threshold>


>  <reference>
R5|R12|R35|R39|R8|R21|R27|R40|R2|R2|R27|R3|R25|R38|R41|R43|R46|R47|

>  <group>
A

>  <Class>
1

>  <ABC>
2.12

>  <ABCGG>
0

>  <nAcid>
0

>  <nBase>
0

>  <nAromAtom>
0

>  <nAromBond>
0

>  <nAtom>
9

>  <nHeavyAtom>
3

>  <nSpiro>
0

>  <nBridgehead>
0

>  <nHetero>
0

>  <nN>
0

>  <nO>
0

>  <nF>
0

>  <BalabanJ>
2.25

>  <BertzCT>
4.75

>  <nBonds>
9

>  <nBondsO>
3

>  <nBondsS>
9

>  <nBondsD>
0

>  <nBondsT>
0

>  <nBondsA>
0

>  <nBondsM>
0

>  <nBondsKS>
9

>  <nBondsKD>
0

>  <RNCG>
0.33

>  <RPCG>
0.17

>  <FCSP3>
1

>  <SZ>
4

>  <Sm>
3.5

>  <Sv>
4.63

>  <Sse>
8.66

>  <Sp>
5.4

>  <Si>
10.25

>  <MZ>
0.44

>  <Mm>
0.39

>  <Mv>
0.51

>  <Mse>
0.96

>  <Mp>
0.6

>  <Mi>
1.14

>  <NsCH3>
0

>  <NdCH2>
0

>  <NssCH2>
3

>  <NtCH>
0

>  <NdsCH>
0

>  <NaaCH>
0

>  <NsssCH>
0

>  <NddC>
0

>  <NtsC>
0

>  <NdssC>
0

>  <NaasC>
0

>  <NaaaC>
0

>  <NssssC>
0

>  <NsNH3>
0

>  <NsNH2>
0

>  <NssNH2>
0

>  <NdNH>
0

>  <NssNH>
0

>  <NaaNH>
0

>  <NtN>
0

>  <NsssNH>
0

>  <NdsN>
0

>  <NaaN>
0

>  <NsssN>
0

>  <NddsN>
0

>  <NaasN>
0

>  <NssssN>
0

>  <NsOH>
0

>  <NdO>
0

>  <NssO>
0

>  <NaaO>
0

>  <NsF>
0

>  <NsSiH3>
0

>  <NssSiH2>
0

>  <NsssSiH>
0

>  <NssssSi>
0

>  <NsPH2>
0

>  <NssPH>
0

>  <NsssP>
0

>  <NdsssP>
0

>  <NsssssP>
0

>  <NsSH>
0

>  <NdS>
0

>  <NssS>
0

>  <NaaS>
0

>  <NdssS>
0

>  <NddssS>
0

>  <NsCl>
0

>  <NsBr>
0

>  <NsI>
0

>  <fragCpx>
3

>  <fMF>
0.33

>  <nHBAcc>
0

>  <nHBDon>
0

>  <Kier1>
1.33

>  <Kier2>
0.22

>  <Lipinski>
1

>  <GhoseFilter>
0

>  <FilterItLogS>
-0.47

>  <VMcGowan>
42.27

>  <LabuteASA>
20.46

>  <PEOE_VSA1>
0

>  <PEOE_VSA2>
0

>  <PEOE_VSA3>
0

>  <PEOE_VSA4>
0

>  <PEOE_VSA5>
0

>  <PEOE_VSA6>
19.26

>  <PEOE_VSA7>
0

>  <PEOE_VSA8>
0

>  <PEOE_VSA9>
0

>  <PEOE_VSA10>
0

>  <PEOE_VSA11>
0

>  <PEOE_VSA12>
0

>  <PEOE_VSA13>
0

>  <SMR_VSA1>
0

>  <SMR_VSA2>
0

>  <SMR_VSA3>
0

>  <SMR_VSA4>
0

>  <SMR_VSA5>
19.26

>  <SMR_VSA6>
0

>  <SMR_VSA7>
0

>  <SMR_VSA8>
0

>  <SMR_VSA9>
0

>  <SlogP_VSA1>
0

>  <SlogP_VSA2>
0

>  <SlogP_VSA3>
0

>  <SlogP_VSA4>
0

>  <SlogP_VSA5>
19.26

>  <SlogP_VSA6>
0

>  <SlogP_VSA7>
0

>  <SlogP_VSA8>
0

>  <SlogP_VSA9>
0

>  <SlogP_VSA10>
0

>  <SlogP_VSA11>
0

>  <EState_VSA1>
0

>  <EState_VSA2>
0

>  <EState_VSA3>
0

>  <EState_VSA4>
0

>  <EState_VSA5>
19.26

>  <EState_VSA6>
0

>  <EState_VSA7>
0

>  <EState_VSA8>
0

>  <EState_VSA9>
0

>  <EState_VSA10>
0

>  <VSA_EState1>
0

>  <VSA_EState2>
0

>  <VSA_EState3>
0

>  <VSA_EState4>
0

>  <VSA_EState5>
0

>  <VSA_EState6>
0

>  <VSA_EState7>
4.5

>  <VSA_EState8>
0

>  <VSA_EState9>
0

>  <apol>
9.01

>  <bpol>
6.02

>  <nRing>
1

>  <nHRing>
0

>  <naRing>
0

>  <naHRing>
0

>  <nARing 2>
1

>  <nAHRing 2>
0

>  <nFRing>
0

>  <nFHRing>
0

>  <nFaRing>
0

>  <nFaHRing>
0

>  <nFARing 2>
0

>  <nFAHRing 2>
0

>  <nRot>
0

>  <SLogP>
1.17

>  <SMR>
13.85

>  <TopoPSA(NO)>
0

>  <TopoPSA>
0

>  <JGI1>
0

>  <JGI2>
0

>  <JGI3>
0

>  <JGI4>
0

>  <JGI5>
0

>  <Diameter>
1

>  <Radius>
1

>  <TMWC10>
53.48

>  <TSRW10>
41.05

>  <MW>
42.05

>  <AMW>
4.67

>  <WPath>
3

>  <WPol>
0

>  <Zagreb1>
12

>  <Zagreb2>
12

>  <mZagreb2>
0.75

>  <yes>


>  <nAR-cont>
0.816016

>  <nHA-cont>
0

>  <MWHBN>
0

>  <MWHBN-cont>
0

>  <TPSA-cont>
0

>  <pka_cont>
0.97

>  <yes.1>


>  <BBB_SCORE>
1.301016

>  <MMFF94 Energy>
15.551

$$$$
Compound 427
Actelion Java MolfileCreator 2.0

  0  0  0  0  0  0              0 V3000
M  V30 BEGIN CTAB
M  V30 COUNTS 11 10 0 0 0
M  V30 BEGIN ATOM
M  V30 1 O -0.1488 0.2977 -0.1488 0
M  V30 2 C -0.601 -0.357 0.9673 0
M  V30 3 C 0.926 -0.2074 -0.833 0
M  V30 4 C -1.6429 0.0906 1.6707 0
M  V30 5 C 1.4071 0.3894 -1.9253 0
M  V30 6 H -0.0614 -1.2535 1.2378 0
M  V30 7 H 1.3548 -1.1148 -0.4319 0
M  V30 8 H -1.9901 -0.4371 2.5516 0
M  V30 9 H -2.1659 0.9942 1.3753 0
M  V30 10 H 0.956 1.3 -2.3053 0
M  V30 11 H 2.258 -0.021 -2.4567 0
M  V30 END ATOM
M  V30 BEGIN BOND
M  V30 1 1 1 2
M  V30 2 1 1 3
M  V30 3 2 2 4
M  V30 4 2 3 5
M  V30 5 1 2 6
M  V30 6 1 3 7
M  V30 7 1 4 8
M  V30 8 1 4 9
M  V30 9 1 5 10
M  V30 10 1 5 11
M  V30 END BOND
M  V30 END CTAB
M  END
>  <Column 1>
530

>  <level_0>
598

>  <index>
598

>  <Unnamed: 0>
598

>  <NO.>
608

>  <Name>
divinylether

>  <IUPAC_name>
ethenoxyethene

>  <SMILES>
C=COC=C

>  <CID>
8024

>  <logBB>
0.1

>  <BBB+/BBB->
BBB+

>  <Inchi>
InChI=1S/C4H6O/c1-3-5-4-2/h3-4H-1-2H2

>  <threshold>


>  <reference>
R43|R5|R12|R35|R39|R40|R2|R2|R3|R8|R25|R27|R38|R41|R46|R47|R44|

>  <group>
A

>  <Class>
1

>  <ABC>
2.83

>  <ABCGG>
3.15

>  <nAcid>
0

>  <nBase>
0

>  <nAromAtom>
0

>  <nAromBond>
0

>  <nAtom>
11

>  <nHeavyAtom>
5

>  <nSpiro>
0

>  <nBridgehead>
0

>  <nHetero>
1

>  <nN>
0

>  <nO>
1

>  <nF>
0

>  <BalabanJ>
2.19

>  <BertzCT>
32.91

>  <nBonds>
10

>  <nBondsO>
4

>  <nBondsS>
8

>  <nBondsD>
2

>  <nBondsT>
0

>  <nBondsA>
0

>  <nBondsM>
2

>  <nBondsKS>
8

>  <nBondsKD>
2

>  <RNCG>
0.79

>  <RPCG>
0.17

>  <FCSP3>
0

>  <SZ>
6.33

>  <Sm>
5.84

>  <Sv>
6.34

>  <Sse>
10.99

>  <Sp>
6.88

>  <Si>
12.46

>  <MZ>
0.58

>  <Mm>
0.53

>  <Mv>
0.58

>  <Mse>
1

>  <Mp>
0.63

>  <Mi>
1.13

>  <NsCH3>
0

>  <NdCH2>
2

>  <NssCH2>
0

>  <NtCH>
0

>  <NdsCH>
2

>  <NaaCH>
0

>  <NsssCH>
0

>  <NddC>
0

>  <NtsC>
0

>  <NdssC>
0

>  <NaasC>
0

>  <NaaaC>
0

>  <NssssC>
0

>  <NsNH3>
0

>  <NsNH2>
0

>  <NssNH2>
0

>  <NdNH>
0

>  <NssNH>
0

>  <NaaNH>
0

>  <NtN>
0

>  <NsssNH>
0

>  <NdsN>
0

>  <NaaN>
0

>  <NsssN>
0

>  <NddsN>
0

>  <NaasN>
0

>  <NssssN>
0

>  <NsOH>
0

>  <NdO>
0

>  <NssO>
1

>  <NaaO>
0

>  <NsF>
0

>  <NsSiH3>
0

>  <NssSiH2>
0

>  <NsssSiH>
0

>  <NssssSi>
0

>  <NsPH2>
0

>  <NssPH>
0

>  <NsssP>
0

>  <NdsssP>
0

>  <NsssssP>
0

>  <NsSH>
0

>  <NdS>
0

>  <NssS>
0

>  <NaaS>
0

>  <NdssS>
0

>  <NddssS>
0

>  <NsCl>
0

>  <NsBr>
0

>  <NsI>
0

>  <fragCpx>
4.01

>  <fMF>
0

>  <nHBAcc>
1

>  <nHBDon>
0

>  <Kier1>
5

>  <Kier2>
4

>  <Lipinski>
1

>  <GhoseFilter>
0

>  <FilterItLogS>
-0.37

>  <VMcGowan>
64.49

>  <LabuteASA>
31.57

>  <PEOE_VSA1>
4.74

>  <PEOE_VSA2>
0

>  <PEOE_VSA3>
0

>  <PEOE_VSA4>
0

>  <PEOE_VSA5>
0

>  <PEOE_VSA6>
13.16

>  <PEOE_VSA7>
0

>  <PEOE_VSA8>
0

>  <PEOE_VSA9>
12.52

>  <PEOE_VSA10>
0

>  <PEOE_VSA11>
0

>  <PEOE_VSA12>
0

>  <PEOE_VSA13>
0

>  <SMR_VSA1>
4.74

>  <SMR_VSA2>
0

>  <SMR_VSA3>
0

>  <SMR_VSA4>
0

>  <SMR_VSA5>
0

>  <SMR_VSA6>
0

>  <SMR_VSA7>
25.68

>  <SMR_VSA8>
0

>  <SMR_VSA9>
0

>  <SlogP_VSA1>
0

>  <SlogP_VSA2>
0

>  <SlogP_VSA3>
4.74

>  <SlogP_VSA4>
0

>  <SlogP_VSA5>
0

>  <SlogP_VSA6>
25.68

>  <SlogP_VSA7>
0

>  <SlogP_VSA8>
0

>  <SlogP_VSA9>
0

>  <SlogP_VSA10>
0

>  <SlogP_VSA11>
0

>  <EState_VSA1>
0

>  <EState_VSA2>
0

>  <EState_VSA3>
0

>  <EState_VSA4>
0

>  <EState_VSA5>
12.52

>  <EState_VSA6>
0

>  <EState_VSA7>
0

>  <EState_VSA8>
17.89

>  <EState_VSA9>
0

>  <EState_VSA10>
0

>  <VSA_EState1>
4.36

>  <VSA_EState2>
0

>  <VSA_EState3>
0

>  <VSA_EState4>
0

>  <VSA_EState5>
0

>  <VSA_EState6>
0

>  <VSA_EState7>
2.63

>  <VSA_EState8>
6.51

>  <VSA_EState9>
0

>  <apol>
11.48

>  <bpol>
7.76

>  <nRing>
0

>  <nHRing>
0

>  <naRing>
0

>  <naHRing>
0

>  <nARing 2>
0

>  <nAHRing 2>
0

>  <nFRing>
0

>  <nFHRing>
0

>  <nFaRing>
0

>  <nFaHRing>
0

>  <nFARing 2>
0

>  <nFAHRing 2>
0

>  <nRot>
2

>  <SLogP>
1.29

>  <SMR>
21.48

>  <TopoPSA(NO)>
9.23

>  <TopoPSA>
9.23

>  <JGI1>
0.13

>  <JGI2>
0.07

>  <JGI3>
0.06

>  <JGI4>
0

>  <JGI5>
0

>  <Diameter>
4

>  <Radius>
2

>  <TMWC10>
52.65

>  <TSRW10>
25.58

>  <MW>
70.04

>  <AMW>
6.37

>  <WPath>
20

>  <WPol>
2

>  <Zagreb1>
14

>  <Zagreb2>
12

>  <mZagreb2>
1.5

>  <yes>


>  <nAR-cont>
0.336376

>  <nHA-cont>
0

>  <MWHBN>
0.119488726

>  <MWHBN-cont>
0.827163274

>  <TPSA-cont>
0.935568869

>  <pka_cont>
0.97

>  <yes.1>


>  <BBB_SCORE>
3.933258647

>  <MMFF94 Energy>
6.2795

$$$$
Compound 428
Actelion Java MolfileCreator 2.0

  0  0  0  0  0  0              0 V3000
M  V30 BEGIN CTAB
M  V30 COUNTS 34 34 0 0 0
M  V30 BEGIN ATOM
M  V30 1 O 3.9168 0.9389 -2.5837 0
M  V30 2 C 2.908 0.8203 -1.8972 0
M  V30 3 N 2.9154 0.1241 -0.7326 0
M  V30 4 N 1.7146 1.3364 -2.2873 0
M  V30 5 C 1.8364 -0.1172 0.0677 0
M  V30 6 C 0.528 1.2411 -1.6165 0
M  V30 7 O 1.9306 -0.9463 0.9716 0
M  V30 8 C 0.5842 0.731 -0.1755 0
M  V30 9 O -0.498 1.6425 -2.1614 0
M  V30 10 C -0.6922 -0.1182 0.1902 0 CFG=2
M  V30 11 C 0.7566 2.0155 0.6971 0
M  V30 12 C -0.861 -1.3321 -0.7666 0
M  V30 13 C -1.999 0.6892 0.2693 0
M  V30 14 C 0.7367 1.8048 2.208 0
M  V30 15 C -1.9661 -2.3294 -0.3959 0
M  V30 16 C -1.7685 -2.9837 0.9622 0
M  V30 17 H 3.7739 -0.355 -0.4989 0
M  V30 18 H 1.6871 1.7703 -3.1996 0
M  V30 19 H -0.5275 -0.5226 1.1969 0
M  V30 20 H -0.0174 2.7496 0.439 0
M  V30 21 H 1.7075 2.506 0.4461 0
M  V30 22 H -1.0702 -0.9719 -1.7812 0
M  V30 23 H 0.0816 -1.8881 -0.83 0
M  V30 24 H -1.8931 1.5974 0.867 0
M  V30 25 H -2.3688 0.9726 -0.7197 0
M  V30 26 H -2.7858 0.0991 0.7513 0
M  V30 27 H 0.8583 2.7678 2.7154 0
M  V30 28 H -0.2062 1.3719 2.5512 0
M  V30 29 H 1.5552 1.1583 2.5362 0
M  V30 30 H -2.9493 -1.8487 -0.4346 0
M  V30 31 H -1.9821 -3.1173 -1.1589 0
M  V30 32 H -2.5149 -3.7705 1.1116 0
M  V30 33 H -0.7763 -3.4393 1.0389 0
M  V30 34 H -1.8836 -2.2625 1.7764 0
M  V30 END ATOM
M  V30 BEGIN BOND
M  V30 1 2 1 2
M  V30 2 1 2 3
M  V30 3 1 2 4
M  V30 4 1 3 5
M  V30 5 1 4 6
M  V30 6 2 5 7
M  V30 7 1 5 8
M  V30 8 2 6 9
M  V30 9 1 8 10
M  V30 10 1 8 11
M  V30 11 1 10 12
M  V30 12 1 10 13
M  V30 13 1 11 14
M  V30 14 1 12 15
M  V30 15 1 15 16
M  V30 16 1 6 8
M  V30 17 1 3 17
M  V30 18 1 4 18
M  V30 19 1 10 19
M  V30 20 1 11 20
M  V30 21 1 11 21
M  V30 22 1 12 22
M  V30 23 1 12 23
M  V30 24 1 13 24
M  V30 25 1 13 25
M  V30 26 1 13 26
M  V30 27 1 14 27
M  V30 28 1 14 28
M  V30 29 1 14 29
M  V30 30 1 15 30
M  V30 31 1 15 31
M  V30 32 1 16 32
M  V30 33 1 16 33
M  V30 34 1 16 34
M  V30 END BOND
M  V30 BEGIN COLLECTION
M  V30 MDLV30/STERAC1 ATOMS=(1 10)
M  V30 END COLLECTION
M  V30 END CTAB
M  END
>  <Column 1>
531

>  <level_0>
599

>  <index>
599

>  <Unnamed: 0>
599

>  <NO.>
609

>  <Name>
pentobarbital

>  <IUPAC_name>
5-ethyl-5-pentan-2-yl-1-3-diazinane-2-4-6-trione

>  <SMILES>
CCCC(C)C1(CC)C(=O)NC(=O)NC1=O

>  <CID>
4737

>  <logBB>
0.1

>  <BBB+/BBB->
BBB+

>  <Inchi>
InChI=1S/C11H18N2O3/c1-4-6-7(3)11(5-2)8(14)12-10(16)13-9(11)15/h7H-4-6H2-1-3H3-(H2-12-13-14-15-16)

>  <threshold>


>  <reference>
R40|R8|R21|R27|R43|R2|R2|R27|R5|R39|R3|R11|R12|R17|R18|R25|R26|R27|R35|R36|R44|R47|R49|R49|R38|R41|R3|

>  <group>
A

>  <Class>
1

>  <ABC>
11.57

>  <ABCGG>
11.41

>  <nAcid>
0

>  <nBase>
0

>  <nAromAtom>
0

>  <nAromBond>
0

>  <nAtom>
34

>  <nHeavyAtom>
16

>  <nSpiro>
0

>  <nBridgehead>
0

>  <nHetero>
5

>  <nN>
2

>  <nO>
3

>  <nF>
0

>  <BalabanJ>
2.9

>  <BertzCT>
305.19

>  <nBonds>
34

>  <nBondsO>
16

>  <nBondsS>
31

>  <nBondsD>
3

>  <nBondsT>
0

>  <nBondsA>
0

>  <nBondsM>
3

>  <nBondsKS>
31

>  <nBondsKD>
3

>  <RNCG>
0.16

>  <RPCG>
0.19

>  <FCSP3>
0.73

>  <SZ>
20.33

>  <Sm>
18.84

>  <Sv>
19.54

>  <Sse>
34.31

>  <Sp>
20.95

>  <Si>
38.95

>  <MZ>
0.6

>  <Mm>
0.55

>  <Mv>
0.57

>  <Mse>
1.01

>  <Mp>
0.62

>  <Mi>
1.15

>  <NsCH3>
3

>  <NdCH2>
0

>  <NssCH2>
3

>  <NtCH>
0

>  <NdsCH>
0

>  <NaaCH>
0

>  <NsssCH>
1

>  <NddC>
0

>  <NtsC>
0

>  <NdssC>
3

>  <NaasC>
0

>  <NaaaC>
0

>  <NssssC>
1

>  <NsNH3>
0

>  <NsNH2>
0

>  <NssNH2>
0

>  <NdNH>
0

>  <NssNH>
2

>  <NaaNH>
0

>  <NtN>
0

>  <NsssNH>
0

>  <NdsN>
0

>  <NaaN>
0

>  <NsssN>
0

>  <NddsN>
0

>  <NaasN>
0

>  <NssssN>
0

>  <NsOH>
0

>  <NdO>
3

>  <NssO>
0

>  <NaaO>
0

>  <NsF>
0

>  <NsSiH3>
0

>  <NssSiH2>
0

>  <NsssSiH>
0

>  <NssssSi>
0

>  <NsPH2>
0

>  <NssPH>
0

>  <NsssP>
0

>  <NdsssP>
0

>  <NsssssP>
0

>  <NsSH>
0

>  <NdS>
0

>  <NssS>
0

>  <NaaS>
0

>  <NdssS>
0

>  <NddssS>
0

>  <NsCl>
0

>  <NsBr>
0

>  <NsI>
0

>  <fragCpx>
16.05

>  <fMF>
0.18

>  <nHBAcc>
3

>  <nHBDon>
2

>  <Kier1>
14.06

>  <Kier2>
5.56

>  <Lipinski>
1

>  <GhoseFilter>
1

>  <FilterItLogS>
-3.18

>  <VMcGowan>
179.66

>  <LabuteASA>
94.97

>  <PEOE_VSA1>
0

>  <PEOE_VSA2>
20.22

>  <PEOE_VSA3>
4.79

>  <PEOE_VSA4>
0

>  <PEOE_VSA5>
0

>  <PEOE_VSA6>
27.19

>  <PEOE_VSA7>
18.76

>  <PEOE_VSA8>
0

>  <PEOE_VSA9>
0

>  <PEOE_VSA10>
5.41

>  <PEOE_VSA11>
0

>  <PEOE_VSA12>
11.81

>  <PEOE_VSA13>
0

>  <SMR_VSA1>
14.38

>  <SMR_VSA2>
0

>  <SMR_VSA3>
10.63

>  <SMR_VSA4>
11.33

>  <SMR_VSA5>
40.03

>  <SMR_VSA6>
0

>  <SMR_VSA7>
0

>  <SMR_VSA8>
0

>  <SMR_VSA9>
0

>  <SlogP_VSA1>
10.63

>  <SlogP_VSA2>
17.85

>  <SlogP_VSA3>
9.59

>  <SlogP_VSA4>
11.33

>  <SlogP_VSA5>
40.03

>  <SlogP_VSA6>
0

>  <SlogP_VSA7>
0

>  <SlogP_VSA8>
0

>  <SlogP_VSA9>
0

>  <SlogP_VSA10>
4.79

>  <SlogP_VSA11>
0

>  <EState_VSA1>
23.26

>  <EState_VSA2>
5.92

>  <EState_VSA3>
6.42

>  <EState_VSA4>
12.84

>  <EState_VSA5>
0

>  <EState_VSA6>
6.92

>  <EState_VSA7>
13.85

>  <EState_VSA8>
10.63

>  <EState_VSA9>
0

>  <EState_VSA10>
14.38

>  <VSA_EState1>
0

>  <VSA_EState2>
34.79

>  <VSA_EState3>
4.36

>  <VSA_EState4>
-1.09

>  <VSA_EState5>
-1.01

>  <VSA_EState6>
-0.72

>  <VSA_EState7>
2.08

>  <VSA_EState8>
5.67

>  <VSA_EState9>
0

>  <apol>
34.98

>  <bpol>
21.8

>  <nRing>
1

>  <nHRing>
1

>  <naRing>
0

>  <naHRing>
0

>  <nARing 2>
1

>  <nAHRing 2>
1

>  <nFRing>
0

>  <nFHRing>
0

>  <nFaRing>
0

>  <nFaHRing>
0

>  <nFARing 2>
0

>  <nFAHRing 2>
0

>  <nRot>
4

>  <SLogP>
1.19

>  <SMR>
58.48

>  <TopoPSA(NO)>
75.27

>  <TopoPSA>
75.27

>  <JGI1>
0.31

>  <JGI2>
0.14

>  <JGI3>
0.09

>  <JGI4>
0.04

>  <JGI5>
0.04

>  <Diameter>
8

>  <Radius>
4

>  <TMWC10>
103.73

>  <TSRW10>
48.75

>  <MW>
226.13

>  <AMW>
6.65

>  <WPath>
398

>  <WPol>
29

>  <Zagreb1>
78

>  <Zagreb2>
94

>  <mZagreb2>
3.79

>  <yes>


>  <nAR-cont>
0.816016

>  <nHA-cont>
0.954961865

>  <MWHBN>
0.332499436

>  <MWHBN-cont>
0.734040072

>  <TPSA-cont>
0.47456866

>  <pka_cont>
0.97

>  <yes.1>


>  <BBB_SCORE>
4.306175294

>  <MMFF94 Energy>
-119.56

$$$$
Compound 429
Actelion Java MolfileCreator 2.0

  0  0  0  0  0  0              0 V3000
M  V30 BEGIN CTAB
M  V30 COUNTS 35 37 0 0 0
M  V30 BEGIN ATOM
M  V30 1 F 0.4048 0.8098 3.5669 0
M  V30 2 C 0.7612 -0.3899 3.0865 0
M  V30 3 C 0.3628 -0.8007 1.8153 0
M  V30 4 C 1.5832 -1.2033 3.8613 0
M  V30 5 C -0.5128 0.0686 0.9943 0
M  V30 6 C 0.7816 -2.0375 1.3121 0
M  V30 7 C 2.0052 -2.4372 3.3633 0
M  V30 8 N -1.676 0.3598 1.4689 0
M  V30 9 C 0.0079 0.5336 -0.3224 0
M  V30 10 C 1.6048 -2.8538 2.091 0
M  V30 11 C -2.5708 1.1953 0.6645 0
M  V30 12 C -0.7896 0.5163 -1.4833 0
M  V30 13 C 1.3296 1.012 -0.3734 0
M  V30 14 C -3.0748 0.3813 -0.5198 0
M  V30 15 N -2.1296 0.0376 -1.4899 0
M  V30 16 C -0.2358 0.9852 -2.6884 0
M  V30 17 C 1.8583 1.4663 -1.5868 0
M  V30 18 O -4.2638 0.0675 -0.618 0
M  V30 19 C -2.5705 -0.7935 -2.6005 0
M  V30 20 C 1.0793 1.4558 -2.7466 0
M  V30 21 N 3.2401 1.961 -1.6413 0 CHG=1
M  V30 22 O 3.9201 1.8789 -0.6094 0
M  V30 23 O 3.6426 2.4237 -2.7173 0 CHG=-1
M  V30 24 H 1.8914 -0.8685 4.8473 0
M  V30 25 H 0.4572 -2.3785 0.3327 0
M  V30 26 H 2.6442 -3.0762 3.9688 0
M  V30 27 H 1.9286 -3.8205 1.7114 0
M  V30 28 H -2.1021 2.1296 0.3362 0
M  V30 29 H -3.4329 1.4742 1.2803 0
M  V30 30 H 1.9327 1.0472 0.5324 0
M  V30 31 H -0.8297 1.0074 -3.6006 0
M  V30 32 H -3.3787 -1.4614 -2.2859 0
M  V30 33 H -2.949 -0.1479 -3.3991 0
M  V30 34 H -1.7449 -1.4099 -2.9702 0
M  V30 35 H 1.4723 1.8136 -3.6971 0
M  V30 END ATOM
M  V30 BEGIN BOND
M  V30 1 1 1 2
M  V30 2 2 2 3
M  V30 3 1 2 4
M  V30 4 1 3 5
M  V30 5 1 3 6
M  V30 6 2 4 7
M  V30 7 2 5 8
M  V30 8 1 5 9
M  V30 9 2 6 10
M  V30 10 1 8 11
M  V30 11 2 9 12
M  V30 12 1 9 13
M  V30 13 1 11 14
M  V30 14 1 12 15
M  V30 15 1 12 16
M  V30 16 2 13 17
M  V30 17 2 14 18
M  V30 18 1 15 19
M  V30 19 2 16 20
M  V30 20 1 17 21
M  V30 21 2 21 22
M  V30 22 1 21 23
M  V30 23 1 7 10
M  V30 24 1 14 15
M  V30 25 1 17 20
M  V30 26 1 4 24
M  V30 27 1 6 25
M  V30 28 1 7 26
M  V30 29 1 10 27
M  V30 30 1 11 28
M  V30 31 1 11 29
M  V30 32 1 13 30
M  V30 33 1 16 31
M  V30 34 1 19 32
M  V30 35 1 19 33
M  V30 36 1 19 34
M  V30 37 1 20 35
M  V30 END BOND
M  V30 END CTAB
M  END
>  <Column 1>
532

>  <level_0>
600

>  <index>
600

>  <Unnamed: 0>
600

>  <NO.>
610

>  <Name>
1622-62-4

>  <IUPAC_name>
5-(2-fluorophenyl)-1-methyl-7-nitro-3h-1-4-benzodiazepin-2-one

>  <SMILES>
CN1C(=O)CN=C(c2ccccc2F)c2cc([N+](=O)[O-])ccc21

>  <CID>
3380

>  <logBB>
0.1

>  <BBB+/BBB->
BBB+

>  <Inchi>
InChI=1S/C16H12FN3O3/c1-19-14-7-6-10(20(22)23)8-12(14)16(18-9-15(19)21)11-4-2-3-5-13(11)17/h2-8H-9H2-1H3

>  <threshold>


>  <reference>
R40|R3|R4|R11|R12|R18|R20|R25|R26|R27|R36|R38|R39|R41|R43|R44|R47|R2|R2|R8|R21|R27|R27|R5|

>  <group>
A

>  <Class>
1

>  <ABC>
17.94

>  <ABCGG>
14.94

>  <nAcid>
0

>  <nBase>
0

>  <nAromAtom>
12

>  <nAromBond>
12

>  <nAtom>
35

>  <nHeavyAtom>
23

>  <nSpiro>
0

>  <nBridgehead>
0

>  <nHetero>
7

>  <nN>
3

>  <nO>
3

>  <nF>
1

>  <BalabanJ>
1.83

>  <BertzCT>
848.21

>  <nBonds>
37

>  <nBondsO>
25

>  <nBondsS>
22

>  <nBondsD>
3

>  <nBondsT>
0

>  <nBondsA>
12

>  <nBondsM>
15

>  <nBondsKS>
28

>  <nBondsKD>
9

>  <RNCG>
0.17

>  <RPCG>
0.15

>  <FCSP3>
0.13

>  <SZ>
27

>  <Sm>
26.08

>  <Sv>
24.32

>  <Sse>
36.27

>  <Sp>
24.54

>  <Si>
39.54

>  <MZ>
0.77

>  <Mm>
0.75

>  <Mv>
0.69

>  <Mse>
1.04

>  <Mp>
0.7

>  <Mi>
1.13

>  <NsCH3>
1

>  <NdCH2>
0

>  <NssCH2>
1

>  <NtCH>
0

>  <NdsCH>
0

>  <NaaCH>
7

>  <NsssCH>
0

>  <NddC>
0

>  <NtsC>
0

>  <NdssC>
2

>  <NaasC>
5

>  <NaaaC>
0

>  <NssssC>
0

>  <NsNH3>
0

>  <NsNH2>
0

>  <NssNH2>
0

>  <NdNH>
0

>  <NssNH>
0

>  <NaaNH>
0

>  <NtN>
0

>  <NsssNH>
0

>  <NdsN>
1

>  <NaaN>
0

>  <NsssN>
1

>  <NddsN>
1

>  <NaasN>
0

>  <NssssN>
0

>  <NsOH>
0

>  <NdO>
2

>  <NssO>
0

>  <NaaO>
0

>  <NsF>
1

>  <NsSiH3>
0

>  <NssSiH2>
0

>  <NsssSiH>
0

>  <NssssSi>
0

>  <NsPH2>
0

>  <NssPH>
0

>  <NsssP>
0

>  <NdsssP>
0

>  <NsssssP>
0

>  <NsSH>
0

>  <NdS>
0

>  <NssS>
0

>  <NaaS>
0

>  <NdssS>
0

>  <NddssS>
0

>  <NsCl>
0

>  <NsBr>
0

>  <NsI>
0

>  <fragCpx>
119.07

>  <fMF>
0.49

>  <nHBAcc>
4

>  <nHBDon>
0

>  <Kier1>
17.81

>  <Kier2>
7.49

>  <Lipinski>
1

>  <GhoseFilter>
1

>  <FilterItLogS>
-4.6

>  <VMcGowan>
214.33

>  <LabuteASA>
130.58

>  <PEOE_VSA1>
4.9

>  <PEOE_VSA2>
19.9

>  <PEOE_VSA3>
4.39

>  <PEOE_VSA4>
0

>  <PEOE_VSA5>
0

>  <PEOE_VSA6>
12.13

>  <PEOE_VSA7>
18.2

>  <PEOE_VSA8>
30.31

>  <PEOE_VSA9>
16.32

>  <PEOE_VSA10>
12.36

>  <PEOE_VSA11>
0

>  <PEOE_VSA12>
5.91

>  <PEOE_VSA13>
5.69

>  <SMR_VSA1>
14.11

>  <SMR_VSA2>
0

>  <SMR_VSA3>
0

>  <SMR_VSA4>
4.99

>  <SMR_VSA5>
0

>  <SMR_VSA6>
18.49

>  <SMR_VSA7>
69.52

>  <SMR_VSA8>
0

>  <SMR_VSA9>
0

>  <SlogP_VSA1>
4.9

>  <SlogP_VSA2>
30.13

>  <SlogP_VSA3>
4.79

>  <SlogP_VSA4>
15.93

>  <SlogP_VSA5>
11.13

>  <SlogP_VSA6>
47.46

>  <SlogP_VSA7>
0

>  <SlogP_VSA8>
0

>  <SlogP_VSA9>
0

>  <SlogP_VSA10>
15.77

>  <SlogP_VSA11>
0

>  <EState_VSA1>
10.74

>  <EState_VSA2>
29.41

>  <EState_VSA3>
11.25

>  <EState_VSA4>
0

>  <EState_VSA5>
35.23

>  <EState_VSA6>
19.18

>  <EState_VSA7>
0

>  <EState_VSA8>
4.99

>  <EState_VSA9>
0

>  <EState_VSA10>
19.3

>  <VSA_EState1>
14.14

>  <VSA_EState2>
28.11

>  <VSA_EState3>
11.04

>  <VSA_EState4>
1.12

>  <VSA_EState5>
-0.77

>  <VSA_EState6>
10.11

>  <VSA_EState7>
0

>  <VSA_EState8>
-0.15

>  <VSA_EState9>
1.56

>  <apol>
40.98

>  <bpol>
18.04

>  <nRing>
3

>  <nHRing>
1

>  <naRing>
2

>  <naHRing>
0

>  <nARing 2>
1

>  <nAHRing 2>
1

>  <nFRing>
1

>  <nFHRing>
1

>  <nFaRing>
0

>  <nFaHRing>
0

>  <nFARing 2>
1

>  <nFAHRing 2>
1

>  <nRot>
2

>  <SLogP>
2.55

>  <SMR>
83.41

>  <TopoPSA(NO)>
75.81

>  <TopoPSA>
75.81

>  <JGI1>
0.18

>  <JGI2>
0.1

>  <JGI3>
0.05

>  <JGI4>
0.04

>  <JGI5>
0.03

>  <Diameter>
9

>  <Radius>
5

>  <TMWC10>
123.37

>  <TSRW10>
65.66

>  <MW>
313.09

>  <AMW>
8.95

>  <WPath>
1063

>  <WPol>
43

>  <Zagreb1>
122

>  <Zagreb2>
146

>  <mZagreb2>
5.03

>  <yes>


>  <nAR-cont>
0.816016

>  <nHA-cont>
0.967789328

>  <MWHBN>
0.226060869

>  <MWHBN-cont>
0.990440586

>  <TPSA-cont>
0.470799125

>  <pka_cont>
0.97

>  <yes.1>


>  <BBB_SCORE>
4.696064456

>  <MMFF94 Energy>
141.52

$$$$
Compound 430
Actelion Java MolfileCreator 2.0

  0  0  0  0  0  0              0 V3000
M  V30 BEGIN CTAB
M  V30 COUNTS 17 17 0 0 0
M  V30 BEGIN ATOM
M  V30 1 O 2.0428 2.0428 -0.9424 0
M  V30 2 C 1.379 1.6665 0.0048 0
M  V30 3 O 1.462 2.2961 1.1959 0
M  V30 4 C 0.428 0.5292 0.0168 0
M  V30 5 C -0.3117 0.1412 1.1433 0
M  V30 6 C 0.274 -0.187 -1.1775 0
M  V30 7 O -0.2369 0.7706 2.3562 0
M  V30 8 C -1.1888 -0.9422 1.0769 0
M  V30 9 C -0.6033 -1.2658 -1.2325 0
M  V30 10 C -1.3371 -1.6507 -0.1153 0
M  V30 11 O -0.7168 -1.9293 -2.4176 0
M  V30 12 H 2.1192 3.0066 1.0175 0
M  V30 13 H 0.8347 0.091 -2.0673 0
M  V30 14 H 0.407 1.5049 2.267 0
M  V30 15 H -1.756 -1.2319 1.958 0
M  V30 16 H -2.0233 -2.4911 -0.1511 0
M  V30 17 H -1.357 -2.6527 -2.3143 0
M  V30 END ATOM
M  V30 BEGIN BOND
M  V30 1 2 1 2
M  V30 2 1 2 3
M  V30 3 1 2 4
M  V30 4 2 4 5
M  V30 5 1 4 6
M  V30 6 1 5 7
M  V30 7 1 5 8
M  V30 8 2 6 9
M  V30 9 2 8 10
M  V30 10 1 9 11
M  V30 11 1 9 10
M  V30 12 1 3 12
M  V30 13 1 6 13
M  V30 14 1 7 14
M  V30 15 1 8 15
M  V30 16 1 10 16
M  V30 17 1 11 17
M  V30 END BOND
M  V30 END CTAB
M  END
>  <Column 1>
534

>  <level_0>
603

>  <index>
603

>  <Unnamed: 0>
603

>  <NO.>
613

>  <Name>
2-5-dihydroxybenzoic acid

>  <IUPAC_name>
2-carboxy-4-hydroxyphenolate

>  <SMILES>
O=C(O)c1cc(O)ccc1O

>  <CID>
3469

>  <logBB>
0.1

>  <BBB+/BBB->
BBB+

>  <Inchi>
InChI=1S/C7H6O4/c8-4-1-2-6(9)5(3-4)7(10)11/h1-3-8-9H-(H-10-11)

>  <threshold>


>  <reference>
R40|R12|R25|R35|R47|R2|R2|R27|R21|R27|R43|R8|R5|R39|

>  <group>
A

>  <Class>
1

>  <ABC>
8.13

>  <ABCGG>
7.81

>  <nAcid>
1

>  <nBase>
0

>  <nAromAtom>
6

>  <nAromBond>
6

>  <nAtom>
17

>  <nHeavyAtom>
11

>  <nSpiro>
0

>  <nBridgehead>
0

>  <nHetero>
4

>  <nN>
0

>  <nO>
4

>  <nF>
0

>  <BalabanJ>
2.47

>  <BertzCT>
292.49

>  <nBonds>
17

>  <nBondsO>
11

>  <nBondsS>
10

>  <nBondsD>
1

>  <nBondsT>
0

>  <nBondsA>
6

>  <nBondsM>
7

>  <nBondsKS>
13

>  <nBondsKD>
4

>  <RNCG>
0.29

>  <RPCG>
0.19

>  <FCSP3>
0

>  <SZ>
13.33

>  <Sm>
12.83

>  <Sv>
11.48

>  <Sse>
17.99

>  <Sp>
11.32

>  <Si>
19.08

>  <MZ>
0.78

>  <Mm>
0.75

>  <Mv>
0.68

>  <Mse>
1.06

>  <Mp>
0.67

>  <Mi>
1.12

>  <NsCH3>
0

>  <NdCH2>
0

>  <NssCH2>
0

>  <NtCH>
0

>  <NdsCH>
0

>  <NaaCH>
3

>  <NsssCH>
0

>  <NddC>
0

>  <NtsC>
0

>  <NdssC>
1

>  <NaasC>
3

>  <NaaaC>
0

>  <NssssC>
0

>  <NsNH3>
0

>  <NsNH2>
0

>  <NssNH2>
0

>  <NdNH>
0

>  <NssNH>
0

>  <NaaNH>
0

>  <NtN>
0

>  <NsssNH>
0

>  <NdsN>
0

>  <NaaN>
0

>  <NsssN>
0

>  <NddsN>
0

>  <NaasN>
0

>  <NssssN>
0

>  <NsOH>
3

>  <NdO>
1

>  <NssO>
0

>  <NaaO>
0

>  <NsF>
0

>  <NsSiH3>
0

>  <NssSiH2>
0

>  <NsssSiH>
0

>  <NssssSi>
0

>  <NsPH2>
0

>  <NssPH>
0

>  <NsssP>
0

>  <NdsssP>
0

>  <NsssssP>
0

>  <NsSH>
0

>  <NdS>
0

>  <NssS>
0

>  <NaaS>
0

>  <NdssS>
0

>  <NddssS>
0

>  <NsCl>
0

>  <NsBr>
0

>  <NsI>
0

>  <fragCpx>
11.04

>  <fMF>
0.35

>  <nHBAcc>
3

>  <nHBDon>
3

>  <Kier1>
9.09

>  <Kier2>
3.6

>  <Lipinski>
1

>  <GhoseFilter>
0

>  <FilterItLogS>
-0.15

>  <VMcGowan>
104.91

>  <LabuteASA>
62.34

>  <PEOE_VSA1>
15.32

>  <PEOE_VSA2>
0

>  <PEOE_VSA3>
4.79

>  <PEOE_VSA4>
0

>  <PEOE_VSA5>
0

>  <PEOE_VSA6>
0

>  <PEOE_VSA7>
18.2

>  <PEOE_VSA8>
0

>  <PEOE_VSA9>
0

>  <PEOE_VSA10>
17.06

>  <PEOE_VSA11>
0

>  <PEOE_VSA12>
0

>  <PEOE_VSA13>
0

>  <SMR_VSA1>
20.11

>  <SMR_VSA2>
0

>  <SMR_VSA3>
0

>  <SMR_VSA4>
0

>  <SMR_VSA5>
0

>  <SMR_VSA6>
0

>  <SMR_VSA7>
23.76

>  <SMR_VSA8>
0

>  <SMR_VSA9>
11.5

>  <SlogP_VSA1>
0

>  <SlogP_VSA2>
21.29

>  <SlogP_VSA3>
0

>  <SlogP_VSA4>
0

>  <SlogP_VSA5>
10.36

>  <SlogP_VSA6>
18.2

>  <SlogP_VSA7>
0

>  <SlogP_VSA8>
0

>  <SlogP_VSA9>
0

>  <SlogP_VSA10>
0

>  <SlogP_VSA11>
11.5

>  <EState_VSA1>
5.97

>  <EState_VSA2>
17.06

>  <EState_VSA3>
0

>  <EState_VSA4>
12.13

>  <EState_VSA5>
6.07

>  <EState_VSA6>
0

>  <EState_VSA7>
0

>  <EState_VSA8>
0

>  <EState_VSA9>
15.32

>  <EState_VSA10>
4.79

>  <VSA_EState1>
0

>  <VSA_EState2>
10.3

>  <VSA_EState3>
26.14

>  <VSA_EState4>
-0.3

>  <VSA_EState5>
-1.8

>  <VSA_EState6>
3.32

>  <VSA_EState7>
0

>  <VSA_EState8>
0

>  <VSA_EState9>
0

>  <apol>
18.9

>  <bpol>
6.89

>  <nRing>
1

>  <nHRing>
0

>  <naRing>
1

>  <naHRing>
0

>  <nARing 2>
0

>  <nAHRing 2>
0

>  <nFRing>
0

>  <nFHRing>
0

>  <nFaRing>
0

>  <nFaHRing>
0

>  <nFARing 2>
0

>  <nFAHRing 2>
0

>  <nRot>
1

>  <SLogP>
0.8

>  <SMR>
36.73

>  <TopoPSA(NO)>
77.76

>  <TopoPSA>
77.76

>  <JGI1>
0.27

>  <JGI2>
0.1

>  <JGI3>
0.07

>  <JGI4>
0.07

>  <JGI5>
0.03

>  <Diameter>
5

>  <Radius>
3

>  <TMWC10>
87.46

>  <TSRW10>
41.03

>  <MW>
154.03

>  <AMW>
9.06

>  <WPath>
148

>  <WPol>
14

>  <Zagreb1>
52

>  <Zagreb2>
58

>  <mZagreb2>
2.47

>  <yes>


>  <nAR-cont>
0.336376

>  <nHA-cont>
0.720786536

>  <MWHBN>
0.483446692

>  <MWHBN-cont>
0

>  <TPSA-cont>
0.457186914

>  <pka_cont>
0.97

>  <yes.1>


>  <BBB_SCORE>
2.456536364

>  <MMFF94 Energy>
-7.3347

$$$$
Compound 431
Actelion Java MolfileCreator 2.0

  0  0  0  0  0  0              0 V3000
M  V30 BEGIN CTAB
M  V30 COUNTS 13 12 0 0 0
M  V30 BEGIN ATOM
M  V30 1 F 2.0547 0.4738 -1.8174 0
M  V30 2 C 2.0381 0.0801 -0.525 0
M  V30 3 F 2.5879 1.0634 0.2208 0
M  V30 4 F 2.85 -1.0006 -0.4249 0
M  V30 5 C 0.6354 -0.2722 -0.056 0
M  V30 6 O -0.2345 0.8623 -0.1567 0
M  V30 7 C -1.5319 0.6931 0.2321 0
M  V30 8 C -2.1359 -0.4013 0.7075 0
M  V30 9 H 0.2508 -1.0873 -0.6798 0
M  V30 10 H 0.687 -0.6049 0.9872 0
M  V30 11 H -2.0683 1.6283 0.1015 0
M  V30 12 H -1.6321 -1.3488 0.8502 0
M  V30 13 H -3.1887 -0.363 0.9722 0
M  V30 END ATOM
M  V30 BEGIN BOND
M  V30 1 1 1 2
M  V30 2 1 2 3
M  V30 3 1 2 4
M  V30 4 1 2 5
M  V30 5 1 5 6
M  V30 6 1 6 7
M  V30 7 2 7 8
M  V30 8 1 5 9
M  V30 9 1 5 10
M  V30 10 1 7 11
M  V30 11 1 8 12
M  V30 12 1 8 13
M  V30 END BOND
M  V30 END CTAB
M  END
>  <Column 1>
535

>  <level_0>
606

>  <index>
606

>  <Unnamed: 0>
606

>  <NO.>
616

>  <Name>
fluoromar

>  <IUPAC_name>
2-ethenoxy-1-1-1-trifluoroethane

>  <SMILES>
C=COCC(F)(F)F

>  <CID>
9844

>  <logBB>
0.1

>  <BBB+/BBB->
BBB+

>  <Inchi>
InChI=1S/C4H5F3O/c1-2-8-3-4(5-6)7/h2H-1-3H2

>  <threshold>


>  <reference>
R5|R2|R2|R8|R11|R12|R17|R18|R21|R22|R25|R26|R27|R27|R32|R33|R35|R36|R39|R43|R44|R46|R48|R49|R40|R3|R38|R41|R47|

>  <group>
A

>  <Class>
1

>  <ABC>
5.43

>  <ABCGG>
5.66

>  <nAcid>
0

>  <nBase>
0

>  <nAromAtom>
0

>  <nAromBond>
0

>  <nAtom>
13

>  <nHeavyAtom>
8

>  <nSpiro>
0

>  <nBridgehead>
0

>  <nHetero>
4

>  <nN>
0

>  <nO>
1

>  <nF>
3

>  <BalabanJ>
3.11

>  <BertzCT>
75.84

>  <nBonds>
12

>  <nBondsO>
7

>  <nBondsS>
11

>  <nBondsD>
1

>  <nBondsT>
0

>  <nBondsA>
0

>  <nBondsM>
1

>  <nBondsKS>
11

>  <nBondsKD>
1

>  <RNCG>
0.47

>  <RPCG>
0.4

>  <FCSP3>
0.5

>  <SZ>
10.67

>  <Sm>
10.5

>  <Sv>
8.01

>  <Sse>
14.42

>  <Sp>
7.48

>  <Si>
15.89

>  <MZ>
0.82

>  <Mm>
0.81

>  <Mv>
0.62

>  <Mse>
1.11

>  <Mp>
0.58

>  <Mi>
1.22

>  <NsCH3>
0

>  <NdCH2>
1

>  <NssCH2>
1

>  <NtCH>
0

>  <NdsCH>
1

>  <NaaCH>
0

>  <NsssCH>
0

>  <NddC>
0

>  <NtsC>
0

>  <NdssC>
0

>  <NaasC>
0

>  <NaaaC>
0

>  <NssssC>
1

>  <NsNH3>
0

>  <NsNH2>
0

>  <NssNH2>
0

>  <NdNH>
0

>  <NssNH>
0

>  <NaaNH>
0

>  <NtN>
0

>  <NsssNH>
0

>  <NdsN>
0

>  <NaaN>
0

>  <NsssN>
0

>  <NddsN>
0

>  <NaasN>
0

>  <NssssN>
0

>  <NsOH>
0

>  <NdO>
0

>  <NssO>
1

>  <NaaO>
0

>  <NsF>
3

>  <NsSiH3>
0

>  <NssSiH2>
0

>  <NsssSiH>
0

>  <NssssSi>
0

>  <NsPH2>
0

>  <NssPH>
0

>  <NsssP>
0

>  <NdsssP>
0

>  <NsssssP>
0

>  <NsSH>
0

>  <NdS>
0

>  <NssS>
0

>  <NaaS>
0

>  <NdssS>
0

>  <NddssS>
0

>  <NsCl>
0

>  <NsBr>
0

>  <NsI>
0

>  <fragCpx>
7.04

>  <fMF>
0

>  <nHBAcc>
1

>  <nHBDon>
0

>  <Kier1>
8

>  <Kier2>
3.11

>  <Lipinski>
1

>  <GhoseFilter>
0

>  <FilterItLogS>
-1.32

>  <VMcGowan>
74.07

>  <LabuteASA>
44.75

>  <PEOE_VSA1>
4.74

>  <PEOE_VSA2>
0

>  <PEOE_VSA3>
0

>  <PEOE_VSA4>
13.17

>  <PEOE_VSA5>
0

>  <PEOE_VSA6>
6.58

>  <PEOE_VSA7>
0

>  <PEOE_VSA8>
0

>  <PEOE_VSA9>
6.26

>  <PEOE_VSA10>
0

>  <PEOE_VSA11>
6.61

>  <PEOE_VSA12>
0

>  <PEOE_VSA13>
0

>  <SMR_VSA1>
17.91

>  <SMR_VSA2>
0

>  <SMR_VSA3>
0

>  <SMR_VSA4>
0

>  <SMR_VSA5>
6.18

>  <SMR_VSA6>
6.61

>  <SMR_VSA7>
12.84

>  <SMR_VSA8>
0

>  <SMR_VSA9>
0

>  <SlogP_VSA1>
0

>  <SlogP_VSA2>
12.78

>  <SlogP_VSA3>
4.74

>  <SlogP_VSA4>
0

>  <SlogP_VSA5>
0

>  <SlogP_VSA6>
12.84

>  <SlogP_VSA7>
0

>  <SlogP_VSA8>
0

>  <SlogP_VSA9>
0

>  <SlogP_VSA10>
13.17

>  <SlogP_VSA11>
0

>  <EState_VSA1>
12.78

>  <EState_VSA2>
0

>  <EState_VSA3>
0

>  <EState_VSA4>
6.26

>  <EState_VSA5>
0

>  <EState_VSA6>
0

>  <EState_VSA7>
0

>  <EState_VSA8>
11.32

>  <EState_VSA9>
0

>  <EState_VSA10>
13.17

>  <VSA_EState1>
37.05

>  <VSA_EState2>
0

>  <VSA_EState3>
0

>  <VSA_EState4>
0

>  <VSA_EState5>
0

>  <VSA_EState6>
0

>  <VSA_EState7>
-3.48

>  <VSA_EState8>
1.69

>  <VSA_EState9>
0

>  <apol>
12.49

>  <bpol>
10.09

>  <nRing>
0

>  <nHRing>
0

>  <naRing>
0

>  <naHRing>
0

>  <nARing 2>
0

>  <nAHRing 2>
0

>  <nFRing>
0

>  <nFHRing>
0

>  <nFaRing>
0

>  <nFaHRing>
0

>  <nFARing 2>
0

>  <nFAHRing 2>
0

>  <nRot>
2

>  <SLogP>
1.71

>  <SMR>
22.2

>  <TopoPSA(NO)>
9.23

>  <TopoPSA>
9.23

>  <JGI1>
0.43

>  <JGI2>
0.07

>  <JGI3>
0.08

>  <JGI4>
0.06

>  <JGI5>
0

>  <Diameter>
5

>  <Radius>
3

>  <TMWC10>
72.43

>  <TSRW10>
34.88

>  <MW>
126.03

>  <AMW>
9.69

>  <WPath>
71

>  <WPol>
5

>  <Zagreb1>
32

>  <Zagreb2>
30

>  <mZagreb2>
1.88

>  <yes>


>  <nAR-cont>
0.336376

>  <nHA-cont>
0.464727961

>  <MWHBN>
0.089076477

>  <MWHBN-cont>
0.665974174

>  <TPSA-cont>
0.935568869

>  <pka_cont>
0.97

>  <yes.1>


>  <BBB_SCORE>
4.15620296

>  <MMFF94 Energy>
40.707

$$$$
Compound 432
Actelion Java MolfileCreator 2.0

  0  0  0  0  0  0              0 V3000
M  V30 BEGIN CTAB
M  V30 COUNTS 34 35 0 0 0
M  V30 BEGIN ATOM
M  V30 1 O 3.0055 -3.2431 1.2646 0
M  V30 2 C 2.2183 -2.364 0.9283 0
M  V30 3 N 2.2235 -1.7479 -0.3029 0
M  V30 4 N 1.2638 -1.9237 1.8045 0
M  V30 5 C 1.1124 -0.8987 -0.7032 0
M  V30 6 C 3.1735 -2.1569 -1.3205 0
M  V30 7 C 0.453 -0.8217 1.6893 0
M  V30 8 C 0.6353 0.0336 0.4258 0 CFG=2
M  V30 9 O -0.313 -0.5324 2.6086 0
M  V30 10 C -0.7086 0.702 0.0374 0
M  V30 11 C 1.7616 1.0426 0.7555 0
M  V30 12 C -0.9025 2.0377 -0.0132 0
M  V30 13 C -1.8674 -0.2342 -0.2835 0
M  V30 14 C -2.1969 2.7054 -0.3863 0
M  V30 15 C -3.2435 0.4334 -0.235 0
M  V30 16 C -3.2265 1.7547 -0.9883 0
M  V30 17 H 1.2068 -2.4273 2.677 0
M  V30 18 H 1.4132 -0.3083 -1.5776 0
M  V30 19 H 0.323 -1.5878 -1.0253 0
M  V30 20 H 3.9867 -2.7516 -0.8966 0
M  V30 21 H 2.6472 -2.7561 -2.0692 0
M  V30 22 H 3.5944 -1.2647 -1.7927 0
M  V30 23 H 1.4803 1.6961 1.5901 0
M  V30 24 H 2.6873 0.5421 1.0622 0
M  V30 25 H 2.0033 1.6699 -0.1099 0
M  V30 26 H -0.106 2.7327 0.238 0
M  V30 27 H -1.7144 -0.6424 -1.29 0
M  V30 28 H -1.8828 -1.0835 0.4077 0
M  V30 29 H -1.9961 3.5127 -1.0999 0
M  V30 30 H -2.6111 3.1725 0.5153 0
M  V30 31 H -3.9934 -0.237 -0.6695 0
M  V30 32 H -3.535 0.6066 0.8086 0
M  V30 33 H -4.2189 2.2187 -0.9644 0
M  V30 34 H -2.9864 1.5707 -2.0432 0
M  V30 END ATOM
M  V30 BEGIN BOND
M  V30 1 2 1 2
M  V30 2 1 2 3
M  V30 3 1 2 4
M  V30 4 1 3 5
M  V30 5 1 3 6
M  V30 6 1 4 7
M  V30 7 1 5 8
M  V30 8 2 7 9
M  V30 9 1 8 10
M  V30 10 1 8 11
M  V30 11 2 10 12
M  V30 12 1 10 13
M  V30 13 1 12 14
M  V30 14 1 13 15
M  V30 15 1 14 16
M  V30 16 1 7 8
M  V30 17 1 15 16
M  V30 18 1 4 17
M  V30 19 1 5 18
M  V30 20 1 5 19
M  V30 21 1 6 20
M  V30 22 1 6 21
M  V30 23 1 6 22
M  V30 24 1 11 23
M  V30 25 1 11 24
M  V30 26 1 11 25
M  V30 27 1 12 26
M  V30 28 1 13 27
M  V30 29 1 13 28
M  V30 30 1 14 29
M  V30 31 1 14 30
M  V30 32 1 15 31
M  V30 33 1 15 32
M  V30 34 1 16 33
M  V30 35 1 16 34
M  V30 END BOND
M  V30 BEGIN COLLECTION
M  V30 MDLV30/STERAC1 ATOMS=(1 8)
M  V30 END COLLECTION
M  V30 END CTAB
M  END
>  <Column 1>
536

>  <level_0>
607

>  <index>
607

>  <Unnamed: 0>
607

>  <NO.>
617

>  <Name>
schembl15974503

>  <IUPAC_name>
5-(cyclohexen-1-yl)-1-5-dimethyl-1-3-diazinane-2-4-dione

>  <SMILES>
CN1CC(C)(C2=CCCCC2)C(=O)NC1=O

>  <CID>
90358929

>  <logBB>
0.1

>  <BBB+/BBB->
BBB+

>  <Inchi>
InChI=1S/C12H18N2O2/c1-12(9-6-4-3-5-7-9)8-14(2)11(16)13-10(12)15/h6H-3-5-7-8H2-1-2H3-(H-13-15-16)

>  <threshold>


>  <reference>
R18|R26|R27|

>  <group>
A

>  <Class>
1

>  <ABC>
12.34

>  <ABCGG>
10.97

>  <nAcid>
0

>  <nBase>
0

>  <nAromAtom>
0

>  <nAromBond>
0

>  <nAtom>
34

>  <nHeavyAtom>
16

>  <nSpiro>
0

>  <nBridgehead>
0

>  <nHetero>
4

>  <nN>
2

>  <nO>
2

>  <nF>
0

>  <BalabanJ>
2.09

>  <BertzCT>
362.03

>  <nBonds>
35

>  <nBondsO>
17

>  <nBondsS>
32

>  <nBondsD>
3

>  <nBondsT>
0

>  <nBondsA>
0

>  <nBondsM>
3

>  <nBondsKS>
32

>  <nBondsKD>
3

>  <RNCG>
0.22

>  <RPCG>
0.22

>  <FCSP3>
0.67

>  <SZ>
20

>  <Sm>
18.51

>  <Sv>
19.82

>  <Sse>
33.98

>  <Sp>
21.46

>  <Si>
38.74

>  <MZ>
0.59

>  <Mm>
0.54

>  <Mv>
0.58

>  <Mse>
1

>  <Mp>
0.63

>  <Mi>
1.14

>  <NsCH3>
2

>  <NdCH2>
0

>  <NssCH2>
5

>  <NtCH>
0

>  <NdsCH>
1

>  <NaaCH>
0

>  <NsssCH>
0

>  <NddC>
0

>  <NtsC>
0

>  <NdssC>
3

>  <NaasC>
0

>  <NaaaC>
0

>  <NssssC>
1

>  <NsNH3>
0

>  <NsNH2>
0

>  <NssNH2>
0

>  <NdNH>
0

>  <NssNH>
1

>  <NaaNH>
0

>  <NtN>
0

>  <NsssNH>
0

>  <NdsN>
0

>  <NaaN>
0

>  <NsssN>
1

>  <NddsN>
0

>  <NaasN>
0

>  <NssssN>
0

>  <NsOH>
0

>  <NdO>
2

>  <NssO>
0

>  <NaaO>
0

>  <NsF>
0

>  <NsSiH3>
0

>  <NssSiH2>
0

>  <NsssSiH>
0

>  <NssssSi>
0

>  <NsPH2>
0

>  <NssPH>
0

>  <NsssP>
0

>  <NdsssP>
0

>  <NsssssP>
0

>  <NsSH>
0

>  <NdS>
0

>  <NssS>
0

>  <NaaS>
0

>  <NdssS>
0

>  <NddssS>
0

>  <NsCl>
0

>  <NsBr>
0

>  <NsI>
0

>  <fragCpx>
49.04

>  <fMF>
0.35

>  <nHBAcc>
2

>  <nHBDon>
1

>  <Kier1>
12.46

>  <Kier2>
4.7

>  <Lipinski>
1

>  <GhoseFilter>
1

>  <FilterItLogS>
-2.34

>  <VMcGowan>
177.02

>  <LabuteASA>
95.69

>  <PEOE_VSA1>
4.9

>  <PEOE_VSA2>
10.11

>  <PEOE_VSA3>
4.79

>  <PEOE_VSA4>
0

>  <PEOE_VSA5>
0

>  <PEOE_VSA6>
11.65

>  <PEOE_VSA7>
32.61

>  <PEOE_VSA8>
13.59

>  <PEOE_VSA9>
5.41

>  <PEOE_VSA10>
0

>  <PEOE_VSA11>
0

>  <PEOE_VSA12>
5.91

>  <PEOE_VSA13>
0

>  <SMR_VSA1>
9.59

>  <SMR_VSA2>
0

>  <SMR_VSA3>
10.22

>  <SMR_VSA4>
5.41

>  <SMR_VSA5>
32.61

>  <SMR_VSA6>
13.59

>  <SMR_VSA7>
11.65

>  <SMR_VSA8>
0

>  <SMR_VSA9>
0

>  <SlogP_VSA1>
5.32

>  <SlogP_VSA2>
30.43

>  <SlogP_VSA3>
4.79

>  <SlogP_VSA4>
5.41

>  <SlogP_VSA5>
32.61

>  <SlogP_VSA6>
11.65

>  <SlogP_VSA7>
0

>  <SlogP_VSA8>
0

>  <SlogP_VSA9>
0

>  <SlogP_VSA10>
4.79

>  <SlogP_VSA11>
0

>  <EState_VSA1>
5.41

>  <EState_VSA2>
11.94

>  <EState_VSA3>
6.54

>  <EState_VSA4>
19.26

>  <EState_VSA5>
11.99

>  <EState_VSA6>
11.95

>  <EState_VSA7>
6.92

>  <EState_VSA8>
11.39

>  <EState_VSA9>
0

>  <EState_VSA10>
9.59

>  <VSA_EState1>
0

>  <VSA_EState2>
24.9

>  <VSA_EState3>
2.42

>  <VSA_EState4>
0.67

>  <VSA_EState5>
-0.15

>  <VSA_EState6>
-0.29

>  <VSA_EState7>
6.55

>  <VSA_EState8>
2.42

>  <VSA_EState9>
1.73

>  <apol>
35.85

>  <bpol>
22.07

>  <nRing>
2

>  <nHRing>
1

>  <naRing>
0

>  <naHRing>
0

>  <nARing 2>
2

>  <nAHRing 2>
1

>  <nFRing>
0

>  <nFHRing>
0

>  <nFaRing>
0

>  <nFaHRing>
0

>  <nFARing 2>
0

>  <nFAHRing 2>
0

>  <nRot>
1

>  <SLogP>
1.67

>  <SMR>
60.83

>  <TopoPSA(NO)>
49.41

>  <TopoPSA>
49.41

>  <JGI1>
0.26

>  <JGI2>
0.12

>  <JGI3>
0.06

>  <JGI4>
0.05

>  <JGI5>
0.03

>  <Diameter>
8

>  <Radius>
4

>  <TMWC10>
105

>  <TSRW10>
48.99

>  <MW>
222.14

>  <AMW>
6.53

>  <WPath>
402

>  <WPol>
27

>  <Zagreb1>
84

>  <Zagreb2>
100

>  <mZagreb2>
3.49

>  <yes>


>  <nAR-cont>
1

>  <nHA-cont>
0.954961865

>  <MWHBN>
0.201283359

>  <MWHBN-cont>
0.99981406

>  <TPSA-cont>
0.655087518

>  <pka_cont>
0.97

>  <yes.1>


>  <BBB_SCORE>
5.249857992

>  <MMFF94 Energy>
-62.805

$$$$
Compound 433
Actelion Java MolfileCreator 2.0

  0  0  0  0  0  0              0 V3000
M  V30 BEGIN CTAB
M  V30 COUNTS 31 32 0 0 0
M  V30 BEGIN ATOM
M  V30 1 O 1.9804 1.8218 2.9321 0
M  V30 2 C 2.1998 2.6196 2.0359 0
M  V30 3 O 2.6683 3.851 2.3393 0
M  V30 4 C 2.0627 2.4115 0.537 0 CFG=2
M  V30 5 C 0.974 1.4179 0.1594 0
M  V30 6 C 3.4196 2.0146 -0.0451 0
M  V30 7 C 1.0383 0.0682 0.5432 0
M  V30 8 C -0.1224 1.8417 -0.6027 0
M  V30 9 C 0.0354 -0.8474 0.1791 0
M  V30 10 C -1.1257 0.9418 -0.9731 0
M  V30 11 C -1.0618 -0.4064 -0.5911 0
M  V30 12 C 0.1001 -2.193 0.5665 0
M  V30 13 C -2.0664 -1.3226 -0.9582 0
M  V30 14 C -0.9043 -3.0885 0.1941 0
M  V30 15 C -1.9908 -2.6612 -0.5683 0
M  V30 16 O -2.9005 -3.6395 -0.8629 0
M  V30 17 C -4.0348 -3.2553 -1.6292 0
M  V30 18 H 2.7171 3.8443 3.3189 0
M  V30 19 H 1.7852 3.3862 0.1122 0
M  V30 20 H 3.7947 1.0831 0.3932 0
M  V30 21 H 4.169 2.7887 0.1547 0
M  V30 22 H 3.3581 1.8765 -1.1302 0
M  V30 23 H 1.8763 -0.2772 1.1474 0
M  V30 24 H -0.2086 2.8787 -0.9209 0
M  V30 25 H -1.9622 1.3058 -1.5656 0
M  V30 26 H 0.933 -2.5561 1.1641 0
M  V30 27 H -2.9013 -0.9632 -1.5507 0
M  V30 28 H -0.8387 -4.1287 0.5036 0
M  V30 29 H -4.6352 -2.5083 -1.0992 0
M  V30 30 H -4.6585 -4.1431 -1.7713 0
M  V30 31 H -3.7382 -2.895 -2.6198 0
M  V30 END ATOM
M  V30 BEGIN BOND
M  V30 1 2 1 2
M  V30 2 1 2 3
M  V30 3 1 2 4
M  V30 4 1 4 5
M  V30 5 1 4 6
M  V30 6 2 5 7
M  V30 7 1 5 8
M  V30 8 1 7 9
M  V30 9 2 8 10
M  V30 10 1 9 11
M  V30 11 2 9 12
M  V30 12 2 11 13
M  V30 13 1 12 14
M  V30 14 1 13 15
M  V30 15 1 15 16
M  V30 16 1 16 17
M  V30 17 1 10 11
M  V30 18 2 14 15
M  V30 19 1 3 18
M  V30 20 1 4 19
M  V30 21 1 6 20
M  V30 22 1 6 21
M  V30 23 1 6 22
M  V30 24 1 7 23
M  V30 25 1 8 24
M  V30 26 1 10 25
M  V30 27 1 12 26
M  V30 28 1 13 27
M  V30 29 1 14 28
M  V30 30 1 17 29
M  V30 31 1 17 30
M  V30 32 1 17 31
M  V30 END BOND
M  V30 BEGIN COLLECTION
M  V30 MDLV30/STEABS ATOMS=(1 4)
M  V30 END COLLECTION
M  V30 END CTAB
M  END
>  <Column 1>
537

>  <level_0>
608

>  <index>
608

>  <Unnamed: 0>
608

>  <NO.>
618

>  <Name>
naproxen

>  <IUPAC_name>
(2s)-2-(6-methoxynaphthalen-2-yl)propanoic acid

>  <SMILES>
COc1ccc2cc([C@H](C)C(=O)O)ccc2c1

>  <CID>
156391

>  <logBB>
0.1

>  <BBB+/BBB->
BBB+

>  <Inchi>
InChI=1S/C14H14O3/c1-9(14(15)16)10-3-4-12-8-13(17-2)6-5-11(12)7-10/h3-9H-1-2H3-(H-15-16)/t9-/m0/s1

>  <threshold>


>  <reference>
R2|R2|R25|R27|R46|

>  <group>
A

>  <Class>
1

>  <ABC>
12.93

>  <ABCGG>
10.89

>  <nAcid>
1

>  <nBase>
0

>  <nAromAtom>
10

>  <nAromBond>
11

>  <nAtom>
31

>  <nHeavyAtom>
17

>  <nSpiro>
0

>  <nBridgehead>
0

>  <nHetero>
3

>  <nN>
0

>  <nO>
3

>  <nF>
0

>  <BalabanJ>
1.89

>  <BertzCT>
560.4

>  <nBonds>
32

>  <nBondsO>
18

>  <nBondsS>
20

>  <nBondsD>
1

>  <nBondsT>
0

>  <nBondsA>
11

>  <nBondsM>
12

>  <nBondsKS>
26

>  <nBondsKD>
6

>  <RNCG>
0.31

>  <RPCG>
0.2

>  <FCSP3>
0.21

>  <SZ>
20.33

>  <Sm>
19.17

>  <Sv>
19.94

>  <Sse>
31.21

>  <Sp>
21.03

>  <Si>
34.54

>  <MZ>
0.66

>  <Mm>
0.62

>  <Mv>
0.64

>  <Mse>
1.01

>  <Mp>
0.68

>  <Mi>
1.11

>  <NsCH3>
2

>  <NdCH2>
0

>  <NssCH2>
0

>  <NtCH>
0

>  <NdsCH>
0

>  <NaaCH>
6

>  <NsssCH>
1

>  <NddC>
0

>  <NtsC>
0

>  <NdssC>
1

>  <NaasC>
2

>  <NaaaC>
2

>  <NssssC>
0

>  <NsNH3>
0

>  <NsNH2>
0

>  <NssNH2>
0

>  <NdNH>
0

>  <NssNH>
0

>  <NaaNH>
0

>  <NtN>
0

>  <NsssNH>
0

>  <NdsN>
0

>  <NaaN>
0

>  <NsssN>
0

>  <NddsN>
0

>  <NaasN>
0

>  <NssssN>
0

>  <NsOH>
1

>  <NdO>
1

>  <NssO>
1

>  <NaaO>
0

>  <NsF>
0

>  <NsSiH3>
0

>  <NssSiH2>
0

>  <NsssSiH>
0

>  <NssssSi>
0

>  <NsPH2>
0

>  <NssPH>
0

>  <NsssP>
0

>  <NdsssP>
0

>  <NsssssP>
0

>  <NsSH>
0

>  <NdS>
0

>  <NssS>
0

>  <NaaS>
0

>  <NdssS>
0

>  <NddssS>
0

>  <NsCl>
0

>  <NsBr>
0

>  <NsI>
0

>  <fragCpx>
52.03

>  <fMF>
0.32

>  <nHBAcc>
2

>  <nHBDon>
1

>  <Kier1>
13.43

>  <Kier2>
5.76

>  <Lipinski>
1

>  <GhoseFilter>
1

>  <FilterItLogS>
-3.11

>  <VMcGowan>
178.21

>  <LabuteASA>
99.64

>  <PEOE_VSA1>
9.84

>  <PEOE_VSA2>
4.79

>  <PEOE_VSA3>
0

>  <PEOE_VSA4>
0

>  <PEOE_VSA5>
0

>  <PEOE_VSA6>
24.27

>  <PEOE_VSA7>
35.39

>  <PEOE_VSA8>
0

>  <PEOE_VSA9>
13.03

>  <PEOE_VSA10>
5.75

>  <PEOE_VSA11>
0

>  <PEOE_VSA12>
0

>  <PEOE_VSA13>
0

>  <SMR_VSA1>
14.64

>  <SMR_VSA2>
0

>  <SMR_VSA3>
0

>  <SMR_VSA4>
0

>  <SMR_VSA5>
12.84

>  <SMR_VSA6>
7.11

>  <SMR_VSA7>
41.96

>  <SMR_VSA8>
0

>  <SMR_VSA9>
5.75

>  <SlogP_VSA1>
4.74

>  <SlogP_VSA2>
18.19

>  <SlogP_VSA3>
4.79

>  <SlogP_VSA4>
0

>  <SlogP_VSA5>
18.41

>  <SlogP_VSA6>
36.4

>  <SlogP_VSA7>
0

>  <SlogP_VSA8>
10.77

>  <SlogP_VSA9>
0

>  <SlogP_VSA10>
0

>  <SlogP_VSA11>
5.75

>  <EState_VSA1>
11.89

>  <EState_VSA2>
0

>  <EState_VSA3>
0

>  <EState_VSA4>
22.09

>  <EState_VSA5>
0

>  <EState_VSA6>
14.03

>  <EState_VSA7>
36.4

>  <EState_VSA8>
0

>  <EState_VSA9>
9.84

>  <EState_VSA10>
4.79

>  <VSA_EState1>
5.14

>  <VSA_EState2>
10.92

>  <VSA_EState3>
11.04

>  <VSA_EState4>
0.81

>  <VSA_EState5>
-0.49

>  <VSA_EState6>
11.43

>  <VSA_EState7>
0

>  <VSA_EState8>
1.69

>  <VSA_EState9>
1.63

>  <apol>
35.12

>  <bpol>
16.65

>  <nRing>
2

>  <nHRing>
0

>  <naRing>
2

>  <naHRing>
0

>  <nARing 2>
0

>  <nAHRing 2>
0

>  <nFRing>
1

>  <nFHRing>
0

>  <nFaRing>
1

>  <nFaHRing>
0

>  <nFARing 2>
0

>  <nFAHRing 2>
0

>  <nRot>
3

>  <SLogP>
3.04

>  <SMR>
66.55

>  <TopoPSA(NO)>
46.53

>  <TopoPSA>
46.53

>  <JGI1>
0.22

>  <JGI2>
0.09

>  <JGI3>
0.04

>  <JGI4>
0.06

>  <JGI5>
0.03

>  <Diameter>
10

>  <Radius>
5

>  <TMWC10>
106.14

>  <TSRW10>
49.72

>  <MW>
230.09

>  <AMW>
7.42

>  <WPath>
530

>  <WPol>
26

>  <Zagreb1>
86

>  <Zagreb2>
100

>  <mZagreb2>
3.83

>  <yes>


>  <nAR-cont>
0.336376

>  <nHA-cont>
0.976740822

>  <MWHBN>
0.197775451

>  <MWHBN-cont>
0.999111069

>  <TPSA-cont>
0.675191707

>  <pka_cont>
0.97

>  <yes.1>


>  <BBB_SCORE>
4.647166839

>  <MMFF94 Energy>
35.13

$$$$
Compound 434
Actelion Java MolfileCreator 2.0

  0  0  0  0  0  0              0 V3000
M  V30 BEGIN CTAB
M  V30 COUNTS 23 24 0 0 0
M  V30 BEGIN ATOM
M  V30 1 Cl 0.1636 -1.2279 3.195 0
M  V30 2 C -0.0129 -1.8668 1.5927 0
M  V30 3 C 0.3563 -1.0984 0.4681 0
M  V30 4 C -0.5276 -3.1611 1.4624 0
M  V30 5 N 0.7881 0.2341 0.6541 0
M  V30 6 C 0.2028 -1.695 -0.7993 0
M  V30 7 C -0.6865 -3.7211 0.1987 0
M  V30 8 C 0.2446 1.3184 0.0466 0
M  V30 9 Cl 0.7656 -0.9384 -2.2546 0
M  V30 10 C -0.3152 -2.9918 -0.9286 0
M  V30 11 N -0.8464 1.395 -0.6598 0
M  V30 12 N 0.9287 2.474 0.231 0
M  V30 13 C -0.9531 2.8318 -1.0387 0
M  V30 14 C 0.3247 3.521 -0.5461 0
M  V30 15 H -0.8115 -3.7318 2.3433 0
M  V30 16 H 1.2316 0.4092 1.5455 0
M  V30 17 H -1.0894 -4.7252 0.091 0
M  V30 18 H -0.4203 -3.4408 -1.9139 0
M  V30 19 H 1.9149 2.4828 0.4412 0
M  V30 20 H -1.8403 3.2644 -0.5634 0
M  V30 21 H -1.0612 2.9281 -2.1238 0
M  V30 22 H 0.9693 3.805 -1.3837 0
M  V30 23 H 0.1052 4.4052 0.0587 0
M  V30 END ATOM
M  V30 BEGIN BOND
M  V30 1 1 1 2
M  V30 2 2 2 3
M  V30 3 1 2 4
M  V30 4 1 3 5
M  V30 5 1 3 6
M  V30 6 2 4 7
M  V30 7 1 5 8
M  V30 8 1 6 9
M  V30 9 2 6 10
M  V30 10 2 8 11
M  V30 11 1 8 12
M  V30 12 1 11 13
M  V30 13 1 12 14
M  V30 14 1 7 10
M  V30 15 1 13 14
M  V30 16 1 4 15
M  V30 17 1 5 16
M  V30 18 1 7 17
M  V30 19 1 10 18
M  V30 20 1 12 19
M  V30 21 1 13 20
M  V30 22 1 13 21
M  V30 23 1 14 22
M  V30 24 1 14 23
M  V30 END BOND
M  V30 END CTAB
M  END
>  <Column 1>
538

>  <level_0>
609

>  <index>
609

>  <Unnamed: 0>
609

>  <NO.>
619

>  <Name>
2pnc

>  <IUPAC_name>
n-(2-6-dichlorophenyl)-4-5-dihydro-1h-imidazol-2-amine

>  <SMILES>
Clc1cccc(Cl)c1NC1=NCCN1

>  <CID>
2803

>  <logBB>
0.1

>  <BBB+/BBB->
BBB+

>  <Inchi>
InChI=1S/C9H9Cl2N3/c10-6-2-1-3-7(11)8(6)14-9-12-4-5-13-9/h1-3H-4-5H2-(H2-12-13-14)

>  <threshold>


>  <reference>
R5|R2|R2|R3|R11|R11|R12|R18|R25|R26|R27|R27|R35|R36|R38|R39|R41|R42|R43|R44|R46|R47|R47|R49|R49|R49|R2|R2|R8|R21|R27|R27|R50|R40|R4|

>  <group>
A

>  <Class>
1

>  <ABC>
10.74

>  <ABCGG>
9.87

>  <nAcid>
0

>  <nBase>
3

>  <nAromAtom>
6

>  <nAromBond>
6

>  <nAtom>
23

>  <nHeavyAtom>
14

>  <nSpiro>
0

>  <nBridgehead>
0

>  <nHetero>
5

>  <nN>
3

>  <nO>
0

>  <nF>
0

>  <BalabanJ>
1.86

>  <BertzCT>
356.07

>  <nBonds>
24

>  <nBondsO>
15

>  <nBondsS>
17

>  <nBondsD>
1

>  <nBondsT>
0

>  <nBondsA>
6

>  <nBondsM>
7

>  <nBondsKS>
20

>  <nBondsKD>
4

>  <RNCG>
0.29

>  <RPCG>
0.16

>  <FCSP3>
0.22

>  <SZ>
19.67

>  <Sm>
19.16

>  <Sv>
15.89

>  <Sse>
23.52

>  <Sp>
17.18

>  <Si>
26.04

>  <MZ>
0.86

>  <Mm>
0.83

>  <Mv>
0.69

>  <Mse>
1.02

>  <Mp>
0.75

>  <Mi>
1.13

>  <NsCH3>
0

>  <NdCH2>
0

>  <NssCH2>
2

>  <NtCH>
0

>  <NdsCH>
0

>  <NaaCH>
3

>  <NsssCH>
0

>  <NddC>
0

>  <NtsC>
0

>  <NdssC>
1

>  <NaasC>
3

>  <NaaaC>
0

>  <NssssC>
0

>  <NsNH3>
0

>  <NsNH2>
0

>  <NssNH2>
0

>  <NdNH>
0

>  <NssNH>
2

>  <NaaNH>
0

>  <NtN>
0

>  <NsssNH>
0

>  <NdsN>
1

>  <NaaN>
0

>  <NsssN>
0

>  <NddsN>
0

>  <NaasN>
0

>  <NssssN>
0

>  <NsOH>
0

>  <NdO>
0

>  <NssO>
0

>  <NaaO>
0

>  <NsF>
0

>  <NsSiH3>
0

>  <NssSiH2>
0

>  <NsssSiH>
0

>  <NssssSi>
0

>  <NsPH2>
0

>  <NssPH>
0

>  <NsssP>
0

>  <NdsssP>
0

>  <NsssssP>
0

>  <NsSH>
0

>  <NdS>
0

>  <NssS>
0

>  <NaaS>
0

>  <NdssS>
0

>  <NddssS>
0

>  <NsCl>
2

>  <NsBr>
0

>  <NsI>
0

>  <fragCpx>
43.05

>  <fMF>
0.52

>  <nHBAcc>
3

>  <nHBDon>
2

>  <Kier1>
10.52

>  <Kier2>
4.68

>  <Lipinski>
1

>  <GhoseFilter>
1

>  <FilterItLogS>
-4.15

>  <VMcGowan>
153.17

>  <LabuteASA>
92.12

>  <PEOE_VSA1>
10.63

>  <PEOE_VSA2>
4.99

>  <PEOE_VSA3>
0

>  <PEOE_VSA4>
0

>  <PEOE_VSA5>
0

>  <PEOE_VSA6>
29.27

>  <PEOE_VSA7>
12.13

>  <PEOE_VSA8>
6.54

>  <PEOE_VSA9>
22.28

>  <PEOE_VSA10>
0

>  <PEOE_VSA11>
5.96

>  <PEOE_VSA12>
0

>  <PEOE_VSA13>
0

>  <SMR_VSA1>
0

>  <SMR_VSA2>
0

>  <SMR_VSA3>
5.32

>  <SMR_VSA4>
4.99

>  <SMR_VSA5>
0

>  <SMR_VSA6>
18.41

>  <SMR_VSA7>
28.24

>  <SMR_VSA8>
0

>  <SMR_VSA9>
0

>  <SlogP_VSA1>
10.63

>  <SlogP_VSA2>
19.05

>  <SlogP_VSA3>
0

>  <SlogP_VSA4>
0

>  <SlogP_VSA5>
0

>  <SlogP_VSA6>
23.19

>  <SlogP_VSA7>
10.05

>  <SlogP_VSA8>
0

>  <SlogP_VSA9>
0

>  <SlogP_VSA10>
5.69

>  <SlogP_VSA11>
0

>  <EState_VSA1>
0

>  <EState_VSA2>
0

>  <EState_VSA3>
15.73

>  <EState_VSA4>
19.05

>  <EState_VSA5>
0

>  <EState_VSA6>
18.2

>  <EState_VSA7>
0

>  <EState_VSA8>
15.63

>  <EState_VSA9>
23.2

>  <EState_VSA10>
0

>  <VSA_EState1>
0

>  <VSA_EState2>
4.19

>  <VSA_EState3>
7.32

>  <VSA_EState4>
0.7

>  <VSA_EState5>
0.72

>  <VSA_EState6>
5.37

>  <VSA_EState7>
0

>  <VSA_EState8>
1.63

>  <VSA_EState9>
0

>  <apol>
28.69

>  <bpol>
12.33

>  <nRing>
2

>  <nHRing>
1

>  <naRing>
1

>  <naHRing>
0

>  <nARing 2>
1

>  <nAHRing 2>
1

>  <nFRing>
0

>  <nFHRing>
0

>  <nFaRing>
0

>  <nFaHRing>
0

>  <nFARing 2>
0

>  <nFAHRing 2>
0

>  <nRot>
1

>  <SLogP>
2.36

>  <SMR>
60.39

>  <TopoPSA(NO)>
36.42

>  <TopoPSA>
36.42

>  <JGI1>
0.17

>  <JGI2>
0.08

>  <JGI3>
0.05

>  <JGI4>
0.05

>  <JGI5>
0.01

>  <Diameter>
7

>  <Radius>
4

>  <TMWC10>
97.55

>  <TSRW10>
58.5

>  <MW>
229.02

>  <AMW>
9.96

>  <WPath>
301

>  <WPol>
17

>  <Zagreb1>
70

>  <Zagreb2>
80

>  <mZagreb2>
3.14

>  <yes>


>  <nAR-cont>
0.816016

>  <nHA-cont>
0.887625254

>  <MWHBN>
0.330394873

>  <MWHBN-cont>
0.741458929

>  <TPSA-cont>
0.745765785

>  <pka_cont>
0.97

>  <yes.1>


>  <BBB_SCORE>
4.792361217

>  <MMFF94 Energy>
-14.308

$$$$
Compound 435
Actelion Java MolfileCreator 2.0

  0  0  0  0  0  0              0 V3000
M  V30 BEGIN CTAB
M  V30 COUNTS 15 14 0 0 0
M  V30 BEGIN ATOM
M  V30 1 O -0.978 0.6017 1.2038 0
M  V30 2 C -0.1561 0.1243 0.1379 0
M  V30 3 C -0.8859 -1.0204 -0.5635 0
M  V30 4 C 0.0698 1.2877 -0.8253 0
M  V30 5 C 1.1715 -0.3537 0.7243 0
M  V30 6 H -1.1261 -0.1345 1.8216 0
M  V30 7 H -1.0856 -1.8423 0.1334 0
M  V30 8 H -0.3055 -1.4135 -1.4045 0
M  V30 9 H -1.8611 -0.689 -0.9382 0
M  V30 10 H -0.8839 1.665 -1.2119 0
M  V30 11 H 0.5504 2.1298 -0.314 0
M  V30 12 H 0.6961 0.9941 -1.6739 0
M  V30 13 H 1.6692 0.4549 1.2716 0
M  V30 14 H 1.0115 -1.1628 1.4461 0
M  V30 15 H 1.85 -0.7151 -0.0552 0
M  V30 END ATOM
M  V30 BEGIN BOND
M  V30 1 1 1 2
M  V30 2 1 2 3
M  V30 3 1 2 4
M  V30 4 1 2 5
M  V30 5 1 1 6
M  V30 6 1 3 7
M  V30 7 1 3 8
M  V30 8 1 3 9
M  V30 9 1 4 10
M  V30 10 1 4 11
M  V30 11 1 4 12
M  V30 12 1 5 13
M  V30 13 1 5 14
M  V30 14 1 5 15
M  V30 END BOND
M  V30 END CTAB
M  END
>  <Column 1>
540

>  <level_0>
611

>  <index>
611

>  <Unnamed: 0>
611

>  <NO.>
621

>  <Name>
tert-butylalcohol

>  <IUPAC_name>
2-methylpropan-2-ol

>  <SMILES>
CC(C)(C)O

>  <CID>
6386

>  <logBB>
0.11

>  <BBB+/BBB->
BBB+

>  <Inchi>
InChI=1S/C4H10O/c1-4(2-3)5/h5H-1-3H3

>  <threshold>


>  <reference>
R2|R2|R3|R8|R21|R25|R27|R27|R38|R40|R41|R43|R46|R47|

>  <group>
A

>  <Class>
1

>  <ABC>
3.46

>  <ABCGG>
3.46

>  <nAcid>
0

>  <nBase>
0

>  <nAromAtom>
0

>  <nAromBond>
0

>  <nAtom>
15

>  <nHeavyAtom>
5

>  <nSpiro>
0

>  <nBridgehead>
0

>  <nHetero>
1

>  <nN>
0

>  <nO>
1

>  <nF>
0

>  <BalabanJ>
3.02

>  <BertzCT>
19.12

>  <nBonds>
14

>  <nBondsO>
4

>  <nBondsS>
14

>  <nBondsD>
0

>  <nBondsT>
0

>  <nBondsA>
0

>  <nBondsM>
0

>  <nBondsKS>
14

>  <nBondsKD>
0

>  <RNCG>
0.78

>  <RPCG>
0.42

>  <FCSP3>
1

>  <SZ>
7

>  <Sm>
6.17

>  <Sv>
7.42

>  <Sse>
14.77

>  <Sp>
8.47

>  <Si>
17.29

>  <MZ>
0.47

>  <Mm>
0.41

>  <Mv>
0.49

>  <Mse>
0.98

>  <Mp>
0.56

>  <Mi>
1.15

>  <NsCH3>
3

>  <NdCH2>
0

>  <NssCH2>
0

>  <NtCH>
0

>  <NdsCH>
0

>  <NaaCH>
0

>  <NsssCH>
0

>  <NddC>
0

>  <NtsC>
0

>  <NdssC>
0

>  <NaasC>
0

>  <NaaaC>
0

>  <NssssC>
1

>  <NsNH3>
0

>  <NsNH2>
0

>  <NssNH2>
0

>  <NdNH>
0

>  <NssNH>
0

>  <NaaNH>
0

>  <NtN>
0

>  <NsssNH>
0

>  <NdsN>
0

>  <NaaN>
0

>  <NsssN>
0

>  <NddsN>
0

>  <NaasN>
0

>  <NssssN>
0

>  <NsOH>
1

>  <NdO>
0

>  <NssO>
0

>  <NaaO>
0

>  <NsF>
0

>  <NsSiH3>
0

>  <NssSiH2>
0

>  <NsssSiH>
0

>  <NssssSi>
0

>  <NsPH2>
0

>  <NssPH>
0

>  <NsssP>
0

>  <NdsssP>
0

>  <NsssssP>
0

>  <NsSH>
0

>  <NdS>
0

>  <NssS>
0

>  <NaaS>
0

>  <NdssS>
0

>  <NddssS>
0

>  <NsCl>
0

>  <NsBr>
0

>  <NsI>
0

>  <fragCpx>
4.01

>  <fMF>
0

>  <nHBAcc>
1

>  <nHBDon>
1

>  <Kier1>
5

>  <Kier2>
1

>  <Lipinski>
1

>  <GhoseFilter>
0

>  <FilterItLogS>
-0.38

>  <VMcGowan>
73.09

>  <LabuteASA>
32.63

>  <PEOE_VSA1>
5.11

>  <PEOE_VSA2>
0

>  <PEOE_VSA3>
0

>  <PEOE_VSA4>
0

>  <PEOE_VSA5>
0

>  <PEOE_VSA6>
0

>  <PEOE_VSA7>
20.77

>  <PEOE_VSA8>
0

>  <PEOE_VSA9>
5.6

>  <PEOE_VSA10>
0

>  <PEOE_VSA11>
0

>  <PEOE_VSA12>
0

>  <PEOE_VSA13>
0

>  <SMR_VSA1>
5.11

>  <SMR_VSA2>
0

>  <SMR_VSA3>
0

>  <SMR_VSA4>
0

>  <SMR_VSA5>
26.37

>  <SMR_VSA6>
0

>  <SMR_VSA7>
0

>  <SMR_VSA8>
0

>  <SMR_VSA9>
0

>  <SlogP_VSA1>
0

>  <SlogP_VSA2>
10.71

>  <SlogP_VSA3>
0

>  <SlogP_VSA4>
0

>  <SlogP_VSA5>
20.77

>  <SlogP_VSA6>
0

>  <SlogP_VSA7>
0

>  <SlogP_VSA8>
0

>  <SlogP_VSA9>
0

>  <SlogP_VSA10>
0

>  <SlogP_VSA11>
0

>  <EState_VSA1>
5.6

>  <EState_VSA2>
0

>  <EState_VSA3>
0

>  <EState_VSA4>
0

>  <EState_VSA5>
0

>  <EState_VSA6>
20.77

>  <EState_VSA7>
0

>  <EState_VSA8>
0

>  <EState_VSA9>
5.11

>  <EState_VSA10>
0

>  <VSA_EState1>
0

>  <VSA_EState2>
0

>  <VSA_EState3>
8.52

>  <VSA_EState4>
-0.5

>  <VSA_EState5>
0

>  <VSA_EState6>
0

>  <VSA_EState7>
0

>  <VSA_EState8>
5.23

>  <VSA_EState9>
0

>  <apol>
14.15

>  <bpol>
10.03

>  <nRing>
0

>  <nHRing>
0

>  <naRing>
0

>  <naHRing>
0

>  <nARing 2>
0

>  <nAHRing 2>
0

>  <nFRing>
0

>  <nFHRing>
0

>  <nFaRing>
0

>  <nFaHRing>
0

>  <nFARing 2>
0

>  <nFAHRing 2>
0

>  <nRot>
0

>  <SLogP>
0.78

>  <SMR>
21.97

>  <TopoPSA(NO)>
20.23

>  <TopoPSA>
20.23

>  <JGI1>
0.75

>  <JGI2>
0

>  <JGI3>
0

>  <JGI4>
0

>  <JGI5>
0

>  <Diameter>
2

>  <Radius>
1

>  <TMWC10>
60.13

>  <TSRW10>
29.42

>  <MW>
74.07

>  <AMW>
4.94

>  <WPath>
16

>  <WPol>
0

>  <Zagreb1>
20

>  <Zagreb2>
16

>  <mZagreb2>
1

>  <yes>


>  <nAR-cont>
0.336376

>  <nHA-cont>
0

>  <MWHBN>
0.232385391

>  <MWHBN-cont>
0.984275344

>  <TPSA-cont>
0.858782038

>  <pka_cont>
0.97

>  <yes.1>


>  <BBB_SCORE>
4.015353092

>  <MMFF94 Energy>
8.0048

$$$$
Compound 436
Actelion Java MolfileCreator 2.0

  0  0  0  0  0  0              0 V3000
M  V30 BEGIN CTAB
M  V30 COUNTS 38 42 0 0 0
M  V30 BEGIN ATOM
M  V30 1 O -0.4856 -2.4298 2.9974 0
M  V30 2 C 0.068 -1.6051 2.2703 0
M  V30 3 N -0.5492 -1.0149 1.1711 0
M  V30 4 C 1.4732 -1.231 2.5435 0
M  V30 5 C 0.074 -0.0015 0.4204 0
M  V30 6 C -1.9511 -1.3653 0.9089 0
M  V30 7 C 2.0507 -0.164 1.8388 0
M  V30 8 C 2.1934 -1.9538 3.51 0
M  V30 9 N 1.2828 0.5468 0.8891 0
M  V30 10 C -0.5396 0.3834 -0.7331 0
M  V30 11 C -2.2791 -1.4472 -0.576 0
M  V30 12 C 3.4009 0.1218 2.1158 0
M  V30 13 C 3.5204 -1.6341 3.7759 0
M  V30 14 C 1.8127 1.8291 0.4177 0
M  V30 15 N -0.1624 1.3838 -1.6144 0
M  V30 16 C -1.7315 -0.2556 -1.2691 0
M  V30 17 C 4.1259 -0.5996 3.0732 0
M  V30 18 C -1.0772 1.3759 -2.5342 0
M  V30 19 C -2.1305 0.3585 -2.3803 0
M  V30 20 C -1.1772 2.2557 -3.7166 0
M  V30 21 C -3.1816 0.2057 -3.333 0
M  V30 22 C -2.1995 2.0716 -4.5708 0
M  V30 23 C -3.2102 1.0394 -4.3867 0
M  V30 24 H -2.206 -2.3194 1.3836 0
M  V30 25 H -2.5658 -0.5968 1.3969 0
M  V30 26 H 1.7171 -2.7695 4.0498 0
M  V30 27 H -3.3612 -1.5379 -0.7189 0
M  V30 28 H -1.811 -2.3455 -0.9979 0
M  V30 29 H 3.9325 0.9011 1.5773 0
M  V30 30 H 4.0792 -2.1951 4.5201 0
M  V30 31 H 2.4723 1.683 -0.4439 0
M  V30 32 H 1.0128 2.5263 0.1481 0
M  V30 33 H 2.363 2.3624 1.2019 0
M  V30 34 H 5.1675 -0.3514 3.2623 0
M  V30 35 H -0.4193 3.0156 -3.8485 0
M  V30 36 H -3.9279 -0.5678 -3.1968 0
M  V30 37 H -2.2948 2.7052 -5.4483 0
M  V30 38 H -3.9918 0.9594 -5.137 0
M  V30 END ATOM
M  V30 BEGIN BOND
M  V30 1 2 1 2
M  V30 2 1 2 3
M  V30 3 1 2 4
M  V30 4 1 3 5
M  V30 5 1 3 6
M  V30 6 2 4 7
M  V30 7 1 4 8
M  V30 8 1 5 9
M  V30 9 2 5 10
M  V30 10 1 6 11
M  V30 11 1 7 12
M  V30 12 2 8 13
M  V30 13 1 9 14
M  V30 14 1 10 15
M  V30 15 1 10 16
M  V30 16 2 12 17
M  V30 17 2 15 18
M  V30 18 2 16 19
M  V30 19 1 18 20
M  V30 20 1 19 21
M  V30 21 2 20 22
M  V30 22 2 21 23
M  V30 23 1 7 9
M  V30 24 1 11 16
M  V30 25 1 13 17
M  V30 26 1 18 19
M  V30 27 1 22 23
M  V30 28 1 6 24
M  V30 29 1 6 25
M  V30 30 1 8 26
M  V30 31 1 11 27
M  V30 32 1 11 28
M  V30 33 1 12 29
M  V30 34 1 13 30
M  V30 35 1 14 31
M  V30 36 1 14 32
M  V30 37 1 14 33
M  V30 38 1 17 34
M  V30 39 1 20 35
M  V30 40 1 21 36
M  V30 41 1 22 37
M  V30 42 1 23 38
M  V30 END BOND
M  V30 END CTAB
M  END
>  <Column 1>
541

>  <level_0>
612

>  <index>
612

>  <Unnamed: 0>
612

>  <NO.>
622

>  <Name>
dehydroevodiamine

>  <IUPAC_name>
21-methyl-3-13-21-triazapentacyclo[11.8.0.02-10.04-9.015-20]henicosa-1-3-5-7-9-15-17-19-octaen-14-one

>  <SMILES>
CN1C2=C3N=c4ccccc4=C3CCN2C(=O)c2ccccc21

>  <CID>
9817839

>  <logBB>
0.11

>  <BBB+/BBB->
BBB+

>  <Inchi>
InChI=1S/C19H15N3O/c1-21-16-9-5-3-7-14(16)19(23)22-11-10-13-12-6-2-4-8-15(12)20-17(13)18(21)22/h2-9H-10-11H2-1H3

>  <threshold>


>  <reference>
R20|

>  <group>
A

>  <Class>
1

>  <ABC>
18.91

>  <ABCGG>
14.37

>  <nAcid>
0

>  <nBase>
0

>  <nAromAtom>
12

>  <nAromBond>
12

>  <nAtom>
38

>  <nHeavyAtom>
23

>  <nSpiro>
0

>  <nBridgehead>
0

>  <nHetero>
4

>  <nN>
3

>  <nO>
1

>  <nF>
0

>  <BalabanJ>
1.44

>  <BertzCT>
1018.91

>  <nBonds>
42

>  <nBondsO>
27

>  <nBondsS>
26

>  <nBondsD>
4

>  <nBondsT>
0

>  <nBondsA>
12

>  <nBondsM>
16

>  <nBondsKS>
33

>  <nBondsKD>
9

>  <RNCG>
0.21

>  <RPCG>
0.17

>  <FCSP3>
0.16

>  <SZ>
26.33

>  <Sm>
25.09

>  <Sv>
26.05

>  <Sse>
37.98

>  <Sp>
27.45

>  <Si>
42.2

>  <MZ>
0.69

>  <Mm>
0.66

>  <Mv>
0.69

>  <Mse>
1

>  <Mp>
0.72

>  <Mi>
1.11

>  <NsCH3>
1

>  <NdCH2>
0

>  <NssCH2>
2

>  <NtCH>
0

>  <NdsCH>
0

>  <NaaCH>
8

>  <NsssCH>
0

>  <NddC>
0

>  <NtsC>
0

>  <NdssC>
4

>  <NaasC>
2

>  <NaaaC>
0

>  <NssssC>
0

>  <NsNH3>
0

>  <NsNH2>
0

>  <NssNH2>
0

>  <NdNH>
0

>  <NssNH>
0

>  <NaaNH>
0

>  <NtN>
0

>  <NsssNH>
0

>  <NdsN>
1

>  <NaaN>
0

>  <NsssN>
2

>  <NddsN>
0

>  <NaasN>
0

>  <NssssN>
0

>  <NsOH>
0

>  <NdO>
1

>  <NssO>
0

>  <NaaO>
0

>  <NsF>
0

>  <NsSiH3>
0

>  <NssSiH2>
0

>  <NsssSiH>
0

>  <NssssSi>
0

>  <NsPH2>
0

>  <NssPH>
0

>  <NsssP>
0

>  <NdsssP>
0

>  <NsssssP>
0

>  <NsSH>
0

>  <NdS>
0

>  <NssS>
0

>  <NaaS>
0

>  <NdssS>
0

>  <NddssS>
0

>  <NsCl>
0

>  <NsBr>
0

>  <NsI>
0

>  <fragCpx>
223.04

>  <fMF>
0.55

>  <nHBAcc>
3

>  <nHBDon>
0

>  <Kier1>
15.27

>  <Kier2>
5.77

>  <Lipinski>
1

>  <GhoseFilter>
1

>  <FilterItLogS>
-4.3

>  <VMcGowan>
221.38

>  <LabuteASA>
133.22

>  <PEOE_VSA1>
4.9

>  <PEOE_VSA2>
9.69

>  <PEOE_VSA3>
4.99

>  <PEOE_VSA4>
0

>  <PEOE_VSA5>
0

>  <PEOE_VSA6>
30.33

>  <PEOE_VSA7>
30.19

>  <PEOE_VSA8>
18.81

>  <PEOE_VSA9>
16.61

>  <PEOE_VSA10>
11.52

>  <PEOE_VSA11>
0

>  <PEOE_VSA12>
0

>  <PEOE_VSA13>
5.91

>  <SMR_VSA1>
4.79

>  <SMR_VSA2>
0

>  <SMR_VSA3>
4.9

>  <SMR_VSA4>
4.99

>  <SMR_VSA5>
6.42

>  <SMR_VSA6>
18.49

>  <SMR_VSA7>
76.19

>  <SMR_VSA8>
0

>  <SMR_VSA9>
0

>  <SlogP_VSA1>
15.48

>  <SlogP_VSA2>
24.4

>  <SlogP_VSA3>
0

>  <SlogP_VSA4>
0

>  <SlogP_VSA5>
16.78

>  <SlogP_VSA6>
65.04

>  <SlogP_VSA7>
0

>  <SlogP_VSA8>
5.57

>  <SlogP_VSA9>
0

>  <SlogP_VSA10>
5.69

>  <SlogP_VSA11>
0

>  <EState_VSA1>
0

>  <EState_VSA2>
5.91

>  <EState_VSA3>
6.54

>  <EState_VSA4>
34.55

>  <EState_VSA5>
10.79

>  <EState_VSA6>
0

>  <EState_VSA7>
54.41

>  <EState_VSA8>
10.97

>  <EState_VSA9>
4.99

>  <EState_VSA10>
4.79

>  <VSA_EState1>
0

>  <VSA_EState2>
21.66

>  <VSA_EState3>
2.21

>  <VSA_EState4>
3.91

>  <VSA_EState5>
0.98

>  <VSA_EState6>
16

>  <VSA_EState7>
0.85

>  <VSA_EState8>
0.7

>  <VSA_EState9>
2.02

>  <apol>
45.83

>  <bpol>
20.48

>  <nRing>
5

>  <nHRing>
3

>  <naRing>
2

>  <naHRing>
0

>  <nARing 2>
3

>  <nAHRing 2>
3

>  <nFRing>
1

>  <nFHRing>
1

>  <nFaRing>
0

>  <nFaHRing>
0

>  <nFARing 2>
1

>  <nFAHRing 2>
1

>  <nRot>
0

>  <SLogP>
1.64

>  <SMR>
88.16

>  <TopoPSA(NO)>
35.91

>  <TopoPSA>
35.91

>  <JGI1>
0.11

>  <JGI2>
0.08

>  <JGI3>
0.06

>  <JGI4>
0.05

>  <JGI5>
0.03

>  <Diameter>
10

>  <Radius>
5

>  <TMWC10>
128.07

>  <TSRW10>
72.89

>  <MW>
301.12

>  <AMW>
7.92

>  <WPath>
1033

>  <WPol>
46

>  <Zagreb1>
136

>  <Zagreb2>
172

>  <mZagreb2>
4.86

>  <yes>


>  <nAR-cont>
0.691115

>  <nHA-cont>
0.967789328

>  <MWHBN>
0.172882667

>  <MWHBN-cont>
0.978267258

>  <TPSA-cont>
0.749325901

>  <pka_cont>
0.97

>  <yes.1>


>  <BBB_SCORE>
5.109957017

>  <MMFF94 Energy>
64.766

$$$$
Compound 437
Actelion Java MolfileCreator 2.0

  0  0  0  0  0  0              0 V3000
M  V30 BEGIN CTAB
M  V30 COUNTS 59 62 0 0 0
M  V30 BEGIN ATOM
M  V30 1 O 1.03 -2.0609 2.6163 0
M  V30 2 C 0.2323 -2.0099 1.5021 0
M  V30 3 C 2.0624 -3.0369 2.6378 0
M  V30 4 C -0.6755 -0.9316 1.4453 0
M  V30 5 C 0.2733 -2.9401 0.4565 0
M  V30 6 C -1.5305 -0.8087 0.3346 0
M  V30 7 C -0.7167 0.1218 2.5342 0
M  V30 8 C -0.5697 -2.8039 -0.6489 0
M  V30 9 C -1.4755 -1.7435 -0.7025 0
M  V30 10 N 0.3851 1.0815 2.4658 0
M  V30 11 N -2.2971 -1.5971 -1.8428 0
M  V30 12 C 0.2351 2.1016 1.408 0
M  V30 13 N -1.7516 -1.6944 -3.0813 0
M  V30 14 C -3.6616 -1.3654 -1.8967 0
M  V30 15 C 1.5595 2.4029 0.6131 0
M  V30 16 C -0.229 3.4056 2.0816 0
M  V30 17 C -2.7617 -1.4583 -3.9224 0
M  V30 18 C -3.9725 -1.2455 -3.2356 0
M  V30 19 C -4.5541 -1.3093 -0.712 0
M  V30 20 N 2.6149 2.9689 1.4811 0
M  V30 21 C 2.0449 1.1928 -0.1801 0
M  V30 22 C 0.8839 4.0268 2.927 0
M  V30 23 C -2.5275 -1.4607 -5.3858 0
M  V30 24 C 2.1671 4.2082 2.1176 0
M  V30 25 C 1.4044 0.8591 -1.3859 0
M  V30 26 C 3.099 0.3755 0.2598 0
M  V30 27 C 1.8082 -0.2517 -2.129 0
M  V30 28 C 3.5097 -0.729 -0.49 0
M  V30 29 C 2.8639 -1.0424 -1.6833 0
M  V30 30 H 1.6451 -4.0486 2.6693 0
M  V30 31 H 2.6425 -2.8887 3.5538 0
M  V30 32 H 2.7445 -2.9155 1.7901 0
M  V30 33 H 0.9634 -3.7768 0.4624 0
M  V30 34 H -2.202 0.0435 0.2723 0
M  V30 35 H -0.6792 -0.3812 3.5084 0
M  V30 36 H -1.6821 0.6441 2.5301 0
M  V30 37 H -0.5064 -3.5201 -1.4653 0
M  V30 38 H 1.2543 0.5642 2.3226 0
M  V30 39 H -0.5297 1.8047 0.6817 0
M  V30 40 H 1.3282 3.1746 -0.137 0
M  V30 41 H -0.5299 4.1214 1.3054 0
M  V30 42 H -1.1168 3.2326 2.7023 0
M  V30 43 H -4.9493 -1.0556 -3.659 0
M  V30 44 H -4.2892 -2.0701 0.0288 0
M  V30 45 H -4.5112 -0.3228 -0.2407 0
M  V30 46 H -5.5935 -1.4905 -1.0065 0
M  V30 47 H 3.4306 3.1666 0.9029 0
M  V30 48 H 1.0855 3.398 3.8029 0
M  V30 49 H 0.5519 4.9994 3.3086 0
M  V30 50 H -3.442 -1.2089 -5.9324 0
M  V30 51 H -1.7605 -0.7268 -5.6539 0
M  V30 52 H -2.1942 -2.4487 -5.7191 0
M  V30 53 H 2.0184 4.9833 1.3553 0
M  V30 54 H 2.9603 4.5684 2.7821 0
M  V30 55 H 0.5706 1.4545 -1.7511 0
M  V30 56 H 3.6037 0.5895 1.1998 0
M  V30 57 H 1.2841 -0.5086 -3.0469 0
M  V30 58 H 4.3273 -1.3496 -0.1345 0
M  V30 59 H 3.1725 -1.9092 -2.2605 0
M  V30 END ATOM
M  V30 BEGIN BOND
M  V30 1 1 1 2
M  V30 2 1 1 3
M  V30 3 2 2 4
M  V30 4 1 2 5
M  V30 5 1 4 6
M  V30 6 1 4 7
M  V30 7 2 5 8
M  V30 8 2 6 9
M  V30 9 1 7 10
M  V30 10 1 9 11
M  V30 11 1 10 12
M  V30 12 1 11 13
M  V30 13 1 11 14
M  V30 14 1 12 15
M  V30 15 1 12 16
M  V30 16 2 13 17
M  V30 17 2 14 18
M  V30 18 1 14 19
M  V30 19 1 15 20
M  V30 20 1 15 21
M  V30 21 1 16 22
M  V30 22 1 17 23
M  V30 23 1 20 24
M  V30 24 2 21 25
M  V30 25 1 21 26
M  V30 26 1 25 27
M  V30 27 2 26 28
M  V30 28 2 27 29
M  V30 29 1 8 9
M  V30 30 1 17 18
M  V30 31 1 22 24
M  V30 32 1 28 29
M  V30 33 1 3 30
M  V30 34 1 3 31
M  V30 35 1 3 32
M  V30 36 1 5 33
M  V30 37 1 6 34
M  V30 38 1 7 35
M  V30 39 1 7 36
M  V30 40 1 8 37
M  V30 41 1 10 38
M  V30 42 1 12 39
M  V30 43 1 15 40
M  V30 44 1 16 41
M  V30 45 1 16 42
M  V30 46 1 18 43
M  V30 47 1 19 44
M  V30 48 1 19 45
M  V30 49 1 19 46
M  V30 50 1 20 47
M  V30 51 1 22 48
M  V30 52 1 22 49
M  V30 53 1 23 50
M  V30 54 1 23 51
M  V30 55 1 23 52
M  V30 56 1 24 53
M  V30 57 1 24 54
M  V30 58 1 25 55
M  V30 59 1 26 56
M  V30 60 1 27 57
M  V30 61 1 28 58
M  V30 62 1 29 59
M  V30 END BOND
M  V30 END CTAB
M  END
>  <Column 1>
542

>  <level_0>
613

>  <index>
613

>  <Unnamed: 0>
613

>  <NO.>
623

>  <Name>
pfizer compound 20

>  <IUPAC_name>
n-[[5-(3-5-dimethylpyrazol-1-yl)-2-methoxyphenyl]methyl]-2-phenylpiperidin-3-amine

>  <SMILES>
COc1ccc(-n2nc(C)cc2C)cc1CNC1CCCNC1c1ccccc1

>  <CID>
22620075

>  <logBB>
0.11

>  <BBB+/BBB->
BBB+

>  <Inchi>
InChI=1S/C24H30N4O/c1-17-14-18(2)28(27-17)21-11-12-23(29-3)20(15-21)16-26-22-10-7-13-25-24(22)19-8-5-4-6-9-19/h4-6-8-9-11-12-14-15-22-24-26H-7-10-13-16H2-1-3H3

>  <threshold>


>  <reference>
R2|R2|R8|R25|R27|R46|R47|R4|R40|

>  <group>
A

>  <Class>
1

>  <ABC>
22.64

>  <ABCGG>
17.73

>  <nAcid>
0

>  <nBase>
2

>  <nAromAtom>
17

>  <nAromBond>
17

>  <nAtom>
59

>  <nHeavyAtom>
29

>  <nSpiro>
0

>  <nBridgehead>
0

>  <nHetero>
5

>  <nN>
4

>  <nO>
1

>  <nF>
0

>  <BalabanJ>
1.34

>  <BertzCT>
950.77

>  <nBonds>
62

>  <nBondsO>
32

>  <nBondsS>
45

>  <nBondsD>
0

>  <nBondsT>
0

>  <nBondsA>
17

>  <nBondsM>
17

>  <nBondsKS>
54

>  <nBondsKD>
8

>  <RNCG>
0.24

>  <RPCG>
0.06

>  <FCSP3>
0.38

>  <SZ>
35

>  <Sm>
32.51

>  <Sv>
35.87

>  <Sse>
58.3

>  <Sp>
39.09

>  <Si>
66.6

>  <MZ>
0.59

>  <Mm>
0.55

>  <Mv>
0.61

>  <Mse>
0.99

>  <Mp>
0.66

>  <Mi>
1.13

>  <NsCH3>
3

>  <NdCH2>
0

>  <NssCH2>
4

>  <NtCH>
0

>  <NdsCH>
0

>  <NaaCH>
9

>  <NsssCH>
2

>  <NddC>
0

>  <NtsC>
0

>  <NdssC>
0

>  <NaasC>
6

>  <NaaaC>
0

>  <NssssC>
0

>  <NsNH3>
0

>  <NsNH2>
0

>  <NssNH2>
0

>  <NdNH>
0

>  <NssNH>
2

>  <NaaNH>
0

>  <NtN>
0

>  <NsssNH>
0

>  <NdsN>
0

>  <NaaN>
1

>  <NsssN>
0

>  <NddsN>
0

>  <NaasN>
1

>  <NssssN>
0

>  <NsOH>
0

>  <NdO>
0

>  <NssO>
1

>  <NaaO>
0

>  <NsF>
0

>  <NsSiH3>
0

>  <NssSiH2>
0

>  <NsssSiH>
0

>  <NssssSi>
0

>  <NsPH2>
0

>  <NssPH>
0

>  <NsssP>
0

>  <NdsssP>
0

>  <NsssssP>
0

>  <NsSH>
0

>  <NdS>
0

>  <NssS>
0

>  <NaaS>
0

>  <NdssS>
0

>  <NddssS>
0

>  <NsCl>
0

>  <NsBr>
0

>  <NsI>
0

>  <fragCpx>
212.05

>  <fMF>
0.42

>  <nHBAcc>
5

>  <nHBDon>
2

>  <Kier1>
22.2

>  <Kier2>
10.54

>  <Lipinski>
1

>  <GhoseFilter>
1

>  <FilterItLogS>
-6.35

>  <VMcGowan>
316.97

>  <LabuteASA>
172.64

>  <PEOE_VSA1>
15.37

>  <PEOE_VSA2>
0

>  <PEOE_VSA3>
4.68

>  <PEOE_VSA4>
5.1

>  <PEOE_VSA5>
0

>  <PEOE_VSA6>
30.33

>  <PEOE_VSA7>
63.06

>  <PEOE_VSA8>
29.89

>  <PEOE_VSA9>
18.49

>  <PEOE_VSA10>
5.75

>  <PEOE_VSA11>
0

>  <PEOE_VSA12>
0

>  <PEOE_VSA13>
0

>  <SMR_VSA1>
4.74

>  <SMR_VSA2>
0

>  <SMR_VSA3>
20.41

>  <SMR_VSA4>
0

>  <SMR_VSA5>
45.32

>  <SMR_VSA6>
13.65

>  <SMR_VSA7>
77.11

>  <SMR_VSA8>
0

>  <SMR_VSA9>
11.44

>  <SlogP_VSA1>
15.37

>  <SlogP_VSA2>
29.48

>  <SlogP_VSA3>
6.54

>  <SlogP_VSA4>
13.85

>  <SlogP_VSA5>
41.4

>  <SlogP_VSA6>
54.6

>  <SlogP_VSA7>
0

>  <SlogP_VSA8>
5.69

>  <SlogP_VSA9>
0

>  <SlogP_VSA10>
0

>  <SlogP_VSA11>
5.75

>  <EState_VSA1>
0

>  <EState_VSA2>
0

>  <EState_VSA3>
12.08

>  <EState_VSA4>
47.9

>  <EState_VSA5>
11.98

>  <EState_VSA6>
7.11

>  <EState_VSA7>
17.67

>  <EState_VSA8>
71.19

>  <EState_VSA9>
4.74

>  <EState_VSA10>
0

>  <VSA_EState1>
7.63

>  <VSA_EState2>
0

>  <VSA_EState3>
12.1

>  <VSA_EState4>
5.71

>  <VSA_EState5>
0.91

>  <VSA_EState6>
19.82

>  <VSA_EState7>
2.34

>  <VSA_EState8>
5.93

>  <VSA_EState9>
1.73

>  <apol>
65.29

>  <bpol>
34.68

>  <nRing>
4

>  <nHRing>
2

>  <naRing>
3

>  <naHRing>
1

>  <nARing 2>
1

>  <nAHRing 2>
1

>  <nFRing>
0

>  <nFHRing>
0

>  <nFaRing>
0

>  <nFaHRing>
0

>  <nFARing 2>
0

>  <nFAHRing 2>
0

>  <nRot>
6

>  <SLogP>
4.08

>  <SMR>
116.64

>  <TopoPSA(NO)>
51.11

>  <TopoPSA>
51.11

>  <JGI1>
0.16

>  <JGI2>
0.08

>  <JGI3>
0.05

>  <JGI4>
0.03

>  <JGI5>
0.02

>  <Diameter>
14

>  <Radius>
7

>  <TMWC10>
137.59

>  <TSRW10>
78.39

>  <MW>
390.24

>  <AMW>
6.61

>  <WPath>
2349

>  <WPol>
45

>  <Zagreb1>
152

>  <Zagreb2>
179

>  <mZagreb2>
6.47

>  <yes>


>  <nAR-cont>
0.816016

>  <nHA-cont>
0.785905698

>  <MWHBN>
0.354349765

>  <MWHBN-cont>
0.653899277

>  <TPSA-cont>
0.643220463

>  <pka_cont>
0.97

>  <yes.1>


>  <BBB_SCORE>
4.354211538

>  <MMFF94 Energy>
100.22

$$$$
Compound 438
Actelion Java MolfileCreator 2.0

  0  0  0  0  0  0              0 V3000
M  V30 BEGIN CTAB
M  V30 COUNTS 44 48 0 0 0
M  V30 BEGIN ATOM
M  V30 1 O -3.3342 0.1624 -2.2761 0
M  V30 2 C -2.5389 -0.5186 -1.624 0
M  V30 3 C -2.2684 -0.2673 -0.1281 0 CFG=2
M  V30 4 C -1.87 -1.7107 -2.2691 0
M  V30 5 O -2.3815 1.1652 0.1477 0
M  V30 6 C -0.8714 -0.6963 0.338 0 CFG=2
M  V30 7 C -0.3836 -1.7526 -1.9325 0
M  V30 8 C -1.0892 1.6248 0.009 0
M  V30 9 C -0.1767 0.5878 0.0457 0
M  V30 10 C -0.1818 -1.8398 -0.4162 0 CFG=2
M  V30 11 C -0.8148 -0.9571 1.8628 0
M  V30 12 C -0.6748 2.9286 -0.1824 0
M  V30 13 C 1.1729 0.7485 -0.195 0
M  V30 14 O -0.7678 -3.0959 -0.0138 0
M  V30 15 C 1.3201 -1.8262 0.0387 0 CFG=1
M  V30 16 C 0.6142 -1.2574 2.3479 0
M  V30 17 O -1.6406 3.8899 -0.1699 0
M  V30 18 C 0.7005 3.1341 -0.3821 0
M  V30 19 C 1.6147 2.0528 -0.4062 0
M  V30 20 C 2.0436 -0.4761 -0.3031 0
M  V30 21 N 1.3091 -2.2253 1.4826 0
M  V30 22 C -1.2346 5.2184 -0.4649 0
M  V30 23 C 2.6462 -2.5167 1.9982 0
M  V30 24 H -3.0554 -0.79 0.4282 0
M  V30 25 H -1.9905 -1.6329 -3.3555 0
M  V30 26 H -2.3905 -2.6168 -1.9422 0
M  V30 27 H 0.0543 -2.6342 -2.4163 0
M  V30 28 H 0.111 -0.873 -2.3586 0
M  V30 29 H -1.2059 -0.104 2.4328 0
M  V30 30 H -1.4624 -1.8084 2.1108 0
M  V30 31 H -0.2435 -3.38 0.7673 0
M  V30 32 H 1.8388 -2.6338 -0.4959 0
M  V30 33 H 0.5419 -1.6641 3.3646 0
M  V30 34 H 1.1852 -0.3244 2.431 0
M  V30 35 H 1.1004 4.1306 -0.5454 0
M  V30 36 H 2.6658 2.2526 -0.6032 0
M  V30 37 H 2.9415 -0.3436 0.3084 0
M  V30 38 H 2.3839 -0.5398 -1.3452 0
M  V30 39 H -0.5456 5.5978 0.2968 0
M  V30 40 H -2.1266 5.8523 -0.4515 0
M  V30 41 H -0.7935 5.2854 -1.4649 0
M  V30 42 H 3.1551 -3.2507 1.3642 0
M  V30 43 H 2.5759 -2.9637 2.9962 0
M  V30 44 H 3.2772 -1.6256 2.0738 0
M  V30 END ATOM
M  V30 BEGIN BOND
M  V30 1 2 1 2
M  V30 2 1 2 3
M  V30 3 1 2 4
M  V30 4 1 3 5
M  V30 5 1 3 6
M  V30 6 1 4 7
M  V30 7 1 5 8
M  V30 8 1 6 9
M  V30 9 1 6 10
M  V30 10 1 6 11
M  V30 11 1 8 12
M  V30 12 1 9 13
M  V30 13 1 10 14
M  V30 14 1 10 15
M  V30 15 1 11 16
M  V30 16 1 12 17
M  V30 17 2 12 18
M  V30 18 2 13 19
M  V30 19 1 13 20
M  V30 20 1 15 21
M  V30 21 1 17 22
M  V30 22 1 21 23
M  V30 23 1 7 10
M  V30 24 2 8 9
M  V30 25 1 15 20
M  V30 26 1 16 21
M  V30 27 1 18 19
M  V30 28 1 3 24
M  V30 29 1 4 25
M  V30 30 1 4 26
M  V30 31 1 7 27
M  V30 32 1 7 28
M  V30 33 1 11 29
M  V30 34 1 11 30
M  V30 35 1 14 31
M  V30 36 1 15 32
M  V30 37 1 16 33
M  V30 38 1 16 34
M  V30 39 1 18 35
M  V30 40 1 19 36
M  V30 41 1 20 37
M  V30 42 1 20 38
M  V30 43 1 22 39
M  V30 44 1 22 40
M  V30 45 1 22 41
M  V30 46 1 23 42
M  V30 47 1 23 43
M  V30 48 1 23 44
M  V30 END BOND
M  V30 BEGIN COLLECTION
M  V30 MDLV30/STEABS ATOMS=(4 3 6 10 15)
M  V30 END COLLECTION
M  V30 END CTAB
M  END
>  <Column 1>
543

>  <level_0>
614

>  <index>
614

>  <Unnamed: 0>
614

>  <NO.>
624

>  <Name>
oxycodone

>  <IUPAC_name>
(4r-4as-7ar-12bs)-4a-hydroxy-9-methoxy-3-methyl-2-4-5-6-7a-13-hexahydro-1h-4-12-methanobenzofuro[3-2-e]isoquinolin-7-one

>  <SMILES>
COc1ccc2c3c1O[C@H]1C(=O)CC[C@@]4(O)[C@@H](C2)N(C)CC[C@]314

>  <CID>
5284603

>  <logBB>
0.11

>  <BBB+/BBB->
BBB+

>  <Inchi>
InChI=1S/C18H21NO4/c1-19-8-7-17-14-10-3-4-12(22-2)15(14)23-16(17)11(20)5-6-18(17-21)13(19)9-10/h3-4-13-16-21H-5-9H2-1-2H3/t13--16+-17+-18-/m1/s1

>  <threshold>


>  <reference>
R18|R26|R27|

>  <group>
A

>  <Class>
1

>  <ABC>
18.99

>  <ABCGG>
14.83

>  <nAcid>
0

>  <nBase>
1

>  <nAromAtom>
6

>  <nAromBond>
6

>  <nAtom>
44

>  <nHeavyAtom>
23

>  <nSpiro>
1

>  <nBridgehead>
2

>  <nHetero>
5

>  <nN>
1

>  <nO>
4

>  <nF>
0

>  <BalabanJ>
1.68

>  <BertzCT>
731.98

>  <nBonds>
48

>  <nBondsO>
27

>  <nBondsS>
41

>  <nBondsD>
1

>  <nBondsT>
0

>  <nBondsA>
6

>  <nBondsM>
7

>  <nBondsKS>
44

>  <nBondsKD>
4

>  <RNCG>
0.23

>  <RPCG>
0.1

>  <FCSP3>
0.61

>  <SZ>
28

>  <Sm>
26.26

>  <Sv>
27.31

>  <Sse>
44.31

>  <Sp>
28.96

>  <Si>
49.49

>  <MZ>
0.64

>  <Mm>
0.6

>  <Mv>
0.62

>  <Mse>
1.01

>  <Mp>
0.66

>  <Mi>
1.12

>  <NsCH3>
2

>  <NdCH2>
0

>  <NssCH2>
5

>  <NtCH>
0

>  <NdsCH>
0

>  <NaaCH>
2

>  <NsssCH>
2

>  <NddC>
0

>  <NtsC>
0

>  <NdssC>
1

>  <NaasC>
4

>  <NaaaC>
0

>  <NssssC>
2

>  <NsNH3>
0

>  <NsNH2>
0

>  <NssNH2>
0

>  <NdNH>
0

>  <NssNH>
0

>  <NaaNH>
0

>  <NtN>
0

>  <NsssNH>
0

>  <NdsN>
0

>  <NaaN>
0

>  <NsssN>
1

>  <NddsN>
0

>  <NaasN>
0

>  <NssssN>
0

>  <NsOH>
1

>  <NdO>
1

>  <NssO>
2

>  <NaaO>
0

>  <NsF>
0

>  <NsSiH3>
0

>  <NssSiH2>
0

>  <NsssSiH>
0

>  <NssssSi>
0

>  <NsPH2>
0

>  <NssPH>
0

>  <NsssP>
0

>  <NdsssP>
0

>  <NsssssP>
0

>  <NsSH>
0

>  <NdS>
0

>  <NssS>
0

>  <NaaS>
0

>  <NdssS>
0

>  <NddssS>
0

>  <NsCl>
0

>  <NsBr>
0

>  <NsI>
0

>  <fragCpx>
223.05

>  <fMF>
0.41

>  <nHBAcc>
5

>  <nHBDon>
1

>  <Kier1>
15.27

>  <Kier2>
4.79

>  <Lipinski>
1

>  <GhoseFilter>
1

>  <FilterItLogS>
-3.26

>  <VMcGowan>
226.44

>  <LabuteASA>
134.73

>  <PEOE_VSA1>
19.48

>  <PEOE_VSA2>
4.79

>  <PEOE_VSA3>
0

>  <PEOE_VSA4>
0

>  <PEOE_VSA5>
0

>  <PEOE_VSA6>
6.07

>  <PEOE_VSA7>
44.48

>  <PEOE_VSA8>
18.03

>  <PEOE_VSA9>
18.13

>  <PEOE_VSA10>
0

>  <PEOE_VSA11>
23.39

>  <PEOE_VSA12>
0

>  <PEOE_VSA13>
0

>  <SMR_VSA1>
19.37

>  <SMR_VSA2>
0

>  <SMR_VSA3>
4.9

>  <SMR_VSA4>
0

>  <SMR_VSA5>
48.85

>  <SMR_VSA6>
20.7

>  <SMR_VSA7>
23.26

>  <SMR_VSA8>
0

>  <SMR_VSA9>
11.5

>  <SlogP_VSA1>
9.47

>  <SlogP_VSA2>
54.24

>  <SlogP_VSA3>
16.63

>  <SlogP_VSA4>
0

>  <SlogP_VSA5>
30.39

>  <SlogP_VSA6>
12.13

>  <SlogP_VSA7>
0

>  <SlogP_VSA8>
0

>  <SlogP_VSA9>
0

>  <SlogP_VSA10>
0

>  <SlogP_VSA11>
11.5

>  <EState_VSA1>
17.12

>  <EState_VSA2>
11.83

>  <EState_VSA3>
24.34

>  <EState_VSA4>
24.95

>  <EState_VSA5>
5.56

>  <EState_VSA6>
7.11

>  <EState_VSA7>
6.07

>  <EState_VSA8>
18.01

>  <EState_VSA9>
9.47

>  <EState_VSA10>
9.9

>  <VSA_EState1>
11.63

>  <VSA_EState2>
14.91

>  <VSA_EState3>
11.75

>  <VSA_EState4>
0.74

>  <VSA_EState5>
1.47

>  <VSA_EState6>
4.05

>  <VSA_EState7>
1.89

>  <VSA_EState8>
0.87

>  <VSA_EState9>
3.7

>  <apol>
48.37

>  <bpol>
27.12

>  <nRing>
5

>  <nHRing>
2

>  <naRing>
1

>  <naHRing>
0

>  <nARing 2>
4

>  <nAHRing 2>
2

>  <nFRing>
1

>  <nFHRing>
1

>  <nFaRing>
0

>  <nFaHRing>
0

>  <nFARing 2>
1

>  <nFAHRing 2>
1

>  <nRot>
1

>  <SLogP>
1.05

>  <SMR>
83.02

>  <TopoPSA(NO)>
59

>  <TopoPSA>
59

>  <JGI1>
0.22

>  <JGI2>
0.12

>  <JGI3>
0.06

>  <JGI4>
0.06

>  <JGI5>
0.03

>  <Diameter>
9

>  <Radius>
5

>  <TMWC10>
130.66

>  <TSRW10>
74.13

>  <MW>
315.15

>  <AMW>
7.16

>  <WPath>
907

>  <WPol>
57

>  <Zagreb1>
144

>  <Zagreb2>
191

>  <mZagreb2>
4.78

>  <yes>


>  <nAR-cont>
0.199399

>  <nHA-cont>
0.967789328

>  <MWHBN>
0.33798124

>  <MWHBN-cont>
0.714443284

>  <TPSA-cont>
0.588143363

>  <pka_cont>
0.97

>  <yes.1>


>  <BBB_SCORE>
3.900139981

>  <MMFF94 Energy>
113.35

$$$$
Compound 439
Actelion Java MolfileCreator 2.0

  0  0  0  0  0  0              0 V3000
M  V30 BEGIN CTAB
M  V30 COUNTS 41 45 0 0 0
M  V30 BEGIN ATOM
M  V30 1 O -0.5634 2.7391 2.2553 0
M  V30 2 C -0.2636 1.5709 2.084 0
M  V30 3 N -0.4466 0.9664 0.8116 0
M  V30 4 C 0.2565 0.7215 3.1442 0
M  V30 5 C -0.0587 -0.2865 0.5685 0
M  V30 6 C -1.0336 1.8032 -0.257 0
M  V30 7 C 0.608 -0.5883 2.812 0
M  V30 8 C 0.3634 1.2354 4.4481 0
M  V30 9 N 0.5155 -1.0689 1.5107 0 CHG=1
M  V30 10 C -0.2467 -0.8205 -0.8498 0
M  V30 11 C -2.1061 0.9804 -0.9432 0
M  V30 12 C 1.0479 -1.3927 3.8826 0
M  V30 13 C 0.8216 0.4189 5.4729 0
M  V30 14 C 1.0773 -2.4114 1.2079 0
M  V30 15 N 0.9312 -0.4731 -1.6564 0
M  V30 16 C -1.4979 -0.2534 -1.5942 0
M  V30 17 C 1.1577 -0.8982 5.1911 0
M  V30 18 C 0.4665 -0.1153 -2.9176 0
M  V30 19 C -0.9182 0.0443 -2.9493 0
M  V30 20 C 1.2353 0.1677 -4.0288 0
M  V30 21 C -1.5742 0.4358 -4.1062 0
M  V30 22 C 0.5896 0.5665 -5.2024 0
M  V30 23 C -0.8067 0.6941 -5.2422 0
M  V30 24 H -0.2389 2.1272 -0.9371 0
M  V30 25 H -1.5026 2.7013 0.1575 0
M  V30 26 H 0.0847 2.266 4.6679 0
M  V30 27 H -0.3691 -1.9101 -0.8401 0
M  V30 28 H -2.8328 0.6554 -0.1872 0
M  V30 29 H -2.654 1.5951 -1.6662 0
M  V30 30 H 1.3081 -2.439 3.7481 0
M  V30 31 H 0.9071 0.8036 6.4882 0
M  V30 32 H 2.0284 -2.558 1.7303 0
M  V30 33 H 1.3226 -2.5204 0.1503 0
M  V30 34 H 0.3548 -3.1796 1.4978 0
M  V30 35 H 1.8464 -0.8916 -1.5534 0
M  V30 36 H -2.2609 -1.0351 -1.6953 0
M  V30 37 H 1.5048 -1.5498 5.9928 0
M  V30 38 H 2.3166 0.0837 -4.0054 0
M  V30 39 H -2.6539 0.5462 -4.1401 0
M  V30 40 H 1.1743 0.7836 -6.0941 0
M  V30 41 H -1.2912 1.0042 -6.1663 0
M  V30 END ATOM
M  V30 BEGIN BOND
M  V30 1 2 1 2
M  V30 2 1 2 3
M  V30 3 1 2 4
M  V30 4 1 3 5
M  V30 5 1 3 6
M  V30 6 2 4 7
M  V30 7 1 4 8
M  V30 8 2 5 9
M  V30 9 1 5 10
M  V30 10 1 6 11
M  V30 11 1 7 12
M  V30 12 2 8 13
M  V30 13 1 9 14
M  V30 14 1 10 15
M  V30 15 1 10 16
M  V30 16 2 12 17
M  V30 17 1 15 18
M  V30 18 1 16 19
M  V30 19 1 18 20
M  V30 20 1 19 21
M  V30 21 2 20 22
M  V30 22 2 21 23
M  V30 23 1 7 9
M  V30 24 1 11 16
M  V30 25 1 13 17
M  V30 26 2 18 19
M  V30 27 1 22 23
M  V30 28 1 6 24
M  V30 29 1 6 25
M  V30 30 1 8 26
M  V30 31 1 10 27
M  V30 32 1 11 28
M  V30 33 1 11 29
M  V30 34 1 12 30
M  V30 35 1 13 31
M  V30 36 1 14 32
M  V30 37 1 14 33
M  V30 38 1 14 34
M  V30 39 1 15 35
M  V30 40 1 16 36
M  V30 41 1 17 37
M  V30 42 1 20 38
M  V30 43 1 21 39
M  V30 44 1 22 40
M  V30 45 1 23 41
M  V30 END BOND
M  V30 END CTAB
M  END
>  <Column 1>
544

>  <level_0>
615

>  <index>
615

>  <Unnamed: 0>
615

>  <NO.>
625

>  <Name>
dehydroevodiamine

>  <IUPAC_name>
21-methyl-3-13-diaza-21-azoniapentacyclo[11.8.0.02-10.04-9.015-20]henicosa-1(21)-4-6-8-15-17-19-heptaen-14-one

>  <SMILES>
C[n+]1c2n(c(=O)c3ccccc31)CCC1c3ccccc3NC21

>  <CID>
125676

>  <logBB>
0.11

>  <BBB+/BBB->
BBB+

>  <Inchi>
InChI=1S/C19H18N3O/c1-21-16-9-5-3-7-14(16)19(23)22-11-10-13-12-6-2-4-8-15(12)20-17(13)18(21)22/h2-9-13-17-20H-10-11H2-1H3/q+1

>  <threshold>


>  <reference>
R2|R2|R25|R27|R46|

>  <group>
A

>  <Class>
1

>  <ABC>
18.91

>  <ABCGG>
14.37

>  <nAcid>
0

>  <nBase>
1

>  <nAromAtom>
16

>  <nAromBond>
17

>  <nAtom>
41

>  <nHeavyAtom>
23

>  <nSpiro>
0

>  <nBridgehead>
0

>  <nHetero>
4

>  <nN>
3

>  <nO>
1

>  <nF>
0

>  <BalabanJ>
1.44

>  <BertzCT>
1005.16

>  <nBonds>
45

>  <nBondsO>
27

>  <nBondsS>
27

>  <nBondsD>
1

>  <nBondsT>
0

>  <nBondsA>
17

>  <nBondsM>
18

>  <nBondsKS>
37

>  <nBondsKD>
8

>  <RNCG>
0.25

>  <RPCG>
0.14

>  <FCSP3>
0.26

>  <SZ>
26.83

>  <Sm>
25.34

>  <Sv>
26.87

>  <Sse>
40.81

>  <Sp>
28.64

>  <Si>
45.82

>  <MZ>
0.65

>  <Mm>
0.62

>  <Mv>
0.66

>  <Mse>
1

>  <Mp>
0.7

>  <Mi>
1.12

>  <NsCH3>
1

>  <NdCH2>
0

>  <NssCH2>
2

>  <NtCH>
0

>  <NdsCH>
0

>  <NaaCH>
8

>  <NsssCH>
2

>  <NddC>
0

>  <NtsC>
0

>  <NdssC>
0

>  <NaasC>
3

>  <NaaaC>
2

>  <NssssC>
0

>  <NsNH3>
0

>  <NsNH2>
0

>  <NssNH2>
0

>  <NdNH>
0

>  <NssNH>
1

>  <NaaNH>
0

>  <NtN>
0

>  <NsssNH>
0

>  <NdsN>
0

>  <NaaN>
0

>  <NsssN>
0

>  <NddsN>
0

>  <NaasN>
2

>  <NssssN>
0

>  <NsOH>
0

>  <NdO>
1

>  <NssO>
0

>  <NaaO>
0

>  <NsF>
0

>  <NsSiH3>
0

>  <NssSiH2>
0

>  <NsssSiH>
0

>  <NssssSi>
0

>  <NsPH2>
0

>  <NssPH>
0

>  <NsssP>
0

>  <NdsssP>
0

>  <NsssssP>
0

>  <NsSH>
0

>  <NdS>
0

>  <NssS>
0

>  <NaaS>
0

>  <NdssS>
0

>  <NddssS>
0

>  <NsCl>
0

>  <NsBr>
0

>  <NsI>
0

>  <fragCpx>
223.04

>  <fMF>
0.51

>  <nHBAcc>
3

>  <nHBDon>
1

>  <Kier1>
15.27

>  <Kier2>
5.77

>  <Lipinski>
1

>  <GhoseFilter>
1

>  <FilterItLogS>
-3.96

>  <VMcGowan>
227.83

>  <LabuteASA>
133.55

>  <PEOE_VSA1>
5.32

>  <PEOE_VSA2>
0

>  <PEOE_VSA3>
9.36

>  <PEOE_VSA4>
4.57

>  <PEOE_VSA5>
0

>  <PEOE_VSA6>
30.33

>  <PEOE_VSA7>
30.18

>  <PEOE_VSA8>
11.61

>  <PEOE_VSA9>
13.59

>  <PEOE_VSA10>
16.94

>  <PEOE_VSA11>
0

>  <PEOE_VSA12>
0

>  <PEOE_VSA13>
5.82

>  <SMR_VSA1>
4.57

>  <SMR_VSA2>
0

>  <SMR_VSA3>
4.57

>  <SMR_VSA4>
7.05

>  <SMR_VSA5>
24.93

>  <SMR_VSA6>
5.32

>  <SMR_VSA7>
70.27

>  <SMR_VSA8>
0

>  <SMR_VSA9>
0

>  <SlogP_VSA1>
15.44

>  <SlogP_VSA2>
4.57

>  <SlogP_VSA3>
13.59

>  <SlogP_VSA4>
0

>  <SlogP_VSA5>
29.77

>  <SlogP_VSA6>
53.33

>  <SlogP_VSA7>
0

>  <SlogP_VSA8>
10.9

>  <SlogP_VSA9>
0

>  <SlogP_VSA10>
5.69

>  <SlogP_VSA11>
0

>  <EState_VSA1>
0

>  <EState_VSA2>
11.6

>  <EState_VSA3>
5.92

>  <EState_VSA4>
29.69

>  <EState_VSA5>
11.25

>  <EState_VSA6>
0

>  <EState_VSA7>
28.83

>  <EState_VSA8>
41.2

>  <EState_VSA9>
0

>  <EState_VSA10>
4.79

>  <VSA_EState1>
4.15

>  <VSA_EState2>
12.91

>  <VSA_EState3>
4.44

>  <VSA_EState4>
3.72

>  <VSA_EState5>
1.53

>  <VSA_EState6>
16.57

>  <VSA_EState7>
1

>  <VSA_EState8>
0.78

>  <VSA_EState9>
2.07

>  <apol>
47.83

>  <bpol>
22.92

>  <nRing>
5

>  <nHRing>
3

>  <naRing>
3

>  <naHRing>
1

>  <nARing 2>
2

>  <nAHRing 2>
2

>  <nFRing>
1

>  <nFHRing>
1

>  <nFaRing>
0

>  <nFaHRing>
0

>  <nFARing 2>
1

>  <nFAHRing 2>
1

>  <nRot>
0

>  <SLogP>
2.48

>  <SMR>
89.55

>  <TopoPSA(NO)>
37.91

>  <TopoPSA>
37.91

>  <JGI1>
0.11

>  <JGI2>
0.08

>  <JGI3>
0.06

>  <JGI4>
0.05

>  <JGI5>
0.03

>  <Diameter>
10

>  <Radius>
5

>  <TMWC10>
128.07

>  <TSRW10>
72.89

>  <MW>
304.14

>  <AMW>
7.42

>  <WPath>
1033

>  <WPol>
46

>  <Zagreb1>
136

>  <Zagreb2>
172

>  <mZagreb2>
4.86

>  <yes>


>  <nAR-cont>
1

>  <nHA-cont>
0.967789328

>  <MWHBN>
0.229362926

>  <MWHBN-cont>
0.987402736

>  <TPSA-cont>
0.735364659

>  <pka_cont>
0.97

>  <yes.1>


>  <BBB_SCORE>
5.404622751

>  <MMFF94 Energy>
36.8

$$$$
Compound 440
Actelion Java MolfileCreator 2.0

  0  0  0  0  0  0              0 V3000
M  V30 BEGIN CTAB
M  V30 COUNTS 64 68 0 0 0
M  V30 BEGIN ATOM
M  V30 1 O -2.8767 6.5617 0.8783 0
M  V30 2 C -2.6145 5.7846 -0.0398 0
M  V30 3 N -1.3376 5.3175 -0.3242 0
M  V30 4 C -3.7148 5.1877 -0.9107 0
M  V30 5 C -1.1334 4.4478 -1.4303 0
M  V30 6 C -0.2177 5.7647 0.4838 0
M  V30 7 O -3.3913 4.8663 -2.2516 0
M  V30 8 C -2.1664 4.2644 -2.3595 0
M  V30 9 C 0.0841 3.7852 -1.6429 0
M  V30 10 C -1.9779 3.4715 -3.4914 0
M  V30 11 C 0.2776 2.9669 -2.7692 0
M  V30 12 C -0.7627 2.8205 -3.6935 0
M  V30 13 C 1.5913 2.2503 -2.9797 0
M  V30 14 C 1.5253 0.7427 -2.6725 0
M  V30 15 C 2.8233 0.0574 -3.1188 0
M  V30 16 C 1.2989 0.4624 -1.1808 0
M  V30 17 C 2.8245 -1.427 -2.7555 0
M  V30 18 C 1.3635 -1.0347 -0.8658 0
M  V30 19 N 2.6337 -1.6292 -1.31 0
M  V30 20 C 2.7063 -3.077 -0.9999 0
M  V30 21 C 2.6633 -3.425 0.5008 0
M  V30 22 O 1.3007 -3.5407 0.9192 0
M  V30 23 C 1.0554 -3.7121 2.26 0
M  V30 24 C -0.3016 -3.6091 2.6637 0
M  V30 25 C 2.0428 -3.9878 3.2081 0
M  V30 26 C -0.6485 -3.775 4.0209 0
M  V30 27 C -1.3554 -3.3399 1.7706 0
M  V30 28 C 1.6938 -4.1507 4.5454 0
M  V30 29 N -1.9142 -3.6858 4.4691 0
M  V30 30 C 0.3586 -4.0418 4.935 0
M  V30 31 C -2.6649 -3.2468 2.2294 0
M  V30 32 C -2.9034 -3.4253 3.5829 0
M  V30 33 C -4.2998 -3.3333 4.1208 0
M  V30 34 H -4.0944 4.2882 -0.4099 0
M  V30 35 H -4.5355 5.9128 -0.9456 0
M  V30 36 H 0.1844 4.9149 1.044 0
M  V30 37 H 0.5549 6.1932 -0.1622 0
M  V30 38 H -0.5197 6.5312 1.2033 0
M  V30 39 H 0.9026 3.8889 -0.9362 0
M  V30 40 H -2.7827 3.3569 -4.2127 0
M  V30 41 H -0.6323 2.1993 -4.5769 0
M  V30 42 H 1.8931 2.4033 -4.0245 0
M  V30 43 H 2.376 2.7242 -2.3755 0
M  V30 44 H 0.6946 0.2961 -3.2362 0
M  V30 45 H 3.6876 0.5479 -2.6517 0
M  V30 46 H 2.9466 0.1629 -4.2035 0
M  V30 47 H 0.3205 0.843 -0.8653 0
M  V30 48 H 2.0535 0.9905 -0.5829 0
M  V30 49 H 3.7893 -1.8476 -3.0644 0
M  V30 50 H 2.0449 -1.9463 -3.3286 0
M  V30 51 H 1.2568 -1.1304 0.2194 0
M  V30 52 H 0.5098 -1.5462 -1.3291 0
M  V30 53 H 3.6698 -3.4436 -1.3763 0
M  V30 54 H 1.913 -3.6201 -1.5299 0
M  V30 55 H 3.1562 -4.3948 0.6401 0
M  V30 56 H 3.1954 -2.6596 1.0794 0
M  V30 57 H 3.0889 -4.0873 2.9394 0
M  V30 58 H -1.1553 -3.202 0.7109 0
M  V30 59 H 2.4578 -4.3646 5.2886 0
M  V30 60 H 0.0941 -4.1704 5.9822 0
M  V30 61 H -3.4759 -3.0394 1.5396 0
M  V30 62 H -4.3123 -3.4967 5.2033 0
M  V30 63 H -4.9355 -4.0922 3.6543 0
M  V30 64 H -4.7174 -2.3414 3.9214 0
M  V30 END ATOM
M  V30 BEGIN BOND
M  V30 1 2 1 2
M  V30 2 1 2 3
M  V30 3 1 2 4
M  V30 4 1 3 5
M  V30 5 1 3 6
M  V30 6 1 4 7
M  V30 7 2 5 8
M  V30 8 1 5 9
M  V30 9 1 8 10
M  V30 10 2 9 11
M  V30 11 2 10 12
M  V30 12 1 11 13
M  V30 13 1 13 14
M  V30 14 1 14 15
M  V30 15 1 14 16
M  V30 16 1 15 17
M  V30 17 1 16 18
M  V30 18 1 17 19
M  V30 19 1 19 20
M  V30 20 1 20 21
M  V30 21 1 21 22
M  V30 22 1 22 23
M  V30 23 1 23 24
M  V30 24 2 23 25
M  V30 25 1 24 26
M  V30 26 2 24 27
M  V30 27 1 25 28
M  V30 28 2 26 29
M  V30 29 1 26 30
M  V30 30 1 27 31
M  V30 31 1 29 32
M  V30 32 1 32 33
M  V30 33 1 7 8
M  V30 34 1 11 12
M  V30 35 1 18 19
M  V30 36 2 28 30
M  V30 37 2 31 32
M  V30 38 1 4 34
M  V30 39 1 4 35
M  V30 40 1 6 36
M  V30 41 1 6 37
M  V30 42 1 6 38
M  V30 43 1 9 39
M  V30 44 1 10 40
M  V30 45 1 12 41
M  V30 46 1 13 42
M  V30 47 1 13 43
M  V30 48 1 14 44
M  V30 49 1 15 45
M  V30 50 1 15 46
M  V30 51 1 16 47
M  V30 52 1 16 48
M  V30 53 1 17 49
M  V30 54 1 17 50
M  V30 55 1 18 51
M  V30 56 1 18 52
M  V30 57 1 20 53
M  V30 58 1 20 54
M  V30 59 1 21 55
M  V30 60 1 21 56
M  V30 61 1 25 57
M  V30 62 1 27 58
M  V30 63 1 28 59
M  V30 64 1 30 60
M  V30 65 1 31 61
M  V30 66 1 33 62
M  V30 67 1 33 63
M  V30 68 1 33 64
M  V30 END BOND
M  V30 END CTAB
M  END
>  <Column 1>
545

>  <level_0>
616

>  <index>
616

>  <Unnamed: 0>
616

>  <NO.>
626

>  <Name>
chembl246597

>  <IUPAC_name>
4-methyl-6-[[1-[2-(2-methylquinolin-5-yl)oxyethyl]piperidin-4-yl]methyl]-1-4-benzoxazin-3-one

>  <SMILES>
Cc1ccc2c(OCCN3CCC(Cc4ccc5c(c4)N(C)C(=O)CO5)CC3)cccc2n1

>  <CID>
10114480

>  <logBB>
0.11

>  <BBB+/BBB->
BBB+

>  <Inchi>
InChI=1S/C27H31N3O3/c1-19-6-8-22-23(28-19)4-3-5-25(22)32-15-14-30-12-10-20(11-13-30)16-21-7-9-26-24(17-21)29(2)27(31)18-33-26/h3-9-17-20H-10-16-18H2-1-2H3

>  <threshold>


>  <reference>
R18|R26|R27|

>  <group>
A

>  <Class>
1

>  <ABC>
26.29

>  <ABCGG>
17.31

>  <nAcid>
0

>  <nBase>
1

>  <nAromAtom>
16

>  <nAromBond>
17

>  <nAtom>
64

>  <nHeavyAtom>
33

>  <nSpiro>
0

>  <nBridgehead>
0

>  <nHetero>
6

>  <nN>
3

>  <nO>
3

>  <nF>
0

>  <BalabanJ>
0.99

>  <BertzCT>
1154.56

>  <nBonds>
68

>  <nBondsO>
37

>  <nBondsS>
50

>  <nBondsD>
1

>  <nBondsT>
0

>  <nBondsA>
17

>  <nBondsM>
18

>  <nBondsKS>
59

>  <nBondsKD>
9

>  <RNCG>
0.19

>  <RPCG>
0.1

>  <FCSP3>
0.41

>  <SZ>
39.67

>  <Sm>
37.1

>  <Sv>
39.82

>  <Sse>
63.74

>  <Sp>
42.79

>  <Si>
71.94

>  <MZ>
0.62

>  <Mm>
0.58

>  <Mv>
0.62

>  <Mse>
1

>  <Mp>
0.67

>  <Mi>
1.12

>  <NsCH3>
2

>  <NdCH2>
0

>  <NssCH2>
8

>  <NtCH>
0

>  <NdsCH>
0

>  <NaaCH>
8

>  <NsssCH>
1

>  <NddC>
0

>  <NtsC>
0

>  <NdssC>
1

>  <NaasC>
5

>  <NaaaC>
2

>  <NssssC>
0

>  <NsNH3>
0

>  <NsNH2>
0

>  <NssNH2>
0

>  <NdNH>
0

>  <NssNH>
0

>  <NaaNH>
0

>  <NtN>
0

>  <NsssNH>
0

>  <NdsN>
0

>  <NaaN>
1

>  <NsssN>
2

>  <NddsN>
0

>  <NaasN>
0

>  <NssssN>
0

>  <NsOH>
0

>  <NdO>
1

>  <NssO>
2

>  <NaaO>
0

>  <NsF>
0

>  <NsSiH3>
0

>  <NssSiH2>
0

>  <NsssSiH>
0

>  <NssssSi>
0

>  <NsPH2>
0

>  <NssPH>
0

>  <NsssP>
0

>  <NdsssP>
0

>  <NsssssP>
0

>  <NsSH>
0

>  <NdS>
0

>  <NssS>
0

>  <NaaS>
0

>  <NdssS>
0

>  <NddssS>
0

>  <NsCl>
0

>  <NsBr>
0

>  <NsI>
0

>  <fragCpx>
313.06

>  <fMF>
0.47

>  <nHBAcc>
5

>  <nHBDon>
0

>  <Kier1>
24.68

>  <Kier2>
11.37

>  <Lipinski>
1

>  <GhoseFilter>
0

>  <FilterItLogS>
-6.63

>  <VMcGowan>
345.84

>  <LabuteASA>
194.67

>  <PEOE_VSA1>
14.37

>  <PEOE_VSA2>
14.68

>  <PEOE_VSA3>
0

>  <PEOE_VSA4>
0

>  <PEOE_VSA5>
0

>  <PEOE_VSA6>
12.13

>  <PEOE_VSA7>
87.16

>  <PEOE_VSA8>
24.67

>  <PEOE_VSA9>
11.2

>  <PEOE_VSA10>
18.11

>  <PEOE_VSA11>
6.61

>  <PEOE_VSA12>
0

>  <PEOE_VSA13>
5.91

>  <SMR_VSA1>
14.27

>  <SMR_VSA2>
0

>  <SMR_VSA3>
9.88

>  <SMR_VSA4>
5.92

>  <SMR_VSA5>
26.19

>  <SMR_VSA6>
44.8

>  <SMR_VSA7>
59.79

>  <SMR_VSA8>
0

>  <SMR_VSA9>
11.5

>  <SlogP_VSA1>
14.37

>  <SlogP_VSA2>
55.69

>  <SlogP_VSA3>
11.22

>  <SlogP_VSA4>
12.84

>  <SlogP_VSA5>
24.1

>  <SlogP_VSA6>
48.53

>  <SlogP_VSA7>
0

>  <SlogP_VSA8>
10.9

>  <SlogP_VSA9>
0

>  <SlogP_VSA10>
5.69

>  <SlogP_VSA11>
11.5

>  <EState_VSA1>
0

>  <EState_VSA2>
12.51

>  <EState_VSA3>
12.52

>  <EState_VSA4>
59.84

>  <EState_VSA5>
18.41

>  <EState_VSA6>
4.9

>  <EState_VSA7>
44.3

>  <EState_VSA8>
28.08

>  <EState_VSA9>
9.47

>  <EState_VSA10>
4.79

>  <VSA_EState1>
11.68

>  <VSA_EState2>
20.73

>  <VSA_EState3>
1.07

>  <VSA_EState4>
4.17

>  <VSA_EState5>
2.38

>  <VSA_EState6>
16.47

>  <VSA_EState7>
3.4

>  <VSA_EState8>
5.94

>  <VSA_EState9>
1.82

>  <apol>
71.47

>  <bpol>
40

>  <nRing>
5

>  <nHRing>
3

>  <naRing>
3

>  <naHRing>
1

>  <nARing 2>
2

>  <nAHRing 2>
2

>  <nFRing>
2

>  <nFHRing>
2

>  <nFaRing>
1

>  <nFaHRing>
1

>  <nFARing 2>
1

>  <nFAHRing 2>
1

>  <nRot>
6

>  <SLogP>
4.23

>  <SMR>
130.19

>  <TopoPSA(NO)>
54.9

>  <TopoPSA>
54.9

>  <JGI1>
0.18

>  <JGI2>
0.07

>  <JGI3>
0.04

>  <JGI4>
0.04

>  <JGI5>
0.02

>  <Diameter>
19

>  <Radius>
10

>  <TMWC10>
148

>  <TSRW10>
69.4

>  <MW>
445.24

>  <AMW>
6.96

>  <WPath>
3956

>  <WPol>
54

>  <Zagreb1>
178

>  <Zagreb2>
210

>  <mZagreb2>
7.14

>  <yes>


>  <nAR-cont>
1

>  <nHA-cont>
0.61399562

>  <MWHBN>
0.236958841

>  <MWHBN-cont>
0.978926947

>  <TPSA-cont>
0.616763909

>  <pka_cont>
0.97

>  <yes.1>


>  <BBB_SCORE>
4.800913859

>  <MMFF94 Energy>
117.16

$$$$
Compound 441
Actelion Java MolfileCreator 2.0

  0  0  0  0  0  0              0 V3000
M  V30 BEGIN CTAB
M  V30 COUNTS 23 24 0 0 0
M  V30 BEGIN ATOM
M  V30 1 Cl -1.5624 -1.3979 1.5624 0
M  V30 2 C -0.873 0.1903 1.6164 0
M  V30 3 C -0.4569 0.8593 0.4481 0
M  V30 4 C -0.8024 0.8082 2.8723 0
M  V30 5 N -0.4442 0.2402 -0.8147 0
M  V30 6 C 0.0338 2.175 0.6016 0
M  V30 7 C -0.3118 2.106 2.9924 0
M  V30 8 C 0.6874 -0.5928 -1.1463 0 CFG=2
M  V30 9 Cl 0.5691 3.0859 -0.7717 0
M  V30 10 C 0.1036 2.7918 1.8553 0
M  V30 11 N 0.8759 -0.5319 -2.6084 0
M  V30 12 N 0.6439 -1.9876 -0.7342 0
M  V30 13 C 0.6207 -1.736 -2.9965 0
M  V30 14 C 0.2654 -2.7118 -1.9304 0
M  V30 15 H -1.138 0.2797 3.7617 0
M  V30 16 H -0.5921 0.8917 -1.5818 0
M  V30 17 H -0.2594 2.5826 3.9684 0
M  V30 18 H 1.5941 -0.1599 -0.7044 0
M  V30 19 H 0.4839 3.8064 1.9478 0
M  V30 20 H -0.1014 -2.0447 -0.0427 0
M  V30 21 H 0.6348 -2.0458 -4.0508 0
M  V30 22 H -0.8061 -2.926 -1.9801 0
M  V30 23 H 0.8371 -3.6344 -2.0496 0
M  V30 END ATOM
M  V30 BEGIN BOND
M  V30 1 1 1 2
M  V30 2 2 2 3
M  V30 3 1 2 4
M  V30 4 1 3 5
M  V30 5 1 3 6
M  V30 6 2 4 7
M  V30 7 1 5 8
M  V30 8 1 6 9
M  V30 9 2 6 10
M  V30 10 1 8 11
M  V30 11 1 8 12
M  V30 12 2 11 13
M  V30 13 1 12 14
M  V30 14 1 7 10
M  V30 15 1 13 14
M  V30 16 1 4 15
M  V30 17 1 5 16
M  V30 18 1 7 17
M  V30 19 1 8 18
M  V30 20 1 10 19
M  V30 21 1 12 20
M  V30 22 1 13 21
M  V30 23 1 14 22
M  V30 24 1 14 23
M  V30 END BOND
M  V30 BEGIN COLLECTION
M  V30 MDLV30/STERAC1 ATOMS=(1 8)
M  V30 END COLLECTION
M  V30 END CTAB
M  END
>  <Column 1>
546

>  <level_0>
617

>  <index>
617

>  <Unnamed: 0>
617

>  <NO.>
627

>  <Name>
184886-95-1

>  <IUPAC_name>
n-(2-6-dichlorophenyl)-2-5-dihydro-1h-imidazol-2-amine

>  <SMILES>
Clc1cccc(Cl)c1NC1N=CCN1

>  <CID>
13071367

>  <logBB>
0.11

>  <BBB+/BBB->
BBB+

>  <Inchi>
InChI=1S/C9H9Cl2N3/c10-6-2-1-3-7(11)8(6)14-9-12-4-5-13-9/h1-4-9-13-14H-5H2

>  <threshold>


>  <reference>
R2|R2|R8|R27|

>  <group>
A

>  <Class>
1

>  <ABC>
10.74

>  <ABCGG>
9.87

>  <nAcid>
0

>  <nBase>
1

>  <nAromAtom>
6

>  <nAromBond>
6

>  <nAtom>
23

>  <nHeavyAtom>
14

>  <nSpiro>
0

>  <nBridgehead>
0

>  <nHetero>
5

>  <nN>
3

>  <nO>
0

>  <nF>
0

>  <BalabanJ>
1.86

>  <BertzCT>
344.82

>  <nBonds>
24

>  <nBondsO>
15

>  <nBondsS>
17

>  <nBondsD>
1

>  <nBondsT>
0

>  <nBondsA>
6

>  <nBondsM>
7

>  <nBondsKS>
20

>  <nBondsKD>
4

>  <RNCG>
0.29

>  <RPCG>
0.15

>  <FCSP3>
0.22

>  <SZ>
19.67

>  <Sm>
19.16

>  <Sv>
15.89

>  <Sse>
23.52

>  <Sp>
17.18

>  <Si>
26.04

>  <MZ>
0.86

>  <Mm>
0.83

>  <Mv>
0.69

>  <Mse>
1.02

>  <Mp>
0.75

>  <Mi>
1.13

>  <NsCH3>
0

>  <NdCH2>
0

>  <NssCH2>
1

>  <NtCH>
0

>  <NdsCH>
1

>  <NaaCH>
3

>  <NsssCH>
1

>  <NddC>
0

>  <NtsC>
0

>  <NdssC>
0

>  <NaasC>
3

>  <NaaaC>
0

>  <NssssC>
0

>  <NsNH3>
0

>  <NsNH2>
0

>  <NssNH2>
0

>  <NdNH>
0

>  <NssNH>
2

>  <NaaNH>
0

>  <NtN>
0

>  <NsssNH>
0

>  <NdsN>
1

>  <NaaN>
0

>  <NsssN>
0

>  <NddsN>
0

>  <NaasN>
0

>  <NssssN>
0

>  <NsOH>
0

>  <NdO>
0

>  <NssO>
0

>  <NaaO>
0

>  <NsF>
0

>  <NsSiH3>
0

>  <NssSiH2>
0

>  <NsssSiH>
0

>  <NssssSi>
0

>  <NsPH2>
0

>  <NssPH>
0

>  <NsssP>
0

>  <NdsssP>
0

>  <NsssssP>
0

>  <NsSH>
0

>  <NdS>
0

>  <NssS>
0

>  <NaaS>
0

>  <NdssS>
0

>  <NddssS>
0

>  <NsCl>
2

>  <NsBr>
0

>  <NsI>
0

>  <fragCpx>
43.05

>  <fMF>
0.52

>  <nHBAcc>
3

>  <nHBDon>
2

>  <Kier1>
10.52

>  <Kier2>
4.68

>  <Lipinski>
1

>  <GhoseFilter>
1

>  <FilterItLogS>
-3.7

>  <VMcGowan>
153.17

>  <LabuteASA>
92.12

>  <PEOE_VSA1>
5.32

>  <PEOE_VSA2>
10.31

>  <PEOE_VSA3>
0

>  <PEOE_VSA4>
0

>  <PEOE_VSA5>
0

>  <PEOE_VSA6>
29.27

>  <PEOE_VSA7>
12.13

>  <PEOE_VSA8>
12.76

>  <PEOE_VSA9>
15.73

>  <PEOE_VSA10>
0

>  <PEOE_VSA11>
6.29

>  <PEOE_VSA12>
0

>  <PEOE_VSA13>
0

>  <SMR_VSA1>
0

>  <SMR_VSA2>
0

>  <SMR_VSA3>
5.32

>  <SMR_VSA4>
4.99

>  <SMR_VSA5>
6.29

>  <SMR_VSA6>
11.86

>  <SMR_VSA7>
28.24

>  <SMR_VSA8>
0

>  <SMR_VSA9>
0

>  <SlogP_VSA1>
10.63

>  <SlogP_VSA2>
19.05

>  <SlogP_VSA3>
0

>  <SlogP_VSA4>
0

>  <SlogP_VSA5>
0

>  <SlogP_VSA6>
23.19

>  <SlogP_VSA7>
10.05

>  <SlogP_VSA8>
0

>  <SlogP_VSA9>
0

>  <SlogP_VSA10>
5.69

>  <SlogP_VSA11>
0

>  <EState_VSA1>
0

>  <EState_VSA2>
6.29

>  <EState_VSA3>
15.73

>  <EState_VSA4>
6.54

>  <EState_VSA5>
0

>  <EState_VSA6>
18.2

>  <EState_VSA7>
6.21

>  <EState_VSA8>
15.63

>  <EState_VSA9>
23.2

>  <EState_VSA10>
0

>  <VSA_EState1>
0

>  <VSA_EState2>
4.15

>  <VSA_EState3>
7.41

>  <VSA_EState4>
0.72

>  <VSA_EState5>
0

>  <VSA_EState6>
5.38

>  <VSA_EState7>
1.68

>  <VSA_EState8>
0.76

>  <VSA_EState9>
0

>  <apol>
28.69

>  <bpol>
12.33

>  <nRing>
2

>  <nHRing>
1

>  <naRing>
1

>  <naHRing>
0

>  <nARing 2>
1

>  <nAHRing 2>
1

>  <nFRing>
0

>  <nFHRing>
0

>  <nFaRing>
0

>  <nFaHRing>
0

>  <nFARing 2>
0

>  <nFAHRing 2>
0

>  <nRot>
2

>  <SLogP>
2.36

>  <SMR>
60.37

>  <TopoPSA(NO)>
36.42

>  <TopoPSA>
36.42

>  <JGI1>
0.17

>  <JGI2>
0.08

>  <JGI3>
0.05

>  <JGI4>
0.05

>  <JGI5>
0.01

>  <Diameter>
7

>  <Radius>
4

>  <TMWC10>
97.55

>  <TSRW10>
58.5

>  <MW>
229.02

>  <AMW>
9.96

>  <WPath>
301

>  <WPol>
17

>  <Zagreb1>
70

>  <Zagreb2>
80

>  <mZagreb2>
3.14

>  <yes>


>  <nAR-cont>
0.816016

>  <nHA-cont>
0.887625254

>  <MWHBN>
0.330394873

>  <MWHBN-cont>
0.741458929

>  <TPSA-cont>
0.745765785

>  <pka_cont>
0.97

>  <yes.1>


>  <BBB_SCORE>
4.792361217

>  <MMFF94 Energy>
-41.943

$$$$
Compound 442
Actelion Java MolfileCreator 2.0

  0  0  0  0  0  0              0 V3000
M  V30 BEGIN CTAB
M  V30 COUNTS 12 11 0 0 0
M  V30 BEGIN ATOM
M  V30 1 F -2.1718 0.3339 -1.5032 0
M  V30 2 C -1.1151 -0.2336 -0.8723 0
M  V30 3 F -1.5942 -0.734 0.2944 0
M  V30 4 F -0.6884 -1.2658 -1.6267 0
M  V30 5 C -0.0143 0.808 -0.5991 0 CFG=2
M  V30 6 F 0.3265 1.4241 -1.7696 0
M  V30 7 O 1.2151 0.333 -0.0607 0
M  V30 8 C 1.0314 -0.3507 1.1561 0
M  V30 9 F 0.6494 -1.6123 0.868 0
M  V30 10 F 2.2388 -0.4279 1.7601 0
M  V30 11 H -0.409 1.5905 0.0582 0
M  V30 12 H 0.319 0.1319 1.8333 0
M  V30 END ATOM
M  V30 BEGIN BOND
M  V30 1 1 1 2
M  V30 2 1 2 3
M  V30 3 1 2 4
M  V30 4 1 2 5
M  V30 5 1 5 6
M  V30 6 1 5 7
M  V30 7 1 7 8
M  V30 8 1 8 9
M  V30 9 1 8 10
M  V30 10 1 5 11
M  V30 11 1 8 12
M  V30 END BOND
M  V30 BEGIN COLLECTION
M  V30 MDLV30/STERAC1 ATOMS=(1 5)
M  V30 END COLLECTION
M  V30 END CTAB
M  END
>  <Column 1>
547

>  <level_0>
619

>  <index>
619

>  <Unnamed: 0>
619

>  <NO.>
629

>  <Name>
desflurane (suprane)

>  <IUPAC_name>
2-(difluoromethoxy)-1-1-1-2-tetrafluoroethane

>  <SMILES>
FC(F)OC(F)C(F)(F)F

>  <CID>
42113

>  <logBB>
0.11

>  <BBB+/BBB->
BBB+

>  <Inchi>
InChI=1S/C3H2F6O/c4-1(3(7-8)9)10-2(5)6/h1-2H

>  <threshold>


>  <reference>
R2|R2|R8|R12|R20|R21|R25|R27|R27|R35|R39|R40|R43|R47|

>  <group>
A

>  <Class>
1

>  <ABC>
7.11

>  <ABCGG>
7.43

>  <nAcid>
0

>  <nBase>
0

>  <nAromAtom>
0

>  <nAromBond>
0

>  <nAtom>
12

>  <nHeavyAtom>
10

>  <nSpiro>
0

>  <nBridgehead>
0

>  <nHetero>
7

>  <nN>
0

>  <nO>
1

>  <nF>
6

>  <BalabanJ>
3.73

>  <BertzCT>
97.66

>  <nBonds>
11

>  <nBondsO>
9

>  <nBondsS>
11

>  <nBondsD>
0

>  <nBondsT>
0

>  <nBondsA>
0

>  <nBondsM>
0

>  <nBondsKS>
11

>  <nBondsKD>
0

>  <RNCG>
0.21

>  <RPCG>
0.33

>  <FCSP3>
1

>  <SZ>
13.67

>  <Sm>
13.99

>  <Sv>
8.14

>  <Sse>
14.96

>  <Sp>
6.28

>  <Si>
15.91

>  <MZ>
1.14

>  <Mm>
1.17

>  <Mv>
0.68

>  <Mse>
1.25

>  <Mp>
0.52

>  <Mi>
1.33

>  <NsCH3>
0

>  <NdCH2>
0

>  <NssCH2>
0

>  <NtCH>
0

>  <NdsCH>
0

>  <NaaCH>
0

>  <NsssCH>
2

>  <NddC>
0

>  <NtsC>
0

>  <NdssC>
0

>  <NaasC>
0

>  <NaaaC>
0

>  <NssssC>
1

>  <NsNH3>
0

>  <NsNH2>
0

>  <NssNH2>
0

>  <NdNH>
0

>  <NssNH>
0

>  <NaaNH>
0

>  <NtN>
0

>  <NsssNH>
0

>  <NdsN>
0

>  <NaaN>
0

>  <NsssN>
0

>  <NddsN>
0

>  <NaasN>
0

>  <NssssN>
0

>  <NsOH>
0

>  <NdO>
0

>  <NssO>
1

>  <NaaO>
0

>  <NsF>
6

>  <NsSiH3>
0

>  <NssSiH2>
0

>  <NsssSiH>
0

>  <NssssSi>
0

>  <NsPH2>
0

>  <NssPH>
0

>  <NsssP>
0

>  <NdsssP>
0

>  <NsssssP>
0

>  <NsSH>
0

>  <NdS>
0

>  <NssS>
0

>  <NaaS>
0

>  <NdssS>
0

>  <NddssS>
0

>  <NsCl>
0

>  <NsBr>
0

>  <NsI>
0

>  <fragCpx>
9.07

>  <fMF>
0

>  <nHBAcc>
1

>  <nHBDon>
0

>  <Kier1>
10

>  <Kier2>
3.41

>  <Lipinski>
1

>  <GhoseFilter>
0

>  <FilterItLogS>
-1.43

>  <VMcGowan>
69.56

>  <LabuteASA>
51.58

>  <PEOE_VSA1>
0

>  <PEOE_VSA2>
4.74

>  <PEOE_VSA3>
4.39

>  <PEOE_VSA4>
21.95

>  <PEOE_VSA5>
0

>  <PEOE_VSA6>
0

>  <PEOE_VSA7>
0

>  <PEOE_VSA8>
0

>  <PEOE_VSA9>
0

>  <PEOE_VSA10>
0

>  <PEOE_VSA11>
0

>  <PEOE_VSA12>
0

>  <PEOE_VSA13>
6.36

>  <SMR_VSA1>
31.08

>  <SMR_VSA2>
0

>  <SMR_VSA3>
0

>  <SMR_VSA4>
0

>  <SMR_VSA5>
19.15

>  <SMR_VSA6>
0

>  <SMR_VSA7>
0

>  <SMR_VSA8>
0

>  <SMR_VSA9>
0

>  <SlogP_VSA1>
0

>  <SlogP_VSA2>
19.15

>  <SlogP_VSA3>
4.74

>  <SlogP_VSA4>
0

>  <SlogP_VSA5>
0

>  <SlogP_VSA6>
0

>  <SlogP_VSA7>
0

>  <SlogP_VSA8>
0

>  <SlogP_VSA9>
0

>  <SlogP_VSA10>
26.34

>  <SlogP_VSA11>
0

>  <EState_VSA1>
19.15

>  <EState_VSA2>
0

>  <EState_VSA3>
0

>  <EState_VSA4>
0

>  <EState_VSA5>
0

>  <EState_VSA6>
0

>  <EState_VSA7>
0

>  <EState_VSA8>
4.74

>  <EState_VSA9>
0

>  <EState_VSA10>
26.34

>  <VSA_EState1>
68.46

>  <VSA_EState2>
0

>  <VSA_EState3>
0

>  <VSA_EState4>
0

>  <VSA_EState5>
0

>  <VSA_EState6>
0

>  <VSA_EState7>
-9.29

>  <VSA_EState8>
-3.75

>  <VSA_EState9>
0

>  <apol>
10.49

>  <bpol>
10.42

>  <nRing>
0

>  <nHRing>
0

>  <naRing>
0

>  <naHRing>
0

>  <nARing 2>
0

>  <nAHRing 2>
0

>  <nFRing>
0

>  <nFHRing>
0

>  <nFaRing>
0

>  <nFaHRing>
0

>  <nFARing 2>
0

>  <nFAHRing 2>
0

>  <nRot>
2

>  <SLogP>
2.08

>  <SMR>
18.04

>  <TopoPSA(NO)>
9.23

>  <TopoPSA>
9.23

>  <JGI1>
0.5

>  <JGI2>
0.12

>  <JGI3>
0.06

>  <JGI4>
0.07

>  <JGI5>
0

>  <Diameter>
5

>  <Radius>
3

>  <TMWC10>
81.48

>  <TSRW10>
39

>  <MW>
168

>  <AMW>
14

>  <WPath>
123

>  <WPol>
10

>  <Zagreb1>
44

>  <Zagreb2>
45

>  <mZagreb2>
2.17

>  <yes>


>  <nAR-cont>
0.336376

>  <nHA-cont>
0.645914733

>  <MWHBN>
0.077151675

>  <MWHBN-cont>
0.586102436

>  <TPSA-cont>
0.935568869

>  <pka_cont>
0.97

>  <yes.1>


>  <BBB_SCORE>
4.217582125

>  <MMFF94 Energy>
25.518

$$$$
Compound 443
Actelion Java MolfileCreator 2.0

  0  0  0  0  0  0              0 V3000
M  V30 BEGIN CTAB
M  V30 COUNTS 23 24 0 0 0
M  V30 BEGIN ATOM
M  V30 1 Cl 3.7745 -0.0819 -2.1321 0
M  V30 2 C 2.121 -0.5352 -1.8961 0
M  V30 3 C 1.3809 -1.1922 -2.8862 0
M  V30 4 C 1.5434 -0.2143 -0.6588 0
M  V30 5 Cl 2.0592 -1.604 -4.4237 0
M  V30 6 C 0.0413 -1.5434 -2.6632 0
M  V30 7 C 0.2036 -0.5759 -0.4535 0
M  V30 8 C -0.5494 -1.2261 -1.4276 0
M  V30 9 N -0.6492 -0.4182 0.6144 0
M  V30 10 C -1.8214 -1.3984 -0.8409 0
M  V30 11 N -1.8891 -0.9028 0.3958 0
M  V30 12 C -0.3508 0.2031 1.8928 0
M  V30 13 C -0.7147 1.6871 1.8894 0
M  V30 14 N -0.374 2.3344 3.1596 0
M  V30 15 H 2.1161 0.2963 0.1095 0
M  V30 16 H -0.5346 -2.0516 -3.4313 0
M  V30 17 H -2.7011 -1.8628 -1.2679 0
M  V30 18 H -0.9125 -0.3403 2.6621 0
M  V30 19 H 0.7148 0.0551 2.0988 0
M  V30 20 H -1.7858 1.8175 1.6957 0
M  V30 21 H -0.1791 2.201 1.0829 0
M  V30 22 H -0.6247 3.3228 3.107 0
M  V30 23 H -0.9522 1.9461 3.9063 0
M  V30 END ATOM
M  V30 BEGIN BOND
M  V30 1 1 1 2
M  V30 2 2 2 3
M  V30 3 1 2 4
M  V30 4 1 3 5
M  V30 5 1 3 6
M  V30 6 2 4 7
M  V30 7 2 6 8
M  V30 8 1 7 9
M  V30 9 1 8 10
M  V30 10 1 9 11
M  V30 11 1 9 12
M  V30 12 1 12 13
M  V30 13 1 13 14
M  V30 14 1 7 8
M  V30 15 2 10 11
M  V30 16 1 4 15
M  V30 17 1 6 16
M  V30 18 1 10 17
M  V30 19 1 12 18
M  V30 20 1 12 19
M  V30 21 1 13 20
M  V30 22 1 13 21
M  V30 23 1 14 22
M  V30 24 1 14 23
M  V30 END BOND
M  V30 END CTAB
M  END
>  <Column 1>
548

>  <level_0>
620

>  <index>
620

>  <Unnamed: 0>
620

>  <NO.>
630

>  <Name>
2-(5-6-dichloroindazol-1-yl)ethanamine

>  <IUPAC_name>
2-(5-6-dichloroindazol-1-yl)ethanamine

>  <SMILES>
NCCn1ncc2cc(Cl)c(Cl)cc21

>  <CID>
44214615

>  <logBB>
0.11

>  <BBB+/BBB->
BBB+

>  <Inchi>
InChI=1S/C9H9Cl2N3/c10-7-3-6-5-13-14(2-1-12)9(6)4-8(7)11/h3-5H-1-2-12H2

>  <threshold>


>  <reference>
R2|R2|R8|R27|R43|R47|R48|

>  <group>
A

>  <Class>
1

>  <ABC>
10.7

>  <ABCGG>
9.81

>  <nAcid>
0

>  <nBase>
1

>  <nAromAtom>
9

>  <nAromBond>
10

>  <nAtom>
23

>  <nHeavyAtom>
14

>  <nSpiro>
0

>  <nBridgehead>
0

>  <nHetero>
5

>  <nN>
3

>  <nO>
0

>  <nF>
0

>  <BalabanJ>
1.97

>  <BertzCT>
464.27

>  <nBonds>
24

>  <nBondsO>
15

>  <nBondsS>
14

>  <nBondsD>
0

>  <nBondsT>
0

>  <nBondsA>
10

>  <nBondsM>
10

>  <nBondsKS>
20

>  <nBondsKD>
4

>  <RNCG>
0.33

>  <RPCG>
0.12

>  <FCSP3>
0.22

>  <SZ>
19.67

>  <Sm>
19.16

>  <Sv>
15.89

>  <Sse>
23.52

>  <Sp>
17.18

>  <Si>
26.04

>  <MZ>
0.86

>  <Mm>
0.83

>  <Mv>
0.69

>  <Mse>
1.02

>  <Mp>
0.75

>  <Mi>
1.13

>  <NsCH3>
0

>  <NdCH2>
0

>  <NssCH2>
2

>  <NtCH>
0

>  <NdsCH>
0

>  <NaaCH>
3

>  <NsssCH>
0

>  <NddC>
0

>  <NtsC>
0

>  <NdssC>
0

>  <NaasC>
2

>  <NaaaC>
2

>  <NssssC>
0

>  <NsNH3>
0

>  <NsNH2>
1

>  <NssNH2>
0

>  <NdNH>
0

>  <NssNH>
0

>  <NaaNH>
0

>  <NtN>
0

>  <NsssNH>
0

>  <NdsN>
0

>  <NaaN>
1

>  <NsssN>
0

>  <NddsN>
0

>  <NaasN>
1

>  <NssssN>
0

>  <NsOH>
0

>  <NdO>
0

>  <NssO>
0

>  <NaaO>
0

>  <NsF>
0

>  <NsSiH3>
0

>  <NssSiH2>
0

>  <NsssSiH>
0

>  <NssssSi>
0

>  <NsPH2>
0

>  <NssPH>
0

>  <NsssP>
0

>  <NdsssP>
0

>  <NsssssP>
0

>  <NsSH>
0

>  <NdS>
0

>  <NssS>
0

>  <NaaS>
0

>  <NdssS>
0

>  <NddssS>
0

>  <NsCl>
2

>  <NsBr>
0

>  <NsI>
0

>  <fragCpx>
43.05

>  <fMF>
0.39

>  <nHBAcc>
3

>  <nHBDon>
1

>  <Kier1>
10.52

>  <Kier2>
4.24

>  <Lipinski>
1

>  <GhoseFilter>
1

>  <FilterItLogS>
-3.32

>  <VMcGowan>
153.17

>  <LabuteASA>
91.4

>  <PEOE_VSA1>
5.73

>  <PEOE_VSA2>
4.68

>  <PEOE_VSA3>
0

>  <PEOE_VSA4>
5.1

>  <PEOE_VSA5>
0

>  <PEOE_VSA6>
23.2

>  <PEOE_VSA7>
12.13

>  <PEOE_VSA8>
11.93

>  <PEOE_VSA9>
28.3

>  <PEOE_VSA10>
0

>  <PEOE_VSA11>
0

>  <PEOE_VSA12>
0

>  <PEOE_VSA13>
0

>  <SMR_VSA1>
0

>  <SMR_VSA2>
0

>  <SMR_VSA3>
9.78

>  <SMR_VSA4>
5.73

>  <SMR_VSA5>
6.54

>  <SMR_VSA6>
6.54

>  <SMR_VSA7>
28.37

>  <SMR_VSA8>
0

>  <SMR_VSA9>
0

>  <SlogP_VSA1>
5.73

>  <SlogP_VSA2>
16.33

>  <SlogP_VSA3>
6.54

>  <SlogP_VSA4>
0

>  <SlogP_VSA5>
0

>  <SlogP_VSA6>
18.33

>  <SlogP_VSA7>
10.05

>  <SlogP_VSA8>
10.9

>  <SlogP_VSA9>
0

>  <SlogP_VSA10>
0

>  <SlogP_VSA11>
0

>  <EState_VSA1>
0

>  <EState_VSA2>
0

>  <EState_VSA3>
23.13

>  <EState_VSA4>
10.9

>  <EState_VSA5>
0

>  <EState_VSA6>
12.26

>  <EState_VSA7>
10.75

>  <EState_VSA8>
5.1

>  <EState_VSA9>
28.94

>  <EState_VSA10>
0

>  <VSA_EState1>
1.82

>  <VSA_EState2>
0

>  <VSA_EState3>
6.25

>  <VSA_EState4>
6.42

>  <VSA_EState5>
0

>  <VSA_EState6>
3.61

>  <VSA_EState7>
1.76

>  <VSA_EState8>
1.23

>  <VSA_EState9>
0

>  <apol>
28.69

>  <bpol>
11.19

>  <nRing>
2

>  <nHRing>
1

>  <naRing>
2

>  <naHRing>
1

>  <nARing 2>
0

>  <nAHRing 2>
0

>  <nFRing>
1

>  <nFHRing>
1

>  <nFaRing>
1

>  <nFaHRing>
1

>  <nFARing 2>
0

>  <nFAHRing 2>
0

>  <nRot>
2

>  <SLogP>
2.3

>  <SMR>
58.81

>  <TopoPSA(NO)>
43.84

>  <TopoPSA>
43.84

>  <JGI1>
0.2

>  <JGI2>
0.1

>  <JGI3>
0.05

>  <JGI4>
0.06

>  <JGI5>
0.04

>  <Diameter>
8

>  <Radius>
4

>  <TMWC10>
99.2

>  <TSRW10>
59.8

>  <MW>
229.02

>  <AMW>
9.96

>  <WPath>
291

>  <WPol>
20

>  <Zagreb1>
72

>  <Zagreb2>
85

>  <mZagreb2>
3.17

>  <yes>


>  <nAR-cont>
0.336376

>  <nHA-cont>
0.887625254

>  <MWHBN>
0.264315898

>  <MWHBN-cont>
0.932570186

>  <TPSA-cont>
0.693969577

>  <pka_cont>
0.97

>  <yes.1>


>  <BBB_SCORE>
4.495795687

>  <MMFF94 Energy>
44.545

$$$$
Compound 444
Actelion Java MolfileCreator 2.0

  0  0  0  0  0  0              0 V3000
M  V30 BEGIN CTAB
M  V30 COUNTS 17 16 0 0 0
M  V30 BEGIN ATOM
M  V30 1 O 1.9069 0.7624 -0.9912 0
M  V30 2 C 1.5563 0.5062 0.1515 0
M  V30 3 O 0.2866 0.5961 0.6336 0
M  V30 4 C 2.4796 0.0366 1.2338 0
M  V30 5 C -0.7074 1.0359 -0.3041 0
M  V30 6 C -1.2455 -0.1317 -1.1267 0
M  V30 7 C -1.887 -1.2048 -0.2588 0
M  V30 8 H 2.4705 0.7478 2.0636 0
M  V30 9 H 2.1764 -0.9566 1.574 0
M  V30 10 H 3.498 -0.0252 0.8397 0
M  V30 11 H -0.3084 1.8231 -0.9548 0
M  V30 12 H -1.5174 1.4896 0.2777 0
M  V30 13 H -1.9845 0.2427 -1.8437 0
M  V30 14 H -0.4332 -0.5913 -1.7006 0
M  V30 15 H -2.2903 -2.0059 -0.8862 0
M  V30 16 H -1.1596 -1.6494 0.4274 0
M  V30 17 H -2.7098 -0.7901 0.3323 0
M  V30 END ATOM
M  V30 BEGIN BOND
M  V30 1 2 1 2
M  V30 2 1 2 3
M  V30 3 1 2 4
M  V30 4 1 3 5
M  V30 5 1 5 6
M  V30 6 1 6 7
M  V30 7 1 4 8
M  V30 8 1 4 9
M  V30 9 1 4 10
M  V30 10 1 5 11
M  V30 11 1 5 12
M  V30 12 1 6 13
M  V30 13 1 6 14
M  V30 14 1 7 15
M  V30 15 1 7 16
M  V30 16 1 7 17
M  V30 END BOND
M  V30 END CTAB
M  END
>  <Column 1>
549

>  <level_0>
621

>  <index>
621

>  <Unnamed: 0>
621

>  <NO.>
631

>  <Name>
propyl acetate 

>  <IUPAC_name>
propyl acetate

>  <SMILES>
CCCOC(C)=O

>  <CID>
7997

>  <logBB>
0.12

>  <BBB+/BBB->
BBB+

>  <Inchi>
InChI=1S/C5H10O2/c1-3-4-7-5(2)6/h3-4H2-1-2H3

>  <threshold>


>  <reference>
R3|R38|R2|R2|R8|R21|R25|R27|R27|R40|R41|R43|R47|

>  <group>
A

>  <Class>
1

>  <ABC>
4.46

>  <ABCGG>
4.74

>  <nAcid>
0

>  <nBase>
0

>  <nAromAtom>
0

>  <nAromBond>
0

>  <nAtom>
17

>  <nHeavyAtom>
7

>  <nSpiro>
0

>  <nBridgehead>
0

>  <nHetero>
2

>  <nN>
0

>  <nO>
2

>  <nF>
0

>  <BalabanJ>
2.68

>  <BertzCT>
59.1

>  <nBonds>
16

>  <nBondsO>
6

>  <nBondsS>
15

>  <nBondsD>
1

>  <nBondsT>
0

>  <nBondsA>
0

>  <nBondsM>
1

>  <nBondsKS>
15

>  <nBondsKD>
1

>  <RNCG>
0.58

>  <RPCG>
0.38

>  <FCSP3>
0.8

>  <SZ>
9.33

>  <Sm>
8.5

>  <Sv>
9.14

>  <Sse>
17.1

>  <Sp>
9.95

>  <Si>
19.5

>  <MZ>
0.55

>  <Mm>
0.5

>  <Mv>
0.54

>  <Mse>
1.01

>  <Mp>
0.59

>  <Mi>
1.15

>  <NsCH3>
2

>  <NdCH2>
0

>  <NssCH2>
2

>  <NtCH>
0

>  <NdsCH>
0

>  <NaaCH>
0

>  <NsssCH>
0

>  <NddC>
0

>  <NtsC>
0

>  <NdssC>
1

>  <NaasC>
0

>  <NaaaC>
0

>  <NssssC>
0

>  <NsNH3>
0

>  <NsNH2>
0

>  <NssNH2>
0

>  <NdNH>
0

>  <NssNH>
0

>  <NaaNH>
0

>  <NtN>
0

>  <NsssNH>
0

>  <NdsN>
0

>  <NaaN>
0

>  <NsssN>
0

>  <NddsN>
0

>  <NaasN>
0

>  <NssssN>
0

>  <NsOH>
0

>  <NdO>
1

>  <NssO>
1

>  <NaaO>
0

>  <NsF>
0

>  <NsSiH3>
0

>  <NssSiH2>
0

>  <NsssSiH>
0

>  <NssssSi>
0

>  <NsPH2>
0

>  <NssPH>
0

>  <NsssP>
0

>  <NdsssP>
0

>  <NsssssP>
0

>  <NsSH>
0

>  <NdS>
0

>  <NssS>
0

>  <NaaS>
0

>  <NdssS>
0

>  <NddssS>
0

>  <NsCl>
0

>  <NsBr>
0

>  <NsI>
0

>  <fragCpx>
6.02

>  <fMF>
0

>  <nHBAcc>
2

>  <nHBDon>
0

>  <Kier1>
7

>  <Kier2>
4.17

>  <Lipinski>
1

>  <GhoseFilter>
0

>  <FilterItLogS>
-1.08

>  <VMcGowan>
88.75

>  <LabuteASA>
43.47

>  <PEOE_VSA1>
4.74

>  <PEOE_VSA2>
4.79

>  <PEOE_VSA3>
0

>  <PEOE_VSA4>
0

>  <PEOE_VSA5>
0

>  <PEOE_VSA6>
6.92

>  <PEOE_VSA7>
6.42

>  <PEOE_VSA8>
6.92

>  <PEOE_VSA9>
6.61

>  <PEOE_VSA10>
0

>  <PEOE_VSA11>
0

>  <PEOE_VSA12>
0

>  <PEOE_VSA13>
0

>  <SMR_VSA1>
9.53

>  <SMR_VSA2>
0

>  <SMR_VSA3>
0

>  <SMR_VSA4>
0

>  <SMR_VSA5>
20.27

>  <SMR_VSA6>
6.61

>  <SMR_VSA7>
0

>  <SMR_VSA8>
0

>  <SMR_VSA9>
0

>  <SlogP_VSA1>
0

>  <SlogP_VSA2>
12.58

>  <SlogP_VSA3>
9.53

>  <SlogP_VSA4>
0

>  <SlogP_VSA5>
20.27

>  <SlogP_VSA6>
0

>  <SlogP_VSA7>
0

>  <SlogP_VSA8>
0

>  <SlogP_VSA9>
0

>  <SlogP_VSA10>
0

>  <SlogP_VSA11>
0

>  <EState_VSA1>
0

>  <EState_VSA2>
5.97

>  <EState_VSA3>
6.61

>  <EState_VSA4>
6.42

>  <EState_VSA5>
6.92

>  <EState_VSA6>
0

>  <EState_VSA7>
6.92

>  <EState_VSA8>
4.74

>  <EState_VSA9>
0

>  <EState_VSA10>
4.79

>  <VSA_EState1>
4.55

>  <VSA_EState2>
9.98

>  <VSA_EState3>
0

>  <VSA_EState4>
0

>  <VSA_EState5>
-0.19

>  <VSA_EState6>
0

>  <VSA_EState7>
0.9

>  <VSA_EState8>
3.92

>  <VSA_EState9>
0

>  <apol>
16.62

>  <bpol>
12.64

>  <nRing>
0

>  <nHRing>
0

>  <naRing>
0

>  <naHRing>
0

>  <nARing 2>
0

>  <nAHRing 2>
0

>  <nFRing>
0

>  <nFHRing>
0

>  <nFaRing>
0

>  <nFaHRing>
0

>  <nFARing 2>
0

>  <nFAHRing 2>
0

>  <nRot>
2

>  <SLogP>
0.96

>  <SMR>
26.92

>  <TopoPSA(NO)>
26.3

>  <TopoPSA>
26.3

>  <JGI1>
0.25

>  <JGI2>
0.07

>  <JGI3>
0.06

>  <JGI4>
0.05

>  <JGI5>
0

>  <Diameter>
5

>  <Radius>
3

>  <TMWC10>
65.08

>  <TSRW10>
31.34

>  <MW>
102.07

>  <AMW>
6

>  <WPath>
52

>  <WPol>
4

>  <Zagreb1>
24

>  <Zagreb2>
22

>  <mZagreb2>
1.83

>  <yes>


>  <nAR-cont>
0.336376

>  <nHA-cont>
0.357561384

>  <MWHBN>
0.197961592

>  <MWHBN-cont>
0.999161666

>  <TPSA-cont>
0.816409669

>  <pka_cont>
0.97

>  <yes.1>


>  <BBB_SCORE>
4.310499219

>  <MMFF94 Energy>
-10.86

$$$$
Compound 445
Actelion Java MolfileCreator 2.0

  0  0  0  0  0  0              0 V3000
M  V30 BEGIN CTAB
M  V30 COUNTS 24 23 0 0 0
M  V30 BEGIN ATOM
M  V30 1 O -1.682 -0.1528 -1.9881 0
M  V30 2 C -2.4058 0.4541 -2.9756 0
M  V30 3 C -2.247 0.0462 -0.6902 0
M  V30 4 C -1.9006 0.6374 -4.1956 0
M  V30 5 C -1.3363 -0.5985 0.3517 0
M  V30 6 C 0.0291 0.0857 0.426 0
M  V30 7 C 0.9269 -0.5666 1.4725 0
M  V30 8 O 2.1634 0.1512 1.5085 0
M  V30 9 C 3.026 -0.334 2.4511 0
M  V30 10 C 4.1063 0.3522 2.8247 0
M  V30 11 H -3.4098 0.7578 -2.7101 0
M  V30 12 H -3.2347 -0.4288 -0.646 0
M  V30 13 H -2.3565 1.1183 -0.4836 0
M  V30 14 H -0.8924 0.3139 -4.4321 0
M  V30 15 H -2.4829 1.1119 -4.9769 0
M  V30 16 H -1.8245 -0.5519 1.332 0
M  V30 17 H -1.1913 -1.6562 0.1009 0
M  V30 18 H -0.0942 1.1494 0.6652 0
M  V30 19 H 0.5323 0.0536 -0.5479 0
M  V30 20 H 0.4461 -0.5247 2.458 0
M  V30 21 H 1.113 -1.614 1.2046 0
M  V30 22 H 2.7868 -1.3079 2.8571 0
M  V30 23 H 4.3234 1.3225 2.3906 0
M  V30 24 H 4.7915 -0.0427 3.5655 0
M  V30 END ATOM
M  V30 BEGIN BOND
M  V30 1 1 1 2
M  V30 2 1 1 3
M  V30 3 2 2 4
M  V30 4 1 3 5
M  V30 5 1 5 6
M  V30 6 1 6 7
M  V30 7 1 7 8
M  V30 8 1 8 9
M  V30 9 2 9 10
M  V30 10 1 2 11
M  V30 11 1 3 12
M  V30 12 1 3 13
M  V30 13 1 4 14
M  V30 14 1 4 15
M  V30 15 1 5 16
M  V30 16 1 5 17
M  V30 17 1 6 18
M  V30 18 1 6 19
M  V30 19 1 7 20
M  V30 20 1 7 21
M  V30 21 1 9 22
M  V30 22 1 10 23
M  V30 23 1 10 24
M  V30 END BOND
M  V30 END CTAB
M  END
>  <Column 1>
550

>  <level_0>
622

>  <index>
622

>  <Unnamed: 0>
622

>  <NO.>
632

>  <Name>
3891-33-6

>  <IUPAC_name>
1-4-bis(ethenoxy)butane

>  <SMILES>
C=COCCCCOC=C

>  <CID>
77501

>  <logBB>
0.12

>  <BBB+/BBB->
BBB+

>  <Inchi>
InChI=1S/C8H14O2/c1-3-9-7-5-6-8-10-4-2/h3-4H-1-2-5-8H2

>  <threshold>


>  <reference>
R2|R2|R8|R21|R25|R27|R27|R43|R46|R47|

>  <group>
A

>  <Class>
1

>  <ABC>
6.36

>  <ABCGG>
6.25

>  <nAcid>
0

>  <nBase>
0

>  <nAromAtom>
0

>  <nAromBond>
0

>  <nAtom>
24

>  <nHeavyAtom>
10

>  <nSpiro>
0

>  <nBridgehead>
0

>  <nHetero>
2

>  <nN>
0

>  <nO>
2

>  <nF>
0

>  <BalabanJ>
2.65

>  <BertzCT>
77.26

>  <nBonds>
23

>  <nBondsO>
9

>  <nBondsS>
21

>  <nBondsD>
2

>  <nBondsT>
0

>  <nBondsA>
0

>  <nBondsM>
2

>  <nBondsKS>
21

>  <nBondsKD>
2

>  <RNCG>
0.43

>  <RPCG>
0.09

>  <FCSP3>
0.5

>  <SZ>
13

>  <Sm>
11.84

>  <Sv>
13.22

>  <Sse>
23.88

>  <Sp>
14.55

>  <Si>
27.33

>  <MZ>
0.54

>  <Mm>
0.49

>  <Mv>
0.55

>  <Mse>
0.99

>  <Mp>
0.61

>  <Mi>
1.14

>  <NsCH3>
0

>  <NdCH2>
2

>  <NssCH2>
4

>  <NtCH>
0

>  <NdsCH>
2

>  <NaaCH>
0

>  <NsssCH>
0

>  <NddC>
0

>  <NtsC>
0

>  <NdssC>
0

>  <NaasC>
0

>  <NaaaC>
0

>  <NssssC>
0

>  <NsNH3>
0

>  <NsNH2>
0

>  <NssNH2>
0

>  <NdNH>
0

>  <NssNH>
0

>  <NaaNH>
0

>  <NtN>
0

>  <NsssNH>
0

>  <NdsN>
0

>  <NaaN>
0

>  <NsssN>
0

>  <NddsN>
0

>  <NaasN>
0

>  <NssssN>
0

>  <NsOH>
0

>  <NdO>
0

>  <NssO>
2

>  <NaaO>
0

>  <NsF>
0

>  <NsSiH3>
0

>  <NssSiH2>
0

>  <NsssSiH>
0

>  <NssssSi>
0

>  <NsPH2>
0

>  <NssPH>
0

>  <NsssP>
0

>  <NdsssP>
0

>  <NsssssP>
0

>  <NsSH>
0

>  <NdS>
0

>  <NssS>
0

>  <NaaS>
0

>  <NdssS>
0

>  <NddssS>
0

>  <NsCl>
0

>  <NsBr>
0

>  <NsI>
0

>  <fragCpx>
9.02

>  <fMF>
0

>  <nHBAcc>
2

>  <nHBDon>
0

>  <Kier1>
10

>  <Kier2>
9

>  <Lipinski>
1

>  <GhoseFilter>
0

>  <FilterItLogS>
-1.85

>  <VMcGowan>
126.72

>  <LabuteASA>
62.14

>  <PEOE_VSA1>
9.47

>  <PEOE_VSA2>
0

>  <PEOE_VSA3>
0

>  <PEOE_VSA4>
0

>  <PEOE_VSA5>
0

>  <PEOE_VSA6>
13.16

>  <PEOE_VSA7>
12.84

>  <PEOE_VSA8>
0

>  <PEOE_VSA9>
25.74

>  <PEOE_VSA10>
0

>  <PEOE_VSA11>
0

>  <PEOE_VSA12>
0

>  <PEOE_VSA13>
0

>  <SMR_VSA1>
9.47

>  <SMR_VSA2>
0

>  <SMR_VSA3>
0

>  <SMR_VSA4>
0

>  <SMR_VSA5>
12.84

>  <SMR_VSA6>
13.21

>  <SMR_VSA7>
25.68

>  <SMR_VSA8>
0

>  <SMR_VSA9>
0

>  <SlogP_VSA1>
0

>  <SlogP_VSA2>
13.21

>  <SlogP_VSA3>
9.47

>  <SlogP_VSA4>
0

>  <SlogP_VSA5>
12.84

>  <SlogP_VSA6>
25.68

>  <SlogP_VSA7>
0

>  <SlogP_VSA8>
0

>  <SlogP_VSA9>
0

>  <SlogP_VSA10>
0

>  <SlogP_VSA11>
0

>  <EState_VSA1>
0

>  <EState_VSA2>
0

>  <EState_VSA3>
0

>  <EState_VSA4>
26.06

>  <EState_VSA5>
12.52

>  <EState_VSA6>
0

>  <EState_VSA7>
0

>  <EState_VSA8>
13.16

>  <EState_VSA9>
9.47

>  <EState_VSA10>
0

>  <VSA_EState1>
9.79

>  <VSA_EState2>
0

>  <VSA_EState3>
0

>  <VSA_EState4>
0

>  <VSA_EState5>
0

>  <VSA_EState6>
0

>  <VSA_EState7>
4.91

>  <VSA_EState8>
8.3

>  <VSA_EState9>
0

>  <apol>
24.3

>  <bpol>
17.52

>  <nRing>
0

>  <nHRing>
0

>  <naRing>
0

>  <naHRing>
0

>  <nARing 2>
0

>  <nAHRing 2>
0

>  <nFRing>
0

>  <nFHRing>
0

>  <nFaRing>
0

>  <nFaHRing>
0

>  <nFARing 2>
0

>  <nFAHRing 2>
0

>  <nRot>
7

>  <SLogP>
2.09

>  <SMR>
41.53

>  <TopoPSA(NO)>
18.46

>  <TopoPSA>
18.46

>  <JGI1>
0.06

>  <JGI2>
0.03

>  <JGI3>
0.02

>  <JGI4>
0.01

>  <JGI5>
0.01

>  <Diameter>
9

>  <Radius>
5

>  <TMWC10>
73.97

>  <TSRW10>
35.64

>  <MW>
142.1

>  <AMW>
5.92

>  <WPath>
165

>  <WPol>
7

>  <Zagreb1>
34

>  <Zagreb2>
32

>  <mZagreb2>
2.75

>  <yes>


>  <nAR-cont>
0.336376

>  <nHA-cont>
0.645914733

>  <MWHBN>
0.167777206

>  <MWHBN-cont>
0.970367578

>  <TPSA-cont>
0.871137737

>  <pka_cont>
0.97

>  <yes.1>


>  <BBB_SCORE>
4.665117575

>  <MMFF94 Energy>
17.587

$$$$
Compound 446
Actelion Java MolfileCreator 2.0

  0  0  0  0  0  0              0 V3000
M  V30 BEGIN CTAB
M  V30 COUNTS 11 10 0 0 0
M  V30 BEGIN ATOM
M  V30 1 F 0.0 0.8538 3.1853 0
M  V30 2 C 0.5192 1.0399 1.9584 0
M  V30 3 C 0.0937 0.3406 0.9098 0
M  V30 4 O 0.6187 0.5262 -0.3403 0
M  V30 5 C 0.194 -0.1842 -1.4342 0
M  V30 6 C -0.7403 -1.1317 -1.5276 0
M  V30 7 F -1.0135 -1.7161 -2.7094 0
M  V30 8 H 1.2872 1.799 1.9607 0
M  V30 9 H -0.6826 -0.3983 1.0135 0
M  V30 10 H 0.7541 0.1368 -2.3049 0
M  V30 11 H -1.3641 -1.5402 -0.749 0
M  V30 END ATOM
M  V30 BEGIN BOND
M  V30 1 1 1 2
M  V30 2 2 2 3
M  V30 3 1 3 4
M  V30 4 1 4 5
M  V30 5 2 5 6
M  V30 6 1 6 7
M  V30 7 1 2 8
M  V30 8 1 3 9
M  V30 9 1 5 10
M  V30 10 1 6 11
M  V30 END BOND
M  V30 END CTAB
M  END
>  <Column 1>
551

>  <level_0>
624

>  <index>
624

>  <Unnamed: 0>
624

>  <NO.>
634

>  <Name>
s111

>  <IUPAC_name>
(e)-1-fluoro-2-[(e)-2-fluoroethenoxy]ethene

>  <SMILES>
F/C=C/O/C=C/F

>  <CID>
87737353

>  <logBB>
0.13

>  <BBB+/BBB->
BBB+

>  <Inchi>
InChI=1S/C4H4F2O/c5-1-3-7-4-2-6/h1-4H/b3-1+-4-2+

>  <threshold>


>  <reference>
R2|R2|R25|R27|R46|R47|

>  <group>
A

>  <Class>
1

>  <ABC>
4.24

>  <ABCGG>
4.53

>  <nAcid>
0

>  <nBase>
0

>  <nAromAtom>
0

>  <nAromBond>
0

>  <nAtom>
11

>  <nHeavyAtom>
7

>  <nSpiro>
0

>  <nBridgehead>
0

>  <nHetero>
3

>  <nN>
0

>  <nO>
1

>  <nF>
2

>  <BalabanJ>
2.45

>  <BertzCT>
67.76

>  <nBonds>
10

>  <nBondsO>
6

>  <nBondsS>
8

>  <nBondsD>
2

>  <nBondsT>
0

>  <nBondsA>
0

>  <nBondsM>
2

>  <nBondsKS>
8

>  <nBondsKD>
2

>  <RNCG>
0.52

>  <RPCG>
0.14

>  <FCSP3>
0

>  <SZ>
9

>  <Sm>
8.83

>  <Sv>
7.09

>  <Sse>
12.02

>  <Sp>
6.74

>  <Si>
13.13

>  <MZ>
0.82

>  <Mm>
0.8

>  <Mv>
0.64

>  <Mse>
1.09

>  <Mp>
0.61

>  <Mi>
1.19

>  <NsCH3>
0

>  <NdCH2>
0

>  <NssCH2>
0

>  <NtCH>
0

>  <NdsCH>
4

>  <NaaCH>
0

>  <NsssCH>
0

>  <NddC>
0

>  <NtsC>
0

>  <NdssC>
0

>  <NaasC>
0

>  <NaaaC>
0

>  <NssssC>
0

>  <NsNH3>
0

>  <NsNH2>
0

>  <NssNH2>
0

>  <NdNH>
0

>  <NssNH>
0

>  <NaaNH>
0

>  <NtN>
0

>  <NsssNH>
0

>  <NdsN>
0

>  <NaaN>
0

>  <NsssN>
0

>  <NddsN>
0

>  <NaasN>
0

>  <NssssN>
0

>  <NsOH>
0

>  <NdO>
0

>  <NssO>
1

>  <NaaO>
0

>  <NsF>
2

>  <NsSiH3>
0

>  <NssSiH2>
0

>  <NsssSiH>
0

>  <NssssSi>
0

>  <NsPH2>
0

>  <NssPH>
0

>  <NsssP>
0

>  <NdsssP>
0

>  <NsssssP>
0

>  <NsSH>
0

>  <NdS>
0

>  <NssS>
0

>  <NaaS>
0

>  <NdssS>
0

>  <NddssS>
0

>  <NsCl>
0

>  <NsBr>
0

>  <NsI>
0

>  <fragCpx>
6.03

>  <fMF>
0

>  <nHBAcc>
1

>  <nHBDon>
0

>  <Kier1>
7

>  <Kier2>
6

>  <Lipinski>
1

>  <GhoseFilter>
0

>  <FilterItLogS>
-0.29

>  <VMcGowan>
68.01

>  <LabuteASA>
39.9

>  <PEOE_VSA1>
4.74

>  <PEOE_VSA2>
0

>  <PEOE_VSA3>
8.78

>  <PEOE_VSA4>
0

>  <PEOE_VSA5>
0

>  <PEOE_VSA6>
0

>  <PEOE_VSA7>
0

>  <PEOE_VSA8>
0

>  <PEOE_VSA9>
0

>  <PEOE_VSA10>
25.18

>  <PEOE_VSA11>
0

>  <PEOE_VSA12>
0

>  <PEOE_VSA13>
0

>  <SMR_VSA1>
13.52

>  <SMR_VSA2>
0

>  <SMR_VSA3>
0

>  <SMR_VSA4>
0

>  <SMR_VSA5>
0

>  <SMR_VSA6>
0

>  <SMR_VSA7>
25.18

>  <SMR_VSA8>
0

>  <SMR_VSA9>
0

>  <SlogP_VSA1>
0

>  <SlogP_VSA2>
0

>  <SlogP_VSA3>
4.74

>  <SlogP_VSA4>
0

>  <SlogP_VSA5>
0

>  <SlogP_VSA6>
25.18

>  <SlogP_VSA7>
0

>  <SlogP_VSA8>
0

>  <SlogP_VSA9>
0

>  <SlogP_VSA10>
8.78

>  <SlogP_VSA11>
0

>  <EState_VSA1>
0

>  <EState_VSA2>
12.66

>  <EState_VSA3>
0

>  <EState_VSA4>
12.52

>  <EState_VSA5>
0

>  <EState_VSA6>
0

>  <EState_VSA7>
0

>  <EState_VSA8>
4.74

>  <EState_VSA9>
0

>  <EState_VSA10>
8.78

>  <VSA_EState1>
25.73

>  <VSA_EState2>
0

>  <VSA_EState3>
0

>  <VSA_EState4>
0

>  <VSA_EState5>
0

>  <VSA_EState6>
0

>  <VSA_EState7>
1.77

>  <VSA_EState8>
0

>  <VSA_EState9>
0

>  <apol>
11.26

>  <bpol>
7.97

>  <nRing>
0

>  <nHRing>
0

>  <naRing>
0

>  <naHRing>
0

>  <nARing 2>
0

>  <nAHRing 2>
0

>  <nFRing>
0

>  <nFHRing>
0

>  <nFaRing>
0

>  <nFaHRing>
0

>  <nFARing 2>
0

>  <nFAHRing 2>
0

>  <nRot>
2

>  <SLogP>
1.88

>  <SMR>
21.58

>  <TopoPSA(NO)>
9.23

>  <TopoPSA>
9.23

>  <JGI1>
0.08

>  <JGI2>
0.04

>  <JGI3>
0.03

>  <JGI4>
0.03

>  <JGI5>
0.03

>  <Diameter>
6

>  <Radius>
3

>  <TMWC10>
62.87

>  <TSRW10>
30.26

>  <MW>
106.02

>  <AMW>
9.64

>  <WPath>
56

>  <WPol>
4

>  <Zagreb1>
22

>  <Zagreb2>
20

>  <mZagreb2>
2

>  <yes>


>  <nAR-cont>
0.336376

>  <nHA-cont>
0.357561384

>  <MWHBN>
0.097119424

>  <MWHBN-cont>
0.714410126

>  <TPSA-cont>
0.935568869

>  <pka_cont>
0.97

>  <yes.1>


>  <BBB_SCORE>
4.121690309

>  <MMFF94 Energy>
10.696

$$$$
Compound 447
Actelion Java MolfileCreator 2.0

  0  0  0  0  0  0              0 V3000
M  V30 BEGIN CTAB
M  V30 COUNTS 47 49 0 0 0
M  V30 BEGIN ATOM
M  V30 1 O 1.8996 -1.1869 -2.8504 0
M  V30 2 C 1.6895 -1.1029 -1.6456 0
M  V30 3 O 2.4149 -0.3123 -0.814 0
M  V30 4 N 0.6933 -1.796 -0.9829 0
M  V30 5 C 3.4418 0.4353 -1.4685 0
M  V30 6 C -0.1764 -2.7004 -1.7198 0
M  V30 7 C 0.4571 -1.7072 0.455 0
M  V30 8 C 4.1291 1.2934 -0.4361 0
M  V30 9 C -1.6455 -2.3599 -1.4763 0
M  V30 10 C -0.9998 -1.3467 0.7418 0
M  V30 11 C 3.4283 2.3278 0.2019 0
M  V30 12 C 5.4705 1.0727 -0.0955 0
M  V30 13 C -1.961 -2.3145 0.0306 0
M  V30 14 C 4.058 3.1274 1.1568 0
M  V30 15 C 6.0988 1.874 0.8598 0
M  V30 16 C -3.4423 -2.0106 0.3097 0
M  V30 17 C 5.3932 2.9008 1.4846 0
M  V30 18 N -3.8634 -0.7295 -0.227 0
M  V30 19 C -3.9992 0.4537 0.4716 0
M  V30 20 C -3.7956 0.5814 1.8442 0
M  V30 21 C -4.3567 1.6108 -0.2258 0
M  V30 22 C -3.9533 1.8239 2.4456 0
M  V30 23 C -4.4916 2.8115 0.4571 0
M  V30 24 N -4.2972 2.9455 1.7829 0
M  V30 25 H 3.0118 1.0821 -2.2433 0
M  V30 26 H 4.1583 -0.2516 -1.9346 0
M  V30 27 H 0.0359 -2.6682 -2.7931 0
M  V30 28 H 0.0413 -3.718 -1.3745 0
M  V30 29 H 0.6981 -2.6868 0.8845 0
M  V30 30 H 1.1135 -0.9746 0.9325 0
M  V30 31 H -2.2799 -3.1027 -1.9733 0
M  V30 32 H -1.8624 -1.3872 -1.9351 0
M  V30 33 H -1.1755 -0.3203 0.399 0
M  V30 34 H -1.1741 -1.3673 1.8235 0
M  V30 35 H 2.3836 2.51 -0.042 0
M  V30 36 H 6.0354 0.274 -0.5706 0
M  V30 37 H -1.7704 -3.3193 0.4343 0
M  V30 38 H 3.5054 3.9255 1.6457 0
M  V30 39 H 7.1395 1.6959 1.1176 0
M  V30 40 H -3.6608 -2.1077 1.3782 0
M  V30 41 H -4.0478 -2.7843 -0.1789 0
M  V30 42 H 5.8832 3.5232 2.2286 0
M  V30 43 H -4.0634 -0.7045 -1.2211 0
M  V30 44 H -3.5153 -0.2584 2.4658 0
M  V30 45 H -4.5291 1.5889 -1.2961 0
M  V30 46 H -3.8001 1.9473 3.5138 0
M  V30 47 H -4.7677 3.7222 -0.0658 0
M  V30 END ATOM
M  V30 BEGIN BOND
M  V30 1 2 1 2
M  V30 2 1 2 3
M  V30 3 1 2 4
M  V30 4 1 3 5
M  V30 5 1 4 6
M  V30 6 1 4 7
M  V30 7 1 5 8
M  V30 8 1 6 9
M  V30 9 1 7 10
M  V30 10 2 8 11
M  V30 11 1 8 12
M  V30 12 1 9 13
M  V30 13 1 11 14
M  V30 14 2 12 15
M  V30 15 1 13 16
M  V30 16 2 14 17
M  V30 17 1 16 18
M  V30 18 1 18 19
M  V30 19 2 19 20
M  V30 20 1 19 21
M  V30 21 1 20 22
M  V30 22 2 21 23
M  V30 23 2 22 24
M  V30 24 1 10 13
M  V30 25 1 15 17
M  V30 26 1 23 24
M  V30 27 1 5 25
M  V30 28 1 5 26
M  V30 29 1 6 27
M  V30 30 1 6 28
M  V30 31 1 7 29
M  V30 32 1 7 30
M  V30 33 1 9 31
M  V30 34 1 9 32
M  V30 35 1 10 33
M  V30 36 1 10 34
M  V30 37 1 11 35
M  V30 38 1 12 36
M  V30 39 1 13 37
M  V30 40 1 14 38
M  V30 41 1 15 39
M  V30 42 1 16 40
M  V30 43 1 16 41
M  V30 44 1 17 42
M  V30 45 1 18 43
M  V30 46 1 20 44
M  V30 47 1 21 45
M  V30 48 1 22 46
M  V30 49 1 23 47
M  V30 END BOND
M  V30 END CTAB
M  END
>  <Column 1>
552

>  <level_0>
627

>  <index>
627

>  <Unnamed: 0>
627

>  <NO.>
637

>  <Name>
chembl219060

>  <IUPAC_name>
benzyl 4-[(pyridin-4-ylamino)methyl]piperidine-1-carboxylate

>  <SMILES>
O=C(OCc1ccccc1)N1CCC(CNc2ccncc2)CC1

>  <CID>
9797385

>  <logBB>
0.13

>  <BBB+/BBB->
BBB+

>  <Inchi>
InChI=1S/C19H23N3O2/c23-19(24-15-17-4-2-1-3-5-17)22-12-8-16(9-13-22)14-21-18-6-10-20-11-7-18/h1-7-10-11-16H-8-9-12-15H2-(H-20-21)

>  <threshold>


>  <reference>
R18|R26|R27|

>  <group>
A

>  <Class>
1

>  <ABC>
18.45

>  <ABCGG>
13.41

>  <nAcid>
0

>  <nBase>
0

>  <nAromAtom>
12

>  <nAromBond>
12

>  <nAtom>
47

>  <nHeavyAtom>
24

>  <nSpiro>
0

>  <nBridgehead>
0

>  <nHetero>
5

>  <nN>
3

>  <nO>
2

>  <nF>
0

>  <BalabanJ>
1.27

>  <BertzCT>
625.57

>  <nBonds>
49

>  <nBondsO>
26

>  <nBondsS>
36

>  <nBondsD>
1

>  <nBondsT>
0

>  <nBondsA>
12

>  <nBondsM>
13

>  <nBondsKS>
42

>  <nBondsKD>
7

>  <RNCG>
0.22

>  <RPCG>
0.2

>  <FCSP3>
0.37

>  <SZ>
29

>  <Sm>
27.09

>  <Sv>
28.93

>  <Sse>
46.86

>  <Sp>
31.12

>  <Si>
53.07

>  <MZ>
0.62

>  <Mm>
0.58

>  <Mv>
0.62

>  <Mse>
1

>  <Mp>
0.66

>  <Mi>
1.13

>  <NsCH3>
0

>  <NdCH2>
0

>  <NssCH2>
6

>  <NtCH>
0

>  <NdsCH>
0

>  <NaaCH>
9

>  <NsssCH>
1

>  <NddC>
0

>  <NtsC>
0

>  <NdssC>
1

>  <NaasC>
2

>  <NaaaC>
0

>  <NssssC>
0

>  <NsNH3>
0

>  <NsNH2>
0

>  <NssNH2>
0

>  <NdNH>
0

>  <NssNH>
1

>  <NaaNH>
0

>  <NtN>
0

>  <NsssNH>
0

>  <NdsN>
0

>  <NaaN>
1

>  <NsssN>
1

>  <NddsN>
0

>  <NaasN>
0

>  <NssssN>
0

>  <NsOH>
0

>  <NdO>
1

>  <NssO>
1

>  <NaaO>
0

>  <NsF>
0

>  <NsSiH3>
0

>  <NssSiH2>
0

>  <NsssSiH>
0

>  <NssssSi>
0

>  <NsPH2>
0

>  <NssPH>
0

>  <NsssP>
0

>  <NdsssP>
0

>  <NsssssP>
0

>  <NsSH>
0

>  <NdS>
0

>  <NssS>
0

>  <NaaS>
0

>  <NdssS>
0

>  <NddssS>
0

>  <NsCl>
0

>  <NsBr>
0

>  <NsI>
0

>  <fragCpx>
124.05

>  <fMF>
0.49

>  <nHBAcc>
4

>  <nHBDon>
1

>  <Kier1>
18.78

>  <Kier2>
10.22

>  <Lipinski>
1

>  <GhoseFilter>
1

>  <FilterItLogS>
-4.2

>  <VMcGowan>
257.57

>  <LabuteASA>
142.21

>  <PEOE_VSA1>
14.95

>  <PEOE_VSA2>
4.98

>  <PEOE_VSA3>
4.79

>  <PEOE_VSA4>
0

>  <PEOE_VSA5>
0

>  <PEOE_VSA6>
30.33

>  <PEOE_VSA7>
36.46

>  <PEOE_VSA8>
37.72

>  <PEOE_VSA9>
0

>  <PEOE_VSA10>
6.61

>  <PEOE_VSA11>
0

>  <PEOE_VSA12>
0

>  <PEOE_VSA13>
0

>  <SMR_VSA1>
9.53

>  <SMR_VSA2>
0

>  <SMR_VSA3>
9.88

>  <SMR_VSA4>
5.92

>  <SMR_VSA5>
19.45

>  <SMR_VSA6>
24.95

>  <SMR_VSA7>
60.42

>  <SMR_VSA8>
0

>  <SMR_VSA9>
0

>  <SlogP_VSA1>
5.32

>  <SlogP_VSA2>
35.61

>  <SlogP_VSA3>
11.34

>  <SlogP_VSA4>
5.92

>  <SlogP_VSA5>
18.41

>  <SlogP_VSA6>
54.86

>  <SlogP_VSA7>
0

>  <SlogP_VSA8>
0

>  <SlogP_VSA9>
0

>  <SlogP_VSA10>
10.48

>  <SlogP_VSA11>
0

>  <EState_VSA1>
0

>  <EState_VSA2>
6.09

>  <EState_VSA3>
12.52

>  <EState_VSA4>
43.73

>  <EState_VSA5>
0

>  <EState_VSA6>
12.39

>  <EState_VSA7>
47.36

>  <EState_VSA8>
10.3

>  <EState_VSA9>
4.74

>  <EState_VSA10>
4.79

>  <VSA_EState1>
5.4

>  <VSA_EState2>
17.96

>  <VSA_EState3>
3.43

>  <VSA_EState4>
2.11

>  <VSA_EState5>
0.58

>  <VSA_EState6>
13.71

>  <VSA_EState7>
5.36

>  <VSA_EState8>
2.78

>  <VSA_EState9>
0

>  <apol>
51.97

>  <bpol>
29.1

>  <nRing>
3

>  <nHRing>
2

>  <naRing>
2

>  <naHRing>
1

>  <nARing 2>
1

>  <nAHRing 2>
1

>  <nFRing>
0

>  <nFHRing>
0

>  <nFaRing>
0

>  <nFaHRing>
0

>  <nFARing 2>
0

>  <nFAHRing 2>
0

>  <nRot>
5

>  <SLogP>
3.54

>  <SMR>
93.65

>  <TopoPSA(NO)>
54.46

>  <TopoPSA>
54.46

>  <JGI1>
0.13

>  <JGI2>
0.06

>  <JGI3>
0.02

>  <JGI4>
0.03

>  <JGI5>
0.03

>  <Diameter>
16

>  <Radius>
8

>  <TMWC10>
122.27

>  <TSRW10>
57.78

>  <MW>
325.18

>  <AMW>
6.92

>  <WPath>
1680

>  <WPol>
31

>  <Zagreb1>
118

>  <Zagreb2>
132

>  <mZagreb2>
5.44

>  <yes>


>  <nAR-cont>
0.816016

>  <nHA-cont>
0.94700071

>  <MWHBN>
0.277273325

>  <MWHBN-cont>
0.902891366

>  <TPSA-cont>
0.619835382

>  <pka_cont>
0.97

>  <yes.1>


>  <BBB_SCORE>
4.842024524

>  <MMFF94 Energy>
-24.06

$$$$
Compound 448
Actelion Java MolfileCreator 2.0

  0  0  0  0  0  0              0 V3000
M  V30 BEGIN CTAB
M  V30 COUNTS 38 38 0 0 0
M  V30 BEGIN ATOM
M  V30 1 Cl -3.1437 4.1671 -0.471 0
M  V30 2 C -3.1165 2.4795 -0.858 0
M  V30 3 C -4.3002 1.7192 -0.8251 0
M  V30 4 C -1.8914 1.9056 -1.2111 0
M  V30 5 N -5.5176 2.2618 -0.4367 0
M  V30 6 C -4.2209 0.3594 -1.1372 0
M  V30 7 C -1.8296 0.5443 -1.5198 0
M  V30 8 C -3.0 -0.223 -1.4917 0
M  V30 9 C -0.5561 -0.1265 -1.8985 0
M  V30 10 O -0.5767 -1.1379 -2.5908 0
M  V30 11 N 0.6019 0.4214 -1.3951 0
M  V30 12 C 1.8998 -0.1619 -1.6694 0
M  V30 13 C 2.2637 -1.3625 -0.7708 0
M  V30 14 N 2.47 -0.9865 0.6524 0
M  V30 15 C 3.4588 -1.9017 1.259 0
M  V30 16 C 1.1953 -0.9951 1.3964 0
M  V30 17 C 3.8931 -1.5014 2.6652 0
M  V30 18 C 1.0431 0.2865 2.2069 0
M  V30 19 H -1.0077 2.5331 -1.2636 0
M  V30 20 H -6.3748 1.7322 -0.508 0
M  V30 21 H -5.5747 3.2597 -0.2662 0
M  V30 22 H -5.1121 -0.2627 -1.1096 0
M  V30 23 H -2.9642 -1.2825 -1.7403 0
M  V30 24 H 0.5747 1.173 -0.7219 0
M  V30 25 H 2.6427 0.6352 -1.5541 0
M  V30 26 H 1.9195 -0.4814 -2.7177 0
M  V30 27 H 1.5267 -2.1702 -0.8653 0
M  V30 28 H 3.2011 -1.7565 -1.1851 0
M  V30 29 H 3.0835 -2.933 1.2683 0
M  V30 30 H 4.3686 -1.8988 0.6452 0
M  V30 31 H 0.3294 -1.0656 0.7294 0
M  V30 32 H 1.1106 -1.8672 2.0568 0
M  V30 33 H 4.7172 -2.1423 2.9958 0
M  V30 34 H 3.0826 -1.6124 3.3913 0
M  V30 35 H 4.2467 -0.4653 2.6891 0
M  V30 36 H 0.079 0.2872 2.7262 0
M  V30 37 H 1.0747 1.1707 1.5621 0
M  V30 38 H 1.8267 0.391 2.9624 0
M  V30 END ATOM
M  V30 BEGIN BOND
M  V30 1 1 1 2
M  V30 2 2 2 3
M  V30 3 1 2 4
M  V30 4 1 3 5
M  V30 5 1 3 6
M  V30 6 2 4 7
M  V30 7 2 6 8
M  V30 8 1 7 9
M  V30 9 2 9 10
M  V30 10 1 9 11
M  V30 11 1 11 12
M  V30 12 1 12 13
M  V30 13 1 13 14
M  V30 14 1 14 15
M  V30 15 1 14 16
M  V30 16 1 15 17
M  V30 17 1 16 18
M  V30 18 1 7 8
M  V30 19 1 4 19
M  V30 20 1 5 20
M  V30 21 1 5 21
M  V30 22 1 6 22
M  V30 23 1 8 23
M  V30 24 1 11 24
M  V30 25 1 12 25
M  V30 26 1 12 26
M  V30 27 1 13 27
M  V30 28 1 13 28
M  V30 29 1 15 29
M  V30 30 1 15 30
M  V30 31 1 16 31
M  V30 32 1 16 32
M  V30 33 1 17 33
M  V30 34 1 17 34
M  V30 35 1 17 35
M  V30 36 1 18 36
M  V30 37 1 18 37
M  V30 38 1 18 38
M  V30 END BOND
M  V30 END CTAB
M  END
>  <Column 1>
554

>  <level_0>
629

>  <index>
629

>  <Unnamed: 0>
629

>  <NO.>
639

>  <Name>
declopramide

>  <IUPAC_name>
4-amino-3-chloro-n-[2-(diethylamino)ethyl]benzamide

>  <SMILES>
CCN(CC)CCNC(=O)c1ccc(N)c(Cl)c1

>  <CID>
70177

>  <logBB>
0.14

>  <BBB+/BBB->
BBB+

>  <Inchi>
InChI=1S/C13H20ClN3O/c1-3-17(4-2)8-7-16-13(18)10-5-6-12(15)11(14)9-10/h5-6-9H-3-4-7-8-15H2-1-2H3-(H-16-18)

>  <threshold>


>  <reference>
R18|R26|R27|

>  <group>
A

>  <Class>
1

>  <ABC>
12.98

>  <ABCGG>
11.64

>  <nAcid>
0

>  <nBase>
1

>  <nAromAtom>
6

>  <nAromBond>
6

>  <nAtom>
38

>  <nHeavyAtom>
18

>  <nSpiro>
0

>  <nBridgehead>
0

>  <nHetero>
5

>  <nN>
3

>  <nO>
1

>  <nF>
0

>  <BalabanJ>
2.22

>  <BertzCT>
405.22

>  <nBonds>
38

>  <nBondsO>
18

>  <nBondsS>
31

>  <nBondsD>
1

>  <nBondsT>
0

>  <nBondsA>
6

>  <nBondsM>
7

>  <nBondsKS>
34

>  <nBondsKD>
4

>  <RNCG>
0.24

>  <RPCG>
0.15

>  <FCSP3>
0.46

>  <SZ>
24

>  <Sm>
22.46

>  <Sv>
22.5

>  <Sse>
37.96

>  <Sp>
24.75

>  <Si>
43.39

>  <MZ>
0.63

>  <Mm>
0.59

>  <Mv>
0.59

>  <Mse>
1

>  <Mp>
0.65

>  <Mi>
1.14

>  <NsCH3>
2

>  <NdCH2>
0

>  <NssCH2>
4

>  <NtCH>
0

>  <NdsCH>
0

>  <NaaCH>
3

>  <NsssCH>
0

>  <NddC>
0

>  <NtsC>
0

>  <NdssC>
1

>  <NaasC>
3

>  <NaaaC>
0

>  <NssssC>
0

>  <NsNH3>
0

>  <NsNH2>
1

>  <NssNH2>
0

>  <NdNH>
0

>  <NssNH>
1

>  <NaaNH>
0

>  <NtN>
0

>  <NsssNH>
0

>  <NdsN>
0

>  <NaaN>
0

>  <NsssN>
1

>  <NddsN>
0

>  <NaasN>
0

>  <NssssN>
0

>  <NsOH>
0

>  <NdO>
1

>  <NssO>
0

>  <NaaO>
0

>  <NsF>
0

>  <NsSiH3>
0

>  <NssSiH2>
0

>  <NsssSiH>
0

>  <NssssSi>
0

>  <NsPH2>
0

>  <NssPH>
0

>  <NsssP>
0

>  <NdsssP>
0

>  <NsssssP>
0

>  <NsSH>
0

>  <NdS>
0

>  <NssS>
0

>  <NaaS>
0

>  <NdssS>
0

>  <NddssS>
0

>  <NsCl>
1

>  <NsBr>
0

>  <NsI>
0

>  <fragCpx>
18.05

>  <fMF>
0.16

>  <nHBAcc>
3

>  <nHBDon>
2

>  <Kier1>
16.06

>  <Kier2>
8.23

>  <Lipinski>
1

>  <GhoseFilter>
1

>  <FilterItLogS>
-3.93

>  <VMcGowan>
214.02

>  <LabuteASA>
113.1

>  <PEOE_VSA1>
15.95

>  <PEOE_VSA2>
4.79

>  <PEOE_VSA3>
0

>  <PEOE_VSA4>
0

>  <PEOE_VSA5>
0

>  <PEOE_VSA6>
25.45

>  <PEOE_VSA7>
31.29

>  <PEOE_VSA8>
18.65

>  <PEOE_VSA9>
10.71

>  <PEOE_VSA10>
0

>  <PEOE_VSA11>
0

>  <PEOE_VSA12>
0

>  <PEOE_VSA13>
5.91

>  <SMR_VSA1>
4.79

>  <SMR_VSA2>
0

>  <SMR_VSA3>
10.22

>  <SMR_VSA4>
0

>  <SMR_VSA5>
13.85

>  <SMR_VSA6>
31.91

>  <SMR_VSA7>
28.79

>  <SMR_VSA8>
0

>  <SMR_VSA9>
0

>  <SlogP_VSA1>
11.05

>  <SlogP_VSA2>
36.99

>  <SlogP_VSA3>
0

>  <SlogP_VSA4>
0

>  <SlogP_VSA5>
24.21

>  <SlogP_VSA6>
18.2

>  <SlogP_VSA7>
5.02

>  <SlogP_VSA8>
0

>  <SlogP_VSA9>
0

>  <SlogP_VSA10>
5.69

>  <SlogP_VSA11>
0

>  <EState_VSA1>
0

>  <EState_VSA2>
5.91

>  <EState_VSA3>
22.82

>  <EState_VSA4>
19.63

>  <EState_VSA5>
0

>  <EState_VSA6>
18.2

>  <EState_VSA7>
0

>  <EState_VSA8>
24.06

>  <EState_VSA9>
17.33

>  <EState_VSA10>
4.79

>  <VSA_EState1>
0

>  <VSA_EState2>
14.08

>  <VSA_EState3>
3.27

>  <VSA_EState4>
6.61

>  <VSA_EState5>
-0.12

>  <VSA_EState6>
4.9

>  <VSA_EState7>
0

>  <VSA_EState8>
7.65

>  <VSA_EState9>
0

>  <apol>
41.33

>  <bpol>
23.15

>  <nRing>
1

>  <nHRing>
0

>  <naRing>
1

>  <naHRing>
0

>  <nARing 2>
0

>  <nAHRing 2>
0

>  <nFRing>
0

>  <nFHRing>
0

>  <nFaRing>
0

>  <nFaHRing>
0

>  <nFARing 2>
0

>  <nFAHRing 2>
0

>  <nRot>
6

>  <SLogP>
1.99

>  <SMR>
75.99

>  <TopoPSA(NO)>
58.36

>  <TopoPSA>
58.36

>  <JGI1>
0.22

>  <JGI2>
0.11

>  <JGI3>
0.04

>  <JGI4>
0.04

>  <JGI5>
0.03

>  <Diameter>
11

>  <Radius>
6

>  <TMWC10>
104.96

>  <TSRW10>
50.01

>  <MW>
269.13

>  <AMW>
7.08

>  <WPath>
709

>  <WPol>
24

>  <Zagreb1>
82

>  <Zagreb2>
91

>  <mZagreb2>
4.31

>  <yes>


>  <nAR-cont>
0.336376

>  <nHA-cont>
0.991161285

>  <MWHBN>
0.304781743

>  <MWHBN-cont>
0.826220843

>  <TPSA-cont>
0.592610961

>  <pka_cont>
0.97

>  <yes.1>


>  <BBB_SCORE>
4.23709047

>  <MMFF94 Energy>
35.142

$$$$
Compound 449
Actelion Java MolfileCreator 2.0

  0  0  0  0  0  0              0 V3000
M  V30 BEGIN CTAB
M  V30 COUNTS 19 19 0 0 0
M  V30 BEGIN ATOM
M  V30 1 Cl 0.9931 1.9042 -2.3185 0
M  V30 2 C 0.4645 1.7269 -0.6806 0
M  V30 3 C 0.1325 0.466 -0.152 0
M  V30 4 C 0.3776 2.8808 0.1023 0
M  V30 5 O 0.249 -0.6065 -0.9961 0
M  V30 6 C -0.2889 0.3854 1.1801 0
M  V30 7 C -0.0431 2.7802 1.4236 0
M  V30 8 C -0.0797 -1.893 -0.4889 0
M  V30 9 C -0.3761 1.5408 1.9651 0
M  V30 10 Cl -0.1539 4.1938 2.3974 0
M  V30 11 C 0.1084 -2.9522 -1.5597 0
M  V30 12 O 0.4826 -2.8063 -2.7107 0
M  V30 13 O -0.1976 -4.1883 -1.1037 0
M  V30 14 H 0.6369 3.8485 -0.3181 0
M  V30 15 H -0.5583 -0.5582 1.6438 0
M  V30 16 H -1.1326 -1.9183 -0.1859 0
M  V30 17 H 0.5855 -2.1485 0.3436 0
M  V30 18 H -0.705 1.4652 2.9992 0
M  V30 19 H -0.0351 -4.7646 -1.8815 0
M  V30 END ATOM
M  V30 BEGIN BOND
M  V30 1 1 1 2
M  V30 2 2 2 3
M  V30 3 1 2 4
M  V30 4 1 3 5
M  V30 5 1 3 6
M  V30 6 2 4 7
M  V30 7 1 5 8
M  V30 8 2 6 9
M  V30 9 1 7 10
M  V30 10 1 8 11
M  V30 11 2 11 12
M  V30 12 1 11 13
M  V30 13 1 7 9
M  V30 14 1 4 14
M  V30 15 1 6 15
M  V30 16 1 8 16
M  V30 17 1 8 17
M  V30 18 1 9 18
M  V30 19 1 13 19
M  V30 END BOND
M  V30 END CTAB
M  END
>  <Column 1>
558

>  <level_0>
633

>  <index>
633

>  <Unnamed: 0>
633

>  <NO.>
643

>  <Name>
2-4-dichlorophenoxyacetic acid

>  <IUPAC_name>
2-(2-4-dichlorophenoxy)acetic acid

>  <SMILES>
O=C(O)COc1ccc(Cl)cc1Cl

>  <CID>
1486

>  <logBB>
0.15

>  <BBB+/BBB->
BBB+

>  <Inchi>
InChI=1S/C8H6Cl2O3/c9-5-1-2-7(6(10)3-5)13-4-8(11)12/h1-3H-4H2-(H-11-12)

>  <threshold>


>  <reference>
R2|R2|R8|R27|

>  <group>
A

>  <Class>
1

>  <ABC>
9.59

>  <ABCGG>
8.77

>  <nAcid>
1

>  <nBase>
0

>  <nAromAtom>
6

>  <nAromBond>
6

>  <nAtom>
19

>  <nHeavyAtom>
13

>  <nSpiro>
0

>  <nBridgehead>
0

>  <nHetero>
5

>  <nN>
0

>  <nO>
3

>  <nF>
0

>  <BalabanJ>
2.25

>  <BertzCT>
325.17

>  <nBonds>
19

>  <nBondsO>
13

>  <nBondsS>
12

>  <nBondsD>
1

>  <nBondsT>
0

>  <nBondsA>
6

>  <nBondsM>
7

>  <nBondsKS>
15

>  <nBondsKD>
4

>  <RNCG>
0.33

>  <RPCG>
0.24

>  <FCSP3>
0.13

>  <SZ>
18.67

>  <Sm>
18.4

>  <Sv>
13.95

>  <Sse>
20.19

>  <Sp>
14.45

>  <Si>
21.18

>  <MZ>
0.98

>  <Mm>
0.97

>  <Mv>
0.73

>  <Mse>
1.06

>  <Mp>
0.76

>  <Mi>
1.11

>  <NsCH3>
0

>  <NdCH2>
0

>  <NssCH2>
1

>  <NtCH>
0

>  <NdsCH>
0

>  <NaaCH>
3

>  <NsssCH>
0

>  <NddC>
0

>  <NtsC>
0

>  <NdssC>
1

>  <NaasC>
3

>  <NaaaC>
0

>  <NssssC>
0

>  <NsNH3>
0

>  <NsNH2>
0

>  <NssNH2>
0

>  <NdNH>
0

>  <NssNH>
0

>  <NaaNH>
0

>  <NtN>
0

>  <NsssNH>
0

>  <NdsN>
0

>  <NaaN>
0

>  <NsssN>
0

>  <NddsN>
0

>  <NaasN>
0

>  <NssssN>
0

>  <NsOH>
1

>  <NdO>
1

>  <NssO>
1

>  <NaaO>
0

>  <NsF>
0

>  <NsSiH3>
0

>  <NssSiH2>
0

>  <NsssSiH>
0

>  <NssssSi>
0

>  <NsPH2>
0

>  <NssPH>
0

>  <NsssP>
0

>  <NdsssP>
0

>  <NsssssP>
0

>  <NsSH>
0

>  <NdS>
0

>  <NssS>
0

>  <NaaS>
0

>  <NdssS>
0

>  <NddssS>
0

>  <NsCl>
2

>  <NsBr>
0

>  <NsI>
0

>  <fragCpx>
13.05

>  <fMF>
0.32

>  <nHBAcc>
2

>  <nHBDon>
1

>  <Kier1>
11.08

>  <Kier2>
5.02

>  <Lipinski>
1

>  <GhoseFilter>
0

>  <FilterItLogS>
-2.7

>  <VMcGowan>
137.61

>  <LabuteASA>
84.84

>  <PEOE_VSA1>
9.84

>  <PEOE_VSA2>
0

>  <PEOE_VSA3>
4.79

>  <PEOE_VSA4>
0

>  <PEOE_VSA5>
0

>  <PEOE_VSA6>
23.2

>  <PEOE_VSA7>
18.2

>  <PEOE_VSA8>
5.02

>  <PEOE_VSA9>
5.02

>  <PEOE_VSA10>
5.75

>  <PEOE_VSA11>
6.61

>  <PEOE_VSA12>
0

>  <PEOE_VSA13>
0

>  <SMR_VSA1>
14.64

>  <SMR_VSA2>
0

>  <SMR_VSA3>
0

>  <SMR_VSA4>
0

>  <SMR_VSA5>
0

>  <SMR_VSA6>
6.61

>  <SMR_VSA7>
28.24

>  <SMR_VSA8>
0

>  <SMR_VSA9>
5.75

>  <SlogP_VSA1>
4.74

>  <SlogP_VSA2>
17.68

>  <SlogP_VSA3>
4.79

>  <SlogP_VSA4>
0

>  <SlogP_VSA5>
0

>  <SlogP_VSA6>
18.2

>  <SlogP_VSA7>
10.05

>  <SlogP_VSA8>
0

>  <SlogP_VSA9>
0

>  <SlogP_VSA10>
0

>  <SlogP_VSA11>
5.75

>  <EState_VSA1>
12.58

>  <EState_VSA2>
0

>  <EState_VSA3>
15.79

>  <EState_VSA4>
0

>  <EState_VSA5>
12.13

>  <EState_VSA6>
6.07

>  <EState_VSA7>
0

>  <EState_VSA8>
0

>  <EState_VSA9>
33.05

>  <EState_VSA10>
4.79

>  <VSA_EState1>
4.86

>  <VSA_EState2>
10.16

>  <VSA_EState3>
9.11

>  <VSA_EState4>
0

>  <VSA_EState5>
-0.74

>  <VSA_EState6>
4.58

>  <VSA_EState7>
0

>  <VSA_EState8>
-0.42

>  <VSA_EState9>
0

>  <apol>
24.13

>  <bpol>
9.64

>  <nRing>
1

>  <nHRing>
0

>  <naRing>
1

>  <naHRing>
0

>  <nARing 2>
0

>  <nAHRing 2>
0

>  <nFRing>
0

>  <nFHRing>
0

>  <nFaRing>
0

>  <nFaHRing>
0

>  <nFARing 2>
0

>  <nFAHRing 2>
0

>  <nRot>
3

>  <SLogP>
2.46

>  <SMR>
49.59

>  <TopoPSA(NO)>
46.53

>  <TopoPSA>
46.53

>  <JGI1>
0.27

>  <JGI2>
0.09

>  <JGI3>
0.05

>  <JGI4>
0.06

>  <JGI5>
0.04

>  <Diameter>
8

>  <Radius>
4

>  <TMWC10>
91.95

>  <TSRW10>
43.44

>  <MW>
219.97

>  <AMW>
11.58

>  <WPath>
266

>  <WPol>
15

>  <Zagreb1>
60

>  <Zagreb2>
65

>  <mZagreb2>
2.94

>  <yes>


>  <nAR-cont>
0.336376

>  <nHA-cont>
0.841215992

>  <MWHBN>
0.202273751

>  <MWHBN-cont>
0.999917467

>  <TPSA-cont>
0.675191707

>  <pka_cont>
0.97

>  <yes.1>


>  <BBB_SCORE>
4.512851606

>  <MMFF94 Energy>
28.304

$$$$
Compound 450
Actelion Java MolfileCreator 2.0

  0  0  0  0  0  0              0 V3000
M  V30 BEGIN CTAB
M  V30 COUNTS 21 21 0 0 0
M  V30 BEGIN ATOM
M  V30 1 C 0.2324 0.3099 -0.8526 0
M  V30 2 C 1.1477 -0.4984 -0.1505 0
M  V30 3 C -0.9965 0.637 -0.2545 0
M  V30 4 C 0.5429 0.8323 -2.2287 0
M  V30 5 C 0.8139 -0.9529 1.1338 0
M  V30 6 C 2.4768 -0.8772 -0.7436 0
M  V30 7 C -1.3312 0.1671 1.0215 0
M  V30 8 C -0.4102 -0.6196 1.7159 0
M  V30 9 C -2.6334 0.5548 1.6568 0
M  V30 10 H -1.7045 1.2669 -0.7905 0
M  V30 11 H 1.443 1.4547 -2.2053 0
M  V30 12 H 0.69 0.0017 -2.9262 0
M  V30 13 H -0.2734 1.4495 -2.6189 0
M  V30 14 H 1.5101 -1.5718 1.6956 0
M  V30 15 H 2.3337 -1.4253 -1.6802 0
M  V30 16 H 3.0779 0.018 -0.9316 0
M  V30 17 H 3.0488 -1.5235 -0.0693 0
M  V30 18 H -0.6387 -0.9807 2.7159 0
M  V30 19 H -2.9728 -0.2166 2.356 0
M  V30 20 H -2.5187 1.4981 2.1997 0
M  V30 21 H -3.4165 0.6738 0.9005 0
M  V30 END ATOM
M  V30 BEGIN BOND
M  V30 1 2 1 2
M  V30 2 1 1 3
M  V30 3 1 1 4
M  V30 4 1 2 5
M  V30 5 1 2 6
M  V30 6 2 3 7
M  V30 7 2 5 8
M  V30 8 1 7 9
M  V30 9 1 7 8
M  V30 10 1 3 10
M  V30 11 1 4 11
M  V30 12 1 4 12
M  V30 13 1 4 13
M  V30 14 1 5 14
M  V30 15 1 6 15
M  V30 16 1 6 16
M  V30 17 1 6 17
M  V30 18 1 8 18
M  V30 19 1 9 19
M  V30 20 1 9 20
M  V30 21 1 9 21
M  V30 END BOND
M  V30 END CTAB
M  END
>  <Column 1>
560

>  <level_0>
635

>  <index>
635

>  <Unnamed: 0>
635

>  <NO.>
645

>  <Name>
1-2-4-trimethylbenzene

>  <IUPAC_name>
1-2-4-trimethylbenzene

>  <SMILES>
Cc1ccc(C)c(C)c1

>  <CID>
7247

>  <logBB>
0.16

>  <BBB+/BBB->
BBB+

>  <Inchi>
InChI=1S/C9H12/c1-7-4-5-8(2)9(3)6-7/h4-6H-1-3H3

>  <threshold>


>  <reference>
R2|R2|R3|R8|R21|R25|R27|R27|R38|R40|R41|R43|R46|R47|

>  <group>
A

>  <Class>
1

>  <ABC>
6.65

>  <ABCGG>
6.36

>  <nAcid>
0

>  <nBase>
0

>  <nAromAtom>
6

>  <nAromBond>
6

>  <nAtom>
21

>  <nHeavyAtom>
9

>  <nSpiro>
0

>  <nBridgehead>
0

>  <nHetero>
0

>  <nN>
0

>  <nO>
0

>  <nF>
0

>  <BalabanJ>
2.35

>  <BertzCT>
211.28

>  <nBonds>
21

>  <nBondsO>
9

>  <nBondsS>
15

>  <nBondsD>
0

>  <nBondsT>
0

>  <nBondsA>
6

>  <nBondsM>
6

>  <nBondsKS>
18

>  <nBondsKD>
3

>  <RNCG>
0.13

>  <RPCG>
0.14

>  <FCSP3>
0.33

>  <SZ>
11

>  <Sm>
10.01

>  <Sv>
12.25

>  <Sse>
20.33

>  <Sp>
13.79

>  <Si>
23.49

>  <MZ>
0.52

>  <Mm>
0.48

>  <Mv>
0.58

>  <Mse>
0.97

>  <Mp>
0.66

>  <Mi>
1.12

>  <NsCH3>
3

>  <NdCH2>
0

>  <NssCH2>
0

>  <NtCH>
0

>  <NdsCH>
0

>  <NaaCH>
3

>  <NsssCH>
0

>  <NddC>
0

>  <NtsC>
0

>  <NdssC>
0

>  <NaasC>
3

>  <NaaaC>
0

>  <NssssC>
0

>  <NsNH3>
0

>  <NsNH2>
0

>  <NssNH2>
0

>  <NdNH>
0

>  <NssNH>
0

>  <NaaNH>
0

>  <NtN>
0

>  <NsssNH>
0

>  <NdsN>
0

>  <NaaN>
0

>  <NsssN>
0

>  <NddsN>
0

>  <NaasN>
0

>  <NssssN>
0

>  <NsOH>
0

>  <NdO>
0

>  <NssO>
0

>  <NaaO>
0

>  <NsF>
0

>  <NsSiH3>
0

>  <NssSiH2>
0

>  <NsssSiH>
0

>  <NssssSi>
0

>  <NsPH2>
0

>  <NssPH>
0

>  <NsssP>
0

>  <NdsssP>
0

>  <NsssssP>
0

>  <NsSH>
0

>  <NdS>
0

>  <NssS>
0

>  <NaaS>
0

>  <NdssS>
0

>  <NddssS>
0

>  <NsCl>
0

>  <NsBr>
0

>  <NsI>
0

>  <fragCpx>
9

>  <fMF>
0.29

>  <nHBAcc>
0

>  <nHBDon>
0

>  <Kier1>
7.11

>  <Kier2>
2.72

>  <Lipinski>
1

>  <GhoseFilter>
0

>  <FilterItLogS>
-3.06

>  <VMcGowan>
113.91

>  <LabuteASA>
56.53

>  <PEOE_VSA1>
0

>  <PEOE_VSA2>
0

>  <PEOE_VSA3>
0

>  <PEOE_VSA4>
0

>  <PEOE_VSA5>
0

>  <PEOE_VSA6>
23.76

>  <PEOE_VSA7>
31.9

>  <PEOE_VSA8>
0

>  <PEOE_VSA9>
0

>  <PEOE_VSA10>
0

>  <PEOE_VSA11>
0

>  <PEOE_VSA12>
0

>  <PEOE_VSA13>
0

>  <SMR_VSA1>
0

>  <SMR_VSA2>
0

>  <SMR_VSA3>
0

>  <SMR_VSA4>
0

>  <SMR_VSA5>
20.77

>  <SMR_VSA6>
0

>  <SMR_VSA7>
34.89

>  <SMR_VSA8>
0

>  <SMR_VSA9>
0

>  <SlogP_VSA1>
0

>  <SlogP_VSA2>
0

>  <SlogP_VSA3>
0

>  <SlogP_VSA4>
20.77

>  <SlogP_VSA5>
16.69

>  <SlogP_VSA6>
18.2

>  <SlogP_VSA7>
0

>  <SlogP_VSA8>
0

>  <SlogP_VSA9>
0

>  <SlogP_VSA10>
0

>  <SlogP_VSA11>
0

>  <EState_VSA1>
0

>  <EState_VSA2>
0

>  <EState_VSA3>
0

>  <EState_VSA4>
0

>  <EState_VSA5>
16.69

>  <EState_VSA6>
0

>  <EState_VSA7>
0

>  <EState_VSA8>
38.97

>  <EState_VSA9>
0

>  <EState_VSA10>
0

>  <VSA_EState1>
0

>  <VSA_EState2>
0

>  <VSA_EState3>
0

>  <VSA_EState4>
4.11

>  <VSA_EState5>
0

>  <VSA_EState6>
6.5

>  <VSA_EState7>
0

>  <VSA_EState8>
6.39

>  <VSA_EState9>
0

>  <apol>
23.03

>  <bpol>
12.04

>  <nRing>
1

>  <nHRing>
0

>  <naRing>
1

>  <naHRing>
0

>  <nARing 2>
0

>  <nAHRing 2>
0

>  <nFRing>
0

>  <nFHRing>
0

>  <nFaRing>
0

>  <nFaHRing>
0

>  <nFARing 2>
0

>  <nFAHRing 2>
0

>  <nRot>
0

>  <SLogP>
2.61

>  <SMR>
40.65

>  <TopoPSA(NO)>
0

>  <TopoPSA>
0

>  <JGI1>
0.28

>  <JGI2>
0.11

>  <JGI3>
0.06

>  <JGI4>
0.1

>  <JGI5>
0

>  <Diameter>
5

>  <Radius>
3

>  <TMWC10>
80.68

>  <TSRW10>
37.84

>  <MW>
120.09

>  <AMW>
5.72

>  <WPath>
84

>  <WPol>
10

>  <Zagreb1>
42

>  <Zagreb2>
46

>  <mZagreb2>
2.03

>  <yes>


>  <nAR-cont>
0.336376

>  <nHA-cont>
0.56070381

>  <MWHBN>
0

>  <MWHBN-cont>
0

>  <TPSA-cont>
0

>  <pka_cont>
0.97

>  <yes.1>


>  <BBB_SCORE>
1.38207981

>  <MMFF94 Energy>
24.213

$$$$
Compound 451
Actelion Java MolfileCreator 2.0

  0  0  0  0  0  0              0 V3000
M  V30 BEGIN CTAB
M  V30 COUNTS 23 24 0 0 0
M  V30 BEGIN ATOM
M  V30 1 Cl 0.5721 2.0446 2.8633 0
M  V30 2 C -0.7539 1.2125 2.1167 0
M  V30 3 C -0.5519 0.4612 0.9368 0
M  V30 4 C -2.0099 1.3147 2.7207 0
M  V30 5 N 0.7357 0.3967 0.3669 0
M  V30 6 C -1.6693 -0.1785 0.3854 0
M  V30 7 C -3.0949 0.6631 2.1476 0
M  V30 8 C 1.1767 -0.2932 -0.7131 0
M  V30 9 C -2.9315 -0.0815 0.9842 0
M  V30 10 Cl -4.6473 0.7798 2.8788 0
M  V30 11 N 0.5445 -1.1278 -1.4865 0
M  V30 12 N 2.4776 -0.0704 -1.0266 0
M  V30 13 C 1.5544 -1.5817 -2.4831 0
M  V30 14 C 2.8296 -0.7729 -2.2273 0
M  V30 15 H -2.1382 1.8973 3.6283 0
M  V30 16 H 1.4322 0.9041 0.895 0
M  V30 17 H -1.5838 -0.7669 -0.5242 0
M  V30 18 H -3.7773 -0.5924 0.5304 0
M  V30 19 H 3.0261 0.6998 -0.6805 0
M  V30 20 H 1.1791 -1.4177 -3.4983 0
M  V30 21 H 1.7355 -2.6537 -2.3511 0
M  V30 22 H 3.6999 -1.4187 -2.082 0
M  V30 23 H 3.0283 -0.074 -3.0454 0
M  V30 END ATOM
M  V30 BEGIN BOND
M  V30 1 1 1 2
M  V30 2 2 2 3
M  V30 3 1 2 4
M  V30 4 1 3 5
M  V30 5 1 3 6
M  V30 6 2 4 7
M  V30 7 1 5 8
M  V30 8 2 6 9
M  V30 9 1 7 10
M  V30 10 2 8 11
M  V30 11 1 8 12
M  V30 12 1 11 13
M  V30 13 1 12 14
M  V30 14 1 7 9
M  V30 15 1 13 14
M  V30 16 1 4 15
M  V30 17 1 5 16
M  V30 18 1 6 17
M  V30 19 1 9 18
M  V30 20 1 12 19
M  V30 21 1 13 20
M  V30 22 1 13 21
M  V30 23 1 14 22
M  V30 24 1 14 23
M  V30 END BOND
M  V30 END CTAB
M  END
>  <Column 1>
561

>  <level_0>
636

>  <index>
636

>  <Unnamed: 0>
636

>  <NO.>
646

>  <Name>
st 363

>  <IUPAC_name>
n-(2-4-dichlorophenyl)-4-5-dihydro-1h-imidazol-2-amine

>  <SMILES>
Clc1ccc(NC2=NCCN2)c(Cl)c1

>  <CID>
90274

>  <logBB>
0.16

>  <BBB+/BBB->
BBB+

>  <Inchi>
InChI=1S/C9H9Cl2N3/c10-6-1-2-8(7(11)5-6)14-9-12-3-4-13-9/h1-2-5H-3-4H2-(H2-12-13-14)

>  <threshold>


>  <reference>
R2|R2|R2|R2|R8|R21|R25|R27|R27|R27|R43|R46|R47|R4|R40|

>  <group>
A

>  <Class>
1

>  <ABC>
10.78

>  <ABCGG>
9.7

>  <nAcid>
0

>  <nBase>
3

>  <nAromAtom>
6

>  <nAromBond>
6

>  <nAtom>
23

>  <nHeavyAtom>
14

>  <nSpiro>
0

>  <nBridgehead>
0

>  <nHetero>
5

>  <nN>
3

>  <nO>
0

>  <nF>
0

>  <BalabanJ>
1.79

>  <BertzCT>
376.32

>  <nBonds>
24

>  <nBondsO>
15

>  <nBondsS>
17

>  <nBondsD>
1

>  <nBondsT>
0

>  <nBondsA>
6

>  <nBondsM>
7

>  <nBondsKS>
20

>  <nBondsKD>
4

>  <RNCG>
0.3

>  <RPCG>
0.16

>  <FCSP3>
0.22

>  <SZ>
19.67

>  <Sm>
19.16

>  <Sv>
15.89

>  <Sse>
23.52

>  <Sp>
17.18

>  <Si>
26.04

>  <MZ>
0.86

>  <Mm>
0.83

>  <Mv>
0.69

>  <Mse>
1.02

>  <Mp>
0.75

>  <Mi>
1.13

>  <NsCH3>
0

>  <NdCH2>
0

>  <NssCH2>
2

>  <NtCH>
0

>  <NdsCH>
0

>  <NaaCH>
3

>  <NsssCH>
0

>  <NddC>
0

>  <NtsC>
0

>  <NdssC>
1

>  <NaasC>
3

>  <NaaaC>
0

>  <NssssC>
0

>  <NsNH3>
0

>  <NsNH2>
0

>  <NssNH2>
0

>  <NdNH>
0

>  <NssNH>
2

>  <NaaNH>
0

>  <NtN>
0

>  <NsssNH>
0

>  <NdsN>
1

>  <NaaN>
0

>  <NsssN>
0

>  <NddsN>
0

>  <NaasN>
0

>  <NssssN>
0

>  <NsOH>
0

>  <NdO>
0

>  <NssO>
0

>  <NaaO>
0

>  <NsF>
0

>  <NsSiH3>
0

>  <NssSiH2>
0

>  <NsssSiH>
0

>  <NssssSi>
0

>  <NsPH2>
0

>  <NssPH>
0

>  <NsssP>
0

>  <NdsssP>
0

>  <NsssssP>
0

>  <NsSH>
0

>  <NdS>
0

>  <NssS>
0

>  <NaaS>
0

>  <NdssS>
0

>  <NddssS>
0

>  <NsCl>
2

>  <NsBr>
0

>  <NsI>
0

>  <fragCpx>
43.05

>  <fMF>
0.52

>  <nHBAcc>
3

>  <nHBDon>
2

>  <Kier1>
10.52

>  <Kier2>
4.68

>  <Lipinski>
1

>  <GhoseFilter>
1

>  <FilterItLogS>
-4.15

>  <VMcGowan>
153.17

>  <LabuteASA>
92.12

>  <PEOE_VSA1>
10.63

>  <PEOE_VSA2>
4.99

>  <PEOE_VSA3>
0

>  <PEOE_VSA4>
0

>  <PEOE_VSA5>
0

>  <PEOE_VSA6>
23.2

>  <PEOE_VSA7>
18.2

>  <PEOE_VSA8>
11.57

>  <PEOE_VSA9>
17.25

>  <PEOE_VSA10>
0

>  <PEOE_VSA11>
5.96

>  <PEOE_VSA12>
0

>  <PEOE_VSA13>
0

>  <SMR_VSA1>
0

>  <SMR_VSA2>
0

>  <SMR_VSA3>
5.32

>  <SMR_VSA4>
4.99

>  <SMR_VSA5>
0

>  <SMR_VSA6>
18.41

>  <SMR_VSA7>
28.24

>  <SMR_VSA8>
0

>  <SMR_VSA9>
0

>  <SlogP_VSA1>
10.63

>  <SlogP_VSA2>
19.05

>  <SlogP_VSA3>
0

>  <SlogP_VSA4>
0

>  <SlogP_VSA5>
0

>  <SlogP_VSA6>
23.19

>  <SlogP_VSA7>
10.05

>  <SlogP_VSA8>
0

>  <SlogP_VSA9>
0

>  <SlogP_VSA10>
5.69

>  <SlogP_VSA11>
0

>  <EState_VSA1>
0

>  <EState_VSA2>
0

>  <EState_VSA3>
10.05

>  <EState_VSA4>
24.74

>  <EState_VSA5>
0

>  <EState_VSA6>
12.13

>  <EState_VSA7>
6.07

>  <EState_VSA8>
15.63

>  <EState_VSA9>
23.2

>  <EState_VSA10>
0

>  <VSA_EState1>
0

>  <VSA_EState2>
4.2

>  <VSA_EState3>
7.4

>  <VSA_EState4>
0.81

>  <VSA_EState5>
0.76

>  <VSA_EState6>
5.3

>  <VSA_EState7>
0

>  <VSA_EState8>
1.67

>  <VSA_EState9>
0

>  <apol>
28.69

>  <bpol>
12.33

>  <nRing>
2

>  <nHRing>
1

>  <naRing>
1

>  <naHRing>
0

>  <nARing 2>
1

>  <nAHRing 2>
1

>  <nFRing>
0

>  <nFHRing>
0

>  <nFaRing>
0

>  <nFaHRing>
0

>  <nFARing 2>
0

>  <nFAHRing 2>
0

>  <nRot>
1

>  <SLogP>
2.36

>  <SMR>
60.39

>  <TopoPSA(NO)>
36.42

>  <TopoPSA>
36.42

>  <JGI1>
0.2

>  <JGI2>
0.07

>  <JGI3>
0.05

>  <JGI4>
0.05

>  <JGI5>
0.01

>  <Diameter>
8

>  <Radius>
4

>  <TMWC10>
97.23

>  <TSRW10>
58.4

>  <MW>
229.02

>  <AMW>
9.96

>  <WPath>
313

>  <WPol>
16

>  <Zagreb1>
70

>  <Zagreb2>
79

>  <mZagreb2>
3.11

>  <yes>


>  <nAR-cont>
0.816016

>  <nHA-cont>
0.887625254

>  <MWHBN>
0.330394873

>  <MWHBN-cont>
0.741458929

>  <TPSA-cont>
0.745765785

>  <pka_cont>
0.97

>  <yes.1>


>  <BBB_SCORE>
4.792361217

>  <MMFF94 Energy>
-36.845

$$$$
Compound 452
Actelion Java MolfileCreator 2.0

  0  0  0  0  0  0              0 V3000
M  V30 BEGIN CTAB
M  V30 COUNTS 51 53 0 0 0
M  V30 BEGIN ATOM
M  V30 1 Cl 3.4708 -0.9676 -5.8168 0
M  V30 2 C 1.9819 -0.1375 -5.6283 0
M  V30 3 N 1.4999 -0.1313 -4.3707 0
M  V30 4 C 1.3674 0.4625 -6.7055 0
M  V30 5 C 0.3294 0.4935 -4.1266 0
M  V30 6 C 0.1645 1.1226 -6.4715 0
M  V30 7 N -0.1608 0.5123 -2.8257 0
M  V30 8 C -0.3434 1.1416 -5.1629 0
M  V30 9 C -0.5513 1.8415 -7.5796 0
M  V30 10 C 0.7289 -0.0521 -1.7955 0
M  V30 11 C -1.5921 0.2686 -2.5935 0
M  V30 12 F -0.1738 3.1444 -7.678 0
M  V30 13 F -0.3243 1.2902 -8.8036 0
M  V30 14 F -1.9036 1.8513 -7.4207 0
M  V30 15 C 0.2527 0.3182 -0.3716 0
M  V30 16 C -1.9949 0.6362 -1.1469 0
M  V30 17 N -1.1648 -0.0328 -0.1185 0
M  V30 18 C -1.6045 0.3785 1.2256 0
M  V30 19 C -0.9837 -0.4796 2.3363 0
M  V30 20 C -1.5626 -0.1098 3.7046 0
M  V30 21 C -1.0861 -1.028 4.8322 0
M  V30 22 N 0.3329 -0.9203 5.1148 0
M  V30 23 C 0.9145 0.144 5.7871 0
M  V30 24 C 1.3072 -1.8691 4.6372 0
M  V30 25 O 0.343 1.116 6.2519 0
M  V30 26 C 2.4063 -0.0803 5.7889 0
M  V30 27 C 2.5283 -1.5688 5.4857 0
M  V30 28 H 1.813 0.4248 -7.6941 0
M  V30 29 H -1.2561 1.6955 -4.9623 0
M  V30 30 H 1.7502 0.334 -1.907 0
M  V30 31 H 0.7639 -1.1451 -1.8947 0
M  V30 32 H -1.8144 -0.7901 -2.7793 0
M  V30 33 H -2.2244 0.8595 -3.2638 0
M  V30 34 H 0.9048 -0.209 0.3325 0
M  V30 35 H 0.4064 1.3949 -0.2172 0
M  V30 36 H -1.9341 1.727 -1.0292 0
M  V30 37 H -3.0456 0.3519 -1.0102 0
M  V30 38 H -2.6942 0.2603 1.2905 0
M  V30 39 H -1.3895 1.4404 1.4035 0
M  V30 40 H 0.0998 -0.3322 2.3579 0
M  V30 41 H -1.1712 -1.5409 2.1323 0
M  V30 42 H -1.31 0.9319 3.9361 0
M  V30 43 H -2.6572 -0.1688 3.6598 0
M  V30 44 H -1.3289 -2.0748 4.62 0
M  V30 45 H -1.618 -0.7435 5.748 0
M  V30 46 H 0.9524 -2.8938 4.7787 0
M  V30 47 H 1.4982 -1.6835 3.5766 0
M  V30 48 H 2.8556 0.5284 4.9982 0
M  V30 49 H 2.8421 0.1761 6.7574 0
M  V30 50 H 2.4769 -2.1366 6.4233 0
M  V30 51 H 3.4666 -1.8279 4.9875 0
M  V30 END ATOM
M  V30 BEGIN BOND
M  V30 1 1 1 2
M  V30 2 2 2 3
M  V30 3 1 2 4
M  V30 4 1 3 5
M  V30 5 2 4 6
M  V30 6 1 5 7
M  V30 7 2 5 8
M  V30 8 1 6 9
M  V30 9 1 7 10
M  V30 10 1 7 11
M  V30 11 1 9 12
M  V30 12 1 9 13
M  V30 13 1 9 14
M  V30 14 1 10 15
M  V30 15 1 11 16
M  V30 16 1 15 17
M  V30 17 1 17 18
M  V30 18 1 18 19
M  V30 19 1 19 20
M  V30 20 1 20 21
M  V30 21 1 21 22
M  V30 22 1 22 23
M  V30 23 1 22 24
M  V30 24 2 23 25
M  V30 25 1 23 26
M  V30 26 1 24 27
M  V30 27 1 6 8
M  V30 28 1 16 17
M  V30 29 1 26 27
M  V30 30 1 4 28
M  V30 31 1 8 29
M  V30 32 1 10 30
M  V30 33 1 10 31
M  V30 34 1 11 32
M  V30 35 1 11 33
M  V30 36 1 15 34
M  V30 37 1 15 35
M  V30 38 1 16 36
M  V30 39 1 16 37
M  V30 40 1 18 38
M  V30 41 1 18 39
M  V30 42 1 19 40
M  V30 43 1 19 41
M  V30 44 1 20 42
M  V30 45 1 20 43
M  V30 46 1 21 44
M  V30 47 1 21 45
M  V30 48 1 24 46
M  V30 49 1 24 47
M  V30 50 1 26 48
M  V30 51 1 26 49
M  V30 52 1 27 50
M  V30 53 1 27 51
M  V30 END BOND
M  V30 END CTAB
M  END
>  <Column 1>
562

>  <level_0>
637

>  <index>
637

>  <Unnamed: 0>
637

>  <NO.>
647

>  <Name>
7-k08

>  <IUPAC_name>


>  <SMILES>
O=C1CCCN1CCCCN1CCN(c2cc(C(F)(F)F)cc(Cl)n2)CC1

>  <CID>


>  <logBB>
0.16

>  <BBB+/BBB->
BBB+

>  <Inchi>
InChI=1S/C18H24ClF3N4O/c19-15-12-14(18(20-21)22)13-16(23-15)25-10-8-24(9-11-25)5-1-2-6-26-7-3-4-17(26)27/h12-13H-1-11H2

>  <threshold>


>  <reference>
R43|

>  <group>
A

>  <Class>
1

>  <ABC>
21.06

>  <ABCGG>
16.19

>  <nAcid>
0

>  <nBase>
1

>  <nAromAtom>
6

>  <nAromBond>
6

>  <nAtom>
51

>  <nHeavyAtom>
27

>  <nSpiro>
0

>  <nBridgehead>
0

>  <nHetero>
9

>  <nN>
4

>  <nO>
1

>  <nF>
3

>  <BalabanJ>
1.34

>  <BertzCT>
662.5

>  <nBonds>
53

>  <nBondsO>
29

>  <nBondsS>
46

>  <nBondsD>
1

>  <nBondsT>
0

>  <nBondsA>
6

>  <nBondsM>
7

>  <nBondsKS>
49

>  <nBondsKD>
4

>  <RNCG>
0.16

>  <RPCG>
0.19

>  <FCSP3>
0.67

>  <SZ>
35.33

>  <Sm>
33.71

>  <Sv>
31.28

>  <Sse>
52.27

>  <Sp>
33

>  <Si>
59.15

>  <MZ>
0.69

>  <Mm>
0.66

>  <Mv>
0.61

>  <Mse>
1.02

>  <Mp>
0.65

>  <Mi>
1.16

>  <NsCH3>
0

>  <NdCH2>
0

>  <NssCH2>
11

>  <NtCH>
0

>  <NdsCH>
0

>  <NaaCH>
2

>  <NsssCH>
0

>  <NddC>
0

>  <NtsC>
0

>  <NdssC>
1

>  <NaasC>
3

>  <NaaaC>
0

>  <NssssC>
1

>  <NsNH3>
0

>  <NsNH2>
0

>  <NssNH2>
0

>  <NdNH>
0

>  <NssNH>
0

>  <NaaNH>
0

>  <NtN>
0

>  <NsssNH>
0

>  <NdsN>
0

>  <NaaN>
1

>  <NsssN>
3

>  <NddsN>
0

>  <NaasN>
0

>  <NssssN>
0

>  <NsOH>
0

>  <NdO>
1

>  <NssO>
0

>  <NaaO>
0

>  <NsF>
3

>  <NsSiH3>
0

>  <NssSiH2>
0

>  <NsssSiH>
0

>  <NssssSi>
0

>  <NsPH2>
0

>  <NssPH>
0

>  <NsssP>
0

>  <NdsssP>
0

>  <NsssssP>
0

>  <NsSH>
0

>  <NdS>
0

>  <NssS>
0

>  <NaaS>
0

>  <NdssS>
0

>  <NddssS>
0

>  <NsCl>
1

>  <NsBr>
0

>  <NsI>
0

>  <fragCpx>
139.09

>  <fMF>
0.41

>  <nHBAcc>
4

>  <nHBDon>
0

>  <Kier1>
21.7

>  <Kier2>
9.67

>  <Lipinski>
1

>  <GhoseFilter>
1

>  <FilterItLogS>
-4.88

>  <VMcGowan>
278.01

>  <LabuteASA>
161.62

>  <PEOE_VSA1>
9.8

>  <PEOE_VSA2>
9.69

>  <PEOE_VSA3>
4.98

>  <PEOE_VSA4>
13.17

>  <PEOE_VSA5>
0

>  <PEOE_VSA6>
11.6

>  <PEOE_VSA7>
37.94

>  <PEOE_VSA8>
45.69

>  <PEOE_VSA9>
5.56

>  <PEOE_VSA10>
10.97

>  <PEOE_VSA11>
0

>  <PEOE_VSA12>
5.91

>  <PEOE_VSA13>
0

>  <SMR_VSA1>
17.97

>  <SMR_VSA2>
0

>  <SMR_VSA3>
14.78

>  <SMR_VSA4>
0

>  <SMR_VSA5>
31.86

>  <SMR_VSA6>
50.71

>  <SMR_VSA7>
22.85

>  <SMR_VSA8>
0

>  <SMR_VSA9>
0

>  <SlogP_VSA1>
4.9

>  <SlogP_VSA2>
66.5

>  <SlogP_VSA3>
10.97

>  <SlogP_VSA4>
0

>  <SlogP_VSA5>
31.25

>  <SlogP_VSA6>
12.13

>  <SlogP_VSA7>
5.15

>  <SlogP_VSA8>
0

>  <SlogP_VSA9>
0

>  <SlogP_VSA10>
18.99

>  <SlogP_VSA11>
0

>  <EState_VSA1>
11.74

>  <EState_VSA2>
16.88

>  <EState_VSA3>
19.51

>  <EState_VSA4>
64.12

>  <EState_VSA5>
0

>  <EState_VSA6>
0

>  <EState_VSA7>
9.8

>  <EState_VSA8>
9.88

>  <EState_VSA9>
11.6

>  <EState_VSA10>
17.97

>  <VSA_EState1>
38.85

>  <VSA_EState2>
21.72

>  <VSA_EState3>
-0.14

>  <VSA_EState4>
-0.77

>  <VSA_EState5>
0.54

>  <VSA_EState6>
1.92

>  <VSA_EState7>
-0.79

>  <VSA_EState8>
5.43

>  <VSA_EState9>
0

>  <apol>
55.12

>  <bpol>
35.06

>  <nRing>
3

>  <nHRing>
3

>  <naRing>
1

>  <naHRing>
1

>  <nARing 2>
2

>  <nAHRing 2>
2

>  <nFRing>
0

>  <nFHRing>
0

>  <nFaRing>
0

>  <nFaHRing>
0

>  <nFARing 2>
0

>  <nFAHRing 2>
0

>  <nRot>
6

>  <SLogP>
3.28

>  <SMR>
97.95

>  <TopoPSA(NO)>
39.68

>  <TopoPSA>
39.68

>  <JGI1>
0.24

>  <JGI2>
0.08

>  <JGI3>
0.04

>  <JGI4>
0.04

>  <JGI5>
0.03

>  <Diameter>
15

>  <Radius>
8

>  <TMWC10>
131.21

>  <TSRW10>
75.51

>  <MW>
404.16

>  <AMW>
7.92

>  <WPath>
2246

>  <WPol>
38

>  <Zagreb1>
140

>  <Zagreb2>
160

>  <mZagreb2>
5.81

>  <yes>


>  <nAR-cont>
1

>  <nHA-cont>
0.860070871

>  <MWHBN>
0.198968042

>  <MWHBN-cont>
0.999409328

>  <TPSA-cont>
0.72300896

>  <pka_cont>
0.97

>  <yes.1>


>  <BBB_SCORE>
5.290202784

>  <MMFF94 Energy>
37.054

$$$$
Compound 453
Actelion Java MolfileCreator 2.0

  0  0  0  0  0  0              0 V3000
M  V30 BEGIN CTAB
M  V30 COUNTS 51 53 0 0 0
M  V30 BEGIN ATOM
M  V30 1 F 4.6405 -2.3982 4.4802 0
M  V30 2 C 3.833 -3.495 4.5006 0
M  V30 3 F 2.8577 -3.2235 5.4106 0
M  V30 4 F 4.5814 -4.4961 5.0424 0
M  V30 5 C 3.2732 -3.8376 3.1493 0
M  V30 6 C 2.8829 -2.8185 2.2661 0
M  V30 7 C 3.1036 -5.1614 2.7539 0
M  V30 8 C 2.3442 -3.1262 1.0183 0
M  V30 9 C 2.5831 -5.3968 1.4994 0
M  V30 10 N 2.2186 -4.4186 0.643 0
M  V30 11 N 1.9664 -2.1293 0.1257 0
M  V30 12 C 1.2184 -0.9653 0.6228 0
M  V30 13 C 1.5597 -2.5895 -1.2134 0
M  V30 14 C 1.1718 0.1599 -0.4371 0
M  V30 15 C 1.4855 -1.4134 -2.2134 0
M  V30 16 N 0.6361 -0.2953 -1.74 0
M  V30 17 C 0.5982 0.7944 -2.7242 0
M  V30 18 C -0.8245 1.3322 -2.9331 0
M  V30 19 C -1.4323 2.0123 -1.7063 0
M  V30 20 C -2.7837 2.6439 -2.0383 0
M  V30 21 N -3.3624 3.3088 -0.8849 0
M  V30 22 C -4.3769 2.781 -0.1012 0
M  V30 23 C -2.984 4.6373 -0.4771 0
M  V30 24 O -4.9221 1.6987 -0.2347 0
M  V30 25 C -4.7376 3.8194 0.9323 0
M  V30 26 C -3.5187 4.7336 0.9385 0
M  V30 27 H 3.0366 -1.7849 2.5589 0
M  V30 28 H 3.3779 -5.9899 3.3993 0
M  V30 29 H 2.4378 -6.4081 1.1308 0
M  V30 30 H 0.1964 -1.2714 0.8808 0
M  V30 31 H 1.6717 -0.5388 1.523 0
M  V30 32 H 2.2811 -3.3123 -1.6152 0
M  V30 33 H 0.5793 -3.0803 -1.1551 0
M  V30 34 H 2.1869 0.5604 -0.5668 0
M  V30 35 H 0.5567 0.972 -0.0361 0
M  V30 36 H 1.0839 -1.8026 -3.1571 0
M  V30 37 H 2.5033 -1.0521 -2.4142 0
M  V30 38 H 0.9371 0.4356 -3.7054 0
M  V30 39 H 1.2793 1.613 -2.459 0
M  V30 40 H -1.4797 0.5147 -3.2602 0
M  V30 41 H -0.7927 2.0528 -3.7603 0
M  V30 42 H -1.5716 1.2843 -0.8988 0
M  V30 43 H -0.7444 2.7798 -1.3324 0
M  V30 44 H -3.4765 1.8659 -2.3784 0
M  V30 45 H -2.6884 3.3832 -2.8412 0
M  V30 46 H -1.8993 4.7675 -0.516 0
M  V30 47 H -3.4691 5.3548 -1.1467 0
M  V30 48 H -5.6358 4.3499 0.6016 0
M  V30 49 H -4.9082 3.3604 1.9089 0
M  V30 50 H -2.774 4.3422 1.6429 0
M  V30 51 H -3.755 5.7591 1.2354 0
M  V30 END ATOM
M  V30 BEGIN BOND
M  V30 1 1 1 2
M  V30 2 1 2 3
M  V30 3 1 2 4
M  V30 4 1 2 5
M  V30 5 2 5 6
M  V30 6 1 5 7
M  V30 7 1 6 8
M  V30 8 2 7 9
M  V30 9 2 8 10
M  V30 10 1 8 11
M  V30 11 1 11 12
M  V30 12 1 11 13
M  V30 13 1 12 14
M  V30 14 1 13 15
M  V30 15 1 14 16
M  V30 16 1 16 17
M  V30 17 1 17 18
M  V30 18 1 18 19
M  V30 19 1 19 20
M  V30 20 1 20 21
M  V30 21 1 21 22
M  V30 22 1 21 23
M  V30 23 2 22 24
M  V30 24 1 22 25
M  V30 25 1 23 26
M  V30 26 1 9 10
M  V30 27 1 15 16
M  V30 28 1 25 26
M  V30 29 1 6 27
M  V30 30 1 7 28
M  V30 31 1 9 29
M  V30 32 1 12 30
M  V30 33 1 12 31
M  V30 34 1 13 32
M  V30 35 1 13 33
M  V30 36 1 14 34
M  V30 37 1 14 35
M  V30 38 1 15 36
M  V30 39 1 15 37
M  V30 40 1 17 38
M  V30 41 1 17 39
M  V30 42 1 18 40
M  V30 43 1 18 41
M  V30 44 1 19 42
M  V30 45 1 19 43
M  V30 46 1 20 44
M  V30 47 1 20 45
M  V30 48 1 23 46
M  V30 49 1 23 47
M  V30 50 1 25 48
M  V30 51 1 25 49
M  V30 52 1 26 50
M  V30 53 1 26 51
M  V30 END BOND
M  V30 END CTAB
M  END
>  <Column 1>
563

>  <level_0>
638

>  <index>
638

>  <Unnamed: 0>
638

>  <NO.>
648

>  <Name>
org13011

>  <IUPAC_name>
1-[4-[4-[4-(trifluoromethyl)pyridin-2-yl]piperazin-1-yl]butyl]pyrrolidin-2-one

>  <SMILES>
O=C1CCCN1CCCCN1CCN(c2cc(C(F)(F)F)ccn2)CC1

>  <CID>
9907401

>  <logBB>
0.16

>  <BBB+/BBB->
BBB+

>  <Inchi>
InChI=1S/C18H25F3N4O/c19-18(20-21)15-5-6-22-16(14-15)24-12-10-23(11-13-24)7-1-2-8-25-9-3-4-17(25)26/h5-6-14H-1-4-7-13H2

>  <threshold>


>  <reference>
R2|R2|R3|R8|R18|R21|R25|R26|R27|R27|R27|R36|R38|R41|R43|R46|R47|R49|R4|R40|

>  <group>
A

>  <Class>
1

>  <ABC>
20.24

>  <ABCGG>
15.45

>  <nAcid>
0

>  <nBase>
1

>  <nAromAtom>
6

>  <nAromBond>
6

>  <nAtom>
51

>  <nHeavyAtom>
26

>  <nSpiro>
0

>  <nBridgehead>
0

>  <nHetero>
8

>  <nN>
4

>  <nO>
1

>  <nF>
3

>  <BalabanJ>
1.31

>  <BertzCT>
614.7

>  <nBonds>
53

>  <nBondsO>
28

>  <nBondsS>
46

>  <nBondsD>
1

>  <nBondsT>
0

>  <nBondsA>
6

>  <nBondsM>
7

>  <nBondsKS>
49

>  <nBondsKD>
4

>  <RNCG>
0.16

>  <RPCG>
0.19

>  <FCSP3>
0.67

>  <SZ>
32.67

>  <Sm>
30.84

>  <Sv>
30.46

>  <Sse>
51.95

>  <Sp>
32.1

>  <Si>
59.21

>  <MZ>
0.64

>  <Mm>
0.6

>  <Mv>
0.6

>  <Mse>
1.02

>  <Mp>
0.63

>  <Mi>
1.16

>  <NsCH3>
0

>  <NdCH2>
0

>  <NssCH2>
11

>  <NtCH>
0

>  <NdsCH>
0

>  <NaaCH>
3

>  <NsssCH>
0

>  <NddC>
0

>  <NtsC>
0

>  <NdssC>
1

>  <NaasC>
2

>  <NaaaC>
0

>  <NssssC>
1

>  <NsNH3>
0

>  <NsNH2>
0

>  <NssNH2>
0

>  <NdNH>
0

>  <NssNH>
0

>  <NaaNH>
0

>  <NtN>
0

>  <NsssNH>
0

>  <NdsN>
0

>  <NaaN>
1

>  <NsssN>
3

>  <NddsN>
0

>  <NaasN>
0

>  <NssssN>
0

>  <NsOH>
0

>  <NdO>
1

>  <NssO>
0

>  <NaaO>
0

>  <NsF>
3

>  <NsSiH3>
0

>  <NssSiH2>
0

>  <NsssSiH>
0

>  <NssssSi>
0

>  <NsPH2>
0

>  <NssPH>
0

>  <NsssP>
0

>  <NdsssP>
0

>  <NsssssP>
0

>  <NsSH>
0

>  <NdS>
0

>  <NssS>
0

>  <NaaS>
0

>  <NdssS>
0

>  <NddssS>
0

>  <NsCl>
0

>  <NsBr>
0

>  <NsI>
0

>  <fragCpx>
134.08

>  <fMF>
0.41

>  <nHBAcc>
4

>  <nHBDon>
0

>  <Kier1>
20.73

>  <Kier2>
9.47

>  <Lipinski>
1

>  <GhoseFilter>
1

>  <FilterItLogS>
-4.14

>  <VMcGowan>
265.77

>  <LabuteASA>
151.32

>  <PEOE_VSA1>
9.8

>  <PEOE_VSA2>
9.69

>  <PEOE_VSA3>
4.98

>  <PEOE_VSA4>
13.17

>  <PEOE_VSA5>
0

>  <PEOE_VSA6>
0

>  <PEOE_VSA7>
37.94

>  <PEOE_VSA8>
51.89

>  <PEOE_VSA9>
5.56

>  <PEOE_VSA10>
5.82

>  <PEOE_VSA11>
0

>  <PEOE_VSA12>
5.91

>  <PEOE_VSA13>
0

>  <SMR_VSA1>
17.97

>  <SMR_VSA2>
0

>  <SMR_VSA3>
14.78

>  <SMR_VSA4>
0

>  <SMR_VSA5>
31.86

>  <SMR_VSA6>
50.71

>  <SMR_VSA7>
23.89

>  <SMR_VSA8>
0

>  <SMR_VSA9>
0

>  <SlogP_VSA1>
4.9

>  <SlogP_VSA2>
66.5

>  <SlogP_VSA3>
10.97

>  <SlogP_VSA4>
0

>  <SlogP_VSA5>
31.25

>  <SlogP_VSA6>
18.33

>  <SlogP_VSA7>
0

>  <SlogP_VSA8>
0

>  <SlogP_VSA9>
0

>  <SlogP_VSA10>
18.99

>  <SlogP_VSA11>
0

>  <EState_VSA1>
11.74

>  <EState_VSA2>
5.91

>  <EState_VSA3>
25.33

>  <EState_VSA4>
64.12

>  <EState_VSA5>
6.2

>  <EState_VSA6>
0

>  <EState_VSA7>
9.8

>  <EState_VSA8>
9.88

>  <EState_VSA9>
0

>  <EState_VSA10>
17.97

>  <VSA_EState1>
38.48

>  <VSA_EState2>
21.84

>  <VSA_EState3>
0

>  <VSA_EState4>
-0.65

>  <VSA_EState5>
0.67

>  <VSA_EState6>
2.13

>  <VSA_EState7>
0.59

>  <VSA_EState8>
5.69

>  <VSA_EState9>
0

>  <apol>
53.6

>  <bpol>
35.56

>  <nRing>
3

>  <nHRing>
3

>  <naRing>
1

>  <naHRing>
1

>  <nARing 2>
2

>  <nAHRing 2>
2

>  <nFRing>
0

>  <nFHRing>
0

>  <nFaRing>
0

>  <nFaHRing>
0

>  <nFARing 2>
0

>  <nFAHRing 2>
0

>  <nRot>
6

>  <SLogP>
2.63

>  <SMR>
92.94

>  <TopoPSA(NO)>
39.68

>  <TopoPSA>
39.68

>  <JGI1>
0.21

>  <JGI2>
0.09

>  <JGI3>
0.04

>  <JGI4>
0.03

>  <JGI5>
0.03

>  <Diameter>
15

>  <Radius>
8

>  <TMWC10>
128.61

>  <TSRW10>
74.26

>  <MW>
370.2

>  <AMW>
7.26

>  <WPath>
2061

>  <WPol>
36

>  <Zagreb1>
134

>  <Zagreb2>
153

>  <mZagreb2>
5.64

>  <yes>


>  <nAR-cont>
1

>  <nHA-cont>
0.892715677

>  <MWHBN>
0.207893918

>  <MWHBN-cont>
0.999725356

>  <TPSA-cont>
0.72300896

>  <pka_cont>
0.97

>  <yes.1>


>  <BBB_SCORE>
5.323321632

>  <MMFF94 Energy>
52.04

$$$$
Compound 454
Actelion Java MolfileCreator 2.0

  0  0  0  0  0  0              0 V3000
M  V30 BEGIN CTAB
M  V30 COUNTS 21 20 0 0 0
M  V30 BEGIN ATOM
M  V30 1 O -0.2281 0.9128 0.8367 0
M  V30 2 C -0.2706 -0.1436 -0.136 0
M  V30 3 C -0.6417 2.2019 0.4109 0
M  V30 4 C 0.2435 -1.4126 0.5903 0
M  V30 5 C -1.7158 -0.4103 -0.5878 0
M  V30 6 C 0.6102 0.172 -1.3535 0
M  V30 7 C 1.6652 -1.3025 1.1323 0
M  V30 8 H -1.6864 2.2017 0.0914 0
M  V30 9 H 0.0031 2.5846 -0.3838 0
M  V30 10 H -0.5548 2.8799 1.2651 0
M  V30 11 H 0.1889 -2.2796 -0.0796 0
M  V30 12 H -0.4138 -1.6254 1.4438 0
M  V30 13 H -1.7816 -1.3126 -1.2052 0
M  V30 14 H -2.3787 -0.5291 0.2765 0
M  V30 15 H -2.1143 0.4203 -1.1796 0
M  V30 16 H 0.1637 0.9556 -1.9758 0
M  V30 17 H 0.7456 -0.7102 -1.9879 0
M  V30 18 H 1.5943 0.543 -1.0486 0
M  V30 19 H 1.923 -2.2111 1.6865 0
M  V30 20 H 1.7706 -0.4541 1.8151 0
M  V30 21 H 2.3945 -1.192 0.3248 0
M  V30 END ATOM
M  V30 BEGIN BOND
M  V30 1 1 1 2
M  V30 2 1 1 3
M  V30 3 1 2 4
M  V30 4 1 2 5
M  V30 5 1 2 6
M  V30 6 1 4 7
M  V30 7 1 3 8
M  V30 8 1 3 9
M  V30 9 1 3 10
M  V30 10 1 4 11
M  V30 11 1 4 12
M  V30 12 1 5 13
M  V30 13 1 5 14
M  V30 14 1 5 15
M  V30 15 1 6 16
M  V30 16 1 6 17
M  V30 17 1 6 18
M  V30 18 1 7 19
M  V30 19 1 7 20
M  V30 20 1 7 21
M  V30 END BOND
M  V30 END CTAB
M  END
>  <Column 1>
564

>  <level_0>
639

>  <index>
639

>  <Unnamed: 0>
639

>  <NO.>
649

>  <Name>
tert-amylmethylether

>  <IUPAC_name>
2-methoxy-2-methylbutane

>  <SMILES>
CCC(C)(C)OC

>  <CID>
61247

>  <logBB>
0.17

>  <BBB+/BBB->
BBB+

>  <Inchi>
InChI=1S/C6H14O/c1-5-6(2-3)7-4/h5H2-1-4H3

>  <threshold>


>  <reference>
R2|R2|R3|R8|R21|R25|R27|R27|R38|R40|R41|R43|R46|R47|

>  <group>
A

>  <Class>
1

>  <ABC>
4.56

>  <ABCGG>
5.07

>  <nAcid>
0

>  <nBase>
0

>  <nAromAtom>
0

>  <nAromBond>
0

>  <nAtom>
21

>  <nHeavyAtom>
7

>  <nSpiro>
0

>  <nBridgehead>
0

>  <nHetero>
1

>  <nN>
0

>  <nO>
1

>  <nF>
0

>  <BalabanJ>
3.36

>  <BertzCT>
42.14

>  <nBonds>
20

>  <nBondsO>
6

>  <nBondsS>
20

>  <nBondsD>
0

>  <nBondsT>
0

>  <nBondsA>
0

>  <nBondsM>
0

>  <nBondsKS>
20

>  <nBondsKD>
0

>  <RNCG>
0.7

>  <RPCG>
0.11

>  <FCSP3>
1

>  <SZ>
9.67

>  <Sm>
8.51

>  <Sv>
10.51

>  <Sse>
20.55

>  <Sp>
12.07

>  <Si>
24.12

>  <MZ>
0.46

>  <Mm>
0.41

>  <Mv>
0.5

>  <Mse>
0.98

>  <Mp>
0.57

>  <Mi>
1.15

>  <NsCH3>
4

>  <NdCH2>
0

>  <NssCH2>
1

>  <NtCH>
0

>  <NdsCH>
0

>  <NaaCH>
0

>  <NsssCH>
0

>  <NddC>
0

>  <NtsC>
0

>  <NdssC>
0

>  <NaasC>
0

>  <NaaaC>
0

>  <NssssC>
1

>  <NsNH3>
0

>  <NsNH2>
0

>  <NssNH2>
0

>  <NdNH>
0

>  <NssNH>
0

>  <NaaNH>
0

>  <NtN>
0

>  <NsssNH>
0

>  <NdsN>
0

>  <NaaN>
0

>  <NsssN>
0

>  <NddsN>
0

>  <NaasN>
0

>  <NssssN>
0

>  <NsOH>
0

>  <NdO>
0

>  <NssO>
1

>  <NaaO>
0

>  <NsF>
0

>  <NsSiH3>
0

>  <NssSiH2>
0

>  <NsssSiH>
0

>  <NssssSi>
0

>  <NsPH2>
0

>  <NssPH>
0

>  <NsssP>
0

>  <NdsssP>
0

>  <NsssssP>
0

>  <NsSH>
0

>  <NdS>
0

>  <NssS>
0

>  <NaaS>
0

>  <NdssS>
0

>  <NddssS>
0

>  <NsCl>
0

>  <NsBr>
0

>  <NsI>
0

>  <fragCpx>
6.01

>  <fMF>
0

>  <nHBAcc>
1

>  <nHBDon>
0

>  <Kier1>
7

>  <Kier2>
2.34

>  <Lipinski>
1

>  <GhoseFilter>
0

>  <FilterItLogS>
-1.55

>  <VMcGowan>
101.27

>  <LabuteASA>
45.68

>  <PEOE_VSA1>
4.74

>  <PEOE_VSA2>
0

>  <PEOE_VSA3>
0

>  <PEOE_VSA4>
0

>  <PEOE_VSA5>
0

>  <PEOE_VSA6>
6.92

>  <PEOE_VSA7>
20.27

>  <PEOE_VSA8>
7.11

>  <PEOE_VSA9>
5.6

>  <PEOE_VSA10>
0

>  <PEOE_VSA11>
0

>  <PEOE_VSA12>
0

>  <PEOE_VSA13>
0

>  <SMR_VSA1>
4.74

>  <SMR_VSA2>
0

>  <SMR_VSA3>
0

>  <SMR_VSA4>
0

>  <SMR_VSA5>
32.79

>  <SMR_VSA6>
7.11

>  <SMR_VSA7>
0

>  <SMR_VSA8>
0

>  <SMR_VSA9>
0

>  <SlogP_VSA1>
0

>  <SlogP_VSA2>
12.71

>  <SlogP_VSA3>
4.74

>  <SlogP_VSA4>
0

>  <SlogP_VSA5>
27.19

>  <SlogP_VSA6>
0

>  <SlogP_VSA7>
0

>  <SlogP_VSA8>
0

>  <SlogP_VSA9>
0

>  <SlogP_VSA10>
0

>  <SlogP_VSA11>
0

>  <EState_VSA1>
0

>  <EState_VSA2>
5.6

>  <EState_VSA3>
0

>  <EState_VSA4>
6.42

>  <EState_VSA5>
0

>  <EState_VSA6>
7.11

>  <EState_VSA7>
0

>  <EState_VSA8>
20.77

>  <EState_VSA9>
4.74

>  <EState_VSA10>
0

>  <VSA_EState1>
5.09

>  <VSA_EState2>
0

>  <VSA_EState3>
0

>  <VSA_EState4>
0.08

>  <VSA_EState5>
0

>  <VSA_EState6>
0

>  <VSA_EState7>
1.07

>  <VSA_EState8>
6.27

>  <VSA_EState9>
1.74

>  <apol>
20.16

>  <bpol>
15.78

>  <nRing>
0

>  <nHRing>
0

>  <naRing>
0

>  <naHRing>
0

>  <nARing 2>
0

>  <nAHRing 2>
0

>  <nFRing>
0

>  <nFHRing>
0

>  <nFaRing>
0

>  <nFaHRing>
0

>  <nFARing 2>
0

>  <nFAHRing 2>
0

>  <nRot>
2

>  <SLogP>
1.82

>  <SMR>
31.38

>  <TopoPSA(NO)>
9.23

>  <TopoPSA>
9.23

>  <JGI1>
0.5

>  <JGI2>
0.14

>  <JGI3>
0.02

>  <JGI4>
0

>  <JGI5>
0

>  <Diameter>
4

>  <Radius>
2

>  <TMWC10>
70.06

>  <TSRW10>
33.68

>  <MW>
102.1

>  <AMW>
4.86

>  <WPath>
44

>  <WPol>
6

>  <Zagreb1>
28

>  <Zagreb2>
28

>  <mZagreb2>
1.75

>  <yes>


>  <nAR-cont>
0.336376

>  <nHA-cont>
0.357561384

>  <MWHBN>
0.098966253

>  <MWHBN-cont>
0.724928624

>  <TPSA-cont>
0.935568869

>  <pka_cont>
0.97

>  <yes.1>


>  <BBB_SCORE>
4.137468056

>  <MMFF94 Energy>
17.994

$$$$
Compound 455
Actelion Java MolfileCreator 2.0

  0  0  0  0  0  0              0 V3000
M  V30 BEGIN CTAB
M  V30 COUNTS 15 15 0 0 0
M  V30 BEGIN ATOM
M  V30 1 Cl -2.0074 -3.0122 1.0869 0
M  V30 2 C -1.0879 -1.6447 0.594 0
M  V30 3 C -0.0036 -1.8123 -0.2645 0
M  V30 4 C -1.4335 -0.3756 1.0537 0
M  V30 5 C 0.7434 -0.7015 -0.6656 0
M  V30 6 C -0.6871 0.7358 0.6532 0
M  V30 7 C 0.4144 0.5839 -0.2047 0
M  V30 8 C 1.2075 1.7877 -0.6561 0
M  V30 9 F 2.5124 1.499 -0.9189 0
M  V30 10 F 0.7077 2.3369 -1.7966 0
M  V30 11 F 1.2274 2.7902 0.2658 0
M  V30 12 H 0.2639 -2.802 -0.6257 0
M  V30 13 H -2.2817 -0.2444 1.7211 0
M  V30 14 H 1.5872 -0.8426 -1.34 0
M  V30 15 H -0.9676 1.7243 1.0155 0
M  V30 END ATOM
M  V30 BEGIN BOND
M  V30 1 1 1 2
M  V30 2 2 2 3
M  V30 3 1 2 4
M  V30 4 1 3 5
M  V30 5 2 4 6
M  V30 6 2 5 7
M  V30 7 1 7 8
M  V30 8 1 8 9
M  V30 9 1 8 10
M  V30 10 1 8 11
M  V30 11 1 6 7
M  V30 12 1 3 12
M  V30 13 1 4 13
M  V30 14 1 5 14
M  V30 15 1 6 15
M  V30 END BOND
M  V30 END CTAB
M  END
>  <Column 1>
565

>  <level_0>
640

>  <index>
640

>  <Unnamed: 0>
640

>  <NO.>
650

>  <Name>
4-chlorobenzotrifluoride

>  <IUPAC_name>
1-chloro-4-(trifluoromethyl)benzene

>  <SMILES>
FC(F)(F)c1ccc(Cl)cc1

>  <CID>
7394

>  <logBB>
0.17

>  <BBB+/BBB->
BBB+

>  <Inchi>
InChI=1S/C7H4ClF3/c8-6-3-1-5(2-4-6)7(9-10)11/h1-4H

>  <threshold>


>  <reference>
R2|R2|R3|R8|R21|R25|R27|R27|R38|R40|R41|R43|R46|R47|

>  <group>
A

>  <Class>
1

>  <ABC>
8.3

>  <ABCGG>
7.76

>  <nAcid>
0

>  <nBase>
0

>  <nAromAtom>
6

>  <nAromBond>
6

>  <nAtom>
15

>  <nHeavyAtom>
11

>  <nSpiro>
0

>  <nBridgehead>
0

>  <nHetero>
4

>  <nN>
0

>  <nO>
0

>  <nF>
3

>  <BalabanJ>
2.39

>  <BertzCT>
236.86

>  <nBonds>
15

>  <nBondsO>
11

>  <nBondsS>
9

>  <nBondsD>
0

>  <nBondsT>
0

>  <nBondsA>
6

>  <nBondsM>
6

>  <nBondsKS>
12

>  <nBondsKD>
3

>  <RNCG>
0.22

>  <RPCG>
0.54

>  <FCSP3>
0.14

>  <SZ>
15

>  <Sm>
15.03

>  <Sv>
11.11

>  <Sse>
16.41

>  <Sp>
10.9

>  <Si>
17.62

>  <MZ>
1

>  <Mm>
1

>  <Mv>
0.74

>  <Mse>
1.09

>  <Mp>
0.73

>  <Mi>
1.17

>  <NsCH3>
0

>  <NdCH2>
0

>  <NssCH2>
0

>  <NtCH>
0

>  <NdsCH>
0

>  <NaaCH>
4

>  <NsssCH>
0

>  <NddC>
0

>  <NtsC>
0

>  <NdssC>
0

>  <NaasC>
2

>  <NaaaC>
0

>  <NssssC>
1

>  <NsNH3>
0

>  <NsNH2>
0

>  <NssNH2>
0

>  <NdNH>
0

>  <NssNH>
0

>  <NaaNH>
0

>  <NtN>
0

>  <NsssNH>
0

>  <NdsN>
0

>  <NaaN>
0

>  <NsssN>
0

>  <NddsN>
0

>  <NaasN>
0

>  <NssssN>
0

>  <NsOH>
0

>  <NdO>
0

>  <NssO>
0

>  <NaaO>
0

>  <NsF>
3

>  <NsSiH3>
0

>  <NssSiH2>
0

>  <NsssSiH>
0

>  <NssssSi>
0

>  <NsPH2>
0

>  <NssPH>
0

>  <NsssP>
0

>  <NdsssP>
0

>  <NsssssP>
0

>  <NsSH>
0

>  <NdS>
0

>  <NssS>
0

>  <NaaS>
0

>  <NdssS>
0

>  <NddssS>
0

>  <NsCl>
1

>  <NsBr>
0

>  <NsI>
0

>  <fragCpx>
11.04

>  <fMF>
0.4

>  <nHBAcc>
0

>  <nHBDon>
0

>  <Kier1>
9.09

>  <Kier2>
3.16

>  <Lipinski>
1

>  <GhoseFilter>
0

>  <FilterItLogS>
-3.29

>  <VMcGowan>
103.25

>  <LabuteASA>
66.6

>  <PEOE_VSA1>
0

>  <PEOE_VSA2>
0

>  <PEOE_VSA3>
0

>  <PEOE_VSA4>
13.17

>  <PEOE_VSA5>
0

>  <PEOE_VSA6>
11.6

>  <PEOE_VSA7>
24.27

>  <PEOE_VSA8>
5.02

>  <PEOE_VSA9>
5.56

>  <PEOE_VSA10>
0

>  <PEOE_VSA11>
0

>  <PEOE_VSA12>
0

>  <PEOE_VSA13>
0

>  <SMR_VSA1>
13.17

>  <SMR_VSA2>
0

>  <SMR_VSA3>
0

>  <SMR_VSA4>
0

>  <SMR_VSA5>
6.18

>  <SMR_VSA6>
0

>  <SMR_VSA7>
34.85

>  <SMR_VSA8>
0

>  <SMR_VSA9>
0

>  <SlogP_VSA1>
0

>  <SlogP_VSA2>
0

>  <SlogP_VSA3>
6.18

>  <SlogP_VSA4>
0

>  <SlogP_VSA5>
5.56

>  <SlogP_VSA6>
24.27

>  <SlogP_VSA7>
5.02

>  <SlogP_VSA8>
0

>  <SlogP_VSA9>
0

>  <SlogP_VSA10>
13.17

>  <SlogP_VSA11>
0

>  <EState_VSA1>
11.74

>  <EState_VSA2>
0

>  <EState_VSA3>
5.02

>  <EState_VSA4>
12.13

>  <EState_VSA5>
12.13

>  <EState_VSA6>
0

>  <EState_VSA7>
0

>  <EState_VSA8>
0

>  <EState_VSA9>
11.6

>  <EState_VSA10>
13.17

>  <VSA_EState1>
35.63

>  <VSA_EState2>
0

>  <VSA_EState3>
0.3

>  <VSA_EState4>
-0.68

>  <VSA_EState5>
0

>  <VSA_EState6>
4.32

>  <VSA_EState7>
-4.27

>  <VSA_EState8>
0

>  <VSA_EState9>
0

>  <apol>
18.21

>  <bpol>
7.86

>  <nRing>
1

>  <nHRing>
0

>  <naRing>
1

>  <naHRing>
0

>  <nARing 2>
0

>  <nAHRing 2>
0

>  <nFRing>
0

>  <nFHRing>
0

>  <nFaRing>
0

>  <nFaHRing>
0

>  <nFARing 2>
0

>  <nFAHRing 2>
0

>  <nRot>
0

>  <SLogP>
3.36

>  <SMR>
36.45

>  <TopoPSA(NO)>
0

>  <TopoPSA>
0

>  <JGI1>
0.36

>  <JGI2>
0.11

>  <JGI3>
0.06

>  <JGI4>
0.05

>  <JGI5>
0.09

>  <Diameter>
6

>  <Radius>
3

>  <TMWC10>
87.75

>  <TSRW10>
41.33

>  <MW>
180

>  <AMW>
12

>  <WPath>
152

>  <WPol>
13

>  <Zagreb1>
54

>  <Zagreb2>
59

>  <mZagreb2>
2.33

>  <yes>


>  <nAR-cont>
0.336376

>  <nHA-cont>
0.720786536

>  <MWHBN>
0

>  <MWHBN-cont>
0

>  <TPSA-cont>
0

>  <pka_cont>
0.97

>  <yes.1>


>  <BBB_SCORE>
1.542162536

>  <MMFF94 Energy>
42.871

$$$$
Compound 456
Actelion Java MolfileCreator 2.0

  0  0  0  0  0  0              0 V3000
M  V30 BEGIN CTAB
M  V30 COUNTS 45 48 0 0 0
M  V30 BEGIN ATOM
M  V30 1 N -0.5593 0.2396 -0.9589 0
M  V30 2 N -0.8099 -0.8898 -1.7178 0
M  V30 3 C -1.3147 0.5625 0.1123 0
M  V30 4 C -1.834 -1.7083 -1.4114 0
M  V30 5 N -0.9915 1.6904 0.8617 0
M  V30 6 C -2.4186 -0.2356 0.4235 0
M  V30 7 C -2.0151 -2.893 -2.2718 0
M  V30 8 C -2.6584 -1.3914 -0.3411 0
M  V30 9 C -0.2744 2.7715 0.1576 0
M  V30 10 C -0.4792 1.4552 2.2241 0
M  V30 11 C -3.3738 0.09 1.537 0
M  V30 12 C -1.6221 -2.8664 -3.6237 0
M  V30 13 C -2.5732 -4.0917 -1.7884 0
M  V30 14 C 1.2584 2.5712 0.1495 0
M  V30 15 C 1.0442 1.1949 2.2293 0
M  V30 16 C -1.7898 -3.9768 -4.4568 0
M  V30 17 C -2.7417 -5.2047 -2.6195 0
M  V30 18 N 1.7665 2.2318 1.486 0
M  V30 19 C -2.3521 -5.1454 -3.9539 0
M  V30 20 C 3.1297 2.3307 1.6899 0
M  V30 21 N 3.8678 3.0435 0.8208 0
M  V30 22 N 3.6722 1.7268 2.7627 0
M  V30 23 C 5.1923 3.1344 1.0434 0
M  V30 24 C 5.0008 1.8442 2.9471 0
M  V30 25 C 5.8235 2.5458 2.1065 0
M  V30 26 H -3.5147 -2.0163 -0.1071 0
M  V30 27 H -0.6517 2.9065 -0.8637 0
M  V30 28 H -0.495 3.7083 0.6864 0
M  V30 29 H -0.989 0.6275 2.7274 0
M  V30 30 H -0.6854 2.3536 2.8201 0
M  V30 31 H -4.3889 -0.235 1.2824 0
M  V30 32 H -3.07 -0.418 2.4571 0
M  V30 33 H -3.4317 1.1673 1.7215 0
M  V30 34 H -1.1784 -1.9636 -4.0428 0
M  V30 35 H -2.8695 -4.1849 -0.7461 0
M  V30 36 H 1.6982 3.5053 -0.221 0
M  V30 37 H 1.5344 1.7763 -0.553 0
M  V30 38 H 1.2536 0.215 1.7821 0
M  V30 39 H 1.3568 1.1583 3.28 0
M  V30 40 H -1.4773 -3.9242 -5.4964 0
M  V30 41 H -3.1717 -6.1198 -2.2203 0
M  V30 42 H -2.4802 -6.01 -4.5996 0
M  V30 43 H 5.7438 3.717 0.312 0
M  V30 44 H 5.3914 1.3374 3.824 0
M  V30 45 H 6.8875 2.6291 2.2697 0
M  V30 END ATOM
M  V30 BEGIN BOND
M  V30 1 2 1 2
M  V30 2 1 1 3
M  V30 3 1 2 4
M  V30 4 1 3 5
M  V30 5 2 3 6
M  V30 6 1 4 7
M  V30 7 2 4 8
M  V30 8 1 5 9
M  V30 9 1 5 10
M  V30 10 1 6 11
M  V30 11 2 7 12
M  V30 12 1 7 13
M  V30 13 1 9 14
M  V30 14 1 10 15
M  V30 15 1 12 16
M  V30 16 2 13 17
M  V30 17 1 14 18
M  V30 18 2 16 19
M  V30 19 1 18 20
M  V30 20 2 20 21
M  V30 21 1 20 22
M  V30 22 1 21 23
M  V30 23 2 22 24
M  V30 24 2 23 25
M  V30 25 1 6 8
M  V30 26 1 15 18
M  V30 27 1 17 19
M  V30 28 1 24 25
M  V30 29 1 8 26
M  V30 30 1 9 27
M  V30 31 1 9 28
M  V30 32 1 10 29
M  V30 33 1 10 30
M  V30 34 1 11 31
M  V30 35 1 11 32
M  V30 36 1 11 33
M  V30 37 1 12 34
M  V30 38 1 13 35
M  V30 39 1 14 36
M  V30 40 1 14 37
M  V30 41 1 15 38
M  V30 42 1 15 39
M  V30 43 1 16 40
M  V30 44 1 17 41
M  V30 45 1 19 42
M  V30 46 1 23 43
M  V30 47 1 24 44
M  V30 48 1 25 45
M  V30 END BOND
M  V30 END CTAB
M  END
>  <Column 1>
567

>  <level_0>
642

>  <index>
642

>  <Unnamed: 0>
642

>  <NO.>
652

>  <Name>
minozac free base

>  <IUPAC_name>
4-methyl-6-phenyl-3-(4-pyrimidin-2-ylpiperazin-1-yl)pyridazine

>  <SMILES>
Cc1cc(-c2ccccc2)nnc1N1CCN(c2ncccn2)CC1

>  <CID>
11515480

>  <logBB>
0.18

>  <BBB+/BBB->
BBB+

>  <Inchi>
InChI=1S/C19H20N6/c1-15-14-17(16-6-3-2-4-7-16)22-23-18(15)24-10-12-25(13-11-24)19-20-8-5-9-21-19/h2-9-14H-10-13H2-1H3

>  <threshold>


>  <reference>
R18|R26|R27|

>  <group>
A

>  <Class>
1

>  <ABC>
19.75

>  <ABCGG>
14.12

>  <nAcid>
0

>  <nBase>
0

>  <nAromAtom>
18

>  <nAromBond>
18

>  <nAtom>
45

>  <nHeavyAtom>
25

>  <nSpiro>
0

>  <nBridgehead>
0

>  <nHetero>
6

>  <nN>
6

>  <nO>
0

>  <nF>
0

>  <BalabanJ>
1.24

>  <BertzCT>
829.05

>  <nBonds>
48

>  <nBondsO>
28

>  <nBondsS>
30

>  <nBondsD>
0

>  <nBondsT>
0

>  <nBondsA>
18

>  <nBondsM>
18

>  <nBondsKS>
39

>  <nBondsKD>
9

>  <RNCG>
0.2

>  <RPCG>
0.13

>  <FCSP3>
0.26

>  <SZ>
29.33

>  <Sm>
27.68

>  <Sv>
28.97

>  <Sse>
44.86

>  <Sp>
30.94

>  <Si>
50.9

>  <MZ>
0.65

>  <Mm>
0.62

>  <Mv>
0.64

>  <Mse>
1

>  <Mp>
0.69

>  <Mi>
1.13

>  <NsCH3>
1

>  <NdCH2>
0

>  <NssCH2>
4

>  <NtCH>
0

>  <NdsCH>
0

>  <NaaCH>
9

>  <NsssCH>
0

>  <NddC>
0

>  <NtsC>
0

>  <NdssC>
0

>  <NaasC>
5

>  <NaaaC>
0

>  <NssssC>
0

>  <NsNH3>
0

>  <NsNH2>
0

>  <NssNH2>
0

>  <NdNH>
0

>  <NssNH>
0

>  <NaaNH>
0

>  <NtN>
0

>  <NsssNH>
0

>  <NdsN>
0

>  <NaaN>
4

>  <NsssN>
2

>  <NddsN>
0

>  <NaasN>
0

>  <NssssN>
0

>  <NsOH>
0

>  <NdO>
0

>  <NssO>
0

>  <NaaO>
0

>  <NsF>
0

>  <NsSiH3>
0

>  <NssSiH2>
0

>  <NsssSiH>
0

>  <NssssSi>
0

>  <NsPH2>
0

>  <NssPH>
0

>  <NsssP>
0

>  <NdsssP>
0

>  <NsssssP>
0

>  <NsSH>
0

>  <NdS>
0

>  <NssS>
0

>  <NaaS>
0

>  <NdssS>
0

>  <NddssS>
0

>  <NsCl>
0

>  <NsBr>
0

>  <NsI>
0

>  <fragCpx>
184.06

>  <fMF>
0.53

>  <nHBAcc>
6

>  <nHBDon>
0

>  <Kier1>
18.37

>  <Kier2>
8.79

>  <Lipinski>
1

>  <GhoseFilter>
1

>  <FilterItLogS>
-4.72

>  <VMcGowan>
256.31

>  <LabuteASA>
146.73

>  <PEOE_VSA1>
9.8

>  <PEOE_VSA2>
0

>  <PEOE_VSA3>
9.97

>  <PEOE_VSA4>
0

>  <PEOE_VSA5>
10.2

>  <PEOE_VSA6>
30.33

>  <PEOE_VSA7>
24.62

>  <PEOE_VSA8>
44.14

>  <PEOE_VSA9>
5.69

>  <PEOE_VSA10>
0

>  <PEOE_VSA11>
5.82

>  <PEOE_VSA12>
5.95

>  <PEOE_VSA13>
0

>  <SMR_VSA1>
0

>  <SMR_VSA2>
0

>  <SMR_VSA3>
20.17

>  <SMR_VSA4>
0

>  <SMR_VSA5>
6.92

>  <SMR_VSA6>
35.98

>  <SMR_VSA7>
60.42

>  <SMR_VSA8>
0

>  <SMR_VSA9>
11.26

>  <SlogP_VSA1>
9.8

>  <SlogP_VSA2>
46.34

>  <SlogP_VSA3>
0

>  <SlogP_VSA4>
6.92

>  <SlogP_VSA5>
5.56

>  <SlogP_VSA6>
54.86

>  <SlogP_VSA7>
0

>  <SlogP_VSA8>
11.26

>  <SlogP_VSA9>
0

>  <SlogP_VSA10>
11.77

>  <SlogP_VSA11>
0

>  <EState_VSA1>
0

>  <EState_VSA2>
0

>  <EState_VSA3>
0

>  <EState_VSA4>
54.77

>  <EState_VSA5>
0

>  <EState_VSA6>
12.39

>  <EState_VSA7>
24.27

>  <EState_VSA8>
55.09

>  <EState_VSA9>
0

>  <EState_VSA10>
0

>  <VSA_EState1>
0

>  <VSA_EState2>
13.16

>  <VSA_EState3>
8.93

>  <VSA_EState4>
3.16

>  <VSA_EState5>
1.76

>  <VSA_EState6>
14.12

>  <VSA_EState7>
3.57

>  <VSA_EState8>
5.64

>  <VSA_EState9>
0

>  <apol>
51.67

>  <bpol>
26.9

>  <nRing>
4

>  <nHRing>
3

>  <naRing>
3

>  <naHRing>
2

>  <nARing 2>
1

>  <nAHRing 2>
1

>  <nFRing>
0

>  <nFHRing>
0

>  <nFaRing>
0

>  <nFaHRing>
0

>  <nFARing 2>
0

>  <nFAHRing 2>
0

>  <nRot>
3

>  <SLogP>
2.57

>  <SMR>
98.66

>  <TopoPSA(NO)>
58.04

>  <TopoPSA>
58.04

>  <JGI1>
0.13

>  <JGI2>
0.08

>  <JGI3>
0.03

>  <JGI4>
0.02

>  <JGI5>
0.03

>  <Diameter>
15

>  <Radius>
8

>  <TMWC10>
128.06

>  <TSRW10>
59.81

>  <MW>
332.17

>  <AMW>
7.38

>  <WPath>
1674

>  <WPol>
39

>  <Zagreb1>
132

>  <Zagreb2>
155

>  <mZagreb2>
5.53

>  <yes>


>  <nAR-cont>
0.816016

>  <nHA-cont>
0.921834225

>  <MWHBN>
0.329208505

>  <MWHBN-cont>
0.745614157

>  <TPSA-cont>
0.594844759

>  <pka_cont>
0.97

>  <yes.1>


>  <BBB_SCORE>
4.530960978

>  <MMFF94 Energy>
52.064

$$$$
Compound 457
Actelion Java MolfileCreator 2.0

  0  0  0  0  0  0              0 V3000
M  V30 BEGIN CTAB
M  V30 COUNTS 47 50 0 0 0
M  V30 BEGIN ATOM
M  V30 1 S 4.9608 0.8932 -1.6244 0
M  V30 2 O 4.6814 0.1936 -2.8634 0
M  V30 3 O 5.2827 2.3076 -1.6225 0
M  V30 4 C 3.5616 0.6596 -0.5526 0
M  V30 5 C 6.2641 0.0333 -0.7831 0
M  V30 6 C 2.7842 -0.4941 -0.6804 0
M  V30 7 C 3.2284 1.6479 0.3771 0
M  V30 8 C 1.6772 -0.6719 0.1521 0
M  V30 9 C 2.1184 1.4656 1.2049 0
M  V30 10 C 1.3407 0.3038 1.1005 0
M  V30 11 C 0.1779 0.1198 1.9485 0
M  V30 12 C -1.204 -0.0748 1.6234 0
M  V30 13 C 0.2358 0.0263 3.3252 0
M  V30 14 N -1.9308 -0.2805 2.7335 0
M  V30 15 C -1.8524 -0.084 0.3079 0
M  V30 16 N -1.0577 -0.2001 3.7423 0
M  V30 17 C 1.2445 0.0865 4.3168 0
M  V30 18 C -1.4412 0.7744 -0.7174 0
M  V30 19 C -2.9192 -0.9597 0.0594 0
M  V30 20 N -1.4943 -0.3586 5.0133 0
M  V30 21 C 0.8952 -0.0601 5.6005 0
M  V30 22 C -2.0701 0.7373 -1.9666 0
M  V30 23 C -3.5496 -0.9935 -1.1909 0
M  V30 24 C -0.5422 -0.2835 5.8845 0
M  V30 25 C -3.124 -0.1452 -2.2112 0
M  V30 26 O -3.6464 -0.0759 -3.4727 0
M  V30 27 C -4.7455 -0.936 -3.7677 0
M  V30 28 C -5.1665 -0.6816 -5.204 0
M  V30 29 H 5.9951 -1.0203 -0.6895 0
M  V30 30 H 6.4129 0.4851 0.1994 0
M  V30 31 H 7.1743 0.1321 -1.3785 0
M  V30 32 H 3.0209 -1.2493 -1.4272 0
M  V30 33 H 3.8125 2.5628 0.4554 0
M  V30 34 H 1.0724 -1.5714 0.0474 0
M  V30 35 H 1.8527 2.2445 1.9175 0
M  V30 36 H 2.2802 0.2445 4.0349 0
M  V30 37 H -0.6412 1.4928 -0.5621 0
M  V30 38 H -3.2704 -1.6245 0.8474 0
M  V30 39 H 1.5961 -0.0302 6.4232 0
M  V30 40 H -1.7382 1.4095 -2.7545 0
M  V30 41 H -4.369 -1.691 -1.3267 0
M  V30 42 H -0.7924 -0.3969 6.9528 0
M  V30 43 H -5.5897 -0.7169 -3.1036 0
M  V30 44 H -4.4459 -1.9851 -3.6634 0
M  V30 45 H -6.0101 -1.3196 -5.4818 0
M  V30 46 H -5.4548 0.3658 -5.3415 0
M  V30 47 H -4.335 -0.876 -5.8895 0
M  V30 END ATOM
M  V30 BEGIN BOND
M  V30 1 2 1 2
M  V30 2 2 1 3
M  V30 3 1 1 4
M  V30 4 1 1 5
M  V30 5 2 4 6
M  V30 6 1 4 7
M  V30 7 1 6 8
M  V30 8 2 7 9
M  V30 9 2 8 10
M  V30 10 1 10 11
M  V30 11 1 11 12
M  V30 12 2 11 13
M  V30 13 2 12 14
M  V30 14 1 12 15
M  V30 15 1 13 16
M  V30 16 1 13 17
M  V30 17 2 15 18
M  V30 18 1 15 19
M  V30 19 1 16 20
M  V30 20 2 17 21
M  V30 21 1 18 22
M  V30 22 2 19 23
M  V30 23 2 20 24
M  V30 24 2 22 25
M  V30 25 1 25 26
M  V30 26 1 26 27
M  V30 27 1 27 28
M  V30 28 1 9 10
M  V30 29 1 14 16
M  V30 30 1 21 24
M  V30 31 1 23 25
M  V30 32 1 5 29
M  V30 33 1 5 30
M  V30 34 1 5 31
M  V30 35 1 6 32
M  V30 36 1 7 33
M  V30 37 1 8 34
M  V30 38 1 9 35
M  V30 39 1 17 36
M  V30 40 1 18 37
M  V30 41 1 19 38
M  V30 42 1 21 39
M  V30 43 1 22 40
M  V30 44 1 23 41
M  V30 45 1 24 42
M  V30 46 1 27 43
M  V30 47 1 27 44
M  V30 48 1 28 45
M  V30 49 1 28 46
M  V30 50 1 28 47
M  V30 END BOND
M  V30 END CTAB
M  END
>  <Column 1>
568

>  <level_0>
643

>  <index>
643

>  <Unnamed: 0>
643

>  <NO.>
653

>  <Name>
gw406381

>  <IUPAC_name>
2-(4-ethoxyphenyl)-3-(4-methylsulfonylphenyl)pyrazolo[1-5-b]pyridazine

>  <SMILES>
CCOc1ccc(-c2nn3ncccc3c2-c2ccc(S(C)(=O)=O)cc2)cc1

>  <CID>
9832687

>  <logBB>
0.18

>  <BBB+/BBB->
BBB+

>  <Inchi>
InChI=1S/C21H19N3O3S/c1-3-27-17-10-6-16(7-11-17)21-20(19-5-4-14-22-24(19)23-21)15-8-12-18(13-9-15)28(2-25)26/h4-14H-3H2-1-2H3

>  <threshold>


>  <reference>
R18|R26|R27|

>  <group>
A

>  <Class>
1

>  <ABC>
22.13

>  <ABCGG>
16.95

>  <nAcid>
0

>  <nBase>
0

>  <nAromAtom>
21

>  <nAromBond>
22

>  <nAtom>
47

>  <nHeavyAtom>
28

>  <nSpiro>
0

>  <nBridgehead>
0

>  <nHetero>
7

>  <nN>
3

>  <nO>
3

>  <nF>
0

>  <BalabanJ>
1.43

>  <BertzCT>
1228.38

>  <nBonds>
50

>  <nBondsO>
31

>  <nBondsS>
26

>  <nBondsD>
2

>  <nBondsT>
0

>  <nBondsA>
22

>  <nBondsM>
24

>  <nBondsKS>
38

>  <nBondsKD>
12

>  <RNCG>
0.27

>  <RPCG>
0.09

>  <FCSP3>
0.14

>  <SZ>
34.33

>  <Sm>
32.76

>  <Sv>
31.75

>  <Sse>
47.49

>  <Sp>
33.74

>  <Si>
52.37

>  <MZ>
0.73

>  <Mm>
0.7

>  <Mv>
0.68

>  <Mse>
1.01

>  <Mp>
0.72

>  <Mi>
1.11

>  <NsCH3>
2

>  <NdCH2>
0

>  <NssCH2>
1

>  <NtCH>
0

>  <NdsCH>
0

>  <NaaCH>
11

>  <NsssCH>
0

>  <NddC>
0

>  <NtsC>
0

>  <NdssC>
0

>  <NaasC>
6

>  <NaaaC>
1

>  <NssssC>
0

>  <NsNH3>
0

>  <NsNH2>
0

>  <NssNH2>
0

>  <NdNH>
0

>  <NssNH>
0

>  <NaaNH>
0

>  <NtN>
0

>  <NsssNH>
0

>  <NdsN>
0

>  <NaaN>
2

>  <NsssN>
0

>  <NddsN>
0

>  <NaasN>
1

>  <NssssN>
0

>  <NsOH>
0

>  <NdO>
2

>  <NssO>
1

>  <NaaO>
0

>  <NsF>
0

>  <NsSiH3>
0

>  <NssSiH2>
0

>  <NsssSiH>
0

>  <NssssSi>
0

>  <NsPH2>
0

>  <NssPH>
0

>  <NsssP>
0

>  <NdsssP>
0

>  <NsssssP>
0

>  <NsSH>
0

>  <NdS>
0

>  <NssS>
0

>  <NaaS>
0

>  <NdssS>
0

>  <NddssS>
1

>  <NsCl>
0

>  <NsBr>
0

>  <NsI>
0

>  <fragCpx>
205.07

>  <fMF>
0.45

>  <nHBAcc>
6

>  <nHBDon>
0

>  <Kier1>
21.24

>  <Kier2>
9.01

>  <Lipinski>
1

>  <GhoseFilter>
1

>  <FilterItLogS>
-5.85

>  <VMcGowan>
284.21

>  <LabuteASA>
162.87

>  <PEOE_VSA1>
4.74

>  <PEOE_VSA2>
0

>  <PEOE_VSA3>
8.42

>  <PEOE_VSA4>
9.73

>  <PEOE_VSA5>
5.1

>  <PEOE_VSA6>
12.13

>  <PEOE_VSA7>
61.02

>  <PEOE_VSA8>
23.58

>  <PEOE_VSA9>
17.02

>  <PEOE_VSA10>
11.44

>  <PEOE_VSA11>
9.84

>  <PEOE_VSA12>
0

>  <PEOE_VSA13>
0

>  <SMR_VSA1>
13.15

>  <SMR_VSA2>
0

>  <SMR_VSA3>
14.83

>  <SMR_VSA4>
0

>  <SMR_VSA5>
11.82

>  <SMR_VSA6>
12.86

>  <SMR_VSA7>
66.86

>  <SMR_VSA8>
0

>  <SMR_VSA9>
28.13

>  <SlogP_VSA1>
4.74

>  <SlogP_VSA2>
36.11

>  <SlogP_VSA3>
9.84

>  <SlogP_VSA4>
0

>  <SlogP_VSA5>
6.92

>  <SlogP_VSA6>
71.76

>  <SlogP_VSA7>
0

>  <SlogP_VSA8>
27.9

>  <SlogP_VSA9>
0

>  <SlogP_VSA10>
0

>  <SlogP_VSA11>
5.75

>  <EState_VSA1>
9.84

>  <EState_VSA2>
4.9

>  <EState_VSA3>
6.61

>  <EState_VSA4>
33.65

>  <EState_VSA5>
6.26

>  <EState_VSA6>
35.09

>  <EState_VSA7>
43.32

>  <EState_VSA8>
10.2

>  <EState_VSA9>
4.74

>  <EState_VSA10>
8.42

>  <VSA_EState1>
30.67

>  <VSA_EState2>
0.29

>  <VSA_EState3>
8.95

>  <VSA_EState4>
4.32

>  <VSA_EState5>
0.8

>  <VSA_EState6>
18.38

>  <VSA_EState7>
2.88

>  <VSA_EState8>
2.55

>  <VSA_EState9>
-3.25

>  <apol>
56.35

>  <bpol>
29.16

>  <nRing>
4

>  <nHRing>
2

>  <naRing>
4

>  <naHRing>
2

>  <nARing 2>
0

>  <nAHRing 2>
0

>  <nFRing>
1

>  <nFHRing>
1

>  <nFaRing>
1

>  <nFaHRing>
1

>  <nFARing 2>
0

>  <nFAHRing 2>
0

>  <nRot>
5

>  <SLogP>
3.87

>  <SMR>
108.14

>  <TopoPSA(NO)>
73.56

>  <TopoPSA>
81.94

>  <JGI1>
0.19

>  <JGI2>
0.08

>  <JGI3>
0.05

>  <JGI4>
0.04

>  <JGI5>
0.02

>  <Diameter>
14

>  <Radius>
7

>  <TMWC10>
136.51

>  <TSRW10>
78.02

>  <MW>
393.11

>  <AMW>
8.36

>  <WPath>
2048

>  <WPol>
46

>  <Zagreb1>
152

>  <Zagreb2>
181

>  <mZagreb2>
6.06

>  <yes>


>  <nAR-cont>
0.336376

>  <nHA-cont>
0.82432561

>  <MWHBN>
0.302617615

>  <MWHBN-cont>
0.832848114

>  <TPSA-cont>
0.428007918

>  <pka_cont>
0.97

>  <yes.1>


>  <BBB_SCORE>
3.750989617

>  <MMFF94 Energy>
68.415

$$$$
Compound 458
Actelion Java MolfileCreator 2.0

  0  0  0  0  0  0              0 V3000
M  V30 BEGIN CTAB
M  V30 COUNTS 39 42 0 0 0
M  V30 BEGIN ATOM
M  V30 1 O -1.528 -1.0453 -0.804 0
M  V30 2 C -0.8667 -1.1925 0.3914 0
M  V30 3 C -0.6168 -0.258 -1.6283 0 CFG=2
M  V30 4 C -1.2308 -2.1093 1.3679 0
M  V30 5 C 0.2428 -0.3603 0.5146 0
M  V30 6 C 0.3174 0.5503 -0.6754 0 CFG=2
M  V30 7 C -1.4968 0.5496 -2.5953 0
M  V30 8 O -2.3551 -2.8466 1.1326 0
M  V30 9 C -0.4011 -2.2107 2.484 0
M  V30 10 C 1.1141 -0.4886 1.5946 0
M  V30 11 C -0.2442 1.9348 -0.4056 0
M  V30 12 C 1.7626 0.6097 -1.2078 0
M  V30 13 C -1.1535 2.0328 -2.6937 0 CFG=2
M  V30 14 C -2.7681 -3.7398 2.1568 0
M  V30 15 C 0.7645 -1.4272 2.5835 0
M  V30 16 C 2.4476 0.2149 1.6942 0
M  V30 17 C -0.8968 2.6284 -1.3499 0
M  V30 18 C 2.7198 1.4887 -0.3876 0
M  V30 19 O -2.2393 2.726 -3.2965 0
M  V30 20 N 2.5112 1.5261 1.0597 0
M  V30 21 H -0.0341 -0.9866 -2.211 0
M  V30 22 H -2.5566 0.4348 -2.3255 0
M  V30 23 H -1.4299 0.1089 -3.599 0
M  V30 24 H -0.6094 -2.9111 3.2861 0
M  V30 25 H -0.0512 2.3903 0.5633 0
M  V30 26 H 1.7646 0.9824 -2.2407 0
M  V30 27 H 2.1807 -0.4058 -1.2578 0
M  V30 28 H -0.2776 2.1867 -3.333 0
M  V30 29 H -2.0252 -4.5284 2.3146 0
M  V30 30 H -3.6963 -4.2183 1.8296 0
M  V30 31 H -2.9804 -3.2045 3.0883 0
M  V30 32 H 1.411 -1.5698 3.4483 0
M  V30 33 H 3.2397 -0.4435 1.3168 0
M  V30 34 H 2.657 0.3747 2.7597 0
M  V30 35 H -1.2202 3.6465 -1.1535 0
M  V30 36 H 3.7508 1.1813 -0.6027 0
M  V30 37 H 2.6361 2.5204 -0.751 0
M  V30 38 H -3.0093 2.6185 -2.7109 0
M  V30 39 H 3.2695 2.0615 1.4808 0
M  V30 END ATOM
M  V30 BEGIN BOND
M  V30 1 1 1 2
M  V30 2 1 1 3
M  V30 3 2 2 4
M  V30 4 1 2 5
M  V30 5 1 3 6
M  V30 6 1 3 7
M  V30 7 1 4 8
M  V30 8 1 4 9
M  V30 9 2 5 10
M  V30 10 1 6 11
M  V30 11 1 6 12
M  V30 12 1 7 13
M  V30 13 1 8 14
M  V30 14 2 9 15
M  V30 15 1 10 16
M  V30 16 2 11 17
M  V30 17 1 12 18
M  V30 18 1 13 19
M  V30 19 1 16 20
M  V30 20 1 5 6
M  V30 21 1 10 15
M  V30 22 1 13 17
M  V30 23 1 18 20
M  V30 24 1 3 21
M  V30 25 1 7 22
M  V30 26 1 7 23
M  V30 27 1 9 24
M  V30 28 1 11 25
M  V30 29 1 12 26
M  V30 30 1 12 27
M  V30 31 1 13 28
M  V30 32 1 14 29
M  V30 33 1 14 30
M  V30 34 1 14 31
M  V30 35 1 15 32
M  V30 36 1 16 33
M  V30 37 1 16 34
M  V30 38 1 17 35
M  V30 39 1 18 36
M  V30 40 1 18 37
M  V30 41 1 19 38
M  V30 42 1 20 39
M  V30 END BOND
M  V30 BEGIN COLLECTION
M  V30 MDLV30/STEABS ATOMS=(3 3 6 13)
M  V30 END COLLECTION
M  V30 END CTAB
M  END
>  <Column 1>
569

>  <level_0>
644

>  <index>
644

>  <Unnamed: 0>
644

>  <NO.>
654

>  <Name>
norgalanthamine

>  <IUPAC_name>
(1s-12s-14r)-9-methoxy-11-oxa-4-azatetracyclo[8.6.1.01-12.06-17]heptadeca-6(17)-7-9-15-tetraen-14-ol

>  <SMILES>
COc1ccc2c3c1O[C@H]1C[C@@H](O)C=C[C@@]31CCNC2

>  <CID>
9838394

>  <logBB>
0.18

>  <BBB+/BBB->
BBB+

>  <Inchi>
InChI=1S/C16H19NO3/c1-19-12-3-2-10-9-17-7-6-16-5-4-11(18)8-13(16)20-15(12)14(10)16/h2-5-11-13-17-18H-6-9H2-1H3/t11--13--16-/m0/s1

>  <threshold>


>  <reference>
R47|

>  <group>
A

>  <Class>
1

>  <ABC>
16.13

>  <ABCGG>
13.07

>  <nAcid>
0

>  <nBase>
1

>  <nAromAtom>
6

>  <nAromBond>
6

>  <nAtom>
39

>  <nHeavyAtom>
20

>  <nSpiro>
1

>  <nBridgehead>
0

>  <nHetero>
4

>  <nN>
1

>  <nO>
3

>  <nF>
0

>  <BalabanJ>
1.71

>  <BertzCT>
583.33

>  <nBonds>
42

>  <nBondsO>
23

>  <nBondsS>
35

>  <nBondsD>
1

>  <nBondsT>
0

>  <nBondsA>
6

>  <nBondsM>
7

>  <nBondsKS>
38

>  <nBondsKD>
4

>  <RNCG>
0.26

>  <RPCG>
0.11

>  <FCSP3>
0.5

>  <SZ>
24.33

>  <Sm>
22.76

>  <Sv>
24.05

>  <Sse>
39.09

>  <Sp>
25.69

>  <Si>
43.86

>  <MZ>
0.62

>  <Mm>
0.58

>  <Mv>
0.62

>  <Mse>
1

>  <Mp>
0.66

>  <Mi>
1.12

>  <NsCH3>
1

>  <NdCH2>
0

>  <NssCH2>
4

>  <NtCH>
0

>  <NdsCH>
2

>  <NaaCH>
2

>  <NsssCH>
2

>  <NddC>
0

>  <NtsC>
0

>  <NdssC>
0

>  <NaasC>
4

>  <NaaaC>
0

>  <NssssC>
1

>  <NsNH3>
0

>  <NsNH2>
0

>  <NssNH2>
0

>  <NdNH>
0

>  <NssNH>
1

>  <NaaNH>
0

>  <NtN>
0

>  <NsssNH>
0

>  <NdsN>
0

>  <NaaN>
0

>  <NsssN>
0

>  <NddsN>
0

>  <NaasN>
0

>  <NssssN>
0

>  <NsOH>
1

>  <NdO>
0

>  <NssO>
2

>  <NaaO>
0

>  <NsF>
0

>  <NsSiH3>
0

>  <NssSiH2>
0

>  <NsssSiH>
0

>  <NssssSi>
0

>  <NsPH2>
0

>  <NssPH>
0

>  <NsssP>
0

>  <NdsssP>
0

>  <NsssssP>
0

>  <NsSH>
0

>  <NdS>
0

>  <NssS>
0

>  <NaaS>
0

>  <NdssS>
0

>  <NddssS>
0

>  <NsCl>
0

>  <NsBr>
0

>  <NsI>
0

>  <fragCpx>
149.04

>  <fMF>
0.44

>  <nHBAcc>
4

>  <nHBDon>
2

>  <Kier1>
13.65

>  <Kier2>
5.03

>  <Lipinski>
1

>  <GhoseFilter>
1

>  <FilterItLogS>
-2.99

>  <VMcGowan>
203.25

>  <LabuteASA>
117.94

>  <PEOE_VSA1>
19.9

>  <PEOE_VSA2>
0

>  <PEOE_VSA3>
0

>  <PEOE_VSA4>
0

>  <PEOE_VSA5>
0

>  <PEOE_VSA6>
18.22

>  <PEOE_VSA7>
24.6

>  <PEOE_VSA8>
18.53

>  <PEOE_VSA9>
18.63

>  <PEOE_VSA10>
6.1

>  <PEOE_VSA11>
11.5

>  <PEOE_VSA12>
0

>  <PEOE_VSA13>
0

>  <SMR_VSA1>
14.58

>  <SMR_VSA2>
0

>  <SMR_VSA3>
5.32

>  <SMR_VSA4>
0

>  <SMR_VSA5>
37.01

>  <SMR_VSA6>
13.65

>  <SMR_VSA7>
35.41

>  <SMR_VSA8>
0

>  <SMR_VSA9>
11.5

>  <SlogP_VSA1>
14.79

>  <SlogP_VSA2>
30.97

>  <SlogP_VSA3>
11.96

>  <SlogP_VSA4>
0

>  <SlogP_VSA5>
23.97

>  <SlogP_VSA6>
24.28

>  <SlogP_VSA7>
0

>  <SlogP_VSA8>
0

>  <SlogP_VSA9>
0

>  <SlogP_VSA10>
0

>  <SlogP_VSA11>
11.5

>  <EState_VSA1>
6.1

>  <EState_VSA2>
11.52

>  <EState_VSA3>
6.42

>  <EState_VSA4>
31.01

>  <EState_VSA5>
11.13

>  <EState_VSA6>
7.11

>  <EState_VSA7>
12.14

>  <EState_VSA8>
17.46

>  <EState_VSA9>
9.47

>  <EState_VSA10>
5.11

>  <VSA_EState1>
11.68

>  <VSA_EState2>
0

>  <VSA_EState3>
13.39

>  <VSA_EState4>
2.43

>  <VSA_EState5>
1.67

>  <VSA_EState6>
4.11

>  <VSA_EState7>
5.32

>  <VSA_EState8>
1.82

>  <VSA_EState9>
1.68

>  <apol>
42.9

>  <bpol>
23.1

>  <nRing>
4

>  <nHRing>
2

>  <naRing>
1

>  <naHRing>
0

>  <nARing 2>
3

>  <nAHRing 2>
2

>  <nFRing>
1

>  <nFHRing>
1

>  <nFaRing>
0

>  <nFaHRing>
0

>  <nFARing 2>
1

>  <nFAHRing 2>
1

>  <nRot>
1

>  <SLogP>
1.51

>  <SMR>
75.18

>  <TopoPSA(NO)>
50.72

>  <TopoPSA>
50.72

>  <JGI1>
0.2

>  <JGI2>
0.09

>  <JGI3>
0.06

>  <JGI4>
0.04

>  <JGI5>
0.03

>  <Diameter>
8

>  <Radius>
5

>  <TMWC10>
119.95

>  <TSRW10>
69.64

>  <MW>
273.14

>  <AMW>
7

>  <WPath>
669

>  <WPol>
42

>  <Zagreb1>
116

>  <Zagreb2>
146

>  <mZagreb2>
4.33

>  <yes>


>  <nAR-cont>
0.691115

>  <nHA-cont>
0.999629945

>  <MWHBN>
0.363043443

>  <MWHBN-cont>
0.620753502

>  <TPSA-cont>
0.645942905

>  <pka_cont>
0.97

>  <yes.1>


>  <BBB_SCORE>
4.398761007

>  <MMFF94 Energy>
65.78

$$$$
Compound 459
Actelion Java MolfileCreator 2.0

  0  0  0  0  0  0              0 V3000
M  V30 BEGIN CTAB
M  V30 COUNTS 49 52 0 0 0
M  V30 BEGIN ATOM
M  V30 1 S 1.9471 -1.9471 3.003 0
M  V30 2 O 0.6765 -2.3289 3.5719 0
M  V30 3 O 2.5678 -2.642 1.9009 0
M  V30 4 N 1.9296 -0.298 2.6766 0
M  V30 5 C 3.1073 -1.7775 4.2865 0
M  V30 6 C 2.7753 0.461 3.5147 0
M  V30 7 C 1.0798 0.2102 1.6018 0
M  V30 8 C 3.4619 -0.4452 4.4545 0
M  V30 9 C 3.6341 -2.7946 5.061 0
M  V30 10 O 2.9186 1.6677 3.4729 0
M  V30 11 C 1.9189 0.4823 0.3551 0
M  V30 12 C 4.3779 -0.0787 5.4279 0
M  V30 13 C 4.558 -2.4344 6.0444 0
M  V30 14 C 1.1009 1.046 -0.8102 0
M  V30 15 C 4.9271 -1.0878 6.2269 0
M  V30 16 C 0.1407 0.0203 -1.4207 0
M  V30 17 N -0.5403 0.6222 -2.5574 0
M  V30 18 C -1.3492 -0.3111 -3.3429 0 CFG=2
M  V30 19 O -1.9307 0.3776 -4.4619 0
M  V30 20 C -2.4228 -1.0998 -2.5835 0
M  V30 21 C -3.1104 1.0321 -4.2242 0
M  V30 22 C -3.4876 -0.1625 -2.0366 0
M  V30 23 C -3.9039 0.8192 -3.0917 0
M  V30 24 C -3.514 1.9371 -5.2061 0
M  V30 25 C -5.0882 1.5532 -2.9389 0
M  V30 26 C -4.6991 2.6559 -5.0528 0
M  V30 27 C -5.484 2.4666 -3.9172 0
M  V30 28 H 0.2839 -0.5102 1.3878 0
M  V30 29 H 0.5846 1.1278 1.9399 0
M  V30 30 H 3.3428 -3.8297 4.912 0
M  V30 31 H 2.4323 -0.433 0.0372 0
M  V30 32 H 2.7066 1.2049 0.6029 0
M  V30 33 H 4.6615 0.9609 5.5662 0
M  V30 34 H 4.9996 -3.2015 6.6785 0
M  V30 35 H 0.5467 1.932 -0.4748 0
M  V30 36 H 1.8016 1.3858 -1.584 0
M  V30 37 H 5.6496 -0.8303 6.9998 0
M  V30 38 H -0.587 -0.296 -0.6679 0
M  V30 39 H 0.71 -0.86 -1.7406 0
M  V30 40 H -1.1251 1.4044 -2.2712 0
M  V30 41 H -0.6622 -1.041 -3.7879 0
M  V30 42 H -2.9005 -1.7973 -3.2857 0
M  V30 43 H -1.9975 -1.7093 -1.7795 0
M  V30 44 H -4.3499 -0.7522 -1.7044 0
M  V30 45 H -3.1046 0.3879 -1.1693 0
M  V30 46 H -2.897 2.0871 -6.0879 0
M  V30 47 H -5.7124 1.4117 -2.0595 0
M  V30 48 H -5.0068 3.3639 -5.8175 0
M  V30 49 H -6.4065 3.0286 -3.7949 0
M  V30 END ATOM
M  V30 BEGIN BOND
M  V30 1 2 1 2
M  V30 2 2 1 3
M  V30 3 1 1 4
M  V30 4 1 1 5
M  V30 5 1 4 6
M  V30 6 1 4 7
M  V30 7 2 5 8
M  V30 8 1 5 9
M  V30 9 2 6 10
M  V30 10 1 7 11
M  V30 11 1 8 12
M  V30 12 2 9 13
M  V30 13 1 11 14
M  V30 14 2 12 15
M  V30 15 1 14 16
M  V30 16 1 16 17
M  V30 17 1 17 18
M  V30 18 1 18 19
M  V30 19 1 18 20
M  V30 20 1 19 21
M  V30 21 1 20 22
M  V30 22 2 21 23
M  V30 23 1 21 24
M  V30 24 1 23 25
M  V30 25 2 24 26
M  V30 26 2 25 27
M  V30 27 1 6 8
M  V30 28 1 13 15
M  V30 29 1 22 23
M  V30 30 1 26 27
M  V30 31 1 7 28
M  V30 32 1 7 29
M  V30 33 1 9 30
M  V30 34 1 11 31
M  V30 35 1 11 32
M  V30 36 1 12 33
M  V30 37 1 13 34
M  V30 38 1 14 35
M  V30 39 1 14 36
M  V30 40 1 15 37
M  V30 41 1 16 38
M  V30 42 1 16 39
M  V30 43 1 17 40
M  V30 44 1 18 41
M  V30 45 1 20 42
M  V30 46 1 20 43
M  V30 47 1 22 44
M  V30 48 1 22 45
M  V30 49 1 24 46
M  V30 50 1 25 47
M  V30 51 1 26 48
M  V30 52 1 27 49
M  V30 END BOND
M  V30 BEGIN COLLECTION
M  V30 MDLV30/STEABS ATOMS=(1 18)
M  V30 END COLLECTION
M  V30 END CTAB
M  END
>  <Column 1>
570

>  <level_0>
645

>  <index>
645

>  <Unnamed: 0>
645

>  <NO.>
655

>  <Name>
repinotan

>  <IUPAC_name>


>  <SMILES>
O=C1c2ccccc2S(=O)(=O)N1CCCCN[C@H]1CCc2ccccc2O1

>  <CID>


>  <logBB>
0.18

>  <BBB+/BBB->
BBB+

>  <Inchi>
InChI=1S/C20H22N2O4S/c23-20-16-8-2-4-10-18(16)27(24-25)22(20)14-6-5-13-21-19-12-11-15-7-1-3-9-17(15)26-19/h1-4-7-10-19-21H-5-6-11-14H2/t19-/m1/s1

>  <threshold>


>  <reference>
R18|R26|R27|

>  <group>
A

>  <Class>
1

>  <ABC>
21.36

>  <ABCGG>
15.95

>  <nAcid>
0

>  <nBase>
1

>  <nAromAtom>
12

>  <nAromBond>
12

>  <nAtom>
49

>  <nHeavyAtom>
27

>  <nSpiro>
0

>  <nBridgehead>
0

>  <nHetero>
7

>  <nN>
2

>  <nO>
4

>  <nF>
0

>  <BalabanJ>
1.17

>  <BertzCT>
957.96

>  <nBonds>
52

>  <nBondsO>
30

>  <nBondsS>
37

>  <nBondsD>
3

>  <nBondsT>
0

>  <nBondsA>
12

>  <nBondsM>
15

>  <nBondsKS>
43

>  <nBondsKD>
9

>  <RNCG>
0.22

>  <RPCG>
0.12

>  <FCSP3>
0.35

>  <SZ>
34

>  <Sm>
32.18

>  <Sv>
31.52

>  <Sse>
49.49

>  <Sp>
33.76

>  <Si>
54.91

>  <MZ>
0.69

>  <Mm>
0.66

>  <Mv>
0.64

>  <Mse>
1.01

>  <Mp>
0.69

>  <Mi>
1.12

>  <NsCH3>
0

>  <NdCH2>
0

>  <NssCH2>
6

>  <NtCH>
0

>  <NdsCH>
0

>  <NaaCH>
8

>  <NsssCH>
1

>  <NddC>
0

>  <NtsC>
0

>  <NdssC>
1

>  <NaasC>
4

>  <NaaaC>
0

>  <NssssC>
0

>  <NsNH3>
0

>  <NsNH2>
0

>  <NssNH2>
0

>  <NdNH>
0

>  <NssNH>
1

>  <NaaNH>
0

>  <NtN>
0

>  <NsssNH>
0

>  <NdsN>
0

>  <NaaN>
0

>  <NsssN>
1

>  <NddsN>
0

>  <NaasN>
0

>  <NssssN>
0

>  <NsOH>
0

>  <NdO>
3

>  <NssO>
1

>  <NaaO>
0

>  <NsF>
0

>  <NsSiH3>
0

>  <NssSiH2>
0

>  <NsssSiH>
0

>  <NssssSi>
0

>  <NsPH2>
0

>  <NssPH>
0

>  <NsssP>
0

>  <NdsssP>
0

>  <NsssssP>
0

>  <NsSH>
0

>  <NdS>
0

>  <NssS>
0

>  <NaaS>
0

>  <NdssS>
0

>  <NddssS>
1

>  <NsCl>
0

>  <NsBr>
0

>  <NsI>
0

>  <fragCpx>
198.07

>  <fMF>
0.49

>  <nHBAcc>
5

>  <nHBDon>
1

>  <Kier1>
20.28

>  <Kier2>
8.79

>  <Lipinski>
1

>  <GhoseFilter>
1

>  <FilterItLogS>
-5.07

>  <VMcGowan>
278.91

>  <LabuteASA>
158.74

>  <PEOE_VSA1>
4.74

>  <PEOE_VSA2>
10.11

>  <PEOE_VSA3>
12.72

>  <PEOE_VSA4>
0

>  <PEOE_VSA5>
0

>  <PEOE_VSA6>
30.33

>  <PEOE_VSA7>
49.57

>  <PEOE_VSA8>
12.97

>  <PEOE_VSA9>
5.56

>  <PEOE_VSA10>
10.65

>  <PEOE_VSA11>
6.23

>  <PEOE_VSA12>
0

>  <PEOE_VSA13>
15.93

>  <SMR_VSA1>
17.95

>  <SMR_VSA2>
0

>  <SMR_VSA3>
9.62

>  <SMR_VSA4>
0

>  <SMR_VSA5>
36.81

>  <SMR_VSA6>
13.09

>  <SMR_VSA7>
59.66

>  <SMR_VSA8>
0

>  <SMR_VSA9>
5.75

>  <SlogP_VSA1>
10.05

>  <SlogP_VSA2>
37.95

>  <SlogP_VSA3>
16.44

>  <SlogP_VSA4>
0

>  <SlogP_VSA5>
35.18

>  <SlogP_VSA6>
53.43

>  <SlogP_VSA7>
0

>  <SlogP_VSA8>
0

>  <SlogP_VSA9>
0

>  <SlogP_VSA10>
0

>  <SlogP_VSA11>
5.75

>  <EState_VSA1>
15.93

>  <EState_VSA2>
23.23

>  <EState_VSA3>
12.97

>  <EState_VSA4>
29.32

>  <EState_VSA5>
11.63

>  <EState_VSA6>
18.2

>  <EState_VSA7>
18.2

>  <EState_VSA8>
11.38

>  <EState_VSA9>
4.74

>  <EState_VSA10>
13.21

>  <VSA_EState1>
31.91

>  <VSA_EState2>
12.46

>  <VSA_EState3>
3.36

>  <VSA_EState4>
1.5

>  <VSA_EState5>
0.5

>  <VSA_EState6>
14.41

>  <VSA_EState7>
3.23

>  <VSA_EState8>
0.91

>  <VSA_EState9>
-3.7

>  <apol>
56.38

>  <bpol>
33.61

>  <nRing>
4

>  <nHRing>
2

>  <naRing>
2

>  <naHRing>
0

>  <nARing 2>
2

>  <nAHRing 2>
2

>  <nFRing>
2

>  <nFHRing>
2

>  <nFaRing>
0

>  <nFaHRing>
0

>  <nFARing 2>
2

>  <nFAHRing 2>
2

>  <nRot>
6

>  <SLogP>
2.55

>  <SMR>
101.08

>  <TopoPSA(NO)>
75.71

>  <TopoPSA>
84.09

>  <JGI1>
0.17

>  <JGI2>
0.09

>  <JGI3>
0.07

>  <JGI4>
0.04

>  <JGI5>
0.02

>  <Diameter>
15

>  <Radius>
8

>  <TMWC10>
134.12

>  <TSRW10>
77.38

>  <MW>
386.13

>  <AMW>
7.88

>  <WPath>
2164

>  <WPol>
45

>  <Zagreb1>
146

>  <Zagreb2>
175

>  <mZagreb2>
5.86

>  <yes>


>  <nAR-cont>
1

>  <nHA-cont>
0.860070871

>  <MWHBN>
0.305340546

>  <MWHBN-cont>
0.824494665

>  <TPSA-cont>
0.412999583

>  <pka_cont>
0.97

>  <yes.1>


>  <BBB_SCORE>
4.407812036

>  <MMFF94 Energy>
-69.389

$$$$
Compound 460
Actelion Java MolfileCreator 2.0

  0  0  0  0  0  0              0 V3000
M  V30 BEGIN CTAB
M  V30 COUNTS 31 31 0 0 0
M  V30 BEGIN ATOM
M  V30 1 O -3.1314 -2.8962 2.6612 0
M  V30 2 C -2.4298 -2.1076 2.0377 0
M  V30 3 N -2.0584 -0.9112 2.5633 0
M  V30 4 N -2.0378 -2.3545 0.7606 0
M  V30 5 C -1.3419 0.0576 1.9181 0
M  V30 6 C -1.3146 -1.5093 -0.0356 0
M  V30 7 O -1.3022 1.1941 2.3851 0
M  V30 8 C -0.5625 -0.3832 0.6766 0
M  V30 9 O -1.2512 -1.7286 -1.2424 0
M  V30 10 C -0.3938 0.838 -0.2708 0
M  V30 11 C 0.7851 -0.9901 1.1595 0
M  V30 12 C 0.6339 0.6963 -1.4051 0
M  V30 13 C 1.7054 -0.0276 1.9043 0
M  V30 14 C 0.6467 1.9456 -2.2905 0
M  V30 15 C 1.6649 1.8229 -3.4131 0
M  V30 16 H -2.4655 -0.6643 3.4548 0
M  V30 17 H -2.4285 -3.176 0.3203 0
M  V30 18 H -0.1143 1.7254 0.3122 0
M  V30 19 H -1.3729 1.074 -0.7111 0
M  V30 20 H 1.3309 -1.4072 0.3035 0
M  V30 21 H 0.5954 -1.8448 1.8231 0
M  V30 22 H 0.4122 -0.1754 -2.027 0
M  V30 23 H 1.6373 0.5481 -0.993 0
M  V30 24 H 2.6427 -0.5342 2.1574 0
M  V30 25 H 1.2547 0.3121 2.8415 0
M  V30 26 H 1.9561 0.8509 1.3047 0
M  V30 27 H -0.3475 2.1052 -2.7236 0
M  V30 28 H 0.8838 2.8287 -1.6858 0
M  V30 29 H 1.6567 2.7254 -4.0323 0
M  V30 30 H 2.6758 1.6942 -3.0134 0
M  V30 31 H 1.4378 0.9671 -4.0568 0
M  V30 END ATOM
M  V30 BEGIN BOND
M  V30 1 2 1 2
M  V30 2 1 2 3
M  V30 3 1 2 4
M  V30 4 1 3 5
M  V30 5 1 4 6
M  V30 6 2 5 7
M  V30 7 1 5 8
M  V30 8 2 6 9
M  V30 9 1 8 10
M  V30 10 1 8 11
M  V30 11 1 10 12
M  V30 12 1 11 13
M  V30 13 1 12 14
M  V30 14 1 14 15
M  V30 15 1 6 8
M  V30 16 1 3 16
M  V30 17 1 4 17
M  V30 18 1 10 18
M  V30 19 1 10 19
M  V30 20 1 11 20
M  V30 21 1 11 21
M  V30 22 1 12 22
M  V30 23 1 12 23
M  V30 24 1 13 24
M  V30 25 1 13 25
M  V30 26 1 13 26
M  V30 27 1 14 27
M  V30 28 1 14 28
M  V30 29 1 15 29
M  V30 30 1 15 30
M  V30 31 1 15 31
M  V30 END BOND
M  V30 END CTAB
M  END
>  <Column 1>
571

>  <level_0>
646

>  <index>
646

>  <Unnamed: 0>
646

>  <NO.>
656

>  <Name>
5-butyl-5-ethyl barbituric acid (butethal)

>  <IUPAC_name>
5-butyl-5-ethyl-1-3-diazinane-2-4-6-trione

>  <SMILES>
CCCCC1(CC)C(=O)NC(=O)NC1=O

>  <CID>
6473

>  <logBB>
0.19

>  <BBB+/BBB->
BBB+

>  <Inchi>
InChI=1S/C10H16N2O3/c1-3-5-6-10(4-2)7(13)11-9(15)12-8(10)14/h3-6H2-1-2H3-(H2-11-12-13-14-15)

>  <threshold>


>  <reference>
R3|R38|R25|R41|R40|R2|R2|R8|R21|R27|R27|R43|R46|R47|

>  <group>
A

>  <Class>
1

>  <ABC>
10.81

>  <ABCGG>
10.5

>  <nAcid>
0

>  <nBase>
0

>  <nAromAtom>
0

>  <nAromBond>
0

>  <nAtom>
31

>  <nHeavyAtom>
15

>  <nSpiro>
0

>  <nBridgehead>
0

>  <nHetero>
5

>  <nN>
2

>  <nO>
3

>  <nF>
0

>  <BalabanJ>
2.74

>  <BertzCT>
279.04

>  <nBonds>
31

>  <nBondsO>
15

>  <nBondsS>
28

>  <nBondsD>
3

>  <nBondsT>
0

>  <nBondsA>
0

>  <nBondsM>
3

>  <nBondsKS>
28

>  <nBondsKD>
3

>  <RNCG>
0.17

>  <RPCG>
0.2

>  <FCSP3>
0.7

>  <SZ>
19

>  <Sm>
17.67

>  <Sv>
17.99

>  <Sse>
31.42

>  <Sp>
19.15

>  <Si>
35.53

>  <MZ>
0.61

>  <Mm>
0.57

>  <Mv>
0.58

>  <Mse>
1.01

>  <Mp>
0.62

>  <Mi>
1.15

>  <NsCH3>
2

>  <NdCH2>
0

>  <NssCH2>
4

>  <NtCH>
0

>  <NdsCH>
0

>  <NaaCH>
0

>  <NsssCH>
0

>  <NddC>
0

>  <NtsC>
0

>  <NdssC>
3

>  <NaasC>
0

>  <NaaaC>
0

>  <NssssC>
1

>  <NsNH3>
0

>  <NsNH2>
0

>  <NssNH2>
0

>  <NdNH>
0

>  <NssNH>
2

>  <NaaNH>
0

>  <NtN>
0

>  <NsssNH>
0

>  <NdsN>
0

>  <NaaN>
0

>  <NsssN>
0

>  <NddsN>
0

>  <NaasN>
0

>  <NssssN>
0

>  <NsOH>
0

>  <NdO>
3

>  <NssO>
0

>  <NaaO>
0

>  <NsF>
0

>  <NsSiH3>
0

>  <NssSiH2>
0

>  <NsssSiH>
0

>  <NssssSi>
0

>  <NsPH2>
0

>  <NssPH>
0

>  <NsssP>
0

>  <NdsssP>
0

>  <NsssssP>
0

>  <NsSH>
0

>  <NdS>
0

>  <NssS>
0

>  <NaaS>
0

>  <NdssS>
0

>  <NddssS>
0

>  <NsCl>
0

>  <NsBr>
0

>  <NsI>
0

>  <fragCpx>
15.05

>  <fMF>
0.19

>  <nHBAcc>
3

>  <nHBDon>
2

>  <Kier1>
13.07

>  <Kier2>
5.37

>  <Lipinski>
1

>  <GhoseFilter>
1

>  <FilterItLogS>
-3.15

>  <VMcGowan>
165.57

>  <LabuteASA>
88.6

>  <PEOE_VSA1>
0

>  <PEOE_VSA2>
20.22

>  <PEOE_VSA3>
4.79

>  <PEOE_VSA4>
0

>  <PEOE_VSA5>
0

>  <PEOE_VSA6>
26.69

>  <PEOE_VSA7>
12.84

>  <PEOE_VSA8>
0

>  <PEOE_VSA9>
0

>  <PEOE_VSA10>
5.41

>  <PEOE_VSA11>
0

>  <PEOE_VSA12>
11.81

>  <PEOE_VSA13>
0

>  <SMR_VSA1>
14.38

>  <SMR_VSA2>
0

>  <SMR_VSA3>
10.63

>  <SMR_VSA4>
5.41

>  <SMR_VSA5>
39.53

>  <SMR_VSA6>
0

>  <SMR_VSA7>
0

>  <SMR_VSA8>
0

>  <SMR_VSA9>
0

>  <SlogP_VSA1>
10.63

>  <SlogP_VSA2>
17.85

>  <SlogP_VSA3>
9.59

>  <SlogP_VSA4>
5.41

>  <SlogP_VSA5>
39.53

>  <SlogP_VSA6>
0

>  <SlogP_VSA7>
0

>  <SlogP_VSA8>
0

>  <SlogP_VSA9>
0

>  <SlogP_VSA10>
4.79

>  <SlogP_VSA11>
0

>  <EState_VSA1>
23.26

>  <EState_VSA2>
0

>  <EState_VSA3>
12.84

>  <EState_VSA4>
12.84

>  <EState_VSA5>
0

>  <EState_VSA6>
6.92

>  <EState_VSA7>
6.92

>  <EState_VSA8>
10.63

>  <EState_VSA9>
0

>  <EState_VSA10>
14.38

>  <VSA_EState1>
0

>  <VSA_EState2>
34.26

>  <VSA_EState3>
4.3

>  <VSA_EState4>
-1.05

>  <VSA_EState5>
-0.93

>  <VSA_EState6>
-0.72

>  <VSA_EState7>
2.61

>  <VSA_EState8>
3.78

>  <VSA_EState9>
0

>  <apol>
31.97

>  <bpol>
19.8

>  <nRing>
1

>  <nHRing>
1

>  <naRing>
0

>  <naHRing>
0

>  <nARing 2>
1

>  <nAHRing 2>
1

>  <nFRing>
0

>  <nFHRing>
0

>  <nFaRing>
0

>  <nFaHRing>
0

>  <nFARing 2>
0

>  <nFAHRing 2>
0

>  <nRot>
4

>  <SLogP>
0.94

>  <SMR>
53.93

>  <TopoPSA(NO)>
75.27

>  <TopoPSA>
75.27

>  <JGI1>
0.3

>  <JGI2>
0.13

>  <JGI3>
0.07

>  <JGI4>
0.05

>  <JGI5>
0.04

>  <Diameter>
8

>  <Radius>
4

>  <TMWC10>
100.4

>  <TSRW10>
47.2

>  <MW>
212.12

>  <AMW>
6.84

>  <WPath>
346

>  <WPol>
25

>  <Zagreb1>
72

>  <Zagreb2>
85

>  <mZagreb2>
3.58

>  <yes>


>  <nAR-cont>
0.816016

>  <nHA-cont>
0.92539861

>  <MWHBN>
0.343304262

>  <MWHBN-cont>
0.695064417

>  <TPSA-cont>
0.47456866

>  <pka_cont>
0.97

>  <yes.1>


>  <BBB_SCORE>
4.218148557

>  <MMFF94 Energy>
-126.33

$$$$
Compound 461
Actelion Java MolfileCreator 2.0

  0  0  0  0  0  0              0 V3000
M  V30 BEGIN CTAB
M  V30 COUNTS 27 29 0 0 0
M  V30 BEGIN ATOM
M  V30 1 I 0.8363 2.7619 -4.858 0
M  V30 2 C -0.1861 1.4312 -3.5882 0
M  V30 3 C -1.3321 0.7476 -4.0219 0
M  V30 4 C 0.326 1.2504 -2.293 0
M  V30 5 N -1.8825 0.9242 -5.2816 0
M  V30 6 C -1.9638 -0.1044 -3.115 0
M  V30 7 C -0.3015 0.3829 -1.3864 0
M  V30 8 C -1.4559 -0.2872 -1.8227 0
M  V30 9 C 0.1804 0.1445 -0.0078 0
M  V30 10 S 1.5929 0.9094 0.6166 0
M  V30 11 N -0.4226 -0.6635 0.8439 0
M  V30 12 C 1.3851 0.1107 2.1231 0
M  V30 13 C 0.2476 -0.692 2.0535 0
M  V30 14 C 2.1699 0.1865 3.2847 0
M  V30 15 C -0.1217 -1.4483 3.1855 0
M  V30 16 C 1.7774 -0.5732 4.3856 0
M  V30 17 C 0.6503 -1.3834 4.3509 0
M  V30 18 O 2.5502 -0.4893 5.5079 0
M  V30 19 H 1.2187 1.7987 -2.0047 0
M  V30 20 H -1.4011 1.5085 -5.9541 0
M  V30 21 H -2.6671 0.3696 -5.593 0
M  V30 22 H -2.865 -0.6404 -3.4028 0
M  V30 23 H -1.9789 -0.9653 -1.1486 0
M  V30 24 H 3.0536 0.8147 3.3283 0
M  V30 25 H -1.0061 -2.0763 3.1407 0
M  V30 26 H 0.3513 -1.9721 5.2129 0
M  V30 27 H 2.171 -1.0614 6.1956 0
M  V30 END ATOM
M  V30 BEGIN BOND
M  V30 1 1 1 2
M  V30 2 2 2 3
M  V30 3 1 2 4
M  V30 4 1 3 5
M  V30 5 1 3 6
M  V30 6 2 4 7
M  V30 7 2 6 8
M  V30 8 1 7 9
M  V30 9 1 9 10
M  V30 10 2 9 11
M  V30 11 1 10 12
M  V30 12 1 11 13
M  V30 13 1 12 14
M  V30 14 1 13 15
M  V30 15 2 14 16
M  V30 16 2 15 17
M  V30 17 1 16 18
M  V30 18 1 7 8
M  V30 19 2 12 13
M  V30 20 1 16 17
M  V30 21 1 4 19
M  V30 22 1 5 20
M  V30 23 1 5 21
M  V30 24 1 6 22
M  V30 25 1 8 23
M  V30 26 1 14 24
M  V30 27 1 15 25
M  V30 28 1 17 26
M  V30 29 1 18 27
M  V30 END BOND
M  V30 END CTAB
M  END
>  <Column 1>
573

>  <level_0>
649

>  <index>
649

>  <Unnamed: 0>
649

>  <NO.>
659

>  <Name>
2-(3'-iodo-4'-aminophenyl)-6-hydroxybenzothiazole

>  <IUPAC_name>
2-(4-amino-3-iodophenyl)-1-3-benzothiazol-6-ol

>  <SMILES>
Nc1ccc(-c2nc3ccc(O)cc3s2)cc1I

>  <CID>
10451635

>  <logBB>
0.2

>  <BBB+/BBB->
BBB+

>  <Inchi>
InChI=1S/C13H9IN2OS/c14-9-5-7(1-3-10(9)15)13-16-11-4-2-8(17)6-12(11)18-13/h1-6-17H-15H2

>  <threshold>


>  <reference>
R45|R36|R21|R25|R27|R43|R46|R47|R2|R2|R8|R27|

>  <group>
A

>  <Class>
1

>  <ABC>
14.35

>  <ABCGG>
11.72

>  <nAcid>
0

>  <nBase>
0

>  <nAromAtom>
15

>  <nAromBond>
16

>  <nAtom>
27

>  <nHeavyAtom>
18

>  <nSpiro>
0

>  <nBridgehead>
0

>  <nHetero>
5

>  <nN>
2

>  <nO>
1

>  <nF>
0

>  <BalabanJ>
1.58

>  <BertzCT>
738.93

>  <nBonds>
29

>  <nBondsO>
20

>  <nBondsS>
13

>  <nBondsD>
0

>  <nBondsT>
0

>  <nBondsA>
16

>  <nBondsM>
16

>  <nBondsKS>
22

>  <nBondsKD>
7

>  <RNCG>
0.35

>  <RPCG>
0.2

>  <FCSP3>
0

>  <SZ>
29.67

>  <Sm>
30.65

>  <Sv>
20.44

>  <Sse>
27.24

>  <Sp>
23.33

>  <Si>
29.51

>  <MZ>
1.1

>  <Mm>
1.14

>  <Mv>
0.76

>  <Mse>
1.01

>  <Mp>
0.86

>  <Mi>
1.09

>  <NsCH3>
0

>  <NdCH2>
0

>  <NssCH2>
0

>  <NtCH>
0

>  <NdsCH>
0

>  <NaaCH>
6

>  <NsssCH>
0

>  <NddC>
0

>  <NtsC>
0

>  <NdssC>
0

>  <NaasC>
5

>  <NaaaC>
2

>  <NssssC>
0

>  <NsNH3>
0

>  <NsNH2>
1

>  <NssNH2>
0

>  <NdNH>
0

>  <NssNH>
0

>  <NaaNH>
0

>  <NtN>
0

>  <NsssNH>
0

>  <NdsN>
0

>  <NaaN>
1

>  <NsssN>
0

>  <NddsN>
0

>  <NaasN>
0

>  <NssssN>
0

>  <NsOH>
1

>  <NdO>
0

>  <NssO>
0

>  <NaaO>
0

>  <NsF>
0

>  <NsSiH3>
0

>  <NssSiH2>
0

>  <NsssSiH>
0

>  <NssssSi>
0

>  <NsPH2>
0

>  <NssPH>
0

>  <NsssP>
0

>  <NdsssP>
0

>  <NsssssP>
0

>  <NsSH>
0

>  <NdS>
0

>  <NssS>
0

>  <NaaS>
1

>  <NdssS>
0

>  <NddssS>
0

>  <NsCl>
0

>  <NsBr>
0

>  <NsI>
1

>  <fragCpx>
94.05

>  <fMF>
0.56

>  <nHBAcc>
4

>  <nHBDon>
2

>  <Kier1>
13.01

>  <Kier2>
5.17

>  <Lipinski>
1

>  <GhoseFilter>
1

>  <FilterItLogS>
-4.54

>  <VMcGowan>
199.36

>  <LabuteASA>
121.43

>  <PEOE_VSA1>
10.84

>  <PEOE_VSA2>
0

>  <PEOE_VSA3>
4.98

>  <PEOE_VSA4>
0

>  <PEOE_VSA5>
11.34

>  <PEOE_VSA6>
0

>  <PEOE_VSA7>
58.99

>  <PEOE_VSA8>
14.82

>  <PEOE_VSA9>
10.22

>  <PEOE_VSA10>
10.76

>  <PEOE_VSA11>
0

>  <PEOE_VSA12>
0

>  <PEOE_VSA13>
0

>  <SMR_VSA1>
5.11

>  <SMR_VSA2>
0

>  <SMR_VSA3>
4.98

>  <SMR_VSA4>
0

>  <SMR_VSA5>
0

>  <SMR_VSA6>
5.73

>  <SMR_VSA7>
39.97

>  <SMR_VSA8>
0

>  <SMR_VSA9>
16.32

>  <SlogP_VSA1>
5.73

>  <SlogP_VSA2>
10.09

>  <SlogP_VSA3>
0

>  <SlogP_VSA4>
3.57

>  <SlogP_VSA5>
0

>  <SlogP_VSA6>
36.4

>  <SlogP_VSA7>
0

>  <SlogP_VSA8>
20.79

>  <SlogP_VSA9>
0

>  <SlogP_VSA10>
5.69

>  <SlogP_VSA11>
5.75

>  <EState_VSA1>
0

>  <EState_VSA2>
5.75

>  <EState_VSA3>
0

>  <EState_VSA4>
30.05

>  <EState_VSA5>
0

>  <EState_VSA6>
23.47

>  <EState_VSA7>
24.27

>  <EState_VSA8>
27.57

>  <EState_VSA9>
5.73

>  <EState_VSA10>
5.11

>  <VSA_EState1>
2

>  <VSA_EState2>
4.56

>  <VSA_EState3>
10.39

>  <VSA_EState4>
8.53

>  <VSA_EState5>
0.27

>  <VSA_EState6>
11.09

>  <VSA_EState7>
0

>  <VSA_EState8>
0

>  <VSA_EState9>
0

>  <apol>
38.96

>  <bpol>
15.74

>  <nRing>
3

>  <nHRing>
1

>  <naRing>
3

>  <naHRing>
1

>  <nARing 2>
0

>  <nAHRing 2>
0

>  <nFRing>
1

>  <nFHRing>
1

>  <nFaRing>
1

>  <nFaHRing>
1

>  <nFARing 2>
0

>  <nFAHRing 2>
0

>  <nRot>
1

>  <SLogP>
3.86

>  <SMR>
83.85

>  <TopoPSA(NO)>
59.14

>  <TopoPSA>
87.38

>  <JGI1>
0.23

>  <JGI2>
0.08

>  <JGI3>
0.04

>  <JGI4>
0.06

>  <JGI5>
0.03

>  <Diameter>
10

>  <Radius>
5

>  <TMWC10>
110.97

>  <TSRW10>
65.38

>  <MW>
367.95

>  <AMW>
13.63

>  <WPath>
608

>  <WPol>
27

>  <Zagreb1>
98

>  <Zagreb2>
116

>  <mZagreb2>
3.83

>  <yes>


>  <nAR-cont>
0.336376

>  <nHA-cont>
0.991161285

>  <MWHBN>
0.312792871

>  <MWHBN-cont>
0.800910245

>  <TPSA-cont>
0.39003334

>  <pka_cont>
0.97

>  <yes.1>


>  <BBB_SCORE>
3.793969332

>  <MMFF94 Energy>
39.41

$$$$
Compound 462
Actelion Java MolfileCreator 2.0

  0  0  0  0  0  0              0 V3000
M  V30 BEGIN CTAB
M  V30 COUNTS 43 44 0 0 0
M  V30 BEGIN ATOM
M  V30 1 O -2.1177 -4.9469 1.7253 0
M  V30 2 C -1.2318 -4.3175 1.1717 0
M  V30 3 N 0.1309 -4.5132 1.3411 0
M  V30 4 C -1.4119 -3.1727 0.171 0
M  V30 5 C 0.8659 -3.6352 0.5614 0
M  V30 6 C 0.0069 -2.8013 -0.1585 0
M  V30 7 C 2.2373 -3.5641 0.4595 0
M  V30 8 C 0.5097 -1.8393 -1.0277 0
M  V30 9 C 2.7606 -2.6169 -0.4187 0
M  V30 10 C 1.9089 -1.7729 -1.1572 0
M  V30 11 C -0.3825 -0.9287 -1.8351 0
M  V30 12 C -1.1756 0.1181 -1.0213 0
M  V30 13 N -0.6121 1.4864 -1.0057 0
M  V30 14 C 0.7091 1.5764 -0.364 0
M  V30 15 C -1.6075 2.427 -0.4536 0
M  V30 16 C 0.773 1.2386 1.1315 0
M  V30 17 C -1.2005 3.9028 -0.5561 0
M  V30 18 C 2.1992 1.3368 1.6549 0
M  V30 19 C -2.3383 4.8199 -0.1293 0
M  V30 20 H 0.5101 -5.2191 1.9534 0
M  V30 21 H -1.9441 -3.539 -0.7103 0
M  V30 22 H -1.9454 -2.3545 0.6593 0
M  V30 23 H 2.8884 -4.2203 1.0245 0
M  V30 24 H 3.8376 -2.5304 -0.5422 0
M  V30 25 H 2.3577 -1.0551 -1.8425 0
M  V30 26 H -1.098 -1.5715 -2.3664 0
M  V30 27 H 0.1898 -0.4347 -2.6308 0
M  V30 28 H -2.1535 0.1827 -1.5182 0
M  V30 29 H -1.3807 -0.2274 -0.0027 0
M  V30 30 H 1.1139 2.5839 -0.5184 0
M  V30 31 H 1.4129 0.9431 -0.9109 0
M  V30 32 H -1.8458 2.1793 0.5882 0
M  V30 33 H -2.5415 2.3122 -1.0196 0
M  V30 34 H 0.1444 1.9261 1.7076 0
M  V30 35 H 0.4056 0.2249 1.3195 0
M  V30 36 H -0.3368 4.1129 0.0835 0
M  V30 37 H -0.9156 4.1427 -1.5872 0
M  V30 38 H 2.2281 1.0961 2.7222 0
M  V30 39 H 2.8586 0.6374 1.1315 0
M  V30 40 H 2.5963 2.3485 1.524 0
M  V30 41 H -2.0281 5.8671 -0.2019 0
M  V30 42 H -3.2159 4.6814 -0.7686 0
M  V30 43 H -2.6323 4.6233 0.9066 0
M  V30 END ATOM
M  V30 BEGIN BOND
M  V30 1 2 1 2
M  V30 2 1 2 3
M  V30 3 1 2 4
M  V30 4 1 3 5
M  V30 5 1 4 6
M  V30 6 1 5 7
M  V30 7 1 6 8
M  V30 8 2 7 9
M  V30 9 2 8 10
M  V30 10 1 8 11
M  V30 11 1 11 12
M  V30 12 1 12 13
M  V30 13 1 13 14
M  V30 14 1 13 15
M  V30 15 1 14 16
M  V30 16 1 15 17
M  V30 17 1 16 18
M  V30 18 1 17 19
M  V30 19 2 5 6
M  V30 20 1 9 10
M  V30 21 1 3 20
M  V30 22 1 4 21
M  V30 23 1 4 22
M  V30 24 1 7 23
M  V30 25 1 9 24
M  V30 26 1 10 25
M  V30 27 1 11 26
M  V30 28 1 11 27
M  V30 29 1 12 28
M  V30 30 1 12 29
M  V30 31 1 14 30
M  V30 32 1 14 31
M  V30 33 1 15 32
M  V30 34 1 15 33
M  V30 35 1 16 34
M  V30 36 1 16 35
M  V30 37 1 17 36
M  V30 38 1 17 37
M  V30 39 1 18 38
M  V30 40 1 18 39
M  V30 41 1 18 40
M  V30 42 1 19 41
M  V30 43 1 19 42
M  V30 44 1 19 43
M  V30 END BOND
M  V30 END CTAB
M  END
>  <Column 1>
574

>  <level_0>
650

>  <index>
650

>  <Unnamed: 0>
650

>  <NO.>
660

>  <Name>
ropinirole (skf101468)

>  <IUPAC_name>
4-[2-(dipropylamino)ethyl]-1-3-dihydroindol-2-one

>  <SMILES>
CCCN(CCC)CCc1cccc2c1CC(=O)N2

>  <CID>
5095

>  <logBB>
0.2

>  <BBB+/BBB->
BBB+

>  <Inchi>
InChI=1S/C16H24N2O/c1-3-9-18(10-4-2)11-8-13-6-5-7-15-14(13)12-16(19)17-15/h5-7H-3-4-8-12H2-1-2H3-(H-17-19)

>  <threshold>


>  <reference>
R12|R48|R40|R8|R21|R27|R2|R2|R27|R3|R18|R25|R26|R27|R35|R36|R38|R41|R42|R43|R46|R47|R49|R4|

>  <group>
A

>  <Class>
1

>  <ABC>
14.17

>  <ABCGG>
12.45

>  <nAcid>
0

>  <nBase>
1

>  <nAromAtom>
6

>  <nAromBond>
6

>  <nAtom>
43

>  <nHeavyAtom>
19

>  <nSpiro>
0

>  <nBridgehead>
0

>  <nHetero>
3

>  <nN>
2

>  <nO>
1

>  <nF>
0

>  <BalabanJ>
1.8

>  <BertzCT>
436.38

>  <nBonds>
44

>  <nBondsO>
20

>  <nBondsS>
37

>  <nBondsD>
1

>  <nBondsT>
0

>  <nBondsA>
6

>  <nBondsM>
7

>  <nBondsKS>
40

>  <nBondsKD>
4

>  <RNCG>
0.24

>  <RPCG>
0.17

>  <FCSP3>
0.56

>  <SZ>
23.67

>  <Sm>
21.68

>  <Sv>
24.73

>  <Sse>
42.31

>  <Sp>
27.38

>  <Si>
48.77

>  <MZ>
0.55

>  <Mm>
0.5

>  <Mv>
0.58

>  <Mse>
0.98

>  <Mp>
0.64

>  <Mi>
1.13

>  <NsCH3>
2

>  <NdCH2>
0

>  <NssCH2>
7

>  <NtCH>
0

>  <NdsCH>
0

>  <NaaCH>
3

>  <NsssCH>
0

>  <NddC>
0

>  <NtsC>
0

>  <NdssC>
1

>  <NaasC>
3

>  <NaaaC>
0

>  <NssssC>
0

>  <NsNH3>
0

>  <NsNH2>
0

>  <NssNH2>
0

>  <NdNH>
0

>  <NssNH>
1

>  <NaaNH>
0

>  <NtN>
0

>  <NsssNH>
0

>  <NdsN>
0

>  <NaaN>
0

>  <NsssN>
1

>  <NddsN>
0

>  <NaasN>
0

>  <NssssN>
0

>  <NsOH>
0

>  <NdO>
1

>  <NssO>
0

>  <NaaO>
0

>  <NsF>
0

>  <NsSiH3>
0

>  <NssSiH2>
0

>  <NsssSiH>
0

>  <NssssSi>
0

>  <NsPH2>
0

>  <NssPH>
0

>  <NsssP>
0

>  <NdsssP>
0

>  <NsssssP>
0

>  <NsSH>
0

>  <NdS>
0

>  <NssS>
0

>  <NaaS>
0

>  <NdssS>
0

>  <NddssS>
0

>  <NsCl>
0

>  <NsBr>
0

>  <NsI>
0

>  <fragCpx>
58.03

>  <fMF>
0.21

>  <nHBAcc>
2

>  <nHBDon>
1

>  <Kier1>
15.39

>  <Kier2>
7.7

>  <Lipinski>
1

>  <GhoseFilter>
1

>  <FilterItLogS>
-4.98

>  <VMcGowan>
223.21

>  <LabuteASA>
115.55

>  <PEOE_VSA1>
10.22

>  <PEOE_VSA2>
4.79

>  <PEOE_VSA3>
0

>  <PEOE_VSA4>
0

>  <PEOE_VSA5>
0

>  <PEOE_VSA6>
25.98

>  <PEOE_VSA7>
49.55

>  <PEOE_VSA8>
12.23

>  <PEOE_VSA9>
6.42

>  <PEOE_VSA10>
0

>  <PEOE_VSA11>
0

>  <PEOE_VSA12>
5.91

>  <PEOE_VSA13>
0

>  <SMR_VSA1>
4.79

>  <SMR_VSA2>
0

>  <SMR_VSA3>
4.9

>  <SMR_VSA4>
0

>  <SMR_VSA5>
39.53

>  <SMR_VSA6>
24.95

>  <SMR_VSA7>
29.33

>  <SMR_VSA8>
0

>  <SMR_VSA9>
0

>  <SlogP_VSA1>
5.32

>  <SlogP_VSA2>
30.44

>  <SlogP_VSA3>
17.64

>  <SlogP_VSA4>
0

>  <SlogP_VSA5>
37.82

>  <SlogP_VSA6>
18.2

>  <SlogP_VSA7>
0

>  <SlogP_VSA8>
0

>  <SlogP_VSA9>
0

>  <SlogP_VSA10>
5.69

>  <SlogP_VSA11>
0

>  <EState_VSA1>
0

>  <EState_VSA2>
5.91

>  <EState_VSA3>
6.42

>  <EState_VSA4>
18.65

>  <EState_VSA5>
37.06

>  <EState_VSA6>
0

>  <EState_VSA7>
12.13

>  <EState_VSA8>
30.13

>  <EState_VSA9>
0

>  <EState_VSA10>
4.79

>  <VSA_EState1>
0

>  <VSA_EState2>
13.99

>  <VSA_EState3>
2.92

>  <VSA_EState4>
3.55

>  <VSA_EState5>
0.13

>  <VSA_EState6>
6.21

>  <VSA_EState7>
3.99

>  <VSA_EState8>
7.88

>  <VSA_EState9>
0

>  <apol>
45.73

>  <bpol>
27.22

>  <nRing>
2

>  <nHRing>
1

>  <naRing>
1

>  <naHRing>
0

>  <nARing 2>
1

>  <nAHRing 2>
1

>  <nFRing>
1

>  <nFHRing>
1

>  <nFaRing>
0

>  <nFaHRing>
0

>  <nFARing 2>
1

>  <nFAHRing 2>
1

>  <nRot>
7

>  <SLogP>
2.85

>  <SMR>
79.5

>  <TopoPSA(NO)>
32.34

>  <TopoPSA>
32.34

>  <JGI1>
0.18

>  <JGI2>
0.07

>  <JGI3>
0.05

>  <JGI4>
0.03

>  <JGI5>
0.02

>  <Diameter>
10

>  <Radius>
5

>  <TMWC10>
110.42

>  <TSRW10>
65.68

>  <MW>
260.19

>  <AMW>
6.05

>  <WPath>
759

>  <WPol>
25

>  <Zagreb1>
92

>  <Zagreb2>
105

>  <mZagreb2>
4.47

>  <yes>


>  <nAR-cont>
0.816016

>  <nHA-cont>
0.998649058

>  <MWHBN>
0.185984159

>  <MWHBN-cont>
0.992789747

>  <TPSA-cont>
0.774246718

>  <pka_cont>
0.97

>  <yes.1>


>  <BBB_SCORE>
5.337343114

>  <MMFF94 Energy>
29.785

$$$$
Compound 463
Actelion Java MolfileCreator 2.0

  0  0  0  0  0  0              0 V3000
M  V30 BEGIN CTAB
M  V30 COUNTS 12 11 0 0 0
M  V30 BEGIN ATOM
M  V30 1 Cl -1.9691 1.4551 -1.1982 0
M  V30 2 C -0.7266 0.1674 -1.2783 0
M  V30 3 Cl -0.2908 -0.106 -2.9936 0
M  V30 4 C 0.5054 0.4872 -0.414 0
M  V30 5 F 1.11 1.6315 -0.8223 0
M  V30 6 F 1.4367 -0.4976 -0.5308 0
M  V30 7 O 0.2054 0.6537 0.9715 0
M  V30 8 C 0.2213 -0.5644 1.6963 0
M  V30 9 H -1.2065 -0.75 -0.9283 0
M  V30 10 H -0.4566 -1.2982 1.2517 0
M  V30 11 H 1.2366 -0.9689 1.7476 0
M  V30 12 H -0.1141 -0.3591 2.7167 0
M  V30 END ATOM
M  V30 BEGIN BOND
M  V30 1 1 1 2
M  V30 2 1 2 3
M  V30 3 1 2 4
M  V30 4 1 4 5
M  V30 5 1 4 6
M  V30 6 1 4 7
M  V30 7 1 7 8
M  V30 8 1 2 9
M  V30 9 1 8 10
M  V30 10 1 8 11
M  V30 11 1 8 12
M  V30 END BOND
M  V30 END CTAB
M  END
>  <Column 1>
576

>  <level_0>
652

>  <index>
652

>  <Unnamed: 0>
652

>  <NO.>
662

>  <Name>
methoxyflurane

>  <IUPAC_name>
2-2-dichloro-1-1-difluoro-1-methoxyethane

>  <SMILES>
COC(F)(F)C(Cl)Cl

>  <CID>
4116

>  <logBB>
0.2

>  <BBB+/BBB->
BBB+

>  <Inchi>
InChI=1S/C3H4Cl2F2O/c1-8-3(6-7)2(4)5/h2H-1H3

>  <threshold>


>  <reference>
R3|R38|R25|R41|R46|R47|R40|R2|R2|R27|R8|R21|R27|R12|R35|R36|R39|R43|R44|R49|R5|

>  <group>
A

>  <Class>
1

>  <ABC>
5.42

>  <ABCGG>
5.97

>  <nAcid>
0

>  <nBase>
0

>  <nAromAtom>
0

>  <nAromBond>
0

>  <nAtom>
12

>  <nHeavyAtom>
8

>  <nSpiro>
0

>  <nBridgehead>
0

>  <nHetero>
5

>  <nN>
0

>  <nO>
1

>  <nF>
2

>  <BalabanJ>
3.71

>  <BertzCT>
75.68

>  <nBonds>
11

>  <nBondsO>
7

>  <nBondsS>
11

>  <nBondsD>
0

>  <nBondsT>
0

>  <nBondsA>
0

>  <nBondsM>
0

>  <nBondsKS>
11

>  <nBondsKD>
0

>  <RNCG>
0.37

>  <RPCG>
0.45

>  <FCSP3>
1

>  <SZ>
13.67

>  <Sm>
13.73

>  <Sv>
8.27

>  <Sse>
13.55

>  <Sp>
8.36

>  <Si>
14.44

>  <MZ>
1.14

>  <Mm>
1.14

>  <Mv>
0.69

>  <Mse>
1.13

>  <Mp>
0.7

>  <Mi>
1.2

>  <NsCH3>
1

>  <NdCH2>
0

>  <NssCH2>
0

>  <NtCH>
0

>  <NdsCH>
0

>  <NaaCH>
0

>  <NsssCH>
1

>  <NddC>
0

>  <NtsC>
0

>  <NdssC>
0

>  <NaasC>
0

>  <NaaaC>
0

>  <NssssC>
1

>  <NsNH3>
0

>  <NsNH2>
0

>  <NssNH2>
0

>  <NdNH>
0

>  <NssNH>
0

>  <NaaNH>
0

>  <NtN>
0

>  <NsssNH>
0

>  <NdsN>
0

>  <NaaN>
0

>  <NsssN>
0

>  <NddsN>
0

>  <NaasN>
0

>  <NssssN>
0

>  <NsOH>
0

>  <NdO>
0

>  <NssO>
1

>  <NaaO>
0

>  <NsF>
2

>  <NsSiH3>
0

>  <NssSiH2>
0

>  <NsssSiH>
0

>  <NssssSi>
0

>  <NsPH2>
0

>  <NssPH>
0

>  <NsssP>
0

>  <NdsssP>
0

>  <NsssssP>
0

>  <NsSH>
0

>  <NdS>
0

>  <NssS>
0

>  <NaaS>
0

>  <NdssS>
0

>  <NddssS>
0

>  <NsCl>
2

>  <NsBr>
0

>  <NsI>
0

>  <fragCpx>
7.05

>  <fMF>
0

>  <nHBAcc>
1

>  <nHBDon>
0

>  <Kier1>
8

>  <Kier2>
2.52

>  <Lipinski>
1

>  <GhoseFilter>
0

>  <FilterItLogS>
-1.89

>  <VMcGowan>
87

>  <LabuteASA>
55.52

>  <PEOE_VSA1>
4.74

>  <PEOE_VSA2>
0

>  <PEOE_VSA3>
0

>  <PEOE_VSA4>
8.78

>  <PEOE_VSA5>
0

>  <PEOE_VSA6>
23.2

>  <PEOE_VSA7>
0

>  <PEOE_VSA8>
7.11

>  <PEOE_VSA9>
0

>  <PEOE_VSA10>
0

>  <PEOE_VSA11>
4.84

>  <PEOE_VSA12>
0

>  <PEOE_VSA13>
0

>  <SMR_VSA1>
13.52

>  <SMR_VSA2>
0

>  <SMR_VSA3>
0

>  <SMR_VSA4>
0

>  <SMR_VSA5>
10.94

>  <SMR_VSA6>
7.11

>  <SMR_VSA7>
0

>  <SMR_VSA8>
0

>  <SMR_VSA9>
0

>  <SlogP_VSA1>
0

>  <SlogP_VSA2>
18.05

>  <SlogP_VSA3>
4.74

>  <SlogP_VSA4>
0

>  <SlogP_VSA5>
0

>  <SlogP_VSA6>
0

>  <SlogP_VSA7>
0

>  <SlogP_VSA8>
0

>  <SlogP_VSA9>
0

>  <SlogP_VSA10>
8.78

>  <SlogP_VSA11>
0

>  <EState_VSA1>
10.94

>  <EState_VSA2>
0

>  <EState_VSA3>
0

>  <EState_VSA4>
7.11

>  <EState_VSA5>
0

>  <EState_VSA6>
0

>  <EState_VSA7>
0

>  <EState_VSA8>
4.74

>  <EState_VSA9>
23.2

>  <EState_VSA10>
8.78

>  <VSA_EState1>
27.18

>  <VSA_EState2>
-1.8

>  <VSA_EState3>
0

>  <VSA_EState4>
0

>  <VSA_EState5>
0

>  <VSA_EState6>
0

>  <VSA_EState7>
-3.43

>  <VSA_EState8>
0

>  <VSA_EState9>
0.83

>  <apol>
13.95

>  <bpol>
8.99

>  <nRing>
0

>  <nHRing>
0

>  <naRing>
0

>  <naHRing>
0

>  <nARing 2>
0

>  <nAHRing 2>
0

>  <nFRing>
0

>  <nFHRing>
0

>  <nFaRing>
0

>  <nFaHRing>
0

>  <nFARing 2>
0

>  <nFAHRing 2>
0

>  <nRot>
2

>  <SLogP>
2.03

>  <SMR>
27.45

>  <TopoPSA(NO)>
9.23

>  <TopoPSA>
9.23

>  <JGI1>
0.5

>  <JGI2>
0.18

>  <JGI3>
0.03

>  <JGI4>
0

>  <JGI5>
0

>  <Diameter>
4

>  <Radius>
2

>  <TMWC10>
75.26

>  <TSRW10>
36

>  <MW>
163.96

>  <AMW>
13.66

>  <WPath>
62

>  <WPol>
9

>  <Zagreb1>
34

>  <Zagreb2>
36

>  <mZagreb2>
1.88

>  <yes>


>  <nAR-cont>
0.336376

>  <nHA-cont>
0.464727961

>  <MWHBN>
0.078096405

>  <MWHBN-cont>
0.592788565

>  <TPSA-cont>
0.935568869

>  <pka_cont>
0.97

>  <yes.1>


>  <BBB_SCORE>
4.046424546

>  <MMFF94 Energy>
47.498

$$$$
Compound 464
Actelion Java MolfileCreator 2.0

  0  0  0  0  0  0              0 V3000
M  V30 BEGIN CTAB
M  V30 COUNTS 53 56 0 0 0
M  V30 BEGIN ATOM
M  V30 1 S 1.7168 -0.2451 -4.4192 0
M  V30 2 O 2.5041 0.4606 -3.4255 0
M  V30 3 O 2.334 -1.2078 -5.3108 0
M  V30 4 C 0.3988 -1.0761 -3.5643 0
M  V30 5 C 0.8656 0.9586 -5.4053 0
M  V30 6 C 0.0133 -0.6312 -2.2915 0
M  V30 7 C -0.203 -2.1826 -4.1435 0
M  V30 8 C -1.0113 -1.2654 -1.5533 0
M  V30 9 C -1.2131 -2.8291 -3.4415 0
M  V30 10 N -1.4028 -0.8155 -0.2576 0
M  V30 11 C -1.6152 -2.3858 -2.1631 0
M  V30 12 C -2.2584 -1.5215 0.6387 0
M  V30 13 C -0.9261 0.5224 0.1717 0
M  V30 14 S -2.9212 -3.3286 -1.4152 0
M  V30 15 C -2.9852 -2.6579 0.2284 0
M  V30 16 C -2.4204 -1.1376 1.9903 0
M  V30 17 C 0.4306 0.4373 0.8935 0
M  V30 18 C -3.8378 -3.3387 1.1214 0
M  V30 19 C -3.2643 -1.8202 2.8757 0
M  V30 20 C 1.0762 1.8293 1.1075 0 CFG=2
M  V30 21 C -3.9789 -2.9218 2.4394 0
M  V30 22 N 2.4618 1.797 1.6201 0
M  V30 23 C 0.248 2.7408 2.0382 0
M  V30 24 C 2.5668 1.285 2.9904 0
M  V30 25 C 3.3984 1.1184 0.7266 0
M  V30 26 C 0.2956 2.284 3.4942 0
M  V30 27 C 1.7399 2.1334 3.9575 0
M  V30 28 H 0.3106 1.6304 -4.7475 0
M  V30 29 H 0.192 0.4447 -6.0937 0
M  V30 30 H 1.6114 1.5236 -5.9686 0
M  V30 31 H 0.5582 0.2136 -1.8822 0
M  V30 32 H 0.1068 -2.5547 -5.117 0
M  V30 33 H -1.6869 -3.7003 -3.8921 0
M  V30 34 H -1.6754 1.0175 0.7996 0
M  V30 35 H -0.8621 1.2022 -0.6878 0
M  V30 36 H -1.8814 -0.2969 2.4132 0
M  V30 37 H 1.1034 -0.1899 0.3002 0
M  V30 38 H 0.3138 -0.0897 1.8457 0
M  V30 39 H -4.3982 -4.2101 0.7877 0
M  V30 40 H -3.3536 -1.4856 3.9063 0
M  V30 41 H 1.104 2.3316 0.1307 0
M  V30 42 H -4.6363 -3.4585 3.1176 0
M  V30 43 H -0.7924 2.8112 1.7063 0
M  V30 44 H 0.6481 3.7627 1.9792 0
M  V30 45 H 2.2542 0.2354 3.0496 0
M  V30 46 H 3.6116 1.3231 3.3231 0
M  V30 47 H 3.2578 0.0327 0.71 0
M  V30 48 H 4.4291 1.3163 1.0421 0
M  V30 49 H 3.308 1.4986 -0.2968 0
M  V30 50 H -0.2323 1.3308 3.609 0
M  V30 51 H -0.2232 3.011 4.1293 0
M  V30 52 H 1.7636 1.6859 4.9576 0
M  V30 53 H 2.1946 3.1288 4.0449 0
M  V30 END ATOM
M  V30 BEGIN BOND
M  V30 1 2 1 2
M  V30 2 2 1 3
M  V30 3 1 1 4
M  V30 4 1 1 5
M  V30 5 2 4 6
M  V30 6 1 4 7
M  V30 7 1 6 8
M  V30 8 2 7 9
M  V30 9 1 8 10
M  V30 10 2 8 11
M  V30 11 1 10 12
M  V30 12 1 10 13
M  V30 13 1 11 14
M  V30 14 2 12 15
M  V30 15 1 12 16
M  V30 16 1 13 17
M  V30 17 1 15 18
M  V30 18 2 16 19
M  V30 19 1 17 20
M  V30 20 2 18 21
M  V30 21 1 20 22
M  V30 22 1 20 23
M  V30 23 1 22 24
M  V30 24 1 22 25
M  V30 25 1 23 26
M  V30 26 1 24 27
M  V30 27 1 9 11
M  V30 28 1 14 15
M  V30 29 1 19 21
M  V30 30 1 26 27
M  V30 31 1 5 28
M  V30 32 1 5 29
M  V30 33 1 5 30
M  V30 34 1 6 31
M  V30 35 1 7 32
M  V30 36 1 9 33
M  V30 37 1 13 34
M  V30 38 1 13 35
M  V30 39 1 16 36
M  V30 40 1 17 37
M  V30 41 1 17 38
M  V30 42 1 18 39
M  V30 43 1 19 40
M  V30 44 1 20 41
M  V30 45 1 21 42
M  V30 46 1 23 43
M  V30 47 1 23 44
M  V30 48 1 24 45
M  V30 49 1 24 46
M  V30 50 1 25 47
M  V30 51 1 25 48
M  V30 52 1 25 49
M  V30 53 1 26 50
M  V30 54 1 26 51
M  V30 55 1 27 52
M  V30 56 1 27 53
M  V30 END BOND
M  V30 BEGIN COLLECTION
M  V30 MDLV30/STERAC1 ATOMS=(1 20)
M  V30 END COLLECTION
M  V30 END CTAB
M  END
>  <Column 1>
577

>  <level_0>
653

>  <index>
653

>  <Unnamed: 0>
653

>  <NO.>
663

>  <Name>
sulforidazine

>  <IUPAC_name>
10-[2-(1-methylpiperidin-2-yl)ethyl]-2-methylsulfonylphenothiazine

>  <SMILES>
CN1CCCCC1CCN1c2ccccc2Sc2ccc(S(C)(=O)=O)cc21

>  <CID>
31765

>  <logBB>
0.2

>  <BBB+/BBB->
BBB+

>  <Inchi>
InChI=1S/C21H26N2O2S2/c1-22-13-6-5-7-16(22)12-14-23-18-8-3-4-9-20(18)26-21-11-10-17(15-19(21)23)27(2-24)25/h3-4-8-11-15-16H-5-7-12-14H2-1-2H3

>  <threshold>


>  <reference>
R3|R11|R12|R18|R21|R25|R26|R27|R27|R35|R36|R38|R39|R41|R43|R46|R47|R4|R2|R2|R8|R27|R40|R5|

>  <group>
A

>  <Class>
1

>  <ABC>
21.54

>  <ABCGG>
16.4

>  <nAcid>
0

>  <nBase>
1

>  <nAromAtom>
12

>  <nAromBond>
12

>  <nAtom>
53

>  <nHeavyAtom>
27

>  <nSpiro>
0

>  <nBridgehead>
0

>  <nHetero>
6

>  <nN>
2

>  <nO>
2

>  <nF>
0

>  <BalabanJ>
1.48

>  <BertzCT>
942.95

>  <nBonds>
56

>  <nBondsO>
30

>  <nBondsS>
42

>  <nBondsD>
2

>  <nBondsT>
0

>  <nBondsA>
12

>  <nBondsM>
14

>  <nBondsKS>
48

>  <nBondsKD>
8

>  <RNCG>
0.21

>  <RPCG>
0.11

>  <FCSP3>
0.43

>  <SZ>
35.67

>  <Sm>
33.52

>  <Sv>
33.36

>  <Sse>
52.68

>  <Sp>
37.13

>  <Si>
59.24

>  <MZ>
0.67

>  <Mm>
0.63

>  <Mv>
0.63

>  <Mse>
0.99

>  <Mp>
0.7

>  <Mi>
1.12

>  <NsCH3>
2

>  <NdCH2>
0

>  <NssCH2>
6

>  <NtCH>
0

>  <NdsCH>
0

>  <NaaCH>
7

>  <NsssCH>
1

>  <NddC>
0

>  <NtsC>
0

>  <NdssC>
0

>  <NaasC>
5

>  <NaaaC>
0

>  <NssssC>
0

>  <NsNH3>
0

>  <NsNH2>
0

>  <NssNH2>
0

>  <NdNH>
0

>  <NssNH>
0

>  <NaaNH>
0

>  <NtN>
0

>  <NsssNH>
0

>  <NdsN>
0

>  <NaaN>
0

>  <NsssN>
2

>  <NddsN>
0

>  <NaasN>
0

>  <NssssN>
0

>  <NsOH>
0

>  <NdO>
2

>  <NssO>
0

>  <NaaO>
0

>  <NsF>
0

>  <NsSiH3>
0

>  <NssSiH2>
0

>  <NsssSiH>
0

>  <NssssSi>
0

>  <NsPH2>
0

>  <NssPH>
0

>  <NsssP>
0

>  <NdsssP>
0

>  <NsssssP>
0

>  <NsSH>
0

>  <NdS>
0

>  <NssS>
1

>  <NaaS>
0

>  <NdssS>
0

>  <NddssS>
1

>  <NsCl>
0

>  <NsBr>
0

>  <NsI>
0

>  <fragCpx>
198.06

>  <fMF>
0.42

>  <nHBAcc>
5

>  <nHBDon>
0

>  <Kier1>
20.28

>  <Kier2>
8.39

>  <Lipinski>
1

>  <GhoseFilter>
1

>  <FilterItLogS>
-5.22

>  <VMcGowan>
301.91

>  <LabuteASA>
166.03

>  <PEOE_VSA1>
9.8

>  <PEOE_VSA2>
0

>  <PEOE_VSA3>
8.42

>  <PEOE_VSA4>
0

>  <PEOE_VSA5>
0

>  <PEOE_VSA6>
30.32

>  <PEOE_VSA7>
63.19

>  <PEOE_VSA8>
28.63

>  <PEOE_VSA9>
16.27

>  <PEOE_VSA10>
0

>  <PEOE_VSA11>
9.84

>  <PEOE_VSA12>
0

>  <PEOE_VSA13>
0

>  <SMR_VSA1>
8.42

>  <SMR_VSA2>
0

>  <SMR_VSA3>
4.9

>  <SMR_VSA4>
0

>  <SMR_VSA5>
46.41

>  <SMR_VSA6>
31.29

>  <SMR_VSA7>
42.46

>  <SMR_VSA8>
0

>  <SMR_VSA9>
0

>  <SlogP_VSA1>
4.9

>  <SlogP_VSA2>
45.75

>  <SlogP_VSA3>
9.84

>  <SlogP_VSA4>
0

>  <SlogP_VSA5>
25.68

>  <SlogP_VSA6>
57.15

>  <SlogP_VSA7>
0

>  <SlogP_VSA8>
0

>  <SlogP_VSA9>
0

>  <SlogP_VSA10>
11.37

>  <SlogP_VSA11>
0

>  <EState_VSA1>
9.84

>  <EState_VSA2>
0

>  <EState_VSA3>
10.94

>  <EState_VSA4>
23.55

>  <EState_VSA5>
42.65

>  <EState_VSA6>
17.83

>  <EState_VSA7>
12.13

>  <EState_VSA8>
41.11

>  <EState_VSA9>
0

>  <EState_VSA10>
8.42

>  <VSA_EState1>
24.17

>  <VSA_EState2>
7.54

>  <VSA_EState3>
0

>  <VSA_EState4>
2.19

>  <VSA_EState5>
0

>  <VSA_EState6>
14.53

>  <VSA_EState7>
6.2

>  <VSA_EState8>
2.07

>  <VSA_EState9>
-1

>  <apol>
62.01

>  <bpol>
38.62

>  <nRing>
4

>  <nHRing>
2

>  <naRing>
2

>  <naHRing>
0

>  <nARing 2>
2

>  <nAHRing 2>
2

>  <nFRing>
1

>  <nFHRing>
1

>  <nFaRing>
0

>  <nFaHRing>
0

>  <nFARing 2>
1

>  <nFAHRing 2>
1

>  <nRot>
4

>  <SLogP>
4.57

>  <SMR>
112.01

>  <TopoPSA(NO)>
40.62

>  <TopoPSA>
74.3

>  <JGI1>
0.2

>  <JGI2>
0.09

>  <JGI3>
0.04

>  <JGI4>
0.04

>  <JGI5>
0.03

>  <Diameter>
11

>  <Radius>
6

>  <TMWC10>
134.1

>  <TSRW10>
62.68

>  <MW>
402.14

>  <AMW>
7.59

>  <WPath>
1766

>  <WPol>
46

>  <Zagreb1>
148

>  <Zagreb2>
176

>  <mZagreb2>
5.72

>  <yes>


>  <nAR-cont>
1

>  <nHA-cont>
0.860070871

>  <MWHBN>
0.249333921

>  <MWHBN-cont>
0.960889774

>  <TPSA-cont>
0.481339862

>  <pka_cont>
0.97

>  <yes.1>


>  <BBB_SCORE>
4.749085258

>  <MMFF94 Energy>
91.79

$$$$
Compound 465
Actelion Java MolfileCreator 2.0

  0  0  0  0  0  0              0 V3000
M  V30 BEGIN CTAB
M  V30 COUNTS 18 18 0 0 0
M  V30 BEGIN ATOM
M  V30 1 C 0.0 0.0775 -0.3876 0
M  V30 2 C 0.435 1.2421 0.2587 0
M  V30 3 C 0.7787 -1.0835 -0.2932 0
M  V30 4 C -1.3012 0.0657 -1.148 0
M  V30 5 C 1.6323 1.2479 0.9762 0
M  V30 6 C 1.9758 -1.076 0.4247 0
M  V30 7 C -2.4732 -0.3186 -0.2578 0
M  V30 8 C 2.4027 0.0895 1.0582 0
M  V30 9 H -0.1579 2.1524 0.2072 0
M  V30 10 H 0.4559 -2.0015 -0.7786 0
M  V30 11 H -1.2302 -0.6335 -1.9899 0
M  V30 12 H -1.4795 1.0539 -1.5893 0
M  V30 13 H 1.9629 2.1564 1.4726 0
M  V30 14 H 2.5742 -1.9806 0.4907 0
M  V30 15 H -3.403 -0.3188 -0.8355 0
M  V30 16 H -2.5897 0.3863 0.5722 0
M  V30 17 H -2.3378 -1.3187 0.1675 0
M  V30 18 H 3.3343 0.0945 1.6174 0
M  V30 END ATOM
M  V30 BEGIN BOND
M  V30 1 2 1 2
M  V30 2 1 1 3
M  V30 3 1 1 4
M  V30 4 1 2 5
M  V30 5 2 3 6
M  V30 6 1 4 7
M  V30 7 2 5 8
M  V30 8 1 6 8
M  V30 9 1 2 9
M  V30 10 1 3 10
M  V30 11 1 4 11
M  V30 12 1 4 12
M  V30 13 1 5 13
M  V30 14 1 6 14
M  V30 15 1 7 15
M  V30 16 1 7 16
M  V30 17 1 7 17
M  V30 18 1 8 18
M  V30 END BOND
M  V30 END CTAB
M  END
>  <Column 1>
578

>  <level_0>
654

>  <index>
654

>  <Unnamed: 0>
654

>  <NO.>
664

>  <Name>
ethylbenzene

>  <IUPAC_name>
ethylbenzene

>  <SMILES>
CCc1ccccc1

>  <CID>
7500

>  <logBB>
0.2

>  <BBB+/BBB->
BBB+

>  <Inchi>
InChI=1S/C8H10/c1-2-8-6-4-3-5-7-8/h3-7H-2H2-1H3

>  <threshold>


>  <reference>
R12|R5|R20|R35|R39|R44|R8|R21|R27|R40|R2|R2|R27|R3|R25|R38|R41|R46|R47|

>  <group>
A

>  <Class>
1

>  <ABC>
5.66

>  <ABCGG>
5.43

>  <nAcid>
0

>  <nBase>
0

>  <nAromAtom>
6

>  <nAromBond>
6

>  <nAtom>
18

>  <nHeavyAtom>
8

>  <nSpiro>
0

>  <nBridgehead>
0

>  <nHetero>
0

>  <nN>
0

>  <nO>
0

>  <nF>
0

>  <BalabanJ>
2.13

>  <BertzCT>
141.38

>  <nBonds>
18

>  <nBondsO>
8

>  <nBondsS>
12

>  <nBondsD>
0

>  <nBondsT>
0

>  <nBondsA>
6

>  <nBondsM>
6

>  <nBondsKS>
15

>  <nBondsKD>
3

>  <RNCG>
0.14

>  <RPCG>
0.14

>  <FCSP3>
0.25

>  <SZ>
9.67

>  <Sm>
8.84

>  <Sv>
10.71

>  <Sse>
17.44

>  <Sp>
11.99

>  <Si>
20.08

>  <MZ>
0.54

>  <Mm>
0.49

>  <Mv>
0.59

>  <Mse>
0.97

>  <Mp>
0.67

>  <Mi>
1.12

>  <NsCH3>
1

>  <NdCH2>
0

>  <NssCH2>
1

>  <NtCH>
0

>  <NdsCH>
0

>  <NaaCH>
5

>  <NsssCH>
0

>  <NddC>
0

>  <NtsC>
0

>  <NdssC>
0

>  <NaasC>
1

>  <NaaaC>
0

>  <NssssC>
0

>  <NsNH3>
0

>  <NsNH2>
0

>  <NssNH2>
0

>  <NdNH>
0

>  <NssNH>
0

>  <NaaNH>
0

>  <NtN>
0

>  <NsssNH>
0

>  <NdsN>
0

>  <NaaN>
0

>  <NsssN>
0

>  <NddsN>
0

>  <NaasN>
0

>  <NssssN>
0

>  <NsOH>
0

>  <NdO>
0

>  <NssO>
0

>  <NaaO>
0

>  <NsF>
0

>  <NsSiH3>
0

>  <NssSiH2>
0

>  <NsssSiH>
0

>  <NssssSi>
0

>  <NsPH2>
0

>  <NssPH>
0

>  <NsssP>
0

>  <NdsssP>
0

>  <NsssssP>
0

>  <NsSH>
0

>  <NdS>
0

>  <NssS>
0

>  <NaaS>
0

>  <NdssS>
0

>  <NddssS>
0

>  <NsCl>
0

>  <NsBr>
0

>  <NsI>
0

>  <fragCpx>
8

>  <fMF>
0.33

>  <nHBAcc>
0

>  <nHBDon>
0

>  <Kier1>
6.13

>  <Kier2>
3.11

>  <Lipinski>
1

>  <GhoseFilter>
0

>  <FilterItLogS>
-2.36

>  <VMcGowan>
99.82

>  <LabuteASA>
50.16

>  <PEOE_VSA1>
0

>  <PEOE_VSA2>
0

>  <PEOE_VSA3>
0

>  <PEOE_VSA4>
0

>  <PEOE_VSA5>
0

>  <PEOE_VSA6>
37.26

>  <PEOE_VSA7>
11.98

>  <PEOE_VSA8>
0

>  <PEOE_VSA9>
0

>  <PEOE_VSA10>
0

>  <PEOE_VSA11>
0

>  <PEOE_VSA12>
0

>  <PEOE_VSA13>
0

>  <SMR_VSA1>
0

>  <SMR_VSA2>
0

>  <SMR_VSA3>
0

>  <SMR_VSA4>
0

>  <SMR_VSA5>
13.34

>  <SMR_VSA6>
0

>  <SMR_VSA7>
35.9

>  <SMR_VSA8>
0

>  <SMR_VSA9>
0

>  <SlogP_VSA1>
0

>  <SlogP_VSA2>
0

>  <SlogP_VSA3>
6.42

>  <SlogP_VSA4>
0

>  <SlogP_VSA5>
12.49

>  <SlogP_VSA6>
30.33

>  <SlogP_VSA7>
0

>  <SlogP_VSA8>
0

>  <SlogP_VSA9>
0

>  <SlogP_VSA10>
0

>  <SlogP_VSA11>
0

>  <EState_VSA1>
0

>  <EState_VSA2>
0

>  <EState_VSA3>
0

>  <EState_VSA4>
6.42

>  <EState_VSA5>
5.56

>  <EState_VSA6>
0

>  <EState_VSA7>
6.07

>  <EState_VSA8>
31.19

>  <EState_VSA9>
0

>  <EState_VSA10>
0

>  <VSA_EState1>
0

>  <VSA_EState2>
0

>  <VSA_EState3>
0

>  <VSA_EState4>
1.41

>  <VSA_EState5>
0

>  <VSA_EState6>
10.46

>  <VSA_EState7>
1.14

>  <VSA_EState8>
2.16

>  <VSA_EState9>
0

>  <apol>
20.03

>  <bpol>
10.03

>  <nRing>
1

>  <nHRing>
0

>  <naRing>
1

>  <naHRing>
0

>  <nARing 2>
0

>  <nAHRing 2>
0

>  <nFRing>
0

>  <nFHRing>
0

>  <nFaRing>
0

>  <nFaHRing>
0

>  <nFARing 2>
0

>  <nFAHRing 2>
0

>  <nRot>
1

>  <SLogP>
2.25

>  <SMR>
35.82

>  <TopoPSA(NO)>
0

>  <TopoPSA>
0

>  <JGI1>
0.13

>  <JGI2>
0.05

>  <JGI3>
0.03

>  <JGI4>
0.05

>  <JGI5>
0.06

>  <Diameter>
5

>  <Radius>
3

>  <TMWC10>
75.04

>  <TSRW10>
35.25

>  <MW>
106.08

>  <AMW>
5.89

>  <WPath>
64

>  <WPol>
7

>  <Zagreb1>
34

>  <Zagreb2>
36

>  <mZagreb2>
2

>  <yes>


>  <nAR-cont>
0.336376

>  <nHA-cont>
0.464727961

>  <MWHBN>
0

>  <MWHBN-cont>
0

>  <TPSA-cont>
0

>  <pka_cont>
0.97

>  <yes.1>


>  <BBB_SCORE>
1.286103961

>  <MMFF94 Energy>
18.057

$$$$
Compound 466
Actelion Java MolfileCreator 2.0

  0  0  0  0  0  0              0 V3000
M  V30 BEGIN CTAB
M  V30 COUNTS 35 35 0 0 0
M  V30 BEGIN ATOM
M  V30 1 O 3.9999 0.94 -2.3513 0
M  V30 2 C 2.9726 0.8117 -1.6948 0
M  V30 3 N 2.9443 0.0891 -0.547 0
M  V30 4 N 1.7937 1.3468 -2.1022 0
M  V30 5 C 1.8438 -0.163 0.2205 0
M  V30 6 C 0.5887 1.2428 -1.4667 0
M  V30 7 O 1.9186 -1.0052 1.1144 0
M  V30 8 C 0.5954 0.6836 -0.0446 0
M  V30 9 O -0.4165 1.6736 -2.0281 0
M  V30 10 C -0.6892 -0.1828 0.2411 0 CFG=2
M  V30 11 C 0.727 1.9398 0.8759 0
M  V30 12 C -0.7981 -1.3795 -0.745 0
M  V30 13 C -2.0079 0.6094 0.2652 0
M  V30 14 C 0.6177 1.6928 2.3599 0
M  V30 15 C -1.8698 -2.4013 -0.3503 0
M  V30 16 C -0.2544 2.316 3.1625 0
M  V30 17 C -1.8459 -3.6124 -1.2711 0
M  V30 18 H 3.7949 -0.3973 -0.2992 0
M  V30 19 H 1.7943 1.8062 -3.0026 0
M  V30 20 H -0.5776 -0.6122 1.2467 0
M  V30 21 H -0.0051 2.7003 0.5722 0
M  V30 22 H 1.7059 2.412 0.7085 0
M  V30 23 H -1.0125 -1.0135 -1.7565 0
M  V30 24 H 0.1641 -1.9011 -0.8008 0
M  V30 25 H -2.3522 0.8652 -0.7407 0
M  V30 26 H -1.9343 1.5325 0.8427 0
M  V30 27 H -2.8005 0.0176 0.7358 0
M  V30 28 H 1.3047 0.9738 2.8051 0
M  V30 29 H -1.7074 -2.7326 0.6816 0
M  V30 30 H -2.8659 -1.9493 -0.3981 0
M  V30 31 H -0.9602 3.0504 2.7864 0
M  V30 32 H -0.2805 2.0994 4.2267 0
M  V30 33 H -2.6212 -4.327 -0.9771 0
M  V30 34 H -2.03 -3.3189 -2.3094 0
M  V30 35 H -0.8788 -4.1227 -1.2238 0
M  V30 END ATOM
M  V30 BEGIN BOND
M  V30 1 2 1 2
M  V30 2 1 2 3
M  V30 3 1 2 4
M  V30 4 1 3 5
M  V30 5 1 4 6
M  V30 6 2 5 7
M  V30 7 1 5 8
M  V30 8 2 6 9
M  V30 9 1 8 10
M  V30 10 1 8 11
M  V30 11 1 10 12
M  V30 12 1 10 13
M  V30 13 1 11 14
M  V30 14 1 12 15
M  V30 15 2 14 16
M  V30 16 1 15 17
M  V30 17 1 6 8
M  V30 18 1 3 18
M  V30 19 1 4 19
M  V30 20 1 10 20
M  V30 21 1 11 21
M  V30 22 1 11 22
M  V30 23 1 12 23
M  V30 24 1 12 24
M  V30 25 1 13 25
M  V30 26 1 13 26
M  V30 27 1 13 27
M  V30 28 1 14 28
M  V30 29 1 15 29
M  V30 30 1 15 30
M  V30 31 1 16 31
M  V30 32 1 16 32
M  V30 33 1 17 33
M  V30 34 1 17 34
M  V30 35 1 17 35
M  V30 END BOND
M  V30 BEGIN COLLECTION
M  V30 MDLV30/STERAC1 ATOMS=(1 10)
M  V30 END COLLECTION
M  V30 END CTAB
M  END
>  <Column 1>
579

>  <level_0>
655

>  <index>
655

>  <Unnamed: 0>
655

>  <NO.>
665

>  <Name>
secobarbital

>  <IUPAC_name>
5-pentan-2-yl-5-prop-2-enyl-1-3-diazinane-2-4-6-trione

>  <SMILES>
C=CCC1(C(C)CCC)C(=O)NC(=O)NC1=O

>  <CID>
5193

>  <logBB>
0.2

>  <BBB+/BBB->
BBB+

>  <Inchi>
InChI=1S/C12H18N2O3/c1-4-6-8(3)12(7-5-2)9(15)13-11(17)14-10(12)16/h5-8H-2-4-6-7H2-1-3H3-(H2-13-14-15-16-17)

>  <threshold>


>  <reference>
R4|R8|R21|R27|R40|R43|R47|

>  <group>
A

>  <Class>
1

>  <ABC>
12.27

>  <ABCGG>
11.99

>  <nAcid>
0

>  <nBase>
0

>  <nAromAtom>
0

>  <nAromBond>
0

>  <nAtom>
35

>  <nHeavyAtom>
17

>  <nSpiro>
0

>  <nBridgehead>
0

>  <nHetero>
5

>  <nN>
2

>  <nO>
3

>  <nF>
0

>  <BalabanJ>
2.94

>  <BertzCT>
342.76

>  <nBonds>
35

>  <nBondsO>
17

>  <nBondsS>
31

>  <nBondsD>
4

>  <nBondsT>
0

>  <nBondsA>
0

>  <nBondsM>
4

>  <nBondsKS>
31

>  <nBondsKD>
4

>  <RNCG>
0.15

>  <RPCG>
0.18

>  <FCSP3>
0.58

>  <SZ>
21.33

>  <Sm>
19.84

>  <Sv>
20.54

>  <Sse>
35.31

>  <Sp>
21.95

>  <Si>
39.95

>  <MZ>
0.61

>  <Mm>
0.57

>  <Mv>
0.59

>  <Mse>
1.01

>  <Mp>
0.63

>  <Mi>
1.14

>  <NsCH3>
2

>  <NdCH2>
1

>  <NssCH2>
3

>  <NtCH>
0

>  <NdsCH>
1

>  <NaaCH>
0

>  <NsssCH>
1

>  <NddC>
0

>  <NtsC>
0

>  <NdssC>
3

>  <NaasC>
0

>  <NaaaC>
0

>  <NssssC>
1

>  <NsNH3>
0

>  <NsNH2>
0

>  <NssNH2>
0

>  <NdNH>
0

>  <NssNH>
2

>  <NaaNH>
0

>  <NtN>
0

>  <NsssNH>
0

>  <NdsN>
0

>  <NaaN>
0

>  <NsssN>
0

>  <NddsN>
0

>  <NaasN>
0

>  <NssssN>
0

>  <NsOH>
0

>  <NdO>
3

>  <NssO>
0

>  <NaaO>
0

>  <NsF>
0

>  <NsSiH3>
0

>  <NssSiH2>
0

>  <NsssSiH>
0

>  <NssssSi>
0

>  <NsPH2>
0

>  <NssPH>
0

>  <NsssP>
0

>  <NdsssP>
0

>  <NsssssP>
0

>  <NsSH>
0

>  <NdS>
0

>  <NssS>
0

>  <NaaS>
0

>  <NdssS>
0

>  <NddssS>
0

>  <NsCl>
0

>  <NsBr>
0

>  <NsI>
0

>  <fragCpx>
17.05

>  <fMF>
0.17

>  <nHBAcc>
3

>  <nHBDon>
2

>  <Kier1>
15.06

>  <Kier2>
6.25

>  <Lipinski>
1

>  <GhoseFilter>
1

>  <FilterItLogS>
-3.24

>  <VMcGowan>
189.45

>  <LabuteASA>
100.64

>  <PEOE_VSA1>
0

>  <PEOE_VSA2>
20.22

>  <PEOE_VSA3>
4.79

>  <PEOE_VSA4>
0

>  <PEOE_VSA5>
6.58

>  <PEOE_VSA6>
26.34

>  <PEOE_VSA7>
18.76

>  <PEOE_VSA8>
0

>  <PEOE_VSA9>
0

>  <PEOE_VSA10>
5.41

>  <PEOE_VSA11>
0

>  <PEOE_VSA12>
11.81

>  <PEOE_VSA13>
0

>  <SMR_VSA1>
14.38

>  <SMR_VSA2>
0

>  <SMR_VSA3>
10.63

>  <SMR_VSA4>
11.33

>  <SMR_VSA5>
33.11

>  <SMR_VSA6>
0

>  <SMR_VSA7>
12.65

>  <SMR_VSA8>
0

>  <SMR_VSA9>
0

>  <SlogP_VSA1>
10.63

>  <SlogP_VSA2>
17.85

>  <SlogP_VSA3>
9.59

>  <SlogP_VSA4>
11.33

>  <SlogP_VSA5>
33.11

>  <SlogP_VSA6>
12.65

>  <SlogP_VSA7>
0

>  <SlogP_VSA8>
0

>  <SlogP_VSA9>
0

>  <SlogP_VSA10>
4.79

>  <SlogP_VSA11>
0

>  <EState_VSA1>
23.26

>  <EState_VSA2>
12.34

>  <EState_VSA3>
0

>  <EState_VSA4>
12.84

>  <EState_VSA5>
0

>  <EState_VSA6>
6.08

>  <EState_VSA7>
13.85

>  <EState_VSA8>
17.21

>  <EState_VSA9>
0

>  <EState_VSA10>
14.38

>  <VSA_EState1>
0

>  <VSA_EState2>
35.07

>  <VSA_EState3>
4.33

>  <VSA_EState4>
-1.2

>  <VSA_EState5>
-1.18

>  <VSA_EState6>
-0.75

>  <VSA_EState7>
3.39

>  <VSA_EState8>
7.42

>  <VSA_EState9>
0

>  <apol>
36.65

>  <bpol>
21.8

>  <nRing>
1

>  <nHRing>
1

>  <naRing>
0

>  <naHRing>
0

>  <nARing 2>
1

>  <nAHRing 2>
1

>  <nFRing>
0

>  <nFHRing>
0

>  <nFaRing>
0

>  <nFaHRing>
0

>  <nFARing 2>
0

>  <nFAHRing 2>
0

>  <nRot>
5

>  <SLogP>
1.35

>  <SMR>
63

>  <TopoPSA(NO)>
75.27

>  <TopoPSA>
75.27

>  <JGI1>
0.29

>  <JGI2>
0.13

>  <JGI3>
0.09

>  <JGI4>
0.04

>  <JGI5>
0.03

>  <Diameter>
8

>  <Radius>
4

>  <TMWC10>
106.14

>  <TSRW10>
49.94

>  <MW>
238.13

>  <AMW>
6.8

>  <WPath>
472

>  <WPol>
30

>  <Zagreb1>
82

>  <Zagreb2>
98

>  <mZagreb2>
4.04

>  <yes>


>  <nAR-cont>
0.816016

>  <nHA-cont>
0.976740822

>  <MWHBN>
0.324013383

>  <MWHBN-cont>
0.763571387

>  <TPSA-cont>
0.47456866

>  <pka_cont>
0.97

>  <yes.1>


>  <BBB_SCORE>
4.372251223

>  <MMFF94 Energy>
-112.4

$$$$
Compound 467
Actelion Java MolfileCreator 2.0

  0  0  0  0  0  0              0 V3000
M  V30 BEGIN CTAB
M  V30 COUNTS 57 59 0 0 0
M  V30 BEGIN ATOM
M  V30 1 S 6.3306 -0.9596 -0.2398 0
M  V30 2 C 4.9803 -1.9458 0.1465 0
M  V30 3 C 6.8031 -0.85 1.3987 0
M  V30 4 C 4.9242 -2.209 1.5018 0
M  V30 5 C 4.0694 -2.4535 -0.939 0
M  V30 6 C 5.9691 -1.5668 2.2261 0
M  V30 7 C 3.224 -1.3607 -1.6261 0
M  V30 8 N 1.8434 -1.2048 -1.1105 0
M  V30 9 C 1.8205 -0.6846 0.2594 0
M  V30 10 C 1.0757 -0.3389 -2.0179 0
M  V30 11 C 0.3951 -0.5 0.7891 0
M  V30 12 C -0.3732 -0.1934 -1.5556 0
M  V30 13 C -0.5045 0.3851 -0.113 0
M  V30 14 N -1.9329 0.3472 0.4177 0
M  V30 15 C 0.0078 1.8654 -0.1042 0
M  V30 16 C -2.9604 -0.1141 -0.442 0
M  V30 17 C -2.2414 0.8005 1.7096 0
M  V30 18 O -0.734 2.6624 -1.04 0
M  V30 19 C -3.3482 -1.4567 -0.4011 0
M  V30 20 C -3.5905 0.774 -1.3175 0
M  V30 21 O -1.3832 1.2093 2.4955 0
M  V30 22 C -3.7117 0.7678 2.1274 0
M  V30 23 C -0.349 4.0295 -0.9817 0
M  V30 24 C -4.3677 -1.9092 -1.2388 0
M  V30 25 C -4.6093 0.3174 -2.1536 0
M  V30 26 C -3.9289 1.3077 3.5327 0
M  V30 27 C -4.9976 -1.0224 -2.1133 0
M  V30 28 H 7.6744 -0.2725 1.6757 0
M  V30 29 H 4.1625 -2.8322 1.9558 0
M  V30 30 H 3.4187 -3.2452 -0.546 0
M  V30 31 H 4.6937 -2.9407 -1.7007 0
M  V30 32 H 6.105 -1.6326 3.2986 0
M  V30 33 H 3.7411 -0.3929 -1.6373 0
M  V30 34 H 3.1388 -1.6745 -2.6756 0
M  V30 35 H 2.3043 -1.3981 0.9319 0
M  V30 36 H 2.3788 0.2561 0.3352 0
M  V30 37 H 1.0566 -0.7892 -3.0186 0
M  V30 38 H 1.5492 0.6441 -2.1271 0
M  V30 39 H -0.0711 -1.4896 0.8978 0
M  V30 40 H 0.4708 -0.0912 1.8019 0
M  V30 41 H -0.9088 0.4287 -2.2822 0
M  V30 42 H -0.8298 -1.1906 -1.6047 0
M  V30 43 H -0.0767 2.3156 0.889 0
M  V30 44 H 1.0645 1.9225 -0.3829 0
M  V30 45 H -2.8561 -2.15 0.2754 0
M  V30 46 H -3.2856 1.8169 -1.3539 0
M  V30 47 H -4.0713 -0.2653 2.0925 0
M  V30 48 H -4.2979 1.3732 1.4286 0
M  V30 49 H -0.9332 4.5827 -1.7221 0
M  V30 50 H 0.7129 4.1395 -1.2209 0
M  V30 51 H -0.5588 4.4447 0.0087 0
M  V30 52 H -4.6695 -2.953 -1.212 0
M  V30 53 H -5.098 1.006 -2.838 0
M  V30 54 H -4.991 1.2709 3.7945 0
M  V30 55 H -3.5935 2.3472 3.611 0
M  V30 56 H -3.3748 0.7184 4.2708 0
M  V30 57 H -5.7907 -1.3768 -2.7672 0
M  V30 END ATOM
M  V30 BEGIN BOND
M  V30 1 1 1 2
M  V30 2 1 1 3
M  V30 3 2 2 4
M  V30 4 1 2 5
M  V30 5 2 3 6
M  V30 6 1 5 7
M  V30 7 1 7 8
M  V30 8 1 8 9
M  V30 9 1 8 10
M  V30 10 1 9 11
M  V30 11 1 10 12
M  V30 12 1 11 13
M  V30 13 1 13 14
M  V30 14 1 13 15
M  V30 15 1 14 16
M  V30 16 1 14 17
M  V30 17 1 15 18
M  V30 18 2 16 19
M  V30 19 1 16 20
M  V30 20 2 17 21
M  V30 21 1 17 22
M  V30 22 1 18 23
M  V30 23 1 19 24
M  V30 24 2 20 25
M  V30 25 1 22 26
M  V30 26 2 24 27
M  V30 27 1 4 6
M  V30 28 1 12 13
M  V30 29 1 25 27
M  V30 30 1 3 28
M  V30 31 1 4 29
M  V30 32 1 5 30
M  V30 33 1 5 31
M  V30 34 1 6 32
M  V30 35 1 7 33
M  V30 36 1 7 34
M  V30 37 1 9 35
M  V30 38 1 9 36
M  V30 39 1 10 37
M  V30 40 1 10 38
M  V30 41 1 11 39
M  V30 42 1 11 40
M  V30 43 1 12 41
M  V30 44 1 12 42
M  V30 45 1 15 43
M  V30 46 1 15 44
M  V30 47 1 19 45
M  V30 48 1 20 46
M  V30 49 1 22 47
M  V30 50 1 22 48
M  V30 51 1 23 49
M  V30 52 1 23 50
M  V30 53 1 23 51
M  V30 54 1 24 52
M  V30 55 1 25 53
M  V30 56 1 26 54
M  V30 57 1 26 55
M  V30 58 1 26 56
M  V30 59 1 27 57
M  V30 END BOND
M  V30 END CTAB
M  END
>  <Column 1>
580

>  <level_0>
657

>  <index>
657

>  <Unnamed: 0>
657

>  <NO.>
667

>  <Name>
sufentanil

>  <IUPAC_name>
n-[4-(methoxymethyl)-1-(2-thiophen-2-ylethyl)piperidin-4-yl]-n-phenylpropanamide

>  <SMILES>
CCC(=O)N(c1ccccc1)C1(COC)CCN(CCc2cccs2)CC1

>  <CID>
41693

>  <logBB>
0.2

>  <BBB+/BBB->
BBB+

>  <Inchi>
InChI=1S/C22H30N2O2S/c1-3-21(25)24(19-8-5-4-6-9-19)22(18-26-2)12-15-23(16-13-22)14-11-20-10-7-17-27-20/h4-10-17H-3-11-16-18H2-1-2H3

>  <threshold>


>  <reference>
R47|

>  <group>
A

>  <Class>
1

>  <ABC>
20.47

>  <ABCGG>
17.01

>  <nAcid>
0

>  <nBase>
1

>  <nAromAtom>
11

>  <nAromBond>
11

>  <nAtom>
57

>  <nHeavyAtom>
27

>  <nSpiro>
0

>  <nBridgehead>
0

>  <nHetero>
5

>  <nN>
2

>  <nO>
2

>  <nF>
0

>  <BalabanJ>
1.62

>  <BertzCT>
694.37

>  <nBonds>
59

>  <nBondsO>
29

>  <nBondsS>
47

>  <nBondsD>
1

>  <nBondsT>
0

>  <nBondsA>
11

>  <nBondsM>
12

>  <nBondsKS>
53

>  <nBondsKD>
6

>  <RNCG>
0.2

>  <RPCG>
0.12

>  <FCSP3>
0.5

>  <SZ>
34.67

>  <Sm>
32.18

>  <Sv>
34.26

>  <Sse>
56.38

>  <Sp>
37.99

>  <Si>
64.15

>  <MZ>
0.61

>  <Mm>
0.56

>  <Mv>
0.6

>  <Mse>
0.99

>  <Mp>
0.67

>  <Mi>
1.13

>  <NsCH3>
2

>  <NdCH2>
0

>  <NssCH2>
8

>  <NtCH>
0

>  <NdsCH>
0

>  <NaaCH>
8

>  <NsssCH>
0

>  <NddC>
0

>  <NtsC>
0

>  <NdssC>
1

>  <NaasC>
2

>  <NaaaC>
0

>  <NssssC>
1

>  <NsNH3>
0

>  <NsNH2>
0

>  <NssNH2>
0

>  <NdNH>
0

>  <NssNH>
0

>  <NaaNH>
0

>  <NtN>
0

>  <NsssNH>
0

>  <NdsN>
0

>  <NaaN>
0

>  <NsssN>
2

>  <NddsN>
0

>  <NaasN>
0

>  <NssssN>
0

>  <NsOH>
0

>  <NdO>
1

>  <NssO>
1

>  <NaaO>
0

>  <NsF>
0

>  <NsSiH3>
0

>  <NssSiH2>
0

>  <NsssSiH>
0

>  <NssssSi>
0

>  <NsPH2>
0

>  <NssPH>
0

>  <NsssP>
0

>  <NdsssP>
0

>  <NsssssP>
0

>  <NsSH>
0

>  <NdS>
0

>  <NssS>
0

>  <NaaS>
1

>  <NdssS>
0

>  <NddssS>
0

>  <NsCl>
0

>  <NsBr>
0

>  <NsI>
0

>  <fragCpx>
139.05

>  <fMF>
0.35

>  <nHBAcc>
4

>  <nHBDon>
0

>  <Kier1>
21.7

>  <Kier2>
10.68

>  <Lipinski>
1

>  <GhoseFilter>
1

>  <FilterItLogS>
-5.04

>  <VMcGowan>
310.51

>  <LabuteASA>
166.3

>  <PEOE_VSA1>
14.54

>  <PEOE_VSA2>
4.79

>  <PEOE_VSA3>
0

>  <PEOE_VSA4>
0

>  <PEOE_VSA5>
11.34

>  <PEOE_VSA6>
31.19

>  <PEOE_VSA7>
42.84

>  <PEOE_VSA8>
43.73

>  <PEOE_VSA9>
12.15

>  <PEOE_VSA10>
0

>  <PEOE_VSA11>
0

>  <PEOE_VSA12>
5.91

>  <PEOE_VSA13>
0

>  <SMR_VSA1>
9.53

>  <SMR_VSA2>
0

>  <SMR_VSA3>
4.9

>  <SMR_VSA4>
0

>  <SMR_VSA5>
38.15

>  <SMR_VSA6>
38.25

>  <SMR_VSA7>
52.72

>  <SMR_VSA8>
0

>  <SMR_VSA9>
0

>  <SlogP_VSA1>
4.9

>  <SlogP_VSA2>
49.7

>  <SlogP_VSA3>
15.95

>  <SlogP_VSA4>
0

>  <SlogP_VSA5>
31.06

>  <SlogP_VSA6>
47.84

>  <SlogP_VSA7>
0

>  <SlogP_VSA8>
0

>  <SlogP_VSA9>
0

>  <SlogP_VSA10>
5.69

>  <SlogP_VSA11>
0

>  <EState_VSA1>
0

>  <EState_VSA2>
11.45

>  <EState_VSA3>
13.03

>  <EState_VSA4>
44.58

>  <EState_VSA5>
4.88

>  <EState_VSA6>
7.11

>  <EState_VSA7>
53.49

>  <EState_VSA8>
22.41

>  <EState_VSA9>
4.74

>  <EState_VSA10>
4.79

>  <VSA_EState1>
5.63

>  <VSA_EState2>
18.9

>  <VSA_EState3>
2.14

>  <VSA_EState4>
0.72

>  <VSA_EState5>
0.17

>  <VSA_EState6>
14.4

>  <VSA_EState7>
3.48

>  <VSA_EState8>
5.59

>  <VSA_EState9>
1.74

>  <apol>
63.45

>  <bpol>
38.58

>  <nRing>
3

>  <nHRing>
2

>  <naRing>
2

>  <naHRing>
1

>  <nARing 2>
1

>  <nAHRing 2>
1

>  <nFRing>
0

>  <nFHRing>
0

>  <nFaRing>
0

>  <nFaHRing>
0

>  <nFARing 2>
0

>  <nFAHRing 2>
0

>  <nRot>
8

>  <SLogP>
4.21

>  <SMR>
112.52

>  <TopoPSA(NO)>
32.78

>  <TopoPSA>
61.02

>  <JGI1>
0.17

>  <JGI2>
0.08

>  <JGI3>
0.05

>  <JGI4>
0.04

>  <JGI5>
0.02

>  <Diameter>
13

>  <Radius>
7

>  <TMWC10>
131.81

>  <TSRW10>
75.08

>  <MW>
386.2

>  <AMW>
6.78

>  <WPath>
1893

>  <WPol>
41

>  <Zagreb1>
136

>  <Zagreb2>
159

>  <mZagreb2>
6.26

>  <yes>


>  <nAR-cont>
0.816016

>  <nHA-cont>
0.860070871

>  <MWHBN>
0.203541915

>  <MWHBN-cont>
0.999989365

>  <TPSA-cont>
0.574042509

>  <pka_cont>
0.97

>  <yes.1>


>  <BBB_SCORE>
4.809155937

>  <MMFF94 Energy>
57.886

$$$$
Compound 468
Actelion Java MolfileCreator 2.0

  0  0  0  0  0  0              0 V3000
M  V30 BEGIN CTAB
M  V30 COUNTS 18 17 0 0 0
M  V30 BEGIN ATOM
M  V30 1 O -2.2686 0.9825 -1.3606 0
M  V30 2 C -1.7081 -0.3032 -1.5837 0
M  V30 3 C -0.9566 -0.7657 -0.3413 0
M  V30 4 C 0.244 0.1303 -0.0232 0
M  V30 5 C 1.0014 -0.3731 1.2057 0
M  V30 6 C 2.1956 0.5119 1.5256 0
M  V30 7 H -2.7396 1.2335 -2.1734 0
M  V30 8 H -1.0403 -0.2521 -2.4496 0
M  V30 9 H -2.5226 -0.9988 -1.8089 0
M  V30 10 H -1.6393 -0.7612 0.5172 0
M  V30 11 H -0.6174 -1.7971 -0.4917 0
M  V30 12 H -0.0935 1.1587 0.1531 0
M  V30 13 H 0.9206 0.1559 -0.8861 0
M  V30 14 H 0.3303 -0.3984 2.0723 0
M  V30 15 H 1.3495 -1.3984 1.0347 0
M  V30 16 H 2.7225 0.1336 2.4072 0
M  V30 17 H 2.9028 0.5334 0.6903 0
M  V30 18 H 1.8783 1.5387 1.7341 0
M  V30 END ATOM
M  V30 BEGIN BOND
M  V30 1 1 1 2
M  V30 2 1 2 3
M  V30 3 1 3 4
M  V30 4 1 4 5
M  V30 5 1 5 6
M  V30 6 1 1 7
M  V30 7 1 2 8
M  V30 8 1 2 9
M  V30 9 1 3 10
M  V30 10 1 3 11
M  V30 11 1 4 12
M  V30 12 1 4 13
M  V30 13 1 5 14
M  V30 14 1 5 15
M  V30 15 1 6 16
M  V30 16 1 6 17
M  V30 17 1 6 18
M  V30 END BOND
M  V30 END CTAB
M  END
>  <Column 1>
581

>  <level_0>
658

>  <index>
658

>  <Unnamed: 0>
658

>  <NO.>
668

>  <Name>
1-pentanol

>  <IUPAC_name>
pentan-1-ol

>  <SMILES>
CCCCCO

>  <CID>
6276

>  <logBB>
0.2

>  <BBB+/BBB->
BBB+

>  <Inchi>
InChI=1S/C5H12O/c1-2-3-4-5-6/h6H-2-5H2-1H3

>  <threshold>


>  <reference>
R2|R2|R8|R21|R27|R27|R43|R46|R47|R40|R25|R41|R3|R38|

>  <group>
A

>  <Class>
1

>  <ABC>
3.54

>  <ABCGG>
3.87

>  <nAcid>
0

>  <nBase>
0

>  <nAromAtom>
0

>  <nAromBond>
0

>  <nAtom>
18

>  <nHeavyAtom>
6

>  <nSpiro>
0

>  <nBridgehead>
0

>  <nHetero>
1

>  <nN>
0

>  <nO>
1

>  <nF>
0

>  <BalabanJ>
2.34

>  <BertzCT>
15.9

>  <nBonds>
17

>  <nBondsO>
5

>  <nBondsS>
17

>  <nBondsD>
0

>  <nBondsT>
0

>  <nBondsA>
0

>  <nBondsM>
0

>  <nBondsKS>
17

>  <nBondsKD>
0

>  <RNCG>
0.66

>  <RPCG>
0.35

>  <FCSP3>
1

>  <SZ>
8.33

>  <Sm>
7.34

>  <Sv>
8.97

>  <Sse>
17.66

>  <Sp>
10.27

>  <Si>
20.7

>  <MZ>
0.46

>  <Mm>
0.41

>  <Mv>
0.5

>  <Mse>
0.98

>  <Mp>
0.57

>  <Mi>
1.15

>  <NsCH3>
1

>  <NdCH2>
0

>  <NssCH2>
4

>  <NtCH>
0

>  <NdsCH>
0

>  <NaaCH>
0

>  <NsssCH>
0

>  <NddC>
0

>  <NtsC>
0

>  <NdssC>
0

>  <NaasC>
0

>  <NaaaC>
0

>  <NssssC>
0

>  <NsNH3>
0

>  <NsNH2>
0

>  <NssNH2>
0

>  <NdNH>
0

>  <NssNH>
0

>  <NaaNH>
0

>  <NtN>
0

>  <NsssNH>
0

>  <NdsN>
0

>  <NaaN>
0

>  <NsssN>
0

>  <NddsN>
0

>  <NaasN>
0

>  <NssssN>
0

>  <NsOH>
1

>  <NdO>
0

>  <NssO>
0

>  <NaaO>
0

>  <NsF>
0

>  <NsSiH3>
0

>  <NssSiH2>
0

>  <NsssSiH>
0

>  <NssssSi>
0

>  <NsPH2>
0

>  <NssPH>
0

>  <NsssP>
0

>  <NdsssP>
0

>  <NsssssP>
0

>  <NsSH>
0

>  <NdS>
0

>  <NssS>
0

>  <NaaS>
0

>  <NdssS>
0

>  <NddssS>
0

>  <NsCl>
0

>  <NsBr>
0

>  <NsI>
0

>  <fragCpx>
5.01

>  <fMF>
0

>  <nHBAcc>
1

>  <nHBDon>
1

>  <Kier1>
6

>  <Kier2>
5

>  <Lipinski>
1

>  <GhoseFilter>
0

>  <FilterItLogS>
-1.21

>  <VMcGowan>
87.18

>  <LabuteASA>
38.99

>  <PEOE_VSA1>
5.11

>  <PEOE_VSA2>
0

>  <PEOE_VSA3>
0

>  <PEOE_VSA4>
0

>  <PEOE_VSA5>
0

>  <PEOE_VSA6>
19.77

>  <PEOE_VSA7>
6.42

>  <PEOE_VSA8>
6.61

>  <PEOE_VSA9>
0

>  <PEOE_VSA10>
0

>  <PEOE_VSA11>
0

>  <PEOE_VSA12>
0

>  <PEOE_VSA13>
0

>  <SMR_VSA1>
5.11

>  <SMR_VSA2>
0

>  <SMR_VSA3>
0

>  <SMR_VSA4>
0

>  <SMR_VSA5>
26.19

>  <SMR_VSA6>
6.61

>  <SMR_VSA7>
0

>  <SMR_VSA8>
0

>  <SMR_VSA9>
0

>  <SlogP_VSA1>
0

>  <SlogP_VSA2>
11.71

>  <SlogP_VSA3>
0

>  <SlogP_VSA4>
0

>  <SlogP_VSA5>
26.19

>  <SlogP_VSA6>
0

>  <SlogP_VSA7>
0

>  <SlogP_VSA8>
0

>  <SlogP_VSA9>
0

>  <SlogP_VSA10>
0

>  <SlogP_VSA11>
0

>  <EState_VSA1>
0

>  <EState_VSA2>
0

>  <EState_VSA3>
6.61

>  <EState_VSA4>
12.84

>  <EState_VSA5>
6.42

>  <EState_VSA6>
0

>  <EState_VSA7>
0

>  <EState_VSA8>
6.92

>  <EState_VSA9>
5.11

>  <EState_VSA10>
0

>  <VSA_EState1>
0

>  <VSA_EState2>
0

>  <VSA_EState3>
8.2

>  <VSA_EState4>
0

>  <VSA_EState5>
0

>  <VSA_EState6>
0

>  <VSA_EState7>
3.33

>  <VSA_EState8>
2.48

>  <VSA_EState9>
0

>  <apol>
17.15

>  <bpol>
12.04

>  <nRing>
0

>  <nHRing>
0

>  <naRing>
0

>  <naHRing>
0

>  <nARing 2>
0

>  <nAHRing 2>
0

>  <nFRing>
0

>  <nFHRing>
0

>  <nFaRing>
0

>  <nFaHRing>
0

>  <nFARing 2>
0

>  <nFAHRing 2>
0

>  <nRot>
3

>  <SLogP>
1.17

>  <SMR>
26.61

>  <TopoPSA(NO)>
20.23

>  <TopoPSA>
20.23

>  <JGI1>
0.1

>  <JGI2>
0.06

>  <JGI3>
0.04

>  <JGI4>
0.04

>  <JGI5>
0

>  <Diameter>
5

>  <Radius>
3

>  <TMWC10>
58.25

>  <TSRW10>
28.11

>  <MW>
88.09

>  <AMW>
4.89

>  <WPath>
35

>  <WPol>
3

>  <Zagreb1>
18

>  <Zagreb2>
16

>  <mZagreb2>
1.75

>  <yes>


>  <nAR-cont>
0.336376

>  <nHA-cont>
0.238778273

>  <MWHBN>
0.213091777

>  <MWHBN-cont>
0.998393358

>  <TPSA-cont>
0.858782038

>  <pka_cont>
0.97

>  <yes.1>


>  <BBB_SCORE>
4.275308386

>  <MMFF94 Energy>
-1.8901

$$$$
Compound 469
Actelion Java MolfileCreator 2.0

  0  0  0  0  0  0              0 V3000
M  V30 BEGIN CTAB
M  V30 COUNTS 36 37 0 0 0
M  V30 BEGIN ATOM
M  V30 1 Cl 4.7197 -3.0903 1.6256 0
M  V30 2 C 3.613 -1.8132 1.2939 0
M  V30 3 C 2.312 -2.0894 0.8877 0
M  V30 4 C 4.0308 -0.4897 1.4352 0
M  V30 5 F 1.8904 -3.3561 0.7563 0
M  V30 6 C 1.4238 -1.0573 0.608 0
M  V30 7 C 3.1454 0.5668 1.1822 0
M  V30 8 C 1.8362 0.2767 0.7309 0
M  V30 9 N 3.6115 1.875 1.2792 0
M  V30 10 S 0.6847 1.6151 0.3844 0
M  V30 11 C -0.1187 1.0574 -1.1194 0
M  V30 12 C -1.5071 0.8242 -1.1991 0
M  V30 13 C 0.6766 0.8921 -2.2665 0
M  V30 14 C -2.057 0.4223 -2.4331 0
M  V30 15 C -2.4345 0.9574 -0.0046 0
M  V30 16 C 0.1138 0.4907 -3.4779 0
M  V30 17 C -1.2535 0.2562 -3.5611 0
M  V30 18 N -2.3191 -0.1578 0.9536 0
M  V30 19 C -2.8736 -1.4018 0.4182 0
M  V30 20 C -2.9913 0.189 2.2067 0
M  V30 21 H 5.0509 -0.2794 1.7449 0
M  V30 22 H 0.4114 -1.3102 0.3067 0
M  V30 23 H 2.9343 2.6241 1.1731 0
M  V30 24 H 4.4885 2.0844 1.7348 0
M  V30 25 H 1.7473 1.0825 -2.2251 0
M  V30 26 H -3.1244 0.2271 -2.5171 0
M  V30 27 H -3.4741 1.0646 -0.3448 0
M  V30 28 H -2.203 1.9118 0.4868 0
M  V30 29 H 0.744 0.3655 -4.3544 0
M  V30 30 H -1.696 -0.0572 -4.5032 0
M  V30 31 H -2.3148 -1.7408 -0.4598 0
M  V30 32 H -3.9294 -1.2998 0.1422 0
M  V30 33 H -2.7901 -2.2074 1.1569 0
M  V30 34 H -4.0621 0.3748 2.064 0
M  V30 35 H -2.5411 1.0835 2.6518 0
M  V30 36 H -2.8752 -0.6148 2.9424 0
M  V30 END ATOM
M  V30 BEGIN BOND
M  V30 1 1 1 2
M  V30 2 2 2 3
M  V30 3 1 2 4
M  V30 4 1 3 5
M  V30 5 1 3 6
M  V30 6 2 4 7
M  V30 7 2 6 8
M  V30 8 1 7 9
M  V30 9 1 8 10
M  V30 10 1 10 11
M  V30 11 2 11 12
M  V30 12 1 11 13
M  V30 13 1 12 14
M  V30 14 1 12 15
M  V30 15 2 13 16
M  V30 16 2 14 17
M  V30 17 1 15 18
M  V30 18 1 18 19
M  V30 19 1 18 20
M  V30 20 1 7 8
M  V30 21 1 16 17
M  V30 22 1 4 21
M  V30 23 1 6 22
M  V30 24 1 9 23
M  V30 25 1 9 24
M  V30 26 1 13 25
M  V30 27 1 14 26
M  V30 28 1 15 27
M  V30 29 1 15 28
M  V30 30 1 16 29
M  V30 31 1 17 30
M  V30 32 1 19 31
M  V30 33 1 19 32
M  V30 34 1 19 33
M  V30 35 1 20 34
M  V30 36 1 20 35
M  V30 37 1 20 36
M  V30 END BOND
M  V30 END CTAB
M  END
>  <Column 1>
582

>  <level_0>
659

>  <index>
659

>  <Unnamed: 0>
659

>  <NO.>
669

>  <Name>
chembl142158

>  <IUPAC_name>
5-chloro-2-[2-[(dimethylamino)methyl]phenyl]sulfanyl-4-fluoroaniline

>  <SMILES>
CN(C)Cc1ccccc1Sc1cc(F)c(Cl)cc1N

>  <CID>
10403162

>  <logBB>
0.2

>  <BBB+/BBB->
BBB+

>  <Inchi>
InChI=1S/C15H16ClFN2S/c1-19(2)9-10-5-3-4-6-14(10)20-15-8-12(17)11(16)7-13(15)18/h3-8H-9-18H2-1-2H3

>  <threshold>


>  <reference>
R20|

>  <group>
A

>  <Class>
1

>  <ABC>
15.27

>  <ABCGG>
13.05

>  <nAcid>
0

>  <nBase>
1

>  <nAromAtom>
12

>  <nAromBond>
12

>  <nAtom>
36

>  <nHeavyAtom>
20

>  <nSpiro>
0

>  <nBridgehead>
0

>  <nHetero>
5

>  <nN>
2

>  <nO>
0

>  <nF>
1

>  <BalabanJ>
1.92

>  <BertzCT>
616.82

>  <nBonds>
37

>  <nBondsO>
21

>  <nBondsS>
25

>  <nBondsD>
0

>  <nBondsT>
0

>  <nBondsA>
12

>  <nBondsM>
12

>  <nBondsKS>
31

>  <nBondsKD>
6

>  <RNCG>
0.29

>  <RPCG>
0.11

>  <FCSP3>
0.2

>  <SZ>
27

>  <Sm>
25.88

>  <Sv>
23.78

>  <Sse>
36.23

>  <Sp>
26.08

>  <Si>
40.52

>  <MZ>
0.75

>  <Mm>
0.72

>  <Mv>
0.66

>  <Mse>
1.01

>  <Mp>
0.72

>  <Mi>
1.13

>  <NsCH3>
2

>  <NdCH2>
0

>  <NssCH2>
1

>  <NtCH>
0

>  <NdsCH>
0

>  <NaaCH>
6

>  <NsssCH>
0

>  <NddC>
0

>  <NtsC>
0

>  <NdssC>
0

>  <NaasC>
6

>  <NaaaC>
0

>  <NssssC>
0

>  <NsNH3>
0

>  <NsNH2>
1

>  <NssNH2>
0

>  <NdNH>
0

>  <NssNH>
0

>  <NaaNH>
0

>  <NtN>
0

>  <NsssNH>
0

>  <NdsN>
0

>  <NaaN>
0

>  <NsssN>
1

>  <NddsN>
0

>  <NaasN>
0

>  <NssssN>
0

>  <NsOH>
0

>  <NdO>
0

>  <NssO>
0

>  <NaaO>
0

>  <NsF>
1

>  <NsSiH3>
0

>  <NssSiH2>
0

>  <NsssSiH>
0

>  <NssssSi>
0

>  <NsPH2>
0

>  <NssPH>
0

>  <NsssP>
0

>  <NdsssP>
0

>  <NsssssP>
0

>  <NsSH>
0

>  <NdS>
0

>  <NssS>
1

>  <NaaS>
0

>  <NdssS>
0

>  <NddssS>
0

>  <NsCl>
1

>  <NsBr>
0

>  <NsI>
0

>  <fragCpx>
61.05

>  <fMF>
0.36

>  <nHBAcc>
3

>  <nHBDon>
1

>  <Kier1>
16.37

>  <Kier2>
7.32

>  <Lipinski>
1

>  <GhoseFilter>
1

>  <FilterItLogS>
-5.15

>  <VMcGowan>
225

>  <LabuteASA>
127.27

>  <PEOE_VSA1>
10.63

>  <PEOE_VSA2>
0

>  <PEOE_VSA3>
4.39

>  <PEOE_VSA4>
0

>  <PEOE_VSA5>
0

>  <PEOE_VSA6>
41.56

>  <PEOE_VSA7>
37.86

>  <PEOE_VSA8>
22.02

>  <PEOE_VSA9>
5.02

>  <PEOE_VSA10>
5.82

>  <PEOE_VSA11>
0

>  <PEOE_VSA12>
0

>  <PEOE_VSA13>
0

>  <SMR_VSA1>
4.39

>  <SMR_VSA2>
0

>  <SMR_VSA3>
4.9

>  <SMR_VSA4>
0

>  <SMR_VSA5>
16.34

>  <SMR_VSA6>
19.83

>  <SMR_VSA7>
52.8

>  <SMR_VSA8>
0

>  <SMR_VSA9>
0

>  <SlogP_VSA1>
5.73

>  <SlogP_VSA2>
19

>  <SlogP_VSA3>
6.54

>  <SlogP_VSA4>
5.82

>  <SlogP_VSA5>
5.56

>  <SlogP_VSA6>
46.19

>  <SlogP_VSA7>
5.02

>  <SlogP_VSA8>
0

>  <SlogP_VSA9>
0

>  <SlogP_VSA10>
10.08

>  <SlogP_VSA11>
0

>  <EState_VSA1>
5.82

>  <EState_VSA2>
5.02

>  <EState_VSA3>
10.58

>  <EState_VSA4>
11.44

>  <EState_VSA5>
29.46

>  <EState_VSA6>
0

>  <EState_VSA7>
32.29

>  <EState_VSA8>
10.97

>  <EState_VSA9>
17.33

>  <EState_VSA10>
4.39

>  <VSA_EState1>
13.56

>  <VSA_EState2>
3.83

>  <VSA_EState3>
0.05

>  <VSA_EState4>
7.57

>  <VSA_EState5>
-0.45

>  <VSA_EState6>
10.86

>  <VSA_EState7>
0

>  <VSA_EState8>
0.82

>  <VSA_EState9>
4.02

>  <apol>
43.56

>  <bpol>
21.27

>  <nRing>
2

>  <nHRing>
0

>  <naRing>
2

>  <naHRing>
0

>  <nARing 2>
0

>  <nAHRing 2>
0

>  <nFRing>
0

>  <nFHRing>
0

>  <nFaRing>
0

>  <nFaHRing>
0

>  <nFARing 2>
0

>  <nFAHRing 2>
0

>  <nRot>
4

>  <SLogP>
4.27

>  <SMR>
83.78

>  <TopoPSA(NO)>
29.26

>  <TopoPSA>
54.56

>  <JGI1>
0.24

>  <JGI2>
0.08

>  <JGI3>
0.04

>  <JGI4>
0.06

>  <JGI5>
0.02

>  <Diameter>
10

>  <Radius>
5

>  <TMWC10>
113.1

>  <TSRW10>
53.33

>  <MW>
310.07

>  <AMW>
8.61

>  <WPath>
827

>  <WPol>
29

>  <Zagreb1>
100

>  <Zagreb2>
114

>  <mZagreb2>
4.42

>  <yes>


>  <nAR-cont>
0.336376

>  <nHA-cont>
0.999629945

>  <MWHBN>
0.227159088

>  <MWHBN-cont>
0.989474611

>  <TPSA-cont>
0.61913732

>  <pka_cont>
0.97

>  <yes.1>


>  <BBB_SCORE>
4.543492502

>  <MMFF94 Energy>
56.27

$$$$
Compound 470
Actelion Java MolfileCreator 2.0

  0  0  0  0  0  0              0 V3000
M  V30 BEGIN CTAB
M  V30 COUNTS 36 37 0 0 0
M  V30 BEGIN ATOM
M  V30 1 S 0.7215 0.0801 1.1225 0
M  V30 2 C 1.8808 1.4228 0.8623 0
M  V30 3 C 0.0809 -0.3019 -0.514 0
M  V30 4 C 1.503 2.6752 0.3238 0
M  V30 5 C 3.2127 1.1999 1.2509 0
M  V30 6 C -1.2309 -0.8007 -0.6866 0
M  V30 7 C 0.8955 -0.1341 -1.6477 0
M  V30 8 N 0.1812 2.982 0.0177 0
M  V30 9 C 2.4765 3.6721 0.1912 0
M  V30 10 C 4.1715 2.1994 1.0936 0
M  V30 11 C -1.6909 -1.0813 -1.9908 0
M  V30 12 C -2.1831 -1.0564 0.4711 0
M  V30 13 C 0.4222 -0.4189 -2.93 0
M  V30 14 C 3.7937 3.425 0.5646 0
M  V30 15 C -0.873 -0.8885 -3.1021 0
M  V30 16 N -1.8717 -2.2713 1.2436 0
M  V30 17 F 4.7109 4.3909 0.4214 0
M  V30 18 C -2.1111 -3.4926 0.4753 0
M  V30 19 C -2.654 -2.2942 2.4798 0
M  V30 20 H 3.5088 0.2432 1.6761 0
M  V30 21 H 1.9206 0.214 -1.5506 0
M  V30 22 H -0.0537 3.8235 -0.4885 0
M  V30 23 H -0.5057 2.2382 0.0604 0
M  V30 24 H 2.2197 4.6532 -0.1948 0
M  V30 25 H 5.2026 2.0321 1.3872 0
M  V30 26 H -2.6976 -1.466 -2.1432 0
M  V30 27 H -3.2176 -1.0963 0.1011 0
M  V30 28 H -2.1569 -0.1711 1.1206 0
M  V30 29 H 1.0712 -0.2781 -3.7903 0
M  V30 30 H -1.2434 -1.1152 -4.0984 0
M  V30 31 H -1.4488 -3.5524 -0.3942 0
M  V30 32 H -3.1486 -3.5673 0.1298 0
M  V30 33 H -1.8896 -4.3777 1.0828 0
M  V30 34 H -3.7326 -2.3175 2.286 0
M  V30 35 H -2.4321 -1.4143 3.0943 0
M  V30 36 H -2.3932 -3.1691 3.0859 0
M  V30 END ATOM
M  V30 BEGIN BOND
M  V30 1 1 1 2
M  V30 2 1 1 3
M  V30 3 2 2 4
M  V30 4 1 2 5
M  V30 5 2 3 6
M  V30 6 1 3 7
M  V30 7 1 4 8
M  V30 8 1 4 9
M  V30 9 2 5 10
M  V30 10 1 6 11
M  V30 11 1 6 12
M  V30 12 2 7 13
M  V30 13 2 9 14
M  V30 14 2 11 15
M  V30 15 1 12 16
M  V30 16 1 14 17
M  V30 17 1 16 18
M  V30 18 1 16 19
M  V30 19 1 10 14
M  V30 20 1 13 15
M  V30 21 1 5 20
M  V30 22 1 7 21
M  V30 23 1 8 22
M  V30 24 1 8 23
M  V30 25 1 9 24
M  V30 26 1 10 25
M  V30 27 1 11 26
M  V30 28 1 12 27
M  V30 29 1 12 28
M  V30 30 1 13 29
M  V30 31 1 15 30
M  V30 32 1 18 31
M  V30 33 1 18 32
M  V30 34 1 18 33
M  V30 35 1 19 34
M  V30 36 1 19 35
M  V30 37 1 19 36
M  V30 END BOND
M  V30 END CTAB
M  END
>  <Column 1>
583

>  <level_0>
660

>  <index>
660

>  <Unnamed: 0>
660

>  <NO.>
670

>  <Name>
chembl190860

>  <IUPAC_name>
2-[2-[(dimethylamino)methyl]phenyl]sulfanyl-5-fluoroaniline

>  <SMILES>
CN(C)Cc1ccccc1Sc1ccc(F)cc1N

>  <CID>
10265481

>  <logBB>
0.2

>  <BBB+/BBB->
BBB+

>  <Inchi>
InChI=1S/C15H17FN2S/c1-18(2)10-11-5-3-4-6-14(11)19-15-8-7-12(16)9-13(15)17/h3-9H-10-17H2-1-2H3

>  <threshold>


>  <reference>
R2|R2|R25|R27|R46|

>  <group>
A

>  <Class>
1

>  <ABC>
14.5

>  <ABCGG>
12.28

>  <nAcid>
0

>  <nBase>
1

>  <nAromAtom>
12

>  <nAromBond>
12

>  <nAtom>
36

>  <nHeavyAtom>
19

>  <nSpiro>
0

>  <nBridgehead>
0

>  <nHetero>
4

>  <nN>
2

>  <nO>
0

>  <nF>
1

>  <BalabanJ>
1.88

>  <BertzCT>
569.82

>  <nBonds>
37

>  <nBondsO>
20

>  <nBondsS>
25

>  <nBondsD>
0

>  <nBondsT>
0

>  <nBondsA>
12

>  <nBondsM>
12

>  <nBondsKS>
31

>  <nBondsKD>
6

>  <RNCG>
0.3

>  <RPCG>
0.12

>  <FCSP3>
0.2

>  <SZ>
24.33

>  <Sm>
23.01

>  <Sv>
22.96

>  <Sse>
35.91

>  <Sp>
25.18

>  <Si>
40.58

>  <MZ>
0.68

>  <Mm>
0.64

>  <Mv>
0.64

>  <Mse>
1

>  <Mp>
0.7

>  <Mi>
1.13

>  <NsCH3>
2

>  <NdCH2>
0

>  <NssCH2>
1

>  <NtCH>
0

>  <NdsCH>
0

>  <NaaCH>
7

>  <NsssCH>
0

>  <NddC>
0

>  <NtsC>
0

>  <NdssC>
0

>  <NaasC>
5

>  <NaaaC>
0

>  <NssssC>
0

>  <NsNH3>
0

>  <NsNH2>
1

>  <NssNH2>
0

>  <NdNH>
0

>  <NssNH>
0

>  <NaaNH>
0

>  <NtN>
0

>  <NsssNH>
0

>  <NdsN>
0

>  <NaaN>
0

>  <NsssN>
1

>  <NddsN>
0

>  <NaasN>
0

>  <NssssN>
0

>  <NsOH>
0

>  <NdO>
0

>  <NssO>
0

>  <NaaO>
0

>  <NsF>
1

>  <NsSiH3>
0

>  <NssSiH2>
0

>  <NsssSiH>
0

>  <NssssSi>
0

>  <NsPH2>
0

>  <NssPH>
0

>  <NsssP>
0

>  <NdsssP>
0

>  <NsssssP>
0

>  <NsSH>
0

>  <NdS>
0

>  <NssS>
1

>  <NaaS>
0

>  <NdssS>
0

>  <NddssS>
0

>  <NsCl>
0

>  <NsBr>
0

>  <NsI>
0

>  <fragCpx>
58.04

>  <fMF>
0.36

>  <nHBAcc>
3

>  <nHBDon>
1

>  <Kier1>
15.39

>  <Kier2>
7.14

>  <Lipinski>
1

>  <GhoseFilter>
1

>  <FilterItLogS>
-4.4

>  <VMcGowan>
212.76

>  <LabuteASA>
116.97

>  <PEOE_VSA1>
10.63

>  <PEOE_VSA2>
0

>  <PEOE_VSA3>
4.39

>  <PEOE_VSA4>
0

>  <PEOE_VSA5>
0

>  <PEOE_VSA6>
29.96

>  <PEOE_VSA7>
43.92

>  <PEOE_VSA8>
22.02

>  <PEOE_VSA9>
0

>  <PEOE_VSA10>
5.82

>  <PEOE_VSA11>
0

>  <PEOE_VSA12>
0

>  <PEOE_VSA13>
0

>  <SMR_VSA1>
4.39

>  <SMR_VSA2>
0

>  <SMR_VSA3>
4.9

>  <SMR_VSA4>
0

>  <SMR_VSA5>
16.34

>  <SMR_VSA6>
19.83

>  <SMR_VSA7>
53.85

>  <SMR_VSA8>
0

>  <SMR_VSA9>
0

>  <SlogP_VSA1>
5.73

>  <SlogP_VSA2>
19

>  <SlogP_VSA3>
6.54

>  <SlogP_VSA4>
5.82

>  <SlogP_VSA5>
5.56

>  <SlogP_VSA6>
52.26

>  <SlogP_VSA7>
0

>  <SlogP_VSA8>
0

>  <SlogP_VSA9>
0

>  <SlogP_VSA10>
10.08

>  <SlogP_VSA11>
0

>  <EState_VSA1>
0

>  <EState_VSA2>
5.82

>  <EState_VSA3>
5.69

>  <EState_VSA4>
16.34

>  <EState_VSA5>
17.7

>  <EState_VSA6>
17.83

>  <EState_VSA7>
26.23

>  <EState_VSA8>
17.03

>  <EState_VSA9>
5.73

>  <EState_VSA10>
4.39

>  <VSA_EState1>
13.04

>  <VSA_EState2>
4.15

>  <VSA_EState3>
0

>  <VSA_EState4>
7.56

>  <VSA_EState5>
-0.3

>  <VSA_EState6>
12.71

>  <VSA_EState7>
0

>  <VSA_EState8>
0.87

>  <VSA_EState9>
4.07

>  <apol>
42.04

>  <bpol>
21.77

>  <nRing>
2

>  <nHRing>
0

>  <naRing>
2

>  <naHRing>
0

>  <nARing 2>
0

>  <nAHRing 2>
0

>  <nFRing>
0

>  <nFHRing>
0

>  <nFaRing>
0

>  <nFaHRing>
0

>  <nFARing 2>
0

>  <nFAHRing 2>
0

>  <nRot>
4

>  <SLogP>
3.62

>  <SMR>
78.77

>  <TopoPSA(NO)>
29.26

>  <TopoPSA>
54.56

>  <JGI1>
0.23

>  <JGI2>
0.07

>  <JGI3>
0.04

>  <JGI4>
0.05

>  <JGI5>
0.02

>  <Diameter>
10

>  <Radius>
5

>  <TMWC10>
110.2

>  <TSRW10>
51.91

>  <MW>
276.11

>  <AMW>
7.67

>  <WPath>
728

>  <WPol>
26

>  <Zagreb1>
94

>  <Zagreb2>
106

>  <mZagreb2>
4.22

>  <yes>


>  <nAR-cont>
0.336376

>  <nHA-cont>
0.998649058

>  <MWHBN>
0.240723741

>  <MWHBN-cont>
0.973980478

>  <TPSA-cont>
0.61913732

>  <pka_cont>
0.97

>  <yes.1>


>  <BBB_SCORE>
4.519270415

>  <MMFF94 Energy>
57.045

$$$$
Compound 471
Actelion Java MolfileCreator 2.0

  0  0  0  0  0  0              0 V3000
M  V30 BEGIN CTAB
M  V30 COUNTS 51 53 0 0 0
M  V30 BEGIN ATOM
M  V30 1 F 4.7135 3.4336 -4.9536 0
M  V30 2 C 3.6709 2.7095 -4.5258 0
M  V30 3 C 2.7093 2.2899 -5.4353 0
M  V30 4 C 3.5667 2.3892 -3.1787 0
M  V30 5 C 1.6224 1.5351 -4.9904 0
M  V30 6 C 2.4806 1.6346 -2.732 0
M  V30 7 C 1.4943 1.1971 -3.6325 0
M  V30 8 C 0.3028 0.3757 -3.169 0
M  V30 9 C 0.7328 -0.9668 -2.554 0
M  V30 10 C -0.5879 1.1607 -2.1911 0
M  V30 11 C -0.488 -1.7542 -2.088 0
M  V30 12 C -1.7736 0.3143 -1.7258 0
M  V30 13 N -1.2838 -0.9472 -1.1519 0
M  V30 14 C -1.2439 -1.2021 0.2292 0
M  V30 15 N -0.0091 -1.5195 0.7638 0
M  V30 16 C -2.317 -1.1792 1.0434 0
M  V30 17 C 0.1236 -1.7139 2.0362 0
M  V30 18 N -3.6231 -1.0063 0.5031 0 CHG=1
M  V30 19 C -2.2177 -1.4716 2.472 0
M  V30 20 N -0.9169 -1.656 2.9344 0
M  V30 21 C 1.5097 -2.0478 2.5367 0
M  V30 22 O -4.146 0.1106 0.6339 0
M  V30 23 O -4.1456 -1.9806 -0.0589 0 CHG=-1
M  V30 24 O -3.2152 -1.5822 3.1812 0
M  V30 25 C -0.7366 -1.786 4.3879 0
M  V30 26 C -0.3826 -0.4446 5.0471 0
M  V30 27 O -1.4245 0.5013 4.8161 0
M  V30 28 C -1.1684 1.7449 5.4541 0
M  V30 29 H 2.8106 2.5523 -6.4833 0
M  V30 30 H 4.3293 2.7279 -2.4853 0
M  V30 31 H 0.8757 1.2131 -5.7132 0
M  V30 32 H 2.4103 1.3906 -1.674 0
M  V30 33 H -0.3122 0.1442 -4.0506 0
M  V30 34 H 1.4055 -0.8049 -1.7027 0
M  V30 35 H 1.2917 -1.5576 -3.2898 0
M  V30 36 H -0.9577 2.0766 -2.6682 0
M  V30 37 H -0.0091 1.4743 -1.3127 0
M  V30 38 H -1.1135 -2.0196 -2.9494 0
M  V30 39 H -0.1749 -2.7014 -1.6327 0
M  V30 40 H -2.4416 0.0963 -2.5674 0
M  V30 41 H -2.3461 0.9003 -1.0014 0
M  V30 42 H 1.5152 -3.0568 2.9583 0
M  V30 43 H 2.2302 -2.0139 1.7139 0
M  V30 44 H 1.8277 -1.3365 3.3011 0
M  V30 45 H 0.0521 -2.5136 4.5988 0
M  V30 46 H -1.6593 -2.1697 4.8369 0
M  V30 47 H -0.2594 -0.5965 6.1255 0
M  V30 48 H 0.5523 -0.0467 4.64 0
M  V30 49 H -1.9983 2.422 5.2351 0
M  V30 50 H -0.2444 2.1882 5.0708 0
M  V30 51 H -1.1016 1.6124 6.5382 0
M  V30 END ATOM
M  V30 BEGIN BOND
M  V30 1 1 1 2
M  V30 2 2 2 3
M  V30 3 1 2 4
M  V30 4 1 3 5
M  V30 5 2 4 6
M  V30 6 2 5 7
M  V30 7 1 7 8
M  V30 8 1 8 9
M  V30 9 1 8 10
M  V30 10 1 9 11
M  V30 11 1 10 12
M  V30 12 1 11 13
M  V30 13 1 13 14
M  V30 14 1 14 15
M  V30 15 2 14 16
M  V30 16 2 15 17
M  V30 17 1 16 18
M  V30 18 1 16 19
M  V30 19 1 17 20
M  V30 20 1 17 21
M  V30 21 2 18 22
M  V30 22 1 18 23
M  V30 23 2 19 24
M  V30 24 1 20 25
M  V30 25 1 25 26
M  V30 26 1 26 27
M  V30 27 1 27 28
M  V30 28 1 6 7
M  V30 29 1 12 13
M  V30 30 1 19 20
M  V30 31 1 3 29
M  V30 32 1 4 30
M  V30 33 1 5 31
M  V30 34 1 6 32
M  V30 35 1 8 33
M  V30 36 1 9 34
M  V30 37 1 9 35
M  V30 38 1 10 36
M  V30 39 1 10 37
M  V30 40 1 11 38
M  V30 41 1 11 39
M  V30 42 1 12 40
M  V30 43 1 12 41
M  V30 44 1 21 42
M  V30 45 1 21 43
M  V30 46 1 21 44
M  V30 47 1 25 45
M  V30 48 1 25 46
M  V30 49 1 26 47
M  V30 50 1 26 48
M  V30 51 1 28 49
M  V30 52 1 28 50
M  V30 53 1 28 51
M  V30 END BOND
M  V30 END CTAB
M  END
>  <Column 1>
584

>  <level_0>
661

>  <index>
661

>  <Unnamed: 0>
661

>  <NO.>
671

>  <Name>
schembl4414781

>  <IUPAC_name>
6-[4-(4-fluorophenyl)piperidin-1-yl]-3-(2-methoxyethyl)-2-methyl-5-nitropyrimidin-4-one

>  <SMILES>
COCCn1c(C)nc(N2CCC(c3ccc(F)cc3)CC2)c([N+](=O)[O-])c1=O

>  <CID>
10178470

>  <logBB>
0.2

>  <BBB+/BBB->
BBB+

>  <Inchi>
InChI=1S/C19H23FN4O4/c1-13-21-18(17(24(26)27)19(25)23(13)11-12-28-2)22-9-7-15(8-10-22)14-3-5-16(20)6-4-14/h3-6-15H-7-12H2-1-2H3

>  <threshold>


>  <reference>
R47|

>  <group>
A

>  <Class>
1

>  <ABC>
21.48

>  <ABCGG>
16.81

>  <nAcid>
0

>  <nBase>
0

>  <nAromAtom>
12

>  <nAromBond>
12

>  <nAtom>
51

>  <nHeavyAtom>
28

>  <nSpiro>
0

>  <nBridgehead>
0

>  <nHetero>
9

>  <nN>
4

>  <nO>
4

>  <nF>
1

>  <BalabanJ>
1.59

>  <BertzCT>
905.39

>  <nBonds>
53

>  <nBondsO>
30

>  <nBondsS>
39

>  <nBondsD>
2

>  <nBondsT>
0

>  <nBondsA>
12

>  <nBondsM>
14

>  <nBondsKS>
46

>  <nBondsKD>
7

>  <RNCG>
0.15

>  <RPCG>
0.15

>  <FCSP3>
0.47

>  <SZ>
34.33

>  <Sm>
32.5

>  <Sv>
31.77

>  <Sse>
52.14

>  <Sp>
33.07

>  <Si>
58.32

>  <MZ>
0.67

>  <Mm>
0.64

>  <Mv>
0.62

>  <Mse>
1.02

>  <Mp>
0.65

>  <Mi>
1.14

>  <NsCH3>
2

>  <NdCH2>
0

>  <NssCH2>
6

>  <NtCH>
0

>  <NdsCH>
0

>  <NaaCH>
4

>  <NsssCH>
1

>  <NddC>
0

>  <NtsC>
0

>  <NdssC>
0

>  <NaasC>
5

>  <NaaaC>
0

>  <NssssC>
0

>  <NsNH3>
0

>  <NsNH2>
0

>  <NssNH2>
0

>  <NdNH>
0

>  <NssNH>
0

>  <NaaNH>
0

>  <NtN>
0

>  <NsssNH>
0

>  <NdsN>
0

>  <NaaN>
1

>  <NsssN>
1

>  <NddsN>
1

>  <NaasN>
1

>  <NssssN>
0

>  <NsOH>
0

>  <NdO>
2

>  <NssO>
1

>  <NaaO>
0

>  <NsF>
1

>  <NsSiH3>
0

>  <NssSiH2>
0

>  <NsssSiH>
0

>  <NssssSi>
0

>  <NsPH2>
0

>  <NssPH>
0

>  <NsssP>
0

>  <NdsssP>
0

>  <NsssssP>
0

>  <NsSH>
0

>  <NdS>
0

>  <NssS>
0

>  <NaaS>
0

>  <NdssS>
0

>  <NddssS>
0

>  <NsCl>
0

>  <NsBr>
0

>  <NsI>
0

>  <fragCpx>
144.09

>  <fMF>
0.35

>  <nHBAcc>
7

>  <nHBDon>
0

>  <Kier1>
22.68

>  <Kier2>
10.35

>  <Lipinski>
1

>  <GhoseFilter>
1

>  <FilterItLogS>
-4.68

>  <VMcGowan>
281.05

>  <LabuteASA>
161.27

>  <PEOE_VSA1>
9.64

>  <PEOE_VSA2>
19.48

>  <PEOE_VSA3>
9.37

>  <PEOE_VSA4>
0

>  <PEOE_VSA5>
0

>  <PEOE_VSA6>
12.13

>  <PEOE_VSA7>
43.38

>  <PEOE_VSA8>
20.2

>  <PEOE_VSA9>
18.07

>  <PEOE_VSA10>
11.64

>  <PEOE_VSA11>
0

>  <PEOE_VSA12>
5.82

>  <PEOE_VSA13>
0

>  <SMR_VSA1>
14.05

>  <SMR_VSA2>
0

>  <SMR_VSA3>
9.55

>  <SMR_VSA4>
0

>  <SMR_VSA5>
32.23

>  <SMR_VSA6>
31.71

>  <SMR_VSA7>
61.94

>  <SMR_VSA8>
0

>  <SMR_VSA9>
0

>  <SlogP_VSA1>
10.46

>  <SlogP_VSA2>
41.28

>  <SlogP_VSA3>
11.28

>  <SlogP_VSA4>
22.86

>  <SlogP_VSA5>
30.15

>  <SlogP_VSA6>
29.06

>  <SlogP_VSA7>
0

>  <SlogP_VSA8>
0

>  <SlogP_VSA9>
0

>  <SlogP_VSA10>
15.9

>  <SlogP_VSA11>
0

>  <EState_VSA1>
16.17

>  <EState_VSA2>
30.7

>  <EState_VSA3>
18.91

>  <EState_VSA4>
18.41

>  <EState_VSA5>
23.81

>  <EState_VSA6>
23.96

>  <EState_VSA7>
0

>  <EState_VSA8>
4.98

>  <EState_VSA9>
4.74

>  <EState_VSA10>
19.3

>  <VSA_EState1>
19.37

>  <VSA_EState2>
29.81

>  <VSA_EState3>
11.6

>  <VSA_EState4>
-0.11

>  <VSA_EState5>
0.52

>  <VSA_EState6>
6.43

>  <VSA_EState7>
1.49

>  <VSA_EState8>
3.22

>  <VSA_EState9>
1.5

>  <apol>
55.23

>  <bpol>
32.52

>  <nRing>
3

>  <nHRing>
2

>  <naRing>
2

>  <naHRing>
1

>  <nARing 2>
1

>  <nAHRing 2>
1

>  <nFRing>
0

>  <nFHRing>
0

>  <nFaRing>
0

>  <nFaHRing>
0

>  <nFARing 2>
0

>  <nFAHRing 2>
0

>  <nRot>
6

>  <SLogP>
2.63

>  <SMR>
102.35

>  <TopoPSA(NO)>
90.5

>  <TopoPSA>
90.5

>  <JGI1>
0.18

>  <JGI2>
0.09

>  <JGI3>
0.05

>  <JGI4>
0.05

>  <JGI5>
0.04

>  <Diameter>
16

>  <Radius>
8

>  <TMWC10>
134.5

>  <TSRW10>
63.38

>  <MW>
390.17

>  <AMW>
7.65

>  <WPath>
2148

>  <WPol>
47

>  <Zagreb1>
144

>  <Zagreb2>
170

>  <mZagreb2>
6.28

>  <yes>


>  <nAR-cont>
0.816016

>  <nHA-cont>
0.82432561

>  <MWHBN>
0.35438155

>  <MWHBN-cont>
0.653779174

>  <TPSA-cont>
0.368253803

>  <pka_cont>
0.97

>  <yes.1>


>  <BBB_SCORE>
3.842517977

>  <MMFF94 Energy>
12.632

$$$$
Compound 472
Actelion Java MolfileCreator 2.0

  0  0  0  0  0  0              0 V3000
M  V30 BEGIN CTAB
M  V30 COUNTS 39 42 0 0 0
M  V30 BEGIN ATOM
M  V30 1 O 1.7672 1.2046 0.7226 0
M  V30 2 C 1.3586 -0.0927 0.9117 0
M  V30 3 C 1.6184 1.4353 -0.7022 0
M  V30 4 C 1.4757 -0.7932 2.1035 0
M  V30 5 C 0.7352 -0.636 -0.2003 0
M  V30 6 C 0.7138 0.3415 -1.3194 0
M  V30 7 C 1.1095 2.8507 -0.9434 0
M  V30 8 O 2.111 -0.156 3.13 0
M  V30 9 C 0.9294 -2.0803 2.1456 0
M  V30 10 C 0.1329 -1.8862 -0.1591 0
M  V30 11 C -0.7053 0.729 -1.6617 0
M  V30 12 C -0.3805 2.9855 -0.6379 0
M  V30 13 C 2.2282 -0.863 4.3563 0
M  V30 14 C 0.2569 -2.6175 1.0293 0
M  V30 15 C -0.6789 -2.3841 -1.3296 0
M  V30 16 C -1.1972 1.94 -1.3357 0
M  V30 17 C -1.5097 -0.3129 -2.4087 0
M  V30 18 O -0.8061 4.26 -1.1094 0
M  V30 19 N -1.833 -1.5507 -1.6966 0
M  V30 20 C -2.7802 -1.3524 -0.6054 0
M  V30 21 H 2.6305 1.3531 -1.1227 0
M  V30 22 H 1.2102 -0.0579 -2.2123 0
M  V30 23 H 1.2949 3.1317 -1.9892 0
M  V30 24 H 1.6664 3.571 -0.3312 0
M  V30 25 H 0.9843 -2.6903 3.0415 0
M  V30 26 H -0.5614 2.9436 0.4421 0
M  V30 27 H 1.2432 -1.0879 4.7787 0
M  V30 28 H 2.7546 -0.2175 5.0661 0
M  V30 29 H 2.8223 -1.7743 4.2316 0
M  V30 30 H -0.1921 -3.6054 1.1123 0
M  V30 31 H -0.0149 -2.512 -2.1946 0
M  V30 32 H -1.0465 -3.3951 -1.1099 0
M  V30 33 H -2.2293 2.185 -1.5707 0
M  V30 34 H -2.4471 0.1322 -2.7693 0
M  V30 35 H -0.967 -0.5685 -3.3288 0
M  V30 36 H -1.679 4.4285 -0.7164 0
M  V30 37 H -3.6986 -0.8839 -0.9772 0
M  V30 38 H -2.3857 -0.7244 0.2003 0
M  V30 39 H -3.0785 -2.3147 -0.1742 0
M  V30 END ATOM
M  V30 BEGIN BOND
M  V30 1 1 1 2
M  V30 2 1 1 3
M  V30 3 2 2 4
M  V30 4 1 2 5
M  V30 5 1 3 6
M  V30 6 1 3 7
M  V30 7 1 4 8
M  V30 8 1 4 9
M  V30 9 2 5 10
M  V30 10 1 6 11
M  V30 11 1 7 12
M  V30 12 1 8 13
M  V30 13 2 9 14
M  V30 14 1 10 15
M  V30 15 2 11 16
M  V30 16 1 11 17
M  V30 17 1 12 18
M  V30 18 1 15 19
M  V30 19 1 19 20
M  V30 20 1 5 6
M  V30 21 1 10 14
M  V30 22 1 12 16
M  V30 23 1 17 19
M  V30 24 1 3 21
M  V30 25 1 6 22
M  V30 26 1 7 23
M  V30 27 1 7 24
M  V30 28 1 9 25
M  V30 29 1 12 26
M  V30 30 1 13 27
M  V30 31 1 13 28
M  V30 32 1 13 29
M  V30 33 1 14 30
M  V30 34 1 15 31
M  V30 35 1 15 32
M  V30 36 1 16 33
M  V30 37 1 17 34
M  V30 38 1 17 35
M  V30 39 1 18 36
M  V30 40 1 20 37
M  V30 41 1 20 38
M  V30 42 1 20 39
M  V30 END BOND
M  V30 END CTAB
M  END
>  <Column 1>
585

>  <level_0>
662

>  <index>
662

>  <Unnamed: 0>
662

>  <NO.>
672

>  <Name>
schembl10031243

>  <IUPAC_name>
12-methoxy-7-methyl-16-oxa-7-azatetracyclo[11.2.1.05-15.09-14]hexadeca-4-9(14)-10-12-tetraen-3-ol

>  <SMILES>
COc1ccc2c3c1OC1CC(O)C=C(CN(C)C2)C31

>  <CID>
59664531

>  <logBB>
0.2

>  <BBB+/BBB->
BBB+

>  <Inchi>
InChI=1S/C16H19NO3/c1-17-7-9-3-4-12(19-2)16-15(9)14-10(8-17)5-11(18)6-13(14)20-16/h3-5-11-13-14-18H-6-8H2-1-2H3

>  <threshold>


>  <reference>
R2|R2|R25|R27|R46|

>  <group>
A

>  <Class>
1

>  <ABC>
16.24

>  <ABCGG>
12.96

>  <nAcid>
0

>  <nBase>
1

>  <nAromAtom>
6

>  <nAromBond>
6

>  <nAtom>
39

>  <nHeavyAtom>
20

>  <nSpiro>
0

>  <nBridgehead>
0

>  <nHetero>
4

>  <nN>
1

>  <nO>
3

>  <nF>
0

>  <BalabanJ>
1.69

>  <BertzCT>
595.63

>  <nBonds>
42

>  <nBondsO>
23

>  <nBondsS>
35

>  <nBondsD>
1

>  <nBondsT>
0

>  <nBondsA>
6

>  <nBondsM>
7

>  <nBondsKS>
38

>  <nBondsKD>
4

>  <RNCG>
0.26

>  <RPCG>
0.11

>  <FCSP3>
0.5

>  <SZ>
24.33

>  <Sm>
22.76

>  <Sv>
24.05

>  <Sse>
39.09

>  <Sp>
25.69

>  <Si>
43.86

>  <MZ>
0.62

>  <Mm>
0.58

>  <Mv>
0.62

>  <Mse>
1

>  <Mp>
0.66

>  <Mi>
1.12

>  <NsCH3>
2

>  <NdCH2>
0

>  <NssCH2>
3

>  <NtCH>
0

>  <NdsCH>
1

>  <NaaCH>
2

>  <NsssCH>
3

>  <NddC>
0

>  <NtsC>
0

>  <NdssC>
1

>  <NaasC>
4

>  <NaaaC>
0

>  <NssssC>
0

>  <NsNH3>
0

>  <NsNH2>
0

>  <NssNH2>
0

>  <NdNH>
0

>  <NssNH>
0

>  <NaaNH>
0

>  <NtN>
0

>  <NsssNH>
0

>  <NdsN>
0

>  <NaaN>
0

>  <NsssN>
1

>  <NddsN>
0

>  <NaasN>
0

>  <NssssN>
0

>  <NsOH>
1

>  <NdO>
0

>  <NssO>
2

>  <NaaO>
0

>  <NsF>
0

>  <NsSiH3>
0

>  <NssSiH2>
0

>  <NsssSiH>
0

>  <NssssSi>
0

>  <NsPH2>
0

>  <NssPH>
0

>  <NsssP>
0

>  <NdsssP>
0

>  <NsssssP>
0

>  <NsSH>
0

>  <NdS>
0

>  <NssS>
0

>  <NaaS>
0

>  <NdssS>
0

>  <NddssS>
0

>  <NsCl>
0

>  <NsBr>
0

>  <NsI>
0

>  <fragCpx>
149.04

>  <fMF>
0.41

>  <nHBAcc>
4

>  <nHBDon>
1

>  <Kier1>
13.65

>  <Kier2>
5.03

>  <Lipinski>
1

>  <GhoseFilter>
1

>  <FilterItLogS>
-2.38

>  <VMcGowan>
203.25

>  <LabuteASA>
118.15

>  <PEOE_VSA1>
14.58

>  <PEOE_VSA2>
4.9

>  <PEOE_VSA3>
0

>  <PEOE_VSA4>
0

>  <PEOE_VSA5>
0

>  <PEOE_VSA6>
12.14

>  <PEOE_VSA7>
24.25

>  <PEOE_VSA8>
30.99

>  <PEOE_VSA9>
13.21

>  <PEOE_VSA10>
6.1

>  <PEOE_VSA11>
11.5

>  <PEOE_VSA12>
0

>  <PEOE_VSA13>
0

>  <SMR_VSA1>
14.58

>  <SMR_VSA2>
0

>  <SMR_VSA3>
4.9

>  <SMR_VSA4>
0

>  <SMR_VSA5>
31.09

>  <SMR_VSA6>
20.7

>  <SMR_VSA7>
34.91

>  <SMR_VSA8>
0

>  <SMR_VSA9>
11.5

>  <SlogP_VSA1>
9.47

>  <SlogP_VSA2>
42.92

>  <SlogP_VSA3>
6.54

>  <SlogP_VSA4>
0

>  <SlogP_VSA5>
23.47

>  <SlogP_VSA6>
23.78

>  <SlogP_VSA7>
0

>  <SlogP_VSA8>
0

>  <SlogP_VSA9>
0

>  <SlogP_VSA10>
0

>  <SlogP_VSA11>
11.5

>  <EState_VSA1>
6.1

>  <EState_VSA2>
12.02

>  <EState_VSA3>
6.42

>  <EState_VSA4>
24.59

>  <EState_VSA5>
16.7

>  <EState_VSA6>
7.11

>  <EState_VSA7>
12.14

>  <EState_VSA8>
18.01

>  <EState_VSA9>
9.47

>  <EState_VSA10>
5.11

>  <VSA_EState1>
11.59

>  <VSA_EState2>
2.29

>  <VSA_EState3>
10.06

>  <VSA_EState4>
3.87

>  <VSA_EState5>
1.97

>  <VSA_EState6>
4.14

>  <VSA_EState7>
2.32

>  <VSA_EState8>
1.8

>  <VSA_EState9>
3.8

>  <apol>
42.9

>  <bpol>
24.24

>  <nRing>
4

>  <nHRing>
2

>  <naRing>
1

>  <naHRing>
0

>  <nARing 2>
3

>  <nAHRing 2>
2

>  <nFRing>
1

>  <nFHRing>
1

>  <nFaRing>
0

>  <nFaHRing>
0

>  <nFARing 2>
1

>  <nFAHRing 2>
1

>  <nRot>
1

>  <SLogP>
1.68

>  <SMR>
75.19

>  <TopoPSA(NO)>
41.93

>  <TopoPSA>
41.93

>  <JGI1>
0.2

>  <JGI2>
0.06

>  <JGI3>
0.05

>  <JGI4>
0.05

>  <JGI5>
0.03

>  <Diameter>
8

>  <Radius>
5

>  <TMWC10>
119.44

>  <TSRW10>
69.2

>  <MW>
273.14

>  <AMW>
7

>  <WPath>
674

>  <WPol>
40

>  <Zagreb1>
116

>  <Zagreb2>
144

>  <mZagreb2>
4.25

>  <yes>


>  <nAR-cont>
0.691115

>  <nHA-cont>
0.999629945

>  <MWHBN>
0.302536203

>  <MWHBN-cont>
0.833095611

>  <TPSA-cont>
0.707302563

>  <pka_cont>
0.97

>  <yes.1>


>  <BBB_SCORE>
4.839993488

>  <MMFF94 Energy>
46.167

$$$$
Compound 473
Actelion Java MolfileCreator 2.0

  0  0  0  0  0  0              0 V3000
M  V30 BEGIN CTAB
M  V30 COUNTS 12 11 0 0 0
M  V30 BEGIN ATOM
M  V30 1 Cl 1.0304 -1.6319 -2.1476 0
M  V30 2 C 0.2433 -1.7297 -0.5491 0 CFG=1
M  V30 3 F 1.1568 -2.1792 0.3566 0
M  V30 4 C -0.349 -0.3879 -0.101 0
M  V30 5 F -1.0166 -0.5487 1.071 0
M  V30 6 F -1.2725 0.0431 -1.0022 0
M  V30 7 O 0.6129 0.6308 0.0516 0
M  V30 8 C 0.0039 1.7609 0.6148 0
M  V30 9 F 0.0033 1.6118 1.9594 0
M  V30 10 F 0.8064 2.8187 0.3424 0
M  V30 11 H -0.5473 -2.4817 -0.6209 0
M  V30 12 H -1.005 1.9795 0.2493 0
M  V30 END ATOM
M  V30 BEGIN BOND
M  V30 1 1 1 2
M  V30 2 1 2 3
M  V30 3 1 2 4
M  V30 4 1 4 5
M  V30 5 1 4 6
M  V30 6 1 4 7
M  V30 7 1 7 8
M  V30 8 1 8 9
M  V30 9 1 8 10
M  V30 10 1 2 11
M  V30 11 1 8 12
M  V30 END BOND
M  V30 BEGIN COLLECTION
M  V30 MDLV30/STEABS ATOMS=(1 2)
M  V30 END COLLECTION
M  V30 END CTAB
M  END
>  <Column 1>
587

>  <level_0>
664

>  <index>
664

>  <Unnamed: 0>
664

>  <NO.>
674

>  <Name>
(r)-enflurane

>  <IUPAC_name>
(2r)-2-chloro-1-(difluoromethoxy)-1-1-2-trifluoroethane

>  <SMILES>
FC(F)OC(F)(F)[C@H](F)Cl

>  <CID>
11052326

>  <logBB>
0.2

>  <BBB+/BBB->
BBB+

>  <Inchi>
InChI=1S/C3H2ClF5O/c4-1(5)3(8-9)10-2(6)7/h1-2H/t1-/m0/s1

>  <threshold>


>  <reference>
R5|R48|

>  <group>
A

>  <Class>
1

>  <ABC>
7.06

>  <ABCGG>
7.47

>  <nAcid>
0

>  <nBase>
0

>  <nAromAtom>
0

>  <nAromBond>
0

>  <nAtom>
12

>  <nHeavyAtom>
10

>  <nSpiro>
0

>  <nBridgehead>
0

>  <nHetero>
7

>  <nN>
0

>  <nO>
1

>  <nF>
5

>  <BalabanJ>
3.87

>  <BertzCT>
105.07

>  <nBonds>
11

>  <nBondsO>
9

>  <nBondsS>
11

>  <nBondsD>
0

>  <nBondsT>
0

>  <nBondsA>
0

>  <nBondsM>
0

>  <nBondsKS>
11

>  <nBondsKD>
0

>  <RNCG>
0.2

>  <RPCG>
0.32

>  <FCSP3>
1

>  <SZ>
15

>  <Sm>
15.36

>  <Sv>
8.58

>  <Sse>
14.77

>  <Sp>
7.25

>  <Si>
15.51

>  <MZ>
1.25

>  <Mm>
1.28

>  <Mv>
0.72

>  <Mse>
1.23

>  <Mp>
0.6

>  <Mi>
1.29

>  <NsCH3>
0

>  <NdCH2>
0

>  <NssCH2>
0

>  <NtCH>
0

>  <NdsCH>
0

>  <NaaCH>
0

>  <NsssCH>
2

>  <NddC>
0

>  <NtsC>
0

>  <NdssC>
0

>  <NaasC>
0

>  <NaaaC>
0

>  <NssssC>
1

>  <NsNH3>
0

>  <NsNH2>
0

>  <NssNH2>
0

>  <NdNH>
0

>  <NssNH>
0

>  <NaaNH>
0

>  <NtN>
0

>  <NsssNH>
0

>  <NdsN>
0

>  <NaaN>
0

>  <NsssN>
0

>  <NddsN>
0

>  <NaasN>
0

>  <NssssN>
0

>  <NsOH>
0

>  <NdO>
0

>  <NssO>
1

>  <NaaO>
0

>  <NsF>
5

>  <NsSiH3>
0

>  <NssSiH2>
0

>  <NsssSiH>
0

>  <NssssSi>
0

>  <NsPH2>
0

>  <NssPH>
0

>  <NsssP>
0

>  <NdsssP>
0

>  <NsssssP>
0

>  <NsSH>
0

>  <NdS>
0

>  <NssS>
0

>  <NaaS>
0

>  <NdssS>
0

>  <NddssS>
0

>  <NsCl>
1

>  <NsBr>
0

>  <NsI>
0

>  <fragCpx>
9.07

>  <fMF>
0

>  <nHBAcc>
1

>  <nHBDon>
0

>  <Kier1>
10

>  <Kier2>
3.41

>  <Lipinski>
1

>  <GhoseFilter>
0

>  <FilterItLogS>
-1.78

>  <VMcGowan>
80.04

>  <LabuteASA>
57.71

>  <PEOE_VSA1>
0

>  <PEOE_VSA2>
4.74

>  <PEOE_VSA3>
4.39

>  <PEOE_VSA4>
17.56

>  <PEOE_VSA5>
0

>  <PEOE_VSA6>
11.6

>  <PEOE_VSA7>
0

>  <PEOE_VSA8>
0

>  <PEOE_VSA9>
0

>  <PEOE_VSA10>
0

>  <PEOE_VSA11>
0

>  <PEOE_VSA12>
0

>  <PEOE_VSA13>
5.63

>  <SMR_VSA1>
26.69

>  <SMR_VSA2>
0

>  <SMR_VSA3>
0

>  <SMR_VSA4>
0

>  <SMR_VSA5>
18.35

>  <SMR_VSA6>
0

>  <SMR_VSA7>
0

>  <SMR_VSA8>
0

>  <SMR_VSA9>
0

>  <SlogP_VSA1>
0

>  <SlogP_VSA2>
18.35

>  <SlogP_VSA3>
4.74

>  <SlogP_VSA4>
0

>  <SlogP_VSA5>
0

>  <SlogP_VSA6>
0

>  <SlogP_VSA7>
0

>  <SlogP_VSA8>
0

>  <SlogP_VSA9>
0

>  <SlogP_VSA10>
21.95

>  <SlogP_VSA11>
0

>  <EState_VSA1>
18.35

>  <EState_VSA2>
0

>  <EState_VSA3>
0

>  <EState_VSA4>
0

>  <EState_VSA5>
0

>  <EState_VSA6>
0

>  <EState_VSA7>
0

>  <EState_VSA8>
16.34

>  <EState_VSA9>
0

>  <EState_VSA10>
21.95

>  <VSA_EState1>
59.02

>  <VSA_EState2>
0

>  <VSA_EState3>
0

>  <VSA_EState4>
-3.26

>  <VSA_EState5>
0

>  <VSA_EState6>
0

>  <VSA_EState7>
-4.63

>  <VSA_EState8>
-3.74

>  <VSA_EState9>
0

>  <apol>
12.11

>  <bpol>
9.82

>  <nRing>
0

>  <nHRing>
0

>  <naRing>
0

>  <naHRing>
0

>  <nARing 2>
0

>  <nAHRing 2>
0

>  <nFRing>
0

>  <nFHRing>
0

>  <nFaRing>
0

>  <nFaHRing>
0

>  <nFARing 2>
0

>  <nFAHRing 2>
0

>  <nRot>
3

>  <SLogP>
2.35

>  <SMR>
22.79

>  <TopoPSA(NO)>
9.23

>  <TopoPSA>
9.23

>  <JGI1>
0.5

>  <JGI2>
0.14

>  <JGI3>
0.07

>  <JGI4>
0.04

>  <JGI5>
0

>  <Diameter>
5

>  <Radius>
3

>  <TMWC10>
81.98

>  <TSRW10>
39.16

>  <MW>
183.97

>  <AMW>
15.33

>  <WPath>
120

>  <WPol>
11

>  <Zagreb1>
44

>  <Zagreb2>
46

>  <mZagreb2>
2.21

>  <yes>


>  <nAR-cont>
0.336376

>  <nHA-cont>
0.645914733

>  <MWHBN>
0.073726989

>  <MWHBN-cont>
0.561339483

>  <TPSA-cont>
0.935568869

>  <pka_cont>
0.97

>  <yes.1>


>  <BBB_SCORE>
4.180437695

>  <MMFF94 Energy>
-6.4859

$$$$
Compound 474
Actelion Java MolfileCreator 2.0

  0  0  0  0  0  0              0 V3000
M  V30 BEGIN CTAB
M  V30 COUNTS 18 18 0 0 0
M  V30 BEGIN ATOM
M  V30 1 C 0.2324 0.8524 -0.8524 0
M  V30 2 C 0.0292 0.5818 0.5078 0
M  V30 3 C 0.2115 -0.2054 -1.7677 0
M  V30 4 C 0.5318 2.2486 -1.3116 0
M  V30 5 C -0.2276 -0.7228 0.951 0
M  V30 6 C -0.0288 -1.5088 -1.3333 0
M  V30 7 C -0.2445 -1.7673 0.0202 0
M  V30 8 C -0.4179 -1.0041 2.4121 0
M  V30 9 H 0.0698 1.3958 1.2293 0
M  V30 10 H 0.3858 -0.0207 -2.8251 0
M  V30 11 H 0.0259 2.9849 -0.678 0
M  V30 12 H 1.6102 2.4312 -1.2753 0
M  V30 13 H 0.1803 2.4071 -2.3366 0
M  V30 14 H -0.0426 -2.3254 -2.0502 0
M  V30 15 H -0.4228 -2.7898 0.3446 0
M  V30 16 H -1.0691 -1.8718 2.5617 0
M  V30 17 H 0.5493 -1.2021 2.8841 0
M  V30 18 H -0.8905 -0.1538 2.915 0
M  V30 END ATOM
M  V30 BEGIN BOND
M  V30 1 2 1 2
M  V30 2 1 1 3
M  V30 3 1 1 4
M  V30 4 1 2 5
M  V30 5 2 3 6
M  V30 6 2 5 7
M  V30 7 1 5 8
M  V30 8 1 6 7
M  V30 9 1 2 9
M  V30 10 1 3 10
M  V30 11 1 4 11
M  V30 12 1 4 12
M  V30 13 1 4 13
M  V30 14 1 6 14
M  V30 15 1 7 15
M  V30 16 1 8 16
M  V30 17 1 8 17
M  V30 18 1 8 18
M  V30 END BOND
M  V30 END CTAB
M  END
>  <Column 1>
588

>  <level_0>
665

>  <index>
665

>  <Unnamed: 0>
665

>  <NO.>
676

>  <Name>
m-xylene

>  <IUPAC_name>
1-3-xylene

>  <SMILES>
Cc1cccc(C)c1

>  <CID>
7929

>  <logBB>
0.2

>  <BBB+/BBB->
BBB+

>  <Inchi>
InChI=1S/C8H10/c1-7-4-3-5-8(2)6-7/h3-6H-1-2H3

>  <threshold>


>  <reference>
R3|R25|R38|R41|R46|R47|R40|R2|R2|R27|R8|R21|R27|R44|R12|R35|R5|R39|

>  <group>
A

>  <Class>
1

>  <ABC>
5.88

>  <ABCGG>
5.57

>  <nAcid>
0

>  <nBase>
0

>  <nAromAtom>
6

>  <nAromBond>
6

>  <nAtom>
18

>  <nHeavyAtom>
8

>  <nSpiro>
0

>  <nBridgehead>
0

>  <nHetero>
0

>  <nN>
0

>  <nO>
0

>  <nF>
0

>  <BalabanJ>
2.23

>  <BertzCT>
159.9

>  <nBonds>
18

>  <nBondsO>
8

>  <nBondsS>
12

>  <nBondsD>
0

>  <nBondsT>
0

>  <nBondsA>
6

>  <nBondsM>
6

>  <nBondsKS>
15

>  <nBondsKD>
3

>  <RNCG>
0.15

>  <RPCG>
0.15

>  <FCSP3>
0.25

>  <SZ>
9.67

>  <Sm>
8.84

>  <Sv>
10.71

>  <Sse>
17.44

>  <Sp>
11.99

>  <Si>
20.08

>  <MZ>
0.54

>  <Mm>
0.49

>  <Mv>
0.59

>  <Mse>
0.97

>  <Mp>
0.67

>  <Mi>
1.12

>  <NsCH3>
2

>  <NdCH2>
0

>  <NssCH2>
0

>  <NtCH>
0

>  <NdsCH>
0

>  <NaaCH>
4

>  <NsssCH>
0

>  <NddC>
0

>  <NtsC>
0

>  <NdssC>
0

>  <NaasC>
2

>  <NaaaC>
0

>  <NssssC>
0

>  <NsNH3>
0

>  <NsNH2>
0

>  <NssNH2>
0

>  <NdNH>
0

>  <NssNH>
0

>  <NaaNH>
0

>  <NtN>
0

>  <NsssNH>
0

>  <NdsN>
0

>  <NaaN>
0

>  <NsssN>
0

>  <NddsN>
0

>  <NaasN>
0

>  <NssssN>
0

>  <NsOH>
0

>  <NdO>
0

>  <NssO>
0

>  <NaaO>
0

>  <NsF>
0

>  <NsSiH3>
0

>  <NssSiH2>
0

>  <NsssSiH>
0

>  <NssssSi>
0

>  <NsPH2>
0

>  <NssPH>
0

>  <NsssP>
0

>  <NdsssP>
0

>  <NsssssP>
0

>  <NsSH>
0

>  <NdS>
0

>  <NssS>
0

>  <NaaS>
0

>  <NdssS>
0

>  <NddssS>
0

>  <NsCl>
0

>  <NsBr>
0

>  <NsI>
0

>  <fragCpx>
8

>  <fMF>
0.33

>  <nHBAcc>
0

>  <nHBDon>
0

>  <Kier1>
6.13

>  <Kier2>
2.52

>  <Lipinski>
1

>  <GhoseFilter>
0

>  <FilterItLogS>
-2.5

>  <VMcGowan>
99.82

>  <LabuteASA>
50.16

>  <PEOE_VSA1>
0

>  <PEOE_VSA2>
0

>  <PEOE_VSA3>
0

>  <PEOE_VSA4>
0

>  <PEOE_VSA5>
0

>  <PEOE_VSA6>
35.39

>  <PEOE_VSA7>
13.85

>  <PEOE_VSA8>
0

>  <PEOE_VSA9>
0

>  <PEOE_VSA10>
0

>  <PEOE_VSA11>
0

>  <PEOE_VSA12>
0

>  <PEOE_VSA13>
0

>  <SMR_VSA1>
0

>  <SMR_VSA2>
0

>  <SMR_VSA3>
0

>  <SMR_VSA4>
0

>  <SMR_VSA5>
13.85

>  <SMR_VSA6>
0

>  <SMR_VSA7>
35.39

>  <SMR_VSA8>
0

>  <SMR_VSA9>
0

>  <SlogP_VSA1>
0

>  <SlogP_VSA2>
0

>  <SlogP_VSA3>
0

>  <SlogP_VSA4>
13.85

>  <SlogP_VSA5>
11.13

>  <SlogP_VSA6>
24.27

>  <SlogP_VSA7>
0

>  <SlogP_VSA8>
0

>  <SlogP_VSA9>
0

>  <SlogP_VSA10>
0

>  <SlogP_VSA11>
0

>  <EState_VSA1>
0

>  <EState_VSA2>
0

>  <EState_VSA3>
0

>  <EState_VSA4>
0

>  <EState_VSA5>
11.13

>  <EState_VSA6>
0

>  <EState_VSA7>
0

>  <EState_VSA8>
38.11

>  <EState_VSA9>
0

>  <EState_VSA10>
0

>  <VSA_EState1>
0

>  <VSA_EState2>
0

>  <VSA_EState3>
0

>  <VSA_EState4>
2.68

>  <VSA_EState5>
0

>  <VSA_EState6>
8.45

>  <VSA_EState7>
0

>  <VSA_EState8>
4.21

>  <VSA_EState9>
0

>  <apol>
20.03

>  <bpol>
10.03

>  <nRing>
1

>  <nHRing>
0

>  <naRing>
1

>  <naHRing>
0

>  <nARing 2>
0

>  <nAHRing 2>
0

>  <nFRing>
0

>  <nFHRing>
0

>  <nFaRing>
0

>  <nFaHRing>
0

>  <nFARing 2>
0

>  <nFAHRing 2>
0

>  <nRot>
0

>  <SLogP>
2.3

>  <SMR>
35.92

>  <TopoPSA(NO)>
0

>  <TopoPSA>
0

>  <JGI1>
0.25

>  <JGI2>
0.07

>  <JGI3>
0.07

>  <JGI4>
0.07

>  <JGI5>
0

>  <Diameter>
4

>  <Radius>
3

>  <TMWC10>
76.15

>  <TSRW10>
35.76

>  <MW>
106.08

>  <AMW>
5.89

>  <WPath>
61

>  <WPol>
7

>  <Zagreb1>
36

>  <Zagreb2>
38

>  <mZagreb2>
1.83

>  <yes>


>  <nAR-cont>
0.336376

>  <nHA-cont>
0.464727961

>  <MWHBN>
0

>  <MWHBN-cont>
0

>  <TPSA-cont>
0

>  <pka_cont>
0.97

>  <yes.1>


>  <BBB_SCORE>
1.286103961

>  <MMFF94 Energy>
20.616

$$$$
Compound 475
Actelion Java MolfileCreator 2.0

  0  0  0  0  0  0              0 V3000
M  V30 BEGIN CTAB
M  V30 COUNTS 21 20 0 0 0
M  V30 BEGIN ATOM
M  V30 1 O 0.5318 -0.3038 0.5318 0
M  V30 2 C -0.096 0.8086 -0.1227 0
M  V30 3 C 0.0888 -1.6065 0.1673 0
M  V30 4 C 0.1506 0.7857 -1.6356 0
M  V30 5 C 0.5808 2.0532 0.4692 0
M  V30 6 C -1.5968 0.8705 0.1846 0
M  V30 7 C 0.8836 -2.6139 0.9774 0
M  V30 8 H 0.2614 -1.7878 -0.897 0
M  V30 9 H -0.9748 -1.7278 0.3907 0
M  V30 10 H -0.3902 -0.0343 -2.1192 0
M  V30 11 H -0.1774 1.7176 -2.1086 0
M  V30 12 H 1.2139 0.6383 -1.8551 0
M  V30 13 H 1.6623 2.03 0.2911 0
M  V30 14 H 0.18 2.9781 0.0414 0
M  V30 15 H 0.4471 2.089 1.5567 0
M  V30 16 H -2.1403 0.0505 -0.2963 0
M  V30 17 H -1.7783 0.7836 1.2617 0
M  V30 18 H -2.0393 1.808 -0.1691 0
M  V30 19 H 0.5805 -3.6361 0.7342 0
M  V30 20 H 1.9555 -2.5067 0.7812 0
M  V30 21 H 0.7375 -2.4476 2.0499 0
M  V30 END ATOM
M  V30 BEGIN BOND
M  V30 1 1 1 2
M  V30 2 1 1 3
M  V30 3 1 2 4
M  V30 4 1 2 5
M  V30 5 1 2 6
M  V30 6 1 3 7
M  V30 7 1 3 8
M  V30 8 1 3 9
M  V30 9 1 4 10
M  V30 10 1 4 11
M  V30 11 1 4 12
M  V30 12 1 5 13
M  V30 13 1 5 14
M  V30 14 1 5 15
M  V30 15 1 6 16
M  V30 16 1 6 17
M  V30 17 1 6 18
M  V30 18 1 7 19
M  V30 19 1 7 20
M  V30 20 1 7 21
M  V30 END BOND
M  V30 END CTAB
M  END
>  <Column 1>
589

>  <level_0>
666

>  <index>
666

>  <Unnamed: 0>
666

>  <NO.>
677

>  <Name>
ethyl t-butyl ether

>  <IUPAC_name>
2-ethoxy-2-methylpropane

>  <SMILES>
CCOC(C)(C)C

>  <CID>
12512

>  <logBB>
0.22

>  <BBB+/BBB->
BBB+

>  <Inchi>
InChI=1S/C6H14O/c1-5-7-6(2-3)4/h5H2-1-4H3

>  <threshold>


>  <reference>
R2|R2|R3|R8|R21|R25|R27|R27|R38|R40|R41|R43|R46|R47|

>  <group>
A

>  <Class>
1

>  <ABC>
4.72

>  <ABCGG>
5

>  <nAcid>
0

>  <nBase>
0

>  <nAromAtom>
0

>  <nAromBond>
0

>  <nAtom>
21

>  <nHeavyAtom>
7

>  <nSpiro>
0

>  <nBridgehead>
0

>  <nHetero>
1

>  <nN>
0

>  <nO>
1

>  <nF>
0

>  <BalabanJ>
3.15

>  <BertzCT>
42.63

>  <nBonds>
20

>  <nBondsO>
6

>  <nBondsS>
20

>  <nBondsD>
0

>  <nBondsT>
0

>  <nBondsA>
0

>  <nBondsM>
0

>  <nBondsKS>
20

>  <nBondsKD>
0

>  <RNCG>
0.71

>  <RPCG>
0.11

>  <FCSP3>
1

>  <SZ>
9.67

>  <Sm>
8.51

>  <Sv>
10.51

>  <Sse>
20.55

>  <Sp>
12.07

>  <Si>
24.12

>  <MZ>
0.46

>  <Mm>
0.41

>  <Mv>
0.5

>  <Mse>
0.98

>  <Mp>
0.57

>  <Mi>
1.15

>  <NsCH3>
4

>  <NdCH2>
0

>  <NssCH2>
1

>  <NtCH>
0

>  <NdsCH>
0

>  <NaaCH>
0

>  <NsssCH>
0

>  <NddC>
0

>  <NtsC>
0

>  <NdssC>
0

>  <NaasC>
0

>  <NaaaC>
0

>  <NssssC>
1

>  <NsNH3>
0

>  <NsNH2>
0

>  <NssNH2>
0

>  <NdNH>
0

>  <NssNH>
0

>  <NaaNH>
0

>  <NtN>
0

>  <NsssNH>
0

>  <NdsN>
0

>  <NaaN>
0

>  <NsssN>
0

>  <NddsN>
0

>  <NaasN>
0

>  <NssssN>
0

>  <NsOH>
0

>  <NdO>
0

>  <NssO>
1

>  <NaaO>
0

>  <NsF>
0

>  <NsSiH3>
0

>  <NssSiH2>
0

>  <NsssSiH>
0

>  <NssssSi>
0

>  <NsPH2>
0

>  <NssPH>
0

>  <NsssP>
0

>  <NdsssP>
0

>  <NsssssP>
0

>  <NsSH>
0

>  <NdS>
0

>  <NssS>
0

>  <NaaS>
0

>  <NdssS>
0

>  <NddssS>
0

>  <NsCl>
0

>  <NsBr>
0

>  <NsI>
0

>  <fragCpx>
6.01

>  <fMF>
0

>  <nHBAcc>
1

>  <nHBDon>
0

>  <Kier1>
7

>  <Kier2>
2.34

>  <Lipinski>
1

>  <GhoseFilter>
0

>  <FilterItLogS>
-1.55

>  <VMcGowan>
101.27

>  <LabuteASA>
45.68

>  <PEOE_VSA1>
4.74

>  <PEOE_VSA2>
0

>  <PEOE_VSA3>
0

>  <PEOE_VSA4>
0

>  <PEOE_VSA5>
0

>  <PEOE_VSA6>
0

>  <PEOE_VSA7>
27.69

>  <PEOE_VSA8>
6.61

>  <PEOE_VSA9>
5.6

>  <PEOE_VSA10>
0

>  <PEOE_VSA11>
0

>  <PEOE_VSA12>
0

>  <PEOE_VSA13>
0

>  <SMR_VSA1>
4.74

>  <SMR_VSA2>
0

>  <SMR_VSA3>
0

>  <SMR_VSA4>
0

>  <SMR_VSA5>
33.3

>  <SMR_VSA6>
6.61

>  <SMR_VSA7>
0

>  <SMR_VSA8>
0

>  <SMR_VSA9>
0

>  <SlogP_VSA1>
0

>  <SlogP_VSA2>
12.21

>  <SlogP_VSA3>
4.74

>  <SlogP_VSA4>
0

>  <SlogP_VSA5>
27.69

>  <SlogP_VSA6>
0

>  <SlogP_VSA7>
0

>  <SlogP_VSA8>
0

>  <SlogP_VSA9>
0

>  <SlogP_VSA10>
0

>  <SlogP_VSA11>
0

>  <EState_VSA1>
0

>  <EState_VSA2>
5.6

>  <EState_VSA3>
0

>  <EState_VSA4>
6.61

>  <EState_VSA5>
0

>  <EState_VSA6>
0

>  <EState_VSA7>
6.92

>  <EState_VSA8>
20.77

>  <EState_VSA9>
4.74

>  <EState_VSA10>
0

>  <VSA_EState1>
5.23

>  <VSA_EState2>
0

>  <VSA_EState3>
0

>  <VSA_EState4>
0.05

>  <VSA_EState5>
0

>  <VSA_EState6>
0

>  <VSA_EState7>
0

>  <VSA_EState8>
8.97

>  <VSA_EState9>
0

>  <apol>
20.16

>  <bpol>
15.78

>  <nRing>
0

>  <nHRing>
0

>  <naRing>
0

>  <naHRing>
0

>  <nARing 2>
0

>  <nAHRing 2>
0

>  <nFRing>
0

>  <nFHRing>
0

>  <nFaRing>
0

>  <nFaHRing>
0

>  <nFARing 2>
0

>  <nFAHRing 2>
0

>  <nRot>
1

>  <SLogP>
1.82

>  <SMR>
31.38

>  <TopoPSA(NO)>
9.23

>  <TopoPSA>
9.23

>  <JGI1>
0.5

>  <JGI2>
0.08

>  <JGI3>
0.09

>  <JGI4>
0

>  <JGI5>
0

>  <Diameter>
4

>  <Radius>
2

>  <TMWC10>
69.2

>  <TSRW10>
33.34

>  <MW>
102.1

>  <AMW>
4.86

>  <WPath>
46

>  <WPol>
4

>  <Zagreb1>
28

>  <Zagreb2>
26

>  <mZagreb2>
1.63

>  <yes>


>  <nAR-cont>
0.336376

>  <nHA-cont>
0.357561384

>  <MWHBN>
0.098966253

>  <MWHBN-cont>
0.724928624

>  <TPSA-cont>
0.935568869

>  <pka_cont>
0.97

>  <yes.1>


>  <BBB_SCORE>
4.137468056

>  <MMFF94 Energy>
14.703

$$$$
Compound 476
Actelion Java MolfileCreator 2.0

  0  0  0  0  0  0              0 V3000
M  V30 BEGIN CTAB
M  V30 COUNTS 47 49 0 0 0
M  V30 BEGIN ATOM
M  V30 1 S -1.7678 0.4015 1.2854 0
M  V30 2 C -0.515 -0.5265 0.256 0 CFG=2
M  V30 3 C -0.5372 1.4195 2.2009 0
M  V30 4 C -0.6546 -2.0318 0.5943 0
M  V30 5 C 0.8418 0.0296 0.6815 0
M  V30 6 C -0.7753 -0.1961 -1.2484 0
M  V30 7 C 0.8248 1.0255 1.6739 0
M  V30 8 C -0.8396 2.8981 1.9321 0
M  V30 9 C -0.6767 1.1059 3.6952 0
M  V30 10 C -0.1849 -2.537 1.8267 0
M  V30 11 C -1.2645 -2.9507 -0.2798 0
M  V30 12 C 2.0601 -0.4022 0.1422 0
M  V30 13 C -0.615 1.2757 -1.6819 0
M  V30 14 C 2.0291 1.5841 2.1148 0
M  V30 15 C -0.3046 -3.8893 2.1593 0
M  V30 16 C -1.3846 -4.3047 0.0531 0
M  V30 17 C 3.2548 0.1606 0.5883 0
M  V30 18 C -0.8671 1.4771 -3.1814 0
M  V30 19 C 3.2391 1.1512 1.5707 0
M  V30 20 C -0.9036 -4.7739 1.2707 0
M  V30 21 N 0.1368 0.7776 -3.9837 0
M  V30 22 C -0.0904 0.9897 -5.4067 0
M  V30 23 H -0.0996 -0.8103 -1.8589 0
M  V30 24 H -1.7939 -0.5023 -1.5236 0
M  V30 25 H -0.1541 3.5492 2.4879 0
M  V30 26 H -0.7287 3.1556 0.8724 0
M  V30 27 H -1.8563 3.1667 2.2431 0
M  V30 28 H 0.0236 1.7027 4.2917 0
M  V30 29 H -1.6841 1.3338 4.0639 0
M  V30 30 H -0.4644 0.0536 3.9177 0
M  V30 31 H 0.2861 -1.8752 2.5505 0
M  V30 32 H -1.6651 -2.6401 -1.2407 0
M  V30 33 H 2.0823 -1.1792 -0.6185 0
M  V30 34 H -1.3313 1.9043 -1.1426 0
M  V30 35 H 0.3857 1.6481 -1.436 0
M  V30 36 H 2.0371 2.3545 2.8817 0
M  V30 37 H 0.0691 -4.2463 3.1153 0
M  V30 38 H -1.8598 -4.9915 -0.6427 0
M  V30 39 H 4.2007 -0.176 0.1719 0
M  V30 40 H -0.8353 2.552 -3.3975 0
M  V30 41 H -1.8717 1.1156 -3.4311 0
M  V30 42 H 4.1744 1.5851 1.9157 0
M  V30 43 H -1.0 -5.8249 1.5277 0
M  V30 44 H 1.0652 1.1205 -3.7363 0
M  V30 45 H -0.022 2.0501 -5.6709 0
M  V30 46 H -1.0691 0.6062 -5.7127 0
M  V30 47 H 0.6686 0.45 -5.9811 0
M  V30 END ATOM
M  V30 BEGIN BOND
M  V30 1 1 1 2
M  V30 2 1 1 3
M  V30 3 1 2 4
M  V30 4 1 2 5
M  V30 5 1 2 6
M  V30 6 1 3 7
M  V30 7 1 3 8
M  V30 8 1 3 9
M  V30 9 2 4 10
M  V30 10 1 4 11
M  V30 11 1 5 12
M  V30 12 1 6 13
M  V30 13 1 7 14
M  V30 14 1 10 15
M  V30 15 2 11 16
M  V30 16 2 12 17
M  V30 17 1 13 18
M  V30 18 2 14 19
M  V30 19 2 15 20
M  V30 20 1 18 21
M  V30 21 1 21 22
M  V30 22 2 5 7
M  V30 23 1 16 20
M  V30 24 1 17 19
M  V30 25 1 6 23
M  V30 26 1 6 24
M  V30 27 1 8 25
M  V30 28 1 8 26
M  V30 29 1 8 27
M  V30 30 1 9 28
M  V30 31 1 9 29
M  V30 32 1 9 30
M  V30 33 1 10 31
M  V30 34 1 11 32
M  V30 35 1 12 33
M  V30 36 1 13 34
M  V30 37 1 13 35
M  V30 38 1 14 36
M  V30 39 1 15 37
M  V30 40 1 16 38
M  V30 41 1 17 39
M  V30 42 1 18 40
M  V30 43 1 18 41
M  V30 44 1 19 42
M  V30 45 1 20 43
M  V30 46 1 21 44
M  V30 47 1 22 45
M  V30 48 1 22 46
M  V30 49 1 22 47
M  V30 END BOND
M  V30 BEGIN COLLECTION
M  V30 MDLV30/STERAC1 ATOMS=(1 2)
M  V30 END COLLECTION
M  V30 END CTAB
M  END
>  <Column 1>
590

>  <level_0>
667

>  <index>
667

>  <Unnamed: 0>
667

>  <NO.>
678

>  <Name>
talsupram

>  <IUPAC_name>
3-(3-3-dimethyl-1-phenyl-2-benzothiophen-1-yl)-n-methylpropan-1-amine

>  <SMILES>
CNCCCC1(c2ccccc2)SC(C)(C)c2ccccc21

>  <CID>
33014

>  <logBB>
0.22

>  <BBB+/BBB->
BBB+

>  <Inchi>
InChI=1S/C20H25NS/c1-19(2)17-12-7-8-13-18(17)20(22-19-14-9-15-21-3)16-10-5-4-6-11-16/h4-8-10-13-21H-9-14-15H2-1-3H3

>  <threshold>


>  <reference>
R2|R2|R25|R27|R46|

>  <group>
A

>  <Class>
1

>  <ABC>
17.06

>  <ABCGG>
14.58

>  <nAcid>
0

>  <nBase>
1

>  <nAromAtom>
12

>  <nAromBond>
12

>  <nAtom>
47

>  <nHeavyAtom>
22

>  <nSpiro>
0

>  <nBridgehead>
0

>  <nHetero>
2

>  <nN>
1

>  <nO>
0

>  <nF>
0

>  <BalabanJ>
1.86

>  <BertzCT>
635.17

>  <nBonds>
49

>  <nBondsO>
24

>  <nBondsS>
37

>  <nBondsD>
0

>  <nBondsT>
0

>  <nBondsA>
12

>  <nBondsM>
12

>  <nBondsKS>
43

>  <nBondsKD>
6

>  <RNCG>
0.26

>  <RPCG>
0.1

>  <FCSP3>
0.4

>  <SZ>
28

>  <Sm>
25.93

>  <Sv>
28.72

>  <Sse>
45.84

>  <Sp>
32.38

>  <Si>
52.4

>  <MZ>
0.6

>  <Mm>
0.55

>  <Mv>
0.61

>  <Mse>
0.98

>  <Mp>
0.69

>  <Mi>
1.11

>  <NsCH3>
3

>  <NdCH2>
0

>  <NssCH2>
3

>  <NtCH>
0

>  <NdsCH>
0

>  <NaaCH>
9

>  <NsssCH>
0

>  <NddC>
0

>  <NtsC>
0

>  <NdssC>
0

>  <NaasC>
3

>  <NaaaC>
0

>  <NssssC>
2

>  <NsNH3>
0

>  <NsNH2>
0

>  <NssNH2>
0

>  <NdNH>
0

>  <NssNH>
1

>  <NaaNH>
0

>  <NtN>
0

>  <NsssNH>
0

>  <NdsN>
0

>  <NaaN>
0

>  <NsssN>
0

>  <NddsN>
0

>  <NaasN>
0

>  <NssssN>
0

>  <NsOH>
0

>  <NdO>
0

>  <NssO>
0

>  <NaaO>
0

>  <NsF>
0

>  <NsSiH3>
0

>  <NssSiH2>
0

>  <NsssSiH>
0

>  <NssssSi>
0

>  <NsPH2>
0

>  <NssPH>
0

>  <NsssP>
0

>  <NdsssP>
0

>  <NsssssP>
0

>  <NsSH>
0

>  <NdS>
0

>  <NssS>
1

>  <NaaS>
0

>  <NdssS>
0

>  <NddssS>
0

>  <NsCl>
0

>  <NsBr>
0

>  <NsI>
0

>  <fragCpx>
114.02

>  <fMF>
0.32

>  <nHBAcc>
2

>  <nHBDon>
1

>  <Kier1>
16.84

>  <Kier2>
6.86

>  <Lipinski>
1

>  <GhoseFilter>
1

>  <FilterItLogS>
-6.6

>  <VMcGowan>
260.61

>  <LabuteASA>
138.08

>  <PEOE_VSA1>
5.32

>  <PEOE_VSA2>
0

>  <PEOE_VSA3>
0

>  <PEOE_VSA4>
0

>  <PEOE_VSA5>
11.76

>  <PEOE_VSA6>
54.6

>  <PEOE_VSA7>
56.97

>  <PEOE_VSA8>
4.75

>  <PEOE_VSA9>
4.75

>  <PEOE_VSA10>
0

>  <PEOE_VSA11>
0

>  <PEOE_VSA12>
0

>  <PEOE_VSA13>
0

>  <SMR_VSA1>
0

>  <SMR_VSA2>
0

>  <SMR_VSA3>
5.32

>  <SMR_VSA4>
0

>  <SMR_VSA5>
36.18

>  <SMR_VSA6>
13.59

>  <SMR_VSA7>
71.29

>  <SMR_VSA8>
0

>  <SMR_VSA9>
0

>  <SlogP_VSA1>
5.32

>  <SlogP_VSA2>
13.59

>  <SlogP_VSA3>
9.49

>  <SlogP_VSA4>
0

>  <SlogP_VSA5>
43.38

>  <SlogP_VSA6>
54.6

>  <SlogP_VSA7>
0

>  <SlogP_VSA8>
0

>  <SlogP_VSA9>
0

>  <SlogP_VSA10>
0

>  <SlogP_VSA11>
0

>  <EState_VSA1>
0

>  <EState_VSA2>
9.49

>  <EState_VSA3>
0

>  <EState_VSA4>
6.54

>  <EState_VSA5>
29.53

>  <EState_VSA6>
0

>  <EState_VSA7>
7.05

>  <EState_VSA8>
85.52

>  <EState_VSA9>
0

>  <EState_VSA10>
0

>  <VSA_EState1>
0.24

>  <VSA_EState2>
0

>  <VSA_EState3>
3.3

>  <VSA_EState4>
4.44

>  <VSA_EState5>
0

>  <VSA_EState6>
20.06

>  <VSA_EState7>
2.35

>  <VSA_EState8>
5.79

>  <VSA_EState9>
2.04

>  <apol>
54.07

>  <bpol>
28.11

>  <nRing>
3

>  <nHRing>
1

>  <naRing>
2

>  <naHRing>
0

>  <nARing 2>
1

>  <nAHRing 2>
1

>  <nFRing>
1

>  <nFHRing>
1

>  <nFaRing>
0

>  <nFaHRing>
0

>  <nFARing 2>
1

>  <nFAHRing 2>
1

>  <nRot>
5

>  <SLogP>
4.91

>  <SMR>
97.44

>  <TopoPSA(NO)>
12.03

>  <TopoPSA>
37.33

>  <JGI1>
0.21

>  <JGI2>
0.1

>  <JGI3>
0.08

>  <JGI4>
0.03

>  <JGI5>
0.02

>  <Diameter>
9

>  <Radius>
5

>  <TMWC10>
122.43

>  <TSRW10>
71.59

>  <MW>
311.17

>  <AMW>
6.62

>  <WPath>
941

>  <WPol>
38

>  <Zagreb1>
118

>  <Zagreb2>
143

>  <mZagreb2>
4.9

>  <yes>


>  <nAR-cont>
0.816016

>  <nHA-cont>
0.983774276

>  <MWHBN>
0.170067918

>  <MWHBN-cont>
0.974071203

>  <TPSA-cont>
0.739413419

>  <pka_cont>
0.97

>  <yes.1>


>  <BBB_SCORE>
5.22472392

>  <MMFF94 Energy>
72.32

$$$$
Compound 477
Actelion Java MolfileCreator 2.0

  0  0  0  0  0  0              0 V3000
M  V30 BEGIN CTAB
M  V30 COUNTS 54 57 0 0 0
M  V30 BEGIN ATOM
M  V30 1 O -0.7136 -0.3964 6.3576 0
M  V30 2 C -1.0401 -0.3679 5.031 0
M  V30 3 C -0.8629 -1.7071 6.7027 0
M  V30 4 N -1.3797 -1.5293 4.5162 0
M  V30 5 N -0.9676 0.8348 4.4515 0
M  V30 6 C -1.2701 -2.3957 5.5726 0
M  V30 7 C -0.6538 -2.2826 7.95 0
M  V30 8 C -1.1928 0.9777 3.0295 0
M  V30 9 C -1.4949 -3.7752 5.664 0
M  V30 10 C -0.8824 -3.6622 8.0264 0
M  V30 11 C -1.3637 2.4567 2.6818 0
M  V30 12 C -1.295 -4.3968 6.9066 0
M  V30 13 C -1.6839 2.6582 1.2037 0
M  V30 14 O -0.5742 2.209 0.4298 0
M  V30 15 C -0.6907 2.2831 -0.9308 0
M  V30 16 C 0.403 1.7769 -1.6386 0
M  V30 17 C -1.774 2.8084 -1.6346 0
M  V30 18 C 0.4274 1.7832 -3.0425 0
M  V30 19 C -1.7622 2.8228 -3.032 0
M  V30 20 C -0.6685 2.3146 -3.733 0
M  V30 21 C 1.6266 1.2406 -3.7919 0
M  V30 22 N 1.9171 -0.1696 -3.488 0
M  V30 23 C 3.2413 -0.5733 -3.9815 0
M  V30 24 C 0.8806 -1.0986 -3.9641 0
M  V30 25 C 3.3155 -0.7408 -5.5013 0
M  V30 26 C 0.863 -1.2907 -5.483 0
M  V30 27 C 2.2376 -1.6943 -6.0057 0
M  V30 28 H -0.6291 1.6242 4.9848 0
M  V30 29 H -0.3345 -1.6974 8.8028 0
M  V30 30 H -2.0974 0.4329 2.7313 0
M  V30 31 H -0.3461 0.5508 2.4796 0
M  V30 32 H -1.8134 -4.3393 4.7948 0
M  V30 33 H -0.7359 -4.1739 8.9761 0
M  V30 34 H -0.4398 2.9925 2.9339 0
M  V30 35 H -2.1681 2.891 3.2878 0
M  V30 36 H -1.4636 -5.4679 6.9993 0
M  V30 37 H -2.5879 2.0941 0.9435 0
M  V30 38 H -1.8519 3.7271 1.0258 0
M  V30 39 H 1.2463 1.3604 -1.0904 0
M  V30 40 H -2.643 3.2151 -1.129 0
M  V30 41 H -2.6099 3.2323 -3.5756 0
M  V30 42 H -0.6784 2.3331 -4.8201 0
M  V30 43 H 2.479 1.8652 -3.4913 0
M  V30 44 H 1.5018 1.4049 -4.8687 0
M  V30 45 H 3.5093 -1.5264 -3.5066 0
M  V30 46 H 4.0061 0.1395 -3.6494 0
M  V30 47 H -0.1142 -0.7935 -3.6201 0
M  V30 48 H 1.0561 -2.0734 -3.4898 0
M  V30 49 H 4.3033 -1.1255 -5.7799 0
M  V30 50 H 3.2067 0.2324 -5.9943 0
M  V30 51 H 0.5358 -0.3688 -5.9778 0
M  V30 52 H 0.1317 -2.0637 -5.7456 0
M  V30 53 H 2.2332 -1.712 -7.101 0
M  V30 54 H 2.4684 -2.7128 -5.6696 0
M  V30 END ATOM
M  V30 BEGIN BOND
M  V30 1 1 1 2
M  V30 2 1 1 3
M  V30 3 2 2 4
M  V30 4 1 2 5
M  V30 5 2 3 6
M  V30 6 1 3 7
M  V30 7 1 5 8
M  V30 8 1 6 9
M  V30 9 2 7 10
M  V30 10 1 8 11
M  V30 11 2 9 12
M  V30 12 1 11 13
M  V30 13 1 13 14
M  V30 14 1 14 15
M  V30 15 2 15 16
M  V30 16 1 15 17
M  V30 17 1 16 18
M  V30 18 2 17 19
M  V30 19 2 18 20
M  V30 20 1 18 21
M  V30 21 1 21 22
M  V30 22 1 22 23
M  V30 23 1 22 24
M  V30 24 1 23 25
M  V30 25 1 24 26
M  V30 26 1 25 27
M  V30 27 1 4 6
M  V30 28 1 10 12
M  V30 29 1 19 20
M  V30 30 1 26 27
M  V30 31 1 5 28
M  V30 32 1 7 29
M  V30 33 1 8 30
M  V30 34 1 8 31
M  V30 35 1 9 32
M  V30 36 1 10 33
M  V30 37 1 11 34
M  V30 38 1 11 35
M  V30 39 1 12 36
M  V30 40 1 13 37
M  V30 41 1 13 38
M  V30 42 1 16 39
M  V30 43 1 17 40
M  V30 44 1 19 41
M  V30 45 1 20 42
M  V30 46 1 21 43
M  V30 47 1 21 44
M  V30 48 1 23 45
M  V30 49 1 23 46
M  V30 50 1 24 47
M  V30 51 1 24 48
M  V30 52 1 25 49
M  V30 53 1 25 50
M  V30 54 1 26 51
M  V30 55 1 26 52
M  V30 56 1 27 53
M  V30 57 1 27 54
M  V30 END BOND
M  V30 END CTAB
M  END
>  <Column 1>
591

>  <level_0>
669

>  <index>
669

>  <Unnamed: 0>
669

>  <NO.>
680

>  <Name>
b-066;skb-42

>  <IUPAC_name>
n-[3-[3-(piperidin-1-ylmethyl)phenoxy]propyl]-1-3-benzoxazol-2-amine

>  <SMILES>
c1cc(CN2CCCCC2)cc(OCCCNc2nc3ccccc3o2)c1

>  <CID>
14022499

>  <logBB>
0.22

>  <BBB+/BBB->
BBB+

>  <Inchi>
InChI=1S/C22H27N3O2/c1-4-13-25(14-5-1)17-18-8-6-9-19(16-18)26-15-7-12-23-22-24-20-10-2-3-11-21(20)27-22/h2-3-6-8-11-16H-1-4-5-7-12-15-17H2-(H-23-24)

>  <threshold>


>  <reference>
R2|R2|R3|R3|R8|R12|R18|R20|R21|R25|R26|R27|R27|R27|R35|R36|R38|R38|R41|R41|R43|R46|R47|R48|R49|R49|R4|R40|

>  <group>
A

>  <Class>
1

>  <ABC>
21.17

>  <ABCGG>
14.91

>  <nAcid>
0

>  <nBase>
1

>  <nAromAtom>
15

>  <nAromBond>
16

>  <nAtom>
54

>  <nHeavyAtom>
27

>  <nSpiro>
0

>  <nBridgehead>
0

>  <nHetero>
5

>  <nN>
3

>  <nO>
2

>  <nF>
0

>  <BalabanJ>
1.06

>  <BertzCT>
822.39

>  <nBonds>
57

>  <nBondsO>
30

>  <nBondsS>
41

>  <nBondsD>
0

>  <nBondsT>
0

>  <nBondsA>
16

>  <nBondsM>
16

>  <nBondsKS>
50

>  <nBondsKD>
7

>  <RNCG>
0.22

>  <RPCG>
0.13

>  <FCSP3>
0.41

>  <SZ>
32.67

>  <Sm>
30.43

>  <Sv>
33.02

>  <Sse>
53.64

>  <Sp>
35.72

>  <Si>
60.9

>  <MZ>
0.6

>  <Mm>
0.56

>  <Mv>
0.61

>  <Mse>
0.99

>  <Mp>
0.66

>  <Mi>
1.13

>  <NsCH3>
0

>  <NdCH2>
0

>  <NssCH2>
9

>  <NtCH>
0

>  <NdsCH>
0

>  <NaaCH>
8

>  <NsssCH>
0

>  <NddC>
0

>  <NtsC>
0

>  <NdssC>
0

>  <NaasC>
3

>  <NaaaC>
2

>  <NssssC>
0

>  <NsNH3>
0

>  <NsNH2>
0

>  <NssNH2>
0

>  <NdNH>
0

>  <NssNH>
1

>  <NaaNH>
0

>  <NtN>
0

>  <NsssNH>
0

>  <NdsN>
0

>  <NaaN>
1

>  <NsssN>
1

>  <NddsN>
0

>  <NaasN>
0

>  <NssssN>
0

>  <NsOH>
0

>  <NdO>
0

>  <NssO>
1

>  <NaaO>
1

>  <NsF>
0

>  <NsSiH3>
0

>  <NssSiH2>
0

>  <NsssSiH>
0

>  <NssssSi>
0

>  <NsPH2>
0

>  <NssPH>
0

>  <NsssP>
0

>  <NdsssP>
0

>  <NsssssP>
0

>  <NsSH>
0

>  <NdS>
0

>  <NssS>
0

>  <NaaS>
0

>  <NdssS>
0

>  <NddssS>
0

>  <NsCl>
0

>  <NsBr>
0

>  <NsI>
0

>  <fragCpx>
198.05

>  <fMF>
0.5

>  <nHBAcc>
5

>  <nHBDon>
1

>  <Kier1>
20.28

>  <Kier2>
10.68

>  <Lipinski>
1

>  <GhoseFilter>
1

>  <FilterItLogS>
-6.31

>  <VMcGowan>
288.98

>  <LabuteASA>
159.89

>  <PEOE_VSA1>
14.47

>  <PEOE_VSA2>
4.9

>  <PEOE_VSA3>
0

>  <PEOE_VSA4>
4.98

>  <PEOE_VSA5>
0

>  <PEOE_VSA6>
30.69

>  <PEOE_VSA7>
62.18

>  <PEOE_VSA8>
13.09

>  <PEOE_VSA9>
6.61

>  <PEOE_VSA10>
11.27

>  <PEOE_VSA11>
5.58

>  <PEOE_VSA12>
0

>  <PEOE_VSA13>
6.01

>  <SMR_VSA1>
9.15

>  <SMR_VSA2>
0

>  <SMR_VSA3>
9.88

>  <SMR_VSA4>
0

>  <SMR_VSA5>
32.23

>  <SMR_VSA6>
31.56

>  <SMR_VSA7>
54.09

>  <SMR_VSA8>
0

>  <SMR_VSA9>
5.75

>  <SlogP_VSA1>
10.05

>  <SlogP_VSA2>
36.13

>  <SlogP_VSA3>
6.54

>  <SlogP_VSA4>
0

>  <SlogP_VSA5>
31.25

>  <SlogP_VSA6>
52.95

>  <SlogP_VSA7>
0

>  <SlogP_VSA8>
11.1

>  <SlogP_VSA9>
0

>  <SlogP_VSA10>
6.01

>  <SlogP_VSA11>
5.75

>  <EState_VSA1>
0

>  <EState_VSA2>
0

>  <EState_VSA3>
12.62

>  <EState_VSA4>
36.36

>  <EState_VSA5>
37.92

>  <EState_VSA6>
0

>  <EState_VSA7>
30.33

>  <EState_VSA8>
33.4

>  <EState_VSA9>
9.15

>  <EState_VSA10>
0

>  <VSA_EState1>
11.58

>  <VSA_EState2>
6.95

>  <VSA_EState3>
3.22

>  <VSA_EState4>
3.02

>  <VSA_EState5>
0.95

>  <VSA_EState6>
16.84

>  <VSA_EState7>
4.9

>  <VSA_EState8>
4.89

>  <VSA_EState9>
0

>  <apol>
59.65

>  <bpol>
33.98

>  <nRing>
4

>  <nHRing>
2

>  <naRing>
3

>  <naHRing>
1

>  <nARing 2>
1

>  <nAHRing 2>
1

>  <nFRing>
1

>  <nFHRing>
1

>  <nFaRing>
1

>  <nFaHRing>
1

>  <nFARing 2>
0

>  <nFAHRing 2>
0

>  <nRot>
8

>  <SLogP>
4.69

>  <SMR>
108.18

>  <TopoPSA(NO)>
50.53

>  <TopoPSA>
50.53

>  <JGI1>
0.13

>  <JGI2>
0.03

>  <JGI3>
0.04

>  <JGI4>
0.03

>  <JGI5>
0.01

>  <Diameter>
17

>  <Radius>
9

>  <TMWC10>
131.51

>  <TSRW10>
75.61

>  <MW>
365.21

>  <AMW>
6.76

>  <WPath>
2385

>  <WPol>
35

>  <Zagreb1>
138

>  <Zagreb2>
157

>  <mZagreb2>
6.03

>  <yes>


>  <nAR-cont>
0.816016

>  <nHA-cont>
0.860070871

>  <MWHBN>
0.313964048

>  <MWHBN-cont>
0.797111883

>  <TPSA-cont>
0.647269223

>  <pka_cont>
0.97

>  <yes.1>


>  <BBB_SCORE>
4.651293141

>  <MMFF94 Energy>
-11.427

$$$$
Compound 478
Actelion Java MolfileCreator 2.0

  0  0  0  0  0  0              0 V3000
M  V30 BEGIN CTAB
M  V30 COUNTS 43 46 0 0 0
M  V30 BEGIN ATOM
M  V30 1 O 1.046 2.0123 -2.1735 0
M  V30 2 C 1.076 0.923 -1.6081 0
M  V30 3 O 0.0197 0.3665 -0.9553 0
M  V30 4 C 2.3112 0.0421 -1.5883 0
M  V30 5 C -1.2172 1.117 -0.9419 0
M  V30 6 C 2.4438 -0.8262 -0.342 0
M  V30 7 C 2.4445 -0.6751 -2.9392 0
M  V30 8 C -2.3694 0.0894 -0.8493 0
M  V30 9 C -1.1752 2.1476 0.2113 0
M  V30 10 C 3.0882 -0.2984 0.7916 0
M  V30 11 C 1.9095 -2.1198 -0.2588 0
M  V30 12 O 1.3064 -1.4687 -3.2647 0
M  V30 13 C -2.7624 -0.252 0.5999 0
M  V30 14 C -1.6981 1.5828 1.5459 0
M  V30 15 C 3.2034 -1.0467 1.9646 0
M  V30 16 C 2.0254 -2.8671 0.9156 0
M  V30 17 N -3.0302 0.979 1.3648 0
M  V30 18 C -1.5656 -0.8035 1.3533 0
M  V30 19 C -0.8856 0.3676 1.9569 0
M  V30 20 C 2.6719 -2.3313 2.026 0
M  V30 21 C -4.0889 1.8404 0.8859 0
M  V30 22 O -1.5224 -0.6251 2.7792 0
M  V30 23 H 3.1618 0.739 -1.5435 0
M  V30 24 H -1.3142 1.6401 -1.9015 0
M  V30 25 H 2.5605 0.0632 -3.7409 0
M  V30 26 H 3.3269 -1.3244 -2.9449 0
M  V30 27 H -2.0836 -0.8321 -1.3721 0
M  V30 28 H -3.2462 0.4897 -1.3723 0
M  V30 29 H -1.7791 3.0184 -0.07 0
M  V30 30 H -0.1502 2.5095 0.3567 0
M  V30 31 H 3.5041 0.7072 0.7735 0
M  V30 32 H 1.3754 -2.5591 -1.0977 0
M  V30 33 H 1.4747 -1.8638 -4.1386 0
M  V30 34 H -3.6049 -0.9493 0.6411 0
M  V30 35 H -1.6973 2.3389 2.3373 0
M  V30 36 H 3.7021 -0.6244 2.8332 0
M  V30 37 H 1.5989 -3.8657 0.966 0
M  V30 38 H -1.0129 -1.6051 0.8945 0
M  V30 39 H 0.1866 0.46 1.9614 0
M  V30 40 H 2.753 -2.912 2.9411 0
M  V30 41 H -3.9171 2.255 -0.1113 0
M  V30 42 H -5.0367 1.2918 0.8596 0
M  V30 43 H -4.2313 2.6798 1.5753 0
M  V30 END ATOM
M  V30 BEGIN BOND
M  V30 1 2 1 2
M  V30 2 1 2 3
M  V30 3 1 2 4
M  V30 4 1 3 5
M  V30 5 1 4 6
M  V30 6 1 4 7
M  V30 7 1 5 8
M  V30 8 1 5 9
M  V30 9 2 6 10
M  V30 10 1 6 11
M  V30 11 1 7 12
M  V30 12 1 8 13
M  V30 13 1 9 14
M  V30 14 1 10 15
M  V30 15 2 11 16
M  V30 16 1 13 17
M  V30 17 1 13 18
M  V30 18 1 14 19
M  V30 19 2 15 20
M  V30 20 1 17 21
M  V30 21 1 18 22
M  V30 22 1 14 17
M  V30 23 1 16 20
M  V30 24 1 18 19
M  V30 25 1 19 22
M  V30 26 1 4 23
M  V30 27 1 5 24
M  V30 28 1 7 25
M  V30 29 1 7 26
M  V30 30 1 8 27
M  V30 31 1 8 28
M  V30 32 1 9 29
M  V30 33 1 9 30
M  V30 34 1 10 31
M  V30 35 1 11 32
M  V30 36 1 12 33
M  V30 37 1 13 34
M  V30 38 1 14 35
M  V30 39 1 15 36
M  V30 40 1 16 37
M  V30 41 1 18 38
M  V30 42 1 19 39
M  V30 43 1 20 40
M  V30 44 1 21 41
M  V30 45 1 21 42
M  V30 46 1 21 43
M  V30 END BOND
M  V30 END CTAB
M  END
>  <Column 1>
592

>  <level_0>
670

>  <index>
670

>  <Unnamed: 0>
670

>  <NO.>
681

>  <Name>
scopolamine

>  <IUPAC_name>
(9-methyl-3-oxa-9-azatricyclo[3.3.1.02-4]nonan-7-yl) 3-hydroxy-2-phenylpropanoate

>  <SMILES>
CN1C2CC(OC(=O)C(CO)c3ccccc3)CC1C1OC12

>  <CID>
5184

>  <logBB>
0.23

>  <BBB+/BBB->
BBB+

>  <Inchi>
InChI=1S/C17H21NO4/c1-18-13-7-11(8-14(18)16-15(13)22-16)21-17(20)12(9-19)10-5-3-2-4-6-10/h2-6-11-16-19H-7-9H2-1H3

>  <threshold>


>  <reference>
R8|R21|R27|R43|R47|R4|R40|

>  <group>
A

>  <Class>
1

>  <ABC>
17.61

>  <ABCGG>
15.52

>  <nAcid>
0

>  <nBase>
1

>  <nAromAtom>
6

>  <nAromBond>
6

>  <nAtom>
43

>  <nHeavyAtom>
22

>  <nSpiro>
0

>  <nBridgehead>
2

>  <nHetero>
5

>  <nN>
1

>  <nO>
4

>  <nF>
0

>  <BalabanJ>
1.34

>  <BertzCT>
545.04

>  <nBonds>
46

>  <nBondsO>
25

>  <nBondsS>
39

>  <nBondsD>
1

>  <nBondsT>
0

>  <nBondsA>
6

>  <nBondsM>
7

>  <nBondsKS>
42

>  <nBondsKD>
4

>  <RNCG>
0.22

>  <RPCG>
0.15

>  <FCSP3>
0.59

>  <SZ>
27

>  <Sm>
25.26

>  <Sv>
26.31

>  <Sse>
43.31

>  <Sp>
27.96

>  <Si>
48.49

>  <MZ>
0.63

>  <Mm>
0.59

>  <Mv>
0.61

>  <Mse>
1.01

>  <Mp>
0.65

>  <Mi>
1.13

>  <NsCH3>
1

>  <NdCH2>
0

>  <NssCH2>
3

>  <NtCH>
0

>  <NdsCH>
0

>  <NaaCH>
5

>  <NsssCH>
6

>  <NddC>
0

>  <NtsC>
0

>  <NdssC>
1

>  <NaasC>
1

>  <NaaaC>
0

>  <NssssC>
0

>  <NsNH3>
0

>  <NsNH2>
0

>  <NssNH2>
0

>  <NdNH>
0

>  <NssNH>
0

>  <NaaNH>
0

>  <NtN>
0

>  <NsssNH>
0

>  <NdsN>
0

>  <NaaN>
0

>  <NsssN>
1

>  <NddsN>
0

>  <NaasN>
0

>  <NssssN>
0

>  <NsOH>
1

>  <NdO>
1

>  <NssO>
2

>  <NaaO>
0

>  <NsF>
0

>  <NsSiH3>
0

>  <NssSiH2>
0

>  <NsssSiH>
0

>  <NssssSi>
0

>  <NsPH2>
0

>  <NssPH>
0

>  <NsssP>
0

>  <NdsssP>
0

>  <NsssssP>
0

>  <NsSH>
0

>  <NdS>
0

>  <NssS>
0

>  <NaaS>
0

>  <NdssS>
0

>  <NddssS>
0

>  <NsCl>
0

>  <NsBr>
0

>  <NsI>
0

>  <fragCpx>
163.05

>  <fMF>
0.42

>  <nHBAcc>
5

>  <nHBDon>
1

>  <Kier1>
15.52

>  <Kier2>
6.14

>  <Lipinski>
1

>  <GhoseFilter>
1

>  <FilterItLogS>
-1.44

>  <VMcGowan>
223.21

>  <LabuteASA>
129.37

>  <PEOE_VSA1>
14.58

>  <PEOE_VSA2>
9.69

>  <PEOE_VSA3>
0

>  <PEOE_VSA4>
0

>  <PEOE_VSA5>
0

>  <PEOE_VSA6>
30.33

>  <PEOE_VSA7>
12.61

>  <PEOE_VSA8>
24.93

>  <PEOE_VSA9>
6.61

>  <PEOE_VSA10>
24.23

>  <PEOE_VSA11>
0

>  <PEOE_VSA12>
0

>  <PEOE_VSA13>
0

>  <SMR_VSA1>
19.37

>  <SMR_VSA2>
0

>  <SMR_VSA3>
4.9

>  <SMR_VSA4>
0

>  <SMR_VSA5>
49.16

>  <SMR_VSA6>
13.65

>  <SMR_VSA7>
35.9

>  <SMR_VSA8>
0

>  <SMR_VSA9>
0

>  <SlogP_VSA1>
0

>  <SlogP_VSA2>
60.03

>  <SlogP_VSA3>
14.27

>  <SlogP_VSA4>
0

>  <SlogP_VSA5>
24.32

>  <SlogP_VSA6>
30.33

>  <SlogP_VSA7>
0

>  <SlogP_VSA8>
0

>  <SlogP_VSA9>
0

>  <SlogP_VSA10>
0

>  <SlogP_VSA11>
0

>  <EState_VSA1>
5.92

>  <EState_VSA2>
18.68

>  <EState_VSA3>
24.29

>  <EState_VSA4>
18.41

>  <EState_VSA5>
0

>  <EState_VSA6>
0

>  <EState_VSA7>
30.33

>  <EState_VSA8>
11.95

>  <EState_VSA9>
9.47

>  <EState_VSA10>
9.9

>  <VSA_EState1>
11.38

>  <VSA_EState2>
14.79

>  <VSA_EState3>
9.56

>  <VSA_EState4>
0.8

>  <VSA_EState5>
-0.92

>  <VSA_EState6>
10.06

>  <VSA_EState7>
2.26

>  <VSA_EState8>
-0.23

>  <VSA_EState9>
2.13

>  <apol>
46.7

>  <bpol>
27.12

>  <nRing>
4

>  <nHRing>
3

>  <naRing>
1

>  <naHRing>
0

>  <nARing 2>
3

>  <nAHRing 2>
3

>  <nFRing>
1

>  <nFHRing>
1

>  <nFaRing>
0

>  <nFaHRing>
0

>  <nFARing 2>
1

>  <nFAHRing 2>
1

>  <nRot>
4

>  <SLogP>
0.92

>  <SMR>
79.38

>  <TopoPSA(NO)>
62.3

>  <TopoPSA>
62.3

>  <JGI1>
0.16

>  <JGI2>
0.08

>  <JGI3>
0.06

>  <JGI4>
0.04

>  <JGI5>
0.02

>  <Diameter>
11

>  <Radius>
6

>  <TMWC10>
123.6

>  <TSRW10>
77.63

>  <MW>
303.15

>  <AMW>
7.05

>  <WPath>
1081

>  <WPol>
35

>  <Zagreb1>
124

>  <Zagreb2>
153

>  <mZagreb2>
4.78

>  <yes>


>  <nAR-cont>
0.691115

>  <nHA-cont>
0.983774276

>  <MWHBN>
0.344605706

>  <MWHBN-cont>
0.690277853

>  <TPSA-cont>
0.565107314

>  <pka_cont>
0.97

>  <yes.1>


>  <BBB_SCORE>
4.325520684

>  <MMFF94 Energy>
78.281

$$$$
Compound 479
Actelion Java MolfileCreator 2.0

  0  0  0  0  0  0              0 V3000
M  V30 BEGIN CTAB
M  V30 COUNTS 55 57 0 0 0
M  V30 BEGIN ATOM
M  V30 1 F 4.8691 2.0731 1.9135 0
M  V30 2 C 5.4537 1.9076 0.7026 0
M  V30 3 F 5.1143 0.6752 0.2531 0
M  V30 4 F 6.7946 1.8965 0.9086 0
M  V30 5 C 5.0457 2.9679 -0.255 0
M  V30 6 N 3.7518 3.1339 -0.7053 0
M  V30 7 C 5.8163 3.9442 -0.8599 0
M  V30 8 C 3.6859 4.2063 -1.581 0
M  V30 9 C 2.6007 2.3195 -0.3306 0
M  V30 10 C 4.9771 4.725 -1.6932 0
M  V30 11 C 2.6047 4.7626 -2.2862 0
M  V30 12 C 2.3237 1.2139 -1.3518 0
M  V30 13 C 5.2026 5.8318 -2.5345 0
M  V30 14 C 2.8518 5.8611 -3.1152 0
M  V30 15 N 1.0495 0.5461 -1.1437 0
M  V30 16 C 4.1323 6.3901 -3.2399 0
M  V30 17 C 0.8324 -0.2559 -0.0512 0
M  V30 18 O 1.6472 -0.4217 0.8455 0
M  V30 19 C -0.5031 -0.9005 -0.0583 0
M  V30 20 C -0.8367 -1.7398 0.934 0
M  V30 21 C -2.1261 -2.4391 0.9962 0
M  V30 22 C -2.1332 -3.8116 1.2849 0
M  V30 23 C -3.3398 -1.7589 0.8143 0
M  V30 24 C -3.3369 -4.5151 1.3673 0
M  V30 25 C -4.5558 -2.4416 0.8963 0
M  V30 26 O -3.445 -5.8564 1.6294 0
M  V30 27 C -4.5428 -3.8167 1.1861 0
M  V30 28 O -5.7904 -1.8691 0.7286 0
M  V30 29 C -2.243 -6.6115 1.6893 0
M  V30 30 O -5.7352 -4.5073 1.2223 0
M  V30 31 C -5.8364 -0.4972 0.3646 0
M  V30 32 C -6.2437 -4.523 2.5551 0
M  V30 33 H 6.881 4.08 -0.7124 0
M  V30 34 H 1.7389 2.9907 -0.2364 0
M  V30 35 H 2.7772 1.911 0.6682 0
M  V30 36 H 1.5993 4.3645 -2.1981 0
M  V30 37 H 2.2999 1.6183 -2.3696 0
M  V30 38 H 3.1153 0.4569 -1.3192 0
M  V30 39 H 6.1994 6.2513 -2.6351 0
M  V30 40 H 2.0302 6.3097 -3.6691 0
M  V30 41 H 0.3485 0.6152 -1.8691 0
M  V30 42 H 4.3047 7.2454 -3.8885 0
M  V30 43 H -1.1747 -0.6891 -0.8797 0
M  V30 44 H -0.1318 -1.9621 1.7339 0
M  V30 45 H -1.1819 -4.313 1.4338 0
M  V30 46 H -3.3143 -0.6915 0.6229 0
M  V30 47 H -1.683 -6.5425 0.7509 0
M  V30 48 H -2.5147 -7.661 1.8379 0
M  V30 49 H -1.6284 -6.3039 2.5415 0
M  V30 50 H -5.4255 0.1344 1.1589 0
M  V30 51 H -6.8869 -0.2214 0.2312 0
M  V30 52 H -5.3232 -0.3217 -0.5865 0
M  V30 53 H -5.5619 -5.0412 3.2379 0
M  V30 54 H -7.1907 -5.0709 2.5449 0
M  V30 55 H -6.4449 -3.5093 2.9185 0
M  V30 END ATOM
M  V30 BEGIN BOND
M  V30 1 1 1 2
M  V30 2 1 2 3
M  V30 3 1 2 4
M  V30 4 1 2 5
M  V30 5 1 5 6
M  V30 6 2 5 7
M  V30 7 1 6 8
M  V30 8 1 6 9
M  V30 9 1 7 10
M  V30 10 1 8 11
M  V30 11 1 9 12
M  V30 12 1 10 13
M  V30 13 2 11 14
M  V30 14 1 12 15
M  V30 15 2 13 16
M  V30 16 1 15 17
M  V30 17 2 17 18
M  V30 18 1 17 19
M  V30 19 2 19 20
M  V30 20 1 20 21
M  V30 21 2 21 22
M  V30 22 1 21 23
M  V30 23 1 22 24
M  V30 24 2 23 25
M  V30 25 1 24 26
M  V30 26 2 24 27
M  V30 27 1 25 28
M  V30 28 1 26 29
M  V30 29 1 27 30
M  V30 30 1 28 31
M  V30 31 1 30 32
M  V30 32 2 8 10
M  V30 33 1 14 16
M  V30 34 1 25 27
M  V30 35 1 7 33
M  V30 36 1 9 34
M  V30 37 1 9 35
M  V30 38 1 11 36
M  V30 39 1 12 37
M  V30 40 1 12 38
M  V30 41 1 13 39
M  V30 42 1 14 40
M  V30 43 1 15 41
M  V30 44 1 16 42
M  V30 45 1 19 43
M  V30 46 1 20 44
M  V30 47 1 22 45
M  V30 48 1 23 46
M  V30 49 1 29 47
M  V30 50 1 29 48
M  V30 51 1 29 49
M  V30 52 1 31 50
M  V30 53 1 31 51
M  V30 54 1 31 52
M  V30 55 1 32 53
M  V30 56 1 32 54
M  V30 57 1 32 55
M  V30 END BOND
M  V30 END CTAB
M  END
>  <Column 1>
593

>  <level_0>
673

>  <index>
673

>  <Unnamed: 0>
673

>  <NO.>
684

>  <Name>
5d

>  <IUPAC_name>
(e)-n-[2-[2-(trifluoromethyl)indol-1-yl]ethyl]-3-(3-4-5-trimethoxyphenyl)prop-2-enamide

>  <SMILES>
COc1cc(/C=C/C(=O)NCCn2c(C(F)(F)F)cc3ccccc32)cc(OC)c1OC

>  <CID>
71499384

>  <logBB>
0.23

>  <BBB+/BBB->
BBB+

>  <Inchi>
InChI=1S/C23H23F3N2O4/c1-30-18-12-15(13-19(31-2)22(18)32-3)8-9-21(29)27-10-11-28-17-7-5-4-6-16(17)14-20(28)23(24-25)26/h4-9-12-14H-10-11H2-1-3H3-(H-27-29)/b9-8+

>  <threshold>


>  <reference>
R47|

>  <group>
A

>  <Class>
1

>  <ABC>
24.36

>  <ABCGG>
19.69

>  <nAcid>
0

>  <nBase>
0

>  <nAromAtom>
15

>  <nAromBond>
16

>  <nAtom>
55

>  <nHeavyAtom>
32

>  <nSpiro>
0

>  <nBridgehead>
0

>  <nHetero>
9

>  <nN>
2

>  <nO>
4

>  <nF>
3

>  <BalabanJ>
1.44

>  <BertzCT>
1110.96

>  <nBonds>
57

>  <nBondsO>
34

>  <nBondsS>
39

>  <nBondsD>
2

>  <nBondsT>
0

>  <nBondsA>
16

>  <nBondsM>
18

>  <nBondsKS>
48

>  <nBondsKD>
9

>  <RNCG>
0.15

>  <RPCG>
0.13

>  <FCSP3>
0.26

>  <SZ>
39

>  <Sm>
37.34

>  <Sv>
35.55

>  <Sse>
56.73

>  <Sp>
36.42

>  <Si>
62.84

>  <MZ>
0.71

>  <Mm>
0.68

>  <Mv>
0.65

>  <Mse>
1.03

>  <Mp>
0.66

>  <Mi>
1.14

>  <NsCH3>
3

>  <NdCH2>
0

>  <NssCH2>
2

>  <NtCH>
0

>  <NdsCH>
2

>  <NaaCH>
7

>  <NsssCH>
0

>  <NddC>
0

>  <NtsC>
0

>  <NdssC>
1

>  <NaasC>
5

>  <NaaaC>
2

>  <NssssC>
1

>  <NsNH3>
0

>  <NsNH2>
0

>  <NssNH2>
0

>  <NdNH>
0

>  <NssNH>
1

>  <NaaNH>
0

>  <NtN>
0

>  <NsssNH>
0

>  <NdsN>
0

>  <NaaN>
0

>  <NsssN>
0

>  <NddsN>
0

>  <NaasN>
1

>  <NssssN>
0

>  <NsOH>
0

>  <NdO>
1

>  <NssO>
3

>  <NaaO>
0

>  <NsF>
3

>  <NsSiH3>
0

>  <NssSiH2>
0

>  <NsssSiH>
0

>  <NssssSi>
0

>  <NsPH2>
0

>  <NssPH>
0

>  <NsssP>
0

>  <NdsssP>
0

>  <NsssssP>
0

>  <NsSH>
0

>  <NdS>
0

>  <NssS>
0

>  <NaaS>
0

>  <NdssS>
0

>  <NddssS>
0

>  <NsCl>
0

>  <NsBr>
0

>  <NsI>
0

>  <fragCpx>
164.09

>  <fMF>
0.38

>  <nHBAcc>
5

>  <nHBDon>
1

>  <Kier1>
26.6

>  <Kier2>
12.11

>  <Lipinski>
1

>  <GhoseFilter>
1

>  <FilterItLogS>
-5.96

>  <VMcGowan>
312.37

>  <LabuteASA>
182.73

>  <PEOE_VSA1>
24.09

>  <PEOE_VSA2>
4.79

>  <PEOE_VSA3>
0

>  <PEOE_VSA4>
13.17

>  <PEOE_VSA5>
0

>  <PEOE_VSA6>
18.2

>  <PEOE_VSA7>
35.9

>  <PEOE_VSA8>
30.07

>  <PEOE_VSA9>
21.33

>  <PEOE_VSA10>
5.69

>  <PEOE_VSA11>
11.5

>  <PEOE_VSA12>
11.66

>  <PEOE_VSA13>
0

>  <SMR_VSA1>
32.18

>  <SMR_VSA2>
0

>  <SMR_VSA3>
9.88

>  <SMR_VSA4>
0

>  <SMR_VSA5>
12.72

>  <SMR_VSA6>
27.87

>  <SMR_VSA7>
59.8

>  <SMR_VSA8>
0

>  <SMR_VSA9>
17.25

>  <SlogP_VSA1>
19.53

>  <SlogP_VSA2>
38.35

>  <SlogP_VSA3>
17.52

>  <SlogP_VSA4>
0

>  <SlogP_VSA5>
11.26

>  <SlogP_VSA6>
48.54

>  <SlogP_VSA7>
0

>  <SlogP_VSA8>
16.98

>  <SlogP_VSA9>
0

>  <SlogP_VSA10>
13.17

>  <SlogP_VSA11>
17.25

>  <EState_VSA1>
17.78

>  <EState_VSA2>
13.09

>  <EState_VSA3>
33.71

>  <EState_VSA4>
6.07

>  <EState_VSA5>
31.97

>  <EState_VSA6>
42.47

>  <EState_VSA7>
0

>  <EState_VSA8>
5.32

>  <EState_VSA9>
14.21

>  <EState_VSA10>
17.97

>  <VSA_EState1>
57.19

>  <VSA_EState2>
12.21

>  <VSA_EState3>
3.11

>  <VSA_EState4>
0.34

>  <VSA_EState5>
0.86

>  <VSA_EState6>
11.07

>  <VSA_EState7>
-1.65

>  <VSA_EState8>
0.01

>  <VSA_EState9>
4.46

>  <apol>
60.83

>  <bpol>
34.77

>  <nRing>
3

>  <nHRing>
1

>  <naRing>
3

>  <naHRing>
1

>  <nARing 2>
0

>  <nAHRing 2>
0

>  <nFRing>
1

>  <nFHRing>
1

>  <nFaRing>
1

>  <nFaHRing>
1

>  <nFARing 2>
0

>  <nFAHRing 2>
0

>  <nRot>
8

>  <SLogP>
4.52

>  <SMR>
115.08

>  <TopoPSA(NO)>
61.72

>  <TopoPSA>
61.72

>  <JGI1>
0.22

>  <JGI2>
0.08

>  <JGI3>
0.06

>  <JGI4>
0.05

>  <JGI5>
0.02

>  <Diameter>
16

>  <Radius>
8

>  <TMWC10>
143.62

>  <TSRW10>
82.27

>  <MW>
448.16

>  <AMW>
8.15

>  <WPath>
3392

>  <WPol>
51

>  <Zagreb1>
164

>  <Zagreb2>
192

>  <mZagreb2>
7.22

>  <yes>


>  <nAR-cont>
0.336376

>  <nHA-cont>
0.658856097

>  <MWHBN>
0.283422748

>  <MWHBN-cont>
0.887271196

>  <TPSA-cont>
0.569156074

>  <pka_cont>
0.97

>  <yes.1>


>  <BBB_SCORE>
3.949451039

>  <MMFF94 Energy>
55.119

$$$$
Compound 480
Actelion Java MolfileCreator 2.0

  0  0  0  0  0  0              0 V3000
M  V30 BEGIN CTAB
M  V30 COUNTS 26 29 0 0 0
M  V30 BEGIN ATOM
M  V30 1 C 0.6473 -0.0809 0.1618 0
M  V30 2 C -0.7055 0.1426 -0.1953 0
M  V30 3 C 0.9706 -0.5207 1.4664 0
M  V30 4 C 1.6739 0.136 -0.7863 0
M  V30 5 C -1.7322 -0.0742 0.7528 0
M  V30 6 C -1.0289 0.5825 -1.4999 0
M  V30 7 C -0.0595 -0.7305 2.3932 0
M  V30 8 C 2.3145 -0.7374 1.8048 0
M  V30 9 C 1.3352 0.5719 -2.0744 0
M  V30 10 C 3.0082 -0.0896 -0.4174 0
M  V30 11 C -1.3936 -0.5101 2.041 0
M  V30 12 C -3.0666 0.1514 0.384 0
M  V30 13 C 0.0011 0.7924 -2.4266 0
M  V30 14 C -2.3728 0.7993 -1.8382 0
M  V30 15 C 3.326 -0.5233 0.8692 0
M  V30 16 C -3.3845 0.5852 -0.9025 0
M  V30 17 H 0.1678 -1.0687 3.4017 0
M  V30 18 H 2.5834 -1.0757 2.8029 0
M  V30 19 H 2.1097 0.7447 -2.8183 0
M  V30 20 H 3.812 0.0715 -1.1322 0
M  V30 21 H -2.1682 -0.6827 2.785 0
M  V30 22 H -3.8704 -0.0095 1.0989 0
M  V30 23 H -0.2263 1.1306 -3.435 0
M  V30 24 H -2.6419 1.1377 -2.8362 0
M  V30 25 H 4.3638 -0.6947 1.1432 0
M  V30 26 H -4.4223 0.7567 -1.1765 0
M  V30 END ATOM
M  V30 BEGIN BOND
M  V30 1 2 1 2
M  V30 2 1 1 3
M  V30 3 1 1 4
M  V30 4 1 2 5
M  V30 5 1 2 6
M  V30 6 1 3 7
M  V30 7 2 3 8
M  V30 8 2 4 9
M  V30 9 1 4 10
M  V30 10 1 5 11
M  V30 11 2 5 12
M  V30 12 2 6 13
M  V30 13 1 6 14
M  V30 14 1 8 15
M  V30 15 1 12 16
M  V30 16 2 7 11
M  V30 17 1 9 13
M  V30 18 2 10 15
M  V30 19 2 14 16
M  V30 20 1 7 17
M  V30 21 1 8 18
M  V30 22 1 9 19
M  V30 23 1 10 20
M  V30 24 1 11 21
M  V30 25 1 12 22
M  V30 26 1 13 23
M  V30 27 1 14 24
M  V30 28 1 15 25
M  V30 29 1 16 26
M  V30 END BOND
M  V30 END CTAB
M  END
>  <Column 1>
595

>  <level_0>
675

>  <index>
675

>  <Unnamed: 0>
675

>  <NO.>
686

>  <Name>
pyrene

>  <IUPAC_name>
pyrene

>  <SMILES>
c1cc2ccc3cccc4ccc(c1)c2c34

>  <CID>
31423

>  <logBB>
0.23

>  <BBB+/BBB->
BBB+

>  <Inchi>
InChI=1S/C16H10/c1-3-11-7-9-13-5-2-6-14-10-8-12(4-1)15(11)16(13)14/h1-10H

>  <threshold>


>  <reference>
R2|R2|R3|R8|R18|R21|R25|R26|R27|R27|R27|R38|R40|R41|R43|R46|R47|

>  <group>
A

>  <Class>
1

>  <ABC>
13.23

>  <ABCGG>
9.85

>  <nAcid>
0

>  <nBase>
0

>  <nAromAtom>
16

>  <nAromBond>
19

>  <nAtom>
26

>  <nHeavyAtom>
16

>  <nSpiro>
0

>  <nBridgehead>
0

>  <nHetero>
0

>  <nN>
0

>  <nO>
0

>  <nF>
0

>  <BalabanJ>
1.67

>  <BertzCT>
666.62

>  <nBonds>
29

>  <nBondsO>
19

>  <nBondsS>
10

>  <nBondsD>
0

>  <nBondsT>
0

>  <nBondsA>
19

>  <nBondsM>
19

>  <nBondsKS>
21

>  <nBondsKD>
8

>  <RNCG>
0.1

>  <RPCG>
0.1

>  <FCSP3>
0

>  <SZ>
17.67

>  <Sm>
16.84

>  <Sv>
18.71

>  <Sse>
25.44

>  <Sp>
19.99

>  <Si>
28.08

>  <MZ>
0.68

>  <Mm>
0.65

>  <Mv>
0.72

>  <Mse>
0.98

>  <Mp>
0.77

>  <Mi>
1.08

>  <NsCH3>
0

>  <NdCH2>
0

>  <NssCH2>
0

>  <NtCH>
0

>  <NdsCH>
0

>  <NaaCH>
10

>  <NsssCH>
0

>  <NddC>
0

>  <NtsC>
0

>  <NdssC>
0

>  <NaasC>
0

>  <NaaaC>
6

>  <NssssC>
0

>  <NsNH3>
0

>  <NsNH2>
0

>  <NssNH2>
0

>  <NdNH>
0

>  <NssNH>
0

>  <NaaNH>
0

>  <NtN>
0

>  <NsssNH>
0

>  <NdsN>
0

>  <NaaN>
0

>  <NsssN>
0

>  <NddsN>
0

>  <NaasN>
0

>  <NssssN>
0

>  <NsOH>
0

>  <NdO>
0

>  <NssO>
0

>  <NaaO>
0

>  <NsF>
0

>  <NsSiH3>
0

>  <NssSiH2>
0

>  <NsssSiH>
0

>  <NssssSi>
0

>  <NsPH2>
0

>  <NssPH>
0

>  <NsssP>
0

>  <NdsssP>
0

>  <NsssssP>
0

>  <NsSH>
0

>  <NdS>
0

>  <NssS>
0

>  <NaaS>
0

>  <NdssS>
0

>  <NddssS>
0

>  <NsCl>
0

>  <NsBr>
0

>  <NsI>
0

>  <fragCpx>
121

>  <fMF>
0.62

>  <nHBAcc>
0

>  <nHBDon>
0

>  <Kier1>
9.97

>  <Kier2>
3.75

>  <Lipinski>
1

>  <GhoseFilter>
1

>  <FilterItLogS>
-5.07

>  <VMcGowan>
158.46

>  <LabuteASA>
93.46

>  <PEOE_VSA1>
0

>  <PEOE_VSA2>
0

>  <PEOE_VSA3>
0

>  <PEOE_VSA4>
0

>  <PEOE_VSA5>
0

>  <PEOE_VSA6>
60.66

>  <PEOE_VSA7>
32.32

>  <PEOE_VSA8>
0

>  <PEOE_VSA9>
0

>  <PEOE_VSA10>
0

>  <PEOE_VSA11>
0

>  <PEOE_VSA12>
0

>  <PEOE_VSA13>
0

>  <SMR_VSA1>
0

>  <SMR_VSA2>
0

>  <SMR_VSA3>
0

>  <SMR_VSA4>
0

>  <SMR_VSA5>
0

>  <SMR_VSA6>
0

>  <SMR_VSA7>
60.66

>  <SMR_VSA8>
0

>  <SMR_VSA9>
0

>  <SlogP_VSA1>
0

>  <SlogP_VSA2>
0

>  <SlogP_VSA3>
0

>  <SlogP_VSA4>
0

>  <SlogP_VSA5>
0

>  <SlogP_VSA6>
60.66

>  <SlogP_VSA7>
0

>  <SlogP_VSA8>
32.32

>  <SlogP_VSA9>
0

>  <SlogP_VSA10>
0

>  <SlogP_VSA11>
0

>  <EState_VSA1>
0

>  <EState_VSA2>
0

>  <EState_VSA3>
0

>  <EState_VSA4>
0

>  <EState_VSA5>
32.32

>  <EState_VSA6>
0

>  <EState_VSA7>
0

>  <EState_VSA8>
60.66

>  <EState_VSA9>
0

>  <EState_VSA10>
0

>  <VSA_EState1>
0

>  <VSA_EState2>
0

>  <VSA_EState3>
8.14

>  <VSA_EState4>
0

>  <VSA_EState5>
0

>  <VSA_EState6>
21.86

>  <VSA_EState7>
0

>  <VSA_EState8>
0

>  <VSA_EState9>
0

>  <apol>
33.39

>  <bpol>
10.03

>  <nRing>
4

>  <nHRing>
0

>  <naRing>
4

>  <naHRing>
0

>  <nARing 2>
0

>  <nAHRing 2>
0

>  <nFRing>
1

>  <nFHRing>
0

>  <nFaRing>
1

>  <nFaHRing>
0

>  <nFARing 2>
0

>  <nFAHRing 2>
0

>  <nRot>
0

>  <SLogP>
4.58

>  <SMR>
70.15

>  <TopoPSA(NO)>
0

>  <TopoPSA>
0

>  <JGI1>
0.11

>  <JGI2>
0.06

>  <JGI3>
0.04

>  <JGI4>
0.04

>  <JGI5>
0.01

>  <Diameter>
7

>  <Radius>
4

>  <TMWC10>
109.15

>  <TSRW10>
49.73

>  <MW>
202.08

>  <AMW>
7.77

>  <WPath>
362

>  <WPol>
30

>  <Zagreb1>
94

>  <Zagreb2>
117

>  <mZagreb2>
3.39

>  <yes>


>  <nAR-cont>
0.336376

>  <nHA-cont>
0.954961865

>  <MWHBN>
0

>  <MWHBN-cont>
0

>  <TPSA-cont>
0

>  <pka_cont>
0.97

>  <yes.1>


>  <BBB_SCORE>
1.776337865

>  <MMFF94 Energy>
59.539

$$$$
Compound 481
Actelion Java MolfileCreator 2.0

  0  0  0  0  0  0              0 V3000
M  V30 BEGIN CTAB
M  V30 COUNTS 26 27 0 0 0
M  V30 BEGIN ATOM
M  V30 1 N -0.0788 3.3157 -1.341 0
M  V30 2 C -0.3451 2.3806 -0.3996 0
M  V30 3 C 0.6312 2.9072 -2.4139 0
M  V30 4 C 0.0594 1.05 -0.473 0
M  V30 5 C 1.0894 1.6124 -2.5863 0
M  V30 6 C 0.8009 0.6749 -1.599 0
M  V30 7 C -0.2658 0.0913 0.645 0 CFG=1
M  V30 8 N -0.5986 -1.2707 0.183 0
M  V30 9 C 0.9302 -0.1126 1.5901 0
M  V30 10 C -0.2888 -2.1576 1.3039 0
M  V30 11 C -1.9844 -1.3997 -0.2505 0
M  V30 12 C 1.0506 -1.621 1.7683 0
M  V30 13 H -0.9148 2.7507 0.4489 0
M  V30 14 H 0.8304 3.6742 -3.1565 0
M  V30 15 H 1.6575 1.3377 -3.4674 0
M  V30 16 H 1.1492 -0.3496 -1.708 0
M  V30 17 H -1.1013 0.4903 1.2389 0
M  V30 18 H 1.8729 0.3016 1.2149 0
M  V30 19 H 0.7235 0.362 2.5572 0
M  V30 20 H -1.0302 -2.0744 2.1089 0
M  V30 21 H -0.2174 -3.2049 0.9944 0
M  V30 22 H -2.183 -2.4238 -0.5852 0
M  V30 23 H -2.1886 -0.7439 -1.1036 0
M  V30 24 H -2.6959 -1.1571 0.5471 0
M  V30 25 H 1.8565 -2.0052 1.1308 0
M  V30 26 H 1.2761 -1.8982 2.8024 0
M  V30 END ATOM
M  V30 BEGIN BOND
M  V30 1 2 1 2
M  V30 2 1 1 3
M  V30 3 1 2 4
M  V30 4 2 3 5
M  V30 5 2 4 6
M  V30 6 1 4 7
M  V30 7 1 7 8
M  V30 8 1 7 9
M  V30 9 1 8 10
M  V30 10 1 8 11
M  V30 11 1 9 12
M  V30 12 1 5 6
M  V30 13 1 10 12
M  V30 14 1 2 13
M  V30 15 1 3 14
M  V30 16 1 5 15
M  V30 17 1 6 16
M  V30 18 1 7 17
M  V30 19 1 9 18
M  V30 20 1 9 19
M  V30 21 1 10 20
M  V30 22 1 10 21
M  V30 23 1 11 22
M  V30 24 1 11 23
M  V30 25 1 11 24
M  V30 26 1 12 25
M  V30 27 1 12 26
M  V30 END BOND
M  V30 BEGIN COLLECTION
M  V30 MDLV30/STERAC1 ATOMS=(1 7)
M  V30 END COLLECTION
M  V30 END CTAB
M  END
>  <Column 1>
596

>  <level_0>
677

>  <index>
677

>  <Unnamed: 0>
677

>  <NO.>
688

>  <Name>
nicotine

>  <IUPAC_name>
3-(1-methylpyrrolidin-2-yl)pyridine

>  <SMILES>
CN1CCCC1c1cccnc1

>  <CID>
942

>  <logBB>
0.24

>  <BBB+/BBB->
BBB+

>  <Inchi>
InChI=1S/C10H14N2/c1-12-7-3-5-10(12)9-4-2-6-11-8-9/h2-4-6-8-10H-3-5-7H2-1H3

>  <threshold>


>  <reference>
R25|R41|R3|R38|R46|R47|R2|R2|R27|R40|R8|R21|R27|R43|R4|

>  <group>
A

>  <Class>
1

>  <ABC>
9.22

>  <ABCGG>
8.57

>  <nAcid>
0

>  <nBase>
1

>  <nAromAtom>
6

>  <nAromBond>
6

>  <nAtom>
26

>  <nHeavyAtom>
12

>  <nSpiro>
0

>  <nBridgehead>
0

>  <nHetero>
2

>  <nN>
2

>  <nO>
0

>  <nF>
0

>  <BalabanJ>
1.89

>  <BertzCT>
245.28

>  <nBonds>
27

>  <nBondsO>
13

>  <nBondsS>
21

>  <nBondsD>
0

>  <nBondsT>
0

>  <nBondsA>
6

>  <nBondsM>
6

>  <nBondsKS>
24

>  <nBondsKD>
3

>  <RNCG>
0.39

>  <RPCG>
0.11

>  <FCSP3>
0.5

>  <SZ>
14.67

>  <Sm>
13.51

>  <Sv>
15.31

>  <Sse>
25.54

>  <Sp>
16.91

>  <Si>
29.49

>  <MZ>
0.56

>  <Mm>
0.52

>  <Mv>
0.59

>  <Mse>
0.98

>  <Mp>
0.65

>  <Mi>
1.13

>  <NsCH3>
1

>  <NdCH2>
0

>  <NssCH2>
3

>  <NtCH>
0

>  <NdsCH>
0

>  <NaaCH>
4

>  <NsssCH>
1

>  <NddC>
0

>  <NtsC>
0

>  <NdssC>
0

>  <NaasC>
1

>  <NaaaC>
0

>  <NssssC>
0

>  <NsNH3>
0

>  <NsNH2>
0

>  <NssNH2>
0

>  <NdNH>
0

>  <NssNH>
0

>  <NaaNH>
0

>  <NtN>
0

>  <NsssNH>
0

>  <NdsN>
0

>  <NaaN>
1

>  <NsssN>
1

>  <NddsN>
0

>  <NaasN>
0

>  <NssssN>
0

>  <NsOH>
0

>  <NdO>
0

>  <NssO>
0

>  <NaaO>
0

>  <NsF>
0

>  <NsSiH3>
0

>  <NssSiH2>
0

>  <NsssSiH>
0

>  <NssssSi>
0

>  <NsPH2>
0

>  <NssPH>
0

>  <NsssP>
0

>  <NdsssP>
0

>  <NsssssP>
0

>  <NsSH>
0

>  <NdS>
0

>  <NssS>
0

>  <NaaS>
0

>  <NdssS>
0

>  <NddssS>
0

>  <NsCl>
0

>  <NsBr>
0

>  <NsI>
0

>  <fragCpx>
37.02

>  <fMF>
0.42

>  <nHBAcc>
2

>  <nHBDon>
0

>  <Kier1>
8.59

>  <Kier2>
3.81

>  <Lipinski>
1

>  <GhoseFilter>
1

>  <FilterItLogS>
-2.01

>  <VMcGowan>
137.1

>  <LabuteASA>
73.23

>  <PEOE_VSA1>
0

>  <PEOE_VSA2>
9.88

>  <PEOE_VSA3>
0

>  <PEOE_VSA4>
0

>  <PEOE_VSA5>
0

>  <PEOE_VSA6>
6.07

>  <PEOE_VSA7>
38.06

>  <PEOE_VSA8>
18.44

>  <PEOE_VSA9>
0

>  <PEOE_VSA10>
0

>  <PEOE_VSA11>
0

>  <PEOE_VSA12>
0

>  <PEOE_VSA13>
0

>  <SMR_VSA1>
0

>  <SMR_VSA2>
0

>  <SMR_VSA3>
9.88

>  <SMR_VSA4>
0

>  <SMR_VSA5>
18.88

>  <SMR_VSA6>
13.59

>  <SMR_VSA7>
30.09

>  <SMR_VSA8>
0

>  <SMR_VSA9>
0

>  <SlogP_VSA1>
0

>  <SlogP_VSA2>
23.48

>  <SlogP_VSA3>
0

>  <SlogP_VSA4>
0

>  <SlogP_VSA5>
24.45

>  <SlogP_VSA6>
24.53

>  <SlogP_VSA7>
0

>  <SlogP_VSA8>
0

>  <SlogP_VSA9>
0

>  <SlogP_VSA10>
0

>  <SlogP_VSA11>
0

>  <EState_VSA1>
0

>  <EState_VSA2>
0

>  <EState_VSA3>
6.04

>  <EState_VSA4>
0

>  <EState_VSA5>
24.95

>  <EState_VSA6>
0

>  <EState_VSA7>
18.46

>  <EState_VSA8>
23

>  <EState_VSA9>
0

>  <EState_VSA10>
0

>  <VSA_EState1>
0

>  <VSA_EState2>
6.54

>  <VSA_EState3>
0

>  <VSA_EState4>
1.36

>  <VSA_EState5>
0

>  <VSA_EState6>
4.79

>  <VSA_EState7>
6.41

>  <VSA_EState8>
1.22

>  <VSA_EState9>
2.19

>  <apol>
28.24

>  <bpol>
16.89

>  <nRing>
2

>  <nHRing>
2

>  <naRing>
1

>  <naHRing>
1

>  <nARing 2>
1

>  <nAHRing 2>
1

>  <nFRing>
0

>  <nFHRing>
0

>  <nFaRing>
0

>  <nFaHRing>
0

>  <nFARing 2>
0

>  <nFAHRing 2>
0

>  <nRot>
1

>  <SLogP>
1.85

>  <SMR>
48.84

>  <TopoPSA(NO)>
16.13

>  <TopoPSA>
16.13

>  <JGI1>
0.12

>  <JGI2>
0.08

>  <JGI3>
0.05

>  <JGI4>
0.03

>  <JGI5>
0.02

>  <Diameter>
6

>  <Radius>
3

>  <TMWC10>
92.28

>  <TSRW10>
56.16

>  <MW>
162.12

>  <AMW>
6.24

>  <WPath>
191

>  <WPol>
14

>  <Zagreb1>
60

>  <Zagreb2>
69

>  <mZagreb2>
2.72

>  <yes>


>  <nAR-cont>
0.816016

>  <nHA-cont>
0.785745021

>  <MWHBN>
0.157076674

>  <MWHBN-cont>
0.949553191

>  <TPSA-cont>
0.887402584

>  <pka_cont>
0.97

>  <yes.1>


>  <BBB_SCORE>
5.285895975

>  <MMFF94 Energy>
25.143

$$$$
Compound 482
Actelion Java MolfileCreator 2.0

  0  0  0  0  0  0              0 V3000
M  V30 BEGIN CTAB
M  V30 COUNTS 54 57 0 0 0
M  V30 BEGIN ATOM
M  V30 1 F -2.3346 4.0278 4.9963 0
M  V30 2 C -2.6769 4.3806 3.7297 0
M  V30 3 F -3.4382 5.5006 3.8376 0
M  V30 4 F -3.4987 3.4066 3.2602 0
M  V30 5 C -1.501 4.58 2.8783 0
M  V30 6 N -0.9975 5.7128 2.4191 0
M  V30 7 N -0.7553 3.5426 2.376 0
M  V30 8 N 0.0415 5.365 1.6003 0
M  V30 9 N 0.1836 4.0501 1.5479 0
M  V30 10 C -0.8618 2.1553 2.5791 0
M  V30 11 C -0.9435 1.3142 1.4606 0
M  V30 12 C -0.858 1.6264 3.8726 0
M  V30 13 C -1.0451 -0.0784 1.6266 0
M  V30 14 C -0.9538 0.2454 4.0427 0
M  V30 15 C -1.0273 -0.5971 2.9291 0
M  V30 16 C -1.1355 -0.97 0.409 0
M  V30 17 O -1.1484 -1.9456 3.1414 0
M  V30 18 N 0.1839 -1.1233 -0.2118 0
M  V30 19 C 0.1436 -2.5325 3.3105 0
M  V30 20 C 0.1241 -1.911 -1.465 0
M  V30 21 C 1.3613 -1.6289 -2.3957 0
M  V30 22 C 0.0703 -3.412 -1.1282 0
M  V30 23 N 1.3543 -2.489 -3.5947 0
M  V30 24 C 1.4192 -0.1632 -2.818 0
M  V30 25 C 0.1422 -4.2629 -2.3933 0
M  V30 26 C 1.3599 -3.9043 -3.2377 0
M  V30 27 C 2.4029 0.685 -2.2845 0
M  V30 28 C 0.4796 0.3759 -3.712 0
M  V30 29 C 2.4387 2.0374 -2.6293 0
M  V30 30 C 0.5195 1.7273 -4.0583 0
M  V30 31 C 1.497 2.5579 -3.5146 0
M  V30 32 H -0.932 1.7327 0.4539 0
M  V30 33 H -0.7596 2.2531 4.7556 0
M  V30 34 H -0.965 -0.1799 5.0432 0
M  V30 35 H -1.8438 -0.5155 -0.296 0
M  V30 36 H -1.5562 -1.9417 0.6866 0
M  V30 37 H 0.5225 -0.1867 -0.4387 0
M  V30 38 H 0.7992 -2.3223 2.4588 0
M  V30 39 H 0.0115 -3.6166 3.3757 0
M  V30 40 H 0.6092 -2.1914 4.2415 0
M  V30 41 H -0.7839 -1.6398 -2.022 0
M  V30 42 H 2.2775 -1.8554 -1.831 0
M  V30 43 H -0.8504 -3.6607 -0.5887 0
M  V30 44 H 0.9075 -3.6786 -0.4694 0
M  V30 45 H 2.1841 -2.2729 -4.1473 0
M  V30 46 H -0.7726 -4.1202 -2.9823 0
M  V30 47 H 0.1832 -5.3235 -2.12 0
M  V30 48 H 1.3468 -4.5004 -4.1566 0
M  V30 49 H 2.2836 -4.1592 -2.7042 0
M  V30 50 H 3.1426 0.2999 -1.5857 0
M  V30 51 H -0.2873 -0.2628 -4.1461 0
M  V30 52 H 3.2001 2.6867 -2.2043 0
M  V30 53 H -0.2121 2.131 -4.7532 0
M  V30 54 H 1.5263 3.6111 -3.7817 0
M  V30 END ATOM
M  V30 BEGIN BOND
M  V30 1 1 1 2
M  V30 2 1 2 3
M  V30 3 1 2 4
M  V30 4 1 2 5
M  V30 5 2 5 6
M  V30 6 1 5 7
M  V30 7 1 6 8
M  V30 8 1 7 9
M  V30 9 1 7 10
M  V30 10 2 10 11
M  V30 11 1 10 12
M  V30 12 1 11 13
M  V30 13 2 12 14
M  V30 14 2 13 15
M  V30 15 1 13 16
M  V30 16 1 15 17
M  V30 17 1 16 18
M  V30 18 1 17 19
M  V30 19 1 18 20
M  V30 20 1 20 21
M  V30 21 1 20 22
M  V30 22 1 21 23
M  V30 23 1 21 24
M  V30 24 1 22 25
M  V30 25 1 23 26
M  V30 26 2 24 27
M  V30 27 1 24 28
M  V30 28 1 27 29
M  V30 29 2 28 30
M  V30 30 2 29 31
M  V30 31 2 8 9
M  V30 32 1 14 15
M  V30 33 1 25 26
M  V30 34 1 30 31
M  V30 35 1 11 32
M  V30 36 1 12 33
M  V30 37 1 14 34
M  V30 38 1 16 35
M  V30 39 1 16 36
M  V30 40 1 18 37
M  V30 41 1 19 38
M  V30 42 1 19 39
M  V30 43 1 19 40
M  V30 44 1 20 41
M  V30 45 1 21 42
M  V30 46 1 22 43
M  V30 47 1 22 44
M  V30 48 1 23 45
M  V30 49 1 25 46
M  V30 50 1 25 47
M  V30 51 1 26 48
M  V30 52 1 26 49
M  V30 53 1 27 50
M  V30 54 1 28 51
M  V30 55 1 29 52
M  V30 56 1 30 53
M  V30 57 1 31 54
M  V30 END BOND
M  V30 END CTAB
M  END
>  <Column 1>
597

>  <level_0>
679

>  <index>
679

>  <Unnamed: 0>
679

>  <NO.>
690

>  <Name>
gr 205171;vofopitant

>  <IUPAC_name>
n-[[2-methoxy-5-[5-(trifluoromethyl)tetrazol-1-yl]phenyl]methyl]-2-phenylpiperidin-3-amine

>  <SMILES>
COc1ccc(-n2nnnc2C(F)(F)F)cc1CNC1CCCNC1c1ccccc1

>  <CID>
122033

>  <logBB>
0.24

>  <BBB+/BBB->
BBB+

>  <Inchi>
InChI=1S/C21H23F3N6O/c1-31-18-10-9-16(30-20(21(22-23)24)27-28-29-30)12-15(18)13-26-17-8-5-11-25-19(17)14-6-3-2-4-7-14/h2-4-6-7-9-10-12-17-19-25-26H-5-8-11-13H2-1H3

>  <threshold>


>  <reference>
R18|R26|R27|

>  <group>
A

>  <Class>
1

>  <ABC>
24.25

>  <ABCGG>
19.32

>  <nAcid>
2

>  <nBase>
2

>  <nAromAtom>
17

>  <nAromBond>
17

>  <nAtom>
54

>  <nHeavyAtom>
31

>  <nSpiro>
0

>  <nBridgehead>
0

>  <nHetero>
10

>  <nN>
6

>  <nO>
1

>  <nF>
3

>  <BalabanJ>
1.36

>  <BertzCT>
1007.85

>  <nBonds>
57

>  <nBondsO>
34

>  <nBondsS>
40

>  <nBondsD>
0

>  <nBondsT>
0

>  <nBondsA>
17

>  <nBondsM>
17

>  <nBondsKS>
49

>  <nBondsKD>
8

>  <RNCG>
0.2

>  <RPCG>
0.19

>  <FCSP3>
0.38

>  <SZ>
37.67

>  <Sm>
36

>  <Sv>
34.43

>  <Sse>
55.39

>  <Sp>
35.62

>  <Si>
62.37

>  <MZ>
0.7

>  <Mm>
0.67

>  <Mv>
0.64

>  <Mse>
1.03

>  <Mp>
0.66

>  <Mi>
1.16

>  <NsCH3>
1

>  <NdCH2>
0

>  <NssCH2>
4

>  <NtCH>
0

>  <NdsCH>
0

>  <NaaCH>
8

>  <NsssCH>
2

>  <NddC>
0

>  <NtsC>
0

>  <NdssC>
0

>  <NaasC>
5

>  <NaaaC>
0

>  <NssssC>
1

>  <NsNH3>
0

>  <NsNH2>
0

>  <NssNH2>
0

>  <NdNH>
0

>  <NssNH>
2

>  <NaaNH>
0

>  <NtN>
0

>  <NsssNH>
0

>  <NdsN>
0

>  <NaaN>
3

>  <NsssN>
0

>  <NddsN>
0

>  <NaasN>
1

>  <NssssN>
0

>  <NsOH>
0

>  <NdO>
0

>  <NssO>
1

>  <NaaO>
0

>  <NsF>
3

>  <NsSiH3>
0

>  <NssSiH2>
0

>  <NsssSiH>
0

>  <NssssSi>
0

>  <NsPH2>
0

>  <NssPH>
0

>  <NsssP>
0

>  <NdsssP>
0

>  <NsssssP>
0

>  <NsSH>
0

>  <NdS>
0

>  <NssS>
0

>  <NaaS>
0

>  <NdssS>
0

>  <NddssS>
0

>  <NsCl>
0

>  <NsBr>
0

>  <NsI>
0

>  <fragCpx>
226.1

>  <fMF>
0.46

>  <nHBAcc>
7

>  <nHBDon>
2

>  <Kier1>
24.13

>  <Kier2>
10.95

>  <Lipinski>
1

>  <GhoseFilter>
1

>  <FilterItLogS>
-5.83

>  <VMcGowan>
299.94

>  <LabuteASA>
177.15

>  <PEOE_VSA1>
15.37

>  <PEOE_VSA2>
0

>  <PEOE_VSA3>
0

>  <PEOE_VSA4>
17.85

>  <PEOE_VSA5>
5.1

>  <PEOE_VSA6>
30.33

>  <PEOE_VSA7>
53.58

>  <PEOE_VSA8>
24.19

>  <PEOE_VSA9>
12.8

>  <PEOE_VSA10>
5.75

>  <PEOE_VSA11>
0

>  <PEOE_VSA12>
0

>  <PEOE_VSA13>
5.82

>  <SMR_VSA1>
17.91

>  <SMR_VSA2>
0

>  <SMR_VSA3>
30.84

>  <SMR_VSA4>
0

>  <SMR_VSA5>
37.65

>  <SMR_VSA6>
13.65

>  <SMR_VSA7>
65.48

>  <SMR_VSA8>
0

>  <SMR_VSA9>
11.44

>  <SlogP_VSA1>
15.37

>  <SlogP_VSA2>
39.9

>  <SlogP_VSA3>
12.72

>  <SlogP_VSA4>
0

>  <SlogP_VSA5>
35.83

>  <SlogP_VSA6>
48.53

>  <SlogP_VSA7>
0

>  <SlogP_VSA8>
5.69

>  <SlogP_VSA9>
0

>  <SlogP_VSA10>
13.17

>  <SlogP_VSA11>
5.75

>  <EState_VSA1>
12

>  <EState_VSA2>
17.77

>  <EState_VSA3>
16.98

>  <EState_VSA4>
24.95

>  <EState_VSA5>
18.74

>  <EState_VSA6>
12.13

>  <EState_VSA7>
18.2

>  <EState_VSA8>
38.29

>  <EState_VSA9>
4.74

>  <EState_VSA10>
13.17

>  <VSA_EState1>
45.72

>  <VSA_EState2>
0

>  <VSA_EState3>
16.94

>  <VSA_EState4>
2.14

>  <VSA_EState5>
-0.59

>  <VSA_EState6>
15.27

>  <VSA_EState7>
-2.63

>  <VSA_EState8>
1.37

>  <VSA_EState9>
1.53

>  <apol>
59.48

>  <bpol>
31

>  <nRing>
4

>  <nHRing>
2

>  <naRing>
3

>  <naHRing>
1

>  <nARing 2>
1

>  <nAHRing 2>
1

>  <nFRing>
0

>  <nFHRing>
0

>  <nFaRing>
0

>  <nFaHRing>
0

>  <nFARing 2>
0

>  <nFAHRing 2>
0

>  <nRot>
6

>  <SLogP>
3.27

>  <SMR>
107.76

>  <TopoPSA(NO)>
76.89

>  <TopoPSA>
76.89

>  <JGI1>
0.18

>  <JGI2>
0.08

>  <JGI3>
0.04

>  <JGI4>
0.04

>  <JGI5>
0.02

>  <Diameter>
14

>  <Radius>
7

>  <TMWC10>
142.51

>  <TSRW10>
80.59

>  <MW>
432.19

>  <AMW>
8

>  <WPath>
2797

>  <WPol>
49

>  <Zagreb1>
164

>  <Zagreb2>
193

>  <mZagreb2>
6.81

>  <yes>


>  <nAR-cont>
0.816016

>  <nHA-cont>
0.702745138

>  <MWHBN>
0.432917511

>  <MWHBN-cont>
0.348698946

>  <TPSA-cont>
0.463260054

>  <pka_cont>
0.97

>  <yes.1>


>  <BBB_SCORE>
3.453329666

>  <MMFF94 Energy>
74.594

$$$$
Compound 483
Actelion Java MolfileCreator 2.0

  0  0  0  0  0  0              0 V3000
M  V30 BEGIN CTAB
M  V30 COUNTS 43 44 0 0 0
M  V30 BEGIN ATOM
M  V30 1 O -4.4754 -5.3409 -2.5106 0
M  V30 2 C -3.5804 -4.6834 -2.0061 0
M  V30 3 N -2.8907 -5.0076 -0.8439 0
M  V30 4 C -3.011 -3.3585 -2.5272 0
M  V30 5 C -1.9361 -4.0498 -0.5428 0
M  V30 6 C -1.9593 -3.0445 -1.5061 0
M  V30 7 C -1.0689 -4.0321 0.5263 0
M  V30 8 C -1.0952 -1.9683 -1.4263 0
M  V30 9 C -0.1899 -2.9493 0.6191 0
M  V30 10 C -0.1923 -1.9187 -0.3508 0
M  V30 11 C 0.7573 -0.7487 -0.2121 0
M  V30 12 C 0.1456 0.3769 0.6407 0
M  V30 13 N 1.043 1.5501 0.7331 0
M  V30 14 C 2.0925 1.3212 1.7467 0
M  V30 15 C 0.2753 2.7735 1.0407 0
M  V30 16 C 3.3244 2.2203 1.5621 0
M  V30 17 C -0.3982 3.3461 -0.2136 0
M  V30 18 C 3.9906 2.0461 0.2042 0
M  V30 19 C -1.1351 4.6407 0.0985 0
M  V30 20 H -3.0816 -5.8409 -0.309 0
M  V30 21 H -2.5751 -3.5105 -3.5177 0
M  V30 22 H -3.7976 -2.5999 -2.5383 0
M  V30 23 H -1.0618 -4.8202 1.2699 0
M  V30 24 H -1.1158 -1.1831 -2.1766 0
M  V30 25 H 0.5071 -2.9052 1.4541 0
M  V30 26 H 1.0086 -0.3671 -1.2105 0
M  V30 27 H 1.6992 -1.1113 0.215 0
M  V30 28 H -0.8034 0.6576 0.1688 0
M  V30 29 H -0.1183 0.0105 1.6422 0
M  V30 30 H 2.4532 0.2871 1.6999 0
M  V30 31 H 1.6872 1.4531 2.7587 0
M  V30 32 H 0.9383 3.5557 1.4276 0
M  V30 33 H -0.4658 2.583 1.8281 0
M  V30 34 H 3.0701 3.2753 1.708 0
M  V30 35 H 4.053 1.9697 2.3429 0
M  V30 36 H 0.3583 3.5436 -0.9827 0
M  V30 37 H -1.1133 2.6353 -0.6403 0
M  V30 38 H 4.9038 2.6477 0.1537 0
M  V30 39 H 4.2642 1.0002 0.0328 0
M  V30 40 H 3.3328 2.3692 -0.6085 0
M  V30 41 H -1.6061 5.0362 -0.8067 0
M  V30 42 H -1.9186 4.4751 0.845 0
M  V30 43 H -0.4481 5.4013 0.4831 0
M  V30 END ATOM
M  V30 BEGIN BOND
M  V30 1 2 1 2
M  V30 2 1 2 3
M  V30 3 1 2 4
M  V30 4 1 3 5
M  V30 5 1 4 6
M  V30 6 1 5 7
M  V30 7 1 6 8
M  V30 8 2 7 9
M  V30 9 2 8 10
M  V30 10 1 10 11
M  V30 11 1 11 12
M  V30 12 1 12 13
M  V30 13 1 13 14
M  V30 14 1 13 15
M  V30 15 1 14 16
M  V30 16 1 15 17
M  V30 17 1 16 18
M  V30 18 1 17 19
M  V30 19 2 5 6
M  V30 20 1 9 10
M  V30 21 1 3 20
M  V30 22 1 4 21
M  V30 23 1 4 22
M  V30 24 1 7 23
M  V30 25 1 8 24
M  V30 26 1 9 25
M  V30 27 1 11 26
M  V30 28 1 11 27
M  V30 29 1 12 28
M  V30 30 1 12 29
M  V30 31 1 14 30
M  V30 32 1 14 31
M  V30 33 1 15 32
M  V30 34 1 15 33
M  V30 35 1 16 34
M  V30 36 1 16 35
M  V30 37 1 17 36
M  V30 38 1 17 37
M  V30 39 1 18 38
M  V30 40 1 18 39
M  V30 41 1 18 40
M  V30 42 1 19 41
M  V30 43 1 19 42
M  V30 44 1 19 43
M  V30 END BOND
M  V30 END CTAB
M  END
>  <Column 1>
598

>  <level_0>
681

>  <index>
681

>  <Unnamed: 0>
681

>  <NO.>
692

>  <Name>
chembl368590

>  <IUPAC_name>
5-[2-(dipropylamino)ethyl]-1-3-dihydroindol-2-one

>  <SMILES>
CCCN(CCC)CCc1ccc2c(c1)CC(=O)N2

>  <CID>
44383796

>  <logBB>
0.25

>  <BBB+/BBB->
BBB+

>  <Inchi>
InChI=1S/C16H24N2O/c1-3-8-18(9-4-2)10-7-13-5-6-15-14(11-13)12-16(19)17-15/h5-6-11H-3-4-7-10-12H2-1-2H3-(H-17-19)

>  <threshold>


>  <reference>
R2|R2|R8|R27|R48|

>  <group>
A

>  <Class>
1

>  <ABC>
14.21

>  <ABCGG>
12.15

>  <nAcid>
0

>  <nBase>
1

>  <nAromAtom>
6

>  <nAromBond>
6

>  <nAtom>
43

>  <nHeavyAtom>
19

>  <nSpiro>
0

>  <nBridgehead>
0

>  <nHetero>
3

>  <nN>
2

>  <nO>
1

>  <nF>
0

>  <BalabanJ>
1.71

>  <BertzCT>
436.38

>  <nBonds>
44

>  <nBondsO>
20

>  <nBondsS>
37

>  <nBondsD>
1

>  <nBondsT>
0

>  <nBondsA>
6

>  <nBondsM>
7

>  <nBondsKS>
40

>  <nBondsKD>
4

>  <RNCG>
0.24

>  <RPCG>
0.17

>  <FCSP3>
0.56

>  <SZ>
23.67

>  <Sm>
21.68

>  <Sv>
24.73

>  <Sse>
42.31

>  <Sp>
27.38

>  <Si>
48.77

>  <MZ>
0.55

>  <Mm>
0.5

>  <Mv>
0.58

>  <Mse>
0.98

>  <Mp>
0.64

>  <Mi>
1.13

>  <NsCH3>
2

>  <NdCH2>
0

>  <NssCH2>
7

>  <NtCH>
0

>  <NdsCH>
0

>  <NaaCH>
3

>  <NsssCH>
0

>  <NddC>
0

>  <NtsC>
0

>  <NdssC>
1

>  <NaasC>
3

>  <NaaaC>
0

>  <NssssC>
0

>  <NsNH3>
0

>  <NsNH2>
0

>  <NssNH2>
0

>  <NdNH>
0

>  <NssNH>
1

>  <NaaNH>
0

>  <NtN>
0

>  <NsssNH>
0

>  <NdsN>
0

>  <NaaN>
0

>  <NsssN>
1

>  <NddsN>
0

>  <NaasN>
0

>  <NssssN>
0

>  <NsOH>
0

>  <NdO>
1

>  <NssO>
0

>  <NaaO>
0

>  <NsF>
0

>  <NsSiH3>
0

>  <NssSiH2>
0

>  <NsssSiH>
0

>  <NssssSi>
0

>  <NsPH2>
0

>  <NssPH>
0

>  <NsssP>
0

>  <NdsssP>
0

>  <NsssssP>
0

>  <NsSH>
0

>  <NdS>
0

>  <NssS>
0

>  <NaaS>
0

>  <NdssS>
0

>  <NddssS>
0

>  <NsCl>
0

>  <NsBr>
0

>  <NsI>
0

>  <fragCpx>
58.03

>  <fMF>
0.21

>  <nHBAcc>
2

>  <nHBDon>
1

>  <Kier1>
15.39

>  <Kier2>
7.7

>  <Lipinski>
1

>  <GhoseFilter>
1

>  <FilterItLogS>
-4.98

>  <VMcGowan>
223.21

>  <LabuteASA>
115.55

>  <PEOE_VSA1>
10.22

>  <PEOE_VSA2>
4.79

>  <PEOE_VSA3>
0

>  <PEOE_VSA4>
0

>  <PEOE_VSA5>
0

>  <PEOE_VSA6>
25.98

>  <PEOE_VSA7>
49.55

>  <PEOE_VSA8>
12.23

>  <PEOE_VSA9>
6.42

>  <PEOE_VSA10>
0

>  <PEOE_VSA11>
0

>  <PEOE_VSA12>
5.91

>  <PEOE_VSA13>
0

>  <SMR_VSA1>
4.79

>  <SMR_VSA2>
0

>  <SMR_VSA3>
4.9

>  <SMR_VSA4>
0

>  <SMR_VSA5>
39.53

>  <SMR_VSA6>
24.95

>  <SMR_VSA7>
29.33

>  <SMR_VSA8>
0

>  <SMR_VSA9>
0

>  <SlogP_VSA1>
5.32

>  <SlogP_VSA2>
30.44

>  <SlogP_VSA3>
17.64

>  <SlogP_VSA4>
0

>  <SlogP_VSA5>
37.82

>  <SlogP_VSA6>
18.2

>  <SlogP_VSA7>
0

>  <SlogP_VSA8>
0

>  <SlogP_VSA9>
0

>  <SlogP_VSA10>
5.69

>  <SlogP_VSA11>
0

>  <EState_VSA1>
0

>  <EState_VSA2>
5.91

>  <EState_VSA3>
6.42

>  <EState_VSA4>
24.22

>  <EState_VSA5>
31.49

>  <EState_VSA6>
0

>  <EState_VSA7>
6.07

>  <EState_VSA8>
36.2

>  <EState_VSA9>
0

>  <EState_VSA10>
4.79

>  <VSA_EState1>
0

>  <VSA_EState2>
13.85

>  <VSA_EState3>
2.88

>  <VSA_EState4>
3.49

>  <VSA_EState5>
0.12

>  <VSA_EState6>
6.36

>  <VSA_EState7>
4.03

>  <VSA_EState8>
7.93

>  <VSA_EState9>
0

>  <apol>
45.73

>  <bpol>
27.22

>  <nRing>
2

>  <nHRing>
1

>  <naRing>
1

>  <naHRing>
0

>  <nARing 2>
1

>  <nAHRing 2>
1

>  <nFRing>
1

>  <nFHRing>
1

>  <nFaRing>
0

>  <nFaHRing>
0

>  <nFARing 2>
1

>  <nFAHRing 2>
1

>  <nRot>
7

>  <SLogP>
2.85

>  <SMR>
79.5

>  <TopoPSA(NO)>
32.34

>  <TopoPSA>
32.34

>  <JGI1>
0.2

>  <JGI2>
0.06

>  <JGI3>
0.05

>  <JGI4>
0.03

>  <JGI5>
0.02

>  <Diameter>
11

>  <Radius>
6

>  <TMWC10>
110.07

>  <TSRW10>
65.57

>  <MW>
260.19

>  <AMW>
6.05

>  <WPath>
795

>  <WPol>
24

>  <Zagreb1>
92

>  <Zagreb2>
104

>  <mZagreb2>
4.44

>  <yes>


>  <nAR-cont>
0.816016

>  <nHA-cont>
0.998649058

>  <MWHBN>
0.185984159

>  <MWHBN-cont>
0.992789747

>  <TPSA-cont>
0.774246718

>  <pka_cont>
0.97

>  <yes.1>


>  <BBB_SCORE>
5.337343114

>  <MMFF94 Energy>
26.257

$$$$
Compound 484
Actelion Java MolfileCreator 2.0

  0  0  0  0  0  0              0 V3000
M  V30 BEGIN CTAB
M  V30 COUNTS 40 42 0 0 0
M  V30 BEGIN ATOM
M  V30 1 N -1.4234 1.9774 2.9277 0
M  V30 2 C -1.563 3.2969 2.7673 0
M  V30 3 C -0.7644 1.302 1.9614 0
M  V30 4 N -1.1037 3.9889 1.7229 0
M  V30 5 N -2.2224 3.9852 3.7412 0
M  V30 6 C -0.2672 1.9179 0.8308 0
M  V30 7 C -0.6464 -0.1845 2.1466 0
M  V30 8 C -0.4595 3.2825 0.7762 0
M  V30 9 C 0.4855 1.1856 -0.2372 0
M  V30 10 C 0.4525 -0.8186 1.2796 0 CFG=2
M  V30 11 C 0.3118 -0.3555 -0.1962 0 CFG=2
M  V30 12 C 0.3922 -2.3441 1.4106 0
M  V30 13 N 1.2854 -1.0604 -1.0578 0
M  V30 14 C 1.3971 -2.9967 0.4761 0
M  V30 15 C 1.1853 -2.5214 -0.9571 0
M  V30 16 C 1.3917 -0.6155 -2.4553 0
M  V30 17 C 0.3589 -1.0945 -3.4894 0
M  V30 18 C -1.0656 -0.6235 -3.2583 0
M  V30 19 H -2.3221 4.9778 3.6289 0
M  V30 20 H -2.5615 3.4692 4.5328 0
M  V30 21 H -0.4471 -0.4012 3.2035 0
M  V30 22 H -1.621 -0.6265 1.9022 0
M  V30 23 H -0.0893 3.873 -0.0574 0
M  V30 24 H 0.1477 1.5649 -1.2087 0
M  V30 25 H 1.5485 1.4397 -0.1292 0
M  V30 26 H 1.4309 -0.4832 1.6561 0
M  V30 27 H -0.7081 -0.5945 -0.5194 0
M  V30 28 H 0.5996 -2.6442 2.4446 0
M  V30 29 H -0.6154 -2.7055 1.1684 0
M  V30 30 H 2.4173 -2.7577 0.8017 0
M  V30 31 H 1.2928 -4.0866 0.524 0
M  V30 32 H 0.2088 -2.8717 -1.3143 0
M  V30 33 H 1.9522 -2.9953 -1.5822 0
M  V30 34 H 2.3709 -0.9632 -2.8142 0
M  V30 35 H 1.4766 0.4747 -2.5131 0
M  V30 36 H 0.6813 -0.7211 -4.4701 0
M  V30 37 H 0.3727 -2.1874 -3.5703 0
M  V30 38 H -1.6737 -0.8283 -4.1459 0
M  V30 39 H -1.5317 -1.1533 -2.424 0
M  V30 40 H -1.1049 0.4525 -3.0661 0
M  V30 END ATOM
M  V30 BEGIN BOND
M  V30 1 2 1 2
M  V30 2 1 1 3
M  V30 3 1 2 4
M  V30 4 1 2 5
M  V30 5 2 3 6
M  V30 6 1 3 7
M  V30 7 2 4 8
M  V30 8 1 6 9
M  V30 9 1 7 10
M  V30 10 1 9 11
M  V30 11 1 10 12
M  V30 12 1 11 13
M  V30 13 1 12 14
M  V30 14 1 13 15
M  V30 15 1 13 16
M  V30 16 1 16 17
M  V30 17 1 17 18
M  V30 18 1 6 8
M  V30 19 1 10 11
M  V30 20 1 14 15
M  V30 21 1 5 19
M  V30 22 1 5 20
M  V30 23 1 7 21
M  V30 24 1 7 22
M  V30 25 1 8 23
M  V30 26 1 9 24
M  V30 27 1 9 25
M  V30 28 1 10 26
M  V30 29 1 11 27
M  V30 30 1 12 28
M  V30 31 1 12 29
M  V30 32 1 14 30
M  V30 33 1 14 31
M  V30 34 1 15 32
M  V30 35 1 15 33
M  V30 36 1 16 34
M  V30 37 1 16 35
M  V30 38 1 17 36
M  V30 39 1 17 37
M  V30 40 1 18 38
M  V30 41 1 18 39
M  V30 42 1 18 40
M  V30 END BOND
M  V30 BEGIN COLLECTION
M  V30 MDLV30/STEABS ATOMS=(2 10 11)
M  V30 END COLLECTION
M  V30 END CTAB
M  END
>  <Column 1>
599

>  <level_0>
682

>  <index>
682

>  <Unnamed: 0>
682

>  <NO.>
693

>  <Name>
ropinirole hydrochloride

>  <IUPAC_name>
(5ar-9ar)-6-propyl-5a-7-8-9-9a-10-hexahydro-5h-pyrido[2-3-g]quinazolin-2-amine;dihydrochloride

>  <SMILES>
CCCN1CCC[C@@H]2Cc3nc(N)ncc3C[C@H]21

>  <CID>
57242

>  <logBB>
0.25

>  <BBB+/BBB->
BBB+

>  <Inchi>
InChI=1S/C14H22N4/c1-2-5-18-6-3-4-10-7-12-11(8-13(10)18)9-16-14(15)17-12/h9-10-13H-2-8H2-1H3-(H2-15-16-17)/t10--13-/m1/s1

>  <threshold>


>  <reference>
R39|

>  <group>
A

>  <Class>
1

>  <ABC>
14.13

>  <ABCGG>
11.09

>  <nAcid>
0

>  <nBase>
1

>  <nAromAtom>
6

>  <nAromBond>
6

>  <nAtom>
40

>  <nHeavyAtom>
18

>  <nSpiro>
0

>  <nBridgehead>
0

>  <nHetero>
4

>  <nN>
4

>  <nO>
0

>  <nF>
0

>  <BalabanJ>
1.67

>  <BertzCT>
429.8

>  <nBonds>
42

>  <nBondsO>
20

>  <nBondsS>
36

>  <nBondsD>
0

>  <nBondsT>
0

>  <nBondsA>
6

>  <nBondsM>
6

>  <nBondsKS>
39

>  <nBondsKD>
3

>  <RNCG>
0.27

>  <RPCG>
0.16

>  <FCSP3>
0.71

>  <SZ>
22.33

>  <Sm>
20.51

>  <Sv>
22.99

>  <Sse>
39.42

>  <Sp>
25.42

>  <Si>
45.73

>  <MZ>
0.56

>  <Mm>
0.51

>  <Mv>
0.57

>  <Mse>
0.99

>  <Mp>
0.64

>  <Mi>
1.14

>  <NsCH3>
1

>  <NdCH2>
0

>  <NssCH2>
7

>  <NtCH>
0

>  <NdsCH>
0

>  <NaaCH>
1

>  <NsssCH>
2

>  <NddC>
0

>  <NtsC>
0

>  <NdssC>
0

>  <NaasC>
3

>  <NaaaC>
0

>  <NssssC>
0

>  <NsNH3>
0

>  <NsNH2>
1

>  <NssNH2>
0

>  <NdNH>
0

>  <NssNH>
0

>  <NaaNH>
0

>  <NtN>
0

>  <NsssNH>
0

>  <NdsN>
0

>  <NaaN>
2

>  <NsssN>
1

>  <NddsN>
0

>  <NaasN>
0

>  <NssssN>
0

>  <NsOH>
0

>  <NdO>
0

>  <NssO>
0

>  <NaaO>
0

>  <NsF>
0

>  <NsSiH3>
0

>  <NssSiH2>
0

>  <NsssSiH>
0

>  <NssssSi>
0

>  <NsPH2>
0

>  <NssPH>
0

>  <NsssP>
0

>  <NdsssP>
0

>  <NsssssP>
0

>  <NsSH>
0

>  <NdS>
0

>  <NssS>
0

>  <NaaS>
0

>  <NdssS>
0

>  <NddssS>
0

>  <NsCl>
0

>  <NsBr>
0

>  <NsI>
0

>  <fragCpx>
94.04

>  <fMF>
0.35

>  <nHBAcc>
4

>  <nHBDon>
1

>  <Kier1>
13.01

>  <Kier2>
5.55

>  <Lipinski>
1

>  <GhoseFilter>
1

>  <FilterItLogS>
-3.16

>  <VMcGowan>
202.56

>  <LabuteASA>
108.61

>  <PEOE_VSA1>
5.73

>  <PEOE_VSA2>
4.9

>  <PEOE_VSA3>
9.97

>  <PEOE_VSA4>
0

>  <PEOE_VSA5>
0

>  <PEOE_VSA6>
6.92

>  <PEOE_VSA7>
56.67

>  <PEOE_VSA8>
17.93

>  <PEOE_VSA9>
0

>  <PEOE_VSA10>
0

>  <PEOE_VSA11>
0

>  <PEOE_VSA12>
5.95

>  <PEOE_VSA13>
0

>  <SMR_VSA1>
0

>  <SMR_VSA2>
0

>  <SMR_VSA3>
14.87

>  <SMR_VSA4>
5.92

>  <SMR_VSA5>
45.07

>  <SMR_VSA6>
18.82

>  <SMR_VSA7>
17.45

>  <SMR_VSA8>
0

>  <SMR_VSA9>
0

>  <SlogP_VSA1>
5.73

>  <SlogP_VSA2>
34

>  <SlogP_VSA3>
12.84

>  <SlogP_VSA4>
5.92

>  <SlogP_VSA5>
37.44

>  <SlogP_VSA6>
6.2

>  <SlogP_VSA7>
0

>  <SlogP_VSA8>
0

>  <SlogP_VSA9>
0

>  <SlogP_VSA10>
5.95

>  <SlogP_VSA11>
0

>  <EState_VSA1>
0

>  <EState_VSA2>
0

>  <EState_VSA3>
11.99

>  <EState_VSA4>
18.76

>  <EState_VSA5>
43.61

>  <EState_VSA6>
0

>  <EState_VSA7>
6.2

>  <EState_VSA8>
21.79

>  <EState_VSA9>
5.73

>  <EState_VSA10>
0

>  <VSA_EState1>
0

>  <VSA_EState2>
11.25

>  <VSA_EState3>
0

>  <VSA_EState4>
8.2

>  <VSA_EState5>
1.19

>  <VSA_EState6>
0.71

>  <VSA_EState7>
8.06

>  <VSA_EState8>
4.76

>  <VSA_EState9>
0

>  <apol>
42.45

>  <bpol>
25.49

>  <nRing>
3

>  <nHRing>
2

>  <naRing>
1

>  <naHRing>
1

>  <nARing 2>
2

>  <nAHRing 2>
1

>  <nFRing>
1

>  <nFHRing>
1

>  <nFaRing>
0

>  <nFaHRing>
0

>  <nFARing 2>
1

>  <nFAHRing 2>
1

>  <nRot>
2

>  <SLogP>
1.65

>  <SMR>
72.23

>  <TopoPSA(NO)>
55.04

>  <TopoPSA>
55.04

>  <JGI1>
0.18

>  <JGI2>
0.07

>  <JGI3>
0.03

>  <JGI4>
0.06

>  <JGI5>
0.02

>  <Diameter>
10

>  <Radius>
5

>  <TMWC10>
111

>  <TSRW10>
51.45

>  <MW>
246.18

>  <AMW>
6.15

>  <WPath>
580

>  <WPol>
29

>  <Zagreb1>
96

>  <Zagreb2>
114

>  <mZagreb2>
4

>  <yes>


>  <nAR-cont>
1

>  <nHA-cont>
0.991161285

>  <MWHBN>
0.318671791

>  <MWHBN-cont>
0.781605454

>  <TPSA-cont>
0.615786622

>  <pka_cont>
0.97

>  <yes.1>


>  <BBB_SCORE>
4.88014271

>  <MMFF94 Energy>
-71.286

$$$$
Compound 485
Actelion Java MolfileCreator 2.0

  0  0  0  0  0  0              0 V3000
M  V30 BEGIN CTAB
M  V30 COUNTS 55 58 0 0 0
M  V30 BEGIN ATOM
M  V30 1 F 5.5237 -1.2787 -6.7276 0
M  V30 2 C 4.5488 -0.6454 -6.0631 0
M  V30 3 C 3.6284 0.1225 -6.7645 0
M  V30 4 C 4.4724 -0.7659 -4.6802 0
M  V30 5 C 2.6124 0.7824 -6.0695 0
M  V30 6 C 3.4571 -0.1064 -3.9804 0
M  V30 7 C 2.5187 0.6733 -4.6722 0
M  V30 8 C 1.4121 1.4007 -3.9751 0
M  V30 9 O 0.6219 2.067 -4.6413 0
M  V30 10 C 1.3127 1.2936 -2.4636 0
M  V30 11 C 0.0989 2.0446 -1.9107 0
M  V30 12 C 0.0521 2.0471 -0.3769 0
M  V30 13 N 0.133 0.7064 0.2319 0
M  V30 14 C -1.0869 -0.0755 -0.019 0
M  V30 15 C 0.338 0.8326 1.6834 0
M  V30 16 C -0.9615 -1.4965 0.5253 0
M  V30 17 C 0.591 -0.5305 2.3163 0
M  V30 18 C -0.4918 -1.5609 1.9799 0
M  V30 19 N -1.607 -1.5747 2.9601 0
M  V30 20 C 0.1179 -2.9566 2.222 0
M  V30 21 C -2.4174 -0.5161 3.2811 0
M  V30 22 C -1.5402 -2.7041 3.8613 0
M  V30 23 O 1.0284 -3.4979 1.6148 0
M  V30 24 N -0.5334 -3.5268 3.2909 0
M  V30 25 C -3.5522 -0.2312 2.515 0
M  V30 26 C -2.1657 0.2879 4.4 0
M  V30 27 C -4.3965 0.8351 2.8365 0
M  V30 28 C -3.0044 1.3569 4.7282 0
M  V30 29 C -4.12 1.632 3.9433 0
M  V30 30 H 3.7043 0.204 -7.8441 0
M  V30 31 H 5.2029 -1.3736 -4.1547 0
M  V30 32 H 1.8923 1.3831 -6.6229 0
M  V30 33 H 3.4216 -0.2201 -2.9006 0
M  V30 34 H 1.2345 0.233 -2.2019 0
M  V30 35 H 2.2271 1.7115 -2.0277 0
M  V30 36 H 0.1279 3.0875 -2.2519 0
M  V30 37 H -0.8231 1.6209 -2.3255 0
M  V30 38 H 0.9077 2.6452 -0.0358 0
M  V30 39 H -0.8501 2.575 -0.0415 0
M  V30 40 H -1.2676 -0.1656 -1.0958 0
M  V30 41 H -1.9634 0.4286 0.3998 0
M  V30 42 H -0.5108 1.3368 2.1593 0
M  V30 43 H 1.2214 1.4531 1.8802 0
M  V30 44 H -1.916 -2.0228 0.3991 0
M  V30 45 H -0.2453 -2.0277 -0.117 0
M  V30 46 H 1.5657 -0.8879 1.9551 0
M  V30 47 H 0.7044 -0.4161 3.4017 0
M  V30 48 H -1.2244 -2.429 4.8725 0
M  V30 49 H -2.4804 -3.2626 3.8959 0
M  V30 50 H -0.2823 -4.4454 3.6234 0
M  V30 51 H -3.7941 -0.8536 1.6573 0
M  V30 52 H -1.2962 0.0955 5.0231 0
M  V30 53 H -5.2706 1.0376 2.2235 0
M  V30 54 H -2.784 1.9731 5.5958 0
M  V30 55 H -4.7746 2.4619 4.1955 0
M  V30 END ATOM
M  V30 BEGIN BOND
M  V30 1 1 1 2
M  V30 2 2 2 3
M  V30 3 1 2 4
M  V30 4 1 3 5
M  V30 5 2 4 6
M  V30 6 2 5 7
M  V30 7 1 7 8
M  V30 8 2 8 9
M  V30 9 1 8 10
M  V30 10 1 10 11
M  V30 11 1 11 12
M  V30 12 1 12 13
M  V30 13 1 13 14
M  V30 14 1 13 15
M  V30 15 1 14 16
M  V30 16 1 15 17
M  V30 17 1 16 18
M  V30 18 1 18 19
M  V30 19 1 18 20
M  V30 20 1 19 21
M  V30 21 1 19 22
M  V30 22 2 20 23
M  V30 23 1 20 24
M  V30 24 2 21 25
M  V30 25 1 21 26
M  V30 26 1 25 27
M  V30 27 2 26 28
M  V30 28 2 27 29
M  V30 29 1 6 7
M  V30 30 1 17 18
M  V30 31 1 22 24
M  V30 32 1 28 29
M  V30 33 1 3 30
M  V30 34 1 4 31
M  V30 35 1 5 32
M  V30 36 1 6 33
M  V30 37 1 10 34
M  V30 38 1 10 35
M  V30 39 1 11 36
M  V30 40 1 11 37
M  V30 41 1 12 38
M  V30 42 1 12 39
M  V30 43 1 14 40
M  V30 44 1 14 41
M  V30 45 1 15 42
M  V30 46 1 15 43
M  V30 47 1 16 44
M  V30 48 1 16 45
M  V30 49 1 17 46
M  V30 50 1 17 47
M  V30 51 1 22 48
M  V30 52 1 22 49
M  V30 53 1 24 50
M  V30 54 1 25 51
M  V30 55 1 26 52
M  V30 56 1 27 53
M  V30 57 1 28 54
M  V30 58 1 29 55
M  V30 END BOND
M  V30 END CTAB
M  END
>  <Column 1>
600

>  <level_0>
683

>  <index>
683

>  <Unnamed: 0>
683

>  <NO.>
694

>  <Name>
spiperone

>  <IUPAC_name>
8-[4-(4-fluorophenyl)-4-oxobutyl]-1-phenyl-1-3-8-triazaspiro[4.5]decan-4-one

>  <SMILES>
O=C(CCCN1CCC2(CC1)C(=O)NCN2c1ccccc1)c1ccc(F)cc1

>  <CID>
5265

>  <logBB>
0.26

>  <BBB+/BBB->
BBB+

>  <Inchi>
InChI=1S/C23H26FN3O2/c24-19-10-8-18(9-11-19)21(28)7-4-14-26-15-12-23(13-16-26)22(29)25-17-27(23)20-5-2-1-3-6-20/h1-3-5-6-8-11H-4-7-12-17H2-(H-25-29)

>  <threshold>


>  <reference>
R2|R2|R8|R27|R40|R3|R18|R21|R25|R26|R27|R27|R38|R41|R43|R47|

>  <group>
A

>  <Class>
1

>  <ABC>
22.75

>  <ABCGG>
17.12

>  <nAcid>
0

>  <nBase>
1

>  <nAromAtom>
12

>  <nAromBond>
12

>  <nAtom>
55

>  <nHeavyAtom>
29

>  <nSpiro>
1

>  <nBridgehead>
0

>  <nHetero>
6

>  <nN>
3

>  <nO>
2

>  <nF>
1

>  <BalabanJ>
1.21

>  <BertzCT>
861.45

>  <nBonds>
58

>  <nBondsO>
32

>  <nBondsS>
44

>  <nBondsD>
2

>  <nBondsT>
0

>  <nBondsA>
12

>  <nBondsM>
14

>  <nBondsKS>
50

>  <nBondsKD>
8

>  <RNCG>
0.15

>  <RPCG>
0.11

>  <FCSP3>
0.39

>  <SZ>
35

>  <Sm>
32.93

>  <Sv>
34.39

>  <Sse>
55.15

>  <Sp>
36.65

>  <Si>
62.24

>  <MZ>
0.64

>  <Mm>
0.6

>  <Mv>
0.63

>  <Mse>
1

>  <Mp>
0.67

>  <Mi>
1.13

>  <NsCH3>
0

>  <NdCH2>
0

>  <NssCH2>
8

>  <NtCH>
0

>  <NdsCH>
0

>  <NaaCH>
9

>  <NsssCH>
0

>  <NddC>
0

>  <NtsC>
0

>  <NdssC>
2

>  <NaasC>
3

>  <NaaaC>
0

>  <NssssC>
1

>  <NsNH3>
0

>  <NsNH2>
0

>  <NssNH2>
0

>  <NdNH>
0

>  <NssNH>
1

>  <NaaNH>
0

>  <NtN>
0

>  <NsssNH>
0

>  <NdsN>
0

>  <NaaN>
0

>  <NsssN>
2

>  <NddsN>
0

>  <NaasN>
0

>  <NssssN>
0

>  <NsOH>
0

>  <NdO>
2

>  <NssO>
0

>  <NaaO>
0

>  <NsF>
1

>  <NsSiH3>
0

>  <NssSiH2>
0

>  <NsssSiH>
0

>  <NssssSi>
0

>  <NsPH2>
0

>  <NssPH>
0

>  <NsssP>
0

>  <NdsssP>
0

>  <NsssssP>
0

>  <NsSH>
0

>  <NdS>
0

>  <NssS>
0

>  <NaaS>
0

>  <NdssS>
0

>  <NddssS>
0

>  <NsCl>
0

>  <NsBr>
0

>  <NsI>
0

>  <fragCpx>
212.06

>  <fMF>
0.47

>  <nHBAcc>
4

>  <nHBDon>
1

>  <Kier1>
22.2

>  <Kier2>
10.08

>  <Lipinski>
1

>  <GhoseFilter>
1

>  <FilterItLogS>
-5.46

>  <VMcGowan>
300.53

>  <LabuteASA>
170.05

>  <PEOE_VSA1>
15.12

>  <PEOE_VSA2>
9.59

>  <PEOE_VSA3>
4.39

>  <PEOE_VSA4>
0

>  <PEOE_VSA5>
0

>  <PEOE_VSA6>
18.2

>  <PEOE_VSA7>
62.21

>  <PEOE_VSA8>
30.76

>  <PEOE_VSA9>
6.67

>  <PEOE_VSA10>
11.36

>  <PEOE_VSA11>
5.78

>  <PEOE_VSA12>
5.91

>  <PEOE_VSA13>
0

>  <SMR_VSA1>
13.98

>  <SMR_VSA2>
0

>  <SMR_VSA3>
10.22

>  <SMR_VSA4>
0

>  <SMR_VSA5>
31.22

>  <SMR_VSA6>
31.2

>  <SMR_VSA7>
65.98

>  <SMR_VSA8>
0

>  <SMR_VSA9>
0

>  <SlogP_VSA1>
10.22

>  <SlogP_VSA2>
48.43

>  <SlogP_VSA3>
4.79

>  <SlogP_VSA4>
5.82

>  <SlogP_VSA5>
36.04

>  <SlogP_VSA6>
54.6

>  <SlogP_VSA7>
0

>  <SlogP_VSA8>
0

>  <SlogP_VSA9>
0

>  <SlogP_VSA10>
10.08

>  <SlogP_VSA11>
0

>  <EState_VSA1>
5.54

>  <EState_VSA2>
17.51

>  <EState_VSA3>
18.65

>  <EState_VSA4>
44.58

>  <EState_VSA5>
12.13

>  <EState_VSA6>
12.13

>  <EState_VSA7>
18.2

>  <EState_VSA8>
27.25

>  <EState_VSA9>
0

>  <EState_VSA10>
13.98

>  <VSA_EState1>
12.98

>  <VSA_EState2>
29.46

>  <VSA_EState3>
3.02

>  <VSA_EState4>
1.16

>  <VSA_EState5>
-0.17

>  <VSA_EState6>
15.81

>  <VSA_EState7>
2.76

>  <VSA_EState8>
3.05

>  <VSA_EState9>
0

>  <apol>
61.21

>  <bpol>
32.92

>  <nRing>
4

>  <nHRing>
2

>  <naRing>
2

>  <naHRing>
0

>  <nARing 2>
2

>  <nAHRing 2>
2

>  <nFRing>
0

>  <nFHRing>
0

>  <nFaRing>
0

>  <nFaHRing>
0

>  <nFARing 2>
0

>  <nFAHRing 2>
0

>  <nRot>
6

>  <SLogP>
3.22

>  <SMR>
110.3

>  <TopoPSA(NO)>
52.65

>  <TopoPSA>
52.65

>  <JGI1>
0.19

>  <JGI2>
0.1

>  <JGI3>
0.05

>  <JGI4>
0.03

>  <JGI5>
0.03

>  <Diameter>
17

>  <Radius>
9

>  <TMWC10>
138.27

>  <TSRW10>
79.01

>  <MW>
395.2

>  <AMW>
7.19

>  <WPath>
2602

>  <WPol>
47

>  <Zagreb1>
154

>  <Zagreb2>
183

>  <mZagreb2>
6.39

>  <yes>


>  <nAR-cont>
1

>  <nHA-cont>
0.785905698

>  <MWHBN>
0.251513636

>  <MWHBN-cont>
0.95719593

>  <TPSA-cont>
0.632470306

>  <pka_cont>
0.97

>  <yes.1>


>  <BBB_SCORE>
4.971640207

>  <MMFF94 Energy>
31.822

$$$$
Compound 486
Actelion Java MolfileCreator 2.0

  0  0  0  0  0  0              0 V3000
M  V30 BEGIN CTAB
M  V30 COUNTS 39 41 0 0 0
M  V30 BEGIN ATOM
M  V30 1 O 2.0704 1.3534 0.7163 0
M  V30 2 C 1.08 1.4322 -0.3234 0
M  V30 3 C 1.7899 0.285 1.6222 0
M  V30 4 C -0.2107 2.0778 0.1623 0
M  V30 5 C 0.898 0.062 -1.0668 0
M  V30 6 C 1.7663 -1.0612 0.8958 0
M  V30 7 C -1.4619 1.6599 -0.3327 0
M  V30 8 C -0.1567 3.1528 1.0682 0
M  V30 9 N 0.722 -1.1102 -0.1506 0
M  V30 10 C -0.2708 0.2424 -2.0523 0
M  V30 11 C -2.6323 2.2853 0.126 0
M  V30 12 C -1.58 0.522 -1.3167 0
M  V30 13 C -1.3288 3.765 1.5 0
M  V30 14 C 0.7601 -2.3933 -0.8799 0
M  V30 15 C -2.5647 3.3365 1.0393 0
M  V30 16 O -1.303 4.8009 2.3865 0
M  V30 17 C 0.4326 -3.6084 3.0E-4 0
M  V30 18 C 0.316 -4.8777 -0.8321 0
M  V30 19 H 1.4942 2.1371 -1.0576 0
M  V30 20 H 2.5863 0.2798 2.3736 0
M  V30 21 H 0.8482 0.4705 2.1517 0
M  V30 22 H 1.8205 -0.1088 -1.6401 0
M  V30 23 H 1.5885 -1.8324 1.6515 0
M  V30 24 H 2.7514 -1.2414 0.4465 0
M  V30 25 H 0.8097 3.4932 1.4302 0
M  V30 26 H -0.0442 1.0861 -2.7192 0
M  V30 27 H -0.3915 -0.6222 -2.7118 0
M  V30 28 H -3.6058 1.9562 -0.2302 0
M  V30 29 H -1.9126 -0.3736 -0.7788 0
M  V30 30 H -2.349 0.7615 -2.0613 0
M  V30 31 H 1.737 -2.5366 -1.3596 0
M  V30 32 H 0.0124 -2.3829 -1.6786 0
M  V30 33 H -3.4728 3.8193 1.3877 0
M  V30 34 H -0.3777 4.9728 2.6263 0
M  V30 35 H 1.2122 -3.767 0.7525 0
M  V30 36 H -0.5116 -3.4419 0.5321 0
M  V30 37 H 0.0908 -5.7334 -0.188 0
M  V30 38 H -0.4858 -4.7904 -1.5721 0
M  V30 39 H 1.2515 -5.0865 -1.3607 0
M  V30 END ATOM
M  V30 BEGIN BOND
M  V30 1 1 1 2
M  V30 2 1 1 3
M  V30 3 1 2 4
M  V30 4 1 2 5
M  V30 5 1 3 6
M  V30 6 2 4 7
M  V30 7 1 4 8
M  V30 8 1 5 9
M  V30 9 1 5 10
M  V30 10 1 7 11
M  V30 11 1 7 12
M  V30 12 2 8 13
M  V30 13 1 9 14
M  V30 14 2 11 15
M  V30 15 1 13 16
M  V30 16 1 14 17
M  V30 17 1 17 18
M  V30 18 1 6 9
M  V30 19 1 10 12
M  V30 20 1 13 15
M  V30 21 1 2 19
M  V30 22 1 3 20
M  V30 23 1 3 21
M  V30 24 1 5 22
M  V30 25 1 6 23
M  V30 26 1 6 24
M  V30 27 1 8 25
M  V30 28 1 10 26
M  V30 29 1 10 27
M  V30 30 1 11 28
M  V30 31 1 12 29
M  V30 32 1 12 30
M  V30 33 1 14 31
M  V30 34 1 14 32
M  V30 35 1 15 33
M  V30 36 1 16 34
M  V30 37 1 17 35
M  V30 38 1 17 36
M  V30 39 1 18 37
M  V30 40 1 18 38
M  V30 41 1 18 39
M  V30 END BOND
M  V30 END CTAB
M  END
>  <Column 1>
601

>  <level_0>
684

>  <index>
684

>  <Unnamed: 0>
684

>  <NO.>
695

>  <Name>
(+)-4-propyl- 3-4-4a-5-6-10b-hexahydro- 2h-naphtho[1-2-b][1-4]oxazin-9-ol

>  <IUPAC_name>
4-propyl-2-3-4a-5-6-10b-hexahydrobenzo[h][1-4]benzoxazin-9-ol

>  <SMILES>
CCCN1CCOC2c3cc(O)ccc3CCC21

>  <CID>
10060538

>  <logBB>
0.26

>  <BBB+/BBB->
BBB+

>  <Inchi>
InChI=1S/C15H21NO2/c1-2-7-16-8-9-18-15-13-10-12(17)5-3-11(13)4-6-14(15)16/h3-5-10-14-15-17H-2-4-6-9H2-1H3

>  <threshold>


>  <reference>
R2|R2|R20|R25|R27|R46|

>  <group>
A

>  <Class>
1

>  <ABC>
14.09

>  <ABCGG>
11.24

>  <nAcid>
0

>  <nBase>
1

>  <nAromAtom>
6

>  <nAromBond>
6

>  <nAtom>
39

>  <nHeavyAtom>
18

>  <nSpiro>
0

>  <nBridgehead>
0

>  <nHetero>
3

>  <nN>
1

>  <nO>
2

>  <nF>
0

>  <BalabanJ>
1.72

>  <BertzCT>
430.5

>  <nBonds>
41

>  <nBondsO>
20

>  <nBondsS>
35

>  <nBondsD>
0

>  <nBondsT>
0

>  <nBondsA>
6

>  <nBondsM>
6

>  <nBondsKS>
38

>  <nBondsKD>
3

>  <RNCG>
0.34

>  <RPCG>
0.2

>  <FCSP3>
0.6

>  <SZ>
22.33

>  <Sm>
20.59

>  <Sv>
22.88

>  <Sse>
38.65

>  <Sp>
25

>  <Si>
44.07

>  <MZ>
0.57

>  <Mm>
0.53

>  <Mv>
0.59

>  <Mse>
0.99

>  <Mp>
0.64

>  <Mi>
1.13

>  <NsCH3>
1

>  <NdCH2>
0

>  <NssCH2>
6

>  <NtCH>
0

>  <NdsCH>
0

>  <NaaCH>
3

>  <NsssCH>
2

>  <NddC>
0

>  <NtsC>
0

>  <NdssC>
0

>  <NaasC>
3

>  <NaaaC>
0

>  <NssssC>
0

>  <NsNH3>
0

>  <NsNH2>
0

>  <NssNH2>
0

>  <NdNH>
0

>  <NssNH>
0

>  <NaaNH>
0

>  <NtN>
0

>  <NsssNH>
0

>  <NdsN>
0

>  <NaaN>
0

>  <NsssN>
1

>  <NddsN>
0

>  <NaasN>
0

>  <NssssN>
0

>  <NsOH>
1

>  <NdO>
0

>  <NssO>
1

>  <NaaO>
0

>  <NsF>
0

>  <NsSiH3>
0

>  <NssSiH2>
0

>  <NsssSiH>
0

>  <NssssSi>
0

>  <NsPH2>
0

>  <NssPH>
0

>  <NsssP>
0

>  <NdsssP>
0

>  <NsssssP>
0

>  <NsSH>
0

>  <NdS>
0

>  <NssS>
0

>  <NaaS>
0

>  <NdssS>
0

>  <NddssS>
0

>  <NsCl>
0

>  <NsBr>
0

>  <NsI>
0

>  <fragCpx>
94.03

>  <fMF>
0.36

>  <nHBAcc>
3

>  <nHBDon>
1

>  <Kier1>
13.01

>  <Kier2>
5.55

>  <Lipinski>
1

>  <GhoseFilter>
1

>  <FilterItLogS>
-2.85

>  <VMcGowan>
198.45

>  <LabuteASA>
108.37

>  <PEOE_VSA1>
9.84

>  <PEOE_VSA2>
4.9

>  <PEOE_VSA3>
0

>  <PEOE_VSA4>
0

>  <PEOE_VSA5>
0

>  <PEOE_VSA6>
12.99

>  <PEOE_VSA7>
49.07

>  <PEOE_VSA8>
12.59

>  <PEOE_VSA9>
12.71

>  <PEOE_VSA10>
5.75

>  <PEOE_VSA11>
0

>  <PEOE_VSA12>
0

>  <PEOE_VSA13>
0

>  <SMR_VSA1>
9.84

>  <SMR_VSA2>
0

>  <SMR_VSA3>
4.9

>  <SMR_VSA4>
0

>  <SMR_VSA5>
38.33

>  <SMR_VSA6>
19.7

>  <SMR_VSA7>
29.33

>  <SMR_VSA8>
0

>  <SMR_VSA9>
5.75

>  <SlogP_VSA1>
0

>  <SlogP_VSA2>
35.74

>  <SlogP_VSA3>
11.16

>  <SlogP_VSA4>
0

>  <SlogP_VSA5>
37

>  <SlogP_VSA6>
18.2

>  <SlogP_VSA7>
0

>  <SlogP_VSA8>
0

>  <SlogP_VSA9>
0

>  <SlogP_VSA10>
0

>  <SlogP_VSA11>
5.75

>  <EState_VSA1>
0

>  <EState_VSA2>
6.1

>  <EState_VSA3>
11.79

>  <EState_VSA4>
26.12

>  <EState_VSA5>
23.97

>  <EState_VSA6>
6.07

>  <EState_VSA7>
12.13

>  <EState_VSA8>
11.82

>  <EState_VSA9>
4.74

>  <EState_VSA10>
5.11

>  <VSA_EState1>
5.99

>  <VSA_EState2>
2.56

>  <VSA_EState3>
9.68

>  <VSA_EState4>
2.54

>  <VSA_EState5>
0.35

>  <VSA_EState6>
6.21

>  <VSA_EState7>
3.61

>  <VSA_EState8>
5.23

>  <VSA_EState9>
0

>  <apol>
41.76

>  <bpol>
24.51

>  <nRing>
3

>  <nHRing>
1

>  <naRing>
1

>  <naHRing>
0

>  <nARing 2>
2

>  <nAHRing 2>
1

>  <nFRing>
1

>  <nFHRing>
1

>  <nFaRing>
0

>  <nFaHRing>
0

>  <nFARing 2>
1

>  <nFAHRing 2>
1

>  <nRot>
2

>  <SLogP>
2.49

>  <SMR>
70.77

>  <TopoPSA(NO)>
32.7

>  <TopoPSA>
32.7

>  <JGI1>
0.15

>  <JGI2>
0.08

>  <JGI3>
0.04

>  <JGI4>
0.05

>  <JGI5>
0.03

>  <Diameter>
9

>  <Radius>
5

>  <TMWC10>
111.27

>  <TSRW10>
51.52

>  <MW>
247.16

>  <AMW>
6.34

>  <WPath>
565

>  <WPol>
30

>  <Zagreb1>
96

>  <Zagreb2>
115

>  <mZagreb2>
4.03

>  <yes>


>  <nAR-cont>
1

>  <nHA-cont>
0.991161285

>  <MWHBN>
0.254431512

>  <MWHBN-cont>
0.952018474

>  <TPSA-cont>
0.771733695

>  <pka_cont>
0.97

>  <yes.1>


>  <BBB_SCORE>
5.447656385

>  <MMFF94 Energy>
84.119

$$$$
Compound 487
Actelion Java MolfileCreator 2.0

  0  0  0  0  0  0              0 V3000
M  V30 BEGIN CTAB
M  V30 COUNTS 8 7 0 0 0
M  V30 BEGIN ATOM
M  V30 1 Br -1.2492 0.1783 -1.8742 0
M  V30 2 C -0.4836 0.5466 -0.1167 0 CFG=2
M  V30 3 F 0.1813 1.7336 -0.1672 0
M  V30 4 C 0.4332 -0.5773 0.3335 0
M  V30 5 F -0.2301 -1.7567 0.4176 0
M  V30 6 F 1.4851 -0.7594 -0.4955 0
M  V30 7 F 0.9313 -0.327 1.5699 0
M  V30 8 H -1.3285 0.6606 0.5677 0
M  V30 END ATOM
M  V30 BEGIN BOND
M  V30 1 1 1 2
M  V30 2 1 2 3
M  V30 3 1 2 4
M  V30 4 1 4 5
M  V30 5 1 4 6
M  V30 6 1 4 7
M  V30 7 1 2 8
M  V30 END BOND
M  V30 BEGIN COLLECTION
M  V30 MDLV30/STERAC1 ATOMS=(1 2)
M  V30 END COLLECTION
M  V30 END CTAB
M  END
>  <Column 1>
602

>  <level_0>
685

>  <index>
685

>  <Unnamed: 0>
685

>  <NO.>
696

>  <Name>
teflurane

>  <IUPAC_name>
2-bromo-1-1-1-2-tetrafluoroethane

>  <SMILES>
FC(Br)C(F)(F)F

>  <CID>
31300

>  <logBB>
0.27

>  <BBB+/BBB->
BBB+

>  <Inchi>
InChI=1S/C2HBrF4/c3-1(4)2(5-6)7/h1H

>  <threshold>


>  <reference>
R41|R3|R38|R40|R11|R11|R12|R17|R21|R22|R25|R27|R32|R33|R35|R36|R39|R43|R44|R46|R47|R49|R2|R2|R8|R27|

>  <group>
A

>  <Class>
1

>  <ABC>
4.88

>  <ABCGG>
5.21

>  <nAcid>
0

>  <nBase>
0

>  <nAromAtom>
0

>  <nAromBond>
0

>  <nAtom>
8

>  <nHeavyAtom>
7

>  <nSpiro>
0

>  <nBridgehead>
0

>  <nHetero>
5

>  <nN>
0

>  <nO>
0

>  <nF>
4

>  <BalabanJ>
3.54

>  <BertzCT>
55.2

>  <nBonds>
7

>  <nBondsO>
6

>  <nBondsS>
7

>  <nBondsD>
0

>  <nBondsT>
0

>  <nBondsA>
0

>  <nBondsM>
0

>  <nBondsKS>
7

>  <nBondsKD>
0

>  <RNCG>
0.29

>  <RPCG>
0.56

>  <FCSP3>
1

>  <SZ>
14

>  <Sm>
15.06

>  <Sv>
6.15

>  <Sse>
9.94

>  <Sp>
5.56

>  <Si>
10.45

>  <MZ>
1.75

>  <Mm>
1.88

>  <Mv>
0.77

>  <Mse>
1.24

>  <Mp>
0.69

>  <Mi>
1.31

>  <NsCH3>
0

>  <NdCH2>
0

>  <NssCH2>
0

>  <NtCH>
0

>  <NdsCH>
0

>  <NaaCH>
0

>  <NsssCH>
1

>  <NddC>
0

>  <NtsC>
0

>  <NdssC>
0

>  <NaasC>
0

>  <NaaaC>
0

>  <NssssC>
1

>  <NsNH3>
0

>  <NsNH2>
0

>  <NssNH2>
0

>  <NdNH>
0

>  <NssNH>
0

>  <NaaNH>
0

>  <NtN>
0

>  <NsssNH>
0

>  <NdsN>
0

>  <NaaN>
0

>  <NsssN>
0

>  <NddsN>
0

>  <NaasN>
0

>  <NssssN>
0

>  <NsOH>
0

>  <NdO>
0

>  <NssO>
0

>  <NaaO>
0

>  <NsF>
4

>  <NsSiH3>
0

>  <NssSiH2>
0

>  <NsssSiH>
0

>  <NssssSi>
0

>  <NsPH2>
0

>  <NssPH>
0

>  <NsssP>
0

>  <NdsssP>
0

>  <NsssssP>
0

>  <NsSH>
0

>  <NdS>
0

>  <NssS>
0

>  <NaaS>
0

>  <NdssS>
0

>  <NddssS>
0

>  <NsCl>
0

>  <NsBr>
1

>  <NsI>
0

>  <fragCpx>
6.05

>  <fMF>
0

>  <nHBAcc>
0

>  <nHBDon>
0

>  <Kier1>
7

>  <Kier2>
1.85

>  <Lipinski>
1

>  <GhoseFilter>
0

>  <FilterItLogS>
-1.95

>  <VMcGowan>
63.58

>  <LabuteASA>
45.63

>  <PEOE_VSA1>
0

>  <PEOE_VSA2>
0

>  <PEOE_VSA3>
4.39

>  <PEOE_VSA4>
13.17

>  <PEOE_VSA5>
0

>  <PEOE_VSA6>
0

>  <PEOE_VSA7>
15.93

>  <PEOE_VSA8>
0

>  <PEOE_VSA9>
0

>  <PEOE_VSA10>
0

>  <PEOE_VSA11>
0

>  <PEOE_VSA12>
5.08

>  <PEOE_VSA13>
0

>  <SMR_VSA1>
17.56

>  <SMR_VSA2>
0

>  <SMR_VSA3>
0

>  <SMR_VSA4>
0

>  <SMR_VSA5>
11.26

>  <SMR_VSA6>
0

>  <SMR_VSA7>
0

>  <SMR_VSA8>
0

>  <SMR_VSA9>
0

>  <SlogP_VSA1>
0

>  <SlogP_VSA2>
11.26

>  <SlogP_VSA3>
0

>  <SlogP_VSA4>
0

>  <SlogP_VSA5>
0

>  <SlogP_VSA6>
0

>  <SlogP_VSA7>
0

>  <SlogP_VSA8>
0

>  <SlogP_VSA9>
0

>  <SlogP_VSA10>
17.56

>  <SlogP_VSA11>
0

>  <EState_VSA1>
11.26

>  <EState_VSA2>
0

>  <EState_VSA3>
0

>  <EState_VSA4>
0

>  <EState_VSA5>
0

>  <EState_VSA6>
15.93

>  <EState_VSA7>
0

>  <EState_VSA8>
0

>  <EState_VSA9>
0

>  <EState_VSA10>
17.56

>  <VSA_EState1>
43.27

>  <VSA_EState2>
0

>  <VSA_EState3>
-2.89

>  <VSA_EState4>
0

>  <VSA_EState5>
0

>  <VSA_EState6>
0

>  <VSA_EState7>
-4.75

>  <VSA_EState8>
0

>  <VSA_EState9>
0

>  <apol>
9.28

>  <bpol>
6.84

>  <nRing>
0

>  <nHRing>
0

>  <naRing>
0

>  <naHRing>
0

>  <nARing 2>
0

>  <nAHRing 2>
0

>  <nFRing>
0

>  <nFHRing>
0

>  <nFaRing>
0

>  <nFaHRing>
0

>  <nFARing 2>
0

>  <nFAHRing 2>
0

>  <nRot>
0

>  <SLogP>
2.24

>  <SMR>
19.88

>  <TopoPSA(NO)>
0

>  <TopoPSA>
0

>  <JGI1>
0.58

>  <JGI2>
0.15

>  <JGI3>
0

>  <JGI4>
0

>  <JGI5>
0

>  <Diameter>
3

>  <Radius>
2

>  <TMWC10>
71.23

>  <TSRW10>
34.22

>  <MW>
179.92

>  <AMW>
22.49

>  <WPath>
42

>  <WPol>
6

>  <Zagreb1>
30

>  <Zagreb2>
30

>  <mZagreb2>
1.5

>  <yes>


>  <nAR-cont>
0.336376

>  <nHA-cont>
0.357561384

>  <MWHBN>
0

>  <MWHBN-cont>
0

>  <TPSA-cont>
0

>  <pka_cont>
0.97

>  <yes.1>


>  <BBB_SCORE>
1.178937384

>  <MMFF94 Energy>
46.546

$$$$
Compound 488
Actelion Java MolfileCreator 2.0

  0  0  0  0  0  0              0 V3000
M  V30 BEGIN CTAB
M  V30 COUNTS 11 10 0 0 0
M  V30 BEGIN ATOM
M  V30 1 Br 2.3744 0.3954 0.5536 0
M  V30 2 C 0.5773 1.0984 0.2986 0
M  V30 3 C -0.2483 0.1901 -0.597 0
M  V30 4 C -0.685 -1.0961 0.0913 0
M  V30 5 H 0.7084 2.082 -0.1609 0
M  V30 6 H 0.1343 1.2224 1.2905 0
M  V30 7 H 0.2984 -0.0545 -1.5149 0
M  V30 8 H -1.1512 0.7334 -0.9007 0
M  V30 9 H -1.2459 -0.88 1.0063 0
M  V30 10 H 0.1698 -1.7265 0.3522 0
M  V30 11 H -1.3345 -1.6748 -0.5731 0
M  V30 END ATOM
M  V30 BEGIN BOND
M  V30 1 1 1 2
M  V30 2 1 2 3
M  V30 3 1 3 4
M  V30 4 1 2 5
M  V30 5 1 2 6
M  V30 6 1 3 7
M  V30 7 1 3 8
M  V30 8 1 4 9
M  V30 9 1 4 10
M  V30 10 1 4 11
M  V30 END BOND
M  V30 END CTAB
M  END
>  <Column 1>
603

>  <level_0>
686

>  <index>
686

>  <Unnamed: 0>
686

>  <NO.>
697

>  <Name>
1-bromopropane (n- propylbromide)

>  <IUPAC_name>
1-bromopropane

>  <SMILES>
CCCBr

>  <CID>
7840

>  <logBB>
0.27

>  <BBB+/BBB->
BBB+

>  <Inchi>
InChI=1S/C3H7Br/c1-2-3-4/h2-3H2-1H3

>  <threshold>


>  <reference>
R3|R21|R25|R27|R38|R41|R43|R46|R47|R2|R2|R8|R27|R40|

>  <group>
A

>  <Class>
1

>  <ABC>
2.12

>  <ABCGG>
2.34

>  <nAcid>
0

>  <nBase>
0

>  <nAromAtom>
0

>  <nAromBond>
0

>  <nAtom>
11

>  <nHeavyAtom>
4

>  <nSpiro>
0

>  <nBridgehead>
0

>  <nHetero>
1

>  <nN>
0

>  <nO>
0

>  <nF>
0

>  <BalabanJ>
1.97

>  <BertzCT>
5.25

>  <nBonds>
10

>  <nBondsO>
3

>  <nBondsS>
10

>  <nBondsD>
0

>  <nBondsT>
0

>  <nBondsA>
0

>  <nBondsM>
0

>  <nBondsKS>
10

>  <nBondsKD>
0

>  <RNCG>
0.46

>  <RPCG>
0.19

>  <FCSP3>
1

>  <SZ>
10

>  <Sm>
10.24

>  <Sv>
6.19

>  <Sse>
10.78

>  <Sp>
7.62

>  <Si>
12.5

>  <MZ>
0.91

>  <Mm>
0.93

>  <Mv>
0.56

>  <Mse>
0.98

>  <Mp>
0.69

>  <Mi>
1.14

>  <NsCH3>
1

>  <NdCH2>
0

>  <NssCH2>
2

>  <NtCH>
0

>  <NdsCH>
0

>  <NaaCH>
0

>  <NsssCH>
0

>  <NddC>
0

>  <NtsC>
0

>  <NdssC>
0

>  <NaasC>
0

>  <NaaaC>
0

>  <NssssC>
0

>  <NsNH3>
0

>  <NsNH2>
0

>  <NssNH2>
0

>  <NdNH>
0

>  <NssNH>
0

>  <NaaNH>
0

>  <NtN>
0

>  <NsssNH>
0

>  <NdsN>
0

>  <NaaN>
0

>  <NsssN>
0

>  <NddsN>
0

>  <NaasN>
0

>  <NssssN>
0

>  <NsOH>
0

>  <NdO>
0

>  <NssO>
0

>  <NaaO>
0

>  <NsF>
0

>  <NsSiH3>
0

>  <NssSiH2>
0

>  <NsssSiH>
0

>  <NssssSi>
0

>  <NsPH2>
0

>  <NssPH>
0

>  <NsssP>
0

>  <NdsssP>
0

>  <NsssssP>
0

>  <NsSH>
0

>  <NdS>
0

>  <NssS>
0

>  <NaaS>
0

>  <NdssS>
0

>  <NddssS>
0

>  <NsCl>
0

>  <NsBr>
1

>  <NsI>
0

>  <fragCpx>
3.01

>  <fMF>
0

>  <nHBAcc>
0

>  <nHBDon>
0

>  <Kier1>
4

>  <Kier2>
3

>  <Lipinski>
1

>  <GhoseFilter>
0

>  <FilterItLogS>
-1.88

>  <VMcGowan>
70.63

>  <LabuteASA>
35.34

>  <PEOE_VSA1>
0

>  <PEOE_VSA2>
0

>  <PEOE_VSA3>
0

>  <PEOE_VSA4>
0

>  <PEOE_VSA5>
0

>  <PEOE_VSA6>
22.85

>  <PEOE_VSA7>
6.42

>  <PEOE_VSA8>
5.33

>  <PEOE_VSA9>
0

>  <PEOE_VSA10>
0

>  <PEOE_VSA11>
0

>  <PEOE_VSA12>
0

>  <PEOE_VSA13>
0

>  <SMR_VSA1>
0

>  <SMR_VSA2>
0

>  <SMR_VSA3>
0

>  <SMR_VSA4>
0

>  <SMR_VSA5>
13.34

>  <SMR_VSA6>
5.33

>  <SMR_VSA7>
0

>  <SMR_VSA8>
0

>  <SMR_VSA9>
0

>  <SlogP_VSA1>
0

>  <SlogP_VSA2>
5.33

>  <SlogP_VSA3>
0

>  <SlogP_VSA4>
0

>  <SlogP_VSA5>
13.34

>  <SlogP_VSA6>
0

>  <SlogP_VSA7>
0

>  <SlogP_VSA8>
0

>  <SlogP_VSA9>
0

>  <SlogP_VSA10>
0

>  <SlogP_VSA11>
0

>  <EState_VSA1>
0

>  <EState_VSA2>
0

>  <EState_VSA3>
0

>  <EState_VSA4>
5.33

>  <EState_VSA5>
6.42

>  <EState_VSA6>
0

>  <EState_VSA7>
0

>  <EState_VSA8>
22.85

>  <EState_VSA9>
0

>  <EState_VSA10>
0

>  <VSA_EState1>
0

>  <VSA_EState2>
0

>  <VSA_EState3>
1.13

>  <VSA_EState4>
0

>  <VSA_EState5>
0

>  <VSA_EState6>
0

>  <VSA_EState7>
1.24

>  <VSA_EState8>
2.13

>  <VSA_EState9>
0

>  <apol>
12.73

>  <bpol>
8.4

>  <nRing>
0

>  <nHRing>
0

>  <naRing>
0

>  <naHRing>
0

>  <nARing 2>
0

>  <nAHRing 2>
0

>  <nFRing>
0

>  <nFHRing>
0

>  <nFaRing>
0

>  <nFaHRing>
0

>  <nFARing 2>
0

>  <nFAHRing 2>
0

>  <nRot>
1

>  <SLogP>
1.79

>  <SMR>
24.09

>  <TopoPSA(NO)>
0

>  <TopoPSA>
0

>  <JGI1>
0.17

>  <JGI2>
0.11

>  <JGI3>
0

>  <JGI4>
0

>  <JGI5>
0

>  <Diameter>
3

>  <Radius>
2

>  <TMWC10>
45.23

>  <TSRW10>
22.33

>  <MW>
121.97

>  <AMW>
11.09

>  <WPath>
10

>  <WPol>
1

>  <Zagreb1>
10

>  <Zagreb2>
8

>  <mZagreb2>
1.25

>  <yes>


>  <nAR-cont>
0.336376

>  <nHA-cont>
0

>  <MWHBN>
0

>  <MWHBN-cont>
0

>  <TPSA-cont>
0

>  <pka_cont>
0.97

>  <yes.1>


>  <BBB_SCORE>
0.821376

>  <MMFF94 Energy>
-1.7567

$$$$
Compound 489
Actelion Java MolfileCreator 2.0

  0  0  0  0  0  0              0 V3000
M  V30 BEGIN CTAB
M  V30 COUNTS 44 46 0 0 0
M  V30 BEGIN ATOM
M  V30 1 O 2.8577 -0.8725 3.0961 0
M  V30 2 C 2.0237 -1.5295 3.7048 0
M  V30 3 O 2.1831 -1.9787 4.9861 0
M  V30 4 C 0.715 -2.038 3.1534 0
M  V30 5 C 3.4062 -1.5657 5.608 0
M  V30 6 C 0.1891 -1.2328 1.9947 0
M  V30 7 C 3.4266 -2.1128 7.0219 0
M  V30 8 N -0.9659 -0.5566 2.2039 0
M  V30 9 C 0.8455 -1.2303 0.7652 0
M  V30 10 C -1.4687 0.1596 1.1773 0
M  V30 11 C 0.3117 -0.5037 -0.2985 0
M  V30 12 N -2.6652 0.8161 1.4231 0
M  V30 13 C -0.8749 0.2144 -0.0972 0
M  V30 14 N 0.9559 -0.4934 -1.5266 0
M  V30 15 N -1.4471 1.0198 -1.1132 0
M  V30 16 C 0.2712 0.0712 -2.685 0 CFG=2
M  V30 17 C -0.9102 0.9888 -2.3006 0
M  V30 18 C -0.2258 -1.0791 -3.5595 0
M  V30 19 C -1.5198 1.8532 -3.3659 0
M  V30 20 C -2.8731 2.203 -3.249 0
M  V30 21 C -0.7859 2.3239 -4.4611 0
M  V30 22 C -3.4864 2.998 -4.219 0
M  V30 23 C -1.4034 3.1207 -5.4301 0
M  V30 24 C -2.7515 3.4545 -5.3103 0
M  V30 25 H 0.8483 -3.0809 2.8452 0
M  V30 26 H -0.0296 -2.019 3.9588 0
M  V30 27 H 3.4574 -0.4714 5.6341 0
M  V30 28 H 4.2583 -1.9628 5.0455 0
M  V30 29 H 4.3454 -1.8231 7.5392 0
M  V30 30 H 2.5679 -1.7417 7.5913 0
M  V30 31 H 3.3547 -3.2054 7.0135 0
M  V30 32 H 1.7685 -1.7864 0.6389 0
M  V30 33 H -2.9955 0.7718 2.3736 0
M  V30 34 H -2.8444 1.6223 0.8399 0
M  V30 35 H 1.8195 -1.0018 -1.6544 0
M  V30 36 H 1.0169 0.6492 -3.2365 0
M  V30 37 H -0.6765 -0.713 -4.4873 0
M  V30 38 H 0.5974 -1.7501 -3.8278 0
M  V30 39 H -0.9839 -1.6748 -3.0378 0
M  V30 40 H -3.4601 1.852 -2.4023 0
M  V30 41 H 0.2701 2.1077 -4.5803 0
M  V30 42 H -4.5366 3.2608 -4.1193 0
M  V30 43 H -0.8293 3.4884 -6.2774 0
M  V30 44 H -3.228 4.0764 -6.0643 0
M  V30 END ATOM
M  V30 BEGIN BOND
M  V30 1 2 1 2
M  V30 2 1 2 3
M  V30 3 1 2 4
M  V30 4 1 3 5
M  V30 5 1 4 6
M  V30 6 1 5 7
M  V30 7 2 6 8
M  V30 8 1 6 9
M  V30 9 1 8 10
M  V30 10 2 9 11
M  V30 11 1 10 12
M  V30 12 2 10 13
M  V30 13 1 11 14
M  V30 14 1 13 15
M  V30 15 1 14 16
M  V30 16 2 15 17
M  V30 17 1 16 18
M  V30 18 1 17 19
M  V30 19 2 19 20
M  V30 20 1 19 21
M  V30 21 1 20 22
M  V30 22 2 21 23
M  V30 23 2 22 24
M  V30 24 1 11 13
M  V30 25 1 16 17
M  V30 26 1 23 24
M  V30 27 1 4 25
M  V30 28 1 4 26
M  V30 29 1 5 27
M  V30 30 1 5 28
M  V30 31 1 7 29
M  V30 32 1 7 30
M  V30 33 1 7 31
M  V30 34 1 9 32
M  V30 35 1 12 33
M  V30 36 1 12 34
M  V30 37 1 14 35
M  V30 38 1 16 36
M  V30 39 1 18 37
M  V30 40 1 18 38
M  V30 41 1 18 39
M  V30 42 1 20 40
M  V30 43 1 21 41
M  V30 44 1 22 42
M  V30 45 1 23 43
M  V30 46 1 24 44
M  V30 END BOND
M  V30 BEGIN COLLECTION
M  V30 MDLV30/STERAC1 ATOMS=(1 16)
M  V30 END COLLECTION
M  V30 END CTAB
M  END
>  <Column 1>
604

>  <level_0>
687

>  <index>
687

>  <Unnamed: 0>
687

>  <NO.>
698

>  <Name>
nsc 350386

>  <IUPAC_name>


>  <SMILES>
CCOC(=O)Cc1cc2c(c(N)n1)N=C(c1ccccc1)C(C)N2

>  <CID>


>  <logBB>
0.27

>  <BBB+/BBB->
BBB+

>  <Inchi>
InChI=1S/C18H20N4O2/c1-3-24-15(23)10-13-9-14-17(18(19)21-13)22-16(11(2)20-14)12-7-5-4-6-8-12/h4-9-11-20H-3-10H2-1-2H3-(H2-19-21)

>  <threshold>


>  <reference>
R18|R26|R27|

>  <group>
A

>  <Class>
1

>  <ABC>
18.55

>  <ABCGG>
14.5

>  <nAcid>
0

>  <nBase>
0

>  <nAromAtom>
12

>  <nAromBond>
12

>  <nAtom>
44

>  <nHeavyAtom>
24

>  <nSpiro>
0

>  <nBridgehead>
0

>  <nHetero>
6

>  <nN>
4

>  <nO>
2

>  <nF>
0

>  <BalabanJ>
1.58

>  <BertzCT>
787.11

>  <nBonds>
46

>  <nBondsO>
26

>  <nBondsS>
32

>  <nBondsD>
2

>  <nBondsT>
0

>  <nBondsA>
12

>  <nBondsM>
14

>  <nBondsKS>
38

>  <nBondsKD>
8

>  <RNCG>
0.2

>  <RPCG>
0.13

>  <FCSP3>
0.28

>  <SZ>
28.67

>  <Sm>
27.01

>  <Sv>
27.88

>  <Sse>
44.19

>  <Sp>
29.58

>  <Si>
49.73

>  <MZ>
0.65

>  <Mm>
0.61

>  <Mv>
0.63

>  <Mse>
1

>  <Mp>
0.67

>  <Mi>
1.13

>  <NsCH3>
2

>  <NdCH2>
0

>  <NssCH2>
2

>  <NtCH>
0

>  <NdsCH>
0

>  <NaaCH>
6

>  <NsssCH>
1

>  <NddC>
0

>  <NtsC>
0

>  <NdssC>
2

>  <NaasC>
5

>  <NaaaC>
0

>  <NssssC>
0

>  <NsNH3>
0

>  <NsNH2>
1

>  <NssNH2>
0

>  <NdNH>
0

>  <NssNH>
1

>  <NaaNH>
0

>  <NtN>
0

>  <NsssNH>
0

>  <NdsN>
1

>  <NaaN>
1

>  <NsssN>
0

>  <NddsN>
0

>  <NaasN>
0

>  <NssssN>
0

>  <NsOH>
0

>  <NdO>
1

>  <NssO>
1

>  <NaaO>
0

>  <NsF>
0

>  <NsSiH3>
0

>  <NssSiH2>
0

>  <NsssSiH>
0

>  <NssssSi>
0

>  <NsPH2>
0

>  <NssPH>
0

>  <NsssP>
0

>  <NdsssP>
0

>  <NsssssP>
0

>  <NsSH>
0

>  <NdS>
0

>  <NssS>
0

>  <NaaS>
0

>  <NdssS>
0

>  <NddssS>
0

>  <NsCl>
0

>  <NsBr>
0

>  <NsI>
0

>  <fragCpx>
124.06

>  <fMF>
0.36

>  <nHBAcc>
6

>  <nHBDon>
2

>  <Kier1>
18.78

>  <Kier2>
8.59

>  <Lipinski>
1

>  <GhoseFilter>
1

>  <FilterItLogS>
-4.93

>  <VMcGowan>
249.16

>  <LabuteASA>
140.32

>  <PEOE_VSA1>
15.79

>  <PEOE_VSA2>
4.79

>  <PEOE_VSA3>
9.98

>  <PEOE_VSA4>
0

>  <PEOE_VSA5>
0

>  <PEOE_VSA6>
30.33

>  <PEOE_VSA7>
25.48

>  <PEOE_VSA8>
0

>  <PEOE_VSA9>
36.16

>  <PEOE_VSA10>
5.69

>  <PEOE_VSA11>
5.82

>  <PEOE_VSA12>
0

>  <PEOE_VSA13>
0

>  <SMR_VSA1>
9.53

>  <SMR_VSA2>
0

>  <SMR_VSA3>
4.98

>  <SMR_VSA4>
4.99

>  <SMR_VSA5>
26.31

>  <SMR_VSA6>
17.66

>  <SMR_VSA7>
47.66

>  <SMR_VSA8>
0

>  <SMR_VSA9>
0

>  <SlogP_VSA1>
11.05

>  <SlogP_VSA2>
29.31

>  <SlogP_VSA3>
15.95

>  <SlogP_VSA4>
0

>  <SlogP_VSA5>
25.1

>  <SlogP_VSA6>
41.39

>  <SlogP_VSA7>
0

>  <SlogP_VSA8>
0

>  <SlogP_VSA9>
0

>  <SlogP_VSA10>
17.19

>  <SlogP_VSA11>
0

>  <EState_VSA1>
0

>  <EState_VSA2>
18.43

>  <EState_VSA3>
23.81

>  <EState_VSA4>
16.96

>  <EState_VSA5>
0

>  <EState_VSA6>
6.92

>  <EState_VSA7>
43.32

>  <EState_VSA8>
10.3

>  <EState_VSA9>
15.46

>  <EState_VSA10>
4.79

>  <VSA_EState1>
4.96

>  <VSA_EState2>
20.64

>  <VSA_EState3>
3.39

>  <VSA_EState4>
9.99

>  <VSA_EState5>
-0.01

>  <VSA_EState6>
11.79

>  <VSA_EState7>
0.09

>  <VSA_EState8>
4.16

>  <VSA_EState9>
0

>  <apol>
49.4

>  <bpol>
24.95

>  <nRing>
3

>  <nHRing>
2

>  <naRing>
2

>  <naHRing>
1

>  <nARing 2>
1

>  <nAHRing 2>
1

>  <nFRing>
1

>  <nFHRing>
1

>  <nFaRing>
0

>  <nFaHRing>
0

>  <nFARing 2>
1

>  <nFAHRing 2>
1

>  <nRot>
4

>  <SLogP>
2.7

>  <SMR>
94.71

>  <TopoPSA(NO)>
89.6

>  <TopoPSA>
89.6

>  <JGI1>
0.19

>  <JGI2>
0.07

>  <JGI3>
0.05

>  <JGI4>
0.04

>  <JGI5>
0.03

>  <Diameter>
14

>  <Radius>
7

>  <TMWC10>
124.95

>  <TSRW10>
58.57

>  <MW>
324.16

>  <AMW>
7.37

>  <WPath>
1398

>  <WPol>
38

>  <Zagreb1>
124

>  <Zagreb2>
145

>  <mZagreb2>
5.36

>  <yes>


>  <nAR-cont>
0.816016

>  <nHA-cont>
0.94700071

>  <MWHBN>
0.444334746

>  <MWHBN-cont>
0.306380502

>  <TPSA-cont>
0.374536362

>  <pka_cont>
0.97

>  <yes.1>


>  <BBB_SCORE>
3.456660187

>  <MMFF94 Energy>
104.86

$$$$
Compound 490
Actelion Java MolfileCreator 2.0

  0  0  0  0  0  0              0 V3000
M  V30 BEGIN CTAB
M  V30 COUNTS 23 23 0 0 0
M  V30 BEGIN ATOM
M  V30 1 O -0.1556 -0.0778 -2.4143 0
M  V30 2 C -0.0684 0.4002 -1.2943 0
M  V30 3 O -0.3321 1.6867 -0.9542 0
M  V30 4 C 0.3495 -0.3816 -0.0989 0
M  V30 5 C -0.7449 2.5438 -2.0288 0
M  V30 6 C 0.6617 -1.7353 -0.2684 0
M  V30 7 C 0.4367 0.1824 1.179 0
M  V30 8 C -2.2465 2.4513 -2.2241 0
M  V30 9 C 1.0587 -2.5109 0.826 0
M  V30 10 C 0.835 -0.6018 2.2679 0
M  V30 11 C 1.1584 -1.9499 2.1005 0
M  V30 12 N 1.5279 -2.7243 3.1829 0
M  V30 13 H -0.2046 2.3125 -2.9539 0
M  V30 14 H -0.4731 3.5658 -1.7449 0
M  V30 15 H 0.5954 -2.1956 -1.2522 0
M  V30 16 H 0.1963 1.2288 1.3476 0
M  V30 17 H -2.58 3.1447 -3.0012 0
M  V30 18 H -2.5439 1.4373 -2.5093 0
M  V30 19 H -2.7706 2.6865 -1.2919 0
M  V30 20 H 1.29 -3.5614 0.6704 0
M  V30 21 H 0.8903 -0.1456 3.2531 0
M  V30 22 H 1.6449 -2.3099 4.0972 0
M  V30 23 H 1.8047 -3.6877 3.0547 0
M  V30 END ATOM
M  V30 BEGIN BOND
M  V30 1 2 1 2
M  V30 2 1 2 3
M  V30 3 1 2 4
M  V30 4 1 3 5
M  V30 5 2 4 6
M  V30 6 1 4 7
M  V30 7 1 5 8
M  V30 8 1 6 9
M  V30 9 2 7 10
M  V30 10 2 9 11
M  V30 11 1 11 12
M  V30 12 1 10 11
M  V30 13 1 5 13
M  V30 14 1 5 14
M  V30 15 1 6 15
M  V30 16 1 7 16
M  V30 17 1 8 17
M  V30 18 1 8 18
M  V30 19 1 8 19
M  V30 20 1 9 20
M  V30 21 1 10 21
M  V30 22 1 12 22
M  V30 23 1 12 23
M  V30 END BOND
M  V30 END CTAB
M  END
>  <Column 1>
605

>  <level_0>
688

>  <index>
688

>  <Unnamed: 0>
688

>  <NO.>
699

>  <Name>
ethyl 4-aminobenzoate (benzocaine)

>  <IUPAC_name>
ethyl 4-aminobenzoate

>  <SMILES>
CCOC(=O)c1ccc(N)cc1

>  <CID>
2337

>  <logBB>
0.27

>  <BBB+/BBB->
BBB+

>  <Inchi>
InChI=1S/C9H11NO2/c1-2-12-9(11)7-3-5-8(10)6-4-7/h3-6H-2-10H2-1H3

>  <threshold>


>  <reference>
R3|R21|R25|R27|R38|R41|R42|R43|R46|R47|R2|R2|R8|R27|R40|

>  <group>
A

>  <Class>
1

>  <ABC>
8.66

>  <ABCGG>
8.06

>  <nAcid>
0

>  <nBase>
0

>  <nAromAtom>
6

>  <nAromBond>
6

>  <nAtom>
23

>  <nHeavyAtom>
12

>  <nSpiro>
0

>  <nBridgehead>
0

>  <nHetero>
3

>  <nN>
1

>  <nO>
2

>  <nF>
0

>  <BalabanJ>
2.24

>  <BertzCT>
266.36

>  <nBonds>
23

>  <nBondsO>
12

>  <nBondsS>
16

>  <nBondsD>
1

>  <nBondsT>
0

>  <nBondsA>
6

>  <nBondsM>
7

>  <nBondsKS>
19

>  <nBondsKD>
4

>  <RNCG>
0.35

>  <RPCG>
0.26

>  <FCSP3>
0.22

>  <SZ>
14.67

>  <Sm>
13.75

>  <Sv>
14.17

>  <Sse>
23.21

>  <Sp>
15.01

>  <Si>
25.99

>  <MZ>
0.64

>  <Mm>
0.6

>  <Mv>
0.62

>  <Mse>
1.01

>  <Mp>
0.65

>  <Mi>
1.13

>  <NsCH3>
1

>  <NdCH2>
0

>  <NssCH2>
1

>  <NtCH>
0

>  <NdsCH>
0

>  <NaaCH>
4

>  <NsssCH>
0

>  <NddC>
0

>  <NtsC>
0

>  <NdssC>
1

>  <NaasC>
2

>  <NaaaC>
0

>  <NssssC>
0

>  <NsNH3>
0

>  <NsNH2>
1

>  <NssNH2>
0

>  <NdNH>
0

>  <NssNH>
0

>  <NaaNH>
0

>  <NtN>
0

>  <NsssNH>
0

>  <NdsN>
0

>  <NaaN>
0

>  <NsssN>
0

>  <NddsN>
0

>  <NaasN>
0

>  <NssssN>
0

>  <NsOH>
0

>  <NdO>
1

>  <NssO>
1

>  <NaaO>
0

>  <NsF>
0

>  <NsSiH3>
0

>  <NssSiH2>
0

>  <NsssSiH>
0

>  <NssssSi>
0

>  <NsPH2>
0

>  <NssPH>
0

>  <NsssP>
0

>  <NdsssP>
0

>  <NsssssP>
0

>  <NsSH>
0

>  <NdS>
0

>  <NssS>
0

>  <NaaS>
0

>  <NdssS>
0

>  <NddssS>
0

>  <NsCl>
0

>  <NsBr>
0

>  <NsI>
0

>  <fragCpx>
12.03

>  <fMF>
0.26

>  <nHBAcc>
3

>  <nHBDon>
1

>  <Kier1>
10.08

>  <Kier2>
4.89

>  <Lipinski>
1

>  <GhoseFilter>
1

>  <FilterItLogS>
-1.91

>  <VMcGowan>
131.33

>  <LabuteASA>
71.14

>  <PEOE_VSA1>
10.47

>  <PEOE_VSA2>
0

>  <PEOE_VSA3>
4.79

>  <PEOE_VSA4>
0

>  <PEOE_VSA5>
0

>  <PEOE_VSA6>
0

>  <PEOE_VSA7>
31.19

>  <PEOE_VSA8>
5.69

>  <PEOE_VSA9>
12.17

>  <PEOE_VSA10>
0

>  <PEOE_VSA11>
0

>  <PEOE_VSA12>
0

>  <PEOE_VSA13>
0

>  <SMR_VSA1>
9.53

>  <SMR_VSA2>
0

>  <SMR_VSA3>
0

>  <SMR_VSA4>
0

>  <SMR_VSA5>
6.92

>  <SMR_VSA6>
12.34

>  <SMR_VSA7>
29.83

>  <SMR_VSA8>
0

>  <SMR_VSA9>
0

>  <SlogP_VSA1>
5.73

>  <SlogP_VSA2>
12.58

>  <SlogP_VSA3>
4.74

>  <SlogP_VSA4>
0

>  <SlogP_VSA5>
17.28

>  <SlogP_VSA6>
24.27

>  <SlogP_VSA7>
0

>  <SlogP_VSA8>
0

>  <SlogP_VSA9>
0

>  <SlogP_VSA10>
5.69

>  <SlogP_VSA11>
0

>  <EState_VSA1>
0

>  <EState_VSA2>
5.97

>  <EState_VSA3>
17.86

>  <EState_VSA4>
0

>  <EState_VSA5>
0

>  <EState_VSA6>
31.19

>  <EState_VSA7>
0

>  <EState_VSA8>
0

>  <EState_VSA9>
10.47

>  <EState_VSA10>
4.79

>  <VSA_EState1>
4.79

>  <VSA_EState2>
11.09

>  <VSA_EState3>
0

>  <VSA_EState4>
6.62

>  <VSA_EState5>
-0.31

>  <VSA_EState6>
6.64

>  <VSA_EState7>
0

>  <VSA_EState8>
2.17

>  <VSA_EState9>
0

>  <apol>
25.07

>  <bpol>
13.07

>  <nRing>
1

>  <nHRing>
0

>  <naRing>
1

>  <naHRing>
0

>  <nARing 2>
0

>  <nAHRing 2>
0

>  <nFRing>
0

>  <nFHRing>
0

>  <nFaRing>
0

>  <nFaHRing>
0

>  <nFARing 2>
0

>  <nFAHRing 2>
0

>  <nRot>
2

>  <SLogP>
1.45

>  <SMR>
46.81

>  <TopoPSA(NO)>
52.32

>  <TopoPSA>
52.32

>  <JGI1>
0.21

>  <JGI2>
0.1

>  <JGI3>
0.04

>  <JGI4>
0.04

>  <JGI5>
0.04

>  <Diameter>
8

>  <Radius>
4

>  <TMWC10>
88.86

>  <TSRW10>
41.88

>  <MW>
165.08

>  <AMW>
7.18

>  <WPath>
211

>  <WPol>
14

>  <Zagreb1>
54

>  <Zagreb2>
59

>  <mZagreb2>
2.86

>  <yes>


>  <nAR-cont>
0.336376

>  <nHA-cont>
0.785745021

>  <MWHBN>
0.311324114

>  <MWHBN-cont>
0.805639283

>  <TPSA-cont>
0.634773911

>  <pka_cont>
0.97

>  <yes.1>


>  <BBB_SCORE>
4.085127768

>  <MMFF94 Energy>
18.63

$$$$
Compound 491
Actelion Java MolfileCreator 2.0

  0  0  0  0  0  0              0 V3000
M  V30 BEGIN CTAB
M  V30 COUNTS 11 10 0 0 0
M  V30 BEGIN ATOM
M  V30 1 Br -2.1345 1.3657 -0.5119 0
M  V30 2 C -0.5619 1.0001 0.5759 0 CFG=2
M  V30 3 F -0.0604 2.1958 0.9944 0
M  V30 4 C 0.5147 0.295 -0.2077 0
M  V30 5 C 0.2282 -1.1744 -0.3162 0
M  V30 6 F 0.1028 -1.7328 0.907 0
M  V30 7 F -0.8978 -1.4325 -1.0065 0
M  V30 8 F 1.2442 -1.8045 -0.9465 0
M  V30 9 H -0.8946 0.4494 1.4596 0
M  V30 10 H 1.4734 0.4289 0.3071 0
M  V30 11 H 0.6395 0.7351 -1.2034 0
M  V30 END ATOM
M  V30 BEGIN BOND
M  V30 1 1 1 2
M  V30 2 1 2 3
M  V30 3 1 2 4
M  V30 4 1 4 5
M  V30 5 1 5 6
M  V30 6 1 5 7
M  V30 7 1 5 8
M  V30 8 1 2 9
M  V30 9 1 4 10
M  V30 10 1 4 11
M  V30 END BOND
M  V30 BEGIN COLLECTION
M  V30 MDLV30/STERAC1 ATOMS=(1 2)
M  V30 END COLLECTION
M  V30 END CTAB
M  END
>  <Column 1>
606

>  <level_0>
689

>  <index>
689

>  <Unnamed: 0>
689

>  <NO.>
700

>  <Name>
lin_train_55

>  <IUPAC_name>
3-bromo-1-1-1-3-tetrafluoropropane

>  <SMILES>
FC(Br)CC(F)(F)F

>  <CID>
23235109

>  <logBB>
0.27

>  <BBB+/BBB->
BBB+

>  <Inchi>
InChI=1S/C3H3BrF4/c4-2(5)1-3(6-7)8/h2H-1H2

>  <threshold>


>  <reference>
R12|R21|R25|R27|R46|R47|R2|R2|R8|R27|R40|

>  <group>
A

>  <Class>
1

>  <ABC>
5.65

>  <ABCGG>
5.87

>  <nAcid>
0

>  <nBase>
0

>  <nAromAtom>
0

>  <nAromBond>
0

>  <nAtom>
11

>  <nHeavyAtom>
8

>  <nSpiro>
0

>  <nBridgehead>
0

>  <nHetero>
5

>  <nN>
0

>  <nO>
0

>  <nF>
4

>  <BalabanJ>
3.39

>  <BertzCT>
66.17

>  <nBonds>
10

>  <nBondsO>
7

>  <nBondsS>
10

>  <nBondsD>
0

>  <nBondsT>
0

>  <nBondsA>
0

>  <nBondsM>
0

>  <nBondsKS>
10

>  <nBondsKD>
0

>  <RNCG>
0.29

>  <RPCG>
0.49

>  <FCSP3>
1

>  <SZ>
15.33

>  <Sm>
16.23

>  <Sv>
7.69

>  <Sse>
12.83

>  <Sp>
7.36

>  <Si>
13.86

>  <MZ>
1.39

>  <Mm>
1.48

>  <Mv>
0.7

>  <Mse>
1.17

>  <Mp>
0.67

>  <Mi>
1.26

>  <NsCH3>
0

>  <NdCH2>
0

>  <NssCH2>
1

>  <NtCH>
0

>  <NdsCH>
0

>  <NaaCH>
0

>  <NsssCH>
1

>  <NddC>
0

>  <NtsC>
0

>  <NdssC>
0

>  <NaasC>
0

>  <NaaaC>
0

>  <NssssC>
1

>  <NsNH3>
0

>  <NsNH2>
0

>  <NssNH2>
0

>  <NdNH>
0

>  <NssNH>
0

>  <NaaNH>
0

>  <NtN>
0

>  <NsssNH>
0

>  <NdsN>
0

>  <NaaN>
0

>  <NsssN>
0

>  <NddsN>
0

>  <NaasN>
0

>  <NssssN>
0

>  <NsOH>
0

>  <NdO>
0

>  <NssO>
0

>  <NaaO>
0

>  <NsF>
4

>  <NsSiH3>
0

>  <NssSiH2>
0

>  <NsssSiH>
0

>  <NssssSi>
0

>  <NsPH2>
0

>  <NssPH>
0

>  <NsssP>
0

>  <NdsssP>
0

>  <NsssssP>
0

>  <NsSH>
0

>  <NdS>
0

>  <NssS>
0

>  <NaaS>
0

>  <NdssS>
0

>  <NddssS>
0

>  <NsCl>
0

>  <NsBr>
1

>  <NsI>
0

>  <fragCpx>
7.05

>  <fMF>
0

>  <nHBAcc>
0

>  <nHBDon>
0

>  <Kier1>
8

>  <Kier2>
2.52

>  <Lipinski>
1

>  <GhoseFilter>
0

>  <FilterItLogS>
-2.35

>  <VMcGowan>
77.67

>  <LabuteASA>
52

>  <PEOE_VSA1>
0

>  <PEOE_VSA2>
0

>  <PEOE_VSA3>
4.39

>  <PEOE_VSA4>
13.17

>  <PEOE_VSA5>
0

>  <PEOE_VSA6>
15.93

>  <PEOE_VSA7>
0

>  <PEOE_VSA8>
0

>  <PEOE_VSA9>
6.42

>  <PEOE_VSA10>
0

>  <PEOE_VSA11>
5.08

>  <PEOE_VSA12>
0

>  <PEOE_VSA13>
0

>  <SMR_VSA1>
17.56

>  <SMR_VSA2>
0

>  <SMR_VSA3>
0

>  <SMR_VSA4>
0

>  <SMR_VSA5>
17.68

>  <SMR_VSA6>
0

>  <SMR_VSA7>
0

>  <SMR_VSA8>
0

>  <SMR_VSA9>
0

>  <SlogP_VSA1>
0

>  <SlogP_VSA2>
11.26

>  <SlogP_VSA3>
0

>  <SlogP_VSA4>
0

>  <SlogP_VSA5>
6.42

>  <SlogP_VSA6>
0

>  <SlogP_VSA7>
0

>  <SlogP_VSA8>
0

>  <SlogP_VSA9>
0

>  <SlogP_VSA10>
17.56

>  <SlogP_VSA11>
0

>  <EState_VSA1>
17.68

>  <EState_VSA2>
0

>  <EState_VSA3>
0

>  <EState_VSA4>
0

>  <EState_VSA5>
0

>  <EState_VSA6>
0

>  <EState_VSA7>
0

>  <EState_VSA8>
15.93

>  <EState_VSA9>
0

>  <EState_VSA10>
17.56

>  <VSA_EState1>
44.5

>  <VSA_EState2>
0

>  <VSA_EState3>
-1.97

>  <VSA_EState4>
0

>  <VSA_EState5>
0

>  <VSA_EState6>
0

>  <VSA_EState7>
-5.82

>  <VSA_EState8>
0

>  <VSA_EState9>
0

>  <apol>
12.29

>  <bpol>
8.84

>  <nRing>
0

>  <nHRing>
0

>  <naRing>
0

>  <naHRing>
0

>  <nARing 2>
0

>  <nAHRing 2>
0

>  <nFRing>
0

>  <nFHRing>
0

>  <nFaRing>
0

>  <nFaHRing>
0

>  <nFARing 2>
0

>  <nFAHRing 2>
0

>  <nRot>
1

>  <SLogP>
2.63

>  <SMR>
24.5

>  <TopoPSA(NO)>
0

>  <TopoPSA>
0

>  <JGI1>
0.57

>  <JGI2>
0.07

>  <JGI3>
0.15

>  <JGI4>
0

>  <JGI5>
0

>  <Diameter>
4

>  <Radius>
2

>  <TMWC10>
73.74

>  <TSRW10>
35.39

>  <MW>
193.94

>  <AMW>
17.63

>  <WPath>
66

>  <WPol>
5

>  <Zagreb1>
34

>  <Zagreb2>
32

>  <mZagreb2>
1.71

>  <yes>


>  <nAR-cont>
0.336376

>  <nHA-cont>
0.464727961

>  <MWHBN>
0

>  <MWHBN-cont>
0

>  <TPSA-cont>
0

>  <pka_cont>
0.97

>  <yes.1>


>  <BBB_SCORE>
1.286103961

>  <MMFF94 Energy>
-30.348

$$$$
Compound 492
Actelion Java MolfileCreator 2.0

  0  0  0  0  0  0              0 V3000
M  V30 BEGIN CTAB
M  V30 COUNTS 37 37 0 0 0
M  V30 BEGIN ATOM
M  V30 1 O 0.6992 -0.6215 0.6215 0
M  V30 2 C 0.5666 0.2793 1.6407 0
M  V30 3 C 1.8497 -0.4883 -0.2157 0
M  V30 4 C 1.5679 1.1262 2.1205 0
M  V30 5 C -0.6962 0.305 2.2349 0
M  V30 6 C 1.7287 -1.4398 -1.4182 0 CFG=1
M  V30 7 C 1.3108 1.9994 3.1899 0
M  V30 8 C -0.9667 1.1793 3.2868 0
M  V30 9 O 1.5575 -2.7865 -0.9501 0
M  V30 10 C 0.5806 -1.084 -2.39 0
M  V30 11 C 0.0322 2.029 3.7588 0
M  V30 12 C 2.3797 2.9313 3.6803 0
M  V30 13 N -0.7415 -1.4847 -1.8839 0
M  V30 14 C -1.8372 -1.1153 -2.7882 0
M  V30 15 C -3.0839 -1.9093 -2.3877 0
M  V30 16 C -2.1413 0.3819 -2.7168 0
M  V30 17 H 2.7348 -0.7765 0.3639 0
M  V30 18 H 1.9556 0.5422 -0.575 0
M  V30 19 H 2.5624 1.1186 1.6869 0
M  V30 20 H -1.4774 -0.3544 1.8649 0
M  V30 21 H 2.671 -1.4097 -1.9768 0
M  V30 22 H -1.9564 1.1987 3.7347 0
M  V30 23 H 0.8399 -2.7183 -0.2876 0
M  V30 24 H 0.6238 -0.0124 -2.6091 0
M  V30 25 H 0.7583 -1.6228 -3.3292 0
M  V30 26 H -0.1917 2.7114 4.5756 0
M  V30 27 H 3.3699 2.4742 3.5835 0
M  V30 28 H 2.3595 3.8603 3.1025 0
M  V30 29 H 2.2354 3.1705 4.7392 0
M  V30 30 H -0.7249 -2.5006 -1.7737 0
M  V30 31 H -1.5856 -1.3888 -3.8202 0
M  V30 32 H -3.3904 -1.6864 -1.3593 0
M  V30 33 H -2.905 -2.9877 -2.4619 0
M  V30 34 H -3.9241 -1.6691 -3.0483 0
M  V30 35 H -1.3067 0.9844 -3.0876 0
M  V30 36 H -2.3573 0.6976 -1.6897 0
M  V30 37 H -3.0145 0.6274 -3.3315 0
M  V30 END ATOM
M  V30 BEGIN BOND
M  V30 1 1 1 2
M  V30 2 1 1 3
M  V30 3 2 2 4
M  V30 4 1 2 5
M  V30 5 1 3 6
M  V30 6 1 4 7
M  V30 7 2 5 8
M  V30 8 1 6 9
M  V30 9 1 6 10
M  V30 10 2 7 11
M  V30 11 1 7 12
M  V30 12 1 10 13
M  V30 13 1 13 14
M  V30 14 1 14 15
M  V30 15 1 14 16
M  V30 16 1 8 11
M  V30 17 1 3 17
M  V30 18 1 3 18
M  V30 19 1 4 19
M  V30 20 1 5 20
M  V30 21 1 6 21
M  V30 22 1 8 22
M  V30 23 1 9 23
M  V30 24 1 10 24
M  V30 25 1 10 25
M  V30 26 1 11 26
M  V30 27 1 12 27
M  V30 28 1 12 28
M  V30 29 1 12 29
M  V30 30 1 13 30
M  V30 31 1 14 31
M  V30 32 1 15 32
M  V30 33 1 15 33
M  V30 34 1 15 34
M  V30 35 1 16 35
M  V30 36 1 16 36
M  V30 37 1 16 37
M  V30 END BOND
M  V30 BEGIN COLLECTION
M  V30 MDLV30/STERAC1 ATOMS=(1 6)
M  V30 END COLLECTION
M  V30 END CTAB
M  END
>  <Column 1>
607

>  <level_0>
691

>  <index>
691

>  <Unnamed: 0>
691

>  <NO.>
702

>  <Name>
toliprolol

>  <IUPAC_name>
1-(3-methylphenoxy)-3-(propan-2-ylamino)propan-2-ol

>  <SMILES>
Cc1cccc(OCC(O)CNC(C)C)c1

>  <CID>
18047

>  <logBB>
0.28

>  <BBB+/BBB->
BBB+

>  <Inchi>
InChI=1S/C13H21NO2/c1-10(2)14-8-12(15)9-16-13-6-4-5-11(3)7-13/h4-7-10-12-14-15H-8-9H2-1-3H3

>  <threshold>


>  <reference>
R3|R18|R26|R27|R25|R38|R41|R46|R40|R27|R2|R2|R8|R21|R27|R43|R3|R47|

>  <group>
A

>  <Class>
1

>  <ABC>
11.75

>  <ABCGG>
10.28

>  <nAcid>
0

>  <nBase>
1

>  <nAromAtom>
6

>  <nAromBond>
6

>  <nAtom>
37

>  <nHeavyAtom>
16

>  <nSpiro>
0

>  <nBridgehead>
0

>  <nHetero>
3

>  <nN>
1

>  <nO>
2

>  <nF>
0

>  <BalabanJ>
2.08

>  <BertzCT>
312.56

>  <nBonds>
37

>  <nBondsO>
16

>  <nBondsS>
31

>  <nBondsD>
0

>  <nBondsT>
0

>  <nBondsA>
6

>  <nBondsM>
6

>  <nBondsKS>
34

>  <nBondsKD>
3

>  <RNCG>
0.32

>  <RPCG>
0.14

>  <FCSP3>
0.54

>  <SZ>
20.33

>  <Sm>
18.59

>  <Sv>
20.88

>  <Sse>
36.65

>  <Sp>
23

>  <Si>
42.07

>  <MZ>
0.55

>  <Mm>
0.5

>  <Mv>
0.56

>  <Mse>
0.99

>  <Mp>
0.62

>  <Mi>
1.14

>  <NsCH3>
3

>  <NdCH2>
0

>  <NssCH2>
2

>  <NtCH>
0

>  <NdsCH>
0

>  <NaaCH>
4

>  <NsssCH>
2

>  <NddC>
0

>  <NtsC>
0

>  <NdssC>
0

>  <NaasC>
2

>  <NaaaC>
0

>  <NssssC>
0

>  <NsNH3>
0

>  <NsNH2>
0

>  <NssNH2>
0

>  <NdNH>
0

>  <NssNH>
1

>  <NaaNH>
0

>  <NtN>
0

>  <NsssNH>
0

>  <NdsN>
0

>  <NaaN>
0

>  <NsssN>
0

>  <NddsN>
0

>  <NaasN>
0

>  <NssssN>
0

>  <NsOH>
1

>  <NdO>
0

>  <NssO>
1

>  <NaaO>
0

>  <NsF>
0

>  <NsSiH3>
0

>  <NssSiH2>
0

>  <NsssSiH>
0

>  <NssssSi>
0

>  <NsPH2>
0

>  <NssPH>
0

>  <NsssP>
0

>  <NdsssP>
0

>  <NsssssP>
0

>  <NsSH>
0

>  <NdS>
0

>  <NssS>
0

>  <NaaS>
0

>  <NdssS>
0

>  <NddssS>
0

>  <NsCl>
0

>  <NsBr>
0

>  <NsI>
0

>  <fragCpx>
16.03

>  <fMF>
0.16

>  <nHBAcc>
3

>  <nHBDon>
2

>  <Kier1>
14.06

>  <Kier2>
7.35

>  <Lipinski>
1

>  <GhoseFilter>
1

>  <FilterItLogS>
-3.08

>  <VMcGowan>
191.99

>  <LabuteASA>
97.44

>  <PEOE_VSA1>
15.16

>  <PEOE_VSA2>
0

>  <PEOE_VSA3>
0

>  <PEOE_VSA4>
0

>  <PEOE_VSA5>
0

>  <PEOE_VSA6>
25.98

>  <PEOE_VSA7>
24.62

>  <PEOE_VSA8>
12.59

>  <PEOE_VSA9>
0

>  <PEOE_VSA10>
18.46

>  <PEOE_VSA11>
0

>  <PEOE_VSA12>
0

>  <PEOE_VSA13>
0

>  <SMR_VSA1>
9.84

>  <SMR_VSA2>
0

>  <SMR_VSA3>
5.32

>  <SMR_VSA4>
0

>  <SMR_VSA5>
32.92

>  <SMR_VSA6>
13.15

>  <SMR_VSA7>
29.83

>  <SMR_VSA8>
0

>  <SMR_VSA9>
5.75

>  <SlogP_VSA1>
10.05

>  <SlogP_VSA2>
30.4

>  <SlogP_VSA3>
0

>  <SlogP_VSA4>
6.92

>  <SlogP_VSA5>
19.41

>  <SlogP_VSA6>
24.27

>  <SlogP_VSA7>
0

>  <SlogP_VSA8>
0

>  <SlogP_VSA9>
0

>  <SlogP_VSA10>
0

>  <SlogP_VSA11>
5.75

>  <EState_VSA1>
6.1

>  <EState_VSA2>
0

>  <EState_VSA3>
19.19

>  <EState_VSA4>
11.31

>  <EState_VSA5>
0

>  <EState_VSA6>
0

>  <EState_VSA7>
45.04

>  <EState_VSA8>
5.32

>  <EState_VSA9>
4.74

>  <EState_VSA10>
5.11

>  <VSA_EState1>
5.49

>  <VSA_EState2>
0

>  <VSA_EState3>
12.8

>  <VSA_EState4>
1.16

>  <VSA_EState5>
0.81

>  <VSA_EState6>
8.21

>  <VSA_EState7>
-0.47

>  <VSA_EState8>
7

>  <VSA_EState9>
0

>  <apol>
38.42

>  <bpol>
23.37

>  <nRing>
1

>  <nHRing>
0

>  <naRing>
1

>  <naHRing>
0

>  <nARing 2>
0

>  <nAHRing 2>
0

>  <nFRing>
0

>  <nFHRing>
0

>  <nFaRing>
0

>  <nFaHRing>
0

>  <nFARing 2>
0

>  <nFAHRing 2>
0

>  <nRot>
6

>  <SLogP>
1.73

>  <SMR>
65.82

>  <TopoPSA(NO)>
41.49

>  <TopoPSA>
41.49

>  <JGI1>
0.25

>  <JGI2>
0.07

>  <JGI3>
0.04

>  <JGI4>
0.05

>  <JGI5>
0.02

>  <Diameter>
10

>  <Radius>
5

>  <TMWC10>
98.58

>  <TSRW10>
47

>  <MW>
223.16

>  <AMW>
6.03

>  <WPath>
527

>  <WPol>
17

>  <Zagreb1>
72

>  <Zagreb2>
76

>  <mZagreb2>
3.67

>  <yes>


>  <nAR-cont>
0.336376

>  <nHA-cont>
0.954961865

>  <MWHBN>
0.334704713

>  <MWHBN-cont>
0.726202705

>  <TPSA-cont>
0.710374036

>  <pka_cont>
0.97

>  <yes.1>


>  <BBB_SCORE>
4.286389995

>  <MMFF94 Energy>
56.941

$$$$
Compound 493
Actelion Java MolfileCreator 2.0

  0  0  0  0  0  0              0 V3000
M  V30 BEGIN CTAB
M  V30 COUNTS 20 19 0 0 0
M  V30 BEGIN ATOM
M  V30 1 O 2.2948 -0.8409 2.2182 0
M  V30 2 C 1.9688 -1.1803 1.0898 0
M  V30 3 O 1.1056 -0.5092 0.2795 0
M  V30 4 C 2.4707 -2.4094 0.3962 0
M  V30 5 C 0.565 0.6856 0.8578 0
M  V30 6 C -0.3973 1.3307 -0.1359 0
M  V30 7 C -1.6098 0.4433 -0.4263 0
M  V30 8 C -2.5731 1.1174 -1.3907 0
M  V30 9 H 1.6328 -3.0705 0.1612 0
M  V30 10 H 3.007 -2.1286 -0.5135 0
M  V30 11 H 3.1603 -2.9423 1.0571 0
M  V30 12 H 1.3828 1.3834 1.0727 0
M  V30 13 H 0.0403 0.4442 1.7897 0
M  V30 14 H -0.7327 2.2943 0.2649 0
M  V30 15 H 0.1317 1.5272 -1.0763 0
M  V30 16 H -1.2863 -0.5115 -0.8556 0
M  V30 17 H -2.1366 0.2171 0.5079 0
M  V30 18 H -3.4325 0.4678 -1.5839 0
M  V30 19 H -2.9462 2.0601 -0.9779 0
M  V30 20 H -2.0857 1.3298 -2.3475 0
M  V30 END ATOM
M  V30 BEGIN BOND
M  V30 1 2 1 2
M  V30 2 1 2 3
M  V30 3 1 2 4
M  V30 4 1 3 5
M  V30 5 1 5 6
M  V30 6 1 6 7
M  V30 7 1 7 8
M  V30 8 1 4 9
M  V30 9 1 4 10
M  V30 10 1 4 11
M  V30 11 1 5 12
M  V30 12 1 5 13
M  V30 13 1 6 14
M  V30 14 1 6 15
M  V30 15 1 7 16
M  V30 16 1 7 17
M  V30 17 1 8 18
M  V30 18 1 8 19
M  V30 19 1 8 20
M  V30 END BOND
M  V30 END CTAB
M  END
>  <Column 1>
608

>  <level_0>
692

>  <index>
692

>  <Unnamed: 0>
692

>  <NO.>
703

>  <Name>
butyl acetate

>  <IUPAC_name>
butyl acetate

>  <SMILES>
CCCCOC(C)=O

>  <CID>
31272

>  <logBB>
0.28

>  <BBB+/BBB->
BBB+

>  <Inchi>
InChI=1S/C6H12O2/c1-3-4-5-8-6(2)7/h3-5H2-1-2H3

>  <threshold>


>  <reference>
R25|R41|R3|R38|R40|R2|R2|R8|R21|R27|R27|R43|R46|R47|

>  <group>
A

>  <Class>
1

>  <ABC>
5.17

>  <ABCGG>
5.36

>  <nAcid>
0

>  <nBase>
0

>  <nAromAtom>
0

>  <nAromBond>
0

>  <nAtom>
20

>  <nHeavyAtom>
8

>  <nSpiro>
0

>  <nBridgehead>
0

>  <nHetero>
2

>  <nN>
0

>  <nO>
2

>  <nF>
0

>  <BalabanJ>
2.72

>  <BertzCT>
68.93

>  <nBonds>
19

>  <nBondsO>
7

>  <nBondsS>
18

>  <nBondsD>
1

>  <nBondsT>
0

>  <nBondsA>
0

>  <nBondsM>
1

>  <nBondsKS>
18

>  <nBondsKD>
1

>  <RNCG>
0.54

>  <RPCG>
0.35

>  <FCSP3>
0.83

>  <SZ>
10.67

>  <Sm>
9.67

>  <Sv>
10.68

>  <Sse>
19.99

>  <Sp>
11.75

>  <Si>
22.91

>  <MZ>
0.53

>  <Mm>
0.48

>  <Mv>
0.53

>  <Mse>
1

>  <Mp>
0.59

>  <Mi>
1.15

>  <NsCH3>
2

>  <NdCH2>
0

>  <NssCH2>
3

>  <NtCH>
0

>  <NdsCH>
0

>  <NaaCH>
0

>  <NsssCH>
0

>  <NddC>
0

>  <NtsC>
0

>  <NdssC>
1

>  <NaasC>
0

>  <NaaaC>
0

>  <NssssC>
0

>  <NsNH3>
0

>  <NsNH2>
0

>  <NssNH2>
0

>  <NdNH>
0

>  <NssNH>
0

>  <NaaNH>
0

>  <NtN>
0

>  <NsssNH>
0

>  <NdsN>
0

>  <NaaN>
0

>  <NsssN>
0

>  <NddsN>
0

>  <NaasN>
0

>  <NssssN>
0

>  <NsOH>
0

>  <NdO>
1

>  <NssO>
1

>  <NaaO>
0

>  <NsF>
0

>  <NsSiH3>
0

>  <NssSiH2>
0

>  <NsssSiH>
0

>  <NssssSi>
0

>  <NsPH2>
0

>  <NssPH>
0

>  <NsssP>
0

>  <NdsssP>
0

>  <NsssssP>
0

>  <NsSH>
0

>  <NdS>
0

>  <NssS>
0

>  <NaaS>
0

>  <NdssS>
0

>  <NddssS>
0

>  <NsCl>
0

>  <NsBr>
0

>  <NsI>
0

>  <fragCpx>
7.02

>  <fMF>
0

>  <nHBAcc>
2

>  <nHBDon>
0

>  <Kier1>
8

>  <Kier2>
5.14

>  <Lipinski>
1

>  <GhoseFilter>
0

>  <FilterItLogS>
-1.5

>  <VMcGowan>
102.84

>  <LabuteASA>
49.84

>  <PEOE_VSA1>
4.74

>  <PEOE_VSA2>
4.79

>  <PEOE_VSA3>
0

>  <PEOE_VSA4>
0

>  <PEOE_VSA5>
0

>  <PEOE_VSA6>
13.34

>  <PEOE_VSA7>
6.42

>  <PEOE_VSA8>
6.92

>  <PEOE_VSA9>
6.61

>  <PEOE_VSA10>
0

>  <PEOE_VSA11>
0

>  <PEOE_VSA12>
0

>  <PEOE_VSA13>
0

>  <SMR_VSA1>
9.53

>  <SMR_VSA2>
0

>  <SMR_VSA3>
0

>  <SMR_VSA4>
0

>  <SMR_VSA5>
26.69

>  <SMR_VSA6>
6.61

>  <SMR_VSA7>
0

>  <SMR_VSA8>
0

>  <SMR_VSA9>
0

>  <SlogP_VSA1>
0

>  <SlogP_VSA2>
12.58

>  <SlogP_VSA3>
9.53

>  <SlogP_VSA4>
0

>  <SlogP_VSA5>
26.69

>  <SlogP_VSA6>
0

>  <SlogP_VSA7>
0

>  <SlogP_VSA8>
0

>  <SlogP_VSA9>
0

>  <SlogP_VSA10>
0

>  <SlogP_VSA11>
0

>  <EState_VSA1>
0

>  <EState_VSA2>
5.97

>  <EState_VSA3>
6.61

>  <EState_VSA4>
12.84

>  <EState_VSA5>
6.92

>  <EState_VSA6>
0

>  <EState_VSA7>
0

>  <EState_VSA8>
11.66

>  <EState_VSA9>
0

>  <EState_VSA10>
4.79

>  <VSA_EState1>
4.64

>  <VSA_EState2>
10.1

>  <VSA_EState3>
0

>  <VSA_EState4>
0

>  <VSA_EState5>
-0.18

>  <VSA_EState6>
0

>  <VSA_EState7>
2.05

>  <VSA_EState8>
4.06

>  <VSA_EState9>
0

>  <apol>
19.63

>  <bpol>
14.64

>  <nRing>
0

>  <nHRing>
0

>  <naRing>
0

>  <naHRing>
0

>  <nARing 2>
0

>  <nAHRing 2>
0

>  <nFRing>
0

>  <nFHRing>
0

>  <nFaRing>
0

>  <nFaHRing>
0

>  <nFARing 2>
0

>  <nFAHRing 2>
0

>  <nRot>
3

>  <SLogP>
1.35

>  <SMR>
31.54

>  <TopoPSA(NO)>
26.3

>  <TopoPSA>
26.3

>  <JGI1>
0.21

>  <JGI2>
0.06

>  <JGI3>
0.05

>  <JGI4>
0.04

>  <JGI5>
0.04

>  <Diameter>
6

>  <Radius>
3

>  <TMWC10>
68.74

>  <TSRW10>
33.09

>  <MW>
116.08

>  <AMW>
5.8

>  <WPath>
79

>  <WPol>
5

>  <Zagreb1>
28

>  <Zagreb2>
26

>  <mZagreb2>
2.08

>  <yes>


>  <nAR-cont>
0.336376

>  <nHA-cont>
0.464727961

>  <MWHBN>
0.185631338

>  <MWHBN-cont>
0.992504102

>  <TPSA-cont>
0.816409669

>  <pka_cont>
0.97

>  <yes.1>


>  <BBB_SCORE>
4.407679452

>  <MMFF94 Energy>
-11.393

$$$$
Compound 494
Actelion Java MolfileCreator 2.0

  0  0  0  0  0  0              0 V3000
M  V30 BEGIN CTAB
M  V30 COUNTS 41 43 0 0 0
M  V30 BEGIN ATOM
M  V30 1 Cl -5.5765 0.3226 -1.7754 0
M  V30 2 C -3.887 -0.0058 -1.8554 0
M  V30 3 C -3.2777 -0.7296 -0.8061 0
M  V30 4 C -3.1539 0.4536 -2.9509 0
M  V30 5 C -1.901 -1.0165 -0.8242 0
M  V30 6 C -1.8128 0.1564 -2.952 0
M  V30 7 C -1.2031 -0.5658 -1.926 0
M  V30 8 C -1.2287 -1.7674 0.2897 0
M  V30 9 N -0.8383 0.4844 -3.8888 0
M  V30 10 N 0.1606 -0.6869 -2.2317 0
M  V30 11 N -0.0837 -1.0873 0.9065 0
M  V30 12 C 0.396 -0.0348 -3.4596 0
M  V30 13 C 1.0778 -1.4558 -1.4074 0
M  V30 14 C 1.1413 -0.9847 0.0712 0 CFG=2
M  V30 15 C -0.4679 0.1946 1.5174 0
M  V30 16 S 1.8037 0.1357 -4.3126 0
M  V30 17 C 2.2308 -1.8002 0.7841 0
M  V30 18 C 0.4963 0.607 2.5955 0
M  V30 19 C 1.2334 1.7329 2.6795 0
M  V30 20 C 2.1418 1.9642 3.8592 0
M  V30 21 C 1.2548 2.8383 1.6605 0
M  V30 22 H -3.8881 -1.0609 0.0323 0
M  V30 23 H -3.6167 1.0138 -3.7532 0
M  V30 24 H -1.9628 -1.976 1.0798 0
M  V30 25 H -0.9373 -2.7631 -0.0669 0
M  V30 26 H -0.9734 1.0034 -4.7434 0
M  V30 27 H 2.0804 -1.3852 -1.8426 0
M  V30 28 H 0.794 -2.5126 -1.4825 0
M  V30 29 H 1.4836 0.0584 0.0395 0
M  V30 30 H -1.4389 0.0861 2.0194 0
M  V30 31 H -0.6075 0.9663 0.755 0
M  V30 32 H 2.3897 -1.4536 1.8106 0
M  V30 33 H 1.9701 -2.864 0.823 0
M  V30 34 H 3.189 -1.708 0.261 0
M  V30 35 H 0.5754 -0.1221 3.4018 0
M  V30 36 H 3.1795 2.0643 3.5245 0
M  V30 37 H 2.1039 1.1423 4.5819 0
M  V30 38 H 1.8547 2.8813 4.3841 0
M  V30 39 H 0.627 2.6435 0.7891 0
M  V30 40 H 0.9086 3.7732 2.1136 0
M  V30 41 H 2.2757 2.9905 1.2945 0
M  V30 END ATOM
M  V30 BEGIN BOND
M  V30 1 1 1 2
M  V30 2 2 2 3
M  V30 3 1 2 4
M  V30 4 1 3 5
M  V30 5 2 4 6
M  V30 6 2 5 7
M  V30 7 1 5 8
M  V30 8 1 6 9
M  V30 9 1 7 10
M  V30 10 1 8 11
M  V30 11 1 9 12
M  V30 12 1 10 13
M  V30 13 1 11 14
M  V30 14 1 11 15
M  V30 15 2 12 16
M  V30 16 1 14 17
M  V30 17 1 15 18
M  V30 18 2 18 19
M  V30 19 1 19 20
M  V30 20 1 19 21
M  V30 21 1 6 7
M  V30 22 1 10 12
M  V30 23 1 13 14
M  V30 24 1 3 22
M  V30 25 1 4 23
M  V30 26 1 8 24
M  V30 27 1 8 25
M  V30 28 1 9 26
M  V30 29 1 13 27
M  V30 30 1 13 28
M  V30 31 1 14 29
M  V30 32 1 15 30
M  V30 33 1 15 31
M  V30 34 1 17 32
M  V30 35 1 17 33
M  V30 36 1 17 34
M  V30 37 1 18 35
M  V30 38 1 20 36
M  V30 39 1 20 37
M  V30 40 1 20 38
M  V30 41 1 21 39
M  V30 42 1 21 40
M  V30 43 1 21 41
M  V30 END BOND
M  V30 BEGIN COLLECTION
M  V30 MDLV30/STERAC1 ATOMS=(1 14)
M  V30 END COLLECTION
M  V30 END CTAB
M  END
>  <Column 1>
609

>  <level_0>
693

>  <index>
693

>  <Unnamed: 0>
693

>  <NO.>
704

>  <Name>
r82913

>  <IUPAC_name>
6-chloro-11-methyl-10-(3-methylbut-2-enyl)-1-3-10-triazatricyclo[6.4.1.04-13]trideca-4-6-8(13)-triene-2-thione

>  <SMILES>
CC(C)=CCN1Cc2cc(Cl)cc3[nH]c(=S)n(c23)CC1C

>  <CID>
3010454

>  <logBB>
0.28

>  <BBB+/BBB->
BBB+

>  <Inchi>
InChI=1S/C16H20ClN3S/c1-10(2)4-5-19-9-12-6-13(17)7-14-15(12)20(8-11(19)3)16(21)18-14/h4-6-7-11H-5-8-9H2-1-3H3-(H-18-21)

>  <threshold>


>  <reference>
R2|R2|R25|R27|R46|

>  <group>
A

>  <Class>
1

>  <ABC>
16.61

>  <ABCGG>
13.81

>  <nAcid>
0

>  <nBase>
1

>  <nAromAtom>
9

>  <nAromBond>
10

>  <nAtom>
41

>  <nHeavyAtom>
21

>  <nSpiro>
0

>  <nBridgehead>
0

>  <nHetero>
5

>  <nN>
3

>  <nO>
0

>  <nF>
0

>  <BalabanJ>
1.76

>  <BertzCT>
767.66

>  <nBonds>
43

>  <nBondsO>
23

>  <nBondsS>
31

>  <nBondsD>
2

>  <nBondsT>
0

>  <nBondsA>
10

>  <nBondsM>
12

>  <nBondsKS>
38

>  <nBondsKD>
5

>  <RNCG>
0.23

>  <RPCG>
0.13

>  <FCSP3>
0.44

>  <SZ>
28.33

>  <Sm>
26.8

>  <Sv>
25.97

>  <Sse>
40.71

>  <Sp>
29

>  <Si>
46.1

>  <MZ>
0.69

>  <Mm>
0.65

>  <Mv>
0.63

>  <Mse>
0.99

>  <Mp>
0.71

>  <Mi>
1.12

>  <NsCH3>
3

>  <NdCH2>
0

>  <NssCH2>
3

>  <NtCH>
0

>  <NdsCH>
1

>  <NaaCH>
2

>  <NsssCH>
1

>  <NddC>
0

>  <NtsC>
0

>  <NdssC>
1

>  <NaasC>
2

>  <NaaaC>
2

>  <NssssC>
0

>  <NsNH3>
0

>  <NsNH2>
0

>  <NssNH2>
0

>  <NdNH>
0

>  <NssNH>
0

>  <NaaNH>
1

>  <NtN>
0

>  <NsssNH>
0

>  <NdsN>
0

>  <NaaN>
0

>  <NsssN>
1

>  <NddsN>
0

>  <NaasN>
1

>  <NssssN>
0

>  <NsOH>
0

>  <NdO>
0

>  <NssO>
0

>  <NaaO>
0

>  <NsF>
0

>  <NsSiH3>
0

>  <NssSiH2>
0

>  <NsssSiH>
0

>  <NssssSi>
0

>  <NsPH2>
0

>  <NssPH>
0

>  <NsssP>
0

>  <NdsssP>
0

>  <NsssssP>
0

>  <NsSH>
0

>  <NdS>
1

>  <NssS>
0

>  <NaaS>
0

>  <NdssS>
0

>  <NddssS>
0

>  <NsCl>
1

>  <NsBr>
0

>  <NsI>
0

>  <fragCpx>
109.05

>  <fMF>
0.32

>  <nHBAcc>
3

>  <nHBDon>
1

>  <Kier1>
15.88

>  <Kier2>
6.25

>  <Lipinski>
1

>  <GhoseFilter>
1

>  <FilterItLogS>
-4.08

>  <VMcGowan>
240.75

>  <LabuteASA>
134.76

>  <PEOE_VSA1>
9.55

>  <PEOE_VSA2>
4.9

>  <PEOE_VSA3>
0

>  <PEOE_VSA4>
0

>  <PEOE_VSA5>
0

>  <PEOE_VSA6>
23.25

>  <PEOE_VSA7>
50.69

>  <PEOE_VSA8>
30.7

>  <PEOE_VSA9>
11.03

>  <PEOE_VSA10>
0

>  <PEOE_VSA11>
4.77

>  <PEOE_VSA12>
0

>  <PEOE_VSA13>
0

>  <SMR_VSA1>
0

>  <SMR_VSA2>
0

>  <SMR_VSA3>
14.45

>  <SMR_VSA4>
0

>  <SMR_VSA5>
39.9

>  <SMR_VSA6>
6.54

>  <SMR_VSA7>
39.14

>  <SMR_VSA8>
0

>  <SMR_VSA9>
0

>  <SlogP_VSA1>
0

>  <SlogP_VSA2>
27.04

>  <SlogP_VSA3>
13.09

>  <SlogP_VSA4>
4.77

>  <SlogP_VSA5>
26.33

>  <SlogP_VSA6>
23.78

>  <SlogP_VSA7>
5.02

>  <SlogP_VSA8>
11.03

>  <SlogP_VSA9>
0

>  <SlogP_VSA10>
0

>  <SlogP_VSA11>
0

>  <EState_VSA1>
0

>  <EState_VSA2>
0

>  <EState_VSA3>
6.04

>  <EState_VSA4>
34.94

>  <EState_VSA5>
16.65

>  <EState_VSA6>
0

>  <EState_VSA7>
6.07

>  <EState_VSA8>
47.36

>  <EState_VSA9>
23.82

>  <EState_VSA10>
0

>  <VSA_EState1>
2.99

>  <VSA_EState2>
5.75

>  <VSA_EState3>
0.76

>  <VSA_EState4>
4.84

>  <VSA_EState5>
0

>  <VSA_EState6>
4.46

>  <VSA_EState7>
2.28

>  <VSA_EState8>
9.3

>  <VSA_EState9>
0

>  <apol>
48.44

>  <bpol>
25.79

>  <nRing>
3

>  <nHRing>
2

>  <naRing>
2

>  <naHRing>
1

>  <nARing 2>
1

>  <nAHRing 2>
1

>  <nFRing>
1

>  <nFHRing>
1

>  <nFaRing>
0

>  <nFaHRing>
0

>  <nFARing 2>
1

>  <nFAHRing 2>
1

>  <nRot>
2

>  <SLogP>
4.52

>  <SMR>
91.44

>  <TopoPSA(NO)>
23.96

>  <TopoPSA>
56.05

>  <JGI1>
0.24

>  <JGI2>
0.07

>  <JGI3>
0.06

>  <JGI4>
0.05

>  <JGI5>
0.04

>  <Diameter>
9

>  <Radius>
5

>  <TMWC10>
119.17

>  <TSRW10>
69.75

>  <MW>
321.11

>  <AMW>
7.83

>  <WPath>
859

>  <WPol>
37

>  <Zagreb1>
114

>  <Zagreb2>
136

>  <mZagreb2>
4.47

>  <yes>


>  <nAR-cont>
0.816016

>  <nHA-cont>
0.994529749

>  <MWHBN>
0.223219986

>  <MWHBN-cont>
0.992731671

>  <TPSA-cont>
0.608736195

>  <pka_cont>
0.97

>  <yes.1>


>  <BBB_SCORE>
5.002115646

>  <MMFF94 Energy>
17.906

$$$$
Compound 495
Actelion Java MolfileCreator 2.0

  0  0  0  0  0  0              0 V3000
M  V30 BEGIN CTAB
M  V30 COUNTS 42 45 0 0 0
M  V30 BEGIN ATOM
M  V30 1 O 0.7205 0.4802 -1.4414 0
M  V30 2 C 0.3382 0.1936 -0.3108 0
M  V30 3 C -0.8952 0.745 0.2443 0
M  V30 4 C 1.0849 -0.8112 0.5944 0 CFG=2
M  V30 5 C -1.8879 1.5766 -0.3436 0
M  V30 6 C -1.2689 0.5118 1.5552 0
M  V30 7 C 0.9689 -0.3792 2.0778 0
M  V30 8 C 2.5698 -0.9338 0.205 0
M  V30 9 C -2.8617 1.8135 0.6343 0
M  V30 10 C -2.0525 2.1538 -1.6199 0
M  V30 11 N -2.4703 1.1355 1.7755 0
M  V30 12 C -0.4918 -0.2817 2.5462 0
M  V30 13 C 2.83 -1.8676 -0.9378 0
M  V30 14 C -3.9879 2.6142 0.3779 0
M  V30 15 C -3.1719 2.9489 -1.883 0
M  V30 16 C -3.2252 1.1101 3.01 0
M  V30 17 C 3.2858 -1.6081 -2.1742 0
M  V30 18 C 2.6386 -3.3433 -0.7879 0
M  V30 19 C -4.1245 3.1754 -0.8952 0
M  V30 20 N 3.4475 -2.7394 -2.9391 0
M  V30 21 C 3.629 -0.29 -2.7841 0
M  V30 22 C 3.0849 -3.7145 -2.17 0
M  V30 23 H 0.5796 -1.7787 0.4784 0
M  V30 24 H 1.4983 -1.0904 2.723 0
M  V30 25 H 1.4545 0.5976 2.2095 0
M  V30 26 H 2.9818 0.0605 -7.0E-4 0
M  V30 27 H 3.1444 -1.3158 1.0592 0
M  V30 28 H -1.31 1.983 -2.3958 0
M  V30 29 H -0.5217 0.1822 3.5379 0
M  V30 30 H -0.9243 -1.2855 2.6283 0
M  V30 31 H -4.7384 2.8008 1.1389 0
M  V30 32 H -3.2935 3.3927 -2.8678 0
M  V30 33 H -4.2912 1.0452 2.7785 0
M  V30 34 H -2.9419 0.235 3.599 0
M  V30 35 H -3.0049 2.0275 3.5611 0
M  V30 36 H 3.2964 -3.7934 -0.042 0
M  V30 37 H 1.5997 -3.6412 -0.6358 0
M  V30 38 H -4.9884 3.7981 -1.1159 0
M  V30 39 H 3.4923 0.5448 -2.0926 0
M  V30 40 H 4.6751 -0.2847 -3.1072 0
M  V30 41 H 2.9985 -0.1042 -3.6597 0
M  V30 42 H 3.0947 -4.7675 -2.486 0
M  V30 END ATOM
M  V30 BEGIN BOND
M  V30 1 2 1 2
M  V30 2 1 2 3
M  V30 3 1 2 4
M  V30 4 1 3 5
M  V30 5 2 3 6
M  V30 6 1 4 7
M  V30 7 1 4 8
M  V30 8 2 5 9
M  V30 9 1 5 10
M  V30 10 1 6 11
M  V30 11 1 6 12
M  V30 12 1 8 13
M  V30 13 1 9 14
M  V30 14 2 10 15
M  V30 15 1 11 16
M  V30 16 2 13 17
M  V30 17 1 13 18
M  V30 18 2 14 19
M  V30 19 1 17 20
M  V30 20 1 17 21
M  V30 21 1 18 22
M  V30 22 1 7 12
M  V30 23 1 9 11
M  V30 24 1 15 19
M  V30 25 2 20 22
M  V30 26 1 4 23
M  V30 27 1 7 24
M  V30 28 1 7 25
M  V30 29 1 8 26
M  V30 30 1 8 27
M  V30 31 1 10 28
M  V30 32 1 12 29
M  V30 33 1 12 30
M  V30 34 1 14 31
M  V30 35 1 15 32
M  V30 36 1 16 33
M  V30 37 1 16 34
M  V30 38 1 16 35
M  V30 39 1 18 36
M  V30 40 1 18 37
M  V30 41 1 19 38
M  V30 42 1 21 39
M  V30 43 1 21 40
M  V30 44 1 21 41
M  V30 45 1 22 42
M  V30 END BOND
M  V30 BEGIN COLLECTION
M  V30 MDLV30/STERAC1 ATOMS=(1 4)
M  V30 END COLLECTION
M  V30 END CTAB
M  END
>  <Column 1>
610

>  <level_0>
695

>  <index>
695

>  <Unnamed: 0>
695

>  <NO.>
706

>  <Name>
ondansetron

>  <IUPAC_name>


>  <SMILES>
CC1=C(CC2CCc3c(c4ccccc4n3C)C2=O)CC=N1

>  <CID>


>  <logBB>
0.28

>  <BBB+/BBB->
BBB+

>  <Inchi>
InChI=1S/C19H20N2O/c1-12-13(9-10-20-12)11-14-7-8-17-18(19(14)22)15-5-3-4-6-16(15)21(17)2/h3-6-10-14H-7-9-11H2-1-2H3

>  <threshold>


>  <reference>
R2|R2|R25|

>  <group>
A

>  <Class>
1

>  <ABC>
17.68

>  <ABCGG>
14.72

>  <nAcid>
0

>  <nBase>
0

>  <nAromAtom>
9

>  <nAromBond>
10

>  <nAtom>
42

>  <nHeavyAtom>
22

>  <nSpiro>
0

>  <nBridgehead>
0

>  <nHetero>
3

>  <nN>
2

>  <nO>
1

>  <nF>
0

>  <BalabanJ>
1.48

>  <BertzCT>
838.48

>  <nBonds>
45

>  <nBondsO>
25

>  <nBondsS>
32

>  <nBondsD>
3

>  <nBondsT>
0

>  <nBondsA>
10

>  <nBondsM>
13

>  <nBondsKS>
38

>  <nBondsKD>
7

>  <RNCG>
0.28

>  <RPCG>
0.13

>  <FCSP3>
0.37

>  <SZ>
26

>  <Sm>
24.34

>  <Sv>
26.65

>  <Sse>
41.54

>  <Sp>
28.78

>  <Si>
46.94

>  <MZ>
0.62

>  <Mm>
0.58

>  <Mv>
0.63

>  <Mse>
0.99

>  <Mp>
0.69

>  <Mi>
1.12

>  <NsCH3>
2

>  <NdCH2>
0

>  <NssCH2>
4

>  <NtCH>
0

>  <NdsCH>
1

>  <NaaCH>
4

>  <NsssCH>
1

>  <NddC>
0

>  <NtsC>
0

>  <NdssC>
3

>  <NaasC>
2

>  <NaaaC>
2

>  <NssssC>
0

>  <NsNH3>
0

>  <NsNH2>
0

>  <NssNH2>
0

>  <NdNH>
0

>  <NssNH>
0

>  <NaaNH>
0

>  <NtN>
0

>  <NsssNH>
0

>  <NdsN>
1

>  <NaaN>
0

>  <NsssN>
0

>  <NddsN>
0

>  <NaasN>
1

>  <NssssN>
0

>  <NsOH>
0

>  <NdO>
1

>  <NssO>
0

>  <NaaO>
0

>  <NsF>
0

>  <NsSiH3>
0

>  <NssSiH2>
0

>  <NsssSiH>
0

>  <NssssSi>
0

>  <NsPH2>
0

>  <NssPH>
0

>  <NsssP>
0

>  <NdsssP>
0

>  <NsssssP>
0

>  <NsSH>
0

>  <NdS>
0

>  <NssS>
0

>  <NaaS>
0

>  <NdssS>
0

>  <NddssS>
0

>  <NsCl>
0

>  <NsBr>
0

>  <NsI>
0

>  <fragCpx>
163.03

>  <fMF>
0.45

>  <nHBAcc>
3

>  <nHBDon>
0

>  <Kier1>
15.52

>  <Kier2>
6.14

>  <Lipinski>
1

>  <GhoseFilter>
1

>  <FilterItLogS>
-4.68

>  <VMcGowan>
230.86

>  <LabuteASA>
129.9

>  <PEOE_VSA1>
4.57

>  <PEOE_VSA2>
9.79

>  <PEOE_VSA3>
0

>  <PEOE_VSA4>
0

>  <PEOE_VSA5>
0

>  <PEOE_VSA6>
18.2

>  <PEOE_VSA7>
37.83

>  <PEOE_VSA8>
53.46

>  <PEOE_VSA9>
0

>  <PEOE_VSA10>
0

>  <PEOE_VSA11>
5.78

>  <PEOE_VSA12>
0

>  <PEOE_VSA13>
0

>  <SMR_VSA1>
4.79

>  <SMR_VSA2>
0

>  <SMR_VSA3>
4.57

>  <SMR_VSA4>
17.96

>  <SMR_VSA5>
32.61

>  <SMR_VSA6>
0

>  <SMR_VSA7>
46.79

>  <SMR_VSA8>
0

>  <SMR_VSA9>
0

>  <SlogP_VSA1>
0

>  <SlogP_VSA2>
16.56

>  <SlogP_VSA3>
13.47

>  <SlogP_VSA4>
5.92

>  <SlogP_VSA5>
42.24

>  <SlogP_VSA6>
40.53

>  <SlogP_VSA7>
0

>  <SlogP_VSA8>
10.9

>  <SlogP_VSA9>
0

>  <SlogP_VSA10>
0

>  <SlogP_VSA11>
0

>  <EState_VSA1>
0

>  <EState_VSA2>
5.92

>  <EState_VSA3>
5.78

>  <EState_VSA4>
42.33

>  <EState_VSA5>
16.78

>  <EState_VSA6>
0

>  <EState_VSA7>
18.35

>  <EState_VSA8>
35.66

>  <EState_VSA9>
0

>  <EState_VSA10>
4.79

>  <VSA_EState1>
2.2

>  <VSA_EState2>
17.41

>  <VSA_EState3>
1.11

>  <VSA_EState4>
5.78

>  <VSA_EState5>
0.44

>  <VSA_EState6>
8.25

>  <VSA_EState7>
5.68

>  <VSA_EState8>
2.05

>  <VSA_EState9>
2.08

>  <apol>
48.07

>  <bpol>
23.78

>  <nRing>
4

>  <nHRing>
2

>  <naRing>
2

>  <naHRing>
1

>  <nARing 2>
2

>  <nAHRing 2>
1

>  <nFRing>
1

>  <nFHRing>
1

>  <nFaRing>
0

>  <nFaHRing>
0

>  <nFARing 2>
1

>  <nFAHRing 2>
1

>  <nRot>
2

>  <SLogP>
4.06

>  <SMR>
89.49

>  <TopoPSA(NO)>
34.36

>  <TopoPSA>
34.36

>  <JGI1>
0.14

>  <JGI2>
0.08

>  <JGI3>
0.07

>  <JGI4>
0.04

>  <JGI5>
0.03

>  <Diameter>
10

>  <Radius>
5

>  <TMWC10>
123.43

>  <TSRW10>
72.98

>  <MW>
292.16

>  <AMW>
6.96

>  <WPath>
997

>  <WPol>
38

>  <Zagreb1>
124

>  <Zagreb2>
153

>  <mZagreb2>
4.72

>  <yes>


>  <nAR-cont>
1

>  <nHA-cont>
0.983774276

>  <MWHBN>
0.175513641

>  <MWHBN-cont>
0.981839682

>  <TPSA-cont>
0.760145864

>  <pka_cont>
0.97

>  <yes.1>


>  <BBB_SCORE>
5.461825526

>  <MMFF94 Energy>
58.027

$$$$
Compound 496
Actelion Java MolfileCreator 2.0

  0  0  0  0  0  0              0 V3000
M  V30 BEGIN CTAB
M  V30 COUNTS 41 44 0 0 0
M  V30 BEGIN ATOM
M  V30 1 O -1.9184 0.3195 -1.4385 0
M  V30 2 C -0.9236 0.2238 -0.7231 0
M  V30 3 C -0.2292 1.3934 -0.1989 0
M  V30 4 C -0.3813 -1.1422 -0.2733 0 CFG=2
M  V30 5 C -0.5109 2.7807 -0.333 0
M  V30 6 C 0.9196 1.2713 0.5603 0
M  V30 7 C 1.1534 -1.0976 -0.0799 0
M  V30 8 C -0.8061 -2.2012 -1.2996 0
M  V30 9 C 0.4795 3.4736 0.374 0
M  V30 10 C -1.517 3.5179 -0.9919 0
M  V30 11 N 1.3256 2.5288 0.9279 0
M  V30 12 C 1.5875 -0.0105 0.9169 0
M  V30 13 N -0.5011 -3.5613 -0.8941 0
M  V30 14 C 0.499 4.8776 0.435 0
M  V30 15 C -1.5053 4.9148 -0.9327 0
M  V30 16 C 2.4674 2.8407 1.7612 0
M  V30 17 C -1.238 -4.362 -0.0512 0
M  V30 18 C 0.5742 -4.2894 -1.327 0
M  V30 19 C -0.5089 5.583 -0.2291 0
M  V30 20 N -0.6495 -5.5322 0.1012 0
M  V30 21 C -2.5157 -3.9533 0.5858 0
M  V30 22 C 0.4668 -5.5005 -0.6896 0
M  V30 23 H -0.8486 -1.3575 0.6962 0
M  V30 24 H 1.5272 -2.062 0.2806 0
M  V30 25 H 1.6347 -0.9067 -1.0488 0
M  V30 26 H -1.8852 -2.1669 -1.491 0
M  V30 27 H -0.3157 -2.0241 -2.2653 0
M  V30 28 H -2.2979 3.0031 -1.5463 0
M  V30 29 H 1.2988 -0.3008 1.9338 0
M  V30 30 H 2.6779 0.0879 0.8891 0
M  V30 31 H 1.2704 5.4129 0.9792 0
M  V30 32 H -2.2817 5.4793 -1.4429 0
M  V30 33 H 2.7105 1.9818 2.3908 0
M  V30 34 H 3.3079 3.084 1.1067 0
M  V30 35 H 2.2224 3.6881 2.4064 0
M  V30 36 H 1.3047 -3.901 -2.0224 0
M  V30 37 H -0.5134 6.6701 -0.1944 0
M  V30 38 H -2.3606 -3.1137 1.2691 0
M  V30 39 H -3.254 -3.6652 -0.1684 0
M  V30 40 H -2.9349 -4.7828 1.1642 0
M  V30 41 H 1.1302 -6.3524 -0.7605 0
M  V30 END ATOM
M  V30 BEGIN BOND
M  V30 1 2 1 2
M  V30 2 1 2 3
M  V30 3 1 2 4
M  V30 4 1 3 5
M  V30 5 2 3 6
M  V30 6 1 4 7
M  V30 7 1 4 8
M  V30 8 2 5 9
M  V30 9 1 5 10
M  V30 10 1 6 11
M  V30 11 1 6 12
M  V30 12 1 8 13
M  V30 13 1 9 14
M  V30 14 2 10 15
M  V30 15 1 11 16
M  V30 16 1 13 17
M  V30 17 1 13 18
M  V30 18 2 14 19
M  V30 19 2 17 20
M  V30 20 1 17 21
M  V30 21 2 18 22
M  V30 22 1 7 12
M  V30 23 1 9 11
M  V30 24 1 15 19
M  V30 25 1 20 22
M  V30 26 1 4 23
M  V30 27 1 7 24
M  V30 28 1 7 25
M  V30 29 1 8 26
M  V30 30 1 8 27
M  V30 31 1 10 28
M  V30 32 1 12 29
M  V30 33 1 12 30
M  V30 34 1 14 31
M  V30 35 1 15 32
M  V30 36 1 16 33
M  V30 37 1 16 34
M  V30 38 1 16 35
M  V30 39 1 18 36
M  V30 40 1 19 37
M  V30 41 1 21 38
M  V30 42 1 21 39
M  V30 43 1 21 40
M  V30 44 1 22 41
M  V30 END BOND
M  V30 BEGIN COLLECTION
M  V30 MDLV30/STERAC1 ATOMS=(1 4)
M  V30 END COLLECTION
M  V30 END CTAB
M  END
>  <Column 1>
611

>  <level_0>
696

>  <index>
696

>  <Unnamed: 0>
696

>  <NO.>
707

>  <Name>
ondansetron

>  <IUPAC_name>
9-methyl-3-[(2-methylimidazol-1-yl)methyl]-2-3-dihydro-1h-carbazol-4-one

>  <SMILES>
Cc1nccn1CC1CCc2c(c3ccccc3n2C)C1=O

>  <CID>
4595

>  <logBB>
0.28

>  <BBB+/BBB->
BBB+

>  <Inchi>
InChI=1S/C18H19N3O/c1-12-19-9-10-21(12)11-13-7-8-16-17(18(13)22)14-5-3-4-6-15(14)20(16)2/h3-6-9-10-13H-7-8-11H2-1-2H3

>  <threshold>


>  <reference>
R20|

>  <group>
A

>  <Class>
1

>  <ABC>
17.68

>  <ABCGG>
14.72

>  <nAcid>
0

>  <nBase>
0

>  <nAromAtom>
14

>  <nAromBond>
15

>  <nAtom>
41

>  <nHeavyAtom>
22

>  <nSpiro>
0

>  <nBridgehead>
0

>  <nHetero>
4

>  <nN>
3

>  <nO>
1

>  <nF>
0

>  <BalabanJ>
1.48

>  <BertzCT>
871.72

>  <nBonds>
44

>  <nBondsO>
25

>  <nBondsS>
28

>  <nBondsD>
1

>  <nBondsT>
0

>  <nBondsA>
15

>  <nBondsM>
16

>  <nBondsKS>
37

>  <nBondsKD>
7

>  <RNCG>
0.23

>  <RPCG>
0.11

>  <FCSP3>
0.33

>  <SZ>
26

>  <Sm>
24.43

>  <Sv>
26.14

>  <Sse>
40.75

>  <Sp>
28.04

>  <Si>
46.03

>  <MZ>
0.63

>  <Mm>
0.6

>  <Mv>
0.64

>  <Mse>
0.99

>  <Mp>
0.68

>  <Mi>
1.12

>  <NsCH3>
2

>  <NdCH2>
0

>  <NssCH2>
3

>  <NtCH>
0

>  <NdsCH>
0

>  <NaaCH>
6

>  <NsssCH>
1

>  <NddC>
0

>  <NtsC>
0

>  <NdssC>
1

>  <NaasC>
3

>  <NaaaC>
2

>  <NssssC>
0

>  <NsNH3>
0

>  <NsNH2>
0

>  <NssNH2>
0

>  <NdNH>
0

>  <NssNH>
0

>  <NaaNH>
0

>  <NtN>
0

>  <NsssNH>
0

>  <NdsN>
0

>  <NaaN>
1

>  <NsssN>
0

>  <NddsN>
0

>  <NaasN>
2

>  <NssssN>
0

>  <NsOH>
0

>  <NdO>
1

>  <NssO>
0

>  <NaaO>
0

>  <NsF>
0

>  <NsSiH3>
0

>  <NssSiH2>
0

>  <NsssSiH>
0

>  <NssssSi>
0

>  <NsPH2>
0

>  <NssPH>
0

>  <NsssP>
0

>  <NdsssP>
0

>  <NsssssP>
0

>  <NsSH>
0

>  <NdS>
0

>  <NssS>
0

>  <NaaS>
0

>  <NdssS>
0

>  <NddssS>
0

>  <NsCl>
0

>  <NsBr>
0

>  <NsI>
0

>  <fragCpx>
163.04

>  <fMF>
0.46

>  <nHBAcc>
4

>  <nHBDon>
0

>  <Kier1>
15.52

>  <Kier2>
6.14

>  <Lipinski>
1

>  <GhoseFilter>
1

>  <FilterItLogS>
-4.02

>  <VMcGowan>
226.75

>  <LabuteASA>
128.94

>  <PEOE_VSA1>
9.13

>  <PEOE_VSA2>
4.79

>  <PEOE_VSA3>
4.98

>  <PEOE_VSA4>
0

>  <PEOE_VSA5>
0

>  <PEOE_VSA6>
18.2

>  <PEOE_VSA7>
25.83

>  <PEOE_VSA8>
54.06

>  <PEOE_VSA9>
0

>  <PEOE_VSA10>
5.82

>  <PEOE_VSA11>
5.78

>  <PEOE_VSA12>
0

>  <PEOE_VSA13>
0

>  <SMR_VSA1>
4.79

>  <SMR_VSA2>
0

>  <SMR_VSA3>
14.12

>  <SMR_VSA4>
12.97

>  <SMR_VSA5>
26.31

>  <SMR_VSA6>
0

>  <SMR_VSA7>
53.74

>  <SMR_VSA8>
0

>  <SMR_VSA9>
0

>  <SlogP_VSA1>
0

>  <SlogP_VSA2>
19.9

>  <SlogP_VSA3>
20.01

>  <SlogP_VSA4>
12.84

>  <SlogP_VSA5>
28.3

>  <SlogP_VSA6>
36.66

>  <SlogP_VSA7>
0

>  <SlogP_VSA8>
10.9

>  <SlogP_VSA9>
0

>  <SlogP_VSA10>
0

>  <SlogP_VSA11>
0

>  <EState_VSA1>
0

>  <EState_VSA2>
11.7

>  <EState_VSA3>
0

>  <EState_VSA4>
41.68

>  <EState_VSA5>
5.69

>  <EState_VSA6>
6.2

>  <EState_VSA7>
25.25

>  <EState_VSA8>
33.3

>  <EState_VSA9>
0

>  <EState_VSA10>
4.79

>  <VSA_EState1>
4.26

>  <VSA_EState2>
17.29

>  <VSA_EState3>
1.09

>  <VSA_EState4>
3.28

>  <VSA_EState5>
1.3

>  <VSA_EState6>
8.21

>  <VSA_EState7>
5.63

>  <VSA_EState8>
2.71

>  <VSA_EState9>
2.06

>  <apol>
46.83

>  <bpol>
24.49

>  <nRing>
4

>  <nHRing>
2

>  <naRing>
3

>  <naHRing>
2

>  <nARing 2>
1

>  <nAHRing 2>
0

>  <nFRing>
1

>  <nFHRing>
1

>  <nFaRing>
0

>  <nFaHRing>
0

>  <nFARing 2>
1

>  <nFAHRing 2>
1

>  <nRot>
2

>  <SLogP>
3.13

>  <SMR>
86.02

>  <TopoPSA(NO)>
39.82

>  <TopoPSA>
39.82

>  <JGI1>
0.14

>  <JGI2>
0.08

>  <JGI3>
0.07

>  <JGI4>
0.04

>  <JGI5>
0.03

>  <Diameter>
10

>  <Radius>
5

>  <TMWC10>
123.43

>  <TSRW10>
72.98

>  <MW>
293.15

>  <AMW>
7.15

>  <WPath>
997

>  <WPol>
38

>  <Zagreb1>
124

>  <Zagreb2>
153

>  <mZagreb2>
4.72

>  <yes>


>  <nAR-cont>
0.816016

>  <nHA-cont>
0.983774276

>  <MWHBN>
0.233622702

>  <MWHBN-cont>
0.982900943

>  <TPSA-cont>
0.722031673

>  <pka_cont>
0.97

>  <yes.1>


>  <BBB_SCORE>
5.203205038

>  <MMFF94 Energy>
31.56

$$$$
Compound 497
Actelion Java MolfileCreator 2.0

  0  0  0  0  0  0              0 V3000
M  V30 BEGIN CTAB
M  V30 COUNTS 22 23 0 0 0
M  V30 BEGIN ATOM
M  V30 1 Cl 0.5905 2.448 -1.5189 0
M  V30 2 C 0.6142 0.7733 -1.9513 0
M  V30 3 C -0.0335 -0.201 -1.1704 0
M  V30 4 C 1.3035 0.4123 -3.1123 0
M  V30 5 C -0.7668 0.1289 0.0655 0
M  V30 6 C 0.0267 -1.5449 -1.5767 0
M  V30 7 C 1.3499 -0.9246 -3.4986 0
M  V30 8 Cl -2.4574 0.3618 -0.1538 0
M  V30 9 C -0.0959 0.199 1.2253 0
M  V30 10 C 0.7159 -1.9044 -2.7375 0
M  V30 11 Cl 2.1979 -1.3714 -4.9268 0
M  V30 12 N -0.5054 0.4837 2.5293 0
M  V30 13 N 0.3546 0.4693 3.5919 0
M  V30 14 C -1.7546 0.8171 3.0246 0
M  V30 15 C -0.425 0.7829 4.6235 0
M  V30 16 N -1.727 1.0018 4.3243 0
M  V30 17 H 1.8009 1.1701 -3.7123 0
M  V30 18 H -0.4668 -2.3211 -0.9935 0
M  V30 19 H 0.9758 0.0073 1.2024 0
M  V30 20 H 0.7527 -2.9479 -3.0421 0
M  V30 21 H -2.6355 0.9154 2.4118 0
M  V30 22 H -0.0258 0.8531 5.6278 0
M  V30 END ATOM
M  V30 BEGIN BOND
M  V30 1 1 1 2
M  V30 2 2 2 3
M  V30 3 1 2 4
M  V30 4 1 3 5
M  V30 5 1 3 6
M  V30 6 2 4 7
M  V30 7 1 5 8
M  V30 8 2 5 9
M  V30 9 2 6 10
M  V30 10 1 7 11
M  V30 11 1 9 12
M  V30 12 1 12 13
M  V30 13 1 12 14
M  V30 14 2 13 15
M  V30 15 2 14 16
M  V30 16 1 7 10
M  V30 17 1 15 16
M  V30 18 1 4 17
M  V30 19 1 6 18
M  V30 20 1 9 19
M  V30 21 1 10 20
M  V30 22 1 14 21
M  V30 23 1 15 22
M  V30 END BOND
M  V30 END CTAB
M  END
>  <Column 1>
612

>  <level_0>
697

>  <index>
697

>  <Unnamed: 0>
697

>  <NO.>
708

>  <Name>
loreclezole

>  <IUPAC_name>
1-[(z)-2-chloro-2-(2-4-dichlorophenyl)ethenyl]-1-2-4-triazole

>  <SMILES>
Cl/C(=C\n1cncn1)c1ccc(Cl)cc1Cl

>  <CID>
3034012

>  <logBB>
0.28

>  <BBB+/BBB->
BBB+

>  <Inchi>
InChI=1S/C10H6Cl3N3/c11-7-1-2-8(9(12)3-7)10(13)4-16-6-14-5-15-16/h1-6H/b10-4-

>  <threshold>


>  <reference>
R2|R2|R25|R27|R46|R47|

>  <group>
A

>  <Class>
1

>  <ABC>
12.27

>  <ABCGG>
11.06

>  <nAcid>
0

>  <nBase>
0

>  <nAromAtom>
11

>  <nAromBond>
11

>  <nAtom>
22

>  <nHeavyAtom>
16

>  <nSpiro>
0

>  <nBridgehead>
0

>  <nHetero>
6

>  <nN>
3

>  <nO>
0

>  <nF>
0

>  <BalabanJ>
1.81

>  <BertzCT>
520.11

>  <nBonds>
23

>  <nBondsO>
17

>  <nBondsS>
11

>  <nBondsD>
1

>  <nBondsT>
0

>  <nBondsA>
11

>  <nBondsM>
12

>  <nBondsKS>
17

>  <nBondsKD>
6

>  <RNCG>
0.23

>  <RPCG>
0.14

>  <FCSP3>
0

>  <SZ>
23

>  <Sm>
22.86

>  <Sv>
17.17

>  <Sse>
22.95

>  <Sp>
18.29

>  <Si>
24.57

>  <MZ>
1.05

>  <Mm>
1.04

>  <Mv>
0.78

>  <Mse>
1.04

>  <Mp>
0.83

>  <Mi>
1.12

>  <NsCH3>
0

>  <NdCH2>
0

>  <NssCH2>
0

>  <NtCH>
0

>  <NdsCH>
1

>  <NaaCH>
5

>  <NsssCH>
0

>  <NddC>
0

>  <NtsC>
0

>  <NdssC>
1

>  <NaasC>
3

>  <NaaaC>
0

>  <NssssC>
0

>  <NsNH3>
0

>  <NsNH2>
0

>  <NssNH2>
0

>  <NdNH>
0

>  <NssNH>
0

>  <NaaNH>
0

>  <NtN>
0

>  <NsssNH>
0

>  <NdsN>
0

>  <NaaN>
2

>  <NsssN>
0

>  <NddsN>
0

>  <NaasN>
1

>  <NssssN>
0

>  <NsOH>
0

>  <NdO>
0

>  <NssO>
0

>  <NaaO>
0

>  <NsF>
0

>  <NsSiH3>
0

>  <NssSiH2>
0

>  <NsssSiH>
0

>  <NssssSi>
0

>  <NsPH2>
0

>  <NssPH>
0

>  <NsssP>
0

>  <NdsssP>
0

>  <NsssssP>
0

>  <NsSH>
0

>  <NdS>
0

>  <NssS>
0

>  <NaaS>
0

>  <NdssS>
0

>  <NddssS>
0

>  <NsCl>
3

>  <NsBr>
0

>  <NsI>
0

>  <fragCpx>
49.06

>  <fMF>
0.59

>  <nHBAcc>
3

>  <nHBDon>
0

>  <Kier1>
12.46

>  <Kier2>
5.56

>  <Lipinski>
1

>  <GhoseFilter>
1

>  <FilterItLogS>
-3.73

>  <VMcGowan>
170.9

>  <LabuteASA>
107.27

>  <PEOE_VSA1>
0

>  <PEOE_VSA2>
0

>  <PEOE_VSA3>
9.67

>  <PEOE_VSA4>
5.1

>  <PEOE_VSA5>
0

>  <PEOE_VSA6>
40.87

>  <PEOE_VSA7>
12.13

>  <PEOE_VSA8>
16.79

>  <PEOE_VSA9>
10.05

>  <PEOE_VSA10>
12.65

>  <PEOE_VSA11>
0

>  <PEOE_VSA12>
0

>  <PEOE_VSA13>
0

>  <SMR_VSA1>
0

>  <SMR_VSA2>
0

>  <SMR_VSA3>
14.76

>  <SMR_VSA4>
0

>  <SMR_VSA5>
0

>  <SMR_VSA6>
0

>  <SMR_VSA7>
46.46

>  <SMR_VSA8>
0

>  <SMR_VSA9>
0

>  <SlogP_VSA1>
0

>  <SlogP_VSA2>
14.76

>  <SlogP_VSA3>
0

>  <SlogP_VSA4>
0

>  <SlogP_VSA5>
5.56

>  <SlogP_VSA6>
30.85

>  <SlogP_VSA7>
10.05

>  <SlogP_VSA8>
11.23

>  <SlogP_VSA9>
0

>  <SlogP_VSA10>
0

>  <SlogP_VSA11>
0

>  <EState_VSA1>
0

>  <EState_VSA2>
0

>  <EState_VSA3>
20.64

>  <EState_VSA4>
0

>  <EState_VSA5>
17.34

>  <EState_VSA6>
24.4

>  <EState_VSA7>
0

>  <EState_VSA8>
10.08

>  <EState_VSA9>
34.8

>  <EState_VSA10>
0

>  <VSA_EState1>
1.49

>  <VSA_EState2>
3.8

>  <VSA_EState3>
5.43

>  <VSA_EState4>
0.7

>  <VSA_EState5>
0

>  <VSA_EState6>
5.11

>  <VSA_EState7>
4.57

>  <VSA_EState8>
0

>  <VSA_EState9>
0

>  <apol>
30.54

>  <bpol>
10.4

>  <nRing>
2

>  <nHRing>
1

>  <naRing>
2

>  <naHRing>
1

>  <nARing 2>
0

>  <nAHRing 2>
0

>  <nFRing>
0

>  <nFHRing>
0

>  <nFaRing>
0

>  <nFaHRing>
0

>  <nFARing 2>
0

>  <nFAHRing 2>
0

>  <nRot>
2

>  <SLogP>
3.78

>  <SMR>
66.5

>  <TopoPSA(NO)>
30.71

>  <TopoPSA>
30.71

>  <JGI1>
0.21

>  <JGI2>
0.08

>  <JGI3>
0.06

>  <JGI4>
0.04

>  <JGI5>
0.03

>  <Diameter>
9

>  <Radius>
5

>  <TMWC10>
102.72

>  <TSRW10>
61.14

>  <MW>
272.96

>  <AMW>
12.41

>  <WPath>
456

>  <WPol>
20

>  <Zagreb1>
80

>  <Zagreb2>
91

>  <mZagreb2>
3.56

>  <yes>


>  <nAR-cont>
0.336376

>  <nHA-cont>
0.954961865

>  <MWHBN>
0.181581563

>  <MWHBN-cont>
0.988813167

>  <TPSA-cont>
0.78562513

>  <pka_cont>
0.97

>  <yes.1>


>  <BBB_SCORE>
4.830807875

>  <MMFF94 Energy>
25.244

$$$$
Compound 498
Actelion Java MolfileCreator 2.0

  0  0  0  0  0  0              0 V3000
M  V30 BEGIN CTAB
M  V30 COUNTS 6 5 0 0 0
M  V30 BEGIN ATOM
M  V30 1 Cl -1.8985 -0.0948 -1.0438 0
M  V30 2 C -0.5996 0.2206 0.0556 0
M  V30 3 Cl -0.9494 1.2144 1.4226 0
M  V30 4 C 0.6051 -0.3034 -0.1834 0
M  V30 5 Cl 2.001 -0.0987 0.7911 0
M  V30 6 H 0.8182 -0.9261 -1.0429 0
M  V30 END ATOM
M  V30 BEGIN BOND
M  V30 1 1 1 2
M  V30 2 1 2 3
M  V30 3 2 2 4
M  V30 4 1 4 5
M  V30 5 1 4 6
M  V30 END BOND
M  V30 END CTAB
M  END
>  <Column 1>
613

>  <level_0>
698

>  <index>
698

>  <Unnamed: 0>
698

>  <NO.>
709

>  <Name>
trichloroethene

>  <IUPAC_name>
1-1-2-trichloroethene

>  <SMILES>
ClC=C(Cl)Cl

>  <CID>
6575

>  <logBB>
0.3

>  <BBB+/BBB->
BBB+

>  <Inchi>
InChI=1S/C2HCl3/c3-1-2(4)5/h1H

>  <threshold>


>  <reference>
R3|R38|R41|R47|R40|R5|R21|R27|R8|R2|R2|R27|R12|R17|R18|R22|R25|R26|R27|R32|R33|R35|R36|R39|R44|R44|R46|R48|R49|

>  <group>
A

>  <Class>
1

>  <ABC>
3.05

>  <ABCGG>
3.31

>  <nAcid>
0

>  <nBase>
0

>  <nAromAtom>
0

>  <nAromBond>
0

>  <nAtom>
6

>  <nHeavyAtom>
5

>  <nSpiro>
0

>  <nBridgehead>
0

>  <nHetero>
3

>  <nN>
0

>  <nO>
0

>  <nF>
0

>  <BalabanJ>
2.54

>  <BertzCT>
42.85

>  <nBonds>
5

>  <nBondsO>
4

>  <nBondsS>
4

>  <nBondsD>
1

>  <nBondsT>
0

>  <nBondsA>
0

>  <nBondsM>
1

>  <nBondsKS>
4

>  <nBondsKD>
1

>  <RNCG>
0.39

>  <RPCG>
0.51

>  <FCSP3>
0

>  <SZ>
10.67

>  <Sm>
10.94

>  <Sv>
5.54

>  <Sse>
6.74

>  <Sp>
6.32

>  <Si>
6.66

>  <MZ>
1.78

>  <Mm>
1.82

>  <Mv>
0.92

>  <Mse>
1.12

>  <Mp>
1.05

>  <Mi>
1.11

>  <NsCH3>
0

>  <NdCH2>
0

>  <NssCH2>
0

>  <NtCH>
0

>  <NdsCH>
1

>  <NaaCH>
0

>  <NsssCH>
0

>  <NddC>
0

>  <NtsC>
0

>  <NdssC>
1

>  <NaasC>
0

>  <NaaaC>
0

>  <NssssC>
0

>  <NsNH3>
0

>  <NsNH2>
0

>  <NssNH2>
0

>  <NdNH>
0

>  <NssNH>
0

>  <NaaNH>
0

>  <NtN>
0

>  <NsssNH>
0

>  <NdsN>
0

>  <NaaN>
0

>  <NsssN>
0

>  <NddsN>
0

>  <NaasN>
0

>  <NssssN>
0

>  <NsOH>
0

>  <NdO>
0

>  <NssO>
0

>  <NaaO>
0

>  <NsF>
0

>  <NsSiH3>
0

>  <NssSiH2>
0

>  <NsssSiH>
0

>  <NssssSi>
0

>  <NsPH2>
0

>  <NssPH>
0

>  <NsssP>
0

>  <NdsssP>
0

>  <NsssssP>
0

>  <NsSH>
0

>  <NdS>
0

>  <NssS>
0

>  <NaaS>
0

>  <NdssS>
0

>  <NddssS>
0

>  <NsCl>
3

>  <NsBr>
0

>  <NsI>
0

>  <fragCpx>
4.03

>  <fMF>
0

>  <nHBAcc>
0

>  <nHBDon>
0

>  <Kier1>
5

>  <Kier2>
2.25

>  <Lipinski>
1

>  <GhoseFilter>
0

>  <FilterItLogS>
-1.78

>  <VMcGowan>
71.46

>  <LabuteASA>
45.32

>  <PEOE_VSA1>
0

>  <PEOE_VSA2>
0

>  <PEOE_VSA3>
0

>  <PEOE_VSA4>
0

>  <PEOE_VSA5>
0

>  <PEOE_VSA6>
34.8

>  <PEOE_VSA7>
0

>  <PEOE_VSA8>
5.54

>  <PEOE_VSA9>
0

>  <PEOE_VSA10>
4.49

>  <PEOE_VSA11>
0

>  <PEOE_VSA12>
0

>  <PEOE_VSA13>
0

>  <SMR_VSA1>
0

>  <SMR_VSA2>
0

>  <SMR_VSA3>
0

>  <SMR_VSA4>
0

>  <SMR_VSA5>
0

>  <SMR_VSA6>
0

>  <SMR_VSA7>
10.03

>  <SMR_VSA8>
0

>  <SMR_VSA9>
0

>  <SlogP_VSA1>
0

>  <SlogP_VSA2>
0

>  <SlogP_VSA3>
0

>  <SlogP_VSA4>
0

>  <SlogP_VSA5>
0

>  <SlogP_VSA6>
10.03

>  <SlogP_VSA7>
0

>  <SlogP_VSA8>
0

>  <SlogP_VSA9>
0

>  <SlogP_VSA10>
0

>  <SlogP_VSA11>
0

>  <EState_VSA1>
0

>  <EState_VSA2>
4.49

>  <EState_VSA3>
0

>  <EState_VSA4>
5.54

>  <EState_VSA5>
0

>  <EState_VSA6>
0

>  <EState_VSA7>
0

>  <EState_VSA8>
0

>  <EState_VSA9>
34.8

>  <EState_VSA10>
0

>  <VSA_EState1>
0.09

>  <VSA_EState2>
0

>  <VSA_EState3>
0

>  <VSA_EState4>
1.09

>  <VSA_EState5>
0

>  <VSA_EState6>
0

>  <VSA_EState7>
0

>  <VSA_EState8>
0

>  <VSA_EState9>
0

>  <apol>
10.55

>  <bpol>
2.53

>  <nRing>
0

>  <nHRing>
0

>  <naRing>
0

>  <naHRing>
0

>  <nARing 2>
0

>  <nAHRing 2>
0

>  <nFRing>
0

>  <nFHRing>
0

>  <nFaRing>
0

>  <nFaHRing>
0

>  <nFARing 2>
0

>  <nFAHRing 2>
0

>  <nRot>
0

>  <SLogP>
2.5

>  <SMR>
25.64

>  <TopoPSA(NO)>
0

>  <TopoPSA>
0

>  <JGI1>
0.38

>  <JGI2>
0.11

>  <JGI3>
0

>  <JGI4>
0

>  <JGI5>
0

>  <Diameter>
3

>  <Radius>
2

>  <TMWC10>
55.94

>  <TSRW10>
27.25

>  <MW>
129.91

>  <AMW>
21.65

>  <WPath>
18

>  <WPol>
2

>  <Zagreb1>
16

>  <Zagreb2>
14

>  <mZagreb2>
1.33

>  <yes>


>  <nAR-cont>
0.336376

>  <nHA-cont>
0

>  <MWHBN>
0

>  <MWHBN-cont>
0

>  <TPSA-cont>
0

>  <pka_cont>
0.97

>  <yes.1>


>  <BBB_SCORE>
0.821376

>  <MMFF94 Energy>
2.1824

$$$$
Compound 499
Actelion Java MolfileCreator 2.0

  0  0  0  0  0  0              0 V3000
M  V30 BEGIN CTAB
M  V30 COUNTS 8 7 0 0 0
M  V30 BEGIN ATOM
M  V30 1 Br -0.279 -1.3955 -1.7679 0
M  V30 2 C 0.0845 0.2025 -0.7006 0 CFG=2
M  V30 3 Cl 1.7726 0.6976 -0.9903 0
M  V30 4 C -0.2119 -0.0426 0.7697 0
M  V30 5 F -1.5106 -0.3829 0.9593 0
M  V30 6 F -1.0E-4 1.0785 1.5028 0
M  V30 7 F 0.5471 -1.0242 1.3047 0
M  V30 8 H -0.5668 0.9843 -1.1007 0
M  V30 END ATOM
M  V30 BEGIN BOND
M  V30 1 1 1 2
M  V30 2 1 2 3
M  V30 3 1 2 4
M  V30 4 1 4 5
M  V30 5 1 4 6
M  V30 6 1 4 7
M  V30 7 1 2 8
M  V30 END BOND
M  V30 BEGIN COLLECTION
M  V30 MDLV30/STERAC1 ATOMS=(1 2)
M  V30 END COLLECTION
M  V30 END CTAB
M  END
>  <Column 1>
614

>  <level_0>
699

>  <index>
699

>  <Unnamed: 0>
699

>  <NO.>
710

>  <Name>
halothane

>  <IUPAC_name>
2-bromo-2-chloro-1-1-1-trifluoroethane

>  <SMILES>
FC(F)(F)C(Cl)Br

>  <CID>
3562

>  <logBB>
0.3

>  <BBB+/BBB->
BBB+

>  <Inchi>
InChI=1S/C2HBrClF3/c3-1(4)2(5-6)7/h1H

>  <threshold>


>  <reference>
R47|R41|R3|R38|R40|R8|R21|R27|R2|R2|R27|R11|R11|R12|R17|R20|R22|R25|R32|R33|R35|R36|R39|R43|R44|R46|R49|R5|

>  <group>
A

>  <Class>
1

>  <ABC>
4.88

>  <ABCGG>
5.21

>  <nAcid>
0

>  <nBase>
0

>  <nAromAtom>
0

>  <nAromBond>
0

>  <nAtom>
8

>  <nHeavyAtom>
7

>  <nSpiro>
0

>  <nBridgehead>
0

>  <nHetero>
5

>  <nN>
0

>  <nO>
0

>  <nF>
3

>  <BalabanJ>
3.54

>  <BertzCT>
58.45

>  <nBonds>
7

>  <nBondsO>
6

>  <nBondsS>
7

>  <nBondsD>
0

>  <nBondsT>
0

>  <nBondsA>
0

>  <nBondsM>
0

>  <nBondsKS>
7

>  <nBondsKD>
0

>  <RNCG>
0.25

>  <RPCG>
0.62

>  <FCSP3>
1

>  <SZ>
15.33

>  <Sm>
16.43

>  <Sv>
6.59

>  <Sse>
9.75

>  <Sp>
6.53

>  <Si>
10.05

>  <MZ>
1.92

>  <Mm>
2.05

>  <Mv>
0.82

>  <Mse>
1.22

>  <Mp>
0.82

>  <Mi>
1.26

>  <NsCH3>
0

>  <NdCH2>
0

>  <NssCH2>
0

>  <NtCH>
0

>  <NdsCH>
0

>  <NaaCH>
0

>  <NsssCH>
1

>  <NddC>
0

>  <NtsC>
0

>  <NdssC>
0

>  <NaasC>
0

>  <NaaaC>
0

>  <NssssC>
1

>  <NsNH3>
0

>  <NsNH2>
0

>  <NssNH2>
0

>  <NdNH>
0

>  <NssNH>
0

>  <NaaNH>
0

>  <NtN>
0

>  <NsssNH>
0

>  <NdsN>
0

>  <NaaN>
0

>  <NsssN>
0

>  <NddsN>
0

>  <NaasN>
0

>  <NssssN>
0

>  <NsOH>
0

>  <NdO>
0

>  <NssO>
0

>  <NaaO>
0

>  <NsF>
3

>  <NsSiH3>
0

>  <NssSiH2>
0

>  <NsssSiH>
0

>  <NssssSi>
0

>  <NsPH2>
0

>  <NssPH>
0

>  <NsssP>
0

>  <NdsssP>
0

>  <NsssssP>
0

>  <NsSH>
0

>  <NdS>
0

>  <NssS>
0

>  <NaaS>
0

>  <NdssS>
0

>  <NddssS>
0

>  <NsCl>
1

>  <NsBr>
1

>  <NsI>
0

>  <fragCpx>
6.05

>  <fMF>
0

>  <nHBAcc>
0

>  <nHBDon>
0

>  <Kier1>
7

>  <Kier2>
1.85

>  <Lipinski>
1

>  <GhoseFilter>
0

>  <FilterItLogS>
-2.29

>  <VMcGowan>
74.06

>  <LabuteASA>
51.77

>  <PEOE_VSA1>
0

>  <PEOE_VSA2>
0

>  <PEOE_VSA3>
0

>  <PEOE_VSA4>
13.17

>  <PEOE_VSA5>
11.6

>  <PEOE_VSA6>
15.93

>  <PEOE_VSA7>
0

>  <PEOE_VSA8>
0

>  <PEOE_VSA9>
0

>  <PEOE_VSA10>
0

>  <PEOE_VSA11>
4.29

>  <PEOE_VSA12>
0

>  <PEOE_VSA13>
0

>  <SMR_VSA1>
13.17

>  <SMR_VSA2>
0

>  <SMR_VSA3>
0

>  <SMR_VSA4>
0

>  <SMR_VSA5>
10.46

>  <SMR_VSA6>
0

>  <SMR_VSA7>
0

>  <SMR_VSA8>
0

>  <SMR_VSA9>
0

>  <SlogP_VSA1>
0

>  <SlogP_VSA2>
10.46

>  <SlogP_VSA3>
0

>  <SlogP_VSA4>
0

>  <SlogP_VSA5>
0

>  <SlogP_VSA6>
0

>  <SlogP_VSA7>
0

>  <SlogP_VSA8>
0

>  <SlogP_VSA9>
0

>  <SlogP_VSA10>
13.17

>  <SlogP_VSA11>
0

>  <EState_VSA1>
10.46

>  <EState_VSA2>
0

>  <EState_VSA3>
0

>  <EState_VSA4>
0

>  <EState_VSA5>
0

>  <EState_VSA6>
0

>  <EState_VSA7>
0

>  <EState_VSA8>
27.53

>  <EState_VSA9>
0

>  <EState_VSA10>
13.17

>  <VSA_EState1>
31.08

>  <VSA_EState2>
0

>  <VSA_EState3>
0

>  <VSA_EState4>
0

>  <VSA_EState5>
0

>  <VSA_EState6>
0

>  <VSA_EState7>
-4.32

>  <VSA_EState8>
0

>  <VSA_EState9>
0

>  <apol>
10.91

>  <bpol>
6.23

>  <nRing>
0

>  <nHRing>
0

>  <naRing>
0

>  <naHRing>
0

>  <nARing 2>
0

>  <nAHRing 2>
0

>  <nFRing>
0

>  <nFHRing>
0

>  <nFaRing>
0

>  <nFaHRing>
0

>  <nFARing 2>
0

>  <nFAHRing 2>
0

>  <nRot>
0

>  <SLogP>
2.51

>  <SMR>
24.62

>  <TopoPSA(NO)>
0

>  <TopoPSA>
0

>  <JGI1>
0.58

>  <JGI2>
0.15

>  <JGI3>
0

>  <JGI4>
0

>  <JGI5>
0

>  <Diameter>
3

>  <Radius>
2

>  <TMWC10>
71.23

>  <TSRW10>
34.22

>  <MW>
195.89

>  <AMW>
24.49

>  <WPath>
42

>  <WPol>
6

>  <Zagreb1>
30

>  <Zagreb2>
30

>  <mZagreb2>
1.5

>  <yes>


>  <nAR-cont>
0.336376

>  <nHA-cont>
0.357561384

>  <MWHBN>
0

>  <MWHBN-cont>
0

>  <TPSA-cont>
0

>  <pka_cont>
0.97

>  <yes.1>


>  <BBB_SCORE>
1.178937384

>  <MMFF94 Energy>
42.411

$$$$
Compound 500
Actelion Java MolfileCreator 2.0

  0  0  0  0  0  0              0 V3000
M  V30 BEGIN CTAB
M  V30 COUNTS 5 4 0 0 0
M  V30 BEGIN ATOM
M  V30 1 Cl -1.1017 -1.3021 0.3004 0
M  V30 2 C -0.0248 0.0697 -0.0107 0
M  V30 3 Cl 0.6165 0.7154 1.5093 0
M  V30 4 Cl 1.2955 -0.4075 -1.0911 0
M  V30 5 H -0.6033 0.8566 -0.5016 0
M  V30 END ATOM
M  V30 BEGIN BOND
M  V30 1 1 1 2
M  V30 2 1 2 3
M  V30 3 1 2 4
M  V30 4 1 2 5
M  V30 END BOND
M  V30 END CTAB
M  END
>  <Column 1>
615

>  <level_0>
700

>  <index>
700

>  <Unnamed: 0>
700

>  <NO.>
711

>  <Name>
trichloromethane (chloroform)

>  <IUPAC_name>
chloroform

>  <SMILES>
ClC(Cl)Cl

>  <CID>
6212

>  <logBB>
0.3

>  <BBB+/BBB->
BBB+

>  <Inchi>
InChI=1S/CHCl3/c2-1(3)4/h1H

>  <threshold>


>  <reference>
R47|R41|R3|R38|R40|R8|R21|R27|R2|R2|R27|R12|R18|R25|R26|R27|R35|R36|R39|R39|R43|R44|R46|R49|R5|

>  <group>
A

>  <Class>
1

>  <ABC>
2.45

>  <ABCGG>
2.45

>  <nAcid>
0

>  <nBase>
0

>  <nAromAtom>
0

>  <nAromBond>
0

>  <nAtom>
5

>  <nHeavyAtom>
4

>  <nSpiro>
0

>  <nBridgehead>
0

>  <nHetero>
3

>  <nN>
0

>  <nO>
0

>  <nF>
0

>  <BalabanJ>
2.32

>  <BertzCT>
8

>  <nBonds>
4

>  <nBondsO>
3

>  <nBondsS>
4

>  <nBondsD>
0

>  <nBondsT>
0

>  <nBondsA>
0

>  <nBondsM>
0

>  <nBondsKS>
4

>  <nBondsKD>
0

>  <RNCG>
0.33

>  <RPCG>
0.69

>  <FCSP3>
1

>  <SZ>
9.67

>  <Sm>
9.94

>  <Sv>
4.54

>  <Sse>
5.74

>  <Sp>
5.32

>  <Si>
5.66

>  <MZ>
1.93

>  <Mm>
1.99

>  <Mv>
0.91

>  <Mse>
1.15

>  <Mp>
1.06

>  <Mi>
1.13

>  <NsCH3>
0

>  <NdCH2>
0

>  <NssCH2>
0

>  <NtCH>
0

>  <NdsCH>
0

>  <NaaCH>
0

>  <NsssCH>
1

>  <NddC>
0

>  <NtsC>
0

>  <NdssC>
0

>  <NaasC>
0

>  <NaaaC>
0

>  <NssssC>
0

>  <NsNH3>
0

>  <NsNH2>
0

>  <NssNH2>
0

>  <NdNH>
0

>  <NssNH>
0

>  <NaaNH>
0

>  <NtN>
0

>  <NsssNH>
0

>  <NdsN>
0

>  <NaaN>
0

>  <NsssN>
0

>  <NddsN>
0

>  <NaasN>
0

>  <NssssN>
0

>  <NsOH>
0

>  <NdO>
0

>  <NssO>
0

>  <NaaO>
0

>  <NsF>
0

>  <NsSiH3>
0

>  <NssSiH2>
0

>  <NsssSiH>
0

>  <NssssSi>
0

>  <NsPH2>
0

>  <NssPH>
0

>  <NsssP>
0

>  <NdsssP>
0

>  <NsssssP>
0

>  <NsSH>
0

>  <NdS>
0

>  <NssS>
0

>  <NaaS>
0

>  <NdssS>
0

>  <NddssS>
0

>  <NsCl>
3

>  <NsBr>
0

>  <NsI>
0

>  <fragCpx>
3.03

>  <fMF>
0

>  <nHBAcc>
0

>  <nHBDon>
0

>  <Kier1>
4

>  <Kier2>
1.33

>  <Lipinski>
1

>  <GhoseFilter>
0

>  <FilterItLogS>
-1.73

>  <VMcGowan>
61.67

>  <LabuteASA>
39.65

>  <PEOE_VSA1>
0

>  <PEOE_VSA2>
0

>  <PEOE_VSA3>
0

>  <PEOE_VSA4>
0

>  <PEOE_VSA5>
0

>  <PEOE_VSA6>
34.8

>  <PEOE_VSA7>
0

>  <PEOE_VSA8>
0

>  <PEOE_VSA9>
0

>  <PEOE_VSA10>
0

>  <PEOE_VSA11>
4.3

>  <PEOE_VSA12>
0

>  <PEOE_VSA13>
0

>  <SMR_VSA1>
0

>  <SMR_VSA2>
0

>  <SMR_VSA3>
0

>  <SMR_VSA4>
0

>  <SMR_VSA5>
4.3

>  <SMR_VSA6>
0

>  <SMR_VSA7>
0

>  <SMR_VSA8>
0

>  <SMR_VSA9>
0

>  <SlogP_VSA1>
0

>  <SlogP_VSA2>
4.3

>  <SlogP_VSA3>
0

>  <SlogP_VSA4>
0

>  <SlogP_VSA5>
0

>  <SlogP_VSA6>
0

>  <SlogP_VSA7>
0

>  <SlogP_VSA8>
0

>  <SlogP_VSA9>
0

>  <SlogP_VSA10>
0

>  <SlogP_VSA11>
0

>  <EState_VSA1>
4.3

>  <EState_VSA2>
0

>  <EState_VSA3>
0

>  <EState_VSA4>
0

>  <EState_VSA5>
0

>  <EState_VSA6>
0

>  <EState_VSA7>
0

>  <EState_VSA8>
0

>  <EState_VSA9>
34.8

>  <EState_VSA10>
0

>  <VSA_EState1>
-0.75

>  <VSA_EState2>
0

>  <VSA_EState3>
0

>  <VSA_EState4>
0

>  <VSA_EState5>
0

>  <VSA_EState6>
0

>  <VSA_EState7>
0

>  <VSA_EState8>
0

>  <VSA_EState9>
0

>  <apol>
8.88

>  <bpol>
2.53

>  <nRing>
0

>  <nHRing>
0

>  <naRing>
0

>  <naHRing>
0

>  <nARing 2>
0

>  <nAHRing 2>
0

>  <nFRing>
0

>  <nFHRing>
0

>  <nFaRing>
0

>  <nFaHRing>
0

>  <nFARing 2>
0

>  <nFAHRing 2>
0

>  <nRot>
0

>  <SLogP>
1.99

>  <SMR>
21.35

>  <TopoPSA(NO)>
0

>  <TopoPSA>
0

>  <JGI1>
0.5

>  <JGI2>
0

>  <JGI3>
0

>  <JGI4>
0

>  <JGI5>
0

>  <Diameter>
2

>  <Radius>
1

>  <TMWC10>
48.77

>  <TSRW10>
24.18

>  <MW>
117.91

>  <AMW>
23.58

>  <WPath>
9

>  <WPol>
0

>  <Zagreb1>
12

>  <Zagreb2>
9

>  <mZagreb2>
1

>  <yes>


>  <nAR-cont>
0.336376

>  <nHA-cont>
0

>  <MWHBN>
0

>  <MWHBN-cont>
0

>  <TPSA-cont>
0

>  <pka_cont>
0.97

>  <yes.1>


>  <BBB_SCORE>
0.821376

>  <MMFF94 Energy>
0.00208

$$$$
Compound 501
Actelion Java MolfileCreator 2.0

  0  0  0  0  0  0              0 V3000
M  V30 BEGIN CTAB
M  V30 COUNTS 58 60 0 0 0
M  V30 BEGIN ATOM
M  V30 1 S -1.7719 3.7884 -5.0806 0
M  V30 2 C -0.5312 4.7667 -4.3592 0
M  V30 3 C -2.7369 3.2935 -3.6214 0
M  V30 4 N -0.5325 5.1236 -3.1183 0
M  V30 5 N 0.4305 5.1115 -5.2557 0
M  V30 6 C -2.0468 2.1715 -2.8431 0
M  V30 7 C 0.5222 5.8991 -2.7105 0
M  V30 8 C 1.4984 5.8784 -4.9051 0
M  V30 9 C -2.8894 1.777 -1.6205 0
M  V30 10 C 1.5265 6.2998 -3.4961 0
M  V30 11 O 2.3809 6.2038 -5.6886 0
M  V30 12 N -2.3623 0.7149 -0.7566 0
M  V30 13 C -1.0888 1.0726 -0.1024 0
M  V30 14 C -2.2093 -0.581 -1.4398 0
M  V30 15 C -0.6188 -0.0023 0.904 0
M  V30 16 C -1.7756 -1.7111 -0.4754 0
M  V30 17 N -0.5672 -1.3379 0.2787 0
M  V30 18 C 0.1178 -2.3161 0.9928 0
M  V30 19 N 0.5796 -2.0161 2.2197 0
M  V30 20 C 0.3674 -3.5604 0.4517 0
M  V30 21 C 1.2428 -2.9497 2.9264 0
M  V30 22 C 1.0684 -4.4777 1.2178 0
M  V30 23 N 1.5164 -4.1768 2.4592 0
M  V30 24 C 1.786 -2.5551 4.2977 0
M  V30 25 C 1.3755 -5.8396 0.6222 0
M  V30 26 C 3.1464 -1.8673 4.1011 0
M  V30 27 C 0.8214 -1.5852 5.0078 0
M  V30 28 C 1.9685 -3.7899 5.2019 0
M  V30 29 F 2.3844 -5.7934 -0.2953 0
M  V30 30 F 1.7425 -6.782 1.5358 0
M  V30 31 F 0.3062 -6.3721 -0.0426 0
M  V30 32 H -3.7075 2.938 -3.9849 0
M  V30 33 H -2.9378 4.1616 -2.9848 0
M  V30 34 H 0.3599 4.7964 -6.2098 0
M  V30 35 H -1.0527 2.4959 -2.5192 0
M  V30 36 H -1.9133 1.3052 -3.5013 0
M  V30 37 H 0.5091 6.193 -1.6635 0
M  V30 38 H -3.0584 2.668 -1.0015 0
M  V30 39 H -3.8882 1.4737 -1.961 0
M  V30 40 H 2.3497 6.9117 -3.1568 0
M  V30 41 H -0.2973 1.2132 -0.8491 0
M  V30 42 H -1.2023 2.0196 0.4387 0
M  V30 43 H -3.1613 -0.8725 -1.8992 0
M  V30 44 H -1.4643 -0.5102 -2.2421 0
M  V30 45 H -1.3022 -0.0225 1.7632 0
M  V30 46 H 0.3731 0.2998 1.2634 0
M  V30 47 H -1.6198 -2.6091 -1.0816 0
M  V30 48 H -2.5895 -1.9255 0.2292 0
M  V30 49 H 0.0595 -3.8173 -0.5533 0
M  V30 50 H 3.0549 -0.9685 3.4796 0
M  V30 51 H 3.5796 -1.5647 5.0612 0
M  V30 52 H 3.8631 -2.534 3.6072 0
M  V30 53 H 0.7042 -0.6469 4.453 0
M  V30 54 H -0.1749 -2.0286 5.1207 0
M  V30 55 H 1.1871 -1.3257 6.0081 0
M  V30 56 H 2.6994 -4.4936 4.7868 0
M  V30 57 H 1.0236 -4.331 5.3306 0
M  V30 58 H 2.326 -3.5014 6.1972 0
M  V30 END ATOM
M  V30 BEGIN BOND
M  V30 1 1 1 2
M  V30 2 1 1 3
M  V30 3 2 2 4
M  V30 4 1 2 5
M  V30 5 1 3 6
M  V30 6 1 4 7
M  V30 7 1 5 8
M  V30 8 1 6 9
M  V30 9 2 7 10
M  V30 10 2 8 11
M  V30 11 1 9 12
M  V30 12 1 12 13
M  V30 13 1 12 14
M  V30 14 1 13 15
M  V30 15 1 14 16
M  V30 16 1 15 17
M  V30 17 1 17 18
M  V30 18 2 18 19
M  V30 19 1 18 20
M  V30 20 1 19 21
M  V30 21 2 20 22
M  V30 22 2 21 23
M  V30 23 1 21 24
M  V30 24 1 22 25
M  V30 25 1 24 26
M  V30 26 1 24 27
M  V30 27 1 24 28
M  V30 28 1 25 29
M  V30 29 1 25 30
M  V30 30 1 25 31
M  V30 31 1 8 10
M  V30 32 1 16 17
M  V30 33 1 22 23
M  V30 34 1 3 32
M  V30 35 1 3 33
M  V30 36 1 5 34
M  V30 37 1 6 35
M  V30 38 1 6 36
M  V30 39 1 7 37
M  V30 40 1 9 38
M  V30 41 1 9 39
M  V30 42 1 10 40
M  V30 43 1 13 41
M  V30 44 1 13 42
M  V30 45 1 14 43
M  V30 46 1 14 44
M  V30 47 1 15 45
M  V30 48 1 15 46
M  V30 49 1 16 47
M  V30 50 1 16 48
M  V30 51 1 20 49
M  V30 52 1 26 50
M  V30 53 1 26 51
M  V30 54 1 26 52
M  V30 55 1 27 53
M  V30 56 1 27 54
M  V30 57 1 27 55
M  V30 58 1 28 56
M  V30 59 1 28 57
M  V30 60 1 28 58
M  V30 END BOND
M  V30 END CTAB
M  END
>  <Column 1>
616

>  <level_0>
701

>  <index>
701

>  <Unnamed: 0>
701

>  <NO.>
712

>  <Name>
364079-69-6

>  <IUPAC_name>
2-[3-[4-[2-tert-butyl-6-(trifluoromethyl)pyrimidin-4-yl]piperazin-1-yl]propylsulfanyl]-1h-pyrimidin-6-one

>  <SMILES>
CC(C)(C)c1nc(N2CCN(CCCSc3nccc(=O)[nH]3)CC2)cc(C(F)(F)F)n1

>  <CID>
9916104

>  <logBB>
0.3

>  <BBB+/BBB->
BBB+

>  <Inchi>
InChI=1S/C20H27F3N6OS/c1-19(2-3)17-25-14(20(21-22)23)13-15(26-17)29-10-8-28(9-11-29)7-4-12-31-18-24-6-5-16(30)27-18/h5-6-13H-4-7-12H2-1-3H3-(H-24-27-30)

>  <threshold>


>  <reference>
R25|R47|R4|R2|R2|R8|R27|R40|

>  <group>
A

>  <Class>
1

>  <ABC>
24.23

>  <ABCGG>
17.93

>  <nAcid>
0

>  <nBase>
1

>  <nAromAtom>
12

>  <nAromBond>
12

>  <nAtom>
58

>  <nHeavyAtom>
31

>  <nSpiro>
0

>  <nBridgehead>
0

>  <nHetero>
11

>  <nN>
6

>  <nO>
1

>  <nF>
3

>  <BalabanJ>
1.4

>  <BertzCT>
903.24

>  <nBonds>
60

>  <nBondsO>
33

>  <nBondsS>
47

>  <nBondsD>
1

>  <nBondsT>
0

>  <nBondsA>
12

>  <nBondsM>
13

>  <nBondsKS>
54

>  <nBondsKD>
6

>  <RNCG>
0.13

>  <RPCG>
0.16

>  <FCSP3>
0.6

>  <SZ>
40

>  <Sm>
38.01

>  <Sv>
35.7

>  <Sse>
59.24

>  <Sp>
37.95

>  <Si>
67.12

>  <MZ>
0.69

>  <Mm>
0.66

>  <Mv>
0.62

>  <Mse>
1.02

>  <Mp>
0.65

>  <Mi>
1.16

>  <NsCH3>
3

>  <NdCH2>
0

>  <NssCH2>
7

>  <NtCH>
0

>  <NdsCH>
0

>  <NaaCH>
3

>  <NsssCH>
0

>  <NddC>
0

>  <NtsC>
0

>  <NdssC>
0

>  <NaasC>
4

>  <NaaaC>
0

>  <NssssC>
2

>  <NsNH3>
0

>  <NsNH2>
0

>  <NssNH2>
0

>  <NdNH>
0

>  <NssNH>
0

>  <NaaNH>
1

>  <NtN>
0

>  <NsssNH>
0

>  <NdsN>
0

>  <NaaN>
3

>  <NsssN>
2

>  <NddsN>
0

>  <NaasN>
0

>  <NssssN>
0

>  <NsOH>
0

>  <NdO>
1

>  <NssO>
0

>  <NaaO>
0

>  <NsF>
3

>  <NsSiH3>
0

>  <NssSiH2>
0

>  <NsssSiH>
0

>  <NssssSi>
0

>  <NsPH2>
0

>  <NssPH>
0

>  <NsssP>
0

>  <NdsssP>
0

>  <NsssssP>
0

>  <NsSH>
0

>  <NdS>
0

>  <NssS>
1

>  <NaaS>
0

>  <NdssS>
0

>  <NddssS>
0

>  <NsCl>
0

>  <NsBr>
0

>  <NsI>
0

>  <fragCpx>
159.11

>  <fMF>
0.38

>  <nHBAcc>
7

>  <nHBDon>
1

>  <Kier1>
25.62

>  <Kier2>
10.95

>  <Lipinski>
1

>  <GhoseFilter>
1

>  <FilterItLogS>
-5.95

>  <VMcGowan>
321.66

>  <LabuteASA>
183.04

>  <PEOE_VSA1>
9.88

>  <PEOE_VSA2>
9.69

>  <PEOE_VSA3>
14.95

>  <PEOE_VSA4>
13.17

>  <PEOE_VSA5>
0

>  <PEOE_VSA6>
32.53

>  <PEOE_VSA7>
12.97

>  <PEOE_VSA8>
55.68

>  <PEOE_VSA9>
0

>  <PEOE_VSA10>
17.34

>  <PEOE_VSA11>
5.16

>  <PEOE_VSA12>
0

>  <PEOE_VSA13>
5.56

>  <SMR_VSA1>
13.17

>  <SMR_VSA2>
0

>  <SMR_VSA3>
24.84

>  <SMR_VSA4>
0

>  <SMR_VSA5>
43.94

>  <SMR_VSA6>
43.38

>  <SMR_VSA7>
40.2

>  <SMR_VSA8>
0

>  <SMR_VSA9>
0

>  <SlogP_VSA1>
10.46

>  <SlogP_VSA2>
63.31

>  <SlogP_VSA3>
11.59

>  <SlogP_VSA4>
0

>  <SlogP_VSA5>
38.71

>  <SlogP_VSA6>
28.28

>  <SlogP_VSA7>
0

>  <SlogP_VSA8>
0

>  <SlogP_VSA9>
0

>  <SlogP_VSA10>
18.99

>  <SlogP_VSA11>
0

>  <EState_VSA1>
17.29

>  <EState_VSA2>
11.38

>  <EState_VSA3>
24.06

>  <EState_VSA4>
37.87

>  <EState_VSA5>
24.03

>  <EState_VSA6>
0

>  <EState_VSA7>
25.67

>  <EState_VSA8>
24.84

>  <EState_VSA9>
0

>  <EState_VSA10>
17.97

>  <VSA_EState1>
40.02

>  <VSA_EState2>
30.46

>  <VSA_EState3>
0.61

>  <VSA_EState4>
-1.64

>  <VSA_EState5>
1.36

>  <VSA_EState6>
2.43

>  <VSA_EState7>
-2.1

>  <VSA_EState8>
9.02

>  <VSA_EState9>
0

>  <apol>
63.38

>  <bpol>
41.16

>  <nRing>
3

>  <nHRing>
3

>  <naRing>
2

>  <naHRing>
2

>  <nARing 2>
1

>  <nAHRing 2>
1

>  <nFRing>
0

>  <nFHRing>
0

>  <nFaRing>
0

>  <nFaHRing>
0

>  <nFARing 2>
0

>  <nFAHRing 2>
0

>  <nRot>
6

>  <SLogP>
3.18

>  <SMR>
114.59

>  <TopoPSA(NO)>
78.01

>  <TopoPSA>
103.31

>  <JGI1>
0.29

>  <JGI2>
0.08

>  <JGI3>
0.04

>  <JGI4>
0.04

>  <JGI5>
0.04

>  <Diameter>
16

>  <Radius>
8

>  <TMWC10>
140.72

>  <TSRW10>
66.84

>  <MW>
456.19

>  <AMW>
7.87

>  <WPath>
3214

>  <WPol>
46

>  <Zagreb1>
162

>  <Zagreb2>
184

>  <mZagreb2>
6.53

>  <yes>


>  <nAR-cont>
0.816016

>  <nHA-cont>
0.702745138

>  <MWHBN>
0.3745563

>  <MWHBN-cont>
0.576117501

>  <TPSA-cont>
0.278832048

>  <pka_cont>
0.97

>  <yes.1>


>  <BBB_SCORE>
3.425601485

>  <MMFF94 Energy>
-0.23332

$$$$
Compound 502
Actelion Java MolfileCreator 2.0

  0  0  0  0  0  0              0 V3000
M  V30 BEGIN CTAB
M  V30 COUNTS 48 51 0 0 0
M  V30 BEGIN ATOM
M  V30 1 S 4.6039 0.5645 -0.2419 0
M  V30 2 C 3.0612 0.1294 0.6398 0
M  V30 3 C 4.1592 2.2281 -0.7962 0
M  V30 4 C 2.2693 -0.9875 -0.0689 0
M  V30 5 C 1.546 -0.5136 -1.3394 0
M  V30 6 C 1.2544 -1.6272 0.8868 0
M  V30 7 N 0.4516 0.4456 -1.0743 0
M  V30 8 C 0.0807 -0.6867 1.1862 0
M  V30 9 C -0.5777 -0.1875 -0.1783 0
M  V30 10 C -0.1548 0.912 -2.344 0
M  V30 11 C -0.9542 -1.3098 2.1102 0
M  V30 12 C -1.8286 0.7432 0.0953 0
M  V30 13 C 0.8084 1.6316 -3.3012 0
M  V30 14 C -2.2658 -0.8367 1.9919 0
M  V30 15 C -0.7281 -2.2491 3.126 0
M  V30 16 C -2.7573 0.1191 1.0831 0
M  V30 17 C 0.0638 2.2186 -4.4935 0
M  V30 18 C -3.3 -1.2761 2.795 0
M  V30 19 C -1.7787 -2.7018 3.9407 0
M  V30 20 C -4.1014 0.2625 1.3403 0
M  V30 21 N -4.42 -0.5896 2.3785 0
M  V30 22 C -3.092 -2.2282 3.7923 0
M  V30 23 H 3.3767 -0.2202 1.6292 0
M  V30 24 H 2.4543 1.0258 0.8011 0
M  V30 25 H 4.99 2.6496 -1.3681 0
M  V30 26 H 3.9661 2.8766 0.0623 0
M  V30 27 H 3.2783 2.196 -1.4392 0
M  V30 28 H 2.9744 -1.7806 -0.3541 0
M  V30 29 H 2.298 -0.0689 -1.9962 0
M  V30 30 H 1.1506 -1.3891 -1.873 0
M  V30 31 H 1.7682 -1.9211 1.8098 0
M  V30 32 H 0.8751 -2.5554 0.4377 0
M  V30 33 H 0.4627 0.1963 1.7176 0
M  V30 34 H -0.9673 -1.0815 -0.6922 0
M  V30 35 H -0.9359 1.6441 -2.1167 0
M  V30 36 H -0.6331 0.0745 -2.8682 0
M  V30 37 H -2.3911 0.914 -0.8285 0
M  V30 38 H -1.4915 1.7141 0.4781 0
M  V30 39 H 1.3238 2.4413 -2.7728 0
M  V30 40 H 1.5685 0.9449 -3.6865 0
M  V30 41 H 0.2687 -2.6418 3.3067 0
M  V30 42 H 0.765 2.7212 -5.1672 0
M  V30 43 H -0.4493 1.4346 -5.0594 0
M  V30 44 H -0.6803 2.9534 -4.1699 0
M  V30 45 H -1.5676 -3.4365 4.7158 0
M  V30 46 H -4.8608 0.8846 0.8863 0
M  V30 47 H -5.3404 -0.695 2.7816 0
M  V30 48 H -3.8945 -2.5809 4.4301 0
M  V30 END ATOM
M  V30 BEGIN BOND
M  V30 1 1 1 2
M  V30 2 1 1 3
M  V30 3 1 2 4
M  V30 4 1 4 5
M  V30 5 1 4 6
M  V30 6 1 5 7
M  V30 7 1 6 8
M  V30 8 1 7 9
M  V30 9 1 7 10
M  V30 10 1 8 11
M  V30 11 1 9 12
M  V30 12 1 10 13
M  V30 13 2 11 14
M  V30 14 1 11 15
M  V30 15 1 12 16
M  V30 16 1 13 17
M  V30 17 1 14 18
M  V30 18 2 15 19
M  V30 19 2 16 20
M  V30 20 1 18 21
M  V30 21 2 18 22
M  V30 22 1 8 9
M  V30 23 1 14 16
M  V30 24 1 19 22
M  V30 25 1 20 21
M  V30 26 1 2 23
M  V30 27 1 2 24
M  V30 28 1 3 25
M  V30 29 1 3 26
M  V30 30 1 3 27
M  V30 31 1 4 28
M  V30 32 1 5 29
M  V30 33 1 5 30
M  V30 34 1 6 31
M  V30 35 1 6 32
M  V30 36 1 8 33
M  V30 37 1 9 34
M  V30 38 1 10 35
M  V30 39 1 10 36
M  V30 40 1 12 37
M  V30 41 1 12 38
M  V30 42 1 13 39
M  V30 43 1 13 40
M  V30 44 1 15 41
M  V30 45 1 17 42
M  V30 46 1 17 43
M  V30 47 1 17 44
M  V30 48 1 19 45
M  V30 49 1 20 46
M  V30 50 1 21 47
M  V30 51 1 22 48
M  V30 END BOND
M  V30 END CTAB
M  END
>  <Column 1>
619

>  <level_0>
704

>  <index>
704

>  <Unnamed: 0>
704

>  <NO.>
715

>  <Name>
66104-22-1

>  <IUPAC_name>
9-(methylsulfanylmethyl)-7-propyl-6-6a-8-9-10-10a-hexahydro-4h-indolo[4-3-fg]quinoline

>  <SMILES>
CCCN1CC(CSC)CC2c3cccc4[nH]cc(c34)CC21

>  <CID>
4745

>  <logBB>
0.3

>  <BBB+/BBB->
BBB+

>  <Inchi>
InChI=1S/C19H26N2S/c1-3-7-21-11-13(12-22-2)8-16-15-5-4-6-17-19(15)14(10-20-17)9-18(16)21/h4-6-10-13-16-18-20H-3-7-9-11-12H2-1-2H3

>  <threshold>


>  <reference>
R12|R25|R27|R35|R43|R46|R47|R2|R2|R27|R40|

>  <group>
A

>  <Class>
1

>  <ABC>
17.44

>  <ABCGG>
13.89

>  <nAcid>
0

>  <nBase>
1

>  <nAromAtom>
9

>  <nAromBond>
10

>  <nAtom>
48

>  <nHeavyAtom>
22

>  <nSpiro>
0

>  <nBridgehead>
0

>  <nHetero>
3

>  <nN>
2

>  <nO>
0

>  <nF>
0

>  <BalabanJ>
1.58

>  <BertzCT>
662.5

>  <nBonds>
51

>  <nBondsO>
25

>  <nBondsS>
41

>  <nBondsD>
0

>  <nBondsT>
0

>  <nBondsA>
10

>  <nBondsM>
10

>  <nBondsKS>
47

>  <nBondsKD>
4

>  <RNCG>
0.29

>  <RPCG>
0.13

>  <FCSP3>
0.58

>  <SZ>
28.33

>  <Sm>
26.18

>  <Sv>
28.75

>  <Sse>
46.95

>  <Sp>
32.44

>  <Si>
53.9

>  <MZ>
0.59

>  <Mm>
0.55

>  <Mv>
0.6

>  <Mse>
0.98

>  <Mp>
0.68

>  <Mi>
1.12

>  <NsCH3>
2

>  <NdCH2>
0

>  <NssCH2>
6

>  <NtCH>
0

>  <NdsCH>
0

>  <NaaCH>
4

>  <NsssCH>
3

>  <NddC>
0

>  <NtsC>
0

>  <NdssC>
0

>  <NaasC>
2

>  <NaaaC>
2

>  <NssssC>
0

>  <NsNH3>
0

>  <NsNH2>
0

>  <NssNH2>
0

>  <NdNH>
0

>  <NssNH>
0

>  <NaaNH>
1

>  <NtN>
0

>  <NsssNH>
0

>  <NdsN>
0

>  <NaaN>
0

>  <NsssN>
1

>  <NddsN>
0

>  <NaasN>
0

>  <NssssN>
0

>  <NsOH>
0

>  <NdO>
0

>  <NssO>
0

>  <NaaO>
0

>  <NsF>
0

>  <NsSiH3>
0

>  <NssSiH2>
0

>  <NsssSiH>
0

>  <NssssSi>
0

>  <NsPH2>
0

>  <NssPH>
0

>  <NsssP>
0

>  <NdsssP>
0

>  <NsssssP>
0

>  <NsSH>
0

>  <NdS>
0

>  <NssS>
1

>  <NaaS>
0

>  <NdssS>
0

>  <NddssS>
0

>  <NsCl>
0

>  <NsBr>
0

>  <NsI>
0

>  <fragCpx>
163.03

>  <fMF>
0.33

>  <nHBAcc>
2

>  <nHBDon>
1

>  <Kier1>
15.52

>  <Kier2>
6.48

>  <Lipinski>
1

>  <GhoseFilter>
1

>  <FilterItLogS>
-5.06

>  <VMcGowan>
254.24

>  <LabuteASA>
137.21

>  <PEOE_VSA1>
4.98

>  <PEOE_VSA2>
4.9

>  <PEOE_VSA3>
0

>  <PEOE_VSA4>
11.76

>  <PEOE_VSA5>
0

>  <PEOE_VSA6>
19.06

>  <PEOE_VSA7>
60.93

>  <PEOE_VSA8>
35.6

>  <PEOE_VSA9>
0

>  <PEOE_VSA10>
0

>  <PEOE_VSA11>
0

>  <PEOE_VSA12>
0

>  <PEOE_VSA13>
0

>  <SMR_VSA1>
0

>  <SMR_VSA2>
0

>  <SMR_VSA3>
9.88

>  <SMR_VSA4>
5.92

>  <SMR_VSA5>
38.15

>  <SMR_VSA6>
25.1

>  <SMR_VSA7>
35.52

>  <SMR_VSA8>
0

>  <SMR_VSA9>
0

>  <SlogP_VSA1>
0

>  <SlogP_VSA2>
41.02

>  <SlogP_VSA3>
6.42

>  <SlogP_VSA4>
5.92

>  <SlogP_VSA5>
36.81

>  <SlogP_VSA6>
24.4

>  <SlogP_VSA7>
0

>  <SlogP_VSA8>
10.9

>  <SlogP_VSA9>
0

>  <SlogP_VSA10>
0

>  <SlogP_VSA11>
0

>  <EState_VSA1>
0

>  <EState_VSA2>
0

>  <EState_VSA3>
6.04

>  <EState_VSA4>
11.84

>  <EState_VSA5>
54.57

>  <EState_VSA6>
5.56

>  <EState_VSA7>
11.76

>  <EState_VSA8>
47.46

>  <EState_VSA9>
0

>  <EState_VSA10>
0

>  <VSA_EState1>
0

>  <VSA_EState2>
6.29

>  <VSA_EState3>
1.53

>  <VSA_EState4>
4.48

>  <VSA_EState5>
2.88

>  <VSA_EState6>
7.58

>  <VSA_EState7>
8.37

>  <VSA_EState8>
4.87

>  <VSA_EState9>
0

>  <apol>
54.17

>  <bpol>
30.82

>  <nRing>
4

>  <nHRing>
2

>  <naRing>
2

>  <naHRing>
1

>  <nARing 2>
2

>  <nAHRing 2>
1

>  <nFRing>
1

>  <nFHRing>
1

>  <nFaRing>
0

>  <nFaHRing>
0

>  <nFARing 2>
1

>  <nFAHRing 2>
1

>  <nRot>
4

>  <SLogP>
4.27

>  <SMR>
96.88

>  <TopoPSA(NO)>
19.03

>  <TopoPSA>
44.33

>  <JGI1>
0.14

>  <JGI2>
0.06

>  <JGI3>
0.04

>  <JGI4>
0.04

>  <JGI5>
0.02

>  <Diameter>
9

>  <Radius>
5

>  <TMWC10>
123.48

>  <TSRW10>
70.82

>  <MW>
314.18

>  <AMW>
6.55

>  <WPath>
945

>  <WPol>
39

>  <Zagreb1>
122

>  <Zagreb2>
150

>  <mZagreb2>
4.92

>  <yes>


>  <nAR-cont>
1

>  <nHA-cont>
0.983774276

>  <MWHBN>
0.16925129

>  <MWHBN-cont>
0.972780764

>  <TPSA-cont>
0.690549073

>  <pka_cont>
0.97

>  <yes.1>


>  <BBB_SCORE>
5.309043567

>  <MMFF94 Energy>
64.419

$$$$
Compound 503
Actelion Java MolfileCreator 2.0

  0  0  0  0  0  0              0 V3000
M  V30 BEGIN CTAB
M  V30 COUNTS 55 57 0 0 0
M  V30 BEGIN ATOM
M  V30 1 S -1.6876 -0.723 0.723 0
M  V30 2 C -1.8402 0.8429 1.5589 0
M  V30 3 C 0.0141 -1.1959 1.2846 0
M  V30 4 C -1.0329 1.9476 1.2318 0
M  V30 5 C -2.8115 0.9684 2.5596 0
M  V30 6 C 0.4972 -2.4121 0.5008 0
M  V30 7 C 1.0895 -0.0799 1.3234 0
M  V30 8 N -0.0522 1.8773 0.204 0
M  V30 9 C -1.1912 3.1496 1.9354 0
M  V30 10 C -2.9654 2.172 3.249 0
M  V30 11 C 0.6491 -2.3895 -0.8946 0
M  V30 12 C 0.8381 -3.5875 1.1857 0
M  V30 13 O 1.0972 0.6539 2.5702 0
M  V30 14 C 0.953 0.9107 0.1575 0
M  V30 15 C -0.207 2.7848 -0.9426 0
M  V30 16 C -2.153 3.2601 2.9406 0
M  V30 17 C 1.1156 -3.5136 -1.5872 0
M  V30 18 C 1.3026 -4.7074 0.4909 0
M  V30 19 C 1.5935 -0.001 3.65 0
M  V30 20 O 1.7197 0.8287 -0.8091 0
M  V30 21 C -1.0247 2.1376 -2.0806 0
M  V30 22 C 1.4434 -4.6789 -0.8968 0
M  V30 23 O 1.9962 -1.1543 3.6509 0
M  V30 24 C 1.5558 0.8895 4.8533 0
M  V30 25 N -1.2626 3.037 -3.2293 0
M  V30 26 O 1.9079 -5.8401 -1.4498 0
M  V30 27 C -2.2612 2.4422 -4.1235 0
M  V30 28 C -0.0276 3.2914 -3.9769 0
M  V30 29 C 2.0827 -5.8528 -2.8607 0
M  V30 30 H -0.1678 -1.5267 2.3141 0
M  V30 31 H -3.4559 0.1285 2.8114 0
M  V30 32 H 2.0928 -0.5183 1.2188 0
M  V30 33 H -0.5601 4.0067 1.7129 0
M  V30 34 H -3.7216 2.2597 4.0257 0
M  V30 35 H 0.4063 -1.4959 -1.467 0
M  V30 36 H 0.7555 -3.6424 2.2699 0
M  V30 37 H 0.7959 3.0467 -1.2968 0
M  V30 38 H -0.6842 3.7191 -0.6258 0
M  V30 39 H -2.2708 4.1975 3.4791 0
M  V30 40 H 1.2121 -3.4402 -2.6652 0
M  V30 41 H 1.5625 -5.6096 1.0394 0
M  V30 42 H -0.5457 1.206 -2.4099 0
M  V30 43 H -1.9954 1.8494 -1.6556 0
M  V30 44 H 2.1445 1.7911 4.6662 0
M  V30 45 H 0.5204 1.1481 5.0893 0
M  V30 46 H 1.9897 0.3628 5.708 0
M  V30 47 H -3.2106 2.2936 -3.5967 0
M  V30 48 H -1.9337 1.4767 -4.526 0
M  V30 49 H -2.4743 3.1131 -4.9634 0
M  V30 50 H 0.4384 2.3661 -4.3342 0
M  V30 51 H 0.6999 3.8354 -3.367 0
M  V30 52 H -0.2299 3.9298 -4.8448 0
M  V30 53 H 1.1294 -5.7019 -3.3781 0
M  V30 54 H 2.4606 -6.8406 -3.1416 0
M  V30 55 H 2.8252 -5.1113 -3.1736 0
M  V30 END ATOM
M  V30 BEGIN BOND
M  V30 1 1 1 2
M  V30 2 1 1 3
M  V30 3 2 2 4
M  V30 4 1 2 5
M  V30 5 1 3 6
M  V30 6 1 3 7
M  V30 7 1 4 8
M  V30 8 1 4 9
M  V30 9 2 5 10
M  V30 10 2 6 11
M  V30 11 1 6 12
M  V30 12 1 7 13
M  V30 13 1 7 14
M  V30 14 1 8 15
M  V30 15 2 9 16
M  V30 16 1 11 17
M  V30 17 2 12 18
M  V30 18 1 13 19
M  V30 19 2 14 20
M  V30 20 1 15 21
M  V30 21 2 17 22
M  V30 22 2 19 23
M  V30 23 1 19 24
M  V30 24 1 21 25
M  V30 25 1 22 26
M  V30 26 1 25 27
M  V30 27 1 25 28
M  V30 28 1 26 29
M  V30 29 1 8 14
M  V30 30 1 10 16
M  V30 31 1 18 22
M  V30 32 1 3 30
M  V30 33 1 5 31
M  V30 34 1 7 32
M  V30 35 1 9 33
M  V30 36 1 10 34
M  V30 37 1 11 35
M  V30 38 1 12 36
M  V30 39 1 15 37
M  V30 40 1 15 38
M  V30 41 1 16 39
M  V30 42 1 17 40
M  V30 43 1 18 41
M  V30 44 1 21 42
M  V30 45 1 21 43
M  V30 46 1 24 44
M  V30 47 1 24 45
M  V30 48 1 24 46
M  V30 49 1 27 47
M  V30 50 1 27 48
M  V30 51 1 27 49
M  V30 52 1 28 50
M  V30 53 1 28 51
M  V30 54 1 28 52
M  V30 55 1 29 53
M  V30 56 1 29 54
M  V30 57 1 29 55
M  V30 END BOND
M  V30 END CTAB
M  END
>  <Column 1>
620

>  <level_0>
707

>  <index>
707

>  <Unnamed: 0>
707

>  <NO.>
718

>  <Name>
34933-06-7

>  <IUPAC_name>
[5-[2-(dimethylamino)ethyl]-2-(4-methoxyphenyl)-4-oxo-2-3-dihydro-1-5-benzothiazepin-3-yl] acetate

>  <SMILES>
COc1ccc(C2Sc3ccccc3N(CCN(C)C)C(=O)C2OC(C)=O)cc1

>  <CID>
3076

>  <logBB>
0.3

>  <BBB+/BBB->
BBB+

>  <Inchi>
InChI=1S/C22H26N2O4S/c1-15(25)28-20-21(16-9-11-17(27-4)12-10-16)29-19-8-6-5-7-18(19)24(22(20)26)14-13-23(2)3/h5-12-20-21H-13-14H2-1-4H3

>  <threshold>


>  <reference>
R25|

>  <group>
A

>  <Class>
1

>  <ABC>
22.22

>  <ABCGG>
18.05

>  <nAcid>
0

>  <nBase>
1

>  <nAromAtom>
12

>  <nAromBond>
12

>  <nAtom>
55

>  <nHeavyAtom>
29

>  <nSpiro>
0

>  <nBridgehead>
0

>  <nHetero>
7

>  <nN>
2

>  <nO>
4

>  <nF>
0

>  <BalabanJ>
1.84

>  <BertzCT>
869.37

>  <nBonds>
57

>  <nBondsO>
31

>  <nBondsS>
43

>  <nBondsD>
2

>  <nBondsT>
0

>  <nBondsA>
12

>  <nBondsM>
14

>  <nBondsKS>
49

>  <nBondsKD>
8

>  <RNCG>
0.19

>  <RPCG>
0.12

>  <FCSP3>
0.36

>  <SZ>
36.67

>  <Sm>
34.51

>  <Sv>
34.61

>  <Sse>
55.27

>  <Sp>
37.36

>  <Si>
61.74

>  <MZ>
0.67

>  <Mm>
0.63

>  <Mv>
0.63

>  <Mse>
1

>  <Mp>
0.68

>  <Mi>
1.12

>  <NsCH3>
4

>  <NdCH2>
0

>  <NssCH2>
2

>  <NtCH>
0

>  <NdsCH>
0

>  <NaaCH>
8

>  <NsssCH>
2

>  <NddC>
0

>  <NtsC>
0

>  <NdssC>
2

>  <NaasC>
4

>  <NaaaC>
0

>  <NssssC>
0

>  <NsNH3>
0

>  <NsNH2>
0

>  <NssNH2>
0

>  <NdNH>
0

>  <NssNH>
0

>  <NaaNH>
0

>  <NtN>
0

>  <NsssNH>
0

>  <NdsN>
0

>  <NaaN>
0

>  <NsssN>
2

>  <NddsN>
0

>  <NaasN>
0

>  <NssssN>
0

>  <NsOH>
0

>  <NdO>
2

>  <NssO>
2

>  <NaaO>
0

>  <NsF>
0

>  <NsSiH3>
0

>  <NssSiH2>
0

>  <NsssSiH>
0

>  <NssssSi>
0

>  <NsPH2>
0

>  <NssPH>
0

>  <NsssP>
0

>  <NdsssP>
0

>  <NsssssP>
0

>  <NsSH>
0

>  <NdS>
0

>  <NssS>
1

>  <NaaS>
0

>  <NdssS>
0

>  <NddssS>
0

>  <NsCl>
0

>  <NsBr>
0

>  <NsI>
0

>  <fragCpx>
149.07

>  <fMF>
0.31

>  <nHBAcc>
6

>  <nHBDon>
0

>  <Kier1>
23.66

>  <Kier2>
11.04

>  <Lipinski>
1

>  <GhoseFilter>
1

>  <FilterItLogS>
-4.44

>  <VMcGowan>
313.65

>  <LabuteASA>
175.33

>  <PEOE_VSA1>
19.27

>  <PEOE_VSA2>
9.59

>  <PEOE_VSA3>
0

>  <PEOE_VSA4>
0

>  <PEOE_VSA5>
11.76

>  <PEOE_VSA6>
24.27

>  <PEOE_VSA7>
43.92

>  <PEOE_VSA8>
24.91

>  <PEOE_VSA9>
18.05

>  <PEOE_VSA10>
5.75

>  <PEOE_VSA11>
6.1

>  <PEOE_VSA12>
0

>  <PEOE_VSA13>
5.91

>  <SMR_VSA1>
19.06

>  <SMR_VSA2>
0

>  <SMR_VSA3>
4.9

>  <SMR_VSA4>
0

>  <SMR_VSA5>
23.17

>  <SMR_VSA6>
39.19

>  <SMR_VSA7>
54.09

>  <SMR_VSA8>
0

>  <SMR_VSA9>
5.75

>  <SlogP_VSA1>
9.64

>  <SlogP_VSA2>
57.18

>  <SlogP_VSA3>
14.33

>  <SlogP_VSA4>
0

>  <SlogP_VSA5>
17.74

>  <SlogP_VSA6>
53.43

>  <SlogP_VSA7>
0

>  <SlogP_VSA8>
0

>  <SlogP_VSA9>
0

>  <SlogP_VSA10>
5.69

>  <SlogP_VSA11>
5.75

>  <EState_VSA1>
12.07

>  <EState_VSA2>
11.16

>  <EState_VSA3>
13.09

>  <EState_VSA4>
21.9

>  <EState_VSA5>
6.92

>  <EState_VSA6>
23.77

>  <EState_VSA7>
67.53

>  <EState_VSA8>
0

>  <EState_VSA9>
9.47

>  <EState_VSA10>
9.59

>  <VSA_EState1>
10.83

>  <VSA_EState2>
30.16

>  <VSA_EState3>
-0.36

>  <VSA_EState4>
1.75

>  <VSA_EState5>
0.05

>  <VSA_EState6>
15.36

>  <VSA_EState7>
-0.92

>  <VSA_EState8>
2.55

>  <VSA_EState9>
5.54

>  <apol>
62.38

>  <bpol>
37.17

>  <nRing>
3

>  <nHRing>
1

>  <naRing>
2

>  <naHRing>
0

>  <nARing 2>
1

>  <nAHRing 2>
1

>  <nFRing>
1

>  <nFHRing>
1

>  <nFaRing>
0

>  <nFaHRing>
0

>  <nFARing 2>
1

>  <nFAHRing 2>
1

>  <nRot>
6

>  <SLogP>
3.37

>  <SMR>
114.5

>  <TopoPSA(NO)>
59.08

>  <TopoPSA>
84.38

>  <JGI1>
0.19

>  <JGI2>
0.08

>  <JGI3>
0.04

>  <JGI4>
0.04

>  <JGI5>
0.03

>  <Diameter>
13

>  <Radius>
7

>  <TMWC10>
136.73

>  <TSRW10>
72.51

>  <MW>
414.16

>  <AMW>
7.53

>  <WPath>
2077

>  <WPol>
50

>  <Zagreb1>
148

>  <Zagreb2>
173

>  <mZagreb2>
6.5

>  <yes>


>  <nAR-cont>
0.816016

>  <nHA-cont>
0.785905698

>  <MWHBN>
0.294826946

>  <MWHBN-cont>
0.855914059

>  <TPSA-cont>
0.410975203

>  <pka_cont>
0.97

>  <yes.1>


>  <BBB_SCORE>
4.192743193

>  <MMFF94 Energy>
92.997

$$$$
Compound 504
Actelion Java MolfileCreator 2.0

  0  0  0  0  0  0              0 V3000
M  V30 BEGIN CTAB
M  V30 COUNTS 44 46 0 0 0
M  V30 BEGIN ATOM
M  V30 1 O -3.6548 -2.3824 -4.1322 0
M  V30 2 C -2.5564 -1.8926 -4.9117 0
M  V30 3 C -3.5172 -1.9576 -2.7703 0
M  V30 4 C -1.2155 -2.3944 -4.3542 0
M  V30 5 C -2.1956 -2.4548 -2.1604 0
M  V30 6 N -1.0289 -1.9858 -2.9432 0
M  V30 7 C 0.2416 -2.5447 -2.4188 0
M  V30 8 C 0.6303 -2.0155 -1.0183 0
M  V30 9 N 0.5252 -0.5648 -1.0029 0
M  V30 10 C 0.764 0.1199 0.1757 0
M  V30 11 N 1.0812 -0.5598 1.2975 0
M  V30 12 C 0.7437 1.5144 0.2022 0
M  V30 13 N 1.3528 0.0925 2.4856 0
M  V30 14 C 1.0199 2.1716 1.4121 0
M  V30 15 C 0.4223 2.3227 -1.0218 0
M  V30 16 C 1.3288 1.4387 2.5505 0
M  V30 17 C 1.6306 2.0417 3.863 0
M  V30 18 C 1.3133 1.363 5.0555 0
M  V30 19 C 2.2476 3.3012 3.985 0
M  V30 20 C 1.5856 1.9195 6.3091 0
M  V30 21 C 2.5219 3.8604 5.2382 0
M  V30 22 C 2.1882 3.17 6.3994 0
M  V30 23 H -2.6906 -2.255 -5.9358 0
M  V30 24 H -2.5913 -0.7966 -4.9391 0
M  V30 25 H -4.3616 -2.3701 -2.2087 0
M  V30 26 H -3.589 -0.8641 -2.7232 0
M  V30 27 H -0.4055 -1.9875 -4.9702 0
M  V30 28 H -1.1859 -3.4892 -4.4327 0
M  V30 29 H -2.2087 -3.5522 -2.1323 0
M  V30 30 H -2.1387 -2.0884 -1.1302 0
M  V30 31 H 1.049 -2.2555 -3.1047 0
M  V30 32 H 0.2156 -3.6416 -2.3996 0
M  V30 33 H -0.0291 -2.458 -0.2623 0
M  V30 34 H 1.658 -2.3256 -0.795 0
M  V30 35 H -0.16 -0.1872 -1.6482 0
M  V30 36 H 0.978 3.2553 1.4548 0
M  V30 37 H 1.0919 2.0548 -1.8456 0
M  V30 38 H -0.6158 2.1538 -1.3255 0
M  V30 39 H 0.5457 3.3957 -0.8392 0
M  V30 40 H 0.8417 0.3816 5.0128 0
M  V30 41 H 2.5445 3.8611 3.1011 0
M  V30 42 H 1.3277 1.371 7.2115 0
M  V30 43 H 3.0033 4.8328 5.3047 0
M  V30 44 H 2.4034 3.6022 7.3731 0
M  V30 END ATOM
M  V30 BEGIN BOND
M  V30 1 1 1 2
M  V30 2 1 1 3
M  V30 3 1 2 4
M  V30 4 1 3 5
M  V30 5 1 4 6
M  V30 6 1 6 7
M  V30 7 1 7 8
M  V30 8 1 8 9
M  V30 9 1 9 10
M  V30 10 2 10 11
M  V30 11 1 10 12
M  V30 12 1 11 13
M  V30 13 2 12 14
M  V30 14 1 12 15
M  V30 15 2 13 16
M  V30 16 1 16 17
M  V30 17 2 17 18
M  V30 18 1 17 19
M  V30 19 1 18 20
M  V30 20 2 19 21
M  V30 21 2 20 22
M  V30 22 1 5 6
M  V30 23 1 14 16
M  V30 24 1 21 22
M  V30 25 1 2 23
M  V30 26 1 2 24
M  V30 27 1 3 25
M  V30 28 1 3 26
M  V30 29 1 4 27
M  V30 30 1 4 28
M  V30 31 1 5 29
M  V30 32 1 5 30
M  V30 33 1 7 31
M  V30 34 1 7 32
M  V30 35 1 8 33
M  V30 36 1 8 34
M  V30 37 1 9 35
M  V30 38 1 14 36
M  V30 39 1 15 37
M  V30 40 1 15 38
M  V30 41 1 15 39
M  V30 42 1 18 40
M  V30 43 1 19 41
M  V30 44 1 20 42
M  V30 45 1 21 43
M  V30 46 1 22 44
M  V30 END BOND
M  V30 END CTAB
M  END
>  <Column 1>
621

>  <level_0>
709

>  <index>
709

>  <Unnamed: 0>
709

>  <NO.>
720

>  <Name>
minaprine

>  <IUPAC_name>
4-methyl-n-(2-morpholin-4-ylethyl)-6-phenylpyridazin-3-amine

>  <SMILES>
Cc1cc(-c2ccccc2)nnc1NCCN1CCOCC1

>  <CID>
4199

>  <logBB>
0.3

>  <BBB+/BBB->
BBB+

>  <Inchi>
InChI=1S/C17H22N4O/c1-14-13-16(15-5-3-2-4-6-15)19-20-17(14)18-7-8-21-9-11-22-12-10-21/h2-6-13H-7-12H2-1H3-(H-18-20)

>  <threshold>


>  <reference>
R18|R26|R27|

>  <group>
A

>  <Class>
1

>  <ABC>
17

>  <ABCGG>
12.74

>  <nAcid>
0

>  <nBase>
1

>  <nAromAtom>
12

>  <nAromBond>
12

>  <nAtom>
44

>  <nHeavyAtom>
22

>  <nSpiro>
0

>  <nBridgehead>
0

>  <nHetero>
5

>  <nN>
4

>  <nO>
1

>  <nF>
0

>  <BalabanJ>
1.35

>  <BertzCT>
596.86

>  <nBonds>
46

>  <nBondsO>
24

>  <nBondsS>
34

>  <nBondsD>
0

>  <nBondsT>
0

>  <nBondsA>
12

>  <nBondsM>
12

>  <nBondsKS>
40

>  <nBondsKD>
6

>  <RNCG>
0.23

>  <RPCG>
0.1

>  <FCSP3>
0.41

>  <SZ>
26.67

>  <Sm>
24.84

>  <Sv>
26.71

>  <Sse>
43.75

>  <Sp>
28.9

>  <Si>
49.94

>  <MZ>
0.61

>  <Mm>
0.56

>  <Mv>
0.61

>  <Mse>
0.99

>  <Mp>
0.66

>  <Mi>
1.14

>  <NsCH3>
1

>  <NdCH2>
0

>  <NssCH2>
6

>  <NtCH>
0

>  <NdsCH>
0

>  <NaaCH>
6

>  <NsssCH>
0

>  <NddC>
0

>  <NtsC>
0

>  <NdssC>
0

>  <NaasC>
4

>  <NaaaC>
0

>  <NssssC>
0

>  <NsNH3>
0

>  <NsNH2>
0

>  <NssNH2>
0

>  <NdNH>
0

>  <NssNH>
1

>  <NaaNH>
0

>  <NtN>
0

>  <NsssNH>
0

>  <NdsN>
0

>  <NaaN>
2

>  <NsssN>
1

>  <NddsN>
0

>  <NaasN>
0

>  <NssssN>
0

>  <NsOH>
0

>  <NdO>
0

>  <NssO>
1

>  <NaaO>
0

>  <NsF>
0

>  <NsSiH3>
0

>  <NssSiH2>
0

>  <NsssSiH>
0

>  <NssssSi>
0

>  <NsPH2>
0

>  <NssPH>
0

>  <NsssP>
0

>  <NdsssP>
0

>  <NsssssP>
0

>  <NsSH>
0

>  <NdS>
0

>  <NssS>
0

>  <NaaS>
0

>  <NdssS>
0

>  <NddssS>
0

>  <NsCl>
0

>  <NsBr>
0

>  <NsI>
0

>  <fragCpx>
114.05

>  <fMF>
0.48

>  <nHBAcc>
5

>  <nHBDon>
1

>  <Kier1>
16.84

>  <Kier2>
8.74

>  <Lipinski>
1

>  <GhoseFilter>
1

>  <FilterItLogS>
-4.69

>  <VMcGowan>
237.8

>  <LabuteASA>
130.87

>  <PEOE_VSA1>
10.05

>  <PEOE_VSA2>
4.9

>  <PEOE_VSA3>
0

>  <PEOE_VSA4>
0

>  <PEOE_VSA5>
10.2

>  <PEOE_VSA6>
30.33

>  <PEOE_VSA7>
18.55

>  <PEOE_VSA8>
31.74

>  <PEOE_VSA9>
18.91

>  <PEOE_VSA10>
0

>  <PEOE_VSA11>
5.82

>  <PEOE_VSA12>
0

>  <PEOE_VSA13>
0

>  <SMR_VSA1>
4.74

>  <SMR_VSA2>
0

>  <SMR_VSA3>
15.1

>  <SMR_VSA4>
0

>  <SMR_VSA5>
6.92

>  <SMR_VSA6>
44.71

>  <SMR_VSA7>
41.96

>  <SMR_VSA8>
0

>  <SMR_VSA9>
11.26

>  <SlogP_VSA1>
5.32

>  <SlogP_VSA2>
54.49

>  <SlogP_VSA3>
4.74

>  <SlogP_VSA4>
6.92

>  <SlogP_VSA5>
5.56

>  <SlogP_VSA6>
36.4

>  <SlogP_VSA7>
0

>  <SlogP_VSA8>
11.26

>  <SlogP_VSA9>
0

>  <SlogP_VSA10>
5.82

>  <SlogP_VSA11>
0

>  <EState_VSA1>
0

>  <EState_VSA2>
0

>  <EState_VSA3>
0

>  <EState_VSA4>
62.03

>  <EState_VSA5>
0

>  <EState_VSA6>
0

>  <EState_VSA7>
18.2

>  <EState_VSA8>
45.54

>  <EState_VSA9>
4.74

>  <EState_VSA10>
0

>  <VSA_EState1>
5.35

>  <VSA_EState2>
2.4

>  <VSA_EState3>
12.04

>  <VSA_EState4>
3.13

>  <VSA_EState5>
0.87

>  <VSA_EState6>
12.22

>  <VSA_EState7>
0

>  <VSA_EState8>
7.65

>  <VSA_EState9>
0

>  <apol>
48.26

>  <bpol>
27.23

>  <nRing>
3

>  <nHRing>
2

>  <naRing>
2

>  <naHRing>
1

>  <nARing 2>
1

>  <nAHRing 2>
1

>  <nFRing>
0

>  <nFHRing>
0

>  <nFaRing>
0

>  <nFaHRing>
0

>  <nFARing 2>
0

>  <nFAHRing 2>
0

>  <nRot>
5

>  <SLogP>
2.2

>  <SMR>
87.95

>  <TopoPSA(NO)>
50.28

>  <TopoPSA>
50.28

>  <JGI1>
0.13

>  <JGI2>
0.06

>  <JGI3>
0.03

>  <JGI4>
0.03

>  <JGI5>
0.02

>  <Diameter>
14

>  <Radius>
7

>  <TMWC10>
118.3

>  <TSRW10>
55.62

>  <MW>
298.18

>  <AMW>
6.78

>  <WPath>
1243

>  <WPol>
30

>  <Zagreb1>
110

>  <Zagreb2>
125

>  <mZagreb2>
4.97

>  <yes>


>  <nAR-cont>
0.816016

>  <nHA-cont>
0.983774276

>  <MWHBN>
0.347465744

>  <MWHBN-cont>
0.679696093

>  <TPSA-cont>
0.649014378

>  <pka_cont>
0.97

>  <yes.1>


>  <BBB_SCORE>
4.602363172

>  <MMFF94 Energy>
118.95

$$$$
Compound 505
Actelion Java MolfileCreator 2.0

  0  0  0  0  0  0              0 V3000
M  V30 BEGIN CTAB
M  V30 COUNTS 46 50 0 0 0
M  V30 BEGIN ATOM
M  V30 1 N 0.2404 0.6413 -1.2028 0
M  V30 2 C 1.0576 0.0939 -0.2855 0
M  V30 3 C 0.1652 0.0413 -2.3957 0
M  V30 4 N 1.1999 0.7163 0.971 0
M  V30 5 C 1.7539 -1.081 -0.5512 0
M  V30 6 N 0.8218 -1.0594 -2.7667 0
M  V30 7 C 0.3523 1.6064 1.6557 0
M  V30 8 C 1.6141 -1.6162 -1.8303 0
M  V30 9 C 2.6841 -1.7458 0.4283 0
M  V30 10 C -1.0006 1.77 1.3355 0
M  V30 11 C 0.8657 2.3343 2.7411 0
M  V30 12 C 2.3466 -2.8391 -2.2168 0
M  V30 13 C 2.7554 -3.264 0.2314 0
M  V30 14 C -1.8106 2.6571 2.0614 0
M  V30 15 C 0.0625 3.2176 3.4685 0
M  V30 16 C 2.9434 -3.6396 -1.2177 0
M  V30 17 C 2.4803 -3.243 -3.5557 0
M  V30 18 N -3.1707 2.8131 1.7075 0
M  V30 19 C -1.2779 3.3847 3.1295 0
M  V30 20 C 3.6332 -4.8112 -1.5606 0
M  V30 21 C 3.1812 -4.4032 -3.8938 0
M  V30 22 C -4.2228 3.0662 2.5564 0
M  V30 23 C -3.7109 2.7439 0.4439 0
M  V30 24 C 3.7563 -5.1859 -2.8967 0
M  V30 25 N -5.368 3.1689 1.9179 0
M  V30 26 C -5.0629 2.9678 0.5949 0
M  V30 27 C -6.1216 3.0151 -0.4364 0
M  V30 28 H -0.4889 0.4953 -3.1317 0
M  V30 29 H 2.1535 0.7099 1.306 0
M  V30 30 H 2.3716 -1.5579 1.4617 0
M  V30 31 H 3.6817 -1.3066 0.2994 0
M  V30 32 H -1.43 1.1814 0.5295 0
M  V30 33 H 1.9083 2.2268 3.0298 0
M  V30 34 H 3.5748 -3.6617 0.8418 0
M  V30 35 H 1.8258 -3.7299 0.5832 0
M  V30 36 H 0.4877 3.7796 4.2966 0
M  V30 37 H 2.0336 -2.6481 -4.3507 0
M  V30 38 H -1.877 4.094 3.695 0
M  V30 39 H 4.0723 -5.4392 -0.7889 0
M  V30 40 H 3.2712 -4.6956 -4.9367 0
M  V30 41 H -4.101 3.1511 3.6276 0
M  V30 42 H -3.1068 2.5666 -0.4345 0
M  V30 43 H 4.2939 -6.0929 -3.1606 0
M  V30 44 H -6.5747 4.0107 -0.4695 0
M  V30 45 H -6.9054 2.2857 -0.2103 0
M  V30 46 H -5.7204 2.7885 -1.4291 0
M  V30 END ATOM
M  V30 BEGIN BOND
M  V30 1 2 1 2
M  V30 2 1 1 3
M  V30 3 1 2 4
M  V30 4 1 2 5
M  V30 5 2 3 6
M  V30 6 1 4 7
M  V30 7 2 5 8
M  V30 8 1 5 9
M  V30 9 2 7 10
M  V30 10 1 7 11
M  V30 11 1 8 12
M  V30 12 1 9 13
M  V30 13 1 10 14
M  V30 14 2 11 15
M  V30 15 2 12 16
M  V30 16 1 12 17
M  V30 17 1 14 18
M  V30 18 2 14 19
M  V30 19 1 16 20
M  V30 20 2 17 21
M  V30 21 1 18 22
M  V30 22 1 18 23
M  V30 23 2 20 24
M  V30 24 2 22 25
M  V30 25 2 23 26
M  V30 26 1 26 27
M  V30 27 1 6 8
M  V30 28 1 13 16
M  V30 29 1 15 19
M  V30 30 1 21 24
M  V30 31 1 25 26
M  V30 32 1 3 28
M  V30 33 1 4 29
M  V30 34 1 9 30
M  V30 35 1 9 31
M  V30 36 1 10 32
M  V30 37 1 11 33
M  V30 38 1 13 34
M  V30 39 1 13 35
M  V30 40 1 15 36
M  V30 41 1 17 37
M  V30 42 1 19 38
M  V30 43 1 20 39
M  V30 44 1 21 40
M  V30 45 1 22 41
M  V30 46 1 23 42
M  V30 47 1 24 43
M  V30 48 1 27 44
M  V30 49 1 27 45
M  V30 50 1 27 46
M  V30 END BOND
M  V30 END CTAB
M  END
>  <Column 1>
623

>  <level_0>
711

>  <index>
711

>  <Unnamed: 0>
711

>  <NO.>
722

>  <Name>
fr260010

>  <IUPAC_name>
n-[3-(4-methylimidazol-1-yl)phenyl]-5-6-dihydrobenzo[h]quinazolin-4-amine

>  <SMILES>
Cc1cn(-c2cccc(Nc3ncnc4c3CCc3ccccc3-4)c2)cn1

>  <CID>
9968450

>  <logBB>
0.3

>  <BBB+/BBB->
BBB+

>  <Inchi>
InChI=1S/C22H19N5/c1-15-12-27(14-25-15)18-7-4-6-17(11-18)26-22-20-10-9-16-5-2-3-8-19(16)21(20)23-13-24-22/h2-8-11-14H-9-10H2-1H3-(H-23-24-26)

>  <threshold>


>  <reference>
R18|R26|R27|

>  <group>
A

>  <Class>
1

>  <ABC>
21.83

>  <ABCGG>
15.85

>  <nAcid>
0

>  <nBase>
0

>  <nAromAtom>
23

>  <nAromBond>
23

>  <nAtom>
46

>  <nHeavyAtom>
27

>  <nSpiro>
0

>  <nBridgehead>
0

>  <nHetero>
5

>  <nN>
5

>  <nO>
0

>  <nF>
0

>  <BalabanJ>
1.2

>  <BertzCT>
1129.02

>  <nBonds>
50

>  <nBondsO>
31

>  <nBondsS>
27

>  <nBondsD>
0

>  <nBondsT>
0

>  <nBondsA>
23

>  <nBondsM>
23

>  <nBondsKS>
39

>  <nBondsKD>
11

>  <RNCG>
0.19

>  <RPCG>
0.09

>  <FCSP3>
0.14

>  <SZ>
31

>  <Sm>
29.43

>  <Sv>
30.94

>  <Sse>
45.75

>  <Sp>
32.88

>  <Si>
51.4

>  <MZ>
0.67

>  <Mm>
0.64

>  <Mv>
0.67

>  <Mse>
0.99

>  <Mp>
0.71

>  <Mi>
1.12

>  <NsCH3>
1

>  <NdCH2>
0

>  <NssCH2>
2

>  <NtCH>
0

>  <NdsCH>
0

>  <NaaCH>
11

>  <NsssCH>
0

>  <NddC>
0

>  <NtsC>
0

>  <NdssC>
0

>  <NaasC>
8

>  <NaaaC>
0

>  <NssssC>
0

>  <NsNH3>
0

>  <NsNH2>
0

>  <NssNH2>
0

>  <NdNH>
0

>  <NssNH>
1

>  <NaaNH>
0

>  <NtN>
0

>  <NsssNH>
0

>  <NdsN>
0

>  <NaaN>
3

>  <NsssN>
0

>  <NddsN>
0

>  <NaasN>
1

>  <NssssN>
0

>  <NsOH>
0

>  <NdO>
0

>  <NssO>
0

>  <NaaO>
0

>  <NsF>
0

>  <NsSiH3>
0

>  <NssSiH2>
0

>  <NsssSiH>
0

>  <NssssSi>
0

>  <NsPH2>
0

>  <NssPH>
0

>  <NsssP>
0

>  <NdsssP>
0

>  <NsssssP>
0

>  <NsSH>
0

>  <NdS>
0

>  <NssS>
0

>  <NaaS>
0

>  <NdssS>
0

>  <NddssS>
0

>  <NsCl>
0

>  <NsBr>
0

>  <NsI>
0

>  <fragCpx>
259.05

>  <fMF>
0.57

>  <nHBAcc>
5

>  <nHBDon>
1

>  <Kier1>
18.99

>  <Kier2>
8.39

>  <Lipinski>
1

>  <GhoseFilter>
1

>  <FilterItLogS>
-6.5

>  <VMcGowan>
269.14

>  <LabuteASA>
157.32

>  <PEOE_VSA1>
9.88

>  <PEOE_VSA2>
0

>  <PEOE_VSA3>
14.95

>  <PEOE_VSA4>
0

>  <PEOE_VSA5>
0

>  <PEOE_VSA6>
30.33

>  <PEOE_VSA7>
43.53

>  <PEOE_VSA8>
28.7

>  <PEOE_VSA9>
17.72

>  <PEOE_VSA10>
12.15

>  <PEOE_VSA11>
0

>  <PEOE_VSA12>
0

>  <PEOE_VSA13>
0

>  <SMR_VSA1>
0

>  <SMR_VSA2>
0

>  <SMR_VSA3>
19.52

>  <SMR_VSA4>
0

>  <SMR_VSA5>
19.77

>  <SMR_VSA6>
5.32

>  <SMR_VSA7>
84.2

>  <SMR_VSA8>
0

>  <SMR_VSA9>
16.94

>  <SlogP_VSA1>
5.32

>  <SlogP_VSA2>
19.52

>  <SlogP_VSA3>
12.84

>  <SlogP_VSA4>
6.92

>  <SlogP_VSA5>
16.82

>  <SlogP_VSA6>
67.38

>  <SlogP_VSA7>
0

>  <SlogP_VSA8>
16.94

>  <SlogP_VSA9>
0

>  <SlogP_VSA10>
11.51

>  <SlogP_VSA11>
0

>  <EState_VSA1>
0

>  <EState_VSA2>
0

>  <EState_VSA3>
0

>  <EState_VSA4>
41.42

>  <EState_VSA5>
16.69

>  <EState_VSA6>
6.33

>  <EState_VSA7>
30.08

>  <EState_VSA8>
62.73

>  <EState_VSA9>
0

>  <EState_VSA10>
0

>  <VSA_EState1>
2.02

>  <VSA_EState2>
13.4

>  <VSA_EState3>
3.49

>  <VSA_EState4>
7.85

>  <VSA_EState5>
0.88

>  <VSA_EState6>
16.75

>  <VSA_EState7>
7.45

>  <VSA_EState8>
1.99

>  <VSA_EState9>
0

>  <apol>
54.91

>  <bpol>
24.76

>  <nRing>
5

>  <nHRing>
2

>  <naRing>
4

>  <naHRing>
2

>  <nARing 2>
1

>  <nAHRing 2>
0

>  <nFRing>
1

>  <nFHRing>
1

>  <nFaRing>
0

>  <nFaHRing>
0

>  <nFARing 2>
1

>  <nFAHRing 2>
1

>  <nRot>
3

>  <SLogP>
4.48

>  <SMR>
106.46

>  <TopoPSA(NO)>
55.63

>  <TopoPSA>
55.63

>  <JGI1>
0.15

>  <JGI2>
0.07

>  <JGI3>
0.04

>  <JGI4>
0.04

>  <JGI5>
0.02

>  <Diameter>
14

>  <Radius>
7

>  <TMWC10>
135.12

>  <TSRW10>
76.17

>  <MW>
353.16

>  <AMW>
7.68

>  <WPath>
1903

>  <WPol>
44

>  <Zagreb1>
150

>  <Zagreb2>
180

>  <mZagreb2>
5.81

>  <yes>


>  <nAR-cont>
0.816016

>  <nHA-cont>
0.860070871

>  <MWHBN>
0.319275428

>  <MWHBN-cont>
0.77959035

>  <TPSA-cont>
0.611668056

>  <pka_cont>
0.97

>  <yes.1>


>  <BBB_SCORE>
4.553808508

>  <MMFF94 Energy>
20.585

$$$$
Compound 506
Actelion Java MolfileCreator 2.0

  0  0  0  0  0  0              0 V3000
M  V30 BEGIN CTAB
M  V30 COUNTS 15 14 0 0 0
M  V30 BEGIN ATOM
M  V30 1 F 2.2489 -0.9157 -0.3329 0
M  V30 2 C 1.4464 0.0306 -0.8876 0
M  V30 3 F 2.1714 1.1702 -0.9169 0
M  V30 4 F 1.212 -0.346 -2.1599 0
M  V30 5 C 0.1895 0.1797 -0.0639 0
M  V30 6 O -0.5233 -1.0802 0.0148 0
M  V30 7 C -0.6316 1.2605 -0.7309 0
M  V30 8 C -0.9782 -1.3599 1.3291 0
M  V30 9 F -0.9576 0.9583 -2.0052 0
M  V30 10 F -1.792 1.4775 -0.0676 0
M  V30 11 F 0.0236 2.4438 -0.7461 0
M  V30 12 F -1.564 -0.2424 1.8188 0
M  V30 13 H 0.4841 0.5089 0.9404 0
M  V30 14 H -1.713 -2.1678 1.2986 0
M  V30 15 H -0.1393 -1.6393 1.9731 0
M  V30 END ATOM
M  V30 BEGIN BOND
M  V30 1 1 1 2
M  V30 2 1 2 3
M  V30 3 1 2 4
M  V30 4 1 2 5
M  V30 5 1 5 6
M  V30 6 1 5 7
M  V30 7 1 6 8
M  V30 8 1 7 9
M  V30 9 1 7 10
M  V30 10 1 7 11
M  V30 11 1 8 12
M  V30 12 1 5 13
M  V30 13 1 8 14
M  V30 14 1 8 15
M  V30 END BOND
M  V30 END CTAB
M  END
>  <Column 1>
625

>  <level_0>
713

>  <index>
713

>  <Unnamed: 0>
713

>  <NO.>
724

>  <Name>
sevoflurane

>  <IUPAC_name>
1-1-1-3-3-3-hexafluoro-2-(fluoromethoxy)propane

>  <SMILES>
FCOC(C(F)(F)F)C(F)(F)F

>  <CID>
5206

>  <logBB>
0.3

>  <BBB+/BBB->
BBB+

>  <Inchi>
InChI=1S/C4H3F7O/c5-1-12-2(3(6-7)8)4(9-10)11/h2H-1H2

>  <threshold>


>  <reference>
R3|R21|R25|R27|R38|R41|R43|R47|R2|R2|R8|R27|R40|

>  <group>
A

>  <Class>
1

>  <ABC>
8.61

>  <ABCGG>
9.11

>  <nAcid>
0

>  <nBase>
0

>  <nAromAtom>
0

>  <nAromBond>
0

>  <nAtom>
15

>  <nHeavyAtom>
12

>  <nSpiro>
0

>  <nBridgehead>
0

>  <nHetero>
8

>  <nN>
0

>  <nO>
1

>  <nF>
7

>  <BalabanJ>
4.45

>  <BertzCT>
121.32

>  <nBonds>
14

>  <nBondsO>
11

>  <nBondsS>
14

>  <nBondsD>
0

>  <nBondsT>
0

>  <nBondsA>
0

>  <nBondsM>
0

>  <nBondsKS>
14

>  <nBondsKD>
0

>  <RNCG>
0.21

>  <RPCG>
0.27

>  <FCSP3>
1

>  <SZ>
16.33

>  <Sm>
16.66

>  <Sv>
10.05

>  <Sse>
18.36

>  <Sp>
8.01

>  <Si>
19.66

>  <MZ>
1.09

>  <Mm>
1.11

>  <Mv>
0.67

>  <Mse>
1.22

>  <Mp>
0.53

>  <Mi>
1.31

>  <NsCH3>
0

>  <NdCH2>
0

>  <NssCH2>
1

>  <NtCH>
0

>  <NdsCH>
0

>  <NaaCH>
0

>  <NsssCH>
1

>  <NddC>
0

>  <NtsC>
0

>  <NdssC>
0

>  <NaasC>
0

>  <NaaaC>
0

>  <NssssC>
2

>  <NsNH3>
0

>  <NsNH2>
0

>  <NssNH2>
0

>  <NdNH>
0

>  <NssNH>
0

>  <NaaNH>
0

>  <NtN>
0

>  <NsssNH>
0

>  <NdsN>
0

>  <NaaN>
0

>  <NsssN>
0

>  <NddsN>
0

>  <NaasN>
0

>  <NssssN>
0

>  <NsOH>
0

>  <NdO>
0

>  <NssO>
1

>  <NaaO>
0

>  <NsF>
7

>  <NsSiH3>
0

>  <NssSiH2>
0

>  <NsssSiH>
0

>  <NssssSi>
0

>  <NsPH2>
0

>  <NssPH>
0

>  <NsssP>
0

>  <NdsssP>
0

>  <NsssssP>
0

>  <NsSH>
0

>  <NdS>
0

>  <NssS>
0

>  <NaaS>
0

>  <NdssS>
0

>  <NddssS>
0

>  <NsCl>
0

>  <NsBr>
0

>  <NsI>
0

>  <fragCpx>
11.08

>  <fMF>
0

>  <nHBAcc>
1

>  <nHBDon>
0

>  <Kier1>
12

>  <Kier2>
3.81

>  <Lipinski>
1

>  <GhoseFilter>
0

>  <FilterItLogS>
-2.13

>  <VMcGowan>
85.41

>  <LabuteASA>
62.11

>  <PEOE_VSA1>
4.74

>  <PEOE_VSA2>
0

>  <PEOE_VSA3>
4.39

>  <PEOE_VSA4>
26.34

>  <PEOE_VSA5>
0

>  <PEOE_VSA6>
0

>  <PEOE_VSA7>
0

>  <PEOE_VSA8>
0

>  <PEOE_VSA9>
0

>  <PEOE_VSA10>
0

>  <PEOE_VSA11>
6.86

>  <PEOE_VSA12>
0

>  <PEOE_VSA13>
6.1

>  <SMR_VSA1>
35.47

>  <SMR_VSA2>
0

>  <SMR_VSA3>
0

>  <SMR_VSA4>
0

>  <SMR_VSA5>
18.46

>  <SMR_VSA6>
6.86

>  <SMR_VSA7>
0

>  <SMR_VSA8>
0

>  <SMR_VSA9>
0

>  <SlogP_VSA1>
0

>  <SlogP_VSA2>
25.32

>  <SlogP_VSA3>
4.74

>  <SlogP_VSA4>
0

>  <SlogP_VSA5>
0

>  <SlogP_VSA6>
0

>  <SlogP_VSA7>
0

>  <SlogP_VSA8>
0

>  <SlogP_VSA9>
0

>  <SlogP_VSA10>
30.73

>  <SlogP_VSA11>
0

>  <EState_VSA1>
25.32

>  <EState_VSA2>
0

>  <EState_VSA3>
0

>  <EState_VSA4>
0

>  <EState_VSA5>
0

>  <EState_VSA6>
0

>  <EState_VSA7>
0

>  <EState_VSA8>
4.74

>  <EState_VSA9>
0

>  <EState_VSA10>
30.73

>  <VSA_EState1>
82.28

>  <VSA_EState2>
0

>  <VSA_EState3>
0

>  <VSA_EState4>
0

>  <VSA_EState5>
0

>  <VSA_EState6>
0

>  <VSA_EState7>
-15.32

>  <VSA_EState8>
-2.14

>  <VSA_EState9>
0

>  <apol>
13.38

>  <bpol>
12.54

>  <nRing>
0

>  <nHRing>
0

>  <naRing>
0

>  <naHRing>
0

>  <nARing 2>
0

>  <nAHRing 2>
0

>  <nFRing>
0

>  <nFHRing>
0

>  <nFaRing>
0

>  <nFaHRing>
0

>  <nFARing 2>
0

>  <nFAHRing 2>
0

>  <nRot>
2

>  <SLogP>
2.42

>  <SMR>
22.96

>  <TopoPSA(NO)>
9.23

>  <TopoPSA>
9.23

>  <JGI1>
0.5

>  <JGI2>
0.12

>  <JGI3>
0.13

>  <JGI4>
0.03

>  <JGI5>
0

>  <Diameter>
5

>  <Radius>
3

>  <TMWC10>
89.73

>  <TSRW10>
42.73

>  <MW>
200.01

>  <AMW>
13.33

>  <WPath>
188

>  <WPol>
15

>  <Zagreb1>
56

>  <Zagreb2>
60

>  <mZagreb2>
2.58

>  <yes>


>  <nAR-cont>
0.336376

>  <nHA-cont>
0.785745021

>  <MWHBN>
0.07070891

>  <MWHBN-cont>
0.538828471

>  <TPSA-cont>
0.935568869

>  <pka_cont>
0.97

>  <yes.1>


>  <BBB_SCORE>
4.286501464

>  <MMFF94 Energy>
10.888

$$$$
Compound 507
Actelion Java MolfileCreator 2.0

  0  0  0  0  0  0              0 V3000
M  V30 BEGIN CTAB
M  V30 COUNTS 43 46 0 0 0
M  V30 BEGIN ATOM
M  V30 1 O 2.0958 -1.6925 3.3872 0
M  V30 2 C 1.779 -1.2858 2.2697 0
M  V30 3 N 0.4977 -0.8876 2.0209 0
M  V30 4 C 2.7817 -1.1574 1.1589 0
M  V30 5 C -0.0078 -0.3909 0.8069 0
M  V30 6 C 2.4102 -2.0461 0.0016 0
M  V30 7 C 0.4224 -0.839 -0.4596 0
M  V30 8 C -1.0121 0.584 0.9059 0
M  V30 9 N 1.3317 -1.8851 -0.7019 0
M  V30 10 C 3.3101 -3.185 -0.3431 0
M  V30 11 C -0.1659 -0.2727 -1.5991 0
M  V30 12 C -1.5762 1.1399 -0.2438 0
M  V30 13 C 4.7023 -3.0687 -0.2697 0
M  V30 14 C 2.7343 -4.3848 -0.7807 0
M  V30 15 C -1.1501 0.7137 -1.4985 0
M  V30 16 C -2.5896 2.1425 -0.1323 0
M  V30 17 C 5.5121 -4.1594 -0.612 0
M  V30 18 C 3.5416 -5.4714 -1.1191 0
M  V30 19 C -3.4408 2.9852 -0.0385 0
M  V30 20 C 6.9394 -4.0421 -0.5405 0
M  V30 21 C 4.9294 -5.3604 -1.0318 0
M  V30 22 C -4.4541 3.9888 0.072 0
M  V30 23 N 8.0937 -3.9398 -0.4825 0
M  V30 24 C -4.9276 4.3702 1.3297 0
M  V30 25 C -4.9722 4.5896 -1.0776 0
M  V30 26 C -5.9168 5.3501 1.4365 0
M  V30 27 C -5.9613 5.5693 -0.9692 0
M  V30 28 C -6.4329 5.9488 0.2874 0
M  V30 29 H -0.113 -0.9118 2.8283 0
M  V30 30 H 2.8409 -0.1159 0.8246 0
M  V30 31 H 3.7595 -1.416 1.5738 0
M  V30 32 H -1.3487 0.9258 1.8822 0
M  V30 33 H 0.1421 -0.621 -2.5827 0
M  V30 34 H 5.1693 -2.1327 0.0276 0
M  V30 35 H 1.652 -4.478 -0.8562 0
M  V30 36 H -1.5849 1.1311 -2.4036 0
M  V30 37 H 3.0872 -6.4014 -1.453 0
M  V30 38 H 5.5512 -6.2129 -1.3001 0
M  V30 39 H -4.5313 3.9089 2.2308 0
M  V30 40 H -4.6106 4.2998 -2.061 0
M  V30 41 H -6.2845 5.6461 2.4157 0
M  V30 42 H -6.3637 6.036 -1.8646 0
M  V30 43 H -7.203 6.7117 0.3712 0
M  V30 END ATOM
M  V30 BEGIN BOND
M  V30 1 2 1 2
M  V30 2 1 2 3
M  V30 3 1 2 4
M  V30 4 1 3 5
M  V30 5 1 4 6
M  V30 6 2 5 7
M  V30 7 1 5 8
M  V30 8 2 6 9
M  V30 9 1 6 10
M  V30 10 1 7 11
M  V30 11 2 8 12
M  V30 12 2 10 13
M  V30 13 1 10 14
M  V30 14 2 11 15
M  V30 15 1 12 16
M  V30 16 1 13 17
M  V30 17 2 14 18
M  V30 18 3 16 19
M  V30 19 1 17 20
M  V30 20 2 17 21
M  V30 21 1 19 22
M  V30 22 3 20 23
M  V30 23 2 22 24
M  V30 24 1 22 25
M  V30 25 1 24 26
M  V30 26 2 25 27
M  V30 27 2 26 28
M  V30 28 1 7 9
M  V30 29 1 12 15
M  V30 30 1 18 21
M  V30 31 1 27 28
M  V30 32 1 3 29
M  V30 33 1 4 30
M  V30 34 1 4 31
M  V30 35 1 8 32
M  V30 36 1 11 33
M  V30 37 1 13 34
M  V30 38 1 14 35
M  V30 39 1 15 36
M  V30 40 1 18 37
M  V30 41 1 21 38
M  V30 42 1 24 39
M  V30 43 1 25 40
M  V30 44 1 26 41
M  V30 45 1 27 42
M  V30 46 1 28 43
M  V30 END BOND
M  V30 END CTAB
M  END
>  <Column 1>
626

>  <level_0>
714

>  <index>
714

>  <Unnamed: 0>
714

>  <NO.>
725

>  <Name>
chembl401446

>  <IUPAC_name>
3-[2-oxo-8-(2-phenylethynyl)-1-3-dihydro-1-5-benzodiazepin-4-yl]benzonitrile

>  <SMILES>
N#Cc1cccc(C2=Nc3ccc(C#Cc4ccccc4)cc3NC(=O)C2)c1

>  <CID>
9820321

>  <logBB>
0.3

>  <BBB+/BBB->
BBB+

>  <Inchi>
InChI=1S/C24H15N3O/c25-16-19-7-4-8-20(13-19)22-15-24(28)27-23-14-18(11-12-21(23)26-22)10-9-17-5-2-1-3-6-17/h1-8-11-14H-15H2-(H-27-28)

>  <threshold>


>  <reference>
R47|

>  <group>
A

>  <Class>
1

>  <ABC>
21.95

>  <ABCGG>
15.77

>  <nAcid>
0

>  <nBase>
0

>  <nAromAtom>
18

>  <nAromBond>
18

>  <nAtom>
43

>  <nHeavyAtom>
28

>  <nSpiro>
0

>  <nBridgehead>
0

>  <nHetero>
4

>  <nN>
3

>  <nO>
1

>  <nF>
0

>  <BalabanJ>
1.29

>  <BertzCT>
1191.76

>  <nBonds>
46

>  <nBondsO>
31

>  <nBondsS>
24

>  <nBondsD>
2

>  <nBondsT>
2

>  <nBondsA>
18

>  <nBondsM>
22

>  <nBondsKS>
33

>  <nBondsKD>
11

>  <RNCG>
0.19

>  <RPCG>
0.13

>  <FCSP3>
0.04

>  <SZ>
31.33

>  <Sm>
30.09

>  <Sv>
31.05

>  <Sse>
42.98

>  <Sp>
32.45

>  <Si>
47.2

>  <MZ>
0.73

>  <Mm>
0.7

>  <Mv>
0.72

>  <Mse>
1

>  <Mp>
0.75

>  <Mi>
1.1

>  <NsCH3>
0

>  <NdCH2>
0

>  <NssCH2>
1

>  <NtCH>
0

>  <NdsCH>
0

>  <NaaCH>
12

>  <NsssCH>
0

>  <NddC>
0

>  <NtsC>
3

>  <NdssC>
2

>  <NaasC>
6

>  <NaaaC>
0

>  <NssssC>
0

>  <NsNH3>
0

>  <NsNH2>
0

>  <NssNH2>
0

>  <NdNH>
0

>  <NssNH>
1

>  <NaaNH>
0

>  <NtN>
1

>  <NsssNH>
0

>  <NdsN>
1

>  <NaaN>
0

>  <NsssN>
0

>  <NddsN>
0

>  <NaasN>
0

>  <NssssN>
0

>  <NsOH>
0

>  <NdO>
1

>  <NssO>
0

>  <NaaO>
0

>  <NsF>
0

>  <NsSiH3>
0

>  <NssSiH2>
0

>  <NsssSiH>
0

>  <NssssSi>
0

>  <NsPH2>
0

>  <NssPH>
0

>  <NsssP>
0

>  <NdsssP>
0

>  <NsssssP>
0

>  <NsSH>
0

>  <NdS>
0

>  <NssS>
0

>  <NaaS>
0

>  <NdssS>
0

>  <NddssS>
0

>  <NsCl>
0

>  <NsBr>
0

>  <NsI>
0

>  <fragCpx>
205.04

>  <fMF>
0.58

>  <nHBAcc>
3

>  <nHBDon>
1

>  <Kier1>
21.24

>  <Kier2>
10.35

>  <Lipinski>
1

>  <GhoseFilter>
1

>  <FilterItLogS>
-6.54

>  <VMcGowan>
276.89

>  <LabuteASA>
162.73

>  <PEOE_VSA1>
5.32

>  <PEOE_VSA2>
9.79

>  <PEOE_VSA3>
0

>  <PEOE_VSA4>
5.26

>  <PEOE_VSA5>
0

>  <PEOE_VSA6>
42.17

>  <PEOE_VSA7>
48.03

>  <PEOE_VSA8>
11.13

>  <PEOE_VSA9>
35.14

>  <PEOE_VSA10>
0

>  <PEOE_VSA11>
0

>  <PEOE_VSA12>
5.91

>  <PEOE_VSA13>
0

>  <SMR_VSA1>
4.79

>  <SMR_VSA2>
5.26

>  <SMR_VSA3>
0

>  <SMR_VSA4>
4.99

>  <SMR_VSA5>
6.42

>  <SMR_VSA6>
5.32

>  <SMR_VSA7>
95.05

>  <SMR_VSA8>
0

>  <SMR_VSA9>
17.91

>  <SlogP_VSA1>
5.32

>  <SlogP_VSA2>
11.62

>  <SlogP_VSA3>
4.79

>  <SlogP_VSA4>
23.17

>  <SlogP_VSA5>
28.67

>  <SlogP_VSA6>
77.79

>  <SlogP_VSA7>
0

>  <SlogP_VSA8>
0

>  <SlogP_VSA9>
0

>  <SlogP_VSA10>
11.37

>  <SlogP_VSA11>
0

>  <EState_VSA1>
0

>  <EState_VSA2>
12.33

>  <EState_VSA3>
22.65

>  <EState_VSA4>
16.69

>  <EState_VSA5>
0

>  <EState_VSA6>
18.2

>  <EState_VSA7>
54.6

>  <EState_VSA8>
28.22

>  <EState_VSA9>
5.26

>  <EState_VSA10>
4.79

>  <VSA_EState1>
0

>  <VSA_EState2>
17.05

>  <VSA_EState3>
12.01

>  <VSA_EState4>
4.99

>  <VSA_EState5>
6.09

>  <VSA_EState6>
24.55

>  <VSA_EState7>
0.15

>  <VSA_EState8>
0

>  <VSA_EState9>
0

>  <apol>
54.18

>  <bpol>
18.2

>  <nRing>
4

>  <nHRing>
1

>  <naRing>
3

>  <naHRing>
0

>  <nARing 2>
1

>  <nAHRing 2>
1

>  <nFRing>
1

>  <nFHRing>
1

>  <nFaRing>
0

>  <nFaHRing>
0

>  <nFARing 2>
1

>  <nFAHRing 2>
1

>  <nRot>
1

>  <SLogP>
4.42

>  <SMR>
109.46

>  <TopoPSA(NO)>
65.25

>  <TopoPSA>
65.25

>  <JGI1>
0.18

>  <JGI2>
0.05

>  <JGI3>
0.03

>  <JGI4>
0.04

>  <JGI5>
0.02

>  <Diameter>
16

>  <Radius>
8

>  <TMWC10>
134.74

>  <TSRW10>
71.13

>  <MW>
361.12

>  <AMW>
8.4

>  <WPath>
2237

>  <WPol>
45

>  <Zagreb1>
146

>  <Zagreb2>
169

>  <mZagreb2>
6.22

>  <yes>


>  <nAR-cont>
0.816016

>  <nHA-cont>
0.82432561

>  <MWHBN>
0.210491334

>  <MWHBN-cont>
0.999196349

>  <TPSA-cont>
0.544514482

>  <pka_cont>
0.97

>  <yes.1>


>  <BBB_SCORE>
4.713165098

>  <MMFF94 Energy>
67.432

$$$$
Compound 508
Actelion Java MolfileCreator 2.0

  0  0  0  0  0  0              0 V3000
M  V30 BEGIN CTAB
M  V30 COUNTS 20 21 0 0 0
M  V30 BEGIN ATOM
M  V30 1 S -1.7502 -1.6668 1.5834 0
M  V30 2 C -1.5264 -0.494 2.8137 0
M  V30 3 C -0.7089 -0.7764 0.5429 0
M  V30 4 N -0.7388 0.5052 2.5094 0
M  V30 5 N -2.1276 -0.6113 4.0021 0
M  V30 6 C -0.2645 0.3591 1.2182 0
M  V30 7 C -0.3114 -1.0577 -0.7748 0
M  V30 8 C 0.6067 1.2406 0.5496 0
M  V30 9 C 0.5565 -0.17 -1.4266 0
M  V30 10 C 1.0101 0.9695 -0.7661 0
M  V30 11 O 0.8743 -0.5451 -2.7025 0
M  V30 12 C 1.7475 0.2898 -3.4441 0
M  V30 13 F 1.2205 1.5219 -3.6075 0
M  V30 14 F 2.9523 0.3897 -2.8434 0
M  V30 15 F 1.9316 -0.254 -4.6673 0
M  V30 16 H -2.7344 -1.3865 4.2285 0
M  V30 17 H -1.9774 0.096 4.7098 0
M  V30 18 H -0.6719 -1.9498 -1.2796 0
M  V30 19 H 0.961 2.1294 1.0636 0
M  V30 20 H 1.683 1.6834 -1.2334 0
M  V30 END ATOM
M  V30 BEGIN BOND
M  V30 1 1 1 2
M  V30 2 1 1 3
M  V30 3 2 2 4
M  V30 4 1 2 5
M  V30 5 2 3 6
M  V30 6 1 3 7
M  V30 7 1 6 8
M  V30 8 2 7 9
M  V30 9 2 8 10
M  V30 10 1 9 11
M  V30 11 1 11 12
M  V30 12 1 12 13
M  V30 13 1 12 14
M  V30 14 1 12 15
M  V30 15 1 4 6
M  V30 16 1 9 10
M  V30 17 1 5 16
M  V30 18 1 5 17
M  V30 19 1 7 18
M  V30 20 1 8 19
M  V30 21 1 10 20
M  V30 END BOND
M  V30 END CTAB
M  END
>  <Column 1>
627

>  <level_0>
715

>  <index>
715

>  <Unnamed: 0>
715

>  <NO.>
726

>  <Name>
riluzole

>  <IUPAC_name>
6-(trifluoromethoxy)-1-3-benzothiazol-2-amine

>  <SMILES>
Nc1nc2ccc(OC(F)(F)F)cc2s1

>  <CID>
5070

>  <logBB>
0.3

>  <BBB+/BBB->
BBB+

>  <Inchi>
InChI=1S/C8H5F3N2OS/c9-8(10-11)14-4-1-2-5-6(3-4)15-7(12)13-5/h1-3H-(H2-12-13)

>  <threshold>


>  <reference>
R27|R18|R26|

>  <group>
A

>  <Class>
1

>  <ABC>
11.86

>  <ABCGG>
10.4

>  <nAcid>
0

>  <nBase>
0

>  <nAromAtom>
9

>  <nAromBond>
10

>  <nAtom>
20

>  <nHeavyAtom>
15

>  <nSpiro>
0

>  <nBridgehead>
0

>  <nHetero>
7

>  <nN>
2

>  <nO>
1

>  <nF>
3

>  <BalabanJ>
1.87

>  <BertzCT>
494.08

>  <nBonds>
21

>  <nBondsO>
16

>  <nBondsS>
11

>  <nBondsD>
0

>  <nBondsT>
0

>  <nBondsA>
10

>  <nBondsM>
10

>  <nBondsKS>
17

>  <nBondsKD>
4

>  <RNCG>
0.26

>  <RPCG>
0.37

>  <FCSP3>
0.13

>  <SZ>
19.67

>  <Sm>
19.5

>  <Sv>
14.71

>  <Sse>
21.82

>  <Sp>
14.53

>  <Si>
23.39

>  <MZ>
0.98

>  <Mm>
0.97

>  <Mv>
0.74

>  <Mse>
1.09

>  <Mp>
0.73

>  <Mi>
1.17

>  <NsCH3>
0

>  <NdCH2>
0

>  <NssCH2>
0

>  <NtCH>
0

>  <NdsCH>
0

>  <NaaCH>
3

>  <NsssCH>
0

>  <NddC>
0

>  <NtsC>
0

>  <NdssC>
0

>  <NaasC>
2

>  <NaaaC>
2

>  <NssssC>
1

>  <NsNH3>
0

>  <NsNH2>
1

>  <NssNH2>
0

>  <NdNH>
0

>  <NssNH>
0

>  <NaaNH>
0

>  <NtN>
0

>  <NsssNH>
0

>  <NdsN>
0

>  <NaaN>
1

>  <NsssN>
0

>  <NddsN>
0

>  <NaasN>
0

>  <NssssN>
0

>  <NsOH>
0

>  <NdO>
0

>  <NssO>
1

>  <NaaO>
0

>  <NsF>
3

>  <NsSiH3>
0

>  <NssSiH2>
0

>  <NsssSiH>
0

>  <NssssSi>
0

>  <NsPH2>
0

>  <NssPH>
0

>  <NsssP>
0

>  <NdsssP>
0

>  <NsssssP>
0

>  <NsSH>
0

>  <NdS>
0

>  <NssS>
0

>  <NaaS>
1

>  <NdssS>
0

>  <NddssS>
0

>  <NsCl>
0

>  <NsBr>
0

>  <NsI>
0

>  <fragCpx>
46.07

>  <fMF>
0.45

>  <nHBAcc>
4

>  <nHBDon>
1

>  <Kier1>
11.48

>  <Kier2>
4.11

>  <Lipinski>
1

>  <GhoseFilter>
1

>  <FilterItLogS>
-2.79

>  <VMcGowan>
132.12

>  <LabuteASA>
86.29

>  <PEOE_VSA1>
10.47

>  <PEOE_VSA2>
0

>  <PEOE_VSA3>
4.98

>  <PEOE_VSA4>
0

>  <PEOE_VSA5>
13.17

>  <PEOE_VSA6>
11.34

>  <PEOE_VSA7>
12.13

>  <PEOE_VSA8>
6.07

>  <PEOE_VSA9>
10.22

>  <PEOE_VSA10>
5.75

>  <PEOE_VSA11>
5.13

>  <PEOE_VSA12>
0

>  <PEOE_VSA13>
0

>  <SMR_VSA1>
17.91

>  <SMR_VSA2>
0

>  <SMR_VSA3>
4.98

>  <SMR_VSA4>
0

>  <SMR_VSA5>
6.36

>  <SMR_VSA6>
5.73

>  <SMR_VSA7>
18.2

>  <SMR_VSA8>
0

>  <SMR_VSA9>
5.75

>  <SlogP_VSA1>
10.47

>  <SlogP_VSA2>
11.35

>  <SlogP_VSA3>
0

>  <SlogP_VSA4>
0

>  <SlogP_VSA5>
0

>  <SlogP_VSA6>
18.2

>  <SlogP_VSA7>
0

>  <SlogP_VSA8>
10.22

>  <SlogP_VSA9>
0

>  <SlogP_VSA10>
18.3

>  <SlogP_VSA11>
5.75

>  <EState_VSA1>
6.36

>  <EState_VSA2>
5.75

>  <EState_VSA3>
15.35

>  <EState_VSA4>
11.34

>  <EState_VSA5>
18.2

>  <EState_VSA6>
0

>  <EState_VSA7>
0

>  <EState_VSA8>
9.72

>  <EState_VSA9>
5.73

>  <EState_VSA10>
13.17

>  <VSA_EState1>
39.98

>  <VSA_EState2>
3.91

>  <VSA_EState3>
0.31

>  <VSA_EState4>
5.97

>  <VSA_EState5>
-0.27

>  <VSA_EState6>
3.9

>  <VSA_EState7>
-4.68

>  <VSA_EState8>
0

>  <VSA_EState9>
0

>  <apol>
24.27

>  <bpol>
13.12

>  <nRing>
2

>  <nHRing>
1

>  <naRing>
2

>  <naHRing>
1

>  <nARing 2>
0

>  <nAHRing 2>
0

>  <nFRing>
1

>  <nFHRing>
1

>  <nFaRing>
1

>  <nFaHRing>
1

>  <nFARing 2>
0

>  <nFAHRing 2>
0

>  <nRot>
1

>  <SLogP>
2.78

>  <SMR>
50.72

>  <TopoPSA(NO)>
48.14

>  <TopoPSA>
76.38

>  <JGI1>
0.34

>  <JGI2>
0.06

>  <JGI3>
0.08

>  <JGI4>
0.05

>  <JGI5>
0.04

>  <Diameter>
8

>  <Radius>
4

>  <TMWC10>
101.49

>  <TSRW10>
61.19

>  <MW>
234.01

>  <AMW>
11.7

>  <WPath>
369

>  <WPol>
18

>  <Zagreb1>
80

>  <Zagreb2>
90

>  <mZagreb2>
3.07

>  <yes>


>  <nAR-cont>
0.336376

>  <nHA-cont>
0.92539861

>  <MWHBN>
0.326853241

>  <MWHBN-cont>
0.753804269

>  <TPSA-cont>
0.466820171

>  <pka_cont>
0.97

>  <yes.1>


>  <BBB_SCORE>
3.811121356

>  <MMFF94 Energy>
-20.014

$$$$
Compound 509
Actelion Java MolfileCreator 2.0

  0  0  0  0  0  0              0 V3000
M  V30 BEGIN CTAB
M  V30 COUNTS 34 36 0 0 0
M  V30 BEGIN ATOM
M  V30 1 Cl 0.4862 4.5456 -0.8916 0
M  V30 2 C 0.7046 2.8528 -1.1004 0
M  V30 3 C -0.1266 1.9584 -0.4305 0
M  V30 4 C 1.7052 2.3853 -1.9424 0
M  V30 5 C 0.0378 0.5679 -0.5866 0
M  V30 6 C 1.8748 1.0109 -2.117 0
M  V30 7 N -0.8396 -0.3091 0.124 0
M  V30 8 C 1.0508 0.0891 -1.447 0
M  V30 9 C -1.5069 -1.3815 -0.4734 0
M  V30 10 C -1.0244 -0.0297 1.5104 0
M  V30 11 N 1.2674 -1.2984 -1.6746 0
M  V30 12 O -2.3352 -2.0934 0.0988 0
M  V30 13 C -1.1571 -1.6489 -1.9109 0
M  V30 14 C -2.3096 0.1611 2.0329 0
M  V30 15 C 0.0837 0.0685 2.3644 0
M  V30 16 C 0.2437 -2.1853 -1.9935 0
M  V30 17 C 2.6348 -1.799 -1.6676 0
M  V30 18 C -2.4833 0.4551 3.3869 0
M  V30 19 C -0.0932 0.3635 3.7177 0
M  V30 20 O 0.4562 -3.3477 -2.3409 0
M  V30 21 C -1.376 0.5587 4.2273 0
M  V30 22 H -0.9116 2.3503 0.2134 0
M  V30 23 H 2.3509 3.0815 -2.4722 0
M  V30 24 H 2.6498 0.6711 -2.8004 0
M  V30 25 H -1.2851 -0.7566 -2.5309 0
M  V30 26 H -1.8457 -2.4058 -2.3044 0
M  V30 27 H -3.1846 0.0769 1.393 0
M  V30 28 H 1.0897 -0.0947 1.9874 0
M  V30 29 H 2.6549 -2.8533 -1.374 0
M  V30 30 H 3.2467 -1.2339 -0.9574 0
M  V30 31 H 3.0495 -1.7152 -2.6769 0
M  V30 32 H -3.4848 0.5957 3.786 0
M  V30 33 H 0.7688 0.4343 4.376 0
M  V30 34 H -1.5142 0.7827 5.2822 0
M  V30 END ATOM
M  V30 BEGIN BOND
M  V30 1 1 1 2
M  V30 2 2 2 3
M  V30 3 1 2 4
M  V30 4 1 3 5
M  V30 5 2 4 6
M  V30 6 1 5 7
M  V30 7 2 5 8
M  V30 8 1 7 9
M  V30 9 1 7 10
M  V30 10 1 8 11
M  V30 11 2 9 12
M  V30 12 1 9 13
M  V30 13 2 10 14
M  V30 14 1 10 15
M  V30 15 1 11 16
M  V30 16 1 11 17
M  V30 17 1 14 18
M  V30 18 2 15 19
M  V30 19 2 16 20
M  V30 20 2 18 21
M  V30 21 1 6 8
M  V30 22 1 13 16
M  V30 23 1 19 21
M  V30 24 1 3 22
M  V30 25 1 4 23
M  V30 26 1 6 24
M  V30 27 1 13 25
M  V30 28 1 13 26
M  V30 29 1 14 27
M  V30 30 1 15 28
M  V30 31 1 17 29
M  V30 32 1 17 30
M  V30 33 1 17 31
M  V30 34 1 18 32
M  V30 35 1 19 33
M  V30 36 1 21 34
M  V30 END BOND
M  V30 END CTAB
M  END
>  <Column 1>
628

>  <level_0>
716

>  <index>
716

>  <Unnamed: 0>
716

>  <NO.>
728

>  <Name>
22316-47-8

>  <IUPAC_name>
7-chloro-1-methyl-5-phenyl-1-5-benzodiazepine-2-4-dione

>  <SMILES>
CN1C(=O)CC(=O)N(c2ccccc2)c2cc(Cl)ccc21

>  <CID>
2789

>  <logBB>
0.3

>  <BBB+/BBB->
BBB+

>  <Inchi>
InChI=1S/C16H13ClN2O2/c1-18-13-8-7-11(17)9-14(13)19(16(21)10-15(18)20)12-5-3-2-4-6-12/h2-9H-10H2-1H3

>  <threshold>


>  <reference>
R40|R3|R4|R12|R18|R25|R26|R27|R35|R36|R38|R39|R41|R43|R44|R46|R47|R50|R2|R2|R27|R21|R27|R8|R5|

>  <group>
A

>  <Class>
1

>  <ABC>
16.46

>  <ABCGG>
13.82

>  <nAcid>
0

>  <nBase>
0

>  <nAromAtom>
12

>  <nAromBond>
12

>  <nAtom>
34

>  <nHeavyAtom>
21

>  <nSpiro>
0

>  <nBridgehead>
0

>  <nHetero>
5

>  <nN>
2

>  <nO>
2

>  <nF>
0

>  <BalabanJ>
1.86

>  <BertzCT>
715.47

>  <nBonds>
36

>  <nBondsO>
23

>  <nBondsS>
22

>  <nBondsD>
2

>  <nBondsT>
0

>  <nBondsA>
12

>  <nBondsM>
14

>  <nBondsKS>
28

>  <nBondsKD>
8

>  <RNCG>
0.2

>  <RPCG>
0.15

>  <FCSP3>
0.13

>  <SZ>
26

>  <Sm>
25.04

>  <Sv>
23.56

>  <Sse>
34.52

>  <Sp>
24.77

>  <Si>
37.85

>  <MZ>
0.76

>  <Mm>
0.74

>  <Mv>
0.69

>  <Mse>
1.02

>  <Mp>
0.73

>  <Mi>
1.11

>  <NsCH3>
1

>  <NdCH2>
0

>  <NssCH2>
1

>  <NtCH>
0

>  <NdsCH>
0

>  <NaaCH>
8

>  <NsssCH>
0

>  <NddC>
0

>  <NtsC>
0

>  <NdssC>
2

>  <NaasC>
4

>  <NaaaC>
0

>  <NssssC>
0

>  <NsNH3>
0

>  <NsNH2>
0

>  <NssNH2>
0

>  <NdNH>
0

>  <NssNH>
0

>  <NaaNH>
0

>  <NtN>
0

>  <NsssNH>
0

>  <NdsN>
0

>  <NaaN>
0

>  <NsssN>
2

>  <NddsN>
0

>  <NaasN>
0

>  <NssssN>
0

>  <NsOH>
0

>  <NdO>
2

>  <NssO>
0

>  <NaaO>
0

>  <NsF>
0

>  <NsSiH3>
0

>  <NssSiH2>
0

>  <NsssSiH>
0

>  <NssssSi>
0

>  <NsPH2>
0

>  <NssPH>
0

>  <NsssP>
0

>  <NdsssP>
0

>  <NsssssP>
0

>  <NsSH>
0

>  <NdS>
0

>  <NssS>
0

>  <NaaS>
0

>  <NdssS>
0

>  <NddssS>
0

>  <NsCl>
1

>  <NsBr>
0

>  <NsI>
0

>  <fragCpx>
109.05

>  <fMF>
0.5

>  <nHBAcc>
2

>  <nHBDon>
0

>  <Kier1>
15.88

>  <Kier2>
6.63

>  <Lipinski>
1

>  <GhoseFilter>
1

>  <FilterItLogS>
-3.98

>  <VMcGowan>
213.26

>  <LabuteASA>
127.09

>  <PEOE_VSA1>
4.9

>  <PEOE_VSA2>
14.49

>  <PEOE_VSA3>
0

>  <PEOE_VSA4>
0

>  <PEOE_VSA5>
0

>  <PEOE_VSA6>
29.8

>  <PEOE_VSA7>
30.33

>  <PEOE_VSA8>
17.76

>  <PEOE_VSA9>
11.37

>  <PEOE_VSA10>
6.42

>  <PEOE_VSA11>
0

>  <PEOE_VSA12>
11.81

>  <PEOE_VSA13>
0

>  <SMR_VSA1>
9.59

>  <SMR_VSA2>
0

>  <SMR_VSA3>
0

>  <SMR_VSA4>
0

>  <SMR_VSA5>
6.42

>  <SMR_VSA6>
16.85

>  <SMR_VSA7>
53.55

>  <SMR_VSA8>
0

>  <SMR_VSA9>
0

>  <SlogP_VSA1>
9.8

>  <SlogP_VSA2>
18.86

>  <SlogP_VSA3>
9.59

>  <SlogP_VSA4>
0

>  <SlogP_VSA5>
6.42

>  <SlogP_VSA6>
48.53

>  <SlogP_VSA7>
5.02

>  <SlogP_VSA8>
0

>  <SlogP_VSA9>
0

>  <SlogP_VSA10>
17.06

>  <SlogP_VSA11>
0

>  <EState_VSA1>
0

>  <EState_VSA2>
18.24

>  <EState_VSA3>
22.08

>  <EState_VSA4>
0

>  <EState_VSA5>
4.9

>  <EState_VSA6>
30.15

>  <EState_VSA7>
30.33

>  <EState_VSA8>
0

>  <EState_VSA9>
11.6

>  <EState_VSA10>
9.59

>  <VSA_EState1>
0

>  <VSA_EState2>
27.61

>  <VSA_EState3>
0.52

>  <VSA_EState4>
2

>  <VSA_EState5>
-0.5

>  <VSA_EState6>
14.41

>  <VSA_EState7>
-0.17

>  <VSA_EState8>
0

>  <VSA_EState9>
1.66

>  <apol>
41.37

>  <bpol>
18.71

>  <nRing>
3

>  <nHRing>
1

>  <naRing>
2

>  <naHRing>
0

>  <nARing 2>
1

>  <nAHRing 2>
1

>  <nFRing>
1

>  <nFHRing>
1

>  <nFaRing>
0

>  <nFaHRing>
0

>  <nFARing 2>
1

>  <nFAHRing 2>
1

>  <nRot>
1

>  <SLogP>
3.37

>  <SMR>
83.07

>  <TopoPSA(NO)>
40.62

>  <TopoPSA>
40.62

>  <JGI1>
0.17

>  <JGI2>
0.08

>  <JGI3>
0.05

>  <JGI4>
0.05

>  <JGI5>
0.03

>  <Diameter>
8

>  <Radius>
4

>  <TMWC10>
118.71

>  <TSRW10>
63.31

>  <MW>
300.07

>  <AMW>
8.83

>  <WPath>
807

>  <WPol>
39

>  <Zagreb1>
112

>  <Zagreb2>
134

>  <mZagreb2>
4.58

>  <yes>


>  <nAR-cont>
0.816016

>  <nHA-cont>
0.994529749

>  <MWHBN>
0.115456585

>  <MWHBN-cont>
0.80915352

>  <TPSA-cont>
0.716447176

>  <pka_cont>
0.97

>  <yes.1>


>  <BBB_SCORE>
4.942170383

>  <MMFF94 Energy>
40.264

$$$$
Compound 510
Actelion Java MolfileCreator 2.0

  0  0  0  0  0  0              0 V3000
M  V30 BEGIN CTAB
M  V30 COUNTS 45 47 0 0 0
M  V30 BEGIN ATOM
M  V30 1 O -2.3746 -3.1672 3.0086 0
M  V30 2 C -2.1535 -2.0294 2.2688 0
M  V30 3 C -2.1012 -4.416 2.3917 0
M  V30 4 C -2.4043 -0.8018 2.9348 0
M  V30 5 C -1.7101 -2.0293 0.9396 0
M  V30 6 O -2.834 -0.9048 4.237 0
M  V30 7 C -2.2095 0.4127 2.2645 0
M  V30 8 C -1.5261 -0.8146 0.2938 0
M  V30 9 C -3.0663 0.3016 4.9485 0
M  V30 10 C -1.7781 0.3887 0.9465 0
M  V30 11 C -1.0678 -0.5919 -1.1132 0
M  V30 12 C -1.4741 1.5616 0.0706 0
M  V30 13 C -1.3158 0.9175 -1.3255 0
M  V30 14 C 0.431 -0.7853 -1.3661 0
M  V30 15 C -0.0743 1.3864 -2.0736 0
M  V30 16 N 0.9904 0.5731 -1.4811 0
M  V30 17 C 2.2488 0.5872 -2.2309 0
M  V30 18 C 2.9358 1.9584 -2.1843 0
M  V30 19 C 4.261 1.995 -2.9514 0
M  V30 20 C 5.3488 1.1312 -2.3323 0
M  V30 21 H -2.7527 -4.5804 1.5272 0
M  V30 22 H -2.3142 -5.2033 3.1213 0
M  V30 23 H -1.0453 -4.498 2.1141 0
M  V30 24 H -1.5087 -2.9454 0.3986 0
M  V30 25 H -2.3802 1.3708 2.74 0
M  V30 26 H -2.1487 0.8926 5.0365 0
M  V30 27 H -3.3877 0.0365 5.9605 0
M  V30 28 H -3.8709 0.8838 4.4874 0
M  V30 29 H -1.6677 -1.1835 -1.8144 0
M  V30 30 H -0.5617 2.0614 0.4127 0
M  V30 31 H -2.2986 2.2817 0.0695 0
M  V30 32 H -2.2234 1.0888 -1.9176 0
M  V30 33 H 0.932 -1.353 -0.5748 0
M  V30 34 H 0.5549 -1.3336 -2.3093 0
M  V30 35 H -0.1839 1.1763 -3.1452 0
M  V30 36 H 0.0924 2.4598 -1.9416 0
M  V30 37 H 2.0878 0.2856 -3.2737 0
M  V30 38 H 2.9206 -0.1532 -1.7815 0
M  V30 39 H 3.1078 2.2544 -1.1419 0
M  V30 40 H 2.2798 2.7179 -2.626 0
M  V30 41 H 4.099 1.6895 -3.9916 0
M  V30 42 H 4.6162 3.0323 -2.9778 0
M  V30 43 H 6.2949 1.2833 -2.8618 0
M  V30 44 H 5.5048 1.3891 -1.2801 0
M  V30 45 H 5.1029 0.0674 -2.3962 0
M  V30 END ATOM
M  V30 BEGIN BOND
M  V30 1 1 1 2
M  V30 2 1 1 3
M  V30 3 2 2 4
M  V30 4 1 2 5
M  V30 5 1 4 6
M  V30 6 1 4 7
M  V30 7 2 5 8
M  V30 8 1 6 9
M  V30 9 2 7 10
M  V30 10 1 8 11
M  V30 11 1 10 12
M  V30 12 1 11 13
M  V30 13 1 11 14
M  V30 14 1 13 15
M  V30 15 1 14 16
M  V30 16 1 16 17
M  V30 17 1 17 18
M  V30 18 1 18 19
M  V30 19 1 19 20
M  V30 20 1 8 10
M  V30 21 1 12 13
M  V30 22 1 15 16
M  V30 23 1 3 21
M  V30 24 1 3 22
M  V30 25 1 3 23
M  V30 26 1 5 24
M  V30 27 1 7 25
M  V30 28 1 9 26
M  V30 29 1 9 27
M  V30 30 1 9 28
M  V30 31 1 11 29
M  V30 32 1 12 30
M  V30 33 1 12 31
M  V30 34 1 13 32
M  V30 35 1 14 33
M  V30 36 1 14 34
M  V30 37 1 15 35
M  V30 38 1 15 36
M  V30 39 1 17 37
M  V30 40 1 17 38
M  V30 41 1 18 39
M  V30 42 1 18 40
M  V30 43 1 19 41
M  V30 44 1 19 42
M  V30 45 1 20 43
M  V30 46 1 20 44
M  V30 47 1 20 45
M  V30 END BOND
M  V30 END CTAB
M  END
>  <Column 1>
629

>  <level_0>
717

>  <index>
717

>  <Unnamed: 0>
717

>  <NO.>
729

>  <Name>
ar-1d9859

>  <IUPAC_name>
2-butyl-6-7-dimethoxy-3-3a-4-8b-tetrahydro-1h-indeno[1-2-c]pyrrole;hydrochloride

>  <SMILES>
CCCCN1CC2Cc3cc(OC)c(OC)cc3C2C1

>  <CID>
6086

>  <logBB>
0.31

>  <BBB+/BBB->
BBB+

>  <Inchi>
InChI=1S/C17H25NO2/c1-4-5-6-18-10-13-7-12-8-16(19-2)17(20-3)9-14(12)15(13)11-18/h8-9-13-15H-4-7-10-11H2-1-3H3

>  <threshold>


>  <reference>
R8|R21|R27|R2|R2|R25|R27|R43|R46|R47|

>  <group>
A

>  <Class>
1

>  <ABC>
15.39

>  <ABCGG>
12.78

>  <nAcid>
0

>  <nBase>
1

>  <nAromAtom>
6

>  <nAromBond>
6

>  <nAtom>
45

>  <nHeavyAtom>
20

>  <nSpiro>
0

>  <nBridgehead>
0

>  <nHetero>
3

>  <nN>
1

>  <nO>
2

>  <nF>
0

>  <BalabanJ>
1.61

>  <BertzCT>
486.12

>  <nBonds>
47

>  <nBondsO>
22

>  <nBondsS>
41

>  <nBondsD>
0

>  <nBondsT>
0

>  <nBondsA>
6

>  <nBondsM>
6

>  <nBondsKS>
44

>  <nBondsKD>
3

>  <RNCG>
0.31

>  <RPCG>
0.1

>  <FCSP3>
0.65

>  <SZ>
25

>  <Sm>
22.93

>  <Sv>
25.96

>  <Sse>
44.42

>  <Sp>
28.6

>  <Si>
50.9

>  <MZ>
0.56

>  <Mm>
0.51

>  <Mv>
0.58

>  <Mse>
0.99

>  <Mp>
0.64

>  <Mi>
1.13

>  <NsCH3>
3

>  <NdCH2>
0

>  <NssCH2>
6

>  <NtCH>
0

>  <NdsCH>
0

>  <NaaCH>
2

>  <NsssCH>
2

>  <NddC>
0

>  <NtsC>
0

>  <NdssC>
0

>  <NaasC>
4

>  <NaaaC>
0

>  <NssssC>
0

>  <NsNH3>
0

>  <NsNH2>
0

>  <NssNH2>
0

>  <NdNH>
0

>  <NssNH>
0

>  <NaaNH>
0

>  <NtN>
0

>  <NsssNH>
0

>  <NdsN>
0

>  <NaaN>
0

>  <NsssN>
1

>  <NddsN>
0

>  <NaasN>
0

>  <NssssN>
0

>  <NsOH>
0

>  <NdO>
0

>  <NssO>
2

>  <NaaO>
0

>  <NsF>
0

>  <NsSiH3>
0

>  <NssSiH2>
0

>  <NsssSiH>
0

>  <NssssSi>
0

>  <NsPH2>
0

>  <NssPH>
0

>  <NsssP>
0

>  <NdsssP>
0

>  <NsssssP>
0

>  <NsSH>
0

>  <NdS>
0

>  <NssS>
0

>  <NaaS>
0

>  <NdssS>
0

>  <NddssS>
0

>  <NsCl>
0

>  <NsBr>
0

>  <NsI>
0

>  <fragCpx>
104.03

>  <fMF>
0.27

>  <nHBAcc>
3

>  <nHBDon>
0

>  <Kier1>
14.92

>  <Kier2>
6.41

>  <Lipinski>
1

>  <GhoseFilter>
1

>  <FilterItLogS>
-4.21

>  <VMcGowan>
226.63

>  <LabuteASA>
121.42

>  <PEOE_VSA1>
14.37

>  <PEOE_VSA2>
0

>  <PEOE_VSA3>
0

>  <PEOE_VSA4>
0

>  <PEOE_VSA5>
0

>  <PEOE_VSA6>
13.34

>  <PEOE_VSA7>
48.56

>  <PEOE_VSA8>
19.01

>  <PEOE_VSA9>
14.22

>  <PEOE_VSA10>
0

>  <PEOE_VSA11>
11.5

>  <PEOE_VSA12>
0

>  <PEOE_VSA13>
0

>  <SMR_VSA1>
9.47

>  <SMR_VSA2>
0

>  <SMR_VSA3>
4.9

>  <SMR_VSA4>
5.92

>  <SMR_VSA5>
32.1

>  <SMR_VSA6>
33.85

>  <SMR_VSA7>
23.26

>  <SMR_VSA8>
0

>  <SMR_VSA9>
11.5

>  <SlogP_VSA1>
9.47

>  <SlogP_VSA2>
38.75

>  <SlogP_VSA3>
6.42

>  <SlogP_VSA4>
5.92

>  <SlogP_VSA5>
36.81

>  <SlogP_VSA6>
12.13

>  <SlogP_VSA7>
0

>  <SlogP_VSA8>
0

>  <SlogP_VSA9>
0

>  <SlogP_VSA10>
0

>  <SlogP_VSA11>
11.5

>  <EState_VSA1>
0

>  <EState_VSA2>
0

>  <EState_VSA3>
5.92

>  <EState_VSA4>
17.42

>  <EState_VSA5>
50.02

>  <EState_VSA6>
14.22

>  <EState_VSA7>
0

>  <EState_VSA8>
23.96

>  <EState_VSA9>
9.47

>  <EState_VSA10>
0

>  <VSA_EState1>
10.89

>  <VSA_EState2>
2.64

>  <VSA_EState3>
0

>  <VSA_EState4>
2.96

>  <VSA_EState5>
3.23

>  <VSA_EState6>
4.39

>  <VSA_EState7>
3.8

>  <VSA_EState8>
5.99

>  <VSA_EState9>
3.44

>  <apol>
47.76

>  <bpol>
30.26

>  <nRing>
3

>  <nHRing>
1

>  <naRing>
1

>  <naHRing>
0

>  <nARing 2>
2

>  <nAHRing 2>
1

>  <nFRing>
1

>  <nFHRing>
1

>  <nFaRing>
0

>  <nFaHRing>
0

>  <nFARing 2>
1

>  <nFAHRing 2>
1

>  <nRot>
5

>  <SLogP>
3.08

>  <SMR>
80.83

>  <TopoPSA(NO)>
21.7

>  <TopoPSA>
21.7

>  <JGI1>
0.18

>  <JGI2>
0.06

>  <JGI3>
0.06

>  <JGI4>
0.04

>  <JGI5>
0.04

>  <Diameter>
12

>  <Radius>
6

>  <TMWC10>
116.64

>  <TSRW10>
70

>  <MW>
275.19

>  <AMW>
6.12

>  <WPath>
829

>  <WPol>
31

>  <Zagreb1>
106

>  <Zagreb2>
128

>  <mZagreb2>
4.61

>  <yes>


>  <nAR-cont>
1

>  <nHA-cont>
0.999629945

>  <MWHBN>
0.180844344

>  <MWHBN-cont>
0.988059006

>  <TPSA-cont>
0.848520525

>  <pka_cont>
0.97

>  <yes.1>


>  <BBB_SCORE>
5.663759504

>  <MMFF94 Energy>
67.882

$$$$
Compound 511
Actelion Java MolfileCreator 2.0

  0  0  0  0  0  0              0 V3000
M  V30 BEGIN CTAB
M  V30 COUNTS 42 45 0 0 0
M  V30 BEGIN ATOM
M  V30 1 O 1.1231 -1.7654 0.1603 0
M  V30 2 C 1.3801 -0.4389 -0.0789 0
M  V30 3 C -0.3112 -1.9132 0.0131 0
M  V30 4 C 2.6637 0.0917 -0.1356 0
M  V30 5 C 0.238 0.3471 -0.1667 0
M  V30 6 C -0.9916 -0.4992 -0.0653 0
M  V30 7 C -0.5018 -2.8122 -1.2144 0
M  V30 8 O 3.6985 -0.7957 -0.0548 0
M  V30 9 C 2.7791 1.4765 -0.2559 0
M  V30 10 C 0.344 1.7349 -0.1769 0
M  V30 11 C -1.9413 -0.3822 -1.2472 0
M  V30 12 C -1.7237 -0.1666 1.2575 0
M  V30 13 C -1.9379 -2.8252 -1.7065 0
M  V30 14 C 5.0135 -0.2643 -0.1296 0
M  V30 15 C 1.6323 2.2897 -0.2579 0
M  V30 16 C -0.8615 2.6234 0.0058 0
M  V30 17 C -2.4026 -1.4302 -1.9475 0
M  V30 18 C -2.4183 1.2095 1.3171 0
M  V30 19 O -2.0139 -3.5199 -2.9437 0
M  V30 20 N -1.5976 2.4215 1.2613 0
M  V30 21 C -0.7753 2.6155 2.4512 0
M  V30 22 H -0.6712 -2.4587 0.8953 0
M  V30 23 H 0.1713 -2.4978 -2.0258 0
M  V30 24 H -0.1714 -3.833 -0.9806 0
M  V30 25 H 3.7461 1.9654 -0.3089 0
M  V30 26 H -2.3127 0.6005 -1.5212 0
M  V30 27 H -2.5004 -0.9264 1.4252 0
M  V30 28 H -1.0355 -0.2586 2.1089 0
M  V30 29 H -2.6051 -3.3244 -0.9957 0
M  V30 30 H 5.1838 0.2368 -1.0882 0
M  V30 31 H 5.7166 -1.1 -0.0619 0
M  V30 32 H 5.2156 0.4089 0.71 0
M  V30 33 H 1.7599 3.3706 -0.2858 0
M  V30 34 H -0.5432 3.6742 -0.0272 0
M  V30 35 H -1.5313 2.5251 -0.8551 0
M  V30 36 H -3.1228 -1.2726 -2.7467 0
M  V30 37 H -2.9996 1.2403 2.249 0
M  V30 38 H -3.1827 1.2715 0.533 0
M  V30 39 H -1.5813 -4.3816 -2.8223 0
M  V30 40 H -1.402 2.6287 3.35 0
M  V30 41 H -0.0164 1.8377 2.5827 0
M  V30 42 H -0.2682 3.5864 2.4158 0
M  V30 END ATOM
M  V30 BEGIN BOND
M  V30 1 1 1 2
M  V30 2 1 1 3
M  V30 3 2 2 4
M  V30 4 1 2 5
M  V30 5 1 3 6
M  V30 6 1 3 7
M  V30 7 1 4 8
M  V30 8 1 4 9
M  V30 9 2 5 10
M  V30 10 1 6 11
M  V30 11 1 6 12
M  V30 12 1 7 13
M  V30 13 1 8 14
M  V30 14 2 9 15
M  V30 15 1 10 16
M  V30 16 2 11 17
M  V30 17 1 12 18
M  V30 18 1 13 19
M  V30 19 1 16 20
M  V30 20 1 20 21
M  V30 21 1 5 6
M  V30 22 1 10 15
M  V30 23 1 13 17
M  V30 24 1 18 20
M  V30 25 1 3 22
M  V30 26 1 7 23
M  V30 27 1 7 24
M  V30 28 1 9 25
M  V30 29 1 11 26
M  V30 30 1 12 27
M  V30 31 1 12 28
M  V30 32 1 13 29
M  V30 33 1 14 30
M  V30 34 1 14 31
M  V30 35 1 14 32
M  V30 36 1 15 33
M  V30 37 1 16 34
M  V30 38 1 16 35
M  V30 39 1 17 36
M  V30 40 1 18 37
M  V30 41 1 18 38
M  V30 42 1 19 39
M  V30 43 1 21 40
M  V30 44 1 21 41
M  V30 45 1 21 42
M  V30 END BOND
M  V30 END CTAB
M  END
>  <Column 1>
630

>  <level_0>
718

>  <index>
718

>  <Unnamed: 0>
718

>  <NO.>
730

>  <Name>
357-70-0

>  <IUPAC_name>
9-methoxy-4-methyl-11-oxa-4-azatetracyclo[8.6.1.01-12.06-17]heptadeca-6(17)-7-9-15-tetraen-14-ol

>  <SMILES>
COc1ccc2c3c1OC1CC(O)C=CC31CCN(C)C2

>  <CID>
3449

>  <logBB>
0.32

>  <BBB+/BBB->
BBB+

>  <Inchi>
InChI=1S/C17H21NO3/c1-18-8-7-17-6-5-12(19)9-14(17)21-16-13(20-2)4-3-11(10-18)15(16)17/h3-6-12-14-19H-7-10H2-1-2H3

>  <threshold>


>  <reference>
R2|R2|R27|R40|R25|R27|R43|R46|R47|R4|

>  <group>
A

>  <Class>
1

>  <ABC>
16.94

>  <ABCGG>
13.66

>  <nAcid>
0

>  <nBase>
1

>  <nAromAtom>
6

>  <nAromBond>
6

>  <nAtom>
42

>  <nHeavyAtom>
21

>  <nSpiro>
1

>  <nBridgehead>
0

>  <nHetero>
4

>  <nN>
1

>  <nO>
3

>  <nF>
0

>  <BalabanJ>
1.72

>  <BertzCT>
612.3

>  <nBonds>
45

>  <nBondsO>
24

>  <nBondsS>
38

>  <nBondsD>
1

>  <nBondsT>
0

>  <nBondsA>
6

>  <nBondsM>
7

>  <nBondsKS>
41

>  <nBondsKD>
4

>  <RNCG>
0.26

>  <RPCG>
0.11

>  <FCSP3>
0.53

>  <SZ>
25.67

>  <Sm>
23.92

>  <Sv>
25.59

>  <Sse>
41.98

>  <Sp>
27.48

>  <Si>
47.28

>  <MZ>
0.61

>  <Mm>
0.57

>  <Mv>
0.61

>  <Mse>
1

>  <Mp>
0.65

>  <Mi>
1.13

>  <NsCH3>
2

>  <NdCH2>
0

>  <NssCH2>
4

>  <NtCH>
0

>  <NdsCH>
2

>  <NaaCH>
2

>  <NsssCH>
2

>  <NddC>
0

>  <NtsC>
0

>  <NdssC>
0

>  <NaasC>
4

>  <NaaaC>
0

>  <NssssC>
1

>  <NsNH3>
0

>  <NsNH2>
0

>  <NssNH2>
0

>  <NdNH>
0

>  <NssNH>
0

>  <NaaNH>
0

>  <NtN>
0

>  <NsssNH>
0

>  <NdsN>
0

>  <NaaN>
0

>  <NsssN>
1

>  <NddsN>
0

>  <NaasN>
0

>  <NssssN>
0

>  <NsOH>
1

>  <NdO>
0

>  <NssO>
2

>  <NaaO>
0

>  <NsF>
0

>  <NsSiH3>
0

>  <NssSiH2>
0

>  <NsssSiH>
0

>  <NssssSi>
0

>  <NsPH2>
0

>  <NssPH>
0

>  <NsssP>
0

>  <NdsssP>
0

>  <NsssssP>
0

>  <NsSH>
0

>  <NdS>
0

>  <NssS>
0

>  <NaaS>
0

>  <NdssS>
0

>  <NddssS>
0

>  <NsCl>
0

>  <NsBr>
0

>  <NsI>
0

>  <fragCpx>
156.04

>  <fMF>
0.4

>  <nHBAcc>
4

>  <nHBDon>
1

>  <Kier1>
14.58

>  <Kier2>
5.27

>  <Lipinski>
1

>  <GhoseFilter>
1

>  <FilterItLogS>
-2.66

>  <VMcGowan>
217.34

>  <LabuteASA>
124.52

>  <PEOE_VSA1>
19.48

>  <PEOE_VSA2>
0

>  <PEOE_VSA3>
0

>  <PEOE_VSA4>
0

>  <PEOE_VSA5>
0

>  <PEOE_VSA6>
18.22

>  <PEOE_VSA7>
31.64

>  <PEOE_VSA8>
18.53

>  <PEOE_VSA9>
18.63

>  <PEOE_VSA10>
6.1

>  <PEOE_VSA11>
11.5

>  <PEOE_VSA12>
0

>  <PEOE_VSA13>
0

>  <SMR_VSA1>
14.58

>  <SMR_VSA2>
0

>  <SMR_VSA3>
4.9

>  <SMR_VSA4>
0

>  <SMR_VSA5>
37.01

>  <SMR_VSA6>
20.7

>  <SMR_VSA7>
35.41

>  <SMR_VSA8>
0

>  <SMR_VSA9>
11.5

>  <SlogP_VSA1>
9.47

>  <SlogP_VSA2>
42.92

>  <SlogP_VSA3>
11.96

>  <SlogP_VSA4>
0

>  <SlogP_VSA5>
23.97

>  <SlogP_VSA6>
24.28

>  <SlogP_VSA7>
0

>  <SlogP_VSA8>
0

>  <SlogP_VSA9>
0

>  <SlogP_VSA10>
0

>  <SlogP_VSA11>
11.5

>  <EState_VSA1>
6.1

>  <EState_VSA2>
11.52

>  <EState_VSA3>
6.42

>  <EState_VSA4>
31.01

>  <EState_VSA5>
11.13

>  <EState_VSA6>
7.11

>  <EState_VSA7>
12.14

>  <EState_VSA8>
24.09

>  <EState_VSA9>
9.47

>  <EState_VSA10>
5.11

>  <VSA_EState1>
11.76

>  <VSA_EState2>
2.35

>  <VSA_EState3>
9.97

>  <VSA_EState4>
2.48

>  <VSA_EState5>
1.68

>  <VSA_EState6>
4.16

>  <VSA_EState7>
5.38

>  <VSA_EState8>
1.96

>  <VSA_EState9>
3.84

>  <apol>
45.9

>  <bpol>
26.25

>  <nRing>
4

>  <nHRing>
2

>  <naRing>
1

>  <naHRing>
0

>  <nARing 2>
3

>  <nAHRing 2>
2

>  <nFRing>
1

>  <nFHRing>
1

>  <nFaRing>
0

>  <nFaHRing>
0

>  <nFARing 2>
1

>  <nFAHRing 2>
1

>  <nRot>
1

>  <SLogP>
1.85

>  <SMR>
79.8

>  <TopoPSA(NO)>
41.93

>  <TopoPSA>
41.93

>  <JGI1>
0.23

>  <JGI2>
0.09

>  <JGI3>
0.06

>  <JGI4>
0.05

>  <JGI5>
0.03

>  <Diameter>
8

>  <Radius>
5

>  <TMWC10>
122.39

>  <TSRW10>
70.88

>  <MW>
287.15

>  <AMW>
6.84

>  <WPath>
766

>  <WPol>
44

>  <Zagreb1>
122

>  <Zagreb2>
153

>  <mZagreb2>
4.5

>  <yes>


>  <nAR-cont>
0.691115

>  <nHA-cont>
0.994529749

>  <MWHBN>
0.295063571

>  <MWHBN-cont>
0.85523237

>  <TPSA-cont>
0.707302563

>  <pka_cont>
0.97

>  <yes.1>


>  <BBB_SCORE>
4.86809843

>  <MMFF94 Energy>
70.655

$$$$
Compound 512
Actelion Java MolfileCreator 2.0

  0  0  0  0  0  0              0 V3000
M  V30 BEGIN CTAB
M  V30 COUNTS 57 60 0 0 0
M  V30 BEGIN ATOM
M  V30 1 S -3.6119 2.0054 4.1746 0
M  V30 2 C -2.9958 1.1794 2.7954 0
M  V30 3 C -2.9182 0.8144 5.1971 0
M  V30 4 C -2.3052 0.0441 3.2183 0
M  V30 5 C -3.1154 1.5102 1.4379 0
M  V30 6 N -2.2675 -0.1523 4.5892 0
M  V30 7 C -3.0767 0.9194 6.673 0
M  V30 8 C -1.7244 -0.7964 2.247 0
M  V30 9 C -2.4987 0.6777 0.4959 0
M  V30 10 C -1.8349 -0.4951 0.8744 0
M  V30 11 O -2.6518 1.0194 -0.8252 0
M  V30 12 C -1.2182 -1.4417 -0.1286 0
M  V30 13 C -1.5071 1.7335 -1.3334 0
M  V30 14 N 0.1955 -1.1512 -0.2991 0
M  V30 15 C -1.3263 1.315 -2.7896 0
M  V30 16 C -1.7636 3.2371 -1.2564 0
M  V30 17 C 0.8661 -1.8963 -1.3807 0
M  V30 18 C 2.3661 -1.4452 -1.518 0
M  V30 19 C 0.8697 -3.4212 -1.1423 0
M  V30 20 N 3.1274 -1.7752 -0.288 0
M  V30 21 C 2.5129 0.0228 -1.9034 0
M  V30 22 C 1.7394 -3.8068 0.0557 0
M  V30 23 C 3.1468 -3.2199 -0.0577 0
M  V30 24 C 2.6404 0.3788 -3.2564 0
M  V30 25 C 2.5024 1.0479 -0.9437 0
M  V30 26 C 2.7649 1.7179 -3.6346 0
M  V30 27 C 2.6243 2.3864 -1.3224 0
M  V30 28 C 2.7574 2.7209 -2.6677 0
M  V30 29 H -3.6653 2.3911 1.1237 0
M  V30 30 H -2.635 1.8485 7.0472 0
M  V30 31 H -4.1345 0.8936 6.954 0
M  V30 32 H -2.5755 0.0836 7.1718 0
M  V30 33 H -1.1964 -1.6854 2.5793 0
M  V30 34 H -1.7528 -1.369 -1.0825 0
M  V30 35 H -1.3718 -2.4662 0.23 0
M  V30 36 H -0.5927 1.4938 -0.7782 0
M  V30 37 H 0.716 -1.2776 0.5688 0
M  V30 38 H -0.4819 1.8345 -3.2517 0
M  V30 39 H -1.1542 0.2373 -2.8644 0
M  V30 40 H -2.229 1.5275 -3.3735 0
M  V30 41 H -0.954 3.8015 -1.73 0
M  V30 42 H -1.8401 3.5672 -0.2156 0
M  V30 43 H -2.7094 3.5002 -1.7427 0
M  V30 44 H 0.3502 -1.6845 -2.3257 0
M  V30 45 H 2.8196 -2.0229 -2.3373 0
M  V30 46 H -0.144 -3.8139 -1.0127 0
M  V30 47 H 1.267 -3.9155 -2.039 0
M  V30 48 H 4.0824 -1.438 -0.4089 0
M  V30 49 H 1.2685 -3.4636 0.9851 0
M  V30 50 H 1.8041 -4.8989 0.1228 0
M  V30 51 H 3.6956 -3.7194 -0.8657 0
M  V30 52 H 3.6948 -3.4229 0.8689 0
M  V30 53 H 2.642 -0.3867 -4.0287 0
M  V30 54 H 2.3842 0.8037 0.1104 0
M  V30 55 H 2.8643 1.9781 -4.6851 0
M  V30 56 H 2.6106 3.165 -0.5645 0
M  V30 57 H 2.8518 3.7626 -2.962 0
M  V30 END ATOM
M  V30 BEGIN BOND
M  V30 1 1 1 2
M  V30 2 1 1 3
M  V30 3 2 2 4
M  V30 4 1 2 5
M  V30 5 2 3 6
M  V30 6 1 3 7
M  V30 7 1 4 8
M  V30 8 2 5 9
M  V30 9 2 8 10
M  V30 10 1 9 11
M  V30 11 1 10 12
M  V30 12 1 11 13
M  V30 13 1 12 14
M  V30 14 1 13 15
M  V30 15 1 13 16
M  V30 16 1 14 17
M  V30 17 1 17 18
M  V30 18 1 17 19
M  V30 19 1 18 20
M  V30 20 1 18 21
M  V30 21 1 19 22
M  V30 22 1 20 23
M  V30 23 2 21 24
M  V30 24 1 21 25
M  V30 25 1 24 26
M  V30 26 2 25 27
M  V30 27 2 26 28
M  V30 28 1 4 6
M  V30 29 1 9 10
M  V30 30 1 22 23
M  V30 31 1 27 28
M  V30 32 1 5 29
M  V30 33 1 7 30
M  V30 34 1 7 31
M  V30 35 1 7 32
M  V30 36 1 8 33
M  V30 37 1 12 34
M  V30 38 1 12 35
M  V30 39 1 13 36
M  V30 40 1 14 37
M  V30 41 1 15 38
M  V30 42 1 15 39
M  V30 43 1 15 40
M  V30 44 1 16 41
M  V30 45 1 16 42
M  V30 46 1 16 43
M  V30 47 1 17 44
M  V30 48 1 18 45
M  V30 49 1 19 46
M  V30 50 1 19 47
M  V30 51 1 20 48
M  V30 52 1 22 49
M  V30 53 1 22 50
M  V30 54 1 23 51
M  V30 55 1 23 52
M  V30 56 1 24 53
M  V30 57 1 25 54
M  V30 58 1 26 55
M  V30 59 1 27 56
M  V30 60 1 28 57
M  V30 END BOND
M  V30 END CTAB
M  END
>  <Column 1>
631

>  <level_0>
720

>  <index>
720

>  <Unnamed: 0>
720

>  <NO.>
732

>  <Name>
-

>  <IUPAC_name>


>  <SMILES>
Cc1nc2cc(CNC3CCCNC3c3ccccc3)c(OC(C)C)cc2s1

>  <CID>


>  <logBB>
0.32

>  <BBB+/BBB->
BBB+

>  <Inchi>
InChI=1S/C23H29N3OS/c1-15(2)27-21-13-22-20(26-16(3)28-22)12-18(21)14-25-19-10-7-11-24-23(19)17-8-5-4-6-9-17/h4-6-8-9-12-13-15-19-23-25H-7-10-11-14H2-1-3H3

>  <threshold>


>  <reference>
R2|R2|R8|R27|R40|R4|R25|R46|R47|

>  <group>
A

>  <Class>
1

>  <ABC>
22.09

>  <ABCGG>
17.14

>  <nAcid>
0

>  <nBase>
2

>  <nAromAtom>
15

>  <nAromBond>
16

>  <nAtom>
57

>  <nHeavyAtom>
28

>  <nSpiro>
0

>  <nBridgehead>
0

>  <nHetero>
5

>  <nN>
3

>  <nO>
1

>  <nF>
0

>  <BalabanJ>
1.36

>  <BertzCT>
922.25

>  <nBonds>
60

>  <nBondsO>
31

>  <nBondsS>
44

>  <nBondsD>
0

>  <nBondsT>
0

>  <nBondsA>
16

>  <nBondsM>
16

>  <nBondsKS>
53

>  <nBondsKD>
7

>  <RNCG>
0.25

>  <RPCG>
0.06

>  <FCSP3>
0.43

>  <SZ>
35.33

>  <Sm>
32.93

>  <Sv>
35.03

>  <Sse>
56.27

>  <Sp>
38.77

>  <Si>
64.02

>  <MZ>
0.62

>  <Mm>
0.58

>  <Mv>
0.61

>  <Mse>
0.99

>  <Mp>
0.68

>  <Mi>
1.12

>  <NsCH3>
3

>  <NdCH2>
0

>  <NssCH2>
4

>  <NtCH>
0

>  <NdsCH>
0

>  <NaaCH>
7

>  <NsssCH>
3

>  <NddC>
0

>  <NtsC>
0

>  <NdssC>
0

>  <NaasC>
4

>  <NaaaC>
2

>  <NssssC>
0

>  <NsNH3>
0

>  <NsNH2>
0

>  <NssNH2>
0

>  <NdNH>
0

>  <NssNH>
2

>  <NaaNH>
0

>  <NtN>
0

>  <NsssNH>
0

>  <NdsN>
0

>  <NaaN>
1

>  <NsssN>
0

>  <NddsN>
0

>  <NaasN>
0

>  <NssssN>
0

>  <NsOH>
0

>  <NdO>
0

>  <NssO>
1

>  <NaaO>
0

>  <NsF>
0

>  <NsSiH3>
0

>  <NssSiH2>
0

>  <NsssSiH>
0

>  <NssssSi>
0

>  <NsPH2>
0

>  <NssPH>
0

>  <NsssP>
0

>  <NdsssP>
0

>  <NsssssP>
0

>  <NsSH>
0

>  <NdS>
0

>  <NssS>
0

>  <NaaS>
1

>  <NdssS>
0

>  <NddssS>
0

>  <NsCl>
0

>  <NsBr>
0

>  <NsI>
0

>  <fragCpx>
205.05

>  <fMF>
0.4

>  <nHBAcc>
5

>  <nHBDon>
2

>  <Kier1>
21.24

>  <Kier2>
9.87

>  <Lipinski>
1

>  <GhoseFilter>
1

>  <FilterItLogS>
-6.74

>  <VMcGowan>
313.55

>  <LabuteASA>
170.89

>  <PEOE_VSA1>
15.37

>  <PEOE_VSA2>
0

>  <PEOE_VSA3>
4.98

>  <PEOE_VSA4>
0

>  <PEOE_VSA5>
11.34

>  <PEOE_VSA6>
30.33

>  <PEOE_VSA7>
57.85

>  <PEOE_VSA8>
24.19

>  <PEOE_VSA9>
21.33

>  <PEOE_VSA10>
5.75

>  <PEOE_VSA11>
0

>  <PEOE_VSA12>
0

>  <PEOE_VSA13>
0

>  <SMR_VSA1>
4.74

>  <SMR_VSA2>
0

>  <SMR_VSA3>
15.62

>  <SMR_VSA4>
0

>  <SMR_VSA5>
58.35

>  <SMR_VSA6>
6.54

>  <SMR_VSA7>
58.6

>  <SMR_VSA8>
0

>  <SMR_VSA9>
5.75

>  <SlogP_VSA1>
15.37

>  <SlogP_VSA2>
23.67

>  <SlogP_VSA3>
6.54

>  <SlogP_VSA4>
6.92

>  <SlogP_VSA5>
48.87

>  <SlogP_VSA6>
42.46

>  <SlogP_VSA7>
0

>  <SlogP_VSA8>
10.22

>  <SlogP_VSA9>
0

>  <SlogP_VSA10>
0

>  <SlogP_VSA11>
5.75

>  <EState_VSA1>
0

>  <EState_VSA2>
6.1

>  <EState_VSA3>
12.08

>  <EState_VSA4>
29.36

>  <EState_VSA5>
28.67

>  <EState_VSA6>
11.34

>  <EState_VSA7>
0

>  <EState_VSA8>
78.85

>  <EState_VSA9>
4.74

>  <EState_VSA10>
0

>  <VSA_EState1>
7.33

>  <VSA_EState2>
4.67

>  <VSA_EState3>
8.6

>  <VSA_EState4>
3.6

>  <VSA_EState5>
0.97

>  <VSA_EState6>
15.85

>  <VSA_EState7>
2.52

>  <VSA_EState8>
8.07

>  <VSA_EState9>
0

>  <apol>
64.75

>  <bpol>
35.57

>  <nRing>
4

>  <nHRing>
2

>  <naRing>
3

>  <naHRing>
1

>  <nARing 2>
1

>  <nAHRing 2>
1

>  <nFRing>
1

>  <nFHRing>
1

>  <nFaRing>
1

>  <nFaHRing>
1

>  <nFARing 2>
0

>  <nFAHRing 2>
0

>  <nRot>
6

>  <SLogP>
4.97

>  <SMR>
117.17

>  <TopoPSA(NO)>
46.18

>  <TopoPSA>
74.42

>  <JGI1>
0.18

>  <JGI2>
0.06

>  <JGI3>
0.05

>  <JGI4>
0.03

>  <JGI5>
0.02

>  <Diameter>
13

>  <Radius>
7

>  <TMWC10>
135.4

>  <TSRW10>
77.27

>  <MW>
395.2

>  <AMW>
6.93

>  <WPath>
2100

>  <WPol>
42

>  <Zagreb1>
148

>  <Zagreb2>
173

>  <mZagreb2>
6.11

>  <yes>


>  <nAR-cont>
0.816016

>  <nHA-cont>
0.82432561

>  <MWHBN>
0.352119091

>  <MWHBN-cont>
0.662306081

>  <TPSA-cont>
0.480502188

>  <pka_cont>
0.97

>  <yes.1>


>  <BBB_SCORE>
4.079805108

>  <MMFF94 Energy>
72.478

$$$$
Compound 513
Actelion Java MolfileCreator 2.0

  0  0  0  0  0  0              0 V3000
M  V30 BEGIN CTAB
M  V30 COUNTS 23 24 0 0 0
M  V30 BEGIN ATOM
M  V30 1 N -0.711 0.9481 -2.6882 0
M  V30 2 C -0.6794 0.5574 -1.3922 0
M  V30 3 C 0.2989 0.5223 -3.4746 0
M  V30 4 C 0.3067 -0.2533 -0.8351 0
M  V30 5 C 1.3398 -0.27 -3.0246 0
M  V30 6 C 1.3429 -0.6559 -1.6869 0
M  V30 7 C 0.3251 -0.6489 0.6226 0 CFG=1
M  V30 8 N 0.9913 0.3868 1.4425 0
M  V30 9 C -1.0456 -0.8994 1.2687 0
M  V30 10 C 0.237 0.4795 2.6954 0
M  V30 11 C -1.195 0.2171 2.2844 0
M  V30 12 H -1.5022 0.9438 -0.7972 0
M  V30 13 H 0.251 0.85 -4.5089 0
M  V30 14 H 2.1334 -0.5761 -3.6965 0
M  V30 15 H 2.1599 -1.2657 -1.3075 0
M  V30 16 H 0.9014 -1.5793 0.7135 0
M  V30 17 H 0.9198 1.2823 0.9568 0
M  V30 18 H -1.8895 -0.9396 0.5739 0
M  V30 19 H -1.0209 -1.8579 1.8041 0
M  V30 20 H 0.5912 -0.2858 3.3956 0
M  V30 21 H 0.3603 1.4581 3.1688 0
M  V30 22 H -1.8283 -0.071 3.1284 0
M  V30 23 H -1.6307 1.1059 1.8126 0
M  V30 END ATOM
M  V30 BEGIN BOND
M  V30 1 2 1 2
M  V30 2 1 1 3
M  V30 3 1 2 4
M  V30 4 2 3 5
M  V30 5 2 4 6
M  V30 6 1 4 7
M  V30 7 1 7 8
M  V30 8 1 7 9
M  V30 9 1 8 10
M  V30 10 1 9 11
M  V30 11 1 5 6
M  V30 12 1 10 11
M  V30 13 1 2 12
M  V30 14 1 3 13
M  V30 15 1 5 14
M  V30 16 1 6 15
M  V30 17 1 7 16
M  V30 18 1 8 17
M  V30 19 1 9 18
M  V30 20 1 9 19
M  V30 21 1 10 20
M  V30 22 1 10 21
M  V30 23 1 11 22
M  V30 24 1 11 23
M  V30 END BOND
M  V30 BEGIN COLLECTION
M  V30 MDLV30/STERAC1 ATOMS=(1 7)
M  V30 END COLLECTION
M  V30 END CTAB
M  END
>  <Column 1>
632

>  <level_0>
721

>  <index>
721

>  <Unnamed: 0>
721

>  <NO.>
733

>  <Name>
494-97-3

>  <IUPAC_name>
3-pyrrolidin-2-ylpyridine

>  <SMILES>
c1cncc(C2CCCN2)c1

>  <CID>
412

>  <logBB>
0.32

>  <BBB+/BBB->
BBB+

>  <Inchi>
InChI=1S/C9H12N2/c1-3-8(7-10-5-1)9-4-2-6-11-9/h1-3-5-7-9-11H-2-4-6H2

>  <threshold>


>  <reference>
R8|R40|R21|R27|R43|R4|

>  <group>
A

>  <Class>
1

>  <ABC>
8.44

>  <ABCGG>
7.76

>  <nAcid>
0

>  <nBase>
1

>  <nAromAtom>
6

>  <nAromBond>
6

>  <nAtom>
23

>  <nHeavyAtom>
11

>  <nSpiro>
0

>  <nBridgehead>
0

>  <nHetero>
2

>  <nN>
2

>  <nO>
0

>  <nF>
0

>  <BalabanJ>
1.82

>  <BertzCT>
214.26

>  <nBonds>
24

>  <nBondsO>
12

>  <nBondsS>
18

>  <nBondsD>
0

>  <nBondsT>
0

>  <nBondsA>
6

>  <nBondsM>
6

>  <nBondsKS>
21

>  <nBondsKD>
3

>  <RNCG>
0.41

>  <RPCG>
0.16

>  <FCSP3>
0.44

>  <SZ>
13.33

>  <Sm>
12.34

>  <Sv>
13.77

>  <Sse>
22.65

>  <Sp>
15.11

>  <Si>
26.07

>  <MZ>
0.58

>  <Mm>
0.54

>  <Mv>
0.6

>  <Mse>
0.98

>  <Mp>
0.66

>  <Mi>
1.13

>  <NsCH3>
0

>  <NdCH2>
0

>  <NssCH2>
3

>  <NtCH>
0

>  <NdsCH>
0

>  <NaaCH>
4

>  <NsssCH>
1

>  <NddC>
0

>  <NtsC>
0

>  <NdssC>
0

>  <NaasC>
1

>  <NaaaC>
0

>  <NssssC>
0

>  <NsNH3>
0

>  <NsNH2>
0

>  <NssNH2>
0

>  <NdNH>
0

>  <NssNH>
1

>  <NaaNH>
0

>  <NtN>
0

>  <NsssNH>
0

>  <NdsN>
0

>  <NaaN>
1

>  <NsssN>
0

>  <NddsN>
0

>  <NaasN>
0

>  <NssssN>
0

>  <NsOH>
0

>  <NdO>
0

>  <NssO>
0

>  <NaaO>
0

>  <NsF>
0

>  <NsSiH3>
0

>  <NssSiH2>
0

>  <NsssSiH>
0

>  <NssssSi>
0

>  <NsPH2>
0

>  <NssPH>
0

>  <NsssP>
0

>  <NdsssP>
0

>  <NsssssP>
0

>  <NsSH>
0

>  <NdS>
0

>  <NssS>
0

>  <NaaS>
0

>  <NdssS>
0

>  <NddssS>
0

>  <NsCl>
0

>  <NsBr>
0

>  <NsI>
0

>  <fragCpx>
34.02

>  <fMF>
0.48

>  <nHBAcc>
2

>  <nHBDon>
1

>  <Kier1>
7.64

>  <Kier2>
3.6

>  <Lipinski>
1

>  <GhoseFilter>
0

>  <FilterItLogS>
-2.33

>  <VMcGowan>
123.01

>  <LabuteASA>
66.65

>  <PEOE_VSA1>
5.32

>  <PEOE_VSA2>
4.98

>  <PEOE_VSA3>
0

>  <PEOE_VSA4>
0

>  <PEOE_VSA5>
0

>  <PEOE_VSA6>
6.07

>  <PEOE_VSA7>
31.02

>  <PEOE_VSA8>
18.44

>  <PEOE_VSA9>
0

>  <PEOE_VSA10>
0

>  <PEOE_VSA11>
0

>  <PEOE_VSA12>
0

>  <PEOE_VSA13>
0

>  <SMR_VSA1>
0

>  <SMR_VSA2>
0

>  <SMR_VSA3>
10.3

>  <SMR_VSA4>
0

>  <SMR_VSA5>
18.88

>  <SMR_VSA6>
6.54

>  <SMR_VSA7>
30.09

>  <SMR_VSA8>
0

>  <SMR_VSA9>
0

>  <SlogP_VSA1>
5.32

>  <SlogP_VSA2>
11.53

>  <SlogP_VSA3>
0

>  <SlogP_VSA4>
0

>  <SlogP_VSA5>
24.45

>  <SlogP_VSA6>
24.53

>  <SlogP_VSA7>
0

>  <SlogP_VSA8>
0

>  <SlogP_VSA9>
0

>  <SlogP_VSA10>
0

>  <SlogP_VSA11>
0

>  <EState_VSA1>
0

>  <EState_VSA2>
0

>  <EState_VSA3>
6.04

>  <EState_VSA4>
6.54

>  <EState_VSA5>
18.41

>  <EState_VSA6>
0

>  <EState_VSA7>
18.46

>  <EState_VSA8>
16.37

>  <EState_VSA9>
0

>  <EState_VSA10>
0

>  <VSA_EState1>
0

>  <VSA_EState2>
4.09

>  <VSA_EState3>
3.43

>  <VSA_EState4>
1.32

>  <VSA_EState5>
0

>  <VSA_EState6>
4.69

>  <VSA_EState7>
6.31

>  <VSA_EState8>
1.15

>  <VSA_EState9>
0

>  <apol>
25.23

>  <bpol>
13.75

>  <nRing>
2

>  <nHRing>
2

>  <naRing>
1

>  <naHRing>
1

>  <nARing 2>
1

>  <nAHRing 2>
1

>  <nFRing>
0

>  <nFHRing>
0

>  <nFaRing>
0

>  <nFaHRing>
0

>  <nFARing 2>
0

>  <nFAHRing 2>
0

>  <nRot>
1

>  <SLogP>
1.51

>  <SMR>
44.21

>  <TopoPSA(NO)>
24.92

>  <TopoPSA>
24.92

>  <JGI1>
0.08

>  <JGI2>
0.06

>  <JGI3>
0.02

>  <JGI4>
0.01

>  <JGI5>
0.02

>  <Diameter>
6

>  <Radius>
3

>  <TMWC10>
88.58

>  <TSRW10>
54.01

>  <MW>
148.1

>  <AMW>
6.44

>  <WPath>
153

>  <WPol>
11

>  <Zagreb1>
54

>  <Zagreb2>
61

>  <mZagreb2>
2.53

>  <yes>


>  <nAR-cont>
0.816016

>  <nHA-cont>
0.720786536

>  <MWHBN>
0.246515213

>  <MWHBN-cont>
0.965441948

>  <TPSA-cont>
0.826042926

>  <pka_cont>
0.97

>  <yes.1>


>  <BBB_SCORE>
5.122051309

>  <MMFF94 Energy>
19.128

$$$$
Compound 514
Actelion Java MolfileCreator 2.0

  0  0  0  0  0  0              0 V3000
M  V30 BEGIN CTAB
M  V30 COUNTS 43 47 0 0 0
M  V30 BEGIN ATOM
M  V30 1 O -3.8189 1.2988 0.4057 0
M  V30 2 C -2.9185 0.5494 0.7906 0
M  V30 3 C -1.5581 1.0728 1.2884 0 CFG=2
M  V30 4 C -3.1739 -0.9378 0.9015 0
M  V30 5 O -1.1926 2.282 0.5577 0
M  V30 6 C -0.4062 0.0726 1.1088 0 CFG=2
M  V30 7 C -2.0168 -1.7357 0.3175 0
M  V30 8 C -0.4208 1.8102 -0.4821 0
M  V30 9 C 0.0061 0.5164 -0.2507 0
M  V30 10 C -0.7312 -1.4241 1.0901 0 CFG=1
M  V30 11 C 0.748 0.3155 2.1048 0
M  V30 12 C -0.1027 2.4653 -1.6564 0
M  V30 13 C 0.6777 -0.2423 -1.1882 0
M  V30 14 C 0.5342 -2.1572 0.5534 0 CFG=1
M  V30 15 C 1.9639 -0.5788 1.816 0
M  V30 16 O -0.5383 3.7508 -1.7819 0
M  V30 17 C 0.6272 1.7379 -2.6111 0
M  V30 18 C 0.9984 0.39 -2.3878 0
M  V30 19 C 0.9278 -1.6996 -0.8985 0
M  V30 20 N 1.5816 -1.9787 1.5913 0
M  V30 21 C -0.2903 4.399 -3.0208 0
M  V30 22 C 2.7583 -2.8155 1.3708 0
M  V30 23 H -1.693 1.3365 2.3444 0
M  V30 24 H -4.093 -1.1773 0.3556 0
M  V30 25 H -3.3351 -1.1817 1.9572 0
M  V30 26 H -2.2391 -2.8066 0.3919 0
M  V30 27 H -1.9147 -1.5072 -0.749 0
M  V30 28 H -0.9127 -1.7579 2.124 0
M  V30 29 H 0.3884 0.1068 3.1217 0
M  V30 30 H 1.0719 1.3643 2.1 0
M  V30 31 H 0.3047 -3.2304 0.5097 0
M  V30 32 H 2.527 -0.1823 0.9621 0
M  V30 33 H 2.6358 -0.5171 2.6815 0
M  V30 34 H 0.9085 2.1831 -3.5608 0
M  V30 35 H 1.5267 -0.151 -3.1697 0
M  V30 36 H 1.9707 -1.9453 -1.1217 0
M  V30 37 H 0.3153 -2.2783 -1.6028 0
M  V30 38 H 0.7842 4.5141 -3.197 0
M  V30 39 H -0.7277 5.4008 -2.9685 0
M  V30 40 H -0.7719 3.8685 -3.849 0
M  V30 41 H 3.4102 -2.7899 2.2514 0
M  V30 42 H 3.3507 -2.4977 0.507 0
M  V30 43 H 2.4704 -3.8628 1.2286 0
M  V30 END ATOM
M  V30 BEGIN BOND
M  V30 1 2 1 2
M  V30 2 1 2 3
M  V30 3 1 2 4
M  V30 4 1 3 5
M  V30 5 1 3 6
M  V30 6 1 4 7
M  V30 7 1 5 8
M  V30 8 1 6 9
M  V30 9 1 6 10
M  V30 10 1 6 11
M  V30 11 1 8 12
M  V30 12 1 9 13
M  V30 13 1 10 14
M  V30 14 1 11 15
M  V30 15 1 12 16
M  V30 16 2 12 17
M  V30 17 2 13 18
M  V30 18 1 13 19
M  V30 19 1 14 20
M  V30 20 1 16 21
M  V30 21 1 20 22
M  V30 22 1 7 10
M  V30 23 2 8 9
M  V30 24 1 14 19
M  V30 25 1 15 20
M  V30 26 1 17 18
M  V30 27 1 3 23
M  V30 28 1 4 24
M  V30 29 1 4 25
M  V30 30 1 7 26
M  V30 31 1 7 27
M  V30 32 1 10 28
M  V30 33 1 11 29
M  V30 34 1 11 30
M  V30 35 1 14 31
M  V30 36 1 15 32
M  V30 37 1 15 33
M  V30 38 1 17 34
M  V30 39 1 18 35
M  V30 40 1 19 36
M  V30 41 1 19 37
M  V30 42 1 21 38
M  V30 43 1 21 39
M  V30 44 1 21 40
M  V30 45 1 22 41
M  V30 46 1 22 42
M  V30 47 1 22 43
M  V30 END BOND
M  V30 BEGIN COLLECTION
M  V30 MDLV30/STEABS ATOMS=(4 3 6 10 14)
M  V30 END COLLECTION
M  V30 END CTAB
M  END
>  <Column 1>
633

>  <level_0>
722

>  <index>
722

>  <Unnamed: 0>
722

>  <NO.>
734

>  <Name>
hydrocodone

>  <IUPAC_name>
(4r-4ar-7ar-12bs)-9-methoxy-3-methyl-1-2-4-4a-5-6-7a-13-octahydro-4-12-methanobenzofuro[3-2-e]isoquinolin-7-one

>  <SMILES>
COc1ccc2c3c1O[C@H]1C(=O)CC[C@H]4[C@@H](C2)N(C)CC[C@]314

>  <CID>
5284569

>  <logBB>
0.32

>  <BBB+/BBB->
BBB+

>  <Inchi>
InChI=1S/C18H21NO3/c1-19-8-7-18-11-4-5-13(20)17(18)22-16-14(21-2)6-3-10(15(16)18)9-12(11)19/h3-6-11-12-17H-4-5-7-9H2-1-2H3/t11--12+-17--18-/m0/s1

>  <threshold>


>  <reference>
R18|R26|R27|

>  <group>
A

>  <Class>
1

>  <ABC>
18.18

>  <ABCGG>
13.97

>  <nAcid>
0

>  <nBase>
1

>  <nAromAtom>
6

>  <nAromBond>
6

>  <nAtom>
43

>  <nHeavyAtom>
22

>  <nSpiro>
1

>  <nBridgehead>
2

>  <nHetero>
4

>  <nN>
1

>  <nO>
3

>  <nF>
0

>  <BalabanJ>
1.63

>  <BertzCT>
685.16

>  <nBonds>
47

>  <nBondsO>
26

>  <nBondsS>
40

>  <nBondsD>
1

>  <nBondsT>
0

>  <nBondsA>
6

>  <nBondsM>
7

>  <nBondsKS>
43

>  <nBondsKD>
4

>  <RNCG>
0.28

>  <RPCG>
0.1

>  <FCSP3>
0.61

>  <SZ>
26.67

>  <Sm>
24.92

>  <Sv>
26.59

>  <Sse>
42.98

>  <Sp>
28.48

>  <Si>
48.28

>  <MZ>
0.62

>  <Mm>
0.58

>  <Mv>
0.62

>  <Mse>
1

>  <Mp>
0.66

>  <Mi>
1.12

>  <NsCH3>
2

>  <NdCH2>
0

>  <NssCH2>
5

>  <NtCH>
0

>  <NdsCH>
0

>  <NaaCH>
2

>  <NsssCH>
3

>  <NddC>
0

>  <NtsC>
0

>  <NdssC>
1

>  <NaasC>
4

>  <NaaaC>
0

>  <NssssC>
1

>  <NsNH3>
0

>  <NsNH2>
0

>  <NssNH2>
0

>  <NdNH>
0

>  <NssNH>
0

>  <NaaNH>
0

>  <NtN>
0

>  <NsssNH>
0

>  <NdsN>
0

>  <NaaN>
0

>  <NsssN>
1

>  <NddsN>
0

>  <NaasN>
0

>  <NssssN>
0

>  <NsOH>
0

>  <NdO>
1

>  <NssO>
2

>  <NaaO>
0

>  <NsF>
0

>  <NsSiH3>
0

>  <NssSiH2>
0

>  <NsssSiH>
0

>  <NssssSi>
0

>  <NsPH2>
0

>  <NssPH>
0

>  <NsssP>
0

>  <NdsssP>
0

>  <NsssssP>
0

>  <NsSH>
0

>  <NdS>
0

>  <NssS>
0

>  <NaaS>
0

>  <NdssS>
0

>  <NddssS>
0

>  <NsCl>
0

>  <NsBr>
0

>  <NsI>
0

>  <fragCpx>
214.04

>  <fMF>
0.42

>  <nHBAcc>
4

>  <nHBDon>
0

>  <Kier1>
14.35

>  <Kier2>
4.76

>  <Lipinski>
1

>  <GhoseFilter>
1

>  <FilterItLogS>
-3.62

>  <VMcGowan>
220.57

>  <LabuteASA>
129.94

>  <PEOE_VSA1>
14.37

>  <PEOE_VSA2>
4.79

>  <PEOE_VSA3>
0

>  <PEOE_VSA4>
0

>  <PEOE_VSA5>
0

>  <PEOE_VSA6>
6.07

>  <PEOE_VSA7>
50.4

>  <PEOE_VSA8>
23.44

>  <PEOE_VSA9>
7.11

>  <PEOE_VSA10>
0

>  <PEOE_VSA11>
23.39

>  <PEOE_VSA12>
0

>  <PEOE_VSA13>
0

>  <SMR_VSA1>
14.27

>  <SMR_VSA2>
0

>  <SMR_VSA3>
4.9

>  <SMR_VSA4>
5.92

>  <SMR_VSA5>
43.24

>  <SMR_VSA6>
20.7

>  <SMR_VSA7>
23.26

>  <SMR_VSA8>
0

>  <SMR_VSA9>
11.5

>  <SlogP_VSA1>
9.47

>  <SlogP_VSA2>
43.53

>  <SlogP_VSA3>
16.63

>  <SlogP_VSA4>
5.92

>  <SlogP_VSA5>
30.39

>  <SlogP_VSA6>
12.13

>  <SlogP_VSA7>
0

>  <SlogP_VSA8>
0

>  <SlogP_VSA9>
0

>  <SlogP_VSA10>
0

>  <SlogP_VSA11>
11.5

>  <EState_VSA1>
0

>  <EState_VSA2>
17.3

>  <EState_VSA3>
18.38

>  <EState_VSA4>
37.31

>  <EState_VSA5>
11.13

>  <EState_VSA6>
7.11

>  <EState_VSA7>
6.07

>  <EState_VSA8>
18.01

>  <EState_VSA9>
9.47

>  <EState_VSA10>
4.79

>  <VSA_EState1>
11.78

>  <VSA_EState2>
15.12

>  <VSA_EState3>
0

>  <VSA_EState4>
2.57

>  <VSA_EState5>
2.46

>  <VSA_EState6>
4.73

>  <VSA_EState7>
3.47

>  <VSA_EState8>
1.05

>  <VSA_EState9>
3.91

>  <apol>
47.57

>  <bpol>
27.12

>  <nRing>
5

>  <nHRing>
2

>  <naRing>
1

>  <naHRing>
0

>  <nARing 2>
4

>  <nAHRing 2>
2

>  <nFRing>
1

>  <nFHRing>
1

>  <nFaRing>
0

>  <nFaHRing>
0

>  <nFARing 2>
1

>  <nFAHRing 2>
1

>  <nRot>
1

>  <SLogP>
1.93

>  <SMR>
81.56

>  <TopoPSA(NO)>
38.77

>  <TopoPSA>
38.77

>  <JGI1>
0.19

>  <JGI2>
0.1

>  <JGI3>
0.05

>  <JGI4>
0.05

>  <JGI5>
0.03

>  <Diameter>
9

>  <Radius>
5

>  <TMWC10>
127.61

>  <TSRW10>
72.65

>  <MW>
299.15

>  <AMW>
6.96

>  <WPath>
824

>  <WPol>
51

>  <Zagreb1>
136

>  <Zagreb2>
178

>  <mZagreb2>
4.63

>  <yes>


>  <nAR-cont>
0.199399

>  <nHA-cont>
0.983774276

>  <MWHBN>
0.23126797

>  <MWHBN-cont>
0.985469764

>  <TPSA-cont>
0.729361325

>  <pka_cont>
0.97

>  <yes.1>


>  <BBB_SCORE>
4.605100572

>  <MMFF94 Energy>
94.123

$$$$
Compound 515
Actelion Java MolfileCreator 2.0

  0  0  0  0  0  0              0 V3000
M  V30 BEGIN CTAB
M  V30 COUNTS 53 57 0 0 0
M  V30 BEGIN ATOM
M  V30 1 F -7.0537 -2.1601 -2.0801 0
M  V30 2 C -6.0183 -1.7431 -1.3398 0
M  V30 3 C -4.8593 -1.3062 -1.9677 0
M  V30 4 C -6.1217 -1.7491 0.0457 0
M  V30 5 C -3.7815 -0.869 -1.1964 0
M  V30 6 C -5.0451 -1.3134 0.8202 0
M  V30 7 C -3.8584 -0.8773 0.2074 0
M  V30 8 C -2.7008 -0.3859 1.0493 0
M  V30 9 N -1.4695 -1.1126 0.7864 0
M  V30 10 C -0.3673 -0.652 0.0938 0
M  V30 11 C -1.2318 -2.4254 1.1399 0
M  V30 12 N 0.4856 -1.6268 -0.121 0
M  V30 13 N -0.2523 0.6293 -0.3487 0
M  V30 14 C -0.0094 -2.7161 0.5444 0
M  V30 15 C -1.9557 -3.3715 1.8772 0
M  V30 16 C 0.4234 0.8293 -1.635 0
M  V30 17 C -0.0674 1.7023 0.6322 0
M  V30 18 C 0.5375 -4.0007 0.6798 0
M  V30 19 C -1.3931 -4.6469 2.0047 0
M  V30 20 C 1.9159 1.0778 -1.4396 0
M  V30 21 C 1.4166 1.9642 0.8708 0
M  V30 22 C -0.1665 -4.9597 1.4171 0
M  V30 23 C 2.1279 2.236 -0.4603 0
M  V30 24 N 3.5417 2.5449 -0.2885 0
M  V30 25 N 4.336 1.7474 0.4472 0
M  V30 26 C 4.2058 3.6165 -0.8195 0
M  V30 27 C 5.5336 2.3296 0.3702 0
M  V30 28 C 5.5174 3.5082 -0.4078 0
M  V30 29 C 6.653 4.4056 -0.7112 0
M  V30 30 H -4.7998 -1.3101 -3.0512 0
M  V30 31 H -7.0393 -2.0927 0.5126 0
M  V30 32 H -2.8764 -0.5285 -1.6974 0
M  V30 33 H -5.1394 -1.3207 1.9039 0
M  V30 34 H -2.9081 -0.4937 2.1206 0
M  V30 35 H -2.5592 0.6801 0.8557 0
M  V30 36 H -2.9133 -3.1401 2.3292 0
M  V30 37 H 0.2648 -0.0226 -2.3083 0
M  V30 38 H -0.0294 1.6964 -2.1325 0
M  V30 39 H -0.5491 2.6122 0.2534 0
M  V30 40 H -0.5477 1.4706 1.5901 0
M  V30 41 H 1.4905 -4.2339 0.2187 0
M  V30 42 H -1.9248 -5.4103 2.5691 0
M  V30 43 H 2.3792 1.3061 -2.4071 0
M  V30 44 H 2.4046 0.17 -1.0642 0
M  V30 45 H 1.536 2.8188 1.5477 0
M  V30 46 H 1.8637 1.0969 1.3735 0
M  V30 47 H 0.2485 -5.9582 1.5291 0
M  V30 48 H 1.6825 3.1406 -0.8986 0
M  V30 49 H 3.7043 4.3487 -1.4365 0
M  V30 50 H 6.3699 1.8726 0.8837 0
M  V30 51 H 7.2245 4.6259 0.1961 0
M  V30 52 H 6.3066 5.3557 -1.1304 0
M  V30 53 H 7.3251 3.9369 -1.4368 0
M  V30 END ATOM
M  V30 BEGIN BOND
M  V30 1 1 1 2
M  V30 2 2 2 3
M  V30 3 1 2 4
M  V30 4 1 3 5
M  V30 5 2 4 6
M  V30 6 2 5 7
M  V30 7 1 7 8
M  V30 8 1 8 9
M  V30 9 1 9 10
M  V30 10 1 9 11
M  V30 11 2 10 12
M  V30 12 1 10 13
M  V30 13 2 11 14
M  V30 14 1 11 15
M  V30 15 1 13 16
M  V30 16 1 13 17
M  V30 17 1 14 18
M  V30 18 2 15 19
M  V30 19 1 16 20
M  V30 20 1 17 21
M  V30 21 2 18 22
M  V30 22 1 20 23
M  V30 23 1 23 24
M  V30 24 1 24 25
M  V30 25 1 24 26
M  V30 26 2 25 27
M  V30 27 2 26 28
M  V30 28 1 28 29
M  V30 29 1 6 7
M  V30 30 1 12 14
M  V30 31 1 19 22
M  V30 32 1 21 23
M  V30 33 1 27 28
M  V30 34 1 3 30
M  V30 35 1 4 31
M  V30 36 1 5 32
M  V30 37 1 6 33
M  V30 38 1 8 34
M  V30 39 1 8 35
M  V30 40 1 15 36
M  V30 41 1 16 37
M  V30 42 1 16 38
M  V30 43 1 17 39
M  V30 44 1 17 40
M  V30 45 1 18 41
M  V30 46 1 19 42
M  V30 47 1 20 43
M  V30 48 1 20 44
M  V30 49 1 21 45
M  V30 50 1 21 46
M  V30 51 1 22 47
M  V30 52 1 23 48
M  V30 53 1 26 49
M  V30 54 1 27 50
M  V30 55 1 29 51
M  V30 56 1 29 52
M  V30 57 1 29 53
M  V30 END BOND
M  V30 END CTAB
M  END
>  <Column 1>
634

>  <level_0>
723

>  <index>
723

>  <Unnamed: 0>
723

>  <NO.>
735

>  <Name>
antihistamine-1

>  <IUPAC_name>
1-[(4-fluorophenyl)methyl]-2-[4-(4-methylpyrazol-1-yl)piperidin-1-yl]benzimidazole

>  <SMILES>
Cc1cnn(C2CCN(c3nc4ccccc4n3Cc3ccc(F)cc3)CC2)c1

>  <CID>
45272895

>  <logBB>
0.32

>  <BBB+/BBB->
BBB+

>  <Inchi>
InChI=1S/C23H24FN5/c1-17-14-25-29(15-17)20-10-12-27(13-11-20)23-26-21-4-2-3-5-22(21)28(23)16-18-6-8-19(24)9-7-18/h2-9-14-15-20H-10-13-16H2-1H3

>  <threshold>


>  <reference>
R2|R2|R25|R46|

>  <group>
A

>  <Class>
1

>  <ABC>
23.35

>  <ABCGG>
17.45

>  <nAcid>
0

>  <nBase>
0

>  <nAromAtom>
20

>  <nAromBond>
21

>  <nAtom>
53

>  <nHeavyAtom>
29

>  <nSpiro>
0

>  <nBridgehead>
0

>  <nHetero>
6

>  <nN>
5

>  <nO>
0

>  <nF>
1

>  <BalabanJ>
1.21

>  <BertzCT>
1119.85

>  <nBonds>
57

>  <nBondsO>
33

>  <nBondsS>
36

>  <nBondsD>
0

>  <nBondsT>
0

>  <nBondsA>
21

>  <nBondsM>
21

>  <nBondsKS>
48

>  <nBondsKD>
9

>  <RNCG>
0.17

>  <RPCG>
0.1

>  <FCSP3>
0.3

>  <SZ>
34.33

>  <Sm>
32.43

>  <Sv>
33.94

>  <Sse>
52.93

>  <Sp>
36.21

>  <Si>
59.98

>  <MZ>
0.65

>  <Mm>
0.61

>  <Mv>
0.64

>  <Mse>
1

>  <Mp>
0.68

>  <Mi>
1.13

>  <NsCH3>
1

>  <NdCH2>
0

>  <NssCH2>
5

>  <NtCH>
0

>  <NdsCH>
0

>  <NaaCH>
10

>  <NsssCH>
1

>  <NddC>
0

>  <NtsC>
0

>  <NdssC>
0

>  <NaasC>
4

>  <NaaaC>
2

>  <NssssC>
0

>  <NsNH3>
0

>  <NsNH2>
0

>  <NssNH2>
0

>  <NdNH>
0

>  <NssNH>
0

>  <NaaNH>
0

>  <NtN>
0

>  <NsssNH>
0

>  <NdsN>
0

>  <NaaN>
2

>  <NsssN>
1

>  <NddsN>
0

>  <NaasN>
2

>  <NssssN>
0

>  <NsOH>
0

>  <NdO>
0

>  <NssO>
0

>  <NaaO>
0

>  <NsF>
1

>  <NsSiH3>
0

>  <NssSiH2>
0

>  <NsssSiH>
0

>  <NssssSi>
0

>  <NsPH2>
0

>  <NssPH>
0

>  <NsssP>
0

>  <NdsssP>
0

>  <NsssssP>
0

>  <NsSH>
0

>  <NdS>
0

>  <NssS>
0

>  <NaaS>
0

>  <NdssS>
0

>  <NddssS>
0

>  <NsCl>
0

>  <NsBr>
0

>  <NsI>
0

>  <fragCpx>
277.06

>  <fMF>
0.51

>  <nHBAcc>
5

>  <nHBDon>
0

>  <Kier1>
20.88

>  <Kier2>
9.24

>  <Lipinski>
1

>  <GhoseFilter>
1

>  <FilterItLogS>
-5.11

>  <VMcGowan>
293.59

>  <LabuteASA>
168.95

>  <PEOE_VSA1>
9.47

>  <PEOE_VSA2>
4.68

>  <PEOE_VSA3>
9.37

>  <PEOE_VSA4>
5.1

>  <PEOE_VSA5>
0

>  <PEOE_VSA6>
24.27

>  <PEOE_VSA7>
55.16

>  <PEOE_VSA8>
19.29

>  <PEOE_VSA9>
29.82

>  <PEOE_VSA10>
5.82

>  <PEOE_VSA11>
0

>  <PEOE_VSA12>
5.95

>  <PEOE_VSA13>
0

>  <SMR_VSA1>
4.39

>  <SMR_VSA2>
0

>  <SMR_VSA3>
19.33

>  <SMR_VSA4>
0

>  <SMR_VSA5>
32.35

>  <SMR_VSA6>
17.99

>  <SMR_VSA7>
77.87

>  <SMR_VSA8>
0

>  <SMR_VSA9>
0

>  <SlogP_VSA1>
4.9

>  <SlogP_VSA2>
32.42

>  <SlogP_VSA3>
6.54

>  <SlogP_VSA4>
12.74

>  <SlogP_VSA5>
30.01

>  <SlogP_VSA6>
60.92

>  <SlogP_VSA7>
0

>  <SlogP_VSA8>
11.03

>  <SlogP_VSA9>
0

>  <SlogP_VSA10>
10.34

>  <SlogP_VSA11>
0

>  <EState_VSA1>
0

>  <EState_VSA2>
5.82

>  <EState_VSA3>
12.59

>  <EState_VSA4>
48.48

>  <EState_VSA5>
17.7

>  <EState_VSA6>
0

>  <EState_VSA7>
30.46

>  <EState_VSA8>
44.5

>  <EState_VSA9>
4.98

>  <EState_VSA10>
4.39

>  <VSA_EState1>
17.69

>  <VSA_EState2>
7.32

>  <VSA_EState3>
4.5

>  <VSA_EState4>
4.37

>  <VSA_EState5>
0.78

>  <VSA_EState6>
15.4

>  <VSA_EState7>
6.14

>  <VSA_EState8>
4.64

>  <VSA_EState9>
0

>  <apol>
60.47

>  <bpol>
31.46

>  <nRing>
5

>  <nHRing>
3

>  <naRing>
4

>  <naHRing>
2

>  <nARing 2>
1

>  <nAHRing 2>
1

>  <nFRing>
1

>  <nFHRing>
1

>  <nFaRing>
1

>  <nFaHRing>
1

>  <nFARing 2>
0

>  <nFAHRing 2>
0

>  <nRot>
4

>  <SLogP>
4.57

>  <SMR>
112.68

>  <TopoPSA(NO)>
38.88

>  <TopoPSA>
38.88

>  <JGI1>
0.17

>  <JGI2>
0.07

>  <JGI3>
0.04

>  <JGI4>
0.04

>  <JGI5>
0.03

>  <Diameter>
15

>  <Radius>
8

>  <TMWC10>
139.69

>  <TSRW10>
80.79

>  <MW>
389.2

>  <AMW>
7.34

>  <WPath>
2324

>  <WPol>
45

>  <Zagreb1>
160

>  <Zagreb2>
191

>  <mZagreb2>
6.22

>  <yes>


>  <nAR-cont>
0.816016

>  <nHA-cont>
0.785905698

>  <MWHBN>
0.253444919

>  <MWHBN-cont>
0.953798596

>  <TPSA-cont>
0.728593457

>  <pka_cont>
0.97

>  <yes.1>


>  <BBB_SCORE>
4.974806506

>  <MMFF94 Energy>
18.217

$$$$
Compound 516
Actelion Java MolfileCreator 2.0

  0  0  0  0  0  0              0 V3000
M  V30 BEGIN CTAB
M  V30 COUNTS 32 34 0 0 0
M  V30 BEGIN ATOM
M  V30 1 O -4.8523 1.2114 1.1306 0
M  V30 2 N -3.6553 1.0548 1.4077 0 CHG=1
M  V30 3 O -3.1921 1.0461 2.5561 0 CHG=-1
M  V30 4 C -2.7177 0.8619 0.2934 0
M  V30 5 C -1.3525 0.6898 0.555 0
M  V30 6 C -3.1976 0.8423 -1.0205 0
M  V30 7 C -0.4562 0.4956 -0.5102 0
M  V30 8 C -2.3006 0.6713 -2.0778 0
M  V30 9 C 0.9796 0.2311 -0.1894 0
M  V30 10 C -0.9283 0.5232 -1.8336 0
M  V30 11 N 1.979 0.7697 -0.8033 0
M  V30 12 C 1.2987 -0.7231 0.9196 0
M  V30 13 N -0.1019 0.4018 -2.9577 0
M  V30 14 C 1.7386 1.6853 -1.9169 0
M  V30 15 C 2.3824 -0.4471 1.7616 0
M  V30 16 C 0.5521 -1.8934 1.1069 0
M  V30 17 C 1.1602 0.9215 -3.0974 0
M  V30 18 C 2.6977 -1.3196 2.8041 0
M  V30 19 C 0.8716 -2.7632 2.1516 0
M  V30 20 O 1.7467 0.8051 -4.1735 0
M  V30 21 C 1.9396 -2.4736 3.0011 0
M  V30 22 H -0.9832 0.7048 1.5797 0
M  V30 23 H -4.2569 0.9693 -1.2393 0
M  V30 24 H -2.683 0.6811 -3.0974 0
M  V30 25 H -0.4656 -0.0143 -3.8064 0
M  V30 26 H 2.6965 2.1166 -2.2269 0
M  V30 27 H 1.0875 2.521 -1.6365 0
M  V30 28 H 2.9836 0.4462 1.6069 0
M  V30 29 H -0.2644 -2.1525 0.4392 0
M  V30 30 H 3.5386 -1.1016 3.4579 0
M  V30 31 H 0.2947 -3.6731 2.2988 0
M  V30 32 H 2.1897 -3.1543 3.8115 0
M  V30 END ATOM
M  V30 BEGIN BOND
M  V30 1 2 1 2
M  V30 2 1 2 3
M  V30 3 1 2 4
M  V30 4 2 4 5
M  V30 5 1 4 6
M  V30 6 1 5 7
M  V30 7 2 6 8
M  V30 8 1 7 9
M  V30 9 2 7 10
M  V30 10 2 9 11
M  V30 11 1 9 12
M  V30 12 1 10 13
M  V30 13 1 11 14
M  V30 14 2 12 15
M  V30 15 1 12 16
M  V30 16 1 13 17
M  V30 17 1 15 18
M  V30 18 2 16 19
M  V30 19 2 17 20
M  V30 20 2 18 21
M  V30 21 1 8 10
M  V30 22 1 14 17
M  V30 23 1 19 21
M  V30 24 1 5 22
M  V30 25 1 6 23
M  V30 26 1 8 24
M  V30 27 1 13 25
M  V30 28 1 14 26
M  V30 29 1 14 27
M  V30 30 1 15 28
M  V30 31 1 16 29
M  V30 32 1 18 30
M  V30 33 1 19 31
M  V30 34 1 21 32
M  V30 END BOND
M  V30 END CTAB
M  END
>  <Column 1>
635

>  <level_0>
724

>  <index>
724

>  <Unnamed: 0>
724

>  <NO.>
736

>  <Name>
nitrazepam

>  <IUPAC_name>
7-nitro-5-phenyl-1-3-dihydro-1-4-benzodiazepin-2-one

>  <SMILES>
O=C1CN=C(c2ccccc2)c2cc([N+](=O)[O-])ccc2N1

>  <CID>
4506

>  <logBB>
0.32

>  <BBB+/BBB->
BBB+

>  <Inchi>
InChI=1S/C15H11N3O3/c19-14-9-16-15(10-4-2-1-3-5-10)12-8-11(18(20)21)6-7-13(12)17-14/h1-8H-9H2-(H-17-19)

>  <threshold>


>  <reference>
R47|

>  <group>
A

>  <Class>
1

>  <ABC>
16.43

>  <ABCGG>
13.37

>  <nAcid>
0

>  <nBase>
0

>  <nAromAtom>
12

>  <nAromBond>
12

>  <nAtom>
32

>  <nHeavyAtom>
21

>  <nSpiro>
0

>  <nBridgehead>
0

>  <nHetero>
6

>  <nN>
3

>  <nO>
3

>  <nF>
0

>  <BalabanJ>
1.75

>  <BertzCT>
754.01

>  <nBonds>
34

>  <nBondsO>
23

>  <nBondsS>
19

>  <nBondsD>
3

>  <nBondsT>
0

>  <nBondsA>
12

>  <nBondsM>
15

>  <nBondsKS>
25

>  <nBondsKD>
9

>  <RNCG>
0.19

>  <RPCG>
0.16

>  <FCSP3>
0.07

>  <SZ>
24.33

>  <Sm>
23.42

>  <Sv>
22.4

>  <Sse>
32.86

>  <Sp>
22.81

>  <Si>
35.78

>  <MZ>
0.76

>  <Mm>
0.73

>  <Mv>
0.7

>  <Mse>
1.03

>  <Mp>
0.71

>  <Mi>
1.12

>  <NsCH3>
0

>  <NdCH2>
0

>  <NssCH2>
1

>  <NtCH>
0

>  <NdsCH>
0

>  <NaaCH>
8

>  <NsssCH>
0

>  <NddC>
0

>  <NtsC>
0

>  <NdssC>
2

>  <NaasC>
4

>  <NaaaC>
0

>  <NssssC>
0

>  <NsNH3>
0

>  <NsNH2>
0

>  <NssNH2>
0

>  <NdNH>
0

>  <NssNH>
1

>  <NaaNH>
0

>  <NtN>
0

>  <NsssNH>
0

>  <NdsN>
1

>  <NaaN>
0

>  <NsssN>
0

>  <NddsN>
1

>  <NaasN>
0

>  <NssssN>
0

>  <NsOH>
0

>  <NdO>
2

>  <NssO>
0

>  <NaaO>
0

>  <NsF>
0

>  <NsSiH3>
0

>  <NssSiH2>
0

>  <NsssSiH>
0

>  <NssssSi>
0

>  <NsPH2>
0

>  <NssPH>
0

>  <NsssP>
0

>  <NdsssP>
0

>  <NsssssP>
0

>  <NsSH>
0

>  <NdS>
0

>  <NssS>
0

>  <NaaS>
0

>  <NdssS>
0

>  <NddssS>
0

>  <NsCl>
0

>  <NsBr>
0

>  <NsI>
0

>  <fragCpx>
109.06

>  <fMF>
0.53

>  <nHBAcc>
4

>  <nHBDon>
1

>  <Kier1>
15.88

>  <Kier2>
7.05

>  <Lipinski>
1

>  <GhoseFilter>
1

>  <FilterItLogS>
-4.51

>  <VMcGowan>
198.48

>  <LabuteASA>
119.84

>  <PEOE_VSA1>
5.32

>  <PEOE_VSA2>
19.9

>  <PEOE_VSA3>
0

>  <PEOE_VSA4>
0

>  <PEOE_VSA5>
0

>  <PEOE_VSA6>
30.33

>  <PEOE_VSA7>
6.07

>  <PEOE_VSA8>
23.26

>  <PEOE_VSA9>
16.32

>  <PEOE_VSA10>
6.54

>  <PEOE_VSA11>
0

>  <PEOE_VSA12>
5.91

>  <PEOE_VSA13>
5.69

>  <SMR_VSA1>
9.72

>  <SMR_VSA2>
0

>  <SMR_VSA3>
0

>  <SMR_VSA4>
4.99

>  <SMR_VSA5>
0

>  <SMR_VSA6>
11.86

>  <SMR_VSA7>
69.77

>  <SMR_VSA8>
0

>  <SMR_VSA9>
0

>  <SlogP_VSA1>
5.32

>  <SlogP_VSA2>
23.09

>  <SlogP_VSA3>
4.79

>  <SlogP_VSA4>
10.11

>  <SlogP_VSA5>
11.13

>  <SlogP_VSA6>
53.52

>  <SlogP_VSA7>
0

>  <SlogP_VSA8>
0

>  <SlogP_VSA9>
0

>  <SlogP_VSA10>
11.37

>  <SlogP_VSA11>
0

>  <EState_VSA1>
4.92

>  <EState_VSA2>
18.14

>  <EState_VSA3>
16.96

>  <EState_VSA4>
5.56

>  <EState_VSA5>
18.2

>  <EState_VSA6>
0

>  <EState_VSA7>
30.33

>  <EState_VSA8>
10.31

>  <EState_VSA9>
0

>  <EState_VSA10>
14.91

>  <VSA_EState1>
0

>  <VSA_EState2>
26.48

>  <VSA_EState3>
13.67

>  <VSA_EState4>
2.45

>  <VSA_EState5>
-0.24

>  <VSA_EState6>
13.64

>  <VSA_EState7>
0

>  <VSA_EState8>
-0.01

>  <VSA_EState9>
0

>  <apol>
38.09

>  <bpol>
14.78

>  <nRing>
3

>  <nHRing>
1

>  <naRing>
2

>  <naHRing>
0

>  <nARing 2>
1

>  <nAHRing 2>
1

>  <nFRing>
1

>  <nFHRing>
1

>  <nFaRing>
0

>  <nFaHRing>
0

>  <nFARing 2>
1

>  <nFAHRing 2>
1

>  <nRot>
2

>  <SLogP>
2.38

>  <SMR>
78.67

>  <TopoPSA(NO)>
84.6

>  <TopoPSA>
84.6

>  <JGI1>
0.17

>  <JGI2>
0.08

>  <JGI3>
0.04

>  <JGI4>
0.04

>  <JGI5>
0.03

>  <Diameter>
9

>  <Radius>
5

>  <TMWC10>
117.84

>  <TSRW10>
62.87

>  <MW>
281.08

>  <AMW>
8.78

>  <WPath>
857

>  <WPol>
36

>  <Zagreb1>
110

>  <Zagreb2>
129

>  <mZagreb2>
4.61

>  <yes>


>  <nAR-cont>
0.816016

>  <nHA-cont>
0.994529749

>  <MWHBN>
0.298232543

>  <MWHBN-cont>
0.845987116

>  <TPSA-cont>
0.409439467

>  <pka_cont>
0.97

>  <yes.1>


>  <BBB_SCORE>
4.383405356

>  <MMFF94 Energy>
128.63

$$$$
Compound 517
Actelion Java MolfileCreator 2.0

  0  0  0  0  0  0              0 V3000
M  V30 BEGIN CTAB
M  V30 COUNTS 22 23 0 0 0
M  V30 BEGIN ATOM
M  V30 1 O -0.317 -1.1099 2.3002 0
M  V30 2 C 0.5661 -0.2322 1.5987 0 CFG=2
M  V30 3 C -0.2311 0.4491 0.5114 0
M  V30 4 C 1.7334 -1.0593 1.0201 0
M  V30 5 C -0.1387 -0.0046 -0.8194 0
M  V30 6 C -1.106 1.4979 0.829 0
M  V30 7 N 1.2523 -1.9382 -0.0621 0
M  V30 8 C -0.8976 0.6301 -1.8138 0
M  V30 9 C 0.8085 -1.1206 -1.2002 0
M  V30 10 C -1.8616 2.1129 -0.1682 0
M  V30 11 C -1.755 1.6819 -1.4883 0
M  V30 12 H -0.5269 -1.807 1.6482 0
M  V30 13 H 0.9568 0.504 2.3094 0
M  V30 14 H 2.1563 -1.6913 1.8091 0
M  V30 15 H 2.5322 -0.405 0.6498 0
M  V30 16 H -1.2073 1.8281 1.8607 0
M  V30 17 H 2.0161 -2.5373 -0.372 0
M  V30 18 H -0.8277 0.3044 -2.8491 0
M  V30 19 H 0.3125 -1.7866 -1.9152 0
M  V30 20 H 1.6806 -0.6823 -1.701 0
M  V30 21 H -2.5382 2.9241 0.0868 0
M  V30 22 H -2.3448 2.1622 -2.2647 0
M  V30 END ATOM
M  V30 BEGIN BOND
M  V30 1 1 1 2
M  V30 2 1 2 3
M  V30 3 1 2 4
M  V30 4 2 3 5
M  V30 5 1 3 6
M  V30 6 1 4 7
M  V30 7 1 5 8
M  V30 8 1 5 9
M  V30 9 2 6 10
M  V30 10 2 8 11
M  V30 11 1 7 9
M  V30 12 1 10 11
M  V30 13 1 1 12
M  V30 14 1 2 13
M  V30 15 1 4 14
M  V30 16 1 4 15
M  V30 17 1 6 16
M  V30 18 1 7 17
M  V30 19 1 8 18
M  V30 20 1 9 19
M  V30 21 1 9 20
M  V30 22 1 10 21
M  V30 23 1 11 22
M  V30 END BOND
M  V30 BEGIN COLLECTION
M  V30 MDLV30/STERAC1 ATOMS=(1 2)
M  V30 END COLLECTION
M  V30 END CTAB
M  END
>  <Column 1>
636

>  <level_0>
725

>  <index>
725

>  <Unnamed: 0>
725

>  <NO.>
737

>  <Name>
4-oh-tiq

>  <IUPAC_name>
1-2-3-4-tetrahydroisoquinolin-4-ol

>  <SMILES>
OC1CNCc2ccccc21

>  <CID>
11744792

>  <logBB>
0.32

>  <BBB+/BBB->
BBB+

>  <Inchi>
InChI=1S/C9H11NO/c11-9-6-10-5-7-3-1-2-4-8(7)9/h1-4-9-11H-5-6H2

>  <threshold>


>  <reference>
R18|R26|R27|

>  <group>
A

>  <Class>
1

>  <ABC>
8.51

>  <ABCGG>
7.4

>  <nAcid>
0

>  <nBase>
1

>  <nAromAtom>
6

>  <nAromBond>
6

>  <nAtom>
22

>  <nHeavyAtom>
11

>  <nSpiro>
0

>  <nBridgehead>
0

>  <nHetero>
2

>  <nN>
1

>  <nO>
1

>  <nF>
0

>  <BalabanJ>
1.99

>  <BertzCT>
259.49

>  <nBonds>
23

>  <nBondsO>
12

>  <nBondsS>
17

>  <nBondsD>
0

>  <nBondsT>
0

>  <nBondsA>
6

>  <nBondsM>
6

>  <nBondsKS>
20

>  <nBondsKD>
3

>  <RNCG>
0.4

>  <RPCG>
0.22

>  <FCSP3>
0.33

>  <SZ>
13.33

>  <Sm>
12.42

>  <Sv>
13.45

>  <Sse>
21.88

>  <Sp>
14.53

>  <Si>
24.78

>  <MZ>
0.61

>  <Mm>
0.56

>  <Mv>
0.61

>  <Mse>
0.99

>  <Mp>
0.66

>  <Mi>
1.13

>  <NsCH3>
0

>  <NdCH2>
0

>  <NssCH2>
2

>  <NtCH>
0

>  <NdsCH>
0

>  <NaaCH>
4

>  <NsssCH>
1

>  <NddC>
0

>  <NtsC>
0

>  <NdssC>
0

>  <NaasC>
2

>  <NaaaC>
0

>  <NssssC>
0

>  <NsNH3>
0

>  <NsNH2>
0

>  <NssNH2>
0

>  <NdNH>
0

>  <NssNH>
1

>  <NaaNH>
0

>  <NtN>
0

>  <NsssNH>
0

>  <NdsN>
0

>  <NaaN>
0

>  <NsssN>
0

>  <NddsN>
0

>  <NaasN>
0

>  <NssssN>
0

>  <NsOH>
1

>  <NdO>
0

>  <NssO>
0

>  <NaaO>
0

>  <NsF>
0

>  <NsSiH3>
0

>  <NssSiH2>
0

>  <NsssSiH>
0

>  <NssssSi>
0

>  <NsPH2>
0

>  <NssPH>
0

>  <NsssP>
0

>  <NdsssP>
0

>  <NsssssP>
0

>  <NsSH>
0

>  <NdS>
0

>  <NssS>
0

>  <NaaS>
0

>  <NdssS>
0

>  <NddssS>
0

>  <NsCl>
0

>  <NsBr>
0

>  <NsI>
0

>  <fragCpx>
34.02

>  <fMF>
0.45

>  <nHBAcc>
2

>  <nHBDon>
2

>  <Kier1>
7.64

>  <Kier2>
3.16

>  <Lipinski>
1

>  <GhoseFilter>
0

>  <FilterItLogS>
-1.85

>  <VMcGowan>
118.9

>  <LabuteASA>
65.86

>  <PEOE_VSA1>
10.42

>  <PEOE_VSA2>
0

>  <PEOE_VSA3>
0

>  <PEOE_VSA4>
0

>  <PEOE_VSA5>
0

>  <PEOE_VSA6>
24.27

>  <PEOE_VSA7>
11.13

>  <PEOE_VSA8>
13.09

>  <PEOE_VSA9>
6.1

>  <PEOE_VSA10>
0

>  <PEOE_VSA11>
0

>  <PEOE_VSA12>
0

>  <PEOE_VSA13>
0

>  <SMR_VSA1>
5.11

>  <SMR_VSA2>
0

>  <SMR_VSA3>
5.32

>  <SMR_VSA4>
0

>  <SMR_VSA5>
12.65

>  <SMR_VSA6>
6.54

>  <SMR_VSA7>
35.39

>  <SMR_VSA8>
0

>  <SMR_VSA9>
0

>  <SlogP_VSA1>
5.32

>  <SlogP_VSA2>
11.65

>  <SlogP_VSA3>
6.54

>  <SlogP_VSA4>
0

>  <SlogP_VSA5>
17.23

>  <SlogP_VSA6>
24.27

>  <SlogP_VSA7>
0

>  <SlogP_VSA8>
0

>  <SlogP_VSA9>
0

>  <SlogP_VSA10>
0

>  <SlogP_VSA11>
0

>  <EState_VSA1>
0

>  <EState_VSA2>
6.1

>  <EState_VSA3>
6.54

>  <EState_VSA4>
12.11

>  <EState_VSA5>
5.56

>  <EState_VSA6>
0

>  <EState_VSA7>
24.27

>  <EState_VSA8>
5.32

>  <EState_VSA9>
0

>  <EState_VSA10>
5.11

>  <VSA_EState1>
0

>  <VSA_EState2>
0

>  <VSA_EState3>
12.64

>  <VSA_EState4>
2.29

>  <VSA_EState5>
0

>  <VSA_EState6>
8

>  <VSA_EState7>
-0.32

>  <VSA_EState8>
1.56

>  <VSA_EState9>
0

>  <apol>
24.27

>  <bpol>
11.61

>  <nRing>
2

>  <nHRing>
1

>  <naRing>
1

>  <naHRing>
0

>  <nARing 2>
1

>  <nAHRing 2>
1

>  <nFRing>
1

>  <nFHRing>
1

>  <nFaRing>
0

>  <nFaHRing>
0

>  <nFARing 2>
1

>  <nFAHRing 2>
1

>  <nRot>
0

>  <SLogP>
0.82

>  <SMR>
43.11

>  <TopoPSA(NO)>
32.26

>  <TopoPSA>
32.26

>  <JGI1>
0.13

>  <JGI2>
0.08

>  <JGI3>
0.05

>  <JGI4>
0.05

>  <JGI5>
0.02

>  <Diameter>
5

>  <Radius>
3

>  <TMWC10>
89.92

>  <TSRW10>
41.61

>  <MW>
149.08

>  <AMW>
6.78

>  <WPath>
140

>  <WPol>
15

>  <Zagreb1>
56

>  <Zagreb2>
65

>  <mZagreb2>
2.47

>  <yes>


>  <nAR-cont>
0.816016

>  <nHA-cont>
0.720786536

>  <MWHBN>
0.327604832

>  <MWHBN-cont>
0.751199384

>  <TPSA-cont>
0.774805168

>  <pka_cont>
0.97

>  <yes.1>


>  <BBB_SCORE>
4.698211947

>  <MMFF94 Energy>
52.534

$$$$
Compound 518
Actelion Java MolfileCreator 2.0

  0  0  0  0  0  0              0 V3000
M  V30 BEGIN CTAB
M  V30 COUNTS 23 24 0 0 0
M  V30 BEGIN ATOM
M  V30 1 Br -2.4837 1.5724 1.9865 0
M  V30 2 C -1.5432 1.8648 0.3555 0
M  V30 3 C -0.9356 0.7939 -0.3344 0
M  V30 4 C -1.4804 3.178 -0.1236 0
M  V30 5 N -0.9554 -0.4975 0.235 0
M  V30 6 C -0.2709 1.097 -1.5394 0
M  V30 7 C -0.8043 3.4525 -1.3079 0
M  V30 8 C 0.1478 -1.2247 0.5439 0
M  V30 9 Br 0.4504 -0.2497 -2.6799 0
M  V30 10 C -0.2065 2.414 -2.0176 0
M  V30 11 N 1.3979 -0.8611 0.5226 0
M  V30 12 N -0.1058 -2.4943 0.9457 0
M  V30 13 C 2.1502 -2.0601 0.9863 0
M  V30 14 C 1.1329 -3.1973 1.1337 0
M  V30 15 H -1.9487 3.9918 0.4245 0
M  V30 16 H -1.7742 -0.6941 0.7931 0
M  V30 17 H -0.7487 4.4715 -1.6826 0
M  V30 18 H 0.303 2.6352 -2.9527 0
M  V30 19 H -0.947 -2.9814 0.6776 0
M  V30 20 H 2.6293 -1.8354 1.9454 0
M  V30 21 H 2.9301 -2.3183 0.2628 0
M  V30 22 H 1.2713 -3.9554 0.3567 0
M  V30 23 H 1.1893 -3.6715 2.1174 0
M  V30 END ATOM
M  V30 BEGIN BOND
M  V30 1 1 1 2
M  V30 2 2 2 3
M  V30 3 1 2 4
M  V30 4 1 3 5
M  V30 5 1 3 6
M  V30 6 2 4 7
M  V30 7 1 5 8
M  V30 8 1 6 9
M  V30 9 2 6 10
M  V30 10 2 8 11
M  V30 11 1 8 12
M  V30 12 1 11 13
M  V30 13 1 12 14
M  V30 14 1 7 10
M  V30 15 1 13 14
M  V30 16 1 4 15
M  V30 17 1 5 16
M  V30 18 1 7 17
M  V30 19 1 10 18
M  V30 20 1 12 19
M  V30 21 1 13 20
M  V30 22 1 13 21
M  V30 23 1 14 22
M  V30 24 1 14 23
M  V30 END BOND
M  V30 END CTAB
M  END
>  <Column 1>
637

>  <level_0>
727

>  <index>
727

>  <Unnamed: 0>
727

>  <NO.>
739

>  <Name>
4205-93-0

>  <IUPAC_name>
n-(2-6-dibromophenyl)-4-5-dihydro-1h-imidazol-2-amine

>  <SMILES>
Brc1cccc(Br)c1NC1=NCCN1

>  <CID>
10245368

>  <logBB>
0.33

>  <BBB+/BBB->
BBB+

>  <Inchi>
InChI=1S/C9H9Br2N3/c10-6-2-1-3-7(11)8(6)14-9-12-4-5-13-9/h1-3H-4-5H2-(H2-12-13-14)

>  <threshold>


>  <reference>
R2|R2|R25|R27|R46|R47|R4|R2|R2|R8|R27|R40|

>  <group>
A

>  <Class>
1

>  <ABC>
10.74

>  <ABCGG>
9.87

>  <nAcid>
0

>  <nBase>
3

>  <nAromAtom>
6

>  <nAromBond>
6

>  <nAtom>
23

>  <nHeavyAtom>
14

>  <nSpiro>
0

>  <nBridgehead>
0

>  <nHetero>
5

>  <nN>
3

>  <nO>
0

>  <nF>
0

>  <BalabanJ>
1.86

>  <BertzCT>
356.07

>  <nBonds>
24

>  <nBondsO>
15

>  <nBondsS>
17

>  <nBondsD>
1

>  <nBondsT>
0

>  <nBondsA>
6

>  <nBondsM>
7

>  <nBondsKS>
20

>  <nBondsKD>
4

>  <RNCG>
0.3

>  <RPCG>
0.17

>  <FCSP3>
0.22

>  <SZ>
25.67

>  <Sm>
26.56

>  <Sv>
16.29

>  <Sse>
23.33

>  <Sp>
18.22

>  <Si>
25.84

>  <MZ>
1.12

>  <Mm>
1.15

>  <Mv>
0.71

>  <Mse>
1.01

>  <Mp>
0.79

>  <Mi>
1.12

>  <NsCH3>
0

>  <NdCH2>
0

>  <NssCH2>
2

>  <NtCH>
0

>  <NdsCH>
0

>  <NaaCH>
3

>  <NsssCH>
0

>  <NddC>
0

>  <NtsC>
0

>  <NdssC>
1

>  <NaasC>
3

>  <NaaaC>
0

>  <NssssC>
0

>  <NsNH3>
0

>  <NsNH2>
0

>  <NssNH2>
0

>  <NdNH>
0

>  <NssNH>
2

>  <NaaNH>
0

>  <NtN>
0

>  <NsssNH>
0

>  <NdsN>
1

>  <NaaN>
0

>  <NsssN>
0

>  <NddsN>
0

>  <NaasN>
0

>  <NssssN>
0

>  <NsOH>
0

>  <NdO>
0

>  <NssO>
0

>  <NaaO>
0

>  <NsF>
0

>  <NsSiH3>
0

>  <NssSiH2>
0

>  <NsssSiH>
0

>  <NssssSi>
0

>  <NsPH2>
0

>  <NssPH>
0

>  <NsssP>
0

>  <NdsssP>
0

>  <NsssssP>
0

>  <NsSH>
0

>  <NdS>
0

>  <NssS>
0

>  <NaaS>
0

>  <NdssS>
0

>  <NddssS>
0

>  <NsCl>
0

>  <NsBr>
2

>  <NsI>
0

>  <fragCpx>
43.05

>  <fMF>
0.52

>  <nHBAcc>
3

>  <nHBDon>
2

>  <Kier1>
10.52

>  <Kier2>
4.68

>  <Lipinski>
1

>  <GhoseFilter>
1

>  <FilterItLogS>
-4.59

>  <VMcGowan>
163.69

>  <LabuteASA>
99.25

>  <PEOE_VSA1>
10.63

>  <PEOE_VSA2>
4.99

>  <PEOE_VSA3>
0

>  <PEOE_VSA4>
0

>  <PEOE_VSA5>
0

>  <PEOE_VSA6>
6.07

>  <PEOE_VSA7>
43.99

>  <PEOE_VSA8>
15.49

>  <PEOE_VSA9>
12.23

>  <PEOE_VSA10>
0

>  <PEOE_VSA11>
5.96

>  <PEOE_VSA12>
0

>  <PEOE_VSA13>
0

>  <SMR_VSA1>
0

>  <SMR_VSA2>
0

>  <SMR_VSA3>
5.32

>  <SMR_VSA4>
4.99

>  <SMR_VSA5>
0

>  <SMR_VSA6>
18.41

>  <SMR_VSA7>
27.14

>  <SMR_VSA8>
0

>  <SMR_VSA9>
0

>  <SlogP_VSA1>
10.63

>  <SlogP_VSA2>
19.05

>  <SlogP_VSA3>
0

>  <SlogP_VSA4>
0

>  <SlogP_VSA5>
0

>  <SlogP_VSA6>
32.14

>  <SlogP_VSA7>
0

>  <SlogP_VSA8>
0

>  <SlogP_VSA9>
0

>  <SlogP_VSA10>
5.69

>  <SlogP_VSA11>
0

>  <EState_VSA1>
0

>  <EState_VSA2>
0

>  <EState_VSA3>
0

>  <EState_VSA4>
33.68

>  <EState_VSA5>
0

>  <EState_VSA6>
0

>  <EState_VSA7>
18.2

>  <EState_VSA8>
47.49

>  <EState_VSA9>
0

>  <EState_VSA10>
0

>  <VSA_EState1>
2.03

>  <VSA_EState2>
4.27

>  <VSA_EState3>
6.38

>  <VSA_EState4>
1

>  <VSA_EState5>
0.83

>  <VSA_EState6>
5.95

>  <VSA_EState7>
0

>  <VSA_EState8>
1.74

>  <VSA_EState9>
0

>  <apol>
30.43

>  <bpol>
14.07

>  <nRing>
2

>  <nHRing>
1

>  <naRing>
1

>  <naHRing>
0

>  <nARing 2>
1

>  <nAHRing 2>
1

>  <nFRing>
0

>  <nFHRing>
0

>  <nFaRing>
0

>  <nFaHRing>
0

>  <nFARing 2>
0

>  <nFAHRing 2>
0

>  <nRot>
1

>  <SLogP>
2.58

>  <SMR>
65.77

>  <TopoPSA(NO)>
36.42

>  <TopoPSA>
36.42

>  <JGI1>
0.17

>  <JGI2>
0.08

>  <JGI3>
0.05

>  <JGI4>
0.05

>  <JGI5>
0.01

>  <Diameter>
7

>  <Radius>
4

>  <TMWC10>
97.55

>  <TSRW10>
58.5

>  <MW>
316.92

>  <AMW>
13.78

>  <WPath>
301

>  <WPol>
17

>  <Zagreb1>
70

>  <Zagreb2>
80

>  <mZagreb2>
3.14

>  <yes>


>  <nAR-cont>
0.816016

>  <nHA-cont>
0.887625254

>  <MWHBN>
0.280863421

>  <MWHBN-cont>
0.893886565

>  <TPSA-cont>
0.745765785

>  <pka_cont>
0.97

>  <yes.1>


>  <BBB_SCORE>
5.021002671

>  <MMFF94 Energy>
-14.701

$$$$
Compound 519
Actelion Java MolfileCreator 2.0

  0  0  0  0  0  0              0 V3000
M  V30 BEGIN CTAB
M  V30 COUNTS 48 50 0 0 0
M  V30 BEGIN ATOM
M  V30 1 O -1.9857 -2.9399 -0.6351 0
M  V30 2 C -1.4789 -1.8791 -0.2705 0
M  V30 3 C 0.0129 -1.7508 -0.3256 0
M  V30 4 C -2.3293 -0.7071 0.2273 0
M  V30 5 C 0.7135 -0.6972 0.269 0
M  V30 6 C 0.7366 -2.7425 -0.9946 0
M  V30 7 C -2.3711 0.4148 -0.8178 0
M  V30 8 C -3.7558 -1.1745 0.5651 0
M  V30 9 C 2.1197 -0.6335 0.1852 0
M  V30 10 C 2.1321 -2.6714 -1.0728 0
M  V30 11 C -3.267 1.5728 -0.3699 0
M  V30 12 C -4.6369 -0.0099 1.0185 0
M  V30 13 C 2.8415 -1.6301 -0.4944 0
M  V30 14 C 2.8477 0.4113 0.7676 0
M  V30 15 C -4.6876 1.1105 -0.0267 0
M  V30 16 N 4.1791 -1.6038 -0.5986 0
M  V30 17 C 4.2446 0.4503 0.6728 0
M  V30 18 O -5.2934 0.6722 -1.2466 0
M  V30 19 C 4.8696 -0.5819 -0.0306 0
M  V30 20 C 4.9954 1.6001 1.2943 0
M  V30 21 C -6.7089 0.5691 -1.1803 0
M  V30 22 C 6.3601 -0.643 -0.2007 0
M  V30 23 C 5.1029 2.7873 0.3486 0
M  V30 24 H -1.8927 -0.3359 1.162 0
M  V30 25 H 0.1928 0.0879 0.8078 0
M  V30 26 H 0.2231 -3.5802 -1.4639 0
M  V30 27 H -1.3656 0.8034 -1.0123 0
M  V30 28 H -2.7299 0.0167 -1.7758 0
M  V30 29 H -3.7191 -1.9315 1.3582 0
M  V30 30 H -4.2152 -1.6607 -0.305 0
M  V30 31 H 2.6781 -3.4507 -1.5997 0
M  V30 32 H -2.8182 2.0596 0.5046 0
M  V30 33 H -3.3041 2.3156 -1.1758 0
M  V30 34 H -5.6407 -0.3914 1.2308 0
M  V30 35 H -4.245 0.3925 1.961 0
M  V30 36 H 2.3269 1.205 1.2995 0
M  V30 37 H -5.248 1.9676 0.3666 0
M  V30 38 H 5.9951 1.2841 1.6113 0
M  V30 39 H 4.4845 1.9127 2.2139 0
M  V30 40 H -7.0134 -0.2328 -0.5034 0
M  V30 41 H -7.0791 0.3279 -2.1805 0
M  V30 42 H -7.1528 1.519 -0.8675 0
M  V30 43 H 6.849 -0.7714 0.7696 0
M  V30 44 H 6.6441 -1.4914 -0.8324 0
M  V30 45 H 6.7321 0.2664 -0.6814 0
M  V30 46 H 5.6505 3.6044 0.8288 0
M  V30 47 H 4.1129 3.1629 0.0682 0
M  V30 48 H 5.632 2.5192 -0.5715 0
M  V30 END ATOM
M  V30 BEGIN BOND
M  V30 1 2 1 2
M  V30 2 1 2 3
M  V30 3 1 2 4
M  V30 4 2 3 5
M  V30 5 1 3 6
M  V30 6 1 4 7
M  V30 7 1 4 8
M  V30 8 1 5 9
M  V30 9 2 6 10
M  V30 10 1 7 11
M  V30 11 1 8 12
M  V30 12 1 9 13
M  V30 13 2 9 14
M  V30 14 1 11 15
M  V30 15 2 13 16
M  V30 16 1 14 17
M  V30 17 1 15 18
M  V30 18 1 16 19
M  V30 19 1 17 20
M  V30 20 1 18 21
M  V30 21 1 19 22
M  V30 22 1 20 23
M  V30 23 1 10 13
M  V30 24 1 12 15
M  V30 25 2 17 19
M  V30 26 1 4 24
M  V30 27 1 5 25
M  V30 28 1 6 26
M  V30 29 1 7 27
M  V30 30 1 7 28
M  V30 31 1 8 29
M  V30 32 1 8 30
M  V30 33 1 10 31
M  V30 34 1 11 32
M  V30 35 1 11 33
M  V30 36 1 12 34
M  V30 37 1 12 35
M  V30 38 1 14 36
M  V30 39 1 15 37
M  V30 40 1 20 38
M  V30 41 1 20 39
M  V30 42 1 21 40
M  V30 43 1 21 41
M  V30 44 1 21 42
M  V30 45 1 22 43
M  V30 46 1 22 44
M  V30 47 1 22 45
M  V30 48 1 23 46
M  V30 49 1 23 47
M  V30 50 1 23 48
M  V30 END BOND
M  V30 END CTAB
M  END
>  <Column 1>
638

>  <level_0>
728

>  <index>
728

>  <Unnamed: 0>
728

>  <NO.>
740

>  <Name>
jnj-16567083

>  <IUPAC_name>
(3-ethyl-2-methylquinolin-6-yl)-(4-methoxycyclohexyl)methanone

>  <SMILES>
CCc1cc2cc(C(=O)C3CCC(OC)CC3)ccc2nc1C

>  <CID>
9948645

>  <logBB>
0.33

>  <BBB+/BBB->
BBB+

>  <Inchi>
InChI=1S/C20H25NO2/c1-4-14-11-17-12-16(7-10-19(17)21-13(14)2)20(22)15-5-8-18(23-3)9-6-15/h7-10-12-15-18H-4-6-8-9H2-1-3H3

>  <threshold>


>  <reference>
R47|

>  <group>
A

>  <Class>
1

>  <ABC>
17.73

>  <ABCGG>
13.82

>  <nAcid>
0

>  <nBase>
0

>  <nAromAtom>
10

>  <nAromBond>
11

>  <nAtom>
48

>  <nHeavyAtom>
23

>  <nSpiro>
0

>  <nBridgehead>
0

>  <nHetero>
3

>  <nN>
1

>  <nO>
2

>  <nF>
0

>  <BalabanJ>
1.54

>  <BertzCT>
714.9

>  <nBonds>
50

>  <nBondsO>
25

>  <nBondsS>
38

>  <nBondsD>
1

>  <nBondsT>
0

>  <nBondsA>
11

>  <nBondsM>
12

>  <nBondsKS>
44

>  <nBondsKD>
6

>  <RNCG>
0.28

>  <RPCG>
0.12

>  <FCSP3>
0.5

>  <SZ>
28

>  <Sm>
25.93

>  <Sv>
28.96

>  <Sse>
47.42

>  <Sp>
31.6

>  <Si>
53.9

>  <MZ>
0.58

>  <Mm>
0.54

>  <Mv>
0.6

>  <Mse>
0.99

>  <Mp>
0.66

>  <Mi>
1.12

>  <NsCH3>
3

>  <NdCH2>
0

>  <NssCH2>
5

>  <NtCH>
0

>  <NdsCH>
0

>  <NaaCH>
4

>  <NsssCH>
2

>  <NddC>
0

>  <NtsC>
0

>  <NdssC>
1

>  <NaasC>
3

>  <NaaaC>
2

>  <NssssC>
0

>  <NsNH3>
0

>  <NsNH2>
0

>  <NssNH2>
0

>  <NdNH>
0

>  <NssNH>
0

>  <NaaNH>
0

>  <NtN>
0

>  <NsssNH>
0

>  <NdsN>
0

>  <NaaN>
1

>  <NsssN>
0

>  <NddsN>
0

>  <NaasN>
0

>  <NssssN>
0

>  <NsOH>
0

>  <NdO>
1

>  <NssO>
1

>  <NaaO>
0

>  <NsF>
0

>  <NsSiH3>
0

>  <NssSiH2>
0

>  <NsssSiH>
0

>  <NssssSi>
0

>  <NsPH2>
0

>  <NssPH>
0

>  <NsssP>
0

>  <NdsssP>
0

>  <NsssssP>
0

>  <NsSH>
0

>  <NdS>
0

>  <NssS>
0

>  <NaaS>
0

>  <NdssS>
0

>  <NddssS>
0

>  <NsCl>
0

>  <NsBr>
0

>  <NsI>
0

>  <fragCpx>
119.03

>  <fMF>
0.35

>  <nHBAcc>
3

>  <nHBDon>
0

>  <Kier1>
17.81

>  <Kier2>
7.92

>  <Lipinski>
1

>  <GhoseFilter>
1

>  <FilterItLogS>
-5.54

>  <VMcGowan>
256

>  <LabuteASA>
137.62

>  <PEOE_VSA1>
4.74

>  <PEOE_VSA2>
9.78

>  <PEOE_VSA3>
0

>  <PEOE_VSA4>
0

>  <PEOE_VSA5>
0

>  <PEOE_VSA6>
6.92

>  <PEOE_VSA7>
68.86

>  <PEOE_VSA8>
29.67

>  <PEOE_VSA9>
11.62

>  <PEOE_VSA10>
0

>  <PEOE_VSA11>
5.78

>  <PEOE_VSA12>
0

>  <PEOE_VSA13>
0

>  <SMR_VSA1>
9.53

>  <SMR_VSA2>
0

>  <SMR_VSA3>
4.98

>  <SMR_VSA4>
5.92

>  <SMR_VSA5>
52.06

>  <SMR_VSA6>
7.11

>  <SMR_VSA7>
41.09

>  <SMR_VSA8>
0

>  <SMR_VSA9>
0

>  <SlogP_VSA1>
0

>  <SlogP_VSA2>
23.98

>  <SlogP_VSA3>
11.16

>  <SlogP_VSA4>
12.84

>  <SlogP_VSA5>
54.22

>  <SlogP_VSA6>
24.27

>  <SlogP_VSA7>
0

>  <SlogP_VSA8>
10.9

>  <SlogP_VSA9>
0

>  <SlogP_VSA10>
0

>  <SlogP_VSA11>
0

>  <EState_VSA1>
0

>  <EState_VSA2>
11.7

>  <EState_VSA3>
6.1

>  <EState_VSA4>
54.26

>  <EState_VSA5>
5.56

>  <EState_VSA6>
7.11

>  <EState_VSA7>
25.12

>  <EState_VSA8>
17.97

>  <EState_VSA9>
4.74

>  <EState_VSA10>
4.79

>  <VSA_EState1>
5.4

>  <VSA_EState2>
17.45

>  <VSA_EState3>
1.07

>  <VSA_EState4>
4.13

>  <VSA_EState5>
0.42

>  <VSA_EState6>
8.11

>  <VSA_EState7>
5.13

>  <VSA_EState8>
4.19

>  <VSA_EState9>
1.76

>  <apol>
52.77

>  <bpol>
28.82

>  <nRing>
3

>  <nHRing>
1

>  <naRing>
2

>  <naHRing>
1

>  <nARing 2>
1

>  <nAHRing 2>
0

>  <nFRing>
1

>  <nFHRing>
1

>  <nFaRing>
1

>  <nFaHRing>
1

>  <nFARing 2>
0

>  <nFAHRing 2>
0

>  <nRot>
4

>  <SLogP>
4.49

>  <SMR>
92.94

>  <TopoPSA(NO)>
39.19

>  <TopoPSA>
39.19

>  <JGI1>
0.2

>  <JGI2>
0.09

>  <JGI3>
0.04

>  <JGI4>
0.05

>  <JGI5>
0.03

>  <Diameter>
13

>  <Radius>
7

>  <TMWC10>
122.57

>  <TSRW10>
57.46

>  <MW>
311.19

>  <AMW>
6.48

>  <WPath>
1258

>  <WPol>
38

>  <Zagreb1>
120

>  <Zagreb2>
142

>  <mZagreb2>
5.19

>  <yes>


>  <nAR-cont>
0.816016

>  <nHA-cont>
0.967789328

>  <MWHBN>
0.170062453

>  <MWHBN-cont>
0.974062677

>  <TPSA-cont>
0.726429464

>  <pka_cont>
0.97

>  <yes.1>


>  <BBB_SCORE>
5.182758272

>  <MMFF94 Energy>
71.463

$$$$
Compound 520
Actelion Java MolfileCreator 2.0

  0  0  0  0  0  0              0 V3000
M  V30 BEGIN CTAB
M  V30 COUNTS 8 7 0 0 0
M  V30 BEGIN ATOM
M  V30 1 Cl -1.4604 -0.584 -1.4604 0
M  V30 2 C -0.2995 -0.6356 -0.0974 0
M  V30 3 Cl 0.9916 -1.822 -0.4624 0
M  V30 4 Cl -1.1865 -1.2207 1.3563 0
M  V30 5 C 0.2776 0.7532 0.2074 0
M  V30 6 Cl 1.1972 1.4863 -1.1429 0
M  V30 7 H -0.5194 1.4617 0.4587 0
M  V30 8 H 0.9624 0.7135 1.0618 0
M  V30 END ATOM
M  V30 BEGIN BOND
M  V30 1 1 1 2
M  V30 2 1 2 3
M  V30 3 1 2 4
M  V30 4 1 2 5
M  V30 5 1 5 6
M  V30 6 1 5 7
M  V30 7 1 5 8
M  V30 END BOND
M  V30 END CTAB
M  END
>  <Column 1>
639

>  <level_0>
729

>  <index>
729

>  <Unnamed: 0>
729

>  <NO.>
741

>  <Name>
1.1.1.2-tetrachloroethane

>  <IUPAC_name>
1-1-1-2-tetrachloroethane

>  <SMILES>
ClCC(Cl)(Cl)Cl

>  <CID>
12418

>  <logBB>
0.33

>  <BBB+/BBB->
BBB+

>  <Inchi>
InChI=1S/C2H2Cl4/c3-1-2(4-5)6/h1H2

>  <threshold>


>  <reference>
R3|R21|R25|R27|R38|R41|R43|R46|R47|R2|R2|R8|R27|R40|

>  <group>
A

>  <Class>
1

>  <ABC>
4.01

>  <ABCGG>
4.28

>  <nAcid>
0

>  <nBase>
0

>  <nAromAtom>
0

>  <nAromBond>
0

>  <nAtom>
8

>  <nHeavyAtom>
6

>  <nSpiro>
0

>  <nBridgehead>
0

>  <nHetero>
4

>  <nN>
0

>  <nO>
0

>  <nF>
0

>  <BalabanJ>
3.17

>  <BertzCT>
35.3

>  <nBonds>
7

>  <nBondsO>
5

>  <nBondsS>
7

>  <nBondsD>
0

>  <nBondsT>
0

>  <nBondsA>
0

>  <nBondsM>
0

>  <nBondsKS>
7

>  <nBondsKD>
0

>  <RNCG>
0.33

>  <RPCG>
0.55

>  <FCSP3>
1

>  <SZ>
13.67

>  <Sm>
13.97

>  <Sv>
6.91

>  <Sse>
8.95

>  <Sp>
8.02

>  <Si>
9.02

>  <MZ>
1.71

>  <Mm>
1.75

>  <Mv>
0.86

>  <Mse>
1.12

>  <Mp>
1

>  <Mi>
1.13

>  <NsCH3>
0

>  <NdCH2>
0

>  <NssCH2>
1

>  <NtCH>
0

>  <NdsCH>
0

>  <NaaCH>
0

>  <NsssCH>
0

>  <NddC>
0

>  <NtsC>
0

>  <NdssC>
0

>  <NaasC>
0

>  <NaaaC>
0

>  <NssssC>
1

>  <NsNH3>
0

>  <NsNH2>
0

>  <NssNH2>
0

>  <NdNH>
0

>  <NssNH>
0

>  <NaaNH>
0

>  <NtN>
0

>  <NsssNH>
0

>  <NdsN>
0

>  <NaaN>
0

>  <NsssN>
0

>  <NddsN>
0

>  <NaasN>
0

>  <NssssN>
0

>  <NsOH>
0

>  <NdO>
0

>  <NssO>
0

>  <NaaO>
0

>  <NsF>
0

>  <NsSiH3>
0

>  <NssSiH2>
0

>  <NsssSiH>
0

>  <NssssSi>
0

>  <NsPH2>
0

>  <NssPH>
0

>  <NsssP>
0

>  <NdsssP>
0

>  <NsssssP>
0

>  <NsSH>
0

>  <NdS>
0

>  <NssS>
0

>  <NaaS>
0

>  <NdssS>
0

>  <NddssS>
0

>  <NsCl>
4

>  <NsBr>
0

>  <NsI>
0

>  <fragCpx>
5.04

>  <fMF>
0

>  <nHBAcc>
0

>  <nHBDon>
0

>  <Kier1>
6

>  <Kier2>
1.63

>  <Lipinski>
1

>  <GhoseFilter>
0

>  <FilterItLogS>
-2.79

>  <VMcGowan>
88

>  <LabuteASA>
56.32

>  <PEOE_VSA1>
0

>  <PEOE_VSA2>
0

>  <PEOE_VSA3>
0

>  <PEOE_VSA4>
0

>  <PEOE_VSA5>
11.6

>  <PEOE_VSA6>
34.8

>  <PEOE_VSA7>
0

>  <PEOE_VSA8>
0

>  <PEOE_VSA9>
5.88

>  <PEOE_VSA10>
0

>  <PEOE_VSA11>
0

>  <PEOE_VSA12>
3.79

>  <PEOE_VSA13>
0

>  <SMR_VSA1>
0

>  <SMR_VSA2>
0

>  <SMR_VSA3>
0

>  <SMR_VSA4>
0

>  <SMR_VSA5>
3.79

>  <SMR_VSA6>
5.88

>  <SMR_VSA7>
0

>  <SMR_VSA8>
0

>  <SMR_VSA9>
0

>  <SlogP_VSA1>
0

>  <SlogP_VSA2>
9.67

>  <SlogP_VSA3>
0

>  <SlogP_VSA4>
0

>  <SlogP_VSA5>
0

>  <SlogP_VSA6>
0

>  <SlogP_VSA7>
0

>  <SlogP_VSA8>
0

>  <SlogP_VSA9>
0

>  <SlogP_VSA10>
0

>  <SlogP_VSA11>
0

>  <EState_VSA1>
3.79

>  <EState_VSA2>
5.88

>  <EState_VSA3>
0

>  <EState_VSA4>
0

>  <EState_VSA5>
0

>  <EState_VSA6>
0

>  <EState_VSA7>
0

>  <EState_VSA8>
0

>  <EState_VSA9>
46.4

>  <EState_VSA10>
0

>  <VSA_EState1>
-1.28

>  <VSA_EState2>
0

>  <VSA_EState3>
0

>  <VSA_EState4>
0

>  <VSA_EState5>
0.04

>  <VSA_EState6>
0

>  <VSA_EState7>
0

>  <VSA_EState8>
0

>  <VSA_EState9>
0

>  <apol>
13.39

>  <bpol>
4.05

>  <nRing>
0

>  <nHRing>
0

>  <naRing>
0

>  <naHRing>
0

>  <nARing 2>
0

>  <nAHRing 2>
0

>  <nFRing>
0

>  <nFHRing>
0

>  <nFaRing>
0

>  <nFaHRing>
0

>  <nFARing 2>
0

>  <nFAHRing 2>
0

>  <nRot>
0

>  <SLogP>
2.6

>  <SMR>
31.01

>  <TopoPSA(NO)>
0

>  <TopoPSA>
0

>  <JGI1>
0.6

>  <JGI2>
0.1

>  <JGI3>
0

>  <JGI4>
0

>  <JGI5>
0

>  <Diameter>
3

>  <Radius>
2

>  <TMWC10>
65.41

>  <TSRW10>
31.67

>  <MW>
165.89

>  <AMW>
20.74

>  <WPath>
28

>  <WPol>
3

>  <Zagreb1>
24

>  <Zagreb2>
22

>  <mZagreb2>
1.38

>  <yes>


>  <nAR-cont>
0.336376

>  <nHA-cont>
0.238778273

>  <MWHBN>
0

>  <MWHBN-cont>
0

>  <TPSA-cont>
0

>  <pka_cont>
0.97

>  <yes.1>


>  <BBB_SCORE>
1.060154273

>  <MMFF94 Energy>
22.249

$$$$
Compound 521
Actelion Java MolfileCreator 2.0

  0  0  0  0  0  0              0 V3000
M  V30 BEGIN CTAB
M  V30 COUNTS 39 39 0 0 0
M  V30 BEGIN ATOM
M  V30 1 O 1.8655 0.6992 -1.7877 0
M  V30 2 C 1.1555 0.0085 -1.0618 0
M  V30 3 N 0.0507 0.4437 -0.3544 0
M  V30 4 C 1.3806 -1.5069 -0.933 0
M  V30 5 C -0.4898 1.7381 -0.3964 0
M  V30 6 N 0.7449 -2.0539 0.3041 0
M  V30 7 C 0.2613 2.8684 -0.0198 0
M  V30 8 C -1.8454 1.873 -0.7656 0
M  V30 9 C 1.6125 -1.7575 1.4669 0
M  V30 10 C 0.5366 -3.5088 0.1691 0
M  V30 11 C -0.3423 4.1352 -0.0845 0
M  V30 12 C 1.6923 2.7923 0.4358 0
M  V30 13 C -2.4241 3.1501 -0.7976 0
M  V30 14 C -2.6834 0.6817 -1.1443 0
M  V30 15 C 0.8373 -1.8123 2.7794 0
M  V30 16 C -0.6817 -3.8294 -0.6919 0
M  V30 17 C -1.674 4.2752 -0.4678 0
M  V30 18 H -0.4672 -0.2891 0.1234 0
M  V30 19 H 0.929 -1.9367 -1.8332 0
M  V30 20 H 2.456 -1.7191 -0.958 0
M  V30 21 H 2.4743 -2.4357 1.5032 0
M  V30 22 H 2.0191 -0.7416 1.3898 0
M  V30 23 H 1.4291 -4.0032 -0.2343 0
M  V30 24 H 0.346 -3.961 1.1486 0
M  V30 25 H 0.2273 5.0252 0.175 0
M  V30 26 H 2.3689 2.8652 -0.4202 0
M  V30 27 H 1.9237 3.6133 1.124 0
M  V30 28 H 1.8919 1.8675 0.9854 0
M  V30 29 H -3.4639 3.2774 -1.0901 0
M  V30 30 H -2.8034 0.0139 -0.2852 0
M  V30 31 H -2.2184 0.1346 -1.9708 0
M  V30 32 H -3.6842 0.9816 -1.4733 0
M  V30 33 H 1.4825 -1.4953 3.6056 0
M  V30 34 H 0.4804 -2.8199 3.0097 0
M  V30 35 H -0.0261 -1.1387 2.7532 0
M  V30 36 H -0.8687 -4.9085 -0.6836 0
M  V30 37 H -0.5459 -3.529 -1.7344 0
M  V30 38 H -1.5777 -3.3324 -0.3045 0
M  V30 39 H -2.1271 5.2624 -0.5065 0
M  V30 END ATOM
M  V30 BEGIN BOND
M  V30 1 2 1 2
M  V30 2 1 2 3
M  V30 3 1 2 4
M  V30 4 1 3 5
M  V30 5 1 4 6
M  V30 6 2 5 7
M  V30 7 1 5 8
M  V30 8 1 6 9
M  V30 9 1 6 10
M  V30 10 1 7 11
M  V30 11 1 7 12
M  V30 12 2 8 13
M  V30 13 1 8 14
M  V30 14 1 9 15
M  V30 15 1 10 16
M  V30 16 2 11 17
M  V30 17 1 13 17
M  V30 18 1 3 18
M  V30 19 1 4 19
M  V30 20 1 4 20
M  V30 21 1 9 21
M  V30 22 1 9 22
M  V30 23 1 10 23
M  V30 24 1 10 24
M  V30 25 1 11 25
M  V30 26 1 12 26
M  V30 27 1 12 27
M  V30 28 1 12 28
M  V30 29 1 13 29
M  V30 30 1 14 30
M  V30 31 1 14 31
M  V30 32 1 14 32
M  V30 33 1 15 33
M  V30 34 1 15 34
M  V30 35 1 15 35
M  V30 36 1 16 36
M  V30 37 1 16 37
M  V30 38 1 16 38
M  V30 39 1 17 39
M  V30 END BOND
M  V30 END CTAB
M  END
>  <Column 1>
640

>  <level_0>
730

>  <index>
730

>  <Unnamed: 0>
730

>  <NO.>
742

>  <Name>
lidocaine

>  <IUPAC_name>
2-(diethylamino)-n-(2-6-dimethylphenyl)acetamide

>  <SMILES>
CCN(CC)CC(=O)Nc1c(C)cccc1C

>  <CID>
3676

>  <logBB>
0.34

>  <BBB+/BBB->
BBB+

>  <Inchi>
InChI=1S/C14H22N2O/c1-5-16(6-2)10-13(17)15-14-11(3)8-7-9-12(14)4/h7-9H-5-6-10H2-1-4H3-(H-15-17)

>  <threshold>


>  <reference>
R2|R2|R3|R8|R18|R21|R25|R26|R27|R27|R27|R38|R41|R42|R43|R46|R47|R40|

>  <group>
A

>  <Class>
1

>  <ABC>
12.27

>  <ABCGG>
11.49

>  <nAcid>
0

>  <nBase>
1

>  <nAromAtom>
6

>  <nAromBond>
6

>  <nAtom>
39

>  <nHeavyAtom>
17

>  <nSpiro>
0

>  <nBridgehead>
0

>  <nHetero>
3

>  <nN>
2

>  <nO>
1

>  <nF>
0

>  <BalabanJ>
2.4

>  <BertzCT>
363.56

>  <nBonds>
39

>  <nBondsO>
17

>  <nBondsS>
32

>  <nBondsD>
1

>  <nBondsT>
0

>  <nBondsA>
6

>  <nBondsM>
7

>  <nBondsKS>
35

>  <nBondsKD>
4

>  <RNCG>
0.25

>  <RPCG>
0.18

>  <FCSP3>
0.5

>  <SZ>
21.33

>  <Sm>
19.51

>  <Sv>
22.19

>  <Sse>
38.42

>  <Sp>
24.58

>  <Si>
44.36

>  <MZ>
0.55

>  <Mm>
0.5

>  <Mv>
0.57

>  <Mse>
0.99

>  <Mp>
0.63

>  <Mi>
1.14

>  <NsCH3>
4

>  <NdCH2>
0

>  <NssCH2>
3

>  <NtCH>
0

>  <NdsCH>
0

>  <NaaCH>
3

>  <NsssCH>
0

>  <NddC>
0

>  <NtsC>
0

>  <NdssC>
1

>  <NaasC>
3

>  <NaaaC>
0

>  <NssssC>
0

>  <NsNH3>
0

>  <NsNH2>
0

>  <NssNH2>
0

>  <NdNH>
0

>  <NssNH>
1

>  <NaaNH>
0

>  <NtN>
0

>  <NsssNH>
0

>  <NdsN>
0

>  <NaaN>
0

>  <NsssN>
1

>  <NddsN>
0

>  <NaasN>
0

>  <NssssN>
0

>  <NsOH>
0

>  <NdO>
1

>  <NssO>
0

>  <NaaO>
0

>  <NsF>
0

>  <NsSiH3>
0

>  <NssSiH2>
0

>  <NsssSiH>
0

>  <NssssSi>
0

>  <NsPH2>
0

>  <NssPH>
0

>  <NsssP>
0

>  <NdsssP>
0

>  <NsssssP>
0

>  <NsSH>
0

>  <NdS>
0

>  <NssS>
0

>  <NaaS>
0

>  <NdssS>
0

>  <NddssS>
0

>  <NsCl>
0

>  <NsBr>
0

>  <NsI>
0

>  <fragCpx>
17.03

>  <fMF>
0.15

>  <nHBAcc>
2

>  <nHBDon>
1

>  <Kier1>
15.06

>  <Kier2>
7.44

>  <Lipinski>
1

>  <GhoseFilter>
1

>  <FilterItLogS>
-4.05

>  <VMcGowan>
205.89

>  <LabuteASA>
103.82

>  <PEOE_VSA1>
5.32

>  <PEOE_VSA2>
9.69

>  <PEOE_VSA3>
0

>  <PEOE_VSA4>
0

>  <PEOE_VSA5>
0

>  <PEOE_VSA6>
32.05

>  <PEOE_VSA7>
38.06

>  <PEOE_VSA8>
5.69

>  <PEOE_VSA9>
6.54

>  <PEOE_VSA10>
0

>  <PEOE_VSA11>
0

>  <PEOE_VSA12>
5.91

>  <PEOE_VSA13>
0

>  <SMR_VSA1>
4.79

>  <SMR_VSA2>
0

>  <SMR_VSA3>
4.9

>  <SMR_VSA4>
0

>  <SMR_VSA5>
27.69

>  <SMR_VSA6>
24.95

>  <SMR_VSA7>
29.33

>  <SMR_VSA8>
0

>  <SMR_VSA9>
0

>  <SlogP_VSA1>
5.32

>  <SlogP_VSA2>
30.44

>  <SlogP_VSA3>
4.79

>  <SlogP_VSA4>
13.85

>  <SlogP_VSA5>
24.97

>  <SlogP_VSA6>
18.2

>  <SlogP_VSA7>
0

>  <SlogP_VSA8>
0

>  <SlogP_VSA9>
0

>  <SlogP_VSA10>
5.69

>  <SlogP_VSA11>
0

>  <EState_VSA1>
0

>  <EState_VSA2>
5.91

>  <EState_VSA3>
6.54

>  <EState_VSA4>
29.9

>  <EState_VSA5>
0

>  <EState_VSA6>
0

>  <EState_VSA7>
32.05

>  <EState_VSA8>
24.06

>  <EState_VSA9>
0

>  <EState_VSA10>
4.79

>  <VSA_EState1>
0

>  <VSA_EState2>
13.99

>  <VSA_EState3>
3

>  <VSA_EState4>
3.17

>  <VSA_EState5>
0.06

>  <VSA_EState6>
6.03

>  <VSA_EState7>
0

>  <VSA_EState8>
10.42

>  <VSA_EState9>
0

>  <apol>
41.05

>  <bpol>
25.22

>  <nRing>
1

>  <nHRing>
0

>  <naRing>
1

>  <naHRing>
0

>  <nARing 2>
0

>  <nAHRing 2>
0

>  <nFRing>
0

>  <nFHRing>
0

>  <nFaRing>
0

>  <nFaHRing>
0

>  <nFARing 2>
0

>  <nFAHRing 2>
0

>  <nRot>
5

>  <SLogP>
2.58

>  <SMR>
72.33

>  <TopoPSA(NO)>
32.34

>  <TopoPSA>
32.34

>  <JGI1>
0.24

>  <JGI2>
0.09

>  <JGI3>
0.06

>  <JGI4>
0.05

>  <JGI5>
0.01

>  <Diameter>
9

>  <Radius>
5

>  <TMWC10>
102.92

>  <TSRW10>
48.86

>  <MW>
234.17

>  <AMW>
6

>  <WPath>
556

>  <WPol>
23

>  <Zagreb1>
78

>  <Zagreb2>
87

>  <mZagreb2>
4.06

>  <yes>


>  <nAR-cont>
0.336376

>  <nHA-cont>
0.976740822

>  <MWHBN>
0.196044935

>  <MWHBN-cont>
0.998568735

>  <TPSA-cont>
0.774246718

>  <pka_cont>
0.97

>  <yes.1>


>  <BBB_SCORE>
4.84446336

>  <MMFF94 Energy>
49.967

$$$$
Compound 522
Actelion Java MolfileCreator 2.0

  0  0  0  0  0  0              0 V3000
M  V30 BEGIN CTAB
M  V30 COUNTS 11 10 0 0 0
M  V30 BEGIN ATOM
M  V30 1 Br -0.6166 -2.1152 -1.2335 0
M  V30 2 C 0.6614 -0.8835 -0.4215 0 CFG=2
M  V30 3 Cl 1.9468 -1.8779 0.3181 0
M  V30 4 C 0.0078 -0.019 0.6349 0
M  V30 5 C -0.7478 1.1204 0.0042 0
M  V30 6 F 0.0675 1.8651 -0.7733 0
M  V30 7 F -1.7773 0.7026 -0.7543 0
M  V30 8 F -1.2505 1.9338 0.9596 0
M  V30 9 H 1.1139 -0.3083 -1.2336 0
M  V30 10 H -0.6623 -0.6003 1.2791 0
M  V30 11 H 0.7734 0.4201 1.2869 0
M  V30 END ATOM
M  V30 BEGIN BOND
M  V30 1 1 1 2
M  V30 2 1 2 3
M  V30 3 1 2 4
M  V30 4 1 4 5
M  V30 5 1 5 6
M  V30 6 1 5 7
M  V30 7 1 5 8
M  V30 8 1 2 9
M  V30 9 1 4 10
M  V30 10 1 4 11
M  V30 END BOND
M  V30 BEGIN COLLECTION
M  V30 MDLV30/STERAC1 ATOMS=(1 2)
M  V30 END COLLECTION
M  V30 END CTAB
M  END
>  <Column 1>
642

>  <level_0>
732

>  <index>
732

>  <Unnamed: 0>
732

>  <NO.>
744

>  <Name>
lin_train_45

>  <IUPAC_name>
3-bromo-3-chloro-1-1-1-trifluoropropane

>  <SMILES>
FC(F)(F)CC(Cl)Br

>  <CID>
18356503

>  <logBB>
0.35

>  <BBB+/BBB->
BBB+

>  <Inchi>
InChI=1S/C3H3BrClF3/c4-2(5)1-3(6-7)8/h2H-1H2

>  <threshold>


>  <reference>
R2|R2|R8|R27|R40|R12|R21|R25|R27|R43|R46|R47|

>  <group>
A

>  <Class>
1

>  <ABC>
5.65

>  <ABCGG>
5.87

>  <nAcid>
0

>  <nBase>
0

>  <nAromAtom>
0

>  <nAromBond>
0

>  <nAtom>
11

>  <nHeavyAtom>
8

>  <nSpiro>
0

>  <nBridgehead>
0

>  <nHetero>
5

>  <nN>
0

>  <nO>
0

>  <nF>
3

>  <BalabanJ>
3.39

>  <BertzCT>
69.42

>  <nBonds>
10

>  <nBondsO>
7

>  <nBondsS>
10

>  <nBondsD>
0

>  <nBondsT>
0

>  <nBondsA>
0

>  <nBondsM>
0

>  <nBondsKS>
10

>  <nBondsKD>
0

>  <RNCG>
0.25

>  <RPCG>
0.56

>  <FCSP3>
1

>  <SZ>
16.67

>  <Sm>
17.6

>  <Sv>
8.13

>  <Sse>
12.64

>  <Sp>
8.33

>  <Si>
13.47

>  <MZ>
1.52

>  <Mm>
1.6

>  <Mv>
0.74

>  <Mse>
1.15

>  <Mp>
0.76

>  <Mi>
1.22

>  <NsCH3>
0

>  <NdCH2>
0

>  <NssCH2>
1

>  <NtCH>
0

>  <NdsCH>
0

>  <NaaCH>
0

>  <NsssCH>
1

>  <NddC>
0

>  <NtsC>
0

>  <NdssC>
0

>  <NaasC>
0

>  <NaaaC>
0

>  <NssssC>
1

>  <NsNH3>
0

>  <NsNH2>
0

>  <NssNH2>
0

>  <NdNH>
0

>  <NssNH>
0

>  <NaaNH>
0

>  <NtN>
0

>  <NsssNH>
0

>  <NdsN>
0

>  <NaaN>
0

>  <NsssN>
0

>  <NddsN>
0

>  <NaasN>
0

>  <NssssN>
0

>  <NsOH>
0

>  <NdO>
0

>  <NssO>
0

>  <NaaO>
0

>  <NsF>
3

>  <NsSiH3>
0

>  <NssSiH2>
0

>  <NsssSiH>
0

>  <NssssSi>
0

>  <NsPH2>
0

>  <NssPH>
0

>  <NsssP>
0

>  <NdsssP>
0

>  <NsssssP>
0

>  <NsSH>
0

>  <NdS>
0

>  <NssS>
0

>  <NaaS>
0

>  <NdssS>
0

>  <NddssS>
0

>  <NsCl>
1

>  <NsBr>
1

>  <NsI>
0

>  <fragCpx>
7.05

>  <fMF>
0

>  <nHBAcc>
0

>  <nHBDon>
0

>  <Kier1>
8

>  <Kier2>
2.52

>  <Lipinski>
1

>  <GhoseFilter>
0

>  <FilterItLogS>
-2.69

>  <VMcGowan>
88.15

>  <LabuteASA>
58.14

>  <PEOE_VSA1>
0

>  <PEOE_VSA2>
0

>  <PEOE_VSA3>
0

>  <PEOE_VSA4>
13.17

>  <PEOE_VSA5>
11.6

>  <PEOE_VSA6>
15.93

>  <PEOE_VSA7>
0

>  <PEOE_VSA8>
0

>  <PEOE_VSA9>
10.71

>  <PEOE_VSA10>
0

>  <PEOE_VSA11>
0

>  <PEOE_VSA12>
0

>  <PEOE_VSA13>
0

>  <SMR_VSA1>
13.17

>  <SMR_VSA2>
0

>  <SMR_VSA3>
0

>  <SMR_VSA4>
0

>  <SMR_VSA5>
16.88

>  <SMR_VSA6>
0

>  <SMR_VSA7>
0

>  <SMR_VSA8>
0

>  <SMR_VSA9>
0

>  <SlogP_VSA1>
0

>  <SlogP_VSA2>
10.46

>  <SlogP_VSA3>
0

>  <SlogP_VSA4>
0

>  <SlogP_VSA5>
6.42

>  <SlogP_VSA6>
0

>  <SlogP_VSA7>
0

>  <SlogP_VSA8>
0

>  <SlogP_VSA9>
0

>  <SlogP_VSA10>
13.17

>  <SlogP_VSA11>
0

>  <EState_VSA1>
16.88

>  <EState_VSA2>
0

>  <EState_VSA3>
0

>  <EState_VSA4>
0

>  <EState_VSA5>
0

>  <EState_VSA6>
0

>  <EState_VSA7>
0

>  <EState_VSA8>
15.93

>  <EState_VSA9>
11.6

>  <EState_VSA10>
13.17

>  <VSA_EState1>
32.58

>  <VSA_EState2>
0

>  <VSA_EState3>
0

>  <VSA_EState4>
0

>  <VSA_EState5>
0

>  <VSA_EState6>
0

>  <VSA_EState7>
-5.15

>  <VSA_EState8>
0

>  <VSA_EState9>
0

>  <apol>
13.91

>  <bpol>
8.24

>  <nRing>
0

>  <nHRing>
0

>  <naRing>
0

>  <naHRing>
0

>  <nARing 2>
0

>  <nAHRing 2>
0

>  <nFRing>
0

>  <nFHRing>
0

>  <nFaRing>
0

>  <nFaHRing>
0

>  <nFARing 2>
0

>  <nFAHRing 2>
0

>  <nRot>
1

>  <SLogP>
2.9

>  <SMR>
29.24

>  <TopoPSA(NO)>
0

>  <TopoPSA>
0

>  <JGI1>
0.57

>  <JGI2>
0.07

>  <JGI3>
0.15

>  <JGI4>
0

>  <JGI5>
0

>  <Diameter>
4

>  <Radius>
2

>  <TMWC10>
73.74

>  <TSRW10>
35.39

>  <MW>
209.91

>  <AMW>
19.08

>  <WPath>
66

>  <WPol>
5

>  <Zagreb1>
34

>  <Zagreb2>
32

>  <mZagreb2>
1.71

>  <yes>


>  <nAR-cont>
0.336376

>  <nHA-cont>
0.464727961

>  <MWHBN>
0

>  <MWHBN-cont>
0

>  <TPSA-cont>
0

>  <pka_cont>
0.97

>  <yes.1>


>  <BBB_SCORE>
1.286103961

>  <MMFF94 Energy>
-26.355

$$$$
Compound 523
Actelion Java MolfileCreator 2.0

  0  0  0  0  0  0              0 V3000
M  V30 BEGIN CTAB
M  V30 COUNTS 41 45 0 0 0
M  V30 BEGIN ATOM
M  V30 1 O 2.5266 2.3635 2.2819 0
M  V30 2 C 1.9797 1.3054 1.9602 0
M  V30 3 C 2.1491 0.6927 0.5588 0 CFG=2
M  V30 4 C 1.1901 0.5206 2.9821 0
M  V30 5 O 2.2877 1.7872 -0.4115 0
M  V30 6 C 0.9611 -0.1652 0.0994 0 CFG=2
M  V30 7 C -0.1324 0.0367 2.3961 0
M  V30 8 C 0.9968 1.9869 -0.8374 0
M  V30 9 C 0.1711 0.9306 -0.5232 0
M  V30 10 C 0.1168 -0.8571 1.1766 0 CFG=2
M  V30 11 C 1.3579 -1.1804 -0.9988 0
M  V30 12 C 0.4898 3.096 -1.4687 0
M  V30 13 C -1.1957 0.9459 -0.7272 0
M  V30 14 O 0.8348 -2.0061 1.6728 0
M  V30 15 C -1.1882 -1.3569 0.4605 0 CFG=1
M  V30 16 C 0.1414 -1.9458 -1.5489 0
M  V30 17 O 1.2798 4.1535 -1.7907 0
M  V30 18 C -0.877 3.1367 -1.7485 0
M  V30 19 C -1.7229 2.0721 -1.3637 0
M  V30 20 C -2.0218 -0.1854 -0.1715 0
M  V30 21 N -0.7433 -2.4356 -0.4787 0
M  V30 22 C -1.8626 -3.1938 -1.0369 0
M  V30 23 H 3.083 0.119 0.5694 0
M  V30 24 H 0.987 1.1705 3.8406 0
M  V30 25 H 1.8107 -0.3095 3.3343 0
M  V30 26 H -0.7574 0.9006 2.1454 0
M  V30 27 H -0.6641 -0.5312 3.1694 0
M  V30 28 H 2.0761 -1.9008 -0.5858 0
M  V30 29 H 1.8703 -0.6884 -1.8359 0
M  V30 30 H 0.5618 -2.7464 1.0867 0
M  V30 31 H -1.8155 -1.8504 1.2155 0
M  V30 32 H 0.5187 -2.7977 -2.1283 0
M  V30 33 H -0.4099 -1.3141 -2.256 0
M  V30 34 H 2.1628 3.9497 -1.426 0
M  V30 35 H -1.2968 4.0118 -2.2382 0
M  V30 36 H -2.7911 2.1501 -1.5534 0
M  V30 37 H -2.6522 0.2349 0.6232 0
M  V30 38 H -2.7026 -0.5568 -0.9436 0
M  V30 39 H -2.4723 -2.6056 -1.7298 0
M  V30 40 H -1.4905 -4.0706 -1.5786 0
M  V30 41 H -2.5104 -3.5732 -0.2394 0
M  V30 END ATOM
M  V30 BEGIN BOND
M  V30 1 2 1 2
M  V30 2 1 2 3
M  V30 3 1 2 4
M  V30 4 1 3 5
M  V30 5 1 3 6
M  V30 6 1 4 7
M  V30 7 1 5 8
M  V30 8 1 6 9
M  V30 9 1 6 10
M  V30 10 1 6 11
M  V30 11 1 8 12
M  V30 12 1 9 13
M  V30 13 1 10 14
M  V30 14 1 10 15
M  V30 15 1 11 16
M  V30 16 1 12 17
M  V30 17 2 12 18
M  V30 18 2 13 19
M  V30 19 1 13 20
M  V30 20 1 15 21
M  V30 21 1 21 22
M  V30 22 1 7 10
M  V30 23 2 8 9
M  V30 24 1 15 20
M  V30 25 1 16 21
M  V30 26 1 18 19
M  V30 27 1 3 23
M  V30 28 1 4 24
M  V30 29 1 4 25
M  V30 30 1 7 26
M  V30 31 1 7 27
M  V30 32 1 11 28
M  V30 33 1 11 29
M  V30 34 1 14 30
M  V30 35 1 15 31
M  V30 36 1 16 32
M  V30 37 1 16 33
M  V30 38 1 17 34
M  V30 39 1 18 35
M  V30 40 1 19 36
M  V30 41 1 20 37
M  V30 42 1 20 38
M  V30 43 1 22 39
M  V30 44 1 22 40
M  V30 45 1 22 41
M  V30 END BOND
M  V30 BEGIN COLLECTION
M  V30 MDLV30/STEABS ATOMS=(4 3 6 10 15)
M  V30 END COLLECTION
M  V30 END CTAB
M  END
>  <Column 1>
643

>  <level_0>
733

>  <index>
733

>  <Unnamed: 0>
733

>  <NO.>
745

>  <Name>
oxymorphone

>  <IUPAC_name>
(4r-4as-7ar-12bs)-4a-9-dihydroxy-3-methyl-2-4-5-6-7a-13-hexahydro-1h-4-12-methanobenzofuro[3-2-e]isoquinolin-7-one

>  <SMILES>
CN1CC[C@]23c4c5ccc(O)c4O[C@H]2C(=O)CC[C@@]3(O)[C@H]1C5

>  <CID>
5284604

>  <logBB>
0.35

>  <BBB+/BBB->
BBB+

>  <Inchi>
InChI=1S/C17H19NO4/c1-18-7-6-16-13-9-2-3-10(19)14(13)22-15(16)11(20)4-5-17(16-21)12(18)8-9/h2-3-12-15-19-21H-4-8H2-1H3/t12--15+-16+-17-/m1/s1

>  <threshold>


>  <reference>
R25|

>  <group>
A

>  <Class>
1

>  <ABC>
18.39

>  <ABCGG>
14.37

>  <nAcid>
0

>  <nBase>
1

>  <nAromAtom>
6

>  <nAromBond>
6

>  <nAtom>
41

>  <nHeavyAtom>
22

>  <nSpiro>
1

>  <nBridgehead>
2

>  <nHetero>
5

>  <nN>
1

>  <nO>
4

>  <nF>
0

>  <BalabanJ>
1.7

>  <BertzCT>
716.86

>  <nBonds>
45

>  <nBondsO>
26

>  <nBondsS>
38

>  <nBondsD>
1

>  <nBondsT>
0

>  <nBondsA>
6

>  <nBondsM>
7

>  <nBondsKS>
41

>  <nBondsKD>
4

>  <RNCG>
0.24

>  <RPCG>
0.14

>  <FCSP3>
0.59

>  <SZ>
26.67

>  <Sm>
25.09

>  <Sv>
25.76

>  <Sse>
41.42

>  <Sp>
27.17

>  <Si>
46.07

>  <MZ>
0.65

>  <Mm>
0.61

>  <Mv>
0.63

>  <Mse>
1.01

>  <Mp>
0.66

>  <Mi>
1.12

>  <NsCH3>
1

>  <NdCH2>
0

>  <NssCH2>
5

>  <NtCH>
0

>  <NdsCH>
0

>  <NaaCH>
2

>  <NsssCH>
2

>  <NddC>
0

>  <NtsC>
0

>  <NdssC>
1

>  <NaasC>
4

>  <NaaaC>
0

>  <NssssC>
2

>  <NsNH3>
0

>  <NsNH2>
0

>  <NssNH2>
0

>  <NdNH>
0

>  <NssNH>
0

>  <NaaNH>
0

>  <NtN>
0

>  <NsssNH>
0

>  <NdsN>
0

>  <NaaN>
0

>  <NsssN>
1

>  <NddsN>
0

>  <NaasN>
0

>  <NssssN>
0

>  <NsOH>
2

>  <NdO>
1

>  <NssO>
1

>  <NaaO>
0

>  <NsF>
0

>  <NsSiH3>
0

>  <NssSiH2>
0

>  <NsssSiH>
0

>  <NssssSi>
0

>  <NsPH2>
0

>  <NssPH>
0

>  <NsssP>
0

>  <NdsssP>
0

>  <NsssssP>
0

>  <NsSH>
0

>  <NdS>
0

>  <NssS>
0

>  <NaaS>
0

>  <NdssS>
0

>  <NddssS>
0

>  <NsCl>
0

>  <NsBr>
0

>  <NsI>
0

>  <fragCpx>
214.05

>  <fMF>
0.44

>  <nHBAcc>
5

>  <nHBDon>
2

>  <Kier1>
14.35

>  <Kier2>
4.34

>  <Lipinski>
1

>  <GhoseFilter>
1

>  <FilterItLogS>
-2.56

>  <VMcGowan>
212.35

>  <LabuteASA>
128.05

>  <PEOE_VSA1>
19.85

>  <PEOE_VSA2>
4.79

>  <PEOE_VSA3>
0

>  <PEOE_VSA4>
0

>  <PEOE_VSA5>
0

>  <PEOE_VSA6>
6.07

>  <PEOE_VSA7>
44.48

>  <PEOE_VSA8>
18.03

>  <PEOE_VSA9>
11.02

>  <PEOE_VSA10>
0

>  <PEOE_VSA11>
23.39

>  <PEOE_VSA12>
0

>  <PEOE_VSA13>
0

>  <SMR_VSA1>
19.74

>  <SMR_VSA2>
0

>  <SMR_VSA3>
4.9

>  <SMR_VSA4>
0

>  <SMR_VSA5>
48.85

>  <SMR_VSA6>
13.59

>  <SMR_VSA7>
23.26

>  <SMR_VSA8>
0

>  <SMR_VSA9>
11.5

>  <SlogP_VSA1>
4.74

>  <SlogP_VSA2>
52.24

>  <SlogP_VSA3>
16.63

>  <SlogP_VSA4>
0

>  <SlogP_VSA5>
30.39

>  <SlogP_VSA6>
12.13

>  <SlogP_VSA7>
0

>  <SlogP_VSA8>
0

>  <SlogP_VSA9>
0

>  <SlogP_VSA10>
0

>  <SlogP_VSA11>
11.5

>  <EState_VSA1>
17.12

>  <EState_VSA2>
17.57

>  <EState_VSA3>
25.01

>  <EState_VSA4>
24.09

>  <EState_VSA5>
0

>  <EState_VSA6>
6.07

>  <EState_VSA7>
13.11

>  <EState_VSA8>
4.9

>  <EState_VSA9>
4.74

>  <EState_VSA10>
15.01

>  <VSA_EState1>
5.94

>  <VSA_EState2>
14.74

>  <VSA_EState3>
21.84

>  <VSA_EState4>
0.37

>  <VSA_EState5>
0.56

>  <VSA_EState6>
3.57

>  <VSA_EState7>
1.61

>  <VSA_EState8>
0.83

>  <VSA_EState9>
2.04

>  <apol>
45.37

>  <bpol>
23.37

>  <nRing>
5

>  <nHRing>
2

>  <naRing>
1

>  <naHRing>
0

>  <nARing 2>
4

>  <nAHRing 2>
2

>  <nFRing>
1

>  <nFHRing>
1

>  <nFaRing>
0

>  <nFaHRing>
0

>  <nFARing 2>
1

>  <nFAHRing 2>
1

>  <nRot>
0

>  <SLogP>
0.75

>  <SMR>
78.13

>  <TopoPSA(NO)>
70

>  <TopoPSA>
70

>  <JGI1>
0.23

>  <JGI2>
0.13

>  <JGI3>
0.06

>  <JGI4>
0.06

>  <JGI5>
0.03

>  <Diameter>
8

>  <Radius>
4

>  <TMWC10>
128.45

>  <TSRW10>
73.02

>  <MW>
301.13

>  <AMW>
7.34

>  <WPath>
788

>  <WPol>
55

>  <Zagreb1>
140

>  <Zagreb2>
186

>  <mZagreb2>
4.45

>  <yes>


>  <nAR-cont>
0.199399

>  <nHA-cont>
0.983774276

>  <MWHBN>
0.403386192

>  <MWHBN-cont>
0.462743983

>  <TPSA-cont>
0.511356533

>  <pka_cont>
0.97

>  <yes.1>


>  <BBB_SCORE>
3.385002315

>  <MMFF94 Energy>
93.511

$$$$
Compound 524
Actelion Java MolfileCreator 2.0

  0  0  0  0  0  0              0 V3000
M  V30 BEGIN CTAB
M  V30 COUNTS 14 13 0 0 0
M  V30 BEGIN ATOM
M  V30 1 Br -1.7148 1.2859 -2.1439 0
M  V30 2 C -1.1343 -0.4776 -1.5565 0 CFG=2
M  V30 3 Cl -2.48 -1.3083 -0.7571 0
M  V30 4 C 0.1112 -0.3822 -0.6783 0
M  V30 5 C -0.0868 0.283 0.6909 0
M  V30 6 C 1.2153 0.3531 1.4592 0
M  V30 7 F 1.7235 -0.8793 1.6698 0
M  V30 8 F 2.138 1.0746 0.7883 0
M  V30 9 F 1.0304 0.9356 2.6627 0
M  V30 10 H -0.9046 -1.0255 -2.4751 0
M  V30 11 H 0.8947 0.1567 -1.2268 0
M  V30 12 H 0.4974 -1.3975 -0.5177 0
M  V30 13 H -0.8118 -0.278 1.2895 0
M  V30 14 H -0.478 1.2988 0.5747 0
M  V30 END ATOM
M  V30 BEGIN BOND
M  V30 1 1 1 2
M  V30 2 1 2 3
M  V30 3 1 2 4
M  V30 4 1 4 5
M  V30 5 1 5 6
M  V30 6 1 6 7
M  V30 7 1 6 8
M  V30 8 1 6 9
M  V30 9 1 2 10
M  V30 10 1 4 11
M  V30 11 1 4 12
M  V30 12 1 5 13
M  V30 13 1 5 14
M  V30 END BOND
M  V30 BEGIN COLLECTION
M  V30 MDLV30/STERAC1 ATOMS=(1 2)
M  V30 END COLLECTION
M  V30 END CTAB
M  END
>  <Column 1>
644

>  <level_0>
734

>  <index>
734

>  <Unnamed: 0>
734

>  <NO.>
746

>  <Name>
4-bromo-4-chloro-1-1-1- trifluoro-butane

>  <IUPAC_name>


>  <SMILES>
FC(F)(F)CCC(Cl)Br

>  <CID>


>  <logBB>
0.35

>  <BBB+/BBB->
BBB+

>  <Inchi>
InChI=1S/C4H5BrClF3/c5-3(6)1-2-4(7-8)9/h3H-1-2H2

>  <threshold>


>  <reference>
R2|R2|R25|R27|R46|

>  <group>
A

>  <Class>
1

>  <ABC>
6.35

>  <ABCGG>
6.48

>  <nAcid>
0

>  <nBase>
0

>  <nAromAtom>
0

>  <nAromBond>
0

>  <nAtom>
14

>  <nHeavyAtom>
9

>  <nSpiro>
0

>  <nBridgehead>
0

>  <nHetero>
5

>  <nN>
0

>  <nO>
0

>  <nF>
3

>  <BalabanJ>
3.28

>  <BertzCT>
80.37

>  <nBonds>
13

>  <nBondsO>
8

>  <nBondsS>
13

>  <nBondsD>
0

>  <nBondsT>
0

>  <nBondsA>
0

>  <nBondsM>
0

>  <nBondsKS>
13

>  <nBondsKD>
0

>  <RNCG>
0.24

>  <RPCG>
0.54

>  <FCSP3>
1

>  <SZ>
18

>  <Sm>
18.77

>  <Sv>
9.67

>  <Sse>
15.53

>  <Sp>
10.13

>  <Si>
16.88

>  <MZ>
1.29

>  <Mm>
1.34

>  <Mv>
0.69

>  <Mse>
1.11

>  <Mp>
0.72

>  <Mi>
1.21

>  <NsCH3>
0

>  <NdCH2>
0

>  <NssCH2>
2

>  <NtCH>
0

>  <NdsCH>
0

>  <NaaCH>
0

>  <NsssCH>
1

>  <NddC>
0

>  <NtsC>
0

>  <NdssC>
0

>  <NaasC>
0

>  <NaaaC>
0

>  <NssssC>
1

>  <NsNH3>
0

>  <NsNH2>
0

>  <NssNH2>
0

>  <NdNH>
0

>  <NssNH>
0

>  <NaaNH>
0

>  <NtN>
0

>  <NsssNH>
0

>  <NdsN>
0

>  <NaaN>
0

>  <NsssN>
0

>  <NddsN>
0

>  <NaasN>
0

>  <NssssN>
0

>  <NsOH>
0

>  <NdO>
0

>  <NssO>
0

>  <NaaO>
0

>  <NsF>
3

>  <NsSiH3>
0

>  <NssSiH2>
0

>  <NsssSiH>
0

>  <NssssSi>
0

>  <NsPH2>
0

>  <NssPH>
0

>  <NsssP>
0

>  <NdsssP>
0

>  <NsssssP>
0

>  <NsSH>
0

>  <NdS>
0

>  <NssS>
0

>  <NaaS>
0

>  <NdssS>
0

>  <NddssS>
0

>  <NsCl>
1

>  <NsBr>
1

>  <NsI>
0

>  <fragCpx>
8.05

>  <fMF>
0

>  <nHBAcc>
0

>  <nHBDon>
0

>  <Kier1>
9

>  <Kier2>
3.24

>  <Lipinski>
1

>  <GhoseFilter>
0

>  <FilterItLogS>
-3.1

>  <VMcGowan>
102.24

>  <LabuteASA>
64.5

>  <PEOE_VSA1>
0

>  <PEOE_VSA2>
0

>  <PEOE_VSA3>
0

>  <PEOE_VSA4>
13.17

>  <PEOE_VSA5>
11.6

>  <PEOE_VSA6>
15.93

>  <PEOE_VSA7>
6.42

>  <PEOE_VSA8>
6.42

>  <PEOE_VSA9>
4.29

>  <PEOE_VSA10>
0

>  <PEOE_VSA11>
0

>  <PEOE_VSA12>
0

>  <PEOE_VSA13>
0

>  <SMR_VSA1>
13.17

>  <SMR_VSA2>
0

>  <SMR_VSA3>
0

>  <SMR_VSA4>
0

>  <SMR_VSA5>
23.3

>  <SMR_VSA6>
0

>  <SMR_VSA7>
0

>  <SMR_VSA8>
0

>  <SMR_VSA9>
0

>  <SlogP_VSA1>
0

>  <SlogP_VSA2>
10.46

>  <SlogP_VSA3>
0

>  <SlogP_VSA4>
0

>  <SlogP_VSA5>
12.84

>  <SlogP_VSA6>
0

>  <SlogP_VSA7>
0

>  <SlogP_VSA8>
0

>  <SlogP_VSA9>
0

>  <SlogP_VSA10>
13.17

>  <SlogP_VSA11>
0

>  <EState_VSA1>
16.88

>  <EState_VSA2>
6.42

>  <EState_VSA3>
0

>  <EState_VSA4>
0

>  <EState_VSA5>
0

>  <EState_VSA6>
0

>  <EState_VSA7>
0

>  <EState_VSA8>
15.93

>  <EState_VSA9>
11.6

>  <EState_VSA10>
13.17

>  <VSA_EState1>
33.44

>  <VSA_EState2>
0

>  <VSA_EState3>
0

>  <VSA_EState4>
0

>  <VSA_EState5>
0

>  <VSA_EState6>
0

>  <VSA_EState7>
-4.99

>  <VSA_EState8>
0

>  <VSA_EState9>
0

>  <apol>
16.91

>  <bpol>
10.25

>  <nRing>
0

>  <nHRing>
0

>  <naRing>
0

>  <naHRing>
0

>  <nARing 2>
0

>  <nAHRing 2>
0

>  <nFRing>
0

>  <nFHRing>
0

>  <nFaRing>
0

>  <nFaHRing>
0

>  <nFARing 2>
0

>  <nFAHRing 2>
0

>  <nRot>
2

>  <SLogP>
3.29

>  <SMR>
33.86

>  <TopoPSA(NO)>
0

>  <TopoPSA>
0

>  <JGI1>
0.5

>  <JGI2>
0.08

>  <JGI3>
0.06

>  <JGI4>
0.1

>  <JGI5>
0

>  <Diameter>
5

>  <Radius>
3

>  <TMWC10>
76.41

>  <TSRW10>
36.78

>  <MW>
223.92

>  <AMW>
15.99

>  <WPath>
98

>  <WPol>
6

>  <Zagreb1>
38

>  <Zagreb2>
36

>  <mZagreb2>
1.96

>  <yes>


>  <nAR-cont>
0.336376

>  <nHA-cont>
0.56070381

>  <MWHBN>
0

>  <MWHBN-cont>
0

>  <TPSA-cont>
0

>  <pka_cont>
0.97

>  <yes.1>


>  <BBB_SCORE>
1.38207981

>  <MMFF94 Energy>
-1.389

$$$$
Compound 525
Actelion Java MolfileCreator 2.0

  0  0  0  0  0  0              0 V3000
M  V30 BEGIN CTAB
M  V30 COUNTS 52 54 0 0 0
M  V30 BEGIN ATOM
M  V30 1 O -3.1503 -0.472 -4.4126 0
M  V30 2 C -2.3739 0.0866 -5.1724 0
M  V30 3 O -2.691 0.4598 -6.4419 0
M  V30 4 N -1.087 0.4454 -4.9319 0
M  V30 5 C -4.0314 0.1417 -6.8362 0
M  V30 6 C -0.3257 0.2728 -3.7795 0
M  V30 7 C -4.2296 0.6149 -8.2629 0
M  V30 8 N 0.9146 0.7942 -3.8769 0
M  V30 9 C -0.7836 -0.3759 -2.6412 0
M  V30 10 C 1.7353 0.6671 -2.8148 0
M  V30 11 C 0.0583 -0.4862 -1.534 0
M  V30 12 N 3.0206 1.1543 -2.9761 0
M  V30 13 C 1.3615 0.0295 -1.6188 0
M  V30 14 N -0.3773 -1.1481 -0.3887 0
M  V30 15 N 2.294 -0.1005 -0.5563 0
M  V30 16 C 0.3955 -0.965 0.8301 0
M  V30 17 C 1.8518 -0.6023 0.5635 0
M  V30 18 C 2.8263 -0.7859 1.7195 0
M  V30 19 N 2.6343 0.2655 2.7303 0
M  V30 20 C 1.7443 0.0979 3.7822 0
M  V30 21 C 3.1022 1.6008 2.3633 0
M  V30 22 C 1.5876 -1.1397 4.4254 0
M  V30 23 C 0.9603 1.1529 4.2716 0
M  V30 24 C 0.6821 -1.327 5.4824 0
M  V30 25 C 0.0515 0.9739 5.3232 0
M  V30 26 C -0.0954 -0.2675 5.9335 0
M  V30 27 O -1.0131 -0.3093 6.9443 0
M  V30 28 C -1.1767 -1.5537 7.6124 0
M  V30 29 H -0.6023 0.9114 -5.6835 0
M  V30 30 H -4.7421 0.6511 -6.1758 0
M  V30 31 H -4.186 -0.9416 -6.7814 0
M  V30 32 H -5.2425 0.3934 -8.6103 0
M  V30 33 H -4.0577 1.6937 -8.3385 0
M  V30 34 H -3.5118 0.1304 -8.9329 0
M  V30 35 H -1.78 -0.7958 -2.5904 0
M  V30 36 H 3.5644 1.2988 -2.1372 0
M  V30 37 H 3.2262 1.6282 -3.8399 0
M  V30 38 H -1.345 -1.4354 -0.3152 0
M  V30 39 H 0.3549 -1.8851 1.4209 0
M  V30 40 H -0.053 -0.158 1.4186 0
M  V30 41 H 3.8494 -0.7314 1.3274 0
M  V30 42 H 2.7111 -1.7995 2.1129 0
M  V30 43 H 3.4184 2.166 3.2472 0
M  V30 44 H 2.32 2.1592 1.8378 0
M  V30 45 H 3.9725 1.5422 1.7003 0
M  V30 46 H 2.2025 -1.9899 4.1446 0
M  V30 47 H 1.0202 2.1436 3.8301 0
M  V30 48 H 0.6243 -2.3121 5.9325 0
M  V30 49 H -0.5443 1.8166 5.6652 0
M  V30 50 H -1.5381 -2.3258 6.9253 0
M  V30 51 H -1.935 -1.4188 8.3897 0
M  V30 52 H -0.2482 -1.8636 8.1031 0
M  V30 END ATOM
M  V30 BEGIN BOND
M  V30 1 2 1 2
M  V30 2 1 2 3
M  V30 3 1 2 4
M  V30 4 1 3 5
M  V30 5 1 4 6
M  V30 6 1 5 7
M  V30 7 2 6 8
M  V30 8 1 6 9
M  V30 9 1 8 10
M  V30 10 2 9 11
M  V30 11 1 10 12
M  V30 12 2 10 13
M  V30 13 1 11 14
M  V30 14 1 13 15
M  V30 15 1 14 16
M  V30 16 2 15 17
M  V30 17 1 17 18
M  V30 18 1 18 19
M  V30 19 1 19 20
M  V30 20 1 19 21
M  V30 21 2 20 22
M  V30 22 1 20 23
M  V30 23 1 22 24
M  V30 24 2 23 25
M  V30 25 2 24 26
M  V30 26 1 26 27
M  V30 27 1 27 28
M  V30 28 1 11 13
M  V30 29 1 16 17
M  V30 30 1 25 26
M  V30 31 1 4 29
M  V30 32 1 5 30
M  V30 33 1 5 31
M  V30 34 1 7 32
M  V30 35 1 7 33
M  V30 36 1 7 34
M  V30 37 1 9 35
M  V30 38 1 12 36
M  V30 39 1 12 37
M  V30 40 1 14 38
M  V30 41 1 16 39
M  V30 42 1 16 40
M  V30 43 1 18 41
M  V30 44 1 18 42
M  V30 45 1 21 43
M  V30 46 1 21 44
M  V30 47 1 21 45
M  V30 48 1 22 46
M  V30 49 1 23 47
M  V30 50 1 24 48
M  V30 51 1 25 49
M  V30 52 1 28 50
M  V30 53 1 28 51
M  V30 54 1 28 52
M  V30 END BOND
M  V30 END CTAB
M  END
>  <Column 1>
645

>  <level_0>
737

>  <index>
737

>  <Unnamed: 0>
737

>  <NO.>
749

>  <Name>
nsc 269416

>  <IUPAC_name>
ethyl n-[5-amino-3-[(4-methoxy-n-methylanilino)methyl]-1-2-dihydropyrido[3-4-b]pyrazin-7-yl]carbamate

>  <SMILES>
CCOC(=O)Nc1cc2c(c(N)n1)N=C(CN(C)c1ccc(OC)cc1)CN2

>  <CID>
320742

>  <logBB>
0.36

>  <BBB+/BBB->
BBB+

>  <Inchi>
InChI=1S/C19H24N6O3/c1-4-28-19(26)24-16-9-15-17(18(20)23-16)22-12(10-21-15)11-25(2)13-5-7-14(27-3)8-6-13/h5-9-21H-4-10-11H2-1-3H3-(H3-20-23-24-26)

>  <threshold>


>  <reference>
R18|R26|R27|

>  <group>
A

>  <Class>
1

>  <ABC>
21.42

>  <ABCGG>
15.95

>  <nAcid>
0

>  <nBase>
0

>  <nAromAtom>
12

>  <nAromBond>
12

>  <nAtom>
52

>  <nHeavyAtom>
28

>  <nSpiro>
0

>  <nBridgehead>
0

>  <nHetero>
9

>  <nN>
6

>  <nO>
3

>  <nF>
0

>  <BalabanJ>
1.44

>  <BertzCT>
881.98

>  <nBonds>
54

>  <nBondsO>
30

>  <nBondsS>
40

>  <nBondsD>
2

>  <nBondsT>
0

>  <nBondsA>
12

>  <nBondsM>
14

>  <nBondsKS>
46

>  <nBondsKD>
8

>  <RNCG>
0.16

>  <RPCG>
0.13

>  <FCSP3>
0.32

>  <SZ>
34

>  <Sm>
32.01

>  <Sv>
32.19

>  <Sse>
52.62

>  <Sp>
33.98

>  <Si>
59.36

>  <MZ>
0.65

>  <Mm>
0.62

>  <Mv>
0.62

>  <Mse>
1.01

>  <Mp>
0.65

>  <Mi>
1.14

>  <NsCH3>
3

>  <NdCH2>
0

>  <NssCH2>
3

>  <NtCH>
0

>  <NdsCH>
0

>  <NaaCH>
5

>  <NsssCH>
0

>  <NddC>
0

>  <NtsC>
0

>  <NdssC>
2

>  <NaasC>
6

>  <NaaaC>
0

>  <NssssC>
0

>  <NsNH3>
0

>  <NsNH2>
1

>  <NssNH2>
0

>  <NdNH>
0

>  <NssNH>
2

>  <NaaNH>
0

>  <NtN>
0

>  <NsssNH>
0

>  <NdsN>
1

>  <NaaN>
1

>  <NsssN>
1

>  <NddsN>
0

>  <NaasN>
0

>  <NssssN>
0

>  <NsOH>
0

>  <NdO>
1

>  <NssO>
2

>  <NaaO>
0

>  <NsF>
0

>  <NsSiH3>
0

>  <NssSiH2>
0

>  <NsssSiH>
0

>  <NssssSi>
0

>  <NsPH2>
0

>  <NssPH>
0

>  <NsssP>
0

>  <NdsssP>
0

>  <NsssssP>
0

>  <NsSH>
0

>  <NdS>
0

>  <NssS>
0

>  <NaaS>
0

>  <NdssS>
0

>  <NddssS>
0

>  <NsCl>
0

>  <NsBr>
0

>  <NsI>
0

>  <fragCpx>
144.09

>  <fMF>
0.35

>  <nHBAcc>
8

>  <nHBDon>
3

>  <Kier1>
22.68

>  <Kier2>
10.86

>  <Lipinski>
1

>  <GhoseFilter>
1

>  <FilterItLogS>
-4.79

>  <VMcGowan>
289.08

>  <LabuteASA>
163.11

>  <PEOE_VSA1>
25.42

>  <PEOE_VSA2>
5.32

>  <PEOE_VSA3>
14.77

>  <PEOE_VSA4>
0

>  <PEOE_VSA5>
0

>  <PEOE_VSA6>
0

>  <PEOE_VSA7>
31.19

>  <PEOE_VSA8>
18.8

>  <PEOE_VSA9>
38.21

>  <PEOE_VSA10>
17.25

>  <PEOE_VSA11>
5.82

>  <PEOE_VSA12>
0

>  <PEOE_VSA13>
0

>  <SMR_VSA1>
14.27

>  <SMR_VSA2>
0

>  <SMR_VSA3>
4.98

>  <SMR_VSA4>
4.99

>  <SMR_VSA5>
6.92

>  <SMR_VSA6>
55.12

>  <SMR_VSA7>
30.33

>  <SMR_VSA8>
0

>  <SMR_VSA9>
5.75

>  <SlogP_VSA1>
26

>  <SlogP_VSA2>
50.64

>  <SlogP_VSA3>
4.74

>  <SlogP_VSA4>
0

>  <SlogP_VSA5>
6.92

>  <SlogP_VSA6>
35.32

>  <SlogP_VSA7>
0

>  <SlogP_VSA8>
0

>  <SlogP_VSA9>
0

>  <SlogP_VSA10>
33.49

>  <SlogP_VSA11>
5.75

>  <EState_VSA1>
6.09

>  <EState_VSA2>
12.42

>  <EState_VSA3>
24.59

>  <EState_VSA4>
22.84

>  <EState_VSA5>
0

>  <EState_VSA6>
20.1

>  <EState_VSA7>
31.31

>  <EState_VSA8>
25.51

>  <EState_VSA9>
15.21

>  <EState_VSA10>
4.79

>  <VSA_EState1>
10.05

>  <VSA_EState2>
22.5

>  <VSA_EState3>
5.83

>  <VSA_EState4>
9.31

>  <VSA_EState5>
1.37

>  <VSA_EState6>
9.51

>  <VSA_EState7>
-0.57

>  <VSA_EState8>
3.2

>  <VSA_EState9>
3.64

>  <apol>
56.74

>  <bpol>
32.98

>  <nRing>
3

>  <nHRing>
2

>  <naRing>
2

>  <naHRing>
1

>  <nARing 2>
1

>  <nAHRing 2>
1

>  <nFRing>
1

>  <nFHRing>
1

>  <nFaRing>
0

>  <nFaHRing>
0

>  <nFARing 2>
1

>  <nFAHRing 2>
1

>  <nRot>
6

>  <SLogP>
2.88

>  <SMR>
111.14

>  <TopoPSA(NO)>
114.1

>  <TopoPSA>
114.1

>  <JGI1>
0.22

>  <JGI2>
0.07

>  <JGI3>
0.05

>  <JGI4>
0.04

>  <JGI5>
0.03

>  <Diameter>
18

>  <Radius>
9

>  <TMWC10>
133.57

>  <TSRW10>
63.11

>  <MW>
384.19

>  <AMW>
7.39

>  <WPath>
2363

>  <WPol>
43

>  <Zagreb1>
142

>  <Zagreb2>
164

>  <mZagreb2>
6.33

>  <yes>


>  <nAR-cont>
0.816016

>  <nHA-cont>
0.82432561

>  <MWHBN>
0.561202577

>  <MWHBN-cont>
0

>  <TPSA-cont>
0.203511148

>  <pka_cont>
0.97

>  <yes.1>


>  <BBB_SCORE>
2.532363907

>  <MMFF94 Energy>
29.424

$$$$
Compound 526
Actelion Java MolfileCreator 2.0

  0  0  0  0  0  0              0 V3000
M  V30 BEGIN CTAB
M  V30 COUNTS 18 17 0 0 0
M  V30 BEGIN ATOM
M  V30 1 O 0.6817 -0.6817 0.8332 0
M  V30 2 C 0.0527 0.3607 0.0724 0
M  V30 3 C 0.2615 -2.012 0.5723 0
M  V30 4 C 0.3303 0.2092 -1.428 0
M  V30 5 C 0.7002 1.6627 0.5659 0
M  V30 6 C -1.4551 0.4255 0.3442 0
M  V30 7 H 0.8313 -2.6772 1.2277 0
M  V30 8 H -0.7983 -2.1476 0.801 0
M  V30 9 H 0.472 -2.3015 -0.4599 0
M  V30 10 H -0.1865 -0.6605 -1.8469 0
M  V30 11 H -0.0038 1.0897 -1.9875 0
M  V30 12 H 1.4002 0.063 -1.6137 0
M  V30 13 H 1.7853 1.641 0.4112 0
M  V30 14 H 0.2953 2.5404 0.051 0
M  V30 15 H 0.5438 1.7914 1.6435 0
M  V30 16 H -1.9764 -0.4437 -0.0703 0
M  V30 17 H -1.6573 0.4334 1.4212 0
M  V30 18 H -1.9039 1.3199 -0.1015 0
M  V30 END ATOM
M  V30 BEGIN BOND
M  V30 1 1 1 2
M  V30 2 1 1 3
M  V30 3 1 2 4
M  V30 4 1 2 5
M  V30 5 1 2 6
M  V30 6 1 3 7
M  V30 7 1 3 8
M  V30 8 1 3 9
M  V30 9 1 4 10
M  V30 10 1 4 11
M  V30 11 1 4 12
M  V30 12 1 5 13
M  V30 13 1 5 14
M  V30 14 1 5 15
M  V30 15 1 6 16
M  V30 16 1 6 17
M  V30 17 1 6 18
M  V30 END BOND
M  V30 END CTAB
M  END
>  <Column 1>
646

>  <level_0>
738

>  <index>
738

>  <Unnamed: 0>
738

>  <NO.>
750

>  <Name>
tert-butylmethylether

>  <IUPAC_name>
2-methoxy-2-methylpropane

>  <SMILES>
COC(C)(C)C

>  <CID>
15413

>  <logBB>
0.36

>  <BBB+/BBB->
BBB+

>  <Inchi>
InChI=1S/C5H12O/c1-5(2-3)6-4/h1-4H3

>  <threshold>


>  <reference>
R3|R21|R25|R27|R38|R41|R46|R47|R2|R2|R8|R27|R40|

>  <group>
A

>  <Class>
1

>  <ABC>
4.01

>  <ABCGG>
4.28

>  <nAcid>
0

>  <nBase>
0

>  <nAromAtom>
0

>  <nAromBond>
0

>  <nAtom>
18

>  <nHeavyAtom>
6

>  <nSpiro>
0

>  <nBridgehead>
0

>  <nHetero>
1

>  <nN>
0

>  <nO>
1

>  <nF>
0

>  <BalabanJ>
3.17

>  <BertzCT>
33.69

>  <nBonds>
17

>  <nBondsO>
5

>  <nBondsS>
17

>  <nBondsD>
0

>  <nBondsT>
0

>  <nBondsA>
0

>  <nBondsM>
0

>  <nBondsKS>
17

>  <nBondsKD>
0

>  <RNCG>
0.78

>  <RPCG>
0.12

>  <FCSP3>
1

>  <SZ>
8.33

>  <Sm>
7.34

>  <Sv>
8.97

>  <Sse>
17.66

>  <Sp>
10.27

>  <Si>
20.7

>  <MZ>
0.46

>  <Mm>
0.41

>  <Mv>
0.5

>  <Mse>
0.98

>  <Mp>
0.57

>  <Mi>
1.15

>  <NsCH3>
4

>  <NdCH2>
0

>  <NssCH2>
0

>  <NtCH>
0

>  <NdsCH>
0

>  <NaaCH>
0

>  <NsssCH>
0

>  <NddC>
0

>  <NtsC>
0

>  <NdssC>
0

>  <NaasC>
0

>  <NaaaC>
0

>  <NssssC>
1

>  <NsNH3>
0

>  <NsNH2>
0

>  <NssNH2>
0

>  <NdNH>
0

>  <NssNH>
0

>  <NaaNH>
0

>  <NtN>
0

>  <NsssNH>
0

>  <NdsN>
0

>  <NaaN>
0

>  <NsssN>
0

>  <NddsN>
0

>  <NaasN>
0

>  <NssssN>
0

>  <NsOH>
0

>  <NdO>
0

>  <NssO>
1

>  <NaaO>
0

>  <NsF>
0

>  <NsSiH3>
0

>  <NssSiH2>
0

>  <NsssSiH>
0

>  <NssssSi>
0

>  <NsPH2>
0

>  <NssPH>
0

>  <NsssP>
0

>  <NdsssP>
0

>  <NsssssP>
0

>  <NsSH>
0

>  <NdS>
0

>  <NssS>
0

>  <NaaS>
0

>  <NdssS>
0

>  <NddssS>
0

>  <NsCl>
0

>  <NsBr>
0

>  <NsI>
0

>  <fragCpx>
5.01

>  <fMF>
0

>  <nHBAcc>
1

>  <nHBDon>
0

>  <Kier1>
6

>  <Kier2>
1.63

>  <Lipinski>
1

>  <GhoseFilter>
0

>  <FilterItLogS>
-1.12

>  <VMcGowan>
87.18

>  <LabuteASA>
39.31

>  <PEOE_VSA1>
4.74

>  <PEOE_VSA2>
0

>  <PEOE_VSA3>
0

>  <PEOE_VSA4>
0

>  <PEOE_VSA5>
0

>  <PEOE_VSA6>
0

>  <PEOE_VSA7>
20.77

>  <PEOE_VSA8>
7.11

>  <PEOE_VSA9>
5.6

>  <PEOE_VSA10>
0

>  <PEOE_VSA11>
0

>  <PEOE_VSA12>
0

>  <PEOE_VSA13>
0

>  <SMR_VSA1>
4.74

>  <SMR_VSA2>
0

>  <SMR_VSA3>
0

>  <SMR_VSA4>
0

>  <SMR_VSA5>
26.37

>  <SMR_VSA6>
7.11

>  <SMR_VSA7>
0

>  <SMR_VSA8>
0

>  <SMR_VSA9>
0

>  <SlogP_VSA1>
0

>  <SlogP_VSA2>
12.71

>  <SlogP_VSA3>
4.74

>  <SlogP_VSA4>
0

>  <SlogP_VSA5>
20.77

>  <SlogP_VSA6>
0

>  <SlogP_VSA7>
0

>  <SlogP_VSA8>
0

>  <SlogP_VSA9>
0

>  <SlogP_VSA10>
0

>  <SlogP_VSA11>
0

>  <EState_VSA1>
0

>  <EState_VSA2>
5.6

>  <EState_VSA3>
0

>  <EState_VSA4>
0

>  <EState_VSA5>
0

>  <EState_VSA6>
7.11

>  <EState_VSA7>
20.77

>  <EState_VSA8>
0

>  <EState_VSA9>
4.74

>  <EState_VSA10>
0

>  <VSA_EState1>
4.94

>  <VSA_EState2>
0

>  <VSA_EState3>
0

>  <VSA_EState4>
0.04

>  <VSA_EState5>
0

>  <VSA_EState6>
0

>  <VSA_EState7>
0

>  <VSA_EState8>
6.06

>  <VSA_EState9>
1.71

>  <apol>
17.15

>  <bpol>
13.77

>  <nRing>
0

>  <nHRing>
0

>  <naRing>
0

>  <naHRing>
0

>  <nARing 2>
0

>  <nAHRing 2>
0

>  <nFRing>
0

>  <nFHRing>
0

>  <nFaRing>
0

>  <nFaHRing>
0

>  <nFARing 2>
0

>  <nFAHRing 2>
0

>  <nRot>
0

>  <SLogP>
1.43

>  <SMR>
26.76

>  <TopoPSA(NO)>
9.23

>  <TopoPSA>
9.23

>  <JGI1>
0.6

>  <JGI2>
0.1

>  <JGI3>
0

>  <JGI4>
0

>  <JGI5>
0

>  <Diameter>
3

>  <Radius>
2

>  <TMWC10>
65.41

>  <TSRW10>
31.67

>  <MW>
88.09

>  <AMW>
4.89

>  <WPath>
28

>  <WPol>
3

>  <Zagreb1>
24

>  <Zagreb2>
22

>  <mZagreb2>
1.38

>  <yes>


>  <nAR-cont>
0.336376

>  <nHA-cont>
0.238778273

>  <MWHBN>
0.106545888

>  <MWHBN-cont>
0.765783684

>  <TPSA-cont>
0.935568869

>  <pka_cont>
0.97

>  <yes.1>


>  <BBB_SCORE>
4.079967536

>  <MMFF94 Energy>
16.978

$$$$
Compound 527
Actelion Java MolfileCreator 2.0

  0  0  0  0  0  0              0 V3000
M  V30 BEGIN CTAB
M  V30 COUNTS 52 55 0 0 0
M  V30 BEGIN ATOM
M  V30 1 S -0.2414 2.6588 -4.6767 0
M  V30 2 C -1.8033 2.4729 -3.9588 0
M  V30 3 C -0.8232 3.9548 -5.6283 0
M  V30 4 N -2.7051 3.331 -4.4053 0
M  V30 5 C -2.0851 1.4419 -2.9357 0
M  V30 6 C -2.1525 4.1703 -5.3504 0
M  V30 7 C -1.1325 0.5088 -2.487 0
M  V30 8 C -3.3758 1.3764 -2.3827 0
M  V30 9 C -1.4453 -0.4611 -1.5123 0
M  V30 10 C -3.7007 0.4302 -1.4082 0
M  V30 11 C -2.732 -0.4653 -0.9618 0
M  V30 12 C -0.3831 -1.4345 -1.0583 0
M  V30 13 O -3.0803 -1.3975 -0.0198 0
M  V30 14 N 0.4342 -0.8407 -0.0134 0
M  V30 15 C -2.9845 -0.8265 1.2877 0
M  V30 16 C 1.322 -1.778 0.6975 0
M  V30 17 C 2.1172 -1.0367 1.8329 0
M  V30 18 C 2.3611 -2.4382 -0.2326 0
M  V30 19 N 3.0238 -0.0129 1.2563 0
M  V30 20 C 1.2076 -0.4552 2.9099 0
M  V30 21 C 3.3794 -1.4239 -0.756 0
M  V30 22 C 4.0212 -0.6319 0.3833 0
M  V30 23 C 0.8976 -1.2204 4.0465 0
M  V30 24 C 0.6389 0.8233 2.7932 0
M  V30 25 C 0.0551 -0.7162 5.0401 0
M  V30 26 C -0.2035 1.3266 3.7866 0
M  V30 27 C -0.4936 0.5575 4.9105 0
M  V30 28 H -0.1862 4.4816 -6.3235 0
M  V30 29 H -2.7722 4.9306 -5.8098 0
M  V30 30 H -0.1214 0.5152 -2.8868 0
M  V30 31 H -4.1452 2.0731 -2.713 0
M  V30 32 H -4.707 0.3946 -1.0013 0
M  V30 33 H 0.227 -1.712 -1.9258 0
M  V30 34 H -0.8568 -2.359 -0.7077 0
M  V30 35 H 0.9791 -0.051 -0.3573 0
M  V30 36 H -2.0188 -0.3393 1.4541 0
M  V30 37 H -3.0839 -1.6378 2.0148 0
M  V30 38 H -3.8003 -0.1159 1.4583 0
M  V30 39 H 0.7053 -2.561 1.1573 0
M  V30 40 H 2.7548 -1.7766 2.3393 0
M  V30 41 H 1.8829 -2.9569 -1.07 0
M  V30 42 H 2.895 -3.2139 0.3321 0
M  V30 43 H 3.4951 0.4585 2.0283 0
M  V30 44 H 2.8939 -0.7355 -1.4583 0
M  V30 45 H 4.1592 -1.9481 -1.3202 0
M  V30 46 H 4.6772 -1.2863 0.9703 0
M  V30 47 H 4.656 0.1537 -0.0405 0
M  V30 48 H 1.3095 -2.2198 4.1653 0
M  V30 49 H 0.8407 1.4296 1.9124 0
M  V30 50 H -0.1746 -1.3193 5.9144 0
M  V30 51 H -0.6363 2.3172 3.6759 0
M  V30 52 H -1.1504 0.9492 5.6824 0
M  V30 END ATOM
M  V30 BEGIN BOND
M  V30 1 1 1 2
M  V30 2 1 1 3
M  V30 3 2 2 4
M  V30 4 1 2 5
M  V30 5 2 3 6
M  V30 6 2 5 7
M  V30 7 1 5 8
M  V30 8 1 7 9
M  V30 9 2 8 10
M  V30 10 2 9 11
M  V30 11 1 9 12
M  V30 12 1 11 13
M  V30 13 1 12 14
M  V30 14 1 13 15
M  V30 15 1 14 16
M  V30 16 1 16 17
M  V30 17 1 16 18
M  V30 18 1 17 19
M  V30 19 1 17 20
M  V30 20 1 18 21
M  V30 21 1 19 22
M  V30 22 2 20 23
M  V30 23 1 20 24
M  V30 24 1 23 25
M  V30 25 2 24 26
M  V30 26 2 25 27
M  V30 27 1 4 6
M  V30 28 1 10 11
M  V30 29 1 21 22
M  V30 30 1 26 27
M  V30 31 1 3 28
M  V30 32 1 6 29
M  V30 33 1 7 30
M  V30 34 1 8 31
M  V30 35 1 10 32
M  V30 36 1 12 33
M  V30 37 1 12 34
M  V30 38 1 14 35
M  V30 39 1 15 36
M  V30 40 1 15 37
M  V30 41 1 15 38
M  V30 42 1 16 39
M  V30 43 1 17 40
M  V30 44 1 18 41
M  V30 45 1 18 42
M  V30 46 1 19 43
M  V30 47 1 21 44
M  V30 48 1 21 45
M  V30 49 1 22 46
M  V30 50 1 22 47
M  V30 51 1 23 48
M  V30 52 1 24 49
M  V30 53 1 25 50
M  V30 54 1 26 51
M  V30 55 1 27 52
M  V30 END BOND
M  V30 END CTAB
M  END
>  <Column 1>
647

>  <level_0>
739

>  <index>
739

>  <Unnamed: 0>
739

>  <NO.>
751

>  <Name>
161499-49-6

>  <IUPAC_name>
n-[[2-methoxy-5-(1-3-thiazol-2-yl)phenyl]methyl]-2-phenylpiperidin-3-amine

>  <SMILES>
COc1ccc(-c2nccs2)cc1CNC1CCCNC1c1ccccc1

>  <CID>
9907851

>  <logBB>
0.36

>  <BBB+/BBB->
BBB+

>  <Inchi>
InChI=1S/C22H25N3OS/c1-26-20-10-9-17(22-24-12-13-27-22)14-18(20)15-25-19-8-5-11-23-21(19)16-6-3-2-4-7-16/h2-4-6-7-9-10-12-14-19-21-23-25H-5-8-11-15H2-1H3

>  <threshold>


>  <reference>
R25|R46|R47|R4|R2|R2|R8|R27|R40|

>  <group>
A

>  <Class>
1

>  <ABC>
21.05

>  <ABCGG>
16.51

>  <nAcid>
0

>  <nBase>
2

>  <nAromAtom>
17

>  <nAromBond>
17

>  <nAtom>
52

>  <nHeavyAtom>
27

>  <nSpiro>
0

>  <nBridgehead>
0

>  <nHetero>
5

>  <nN>
3

>  <nO>
1

>  <nF>
0

>  <BalabanJ>
1.32

>  <BertzCT>
851.26

>  <nBonds>
55

>  <nBondsO>
30

>  <nBondsS>
38

>  <nBondsD>
0

>  <nBondsT>
0

>  <nBondsA>
17

>  <nBondsM>
17

>  <nBondsKS>
47

>  <nBondsKD>
8

>  <RNCG>
0.25

>  <RPCG>
0.06

>  <FCSP3>
0.32

>  <SZ>
33.67

>  <Sm>
31.6

>  <Sv>
32.95

>  <Sse>
51.49

>  <Sp>
36.17

>  <Si>
58.19

>  <MZ>
0.65

>  <Mm>
0.61

>  <Mv>
0.63

>  <Mse>
0.99

>  <Mp>
0.7

>  <Mi>
1.12

>  <NsCH3>
1

>  <NdCH2>
0

>  <NssCH2>
4

>  <NtCH>
0

>  <NdsCH>
0

>  <NaaCH>
10

>  <NsssCH>
2

>  <NddC>
0

>  <NtsC>
0

>  <NdssC>
0

>  <NaasC>
5

>  <NaaaC>
0

>  <NssssC>
0

>  <NsNH3>
0

>  <NsNH2>
0

>  <NssNH2>
0

>  <NdNH>
0

>  <NssNH>
2

>  <NaaNH>
0

>  <NtN>
0

>  <NsssNH>
0

>  <NdsN>
0

>  <NaaN>
1

>  <NsssN>
0

>  <NddsN>
0

>  <NaasN>
0

>  <NssssN>
0

>  <NsOH>
0

>  <NdO>
0

>  <NssO>
1

>  <NaaO>
0

>  <NsF>
0

>  <NsSiH3>
0

>  <NssSiH2>
0

>  <NsssSiH>
0

>  <NssssSi>
0

>  <NsPH2>
0

>  <NssPH>
0

>  <NsssP>
0

>  <NdsssP>
0

>  <NsssssP>
0

>  <NsSH>
0

>  <NdS>
0

>  <NssS>
0

>  <NaaS>
1

>  <NdssS>
0

>  <NddssS>
0

>  <NsCl>
0

>  <NsBr>
0

>  <NsI>
0

>  <fragCpx>
198.05

>  <fMF>
0.48

>  <nHBAcc>
5

>  <nHBDon>
2

>  <Kier1>
20.28

>  <Kier2>
10.16

>  <Lipinski>
1

>  <GhoseFilter>
1

>  <FilterItLogS>
-6.32

>  <VMcGowan>
295.16

>  <LabuteASA>
164.17

>  <PEOE_VSA1>
15.37

>  <PEOE_VSA2>
0

>  <PEOE_VSA3>
4.98

>  <PEOE_VSA4>
0

>  <PEOE_VSA5>
11.34

>  <PEOE_VSA6>
30.33

>  <PEOE_VSA7>
43.15

>  <PEOE_VSA8>
41.33

>  <PEOE_VSA9>
7.11

>  <PEOE_VSA10>
10.76

>  <PEOE_VSA11>
0

>  <PEOE_VSA12>
0

>  <PEOE_VSA13>
0

>  <SMR_VSA1>
4.74

>  <SMR_VSA2>
0

>  <SMR_VSA3>
15.62

>  <SMR_VSA4>
0

>  <SMR_VSA5>
31.47

>  <SMR_VSA6>
13.65

>  <SMR_VSA7>
71.23

>  <SMR_VSA8>
0

>  <SMR_VSA9>
16.32

>  <SlogP_VSA1>
15.37

>  <SlogP_VSA2>
24.68

>  <SlogP_VSA3>
6.54

>  <SlogP_VSA4>
0

>  <SlogP_VSA5>
30.01

>  <SlogP_VSA6>
60.11

>  <SlogP_VSA7>
0

>  <SlogP_VSA8>
10.57

>  <SlogP_VSA9>
0

>  <SlogP_VSA10>
0

>  <SlogP_VSA11>
5.75

>  <EState_VSA1>
0

>  <EState_VSA2>
0

>  <EState_VSA3>
12.08

>  <EState_VSA4>
29.41

>  <EState_VSA5>
23.97

>  <EState_VSA6>
18.45

>  <EState_VSA7>
17.64

>  <EState_VSA8>
58.08

>  <EState_VSA9>
4.74

>  <EState_VSA10>
0

>  <VSA_EState1>
5.6

>  <VSA_EState2>
4.43

>  <VSA_EState3>
10.51

>  <VSA_EState4>
3.66

>  <VSA_EState5>
0.92

>  <VSA_EState6>
17.78

>  <VSA_EState7>
4.21

>  <VSA_EState8>
1.85

>  <VSA_EState9>
1.73

>  <apol>
60.41

>  <bpol>
31.56

>  <nRing>
4

>  <nHRing>
2

>  <naRing>
3

>  <naHRing>
1

>  <nARing 2>
1

>  <nAHRing 2>
1

>  <nFRing>
0

>  <nFHRing>
0

>  <nFaRing>
0

>  <nFaHRing>
0

>  <nFARing 2>
0

>  <nFAHRing 2>
0

>  <nRot>
6

>  <SLogP>
4.4

>  <SMR>
111.15

>  <TopoPSA(NO)>
46.18

>  <TopoPSA>
74.42

>  <JGI1>
0.12

>  <JGI2>
0.07

>  <JGI3>
0.03

>  <JGI4>
0.03

>  <JGI5>
0.02

>  <Diameter>
13

>  <Radius>
7

>  <TMWC10>
132.5

>  <TSRW10>
75.13

>  <MW>
379.17

>  <AMW>
7.29

>  <WPath>
1939

>  <WPol>
40

>  <Zagreb1>
140

>  <Zagreb2>
164

>  <mZagreb2>
6.11

>  <yes>


>  <nAR-cont>
0.816016

>  <nHA-cont>
0.860070871

>  <MWHBN>
0.359485234

>  <MWHBN-cont>
0.634388088

>  <TPSA-cont>
0.480502188

>  <pka_cont>
0.97

>  <yes.1>


>  <BBB_SCORE>
4.07367338

>  <MMFF94 Energy>
92.923

$$$$
Compound 528
Actelion Java MolfileCreator 2.0

  0  0  0  0  0  0              0 V3000
M  V30 BEGIN CTAB
M  V30 COUNTS 44 47 0 0 0
M  V30 BEGIN ATOM
M  V30 1 O -1.6763 1.5165 0.7979 0
M  V30 2 C -0.522 2.2653 1.2253 0 CFG=1
M  V30 3 C -2.8553 1.9935 1.46 0
M  V30 4 C 0.6612 1.7129 0.4797 0
M  V30 5 C -0.7272 3.7744 0.9463 0
M  V30 6 C -3.0957 3.4829 1.1747 0
M  V30 7 N 1.4748 2.4114 -0.294 0
M  V30 8 N 1.0713 0.3925 0.5428 0
M  V30 9 N -1.9497 4.3051 1.5947 0
M  V30 10 C 2.4299 1.5345 -0.7346 0
M  V30 11 C 2.214 0.2619 -0.2201 0
M  V30 12 C 0.473 -0.6696 1.3432 0
M  V30 13 C 3.5273 1.7645 -1.5774 0
M  V30 14 C 3.0576 -0.8188 -0.509 0
M  V30 15 C -0.1236 -1.7871 0.5191 0
M  V30 16 C 4.3817 0.698 -1.8795 0
M  V30 17 C 4.1475 -0.5722 -1.3521 0
M  V30 18 C 0.1397 -3.122 0.8614 0
M  V30 19 C -0.9828 -1.5312 -0.5583 0
M  V30 20 C -0.4224 -4.1718 0.1303 0
M  V30 21 C -1.5439 -2.5814 -1.2894 0
M  V30 22 C -1.2769 -3.9099 -0.9448 0
M  V30 23 C -1.8515 -5.0347 -1.7531 0
M  V30 24 H -0.3713 2.1055 2.3012 0
M  V30 25 H -2.7659 1.8036 2.5364 0
M  V30 26 H -3.7008 1.4054 1.0891 0
M  V30 27 H -0.806 3.9532 -0.1342 0
M  V30 28 H 0.1358 4.3443 1.3086 0
M  V30 29 H -3.9926 3.8194 1.7045 0
M  V30 30 H -3.2671 3.6286 0.1012 0
M  V30 31 H -2.0916 5.2653 1.2806 0
M  V30 32 H 1.2775 -1.0459 1.9874 0
M  V30 33 H -0.2915 -0.2532 2.0041 0
M  V30 34 H 3.7013 2.7551 -1.9819 0
M  V30 35 H 2.8766 -1.8118 -0.1128 0
M  V30 36 H 5.234 0.8638 -2.5336 0
M  V30 37 H 4.8208 -1.3887 -1.6041 0
M  V30 38 H 0.7917 -3.3591 1.6995 0
M  V30 39 H -1.2199 -0.5085 -0.8474 0
M  V30 40 H -0.19 -5.1975 0.4079 0
M  V30 41 H -2.1931 -2.3509 -2.1313 0
M  V30 42 H -2.8267 -4.7591 -2.1681 0
M  V30 43 H -1.1755 -5.2877 -2.5755 0
M  V30 44 H -2.0029 -5.9241 -1.1325 0
M  V30 END ATOM
M  V30 BEGIN BOND
M  V30 1 1 1 2
M  V30 2 1 1 3
M  V30 3 1 2 4
M  V30 4 1 2 5
M  V30 5 1 3 6
M  V30 6 2 4 7
M  V30 7 1 4 8
M  V30 8 1 5 9
M  V30 9 1 7 10
M  V30 10 1 8 11
M  V30 11 1 8 12
M  V30 12 1 10 13
M  V30 13 1 11 14
M  V30 14 1 12 15
M  V30 15 2 13 16
M  V30 16 2 14 17
M  V30 17 2 15 18
M  V30 18 1 15 19
M  V30 19 1 18 20
M  V30 20 2 19 21
M  V30 21 2 20 22
M  V30 22 1 22 23
M  V30 23 1 6 9
M  V30 24 2 10 11
M  V30 25 1 16 17
M  V30 26 1 21 22
M  V30 27 1 2 24
M  V30 28 1 3 25
M  V30 29 1 3 26
M  V30 30 1 5 27
M  V30 31 1 5 28
M  V30 32 1 6 29
M  V30 33 1 6 30
M  V30 34 1 9 31
M  V30 35 1 12 32
M  V30 36 1 12 33
M  V30 37 1 13 34
M  V30 38 1 14 35
M  V30 39 1 16 36
M  V30 40 1 17 37
M  V30 41 1 18 38
M  V30 42 1 19 39
M  V30 43 1 20 40
M  V30 44 1 21 41
M  V30 45 1 23 42
M  V30 46 1 23 43
M  V30 47 1 23 44
M  V30 END BOND
M  V30 BEGIN COLLECTION
M  V30 MDLV30/STEABS ATOMS=(1 2)
M  V30 END COLLECTION
M  V30 END CTAB
M  END
>  <Column 1>
648

>  <level_0>
740

>  <index>
740

>  <Unnamed: 0>
740

>  <NO.>
752

>  <Name>
chembl1935441

>  <IUPAC_name>
(2r)-2-[1-[(4-methylphenyl)methyl]benzimidazol-2-yl]morpholine

>  <SMILES>
Cc1ccc(Cn2c([C@H]3CNCCO3)nc3ccccc32)cc1

>  <CID>
57395287

>  <logBB>
0.36

>  <BBB+/BBB->
BBB+

>  <Inchi>
InChI=1S/C19H21N3O/c1-14-6-8-15(9-7-14)13-22-17-5-3-2-4-16(17)21-19(22)18-12-20-10-11-23-18/h2-9-18-20H-10-13H2-1H3/t18-/m1/s1

>  <threshold>


>  <reference>
R2|R2|R25|R27|R46|

>  <group>
A

>  <Class>
1

>  <ABC>
18.33

>  <ABCGG>
14.35

>  <nAcid>
0

>  <nBase>
1

>  <nAromAtom>
15

>  <nAromBond>
16

>  <nAtom>
44

>  <nHeavyAtom>
23

>  <nSpiro>
0

>  <nBridgehead>
0

>  <nHetero>
4

>  <nN>
3

>  <nO>
1

>  <nF>
0

>  <BalabanJ>
1.44

>  <BertzCT>
801.1

>  <nBonds>
47

>  <nBondsO>
26

>  <nBondsS>
31

>  <nBondsD>
0

>  <nBondsT>
0

>  <nBondsA>
16

>  <nBondsM>
16

>  <nBondsKS>
40

>  <nBondsKD>
7

>  <RNCG>
0.21

>  <RPCG>
0.08

>  <FCSP3>
0.32

>  <SZ>
27.33

>  <Sm>
25.59

>  <Sv>
27.68

>  <Sse>
43.64

>  <Sp>
29.84

>  <Si>
49.44

>  <MZ>
0.62

>  <Mm>
0.58

>  <Mv>
0.63

>  <Mse>
0.99

>  <Mp>
0.68

>  <Mi>
1.12

>  <NsCH3>
1

>  <NdCH2>
0

>  <NssCH2>
4

>  <NtCH>
0

>  <NdsCH>
0

>  <NaaCH>
8

>  <NsssCH>
1

>  <NddC>
0

>  <NtsC>
0

>  <NdssC>
0

>  <NaasC>
3

>  <NaaaC>
2

>  <NssssC>
0

>  <NsNH3>
0

>  <NsNH2>
0

>  <NssNH2>
0

>  <NdNH>
0

>  <NssNH>
1

>  <NaaNH>
0

>  <NtN>
0

>  <NsssNH>
0

>  <NdsN>
0

>  <NaaN>
1

>  <NsssN>
0

>  <NddsN>
0

>  <NaasN>
1

>  <NssssN>
0

>  <NsOH>
0

>  <NdO>
0

>  <NssO>
1

>  <NaaO>
0

>  <NsF>
0

>  <NsSiH3>
0

>  <NssSiH2>
0

>  <NsssSiH>
0

>  <NssssSi>
0

>  <NsPH2>
0

>  <NssPH>
0

>  <NsssP>
0

>  <NdsssP>
0

>  <NsssssP>
0

>  <NsSH>
0

>  <NdS>
0

>  <NssS>
0

>  <NaaS>
0

>  <NdssS>
0

>  <NddssS>
0

>  <NsCl>
0

>  <NsBr>
0

>  <NsI>
0

>  <fragCpx>
170.04

>  <fMF>
0.5

>  <nHBAcc>
4

>  <nHBDon>
1

>  <Kier1>
16.47

>  <Kier2>
7.49

>  <Lipinski>
1

>  <GhoseFilter>
1

>  <FilterItLogS>
-4.84

>  <VMcGowan>
240.84

>  <LabuteASA>
135.66

>  <PEOE_VSA1>
14.62

>  <PEOE_VSA2>
0

>  <PEOE_VSA3>
4.98

>  <PEOE_VSA4>
0

>  <PEOE_VSA5>
0

>  <PEOE_VSA6>
41.96

>  <PEOE_VSA7>
24.62

>  <PEOE_VSA8>
19.63

>  <PEOE_VSA9>
17.64

>  <PEOE_VSA10>
11.93

>  <PEOE_VSA11>
0

>  <PEOE_VSA12>
0

>  <PEOE_VSA13>
0

>  <SMR_VSA1>
4.74

>  <SMR_VSA2>
0

>  <SMR_VSA3>
14.87

>  <SMR_VSA4>
0

>  <SMR_VSA5>
19.57

>  <SMR_VSA6>
19.7

>  <SMR_VSA7>
65.48

>  <SMR_VSA8>
0

>  <SMR_VSA9>
0

>  <SlogP_VSA1>
5.32

>  <SlogP_VSA2>
29.25

>  <SlogP_VSA3>
11.28

>  <SlogP_VSA4>
6.92

>  <SlogP_VSA5>
23.06

>  <SlogP_VSA6>
48.53

>  <SlogP_VSA7>
0

>  <SlogP_VSA8>
11.03

>  <SlogP_VSA9>
0

>  <SlogP_VSA10>
0

>  <SlogP_VSA11>
0

>  <EState_VSA1>
0

>  <EState_VSA2>
6.1

>  <EState_VSA3>
0

>  <EState_VSA4>
43.1

>  <EState_VSA5>
11.13

>  <EState_VSA6>
0

>  <EState_VSA7>
6.07

>  <EState_VSA8>
59.27

>  <EState_VSA9>
9.72

>  <EState_VSA10>
0

>  <VSA_EState1>
8.23

>  <VSA_EState2>
4.85

>  <VSA_EState3>
3.4

>  <VSA_EState4>
4.76

>  <VSA_EState5>
1.01

>  <VSA_EState6>
17.01

>  <VSA_EState7>
0.02

>  <VSA_EState8>
5.39

>  <VSA_EState9>
0

>  <apol>
49.83

>  <bpol>
26.22

>  <nRing>
4

>  <nHRing>
2

>  <naRing>
3

>  <naHRing>
1

>  <nARing 2>
1

>  <nAHRing 2>
1

>  <nFRing>
1

>  <nFHRing>
1

>  <nFaRing>
1

>  <nFaHRing>
1

>  <nFARing 2>
0

>  <nFAHRing 2>
0

>  <nRot>
3

>  <SLogP>
3.05

>  <SMR>
91.58

>  <TopoPSA(NO)>
39.08

>  <TopoPSA>
39.08

>  <JGI1>
0.13

>  <JGI2>
0.06

>  <JGI3>
0.04

>  <JGI4>
0.04

>  <JGI5>
0.02

>  <Diameter>
11

>  <Radius>
6

>  <TMWC10>
124.27

>  <TSRW10>
71.82

>  <MW>
307.17

>  <AMW>
6.98

>  <WPath>
1155

>  <WPol>
35

>  <Zagreb1>
124

>  <Zagreb2>
147

>  <mZagreb2>
5.03

>  <yes>


>  <nAR-cont>
0.816016

>  <nHA-cont>
0.967789328

>  <MWHBN>
0.285286096

>  <MWHBN-cont>
0.882354628

>  <TPSA-cont>
0.727197333

>  <pka_cont>
0.97

>  <yes.1>


>  <BBB_SCORE>
5.046731935

>  <MMFF94 Energy>
122.75

$$$$
Compound 529
Actelion Java MolfileCreator 2.0

  0  0  0  0  0  0              0 V3000
M  V30 BEGIN CTAB
M  V30 COUNTS 39 42 0 0 0
M  V30 BEGIN ATOM
M  V30 1 Cl -1.8274 -1.6612 3.9904 0
M  V30 2 C -1.672 0.064 3.9264 0
M  V30 3 C -1.1546 0.7323 2.7951 0
M  V30 4 C -2.0217 0.7619 5.0902 0
M  V30 5 N -0.8164 0.0801 1.6055 0
M  V30 6 C -0.9771 2.1252 2.9026 0
M  V30 7 C -1.8492 2.1396 5.1492 0
M  V30 8 C 0.2343 0.3596 0.6828 0
M  V30 9 C -1.8452 -0.6092 0.8145 0
M  V30 10 C -1.3234 2.8258 4.0624 0
M  V30 11 Cl -2.2774 2.9971 6.5774 0
M  V30 12 N 1.2676 1.1724 0.9276 0
M  V30 13 C 0.0748 -0.334 -0.5008 0
M  V30 14 C -1.1522 -1.1696 -0.4384 0
M  V30 15 C 2.1785 1.2789 -0.0514 0
M  V30 16 C 1.0535 -0.1772 -1.4502 0
M  V30 17 N 2.1115 0.6468 -1.2399 0
M  V30 18 C 3.333 2.2035 0.1774 0
M  V30 19 N 1.0089 -0.88 -2.6923 0
M  V30 20 N 0.0231 -1.7586 -3.0151 0
M  V30 21 C 1.9343 -0.775 -3.7095 0
M  V30 22 C 0.3339 -2.2101 -4.247 0
M  V30 23 C 1.5298 -1.6135 -4.7172 0
M  V30 24 C -0.5142 -3.2165 -4.9807 0
M  V30 25 F -1.7906 -2.7839 -5.1609 0
M  V30 26 F -0.0211 -3.4868 -6.221 0
M  V30 27 F -0.5857 -4.4064 -4.3274 0
M  V30 28 H -2.4119 0.2266 5.9518 0
M  V30 29 H -0.5715 2.687 2.0632 0
M  V30 30 H -2.3563 -1.4134 1.3497 0
M  V30 31 H -2.6122 0.1172 0.5104 0
M  V30 32 H -1.176 3.9019 4.104 0
M  V30 33 H -1.8047 -1.0557 -1.3082 0
M  V30 34 H -0.8896 -2.2232 -0.2957 0
M  V30 35 H 3.0669 3.2126 -0.1503 0
M  V30 36 H 3.5964 2.2349 1.2392 0
M  V30 37 H 4.2111 1.8699 -0.3836 0
M  V30 38 H 2.7878 -0.1171 -3.6159 0
M  V30 39 H 2.0248 -1.779 -5.6652 0
M  V30 END ATOM
M  V30 BEGIN BOND
M  V30 1 1 1 2
M  V30 2 2 2 3
M  V30 3 1 2 4
M  V30 4 1 3 5
M  V30 5 1 3 6
M  V30 6 2 4 7
M  V30 7 1 5 8
M  V30 8 1 5 9
M  V30 9 2 6 10
M  V30 10 1 7 11
M  V30 11 2 8 12
M  V30 12 1 8 13
M  V30 13 1 9 14
M  V30 14 1 12 15
M  V30 15 2 13 16
M  V30 16 2 15 17
M  V30 17 1 15 18
M  V30 18 1 16 19
M  V30 19 1 19 20
M  V30 20 1 19 21
M  V30 21 2 20 22
M  V30 22 2 21 23
M  V30 23 1 22 24
M  V30 24 1 24 25
M  V30 25 1 24 26
M  V30 26 1 24 27
M  V30 27 1 7 10
M  V30 28 1 13 14
M  V30 29 1 16 17
M  V30 30 1 22 23
M  V30 31 1 4 28
M  V30 32 1 6 29
M  V30 33 1 9 30
M  V30 34 1 9 31
M  V30 35 1 10 32
M  V30 36 1 14 33
M  V30 37 1 14 34
M  V30 38 1 18 35
M  V30 39 1 18 36
M  V30 40 1 18 37
M  V30 41 1 21 38
M  V30 42 1 23 39
M  V30 END BOND
M  V30 END CTAB
M  END
>  <Column 1>
649

>  <level_0>
741

>  <index>
741

>  <Unnamed: 0>
741

>  <NO.>
753

>  <Name>
compound-4fi

>  <IUPAC_name>
7-(2-4-dichlorophenyl)-2-methyl-4-[3-(trifluoromethyl)pyrazol-1-yl]-5-6-dihydropyrrolo[2-3-d]pyrimidine

>  <SMILES>
Cc1nc2c(c(-n3ccc(C(F)(F)F)n3)n1)CCN2c1ccc(Cl)cc1Cl

>  <CID>
16721039

>  <logBB>
0.36

>  <BBB+/BBB->
BBB+

>  <Inchi>
InChI=1S/C17H12Cl2F3N5/c1-9-23-15-11(4-6-26(15)13-3-2-10(18)8-12(13)19)16(24-9)27-7-5-14(25-27)17(20-21)22/h2-3-5-7-8H-4-6H2-1H3

>  <threshold>


>  <reference>
R18|R26|R27|

>  <group>
A

>  <Class>
1

>  <ABC>
21.71

>  <ABCGG>
17.74

>  <nAcid>
0

>  <nBase>
0

>  <nAromAtom>
17

>  <nAromBond>
17

>  <nAtom>
39

>  <nHeavyAtom>
27

>  <nSpiro>
0

>  <nBridgehead>
0

>  <nHetero>
10

>  <nN>
5

>  <nO>
0

>  <nF>
3

>  <BalabanJ>
1.46

>  <BertzCT>
1031.89

>  <nBonds>
42

>  <nBondsO>
30

>  <nBondsS>
25

>  <nBondsD>
0

>  <nBondsT>
0

>  <nBondsA>
17

>  <nBondsM>
17

>  <nBondsKS>
34

>  <nBondsKD>
8

>  <RNCG>
0.17

>  <RPCG>
0.23

>  <FCSP3>
0.24

>  <SZ>
35

>  <Sm>
34.49

>  <Sv>
28.16

>  <Sse>
41.04

>  <Sp>
28.7

>  <Si>
44.89

>  <MZ>
0.9

>  <Mm>
0.88

>  <Mv>
0.72

>  <Mse>
1.05

>  <Mp>
0.74

>  <Mi>
1.15

>  <NsCH3>
1

>  <NdCH2>
0

>  <NssCH2>
2

>  <NtCH>
0

>  <NdsCH>
0

>  <NaaCH>
5

>  <NsssCH>
0

>  <NddC>
0

>  <NtsC>
0

>  <NdssC>
0

>  <NaasC>
8

>  <NaaaC>
0

>  <NssssC>
1

>  <NsNH3>
0

>  <NsNH2>
0

>  <NssNH2>
0

>  <NdNH>
0

>  <NssNH>
0

>  <NaaNH>
0

>  <NtN>
0

>  <NsssNH>
0

>  <NdsN>
0

>  <NaaN>
3

>  <NsssN>
1

>  <NddsN>
0

>  <NaasN>
1

>  <NssssN>
0

>  <NsOH>
0

>  <NdO>
0

>  <NssO>
0

>  <NaaO>
0

>  <NsF>
3

>  <NsSiH3>
0

>  <NssSiH2>
0

>  <NsssSiH>
0

>  <NssssSi>
0

>  <NsPH2>
0

>  <NssPH>
0

>  <NsssP>
0

>  <NdsssP>
0

>  <NsssssP>
0

>  <NsSH>
0

>  <NdS>
0

>  <NssS>
0

>  <NaaS>
0

>  <NdssS>
0

>  <NddssS>
0

>  <NsCl>
2

>  <NsBr>
0

>  <NsI>
0

>  <fragCpx>
198.1

>  <fMF>
0.51

>  <nHBAcc>
5

>  <nHBDon>
0

>  <Kier1>
20.28

>  <Kier2>
7.68

>  <Lipinski>
1

>  <GhoseFilter>
1

>  <FilterItLogS>
-6.25

>  <VMcGowan>
252.21

>  <LabuteASA>
161.91

>  <PEOE_VSA1>
4.9

>  <PEOE_VSA2>
0

>  <PEOE_VSA3>
14.65

>  <PEOE_VSA4>
18.27

>  <PEOE_VSA5>
0

>  <PEOE_VSA6>
23.2

>  <PEOE_VSA7>
37.61

>  <PEOE_VSA8>
23.33

>  <PEOE_VSA9>
10.71

>  <PEOE_VSA10>
11.64

>  <PEOE_VSA11>
11.51

>  <PEOE_VSA12>
0

>  <PEOE_VSA13>
0

>  <SMR_VSA1>
13.17

>  <SMR_VSA2>
0

>  <SMR_VSA3>
19.75

>  <SMR_VSA4>
0

>  <SMR_VSA5>
19.52

>  <SMR_VSA6>
11.44

>  <SMR_VSA7>
57.59

>  <SMR_VSA8>
0

>  <SMR_VSA9>
5.82

>  <SlogP_VSA1>
4.9

>  <SlogP_VSA2>
26.29

>  <SlogP_VSA3>
12.6

>  <SlogP_VSA4>
6.92

>  <SlogP_VSA5>
17.08

>  <SlogP_VSA6>
30.46

>  <SlogP_VSA7>
10.05

>  <SlogP_VSA8>
5.82

>  <SlogP_VSA9>
0

>  <SlogP_VSA10>
24.68

>  <SlogP_VSA11>
0

>  <EState_VSA1>
11.87

>  <EState_VSA2>
0

>  <EState_VSA3>
46.03

>  <EState_VSA4>
16.44

>  <EState_VSA5>
6.2

>  <EState_VSA6>
25.12

>  <EState_VSA7>
4.9

>  <EState_VSA8>
15.07

>  <EState_VSA9>
23.2

>  <EState_VSA10>
13.17

>  <VSA_EState1>
39.81

>  <VSA_EState2>
10.7

>  <VSA_EState3>
4.61

>  <VSA_EState4>
0.46

>  <VSA_EState5>
1.36

>  <VSA_EState6>
6.06

>  <VSA_EState7>
-2.72

>  <VSA_EState8>
2.24

>  <VSA_EState9>
0

>  <apol>
47.92

>  <bpol>
22.1

>  <nRing>
4

>  <nHRing>
3

>  <naRing>
3

>  <naHRing>
2

>  <nARing 2>
1

>  <nAHRing 2>
1

>  <nFRing>
1

>  <nFHRing>
1

>  <nFaRing>
0

>  <nFaHRing>
0

>  <nFARing 2>
1

>  <nFAHRing 2>
1

>  <nRot>
2

>  <SLogP>
4.99

>  <SMR>
96.07

>  <TopoPSA(NO)>
46.84

>  <TopoPSA>
46.84

>  <JGI1>
0.25

>  <JGI2>
0.09

>  <JGI3>
0.05

>  <JGI4>
0.05

>  <JGI5>
0.03

>  <Diameter>
13

>  <Radius>
7

>  <TMWC10>
134.92

>  <TSRW10>
78.64

>  <MW>
413.04

>  <AMW>
10.59

>  <WPath>
1801

>  <WPol>
45

>  <Zagreb1>
152

>  <Zagreb2>
183

>  <mZagreb2>
5.58

>  <yes>


>  <nAR-cont>
0.816016

>  <nHA-cont>
0.860070871

>  <MWHBN>
0.246022002

>  <MWHBN-cont>
0.966212112

>  <TPSA-cont>
0.673027714

>  <pka_cont>
0.97

>  <yes.1>


>  <BBB_SCORE>
4.956460467

>  <MMFF94 Energy>
97.819

$$$$
Compound 530
Actelion Java MolfileCreator 2.0

  0  0  0  0  0  0              0 V3000
M  V30 BEGIN CTAB
M  V30 COUNTS 53 57 0 0 0
M  V30 BEGIN ATOM
M  V30 1 Cl -0.6468 6.239 -1.4558 0
M  V30 2 C -2.0297 5.9848 -0.4477 0
M  V30 3 C -2.4794 4.6906 -0.1419 0
M  V30 4 C -2.6884 7.1152 0.0546 0
M  V30 5 N -1.8162 3.5536 -0.6479 0
M  V30 6 C -3.6052 4.574 0.6794 0
M  V30 7 C -3.8093 6.9708 0.8721 0
M  V30 8 C -2.2581 2.3773 -0.344 0
M  V30 9 C -4.0757 3.2174 0.9999 0
M  V30 10 C -4.272 5.6962 1.1875 0
M  V30 11 N -3.3541 2.189 0.4537 0
M  V30 12 C -1.619 1.1385 -0.8371 0
M  V30 13 O -5.0525 3.0166 1.712 0
M  V30 14 C -0.4518 1.1425 -1.4958 0
M  V30 15 C -2.1363 -0.247 -0.6458 0
M  V30 16 C -0.0033 -0.2336 -1.8806 0 CFG=2
M  V30 17 C -1.2581 -1.078 -1.5839 0
M  V30 18 N 1.2516 -0.6188 -1.221 0
M  V30 19 C 1.8272 -1.8198 -1.8395 0
M  V30 20 C 1.1682 -0.7564 0.2375 0
M  V30 21 C 3.2296 -2.1167 -1.3093 0
M  V30 22 C 2.5486 -0.9811 0.8555 0
M  V30 23 C 3.3401 -2.1326 0.2216 0
M  V30 24 C 3.0575 -3.4896 0.8553 0
M  V30 25 C 4.079 -4.1205 1.5882 0
M  V30 26 C 1.8245 -4.1468 0.7528 0
M  V30 27 C 3.8749 -5.3633 2.1922 0
M  V30 28 C 1.6193 -5.3911 1.3571 0
M  V30 29 C 2.6437 -5.9994 2.076 0
M  V30 30 H -2.328 8.1116 -0.1909 0
M  V30 31 H -4.319 7.8493 1.2611 0
M  V30 32 H -5.1456 5.5745 1.8248 0
M  V30 33 H -3.6864 1.2673 0.69 0
M  V30 34 H 0.125 2.0291 -1.7276 0
M  V30 35 H -2.0114 -0.5643 0.3948 0
M  V30 36 H -3.1904 -0.3439 -0.9236 0
M  V30 37 H 0.1615 -0.2211 -2.9663 0
M  V30 38 H -1.7982 -1.2583 -2.5237 0
M  V30 39 H -1.0435 -2.0673 -1.1671 0
M  V30 40 H 1.9181 -1.6678 -2.9227 0
M  V30 41 H 1.1756 -2.6891 -1.7077 0
M  V30 42 H 0.4898 -1.5635 0.5303 0
M  V30 43 H 0.7701 0.1614 0.6855 0
M  V30 44 H 3.5961 -3.0575 -1.7379 0
M  V30 45 H 3.8977 -1.3292 -1.686 0
M  V30 46 H 3.128 -0.0567 0.7211 0
M  V30 47 H 2.4497 -1.1241 1.9386 0
M  V30 48 H 4.3972 -1.9194 0.4389 0
M  V30 49 H 5.0523 -3.6457 1.6969 0
M  V30 50 H 0.9969 -3.7104 0.2062 0
M  V30 51 H 4.6791 -5.8321 2.7531 0
M  V30 52 H 0.6555 -5.8851 1.2654 0
M  V30 53 H 2.4826 -6.9661 2.5449 0
M  V30 END ATOM
M  V30 BEGIN BOND
M  V30 1 1 1 2
M  V30 2 2 2 3
M  V30 3 1 2 4
M  V30 4 1 3 5
M  V30 5 1 3 6
M  V30 6 2 4 7
M  V30 7 2 5 8
M  V30 8 1 6 9
M  V30 9 2 6 10
M  V30 10 1 8 11
M  V30 11 1 8 12
M  V30 12 2 9 13
M  V30 13 2 12 14
M  V30 14 1 12 15
M  V30 15 1 14 16
M  V30 16 1 15 17
M  V30 17 1 16 18
M  V30 18 1 18 19
M  V30 19 1 18 20
M  V30 20 1 19 21
M  V30 21 1 20 22
M  V30 22 1 21 23
M  V30 23 1 23 24
M  V30 24 2 24 25
M  V30 25 1 24 26
M  V30 26 1 25 27
M  V30 27 2 26 28
M  V30 28 2 27 29
M  V30 29 1 7 10
M  V30 30 1 9 11
M  V30 31 1 16 17
M  V30 32 1 22 23
M  V30 33 1 28 29
M  V30 34 1 4 30
M  V30 35 1 7 31
M  V30 36 1 10 32
M  V30 37 1 11 33
M  V30 38 1 14 34
M  V30 39 1 15 35
M  V30 40 1 15 36
M  V30 41 1 16 37
M  V30 42 1 17 38
M  V30 43 1 17 39
M  V30 44 1 19 40
M  V30 45 1 19 41
M  V30 46 1 20 42
M  V30 47 1 20 43
M  V30 48 1 21 44
M  V30 49 1 21 45
M  V30 50 1 22 46
M  V30 51 1 22 47
M  V30 52 1 23 48
M  V30 53 1 25 49
M  V30 54 1 26 50
M  V30 55 1 27 51
M  V30 56 1 28 52
M  V30 57 1 29 53
M  V30 END BOND
M  V30 BEGIN COLLECTION
M  V30 MDLV30/STERAC1 ATOMS=(1 16)
M  V30 END COLLECTION
M  V30 END CTAB
M  END
>  <Column 1>
650

>  <level_0>
742

>  <index>
742

>  <Unnamed: 0>
742

>  <NO.>
754

>  <Name>
compound-s16d

>  <IUPAC_name>
8-chloro-2-[3-(4-phenylpiperidin-1-yl)cyclopenten-1-yl]-3h-quinazolin-4-one

>  <SMILES>
O=c1[nH]c(C2=CC(N3CCC(c4ccccc4)CC3)CC2)nc2c(Cl)cccc12

>  <CID>
135817291

>  <logBB>
0.36

>  <BBB+/BBB->
BBB+

>  <Inchi>
InChI=1S/C24H24ClN3O/c25-21-8-4-7-20-22(21)26-23(27-24(20)29)18-9-10-19(15-18)28-13-11-17(12-14-28)16-5-2-1-3-6-16/h1-8-15-17-19H-9-14H2-(H-26-27-29)

>  <threshold>


>  <reference>
R18|R26|R27|

>  <group>
A

>  <Class>
1

>  <ABC>
23.31

>  <ABCGG>
16.61

>  <nAcid>
0

>  <nBase>
1

>  <nAromAtom>
16

>  <nAromBond>
17

>  <nAtom>
53

>  <nHeavyAtom>
29

>  <nSpiro>
0

>  <nBridgehead>
0

>  <nHetero>
5

>  <nN>
3

>  <nO>
1

>  <nF>
0

>  <BalabanJ>
1.12

>  <BertzCT>
1113.92

>  <nBonds>
57

>  <nBondsO>
33

>  <nBondsS>
38

>  <nBondsD>
2

>  <nBondsT>
0

>  <nBondsA>
17

>  <nBondsM>
19

>  <nBondsKS>
48

>  <nBondsKD>
9

>  <RNCG>
0.16

>  <RPCG>
0.14

>  <FCSP3>
0.33

>  <SZ>
35.67

>  <Sm>
33.8

>  <Sv>
34.58

>  <Sse>
52.74

>  <Sp>
37.34

>  <Si>
59.22

>  <MZ>
0.67

>  <Mm>
0.64

>  <Mv>
0.65

>  <Mse>
1

>  <Mp>
0.7

>  <Mi>
1.12

>  <NsCH3>
0

>  <NdCH2>
0

>  <NssCH2>
6

>  <NtCH>
0

>  <NdsCH>
1

>  <NaaCH>
8

>  <NsssCH>
2

>  <NddC>
0

>  <NtsC>
0

>  <NdssC>
1

>  <NaasC>
3

>  <NaaaC>
2

>  <NssssC>
0

>  <NsNH3>
0

>  <NsNH2>
0

>  <NssNH2>
0

>  <NdNH>
0

>  <NssNH>
0

>  <NaaNH>
1

>  <NtN>
0

>  <NsssNH>
0

>  <NdsN>
0

>  <NaaN>
1

>  <NsssN>
1

>  <NddsN>
0

>  <NaasN>
0

>  <NssssN>
0

>  <NsOH>
0

>  <NdO>
1

>  <NssO>
0

>  <NaaO>
0

>  <NsF>
0

>  <NsSiH3>
0

>  <NssSiH2>
0

>  <NsssSiH>
0

>  <NssssSi>
0

>  <NsPH2>
0

>  <NssPH>
0

>  <NsssP>
0

>  <NdsssP>
0

>  <NsssssP>
0

>  <NsSH>
0

>  <NdS>
0

>  <NssS>
0

>  <NaaS>
0

>  <NdssS>
0

>  <NddssS>
0

>  <NsCl>
1

>  <NsBr>
0

>  <NsI>
0

>  <fragCpx>
277.05

>  <fMF>
0.51

>  <nHBAcc>
3

>  <nHBDon>
1

>  <Kier1>
20.88

>  <Kier2>
9.24

>  <Lipinski>
0

>  <GhoseFilter>
1

>  <FilterItLogS>
-6.48

>  <VMcGowan>
304.07

>  <LabuteASA>
174.78

>  <PEOE_VSA1>
4.98

>  <PEOE_VSA2>
9.69

>  <PEOE_VSA3>
4.98

>  <PEOE_VSA4>
0

>  <PEOE_VSA5>
0

>  <PEOE_VSA6>
54.08

>  <PEOE_VSA7>
67.96

>  <PEOE_VSA8>
6.04

>  <PEOE_VSA9>
15.93

>  <PEOE_VSA10>
5.82

>  <PEOE_VSA11>
0

>  <PEOE_VSA12>
0

>  <PEOE_VSA13>
5.56

>  <SMR_VSA1>
0

>  <SMR_VSA2>
0

>  <SMR_VSA3>
14.87

>  <SMR_VSA4>
0

>  <SMR_VSA5>
37.64

>  <SMR_VSA6>
13.09

>  <SMR_VSA7>
81.37

>  <SMR_VSA8>
0

>  <SMR_VSA9>
0

>  <SlogP_VSA1>
5.56

>  <SlogP_VSA2>
34

>  <SlogP_VSA3>
0

>  <SlogP_VSA4>
0

>  <SlogP_VSA5>
42.99

>  <SlogP_VSA6>
59.4

>  <SlogP_VSA7>
5.02

>  <SlogP_VSA8>
16.48

>  <SlogP_VSA9>
0

>  <SlogP_VSA10>
0

>  <SlogP_VSA11>
0

>  <EState_VSA1>
0

>  <EState_VSA2>
5.56

>  <EState_VSA3>
33.71

>  <EState_VSA4>
31.5

>  <EState_VSA5>
18.41

>  <EState_VSA6>
18.2

>  <EState_VSA7>
0

>  <EState_VSA8>
51.28

>  <EState_VSA9>
11.6

>  <EState_VSA10>
4.79

>  <VSA_EState1>
0

>  <VSA_EState2>
22.69

>  <VSA_EState3>
1.06

>  <VSA_EState4>
3.05

>  <VSA_EState5>
1.33

>  <VSA_EState6>
16.61

>  <VSA_EState7>
6.7

>  <VSA_EState8>
2.23

>  <VSA_EState9>
0

>  <apol>
62.37

>  <bpol>
28.87

>  <nRing>
5

>  <nHRing>
2

>  <naRing>
3

>  <naHRing>
1

>  <nARing 2>
2

>  <nAHRing 2>
1

>  <nFRing>
1

>  <nFHRing>
1

>  <nFaRing>
1

>  <nFaHRing>
1

>  <nFARing 2>
0

>  <nFAHRing 2>
0

>  <nRot>
3

>  <SLogP>
5

>  <SMR>
118.36

>  <TopoPSA(NO)>
48.99

>  <TopoPSA>
48.99

>  <JGI1>
0.15

>  <JGI2>
0.08

>  <JGI3>
0.03

>  <JGI4>
0.04

>  <JGI5>
0.03

>  <Diameter>
16

>  <Radius>
8

>  <TMWC10>
139.6

>  <TSRW10>
78.52

>  <MW>
405.16

>  <AMW>
7.64

>  <WPath>
2487

>  <WPol>
48

>  <Zagreb1>
160

>  <Zagreb2>
192

>  <mZagreb2>
6.25

>  <yes>


>  <nAR-cont>
1

>  <nHA-cont>
0.785905698

>  <MWHBN>
0.198722348

>  <MWHBN-cont>
0.999352897

>  <TPSA-cont>
0.658019379

>  <pka_cont>
0.97

>  <yes.1>


>  <BBB_SCORE>
5.085973801

>  <MMFF94 Energy>
7.4885

$$$$
Compound 531
Actelion Java MolfileCreator 2.0

  0  0  0  0  0  0              0 V3000
M  V30 BEGIN CTAB
M  V30 COUNTS 68 71 0 0 0
M  V30 BEGIN ATOM
M  V30 1 O -0.7151 -1.2716 -1.5102 0
M  V30 2 C -0.325 -1.9016 -0.531 0
M  V30 3 N -0.1245 -3.2638 -0.5448 0
M  V30 4 C -0.1227 -1.2087 0.7581 0
M  V30 5 C -0.4007 -4.043 -1.7237 0
M  V30 6 C 0.9339 -1.4753 1.6132 0
M  V30 7 C -1.011 -0.21 1.1616 0
M  V30 8 O 1.8939 -2.4034 1.2343 0
M  V30 9 N 1.0888 -0.8686 2.8069 0
M  V30 10 N -0.8732 0.4099 2.3512 0
M  V30 11 N -2.1152 0.1231 0.393 0
M  V30 12 C 3.0437 -2.4017 2.0865 0
M  V30 13 C 0.1666 0.0533 3.118 0
M  V30 14 C -3.0559 1.1561 0.7847 0
M  V30 15 C 4.2201 -3.2187 1.5208 0
M  V30 16 C 0.3057 0.72 4.3854 0
M  V30 17 C -2.5201 2.5682 0.4843 0
M  V30 18 C 3.9275 -4.7212 1.4074 0
M  V30 19 C 4.755 -2.6572 0.1951 0
M  V30 20 N 0.4258 1.2535 5.4127 0
M  V30 21 C -2.3356 2.799 -1.0266 0
M  V30 22 C -3.4747 3.6228 1.0703 0
M  V30 23 C 3.2341 -5.1294 0.1089 0
M  V30 24 C 4.0048 -3.155 -1.0391 0
M  V30 25 C -1.8692 4.2227 -1.3312 0
M  V30 26 C -2.9954 5.0428 0.7768 0
M  V30 27 N 3.9662 -4.6212 -1.0537 0
M  V30 28 C -2.8419 5.2482 -0.7322 0
M  V30 29 C 3.3791 -5.1092 -2.2992 0
M  V30 30 C -2.5029 6.7214 -1.1165 0
M  V30 31 C -4.179 5.4515 -1.5148 0
M  V30 32 C -3.4994 6.5993 -2.2838 0
M  V30 33 H 0.2045 -3.7349 0.2887 0
M  V30 34 H 0.1203 -3.61 -2.5816 0
M  V30 35 H -1.4777 -4.0333 -1.9112 0
M  V30 36 H -0.062 -5.0675 -1.555 0
M  V30 37 H -2.0343 -0.0838 -0.6053 0
M  V30 38 H 3.4041 -1.374 2.233 0
M  V30 39 H 2.7645 -2.8166 3.064 0
M  V30 40 H -3.3192 1.0538 1.8448 0
M  V30 41 H -3.9868 0.9948 0.2274 0
M  V30 42 H 5.0231 -3.1071 2.2634 0
M  V30 43 H -1.5422 2.6929 0.9677 0
M  V30 44 H 4.8848 -5.2578 1.4636 0
M  V30 45 H 3.3375 -5.0632 2.2659 0
M  V30 46 H 4.752 -1.5609 0.2128 0
M  V30 47 H 5.808 -2.9564 0.0988 0
M  V30 48 H -1.5973 2.0966 -1.43 0
M  V30 49 H -3.2803 2.6012 -1.548 0
M  V30 50 H -3.5538 3.4899 2.156 0
M  V30 51 H -4.4815 3.4817 0.6571 0
M  V30 52 H 2.196 -4.7839 0.108 0
M  V30 53 H 3.2021 -6.2256 0.0766 0
M  V30 54 H 4.539 -2.7893 -1.9249 0
M  V30 55 H 2.9959 -2.728 -1.0789 0
M  V30 56 H -0.8663 4.3739 -0.9122 0
M  V30 57 H -1.7787 4.3464 -2.4165 0
M  V30 58 H -3.7091 5.7598 1.2 0
M  V30 59 H -2.0357 5.2182 1.2787 0
M  V30 60 H 2.3504 -4.7629 -2.4368 0
M  V30 61 H 3.3808 -6.2044 -2.3236 0
M  V30 62 H 3.9711 -4.7767 -3.159 0
M  V30 63 H -1.4673 6.9234 -1.4045 0
M  V30 64 H -2.8056 7.4673 -0.3713 0
M  V30 65 H -5.0195 5.7879 -0.8957 0
M  V30 66 H -4.5192 4.6166 -2.133 0
M  V30 67 H -4.1219 7.4786 -2.4686 0
M  V30 68 H -3.0393 6.2882 -3.2282 0
M  V30 END ATOM
M  V30 BEGIN BOND
M  V30 1 2 1 2
M  V30 2 1 2 3
M  V30 3 1 2 4
M  V30 4 1 3 5
M  V30 5 2 4 6
M  V30 6 1 4 7
M  V30 7 1 6 8
M  V30 8 1 6 9
M  V30 9 2 7 10
M  V30 10 1 7 11
M  V30 11 1 8 12
M  V30 12 2 9 13
M  V30 13 1 11 14
M  V30 14 1 12 15
M  V30 15 1 13 16
M  V30 16 1 14 17
M  V30 17 1 15 18
M  V30 18 1 15 19
M  V30 19 3 16 20
M  V30 20 1 17 21
M  V30 21 1 17 22
M  V30 22 1 18 23
M  V30 23 1 19 24
M  V30 24 1 21 25
M  V30 25 1 22 26
M  V30 26 1 23 27
M  V30 27 1 25 28
M  V30 28 1 27 29
M  V30 29 1 28 30
M  V30 30 1 28 31
M  V30 31 1 30 32
M  V30 32 1 10 13
M  V30 33 1 24 27
M  V30 34 1 26 28
M  V30 35 1 31 32
M  V30 36 1 3 33
M  V30 37 1 5 34
M  V30 38 1 5 35
M  V30 39 1 5 36
M  V30 40 1 11 37
M  V30 41 1 12 38
M  V30 42 1 12 39
M  V30 43 1 14 40
M  V30 44 1 14 41
M  V30 45 1 15 42
M  V30 46 1 17 43
M  V30 47 1 18 44
M  V30 48 1 18 45
M  V30 49 1 19 46
M  V30 50 1 19 47
M  V30 51 1 21 48
M  V30 52 1 21 49
M  V30 53 1 22 50
M  V30 54 1 22 51
M  V30 55 1 23 52
M  V30 56 1 23 53
M  V30 57 1 24 54
M  V30 58 1 24 55
M  V30 59 1 25 56
M  V30 60 1 25 57
M  V30 61 1 26 58
M  V30 62 1 26 59
M  V30 63 1 29 60
M  V30 64 1 29 61
M  V30 65 1 29 62
M  V30 66 1 30 63
M  V30 67 1 30 64
M  V30 68 1 31 65
M  V30 69 1 31 66
M  V30 70 1 32 67
M  V30 71 1 32 68
M  V30 END BOND
M  V30 END CTAB
M  END
>  <Column 1>
651

>  <level_0>
743

>  <index>
743

>  <Unnamed: 0>
743

>  <NO.>
755

>  <Name>
chembl515025

>  <IUPAC_name>
2-cyano-n-methyl-4-[(1-methylpiperidin-4-yl)methoxy]-6-(spiro[3.5]nonan-7-ylmethylamino)pyrimidine-5-carboxamide

>  <SMILES>
CNC(=O)c1c(NCC2CCC3(CCC3)CC2)nc(C#N)nc1OCC1CCN(C)CC1

>  <CID>
44579121

>  <logBB>
0.37

>  <BBB+/BBB->
BBB+

>  <Inchi>
InChI=1S/C24H36N6O2/c1-26-22(31)20-21(27-15-17-4-10-24(11-5-17)8-3-9-24)28-19(14-25)29-23(20)32-16-18-6-12-30(2)13-7-18/h17-18H-3-13-15-16H2-1-2H3-(H-26-31)(H-27-28-29)

>  <threshold>


>  <reference>
R18|R26|R27|

>  <group>
A

>  <Class>
1

>  <ABC>
24.85

>  <ABCGG>
19.05

>  <nAcid>
0

>  <nBase>
1

>  <nAromAtom>
6

>  <nAromBond>
6

>  <nAtom>
68

>  <nHeavyAtom>
32

>  <nSpiro>
1

>  <nBridgehead>
0

>  <nHetero>
8

>  <nN>
6

>  <nO>
2

>  <nF>
0

>  <BalabanJ>
1.33

>  <BertzCT>
844.78

>  <nBonds>
71

>  <nBondsO>
35

>  <nBondsS>
63

>  <nBondsD>
1

>  <nBondsT>
1

>  <nBondsA>
6

>  <nBondsM>
8

>  <nBondsKS>
66

>  <nBondsKD>
4

>  <RNCG>
0.17

>  <RPCG>
0.09

>  <FCSP3>
0.75

>  <SZ>
39.67

>  <Sm>
36.68

>  <Sv>
39.73

>  <Sse>
67.62

>  <Sp>
43.29

>  <Si>
77.64

>  <MZ>
0.58

>  <Mm>
0.54

>  <Mv>
0.58

>  <Mse>
0.99

>  <Mp>
0.64

>  <Mi>
1.14

>  <NsCH3>
2

>  <NdCH2>
0

>  <NssCH2>
13

>  <NtCH>
0

>  <NdsCH>
0

>  <NaaCH>
0

>  <NsssCH>
2

>  <NddC>
0

>  <NtsC>
1

>  <NdssC>
1

>  <NaasC>
4

>  <NaaaC>
0

>  <NssssC>
1

>  <NsNH3>
0

>  <NsNH2>
0

>  <NssNH2>
0

>  <NdNH>
0

>  <NssNH>
2

>  <NaaNH>
0

>  <NtN>
1

>  <NsssNH>
0

>  <NdsN>
0

>  <NaaN>
2

>  <NsssN>
1

>  <NddsN>
0

>  <NaasN>
0

>  <NssssN>
0

>  <NsOH>
0

>  <NdO>
1

>  <NssO>
1

>  <NaaO>
0

>  <NsF>
0

>  <NsSiH3>
0

>  <NssSiH2>
0

>  <NsssSiH>
0

>  <NssssSi>
0

>  <NsPH2>
0

>  <NssPH>
0

>  <NsssP>
0

>  <NdsssP>
0

>  <NsssssP>
0

>  <NsSH>
0

>  <NdS>
0

>  <NssS>
0

>  <NaaS>
0

>  <NdssS>
0

>  <NddssS>
0

>  <NsCl>
0

>  <NsBr>
0

>  <NsI>
0

>  <fragCpx>
233.08

>  <fMF>
0.37

>  <nHBAcc>
7

>  <nHBDon>
2

>  <Kier1>
25.1

>  <Kier2>
11.62

>  <Lipinski>
1

>  <GhoseFilter>
1

>  <FilterItLogS>
-5.75

>  <VMcGowan>
351.4

>  <LabuteASA>
190.68

>  <PEOE_VSA1>
20.27

>  <PEOE_VSA2>
4.79

>  <PEOE_VSA3>
4.98

>  <PEOE_VSA4>
10.25

>  <PEOE_VSA5>
0

>  <PEOE_VSA6>
6.42

>  <PEOE_VSA7>
88.75

>  <PEOE_VSA8>
13.59

>  <PEOE_VSA9>
6.61

>  <PEOE_VSA10>
17.45

>  <PEOE_VSA11>
0

>  <PEOE_VSA12>
11.7

>  <PEOE_VSA13>
5.91

>  <SMR_VSA1>
9.53

>  <SMR_VSA2>
5.26

>  <SMR_VSA3>
20.18

>  <SMR_VSA4>
17.25

>  <SMR_VSA5>
57.79

>  <SMR_VSA6>
45.65

>  <SMR_VSA7>
11.39

>  <SMR_VSA8>
0

>  <SMR_VSA9>
11.95

>  <SlogP_VSA1>
15.37

>  <SlogP_VSA2>
61.11

>  <SlogP_VSA3>
0

>  <SlogP_VSA4>
28.58

>  <SlogP_VSA5>
73.97

>  <SlogP_VSA6>
0

>  <SlogP_VSA7>
0

>  <SlogP_VSA8>
0

>  <SlogP_VSA9>
0

>  <SlogP_VSA10>
5.82

>  <SlogP_VSA11>
5.88

>  <EState_VSA1>
0

>  <EState_VSA2>
17.61

>  <EState_VSA3>
35.24

>  <EState_VSA4>
32.48

>  <EState_VSA5>
44.95

>  <EState_VSA6>
7.05

>  <EState_VSA7>
6.07

>  <EState_VSA8>
32.55

>  <EState_VSA9>
4.74

>  <EState_VSA10>
10.06

>  <VSA_EState1>
6.04

>  <VSA_EState2>
23.62

>  <VSA_EState3>
15.51

>  <VSA_EState4>
0.92

>  <VSA_EState5>
1.31

>  <VSA_EState6>
2.02

>  <VSA_EState7>
11.3

>  <VSA_EState8>
3.32

>  <VSA_EState9>
3.71

>  <apol>
72.29

>  <bpol>
44.42

>  <nRing>
4

>  <nHRing>
2

>  <naRing>
1

>  <naHRing>
1

>  <nARing 2>
3

>  <nAHRing 2>
1

>  <nFRing>
0

>  <nFHRing>
0

>  <nFaRing>
0

>  <nFaHRing>
0

>  <nFARing 2>
0

>  <nFAHRing 2>
0

>  <nRot>
7

>  <SLogP>
3.2

>  <SMR>
122.58

>  <TopoPSA(NO)>
103.17

>  <TopoPSA>
103.17

>  <JGI1>
0.21

>  <JGI2>
0.07

>  <JGI3>
0.04

>  <JGI4>
0.05

>  <JGI5>
0.02

>  <Diameter>
17

>  <Radius>
9

>  <TMWC10>
144.55

>  <TSRW10>
68.33

>  <MW>
440.29

>  <AMW>
6.47

>  <WPath>
3155

>  <WPol>
49

>  <Zagreb1>
168

>  <Zagreb2>
197

>  <mZagreb2>
7.17

>  <yes>


>  <nAR-cont>
0.691115

>  <nHA-cont>
0.658856097

>  <MWHBN>
0.428916841

>  <MWHBN-cont>
0.363819774

>  <TPSA-cont>
0.279809335

>  <pka_cont>
0.97

>  <yes.1>


>  <BBB_SCORE>
2.940319429

>  <MMFF94 Energy>
19.314

$$$$
Compound 532
Actelion Java MolfileCreator 2.0

  0  0  0  0  0  0              0 V3000
M  V30 BEGIN CTAB
M  V30 COUNTS 6 5 0 0 0
M  V30 BEGIN ATOM
M  V30 1 Cl 1.3487 0.2074 1.6601 0
M  V30 2 C 0.5857 0.2763 0.0999 0
M  V30 3 Cl 1.5494 1.002 -1.1511 0
M  V30 4 C -0.6534 -0.195 -0.1217 0
M  V30 5 Cl -1.6172 -0.9207 1.1294 0
M  V30 6 Cl -1.4164 -0.1261 -1.6818 0
M  V30 END ATOM
M  V30 BEGIN BOND
M  V30 1 1 1 2
M  V30 2 1 2 3
M  V30 3 2 2 4
M  V30 4 1 4 5
M  V30 5 1 4 6
M  V30 END BOND
M  V30 END CTAB
M  END
>  <Column 1>
653

>  <level_0>
745

>  <index>
745

>  <Unnamed: 0>
745

>  <NO.>
757

>  <Name>
tetrachloroethylene

>  <IUPAC_name>
1-1-2-2-tetrachloroethene

>  <SMILES>
ClC(Cl)=C(Cl)Cl

>  <CID>
31373

>  <logBB>
0.37

>  <BBB+/BBB->
BBB+

>  <Inchi>
InChI=1S/C2Cl4/c3-1(4)2(5)6

>  <threshold>


>  <reference>
R2|R2|R3|R8|R21|R25|R27|R27|R38|R40|R41|R43|R46|R47|

>  <group>
A

>  <Class>
1

>  <ABC>
3.93

>  <ABCGG>
4.24

>  <nAcid>
0

>  <nBase>
0

>  <nAromAtom>
0

>  <nAromBond>
0

>  <nAtom>
6

>  <nHeavyAtom>
6

>  <nSpiro>
0

>  <nBridgehead>
0

>  <nHetero>
4

>  <nN>
0

>  <nO>
0

>  <nF>
0

>  <BalabanJ>
2.99

>  <BertzCT>
55.62

>  <nBonds>
5

>  <nBondsO>
5

>  <nBondsS>
4

>  <nBondsD>
1

>  <nBondsT>
0

>  <nBondsA>
0

>  <nBondsM>
1

>  <nBondsKS>
4

>  <nBondsKD>
1

>  <RNCG>
0.25

>  <RPCG>
0.5

>  <FCSP3>
0

>  <SZ>
13.33

>  <Sm>
13.81

>  <Sv>
6.36

>  <Sse>
7.06

>  <Sp>
7.22

>  <Si>
6.61

>  <MZ>
2.22

>  <Mm>
2.3

>  <Mv>
1.06

>  <Mse>
1.18

>  <Mp>
1.2

>  <Mi>
1.1

>  <NsCH3>
0

>  <NdCH2>
0

>  <NssCH2>
0

>  <NtCH>
0

>  <NdsCH>
0

>  <NaaCH>
0

>  <NsssCH>
0

>  <NddC>
0

>  <NtsC>
0

>  <NdssC>
2

>  <NaasC>
0

>  <NaaaC>
0

>  <NssssC>
0

>  <NsNH3>
0

>  <NsNH2>
0

>  <NssNH2>
0

>  <NdNH>
0

>  <NssNH>
0

>  <NaaNH>
0

>  <NtN>
0

>  <NsssNH>
0

>  <NdsN>
0

>  <NaaN>
0

>  <NsssN>
0

>  <NddsN>
0

>  <NaasN>
0

>  <NssssN>
0

>  <NsOH>
0

>  <NdO>
0

>  <NssO>
0

>  <NaaO>
0

>  <NsF>
0

>  <NsSiH3>
0

>  <NssSiH2>
0

>  <NsssSiH>
0

>  <NssssSi>
0

>  <NsPH2>
0

>  <NssPH>
0

>  <NsssP>
0

>  <NdsssP>
0

>  <NsssssP>
0

>  <NsSH>
0

>  <NdS>
0

>  <NssS>
0

>  <NaaS>
0

>  <NdssS>
0

>  <NddssS>
0

>  <NsCl>
4

>  <NsBr>
0

>  <NsI>
0

>  <fragCpx>
5.04

>  <fMF>
0

>  <nHBAcc>
0

>  <nHBDon>
0

>  <Kier1>
6

>  <Kier2>
2.22

>  <Lipinski>
1

>  <GhoseFilter>
0

>  <FilterItLogS>
-2.43

>  <VMcGowan>
83.7

>  <LabuteASA>
55.63

>  <PEOE_VSA1>
0

>  <PEOE_VSA2>
0

>  <PEOE_VSA3>
0

>  <PEOE_VSA4>
0

>  <PEOE_VSA5>
0

>  <PEOE_VSA6>
46.4

>  <PEOE_VSA7>
0

>  <PEOE_VSA8>
0

>  <PEOE_VSA9>
0

>  <PEOE_VSA10>
8.98

>  <PEOE_VSA11>
0

>  <PEOE_VSA12>
0

>  <PEOE_VSA13>
0

>  <SMR_VSA1>
0

>  <SMR_VSA2>
0

>  <SMR_VSA3>
0

>  <SMR_VSA4>
0

>  <SMR_VSA5>
0

>  <SMR_VSA6>
0

>  <SMR_VSA7>
8.98

>  <SMR_VSA8>
0

>  <SMR_VSA9>
0

>  <SlogP_VSA1>
0

>  <SlogP_VSA2>
0

>  <SlogP_VSA3>
0

>  <SlogP_VSA4>
0

>  <SlogP_VSA5>
0

>  <SlogP_VSA6>
8.98

>  <SlogP_VSA7>
0

>  <SlogP_VSA8>
0

>  <SlogP_VSA9>
0

>  <SlogP_VSA10>
0

>  <SlogP_VSA11>
0

>  <EState_VSA1>
0

>  <EState_VSA2>
8.98

>  <EState_VSA3>
0

>  <EState_VSA4>
0

>  <EState_VSA5>
0

>  <EState_VSA6>
0

>  <EState_VSA7>
0

>  <EState_VSA8>
0

>  <EState_VSA9>
46.4

>  <EState_VSA10>
0

>  <VSA_EState1>
-0.2

>  <VSA_EState2>
0

>  <VSA_EState3>
0

>  <VSA_EState4>
0

>  <VSA_EState5>
0

>  <VSA_EState6>
0

>  <VSA_EState7>
0

>  <VSA_EState8>
0

>  <VSA_EState9>
0

>  <apol>
12.06

>  <bpol>
2.04

>  <nRing>
0

>  <nHRing>
0

>  <naRing>
0

>  <naHRing>
0

>  <nARing 2>
0

>  <nAHRing 2>
0

>  <nFRing>
0

>  <nFHRing>
0

>  <nFaRing>
0

>  <nFaHRing>
0

>  <nFARing 2>
0

>  <nFAHRing 2>
0

>  <nRot>
0

>  <SLogP>
3.07

>  <SMR>
30.44

>  <TopoPSA(NO)>
0

>  <TopoPSA>
0

>  <JGI1>
0.4

>  <JGI2>
0.15

>  <JGI3>
0

>  <JGI4>
0

>  <JGI5>
0

>  <Diameter>
3

>  <Radius>
2

>  <TMWC10>
63.61

>  <TSRW10>
30.7

>  <MW>
163.88

>  <AMW>
27.31

>  <WPath>
29

>  <WPol>
4

>  <Zagreb1>
22

>  <Zagreb2>
21

>  <mZagreb2>
1.44

>  <yes>


>  <nAR-cont>
0.336376

>  <nHA-cont>
0.238778273

>  <MWHBN>
0

>  <MWHBN-cont>
0

>  <TPSA-cont>
0

>  <pka_cont>
0.97

>  <yes.1>


>  <BBB_SCORE>
1.060154273

>  <MMFF94 Energy>
10.685

$$$$
Compound 533
Actelion Java MolfileCreator 2.0

  0  0  0  0  0  0              0 V3000
M  V30 BEGIN CTAB
M  V30 COUNTS 38 38 0 0 0
M  V30 BEGIN ATOM
M  V30 1 O 1.9571 0.0 1.3305 0
M  V30 2 C 1.965 0.6953 2.5118 0
M  V30 3 C 0.8677 0.2334 0.4254 0
M  V30 4 C 3.0517 0.4537 3.3696 0
M  V30 5 C 0.9792 1.6071 2.9051 0
M  V30 6 C 1.0992 -0.6509 -0.807 0 CFG=1
M  V30 7 C 4.0833 -0.4769 3.0098 0
M  V30 8 C 3.1428 1.1219 4.5993 0
M  V30 9 C 1.0763 2.2697 4.1329 0
M  V30 10 O 1.0133 -2.0369 -0.4316 0
M  V30 11 C 0.0839 -0.3728 -1.9327 0
M  V30 12 N 4.9288 -1.2267 2.7425 0
M  V30 13 C 2.1555 2.0292 4.9791 0
M  V30 14 N -1.2888 -0.6316 -1.4778 0
M  V30 15 C -2.3398 -0.5576 -2.5078 0
M  V30 16 C -2.353 0.8028 -3.2228 0
M  V30 17 C -3.6767 -0.7278 -1.7611 0
M  V30 18 C -2.2114 -1.6916 -3.5386 0
M  V30 19 H 0.8517 1.2878 0.1266 0
M  V30 20 H -0.069 -0.0485 0.92 0
M  V30 21 H 0.1174 1.8259 2.282 0
M  V30 22 H 2.1142 -0.4941 -1.1905 0
M  V30 23 H 3.9831 0.9369 5.266 0
M  V30 24 H 0.3031 2.9759 4.4287 0
M  V30 25 H 1.6306 -2.1481 0.3164 0
M  V30 26 H 0.193 0.6672 -2.2564 0
M  V30 27 H 0.3313 -1.029 -2.7733 0
M  V30 28 H 2.2265 2.5462 5.9332 0
M  V30 29 H -1.2895 -1.5682 -1.0588 0
M  V30 30 H -1.4633 0.9468 -3.8451 0
M  V30 31 H -3.224 0.8897 -3.8828 0
M  V30 32 H -2.4017 1.6297 -2.5048 0
M  V30 33 H -3.8199 0.0604 -1.0122 0
M  V30 34 H -4.5253 -0.6811 -2.4536 0
M  V30 35 H -3.7286 -1.6934 -1.2438 0
M  V30 36 H -1.3173 -1.5821 -4.1609 0
M  V30 37 H -2.1643 -2.6718 -3.0503 0
M  V30 38 H -3.074 -1.7038 -4.2151 0
M  V30 END ATOM
M  V30 BEGIN BOND
M  V30 1 1 1 2
M  V30 2 1 1 3
M  V30 3 2 2 4
M  V30 4 1 2 5
M  V30 5 1 3 6
M  V30 6 1 4 7
M  V30 7 1 4 8
M  V30 8 2 5 9
M  V30 9 1 6 10
M  V30 10 1 6 11
M  V30 11 3 7 12
M  V30 12 2 8 13
M  V30 13 1 11 14
M  V30 14 1 14 15
M  V30 15 1 15 16
M  V30 16 1 15 17
M  V30 17 1 15 18
M  V30 18 1 9 13
M  V30 19 1 3 19
M  V30 20 1 3 20
M  V30 21 1 5 21
M  V30 22 1 6 22
M  V30 23 1 8 23
M  V30 24 1 9 24
M  V30 25 1 10 25
M  V30 26 1 11 26
M  V30 27 1 11 27
M  V30 28 1 13 28
M  V30 29 1 14 29
M  V30 30 1 16 30
M  V30 31 1 16 31
M  V30 32 1 16 32
M  V30 33 1 17 33
M  V30 34 1 17 34
M  V30 35 1 17 35
M  V30 36 1 18 36
M  V30 37 1 18 37
M  V30 38 1 18 38
M  V30 END BOND
M  V30 BEGIN COLLECTION
M  V30 MDLV30/STERAC1 ATOMS=(1 6)
M  V30 END COLLECTION
M  V30 END CTAB
M  END
>  <Column 1>
654

>  <level_0>
746

>  <index>
746

>  <Unnamed: 0>
746

>  <NO.>
758

>  <Name>
bunitrolol

>  <IUPAC_name>
2-[3-(tert-butylamino)-2-hydroxypropoxy]benzonitrile

>  <SMILES>
CC(C)(C)NCC(O)COc1ccccc1C#N

>  <CID>
2473

>  <logBB>
0.38

>  <BBB+/BBB->
BBB+

>  <Inchi>
InChI=1S/C14H20N2O2/c1-14(2-3)16-9-12(17)10-18-13-7-5-4-6-11(13)8-15/h4-7-12-16-17H-9-10H2-1-3H3

>  <threshold>


>  <reference>
R2|R2|R8|R21|R25|R27|R27|R47|R40|

>  <group>
A

>  <Class>
1

>  <ABC>
13.27

>  <ABCGG>
11.78

>  <nAcid>
0

>  <nBase>
1

>  <nAromAtom>
6

>  <nAromBond>
6

>  <nAtom>
38

>  <nHeavyAtom>
18

>  <nSpiro>
0

>  <nBridgehead>
0

>  <nHetero>
4

>  <nN>
2

>  <nO>
2

>  <nF>
0

>  <BalabanJ>
2.22

>  <BertzCT>
418.54

>  <nBonds>
38

>  <nBondsO>
18

>  <nBondsS>
31

>  <nBondsD>
0

>  <nBondsT>
1

>  <nBondsA>
6

>  <nBondsM>
7

>  <nBondsKS>
34

>  <nBondsKD>
3

>  <RNCG>
0.29

>  <RPCG>
0.12

>  <FCSP3>
0.5

>  <SZ>
22.33

>  <Sm>
20.67

>  <Sv>
22.36

>  <Sse>
37.87

>  <Sp>
24.26

>  <Si>
43.15

>  <MZ>
0.59

>  <Mm>
0.54

>  <Mv>
0.59

>  <Mse>
1

>  <Mp>
0.64

>  <Mi>
1.14

>  <NsCH3>
3

>  <NdCH2>
0

>  <NssCH2>
2

>  <NtCH>
0

>  <NdsCH>
0

>  <NaaCH>
4

>  <NsssCH>
1

>  <NddC>
0

>  <NtsC>
1

>  <NdssC>
0

>  <NaasC>
2

>  <NaaaC>
0

>  <NssssC>
1

>  <NsNH3>
0

>  <NsNH2>
0

>  <NssNH2>
0

>  <NdNH>
0

>  <NssNH>
1

>  <NaaNH>
0

>  <NtN>
1

>  <NsssNH>
0

>  <NdsN>
0

>  <NaaN>
0

>  <NsssN>
0

>  <NddsN>
0

>  <NaasN>
0

>  <NssssN>
0

>  <NsOH>
1

>  <NdO>
0

>  <NssO>
1

>  <NaaO>
0

>  <NsF>
0

>  <NsSiH3>
0

>  <NssSiH2>
0

>  <NsssSiH>
0

>  <NssssSi>
0

>  <NsPH2>
0

>  <NssPH>
0

>  <NsssP>
0

>  <NdsssP>
0

>  <NsssssP>
0

>  <NsSH>
0

>  <NdS>
0

>  <NssS>
0

>  <NaaS>
0

>  <NdssS>
0

>  <NddssS>
0

>  <NsCl>
0

>  <NsBr>
0

>  <NsI>
0

>  <fragCpx>
18.04

>  <fMF>
0.16

>  <nHBAcc>
4

>  <nHBDon>
2

>  <Kier1>
16.06

>  <Kier2>
7.56

>  <Lipinski>
1

>  <GhoseFilter>
1

>  <FilterItLogS>
-3.17

>  <VMcGowan>
207.46

>  <LabuteASA>
108.2

>  <PEOE_VSA1>
15.16

>  <PEOE_VSA2>
0

>  <PEOE_VSA3>
0

>  <PEOE_VSA4>
5.26

>  <PEOE_VSA5>
0

>  <PEOE_VSA6>
12.13

>  <PEOE_VSA7>
32.9

>  <PEOE_VSA8>
12.08

>  <PEOE_VSA9>
5.56

>  <PEOE_VSA10>
24.53

>  <PEOE_VSA11>
0

>  <PEOE_VSA12>
0

>  <PEOE_VSA13>
0

>  <SMR_VSA1>
9.84

>  <SMR_VSA2>
5.26

>  <SMR_VSA3>
5.32

>  <SMR_VSA4>
0

>  <SMR_VSA5>
32.41

>  <SMR_VSA6>
13.15

>  <SMR_VSA7>
29.83

>  <SMR_VSA8>
0

>  <SMR_VSA9>
11.82

>  <SlogP_VSA1>
10.05

>  <SlogP_VSA2>
29.9

>  <SlogP_VSA3>
0

>  <SlogP_VSA4>
11.33

>  <SlogP_VSA5>
26.33

>  <SlogP_VSA6>
24.27

>  <SlogP_VSA7>
0

>  <SlogP_VSA8>
0

>  <SlogP_VSA9>
0

>  <SlogP_VSA10>
0

>  <SlogP_VSA11>
5.75

>  <EState_VSA1>
6.1

>  <EState_VSA2>
12.15

>  <EState_VSA3>
17.86

>  <EState_VSA4>
0

>  <EState_VSA5>
0

>  <EState_VSA6>
24.27

>  <EState_VSA7>
20.77

>  <EState_VSA8>
11.39

>  <EState_VSA9>
10

>  <EState_VSA10>
5.11

>  <VSA_EState1>
5.44

>  <VSA_EState2>
0

>  <VSA_EState3>
21.85

>  <VSA_EState4>
0.44

>  <VSA_EState5>
0.51

>  <VSA_EState6>
9.05

>  <VSA_EState7>
-0.6

>  <VSA_EState8>
6.72

>  <VSA_EState9>
0

>  <apol>
40.52

>  <bpol>
22.94

>  <nRing>
1

>  <nHRing>
0

>  <naRing>
1

>  <naHRing>
0

>  <nARing 2>
0

>  <nAHRing 2>
0

>  <nFRing>
0

>  <nFHRing>
0

>  <nFaRing>
0

>  <nFaHRing>
0

>  <nFARing 2>
0

>  <nFAHRing 2>
0

>  <nRot>
5

>  <SLogP>
1.69

>  <SMR>
70.41

>  <TopoPSA(NO)>
65.28

>  <TopoPSA>
65.28

>  <JGI1>
0.28

>  <JGI2>
0.08

>  <JGI3>
0.04

>  <JGI4>
0.05

>  <JGI5>
0.03

>  <Diameter>
10

>  <Radius>
5

>  <TMWC10>
104.82

>  <TSRW10>
50.09

>  <MW>
248.15

>  <AMW>
6.53

>  <WPath>
706

>  <WPol>
21

>  <Zagreb1>
84

>  <Zagreb2>
90

>  <mZagreb2>
4.07

>  <yes>


>  <nAR-cont>
0.336376

>  <nHA-cont>
0.991161285

>  <MWHBN>
0.380885211

>  <MWHBN-cont>
0.55133077

>  <TPSA-cont>
0.544305064

>  <pka_cont>
0.97

>  <yes.1>


>  <BBB_SCORE>
3.728143566

>  <MMFF94 Energy>
75.348

$$$$
Compound 534
Actelion Java MolfileCreator 2.0

  0  0  0  0  0  0              0 V3000
M  V30 BEGIN CTAB
M  V30 COUNTS 45 47 0 0 0
M  V30 BEGIN ATOM
M  V30 1 O -0.2365 -2.1305 -4.0273 0
M  V30 2 C -0.983 -2.107 -2.8842 0
M  V30 3 C -0.4009 -1.6788 -1.6935 0
M  V30 4 C -2.3104 -2.5176 -2.9135 0
M  V30 5 C -1.1859 -1.713 -0.5183 0
M  V30 6 C 1.0489 -1.2527 -1.6293 0
M  V30 7 C -3.0702 -2.5113 -1.7369 0
M  V30 8 C -2.5365 -2.1075 -0.503 0
M  V30 9 N 1.2023 -0.0629 -0.8163 0
M  V30 10 N -3.2925 -2.0991 0.6634 0
M  V30 11 C 2.4058 0.5236 -0.4352 0
M  V30 12 C -2.7932 -1.4496 1.8707 0
M  V30 13 C -4.6549 -2.6125 0.6877 0
M  V30 14 C 2.3647 1.6715 0.3889 0
M  V30 15 C 3.6452 -0.0165 -0.8098 0
M  V30 16 N 1.1721 2.187 0.7808 0
M  V30 17 C 3.5826 2.2629 0.7923 0
M  V30 18 C 4.8392 0.5754 -0.4047 0
M  V30 19 C 1.1563 3.2896 1.5777 0
M  V30 20 C 3.536 3.4047 1.6023 0
M  V30 21 C 4.8092 1.7139 0.3912 0
M  V30 22 C 2.3119 3.9274 2.0 0
M  V30 23 C -0.2001 3.8118 1.9932 0
M  V30 24 O -1.24 2.9182 1.5951 0
M  V30 25 H -0.8061 -2.4042 -4.7651 0
M  V30 26 H -2.7784 -2.8477 -3.8353 0
M  V30 27 H -0.6996 -1.4197 0.4095 0
M  V30 28 H 1.4414 -1.0445 -2.6302 0
M  V30 29 H 1.6202 -2.0871 -1.2052 0
M  V30 30 H -4.1055 -2.8294 -1.815 0
M  V30 31 H 0.3783 0.4991 -0.6182 0
M  V30 32 H -1.9286 -1.9886 2.2727 0
M  V30 33 H -3.5494 -1.426 2.663 0
M  V30 34 H -2.5137 -0.4091 1.6703 0
M  V30 35 H -5.3206 -1.9741 0.097 0
M  V30 36 H -5.0573 -2.6494 1.706 0
M  V30 37 H -4.6971 -3.6371 0.3019 0
M  V30 38 H 3.6964 -0.9045 -1.4325 0
M  V30 39 H 5.7895 0.1466 -0.7113 0
M  V30 40 H 4.4523 3.8894 1.93 0
M  V30 41 H 5.7477 2.1675 0.7009 0
M  V30 42 H 2.2685 4.809 2.6308 0
M  V30 43 H -0.3855 4.7822 1.5231 0
M  V30 44 H -0.2481 3.9194 3.0809 0
M  V30 45 H -0.7833 2.2292 1.0681 0
M  V30 END ATOM
M  V30 BEGIN BOND
M  V30 1 1 1 2
M  V30 2 2 2 3
M  V30 3 1 2 4
M  V30 4 1 3 5
M  V30 5 1 3 6
M  V30 6 2 4 7
M  V30 7 2 5 8
M  V30 8 1 6 9
M  V30 9 1 8 10
M  V30 10 1 9 11
M  V30 11 1 10 12
M  V30 12 1 10 13
M  V30 13 1 11 14
M  V30 14 2 11 15
M  V30 15 2 14 16
M  V30 16 1 14 17
M  V30 17 1 15 18
M  V30 18 1 16 19
M  V30 19 2 17 20
M  V30 20 1 17 21
M  V30 21 2 19 22
M  V30 22 1 19 23
M  V30 23 1 23 24
M  V30 24 1 7 8
M  V30 25 2 18 21
M  V30 26 1 20 22
M  V30 27 1 1 25
M  V30 28 1 4 26
M  V30 29 1 5 27
M  V30 30 1 6 28
M  V30 31 1 6 29
M  V30 32 1 7 30
M  V30 33 1 9 31
M  V30 34 1 12 32
M  V30 35 1 12 33
M  V30 36 1 12 34
M  V30 37 1 13 35
M  V30 38 1 13 36
M  V30 39 1 13 37
M  V30 40 1 15 38
M  V30 41 1 18 39
M  V30 42 1 20 40
M  V30 43 1 21 41
M  V30 44 1 22 42
M  V30 45 1 23 43
M  V30 46 1 23 44
M  V30 47 1 24 45
M  V30 END BOND
M  V30 END CTAB
M  END
>  <Column 1>
655

>  <level_0>
747

>  <index>
747

>  <Unnamed: 0>
747

>  <NO.>
759

>  <Name>
ml

>  <IUPAC_name>
4-(dimethylamino)-2-[[[2-(hydroxymethyl)quinolin-8-yl]amino]methyl]phenol

>  <SMILES>
CN(C)c1ccc(O)c(CNc2cccc3ccc(CO)nc23)c1

>  <CID>
71582706

>  <logBB>
0.38

>  <BBB+/BBB->
BBB+

>  <Inchi>
InChI=1S/C19H21N3O2/c1-22(2)16-8-9-18(24)14(10-16)11-20-17-5-3-4-13-6-7-15(12-23)21-19(13)17/h3-10-20-23-24H-11-12H2-1-2H3

>  <threshold>


>  <reference>
R47|

>  <group>
A

>  <Class>
1

>  <ABC>
18.55

>  <ABCGG>
14.6

>  <nAcid>
0

>  <nBase>
0

>  <nAromAtom>
16

>  <nAromBond>
17

>  <nAtom>
45

>  <nHeavyAtom>
24

>  <nSpiro>
0

>  <nBridgehead>
0

>  <nHetero>
5

>  <nN>
3

>  <nO>
2

>  <nF>
0

>  <BalabanJ>
1.54

>  <BertzCT>
862.35

>  <nBonds>
47

>  <nBondsO>
26

>  <nBondsS>
30

>  <nBondsD>
0

>  <nBondsT>
0

>  <nBondsA>
17

>  <nBondsM>
17

>  <nBondsKS>
39

>  <nBondsKD>
8

>  <RNCG>
0.23

>  <RPCG>
0.13

>  <FCSP3>
0.21

>  <SZ>
28.67

>  <Sm>
26.92

>  <Sv>
28.39

>  <Sse>
44.97

>  <Sp>
30.32

>  <Si>
50.65

>  <MZ>
0.64

>  <Mm>
0.6

>  <Mv>
0.63

>  <Mse>
1

>  <Mp>
0.67

>  <Mi>
1.13

>  <NsCH3>
2

>  <NdCH2>
0

>  <NssCH2>
2

>  <NtCH>
0

>  <NdsCH>
0

>  <NaaCH>
8

>  <NsssCH>
0

>  <NddC>
0

>  <NtsC>
0

>  <NdssC>
0

>  <NaasC>
5

>  <NaaaC>
2

>  <NssssC>
0

>  <NsNH3>
0

>  <NsNH2>
0

>  <NssNH2>
0

>  <NdNH>
0

>  <NssNH>
1

>  <NaaNH>
0

>  <NtN>
0

>  <NsssNH>
0

>  <NdsN>
0

>  <NaaN>
1

>  <NsssN>
1

>  <NddsN>
0

>  <NaasN>
0

>  <NssssN>
0

>  <NsOH>
2

>  <NdO>
0

>  <NssO>
0

>  <NaaO>
0

>  <NsF>
0

>  <NsSiH3>
0

>  <NssSiH2>
0

>  <NsssSiH>
0

>  <NssssSi>
0

>  <NsPH2>
0

>  <NssPH>
0

>  <NsssP>
0

>  <NdsssP>
0

>  <NsssssP>
0

>  <NsSH>
0

>  <NdS>
0

>  <NssS>
0

>  <NaaS>
0

>  <NdssS>
0

>  <NddssS>
0

>  <NsCl>
0

>  <NsBr>
0

>  <NsI>
0

>  <fragCpx>
124.05

>  <fMF>
0.4

>  <nHBAcc>
5

>  <nHBDon>
3

>  <Kier1>
18.78

>  <Kier2>
8.59

>  <Lipinski>
1

>  <GhoseFilter>
1

>  <FilterItLogS>
-4.81

>  <VMcGowan>
253.27

>  <LabuteASA>
140.75

>  <PEOE_VSA1>
20.43

>  <PEOE_VSA2>
0

>  <PEOE_VSA3>
4.98

>  <PEOE_VSA4>
0

>  <PEOE_VSA5>
0

>  <PEOE_VSA6>
18.2

>  <PEOE_VSA7>
30.33

>  <PEOE_VSA8>
37.28

>  <PEOE_VSA9>
23.5

>  <PEOE_VSA10>
5.75

>  <PEOE_VSA11>
0

>  <PEOE_VSA12>
0

>  <PEOE_VSA13>
0

>  <SMR_VSA1>
10.21

>  <SMR_VSA2>
0

>  <SMR_VSA3>
4.98

>  <SMR_VSA4>
0

>  <SMR_VSA5>
13.15

>  <SMR_VSA6>
24.31

>  <SMR_VSA7>
59.79

>  <SMR_VSA8>
0

>  <SMR_VSA9>
5.75

>  <SlogP_VSA1>
10.22

>  <SlogP_VSA2>
29.29

>  <SlogP_VSA3>
13.15

>  <SlogP_VSA4>
0

>  <SlogP_VSA5>
11.26

>  <SlogP_VSA6>
48.53

>  <SlogP_VSA7>
0

>  <SlogP_VSA8>
10.9

>  <SlogP_VSA9>
0

>  <SlogP_VSA10>
11.37

>  <SlogP_VSA11>
5.75

>  <EState_VSA1>
0

>  <EState_VSA2>
12.36

>  <EState_VSA3>
12.24

>  <EState_VSA4>
27.84

>  <EState_VSA5>
0

>  <EState_VSA6>
6.07

>  <EState_VSA7>
61.46

>  <EState_VSA8>
10.3

>  <EState_VSA9>
0

>  <EState_VSA10>
10.21

>  <VSA_EState1>
0

>  <VSA_EState2>
6.49

>  <VSA_EState3>
23.72

>  <VSA_EState4>
4.17

>  <VSA_EState5>
0.26

>  <VSA_EState6>
15.2

>  <VSA_EState7>
0

>  <VSA_EState8>
0.4

>  <VSA_EState9>
3.93

>  <apol>
50.64

>  <bpol>
24.49

>  <nRing>
3

>  <nHRing>
1

>  <naRing>
3

>  <naHRing>
1

>  <nARing 2>
0

>  <nAHRing 2>
0

>  <nFRing>
1

>  <nFHRing>
1

>  <nFaRing>
1

>  <nFaHRing>
1

>  <nFARing 2>
0

>  <nFAHRing 2>
0

>  <nRot>
5

>  <SLogP>
3.11

>  <SMR>
97.43

>  <TopoPSA(NO)>
68.62

>  <TopoPSA>
68.62

>  <JGI1>
0.19

>  <JGI2>
0.09

>  <JGI3>
0.03

>  <JGI4>
0.05

>  <JGI5>
0.03

>  <Diameter>
12

>  <Radius>
6

>  <TMWC10>
124.54

>  <TSRW10>
58.54

>  <MW>
323.16

>  <AMW>
7.18

>  <WPath>
1405

>  <WPol>
38

>  <Zagreb1>
124

>  <Zagreb2>
145

>  <mZagreb2>
5.36

>  <yes>


>  <nAR-cont>
0.336376

>  <nHA-cont>
0.94700071

>  <MWHBN>
0.445021699

>  <MWHBN-cont>
0.303878625

>  <TPSA-cont>
0.52098979

>  <pka_cont>
0.97

>  <yes.1>


>  <BBB_SCORE>
3.266174226

>  <MMFF94 Energy>
86.169

$$$$
Compound 535
Actelion Java MolfileCreator 2.0

  0  0  0  0  0  0              0 V3000
M  V30 BEGIN CTAB
M  V30 COUNTS 23 24 0 0 0
M  V30 BEGIN ATOM
M  V30 1 Cl -2.6143 -1.3882 0.2448 0
M  V30 2 C -2.0478 -0.0282 -0.6595 0
M  V30 3 C -1.0748 0.8466 -0.1429 0
M  V30 4 C -2.5837 0.1786 -1.9351 0
M  V30 5 N -0.5198 0.6983 1.1397 0
M  V30 6 C -0.6702 1.9406 -0.9178 0
M  V30 7 C -2.1602 1.2652 -2.7019 0
M  V30 8 C 0.4864 -0.0897 1.2815 0
M  V30 9 C -1.2069 2.1424 -2.1881 0
M  V30 10 N 1.0951 -0.3138 2.4782 0
M  V30 11 N 1.166 -0.8507 0.3744 0
M  V30 12 Cl -0.6881 3.4837 -3.1326 0
M  V30 13 C 2.1855 -1.2587 2.4357 0
M  V30 14 C 2.2388 -1.6389 0.9438 0
M  V30 15 H -3.3343 -0.5001 -2.3318 0
M  V30 16 H 0.0666 2.6296 -0.5137 0
M  V30 17 H -2.5808 1.425 -3.6914 0
M  V30 18 H 0.7525 0.1218 3.321 0
M  V30 19 H 0.9108 -0.8984 -0.5991 0
M  V30 20 H 3.1213 -0.7965 2.7635 0
M  V30 21 H 1.976 -2.1311 3.0619 0
M  V30 22 H 3.2013 -1.371 0.4981 0
M  V30 23 H 2.0599 -2.7084 0.7985 0
M  V30 END ATOM
M  V30 BEGIN BOND
M  V30 1 1 1 2
M  V30 2 2 2 3
M  V30 3 1 2 4
M  V30 4 1 3 5
M  V30 5 1 3 6
M  V30 6 2 4 7
M  V30 7 2 5 8
M  V30 8 2 6 9
M  V30 9 1 8 10
M  V30 10 1 8 11
M  V30 11 1 9 12
M  V30 12 1 10 13
M  V30 13 1 11 14
M  V30 14 1 7 9
M  V30 15 1 13 14
M  V30 16 1 4 15
M  V30 17 1 6 16
M  V30 18 1 7 17
M  V30 19 1 10 18
M  V30 20 1 11 19
M  V30 21 1 13 20
M  V30 22 1 13 21
M  V30 23 1 14 22
M  V30 24 1 14 23
M  V30 END BOND
M  V30 END CTAB
M  END
>  <Column 1>
656

>  <level_0>
748

>  <index>
748

>  <Unnamed: 0>
748

>  <NO.>
760

>  <Name>
tz-11

>  <IUPAC_name>
n-(2-5-dichlorophenyl)-4-5-dihydro-1h-imidazol-2-amine

>  <SMILES>
Clc1ccc(Cl)c(N=C2NCCN2)c1

>  <CID>
11777724

>  <logBB>
0.38

>  <BBB+/BBB->
BBB+

>  <Inchi>
InChI=1S/C9H9Cl2N3/c10-6-1-2-7(11)8(5-6)14-9-12-3-4-13-9/h1-2-5H-3-4H2-(H2-12-13-14)

>  <threshold>


>  <reference>
R4|R2|R2|R2|R2|R8|R25|R27|R27|R46|R47|R40|

>  <group>
A

>  <Class>
1

>  <ABC>
10.78

>  <ABCGG>
9.76

>  <nAcid>
0

>  <nBase>
3

>  <nAromAtom>
6

>  <nAromBond>
6

>  <nAtom>
23

>  <nHeavyAtom>
14

>  <nSpiro>
0

>  <nBridgehead>
0

>  <nHetero>
5

>  <nN>
3

>  <nO>
0

>  <nF>
0

>  <BalabanJ>
1.82

>  <BertzCT>
368.32

>  <nBonds>
24

>  <nBondsO>
15

>  <nBondsS>
17

>  <nBondsD>
1

>  <nBondsT>
0

>  <nBondsA>
6

>  <nBondsM>
7

>  <nBondsKS>
20

>  <nBondsKD>
4

>  <RNCG>
0.3

>  <RPCG>
0.17

>  <FCSP3>
0.22

>  <SZ>
19.67

>  <Sm>
19.16

>  <Sv>
15.89

>  <Sse>
23.52

>  <Sp>
17.18

>  <Si>
26.04

>  <MZ>
0.86

>  <Mm>
0.83

>  <Mv>
0.69

>  <Mse>
1.02

>  <Mp>
0.75

>  <Mi>
1.13

>  <NsCH3>
0

>  <NdCH2>
0

>  <NssCH2>
2

>  <NtCH>
0

>  <NdsCH>
0

>  <NaaCH>
3

>  <NsssCH>
0

>  <NddC>
0

>  <NtsC>
0

>  <NdssC>
1

>  <NaasC>
3

>  <NaaaC>
0

>  <NssssC>
0

>  <NsNH3>
0

>  <NsNH2>
0

>  <NssNH2>
0

>  <NdNH>
0

>  <NssNH>
2

>  <NaaNH>
0

>  <NtN>
0

>  <NsssNH>
0

>  <NdsN>
1

>  <NaaN>
0

>  <NsssN>
0

>  <NddsN>
0

>  <NaasN>
0

>  <NssssN>
0

>  <NsOH>
0

>  <NdO>
0

>  <NssO>
0

>  <NaaO>
0

>  <NsF>
0

>  <NsSiH3>
0

>  <NssSiH2>
0

>  <NsssSiH>
0

>  <NssssSi>
0

>  <NsPH2>
0

>  <NssPH>
0

>  <NsssP>
0

>  <NdsssP>
0

>  <NsssssP>
0

>  <NsSH>
0

>  <NdS>
0

>  <NssS>
0

>  <NaaS>
0

>  <NdssS>
0

>  <NddssS>
0

>  <NsCl>
2

>  <NsBr>
0

>  <NsI>
0

>  <fragCpx>
43.05

>  <fMF>
0.52

>  <nHBAcc>
1

>  <nHBDon>
2

>  <Kier1>
10.52

>  <Kier2>
4.68

>  <Lipinski>
1

>  <GhoseFilter>
1

>  <FilterItLogS>
-4.15

>  <VMcGowan>
153.17

>  <LabuteASA>
92.12

>  <PEOE_VSA1>
10.63

>  <PEOE_VSA2>
0

>  <PEOE_VSA3>
4.99

>  <PEOE_VSA4>
0

>  <PEOE_VSA5>
0

>  <PEOE_VSA6>
23.2

>  <PEOE_VSA7>
18.2

>  <PEOE_VSA8>
18.11

>  <PEOE_VSA9>
10.71

>  <PEOE_VSA10>
0

>  <PEOE_VSA11>
5.96

>  <PEOE_VSA12>
0

>  <PEOE_VSA13>
0

>  <SMR_VSA1>
0

>  <SMR_VSA2>
0

>  <SMR_VSA3>
10.63

>  <SMR_VSA4>
4.99

>  <SMR_VSA5>
0

>  <SMR_VSA6>
13.09

>  <SMR_VSA7>
28.24

>  <SMR_VSA8>
0

>  <SMR_VSA9>
0

>  <SlogP_VSA1>
10.63

>  <SlogP_VSA2>
19.05

>  <SlogP_VSA3>
0

>  <SlogP_VSA4>
0

>  <SlogP_VSA5>
0

>  <SlogP_VSA6>
23.19

>  <SlogP_VSA7>
10.05

>  <SlogP_VSA8>
0

>  <SlogP_VSA9>
0

>  <SlogP_VSA10>
5.69

>  <SlogP_VSA11>
0

>  <EState_VSA1>
0

>  <EState_VSA2>
0

>  <EState_VSA3>
15.73

>  <EState_VSA4>
19.05

>  <EState_VSA5>
0

>  <EState_VSA6>
18.2

>  <EState_VSA7>
0

>  <EState_VSA8>
15.63

>  <EState_VSA9>
23.2

>  <EState_VSA10>
0

>  <VSA_EState1>
0

>  <VSA_EState2>
4.3

>  <VSA_EState3>
7.4

>  <VSA_EState4>
0.68

>  <VSA_EState5>
0.74

>  <VSA_EState6>
5.21

>  <VSA_EState7>
0

>  <VSA_EState8>
1.77

>  <VSA_EState9>
0

>  <apol>
28.69

>  <bpol>
12.33

>  <nRing>
2

>  <nHRing>
1

>  <naRing>
1

>  <naHRing>
0

>  <nARing 2>
1

>  <nAHRing 2>
1

>  <nFRing>
0

>  <nFHRing>
0

>  <nFaRing>
0

>  <nFaHRing>
0

>  <nFARing 2>
0

>  <nFAHRing 2>
0

>  <nRot>
1

>  <SLogP>
2.17

>  <SMR>
59.56

>  <TopoPSA(NO)>
36.42

>  <TopoPSA>
36.42

>  <JGI1>
0.2

>  <JGI2>
0.07

>  <JGI3>
0.05

>  <JGI4>
0.05

>  <JGI5>
0.02

>  <Diameter>
7

>  <Radius>
4

>  <TMWC10>
97.25

>  <TSRW10>
58.4

>  <MW>
229.02

>  <AMW>
9.96

>  <WPath>
308

>  <WPol>
16

>  <Zagreb1>
70

>  <Zagreb2>
79

>  <mZagreb2>
3.11

>  <yes>


>  <nAR-cont>
0.816016

>  <nHA-cont>
0.887625254

>  <MWHBN>
0.198236924

>  <MWHBN-cont>
0.99923376

>  <TPSA-cont>
0.745765785

>  <pka_cont>
0.97

>  <yes.1>


>  <BBB_SCORE>
5.179023462

>  <MMFF94 Energy>
-51.675

$$$$
Compound 536
Actelion Java MolfileCreator 2.0

  0  0  0  0  0  0              0 V3000
M  V30 BEGIN CTAB
M  V30 COUNTS 55 59 0 0 0
M  V30 BEGIN ATOM
M  V30 1 O -1.602 -2.083 -2.5641 0
M  V30 2 C -1.3168 -1.2064 -1.7528 0
M  V30 3 N -0.0825 -0.5753 -1.6578 0
M  V30 4 C -2.3398 -0.7789 -0.7742 0
M  V30 5 N 0.1745 0.4833 -0.8056 0
M  V30 6 C 0.9947 -0.9436 -2.5738 0
M  V30 7 C -2.0973 0.2076 0.0903 0
M  V30 8 C -0.7753 0.848 -0.0069 0
M  V30 9 C 1.5253 -2.3894 -2.4236 0
M  V30 10 C -0.544 1.9538 0.8996 0
M  V30 11 N 2.553 -2.5955 -1.3786 0
M  V30 12 C -1.3919 3.051 1.2482 0
M  V30 13 C 0.6121 2.1785 1.6258 0
M  V30 14 C 3.2543 -3.8791 -1.5597 0
M  V30 15 C 2.0367 -2.4978 -0.0062 0
M  V30 16 N -0.8401 3.8221 2.1951 0
M  V30 17 C -2.7061 3.3956 0.7054 0
M  V30 18 N 0.3944 3.3131 2.405 0
M  V30 19 C 1.8771 1.5263 1.7439 0
M  V30 20 C 2.4105 -5.1072 -1.2063 0
M  V30 21 C 1.1383 -3.6639 0.4127 0
M  V30 22 C -3.7589 3.7276 1.5685 0
M  V30 23 C -2.9288 3.4041 -0.6786 0
M  V30 24 C 1.3609 3.807 3.2842 0
M  V30 25 C 2.8026 2.012 2.5926 0
M  V30 26 C 1.8403 -5.0014 0.2041 0
M  V30 27 C -5.0207 4.0383 1.0573 0
M  V30 28 C -4.1919 3.7146 -1.1877 0
M  V30 29 C 2.548 3.191 3.4 0
M  V30 30 C -5.2371 4.0272 -0.3196 0
M  V30 31 H -3.2811 -1.3125 -0.7967 0
M  V30 32 H 0.5885 -0.835 -3.5875 0
M  V30 33 H 1.8166 -0.2234 -2.48 0
M  V30 34 H -2.8224 0.5206 0.8281 0
M  V30 35 H 0.7002 -3.1005 -2.3212 0
M  V30 36 H 1.9999 -2.6158 -3.3879 0
M  V30 37 H 4.1525 -3.8721 -0.928 0
M  V30 38 H 3.6266 -3.9688 -2.5875 0
M  V30 39 H 1.5152 -1.5536 0.1562 0
M  V30 40 H 2.8962 -2.4572 0.6766 0
M  V30 41 H 2.0916 0.652 1.1367 0
M  V30 42 H 3.0272 -6.0099 -1.284 0
M  V30 43 H 1.5922 -5.2236 -1.9266 0
M  V30 44 H 0.2005 -3.6452 -0.1541 0
M  V30 45 H 0.8671 -3.5557 1.4692 0
M  V30 46 H -3.5967 3.7495 2.6444 0
M  V30 47 H -2.1204 3.1859 -1.3732 0
M  V30 48 H 1.087 4.6916 3.8429 0
M  V30 49 H 3.7728 1.5325 2.6853 0
M  V30 50 H 1.1436 -5.8257 0.3918 0
M  V30 51 H 2.6554 -5.0994 0.9318 0
M  V30 52 H -5.8311 4.2966 1.7342 0
M  V30 53 H -4.3572 3.7227 -2.2622 0
M  V30 54 H 3.3192 3.5507 4.0718 0
M  V30 55 H -6.2181 4.2752 -0.7172 0
M  V30 END ATOM
M  V30 BEGIN BOND
M  V30 1 2 1 2
M  V30 2 1 2 3
M  V30 3 1 2 4
M  V30 4 1 3 5
M  V30 5 1 3 6
M  V30 6 2 4 7
M  V30 7 2 5 8
M  V30 8 1 6 9
M  V30 9 1 8 10
M  V30 10 1 9 11
M  V30 11 1 10 12
M  V30 12 2 10 13
M  V30 13 1 11 14
M  V30 14 1 11 15
M  V30 15 2 12 16
M  V30 16 1 12 17
M  V30 17 1 13 18
M  V30 18 1 13 19
M  V30 19 1 14 20
M  V30 20 1 15 21
M  V30 21 2 17 22
M  V30 22 1 17 23
M  V30 23 1 18 24
M  V30 24 2 19 25
M  V30 25 1 20 26
M  V30 26 1 22 27
M  V30 27 2 23 28
M  V30 28 2 24 29
M  V30 29 2 27 30
M  V30 30 1 7 8
M  V30 31 1 16 18
M  V30 32 1 21 26
M  V30 33 1 25 29
M  V30 34 1 28 30
M  V30 35 1 4 31
M  V30 36 1 6 32
M  V30 37 1 6 33
M  V30 38 1 7 34
M  V30 39 1 9 35
M  V30 40 1 9 36
M  V30 41 1 14 37
M  V30 42 1 14 38
M  V30 43 1 15 39
M  V30 44 1 15 40
M  V30 45 1 19 41
M  V30 46 1 20 42
M  V30 47 1 20 43
M  V30 48 1 21 44
M  V30 49 1 21 45
M  V30 50 1 22 46
M  V30 51 1 23 47
M  V30 52 1 24 48
M  V30 53 1 25 49
M  V30 54 1 26 50
M  V30 55 1 26 51
M  V30 56 1 27 52
M  V30 57 1 28 53
M  V30 58 1 29 54
M  V30 59 1 30 55
M  V30 END BOND
M  V30 END CTAB
M  END
>  <Column 1>
657

>  <level_0>
749

>  <index>
749

>  <Unnamed: 0>
749

>  <NO.>
761

>  <Name>
141060-39-1

>  <IUPAC_name>
6-(2-phenylpyrazolo[1-5-a]pyridin-3-yl)-2-(2-piperidin-1-ylethyl)pyridazin-3-one

>  <SMILES>
O=c1ccc(-c2c(-c3ccccc3)nn3ccccc23)nn1CCN1CCCCC1

>  <CID>
10884606

>  <logBB>
0.38

>  <BBB+/BBB->
BBB+

>  <Inchi>
InChI=1S/C24H25N5O/c30-22-13-12-20(25-29(22)18-17-27-14-6-2-7-15-27)23-21-11-5-8-16-28(21)26-24(23)19-9-3-1-4-10-19/h1-3-5-8-13-16H-2-6-7-14-15-17-18H2

>  <threshold>


>  <reference>
R2|R2|R8|R27|R4|R40|

>  <group>
A

>  <Class>
1

>  <ABC>
23.91

>  <ABCGG>
17.84

>  <nAcid>
0

>  <nBase>
1

>  <nAromAtom>
21

>  <nAromBond>
22

>  <nAtom>
55

>  <nHeavyAtom>
30

>  <nSpiro>
0

>  <nBridgehead>
0

>  <nHetero>
6

>  <nN>
5

>  <nO>
1

>  <nF>
0

>  <BalabanJ>
1.26

>  <BertzCT>
1205.23

>  <nBonds>
59

>  <nBondsO>
34

>  <nBondsS>
36

>  <nBondsD>
1

>  <nBondsT>
0

>  <nBondsA>
22

>  <nBondsM>
23

>  <nBondsKS>
49

>  <nBondsKD>
10

>  <RNCG>
0.15

>  <RPCG>
0.14

>  <FCSP3>
0.29

>  <SZ>
35.33

>  <Sm>
33.26

>  <Sv>
35.28

>  <Sse>
54.74

>  <Sp>
37.76

>  <Si>
61.85

>  <MZ>
0.64

>  <Mm>
0.6

>  <Mv>
0.64

>  <Mse>
1

>  <Mp>
0.69

>  <Mi>
1.12

>  <NsCH3>
0

>  <NdCH2>
0

>  <NssCH2>
7

>  <NtCH>
0

>  <NdsCH>
0

>  <NaaCH>
11

>  <NsssCH>
0

>  <NddC>
0

>  <NtsC>
0

>  <NdssC>
0

>  <NaasC>
4

>  <NaaaC>
1

>  <NssssC>
0

>  <NsNH3>
0

>  <NsNH2>
0

>  <NssNH2>
0

>  <NdNH>
0

>  <NssNH>
0

>  <NaaNH>
0

>  <NtN>
0

>  <NsssNH>
0

>  <NdsN>
0

>  <NaaN>
2

>  <NsssN>
1

>  <NddsN>
0

>  <NaasN>
2

>  <NssssN>
0

>  <NsOH>
0

>  <NdO>
1

>  <NssO>
0

>  <NaaO>
0

>  <NsF>
0

>  <NsSiH3>
0

>  <NssSiH2>
0

>  <NsssSiH>
0

>  <NssssSi>
0

>  <NsPH2>
0

>  <NssPH>
0

>  <NsssP>
0

>  <NdsssP>
0

>  <NsssssP>
0

>  <NsSH>
0

>  <NdS>
0

>  <NssS>
0

>  <NaaS>
0

>  <NdssS>
0

>  <NddssS>
0

>  <NsCl>
0

>  <NsBr>
0

>  <NsI>
0

>  <fragCpx>
286.06

>  <fMF>
0.53

>  <nHBAcc>
6

>  <nHBDon>
0

>  <Kier1>
21.83

>  <Kier2>
10.29

>  <Lipinski>
1

>  <GhoseFilter>
1

>  <FilterItLogS>
-5.25

>  <VMcGowan>
307.49

>  <LabuteASA>
174.94

>  <PEOE_VSA1>
4.9

>  <PEOE_VSA2>
4.79

>  <PEOE_VSA3>
9.2

>  <PEOE_VSA4>
10.2

>  <PEOE_VSA5>
0

>  <PEOE_VSA6>
42.82

>  <PEOE_VSA7>
44.13

>  <PEOE_VSA8>
24.37

>  <PEOE_VSA9>
23.32

>  <PEOE_VSA10>
5.69

>  <PEOE_VSA11>
0

>  <PEOE_VSA12>
0

>  <PEOE_VSA13>
5.56

>  <SMR_VSA1>
0

>  <SMR_VSA2>
0

>  <SMR_VSA3>
24.29

>  <SMR_VSA4>
0

>  <SMR_VSA5>
25.81

>  <SMR_VSA6>
19.63

>  <SMR_VSA7>
77.21

>  <SMR_VSA8>
0

>  <SMR_VSA9>
22.51

>  <SlogP_VSA1>
5.56

>  <SlogP_VSA2>
43.93

>  <SlogP_VSA3>
6.54

>  <SlogP_VSA4>
0

>  <SlogP_VSA5>
19.26

>  <SlogP_VSA6>
71.66

>  <SlogP_VSA7>
0

>  <SlogP_VSA8>
28.03

>  <SlogP_VSA9>
0

>  <SlogP_VSA10>
0

>  <SlogP_VSA11>
0

>  <EState_VSA1>
0

>  <EState_VSA2>
5.56

>  <EState_VSA3>
6.54

>  <EState_VSA4>
47.67

>  <EState_VSA5>
19.26

>  <EState_VSA6>
10.75

>  <EState_VSA7>
53.18

>  <EState_VSA8>
17.03

>  <EState_VSA9>
10.2

>  <EState_VSA10>
4.79

>  <VSA_EState1>
3.48

>  <VSA_EState2>
14.92

>  <VSA_EState3>
9.57

>  <VSA_EState4>
4.54

>  <VSA_EState5>
0

>  <VSA_EState6>
19.57

>  <VSA_EState7>
5.73

>  <VSA_EState8>
3.69

>  <VSA_EState9>
0

>  <apol>
63.05

>  <bpol>
31.08

>  <nRing>
5

>  <nHRing>
4

>  <naRing>
4

>  <naHRing>
3

>  <nARing 2>
1

>  <nAHRing 2>
1

>  <nFRing>
1

>  <nFHRing>
1

>  <nFaRing>
1

>  <nFaHRing>
1

>  <nFARing 2>
0

>  <nFAHRing 2>
0

>  <nRot>
5

>  <SLogP>
3.71

>  <SMR>
118.41

>  <TopoPSA(NO)>
55.43

>  <TopoPSA>
55.43

>  <JGI1>
0.12

>  <JGI2>
0.06

>  <JGI3>
0.04

>  <JGI4>
0.04

>  <JGI5>
0.02

>  <Diameter>
14

>  <Radius>
7

>  <TMWC10>
141.81

>  <TSRW10>
80.2

>  <MW>
399.21

>  <AMW>
7.26

>  <WPath>
2460

>  <WPol>
48

>  <Zagreb1>
162

>  <Zagreb2>
193

>  <mZagreb2>
6.58

>  <yes>


>  <nAR-cont>
0.816016

>  <nHA-cont>
0.74523694

>  <MWHBN>
0.30029669

>  <MWHBN-cont>
0.839851402

>  <TPSA-cont>
0.61306418

>  <pka_cont>
0.97

>  <yes.1>


>  <BBB_SCORE>
4.532158403

>  <MMFF94 Energy>
105.73

$$$$
Compound 537
Actelion Java MolfileCreator 2.0

  0  0  0  0  0  0              0 V3000
M  V30 BEGIN CTAB
M  V30 COUNTS 51 52 0 0 0
M  V30 BEGIN ATOM
M  V30 1 O 1.5658 -1.0958 2.271 0
M  V30 2 C 0.3657 -1.4717 1.7342 0
M  V30 3 C 2.0924 0.174 1.8605 0
M  V30 4 C -0.3728 -0.7581 0.7921 0
M  V30 5 C -0.1252 -2.6926 2.2001 0
M  V30 6 C 3.4115 0.387 2.6127 0 CFG=1
M  V30 7 C -1.5922 -1.262 0.3253 0
M  V30 8 C -1.3414 -3.1986 1.7339 0
M  V30 9 O 4.3713 -0.5987 2.2046 0
M  V30 10 C 3.9965 1.8057 2.4341 0
M  V30 11 C -2.0882 -2.4873 0.788 0
M  V30 12 N 4.1636 2.2165 1.0328 0
M  V30 13 C -3.4078 -3.0291 0.2849 0
M  V30 14 C 4.956 3.4408 0.8767 0
M  V30 15 C -3.3772 -3.4266 -1.196 0
M  V30 16 C 5.3058 3.5851 -0.6057 0
M  V30 17 C 4.2089 4.6862 1.3568 0
M  V30 18 O -3.4427 -2.2956 -2.0681 0
M  V30 19 C -4.7733 -1.8451 -2.3051 0
M  V30 20 C -4.7002 -0.6222 -3.1611 0
M  V30 21 C -4.5644 -0.7418 -4.6572 0
M  V30 22 C -5.8502 -0.2412 -4.0578 0
M  V30 23 H 1.3866 0.9723 2.1176 0
M  V30 24 H 2.2779 0.147 0.7805 0
M  V30 25 H -0.0316 0.1899 0.3912 0
M  V30 26 H 0.4441 -3.2574 2.9341 0
M  V30 27 H 3.2458 0.2145 3.6832 0
M  V30 28 H -2.1506 -0.6913 -0.4144 0
M  V30 29 H -1.6954 -4.1525 2.1172 0
M  V30 30 H 3.8882 -1.4442 2.1584 0
M  V30 31 H 3.3392 2.516 2.9479 0
M  V30 32 H 4.974 1.8258 2.9313 0
M  V30 33 H 3.2613 2.3265 0.5758 0
M  V30 34 H -4.1817 -2.2795 0.4831 0
M  V30 35 H -3.6737 -3.9166 0.8725 0
M  V30 36 H 5.8981 3.3481 1.4307 0
M  V30 37 H -2.4481 -3.9605 -1.4248 0
M  V30 38 H -4.2045 -4.1103 -1.4213 0
M  V30 39 H 4.4077 3.6929 -1.2245 0
M  V30 40 H 5.862 2.7118 -0.9646 0
M  V30 41 H 5.9346 4.467 -0.7702 0
M  V30 42 H 4.0237 4.6533 2.4351 0
M  V30 43 H 3.2442 4.7962 0.8489 0
M  V30 44 H 4.7964 5.5889 1.156 0
M  V30 45 H -5.345 -2.6399 -2.7979 0
M  V30 46 H -5.2655 -1.5915 -1.3609 0
M  V30 47 H -4.1541 0.1758 -2.6708 0
M  V30 48 H -4.5531 -1.7332 -5.0956 0
M  V30 49 H -3.9226 -0.0289 -5.1623 0
M  V30 50 H -6.7158 -0.8917 -4.1047 0
M  V30 51 H -6.0817 0.8125 -4.1647 0
M  V30 END ATOM
M  V30 BEGIN BOND
M  V30 1 1 1 2
M  V30 2 1 1 3
M  V30 3 2 2 4
M  V30 4 1 2 5
M  V30 5 1 3 6
M  V30 6 1 4 7
M  V30 7 2 5 8
M  V30 8 1 6 9
M  V30 9 1 6 10
M  V30 10 2 7 11
M  V30 11 1 10 12
M  V30 12 1 11 13
M  V30 13 1 12 14
M  V30 14 1 13 15
M  V30 15 1 14 16
M  V30 16 1 14 17
M  V30 17 1 15 18
M  V30 18 1 18 19
M  V30 19 1 19 20
M  V30 20 1 20 21
M  V30 21 1 20 22
M  V30 22 1 8 11
M  V30 23 1 21 22
M  V30 24 1 3 23
M  V30 25 1 3 24
M  V30 26 1 4 25
M  V30 27 1 5 26
M  V30 28 1 6 27
M  V30 29 1 7 28
M  V30 30 1 8 29
M  V30 31 1 9 30
M  V30 32 1 10 31
M  V30 33 1 10 32
M  V30 34 1 12 33
M  V30 35 1 13 34
M  V30 36 1 13 35
M  V30 37 1 14 36
M  V30 38 1 15 37
M  V30 39 1 15 38
M  V30 40 1 16 39
M  V30 41 1 16 40
M  V30 42 1 16 41
M  V30 43 1 17 42
M  V30 44 1 17 43
M  V30 45 1 17 44
M  V30 46 1 19 45
M  V30 47 1 19 46
M  V30 48 1 20 47
M  V30 49 1 21 48
M  V30 50 1 21 49
M  V30 51 1 22 50
M  V30 52 1 22 51
M  V30 END BOND
M  V30 BEGIN COLLECTION
M  V30 MDLV30/STERAC1 ATOMS=(1 6)
M  V30 END COLLECTION
M  V30 END CTAB
M  END
>  <Column 1>
658

>  <level_0>
750

>  <index>
750

>  <Unnamed: 0>
750

>  <NO.>
762

>  <Name>
betaxolol

>  <IUPAC_name>
1-[4-[2-(cyclopropylmethoxy)ethyl]phenoxy]-3-(propan-2-ylamino)propan-2-ol

>  <SMILES>
CC(C)NCC(O)COc1ccc(CCOCC2CC2)cc1

>  <CID>
2369

>  <logBB>
0.39

>  <BBB+/BBB->
BBB+

>  <Inchi>
InChI=1S/C18H29NO3/c1-14(2)19-11-17(20)13-22-18-7-5-15(6-8-18)9-10-21-12-16-3-4-16/h5-8-14-16-17-19-20H-3-4-9-13H2-1-2H3

>  <threshold>


>  <reference>
R2|R2|R8|R27|R40|R21|R25|R27|R42|R43|R46|R47|R4|

>  <group>
A

>  <Class>
1

>  <ABC>
16.59

>  <ABCGG>
12.7

>  <nAcid>
0

>  <nBase>
1

>  <nAromAtom>
6

>  <nAromBond>
6

>  <nAtom>
51

>  <nHeavyAtom>
22

>  <nSpiro>
0

>  <nBridgehead>
0

>  <nHetero>
4

>  <nN>
1

>  <nO>
3

>  <nF>
0

>  <BalabanJ>
1.45

>  <BertzCT>
414.85

>  <nBonds>
52

>  <nBondsO>
23

>  <nBondsS>
46

>  <nBondsD>
0

>  <nBondsT>
0

>  <nBondsA>
6

>  <nBondsM>
6

>  <nBondsKS>
49

>  <nBondsKD>
3

>  <RNCG>
0.25

>  <RPCG>
0.11

>  <FCSP3>
0.67

>  <SZ>
28

>  <Sm>
25.6

>  <Sv>
28.76

>  <Sse>
50.53

>  <Sp>
31.68

>  <Si>
57.94

>  <MZ>
0.55

>  <Mm>
0.5

>  <Mv>
0.56

>  <Mse>
0.99

>  <Mp>
0.62

>  <Mi>
1.14

>  <NsCH3>
2

>  <NdCH2>
0

>  <NssCH2>
7

>  <NtCH>
0

>  <NdsCH>
0

>  <NaaCH>
4

>  <NsssCH>
3

>  <NddC>
0

>  <NtsC>
0

>  <NdssC>
0

>  <NaasC>
2

>  <NaaaC>
0

>  <NssssC>
0

>  <NsNH3>
0

>  <NsNH2>
0

>  <NssNH2>
0

>  <NdNH>
0

>  <NssNH>
1

>  <NaaNH>
0

>  <NtN>
0

>  <NsssNH>
0

>  <NdsN>
0

>  <NaaN>
0

>  <NsssN>
0

>  <NddsN>
0

>  <NaasN>
0

>  <NssssN>
0

>  <NsOH>
1

>  <NdO>
0

>  <NssO>
2

>  <NaaO>
0

>  <NsF>
0

>  <NsSiH3>
0

>  <NssSiH2>
0

>  <NsssSiH>
0

>  <NssssSi>
0

>  <NsPH2>
0

>  <NssPH>
0

>  <NsssP>
0

>  <NdsssP>
0

>  <NsssssP>
0

>  <NsSH>
0

>  <NdS>
0

>  <NssS>
0

>  <NaaS>
0

>  <NdssS>
0

>  <NddssS>
0

>  <NsCl>
0

>  <NsBr>
0

>  <NsI>
0

>  <fragCpx>
67.04

>  <fMF>
0.25

>  <nHBAcc>
4

>  <nHBDon>
2

>  <Kier1>
18.34

>  <Kier2>
9.99

>  <Lipinski>
1

>  <GhoseFilter>
1

>  <FilterItLogS>
-4.23

>  <VMcGowan>
257.45

>  <LabuteASA>
133.38

>  <PEOE_VSA1>
19.9

>  <PEOE_VSA2>
0

>  <PEOE_VSA3>
0

>  <PEOE_VSA4>
0

>  <PEOE_VSA5>
0

>  <PEOE_VSA6>
25.98

>  <PEOE_VSA7>
42.88

>  <PEOE_VSA8>
19.19

>  <PEOE_VSA9>
6.61

>  <PEOE_VSA10>
18.46

>  <PEOE_VSA11>
0

>  <PEOE_VSA12>
0

>  <PEOE_VSA13>
0

>  <SMR_VSA1>
14.58

>  <SMR_VSA2>
0

>  <SMR_VSA3>
5.32

>  <SMR_VSA4>
5.92

>  <SMR_VSA5>
45.26

>  <SMR_VSA6>
26.37

>  <SMR_VSA7>
29.83

>  <SMR_VSA8>
0

>  <SMR_VSA9>
5.75

>  <SlogP_VSA1>
10.05

>  <SlogP_VSA2>
43.62

>  <SlogP_VSA3>
11.16

>  <SlogP_VSA4>
5.92

>  <SlogP_VSA5>
32.25

>  <SlogP_VSA6>
24.27

>  <SlogP_VSA7>
0

>  <SlogP_VSA8>
0

>  <SlogP_VSA9>
0

>  <SlogP_VSA10>
0

>  <SlogP_VSA11>
5.75

>  <EState_VSA1>
6.1

>  <EState_VSA2>
0

>  <EState_VSA3>
19.19

>  <EState_VSA4>
31.3

>  <EState_VSA5>
18.41

>  <EState_VSA6>
0

>  <EState_VSA7>
12.13

>  <EState_VSA8>
31.3

>  <EState_VSA9>
9.47

>  <EState_VSA10>
5.11

>  <VSA_EState1>
11.24

>  <VSA_EState2>
0

>  <VSA_EState3>
12.99

>  <VSA_EState4>
1.25

>  <VSA_EState5>
1.62

>  <VSA_EState6>
8.41

>  <VSA_EState7>
3.13

>  <VSA_EState8>
6.68

>  <VSA_EState9>
0

>  <apol>
52.9

>  <bpol>
33.14

>  <nRing>
2

>  <nHRing>
0

>  <naRing>
1

>  <naHRing>
0

>  <nARing 2>
1

>  <nAHRing 2>
0

>  <nFRing>
0

>  <nFHRing>
0

>  <nFaRing>
0

>  <nFaHRing>
0

>  <nFARing 2>
0

>  <nFAHRing 2>
0

>  <nRot>
11

>  <SLogP>
2.39

>  <SMR>
88.33

>  <TopoPSA(NO)>
50.72

>  <TopoPSA>
50.72

>  <JGI1>
0.2

>  <JGI2>
0.07

>  <JGI3>
0.02

>  <JGI4>
0.04

>  <JGI5>
0.02

>  <Diameter>
16

>  <Radius>
8

>  <TMWC10>
115.51

>  <TSRW10>
73.08

>  <MW>
307.21

>  <AMW>
6.02

>  <WPath>
1427

>  <WPol>
24

>  <Zagreb1>
104

>  <Zagreb2>
113

>  <mZagreb2>
5

>  <yes>


>  <nAR-cont>
0.816016

>  <nHA-cont>
0.983774276

>  <MWHBN>
0.342321027

>  <MWHBN-cont>
0.698668354

>  <TPSA-cont>
0.645942905

>  <pka_cont>
0.97

>  <yes.1>


>  <BBB_SCORE>
4.624678616

>  <MMFF94 Energy>
91.592

$$$$
Compound 538
Actelion Java MolfileCreator 2.0

  0  0  0  0  0  0              0 V3000
M  V30 BEGIN CTAB
M  V30 COUNTS 51 54 0 0 0
M  V30 BEGIN ATOM
M  V30 1 O -3.6667 -1.832 -0.2388 0
M  V30 2 C -2.9239 -1.6769 -1.3835 0
M  V30 3 C -5.0353 -1.7457 -0.7004 0
M  V30 4 C -1.5566 -1.4551 -1.419 0
M  V30 5 C -3.6811 -1.7854 -2.5405 0
M  V30 6 C -5.0837 -2.0942 -2.1867 0
M  V30 7 C -0.9594 -1.3312 -2.6902 0
M  V30 8 C -0.7283 -1.3596 -0.165 0
M  V30 9 C -3.0959 -1.6726 -3.7891 0
M  V30 10 C -1.7201 -1.4338 -3.8681 0
M  V30 11 N -0.0619 -0.0566 -0.0798 0
M  V30 12 O -1.2359 -1.3293 -5.1445 0
M  V30 13 C 0.7618 0.0825 1.1491 0
M  V30 14 C 0.1497 -1.0406 -5.2829 0
M  V30 15 C 1.8564 1.1898 0.9121 0
M  V30 16 C -0.1094 0.4576 2.3674 0
M  V30 17 N 1.2032 2.518 0.7525 0
M  V30 18 C 3.0451 1.2413 1.8785 0
M  V30 19 C -0.6643 1.8784 2.2684 0
M  V30 20 C 0.431 2.8894 1.9402 0
M  V30 21 C 3.9574 2.3112 1.7777 0
M  V30 22 C 3.322 0.2423 2.8246 0
M  V30 23 C 5.0771 2.3969 2.608 0
M  V30 24 C 4.4438 0.327 3.6571 0
M  V30 25 C 5.3186 1.4044 3.5513 0
M  V30 26 H -5.6607 -2.4211 -0.1074 0
M  V30 27 H -5.3834 -0.7198 -0.5227 0
M  V30 28 H -5.8206 -1.4912 -2.7234 0
M  V30 29 H -5.2867 -3.1593 -2.337 0
M  V30 30 H 0.1114 -1.1513 -2.7278 0
M  V30 31 H 0.0152 -2.1659 -0.1899 0
M  V30 32 H -1.3562 -1.5295 0.7154 0
M  V30 33 H -3.6865 -1.7718 -4.6944 0
M  V30 34 H -0.7782 0.6665 -0.1054 0
M  V30 35 H 1.2596 -0.8766 1.3306 0
M  V30 36 H 0.4018 -0.079 -4.8235 0
M  V30 37 H 0.3697 -0.9657 -6.3522 0
M  V30 38 H 0.7636 -1.8495 -4.8733 0
M  V30 39 H 2.3227 0.9597 -0.0576 0
M  V30 40 H 0.4905 0.3823 3.282 0
M  V30 41 H -0.9362 -0.2491 2.4982 0
M  V30 42 H 0.5714 2.4334 -0.0441 0
M  V30 43 H -1.1413 2.1505 3.2173 0
M  V30 44 H -1.45 1.9232 1.5048 0
M  V30 45 H 1.0944 3.0194 2.8033 0
M  V30 46 H -0.0283 3.8685 1.763 0
M  V30 47 H 3.7882 3.0961 1.0416 0
M  V30 48 H 2.6809 -0.6258 2.94 0
M  V30 49 H 5.7577 3.2385 2.513 0
M  V30 50 H 4.6356 -0.4551 4.3872 0
M  V30 51 H 6.189 1.4671 4.1982 0
M  V30 END ATOM
M  V30 BEGIN BOND
M  V30 1 1 1 2
M  V30 2 1 1 3
M  V30 3 2 2 4
M  V30 4 1 2 5
M  V30 5 1 3 6
M  V30 6 1 4 7
M  V30 7 1 4 8
M  V30 8 2 5 9
M  V30 9 2 7 10
M  V30 10 1 8 11
M  V30 11 1 10 12
M  V30 12 1 11 13
M  V30 13 1 12 14
M  V30 14 1 13 15
M  V30 15 1 13 16
M  V30 16 1 15 17
M  V30 17 1 15 18
M  V30 18 1 16 19
M  V30 19 1 17 20
M  V30 20 2 18 21
M  V30 21 1 18 22
M  V30 22 1 21 23
M  V30 23 2 22 24
M  V30 24 2 23 25
M  V30 25 1 5 6
M  V30 26 1 9 10
M  V30 27 1 19 20
M  V30 28 1 24 25
M  V30 29 1 3 26
M  V30 30 1 3 27
M  V30 31 1 6 28
M  V30 32 1 6 29
M  V30 33 1 7 30
M  V30 34 1 8 31
M  V30 35 1 8 32
M  V30 36 1 9 33
M  V30 37 1 11 34
M  V30 38 1 13 35
M  V30 39 1 14 36
M  V30 40 1 14 37
M  V30 41 1 14 38
M  V30 42 1 15 39
M  V30 43 1 16 40
M  V30 44 1 16 41
M  V30 45 1 17 42
M  V30 46 1 19 43
M  V30 47 1 19 44
M  V30 48 1 20 45
M  V30 49 1 20 46
M  V30 50 1 21 47
M  V30 51 1 22 48
M  V30 52 1 23 49
M  V30 53 1 24 50
M  V30 54 1 25 51
M  V30 END BOND
M  V30 END CTAB
M  END
>  <Column 1>
659

>  <level_0>
751

>  <index>
751

>  <Unnamed: 0>
751

>  <NO.>
763

>  <Name>
l015600

>  <IUPAC_name>
n-[(5-methoxy-2-3-dihydro-1-benzofuran-7-yl)methyl]-2-phenylpiperidin-3-amine

>  <SMILES>
COc1cc2c(c(CNC3CCCNC3c3ccccc3)c1)OCC2

>  <CID>
44213642

>  <logBB>
0.39

>  <BBB+/BBB->
BBB+

>  <Inchi>
InChI=1S/C21H26N2O2/c1-24-18-12-16-9-11-25-21(16)17(13-18)14-23-19-8-5-10-22-20(19)15-6-3-2-4-7-15/h2-4-6-7-12-13-19-20-22-23H-5-8-11-14H2-1H3

>  <threshold>


>  <reference>
R2|R2|R8|R27|R43|R47|

>  <group>
A

>  <Class>
1

>  <ABC>
19.64

>  <ABCGG>
15.58

>  <nAcid>
0

>  <nBase>
2

>  <nAromAtom>
12

>  <nAromBond>
12

>  <nAtom>
51

>  <nHeavyAtom>
25

>  <nSpiro>
0

>  <nBridgehead>
0

>  <nHetero>
4

>  <nN>
2

>  <nO>
2

>  <nF>
0

>  <BalabanJ>
1.35

>  <BertzCT>
717.34

>  <nBonds>
54

>  <nBondsO>
28

>  <nBondsS>
42

>  <nBondsD>
0

>  <nBondsT>
0

>  <nBondsA>
12

>  <nBondsM>
12

>  <nBondsKS>
48

>  <nBondsKD>
6

>  <RNCG>
0.24

>  <RPCG>
0.06

>  <FCSP3>
0.43

>  <SZ>
30.33

>  <Sm>
28.18

>  <Sv>
30.99

>  <Sse>
50.53

>  <Sp>
33.66

>  <Si>
57.4

>  <MZ>
0.59

>  <Mm>
0.55

>  <Mv>
0.61

>  <Mse>
0.99

>  <Mp>
0.66

>  <Mi>
1.13

>  <NsCH3>
1

>  <NdCH2>
0

>  <NssCH2>
6

>  <NtCH>
0

>  <NdsCH>
0

>  <NaaCH>
7

>  <NsssCH>
2

>  <NddC>
0

>  <NtsC>
0

>  <NdssC>
0

>  <NaasC>
5

>  <NaaaC>
0

>  <NssssC>
0

>  <NsNH3>
0

>  <NsNH2>
0

>  <NssNH2>
0

>  <NdNH>
0

>  <NssNH>
2

>  <NaaNH>
0

>  <NtN>
0

>  <NsssNH>
0

>  <NdsN>
0

>  <NaaN>
0

>  <NsssN>
0

>  <NddsN>
0

>  <NaasN>
0

>  <NssssN>
0

>  <NsOH>
0

>  <NdO>
0

>  <NssO>
2

>  <NaaO>
0

>  <NsF>
0

>  <NsSiH3>
0

>  <NssSiH2>
0

>  <NsssSiH>
0

>  <NssssSi>
0

>  <NsPH2>
0

>  <NssPH>
0

>  <NsssP>
0

>  <NdsssP>
0

>  <NsssssP>
0

>  <NsSH>
0

>  <NdS>
0

>  <NssS>
0

>  <NaaS>
0

>  <NdssS>
0

>  <NddssS>
0

>  <NsCl>
0

>  <NsBr>
0

>  <NsI>
0

>  <fragCpx>
184.04

>  <fMF>
0.45

>  <nHBAcc>
4

>  <nHBDon>
2

>  <Kier1>
18.37

>  <Kier2>
8.79

>  <Lipinski>
1

>  <GhoseFilter>
1

>  <FilterItLogS>
-5.68

>  <VMcGowan>
269.21

>  <LabuteASA>
149.09

>  <PEOE_VSA1>
20.11

>  <PEOE_VSA2>
0

>  <PEOE_VSA3>
0

>  <PEOE_VSA4>
0

>  <PEOE_VSA5>
0

>  <PEOE_VSA6>
30.33

>  <PEOE_VSA7>
37.08

>  <PEOE_VSA8>
36.18

>  <PEOE_VSA9>
13.72

>  <PEOE_VSA10>
11.5

>  <PEOE_VSA11>
0

>  <PEOE_VSA12>
0

>  <PEOE_VSA13>
0

>  <SMR_VSA1>
9.47

>  <SMR_VSA2>
0

>  <SMR_VSA3>
10.63

>  <SMR_VSA4>
0

>  <SMR_VSA5>
37.89

>  <SMR_VSA6>
20.26

>  <SMR_VSA7>
59.15

>  <SMR_VSA8>
0

>  <SMR_VSA9>
11.5

>  <SlogP_VSA1>
20.11

>  <SlogP_VSA2>
26.3

>  <SlogP_VSA3>
12.97

>  <SlogP_VSA4>
0

>  <SlogP_VSA5>
35.57

>  <SlogP_VSA6>
42.46

>  <SlogP_VSA7>
0

>  <SlogP_VSA8>
0

>  <SlogP_VSA9>
0

>  <SlogP_VSA10>
0

>  <SlogP_VSA11>
11.5

>  <EState_VSA1>
0

>  <EState_VSA2>
0

>  <EState_VSA3>
12.08

>  <EState_VSA4>
37.62

>  <EState_VSA5>
29.53

>  <EState_VSA6>
7.11

>  <EState_VSA7>
0

>  <EState_VSA8>
53.1

>  <EState_VSA9>
9.47

>  <EState_VSA10>
0

>  <VSA_EState1>
11.34

>  <VSA_EState2>
0

>  <VSA_EState3>
7.45

>  <VSA_EState4>
3.81

>  <VSA_EState5>
1.97

>  <VSA_EState6>
15.71

>  <VSA_EState7>
3.35

>  <VSA_EState8>
2.65

>  <VSA_EState9>
1.73

>  <apol>
56.21

>  <bpol>
30.7

>  <nRing>
4

>  <nHRing>
2

>  <naRing>
2

>  <naHRing>
0

>  <nARing 2>
2

>  <nAHRing 2>
2

>  <nFRing>
1

>  <nFHRing>
1

>  <nFaRing>
0

>  <nFaHRing>
0

>  <nFARing 2>
1

>  <nFAHRing 2>
1

>  <nRot>
5

>  <SLogP>
3.21

>  <SMR>
99.24

>  <TopoPSA(NO)>
42.52

>  <TopoPSA>
42.52

>  <JGI1>
0.13

>  <JGI2>
0.06

>  <JGI3>
0.04

>  <JGI4>
0.03

>  <JGI5>
0.02

>  <Diameter>
12

>  <Radius>
6

>  <TMWC10>
128.39

>  <TSRW10>
73.4

>  <MW>
338.2

>  <AMW>
6.63

>  <WPath>
1537

>  <WPol>
38

>  <Zagreb1>
132

>  <Zagreb2>
156

>  <mZagreb2>
5.61

>  <yes>


>  <nAR-cont>
1

>  <nHA-cont>
0.921834225

>  <MWHBN>
0.326260463

>  <MWHBN-cont>
0.755852914

>  <TPSA-cont>
0.703183997

>  <pka_cont>
0.97

>  <yes.1>


>  <BBB_SCORE>
4.946981589

>  <MMFF94 Energy>
78.328

$$$$
Compound 539
Actelion Java MolfileCreator 2.0

  0  0  0  0  0  0              0 V3000
M  V30 BEGIN CTAB
M  V30 COUNTS 33 36 0 0 0
M  V30 BEGIN ATOM
M  V30 1 Cl 3.2698 -3.9247 1.8791 0
M  V30 2 C 2.1528 -2.9905 0.9622 0
M  V30 3 C 2.1961 -1.596 1.031 0
M  V30 4 C 1.2222 -3.6309 0.1484 0
M  V30 5 C 1.2921 -0.8141 0.2907 0
M  V30 6 C 0.3236 -2.8698 -0.5966 0
M  V30 7 C 0.3535 -1.475 -0.5098 0
M  V30 8 C 1.408 0.6898 0.3246 0
M  V30 9 O -0.5474 -0.7747 -1.2758 0
M  V30 10 C 0.1333 1.5752 0.3275 0
M  V30 11 C 2.2272 1.2143 -0.8655 0
M  V30 12 C -1.5233 -0.1658 -0.5231 0
M  V30 13 C -1.2361 0.944 0.2785 0
M  V30 14 C 0.3423 2.5385 -0.8524 0
M  V30 15 N 1.7963 2.6056 -1.0174 0
M  V30 16 C -2.8217 -0.672 -0.6247 0
M  V30 17 C -2.2906 1.5242 1.0035 0
M  V30 18 C -3.8531 -0.0878 0.106 0
M  V30 19 C -3.5865 1.0078 0.9233 0
M  V30 20 H 2.9444 -1.1169 1.659 0
M  V30 21 H 1.1931 -4.7152 0.0885 0
M  V30 22 H -0.4044 -3.3591 -1.2375 0
M  V30 23 H 1.9543 0.9577 1.2424 0
M  V30 24 H 0.1895 2.1693 1.2529 0
M  V30 25 H 2.0189 0.6569 -1.7874 0
M  V30 26 H 3.3034 1.1543 -0.6735 0
M  V30 27 H -0.1194 2.166 -1.7755 0
M  V30 28 H -0.0759 3.5289 -0.6449 0
M  V30 29 H 2.0314 2.9504 -1.9473 0
M  V30 30 H -3.0246 -1.524 -1.2669 0
M  V30 31 H -2.1115 2.3937 1.6334 0
M  V30 32 H -4.8626 -0.4841 0.0368 0
M  V30 33 H -4.3899 1.4687 1.4929 0
M  V30 END ATOM
M  V30 BEGIN BOND
M  V30 1 1 1 2
M  V30 2 2 2 3
M  V30 3 1 2 4
M  V30 4 1 3 5
M  V30 5 2 4 6
M  V30 6 2 5 7
M  V30 7 1 5 8
M  V30 8 1 7 9
M  V30 9 1 8 10
M  V30 10 1 8 11
M  V30 11 1 9 12
M  V30 12 1 10 13
M  V30 13 1 10 14
M  V30 14 1 11 15
M  V30 15 1 12 16
M  V30 16 1 13 17
M  V30 17 2 16 18
M  V30 18 2 17 19
M  V30 19 1 6 7
M  V30 20 2 12 13
M  V30 21 1 14 15
M  V30 22 1 18 19
M  V30 23 1 3 20
M  V30 24 1 4 21
M  V30 25 1 6 22
M  V30 26 1 8 23
M  V30 27 1 10 24
M  V30 28 1 11 25
M  V30 29 1 11 26
M  V30 30 1 14 27
M  V30 31 1 14 28
M  V30 32 1 15 29
M  V30 33 1 16 30
M  V30 34 1 17 31
M  V30 35 1 18 32
M  V30 36 1 19 33
M  V30 END BOND
M  V30 END CTAB
M  END
>  <Column 1>
660

>  <level_0>
752

>  <index>
752

>  <Unnamed: 0>
752

>  <NO.>
764

>  <Name>
128915-56-0

>  <IUPAC_name>
9-chloro-13-oxa-4-azatetracyclo[12.4.0.02-6.07-12]octadeca-1(18)-7(12)-8-10-14-16-hexaene

>  <SMILES>
Clc1ccc2c(c1)C1CNCC1c1ccccc1O2

>  <CID>
14577084

>  <logBB>
0.39

>  <BBB+/BBB->
BBB+

>  <Inchi>
InChI=1S/C16H14ClNO/c17-10-5-6-16-12(7-10)14-9-18-8-13(14)11-3-1-2-4-15(11)19-16/h1-7-13-14-18H-8-9H2

>  <threshold>


>  <reference>
R2|R2|R27|R40|R3|R25|R36|R38|R41|R43|R46|R47|R49|R4|

>  <group>
A

>  <Class>
1

>  <ABC>
15.46

>  <ABCGG>
12.53

>  <nAcid>
0

>  <nBase>
1

>  <nAromAtom>
12

>  <nAromBond>
12

>  <nAtom>
33

>  <nHeavyAtom>
19

>  <nSpiro>
0

>  <nBridgehead>
0

>  <nHetero>
3

>  <nN>
1

>  <nO>
1

>  <nF>
0

>  <BalabanJ>
1.63

>  <BertzCT>
640.4

>  <nBonds>
36

>  <nBondsO>
22

>  <nBondsS>
24

>  <nBondsD>
0

>  <nBondsT>
0

>  <nBondsA>
12

>  <nBondsM>
12

>  <nBondsKS>
30

>  <nBondsKD>
6

>  <RNCG>
0.4

>  <RPCG>
0.11

>  <FCSP3>
0.25

>  <SZ>
23.67

>  <Sm>
22.62

>  <Sv>
22.36

>  <Sse>
32.97

>  <Sp>
24.03

>  <Si>
36.56

>  <MZ>
0.72

>  <Mm>
0.69

>  <Mv>
0.68

>  <Mse>
1

>  <Mp>
0.73

>  <Mi>
1.11

>  <NsCH3>
0

>  <NdCH2>
0

>  <NssCH2>
2

>  <NtCH>
0

>  <NdsCH>
0

>  <NaaCH>
7

>  <NsssCH>
2

>  <NddC>
0

>  <NtsC>
0

>  <NdssC>
0

>  <NaasC>
5

>  <NaaaC>
0

>  <NssssC>
0

>  <NsNH3>
0

>  <NsNH2>
0

>  <NssNH2>
0

>  <NdNH>
0

>  <NssNH>
1

>  <NaaNH>
0

>  <NtN>
0

>  <NsssNH>
0

>  <NdsN>
0

>  <NaaN>
0

>  <NsssN>
0

>  <NddsN>
0

>  <NaasN>
0

>  <NssssN>
0

>  <NsOH>
0

>  <NdO>
0

>  <NssO>
1

>  <NaaO>
0

>  <NsF>
0

>  <NsSiH3>
0

>  <NssSiH2>
0

>  <NsssSiH>
0

>  <NssssSi>
0

>  <NsPH2>
0

>  <NssPH>
0

>  <NsssP>
0

>  <NdsssP>
0

>  <NsssssP>
0

>  <NsSH>
0

>  <NdS>
0

>  <NssS>
0

>  <NaaS>
0

>  <NdssS>
0

>  <NddssS>
0

>  <NsCl>
1

>  <NsBr>
0

>  <NsI>
0

>  <fragCpx>
142.03

>  <fMF>
0.55

>  <nHBAcc>
2

>  <nHBDon>
1

>  <Kier1>
12.72

>  <Kier2>
5.08

>  <Lipinski>
1

>  <GhoseFilter>
1

>  <FilterItLogS>
-4.9

>  <VMcGowan>
195.15

>  <LabuteASA>
116.9

>  <PEOE_VSA1>
10.05

>  <PEOE_VSA2>
0

>  <PEOE_VSA3>
0

>  <PEOE_VSA4>
0

>  <PEOE_VSA5>
0

>  <PEOE_VSA6>
29.8

>  <PEOE_VSA7>
29.83

>  <PEOE_VSA8>
35.51

>  <PEOE_VSA9>
0

>  <PEOE_VSA10>
11.5

>  <PEOE_VSA11>
0

>  <PEOE_VSA12>
0

>  <PEOE_VSA13>
0

>  <SMR_VSA1>
4.74

>  <SMR_VSA2>
0

>  <SMR_VSA3>
5.32

>  <SMR_VSA4>
0

>  <SMR_VSA5>
11.84

>  <SMR_VSA6>
13.09

>  <SMR_VSA7>
58.61

>  <SMR_VSA8>
0

>  <SMR_VSA9>
11.5

>  <SlogP_VSA1>
10.05

>  <SlogP_VSA2>
13.09

>  <SlogP_VSA3>
0

>  <SlogP_VSA4>
0

>  <SlogP_VSA5>
22.96

>  <SlogP_VSA6>
42.46

>  <SlogP_VSA7>
5.02

>  <SlogP_VSA8>
0

>  <SlogP_VSA9>
0

>  <SlogP_VSA10>
0

>  <SlogP_VSA11>
11.5

>  <EState_VSA1>
0

>  <EState_VSA2>
0

>  <EState_VSA3>
11.84

>  <EState_VSA4>
29.61

>  <EState_VSA5>
11.13

>  <EState_VSA6>
0

>  <EState_VSA7>
24.27

>  <EState_VSA8>
23.52

>  <EState_VSA9>
16.34

>  <EState_VSA10>
0

>  <VSA_EState1>
6.11

>  <VSA_EState2>
0

>  <VSA_EState3>
4.27

>  <VSA_EState4>
2.52

>  <VSA_EState5>
2.82

>  <VSA_EState6>
14.26

>  <VSA_EState7>
0

>  <VSA_EState8>
1.98

>  <VSA_EState9>
0

>  <apol>
40.14

>  <bpol>
16.86

>  <nRing>
4

>  <nHRing>
2

>  <naRing>
2

>  <naHRing>
0

>  <nARing 2>
2

>  <nAHRing 2>
2

>  <nFRing>
1

>  <nFHRing>
1

>  <nFaRing>
0

>  <nFaHRing>
0

>  <nFARing 2>
1

>  <nFAHRing 2>
1

>  <nRot>
0

>  <SLogP>
3.92

>  <SMR>
76.32

>  <TopoPSA(NO)>
21.26

>  <TopoPSA>
21.26

>  <JGI1>
0.14

>  <JGI2>
0.07

>  <JGI3>
0.03

>  <JGI4>
0.04

>  <JGI5>
0.02

>  <Diameter>
8

>  <Radius>
5

>  <TMWC10>
115.92

>  <TSRW10>
67.04

>  <MW>
271.08

>  <AMW>
8.21

>  <WPath>
599

>  <WPol>
35

>  <Zagreb1>
108

>  <Zagreb2>
132

>  <mZagreb2>
4.06

>  <yes>


>  <nAR-cont>
1

>  <nHA-cont>
0.998649058

>  <MWHBN>
0.182210129

>  <MWHBN-cont>
0.989436057

>  <TPSA-cont>
0.851591998

>  <pka_cont>
0.97

>  <yes.1>


>  <BBB_SCORE>
5.67098714

>  <MMFF94 Energy>
78.749

$$$$
Compound 540
Actelion Java MolfileCreator 2.0

  0  0  0  0  0  0              0 V3000
M  V30 BEGIN CTAB
M  V30 COUNTS 37 40 0 0 0
M  V30 BEGIN ATOM
M  V30 1 O 0.2412 0.7237 -1.2065 0
M  V30 2 C -0.6673 1.237 -0.3103 0
M  V30 3 C 0.2243 -0.6455 -1.3305 0
M  V30 4 C -0.433 1.1009 1.0628 0
M  V30 5 C -1.7659 1.9627 -0.798 0
M  V30 6 C 0.503 -1.5347 -0.2838 0
M  V30 7 C -0.0339 -1.1154 -2.6265 0
M  V30 8 C -1.3503 1.6653 1.9602 0
M  V30 9 C 0.7704 0.3519 1.5707 0
M  V30 10 C -2.6729 2.5066 0.1196 0
M  V30 11 C -2.0014 2.1242 -2.2716 0
M  V30 12 C 0.4629 -2.9165 -0.5828 0
M  V30 13 C 0.8645 -1.1232 1.137 0
M  V30 14 C -0.0639 -2.4811 -2.8939 0
M  V30 15 C -2.4655 2.3589 1.4906 0
M  V30 16 C 2.1366 0.9558 1.2124 0
M  V30 17 C 0.1793 -3.3845 -1.8678 0
M  V30 18 O 0.045 -1.8922 2.0395 0
M  V30 19 C 2.3577 -1.3843 1.447 0
M  V30 20 N 3.0883 -0.157 1.093 0
M  V30 21 H -0.2166 -0.4064 -3.43 0
M  V30 22 H -1.2049 1.5689 3.0343 0
M  V30 23 H 0.7139 0.3574 2.6716 0
M  V30 24 H -3.5455 3.0554 -0.228 0
M  V30 25 H -2.3785 1.1888 -2.6965 0
M  V30 26 H -2.7357 2.9117 -2.473 0
M  V30 27 H -1.0766 2.4089 -2.7839 0
M  V30 28 H 0.6665 -3.6455 0.2014 0
M  V30 29 H -0.2718 -2.8363 -3.8993 0
M  V30 30 H -3.1727 2.7901 2.1952 0
M  V30 31 H 2.1339 1.5196 0.275 0
M  V30 32 H 2.4573 1.6517 1.9969 0
M  V30 33 H 0.1611 -4.4532 -2.0649 0
M  V30 34 H -0.8687 -1.8007 1.7125 0
M  V30 35 H 2.7736 -2.2434 0.9111 0
M  V30 36 H 2.4885 -1.5848 2.5188 0
M  V30 37 H 3.8848 -0.0262 1.7142 0
M  V30 END ATOM
M  V30 BEGIN BOND
M  V30 1 1 1 2
M  V30 2 1 1 3
M  V30 3 2 2 4
M  V30 4 1 2 5
M  V30 5 2 3 6
M  V30 6 1 3 7
M  V30 7 1 4 8
M  V30 8 1 4 9
M  V30 9 2 5 10
M  V30 10 1 5 11
M  V30 11 1 6 12
M  V30 12 1 6 13
M  V30 13 2 7 14
M  V30 14 2 8 15
M  V30 15 1 9 16
M  V30 16 2 12 17
M  V30 17 1 13 18
M  V30 18 1 13 19
M  V30 19 1 16 20
M  V30 20 1 9 13
M  V30 21 1 10 15
M  V30 22 1 14 17
M  V30 23 1 19 20
M  V30 24 1 7 21
M  V30 25 1 8 22
M  V30 26 1 9 23
M  V30 27 1 10 24
M  V30 28 1 11 25
M  V30 29 1 11 26
M  V30 30 1 11 27
M  V30 31 1 12 28
M  V30 32 1 14 29
M  V30 33 1 15 30
M  V30 34 1 16 31
M  V30 35 1 16 32
M  V30 36 1 17 33
M  V30 37 1 18 34
M  V30 38 1 19 35
M  V30 39 1 19 36
M  V30 40 1 20 37
M  V30 END BOND
M  V30 END CTAB
M  END
>  <Column 1>
661

>  <level_0>
755

>  <index>
755

>  <Unnamed: 0>
755

>  <NO.>
767

>  <Name>
org-30526

>  <IUPAC_name>


>  <SMILES>
Cc1cccc2c1Oc1ccccc1C1(O)CNCC21

>  <CID>


>  <logBB>
0.39

>  <BBB+/BBB->
BBB+

>  <Inchi>
InChI=1S/C17H17NO2/c1-11-5-4-6-12-14-9-18-10-17(14-19)13-7-2-3-8-15(13)20-16(11)12/h2-8-14-18-19H-9-10H2-1H3

>  <threshold>


>  <reference>
R47|

>  <group>
A

>  <Class>
1

>  <ABC>
16.25

>  <ABCGG>
13.51

>  <nAcid>
0

>  <nBase>
1

>  <nAromAtom>
12

>  <nAromBond>
12

>  <nAtom>
37

>  <nHeavyAtom>
20

>  <nSpiro>
0

>  <nBridgehead>
0

>  <nHetero>
3

>  <nN>
1

>  <nO>
2

>  <nF>
0

>  <BalabanJ>
1.72

>  <BertzCT>
682.44

>  <nBonds>
40

>  <nBondsO>
23

>  <nBondsS>
28

>  <nBondsD>
0

>  <nBondsT>
0

>  <nBondsA>
12

>  <nBondsM>
12

>  <nBondsKS>
34

>  <nBondsKD>
6

>  <RNCG>
0.29

>  <RPCG>
0.14

>  <FCSP3>
0.29

>  <SZ>
23.67

>  <Sm>
22.26

>  <Sv>
23.79

>  <Sse>
36.87

>  <Sp>
25.41

>  <Si>
41.24

>  <MZ>
0.64

>  <Mm>
0.6

>  <Mv>
0.64

>  <Mse>
1

>  <Mp>
0.69

>  <Mi>
1.11

>  <NsCH3>
1

>  <NdCH2>
0

>  <NssCH2>
2

>  <NtCH>
0

>  <NdsCH>
0

>  <NaaCH>
7

>  <NsssCH>
1

>  <NddC>
0

>  <NtsC>
0

>  <NdssC>
0

>  <NaasC>
5

>  <NaaaC>
0

>  <NssssC>
1

>  <NsNH3>
0

>  <NsNH2>
0

>  <NssNH2>
0

>  <NdNH>
0

>  <NssNH>
1

>  <NaaNH>
0

>  <NtN>
0

>  <NsssNH>
0

>  <NdsN>
0

>  <NaaN>
0

>  <NsssN>
0

>  <NddsN>
0

>  <NaasN>
0

>  <NssssN>
0

>  <NsOH>
1

>  <NdO>
0

>  <NssO>
1

>  <NaaO>
0

>  <NsF>
0

>  <NsSiH3>
0

>  <NssSiH2>
0

>  <NsssSiH>
0

>  <NssssSi>
0

>  <NsPH2>
0

>  <NssPH>
0

>  <NsssP>
0

>  <NdsssP>
0

>  <NsssssP>
0

>  <NsSH>
0

>  <NdS>
0

>  <NssS>
0

>  <NaaS>
0

>  <NdssS>
0

>  <NddssS>
0

>  <NsCl>
0

>  <NsBr>
0

>  <NsI>
0

>  <fragCpx>
149.03

>  <fMF>
0.49

>  <nHBAcc>
3

>  <nHBDon>
2

>  <Kier1>
13.65

>  <Kier2>
5.03

>  <Lipinski>
1

>  <GhoseFilter>
1

>  <FilterItLogS>
-4.32

>  <VMcGowan>
202.87

>  <LabuteASA>
117.76

>  <PEOE_VSA1>
15.16

>  <PEOE_VSA2>
0

>  <PEOE_VSA3>
0

>  <PEOE_VSA4>
0

>  <PEOE_VSA5>
0

>  <PEOE_VSA6>
36.4

>  <PEOE_VSA7>
18.55

>  <PEOE_VSA8>
30.13

>  <PEOE_VSA9>
0

>  <PEOE_VSA10>
17.1

>  <PEOE_VSA11>
0

>  <PEOE_VSA12>
0

>  <PEOE_VSA13>
0

>  <SMR_VSA1>
9.84

>  <SMR_VSA2>
0

>  <SMR_VSA3>
5.32

>  <SMR_VSA4>
0

>  <SMR_VSA5>
18.44

>  <SMR_VSA6>
13.09

>  <SMR_VSA7>
59.15

>  <SMR_VSA8>
0

>  <SMR_VSA9>
11.5

>  <SlogP_VSA1>
10.05

>  <SlogP_VSA2>
18.2

>  <SlogP_VSA3>
5.6

>  <SlogP_VSA4>
6.92

>  <SlogP_VSA5>
22.61

>  <SlogP_VSA6>
42.46

>  <SlogP_VSA7>
0

>  <SlogP_VSA8>
0

>  <SlogP_VSA9>
0

>  <SlogP_VSA10>
0

>  <SlogP_VSA11>
11.5

>  <EState_VSA1>
5.6

>  <EState_VSA2>
5.92

>  <EState_VSA3>
6.54

>  <EState_VSA4>
34.73

>  <EState_VSA5>
0

>  <EState_VSA6>
0

>  <EState_VSA7>
43.32

>  <EState_VSA8>
11.38

>  <EState_VSA9>
4.74

>  <EState_VSA10>
5.11

>  <VSA_EState1>
6.15

>  <VSA_EState2>
0

>  <VSA_EState3>
14.57

>  <VSA_EState4>
2.18

>  <VSA_EState5>
1.68

>  <VSA_EState6>
13.96

>  <VSA_EState7>
0

>  <VSA_EState8>
3.38

>  <VSA_EState9>
0

>  <apol>
42.43

>  <bpol>
19.36

>  <nRing>
4

>  <nHRing>
2

>  <naRing>
2

>  <naHRing>
0

>  <nARing 2>
2

>  <nAHRing 2>
2

>  <nFRing>
1

>  <nFHRing>
1

>  <nFaRing>
0

>  <nFaHRing>
0

>  <nFARing 2>
1

>  <nFAHRing 2>
1

>  <nRot>
0

>  <SLogP>
2.68

>  <SMR>
77.2

>  <TopoPSA(NO)>
41.49

>  <TopoPSA>
41.49

>  <JGI1>
0.17

>  <JGI2>
0.1

>  <JGI3>
0.05

>  <JGI4>
0.04

>  <JGI5>
0.02

>  <Diameter>
7

>  <Radius>
5

>  <TMWC10>
119.43

>  <TSRW10>
69.02

>  <MW>
267.13

>  <AMW>
7.22

>  <WPath>
657

>  <WPol>
41

>  <Zagreb1>
116

>  <Zagreb2>
145

>  <mZagreb2>
4.24

>  <yes>


>  <nAR-cont>
1

>  <nHA-cont>
0.999629945

>  <MWHBN>
0.305920565

>  <MWHBN-cont>
0.822696546

>  <TPSA-cont>
0.710374036

>  <pka_cont>
0.97

>  <yes.1>


>  <BBB_SCORE>
5.139422835

>  <MMFF94 Energy>
114.28

$$$$
Compound 541
Actelion Java MolfileCreator 2.0

  0  0  0  0  0  0              0 V3000
M  V30 BEGIN CTAB
M  V30 COUNTS 36 39 0 0 0
M  V30 BEGIN ATOM
M  V30 1 Cl 4.5683 0.8146 2.7717 0
M  V30 2 C 3.5215 0.2142 1.5435 0
M  V30 3 C 2.3808 0.9436 1.1917 0
M  V30 4 C 3.825 -0.9895 0.9094 0
M  V30 5 C 1.5206 0.4694 0.1929 0
M  V30 6 C 2.9762 -1.4763 -0.0813 0
M  V30 7 C 1.8296 -0.7553 -0.4152 0
M  V30 8 C 0.2701 1.1816 -0.2853 0
M  V30 9 O 1.0115 -1.2446 -1.4075 0
M  V30 10 C -1.0186 0.4293 0.1535 0
M  V30 11 C 0.1827 2.663 0.1288 0
M  V30 12 C -0.1698 -1.7776 -0.9412 0
M  V30 13 C -1.1207 -1.058 -0.198 0
M  V30 14 C -2.2391 1.2029 -0.4173 0
M  V30 15 C -1.0692 3.3157 -0.4469 0
M  V30 16 C -0.3783 -3.1228 -1.276 0
M  V30 17 C -2.2422 -1.7744 0.273 0
M  V30 18 N -2.2759 2.6152 -0.0169 0
M  V30 19 C -1.5107 -3.7946 -0.8266 0
M  V30 20 C -2.4375 -3.1225 -0.0396 0
M  V30 21 H 2.1832 1.8794 1.7057 0
M  V30 22 H 4.7154 -1.5488 1.1822 0
M  V30 23 H 3.1988 -2.4124 -0.5845 0
M  V30 24 H 0.3157 1.1859 -1.3857 0
M  V30 25 H -1.0633 0.4759 1.253 0
M  V30 26 H 1.0664 3.2084 -0.2244 0
M  V30 27 H 0.1619 2.7583 1.2223 0
M  V30 28 H -2.2542 1.1321 -1.5131 0
M  V30 29 H -3.1793 0.7553 -0.0779 0
M  V30 30 H -1.0207 3.342 -1.5421 0
M  V30 31 H -1.1257 4.3572 -0.1115 0
M  V30 32 H 0.359 -3.6505 -1.8752 0
M  V30 33 H -2.9873 -1.2828 0.8965 0
M  V30 34 H -2.3565 2.6733 0.9986 0
M  V30 35 H -1.6618 -4.8403 -1.0789 0
M  V30 36 H -3.3171 -3.6434 0.3302 0
M  V30 END ATOM
M  V30 BEGIN BOND
M  V30 1 1 1 2
M  V30 2 2 2 3
M  V30 3 1 2 4
M  V30 4 1 3 5
M  V30 5 2 4 6
M  V30 6 2 5 7
M  V30 7 1 5 8
M  V30 8 1 7 9
M  V30 9 1 8 10
M  V30 10 1 8 11
M  V30 11 1 9 12
M  V30 12 1 10 13
M  V30 13 1 10 14
M  V30 14 1 11 15
M  V30 15 1 12 16
M  V30 16 1 13 17
M  V30 17 1 14 18
M  V30 18 2 16 19
M  V30 19 2 17 20
M  V30 20 1 6 7
M  V30 21 2 12 13
M  V30 22 1 15 18
M  V30 23 1 19 20
M  V30 24 1 3 21
M  V30 25 1 4 22
M  V30 26 1 6 23
M  V30 27 1 8 24
M  V30 28 1 10 25
M  V30 29 1 11 26
M  V30 30 1 11 27
M  V30 31 1 14 28
M  V30 32 1 14 29
M  V30 33 1 15 30
M  V30 34 1 15 31
M  V30 35 1 16 32
M  V30 36 1 17 33
M  V30 37 1 18 34
M  V30 38 1 19 35
M  V30 39 1 20 36
M  V30 END BOND
M  V30 END CTAB
M  END
>  <Column 1>
662

>  <level_0>
756

>  <index>
756

>  <Unnamed: 0>
756

>  <NO.>
768

>  <Name>
b-106;org30526

>  <IUPAC_name>


>  <SMILES>
Clc1ccc2c(c1)C1CCNCC1c1ccccc1O2

>  <CID>


>  <logBB>
0.39

>  <BBB+/BBB->
BBB+

>  <Inchi>
InChI=1S/C17H16ClNO/c18-11-5-6-17-14(9-11)12-7-8-19-10-15(12)13-3-1-2-4-16(13)20-17/h1-6-9-12-15-19H-7-8-10H2

>  <threshold>


>  <reference>
R18|R26|R27|R43|

>  <group>
A

>  <Class>
1

>  <ABC>
16.17

>  <ABCGG>
12.42

>  <nAcid>
0

>  <nBase>
1

>  <nAromAtom>
12

>  <nAromBond>
12

>  <nAtom>
36

>  <nHeavyAtom>
20

>  <nSpiro>
0

>  <nBridgehead>
0

>  <nHetero>
3

>  <nN>
1

>  <nO>
1

>  <nF>
0

>  <BalabanJ>
1.63

>  <BertzCT>
655.19

>  <nBonds>
39

>  <nBondsO>
23

>  <nBondsS>
27

>  <nBondsD>
0

>  <nBondsT>
0

>  <nBondsA>
12

>  <nBondsM>
12

>  <nBondsKS>
33

>  <nBondsKD>
6

>  <RNCG>
0.39

>  <RPCG>
0.11

>  <FCSP3>
0.29

>  <SZ>
25

>  <Sm>
23.79

>  <Sv>
23.9

>  <Sse>
35.86

>  <Sp>
25.83

>  <Si>
39.97

>  <MZ>
0.69

>  <Mm>
0.66

>  <Mv>
0.66

>  <Mse>
1

>  <Mp>
0.72

>  <Mi>
1.11

>  <NsCH3>
0

>  <NdCH2>
0

>  <NssCH2>
3

>  <NtCH>
0

>  <NdsCH>
0

>  <NaaCH>
7

>  <NsssCH>
2

>  <NddC>
0

>  <NtsC>
0

>  <NdssC>
0

>  <NaasC>
5

>  <NaaaC>
0

>  <NssssC>
0

>  <NsNH3>
0

>  <NsNH2>
0

>  <NssNH2>
0

>  <NdNH>
0

>  <NssNH>
1

>  <NaaNH>
0

>  <NtN>
0

>  <NsssNH>
0

>  <NdsN>
0

>  <NaaN>
0

>  <NsssN>
0

>  <NddsN>
0

>  <NaasN>
0

>  <NssssN>
0

>  <NsOH>
0

>  <NdO>
0

>  <NssO>
1

>  <NaaO>
0

>  <NsF>
0

>  <NsSiH3>
0

>  <NssSiH2>
0

>  <NsssSiH>
0

>  <NssssSi>
0

>  <NsPH2>
0

>  <NssPH>
0

>  <NsssP>
0

>  <NdsssP>
0

>  <NsssssP>
0

>  <NsSH>
0

>  <NdS>
0

>  <NssS>
0

>  <NaaS>
0

>  <NdssS>
0

>  <NddssS>
0

>  <NsCl>
1

>  <NsBr>
0

>  <NsI>
0

>  <fragCpx>
149.03

>  <fMF>
0.53

>  <nHBAcc>
2

>  <nHBDon>
1

>  <Kier1>
13.65

>  <Kier2>
5.65

>  <Lipinski>
1

>  <GhoseFilter>
1

>  <FilterItLogS>
-5.18

>  <VMcGowan>
209.24

>  <LabuteASA>
123.27

>  <PEOE_VSA1>
10.05

>  <PEOE_VSA2>
0

>  <PEOE_VSA3>
0

>  <PEOE_VSA4>
0

>  <PEOE_VSA5>
0

>  <PEOE_VSA6>
29.8

>  <PEOE_VSA7>
48.71

>  <PEOE_VSA8>
23.05

>  <PEOE_VSA9>
0

>  <PEOE_VSA10>
11.5

>  <PEOE_VSA11>
0

>  <PEOE_VSA12>
0

>  <PEOE_VSA13>
0

>  <SMR_VSA1>
4.74

>  <SMR_VSA2>
0

>  <SMR_VSA3>
5.32

>  <SMR_VSA4>
0

>  <SMR_VSA5>
18.26

>  <SMR_VSA6>
13.09

>  <SMR_VSA7>
58.61

>  <SMR_VSA8>
0

>  <SMR_VSA9>
11.5

>  <SlogP_VSA1>
10.05

>  <SlogP_VSA2>
13.09

>  <SlogP_VSA3>
0

>  <SlogP_VSA4>
0

>  <SlogP_VSA5>
29.38

>  <SlogP_VSA6>
42.46

>  <SlogP_VSA7>
5.02

>  <SlogP_VSA8>
0

>  <SlogP_VSA9>
0

>  <SlogP_VSA10>
0

>  <SlogP_VSA11>
11.5

>  <EState_VSA1>
0

>  <EState_VSA2>
0

>  <EState_VSA3>
11.84

>  <EState_VSA4>
36.03

>  <EState_VSA5>
11.13

>  <EState_VSA6>
0

>  <EState_VSA7>
18.2

>  <EState_VSA8>
29.58

>  <EState_VSA9>
16.34

>  <EState_VSA10>
0

>  <VSA_EState1>
6.16

>  <VSA_EState2>
0

>  <VSA_EState3>
4.3

>  <VSA_EState4>
2.55

>  <VSA_EState5>
2.87

>  <VSA_EState6>
14.36

>  <VSA_EState7>
1.12

>  <VSA_EState8>
2.05

>  <VSA_EState9>
0

>  <apol>
43.14

>  <bpol>
18.87

>  <nRing>
4

>  <nHRing>
2

>  <naRing>
2

>  <naHRing>
0

>  <nARing 2>
2

>  <nAHRing 2>
2

>  <nFRing>
1

>  <nFHRing>
1

>  <nFaRing>
0

>  <nFaHRing>
0

>  <nFARing 2>
1

>  <nFAHRing 2>
1

>  <nRot>
0

>  <SLogP>
4.31

>  <SMR>
80.94

>  <TopoPSA(NO)>
21.26

>  <TopoPSA>
21.26

>  <JGI1>
0.13

>  <JGI2>
0.07

>  <JGI3>
0.04

>  <JGI4>
0.04

>  <JGI5>
0.01

>  <Diameter>
8

>  <Radius>
5

>  <TMWC10>
118.06

>  <TSRW10>
62.42

>  <MW>
285.09

>  <AMW>
7.92

>  <WPath>
689

>  <WPol>
38

>  <Zagreb1>
112

>  <Zagreb2>
136

>  <mZagreb2>
4.31

>  <yes>


>  <nAR-cont>
1

>  <nHA-cont>
0.999629945

>  <MWHBN>
0.177676611

>  <MWHBN-cont>
0.984526488

>  <TPSA-cont>
0.851591998

>  <pka_cont>
0.97

>  <yes.1>


>  <BBB_SCORE>
5.664603674

>  <MMFF94 Energy>
69.276

$$$$
Compound 542
Actelion Java MolfileCreator 2.0

  0  0  0  0  0  0              0 V3000
M  V30 BEGIN CTAB
M  V30 COUNTS 43 46 0 0 0
M  V30 BEGIN ATOM
M  V30 1 F -3.8454 0.48 4.0059 0
M  V30 2 C -2.6818 0.622 3.3585 0
M  V30 3 C -2.4112 1.8092 2.6905 0
M  V30 4 C -1.7607 -0.4168 3.3686 0
M  V30 5 C -1.1988 1.9598 2.0152 0
M  V30 6 C -0.547 -0.2692 2.6948 0
M  V30 7 C -0.2569 0.9164 1.9972 0
M  V30 8 C 1.0579 1.1033 1.2751 0
M  V30 9 N 1.3748 0.0 0.378 0
M  V30 10 C 2.3592 -0.9422 0.596 0
M  V30 11 C 0.7887 -0.266 -0.8457 0
M  V30 12 C 2.3098 -1.7532 -0.5324 0
M  V30 13 C 3.264 -1.1683 1.6427 0
M  V30 14 N 1.3441 -1.325 -1.4028 0
M  V30 15 C -0.3402 0.5224 -1.45 0 CFG=1
M  V30 16 C 3.1898 -2.8393 -0.646 0
M  V30 17 C 4.135 -2.2568 1.5129 0
M  V30 18 C -0.0428 0.8773 -2.9212 0
M  V30 19 C -1.6575 -0.2616 -1.3579 0
M  V30 20 C 4.1012 -3.0809 0.3878 0
M  V30 21 N -1.1453 1.6272 -3.5483 0
M  V30 22 C -2.7806 0.486 -2.0737 0
M  V30 23 C -2.385 0.8474 -3.5048 0
M  V30 24 H -3.1448 2.6094 2.7024 0
M  V30 25 H -1.9919 -1.335 3.8994 0
M  V30 26 H -0.9985 2.8978 1.5008 0
M  V30 27 H 0.164 -1.0935 2.7133 0
M  V30 28 H 1.8621 1.2117 2.0099 0
M  V30 29 H 1.0618 2.0155 0.6673 0
M  V30 30 H 3.2989 -0.5383 2.5247 0
M  V30 31 H -0.4675 1.4682 -0.9112 0
M  V30 32 H 3.1552 -3.4739 -1.5244 0
M  V30 33 H 4.8517 -2.4644 2.3051 0
M  V30 34 H 0.1618 -0.0243 -3.5129 0
M  V30 35 H 0.8649 1.4904 -2.9767 0
M  V30 36 H -1.5409 -1.2547 -1.8118 0
M  V30 37 H -1.9356 -0.4291 -0.3108 0
M  V30 38 H 4.788 -3.9202 0.3099 0
M  V30 39 H -1.2837 2.5041 -3.0479 0
M  V30 40 H -3.6856 -0.1317 -2.0852 0
M  V30 41 H -3.0239 1.3993 -1.516 0
M  V30 42 H -3.1868 1.4341 -3.9665 0
M  V30 43 H -2.2736 -0.0605 -4.1096 0
M  V30 END ATOM
M  V30 BEGIN BOND
M  V30 1 1 1 2
M  V30 2 2 2 3
M  V30 3 1 2 4
M  V30 4 1 3 5
M  V30 5 2 4 6
M  V30 6 2 5 7
M  V30 7 1 7 8
M  V30 8 1 8 9
M  V30 9 1 9 10
M  V30 10 1 9 11
M  V30 11 2 10 12
M  V30 12 1 10 13
M  V30 13 2 11 14
M  V30 14 1 11 15
M  V30 15 1 12 16
M  V30 16 2 13 17
M  V30 17 1 15 18
M  V30 18 1 15 19
M  V30 19 2 16 20
M  V30 20 1 18 21
M  V30 21 1 19 22
M  V30 22 1 21 23
M  V30 23 1 6 7
M  V30 24 1 12 14
M  V30 25 1 17 20
M  V30 26 1 22 23
M  V30 27 1 3 24
M  V30 28 1 4 25
M  V30 29 1 5 26
M  V30 30 1 6 27
M  V30 31 1 8 28
M  V30 32 1 8 29
M  V30 33 1 13 30
M  V30 34 1 15 31
M  V30 35 1 16 32
M  V30 36 1 17 33
M  V30 37 1 18 34
M  V30 38 1 18 35
M  V30 39 1 19 36
M  V30 40 1 19 37
M  V30 41 1 20 38
M  V30 42 1 21 39
M  V30 43 1 22 40
M  V30 44 1 22 41
M  V30 45 1 23 42
M  V30 46 1 23 43
M  V30 END BOND
M  V30 BEGIN COLLECTION
M  V30 MDLV30/STEABS ATOMS=(1 15)
M  V30 END COLLECTION
M  V30 END CTAB
M  END
>  <Column 1>
663

>  <level_0>
757

>  <index>
757

>  <Unnamed: 0>
757

>  <NO.>
769

>  <Name>
chembl1935437

>  <IUPAC_name>
1-[(4-fluorophenyl)methyl]-2-[(3r)-piperidin-3-yl]benzimidazole

>  <SMILES>
Fc1ccc(Cn2c([C@@H]3CCCNC3)nc3ccccc32)cc1

>  <CID>
57404030

>  <logBB>
0.39

>  <BBB+/BBB->
BBB+

>  <Inchi>
InChI=1S/C19H20FN3/c20-16-9-7-14(8-10-16)13-23-18-6-2-1-5-17(18)22-19(23)15-4-3-11-21-12-15/h1-2-5-10-15-21H-3-4-11-13H2/t15-/m1/s1

>  <threshold>


>  <reference>
R2|R2|R25|R27|R46|

>  <group>
A

>  <Class>
1

>  <ABC>
18.33

>  <ABCGG>
14.35

>  <nAcid>
0

>  <nBase>
1

>  <nAromAtom>
15

>  <nAromBond>
16

>  <nAtom>
43

>  <nHeavyAtom>
23

>  <nSpiro>
0

>  <nBridgehead>
0

>  <nHetero>
4

>  <nN>
3

>  <nO>
0

>  <nF>
1

>  <BalabanJ>
1.44

>  <BertzCT>
801.1

>  <nBonds>
46

>  <nBondsO>
26

>  <nBondsS>
30

>  <nBondsD>
0

>  <nBondsT>
0

>  <nBondsA>
16

>  <nBondsM>
16

>  <nBondsKS>
39

>  <nBondsKD>
7

>  <RNCG>
0.21

>  <RPCG>
0.08

>  <FCSP3>
0.32

>  <SZ>
27.33

>  <Sm>
25.76

>  <Sv>
27.34

>  <Sse>
42.82

>  <Sp>
29.3

>  <Si>
48.57

>  <MZ>
0.64

>  <Mm>
0.6

>  <Mv>
0.64

>  <Mse>
1

>  <Mp>
0.68

>  <Mi>
1.13

>  <NsCH3>
0

>  <NdCH2>
0

>  <NssCH2>
5

>  <NtCH>
0

>  <NdsCH>
0

>  <NaaCH>
8

>  <NsssCH>
1

>  <NddC>
0

>  <NtsC>
0

>  <NdssC>
0

>  <NaasC>
3

>  <NaaaC>
2

>  <NssssC>
0

>  <NsNH3>
0

>  <NsNH2>
0

>  <NssNH2>
0

>  <NdNH>
0

>  <NssNH>
1

>  <NaaNH>
0

>  <NtN>
0

>  <NsssNH>
0

>  <NdsN>
0

>  <NaaN>
1

>  <NsssN>
0

>  <NddsN>
0

>  <NaasN>
1

>  <NssssN>
0

>  <NsOH>
0

>  <NdO>
0

>  <NssO>
0

>  <NaaO>
0

>  <NsF>
1

>  <NsSiH3>
0

>  <NssSiH2>
0

>  <NsssSiH>
0

>  <NssssSi>
0

>  <NsPH2>
0

>  <NssPH>
0

>  <NsssP>
0

>  <NdsssP>
0

>  <NsssssP>
0

>  <NsSH>
0

>  <NdS>
0

>  <NssS>
0

>  <NaaS>
0

>  <NdssS>
0

>  <NddssS>
0

>  <NsCl>
0

>  <NsBr>
0

>  <NsI>
0

>  <fragCpx>
170.04

>  <fMF>
0.51

>  <nHBAcc>
3

>  <nHBDon>
1

>  <Kier1>
16.47

>  <Kier2>
7.49

>  <Lipinski>
1

>  <GhoseFilter>
1

>  <FilterItLogS>
-5.27

>  <VMcGowan>
236.73

>  <LabuteASA>
134.71

>  <PEOE_VSA1>
9.88

>  <PEOE_VSA2>
0

>  <PEOE_VSA3>
9.37

>  <PEOE_VSA4>
0

>  <PEOE_VSA5>
0

>  <PEOE_VSA6>
24.27

>  <PEOE_VSA7>
49.22

>  <PEOE_VSA8>
19.01

>  <PEOE_VSA9>
11.03

>  <PEOE_VSA10>
11.64

>  <PEOE_VSA11>
0

>  <PEOE_VSA12>
0

>  <PEOE_VSA13>
0

>  <SMR_VSA1>
4.39

>  <SMR_VSA2>
0

>  <SMR_VSA3>
14.87

>  <SMR_VSA4>
0

>  <SMR_VSA5>
25.3

>  <SMR_VSA6>
13.09

>  <SMR_VSA7>
65.74

>  <SMR_VSA8>
0

>  <SMR_VSA9>
0

>  <SlogP_VSA1>
5.32

>  <SlogP_VSA2>
22.64

>  <SlogP_VSA3>
6.54

>  <SlogP_VSA4>
5.82

>  <SlogP_VSA5>
30.15

>  <SlogP_VSA6>
48.53

>  <SlogP_VSA7>
0

>  <SlogP_VSA8>
11.03

>  <SlogP_VSA9>
0

>  <SlogP_VSA10>
4.39

>  <SlogP_VSA11>
0

>  <EState_VSA1>
0

>  <EState_VSA2>
5.82

>  <EState_VSA3>
5.92

>  <EState_VSA4>
42.06

>  <EState_VSA5>
24.97

>  <EState_VSA6>
0

>  <EState_VSA7>
24.27

>  <EState_VSA8>
22.02

>  <EState_VSA9>
4.98

>  <EState_VSA10>
4.39

>  <VSA_EState1>
15.45

>  <VSA_EState2>
4.9

>  <VSA_EState3>
3.47

>  <VSA_EState4>
3.28

>  <VSA_EState5>
1.39

>  <VSA_EState6>
15.02

>  <VSA_EState7>
2.35

>  <VSA_EState8>
2.8

>  <VSA_EState9>
0

>  <apol>
48.92

>  <bpol>
24.6

>  <nRing>
4

>  <nHRing>
2

>  <naRing>
3

>  <naHRing>
1

>  <nARing 2>
1

>  <nAHRing 2>
1

>  <nFRing>
1

>  <nFHRing>
1

>  <nFaRing>
1

>  <nFaHRing>
1

>  <nFARing 2>
0

>  <nFAHRing 2>
0

>  <nRot>
3

>  <SLogP>
3.69

>  <SMR>
90.08

>  <TopoPSA(NO)>
29.85

>  <TopoPSA>
29.85

>  <JGI1>
0.13

>  <JGI2>
0.06

>  <JGI3>
0.04

>  <JGI4>
0.04

>  <JGI5>
0.02

>  <Diameter>
11

>  <Radius>
6

>  <TMWC10>
124.27

>  <TSRW10>
71.82

>  <MW>
309.16

>  <AMW>
7.19

>  <WPath>
1155

>  <WPol>
35

>  <Zagreb1>
124

>  <Zagreb2>
147

>  <mZagreb2>
5.03

>  <yes>


>  <nAR-cont>
0.816016

>  <nHA-cont>
0.967789328

>  <MWHBN>
0.227493159

>  <MWHBN-cont>
0.989171963

>  <TPSA-cont>
0.791628464

>  <pka_cont>
0.97

>  <yes.1>


>  <BBB_SCORE>
5.335820201

>  <MMFF94 Energy>
55.553

$$$$
Compound 543
Actelion Java MolfileCreator 2.0

  0  0  0  0  0  0              0 V3000
M  V30 BEGIN CTAB
M  V30 COUNTS 53 55 0 0 0
M  V30 BEGIN ATOM
M  V30 1 Cl -4.6432 -4.563 -1.5992 0
M  V30 2 C -3.7653 -3.3449 -0.758 0
M  V30 3 C -3.5239 -2.1183 -1.3705 0
M  V30 4 C -3.3015 -3.5928 0.5317 0
M  V30 5 C -2.8111 -1.1307 -0.6866 0
M  V30 6 C -2.5878 -2.6051 1.2159 0
M  V30 7 C -2.3268 -1.3614 0.614 0
M  V30 8 C -1.5599 -0.2806 1.3936 0 CFG=1
M  V30 9 N -0.5049 0.4001 0.5842 0
M  V30 10 C -2.5672 0.6879 2.0308 0
M  V30 11 C 0.2377 1.3938 1.3994 0
M  V30 12 C 0.4891 -0.5792 0.0726 0
M  V30 13 C -2.9194 0.5417 3.3838 0
M  V30 14 C -3.1802 1.7122 1.2879 0
M  V30 15 C 1.3787 2.0712 0.6082 0
M  V30 16 C 1.6511 0.0827 -0.7063 0
M  V30 17 C -3.8475 1.4007 3.9763 0
M  V30 18 C -4.1074 2.5699 1.8823 0
M  V30 19 N 2.3635 1.0991 0.095 0
M  V30 20 C -4.4402 2.414 3.2259 0
M  V30 21 C 3.3973 1.8001 -0.6981 0
M  V30 22 C 4.5345 0.896 -1.2081 0
M  V30 23 O 4.1493 0.2677 -2.4334 0
M  V30 24 C 5.1373 -0.6635 -2.8858 0
M  V30 25 C 4.6137 -1.3818 -4.1272 0
M  V30 26 O 3.6425 -2.3598 -3.7559 0
M  V30 27 H -3.8853 -1.922 -2.3759 0
M  V30 28 H -3.4938 -4.5487 1.011 0
M  V30 29 H -2.6223 -0.177 -1.1752 0
M  V30 30 H -2.2388 -2.8113 2.2253 0
M  V30 31 H -1.0367 -0.7891 2.2176 0
M  V30 32 H 0.6559 0.9203 2.2983 0
M  V30 33 H -0.4293 2.1947 1.7353 0
M  V30 34 H 0.0135 -1.2875 -0.6138 0
M  V30 35 H 0.909 -1.1645 0.9025 0
M  V30 36 H -2.4737 -0.2465 3.986 0
M  V30 37 H -2.9258 1.8497 0.2394 0
M  V30 38 H 0.9443 2.6554 -0.2146 0
M  V30 39 H 1.8825 2.7781 1.279 0
M  V30 40 H 1.2552 0.5257 -1.63 0
M  V30 41 H 2.34 -0.7203 -0.9886 0
M  V30 42 H -4.111 1.2765 5.0235 0
M  V30 43 H -4.5699 3.3584 1.2946 0
M  V30 44 H -5.1639 3.0807 3.6873 0
M  V30 45 H 3.8589 2.5512 -0.0447 0
M  V30 46 H 2.9396 2.3292 -1.5439 0
M  V30 47 H 5.4195 1.5126 -1.4043 0
M  V30 48 H 4.7974 0.1446 -0.4538 0
M  V30 49 H 5.3477 -1.3885 -2.0914 0
M  V30 50 H 6.0487 -0.1098 -3.1348 0
M  V30 51 H 4.1413 -0.6737 -4.8156 0
M  V30 52 H 5.4292 -1.9023 -4.6374 0
M  V30 53 H 3.1942 -2.6372 -4.5725 0
M  V30 END ATOM
M  V30 BEGIN BOND
M  V30 1 1 1 2
M  V30 2 2 2 3
M  V30 3 1 2 4
M  V30 4 1 3 5
M  V30 5 2 4 6
M  V30 6 2 5 7
M  V30 7 1 7 8
M  V30 8 1 8 9
M  V30 9 1 8 10
M  V30 10 1 9 11
M  V30 11 1 9 12
M  V30 12 2 10 13
M  V30 13 1 10 14
M  V30 14 1 11 15
M  V30 15 1 12 16
M  V30 16 1 13 17
M  V30 17 2 14 18
M  V30 18 1 15 19
M  V30 19 2 17 20
M  V30 20 1 19 21
M  V30 21 1 21 22
M  V30 22 1 22 23
M  V30 23 1 23 24
M  V30 24 1 24 25
M  V30 25 1 25 26
M  V30 26 1 6 7
M  V30 27 1 16 19
M  V30 28 1 18 20
M  V30 29 1 3 27
M  V30 30 1 4 28
M  V30 31 1 5 29
M  V30 32 1 6 30
M  V30 33 1 8 31
M  V30 34 1 11 32
M  V30 35 1 11 33
M  V30 36 1 12 34
M  V30 37 1 12 35
M  V30 38 1 13 36
M  V30 39 1 14 37
M  V30 40 1 15 38
M  V30 41 1 15 39
M  V30 42 1 16 40
M  V30 43 1 16 41
M  V30 44 1 17 42
M  V30 45 1 18 43
M  V30 46 1 20 44
M  V30 47 1 21 45
M  V30 48 1 21 46
M  V30 49 1 22 47
M  V30 50 1 22 48
M  V30 51 1 24 49
M  V30 52 1 24 50
M  V30 53 1 25 51
M  V30 54 1 25 52
M  V30 55 1 26 53
M  V30 END BOND
M  V30 BEGIN COLLECTION
M  V30 MDLV30/STEABS ATOMS=(1 8)
M  V30 END COLLECTION
M  V30 END CTAB
M  END
>  <Column 1>
664

>  <level_0>
758

>  <index>
758

>  <Unnamed: 0>
758

>  <NO.>
770

>  <Name>
(s)-hydroxyzine

>  <IUPAC_name>
2-[2-[4-[(s)-(4-chlorophenyl)-phenylmethyl]piperazin-1-yl]ethoxy]ethanol

>  <SMILES>
OCCOCCN1CCN([C@@H](c2ccccc2)c2ccc(Cl)cc2)CC1

>  <CID>
1548976

>  <logBB>
0.39

>  <BBB+/BBB->
BBB+

>  <Inchi>
InChI=1S/C21H27ClN2O2/c22-20-8-6-19(7-9-20)21(18-4-2-1-3-5-18)24-12-10-23(11-13-24)14-16-26-17-15-25/h1-9-21-25H-10-17H2/t21-/m0/s1

>  <threshold>


>  <reference>
R48|

>  <group>
A

>  <Class>
1

>  <ABC>
19.79

>  <ABCGG>
15

>  <nAcid>
0

>  <nBase>
2

>  <nAromAtom>
12

>  <nAromBond>
12

>  <nAtom>
53

>  <nHeavyAtom>
26

>  <nSpiro>
0

>  <nBridgehead>
0

>  <nHetero>
5

>  <nN>
2

>  <nO>
2

>  <nF>
0

>  <BalabanJ>
1.52

>  <BertzCT>
642.82

>  <nBonds>
55

>  <nBondsO>
28

>  <nBondsS>
43

>  <nBondsD>
0

>  <nBondsT>
0

>  <nBondsA>
12

>  <nBondsM>
12

>  <nBondsKS>
49

>  <nBondsKD>
6

>  <RNCG>
0.2

>  <RPCG>
0.11

>  <FCSP3>
0.43

>  <SZ>
33.33

>  <Sm>
31.21

>  <Sv>
32.35

>  <Sse>
52.74

>  <Sp>
35.36

>  <Si>
59.76

>  <MZ>
0.63

>  <Mm>
0.59

>  <Mv>
0.61

>  <Mse>
1

>  <Mp>
0.67

>  <Mi>
1.13

>  <NsCH3>
0

>  <NdCH2>
0

>  <NssCH2>
8

>  <NtCH>
0

>  <NdsCH>
0

>  <NaaCH>
9

>  <NsssCH>
1

>  <NddC>
0

>  <NtsC>
0

>  <NdssC>
0

>  <NaasC>
3

>  <NaaaC>
0

>  <NssssC>
0

>  <NsNH3>
0

>  <NsNH2>
0

>  <NssNH2>
0

>  <NdNH>
0

>  <NssNH>
0

>  <NaaNH>
0

>  <NtN>
0

>  <NsssNH>
0

>  <NdsN>
0

>  <NaaN>
0

>  <NsssN>
2

>  <NddsN>
0

>  <NaasN>
0

>  <NssssN>
0

>  <NsOH>
1

>  <NdO>
0

>  <NssO>
1

>  <NaaO>
0

>  <NsF>
0

>  <NsSiH3>
0

>  <NssSiH2>
0

>  <NsssSiH>
0

>  <NssssSi>
0

>  <NsPH2>
0

>  <NssPH>
0

>  <NsssP>
0

>  <NdsssP>
0

>  <NsssssP>
0

>  <NsSH>
0

>  <NdS>
0

>  <NssS>
0

>  <NaaS>
0

>  <NdssS>
0

>  <NddssS>
0

>  <NsCl>
1

>  <NsBr>
0

>  <NsI>
0

>  <fragCpx>
134.05

>  <fMF>
0.36

>  <nHBAcc>
4

>  <nHBDon>
1

>  <Kier1>
20.73

>  <Kier2>
11.11

>  <Lipinski>
1

>  <GhoseFilter>
1

>  <FilterItLogS>
-4.73

>  <VMcGowan>
292.31

>  <LabuteASA>
160.5

>  <PEOE_VSA1>
9.84

>  <PEOE_VSA2>
9.8

>  <PEOE_VSA3>
0

>  <PEOE_VSA4>
0

>  <PEOE_VSA5>
0

>  <PEOE_VSA6>
54.07

>  <PEOE_VSA7>
23.26

>  <PEOE_VSA8>
37.75

>  <PEOE_VSA9>
25.86

>  <PEOE_VSA10>
0

>  <PEOE_VSA11>
0

>  <PEOE_VSA12>
0

>  <PEOE_VSA13>
0

>  <SMR_VSA1>
9.84

>  <SMR_VSA2>
0

>  <SMR_VSA3>
9.8

>  <SMR_VSA4>
0

>  <SMR_VSA5>
6.04

>  <SMR_VSA6>
52.54

>  <SMR_VSA7>
70.75

>  <SMR_VSA8>
0

>  <SMR_VSA9>
0

>  <SlogP_VSA1>
0

>  <SlogP_VSA2>
67.45

>  <SlogP_VSA3>
4.74

>  <SlogP_VSA4>
0

>  <SlogP_VSA5>
17.17

>  <SlogP_VSA6>
54.6

>  <SlogP_VSA7>
5.02

>  <SlogP_VSA8>
0

>  <SlogP_VSA9>
0

>  <SlogP_VSA10>
0

>  <SlogP_VSA11>
0

>  <EState_VSA1>
0

>  <EState_VSA2>
12.65

>  <EState_VSA3>
13.21

>  <EState_VSA4>
37.75

>  <EState_VSA5>
11.13

>  <EState_VSA6>
0

>  <EState_VSA7>
12.13

>  <EState_VSA8>
52.26

>  <EState_VSA9>
21.44

>  <EState_VSA10>
0

>  <VSA_EState1>
5.39

>  <VSA_EState2>
4.97

>  <VSA_EState3>
9.55

>  <VSA_EState4>
2.59

>  <VSA_EState5>
0

>  <VSA_EState6>
19.14

>  <VSA_EState7>
0

>  <VSA_EState8>
6.2

>  <VSA_EState9>
0

>  <apol>
59.06

>  <bpol>
32.75

>  <nRing>
3

>  <nHRing>
1

>  <naRing>
2

>  <naHRing>
0

>  <nARing 2>
1

>  <nAHRing 2>
1

>  <nFRing>
0

>  <nFHRing>
0

>  <nFaRing>
0

>  <nFaHRing>
0

>  <nFARing 2>
0

>  <nFAHRing 2>
0

>  <nRot>
8

>  <SLogP>
3.06

>  <SMR>
105.65

>  <TopoPSA(NO)>
35.94

>  <TopoPSA>
35.94

>  <JGI1>
0.13

>  <JGI2>
0.06

>  <JGI3>
0.04

>  <JGI4>
0.03

>  <JGI5>
0.01

>  <Diameter>
15

>  <Radius>
8

>  <TMWC10>
128.27

>  <TSRW10>
60.41

>  <MW>
374.18

>  <AMW>
7.06

>  <WPath>
1831

>  <WPol>
37

>  <Zagreb1>
128

>  <Zagreb2>
146

>  <mZagreb2>
6

>  <yes>


>  <nAR-cont>
0.816016

>  <nHA-cont>
0.892715677

>  <MWHBN>
0.258481651

>  <MWHBN-cont>
0.944399988

>  <TPSA-cont>
0.749116483

>  <pka_cont>
0.97

>  <yes.1>


>  <BBB_SCORE>
5.108564625

>  <MMFF94 Energy>
157.07

$$$$
Compound 544
Actelion Java MolfileCreator 2.0

  0  0  0  0  0  0              0 V3000
M  V30 BEGIN CTAB
M  V30 COUNTS 8 7 0 0 0
M  V30 BEGIN ATOM
M  V30 1 Cl 0.454 -0.2723 2.0895 0
M  V30 2 C -0.2043 -0.519 0.4485 0
M  V30 3 Cl -1.988 -0.5261 0.526 0
M  V30 4 Cl 0.3625 -2.0901 -0.1817 0
M  V30 5 C 0.2658 0.6025 -0.4678 0
M  V30 6 H -0.1231 0.4786 -1.4854 0
M  V30 7 H 1.3597 0.6328 -0.5359 0
M  V30 8 H -0.0676 1.5825 -0.1061 0
M  V30 END ATOM
M  V30 BEGIN BOND
M  V30 1 1 1 2
M  V30 2 1 2 3
M  V30 3 1 2 4
M  V30 4 1 2 5
M  V30 5 1 5 6
M  V30 6 1 5 7
M  V30 7 1 5 8
M  V30 END BOND
M  V30 END CTAB
M  END
>  <Column 1>
665

>  <level_0>
759

>  <index>
759

>  <Unnamed: 0>
759

>  <NO.>
771

>  <Name>
methylchloroform

>  <IUPAC_name>
1-1-1-trichloroethane

>  <SMILES>
CC(Cl)(Cl)Cl

>  <CID>
6278

>  <logBB>
0.4

>  <BBB+/BBB->
BBB+

>  <Inchi>
InChI=1S/C2H3Cl3/c1-2(3-4)5/h1H3

>  <threshold>


>  <reference>
R36|R8|R21|R27|R41|R3|R38|R47|R2|R2|R27|R40|R11|R5|R11|R12|R17|R18|R22|R25|R26|R27|R32|R39|R43|R44|R46|R48|R49|

>  <group>
A

>  <Class>
1

>  <ABC>
3.46

>  <ABCGG>
3.46

>  <nAcid>
0

>  <nBase>
0

>  <nAromAtom>
0

>  <nAromBond>
0

>  <nAtom>
8

>  <nHeavyAtom>
5

>  <nSpiro>
0

>  <nBridgehead>
0

>  <nHetero>
3

>  <nN>
0

>  <nO>
0

>  <nF>
0

>  <BalabanJ>
3.02

>  <BertzCT>
20.36

>  <nBonds>
7

>  <nBondsO>
4

>  <nBondsS>
7

>  <nBondsD>
0

>  <nBondsT>
0

>  <nBondsA>
0

>  <nBondsM>
0

>  <nBondsKS>
7

>  <nBondsKD>
0

>  <RNCG>
0.31

>  <RPCG>
0.7

>  <FCSP3>
1

>  <SZ>
11

>  <Sm>
11.11

>  <Sv>
6.09

>  <Sse>
8.63

>  <Sp>
7.11

>  <Si>
9.08

>  <MZ>
1.38

>  <Mm>
1.39

>  <Mv>
0.76

>  <Mse>
1.08

>  <Mp>
0.89

>  <Mi>
1.13

>  <NsCH3>
1

>  <NdCH2>
0

>  <NssCH2>
0

>  <NtCH>
0

>  <NdsCH>
0

>  <NaaCH>
0

>  <NsssCH>
0

>  <NddC>
0

>  <NtsC>
0

>  <NdssC>
0

>  <NaasC>
0

>  <NaaaC>
0

>  <NssssC>
1

>  <NsNH3>
0

>  <NsNH2>
0

>  <NssNH2>
0

>  <NdNH>
0

>  <NssNH>
0

>  <NaaNH>
0

>  <NtN>
0

>  <NsssNH>
0

>  <NdsN>
0

>  <NaaN>
0

>  <NsssN>
0

>  <NddsN>
0

>  <NaasN>
0

>  <NssssN>
0

>  <NsOH>
0

>  <NdO>
0

>  <NssO>
0

>  <NaaO>
0

>  <NsF>
0

>  <NsSiH3>
0

>  <NssSiH2>
0

>  <NsssSiH>
0

>  <NssssSi>
0

>  <NsPH2>
0

>  <NssPH>
0

>  <NsssP>
0

>  <NdsssP>
0

>  <NsssssP>
0

>  <NsSH>
0

>  <NdS>
0

>  <NssS>
0

>  <NaaS>
0

>  <NdssS>
0

>  <NddssS>
0

>  <NsCl>
3

>  <NsBr>
0

>  <NsI>
0

>  <fragCpx>
4.03

>  <fMF>
0

>  <nHBAcc>
0

>  <nHBDon>
0

>  <Kier1>
5

>  <Kier2>
1

>  <Lipinski>
1

>  <GhoseFilter>
0

>  <FilterItLogS>
-2.13

>  <VMcGowan>
75.76

>  <LabuteASA>
46.01

>  <PEOE_VSA1>
0

>  <PEOE_VSA2>
0

>  <PEOE_VSA3>
0

>  <PEOE_VSA4>
0

>  <PEOE_VSA5>
0

>  <PEOE_VSA6>
34.8

>  <PEOE_VSA7>
6.92

>  <PEOE_VSA8>
0

>  <PEOE_VSA9>
0

>  <PEOE_VSA10>
0

>  <PEOE_VSA11>
3.79

>  <PEOE_VSA12>
0

>  <PEOE_VSA13>
0

>  <SMR_VSA1>
0

>  <SMR_VSA2>
0

>  <SMR_VSA3>
0

>  <SMR_VSA4>
0

>  <SMR_VSA5>
10.72

>  <SMR_VSA6>
0

>  <SMR_VSA7>
0

>  <SMR_VSA8>
0

>  <SMR_VSA9>
0

>  <SlogP_VSA1>
0

>  <SlogP_VSA2>
3.79

>  <SlogP_VSA3>
0

>  <SlogP_VSA4>
0

>  <SlogP_VSA5>
6.92

>  <SlogP_VSA6>
0

>  <SlogP_VSA7>
0

>  <SlogP_VSA8>
0

>  <SlogP_VSA9>
0

>  <SlogP_VSA10>
0

>  <SlogP_VSA11>
0

>  <EState_VSA1>
3.79

>  <EState_VSA2>
0

>  <EState_VSA3>
0

>  <EState_VSA4>
0

>  <EState_VSA5>
6.92

>  <EState_VSA6>
0

>  <EState_VSA7>
0

>  <EState_VSA8>
0

>  <EState_VSA9>
34.8

>  <EState_VSA10>
0

>  <VSA_EState1>
-1.08

>  <VSA_EState2>
0

>  <VSA_EState3>
0

>  <VSA_EState4>
0

>  <VSA_EState5>
0

>  <VSA_EState6>
0

>  <VSA_EState7>
0

>  <VSA_EState8>
1.48

>  <VSA_EState9>
0

>  <apol>
11.88

>  <bpol>
4.54

>  <nRing>
0

>  <nHRing>
0

>  <naRing>
0

>  <naHRing>
0

>  <nARing 2>
0

>  <nAHRing 2>
0

>  <nFRing>
0

>  <nFHRing>
0

>  <nFaRing>
0

>  <nFaHRing>
0

>  <nFARing 2>
0

>  <nFAHRing 2>
0

>  <nRot>
0

>  <SLogP>
2.38

>  <SMR>
25.96

>  <TopoPSA(NO)>
0

>  <TopoPSA>
0

>  <JGI1>
0.75

>  <JGI2>
0

>  <JGI3>
0

>  <JGI4>
0

>  <JGI5>
0

>  <Diameter>
2

>  <Radius>
1

>  <TMWC10>
60.13

>  <TSRW10>
29.42

>  <MW>
131.93

>  <AMW>
16.49

>  <WPath>
16

>  <WPol>
0

>  <Zagreb1>
20

>  <Zagreb2>
16

>  <mZagreb2>
1

>  <yes>


>  <nAR-cont>
0.336376

>  <nHA-cont>
0

>  <MWHBN>
0

>  <MWHBN-cont>
0

>  <TPSA-cont>
0

>  <pka_cont>
0.97

>  <yes.1>


>  <BBB_SCORE>
0.821376

>  <MMFF94 Energy>
3.0703

$$$$
Compound 545
Actelion Java MolfileCreator 2.0

  0  0  0  0  0  0              0 V3000
M  V30 BEGIN CTAB
M  V30 COUNTS 31 33 0 0 0
M  V30 BEGIN ATOM
M  V30 1 Cl 1.0565 -4.3127 -1.0565 0
M  V30 2 C -0.0278 -3.0708 -0.5665 0
M  V30 3 C 0.3376 -1.7333 -0.713 0
M  V30 4 C -1.26 -3.4079 -0.0197 0
M  V30 5 C -0.5309 -0.6987 -0.3119 0
M  V30 6 C -2.1418 -2.3984 0.3657 0
M  V30 7 N -0.0777 0.6576 -0.4004 0
M  V30 8 C -1.7974 -1.0486 0.2018 0
M  V30 9 C -0.8489 1.7243 -0.8671 0
M  V30 10 C 1.2494 0.9052 0.0632 0
M  V30 11 N -2.7712 -0.1153 0.585 0
M  V30 12 O -0.4378 2.8825 -0.9754 0
M  V30 13 C -2.2573 1.4001 -1.2665 0
M  V30 14 C 2.1982 1.4884 -0.7857 0
M  V30 15 C 1.6183 0.5582 1.371 0
M  V30 16 C -3.075 1.0498 -0.0623 0
M  V30 17 C 3.5013 1.7108 -0.3367 0
M  V30 18 C 2.9226 0.7813 1.8162 0
M  V30 19 O -4.0193 1.736 0.3237 0
M  V30 20 C 3.8632 1.3548 0.9618 0
M  V30 21 H 1.3128 -1.5001 -1.136 0
M  V30 22 H -1.5442 -4.4505 0.1009 0
M  V30 23 H -3.1112 -2.6783 0.7737 0
M  V30 24 H -3.4114 -0.3479 1.3363 0
M  V30 25 H -2.7004 2.2815 -1.7445 0
M  V30 26 H -2.2803 0.5931 -2.0057 0
M  V30 27 H 1.9279 1.7799 -1.7976 0
M  V30 28 H 0.8934 0.1235 2.0541 0
M  V30 29 H 4.2312 2.1698 -0.9987 0
M  V30 30 H 3.2033 0.5143 2.8319 0
M  V30 31 H 4.8771 1.5339 1.311 0
M  V30 END ATOM
M  V30 BEGIN BOND
M  V30 1 1 1 2
M  V30 2 2 2 3
M  V30 3 1 2 4
M  V30 4 1 3 5
M  V30 5 2 4 6
M  V30 6 1 5 7
M  V30 7 2 5 8
M  V30 8 1 7 9
M  V30 9 1 7 10
M  V30 10 1 8 11
M  V30 11 2 9 12
M  V30 12 1 9 13
M  V30 13 2 10 14
M  V30 14 1 10 15
M  V30 15 1 11 16
M  V30 16 1 14 17
M  V30 17 2 15 18
M  V30 18 2 16 19
M  V30 19 2 17 20
M  V30 20 1 6 8
M  V30 21 1 13 16
M  V30 22 1 18 20
M  V30 23 1 3 21
M  V30 24 1 4 22
M  V30 25 1 6 23
M  V30 26 1 11 24
M  V30 27 1 13 25
M  V30 28 1 13 26
M  V30 29 1 14 27
M  V30 30 1 15 28
M  V30 31 1 17 29
M  V30 32 1 18 30
M  V30 33 1 20 31
M  V30 END BOND
M  V30 END CTAB
M  END
>  <Column 1>
666

>  <level_0>
760

>  <index>
760

>  <Unnamed: 0>
760

>  <NO.>
772

>  <Name>
desmethylclobazam;          norclobazam; nordiazepam

>  <IUPAC_name>
7-chloro-5-phenyl-1h-1-5-benzodiazepine-2-4-dione

>  <SMILES>
O=C1CC(=O)N(c2ccccc2)c2cc(Cl)ccc2N1

>  <CID>
89657

>  <logBB>
0.4

>  <BBB+/BBB->
BBB+

>  <Inchi>
InChI=1S/C15H11ClN2O2/c16-10-6-7-12-13(8-10)18(11-4-2-1-3-5-11)15(20)9-14(19)17-12/h1-8H-9H2-(H-17-19)

>  <threshold>


>  <reference>
R5|R12|R40|R8|R21|R27|R43|R2|R2|R27|R3|R4|R11|R12|R25|R35|R36|R38|R39|R41|R46|R47|R5|

>  <group>
A

>  <Class>
1

>  <ABC>
15.72

>  <ABCGG>
13.02

>  <nAcid>
0

>  <nBase>
0

>  <nAromAtom>
12

>  <nAromBond>
12

>  <nAtom>
31

>  <nHeavyAtom>
20

>  <nSpiro>
0

>  <nBridgehead>
0

>  <nHetero>
5

>  <nN>
2

>  <nO>
2

>  <nF>
0

>  <BalabanJ>
1.81

>  <BertzCT>
685.53

>  <nBonds>
33

>  <nBondsO>
22

>  <nBondsS>
19

>  <nBondsD>
2

>  <nBondsT>
0

>  <nBondsA>
12

>  <nBondsM>
14

>  <nBondsKS>
25

>  <nBondsKD>
8

>  <RNCG>
0.2

>  <RPCG>
0.15

>  <FCSP3>
0.07

>  <SZ>
24.67

>  <Sm>
23.87

>  <Sv>
22.02

>  <Sse>
31.64

>  <Sp>
22.98

>  <Si>
34.44

>  <MZ>
0.8

>  <Mm>
0.77

>  <Mv>
0.71

>  <Mse>
1.02

>  <Mp>
0.74

>  <Mi>
1.11

>  <NsCH3>
0

>  <NdCH2>
0

>  <NssCH2>
1

>  <NtCH>
0

>  <NdsCH>
0

>  <NaaCH>
8

>  <NsssCH>
0

>  <NddC>
0

>  <NtsC>
0

>  <NdssC>
2

>  <NaasC>
4

>  <NaaaC>
0

>  <NssssC>
0

>  <NsNH3>
0

>  <NsNH2>
0

>  <NssNH2>
0

>  <NdNH>
0

>  <NssNH>
1

>  <NaaNH>
0

>  <NtN>
0

>  <NsssNH>
0

>  <NdsN>
0

>  <NaaN>
0

>  <NsssN>
1

>  <NddsN>
0

>  <NaasN>
0

>  <NssssN>
0

>  <NsOH>
0

>  <NdO>
2

>  <NssO>
0

>  <NaaO>
0

>  <NsF>
0

>  <NsSiH3>
0

>  <NssSiH2>
0

>  <NsssSiH>
0

>  <NssssSi>
0

>  <NsPH2>
0

>  <NssPH>
0

>  <NsssP>
0

>  <NdsssP>
0

>  <NsssssP>
0

>  <NsSH>
0

>  <NdS>
0

>  <NssS>
0

>  <NaaS>
0

>  <NdssS>
0

>  <NddssS>
0

>  <NsCl>
1

>  <NsBr>
0

>  <NsI>
0

>  <fragCpx>
104.05

>  <fMF>
0.55

>  <nHBAcc>
2

>  <nHBDon>
1

>  <Kier1>
14.92

>  <Kier2>
6.41

>  <Lipinski>
1

>  <GhoseFilter>
1

>  <FilterItLogS>
-4.31

>  <VMcGowan>
199.17

>  <LabuteASA>
120.51

>  <PEOE_VSA1>
5.32

>  <PEOE_VSA2>
14.49

>  <PEOE_VSA3>
0

>  <PEOE_VSA4>
0

>  <PEOE_VSA5>
0

>  <PEOE_VSA6>
29.8

>  <PEOE_VSA7>
30.33

>  <PEOE_VSA8>
10.71

>  <PEOE_VSA9>
11.37

>  <PEOE_VSA10>
6.42

>  <PEOE_VSA11>
0

>  <PEOE_VSA12>
11.81

>  <PEOE_VSA13>
0

>  <SMR_VSA1>
9.59

>  <SMR_VSA2>
0

>  <SMR_VSA3>
0

>  <SMR_VSA4>
0

>  <SMR_VSA5>
6.42

>  <SMR_VSA6>
10.22

>  <SMR_VSA7>
53.55

>  <SMR_VSA8>
0

>  <SMR_VSA9>
0

>  <SlogP_VSA1>
10.22

>  <SlogP_VSA2>
11.81

>  <SlogP_VSA3>
9.59

>  <SlogP_VSA4>
0

>  <SlogP_VSA5>
6.42

>  <SlogP_VSA6>
48.53

>  <SlogP_VSA7>
5.02

>  <SlogP_VSA8>
0

>  <SlogP_VSA9>
0

>  <SlogP_VSA10>
17.06

>  <SlogP_VSA11>
0

>  <EState_VSA1>
0

>  <EState_VSA2>
18.24

>  <EState_VSA3>
22.08

>  <EState_VSA4>
0

>  <EState_VSA5>
4.9

>  <EState_VSA6>
18.2

>  <EState_VSA7>
30.33

>  <EState_VSA8>
5.32

>  <EState_VSA9>
11.6

>  <EState_VSA10>
9.59

>  <VSA_EState1>
0

>  <VSA_EState2>
25.56

>  <VSA_EState3>
3.23

>  <VSA_EState4>
1.87

>  <VSA_EState5>
-0.6

>  <VSA_EState6>
14.24

>  <VSA_EState7>
-0.19

>  <VSA_EState8>
0

>  <VSA_EState9>
0

>  <apol>
38.37

>  <bpol>
15.56

>  <nRing>
3

>  <nHRing>
1

>  <naRing>
2

>  <naHRing>
0

>  <nARing 2>
1

>  <nAHRing 2>
1

>  <nFRing>
1

>  <nFHRing>
1

>  <nFaRing>
0

>  <nFaHRing>
0

>  <nFARing 2>
1

>  <nFAHRing 2>
1

>  <nRot>
1

>  <SLogP>
3.35

>  <SMR>
78.29

>  <TopoPSA(NO)>
49.41

>  <TopoPSA>
49.41

>  <JGI1>
0.18

>  <JGI2>
0.06

>  <JGI3>
0.05

>  <JGI4>
0.04

>  <JGI5>
0.02

>  <Diameter>
8

>  <Radius>
4

>  <TMWC10>
115.83

>  <TSRW10>
61.85

>  <MW>
286.05

>  <AMW>
9.23

>  <WPath>
719

>  <WPol>
35

>  <Zagreb1>
106

>  <Zagreb2>
125

>  <mZagreb2>
4.36

>  <yes>


>  <nAR-cont>
0.816016

>  <nHA-cont>
0.999629945

>  <MWHBN>
0.177378214

>  <MWHBN-cont>
0.984169154

>  <TPSA-cont>
0.655087518

>  <pka_cont>
0.97

>  <yes.1>


>  <BBB_SCORE>
5.087074712

>  <MMFF94 Energy>
29.694

$$$$
Compound 546
Actelion Java MolfileCreator 2.0

  0  0  0  0  0  0              0 V3000
M  V30 BEGIN CTAB
M  V30 COUNTS 12 12 0 0 0
M  V30 BEGIN ATOM
M  V30 1 C 0.7757 0.6205 1.0085 0
M  V30 2 C -0.399 1.2352 0.5753 0
M  V30 3 C 1.166 -0.6016 0.4613 0
M  V30 4 C -1.1834 0.6277 -0.405 0
M  V30 5 C 0.3816 -1.2091 -0.5189 0
M  V30 6 C -0.7931 -0.5944 -0.9521 0
M  V30 7 H 1.3867 1.0939 1.7724 0
M  V30 8 H -0.7033 2.1874 1.0016 0
M  V30 9 H 2.0813 -1.0804 0.7989 0
M  V30 10 H -2.0988 1.1066 -0.7425 0
M  V30 11 H 0.6858 -2.1612 -0.9452 0
M  V30 12 H -1.4042 -1.0677 -1.7159 0
M  V30 END ATOM
M  V30 BEGIN BOND
M  V30 1 2 1 2
M  V30 2 1 1 3
M  V30 3 1 2 4
M  V30 4 2 3 5
M  V30 5 2 4 6
M  V30 6 1 5 6
M  V30 7 1 1 7
M  V30 8 1 2 8
M  V30 9 1 3 9
M  V30 10 1 4 10
M  V30 11 1 5 11
M  V30 12 1 6 12
M  V30 END BOND
M  V30 END CTAB
M  END
>  <Column 1>
667

>  <level_0>
762

>  <index>
762

>  <Unnamed: 0>
762

>  <NO.>
774

>  <Name>
benzene

>  <IUPAC_name>
benzene

>  <SMILES>
c1ccccc1

>  <CID>
241

>  <logBB>
0.4

>  <BBB+/BBB->
BBB+

>  <Inchi>
InChI=1S/C6H6/c1-2-4-6-5-3-1/h1-6H

>  <threshold>


>  <reference>
R3|R38|R41|R47|R40|R8|R21|R27|R2|R2|R27|R11|R12|R17|R18|R22|R25|R26|R27|R32|R33|R35|R36|R39|R43|R44|R46|R48|R49|

>  <group>
A

>  <Class>
1

>  <ABC>
4.24

>  <ABCGG>
4

>  <nAcid>
0

>  <nBase>
0

>  <nAromAtom>
6

>  <nAromBond>
6

>  <nAtom>
12

>  <nHeavyAtom>
6

>  <nSpiro>
0

>  <nBridgehead>
0

>  <nHetero>
0

>  <nN>
0

>  <nO>
0

>  <nF>
0

>  <BalabanJ>
2

>  <BertzCT>
71.96

>  <nBonds>
12

>  <nBondsO>
6

>  <nBondsS>
6

>  <nBondsD>
0

>  <nBondsT>
0

>  <nBondsA>
6

>  <nBondsM>
6

>  <nBondsKS>
9

>  <nBondsKD>
3

>  <RNCG>
0.17

>  <RPCG>
0.17

>  <FCSP3>
0

>  <SZ>
7

>  <Sm>
6.5

>  <Sv>
7.63

>  <Sse>
11.66

>  <Sp>
8.4

>  <Si>
13.25

>  <MZ>
0.58

>  <Mm>
0.54

>  <Mv>
0.64

>  <Mse>
0.97

>  <Mp>
0.7

>  <Mi>
1.1

>  <NsCH3>
0

>  <NdCH2>
0

>  <NssCH2>
0

>  <NtCH>
0

>  <NdsCH>
0

>  <NaaCH>
6

>  <NsssCH>
0

>  <NddC>
0

>  <NtsC>
0

>  <NdssC>
0

>  <NaasC>
0

>  <NaaaC>
0

>  <NssssC>
0

>  <NsNH3>
0

>  <NsNH2>
0

>  <NssNH2>
0

>  <NdNH>
0

>  <NssNH>
0

>  <NaaNH>
0

>  <NtN>
0

>  <NsssNH>
0

>  <NdsN>
0

>  <NaaN>
0

>  <NsssN>
0

>  <NddsN>
0

>  <NaasN>
0

>  <NssssN>
0

>  <NsOH>
0

>  <NdO>
0

>  <NssO>
0

>  <NaaO>
0

>  <NsF>
0

>  <NsSiH3>
0

>  <NssSiH2>
0

>  <NsssSiH>
0

>  <NssssSi>
0

>  <NsPH2>
0

>  <NssPH>
0

>  <NsssP>
0

>  <NdsssP>
0

>  <NsssssP>
0

>  <NsSH>
0

>  <NdS>
0

>  <NssS>
0

>  <NaaS>
0

>  <NdssS>
0

>  <NddssS>
0

>  <NsCl>
0

>  <NsBr>
0

>  <NsI>
0

>  <fragCpx>
6

>  <fMF>
0.5

>  <nHBAcc>
0

>  <nHBDon>
0

>  <Kier1>
4.17

>  <Kier2>
2.22

>  <Lipinski>
1

>  <GhoseFilter>
0

>  <FilterItLogS>
-1.36

>  <VMcGowan>
71.64

>  <LabuteASA>
37.43

>  <PEOE_VSA1>
0

>  <PEOE_VSA2>
0

>  <PEOE_VSA3>
0

>  <PEOE_VSA4>
0

>  <PEOE_VSA5>
0

>  <PEOE_VSA6>
36.4

>  <PEOE_VSA7>
0

>  <PEOE_VSA8>
0

>  <PEOE_VSA9>
0

>  <PEOE_VSA10>
0

>  <PEOE_VSA11>
0

>  <PEOE_VSA12>
0

>  <PEOE_VSA13>
0

>  <SMR_VSA1>
0

>  <SMR_VSA2>
0

>  <SMR_VSA3>
0

>  <SMR_VSA4>
0

>  <SMR_VSA5>
0

>  <SMR_VSA6>
0

>  <SMR_VSA7>
36.4

>  <SMR_VSA8>
0

>  <SMR_VSA9>
0

>  <SlogP_VSA1>
0

>  <SlogP_VSA2>
0

>  <SlogP_VSA3>
0

>  <SlogP_VSA4>
0

>  <SlogP_VSA5>
0

>  <SlogP_VSA6>
36.4

>  <SlogP_VSA7>
0

>  <SlogP_VSA8>
0

>  <SlogP_VSA9>
0

>  <SlogP_VSA10>
0

>  <SlogP_VSA11>
0

>  <EState_VSA1>
0

>  <EState_VSA2>
0

>  <EState_VSA3>
0

>  <EState_VSA4>
0

>  <EState_VSA5>
0

>  <EState_VSA6>
0

>  <EState_VSA7>
36.4

>  <EState_VSA8>
0

>  <EState_VSA9>
0

>  <EState_VSA10>
0

>  <VSA_EState1>
0

>  <VSA_EState2>
0

>  <VSA_EState3>
0

>  <VSA_EState4>
0

>  <VSA_EState5>
0

>  <VSA_EState6>
12

>  <VSA_EState7>
0

>  <VSA_EState8>
0

>  <VSA_EState9>
0

>  <apol>
14.02

>  <bpol>
6.02

>  <nRing>
1

>  <nHRing>
0

>  <naRing>
1

>  <naHRing>
0

>  <nARing 2>
0

>  <nAHRing 2>
0

>  <nFRing>
0

>  <nFHRing>
0

>  <nFaRing>
0

>  <nFaHRing>
0

>  <nFARing 2>
0

>  <nFAHRing 2>
0

>  <nRot>
0

>  <SLogP>
1.69

>  <SMR>
26.44

>  <TopoPSA(NO)>
0

>  <TopoPSA>
0

>  <JGI1>
0

>  <JGI2>
0

>  <JGI3>
0

>  <JGI4>
0

>  <JGI5>
0

>  <Diameter>
3

>  <Radius>
3

>  <TMWC10>
65.64

>  <TSRW10>
30.94

>  <MW>
78.05

>  <AMW>
6.5

>  <WPath>
27

>  <WPol>
3

>  <Zagreb1>
24

>  <Zagreb2>
24

>  <mZagreb2>
1.5

>  <yes>


>  <nAR-cont>
0.336376

>  <nHA-cont>
0.238778273

>  <MWHBN>
0

>  <MWHBN-cont>
0

>  <TPSA-cont>
0

>  <pka_cont>
0.97

>  <yes.1>


>  <BBB_SCORE>
1.060154273

>  <MMFF94 Energy>
16.227

$$$$
Compound 547
Actelion Java MolfileCreator 2.0

  0  0  0  0  0  0              0 V3000
M  V30 BEGIN CTAB
M  V30 COUNTS 15 15 0 0 0
M  V30 BEGIN ATOM
M  V30 1 C -0.465 -0.2325 0.465 0
M  V30 2 C 0.8183 -0.7915 0.4293 0
M  V30 3 C -0.7816 0.802 -0.424 0
M  V30 4 C -1.5044 -0.7752 1.4002 0
M  V30 5 C 1.7759 -0.3069 -0.4631 0
M  V30 6 C 0.1768 1.2857 -1.3161 0
M  V30 7 C 1.4558 0.7328 -1.334 0
M  V30 8 H 1.08 -1.6082 1.098 0
M  V30 9 H -1.7778 1.2382 -0.4263 0
M  V30 10 H -2.2122 0.007 1.6941 0
M  V30 11 H -1.0437 -1.1567 2.3174 0
M  V30 12 H -2.0554 -1.5874 0.9164 0
M  V30 13 H 2.771 -0.7431 -0.4804 0
M  V30 14 H -0.0758 2.0923 -1.999 0
M  V30 15 H 2.2013 1.109 -2.0292 0
M  V30 END ATOM
M  V30 BEGIN BOND
M  V30 1 2 1 2
M  V30 2 1 1 3
M  V30 3 1 1 4
M  V30 4 1 2 5
M  V30 5 2 3 6
M  V30 6 2 5 7
M  V30 7 1 6 7
M  V30 8 1 2 8
M  V30 9 1 3 9
M  V30 10 1 4 10
M  V30 11 1 4 11
M  V30 12 1 4 12
M  V30 13 1 5 13
M  V30 14 1 6 14
M  V30 15 1 7 15
M  V30 END BOND
M  V30 END CTAB
M  END
>  <Column 1>
668

>  <level_0>
763

>  <index>
763

>  <Unnamed: 0>
763

>  <NO.>
775

>  <Name>
toluene

>  <IUPAC_name>
toluene

>  <SMILES>
Cc1ccccc1

>  <CID>
1140

>  <logBB>
0.4

>  <BBB+/BBB->
BBB+

>  <Inchi>
InChI=1S/C7H8/c1-7-5-3-2-4-6-7/h2-6H-1H3

>  <threshold>


>  <reference>
R47|R3|R38|R41|R40|R21|R27|R8|R2|R2|R27|R11|R12|R17|R20|R22|R25|R32|R33|R35|R36|R39|R43|R44|R46|R48|R49|R5|

>  <group>
A

>  <Class>
1

>  <ABC>
5.06

>  <ABCGG>
4.79

>  <nAcid>
0

>  <nBase>
0

>  <nAromAtom>
6

>  <nAromBond>
6

>  <nAtom>
15

>  <nHeavyAtom>
7

>  <nSpiro>
0

>  <nBridgehead>
0

>  <nHetero>
0

>  <nN>
0

>  <nO>
0

>  <nF>
0

>  <BalabanJ>
2.12

>  <BertzCT>
129.97

>  <nBonds>
15

>  <nBondsO>
7

>  <nBondsS>
9

>  <nBondsD>
0

>  <nBondsT>
0

>  <nBondsA>
6

>  <nBondsM>
6

>  <nBondsKS>
12

>  <nBondsKD>
3

>  <RNCG>
0.16

>  <RPCG>
0.16

>  <FCSP3>
0.14

>  <SZ>
8.33

>  <Sm>
7.67

>  <Sv>
9.17

>  <Sse>
14.55

>  <Sp>
10.19

>  <Si>
16.66

>  <MZ>
0.56

>  <Mm>
0.51

>  <Mv>
0.61

>  <Mse>
0.97

>  <Mp>
0.68

>  <Mi>
1.11

>  <NsCH3>
1

>  <NdCH2>
0

>  <NssCH2>
0

>  <NtCH>
0

>  <NdsCH>
0

>  <NaaCH>
5

>  <NsssCH>
0

>  <NddC>
0

>  <NtsC>
0

>  <NdssC>
0

>  <NaasC>
1

>  <NaaaC>
0

>  <NssssC>
0

>  <NsNH3>
0

>  <NsNH2>
0

>  <NssNH2>
0

>  <NdNH>
0

>  <NssNH>
0

>  <NaaNH>
0

>  <NtN>
0

>  <NsssNH>
0

>  <NdsN>
0

>  <NaaN>
0

>  <NsssN>
0

>  <NddsN>
0

>  <NaasN>
0

>  <NssssN>
0

>  <NsOH>
0

>  <NdO>
0

>  <NssO>
0

>  <NaaO>
0

>  <NsF>
0

>  <NsSiH3>
0

>  <NssSiH2>
0

>  <NsssSiH>
0

>  <NssssSi>
0

>  <NsPH2>
0

>  <NssPH>
0

>  <NsssP>
0

>  <NdsssP>
0

>  <NsssssP>
0

>  <NsSH>
0

>  <NdS>
0

>  <NssS>
0

>  <NaaS>
0

>  <NdssS>
0

>  <NddssS>
0

>  <NsCl>
0

>  <NsBr>
0

>  <NsI>
0

>  <fragCpx>
7

>  <fMF>
0.4

>  <nHBAcc>
0

>  <nHBDon>
0

>  <Kier1>
5.14

>  <Kier2>
2.34

>  <Lipinski>
1

>  <GhoseFilter>
0

>  <FilterItLogS>
-1.93

>  <VMcGowan>
85.73

>  <LabuteASA>
43.8

>  <PEOE_VSA1>
0

>  <PEOE_VSA2>
0

>  <PEOE_VSA3>
0

>  <PEOE_VSA4>
0

>  <PEOE_VSA5>
0

>  <PEOE_VSA6>
35.9

>  <PEOE_VSA7>
6.92

>  <PEOE_VSA8>
0

>  <PEOE_VSA9>
0

>  <PEOE_VSA10>
0

>  <PEOE_VSA11>
0

>  <PEOE_VSA12>
0

>  <PEOE_VSA13>
0

>  <SMR_VSA1>
0

>  <SMR_VSA2>
0

>  <SMR_VSA3>
0

>  <SMR_VSA4>
0

>  <SMR_VSA5>
6.92

>  <SMR_VSA6>
0

>  <SMR_VSA7>
35.9

>  <SMR_VSA8>
0

>  <SMR_VSA9>
0

>  <SlogP_VSA1>
0

>  <SlogP_VSA2>
0

>  <SlogP_VSA3>
0

>  <SlogP_VSA4>
6.92

>  <SlogP_VSA5>
5.56

>  <SlogP_VSA6>
30.33

>  <SlogP_VSA7>
0

>  <SlogP_VSA8>
0

>  <SlogP_VSA9>
0

>  <SlogP_VSA10>
0

>  <SlogP_VSA11>
0

>  <EState_VSA1>
0

>  <EState_VSA2>
0

>  <EState_VSA3>
0

>  <EState_VSA4>
0

>  <EState_VSA5>
5.56

>  <EState_VSA6>
0

>  <EState_VSA7>
18.2

>  <EState_VSA8>
19.06

>  <EState_VSA9>
0

>  <EState_VSA10>
0

>  <VSA_EState1>
0

>  <VSA_EState2>
0

>  <VSA_EState3>
0

>  <VSA_EState4>
1.32

>  <VSA_EState5>
0

>  <VSA_EState6>
10.26

>  <VSA_EState7>
0

>  <VSA_EState8>
2.08

>  <VSA_EState9>
0

>  <apol>
17.02

>  <bpol>
8.03

>  <nRing>
1

>  <nHRing>
0

>  <naRing>
1

>  <naHRing>
0

>  <nARing 2>
0

>  <nAHRing 2>
0

>  <nFRing>
0

>  <nFHRing>
0

>  <nFaRing>
0

>  <nFaHRing>
0

>  <nFARing 2>
0

>  <nFAHRing 2>
0

>  <nRot>
0

>  <SLogP>
2

>  <SMR>
31.18

>  <TopoPSA(NO)>
0

>  <TopoPSA>
0

>  <JGI1>
0.14

>  <JGI2>
0.06

>  <JGI3>
0.04

>  <JGI4>
0.11

>  <JGI5>
0

>  <Diameter>
4

>  <Radius>
3

>  <TMWC10>
71.32

>  <TSRW10>
33.54

>  <MW>
92.06

>  <AMW>
6.14

>  <WPath>
42

>  <WPol>
5

>  <Zagreb1>
30

>  <Zagreb2>
31

>  <mZagreb2>
1.67

>  <yes>


>  <nAR-cont>
0.336376

>  <nHA-cont>
0.357561384

>  <MWHBN>
0

>  <MWHBN-cont>
0

>  <TPSA-cont>
0

>  <pka_cont>
0.97

>  <yes.1>


>  <BBB_SCORE>
1.178937384

>  <MMFF94 Energy>
18.417

$$$$
Compound 548
Actelion Java MolfileCreator 2.0

  0  0  0  0  0  0              0 V3000
M  V30 BEGIN CTAB
M  V30 COUNTS 18 18 0 0 0
M  V30 BEGIN ATOM
M  V30 1 C 1.1624 -0.6198 0.4648 0
M  V30 2 C 1.2248 0.5489 -0.3015 0
M  V30 3 C -0.088 -1.1818 0.7436 0
M  V30 4 C 2.4192 -1.2909 0.9322 0
M  V30 5 C 0.055 1.1572 -0.7636 0
M  V30 6 C -1.2578 -0.5736 0.2816 0
M  V30 7 C -1.1954 0.5951 -0.4848 0
M  V30 8 C -2.4523 1.2663 -0.9521 0
M  V30 9 H 2.1861 0.9971 -0.5416 0
M  V30 10 H -0.1608 -2.0969 1.3268 0
M  V30 11 H 2.2512 -1.8219 1.875 0
M  V30 12 H 2.7633 -2.0065 0.1794 0
M  V30 13 H 3.2113 -0.5561 1.1107 0
M  V30 14 H 0.1276 2.0723 -1.3467 0
M  V30 15 H -2.2192 -1.0216 0.5217 0
M  V30 16 H -2.7965 1.982 -0.1992 0
M  V30 17 H -3.2445 0.5316 -1.1305 0
M  V30 18 H -2.2844 1.7974 -1.8949 0
M  V30 END ATOM
M  V30 BEGIN BOND
M  V30 1 2 1 2
M  V30 2 1 1 3
M  V30 3 1 1 4
M  V30 4 1 2 5
M  V30 5 2 3 6
M  V30 6 2 5 7
M  V30 7 1 7 8
M  V30 8 1 6 7
M  V30 9 1 2 9
M  V30 10 1 3 10
M  V30 11 1 4 11
M  V30 12 1 4 12
M  V30 13 1 4 13
M  V30 14 1 5 14
M  V30 15 1 6 15
M  V30 16 1 8 16
M  V30 17 1 8 17
M  V30 18 1 8 18
M  V30 END BOND
M  V30 END CTAB
M  END
>  <Column 1>
669

>  <level_0>
764

>  <index>
764

>  <Unnamed: 0>
764

>  <NO.>
776

>  <Name>
p-xylene 

>  <IUPAC_name>
1-4-xylene

>  <SMILES>
Cc1ccc(C)cc1

>  <CID>
7809

>  <logBB>
0.4

>  <BBB+/BBB->
BBB+

>  <Inchi>
InChI=1S/C8H10/c1-7-3-5-8(2)6-4-7/h3-6H-1-2H3

>  <threshold>


>  <reference>
R5|R39|R44|R12|R35|R21|R27|R8|R2|R2|R27|R40|R3|R25|R38|R41|R46|R47|

>  <group>
A

>  <Class>
1

>  <ABC>
5.88

>  <ABCGG>
5.53

>  <nAcid>
0

>  <nBase>
0

>  <nAromAtom>
6

>  <nAromBond>
6

>  <nAtom>
18

>  <nHeavyAtom>
8

>  <nSpiro>
0

>  <nBridgehead>
0

>  <nHetero>
0

>  <nN>
0

>  <nO>
0

>  <nF>
0

>  <BalabanJ>
2.19

>  <BertzCT>
138.9

>  <nBonds>
18

>  <nBondsO>
8

>  <nBondsS>
12

>  <nBondsD>
0

>  <nBondsT>
0

>  <nBondsA>
6

>  <nBondsM>
6

>  <nBondsKS>
15

>  <nBondsKD>
3

>  <RNCG>
0.14

>  <RPCG>
0.15

>  <FCSP3>
0.25

>  <SZ>
9.67

>  <Sm>
8.84

>  <Sv>
10.71

>  <Sse>
17.44

>  <Sp>
11.99

>  <Si>
20.08

>  <MZ>
0.54

>  <Mm>
0.49

>  <Mv>
0.59

>  <Mse>
0.97

>  <Mp>
0.67

>  <Mi>
1.12

>  <NsCH3>
2

>  <NdCH2>
0

>  <NssCH2>
0

>  <NtCH>
0

>  <NdsCH>
0

>  <NaaCH>
4

>  <NsssCH>
0

>  <NddC>
0

>  <NtsC>
0

>  <NdssC>
0

>  <NaasC>
2

>  <NaaaC>
0

>  <NssssC>
0

>  <NsNH3>
0

>  <NsNH2>
0

>  <NssNH2>
0

>  <NdNH>
0

>  <NssNH>
0

>  <NaaNH>
0

>  <NtN>
0

>  <NsssNH>
0

>  <NdsN>
0

>  <NaaN>
0

>  <NsssN>
0

>  <NddsN>
0

>  <NaasN>
0

>  <NssssN>
0

>  <NsOH>
0

>  <NdO>
0

>  <NssO>
0

>  <NaaO>
0

>  <NsF>
0

>  <NsSiH3>
0

>  <NssSiH2>
0

>  <NsssSiH>
0

>  <NssssSi>
0

>  <NsPH2>
0

>  <NssPH>
0

>  <NsssP>
0

>  <NdsssP>
0

>  <NsssssP>
0

>  <NsSH>
0

>  <NdS>
0

>  <NssS>
0

>  <NaaS>
0

>  <NdssS>
0

>  <NddssS>
0

>  <NsCl>
0

>  <NsBr>
0

>  <NsI>
0

>  <fragCpx>
8

>  <fMF>
0.33

>  <nHBAcc>
0

>  <nHBDon>
0

>  <Kier1>
6.13

>  <Kier2>
2.52

>  <Lipinski>
1

>  <GhoseFilter>
0

>  <FilterItLogS>
-2.5

>  <VMcGowan>
99.82

>  <LabuteASA>
50.16

>  <PEOE_VSA1>
0

>  <PEOE_VSA2>
0

>  <PEOE_VSA3>
0

>  <PEOE_VSA4>
0

>  <PEOE_VSA5>
0

>  <PEOE_VSA6>
35.39

>  <PEOE_VSA7>
13.85

>  <PEOE_VSA8>
0

>  <PEOE_VSA9>
0

>  <PEOE_VSA10>
0

>  <PEOE_VSA11>
0

>  <PEOE_VSA12>
0

>  <PEOE_VSA13>
0

>  <SMR_VSA1>
0

>  <SMR_VSA2>
0

>  <SMR_VSA3>
0

>  <SMR_VSA4>
0

>  <SMR_VSA5>
13.85

>  <SMR_VSA6>
0

>  <SMR_VSA7>
35.39

>  <SMR_VSA8>
0

>  <SMR_VSA9>
0

>  <SlogP_VSA1>
0

>  <SlogP_VSA2>
0

>  <SlogP_VSA3>
0

>  <SlogP_VSA4>
13.85

>  <SlogP_VSA5>
11.13

>  <SlogP_VSA6>
24.27

>  <SlogP_VSA7>
0

>  <SlogP_VSA8>
0

>  <SlogP_VSA9>
0

>  <SlogP_VSA10>
0

>  <SlogP_VSA11>
0

>  <EState_VSA1>
0

>  <EState_VSA2>
0

>  <EState_VSA3>
0

>  <EState_VSA4>
0

>  <EState_VSA5>
11.13

>  <EState_VSA6>
0

>  <EState_VSA7>
0

>  <EState_VSA8>
38.11

>  <EState_VSA9>
0

>  <EState_VSA10>
0

>  <VSA_EState1>
0

>  <VSA_EState2>
0

>  <VSA_EState3>
0

>  <VSA_EState4>
2.66

>  <VSA_EState5>
0

>  <VSA_EState6>
8.48

>  <VSA_EState7>
0

>  <VSA_EState8>
4.19

>  <VSA_EState9>
0

>  <apol>
20.03

>  <bpol>
10.03

>  <nRing>
1

>  <nHRing>
0

>  <naRing>
1

>  <naHRing>
0

>  <nARing 2>
0

>  <nAHRing 2>
0

>  <nFRing>
0

>  <nFHRing>
0

>  <nFaRing>
0

>  <nFaHRing>
0

>  <nFARing 2>
0

>  <nFAHRing 2>
0

>  <nRot>
0

>  <SLogP>
2.3

>  <SMR>
35.92

>  <TopoPSA(NO)>
0

>  <TopoPSA>
0

>  <JGI1>
0.25

>  <JGI2>
0.09

>  <JGI3>
0.04

>  <JGI4>
0.15

>  <JGI5>
0

>  <Diameter>
5

>  <Radius>
3

>  <TMWC10>
76.06

>  <TSRW10>
35.73

>  <MW>
106.08

>  <AMW>
5.89

>  <WPath>
62

>  <WPol>
7

>  <Zagreb1>
36

>  <Zagreb2>
38

>  <mZagreb2>
1.83

>  <yes>


>  <nAR-cont>
0.336376

>  <nHA-cont>
0.464727961

>  <MWHBN>
0

>  <MWHBN-cont>
0

>  <TPSA-cont>
0

>  <pka_cont>
0.97

>  <yes.1>


>  <BBB_SCORE>
1.286103961

>  <MMFF94 Energy>
20.617

$$$$
Compound 549
Actelion Java MolfileCreator 2.0

  0  0  0  0  0  0              0 V3000
M  V30 BEGIN CTAB
M  V30 COUNTS 36 39 0 0 0
M  V30 BEGIN ATOM
M  V30 1 Cl -0.6531 -1.1432 -4.5789 0
M  V30 2 C -0.0345 -0.3765 -3.1687 0
M  V30 3 C -0.1811 -0.9925 -1.9266 0
M  V30 4 C 0.62 0.8471 -3.2803 0
M  V30 5 C 0.319 -0.3751 -0.7684 0
M  V30 6 C 1.1292 1.4692 -2.1393 0
M  V30 7 C 0.1442 -1.0912 0.5364 0
M  V30 8 C 0.9629 0.8715 -0.8804 0
M  V30 9 N 1.0396 -1.2024 1.4591 0
M  V30 10 C -1.1778 -1.7091 0.8038 0
M  V30 11 N 1.5091 1.5092 0.2583 0
M  V30 12 C 2.3551 -0.6043 1.2804 0
M  V30 13 C -1.2756 -3.0818 1.0267 0
M  V30 14 C -2.3241 -0.9071 0.8428 0
M  V30 15 C 2.2062 0.8636 1.2535 0
M  V30 16 C 1.474 2.852 0.6088 0
M  V30 17 F -0.1951 -3.8722 0.9535 0
M  V30 18 C -2.5138 -3.6648 1.2823 0
M  V30 19 C -3.5657 -1.4927 1.1008 0
M  V30 20 C 2.6351 1.8505 2.1079 0
M  V30 21 N 2.1925 3.0756 1.694 0
M  V30 22 C 0.691 3.8965 -0.1015 0
M  V30 23 C -3.6605 -2.8693 1.32 0
M  V30 24 H -0.6675 -1.9639 -1.8737 0
M  V30 25 H 0.7511 1.314 -4.2539 0
M  V30 26 H 1.6775 2.4011 -2.2585 0
M  V30 27 H 2.9864 -0.9005 2.1258 0
M  V30 28 H 2.8515 -0.9839 0.3792 0
M  V30 29 H -2.2564 0.1674 0.6947 0
M  V30 30 H -2.5766 -4.7358 1.449 0
M  V30 31 H -4.4603 -0.8748 1.1408 0
M  V30 32 H 3.2222 1.7389 3.0106 0
M  V30 33 H 1.2612 4.3025 -0.9418 0
M  V30 34 H -0.2644 3.5089 -0.4672 0
M  V30 35 H 0.4681 4.725 0.5791 0
M  V30 36 H -4.6283 -3.322 1.5244 0
M  V30 END ATOM
M  V30 BEGIN BOND
M  V30 1 1 1 2
M  V30 2 2 2 3
M  V30 3 1 2 4
M  V30 4 1 3 5
M  V30 5 2 4 6
M  V30 6 1 5 7
M  V30 7 2 5 8
M  V30 8 2 7 9
M  V30 9 1 7 10
M  V30 10 1 8 11
M  V30 11 1 9 12
M  V30 12 2 10 13
M  V30 13 1 10 14
M  V30 14 1 11 15
M  V30 15 1 11 16
M  V30 16 1 13 17
M  V30 17 1 13 18
M  V30 18 2 14 19
M  V30 19 2 15 20
M  V30 20 2 16 21
M  V30 21 1 16 22
M  V30 22 2 18 23
M  V30 23 1 6 8
M  V30 24 1 12 15
M  V30 25 1 19 23
M  V30 26 1 20 21
M  V30 27 1 3 24
M  V30 28 1 4 25
M  V30 29 1 6 26
M  V30 30 1 12 27
M  V30 31 1 12 28
M  V30 32 1 14 29
M  V30 33 1 18 30
M  V30 34 1 19 31
M  V30 35 1 20 32
M  V30 36 1 22 33
M  V30 37 1 22 34
M  V30 38 1 22 35
M  V30 39 1 23 36
M  V30 END BOND
M  V30 END CTAB
M  END
>  <Column 1>
670

>  <level_0>
765

>  <index>
765

>  <Unnamed: 0>
765

>  <NO.>
777

>  <Name>
midazolam

>  <IUPAC_name>
8-chloro-6-(2-fluorophenyl)-1-methyl-4h-imidazo[1-5-a][1-4]benzodiazepine

>  <SMILES>
Cc1ncc2n1-c1ccc(Cl)cc1C(c1ccccc1F)=NC2

>  <CID>
4192

>  <logBB>
0.4

>  <BBB+/BBB->
BBB+

>  <Inchi>
InChI=1S/C18H13ClFN3/c1-11-21-9-13-10-22-18(14-4-2-3-5-16(14)20)15-8-12(19)6-7-17(15)23(11)13/h2-9H-10H2-1H3

>  <threshold>


>  <reference>
R4|R3|R11|R12|R17|R18|R25|R26|R27|R35|R36|R43|R44|R46|R47|R48|R49|R49|R2|R2|R8|R21|R27|R40|R50|R3|R5|R41|R38|R3|

>  <group>
A

>  <Class>
1

>  <ABC>
18.43

>  <ABCGG>
15.09

>  <nAcid>
0

>  <nBase>
0

>  <nAromAtom>
17

>  <nAromBond>
17

>  <nAtom>
36

>  <nHeavyAtom>
23

>  <nSpiro>
0

>  <nBridgehead>
0

>  <nHetero>
5

>  <nN>
3

>  <nO>
0

>  <nF>
1

>  <BalabanJ>
1.61

>  <BertzCT>
943.19

>  <nBonds>
39

>  <nBondsO>
26

>  <nBondsS>
21

>  <nBondsD>
1

>  <nBondsT>
0

>  <nBondsA>
17

>  <nBondsM>
18

>  <nBondsKS>
30

>  <nBondsKD>
9

>  <RNCG>
0.21

>  <RPCG>
0.09

>  <FCSP3>
0.11

>  <SZ>
28

>  <Sm>
27.12

>  <Sv>
25.53

>  <Sse>
36.48

>  <Sp>
26.81

>  <Si>
40.27

>  <MZ>
0.78

>  <Mm>
0.75

>  <Mv>
0.71

>  <Mse>
1.01

>  <Mp>
0.74

>  <Mi>
1.12

>  <NsCH3>
1

>  <NdCH2>
0

>  <NssCH2>
1

>  <NtCH>
0

>  <NdsCH>
0

>  <NaaCH>
8

>  <NsssCH>
0

>  <NddC>
0

>  <NtsC>
0

>  <NdssC>
1

>  <NaasC>
7

>  <NaaaC>
0

>  <NssssC>
0

>  <NsNH3>
0

>  <NsNH2>
0

>  <NssNH2>
0

>  <NdNH>
0

>  <NssNH>
0

>  <NaaNH>
0

>  <NtN>
0

>  <NsssNH>
0

>  <NdsN>
1

>  <NaaN>
1

>  <NsssN>
0

>  <NddsN>
0

>  <NaasN>
1

>  <NssssN>
0

>  <NsOH>
0

>  <NdO>
0

>  <NssO>
0

>  <NaaO>
0

>  <NsF>
1

>  <NsSiH3>
0

>  <NssSiH2>
0

>  <NsssSiH>
0

>  <NssssSi>
0

>  <NsPH2>
0

>  <NssPH>
0

>  <NsssP>
0

>  <NdsssP>
0

>  <NsssssP>
0

>  <NsSH>
0

>  <NdS>
0

>  <NssS>
0

>  <NaaS>
0

>  <NdssS>
0

>  <NddssS>
0

>  <NsCl>
1

>  <NsBr>
0

>  <NsI>
0

>  <fragCpx>
170.05

>  <fMF>
0.56

>  <nHBAcc>
3

>  <nHBDon>
0

>  <Kier1>
16.47

>  <Kier2>
6.72

>  <Lipinski>
1

>  <GhoseFilter>
1

>  <FilterItLogS>
-6.08

>  <VMcGowan>
226.28

>  <LabuteASA>
137.64

>  <PEOE_VSA1>
0

>  <PEOE_VSA2>
9.56

>  <PEOE_VSA3>
9.37

>  <PEOE_VSA4>
0

>  <PEOE_VSA5>
0

>  <PEOE_VSA6>
23.73

>  <PEOE_VSA7>
37.26

>  <PEOE_VSA8>
16.15

>  <PEOE_VSA9>
29.83

>  <PEOE_VSA10>
11.64

>  <PEOE_VSA11>
0

>  <PEOE_VSA12>
0

>  <PEOE_VSA13>
0

>  <SMR_VSA1>
4.39

>  <SMR_VSA2>
0

>  <SMR_VSA3>
9.55

>  <SMR_VSA4>
4.99

>  <SMR_VSA5>
13.47

>  <SMR_VSA6>
0

>  <SMR_VSA7>
82.15

>  <SMR_VSA8>
0

>  <SMR_VSA9>
5.69

>  <SlogP_VSA1>
0

>  <SlogP_VSA2>
15.26

>  <SlogP_VSA3>
6.54

>  <SlogP_VSA4>
12.74

>  <SlogP_VSA5>
22.65

>  <SlogP_VSA6>
53.65

>  <SlogP_VSA7>
5.02

>  <SlogP_VSA8>
5.69

>  <SlogP_VSA9>
0

>  <SlogP_VSA10>
4.39

>  <SlogP_VSA11>
0

>  <EState_VSA1>
0

>  <EState_VSA2>
5.82

>  <EState_VSA3>
22.84

>  <EState_VSA4>
22.77

>  <EState_VSA5>
6.07

>  <EState_VSA6>
12.13

>  <EState_VSA7>
41.95

>  <EState_VSA8>
9.98

>  <EState_VSA9>
11.6

>  <EState_VSA10>
4.39

>  <VSA_EState1>
16.35

>  <VSA_EState2>
9.01

>  <VSA_EState3>
0.59

>  <VSA_EState4>
3.79

>  <VSA_EState5>
0.58

>  <VSA_EState6>
12.25

>  <VSA_EState7>
1.81

>  <VSA_EState8>
2.38

>  <VSA_EState9>
0

>  <apol>
44.77

>  <bpol>
18.65

>  <nRing>
4

>  <nHRing>
2

>  <naRing>
3

>  <naHRing>
1

>  <nARing 2>
1

>  <nAHRing 2>
1

>  <nFRing>
1

>  <nFHRing>
1

>  <nFaRing>
0

>  <nFaHRing>
0

>  <nFARing 2>
1

>  <nFAHRing 2>
1

>  <nRot>
1

>  <SLogP>
4.32

>  <SMR>
89.05

>  <TopoPSA(NO)>
30.18

>  <TopoPSA>
30.18

>  <JGI1>
0.15

>  <JGI2>
0.08

>  <JGI3>
0.05

>  <JGI4>
0.04

>  <JGI5>
0.02

>  <Diameter>
9

>  <Radius>
5

>  <TMWC10>
125.42

>  <TSRW10>
72.14

>  <MW>
325.08

>  <AMW>
9.03

>  <WPath>
1035

>  <WPol>
43

>  <Zagreb1>
128

>  <Zagreb2>
156

>  <mZagreb2>
4.94

>  <yes>


>  <nAR-cont>
0.816016

>  <nHA-cont>
0.967789328

>  <MWHBN>
0.166389581

>  <MWHBN-cont>
0.96799681

>  <TPSA-cont>
0.789324859

>  <pka_cont>
0.97

>  <yes.1>


>  <BBB_SCORE>
5.299450262

>  <MMFF94 Energy>
75.73

$$$$
Compound 550
Actelion Java MolfileCreator 2.0

  0  0  0  0  0  0              0 V3000
M  V30 BEGIN CTAB
M  V30 COUNTS 7 6 0 0 0
M  V30 BEGIN ATOM
M  V30 1 S 0.0 0.0 0.0 0
M  V30 2 F 1.4578 -0.5293 0.8035 0
M  V30 3 F 0.1299 -1.102 -1.2929 0
M  V30 4 F -0.2463 0.9973 1.3948 0
M  V30 5 F -0.8033 -1.2941 0.8102 0
M  V30 6 F -1.5574 0.6094 -0.5366 0
M  V30 7 F 0.8072 1.2126 -0.8669 0
M  V30 END ATOM
M  V30 BEGIN BOND
M  V30 1 1 1 2
M  V30 2 1 1 3
M  V30 3 1 1 4
M  V30 4 1 1 5
M  V30 5 1 1 6
M  V30 6 1 1 7
M  V30 END BOND
M  V30 END CTAB
M  END
>  <Column 1>
671

>  <level_0>
766

>  <index>
766

>  <Unnamed: 0>
766

>  <NO.>
778

>  <Name>
elegas

>  <IUPAC_name>
hexafluoro-lambda6-sulfane

>  <SMILES>
FS(F)(F)(F)(F)F

>  <CID>
17358

>  <logBB>
0.4

>  <BBB+/BBB->
BBB+

>  <Inchi>
InChI=1S/F6S/c1-7(2-3-4-5)6

>  <threshold>


>  <reference>
R12|R25|R44|R46|R48|R49|R2|R2|R27|R8|R21|R27|R40|R3|R38|R41|R5|

>  <group>
A

>  <Class>
1

>  <ABC>
5.48

>  <ABCGG>
5.48

>  <nAcid>
0

>  <nBase>
0

>  <nAromAtom>
0

>  <nAromBond>
0

>  <nAtom>
7

>  <nHeavyAtom>
7

>  <nSpiro>
0

>  <nBridgehead>
0

>  <nHetero>
7

>  <nN>
0

>  <nO>
0

>  <nF>
6

>  <BalabanJ>
4.43

>  <BertzCT>
62.75

>  <nBonds>
6

>  <nBondsO>
6

>  <nBondsS>
6

>  <nBondsD>
0

>  <nBondsT>
0

>  <nBondsA>
0

>  <nBondsM>
0

>  <nBondsKS>
6

>  <nBondsKD>
0

>  <RNCG>
0.17

>  <RPCG>
1

>  <FCSP3>
0

>  <SZ>
11.67

>  <Sm>
12.16

>  <Sv>
5.07

>  <Sse>
9.82

>  <Sp>
3.74

>  <Si>
10.2

>  <MZ>
1.67

>  <Mm>
1.74

>  <Mv>
0.72

>  <Mse>
1.4

>  <Mp>
0.53

>  <Mi>
1.46

>  <NsCH3>
0

>  <NdCH2>
0

>  <NssCH2>
0

>  <NtCH>
0

>  <NdsCH>
0

>  <NaaCH>
0

>  <NsssCH>
0

>  <NddC>
0

>  <NtsC>
0

>  <NdssC>
0

>  <NaasC>
0

>  <NaaaC>
0

>  <NssssC>
0

>  <NsNH3>
0

>  <NsNH2>
0

>  <NssNH2>
0

>  <NdNH>
0

>  <NssNH>
0

>  <NaaNH>
0

>  <NtN>
0

>  <NsssNH>
0

>  <NdsN>
0

>  <NaaN>
0

>  <NsssN>
0

>  <NddsN>
0

>  <NaasN>
0

>  <NssssN>
0

>  <NsOH>
0

>  <NdO>
0

>  <NssO>
0

>  <NaaO>
0

>  <NsF>
6

>  <NsSiH3>
0

>  <NssSiH2>
0

>  <NsssSiH>
0

>  <NssssSi>
0

>  <NsPH2>
0

>  <NssPH>
0

>  <NsssP>
0

>  <NdsssP>
0

>  <NsssssP>
0

>  <NsSH>
0

>  <NdS>
0

>  <NssS>
0

>  <NaaS>
0

>  <NdssS>
0

>  <NddssS>
0

>  <NsCl>
0

>  <NsBr>
0

>  <NsI>
0

>  <fragCpx>
6.07

>  <fMF>
0

>  <nHBAcc>
0

>  <nHBDon>
0

>  <Kier1>
7

>  <Kier2>
0.67

>  <Lipinski>
1

>  <GhoseFilter>
0

>  <FilterItLogS>
-1.66

>  <VMcGowan>
46.37

>  <LabuteASA>
35.14

>  <PEOE_VSA1>
0

>  <PEOE_VSA2>
0

>  <PEOE_VSA3>
0

>  <PEOE_VSA4>
0

>  <PEOE_VSA5>
0

>  <PEOE_VSA6>
23.31

>  <PEOE_VSA7>
0

>  <PEOE_VSA8>
0

>  <PEOE_VSA9>
0

>  <PEOE_VSA10>
0

>  <PEOE_VSA11>
0

>  <PEOE_VSA12>
0

>  <PEOE_VSA13>
0

>  <SMR_VSA1>
23.31

>  <SMR_VSA2>
0

>  <SMR_VSA3>
0

>  <SMR_VSA4>
0

>  <SMR_VSA5>
0

>  <SMR_VSA6>
0

>  <SMR_VSA7>
0

>  <SMR_VSA8>
0

>  <SMR_VSA9>
0

>  <SlogP_VSA1>
0

>  <SlogP_VSA2>
0

>  <SlogP_VSA3>
0

>  <SlogP_VSA4>
0

>  <SlogP_VSA5>
0

>  <SlogP_VSA6>
0

>  <SlogP_VSA7>
0

>  <SlogP_VSA8>
0

>  <SlogP_VSA9>
0

>  <SlogP_VSA10>
23.31

>  <SlogP_VSA11>
0

>  <EState_VSA1>
10.61

>  <EState_VSA2>
0

>  <EState_VSA3>
0

>  <EState_VSA4>
0

>  <EState_VSA5>
0

>  <EState_VSA6>
0

>  <EState_VSA7>
0

>  <EState_VSA8>
0

>  <EState_VSA9>
0

>  <EState_VSA10>
23.31

>  <VSA_EState1>
59.08

>  <VSA_EState2>
0

>  <VSA_EState3>
0

>  <VSA_EState4>
0

>  <VSA_EState5>
0

>  <VSA_EState6>
0

>  <VSA_EState7>
0

>  <VSA_EState8>
0

>  <VSA_EState9>
-10.47

>  <apol>
6.24

>  <bpol>
14.06

>  <nRing>
0

>  <nHRing>
0

>  <naRing>
0

>  <naHRing>
0

>  <nARing 2>
0

>  <nAHRing 2>
0

>  <nFRing>
0

>  <nFHRing>
0

>  <nFaRing>
0

>  <nFaHRing>
0

>  <nFARing 2>
0

>  <nFAHRing 2>
0

>  <nRot>
0

>  <SLogP>
3.17

>  <SMR>
14.24

>  <TopoPSA(NO)>
0

>  <TopoPSA>
0

>  <JGI1>
1.25

>  <JGI2>
0

>  <JGI3>
0

>  <JGI4>
0

>  <JGI5>
0

>  <Diameter>
2

>  <Radius>
1

>  <TMWC10>
77.51

>  <TSRW10>
37.44

>  <MW>
145.96

>  <AMW>
20.85

>  <WPath>
36

>  <WPol>
0

>  <Zagreb1>
42

>  <Zagreb2>
36

>  <mZagreb2>
1

>  <yes>


>  <nAR-cont>
0.336376

>  <nHA-cont>
0.357561384

>  <MWHBN>
0

>  <MWHBN-cont>
0

>  <TPSA-cont>
0

>  <pka_cont>
0.97

>  <yes.1>


>  <BBB_SCORE>
1.178937384

>  <MMFF94 Energy>
Couldn't assign an atom type to atom 0 (S)

$$$$
Compound 551
Actelion Java MolfileCreator 2.0

  0  0  0  0  0  0              0 V3000
M  V30 BEGIN CTAB
M  V30 COUNTS 18 18 0 0 0
M  V30 BEGIN ATOM
M  V30 1 C -0.155 -0.6978 -0.31 0
M  V30 2 C 0.3089 0.6299 -0.2115 0
M  V30 3 C -0.663 -1.3339 0.8337 0
M  V30 4 C -0.1177 -1.4471 -1.6136 0
M  V30 5 C 0.2528 1.2864 1.0281 0
M  V30 6 C 0.8626 1.3579 -1.4055 0
M  V30 7 C -0.7122 -0.6685 2.0584 0
M  V30 8 C -0.2545 0.6412 2.1556 0
M  V30 9 H -1.0257 -2.3578 0.7775 0
M  V30 10 H -0.725 -0.933 -2.3653 0
M  V30 11 H 0.9124 -1.5345 -1.9727 0
M  V30 12 H -0.5162 -2.4616 -1.5059 0
M  V30 13 H 0.6061 2.3108 1.1239 0
M  V30 14 H 1.1744 2.3756 -1.1472 0
M  V30 15 H 0.1028 1.4356 -2.1896 0
M  V30 16 H 1.7404 0.8342 -1.7969 0
M  V30 17 H -1.108 -1.1733 2.9355 0
M  V30 18 H -0.2919 1.1617 3.1087 0
M  V30 END ATOM
M  V30 BEGIN BOND
M  V30 1 2 1 2
M  V30 2 1 1 3
M  V30 3 1 1 4
M  V30 4 1 2 5
M  V30 5 1 2 6
M  V30 6 2 3 7
M  V30 7 2 5 8
M  V30 8 1 7 8
M  V30 9 1 3 9
M  V30 10 1 4 10
M  V30 11 1 4 11
M  V30 12 1 4 12
M  V30 13 1 5 13
M  V30 14 1 6 14
M  V30 15 1 6 15
M  V30 16 1 6 16
M  V30 17 1 7 17
M  V30 18 1 8 18
M  V30 END BOND
M  V30 END CTAB
M  END
>  <Column 1>
672

>  <level_0>
767

>  <index>
767

>  <Unnamed: 0>
767

>  <NO.>
779

>  <Name>
xylene

>  <IUPAC_name>
1-2-xylene

>  <SMILES>
Cc1ccccc1C

>  <CID>
7237

>  <logBB>
0.4

>  <BBB+/BBB->
BBB+

>  <Inchi>
InChI=1S/C8H10/c1-7-5-3-4-6-8(7)2/h3-6H-1-2H3

>  <threshold>


>  <reference>
R12|R35|R39|R20|R43|R44|R8|R21|R27|R40|R2|R2|R27|R5|R3|R25|R38|R41|R46|R47|

>  <group>
A

>  <Class>
1

>  <ABC>
5.84

>  <ABCGG>
5.61

>  <nAcid>
0

>  <nBase>
0

>  <nAromAtom>
6

>  <nAromBond>
6

>  <nAtom>
18

>  <nHeavyAtom>
8

>  <nSpiro>
0

>  <nBridgehead>
0

>  <nHetero>
0

>  <nN>
0

>  <nO>
0

>  <nF>
0

>  <BalabanJ>
2.28

>  <BertzCT>
156.15

>  <nBonds>
18

>  <nBondsO>
8

>  <nBondsS>
12

>  <nBondsD>
0

>  <nBondsT>
0

>  <nBondsA>
6

>  <nBondsM>
6

>  <nBondsKS>
15

>  <nBondsKD>
3

>  <RNCG>
0.15

>  <RPCG>
0.15

>  <FCSP3>
0.25

>  <SZ>
9.67

>  <Sm>
8.84

>  <Sv>
10.71

>  <Sse>
17.44

>  <Sp>
11.99

>  <Si>
20.08

>  <MZ>
0.54

>  <Mm>
0.49

>  <Mv>
0.59

>  <Mse>
0.97

>  <Mp>
0.67

>  <Mi>
1.12

>  <NsCH3>
2

>  <NdCH2>
0

>  <NssCH2>
0

>  <NtCH>
0

>  <NdsCH>
0

>  <NaaCH>
4

>  <NsssCH>
0

>  <NddC>
0

>  <NtsC>
0

>  <NdssC>
0

>  <NaasC>
2

>  <NaaaC>
0

>  <NssssC>
0

>  <NsNH3>
0

>  <NsNH2>
0

>  <NssNH2>
0

>  <NdNH>
0

>  <NssNH>
0

>  <NaaNH>
0

>  <NtN>
0

>  <NsssNH>
0

>  <NdsN>
0

>  <NaaN>
0

>  <NsssN>
0

>  <NddsN>
0

>  <NaasN>
0

>  <NssssN>
0

>  <NsOH>
0

>  <NdO>
0

>  <NssO>
0

>  <NaaO>
0

>  <NsF>
0

>  <NsSiH3>
0

>  <NssSiH2>
0

>  <NsssSiH>
0

>  <NssssSi>
0

>  <NsPH2>
0

>  <NssPH>
0

>  <NsssP>
0

>  <NdsssP>
0

>  <NsssssP>
0

>  <NsSH>
0

>  <NdS>
0

>  <NssS>
0

>  <NaaS>
0

>  <NdssS>
0

>  <NddssS>
0

>  <NsCl>
0

>  <NsBr>
0

>  <NsI>
0

>  <fragCpx>
8

>  <fMF>
0.33

>  <nHBAcc>
0

>  <nHBDon>
0

>  <Kier1>
6.13

>  <Kier2>
2.52

>  <Lipinski>
1

>  <GhoseFilter>
0

>  <FilterItLogS>
-2.5

>  <VMcGowan>
99.82

>  <LabuteASA>
50.16

>  <PEOE_VSA1>
0

>  <PEOE_VSA2>
0

>  <PEOE_VSA3>
0

>  <PEOE_VSA4>
0

>  <PEOE_VSA5>
0

>  <PEOE_VSA6>
24.27

>  <PEOE_VSA7>
24.97

>  <PEOE_VSA8>
0

>  <PEOE_VSA9>
0

>  <PEOE_VSA10>
0

>  <PEOE_VSA11>
0

>  <PEOE_VSA12>
0

>  <PEOE_VSA13>
0

>  <SMR_VSA1>
0

>  <SMR_VSA2>
0

>  <SMR_VSA3>
0

>  <SMR_VSA4>
0

>  <SMR_VSA5>
13.85

>  <SMR_VSA6>
0

>  <SMR_VSA7>
35.39

>  <SMR_VSA8>
0

>  <SMR_VSA9>
0

>  <SlogP_VSA1>
0

>  <SlogP_VSA2>
0

>  <SlogP_VSA3>
0

>  <SlogP_VSA4>
13.85

>  <SlogP_VSA5>
11.13

>  <SlogP_VSA6>
24.27

>  <SlogP_VSA7>
0

>  <SlogP_VSA8>
0

>  <SlogP_VSA9>
0

>  <SlogP_VSA10>
0

>  <SlogP_VSA11>
0

>  <EState_VSA1>
0

>  <EState_VSA2>
0

>  <EState_VSA3>
0

>  <EState_VSA4>
0

>  <EState_VSA5>
11.13

>  <EState_VSA6>
0

>  <EState_VSA7>
0

>  <EState_VSA8>
38.11

>  <EState_VSA9>
0

>  <EState_VSA10>
0

>  <VSA_EState1>
0

>  <VSA_EState2>
0

>  <VSA_EState3>
0

>  <VSA_EState4>
2.74

>  <VSA_EState5>
0

>  <VSA_EState6>
8.36

>  <VSA_EState7>
0

>  <VSA_EState8>
4.24

>  <VSA_EState9>
0

>  <apol>
20.03

>  <bpol>
10.03

>  <nRing>
1

>  <nHRing>
0

>  <naRing>
1

>  <naHRing>
0

>  <nARing 2>
0

>  <nAHRing 2>
0

>  <nFRing>
0

>  <nFHRing>
0

>  <nFaRing>
0

>  <nFaHRing>
0

>  <nFARing 2>
0

>  <nFAHRing 2>
0

>  <nRot>
0

>  <SLogP>
2.3

>  <SMR>
35.92

>  <TopoPSA(NO)>
0

>  <TopoPSA>
0

>  <JGI1>
0.19

>  <JGI2>
0.11

>  <JGI3>
0.05

>  <JGI4>
0.11

>  <JGI5>
0

>  <Diameter>
4

>  <Radius>
3

>  <TMWC10>
76.5

>  <TSRW10>
35.91

>  <MW>
106.08

>  <AMW>
5.89

>  <WPath>
60

>  <WPol>
8

>  <Zagreb1>
36

>  <Zagreb2>
39

>  <mZagreb2>
1.86

>  <yes>


>  <nAR-cont>
0.336376

>  <nHA-cont>
0.464727961

>  <MWHBN>
0

>  <MWHBN-cont>
0

>  <TPSA-cont>
0

>  <pka_cont>
0.97

>  <yes.1>


>  <BBB_SCORE>
1.286103961

>  <MMFF94 Energy>
21.995

$$$$
Compound 552
Actelion Java MolfileCreator 2.0

  0  0  0  0  0  0              0 V3000
M  V30 BEGIN CTAB
M  V30 COUNTS 17 16 0 0 0
M  V30 BEGIN ATOM
M  V30 1 O -1.2967 -1.7546 0.5337 0
M  V30 2 C -0.8738 -0.7493 1.086 0
M  V30 3 O -0.1966 0.2654 0.4825 0
M  V30 4 C -1.0302 -0.4583 2.5473 0
M  V30 5 C 0.0306 0.1211 -0.9319 0
M  V30 6 C 0.2118 1.5223 -1.5032 0
M  V30 7 C 1.2792 -0.7219 -1.165 0
M  V30 8 H -0.0464 -0.3787 3.0167 0
M  V30 9 H -1.5979 0.4656 2.6828 0
M  V30 10 H -1.5782 -1.2766 3.0232 0
M  V30 11 H -0.8388 -0.3406 -1.4153 0
M  V30 12 H 0.3899 1.4924 -2.5824 0
M  V30 13 H -0.6807 2.1286 -1.3136 0
M  V30 14 H 1.05 2.0386 -1.0222 0
M  V30 15 H 1.5051 -0.8081 -2.2322 0
M  V30 16 H 1.1511 -1.7301 -0.758 0
M  V30 17 H 2.1461 -0.2864 -0.6558 0
M  V30 END ATOM
M  V30 BEGIN BOND
M  V30 1 2 1 2
M  V30 2 1 2 3
M  V30 3 1 2 4
M  V30 4 1 3 5
M  V30 5 1 5 6
M  V30 6 1 5 7
M  V30 7 1 4 8
M  V30 8 1 4 9
M  V30 9 1 4 10
M  V30 10 1 5 11
M  V30 11 1 6 12
M  V30 12 1 6 13
M  V30 13 1 6 14
M  V30 14 1 7 15
M  V30 15 1 7 16
M  V30 16 1 7 17
M  V30 END BOND
M  V30 END CTAB
M  END
>  <Column 1>
673

>  <level_0>
768

>  <index>
768

>  <Unnamed: 0>
768

>  <NO.>
780

>  <Name>
isopropyl acetate

>  <IUPAC_name>
propan-2-yl acetate

>  <SMILES>
CC(=O)OC(C)C

>  <CID>
7915

>  <logBB>
0.4

>  <BBB+/BBB->
BBB+

>  <Inchi>
InChI=1S/C5H10O2/c1-4(2)7-5(3)6/h4H-1-3H3

>  <threshold>


>  <reference>
R3|R38|R25|R41|R40|R21|R27|R43|R46|R47|R2|R2|R8|R27|

>  <group>
A

>  <Class>
1

>  <ABC>
4.68

>  <ABCGG>
4.94

>  <nAcid>
0

>  <nBase>
0

>  <nAromAtom>
0

>  <nAromBond>
0

>  <nAtom>
17

>  <nHeavyAtom>
7

>  <nSpiro>
0

>  <nBridgehead>
0

>  <nHetero>
2

>  <nN>
0

>  <nO>
2

>  <nF>
0

>  <BalabanJ>
2.95

>  <BertzCT>
66.48

>  <nBonds>
16

>  <nBondsO>
6

>  <nBondsS>
15

>  <nBondsD>
1

>  <nBondsT>
0

>  <nBondsA>
0

>  <nBondsM>
1

>  <nBondsKS>
15

>  <nBondsKD>
1

>  <RNCG>
0.6

>  <RPCG>
0.39

>  <FCSP3>
0.8

>  <SZ>
9.33

>  <Sm>
8.5

>  <Sv>
9.14

>  <Sse>
17.1

>  <Sp>
9.95

>  <Si>
19.5

>  <MZ>
0.55

>  <Mm>
0.5

>  <Mv>
0.54

>  <Mse>
1.01

>  <Mp>
0.59

>  <Mi>
1.15

>  <NsCH3>
3

>  <NdCH2>
0

>  <NssCH2>
0

>  <NtCH>
0

>  <NdsCH>
0

>  <NaaCH>
0

>  <NsssCH>
1

>  <NddC>
0

>  <NtsC>
0

>  <NdssC>
1

>  <NaasC>
0

>  <NaaaC>
0

>  <NssssC>
0

>  <NsNH3>
0

>  <NsNH2>
0

>  <NssNH2>
0

>  <NdNH>
0

>  <NssNH>
0

>  <NaaNH>
0

>  <NtN>
0

>  <NsssNH>
0

>  <NdsN>
0

>  <NaaN>
0

>  <NsssN>
0

>  <NddsN>
0

>  <NaasN>
0

>  <NssssN>
0

>  <NsOH>
0

>  <NdO>
1

>  <NssO>
1

>  <NaaO>
0

>  <NsF>
0

>  <NsSiH3>
0

>  <NssSiH2>
0

>  <NsssSiH>
0

>  <NssssSi>
0

>  <NsPH2>
0

>  <NssPH>
0

>  <NsssP>
0

>  <NdsssP>
0

>  <NsssssP>
0

>  <NsSH>
0

>  <NdS>
0

>  <NssS>
0

>  <NaaS>
0

>  <NdssS>
0

>  <NddssS>
0

>  <NsCl>
0

>  <NsBr>
0

>  <NsI>
0

>  <fragCpx>
6.02

>  <fMF>
0

>  <nHBAcc>
2

>  <nHBDon>
0

>  <Kier1>
7

>  <Kier2>
3.06

>  <Lipinski>
1

>  <GhoseFilter>
0

>  <FilterItLogS>
-0.7

>  <VMcGowan>
88.75

>  <LabuteASA>
43.47

>  <PEOE_VSA1>
4.74

>  <PEOE_VSA2>
4.79

>  <PEOE_VSA3>
0

>  <PEOE_VSA4>
0

>  <PEOE_VSA5>
0

>  <PEOE_VSA6>
0

>  <PEOE_VSA7>
13.85

>  <PEOE_VSA8>
6.92

>  <PEOE_VSA9>
6.1

>  <PEOE_VSA10>
0

>  <PEOE_VSA11>
0

>  <PEOE_VSA12>
0

>  <PEOE_VSA13>
0

>  <SMR_VSA1>
9.53

>  <SMR_VSA2>
0

>  <SMR_VSA3>
0

>  <SMR_VSA4>
0

>  <SMR_VSA5>
26.88

>  <SMR_VSA6>
0

>  <SMR_VSA7>
0

>  <SMR_VSA8>
0

>  <SMR_VSA9>
0

>  <SlogP_VSA1>
0

>  <SlogP_VSA2>
12.07

>  <SlogP_VSA3>
9.53

>  <SlogP_VSA4>
0

>  <SlogP_VSA5>
20.77

>  <SlogP_VSA6>
0

>  <SlogP_VSA7>
0

>  <SlogP_VSA8>
0

>  <SlogP_VSA9>
0

>  <SlogP_VSA10>
0

>  <SlogP_VSA11>
0

>  <EState_VSA1>
0

>  <EState_VSA2>
12.07

>  <EState_VSA3>
0

>  <EState_VSA4>
0

>  <EState_VSA5>
6.92

>  <EState_VSA6>
0

>  <EState_VSA7>
13.85

>  <EState_VSA8>
4.74

>  <EState_VSA9>
0

>  <EState_VSA10>
4.79

>  <VSA_EState1>
4.61

>  <VSA_EState2>
10.03

>  <VSA_EState3>
0

>  <VSA_EState4>
0

>  <VSA_EState5>
-0.21

>  <VSA_EState6>
0

>  <VSA_EState7>
0.03

>  <VSA_EState8>
5.04

>  <VSA_EState9>
0

>  <apol>
16.62

>  <bpol>
12.64

>  <nRing>
0

>  <nHRing>
0

>  <naRing>
0

>  <naHRing>
0

>  <nARing 2>
0

>  <nAHRing 2>
0

>  <nFRing>
0

>  <nFHRing>
0

>  <nFaRing>
0

>  <nFaHRing>
0

>  <nFARing 2>
0

>  <nFAHRing 2>
0

>  <nRot>
1

>  <SLogP>
0.96

>  <SMR>
26.9

>  <TopoPSA(NO)>
26.3

>  <TopoPSA>
26.3

>  <JGI1>
0.42

>  <JGI2>
0.06

>  <JGI3>
0.13

>  <JGI4>
0

>  <JGI5>
0

>  <Diameter>
4

>  <Radius>
2

>  <TMWC10>
67.03

>  <TSRW10>
32.21

>  <MW>
102.07

>  <AMW>
6

>  <WPath>
48

>  <WPol>
4

>  <Zagreb1>
26

>  <Zagreb2>
24

>  <mZagreb2>
1.67

>  <yes>


>  <nAR-cont>
0.336376

>  <nHA-cont>
0.357561384

>  <MWHBN>
0.197961592

>  <MWHBN-cont>
0.999161666

>  <TPSA-cont>
0.816409669

>  <pka_cont>
0.97

>  <yes.1>


>  <BBB_SCORE>
4.310499219

>  <MMFF94 Energy>
-8.1623

$$$$
Compound 553
Actelion Java MolfileCreator 2.0

  0  0  0  0  0  0              0 V3000
M  V30 BEGIN CTAB
M  V30 COUNTS 48 51 0 0 0
M  V30 BEGIN ATOM
M  V30 1 O -4.836 -3.3833 1.9322 0
M  V30 2 C -4.0937 -2.4275 1.7019 0
M  V30 3 C -3.8921 -1.8992 0.2943 0
M  V30 4 C -3.4546 -1.6456 2.8164 0
M  V30 5 C -2.5793 -1.1734 0.1118 0
M  V30 6 C -1.9756 -1.4547 2.5217 0
M  V30 7 C -1.6987 -0.9735 1.1135 0
M  V30 8 C -2.3263 -0.6939 -1.2958 0
M  V30 9 C -0.3768 -0.2467 0.908 0
M  V30 10 C -0.8818 -0.2361 -1.5791 0
M  V30 11 C -0.3534 0.6113 -0.3884 0
M  V30 12 C 0.7863 -1.254 0.9511 0
M  V30 13 C -0.8561 0.4924 -2.9272 0
M  V30 14 C 1.0346 1.2334 -0.6433 0
M  V30 15 C 2.1382 -0.573 0.7863 0
M  V30 16 C 2.2195 0.2669 -0.4974 0
M  V30 17 C 1.4073 2.3829 0.3042 0
M  V30 18 C 3.4307 1.2277 -0.5057 0
M  V30 19 C 2.9403 2.4668 0.2677 0
M  V30 20 O 4.555 0.6556 0.1452 0
M  V30 21 C 3.8247 1.5802 -1.8861 0
M  V30 22 C 4.1514 1.8632 -3.007 0
M  V30 23 H -3.9342 -2.7539 -0.3898 0
M  V30 24 H -4.7232 -1.2215 0.0713 0
M  V30 25 H -3.9715 -0.6828 2.8992 0
M  V30 26 H -3.5839 -2.1825 3.7619 0
M  V30 27 H -1.5761 -0.7386 3.2496 0
M  V30 28 H -1.4437 -2.4017 2.6757 0
M  V30 29 H -2.5742 -1.4977 -2.001 0
M  V30 30 H -3.0232 0.1304 -1.498 0
M  V30 31 H -0.2567 0.447 1.7507 0
M  V30 32 H -0.2574 -1.1317 -1.6901 0
M  V30 33 H -1.0589 1.4452 -0.2525 0
M  V30 34 H 0.6673 -2.0198 0.175 0
M  V30 35 H 0.7879 -1.7891 1.9087 0
M  V30 36 H 0.167 0.6229 -3.2917 0
M  V30 37 H -1.3904 -0.0834 -3.691 0
M  V30 38 H -1.328 1.4779 -2.8555 0
M  V30 39 H 1.051 1.668 -1.6492 0
M  V30 40 H 2.924 -1.338 0.7741 0
M  V30 41 H 2.3274 0.0473 1.6712 0
M  V30 42 H 2.2501 -0.422 -1.3516 0
M  V30 43 H 0.9483 3.3251 -0.0139 0
M  V30 44 H 1.0773 2.1961 1.3312 0
M  V30 45 H 3.2584 3.4038 -0.2049 0
M  V30 46 H 3.3321 2.4832 1.2919 0
M  V30 47 H 5.2977 1.2701 0.0185 0
M  V30 48 H 4.4413 2.1079 -4.0029 0
M  V30 END ATOM
M  V30 BEGIN BOND
M  V30 1 2 1 2
M  V30 2 1 2 3
M  V30 3 1 2 4
M  V30 4 1 3 5
M  V30 5 1 4 6
M  V30 6 2 5 7
M  V30 7 1 5 8
M  V30 8 1 7 9
M  V30 9 1 8 10
M  V30 10 1 9 11
M  V30 11 1 9 12
M  V30 12 1 10 13
M  V30 13 1 11 14
M  V30 14 1 12 15
M  V30 15 1 14 16
M  V30 16 1 14 17
M  V30 17 1 16 18
M  V30 18 1 17 19
M  V30 19 1 18 20
M  V30 20 1 18 21
M  V30 21 3 21 22
M  V30 22 1 6 7
M  V30 23 1 10 11
M  V30 24 1 15 16
M  V30 25 1 18 19
M  V30 26 1 3 23
M  V30 27 1 3 24
M  V30 28 1 4 25
M  V30 29 1 4 26
M  V30 30 1 6 27
M  V30 31 1 6 28
M  V30 32 1 8 29
M  V30 33 1 8 30
M  V30 34 1 9 31
M  V30 35 1 10 32
M  V30 36 1 11 33
M  V30 37 1 12 34
M  V30 38 1 12 35
M  V30 39 1 13 36
M  V30 40 1 13 37
M  V30 41 1 13 38
M  V30 42 1 14 39
M  V30 43 1 15 40
M  V30 44 1 15 41
M  V30 45 1 16 42
M  V30 46 1 17 43
M  V30 47 1 17 44
M  V30 48 1 19 45
M  V30 49 1 19 46
M  V30 50 1 20 47
M  V30 51 1 22 48
M  V30 END BOND
M  V30 END CTAB
M  END
>  <Column 1>
674

>  <level_0>
769

>  <index>
769

>  <Unnamed: 0>
769

>  <NO.>
781

>  <Name>
tibolone

>  <IUPAC_name>


>  <SMILES>
C#CC1(O)CCC2C3C(C)CC4=C(CCC(=O)C4)C3CCC21

>  <CID>


>  <logBB>
0.4

>  <BBB+/BBB->
BBB+

>  <Inchi>
InChI=1S/C20H26O2/c1-3-20(22)9-8-17-18(20)7-6-16-15-5-4-14(21)11-13(15)10-12(2)19(16)17/h1-12-16-19-22H-4-11H2-2H3

>  <threshold>


>  <reference>
R18|R26|R27|

>  <group>
A

>  <Class>
1

>  <ABC>
17.75

>  <ABCGG>
14.2

>  <nAcid>
0

>  <nBase>
0

>  <nAromAtom>
0

>  <nAromBond>
0

>  <nAtom>
48

>  <nHeavyAtom>
22

>  <nSpiro>
0

>  <nBridgehead>
0

>  <nHetero>
2

>  <nN>
0

>  <nO>
2

>  <nF>
0

>  <BalabanJ>
1.58

>  <BertzCT>
581

>  <nBonds>
51

>  <nBondsO>
25

>  <nBondsS>
48

>  <nBondsD>
2

>  <nBondsT>
1

>  <nBondsA>
0

>  <nBondsM>
3

>  <nBondsKS>
48

>  <nBondsKD>
2

>  <RNCG>
0.27

>  <RPCG>
0.15

>  <FCSP3>
0.75

>  <SZ>
27

>  <Sm>
24.85

>  <Sv>
28.47

>  <Sse>
47.2

>  <Sp>
31.34

>  <Si>
53.82

>  <MZ>
0.56

>  <Mm>
0.52

>  <Mv>
0.59

>  <Mse>
0.98

>  <Mp>
0.65

>  <Mi>
1.12

>  <NsCH3>
1

>  <NdCH2>
0

>  <NssCH2>
8

>  <NtCH>
1

>  <NdsCH>
0

>  <NaaCH>
0

>  <NsssCH>
5

>  <NddC>
0

>  <NtsC>
1

>  <NdssC>
3

>  <NaasC>
0

>  <NaaaC>
0

>  <NssssC>
1

>  <NsNH3>
0

>  <NsNH2>
0

>  <NssNH2>
0

>  <NdNH>
0

>  <NssNH>
0

>  <NaaNH>
0

>  <NtN>
0

>  <NsssNH>
0

>  <NdsN>
0

>  <NaaN>
0

>  <NsssN>
0

>  <NddsN>
0

>  <NaasN>
0

>  <NssssN>
0

>  <NsOH>
1

>  <NdO>
1

>  <NssO>
0

>  <NaaO>
0

>  <NsF>
0

>  <NsSiH3>
0

>  <NssSiH2>
0

>  <NsssSiH>
0

>  <NssssSi>
0

>  <NsPH2>
0

>  <NssPH>
0

>  <NsssP>
0

>  <NdsssP>
0

>  <NsssssP>
0

>  <NsSH>
0

>  <NdS>
0

>  <NssS>
0

>  <NaaS>
0

>  <NdssS>
0

>  <NddssS>
0

>  <NsCl>
0

>  <NsBr>
0

>  <NsI>
0

>  <fragCpx>
163.02

>  <fMF>
0.35

>  <nHBAcc>
2

>  <nHBDon>
1

>  <Kier1>
15.52

>  <Kier2>
5.52

>  <Lipinski>
1

>  <GhoseFilter>
1

>  <FilterItLogS>
-3.18

>  <VMcGowan>
243.76

>  <LabuteASA>
132.92

>  <PEOE_VSA1>
5.11

>  <PEOE_VSA2>
4.79

>  <PEOE_VSA3>
0

>  <PEOE_VSA4>
0

>  <PEOE_VSA5>
6.42

>  <PEOE_VSA6>
23.99

>  <PEOE_VSA7>
62.2

>  <PEOE_VSA8>
18.76

>  <PEOE_VSA9>
0

>  <PEOE_VSA10>
11.38

>  <PEOE_VSA11>
0

>  <PEOE_VSA12>
0

>  <PEOE_VSA13>
0

>  <SMR_VSA1>
9.9

>  <SMR_VSA2>
0

>  <SMR_VSA3>
0

>  <SMR_VSA4>
29.59

>  <SMR_VSA5>
63.89

>  <SMR_VSA6>
0

>  <SMR_VSA7>
11.15

>  <SMR_VSA8>
0

>  <SMR_VSA9>
12.34

>  <SlogP_VSA1>
0

>  <SlogP_VSA2>
16.49

>  <SlogP_VSA3>
4.79

>  <SlogP_VSA4>
41.93

>  <SlogP_VSA5>
58.29

>  <SlogP_VSA6>
11.15

>  <SlogP_VSA7>
0

>  <SlogP_VSA8>
0

>  <SlogP_VSA9>
0

>  <SlogP_VSA10>
0

>  <SlogP_VSA11>
0

>  <EState_VSA1>
5.6

>  <EState_VSA2>
0

>  <EState_VSA3>
41.79

>  <EState_VSA4>
44.95

>  <EState_VSA5>
5.57

>  <EState_VSA6>
5.57

>  <EState_VSA7>
0

>  <EState_VSA8>
12.84

>  <EState_VSA9>
6.42

>  <EState_VSA10>
9.9

>  <VSA_EState1>
0

>  <VSA_EState2>
11.8

>  <VSA_EState3>
10.75

>  <VSA_EState4>
2.23

>  <VSA_EState5>
5.99

>  <VSA_EState6>
0

>  <VSA_EState7>
13.29

>  <VSA_EState8>
2.36

>  <VSA_EState9>
0

>  <apol>
52.34

>  <bpol>
26.95

>  <nRing>
4

>  <nHRing>
0

>  <naRing>
0

>  <naHRing>
0

>  <nARing 2>
4

>  <nAHRing 2>
0

>  <nFRing>
1

>  <nFHRing>
0

>  <nFaRing>
0

>  <nFaHRing>
0

>  <nFARing 2>
1

>  <nFAHRing 2>
0

>  <nRot>
0

>  <SLogP>
3.49

>  <SMR>
85.88

>  <TopoPSA(NO)>
37.3

>  <TopoPSA>
37.3

>  <JGI1>
0.22

>  <JGI2>
0.1

>  <JGI3>
0.06

>  <JGI4>
0.05

>  <JGI5>
0.04

>  <Diameter>
11

>  <Radius>
6

>  <TMWC10>
124.38

>  <TSRW10>
71.59

>  <MW>
298.19

>  <AMW>
6.21

>  <WPath>
941

>  <WPol>
43

>  <Zagreb1>
128

>  <Zagreb2>
160

>  <mZagreb2>
4.67

>  <yes>


>  <nAR-cont>
0.199399

>  <nHA-cont>
0.983774276

>  <MWHBN>
0.173729959

>  <MWHBN-cont>
0.979454418

>  <TPSA-cont>
0.739622838

>  <pka_cont>
0.97

>  <yes.1>


>  <BBB_SCORE>
4.616600579

>  <MMFF94 Energy>
57.004

$$$$
Compound 554
Actelion Java MolfileCreator 2.0

  0  0  0  0  0  0              0 V3000
M  V30 BEGIN CTAB
M  V30 COUNTS 51 54 0 0 0
M  V30 BEGIN ATOM
M  V30 1 O -4.6696 2.977 -2.8964 0
M  V30 2 C -3.5881 2.4093 -2.739 0
M  V30 3 C -2.3915 3.123 -2.1432 0
M  V30 4 C -3.349 1.0174 -3.2523 0
M  V30 5 C -1.4217 2.1831 -1.4634 0
M  V30 6 C -2.7329 0.1711 -2.1493 0
M  V30 7 C -1.5911 0.8439 -1.4149 0
M  V30 8 C -0.2394 2.8782 -0.8317 0
M  V30 9 C -0.6245 -0.0695 -0.6614 0
M  V30 10 C 0.9031 1.9371 -0.4046 0
M  V30 11 C 0.3024 0.7086 0.3139 0
M  V30 12 C -1.3231 -1.1981 0.119 0
M  V30 13 C 1.8999 2.7269 0.4485 0
M  V30 14 C 1.3386 -0.2174 0.989 0
M  V30 15 C -0.3078 -2.1571 0.744 0
M  V30 16 C 0.7225 -1.4669 1.6763 0
M  V30 17 C 2.4282 -0.7843 0.0604 0
M  V30 18 C 1.9976 -2.3358 1.9074 0
M  V30 19 C 0.0341 -1.0814 3.0016 0
M  V30 20 C 2.7993 -2.168 0.6104 0
M  V30 21 O 2.7963 -1.7877 2.96 0
M  V30 22 C 1.7272 -3.7495 2.2137 0
M  V30 23 C 1.5128 -4.9028 2.4727 0
M  V30 24 H -2.7625 3.8519 -1.4139 0
M  V30 25 H -1.8864 3.6559 -2.956 0
M  V30 26 H -4.2965 0.5781 -3.5812 0
M  V30 27 H -2.6855 1.0825 -4.1219 0
M  V30 28 H -3.5074 -0.0922 -1.4179 0
M  V30 29 H -2.3806 -0.7613 -2.6063 0
M  V30 30 H 0.1677 3.6117 -1.5396 0
M  V30 31 H -0.6037 3.4431 0.0367 0
M  V30 32 H -0.0102 -0.5406 -1.4405 0
M  V30 33 H 1.4295 1.6002 -1.3081 0
M  V30 34 H -0.3302 1.1008 1.1256 0
M  V30 35 H -1.9814 -0.7788 0.8892 0
M  V30 36 H -1.9647 -1.7898 -0.5438 0
M  V30 37 H 2.8079 2.1504 0.645 0
M  V30 38 H 1.4606 3.0112 1.4107 0
M  V30 39 H 2.2083 3.6438 -0.0657 0
M  V30 40 H 1.8518 0.369 1.7644 0
M  V30 41 H -0.8542 -2.9317 1.2972 0
M  V30 42 H 0.2017 -2.6781 -0.0758 0
M  V30 43 H 3.305 -0.1277 0.05 0
M  V30 44 H 2.0956 -0.8813 -0.9772 0
M  V30 45 H 0.7044 -0.5213 3.6624 0
M  V30 46 H -0.845 -0.4507 2.8392 0
M  V30 47 H -0.297 -1.9738 3.5438 0
M  V30 48 H 3.8804 -2.2346 0.7795 0
M  V30 49 H 2.5388 -2.9305 -0.1341 0
M  V30 50 H 2.4304 -2.1196 3.7975 0
M  V30 51 H 1.3274 -5.9274 2.7007 0
M  V30 END ATOM
M  V30 BEGIN BOND
M  V30 1 2 1 2
M  V30 2 1 2 3
M  V30 3 1 2 4
M  V30 4 1 3 5
M  V30 5 1 4 6
M  V30 6 2 5 7
M  V30 7 1 5 8
M  V30 8 1 7 9
M  V30 9 1 8 10
M  V30 10 1 9 11
M  V30 11 1 9 12
M  V30 12 1 10 13
M  V30 13 1 11 14
M  V30 14 1 12 15
M  V30 15 1 14 16
M  V30 16 1 14 17
M  V30 17 1 16 18
M  V30 18 1 16 19
M  V30 19 1 17 20
M  V30 20 1 18 21
M  V30 21 1 18 22
M  V30 22 3 22 23
M  V30 23 1 6 7
M  V30 24 1 10 11
M  V30 25 1 15 16
M  V30 26 1 18 20
M  V30 27 1 3 24
M  V30 28 1 3 25
M  V30 29 1 4 26
M  V30 30 1 4 27
M  V30 31 1 6 28
M  V30 32 1 6 29
M  V30 33 1 8 30
M  V30 34 1 8 31
M  V30 35 1 9 32
M  V30 36 1 10 33
M  V30 37 1 11 34
M  V30 38 1 12 35
M  V30 39 1 12 36
M  V30 40 1 13 37
M  V30 41 1 13 38
M  V30 42 1 13 39
M  V30 43 1 14 40
M  V30 44 1 15 41
M  V30 45 1 15 42
M  V30 46 1 17 43
M  V30 47 1 17 44
M  V30 48 1 19 45
M  V30 49 1 19 46
M  V30 50 1 19 47
M  V30 51 1 20 48
M  V30 52 1 20 49
M  V30 53 1 21 50
M  V30 54 1 23 51
M  V30 END BOND
M  V30 END CTAB
M  END
>  <Column 1>
675

>  <level_0>
770

>  <index>
770

>  <Unnamed: 0>
770

>  <NO.>
782

>  <Name>
tibolone

>  <IUPAC_name>
17-ethynyl-17-hydroxy-7-13-dimethyl-1-2-4-6-7-8-9-11-12-14-15-16-dodecahydrocyclopenta[a]phenanthren-3-one

>  <SMILES>
C#CC1(O)CCC2C3C(C)CC4=C(CCC(=O)C4)C3CCC21C

>  <CID>
5470

>  <logBB>
0.4

>  <BBB+/BBB->
BBB+

>  <Inchi>
InChI=1S/C21H28O2/c1-4-21(23)10-8-18-19-13(2)11-14-12-15(22)5-6-16(14)17(19)7-9-20(18-21)3/h1-13-17-19-23H-5-12H2-2-3H3

>  <threshold>


>  <reference>
R3|R4|R12|R25|R27|R35|R36|R38|R41|R43|R46|R47|R49|R50|R2|R2|R27|R40|

>  <group>
A

>  <Class>
1

>  <ABC>
18.56

>  <ABCGG>
15.08

>  <nAcid>
0

>  <nBase>
0

>  <nAromAtom>
0

>  <nAromBond>
0

>  <nAtom>
51

>  <nHeavyAtom>
23

>  <nSpiro>
0

>  <nBridgehead>
0

>  <nHetero>
2

>  <nN>
0

>  <nO>
2

>  <nF>
0

>  <BalabanJ>
1.63

>  <BertzCT>
624.24

>  <nBonds>
54

>  <nBondsO>
26

>  <nBondsS>
51

>  <nBondsD>
2

>  <nBondsT>
1

>  <nBondsA>
0

>  <nBondsM>
3

>  <nBondsKS>
51

>  <nBondsKD>
2

>  <RNCG>
0.27

>  <RPCG>
0.15

>  <FCSP3>
0.76

>  <SZ>
28.33

>  <Sm>
26.01

>  <Sv>
30.02

>  <Sse>
50.09

>  <Sp>
33.14

>  <Si>
57.23

>  <MZ>
0.56

>  <Mm>
0.51

>  <Mv>
0.59

>  <Mse>
0.98

>  <Mp>
0.65

>  <Mi>
1.12

>  <NsCH3>
2

>  <NdCH2>
0

>  <NssCH2>
8

>  <NtCH>
1

>  <NdsCH>
0

>  <NaaCH>
0

>  <NsssCH>
4

>  <NddC>
0

>  <NtsC>
1

>  <NdssC>
3

>  <NaasC>
0

>  <NaaaC>
0

>  <NssssC>
2

>  <NsNH3>
0

>  <NsNH2>
0

>  <NssNH2>
0

>  <NdNH>
0

>  <NssNH>
0

>  <NaaNH>
0

>  <NtN>
0

>  <NsssNH>
0

>  <NdsN>
0

>  <NaaN>
0

>  <NsssN>
0

>  <NddsN>
0

>  <NaasN>
0

>  <NssssN>
0

>  <NsOH>
1

>  <NdO>
1

>  <NssO>
0

>  <NaaO>
0

>  <NsF>
0

>  <NsSiH3>
0

>  <NssSiH2>
0

>  <NsssSiH>
0

>  <NssssSi>
0

>  <NsPH2>
0

>  <NssPH>
0

>  <NsssP>
0

>  <NdsssP>
0

>  <NsssssP>
0

>  <NsSH>
0

>  <NdS>
0

>  <NssS>
0

>  <NaaS>
0

>  <NdssS>
0

>  <NddssS>
0

>  <NsCl>
0

>  <NsBr>
0

>  <NsI>
0

>  <fragCpx>
170.02

>  <fMF>
0.33

>  <nHBAcc>
2

>  <nHBDon>
1

>  <Kier1>
16.47

>  <Kier2>
5.5

>  <Lipinski>
1

>  <GhoseFilter>
1

>  <FilterItLogS>
-3.77

>  <VMcGowan>
257.85

>  <LabuteASA>
139.28

>  <PEOE_VSA1>
5.11

>  <PEOE_VSA2>
4.79

>  <PEOE_VSA3>
0

>  <PEOE_VSA4>
0

>  <PEOE_VSA5>
6.42

>  <PEOE_VSA6>
30.91

>  <PEOE_VSA7>
62.2

>  <PEOE_VSA8>
18.26

>  <PEOE_VSA9>
0

>  <PEOE_VSA10>
11.38

>  <PEOE_VSA11>
0

>  <PEOE_VSA12>
0

>  <PEOE_VSA13>
0

>  <SMR_VSA1>
9.9

>  <SMR_VSA2>
0

>  <SMR_VSA3>
0

>  <SMR_VSA4>
29.09

>  <SMR_VSA5>
70.82

>  <SMR_VSA6>
0

>  <SMR_VSA7>
11.15

>  <SMR_VSA8>
0

>  <SMR_VSA9>
12.34

>  <SlogP_VSA1>
0

>  <SlogP_VSA2>
16.49

>  <SlogP_VSA3>
4.79

>  <SlogP_VSA4>
41.43

>  <SlogP_VSA5>
65.21

>  <SlogP_VSA6>
11.15

>  <SlogP_VSA7>
0

>  <SlogP_VSA8>
0

>  <SlogP_VSA9>
0

>  <SlogP_VSA10>
0

>  <SlogP_VSA11>
0

>  <EState_VSA1>
5.6

>  <EState_VSA2>
5.41

>  <EState_VSA3>
35.88

>  <EState_VSA4>
44.95

>  <EState_VSA5>
5.57

>  <EState_VSA6>
5.57

>  <EState_VSA7>
0

>  <EState_VSA8>
19.77

>  <EState_VSA9>
6.42

>  <EState_VSA10>
9.9

>  <VSA_EState1>
0

>  <VSA_EState2>
11.85

>  <VSA_EState3>
11.01

>  <VSA_EState4>
2.04

>  <VSA_EState5>
5.6

>  <VSA_EState6>
0

>  <VSA_EState7>
13.24

>  <VSA_EState8>
4.6

>  <VSA_EState9>
0

>  <apol>
55.34

>  <bpol>
28.96

>  <nRing>
4

>  <nHRing>
0

>  <naRing>
0

>  <naHRing>
0

>  <nARing 2>
4

>  <nAHRing 2>
0

>  <nFRing>
1

>  <nFHRing>
0

>  <nFaRing>
0

>  <nFaHRing>
0

>  <nFARing 2>
1

>  <nFAHRing 2>
0

>  <nRot>
0

>  <SLogP>
3.88

>  <SMR>
90.49

>  <TopoPSA(NO)>
37.3

>  <TopoPSA>
37.3

>  <JGI1>
0.25

>  <JGI2>
0.12

>  <JGI3>
0.07

>  <JGI4>
0.05

>  <JGI5>
0.04

>  <Diameter>
11

>  <Radius>
6

>  <TMWC10>
127.55

>  <TSRW10>
73.4

>  <MW>
312.21

>  <AMW>
6.12

>  <WPath>
1036

>  <WPol>
49

>  <Zagreb1>
136

>  <Zagreb2>
173

>  <mZagreb2>
4.83

>  <yes>


>  <nAR-cont>
0.199399

>  <nHA-cont>
0.967789328

>  <MWHBN>
0.169784426

>  <MWHBN-cont>
0.973626969

>  <TPSA-cont>
0.739622838

>  <pka_cont>
0.97

>  <yes.1>


>  <BBB_SCORE>
4.591874457

>  <MMFF94 Energy>
67.412

$$$$
Compound 555
Actelion Java MolfileCreator 2.0

  0  0  0  0  0  0              0 V3000
M  V30 BEGIN CTAB
M  V30 COUNTS 23 22 0 0 0
M  V30 BEGIN ATOM
M  V30 1 O 1.9929 0.0 2.53 0
M  V30 2 C 0.8411 0.4084 2.4926 0
M  V30 3 O 0.1778 0.8049 1.3725 0
M  V30 4 C -0.0492 0.5447 3.6894 0
M  V30 5 C 0.9469 0.706 0.1659 0
M  V30 6 C 0.0845 1.1552 -1.0127 0
M  V30 7 C -1.1525 0.2801 -1.2541 0
M  V30 8 C -0.9596 -0.8248 -2.2968 0
M  V30 9 C 0.0556 -1.8854 -1.9095 0
M  V30 10 H -0.3396 1.5903 3.8183 0
M  V30 11 H -0.9318 -0.0881 3.5686 0
M  V30 12 H 0.4921 0.2206 4.5827 0
M  V30 13 H 1.2938 -0.3225 0.0334 0
M  V30 14 H 1.8168 1.3687 0.2441 0
M  V30 15 H -0.27 2.1708 -0.7937 0
M  V30 16 H 0.6945 1.2167 -1.9207 0
M  V30 17 H -1.954 0.9314 -1.6266 0
M  V30 18 H -1.5216 -0.1514 -0.3168 0
M  V30 19 H -1.9276 -1.3147 -2.4578 0
M  V30 20 H -0.6712 -0.3816 -3.2573 0
M  V30 21 H 0.0278 -2.7109 -2.6281 0
M  V30 22 H 1.0723 -1.4827 -1.9155 0
M  V30 23 H -0.1571 -2.2937 -0.9167 0
M  V30 END ATOM
M  V30 BEGIN BOND
M  V30 1 2 1 2
M  V30 2 1 2 3
M  V30 3 1 2 4
M  V30 4 1 3 5
M  V30 5 1 5 6
M  V30 6 1 6 7
M  V30 7 1 7 8
M  V30 8 1 8 9
M  V30 9 1 4 10
M  V30 10 1 4 11
M  V30 11 1 4 12
M  V30 12 1 5 13
M  V30 13 1 5 14
M  V30 14 1 6 15
M  V30 15 1 6 16
M  V30 16 1 7 17
M  V30 17 1 7 18
M  V30 18 1 8 19
M  V30 19 1 8 20
M  V30 20 1 9 21
M  V30 21 1 9 22
M  V30 22 1 9 23
M  V30 END BOND
M  V30 END CTAB
M  END
>  <Column 1>
676

>  <level_0>
772

>  <index>
772

>  <Unnamed: 0>
772

>  <NO.>
784

>  <Name>
pentyl acetate

>  <IUPAC_name>
pentyl acetate

>  <SMILES>
CCCCCOC(C)=O

>  <CID>
12348

>  <logBB>
0.4

>  <BBB+/BBB->
BBB+

>  <Inchi>
InChI=1S/C7H14O2/c1-3-4-5-6-9-7(2)8/h3-6H2-1-2H3

>  <threshold>


>  <reference>
R21|R25|R27|R41|R43|R46|R47|R2|R2|R8|R27|R40|R3|R38|

>  <group>
A

>  <Class>
1

>  <ABC>
5.88

>  <ABCGG>
5.94

>  <nAcid>
0

>  <nBase>
0

>  <nAromAtom>
0

>  <nAromBond>
0

>  <nAtom>
23

>  <nHeavyAtom>
9

>  <nSpiro>
0

>  <nBridgehead>
0

>  <nHetero>
2

>  <nN>
0

>  <nO>
2

>  <nF>
0

>  <BalabanJ>
2.75

>  <BertzCT>
78.99

>  <nBonds>
22

>  <nBondsO>
8

>  <nBondsS>
21

>  <nBondsD>
1

>  <nBondsT>
0

>  <nBondsA>
0

>  <nBondsM>
1

>  <nBondsKS>
21

>  <nBondsKD>
1

>  <RNCG>
0.51

>  <RPCG>
0.33

>  <FCSP3>
0.86

>  <SZ>
12

>  <Sm>
10.84

>  <Sv>
12.22

>  <Sse>
22.88

>  <Sp>
13.55

>  <Si>
26.33

>  <MZ>
0.52

>  <Mm>
0.47

>  <Mv>
0.53

>  <Mse>
0.99

>  <Mp>
0.59

>  <Mi>
1.14

>  <NsCH3>
2

>  <NdCH2>
0

>  <NssCH2>
4

>  <NtCH>
0

>  <NdsCH>
0

>  <NaaCH>
0

>  <NsssCH>
0

>  <NddC>
0

>  <NtsC>
0

>  <NdssC>
1

>  <NaasC>
0

>  <NaaaC>
0

>  <NssssC>
0

>  <NsNH3>
0

>  <NsNH2>
0

>  <NssNH2>
0

>  <NdNH>
0

>  <NssNH>
0

>  <NaaNH>
0

>  <NtN>
0

>  <NsssNH>
0

>  <NdsN>
0

>  <NaaN>
0

>  <NsssN>
0

>  <NddsN>
0

>  <NaasN>
0

>  <NssssN>
0

>  <NsOH>
0

>  <NdO>
1

>  <NssO>
1

>  <NaaO>
0

>  <NsF>
0

>  <NsSiH3>
0

>  <NssSiH2>
0

>  <NsssSiH>
0

>  <NssssSi>
0

>  <NsPH2>
0

>  <NssPH>
0

>  <NsssP>
0

>  <NdsssP>
0

>  <NsssssP>
0

>  <NsSH>
0

>  <NdS>
0

>  <NssS>
0

>  <NaaS>
0

>  <NdssS>
0

>  <NddssS>
0

>  <NsCl>
0

>  <NsBr>
0

>  <NsI>
0

>  <fragCpx>
8.02

>  <fMF>
0

>  <nHBAcc>
2

>  <nHBDon>
0

>  <Kier1>
9

>  <Kier2>
6.13

>  <Lipinski>
1

>  <GhoseFilter>
0

>  <FilterItLogS>
-1.93

>  <VMcGowan>
116.93

>  <LabuteASA>
56.2

>  <PEOE_VSA1>
4.74

>  <PEOE_VSA2>
4.79

>  <PEOE_VSA3>
0

>  <PEOE_VSA4>
0

>  <PEOE_VSA5>
0

>  <PEOE_VSA6>
19.77

>  <PEOE_VSA7>
6.42

>  <PEOE_VSA8>
6.92

>  <PEOE_VSA9>
6.61

>  <PEOE_VSA10>
0

>  <PEOE_VSA11>
0

>  <PEOE_VSA12>
0

>  <PEOE_VSA13>
0

>  <SMR_VSA1>
9.53

>  <SMR_VSA2>
0

>  <SMR_VSA3>
0

>  <SMR_VSA4>
0

>  <SMR_VSA5>
33.11

>  <SMR_VSA6>
6.61

>  <SMR_VSA7>
0

>  <SMR_VSA8>
0

>  <SMR_VSA9>
0

>  <SlogP_VSA1>
0

>  <SlogP_VSA2>
12.58

>  <SlogP_VSA3>
9.53

>  <SlogP_VSA4>
0

>  <SlogP_VSA5>
33.11

>  <SlogP_VSA6>
0

>  <SlogP_VSA7>
0

>  <SlogP_VSA8>
0

>  <SlogP_VSA9>
0

>  <SlogP_VSA10>
0

>  <SlogP_VSA11>
0

>  <EState_VSA1>
0

>  <EState_VSA2>
5.97

>  <EState_VSA3>
6.61

>  <EState_VSA4>
12.84

>  <EState_VSA5>
13.34

>  <EState_VSA6>
0

>  <EState_VSA7>
0

>  <EState_VSA8>
6.92

>  <EState_VSA9>
4.74

>  <EState_VSA10>
4.79

>  <VSA_EState1>
4.71

>  <VSA_EState2>
10.18

>  <VSA_EState3>
0

>  <VSA_EState4>
0

>  <VSA_EState5>
-0.17

>  <VSA_EState6>
0

>  <VSA_EState7>
3.31

>  <VSA_EState8>
4.14

>  <VSA_EState9>
0

>  <apol>
22.63

>  <bpol>
16.65

>  <nRing>
0

>  <nHRing>
0

>  <naRing>
0

>  <naHRing>
0

>  <nARing 2>
0

>  <nAHRing 2>
0

>  <nFRing>
0

>  <nFHRing>
0

>  <nFaRing>
0

>  <nFaHRing>
0

>  <nFARing 2>
0

>  <nFAHRing 2>
0

>  <nRot>
4

>  <SLogP>
1.74

>  <SMR>
36.16

>  <TopoPSA(NO)>
26.3

>  <TopoPSA>
26.3

>  <JGI1>
0.19

>  <JGI2>
0.06

>  <JGI3>
0.04

>  <JGI4>
0.03

>  <JGI5>
0.03

>  <Diameter>
7

>  <Radius>
4

>  <TMWC10>
72.12

>  <TSRW10>
34.75

>  <MW>
130.1

>  <AMW>
5.66

>  <WPath>
114

>  <WPol>
6

>  <Zagreb1>
32

>  <Zagreb2>
30

>  <mZagreb2>
2.33

>  <yes>


>  <nAR-cont>
0.336376

>  <nHA-cont>
0.56070381

>  <MWHBN>
0.175344177

>  <MWHBN-cont>
0.981619676

>  <TPSA-cont>
0.816409669

>  <pka_cont>
0.97

>  <yes.1>


>  <BBB_SCORE>
4.487328661

>  <MMFF94 Energy>
-7.968

$$$$
Compound 556
Actelion Java MolfileCreator 2.0

  0  0  0  0  0  0              0 V3000
M  V30 BEGIN CTAB
M  V30 COUNTS 43 45 0 0 0
M  V30 BEGIN ATOM
M  V30 1 N -0.4761 0.6348 0.238 0
M  V30 2 C 0.4391 -0.55 0.3889 0
M  V30 3 C 0.1234 1.8004 -0.4368 0
M  V30 4 C -1.7877 0.3335 -0.3638 0
M  V30 5 C 0.8523 -1.1568 -0.9856 0
M  V30 6 C 1.72 -0.1496 1.2174 0
M  V30 7 C -0.2371 -1.6519 1.2922 0
M  V30 8 C -0.7718 3.0383 -0.3232 0
M  V30 9 C -2.7465 1.5226 -0.2478 0
M  V30 10 C 0.0897 -2.1641 -1.6103 0
M  V30 11 C 1.9907 -0.7049 -1.683 0
M  V30 12 C 1.4175 0.3501 2.6333 0
M  V30 13 C -0.5737 -1.1782 2.7094 0
M  V30 14 C -2.1603 2.7733 -0.8835 0
M  V30 15 C 0.4569 -2.706 -2.8471 0
M  V30 16 C 2.3598 -1.2454 -2.9198 0
M  V30 17 C 0.6638 -0.6906 3.4456 0
M  V30 18 C 1.5947 -2.2492 -3.5001 0
M  V30 19 H 0.3077 1.5909 -1.4972 0
M  V30 20 H 1.0796 2.0797 0.0118 0
M  V30 21 H -1.6838 0.0622 -1.4212 0
M  V30 22 H -2.2818 -0.5004 0.1401 0
M  V30 23 H 2.383 -1.024 1.2949 0
M  V30 24 H 2.3224 0.6168 0.7219 0
M  V30 25 H 0.4397 -2.5156 1.3691 0
M  V30 26 H -1.1559 -2.0529 0.8548 0
M  V30 27 H -0.3122 3.8765 -0.8591 0
M  V30 28 H -0.8511 3.3377 0.7297 0
M  V30 29 H -3.6996 1.2765 -0.7298 0
M  V30 30 H -2.9645 1.7155 0.8104 0
M  V30 31 H -0.8196 -2.5444 -1.1544 0
M  V30 32 H 2.6136 0.0909 -1.2856 0
M  V30 33 H 2.3584 0.592 3.1412 0
M  V30 34 H 0.8378 1.2796 2.5905 0
M  V30 35 H -1.0249 -2.0049 3.2705 0
M  V30 36 H -1.3235 -0.3794 2.673 0
M  V30 37 H -2.8134 3.6332 -0.6992 0
M  V30 38 H -2.0996 2.6401 -1.9705 0
M  V30 39 H -0.1534 -3.4834 -3.2992 0
M  V30 40 H 3.2454 -0.8745 -3.4291 0
M  V30 41 H 0.3798 -0.2722 4.4177 0
M  V30 42 H 1.3251 -1.5423 3.6475 0
M  V30 43 H 1.8797 -2.6683 -4.4608 0
M  V30 END ATOM
M  V30 BEGIN BOND
M  V30 1 1 1 2
M  V30 2 1 1 3
M  V30 3 1 1 4
M  V30 4 1 2 5
M  V30 5 1 2 6
M  V30 6 1 2 7
M  V30 7 1 3 8
M  V30 8 1 4 9
M  V30 9 2 5 10
M  V30 10 1 5 11
M  V30 11 1 6 12
M  V30 12 1 7 13
M  V30 13 1 8 14
M  V30 14 1 10 15
M  V30 15 2 11 16
M  V30 16 1 12 17
M  V30 17 2 15 18
M  V30 18 1 9 14
M  V30 19 1 13 17
M  V30 20 1 16 18
M  V30 21 1 3 19
M  V30 22 1 3 20
M  V30 23 1 4 21
M  V30 24 1 4 22
M  V30 25 1 6 23
M  V30 26 1 6 24
M  V30 27 1 7 25
M  V30 28 1 7 26
M  V30 29 1 8 27
M  V30 30 1 8 28
M  V30 31 1 9 29
M  V30 32 1 9 30
M  V30 33 1 10 31
M  V30 34 1 11 32
M  V30 35 1 12 33
M  V30 36 1 12 34
M  V30 37 1 13 35
M  V30 38 1 13 36
M  V30 39 1 14 37
M  V30 40 1 14 38
M  V30 41 1 15 39
M  V30 42 1 16 40
M  V30 43 1 17 41
M  V30 44 1 17 42
M  V30 45 1 18 43
M  V30 END BOND
M  V30 END CTAB
M  END
>  <Column 1>
677

>  <level_0>
775

>  <index>
775

>  <Unnamed: 0>
775

>  <NO.>
787

>  <Name>
phencyclidine

>  <IUPAC_name>
1-(1-phenylcyclohexyl)piperidine

>  <SMILES>
c1ccc(C2(N3CCCCC3)CCCCC2)cc1

>  <CID>
6468

>  <logBB>
0.4

>  <BBB+/BBB->
BBB+

>  <Inchi>
InChI=1S/C17H25N/c1-4-10-16(11-5-1)17(12-6-2-7-13-17)18-14-8-3-9-15-18/h1-4-5-10-11H-2-3-6-9-12-15H2

>  <threshold>


>  <reference>
R3|R18|R25|R26|R27|R38|R41|R46|R47|R2|R2|R27|R40|R8|R21|R27|R43|R12|R35|R39|R5|

>  <group>
A

>  <Class>
1

>  <ABC>
14.02

>  <ABCGG>
11.68

>  <nAcid>
0

>  <nBase>
1

>  <nAromAtom>
6

>  <nAromBond>
6

>  <nAtom>
43

>  <nHeavyAtom>
18

>  <nSpiro>
0

>  <nBridgehead>
0

>  <nHetero>
1

>  <nN>
1

>  <nO>
0

>  <nF>
0

>  <BalabanJ>
1.77

>  <BertzCT>
358.46

>  <nBonds>
45

>  <nBondsO>
20

>  <nBondsS>
39

>  <nBondsD>
0

>  <nBondsT>
0

>  <nBondsA>
6

>  <nBondsM>
6

>  <nBondsKS>
42

>  <nBondsKD>
3

>  <RNCG>
0.3

>  <RPCG>
0.06

>  <FCSP3>
0.65

>  <SZ>
22.33

>  <Sm>
20.26

>  <Sv>
24.53

>  <Sse>
41.76

>  <Sp>
27.64

>  <Si>
48.48

>  <MZ>
0.52

>  <Mm>
0.47

>  <Mv>
0.57

>  <Mse>
0.97

>  <Mp>
0.64

>  <Mi>
1.13

>  <NsCH3>
0

>  <NdCH2>
0

>  <NssCH2>
10

>  <NtCH>
0

>  <NdsCH>
0

>  <NaaCH>
5

>  <NsssCH>
0

>  <NddC>
0

>  <NtsC>
0

>  <NdssC>
0

>  <NaasC>
1

>  <NaaaC>
0

>  <NssssC>
1

>  <NsNH3>
0

>  <NsNH2>
0

>  <NssNH2>
0

>  <NdNH>
0

>  <NssNH>
0

>  <NaaNH>
0

>  <NtN>
0

>  <NsssNH>
0

>  <NdsN>
0

>  <NaaN>
0

>  <NsssN>
1

>  <NddsN>
0

>  <NaasN>
0

>  <NssssN>
0

>  <NsOH>
0

>  <NdO>
0

>  <NssO>
0

>  <NaaO>
0

>  <NsF>
0

>  <NsSiH3>
0

>  <NssSiH2>
0

>  <NsssSiH>
0

>  <NssssSi>
0

>  <NsPH2>
0

>  <NssPH>
0

>  <NsssP>
0

>  <NdsssP>
0

>  <NsssssP>
0

>  <NsSH>
0

>  <NdS>
0

>  <NssS>
0

>  <NaaS>
0

>  <NdssS>
0

>  <NddssS>
0

>  <NsCl>
0

>  <NsBr>
0

>  <NsI>
0

>  <fragCpx>
94.01

>  <fMF>
0.42

>  <nHBAcc>
1

>  <nHBDon>
0

>  <Kier1>
13.01

>  <Kier2>
5.97

>  <Lipinski>
1

>  <GhoseFilter>
1

>  <FilterItLogS>
-4.03

>  <VMcGowan>
214.89

>  <LabuteASA>
111.19

>  <PEOE_VSA1>
0

>  <PEOE_VSA2>
4.9

>  <PEOE_VSA3>
0

>  <PEOE_VSA4>
0

>  <PEOE_VSA5>
0

>  <PEOE_VSA6>
56.02

>  <PEOE_VSA7>
44.34

>  <PEOE_VSA8>
5.54

>  <PEOE_VSA9>
0

>  <PEOE_VSA10>
0

>  <PEOE_VSA11>
0

>  <PEOE_VSA12>
0

>  <PEOE_VSA13>
0

>  <SMR_VSA1>
0

>  <SMR_VSA2>
0

>  <SMR_VSA3>
4.9

>  <SMR_VSA4>
0

>  <SMR_VSA5>
56.91

>  <SMR_VSA6>
13.09

>  <SMR_VSA7>
35.9

>  <SMR_VSA8>
0

>  <SMR_VSA9>
0

>  <SlogP_VSA1>
0

>  <SlogP_VSA2>
17.99

>  <SlogP_VSA3>
5.54

>  <SlogP_VSA4>
0

>  <SlogP_VSA5>
56.93

>  <SlogP_VSA6>
30.33

>  <SlogP_VSA7>
0

>  <SlogP_VSA8>
0

>  <SlogP_VSA9>
0

>  <SlogP_VSA10>
0

>  <SlogP_VSA11>
0

>  <EState_VSA1>
0

>  <EState_VSA2>
0

>  <EState_VSA3>
5.54

>  <EState_VSA4>
0

>  <EState_VSA5>
64.46

>  <EState_VSA6>
5.56

>  <EState_VSA7>
0

>  <EState_VSA8>
35.23

>  <EState_VSA9>
0

>  <EState_VSA10>
0

>  <VSA_EState1>
0

>  <VSA_EState2>
2.81

>  <VSA_EState3>
0

>  <VSA_EState4>
1.95

>  <VSA_EState5>
0

>  <VSA_EState6>
11.31

>  <VSA_EState7>
11.22

>  <VSA_EState8>
2.63

>  <VSA_EState9>
0

>  <apol>
46.16

>  <bpol>
26.79

>  <nRing>
3

>  <nHRing>
1

>  <naRing>
1

>  <naHRing>
0

>  <nARing 2>
2

>  <nAHRing 2>
1

>  <nFRing>
0

>  <nFHRing>
0

>  <nFaRing>
0

>  <nFaHRing>
0

>  <nFARing 2>
0

>  <nFAHRing 2>
0

>  <nRot>
2

>  <SLogP>
4.33

>  <SMR>
76.63

>  <TopoPSA(NO)>
3.24

>  <TopoPSA>
3.24

>  <JGI1>
0.13

>  <JGI2>
0.08

>  <JGI3>
0.04

>  <JGI4>
0.01

>  <JGI5>
0.01

>  <Diameter>
8

>  <Radius>
4

>  <TMWC10>
110.96

>  <TSRW10>
51.42

>  <MW>
243.2

>  <AMW>
5.66

>  <WPath>
549

>  <WPol>
29

>  <Zagreb1>
94

>  <Zagreb2>
112

>  <mZagreb2>
4.08

>  <yes>


>  <nAR-cont>
1

>  <nHA-cont>
0.991161285

>  <MWHBN>
0.064123647

>  <MWHBN-cont>
0.487442316

>  <TPSA-cont>
0.977382788

>  <pka_cont>
0.97

>  <yes.1>


>  <BBB_SCORE>
5.162090335

>  <MMFF94 Energy>
37.275

$$$$
Compound 557
Actelion Java MolfileCreator 2.0

  0  0  0  0  0  0              0 V3000
M  V30 BEGIN CTAB
M  V30 COUNTS 56 58 0 0 0
M  V30 BEGIN ATOM
M  V30 1 F -1.4349 -1.1956 4.5492 0
M  V30 2 C -0.1374 -0.9679 4.8452 0
M  V30 3 F 0.6507 -1.657 3.9933 0
M  V30 4 F 0.0929 -1.4304 6.0947 0
M  V30 5 O 0.1595 0.4174 4.8141 0
M  V30 6 C 0.0255 1.0699 3.6233 0
M  V30 7 C -0.4551 0.5344 2.4309 0
M  V30 8 C 0.4192 2.4072 3.6469 0
M  V30 9 C -0.537 1.3225 1.2602 0
M  V30 10 C 0.3442 3.2008 2.4972 0
M  V30 11 C -0.1307 2.6696 1.297 0
M  V30 12 C -1.0472 0.6718 -0.012 0
M  V30 13 O -0.2439 3.3613 0.1233 0
M  V30 14 N -0.0383 -0.2334 -0.5732 0
M  V30 15 C 0.1753 4.7257 0.0422 0
M  V30 16 C -0.56 -1.0177 -1.7152 0
M  V30 17 C 1.6785 4.8017 -0.2095 0
M  V30 18 C -0.579 5.3415 -1.1348 0
M  V30 19 C 0.291 -2.3165 -1.9692 0
M  V30 20 C -0.5594 -0.1485 -2.9852 0
M  V30 21 N -0.1625 -3.047 -3.169 0
M  V30 22 C 0.2592 -3.2495 -0.7609 0
M  V30 23 C -0.9623 -0.9644 -4.2105 0
M  V30 24 C -0.0937 -2.208 -4.3616 0
M  V30 25 C 1.3993 -3.3966 0.0452 0
M  V30 26 C -0.9078 -3.9465 -0.408 0
M  V30 27 C 1.3691 -4.2125 1.1776 0
M  V30 28 C -0.9349 -4.7644 0.7225 0
M  V30 29 C 0.2025 -4.8951 1.516 0
M  V30 30 H -0.7771 -0.5019 2.3638 0
M  V30 31 H 0.7963 2.8438 4.5693 0
M  V30 32 H 0.675 4.2298 2.5808 0
M  V30 33 H -1.3385 1.4305 -0.7446 0
M  V30 34 H -1.963 0.1208 0.2397 0
M  V30 35 H 0.2362 -0.8822 0.1645 0
M  V30 36 H -0.1086 5.2908 0.9367 0
M  V30 37 H -1.5918 -1.3299 -1.5007 0
M  V30 38 H 2.0052 5.838 -0.3401 0
M  V30 39 H 2.2435 4.3679 0.621 0
M  V30 40 H 1.9537 4.232 -1.1041 0
M  V30 41 H -0.3134 6.3942 -1.2715 0
M  V30 42 H -1.6601 5.2735 -0.9707 0
M  V30 43 H -0.3681 4.8012 -2.0645 0
M  V30 44 H 1.3356 -2.0176 -2.1392 0
M  V30 45 H -1.2495 0.6963 -2.8826 0
M  V30 46 H 0.4405 0.2742 -3.1498 0
M  V30 47 H 0.438 -3.8623 -3.2907 0
M  V30 48 H -0.8756 -0.3433 -5.1093 0
M  V30 49 H -2.0167 -1.2564 -4.125 0
M  V30 50 H 0.9453 -1.9256 -4.5696 0
M  V30 51 H -0.4453 -2.7879 -5.2218 0
M  V30 52 H 2.3169 -2.8645 -0.1973 0
M  V30 53 H -1.8023 -3.8546 -1.0211 0
M  V30 54 H 2.256 -4.3128 1.7979 0
M  V30 55 H -1.8444 -5.2997 0.9821 0
M  V30 56 H 0.1808 -5.5306 2.3972 0
M  V30 END ATOM
M  V30 BEGIN BOND
M  V30 1 1 1 2
M  V30 2 1 2 3
M  V30 3 1 2 4
M  V30 4 1 2 5
M  V30 5 1 5 6
M  V30 6 2 6 7
M  V30 7 1 6 8
M  V30 8 1 7 9
M  V30 9 2 8 10
M  V30 10 2 9 11
M  V30 11 1 9 12
M  V30 12 1 11 13
M  V30 13 1 12 14
M  V30 14 1 13 15
M  V30 15 1 14 16
M  V30 16 1 15 17
M  V30 17 1 15 18
M  V30 18 1 16 19
M  V30 19 1 16 20
M  V30 20 1 19 21
M  V30 21 1 19 22
M  V30 22 1 20 23
M  V30 23 1 21 24
M  V30 24 2 22 25
M  V30 25 1 22 26
M  V30 26 1 25 27
M  V30 27 2 26 28
M  V30 28 2 27 29
M  V30 29 1 10 11
M  V30 30 1 23 24
M  V30 31 1 28 29
M  V30 32 1 7 30
M  V30 33 1 8 31
M  V30 34 1 10 32
M  V30 35 1 12 33
M  V30 36 1 12 34
M  V30 37 1 14 35
M  V30 38 1 15 36
M  V30 39 1 16 37
M  V30 40 1 17 38
M  V30 41 1 17 39
M  V30 42 1 17 40
M  V30 43 1 18 41
M  V30 44 1 18 42
M  V30 45 1 18 43
M  V30 46 1 19 44
M  V30 47 1 20 45
M  V30 48 1 20 46
M  V30 49 1 21 47
M  V30 50 1 23 48
M  V30 51 1 23 49
M  V30 52 1 24 50
M  V30 53 1 24 51
M  V30 54 1 25 52
M  V30 55 1 26 53
M  V30 56 1 27 54
M  V30 57 1 28 55
M  V30 58 1 29 56
M  V30 END BOND
M  V30 END CTAB
M  END
>  <Column 1>
678

>  <level_0>
776

>  <index>
776

>  <Unnamed: 0>
776

>  <NO.>
788

>  <Name>
pfizer compound 11

>  <IUPAC_name>
2-phenyl-n-[[2-propan-2-yloxy-5-(trifluoromethoxy)phenyl]methyl]piperidin-3-amine

>  <SMILES>
CC(C)Oc1ccc(OC(F)(F)F)cc1CNC1CCCNC1c1ccccc1

>  <CID>
9866153

>  <logBB>
0.41

>  <BBB+/BBB->
BBB+

>  <Inchi>
InChI=1S/C22H27F3N2O2/c1-15(2)28-20-11-10-18(29-22(23-24)25)13-17(20)14-27-19-9-6-12-26-21(19)16-7-4-3-5-8-16/h3-5-7-8-10-11-13-15-19-21-26-27H-6-9-12-14H2-1-2H3

>  <threshold>


>  <reference>
R2|R2|R8|R25|R27|R47|R4|R40|

>  <group>
A

>  <Class>
1

>  <ABC>
22.49

>  <ABCGG>
17.64

>  <nAcid>
0

>  <nBase>
2

>  <nAromAtom>
12

>  <nAromBond>
12

>  <nAtom>
56

>  <nHeavyAtom>
29

>  <nSpiro>
0

>  <nBridgehead>
0

>  <nHetero>
7

>  <nN>
2

>  <nO>
2

>  <nF>
3

>  <BalabanJ>
1.58

>  <BertzCT>
781.37

>  <nBonds>
58

>  <nBondsO>
31

>  <nBondsS>
46

>  <nBondsD>
0

>  <nBondsT>
0

>  <nBondsA>
12

>  <nBondsM>
12

>  <nBondsKS>
52

>  <nBondsKD>
6

>  <RNCG>
0.2

>  <RPCG>
0.24

>  <FCSP3>
0.45

>  <SZ>
36

>  <Sm>
34.01

>  <Sv>
34.2

>  <Sse>
56.84

>  <Sp>
36.06

>  <Si>
64.25

>  <MZ>
0.64

>  <Mm>
0.61

>  <Mv>
0.61

>  <Mse>
1.02

>  <Mp>
0.64

>  <Mi>
1.15

>  <NsCH3>
2

>  <NdCH2>
0

>  <NssCH2>
4

>  <NtCH>
0

>  <NdsCH>
0

>  <NaaCH>
8

>  <NsssCH>
3

>  <NddC>
0

>  <NtsC>
0

>  <NdssC>
0

>  <NaasC>
4

>  <NaaaC>
0

>  <NssssC>
1

>  <NsNH3>
0

>  <NsNH2>
0

>  <NssNH2>
0

>  <NdNH>
0

>  <NssNH>
2

>  <NaaNH>
0

>  <NtN>
0

>  <NsssNH>
0

>  <NdsN>
0

>  <NaaN>
0

>  <NsssN>
0

>  <NddsN>
0

>  <NaasN>
0

>  <NssssN>
0

>  <NsOH>
0

>  <NdO>
0

>  <NssO>
2

>  <NaaO>
0

>  <NsF>
3

>  <NsSiH3>
0

>  <NssSiH2>
0

>  <NsssSiH>
0

>  <NssssSi>
0

>  <NsPH2>
0

>  <NssPH>
0

>  <NsssP>
0

>  <NdsssP>
0

>  <NsssssP>
0

>  <NsSH>
0

>  <NdS>
0

>  <NssS>
0

>  <NaaS>
0

>  <NdssS>
0

>  <NddssS>
0

>  <NsCl>
0

>  <NsBr>
0

>  <NsI>
0

>  <fragCpx>
149.07

>  <fMF>
0.36

>  <nHBAcc>
4

>  <nHBDon>
2

>  <Kier1>
23.66

>  <Kier2>
11.04

>  <Lipinski>
1

>  <GhoseFilter>
1

>  <FilterItLogS>
-6.24

>  <VMcGowan>
299.44

>  <LabuteASA>
168.96

>  <PEOE_VSA1>
20.11

>  <PEOE_VSA2>
0

>  <PEOE_VSA3>
0

>  <PEOE_VSA4>
0

>  <PEOE_VSA5>
13.17

>  <PEOE_VSA6>
30.33

>  <PEOE_VSA7>
57

>  <PEOE_VSA8>
24.19

>  <PEOE_VSA9>
6.1

>  <PEOE_VSA10>
11.5

>  <PEOE_VSA11>
0

>  <PEOE_VSA12>
0

>  <PEOE_VSA13>
0

>  <SMR_VSA1>
22.64

>  <SMR_VSA2>
0

>  <SMR_VSA3>
10.63

>  <SMR_VSA4>
0

>  <SMR_VSA5>
57.78

>  <SMR_VSA6>
6.54

>  <SMR_VSA7>
59.66

>  <SMR_VSA8>
0

>  <SMR_VSA9>
11.5

>  <SlogP_VSA1>
20.11

>  <SlogP_VSA2>
25.05

>  <SlogP_VSA3>
6.54

>  <SlogP_VSA4>
0

>  <SlogP_VSA5>
43.86

>  <SlogP_VSA6>
48.53

>  <SlogP_VSA7>
0

>  <SlogP_VSA8>
0

>  <SlogP_VSA9>
0

>  <SlogP_VSA10>
13.17

>  <SlogP_VSA11>
11.5

>  <EState_VSA1>
6.36

>  <EState_VSA2>
23.94

>  <EState_VSA3>
17.86

>  <EState_VSA4>
19.39

>  <EState_VSA5>
23.76

>  <EState_VSA6>
0

>  <EState_VSA7>
32.05

>  <EState_VSA8>
27.5

>  <EState_VSA9>
4.74

>  <EState_VSA10>
13.17

>  <VSA_EState1>
47.74

>  <VSA_EState2>
0

>  <VSA_EState3>
7.05

>  <VSA_EState4>
1.83

>  <VSA_EState5>
0.31

>  <VSA_EState6>
14.69

>  <VSA_EState7>
-2.8

>  <VSA_EState8>
5.09

>  <VSA_EState9>
0

>  <apol>
60.22

>  <bpol>
35.04

>  <nRing>
3

>  <nHRing>
1

>  <naRing>
2

>  <naHRing>
0

>  <nARing 2>
1

>  <nAHRing 2>
1

>  <nFRing>
0

>  <nFHRing>
0

>  <nFaRing>
0

>  <nFaHRing>
0

>  <nFARing 2>
0

>  <nFAHRing 2>
0

>  <nRot>
7

>  <SLogP>
4.96

>  <SMR>
105.94

>  <TopoPSA(NO)>
42.52

>  <TopoPSA>
42.52

>  <JGI1>
0.23

>  <JGI2>
0.06

>  <JGI3>
0.05

>  <JGI4>
0.03

>  <JGI5>
0.02

>  <Diameter>
13

>  <Radius>
7

>  <TMWC10>
135.62

>  <TSRW10>
64.24

>  <MW>
408.2

>  <AMW>
7.29

>  <WPath>
2358

>  <WPol>
41

>  <Zagreb1>
148

>  <Zagreb2>
167

>  <mZagreb2>
6.29

>  <yes>


>  <nAR-cont>
0.816016

>  <nHA-cont>
0.785905698

>  <MWHBN>
0.296971485

>  <MWHBN-cont>
0.849691789

>  <TPSA-cont>
0.703183997

>  <pka_cont>
0.97

>  <yes.1>


>  <BBB_SCORE>
4.767827375

>  <MMFF94 Energy>
74.714

$$$$
Compound 558
Actelion Java MolfileCreator 2.0

  0  0  0  0  0  0              0 V3000
M  V30 BEGIN CTAB
M  V30 COUNTS 50 53 0 0 0
M  V30 BEGIN ATOM
M  V30 1 F 0.0803 -1.4465 -0.482 0
M  V30 2 C -0.0336 -0.1076 -0.5217 0
M  V30 3 C -0.3508 0.5651 0.6763 0
M  V30 4 C 0.1676 0.5523 -1.7563 0
M  V30 5 N -0.5539 -0.0878 1.8964 0
M  V30 6 C -0.4864 1.9618 0.5756 0
M  V30 7 N 0.5033 -0.1375 -2.9625 0
M  V30 8 C 0.014 1.9556 -1.789 0
M  V30 9 C 0.2352 0.3608 3.0616 0
M  V30 10 C -0.9519 -1.5053 1.9439 0
M  V30 11 F -0.8526 2.6674 1.664 0
M  V30 12 C -0.2997 2.6772 -0.6207 0
M  V30 13 C 0.4743 0.5396 -4.1653 0
M  V30 14 C 0.7937 -1.5846 -2.9891 0
M  V30 15 C 0.2034 2.672 -3.0907 0
M  V30 16 C -0.4796 -0.0161 4.387 0 CFG=1
M  V30 17 C -1.6327 -1.8395 3.3003 0 CFG=2
M  V30 18 N -0.5371 4.0525 -0.6275 0
M  V30 19 C 0.3258 1.8617 -4.3265 0
M  V30 20 C 1.8932 -2.1818 -3.8374 0
M  V30 21 C 2.0436 -2.1424 -2.351 0
M  V30 22 O 0.2793 3.8973 -3.1274 0
M  V30 23 N -0.8109 -1.4564 4.4697 0
M  V30 24 C 0.3933 0.3536 5.5848 0
M  V30 25 C -1.9389 -3.3337 3.3849 0
M  V30 26 C 0.2871 2.4666 -5.6696 0
M  V30 27 O -0.1431 3.5648 -5.9695 0
M  V30 28 O 0.7852 1.6612 -6.6307 0
M  V30 29 H 0.407 1.442 3.0594 0
M  V30 30 H 1.224 -0.1151 3.0181 0
M  V30 31 H -0.0682 -2.1406 1.8028 0
M  V30 32 H -1.6703 -1.7268 1.1448 0
M  V30 33 H 0.5797 -0.1135 -5.0282 0
M  V30 34 H -0.1138 -2.1785 -2.8975 0
M  V30 35 H -1.4131 0.5588 4.4547 0
M  V30 36 H -2.5843 -1.2933 3.3545 0
M  V30 37 H -0.2951 4.5775 -1.4714 0
M  V30 38 H -0.6615 4.5509 0.2445 0
M  V30 39 H 2.5344 -1.5275 -4.4159 0
M  V30 40 H 1.7043 -3.1418 -4.3035 0
M  V30 41 H 1.9508 -3.0698 -1.7981 0
M  V30 42 H 2.7592 -1.4457 -1.9302 0
M  V30 43 H -1.3406 -1.6295 5.3234 0
M  V30 44 H -0.1202 0.1375 6.5283 0
M  V30 45 H 1.3385 -0.2007 5.5789 0
M  V30 46 H 0.63 1.4231 5.5748 0
M  V30 47 H -2.5765 -3.6451 2.5505 0
M  V30 48 H -2.4679 -3.5755 4.3136 0
M  V30 49 H -1.0225 -3.9336 3.3511 0
M  V30 50 H 0.6997 2.2075 -7.4414 0
M  V30 END ATOM
M  V30 BEGIN BOND
M  V30 1 1 1 2
M  V30 2 2 2 3
M  V30 3 1 2 4
M  V30 4 1 3 5
M  V30 5 1 3 6
M  V30 6 1 4 7
M  V30 7 2 4 8
M  V30 8 1 5 9
M  V30 9 1 5 10
M  V30 10 1 6 11
M  V30 11 2 6 12
M  V30 12 1 7 13
M  V30 13 1 7 14
M  V30 14 1 8 15
M  V30 15 1 9 16
M  V30 16 1 10 17
M  V30 17 1 12 18
M  V30 18 2 13 19
M  V30 19 1 14 20
M  V30 20 1 14 21
M  V30 21 2 15 22
M  V30 22 1 16 23
M  V30 23 1 16 24
M  V30 24 1 17 25
M  V30 25 1 19 26
M  V30 26 2 26 27
M  V30 27 1 26 28
M  V30 28 1 8 12
M  V30 29 1 15 19
M  V30 30 1 17 23
M  V30 31 1 20 21
M  V30 32 1 9 29
M  V30 33 1 9 30
M  V30 34 1 10 31
M  V30 35 1 10 32
M  V30 36 1 13 33
M  V30 37 1 14 34
M  V30 38 1 16 35
M  V30 39 1 17 36
M  V30 40 1 18 37
M  V30 41 1 18 38
M  V30 42 1 20 39
M  V30 43 1 20 40
M  V30 44 1 21 41
M  V30 45 1 21 42
M  V30 46 1 23 43
M  V30 47 1 24 44
M  V30 48 1 24 45
M  V30 49 1 24 46
M  V30 50 1 25 47
M  V30 51 1 25 48
M  V30 52 1 25 49
M  V30 53 1 28 50
M  V30 END BOND
M  V30 BEGIN COLLECTION
M  V30 MDLV30/STEABS ATOMS=(2 16 17)
M  V30 END COLLECTION
M  V30 END CTAB
M  END
>  <Column 1>
679

>  <level_0>
777

>  <index>
777

>  <Unnamed: 0>
777

>  <NO.>
789

>  <Name>
sparfloxacin

>  <IUPAC_name>
5-amino-1-cyclopropyl-7-[(3r-5s)-3-5-dimethylpiperazin-1-yl]-6-8-difluoro-4-oxoquinoline-3-carboxylic acid

>  <SMILES>
C[C@H]1CN(c2c(F)c(N)c3c(=O)c(C(=O)O)cn(C4CC4)c3c2F)C[C@@H](C)N1

>  <CID>
60464

>  <logBB>
0.41

>  <BBB+/BBB->
BBB+

>  <Inchi>
InChI=1S/C19H22F2N4O3/c1-8-5-24(6-9(2)23-8)17-13(20)15(22)12-16(14(17)21)25(10-3-4-10)7-11(18(12)26)19(27)28/h7-10-23H-3-6-22H2-1-2H3-(H-27-28)/t8--9+

>  <threshold>


>  <reference>
R20|R25|

>  <group>
A

>  <Class>
1

>  <ABC>
22.31

>  <ABCGG>
18.63

>  <nAcid>
1

>  <nBase>
1

>  <nAromAtom>
10

>  <nAromBond>
11

>  <nAtom>
50

>  <nHeavyAtom>
28

>  <nSpiro>
0

>  <nBridgehead>
0

>  <nHetero>
9

>  <nN>
4

>  <nO>
3

>  <nF>
2

>  <BalabanJ>
1.64

>  <BertzCT>
1038.12

>  <nBonds>
53

>  <nBondsO>
31

>  <nBondsS>
40

>  <nBondsD>
2

>  <nBondsT>
0

>  <nBondsA>
11

>  <nBondsM>
13

>  <nBondsKS>
47

>  <nBondsKD>
6

>  <RNCG>
0.16

>  <RPCG>
0.11

>  <FCSP3>
0.47

>  <SZ>
34.33

>  <Sm>
32.67

>  <Sv>
31.43

>  <Sse>
51.32

>  <Sp>
32.53

>  <Si>
57.45

>  <MZ>
0.69

>  <Mm>
0.65

>  <Mv>
0.63

>  <Mse>
1.03

>  <Mp>
0.65

>  <Mi>
1.15

>  <NsCH3>
2

>  <NdCH2>
0

>  <NssCH2>
4

>  <NtCH>
0

>  <NdsCH>
0

>  <NaaCH>
1

>  <NsssCH>
3

>  <NddC>
0

>  <NtsC>
0

>  <NdssC>
1

>  <NaasC>
5

>  <NaaaC>
2

>  <NssssC>
0

>  <NsNH3>
0

>  <NsNH2>
1

>  <NssNH2>
0

>  <NdNH>
0

>  <NssNH>
1

>  <NaaNH>
0

>  <NtN>
0

>  <NsssNH>
0

>  <NdsN>
0

>  <NaaN>
0

>  <NsssN>
1

>  <NddsN>
0

>  <NaasN>
1

>  <NssssN>
0

>  <NsOH>
1

>  <NdO>
2

>  <NssO>
0

>  <NaaO>
0

>  <NsF>
2

>  <NsSiH3>
0

>  <NssSiH2>
0

>  <NsssSiH>
0

>  <NssssSi>
0

>  <NsPH2>
0

>  <NssPH>
0

>  <NsssP>
0

>  <NdsssP>
0

>  <NsssssP>
0

>  <NsSH>
0

>  <NdS>
0

>  <NssS>
0

>  <NaaS>
0

>  <NdssS>
0

>  <NddssS>
0

>  <NsCl>
0

>  <NsBr>
0

>  <NsI>
0

>  <fragCpx>
205.09

>  <fMF>
0.38

>  <nHBAcc>
6

>  <nHBDon>
3

>  <Kier1>
21.24

>  <Kier2>
7.92

>  <Lipinski>
1

>  <GhoseFilter>
1

>  <FilterItLogS>
-3.54

>  <VMcGowan>
270.38

>  <LabuteASA>
159.28

>  <PEOE_VSA1>
25.62

>  <PEOE_VSA2>
4.79

>  <PEOE_VSA3>
13.58

>  <PEOE_VSA4>
0

>  <PEOE_VSA5>
0

>  <PEOE_VSA6>
0

>  <PEOE_VSA7>
26.69

>  <PEOE_VSA8>
37.41

>  <PEOE_VSA9>
16.59

>  <PEOE_VSA10>
11.25

>  <PEOE_VSA11>
11.63

>  <PEOE_VSA12>
5.43

>  <PEOE_VSA13>
0

>  <SMR_VSA1>
18.68

>  <SMR_VSA2>
0

>  <SMR_VSA3>
9.88

>  <SMR_VSA4>
0

>  <SMR_VSA5>
44.81

>  <SMR_VSA6>
23.72

>  <SMR_VSA7>
33.62

>  <SMR_VSA8>
0

>  <SMR_VSA9>
0

>  <SlogP_VSA1>
21.38

>  <SlogP_VSA2>
40.82

>  <SlogP_VSA3>
0

>  <SlogP_VSA4>
11.63

>  <SlogP_VSA5>
43.09

>  <SlogP_VSA6>
10.99

>  <SlogP_VSA7>
0

>  <SlogP_VSA8>
10.9

>  <SlogP_VSA9>
0

>  <SlogP_VSA10>
20.16

>  <SlogP_VSA11>
0

>  <EState_VSA1>
39.67

>  <EState_VSA2>
29.33

>  <EState_VSA3>
13.09

>  <EState_VSA4>
19.04

>  <EState_VSA5>
4.57

>  <EState_VSA6>
4.9

>  <EState_VSA7>
13.85

>  <EState_VSA8>
5.32

>  <EState_VSA9>
5.73

>  <EState_VSA10>
14.7

>  <VSA_EState1>
32.25

>  <VSA_EState2>
25.72

>  <VSA_EState3>
12.24

>  <VSA_EState4>
3.54

>  <VSA_EState5>
-3.34

>  <VSA_EState6>
-0.1

>  <VSA_EState7>
2.6

>  <VSA_EState8>
4.6

>  <VSA_EState9>
0

>  <apol>
54.32

>  <bpol>
29.45

>  <nRing>
4

>  <nHRing>
2

>  <naRing>
2

>  <naHRing>
1

>  <nARing 2>
2

>  <nAHRing 2>
1

>  <nFRing>
1

>  <nFHRing>
1

>  <nFaRing>
1

>  <nFaHRing>
1

>  <nFARing 2>
0

>  <nFAHRing 2>
0

>  <nRot>
3

>  <SLogP>
2.08

>  <SMR>
102.04

>  <TopoPSA(NO)>
100.59

>  <TopoPSA>
100.59

>  <JGI1>
0.21

>  <JGI2>
0.08

>  <JGI3>
0.06

>  <JGI4>
0.05

>  <JGI5>
0.04

>  <Diameter>
11

>  <Radius>
6

>  <TMWC10>
138.16

>  <TSRW10>
82.66

>  <MW>
392.17

>  <AMW>
7.84

>  <WPath>
1781

>  <WPol>
55

>  <Zagreb1>
158

>  <Zagreb2>
196

>  <mZagreb2>
5.92

>  <yes>


>  <nAR-cont>
1

>  <nHA-cont>
0.82432561

>  <MWHBN>
0.45447011

>  <MWHBN-cont>
0

>  <TPSA-cont>
0.297819337

>  <pka_cont>
0.97

>  <yes.1>


>  <BBB_SCORE>
2.904964285

>  <MMFF94 Energy>
168.22

$$$$
Compound 559
Actelion Java MolfileCreator 2.0

  0  0  0  0  0  0              0 V3000
M  V30 BEGIN CTAB
M  V30 COUNTS 23 24 0 0 0
M  V30 BEGIN ATOM
M  V30 1 Br 4.7902 -0.4195 -2.9393 0
M  V30 2 C 3.3774 -0.2114 -1.7011 0
M  V30 3 C 2.5139 -1.2735 -1.4539 0
M  V30 4 C 3.2197 0.9965 -1.0321 0
M  V30 5 C 1.4676 -1.1233 -0.5352 0
M  V30 6 C 2.1731 1.1425 -0.1181 0
M  V30 7 Cl 0.5337 -2.5424 -0.1874 0
M  V30 8 C 1.2668 0.0941 0.1472 0
M  V30 9 Cl 2.019 2.6669 0.6931 0
M  V30 10 N 0.1726 0.3282 1.0091 0
M  V30 11 C -1.1274 0.1342 0.6737 0
M  V30 12 N -1.633 -0.127 -0.4972 0
M  V30 13 N -2.0045 0.2574 1.699 0
M  V30 14 C -3.1031 -0.2038 -0.2662 0
M  V30 15 C -3.3265 -0.0758 1.2451 0
M  V30 16 H 2.6543 -2.224 -1.9628 0
M  V30 17 H 3.899 1.8236 -1.2207 0
M  V30 18 H 0.3393 1.0246 1.7229 0
M  V30 19 H -1.731 0.1137 2.6589 0
M  V30 20 H -3.4943 -1.1534 -0.6449 0
M  V30 21 H -3.5951 0.6124 -0.806 0
M  V30 22 H -4.0512 0.7066 1.4863 0
M  V30 23 H -3.6589 -1.0243 1.678 0
M  V30 END ATOM
M  V30 BEGIN BOND
M  V30 1 1 1 2
M  V30 2 2 2 3
M  V30 3 1 2 4
M  V30 4 1 3 5
M  V30 5 2 4 6
M  V30 6 1 5 7
M  V30 7 2 5 8
M  V30 8 1 6 9
M  V30 9 1 8 10
M  V30 10 1 10 11
M  V30 11 2 11 12
M  V30 12 1 11 13
M  V30 13 1 12 14
M  V30 14 1 13 15
M  V30 15 1 6 8
M  V30 16 1 14 15
M  V30 17 1 3 16
M  V30 18 1 4 17
M  V30 19 1 10 18
M  V30 20 1 13 19
M  V30 21 1 14 20
M  V30 22 1 14 21
M  V30 23 1 15 22
M  V30 24 1 15 23
M  V30 END BOND
M  V30 END CTAB
M  END
>  <Column 1>
680

>  <level_0>
778

>  <index>
778

>  <Unnamed: 0>
778

>  <NO.>
790

>  <Name>
tz-21

>  <IUPAC_name>
n-(4-bromo-2-6-dichlorophenyl)-4-5-dihydro-1h-imidazol-2-amine

>  <SMILES>
Clc1cc(Br)cc(Cl)c1NC1=NCCN1

>  <CID>
12406842

>  <logBB>
0.41

>  <BBB+/BBB->
BBB+

>  <Inchi>
InChI=1S/C9H8BrCl2N3/c10-5-3-6(11)8(7(12)4-5)15-9-13-1-2-14-9/h3-4H-1-2H2-(H2-13-14-15)

>  <threshold>


>  <reference>
R2|R2|R2|R2|R8|R25|R27|R27|R46|R47|R4|R40|

>  <group>
A

>  <Class>
1

>  <ABC>
11.56

>  <ABCGG>
10.55

>  <nAcid>
0

>  <nBase>
3

>  <nAromAtom>
6

>  <nAromBond>
6

>  <nAtom>
23

>  <nHeavyAtom>
15

>  <nSpiro>
0

>  <nBridgehead>
0

>  <nHetero>
6

>  <nN>
3

>  <nO>
0

>  <nF>
0

>  <BalabanJ>
1.88

>  <BertzCT>
396.81

>  <nBonds>
24

>  <nBondsO>
16

>  <nBondsS>
17

>  <nBondsD>
1

>  <nBondsT>
0

>  <nBondsA>
6

>  <nBondsM>
7

>  <nBondsKS>
20

>  <nBondsKD>
4

>  <RNCG>
0.3

>  <RPCG>
0.16

>  <FCSP3>
0.22

>  <SZ>
25.33

>  <Sm>
25.73

>  <Sv>
16.91

>  <Sse>
23.74

>  <Sp>
18.61

>  <Si>
25.89

>  <MZ>
1.1

>  <Mm>
1.12

>  <Mv>
0.74

>  <Mse>
1.03

>  <Mp>
0.81

>  <Mi>
1.13

>  <NsCH3>
0

>  <NdCH2>
0

>  <NssCH2>
2

>  <NtCH>
0

>  <NdsCH>
0

>  <NaaCH>
2

>  <NsssCH>
0

>  <NddC>
0

>  <NtsC>
0

>  <NdssC>
1

>  <NaasC>
4

>  <NaaaC>
0

>  <NssssC>
0

>  <NsNH3>
0

>  <NsNH2>
0

>  <NssNH2>
0

>  <NdNH>
0

>  <NssNH>
2

>  <NaaNH>
0

>  <NtN>
0

>  <NsssNH>
0

>  <NdsN>
1

>  <NaaN>
0

>  <NsssN>
0

>  <NddsN>
0

>  <NaasN>
0

>  <NssssN>
0

>  <NsOH>
0

>  <NdO>
0

>  <NssO>
0

>  <NaaO>
0

>  <NsF>
0

>  <NsSiH3>
0

>  <NssSiH2>
0

>  <NsssSiH>
0

>  <NssssSi>
0

>  <NsPH2>
0

>  <NssPH>
0

>  <NsssP>
0

>  <NdsssP>
0

>  <NsssssP>
0

>  <NsSH>
0

>  <NdS>
0

>  <NssS>
0

>  <NaaS>
0

>  <NdssS>
0

>  <NddssS>
0

>  <NsCl>
2

>  <NsBr>
1

>  <NsI>
0

>  <fragCpx>
46.06

>  <fMF>
0.52

>  <nHBAcc>
3

>  <nHBDon>
2

>  <Kier1>
11.48

>  <Kier2>
4.89

>  <Lipinski>
1

>  <GhoseFilter>
1

>  <FilterItLogS>
-5.13

>  <VMcGowan>
170.67

>  <LabuteASA>
105.99

>  <PEOE_VSA1>
10.63

>  <PEOE_VSA2>
4.99

>  <PEOE_VSA3>
0

>  <PEOE_VSA4>
0

>  <PEOE_VSA5>
0

>  <PEOE_VSA6>
39.13

>  <PEOE_VSA7>
12.13

>  <PEOE_VSA8>
11.02

>  <PEOE_VSA9>
22.28

>  <PEOE_VSA10>
0

>  <PEOE_VSA11>
5.96

>  <PEOE_VSA12>
0

>  <PEOE_VSA13>
0

>  <SMR_VSA1>
0

>  <SMR_VSA2>
0

>  <SMR_VSA3>
5.32

>  <SMR_VSA4>
4.99

>  <SMR_VSA5>
0

>  <SMR_VSA6>
18.41

>  <SMR_VSA7>
26.65

>  <SMR_VSA8>
0

>  <SMR_VSA9>
0

>  <SlogP_VSA1>
10.63

>  <SlogP_VSA2>
19.05

>  <SlogP_VSA3>
0

>  <SlogP_VSA4>
0

>  <SlogP_VSA5>
0

>  <SlogP_VSA6>
21.6

>  <SlogP_VSA7>
10.05

>  <SlogP_VSA8>
0

>  <SlogP_VSA9>
0

>  <SlogP_VSA10>
5.69

>  <SlogP_VSA11>
0

>  <EState_VSA1>
0

>  <EState_VSA2>
0

>  <EState_VSA3>
21.69

>  <EState_VSA4>
17.56

>  <EState_VSA5>
0

>  <EState_VSA6>
12.13

>  <EState_VSA7>
0

>  <EState_VSA8>
31.56

>  <EState_VSA9>
23.2

>  <EState_VSA10>
0

>  <VSA_EState1>
0.85

>  <VSA_EState2>
4.2

>  <VSA_EState3>
7.26

>  <VSA_EState4>
0.68

>  <VSA_EState5>
0.71

>  <VSA_EState6>
3.57

>  <VSA_EState7>
0

>  <VSA_EState8>
1.61

>  <VSA_EState9>
0

>  <apol>
31.07

>  <bpol>
12.71

>  <nRing>
2

>  <nHRing>
1

>  <naRing>
1

>  <naHRing>
0

>  <nARing 2>
1

>  <nAHRing 2>
1

>  <nFRing>
0

>  <nFHRing>
0

>  <nFaRing>
0

>  <nFaHRing>
0

>  <nFARing 2>
0

>  <nFAHRing 2>
0

>  <nRot>
1

>  <SLogP>
3.13

>  <SMR>
68.09

>  <TopoPSA(NO)>
36.42

>  <TopoPSA>
36.42

>  <JGI1>
0.22

>  <JGI2>
0.07

>  <JGI3>
0.06

>  <JGI4>
0.05

>  <JGI5>
0.02

>  <Diameter>
8

>  <Radius>
4

>  <TMWC10>
100.6

>  <TSRW10>
59.99

>  <MW>
306.93

>  <AMW>
13.34

>  <WPath>
365

>  <WPol>
19

>  <Zagreb1>
76

>  <Zagreb2>
87

>  <mZagreb2>
3.31

>  <yes>


>  <nAR-cont>
0.816016

>  <nHA-cont>
0.92539861

>  <MWHBN>
0.285397612

>  <MWHBN-cont>
0.882057745

>  <TPSA-cont>
0.745765785

>  <pka_cont>
0.97

>  <yes.1>


>  <BBB_SCORE>
5.041032797

>  <MMFF94 Energy>
-27.621

$$$$
Compound 560
Actelion Java MolfileCreator 2.0

  0  0  0  0  0  0              0 V3000
M  V30 BEGIN CTAB
M  V30 COUNTS 12 11 0 0 0
M  V30 BEGIN ATOM
M  V30 1 Cl 1.7208 1.9791 -0.688 0
M  V30 2 C 0.7784 0.5923 -0.0334 0 CFG=2
M  V30 3 O 0.4933 -0.2555 -1.149 0
M  V30 4 C -0.4536 1.1013 0.7363 0
M  V30 5 C -0.1779 -1.4381 -0.7663 0
M  V30 6 F -0.1182 1.9532 1.7307 0
M  V30 7 F -1.3338 1.7309 -0.0746 0
M  V30 8 F -1.1232 0.072 1.3124 0
M  V30 9 F 0.0702 -2.3666 -1.7165 0
M  V30 10 F 0.3635 -1.895 0.3852 0
M  V30 11 H 1.4613 0.0806 0.6523 0
M  V30 12 H -1.257 -1.2933 -0.6631 0
M  V30 END ATOM
M  V30 BEGIN BOND
M  V30 1 1 1 2
M  V30 2 1 2 3
M  V30 3 1 2 4
M  V30 4 1 3 5
M  V30 5 1 4 6
M  V30 6 1 4 7
M  V30 7 1 4 8
M  V30 8 1 5 9
M  V30 9 1 5 10
M  V30 10 1 2 11
M  V30 11 1 5 12
M  V30 END BOND
M  V30 BEGIN COLLECTION
M  V30 MDLV30/STERAC1 ATOMS=(1 2)
M  V30 END COLLECTION
M  V30 END CTAB
M  END
>  <Column 1>
681

>  <level_0>
779

>  <index>
779

>  <Unnamed: 0>
779

>  <NO.>
791

>  <Name>
isoflurane

>  <IUPAC_name>
2-chloro-2-(difluoromethoxy)-1-1-1-trifluoroethane

>  <SMILES>
FC(F)OC(Cl)C(F)(F)F

>  <CID>
3763

>  <logBB>
0.42

>  <BBB+/BBB->
BBB+

>  <Inchi>
InChI=1S/C3H2ClF5O/c4-1(3(7-8)9)10-2(5)6/h1-2H

>  <threshold>


>  <reference>
R3|R38|R41|R47|R40|R2|R2|R8|R21|R27|R27|R11|R12|R17|R20|R22|R25|R32|R33|R35|R36|R39|R43|R44|R49|

>  <group>
A

>  <Class>
1

>  <ABC>
7.11

>  <ABCGG>
7.43

>  <nAcid>
0

>  <nBase>
0

>  <nAromAtom>
0

>  <nAromBond>
0

>  <nAtom>
12

>  <nHeavyAtom>
10

>  <nSpiro>
0

>  <nBridgehead>
0

>  <nHetero>
7

>  <nN>
0

>  <nO>
1

>  <nF>
5

>  <BalabanJ>
3.73

>  <BertzCT>
101.56

>  <nBonds>
11

>  <nBondsO>
9

>  <nBondsS>
11

>  <nBondsD>
0

>  <nBondsT>
0

>  <nBondsA>
0

>  <nBondsM>
0

>  <nBondsKS>
11

>  <nBondsKD>
0

>  <RNCG>
0.24

>  <RPCG>
0.35

>  <FCSP3>
1

>  <SZ>
15

>  <Sm>
15.36

>  <Sv>
8.58

>  <Sse>
14.77

>  <Sp>
7.25

>  <Si>
15.51

>  <MZ>
1.25

>  <Mm>
1.28

>  <Mv>
0.72

>  <Mse>
1.23

>  <Mp>
0.6

>  <Mi>
1.29

>  <NsCH3>
0

>  <NdCH2>
0

>  <NssCH2>
0

>  <NtCH>
0

>  <NdsCH>
0

>  <NaaCH>
0

>  <NsssCH>
2

>  <NddC>
0

>  <NtsC>
0

>  <NdssC>
0

>  <NaasC>
0

>  <NaaaC>
0

>  <NssssC>
1

>  <NsNH3>
0

>  <NsNH2>
0

>  <NssNH2>
0

>  <NdNH>
0

>  <NssNH>
0

>  <NaaNH>
0

>  <NtN>
0

>  <NsssNH>
0

>  <NdsN>
0

>  <NaaN>
0

>  <NsssN>
0

>  <NddsN>
0

>  <NaasN>
0

>  <NssssN>
0

>  <NsOH>
0

>  <NdO>
0

>  <NssO>
1

>  <NaaO>
0

>  <NsF>
5

>  <NsSiH3>
0

>  <NssSiH2>
0

>  <NsssSiH>
0

>  <NssssSi>
0

>  <NsPH2>
0

>  <NssPH>
0

>  <NsssP>
0

>  <NdsssP>
0

>  <NsssssP>
0

>  <NsSH>
0

>  <NdS>
0

>  <NssS>
0

>  <NaaS>
0

>  <NdssS>
0

>  <NddssS>
0

>  <NsCl>
1

>  <NsBr>
0

>  <NsI>
0

>  <fragCpx>
9.07

>  <fMF>
0

>  <nHBAcc>
1

>  <nHBDon>
0

>  <Kier1>
10

>  <Kier2>
3.41

>  <Lipinski>
1

>  <GhoseFilter>
0

>  <FilterItLogS>
-1.78

>  <VMcGowan>
80.04

>  <LabuteASA>
57.71

>  <PEOE_VSA1>
0

>  <PEOE_VSA2>
4.74

>  <PEOE_VSA3>
0

>  <PEOE_VSA4>
21.95

>  <PEOE_VSA5>
0

>  <PEOE_VSA6>
11.6

>  <PEOE_VSA7>
0

>  <PEOE_VSA8>
0

>  <PEOE_VSA9>
0

>  <PEOE_VSA10>
0

>  <PEOE_VSA11>
0

>  <PEOE_VSA12>
5.56

>  <PEOE_VSA13>
0

>  <SMR_VSA1>
26.69

>  <SMR_VSA2>
0

>  <SMR_VSA3>
0

>  <SMR_VSA4>
0

>  <SMR_VSA5>
18.35

>  <SMR_VSA6>
0

>  <SMR_VSA7>
0

>  <SMR_VSA8>
0

>  <SMR_VSA9>
0

>  <SlogP_VSA1>
0

>  <SlogP_VSA2>
18.35

>  <SlogP_VSA3>
4.74

>  <SlogP_VSA4>
0

>  <SlogP_VSA5>
0

>  <SlogP_VSA6>
0

>  <SlogP_VSA7>
0

>  <SlogP_VSA8>
0

>  <SlogP_VSA9>
0

>  <SlogP_VSA10>
21.95

>  <SlogP_VSA11>
0

>  <EState_VSA1>
18.35

>  <EState_VSA2>
0

>  <EState_VSA3>
0

>  <EState_VSA4>
0

>  <EState_VSA5>
0

>  <EState_VSA6>
0

>  <EState_VSA7>
0

>  <EState_VSA8>
16.34

>  <EState_VSA9>
0

>  <EState_VSA10>
21.95

>  <VSA_EState1>
58.6

>  <VSA_EState2>
0

>  <VSA_EState3>
0

>  <VSA_EState4>
-2.94

>  <VSA_EState5>
0

>  <VSA_EState6>
0

>  <VSA_EState7>
-4.95

>  <VSA_EState8>
-3.51

>  <VSA_EState9>
0

>  <apol>
12.11

>  <bpol>
9.82

>  <nRing>
0

>  <nHRing>
0

>  <naRing>
0

>  <naHRing>
0

>  <nARing 2>
0

>  <nAHRing 2>
0

>  <nFRing>
0

>  <nFHRing>
0

>  <nFaRing>
0

>  <nFaHRing>
0

>  <nFARing 2>
0

>  <nFAHRing 2>
0

>  <nRot>
2

>  <SLogP>
2.35

>  <SMR>
22.79

>  <TopoPSA(NO)>
9.23

>  <TopoPSA>
9.23

>  <JGI1>
0.5

>  <JGI2>
0.12

>  <JGI3>
0.06

>  <JGI4>
0.07

>  <JGI5>
0

>  <Diameter>
5

>  <Radius>
3

>  <TMWC10>
81.48

>  <TSRW10>
39

>  <MW>
183.97

>  <AMW>
15.33

>  <WPath>
123

>  <WPol>
10

>  <Zagreb1>
44

>  <Zagreb2>
45

>  <mZagreb2>
2.17

>  <yes>


>  <nAR-cont>
0.336376

>  <nHA-cont>
0.645914733

>  <MWHBN>
0.073726989

>  <MWHBN-cont>
0.561339483

>  <TPSA-cont>
0.935568869

>  <pka_cont>
0.97

>  <yes.1>


>  <BBB_SCORE>
4.180437695

>  <MMFF94 Energy>
22.981

$$$$
Compound 561
Actelion Java MolfileCreator 2.0

  0  0  0  0  0  0              0 V3000
M  V30 BEGIN CTAB
M  V30 COUNTS 29 29 0 0 0
M  V30 BEGIN ATOM
M  V30 1 O -0.5443 -2.4124 -0.2332 0
M  V30 2 C -0.5662 -1.1918 -0.2529 0
M  V30 3 O 0.4221 -0.374 0.1878 0
M  V30 4 C -1.7103 -0.3971 -0.7763 0
M  V30 5 C 1.5659 -1.0629 0.7104 0
M  V30 6 C -2.8223 -1.0851 -1.2749 0
M  V30 7 C -1.7122 1.0023 -0.791 0
M  V30 8 C 2.58 -0.0173 1.1607 0
M  V30 9 C -3.9213 -0.3805 -1.7777 0
M  V30 10 C -2.8167 1.6983 -1.2961 0
M  V30 11 C 3.8379 -0.6625 1.7346 0
M  V30 12 C -3.9328 1.0154 -1.7839 0
M  V30 13 C 4.846 0.3836 2.1822 0
M  V30 14 N -5.0096 1.7076 -2.3027 0
M  V30 15 H 1.9997 -1.6967 -0.0716 0
M  V30 16 H 1.2616 -1.6839 1.561 0
M  V30 17 H -2.8397 -2.1731 -1.2775 0
M  V30 18 H -0.8632 1.568 -0.4164 0
M  V30 19 H 2.8372 0.6279 0.3113 0
M  V30 20 H 2.116 0.6403 1.9065 0
M  V30 21 H -4.7709 -0.9369 -2.1651 0
M  V30 22 H -2.7955 2.7851 -1.304 0
M  V30 23 H 3.5746 -1.2968 2.5889 0
M  V30 24 H 4.3016 -1.3094 0.9809 0
M  V30 25 H 5.7389 -0.1003 2.5898 0
M  V30 26 H 5.1548 1.0151 1.3431 0
M  V30 27 H 4.4237 1.0277 2.9601 0
M  V30 28 H -5.0394 2.717 -2.2664 0
M  V30 29 H -5.8352 1.215 -2.6145 0
M  V30 END ATOM
M  V30 BEGIN BOND
M  V30 1 2 1 2
M  V30 2 1 2 3
M  V30 3 1 2 4
M  V30 4 1 3 5
M  V30 5 2 4 6
M  V30 6 1 4 7
M  V30 7 1 5 8
M  V30 8 1 6 9
M  V30 9 2 7 10
M  V30 10 1 8 11
M  V30 11 2 9 12
M  V30 12 1 11 13
M  V30 13 1 12 14
M  V30 14 1 10 12
M  V30 15 1 5 15
M  V30 16 1 5 16
M  V30 17 1 6 17
M  V30 18 1 7 18
M  V30 19 1 8 19
M  V30 20 1 8 20
M  V30 21 1 9 21
M  V30 22 1 10 22
M  V30 23 1 11 23
M  V30 24 1 11 24
M  V30 25 1 13 25
M  V30 26 1 13 26
M  V30 27 1 13 27
M  V30 28 1 14 28
M  V30 29 1 14 29
M  V30 END BOND
M  V30 END CTAB
M  END
>  <Column 1>
682

>  <level_0>
780

>  <index>
780

>  <Unnamed: 0>
780

>  <NO.>
792

>  <Name>
butyl 4-aminobenzoate (butamben)

>  <IUPAC_name>
butyl 4-aminobenzoate

>  <SMILES>
CCCCOC(=O)c1ccc(N)cc1

>  <CID>
2482

>  <logBB>
0.42

>  <BBB+/BBB->
BBB+

>  <Inchi>
InChI=1S/C11H15NO2/c1-2-3-8-14-11(13)9-4-6-10(12)7-5-9/h4-7H-2-3-8-12H2-1H3

>  <threshold>


>  <reference>
R2|R2|R8|R27|R40|R3|R21|R25|R27|R38|R41|R43|R46|R47|

>  <group>
A

>  <Class>
1

>  <ABC>
10.08

>  <ABCGG>
9.04

>  <nAcid>
0

>  <nBase>
0

>  <nAromAtom>
6

>  <nAromBond>
6

>  <nAtom>
29

>  <nHeavyAtom>
14

>  <nSpiro>
0

>  <nBridgehead>
0

>  <nHetero>
3

>  <nN>
1

>  <nO>
2

>  <nF>
0

>  <BalabanJ>
2.13

>  <BertzCT>
292.66

>  <nBonds>
29

>  <nBondsO>
14

>  <nBondsS>
22

>  <nBondsD>
1

>  <nBondsT>
0

>  <nBondsA>
6

>  <nBondsM>
7

>  <nBondsKS>
25

>  <nBondsKD>
4

>  <RNCG>
0.33

>  <RPCG>
0.24

>  <FCSP3>
0.36

>  <SZ>
17.33

>  <Sm>
16.09

>  <Sv>
17.25

>  <Sse>
28.98

>  <Sp>
18.61

>  <Si>
32.82

>  <MZ>
0.6

>  <Mm>
0.55

>  <Mv>
0.59

>  <Mse>
1

>  <Mp>
0.64

>  <Mi>
1.13

>  <NsCH3>
1

>  <NdCH2>
0

>  <NssCH2>
3

>  <NtCH>
0

>  <NdsCH>
0

>  <NaaCH>
4

>  <NsssCH>
0

>  <NddC>
0

>  <NtsC>
0

>  <NdssC>
1

>  <NaasC>
2

>  <NaaaC>
0

>  <NssssC>
0

>  <NsNH3>
0

>  <NsNH2>
1

>  <NssNH2>
0

>  <NdNH>
0

>  <NssNH>
0

>  <NaaNH>
0

>  <NtN>
0

>  <NsssNH>
0

>  <NdsN>
0

>  <NaaN>
0

>  <NsssN>
0

>  <NddsN>
0

>  <NaasN>
0

>  <NssssN>
0

>  <NsOH>
0

>  <NdO>
1

>  <NssO>
1

>  <NaaO>
0

>  <NsF>
0

>  <NsSiH3>
0

>  <NssSiH2>
0

>  <NsssSiH>
0

>  <NssssSi>
0

>  <NsPH2>
0

>  <NssPH>
0

>  <NsssP>
0

>  <NdsssP>
0

>  <NsssssP>
0

>  <NsSH>
0

>  <NdS>
0

>  <NssS>
0

>  <NaaS>
0

>  <NdssS>
0

>  <NddssS>
0

>  <NsCl>
0

>  <NsBr>
0

>  <NsI>
0

>  <fragCpx>
14.03

>  <fMF>
0.21

>  <nHBAcc>
3

>  <nHBDon>
1

>  <Kier1>
12.07

>  <Kier2>
6.48

>  <Lipinski>
1

>  <GhoseFilter>
1

>  <FilterItLogS>
-2.73

>  <VMcGowan>
159.51

>  <LabuteASA>
83.87

>  <PEOE_VSA1>
10.47

>  <PEOE_VSA2>
0

>  <PEOE_VSA3>
4.79

>  <PEOE_VSA4>
0

>  <PEOE_VSA5>
0

>  <PEOE_VSA6>
13.34

>  <PEOE_VSA7>
30.69

>  <PEOE_VSA8>
5.69

>  <PEOE_VSA9>
12.17

>  <PEOE_VSA10>
0

>  <PEOE_VSA11>
0

>  <PEOE_VSA12>
0

>  <PEOE_VSA13>
0

>  <SMR_VSA1>
9.53

>  <SMR_VSA2>
0

>  <SMR_VSA3>
0

>  <SMR_VSA4>
0

>  <SMR_VSA5>
19.77

>  <SMR_VSA6>
12.34

>  <SMR_VSA7>
29.83

>  <SMR_VSA8>
0

>  <SMR_VSA9>
0

>  <SlogP_VSA1>
5.73

>  <SlogP_VSA2>
12.58

>  <SlogP_VSA3>
4.74

>  <SlogP_VSA4>
0

>  <SlogP_VSA5>
30.12

>  <SlogP_VSA6>
24.27

>  <SlogP_VSA7>
0

>  <SlogP_VSA8>
0

>  <SlogP_VSA9>
0

>  <SlogP_VSA10>
5.69

>  <SlogP_VSA11>
0

>  <EState_VSA1>
0

>  <EState_VSA2>
5.97

>  <EState_VSA3>
17.86

>  <EState_VSA4>
12.84

>  <EState_VSA5>
0

>  <EState_VSA6>
24.27

>  <EState_VSA7>
0

>  <EState_VSA8>
6.92

>  <EState_VSA9>
10.47

>  <EState_VSA10>
4.79

>  <VSA_EState1>
5.03

>  <VSA_EState2>
11.37

>  <VSA_EState3>
0

>  <VSA_EState4>
6.7

>  <VSA_EState5>
-0.28

>  <VSA_EState6>
6.72

>  <VSA_EState7>
1.93

>  <VSA_EState8>
2.54

>  <VSA_EState9>
0

>  <apol>
31.08

>  <bpol>
17.08

>  <nRing>
1

>  <nHRing>
0

>  <naRing>
1

>  <naHRing>
0

>  <nARing 2>
0

>  <nAHRing 2>
0

>  <nFRing>
0

>  <nFHRing>
0

>  <nFaRing>
0

>  <nFaHRing>
0

>  <nFARing 2>
0

>  <nFAHRing 2>
0

>  <nRot>
4

>  <SLogP>
2.23

>  <SMR>
56.04

>  <TopoPSA(NO)>
52.32

>  <TopoPSA>
52.32

>  <JGI1>
0.18

>  <JGI2>
0.09

>  <JGI3>
0.04

>  <JGI4>
0.04

>  <JGI5>
0.03

>  <Diameter>
10

>  <Radius>
5

>  <TMWC10>
93.78

>  <TSRW10>
44.41

>  <MW>
193.11

>  <AMW>
6.66

>  <WPath>
350

>  <WPol>
16

>  <Zagreb1>
62

>  <Zagreb2>
67

>  <mZagreb2>
3.36

>  <yes>


>  <nAR-cont>
0.336376

>  <nHA-cont>
0.887625254

>  <MWHBN>
0.287844284

>  <MWHBN-cont>
0.875470103

>  <TPSA-cont>
0.634773911

>  <pka_cont>
0.97

>  <yes.1>


>  <BBB_SCORE>
4.291754231

>  <MMFF94 Energy>
17.608

$$$$
Compound 562
Actelion Java MolfileCreator 2.0

  0  0  0  0  0  0              0 V3000
M  V30 BEGIN CTAB
M  V30 COUNTS 27 27 0 0 0
M  V30 BEGIN ATOM
M  V30 1 N -1.7173 -3.5934 0.0 0
M  V30 2 C -0.7142 -3.039 -0.1839 0
M  V30 3 C 0.5773 -2.3779 -0.3993 0
M  V30 4 C 0.9684 -1.4974 0.7927 0
M  V30 5 N 0.8242 -0.0601 0.4971 0
M  V30 6 C -0.4241 0.5394 0.3698 0
M  V30 7 C 2.0584 0.7148 0.3144 0
M  V30 8 C -1.5704 0.0162 0.9906 0
M  V30 9 C -0.6164 1.7087 -0.3871 0
M  V30 10 C 2.6391 0.5138 -1.0773 0
M  V30 11 C -2.8327 0.6099 0.8543 0
M  V30 12 C -1.8734 2.3119 -0.5288 0
M  V30 13 C -2.9849 1.7594 0.0918 0
M  V30 14 H 0.5606 -1.8092 -1.3356 0
M  V30 15 H 1.3368 -3.16 -0.5208 0
M  V30 16 H 2.0261 -1.6991 1.0085 0
M  V30 17 H 0.4448 -1.7685 1.7171 0
M  V30 18 H 2.8008 0.3946 1.0562 0
M  V30 19 H 1.9033 1.7815 0.5148 0
M  V30 20 H -1.514 -0.8632 1.6245 0
M  V30 21 H 0.2122 2.174 -0.9116 0
M  V30 22 H 1.9271 0.7966 -1.8583 0
M  V30 23 H 2.9149 -0.5326 -1.2422 0
M  V30 24 H 3.5408 1.1216 -1.2011 0
M  V30 25 H -3.6918 0.167 1.3515 0
M  V30 26 H -1.9767 3.2107 -1.1304 0
M  V30 27 H -3.9621 2.2208 -0.0161 0
M  V30 END ATOM
M  V30 BEGIN BOND
M  V30 1 3 1 2
M  V30 2 1 2 3
M  V30 3 1 3 4
M  V30 4 1 4 5
M  V30 5 1 5 6
M  V30 6 1 5 7
M  V30 7 2 6 8
M  V30 8 1 6 9
M  V30 9 1 7 10
M  V30 10 1 8 11
M  V30 11 2 9 12
M  V30 12 2 11 13
M  V30 13 1 12 13
M  V30 14 1 3 14
M  V30 15 1 3 15
M  V30 16 1 4 16
M  V30 17 1 4 17
M  V30 18 1 7 18
M  V30 19 1 7 19
M  V30 20 1 8 20
M  V30 21 1 9 21
M  V30 22 1 10 22
M  V30 23 1 10 23
M  V30 24 1 10 24
M  V30 25 1 11 25
M  V30 26 1 12 26
M  V30 27 1 13 27
M  V30 END BOND
M  V30 END CTAB
M  END
>  <Column 1>
683

>  <level_0>
781

>  <index>
781

>  <Unnamed: 0>
781

>  <NO.>
793

>  <Name>
n-(2-cyanoethyl)-2-phenylethylamine

>  <IUPAC_name>
3-(n-ethylanilino)propanenitrile

>  <SMILES>
CCN(CCC#N)c1ccccc1

>  <CID>
8995

>  <logBB>
0.42

>  <BBB+/BBB->
BBB+

>  <Inchi>
InChI=1S/C11H14N2/c1-2-13(10-6-9-12)11-7-4-3-5-8-11/h3-5-7-8H-2-6-10H2-1H3

>  <threshold>


>  <reference>
R20|

>  <group>
A

>  <Class>
1

>  <ABC>
9.15

>  <ABCGG>
8.63

>  <nAcid>
0

>  <nBase>
0

>  <nAromAtom>
6

>  <nAromBond>
6

>  <nAtom>
27

>  <nHeavyAtom>
13

>  <nSpiro>
0

>  <nBridgehead>
0

>  <nHetero>
2

>  <nN>
2

>  <nO>
0

>  <nF>
0

>  <BalabanJ>
2.26

>  <BertzCT>
273.89

>  <nBonds>
27

>  <nBondsO>
13

>  <nBondsS>
20

>  <nBondsD>
0

>  <nBondsT>
1

>  <nBondsA>
6

>  <nBondsM>
7

>  <nBondsKS>
23

>  <nBondsKD>
3

>  <RNCG>
0.42

>  <RPCG>
0.07

>  <FCSP3>
0.36

>  <SZ>
15.67

>  <Sm>
14.51

>  <Sv>
16.31

>  <Sse>
26.54

>  <Sp>
17.91

>  <Si>
30.49

>  <MZ>
0.58

>  <Mm>
0.54

>  <Mv>
0.6

>  <Mse>
0.98

>  <Mp>
0.66

>  <Mi>
1.13

>  <NsCH3>
1

>  <NdCH2>
0

>  <NssCH2>
3

>  <NtCH>
0

>  <NdsCH>
0

>  <NaaCH>
5

>  <NsssCH>
0

>  <NddC>
0

>  <NtsC>
1

>  <NdssC>
0

>  <NaasC>
1

>  <NaaaC>
0

>  <NssssC>
0

>  <NsNH3>
0

>  <NsNH2>
0

>  <NssNH2>
0

>  <NdNH>
0

>  <NssNH>
0

>  <NaaNH>
0

>  <NtN>
1

>  <NsssNH>
0

>  <NdsN>
0

>  <NaaN>
0

>  <NsssN>
1

>  <NddsN>
0

>  <NaasN>
0

>  <NssssN>
0

>  <NsOH>
0

>  <NdO>
0

>  <NssO>
0

>  <NaaO>
0

>  <NsF>
0

>  <NsSiH3>
0

>  <NssSiH2>
0

>  <NsssSiH>
0

>  <NssssSi>
0

>  <NsPH2>
0

>  <NssPH>
0

>  <NsssP>
0

>  <NdsssP>
0

>  <NsssssP>
0

>  <NsSH>
0

>  <NdS>
0

>  <NssS>
0

>  <NaaS>
0

>  <NdssS>
0

>  <NddssS>
0

>  <NsCl>
0

>  <NsBr>
0

>  <NsI>
0

>  <fragCpx>
13.02

>  <fMF>
0.22

>  <nHBAcc>
2

>  <nHBDon>
0

>  <Kier1>
11.08

>  <Kier2>
6.45

>  <Lipinski>
1

>  <GhoseFilter>
1

>  <FilterItLogS>
-2.66

>  <VMcGowan>
153.45

>  <LabuteASA>
79.41

>  <PEOE_VSA1>
4.9

>  <PEOE_VSA2>
0

>  <PEOE_VSA3>
0

>  <PEOE_VSA4>
5.26

>  <PEOE_VSA5>
0

>  <PEOE_VSA6>
18.2

>  <PEOE_VSA7>
19.06

>  <PEOE_VSA8>
18.78

>  <PEOE_VSA9>
12.49

>  <PEOE_VSA10>
0

>  <PEOE_VSA11>
0

>  <PEOE_VSA12>
0

>  <PEOE_VSA13>
0

>  <SMR_VSA1>
0

>  <SMR_VSA2>
5.26

>  <SMR_VSA3>
0

>  <SMR_VSA4>
0

>  <SMR_VSA5>
13.34

>  <SMR_VSA6>
17.99

>  <SMR_VSA7>
30.33

>  <SMR_VSA8>
0

>  <SMR_VSA9>
6.07

>  <SlogP_VSA1>
4.9

>  <SlogP_VSA2>
13.09

>  <SlogP_VSA3>
0

>  <SlogP_VSA4>
11.33

>  <SlogP_VSA5>
13.34

>  <SlogP_VSA6>
30.33

>  <SlogP_VSA7>
0

>  <SlogP_VSA8>
0

>  <SlogP_VSA9>
0

>  <SlogP_VSA10>
5.69

>  <SlogP_VSA11>
0

>  <EState_VSA1>
0

>  <EState_VSA2>
0

>  <EState_VSA3>
6.42

>  <EState_VSA4>
13.09

>  <EState_VSA5>
5.69

>  <EState_VSA6>
0

>  <EState_VSA7>
18.2

>  <EState_VSA8>
30.03

>  <EState_VSA9>
5.26

>  <EState_VSA10>
0

>  <VSA_EState1>
0

>  <VSA_EState2>
2.2

>  <VSA_EState3>
8.48

>  <VSA_EState4>
1.19

>  <VSA_EState5>
0

>  <VSA_EState6>
12.34

>  <VSA_EState7>
0.59

>  <VSA_EState8>
3.87

>  <VSA_EState9>
0

>  <apol>
29.91

>  <bpol>
16.32

>  <nRing>
1

>  <nHRing>
0

>  <naRing>
1

>  <naHRing>
0

>  <nARing 2>
0

>  <nAHRing 2>
0

>  <nFRing>
0

>  <nFHRing>
0

>  <nFaRing>
0

>  <nFaHRing>
0

>  <nFARing 2>
0

>  <nFAHRing 2>
0

>  <nRot>
4

>  <SLogP>
2.43

>  <SMR>
54.56

>  <TopoPSA(NO)>
27.03

>  <TopoPSA>
27.03

>  <JGI1>
0.12

>  <JGI2>
0.07

>  <JGI3>
0.04

>  <JGI4>
0.02

>  <JGI5>
0.02

>  <Diameter>
8

>  <Radius>
4

>  <TMWC10>
90.92

>  <TSRW10>
42.88

>  <MW>
174.12

>  <AMW>
6.45

>  <WPath>
266

>  <WPol>
15

>  <Zagreb1>
56

>  <Zagreb2>
61

>  <mZagreb2>
3.28

>  <yes>


>  <nAR-cont>
0.336376

>  <nHA-cont>
0.841215992

>  <MWHBN>
0.151567353

>  <MWHBN-cont>
0.936518161

>  <TPSA-cont>
0.811313815

>  <pka_cont>
0.97

>  <yes.1>


>  <BBB_SCORE>
4.689996864

>  <MMFF94 Energy>
24.789

$$$$
Compound 563
Actelion Java MolfileCreator 2.0

  0  0  0  0  0  0              0 V3000
M  V30 BEGIN CTAB
M  V30 COUNTS 43 45 0 0 0
M  V30 BEGIN ATOM
M  V30 1 O -1.113 -0.4769 -2.227 0
M  V30 2 C -1.4038 -1.2093 -1.1019 0
M  V30 3 C -1.6049 -0.951 -3.4728 0
M  V30 4 C -0.8491 -0.7324 0.1026 0
M  V30 5 C -2.197 -2.3663 -1.0899 0
M  V30 6 C -1.114 -1.4081 1.2998 0
M  V30 7 C -0.0274 0.4898 0.125 0
M  V30 8 C -2.4453 -3.0434 0.1077 0
M  V30 9 C -1.903 -2.5577 1.2978 0
M  V30 10 C 1.2728 0.5417 0.4761 0
M  V30 11 O -3.1981 -4.177 0.2516 0
M  V30 12 C 2.0193 1.8463 0.3777 0
M  V30 13 C 2.1179 -0.6641 0.7984 0
M  V30 14 C -3.7735 -4.7287 -0.9257 0
M  V30 15 N 3.2592 1.9298 0.019 0
M  V30 16 C 1.3136 3.1063 0.7308 0
M  V30 17 C 3.6124 -0.3585 0.7949 0
M  V30 18 C 3.9365 0.6661 -0.2792 0
M  V30 19 C 1.588 4.2646 0.0138 0
M  V30 20 C 0.4134 3.1935 1.7952 0
M  V30 21 N 1.0019 5.4641 0.2602 0
M  V30 22 C -0.197 4.4148 2.0744 0
M  V30 23 C 0.1232 5.5088 1.2848 0
M  V30 24 H -1.2062 -1.9443 -3.7034 0
M  V30 25 H -1.2584 -0.2649 -4.2517 0
M  V30 26 H -2.6997 -0.9481 -3.4908 0
M  V30 27 H -2.6237 -2.737 -2.012 0
M  V30 28 H -0.7129 -1.044 2.2424 0
M  V30 29 H -0.5567 1.3712 -0.2312 0
M  V30 30 H -2.1001 -3.0779 2.2322 0
M  V30 31 H 1.8438 -1.0687 1.7794 0
M  V30 32 H 1.9281 -1.4482 0.0544 0
M  V30 33 H -4.4813 -4.0297 -1.3835 0
M  V30 34 H -4.3309 -5.6251 -0.6371 0
M  V30 35 H -2.9997 -5.0326 -1.6382 0
M  V30 36 H 3.9079 0.032 1.7774 0
M  V30 37 H 4.1818 -1.2803 0.6322 0
M  V30 38 H 5.0165 0.8482 -0.2876 0
M  V30 39 H 3.6598 0.3109 -1.2788 0
M  V30 40 H 2.3019 4.2625 -0.8058 0
M  V30 41 H 0.1924 2.3302 2.4153 0
M  V30 42 H -0.9016 4.5134 2.8929 0
M  V30 43 H -0.3277 6.4809 1.465 0
M  V30 END ATOM
M  V30 BEGIN BOND
M  V30 1 1 1 2
M  V30 2 1 1 3
M  V30 3 2 2 4
M  V30 4 1 2 5
M  V30 5 1 4 6
M  V30 6 1 4 7
M  V30 7 2 5 8
M  V30 8 2 6 9
M  V30 9 2 7 10
M  V30 10 1 8 11
M  V30 11 1 10 12
M  V30 12 1 10 13
M  V30 13 1 11 14
M  V30 14 2 12 15
M  V30 15 1 12 16
M  V30 16 1 13 17
M  V30 17 1 15 18
M  V30 18 2 16 19
M  V30 19 1 16 20
M  V30 20 1 19 21
M  V30 21 2 20 22
M  V30 22 2 21 23
M  V30 23 1 8 9
M  V30 24 1 17 18
M  V30 25 1 22 23
M  V30 26 1 3 24
M  V30 27 1 3 25
M  V30 28 1 3 26
M  V30 29 1 5 27
M  V30 30 1 6 28
M  V30 31 1 7 29
M  V30 32 1 9 30
M  V30 33 1 13 31
M  V30 34 1 13 32
M  V30 35 1 14 33
M  V30 36 1 14 34
M  V30 37 1 14 35
M  V30 38 1 17 36
M  V30 39 1 17 37
M  V30 40 1 18 38
M  V30 41 1 18 39
M  V30 42 1 19 40
M  V30 43 1 20 41
M  V30 44 1 22 42
M  V30 45 1 23 43
M  V30 END BOND
M  V30 END CTAB
M  END
>  <Column 1>
684

>  <level_0>
782

>  <index>
782

>  <Unnamed: 0>
782

>  <NO.>
794

>  <Name>
148372-04-7

>  <IUPAC_name>
3-[5-[(2-4-dimethoxyphenyl)methylidene]-3-4-dihydro-2h-pyridin-6-yl]pyridine

>  <SMILES>
COc1ccc(C=C2CCCN=C2c2cccnc2)c(OC)c1

>  <CID>
122226

>  <logBB>
0.42

>  <BBB+/BBB->
BBB+

>  <Inchi>
InChI=1S/C19H20N2O2/c1-22-17-8-7-14(18(12-17)23-2)11-15-5-4-10-21-19(15)16-6-3-9-20-13-16/h3-6-9-11-13H-4-5-10H2-1-2H3

>  <threshold>


>  <reference>
R18|R26|R27|

>  <group>
A

>  <Class>
1

>  <ABC>
17.56

>  <ABCGG>
14.15

>  <nAcid>
0

>  <nBase>
0

>  <nAromAtom>
12

>  <nAromBond>
12

>  <nAtom>
43

>  <nHeavyAtom>
23

>  <nSpiro>
0

>  <nBridgehead>
0

>  <nHetero>
4

>  <nN>
2

>  <nO>
2

>  <nF>
0

>  <BalabanJ>
1.59

>  <BertzCT>
736.29

>  <nBonds>
45

>  <nBondsO>
25

>  <nBondsS>
31

>  <nBondsD>
2

>  <nBondsT>
0

>  <nBondsA>
12

>  <nBondsM>
14

>  <nBondsKS>
37

>  <nBondsKD>
8

>  <RNCG>
0.27

>  <RPCG>
0.07

>  <FCSP3>
0.26

>  <SZ>
27.33

>  <Sm>
25.67

>  <Sv>
27.36

>  <Sse>
42.87

>  <Sp>
29.26

>  <Si>
48.15

>  <MZ>
0.64

>  <Mm>
0.6

>  <Mv>
0.64

>  <Mse>
1

>  <Mp>
0.68

>  <Mi>
1.12

>  <NsCH3>
2

>  <NdCH2>
0

>  <NssCH2>
3

>  <NtCH>
0

>  <NdsCH>
1

>  <NaaCH>
7

>  <NsssCH>
0

>  <NddC>
0

>  <NtsC>
0

>  <NdssC>
2

>  <NaasC>
4

>  <NaaaC>
0

>  <NssssC>
0

>  <NsNH3>
0

>  <NsNH2>
0

>  <NssNH2>
0

>  <NdNH>
0

>  <NssNH>
0

>  <NaaNH>
0

>  <NtN>
0

>  <NsssNH>
0

>  <NdsN>
1

>  <NaaN>
1

>  <NsssN>
0

>  <NddsN>
0

>  <NaasN>
0

>  <NssssN>
0

>  <NsOH>
0

>  <NdO>
0

>  <NssO>
2

>  <NaaO>
0

>  <NsF>
0

>  <NsSiH3>
0

>  <NssSiH2>
0

>  <NsssSiH>
0

>  <NssssSi>
0

>  <NsPH2>
0

>  <NssPH>
0

>  <NsssP>
0

>  <NdsssP>
0

>  <NsssssP>
0

>  <NsSH>
0

>  <NdS>
0

>  <NssS>
0

>  <NaaS>
0

>  <NdssS>
0

>  <NddssS>
0

>  <NsCl>
0

>  <NsBr>
0

>  <NsI>
0

>  <fragCpx>
119.04

>  <fMF>
0.44

>  <nHBAcc>
4

>  <nHBDon>
0

>  <Kier1>
17.81

>  <Kier2>
8.91

>  <Lipinski>
1

>  <GhoseFilter>
1

>  <FilterItLogS>
-5.17

>  <VMcGowan>
243.29

>  <LabuteASA>
136.05

>  <PEOE_VSA1>
9.47

>  <PEOE_VSA2>
9.98

>  <PEOE_VSA3>
0

>  <PEOE_VSA4>
0

>  <PEOE_VSA5>
0

>  <PEOE_VSA6>
0

>  <PEOE_VSA7>
48.76

>  <PEOE_VSA8>
36.13

>  <PEOE_VSA9>
19.93

>  <PEOE_VSA10>
11.5

>  <PEOE_VSA11>
0

>  <PEOE_VSA12>
0

>  <PEOE_VSA13>
0

>  <SMR_VSA1>
9.47

>  <SMR_VSA2>
0

>  <SMR_VSA3>
4.98

>  <SMR_VSA4>
4.99

>  <SMR_VSA5>
12.84

>  <SMR_VSA6>
20.76

>  <SMR_VSA7>
59.43

>  <SMR_VSA8>
0

>  <SMR_VSA9>
11.5

>  <SlogP_VSA1>
9.47

>  <SlogP_VSA2>
31.46

>  <SlogP_VSA3>
0

>  <SlogP_VSA4>
0

>  <SlogP_VSA5>
23.97

>  <SlogP_VSA6>
53.29

>  <SlogP_VSA7>
0

>  <SlogP_VSA8>
6.08

>  <SlogP_VSA9>
0

>  <SlogP_VSA10>
0

>  <SlogP_VSA11>
11.5

>  <EState_VSA1>
0

>  <EState_VSA2>
0

>  <EState_VSA3>
0

>  <EState_VSA4>
47.72

>  <EState_VSA5>
5.57

>  <EState_VSA6>
20.42

>  <EState_VSA7>
30.46

>  <EState_VSA8>
17.13

>  <EState_VSA9>
14.47

>  <EState_VSA10>
0

>  <VSA_EState1>
10.75

>  <VSA_EState2>
8.92

>  <VSA_EState3>
0

>  <VSA_EState4>
4.34

>  <VSA_EState5>
1.58

>  <VSA_EState6>
9.85

>  <VSA_EState7>
7.87

>  <VSA_EState8>
0.86

>  <VSA_EState9>
3.33

>  <apol>
48.87

>  <bpol>
25.82

>  <nRing>
3

>  <nHRing>
2

>  <naRing>
2

>  <naHRing>
1

>  <nARing 2>
1

>  <nAHRing 2>
1

>  <nFRing>
0

>  <nFHRing>
0

>  <nFaRing>
0

>  <nFaHRing>
0

>  <nFARing 2>
0

>  <nFAHRing 2>
0

>  <nRot>
4

>  <SLogP>
3.77

>  <SMR>
92.4

>  <TopoPSA(NO)>
43.71

>  <TopoPSA>
43.71

>  <JGI1>
0.14

>  <JGI2>
0.07

>  <JGI3>
0.04

>  <JGI4>
0.03

>  <JGI5>
0.02

>  <Diameter>
12

>  <Radius>
6

>  <TMWC10>
121.74

>  <TSRW10>
57.09

>  <MW>
308.15

>  <AMW>
7.17

>  <WPath>
1210

>  <WPol>
35

>  <Zagreb1>
116

>  <Zagreb2>
135

>  <mZagreb2>
5.33

>  <yes>


>  <nAR-cont>
0.816016

>  <nHA-cont>
0.967789328

>  <MWHBN>
0.227865673

>  <MWHBN-cont>
0.988829661

>  <TPSA-cont>
0.694877058

>  <pka_cont>
0.97

>  <yes.1>


>  <BBB_SCORE>
5.141803935

>  <MMFF94 Energy>
84.11

$$$$
Compound 564
Actelion Java MolfileCreator 2.0

  0  0  0  0  0  0              0 V3000
M  V30 BEGIN CTAB
M  V30 COUNTS 27 27 0 0 0
M  V30 BEGIN ATOM
M  V30 1 N 3.6009 -3.0523 1.0948 0
M  V30 2 C 3.677 -2.0362 0.5389 0
M  V30 3 C 3.7723 -0.7567 -0.1729 0
M  V30 4 C 2.4855 -0.4274 -0.9389 0
M  V30 5 N 1.4888 0.3428 -0.1806 0
M  V30 6 C 0.8205 -0.4505 0.8627 0
M  V30 7 C -0.3582 0.3098 1.4965 0
M  V30 8 C -1.5112 0.5411 0.5471 0
M  V30 9 C -1.7361 1.8111 -0.0013 0
M  V30 10 C -2.3626 -0.5134 0.1906 0
M  V30 11 C -2.7915 2.0213 -0.8899 0
M  V30 12 C -3.4178 -0.3011 -0.6979 0
M  V30 13 C -3.6316 0.9655 -1.2381 0
M  V30 14 H 4.0305 0.0528 0.5193 0
M  V30 15 H 4.598 -0.8245 -0.8917 0
M  V30 16 H 2.0309 -1.3243 -1.3781 0
M  V30 17 H 2.7729 0.2113 -1.7835 0
M  V30 18 H 0.769 0.6654 -0.8337 0
M  V30 19 H 0.4649 -1.402 0.4493 0
M  V30 20 H 1.535 -0.6729 1.6621 0
M  V30 21 H -0.7303 -0.2601 2.3577 0
M  V30 22 H -0.0079 1.2669 1.9043 0
M  V30 23 H -1.0875 2.6447 0.26 0
M  V30 24 H -2.2106 -1.5074 0.6055 0
M  V30 25 H -2.9593 3.0101 -1.3088 0
M  V30 26 H -4.0745 -1.1242 -0.967 0
M  V30 27 H -4.4548 1.1303 -1.9283 0
M  V30 END ATOM
M  V30 BEGIN BOND
M  V30 1 3 1 2
M  V30 2 1 2 3
M  V30 3 1 3 4
M  V30 4 1 4 5
M  V30 5 1 5 6
M  V30 6 1 6 7
M  V30 7 1 7 8
M  V30 8 2 8 9
M  V30 9 1 8 10
M  V30 10 1 9 11
M  V30 11 2 10 12
M  V30 12 2 11 13
M  V30 13 1 12 13
M  V30 14 1 3 14
M  V30 15 1 3 15
M  V30 16 1 4 16
M  V30 17 1 4 17
M  V30 18 1 5 18
M  V30 19 1 6 19
M  V30 20 1 6 20
M  V30 21 1 7 21
M  V30 22 1 7 22
M  V30 23 1 9 23
M  V30 24 1 10 24
M  V30 25 1 11 25
M  V30 26 1 12 26
M  V30 27 1 13 27
M  V30 END BOND
M  V30 END CTAB
M  END
>  <Column 1>
685

>  <level_0>
784

>  <index>
784

>  <Unnamed: 0>
784

>  <NO.>
796

>  <Name>
3-[(2-phenylethyl)amino]propanenitrile

>  <IUPAC_name>
3-(2-phenylethylamino)propanenitrile

>  <SMILES>
N#CCCNCCc1ccccc1

>  <CID>
3155309

>  <logBB>
0.42

>  <BBB+/BBB->
BBB+

>  <Inchi>
InChI=1S/C11H14N2/c12-8-4-9-13-10-7-11-5-2-1-3-6-11/h1-3-5-6-13H-4-7-9-10H2

>  <threshold>


>  <reference>
R25|

>  <group>
A

>  <Class>
1

>  <ABC>
9.19

>  <ABCGG>
8

>  <nAcid>
0

>  <nBase>
1

>  <nAromAtom>
6

>  <nAromBond>
6

>  <nAtom>
27

>  <nHeavyAtom>
13

>  <nSpiro>
0

>  <nBridgehead>
0

>  <nHetero>
2

>  <nN>
2

>  <nO>
0

>  <nF>
0

>  <BalabanJ>
1.86

>  <BertzCT>
261.17

>  <nBonds>
27

>  <nBondsO>
13

>  <nBondsS>
20

>  <nBondsD>
0

>  <nBondsT>
1

>  <nBondsA>
6

>  <nBondsM>
7

>  <nBondsKS>
23

>  <nBondsKD>
3

>  <RNCG>
0.36

>  <RPCG>
0.14

>  <FCSP3>
0.36

>  <SZ>
15.67

>  <Sm>
14.51

>  <Sv>
16.31

>  <Sse>
26.54

>  <Sp>
17.91

>  <Si>
30.49

>  <MZ>
0.58

>  <Mm>
0.54

>  <Mv>
0.6

>  <Mse>
0.98

>  <Mp>
0.66

>  <Mi>
1.13

>  <NsCH3>
0

>  <NdCH2>
0

>  <NssCH2>
4

>  <NtCH>
0

>  <NdsCH>
0

>  <NaaCH>
5

>  <NsssCH>
0

>  <NddC>
0

>  <NtsC>
1

>  <NdssC>
0

>  <NaasC>
1

>  <NaaaC>
0

>  <NssssC>
0

>  <NsNH3>
0

>  <NsNH2>
0

>  <NssNH2>
0

>  <NdNH>
0

>  <NssNH>
1

>  <NaaNH>
0

>  <NtN>
1

>  <NsssNH>
0

>  <NdsN>
0

>  <NaaN>
0

>  <NsssN>
0

>  <NddsN>
0

>  <NaasN>
0

>  <NssssN>
0

>  <NsOH>
0

>  <NdO>
0

>  <NssO>
0

>  <NaaO>
0

>  <NsF>
0

>  <NsSiH3>
0

>  <NssSiH2>
0

>  <NsssSiH>
0

>  <NssssSi>
0

>  <NsPH2>
0

>  <NssPH>
0

>  <NsssP>
0

>  <NdsssP>
0

>  <NsssssP>
0

>  <NsSH>
0

>  <NdS>
0

>  <NssS>
0

>  <NaaS>
0

>  <NdssS>
0

>  <NddssS>
0

>  <NsCl>
0

>  <NsBr>
0

>  <NsI>
0

>  <fragCpx>
13.02

>  <fMF>
0.22

>  <nHBAcc>
2

>  <nHBDon>
1

>  <Kier1>
11.08

>  <Kier2>
7.41

>  <Lipinski>
1

>  <GhoseFilter>
1

>  <FilterItLogS>
-3.39

>  <VMcGowan>
153.45

>  <LabuteASA>
79.2

>  <PEOE_VSA1>
5.32

>  <PEOE_VSA2>
0

>  <PEOE_VSA3>
0

>  <PEOE_VSA4>
5.26

>  <PEOE_VSA5>
0

>  <PEOE_VSA6>
30.33

>  <PEOE_VSA7>
18.53

>  <PEOE_VSA8>
12.97

>  <PEOE_VSA9>
6.07

>  <PEOE_VSA10>
0

>  <PEOE_VSA11>
0

>  <PEOE_VSA12>
0

>  <PEOE_VSA13>
0

>  <SMR_VSA1>
0

>  <SMR_VSA2>
5.26

>  <SMR_VSA3>
5.32

>  <SMR_VSA4>
0

>  <SMR_VSA5>
12.84

>  <SMR_VSA6>
13.09

>  <SMR_VSA7>
35.9

>  <SMR_VSA8>
0

>  <SMR_VSA9>
6.07

>  <SlogP_VSA1>
5.32

>  <SlogP_VSA2>
13.09

>  <SlogP_VSA3>
6.42

>  <SlogP_VSA4>
11.33

>  <SlogP_VSA5>
11.98

>  <SlogP_VSA6>
30.33

>  <SlogP_VSA7>
0

>  <SlogP_VSA8>
0

>  <SlogP_VSA9>
0

>  <SlogP_VSA10>
0

>  <SlogP_VSA11>
0

>  <EState_VSA1>
0

>  <EState_VSA2>
0

>  <EState_VSA3>
6.42

>  <EState_VSA4>
19.51

>  <EState_VSA5>
5.56

>  <EState_VSA6>
0

>  <EState_VSA7>
18.2

>  <EState_VSA8>
23.52

>  <EState_VSA9>
5.26

>  <EState_VSA10>
0

>  <VSA_EState1>
0

>  <VSA_EState2>
0

>  <VSA_EState3>
11.5

>  <VSA_EState4>
1.34

>  <VSA_EState5>
0

>  <VSA_EState6>
12.45

>  <VSA_EState7>
1.63

>  <VSA_EState8>
1.75

>  <VSA_EState9>
0

>  <apol>
29.91

>  <bpol>
15.18

>  <nRing>
1

>  <nHRing>
0

>  <naRing>
1

>  <naHRing>
0

>  <nARing 2>
0

>  <nAHRing 2>
0

>  <nFRing>
0

>  <nFHRing>
0

>  <nFaRing>
0

>  <nFaHRing>
0

>  <nFARing 2>
0

>  <nFAHRing 2>
0

>  <nRot>
5

>  <SLogP>
1.73

>  <SMR>
53.25

>  <TopoPSA(NO)>
35.82

>  <TopoPSA>
35.82

>  <JGI1>
0.08

>  <JGI2>
0.03

>  <JGI3>
0.02

>  <JGI4>
0.02

>  <JGI5>
0.01

>  <Diameter>
10

>  <Radius>
5

>  <TMWC10>
88.77

>  <TSRW10>
42.18

>  <MW>
174.12

>  <AMW>
6.45

>  <WPath>
314

>  <WPol>
12

>  <Zagreb1>
54

>  <Zagreb2>
56

>  <mZagreb2>
3.25

>  <yes>


>  <nAR-cont>
0.336376

>  <nHA-cont>
0.841215992

>  <MWHBN>
0.22735103

>  <MWHBN-cont>
0.989301224

>  <TPSA-cont>
0.749954157

>  <pka_cont>
0.97

>  <yes.1>


>  <BBB_SCORE>
4.646452143

>  <MMFF94 Energy>
40.699

$$$$
Compound 565
Actelion Java MolfileCreator 2.0

  0  0  0  0  0  0              0 V3000
M  V30 BEGIN CTAB
M  V30 COUNTS 24 24 0 0 0
M  V30 BEGIN ATOM
M  V30 1 C -0.2333 -0.2333 0.2333 0
M  V30 2 C -1.1292 0.1644 1.2403 0
M  V30 3 C -0.2494 -1.5914 -0.1425 0
M  V30 4 C 0.737 0.7455 -0.4505 0
M  V30 5 C -1.9994 -0.7509 1.8427 0
M  V30 6 C -1.1182 -2.5066 0.4586 0
M  V30 7 C 0.6326 2.1964 0.0719 0
M  V30 8 C 2.1913 0.2812 -0.2198 0
M  V30 9 C 0.451 0.7854 -1.9673 0
M  V30 10 C -1.9941 -2.0857 1.4524 0
M  V30 11 H -1.1754 1.1942 1.5834 0
M  V30 12 H 0.4212 -1.9583 -0.9163 0
M  V30 13 H -2.6823 -0.416 2.6194 0
M  V30 14 H -1.1078 -3.5479 0.1478 0
M  V30 15 H 0.859 2.257 1.1428 0
M  V30 16 H 1.3419 2.8544 -0.4446 0
M  V30 17 H -0.3685 2.6127 -0.0898 0
M  V30 18 H 2.3876 -0.702 -0.661 0
M  V30 19 H 2.9057 0.9816 -0.668 0
M  V30 20 H 2.4183 0.2127 0.8507 0
M  V30 21 H -0.5855 1.083 -2.1656 0
M  V30 22 H 0.6109 -0.1872 -2.4451 0
M  V30 23 H 1.1068 1.5028 -2.4744 0
M  V30 24 H -2.6705 -2.7948 1.9214 0
M  V30 END ATOM
M  V30 BEGIN BOND
M  V30 1 2 1 2
M  V30 2 1 1 3
M  V30 3 1 1 4
M  V30 4 1 2 5
M  V30 5 2 3 6
M  V30 6 1 4 7
M  V30 7 1 4 8
M  V30 8 1 4 9
M  V30 9 2 5 10
M  V30 10 1 6 10
M  V30 11 1 2 11
M  V30 12 1 3 12
M  V30 13 1 5 13
M  V30 14 1 6 14
M  V30 15 1 7 15
M  V30 16 1 7 16
M  V30 17 1 7 17
M  V30 18 1 8 18
M  V30 19 1 8 19
M  V30 20 1 8 20
M  V30 21 1 9 21
M  V30 22 1 9 22
M  V30 23 1 9 23
M  V30 24 1 10 24
M  V30 END BOND
M  V30 END CTAB
M  END
>  <Column 1>
686

>  <level_0>
785

>  <index>
785

>  <Unnamed: 0>
785

>  <NO.>
797

>  <Name>
tert-butylbenzene

>  <IUPAC_name>
tert-butylbenzene

>  <SMILES>
CC(C)(C)c1ccccc1

>  <CID>
7366

>  <logBB>
0.43

>  <BBB+/BBB->
BBB+

>  <Inchi>
InChI=1S/C10H14/c1-10(2-3)9-7-5-4-6-8-9/h4-8H-1-3H3

>  <threshold>


>  <reference>
R3|R21|R25|R27|R38|R41|R46|R47|R2|R2|R8|R27|R40|

>  <group>
A

>  <Class>
1

>  <ABC>
7.49

>  <ABCGG>
7.11

>  <nAcid>
0

>  <nBase>
0

>  <nAromAtom>
6

>  <nAromBond>
6

>  <nAtom>
24

>  <nHeavyAtom>
10

>  <nSpiro>
0

>  <nBridgehead>
0

>  <nHetero>
0

>  <nN>
0

>  <nO>
0

>  <nF>
0

>  <BalabanJ>
2.39

>  <BertzCT>
191.03

>  <nBonds>
24

>  <nBondsO>
10

>  <nBondsS>
18

>  <nBondsD>
0

>  <nBondsT>
0

>  <nBondsA>
6

>  <nBondsM>
6

>  <nBondsKS>
21

>  <nBondsKD>
3

>  <RNCG>
0.12

>  <RPCG>
0.12

>  <FCSP3>
0.4

>  <SZ>
12.33

>  <Sm>
11.17

>  <Sv>
13.79

>  <Sse>
23.21

>  <Sp>
15.59

>  <Si>
26.91

>  <MZ>
0.51

>  <Mm>
0.47

>  <Mv>
0.57

>  <Mse>
0.97

>  <Mp>
0.65

>  <Mi>
1.12

>  <NsCH3>
3

>  <NdCH2>
0

>  <NssCH2>
0

>  <NtCH>
0

>  <NdsCH>
0

>  <NaaCH>
5

>  <NsssCH>
0

>  <NddC>
0

>  <NtsC>
0

>  <NdssC>
0

>  <NaasC>
1

>  <NaaaC>
0

>  <NssssC>
1

>  <NsNH3>
0

>  <NsNH2>
0

>  <NssNH2>
0

>  <NdNH>
0

>  <NssNH>
0

>  <NaaNH>
0

>  <NtN>
0

>  <NsssNH>
0

>  <NdsN>
0

>  <NaaN>
0

>  <NsssN>
0

>  <NddsN>
0

>  <NaasN>
0

>  <NssssN>
0

>  <NsOH>
0

>  <NdO>
0

>  <NssO>
0

>  <NaaO>
0

>  <NsF>
0

>  <NsSiH3>
0

>  <NssSiH2>
0

>  <NsssSiH>
0

>  <NssssSi>
0

>  <NsPH2>
0

>  <NssPH>
0

>  <NsssP>
0

>  <NdsssP>
0

>  <NsssssP>
0

>  <NsSH>
0

>  <NdS>
0

>  <NssS>
0

>  <NaaS>
0

>  <NdssS>
0

>  <NddssS>
0

>  <NsCl>
0

>  <NsBr>
0

>  <NsI>
0

>  <fragCpx>
10

>  <fMF>
0.25

>  <nHBAcc>
0

>  <nHBDon>
0

>  <Kier1>
8.1

>  <Kier2>
2.94

>  <Lipinski>
1

>  <GhoseFilter>
0

>  <FilterItLogS>
-2.82

>  <VMcGowan>
128

>  <LabuteASA>
62.89

>  <PEOE_VSA1>
0

>  <PEOE_VSA2>
0

>  <PEOE_VSA3>
0

>  <PEOE_VSA4>
0

>  <PEOE_VSA5>
0

>  <PEOE_VSA6>
51.1

>  <PEOE_VSA7>
10.98

>  <PEOE_VSA8>
0

>  <PEOE_VSA9>
0

>  <PEOE_VSA10>
0

>  <PEOE_VSA11>
0

>  <PEOE_VSA12>
0

>  <PEOE_VSA13>
0

>  <SMR_VSA1>
0

>  <SMR_VSA2>
0

>  <SMR_VSA3>
0

>  <SMR_VSA4>
0

>  <SMR_VSA5>
26.19

>  <SMR_VSA6>
0

>  <SMR_VSA7>
35.9

>  <SMR_VSA8>
0

>  <SMR_VSA9>
0

>  <SlogP_VSA1>
0

>  <SlogP_VSA2>
0

>  <SlogP_VSA3>
5.41

>  <SlogP_VSA4>
0

>  <SlogP_VSA5>
26.33

>  <SlogP_VSA6>
30.33

>  <SlogP_VSA7>
0

>  <SlogP_VSA8>
0

>  <SlogP_VSA9>
0

>  <SlogP_VSA10>
0

>  <SlogP_VSA11>
0

>  <EState_VSA1>
0

>  <EState_VSA2>
0

>  <EState_VSA3>
5.41

>  <EState_VSA4>
0

>  <EState_VSA5>
5.56

>  <EState_VSA6>
0

>  <EState_VSA7>
0

>  <EState_VSA8>
51.1

>  <EState_VSA9>
0

>  <EState_VSA10>
0

>  <VSA_EState1>
0

>  <VSA_EState2>
0

>  <VSA_EState3>
0

>  <VSA_EState4>
1.69

>  <VSA_EState5>
0

>  <VSA_EState6>
10.55

>  <VSA_EState7>
0

>  <VSA_EState8>
6.67

>  <VSA_EState9>
0

>  <apol>
26.04

>  <bpol>
14.04

>  <nRing>
1

>  <nHRing>
0

>  <naRing>
1

>  <naHRing>
0

>  <nARing 2>
0

>  <nAHRing 2>
0

>  <nFRing>
0

>  <nFHRing>
0

>  <nFaRing>
0

>  <nFaHRing>
0

>  <nFARing 2>
0

>  <nFAHRing 2>
0

>  <nRot>
0

>  <SLogP>
2.98

>  <SMR>
45.14

>  <TopoPSA(NO)>
0

>  <TopoPSA>
0

>  <JGI1>
0.3

>  <JGI2>
0.1

>  <JGI3>
0.06

>  <JGI4>
0.04

>  <JGI5>
0.06

>  <Diameter>
5

>  <Radius>
3

>  <TMWC10>
84.34

>  <TSRW10>
39.68

>  <MW>
134.11

>  <AMW>
5.59

>  <WPath>
114

>  <WPol>
11

>  <Zagreb1>
48

>  <Zagreb2>
52

>  <mZagreb2>
2.17

>  <yes>


>  <nAR-cont>
0.336376

>  <nHA-cont>
0.645914733

>  <MWHBN>
0

>  <MWHBN-cont>
0

>  <TPSA-cont>
0

>  <pka_cont>
0.97

>  <yes.1>


>  <BBB_SCORE>
1.467290733

>  <MMFF94 Energy>
34.485

$$$$
Compound 566
Actelion Java MolfileCreator 2.0

  0  0  0  0  0  0              0 V3000
M  V30 BEGIN CTAB
M  V30 COUNTS 46 49 0 0 0
M  V30 BEGIN ATOM
M  V30 1 S -3.5558 0.0 -0.8072 0
M  V30 2 C -3.8636 1.0091 0.5381 0
M  V30 3 C -1.9016 -0.0276 -0.4644 0
M  V30 4 N -5.1254 1.4209 0.7748 0
M  V30 5 C -2.7213 1.3147 1.2831 0
M  V30 6 C -0.9291 -0.724 -1.2578 0
M  V30 7 C -1.5875 0.6972 0.6513 0
M  V30 8 C -5.2434 2.2183 1.8465 0
M  V30 9 C -2.8961 2.1524 2.4275 0
M  V30 10 O -1.2029 -1.3875 -2.2549 0
M  V30 11 N 0.3731 -0.5685 -0.7739 0
M  V30 12 N -0.2599 0.8105 1.0948 0
M  V30 13 C -4.2039 2.6033 2.673 0
M  V30 14 N -1.8503 2.5206 3.2731 0
M  V30 15 C 0.6085 0.1863 0.3646 0
M  V30 16 C 1.5149 -1.2067 -1.4647 0
M  V30 17 C -1.2708 1.4614 4.0876 0
M  V30 18 C -1.7753 3.8787 3.7848 0
M  V30 19 C 1.4347 -2.7407 -1.3862 0
M  V30 20 C 1.7194 -0.6249 -2.8741 0
M  V30 21 C 2.5771 -3.5205 -2.0407 0
M  V30 22 C 2.9118 -1.1605 -3.6712 0
M  V30 23 C 3.9448 -2.8459 -1.9822 0
M  V30 24 C 4.1183 -1.5811 -2.8368 0
M  V30 25 H -6.2556 2.5614 2.0473 0
M  V30 26 H -4.4224 3.2365 3.5258 0
M  V30 27 H 1.6685 0.2419 0.6597 0
M  V30 28 H 2.403 -0.9209 -0.8874 0
M  V30 29 H -1.8718 1.3107 4.9916 0
M  V30 30 H -0.2559 1.7329 4.3968 0
M  V30 31 H -1.2085 0.5014 3.5666 0
M  V30 32 H -1.9968 4.6111 3.0005 0
M  V30 33 H -0.7645 4.0922 4.1488 0
M  V30 34 H -2.4698 4.0276 4.6185 0
M  V30 35 H 0.4938 -3.1112 -1.8077 0
M  V30 36 H 1.4013 -3.0171 -0.3231 0
M  V30 37 H 1.8451 0.4617 -2.7686 0
M  V30 38 H 0.8223 -0.7509 -3.49 0
M  V30 39 H 2.6478 -4.495 -1.5401 0
M  V30 40 H 2.3182 -3.756 -3.0792 0
M  V30 41 H 3.228 -0.3748 -4.3698 0
M  V30 42 H 2.5891 -1.9908 -4.3095 0
M  V30 43 H 4.6963 -3.5773 -2.3068 0
M  V30 44 H 4.1963 -2.6153 -0.9393 0
M  V30 45 H 4.9617 -1.7485 -3.5192 0
M  V30 46 H 4.4283 -0.7478 -2.1936 0
M  V30 END ATOM
M  V30 BEGIN BOND
M  V30 1 1 1 2
M  V30 2 1 1 3
M  V30 3 2 2 4
M  V30 4 1 2 5
M  V30 5 1 3 6
M  V30 6 2 3 7
M  V30 7 1 4 8
M  V30 8 2 5 9
M  V30 9 2 6 10
M  V30 10 1 6 11
M  V30 11 1 7 12
M  V30 12 2 8 13
M  V30 13 1 9 14
M  V30 14 1 11 15
M  V30 15 1 11 16
M  V30 16 1 14 17
M  V30 17 1 14 18
M  V30 18 1 16 19
M  V30 19 1 16 20
M  V30 20 1 19 21
M  V30 21 1 20 22
M  V30 22 1 21 23
M  V30 23 1 22 24
M  V30 24 1 5 7
M  V30 25 1 9 13
M  V30 26 2 12 15
M  V30 27 1 23 24
M  V30 28 1 8 25
M  V30 29 1 13 26
M  V30 30 1 15 27
M  V30 31 1 16 28
M  V30 32 1 17 29
M  V30 33 1 17 30
M  V30 34 1 17 31
M  V30 35 1 18 32
M  V30 36 1 18 33
M  V30 37 1 18 34
M  V30 38 1 19 35
M  V30 39 1 19 36
M  V30 40 1 20 37
M  V30 41 1 20 38
M  V30 42 1 21 39
M  V30 43 1 21 40
M  V30 44 1 22 41
M  V30 45 1 22 42
M  V30 46 1 23 43
M  V30 47 1 23 44
M  V30 48 1 24 45
M  V30 49 1 24 46
M  V30 END BOND
M  V30 END CTAB
M  END
>  <Column 1>
687

>  <level_0>
786

>  <index>
786

>  <Unnamed: 0>
786

>  <NO.>
798

>  <Name>
chembl225032

>  <IUPAC_name>
5-cycloheptyl-13-(dimethylamino)-8-thia-3-5-10-triazatricyclo[7.4.0.02-7]trideca-1(13)-2(7)-3-9-11-pentaen-6-one

>  <SMILES>
CN(C)c1ccnc2sc3c(=O)n(C4CCCCCC4)cnc3c12

>  <CID>
11537456

>  <logBB>
0.43

>  <BBB+/BBB->
BBB+

>  <Inchi>
InChI=1S/C18H22N4OS/c1-21(2)13-9-10-19-17-14(13)15-16(24-17)18(23)22(11-20-15)12-7-5-3-4-6-8-12/h9-12H-3-8H2-1-2H3

>  <threshold>


>  <reference>
R20|

>  <group>
A

>  <Class>
1

>  <ABC>
19.1

>  <ABCGG>
15.14

>  <nAcid>
0

>  <nBase>
0

>  <nAromAtom>
13

>  <nAromBond>
15

>  <nAtom>
46

>  <nHeavyAtom>
24

>  <nSpiro>
0

>  <nBridgehead>
0

>  <nHetero>
6

>  <nN>
4

>  <nO>
1

>  <nF>
0

>  <BalabanJ>
1.49

>  <BertzCT>
935.23

>  <nBonds>
49

>  <nBondsO>
27

>  <nBondsS>
33

>  <nBondsD>
1

>  <nBondsT>
0

>  <nBondsA>
15

>  <nBondsM>
16

>  <nBondsKS>
43

>  <nBondsKD>
6

>  <RNCG>
0.21

>  <RPCG>
0.15

>  <FCSP3>
0.5

>  <SZ>
30.33

>  <Sm>
28.51

>  <Sv>
28.89

>  <Sse>
45.83

>  <Sp>
31.64

>  <Si>
51.86

>  <MZ>
0.66

>  <Mm>
0.62

>  <Mv>
0.63

>  <Mse>
1

>  <Mp>
0.69

>  <Mi>
1.13

>  <NsCH3>
2

>  <NdCH2>
0

>  <NssCH2>
6

>  <NtCH>
0

>  <NdsCH>
0

>  <NaaCH>
3

>  <NsssCH>
1

>  <NddC>
0

>  <NtsC>
0

>  <NdssC>
0

>  <NaasC>
1

>  <NaaaC>
4

>  <NssssC>
0

>  <NsNH3>
0

>  <NsNH2>
0

>  <NssNH2>
0

>  <NdNH>
0

>  <NssNH>
0

>  <NaaNH>
0

>  <NtN>
0

>  <NsssNH>
0

>  <NdsN>
0

>  <NaaN>
2

>  <NsssN>
1

>  <NddsN>
0

>  <NaasN>
1

>  <NssssN>
0

>  <NsOH>
0

>  <NdO>
1

>  <NssO>
0

>  <NaaO>
0

>  <NsF>
0

>  <NsSiH3>
0

>  <NssSiH2>
0

>  <NsssSiH>
0

>  <NssssSi>
0

>  <NsPH2>
0

>  <NssPH>
0

>  <NsssP>
0

>  <NdsssP>
0

>  <NsssssP>
0

>  <NsSH>
0

>  <NdS>
0

>  <NssS>
0

>  <NaaS>
1

>  <NdssS>
0

>  <NddssS>
0

>  <NsCl>
0

>  <NsBr>
0

>  <NsI>
0

>  <fragCpx>
177.06

>  <fMF>
0.43

>  <nHBAcc>
6

>  <nHBDon>
0

>  <Kier1>
17.42

>  <Kier2>
7.32

>  <Lipinski>
1

>  <GhoseFilter>
1

>  <FilterItLogS>
-4.32

>  <VMcGowan>
257.38

>  <LabuteASA>
144.5

>  <PEOE_VSA1>
4.9

>  <PEOE_VSA2>
9.36

>  <PEOE_VSA3>
9.97

>  <PEOE_VSA4>
0

>  <PEOE_VSA5>
11.34

>  <PEOE_VSA6>
25.68

>  <PEOE_VSA7>
18.91

>  <PEOE_VSA8>
26.33

>  <PEOE_VSA9>
22.92

>  <PEOE_VSA10>
9.53

>  <PEOE_VSA11>
0

>  <PEOE_VSA12>
0

>  <PEOE_VSA13>
5.56

>  <SMR_VSA1>
0

>  <SMR_VSA2>
0

>  <SMR_VSA3>
14.54

>  <SMR_VSA4>
0

>  <SMR_VSA5>
44.57

>  <SMR_VSA6>
19

>  <SMR_VSA7>
28.94

>  <SMR_VSA8>
0

>  <SMR_VSA9>
0

>  <SlogP_VSA1>
10.46

>  <SlogP_VSA2>
28.63

>  <SlogP_VSA3>
0

>  <SlogP_VSA4>
0

>  <SlogP_VSA5>
44.57

>  <SlogP_VSA6>
23.39

>  <SlogP_VSA7>
0

>  <SlogP_VSA8>
20.43

>  <SlogP_VSA9>
0

>  <SlogP_VSA10>
5.69

>  <SlogP_VSA11>
0

>  <EState_VSA1>
0

>  <EState_VSA2>
5.56

>  <EState_VSA3>
6.04

>  <EState_VSA4>
38.96

>  <EState_VSA5>
37.02

>  <EState_VSA6>
12.52

>  <EState_VSA7>
24.73

>  <EState_VSA8>
14.87

>  <EState_VSA9>
0

>  <EState_VSA10>
4.79

>  <VSA_EState1>
2.61

>  <VSA_EState2>
25.17

>  <VSA_EState3>
0.99

>  <VSA_EState4>
1.95

>  <VSA_EState5>
0

>  <VSA_EState6>
2.27

>  <VSA_EState7>
10.69

>  <VSA_EState8>
0

>  <VSA_EState9>
4.01

>  <apol>
52.83

>  <bpol>
31.1

>  <nRing>
4

>  <nHRing>
3

>  <naRing>
3

>  <naHRing>
3

>  <nARing 2>
1

>  <nAHRing 2>
0

>  <nFRing>
1

>  <nFHRing>
1

>  <nFaRing>
1

>  <nFaHRing>
1

>  <nFARing 2>
0

>  <nFAHRing 2>
0

>  <nRot>
2

>  <SLogP>
3.97

>  <SMR>
100.25

>  <TopoPSA(NO)>
51.02

>  <TopoPSA>
79.26

>  <JGI1>
0.13

>  <JGI2>
0.07

>  <JGI3>
0.05

>  <JGI4>
0.04

>  <JGI5>
0.03

>  <Diameter>
11

>  <Radius>
6

>  <TMWC10>
127.81

>  <TSRW10>
73.61

>  <MW>
342.15

>  <AMW>
7.44

>  <WPath>
1268

>  <WPol>
45

>  <Zagreb1>
132

>  <Zagreb2>
161

>  <mZagreb2>
5.22

>  <yes>


>  <nAR-cont>
0.816016

>  <nHA-cont>
0.94700071

>  <MWHBN>
0.324371716

>  <MWHBN-cont>
0.762345648

>  <TPSA-cont>
0.446715982

>  <pka_cont>
0.97

>  <yes.1>


>  <BBB_SCORE>
4.284967147

>  <MMFF94 Energy>
18.274

$$$$
Compound 567
Actelion Java MolfileCreator 2.0

  0  0  0  0  0  0              0 V3000
M  V30 BEGIN CTAB
M  V30 COUNTS 45 48 0 0 0
M  V30 BEGIN ATOM
M  V30 1 S 1.3731 -3.3142 0.0807 0
M  V30 2 C -0.2212 -3.9298 0.1119 0
M  V30 3 C 0.8067 -1.7222 0.0535 0
M  V30 4 N -0.4088 -5.2647 0.1143 0
M  V30 5 C -1.2056 -2.9379 0.131 0
M  V30 6 C 1.6644 -0.5694 -0.0027 0
M  V30 7 C -0.5614 -1.6529 0.0817 0
M  V30 8 C -1.6988 -5.6313 0.1244 0
M  V30 9 C -2.5664 -3.3737 0.1594 0
M  V30 10 O 2.8938 -0.617 -0.0318 0
M  V30 11 N 0.9206 0.6243 -0.0255 0
M  V30 12 N -1.2402 -0.4194 0.0496 0
M  V30 13 C -2.7748 -4.7629 0.143 0
M  V30 14 N -3.6493 -2.4964 0.2004 0
M  V30 15 N 1.5558 1.9062 -0.0833 0
M  V30 16 C -0.4657 0.6191 -0.0048 0
M  V30 17 C -3.8294 -1.7426 1.4337 0
M  V30 18 C -4.8317 -2.7663 -0.6003 0
M  V30 19 C 2.1998 2.2488 1.1885 0
M  V30 20 C 2.3842 2.0767 -1.279 0
M  V30 21 C 3.0704 3.509 1.2008 0
M  V30 22 C 2.1999 3.4825 -1.8561 0
M  V30 23 C 2.5026 4.6826 0.4077 0
M  V30 24 C 2.867 4.6105 -1.0737 0
M  V30 25 H -1.8651 -6.7059 0.1226 0
M  V30 26 H -3.7777 -5.1746 0.1705 0
M  V30 27 H -0.9134 1.6267 -0.0367 0
M  V30 28 H -4.3694 -2.349 2.1697 0
M  V30 29 H -4.4169 -0.8379 1.2433 0
M  V30 30 H -2.8852 -1.4298 1.8898 0
M  V30 31 H -4.5607 -3.0982 -1.6087 0
M  V30 32 H -5.4316 -1.8562 -0.7108 0
M  V30 33 H -5.4629 -3.5285 -0.1312 0
M  V30 34 H 1.4048 2.384 1.9339 0
M  V30 35 H 2.8215 1.423 1.5558 0
M  V30 36 H 2.0534 1.3812 -2.0623 0
M  V30 37 H 3.4411 1.8502 -1.0944 0
M  V30 38 H 4.079 3.2681 0.8425 0
M  V30 39 H 3.1881 3.8192 2.2471 0
M  V30 40 H 2.6064 3.4931 -2.8755 0
M  V30 41 H 1.1282 3.6994 -1.9588 0
M  V30 42 H 1.4176 4.7635 0.5412 0
M  V30 43 H 2.9378 5.6064 0.8094 0
M  V30 44 H 2.5928 5.5621 -1.5461 0
M  V30 45 H 3.956 4.5232 -1.1767 0
M  V30 END ATOM
M  V30 BEGIN BOND
M  V30 1 1 1 2
M  V30 2 1 1 3
M  V30 3 2 2 4
M  V30 4 1 2 5
M  V30 5 1 3 6
M  V30 6 2 3 7
M  V30 7 1 4 8
M  V30 8 2 5 9
M  V30 9 2 6 10
M  V30 10 1 6 11
M  V30 11 1 7 12
M  V30 12 2 8 13
M  V30 13 1 9 14
M  V30 14 1 11 15
M  V30 15 1 11 16
M  V30 16 1 14 17
M  V30 17 1 14 18
M  V30 18 1 15 19
M  V30 19 1 15 20
M  V30 20 1 19 21
M  V30 21 1 20 22
M  V30 22 1 21 23
M  V30 23 1 22 24
M  V30 24 1 5 7
M  V30 25 1 9 13
M  V30 26 2 12 16
M  V30 27 1 23 24
M  V30 28 1 8 25
M  V30 29 1 13 26
M  V30 30 1 16 27
M  V30 31 1 17 28
M  V30 32 1 17 29
M  V30 33 1 17 30
M  V30 34 1 18 31
M  V30 35 1 18 32
M  V30 36 1 18 33
M  V30 37 1 19 34
M  V30 38 1 19 35
M  V30 39 1 20 36
M  V30 40 1 20 37
M  V30 41 1 21 38
M  V30 42 1 21 39
M  V30 43 1 22 40
M  V30 44 1 22 41
M  V30 45 1 23 42
M  V30 46 1 23 43
M  V30 47 1 24 44
M  V30 48 1 24 45
M  V30 END BOND
M  V30 END CTAB
M  END
>  <Column 1>
688

>  <level_0>
787

>  <index>
787

>  <Unnamed: 0>
787

>  <NO.>
799

>  <Name>
869802-58-4

>  <IUPAC_name>
5-(azepan-1-yl)-13-(dimethylamino)-8-thia-3-5-10-triazatricyclo[7.4.0.02-7]trideca-1(13)-2(7)-3-9-11-pentaen-6-one

>  <SMILES>
CN(C)c1ccnc2sc3c(=O)n(N4CCCCCC4)cnc3c12

>  <CID>
11559235

>  <logBB>
0.43

>  <BBB+/BBB->
BBB+

>  <Inchi>
InChI=1S/C17H21N5OS/c1-20(2)12-7-8-18-16-13(12)14-15(24-16)17(23)22(11-19-14)21-9-5-3-4-6-10-21/h7-8-11H-3-6-9-10H2-1-2H3

>  <threshold>


>  <reference>
R2|R2|R25|R27|R46|

>  <group>
A

>  <Class>
1

>  <ABC>
19.1

>  <ABCGG>
15.14

>  <nAcid>
0

>  <nBase>
0

>  <nAromAtom>
13

>  <nAromBond>
15

>  <nAtom>
45

>  <nHeavyAtom>
24

>  <nSpiro>
0

>  <nBridgehead>
0

>  <nHetero>
7

>  <nN>
5

>  <nO>
1

>  <nF>
0

>  <BalabanJ>
1.49

>  <BertzCT>
937.19

>  <nBonds>
48

>  <nBondsO>
27

>  <nBondsS>
32

>  <nBondsD>
1

>  <nBondsT>
0

>  <nBondsA>
15

>  <nBondsM>
16

>  <nBondsKS>
42

>  <nBondsKD>
6

>  <RNCG>
0.19

>  <RPCG>
0.15

>  <FCSP3>
0.47

>  <SZ>
30.33

>  <Sm>
28.59

>  <Sv>
28.38

>  <Sse>
45.05

>  <Sp>
30.9

>  <Si>
50.94

>  <MZ>
0.67

>  <Mm>
0.64

>  <Mv>
0.63

>  <Mse>
1

>  <Mp>
0.69

>  <Mi>
1.13

>  <NsCH3>
2

>  <NdCH2>
0

>  <NssCH2>
6

>  <NtCH>
0

>  <NdsCH>
0

>  <NaaCH>
3

>  <NsssCH>
0

>  <NddC>
0

>  <NtsC>
0

>  <NdssC>
0

>  <NaasC>
1

>  <NaaaC>
4

>  <NssssC>
0

>  <NsNH3>
0

>  <NsNH2>
0

>  <NssNH2>
0

>  <NdNH>
0

>  <NssNH>
0

>  <NaaNH>
0

>  <NtN>
0

>  <NsssNH>
0

>  <NdsN>
0

>  <NaaN>
2

>  <NsssN>
2

>  <NddsN>
0

>  <NaasN>
1

>  <NssssN>
0

>  <NsOH>
0

>  <NdO>
1

>  <NssO>
0

>  <NaaO>
0

>  <NsF>
0

>  <NsSiH3>
0

>  <NssSiH2>
0

>  <NsssSiH>
0

>  <NssssSi>
0

>  <NsPH2>
0

>  <NssPH>
0

>  <NsssP>
0

>  <NdsssP>
0

>  <NsssssP>
0

>  <NsSH>
0

>  <NdS>
0

>  <NssS>
0

>  <NaaS>
1

>  <NdssS>
0

>  <NddssS>
0

>  <NsCl>
0

>  <NsBr>
0

>  <NsI>
0

>  <fragCpx>
177.07

>  <fMF>
0.44

>  <nHBAcc>
7

>  <nHBDon>
0

>  <Kier1>
17.42

>  <Kier2>
7.32

>  <Lipinski>
1

>  <GhoseFilter>
1

>  <FilterItLogS>
-3.61

>  <VMcGowan>
253.27

>  <LabuteASA>
143.87

>  <PEOE_VSA1>
9.91

>  <PEOE_VSA2>
4.79

>  <PEOE_VSA3>
14.64

>  <PEOE_VSA4>
0

>  <PEOE_VSA5>
11.34

>  <PEOE_VSA6>
12.84

>  <PEOE_VSA7>
18.91

>  <PEOE_VSA8>
33.38

>  <PEOE_VSA9>
11.07

>  <PEOE_VSA10>
21.37

>  <PEOE_VSA11>
0

>  <PEOE_VSA12>
0

>  <PEOE_VSA13>
5.56

>  <SMR_VSA1>
0

>  <SMR_VSA2>
0

>  <SMR_VSA3>
14.64

>  <SMR_VSA4>
0

>  <SMR_VSA5>
25.68

>  <SMR_VSA6>
37.09

>  <SMR_VSA7>
28.94

>  <SMR_VSA8>
0

>  <SMR_VSA9>
0

>  <SlogP_VSA1>
15.47

>  <SlogP_VSA2>
41.83

>  <SlogP_VSA3>
0

>  <SlogP_VSA4>
0

>  <SlogP_VSA5>
25.68

>  <SlogP_VSA6>
23.39

>  <SlogP_VSA7>
0

>  <SlogP_VSA8>
20.43

>  <SlogP_VSA9>
0

>  <SlogP_VSA10>
5.69

>  <SlogP_VSA11>
0

>  <EState_VSA1>
0

>  <EState_VSA2>
5.56

>  <EState_VSA3>
4.7

>  <EState_VSA4>
47.35

>  <EState_VSA5>
24.18

>  <EState_VSA6>
17.2

>  <EState_VSA7>
25.06

>  <EState_VSA8>
14.98

>  <EState_VSA9>
0

>  <EState_VSA10>
4.79

>  <VSA_EState1>
2.4

>  <VSA_EState2>
25.04

>  <VSA_EState3>
3.11

>  <VSA_EState4>
1.84

>  <VSA_EState5>
0

>  <VSA_EState6>
1.97

>  <VSA_EState7>
8.21

>  <VSA_EState8>
1.83

>  <VSA_EState9>
3.99

>  <apol>
51.59

>  <bpol>
30.67

>  <nRing>
4

>  <nHRing>
4

>  <naRing>
3

>  <naHRing>
3

>  <nARing 2>
1

>  <nAHRing 2>
1

>  <nFRing>
1

>  <nFHRing>
1

>  <nFaRing>
1

>  <nFaHRing>
1

>  <nFARing 2>
0

>  <nFAHRing 2>
0

>  <nRot>
2

>  <SLogP>
2.58

>  <SMR>
99.93

>  <TopoPSA(NO)>
54.26

>  <TopoPSA>
82.5

>  <JGI1>
0.13

>  <JGI2>
0.07

>  <JGI3>
0.05

>  <JGI4>
0.04

>  <JGI5>
0.03

>  <Diameter>
11

>  <Radius>
6

>  <TMWC10>
127.81

>  <TSRW10>
73.61

>  <MW>
343.15

>  <AMW>
7.63

>  <WPath>
1268

>  <WPol>
45

>  <Zagreb1>
132

>  <Zagreb2>
161

>  <mZagreb2>
5.22

>  <yes>


>  <nAR-cont>
0.816016

>  <nHA-cont>
0.94700071

>  <MWHBN>
0.377881855

>  <MWHBN-cont>
0.56310976

>  <TPSA-cont>
0.424098771

>  <pka_cont>
0.97

>  <yes.1>


>  <BBB_SCORE>
3.94087889

>  <MMFF94 Energy>
77.859

$$$$
Compound 568
Actelion Java MolfileCreator 2.0

  0  0  0  0  0  0              0 V3000
M  V30 BEGIN CTAB
M  V30 COUNTS 46 49 0 0 0
M  V30 BEGIN ATOM
M  V30 1 F -3.6794 -1.2786 -3.9198 0
M  V30 2 C -3.0117 -0.4902 -3.0675 0
M  V30 3 C -1.868 0.1694 -3.4977 0
M  V30 4 C -3.4738 -0.3419 -1.7663 0
M  V30 5 C -1.17 0.9904 -2.6102 0
M  V30 6 C -2.7791 0.4797 -0.8768 0
M  V30 7 C -1.6121 1.1481 -1.285 0
M  V30 8 C -0.8678 2.0363 -0.315 0
M  V30 9 N 0.5175 1.6243 -0.1325 0
M  V30 10 C 1.6156 2.2748 -0.6577 0
M  V30 11 C 0.971 0.5538 0.6164 0
M  V30 12 C 2.7004 1.5316 -0.2055 0
M  V30 13 C 1.7692 3.4078 -1.4693 0
M  V30 14 N 2.2878 0.4809 0.5687 0
M  V30 15 C 0.0873 -0.4086 1.3616 0 CFG=1
M  V30 16 C 4.0014 1.913 -0.565 0
M  V30 17 C 3.0747 3.7744 -1.8179 0
M  V30 18 C -0.0079 -1.7498 0.6093 0
M  V30 19 C 0.6051 -0.643 2.7886 0
M  V30 20 C 4.1754 3.0408 -1.3747 0
M  V30 21 N -0.8831 -2.699 1.3271 0
M  V30 22 C -0.2424 -1.6973 3.4962 0
M  V30 23 C -0.3489 -2.9794 2.6683 0
M  V30 24 C -1.015 -3.9393 0.5613 0
M  V30 25 H -1.5246 0.0385 -4.5189 0
M  V30 26 H -4.3684 -0.8695 -1.4508 0
M  V30 27 H -0.2727 1.4967 -2.961 0
M  V30 28 H -3.1513 0.5806 0.141 0
M  V30 29 H -1.3365 2.0465 0.6753 0
M  V30 30 H -0.8895 3.0696 -0.6768 0
M  V30 31 H 0.9224 3.9855 -1.8231 0
M  V30 32 H -0.9224 0.0066 1.4535 0
M  V30 33 H 4.8502 1.3366 -0.2147 0
M  V30 34 H 3.2338 4.6482 -2.4467 0
M  V30 35 H -0.4167 -1.5676 -0.3923 0
M  V30 36 H 0.9936 -2.1798 0.4666 0
M  V30 37 H 1.6501 -0.9791 2.7689 0
M  V30 38 H 0.5866 0.2929 3.3602 0
M  V30 39 H 5.1796 3.3455 -1.6588 0
M  V30 40 H -1.2464 -1.2946 3.6812 0
M  V30 41 H 0.1948 -1.9251 4.4749 0
M  V30 42 H -1.0165 -3.6718 3.1954 0
M  V30 43 H 0.6362 -3.4601 2.6057 0
M  V30 44 H -1.6928 -4.6339 1.0696 0
M  V30 45 H -0.0519 -4.4414 0.4149 0
M  V30 46 H -1.453 -3.738 -0.4226 0
M  V30 END ATOM
M  V30 BEGIN BOND
M  V30 1 1 1 2
M  V30 2 2 2 3
M  V30 3 1 2 4
M  V30 4 1 3 5
M  V30 5 2 4 6
M  V30 6 2 5 7
M  V30 7 1 7 8
M  V30 8 1 8 9
M  V30 9 1 9 10
M  V30 10 1 9 11
M  V30 11 2 10 12
M  V30 12 1 10 13
M  V30 13 2 11 14
M  V30 14 1 11 15
M  V30 15 1 12 16
M  V30 16 2 13 17
M  V30 17 1 15 18
M  V30 18 1 15 19
M  V30 19 2 16 20
M  V30 20 1 18 21
M  V30 21 1 19 22
M  V30 22 1 21 23
M  V30 23 1 21 24
M  V30 24 1 6 7
M  V30 25 1 12 14
M  V30 26 1 17 20
M  V30 27 1 22 23
M  V30 28 1 3 25
M  V30 29 1 4 26
M  V30 30 1 5 27
M  V30 31 1 6 28
M  V30 32 1 8 29
M  V30 33 1 8 30
M  V30 34 1 13 31
M  V30 35 1 15 32
M  V30 36 1 16 33
M  V30 37 1 17 34
M  V30 38 1 18 35
M  V30 39 1 18 36
M  V30 40 1 19 37
M  V30 41 1 19 38
M  V30 42 1 20 39
M  V30 43 1 22 40
M  V30 44 1 22 41
M  V30 45 1 23 42
M  V30 46 1 23 43
M  V30 47 1 24 44
M  V30 48 1 24 45
M  V30 49 1 24 46
M  V30 END BOND
M  V30 BEGIN COLLECTION
M  V30 MDLV30/STEABS ATOMS=(1 15)
M  V30 END COLLECTION
M  V30 END CTAB
M  END
>  <Column 1>
689

>  <level_0>
788

>  <index>
788

>  <Unnamed: 0>
788

>  <NO.>
800

>  <Name>
chembl1095819

>  <IUPAC_name>
1-[(4-fluorophenyl)methyl]-2-[(3r)-1-methylpiperidin-3-yl]benzimidazole

>  <SMILES>
CN1CCC[C@@H](c2nc3ccccc3n2Cc2ccc(F)cc2)C1

>  <CID>
46888857

>  <logBB>
0.43

>  <BBB+/BBB->
BBB+

>  <Inchi>
InChI=1S/C20H22FN3/c1-23-12-4-5-16(14-23)20-22-18-6-2-3-7-19(18)24(20)13-15-8-10-17(21)11-9-15/h2-3-6-11-16H-4-5-12-14H2-1H3/t16-/m1/s1

>  <threshold>


>  <reference>
R2|R2|R25|R27|R46|

>  <group>
A

>  <Class>
1

>  <ABC>
19.15

>  <ABCGG>
14.99

>  <nAcid>
0

>  <nBase>
1

>  <nAromAtom>
15

>  <nAromBond>
16

>  <nAtom>
46

>  <nHeavyAtom>
24

>  <nSpiro>
0

>  <nBridgehead>
0

>  <nHetero>
4

>  <nN>
3

>  <nO>
0

>  <nF>
1

>  <BalabanJ>
1.45

>  <BertzCT>
837.72

>  <nBonds>
49

>  <nBondsO>
27

>  <nBondsS>
33

>  <nBondsD>
0

>  <nBondsT>
0

>  <nBondsA>
16

>  <nBondsM>
16

>  <nBondsKS>
42

>  <nBondsKD>
7

>  <RNCG>
0.21

>  <RPCG>
0.08

>  <FCSP3>
0.35

>  <SZ>
28.67

>  <Sm>
26.93

>  <Sv>
28.88

>  <Sse>
45.71

>  <Sp>
31.09

>  <Si>
51.99

>  <MZ>
0.62

>  <Mm>
0.59

>  <Mv>
0.63

>  <Mse>
0.99

>  <Mp>
0.68

>  <Mi>
1.13

>  <NsCH3>
1

>  <NdCH2>
0

>  <NssCH2>
5

>  <NtCH>
0

>  <NdsCH>
0

>  <NaaCH>
8

>  <NsssCH>
1

>  <NddC>
0

>  <NtsC>
0

>  <NdssC>
0

>  <NaasC>
3

>  <NaaaC>
2

>  <NssssC>
0

>  <NsNH3>
0

>  <NsNH2>
0

>  <NssNH2>
0

>  <NdNH>
0

>  <NssNH>
0

>  <NaaNH>
0

>  <NtN>
0

>  <NsssNH>
0

>  <NdsN>
0

>  <NaaN>
1

>  <NsssN>
1

>  <NddsN>
0

>  <NaasN>
1

>  <NssssN>
0

>  <NsOH>
0

>  <NdO>
0

>  <NssO>
0

>  <NaaO>
0

>  <NsF>
1

>  <NsSiH3>
0

>  <NssSiH2>
0

>  <NsssSiH>
0

>  <NssssSi>
0

>  <NsPH2>
0

>  <NssPH>
0

>  <NsssP>
0

>  <NdsssP>
0

>  <NsssssP>
0

>  <NsSH>
0

>  <NdS>
0

>  <NssS>
0

>  <NaaS>
0

>  <NdssS>
0

>  <NddssS>
0

>  <NsCl>
0

>  <NsBr>
0

>  <NsI>
0

>  <fragCpx>
177.04

>  <fMF>
0.48

>  <nHBAcc>
3

>  <nHBDon>
0

>  <Kier1>
17.42

>  <Kier2>
7.71

>  <Lipinski>
1

>  <GhoseFilter>
1

>  <FilterItLogS>
-4.93

>  <VMcGowan>
250.82

>  <LabuteASA>
141.28

>  <PEOE_VSA1>
9.47

>  <PEOE_VSA2>
0

>  <PEOE_VSA3>
9.37

>  <PEOE_VSA4>
0

>  <PEOE_VSA5>
0

>  <PEOE_VSA6>
24.27

>  <PEOE_VSA7>
56.26

>  <PEOE_VSA8>
19.01

>  <PEOE_VSA9>
11.03

>  <PEOE_VSA10>
11.64

>  <PEOE_VSA11>
0

>  <PEOE_VSA12>
0

>  <PEOE_VSA13>
0

>  <SMR_VSA1>
4.39

>  <SMR_VSA2>
0

>  <SMR_VSA3>
14.45

>  <SMR_VSA4>
0

>  <SMR_VSA5>
25.3

>  <SMR_VSA6>
20.14

>  <SMR_VSA7>
65.74

>  <SMR_VSA8>
0

>  <SMR_VSA9>
0

>  <SlogP_VSA1>
0

>  <SlogP_VSA2>
34.59

>  <SlogP_VSA3>
6.54

>  <SlogP_VSA4>
5.82

>  <SlogP_VSA5>
30.15

>  <SlogP_VSA6>
48.53

>  <SlogP_VSA7>
0

>  <SlogP_VSA8>
11.03

>  <SlogP_VSA9>
0

>  <SlogP_VSA10>
4.39

>  <SlogP_VSA11>
0

>  <EState_VSA1>
0

>  <EState_VSA2>
5.82

>  <EState_VSA3>
5.92

>  <EState_VSA4>
42.06

>  <EState_VSA5>
24.97

>  <EState_VSA6>
0

>  <EState_VSA7>
18.2

>  <EState_VSA8>
34.71

>  <EState_VSA9>
4.98

>  <EState_VSA10>
4.39

>  <VSA_EState1>
15.52

>  <VSA_EState2>
7.33

>  <VSA_EState3>
0

>  <VSA_EState4>
3.3

>  <VSA_EState5>
1.42

>  <VSA_EState6>
15.08

>  <VSA_EState7>
2.39

>  <VSA_EState8>
2.94

>  <VSA_EState9>
2.18

>  <apol>
51.93

>  <bpol>
27.74

>  <nRing>
4

>  <nHRing>
2

>  <naRing>
3

>  <naHRing>
1

>  <nARing 2>
1

>  <nAHRing 2>
1

>  <nFRing>
1

>  <nFHRing>
1

>  <nFaRing>
1

>  <nFaHRing>
1

>  <nFARing 2>
0

>  <nFAHRing 2>
0

>  <nRot>
3

>  <SLogP>
4.03

>  <SMR>
94.71

>  <TopoPSA(NO)>
21.06

>  <TopoPSA>
21.06

>  <JGI1>
0.17

>  <JGI2>
0.06

>  <JGI3>
0.04

>  <JGI4>
0.04

>  <JGI5>
0.02

>  <Diameter>
11

>  <Radius>
6

>  <TMWC10>
126.74

>  <TSRW10>
73.08

>  <MW>
323.18

>  <AMW>
7.03

>  <WPath>
1294

>  <WPol>
37

>  <Zagreb1>
130

>  <Zagreb2>
154

>  <mZagreb2>
5.19

>  <yes>


>  <nAR-cont>
0.816016

>  <nHA-cont>
0.94700071

>  <MWHBN>
0.166877973

>  <MWHBN-cont>
0.968842233

>  <TPSA-cont>
0.852988123

>  <pka_cont>
0.97

>  <yes.1>


>  <BBB_SCORE>
5.407256304

>  <MMFF94 Energy>
57.668

$$$$
Compound 569
Actelion Java MolfileCreator 2.0

  0  0  0  0  0  0              0 V3000
M  V30 BEGIN CTAB
M  V30 COUNTS 31 33 0 0 0
M  V30 BEGIN ATOM
M  V30 1 Cl -1.9842 2.8947 -0.0826 0
M  V30 2 C -1.8747 1.679 1.1375 0
M  V30 3 C -0.8805 0.6944 1.128 0
M  V30 4 C -2.8505 1.66 2.1374 0
M  V30 5 C 0.1907 0.6741 0.0993 0
M  V30 6 C -0.8564 -0.2989 2.1159 0
M  V30 7 C -2.8297 0.668 3.1214 0
M  V30 8 N 1.0979 1.5859 0.1946 0
M  V30 9 C 0.1465 -0.4206 -0.917 0
M  V30 10 C -1.8345 -0.3096 3.1106 0
M  V30 11 C 2.1689 1.6252 -0.7931 0 CFG=1
M  V30 12 C 1.3015 -1.1277 -1.2977 0
M  V30 13 C -1.0979 -0.7869 -1.4551 0
M  V30 14 O 2.9102 2.8306 -0.7311 0
M  V30 15 C 3.0907 0.4047 -0.5294 0
M  V30 16 N 2.5871 -0.8395 -0.8209 0
M  V30 17 C 1.19 -2.2146 -2.1744 0
M  V30 18 C -1.1878 -1.8572 -2.3429 0
M  V30 19 O 4.2412 0.4996 -0.0967 0
M  V30 20 C -0.0516 -2.5763 -2.6998 0
M  V30 21 Cl -2.7171 -2.3007 -2.9927 0
M  V30 22 H -3.6327 2.4157 2.1562 0
M  V30 23 H -0.0718 -1.0515 2.1256 0
M  V30 24 H -3.5897 0.6613 3.9 0
M  V30 25 H -1.8166 -1.0745 3.884 0
M  V30 26 H 1.7774 1.5666 -1.8151 0
M  V30 27 H -2.0024 -0.2431 -1.1942 0
M  V30 28 H 3.181 2.8845 0.2016 0
M  V30 29 H 3.2661 -1.5855 -0.7293 0
M  V30 30 H 2.0705 -2.7802 -2.4729 0
M  V30 31 H -0.1233 -3.4142 -3.3893 0
M  V30 END ATOM
M  V30 BEGIN BOND
M  V30 1 1 1 2
M  V30 2 2 2 3
M  V30 3 1 2 4
M  V30 4 1 3 5
M  V30 5 1 3 6
M  V30 6 2 4 7
M  V30 7 2 5 8
M  V30 8 1 5 9
M  V30 9 2 6 10
M  V30 10 1 8 11
M  V30 11 2 9 12
M  V30 12 1 9 13
M  V30 13 1 11 14
M  V30 14 1 11 15
M  V30 15 1 12 16
M  V30 16 1 12 17
M  V30 17 2 13 18
M  V30 18 2 15 19
M  V30 19 2 17 20
M  V30 20 1 18 21
M  V30 21 1 7 10
M  V30 22 1 15 16
M  V30 23 1 18 20
M  V30 24 1 4 22
M  V30 25 1 6 23
M  V30 26 1 7 24
M  V30 27 1 10 25
M  V30 28 1 11 26
M  V30 29 1 13 27
M  V30 30 1 14 28
M  V30 31 1 16 29
M  V30 32 1 17 30
M  V30 33 1 20 31
M  V30 END BOND
M  V30 BEGIN COLLECTION
M  V30 MDLV30/STERAC1 ATOMS=(1 11)
M  V30 END COLLECTION
M  V30 END CTAB
M  END
>  <Column 1>
690

>  <level_0>
789

>  <index>
789

>  <Unnamed: 0>
789

>  <NO.>
801

>  <Name>
lorazepam

>  <IUPAC_name>
7-chloro-5-(2-chlorophenyl)-3-hydroxy-1-3-dihydro-1-4-benzodiazepin-2-one

>  <SMILES>
O=C1Nc2ccc(Cl)cc2C(c2ccccc2Cl)=NC1O

>  <CID>
3958

>  <logBB>
0.44

>  <BBB+/BBB->
BBB+

>  <Inchi>
InChI=1S/C15H10Cl2N2O2/c16-8-5-6-12-10(7-8)13(19-15(21)14(20)18-12)9-3-1-2-4-11(9)17/h1-7-15-21H-(H-18-20)

>  <threshold>


>  <reference>
R3|R18|R26|R27|R47|R2|R2|R8|R21|R25|R27|R27|R38|R40|R41|R43|R46|R50|R3|

>  <group>
A

>  <Class>
1

>  <ABC>
16.5

>  <ABCGG>
13.73

>  <nAcid>
0

>  <nBase>
0

>  <nAromAtom>
12

>  <nAromBond>
12

>  <nAtom>
31

>  <nHeavyAtom>
21

>  <nSpiro>
0

>  <nBridgehead>
0

>  <nHetero>
6

>  <nN>
2

>  <nO>
2

>  <nF>
0

>  <BalabanJ>
1.83

>  <BertzCT>
759.09

>  <nBonds>
33

>  <nBondsO>
23

>  <nBondsS>
19

>  <nBondsD>
2

>  <nBondsT>
0

>  <nBondsA>
12

>  <nBondsM>
14

>  <nBondsKS>
25

>  <nBondsKD>
8

>  <RNCG>
0.22

>  <RPCG>
0.16

>  <FCSP3>
0.07

>  <SZ>
27.33

>  <Sm>
26.74

>  <Sv>
22.84

>  <Sse>
31.96

>  <Sp>
23.88

>  <Si>
34.38

>  <MZ>
0.88

>  <Mm>
0.86

>  <Mv>
0.74

>  <Mse>
1.03

>  <Mp>
0.77

>  <Mi>
1.11

>  <NsCH3>
0

>  <NdCH2>
0

>  <NssCH2>
0

>  <NtCH>
0

>  <NdsCH>
0

>  <NaaCH>
7

>  <NsssCH>
1

>  <NddC>
0

>  <NtsC>
0

>  <NdssC>
2

>  <NaasC>
5

>  <NaaaC>
0

>  <NssssC>
0

>  <NsNH3>
0

>  <NsNH2>
0

>  <NssNH2>
0

>  <NdNH>
0

>  <NssNH>
1

>  <NaaNH>
0

>  <NtN>
0

>  <NsssNH>
0

>  <NdsN>
1

>  <NaaN>
0

>  <NsssN>
0

>  <NddsN>
0

>  <NaasN>
0

>  <NssssN>
0

>  <NsOH>
1

>  <NdO>
1

>  <NssO>
0

>  <NaaO>
0

>  <NsF>
0

>  <NsSiH3>
0

>  <NssSiH2>
0

>  <NsssSiH>
0

>  <NssssSi>
0

>  <NsPH2>
0

>  <NssPH>
0

>  <NsssP>
0

>  <NdsssP>
0

>  <NsssssP>
0

>  <NsSH>
0

>  <NdS>
0

>  <NssS>
0

>  <NaaS>
0

>  <NdssS>
0

>  <NddssS>
0

>  <NsCl>
2

>  <NsBr>
0

>  <NsI>
0

>  <fragCpx>
109.06

>  <fMF>
0.55

>  <nHBAcc>
3

>  <nHBDon>
2

>  <Kier1>
15.88

>  <Kier2>
6.63

>  <Lipinski>
1

>  <GhoseFilter>
1

>  <FilterItLogS>
-5.06

>  <VMcGowan>
211.41

>  <LabuteASA>
130.58

>  <PEOE_VSA1>
10.42

>  <PEOE_VSA2>
4.79

>  <PEOE_VSA3>
4.99

>  <PEOE_VSA4>
0

>  <PEOE_VSA5>
0

>  <PEOE_VSA6>
41.4

>  <PEOE_VSA7>
24.27

>  <PEOE_VSA8>
21.17

>  <PEOE_VSA9>
11.4

>  <PEOE_VSA10>
0

>  <PEOE_VSA11>
0

>  <PEOE_VSA12>
6.23

>  <PEOE_VSA13>
5.91

>  <SMR_VSA1>
9.9

>  <SMR_VSA2>
0

>  <SMR_VSA3>
0

>  <SMR_VSA4>
4.99

>  <SMR_VSA5>
6.23

>  <SMR_VSA6>
5.32

>  <SMR_VSA7>
63.64

>  <SMR_VSA8>
0

>  <SMR_VSA9>
0

>  <SlogP_VSA1>
5.32

>  <SlogP_VSA2>
22.95

>  <SlogP_VSA3>
4.79

>  <SlogP_VSA4>
0

>  <SlogP_VSA5>
11.13

>  <SlogP_VSA6>
47.46

>  <SlogP_VSA7>
10.05

>  <SlogP_VSA8>
0

>  <SlogP_VSA9>
0

>  <SlogP_VSA10>
5.69

>  <SlogP_VSA11>
0

>  <EState_VSA1>
12.14

>  <EState_VSA2>
0

>  <EState_VSA3>
32.57

>  <EState_VSA4>
0

>  <EState_VSA5>
0

>  <EState_VSA6>
42.46

>  <EState_VSA7>
0

>  <EState_VSA8>
10.31

>  <EState_VSA9>
23.2

>  <EState_VSA10>
9.9

>  <VSA_EState1>
0

>  <VSA_EState2>
15.88

>  <VSA_EState3>
13.43

>  <VSA_EState4>
2.18

>  <VSA_EState5>
-0.6

>  <VSA_EState6>
12.09

>  <VSA_EState7>
-1.5

>  <VSA_EState8>
0

>  <VSA_EState9>
0

>  <apol>
39.88

>  <bpol>
13.63

>  <nRing>
3

>  <nHRing>
1

>  <naRing>
2

>  <naHRing>
0

>  <nARing 2>
1

>  <nAHRing 2>
1

>  <nFRing>
1

>  <nFHRing>
1

>  <nFaRing>
0

>  <nFaHRing>
0

>  <nFARing 2>
1

>  <nFAHRing 2>
1

>  <nRot>
1

>  <SLogP>
3.1

>  <SMR>
83.18

>  <TopoPSA(NO)>
61.69

>  <TopoPSA>
61.69

>  <JGI1>
0.2

>  <JGI2>
0.09

>  <JGI3>
0.04

>  <JGI4>
0.05

>  <JGI5>
0.03

>  <Diameter>
8

>  <Radius>
4

>  <TMWC10>
118.42

>  <TSRW10>
63.18

>  <MW>
320.01

>  <AMW>
10.32

>  <WPath>
819

>  <WPol>
38

>  <Zagreb1>
112

>  <Zagreb2>
133

>  <mZagreb2>
4.56

>  <yes>


>  <nAR-cont>
0.816016

>  <nHA-cont>
0.994529749

>  <MWHBN>
0.27950413

>  <MWHBN-cont>
0.897334183

>  <TPSA-cont>
0.569365493

>  <pka_cont>
0.97

>  <yes.1>


>  <BBB_SCORE>
4.780278009

>  <MMFF94 Energy>
99.557

$$$$
Compound 570
Actelion Java MolfileCreator 2.0

  0  0  0  0  0  0              0 V3000
M  V30 BEGIN CTAB
M  V30 COUNTS 25 26 0 0 0
M  V30 BEGIN ATOM
M  V30 1 Cl -1.4754 -6.2405 0.5735 0
M  V30 2 C -1.1856 -4.5572 0.4297 0
M  V30 3 N 0.0947 -4.2218 0.1873 0
M  V30 4 C -2.2184 -3.6455 0.5549 0
M  V30 5 C 0.3615 -2.8955 0.0696 0
M  V30 6 C -1.9159 -2.2902 0.424 0
M  V30 7 C -0.599 -1.8908 0.1804 0
M  V30 8 N -0.3457 -0.5095 0.0397 0
M  V30 9 C 0.9003 0.0879 0.0017 0
M  V30 10 O 1.9767 -0.4742 0.1552 0
M  V30 11 C 0.8946 1.5627 -0.204 0
M  V30 12 C 1.8846 2.3244 0.4304 0
M  V30 13 C -0.0469 2.1902 -1.0367 0
M  V30 14 C 1.9085 3.7033 0.2514 0
M  V30 15 C -0.0105 3.5773 -1.209 0
M  V30 16 F 2.8492 4.4299 0.8696 0
M  V30 17 C 0.9662 4.3263 -0.559 0
M  V30 18 F 0.9931 5.655 -0.728 0
M  V30 19 H -3.2328 -3.9747 0.749 0
M  V30 20 H 1.4061 -2.6816 -0.1338 0
M  V30 21 H -2.7164 -1.5623 0.5207 0
M  V30 22 H -1.1579 0.0938 0.0381 0
M  V30 23 H 2.6345 1.8542 1.0614 0
M  V30 24 H -0.79 1.6137 -1.582 0
M  V30 25 H -0.7271 4.0785 -1.8535 0
M  V30 END ATOM
M  V30 BEGIN BOND
M  V30 1 1 1 2
M  V30 2 2 2 3
M  V30 3 1 2 4
M  V30 4 1 3 5
M  V30 5 2 4 6
M  V30 6 2 5 7
M  V30 7 1 7 8
M  V30 8 1 8 9
M  V30 9 2 9 10
M  V30 10 1 9 11
M  V30 11 2 11 12
M  V30 12 1 11 13
M  V30 13 1 12 14
M  V30 14 2 13 15
M  V30 15 1 14 16
M  V30 16 2 14 17
M  V30 17 1 17 18
M  V30 18 1 6 7
M  V30 19 1 15 17
M  V30 20 1 4 19
M  V30 21 1 5 20
M  V30 22 1 6 21
M  V30 23 1 8 22
M  V30 24 1 12 23
M  V30 25 1 13 24
M  V30 26 1 15 25
M  V30 END BOND
M  V30 END CTAB
M  END
>  <Column 1>
691

>  <level_0>
790

>  <index>
790

>  <Unnamed: 0>
790

>  <NO.>
802

>  <Name>
ica-27243

>  <IUPAC_name>
n-(6-chloropyridin-3-yl)-3-4-difluorobenzamide

>  <SMILES>
O=C(Nc1ccc(Cl)nc1)c1ccc(F)c(F)c1

>  <CID>
9903497

>  <logBB>
0.44

>  <BBB+/BBB->
BBB+

>  <Inchi>
InChI=1S/C12H7ClF2N2O/c13-11-4-2-8(6-16-11)17-12(18)7-1-3-9(14)10(15)5-7/h1-6H-(H-17-18)

>  <threshold>


>  <reference>
R18|R26|R27|

>  <group>
A

>  <Class>
1

>  <ABC>
13.79

>  <ABCGG>
11.49

>  <nAcid>
0

>  <nBase>
0

>  <nAromAtom>
12

>  <nAromBond>
12

>  <nAtom>
25

>  <nHeavyAtom>
18

>  <nSpiro>
0

>  <nBridgehead>
0

>  <nHetero>
6

>  <nN>
2

>  <nO>
1

>  <nF>
2

>  <BalabanJ>
1.76

>  <BertzCT>
587.13

>  <nBonds>
26

>  <nBondsO>
19

>  <nBondsS>
13

>  <nBondsD>
1

>  <nBondsT>
0

>  <nBondsA>
12

>  <nBondsM>
13

>  <nBondsKS>
19

>  <nBondsKD>
7

>  <RNCG>
0.22

>  <RPCG>
0.18

>  <FCSP3>
0

>  <SZ>
22.67

>  <Sm>
22.37

>  <Sv>
18.51

>  <Sse>
26.44

>  <Sp>
18.57

>  <Si>
28.49

>  <MZ>
0.91

>  <Mm>
0.89

>  <Mv>
0.74

>  <Mse>
1.06

>  <Mp>
0.74

>  <Mi>
1.14

>  <NsCH3>
0

>  <NdCH2>
0

>  <NssCH2>
0

>  <NtCH>
0

>  <NdsCH>
0

>  <NaaCH>
6

>  <NsssCH>
0

>  <NddC>
0

>  <NtsC>
0

>  <NdssC>
1

>  <NaasC>
5

>  <NaaaC>
0

>  <NssssC>
0

>  <NsNH3>
0

>  <NsNH2>
0

>  <NssNH2>
0

>  <NdNH>
0

>  <NssNH>
1

>  <NaaNH>
0

>  <NtN>
0

>  <NsssNH>
0

>  <NdsN>
0

>  <NaaN>
1

>  <NsssN>
0

>  <NddsN>
0

>  <NaasN>
0

>  <NssssN>
0

>  <NsOH>
0

>  <NdO>
1

>  <NssO>
0

>  <NaaO>
0

>  <NsF>
2

>  <NsSiH3>
0

>  <NssSiH2>
0

>  <NsssSiH>
0

>  <NssssSi>
0

>  <NsPH2>
0

>  <NssPH>
0

>  <NsssP>
0

>  <NdsssP>
0

>  <NsssssP>
0

>  <NsSH>
0

>  <NdS>
0

>  <NssS>
0

>  <NaaS>
0

>  <NdssS>
0

>  <NddssS>
0

>  <NsCl>
1

>  <NsBr>
0

>  <NsI>
0

>  <fragCpx>
55.06

>  <fMF>
0.56

>  <nHBAcc>
2

>  <nHBDon>
1

>  <Kier1>
14.41

>  <Kier2>
6.44

>  <Lipinski>
1

>  <GhoseFilter>
1

>  <FilterItLogS>
-4.81

>  <VMcGowan>
169.71

>  <LabuteASA>
106.42

>  <PEOE_VSA1>
5.32

>  <PEOE_VSA2>
4.79

>  <PEOE_VSA3>
13.76

>  <PEOE_VSA4>
0

>  <PEOE_VSA5>
0

>  <PEOE_VSA6>
11.6

>  <PEOE_VSA7>
30.33

>  <PEOE_VSA8>
5.56

>  <PEOE_VSA9>
11.88

>  <PEOE_VSA10>
5.15

>  <PEOE_VSA11>
11.63

>  <PEOE_VSA12>
0

>  <PEOE_VSA13>
5.91

>  <SMR_VSA1>
13.58

>  <SMR_VSA2>
0

>  <SMR_VSA3>
4.98

>  <SMR_VSA4>
0

>  <SMR_VSA5>
0

>  <SMR_VSA6>
5.32

>  <SMR_VSA7>
58.88

>  <SMR_VSA8>
0

>  <SMR_VSA9>
0

>  <SlogP_VSA1>
5.32

>  <SlogP_VSA2>
10.89

>  <SlogP_VSA3>
0

>  <SlogP_VSA4>
11.63

>  <SlogP_VSA5>
10.36

>  <SlogP_VSA6>
36.53

>  <SlogP_VSA7>
5.15

>  <SlogP_VSA8>
0

>  <SlogP_VSA9>
0

>  <SlogP_VSA10>
14.47

>  <SlogP_VSA11>
0

>  <EState_VSA1>
17.54

>  <EState_VSA2>
5.56

>  <EState_VSA3>
10.84

>  <EState_VSA4>
12.13

>  <EState_VSA5>
18.33

>  <EState_VSA6>
6.07

>  <EState_VSA7>
0

>  <EState_VSA8>
10.3

>  <EState_VSA9>
11.6

>  <EState_VSA10>
13.58

>  <VSA_EState1>
25.65

>  <VSA_EState2>
15.48

>  <VSA_EState3>
2.78

>  <VSA_EState4>
0.43

>  <VSA_EState5>
-2.63

>  <VSA_EState6>
5.96

>  <VSA_EState7>
1.36

>  <VSA_EState8>
0

>  <VSA_EState9>
0

>  <apol>
31

>  <bpol>
12.34

>  <nRing>
2

>  <nHRing>
1

>  <naRing>
2

>  <naHRing>
1

>  <nARing 2>
0

>  <nAHRing 2>
0

>  <nFRing>
0

>  <nFHRing>
0

>  <nFaRing>
0

>  <nFaHRing>
0

>  <nFARing 2>
0

>  <nFAHRing 2>
0

>  <nRot>
2

>  <SLogP>
3.27

>  <SMR>
63.56

>  <TopoPSA(NO)>
41.99

>  <TopoPSA>
41.99

>  <JGI1>
0.24

>  <JGI2>
0.09

>  <JGI3>
0.04

>  <JGI4>
0.06

>  <JGI5>
0.03

>  <Diameter>
11

>  <Radius>
6

>  <TMWC10>
107.61

>  <TSRW10>
50.71

>  <MW>
268.02

>  <AMW>
10.72

>  <WPath>
659

>  <WPol>
25

>  <Zagreb1>
90

>  <Zagreb2>
102

>  <mZagreb2>
3.97

>  <yes>


>  <nAR-cont>
0.336376

>  <nHA-cont>
0.991161285

>  <MWHBN>
0.183247329

>  <MWHBN-cont>
0.990423552

>  <TPSA-cont>
0.706883726

>  <pka_cont>
0.97

>  <yes.1>


>  <BBB_SCORE>
4.711940064

>  <MMFF94 Energy>
38.753

$$$$
Compound 571
Actelion Java MolfileCreator 2.0

  0  0  0  0  0  0              0 V3000
M  V30 BEGIN CTAB
M  V30 COUNTS 48 50 0 0 0
M  V30 BEGIN ATOM
M  V30 1 S -1.0378 -2.6361 5.8385 0
M  V30 2 C -1.056 -0.9662 6.2829 0
M  V30 3 C -1.6427 -3.0597 7.3811 0
M  V30 4 N -1.4812 -0.7387 7.5057 0
M  V30 5 N -0.6752 0.0543 5.486 0
M  V30 6 C -1.817 -1.9212 8.1326 0
M  V30 7 C -0.2489 -0.0602 4.1116 0
M  V30 8 C -1.4456 -0.0284 3.1681 0
M  V30 9 C -1.0009 -0.1291 1.7127 0
M  V30 10 O -2.1674 -0.0752 0.893 0
M  V30 11 C -1.9841 -0.1387 -0.461 0
M  V30 12 C -0.7603 -0.2773 -1.12 0
M  V30 13 C -3.1596 -0.0538 -1.2104 0
M  V30 14 C -0.7059 -0.3274 -2.5244 0
M  V30 15 C -3.12 -0.1028 -2.6033 0
M  V30 16 C -1.898 -0.2396 -3.2577 0
M  V30 17 C 0.621 -0.4877 -3.2394 0
M  V30 18 N 0.9251 0.6196 -4.1596 0
M  V30 19 C 2.0494 0.296 -5.0498 0
M  V30 20 C 1.1571 1.903 -3.4783 0
M  V30 21 C 3.4153 0.3078 -4.3585 0
M  V30 22 C 2.4889 1.9805 -2.7269 0
M  V30 23 C 3.6597 1.63 -3.6389 0
M  V30 24 H -1.8355 -4.0859 7.6562 0
M  V30 25 H -0.7589 0.9863 5.8772 0
M  V30 26 H -2.1879 -1.8934 9.1498 0
M  V30 27 H 0.363 -0.9547 3.9484 0
M  V30 28 H 0.4025 0.7935 3.8886 0
M  V30 29 H -2.021 0.8951 3.3137 0
M  V30 30 H -2.1441 -0.8442 3.3912 0
M  V30 31 H -0.3361 0.71 1.4746 0
M  V30 32 H -0.4764 -1.0795 1.5571 0
M  V30 33 H 0.1692 -0.346 -0.5657 0
M  V30 34 H -4.1151 0.054 -0.703 0
M  V30 35 H -4.04 -0.0312 -3.1767 0
M  V30 36 H -1.8693 -0.2685 -4.3451 0
M  V30 37 H 0.5486 -1.427 -3.8047 0
M  V30 38 H 1.425 -0.6409 -2.51 0
M  V30 39 H 2.0607 1.027 -5.869 0
M  V30 40 H 1.8866 -0.6756 -5.5322 0
M  V30 41 H 0.3346 2.1442 -2.7953 0
M  V30 42 H 1.1359 2.6974 -4.2363 0
M  V30 43 H 4.2039 0.1453 -5.1022 0
M  V30 44 H 3.4835 -0.5195 -3.6424 0
M  V30 45 H 2.4773 1.3043 -1.8641 0
M  V30 46 H 2.6266 2.9927 -2.3295 0
M  V30 47 H 4.5867 1.5764 -3.0575 0
M  V30 48 H 3.7926 2.4272 -4.3808 0
M  V30 END ATOM
M  V30 BEGIN BOND
M  V30 1 1 1 2
M  V30 2 1 1 3
M  V30 3 2 2 4
M  V30 4 1 2 5
M  V30 5 2 3 6
M  V30 6 1 5 7
M  V30 7 1 7 8
M  V30 8 1 8 9
M  V30 9 1 9 10
M  V30 10 1 10 11
M  V30 11 2 11 12
M  V30 12 1 11 13
M  V30 13 1 12 14
M  V30 14 2 13 15
M  V30 15 2 14 16
M  V30 16 1 14 17
M  V30 17 1 17 18
M  V30 18 1 18 19
M  V30 19 1 18 20
M  V30 20 1 19 21
M  V30 21 1 20 22
M  V30 22 1 21 23
M  V30 23 1 4 6
M  V30 24 1 15 16
M  V30 25 1 22 23
M  V30 26 1 3 24
M  V30 27 1 5 25
M  V30 28 1 6 26
M  V30 29 1 7 27
M  V30 30 1 7 28
M  V30 31 1 8 29
M  V30 32 1 8 30
M  V30 33 1 9 31
M  V30 34 1 9 32
M  V30 35 1 12 33
M  V30 36 1 13 34
M  V30 37 1 15 35
M  V30 38 1 16 36
M  V30 39 1 17 37
M  V30 40 1 17 38
M  V30 41 1 19 39
M  V30 42 1 19 40
M  V30 43 1 20 41
M  V30 44 1 20 42
M  V30 45 1 21 43
M  V30 46 1 21 44
M  V30 47 1 22 45
M  V30 48 1 22 46
M  V30 49 1 23 47
M  V30 50 1 23 48
M  V30 END BOND
M  V30 END CTAB
M  END
>  <Column 1>
692

>  <level_0>
791

>  <index>
791

>  <Unnamed: 0>
791

>  <NO.>
803

>  <Name>
chebi: 338961

>  <IUPAC_name>
n-[3-[3-(piperidin-1-ylmethyl)phenoxy]propyl]-1-3-thiazol-2-amine

>  <SMILES>
c1cc(CN2CCCCC2)cc(OCCCNc2nccs2)c1

>  <CID>
14022497

>  <logBB>
0.44

>  <BBB+/BBB->
BBB+

>  <Inchi>
InChI=1S/C18H25N3OS/c1-2-10-21(11-3-1)15-16-6-4-7-17(14-16)22-12-5-8-19-18-20-9-13-23-18/h4-6-7-9-13-14H-1-3-5-8-10-12-15H2-(H-19-20)

>  <threshold>


>  <reference>
R2|R2|R3|R3|R8|R12|R18|R21|R25|R26|R27|R27|R27|R35|R36|R38|R38|R41|R41|R43|R46|R47|R48|R49|R49|R4|R40|

>  <group>
A

>  <Class>
1

>  <ABC>
17.68

>  <ABCGG>
13.36

>  <nAcid>
0

>  <nBase>
1

>  <nAromAtom>
11

>  <nAromBond>
11

>  <nAtom>
48

>  <nHeavyAtom>
23

>  <nSpiro>
0

>  <nBridgehead>
0

>  <nHetero>
5

>  <nN>
3

>  <nO>
1

>  <nF>
0

>  <BalabanJ>
1.24

>  <BertzCT>
567.41

>  <nBonds>
50

>  <nBondsO>
25

>  <nBondsS>
39

>  <nBondsD>
0

>  <nBondsT>
0

>  <nBondsA>
11

>  <nBondsM>
11

>  <nBondsKS>
45

>  <nBondsKD>
5

>  <RNCG>
0.27

>  <RPCG>
0.1

>  <FCSP3>
0.5

>  <SZ>
29.67

>  <Sm>
27.6

>  <Sv>
28.95

>  <Sse>
47.49

>  <Sp>
32.17

>  <Si>
54.19

>  <MZ>
0.62

>  <Mm>
0.57

>  <Mv>
0.6

>  <Mse>
0.99

>  <Mp>
0.67

>  <Mi>
1.13

>  <NsCH3>
0

>  <NdCH2>
0

>  <NssCH2>
9

>  <NtCH>
0

>  <NdsCH>
0

>  <NaaCH>
6

>  <NsssCH>
0

>  <NddC>
0

>  <NtsC>
0

>  <NdssC>
0

>  <NaasC>
3

>  <NaaaC>
0

>  <NssssC>
0

>  <NsNH3>
0

>  <NsNH2>
0

>  <NssNH2>
0

>  <NdNH>
0

>  <NssNH>
1

>  <NaaNH>
0

>  <NtN>
0

>  <NsssNH>
0

>  <NdsN>
0

>  <NaaN>
1

>  <NsssN>
1

>  <NddsN>
0

>  <NaasN>
0

>  <NssssN>
0

>  <NsOH>
0

>  <NdO>
0

>  <NssO>
1

>  <NaaO>
0

>  <NsF>
0

>  <NsSiH3>
0

>  <NssSiH2>
0

>  <NsssSiH>
0

>  <NssssSi>
0

>  <NsPH2>
0

>  <NssPH>
0

>  <NsssP>
0

>  <NdsssP>
0

>  <NsssssP>
0

>  <NsSH>
0

>  <NdS>
0

>  <NssS>
0

>  <NaaS>
1

>  <NdssS>
0

>  <NddssS>
0

>  <NsCl>
0

>  <NsBr>
0

>  <NsI>
0

>  <fragCpx>
119.05

>  <fMF>
0.48

>  <nHBAcc>
5

>  <nHBDon>
1

>  <Kier1>
17.81

>  <Kier2>
10.1

>  <Lipinski>
1

>  <GhoseFilter>
1

>  <FilterItLogS>
-5.01

>  <VMcGowan>
262.56

>  <LabuteASA>
142.05

>  <PEOE_VSA1>
10.05

>  <PEOE_VSA2>
4.9

>  <PEOE_VSA3>
4.98

>  <PEOE_VSA4>
0

>  <PEOE_VSA5>
11.34

>  <PEOE_VSA6>
18.55

>  <PEOE_VSA7>
50.05

>  <PEOE_VSA8>
24.67

>  <PEOE_VSA9>
6.61

>  <PEOE_VSA10>
5.75

>  <PEOE_VSA11>
5.13

>  <PEOE_VSA12>
0

>  <PEOE_VSA13>
0

>  <SMR_VSA1>
4.74

>  <SMR_VSA2>
0

>  <SMR_VSA3>
9.88

>  <SMR_VSA4>
0

>  <SMR_VSA5>
32.23

>  <SMR_VSA6>
31.56

>  <SMR_VSA7>
41.41

>  <SMR_VSA8>
0

>  <SMR_VSA9>
5.75

>  <SlogP_VSA1>
10.05

>  <SlogP_VSA2>
36.13

>  <SlogP_VSA3>
6.54

>  <SlogP_VSA4>
0

>  <SlogP_VSA5>
31.25

>  <SlogP_VSA6>
35.84

>  <SlogP_VSA7>
0

>  <SlogP_VSA8>
0

>  <SlogP_VSA9>
0

>  <SlogP_VSA10>
5.13

>  <SlogP_VSA11>
5.75

>  <EState_VSA1>
0

>  <EState_VSA2>
0

>  <EState_VSA3>
0

>  <EState_VSA4>
37

>  <EState_VSA5>
37.92

>  <EState_VSA6>
11.34

>  <EState_VSA7>
17.64

>  <EState_VSA8>
33.4

>  <EState_VSA9>
4.74

>  <EState_VSA10>
0

>  <VSA_EState1>
5.88

>  <VSA_EState2>
6.74

>  <VSA_EState3>
6.26

>  <VSA_EState4>
1.35

>  <VSA_EState5>
0.98

>  <VSA_EState6>
8.53

>  <VSA_EState7>
6.84

>  <VSA_EState8>
5.12

>  <VSA_EState9>
0

>  <apol>
53.73

>  <bpol>
32.7

>  <nRing>
3

>  <nHRing>
2

>  <naRing>
2

>  <naHRing>
1

>  <nARing 2>
1

>  <nAHRing 2>
1

>  <nFRing>
0

>  <nFHRing>
0

>  <nFaRing>
0

>  <nFaHRing>
0

>  <nFARing 2>
0

>  <nFAHRing 2>
0

>  <nRot>
8

>  <SLogP>
4.01

>  <SMR>
96.29

>  <TopoPSA(NO)>
37.39

>  <TopoPSA>
65.63

>  <JGI1>
0.12

>  <JGI2>
0.03

>  <JGI3>
0.03

>  <JGI4>
0.02

>  <JGI5>
0.01

>  <Diameter>
15

>  <Radius>
8

>  <TMWC10>
119.55

>  <TSRW10>
69.44

>  <MW>
331.17

>  <AMW>
6.9

>  <WPath>
1517

>  <WPol>
26

>  <Zagreb1>
112

>  <Zagreb2>
124

>  <mZagreb2>
5.25

>  <yes>


>  <nAR-cont>
0.816016

>  <nHA-cont>
0.967789328

>  <MWHBN>
0.329705169

>  <MWHBN-cont>
0.743876995

>  <TPSA-cont>
0.541861846

>  <pka_cont>
0.97

>  <yes.1>


>  <BBB_SCORE>
4.468344512

>  <MMFF94 Energy>
-6.6835

$$$$
Compound 572
Actelion Java MolfileCreator 2.0

  0  0  0  0  0  0              0 V3000
M  V30 BEGIN CTAB
M  V30 COUNTS 20 19 0 0 0
M  V30 BEGIN ATOM
M  V30 1 O -1.607 -2.4496 0.0 0
M  V30 2 C -1.7736 -1.3596 -0.5283 0
M  V30 3 O -0.9841 -0.2654 -0.3516 0
M  V30 4 C -2.8904 -1.0374 -1.473 0
M  V30 5 C 0.1217 -0.4738 0.5381 0
M  V30 6 C 0.9402 0.8199 0.6319 0
M  V30 7 C 2.0489 0.6751 1.672 0
M  V30 8 C 1.5317 1.2045 -0.7259 0
M  V30 9 H -3.5074 -0.2363 -1.0583 0
M  V30 10 H -2.4821 -0.7459 -2.4439 0
M  V30 11 H -3.5162 -1.9238 -1.6102 0
M  V30 12 H 0.7461 -1.2938 0.1625 0
M  V30 13 H -0.2656 -0.7406 1.5289 0
M  V30 14 H 0.2718 1.6338 0.941 0
M  V30 15 H 2.7469 -0.1241 1.4008 0
M  V30 16 H 1.6304 0.4402 2.6564 0
M  V30 17 H 2.619 1.6055 1.7655 0
M  V30 18 H 2.194 0.4196 -1.1065 0
M  V30 19 H 0.7442 1.3727 -1.4675 0
M  V30 20 H 2.1137 2.129 -0.6469 0
M  V30 END ATOM
M  V30 BEGIN BOND
M  V30 1 2 1 2
M  V30 2 1 2 3
M  V30 3 1 2 4
M  V30 4 1 3 5
M  V30 5 1 5 6
M  V30 6 1 6 7
M  V30 7 1 6 8
M  V30 8 1 4 9
M  V30 9 1 4 10
M  V30 10 1 4 11
M  V30 11 1 5 12
M  V30 12 1 5 13
M  V30 13 1 6 14
M  V30 14 1 7 15
M  V30 15 1 7 16
M  V30 16 1 7 17
M  V30 17 1 8 18
M  V30 18 1 8 19
M  V30 19 1 8 20
M  V30 END BOND
M  V30 END CTAB
M  END
>  <Column 1>
693

>  <level_0>
792

>  <index>
792

>  <Unnamed: 0>
792

>  <NO.>
804

>  <Name>
isobutyl acetate

>  <IUPAC_name>
2-methylpropyl acetate

>  <SMILES>
CC(=O)OCC(C)C

>  <CID>
8038

>  <logBB>
0.45

>  <BBB+/BBB->
BBB+

>  <Inchi>
InChI=1S/C6H12O2/c1-5(2)4-8-6(3)7/h5H-4H2-1-3H3

>  <threshold>


>  <reference>
R3|R38|R2|R2|R8|R27|R40|R21|R25|R27|R41|R43|R46|R47|

>  <group>
A

>  <Class>
1

>  <ABC>
5.39

>  <ABCGG>
5.58

>  <nAcid>
0

>  <nBase>
0

>  <nAromAtom>
0

>  <nAromBond>
0

>  <nAtom>
20

>  <nHeavyAtom>
8

>  <nSpiro>
0

>  <nBridgehead>
0

>  <nHetero>
2

>  <nN>
0

>  <nO>
2

>  <nF>
0

>  <BalabanJ>
2.93

>  <BertzCT>
76.6

>  <nBonds>
19

>  <nBondsO>
7

>  <nBondsS>
18

>  <nBondsD>
1

>  <nBondsT>
0

>  <nBondsA>
0

>  <nBondsM>
1

>  <nBondsKS>
18

>  <nBondsKD>
1

>  <RNCG>
0.55

>  <RPCG>
0.36

>  <FCSP3>
0.83

>  <SZ>
10.67

>  <Sm>
9.67

>  <Sv>
10.68

>  <Sse>
19.99

>  <Sp>
11.75

>  <Si>
22.91

>  <MZ>
0.53

>  <Mm>
0.48

>  <Mv>
0.53

>  <Mse>
1

>  <Mp>
0.59

>  <Mi>
1.15

>  <NsCH3>
3

>  <NdCH2>
0

>  <NssCH2>
1

>  <NtCH>
0

>  <NdsCH>
0

>  <NaaCH>
0

>  <NsssCH>
1

>  <NddC>
0

>  <NtsC>
0

>  <NdssC>
1

>  <NaasC>
0

>  <NaaaC>
0

>  <NssssC>
0

>  <NsNH3>
0

>  <NsNH2>
0

>  <NssNH2>
0

>  <NdNH>
0

>  <NssNH>
0

>  <NaaNH>
0

>  <NtN>
0

>  <NsssNH>
0

>  <NdsN>
0

>  <NaaN>
0

>  <NsssN>
0

>  <NddsN>
0

>  <NaasN>
0

>  <NssssN>
0

>  <NsOH>
0

>  <NdO>
1

>  <NssO>
1

>  <NaaO>
0

>  <NsF>
0

>  <NsSiH3>
0

>  <NssSiH2>
0

>  <NsssSiH>
0

>  <NssssSi>
0

>  <NsPH2>
0

>  <NssPH>
0

>  <NsssP>
0

>  <NdsssP>
0

>  <NsssssP>
0

>  <NsSH>
0

>  <NdS>
0

>  <NssS>
0

>  <NaaS>
0

>  <NdssS>
0

>  <NddssS>
0

>  <NsCl>
0

>  <NsBr>
0

>  <NsI>
0

>  <fragCpx>
7.02

>  <fMF>
0

>  <nHBAcc>
2

>  <nHBDon>
0

>  <Kier1>
8

>  <Kier2>
3.94

>  <Lipinski>
1

>  <GhoseFilter>
0

>  <FilterItLogS>
-1.13

>  <VMcGowan>
102.84

>  <LabuteASA>
49.84

>  <PEOE_VSA1>
4.74

>  <PEOE_VSA2>
4.79

>  <PEOE_VSA3>
0

>  <PEOE_VSA4>
0

>  <PEOE_VSA5>
0

>  <PEOE_VSA6>
13.85

>  <PEOE_VSA7>
5.92

>  <PEOE_VSA8>
6.92

>  <PEOE_VSA9>
6.61

>  <PEOE_VSA10>
0

>  <PEOE_VSA11>
0

>  <PEOE_VSA12>
0

>  <PEOE_VSA13>
0

>  <SMR_VSA1>
9.53

>  <SMR_VSA2>
0

>  <SMR_VSA3>
0

>  <SMR_VSA4>
5.92

>  <SMR_VSA5>
20.77

>  <SMR_VSA6>
6.61

>  <SMR_VSA7>
0

>  <SMR_VSA8>
0

>  <SMR_VSA9>
0

>  <SlogP_VSA1>
0

>  <SlogP_VSA2>
12.58

>  <SlogP_VSA3>
9.53

>  <SlogP_VSA4>
5.92

>  <SlogP_VSA5>
20.77

>  <SlogP_VSA6>
0

>  <SlogP_VSA7>
0

>  <SlogP_VSA8>
0

>  <SlogP_VSA9>
0

>  <SlogP_VSA10>
0

>  <SlogP_VSA11>
0

>  <EState_VSA1>
0

>  <EState_VSA2>
5.97

>  <EState_VSA3>
12.52

>  <EState_VSA4>
0

>  <EState_VSA5>
6.92

>  <EState_VSA6>
0

>  <EState_VSA7>
13.85

>  <EState_VSA8>
4.74

>  <EState_VSA9>
0

>  <EState_VSA10>
4.79

>  <VSA_EState1>
4.66

>  <VSA_EState2>
10.13

>  <VSA_EState3>
0

>  <VSA_EState4>
0

>  <VSA_EState5>
0.25

>  <VSA_EState6>
0

>  <VSA_EState7>
0

>  <VSA_EState8>
5.96

>  <VSA_EState9>
0

>  <apol>
19.63

>  <bpol>
14.64

>  <nRing>
0

>  <nHRing>
0

>  <naRing>
0

>  <naHRing>
0

>  <nARing 2>
0

>  <nAHRing 2>
0

>  <nFRing>
0

>  <nFHRing>
0

>  <nFaRing>
0

>  <nFaHRing>
0

>  <nFARing 2>
0

>  <nFAHRing 2>
0

>  <nRot>
2

>  <SLogP>
1.21

>  <SMR>
31.47

>  <TopoPSA(NO)>
26.3

>  <TopoPSA>
26.3

>  <JGI1>
0.36

>  <JGI2>
0.08

>  <JGI3>
0.05

>  <JGI4>
0.08

>  <JGI5>
0

>  <Diameter>
5

>  <Radius>
3

>  <TMWC10>
70.29

>  <TSRW10>
33.81

>  <MW>
116.08

>  <AMW>
5.8

>  <WPath>
74

>  <WPol>
5

>  <Zagreb1>
30

>  <Zagreb2>
28

>  <mZagreb2>
1.92

>  <yes>


>  <nAR-cont>
0.336376

>  <nHA-cont>
0.464727961

>  <MWHBN>
0.185631338

>  <MWHBN-cont>
0.992504102

>  <TPSA-cont>
0.816409669

>  <pka_cont>
0.97

>  <yes.1>


>  <BBB_SCORE>
4.407679452

>  <MMFF94 Energy>
-6.8534

$$$$
Compound 573
Actelion Java MolfileCreator 2.0

  0  0  0  0  0  0              0 V3000
M  V30 BEGIN CTAB
M  V30 COUNTS 16 16 0 0 0
M  V30 BEGIN ATOM
M  V30 1 C 0.2331 -0.3885 0.1554 0
M  V30 2 C -0.0446 0.9598 0.4181 0
M  V30 3 C -0.237 -0.9386 -1.0472 0
M  V30 4 C 0.991 -1.2583 1.0726 0
M  V30 5 C -0.7701 1.7343 -0.4934 0
M  V30 6 C -0.9622 -0.1657 -1.959 0
M  V30 7 C 1.5139 -0.9117 2.2564 0
M  V30 8 C -1.2286 1.1716 -1.6813 0
M  V30 9 H 0.2956 1.4347 1.3333 0
M  V30 10 H -0.0435 -1.9811 -1.2901 0
M  V30 11 H 1.132 -2.2852 0.7397 0
M  V30 12 H -0.9757 2.7785 -0.272 0
M  V30 13 H -1.3174 -0.6105 -2.8847 0
M  V30 14 H 1.4303 0.0824 2.6784 0
M  V30 15 H 2.0554 -1.6453 2.8464 0
M  V30 16 H -1.792 1.7743 -2.3885 0
M  V30 END ATOM
M  V30 BEGIN BOND
M  V30 1 2 1 2
M  V30 2 1 1 3
M  V30 3 1 1 4
M  V30 4 1 2 5
M  V30 5 2 3 6
M  V30 6 2 4 7
M  V30 7 2 5 8
M  V30 8 1 6 8
M  V30 9 1 2 9
M  V30 10 1 3 10
M  V30 11 1 4 11
M  V30 12 1 5 12
M  V30 13 1 6 13
M  V30 14 1 7 14
M  V30 15 1 7 15
M  V30 16 1 8 16
M  V30 END BOND
M  V30 END CTAB
M  END
>  <Column 1>
694

>  <level_0>
793

>  <index>
793

>  <Unnamed: 0>
793

>  <NO.>
805

>  <Name>
styrene

>  <IUPAC_name>
styrene

>  <SMILES>
C=Cc1ccccc1

>  <CID>
7501

>  <logBB>
0.45

>  <BBB+/BBB->
BBB+

>  <Inchi>
InChI=1S/C8H8/c1-2-8-6-4-3-5-7-8/h2-7H-1H2

>  <threshold>


>  <reference>
R2|R2|R8|R27|R40|R3|R21|R25|R27|R38|R41|R46|R47|

>  <group>
A

>  <Class>
1

>  <ABC>
5.66

>  <ABCGG>
5.43

>  <nAcid>
0

>  <nBase>
0

>  <nAromAtom>
6

>  <nAromBond>
6

>  <nAtom>
16

>  <nHeavyAtom>
8

>  <nSpiro>
0

>  <nBridgehead>
0

>  <nHetero>
0

>  <nN>
0

>  <nO>
0

>  <nF>
0

>  <BalabanJ>
2.13

>  <BertzCT>
162.65

>  <nBonds>
16

>  <nBondsO>
8

>  <nBondsS>
9

>  <nBondsD>
1

>  <nBondsT>
0

>  <nBondsA>
6

>  <nBondsM>
7

>  <nBondsKS>
12

>  <nBondsKD>
4

>  <RNCG>
0.2

>  <RPCG>
0.13

>  <FCSP3>
0

>  <SZ>
9.33

>  <Sm>
8.67

>  <Sv>
10.17

>  <Sse>
15.55

>  <Sp>
11.19

>  <Si>
17.66

>  <MZ>
0.58

>  <Mm>
0.54

>  <Mv>
0.64

>  <Mse>
0.97

>  <Mp>
0.7

>  <Mi>
1.1

>  <NsCH3>
0

>  <NdCH2>
1

>  <NssCH2>
0

>  <NtCH>
0

>  <NdsCH>
1

>  <NaaCH>
5

>  <NsssCH>
0

>  <NddC>
0

>  <NtsC>
0

>  <NdssC>
0

>  <NaasC>
1

>  <NaaaC>
0

>  <NssssC>
0

>  <NsNH3>
0

>  <NsNH2>
0

>  <NssNH2>
0

>  <NdNH>
0

>  <NssNH>
0

>  <NaaNH>
0

>  <NtN>
0

>  <NsssNH>
0

>  <NdsN>
0

>  <NaaN>
0

>  <NsssN>
0

>  <NddsN>
0

>  <NaasN>
0

>  <NssssN>
0

>  <NsOH>
0

>  <NdO>
0

>  <NssO>
0

>  <NaaO>
0

>  <NsF>
0

>  <NsSiH3>
0

>  <NssSiH2>
0

>  <NsssSiH>
0

>  <NssssSi>
0

>  <NsPH2>
0

>  <NssPH>
0

>  <NsssP>
0

>  <NdsssP>
0

>  <NsssssP>
0

>  <NsSH>
0

>  <NdS>
0

>  <NssS>
0

>  <NaaS>
0

>  <NdssS>
0

>  <NddssS>
0

>  <NsCl>
0

>  <NsBr>
0

>  <NsI>
0

>  <fragCpx>
8

>  <fMF>
0.38

>  <nHBAcc>
0

>  <nHBDon>
0

>  <Kier1>
6.13

>  <Kier2>
3.11

>  <Lipinski>
1

>  <GhoseFilter>
0

>  <FilterItLogS>
-2.01

>  <VMcGowan>
95.52

>  <LabuteASA>
49.47

>  <PEOE_VSA1>
0

>  <PEOE_VSA2>
0

>  <PEOE_VSA3>
0

>  <PEOE_VSA4>
0

>  <PEOE_VSA5>
0

>  <PEOE_VSA6>
42.99

>  <PEOE_VSA7>
5.56

>  <PEOE_VSA8>
0

>  <PEOE_VSA9>
0

>  <PEOE_VSA10>
0

>  <PEOE_VSA11>
0

>  <PEOE_VSA12>
0

>  <PEOE_VSA13>
0

>  <SMR_VSA1>
0

>  <SMR_VSA2>
0

>  <SMR_VSA3>
0

>  <SMR_VSA4>
0

>  <SMR_VSA5>
0

>  <SMR_VSA6>
0

>  <SMR_VSA7>
42.47

>  <SMR_VSA8>
0

>  <SMR_VSA9>
0

>  <SlogP_VSA1>
0

>  <SlogP_VSA2>
0

>  <SlogP_VSA3>
0

>  <SlogP_VSA4>
0

>  <SlogP_VSA5>
5.56

>  <SlogP_VSA6>
36.91

>  <SlogP_VSA7>
0

>  <SlogP_VSA8>
6.08

>  <SlogP_VSA9>
0

>  <SlogP_VSA10>
0

>  <SlogP_VSA11>
0

>  <EState_VSA1>
0

>  <EState_VSA2>
0

>  <EState_VSA3>
0

>  <EState_VSA4>
0

>  <EState_VSA5>
5.56

>  <EState_VSA6>
0

>  <EState_VSA7>
36.41

>  <EState_VSA8>
6.58

>  <EState_VSA9>
0

>  <EState_VSA10>
0

>  <VSA_EState1>
0

>  <VSA_EState2>
0

>  <VSA_EState3>
0

>  <VSA_EState4>
1.17

>  <VSA_EState5>
0

>  <VSA_EState6>
10.03

>  <VSA_EState7>
1.83

>  <VSA_EState8>
3.63

>  <VSA_EState9>
0

>  <apol>
18.69

>  <bpol>
8.03

>  <nRing>
1

>  <nHRing>
0

>  <naRing>
1

>  <naHRing>
0

>  <nARing 2>
0

>  <nAHRing 2>
0

>  <nFRing>
0

>  <nFHRing>
0

>  <nFaRing>
0

>  <nFaHRing>
0

>  <nFARing 2>
0

>  <nFAHRing 2>
0

>  <nRot>
1

>  <SLogP>
2.33

>  <SMR>
36.53

>  <TopoPSA(NO)>
0

>  <TopoPSA>
0

>  <JGI1>
0.13

>  <JGI2>
0.05

>  <JGI3>
0.03

>  <JGI4>
0.05

>  <JGI5>
0.06

>  <Diameter>
5

>  <Radius>
3

>  <TMWC10>
75.04

>  <TSRW10>
35.25

>  <MW>
104.06

>  <AMW>
6.5

>  <WPath>
64

>  <WPol>
7

>  <Zagreb1>
34

>  <Zagreb2>
36

>  <mZagreb2>
2

>  <yes>


>  <nAR-cont>
0.336376

>  <nHA-cont>
0.464727961

>  <MWHBN>
0

>  <MWHBN-cont>
0

>  <TPSA-cont>
0

>  <pka_cont>
0.97

>  <yes.1>


>  <BBB_SCORE>
1.286103961

>  <MMFF94 Energy>
22.529

$$$$
Compound 574
Actelion Java MolfileCreator 2.0

  0  0  0  0  0  0              0 V3000
M  V30 BEGIN CTAB
M  V30 COUNTS 54 55 0 0 0
M  V30 BEGIN ATOM
M  V30 1 O -0.8661 -2.9158 0.3149 0
M  V30 2 C -1.5342 -2.1376 -0.3498 0
M  V30 3 O -1.217 -0.8521 -0.6562 0
M  V30 4 C -2.8651 -2.4919 -0.9617 0
M  V30 5 C 0.0573 -0.2477 -0.2247 0
M  V30 6 C -4.0126 -1.9356 -0.1441 0
M  V30 7 C 1.2183 -1.0267 -0.8938 0
M  V30 8 C -0.029 1.2404 -0.7694 0 CFG=1
M  V30 9 C 0.1303 -0.2748 1.3527 0
M  V30 10 C 2.4611 -1.2051 -0.2603 0
M  V30 11 C 1.0642 -1.6007 -2.1729 0
M  V30 12 C 1.0357 2.2579 -0.2663 0
M  V30 13 C -0.2676 1.3602 -2.2863 0
M  V30 14 C -1.1266 0.0552 2.1458 0
M  V30 15 C 3.497 -1.9181 -0.8726 0
M  V30 16 C 2.0978 -2.3147 -2.7857 0
M  V30 17 N 2.4651 1.9444 -0.3866 0
M  V30 18 C -1.5797 1.3686 2.3206 0
M  V30 19 C -1.8425 -0.9778 2.7734 0
M  V30 20 C 3.315 -2.4737 -2.1341 0
M  V30 21 C 3.2524 2.836 0.473 0
M  V30 22 C 2.9626 2.0426 -1.759 0
M  V30 23 C -2.7326 1.6376 3.0644 0
M  V30 24 C -2.9932 -0.7106 3.518 0
M  V30 25 C -3.4421 0.5982 3.6587 0
M  V30 26 H -2.9354 -3.5835 -1.0232 0
M  V30 27 H -2.8957 -2.1173 -1.9908 0
M  V30 28 H -4.9702 -2.1899 -0.6083 0
M  V30 29 H -3.9505 -0.8456 -0.0617 0
M  V30 30 H -4.0054 -2.3484 0.8696 0
M  V30 31 H -0.9771 1.6282 -0.3677 0
M  V30 32 H 0.9352 0.3755 1.7161 0
M  V30 33 H 0.4465 -1.2771 1.6732 0
M  V30 34 H 2.6582 -0.7731 0.7173 0
M  V30 35 H 0.1257 -1.4983 -2.7129 0
M  V30 36 H 0.8273 2.4141 0.7975 0
M  V30 37 H 0.8336 3.2357 -0.7269 0
M  V30 38 H -1.166 0.8102 -2.5862 0
M  V30 39 H 0.5609 0.9906 -2.8886 0
M  V30 40 H -0.4314 2.4075 -2.5646 0
M  V30 41 H 4.4474 -2.0342 -0.3588 0
M  V30 42 H 1.9473 -2.7483 -3.7704 0
M  V30 43 H -1.0419 2.2087 1.8961 0
M  V30 44 H -1.5045 -2.0098 2.689 0
M  V30 45 H 4.1196 -3.0296 -2.6065 0
M  V30 46 H 2.9529 2.7266 1.5215 0
M  V30 47 H 3.1405 3.8884 0.1878 0
M  V30 48 H 4.316 2.5758 0.4298 0
M  V30 49 H 2.7386 3.0144 -2.2129 0
M  V30 50 H 2.5538 1.2541 -2.3913 0
M  V30 51 H 4.0492 1.8983 -1.7872 0
M  V30 52 H -3.0715 2.6632 3.186 0
M  V30 53 H -3.5335 -1.5268 3.9901 0
M  V30 54 H -4.3359 0.8088 4.2394 0
M  V30 END ATOM
M  V30 BEGIN BOND
M  V30 1 2 1 2
M  V30 2 1 2 3
M  V30 3 1 2 4
M  V30 4 1 3 5
M  V30 5 1 4 6
M  V30 6 1 5 7
M  V30 7 1 5 8
M  V30 8 1 5 9
M  V30 9 2 7 10
M  V30 10 1 7 11
M  V30 11 1 8 12
M  V30 12 1 8 13
M  V30 13 1 9 14
M  V30 14 1 10 15
M  V30 15 2 11 16
M  V30 16 1 12 17
M  V30 17 2 14 18
M  V30 18 1 14 19
M  V30 19 2 15 20
M  V30 20 1 17 21
M  V30 21 1 17 22
M  V30 22 1 18 23
M  V30 23 2 19 24
M  V30 24 2 23 25
M  V30 25 1 16 20
M  V30 26 1 24 25
M  V30 27 1 4 26
M  V30 28 1 4 27
M  V30 29 1 6 28
M  V30 30 1 6 29
M  V30 31 1 6 30
M  V30 32 1 8 31
M  V30 33 1 9 32
M  V30 34 1 9 33
M  V30 35 1 10 34
M  V30 36 1 11 35
M  V30 37 1 12 36
M  V30 38 1 12 37
M  V30 39 1 13 38
M  V30 40 1 13 39
M  V30 41 1 13 40
M  V30 42 1 15 41
M  V30 43 1 16 42
M  V30 44 1 18 43
M  V30 45 1 19 44
M  V30 46 1 20 45
M  V30 47 1 21 46
M  V30 48 1 21 47
M  V30 49 1 21 48
M  V30 50 1 22 49
M  V30 51 1 22 50
M  V30 52 1 22 51
M  V30 53 1 23 52
M  V30 54 1 24 53
M  V30 55 1 25 54
M  V30 END BOND
M  V30 BEGIN COLLECTION
M  V30 MDLV30/STEABS ATOMS=(1 8)
M  V30 END COLLECTION
M  V30 END CTAB
M  END
>  <Column 1>
695

>  <level_0>
794

>  <index>
794

>  <Unnamed: 0>
794

>  <NO.>
806

>  <Name>
propoxyphene

>  <IUPAC_name>
[(3r)-4-(dimethylamino)-3-methyl-1-2-diphenylbutan-2-yl] propanoate

>  <SMILES>
CCC(=O)OC(Cc1ccccc1)(c1ccccc1)[C@H](C)CN(C)C

>  <CID>
25137868

>  <logBB>
0.46

>  <BBB+/BBB->
BBB+

>  <Inchi>
InChI=1S/C22H29NO2/c1-5-21(24)25-22(18(2)17-23(3)4-20-14-10-7-11-15-20)16-19-12-8-6-9-13-19/h6-15-18H-5-16-17H2-1-4H3/t18--22?/m1/s1

>  <threshold>


>  <reference>
R18|R26|R27|

>  <group>
A

>  <Class>
1

>  <ABC>
18.7

>  <ABCGG>
16.58

>  <nAcid>
0

>  <nBase>
1

>  <nAromAtom>
12

>  <nAromBond>
12

>  <nAtom>
54

>  <nHeavyAtom>
25

>  <nSpiro>
0

>  <nBridgehead>
0

>  <nHetero>
3

>  <nN>
1

>  <nO>
2

>  <nF>
0

>  <BalabanJ>
2.27

>  <BertzCT>
654.24

>  <nBonds>
55

>  <nBondsO>
26

>  <nBondsS>
42

>  <nBondsD>
1

>  <nBondsT>
0

>  <nBondsA>
12

>  <nBondsM>
13

>  <nBondsKS>
48

>  <nBondsKD>
7

>  <RNCG>
0.25

>  <RPCG>
0.17

>  <FCSP3>
0.41

>  <SZ>
30.67

>  <Sm>
28.26

>  <Sv>
32.04

>  <Sse>
53.2

>  <Sp>
35.2

>  <Si>
60.73

>  <MZ>
0.57

>  <Mm>
0.52

>  <Mv>
0.59

>  <Mse>
0.99

>  <Mp>
0.65

>  <Mi>
1.12

>  <NsCH3>
4

>  <NdCH2>
0

>  <NssCH2>
3

>  <NtCH>
0

>  <NdsCH>
0

>  <NaaCH>
10

>  <NsssCH>
1

>  <NddC>
0

>  <NtsC>
0

>  <NdssC>
1

>  <NaasC>
2

>  <NaaaC>
0

>  <NssssC>
1

>  <NsNH3>
0

>  <NsNH2>
0

>  <NssNH2>
0

>  <NdNH>
0

>  <NssNH>
0

>  <NaaNH>
0

>  <NtN>
0

>  <NsssNH>
0

>  <NdsN>
0

>  <NaaN>
0

>  <NsssN>
1

>  <NddsN>
0

>  <NaasN>
0

>  <NssssN>
0

>  <NsOH>
0

>  <NdO>
1

>  <NssO>
1

>  <NaaO>
0

>  <NsF>
0

>  <NsSiH3>
0

>  <NssSiH2>
0

>  <NsssSiH>
0

>  <NssssSi>
0

>  <NsPH2>
0

>  <NssPH>
0

>  <NsssP>
0

>  <NdsssP>
0

>  <NsssssP>
0

>  <NsSH>
0

>  <NdS>
0

>  <NssS>
0

>  <NaaS>
0

>  <NdssS>
0

>  <NddssS>
0

>  <NsCl>
0

>  <NsBr>
0

>  <NsI>
0

>  <fragCpx>
76.03

>  <fMF>
0.26

>  <nHBAcc>
3

>  <nHBDon>
0

>  <Kier1>
21.3

>  <Kier2>
10.36

>  <Lipinski>
1

>  <GhoseFilter>
1

>  <FilterItLogS>
-5.25

>  <VMcGowan>
290.74

>  <LabuteASA>
151.17

>  <PEOE_VSA1>
9.64

>  <PEOE_VSA2>
4.79

>  <PEOE_VSA3>
0

>  <PEOE_VSA4>
0

>  <PEOE_VSA5>
0

>  <PEOE_VSA6>
74.51

>  <PEOE_VSA7>
25.22

>  <PEOE_VSA8>
25.3

>  <PEOE_VSA9>
0

>  <PEOE_VSA10>
5.6

>  <PEOE_VSA11>
0

>  <PEOE_VSA12>
0

>  <PEOE_VSA13>
0

>  <SMR_VSA1>
9.53

>  <SMR_VSA2>
0

>  <SMR_VSA3>
4.9

>  <SMR_VSA4>
5.92

>  <SMR_VSA5>
32.29

>  <SMR_VSA6>
20.64

>  <SMR_VSA7>
71.79

>  <SMR_VSA8>
0

>  <SMR_VSA9>
0

>  <SlogP_VSA1>
0

>  <SlogP_VSA2>
31.51

>  <SlogP_VSA3>
21.55

>  <SlogP_VSA4>
5.92

>  <SlogP_VSA5>
31.4

>  <SlogP_VSA6>
60.66

>  <SlogP_VSA7>
0

>  <SlogP_VSA8>
0

>  <SlogP_VSA9>
0

>  <SlogP_VSA10>
0

>  <SlogP_VSA11>
0

>  <EState_VSA1>
5.6

>  <EState_VSA2>
11.89

>  <EState_VSA3>
12.84

>  <EState_VSA4>
12.11

>  <EState_VSA5>
5.56

>  <EState_VSA6>
0

>  <EState_VSA7>
43.32

>  <EState_VSA8>
50.18

>  <EState_VSA9>
4.74

>  <EState_VSA10>
4.79

>  <VSA_EState1>
6.17

>  <VSA_EState2>
14.49

>  <VSA_EState3>
0

>  <VSA_EState4>
1.54

>  <VSA_EState5>
-0.02

>  <VSA_EState6>
20.42

>  <VSA_EState7>
1.04

>  <VSA_EState8>
4.84

>  <VSA_EState9>
4.1

>  <apol>
58.78

>  <bpol>
33.41

>  <nRing>
2

>  <nHRing>
0

>  <naRing>
2

>  <naHRing>
0

>  <nARing 2>
0

>  <nAHRing 2>
0

>  <nFRing>
0

>  <nFHRing>
0

>  <nFaRing>
0

>  <nFaHRing>
0

>  <nFARing 2>
0

>  <nFAHRing 2>
0

>  <nRot>
8

>  <SLogP>
4.28

>  <SMR>
102.37

>  <TopoPSA(NO)>
29.54

>  <TopoPSA>
29.54

>  <JGI1>
0.23

>  <JGI2>
0.08

>  <JGI3>
0.05

>  <JGI4>
0.04

>  <JGI5>
0.02

>  <Diameter>
9

>  <Radius>
5

>  <TMWC10>
125.7

>  <TSRW10>
59.43

>  <MW>
339.22

>  <AMW>
6.28

>  <WPath>
1364

>  <WPol>
38

>  <Zagreb1>
122

>  <Zagreb2>
140

>  <mZagreb2>
5.75

>  <yes>


>  <nAR-cont>
0.336376

>  <nHA-cont>
0.921834225

>  <MWHBN>
0.162884789

>  <MWHBN-cont>
0.96157678

>  <TPSA-cont>
0.793792457

>  <pka_cont>
0.97

>  <yes.1>


>  <BBB_SCORE>
4.773160309

>  <MMFF94 Energy>
75.288

$$$$
Compound 575
Actelion Java MolfileCreator 2.0

  0  0  0  0  0  0              0 V3000
M  V30 BEGIN CTAB
M  V30 COUNTS 58 61 0 0 0
M  V30 BEGIN ATOM
M  V30 1 F -0.0797 3.2756 -8.7264 0
M  V30 2 C -0.1386 3.2581 -7.3889 0
M  V30 3 C 0.2087 4.3957 -6.6721 0
M  V30 4 C -0.5462 2.0997 -6.737 0
M  V30 5 C 0.1469 4.3742 -5.2771 0
M  V30 6 C -0.6096 2.0739 -5.3403 0
M  V30 7 C -0.2639 3.214 -4.6002 0
M  V30 8 C -0.3113 3.2436 -3.1048 0
M  V30 9 O 0.0748 4.2513 -2.5166 0
M  V30 10 C -0.826 2.0179 -2.3689 0
M  V30 11 C -0.9143 2.2432 -0.8571 0
M  V30 12 C -1.3834 0.9694 -0.1425 0
M  V30 13 N -1.6652 1.1687 1.2869 0
M  V30 14 C -0.5042 1.5594 2.0967 0
M  V30 15 C -2.3185 -0.0024 1.8885 0
M  V30 16 C 0.5376 0.4498 2.2489 0
M  V30 17 C -1.396 -1.2148 2.0325 0
M  V30 18 C -0.0791 -0.8639 2.741 0
M  V30 19 N 0.8915 -1.9908 2.6743 0
M  V30 20 C -0.3341 -0.7769 4.2632 0
M  V30 21 C 1.2887 -2.6198 1.518 0
M  V30 22 C 1.0341 -2.6706 3.9441 0
M  V30 23 O -1.0183 0.0488 4.8491 0
M  V30 24 N 0.3403 -1.824 4.8634 0
M  V30 25 C 2.2665 -2.0529 0.6937 0
M  V30 26 C 0.7464 -3.8523 1.1283 0
M  V30 27 C 0.3321 -2.1002 6.2779 0
M  V30 28 C 2.6822 -2.6823 -0.4833 0
M  V30 29 C 1.1548 -4.4878 -0.048 0
M  V30 30 C 2.1236 -3.9007 -0.8555 0
M  V30 31 H 0.525 5.2906 -7.1988 0
M  V30 32 H -0.8115 1.2236 -7.3211 0
M  V30 33 H 0.4203 5.2683 -4.7186 0
M  V30 34 H -0.9281 1.1543 -4.8589 0
M  V30 35 H -1.8235 1.7732 -2.7508 0
M  V30 36 H -0.1445 1.1841 -2.5716 0
M  V30 37 H 0.0704 2.5484 -0.4858 0
M  V30 38 H -1.6076 3.0681 -0.65 0
M  V30 39 H -2.3098 0.6414 -0.632 0
M  V30 40 H -0.6473 0.174 -0.3061 0
M  V30 41 H -0.8588 1.8742 3.0856 0
M  V30 42 H -0.0263 2.4564 1.6886 0
M  V30 43 H -2.718 0.2803 2.8702 0
M  V30 44 H -3.1998 -0.2839 1.2986 0
M  V30 45 H 1.0241 0.312 1.279 0
M  V30 46 H 1.323 0.787 2.9374 0
M  V30 47 H -1.9289 -2.0045 2.578 0
M  V30 48 H -1.2002 -1.6201 1.0331 0
M  V30 49 H 0.5581 -3.6565 3.9588 0
M  V30 50 H 2.085 -2.7505 4.2406 0
M  V30 51 H 2.7385 -1.1163 0.9789 0
M  V30 52 H -0.0246 -4.3236 1.7323 0
M  V30 53 H -0.2435 -1.3452 6.8195 0
M  V30 54 H -0.117 -3.0832 6.4431 0
M  V30 55 H 1.3622 -2.1014 6.6444 0
M  V30 56 H 3.448 -2.2214 -1.1013 0
M  V30 57 H 0.7129 -5.4392 -0.3316 0
M  V30 58 H 2.4458 -4.3931 -1.7688 0
M  V30 END ATOM
M  V30 BEGIN BOND
M  V30 1 1 1 2
M  V30 2 2 2 3
M  V30 3 1 2 4
M  V30 4 1 3 5
M  V30 5 2 4 6
M  V30 6 2 5 7
M  V30 7 1 7 8
M  V30 8 2 8 9
M  V30 9 1 8 10
M  V30 10 1 10 11
M  V30 11 1 11 12
M  V30 12 1 12 13
M  V30 13 1 13 14
M  V30 14 1 13 15
M  V30 15 1 14 16
M  V30 16 1 15 17
M  V30 17 1 16 18
M  V30 18 1 18 19
M  V30 19 1 18 20
M  V30 20 1 19 21
M  V30 21 1 19 22
M  V30 22 2 20 23
M  V30 23 1 20 24
M  V30 24 2 21 25
M  V30 25 1 21 26
M  V30 26 1 24 27
M  V30 27 1 25 28
M  V30 28 2 26 29
M  V30 29 2 28 30
M  V30 30 1 6 7
M  V30 31 1 17 18
M  V30 32 1 22 24
M  V30 33 1 29 30
M  V30 34 1 3 31
M  V30 35 1 4 32
M  V30 36 1 5 33
M  V30 37 1 6 34
M  V30 38 1 10 35
M  V30 39 1 10 36
M  V30 40 1 11 37
M  V30 41 1 11 38
M  V30 42 1 12 39
M  V30 43 1 12 40
M  V30 44 1 14 41
M  V30 45 1 14 42
M  V30 46 1 15 43
M  V30 47 1 15 44
M  V30 48 1 16 45
M  V30 49 1 16 46
M  V30 50 1 17 47
M  V30 51 1 17 48
M  V30 52 1 22 49
M  V30 53 1 22 50
M  V30 54 1 25 51
M  V30 55 1 26 52
M  V30 56 1 27 53
M  V30 57 1 27 54
M  V30 58 1 27 55
M  V30 59 1 28 56
M  V30 60 1 29 57
M  V30 61 1 30 58
M  V30 END BOND
M  V30 END CTAB
M  END
>  <Column 1>
696

>  <level_0>
795

>  <index>
795

>  <Unnamed: 0>
795

>  <NO.>
807

>  <Name>
n-methylspiperone

>  <IUPAC_name>
8-[4-(4-fluorophenyl)-4-oxobutyl]-3-methyl-1-phenyl-1-3-8-triazaspiro[4.5]decan-4-one

>  <SMILES>
CN1CN(c2ccccc2)C2(CCN(CCCC(=O)c3ccc(F)cc3)CC2)C1=O

>  <CID>
119146

>  <logBB>
0.46

>  <BBB+/BBB->
BBB+

>  <Inchi>
InChI=1S/C24H28FN3O2/c1-26-18-28(21-6-3-2-4-7-21)24(23(26)30)13-16-27(17-14-24)15-5-8-22(29)19-9-11-20(25)12-10-19/h2-4-6-7-9-12H-5-8-13-18H2-1H3

>  <threshold>


>  <reference>
R3|R21|R25|R27|R38|R41|R43|R47|R2|R2|R8|R27|R40|

>  <group>
A

>  <Class>
1

>  <ABC>
23.53

>  <ABCGG>
17.69

>  <nAcid>
0

>  <nBase>
1

>  <nAromAtom>
12

>  <nAromBond>
12

>  <nAtom>
58

>  <nHeavyAtom>
30

>  <nSpiro>
1

>  <nBridgehead>
0

>  <nHetero>
6

>  <nN>
3

>  <nO>
2

>  <nF>
1

>  <BalabanJ>
1.24

>  <BertzCT>
892.43

>  <nBonds>
61

>  <nBondsO>
33

>  <nBondsS>
47

>  <nBondsD>
2

>  <nBondsT>
0

>  <nBondsA>
12

>  <nBondsM>
14

>  <nBondsKS>
53

>  <nBondsKD>
8

>  <RNCG>
0.15

>  <RPCG>
0.11

>  <FCSP3>
0.42

>  <SZ>
36.33

>  <Sm>
34.09

>  <Sv>
35.94

>  <Sse>
58.04

>  <Sp>
38.45

>  <Si>
65.65

>  <MZ>
0.63

>  <Mm>
0.59

>  <Mv>
0.62

>  <Mse>
1

>  <Mp>
0.66

>  <Mi>
1.13

>  <NsCH3>
1

>  <NdCH2>
0

>  <NssCH2>
8

>  <NtCH>
0

>  <NdsCH>
0

>  <NaaCH>
9

>  <NsssCH>
0

>  <NddC>
0

>  <NtsC>
0

>  <NdssC>
2

>  <NaasC>
3

>  <NaaaC>
0

>  <NssssC>
1

>  <NsNH3>
0

>  <NsNH2>
0

>  <NssNH2>
0

>  <NdNH>
0

>  <NssNH>
0

>  <NaaNH>
0

>  <NtN>
0

>  <NsssNH>
0

>  <NdsN>
0

>  <NaaN>
0

>  <NsssN>
3

>  <NddsN>
0

>  <NaasN>
0

>  <NssssN>
0

>  <NsOH>
0

>  <NdO>
2

>  <NssO>
0

>  <NaaO>
0

>  <NsF>
1

>  <NsSiH3>
0

>  <NssSiH2>
0

>  <NsssSiH>
0

>  <NssssSi>
0

>  <NsPH2>
0

>  <NssPH>
0

>  <NsssP>
0

>  <NdsssP>
0

>  <NsssssP>
0

>  <NsSH>
0

>  <NdS>
0

>  <NssS>
0

>  <NaaS>
0

>  <NdssS>
0

>  <NddssS>
0

>  <NsCl>
0

>  <NsBr>
0

>  <NsI>
0

>  <fragCpx>
219.06

>  <fMF>
0.45

>  <nHBAcc>
4

>  <nHBDon>
0

>  <Kier1>
23.17

>  <Kier2>
10.29

>  <Lipinski>
1

>  <GhoseFilter>
1

>  <FilterItLogS>
-5.12

>  <VMcGowan>
314.62

>  <LabuteASA>
176.62

>  <PEOE_VSA1>
14.7

>  <PEOE_VSA2>
9.59

>  <PEOE_VSA3>
4.39

>  <PEOE_VSA4>
0

>  <PEOE_VSA5>
0

>  <PEOE_VSA6>
18.2

>  <PEOE_VSA7>
62.21

>  <PEOE_VSA8>
37.81

>  <PEOE_VSA9>
6.67

>  <PEOE_VSA10>
11.36

>  <PEOE_VSA11>
5.78

>  <PEOE_VSA12>
5.91

>  <PEOE_VSA13>
0

>  <SMR_VSA1>
13.98

>  <SMR_VSA2>
0

>  <SMR_VSA3>
9.8

>  <SMR_VSA4>
0

>  <SMR_VSA5>
31.22

>  <SMR_VSA6>
38.25

>  <SMR_VSA7>
65.98

>  <SMR_VSA8>
0

>  <SMR_VSA9>
0

>  <SlogP_VSA1>
4.9

>  <SlogP_VSA2>
60.38

>  <SlogP_VSA3>
4.79

>  <SlogP_VSA4>
5.82

>  <SlogP_VSA5>
36.04

>  <SlogP_VSA6>
54.6

>  <SlogP_VSA7>
0

>  <SlogP_VSA8>
0

>  <SlogP_VSA9>
0

>  <SlogP_VSA10>
10.08

>  <SlogP_VSA11>
0

>  <EState_VSA1>
5.54

>  <EState_VSA2>
17.51

>  <EState_VSA3>
18.65

>  <EState_VSA4>
44.58

>  <EState_VSA5>
12.13

>  <EState_VSA6>
12.13

>  <EState_VSA7>
30.15

>  <EState_VSA8>
21.93

>  <EState_VSA9>
0

>  <EState_VSA10>
13.98

>  <VSA_EState1>
13.01

>  <VSA_EState2>
31.76

>  <VSA_EState3>
0

>  <VSA_EState4>
1.19

>  <VSA_EState5>
-0.07

>  <VSA_EState6>
15.9

>  <VSA_EState7>
2.79

>  <VSA_EState8>
3.13

>  <VSA_EState9>
1.88

>  <apol>
64.21

>  <bpol>
36.07

>  <nRing>
4

>  <nHRing>
2

>  <naRing>
2

>  <naHRing>
0

>  <nARing 2>
2

>  <nAHRing 2>
2

>  <nFRing>
0

>  <nFHRing>
0

>  <nFaRing>
0

>  <nFaHRing>
0

>  <nFARing 2>
0

>  <nFAHRing 2>
0

>  <nRot>
6

>  <SLogP>
3.56

>  <SMR>
114.93

>  <TopoPSA(NO)>
43.86

>  <TopoPSA>
43.86

>  <JGI1>
0.2

>  <JGI2>
0.1

>  <JGI3>
0.05

>  <JGI4>
0.04

>  <JGI5>
0.03

>  <Diameter>
17

>  <Radius>
9

>  <TMWC10>
140.89

>  <TSRW10>
80.53

>  <MW>
409.22

>  <AMW>
7.06

>  <WPath>
2808

>  <WPol>
50

>  <Zagreb1>
160

>  <Zagreb2>
191

>  <mZagreb2>
6.58

>  <yes>


>  <nAR-cont>
1

>  <nHA-cont>
0.74523694

>  <MWHBN>
0.197734097

>  <MWHBN-cont>
0.999099625

>  <TPSA-cont>
0.693829965

>  <pka_cont>
0.97

>  <yes.1>


>  <BBB_SCORE>
5.116546307

>  <MMFF94 Energy>
44.891

$$$$
Compound 576
Actelion Java MolfileCreator 2.0

  0  0  0  0  0  0              0 V3000
M  V30 BEGIN CTAB
M  V30 COUNTS 23 24 0 0 0
M  V30 BEGIN ATOM
M  V30 1 Cl 2.7565 -0.8347 1.837 0
M  V30 2 C 2.2191 -1.003 0.1976 0
M  V30 3 C 1.2056 -0.1655 -0.3148 0
M  V30 4 C 2.8246 -1.9877 -0.586 0
M  V30 5 N 0.5616 0.748 0.5486 0
M  V30 6 C 0.8353 -0.3475 -1.6632 0
M  V30 7 C 2.4223 -2.1521 -1.9058 0
M  V30 8 C -0.7778 0.7936 0.7591 0
M  V30 9 Cl -0.2757 0.7132 -2.4676 0
M  V30 10 C 1.4381 -1.335 -2.4512 0
M  V30 11 Cl 3.1645 -3.361 -2.8787 0
M  V30 12 N -1.6889 -0.0513 0.3699 0
M  V30 13 N -1.2038 1.8491 1.4939 0
M  V30 14 C -2.9657 0.4921 0.9132 0
M  V30 15 C -2.6396 1.8459 1.5551 0
M  V30 16 H 3.5992 -2.6241 -0.1666 0
M  V30 17 H 1.1341 1.0848 1.3109 0
M  V30 18 H 1.1452 -1.4552 -3.4913 0
M  V30 19 H -0.6815 2.7099 1.5503 0
M  V30 20 H -3.3676 -0.2068 1.6545 0
M  V30 21 H -3.7 0.6024 0.1088 0
M  V30 22 H -3.0559 2.672 0.9703 0
M  V30 23 H -3.0053 1.9092 2.5837 0
M  V30 END ATOM
M  V30 BEGIN BOND
M  V30 1 1 1 2
M  V30 2 2 2 3
M  V30 3 1 2 4
M  V30 4 1 3 5
M  V30 5 1 3 6
M  V30 6 2 4 7
M  V30 7 1 5 8
M  V30 8 1 6 9
M  V30 9 2 6 10
M  V30 10 1 7 11
M  V30 11 2 8 12
M  V30 12 1 8 13
M  V30 13 1 12 14
M  V30 14 1 13 15
M  V30 15 1 7 10
M  V30 16 1 14 15
M  V30 17 1 4 16
M  V30 18 1 5 17
M  V30 19 1 10 18
M  V30 20 1 13 19
M  V30 21 1 14 20
M  V30 22 1 14 21
M  V30 23 1 15 22
M  V30 24 1 15 23
M  V30 END BOND
M  V30 END CTAB
M  END
>  <Column 1>
698

>  <level_0>
797

>  <index>
797

>  <Unnamed: 0>
797

>  <NO.>
809

>  <Name>
21571-08-4

>  <IUPAC_name>
n-(2-4-6-trichlorophenyl)-4-5-dihydro-1h-imidazol-2-amine

>  <SMILES>
Clc1cc(Cl)c(NC2=NCCN2)c(Cl)c1

>  <CID>
10470115

>  <logBB>
0.47

>  <BBB+/BBB->
BBB+

>  <Inchi>
InChI=1S/C9H8Cl3N3/c10-5-3-6(11)8(7(12)4-5)15-9-13-1-2-14-9/h3-4H-1-2H2-(H2-13-14-15)

>  <threshold>


>  <reference>
R2|R2|R2|R2|R8|R25|R27|R27|R46|R47|R4|R40|

>  <group>
A

>  <Class>
1

>  <ABC>
11.56

>  <ABCGG>
10.55

>  <nAcid>
0

>  <nBase>
3

>  <nAromAtom>
6

>  <nAromBond>
6

>  <nAtom>
23

>  <nHeavyAtom>
15

>  <nSpiro>
0

>  <nBridgehead>
0

>  <nHetero>
6

>  <nN>
3

>  <nO>
0

>  <nF>
0

>  <BalabanJ>
1.88

>  <BertzCT>
394.06

>  <nBonds>
24

>  <nBondsO>
16

>  <nBondsS>
17

>  <nBondsD>
1

>  <nBondsT>
0

>  <nBondsA>
6

>  <nBondsM>
7

>  <nBondsKS>
20

>  <nBondsKD>
4

>  <RNCG>
0.29

>  <RPCG>
0.16

>  <FCSP3>
0.22

>  <SZ>
22.33

>  <Sm>
22.02

>  <Sv>
16.71

>  <Sse>
23.84

>  <Sp>
18.09

>  <Si>
25.99

>  <MZ>
0.97

>  <Mm>
0.96

>  <Mv>
0.73

>  <Mse>
1.04

>  <Mp>
0.79

>  <Mi>
1.13

>  <NsCH3>
0

>  <NdCH2>
0

>  <NssCH2>
2

>  <NtCH>
0

>  <NdsCH>
0

>  <NaaCH>
2

>  <NsssCH>
0

>  <NddC>
0

>  <NtsC>
0

>  <NdssC>
1

>  <NaasC>
4

>  <NaaaC>
0

>  <NssssC>
0

>  <NsNH3>
0

>  <NsNH2>
0

>  <NssNH2>
0

>  <NdNH>
0

>  <NssNH>
2

>  <NaaNH>
0

>  <NtN>
0

>  <NsssNH>
0

>  <NdsN>
1

>  <NaaN>
0

>  <NsssN>
0

>  <NddsN>
0

>  <NaasN>
0

>  <NssssN>
0

>  <NsOH>
0

>  <NdO>
0

>  <NssO>
0

>  <NaaO>
0

>  <NsF>
0

>  <NsSiH3>
0

>  <NssSiH2>
0

>  <NsssSiH>
0

>  <NssssSi>
0

>  <NsPH2>
0

>  <NssPH>
0

>  <NsssP>
0

>  <NdsssP>
0

>  <NsssssP>
0

>  <NsSH>
0

>  <NdS>
0

>  <NssS>
0

>  <NaaS>
0

>  <NdssS>
0

>  <NddssS>
0

>  <NsCl>
3

>  <NsBr>
0

>  <NsI>
0

>  <fragCpx>
46.06

>  <fMF>
0.52

>  <nHBAcc>
3

>  <nHBDon>
2

>  <Kier1>
11.48

>  <Kier2>
4.89

>  <Lipinski>
1

>  <GhoseFilter>
1

>  <FilterItLogS>
-4.91

>  <VMcGowan>
165.41

>  <LabuteASA>
102.43

>  <PEOE_VSA1>
10.63

>  <PEOE_VSA2>
4.99

>  <PEOE_VSA3>
0

>  <PEOE_VSA4>
0

>  <PEOE_VSA5>
0

>  <PEOE_VSA6>
34.8

>  <PEOE_VSA7>
12.13

>  <PEOE_VSA8>
11.57

>  <PEOE_VSA9>
22.28

>  <PEOE_VSA10>
0

>  <PEOE_VSA11>
5.96

>  <PEOE_VSA12>
0

>  <PEOE_VSA13>
0

>  <SMR_VSA1>
0

>  <SMR_VSA2>
0

>  <SMR_VSA3>
5.32

>  <SMR_VSA4>
4.99

>  <SMR_VSA5>
0

>  <SMR_VSA6>
18.41

>  <SMR_VSA7>
27.2

>  <SMR_VSA8>
0

>  <SMR_VSA9>
0

>  <SlogP_VSA1>
10.63

>  <SlogP_VSA2>
19.05

>  <SlogP_VSA3>
0

>  <SlogP_VSA4>
0

>  <SlogP_VSA5>
0

>  <SlogP_VSA6>
17.13

>  <SlogP_VSA7>
15.07

>  <SlogP_VSA8>
0

>  <SlogP_VSA9>
0

>  <SlogP_VSA10>
5.69

>  <SlogP_VSA11>
0

>  <EState_VSA1>
0

>  <EState_VSA2>
0

>  <EState_VSA3>
26.71

>  <EState_VSA4>
13.09

>  <EState_VSA5>
0

>  <EState_VSA6>
12.13

>  <EState_VSA7>
0

>  <EState_VSA8>
15.63

>  <EState_VSA9>
34.8

>  <EState_VSA10>
0

>  <VSA_EState1>
0

>  <VSA_EState2>
4.18

>  <VSA_EState3>
7.55

>  <VSA_EState4>
0.62

>  <VSA_EState5>
0.68

>  <VSA_EState6>
3.26

>  <VSA_EState7>
0

>  <VSA_EState8>
1.58

>  <VSA_EState9>
0

>  <apol>
30.2

>  <bpol>
11.84

>  <nRing>
2

>  <nHRing>
1

>  <naRing>
1

>  <naHRing>
0

>  <nARing 2>
1

>  <nAHRing 2>
1

>  <nFRing>
0

>  <nFHRing>
0

>  <nFaRing>
0

>  <nFaHRing>
0

>  <nFARing 2>
0

>  <nFAHRing 2>
0

>  <nRot>
1

>  <SLogP>
3.02

>  <SMR>
65.4

>  <TopoPSA(NO)>
36.42

>  <TopoPSA>
36.42

>  <JGI1>
0.22

>  <JGI2>
0.07

>  <JGI3>
0.06

>  <JGI4>
0.05

>  <JGI5>
0.02

>  <Diameter>
8

>  <Radius>
4

>  <TMWC10>
100.6

>  <TSRW10>
59.99

>  <MW>
262.98

>  <AMW>
11.43

>  <WPath>
365

>  <WPol>
19

>  <Zagreb1>
76

>  <Zagreb2>
87

>  <mZagreb2>
3.31

>  <yes>


>  <nAR-cont>
0.816016

>  <nHA-cont>
0.92539861

>  <MWHBN>
0.308324932

>  <MWHBN-cont>
0.815174116

>  <TPSA-cont>
0.745765785

>  <pka_cont>
0.97

>  <yes.1>


>  <BBB_SCORE>
4.940707353

>  <MMFF94 Energy>
-31.371

$$$$
Compound 577
Actelion Java MolfileCreator 2.0

  0  0  0  0  0  0              0 V3000
M  V30 BEGIN CTAB
M  V30 COUNTS 23 24 0 0 0
M  V30 BEGIN ATOM
M  V30 1 Cl -0.4928 -1.9723 -1.9723 0
M  V30 2 C -1.31 -1.5033 -0.5104 0
M  V30 3 C -2.56 -2.0624 -0.1922 0
M  V30 4 C -0.7099 -0.5762 0.3684 0
M  V30 5 Cl -3.3646 -3.1959 -1.2238 0
M  V30 6 C -3.2101 -1.7128 0.9951 0
M  V30 7 C 0.5846 0.0547 0.0984 0
M  V30 8 C -1.3811 -0.2521 1.5657 0
M  V30 9 C -2.62 -0.8118 1.8759 0
M  V30 10 N 1.6147 -0.3821 0.8518 0
M  V30 11 C 0.7922 1.0775 -0.8282 0
M  V30 12 N 2.8437 0.1647 0.652 0
M  V30 13 N 2.0114 1.6068 -1.0346 0
M  V30 14 N -0.2139 1.5944 -1.6288 0
M  V30 15 C 3.0058 1.1236 -0.2811 0
M  V30 16 N 4.2526 1.6498 -0.4796 0
M  V30 17 H -4.1757 -2.1488 1.2425 0
M  V30 18 H -0.9262 0.4439 2.2714 0
M  V30 19 H -3.1198 -0.5497 2.806 0
M  V30 20 H 0.107 2.312 -2.2672 0
M  V30 21 H -1.1493 1.6772 -1.2599 0
M  V30 22 H 5.0214 1.2768 0.0496 0
M  V30 23 H 4.3593 2.337 -1.2054 0
M  V30 END ATOM
M  V30 BEGIN BOND
M  V30 1 1 1 2
M  V30 2 2 2 3
M  V30 3 1 2 4
M  V30 4 1 3 5
M  V30 5 1 3 6
M  V30 6 1 4 7
M  V30 7 2 4 8
M  V30 8 2 6 9
M  V30 9 2 7 10
M  V30 10 1 7 11
M  V30 11 1 10 12
M  V30 12 2 11 13
M  V30 13 1 11 14
M  V30 14 2 12 15
M  V30 15 1 15 16
M  V30 16 1 8 9
M  V30 17 1 13 15
M  V30 18 1 6 17
M  V30 19 1 8 18
M  V30 20 1 9 19
M  V30 21 1 14 20
M  V30 22 1 14 21
M  V30 23 1 16 22
M  V30 24 1 16 23
M  V30 END BOND
M  V30 END CTAB
M  END
>  <Column 1>
699

>  <level_0>
798

>  <index>
798

>  <Unnamed: 0>
798

>  <NO.>
810

>  <Name>
lamotrigine

>  <IUPAC_name>
6-(2-3-dichlorophenyl)-1-2-4-triazine-3-5-diamine

>  <SMILES>
Nc1nnc(-c2cccc(Cl)c2Cl)c(N)n1

>  <CID>
3878

>  <logBB>
0.48

>  <BBB+/BBB->
BBB+

>  <Inchi>
InChI=1S/C9H7Cl2N5/c10-5-3-1-2-4(6(5)11)7-8(12)14-9(13)16-15-7/h1-3H-(H4-12-13-14-16)

>  <threshold>


>  <reference>
R36|R20|R8|R21|R27|R43|R18|R26|R27|R2|R2|R27|R40|R3|R25|R38|R41|R42|R46|R47|R50|

>  <group>
A

>  <Class>
1

>  <ABC>
12.3

>  <ABCGG>
10.79

>  <nAcid>
0

>  <nBase>
0

>  <nAromAtom>
12

>  <nAromBond>
12

>  <nAtom>
23

>  <nHeavyAtom>
16

>  <nSpiro>
0

>  <nBridgehead>
0

>  <nHetero>
7

>  <nN>
5

>  <nO>
0

>  <nF>
0

>  <BalabanJ>
2

>  <BertzCT>
543.42

>  <nBonds>
24

>  <nBondsO>
17

>  <nBondsS>
12

>  <nBondsD>
0

>  <nBondsT>
0

>  <nBondsA>
12

>  <nBondsM>
12

>  <nBondsKS>
18

>  <nBondsKD>
6

>  <RNCG>
0.25

>  <RPCG>
0.16

>  <FCSP3>
0

>  <SZ>
21.67

>  <Sm>
21.32

>  <Sv>
16.87

>  <Sse>
23.95

>  <Sp>
17.7

>  <Si>
26.21

>  <MZ>
0.94

>  <Mm>
0.93

>  <Mv>
0.73

>  <Mse>
1.04

>  <Mp>
0.77

>  <Mi>
1.14

>  <NsCH3>
0

>  <NdCH2>
0

>  <NssCH2>
0

>  <NtCH>
0

>  <NdsCH>
0

>  <NaaCH>
3

>  <NsssCH>
0

>  <NddC>
0

>  <NtsC>
0

>  <NdssC>
0

>  <NaasC>
6

>  <NaaaC>
0

>  <NssssC>
0

>  <NsNH3>
0

>  <NsNH2>
2

>  <NssNH2>
0

>  <NdNH>
0

>  <NssNH>
0

>  <NaaNH>
0

>  <NtN>
0

>  <NsssNH>
0

>  <NdsN>
0

>  <NaaN>
3

>  <NsssN>
0

>  <NddsN>
0

>  <NaasN>
0

>  <NssssN>
0

>  <NsOH>
0

>  <NdO>
0

>  <NssO>
0

>  <NaaO>
0

>  <NsF>
0

>  <NsSiH3>
0

>  <NssSiH2>
0

>  <NsssSiH>
0

>  <NssssSi>
0

>  <NsPH2>
0

>  <NssPH>
0

>  <NsssP>
0

>  <NdsssP>
0

>  <NsssssP>
0

>  <NsSH>
0

>  <NdS>
0

>  <NssS>
0

>  <NaaS>
0

>  <NdssS>
0

>  <NddssS>
0

>  <NsCl>
2

>  <NsBr>
0

>  <NsI>
0

>  <fragCpx>
49.07

>  <fMF>
0.52

>  <nHBAcc>
5

>  <nHBDon>
2

>  <Kier1>
12.46

>  <Kier2>
5.1

>  <Lipinski>
1

>  <GhoseFilter>
1

>  <FilterItLogS>
-3.86

>  <VMcGowan>
164.53

>  <LabuteASA>
101.4

>  <PEOE_VSA1>
11.47

>  <PEOE_VSA2>
0

>  <PEOE_VSA3>
0

>  <PEOE_VSA4>
4.98

>  <PEOE_VSA5>
10.2

>  <PEOE_VSA6>
35.33

>  <PEOE_VSA7>
6.07

>  <PEOE_VSA8>
5.56

>  <PEOE_VSA9>
10.05

>  <PEOE_VSA10>
5.69

>  <PEOE_VSA11>
5.82

>  <PEOE_VSA12>
5.95

>  <PEOE_VSA13>
0

>  <SMR_VSA1>
0

>  <SMR_VSA2>
0

>  <SMR_VSA3>
15.18

>  <SMR_VSA4>
0

>  <SMR_VSA5>
0

>  <SMR_VSA6>
11.47

>  <SMR_VSA7>
28.24

>  <SMR_VSA8>
0

>  <SMR_VSA9>
11.26

>  <SlogP_VSA1>
11.47

>  <SlogP_VSA2>
15.18

>  <SlogP_VSA3>
0

>  <SlogP_VSA4>
0

>  <SlogP_VSA5>
0

>  <SlogP_VSA6>
18.2

>  <SlogP_VSA7>
10.05

>  <SlogP_VSA8>
11.26

>  <SlogP_VSA9>
0

>  <SlogP_VSA10>
11.77

>  <SlogP_VSA11>
0

>  <EState_VSA1>
0

>  <EState_VSA2>
11.77

>  <EState_VSA3>
21.3

>  <EState_VSA4>
0

>  <EState_VSA5>
0

>  <EState_VSA6>
18.2

>  <EState_VSA7>
0

>  <EState_VSA8>
15.18

>  <EState_VSA9>
34.67

>  <EState_VSA10>
0

>  <VSA_EState1>
0

>  <VSA_EState2>
3.8

>  <VSA_EState3>
8.24

>  <VSA_EState4>
11.97

>  <VSA_EState5>
0.18

>  <VSA_EState6>
5.13

>  <VSA_EState7>
0

>  <VSA_EState8>
0

>  <VSA_EState9>
0

>  <apol>
29.56

>  <bpol>
9.18

>  <nRing>
2

>  <nHRing>
1

>  <naRing>
2

>  <naHRing>
1

>  <nARing 2>
0

>  <nAHRing 2>
0

>  <nFRing>
0

>  <nFHRing>
0

>  <nFaRing>
0

>  <nFaHRing>
0

>  <nFARing 2>
0

>  <nFAHRing 2>
0

>  <nRot>
1

>  <SLogP>
2.01

>  <SMR>
64.11

>  <TopoPSA(NO)>
90.71

>  <TopoPSA>
90.71

>  <JGI1>
0.21

>  <JGI2>
0.1

>  <JGI3>
0.06

>  <JGI4>
0.05

>  <JGI5>
0.03

>  <Diameter>
8

>  <Radius>
4

>  <TMWC10>
103.95

>  <TSRW10>
48.57

>  <MW>
255.01

>  <AMW>
11.09

>  <WPath>
417

>  <WPol>
25

>  <Zagreb1>
82

>  <Zagreb2>
96

>  <mZagreb2>
3.53

>  <yes>


>  <nAR-cont>
0.336376

>  <nHA-cont>
0.954961865

>  <MWHBN>
0.438348409

>  <MWHBN-cont>
0.328403755

>  <TPSA-cont>
0.366787872

>  <pka_cont>
0.97

>  <yes.1>


>  <BBB_SCORE>
3.002519242

>  <MMFF94 Energy>
7.5158

$$$$
Compound 578
Actelion Java MolfileCreator 2.0

  0  0  0  0  0  0              0 V3000
M  V30 BEGIN CTAB
M  V30 COUNTS 51 54 0 0 0
M  V30 BEGIN ATOM
M  V30 1 S 4.513 -3.706 -1.5294 0
M  V30 2 C 3.3593 -2.7075 -0.7284 0
M  V30 3 C 5.6271 -2.4014 -1.5506 0
M  V30 4 C 3.9146 -1.4444 -0.5311 0
M  V30 5 C 2.0555 -3.0265 -0.308 0
M  V30 6 N 5.2063 -1.2825 -1.0048 0
M  V30 7 C 6.972 -2.5822 -2.161 0
M  V30 8 C 3.1427 -0.4617 0.1166 0
M  V30 9 C 1.2976 -2.0339 0.3278 0
M  V30 10 C 1.8399 -0.7581 0.5613 0
M  V30 11 O 0.0151 -2.2266 0.7788 0
M  V30 12 C 1.0274 0.3286 1.2362 0
M  V30 13 C -0.7144 -3.305 0.2058 0
M  V30 14 N 0.1042 0.9419 0.2769 0
M  V30 15 C -0.8774 1.8383 0.9297 0
M  V30 16 C -2.0943 2.1494 -0.0183 0
M  V30 17 C -0.1977 3.1572 1.34 0
M  V30 18 N -3.0284 3.1232 0.5824 0
M  V30 19 C -2.8586 0.8831 -0.398 0
M  V30 20 C -1.2147 4.1566 1.8848 0
M  V30 21 C -2.3578 4.3796 0.9016 0
M  V30 22 C -2.7861 0.3825 -1.7077 0
M  V30 23 C -3.6266 0.1832 0.5466 0
M  V30 24 C -3.4635 -0.7859 -2.0618 0
M  V30 25 C -4.305 -0.9835 0.1904 0
M  V30 26 C -4.2231 -1.4677 -1.1132 0
M  V30 27 H 1.674 -4.0259 -0.4773 0
M  V30 28 H 7.5309 -3.3696 -1.6455 0
M  V30 29 H 6.8867 -2.8455 -3.22 0
M  V30 30 H 7.5517 -1.6562 -2.09 0
M  V30 31 H 3.568 0.5271 0.2609 0
M  V30 32 H 1.7093 1.082 1.6468 0
M  V30 33 H 0.4928 -0.1052 2.0906 0
M  V30 34 H -0.6939 -3.2663 -0.8885 0
M  V30 35 H -1.7567 -3.2088 0.524 0
M  V30 36 H -0.3425 -4.2658 0.5751 0
M  V30 37 H -0.4175 0.1676 -0.1436 0
M  V30 38 H -1.2697 1.3475 1.8316 0
M  V30 39 H -1.7026 2.5971 -0.9435 0
M  V30 40 H 0.5657 2.9826 2.1063 0
M  V30 41 H 0.3123 3.6011 0.4749 0
M  V30 42 H -3.7784 3.2975 -0.0863 0
M  V30 43 H -0.7164 5.1105 2.0924 0
M  V30 44 H -1.6126 3.7901 2.8397 0
M  V30 45 H -1.988 4.8581 -0.0132 0
M  V30 46 H -3.0862 5.0651 1.3485 0
M  V30 47 H -2.1927 0.898 -2.4601 0
M  V30 48 H -3.7028 0.5543 1.567 0
M  V30 49 H -3.399 -1.1621 -3.0794 0
M  V30 50 H -4.8995 -1.5107 0.9318 0
M  V30 51 H -4.7542 -2.3741 -1.3906 0
M  V30 END ATOM
M  V30 BEGIN BOND
M  V30 1 1 1 2
M  V30 2 1 1 3
M  V30 3 2 2 4
M  V30 4 1 2 5
M  V30 5 2 3 6
M  V30 6 1 3 7
M  V30 7 1 4 8
M  V30 8 2 5 9
M  V30 9 2 8 10
M  V30 10 1 9 11
M  V30 11 1 10 12
M  V30 12 1 11 13
M  V30 13 1 12 14
M  V30 14 1 14 15
M  V30 15 1 15 16
M  V30 16 1 15 17
M  V30 17 1 16 18
M  V30 18 1 16 19
M  V30 19 1 17 20
M  V30 20 1 18 21
M  V30 21 2 19 22
M  V30 22 1 19 23
M  V30 23 1 22 24
M  V30 24 2 23 25
M  V30 25 2 24 26
M  V30 26 1 4 6
M  V30 27 1 9 10
M  V30 28 1 20 21
M  V30 29 1 25 26
M  V30 30 1 5 27
M  V30 31 1 7 28
M  V30 32 1 7 29
M  V30 33 1 7 30
M  V30 34 1 8 31
M  V30 35 1 12 32
M  V30 36 1 12 33
M  V30 37 1 13 34
M  V30 38 1 13 35
M  V30 39 1 13 36
M  V30 40 1 14 37
M  V30 41 1 15 38
M  V30 42 1 16 39
M  V30 43 1 17 40
M  V30 44 1 17 41
M  V30 45 1 18 42
M  V30 46 1 20 43
M  V30 47 1 20 44
M  V30 48 1 21 45
M  V30 49 1 21 46
M  V30 50 1 22 47
M  V30 51 1 23 48
M  V30 52 1 24 49
M  V30 53 1 25 50
M  V30 54 1 26 51
M  V30 END BOND
M  V30 END CTAB
M  END
>  <Column 1>
701

>  <level_0>
800

>  <index>
800

>  <Unnamed: 0>
800

>  <NO.>
812

>  <Name>
pfizer compound 17

>  <IUPAC_name>
n-[(6-methoxy-2-methyl-1-3-benzothiazol-5-yl)methyl]-2-phenylpiperidin-3-amine

>  <SMILES>
COc1cc2sc(C)nc2cc1CNC1CCCNC1c1ccccc1

>  <CID>
22620050

>  <logBB>
0.48

>  <BBB+/BBB->
BBB+

>  <Inchi>
InChI=1S/C21H25N3OS/c1-14-24-18-11-16(19(25-2)12-20(18)26-14)13-23-17-9-6-10-22-21(17)15-7-4-3-5-8-15/h3-5-7-8-11-12-17-21-23H-6-9-10-13H2-1-2H3

>  <threshold>


>  <reference>
R2|R2|R8|R27|R40|R25|R46|R47|R4|

>  <group>
A

>  <Class>
1

>  <ABC>
20.45

>  <ABCGG>
15.94

>  <nAcid>
0

>  <nBase>
2

>  <nAromAtom>
15

>  <nAromBond>
16

>  <nAtom>
51

>  <nHeavyAtom>
26

>  <nSpiro>
0

>  <nBridgehead>
0

>  <nHetero>
5

>  <nN>
3

>  <nO>
1

>  <nF>
0

>  <BalabanJ>
1.33

>  <BertzCT>
877.6

>  <nBonds>
54

>  <nBondsO>
29

>  <nBondsS>
38

>  <nBondsD>
0

>  <nBondsT>
0

>  <nBondsA>
16

>  <nBondsM>
16

>  <nBondsKS>
47

>  <nBondsKD>
7

>  <RNCG>
0.26

>  <RPCG>
0.06

>  <FCSP3>
0.38

>  <SZ>
32.67

>  <Sm>
30.6

>  <Sv>
31.95

>  <Sse>
50.49

>  <Sp>
35.17

>  <Si>
57.19

>  <MZ>
0.64

>  <Mm>
0.6

>  <Mv>
0.63

>  <Mse>
0.99

>  <Mp>
0.69

>  <Mi>
1.12

>  <NsCH3>
2

>  <NdCH2>
0

>  <NssCH2>
4

>  <NtCH>
0

>  <NdsCH>
0

>  <NaaCH>
7

>  <NsssCH>
2

>  <NddC>
0

>  <NtsC>
0

>  <NdssC>
0

>  <NaasC>
4

>  <NaaaC>
2

>  <NssssC>
0

>  <NsNH3>
0

>  <NsNH2>
0

>  <NssNH2>
0

>  <NdNH>
0

>  <NssNH>
2

>  <NaaNH>
0

>  <NtN>
0

>  <NsssNH>
0

>  <NdsN>
0

>  <NaaN>
1

>  <NsssN>
0

>  <NddsN>
0

>  <NaasN>
0

>  <NssssN>
0

>  <NsOH>
0

>  <NdO>
0

>  <NssO>
1

>  <NaaO>
0

>  <NsF>
0

>  <NsSiH3>
0

>  <NssSiH2>
0

>  <NsssSiH>
0

>  <NssssSi>
0

>  <NsPH2>
0

>  <NssPH>
0

>  <NsssP>
0

>  <NdsssP>
0

>  <NsssssP>
0

>  <NsSH>
0

>  <NdS>
0

>  <NssS>
0

>  <NaaS>
1

>  <NdssS>
0

>  <NddssS>
0

>  <NsCl>
0

>  <NsBr>
0

>  <NsI>
0

>  <fragCpx>
191.05

>  <fMF>
0.45

>  <nHBAcc>
5

>  <nHBDon>
2

>  <Kier1>
19.32

>  <Kier2>
9

>  <Lipinski>
1

>  <GhoseFilter>
1

>  <FilterItLogS>
-6.33

>  <VMcGowan>
285.37

>  <LabuteASA>
158.16

>  <PEOE_VSA1>
15.37

>  <PEOE_VSA2>
0

>  <PEOE_VSA3>
4.98

>  <PEOE_VSA4>
0

>  <PEOE_VSA5>
11.34

>  <PEOE_VSA6>
30.33

>  <PEOE_VSA7>
44.01

>  <PEOE_VSA8>
24.19

>  <PEOE_VSA9>
22.33

>  <PEOE_VSA10>
5.75

>  <PEOE_VSA11>
0

>  <PEOE_VSA12>
0

>  <PEOE_VSA13>
0

>  <SMR_VSA1>
4.74

>  <SMR_VSA2>
0

>  <SMR_VSA3>
15.62

>  <SMR_VSA4>
0

>  <SMR_VSA5>
38.39

>  <SMR_VSA6>
13.65

>  <SMR_VSA7>
58.6

>  <SMR_VSA8>
0

>  <SMR_VSA9>
5.75

>  <SlogP_VSA1>
15.37

>  <SlogP_VSA2>
24.68

>  <SlogP_VSA3>
6.54

>  <SlogP_VSA4>
6.92

>  <SlogP_VSA5>
35.02

>  <SlogP_VSA6>
42.46

>  <SlogP_VSA7>
0

>  <SlogP_VSA8>
10.22

>  <SlogP_VSA9>
0

>  <SlogP_VSA10>
0

>  <SlogP_VSA11>
5.75

>  <EState_VSA1>
0

>  <EState_VSA2>
0

>  <EState_VSA3>
12.08

>  <EState_VSA4>
29.36

>  <EState_VSA5>
28.67

>  <EState_VSA6>
18.45

>  <EState_VSA7>
6.92

>  <EState_VSA8>
58.08

>  <EState_VSA9>
4.74

>  <EState_VSA10>
0

>  <VSA_EState1>
6.82

>  <VSA_EState2>
4.63

>  <VSA_EState3>
8.54

>  <VSA_EState4>
3.58

>  <VSA_EState5>
0.94

>  <VSA_EState6>
15.76

>  <VSA_EState7>
2.37

>  <VSA_EState8>
3.91

>  <VSA_EState9>
1.74

>  <apol>
58.74

>  <bpol>
31.56

>  <nRing>
4

>  <nHRing>
2

>  <naRing>
3

>  <naHRing>
1

>  <nARing 2>
1

>  <nAHRing 2>
1

>  <nFRing>
1

>  <nFHRing>
1

>  <nFaRing>
1

>  <nFaHRing>
1

>  <nFARing 2>
0

>  <nFAHRing 2>
0

>  <nRot>
5

>  <SLogP>
4.2

>  <SMR>
107.96

>  <TopoPSA(NO)>
46.18

>  <TopoPSA>
74.42

>  <JGI1>
0.16

>  <JGI2>
0.07

>  <JGI3>
0.05

>  <JGI4>
0.03

>  <JGI5>
0.02

>  <Diameter>
13

>  <Radius>
7

>  <TMWC10>
130.87

>  <TSRW10>
74.97

>  <MW>
367.17

>  <AMW>
7.2

>  <WPath>
1732

>  <WPol>
40

>  <Zagreb1>
138

>  <Zagreb2>
163

>  <mZagreb2>
5.78

>  <yes>


>  <nAR-cont>
0.816016

>  <nHA-cont>
0.892715677

>  <MWHBN>
0.365312426

>  <MWHBN-cont>
0.612014894

>  <TPSA-cont>
0.480502188

>  <pka_cont>
0.97

>  <yes.1>


>  <BBB_SCORE>
4.072758395

>  <MMFF94 Energy>
65.745

$$$$
Compound 579
Actelion Java MolfileCreator 2.0

  0  0  0  0  0  0              0 V3000
M  V30 BEGIN CTAB
M  V30 COUNTS 68 71 0 0 0
M  V30 BEGIN ATOM
M  V30 1 F -10.9305 -5.1746 -0.2383 0
M  V30 2 C -9.6759 -4.7542 -0.4476 0
M  V30 3 C -8.6125 -5.5943 -0.1405 0
M  V30 4 C -9.4575 -3.4837 -0.9666 0
M  V30 5 C -7.3051 -5.1571 -0.3567 0
M  V30 6 C -8.1511 -3.0437 -1.1838 0
M  V30 7 C -7.0639 -3.8791 -0.8842 0
M  V30 8 C -5.6471 -3.3969 -1.0993 0
M  V30 9 C -5.1105 -2.6537 0.1366 0
M  V30 10 N -3.6882 -2.2765 0.0224 0
M  V30 11 C -3.4862 -1.2262 -1.0028 0
M  V30 12 C -3.1936 -1.7697 1.3094 0
M  V30 13 C -2.0539 -0.6678 -1.0694 0
M  V30 14 C -1.6853 -1.5341 1.2199 0
M  V30 15 O -1.6701 -0.1224 -2.107 0
M  V30 16 N -1.276 -0.713 0.0839 0
M  V30 17 C 0.0999 -0.1807 0.103 0 CFG=2
M  V30 18 C 0.1726 1.3374 -0.1427 0
M  V30 19 C 1.039 -0.9157 -0.8594 0
M  V30 20 C 1.5951 1.8478 -0.1868 0
M  V30 21 C 2.487 -0.5046 -0.5955 0
M  V30 22 C 2.6762 0.9849 -0.438 0
M  V30 23 C 1.8317 3.221 -0.0293 0
M  V30 24 C 3.9771 1.51 -0.488 0
M  V30 25 C 3.1288 3.7329 -0.0908 0
M  V30 26 C 4.2162 2.8817 -0.3146 0
M  V30 27 C 5.6266 3.4301 -0.3942 0
M  V30 28 N 6.5494 2.8452 0.5966 0
M  V30 29 C 6.156 3.1244 1.9901 0
M  V30 30 C 7.9449 3.2336 0.3424 0
M  V30 31 C 6.1582 4.589 2.4219 0
M  V30 32 C 8.5406 2.5162 -0.8651 0
M  V30 33 H -8.8078 -6.5821 0.2642 0
M  V30 34 H -10.3043 -2.8457 -1.1986 0
M  V30 35 H -6.4756 -5.8178 -0.1134 0
M  V30 36 H -7.9862 -2.0481 -1.5903 0
M  V30 37 H -5.6298 -2.7519 -1.9858 0
M  V30 38 H -5.0035 -4.2547 -1.3333 0
M  V30 39 H -5.731 -1.7716 0.3464 0
M  V30 40 H -5.2243 -3.3232 1.0003 0
M  V30 41 H -4.1538 -0.3722 -0.8311 0
M  V30 42 H -3.6972 -1.6402 -1.9947 0
M  V30 43 H -3.3771 -2.4981 2.1085 0
M  V30 44 H -3.7054 -0.8387 1.5876 0
M  V30 45 H -1.3519 -1.0443 2.142 0
M  V30 46 H -1.1569 -2.4911 1.1316 0
M  V30 47 H 0.4797 -0.3538 1.1207 0
M  V30 48 H -0.3783 1.8488 0.6571 0
M  V30 49 H -0.3049 1.6138 -1.0887 0
M  V30 50 H 0.7822 -0.685 -1.9003 0
M  V30 51 H 0.9409 -2.0019 -0.7448 0
M  V30 52 H 2.8352 -0.9879 0.3262 0
M  V30 53 H 3.1122 -0.8738 -1.4174 0
M  V30 54 H 1.0005 3.9024 0.1394 0
M  V30 55 H 4.8231 0.845 -0.6576 0
M  V30 56 H 3.2829 4.8015 0.0368 0
M  V30 57 H 5.6167 4.5249 -0.3223 0
M  V30 58 H 5.968 3.2064 -1.4121 0
M  V30 59 H 5.1645 2.7004 2.1892 0
M  V30 60 H 6.8269 2.5672 2.6572 0
M  V30 61 H 8.0437 4.3185 0.2142 0
M  V30 62 H 8.5653 2.9569 1.2046 0
M  V30 63 H 5.8812 4.661 3.4793 0
M  V30 64 H 5.4361 5.1832 1.8547 0
M  V30 65 H 7.1472 5.0437 2.3114 0
M  V30 66 H 9.6129 2.7292 -0.9315 0
M  V30 67 H 8.085 2.8413 -1.8048 0
M  V30 68 H 8.4205 1.4311 -0.778 0
M  V30 END ATOM
M  V30 BEGIN BOND
M  V30 1 1 1 2
M  V30 2 2 2 3
M  V30 3 1 2 4
M  V30 4 1 3 5
M  V30 5 2 4 6
M  V30 6 2 5 7
M  V30 7 1 7 8
M  V30 8 1 8 9
M  V30 9 1 9 10
M  V30 10 1 10 11
M  V30 11 1 10 12
M  V30 12 1 11 13
M  V30 13 1 12 14
M  V30 14 2 13 15
M  V30 15 1 13 16
M  V30 16 1 16 17
M  V30 17 1 17 18
M  V30 18 1 17 19
M  V30 19 1 18 20
M  V30 20 1 19 21
M  V30 21 2 20 22
M  V30 22 1 20 23
M  V30 23 1 22 24
M  V30 24 2 23 25
M  V30 25 2 24 26
M  V30 26 1 26 27
M  V30 27 1 27 28
M  V30 28 1 28 29
M  V30 29 1 28 30
M  V30 30 1 29 31
M  V30 31 1 30 32
M  V30 32 1 6 7
M  V30 33 1 14 16
M  V30 34 1 21 22
M  V30 35 1 25 26
M  V30 36 1 3 33
M  V30 37 1 4 34
M  V30 38 1 5 35
M  V30 39 1 6 36
M  V30 40 1 8 37
M  V30 41 1 8 38
M  V30 42 1 9 39
M  V30 43 1 9 40
M  V30 44 1 11 41
M  V30 45 1 11 42
M  V30 46 1 12 43
M  V30 47 1 12 44
M  V30 48 1 14 45
M  V30 49 1 14 46
M  V30 50 1 17 47
M  V30 51 1 18 48
M  V30 52 1 18 49
M  V30 53 1 19 50
M  V30 54 1 19 51
M  V30 55 1 21 52
M  V30 56 1 21 53
M  V30 57 1 23 54
M  V30 58 1 24 55
M  V30 59 1 25 56
M  V30 60 1 27 57
M  V30 61 1 27 58
M  V30 62 1 29 59
M  V30 63 1 29 60
M  V30 64 1 30 61
M  V30 65 1 30 62
M  V30 66 1 31 63
M  V30 67 1 31 64
M  V30 68 1 31 65
M  V30 69 1 32 66
M  V30 70 1 32 67
M  V30 71 1 32 68
M  V30 END BOND
M  V30 BEGIN COLLECTION
M  V30 MDLV30/STERAC1 ATOMS=(1 17)
M  V30 END COLLECTION
M  V30 END CTAB
M  END
>  <Column 1>
703

>  <level_0>
802

>  <index>
802

>  <Unnamed: 0>
802

>  <NO.>
814

>  <Name>
chembl506480

>  <IUPAC_name>
1-[6-(diethylaminomethyl)-1-2-3-4-tetrahydronaphthalen-2-yl]-4-[2-(4-fluorophenyl)ethyl]piperazin-2-one

>  <SMILES>
CCN(CC)Cc1ccc2c(c1)CCC(N1CCN(CCc3ccc(F)cc3)CC1=O)C2

>  <CID>
44592215

>  <logBB>
0.48

>  <BBB+/BBB->
BBB+

>  <Inchi>
InChI=1S/C27H36FN3O/c1-3-29(4-2)19-22-5-8-24-18-26(12-9-23(24)17-22)31-16-15-30(20-27(31)32)14-13-21-6-10-25(28)11-7-21/h5-8-10-11-17-26H-3-4-9-12-16-18-20H2-1-2H3

>  <threshold>


>  <reference>
R2|R2|R20|R25|R27|R46|

>  <group>
A

>  <Class>
1

>  <ABC>
24.85

>  <ABCGG>
17.01

>  <nAcid>
0

>  <nBase>
2

>  <nAromAtom>
12

>  <nAromBond>
12

>  <nAtom>
68

>  <nHeavyAtom>
32

>  <nSpiro>
0

>  <nBridgehead>
0

>  <nHetero>
5

>  <nN>
3

>  <nO>
1

>  <nF>
1

>  <BalabanJ>
1.18

>  <BertzCT>
909.62

>  <nBonds>
71

>  <nBondsO>
35

>  <nBondsS>
58

>  <nBondsD>
1

>  <nBondsT>
0

>  <nBondsA>
12

>  <nBondsM>
13

>  <nBondsKS>
64

>  <nBondsKD>
7

>  <RNCG>
0.16

>  <RPCG>
0.11

>  <FCSP3>
0.52

>  <SZ>
39.33

>  <Sm>
36.43

>  <Sv>
40.39

>  <Sse>
67.26

>  <Sp>
44.16

>  <Si>
77.1

>  <MZ>
0.58

>  <Mm>
0.54

>  <Mv>
0.59

>  <Mse>
0.99

>  <Mp>
0.65

>  <Mi>
1.13

>  <NsCH3>
2

>  <NdCH2>
0

>  <NssCH2>
11

>  <NtCH>
0

>  <NdsCH>
0

>  <NaaCH>
7

>  <NsssCH>
1

>  <NddC>
0

>  <NtsC>
0

>  <NdssC>
1

>  <NaasC>
5

>  <NaaaC>
0

>  <NssssC>
0

>  <NsNH3>
0

>  <NsNH2>
0

>  <NssNH2>
0

>  <NdNH>
0

>  <NssNH>
0

>  <NaaNH>
0

>  <NtN>
0

>  <NsssNH>
0

>  <NdsN>
0

>  <NaaN>
0

>  <NsssN>
3

>  <NddsN>
0

>  <NaasN>
0

>  <NssssN>
0

>  <NsOH>
0

>  <NdO>
1

>  <NssO>
0

>  <NaaO>
0

>  <NsF>
1

>  <NsSiH3>
0

>  <NssSiH2>
0

>  <NsssSiH>
0

>  <NssssSi>
0

>  <NsPH2>
0

>  <NssPH>
0

>  <NsssP>
0

>  <NdsssP>
0

>  <NsssssP>
0

>  <NsSH>
0

>  <NdS>
0

>  <NssS>
0

>  <NaaS>
0

>  <NdssS>
0

>  <NddssS>
0

>  <NsCl>
0

>  <NsBr>
0

>  <NsI>
0

>  <fragCpx>
233.05

>  <fMF>
0.35

>  <nHBAcc>
3

>  <nHBDon>
0

>  <Kier1>
25.1

>  <Kier2>
12.11

>  <Lipinski>
1

>  <GhoseFilter>
1

>  <FilterItLogS>
-6.71

>  <VMcGowan>
355.32

>  <LabuteASA>
191.56

>  <PEOE_VSA1>
4.9

>  <PEOE_VSA2>
14.59

>  <PEOE_VSA3>
4.39

>  <PEOE_VSA4>
0

>  <PEOE_VSA5>
0

>  <PEOE_VSA6>
44.18

>  <PEOE_VSA7>
73.16

>  <PEOE_VSA8>
32.22

>  <PEOE_VSA9>
6.54

>  <PEOE_VSA10>
5.82

>  <PEOE_VSA11>
0

>  <PEOE_VSA12>
5.91

>  <PEOE_VSA13>
0

>  <SMR_VSA1>
9.18

>  <SMR_VSA2>
0

>  <SMR_VSA3>
14.7

>  <SMR_VSA4>
0

>  <SMR_VSA5>
52.12

>  <SMR_VSA6>
39.27

>  <SMR_VSA7>
70.54

>  <SMR_VSA8>
0

>  <SMR_VSA9>
0

>  <SlogP_VSA1>
0

>  <SlogP_VSA2>
65.92

>  <SlogP_VSA3>
30.6

>  <SlogP_VSA4>
5.82

>  <SlogP_VSA5>
42.52

>  <SlogP_VSA6>
42.46

>  <SlogP_VSA7>
0

>  <SlogP_VSA8>
0

>  <SlogP_VSA9>
0

>  <SlogP_VSA10>
4.39

>  <SlogP_VSA11>
0

>  <EState_VSA1>
0

>  <EState_VSA2>
11.72

>  <EState_VSA3>
12.59

>  <EState_VSA4>
70.52

>  <EState_VSA5>
28.82

>  <EState_VSA6>
0

>  <EState_VSA7>
12.13

>  <EState_VSA8>
46.75

>  <EState_VSA9>
0

>  <EState_VSA10>
9.18

>  <VSA_EState1>
13.08

>  <VSA_EState2>
19.75

>  <VSA_EState3>
0

>  <VSA_EState4>
5.4

>  <VSA_EState5>
0.05

>  <VSA_EState6>
13.96

>  <VSA_EState7>
3.94

>  <VSA_EState8>
10.66

>  <VSA_EState9>
0

>  <apol>
73.75

>  <bpol>
43.23

>  <nRing>
4

>  <nHRing>
1

>  <naRing>
2

>  <naHRing>
0

>  <nARing 2>
2

>  <nAHRing 2>
1

>  <nFRing>
1

>  <nFHRing>
0

>  <nFaRing>
0

>  <nFaHRing>
0

>  <nFARing 2>
1

>  <nFAHRing 2>
0

>  <nRot>
8

>  <SLogP>
3.91

>  <SMR>
127.14

>  <TopoPSA(NO)>
26.79

>  <TopoPSA>
26.79

>  <JGI1>
0.2

>  <JGI2>
0.07

>  <JGI3>
0.03

>  <JGI4>
0.04

>  <JGI5>
0.02

>  <Diameter>
20

>  <Radius>
10

>  <TMWC10>
144.01

>  <TSRW10>
67.9

>  <MW>
437.28

>  <AMW>
6.43

>  <WPath>
3567

>  <WPol>
50

>  <Zagreb1>
166

>  <Zagreb2>
193

>  <mZagreb2>
7.17

>  <yes>


>  <nAR-cont>
1

>  <nHA-cont>
0.658856097

>  <MWHBN>
0.143463508

>  <MWHBN-cont>
0.914381284

>  <TPSA-cont>
0.812989164

>  <pka_cont>
0.97

>  <yes.1>


>  <BBB_SCORE>
5.141406351

>  <MMFF94 Energy>
133.4

$$$$
Compound 580
Actelion Java MolfileCreator 2.0

  0  0  0  0  0  0              0 V3000
M  V30 BEGIN CTAB
M  V30 COUNTS 43 46 0 0 0
M  V30 BEGIN ATOM
M  V30 1 Cl 3.2394 0.0829 2.4912 0
M  V30 2 C 2.1922 -0.2027 1.1386 0
M  V30 3 C 1.4196 0.8312 0.5558 0
M  V30 4 C 2.1548 -1.5125 0.654 0
M  V30 5 N 1.402 2.1526 0.9813 0
M  V30 6 C 0.6016 0.4661 -0.5516 0
M  V30 7 C 1.3504 -1.8622 -0.4302 0
M  V30 8 C 0.7274 2.4586 2.2495 0
M  V30 9 C 2.5778 2.981 0.6826 0
M  V30 10 C 0.5769 -0.8546 -1.0233 0
M  V30 11 C -0.2982 1.2223 -1.3695 0
M  V30 12 C 0.4145 3.9715 2.3293 0
M  V30 13 C 2.2138 4.4793 0.808 0
M  V30 14 N -0.3057 -0.8647 -2.0871 0
M  V30 15 C -0.8555 0.3728 -2.2946 0
M  V30 16 N 1.5921 4.8333 2.1006 0
M  V30 17 S -0.8424 -2.2666 -2.8964 0
M  V30 18 O -1.6958 -1.817 -3.9793 0
M  V30 19 O 0.3447 -3.0661 -3.1296 0
M  V30 20 C -1.8672 -3.0832 -1.7042 0
M  V30 21 C -3.0018 -2.43 -1.2133 0
M  V30 22 C -1.5422 -4.3754 -1.2786 0
M  V30 23 C -3.7987 -3.0766 -0.272 0
M  V30 24 C -2.3499 -5.0114 -0.3356 0
M  V30 25 Cl -5.193 -2.2844 0.3505 0
M  V30 26 C -3.4769 -4.3604 0.1705 0
M  V30 27 H 2.7671 -2.2812 1.1217 0
M  V30 28 H 1.3547 -2.885 -0.7962 0
M  V30 29 H -0.2147 1.9023 2.3277 0
M  V30 30 H 1.3571 2.1761 3.1006 0
M  V30 31 H 2.9325 2.792 -0.3379 0
M  V30 32 H 3.3975 2.75 1.3724 0
M  V30 33 H -0.509 2.2796 -1.2644 0
M  V30 34 H 2.0E-4 4.1987 3.3176 0
M  V30 35 H -0.3587 4.2211 1.5914 0
M  V30 36 H 3.1214 5.079 0.6795 0
M  V30 37 H 1.5288 4.7548 -0.004 0
M  V30 38 H -1.5823 0.5504 -3.0777 0
M  V30 39 H 1.2909 5.8063 2.0688 0
M  V30 40 H -3.2725 -1.4367 -1.5626 0
M  V30 41 H -0.6696 -4.8933 -1.673 0
M  V30 42 H -2.1048 -6.0157 0.0036 0
M  V30 43 H -4.1036 -4.8614 0.9049 0
M  V30 END ATOM
M  V30 BEGIN BOND
M  V30 1 1 1 2
M  V30 2 2 2 3
M  V30 3 1 2 4
M  V30 4 1 3 5
M  V30 5 1 3 6
M  V30 6 2 4 7
M  V30 7 1 5 8
M  V30 8 1 5 9
M  V30 9 2 6 10
M  V30 10 1 6 11
M  V30 11 1 8 12
M  V30 12 1 9 13
M  V30 13 1 10 14
M  V30 14 2 11 15
M  V30 15 1 12 16
M  V30 16 1 14 17
M  V30 17 2 17 18
M  V30 18 2 17 19
M  V30 19 1 17 20
M  V30 20 2 20 21
M  V30 21 1 20 22
M  V30 22 1 21 23
M  V30 23 2 22 24
M  V30 24 1 23 25
M  V30 25 2 23 26
M  V30 26 1 7 10
M  V30 27 1 13 16
M  V30 28 1 14 15
M  V30 29 1 24 26
M  V30 30 1 4 27
M  V30 31 1 7 28
M  V30 32 1 8 29
M  V30 33 1 8 30
M  V30 34 1 9 31
M  V30 35 1 9 32
M  V30 36 1 11 33
M  V30 37 1 12 34
M  V30 38 1 12 35
M  V30 39 1 13 36
M  V30 40 1 13 37
M  V30 41 1 15 38
M  V30 42 1 16 39
M  V30 43 1 21 40
M  V30 44 1 22 41
M  V30 45 1 24 42
M  V30 46 1 26 43
M  V30 END BOND
M  V30 END CTAB
M  END
>  <Column 1>
705

>  <level_0>
804

>  <index>
804

>  <Unnamed: 0>
804

>  <NO.>
816

>  <Name>
chembl193400

>  <IUPAC_name>
5-chloro-1-(3-chlorophenyl)sulfonyl-4-piperazin-1-ylindole

>  <SMILES>
O=S(=O)(c1cccc(Cl)c1)n1ccc2c(N3CCNCC3)c(Cl)ccc21

>  <CID>
9822810

>  <logBB>
0.48

>  <BBB+/BBB->
BBB+

>  <Inchi>
InChI=1S/C18H17Cl2N3O2S/c19-13-2-1-3-14(12-13)26(24-25)23-9-6-15-17(23)5-4-16(20)18(15)22-10-7-21-8-11-22/h1-6-9-12-21H-7-8-10-11H2

>  <threshold>


>  <reference>
R18|R26|R27|

>  <group>
A

>  <Class>
1

>  <ABC>
20.72

>  <ABCGG>
16.77

>  <nAcid>
0

>  <nBase>
1

>  <nAromAtom>
15

>  <nAromBond>
16

>  <nAtom>
43

>  <nHeavyAtom>
26

>  <nSpiro>
0

>  <nBridgehead>
0

>  <nHetero>
8

>  <nN>
3

>  <nO>
2

>  <nF>
0

>  <BalabanJ>
1.5

>  <BertzCT>
1073.23

>  <nBonds>
46

>  <nBondsO>
29

>  <nBondsS>
28

>  <nBondsD>
2

>  <nBondsT>
0

>  <nBondsA>
16

>  <nBondsM>
18

>  <nBondsKS>
37

>  <nBondsKD>
9

>  <RNCG>
0.21

>  <RPCG>
0.15

>  <FCSP3>
0.22

>  <SZ>
35.33

>  <Sm>
34.16

>  <Sv>
29.68

>  <Sse>
43.81

>  <Sp>
32.07

>  <Si>
48.04

>  <MZ>
0.82

>  <Mm>
0.79

>  <Mv>
0.69

>  <Mse>
1.02

>  <Mp>
0.75

>  <Mi>
1.12

>  <NsCH3>
0

>  <NdCH2>
0

>  <NssCH2>
4

>  <NtCH>
0

>  <NdsCH>
0

>  <NaaCH>
8

>  <NsssCH>
0

>  <NddC>
0

>  <NtsC>
0

>  <NdssC>
0

>  <NaasC>
4

>  <NaaaC>
2

>  <NssssC>
0

>  <NsNH3>
0

>  <NsNH2>
0

>  <NssNH2>
0

>  <NdNH>
0

>  <NssNH>
1

>  <NaaNH>
0

>  <NtN>
0

>  <NsssNH>
0

>  <NdsN>
0

>  <NaaN>
0

>  <NsssN>
1

>  <NddsN>
0

>  <NaasN>
1

>  <NssssN>
0

>  <NsOH>
0

>  <NdO>
2

>  <NssO>
0

>  <NaaO>
0

>  <NsF>
0

>  <NsSiH3>
0

>  <NssSiH2>
0

>  <NsssSiH>
0

>  <NssssSi>
0

>  <NsPH2>
0

>  <NssPH>
0

>  <NsssP>
0

>  <NdsssP>
0

>  <NsssssP>
0

>  <NsSH>
0

>  <NdS>
0

>  <NssS>
0

>  <NaaS>
0

>  <NdssS>
0

>  <NddssS>
1

>  <NsCl>
2

>  <NsBr>
0

>  <NsI>
0

>  <fragCpx>
191.08

>  <fMF>
0.51

>  <nHBAcc>
5

>  <nHBDon>
1

>  <Kier1>
19.32

>  <Kier2>
7.79

>  <Lipinski>
1

>  <GhoseFilter>
1

>  <FilterItLogS>
-5.33

>  <VMcGowan>
273.45

>  <LabuteASA>
161.72

>  <PEOE_VSA1>
10.22

>  <PEOE_VSA2>
0

>  <PEOE_VSA3>
12.39

>  <PEOE_VSA4>
0

>  <PEOE_VSA5>
0

>  <PEOE_VSA6>
29.27

>  <PEOE_VSA7>
36.4

>  <PEOE_VSA8>
42.78

>  <PEOE_VSA9>
21.12

>  <PEOE_VSA10>
0

>  <PEOE_VSA11>
0

>  <PEOE_VSA12>
0

>  <PEOE_VSA13>
10.02

>  <SMR_VSA1>
8.42

>  <SMR_VSA2>
0

>  <SMR_VSA3>
9.29

>  <SMR_VSA4>
0

>  <SMR_VSA5>
4.9

>  <SMR_VSA6>
31.08

>  <SMR_VSA7>
58.71

>  <SMR_VSA8>
0

>  <SMR_VSA9>
0

>  <SlogP_VSA1>
10.22

>  <SlogP_VSA2>
38.57

>  <SlogP_VSA3>
10.02

>  <SlogP_VSA4>
0

>  <SlogP_VSA5>
0

>  <SlogP_VSA6>
53.56

>  <SlogP_VSA7>
10.05

>  <SlogP_VSA8>
10.9

>  <SlogP_VSA9>
0

>  <SlogP_VSA10>
5.69

>  <SlogP_VSA11>
0

>  <EState_VSA1>
10.02

>  <EState_VSA2>
4.9

>  <EState_VSA3>
15.56

>  <EState_VSA4>
37.25

>  <EState_VSA5>
10.04

>  <EState_VSA6>
42.6

>  <EState_VSA7>
0

>  <EState_VSA8>
10.22

>  <EState_VSA9>
23.2

>  <EState_VSA10>
8.42

>  <VSA_EState1>
27.45

>  <VSA_EState2>
2.35

>  <VSA_EState3>
5.14

>  <VSA_EState4>
1.48

>  <VSA_EState5>
0

>  <VSA_EState6>
11.58

>  <VSA_EState7>
1.57

>  <VSA_EState8>
3.39

>  <VSA_EState9>
-3.75

>  <apol>
53.56

>  <bpol>
28.72

>  <nRing>
4

>  <nHRing>
2

>  <naRing>
3

>  <naHRing>
1

>  <nARing 2>
1

>  <nAHRing 2>
1

>  <nFRing>
1

>  <nFHRing>
1

>  <nFaRing>
1

>  <nFaHRing>
1

>  <nFARing 2>
0

>  <nFAHRing 2>
0

>  <nRot>
3

>  <SLogP>
3.59

>  <SMR>
106.07

>  <TopoPSA(NO)>
54.34

>  <TopoPSA>
62.72

>  <JGI1>
0.19

>  <JGI2>
0.09

>  <JGI3>
0.06

>  <JGI4>
0.04

>  <JGI5>
0.02

>  <Diameter>
12

>  <Radius>
6

>  <TMWC10>
132.59

>  <TSRW10>
75.63

>  <MW>
409.04

>  <AMW>
9.51

>  <WPath>
1572

>  <WPol>
46

>  <Zagreb1>
144

>  <Zagreb2>
175

>  <mZagreb2>
5.56

>  <yes>


>  <nAR-cont>
0.816016

>  <nHA-cont>
0.892715677

>  <MWHBN>
0.296666399

>  <MWHBN-cont>
0.850582993

>  <TPSA-cont>
0.562175453

>  <pka_cont>
0.97

>  <yes.1>


>  <BBB_SCORE>
4.593957073

>  <MMFF94 Energy>
220.54

$$$$
Compound 581
Actelion Java MolfileCreator 2.0

  0  0  0  0  0  0              0 V3000
M  V30 BEGIN CTAB
M  V30 COUNTS 21 23 0 0 0
M  V30 BEGIN ATOM
M  V30 1 N -0.3202 -0.4003 3.6073 0
M  V30 2 C -0.5017 0.7091 2.856 0
M  V30 3 C 0.0391 -1.5518 2.9986 0
M  V30 4 C -0.3137 0.6336 1.4821 0
M  V30 5 C 0.2429 -1.6962 1.6344 0
M  V30 6 N -0.4318 1.5967 0.5093 0
M  V30 7 C 0.0567 -0.55 0.8474 0
M  V30 8 C -0.1504 1.0774 -0.7328 0
M  V30 9 C 0.1601 -0.2702 -0.5522 0
M  V30 10 C -0.1479 1.6943 -1.9895 0
M  V30 11 C 0.4905 -1.0425 -1.6851 0
M  V30 12 C 0.1829 0.9068 -3.0962 0
M  V30 13 C 0.498 -0.4419 -2.9493 0
M  V30 14 H -0.7895 1.6147 3.3755 0
M  V30 15 H 0.1663 -2.3998 3.6664 0
M  V30 16 H 0.5308 -2.6477 1.2058 0
M  V30 17 H -0.6902 2.5576 0.6799 0
M  V30 18 H -0.3927 2.7448 -2.109 0
M  V30 19 H 0.7376 -2.0947 -1.5808 0
M  V30 20 H 0.1942 1.3554 -4.0871 0
M  V30 21 H 0.7524 -1.0357 -3.8238 0
M  V30 END ATOM
M  V30 BEGIN BOND
M  V30 1 2 1 2
M  V30 2 1 1 3
M  V30 3 1 2 4
M  V30 4 2 3 5
M  V30 5 1 4 6
M  V30 6 2 4 7
M  V30 7 1 6 8
M  V30 8 1 7 9
M  V30 9 1 8 10
M  V30 10 1 9 11
M  V30 11 2 10 12
M  V30 12 2 11 13
M  V30 13 1 5 7
M  V30 14 2 8 9
M  V30 15 1 12 13
M  V30 16 1 2 14
M  V30 17 1 3 15
M  V30 18 1 5 16
M  V30 19 1 6 17
M  V30 20 1 10 18
M  V30 21 1 11 19
M  V30 22 1 12 20
M  V30 23 1 13 21
M  V30 END BOND
M  V30 END CTAB
M  END
>  <Column 1>
706

>  <level_0>
805

>  <index>
805

>  <Unnamed: 0>
805

>  <NO.>
817

>  <Name>
9h-pyrido[3-4-b]indole

>  <IUPAC_name>
9h-pyrido[3-4-b]indole

>  <SMILES>
c1ccc2c(c1)[nH]c1cnccc12

>  <CID>
64961

>  <logBB>
0.48

>  <BBB+/BBB->
BBB+

>  <Inchi>
InChI=1S/C11H8N2/c1-2-4-10-8(3-1)9-5-6-12-7-11(9)13-10/h1-7-13H

>  <threshold>


>  <reference>
R2|R2|R20|R25|R27|R46|

>  <group>
A

>  <Class>
1

>  <ABC>
10.49

>  <ABCGG>
8.84

>  <nAcid>
0

>  <nBase>
0

>  <nAromAtom>
13

>  <nAromBond>
15

>  <nAtom>
21

>  <nHeavyAtom>
13

>  <nSpiro>
0

>  <nBridgehead>
0

>  <nHetero>
2

>  <nN>
2

>  <nO>
0

>  <nF>
0

>  <BalabanJ>
1.76

>  <BertzCT>
515.85

>  <nBonds>
23

>  <nBondsO>
15

>  <nBondsS>
8

>  <nBondsD>
0

>  <nBondsT>
0

>  <nBondsA>
15

>  <nBondsM>
15

>  <nBondsKS>
17

>  <nBondsKD>
6

>  <RNCG>
0.41

>  <RPCG>
0.19

>  <FCSP3>
0

>  <SZ>
14.67

>  <Sm>
14

>  <Sv>
14.68

>  <Sse>
20.88

>  <Sp>
15.51

>  <Si>
23.24

>  <MZ>
0.7

>  <Mm>
0.67

>  <Mv>
0.7

>  <Mse>
0.99

>  <Mp>
0.74

>  <Mi>
1.11

>  <NsCH3>
0

>  <NdCH2>
0

>  <NssCH2>
0

>  <NtCH>
0

>  <NdsCH>
0

>  <NaaCH>
7

>  <NsssCH>
0

>  <NddC>
0

>  <NtsC>
0

>  <NdssC>
0

>  <NaasC>
0

>  <NaaaC>
4

>  <NssssC>
0

>  <NsNH3>
0

>  <NsNH2>
0

>  <NssNH2>
0

>  <NdNH>
0

>  <NssNH>
0

>  <NaaNH>
1

>  <NtN>
0

>  <NsssNH>
0

>  <NdsN>
0

>  <NaaN>
1

>  <NsssN>
0

>  <NddsN>
0

>  <NaasN>
0

>  <NssssN>
0

>  <NsOH>
0

>  <NdO>
0

>  <NssO>
0

>  <NaaO>
0

>  <NsF>
0

>  <NsSiH3>
0

>  <NssSiH2>
0

>  <NsssSiH>
0

>  <NssssSi>
0

>  <NsPH2>
0

>  <NssPH>
0

>  <NsssP>
0

>  <NdsssP>
0

>  <NsssssP>
0

>  <NsSH>
0

>  <NdS>
0

>  <NssS>
0

>  <NaaS>
0

>  <NdssS>
0

>  <NddssS>
0

>  <NsCl>
0

>  <NsBr>
0

>  <NsI>
0

>  <fragCpx>
69.02

>  <fMF>
0.62

>  <nHBAcc>
1

>  <nHBDon>
1

>  <Kier1>
8.32

>  <Kier2>
3.29

>  <Lipinski>
1

>  <GhoseFilter>
1

>  <FilterItLogS>
-3.52

>  <VMcGowan>
127.43

>  <LabuteASA>
75.22

>  <PEOE_VSA1>
4.98

>  <PEOE_VSA2>
4.98

>  <PEOE_VSA3>
0

>  <PEOE_VSA4>
0

>  <PEOE_VSA5>
0

>  <PEOE_VSA6>
18.2

>  <PEOE_VSA7>
12.13

>  <PEOE_VSA8>
22.49

>  <PEOE_VSA9>
11.71

>  <PEOE_VSA10>
0

>  <PEOE_VSA11>
0

>  <PEOE_VSA12>
0

>  <PEOE_VSA13>
0

>  <SMR_VSA1>
0

>  <SMR_VSA2>
0

>  <SMR_VSA3>
9.97

>  <SMR_VSA4>
0

>  <SMR_VSA5>
0

>  <SMR_VSA6>
0

>  <SMR_VSA7>
42.73

>  <SMR_VSA8>
0

>  <SMR_VSA9>
0

>  <SlogP_VSA1>
0

>  <SlogP_VSA2>
9.97

>  <SlogP_VSA3>
0

>  <SlogP_VSA4>
0

>  <SlogP_VSA5>
0

>  <SlogP_VSA6>
42.73

>  <SlogP_VSA7>
0

>  <SlogP_VSA8>
21.81

>  <SlogP_VSA9>
0

>  <SlogP_VSA10>
0

>  <SlogP_VSA11>
0

>  <EState_VSA1>
0

>  <EState_VSA2>
0

>  <EState_VSA3>
0

>  <EState_VSA4>
5.52

>  <EState_VSA5>
16.29

>  <EState_VSA6>
0

>  <EState_VSA7>
24.53

>  <EState_VSA8>
28.17

>  <EState_VSA9>
0

>  <EState_VSA10>
0

>  <VSA_EState1>
0

>  <VSA_EState2>
7.39

>  <VSA_EState3>
2.51

>  <VSA_EState4>
2.27

>  <VSA_EState5>
0

>  <VSA_EState6>
10.32

>  <VSA_EState7>
3.68

>  <VSA_EState8>
0

>  <VSA_EState9>
0

>  <apol>
25.9

>  <bpol>
9.74

>  <nRing>
3

>  <nHRing>
2

>  <naRing>
3

>  <naHRing>
2

>  <nARing 2>
0

>  <nAHRing 2>
0

>  <nFRing>
1

>  <nFHRing>
1

>  <nFaRing>
1

>  <nFaHRing>
1

>  <nFARing 2>
0

>  <nFAHRing 2>
0

>  <nRot>
0

>  <SLogP>
2.72

>  <SMR>
53.6

>  <TopoPSA(NO)>
28.68

>  <TopoPSA>
28.68

>  <JGI1>
0.1

>  <JGI2>
0.06

>  <JGI3>
0.06

>  <JGI4>
0.02

>  <JGI5>
0.02

>  <Diameter>
6

>  <Radius>
4

>  <TMWC10>
98.75

>  <TSRW10>
59.27

>  <MW>
168.07

>  <AMW>
8

>  <WPath>
219

>  <WPol>
19

>  <Zagreb1>
72

>  <Zagreb2>
87

>  <mZagreb2>
2.83

>  <yes>


>  <nAR-cont>
0.336376

>  <nHA-cont>
0.841215992

>  <MWHBN>
0.154271213

>  <MWHBN-cont>
0.943116201

>  <TPSA-cont>
0.799795791

>  <pka_cont>
0.97

>  <yes.1>


>  <BBB_SCORE>
4.676857876

>  <MMFF94 Energy>
22.731

$$$$
Compound 582
Actelion Java MolfileCreator 2.0

  0  0  0  0  0  0              0 V3000
M  V30 BEGIN CTAB
M  V30 COUNTS 30 31 0 0 0
M  V30 BEGIN ATOM
M  V30 1 Cl -1.4294 -3.4969 -4.1337 0
M  V30 2 C -0.9612 -2.3208 -2.9691 0
M  V30 3 C -1.9349 -1.6258 -2.2563 0
M  V30 4 C 0.39 -2.0665 -2.7469 0
M  V30 5 C -1.5531 -0.6702 -1.3107 0
M  V30 6 C 0.7702 -1.1103 -1.801 0
M  V30 7 C -0.1961 -0.4034 -1.0655 0
M  V30 8 C 0.2034 0.6066 -0.0761 0
M  V30 9 C 0.2081 1.9709 -0.3709 0
M  V30 10 C 0.6082 0.291 1.2196 0
M  V30 11 N 0.5506 2.9177 0.516 0
M  V30 12 N -0.2101 2.4565 -1.5996 0
M  V30 13 N 0.9683 1.2361 2.1197 0
M  V30 14 C 0.6349 -1.1228 1.7484 0
M  V30 15 C 0.9228 2.5088 1.7273 0
M  V30 16 C -0.6902 -1.5128 2.3857 0
M  V30 17 N 1.2808 3.4597 2.636 0
M  V30 18 H -2.9902 -1.8189 -2.431 0
M  V30 19 H 1.1509 -2.6063 -3.3044 0
M  V30 20 H -2.3231 -0.1272 -0.7639 0
M  V30 21 H 1.8299 -0.9189 -1.6385 0
M  V30 22 H -0.0219 1.9091 -2.4263 0
M  V30 23 H -0.1602 3.4644 -1.6718 0
M  V30 24 H 1.4273 -1.1994 2.5039 0
M  V30 25 H 0.9053 -1.8377 0.9652 0
M  V30 26 H -0.6325 -2.5307 2.784 0
M  V30 27 H -1.5105 -1.4792 1.6619 0
M  V30 28 H -0.9456 -0.8399 3.2116 0
M  V30 29 H 1.5457 3.1548 3.5554 0
M  V30 30 H 1.2314 4.4225 2.3553 0
M  V30 END ATOM
M  V30 BEGIN BOND
M  V30 1 1 1 2
M  V30 2 2 2 3
M  V30 3 1 2 4
M  V30 4 1 3 5
M  V30 5 2 4 6
M  V30 6 2 5 7
M  V30 7 1 7 8
M  V30 8 2 8 9
M  V30 9 1 8 10
M  V30 10 1 9 11
M  V30 11 1 9 12
M  V30 12 2 10 13
M  V30 13 1 10 14
M  V30 14 2 11 15
M  V30 15 1 14 16
M  V30 16 1 15 17
M  V30 17 1 6 7
M  V30 18 1 13 15
M  V30 19 1 3 18
M  V30 20 1 4 19
M  V30 21 1 5 20
M  V30 22 1 6 21
M  V30 23 1 12 22
M  V30 24 1 12 23
M  V30 25 1 14 24
M  V30 26 1 14 25
M  V30 27 1 16 26
M  V30 28 1 16 27
M  V30 29 1 16 28
M  V30 30 1 17 29
M  V30 31 1 17 30
M  V30 END BOND
M  V30 END CTAB
M  END
>  <Column 1>
707

>  <level_0>
806

>  <index>
806

>  <Unnamed: 0>
806

>  <NO.>
818

>  <Name>
pyrimethamine

>  <IUPAC_name>
5-(4-chlorophenyl)-6-ethylpyrimidine-2-4-diamine

>  <SMILES>
CCc1nc(N)nc(N)c1-c1ccc(Cl)cc1

>  <CID>
4993

>  <logBB>
0.49

>  <BBB+/BBB->
BBB+

>  <Inchi>
InChI=1S/C12H13ClN4/c1-2-9-10(11(14)17-12(15)16-9)7-3-5-8(13)6-4-7/h3-6H-2H2-1H3-(H4-14-15-16-17)

>  <threshold>


>  <reference>
R18|R26|R27|

>  <group>
A

>  <Class>
1

>  <ABC>
12.93

>  <ABCGG>
11.29

>  <nAcid>
0

>  <nBase>
0

>  <nAromAtom>
12

>  <nAromBond>
12

>  <nAtom>
30

>  <nHeavyAtom>
17

>  <nSpiro>
0

>  <nBridgehead>
0

>  <nHetero>
5

>  <nN>
4

>  <nO>
0

>  <nF>
0

>  <BalabanJ>
2.01

>  <BertzCT>
536.95

>  <nBonds>
31

>  <nBondsO>
18

>  <nBondsS>
19

>  <nBondsD>
0

>  <nBondsT>
0

>  <nBondsA>
12

>  <nBondsM>
12

>  <nBondsKS>
25

>  <nBondsKD>
6

>  <RNCG>
0.25

>  <RPCG>
0.15

>  <FCSP3>
0.17

>  <SZ>
21.67

>  <Sm>
20.71

>  <Sv>
19.64

>  <Sse>
30.19

>  <Sp>
21.13

>  <Si>
34.01

>  <MZ>
0.72

>  <Mm>
0.69

>  <Mv>
0.65

>  <Mse>
1.01

>  <Mp>
0.7

>  <Mi>
1.13

>  <NsCH3>
1

>  <NdCH2>
0

>  <NssCH2>
1

>  <NtCH>
0

>  <NdsCH>
0

>  <NaaCH>
4

>  <NsssCH>
0

>  <NddC>
0

>  <NtsC>
0

>  <NdssC>
0

>  <NaasC>
6

>  <NaaaC>
0

>  <NssssC>
0

>  <NsNH3>
0

>  <NsNH2>
2

>  <NssNH2>
0

>  <NdNH>
0

>  <NssNH>
0

>  <NaaNH>
0

>  <NtN>
0

>  <NsssNH>
0

>  <NdsN>
0

>  <NaaN>
2

>  <NsssN>
0

>  <NddsN>
0

>  <NaasN>
0

>  <NssssN>
0

>  <NsOH>
0

>  <NdO>
0

>  <NssO>
0

>  <NaaO>
0

>  <NsF>
0

>  <NsSiH3>
0

>  <NssSiH2>
0

>  <NsssSiH>
0

>  <NssssSi>
0

>  <NsPH2>
0

>  <NssPH>
0

>  <NsssP>
0

>  <NdsssP>
0

>  <NsssssP>
0

>  <NsSH>
0

>  <NdS>
0

>  <NssS>
0

>  <NaaS>
0

>  <NdssS>
0

>  <NddssS>
0

>  <NsCl>
1

>  <NsBr>
0

>  <NsI>
0

>  <fragCpx>
52.05

>  <fMF>
0.4

>  <nHBAcc>
4

>  <nHBDon>
2

>  <Kier1>
13.43

>  <Kier2>
5.76

>  <Lipinski>
1

>  <GhoseFilter>
1

>  <FilterItLogS>
-4.26

>  <VMcGowan>
184.58

>  <LabuteASA>
104.64

>  <PEOE_VSA1>
11.47

>  <PEOE_VSA2>
0

>  <PEOE_VSA3>
4.98

>  <PEOE_VSA4>
4.98

>  <PEOE_VSA5>
0

>  <PEOE_VSA6>
30.66

>  <PEOE_VSA7>
24.12

>  <PEOE_VSA8>
10.59

>  <PEOE_VSA9>
5.69

>  <PEOE_VSA10>
5.82

>  <PEOE_VSA11>
0

>  <PEOE_VSA12>
5.95

>  <PEOE_VSA13>
0

>  <SMR_VSA1>
0

>  <SMR_VSA2>
0

>  <SMR_VSA3>
9.97

>  <SMR_VSA4>
0

>  <SMR_VSA5>
13.34

>  <SMR_VSA6>
11.47

>  <SMR_VSA7>
34.98

>  <SMR_VSA8>
0

>  <SMR_VSA9>
11.13

>  <SlogP_VSA1>
11.47

>  <SlogP_VSA2>
9.97

>  <SlogP_VSA3>
6.42

>  <SlogP_VSA4>
0

>  <SlogP_VSA5>
12.62

>  <SlogP_VSA6>
24.27

>  <SlogP_VSA7>
5.02

>  <SlogP_VSA8>
11.13

>  <SlogP_VSA9>
0

>  <SlogP_VSA10>
11.77

>  <SlogP_VSA11>
0

>  <EState_VSA1>
0

>  <EState_VSA2>
5.95

>  <EState_VSA3>
10.84

>  <EState_VSA4>
23.24

>  <EState_VSA5>
0

>  <EState_VSA6>
0

>  <EState_VSA7>
31.19

>  <EState_VSA8>
9.97

>  <EState_VSA9>
23.07

>  <EState_VSA10>
0

>  <VSA_EState1>
0

>  <VSA_EState2>
8.2

>  <VSA_EState3>
0.68

>  <VSA_EState4>
14.11

>  <VSA_EState5>
0.61

>  <VSA_EState6>
7.41

>  <VSA_EState7>
0.74

>  <VSA_EState8>
2

>  <VSA_EState9>
0

>  <apol>
35.29

>  <bpol>
14.69

>  <nRing>
2

>  <nHRing>
1

>  <naRing>
2

>  <naHRing>
1

>  <nARing 2>
0

>  <nAHRing 2>
0

>  <nFRing>
0

>  <nFHRing>
0

>  <nFaRing>
0

>  <nFaHRing>
0

>  <nFARing 2>
0

>  <nFAHRing 2>
0

>  <nRot>
2

>  <SLogP>
2.52

>  <SMR>
70.68

>  <TopoPSA(NO)>
77.82

>  <TopoPSA>
77.82

>  <JGI1>
0.22

>  <JGI2>
0.08

>  <JGI3>
0.07

>  <JGI4>
0.05

>  <JGI5>
0.03

>  <Diameter>
9

>  <Radius>
5

>  <TMWC10>
106.4

>  <TSRW10>
49.75

>  <MW>
248.08

>  <AMW>
8.27

>  <WPath>
498

>  <WPol>
26

>  <Zagreb1>
86

>  <Zagreb2>
100

>  <mZagreb2>
3.83

>  <yes>


>  <nAR-cont>
0.336376

>  <nHA-cont>
0.976740822

>  <MWHBN>
0.380938944

>  <MWHBN-cont>
0.551119799

>  <TPSA-cont>
0.456768077

>  <pka_cont>
0.97

>  <yes.1>


>  <BBB_SCORE>
3.538332674

>  <MMFF94 Energy>
-87.086

$$$$
Compound 583
Actelion Java MolfileCreator 2.0

  0  0  0  0  0  0              0 V3000
M  V30 BEGIN CTAB
M  V30 COUNTS 51 54 0 0 0
M  V30 BEGIN ATOM
M  V30 1 O -4.2246 -0.3979 3.9851 0
M  V30 2 C -3.3509 -0.3445 2.938 0
M  V30 3 C -3.5899 -1.1969 4.8995 0
M  V30 4 C -2.2457 -1.1092 3.27 0
M  V30 5 C -3.5104 0.34 1.7427 0
M  V30 6 N -2.4074 -1.6444 4.5228 0
M  V30 7 C -4.3116 -1.4414 6.1635 0
M  V30 8 C -1.1976 -1.2245 2.3479 0
M  V30 9 C -2.4419 0.2325 0.8414 0
M  V30 10 C -1.3024 -0.5529 1.1085 0
M  V30 11 O -2.5633 0.8635 -0.3729 0
M  V30 12 C -0.1641 -0.6718 0.1151 0
M  V30 13 C -2.2061 2.2408 -0.25 0
M  V30 14 N 0.8908 0.2987 0.4288 0
M  V30 15 C 2.1347 0.0794 -0.3499 0
M  V30 16 C 2.163 0.7368 -1.7819 0
M  V30 17 C 3.2747 0.6785 0.5071 0
M  V30 18 N 3.5083 0.6743 -2.3961 0
M  V30 19 C 1.1781 0.1146 -2.7635 0
M  V30 20 C 4.6153 0.629 -0.2139 0
M  V30 21 C 4.5249 1.3113 -1.5707 0
M  V30 22 C 0.1113 0.8738 -3.2704 0
M  V30 23 C 1.3193 -1.216 -3.1926 0
M  V30 24 C -0.8001 0.3108 -4.1655 0
M  V30 25 C 0.4089 -1.7758 -4.0902 0
M  V30 26 C -0.6518 -1.0131 -4.5736 0
M  V30 27 H -4.4015 0.9125 1.5242 0
M  V30 28 H -5.2706 -1.9304 5.9685 0
M  V30 29 H -4.5006 -0.4985 6.685 0
M  V30 30 H -3.7257 -2.0871 6.8243 0
M  V30 31 H -0.3304 -1.8277 2.5939 0
M  V30 32 H -0.5588 -0.5328 -0.8919 0
M  V30 33 H 0.2244 -1.6972 0.1606 0
M  V30 34 H -2.9506 2.7865 0.3394 0
M  V30 35 H -2.1894 2.6724 -1.2551 0
M  V30 36 H -1.2101 2.365 0.188 0
M  V30 37 H 1.1037 0.199 1.4211 0
M  V30 38 H 2.3316 -0.9982 -0.433 0
M  V30 39 H 1.9041 1.7993 -1.6662 0
M  V30 40 H 3.3611 0.1358 1.4571 0
M  V30 41 H 3.0468 1.7239 0.7577 0
M  V30 42 H 3.4638 1.1373 -3.304 0
M  V30 43 H 4.9296 -0.4148 -0.3382 0
M  V30 44 H 5.3799 1.1223 0.3968 0
M  V30 45 H 5.4931 1.233 -2.077 0
M  V30 46 H 4.31 2.3802 -1.4529 0
M  V30 47 H -0.026 1.9057 -2.9565 0
M  V30 48 H 2.1504 -1.8181 -2.8316 0
M  V30 49 H -1.6297 0.9046 -4.5399 0
M  V30 50 H 0.5299 -2.8061 -4.4131 0
M  V30 51 H -1.3629 -1.45 -5.2694 0
M  V30 END ATOM
M  V30 BEGIN BOND
M  V30 1 1 1 2
M  V30 2 1 1 3
M  V30 3 2 2 4
M  V30 4 1 2 5
M  V30 5 2 3 6
M  V30 6 1 3 7
M  V30 7 1 4 8
M  V30 8 2 5 9
M  V30 9 2 8 10
M  V30 10 1 9 11
M  V30 11 1 10 12
M  V30 12 1 11 13
M  V30 13 1 12 14
M  V30 14 1 14 15
M  V30 15 1 15 16
M  V30 16 1 15 17
M  V30 17 1 16 18
M  V30 18 1 16 19
M  V30 19 1 17 20
M  V30 20 1 18 21
M  V30 21 2 19 22
M  V30 22 1 19 23
M  V30 23 1 22 24
M  V30 24 2 23 25
M  V30 25 2 24 26
M  V30 26 1 4 6
M  V30 27 1 9 10
M  V30 28 1 20 21
M  V30 29 1 25 26
M  V30 30 1 5 27
M  V30 31 1 7 28
M  V30 32 1 7 29
M  V30 33 1 7 30
M  V30 34 1 8 31
M  V30 35 1 12 32
M  V30 36 1 12 33
M  V30 37 1 13 34
M  V30 38 1 13 35
M  V30 39 1 13 36
M  V30 40 1 14 37
M  V30 41 1 15 38
M  V30 42 1 16 39
M  V30 43 1 17 40
M  V30 44 1 17 41
M  V30 45 1 18 42
M  V30 46 1 20 43
M  V30 47 1 20 44
M  V30 48 1 21 45
M  V30 49 1 21 46
M  V30 50 1 22 47
M  V30 51 1 23 48
M  V30 52 1 24 49
M  V30 53 1 25 50
M  V30 54 1 26 51
M  V30 END BOND
M  V30 END CTAB
M  END
>  <Column 1>
708

>  <level_0>
807

>  <index>
807

>  <Unnamed: 0>
807

>  <NO.>
819

>  <Name>
pfizer compound 19

>  <IUPAC_name>
n-[(6-methoxy-2-methyl-1-3-benzoxazol-5-yl)methyl]-2-phenylpiperidin-3-amine

>  <SMILES>
COc1cc2oc(C)nc2cc1CNC1CCCNC1c1ccccc1

>  <CID>
22620080

>  <logBB>
0.49

>  <BBB+/BBB->
BBB+

>  <Inchi>
InChI=1S/C21H25N3O2/c1-14-24-18-11-16(19(25-2)12-20(18)26-14)13-23-17-9-6-10-22-21(17)15-7-4-3-5-8-15/h3-5-7-8-11-12-17-21-23H-6-9-10-13H2-1-2H3

>  <threshold>


>  <reference>
R25|R46|R47|R4|R2|R2|R8|R27|R40|

>  <group>
A

>  <Class>
1

>  <ABC>
20.45

>  <ABCGG>
15.94

>  <nAcid>
0

>  <nBase>
2

>  <nAromAtom>
15

>  <nAromBond>
16

>  <nAtom>
51

>  <nHeavyAtom>
26

>  <nSpiro>
0

>  <nBridgehead>
0

>  <nHetero>
5

>  <nN>
3

>  <nO>
2

>  <nF>
0

>  <BalabanJ>
1.33

>  <BertzCT>
875.6

>  <nBonds>
54

>  <nBondsO>
29

>  <nBondsS>
38

>  <nBondsD>
0

>  <nBondsT>
0

>  <nBondsA>
16

>  <nBondsM>
16

>  <nBondsKS>
47

>  <nBondsKD>
7

>  <RNCG>
0.23

>  <RPCG>
0.09

>  <FCSP3>
0.38

>  <SZ>
31.33

>  <Sm>
29.26

>  <Sv>
31.48

>  <Sse>
50.75

>  <Sp>
33.92

>  <Si>
57.48

>  <MZ>
0.61

>  <Mm>
0.57

>  <Mv>
0.62

>  <Mse>
1

>  <Mp>
0.67

>  <Mi>
1.13

>  <NsCH3>
2

>  <NdCH2>
0

>  <NssCH2>
4

>  <NtCH>
0

>  <NdsCH>
0

>  <NaaCH>
7

>  <NsssCH>
2

>  <NddC>
0

>  <NtsC>
0

>  <NdssC>
0

>  <NaasC>
4

>  <NaaaC>
2

>  <NssssC>
0

>  <NsNH3>
0

>  <NsNH2>
0

>  <NssNH2>
0

>  <NdNH>
0

>  <NssNH>
2

>  <NaaNH>
0

>  <NtN>
0

>  <NsssNH>
0

>  <NdsN>
0

>  <NaaN>
1

>  <NsssN>
0

>  <NddsN>
0

>  <NaasN>
0

>  <NssssN>
0

>  <NsOH>
0

>  <NdO>
0

>  <NssO>
1

>  <NaaO>
1

>  <NsF>
0

>  <NsSiH3>
0

>  <NssSiH2>
0

>  <NsssSiH>
0

>  <NssssSi>
0

>  <NsPH2>
0

>  <NssPH>
0

>  <NsssP>
0

>  <NdsssP>
0

>  <NsssssP>
0

>  <NsSH>
0

>  <NdS>
0

>  <NssS>
0

>  <NaaS>
0

>  <NdssS>
0

>  <NddssS>
0

>  <NsCl>
0

>  <NsBr>
0

>  <NsI>
0

>  <fragCpx>
191.05

>  <fMF>
0.45

>  <nHBAcc>
5

>  <nHBDon>
2

>  <Kier1>
19.32

>  <Kier2>
9

>  <Lipinski>
1

>  <GhoseFilter>
1

>  <FilterItLogS>
-6.28

>  <VMcGowan>
274.89

>  <LabuteASA>
153.31

>  <PEOE_VSA1>
19.79

>  <PEOE_VSA2>
0

>  <PEOE_VSA3>
4.98

>  <PEOE_VSA4>
0

>  <PEOE_VSA5>
0

>  <PEOE_VSA6>
30.33

>  <PEOE_VSA7>
31.02

>  <PEOE_VSA8>
37.18

>  <PEOE_VSA9>
7.11

>  <PEOE_VSA10>
11.27

>  <PEOE_VSA11>
11.47

>  <PEOE_VSA12>
0

>  <PEOE_VSA13>
0

>  <SMR_VSA1>
9.15

>  <SMR_VSA2>
0

>  <SMR_VSA3>
15.62

>  <SMR_VSA4>
0

>  <SMR_VSA5>
38.39

>  <SMR_VSA6>
13.65

>  <SMR_VSA7>
59.48

>  <SMR_VSA8>
0

>  <SMR_VSA9>
5.75

>  <SlogP_VSA1>
15.37

>  <SlogP_VSA2>
24.68

>  <SlogP_VSA3>
6.54

>  <SlogP_VSA4>
6.92

>  <SlogP_VSA5>
35.9

>  <SlogP_VSA6>
46.88

>  <SlogP_VSA7>
0

>  <SlogP_VSA8>
11.1

>  <SlogP_VSA9>
0

>  <SlogP_VSA10>
0

>  <SlogP_VSA11>
5.75

>  <EState_VSA1>
0

>  <EState_VSA2>
0

>  <EState_VSA3>
17.97

>  <EState_VSA4>
41.92

>  <EState_VSA5>
11.98

>  <EState_VSA6>
7.11

>  <EState_VSA7>
12.99

>  <EState_VSA8>
52.02

>  <EState_VSA9>
9.15

>  <EState_VSA10>
0

>  <VSA_EState1>
11.18

>  <VSA_EState2>
4.44

>  <VSA_EState3>
7.39

>  <VSA_EState4>
4.08

>  <VSA_EState5>
1.51

>  <VSA_EState6>
15.37

>  <VSA_EState7>
2.33

>  <VSA_EState8>
3.66

>  <VSA_EState9>
1.7

>  <apol>
56.64

>  <bpol>
30.83

>  <nRing>
4

>  <nHRing>
2

>  <naRing>
3

>  <naHRing>
1

>  <nARing 2>
1

>  <nAHRing 2>
1

>  <nFRing>
1

>  <nFHRing>
1

>  <nFaRing>
1

>  <nFaHRing>
1

>  <nFARing 2>
0

>  <nFAHRing 2>
0

>  <nRot>
5

>  <SLogP>
3.73

>  <SMR>
102.35

>  <TopoPSA(NO)>
59.32

>  <TopoPSA>
59.32

>  <JGI1>
0.16

>  <JGI2>
0.07

>  <JGI3>
0.05

>  <JGI4>
0.03

>  <JGI5>
0.02

>  <Diameter>
13

>  <Radius>
7

>  <TMWC10>
130.87

>  <TSRW10>
74.97

>  <MW>
351.19

>  <AMW>
6.89

>  <WPath>
1732

>  <WPol>
40

>  <Zagreb1>
138

>  <Zagreb2>
163

>  <mZagreb2>
5.78

>  <yes>


>  <nAR-cont>
0.816016

>  <nHA-cont>
0.892715677

>  <MWHBN>
0.373531274

>  <MWHBN-cont>
0.580118232

>  <TPSA-cont>
0.585909564

>  <pka_cont>
0.97

>  <yes.1>


>  <BBB_SCORE>
4.235728154

>  <MMFF94 Energy>
68

$$$$
Compound 584
Actelion Java MolfileCreator 2.0

  0  0  0  0  0  0              0 V3000
M  V30 BEGIN CTAB
M  V30 COUNTS 33 35 0 0 0
M  V30 BEGIN ATOM
M  V30 1 Cl -4.3901 1.1367 1.0555 0
M  V30 2 C -3.0009 0.1352 0.9042 0
M  V30 3 C -1.7481 0.7123 0.7215 0
M  V30 4 C -3.1352 -1.2472 0.9701 0
M  V30 5 C -0.6119 -0.1038 0.5887 0
M  V30 6 C -2.0046 -2.0611 0.8586 0
M  V30 7 C 0.7075 0.5646 0.3978 0
M  V30 8 C -0.7287 -1.5033 0.6704 0
M  V30 9 N 1.7663 0.2666 1.0762 0
M  V30 10 C 0.8223 1.6548 -0.6227 0
M  V30 11 N 0.3937 -2.372 0.5834 0
M  V30 12 C 1.695 -0.8346 2.0409 0
M  V30 13 C 1.7003 2.7191 -0.384 0
M  V30 14 C 0.0933 1.6132 -1.8184 0
M  V30 15 C 1.584 -2.1522 1.281 0
M  V30 16 C 0.2776 -3.5894 -0.204 0
M  V30 17 C 1.8263 3.7478 -1.319 0
M  V30 18 C 0.2224 2.6449 -2.751 0
M  V30 19 O 2.4956 -2.9829 1.3097 0
M  V30 20 C 1.0844 3.7121 -2.4991 0
M  V30 21 H -1.6568 1.796 0.6935 0
M  V30 22 H -4.1125 -1.6997 1.1209 0
M  V30 23 H -2.1348 -3.1376 0.9445 0
M  V30 24 H 2.6266 -0.8507 2.6172 0
M  V30 25 H 0.8798 -0.7183 2.7637 0
M  V30 26 H 2.2893 2.7492 0.5301 0
M  V30 27 H -0.5634 0.7791 -2.0485 0
M  V30 28 H -0.3808 -3.4288 -1.0636 0
M  V30 29 H 1.2576 -3.9012 -0.5786 0
M  V30 30 H -0.1175 -4.3878 0.4317 0
M  V30 31 H 2.5084 4.5725 -1.1281 0
M  V30 32 H -0.3421 2.6124 -3.6797 0
M  V30 33 H 1.1874 4.5119 -3.2285 0
M  V30 END ATOM
M  V30 BEGIN BOND
M  V30 1 1 1 2
M  V30 2 2 2 3
M  V30 3 1 2 4
M  V30 4 1 3 5
M  V30 5 2 4 6
M  V30 6 1 5 7
M  V30 7 2 5 8
M  V30 8 2 7 9
M  V30 9 1 7 10
M  V30 10 1 8 11
M  V30 11 1 9 12
M  V30 12 2 10 13
M  V30 13 1 10 14
M  V30 14 1 11 15
M  V30 15 1 11 16
M  V30 16 1 13 17
M  V30 17 2 14 18
M  V30 18 2 15 19
M  V30 19 2 17 20
M  V30 20 1 6 8
M  V30 21 1 12 15
M  V30 22 1 18 20
M  V30 23 1 3 21
M  V30 24 1 4 22
M  V30 25 1 6 23
M  V30 26 1 12 24
M  V30 27 1 12 25
M  V30 28 1 13 26
M  V30 29 1 14 27
M  V30 30 1 16 28
M  V30 31 1 16 29
M  V30 32 1 16 30
M  V30 33 1 17 31
M  V30 34 1 18 32
M  V30 35 1 20 33
M  V30 END BOND
M  V30 END CTAB
M  END
>  <Column 1>
709

>  <level_0>
808

>  <index>
808

>  <Unnamed: 0>
808

>  <NO.>
820

>  <Name>
diazepam

>  <IUPAC_name>
7-chloro-1-methyl-5-phenyl-3h-1-4-benzodiazepin-2-one

>  <SMILES>
CN1C(=O)CN=C(c2ccccc2)c2cc(Cl)ccc21

>  <CID>
3016

>  <logBB>
0.5

>  <BBB+/BBB->
BBB+

>  <Inchi>
InChI=1S/C16H13ClN2O/c1-19-14-8-7-12(17)9-13(14)16(18-10-15(19)20)11-5-3-2-4-6-11/h2-9H-10H2-1H3

>  <threshold>


>  <reference>
R3|R38|R25|R41|R46|R18|R26|R27|R50|R40|R20|R2|R2|R27|R8|R21|R27|R5|R3|R11|R12|R35|R36|R39|R42|R43|R44|R47|R4|

>  <group>
A

>  <Class>
1

>  <ABC>
15.68

>  <ABCGG>
12.96

>  <nAcid>
0

>  <nBase>
0

>  <nAromAtom>
12

>  <nAromBond>
12

>  <nAtom>
33

>  <nHeavyAtom>
20

>  <nSpiro>
0

>  <nBridgehead>
0

>  <nHetero>
4

>  <nN>
2

>  <nO>
1

>  <nF>
0

>  <BalabanJ>
1.79

>  <BertzCT>
694.88

>  <nBonds>
35

>  <nBondsO>
22

>  <nBondsS>
21

>  <nBondsD>
2

>  <nBondsT>
0

>  <nBondsA>
12

>  <nBondsM>
14

>  <nBondsKS>
27

>  <nBondsKD>
8

>  <RNCG>
0.23

>  <RPCG>
0.18

>  <FCSP3>
0.13

>  <SZ>
24.67

>  <Sm>
23.71

>  <Sv>
22.84

>  <Sse>
33.19

>  <Sp>
24.29

>  <Si>
36.64

>  <MZ>
0.75

>  <Mm>
0.72

>  <Mv>
0.69

>  <Mse>
1.01

>  <Mp>
0.74

>  <Mi>
1.11

>  <NsCH3>
1

>  <NdCH2>
0

>  <NssCH2>
1

>  <NtCH>
0

>  <NdsCH>
0

>  <NaaCH>
8

>  <NsssCH>
0

>  <NddC>
0

>  <NtsC>
0

>  <NdssC>
2

>  <NaasC>
4

>  <NaaaC>
0

>  <NssssC>
0

>  <NsNH3>
0

>  <NsNH2>
0

>  <NssNH2>
0

>  <NdNH>
0

>  <NssNH>
0

>  <NaaNH>
0

>  <NtN>
0

>  <NsssNH>
0

>  <NdsN>
1

>  <NaaN>
0

>  <NsssN>
1

>  <NddsN>
0

>  <NaasN>
0

>  <NssssN>
0

>  <NsOH>
0

>  <NdO>
1

>  <NssO>
0

>  <NaaO>
0

>  <NsF>
0

>  <NsSiH3>
0

>  <NssSiH2>
0

>  <NsssSiH>
0

>  <NssssSi>
0

>  <NsPH2>
0

>  <NssPH>
0

>  <NsssP>
0

>  <NdsssP>
0

>  <NsssssP>
0

>  <NsSH>
0

>  <NdS>
0

>  <NssS>
0

>  <NaaS>
0

>  <NdssS>
0

>  <NddssS>
0

>  <NsCl>
1

>  <NsBr>
0

>  <NsI>
0

>  <fragCpx>
104.04

>  <fMF>
0.52

>  <nHBAcc>
2

>  <nHBDon>
0

>  <Kier1>
14.92

>  <Kier2>
6.41

>  <Lipinski>
1

>  <GhoseFilter>
1

>  <FilterItLogS>
-4.79

>  <VMcGowan>
207.39

>  <LabuteASA>
122.06

>  <PEOE_VSA1>
4.9

>  <PEOE_VSA2>
9.79

>  <PEOE_VSA3>
0

>  <PEOE_VSA4>
0

>  <PEOE_VSA5>
0

>  <PEOE_VSA6>
41.93

>  <PEOE_VSA7>
18.2

>  <PEOE_VSA8>
23.2

>  <PEOE_VSA9>
11.4

>  <PEOE_VSA10>
6.54

>  <PEOE_VSA11>
0

>  <PEOE_VSA12>
5.91

>  <PEOE_VSA13>
0

>  <SMR_VSA1>
4.79

>  <SMR_VSA2>
0

>  <SMR_VSA3>
0

>  <SMR_VSA4>
4.99

>  <SMR_VSA5>
0

>  <SMR_VSA6>
18.49

>  <SMR_VSA7>
64.68

>  <SMR_VSA8>
0

>  <SMR_VSA9>
0

>  <SlogP_VSA1>
4.9

>  <SlogP_VSA2>
25.21

>  <SlogP_VSA3>
4.79

>  <SlogP_VSA4>
0

>  <SlogP_VSA5>
11.13

>  <SlogP_VSA6>
53.52

>  <SlogP_VSA7>
5.02

>  <SlogP_VSA8>
0

>  <SlogP_VSA9>
0

>  <SlogP_VSA10>
5.69

>  <SlogP_VSA11>
0

>  <EState_VSA1>
0

>  <EState_VSA2>
12.45

>  <EState_VSA3>
5.02

>  <EState_VSA4>
22.53

>  <EState_VSA5>
0

>  <EState_VSA6>
18.01

>  <EState_VSA7>
42.46

>  <EState_VSA8>
4.99

>  <EState_VSA9>
11.6

>  <EState_VSA10>
4.79

>  <VSA_EState1>
0

>  <VSA_EState2>
18.13

>  <VSA_EState3>
0.63

>  <VSA_EState4>
3.51

>  <VSA_EState5>
-0.03

>  <VSA_EState6>
15.35

>  <VSA_EState7>
0

>  <VSA_EState8>
0.15

>  <VSA_EState9>
1.76

>  <apol>
40.57

>  <bpol>
17.27

>  <nRing>
3

>  <nHRing>
1

>  <naRing>
2

>  <naHRing>
0

>  <nARing 2>
1

>  <nAHRing 2>
1

>  <nFRing>
1

>  <nFHRing>
1

>  <nFaRing>
0

>  <nFaHRing>
0

>  <nFARing 2>
1

>  <nFAHRing 2>
1

>  <nRot>
1

>  <SLogP>
3.15

>  <SMR>
81.81

>  <TopoPSA(NO)>
32.67

>  <TopoPSA>
32.67

>  <JGI1>
0.16

>  <JGI2>
0.09

>  <JGI3>
0.05

>  <JGI4>
0.04

>  <JGI5>
0.03

>  <Diameter>
8

>  <Radius>
4

>  <TMWC10>
115.85

>  <TSRW10>
61.88

>  <MW>
284.07

>  <AMW>
8.61

>  <WPath>
726

>  <WPol>
36

>  <Zagreb1>
106

>  <Zagreb2>
126

>  <mZagreb2>
4.39

>  <yes>


>  <nAR-cont>
0.816016

>  <nHA-cont>
0.999629945

>  <MWHBN>
0.118663543

>  <MWHBN-cont>
0.823558277

>  <TPSA-cont>
0.771943113

>  <pka_cont>
0.97

>  <yes.1>


>  <BBB_SCORE>
5.079869587

>  <MMFF94 Energy>
106.36

$$$$
Compound 585
Actelion Java MolfileCreator 2.0

  0  0  0  0  0  0              0 V3000
M  V30 BEGIN CTAB
M  V30 COUNTS 59 62 0 0 0
M  V30 BEGIN ATOM
M  V30 1 O 1.1945 -2.2306 3.986 0
M  V30 2 C 1.4339 -1.3265 3.1846 0
M  V30 3 N 1.9239 -1.5536 1.9 0
M  V30 4 C 1.1284 0.1052 3.5561 0
M  V30 5 C 2.2116 -0.5656 0.9597 0
M  V30 6 C 2.186 -2.9422 1.5273 0
M  V30 7 C 2.0549 1.0969 2.8665 0
M  V30 8 O 2.6167 -0.8086 -0.1779 0
M  V30 9 C 1.9339 0.8663 1.3595 0
M  V30 10 C 0.9281 -3.7454 1.159 0
M  V30 11 C 1.6943 2.5451 3.2353 0
M  V30 12 C 3.507 1.0146 3.3679 0
M  V30 13 C 0.2273 -3.2758 -0.1221 0
M  V30 14 C 2.953 3.3551 2.9383 0
M  V30 15 C 4.12 2.3743 3.039 0
M  V30 16 C -0.8461 -2.2109 0.1454 0
M  V30 17 N -1.4989 -1.7423 -1.0874 0
M  V30 18 C -2.72 -0.9712 -0.7515 0
M  V30 19 C -0.6041 -0.8621 -1.88 0
M  V30 20 C -3.462 -0.4211 -1.989 0
M  V30 21 C -1.2671 -0.2964 -3.1569 0
M  V30 22 N -2.5559 0.3259 -2.8578 0
M  V30 23 C -3.1189 1.1307 -3.8296 0
M  V30 24 N -4.4202 1.4578 -3.7304 0
M  V30 25 N -2.3451 1.5746 -4.8362 0
M  V30 26 C -4.9455 2.252 -4.6824 0
M  V30 27 C -2.9114 2.3665 -5.7662 0
M  V30 28 C -4.2277 2.7434 -5.7401 0
M  V30 29 H 0.082 0.2974 3.2872 0
M  V30 30 H 1.2076 0.1976 4.6463 0
M  V30 31 H 2.9031 -2.9871 0.6997 0
M  V30 32 H 2.6702 -3.4355 2.3797 0
M  V30 33 H 0.9195 1.1038 1.0137 0
M  V30 34 H 2.6244 1.5087 0.801 0
M  V30 35 H 0.2197 -3.7656 1.9951 0
M  V30 36 H 1.2486 -4.7833 1.0015 0
M  V30 37 H 1.4638 2.623 4.3058 0
M  V30 38 H 0.8272 2.9264 2.6857 0
M  V30 39 H 4.0831 0.1986 2.9207 0
M  V30 40 H 3.5276 0.8692 4.4557 0
M  V30 41 H 0.9776 -2.9344 -0.8413 0
M  V30 42 H -0.2667 -4.1432 -0.5794 0
M  V30 43 H 2.9075 3.7789 1.9285 0
M  V30 44 H 3.0624 4.1906 3.6373 0
M  V30 45 H 4.8401 2.6787 3.8055 0
M  V30 46 H 4.6576 2.3336 2.0848 0
M  V30 47 H -1.6017 -2.6769 0.7921 0
M  V30 48 H -0.4428 -1.3636 0.7076 0
M  V30 49 H -2.4621 -0.1305 -0.0923 0
M  V30 50 H -3.4182 -1.6131 -0.2003 0
M  V30 51 H -0.2651 -0.0202 -1.2608 0
M  V30 52 H 0.2881 -1.4115 -2.1968 0
M  V30 53 H -4.2795 0.2102 -1.6195 0
M  V30 54 H -3.9065 -1.2532 -2.5499 0
M  V30 55 H -0.5635 0.4237 -3.5924 0
M  V30 56 H -1.4118 -1.1071 -3.8826 0
M  V30 57 H -5.9983 2.4861 -4.5584 0
M  V30 58 H -2.2457 2.6971 -6.5574 0
M  V30 59 H -4.6655 3.3798 -6.4947 0
M  V30 END ATOM
M  V30 BEGIN BOND
M  V30 1 2 1 2
M  V30 2 1 2 3
M  V30 3 1 2 4
M  V30 4 1 3 5
M  V30 5 1 3 6
M  V30 6 1 4 7
M  V30 7 2 5 8
M  V30 8 1 5 9
M  V30 9 1 6 10
M  V30 10 1 7 11
M  V30 11 1 7 12
M  V30 12 1 10 13
M  V30 13 1 11 14
M  V30 14 1 12 15
M  V30 15 1 13 16
M  V30 16 1 16 17
M  V30 17 1 17 18
M  V30 18 1 17 19
M  V30 19 1 18 20
M  V30 20 1 19 21
M  V30 21 1 20 22
M  V30 22 1 22 23
M  V30 23 2 23 24
M  V30 24 1 23 25
M  V30 25 1 24 26
M  V30 26 2 25 27
M  V30 27 2 26 28
M  V30 28 1 7 9
M  V30 29 1 14 15
M  V30 30 1 21 22
M  V30 31 1 27 28
M  V30 32 1 4 29
M  V30 33 1 4 30
M  V30 34 1 6 31
M  V30 35 1 6 32
M  V30 36 1 9 33
M  V30 37 1 9 34
M  V30 38 1 10 35
M  V30 39 1 10 36
M  V30 40 1 11 37
M  V30 41 1 11 38
M  V30 42 1 12 39
M  V30 43 1 12 40
M  V30 44 1 13 41
M  V30 45 1 13 42
M  V30 46 1 14 43
M  V30 47 1 14 44
M  V30 48 1 15 45
M  V30 49 1 15 46
M  V30 50 1 16 47
M  V30 51 1 16 48
M  V30 52 1 18 49
M  V30 53 1 18 50
M  V30 54 1 19 51
M  V30 55 1 19 52
M  V30 56 1 20 53
M  V30 57 1 20 54
M  V30 58 1 21 55
M  V30 59 1 21 56
M  V30 60 1 26 57
M  V30 61 1 27 58
M  V30 62 1 28 59
M  V30 END BOND
M  V30 END CTAB
M  END
>  <Column 1>
710

>  <level_0>
809

>  <index>
809

>  <Unnamed: 0>
809

>  <NO.>
821

>  <Name>
buspirone

>  <IUPAC_name>
8-[4-(4-pyrimidin-2-ylpiperazin-1-yl)butyl]-8-azaspiro[4.5]decane-7-9-dione

>  <SMILES>
O=C1CC2(CCCC2)CC(=O)N1CCCCN1CCN(c2ncccn2)CC1

>  <CID>
2477

>  <logBB>
0.5

>  <BBB+/BBB->
BBB+

>  <Inchi>
InChI=1S/C21H31N5O2/c27-18-16-21(6-1-2-7-21)17-19(28)26(18)11-4-3-10-24-12-14-25(15-13-24)20-22-8-5-9-23-20/h5-8-9H-1-4-6-7-10-17H2

>  <threshold>


>  <reference>
R18|R26|R27|R40|R12|R25|R35|R39|R47|R50|R21|R27|R43|R2|R2|R8|R27|R5|

>  <group>
A

>  <Class>
1

>  <ABC>
22.02

>  <ABCGG>
16.1

>  <nAcid>
0

>  <nBase>
1

>  <nAromAtom>
6

>  <nAromBond>
6

>  <nAtom>
59

>  <nHeavyAtom>
28

>  <nSpiro>
1

>  <nBridgehead>
0

>  <nHetero>
7

>  <nN>
5

>  <nO>
2

>  <nF>
0

>  <BalabanJ>
1.12

>  <BertzCT>
661.3

>  <nBonds>
62

>  <nBondsO>
31

>  <nBondsS>
54

>  <nBondsD>
2

>  <nBondsT>
0

>  <nBondsA>
6

>  <nBondsM>
8

>  <nBondsKS>
57

>  <nBondsKD>
5

>  <RNCG>
0.15

>  <RPCG>
0.1

>  <FCSP3>
0.71

>  <SZ>
34.67

>  <Sm>
32.1

>  <Sv>
34.62

>  <Sse>
58.74

>  <Sp>
37.63

>  <Si>
67.31

>  <MZ>
0.59

>  <Mm>
0.54

>  <Mv>
0.59

>  <Mse>
1

>  <Mp>
0.64

>  <Mi>
1.14

>  <NsCH3>
0

>  <NdCH2>
0

>  <NssCH2>
14

>  <NtCH>
0

>  <NdsCH>
0

>  <NaaCH>
3

>  <NsssCH>
0

>  <NddC>
0

>  <NtsC>
0

>  <NdssC>
2

>  <NaasC>
1

>  <NaaaC>
0

>  <NssssC>
1

>  <NsNH3>
0

>  <NsNH2>
0

>  <NssNH2>
0

>  <NdNH>
0

>  <NssNH>
0

>  <NaaNH>
0

>  <NtN>
0

>  <NsssNH>
0

>  <NdsN>
0

>  <NaaN>
2

>  <NsssN>
3

>  <NddsN>
0

>  <NaasN>
0

>  <NssssN>
0

>  <NsOH>
0

>  <NdO>
2

>  <NssO>
0

>  <NaaO>
0

>  <NsF>
0

>  <NsSiH3>
0

>  <NssSiH2>
0

>  <NsssSiH>
0

>  <NssssSi>
0

>  <NsPH2>
0

>  <NssPH>
0

>  <NsssP>
0

>  <NdsssP>
0

>  <NsssssP>
0

>  <NsSH>
0

>  <NdS>
0

>  <NssS>
0

>  <NaaS>
0

>  <NdssS>
0

>  <NddssS>
0

>  <NsCl>
0

>  <NsBr>
0

>  <NsI>
0

>  <fragCpx>
205.07

>  <fMF>
0.44

>  <nHBAcc>
6

>  <nHBDon>
0

>  <Kier1>
21.24

>  <Kier2>
9.87

>  <Lipinski>
1

>  <GhoseFilter>
1

>  <FilterItLogS>
-4.13

>  <VMcGowan>
303.45

>  <LabuteASA>
166.66

>  <PEOE_VSA1>
4.9

>  <PEOE_VSA2>
19.39

>  <PEOE_VSA3>
9.97

>  <PEOE_VSA4>
0

>  <PEOE_VSA5>
0

>  <PEOE_VSA6>
12.84

>  <PEOE_VSA7>
43.71

>  <PEOE_VSA8>
57.96

>  <PEOE_VSA9>
0

>  <PEOE_VSA10>
0

>  <PEOE_VSA11>
0

>  <PEOE_VSA12>
17.76

>  <PEOE_VSA13>
0

>  <SMR_VSA1>
9.59

>  <SMR_VSA2>
0

>  <SMR_VSA3>
19.77

>  <SMR_VSA4>
5.41

>  <SMR_VSA5>
51.37

>  <SMR_VSA6>
44.17

>  <SMR_VSA7>
18.46

>  <SMR_VSA8>
0

>  <SMR_VSA9>
0

>  <SlogP_VSA1>
4.9

>  <SlogP_VSA2>
70.85

>  <SlogP_VSA3>
9.59

>  <SlogP_VSA4>
5.41

>  <SlogP_VSA5>
51.37

>  <SlogP_VSA6>
18.46

>  <SlogP_VSA7>
0

>  <SlogP_VSA8>
0

>  <SlogP_VSA9>
0

>  <SlogP_VSA10>
5.95

>  <SlogP_VSA11>
0

>  <EState_VSA1>
0

>  <EState_VSA2>
17.23

>  <EState_VSA3>
19.39

>  <EState_VSA4>
64.36

>  <EState_VSA5>
17.74

>  <EState_VSA6>
12.39

>  <EState_VSA7>
6.07

>  <EState_VSA8>
19.77

>  <EState_VSA9>
0

>  <EState_VSA10>
9.59

>  <VSA_EState1>
0

>  <VSA_EState2>
39.87

>  <VSA_EState3>
0

>  <VSA_EState4>
0.01

>  <VSA_EState5>
0.94

>  <VSA_EState6>
1.84

>  <VSA_EState7>
11.1

>  <VSA_EState8>
5.49

>  <VSA_EState9>
0

>  <apol>
62.84

>  <bpol>
40.25

>  <nRing>
4

>  <nHRing>
3

>  <naRing>
1

>  <naHRing>
1

>  <nARing 2>
3

>  <nAHRing 2>
2

>  <nFRing>
0

>  <nFHRing>
0

>  <nFaRing>
0

>  <nFaHRing>
0

>  <nFARing 2>
0

>  <nFAHRing 2>
0

>  <nRot>
6

>  <SLogP>
2.09

>  <SMR>
106.77

>  <TopoPSA(NO)>
69.64

>  <TopoPSA>
69.64

>  <JGI1>
0.18

>  <JGI2>
0.07

>  <JGI3>
0.05

>  <JGI4>
0.03

>  <JGI5>
0.02

>  <Diameter>
17

>  <Radius>
9

>  <TMWC10>
135.27

>  <TSRW10>
76.99

>  <MW>
385.25

>  <AMW>
6.53

>  <WPath>
2514

>  <WPol>
42

>  <Zagreb1>
148

>  <Zagreb2>
173

>  <mZagreb2>
6.17

>  <yes>


>  <nAR-cont>
0.691115

>  <nHA-cont>
0.82432561

>  <MWHBN>
0.305689081

>  <MWHBN-cont>
0.823414948

>  <TPSA-cont>
0.513869556

>  <pka_cont>
0.97

>  <yes.1>


>  <BBB_SCORE>
4.263302145

>  <MMFF94 Energy>
-20.417

$$$$
Compound 586
Actelion Java MolfileCreator 2.0

  0  0  0  0  0  0              0 V3000
M  V30 BEGIN CTAB
M  V30 COUNTS 39 42 0 0 0
M  V30 BEGIN ATOM
M  V30 1 N -0.5613 0.4009 -2.8897 0
M  V30 2 C -0.0303 -0.1749 -1.7786 0
M  V30 3 C -0.9076 -0.3606 -3.9487 0
M  V30 4 N 0.2869 0.693 -0.7433 0
M  V30 5 C 0.1715 -1.5628 -1.7548 0
M  V30 6 C -0.7435 -1.7242 -3.993 0
M  V30 7 C 0.5821 0.3215 0.6641 0 CFG=2
M  V30 8 C 0.9717 1.9162 -1.2256 0
M  V30 9 C -0.1926 -2.3313 -2.8783 0
M  V30 10 C 0.7657 -2.2778 -0.5726 0
M  V30 11 C -0.2739 -0.8347 1.2051 0
M  V30 12 C 0.5138 1.5933 1.5841 0
M  V30 13 C 0.8798 3.0889 -0.2321 0
M  V30 14 C -0.1132 -2.118 0.6395 0
M  V30 15 C -1.1847 -0.7011 2.2692 0
M  V30 16 N 1.3508 2.7217 1.1164 0
M  V30 17 C -0.8282 -3.2183 1.1411 0
M  V30 18 C -1.8926 -1.801 2.7638 0
M  V30 19 C 1.2367 3.86 2.0263 0
M  V30 20 C -1.7101 -3.0597 2.2047 0
M  V30 21 H -1.3348 0.1827 -4.7856 0
M  V30 22 H -1.0363 -2.2964 -4.8644 0
M  V30 23 H 1.6298 -0.0087 0.7122 0
M  V30 24 H 2.0282 1.6757 -1.4058 0
M  V30 25 H 0.5628 2.2887 -2.1724 0
M  V30 26 H -0.0515 -3.4091 -2.8789 0
M  V30 27 H 0.8945 -3.3454 -0.7941 0
M  V30 28 H 1.7817 -1.9142 -0.3781 0
M  V30 29 H 0.8434 1.3101 2.5925 0
M  V30 30 H -0.5274 1.9366 1.6594 0
M  V30 31 H 1.4907 3.913 -0.6206 0
M  V30 32 H -0.159 3.4447 -0.1946 0
M  V30 33 H -1.3718 0.2574 2.7438 0
M  V30 34 H -0.7141 -4.2015 0.6907 0
M  V30 35 H -2.591 -1.6694 3.5866 0
M  V30 36 H 0.2062 4.2225 2.1174 0
M  V30 37 H 1.5953 3.5884 3.0253 0
M  V30 38 H 1.8639 4.6895 1.6814 0
M  V30 39 H -2.2656 -3.9121 2.5857 0
M  V30 END ATOM
M  V30 BEGIN BOND
M  V30 1 2 1 2
M  V30 2 1 1 3
M  V30 3 1 2 4
M  V30 4 1 2 5
M  V30 5 2 3 6
M  V30 6 1 4 7
M  V30 7 1 4 8
M  V30 8 2 5 9
M  V30 9 1 5 10
M  V30 10 1 7 11
M  V30 11 1 7 12
M  V30 12 1 8 13
M  V30 13 1 10 14
M  V30 14 1 11 15
M  V30 15 1 12 16
M  V30 16 1 14 17
M  V30 17 2 15 18
M  V30 18 1 16 19
M  V30 19 2 17 20
M  V30 20 1 6 9
M  V30 21 2 11 14
M  V30 22 1 13 16
M  V30 23 1 18 20
M  V30 24 1 3 21
M  V30 25 1 6 22
M  V30 26 1 7 23
M  V30 27 1 8 24
M  V30 28 1 8 25
M  V30 29 1 9 26
M  V30 30 1 10 27
M  V30 31 1 10 28
M  V30 32 1 12 29
M  V30 33 1 12 30
M  V30 34 1 13 31
M  V30 35 1 13 32
M  V30 36 1 15 33
M  V30 37 1 17 34
M  V30 38 1 18 35
M  V30 39 1 19 36
M  V30 40 1 19 37
M  V30 41 1 19 38
M  V30 42 1 20 39
M  V30 END BOND
M  V30 BEGIN COLLECTION
M  V30 MDLV30/STERAC1 ATOMS=(1 7)
M  V30 END COLLECTION
M  V30 END CTAB
M  END
>  <Column 1>
711

>  <level_0>
810

>  <index>
810

>  <Unnamed: 0>
810

>  <NO.>
822

>  <Name>
mirtazapine

>  <IUPAC_name>
5-methyl-2-5-19-triazatetracyclo[13.4.0.02-7.08-13]nonadeca-1(15)-8-10-12-16-18-hexaene

>  <SMILES>
CN1CCN2c3ncccc3Cc3ccccc3C2C1

>  <CID>
4205

>  <logBB>
0.5

>  <BBB+/BBB->
BBB+

>  <Inchi>
InChI=1S/C17H19N3/c1-19-9-10-20-16(12-19)15-7-3-2-5-13(15)11-14-6-4-8-18-17(14)20/h2-8-16H-9-12H2-1H3

>  <threshold>


>  <reference>
R20|R5|R2|R2|R8|R27|R40|R3|R12|R18|R21|R25|R26|R27|R27|R35|R36|R38|R39|R41|R43|R44|R46|R47|R49|R50|R4|

>  <group>
A

>  <Class>
1

>  <ABC>
16.17

>  <ABCGG>
12.43

>  <nAcid>
0

>  <nBase>
1

>  <nAromAtom>
12

>  <nAromBond>
12

>  <nAtom>
39

>  <nHeavyAtom>
20

>  <nSpiro>
0

>  <nBridgehead>
0

>  <nHetero>
3

>  <nN>
3

>  <nO>
0

>  <nF>
0

>  <BalabanJ>
1.64

>  <BertzCT>
637.64

>  <nBonds>
42

>  <nBondsO>
23

>  <nBondsS>
30

>  <nBondsD>
0

>  <nBondsT>
0

>  <nBondsA>
12

>  <nBondsM>
12

>  <nBondsKS>
36

>  <nBondsKD>
6

>  <RNCG>
0.27

>  <RPCG>
0.1

>  <FCSP3>
0.35

>  <SZ>
23.67

>  <Sm>
22.09

>  <Sv>
24.42

>  <Sse>
38.42

>  <Sp>
26.56

>  <Si>
43.82

>  <MZ>
0.61

>  <Mm>
0.57

>  <Mv>
0.63

>  <Mse>
0.99

>  <Mp>
0.68

>  <Mi>
1.12

>  <NsCH3>
1

>  <NdCH2>
0

>  <NssCH2>
4

>  <NtCH>
0

>  <NdsCH>
0

>  <NaaCH>
7

>  <NsssCH>
1

>  <NddC>
0

>  <NtsC>
0

>  <NdssC>
0

>  <NaasC>
4

>  <NaaaC>
0

>  <NssssC>
0

>  <NsNH3>
0

>  <NsNH2>
0

>  <NssNH2>
0

>  <NdNH>
0

>  <NssNH>
0

>  <NaaNH>
0

>  <NtN>
0

>  <NsssNH>
0

>  <NdsN>
0

>  <NaaN>
1

>  <NsssN>
2

>  <NddsN>
0

>  <NaasN>
0

>  <NssssN>
0

>  <NsOH>
0

>  <NdO>
0

>  <NssO>
0

>  <NaaO>
0

>  <NsF>
0

>  <NsSiH3>
0

>  <NssSiH2>
0

>  <NsssSiH>
0

>  <NssssSi>
0

>  <NsPH2>
0

>  <NssPH>
0

>  <NsssP>
0

>  <NdsssP>
0

>  <NsssssP>
0

>  <NsSH>
0

>  <NdS>
0

>  <NssS>
0

>  <NaaS>
0

>  <NdssS>
0

>  <NddssS>
0

>  <NsCl>
0

>  <NsBr>
0

>  <NsI>
0

>  <fragCpx>
149.03

>  <fMF>
0.49

>  <nHBAcc>
3

>  <nHBDon>
0

>  <Kier1>
13.65

>  <Kier2>
5.65

>  <Lipinski>
1

>  <GhoseFilter>
1

>  <FilterItLogS>
-3.69

>  <VMcGowan>
211.09

>  <LabuteASA>
119.41

>  <PEOE_VSA1>
9.8

>  <PEOE_VSA2>
0

>  <PEOE_VSA3>
4.98

>  <PEOE_VSA4>
0

>  <PEOE_VSA5>
0

>  <PEOE_VSA6>
30.33

>  <PEOE_VSA7>
29.8

>  <PEOE_VSA8>
32.25

>  <PEOE_VSA9>
6.04

>  <PEOE_VSA10>
5.82

>  <PEOE_VSA11>
0

>  <PEOE_VSA12>
0

>  <PEOE_VSA13>
0

>  <SMR_VSA1>
0

>  <SMR_VSA2>
0

>  <SMR_VSA3>
9.88

>  <SMR_VSA4>
0

>  <SMR_VSA5>
12.46

>  <SMR_VSA6>
31.58

>  <SMR_VSA7>
59.29

>  <SMR_VSA8>
0

>  <SMR_VSA9>
0

>  <SlogP_VSA1>
4.9

>  <SlogP_VSA2>
36.57

>  <SlogP_VSA3>
6.42

>  <SlogP_VSA4>
0

>  <SlogP_VSA5>
22.73

>  <SlogP_VSA6>
42.6

>  <SlogP_VSA7>
0

>  <SlogP_VSA8>
0

>  <SlogP_VSA9>
0

>  <SlogP_VSA10>
5.82

>  <SlogP_VSA11>
0

>  <EState_VSA1>
0

>  <EState_VSA2>
0

>  <EState_VSA3>
6.04

>  <EState_VSA4>
26.06

>  <EState_VSA5>
22.51

>  <EState_VSA6>
0

>  <EState_VSA7>
6.2

>  <EState_VSA8>
58.23

>  <EState_VSA9>
0

>  <EState_VSA10>
0

>  <VSA_EState1>
0

>  <VSA_EState2>
9.6

>  <VSA_EState3>
0

>  <VSA_EState4>
4.27

>  <VSA_EState5>
1.18

>  <VSA_EState6>
13.58

>  <VSA_EState7>
2.92

>  <VSA_EState8>
3.24

>  <VSA_EState9>
2.21

>  <apol>
44.36

>  <bpol>
23.62

>  <nRing>
4

>  <nHRing>
3

>  <naRing>
2

>  <naHRing>
1

>  <nARing 2>
2

>  <nAHRing 2>
2

>  <nFRing>
1

>  <nFHRing>
1

>  <nFaRing>
0

>  <nFaHRing>
0

>  <nFARing 2>
1

>  <nFAHRing 2>
1

>  <nRot>
0

>  <SLogP>
2.48

>  <SMR>
81.07

>  <TopoPSA(NO)>
19.37

>  <TopoPSA>
19.37

>  <JGI1>
0.13

>  <JGI2>
0.07

>  <JGI3>
0.04

>  <JGI4>
0.04

>  <JGI5>
0.02

>  <Diameter>
8

>  <Radius>
5

>  <TMWC10>
118.07

>  <TSRW10>
62.42

>  <MW>
265.16

>  <AMW>
6.8

>  <WPath>
687

>  <WPol>
38

>  <Zagreb1>
112

>  <Zagreb2>
136

>  <mZagreb2>
4.31

>  <yes>


>  <nAR-cont>
1

>  <nHA-cont>
0.999629945

>  <MWHBN>
0.184232926

>  <MWHBN-cont>
0.991315563

>  <TPSA-cont>
0.864785372

>  <pka_cont>
0.97

>  <yes.1>


>  <BBB_SCORE>
5.701174034

>  <MMFF94 Energy>
114.49

$$$$
Compound 587
Actelion Java MolfileCreator 2.0

  0  0  0  0  0  0              0 V3000
M  V30 BEGIN CTAB
M  V30 COUNTS 44 45 0 0 0
M  V30 BEGIN ATOM
M  V30 1 O -2.5071 3.9195 1.488 0
M  V30 2 C -1.6418 3.2183 0.6938 0
M  V30 3 C -3.7638 4.2638 0.9194 0
M  V30 4 C -1.8807 2.8063 -0.6169 0
M  V30 5 C -0.4202 2.9068 1.2933 0
M  V30 6 C -0.9048 2.0892 -1.3192 0
M  V30 7 C 0.5546 2.191 0.5948 0
M  V30 8 C 0.3233 1.7728 -0.7211 0
M  V30 9 C 1.3746 0.9855 -1.475 0
M  V30 10 N 1.4816 -0.3925 -0.9895 0
M  V30 11 C 2.5525 -0.7342 -0.1828 0
M  V30 12 C 0.4186 -1.3327 -1.3618 0
M  V30 13 N 3.4187 0.2389 0.1828 0
M  V30 14 C 2.7762 -2.041 0.2571 0
M  V30 15 C -0.5822 -1.5772 -0.2071 0
M  V30 16 C 4.475 -0.0672 0.97 0
M  V30 17 C 3.8712 -2.3443 1.0705 0
M  V30 18 N -1.681 -2.5051 -0.562 0
M  V30 19 C 4.7423 -1.3354 1.4383 0
M  V30 20 C -2.7442 -2.4153 0.4441 0
M  V30 21 C -1.2098 -3.8882 -0.6557 0
M  V30 22 H -3.6385 4.9177 0.0501 0
M  V30 23 H -4.3311 4.8182 1.6732 0
M  V30 24 H -4.3394 3.3685 0.6622 0
M  V30 25 H -2.8153 3.0221 -1.1231 0
M  V30 26 H -0.2245 3.221 2.3153 0
M  V30 27 H -1.1156 1.7706 -2.3377 0
M  V30 28 H 1.4972 1.9521 1.0834 0
M  V30 29 H 2.3225 1.5378 -1.4517 0
M  V30 30 H 1.1123 0.9622 -2.5414 0
M  V30 31 H 0.8613 -2.2677 -1.721 0
M  V30 32 H -0.1393 -0.9383 -2.2214 0
M  V30 33 H 2.1147 -2.8522 -0.0206 0
M  V30 34 H -0.0636 -1.9285 0.6934 0
M  V30 35 H -1.0188 -0.6073 0.0582 0
M  V30 36 H 5.1199 0.7702 1.2185 0
M  V30 37 H 4.0348 -3.3636 1.4071 0
M  V30 38 H 5.6028 -1.53 2.0668 0
M  V30 39 H -3.1515 -1.3988 0.4854 0
M  V30 40 H -2.3907 -2.6881 1.4451 0
M  V30 41 H -3.5799 -3.0735 0.181 0
M  V30 42 H -0.7506 -4.2336 0.2776 0
M  V30 43 H -0.4821 -4.0061 -1.464 0
M  V30 44 H -2.0412 -4.5607 -0.8968 0
M  V30 END ATOM
M  V30 BEGIN BOND
M  V30 1 1 1 2
M  V30 2 1 1 3
M  V30 3 2 2 4
M  V30 4 1 2 5
M  V30 5 1 4 6
M  V30 6 2 5 7
M  V30 7 2 6 8
M  V30 8 1 8 9
M  V30 9 1 9 10
M  V30 10 1 10 11
M  V30 11 1 10 12
M  V30 12 2 11 13
M  V30 13 1 11 14
M  V30 14 1 12 15
M  V30 15 1 13 16
M  V30 16 2 14 17
M  V30 17 1 15 18
M  V30 18 2 16 19
M  V30 19 1 18 20
M  V30 20 1 18 21
M  V30 21 1 7 8
M  V30 22 1 17 19
M  V30 23 1 3 22
M  V30 24 1 3 23
M  V30 25 1 3 24
M  V30 26 1 4 25
M  V30 27 1 5 26
M  V30 28 1 6 27
M  V30 29 1 7 28
M  V30 30 1 9 29
M  V30 31 1 9 30
M  V30 32 1 12 31
M  V30 33 1 12 32
M  V30 34 1 14 33
M  V30 35 1 15 34
M  V30 36 1 15 35
M  V30 37 1 16 36
M  V30 38 1 17 37
M  V30 39 1 19 38
M  V30 40 1 20 39
M  V30 41 1 20 40
M  V30 42 1 20 41
M  V30 43 1 21 42
M  V30 44 1 21 43
M  V30 45 1 21 44
M  V30 END BOND
M  V30 END CTAB
M  END
>  <Column 1>
712

>  <level_0>
811

>  <index>
811

>  <Unnamed: 0>
811

>  <NO.>
823

>  <Name>
mepyramine (pyrilamine)

>  <IUPAC_name>
n'-[(4-methoxyphenyl)methyl]-n-n-dimethyl-n'-pyridin-2-ylethane-1-2-diamine

>  <SMILES>
COc1ccc(CN(CCN(C)C)c2ccccn2)cc1

>  <CID>
4992

>  <logBB>
0.5

>  <BBB+/BBB->
BBB+

>  <Inchi>
InChI=1S/C17H23N3O/c1-19(2)12-13-20(17-6-4-5-11-18-17)14-15-7-9-16(21-3)10-8-15/h4-11H-12-14H2-1-3H3

>  <threshold>


>  <reference>
R11|R12|R18|R21|R25|R26|R27|R27|R35|R36|R39|R42|R43|R46|R48|R49|R49|R2|R2|R8|R27|R40|R3|R5|R5|R38|R41|R44|R47|R48|R49|R4|

>  <group>
A

>  <Class>
1

>  <ABC>
15.73

>  <ABCGG>
13.03

>  <nAcid>
0

>  <nBase>
1

>  <nAromAtom>
12

>  <nAromBond>
12

>  <nAtom>
44

>  <nHeavyAtom>
21

>  <nSpiro>
0

>  <nBridgehead>
0

>  <nHetero>
4

>  <nN>
3

>  <nO>
1

>  <nF>
0

>  <BalabanJ>
1.82

>  <BertzCT>
525.49

>  <nBonds>
45

>  <nBondsO>
22

>  <nBondsS>
33

>  <nBondsD>
0

>  <nBondsT>
0

>  <nBondsA>
12

>  <nBondsM>
12

>  <nBondsKS>
39

>  <nBondsKD>
6

>  <RNCG>
0.29

>  <RPCG>
0.07

>  <FCSP3>
0.35

>  <SZ>
25.67

>  <Sm>
23.76

>  <Sv>
26.22

>  <Sse>
43.53

>  <Sp>
28.64

>  <Si>
49.86

>  <MZ>
0.58

>  <Mm>
0.54

>  <Mv>
0.6

>  <Mse>
0.99

>  <Mp>
0.65

>  <Mi>
1.13

>  <NsCH3>
3

>  <NdCH2>
0

>  <NssCH2>
3

>  <NtCH>
0

>  <NdsCH>
0

>  <NaaCH>
8

>  <NsssCH>
0

>  <NddC>
0

>  <NtsC>
0

>  <NdssC>
0

>  <NaasC>
3

>  <NaaaC>
0

>  <NssssC>
0

>  <NsNH3>
0

>  <NsNH2>
0

>  <NssNH2>
0

>  <NdNH>
0

>  <NssNH>
0

>  <NaaNH>
0

>  <NtN>
0

>  <NsssNH>
0

>  <NdsN>
0

>  <NaaN>
1

>  <NsssN>
2

>  <NddsN>
0

>  <NaasN>
0

>  <NssssN>
0

>  <NsOH>
0

>  <NdO>
0

>  <NssO>
1

>  <NaaO>
0

>  <NsF>
0

>  <NsSiH3>
0

>  <NssSiH2>
0

>  <NsssSiH>
0

>  <NssssSi>
0

>  <NsPH2>
0

>  <NssPH>
0

>  <NsssP>
0

>  <NdsssP>
0

>  <NsssssP>
0

>  <NsSH>
0

>  <NdS>
0

>  <NssS>
0

>  <NaaS>
0

>  <NdssS>
0

>  <NddssS>
0

>  <NsCl>
0

>  <NsBr>
0

>  <NsI>
0

>  <fragCpx>
64.04

>  <fMF>
0.32

>  <nHBAcc>
4

>  <nHBDon>
0

>  <Kier1>
17.36

>  <Kier2>
9.21

>  <Lipinski>
1

>  <GhoseFilter>
1

>  <FilterItLogS>
-4.12

>  <VMcGowan>
238.68

>  <LabuteASA>
126.53

>  <PEOE_VSA1>
14.54

>  <PEOE_VSA2>
0

>  <PEOE_VSA3>
4.98

>  <PEOE_VSA4>
0

>  <PEOE_VSA5>
0

>  <PEOE_VSA6>
18.2

>  <PEOE_VSA7>
43.92

>  <PEOE_VSA8>
25.83

>  <PEOE_VSA9>
7.11

>  <PEOE_VSA10>
11.57

>  <PEOE_VSA11>
0

>  <PEOE_VSA12>
0

>  <PEOE_VSA13>
0

>  <SMR_VSA1>
4.74

>  <SMR_VSA2>
0

>  <SMR_VSA3>
9.88

>  <SMR_VSA4>
0

>  <SMR_VSA5>
6.54

>  <SMR_VSA6>
39.19

>  <SMR_VSA7>
54.22

>  <SMR_VSA8>
0

>  <SMR_VSA9>
5.75

>  <SlogP_VSA1>
9.64

>  <SlogP_VSA2>
44.18

>  <SlogP_VSA3>
6.54

>  <SlogP_VSA4>
0

>  <SlogP_VSA5>
5.56

>  <SlogP_VSA6>
48.66

>  <SlogP_VSA7>
0

>  <SlogP_VSA8>
0

>  <SlogP_VSA9>
0

>  <SlogP_VSA10>
5.82

>  <SlogP_VSA11>
5.75

>  <EState_VSA1>
0

>  <EState_VSA2>
0

>  <EState_VSA3>
0

>  <EState_VSA4>
31.2

>  <EState_VSA5>
5.56

>  <EState_VSA6>
7.11

>  <EState_VSA7>
30.46

>  <EState_VSA8>
47.08

>  <EState_VSA9>
4.74

>  <EState_VSA10>
0

>  <VSA_EState1>
5.21

>  <VSA_EState2>
8.95

>  <VSA_EState3>
0

>  <VSA_EState4>
1.25

>  <VSA_EState5>
1.9

>  <VSA_EState6>
14.23

>  <VSA_EState7>
1.84

>  <VSA_EState8>
2.78

>  <VSA_EState9>
5.86

>  <apol>
47.83

>  <bpol>
29.37

>  <nRing>
2

>  <nHRing>
1

>  <naRing>
2

>  <naHRing>
1

>  <nARing 2>
0

>  <nAHRing 2>
0

>  <nFRing>
0

>  <nFHRing>
0

>  <nFaRing>
0

>  <nFaHRing>
0

>  <nFARing 2>
0

>  <nFAHRing 2>
0

>  <nRot>
7

>  <SLogP>
2.66

>  <SMR>
86.84

>  <TopoPSA(NO)>
28.6

>  <TopoPSA>
28.6

>  <JGI1>
0.18

>  <JGI2>
0.06

>  <JGI3>
0.03

>  <JGI4>
0.03

>  <JGI5>
0.02

>  <Diameter>
11

>  <Radius>
6

>  <TMWC10>
114.01

>  <TSRW10>
53.96

>  <MW>
285.18

>  <AMW>
6.48

>  <WPath>
1004

>  <WPol>
27

>  <Zagreb1>
100

>  <Zagreb2>
111

>  <mZagreb2>
4.86

>  <yes>


>  <nAR-cont>
0.336376

>  <nHA-cont>
0.994529749

>  <MWHBN>
0.236864764

>  <MWHBN-cont>
0.979044323

>  <TPSA-cont>
0.80035424

>  <pka_cont>
0.97

>  <yes.1>


>  <BBB_SCORE>
4.885180715

>  <MMFF94 Energy>
39.888

$$$$
Compound 588
Actelion Java MolfileCreator 2.0

  0  0  0  0  0  0              0 V3000
M  V30 BEGIN CTAB
M  V30 COUNTS 30 32 0 0 0
M  V30 BEGIN ATOM
M  V30 1 Cl -2.0375 1.9559 -0.5701 0
M  V30 2 C -1.4861 0.4795 -1.2839 0
M  V30 3 C -0.2267 -0.0849 -1.0115 0
M  V30 4 C -2.3418 -0.12 -2.215 0
M  V30 5 C 0.6452 0.4472 0.0806 0
M  V30 6 C 0.1946 -1.2014 -1.7577 0
M  V30 7 C -1.9493 -1.2725 -2.89 0
M  V30 8 N 1.8979 0.7325 -0.062 0
M  V30 9 C 0.0649 0.6148 1.4526 0
M  V30 10 N 1.4817 -1.7546 -1.6747 0
M  V30 11 C -0.6821 -1.8063 -2.6677 0
M  V30 12 C 2.5485 0.4569 -1.3421 0
M  V30 13 C -0.8974 -0.2744 1.9488 0
M  V30 14 C 0.5283 1.6576 2.2642 0
M  V30 15 C 2.6529 -1.0513 -1.5294 0
M  V30 16 C -1.4118 -0.0988 3.2355 0
M  V30 17 C 0.011 1.8291 3.5491 0
M  V30 18 O 3.7289 -1.645 -1.6034 0
M  V30 19 C -0.9608 0.9537 4.032 0
M  V30 20 H -3.318 0.3137 -2.4235 0
M  V30 21 H -2.6185 -1.7365 -3.6114 0
M  V30 22 H 1.6191 -2.7381 -1.8716 0
M  V30 23 H -0.3732 -2.6805 -3.2378 0
M  V30 24 H 3.5628 0.8688 -1.3153 0
M  V30 25 H 2.033 0.9241 -2.1884 0
M  V30 26 H -1.246 -1.1152 1.3569 0
M  V30 27 H 1.2908 2.3401 1.8959 0
M  V30 28 H -2.1597 -0.7871 3.6209 0
M  V30 29 H 0.3705 2.6433 4.173 0
M  V30 30 H -1.3606 1.0873 5.0342 0
M  V30 END ATOM
M  V30 BEGIN BOND
M  V30 1 1 1 2
M  V30 2 2 2 3
M  V30 3 1 2 4
M  V30 4 1 3 5
M  V30 5 1 3 6
M  V30 6 2 4 7
M  V30 7 2 5 8
M  V30 8 1 5 9
M  V30 9 1 6 10
M  V30 10 2 6 11
M  V30 11 1 8 12
M  V30 12 2 9 13
M  V30 13 1 9 14
M  V30 14 1 10 15
M  V30 15 1 13 16
M  V30 16 2 14 17
M  V30 17 2 15 18
M  V30 18 2 16 19
M  V30 19 1 7 11
M  V30 20 1 12 15
M  V30 21 1 17 19
M  V30 22 1 4 20
M  V30 23 1 7 21
M  V30 24 1 10 22
M  V30 25 1 11 23
M  V30 26 1 12 24
M  V30 27 1 12 25
M  V30 28 1 13 26
M  V30 29 1 14 27
M  V30 30 1 16 28
M  V30 31 1 17 29
M  V30 32 1 19 30
M  V30 END BOND
M  V30 END CTAB
M  END
>  <Column 1>
713

>  <level_0>
812

>  <index>
812

>  <Unnamed: 0>
812

>  <NO.>
824

>  <Name>
chembl351067

>  <IUPAC_name>
6-chloro-5-phenyl-1-3-dihydro-1-4-benzodiazepin-2-one

>  <SMILES>
O=C1CN=C(c2ccccc2)c2c(Cl)cccc2N1

>  <CID>
14590445

>  <logBB>
0.5

>  <BBB+/BBB->
BBB+

>  <Inchi>
InChI=1S/C15H11ClN2O/c16-11-7-4-8-12-14(11)15(17-9-13(19)18-12)10-5-2-1-3-6-10/h1-8H-9H2-(H-18-19)

>  <threshold>


>  <reference>
R2|R2|R3|R8|R27|R38|R41|R47|

>  <group>
A

>  <Class>
1

>  <ABC>
14.91

>  <ABCGG>
12.29

>  <nAcid>
0

>  <nBase>
0

>  <nAromAtom>
12

>  <nAromBond>
12

>  <nAtom>
30

>  <nHeavyAtom>
19

>  <nSpiro>
0

>  <nBridgehead>
0

>  <nHetero>
4

>  <nN>
2

>  <nO>
1

>  <nF>
0

>  <BalabanJ>
1.78

>  <BertzCT>
665.1

>  <nBonds>
32

>  <nBondsO>
21

>  <nBondsS>
18

>  <nBondsD>
2

>  <nBondsT>
0

>  <nBondsA>
12

>  <nBondsM>
14

>  <nBondsKS>
24

>  <nBondsKD>
8

>  <RNCG>
0.23

>  <RPCG>
0.18

>  <FCSP3>
0.07

>  <SZ>
23.33

>  <Sm>
22.54

>  <Sv>
21.3

>  <Sse>
30.31

>  <Sp>
22.5

>  <Si>
33.23

>  <MZ>
0.78

>  <Mm>
0.75

>  <Mv>
0.71

>  <Mse>
1.01

>  <Mp>
0.75

>  <Mi>
1.11

>  <NsCH3>
0

>  <NdCH2>
0

>  <NssCH2>
1

>  <NtCH>
0

>  <NdsCH>
0

>  <NaaCH>
8

>  <NsssCH>
0

>  <NddC>
0

>  <NtsC>
0

>  <NdssC>
2

>  <NaasC>
4

>  <NaaaC>
0

>  <NssssC>
0

>  <NsNH3>
0

>  <NsNH2>
0

>  <NssNH2>
0

>  <NdNH>
0

>  <NssNH>
1

>  <NaaNH>
0

>  <NtN>
0

>  <NsssNH>
0

>  <NdsN>
1

>  <NaaN>
0

>  <NsssN>
0

>  <NddsN>
0

>  <NaasN>
0

>  <NssssN>
0

>  <NsOH>
0

>  <NdO>
1

>  <NssO>
0

>  <NaaO>
0

>  <NsF>
0

>  <NsSiH3>
0

>  <NssSiH2>
0

>  <NsssSiH>
0

>  <NssssSi>
0

>  <NsPH2>
0

>  <NssPH>
0

>  <NsssP>
0

>  <NdsssP>
0

>  <NsssssP>
0

>  <NsSH>
0

>  <NdS>
0

>  <NssS>
0

>  <NaaS>
0

>  <NdssS>
0

>  <NddssS>
0

>  <NsCl>
1

>  <NsBr>
0

>  <NsI>
0

>  <fragCpx>
99.04

>  <fMF>
0.57

>  <nHBAcc>
2

>  <nHBDon>
1

>  <Kier1>
13.96

>  <Kier2>
6.19

>  <Lipinski>
1

>  <GhoseFilter>
1

>  <FilterItLogS>
-5.12

>  <VMcGowan>
193.3

>  <LabuteASA>
115.49

>  <PEOE_VSA1>
5.32

>  <PEOE_VSA2>
9.79

>  <PEOE_VSA3>
0

>  <PEOE_VSA4>
0

>  <PEOE_VSA5>
0

>  <PEOE_VSA6>
48

>  <PEOE_VSA7>
12.13

>  <PEOE_VSA8>
11.13

>  <PEOE_VSA9>
16.42

>  <PEOE_VSA10>
6.54

>  <PEOE_VSA11>
0

>  <PEOE_VSA12>
5.91

>  <PEOE_VSA13>
0

>  <SMR_VSA1>
4.79

>  <SMR_VSA2>
0

>  <SMR_VSA3>
0

>  <SMR_VSA4>
4.99

>  <SMR_VSA5>
0

>  <SMR_VSA6>
11.86

>  <SMR_VSA7>
64.68

>  <SMR_VSA8>
0

>  <SMR_VSA9>
0

>  <SlogP_VSA1>
5.32

>  <SlogP_VSA2>
18.16

>  <SlogP_VSA3>
4.79

>  <SlogP_VSA4>
0

>  <SlogP_VSA5>
11.13

>  <SlogP_VSA6>
53.52

>  <SlogP_VSA7>
5.02

>  <SlogP_VSA8>
0

>  <SlogP_VSA9>
0

>  <SlogP_VSA10>
5.69

>  <SlogP_VSA11>
0

>  <EState_VSA1>
0

>  <EState_VSA2>
12.45

>  <EState_VSA3>
10.71

>  <EState_VSA4>
16.84

>  <EState_VSA5>
0

>  <EState_VSA6>
6.07

>  <EState_VSA7>
42.46

>  <EState_VSA8>
10.31

>  <EState_VSA9>
11.6

>  <EState_VSA10>
4.79

>  <VSA_EState1>
0

>  <VSA_EState2>
16.07

>  <VSA_EState3>
3.41

>  <VSA_EState4>
3.19

>  <VSA_EState5>
-0.13

>  <VSA_EState6>
15.19

>  <VSA_EState7>
0

>  <VSA_EState8>
0.11

>  <VSA_EState9>
0

>  <apol>
37.57

>  <bpol>
14.12

>  <nRing>
3

>  <nHRing>
1

>  <naRing>
2

>  <naHRing>
0

>  <nARing 2>
1

>  <nAHRing 2>
1

>  <nFRing>
1

>  <nFHRing>
1

>  <nFaRing>
0

>  <nFaHRing>
0

>  <nFARing 2>
1

>  <nFAHRing 2>
1

>  <nRot>
1

>  <SLogP>
3.13

>  <SMR>
77.03

>  <TopoPSA(NO)>
41.46

>  <TopoPSA>
41.46

>  <JGI1>
0.14

>  <JGI2>
0.07

>  <JGI3>
0.05

>  <JGI4>
0.04

>  <JGI5>
0.02

>  <Diameter>
8

>  <Radius>
4

>  <TMWC10>
113.14

>  <TSRW10>
60.45

>  <MW>
270.06

>  <AMW>
9

>  <WPath>
631

>  <WPol>
33

>  <Zagreb1>
100

>  <Zagreb2>
118

>  <mZagreb2>
4.19

>  <yes>


>  <nAR-cont>
0.816016

>  <nHA-cont>
0.998649058

>  <MWHBN>
0.182553903

>  <MWHBN-cont>
0.989768914

>  <TPSA-cont>
0.710583455

>  <pka_cont>
0.97

>  <yes.1>


>  <BBB_SCORE>
5.205485338

>  <MMFF94 Energy>
104.95

$$$$
Compound 589
Actelion Java MolfileCreator 2.0

  0  0  0  0  0  0              0 V3000
M  V30 BEGIN CTAB
M  V30 COUNTS 30 32 0 0 0
M  V30 BEGIN ATOM
M  V30 1 Cl 2.2806 -0.4883 -3.912 0
M  V30 2 C 1.802 -1.0272 -2.3506 0
M  V30 3 C 1.18 -0.1415 -1.4736 0
M  V30 4 C 2.0299 -2.348 -1.9761 0
M  V30 5 C 0.7761 -0.5792 -0.2014 0
M  V30 6 C 1.652 -2.7828 -0.7039 0
M  V30 7 C 0.0333 0.3762 0.6753 0
M  V30 8 C 1.0476 -1.898 0.1984 0
M  V30 9 N 0.2537 0.5362 1.9375 0
M  V30 10 C -1.0475 1.2147 0.0639 0
M  V30 11 N 0.7408 -2.4065 1.4671 0
M  V30 12 C 1.2735 -0.274 2.6012 0
M  V30 13 C -1.9049 0.695 -0.9143 0
M  V30 14 C -1.2176 2.5318 0.5071 0
M  V30 15 C 0.8256 -1.726 2.6553 0
M  V30 16 C -2.9037 1.5008 -1.4652 0
M  V30 17 C -2.2174 3.3332 -0.0461 0
M  V30 18 O 0.5976 -2.3184 3.7105 0
M  V30 19 C -3.0561 2.8189 -1.0344 0
M  V30 20 H 1.0086 0.8865 -1.7852 0
M  V30 21 H 2.5107 -3.0407 -2.6626 0
M  V30 22 H 1.8584 -3.8121 -0.4177 0
M  V30 23 H 0.5274 -3.3904 1.5743 0
M  V30 24 H 1.3888 0.0848 3.6297 0
M  V30 25 H 2.2542 -0.1859 2.1204 0
M  V30 26 H -1.8213 -0.3367 -1.2439 0
M  V30 27 H -0.5734 2.9355 1.2852 0
M  V30 28 H -3.5707 1.0984 -2.2237 0
M  V30 29 H -2.3454 4.3559 0.2997 0
M  V30 30 H -3.8378 3.4432 -1.4608 0
M  V30 END ATOM
M  V30 BEGIN BOND
M  V30 1 1 1 2
M  V30 2 2 2 3
M  V30 3 1 2 4
M  V30 4 1 3 5
M  V30 5 2 4 6
M  V30 6 1 5 7
M  V30 7 2 5 8
M  V30 8 2 7 9
M  V30 9 1 7 10
M  V30 10 1 8 11
M  V30 11 1 9 12
M  V30 12 2 10 13
M  V30 13 1 10 14
M  V30 14 1 11 15
M  V30 15 1 13 16
M  V30 16 2 14 17
M  V30 17 2 15 18
M  V30 18 2 16 19
M  V30 19 1 6 8
M  V30 20 1 12 15
M  V30 21 1 17 19
M  V30 22 1 3 20
M  V30 23 1 4 21
M  V30 24 1 6 22
M  V30 25 1 11 23
M  V30 26 1 12 24
M  V30 27 1 12 25
M  V30 28 1 13 26
M  V30 29 1 14 27
M  V30 30 1 16 28
M  V30 31 1 17 29
M  V30 32 1 19 30
M  V30 END BOND
M  V30 END CTAB
M  END
>  <Column 1>
714

>  <level_0>
813

>  <index>
813

>  <Unnamed: 0>
813

>  <NO.>
825

>  <Name>
1088-11-5

>  <IUPAC_name>
7-chloro-5-phenyl-1-3-dihydro-1-4-benzodiazepin-2-one

>  <SMILES>
O=C1CN=C(c2ccccc2)c2cc(Cl)ccc2N1

>  <CID>
2997

>  <logBB>
0.5

>  <BBB+/BBB->
BBB+

>  <Inchi>
InChI=1S/C15H11ClN2O/c16-11-6-7-13-12(8-11)15(17-9-14(19)18-13)10-4-2-1-3-5-10/h1-8H-9H2-(H-18-19)

>  <threshold>


>  <reference>
R3|R5|R11|R12|R18|R25|R26|R27|R31|R35|R36|R38|R39|R41|R43|R47|R2|R2|R8|R27|R21|R27|R40|R4|

>  <group>
A

>  <Class>
1

>  <ABC>
14.95

>  <ABCGG>
12.17

>  <nAcid>
0

>  <nBase>
0

>  <nAromAtom>
12

>  <nAromBond>
12

>  <nAtom>
30

>  <nHeavyAtom>
19

>  <nSpiro>
0

>  <nBridgehead>
0

>  <nHetero>
4

>  <nN>
2

>  <nO>
1

>  <nF>
0

>  <BalabanJ>
1.75

>  <BertzCT>
665.1

>  <nBonds>
32

>  <nBondsO>
21

>  <nBondsS>
18

>  <nBondsD>
2

>  <nBondsT>
0

>  <nBondsA>
12

>  <nBondsM>
14

>  <nBondsKS>
24

>  <nBondsKD>
8

>  <RNCG>
0.24

>  <RPCG>
0.18

>  <FCSP3>
0.07

>  <SZ>
23.33

>  <Sm>
22.54

>  <Sv>
21.3

>  <Sse>
30.31

>  <Sp>
22.5

>  <Si>
33.23

>  <MZ>
0.78

>  <Mm>
0.75

>  <Mv>
0.71

>  <Mse>
1.01

>  <Mp>
0.75

>  <Mi>
1.11

>  <NsCH3>
0

>  <NdCH2>
0

>  <NssCH2>
1

>  <NtCH>
0

>  <NdsCH>
0

>  <NaaCH>
8

>  <NsssCH>
0

>  <NddC>
0

>  <NtsC>
0

>  <NdssC>
2

>  <NaasC>
4

>  <NaaaC>
0

>  <NssssC>
0

>  <NsNH3>
0

>  <NsNH2>
0

>  <NssNH2>
0

>  <NdNH>
0

>  <NssNH>
1

>  <NaaNH>
0

>  <NtN>
0

>  <NsssNH>
0

>  <NdsN>
1

>  <NaaN>
0

>  <NsssN>
0

>  <NddsN>
0

>  <NaasN>
0

>  <NssssN>
0

>  <NsOH>
0

>  <NdO>
1

>  <NssO>
0

>  <NaaO>
0

>  <NsF>
0

>  <NsSiH3>
0

>  <NssSiH2>
0

>  <NsssSiH>
0

>  <NssssSi>
0

>  <NsPH2>
0

>  <NssPH>
0

>  <NsssP>
0

>  <NdsssP>
0

>  <NsssssP>
0

>  <NsSH>
0

>  <NdS>
0

>  <NssS>
0

>  <NaaS>
0

>  <NdssS>
0

>  <NddssS>
0

>  <NsCl>
1

>  <NsBr>
0

>  <NsI>
0

>  <fragCpx>
99.04

>  <fMF>
0.57

>  <nHBAcc>
2

>  <nHBDon>
1

>  <Kier1>
13.96

>  <Kier2>
6.19

>  <Lipinski>
1

>  <GhoseFilter>
1

>  <FilterItLogS>
-5.12

>  <VMcGowan>
193.3

>  <LabuteASA>
115.49

>  <PEOE_VSA1>
5.32

>  <PEOE_VSA2>
9.79

>  <PEOE_VSA3>
0

>  <PEOE_VSA4>
0

>  <PEOE_VSA5>
0

>  <PEOE_VSA6>
41.93

>  <PEOE_VSA7>
18.2

>  <PEOE_VSA8>
16.15

>  <PEOE_VSA9>
11.4

>  <PEOE_VSA10>
6.54

>  <PEOE_VSA11>
0

>  <PEOE_VSA12>
5.91

>  <PEOE_VSA13>
0

>  <SMR_VSA1>
4.79

>  <SMR_VSA2>
0

>  <SMR_VSA3>
0

>  <SMR_VSA4>
4.99

>  <SMR_VSA5>
0

>  <SMR_VSA6>
11.86

>  <SMR_VSA7>
64.68

>  <SMR_VSA8>
0

>  <SMR_VSA9>
0

>  <SlogP_VSA1>
5.32

>  <SlogP_VSA2>
18.16

>  <SlogP_VSA3>
4.79

>  <SlogP_VSA4>
0

>  <SlogP_VSA5>
11.13

>  <SlogP_VSA6>
53.52

>  <SlogP_VSA7>
5.02

>  <SlogP_VSA8>
0

>  <SlogP_VSA9>
0

>  <SlogP_VSA10>
5.69

>  <SlogP_VSA11>
0

>  <EState_VSA1>
0

>  <EState_VSA2>
12.45

>  <EState_VSA3>
5.02

>  <EState_VSA4>
22.53

>  <EState_VSA5>
0

>  <EState_VSA6>
12.13

>  <EState_VSA7>
36.4

>  <EState_VSA8>
10.31

>  <EState_VSA9>
11.6

>  <EState_VSA10>
4.79

>  <VSA_EState1>
0

>  <VSA_EState2>
16.06

>  <VSA_EState3>
3.46

>  <VSA_EState4>
3.36

>  <VSA_EState5>
-0.12

>  <VSA_EState6>
15.17

>  <VSA_EState7>
0

>  <VSA_EState8>
0.12

>  <VSA_EState9>
0

>  <apol>
37.57

>  <bpol>
14.12

>  <nRing>
3

>  <nHRing>
1

>  <naRing>
2

>  <naHRing>
0

>  <nARing 2>
1

>  <nAHRing 2>
1

>  <nFRing>
1

>  <nFHRing>
1

>  <nFaRing>
0

>  <nFaHRing>
0

>  <nFARing 2>
1

>  <nFAHRing 2>
1

>  <nRot>
1

>  <SLogP>
3.13

>  <SMR>
77.03

>  <TopoPSA(NO)>
41.46

>  <TopoPSA>
41.46

>  <JGI1>
0.17

>  <JGI2>
0.07

>  <JGI3>
0.04

>  <JGI4>
0.04

>  <JGI5>
0.02

>  <Diameter>
8

>  <Radius>
4

>  <TMWC10>
112.9

>  <TSRW10>
60.38

>  <MW>
270.06

>  <AMW>
9

>  <WPath>
643

>  <WPol>
32

>  <Zagreb1>
100

>  <Zagreb2>
117

>  <mZagreb2>
4.17

>  <yes>


>  <nAR-cont>
0.816016

>  <nHA-cont>
0.998649058

>  <MWHBN>
0.182553903

>  <MWHBN-cont>
0.989768914

>  <TPSA-cont>
0.710583455

>  <pka_cont>
0.97

>  <yes.1>


>  <BBB_SCORE>
5.205485338

>  <MMFF94 Energy>
95.397

$$$$
Compound 590
Actelion Java MolfileCreator 2.0

  0  0  0  0  0  0              0 V3000
M  V30 BEGIN CTAB
M  V30 COUNTS 48 50 0 0 0
M  V30 BEGIN ATOM
M  V30 1 O -1.1879 4.0433 -3.4082 0
M  V30 2 C -1.1235 2.9887 -2.545 0
M  V30 3 C -0.4339 3.0807 -1.3372 0
M  V30 4 C -1.765 1.8172 -2.9115 0
M  V30 5 C -0.383 1.9843 -0.4552 0
M  V30 6 C -1.7127 0.716 -2.0622 0
M  V30 7 C -1.019 0.7832 -0.8411 0
M  V30 8 C 0.4007 2.0495 0.8666 0 CFG=1
M  V30 9 C -1.0107 -0.4491 0.0381 0
M  V30 10 C -0.1634 1.0282 1.9034 0
M  V30 11 C 1.8732 1.6521 0.5669 0
M  V30 12 C 0.4017 3.4638 1.4898 0
M  V30 13 C -0.0894 -0.3837 1.2788 0
M  V30 14 C -1.57 1.3617 2.4272 0
M  V30 15 C 2.033 0.1857 0.1453 0
M  V30 16 N 1.3393 -0.6962 1.0764 0
M  V30 17 C 1.6799 -2.1116 0.9616 0
M  V30 18 C 1.37 -2.7776 -0.3492 0
M  V30 19 C 0.5454 -3.8181 -0.5873 0
M  V30 20 C 0.3956 -4.3702 -1.9814 0
M  V30 21 C -0.299 -4.5135 0.444 0
M  V30 22 H -0.7095 4.792 -3.0168 0
M  V30 23 H 0.0727 4.0069 -1.089 0
M  V30 24 H -2.2994 1.759 -3.8548 0
M  V30 25 H -2.214 -0.2034 -2.3566 0
M  V30 26 H -0.7794 -1.321 -0.5767 0
M  V30 27 H -2.0409 -0.5981 0.3901 0
M  V30 28 H 0.4886 1.0375 2.7908 0
M  V30 29 H 2.3005 2.2952 -0.2135 0
M  V30 30 H 2.4802 1.8183 1.4682 0
M  V30 31 H 1.0052 4.1678 0.9059 0
M  V30 32 H -0.6101 3.8783 1.5603 0
M  V30 33 H 0.8302 3.4479 2.4988 0
M  V30 34 H -0.476 -1.0983 2.0181 0
M  V30 35 H -2.2979 1.5183 1.6263 0
M  V30 36 H -1.9419 0.5531 3.0659 0
M  V30 37 H -1.5516 2.2695 3.039 0
M  V30 38 H 3.1065 -0.0412 0.1428 0
M  V30 39 H 1.6861 0.0445 -0.8843 0
M  V30 40 H 1.2428 -2.652 1.8068 0
M  V30 41 H 2.762 -2.2129 1.1214 0
M  V30 42 H 1.9239 -2.3648 -1.1913 0
M  V30 43 H 0.6777 -5.4279 -2.0017 0
M  V30 44 H 1.0244 -3.8446 -2.7077 0
M  V30 45 H -0.6433 -4.2797 -2.3152 0
M  V30 46 H -0.2626 -4.0436 1.4287 0
M  V30 47 H -1.3487 -4.5133 0.1308 0
M  V30 48 H 0.0261 -5.5529 0.557 0
M  V30 END ATOM
M  V30 BEGIN BOND
M  V30 1 1 1 2
M  V30 2 2 2 3
M  V30 3 1 2 4
M  V30 4 1 3 5
M  V30 5 2 4 6
M  V30 6 2 5 7
M  V30 7 1 5 8
M  V30 8 1 7 9
M  V30 9 1 8 10
M  V30 10 1 8 11
M  V30 11 1 8 12
M  V30 12 1 9 13
M  V30 13 1 10 14
M  V30 14 1 11 15
M  V30 15 1 13 16
M  V30 16 1 16 17
M  V30 17 1 17 18
M  V30 18 2 18 19
M  V30 19 1 19 20
M  V30 20 1 19 21
M  V30 21 1 6 7
M  V30 22 1 10 13
M  V30 23 1 15 16
M  V30 24 1 1 22
M  V30 25 1 3 23
M  V30 26 1 4 24
M  V30 27 1 6 25
M  V30 28 1 9 26
M  V30 29 1 9 27
M  V30 30 1 10 28
M  V30 31 1 11 29
M  V30 32 1 11 30
M  V30 33 1 12 31
M  V30 34 1 12 32
M  V30 35 1 12 33
M  V30 36 1 13 34
M  V30 37 1 14 35
M  V30 38 1 14 36
M  V30 39 1 14 37
M  V30 40 1 15 38
M  V30 41 1 15 39
M  V30 42 1 17 40
M  V30 43 1 17 41
M  V30 44 1 18 42
M  V30 45 1 20 43
M  V30 46 1 20 44
M  V30 47 1 20 45
M  V30 48 1 21 46
M  V30 49 1 21 47
M  V30 50 1 21 48
M  V30 END BOND
M  V30 BEGIN COLLECTION
M  V30 MDLV30/STEABS ATOMS=(1 8)
M  V30 END COLLECTION
M  V30 END CTAB
M  END
>  <Column 1>
715

>  <level_0>
814

>  <index>
814

>  <Unnamed: 0>
814

>  <NO.>
826

>  <Name>
schembl680675

>  <IUPAC_name>
(1r)-1-13-dimethyl-10-(3-methylbut-2-enyl)-10-azatricyclo[7.3.1.02-7]trideca-2(7)-3-5-trien-4-ol

>  <SMILES>
CC(C)=CCN1CC[C@@]2(C)c3cc(O)ccc3CC1C2C

>  <CID>
44246749

>  <logBB>
0.51

>  <BBB+/BBB->
BBB+

>  <Inchi>
InChI=1S/C19H27NO/c1-13(2)7-9-20-10-8-19(4)14(3)18(20)11-15-5-6-16(21)12-17(15)19/h5-7-12-14-18-21H-8-11H2-1-4H3/t14?-18?-19-/m1/s1

>  <threshold>


>  <reference>
R43|

>  <group>
A

>  <Class>
1

>  <ABC>
16.62

>  <ABCGG>
13.24

>  <nAcid>
0

>  <nBase>
1

>  <nAromAtom>
6

>  <nAromBond>
6

>  <nAtom>
48

>  <nHeavyAtom>
21

>  <nSpiro>
0

>  <nBridgehead>
2

>  <nHetero>
2

>  <nN>
1

>  <nO>
1

>  <nF>
0

>  <BalabanJ>
1.75

>  <BertzCT>
572.93

>  <nBonds>
50

>  <nBondsO>
23

>  <nBondsS>
43

>  <nBondsD>
1

>  <nBondsT>
0

>  <nBondsA>
6

>  <nBondsM>
7

>  <nBondsKS>
46

>  <nBondsKD>
4

>  <RNCG>
0.37

>  <RPCG>
0.21

>  <FCSP3>
0.58

>  <SZ>
26

>  <Sm>
23.76

>  <Sv>
27.79

>  <Sse>
46.98

>  <Sp>
30.92

>  <Si>
54.11

>  <MZ>
0.54

>  <Mm>
0.5

>  <Mv>
0.58

>  <Mse>
0.98

>  <Mp>
0.64

>  <Mi>
1.13

>  <NsCH3>
4

>  <NdCH2>
0

>  <NssCH2>
4

>  <NtCH>
0

>  <NdsCH>
1

>  <NaaCH>
3

>  <NsssCH>
2

>  <NddC>
0

>  <NtsC>
0

>  <NdssC>
1

>  <NaasC>
3

>  <NaaaC>
0

>  <NssssC>
1

>  <NsNH3>
0

>  <NsNH2>
0

>  <NssNH2>
0

>  <NdNH>
0

>  <NssNH>
0

>  <NaaNH>
0

>  <NtN>
0

>  <NsssNH>
0

>  <NdsN>
0

>  <NaaN>
0

>  <NsssN>
1

>  <NddsN>
0

>  <NaasN>
0

>  <NssssN>
0

>  <NsOH>
1

>  <NdO>
0

>  <NssO>
0

>  <NaaO>
0

>  <NsF>
0

>  <NsSiH3>
0

>  <NssSiH2>
0

>  <NsssSiH>
0

>  <NssssSi>
0

>  <NsPH2>
0

>  <NssPH>
0

>  <NsssP>
0

>  <NdsssP>
0

>  <NsssssP>
0

>  <NsSH>
0

>  <NdS>
0

>  <NssS>
0

>  <NaaS>
0

>  <NdssS>
0

>  <NddssS>
0

>  <NsCl>
0

>  <NsBr>
0

>  <NsI>
0

>  <fragCpx>
109.02

>  <fMF>
0.27

>  <nHBAcc>
2

>  <nHBDon>
1

>  <Kier1>
15.88

>  <Kier2>
5.89

>  <Lipinski>
1

>  <GhoseFilter>
1

>  <FilterItLogS>
-3.93

>  <VMcGowan>
244.64

>  <LabuteASA>
128.03

>  <PEOE_VSA1>
5.11

>  <PEOE_VSA2>
4.9

>  <PEOE_VSA3>
0

>  <PEOE_VSA4>
0

>  <PEOE_VSA5>
0

>  <PEOE_VSA6>
31.56

>  <PEOE_VSA7>
67.83

>  <PEOE_VSA8>
12.59

>  <PEOE_VSA9>
0

>  <PEOE_VSA10>
5.75

>  <PEOE_VSA11>
0

>  <PEOE_VSA12>
0

>  <PEOE_VSA13>
0

>  <SMR_VSA1>
5.11

>  <SMR_VSA2>
0

>  <SMR_VSA3>
4.9

>  <SMR_VSA4>
5.92

>  <SMR_VSA5>
51.99

>  <SMR_VSA6>
13.09

>  <SMR_VSA7>
40.98

>  <SMR_VSA8>
0

>  <SMR_VSA9>
5.75

>  <SlogP_VSA1>
0

>  <SlogP_VSA2>
29.14

>  <SlogP_VSA3>
11.84

>  <SlogP_VSA4>
5.92

>  <SlogP_VSA5>
45.24

>  <SlogP_VSA6>
29.85

>  <SlogP_VSA7>
0

>  <SlogP_VSA8>
0

>  <SlogP_VSA9>
0

>  <SlogP_VSA10>
0

>  <SlogP_VSA11>
5.75

>  <EState_VSA1>
0

>  <EState_VSA2>
5.41

>  <EState_VSA3>
17.71

>  <EState_VSA4>
19.51

>  <EState_VSA5>
23.12

>  <EState_VSA6>
0

>  <EState_VSA7>
12.13

>  <EState_VSA8>
44.74

>  <EState_VSA9>
0

>  <EState_VSA10>
5.11

>  <VSA_EState1>
0

>  <VSA_EState2>
2.65

>  <VSA_EState3>
9.87

>  <VSA_EState4>
4.42

>  <VSA_EState5>
1.04

>  <VSA_EState6>
6.6

>  <VSA_EState7>
4.64

>  <VSA_EState8>
11.37

>  <VSA_EState9>
0

>  <apol>
51.64

>  <bpol>
28.8

>  <nRing>
3

>  <nHRing>
1

>  <naRing>
1

>  <naHRing>
0

>  <nARing 2>
2

>  <nAHRing 2>
1

>  <nFRing>
1

>  <nFHRing>
1

>  <nFaRing>
0

>  <nFaHRing>
0

>  <nFARing 2>
1

>  <nFAHRing 2>
1

>  <nRot>
2

>  <SLogP>
3.88

>  <SMR>
87.74

>  <TopoPSA(NO)>
23.47

>  <TopoPSA>
23.47

>  <JGI1>
0.26

>  <JGI2>
0.11

>  <JGI3>
0.05

>  <JGI4>
0.06

>  <JGI5>
0.03

>  <Diameter>
11

>  <Radius>
6

>  <TMWC10>
119.94

>  <TSRW10>
55.77

>  <MW>
285.21

>  <AMW>
5.94

>  <WPath>
870

>  <WPol>
39

>  <Zagreb1>
116

>  <Zagreb2>
141

>  <mZagreb2>
4.46

>  <yes>


>  <nAR-cont>
1

>  <nHA-cont>
0.994529749

>  <MWHBN>
0.177639229

>  <MWHBN-cont>
0.984481956

>  <TPSA-cont>
0.836164826

>  <pka_cont>
0.97

>  <yes.1>


>  <BBB_SCORE>
5.628582335

>  <MMFF94 Energy>
46.007

$$$$
Compound 591
Actelion Java MolfileCreator 2.0

  0  0  0  0  0  0              0 V3000
M  V30 BEGIN CTAB
M  V30 COUNTS 36 38 0 0 0
M  V30 BEGIN ATOM
M  V30 1 Cl 2.7074 2.2147 1.7222 0
M  V30 2 C 2.5896 1.9058 0.0284 0
M  V30 3 C 1.3858 1.5501 -0.5862 0
M  V30 4 C 3.7558 1.9793 -0.7377 0
M  V30 5 C 0.1254 1.4693 0.1761 0
M  V30 6 C 1.3432 1.2721 -1.959 0
M  V30 7 C 3.7161 1.7016 -2.1067 0
M  V30 8 N -0.4759 2.5594 0.5106 0
M  V30 9 C -0.3838 0.1396 0.49 0
M  V30 10 C 2.5119 1.348 -2.7163 0
M  V30 11 C -1.6912 2.4716 1.3322 0
M  V30 12 C -1.7271 -0.1823 0.4818 0
M  V30 13 C 0.4062 -1.0103 0.837 0
M  V30 14 C -2.8643 1.9417 0.51 0
M  V30 15 S -2.0229 -1.798 0.9309 0
M  V30 16 N -2.8264 0.5975 0.1281 0
M  V30 17 C -0.3564 -2.1284 1.1066 0
M  V30 18 O -3.8113 2.6825 0.2274 0
M  V30 19 C -3.9069 0.0945 -0.7108 0
M  V30 20 C 0.1111 -3.4929 1.5148 0
M  V30 21 C 0.424 -4.3637 0.3073 0
M  V30 22 H 4.7011 2.2526 -0.2747 0
M  V30 23 H 0.4035 1.0105 -2.4401 0
M  V30 24 H 4.6264 1.7649 -2.6989 0
M  V30 25 H 2.4834 1.1395 -3.7835 0
M  V30 26 H -1.9464 3.4829 1.6686 0
M  V30 27 H -1.5432 1.8763 2.2408 0
M  V30 28 H 1.4882 -1.0115 0.9078 0
M  V30 29 H -4.6198 -0.4471 -0.0817 0
M  V30 30 H -3.5021 -0.5727 -1.4783 0
M  V30 31 H -4.4377 0.9078 -1.2139 0
M  V30 32 H -0.6407 -3.9894 2.1399 0
M  V30 33 H 1.0126 -3.3959 2.132 0
M  V30 34 H 0.7766 -5.3478 0.6317 0
M  V30 35 H 1.2034 -3.9124 -0.3159 0
M  V30 36 H -0.4629 -4.5104 -0.318 0
M  V30 END ATOM
M  V30 BEGIN BOND
M  V30 1 1 1 2
M  V30 2 2 2 3
M  V30 3 1 2 4
M  V30 4 1 3 5
M  V30 5 1 3 6
M  V30 6 2 4 7
M  V30 7 2 5 8
M  V30 8 1 5 9
M  V30 9 2 6 10
M  V30 10 1 8 11
M  V30 11 2 9 12
M  V30 12 1 9 13
M  V30 13 1 11 14
M  V30 14 1 12 15
M  V30 15 1 12 16
M  V30 16 2 13 17
M  V30 17 2 14 18
M  V30 18 1 16 19
M  V30 19 1 17 20
M  V30 20 1 20 21
M  V30 21 1 7 10
M  V30 22 1 14 16
M  V30 23 1 15 17
M  V30 24 1 4 22
M  V30 25 1 6 23
M  V30 26 1 7 24
M  V30 27 1 10 25
M  V30 28 1 11 26
M  V30 29 1 11 27
M  V30 30 1 13 28
M  V30 31 1 19 29
M  V30 32 1 19 30
M  V30 33 1 19 31
M  V30 34 1 20 32
M  V30 35 1 20 33
M  V30 36 1 21 34
M  V30 37 1 21 35
M  V30 38 1 21 36
M  V30 END BOND
M  V30 END CTAB
M  END
>  <Column 1>
716

>  <level_0>
815

>  <index>
815

>  <Unnamed: 0>
815

>  <NO.>
827

>  <Name>
clotiazepam

>  <IUPAC_name>
5-(2-chlorophenyl)-7-ethyl-1-methyl-3h-thieno[2-3-e][1-4]diazepin-2-one

>  <SMILES>
CCc1cc2c(s1)N(C)C(=O)CN=C2c1ccccc1Cl

>  <CID>
2811

>  <logBB>
0.51

>  <BBB+/BBB->
BBB+

>  <Inchi>
InChI=1S/C16H15ClN2OS/c1-3-10-8-12-15(11-6-4-5-7-13(11)17)18-9-14(20)19(2)16(12)21-10/h4-8H-3-9H2-1-2H3

>  <threshold>


>  <reference>
R47|

>  <group>
A

>  <Class>
1

>  <ABC>
16.35

>  <ABCGG>
14.06

>  <nAcid>
0

>  <nBase>
0

>  <nAromAtom>
11

>  <nAromBond>
11

>  <nAtom>
36

>  <nHeavyAtom>
21

>  <nSpiro>
0

>  <nBridgehead>
0

>  <nHetero>
5

>  <nN>
2

>  <nO>
1

>  <nF>
0

>  <BalabanJ>
1.81

>  <BertzCT>
735.63

>  <nBonds>
38

>  <nBondsO>
23

>  <nBondsS>
25

>  <nBondsD>
2

>  <nBondsT>
0

>  <nBondsA>
11

>  <nBondsM>
13

>  <nBondsKS>
31

>  <nBondsKD>
7

>  <RNCG>
0.22

>  <RPCG>
0.18

>  <FCSP3>
0.25

>  <SZ>
27.67

>  <Sm>
26.54

>  <Sv>
24.57

>  <Sse>
36.16

>  <Sp>
26.83

>  <Si>
39.98

>  <MZ>
0.77

>  <Mm>
0.74

>  <Mv>
0.68

>  <Mse>
1

>  <Mp>
0.75

>  <Mi>
1.11

>  <NsCH3>
2

>  <NdCH2>
0

>  <NssCH2>
2

>  <NtCH>
0

>  <NdsCH>
0

>  <NaaCH>
5

>  <NsssCH>
0

>  <NddC>
0

>  <NtsC>
0

>  <NdssC>
2

>  <NaasC>
5

>  <NaaaC>
0

>  <NssssC>
0

>  <NsNH3>
0

>  <NsNH2>
0

>  <NssNH2>
0

>  <NdNH>
0

>  <NssNH>
0

>  <NaaNH>
0

>  <NtN>
0

>  <NsssNH>
0

>  <NdsN>
1

>  <NaaN>
0

>  <NsssN>
1

>  <NddsN>
0

>  <NaasN>
0

>  <NssssN>
0

>  <NsOH>
0

>  <NdO>
1

>  <NssO>
0

>  <NaaO>
0

>  <NsF>
0

>  <NsSiH3>
0

>  <NssSiH2>
0

>  <NsssSiH>
0

>  <NssssSi>
0

>  <NsPH2>
0

>  <NssPH>
0

>  <NsssP>
0

>  <NdsssP>
0

>  <NsssssP>
0

>  <NsSH>
0

>  <NdS>
0

>  <NssS>
0

>  <NaaS>
1

>  <NdssS>
0

>  <NddssS>
0

>  <NsCl>
1

>  <NsBr>
0

>  <NsI>
0

>  <fragCpx>
109.05

>  <fMF>
0.44

>  <nHBAcc>
3

>  <nHBDon>
0

>  <Kier1>
15.88

>  <Kier2>
6.63

>  <Lipinski>
1

>  <GhoseFilter>
1

>  <FilterItLogS>
-5.29

>  <VMcGowan>
228.04

>  <LabuteASA>
132.43

>  <PEOE_VSA1>
4.9

>  <PEOE_VSA2>
9.79

>  <PEOE_VSA3>
0

>  <PEOE_VSA4>
0

>  <PEOE_VSA5>
11.34

>  <PEOE_VSA6>
36.72

>  <PEOE_VSA7>
18.55

>  <PEOE_VSA8>
28.07

>  <PEOE_VSA9>
5.71

>  <PEOE_VSA10>
11.55

>  <PEOE_VSA11>
0

>  <PEOE_VSA12>
5.91

>  <PEOE_VSA13>
0

>  <SMR_VSA1>
4.79

>  <SMR_VSA2>
0

>  <SMR_VSA3>
0

>  <SMR_VSA4>
4.99

>  <SMR_VSA5>
13.34

>  <SMR_VSA6>
18.49

>  <SMR_VSA7>
51.36

>  <SMR_VSA8>
0

>  <SMR_VSA9>
0

>  <SlogP_VSA1>
4.9

>  <SlogP_VSA2>
25.21

>  <SlogP_VSA3>
11.22

>  <SlogP_VSA4>
0

>  <SlogP_VSA5>
22.93

>  <SlogP_VSA6>
35.32

>  <SlogP_VSA7>
5.02

>  <SlogP_VSA8>
0

>  <SlogP_VSA9>
0

>  <SlogP_VSA10>
5

>  <SlogP_VSA11>
0

>  <EState_VSA1>
0

>  <EState_VSA2>
12.45

>  <EState_VSA3>
5.02

>  <EState_VSA4>
28.26

>  <EState_VSA5>
4.88

>  <EState_VSA6>
16.24

>  <EState_VSA7>
31.31

>  <EState_VSA8>
17.98

>  <EState_VSA9>
11.6

>  <EState_VSA10>
4.79

>  <VSA_EState1>
0

>  <VSA_EState2>
19.59

>  <VSA_EState3>
1.61

>  <VSA_EState4>
2.69

>  <VSA_EState5>
0

>  <VSA_EState6>
9.75

>  <VSA_EState7>
0.94

>  <VSA_EState8>
2.26

>  <VSA_EState9>
1.81

>  <apol>
44.8

>  <bpol>
21.74

>  <nRing>
3

>  <nHRing>
2

>  <naRing>
2

>  <naHRing>
1

>  <nARing 2>
1

>  <nAHRing 2>
1

>  <nFRing>
1

>  <nFHRing>
1

>  <nFaRing>
0

>  <nFaHRing>
0

>  <nFARing 2>
1

>  <nFAHRing 2>
1

>  <nRot>
2

>  <SLogP>
3.78

>  <SMR>
89.07

>  <TopoPSA(NO)>
32.67

>  <TopoPSA>
60.91

>  <JGI1>
0.17

>  <JGI2>
0.09

>  <JGI3>
0.05

>  <JGI4>
0.05

>  <JGI5>
0.03

>  <Diameter>
9

>  <Radius>
5

>  <TMWC10>
118.84

>  <TSRW10>
69.38

>  <MW>
318.06

>  <AMW>
8.83

>  <WPath>
831

>  <WPol>
38

>  <Zagreb1>
112

>  <Zagreb2>
135

>  <mZagreb2>
4.67

>  <yes>


>  <nAR-cont>
0.816016

>  <nHA-cont>
0.994529749

>  <MWHBN>
0.168215778

>  <MWHBN-cont>
0.971096859

>  <TPSA-cont>
0.574810377

>  <pka_cont>
0.97

>  <yes.1>


>  <BBB_SCORE>
4.901811792

>  <MMFF94 Energy>
87.92

$$$$
Compound 592
Actelion Java MolfileCreator 2.0

  0  0  0  0  0  0              0 V3000
M  V30 BEGIN CTAB
M  V30 COUNTS 29 28 0 0 0
M  V30 BEGIN ATOM
M  V30 1 C -0.0762 -0.3048 0.2286 0
M  V30 2 C 1.1243 0.5912 0.5379 0
M  V30 3 C -0.8369 0.1895 -1.0029 0
M  V30 4 C 1.885 0.0969 1.7695 0
M  V30 5 C -2.0375 -0.7063 -1.3121 0
M  V30 6 C 3.0847 0.9923 2.0784 0
M  V30 7 C -2.7976 -0.2121 -2.5427 0
M  V30 8 C 3.8436 0.5043 3.3022 0
M  V30 9 C -3.992 -1.1002 -2.8535 0
M  V30 10 H -0.751 -0.3261 1.0931 0
M  V30 11 H 0.2665 -1.333 0.0604 0
M  V30 12 H 0.7815 1.6195 0.7061 0
M  V30 13 H 1.7991 0.6126 -0.3265 0
M  V30 14 H -0.1622 0.2109 -1.8673 0
M  V30 15 H -1.1796 1.2179 -0.8346 0
M  V30 16 H 2.2277 -0.9314 1.6015 0
M  V30 17 H 1.2103 0.0754 2.6341 0
M  V30 18 H -2.7124 -0.7278 -0.4476 0
M  V30 19 H -1.695 -1.7346 -1.4802 0
M  V30 20 H 3.7645 1.0141 1.2187 0
M  V30 21 H 2.747 2.021 2.2514 0
M  V30 22 H -3.146 0.8142 -2.3782 0
M  V30 23 H -2.1285 -0.1926 -3.4108 0
M  V30 24 H 4.6971 1.159 3.5049 0
M  V30 25 H 3.1999 0.5014 4.1878 0
M  V30 26 H 4.223 -0.511 3.1494 0
M  V30 27 H -4.521 -0.7286 -3.7368 0
M  V30 28 H -3.6746 -2.1282 -3.055 0
M  V30 29 H -4.6977 -1.1158 -2.0166 0
M  V30 END ATOM
M  V30 BEGIN BOND
M  V30 1 1 1 2
M  V30 2 1 1 3
M  V30 3 1 2 4
M  V30 4 1 3 5
M  V30 5 1 4 6
M  V30 6 1 5 7
M  V30 7 1 6 8
M  V30 8 1 7 9
M  V30 9 1 1 10
M  V30 10 1 1 11
M  V30 11 1 2 12
M  V30 12 1 2 13
M  V30 13 1 3 14
M  V30 14 1 3 15
M  V30 15 1 4 16
M  V30 16 1 4 17
M  V30 17 1 5 18
M  V30 18 1 5 19
M  V30 19 1 6 20
M  V30 20 1 6 21
M  V30 21 1 7 22
M  V30 22 1 7 23
M  V30 23 1 8 24
M  V30 24 1 8 25
M  V30 25 1 8 26
M  V30 26 1 9 27
M  V30 27 1 9 28
M  V30 28 1 9 29
M  V30 END BOND
M  V30 END CTAB
M  END
>  <Column 1>
717

>  <level_0>
816

>  <index>
816

>  <Unnamed: 0>
816

>  <NO.>
828

>  <Name>
nonane

>  <IUPAC_name>
nonane

>  <SMILES>
CCCCCCCCC

>  <CID>
8141

>  <logBB>
0.52

>  <BBB+/BBB->
BBB+

>  <Inchi>
InChI=1S/C9H20/c1-3-5-7-9-8-6-4-2/h3-9H2-1-2H3

>  <threshold>


>  <reference>
R2|R2|R8|R27|R40|R3|R21|R25|R27|R38|R41|R43|R46|R47|

>  <group>
A

>  <Class>
1

>  <ABC>
5.66

>  <ABCGG>
5.72

>  <nAcid>
0

>  <nBase>
0

>  <nAromAtom>
0

>  <nAromBond>
0

>  <nAtom>
29

>  <nHeavyAtom>
9

>  <nSpiro>
0

>  <nBridgehead>
0

>  <nHetero>
0

>  <nN>
0

>  <nO>
0

>  <nF>
0

>  <BalabanJ>
2.6

>  <BertzCT>
33.3

>  <nBonds>
28

>  <nBondsO>
8

>  <nBondsS>
28

>  <nBondsD>
0

>  <nBondsT>
0

>  <nBondsA>
0

>  <nBondsM>
0

>  <nBondsKS>
28

>  <nBondsKD>
0

>  <RNCG>
0.13

>  <RPCG>
0.05

>  <FCSP3>
1

>  <SZ>
12.33

>  <Sm>
10.68

>  <Sv>
14.42

>  <Sse>
27.88

>  <Sp>
16.99

>  <Si>
33.15

>  <MZ>
0.43

>  <Mm>
0.37

>  <Mv>
0.5

>  <Mse>
0.96

>  <Mp>
0.59

>  <Mi>
1.14

>  <NsCH3>
2

>  <NdCH2>
0

>  <NssCH2>
7

>  <NtCH>
0

>  <NdsCH>
0

>  <NaaCH>
0

>  <NsssCH>
0

>  <NddC>
0

>  <NtsC>
0

>  <NdssC>
0

>  <NaasC>
0

>  <NaaaC>
0

>  <NssssC>
0

>  <NsNH3>
0

>  <NsNH2>
0

>  <NssNH2>
0

>  <NdNH>
0

>  <NssNH>
0

>  <NaaNH>
0

>  <NtN>
0

>  <NsssNH>
0

>  <NdsN>
0

>  <NaaN>
0

>  <NsssN>
0

>  <NddsN>
0

>  <NaasN>
0

>  <NssssN>
0

>  <NsOH>
0

>  <NdO>
0

>  <NssO>
0

>  <NaaO>
0

>  <NsF>
0

>  <NsSiH3>
0

>  <NssSiH2>
0

>  <NsssSiH>
0

>  <NssssSi>
0

>  <NsPH2>
0

>  <NssPH>
0

>  <NsssP>
0

>  <NdsssP>
0

>  <NsssssP>
0

>  <NsSH>
0

>  <NdS>
0

>  <NssS>
0

>  <NaaS>
0

>  <NdssS>
0

>  <NddssS>
0

>  <NsCl>
0

>  <NsBr>
0

>  <NsI>
0

>  <fragCpx>
8

>  <fMF>
0

>  <nHBAcc>
0

>  <nHBDon>
0

>  <Kier1>
9

>  <Kier2>
8

>  <Lipinski>
1

>  <GhoseFilter>
0

>  <FilterItLogS>
-3.45

>  <VMcGowan>
137.67

>  <LabuteASA>
59.66

>  <PEOE_VSA1>
0

>  <PEOE_VSA2>
0

>  <PEOE_VSA3>
0

>  <PEOE_VSA4>
0

>  <PEOE_VSA5>
0

>  <PEOE_VSA6>
58.79

>  <PEOE_VSA7>
0

>  <PEOE_VSA8>
0

>  <PEOE_VSA9>
0

>  <PEOE_VSA10>
0

>  <PEOE_VSA11>
0

>  <PEOE_VSA12>
0

>  <PEOE_VSA13>
0

>  <SMR_VSA1>
0

>  <SMR_VSA2>
0

>  <SMR_VSA3>
0

>  <SMR_VSA4>
0

>  <SMR_VSA5>
58.79

>  <SMR_VSA6>
0

>  <SMR_VSA7>
0

>  <SMR_VSA8>
0

>  <SMR_VSA9>
0

>  <SlogP_VSA1>
0

>  <SlogP_VSA2>
0

>  <SlogP_VSA3>
0

>  <SlogP_VSA4>
0

>  <SlogP_VSA5>
58.79

>  <SlogP_VSA6>
0

>  <SlogP_VSA7>
0

>  <SlogP_VSA8>
0

>  <SlogP_VSA9>
0

>  <SlogP_VSA10>
0

>  <SlogP_VSA11>
0

>  <EState_VSA1>
0

>  <EState_VSA2>
0

>  <EState_VSA3>
0

>  <EState_VSA4>
0

>  <EState_VSA5>
44.95

>  <EState_VSA6>
0

>  <EState_VSA7>
0

>  <EState_VSA8>
13.85

>  <EState_VSA9>
0

>  <EState_VSA10>
0

>  <VSA_EState1>
0

>  <VSA_EState2>
0

>  <VSA_EState3>
0

>  <VSA_EState4>
0

>  <VSA_EState5>
0

>  <VSA_EState6>
0

>  <VSA_EState7>
9.97

>  <VSA_EState8>
4.53

>  <VSA_EState9>
0

>  <apol>
28.37

>  <bpol>
20.06

>  <nRing>
0

>  <nHRing>
0

>  <naRing>
0

>  <naHRing>
0

>  <nARing 2>
0

>  <nAHRing 2>
0

>  <nFRing>
0

>  <nFHRing>
0

>  <nFaRing>
0

>  <nFaHRing>
0

>  <nFARing 2>
0

>  <nFAHRing 2>
0

>  <nRot>
6

>  <SLogP>
3.76

>  <SMR>
43.67

>  <TopoPSA(NO)>
0

>  <TopoPSA>
0

>  <JGI1>
0.06

>  <JGI2>
0.03

>  <JGI3>
0.02

>  <JGI4>
0.02

>  <JGI5>
0.01

>  <Diameter>
8

>  <Radius>
4

>  <TMWC10>
70.57

>  <TSRW10>
33.97

>  <MW>
128.16

>  <AMW>
4.42

>  <WPath>
120

>  <WPol>
6

>  <Zagreb1>
30

>  <Zagreb2>
28

>  <mZagreb2>
2.5

>  <yes>


>  <nAR-cont>
0.336376

>  <nHA-cont>
0.56070381

>  <MWHBN>
0

>  <MWHBN-cont>
0

>  <TPSA-cont>
0

>  <pka_cont>
0.97

>  <yes.1>


>  <BBB_SCORE>
1.38207981

>  <MMFF94 Energy>
-6.0924

$$$$
Compound 593
Actelion Java MolfileCreator 2.0

  0  0  0  0  0  0              0 V3000
M  V30 BEGIN CTAB
M  V30 COUNTS 40 43 0 0 0
M  V30 BEGIN ATOM
M  V30 1 O -0.1605 1.2851 -1.2851 0
M  V30 2 C 0.5481 1.6102 -0.1477 0
M  V30 3 C 0.0881 0.0176 -1.7651 0
M  V30 4 C 0.1315 1.0688 1.0786 0
M  V30 5 C 1.6182 2.5119 -0.2351 0
M  V30 6 C -0.1228 -1.1643 -1.0343 0
M  V30 7 C 0.5577 -0.0215 -3.0863 0
M  V30 8 C 0.8524 1.4 2.2312 0
M  V30 9 C -1.0672 0.1355 1.053 0
M  V30 10 C 2.3227 2.8223 0.9328 0
M  V30 11 C 2.043 3.098 -1.549 0
M  V30 12 C 0.2463 -2.3766 -1.6618 0
M  V30 13 C -0.7133 -1.227 0.3822 0
M  V30 14 C 0.8849 -1.2331 -3.6864 0
M  V30 15 C 1.9428 2.2688 2.1559 0
M  V30 16 C -1.7384 -0.0843 2.4251 0
M  V30 17 C 0.7411 -2.4123 -2.9678 0
M  V30 18 O 0.2593 -1.9078 1.2015 0
M  V30 19 C -1.9967 -2.0968 0.3752 0
M  V30 20 N -2.9603 -0.8909 2.3209 0
M  V30 21 C -2.6432 -2.2016 1.7564 0
M  V30 22 H 0.6839 0.9044 -3.6416 0
M  V30 23 H 0.5889 0.9914 3.2031 0
M  V30 24 H -1.832 0.6355 0.4369 0
M  V30 25 H 3.1728 3.5002 0.8996 0
M  V30 26 H 1.1738 3.4275 -2.1275 0
M  V30 27 H 2.6825 3.9751 -1.4036 0
M  V30 28 H 2.6031 2.3571 -2.1274 0
M  V30 29 H 0.1497 -3.3191 -1.1238 0
M  V30 30 H 1.2603 -1.2545 -4.7057 0
M  V30 31 H 2.4976 2.5189 3.0574 0
M  V30 32 H -1.0554 -0.5629 3.1376 0
M  V30 33 H -2.0116 0.8833 2.8634 0
M  V30 34 H 1.0082 -3.3638 -3.4207 0
M  V30 35 H 1.1198 -1.4903 1.0125 0
M  V30 36 H -2.7233 -1.6828 -0.3371 0
M  V30 37 H -1.7786 -3.1205 0.0485 0
M  V30 38 H -3.6326 -0.4142 1.7195 0
M  V30 39 H -3.571 -2.7792 1.6756 0
M  V30 40 H -1.9954 -2.7579 2.4447 0
M  V30 END ATOM
M  V30 BEGIN BOND
M  V30 1 1 1 2
M  V30 2 1 1 3
M  V30 3 2 2 4
M  V30 4 1 2 5
M  V30 5 2 3 6
M  V30 6 1 3 7
M  V30 7 1 4 8
M  V30 8 1 4 9
M  V30 9 2 5 10
M  V30 10 1 5 11
M  V30 11 1 6 12
M  V30 12 1 6 13
M  V30 13 2 7 14
M  V30 14 2 8 15
M  V30 15 1 9 16
M  V30 16 2 12 17
M  V30 17 1 13 18
M  V30 18 1 13 19
M  V30 19 1 16 20
M  V30 20 1 19 21
M  V30 21 1 9 13
M  V30 22 1 10 15
M  V30 23 1 14 17
M  V30 24 1 20 21
M  V30 25 1 7 22
M  V30 26 1 8 23
M  V30 27 1 9 24
M  V30 28 1 10 25
M  V30 29 1 11 26
M  V30 30 1 11 27
M  V30 31 1 11 28
M  V30 32 1 12 29
M  V30 33 1 14 30
M  V30 34 1 15 31
M  V30 35 1 16 32
M  V30 36 1 16 33
M  V30 37 1 17 34
M  V30 38 1 18 35
M  V30 39 1 19 36
M  V30 40 1 19 37
M  V30 41 1 20 38
M  V30 42 1 21 39
M  V30 43 1 21 40
M  V30 END BOND
M  V30 END CTAB
M  END
>  <Column 1>
718

>  <level_0>
817

>  <index>
817

>  <Unnamed: 0>
817

>  <NO.>
829

>  <Name>
org-32104

>  <IUPAC_name>
16-methyl-14-oxa-4-azatetracyclo[13.4.0.02-7.08-13]nonadeca-1(19)-8-10-12-15-17-hexaen-7-ol

>  <SMILES>
Cc1cccc2c1Oc1ccccc1C1(O)CCNCC21

>  <CID>
22154175

>  <logBB>
0.52

>  <BBB+/BBB->
BBB+

>  <Inchi>
InChI=1S/C18H19NO2/c1-12-5-4-6-13-15-11-19-10-9-18(15-20)14-7-2-3-8-16(14)21-17(12)13/h2-8-15-19-20H-9-11H2-1H3

>  <threshold>


>  <reference>
R2|R2|R8|R27|R40|R3|R18|R21|R25|R26|R27|R27|R36|R38|R41|R43|R46|R47|R49|R4|

>  <group>
A

>  <Class>
1

>  <ABC>
16.95

>  <ABCGG>
13.4

>  <nAcid>
0

>  <nBase>
1

>  <nAromAtom>
12

>  <nAromBond>
12

>  <nAtom>
40

>  <nHeavyAtom>
21

>  <nSpiro>
0

>  <nBridgehead>
0

>  <nHetero>
3

>  <nN>
1

>  <nO>
2

>  <nF>
0

>  <BalabanJ>
1.72

>  <BertzCT>
697.37

>  <nBonds>
43

>  <nBondsO>
24

>  <nBondsS>
31

>  <nBondsD>
0

>  <nBondsT>
0

>  <nBondsA>
12

>  <nBondsM>
12

>  <nBondsKS>
37

>  <nBondsKD>
6

>  <RNCG>
0.29

>  <RPCG>
0.13

>  <FCSP3>
0.33

>  <SZ>
25

>  <Sm>
23.42

>  <Sv>
25.33

>  <Sse>
39.76

>  <Sp>
27.21

>  <Si>
44.65

>  <MZ>
0.63

>  <Mm>
0.59

>  <Mv>
0.63

>  <Mse>
0.99

>  <Mp>
0.68

>  <Mi>
1.12

>  <NsCH3>
1

>  <NdCH2>
0

>  <NssCH2>
3

>  <NtCH>
0

>  <NdsCH>
0

>  <NaaCH>
7

>  <NsssCH>
1

>  <NddC>
0

>  <NtsC>
0

>  <NdssC>
0

>  <NaasC>
5

>  <NaaaC>
0

>  <NssssC>
1

>  <NsNH3>
0

>  <NsNH2>
0

>  <NssNH2>
0

>  <NdNH>
0

>  <NssNH>
1

>  <NaaNH>
0

>  <NtN>
0

>  <NsssNH>
0

>  <NdsN>
0

>  <NaaN>
0

>  <NsssN>
0

>  <NddsN>
0

>  <NaasN>
0

>  <NssssN>
0

>  <NsOH>
1

>  <NdO>
0

>  <NssO>
1

>  <NaaO>
0

>  <NsF>
0

>  <NsSiH3>
0

>  <NssSiH2>
0

>  <NsssSiH>
0

>  <NssssSi>
0

>  <NsPH2>
0

>  <NssPH>
0

>  <NsssP>
0

>  <NdsssP>
0

>  <NsssssP>
0

>  <NsSH>
0

>  <NdS>
0

>  <NssS>
0

>  <NaaS>
0

>  <NdssS>
0

>  <NddssS>
0

>  <NsCl>
0

>  <NsBr>
0

>  <NsI>
0

>  <fragCpx>
156.03

>  <fMF>
0.48

>  <nHBAcc>
3

>  <nHBDon>
2

>  <Kier1>
14.58

>  <Kier2>
5.57

>  <Lipinski>
1

>  <GhoseFilter>
1

>  <FilterItLogS>
-4.6

>  <VMcGowan>
216.96

>  <LabuteASA>
124.12

>  <PEOE_VSA1>
15.16

>  <PEOE_VSA2>
0

>  <PEOE_VSA3>
0

>  <PEOE_VSA4>
0

>  <PEOE_VSA5>
0

>  <PEOE_VSA6>
36.4

>  <PEOE_VSA7>
31.52

>  <PEOE_VSA8>
23.59

>  <PEOE_VSA9>
0

>  <PEOE_VSA10>
17.1

>  <PEOE_VSA11>
0

>  <PEOE_VSA12>
0

>  <PEOE_VSA13>
0

>  <SMR_VSA1>
9.84

>  <SMR_VSA2>
0

>  <SMR_VSA3>
5.32

>  <SMR_VSA4>
0

>  <SMR_VSA5>
24.86

>  <SMR_VSA6>
13.09

>  <SMR_VSA7>
59.15

>  <SMR_VSA8>
0

>  <SMR_VSA9>
11.5

>  <SlogP_VSA1>
10.05

>  <SlogP_VSA2>
18.2

>  <SlogP_VSA3>
5.6

>  <SlogP_VSA4>
6.92

>  <SlogP_VSA5>
29.03

>  <SlogP_VSA6>
42.46

>  <SlogP_VSA7>
0

>  <SlogP_VSA8>
0

>  <SlogP_VSA9>
0

>  <SlogP_VSA10>
0

>  <SlogP_VSA11>
11.5

>  <EState_VSA1>
5.6

>  <EState_VSA2>
5.92

>  <EState_VSA3>
6.42

>  <EState_VSA4>
41.28

>  <EState_VSA5>
0

>  <EState_VSA6>
0

>  <EState_VSA7>
30.33

>  <EState_VSA8>
24.37

>  <EState_VSA9>
4.74

>  <EState_VSA10>
5.11

>  <VSA_EState1>
6.2

>  <VSA_EState2>
0

>  <VSA_EState3>
14.85

>  <VSA_EState4>
2.26

>  <VSA_EState5>
1.69

>  <VSA_EState6>
14.06

>  <VSA_EState7>
0.7

>  <VSA_EState8>
3.65

>  <VSA_EState9>
0

>  <apol>
45.43

>  <bpol>
21.37

>  <nRing>
4

>  <nHRing>
2

>  <naRing>
2

>  <naHRing>
0

>  <nARing 2>
2

>  <nAHRing 2>
2

>  <nFRing>
1

>  <nFHRing>
1

>  <nFaRing>
0

>  <nFaHRing>
0

>  <nFARing 2>
1

>  <nFAHRing 2>
1

>  <nRot>
0

>  <SLogP>
3.07

>  <SMR>
81.82

>  <TopoPSA(NO)>
41.49

>  <TopoPSA>
41.49

>  <JGI1>
0.17

>  <JGI2>
0.1

>  <JGI3>
0.05

>  <JGI4>
0.05

>  <JGI5>
0.02

>  <Diameter>
7

>  <Radius>
5

>  <TMWC10>
121.55

>  <TSRW10>
64.14

>  <MW>
281.14

>  <AMW>
7.03

>  <WPath>
751

>  <WPol>
44

>  <Zagreb1>
120

>  <Zagreb2>
149

>  <mZagreb2>
4.49

>  <yes>


>  <nAR-cont>
1

>  <nHA-cont>
0.994529749

>  <MWHBN>
0.298200718

>  <MWHBN-cont>
0.846081024

>  <TPSA-cont>
0.710374036

>  <pka_cont>
0.97

>  <yes.1>


>  <BBB_SCORE>
5.169399357

>  <MMFF94 Energy>
81.382

$$$$
Compound 594
Actelion Java MolfileCreator 2.0

  0  0  0  0  0  0              0 V3000
M  V30 BEGIN CTAB
M  V30 COUNTS 44 47 0 0 0
M  V30 BEGIN ATOM
M  V30 1 F 1.5266 4.1018 2.4917 0
M  V30 2 C 0.6618 3.3022 1.8537 0
M  V30 3 C 0.627 3.3007 0.4658 0
M  V30 4 C -0.1851 2.4847 2.5899 0
M  V30 5 C -0.2713 2.465 -0.1996 0
M  V30 6 C -1.0832 1.6471 1.9263 0
M  V30 7 C -1.1364 1.6246 0.522 0
M  V30 8 C -2.1013 0.716 -0.2261 0 CFG=1
M  V30 9 C -1.9255 -0.8022 0.0642 0
M  V30 10 C -3.5519 1.155 0.0558 0
M  V30 11 C -3.0286 -1.5995 -0.6537 0
M  V30 12 C -0.5555 -1.3413 -0.3951 0
M  V30 13 C -4.5531 0.2659 -0.6722 0
M  V30 14 N -4.3747 -1.1395 -0.3146 0
M  V30 15 O 0.4605 -0.8795 0.4927 0
M  V30 16 C 1.7584 -1.0725 0.1076 0
M  V30 17 C 2.1842 -1.9219 -0.9161 0
M  V30 18 C 2.7023 -0.3397 0.8548 0
M  V30 19 C 3.5405 -1.9963 -1.1634 0
M  V30 20 C 4.0701 -0.4336 0.5823 0
M  V30 21 O 4.1289 -2.7663 -2.1189 0
M  V30 22 C 4.4573 -1.273 -0.437 0
M  V30 23 C 5.5197 -2.4441 -1.9085 0
M  V30 24 O 5.7349 -1.4948 -0.8442 0
M  V30 25 H 1.3003 3.9451 -0.0894 0
M  V30 26 H -0.1389 2.4997 3.6738 0
M  V30 27 H -0.2838 2.4686 -1.2871 0
M  V30 28 H -1.7339 1.0053 2.5152 0
M  V30 29 H -1.9322 0.8592 -1.3036 0
M  V30 30 H -2.0185 -0.9718 1.1458 0
M  V30 31 H -3.7643 1.1233 1.1326 0
M  V30 32 H -3.6973 2.1962 -0.2587 0
M  V30 33 H -2.954 -2.6583 -0.3789 0
M  V30 34 H -2.8911 -1.5549 -1.7417 0
M  V30 35 H -0.3573 -1.0095 -1.4224 0
M  V30 36 H -0.5667 -2.4378 -0.3654 0
M  V30 37 H -4.4603 0.392 -1.7576 0
M  V30 38 H -5.5716 0.5716 -0.4086 0
M  V30 39 H -4.5281 -1.2526 0.6883 0
M  V30 40 H 1.5046 -2.5209 -1.507 0
M  V30 41 H 2.3574 0.3156 1.6521 0
M  V30 42 H 4.797 0.1327 1.1524 0
M  V30 43 H 6.0607 -3.367 -1.67 0
M  V30 44 H 5.9269 -2.0279 -2.8371 0
M  V30 END ATOM
M  V30 BEGIN BOND
M  V30 1 1 1 2
M  V30 2 2 2 3
M  V30 3 1 2 4
M  V30 4 1 3 5
M  V30 5 2 4 6
M  V30 6 2 5 7
M  V30 7 1 7 8
M  V30 8 1 8 9
M  V30 9 1 8 10
M  V30 10 1 9 11
M  V30 11 1 9 12
M  V30 12 1 10 13
M  V30 13 1 11 14
M  V30 14 1 12 15
M  V30 15 1 15 16
M  V30 16 2 16 17
M  V30 17 1 16 18
M  V30 18 1 17 19
M  V30 19 2 18 20
M  V30 20 1 19 21
M  V30 21 2 19 22
M  V30 22 1 21 23
M  V30 23 1 22 24
M  V30 24 1 6 7
M  V30 25 1 13 14
M  V30 26 1 20 22
M  V30 27 1 23 24
M  V30 28 1 3 25
M  V30 29 1 4 26
M  V30 30 1 5 27
M  V30 31 1 6 28
M  V30 32 1 8 29
M  V30 33 1 9 30
M  V30 34 1 10 31
M  V30 35 1 10 32
M  V30 36 1 11 33
M  V30 37 1 11 34
M  V30 38 1 12 35
M  V30 39 1 12 36
M  V30 40 1 13 37
M  V30 41 1 13 38
M  V30 42 1 14 39
M  V30 43 1 17 40
M  V30 44 1 18 41
M  V30 45 1 20 42
M  V30 46 1 23 43
M  V30 47 1 23 44
M  V30 END BOND
M  V30 BEGIN COLLECTION
M  V30 MDLV30/STEABS ATOMS=(1 8)
M  V30 END COLLECTION
M  V30 END CTAB
M  END
>  <Column 1>
719

>  <level_0>
819

>  <index>
819

>  <Unnamed: 0>
819

>  <NO.>
831

>  <Name>
schembl12537969

>  <IUPAC_name>
(4r)-3-(1-3-benzodioxol-5-yloxymethyl)-4-(4-fluorophenyl)piperidine

>  <SMILES>
Fc1ccc([C@@H]2CCNCC2COc2ccc3c(c2)OCO3)cc1

>  <CID>
44274603

>  <logBB>
0.52

>  <BBB+/BBB->
BBB+

>  <Inchi>
InChI=1S/C19H20FNO3/c20-15-3-1-13(2-4-15)17-7-8-21-10-14(17)11-22-16-5-6-18-19(9-16)24-12-23-18/h1-6-9-14-17-21H-7-8-10-12H2/t14?-17-/m0/s1

>  <threshold>


>  <reference>
R18|R26|R27|

>  <group>
A

>  <Class>
1

>  <ABC>
19.08

>  <ABCGG>
14.59

>  <nAcid>
0

>  <nBase>
1

>  <nAromAtom>
12

>  <nAromBond>
12

>  <nAtom>
44

>  <nHeavyAtom>
24

>  <nSpiro>
0

>  <nBridgehead>
0

>  <nHetero>
5

>  <nN>
1

>  <nO>
3

>  <nF>
1

>  <BalabanJ>
1.27

>  <BertzCT>
704.26

>  <nBonds>
47

>  <nBondsO>
27

>  <nBondsS>
35

>  <nBondsD>
0

>  <nBondsT>
0

>  <nBondsA>
12

>  <nBondsM>
12

>  <nBondsKS>
41

>  <nBondsKD>
6

>  <RNCG>
0.22

>  <RPCG>
0.1

>  <FCSP3>
0.37

>  <SZ>
29

>  <Sm>
27.42

>  <Sv>
27.97

>  <Sse>
44.49

>  <Sp>
29.42

>  <Si>
49.62

>  <MZ>
0.66

>  <Mm>
0.62

>  <Mv>
0.64

>  <Mse>
1.01

>  <Mp>
0.67

>  <Mi>
1.13

>  <NsCH3>
0

>  <NdCH2>
0

>  <NssCH2>
5

>  <NtCH>
0

>  <NdsCH>
0

>  <NaaCH>
7

>  <NsssCH>
2

>  <NddC>
0

>  <NtsC>
0

>  <NdssC>
0

>  <NaasC>
5

>  <NaaaC>
0

>  <NssssC>
0

>  <NsNH3>
0

>  <NsNH2>
0

>  <NssNH2>
0

>  <NdNH>
0

>  <NssNH>
1

>  <NaaNH>
0

>  <NtN>
0

>  <NsssNH>
0

>  <NdsN>
0

>  <NaaN>
0

>  <NsssN>
0

>  <NddsN>
0

>  <NaasN>
0

>  <NssssN>
0

>  <NsOH>
0

>  <NdO>
0

>  <NssO>
3

>  <NaaO>
0

>  <NsF>
1

>  <NsSiH3>
0

>  <NssSiH2>
0

>  <NsssSiH>
0

>  <NssssSi>
0

>  <NsPH2>
0

>  <NssPH>
0

>  <NsssP>
0

>  <NdsssP>
0

>  <NsssssP>
0

>  <NsSH>
0

>  <NdS>
0

>  <NssS>
0

>  <NaaS>
0

>  <NdssS>
0

>  <NddssS>
0

>  <NsCl>
0

>  <NsBr>
0

>  <NsI>
0

>  <fragCpx>
177.05

>  <fMF>
0.52

>  <nHBAcc>
4

>  <nHBDon>
1

>  <Kier1>
17.42

>  <Kier2>
8.13

>  <Lipinski>
1

>  <GhoseFilter>
1

>  <FilterItLogS>
-4.98

>  <VMcGowan>
238.68

>  <LabuteASA>
140.09

>  <PEOE_VSA1>
19.53

>  <PEOE_VSA2>
0

>  <PEOE_VSA3>
4.39

>  <PEOE_VSA4>
0

>  <PEOE_VSA5>
0

>  <PEOE_VSA6>
12.13

>  <PEOE_VSA7>
48.71

>  <PEOE_VSA8>
18.53

>  <PEOE_VSA9>
6.61

>  <PEOE_VSA10>
11.57

>  <PEOE_VSA11>
11.5

>  <PEOE_VSA12>
6.79

>  <PEOE_VSA13>
0

>  <SMR_VSA1>
18.6

>  <SMR_VSA2>
0

>  <SMR_VSA3>
5.32

>  <SMR_VSA4>
5.92

>  <SMR_VSA5>
12.34

>  <SMR_VSA6>
26.49

>  <SMR_VSA7>
53.85

>  <SMR_VSA8>
0

>  <SMR_VSA9>
17.25

>  <SlogP_VSA1>
19.53

>  <SlogP_VSA2>
26.49

>  <SlogP_VSA3>
0

>  <SlogP_VSA4>
11.74

>  <SlogP_VSA5>
17.9

>  <SlogP_VSA6>
42.46

>  <SlogP_VSA7>
0

>  <SlogP_VSA8>
0

>  <SlogP_VSA9>
0

>  <SlogP_VSA10>
4.39

>  <SlogP_VSA11>
17.25

>  <EState_VSA1>
0

>  <EState_VSA2>
12.61

>  <EState_VSA3>
18.44

>  <EState_VSA4>
36.76

>  <EState_VSA5>
17.7

>  <EState_VSA6>
0

>  <EState_VSA7>
30.33

>  <EState_VSA8>
5.32

>  <EState_VSA9>
14.21

>  <EState_VSA10>
4.39

>  <VSA_EState1>
29.86

>  <VSA_EState2>
0

>  <VSA_EState3>
3.43

>  <VSA_EState4>
1.18

>  <VSA_EState5>
2.79

>  <VSA_EState6>
12.48

>  <VSA_EState7>
1.03

>  <VSA_EState8>
2.74

>  <VSA_EState9>
0

>  <apol>
49.13

>  <bpol>
26.96

>  <nRing>
4

>  <nHRing>
2

>  <naRing>
2

>  <naHRing>
0

>  <nARing 2>
2

>  <nAHRing 2>
2

>  <nFRing>
1

>  <nFHRing>
1

>  <nFaRing>
0

>  <nFaHRing>
0

>  <nFARing 2>
1

>  <nFAHRing 2>
1

>  <nRot>
4

>  <SLogP>
3.33

>  <SMR>
88.18

>  <TopoPSA(NO)>
39.72

>  <TopoPSA>
39.72

>  <JGI1>
0.15

>  <JGI2>
0.07

>  <JGI3>
0.03

>  <JGI4>
0.03

>  <JGI5>
0.02

>  <Diameter>
13

>  <Radius>
7

>  <TMWC10>
125.75

>  <TSRW10>
72.16

>  <MW>
329.14

>  <AMW>
7.48

>  <WPath>
1445

>  <WPol>
35

>  <Zagreb1>
128

>  <Zagreb2>
150

>  <mZagreb2>
5.25

>  <yes>


>  <nAR-cont>
1

>  <nHA-cont>
0.94700071

>  <MWHBN>
0.275600291

>  <MWHBN-cont>
0.906975535

>  <TPSA-cont>
0.722729735

>  <pka_cont>
0.97

>  <yes.1>


>  <BBB_SCORE>
5.237923483

>  <MMFF94 Energy>
38.875

$$$$
Compound 595
Actelion Java MolfileCreator 2.0

  0  0  0  0  0  0              0 V3000
M  V30 BEGIN CTAB
M  V30 COUNTS 43 45 0 0 0
M  V30 BEGIN ATOM
M  V30 1 O 4.5088 3.0041 -1.343 0
M  V30 2 C 3.4352 2.1804 -1.1906 0
M  V30 3 C 3.5412 0.9518 -0.5556 0
M  V30 4 C 2.2208 2.5954 -1.6927 0
M  V30 5 C 2.4129 0.1071 -0.3964 0
M  V30 6 C 1.1056 1.7636 -1.5621 0
M  V30 7 C 1.1585 0.5039 -0.9164 0
M  V30 8 C 2.6869 -1.187 0.3422 0
M  V30 9 N -0.009 -0.2964 -0.875 0
M  V30 10 C 1.508 -1.832 1.0578 0
M  V30 11 C -0.0944 -1.7083 -0.8704 0
M  V30 12 C -1.3166 0.3676 -0.6545 0
M  V30 13 C 0.6008 -2.4911 0.0602 0
M  V30 14 C -0.9072 -2.3638 -1.8143 0
M  V30 15 C -1.4004 0.9878 0.7466 0
M  V30 16 C 0.4591 -3.8899 0.054 0
M  V30 17 C -1.0417 -3.7532 -1.8216 0
M  V30 18 C -2.7864 1.5876 0.9882 0
M  V30 19 C -0.3609 -4.5167 -0.8816 0
M  V30 20 N -2.8436 2.1981 2.3167 0
M  V30 21 C -4.1653 2.7462 2.5885 0
M  V30 22 H 5.2859 2.5742 -0.951 0
M  V30 23 H 4.5036 0.6296 -0.166 0
M  V30 24 H 2.1351 3.5509 -2.2009 0
M  V30 25 H 0.1872 2.115 -2.0214 0
M  V30 26 H 3.1445 -1.8934 -0.363 0
M  V30 27 H 3.4394 -0.9802 1.1156 0
M  V30 28 H 0.9498 -1.1075 1.6626 0
M  V30 29 H 1.8912 -2.5838 1.7592 0
M  V30 30 H -2.1474 -0.3448 -0.7484 0
M  V30 31 H -1.517 1.1193 -1.4254 0
M  V30 32 H -1.4301 -1.7829 -2.5703 0
M  V30 33 H -0.6368 1.7658 0.8657 0
M  V30 34 H -1.1921 0.2193 1.5016 0
M  V30 35 H 0.996 -4.4993 0.7772 0
M  V30 36 H -1.672 -4.2341 -2.5643 0
M  V30 37 H -3.5455 0.8008 0.9012 0
M  V30 38 H -2.993 2.3451 0.2228 0
M  V30 39 H -0.4594 -5.5988 -0.8819 0
M  V30 40 H -2.6133 1.5019 3.0258 0
M  V30 41 H -4.934 1.9668 2.5731 0
M  V30 42 H -4.4283 3.5235 1.8639 0
M  V30 43 H -4.172 3.2062 3.5815 0
M  V30 END ATOM
M  V30 BEGIN BOND
M  V30 1 1 1 2
M  V30 2 2 2 3
M  V30 3 1 2 4
M  V30 4 1 3 5
M  V30 5 2 4 6
M  V30 6 2 5 7
M  V30 7 1 5 8
M  V30 8 1 7 9
M  V30 9 1 8 10
M  V30 10 1 9 11
M  V30 11 1 9 12
M  V30 12 1 10 13
M  V30 13 1 11 14
M  V30 14 1 12 15
M  V30 15 1 13 16
M  V30 16 2 14 17
M  V30 17 1 15 18
M  V30 18 2 16 19
M  V30 19 1 18 20
M  V30 20 1 20 21
M  V30 21 1 6 7
M  V30 22 2 11 13
M  V30 23 1 17 19
M  V30 24 1 1 22
M  V30 25 1 3 23
M  V30 26 1 4 24
M  V30 27 1 6 25
M  V30 28 1 8 26
M  V30 29 1 8 27
M  V30 30 1 10 28
M  V30 31 1 10 29
M  V30 32 1 12 30
M  V30 33 1 12 31
M  V30 34 1 14 32
M  V30 35 1 15 33
M  V30 36 1 15 34
M  V30 37 1 16 35
M  V30 38 1 17 36
M  V30 39 1 18 37
M  V30 40 1 18 38
M  V30 41 1 19 39
M  V30 42 1 20 40
M  V30 43 1 21 41
M  V30 44 1 21 42
M  V30 45 1 21 43
M  V30 END BOND
M  V30 END CTAB
M  END
>  <Column 1>
720

>  <level_0>
820

>  <index>
820

>  <Unnamed: 0>
820

>  <NO.>
832

>  <Name>
1977-15-7

>  <IUPAC_name>
11-[3-(methylamino)propyl]-5-6-dihydrobenzo[b][1]benzazepin-3-ol

>  <SMILES>
CNCCCN1c2ccccc2CCc2cc(O)ccc21

>  <CID>
121249

>  <logBB>
0.53

>  <BBB+/BBB->
BBB+

>  <Inchi>
InChI=1S/C18H22N2O/c1-19-11-4-12-20-17-6-3-2-5-14(17)7-8-15-13-16(21)9-10-18(15)20/h2-3-5-6-9-10-13-19-21H-4-7-8-11-12H2-1H3

>  <threshold>


>  <reference>
R2|R2|R8|R27|R40|R21|R25|R27|R43|R46|R47|R4|R21|R27|

>  <group>
A

>  <Class>
1

>  <ABC>
16.21

>  <ABCGG>
13.02

>  <nAcid>
0

>  <nBase>
1

>  <nAromAtom>
12

>  <nAromBond>
12

>  <nAtom>
43

>  <nHeavyAtom>
21

>  <nSpiro>
0

>  <nBridgehead>
0

>  <nHetero>
3

>  <nN>
2

>  <nO>
1

>  <nF>
0

>  <BalabanJ>
1.74

>  <BertzCT>
624.37

>  <nBonds>
45

>  <nBondsO>
23

>  <nBondsS>
33

>  <nBondsD>
0

>  <nBondsT>
0

>  <nBondsA>
12

>  <nBondsM>
12

>  <nBondsKS>
39

>  <nBondsKD>
6

>  <RNCG>
0.32

>  <RPCG>
0.19

>  <FCSP3>
0.33

>  <SZ>
25.33

>  <Sm>
23.51

>  <Sv>
26.19

>  <Sse>
42.42

>  <Sp>
28.58

>  <Si>
48.36

>  <MZ>
0.59

>  <Mm>
0.55

>  <Mv>
0.61

>  <Mse>
0.99

>  <Mp>
0.66

>  <Mi>
1.12

>  <NsCH3>
1

>  <NdCH2>
0

>  <NssCH2>
5

>  <NtCH>
0

>  <NdsCH>
0

>  <NaaCH>
7

>  <NsssCH>
0

>  <NddC>
0

>  <NtsC>
0

>  <NdssC>
0

>  <NaasC>
5

>  <NaaaC>
0

>  <NssssC>
0

>  <NsNH3>
0

>  <NsNH2>
0

>  <NssNH2>
0

>  <NdNH>
0

>  <NssNH>
1

>  <NaaNH>
0

>  <NtN>
0

>  <NsssNH>
0

>  <NdsN>
0

>  <NaaN>
0

>  <NsssN>
1

>  <NddsN>
0

>  <NaasN>
0

>  <NssssN>
0

>  <NsOH>
1

>  <NdO>
0

>  <NssO>
0

>  <NaaO>
0

>  <NsF>
0

>  <NsSiH3>
0

>  <NssSiH2>
0

>  <NsssSiH>
0

>  <NssssSi>
0

>  <NsPH2>
0

>  <NssPH>
0

>  <NsssP>
0

>  <NdsssP>
0

>  <NsssssP>
0

>  <NsSH>
0

>  <NdS>
0

>  <NssS>
0

>  <NaaS>
0

>  <NdssS>
0

>  <NddssS>
0

>  <NsCl>
0

>  <NsBr>
0

>  <NsI>
0

>  <fragCpx>
109.03

>  <fMF>
0.35

>  <nHBAcc>
3

>  <nHBDon>
2

>  <Kier1>
15.88

>  <Kier2>
7.51

>  <Lipinski>
1

>  <GhoseFilter>
1

>  <FilterItLogS>
-4.82

>  <VMcGowan>
231.93

>  <LabuteASA>
125.78

>  <PEOE_VSA1>
15.32

>  <PEOE_VSA2>
0

>  <PEOE_VSA3>
0

>  <PEOE_VSA4>
0

>  <PEOE_VSA5>
0

>  <PEOE_VSA6>
18.2

>  <PEOE_VSA7>
68.25

>  <PEOE_VSA8>
17.92

>  <PEOE_VSA9>
0

>  <PEOE_VSA10>
5.75

>  <PEOE_VSA11>
0

>  <PEOE_VSA12>
0

>  <PEOE_VSA13>
0

>  <SMR_VSA1>
5.11

>  <SMR_VSA2>
0

>  <SMR_VSA3>
5.32

>  <SMR_VSA4>
0

>  <SMR_VSA5>
19.26

>  <SMR_VSA6>
25.04

>  <SMR_VSA7>
53.59

>  <SMR_VSA8>
0

>  <SMR_VSA9>
5.75

>  <SlogP_VSA1>
10.22

>  <SlogP_VSA2>
25.24

>  <SlogP_VSA3>
12.84

>  <SlogP_VSA4>
0

>  <SlogP_VSA5>
17.55

>  <SlogP_VSA6>
42.46

>  <SlogP_VSA7>
0

>  <SlogP_VSA8>
0

>  <SlogP_VSA9>
0

>  <SlogP_VSA10>
11.37

>  <SlogP_VSA11>
5.75

>  <EState_VSA1>
0

>  <EState_VSA2>
0

>  <EState_VSA3>
5.75

>  <EState_VSA4>
32.35

>  <EState_VSA5>
22.5

>  <EState_VSA6>
6.07

>  <EState_VSA7>
19.18

>  <EState_VSA8>
34.48

>  <EState_VSA9>
0

>  <EState_VSA10>
5.11

>  <VSA_EState1>
0

>  <VSA_EState2>
2.4

>  <VSA_EState3>
12.98

>  <VSA_EState4>
5.15

>  <VSA_EState5>
0.36

>  <VSA_EState6>
14.38

>  <VSA_EState7>
3.09

>  <VSA_EState8>
1.99

>  <VSA_EState9>
1.99

>  <apol>
47.73

>  <bpol>
24.35

>  <nRing>
3

>  <nHRing>
1

>  <naRing>
2

>  <naHRing>
0

>  <nARing 2>
1

>  <nAHRing 2>
1

>  <nFRing>
1

>  <nFHRing>
1

>  <nFaRing>
0

>  <nFaHRing>
0

>  <nFARing 2>
1

>  <nFAHRing 2>
1

>  <nRot>
4

>  <SLogP>
3.24

>  <SMR>
87.51

>  <TopoPSA(NO)>
35.5

>  <TopoPSA>
35.5

>  <JGI1>
0.13

>  <JGI2>
0.07

>  <JGI3>
0.04

>  <JGI4>
0.04

>  <JGI5>
0.02

>  <Diameter>
10

>  <Radius>
5

>  <TMWC10>
117.82

>  <TSRW10>
62.88

>  <MW>
282.17

>  <AMW>
6.56

>  <WPath>
870

>  <WPol>
36

>  <Zagreb1>
108

>  <Zagreb2>
127

>  <mZagreb2>
4.78

>  <yes>


>  <nAR-cont>
0.816016

>  <nHA-cont>
0.994529749

>  <MWHBN>
0.297655962

>  <MWHBN-cont>
0.847685133

>  <TPSA-cont>
0.752187956

>  <pka_cont>
0.97

>  <yes.1>


>  <BBB_SCORE>
5.07144936

>  <MMFF94 Energy>
44.137

$$$$
Compound 596
Actelion Java MolfileCreator 2.0

  0  0  0  0  0  0              0 V3000
M  V30 BEGIN CTAB
M  V30 COUNTS 26 26 0 0 0
M  V30 BEGIN ATOM
M  V30 1 O -0.6223 -0.7001 -1.8679 0
M  V30 2 C -0.525 -0.21 -0.7539 0
M  V30 3 O -0.76 1.0861 -0.4303 0
M  V30 4 C -0.1172 -0.984 0.45 0
M  V30 5 C -1.1643 1.9367 -1.5147 0
M  V30 6 C 0.1637 -2.3465 0.298 0
M  V30 7 C -0.0085 -0.4037 1.7188 0
M  V30 8 C 0.0637 2.5018 -2.2193 0
M  V30 9 C 0.5509 -3.115 1.401 0
M  V30 10 C 0.3796 -1.1809 2.8164 0
M  V30 11 C -0.3183 3.4527 -3.3393 0
M  V30 12 C 0.6717 -2.5381 2.6665 0
M  V30 13 N 1.0314 -3.3048 3.7576 0
M  V30 14 H -1.7527 2.7499 -1.0756 0
M  V30 15 H -1.8248 1.4042 -2.2094 0
M  V30 16 H 0.0809 -2.8192 -0.6786 0
M  V30 17 H -0.2239 0.6502 1.8737 0
M  V30 18 H 0.6977 3.0203 -1.4903 0
M  V30 19 H 0.6741 1.6855 -2.622 0
M  V30 20 H 0.7579 -4.1725 1.2591 0
M  V30 21 H 0.452 -0.7119 3.7944 0
M  V30 22 H 0.5794 3.8455 -3.8264 0
M  V30 23 H -0.921 2.943 -4.0976 0
M  V30 24 H -0.8943 4.3005 -2.9549 0
M  V30 25 H 1.1636 -2.8802 4.6649 0
M  V30 26 H 1.2856 -4.276 3.6417 0
M  V30 END ATOM
M  V30 BEGIN BOND
M  V30 1 2 1 2
M  V30 2 1 2 3
M  V30 3 1 2 4
M  V30 4 1 3 5
M  V30 5 2 4 6
M  V30 6 1 4 7
M  V30 7 1 5 8
M  V30 8 1 6 9
M  V30 9 2 7 10
M  V30 10 1 8 11
M  V30 11 2 9 12
M  V30 12 1 12 13
M  V30 13 1 10 12
M  V30 14 1 5 14
M  V30 15 1 5 15
M  V30 16 1 6 16
M  V30 17 1 7 17
M  V30 18 1 8 18
M  V30 19 1 8 19
M  V30 20 1 9 20
M  V30 21 1 10 21
M  V30 22 1 11 22
M  V30 23 1 11 23
M  V30 24 1 11 24
M  V30 25 1 13 25
M  V30 26 1 13 26
M  V30 END BOND
M  V30 END CTAB
M  END
>  <Column 1>
722

>  <level_0>
823

>  <index>
823

>  <Unnamed: 0>
823

>  <NO.>
835

>  <Name>
propyl-4-aminobenzoate

>  <IUPAC_name>
propyl 4-aminobenzoate

>  <SMILES>
CCCOC(=O)c1ccc(N)cc1

>  <CID>
7174

>  <logBB>
0.55

>  <BBB+/BBB->
BBB+

>  <Inchi>
InChI=1S/C10H13NO2/c1-2-7-13-10(12)8-3-5-9(11)6-4-8/h3-6H-2-7-11H2-1H3

>  <threshold>


>  <reference>
R43|R3|R21|R25|R27|R38|R41|R46|R47|R2|R2|R8|R27|R40|

>  <group>
A

>  <Class>
1

>  <ABC>
9.37

>  <ABCGG>
8.57

>  <nAcid>
0

>  <nBase>
0

>  <nAromAtom>
6

>  <nAromBond>
6

>  <nAtom>
26

>  <nHeavyAtom>
13

>  <nSpiro>
0

>  <nBridgehead>
0

>  <nHetero>
3

>  <nN>
1

>  <nO>
2

>  <nF>
0

>  <BalabanJ>
2.19

>  <BertzCT>
279.48

>  <nBonds>
26

>  <nBondsO>
13

>  <nBondsS>
19

>  <nBondsD>
1

>  <nBondsT>
0

>  <nBondsA>
6

>  <nBondsM>
7

>  <nBondsKS>
22

>  <nBondsKD>
4

>  <RNCG>
0.34

>  <RPCG>
0.25

>  <FCSP3>
0.3

>  <SZ>
16

>  <Sm>
14.92

>  <Sv>
15.71

>  <Sse>
26.1

>  <Sp>
16.81

>  <Si>
29.41

>  <MZ>
0.62

>  <Mm>
0.57

>  <Mv>
0.6

>  <Mse>
1

>  <Mp>
0.65

>  <Mi>
1.13

>  <NsCH3>
1

>  <NdCH2>
0

>  <NssCH2>
2

>  <NtCH>
0

>  <NdsCH>
0

>  <NaaCH>
4

>  <NsssCH>
0

>  <NddC>
0

>  <NtsC>
0

>  <NdssC>
1

>  <NaasC>
2

>  <NaaaC>
0

>  <NssssC>
0

>  <NsNH3>
0

>  <NsNH2>
1

>  <NssNH2>
0

>  <NdNH>
0

>  <NssNH>
0

>  <NaaNH>
0

>  <NtN>
0

>  <NsssNH>
0

>  <NdsN>
0

>  <NaaN>
0

>  <NsssN>
0

>  <NddsN>
0

>  <NaasN>
0

>  <NssssN>
0

>  <NsOH>
0

>  <NdO>
1

>  <NssO>
1

>  <NaaO>
0

>  <NsF>
0

>  <NsSiH3>
0

>  <NssSiH2>
0

>  <NsssSiH>
0

>  <NssssSi>
0

>  <NsPH2>
0

>  <NssPH>
0

>  <NsssP>
0

>  <NdsssP>
0

>  <NsssssP>
0

>  <NsSH>
0

>  <NdS>
0

>  <NssS>
0

>  <NaaS>
0

>  <NdssS>
0

>  <NddssS>
0

>  <NsCl>
0

>  <NsBr>
0

>  <NsI>
0

>  <fragCpx>
13.03

>  <fMF>
0.23

>  <nHBAcc>
3

>  <nHBDon>
1

>  <Kier1>
11.08

>  <Kier2>
5.67

>  <Lipinski>
1

>  <GhoseFilter>
1

>  <FilterItLogS>
-2.32

>  <VMcGowan>
145.42

>  <LabuteASA>
77.51

>  <PEOE_VSA1>
10.47

>  <PEOE_VSA2>
0

>  <PEOE_VSA3>
4.79

>  <PEOE_VSA4>
0

>  <PEOE_VSA5>
0

>  <PEOE_VSA6>
6.92

>  <PEOE_VSA7>
30.69

>  <PEOE_VSA8>
5.69

>  <PEOE_VSA9>
12.17

>  <PEOE_VSA10>
0

>  <PEOE_VSA11>
0

>  <PEOE_VSA12>
0

>  <PEOE_VSA13>
0

>  <SMR_VSA1>
9.53

>  <SMR_VSA2>
0

>  <SMR_VSA3>
0

>  <SMR_VSA4>
0

>  <SMR_VSA5>
13.34

>  <SMR_VSA6>
12.34

>  <SMR_VSA7>
29.83

>  <SMR_VSA8>
0

>  <SMR_VSA9>
0

>  <SlogP_VSA1>
5.73

>  <SlogP_VSA2>
12.58

>  <SlogP_VSA3>
4.74

>  <SlogP_VSA4>
0

>  <SlogP_VSA5>
23.7

>  <SlogP_VSA6>
24.27

>  <SlogP_VSA7>
0

>  <SlogP_VSA8>
0

>  <SlogP_VSA9>
0

>  <SlogP_VSA10>
5.69

>  <SlogP_VSA11>
0

>  <EState_VSA1>
0

>  <EState_VSA2>
5.97

>  <EState_VSA3>
17.86

>  <EState_VSA4>
6.42

>  <EState_VSA5>
0

>  <EState_VSA6>
24.27

>  <EState_VSA7>
6.92

>  <EState_VSA8>
0

>  <EState_VSA9>
10.47

>  <EState_VSA10>
4.79

>  <VSA_EState1>
4.94

>  <VSA_EState2>
11.25

>  <VSA_EState3>
0

>  <VSA_EState4>
6.66

>  <VSA_EState5>
-0.29

>  <VSA_EState6>
6.69

>  <VSA_EState7>
0.83

>  <VSA_EState8>
2.42

>  <VSA_EState9>
0

>  <apol>
28.07

>  <bpol>
15.08

>  <nRing>
1

>  <nHRing>
0

>  <naRing>
1

>  <naHRing>
0

>  <nARing 2>
0

>  <nAHRing 2>
0

>  <nFRing>
0

>  <nFHRing>
0

>  <nFaRing>
0

>  <nFaHRing>
0

>  <nFARing 2>
0

>  <nFAHRing 2>
0

>  <nRot>
3

>  <SLogP>
1.84

>  <SMR>
51.43

>  <TopoPSA(NO)>
52.32

>  <TopoPSA>
52.32

>  <JGI1>
0.19

>  <JGI2>
0.1

>  <JGI3>
0.04

>  <JGI4>
0.04

>  <JGI5>
0.03

>  <Diameter>
9

>  <Radius>
5

>  <TMWC10>
91.35

>  <TSRW10>
43.15

>  <MW>
179.09

>  <AMW>
6.89

>  <WPath>
274

>  <WPol>
15

>  <Zagreb1>
58

>  <Zagreb2>
63

>  <mZagreb2>
3.11

>  <yes>


>  <nAR-cont>
0.336376

>  <nHA-cont>
0.841215992

>  <MWHBN>
0.298898904

>  <MWHBN-cont>
0.844016018

>  <TPSA-cont>
0.634773911

>  <pka_cont>
0.97

>  <yes.1>


>  <BBB_SCORE>
4.198163841

>  <MMFF94 Energy>
18.24

$$$$
Compound 597
Actelion Java MolfileCreator 2.0

  0  0  0  0  0  0              0 V3000
M  V30 BEGIN CTAB
M  V30 COUNTS 39 40 0 0 0
M  V30 BEGIN ATOM
M  V30 1 S 1.5979 1.2782 -1.438 0
M  V30 2 C 1.713 -0.4329 -1.9869 0
M  V30 3 C 0.1469 1.3027 -0.3749 0
M  V30 4 C 1.665 -1.5605 -1.1276 0
M  V30 5 C 1.8558 -0.6136 -3.3747 0
M  V30 6 C 0.1455 2.0891 0.7973 0
M  V30 7 C -1.0143 0.6043 -0.7348 0
M  V30 8 N 1.5928 -1.4402 0.2615 0
M  V30 9 C 1.7214 -2.8369 -1.7189 0
M  V30 10 C 1.9167 -1.8907 -3.9286 0
M  V30 11 N 1.2789 2.7824 1.2185 0
M  V30 12 C -0.9954 2.0956 1.6129 0
M  V30 13 C -2.1497 0.6393 0.077 0
M  V30 14 C 2.8155 -1.0398 0.9432 0
M  V30 15 C 0.6568 -2.2741 0.9969 0
M  V30 16 C 1.8434 -3.0029 -3.1005 0
M  V30 17 C -2.1503 1.3808 1.2618 0
M  V30 18 C -3.3717 1.4102 2.1497 0
M  V30 19 C -4.5436 2.1486 1.5178 0
M  V30 20 F -5.1034 1.3737 0.5485 0
M  V30 21 H 1.905 0.2475 -4.0375 0
M  V30 22 H -1.0463 0.021 -1.651 0
M  V30 23 H 1.6982 -3.7259 -1.0946 0
M  V30 24 H 2.0188 -2.0138 -5.0032 0
M  V30 25 H 1.2259 3.4629 1.9607 0
M  V30 26 H 2.0634 2.8113 0.5765 0
M  V30 27 H -0.9791 2.6691 2.5365 0
M  V30 28 H -3.0342 0.0814 -0.2248 0
M  V30 29 H 3.342 -0.2285 0.4315 0
M  V30 30 H 3.5012 -1.8905 1.0242 0
M  V30 31 H 2.5887 -0.6899 1.9562 0
M  V30 32 H -0.3057 -2.3471 0.4787 0
M  V30 33 H 0.4594 -1.8408 1.9835 0
M  V30 34 H 1.0564 -3.2825 1.1469 0
M  V30 35 H 1.8924 -4.0026 -3.5235 0
M  V30 36 H -3.6597 0.3781 2.3824 0
M  V30 37 H -3.1193 1.893 3.1014 0
M  V30 38 H -4.2453 3.1003 1.0676 0
M  V30 39 H -5.3206 2.3387 2.264 0
M  V30 END ATOM
M  V30 BEGIN BOND
M  V30 1 1 1 2
M  V30 2 1 1 3
M  V30 3 2 2 4
M  V30 4 1 2 5
M  V30 5 2 3 6
M  V30 6 1 3 7
M  V30 7 1 4 8
M  V30 8 1 4 9
M  V30 9 2 5 10
M  V30 10 1 6 11
M  V30 11 1 6 12
M  V30 12 2 7 13
M  V30 13 1 8 14
M  V30 14 1 8 15
M  V30 15 2 9 16
M  V30 16 2 12 17
M  V30 17 1 17 18
M  V30 18 1 18 19
M  V30 19 1 19 20
M  V30 20 1 10 16
M  V30 21 1 13 17
M  V30 22 1 5 21
M  V30 23 1 7 22
M  V30 24 1 9 23
M  V30 25 1 10 24
M  V30 26 1 11 25
M  V30 27 1 11 26
M  V30 28 1 12 27
M  V30 29 1 13 28
M  V30 30 1 14 29
M  V30 31 1 14 30
M  V30 32 1 14 31
M  V30 33 1 15 32
M  V30 34 1 15 33
M  V30 35 1 15 34
M  V30 36 1 16 35
M  V30 37 1 18 36
M  V30 38 1 18 37
M  V30 39 1 19 38
M  V30 40 1 19 39
M  V30 END BOND
M  V30 END CTAB
M  END
>  <Column 1>
723

>  <level_0>
824

>  <index>
824

>  <Unnamed: 0>
824

>  <NO.>
836

>  <Name>
afe

>  <IUPAC_name>


>  <SMILES>
CN(C)c1ccccc1Sc1ccc(CCF)cc1N

>  <CID>


>  <logBB>
0.55

>  <BBB+/BBB->
BBB+

>  <Inchi>
InChI=1S/C16H19FN2S/c1-19(2)14-5-3-4-6-16(14)20-15-8-7-12(9-10-17)11-13(15)18/h3-8-11H-9-10-18H2-1-2H3

>  <threshold>


>  <reference>
R25|R41|R3|R38|R40|R43|R46|R47|R2|R2|R8|R27|

>  <group>
A

>  <Class>
1

>  <ABC>
15.06

>  <ABCGG>
12.68

>  <nAcid>
0

>  <nBase>
0

>  <nAromAtom>
12

>  <nAromBond>
12

>  <nAtom>
39

>  <nHeavyAtom>
20

>  <nSpiro>
0

>  <nBridgehead>
0

>  <nHetero>
4

>  <nN>
2

>  <nO>
0

>  <nF>
1

>  <BalabanJ>
1.86

>  <BertzCT>
584.44

>  <nBonds>
40

>  <nBondsO>
21

>  <nBondsS>
28

>  <nBondsD>
0

>  <nBondsT>
0

>  <nBondsA>
12

>  <nBondsM>
12

>  <nBondsKS>
34

>  <nBondsKD>
6

>  <RNCG>
0.27

>  <RPCG>
0.1

>  <FCSP3>
0.25

>  <SZ>
25.67

>  <Sm>
24.18

>  <Sv>
24.5

>  <Sse>
38.79

>  <Sp>
26.97

>  <Si>
43.99

>  <MZ>
0.66

>  <Mm>
0.62

>  <Mv>
0.63

>  <Mse>
0.99

>  <Mp>
0.69

>  <Mi>
1.13

>  <NsCH3>
2

>  <NdCH2>
0

>  <NssCH2>
2

>  <NtCH>
0

>  <NdsCH>
0

>  <NaaCH>
7

>  <NsssCH>
0

>  <NddC>
0

>  <NtsC>
0

>  <NdssC>
0

>  <NaasC>
5

>  <NaaaC>
0

>  <NssssC>
0

>  <NsNH3>
0

>  <NsNH2>
1

>  <NssNH2>
0

>  <NdNH>
0

>  <NssNH>
0

>  <NaaNH>
0

>  <NtN>
0

>  <NsssNH>
0

>  <NdsN>
0

>  <NaaN>
0

>  <NsssN>
1

>  <NddsN>
0

>  <NaasN>
0

>  <NssssN>
0

>  <NsOH>
0

>  <NdO>
0

>  <NssO>
0

>  <NaaO>
0

>  <NsF>
1

>  <NsSiH3>
0

>  <NssSiH2>
0

>  <NsssSiH>
0

>  <NssssSi>
0

>  <NsPH2>
0

>  <NssPH>
0

>  <NsssP>
0

>  <NdsssP>
0

>  <NsssssP>
0

>  <NsSH>
0

>  <NdS>
0

>  <NssS>
1

>  <NaaS>
0

>  <NdssS>
0

>  <NddssS>
0

>  <NsCl>
0

>  <NsBr>
0

>  <NsI>
0

>  <fragCpx>
61.04

>  <fMF>
0.33

>  <nHBAcc>
3

>  <nHBDon>
1

>  <Kier1>
16.37

>  <Kier2>
7.85

>  <Lipinski>
1

>  <GhoseFilter>
1

>  <FilterItLogS>
-4.8

>  <VMcGowan>
226.85

>  <LabuteASA>
123.34

>  <PEOE_VSA1>
10.63

>  <PEOE_VSA2>
4.39

>  <PEOE_VSA3>
0

>  <PEOE_VSA4>
0

>  <PEOE_VSA5>
0

>  <PEOE_VSA6>
29.96

>  <PEOE_VSA7>
29.83

>  <PEOE_VSA8>
35.99

>  <PEOE_VSA9>
12.36

>  <PEOE_VSA10>
0

>  <PEOE_VSA11>
0

>  <PEOE_VSA12>
0

>  <PEOE_VSA13>
0

>  <SMR_VSA1>
4.39

>  <SMR_VSA2>
0

>  <SMR_VSA3>
0

>  <SMR_VSA4>
0

>  <SMR_VSA5>
16.21

>  <SMR_VSA6>
31.4

>  <SMR_VSA7>
48.03

>  <SMR_VSA8>
0

>  <SMR_VSA9>
0

>  <SlogP_VSA1>
10.63

>  <SlogP_VSA2>
20.77

>  <SlogP_VSA3>
6.42

>  <SlogP_VSA4>
0

>  <SlogP_VSA5>
5.56

>  <SlogP_VSA6>
52.26

>  <SlogP_VSA7>
0

>  <SlogP_VSA8>
0

>  <SlogP_VSA9>
0

>  <SlogP_VSA10>
15.77

>  <SlogP_VSA11>
0

>  <EState_VSA1>
0

>  <EState_VSA2>
6.67

>  <EState_VSA3>
12.11

>  <EState_VSA4>
21.04

>  <EState_VSA5>
0

>  <EState_VSA6>
11.76

>  <EState_VSA7>
44.43

>  <EState_VSA8>
17.03

>  <EState_VSA9>
5.73

>  <EState_VSA10>
4.39

>  <VSA_EState1>
12.35

>  <VSA_EState2>
4.24

>  <VSA_EState3>
0

>  <VSA_EState4>
8.87

>  <VSA_EState5>
0

>  <VSA_EState6>
13.97

>  <VSA_EState7>
0.42

>  <VSA_EState8>
-0.35

>  <VSA_EState9>
4.04

>  <apol>
45.05

>  <bpol>
23.77

>  <nRing>
2

>  <nHRing>
0

>  <naRing>
2

>  <naHRing>
0

>  <nARing 2>
0

>  <nAHRing 2>
0

>  <nFRing>
0

>  <nFHRing>
0

>  <nFaRing>
0

>  <nFaHRing>
0

>  <nFARing 2>
0

>  <nFAHRing 2>
0

>  <nRot>
5

>  <SLogP>
4

>  <SMR>
85.43

>  <TopoPSA(NO)>
29.26

>  <TopoPSA>
54.56

>  <JGI1>
0.19

>  <JGI2>
0.08

>  <JGI3>
0.05

>  <JGI4>
0.04

>  <JGI5>
0.03

>  <Diameter>
11

>  <Radius>
6

>  <TMWC10>
112.82

>  <TSRW10>
53.18

>  <MW>
290.13

>  <AMW>
7.44

>  <WPath>
858

>  <WPol>
29

>  <Zagreb1>
98

>  <Zagreb2>
112

>  <mZagreb2>
4.58

>  <yes>


>  <nAR-cont>
0.336376

>  <nHA-cont>
0.999629945

>  <MWHBN>
0.234835458

>  <MWHBN-cont>
0.981501349

>  <TPSA-cont>
0.61913732

>  <pka_cont>
0.97

>  <yes.1>


>  <BBB_SCORE>
4.531532609

>  <MMFF94 Energy>
83.705

$$$$
Compound 598
Actelion Java MolfileCreator 2.0

  0  0  0  0  0  0              0 V3000
M  V30 BEGIN CTAB
M  V30 COUNTS 23 22 0 0 0
M  V30 BEGIN ATOM
M  V30 1 O -0.5366 -3.3 -0.92 0
M  V30 2 C 0.4475 -2.5812 -0.8212 0
M  V30 3 O 0.4331 -1.2212 -0.7736 0
M  V30 4 C 1.8569 -3.081 -0.7346 0
M  V30 5 C -0.8762 -0.6437 -0.8429 0
M  V30 6 C -0.7616 0.877 -0.7431 0
M  V30 7 C -0.0599 1.3865 0.5315 0
M  V30 8 C 0.0719 2.9108 0.4752 0
M  V30 9 C -0.8 0.9788 1.8062 0
M  V30 10 H 2.4359 -2.7055 -1.582 0
M  V30 11 H 2.3055 -2.7629 0.2099 0
M  V30 12 H 1.8565 -4.1742 -0.7694 0
M  V30 13 H -1.5051 -1.0385 -0.0372 0
M  V30 14 H -1.3331 -0.9047 -1.8049 0
M  V30 15 H -1.7648 1.3144 -0.8185 0
M  V30 16 H -0.1905 1.2326 -1.6107 0
M  V30 17 H 0.953 0.9675 0.5749 0
M  V30 18 H 0.6348 3.2204 -0.4117 0
M  V30 19 H -0.9104 3.3943 0.44 0
M  V30 20 H 0.6039 3.2884 1.355 0
M  V30 21 H -0.7957 -0.1072 1.9388 0
M  V30 22 H -1.8414 1.3174 1.7863 0
M  V30 23 H -0.3204 1.4141 2.6898 0
M  V30 END ATOM
M  V30 BEGIN BOND
M  V30 1 2 1 2
M  V30 2 1 2 3
M  V30 3 1 2 4
M  V30 4 1 3 5
M  V30 5 1 5 6
M  V30 6 1 6 7
M  V30 7 1 7 8
M  V30 8 1 7 9
M  V30 9 1 4 10
M  V30 10 1 4 11
M  V30 11 1 4 12
M  V30 12 1 5 13
M  V30 13 1 5 14
M  V30 14 1 6 15
M  V30 15 1 6 16
M  V30 16 1 7 17
M  V30 17 1 8 18
M  V30 18 1 8 19
M  V30 19 1 8 20
M  V30 20 1 9 21
M  V30 21 1 9 22
M  V30 22 1 9 23
M  V30 END BOND
M  V30 END CTAB
M  END
>  <Column 1>
724

>  <level_0>
825

>  <index>
825

>  <Unnamed: 0>
825

>  <NO.>
837

>  <Name>
isopentylacetate 

>  <IUPAC_name>
3-methylbutyl acetate

>  <SMILES>
CC(=O)OCCC(C)C

>  <CID>
31276

>  <logBB>
0.55

>  <BBB+/BBB->
BBB+

>  <Inchi>
InChI=1S/C7H14O2/c1-6(2)4-5-9-7(3)8/h6H-4-5H2-1-3H3

>  <threshold>


>  <reference>
R21|R27|R43|R46|R47|R2|R2|R8|R27|R40|R25|R41|R3|R38|

>  <group>
A

>  <Class>
1

>  <ABC>
6.09

>  <ABCGG>
6.17

>  <nAcid>
0

>  <nBase>
0

>  <nAromAtom>
0

>  <nAromBond>
0

>  <nAtom>
23

>  <nHeavyAtom>
9

>  <nSpiro>
0

>  <nBridgehead>
0

>  <nHetero>
2

>  <nN>
0

>  <nO>
2

>  <nF>
0

>  <BalabanJ>
2.91

>  <BertzCT>
86.92

>  <nBonds>
22

>  <nBondsO>
8

>  <nBondsS>
21

>  <nBondsD>
1

>  <nBondsT>
0

>  <nBondsA>
0

>  <nBondsM>
1

>  <nBondsKS>
21

>  <nBondsKD>
1

>  <RNCG>
0.52

>  <RPCG>
0.33

>  <FCSP3>
0.86

>  <SZ>
12

>  <Sm>
10.84

>  <Sv>
12.22

>  <Sse>
22.88

>  <Sp>
13.55

>  <Si>
26.33

>  <MZ>
0.52

>  <Mm>
0.47

>  <Mv>
0.53

>  <Mse>
0.99

>  <Mp>
0.59

>  <Mi>
1.14

>  <NsCH3>
3

>  <NdCH2>
0

>  <NssCH2>
2

>  <NtCH>
0

>  <NdsCH>
0

>  <NaaCH>
0

>  <NsssCH>
1

>  <NddC>
0

>  <NtsC>
0

>  <NdssC>
1

>  <NaasC>
0

>  <NaaaC>
0

>  <NssssC>
0

>  <NsNH3>
0

>  <NsNH2>
0

>  <NssNH2>
0

>  <NdNH>
0

>  <NssNH>
0

>  <NaaNH>
0

>  <NtN>
0

>  <NsssNH>
0

>  <NdsN>
0

>  <NaaN>
0

>  <NsssN>
0

>  <NddsN>
0

>  <NaasN>
0

>  <NssssN>
0

>  <NsOH>
0

>  <NdO>
1

>  <NssO>
1

>  <NaaO>
0

>  <NsF>
0

>  <NsSiH3>
0

>  <NssSiH2>
0

>  <NsssSiH>
0

>  <NssssSi>
0

>  <NsPH2>
0

>  <NssPH>
0

>  <NsssP>
0

>  <NdsssP>
0

>  <NsssssP>
0

>  <NsSH>
0

>  <NdS>
0

>  <NssS>
0

>  <NaaS>
0

>  <NdssS>
0

>  <NddssS>
0

>  <NsCl>
0

>  <NsBr>
0

>  <NsI>
0

>  <fragCpx>
8.02

>  <fMF>
0

>  <nHBAcc>
2

>  <nHBDon>
0

>  <Kier1>
9

>  <Kier2>
4.84

>  <Lipinski>
1

>  <GhoseFilter>
0

>  <FilterItLogS>
-1.55

>  <VMcGowan>
116.93

>  <LabuteASA>
56.2

>  <PEOE_VSA1>
4.74

>  <PEOE_VSA2>
4.79

>  <PEOE_VSA3>
0

>  <PEOE_VSA4>
0

>  <PEOE_VSA5>
0

>  <PEOE_VSA6>
13.85

>  <PEOE_VSA7>
12.34

>  <PEOE_VSA8>
6.92

>  <PEOE_VSA9>
6.61

>  <PEOE_VSA10>
0

>  <PEOE_VSA11>
0

>  <PEOE_VSA12>
0

>  <PEOE_VSA13>
0

>  <SMR_VSA1>
9.53

>  <SMR_VSA2>
0

>  <SMR_VSA3>
0

>  <SMR_VSA4>
5.92

>  <SMR_VSA5>
27.19

>  <SMR_VSA6>
6.61

>  <SMR_VSA7>
0

>  <SMR_VSA8>
0

>  <SMR_VSA9>
0

>  <SlogP_VSA1>
0

>  <SlogP_VSA2>
12.58

>  <SlogP_VSA3>
9.53

>  <SlogP_VSA4>
5.92

>  <SlogP_VSA5>
27.19

>  <SlogP_VSA6>
0

>  <SlogP_VSA7>
0

>  <SlogP_VSA8>
0

>  <SlogP_VSA9>
0

>  <SlogP_VSA10>
0

>  <SlogP_VSA11>
0

>  <EState_VSA1>
0

>  <EState_VSA2>
5.97

>  <EState_VSA3>
12.52

>  <EState_VSA4>
6.42

>  <EState_VSA5>
6.92

>  <EState_VSA6>
0

>  <EState_VSA7>
0

>  <EState_VSA8>
13.85

>  <EState_VSA9>
4.74

>  <EState_VSA10>
4.79

>  <VSA_EState1>
4.71

>  <VSA_EState2>
10.2

>  <VSA_EState3>
0

>  <VSA_EState4>
0

>  <VSA_EState5>
0.43

>  <VSA_EState6>
0

>  <VSA_EState7>
0.96

>  <VSA_EState8>
6.19

>  <VSA_EState9>
0

>  <apol>
22.63

>  <bpol>
16.65

>  <nRing>
0

>  <nHRing>
0

>  <naRing>
0

>  <naHRing>
0

>  <nARing 2>
0

>  <nAHRing 2>
0

>  <nFRing>
0

>  <nFHRing>
0

>  <nFaRing>
0

>  <nFaHRing>
0

>  <nFARing 2>
0

>  <nFAHRing 2>
0

>  <nRot>
3

>  <SLogP>
1.6

>  <SMR>
36.09

>  <TopoPSA(NO)>
26.3

>  <TopoPSA>
26.3

>  <JGI1>
0.31

>  <JGI2>
0.07

>  <JGI3>
0.06

>  <JGI4>
0.03

>  <JGI5>
0.06

>  <Diameter>
6

>  <Radius>
3

>  <TMWC10>
73.43

>  <TSRW10>
35.38

>  <MW>
130.1

>  <AMW>
5.66

>  <WPath>
108

>  <WPol>
6

>  <Zagreb1>
34

>  <Zagreb2>
32

>  <mZagreb2>
2.17

>  <yes>


>  <nAR-cont>
0.336376

>  <nHA-cont>
0.56070381

>  <MWHBN>
0.175344177

>  <MWHBN-cont>
0.981619676

>  <TPSA-cont>
0.816409669

>  <pka_cont>
0.97

>  <yes.1>


>  <BBB_SCORE>
4.487328661

>  <MMFF94 Energy>
-6.1247

$$$$
Compound 599
Actelion Java MolfileCreator 2.0

  0  0  0  0  0  0              0 V3000
M  V30 BEGIN CTAB
M  V30 COUNTS 43 47 0 0 0
M  V30 BEGIN ATOM
M  V30 1 O 1.8642 0.9723 -1.3776 0
M  V30 2 C 1.4968 0.9233 -0.0532 0
M  V30 3 C 0.9601 0.0152 -2.042 0 CFG=2
M  V30 4 C 2.2334 1.3817 1.024 0
M  V30 5 C 0.2928 0.2758 0.1251 0
M  V30 6 C -0.3206 -0.0801 -1.1897 0
M  V30 7 C 1.6967 -1.3379 -2.2737 0 CFG=1
M  V30 8 O 3.4046 2.0193 0.7374 0
M  V30 9 C 1.7202 1.1205 2.3034 0
M  V30 10 C -0.1982 -0.061 1.3719 0
M  V30 11 C -0.9994 -1.4521 -1.0715 0 CFG=1
M  V30 12 C -1.3702 0.9803 -1.5784 0
M  V30 13 O 3.1071 -1.22 -2.0897 0
M  V30 14 C 1.2237 -2.503 -1.4522 0
M  V30 15 C 4.1672 2.4898 1.8399 0
M  V30 16 C 0.524 0.3873 2.4774 0
M  V30 17 C -1.3906 -0.9769 1.46 0
M  V30 18 C -0.0013 -2.5731 -0.9084 0
M  V30 19 C -2.0525 -1.3257 0.0793 0
M  V30 20 C -2.584 0.9799 -0.6368 0
M  V30 21 N -3.095 -0.3743 -0.393 0
M  V30 22 C -4.278 -0.3453 0.4625 0
M  V30 23 H 0.7386 0.4461 -3.0267 0
M  V30 24 H 1.55 -1.6254 -3.3222 0
M  V30 25 H 2.2455 1.4406 3.1979 0
M  V30 26 H -1.5402 -1.6764 -2.0037 0
M  V30 27 H -0.9351 1.9881 -1.5935 0
M  V30 28 H -1.7171 0.7758 -2.6003 0
M  V30 29 H 3.2494 -0.3854 -1.6003 0
M  V30 30 H 1.9072 -3.3426 -1.3521 0
M  V30 31 H 3.6086 3.2327 2.419 0
M  V30 32 H 5.0611 2.9809 1.4433 0
M  V30 33 H 4.497 1.6605 2.4743 0
M  V30 34 H 0.1862 0.1529 3.4846 0
M  V30 35 H -1.0402 -1.919 1.9028 0
M  V30 36 H -2.123 -0.5612 2.1589 0
M  V30 37 H -0.3051 -3.4709 -0.3766 0
M  V30 38 H -2.5426 -2.3029 0.1906 0
M  V30 39 H -3.3686 1.5884 -1.104 0
M  V30 40 H -2.3286 1.4807 0.3051 0
M  V30 41 H -4.6668 -1.3566 0.6242 0
M  V30 42 H -5.0807 0.2213 -0.0227 0
M  V30 43 H -4.088 0.1136 1.4378 0
M  V30 END ATOM
M  V30 BEGIN BOND
M  V30 1 1 1 2
M  V30 2 1 1 3
M  V30 3 2 2 4
M  V30 4 1 2 5
M  V30 5 1 3 6
M  V30 6 1 3 7
M  V30 7 1 4 8
M  V30 8 1 4 9
M  V30 9 2 5 10
M  V30 10 1 6 11
M  V30 11 1 6 12
M  V30 12 1 7 13
M  V30 13 1 7 14
M  V30 14 1 8 15
M  V30 15 2 9 16
M  V30 16 1 10 17
M  V30 17 1 11 18
M  V30 18 1 11 19
M  V30 19 1 12 20
M  V30 20 1 19 21
M  V30 21 1 21 22
M  V30 22 1 5 6
M  V30 23 1 10 16
M  V30 24 2 14 18
M  V30 25 1 17 19
M  V30 26 1 20 21
M  V30 27 1 3 23
M  V30 28 1 7 24
M  V30 29 1 9 25
M  V30 30 1 11 26
M  V30 31 1 12 27
M  V30 32 1 12 28
M  V30 33 1 13 29
M  V30 34 1 14 30
M  V30 35 1 15 31
M  V30 36 1 15 32
M  V30 37 1 15 33
M  V30 38 1 16 34
M  V30 39 1 17 35
M  V30 40 1 17 36
M  V30 41 1 18 37
M  V30 42 1 19 38
M  V30 43 1 20 39
M  V30 44 1 20 40
M  V30 45 1 22 41
M  V30 46 1 22 42
M  V30 47 1 22 43
M  V30 END BOND
M  V30 BEGIN COLLECTION
M  V30 MDLV30/STEABS ATOMS=(3 3 7 11)
M  V30 END COLLECTION
M  V30 END CTAB
M  END
>  <Column 1>
725

>  <level_0>
826

>  <index>
826

>  <Unnamed: 0>
826

>  <NO.>
838

>  <Name>
codeine

>  <IUPAC_name>
(4ar-7s-7ar)-9-methoxy-3-methyl-2-4-4a-7-7a-13-hexahydro-1h-4-12-methanobenzofuro[3-2-e]isoquinolin-7-ol

>  <SMILES>
COc1ccc2c3c1O[C@H]1[C@@H](O)C=C[C@H]4C(C2)N(C)CCC341

>  <CID>
23872050

>  <logBB>
0.55

>  <BBB+/BBB->
BBB+

>  <Inchi>
InChI=1S/C18H21NO3/c1-19-8-7-18-11-4-5-13(20)17(18)22-16-14(21-2)6-3-10(15(16)18)9-12(11)19/h3-6-11-13-17-20H-7-9H2-1-2H3/t11--12?-13--17--18?/m0/s1

>  <threshold>


>  <reference>
R43|

>  <group>
A

>  <Class>
1

>  <ABC>
18.18

>  <ABCGG>
13.97

>  <nAcid>
0

>  <nBase>
1

>  <nAromAtom>
6

>  <nAromBond>
6

>  <nAtom>
43

>  <nHeavyAtom>
22

>  <nSpiro>
1

>  <nBridgehead>
2

>  <nHetero>
4

>  <nN>
1

>  <nO>
3

>  <nF>
0

>  <BalabanJ>
1.63

>  <BertzCT>
685.16

>  <nBonds>
47

>  <nBondsO>
26

>  <nBondsS>
40

>  <nBondsD>
1

>  <nBondsT>
0

>  <nBondsA>
6

>  <nBondsM>
7

>  <nBondsKS>
43

>  <nBondsKD>
4

>  <RNCG>
0.25

>  <RPCG>
0.11

>  <FCSP3>
0.56

>  <SZ>
26.67

>  <Sm>
24.92

>  <Sv>
26.59

>  <Sse>
42.98

>  <Sp>
28.48

>  <Si>
48.28

>  <MZ>
0.62

>  <Mm>
0.58

>  <Mv>
0.62

>  <Mse>
1

>  <Mp>
0.66

>  <Mi>
1.12

>  <NsCH3>
2

>  <NdCH2>
0

>  <NssCH2>
3

>  <NtCH>
0

>  <NdsCH>
2

>  <NaaCH>
2

>  <NsssCH>
4

>  <NddC>
0

>  <NtsC>
0

>  <NdssC>
0

>  <NaasC>
4

>  <NaaaC>
0

>  <NssssC>
1

>  <NsNH3>
0

>  <NsNH2>
0

>  <NssNH2>
0

>  <NdNH>
0

>  <NssNH>
0

>  <NaaNH>
0

>  <NtN>
0

>  <NsssNH>
0

>  <NdsN>
0

>  <NaaN>
0

>  <NsssN>
1

>  <NddsN>
0

>  <NaasN>
0

>  <NssssN>
0

>  <NsOH>
1

>  <NdO>
0

>  <NssO>
2

>  <NaaO>
0

>  <NsF>
0

>  <NsSiH3>
0

>  <NssSiH2>
0

>  <NsssSiH>
0

>  <NssssSi>
0

>  <NsPH2>
0

>  <NssPH>
0

>  <NsssP>
0

>  <NdsssP>
0

>  <NsssssP>
0

>  <NsSH>
0

>  <NdS>
0

>  <NssS>
0

>  <NaaS>
0

>  <NdssS>
0

>  <NddssS>
0

>  <NsCl>
0

>  <NsBr>
0

>  <NsI>
0

>  <fragCpx>
214.04

>  <fMF>
0.42

>  <nHBAcc>
4

>  <nHBDon>
1

>  <Kier1>
14.35

>  <Kier2>
4.76

>  <Lipinski>
1

>  <GhoseFilter>
1

>  <FilterItLogS>
-2.46

>  <VMcGowan>
220.57

>  <LabuteASA>
129.88

>  <PEOE_VSA1>
19.48

>  <PEOE_VSA2>
0

>  <PEOE_VSA3>
0

>  <PEOE_VSA4>
0

>  <PEOE_VSA5>
0

>  <PEOE_VSA6>
18.22

>  <PEOE_VSA7>
38.06

>  <PEOE_VSA8>
22.94

>  <PEOE_VSA9>
7.11

>  <PEOE_VSA10>
12.21

>  <PEOE_VSA11>
11.5

>  <PEOE_VSA12>
0

>  <PEOE_VSA13>
0

>  <SMR_VSA1>
14.58

>  <SMR_VSA2>
0

>  <SMR_VSA3>
4.9

>  <SMR_VSA4>
5.92

>  <SMR_VSA5>
36.51

>  <SMR_VSA6>
20.7

>  <SMR_VSA7>
35.41

>  <SMR_VSA8>
0

>  <SMR_VSA9>
11.5

>  <SlogP_VSA1>
9.47

>  <SlogP_VSA2>
48.96

>  <SlogP_VSA3>
11.84

>  <SlogP_VSA4>
5.92

>  <SlogP_VSA5>
17.55

>  <SlogP_VSA6>
24.28

>  <SlogP_VSA7>
0

>  <SlogP_VSA8>
0

>  <SlogP_VSA9>
0

>  <SlogP_VSA10>
0

>  <SlogP_VSA11>
11.5

>  <EState_VSA1>
6.1

>  <EState_VSA2>
11.52

>  <EState_VSA3>
11.96

>  <EState_VSA4>
30.89

>  <EState_VSA5>
11.13

>  <EState_VSA6>
7.11

>  <EState_VSA7>
12.14

>  <EState_VSA8>
24.09

>  <EState_VSA9>
9.47

>  <EState_VSA10>
5.11

>  <VSA_EState1>
11.83

>  <VSA_EState2>
2.47

>  <VSA_EState3>
10.55

>  <VSA_EState4>
2.6

>  <VSA_EState5>
2.09

>  <VSA_EState6>
4.7

>  <VSA_EState7>
5.54

>  <VSA_EState8>
1.05

>  <VSA_EState9>
3.91

>  <apol>
47.57

>  <bpol>
26.25

>  <nRing>
5

>  <nHRing>
2

>  <naRing>
1

>  <naHRing>
0

>  <nARing 2>
4

>  <nAHRing 2>
2

>  <nFRing>
1

>  <nFHRing>
1

>  <nFaRing>
0

>  <nFaHRing>
0

>  <nFARing 2>
1

>  <nFAHRing 2>
1

>  <nRot>
1

>  <SLogP>
1.5

>  <SMR>
82.46

>  <TopoPSA(NO)>
41.93

>  <TopoPSA>
41.93

>  <JGI1>
0.19

>  <JGI2>
0.1

>  <JGI3>
0.05

>  <JGI4>
0.05

>  <JGI5>
0.03

>  <Diameter>
9

>  <Radius>
5

>  <TMWC10>
127.61

>  <TSRW10>
72.65

>  <MW>
299.15

>  <AMW>
6.96

>  <WPath>
824

>  <WPol>
51

>  <Zagreb1>
136

>  <Zagreb2>
178

>  <mZagreb2>
4.63

>  <yes>


>  <nAR-cont>
0.199399

>  <nHA-cont>
0.983774276

>  <MWHBN>
0.289084962

>  <MWHBN-cont>
0.872076138

>  <TPSA-cont>
0.707302563

>  <pka_cont>
0.97

>  <yes.1>


>  <BBB_SCORE>
4.390892608

>  <MMFF94 Energy>
111.79

$$$$
Compound 600
Actelion Java MolfileCreator 2.0

  0  0  0  0  0  0              0 V3000
M  V30 BEGIN CTAB
M  V30 COUNTS 45 49 0 0 0
M  V30 BEGIN ATOM
M  V30 1 O -1.5362 0.6466 1.8598 0
M  V30 2 C -0.1704 0.7426 1.6611 0
M  V30 3 C -2.0467 0.2521 0.5365 0 CFG=2
M  V30 4 C 0.7417 1.4089 2.4573 0
M  V30 5 C 0.2154 0.1612 0.4681 0
M  V30 6 C -0.931 -0.548 -0.1568 0 CFG=2
M  V30 7 C -2.5412 1.5176 -0.2225 0 CFG=1
M  V30 8 O 0.2659 1.9518 3.6143 0
M  V30 9 C 2.0592 1.4935 1.9771 0
M  V30 10 C 1.485 0.2775 -0.0587 0
M  V30 11 C -0.8457 -0.4975 -1.6828 0 CFG=2
M  V30 12 C -0.8926 -2.0309 0.2777 0
M  V30 13 O -1.7533 2.6808 0.0562 0
M  V30 14 C -2.5486 1.3353 -1.7398 0
M  V30 15 C 1.2063 2.6192 4.4445 0
M  V30 16 C 2.424 0.95 0.7212 0
M  V30 17 C 1.7345 -0.2286 -1.4555 0
M  V30 18 C 0.5517 -1.0579 -2.0767 0 CFG=1
M  V30 19 C -1.1782 0.8812 -2.2573 0
M  V30 20 C 0.3283 -2.7701 -0.2968 0
M  V30 21 N 0.5263 -2.504 -1.728 0
M  V30 22 C 1.6743 -3.2416 -2.2471 0
M  V30 23 H -2.9153 -0.3998 0.6959 0
M  V30 24 H -3.5531 1.7586 0.1232 0
M  V30 25 H 2.8307 2.0111 2.539 0
M  V30 26 H -1.6123 -1.1729 -2.0957 0
M  V30 27 H -0.8867 -2.1339 1.3707 0
M  V30 28 H -1.8064 -2.5286 -0.0745 0
M  V30 29 H -1.6175 2.6945 1.0237 0
M  V30 30 H -2.8054 2.2843 -2.2259 0
M  V30 31 H -3.3139 0.6027 -2.0229 0
M  V30 32 H 1.9959 1.9369 4.7764 0
M  V30 33 H 0.6761 2.9722 5.3344 0
M  V30 34 H 1.6268 3.4949 3.9389 0
M  V30 35 H 3.4422 1.0802 0.3616 0
M  V30 36 H 2.6693 -0.7973 -1.4796 0
M  V30 37 H 1.8907 0.6512 -2.0939 0
M  V30 38 H 0.6422 -0.9934 -3.1694 0
M  V30 39 H -0.4134 1.6235 -2.0041 0
M  V30 40 H -1.2078 0.8221 -3.3519 0
M  V30 41 H 1.2261 -2.5109 0.2779 0
M  V30 42 H 0.1683 -3.845 -0.1448 0
M  V30 43 H 1.8027 -3.0587 -3.3196 0
M  V30 44 H 2.609 -2.9879 -1.7371 0
M  V30 45 H 1.5132 -4.3196 -2.1332 0
M  V30 END ATOM
M  V30 BEGIN BOND
M  V30 1 1 1 2
M  V30 2 1 1 3
M  V30 3 2 2 4
M  V30 4 1 2 5
M  V30 5 1 3 6
M  V30 6 1 3 7
M  V30 7 1 4 8
M  V30 8 1 4 9
M  V30 9 2 5 10
M  V30 10 1 6 11
M  V30 11 1 6 12
M  V30 12 1 7 13
M  V30 13 1 7 14
M  V30 14 1 8 15
M  V30 15 2 9 16
M  V30 16 1 10 17
M  V30 17 1 11 18
M  V30 18 1 11 19
M  V30 19 1 12 20
M  V30 20 1 18 21
M  V30 21 1 21 22
M  V30 22 1 5 6
M  V30 23 1 10 16
M  V30 24 1 14 19
M  V30 25 1 17 18
M  V30 26 1 20 21
M  V30 27 1 3 23
M  V30 28 1 7 24
M  V30 29 1 9 25
M  V30 30 1 11 26
M  V30 31 1 12 27
M  V30 32 1 12 28
M  V30 33 1 13 29
M  V30 34 1 14 30
M  V30 35 1 14 31
M  V30 36 1 15 32
M  V30 37 1 15 33
M  V30 38 1 15 34
M  V30 39 1 16 35
M  V30 40 1 17 36
M  V30 41 1 17 37
M  V30 42 1 18 38
M  V30 43 1 19 39
M  V30 44 1 19 40
M  V30 45 1 20 41
M  V30 46 1 20 42
M  V30 47 1 22 43
M  V30 48 1 22 44
M  V30 49 1 22 45
M  V30 END BOND
M  V30 BEGIN COLLECTION
M  V30 MDLV30/STEABS ATOMS=(5 3 6 7 11 18)
M  V30 END COLLECTION
M  V30 END CTAB
M  END
>  <Column 1>
726

>  <level_0>
827

>  <index>
827

>  <Unnamed: 0>
827

>  <NO.>
839

>  <Name>
dihydrocodeine

>  <IUPAC_name>
(4r-4ar-7s-7ar-12bs)-9-methoxy-3-methyl-2-4-4a-5-6-7-7a-13-octahydro-1h-4-12-methanobenzofuro[3-2-e]isoquinolin-7-ol

>  <SMILES>
COc1ccc2c3c1O[C@H]1[C@@H](O)CC[C@H]4[C@@H](C2)N(C)CC[C@]314

>  <CID>
5284543

>  <logBB>
0.55

>  <BBB+/BBB->
BBB+

>  <Inchi>
InChI=1S/C18H23NO3/c1-19-8-7-18-11-4-5-13(20)17(18)22-16-14(21-2)6-3-10(15(16)18)9-12(11)19/h3-6-11-13-17-20H-4-5-7-9H2-1-2H3/t11--12+-13--17--18-/m0/s1

>  <threshold>


>  <reference>
R2|R2|R20|R25|R27|R46|

>  <group>
A

>  <Class>
1

>  <ABC>
18.18

>  <ABCGG>
13.97

>  <nAcid>
0

>  <nBase>
1

>  <nAromAtom>
6

>  <nAromBond>
6

>  <nAtom>
45

>  <nHeavyAtom>
22

>  <nSpiro>
1

>  <nBridgehead>
2

>  <nHetero>
4

>  <nN>
1

>  <nO>
3

>  <nF>
0

>  <BalabanJ>
1.63

>  <BertzCT>
645.46

>  <nBonds>
49

>  <nBondsO>
26

>  <nBondsS>
43

>  <nBondsD>
0

>  <nBondsT>
0

>  <nBondsA>
6

>  <nBondsM>
6

>  <nBondsKS>
46

>  <nBondsKD>
3

>  <RNCG>
0.26

>  <RPCG>
0.11

>  <FCSP3>
0.67

>  <SZ>
27

>  <Sm>
25.09

>  <Sv>
27.13

>  <Sse>
44.87

>  <Sp>
29.28

>  <Si>
50.69

>  <MZ>
0.6

>  <Mm>
0.56

>  <Mv>
0.6

>  <Mse>
1

>  <Mp>
0.65

>  <Mi>
1.13

>  <NsCH3>
2

>  <NdCH2>
0

>  <NssCH2>
5

>  <NtCH>
0

>  <NdsCH>
0

>  <NaaCH>
2

>  <NsssCH>
4

>  <NddC>
0

>  <NtsC>
0

>  <NdssC>
0

>  <NaasC>
4

>  <NaaaC>
0

>  <NssssC>
1

>  <NsNH3>
0

>  <NsNH2>
0

>  <NssNH2>
0

>  <NdNH>
0

>  <NssNH>
0

>  <NaaNH>
0

>  <NtN>
0

>  <NsssNH>
0

>  <NdsN>
0

>  <NaaN>
0

>  <NsssN>
1

>  <NddsN>
0

>  <NaasN>
0

>  <NssssN>
0

>  <NsOH>
1

>  <NdO>
0

>  <NssO>
2

>  <NaaO>
0

>  <NsF>
0

>  <NsSiH3>
0

>  <NssSiH2>
0

>  <NsssSiH>
0

>  <NssssSi>
0

>  <NsPH2>
0

>  <NssPH>
0

>  <NsssP>
0

>  <NdsssP>
0

>  <NsssssP>
0

>  <NsSH>
0

>  <NdS>
0

>  <NssS>
0

>  <NaaS>
0

>  <NdssS>
0

>  <NddssS>
0

>  <NsCl>
0

>  <NsBr>
0

>  <NsI>
0

>  <fragCpx>
214.04

>  <fMF>
0.4

>  <nHBAcc>
4

>  <nHBDon>
1

>  <Kier1>
14.35

>  <Kier2>
4.76

>  <Lipinski>
1

>  <GhoseFilter>
1

>  <FilterItLogS>
-2.93

>  <VMcGowan>
224.87

>  <LabuteASA>
130.57

>  <PEOE_VSA1>
19.48

>  <PEOE_VSA2>
0

>  <PEOE_VSA3>
0

>  <PEOE_VSA4>
0

>  <PEOE_VSA5>
0

>  <PEOE_VSA6>
6.07

>  <PEOE_VSA7>
56.82

>  <PEOE_VSA8>
17.02

>  <PEOE_VSA9>
13.21

>  <PEOE_VSA10>
6.1

>  <PEOE_VSA11>
11.5

>  <PEOE_VSA12>
0

>  <PEOE_VSA13>
0

>  <SMR_VSA1>
14.58

>  <SMR_VSA2>
0

>  <SMR_VSA3>
4.9

>  <SMR_VSA4>
5.92

>  <SMR_VSA5>
49.35

>  <SMR_VSA6>
20.7

>  <SMR_VSA7>
23.26

>  <SMR_VSA8>
0

>  <SMR_VSA9>
11.5

>  <SlogP_VSA1>
9.47

>  <SlogP_VSA2>
48.96

>  <SlogP_VSA3>
11.84

>  <SlogP_VSA4>
5.92

>  <SlogP_VSA5>
30.39

>  <SlogP_VSA6>
12.13

>  <SlogP_VSA7>
0

>  <SlogP_VSA8>
0

>  <SlogP_VSA9>
0

>  <SlogP_VSA10>
0

>  <SlogP_VSA11>
11.5

>  <EState_VSA1>
0

>  <EState_VSA2>
17.62

>  <EState_VSA3>
11.96

>  <EState_VSA4>
43.73

>  <EState_VSA5>
11.13

>  <EState_VSA6>
7.11

>  <EState_VSA7>
6.07

>  <EState_VSA8>
18.01

>  <EState_VSA9>
9.47

>  <EState_VSA10>
5.11

>  <VSA_EState1>
11.91

>  <VSA_EState2>
2.52

>  <VSA_EState3>
10.64

>  <VSA_EState4>
2.77

>  <VSA_EState5>
2.34

>  <VSA_EState6>
4.83

>  <VSA_EState7>
3.69

>  <VSA_EState8>
1.09

>  <VSA_EState9>
3.96

>  <apol>
48.9

>  <bpol>
28.26

>  <nRing>
5

>  <nHRing>
2

>  <naRing>
1

>  <naHRing>
0

>  <nARing 2>
4

>  <nAHRing 2>
2

>  <nFRing>
1

>  <nFHRing>
1

>  <nFaRing>
0

>  <nFaHRing>
0

>  <nFARing 2>
1

>  <nFAHRing 2>
1

>  <nRot>
1

>  <SLogP>
1.73

>  <SMR>
82.56

>  <TopoPSA(NO)>
41.93

>  <TopoPSA>
41.93

>  <JGI1>
0.19

>  <JGI2>
0.1

>  <JGI3>
0.05

>  <JGI4>
0.05

>  <JGI5>
0.03

>  <Diameter>
9

>  <Radius>
5

>  <TMWC10>
127.61

>  <TSRW10>
72.65

>  <MW>
301.17

>  <AMW>
6.69

>  <WPath>
824

>  <WPol>
51

>  <Zagreb1>
136

>  <Zagreb2>
178

>  <mZagreb2>
4.63

>  <yes>


>  <nAR-cont>
0.199399

>  <nHA-cont>
0.983774276

>  <MWHBN>
0.288113859

>  <MWHBN-cont>
0.874735692

>  <TPSA-cont>
0.707302563

>  <pka_cont>
0.97

>  <yes.1>


>  <BBB_SCORE>
4.39488194

>  <MMFF94 Energy>
102.1

$$$$
Compound 601
Actelion Java MolfileCreator 2.0

  0  0  0  0  0  0              0 V3000
M  V30 BEGIN CTAB
M  V30 COUNTS 11 10 0 0 0
M  V30 BEGIN ATOM
M  V30 1 Br 1.5837 -1.5837 -0.554 0
M  V30 2 C -0.0195 -0.4834 -0.3355 0
M  V30 3 C -0.3419 -0.3734 1.1446 0
M  V30 4 C 0.2246 0.873 -0.9735 0
M  V30 5 H -0.8184 -1.0148 -0.8619 0
M  V30 6 H -0.5074 -1.3616 1.5878 0
M  V30 7 H 0.4699 0.108 1.7013 0
M  V30 8 H -1.2514 0.217 1.2983 0
M  V30 9 H 1.0577 1.4011 -0.496 0
M  V30 10 H -0.6661 1.5046 -0.8896 0
M  V30 11 H 0.4624 0.7721 -2.0381 0
M  V30 END ATOM
M  V30 BEGIN BOND
M  V30 1 1 1 2
M  V30 2 1 2 3
M  V30 3 1 2 4
M  V30 4 1 2 5
M  V30 5 1 3 6
M  V30 6 1 3 7
M  V30 7 1 3 8
M  V30 8 1 4 9
M  V30 9 1 4 10
M  V30 10 1 4 11
M  V30 END BOND
M  V30 END CTAB
M  END
>  <Column 1>
727

>  <level_0>
829

>  <index>
829

>  <Unnamed: 0>
829

>  <NO.>
841

>  <Name>
2-bromopropane

>  <IUPAC_name>
2-bromopropane

>  <SMILES>
CC(C)Br

>  <CID>
6358

>  <logBB>
0.56

>  <BBB+/BBB->
BBB+

>  <Inchi>
InChI=1S/C3H7Br/c1-3(2)4/h3H-1-2H3

>  <threshold>


>  <reference>
R2|R2|R3|R8|R21|R25|R27|R27|R38|R40|R41|R43|R46|R47|

>  <group>
A

>  <Class>
1

>  <ABC>
2.45

>  <ABCGG>
2.45

>  <nAcid>
0

>  <nBase>
0

>  <nAromAtom>
0

>  <nAromBond>
0

>  <nAtom>
11

>  <nHeavyAtom>
4

>  <nSpiro>
0

>  <nBridgehead>
0

>  <nHetero>
1

>  <nN>
0

>  <nO>
0

>  <nF>
0

>  <BalabanJ>
2.32

>  <BertzCT>
8

>  <nBonds>
10

>  <nBondsO>
3

>  <nBondsS>
10

>  <nBondsD>
0

>  <nBondsT>
0

>  <nBondsA>
0

>  <nBondsM>
0

>  <nBondsKS>
10

>  <nBondsKD>
0

>  <RNCG>
0.46

>  <RPCG>
0.21

>  <FCSP3>
1

>  <SZ>
10

>  <Sm>
10.24

>  <Sv>
6.19

>  <Sse>
10.78

>  <Sp>
7.62

>  <Si>
12.5

>  <MZ>
0.91

>  <Mm>
0.93

>  <Mv>
0.56

>  <Mse>
0.98

>  <Mp>
0.69

>  <Mi>
1.14

>  <NsCH3>
2

>  <NdCH2>
0

>  <NssCH2>
0

>  <NtCH>
0

>  <NdsCH>
0

>  <NaaCH>
0

>  <NsssCH>
1

>  <NddC>
0

>  <NtsC>
0

>  <NdssC>
0

>  <NaasC>
0

>  <NaaaC>
0

>  <NssssC>
0

>  <NsNH3>
0

>  <NsNH2>
0

>  <NssNH2>
0

>  <NdNH>
0

>  <NssNH>
0

>  <NaaNH>
0

>  <NtN>
0

>  <NsssNH>
0

>  <NdsN>
0

>  <NaaN>
0

>  <NsssN>
0

>  <NddsN>
0

>  <NaasN>
0

>  <NssssN>
0

>  <NsOH>
0

>  <NdO>
0

>  <NssO>
0

>  <NaaO>
0

>  <NsF>
0

>  <NsSiH3>
0

>  <NssSiH2>
0

>  <NsssSiH>
0

>  <NssssSi>
0

>  <NsPH2>
0

>  <NssPH>
0

>  <NsssP>
0

>  <NdsssP>
0

>  <NsssssP>
0

>  <NsSH>
0

>  <NdS>
0

>  <NssS>
0

>  <NaaS>
0

>  <NdssS>
0

>  <NddssS>
0

>  <NsCl>
0

>  <NsBr>
1

>  <NsI>
0

>  <fragCpx>
3.01

>  <fMF>
0

>  <nHBAcc>
0

>  <nHBDon>
0

>  <Kier1>
4

>  <Kier2>
1.33

>  <Lipinski>
1

>  <GhoseFilter>
0

>  <FilterItLogS>
-1.51

>  <VMcGowan>
70.63

>  <LabuteASA>
35.34

>  <PEOE_VSA1>
0

>  <PEOE_VSA2>
0

>  <PEOE_VSA3>
0

>  <PEOE_VSA4>
0

>  <PEOE_VSA5>
0

>  <PEOE_VSA6>
29.78

>  <PEOE_VSA7>
0

>  <PEOE_VSA8>
4.83

>  <PEOE_VSA9>
0

>  <PEOE_VSA10>
0

>  <PEOE_VSA11>
0

>  <PEOE_VSA12>
0

>  <PEOE_VSA13>
0

>  <SMR_VSA1>
0

>  <SMR_VSA2>
0

>  <SMR_VSA3>
0

>  <SMR_VSA4>
0

>  <SMR_VSA5>
18.67

>  <SMR_VSA6>
0

>  <SMR_VSA7>
0

>  <SMR_VSA8>
0

>  <SMR_VSA9>
0

>  <SlogP_VSA1>
0

>  <SlogP_VSA2>
4.83

>  <SlogP_VSA3>
0

>  <SlogP_VSA4>
0

>  <SlogP_VSA5>
13.85

>  <SlogP_VSA6>
0

>  <SlogP_VSA7>
0

>  <SlogP_VSA8>
0

>  <SlogP_VSA9>
0

>  <SlogP_VSA10>
0

>  <SlogP_VSA11>
0

>  <EState_VSA1>
0

>  <EState_VSA2>
0

>  <EState_VSA3>
4.83

>  <EState_VSA4>
0

>  <EState_VSA5>
0

>  <EState_VSA6>
0

>  <EState_VSA7>
0

>  <EState_VSA8>
29.78

>  <EState_VSA9>
0

>  <EState_VSA10>
0

>  <VSA_EState1>
0

>  <VSA_EState2>
0.65

>  <VSA_EState3>
0

>  <VSA_EState4>
0

>  <VSA_EState5>
0

>  <VSA_EState6>
0

>  <VSA_EState7>
0

>  <VSA_EState8>
4.17

>  <VSA_EState9>
0

>  <apol>
12.73

>  <bpol>
8.4

>  <nRing>
0

>  <nHRing>
0

>  <naRing>
0

>  <naHRing>
0

>  <nARing 2>
0

>  <nAHRing 2>
0

>  <nFRing>
0

>  <nFHRing>
0

>  <nFaRing>
0

>  <nFaHRing>
0

>  <nFARing 2>
0

>  <nFAHRing 2>
0

>  <nRot>
0

>  <SLogP>
1.79

>  <SMR>
24.06

>  <TopoPSA(NO)>
0

>  <TopoPSA>
0

>  <JGI1>
0.5

>  <JGI2>
0

>  <JGI3>
0

>  <JGI4>
0

>  <JGI5>
0

>  <Diameter>
2

>  <Radius>
1

>  <TMWC10>
48.77

>  <TSRW10>
24.18

>  <MW>
121.97

>  <AMW>
11.09

>  <WPath>
9

>  <WPol>
0

>  <Zagreb1>
12

>  <Zagreb2>
9

>  <mZagreb2>
1

>  <yes>


>  <nAR-cont>
0.336376

>  <nHA-cont>
0

>  <MWHBN>
0

>  <MWHBN-cont>
0

>  <TPSA-cont>
0

>  <pka_cont>
0.97

>  <yes.1>


>  <BBB_SCORE>
0.821376

>  <MMFF94 Energy>
0.64718

$$$$
Compound 602
Actelion Java MolfileCreator 2.0

  0  0  0  0  0  0              0 V3000
M  V30 BEGIN CTAB
M  V30 COUNTS 58 61 0 0 0
M  V30 BEGIN ATOM
M  V30 1 O 1.7454 0.3171 -1.5073 0
M  V30 2 C 0.5387 0.1453 -1.374 0
M  V30 3 N -0.4384 0.4986 -2.2832 0
M  V30 4 C 0.0458 -0.5165 -0.1321 0
M  V30 5 C -0.2306 1.1105 -3.5396 0
M  V30 6 C 0.8674 -1.4709 0.4799 0
M  V30 7 C -1.1873 -0.1944 0.4467 0
M  V30 8 C -1.2831 1.8799 -4.0728 0
M  V30 9 C 0.9347 0.901 -4.2866 0
M  V30 10 C 0.4506 -2.1181 1.6458 0
M  V30 11 C -1.6019 -0.844 1.6128 0
M  V30 12 N -2.4691 2.0843 -3.3605 0
M  V30 13 C -1.1699 2.3599 -5.3786 0
M  V30 14 C 1.0762 1.4275 -5.5822 0
M  V30 15 C -0.7887 -1.8109 2.2234 0
M  V30 16 C -1.0E-4 2.1516 -6.1164 0
M  V30 17 C 2.3103 1.2099 -6.3592 0
M  V30 18 C -1.2479 -2.5151 3.4846 0
M  V30 19 C 3.5732 1.4601 -5.7956 0
M  V30 20 C 2.2649 0.745 -7.6848 0
M  V30 21 N -1.5514 -1.5887 4.5866 0
M  V30 22 C 4.7456 1.257 -6.5288 0
M  V30 23 C 3.4364 0.5408 -8.4197 0
M  V30 24 C -0.3234 -0.9522 5.1134 0
M  V30 25 C -2.2236 -2.3107 5.6871 0
M  V30 26 C 4.6763 0.798 -7.8412 0
M  V30 27 C -0.61 -0.0424 6.3306 0
M  V30 28 C -2.5125 -1.3978 6.9002 0
M  V30 29 N -1.2854 -0.7692 7.423 0
M  V30 30 C -1.595 0.132 8.5299 0
M  V30 31 H -1.4072 0.2868 -2.0857 0
M  V30 32 H 1.8363 -1.7135 0.0472 0
M  V30 33 H -1.825 0.5777 0.0288 0
M  V30 34 H 1.7361 0.2884 -3.8802 0
M  V30 35 H 1.1047 -2.8577 2.1023 0
M  V30 36 H -2.5574 -0.5821 2.0648 0
M  V30 37 H -3.1705 2.6856 -3.7754 0
M  V30 38 H -2.3929 2.1226 -2.3524 0
M  V30 39 H -1.9815 2.9233 -5.8305 0
M  V30 40 H 0.0682 2.5729 -7.1174 0
M  V30 41 H -0.5071 -3.2631 3.7972 0
M  V30 42 H -2.1524 -3.0754 3.2115 0
M  V30 43 H 3.6519 1.8253 -4.7726 0
M  V30 44 H 1.3086 0.5225 -8.1534 0
M  V30 45 H 5.7106 1.4582 -6.0712 0
M  V30 46 H 3.3781 0.1767 -9.4418 0
M  V30 47 H 0.4109 -1.7155 5.4044 0
M  V30 48 H 0.1406 -0.3306 4.3391 0
M  V30 49 H -1.6147 -3.1634 6.0174 0
M  V30 50 H -3.1798 -2.7113 5.3291 0
M  V30 51 H 5.5876 0.6383 -8.4108 0
M  V30 52 H -1.2164 0.8128 6.0024 0
M  V30 53 H 0.3456 0.3547 6.6936 0
M  V30 54 H -3.2452 -0.6334 6.6073 0
M  V30 55 H -2.9735 -2.008 7.6863 0
M  V30 56 H -2.2645 0.9464 8.23 0
M  V30 57 H -0.6768 0.5724 8.934 0
M  V30 58 H -2.0683 -0.4177 9.3509 0
M  V30 END ATOM
M  V30 BEGIN BOND
M  V30 1 2 1 2
M  V30 2 1 2 3
M  V30 3 1 2 4
M  V30 4 1 3 5
M  V30 5 2 4 6
M  V30 6 1 4 7
M  V30 7 2 5 8
M  V30 8 1 5 9
M  V30 9 1 6 10
M  V30 10 2 7 11
M  V30 11 1 8 12
M  V30 12 1 8 13
M  V30 13 2 9 14
M  V30 14 2 10 15
M  V30 15 2 13 16
M  V30 16 1 14 17
M  V30 17 1 15 18
M  V30 18 2 17 19
M  V30 19 1 17 20
M  V30 20 1 18 21
M  V30 21 1 19 22
M  V30 22 2 20 23
M  V30 23 1 21 24
M  V30 24 1 21 25
M  V30 25 2 22 26
M  V30 26 1 24 27
M  V30 27 1 25 28
M  V30 28 1 27 29
M  V30 29 1 29 30
M  V30 30 1 11 15
M  V30 31 1 14 16
M  V30 32 1 23 26
M  V30 33 1 28 29
M  V30 34 1 3 31
M  V30 35 1 6 32
M  V30 36 1 7 33
M  V30 37 1 9 34
M  V30 38 1 10 35
M  V30 39 1 11 36
M  V30 40 1 12 37
M  V30 41 1 12 38
M  V30 42 1 13 39
M  V30 43 1 16 40
M  V30 44 1 18 41
M  V30 45 1 18 42
M  V30 46 1 19 43
M  V30 47 1 20 44
M  V30 48 1 22 45
M  V30 49 1 23 46
M  V30 50 1 24 47
M  V30 51 1 24 48
M  V30 52 1 25 49
M  V30 53 1 25 50
M  V30 54 1 26 51
M  V30 55 1 27 52
M  V30 56 1 27 53
M  V30 57 1 28 54
M  V30 58 1 28 55
M  V30 59 1 30 56
M  V30 60 1 30 57
M  V30 61 1 30 58
M  V30 END BOND
M  V30 END CTAB
M  END
>  <Column 1>
729

>  <level_0>
832

>  <index>
832

>  <Unnamed: 0>
832

>  <NO.>
844

>  <Name>
n-(2-amino-5-phenylphenyl)-4-[(4-methylpiperazin-1-yl)methyl]benzamide

>  <IUPAC_name>
n-(2-amino-5-phenylphenyl)-4-[(4-methylpiperazin-1-yl)methyl]benzamide

>  <SMILES>
CN1CCN(Cc2ccc(C(=O)Nc3cc(-c4ccccc4)ccc3N)cc2)CC1

>  <CID>
76511930

>  <logBB>
0.56

>  <BBB+/BBB->
BBB+

>  <Inchi>
InChI=1S/C25H28N4O/c1-28-13-15-29(16-14-28)18-19-7-9-21(10-8-19)25(30)27-24-17-22(11-12-23(24)26)20-5-3-2-4-6-20/h2-12-17H-13-16-18-26H2-1H3-(H-27-30)

>  <threshold>


>  <reference>
R47|

>  <group>
A

>  <Class>
1

>  <ABC>
23.54

>  <ABCGG>
16.68

>  <nAcid>
0

>  <nBase>
2

>  <nAromAtom>
18

>  <nAromBond>
18

>  <nAtom>
58

>  <nHeavyAtom>
30

>  <nSpiro>
0

>  <nBridgehead>
0

>  <nHetero>
5

>  <nN>
4

>  <nO>
1

>  <nF>
0

>  <BalabanJ>
1.19

>  <BertzCT>
993.42

>  <nBonds>
61

>  <nBondsO>
33

>  <nBondsS>
42

>  <nBondsD>
1

>  <nBondsT>
0

>  <nBondsA>
18

>  <nBondsM>
19

>  <nBondsKS>
51

>  <nBondsKD>
10

>  <RNCG>
0.17

>  <RPCG>
0.11

>  <FCSP3>
0.24

>  <SZ>
35.67

>  <Sm>
33.35

>  <Sv>
36.33

>  <Sse>
57.41

>  <Sp>
39.29

>  <Si>
65.19

>  <MZ>
0.61

>  <Mm>
0.57

>  <Mv>
0.63

>  <Mse>
0.99

>  <Mp>
0.68

>  <Mi>
1.12

>  <NsCH3>
1

>  <NdCH2>
0

>  <NssCH2>
5

>  <NtCH>
0

>  <NdsCH>
0

>  <NaaCH>
12

>  <NsssCH>
0

>  <NddC>
0

>  <NtsC>
0

>  <NdssC>
1

>  <NaasC>
6

>  <NaaaC>
0

>  <NssssC>
0

>  <NsNH3>
0

>  <NsNH2>
1

>  <NssNH2>
0

>  <NdNH>
0

>  <NssNH>
1

>  <NaaNH>
0

>  <NtN>
0

>  <NsssNH>
0

>  <NdsN>
0

>  <NaaN>
0

>  <NsssN>
2

>  <NddsN>
0

>  <NaasN>
0

>  <NssssN>
0

>  <NsOH>
0

>  <NdO>
1

>  <NssO>
0

>  <NaaO>
0

>  <NsF>
0

>  <NsSiH3>
0

>  <NssSiH2>
0

>  <NsssSiH>
0

>  <NssssSi>
0

>  <NsPH2>
0

>  <NssPH>
0

>  <NsssP>
0

>  <NdsssP>
0

>  <NsssssP>
0

>  <NsSH>
0

>  <NdS>
0

>  <NssS>
0

>  <NaaS>
0

>  <NdssS>
0

>  <NddssS>
0

>  <NsCl>
0

>  <NsBr>
0

>  <NsI>
0

>  <fragCpx>
219.05

>  <fMF>
0.47

>  <nHBAcc>
4

>  <nHBDon>
2

>  <Kier1>
23.17

>  <Kier2>
11.23

>  <Lipinski>
1

>  <GhoseFilter>
1

>  <FilterItLogS>
-5.75

>  <VMcGowan>
322.46

>  <LabuteASA>
177.67

>  <PEOE_VSA1>
15.95

>  <PEOE_VSA2>
9.69

>  <PEOE_VSA3>
0

>  <PEOE_VSA4>
0

>  <PEOE_VSA5>
0

>  <PEOE_VSA6>
48.53

>  <PEOE_VSA7>
48

>  <PEOE_VSA8>
38.29

>  <PEOE_VSA9>
11.37

>  <PEOE_VSA10>
0

>  <PEOE_VSA11>
0

>  <PEOE_VSA12>
0

>  <PEOE_VSA13>
5.91

>  <SMR_VSA1>
4.79

>  <SMR_VSA2>
0

>  <SMR_VSA3>
9.8

>  <SMR_VSA4>
0

>  <SMR_VSA5>
6.54

>  <SMR_VSA6>
44.28

>  <SMR_VSA7>
83.92

>  <SMR_VSA8>
0

>  <SMR_VSA9>
11.13

>  <SlogP_VSA1>
11.05

>  <SlogP_VSA2>
48.93

>  <SlogP_VSA3>
6.54

>  <SlogP_VSA4>
0

>  <SlogP_VSA5>
15.92

>  <SlogP_VSA6>
72.8

>  <SlogP_VSA7>
0

>  <SlogP_VSA8>
11.13

>  <SlogP_VSA9>
0

>  <SlogP_VSA10>
11.37

>  <SlogP_VSA11>
0

>  <EState_VSA1>
0

>  <EState_VSA2>
5.91

>  <EState_VSA3>
16.94

>  <EState_VSA4>
43.85

>  <EState_VSA5>
5.56

>  <EState_VSA6>
0

>  <EState_VSA7>
72.8

>  <EState_VSA8>
22.16

>  <EState_VSA9>
5.73

>  <EState_VSA10>
4.79

>  <VSA_EState1>
0

>  <VSA_EState2>
17.57

>  <VSA_EState3>
2.96

>  <VSA_EState4>
11.24

>  <VSA_EState5>
-0.15

>  <VSA_EState6>
23.61

>  <VSA_EState7>
0

>  <VSA_EState8>
5.28

>  <VSA_EState9>
2.16

>  <apol>
65.62

>  <bpol>
32.38

>  <nRing>
4

>  <nHRing>
1

>  <naRing>
3

>  <naHRing>
0

>  <nARing 2>
1

>  <nAHRing 2>
1

>  <nFRing>
0

>  <nFHRing>
0

>  <nFaRing>
0

>  <nFaHRing>
0

>  <nFARing 2>
0

>  <nFAHRing 2>
0

>  <nRot>
5

>  <SLogP>
3.94

>  <SMR>
123.46

>  <TopoPSA(NO)>
61.6

>  <TopoPSA>
61.6

>  <JGI1>
0.18

>  <JGI2>
0.07

>  <JGI3>
0.03

>  <JGI4>
0.04

>  <JGI5>
0.02

>  <Diameter>
18

>  <Radius>
9

>  <TMWC10>
139.08

>  <TSRW10>
65.51

>  <MW>
400.23

>  <AMW>
6.9

>  <WPath>
2901

>  <WPol>
45

>  <Zagreb1>
156

>  <Zagreb2>
180

>  <mZagreb2>
6.58

>  <yes>


>  <nAR-cont>
0.816016

>  <nHA-cont>
0.74523694

>  <MWHBN>
0.299913787

>  <MWHBN-cont>
0.840996248

>  <TPSA-cont>
0.569993749

>  <pka_cont>
0.97

>  <yes.1>


>  <BBB_SCORE>
4.447734809

>  <MMFF94 Energy>
132.84

$$$$
Compound 603
Actelion Java MolfileCreator 2.0

  0  0  0  0  0  0              0 V3000
M  V30 BEGIN CTAB
M  V30 COUNTS 22 22 0 0 0
M  V30 BEGIN ATOM
M  V30 1 O 1.4737 -1.2409 1.5513 0
M  V30 2 C 0.5433 -0.3917 1.0049 0
M  V30 3 C 1.434 -1.402 2.9647 0
M  V30 4 C 0.6142 -0.2599 -0.3922 0
M  V30 5 C -0.4249 0.3239 1.706 0
M  V30 6 O 1.584 -0.9587 -1.0679 0
M  V30 7 C -0.2662 0.5601 -1.1057 0
M  V30 8 C -1.3025 1.1631 1.016 0
M  V30 9 C -1.2194 1.2846 -0.3731 0
M  V30 10 C -0.157 0.7231 -2.6005 0
M  V30 11 N -1.4652 0.7205 -3.2616 0
M  V30 12 H 1.633 -0.4542 3.4757 0
M  V30 13 H 2.2272 -2.1026 3.2427 0
M  V30 14 H 0.4806 -1.834 3.2862 0
M  V30 15 H -0.5228 0.259 2.7838 0
M  V30 16 H 2.0662 -1.4494 -0.3735 0
M  V30 17 H -2.0547 1.7291 1.5605 0
M  V30 18 H -1.9078 1.9502 -0.8919 0
M  V30 19 H 0.355 1.6678 -2.814 0
M  V30 20 H 0.4398 -0.0812 -3.0424 0
M  V30 21 H -1.9078 -0.178 -3.0716 0
M  V30 22 H -1.3149 0.7514 -4.268 0
M  V30 END ATOM
M  V30 BEGIN BOND
M  V30 1 1 1 2
M  V30 2 1 1 3
M  V30 3 2 2 4
M  V30 4 1 2 5
M  V30 5 1 4 6
M  V30 6 1 4 7
M  V30 7 2 5 8
M  V30 8 2 7 9
M  V30 9 1 7 10
M  V30 10 1 10 11
M  V30 11 1 8 9
M  V30 12 1 3 12
M  V30 13 1 3 13
M  V30 14 1 3 14
M  V30 15 1 5 15
M  V30 16 1 6 16
M  V30 17 1 8 17
M  V30 18 1 9 18
M  V30 19 1 10 19
M  V30 20 1 10 20
M  V30 21 1 11 21
M  V30 22 1 11 22
M  V30 END BOND
M  V30 END CTAB
M  END
>  <Column 1>
730

>  <level_0>
833

>  <index>
833

>  <Unnamed: 0>
833

>  <NO.>
845

>  <Name>
2-(aminomethyl)-6-methoxyphenol

>  <IUPAC_name>
2-(aminomethyl)-6-methoxyphenol

>  <SMILES>
COc1cccc(CN)c1O

>  <CID>
16775572

>  <logBB>
0.56

>  <BBB+/BBB->
BBB+

>  <Inchi>
InChI=1S/C8H11NO2/c1-11-7-4-2-3-6(5-9)8(7)10/h2-4-10H-5-9H2-1H3

>  <threshold>


>  <reference>
R47|

>  <group>
A

>  <Class>
1

>  <ABC>
7.81

>  <ABCGG>
7.68

>  <nAcid>
0

>  <nBase>
1

>  <nAromAtom>
6

>  <nAromBond>
6

>  <nAtom>
22

>  <nHeavyAtom>
11

>  <nSpiro>
0

>  <nBridgehead>
0

>  <nHetero>
3

>  <nN>
1

>  <nO>
2

>  <nF>
0

>  <BalabanJ>
2.45

>  <BertzCT>
225.6

>  <nBonds>
22

>  <nBondsO>
11

>  <nBondsS>
16

>  <nBondsD>
0

>  <nBondsT>
0

>  <nBondsA>
6

>  <nBondsM>
6

>  <nBondsKS>
19

>  <nBondsKD>
3

>  <RNCG>
0.35

>  <RPCG>
0.2

>  <FCSP3>
0.25

>  <SZ>
13.67

>  <Sm>
12.75

>  <Sv>
13.17

>  <Sse>
22.21

>  <Sp>
14.01

>  <Si>
24.99

>  <MZ>
0.62

>  <Mm>
0.58

>  <Mv>
0.6

>  <Mse>
1.01

>  <Mp>
0.64

>  <Mi>
1.14

>  <NsCH3>
1

>  <NdCH2>
0

>  <NssCH2>
1

>  <NtCH>
0

>  <NdsCH>
0

>  <NaaCH>
3

>  <NsssCH>
0

>  <NddC>
0

>  <NtsC>
0

>  <NdssC>
0

>  <NaasC>
3

>  <NaaaC>
0

>  <NssssC>
0

>  <NsNH3>
0

>  <NsNH2>
1

>  <NssNH2>
0

>  <NdNH>
0

>  <NssNH>
0

>  <NaaNH>
0

>  <NtN>
0

>  <NsssNH>
0

>  <NdsN>
0

>  <NaaN>
0

>  <NsssN>
0

>  <NddsN>
0

>  <NaasN>
0

>  <NssssN>
0

>  <NsOH>
1

>  <NdO>
0

>  <NssO>
1

>  <NaaO>
0

>  <NsF>
0

>  <NsSiH3>
0

>  <NssSiH2>
0

>  <NsssSiH>
0

>  <NssssSi>
0

>  <NsPH2>
0

>  <NssPH>
0

>  <NsssP>
0

>  <NdsssP>
0

>  <NsssssP>
0

>  <NsSH>
0

>  <NdS>
0

>  <NssS>
0

>  <NaaS>
0

>  <NdssS>
0

>  <NddssS>
0

>  <NsCl>
0

>  <NsBr>
0

>  <NsI>
0

>  <fragCpx>
11.03

>  <fMF>
0.27

>  <nHBAcc>
3

>  <nHBDon>
2

>  <Kier1>
9.09

>  <Kier2>
4.13

>  <Lipinski>
1

>  <GhoseFilter>
0

>  <FilterItLogS>
-1.53

>  <VMcGowan>
121.54

>  <LabuteASA>
65.41

>  <PEOE_VSA1>
15.58

>  <PEOE_VSA2>
0

>  <PEOE_VSA3>
0

>  <PEOE_VSA4>
0

>  <PEOE_VSA5>
0

>  <PEOE_VSA6>
12.13

>  <PEOE_VSA7>
6.07

>  <PEOE_VSA8>
12.11

>  <PEOE_VSA9>
7.11

>  <PEOE_VSA10>
0

>  <PEOE_VSA11>
11.5

>  <PEOE_VSA12>
0

>  <PEOE_VSA13>
0

>  <SMR_VSA1>
9.84

>  <SMR_VSA2>
0

>  <SMR_VSA3>
0

>  <SMR_VSA4>
5.73

>  <SMR_VSA5>
6.54

>  <SMR_VSA6>
7.11

>  <SMR_VSA7>
23.76

>  <SMR_VSA8>
0

>  <SMR_VSA9>
11.5

>  <SlogP_VSA1>
10.47

>  <SlogP_VSA2>
12.22

>  <SlogP_VSA3>
6.54

>  <SlogP_VSA4>
0

>  <SlogP_VSA5>
5.56

>  <SlogP_VSA6>
18.2

>  <SlogP_VSA7>
0

>  <SlogP_VSA8>
0

>  <SlogP_VSA9>
0

>  <SlogP_VSA10>
0

>  <SlogP_VSA11>
11.5

>  <EState_VSA1>
0

>  <EState_VSA2>
5.75

>  <EState_VSA3>
17.86

>  <EState_VSA4>
0

>  <EState_VSA5>
7.11

>  <EState_VSA6>
18.2

>  <EState_VSA7>
0

>  <EState_VSA8>
0

>  <EState_VSA9>
10.47

>  <EState_VSA10>
5.11

>  <VSA_EState1>
4.88

>  <VSA_EState2>
0

>  <VSA_EState3>
9.38

>  <VSA_EState4>
6.06

>  <VSA_EState5>
0.6

>  <VSA_EState6>
5.24

>  <VSA_EState7>
0

>  <VSA_EState8>
0.32

>  <VSA_EState9>
1.51

>  <apol>
23.4

>  <bpol>
12.2

>  <nRing>
1

>  <nHRing>
0

>  <naRing>
1

>  <naHRing>
0

>  <nARing 2>
0

>  <nAHRing 2>
0

>  <nFRing>
0

>  <nFHRing>
0

>  <nFaRing>
0

>  <nFaHRing>
0

>  <nFARing 2>
0

>  <nFAHRing 2>
0

>  <nRot>
2

>  <SLogP>
0.86

>  <SMR>
42.55

>  <TopoPSA(NO)>
55.48

>  <TopoPSA>
55.48

>  <JGI1>
0.18

>  <JGI2>
0.11

>  <JGI3>
0.06

>  <JGI4>
0.05

>  <JGI5>
0.05

>  <Diameter>
6

>  <Radius>
3

>  <TMWC10>
87.16

>  <TSRW10>
40.86

>  <MW>
153.08

>  <AMW>
6.96

>  <WPath>
150

>  <WPol>
15

>  <Zagreb1>
50

>  <Zagreb2>
57

>  <mZagreb2>
2.72

>  <yes>


>  <nAR-cont>
0.336376

>  <nHA-cont>
0.720786536

>  <MWHBN>
0.404120403

>  <MWHBN-cont>
0.459859854

>  <TPSA-cont>
0.612715149

>  <pka_cont>
0.97

>  <yes.1>


>  <BBB_SCORE>
3.457382615

>  <MMFF94 Energy>
16.169

$$$$
Compound 604
Actelion Java MolfileCreator 2.0

  0  0  0  0  0  0              0 V3000
M  V30 BEGIN CTAB
M  V30 COUNTS 63 67 0 0 0
M  V30 BEGIN ATOM
M  V30 1 O -3.0455 -2.0028 -0.1601 0
M  V30 2 C -3.598 -1.744 0.9001 0
M  V30 3 N -3.1399 -0.8476 1.8409 0
M  V30 4 C -4.8268 -2.4755 1.2797 0
M  V30 5 C -1.9405 -0.0346 1.6861 0
M  V30 6 C -6.0375 -1.8205 1.6055 0
M  V30 7 C -4.7273 -3.8649 1.3075 0
M  V30 8 C -0.6644 -0.8783 1.612 0
M  V30 9 C -2.0391 0.938 0.5071 0
M  V30 10 C -7.1007 -2.6526 2.0112 0
M  V30 11 C -6.2537 -0.4199 1.5306 0
M  V30 12 C -5.8359 -4.5718 1.7097 0
M  V30 13 C 0.5839 -0.0032 1.497 0
M  V30 14 C -0.791 1.8117 0.4034 0
M  V30 15 N -6.9989 -3.992 2.073 0
M  V30 16 C -8.3119 -2.0685 2.3586 0
M  V30 17 C -7.4811 0.1395 1.8811 0
M  V30 18 C 0.4973 0.9736 0.3121 0
M  V30 19 C -8.512 -0.6873 2.3025 0
M  V30 20 C 1.7184 1.9155 0.2301 0
M  V30 21 C 3.0361 1.1844 -0.0748 0
M  V30 22 N 4.201 2.0869 -0.1092 0
M  V30 23 C 5.4628 1.3255 -0.2051 0
M  V30 24 C 4.1712 3.0884 -1.1884 0
M  V30 25 C 5.7808 0.7899 -1.5879 0
M  V30 26 C 4.2088 2.492 -2.6032 0
M  V30 27 C 5.2189 1.3778 -2.7368 0
M  V30 28 C 6.6986 -0.2606 -1.7314 0
M  V30 29 C 5.5551 0.8866 -4.0069 0
M  V30 30 C 7.0353 -0.7398 -2.9993 0
M  V30 31 C 6.4633 -0.1688 -4.1393 0
M  V30 32 C 6.8069 -0.6626 -5.4405 0
M  V30 33 N 7.0866 -1.0615 -6.4941 0
M  V30 34 H -3.6456 -0.7703 2.7154 0
M  V30 35 H -1.8915 0.5626 2.6068 0
M  V30 36 H -3.8096 -4.3727 1.0312 0
M  V30 37 H -0.5845 -1.5126 2.5034 0
M  V30 38 H -0.6989 -1.5576 0.7521 0
M  V30 39 H -2.9238 1.5762 0.6224 0
M  V30 40 H -2.1706 0.3941 -0.4356 0
M  V30 41 H -5.4694 0.2465 1.1768 0
M  V30 42 H -5.8238 -5.6571 1.7592 0
M  V30 43 H 0.7209 0.5567 2.4309 0
M  V30 44 H 1.4519 -0.662 1.3902 0
M  V30 45 H -0.7416 2.4756 1.2763 0
M  V30 46 H -0.8806 2.4562 -0.4793 0
M  V30 47 H -9.1303 -2.7117 2.676 0
M  V30 48 H -7.6322 1.2142 1.8158 0
M  V30 49 H 0.4536 0.387 -0.6157 0
M  V30 50 H -9.4767 -0.2675 2.5763 0
M  V30 51 H 1.5193 2.6505 -0.5581 0
M  V30 52 H 1.8169 2.4745 1.1698 0
M  V30 53 H 3.207 0.4556 0.7252 0
M  V30 54 H 2.9318 0.6112 -1.0034 0
M  V30 55 H 5.459 0.5051 0.5238 0
M  V30 56 H 6.288 1.9868 0.0912 0
M  V30 57 H 5.0406 3.7493 -1.0614 0
M  V30 58 H 3.307 3.7539 -1.0883 0
M  V30 59 H 3.2199 2.0959 -2.8646 0
M  V30 60 H 4.4467 3.2906 -3.316 0
M  V30 61 H 7.1571 -0.7115 -0.8532 0
M  V30 62 H 5.1039 1.3296 -4.8937 0
M  V30 63 H 7.7463 -1.559 -3.0893 0
M  V30 END ATOM
M  V30 BEGIN BOND
M  V30 1 2 1 2
M  V30 2 1 2 3
M  V30 3 1 2 4
M  V30 4 1 3 5
M  V30 5 1 4 6
M  V30 6 2 4 7
M  V30 7 1 5 8
M  V30 8 1 5 9
M  V30 9 1 6 10
M  V30 10 2 6 11
M  V30 11 1 7 12
M  V30 12 1 8 13
M  V30 13 1 9 14
M  V30 14 1 10 15
M  V30 15 2 10 16
M  V30 16 1 11 17
M  V30 17 1 13 18
M  V30 18 1 16 19
M  V30 19 1 18 20
M  V30 20 1 20 21
M  V30 21 1 21 22
M  V30 22 1 22 23
M  V30 23 1 22 24
M  V30 24 1 23 25
M  V30 25 1 24 26
M  V30 26 2 25 27
M  V30 27 1 25 28
M  V30 28 1 27 29
M  V30 29 2 28 30
M  V30 30 2 29 31
M  V30 31 1 31 32
M  V30 32 3 32 33
M  V30 33 2 12 15
M  V30 34 1 14 18
M  V30 35 2 17 19
M  V30 36 1 26 27
M  V30 37 1 30 31
M  V30 38 1 3 34
M  V30 39 1 5 35
M  V30 40 1 7 36
M  V30 41 1 8 37
M  V30 42 1 8 38
M  V30 43 1 9 39
M  V30 44 1 9 40
M  V30 45 1 11 41
M  V30 46 1 12 42
M  V30 47 1 13 43
M  V30 48 1 13 44
M  V30 49 1 14 45
M  V30 50 1 14 46
M  V30 51 1 16 47
M  V30 52 1 17 48
M  V30 53 1 18 49
M  V30 54 1 19 50
M  V30 55 1 20 51
M  V30 56 1 20 52
M  V30 57 1 21 53
M  V30 58 1 21 54
M  V30 59 1 23 55
M  V30 60 1 23 56
M  V30 61 1 24 57
M  V30 62 1 24 58
M  V30 63 1 26 59
M  V30 64 1 26 60
M  V30 65 1 28 61
M  V30 66 1 29 62
M  V30 67 1 30 63
M  V30 END BOND
M  V30 END CTAB
M  END
>  <Column 1>
731

>  <level_0>
834

>  <index>
834

>  <Unnamed: 0>
834

>  <NO.>
846

>  <Name>
sb-277011a

>  <IUPAC_name>
n-[4-[2-(6-cyano-3-4-dihydro-1h-isoquinolin-2-yl)ethyl]cyclohexyl]quinoline-4-carboxamide

>  <SMILES>
N#Cc1ccc2c(c1)CCN(CCC1CCC(NC(=O)c3ccnc4ccccc34)CC1)C2

>  <CID>
5311096

>  <logBB>
0.56

>  <BBB+/BBB->
BBB+

>  <Inchi>
InChI=1S/C28H30N4O/c29-18-21-5-8-23-19-32(16-13-22(23)17-21)15-12-20-6-9-24(10-7-20)31-28(33)26-11-14-30-27-4-2-1-3-25(26)27/h1-5-8-11-14-17-20-24H-6-7-9-10-12-13-15-16-19H2-(H-31-33)

>  <threshold>


>  <reference>
R18|R26|R27|

>  <group>
A

>  <Class>
1

>  <ABC>
26.11

>  <ABCGG>
17.2

>  <nAcid>
0

>  <nBase>
1

>  <nAromAtom>
16

>  <nAromBond>
17

>  <nAtom>
63

>  <nHeavyAtom>
33

>  <nSpiro>
0

>  <nBridgehead>
0

>  <nHetero>
5

>  <nN>
4

>  <nO>
1

>  <nF>
0

>  <BalabanJ>
1

>  <BertzCT>
1184.72

>  <nBonds>
67

>  <nBondsO>
37

>  <nBondsS>
48

>  <nBondsD>
1

>  <nBondsT>
1

>  <nBondsA>
17

>  <nBondsM>
19

>  <nBondsKS>
57

>  <nBondsKD>
9

>  <RNCG>
0.17

>  <RPCG>
0.12

>  <FCSP3>
0.39

>  <SZ>
39

>  <Sm>
36.51

>  <Sv>
39.87

>  <Sse>
62.3

>  <Sp>
43.09

>  <Si>
70.6

>  <MZ>
0.62

>  <Mm>
0.58

>  <Mv>
0.63

>  <Mse>
0.99

>  <Mp>
0.68

>  <Mi>
1.12

>  <NsCH3>
0

>  <NdCH2>
0

>  <NssCH2>
9

>  <NtCH>
0

>  <NdsCH>
0

>  <NaaCH>
9

>  <NsssCH>
2

>  <NddC>
0

>  <NtsC>
1

>  <NdssC>
1

>  <NaasC>
4

>  <NaaaC>
2

>  <NssssC>
0

>  <NsNH3>
0

>  <NsNH2>
0

>  <NssNH2>
0

>  <NdNH>
0

>  <NssNH>
1

>  <NaaNH>
0

>  <NtN>
1

>  <NsssNH>
0

>  <NdsN>
0

>  <NaaN>
1

>  <NsssN>
1

>  <NddsN>
0

>  <NaasN>
0

>  <NssssN>
0

>  <NsOH>
0

>  <NdO>
1

>  <NssO>
0

>  <NaaO>
0

>  <NsF>
0

>  <NsSiH3>
0

>  <NssSiH2>
0

>  <NsssSiH>
0

>  <NssssSi>
0

>  <NsPH2>
0

>  <NssPH>
0

>  <NsssP>
0

>  <NdsssP>
0

>  <NsssssP>
0

>  <NsSH>
0

>  <NdS>
0

>  <NssS>
0

>  <NaaS>
0

>  <NdssS>
0

>  <NddssS>
0

>  <NsCl>
0

>  <NsBr>
0

>  <NsI>
0

>  <fragCpx>
313.05

>  <fMF>
0.48

>  <nHBAcc>
4

>  <nHBDon>
1

>  <Kier1>
24.68

>  <Kier2>
11.82

>  <Lipinski>
1

>  <GhoseFilter>
1

>  <FilterItLogS>
-7.01

>  <VMcGowan>
349.57

>  <LabuteASA>
194.99

>  <PEOE_VSA1>
5.32

>  <PEOE_VSA2>
14.68

>  <PEOE_VSA3>
0

>  <PEOE_VSA4>
5.26

>  <PEOE_VSA5>
0

>  <PEOE_VSA6>
24.27

>  <PEOE_VSA7>
86.38

>  <PEOE_VSA8>
30.71

>  <PEOE_VSA9>
22.71

>  <PEOE_VSA10>
0

>  <PEOE_VSA11>
0

>  <PEOE_VSA12>
0

>  <PEOE_VSA13>
5.91

>  <SMR_VSA1>
4.79

>  <SMR_VSA2>
5.26

>  <SMR_VSA3>
15.2

>  <SMR_VSA4>
5.92

>  <SMR_VSA5>
51.11

>  <SMR_VSA6>
13.09

>  <SMR_VSA7>
76.98

>  <SMR_VSA8>
0

>  <SMR_VSA9>
6.07

>  <SlogP_VSA1>
5.32

>  <SlogP_VSA2>
34.92

>  <SlogP_VSA3>
12.97

>  <SlogP_VSA4>
17.25

>  <SlogP_VSA5>
59.15

>  <SlogP_VSA6>
54.73

>  <SlogP_VSA7>
0

>  <SlogP_VSA8>
10.9

>  <SlogP_VSA9>
0

>  <SlogP_VSA10>
0

>  <SlogP_VSA11>
0

>  <EState_VSA1>
0

>  <EState_VSA2>
11.95

>  <EState_VSA3>
0

>  <EState_VSA4>
66.84

>  <EState_VSA5>
30.39

>  <EState_VSA6>
6.2

>  <EState_VSA7>
36.4

>  <EState_VSA8>
33.4

>  <EState_VSA9>
5.26

>  <EState_VSA10>
4.79

>  <VSA_EState1>
0

>  <VSA_EState2>
19.83

>  <VSA_EState3>
13.29

>  <VSA_EState4>
5.05

>  <VSA_EState5>
0.76

>  <VSA_EState6>
18.26

>  <VSA_EState7>
8.44

>  <VSA_EState8>
3.2

>  <VSA_EState9>
0

>  <apol>
71.97

>  <bpol>
34.95

>  <nRing>
5

>  <nHRing>
2

>  <naRing>
3

>  <naHRing>
1

>  <nARing 2>
2

>  <nAHRing 2>
1

>  <nFRing>
2

>  <nFHRing>
2

>  <nFaRing>
1

>  <nFaHRing>
1

>  <nFARing 2>
1

>  <nFAHRing 2>
1

>  <nRot>
5

>  <SLogP>
4.84

>  <SMR>
129.71

>  <TopoPSA(NO)>
69.02

>  <TopoPSA>
69.02

>  <JGI1>
0.16

>  <JGI2>
0.07

>  <JGI3>
0.03

>  <JGI4>
0.05

>  <JGI5>
0.02

>  <Diameter>
20

>  <Radius>
10

>  <TMWC10>
147.76

>  <TSRW10>
69.28

>  <MW>
438.24

>  <AMW>
6.96

>  <WPath>
3948

>  <WPol>
53

>  <Zagreb1>
176

>  <Zagreb2>
207

>  <mZagreb2>
7.28

>  <yes>


>  <nAR-cont>
1

>  <nHA-cont>
0.61399562

>  <MWHBN>
0.238843814

>  <MWHBN-cont>
0.976510915

>  <TPSA-cont>
0.518197541

>  <pka_cont>
0.97

>  <yes.1>


>  <BBB_SCORE>
4.600157075

>  <MMFF94 Energy>
75.437

$$$$
Compound 605
Actelion Java MolfileCreator 2.0

  0  0  0  0  0  0              0 V3000
M  V30 BEGIN CTAB
M  V30 COUNTS 21 22 0 0 0
M  V30 BEGIN ATOM
M  V30 1 N -1.8985 -0.079 -1.3444 0
M  V30 2 C -1.7896 -0.0629 0.1198 0
M  V30 3 C -0.8956 0.8101 -1.9341 0
M  V30 4 C -0.3818 -0.2583 0.635 0
M  V30 5 C 0.523 0.3033 -1.6522 0
M  V30 6 C 0.7302 -0.0379 -0.1977 0
M  V30 7 C -0.1735 -0.6015 1.9789 0
M  V30 8 C 2.0256 -0.1971 0.3116 0
M  V30 9 C 1.1201 -0.7475 2.4808 0
M  V30 10 C 2.2181 -0.5474 1.6475 0
M  V30 11 H -2.8308 0.2364 -1.6045 0
M  V30 12 H -2.4308 -0.861 0.5106 0
M  V30 13 H -2.1715 0.8905 0.5058 0
M  V30 14 H -1.0238 1.8304 -1.5498 0
M  V30 15 H -1.0484 0.8579 -3.018 0
M  V30 16 H 0.7161 -0.5985 -2.2465 0
M  V30 17 H 1.2417 1.0712 -1.9615 0
M  V30 18 H -1.0213 -0.7595 2.6414 0
M  V30 19 H 2.8894 -0.0517 -0.3323 0
M  V30 20 H 1.271 -1.0198 3.522 0
M  V30 21 H 3.2253 -0.6676 2.0373 0
M  V30 END ATOM
M  V30 BEGIN BOND
M  V30 1 1 1 2
M  V30 2 1 1 3
M  V30 3 1 2 4
M  V30 4 1 3 5
M  V30 5 2 4 6
M  V30 6 1 4 7
M  V30 7 1 6 8
M  V30 8 2 7 9
M  V30 9 2 8 10
M  V30 10 1 5 6
M  V30 11 1 9 10
M  V30 12 1 1 11
M  V30 13 1 2 12
M  V30 14 1 2 13
M  V30 15 1 3 14
M  V30 16 1 3 15
M  V30 17 1 5 16
M  V30 18 1 5 17
M  V30 19 1 7 18
M  V30 20 1 8 19
M  V30 21 1 9 20
M  V30 22 1 10 21
M  V30 END BOND
M  V30 END CTAB
M  END
>  <Column 1>
732

>  <level_0>
835

>  <index>
835

>  <Unnamed: 0>
835

>  <NO.>
847

>  <Name>
nsc 15312

>  <IUPAC_name>
1-2-3-4-tetrahydroisoquinoline

>  <SMILES>
c1ccc2c(c1)CCNC2

>  <CID>
7046

>  <logBB>
0.56

>  <BBB+/BBB->
BBB+

>  <Inchi>
InChI=1S/C9H11N/c1-2-4-9-7-10-6-5-8(9)3-1/h1-4-10H-5-7H2

>  <threshold>


>  <reference>
R18|R26|R27|

>  <group>
A

>  <Class>
1

>  <ABC>
7.74

>  <ABCGG>
6.63

>  <nAcid>
0

>  <nBase>
1

>  <nAromAtom>
6

>  <nAromBond>
6

>  <nAtom>
21

>  <nHeavyAtom>
10

>  <nSpiro>
0

>  <nBridgehead>
0

>  <nHetero>
1

>  <nN>
1

>  <nO>
0

>  <nF>
0

>  <BalabanJ>
1.93

>  <BertzCT>
204.92

>  <nBonds>
22

>  <nBondsO>
11

>  <nBondsS>
16

>  <nBondsD>
0

>  <nBondsT>
0

>  <nBondsA>
6

>  <nBondsM>
6

>  <nBondsKS>
19

>  <nBondsKD>
3

>  <RNCG>
0.49

>  <RPCG>
0.19

>  <FCSP3>
0.33

>  <SZ>
12

>  <Sm>
11.09

>  <Sv>
12.74

>  <Sse>
20.55

>  <Sp>
14.05

>  <Si>
23.57

>  <MZ>
0.57

>  <Mm>
0.53

>  <Mv>
0.61

>  <Mse>
0.98

>  <Mp>
0.67

>  <Mi>
1.12

>  <NsCH3>
0

>  <NdCH2>
0

>  <NssCH2>
3

>  <NtCH>
0

>  <NdsCH>
0

>  <NaaCH>
4

>  <NsssCH>
0

>  <NddC>
0

>  <NtsC>
0

>  <NdssC>
0

>  <NaasC>
2

>  <NaaaC>
0

>  <NssssC>
0

>  <NsNH3>
0

>  <NsNH2>
0

>  <NssNH2>
0

>  <NdNH>
0

>  <NssNH>
1

>  <NaaNH>
0

>  <NtN>
0

>  <NsssNH>
0

>  <NdsN>
0

>  <NaaN>
0

>  <NsssN>
0

>  <NddsN>
0

>  <NaasN>
0

>  <NssssN>
0

>  <NsOH>
0

>  <NdO>
0

>  <NssO>
0

>  <NaaO>
0

>  <NsF>
0

>  <NsSiH3>
0

>  <NssSiH2>
0

>  <NsssSiH>
0

>  <NssssSi>
0

>  <NsPH2>
0

>  <NssPH>
0

>  <NsssP>
0

>  <NdsssP>
0

>  <NsssssP>
0

>  <NsSH>
0

>  <NdS>
0

>  <NssS>
0

>  <NaaS>
0

>  <NdssS>
0

>  <NddssS>
0

>  <NsCl>
0

>  <NsBr>
0

>  <NsI>
0

>  <fragCpx>
31.01

>  <fMF>
0.48

>  <nHBAcc>
1

>  <nHBDon>
1

>  <Kier1>
6.69

>  <Kier2>
2.94

>  <Lipinski>
1

>  <GhoseFilter>
0

>  <FilterItLogS>
-2.64

>  <VMcGowan>
113.03

>  <LabuteASA>
61.07

>  <PEOE_VSA1>
5.32

>  <PEOE_VSA2>
0

>  <PEOE_VSA3>
0

>  <PEOE_VSA4>
0

>  <PEOE_VSA5>
0

>  <PEOE_VSA6>
24.27

>  <PEOE_VSA7>
24.09

>  <PEOE_VSA8>
6.54

>  <PEOE_VSA9>
0

>  <PEOE_VSA10>
0

>  <PEOE_VSA11>
0

>  <PEOE_VSA12>
0

>  <PEOE_VSA13>
0

>  <SMR_VSA1>
0

>  <SMR_VSA2>
0

>  <SMR_VSA3>
5.32

>  <SMR_VSA4>
0

>  <SMR_VSA5>
12.97

>  <SMR_VSA6>
6.54

>  <SMR_VSA7>
35.39

>  <SMR_VSA8>
0

>  <SMR_VSA9>
0

>  <SlogP_VSA1>
5.32

>  <SlogP_VSA2>
6.54

>  <SlogP_VSA3>
12.97

>  <SlogP_VSA4>
0

>  <SlogP_VSA5>
11.13

>  <SlogP_VSA6>
24.27

>  <SlogP_VSA7>
0

>  <SlogP_VSA8>
0

>  <SlogP_VSA9>
0

>  <SlogP_VSA10>
0

>  <SlogP_VSA11>
0

>  <EState_VSA1>
0

>  <EState_VSA2>
0

>  <EState_VSA3>
0

>  <EState_VSA4>
13.09

>  <EState_VSA5>
17.55

>  <EState_VSA6>
0

>  <EState_VSA7>
0

>  <EState_VSA8>
29.58

>  <EState_VSA9>
0

>  <EState_VSA10>
0

>  <VSA_EState1>
0

>  <VSA_EState2>
0

>  <VSA_EState3>
3.34

>  <VSA_EState4>
2.98

>  <VSA_EState5>
0

>  <VSA_EState6>
8.63

>  <VSA_EState7>
1.19

>  <VSA_EState8>
2.19

>  <VSA_EState9>
0

>  <apol>
23.46

>  <bpol>
11.61

>  <nRing>
2

>  <nHRing>
1

>  <naRing>
1

>  <naHRing>
0

>  <nARing 2>
1

>  <nAHRing 2>
1

>  <nFRing>
1

>  <nFHRing>
1

>  <nFaRing>
0

>  <nFaHRing>
0

>  <nFARing 2>
1

>  <nFAHRing 2>
1

>  <nRot>
0

>  <SLogP>
1.33

>  <SMR>
41.85

>  <TopoPSA(NO)>
12.03

>  <TopoPSA>
12.03

>  <JGI1>
0.09

>  <JGI2>
0.06

>  <JGI3>
0.02

>  <JGI4>
0.05

>  <JGI5>
0

>  <Diameter>
5

>  <Radius>
3

>  <TMWC10>
86.16

>  <TSRW10>
39.86

>  <MW>
133.09

>  <AMW>
6.34

>  <WPath>
109

>  <WPol>
12

>  <Zagreb1>
50

>  <Zagreb2>
57

>  <mZagreb2>
2.28

>  <yes>


>  <nAR-cont>
0.816016

>  <nHA-cont>
0.645914733

>  <MWHBN>
0.173363347

>  <MWHBN-cont>
0.978945041

>  <TPSA-cont>
0.91602313

>  <pka_cont>
0.97

>  <yes.1>


>  <BBB_SCORE>
5.247394554

>  <MMFF94 Energy>
32.485

$$$$
Compound 606
Actelion Java MolfileCreator 2.0

  0  0  0  0  0  0              0 V3000
M  V30 BEGIN CTAB
M  V30 COUNTS 31 31 0 0 0
M  V30 BEGIN ATOM
M  V30 1 N -1.7165 0.0 -1.1701 0
M  V30 2 C -0.5101 -0.2874 -0.3381 0 CFG=1
M  V30 3 C -1.9804 -1.1045 -2.1178 0
M  V30 4 C -1.6369 1.2655 -1.9079 0
M  V30 5 C 0.1508 0.9656 0.3142 0
M  V30 6 C -0.9195 -1.2702 0.7794 0
M  V30 7 C -3.3707 -1.0801 -2.6065 0
M  V30 8 C 1.4192 0.6766 1.0895 0
M  V30 9 C -4.5043 -1.066 -3.0043 0
M  V30 10 C 2.592 0.2976 0.4212 0
M  V30 11 C 1.4401 0.7897 2.4864 0
M  V30 12 C 3.7597 0.0298 1.1376 0
M  V30 13 C 2.6088 0.5211 3.2008 0
M  V30 14 C 3.7675 0.1405 2.5267 0
M  V30 15 H 0.2469 -0.7707 -0.9706 0
M  V30 16 H -1.8324 -2.0808 -1.6447 0
M  V30 17 H -1.2788 -1.0682 -2.9612 0
M  V30 18 H -0.7486 1.3118 -2.5482 0
M  V30 19 H -2.5172 1.4229 -2.5411 0
M  V30 20 H -1.6291 2.1191 -1.222 0
M  V30 21 H 0.4318 1.6972 -0.4536 0
M  V30 22 H -0.5756 1.4704 0.9649 0
M  V30 23 H -0.0515 -1.5922 1.3636 0
M  V30 24 H -1.3771 -2.1848 0.3925 0
M  V30 25 H -1.6365 -0.8064 1.4669 0
M  V30 26 H -5.5123 -1.0494 -3.3488 0
M  V30 27 H 2.6047 0.2125 -0.6628 0
M  V30 28 H 0.5438 1.084 3.0284 0
M  V30 29 H 4.6643 -0.2633 0.6115 0
M  V30 30 H 2.6144 0.6091 4.2841 0
M  V30 31 H 4.6769 -0.0676 3.0841 0
M  V30 END ATOM
M  V30 BEGIN BOND
M  V30 1 1 1 2
M  V30 2 1 1 3
M  V30 3 1 1 4
M  V30 4 1 2 5
M  V30 5 1 2 6
M  V30 6 1 3 7
M  V30 7 1 5 8
M  V30 8 3 7 9
M  V30 9 2 8 10
M  V30 10 1 8 11
M  V30 11 1 10 12
M  V30 12 2 11 13
M  V30 13 2 12 14
M  V30 14 1 13 14
M  V30 15 1 2 15
M  V30 16 1 3 16
M  V30 17 1 3 17
M  V30 18 1 4 18
M  V30 19 1 4 19
M  V30 20 1 4 20
M  V30 21 1 5 21
M  V30 22 1 5 22
M  V30 23 1 6 23
M  V30 24 1 6 24
M  V30 25 1 6 25
M  V30 26 1 9 26
M  V30 27 1 10 27
M  V30 28 1 11 28
M  V30 29 1 12 29
M  V30 30 1 13 30
M  V30 31 1 14 31
M  V30 END BOND
M  V30 BEGIN COLLECTION
M  V30 MDLV30/STEABS ATOMS=(1 2)
M  V30 END COLLECTION
M  V30 END CTAB
M  END
>  <Column 1>
733

>  <level_0>
836

>  <index>
836

>  <Unnamed: 0>
836

>  <NO.>
848

>  <Name>
selegiline

>  <IUPAC_name>
(2r)-n-methyl-1-phenyl-n-prop-2-ynylpropan-2-amine

>  <SMILES>
C#CCN(C)[C@H](C)Cc1ccccc1

>  <CID>
26757

>  <logBB>
0.57

>  <BBB+/BBB->
BBB+

>  <Inchi>
InChI=1S/C13H17N/c1-4-10-14(3)12(2)11-13-8-6-5-7-9-13/h1-5-9-12H-10-11H2-2-3H3/t12-/m1/s1

>  <threshold>


>  <reference>
R18|R26|R27|

>  <group>
A

>  <Class>
1

>  <ABC>
10.08

>  <ABCGG>
9.32

>  <nAcid>
0

>  <nBase>
1

>  <nAromAtom>
6

>  <nAromBond>
6

>  <nAtom>
31

>  <nHeavyAtom>
14

>  <nSpiro>
0

>  <nBridgehead>
0

>  <nHetero>
1

>  <nN>
1

>  <nO>
0

>  <nF>
0

>  <BalabanJ>
2.2

>  <BertzCT>
296.76

>  <nBonds>
31

>  <nBondsO>
14

>  <nBondsS>
24

>  <nBondsD>
0

>  <nBondsT>
1

>  <nBondsA>
6

>  <nBondsM>
7

>  <nBondsKS>
27

>  <nBondsKD>
3

>  <RNCG>
0.32

>  <RPCG>
0.13

>  <FCSP3>
0.38

>  <SZ>
17

>  <Sm>
15.59

>  <Sv>
18.36

>  <Sse>
30.21

>  <Sp>
20.45

>  <Si>
34.82

>  <MZ>
0.55

>  <Mm>
0.5

>  <Mv>
0.59

>  <Mse>
0.97

>  <Mp>
0.66

>  <Mi>
1.12

>  <NsCH3>
2

>  <NdCH2>
0

>  <NssCH2>
2

>  <NtCH>
1

>  <NdsCH>
0

>  <NaaCH>
5

>  <NsssCH>
1

>  <NddC>
0

>  <NtsC>
1

>  <NdssC>
0

>  <NaasC>
1

>  <NaaaC>
0

>  <NssssC>
0

>  <NsNH3>
0

>  <NsNH2>
0

>  <NssNH2>
0

>  <NdNH>
0

>  <NssNH>
0

>  <NaaNH>
0

>  <NtN>
0

>  <NsssNH>
0

>  <NdsN>
0

>  <NaaN>
0

>  <NsssN>
1

>  <NddsN>
0

>  <NaasN>
0

>  <NssssN>
0

>  <NsOH>
0

>  <NdO>
0

>  <NssO>
0

>  <NaaO>
0

>  <NsF>
0

>  <NsSiH3>
0

>  <NssSiH2>
0

>  <NsssSiH>
0

>  <NssssSi>
0

>  <NsPH2>
0

>  <NssPH>
0

>  <NsssP>
0

>  <NdsssP>
0

>  <NsssssP>
0

>  <NsSH>
0

>  <NdS>
0

>  <NssS>
0

>  <NaaS>
0

>  <NdssS>
0

>  <NddssS>
0

>  <NsCl>
0

>  <NsBr>
0

>  <NsI>
0

>  <fragCpx>
14.01

>  <fMF>
0.19

>  <nHBAcc>
1

>  <nHBDon>
0

>  <Kier1>
12.07

>  <Kier2>
6.48

>  <Lipinski>
1

>  <GhoseFilter>
1

>  <FilterItLogS>
-2.69

>  <VMcGowan>
171.65

>  <LabuteASA>
86.75

>  <PEOE_VSA1>
0

>  <PEOE_VSA2>
4.9

>  <PEOE_VSA3>
0

>  <PEOE_VSA4>
0

>  <PEOE_VSA5>
6.42

>  <PEOE_VSA6>
36.25

>  <PEOE_VSA7>
25.96

>  <PEOE_VSA8>
6.04

>  <PEOE_VSA9>
6.54

>  <PEOE_VSA10>
0

>  <PEOE_VSA11>
0

>  <PEOE_VSA12>
0

>  <PEOE_VSA13>
0

>  <SMR_VSA1>
0

>  <SMR_VSA2>
0

>  <SMR_VSA3>
4.9

>  <SMR_VSA4>
0

>  <SMR_VSA5>
19.39

>  <SMR_VSA6>
13.59

>  <SMR_VSA7>
35.9

>  <SMR_VSA8>
0

>  <SMR_VSA9>
12.34

>  <SlogP_VSA1>
0

>  <SlogP_VSA2>
24.53

>  <SlogP_VSA3>
6.42

>  <SlogP_VSA4>
12.34

>  <SlogP_VSA5>
12.49

>  <SlogP_VSA6>
30.33

>  <SlogP_VSA7>
0

>  <SlogP_VSA8>
0

>  <SlogP_VSA9>
0

>  <SlogP_VSA10>
0

>  <SlogP_VSA11>
0

>  <EState_VSA1>
0

>  <EState_VSA2>
0

>  <EState_VSA3>
12.59

>  <EState_VSA4>
6.42

>  <EState_VSA5>
5.56

>  <EState_VSA6>
0

>  <EState_VSA7>
6.07

>  <EState_VSA8>
49.06

>  <EState_VSA9>
6.42

>  <EState_VSA10>
0

>  <VSA_EState1>
0

>  <VSA_EState2>
2.19

>  <VSA_EState3>
0

>  <VSA_EState4>
1.36

>  <VSA_EState5>
2.66

>  <VSA_EState6>
10.99

>  <VSA_EState7>
6.32

>  <VSA_EState8>
2.92

>  <VSA_EState9>
2.06

>  <apol>
34.15

>  <bpol>
18.76

>  <nRing>
1

>  <nHRing>
0

>  <naRing>
1

>  <naHRing>
0

>  <nARing 2>
0

>  <nAHRing 2>
0

>  <nFRing>
0

>  <nFHRing>
0

>  <nFaRing>
0

>  <nFaHRing>
0

>  <nFARing 2>
0

>  <nFAHRing 2>
0

>  <nRot>
4

>  <SLogP>
2.18

>  <SMR>
61.07

>  <TopoPSA(NO)>
3.24

>  <TopoPSA>
3.24

>  <JGI1>
0.18

>  <JGI2>
0.08

>  <JGI3>
0.04

>  <JGI4>
0.04

>  <JGI5>
0.02

>  <Diameter>
9

>  <Radius>
5

>  <TMWC10>
93.63

>  <TSRW10>
44.37

>  <MW>
187.14

>  <AMW>
6.04

>  <WPath>
337

>  <WPol>
16

>  <Zagreb1>
62

>  <Zagreb2>
67

>  <mZagreb2>
3.36

>  <yes>


>  <nAR-cont>
0.336376

>  <nHA-cont>
0.887625254

>  <MWHBN>
0.073099884

>  <MWHBN-cont>
0.556715368

>  <TPSA-cont>
0.977382788

>  <pka_cont>
0.97

>  <yes.1>


>  <BBB_SCORE>
4.498839883

>  <MMFF94 Energy>
39.86

$$$$
Compound 607
Actelion Java MolfileCreator 2.0

  0  0  0  0  0  0              0 V3000
M  V30 BEGIN CTAB
M  V30 COUNTS 43 47 0 0 0
M  V30 BEGIN ATOM
M  V30 1 O -1.7893 2.6034 -2.9292 0
M  V30 2 C -1.1182 1.8897 -2.1863 0
M  V30 3 C 0.3333 1.7335 -2.4455 0
M  V30 4 C -1.6825 1.2238 -0.9328 0 CFG=2
M  V30 5 C 0.9079 0.5833 -2.0744 0
M  V30 6 O -1.4004 2.2118 0.0902 0
M  V30 7 C -1.0178 -0.1112 -0.5298 0 CFG=1
M  V30 8 C 0.0797 -0.5488 -1.5265 0 CFG=2
M  V30 9 C -0.45 1.6572 0.9151 0
M  V30 10 C -0.531 0.1667 0.9034 0
M  V30 11 C -2.0125 -1.2954 -0.5049 0
M  V30 12 C 0.866 -1.7091 -0.8873 0 CFG=2
M  V30 13 C 0.4639 2.3374 1.6361 0
M  V30 14 C 0.7097 -0.5886 1.4349 0
M  V30 15 C -1.3299 -2.5952 -0.0463 0
M  V30 16 N -0.0497 -2.8566 -0.7122 0
M  V30 17 C 1.6104 -1.2008 0.3585 0
M  V30 18 O 0.6499 3.6919 1.7382 0
M  V30 19 C 1.4071 1.596 2.4509 0
M  V30 20 C 1.5395 0.2625 2.3727 0
M  V30 21 C 0.6029 -4.0454 -0.1731 0
M  V30 22 C -0.2193 4.5515 1.0133 0
M  V30 23 H 0.851 2.5386 -2.9489 0
M  V30 24 H -2.7694 1.133 -1.0349 0
M  V30 25 H 1.9602 0.4183 -2.2905 0
M  V30 26 H -0.4031 -0.9636 -2.428 0
M  V30 27 H -1.3519 -0.0616 1.603 0
M  V30 28 H -2.8598 -1.0799 0.1584 0
M  V30 29 H -2.4405 -1.4427 -1.5056 0
M  V30 30 H 1.6312 -2.0268 -1.6096 0
M  V30 31 H 0.3356 -1.4202 2.0469 0
M  V30 32 H -1.2089 -2.576 1.042 0
M  V30 33 H -2.0175 -3.4246 -0.2551 0
M  V30 34 H 2.353 -0.4577 0.0357 0
M  V30 35 H 2.2064 -2.0104 0.7993 0
M  V30 36 H 2.0281 2.1698 3.1341 0
M  V30 37 H 2.2739 -0.2385 2.9983 0
M  V30 38 H 0.8664 -3.9317 0.8837 0
M  V30 39 H 1.5132 -4.2803 -0.7355 0
M  V30 40 H -0.0543 -4.9174 -0.2658 0
M  V30 41 H -0.1137 4.3999 -0.0654 0
M  V30 42 H 0.0755 5.5827 1.2308 0
M  V30 43 H -1.2573 4.4302 1.3389 0
M  V30 END ATOM
M  V30 BEGIN BOND
M  V30 1 2 1 2
M  V30 2 1 2 3
M  V30 3 1 2 4
M  V30 4 2 3 5
M  V30 5 1 4 6
M  V30 6 1 4 7
M  V30 7 1 5 8
M  V30 8 1 6 9
M  V30 9 1 7 10
M  V30 10 1 7 11
M  V30 11 1 8 12
M  V30 12 2 9 13
M  V30 13 1 10 14
M  V30 14 1 11 15
M  V30 15 1 12 16
M  V30 16 1 12 17
M  V30 17 1 13 18
M  V30 18 1 13 19
M  V30 19 1 14 20
M  V30 20 1 16 21
M  V30 21 1 18 22
M  V30 22 1 7 8
M  V30 23 1 9 10
M  V30 24 1 14 17
M  V30 25 1 15 16
M  V30 26 2 19 20
M  V30 27 1 3 23
M  V30 28 1 4 24
M  V30 29 1 5 25
M  V30 30 1 8 26
M  V30 31 1 10 27
M  V30 32 1 11 28
M  V30 33 1 11 29
M  V30 34 1 12 30
M  V30 35 1 14 31
M  V30 36 1 15 32
M  V30 37 1 15 33
M  V30 38 1 17 34
M  V30 39 1 17 35
M  V30 40 1 19 36
M  V30 41 1 20 37
M  V30 42 1 21 38
M  V30 43 1 21 39
M  V30 44 1 21 40
M  V30 45 1 22 41
M  V30 46 1 22 42
M  V30 47 1 22 43
M  V30 END BOND
M  V30 BEGIN COLLECTION
M  V30 MDLV30/STEABS ATOMS=(4 4 7 8 12)
M  V30 END COLLECTION
M  V30 END CTAB
M  END
>  <Column 1>
734

>  <level_0>
837

>  <index>
837

>  <Unnamed: 0>
837

>  <NO.>
849

>  <Name>
oxycodone

>  <IUPAC_name>
(4r-4ar-7ar-12bs)-9-methoxy-3-methyl-1-2-4-4a-7a-11a-12a-13-octahydro-4-12-methanobenzofuro[3-2-e]isoquinolin-7-one

>  <SMILES>
COC1=C2O[C@H]3C(=O)C=C[C@H]4[C@H]5CC(C=C1)C2[C@@]34CCN5C

>  <CID>
54373571

>  <logBB>
0.57

>  <BBB+/BBB->
BBB+

>  <Inchi>
InChI=1S/C18H21NO3/c1-19-8-7-18-11-4-5-13(20)17(18)22-16-14(21-2)6-3-10(15(16)18)9-12(11)19/h3-6-10-12-15-17H-7-9H2-1-2H3/t10?-11--12+-15?-17--18-/m0/s1

>  <threshold>


>  <reference>
R25|

>  <group>
A

>  <Class>
1

>  <ABC>
18.18

>  <ABCGG>
13.97

>  <nAcid>
0

>  <nBase>
1

>  <nAromAtom>
0

>  <nAromBond>
0

>  <nAtom>
43

>  <nHeavyAtom>
22

>  <nSpiro>
1

>  <nBridgehead>
2

>  <nHetero>
4

>  <nN>
1

>  <nO>
3

>  <nF>
0

>  <BalabanJ>
1.63

>  <BertzCT>
648.72

>  <nBonds>
47

>  <nBondsO>
26

>  <nBondsS>
43

>  <nBondsD>
4

>  <nBondsT>
0

>  <nBondsA>
0

>  <nBondsM>
4

>  <nBondsKS>
43

>  <nBondsKD>
4

>  <RNCG>
0.27

>  <RPCG>
0.11

>  <FCSP3>
0.61

>  <SZ>
26.67

>  <Sm>
24.92

>  <Sv>
26.59

>  <Sse>
42.98

>  <Sp>
28.48

>  <Si>
48.28

>  <MZ>
0.62

>  <Mm>
0.58

>  <Mv>
0.62

>  <Mse>
1

>  <Mp>
0.66

>  <Mi>
1.12

>  <NsCH3>
2

>  <NdCH2>
0

>  <NssCH2>
3

>  <NtCH>
0

>  <NdsCH>
4

>  <NaaCH>
0

>  <NsssCH>
5

>  <NddC>
0

>  <NtsC>
0

>  <NdssC>
3

>  <NaasC>
0

>  <NaaaC>
0

>  <NssssC>
1

>  <NsNH3>
0

>  <NsNH2>
0

>  <NssNH2>
0

>  <NdNH>
0

>  <NssNH>
0

>  <NaaNH>
0

>  <NtN>
0

>  <NsssNH>
0

>  <NdsN>
0

>  <NaaN>
0

>  <NsssN>
1

>  <NddsN>
0

>  <NaasN>
0

>  <NssssN>
0

>  <NsOH>
0

>  <NdO>
1

>  <NssO>
2

>  <NaaO>
0

>  <NsF>
0

>  <NsSiH3>
0

>  <NssSiH2>
0

>  <NsssSiH>
0

>  <NssssSi>
0

>  <NsPH2>
0

>  <NssPH>
0

>  <NsssP>
0

>  <NdsssP>
0

>  <NsssssP>
0

>  <NsSH>
0

>  <NdS>
0

>  <NssS>
0

>  <NaaS>
0

>  <NdssS>
0

>  <NddssS>
0

>  <NsCl>
0

>  <NsBr>
0

>  <NsI>
0

>  <fragCpx>
214.04

>  <fMF>
0.42

>  <nHBAcc>
4

>  <nHBDon>
0

>  <Kier1>
14.35

>  <Kier2>
4.76

>  <Lipinski>
1

>  <GhoseFilter>
1

>  <FilterItLogS>
-1.65

>  <VMcGowan>
220.57

>  <LabuteASA>
129.99

>  <PEOE_VSA1>
14.37

>  <PEOE_VSA2>
4.79

>  <PEOE_VSA3>
0

>  <PEOE_VSA4>
0

>  <PEOE_VSA5>
0

>  <PEOE_VSA6>
12.15

>  <PEOE_VSA7>
44.5

>  <PEOE_VSA8>
23.29

>  <PEOE_VSA9>
7.11

>  <PEOE_VSA10>
5.76

>  <PEOE_VSA11>
17.65

>  <PEOE_VSA12>
0

>  <PEOE_VSA13>
0

>  <SMR_VSA1>
14.27

>  <SMR_VSA2>
0

>  <SMR_VSA3>
4.9

>  <SMR_VSA4>
23.17

>  <SMR_VSA5>
24.99

>  <SMR_VSA6>
20.7

>  <SMR_VSA7>
35.82

>  <SMR_VSA8>
0

>  <SMR_VSA9>
0

>  <SlogP_VSA1>
0

>  <SlogP_VSA2>
43.53

>  <SlogP_VSA3>
14.27

>  <SlogP_VSA4>
23.17

>  <SlogP_VSA5>
12.84

>  <SlogP_VSA6>
35.82

>  <SlogP_VSA7>
0

>  <SlogP_VSA8>
0

>  <SlogP_VSA9>
0

>  <SlogP_VSA10>
0

>  <SlogP_VSA11>
0

>  <EState_VSA1>
0

>  <EState_VSA2>
17.3

>  <EState_VSA3>
23.8

>  <EState_VSA4>
30.9

>  <EState_VSA5>
0

>  <EState_VSA6>
13.19

>  <EState_VSA7>
6.08

>  <EState_VSA8>
24.1

>  <EState_VSA9>
9.47

>  <EState_VSA10>
4.79

>  <VSA_EState1>
11.8

>  <VSA_EState2>
15.03

>  <VSA_EState3>
0

>  <VSA_EState4>
-0.06

>  <VSA_EState5>
3.07

>  <VSA_EState6>
0.51

>  <VSA_EState7>
10.11

>  <VSA_EState8>
1.05

>  <VSA_EState9>
3.91

>  <apol>
47.57

>  <bpol>
27.12

>  <nRing>
5

>  <nHRing>
2

>  <naRing>
0

>  <naHRing>
0

>  <nARing 2>
5

>  <nAHRing 2>
2

>  <nFRing>
1

>  <nFHRing>
1

>  <nFaRing>
0

>  <nFaHRing>
0

>  <nFARing 2>
1

>  <nFAHRing 2>
1

>  <nRot>
1

>  <SLogP>
1.89

>  <SMR>
80.75

>  <TopoPSA(NO)>
38.77

>  <TopoPSA>
38.77

>  <JGI1>
0.19

>  <JGI2>
0.1

>  <JGI3>
0.05

>  <JGI4>
0.05

>  <JGI5>
0.03

>  <Diameter>
9

>  <Radius>
5

>  <TMWC10>
127.61

>  <TSRW10>
72.65

>  <MW>
299.15

>  <AMW>
6.96

>  <WPath>
824

>  <WPol>
51

>  <Zagreb1>
136

>  <Zagreb2>
178

>  <mZagreb2>
4.63

>  <yes>


>  <nAR-cont>
0

>  <nHA-cont>
0.983774276

>  <MWHBN>
0.23126797

>  <MWHBN-cont>
0.985469764

>  <TPSA-cont>
0.729361325

>  <pka_cont>
0.97

>  <yes.1>


>  <BBB_SCORE>
4.405701572

>  <MMFF94 Energy>
100.05

$$$$
Compound 608
Actelion Java MolfileCreator 2.0

  0  0  0  0  0  0              0 V3000
M  V30 BEGIN CTAB
M  V30 COUNTS 52 56 0 0 0
M  V30 BEGIN ATOM
M  V30 1 O 1.2783 3.0381 -5.201 0
M  V30 2 C 0.2752 2.1453 -4.9835 0
M  V30 3 C 1.397 2.9661 -6.6371 0
M  V30 4 C -0.1877 1.582 -6.1491 0
M  V30 5 C -0.2503 1.8113 -3.7528 0
M  V30 6 O 0.4658 2.0487 -7.2466 0
M  V30 7 C -1.2031 0.6518 -6.1513 0
M  V30 8 C -1.2869 0.8641 -3.7114 0
M  V30 9 C -1.7564 0.2926 -4.9184 0
M  V30 10 C -1.9089 0.4667 -2.3875 0
M  V30 11 N -1.8125 -0.9754 -2.1096 0
M  V30 12 C -2.6847 -1.38 -0.9984 0
M  V30 13 C -0.4339 -1.4381 -1.8815 0
M  V30 14 C -2.1819 -0.9414 0.3767 0
M  V30 15 C 0.1564 -1.0085 -0.5385 0
M  V30 16 C -0.753 -1.439 0.6138 0
M  V30 17 N -0.2574 -0.8984 1.8733 0
M  V30 18 C 0.6681 -1.5427 2.6156 0
M  V30 19 N 1.2024 -2.73 2.326 0
M  V30 20 C 1.1998 -1.0092 3.8277 0
M  V30 21 N 2.0596 -2.9574 3.3316 0
M  V30 22 C 2.1089 -1.9629 4.2684 0
M  V30 23 C 1.0145 0.1632 4.5934 0
M  V30 24 C 2.8576 -1.8238 5.4385 0
M  V30 25 C 1.7516 0.3311 5.7725 0
M  V30 26 C 2.6569 -0.6537 6.1793 0
M  V30 27 O 1.6774 1.4107 6.6128 0
M  V30 28 C 0.7708 2.4454 6.2537 0
M  V30 29 H 2.416 2.6503 -6.8889 0
M  V30 30 H 1.2265 3.9659 -7.0529 0
M  V30 31 H 0.1377 2.2709 -2.8505 0
M  V30 32 H -1.5578 0.2114 -7.0758 0
M  V30 33 H -2.5545 -0.4474 -4.8861 0
M  V30 34 H -2.9656 0.7606 -2.4498 0
M  V30 35 H -1.4797 1.0652 -1.5752 0
M  V30 36 H -2.776 -2.4741 -1.0123 0
M  V30 37 H -3.703 -1.0043 -1.1575 0
M  V30 38 H -0.4324 -2.5352 -1.9317 0
M  V30 39 H 0.2292 -1.1193 -2.6937 0
M  V30 40 H -2.2301 0.1514 0.4654 0
M  V30 41 H -2.8467 -1.3402 1.1532 0
M  V30 42 H 0.3114 0.0775 -0.5199 0
M  V30 43 H 1.1498 -1.4588 -0.422 0
M  V30 44 H -0.7907 -2.5361 0.6563 0
M  V30 45 H -0.5759 0.027 2.1295 0
M  V30 46 H 2.5892 -3.8207 3.3215 0
M  V30 47 H 0.3043 0.9023 4.247 0
M  V30 48 H 3.5628 -2.5801 5.7658 0
M  V30 49 H 3.2214 -0.5068 7.0984 0
M  V30 50 H 1.0484 2.899 5.2965 0
M  V30 51 H 0.8312 3.2239 7.0205 0
M  V30 52 H -0.2603 2.0775 6.2336 0
M  V30 END ATOM
M  V30 BEGIN BOND
M  V30 1 1 1 2
M  V30 2 1 1 3
M  V30 3 2 2 4
M  V30 4 1 2 5
M  V30 5 1 3 6
M  V30 6 1 4 7
M  V30 7 2 5 8
M  V30 8 2 7 9
M  V30 9 1 8 10
M  V30 10 1 10 11
M  V30 11 1 11 12
M  V30 12 1 11 13
M  V30 13 1 12 14
M  V30 14 1 13 15
M  V30 15 1 14 16
M  V30 16 1 16 17
M  V30 17 1 17 18
M  V30 18 2 18 19
M  V30 19 1 18 20
M  V30 20 1 19 21
M  V30 21 2 20 22
M  V30 22 1 20 23
M  V30 23 1 22 24
M  V30 24 2 23 25
M  V30 25 2 24 26
M  V30 26 1 25 27
M  V30 27 1 27 28
M  V30 28 1 4 6
M  V30 29 1 8 9
M  V30 30 1 15 16
M  V30 31 1 21 22
M  V30 32 1 25 26
M  V30 33 1 3 29
M  V30 34 1 3 30
M  V30 35 1 5 31
M  V30 36 1 7 32
M  V30 37 1 9 33
M  V30 38 1 10 34
M  V30 39 1 10 35
M  V30 40 1 12 36
M  V30 41 1 12 37
M  V30 42 1 13 38
M  V30 43 1 13 39
M  V30 44 1 14 40
M  V30 45 1 14 41
M  V30 46 1 15 42
M  V30 47 1 15 43
M  V30 48 1 16 44
M  V30 49 1 17 45
M  V30 50 1 21 46
M  V30 51 1 23 47
M  V30 52 1 24 48
M  V30 53 1 26 49
M  V30 54 1 28 50
M  V30 55 1 28 51
M  V30 56 1 28 52
M  V30 END BOND
M  V30 END CTAB
M  END
>  <Column 1>
735

>  <level_0>
838

>  <index>
838

>  <Unnamed: 0>
838

>  <NO.>
850

>  <Name>
chembl371222

>  <IUPAC_name>
n-[1-(1-3-benzodioxol-5-ylmethyl)piperidin-4-yl]-5-methoxy-1h-indazol-3-amine

>  <SMILES>
COc1ccc2[nH]nc(NC3CCN(Cc4ccc5c(c4)OCO5)CC3)c2c1

>  <CID>
11531010

>  <logBB>
0.57

>  <BBB+/BBB->
BBB+

>  <Inchi>
InChI=1S/C21H24N4O3/c1-26-16-3-4-18-17(11-16)21(24-23-18)22-15-6-8-25(9-7-15)12-14-2-5-19-20(10-14)28-13-27-19/h2-5-10-11-15H-6-9-12-13H2-1H3-(H2-22-23-24)

>  <threshold>


>  <reference>
R2|R2|R20|R25|R27|R46|

>  <group>
A

>  <Class>
1

>  <ABC>
22.51

>  <ABCGG>
16.33

>  <nAcid>
0

>  <nBase>
1

>  <nAromAtom>
15

>  <nAromBond>
16

>  <nAtom>
52

>  <nHeavyAtom>
28

>  <nSpiro>
0

>  <nBridgehead>
0

>  <nHetero>
7

>  <nN>
4

>  <nO>
3

>  <nF>
0

>  <BalabanJ>
1.05

>  <BertzCT>
978.94

>  <nBonds>
56

>  <nBondsO>
32

>  <nBondsS>
40

>  <nBondsD>
0

>  <nBondsT>
0

>  <nBondsA>
16

>  <nBondsM>
16

>  <nBondsKS>
49

>  <nBondsKD>
7

>  <RNCG>
0.18

>  <RPCG>
0.09

>  <FCSP3>
0.38

>  <SZ>
33.67

>  <Sm>
31.67

>  <Sv>
32.68

>  <Sse>
52.3

>  <Sp>
34.66

>  <Si>
58.77

>  <MZ>
0.65

>  <Mm>
0.61

>  <Mv>
0.63

>  <Mse>
1.01

>  <Mp>
0.67

>  <Mi>
1.13

>  <NsCH3>
1

>  <NdCH2>
0

>  <NssCH2>
6

>  <NtCH>
0

>  <NdsCH>
0

>  <NaaCH>
6

>  <NsssCH>
1

>  <NddC>
0

>  <NtsC>
0

>  <NdssC>
0

>  <NaasC>
5

>  <NaaaC>
2

>  <NssssC>
0

>  <NsNH3>
0

>  <NsNH2>
0

>  <NssNH2>
0

>  <NdNH>
0

>  <NssNH>
1

>  <NaaNH>
1

>  <NtN>
0

>  <NsssNH>
0

>  <NdsN>
0

>  <NaaN>
1

>  <NsssN>
1

>  <NddsN>
0

>  <NaasN>
0

>  <NssssN>
0

>  <NsOH>
0

>  <NdO>
0

>  <NssO>
3

>  <NaaO>
0

>  <NsF>
0

>  <NsSiH3>
0

>  <NssSiH2>
0

>  <NsssSiH>
0

>  <NssssSi>
0

>  <NsPH2>
0

>  <NssPH>
0

>  <NsssP>
0

>  <NdsssP>
0

>  <NsssssP>
0

>  <NsSH>
0

>  <NdS>
0

>  <NssS>
0

>  <NaaS>
0

>  <NdssS>
0

>  <NddssS>
0

>  <NsCl>
0

>  <NsBr>
0

>  <NsI>
0

>  <fragCpx>
268.07

>  <fMF>
0.5

>  <nHBAcc>
6

>  <nHBDon>
2

>  <Kier1>
19.93

>  <Kier2>
9.01

>  <Lipinski>
1

>  <GhoseFilter>
1

>  <FilterItLogS>
-5.29

>  <VMcGowan>
279.88

>  <LabuteASA>
163.13

>  <PEOE_VSA1>
19.53

>  <PEOE_VSA2>
10

>  <PEOE_VSA3>
0

>  <PEOE_VSA4>
5.1

>  <PEOE_VSA5>
0

>  <PEOE_VSA6>
6.07

>  <PEOE_VSA7>
48.74

>  <PEOE_VSA8>
31.06

>  <PEOE_VSA9>
12.63

>  <PEOE_VSA10>
5.75

>  <PEOE_VSA11>
17.32

>  <PEOE_VSA12>
6.79

>  <PEOE_VSA13>
0

>  <SMR_VSA1>
14.21

>  <SMR_VSA2>
0

>  <SMR_VSA3>
15.1

>  <SMR_VSA4>
0

>  <SMR_VSA5>
25.43

>  <SMR_VSA6>
32.31

>  <SMR_VSA7>
41.96

>  <SMR_VSA8>
0

>  <SMR_VSA9>
17.25

>  <SlogP_VSA1>
19.53

>  <SlogP_VSA2>
48.13

>  <SlogP_VSA3>
6.54

>  <SlogP_VSA4>
0

>  <SlogP_VSA5>
18.41

>  <SlogP_VSA6>
36.4

>  <SlogP_VSA7>
0

>  <SlogP_VSA8>
10.9

>  <SlogP_VSA9>
0

>  <SlogP_VSA10>
5.82

>  <SlogP_VSA11>
17.25

>  <EState_VSA1>
0

>  <EState_VSA2>
0

>  <EState_VSA3>
12.83

>  <EState_VSA4>
66.45

>  <EState_VSA5>
5.56

>  <EState_VSA6>
7.11

>  <EState_VSA7>
24.27

>  <EState_VSA8>
32.55

>  <EState_VSA9>
14.21

>  <EState_VSA10>
0

>  <VSA_EState1>
16.22

>  <VSA_EState2>
2.49

>  <VSA_EState3>
12.23

>  <VSA_EState4>
2.28

>  <VSA_EState5>
3.45

>  <VSA_EState6>
12.61

>  <VSA_EState7>
2.17

>  <VSA_EState8>
3.37

>  <VSA_EState9>
1.68

>  <apol>
57.88

>  <bpol>
32.13

>  <nRing>
5

>  <nHRing>
3

>  <naRing>
3

>  <naHRing>
1

>  <nARing 2>
2

>  <nAHRing 2>
2

>  <nFRing>
2

>  <nFHRing>
2

>  <nFaRing>
1

>  <nFaHRing>
1

>  <nFARing 2>
1

>  <nFAHRing 2>
1

>  <nRot>
5

>  <SLogP>
3.38

>  <SMR>
107.13

>  <TopoPSA(NO)>
71.64

>  <TopoPSA>
71.64

>  <JGI1>
0.17

>  <JGI2>
0.06

>  <JGI3>
0.04

>  <JGI4>
0.04

>  <JGI5>
0.02

>  <Diameter>
16

>  <Radius>
8

>  <TMWC10>
136.91

>  <TSRW10>
79.36

>  <MW>
380.18

>  <AMW>
7.31

>  <WPath>
2380

>  <WPol>
42

>  <Zagreb1>
154

>  <Zagreb2>
183

>  <mZagreb2>
6.08

>  <yes>


>  <nAR-cont>
1

>  <nHA-cont>
0.82432561

>  <MWHBN>
0.410294177

>  <MWHBN-cont>
0.43567063

>  <TPSA-cont>
0.499908314

>  <pka_cont>
0.97

>  <yes.1>


>  <BBB_SCORE>
3.962648183

>  <MMFF94 Energy>
8.3134

$$$$
Compound 609
Actelion Java MolfileCreator 2.0

  0  0  0  0  0  0              0 V3000
M  V30 BEGIN CTAB
M  V30 COUNTS 64 66 0 0 0
M  V30 BEGIN ATOM
M  V30 1 F 5.6598 -1.8307 -5.6598 0
M  V30 2 C 5.4089 -1.8792 -4.3211 0
M  V30 3 F 6.4849 -1.2969 -3.7165 0
M  V30 4 F 5.4767 -3.2022 -3.9838 0
M  V30 5 C 4.0947 -1.242 -3.9073 0
M  V30 6 N 3.4646 -0.3997 -4.7593 0
M  V30 7 C 3.5913 -1.5169 -2.6461 0
M  V30 8 C 2.333 0.1748 -4.3246 0
M  V30 9 C 2.4035 -0.921 -2.2754 0
M  V30 10 N 1.7893 -0.072 -3.1186 0
M  V30 11 C 1.5724 1.0952 -5.2761 0
M  V30 12 N 1.8383 -1.1461 -1.024 0
M  V30 13 C 2.524 1.7548 -6.2934 0
M  V30 14 C 0.5282 0.2569 -6.0307 0
M  V30 15 C 0.8593 2.2175 -4.4965 0
M  V30 16 C 1.7905 -2.5163 -0.4932 0
M  V30 17 C 0.6655 -0.3195 -0.6888 0
M  V30 18 C 1.4259 -2.5226 1.0089 0
M  V30 19 C 0.3295 -0.3975 0.8184 0
M  V30 20 N 0.177 -1.7864 1.3128 0
M  V30 21 C -0.0906 -1.8308 2.7604 0
M  V30 22 C -1.4959 -1.3269 3.116 0
M  V30 23 C -1.7875 -1.5189 4.6077 0
M  V30 24 C -3.2131 -1.113 4.9983 0
M  V30 25 N -3.4619 0.3214 4.8721 0
M  V30 26 C -3.0104 1.1666 5.8864 0
M  V30 27 C -4.1339 0.8036 3.762 0
M  V30 28 O -2.4063 0.797 6.8902 0
M  V30 29 C -3.2945 2.6165 5.7022 0
M  V30 30 C -4.38 2.1104 3.6106 0
M  V30 31 C -3.9469 3.0579 4.6151 0
M  V30 32 C -4.2571 4.5043 4.3819 0
M  V30 33 H 4.1398 -2.1624 -1.9726 0
M  V30 34 H 3.0152 1.0116 -6.9322 0
M  V30 35 H 1.9819 2.4416 -6.9539 0
M  V30 36 H 3.3098 2.3286 -5.788 0
M  V30 37 H 1.002 -0.5461 -6.6074 0
M  V30 38 H -0.183 -0.2126 -5.3408 0
M  V30 39 H -0.0459 0.8753 -6.7299 0
M  V30 40 H 1.5725 2.806 -3.9073 0
M  V30 41 H 0.108 1.8197 -3.8041 0
M  V30 42 H 0.341 2.9034 -5.1765 0
M  V30 43 H 2.7524 -3.0291 -0.5934 0
M  V30 44 H 1.047 -3.0968 -1.0544 0
M  V30 45 H -0.202 -0.6536 -1.273 0
M  V30 46 H 0.8506 0.736 -0.9261 0
M  V30 47 H 1.3193 -3.5682 1.3226 0
M  V30 48 H 2.2632 -2.095 1.5776 0
M  V30 49 H 1.1185 0.1178 1.3829 0
M  V30 50 H -0.5992 0.1625 0.9696 0
M  V30 51 H 0.6657 -1.2642 3.3189 0
M  V30 52 H -0.0206 -2.8729 3.0988 0
M  V30 53 H -2.2438 -1.8694 2.5245 0
M  V30 54 H -1.5861 -0.2649 2.8677 0
M  V30 55 H -1.6514 -2.5761 4.8665 0
M  V30 56 H -1.0584 -0.9504 5.1974 0
M  V30 57 H -3.3763 -1.392 6.0469 0
M  V30 58 H -3.9489 -1.6714 4.4069 0
M  V30 59 H -4.4513 0.0809 3.0162 0
M  V30 60 H -2.944 3.2704 6.4905 0
M  V30 61 H -4.9072 2.474 2.7338 0
M  V30 62 H -3.8888 5.1363 5.1973 0
M  V30 63 H -3.79 4.8538 3.455 0
M  V30 64 H -5.3388 4.659 4.3056 0
M  V30 END ATOM
M  V30 BEGIN BOND
M  V30 1 1 1 2
M  V30 2 1 2 3
M  V30 3 1 2 4
M  V30 4 1 2 5
M  V30 5 2 5 6
M  V30 6 1 5 7
M  V30 7 1 6 8
M  V30 8 2 7 9
M  V30 9 2 8 10
M  V30 10 1 8 11
M  V30 11 1 9 12
M  V30 12 1 11 13
M  V30 13 1 11 14
M  V30 14 1 11 15
M  V30 15 1 12 16
M  V30 16 1 12 17
M  V30 17 1 16 18
M  V30 18 1 17 19
M  V30 19 1 18 20
M  V30 20 1 20 21
M  V30 21 1 21 22
M  V30 22 1 22 23
M  V30 23 1 23 24
M  V30 24 1 24 25
M  V30 25 1 25 26
M  V30 26 1 25 27
M  V30 27 2 26 28
M  V30 28 1 26 29
M  V30 29 2 27 30
M  V30 30 2 29 31
M  V30 31 1 31 32
M  V30 32 1 9 10
M  V30 33 1 19 20
M  V30 34 1 30 31
M  V30 35 1 7 33
M  V30 36 1 13 34
M  V30 37 1 13 35
M  V30 38 1 13 36
M  V30 39 1 14 37
M  V30 40 1 14 38
M  V30 41 1 14 39
M  V30 42 1 15 40
M  V30 43 1 15 41
M  V30 44 1 15 42
M  V30 45 1 16 43
M  V30 46 1 16 44
M  V30 47 1 17 45
M  V30 48 1 17 46
M  V30 49 1 18 47
M  V30 50 1 18 48
M  V30 51 1 19 49
M  V30 52 1 19 50
M  V30 53 1 21 51
M  V30 54 1 21 52
M  V30 55 1 22 53
M  V30 56 1 22 54
M  V30 57 1 23 55
M  V30 58 1 23 56
M  V30 59 1 24 57
M  V30 60 1 24 58
M  V30 61 1 27 59
M  V30 62 1 29 60
M  V30 63 1 30 61
M  V30 64 1 32 62
M  V30 65 1 32 63
M  V30 66 1 32 64
M  V30 END BOND
M  V30 END CTAB
M  END
>  <Column 1>
736

>  <level_0>
839

>  <index>
839

>  <Unnamed: 0>
839

>  <NO.>
851

>  <Name>
chembl382773

>  <IUPAC_name>
1-[4-[4-[2-tert-butyl-6-(trifluoromethyl)pyrimidin-4-yl]piperazin-1-yl]butyl]-4-methylpyridin-2-one

>  <SMILES>
Cc1ccn(CCCCN2CCN(c3cc(C(F)(F)F)nc(C(C)(C)C)n3)CC2)c(=O)c1

>  <CID>
15949564

>  <logBB>
0.57

>  <BBB+/BBB->
BBB+

>  <Inchi>
InChI=1S/C23H32F3N5O/c1-17-7-10-31(20(32)15-17)9-6-5-8-29-11-13-30(14-12-29)19-16-18(23(24-25)26)27-21(28-19)22(2-3)4/h7-10-15-16H-5-6-8-9-11-14H2-1-4H3

>  <threshold>


>  <reference>
R18|R26|R27|

>  <group>
A

>  <Class>
1

>  <ABC>
25.01

>  <ABCGG>
18.56

>  <nAcid>
0

>  <nBase>
1

>  <nAromAtom>
12

>  <nAromBond>
12

>  <nAtom>
64

>  <nHeavyAtom>
32

>  <nSpiro>
0

>  <nBridgehead>
0

>  <nHetero>
9

>  <nN>
5

>  <nO>
1

>  <nF>
3

>  <BalabanJ>
1.4

>  <BertzCT>
940.57

>  <nBonds>
66

>  <nBondsO>
34

>  <nBondsS>
53

>  <nBondsD>
1

>  <nBondsT>
0

>  <nBondsA>
12

>  <nBondsM>
13

>  <nBondsKS>
60

>  <nBondsKD>
6

>  <RNCG>
0.14

>  <RPCG>
0.17

>  <FCSP3>
0.61

>  <SZ>
40

>  <Sm>
37.59

>  <Sv>
38.11

>  <Sse>
64.72

>  <Sp>
40.55

>  <Si>
73.95

>  <MZ>
0.63

>  <Mm>
0.59

>  <Mv>
0.6

>  <Mse>
1.01

>  <Mp>
0.63

>  <Mi>
1.16

>  <NsCH3>
4

>  <NdCH2>
0

>  <NssCH2>
8

>  <NtCH>
0

>  <NdsCH>
0

>  <NaaCH>
4

>  <NsssCH>
0

>  <NddC>
0

>  <NtsC>
0

>  <NdssC>
0

>  <NaasC>
4

>  <NaaaC>
0

>  <NssssC>
2

>  <NsNH3>
0

>  <NsNH2>
0

>  <NssNH2>
0

>  <NdNH>
0

>  <NssNH>
0

>  <NaaNH>
0

>  <NtN>
0

>  <NsssNH>
0

>  <NdsN>
0

>  <NaaN>
2

>  <NsssN>
2

>  <NddsN>
0

>  <NaasN>
1

>  <NssssN>
0

>  <NsOH>
0

>  <NdO>
1

>  <NssO>
0

>  <NaaO>
0

>  <NsF>
3

>  <NsSiH3>
0

>  <NssSiH2>
0

>  <NsssSiH>
0

>  <NssssSi>
0

>  <NsPH2>
0

>  <NssPH>
0

>  <NsssP>
0

>  <NdsssP>
0

>  <NsssssP>
0

>  <NsSH>
0

>  <NdS>
0

>  <NssS>
0

>  <NaaS>
0

>  <NdssS>
0

>  <NddssS>
0

>  <NsCl>
0

>  <NsBr>
0

>  <NsI>
0

>  <fragCpx>
164.09

>  <fMF>
0.34

>  <nHBAcc>
6

>  <nHBDon>
0

>  <Kier1>
26.6

>  <Kier2>
11.16

>  <Lipinski>
1

>  <GhoseFilter>
1

>  <FilterItLogS>
-6.03

>  <VMcGowan>
337.6

>  <LabuteASA>
186.64

>  <PEOE_VSA1>
9.47

>  <PEOE_VSA2>
9.69

>  <PEOE_VSA3>
9.97

>  <PEOE_VSA4>
13.17

>  <PEOE_VSA5>
0

>  <PEOE_VSA6>
20.77

>  <PEOE_VSA7>
37.94

>  <PEOE_VSA8>
56.47

>  <PEOE_VSA9>
0

>  <PEOE_VSA10>
17.34

>  <PEOE_VSA11>
0

>  <PEOE_VSA12>
0

>  <PEOE_VSA13>
5.56

>  <SMR_VSA1>
13.17

>  <SMR_VSA2>
0

>  <SMR_VSA3>
19.43

>  <SMR_VSA4>
0

>  <SMR_VSA5>
58.67

>  <SMR_VSA6>
37.62

>  <SMR_VSA7>
51.83

>  <SMR_VSA8>
0

>  <SMR_VSA9>
0

>  <SlogP_VSA1>
10.46

>  <SlogP_VSA2>
52.16

>  <SlogP_VSA3>
18.14

>  <SlogP_VSA4>
6.92

>  <SlogP_VSA5>
50.69

>  <SlogP_VSA6>
29.19

>  <SlogP_VSA7>
0

>  <SlogP_VSA8>
0

>  <SlogP_VSA9>
0

>  <SlogP_VSA10>
18.99

>  <SlogP_VSA11>
0

>  <EState_VSA1>
17.29

>  <EState_VSA2>
11.38

>  <EState_VSA3>
25.45

>  <EState_VSA4>
44.11

>  <EState_VSA5>
0

>  <EState_VSA6>
10.63

>  <EState_VSA7>
44.86

>  <EState_VSA8>
14.87

>  <EState_VSA9>
0

>  <EState_VSA10>
17.97

>  <VSA_EState1>
41.83

>  <VSA_EState2>
24.39

>  <VSA_EState3>
0

>  <VSA_EState4>
-0.47

>  <VSA_EState5>
0.55

>  <VSA_EState6>
4.63

>  <VSA_EState7>
-0.81

>  <VSA_EState8>
11.71

>  <VSA_EState9>
0

>  <apol>
67.72

>  <bpol>
43.72

>  <nRing>
3

>  <nHRing>
3

>  <naRing>
2

>  <naHRing>
2

>  <nARing 2>
1

>  <nAHRing 2>
1

>  <nFRing>
0

>  <nFHRing>
0

>  <nFaRing>
0

>  <nFaHRing>
0

>  <nFARing 2>
0

>  <nFAHRing 2>
0

>  <nRot>
6

>  <SLogP>
3.87

>  <SMR>
119.06

>  <TopoPSA(NO)>
54.26

>  <TopoPSA>
54.26

>  <JGI1>
0.29

>  <JGI2>
0.09

>  <JGI3>
0.04

>  <JGI4>
0.05

>  <JGI5>
0.04

>  <Diameter>
17

>  <Radius>
9

>  <TMWC10>
143.19

>  <TSRW10>
68.07

>  <MW>
451.26

>  <AMW>
7.05

>  <WPath>
3519

>  <WPol>
49

>  <Zagreb1>
168

>  <Zagreb2>
192

>  <mZagreb2>
6.72

>  <yes>


>  <nAR-cont>
0.816016

>  <nHA-cont>
0.658856097

>  <MWHBN>
0.282447562

>  <MWHBN-cont>
0.889810804

>  <TPSA-cont>
0.621231507

>  <pka_cont>
0.97

>  <yes.1>


>  <BBB_SCORE>
4.537051316

>  <MMFF94 Energy>
88.403

$$$$
Compound 610
Actelion Java MolfileCreator 2.0

  0  0  0  0  0  0              0 V3000
M  V30 BEGIN CTAB
M  V30 COUNTS 41 44 0 0 0
M  V30 BEGIN ATOM
M  V30 1 Cl -1.3133 -2.5458 -0.1641 0
M  V30 2 C -2.443 -1.3573 -0.6941 0
M  V30 3 C -2.0505 -0.1007 -1.1625 0
M  V30 4 C -3.8017 -1.6837 -0.6582 0
M  V30 5 C -0.6314 0.319 -1.2334 0
M  V30 6 C -3.0076 0.8108 -1.6286 0
M  V30 7 C -4.7583 -0.7664 -1.1004 0
M  V30 8 N -0.0648 0.2676 -2.3899 0
M  V30 9 C 0.0719 0.8563 0.0193 0
M  V30 10 C -4.3614 0.4775 -1.59 0
M  V30 11 C 1.3362 0.6789 -2.5156 0
M  V30 12 C 1.1932 -0.0849 0.5315 0
M  V30 13 C -0.881 1.2329 1.17 0
M  V30 14 C 2.2454 -0.2404 -1.7872 0
M  V30 15 N 2.1224 -0.6014 -0.4675 0
M  V30 16 C 1.9607 0.6473 1.6576 0
M  V30 17 C -0.1227 1.918 2.3078 0
M  V30 18 N 3.281 -0.8666 -2.3062 0
M  V30 19 C 3.0427 -1.6137 -0.2804 0
M  V30 20 C 1.0356 1.0578 2.8036 0
M  V30 21 Cl -1.2401 2.2666 3.6539 0
M  V30 22 N 3.7775 -1.7251 -1.3657 0
M  V30 23 C 3.1944 -2.443 0.9377 0
M  V30 24 H -4.1247 -2.6575 -0.2966 0
M  V30 25 H -2.7008 1.7743 -2.0294 0
M  V30 26 H -5.8139 -1.0292 -1.0764 0
M  V30 27 H 0.5318 1.8053 -0.2921 0
M  V30 28 H -5.1067 1.1831 -1.9512 0
M  V30 29 H 1.4856 1.7191 -2.2064 0
M  V30 30 H 1.5901 0.6511 -3.5819 0
M  V30 31 H 0.7202 -0.9733 0.9641 0
M  V30 32 H -1.3857 0.3349 1.5489 0
M  V30 33 H -1.6638 1.9081 0.8025 0
M  V30 34 H 2.7555 0.0191 2.0714 0
M  V30 35 H 2.4586 1.5368 1.2489 0
M  V30 36 H 0.2606 2.885 1.9625 0
M  V30 37 H 0.6542 0.1518 3.2926 0
M  V30 38 H 1.6154 1.6049 3.557 0
M  V30 39 H 3.8791 -1.9654 1.6444 0
M  V30 40 H 2.2378 -2.6213 1.4363 0
M  V30 41 H 3.6141 -3.42 0.6761 0
M  V30 END ATOM
M  V30 BEGIN BOND
M  V30 1 1 1 2
M  V30 2 2 2 3
M  V30 3 1 2 4
M  V30 4 1 3 5
M  V30 5 1 3 6
M  V30 6 2 4 7
M  V30 7 2 5 8
M  V30 8 1 5 9
M  V30 9 2 6 10
M  V30 10 1 8 11
M  V30 11 1 9 12
M  V30 12 1 9 13
M  V30 13 1 11 14
M  V30 14 1 12 15
M  V30 15 1 12 16
M  V30 16 1 13 17
M  V30 17 2 14 18
M  V30 18 1 15 19
M  V30 19 1 16 20
M  V30 20 1 17 21
M  V30 21 1 18 22
M  V30 22 1 19 23
M  V30 23 1 7 10
M  V30 24 1 14 15
M  V30 25 1 17 20
M  V30 26 2 19 22
M  V30 27 1 4 24
M  V30 28 1 6 25
M  V30 29 1 7 26
M  V30 30 1 9 27
M  V30 31 1 10 28
M  V30 32 1 11 29
M  V30 33 1 11 30
M  V30 34 1 12 31
M  V30 35 1 13 32
M  V30 36 1 13 33
M  V30 37 1 16 34
M  V30 38 1 16 35
M  V30 39 1 17 36
M  V30 40 1 20 37
M  V30 41 1 20 38
M  V30 42 1 23 39
M  V30 43 1 23 40
M  V30 44 1 23 41
M  V30 END BOND
M  V30 END CTAB
M  END
>  <Column 1>
737

>  <level_0>
840

>  <index>
840

>  <Unnamed: 0>
840

>  <NO.>
852

>  <Name>
triazolam

>  <IUPAC_name>


>  <SMILES>
Cc1nnc2n1C1CCC(Cl)CC1C(c1ccccc1Cl)=NC2

>  <CID>


>  <logBB>
0.57

>  <BBB+/BBB->
BBB+

>  <Inchi>
InChI=1S/C17H18Cl2N4/c1-10-21-22-16-9-20-17(12-4-2-3-5-14(12)19)13-8-11(18)6-7-15(13)23(10)16/h2-5-11-13-15H-6-9H2-1H3

>  <threshold>


>  <reference>
R38|R41|

>  <group>
A

>  <Class>
1

>  <ABC>
18.43

>  <ABCGG>
15.09

>  <nAcid>
0

>  <nBase>
0

>  <nAromAtom>
11

>  <nAromBond>
11

>  <nAtom>
41

>  <nHeavyAtom>
23

>  <nSpiro>
0

>  <nBridgehead>
0

>  <nHetero>
6

>  <nN>
4

>  <nO>
0

>  <nF>
0

>  <BalabanJ>
1.61

>  <BertzCT>
767.7

>  <nBonds>
44

>  <nBondsO>
26

>  <nBondsS>
32

>  <nBondsD>
1

>  <nBondsT>
0

>  <nBondsA>
11

>  <nBondsM>
12

>  <nBondsKS>
38

>  <nBondsKD>
6

>  <RNCG>
0.22

>  <RPCG>
0.11

>  <FCSP3>
0.47

>  <SZ>
30.33

>  <Sm>
29.08

>  <Sv>
27.09

>  <Sse>
41.17

>  <Sp>
29.43

>  <Si>
46.2

>  <MZ>
0.74

>  <Mm>
0.71

>  <Mv>
0.66

>  <Mse>
1

>  <Mp>
0.72

>  <Mi>
1.13

>  <NsCH3>
1

>  <NdCH2>
0

>  <NssCH2>
4

>  <NtCH>
0

>  <NdsCH>
0

>  <NaaCH>
4

>  <NsssCH>
3

>  <NddC>
0

>  <NtsC>
0

>  <NdssC>
1

>  <NaasC>
4

>  <NaaaC>
0

>  <NssssC>
0

>  <NsNH3>
0

>  <NsNH2>
0

>  <NssNH2>
0

>  <NdNH>
0

>  <NssNH>
0

>  <NaaNH>
0

>  <NtN>
0

>  <NsssNH>
0

>  <NdsN>
1

>  <NaaN>
2

>  <NsssN>
0

>  <NddsN>
0

>  <NaasN>
1

>  <NssssN>
0

>  <NsOH>
0

>  <NdO>
0

>  <NssO>
0

>  <NaaO>
0

>  <NsF>
0

>  <NsSiH3>
0

>  <NssSiH2>
0

>  <NsssSiH>
0

>  <NssssSi>
0

>  <NsPH2>
0

>  <NssPH>
0

>  <NsssP>
0

>  <NdsssP>
0

>  <NsssssP>
0

>  <NsSH>
0

>  <NdS>
0

>  <NssS>
0

>  <NaaS>
0

>  <NdssS>
0

>  <NddssS>
0

>  <NsCl>
2

>  <NsBr>
0

>  <NsI>
0

>  <fragCpx>
170.06

>  <fMF>
0.49

>  <nHBAcc>
4

>  <nHBDon>
0

>  <Kier1>
16.47

>  <Kier2>
6.72

>  <Lipinski>
1

>  <GhoseFilter>
1

>  <FilterItLogS>
-5.09

>  <VMcGowan>
245.55

>  <LabuteASA>
145.09

>  <PEOE_VSA1>
4.57

>  <PEOE_VSA2>
4.99

>  <PEOE_VSA3>
0

>  <PEOE_VSA4>
0

>  <PEOE_VSA5>
21.8

>  <PEOE_VSA6>
29.8

>  <PEOE_VSA7>
32.25

>  <PEOE_VSA8>
33.63

>  <PEOE_VSA9>
6.54

>  <PEOE_VSA10>
5.82

>  <PEOE_VSA11>
5.82

>  <PEOE_VSA12>
0

>  <PEOE_VSA13>
0

>  <SMR_VSA1>
0

>  <SMR_VSA2>
0

>  <SMR_VSA3>
14.76

>  <SMR_VSA4>
10.91

>  <SMR_VSA5>
44.15

>  <SMR_VSA6>
0

>  <SMR_VSA7>
46.5

>  <SMR_VSA8>
0

>  <SMR_VSA9>
0

>  <SlogP_VSA1>
0

>  <SlogP_VSA2>
25.85

>  <SlogP_VSA3>
6.54

>  <SlogP_VSA4>
12.84

>  <SlogP_VSA5>
42.52

>  <SlogP_VSA6>
29.26

>  <SlogP_VSA7>
5.02

>  <SlogP_VSA8>
0

>  <SlogP_VSA9>
0

>  <SlogP_VSA10>
0

>  <SlogP_VSA11>
0

>  <EState_VSA1>
0

>  <EState_VSA2>
11.29

>  <EState_VSA3>
12.59

>  <EState_VSA4>
47.21

>  <EState_VSA5>
0

>  <EState_VSA6>
0

>  <EState_VSA7>
25.12

>  <EState_VSA8>
20.83

>  <EState_VSA9>
28.19

>  <EState_VSA10>
0

>  <VSA_EState1>
2.26

>  <VSA_EState2>
4.88

>  <VSA_EState3>
9.5

>  <VSA_EState4>
2.09

>  <VSA_EState5>
2.15

>  <VSA_EState6>
8.24

>  <VSA_EState7>
2.94

>  <VSA_EState8>
2.56

>  <VSA_EState9>
0

>  <apol>
49.15

>  <bpol>
23.07

>  <nRing>
4

>  <nHRing>
2

>  <naRing>
2

>  <naHRing>
1

>  <nARing 2>
2

>  <nAHRing 2>
1

>  <nFRing>
1

>  <nFHRing>
1

>  <nFaRing>
0

>  <nFaHRing>
0

>  <nFARing 2>
1

>  <nFAHRing 2>
1

>  <nRot>
1

>  <SLogP>
4.19

>  <SMR>
92.47

>  <TopoPSA(NO)>
43.07

>  <TopoPSA>
43.07

>  <JGI1>
0.15

>  <JGI2>
0.08

>  <JGI3>
0.05

>  <JGI4>
0.04

>  <JGI5>
0.02

>  <Diameter>
9

>  <Radius>
5

>  <TMWC10>
125.42

>  <TSRW10>
72.14

>  <MW>
348.09

>  <AMW>
8.49

>  <WPath>
1035

>  <WPol>
43

>  <Zagreb1>
128

>  <Zagreb2>
156

>  <mZagreb2>
4.94

>  <yes>


>  <nAR-cont>
1

>  <nHA-cont>
0.967789328

>  <MWHBN>
0.214394785

>  <MWHBN-cont>
0.997889359

>  <TPSA-cont>
0.699344655

>  <pka_cont>
0.97

>  <yes.1>


>  <BBB_SCORE>
5.348312677

>  <MMFF94 Energy>
59.893

$$$$
Compound 611
Actelion Java MolfileCreator 2.0

  0  0  0  0  0  0              0 V3000
M  V30 BEGIN CTAB
M  V30 COUNTS 54 57 0 0 0
M  V30 BEGIN ATOM
M  V30 1 F 4.7431 -3.0529 -5.9517 0
M  V30 2 C 4.1671 -2.6897 -4.7983 0
M  V30 3 C 4.0698 -1.3392 -4.4777 0
M  V30 4 C 3.6732 -3.6663 -3.9427 0
M  V30 5 C 3.4633 -0.9482 -3.2765 0
M  V30 6 C 3.0784 -3.2849 -2.7406 0
M  V30 7 C 2.9879 -1.9324 -2.4029 0
M  V30 8 C 3.354 0.5056 -2.9276 0
M  V30 9 O 2.3833 -1.6517 -1.2088 0
M  V30 10 C 2.3496 0.7206 -1.8025 0
M  V30 11 C 2.5983 -0.3117 -0.7038 0
M  V30 12 C 1.6446 -0.1619 0.5056 0
M  V30 13 O 1.9448 -1.2162 1.4398 0
M  V30 14 C 1.776 1.2067 1.2158 0
M  V30 15 N 0.9487 1.3927 2.419 0
M  V30 16 C -0.4937 1.2803 2.1428 0
M  V30 17 C -1.2977 1.7714 3.3636 0
M  V30 18 O -0.9618 3.1697 3.5376 0
M  V30 19 C -2.8403 1.627 3.2503 0
M  V30 20 O -3.332 2.0525 1.9705 0
M  V30 21 C -3.4039 0.2752 3.6952 0
M  V30 22 C -3.57 1.0872 1.0328 0
M  V30 23 C -3.2092 -0.8111 2.6562 0
M  V30 24 C -3.528 -0.2873 1.2894 0
M  V30 25 C -3.869 1.5582 -0.2488 0
M  V30 26 C -3.7571 -1.1839 0.2363 0
M  V30 27 C -4.1081 0.661 -1.2885 0
M  V30 28 C -4.0462 -0.7028 -1.0366 0
M  V30 29 F -4.2682 -1.5689 -2.0336 0
M  V30 30 H 4.4632 -0.6033 -5.1726 0
M  V30 31 H 3.7549 -4.7134 -4.2145 0
M  V30 32 H 2.69 -4.041 -2.0637 0
M  V30 33 H 3.0448 1.0874 -3.8037 0
M  V30 34 H 4.3421 0.8651 -2.6157 0
M  V30 35 H 2.4466 1.7468 -1.437 0
M  V30 36 H 1.3326 0.5993 -2.1978 0
M  V30 37 H 3.6354 -0.2622 -0.3439 0
M  V30 38 H 0.6141 -0.326 0.1698 0
M  V30 39 H 1.9767 -2.0356 0.912 0
M  V30 40 H 2.8182 1.3299 1.5338 0
M  V30 41 H 1.5548 2.0222 0.5197 0
M  V30 42 H 1.1095 2.3305 2.7968 0
M  V30 43 H -0.7376 1.9008 1.2726 0
M  V30 44 H -0.7297 0.2395 1.9233 0
M  V30 45 H -0.9519 1.259 4.2699 0
M  V30 46 H -1.3811 3.4698 4.3617 0
M  V30 47 H -3.2627 2.3592 3.952 0
M  V30 48 H -4.4849 0.3984 3.8522 0
M  V30 49 H -2.9818 -0.0332 4.6582 0
M  V30 50 H -2.181 -1.1858 2.6777 0
M  V30 51 H -3.8658 -1.6556 2.8981 0
M  V30 52 H -3.9081 2.6285 -0.4355 0
M  V30 53 H -3.7169 -2.2575 0.3961 0
M  V30 54 H -4.3378 1.0162 -2.2874 0
M  V30 END ATOM
M  V30 BEGIN BOND
M  V30 1 1 1 2
M  V30 2 2 2 3
M  V30 3 1 2 4
M  V30 4 1 3 5
M  V30 5 2 4 6
M  V30 6 2 5 7
M  V30 7 1 5 8
M  V30 8 1 7 9
M  V30 9 1 8 10
M  V30 10 1 9 11
M  V30 11 1 11 12
M  V30 12 1 12 13
M  V30 13 1 12 14
M  V30 14 1 14 15
M  V30 15 1 15 16
M  V30 16 1 16 17
M  V30 17 1 17 18
M  V30 18 1 17 19
M  V30 19 1 19 20
M  V30 20 1 19 21
M  V30 21 1 20 22
M  V30 22 1 21 23
M  V30 23 2 22 24
M  V30 24 1 22 25
M  V30 25 1 24 26
M  V30 26 2 25 27
M  V30 27 2 26 28
M  V30 28 1 28 29
M  V30 29 1 6 7
M  V30 30 1 10 11
M  V30 31 1 23 24
M  V30 32 1 27 28
M  V30 33 1 3 30
M  V30 34 1 4 31
M  V30 35 1 6 32
M  V30 36 1 8 33
M  V30 37 1 8 34
M  V30 38 1 10 35
M  V30 39 1 10 36
M  V30 40 1 11 37
M  V30 41 1 12 38
M  V30 42 1 13 39
M  V30 43 1 14 40
M  V30 44 1 14 41
M  V30 45 1 15 42
M  V30 46 1 16 43
M  V30 47 1 16 44
M  V30 48 1 17 45
M  V30 49 1 18 46
M  V30 50 1 19 47
M  V30 51 1 21 48
M  V30 52 1 21 49
M  V30 53 1 23 50
M  V30 54 1 23 51
M  V30 55 1 25 52
M  V30 56 1 26 53
M  V30 57 1 27 54
M  V30 END BOND
M  V30 END CTAB
M  END
>  <Column 1>
738

>  <level_0>
841

>  <index>
841

>  <Unnamed: 0>
841

>  <NO.>
853

>  <Name>
nebivolol

>  <IUPAC_name>
1-(6-fluoro-3-4-dihydro-2h-chromen-2-yl)-2-[[2-(6-fluoro-3-4-dihydro-2h-chromen-2-yl)-2-hydroxyethyl]amino]ethanol

>  <SMILES>
OC(CNCC(O)C1CCc2cc(F)ccc2O1)C1CCc2cc(F)ccc2O1

>  <CID>
71301

>  <logBB>
0.57

>  <BBB+/BBB->
BBB+

>  <Inchi>
InChI=1S/C22H25F2NO4/c23-15-3-7-19-13(9-15)1-5-21(28-19)17(26)11-25-12-18(27)22-6-2-14-10-16(24)4-8-20(14)29-22/h3-4-7-10-17-18-21-22-25-27H-1-2-5-6-11-12H2

>  <threshold>


>  <reference>
R2|R2|R25|R27|R46|R47|

>  <group>
A

>  <Class>
1

>  <ABC>
22.9

>  <ABCGG>
16.12

>  <nAcid>
0

>  <nBase>
1

>  <nAromAtom>
12

>  <nAromBond>
12

>  <nAtom>
54

>  <nHeavyAtom>
29

>  <nSpiro>
0

>  <nBridgehead>
0

>  <nHetero>
7

>  <nN>
1

>  <nO>
4

>  <nF>
2

>  <BalabanJ>
1.15

>  <BertzCT>
793.2

>  <nBonds>
57

>  <nBondsO>
32

>  <nBondsS>
45

>  <nBondsD>
0

>  <nBondsT>
0

>  <nBondsA>
12

>  <nBondsM>
12

>  <nBondsKS>
51

>  <nBondsKD>
6

>  <RNCG>
0.18

>  <RPCG>
0.08

>  <FCSP3>
0.45

>  <SZ>
35.67

>  <Sm>
33.76

>  <Sv>
33.68

>  <Sse>
55

>  <Sp>
35.23

>  <Si>
61.41

>  <MZ>
0.66

>  <Mm>
0.63

>  <Mv>
0.62

>  <Mse>
1.02

>  <Mp>
0.65

>  <Mi>
1.14

>  <NsCH3>
0

>  <NdCH2>
0

>  <NssCH2>
6

>  <NtCH>
0

>  <NdsCH>
0

>  <NaaCH>
6

>  <NsssCH>
4

>  <NddC>
0

>  <NtsC>
0

>  <NdssC>
0

>  <NaasC>
6

>  <NaaaC>
0

>  <NssssC>
0

>  <NsNH3>
0

>  <NsNH2>
0

>  <NssNH2>
0

>  <NdNH>
0

>  <NssNH>
1

>  <NaaNH>
0

>  <NtN>
0

>  <NsssNH>
0

>  <NdsN>
0

>  <NaaN>
0

>  <NsssN>
0

>  <NddsN>
0

>  <NaasN>
0

>  <NssssN>
0

>  <NsOH>
2

>  <NdO>
0

>  <NssO>
2

>  <NaaO>
0

>  <NsF>
2

>  <NsSiH3>
0

>  <NssSiH2>
0

>  <NsssSiH>
0

>  <NssssSi>
0

>  <NsPH2>
0

>  <NssPH>
0

>  <NsssP>
0

>  <NdsssP>
0

>  <NsssssP>
0

>  <NsSH>
0

>  <NdS>
0

>  <NssS>
0

>  <NaaS>
0

>  <NdssS>
0

>  <NddssS>
0

>  <NsCl>
0

>  <NsBr>
0

>  <NsI>
0

>  <fragCpx>
212.07

>  <fMF>
0.46

>  <nHBAcc>
5

>  <nHBDon>
3

>  <Kier1>
22.2

>  <Kier2>
10.08

>  <Lipinski>
1

>  <GhoseFilter>
1

>  <FilterItLogS>
-4.97

>  <VMcGowan>
288.58

>  <LabuteASA>
167.82

>  <PEOE_VSA1>
25

>  <PEOE_VSA2>
0

>  <PEOE_VSA3>
8.78

>  <PEOE_VSA4>
0

>  <PEOE_VSA5>
0

>  <PEOE_VSA6>
0

>  <PEOE_VSA7>
73.21

>  <PEOE_VSA8>
13.09

>  <PEOE_VSA9>
0

>  <PEOE_VSA10>
47.55

>  <PEOE_VSA11>
0

>  <PEOE_VSA12>
0

>  <PEOE_VSA13>
0

>  <SMR_VSA1>
28.47

>  <SMR_VSA2>
0

>  <SMR_VSA3>
5.32

>  <SMR_VSA4>
0

>  <SMR_VSA5>
50.1

>  <SMR_VSA6>
13.09

>  <SMR_VSA7>
59.16

>  <SMR_VSA8>
0

>  <SMR_VSA9>
11.5

>  <SlogP_VSA1>
14.79

>  <SlogP_VSA2>
47.72

>  <SlogP_VSA3>
12.84

>  <SlogP_VSA4>
11.63

>  <SlogP_VSA5>
23.97

>  <SlogP_VSA6>
36.4

>  <SlogP_VSA7>
0

>  <SlogP_VSA8>
0

>  <SlogP_VSA9>
0

>  <SlogP_VSA10>
8.78

>  <SlogP_VSA11>
11.5

>  <EState_VSA1>
12.21

>  <EState_VSA2>
36.93

>  <EState_VSA3>
37.18

>  <EState_VSA4>
11.13

>  <EState_VSA5>
24.27

>  <EState_VSA6>
12.13

>  <EState_VSA7>
0

>  <EState_VSA8>
5.32

>  <EState_VSA9>
9.47

>  <EState_VSA10>
18.99

>  <VSA_EState1>
38.15

>  <VSA_EState2>
0

>  <VSA_EState3>
23.91

>  <VSA_EState4>
1.62

>  <VSA_EState5>
0.62

>  <VSA_EState6>
8.79

>  <VSA_EState7>
0.21

>  <VSA_EState8>
0.51

>  <VSA_EState9>
0

>  <apol>
58.83

>  <bpol>
31.35

>  <nRing>
4

>  <nHRing>
2

>  <naRing>
2

>  <naHRing>
0

>  <nARing 2>
2

>  <nAHRing 2>
2

>  <nFRing>
2

>  <nFHRing>
2

>  <nFaRing>
0

>  <nFaHRing>
0

>  <nFARing 2>
2

>  <nFAHRing 2>
2

>  <nRot>
6

>  <SLogP>
2.36

>  <SMR>
103.16

>  <TopoPSA(NO)>
70.95

>  <TopoPSA>
70.95

>  <JGI1>
0.2

>  <JGI2>
0.08

>  <JGI3>
0.04

>  <JGI4>
0.05

>  <JGI5>
0.02

>  <Diameter>
18

>  <Radius>
9

>  <TMWC10>
137.47

>  <TSRW10>
64.62

>  <MW>
405.18

>  <AMW>
7.5

>  <WPath>
2692

>  <WPol>
46

>  <Zagreb1>
154

>  <Zagreb2>
180

>  <mZagreb2>
6.28

>  <yes>


>  <nAR-cont>
1

>  <nHA-cont>
0.785905698

>  <MWHBN>
0.397434887

>  <MWHBN-cont>
0.486161358

>  <TPSA-cont>
0.504724943

>  <pka_cont>
0.97

>  <yes.1>


>  <BBB_SCORE>
4.009597621

>  <MMFF94 Energy>
110.88

$$$$
Compound 612
Actelion Java MolfileCreator 2.0

  0  0  0  0  0  0              0 V3000
M  V30 BEGIN CTAB
M  V30 COUNTS 23 24 0 0 0
M  V30 BEGIN ATOM
M  V30 1 Br -3.3958 0.2544 -0.933 0
M  V30 2 C -1.8148 -0.6853 -1.4299 0
M  V30 3 C -0.7446 -0.8355 -0.5219 0
M  V30 4 C -1.7611 -1.2128 -2.7233 0
M  V30 5 N -0.8113 -0.2054 0.739 0
M  V30 6 C 0.3841 -1.5552 -0.9646 0
M  V30 7 C -0.626 -1.9029 -3.1321 0
M  V30 8 C 0.0759 0.7204 1.1834 0
M  V30 9 Br 1.836 -1.993 0.1912 0
M  V30 10 C 0.4432 -2.0834 -2.2609 0
M  V30 11 Br -0.5439 -2.6197 -4.8793 0
M  V30 12 N 1.0445 1.2974 0.5319 0
M  V30 13 N -0.0953 1.098 2.4737 0
M  V30 14 C 1.6555 2.2364 1.5143 0
M  V30 15 C 0.9627 1.9904 2.8597 0
M  V30 16 H -2.5955 -1.079 -3.4068 0
M  V30 17 H -1.7431 -0.1303 1.1227 0
M  V30 18 H 1.3187 -2.642 -2.5826 0
M  V30 19 H -0.5506 0.5051 3.1505 0
M  V30 20 H 1.4978 3.2656 1.1742 0
M  V30 21 H 2.733 2.0575 1.5858 0
M  V30 22 H 1.6393 1.5066 3.5709 0
M  V30 23 H 0.5782 2.916 3.2969 0
M  V30 END ATOM
M  V30 BEGIN BOND
M  V30 1 1 1 2
M  V30 2 2 2 3
M  V30 3 1 2 4
M  V30 4 1 3 5
M  V30 5 1 3 6
M  V30 6 2 4 7
M  V30 7 1 5 8
M  V30 8 1 6 9
M  V30 9 2 6 10
M  V30 10 1 7 11
M  V30 11 2 8 12
M  V30 12 1 8 13
M  V30 13 1 12 14
M  V30 14 1 13 15
M  V30 15 1 7 10
M  V30 16 1 14 15
M  V30 17 1 4 16
M  V30 18 1 5 17
M  V30 19 1 10 18
M  V30 20 1 13 19
M  V30 21 1 14 20
M  V30 22 1 14 21
M  V30 23 1 15 22
M  V30 24 1 15 23
M  V30 END BOND
M  V30 END CTAB
M  END
>  <Column 1>
739

>  <level_0>
842

>  <index>
842

>  <Unnamed: 0>
842

>  <NO.>
854

>  <Name>
tz-19

>  <IUPAC_name>
n-(2-4-6-tribromophenyl)-4-5-dihydro-1h-imidazol-2-amine

>  <SMILES>
Brc1cc(Br)c(NC2=NCCN2)c(Br)c1

>  <CID>
12406843

>  <logBB>
0.58

>  <BBB+/BBB->
BBB+

>  <Inchi>
InChI=1S/C9H8Br3N3/c10-5-3-6(11)8(7(12)4-5)15-9-13-1-2-14-9/h3-4H-1-2H2-(H2-13-14-15)

>  <threshold>


>  <reference>
R2|R2|R8|R27|R40|R2|R2|R25|R27|R46|R47|R4|

>  <group>
A

>  <Class>
1

>  <ABC>
11.56

>  <ABCGG>
10.55

>  <nAcid>
0

>  <nBase>
3

>  <nAromAtom>
6

>  <nAromBond>
6

>  <nAtom>
23

>  <nHeavyAtom>
15

>  <nSpiro>
0

>  <nBridgehead>
0

>  <nHetero>
6

>  <nN>
3

>  <nO>
0

>  <nF>
0

>  <BalabanJ>
1.88

>  <BertzCT>
394.06

>  <nBonds>
24

>  <nBondsO>
16

>  <nBondsS>
17

>  <nBondsD>
1

>  <nBondsT>
0

>  <nBondsA>
6

>  <nBondsM>
7

>  <nBondsKS>
20

>  <nBondsKD>
4

>  <RNCG>
0.31

>  <RPCG>
0.17

>  <FCSP3>
0.22

>  <SZ>
31.33

>  <Sm>
33.13

>  <Sv>
17.31

>  <Sse>
23.56

>  <Sp>
19.65

>  <Si>
25.68

>  <MZ>
1.36

>  <Mm>
1.44

>  <Mv>
0.75

>  <Mse>
1.02

>  <Mp>
0.85

>  <Mi>
1.12

>  <NsCH3>
0

>  <NdCH2>
0

>  <NssCH2>
2

>  <NtCH>
0

>  <NdsCH>
0

>  <NaaCH>
2

>  <NsssCH>
0

>  <NddC>
0

>  <NtsC>
0

>  <NdssC>
1

>  <NaasC>
4

>  <NaaaC>
0

>  <NssssC>
0

>  <NsNH3>
0

>  <NsNH2>
0

>  <NssNH2>
0

>  <NdNH>
0

>  <NssNH>
2

>  <NaaNH>
0

>  <NtN>
0

>  <NsssNH>
0

>  <NdsN>
1

>  <NaaN>
0

>  <NsssN>
0

>  <NddsN>
0

>  <NaasN>
0

>  <NssssN>
0

>  <NsOH>
0

>  <NdO>
0

>  <NssO>
0

>  <NaaO>
0

>  <NsF>
0

>  <NsSiH3>
0

>  <NssSiH2>
0

>  <NsssSiH>
0

>  <NssssSi>
0

>  <NsPH2>
0

>  <NssPH>
0

>  <NsssP>
0

>  <NdsssP>
0

>  <NsssssP>
0

>  <NsSH>
0

>  <NdS>
0

>  <NssS>
0

>  <NaaS>
0

>  <NdssS>
0

>  <NddssS>
0

>  <NsCl>
0

>  <NsBr>
3

>  <NsI>
0

>  <fragCpx>
46.06

>  <fMF>
0.52

>  <nHBAcc>
3

>  <nHBDon>
2

>  <Kier1>
11.48

>  <Kier2>
4.89

>  <Lipinski>
1

>  <GhoseFilter>
1

>  <FilterItLogS>
-5.54

>  <VMcGowan>
181.19

>  <LabuteASA>
113.12

>  <PEOE_VSA1>
10.63

>  <PEOE_VSA2>
4.99

>  <PEOE_VSA3>
0

>  <PEOE_VSA4>
0

>  <PEOE_VSA5>
0

>  <PEOE_VSA6>
15.93

>  <PEOE_VSA7>
43.99

>  <PEOE_VSA8>
19.96

>  <PEOE_VSA9>
12.23

>  <PEOE_VSA10>
0

>  <PEOE_VSA11>
5.96

>  <PEOE_VSA12>
0

>  <PEOE_VSA13>
0

>  <SMR_VSA1>
0

>  <SMR_VSA2>
0

>  <SMR_VSA3>
5.32

>  <SMR_VSA4>
4.99

>  <SMR_VSA5>
0

>  <SMR_VSA6>
18.41

>  <SMR_VSA7>
25.55

>  <SMR_VSA8>
0

>  <SMR_VSA9>
0

>  <SlogP_VSA1>
10.63

>  <SlogP_VSA2>
19.05

>  <SlogP_VSA3>
0

>  <SlogP_VSA4>
0

>  <SlogP_VSA5>
0

>  <SlogP_VSA6>
30.54

>  <SlogP_VSA7>
0

>  <SlogP_VSA8>
0

>  <SlogP_VSA9>
0

>  <SlogP_VSA10>
5.69

>  <SlogP_VSA11>
0

>  <EState_VSA1>
0

>  <EState_VSA2>
0

>  <EState_VSA3>
0

>  <EState_VSA4>
38.15

>  <EState_VSA5>
0

>  <EState_VSA6>
0

>  <EState_VSA7>
12.13

>  <EState_VSA8>
63.42

>  <EState_VSA9>
0

>  <EState_VSA10>
0

>  <VSA_EState1>
2.99

>  <VSA_EState2>
4.28

>  <VSA_EState3>
6.39

>  <VSA_EState4>
0.98

>  <VSA_EState5>
0.82

>  <VSA_EState6>
3.98

>  <VSA_EState7>
0

>  <VSA_EState8>
1.72

>  <VSA_EState9>
0

>  <apol>
32.81

>  <bpol>
14.45

>  <nRing>
2

>  <nHRing>
1

>  <naRing>
1

>  <naHRing>
0

>  <nARing 2>
1

>  <nAHRing 2>
1

>  <nFRing>
0

>  <nFHRing>
0

>  <nFaRing>
0

>  <nFaHRing>
0

>  <nFARing 2>
0

>  <nFAHRing 2>
0

>  <nRot>
1

>  <SLogP>
3.35

>  <SMR>
73.47

>  <TopoPSA(NO)>
36.42

>  <TopoPSA>
36.42

>  <JGI1>
0.22

>  <JGI2>
0.07

>  <JGI3>
0.06

>  <JGI4>
0.05

>  <JGI5>
0.02

>  <Diameter>
8

>  <Radius>
4

>  <TMWC10>
100.6

>  <TSRW10>
59.99

>  <MW>
394.83

>  <AMW>
17.17

>  <WPath>
365

>  <WPol>
19

>  <Zagreb1>
76

>  <Zagreb2>
87

>  <mZagreb2>
3.31

>  <yes>


>  <nAR-cont>
0.816016

>  <nHA-cont>
0.92539861

>  <MWHBN>
0.251631457

>  <MWHBN-cont>
0.956992003

>  <TPSA-cont>
0.745765785

>  <pka_cont>
0.97

>  <yes.1>


>  <BBB_SCORE>
5.153434185

>  <MMFF94 Energy>
-25.812

$$$$
Compound 613
Actelion Java MolfileCreator 2.0

  0  0  0  0  0  0              0 V3000
M  V30 BEGIN CTAB
M  V30 COUNTS 44 46 0 0 0
M  V30 BEGIN ATOM
M  V30 1 F -0.4757 4.2084 -1.1896 0
M  V30 2 C -0.4352 3.0484 -0.4753 0
M  V30 3 C -1.8711 2.5671 -0.211 0
M  V30 4 N -1.8408 1.2714 0.4873 0
M  V30 5 C -2.6334 3.6236 0.594 0
M  V30 6 C -3.0938 0.5188 0.3591 0
M  V30 7 C -3.0092 -0.8995 0.9657 0 CFG=2
M  V30 8 O -2.5373 -0.8167 2.3184 0
M  V30 9 C -2.131 -1.8749 0.1624 0
M  V30 10 O -0.7493 -1.5522 0.3496 0
M  V30 11 C 0.1529 -2.1577 -0.488 0
M  V30 12 C 1.4668 -1.6239 -0.5367 0
M  V30 13 C -0.1372 -3.2801 -1.2825 0
M  V30 14 C 2.402 -2.208 -1.3937 0
M  V30 15 C 2.1356 -0.5407 0.1324 0
M  V30 16 C 0.8243 -3.8422 -2.1231 0
M  V30 17 N 3.5738 -1.5 -1.2656 0
M  V30 18 C 2.1113 -3.312 -2.2003 0
M  V30 19 C 3.4432 -0.4872 -0.3477 0
M  V30 20 C 1.7481 0.4004 1.1098 0
M  V30 21 C 4.3774 0.4601 0.0891 0
M  V30 22 C 2.667 1.3544 1.5611 0
M  V30 23 C 3.9628 1.3824 1.054 0
M  V30 24 H 0.1076 3.2457 0.4545 0
M  V30 25 H 0.1266 2.3173 -1.065 0
M  V30 26 H -2.3567 2.4597 -1.1891 0
M  V30 27 H -1.6531 1.4127 1.4814 0
M  V30 28 H -2.6234 4.588 0.0745 0
M  V30 29 H -3.6819 3.3429 0.7349 0
M  V30 30 H -2.1858 3.7728 1.583 0
M  V30 31 H -3.3894 0.4363 -0.6932 0
M  V30 32 H -3.8854 1.0612 0.8889 0
M  V30 33 H -4.0269 -1.3052 1.0026 0
M  V30 34 H -1.5637 -0.7712 2.2347 0
M  V30 35 H -2.2964 -2.8861 0.5532 0
M  V30 36 H -2.4146 -1.8326 -0.8959 0
M  V30 37 H -1.1158 -3.7488 -1.2593 0
M  V30 38 H 0.5668 -4.7093 -2.7274 0
M  V30 39 H 4.4214 -1.7023 -1.7739 0
M  V30 40 H 2.8561 -3.7502 -2.8566 0
M  V30 41 H 0.7398 0.3821 1.5094 0
M  V30 42 H 5.3895 0.4826 -0.3013 0
M  V30 43 H 2.3644 2.0773 2.3143 0
M  V30 44 H 4.6647 2.1307 1.415 0
M  V30 END ATOM
M  V30 BEGIN BOND
M  V30 1 1 1 2
M  V30 2 1 2 3
M  V30 3 1 3 4
M  V30 4 1 3 5
M  V30 5 1 4 6
M  V30 6 1 6 7
M  V30 7 1 7 8
M  V30 8 1 7 9
M  V30 9 1 9 10
M  V30 10 1 10 11
M  V30 11 2 11 12
M  V30 12 1 11 13
M  V30 13 1 12 14
M  V30 14 1 12 15
M  V30 15 2 13 16
M  V30 16 1 14 17
M  V30 17 2 14 18
M  V30 18 2 15 19
M  V30 19 1 15 20
M  V30 20 1 19 21
M  V30 21 2 20 22
M  V30 22 2 21 23
M  V30 23 1 16 18
M  V30 24 1 17 19
M  V30 25 1 22 23
M  V30 26 1 2 24
M  V30 27 1 2 25
M  V30 28 1 3 26
M  V30 29 1 4 27
M  V30 30 1 5 28
M  V30 31 1 5 29
M  V30 32 1 5 30
M  V30 33 1 6 31
M  V30 34 1 6 32
M  V30 35 1 7 33
M  V30 36 1 8 34
M  V30 37 1 9 35
M  V30 38 1 9 36
M  V30 39 1 13 37
M  V30 40 1 16 38
M  V30 41 1 17 39
M  V30 42 1 18 40
M  V30 43 1 20 41
M  V30 44 1 21 42
M  V30 45 1 22 43
M  V30 46 1 23 44
M  V30 END BOND
M  V30 BEGIN COLLECTION
M  V30 MDLV30/STEABS ATOMS=(1 7)
M  V30 END COLLECTION
M  V30 END CTAB
M  END
>  <Column 1>
740

>  <level_0>
843

>  <index>
843

>  <Unnamed: 0>
843

>  <NO.>
855

>  <Name>
(s)-flurocarazolol

>  <IUPAC_name>
(2s)-1-(9h-carbazol-4-yloxy)-3-(1-fluoropropan-2-ylamino)propan-2-ol

>  <SMILES>
CC(CF)NC[C@H](O)COc1cccc2[nH]c3ccccc3c12

>  <CID>
10358392

>  <logBB>
0.58

>  <BBB+/BBB->
BBB+

>  <Inchi>
InChI=1S/C18H21FN2O2/c1-12(9-19)20-10-13(22)11-23-17-8-4-7-16-18(17)14-5-2-3-6-15(14)21-16/h2-8-12-13-20-22H-9-11H2-1H3/t12?-13-/m0/s1

>  <threshold>


>  <reference>
R2|R2|R20|R25|R27|R46|

>  <group>
A

>  <Class>
1

>  <ABC>
17.73

>  <ABCGG>
14.37

>  <nAcid>
0

>  <nBase>
1

>  <nAromAtom>
13

>  <nAromBond>
15

>  <nAtom>
44

>  <nHeavyAtom>
23

>  <nSpiro>
0

>  <nBridgehead>
0

>  <nHetero>
5

>  <nN>
2

>  <nO>
2

>  <nF>
1

>  <BalabanJ>
1.49

>  <BertzCT>
786.89

>  <nBonds>
46

>  <nBondsO>
25

>  <nBondsS>
31

>  <nBondsD>
0

>  <nBondsT>
0

>  <nBondsA>
15

>  <nBondsM>
15

>  <nBondsKS>
40

>  <nBondsKD>
6

>  <RNCG>
0.23

>  <RPCG>
0.1

>  <FCSP3>
0.33

>  <SZ>
28

>  <Sm>
26.34

>  <Sv>
27.28

>  <Sse>
44.27

>  <Sp>
29

>  <Si>
49.91

>  <MZ>
0.64

>  <Mm>
0.6

>  <Mv>
0.62

>  <Mse>
1.01

>  <Mp>
0.66

>  <Mi>
1.13

>  <NsCH3>
1

>  <NdCH2>
0

>  <NssCH2>
3

>  <NtCH>
0

>  <NdsCH>
0

>  <NaaCH>
7

>  <NsssCH>
2

>  <NddC>
0

>  <NtsC>
0

>  <NdssC>
0

>  <NaasC>
1

>  <NaaaC>
4

>  <NssssC>
0

>  <NsNH3>
0

>  <NsNH2>
0

>  <NssNH2>
0

>  <NdNH>
0

>  <NssNH>
1

>  <NaaNH>
1

>  <NtN>
0

>  <NsssNH>
0

>  <NdsN>
0

>  <NaaN>
0

>  <NsssN>
0

>  <NddsN>
0

>  <NaasN>
0

>  <NssssN>
0

>  <NsOH>
1

>  <NdO>
0

>  <NssO>
1

>  <NaaO>
0

>  <NsF>
1

>  <NsSiH3>
0

>  <NssSiH2>
0

>  <NsssSiH>
0

>  <NssssSi>
0

>  <NsPH2>
0

>  <NssPH>
0

>  <NsssP>
0

>  <NdsssP>
0

>  <NsssssP>
0

>  <NsSH>
0

>  <NdS>
0

>  <NssS>
0

>  <NaaS>
0

>  <NdssS>
0

>  <NddssS>
0

>  <NsCl>
0

>  <NsBr>
0

>  <NsI>
0

>  <fragCpx>
119.05

>  <fMF>
0.3

>  <nHBAcc>
3

>  <nHBDon>
3

>  <Kier1>
17.81

>  <Kier2>
8.39

>  <Lipinski>
1

>  <GhoseFilter>
1

>  <FilterItLogS>
-5.08

>  <VMcGowan>
239.56

>  <LabuteASA>
133.82

>  <PEOE_VSA1>
20.14

>  <PEOE_VSA2>
0

>  <PEOE_VSA3>
4.39

>  <PEOE_VSA4>
0

>  <PEOE_VSA5>
0

>  <PEOE_VSA6>
24.27

>  <PEOE_VSA7>
25.12

>  <PEOE_VSA8>
28.88

>  <PEOE_VSA9>
5.52

>  <PEOE_VSA10>
25.13

>  <PEOE_VSA11>
0

>  <PEOE_VSA12>
0

>  <PEOE_VSA13>
0

>  <SMR_VSA1>
14.23

>  <SMR_VSA2>
0

>  <SMR_VSA3>
10.3

>  <SMR_VSA4>
0

>  <SMR_VSA5>
19.07

>  <SMR_VSA6>
19.83

>  <SMR_VSA7>
42.46

>  <SMR_VSA8>
0

>  <SMR_VSA9>
5.75

>  <SlogP_VSA1>
10.05

>  <SlogP_VSA2>
42.06

>  <SlogP_VSA3>
0

>  <SlogP_VSA4>
0

>  <SlogP_VSA5>
6.92

>  <SlogP_VSA6>
42.46

>  <SlogP_VSA7>
0

>  <SlogP_VSA8>
21.81

>  <SlogP_VSA9>
0

>  <SlogP_VSA10>
4.39

>  <SlogP_VSA11>
5.75

>  <EState_VSA1>
12.78

>  <EState_VSA2>
12.65

>  <EState_VSA3>
6.54

>  <EState_VSA4>
27.56

>  <EState_VSA5>
0

>  <EState_VSA6>
6.92

>  <EState_VSA7>
42.46

>  <EState_VSA8>
10.3

>  <EState_VSA9>
4.74

>  <EState_VSA10>
9.5

>  <VSA_EState1>
18.21

>  <VSA_EState2>
3.36

>  <VSA_EState3>
15

>  <VSA_EState4>
2.06

>  <VSA_EState5>
0.73

>  <VSA_EState6>
13.6

>  <VSA_EState7>
-0.69

>  <VSA_EState8>
1.74

>  <VSA_EState9>
0

>  <apol>
48.42

>  <bpol>
25.06

>  <nRing>
3

>  <nHRing>
1

>  <naRing>
3

>  <naHRing>
1

>  <nARing 2>
0

>  <nAHRing 2>
0

>  <nFRing>
1

>  <nFHRing>
1

>  <nFaRing>
1

>  <nFaHRing>
1

>  <nFARing 2>
0

>  <nFAHRing 2>
0

>  <nRot>
7

>  <SLogP>
3.01

>  <SMR>
90.75

>  <TopoPSA(NO)>
57.28

>  <TopoPSA>
57.28

>  <JGI1>
0.16

>  <JGI2>
0.07

>  <JGI3>
0.05

>  <JGI4>
0.03

>  <JGI5>
0.02

>  <Diameter>
13

>  <Radius>
7

>  <TMWC10>
122.56

>  <TSRW10>
71.51

>  <MW>
316.16

>  <AMW>
7.19

>  <WPath>
1301

>  <WPol>
34

>  <Zagreb1>
118

>  <Zagreb2>
138

>  <mZagreb2>
5.19

>  <yes>


>  <nAR-cont>
0.336376

>  <nHA-cont>
0.967789328

>  <MWHBN>
0.337440953

>  <MWHBN-cont>
0.716391557

>  <TPSA-cont>
0.600150031

>  <pka_cont>
0.97

>  <yes.1>


>  <BBB_SCORE>
4.064052726

>  <MMFF94 Energy>
99.291

$$$$
Compound 614
Actelion Java MolfileCreator 2.0

  0  0  0  0  0  0              0 V3000
M  V30 BEGIN CTAB
M  V30 COUNTS 55 58 0 0 0
M  V30 BEGIN ATOM
M  V30 1 S 2.5068 1.1315 -5.0184 0
M  V30 2 C 1.6007 0.496 -3.6802 0
M  V30 3 C 2.5691 -0.4167 -5.7528 0
M  V30 4 N 1.3613 -0.7944 -3.7812 0
M  V30 5 N 1.1776 1.261 -2.6241 0
M  V30 6 C 1.8983 -1.3245 -4.9391 0
M  V30 7 C 3.1685 -0.8041 -6.9631 0
M  V30 8 C 0.4623 0.6092 -1.513 0
M  V30 9 C 1.422 2.6948 -2.5869 0
M  V30 10 C 1.8205 -2.6722 -5.3457 0
M  V30 11 C 3.0785 -2.1461 -7.3459 0
M  V30 12 C 1.1927 0.8046 -0.1796 0
M  V30 13 C -0.9904 1.0891 -1.4331 0
M  V30 14 C 2.4128 -3.0715 -6.5483 0
M  V30 15 C 0.3815 0.1981 0.9668 0
M  V30 16 C -1.694 0.4574 -0.2313 0
M  V30 17 N -1.0046 0.6836 1.0514 0
M  V30 18 C -1.1333 2.0828 1.5035 0
M  V30 19 C -0.861 2.386 2.9999 0 CFG=2
M  V30 20 O 0.5417 2.4375 3.279 0
M  V30 21 C -1.5777 1.4492 3.9863 0
M  V30 22 O -0.8707 0.2057 4.0575 0
M  V30 23 C -1.4643 -0.8087 4.7542 0
M  V30 24 C -0.8764 -2.0633 4.5707 0
M  V30 25 C -2.5582 -0.6777 5.616 0
M  V30 26 C -1.3875 -3.1737 5.2338 0
M  V30 27 C -3.0669 -1.7992 6.2804 0
M  V30 28 F -0.8178 -4.3723 5.0468 0
M  V30 29 C -2.4775 -3.0429 6.0835 0
M  V30 30 F -2.9693 -4.1123 6.7238 0
M  V30 31 H 3.6882 -0.082 -7.5853 0
M  V30 32 H 0.4187 -0.4766 -1.6733 0
M  V30 33 H 0.9579 3.1754 -1.72 0
M  V30 34 H 2.4959 2.9042 -2.5305 0
M  V30 35 H 1.0046 3.188 -3.472 0
M  V30 36 H 1.3001 -3.3892 -4.7188 0
M  V30 37 H 3.5355 -2.4687 -8.279 0
M  V30 38 H 1.3857 1.8627 0.0261 0
M  V30 39 H 2.1763 0.3208 -0.2259 0
M  V30 40 H -1.5216 0.814 -2.3527 0
M  V30 41 H -1.0477 2.1813 -1.363 0
M  V30 42 H 2.3509 -4.112 -6.8581 0
M  V30 43 H 0.915 0.343 1.9086 0
M  V30 44 H 0.3502 -0.8921 0.8362 0
M  V30 45 H -1.778 -0.6254 -0.3928 0
M  V30 46 H -2.7285 0.8183 -0.1757 0
M  V30 47 H -0.5116 2.7479 0.8929 0
M  V30 48 H -2.1741 2.3911 1.3334 0
M  V30 49 H -1.2377 3.4007 3.1792 0
M  V30 50 H 0.7812 1.5399 3.5801 0
M  V30 51 H -1.5486 1.9112 4.9807 0
M  V30 52 H -2.6186 1.3027 3.6739 0
M  V30 53 H -0.0259 -2.1819 3.9067 0
M  V30 54 H -3.031 0.2822 5.7981 0
M  V30 55 H -3.9157 -1.7089 6.9514 0
M  V30 END ATOM
M  V30 BEGIN BOND
M  V30 1 1 1 2
M  V30 2 1 1 3
M  V30 3 2 2 4
M  V30 4 1 2 5
M  V30 5 2 3 6
M  V30 6 1 3 7
M  V30 7 1 5 8
M  V30 8 1 5 9
M  V30 9 1 6 10
M  V30 10 2 7 11
M  V30 11 1 8 12
M  V30 12 1 8 13
M  V30 13 2 10 14
M  V30 14 1 12 15
M  V30 15 1 13 16
M  V30 16 1 15 17
M  V30 17 1 17 18
M  V30 18 1 18 19
M  V30 19 1 19 20
M  V30 20 1 19 21
M  V30 21 1 21 22
M  V30 22 1 22 23
M  V30 23 2 23 24
M  V30 24 1 23 25
M  V30 25 1 24 26
M  V30 26 2 25 27
M  V30 27 1 26 28
M  V30 28 2 26 29
M  V30 29 1 29 30
M  V30 30 1 4 6
M  V30 31 1 11 14
M  V30 32 1 16 17
M  V30 33 1 27 29
M  V30 34 1 7 31
M  V30 35 1 8 32
M  V30 36 1 9 33
M  V30 37 1 9 34
M  V30 38 1 9 35
M  V30 39 1 10 36
M  V30 40 1 11 37
M  V30 41 1 12 38
M  V30 42 1 12 39
M  V30 43 1 13 40
M  V30 44 1 13 41
M  V30 45 1 14 42
M  V30 46 1 15 43
M  V30 47 1 15 44
M  V30 48 1 16 45
M  V30 49 1 16 46
M  V30 50 1 18 47
M  V30 51 1 18 48
M  V30 52 1 19 49
M  V30 53 1 20 50
M  V30 54 1 21 51
M  V30 55 1 21 52
M  V30 56 1 24 53
M  V30 57 1 25 54
M  V30 58 1 27 55
M  V30 END BOND
M  V30 BEGIN COLLECTION
M  V30 MDLV30/STERAC1 ATOMS=(1 19)
M  V30 END COLLECTION
M  V30 END CTAB
M  END
>  <Column 1>
741

>  <level_0>
844

>  <index>
844

>  <Unnamed: 0>
844

>  <NO.>
856

>  <Name>
lubeluzole

>  <IUPAC_name>
1-[4-[1-3-benzothiazol-2-yl(methyl)amino]piperidin-1-yl]-3-(3-4-difluorophenoxy)propan-2-ol

>  <SMILES>
CN(c1nc2ccccc2s1)C1CCN(CC(O)COc2ccc(F)c(F)c2)CC1

>  <CID>
9932580

>  <logBB>
0.59

>  <BBB+/BBB->
BBB+

>  <Inchi>
InChI=1S/C22H25F2N3O2S/c1-26(22-25-20-4-2-3-5-21(20)30-22)15-8-10-27(11-9-15)13-16(28)14-29-17-6-7-18(23)19(24)12-17/h2-7-12-15-16-28H-8-11-13-14H2-1H3

>  <threshold>


>  <reference>
R25|

>  <group>
A

>  <Class>
1

>  <ABC>
23.61

>  <ABCGG>
17.11

>  <nAcid>
0

>  <nBase>
1

>  <nAromAtom>
15

>  <nAromBond>
16

>  <nAtom>
55

>  <nHeavyAtom>
30

>  <nSpiro>
0

>  <nBridgehead>
0

>  <nHetero>
8

>  <nN>
3

>  <nO>
2

>  <nF>
2

>  <BalabanJ>
1.13

>  <BertzCT>
958.43

>  <nBonds>
58

>  <nBondsO>
33

>  <nBondsS>
42

>  <nBondsD>
0

>  <nBondsT>
0

>  <nBondsA>
16

>  <nBondsM>
16

>  <nBondsKS>
51

>  <nBondsKD>
7

>  <RNCG>
0.19

>  <RPCG>
0.08

>  <FCSP3>
0.41

>  <SZ>
38

>  <Sm>
36.09

>  <Sv>
34.96

>  <Sse>
55.74

>  <Sp>
37.32

>  <Si>
62.5

>  <MZ>
0.69

>  <Mm>
0.66

>  <Mv>
0.64

>  <Mse>
1.01

>  <Mp>
0.68

>  <Mi>
1.14

>  <NsCH3>
1

>  <NdCH2>
0

>  <NssCH2>
6

>  <NtCH>
0

>  <NdsCH>
0

>  <NaaCH>
7

>  <NsssCH>
2

>  <NddC>
0

>  <NtsC>
0

>  <NdssC>
0

>  <NaasC>
4

>  <NaaaC>
2

>  <NssssC>
0

>  <NsNH3>
0

>  <NsNH2>
0

>  <NssNH2>
0

>  <NdNH>
0

>  <NssNH>
0

>  <NaaNH>
0

>  <NtN>
0

>  <NsssNH>
0

>  <NdsN>
0

>  <NaaN>
1

>  <NsssN>
2

>  <NddsN>
0

>  <NaasN>
0

>  <NssssN>
0

>  <NsOH>
1

>  <NdO>
0

>  <NssO>
1

>  <NaaO>
0

>  <NsF>
2

>  <NsSiH3>
0

>  <NssSiH2>
0

>  <NsssSiH>
0

>  <NssssSi>
0

>  <NsPH2>
0

>  <NssPH>
0

>  <NsssP>
0

>  <NdsssP>
0

>  <NsssssP>
0

>  <NsSH>
0

>  <NdS>
0

>  <NssS>
0

>  <NaaS>
1

>  <NdssS>
0

>  <NddssS>
0

>  <NsCl>
0

>  <NsBr>
0

>  <NsI>
0

>  <fragCpx>
219.08

>  <fMF>
0.47

>  <nHBAcc>
6

>  <nHBDon>
1

>  <Kier1>
23.17

>  <Kier2>
10.74

>  <Lipinski>
1

>  <GhoseFilter>
1

>  <FilterItLogS>
-5.12

>  <VMcGowan>
308.85

>  <LabuteASA>
178.07

>  <PEOE_VSA1>
19.64

>  <PEOE_VSA2>
0

>  <PEOE_VSA3>
13.76

>  <PEOE_VSA4>
0

>  <PEOE_VSA5>
0

>  <PEOE_VSA6>
23.47

>  <PEOE_VSA7>
37.11

>  <PEOE_VSA8>
38.79

>  <PEOE_VSA9>
10.22

>  <PEOE_VSA10>
18.46

>  <PEOE_VSA11>
16.77

>  <PEOE_VSA12>
0

>  <PEOE_VSA13>
0

>  <SMR_VSA1>
18.62

>  <SMR_VSA2>
0

>  <SMR_VSA3>
9.88

>  <SMR_VSA4>
0

>  <SMR_VSA5>
24.99

>  <SMR_VSA6>
38.19

>  <SMR_VSA7>
54.1

>  <SMR_VSA8>
0

>  <SMR_VSA9>
5.75

>  <SlogP_VSA1>
9.64

>  <SlogP_VSA2>
60.43

>  <SlogP_VSA3>
0

>  <SlogP_VSA4>
11.63

>  <SlogP_VSA5>
12.84

>  <SlogP_VSA6>
42.46

>  <SlogP_VSA7>
0

>  <SlogP_VSA8>
10.22

>  <SlogP_VSA9>
0

>  <SlogP_VSA10>
13.91

>  <SlogP_VSA11>
5.75

>  <EState_VSA1>
17.74

>  <EState_VSA2>
12.36

>  <EState_VSA3>
12.59

>  <EState_VSA4>
48.71

>  <EState_VSA5>
10.77

>  <EState_VSA6>
11.34

>  <EState_VSA7>
18.2

>  <EState_VSA8>
22.91

>  <EState_VSA9>
9.72

>  <EState_VSA10>
13.89

>  <VSA_EState1>
32.78

>  <VSA_EState2>
9.22

>  <VSA_EState3>
11.3

>  <VSA_EState4>
1.03

>  <VSA_EState5>
-1.66

>  <VSA_EState6>
11.95

>  <VSA_EState7>
1.28

>  <VSA_EState8>
2.28

>  <VSA_EState9>
2.1

>  <apol>
62.33

>  <bpol>
36.06

>  <nRing>
4

>  <nHRing>
2

>  <naRing>
3

>  <naHRing>
1

>  <nARing 2>
1

>  <nAHRing 2>
1

>  <nFRing>
1

>  <nFHRing>
1

>  <nFaRing>
1

>  <nFaHRing>
1

>  <nFARing 2>
0

>  <nFAHRing 2>
0

>  <nRot>
7

>  <SLogP>
3.92

>  <SMR>
115.34

>  <TopoPSA(NO)>
48.83

>  <TopoPSA>
77.07

>  <JGI1>
0.2

>  <JGI2>
0.08

>  <JGI3>
0.04

>  <JGI4>
0.05

>  <JGI5>
0.02

>  <Diameter>
18

>  <Radius>
9

>  <TMWC10>
139.55

>  <TSRW10>
79.57

>  <MW>
433.16

>  <AMW>
7.88

>  <WPath>
3041

>  <WPol>
45

>  <Zagreb1>
158

>  <Zagreb2>
184

>  <mZagreb2>
6.53

>  <yes>


>  <nAR-cont>
0.816016

>  <nHA-cont>
0.74523694

>  <MWHBN>
0.336336397

>  <MWHBN-cont>
0.7203634

>  <TPSA-cont>
0.462003542

>  <pka_cont>
0.97

>  <yes.1>


>  <BBB_SCORE>
4.050805124

>  <MMFF94 Energy>
59.414

$$$$
Compound 615
Actelion Java MolfileCreator 2.0

  0  0  0  0  0  0              0 V3000
M  V30 BEGIN CTAB
M  V30 COUNTS 53 55 0 0 0
M  V30 BEGIN ATOM
M  V30 1 O 0.6321 -3.2431 -3.0847 0
M  V30 2 C 0.9811 -2.0609 -3.167 0
M  V30 3 N 1.0939 -1.2424 -2.0424 0
M  V30 4 C 1.3335 -1.4897 -4.5322 0
M  V30 5 C 1.3825 0.1379 -2.1357 0
M  V30 6 C 0.7516 -1.8078 -0.7175 0
M  V30 7 C 2.7716 -1.8147 -4.892 0
M  V30 8 C 2.7073 0.576 -2.0598 0
M  V30 9 C 0.3471 1.0617 -2.3009 0
M  V30 10 C 1.5125 -1.2001 0.4719 0
M  V30 11 C -0.763 -1.7728 -0.4609 0
M  V30 12 C 2.995 1.9382 -2.1467 0
M  V30 13 C 0.6385 2.4233 -2.3868 0
M  V30 14 C 1.0774 -1.8552 1.7843 0
M  V30 15 C -1.0989 -2.3972 0.8936 0
M  V30 16 C 1.9611 2.8605 -2.3093 0
M  V30 17 N -0.3733 -1.8001 2.024 0
M  V30 18 C -0.8164 -0.436 2.3726 0
M  V30 19 C -2.2416 -0.3851 2.95 0
M  V30 20 C -2.6031 1.009 3.4081 0
M  V30 21 C -2.3662 1.4055 4.7309 0
M  V30 22 C -3.1522 1.9324 2.5082 0
M  V30 23 C -2.6816 2.6994 5.1479 0
M  V30 24 C -3.4669 3.2259 2.9274 0
M  V30 25 C -3.2322 3.6088 4.2467 0
M  V30 26 H 1.157 -0.4143 -4.5945 0
M  V30 27 H 0.6589 -1.9495 -5.2645 0
M  V30 28 H 1.0418 -2.8675 -0.755 0
M  V30 29 H 3.0089 -1.4358 -5.8906 0
M  V30 30 H 2.9407 -2.8966 -4.8886 0
M  V30 31 H 3.4738 -1.3697 -4.1815 0
M  V30 32 H 3.5161 -0.1374 -1.9284 0
M  V30 33 H -0.6846 0.7294 -2.3701 0
M  V30 34 H 1.3487 -0.1184 0.5372 0
M  V30 35 H 2.5907 -1.3476 0.3368 0
M  V30 36 H -1.2914 -2.3217 -1.2496 0
M  V30 37 H -1.1391 -0.7448 -0.5013 0
M  V30 38 H 4.0246 2.2811 -2.0858 0
M  V30 39 H -0.1649 3.1441 -2.5154 0
M  V30 40 H 1.6189 -1.3998 2.6225 0
M  V30 41 H 1.3884 -2.9081 1.7794 0
M  V30 42 H -0.8547 -3.4674 0.8586 0
M  V30 43 H -2.1809 -2.3652 1.0571 0
M  V30 44 H 2.1864 3.9222 -2.3759 0
M  V30 45 H -0.7379 0.2458 1.5174 0
M  V30 46 H -0.1393 -0.0376 3.1406 0
M  V30 47 H -2.9817 -0.7072 2.2086 0
M  V30 48 H -2.3324 -1.0805 3.7943 0
M  V30 49 H -1.9341 0.7071 5.4443 0
M  V30 50 H -3.3394 1.6483 1.4754 0
M  V30 51 H -2.4971 2.9978 6.1765 0
M  V30 52 H -3.8959 3.9351 2.2247 0
M  V30 53 H -3.4782 4.6158 4.5729 0
M  V30 END ATOM
M  V30 BEGIN BOND
M  V30 1 2 1 2
M  V30 2 1 2 3
M  V30 3 1 2 4
M  V30 4 1 3 5
M  V30 5 1 3 6
M  V30 6 1 4 7
M  V30 7 2 5 8
M  V30 8 1 5 9
M  V30 9 1 6 10
M  V30 10 1 6 11
M  V30 11 1 8 12
M  V30 12 2 9 13
M  V30 13 1 10 14
M  V30 14 1 11 15
M  V30 15 2 12 16
M  V30 16 1 14 17
M  V30 17 1 17 18
M  V30 18 1 18 19
M  V30 19 1 19 20
M  V30 20 2 20 21
M  V30 21 1 20 22
M  V30 22 1 21 23
M  V30 23 2 22 24
M  V30 24 2 23 25
M  V30 25 1 13 16
M  V30 26 1 15 17
M  V30 27 1 24 25
M  V30 28 1 4 26
M  V30 29 1 4 27
M  V30 30 1 6 28
M  V30 31 1 7 29
M  V30 32 1 7 30
M  V30 33 1 7 31
M  V30 34 1 8 32
M  V30 35 1 9 33
M  V30 36 1 10 34
M  V30 37 1 10 35
M  V30 38 1 11 36
M  V30 39 1 11 37
M  V30 40 1 12 38
M  V30 41 1 13 39
M  V30 42 1 14 40
M  V30 43 1 14 41
M  V30 44 1 15 42
M  V30 45 1 15 43
M  V30 46 1 16 44
M  V30 47 1 18 45
M  V30 48 1 18 46
M  V30 49 1 19 47
M  V30 50 1 19 48
M  V30 51 1 21 49
M  V30 52 1 22 50
M  V30 53 1 23 51
M  V30 54 1 24 52
M  V30 55 1 25 53
M  V30 END BOND
M  V30 END CTAB
M  END
>  <Column 1>
742

>  <level_0>
847

>  <index>
847

>  <Unnamed: 0>
847

>  <NO.>
859

>  <Name>
fentanyl

>  <IUPAC_name>
n-phenyl-n-[1-(2-phenylethyl)piperidin-4-yl]propanamide

>  <SMILES>
CCC(=O)N(c1ccccc1)C1CCN(CCc2ccccc2)CC1

>  <CID>
3345

>  <logBB>
0.6

>  <BBB+/BBB->
BBB+

>  <Inchi>
InChI=1S/C22H28N2O/c1-2-22(25)24(20-11-7-4-8-12-20)21-14-17-23(18-15-21)16-13-19-9-5-3-6-10-19/h3-12-21H-2-13-18H2-1H3

>  <threshold>


>  <reference>
R18|R26|R27|R47|R3|R25|R41|R38|R40|R46|R27|R2|R2|R8|R21|R27|R43|R3|

>  <group>
A

>  <Class>
1

>  <ABC>
19.08

>  <ABCGG>
14.71

>  <nAcid>
0

>  <nBase>
1

>  <nAromAtom>
12

>  <nAromBond>
12

>  <nAtom>
53

>  <nHeavyAtom>
25

>  <nSpiro>
0

>  <nBridgehead>
0

>  <nHetero>
3

>  <nN>
2

>  <nO>
1

>  <nF>
0

>  <BalabanJ>
1.45

>  <BertzCT>
648.24

>  <nBonds>
55

>  <nBondsO>
27

>  <nBondsS>
42

>  <nBondsD>
1

>  <nBondsT>
0

>  <nBondsA>
12

>  <nBondsM>
13

>  <nBondsKS>
48

>  <nBondsKD>
7

>  <RNCG>
0.19

>  <RPCG>
0.14

>  <FCSP3>
0.41

>  <SZ>
30.33

>  <Sm>
28.01

>  <Sv>
31.82

>  <Sse>
52.09

>  <Sp>
34.98

>  <Si>
59.6

>  <MZ>
0.57

>  <Mm>
0.53

>  <Mv>
0.6

>  <Mse>
0.98

>  <Mp>
0.66

>  <Mi>
1.12

>  <NsCH3>
1

>  <NdCH2>
0

>  <NssCH2>
7

>  <NtCH>
0

>  <NdsCH>
0

>  <NaaCH>
10

>  <NsssCH>
1

>  <NddC>
0

>  <NtsC>
0

>  <NdssC>
1

>  <NaasC>
2

>  <NaaaC>
0

>  <NssssC>
0

>  <NsNH3>
0

>  <NsNH2>
0

>  <NssNH2>
0

>  <NdNH>
0

>  <NssNH>
0

>  <NaaNH>
0

>  <NtN>
0

>  <NsssNH>
0

>  <NdsN>
0

>  <NaaN>
0

>  <NsssN>
2

>  <NddsN>
0

>  <NaasN>
0

>  <NssssN>
0

>  <NsOH>
0

>  <NdO>
1

>  <NssO>
0

>  <NaaO>
0

>  <NsF>
0

>  <NsSiH3>
0

>  <NssSiH2>
0

>  <NsssSiH>
0

>  <NssssSi>
0

>  <NsPH2>
0

>  <NssPH>
0

>  <NsssP>
0

>  <NdsssP>
0

>  <NsssssP>
0

>  <NsSH>
0

>  <NdS>
0

>  <NssS>
0

>  <NaaS>
0

>  <NdssS>
0

>  <NddssS>
0

>  <NsCl>
0

>  <NsBr>
0

>  <NsI>
0

>  <fragCpx>
129.03

>  <fMF>
0.4

>  <nHBAcc>
2

>  <nHBDon>
0

>  <Kier1>
19.75

>  <Kier2>
10.36

>  <Lipinski>
1

>  <GhoseFilter>
1

>  <FilterItLogS>
-4.75

>  <VMcGowan>
283.99

>  <LabuteASA>
150.81

>  <PEOE_VSA1>
9.8

>  <PEOE_VSA2>
4.79

>  <PEOE_VSA3>
0

>  <PEOE_VSA4>
0

>  <PEOE_VSA5>
0

>  <PEOE_VSA6>
55.45

>  <PEOE_VSA7>
36.96

>  <PEOE_VSA8>
37.78

>  <PEOE_VSA9>
0

>  <PEOE_VSA10>
0

>  <PEOE_VSA11>
0

>  <PEOE_VSA12>
5.91

>  <PEOE_VSA13>
0

>  <SMR_VSA1>
4.79

>  <SMR_VSA2>
0

>  <SMR_VSA3>
4.9

>  <SMR_VSA4>
0

>  <SMR_VSA5>
38.65

>  <SMR_VSA6>
24.53

>  <SMR_VSA7>
66.23

>  <SMR_VSA8>
0

>  <SMR_VSA9>
0

>  <SlogP_VSA1>
4.9

>  <SlogP_VSA2>
36.48

>  <SlogP_VSA3>
11.22

>  <SlogP_VSA4>
0

>  <SlogP_VSA5>
31.75

>  <SlogP_VSA6>
60.66

>  <SlogP_VSA7>
0

>  <SlogP_VSA8>
0

>  <SlogP_VSA9>
0

>  <SlogP_VSA10>
5.69

>  <SlogP_VSA11>
0

>  <EState_VSA1>
0

>  <EState_VSA2>
5.91

>  <EState_VSA3>
12.46

>  <EState_VSA4>
44.58

>  <EState_VSA5>
5.56

>  <EState_VSA6>
0

>  <EState_VSA7>
30.02

>  <EState_VSA8>
47.36

>  <EState_VSA9>
0

>  <EState_VSA10>
4.79

>  <VSA_EState1>
0

>  <VSA_EState2>
17.08

>  <VSA_EState3>
0

>  <VSA_EState4>
2.44

>  <VSA_EState5>
0.23

>  <VSA_EState6>
21.13

>  <VSA_EState7>
3.76

>  <VSA_EState8>
5.19

>  <VSA_EState9>
0

>  <apol>
58.41

>  <bpol>
32.38

>  <nRing>
3

>  <nHRing>
1

>  <naRing>
2

>  <naHRing>
0

>  <nARing 2>
1

>  <nAHRing 2>
1

>  <nFRing>
0

>  <nFHRing>
0

>  <nFaRing>
0

>  <nFaHRing>
0

>  <nFARing 2>
0

>  <nFAHRing 2>
0

>  <nRot>
6

>  <SLogP>
4.14

>  <SMR>
103.83

>  <TopoPSA(NO)>
23.55

>  <TopoPSA>
23.55

>  <JGI1>
0.13

>  <JGI2>
0.06

>  <JGI3>
0.04

>  <JGI4>
0.03

>  <JGI5>
0.02

>  <Diameter>
14

>  <Radius>
7

>  <TMWC10>
125.81

>  <TSRW10>
59.26

>  <MW>
336.22

>  <AMW>
6.34

>  <WPath>
1680

>  <WPol>
36

>  <Zagreb1>
124

>  <Zagreb2>
142

>  <mZagreb2>
5.75

>  <yes>


>  <nAR-cont>
0.816016

>  <nHA-cont>
0.921834225

>  <MWHBN>
0.109073242

>  <MWHBN-cont>
0.778590313

>  <TPSA-cont>
0.835606376

>  <pka_cont>
0.97

>  <yes.1>


>  <BBB_SCORE>
5.061948447

>  <MMFF94 Energy>
45.311

$$$$
Compound 616
Actelion Java MolfileCreator 2.0

  0  0  0  0  0  0              0 V3000
M  V30 BEGIN CTAB
M  V30 COUNTS 31 33 0 0 0
M  V30 BEGIN ATOM
M  V30 1 Cl -2.5269 -2.6085 -2.935 0
M  V30 2 C -1.0392 -2.0681 -2.263 0
M  V30 3 C -1.0206 -0.9471 -1.4361 0
M  V30 4 C 0.136 -2.7603 -2.5411 0
M  V30 5 C 0.1898 -0.5093 -0.8752 0
M  V30 6 C 1.3464 -2.3167 -2.0043 0
M  V30 7 C 0.1567 0.6454 0.0747 0
M  V30 8 C 1.3853 -1.1778 -1.1908 0
M  V30 9 N 0.9922 1.6304 0.0649 0
M  V30 10 C -0.9138 0.6761 1.1221 0
M  V30 11 N 2.6437 -0.7784 -0.723 0
M  V30 12 C 2.0664 1.6491 -0.9201 0 CFG=2
M  V30 13 C -1.4801 1.9066 1.4767 0
M  V30 14 C -1.332 -0.4937 1.7691 0
M  V30 15 C 3.0646 0.5179 -0.5447 0
M  V30 16 O 2.7294 2.901 -0.9652 0
M  V30 17 C -2.4785 1.9628 2.4503 0
M  V30 18 C -2.3315 -0.432 2.7427 0
M  V30 19 O 4.2037 0.7298 -0.1232 0
M  V30 20 C -2.9061 0.7938 3.0791 0
M  V30 21 H -1.9499 -0.4204 -1.2292 0
M  V30 22 H 0.1195 -3.638 -3.1831 0
M  V30 23 H 2.2592 -2.8559 -2.2497 0
M  V30 24 H 3.3636 -1.4718 -0.5596 0
M  V30 25 H 1.6877 1.4758 -1.9336 0
M  V30 26 H -1.1456 2.8239 0.9964 0
M  V30 27 H -0.88 -1.4551 1.542 0
M  V30 28 H 3.0473 3.0247 -0.0537 0
M  V30 29 H -2.9176 2.9198 2.7218 0
M  V30 30 H -2.6569 -1.3388 3.2468 0
M  V30 31 H -3.6811 0.8403 3.8407 0
M  V30 END ATOM
M  V30 BEGIN BOND
M  V30 1 1 1 2
M  V30 2 2 2 3
M  V30 3 1 2 4
M  V30 4 1 3 5
M  V30 5 2 4 6
M  V30 6 1 5 7
M  V30 7 2 5 8
M  V30 8 2 7 9
M  V30 9 1 7 10
M  V30 10 1 8 11
M  V30 11 1 9 12
M  V30 12 2 10 13
M  V30 13 1 10 14
M  V30 14 1 11 15
M  V30 15 1 12 16
M  V30 16 1 13 17
M  V30 17 2 14 18
M  V30 18 2 15 19
M  V30 19 2 17 20
M  V30 20 1 6 8
M  V30 21 1 12 15
M  V30 22 1 18 20
M  V30 23 1 3 21
M  V30 24 1 4 22
M  V30 25 1 6 23
M  V30 26 1 11 24
M  V30 27 1 12 25
M  V30 28 1 13 26
M  V30 29 1 14 27
M  V30 30 1 16 28
M  V30 31 1 17 29
M  V30 32 1 18 30
M  V30 33 1 20 31
M  V30 END BOND
M  V30 BEGIN COLLECTION
M  V30 MDLV30/STERAC1 ATOMS=(1 12)
M  V30 END COLLECTION
M  V30 END CTAB
M  END
>  <Column 1>
743

>  <level_0>
849

>  <index>
849

>  <Unnamed: 0>
849

>  <NO.>
861

>  <Name>
604-75-1

>  <IUPAC_name>
7-chloro-3-hydroxy-5-phenyl-1-3-dihydro-1-4-benzodiazepin-2-one

>  <SMILES>
O=C1Nc2ccc(Cl)cc2C(c2ccccc2)=NC1O

>  <CID>
4616

>  <logBB>
0.6

>  <BBB+/BBB->
BBB+

>  <Inchi>
InChI=1S/C15H11ClN2O2/c16-10-6-7-12-11(8-10)13(9-4-2-1-3-5-9)18-15(20)14(19)17-12/h1-8-15-20H-(H-17-19)

>  <threshold>


>  <reference>
R3|R4|R40|R38|R41|R50|R21|R27|R8|R2|R2|R27|R3|R11|R12|R17|R20|R25|R35|R36|R42|R43|R44|R47|R49|R49|

>  <group>
A

>  <Class>
1

>  <ABC>
15.72

>  <ABCGG>
12.95

>  <nAcid>
0

>  <nBase>
0

>  <nAromAtom>
12

>  <nAromBond>
12

>  <nAtom>
31

>  <nHeavyAtom>
20

>  <nSpiro>
0

>  <nBridgehead>
0

>  <nHetero>
5

>  <nN>
2

>  <nO>
2

>  <nF>
0

>  <BalabanJ>
1.79

>  <BertzCT>
698.27

>  <nBonds>
33

>  <nBondsO>
22

>  <nBondsS>
19

>  <nBondsD>
2

>  <nBondsT>
0

>  <nBondsA>
12

>  <nBondsM>
14

>  <nBondsKS>
25

>  <nBondsKD>
8

>  <RNCG>
0.22

>  <RPCG>
0.16

>  <FCSP3>
0.07

>  <SZ>
24.67

>  <Sm>
23.87

>  <Sv>
22.02

>  <Sse>
31.64

>  <Sp>
22.98

>  <Si>
34.44

>  <MZ>
0.8

>  <Mm>
0.77

>  <Mv>
0.71

>  <Mse>
1.02

>  <Mp>
0.74

>  <Mi>
1.11

>  <NsCH3>
0

>  <NdCH2>
0

>  <NssCH2>
0

>  <NtCH>
0

>  <NdsCH>
0

>  <NaaCH>
8

>  <NsssCH>
1

>  <NddC>
0

>  <NtsC>
0

>  <NdssC>
2

>  <NaasC>
4

>  <NaaaC>
0

>  <NssssC>
0

>  <NsNH3>
0

>  <NsNH2>
0

>  <NssNH2>
0

>  <NdNH>
0

>  <NssNH>
1

>  <NaaNH>
0

>  <NtN>
0

>  <NsssNH>
0

>  <NdsN>
1

>  <NaaN>
0

>  <NsssN>
0

>  <NddsN>
0

>  <NaasN>
0

>  <NssssN>
0

>  <NsOH>
1

>  <NdO>
1

>  <NssO>
0

>  <NaaO>
0

>  <NsF>
0

>  <NsSiH3>
0

>  <NssSiH2>
0

>  <NsssSiH>
0

>  <NssssSi>
0

>  <NsPH2>
0

>  <NssPH>
0

>  <NsssP>
0

>  <NdsssP>
0

>  <NsssssP>
0

>  <NsSH>
0

>  <NdS>
0

>  <NssS>
0

>  <NaaS>
0

>  <NdssS>
0

>  <NddssS>
0

>  <NsCl>
1

>  <NsBr>
0

>  <NsI>
0

>  <fragCpx>
104.05

>  <fMF>
0.55

>  <nHBAcc>
3

>  <nHBDon>
2

>  <Kier1>
14.92

>  <Kier2>
6.41

>  <Lipinski>
1

>  <GhoseFilter>
1

>  <FilterItLogS>
-4.31

>  <VMcGowan>
199.17

>  <LabuteASA>
120.28

>  <PEOE_VSA1>
10.42

>  <PEOE_VSA2>
4.79

>  <PEOE_VSA3>
4.99

>  <PEOE_VSA4>
0

>  <PEOE_VSA5>
0

>  <PEOE_VSA6>
41.93

>  <PEOE_VSA7>
18.2

>  <PEOE_VSA8>
16.15

>  <PEOE_VSA9>
11.4

>  <PEOE_VSA10>
0

>  <PEOE_VSA11>
0

>  <PEOE_VSA12>
6.23

>  <PEOE_VSA13>
5.91

>  <SMR_VSA1>
9.9

>  <SMR_VSA2>
0

>  <SMR_VSA3>
0

>  <SMR_VSA4>
4.99

>  <SMR_VSA5>
6.23

>  <SMR_VSA6>
5.32

>  <SMR_VSA7>
64.68

>  <SMR_VSA8>
0

>  <SMR_VSA9>
0

>  <SlogP_VSA1>
5.32

>  <SlogP_VSA2>
22.95

>  <SlogP_VSA3>
4.79

>  <SlogP_VSA4>
0

>  <SlogP_VSA5>
11.13

>  <SlogP_VSA6>
53.52

>  <SlogP_VSA7>
5.02

>  <SlogP_VSA8>
0

>  <SlogP_VSA9>
0

>  <SlogP_VSA10>
5.69

>  <SlogP_VSA11>
0

>  <EState_VSA1>
12.14

>  <EState_VSA2>
0

>  <EState_VSA3>
21.99

>  <EState_VSA4>
5.56

>  <EState_VSA5>
0

>  <EState_VSA6>
18.2

>  <EState_VSA7>
30.33

>  <EState_VSA8>
10.31

>  <EState_VSA9>
11.6

>  <EState_VSA10>
9.9

>  <VSA_EState1>
0

>  <VSA_EState2>
15.85

>  <VSA_EState3>
12.98

>  <VSA_EState4>
2.62

>  <VSA_EState5>
-0.56

>  <VSA_EState6>
14.47

>  <VSA_EState7>
-1.43

>  <VSA_EState8>
0

>  <VSA_EState9>
0

>  <apol>
38.37

>  <bpol>
14.12

>  <nRing>
3

>  <nHRing>
1

>  <naRing>
2

>  <naHRing>
0

>  <nARing 2>
1

>  <nAHRing 2>
1

>  <nFRing>
1

>  <nFHRing>
1

>  <nFaRing>
0

>  <nFaHRing>
0

>  <nFARing 2>
1

>  <nFAHRing 2>
1

>  <nRot>
1

>  <SLogP>
2.45

>  <SMR>
78.17

>  <TopoPSA(NO)>
61.69

>  <TopoPSA>
61.69

>  <JGI1>
0.18

>  <JGI2>
0.08

>  <JGI3>
0.04

>  <JGI4>
0.05

>  <JGI5>
0.02

>  <Diameter>
8

>  <Radius>
4

>  <TMWC10>
115.68

>  <TSRW10>
61.83

>  <MW>
286.05

>  <AMW>
9.23

>  <WPath>
727

>  <WPol>
35

>  <Zagreb1>
106

>  <Zagreb2>
125

>  <mZagreb2>
4.36

>  <yes>


>  <nAR-cont>
0.816016

>  <nHA-cont>
0.999629945

>  <MWHBN>
0.295630357

>  <MWHBN-cont>
0.853594591

>  <TPSA-cont>
0.569365493

>  <pka_cont>
0.97

>  <yes.1>


>  <BBB_SCORE>
4.719768817

>  <MMFF94 Energy>
95.771

$$$$
Compound 617
Actelion Java MolfileCreator 2.0

  0  0  0  0  0  0              0 V3000
M  V30 BEGIN CTAB
M  V30 COUNTS 37 39 0 0 0
M  V30 BEGIN ATOM
M  V30 1 S 0.0805 -2.4992 -1.0475 0
M  V30 2 C -1.3169 -1.4069 -1.2125 0
M  V30 3 C 1.4468 -1.3863 -1.3101 0
M  V30 4 C -1.1986 -0.0026 -1.1932 0
M  V30 5 C -2.575 -2.0195 -1.3548 0
M  V30 6 C 1.3122 0.0159 -1.2685 0
M  V30 7 C 2.7015 -1.98 -1.5364 0
M  V30 8 N 0.0575 0.6339 -1.0175 0
M  V30 9 C -2.3785 0.7408 -1.4021 0
M  V30 10 C -3.7268 -1.2557 -1.518 0
M  V30 11 C 2.4735 0.7793 -1.5101 0
M  V30 12 C 3.833 -1.1986 -1.7506 0
M  V30 13 C 0.0752 1.8936 -0.2349 0
M  V30 14 C -3.6263 0.1269 -1.554 0
M  V30 15 C 3.7171 0.1834 -1.744 0
M  V30 16 C 0.6042 1.7041 1.1955 0
M  V30 17 C -0.2979 0.8048 2.0425 0
M  V30 18 N 0.1889 0.7869 3.4265 0
M  V30 19 C -0.6539 -0.0645 4.2573 0
M  V30 20 H -2.6604 -3.1042 -1.3505 0
M  V30 21 H 2.8005 -3.0633 -1.5529 0
M  V30 22 H -2.3479 1.8229 -1.4916 0
M  V30 23 H -4.6921 -1.7403 -1.6359 0
M  V30 24 H 2.4327 1.8635 -1.5445 0
M  V30 25 H 4.7957 -1.6689 -1.931 0
M  V30 26 H -0.9114 2.3593 -0.1501 0
M  V30 27 H 0.6752 2.652 -0.7503 0
M  V30 28 H -4.5139 0.7343 -1.712 0
M  V30 29 H 4.5902 0.8047 -1.9268 0
M  V30 30 H 0.6653 2.6961 1.6628 0
M  V30 31 H 1.6248 1.3044 1.1867 0
M  V30 32 H -0.2997 -0.2136 1.64 0
M  V30 33 H -1.3248 1.188 2.0159 0
M  V30 34 H 1.1407 0.419 3.4378 0
M  V30 35 H -0.6551 -1.0997 3.9007 0
M  V30 36 H -1.6837 0.306 4.2866 0
M  V30 37 H -0.2739 -0.0622 5.2836 0
M  V30 END ATOM
M  V30 BEGIN BOND
M  V30 1 1 1 2
M  V30 2 1 1 3
M  V30 3 2 2 4
M  V30 4 1 2 5
M  V30 5 2 3 6
M  V30 6 1 3 7
M  V30 7 1 4 8
M  V30 8 1 4 9
M  V30 9 2 5 10
M  V30 10 1 6 11
M  V30 11 2 7 12
M  V30 12 1 8 13
M  V30 13 2 9 14
M  V30 14 2 11 15
M  V30 15 1 13 16
M  V30 16 1 16 17
M  V30 17 1 17 18
M  V30 18 1 18 19
M  V30 19 1 6 8
M  V30 20 1 10 14
M  V30 21 1 12 15
M  V30 22 1 5 20
M  V30 23 1 7 21
M  V30 24 1 9 22
M  V30 25 1 10 23
M  V30 26 1 11 24
M  V30 27 1 12 25
M  V30 28 1 13 26
M  V30 29 1 13 27
M  V30 30 1 14 28
M  V30 31 1 15 29
M  V30 32 1 16 30
M  V30 33 1 16 31
M  V30 34 1 17 32
M  V30 35 1 17 33
M  V30 36 1 18 34
M  V30 37 1 19 35
M  V30 38 1 19 36
M  V30 39 1 19 37
M  V30 END BOND
M  V30 END CTAB
M  END
>  <Column 1>
744

>  <level_0>
850

>  <index>
850

>  <Unnamed: 0>
850

>  <NO.>
862

>  <Name>
desmonomethylpromazine

>  <IUPAC_name>
n-methyl-3-phenothiazin-10-ylpropan-1-amine

>  <SMILES>
CNCCCN1c2ccccc2Sc2ccccc21

>  <CID>
28315

>  <logBB>
0.6

>  <BBB+/BBB->
BBB+

>  <Inchi>
InChI=1S/C16H18N2S/c1-17-11-6-12-18-13-7-2-4-9-15(13)19-16-10-5-3-8-14(16)18/h2-5-7-10-17H-6-11-12H2-1H3

>  <threshold>


>  <reference>
R2|R2|R8|R27|R40|R3|R11|R12|R18|R21|R25|R26|R27|R27|R35|R36|R38|R39|R41|R46|R47|R4|R5|

>  <group>
A

>  <Class>
1

>  <ABC>
14.69

>  <ABCGG>
11.66

>  <nAcid>
0

>  <nBase>
1

>  <nAromAtom>
12

>  <nAromBond>
12

>  <nAtom>
37

>  <nHeavyAtom>
19

>  <nSpiro>
0

>  <nBridgehead>
0

>  <nHetero>
3

>  <nN>
2

>  <nO>
0

>  <nF>
0

>  <BalabanJ>
1.69

>  <BertzCT>
522.68

>  <nBonds>
39

>  <nBondsO>
21

>  <nBondsS>
27

>  <nBondsD>
0

>  <nBondsT>
0

>  <nBondsA>
12

>  <nBondsM>
12

>  <nBondsKS>
33

>  <nBondsKD>
6

>  <RNCG>
0.28

>  <RPCG>
0.1

>  <FCSP3>
0.25

>  <SZ>
24

>  <Sm>
22.51

>  <Sv>
23.58

>  <Sse>
36.39

>  <Sp>
26.24

>  <Si>
41.24

>  <MZ>
0.65

>  <Mm>
0.61

>  <Mv>
0.64

>  <Mse>
0.98

>  <Mp>
0.71

>  <Mi>
1.11

>  <NsCH3>
1

>  <NdCH2>
0

>  <NssCH2>
3

>  <NtCH>
0

>  <NdsCH>
0

>  <NaaCH>
8

>  <NsssCH>
0

>  <NddC>
0

>  <NtsC>
0

>  <NdssC>
0

>  <NaasC>
4

>  <NaaaC>
0

>  <NssssC>
0

>  <NsNH3>
0

>  <NsNH2>
0

>  <NssNH2>
0

>  <NdNH>
0

>  <NssNH>
1

>  <NaaNH>
0

>  <NtN>
0

>  <NsssNH>
0

>  <NdsN>
0

>  <NaaN>
0

>  <NsssN>
1

>  <NddsN>
0

>  <NaasN>
0

>  <NssssN>
0

>  <NsOH>
0

>  <NdO>
0

>  <NssO>
0

>  <NaaO>
0

>  <NsF>
0

>  <NsSiH3>
0

>  <NssSiH2>
0

>  <NsssSiH>
0

>  <NssssSi>
0

>  <NsPH2>
0

>  <NssPH>
0

>  <NsssP>
0

>  <NdsssP>
0

>  <NsssssP>
0

>  <NsSH>
0

>  <NdS>
0

>  <NssS>
1

>  <NaaS>
0

>  <NdssS>
0

>  <NddssS>
0

>  <NsCl>
0

>  <NsBr>
0

>  <NsI>
0

>  <fragCpx>
99.03

>  <fMF>
0.38

>  <nHBAcc>
3

>  <nHBDon>
1

>  <Kier1>
13.96

>  <Kier2>
6.64

>  <Lipinski>
1

>  <GhoseFilter>
1

>  <FilterItLogS>
-4.8

>  <VMcGowan>
214.23

>  <LabuteASA>
118.38

>  <PEOE_VSA1>
10.22

>  <PEOE_VSA2>
0

>  <PEOE_VSA3>
0

>  <PEOE_VSA4>
0

>  <PEOE_VSA5>
0

>  <PEOE_VSA6>
36.03

>  <PEOE_VSA7>
44.28

>  <PEOE_VSA8>
16.34

>  <PEOE_VSA9>
11.37

>  <PEOE_VSA10>
0

>  <PEOE_VSA11>
0

>  <PEOE_VSA12>
0

>  <PEOE_VSA13>
0

>  <SMR_VSA1>
0

>  <SMR_VSA2>
0

>  <SMR_VSA3>
5.32

>  <SMR_VSA4>
0

>  <SMR_VSA5>
16.21

>  <SMR_VSA6>
25.04

>  <SMR_VSA7>
48.53

>  <SMR_VSA8>
0

>  <SMR_VSA9>
0

>  <SlogP_VSA1>
10.22

>  <SlogP_VSA2>
20.14

>  <SlogP_VSA3>
0

>  <SlogP_VSA4>
0

>  <SlogP_VSA5>
6.42

>  <SlogP_VSA6>
58.32

>  <SlogP_VSA7>
0

>  <SlogP_VSA8>
0

>  <SlogP_VSA9>
0

>  <SlogP_VSA10>
11.37

>  <SlogP_VSA11>
0

>  <EState_VSA1>
0

>  <EState_VSA2>
0

>  <EState_VSA3>
0

>  <EState_VSA4>
19.51

>  <EState_VSA5>
21.17

>  <EState_VSA6>
0

>  <EState_VSA7>
18.81

>  <EState_VSA8>
58.75

>  <EState_VSA9>
0

>  <EState_VSA10>
0

>  <VSA_EState1>
0

>  <VSA_EState2>
5.15

>  <VSA_EState3>
3.22

>  <VSA_EState4>
2.67

>  <VSA_EState5>
0

>  <VSA_EState6>
17.34

>  <VSA_EState7>
1.14

>  <VSA_EState8>
2.1

>  <VSA_EState9>
2.01

>  <apol>
43.82

>  <bpol>
22.8

>  <nRing>
3

>  <nHRing>
1

>  <naRing>
2

>  <naHRing>
0

>  <nARing 2>
1

>  <nAHRing 2>
1

>  <nFRing>
1

>  <nFHRing>
1

>  <nFaRing>
0

>  <nFaHRing>
0

>  <nFARing 2>
1

>  <nFAHRing 2>
1

>  <nRot>
4

>  <SLogP>
3.9

>  <SMR>
82.56

>  <TopoPSA(NO)>
15.27

>  <TopoPSA>
40.57

>  <JGI1>
0.1

>  <JGI2>
0.06

>  <JGI3>
0.04

>  <JGI4>
0.04

>  <JGI5>
0.02

>  <Diameter>
9

>  <Radius>
5

>  <TMWC10>
113.16

>  <TSRW10>
52.49

>  <MW>
270.12

>  <AMW>
7.3

>  <WPath>
674

>  <WPol>
30

>  <Zagreb1>
98

>  <Zagreb2>
116

>  <mZagreb2>
4.36

>  <yes>


>  <nAR-cont>
0.816016

>  <nHA-cont>
0.998649058

>  <MWHBN>
0.24337817

>  <MWHBN-cont>
0.970204846

>  <TPSA-cont>
0.716796208

>  <pka_cont>
0.97

>  <yes.1>


>  <BBB_SCORE>
5.188564742

>  <MMFF94 Energy>
64.215

$$$$
Compound 618
Actelion Java MolfileCreator 2.0

  0  0  0  0  0  0              0 V3000
M  V30 BEGIN CTAB
M  V30 COUNTS 43 45 0 0 0
M  V30 BEGIN ATOM
M  V30 1 O -1.2796 -2.5606 -0.4797 0
M  V30 2 C -1.0004 -1.9341 0.5299 0
M  V30 3 O -0.4951 -0.675 0.5703 0
M  V30 4 C -1.1887 -2.466 1.907 0
M  V30 5 C -0.2252 -0.054 -0.7079 0
M  V30 6 C -1.7204 -3.7552 2.0503 0
M  V30 7 C -0.8558 -1.7285 3.052 0
M  V30 8 C 0.7802 1.0876 -0.4755 0
M  V30 9 C -1.5436 0.4738 -1.3068 0
M  V30 10 C -1.9176 -4.2992 3.3212 0
M  V30 11 C -1.0547 -2.2765 4.3219 0
M  V30 12 C 2.1787 0.5461 -0.2578 0
M  V30 13 C 0.8006 2.0887 -1.6487 0
M  V30 14 C -1.3216 1.5427 -2.3899 0
M  V30 15 C -1.585 -3.5594 4.4552 0
M  V30 16 O 2.5788 -0.5538 -0.6109 0
M  V30 17 O 2.9417 1.4783 0.3845 0
M  V30 18 N -0.526 2.6722 -1.8979 0
M  V30 19 C 1.0185 1.4079 -3.0119 0
M  V30 20 C -0.3894 1.0346 -3.4953 0
M  V30 21 C 4.2859 1.0614 0.6301 0
M  V30 22 C -1.1088 3.4369 -0.8107 0
M  V30 23 H 0.209 -0.8034 -1.3825 0
M  V30 24 H -1.982 -4.3415 1.1712 0
M  V30 25 H -0.4398 -0.7276 2.9723 0
M  V30 26 H 0.5108 1.595 0.4611 0
M  V30 27 H -2.1869 0.8655 -0.5088 0
M  V30 28 H -2.1047 -0.3651 -1.7369 0
M  V30 29 H -2.3296 -5.3001 3.4249 0
M  V30 30 H -0.7947 -1.7023 5.2081 0
M  V30 31 H 1.5573 2.8662 -1.4927 0
M  V30 32 H -2.2805 1.8665 -2.8089 0
M  V30 33 H -1.7381 -3.9843 5.4445 0
M  V30 34 H 1.6755 0.5345 -2.9675 0
M  V30 35 H 1.4659 2.1154 -3.7219 0
M  V30 36 H -0.4882 -0.0408 -3.6754 0
M  V30 37 H -0.5957 1.5496 -4.4418 0
M  V30 38 H 4.8032 1.8743 1.1474 0
M  V30 39 H 4.3011 0.176 1.2733 0
M  V30 40 H 4.8044 0.8659 -0.3136 0
M  V30 41 H -2.0622 3.873 -1.1286 0
M  V30 42 H -0.4529 4.2736 -0.5465 0
M  V30 43 H -1.2945 2.8579 0.0981 0
M  V30 END ATOM
M  V30 BEGIN BOND
M  V30 1 2 1 2
M  V30 2 1 2 3
M  V30 3 1 2 4
M  V30 4 1 3 5
M  V30 5 2 4 6
M  V30 6 1 4 7
M  V30 7 1 5 8
M  V30 8 1 5 9
M  V30 9 1 6 10
M  V30 10 2 7 11
M  V30 11 1 8 12
M  V30 12 1 8 13
M  V30 13 1 9 14
M  V30 14 2 10 15
M  V30 15 2 12 16
M  V30 16 1 12 17
M  V30 17 1 13 18
M  V30 18 1 13 19
M  V30 19 1 14 20
M  V30 20 1 17 21
M  V30 21 1 18 22
M  V30 22 1 11 15
M  V30 23 1 14 18
M  V30 24 1 19 20
M  V30 25 1 5 23
M  V30 26 1 6 24
M  V30 27 1 7 25
M  V30 28 1 8 26
M  V30 29 1 9 27
M  V30 30 1 9 28
M  V30 31 1 10 29
M  V30 32 1 11 30
M  V30 33 1 13 31
M  V30 34 1 14 32
M  V30 35 1 15 33
M  V30 36 1 19 34
M  V30 37 1 19 35
M  V30 38 1 20 36
M  V30 39 1 20 37
M  V30 40 1 21 38
M  V30 41 1 21 39
M  V30 42 1 21 40
M  V30 43 1 22 41
M  V30 44 1 22 42
M  V30 45 1 22 43
M  V30 END BOND
M  V30 END CTAB
M  END
>  <Column 1>
745

>  <level_0>
851

>  <index>
851

>  <Unnamed: 0>
851

>  <NO.>
863

>  <Name>
cocaine

>  <IUPAC_name>
methyl 3-benzoyloxy-8-methyl-8-azabicyclo[3.2.1]octane-2-carboxylate

>  <SMILES>
COC(=O)C1C(OC(=O)c2ccccc2)CC2CCC1N2C

>  <CID>
2826

>  <logBB>
0.6

>  <BBB+/BBB->
BBB+

>  <Inchi>
InChI=1S/C17H21NO4/c1-18-12-8-9-13(18)15(17(20)21-2)14(10-12)22-16(19)11-6-4-3-5-7-11/h3-7-12-15H-8-10H2-1-2H3

>  <threshold>


>  <reference>
R3|R38|R18|R25|R26|R27|R27|R41|R43|R46|R47|R2|R2|R27|R40|

>  <group>
A

>  <Class>
1

>  <ABC>
17.06

>  <ABCGG>
14.79

>  <nAcid>
0

>  <nBase>
1

>  <nAromAtom>
6

>  <nAromBond>
6

>  <nAtom>
43

>  <nHeavyAtom>
22

>  <nSpiro>
0

>  <nBridgehead>
2

>  <nHetero>
5

>  <nN>
1

>  <nO>
4

>  <nF>
0

>  <BalabanJ>
1.67

>  <BertzCT>
559.04

>  <nBonds>
45

>  <nBondsO>
24

>  <nBondsS>
37

>  <nBondsD>
2

>  <nBondsT>
0

>  <nBondsA>
6

>  <nBondsM>
8

>  <nBondsKS>
40

>  <nBondsKD>
5

>  <RNCG>
0.22

>  <RPCG>
0.16

>  <FCSP3>
0.53

>  <SZ>
27

>  <Sm>
25.26

>  <Sv>
26.31

>  <Sse>
43.31

>  <Sp>
27.96

>  <Si>
48.49

>  <MZ>
0.63

>  <Mm>
0.59

>  <Mv>
0.61

>  <Mse>
1.01

>  <Mp>
0.65

>  <Mi>
1.13

>  <NsCH3>
2

>  <NdCH2>
0

>  <NssCH2>
3

>  <NtCH>
0

>  <NdsCH>
0

>  <NaaCH>
5

>  <NsssCH>
4

>  <NddC>
0

>  <NtsC>
0

>  <NdssC>
2

>  <NaasC>
1

>  <NaaaC>
0

>  <NssssC>
0

>  <NsNH3>
0

>  <NsNH2>
0

>  <NssNH2>
0

>  <NdNH>
0

>  <NssNH>
0

>  <NaaNH>
0

>  <NtN>
0

>  <NsssNH>
0

>  <NdsN>
0

>  <NaaN>
0

>  <NsssN>
1

>  <NddsN>
0

>  <NaasN>
0

>  <NssssN>
0

>  <NsOH>
0

>  <NdO>
2

>  <NssO>
2

>  <NaaO>
0

>  <NsF>
0

>  <NsSiH3>
0

>  <NssSiH2>
0

>  <NsssSiH>
0

>  <NssssSi>
0

>  <NsPH2>
0

>  <NssPH>
0

>  <NsssP>
0

>  <NdsssP>
0

>  <NsssssP>
0

>  <NsSH>
0

>  <NdS>
0

>  <NssS>
0

>  <NaaS>
0

>  <NdssS>
0

>  <NddssS>
0

>  <NsCl>
0

>  <NsBr>
0

>  <NsI>
0

>  <fragCpx>
114.05

>  <fMF>
0.37

>  <nHBAcc>
5

>  <nHBDon>
0

>  <Kier1>
16.84

>  <Kier2>
7.27

>  <Lipinski>
1

>  <GhoseFilter>
1

>  <FilterItLogS>
-2.13

>  <VMcGowan>
229.77

>  <LabuteASA>
129.74

>  <PEOE_VSA1>
9.47

>  <PEOE_VSA2>
9.69

>  <PEOE_VSA3>
4.79

>  <PEOE_VSA4>
0

>  <PEOE_VSA5>
0

>  <PEOE_VSA6>
18.2

>  <PEOE_VSA7>
32.02

>  <PEOE_VSA8>
18.5

>  <PEOE_VSA9>
12.67

>  <PEOE_VSA10>
12.02

>  <PEOE_VSA11>
0

>  <PEOE_VSA12>
0

>  <PEOE_VSA13>
0

>  <SMR_VSA1>
19.06

>  <SMR_VSA2>
0

>  <SMR_VSA3>
4.9

>  <SMR_VSA4>
5.92

>  <SMR_VSA5>
37.45

>  <SMR_VSA6>
14.16

>  <SMR_VSA7>
35.9

>  <SMR_VSA8>
0

>  <SMR_VSA9>
0

>  <SlogP_VSA1>
0

>  <SlogP_VSA2>
49.18

>  <SlogP_VSA3>
14.27

>  <SlogP_VSA4>
5.92

>  <SlogP_VSA5>
29.62

>  <SlogP_VSA6>
30.33

>  <SlogP_VSA7>
0

>  <SlogP_VSA8>
0

>  <SlogP_VSA9>
0

>  <SlogP_VSA10>
0

>  <SlogP_VSA11>
0

>  <EState_VSA1>
12.02

>  <EState_VSA2>
17.98

>  <EState_VSA3>
18.03

>  <EState_VSA4>
12.84

>  <EState_VSA5>
7.11

>  <EState_VSA6>
24.27

>  <EState_VSA7>
13.11

>  <EState_VSA8>
4.9

>  <EState_VSA9>
9.47

>  <EState_VSA10>
9.59

>  <VSA_EState1>
10.62

>  <VSA_EState2>
26.72

>  <VSA_EState3>
0

>  <VSA_EState4>
0.51

>  <VSA_EState5>
-1.06

>  <VSA_EState6>
9.36

>  <VSA_EState7>
2.26

>  <VSA_EState8>
0

>  <VSA_EState9>
3.42

>  <apol>
46.7

>  <bpol>
27.99

>  <nRing>
3

>  <nHRing>
2

>  <naRing>
1

>  <naHRing>
0

>  <nARing 2>
2

>  <nAHRing 2>
2

>  <nFRing>
1

>  <nFHRing>
1

>  <nFaRing>
0

>  <nFaHRing>
0

>  <nFARing 2>
1

>  <nFAHRing 2>
1

>  <nRot>
3

>  <SLogP>
1.87

>  <SMR>
80.34

>  <TopoPSA(NO)>
55.84

>  <TopoPSA>
55.84

>  <JGI1>
0.17

>  <JGI2>
0.08

>  <JGI3>
0.06

>  <JGI4>
0.04

>  <JGI5>
0.03

>  <Diameter>
10

>  <Radius>
5

>  <TMWC10>
120.94

>  <TSRW10>
70.57

>  <MW>
303.15

>  <AMW>
7.05

>  <WPath>
1021

>  <WPol>
36

>  <Zagreb1>
116

>  <Zagreb2>
139

>  <mZagreb2>
4.92

>  <yes>


>  <nAR-cont>
1

>  <nHA-cont>
0.983774276

>  <MWHBN>
0.287171422

>  <MWHBN-cont>
0.877295808

>  <TPSA-cont>
0.610202125

>  <pka_cont>
0.97

>  <yes.1>


>  <BBB_SCORE>
5.005122238

>  <MMFF94 Energy>
29.927

$$$$
Compound 619
Actelion Java MolfileCreator 2.0

  0  0  0  0  0  0              0 V3000
M  V30 BEGIN CTAB
M  V30 COUNTS 29 30 0 0 0
M  V30 BEGIN ATOM
M  V30 1 Cl 0.403 -3.7124 -2.5814 0
M  V30 2 C -0.6648 -2.6356 -1.7525 0
M  V30 3 C -0.1932 -1.5289 -1.0278 0
M  V30 4 C -2.0348 -2.8998 -1.837 0
M  V30 5 C -1.1226 -0.6776 -0.4057 0
M  V30 6 C 1.2758 -1.2272 -0.8474 0 CFG=1
M  V30 7 C -2.9487 -2.0632 -1.2021 0
M  V30 8 N -0.6767 0.4708 0.2632 0
M  V30 9 C -2.4934 -0.9538 -0.4923 0
M  V30 10 N 1.4897 0.1431 -0.434 0
M  V30 11 C 1.911 -2.1412 0.2046 0
M  V30 12 C 0.607 0.9296 0.2303 0
M  V30 13 N 1.0726 2.0186 0.7427 0
M  V30 14 C 0.144 2.9016 1.4582 0
M  V30 15 C 0.8549 4.1708 1.9162 0
M  V30 16 F 0.9734 5.0431 0.8817 0
M  V30 17 F 0.0908 4.7959 2.8526 0
M  V30 18 H -2.3962 -3.7578 -2.3989 0
M  V30 19 H 1.7943 -1.3566 -1.8037 0
M  V30 20 H -4.0141 -2.2685 -1.2695 0
M  V30 21 H -1.3767 1.0204 0.7345 0
M  V30 22 H -3.2193 -0.2982 -0.0177 0
M  V30 23 H 2.4339 0.503 -0.4798 0
M  V30 24 H 1.4333 -2.0167 1.184 0
M  V30 25 H 1.832 -3.198 -0.0669 0
M  V30 26 H 2.9748 -1.9079 0.3275 0
M  V30 27 H -0.6936 3.1861 0.8111 0
M  V30 28 H -0.2545 2.3854 2.3393 0
M  V30 29 H 1.8451 3.98 2.339 0
M  V30 END ATOM
M  V30 BEGIN BOND
M  V30 1 1 1 2
M  V30 2 2 2 3
M  V30 3 1 2 4
M  V30 4 1 3 5
M  V30 5 1 3 6
M  V30 6 2 4 7
M  V30 7 1 5 8
M  V30 8 2 5 9
M  V30 9 1 6 10
M  V30 10 1 6 11
M  V30 11 1 8 12
M  V30 12 2 12 13
M  V30 13 1 13 14
M  V30 14 1 14 15
M  V30 15 1 15 16
M  V30 16 1 15 17
M  V30 17 1 7 9
M  V30 18 1 10 12
M  V30 19 1 4 18
M  V30 20 1 6 19
M  V30 21 1 7 20
M  V30 22 1 8 21
M  V30 23 1 9 22
M  V30 24 1 10 23
M  V30 25 1 11 24
M  V30 26 1 11 25
M  V30 27 1 11 26
M  V30 28 1 14 27
M  V30 29 1 14 28
M  V30 30 1 15 29
M  V30 END BOND
M  V30 BEGIN COLLECTION
M  V30 MDLV30/STERAC1 ATOMS=(1 6)
M  V30 END COLLECTION
M  V30 END CTAB
M  END
>  <Column 1>
746

>  <level_0>
852

>  <index>
852

>  <Unnamed: 0>
852

>  <NO.>
864

>  <Name>
5-hydroxytryptamine (5-ht) receptor ligand 1b

>  <IUPAC_name>
5-chloro-n-(2-2-difluoroethyl)-4-methyl-3-4-dihydro-1h-quinazolin-2-imine

>  <SMILES>
CC1NC(=NCC(F)F)Nc2cccc(Cl)c21

>  <CID>
135458393

>  <logBB>
0.6

>  <BBB+/BBB->
BBB+

>  <Inchi>
InChI=1S/C11H12ClF2N3/c1-6-10-7(12)3-2-4-8(10)17-11(16-6)15-5-9(13)14/h2-4-6-9H-5H2-1H3-(H2-15-16-17)

>  <threshold>


>  <reference>
R2|R2|R20|R25|R27|R46|

>  <group>
A

>  <Class>
1

>  <ABC>
13.04

>  <ABCGG>
10.99

>  <nAcid>
0

>  <nBase>
3

>  <nAromAtom>
6

>  <nAromBond>
6

>  <nAtom>
29

>  <nHeavyAtom>
17

>  <nSpiro>
0

>  <nBridgehead>
0

>  <nHetero>
6

>  <nN>
3

>  <nO>
0

>  <nF>
2

>  <BalabanJ>
1.9

>  <BertzCT>
448.34

>  <nBonds>
30

>  <nBondsO>
18

>  <nBondsS>
23

>  <nBondsD>
1

>  <nBondsT>
0

>  <nBondsA>
6

>  <nBondsM>
7

>  <nBondsKS>
26

>  <nBondsKD>
4

>  <RNCG>
0.22

>  <RPCG>
0.16

>  <FCSP3>
0.36

>  <SZ>
22.33

>  <Sm>
21.62

>  <Sv>
18.91

>  <Sse>
30

>  <Sp>
19.74

>  <Si>
33.61

>  <MZ>
0.77

>  <Mm>
0.75

>  <Mv>
0.65

>  <Mse>
1.03

>  <Mp>
0.68

>  <Mi>
1.16

>  <NsCH3>
1

>  <NdCH2>
0

>  <NssCH2>
1

>  <NtCH>
0

>  <NdsCH>
0

>  <NaaCH>
3

>  <NsssCH>
2

>  <NddC>
0

>  <NtsC>
0

>  <NdssC>
1

>  <NaasC>
3

>  <NaaaC>
0

>  <NssssC>
0

>  <NsNH3>
0

>  <NsNH2>
0

>  <NssNH2>
0

>  <NdNH>
0

>  <NssNH>
2

>  <NaaNH>
0

>  <NtN>
0

>  <NsssNH>
0

>  <NdsN>
1

>  <NaaN>
0

>  <NsssN>
0

>  <NddsN>
0

>  <NaasN>
0

>  <NssssN>
0

>  <NsOH>
0

>  <NdO>
0

>  <NssO>
0

>  <NaaO>
0

>  <NsF>
2

>  <NsSiH3>
0

>  <NssSiH2>
0

>  <NsssSiH>
0

>  <NssssSi>
0

>  <NsPH2>
0

>  <NssPH>
0

>  <NsssP>
0

>  <NdsssP>
0

>  <NsssssP>
0

>  <NsSH>
0

>  <NdS>
0

>  <NssS>
0

>  <NaaS>
0

>  <NdssS>
0

>  <NddssS>
0

>  <NsCl>
1

>  <NsBr>
0

>  <NsI>
0

>  <fragCpx>
52.06

>  <fMF>
0.34

>  <nHBAcc>
1

>  <nHBDon>
2

>  <Kier1>
13.43

>  <Kier2>
5.76

>  <Lipinski>
1

>  <GhoseFilter>
1

>  <FilterItLogS>
-4.42

>  <VMcGowan>
172.63

>  <LabuteASA>
102.88

>  <PEOE_VSA1>
10.63

>  <PEOE_VSA2>
0

>  <PEOE_VSA3>
13.77

>  <PEOE_VSA4>
0

>  <PEOE_VSA5>
0

>  <PEOE_VSA6>
17.67

>  <PEOE_VSA7>
19.06

>  <PEOE_VSA8>
16.27

>  <PEOE_VSA9>
6.04

>  <PEOE_VSA10>
6.54

>  <PEOE_VSA11>
5.96

>  <PEOE_VSA12>
0

>  <PEOE_VSA13>
6.43

>  <SMR_VSA1>
8.78

>  <SMR_VSA2>
0

>  <SMR_VSA3>
5.32

>  <SMR_VSA4>
4.99

>  <SMR_VSA5>
19.39

>  <SMR_VSA6>
11.86

>  <SMR_VSA7>
28.79

>  <SMR_VSA8>
0

>  <SMR_VSA9>
0

>  <SlogP_VSA1>
10.63

>  <SlogP_VSA2>
18.93

>  <SlogP_VSA3>
0

>  <SlogP_VSA4>
0

>  <SlogP_VSA5>
18.53

>  <SlogP_VSA6>
23.19

>  <SlogP_VSA7>
5.02

>  <SlogP_VSA8>
0

>  <SlogP_VSA9>
0

>  <SlogP_VSA10>
14.47

>  <SlogP_VSA11>
0

>  <EState_VSA1>
12.97

>  <EState_VSA2>
6.04

>  <EState_VSA3>
10.98

>  <EState_VSA4>
11.25

>  <EState_VSA5>
0

>  <EState_VSA6>
12.13

>  <EState_VSA7>
12.99

>  <EState_VSA8>
15.63

>  <EState_VSA9>
11.6

>  <EState_VSA10>
8.78

>  <VSA_EState1>
24.13

>  <VSA_EState2>
3.76

>  <VSA_EState3>
6.58

>  <VSA_EState4>
1.72

>  <VSA_EState5>
0.35

>  <VSA_EState6>
5.38

>  <VSA_EState7>
-2.44

>  <VSA_EState8>
1.39

>  <VSA_EState9>
0

>  <apol>
32.97

>  <bpol>
17.05

>  <nRing>
2

>  <nHRing>
1

>  <naRing>
1

>  <naHRing>
0

>  <nARing 2>
1

>  <nAHRing 2>
1

>  <nFRing>
1

>  <nFHRing>
1

>  <nFaRing>
0

>  <nFaHRing>
0

>  <nFARing 2>
1

>  <nFAHRing 2>
1

>  <nRot>
2

>  <SLogP>
3.04

>  <SMR>
64.93

>  <TopoPSA(NO)>
36.42

>  <TopoPSA>
36.42

>  <JGI1>
0.22

>  <JGI2>
0.07

>  <JGI3>
0.06

>  <JGI4>
0.05

>  <JGI5>
0.03

>  <Diameter>
9

>  <Radius>
5

>  <TMWC10>
106.26

>  <TSRW10>
49.72

>  <MW>
259.07

>  <AMW>
8.93

>  <WPath>
526

>  <WPol>
25

>  <Zagreb1>
86

>  <Zagreb2>
99

>  <mZagreb2>
3.75

>  <yes>


>  <nAR-cont>
0.816016

>  <nHA-cont>
0.976740822

>  <MWHBN>
0.186385744

>  <MWHBN-cont>
0.993107921

>  <TPSA-cont>
0.745765785

>  <pka_cont>
0.97

>  <yes.1>


>  <BBB_SCORE>
5.258950272

>  <MMFF94 Energy>
-55.924

$$$$
Compound 620
Actelion Java MolfileCreator 2.0

  0  0  0  0  0  0              0 V3000
M  V30 BEGIN CTAB
M  V30 COUNTS 52 55 0 0 0
M  V30 BEGIN ATOM
M  V30 1 O 3.9939 1.6759 3.434 0
M  V30 2 C 3.2867 1.3666 2.3093 0
M  V30 3 C 1.9291 1.0919 2.4541 0
M  V30 4 C 3.8942 1.3223 1.065 0
M  V30 5 C 1.1267 0.7746 1.3415 0
M  V30 6 C 3.1288 0.9844 -0.0474 0
M  V30 7 C 1.7568 0.6952 0.0783 0
M  V30 8 C -0.379 0.4315 1.4925 0
M  V30 9 C 1.0002 0.3285 -1.1783 0
M  V30 10 C -1.1551 0.711 0.1357 0
M  V30 11 C -0.4176 -1.109 1.7793 0
M  V30 12 C -1.05 1.0984 2.7453 0
M  V30 13 C -0.4532 -0.1618 -0.9608 0
M  V30 14 C -2.6603 0.3304 0.2052 0
M  V30 15 C -1.1317 2.1999 -0.3103 0
M  V30 16 C 0.0447 -1.9807 0.6095 0
M  V30 17 C -1.0559 2.6194 2.833 0
M  V30 18 N -0.6135 -1.6081 -0.6461 0
M  V30 19 C -0.1945 -2.5199 -1.7288 0
M  V30 20 C -1.1221 -2.4009 -2.9162 0
M  V30 21 O -2.5175 -2.3108 -2.5738 0
M  V30 22 C -0.8228 -3.1539 -4.1838 0
M  V30 23 C -0.7081 -1.656 -4.1575 0
M  V30 24 H 4.9145 1.8525 3.1809 0
M  V30 25 H 1.5187 1.1281 3.4585 0
M  V30 26 H 4.9502 1.5371 0.9417 0
M  V30 27 H 3.6069 0.9407 -1.024 0
M  V30 28 H 1.5789 -0.4083 -1.7445 0
M  V30 29 H 0.9689 1.2257 -1.8117 0
M  V30 30 H -1.4369 -1.4106 2.0539 0
M  V30 31 H 0.2016 -1.3522 2.6539 0
M  V30 32 H -0.5654 0.7216 3.6558 0
M  V30 33 H -2.0872 0.7533 2.8401 0
M  V30 34 H -0.9879 0.0193 -1.9018 0
M  V30 35 H -3.2066 0.9745 0.9023 0
M  V30 36 H -3.1327 0.4529 -0.777 0
M  V30 37 H -2.8321 -0.7037 0.514 0
M  V30 38 H -1.8888 2.7952 0.2059 0
M  V30 39 H -0.1667 2.6869 -0.1474 0
M  V30 40 H -1.3655 2.2868 -1.3785 0
M  V30 41 H -0.2077 -3.0193 0.8595 0
M  V30 42 H 1.1366 -1.9521 0.5142 0
M  V30 43 H -0.1252 3.0703 2.4815 0
M  V30 44 H -1.1987 2.9251 3.8757 0
M  V30 45 H -1.8911 3.0469 2.2746 0
M  V30 46 H -0.2853 -3.5556 -1.3761 0
M  V30 47 H 0.8532 -2.3829 -2.0155 0
M  V30 48 H -2.5876 -1.99 -1.6525 0
M  V30 49 H 0.0903 -3.7334 -4.2387 0
M  V30 50 H -1.6588 -3.5906 -4.7182 0
M  V30 51 H -1.4669 -1.0805 -4.6752 0
M  V30 52 H 0.283 -1.2223 -4.1971 0
M  V30 END ATOM
M  V30 BEGIN BOND
M  V30 1 1 1 2
M  V30 2 2 2 3
M  V30 3 1 2 4
M  V30 4 1 3 5
M  V30 5 2 4 6
M  V30 6 2 5 7
M  V30 7 1 5 8
M  V30 8 1 7 9
M  V30 9 1 8 10
M  V30 10 1 8 11
M  V30 11 1 8 12
M  V30 12 1 9 13
M  V30 13 1 10 14
M  V30 14 1 10 15
M  V30 15 1 11 16
M  V30 16 1 12 17
M  V30 17 1 13 18
M  V30 18 1 18 19
M  V30 19 1 19 20
M  V30 20 1 20 21
M  V30 21 1 20 22
M  V30 22 1 20 23
M  V30 23 1 6 7
M  V30 24 1 10 13
M  V30 25 1 16 18
M  V30 26 1 22 23
M  V30 27 1 1 24
M  V30 28 1 3 25
M  V30 29 1 4 26
M  V30 30 1 6 27
M  V30 31 1 9 28
M  V30 32 1 9 29
M  V30 33 1 11 30
M  V30 34 1 11 31
M  V30 35 1 12 32
M  V30 36 1 12 33
M  V30 37 1 13 34
M  V30 38 1 14 35
M  V30 39 1 14 36
M  V30 40 1 14 37
M  V30 41 1 15 38
M  V30 42 1 15 39
M  V30 43 1 15 40
M  V30 44 1 16 41
M  V30 45 1 16 42
M  V30 46 1 17 43
M  V30 47 1 17 44
M  V30 48 1 17 45
M  V30 49 1 19 46
M  V30 50 1 19 47
M  V30 51 1 21 48
M  V30 52 1 22 49
M  V30 53 1 22 50
M  V30 54 1 23 51
M  V30 55 1 23 52
M  V30 END BOND
M  V30 END CTAB
M  END
>  <Column 1>
747

>  <level_0>
853

>  <index>
853

>  <Unnamed: 0>
853

>  <NO.>
865

>  <Name>
bremazocine

>  <IUPAC_name>
1-ethyl-10-[(1-hydroxycyclopropyl)methyl]-13-13-dimethyl-10-azatricyclo[7.3.1.02-7]trideca-2(7)-3-5-trien-4-ol

>  <SMILES>
CCC12CCN(CC3(O)CC3)C(Cc3ccc(O)cc31)C2(C)C

>  <CID>
1223

>  <logBB>
0.6

>  <BBB+/BBB->
BBB+

>  <Inchi>
InChI=1S/C20H29NO2/c1-4-20-9-10-21(13-19(23)7-8-19)17(18(20-2)3)11-14-5-6-15(22)12-16(14)20/h5-6-12-17-22-23H-4-7-11-13H2-1-3H3

>  <threshold>


>  <reference>
R2|R2|R25|R27|R46|

>  <group>
A

>  <Class>
1

>  <ABC>
18.67

>  <ABCGG>
15.14

>  <nAcid>
0

>  <nBase>
1

>  <nAromAtom>
6

>  <nAromBond>
6

>  <nAtom>
52

>  <nHeavyAtom>
23

>  <nSpiro>
0

>  <nBridgehead>
2

>  <nHetero>
3

>  <nN>
1

>  <nO>
2

>  <nF>
0

>  <BalabanJ>
1.65

>  <BertzCT>
634.53

>  <nBonds>
55

>  <nBondsO>
26

>  <nBondsS>
49

>  <nBondsD>
0

>  <nBondsT>
0

>  <nBondsA>
6

>  <nBondsM>
6

>  <nBondsKS>
52

>  <nBondsKD>
3

>  <RNCG>
0.3

>  <RPCG>
0.17

>  <FCSP3>
0.7

>  <SZ>
28.67

>  <Sm>
26.26

>  <Sv>
30.04

>  <Sse>
51.2

>  <Sp>
33.2

>  <Si>
58.73

>  <MZ>
0.55

>  <Mm>
0.51

>  <Mv>
0.58

>  <Mse>
0.98

>  <Mp>
0.64

>  <Mi>
1.13

>  <NsCH3>
3

>  <NdCH2>
0

>  <NssCH2>
7

>  <NtCH>
0

>  <NdsCH>
0

>  <NaaCH>
3

>  <NsssCH>
1

>  <NddC>
0

>  <NtsC>
0

>  <NdssC>
0

>  <NaasC>
3

>  <NaaaC>
0

>  <NssssC>
3

>  <NsNH3>
0

>  <NsNH2>
0

>  <NssNH2>
0

>  <NdNH>
0

>  <NssNH>
0

>  <NaaNH>
0

>  <NtN>
0

>  <NsssNH>
0

>  <NdsN>
0

>  <NaaN>
0

>  <NsssN>
1

>  <NddsN>
0

>  <NaasN>
0

>  <NssssN>
0

>  <NsOH>
2

>  <NdO>
0

>  <NssO>
0

>  <NaaO>
0

>  <NsF>
0

>  <NsSiH3>
0

>  <NssSiH2>
0

>  <NsssSiH>
0

>  <NssssSi>
0

>  <NsPH2>
0

>  <NssPH>
0

>  <NsssP>
0

>  <NdsssP>
0

>  <NsssssP>
0

>  <NsSH>
0

>  <NdS>
0

>  <NssS>
0

>  <NaaS>
0

>  <NdssS>
0

>  <NddssS>
0

>  <NsCl>
0

>  <NsBr>
0

>  <NsI>
0

>  <fragCpx>
170.03

>  <fMF>
0.33

>  <nHBAcc>
3

>  <nHBDon>
2

>  <Kier1>
16.47

>  <Kier2>
5.25

>  <Lipinski>
1

>  <GhoseFilter>
1

>  <FilterItLogS>
-4.31

>  <VMcGowan>
258.04

>  <LabuteASA>
138.87

>  <PEOE_VSA1>
10.21

>  <PEOE_VSA2>
4.9

>  <PEOE_VSA3>
0

>  <PEOE_VSA4>
0

>  <PEOE_VSA5>
0

>  <PEOE_VSA6>
26.84

>  <PEOE_VSA7>
67.32

>  <PEOE_VSA8>
18

>  <PEOE_VSA9>
5.6

>  <PEOE_VSA10>
5.75

>  <PEOE_VSA11>
0

>  <PEOE_VSA12>
0

>  <PEOE_VSA13>
0

>  <SMR_VSA1>
10.21

>  <SMR_VSA2>
0

>  <SMR_VSA3>
4.9

>  <SMR_VSA4>
5.41

>  <SMR_VSA5>
69.93

>  <SMR_VSA6>
13.09

>  <SMR_VSA7>
29.33

>  <SMR_VSA8>
0

>  <SMR_VSA9>
5.75

>  <SlogP_VSA1>
0

>  <SlogP_VSA2>
39.85

>  <SlogP_VSA3>
11.84

>  <SlogP_VSA4>
5.41

>  <SlogP_VSA5>
57.58

>  <SlogP_VSA6>
18.2

>  <SlogP_VSA7>
0

>  <SlogP_VSA8>
0

>  <SlogP_VSA9>
0

>  <SlogP_VSA10>
0

>  <SlogP_VSA11>
5.75

>  <EState_VSA1>
5.6

>  <EState_VSA2>
10.83

>  <EState_VSA3>
11.79

>  <EState_VSA4>
45.19

>  <EState_VSA5>
11.13

>  <EState_VSA6>
0

>  <EState_VSA7>
12.13

>  <EState_VSA8>
31.74

>  <EState_VSA9>
0

>  <EState_VSA10>
10.21

>  <VSA_EState1>
0

>  <VSA_EState2>
2.55

>  <VSA_EState3>
20.46

>  <VSA_EState4>
2.61

>  <VSA_EState5>
0.39

>  <VSA_EState6>
6.43

>  <VSA_EState7>
5.16

>  <VSA_EState8>
8.98

>  <VSA_EState9>
0

>  <apol>
55.44

>  <bpol>
30.8

>  <nRing>
4

>  <nHRing>
1

>  <naRing>
1

>  <naHRing>
0

>  <nARing 2>
3

>  <nAHRing 2>
1

>  <nFRing>
1

>  <nFHRing>
1

>  <nFaRing>
0

>  <nFaHRing>
0

>  <nFARing 2>
1

>  <nFAHRing 2>
1

>  <nRot>
3

>  <SLogP>
3.22

>  <SMR>
91.72

>  <TopoPSA(NO)>
43.7

>  <TopoPSA>
43.7

>  <JGI1>
0.31

>  <JGI2>
0.14

>  <JGI3>
0.06

>  <JGI4>
0.06

>  <JGI5>
0.04

>  <Diameter>
10

>  <Radius>
5

>  <TMWC10>
127.84

>  <TSRW10>
78.39

>  <MW>
315.22

>  <AMW>
6.06

>  <WPath>
1023

>  <WPol>
47

>  <Zagreb1>
138

>  <Zagreb2>
175

>  <mZagreb2>
4.74

>  <yes>


>  <nAR-cont>
0.691115

>  <nHA-cont>
0.967789328

>  <MWHBN>
0.281619759

>  <MWHBN-cont>
0.891948338

>  <TPSA-cont>
0.694946864

>  <pka_cont>
0.97

>  <yes.1>


>  <BBB_SCORE>
4.871720563

>  <MMFF94 Energy>
73.858

$$$$
Compound 621
Actelion Java MolfileCreator 2.0

  0  0  0  0  0  0              0 V3000
M  V30 BEGIN CTAB
M  V30 COUNTS 56 58 0 0 0
M  V30 BEGIN ATOM
M  V30 1 O 1.0262 -3.0811 3.1602 0
M  V30 2 C 0.9243 -3.6788 2.088 0
M  V30 3 N -0.2353 -3.6744 1.3064 0
M  V30 4 C 2.1131 -4.407 1.5109 0
M  V30 5 C -0.3377 -4.4704 0.1219 0
M  V30 6 C -1.3859 -2.9256 1.8185 0
M  V30 7 C 1.6806 -5.7329 0.9257 0
M  V30 8 C 0.6019 -5.495 -0.0912 0
M  V30 9 C -1.3426 -4.282 -0.8355 0
M  V30 10 C -1.2346 -1.3995 1.7207 0
M  V30 11 C 0.5108 -6.323 -1.2199 0
M  V30 12 C -1.4197 -5.0991 -1.9682 0
M  V30 13 C -1.1517 -0.8894 0.2781 0
M  V30 14 C -0.4964 -6.1211 -2.1583 0
M  V30 15 N -1.174 0.5836 0.1773 0
M  V30 16 C 0.0512 1.1911 0.721 0
M  V30 17 C -1.36 0.9808 -1.2284 0
M  V30 18 C 0.0133 2.7204 0.6328 0
M  V30 19 C -1.4601 2.4991 -1.3735 0
M  V30 20 C -0.2217 3.2035 -0.8033 0
M  V30 21 C -0.3928 4.7308 -0.8984 0
M  V30 22 C 0.8579 5.5109 -0.483 0
M  V30 23 C 0.6764 7.0118 -0.7153 0
M  V30 24 C 1.9129 7.7933 -0.3005 0
M  V30 25 H 2.85 -4.5731 2.3042 0
M  V30 26 H 2.5713 -3.7623 0.7513 0
M  V30 27 H -2.3206 -3.2557 1.3555 0
M  V30 28 H -1.4876 -3.1803 2.8822 0
M  V30 29 H 2.5465 -6.2237 0.467 0
M  V30 30 H 1.2895 -6.3965 1.7065 0
M  V30 31 H -2.0884 -3.5016 -0.7384 0
M  V30 32 H -0.3482 -1.0902 2.2832 0
M  V30 33 H -2.0989 -0.9395 2.2166 0
M  V30 34 H 1.227 -7.1274 -1.3724 0
M  V30 35 H -2.2075 -4.9368 -2.7 0
M  V30 36 H -0.2623 -1.2939 -0.2208 0
M  V30 37 H -2.0289 -1.2782 -0.2525 0
M  V30 38 H -0.562 -6.7602 -3.0351 0
M  V30 39 H 0.1696 0.9371 1.7794 0
M  V30 40 H 0.9382 0.8152 0.1943 0
M  V30 41 H -2.2894 0.5461 -1.6167 0
M  V30 42 H -0.5392 0.6032 -1.8525 0
M  V30 43 H -0.7789 3.1028 1.2898 0
M  V30 44 H 0.962 3.1121 1.0164 0
M  V30 45 H -1.5778 2.7521 -2.4342 0
M  V30 46 H -2.3638 2.8548 -0.8606 0
M  V30 47 H 0.6456 2.9141 -1.4123 0
M  V30 48 H -1.2419 5.0493 -0.2802 0
M  V30 49 H -0.6433 4.993 -1.9345 0
M  V30 50 H 1.722 5.153 -1.0555 0
M  V30 51 H 1.0744 5.3382 0.577 0
M  V30 52 H 0.4698 7.2029 -1.7748 0
M  V30 53 H -0.1868 7.375 -0.1454 0
M  V30 54 H 1.7617 8.8631 -0.4757 0
M  V30 55 H 2.1288 7.6506 0.7632 0
M  V30 56 H 2.7888 7.4754 -0.8748 0
M  V30 END ATOM
M  V30 BEGIN BOND
M  V30 1 2 1 2
M  V30 2 1 2 3
M  V30 3 1 2 4
M  V30 4 1 3 5
M  V30 5 1 3 6
M  V30 6 1 4 7
M  V30 7 2 5 8
M  V30 8 1 5 9
M  V30 9 1 6 10
M  V30 10 1 8 11
M  V30 11 2 9 12
M  V30 12 1 10 13
M  V30 13 2 11 14
M  V30 14 1 13 15
M  V30 15 1 15 16
M  V30 16 1 15 17
M  V30 17 1 16 18
M  V30 18 1 17 19
M  V30 19 1 18 20
M  V30 20 1 20 21
M  V30 21 1 21 22
M  V30 22 1 22 23
M  V30 23 1 23 24
M  V30 24 1 7 8
M  V30 25 1 12 14
M  V30 26 1 19 20
M  V30 27 1 4 25
M  V30 28 1 4 26
M  V30 29 1 6 27
M  V30 30 1 6 28
M  V30 31 1 7 29
M  V30 32 1 7 30
M  V30 33 1 9 31
M  V30 34 1 10 32
M  V30 35 1 10 33
M  V30 36 1 11 34
M  V30 37 1 12 35
M  V30 38 1 13 36
M  V30 39 1 13 37
M  V30 40 1 14 38
M  V30 41 1 16 39
M  V30 42 1 16 40
M  V30 43 1 17 41
M  V30 44 1 17 42
M  V30 45 1 18 43
M  V30 46 1 18 44
M  V30 47 1 19 45
M  V30 48 1 19 46
M  V30 49 1 20 47
M  V30 50 1 21 48
M  V30 51 1 21 49
M  V30 52 1 22 50
M  V30 53 1 22 51
M  V30 54 1 23 52
M  V30 55 1 23 53
M  V30 56 1 24 54
M  V30 57 1 24 55
M  V30 58 1 24 56
M  V30 END BOND
M  V30 END CTAB
M  END
>  <Column 1>
748

>  <level_0>
854

>  <index>
854

>  <Unnamed: 0>
854

>  <NO.>
866

>  <Name>
77-lh-28-1

>  <IUPAC_name>
1-[3-(4-butylpiperidin-1-yl)propyl]-3-4-dihydroquinolin-2-one

>  <SMILES>
CCCCC1CCN(CCCN2C(=O)CCc3ccccc32)CC1

>  <CID>
10236758

>  <logBB>
0.6

>  <BBB+/BBB->
BBB+

>  <Inchi>
InChI=1S/C21H32N2O/c1-2-3-7-18-12-16-22(17-13-18)14-6-15-23-20-9-5-4-8-19(20)10-11-21(23)24/h4-5-8-9-18H-2-3-6-7-10-17H2-1H3

>  <threshold>


>  <reference>
R18|R26|R27|

>  <group>
A

>  <Class>
1

>  <ABC>
18.37

>  <ABCGG>
13.65

>  <nAcid>
0

>  <nBase>
1

>  <nAromAtom>
6

>  <nAromBond>
6

>  <nAtom>
56

>  <nHeavyAtom>
24

>  <nSpiro>
0

>  <nBridgehead>
0

>  <nHetero>
3

>  <nN>
2

>  <nO>
1

>  <nF>
0

>  <BalabanJ>
1.36

>  <BertzCT>
534.4

>  <nBonds>
58

>  <nBondsO>
26

>  <nBondsS>
51

>  <nBondsD>
1

>  <nBondsT>
0

>  <nBondsA>
6

>  <nBondsM>
7

>  <nBondsKS>
54

>  <nBondsKD>
4

>  <RNCG>
0.21

>  <RPCG>
0.15

>  <FCSP3>
0.67

>  <SZ>
30

>  <Sm>
27.35

>  <Sv>
31.9

>  <Sse>
54.86

>  <Sp>
35.57

>  <Si>
63.44

>  <MZ>
0.54

>  <Mm>
0.49

>  <Mv>
0.57

>  <Mse>
0.98

>  <Mp>
0.64

>  <Mi>
1.13

>  <NsCH3>
1

>  <NdCH2>
0

>  <NssCH2>
12

>  <NtCH>
0

>  <NdsCH>
0

>  <NaaCH>
4

>  <NsssCH>
1

>  <NddC>
0

>  <NtsC>
0

>  <NdssC>
1

>  <NaasC>
2

>  <NaaaC>
0

>  <NssssC>
0

>  <NsNH3>
0

>  <NsNH2>
0

>  <NssNH2>
0

>  <NdNH>
0

>  <NssNH>
0

>  <NaaNH>
0

>  <NtN>
0

>  <NsssNH>
0

>  <NdsN>
0

>  <NaaN>
0

>  <NsssN>
2

>  <NddsN>
0

>  <NaasN>
0

>  <NssssN>
0

>  <NsOH>
0

>  <NdO>
1

>  <NssO>
0

>  <NaaO>
0

>  <NsF>
0

>  <NsSiH3>
0

>  <NssSiH2>
0

>  <NsssSiH>
0

>  <NssssSi>
0

>  <NsPH2>
0

>  <NssPH>
0

>  <NsssP>
0

>  <NdsssP>
0

>  <NsssssP>
0

>  <NsSH>
0

>  <NdS>
0

>  <NssS>
0

>  <NaaS>
0

>  <NdssS>
0

>  <NddssS>
0

>  <NsCl>
0

>  <NsBr>
0

>  <NsI>
0

>  <fragCpx>
124.03

>  <fMF>
0.34

>  <nHBAcc>
2

>  <nHBDon>
0

>  <Kier1>
18.78

>  <Kier2>
9.63

>  <Lipinski>
1

>  <GhoseFilter>
1

>  <FilterItLogS>
-5.13

>  <VMcGowan>
282.8

>  <LabuteASA>
146.58

>  <PEOE_VSA1>
9.8

>  <PEOE_VSA2>
4.79

>  <PEOE_VSA3>
0

>  <PEOE_VSA4>
0

>  <PEOE_VSA5>
0

>  <PEOE_VSA6>
44.39

>  <PEOE_VSA7>
62.87

>  <PEOE_VSA8>
18.65

>  <PEOE_VSA9>
0

>  <PEOE_VSA10>
0

>  <PEOE_VSA11>
0

>  <PEOE_VSA12>
5.91

>  <PEOE_VSA13>
0

>  <SMR_VSA1>
4.79

>  <SMR_VSA2>
0

>  <SMR_VSA3>
4.9

>  <SMR_VSA4>
5.92

>  <SMR_VSA5>
58.29

>  <SMR_VSA6>
31.08

>  <SMR_VSA7>
29.83

>  <SMR_VSA8>
0

>  <SMR_VSA9>
0

>  <SlogP_VSA1>
4.9

>  <SlogP_VSA2>
36.99

>  <SlogP_VSA3>
11.22

>  <SlogP_VSA4>
5.92

>  <SlogP_VSA5>
57.43

>  <SlogP_VSA6>
24.27

>  <SlogP_VSA7>
0

>  <SlogP_VSA8>
0

>  <SlogP_VSA9>
0

>  <SlogP_VSA10>
5.69

>  <SlogP_VSA11>
0

>  <EState_VSA1>
0

>  <EState_VSA2>
0

>  <EState_VSA3>
12.33

>  <EState_VSA4>
37.54

>  <EState_VSA5>
50.76

>  <EState_VSA6>
0

>  <EState_VSA7>
10.97

>  <EState_VSA8>
30.02

>  <EState_VSA9>
0

>  <EState_VSA10>
4.79

>  <VSA_EState1>
0

>  <VSA_EState2>
16.92

>  <VSA_EState3>
0

>  <VSA_EState4>
2.47

>  <VSA_EState5>
1.25

>  <VSA_EState6>
8.39

>  <VSA_EState7>
9.52

>  <VSA_EState8>
6.78

>  <VSA_EState9>
0

>  <apol>
59.41

>  <bpol>
36.39

>  <nRing>
3

>  <nHRing>
2

>  <naRing>
1

>  <naHRing>
0

>  <nARing 2>
2

>  <nAHRing 2>
2

>  <nFRing>
1

>  <nFHRing>
1

>  <nFaRing>
0

>  <nFaHRing>
0

>  <nFARing 2>
1

>  <nFAHRing 2>
1

>  <nRot>
7

>  <SLogP>
4.26

>  <SMR>
100.42

>  <TopoPSA(NO)>
23.55

>  <TopoPSA>
23.55

>  <JGI1>
0.13

>  <JGI2>
0.07

>  <JGI3>
0.03

>  <JGI4>
0.04

>  <JGI5>
0.02

>  <Diameter>
15

>  <Radius>
8

>  <TMWC10>
123.68

>  <TSRW10>
58.2

>  <MW>
328.25

>  <AMW>
5.86

>  <WPath>
1580

>  <WPol>
35

>  <Zagreb1>
120

>  <Zagreb2>
138

>  <mZagreb2>
5.5

>  <yes>


>  <nAR-cont>
1

>  <nHA-cont>
0.94700071

>  <MWHBN>
0.110389465

>  <MWHBN-cont>
0.785100398

>  <TPSA-cont>
0.835606376

>  <pka_cont>
0.97

>  <yes.1>


>  <BBB_SCORE>
5.28086406

>  <MMFF94 Energy>
6.6383

$$$$
Compound 622
Actelion Java MolfileCreator 2.0

  0  0  0  0  0  0              0 V3000
M  V30 BEGIN CTAB
M  V30 COUNTS 39 40 0 0 0
M  V30 BEGIN ATOM
M  V30 1 O 2.6655 1.1752 -1.2536 0
M  V30 2 C 1.4738 0.941 -1.086 0
M  V30 3 N 0.4824 1.0441 -2.0403 0
M  V30 4 C 1.0198 0.4437 0.2438 0
M  V30 5 C 0.6328 1.5389 -3.3534 0
M  V30 6 C 1.9055 -0.3279 1.0048 0
M  V30 7 C -0.2483 0.7468 0.7536 0
M  V30 8 C -0.2833 1.096 -4.331 0
M  V30 9 C 1.5903 2.5044 -3.6771 0
M  V30 10 C 1.5178 -0.8194 2.2539 0
M  V30 11 C -0.6328 0.2542 2.0034 0
M  V30 12 N -1.265 0.145 -4.0309 0
M  V30 13 C -0.2672 1.697 -5.5943 0
M  V30 14 C 1.6254 3.0557 -4.9586 0
M  V30 15 C 0.2416 -0.5396 2.7617 0
M  V30 16 C 0.6911 2.6611 -5.9125 0
M  V30 17 C -0.1784 -1.057 4.123 0
M  V30 18 N -1.4049 -1.8735 4.082 0
M  V30 19 C -1.8962 -2.1042 5.4419 0
M  V30 20 C -1.1698 -3.1573 3.4159 0
M  V30 21 H -0.443 0.694 -1.8326 0
M  V30 22 H 2.9005 -0.5497 0.6237 0
M  V30 23 H -0.9389 1.3845 0.2091 0
M  V30 24 H 2.301 2.8594 -2.9362 0
M  V30 25 H 2.2206 -1.4204 2.8265 0
M  V30 26 H -1.6218 0.4895 2.3937 0
M  V30 27 H -1.8681 -0.161 -4.7845 0
M  V30 28 H -1.0241 -0.56 -3.3458 0
M  V30 29 H -0.9906 1.4055 -6.3504 0
M  V30 30 H 2.3713 3.8078 -5.2021 0
M  V30 31 H 0.7063 3.1055 -6.9041 0
M  V30 32 H -0.3419 -0.1701 4.7504 0
M  V30 33 H 0.6426 -1.6163 4.5912 0
M  V30 34 H -2.1286 -1.1533 5.9344 0
M  V30 35 H -1.1694 -2.6446 6.0592 0
M  V30 36 H -2.8284 -2.6798 5.4224 0
M  V30 37 H -0.3923 -3.7465 3.9156 0
M  V30 38 H -0.8783 -3.0162 2.3699 0
M  V30 39 H -2.0902 -3.752 3.3973 0
M  V30 END ATOM
M  V30 BEGIN BOND
M  V30 1 2 1 2
M  V30 2 1 2 3
M  V30 3 1 2 4
M  V30 4 1 3 5
M  V30 5 2 4 6
M  V30 6 1 4 7
M  V30 7 2 5 8
M  V30 8 1 5 9
M  V30 9 1 6 10
M  V30 10 2 7 11
M  V30 11 1 8 12
M  V30 12 1 8 13
M  V30 13 2 9 14
M  V30 14 2 10 15
M  V30 15 2 13 16
M  V30 16 1 15 17
M  V30 17 1 17 18
M  V30 18 1 18 19
M  V30 19 1 18 20
M  V30 20 1 11 15
M  V30 21 1 14 16
M  V30 22 1 3 21
M  V30 23 1 6 22
M  V30 24 1 7 23
M  V30 25 1 9 24
M  V30 26 1 10 25
M  V30 27 1 11 26
M  V30 28 1 12 27
M  V30 29 1 12 28
M  V30 30 1 13 29
M  V30 31 1 14 30
M  V30 32 1 16 31
M  V30 33 1 17 32
M  V30 34 1 17 33
M  V30 35 1 19 34
M  V30 36 1 19 35
M  V30 37 1 19 36
M  V30 38 1 20 37
M  V30 39 1 20 38
M  V30 40 1 20 39
M  V30 END BOND
M  V30 END CTAB
M  END
>  <Column 1>
749

>  <level_0>
855

>  <index>
855

>  <Unnamed: 0>
855

>  <NO.>
867

>  <Name>
schembl12684742

>  <IUPAC_name>
n-(2-aminophenyl)-4-[(dimethylamino)methyl]benzamide

>  <SMILES>
CN(C)Cc1ccc(C(=O)Nc2ccccc2N)cc1

>  <CID>
53245487

>  <logBB>
0.6

>  <BBB+/BBB->
BBB+

>  <Inchi>
InChI=1S/C16H19N3O/c1-19(2)11-12-7-9-13(10-8-12)16(20)18-15-6-4-3-5-14(15)17/h3-10H-11-17H2-1-2H3-(H-18-20)

>  <threshold>


>  <reference>
R47|

>  <group>
A

>  <Class>
1

>  <ABC>
15.21

>  <ABCGG>
12.43

>  <nAcid>
0

>  <nBase>
1

>  <nAromAtom>
12

>  <nAromBond>
12

>  <nAtom>
39

>  <nHeavyAtom>
20

>  <nSpiro>
0

>  <nBridgehead>
0

>  <nHetero>
4

>  <nN>
3

>  <nO>
1

>  <nF>
0

>  <BalabanJ>
1.72

>  <BertzCT>
590.93

>  <nBonds>
40

>  <nBondsO>
21

>  <nBondsS>
27

>  <nBondsD>
1

>  <nBondsT>
0

>  <nBondsA>
12

>  <nBondsM>
13

>  <nBondsKS>
33

>  <nBondsKD>
7

>  <RNCG>
0.23

>  <RPCG>
0.15

>  <FCSP3>
0.19

>  <SZ>
24

>  <Sm>
22.43

>  <Sv>
24.14

>  <Sse>
38.75

>  <Sp>
26.04

>  <Si>
44.03

>  <MZ>
0.62

>  <Mm>
0.58

>  <Mv>
0.62

>  <Mse>
0.99

>  <Mp>
0.67

>  <Mi>
1.13

>  <NsCH3>
2

>  <NdCH2>
0

>  <NssCH2>
1

>  <NtCH>
0

>  <NdsCH>
0

>  <NaaCH>
8

>  <NsssCH>
0

>  <NddC>
0

>  <NtsC>
0

>  <NdssC>
1

>  <NaasC>
4

>  <NaaaC>
0

>  <NssssC>
0

>  <NsNH3>
0

>  <NsNH2>
1

>  <NssNH2>
0

>  <NdNH>
0

>  <NssNH>
1

>  <NaaNH>
0

>  <NtN>
0

>  <NsssNH>
0

>  <NdsN>
0

>  <NaaN>
0

>  <NsssN>
1

>  <NddsN>
0

>  <NaasN>
0

>  <NssssN>
0

>  <NsOH>
0

>  <NdO>
1

>  <NssO>
0

>  <NaaO>
0

>  <NsF>
0

>  <NsSiH3>
0

>  <NssSiH2>
0

>  <NsssSiH>
0

>  <NssssSi>
0

>  <NsPH2>
0

>  <NssPH>
0

>  <NsssP>
0

>  <NdsssP>
0

>  <NsssssP>
0

>  <NsSH>
0

>  <NdS>
0

>  <NssS>
0

>  <NaaS>
0

>  <NdssS>
0

>  <NddssS>
0

>  <NsCl>
0

>  <NsBr>
0

>  <NsI>
0

>  <fragCpx>
61.04

>  <fMF>
0.36

>  <nHBAcc>
3

>  <nHBDon>
2

>  <Kier1>
16.37

>  <Kier2>
7.85

>  <Lipinski>
1

>  <GhoseFilter>
1

>  <FilterItLogS>
-3.86

>  <VMcGowan>
220.29

>  <LabuteASA>
118.76

>  <PEOE_VSA1>
15.95

>  <PEOE_VSA2>
4.79

>  <PEOE_VSA3>
0

>  <PEOE_VSA4>
0

>  <PEOE_VSA5>
0

>  <PEOE_VSA6>
24.27

>  <PEOE_VSA7>
43.92

>  <PEOE_VSA8>
12.11

>  <PEOE_VSA9>
11.37

>  <PEOE_VSA10>
0

>  <PEOE_VSA11>
0

>  <PEOE_VSA12>
0

>  <PEOE_VSA13>
5.91

>  <SMR_VSA1>
4.79

>  <SMR_VSA2>
0

>  <SMR_VSA3>
4.9

>  <SMR_VSA4>
0

>  <SMR_VSA5>
6.54

>  <SMR_VSA6>
25.15

>  <SMR_VSA7>
59.66

>  <SMR_VSA8>
0

>  <SMR_VSA9>
0

>  <SlogP_VSA1>
11.05

>  <SlogP_VSA2>
24.9

>  <SlogP_VSA3>
6.54

>  <SlogP_VSA4>
0

>  <SlogP_VSA5>
15.92

>  <SlogP_VSA6>
48.53

>  <SlogP_VSA7>
0

>  <SlogP_VSA8>
0

>  <SlogP_VSA9>
0

>  <SlogP_VSA10>
11.37

>  <SlogP_VSA11>
0

>  <EState_VSA1>
0

>  <EState_VSA2>
5.91

>  <EState_VSA3>
16.94

>  <EState_VSA4>
6.54

>  <EState_VSA5>
5.56

>  <EState_VSA6>
12.13

>  <EState_VSA7>
50.49

>  <EState_VSA8>
10.22

>  <EState_VSA9>
5.73

>  <EState_VSA10>
4.79

>  <VSA_EState1>
0

>  <VSA_EState2>
14.21

>  <VSA_EState3>
2.81

>  <VSA_EState4>
8.79

>  <VSA_EState5>
-0.15

>  <VSA_EState6>
14.8

>  <VSA_EState7>
0

>  <VSA_EState8>
0.85

>  <VSA_EState9>
4.03

>  <apol>
43.49

>  <bpol>
21.64

>  <nRing>
2

>  <nHRing>
0

>  <naRing>
2

>  <naHRing>
0

>  <nARing 2>
0

>  <nAHRing 2>
0

>  <nFRing>
0

>  <nFHRing>
0

>  <nFaRing>
0

>  <nFaHRing>
0

>  <nFARing 2>
0

>  <nFAHRing 2>
0

>  <nRot>
4

>  <SLogP>
2.58

>  <SMR>
82.64

>  <TopoPSA(NO)>
58.36

>  <TopoPSA>
58.36

>  <JGI1>
0.21

>  <JGI2>
0.08

>  <JGI3>
0.04

>  <JGI4>
0.05

>  <JGI5>
0.03

>  <Diameter>
12

>  <Radius>
6

>  <TMWC10>
112.19

>  <TSRW10>
53.03

>  <MW>
269.15

>  <AMW>
6.9

>  <WPath>
917

>  <WPol>
27

>  <Zagreb1>
98

>  <Zagreb2>
110

>  <mZagreb2>
4.47

>  <yes>


>  <nAR-cont>
0.336376

>  <nHA-cont>
0.999629945

>  <MWHBN>
0.304770419

>  <MWHBN-cont>
0.826255761

>  <TPSA-cont>
0.592610961

>  <pka_cont>
0.97

>  <yes.1>


>  <BBB_SCORE>
4.245611507

>  <MMFF94 Energy>
51.092

$$$$
Compound 623
Actelion Java MolfileCreator 2.0

  0  0  0  0  0  0              0 V3000
M  V30 BEGIN CTAB
M  V30 COUNTS 43 45 0 0 0
M  V30 BEGIN ATOM
M  V30 1 F -4.3622 -2.2601 1.6139 0
M  V30 2 C -5.1184 -1.1393 1.5572 0
M  V30 3 F -4.826 -0.3958 2.6416 0
M  V30 4 F -6.4114 -1.5244 1.6548 0
M  V30 5 C -4.8834 -0.3922 0.2466 0
M  V30 6 N -3.4962 0.0778 0.0829 0
M  V30 7 C -3.1811 1.2914 0.6645 0
M  V30 8 C -2.5247 -0.6289 -0.5717 0
M  V30 9 O -4.0222 1.9756 1.2456 0
M  V30 10 C -1.778 1.7426 0.5546 0
M  V30 11 N -1.3015 -0.2309 -0.6682 0
M  V30 12 C -2.8806 -1.9324 -1.2461 0
M  V30 13 C -1.4583 3.0243 1.0758 0
M  V30 14 C -0.891 0.9448 -0.081 0
M  V30 15 N -1.18 4.0679 1.5048 0
M  V30 16 N 0.4683 1.2806 -0.2233 0
M  V30 17 C 1.1711 1.0021 -1.4916 0
M  V30 18 C 1.3561 1.5651 0.922 0
M  V30 19 C 1.857 -0.368 -1.503 0
M  V30 20 C 2.0821 0.3043 1.4098 0
M  V30 21 C 3.1906 -0.3706 -0.787 0
M  V30 22 C 3.2958 -0.0532 0.5805 0
M  V30 23 C 4.35 -0.7156 -1.5025 0
M  V30 24 C 4.5586 -0.0868 1.1967 0
M  V30 25 C 5.5963 -0.7389 -0.878 0
M  V30 26 C 5.7006 -0.424 0.4715 0
M  V30 27 H -5.5611 0.4682 0.2044 0
M  V30 28 H -5.1568 -1.0423 -0.5889 0
M  V30 29 H -3.3514 -2.618 -0.5388 0
M  V30 30 H -1.9828 -2.4119 -1.6475 0
M  V30 31 H -3.5695 -1.7395 -2.0735 0
M  V30 32 H 1.8953 1.8022 -1.6918 0
M  V30 33 H 0.4473 1.0438 -2.316 0
M  V30 34 H 0.7779 1.9491 1.7677 0
M  V30 35 H 2.0695 2.3538 0.6524 0
M  V30 36 H 1.2216 -1.1487 -1.0693 0
M  V30 37 H 2.0146 -0.6523 -2.5512 0
M  V30 38 H 2.3993 0.4818 2.4455 0
M  V30 39 H 1.4039 -0.5573 1.4447 0
M  V30 40 H 4.2901 -0.9714 -2.5582 0
M  V30 41 H 4.6628 0.1495 2.2537 0
M  V30 42 H 6.4838 -1.0064 -1.445 0
M  V30 43 H 6.6699 -0.4446 0.9624 0
M  V30 END ATOM
M  V30 BEGIN BOND
M  V30 1 1 1 2
M  V30 2 1 2 3
M  V30 3 1 2 4
M  V30 4 1 2 5
M  V30 5 1 5 6
M  V30 6 1 6 7
M  V30 7 1 6 8
M  V30 8 2 7 9
M  V30 9 1 7 10
M  V30 10 2 8 11
M  V30 11 1 8 12
M  V30 12 1 10 13
M  V30 13 2 10 14
M  V30 14 3 13 15
M  V30 15 1 14 16
M  V30 16 1 16 17
M  V30 17 1 16 18
M  V30 18 1 17 19
M  V30 19 1 18 20
M  V30 20 1 19 21
M  V30 21 1 20 22
M  V30 22 1 21 23
M  V30 23 1 22 24
M  V30 24 2 23 25
M  V30 25 2 24 26
M  V30 26 1 11 14
M  V30 27 2 21 22
M  V30 28 1 25 26
M  V30 29 1 5 27
M  V30 30 1 5 28
M  V30 31 1 12 29
M  V30 32 1 12 30
M  V30 33 1 12 31
M  V30 34 1 17 32
M  V30 35 1 17 33
M  V30 36 1 18 34
M  V30 37 1 18 35
M  V30 38 1 19 36
M  V30 39 1 19 37
M  V30 40 1 20 38
M  V30 41 1 20 39
M  V30 42 1 23 40
M  V30 43 1 24 41
M  V30 44 1 25 42
M  V30 45 1 26 43
M  V30 END BOND
M  V30 END CTAB
M  END
>  <Column 1>
750

>  <level_0>
857

>  <index>
857

>  <Unnamed: 0>
857

>  <NO.>
869

>  <Name>
schembl6947600

>  <IUPAC_name>
2-methyl-6-oxo-4-(1-2-4-5-tetrahydro-3-benzazepin-3-yl)-1-(2-2-2-trifluoroethyl)pyrimidine-5-carbonitrile

>  <SMILES>
Cc1nc(N2CCc3ccccc3CC2)c(C#N)c(=O)n1CC(F)(F)F

>  <CID>
22004013

>  <logBB>
0.6

>  <BBB+/BBB->
BBB+

>  <Inchi>
InChI=1S/C18H17F3N4O/c1-12-23-16(15(10-22)17(26)25(12)11-18(19-20)21)24-8-6-13-4-2-3-5-14(13)7-9-24/h2-5H-6-9-11H2-1H3

>  <threshold>


>  <reference>
R47|

>  <group>
A

>  <Class>
1

>  <ABC>
20.25

>  <ABCGG>
16.46

>  <nAcid>
0

>  <nBase>
0

>  <nAromAtom>
12

>  <nAromBond>
12

>  <nAtom>
43

>  <nHeavyAtom>
26

>  <nSpiro>
0

>  <nBridgehead>
0

>  <nHetero>
8

>  <nN>
4

>  <nO>
1

>  <nF>
3

>  <BalabanJ>
1.69

>  <BertzCT>
900.5

>  <nBonds>
45

>  <nBondsO>
28

>  <nBondsS>
31

>  <nBondsD>
1

>  <nBondsT>
1

>  <nBondsA>
12

>  <nBondsM>
14

>  <nBondsKS>
38

>  <nBondsKD>
6

>  <RNCG>
0.16

>  <RPCG>
0.19

>  <FCSP3>
0.39

>  <SZ>
31.33

>  <Sm>
30.17

>  <Sv>
28.29

>  <Sse>
44.4

>  <Sp>
28.9

>  <Si>
49.54

>  <MZ>
0.73

>  <Mm>
0.7

>  <Mv>
0.66

>  <Mse>
1.03

>  <Mp>
0.67

>  <Mi>
1.15

>  <NsCH3>
1

>  <NdCH2>
0

>  <NssCH2>
5

>  <NtCH>
0

>  <NdsCH>
0

>  <NaaCH>
4

>  <NsssCH>
0

>  <NddC>
0

>  <NtsC>
1

>  <NdssC>
0

>  <NaasC>
5

>  <NaaaC>
0

>  <NssssC>
1

>  <NsNH3>
0

>  <NsNH2>
0

>  <NssNH2>
0

>  <NdNH>
0

>  <NssNH>
0

>  <NaaNH>
0

>  <NtN>
1

>  <NsssNH>
0

>  <NdsN>
0

>  <NaaN>
1

>  <NsssN>
1

>  <NddsN>
0

>  <NaasN>
1

>  <NssssN>
0

>  <NsOH>
0

>  <NdO>
1

>  <NssO>
0

>  <NaaO>
0

>  <NsF>
3

>  <NsSiH3>
0

>  <NssSiH2>
0

>  <NsssSiH>
0

>  <NssssSi>
0

>  <NsPH2>
0

>  <NssPH>
0

>  <NsssP>
0

>  <NdsssP>
0

>  <NsssssP>
0

>  <NsSH>
0

>  <NdS>
0

>  <NssS>
0

>  <NaaS>
0

>  <NdssS>
0

>  <NddssS>
0

>  <NsCl>
0

>  <NsBr>
0

>  <NsI>
0

>  <fragCpx>
134.08

>  <fMF>
0.4

>  <nHBAcc>
5

>  <nHBDon>
0

>  <Kier1>
20.73

>  <Kier2>
8.57

>  <Lipinski>
1

>  <GhoseFilter>
1

>  <FilterItLogS>
-4.81

>  <VMcGowan>
248.57

>  <LabuteASA>
147.86

>  <PEOE_VSA1>
4.9

>  <PEOE_VSA2>
9.36

>  <PEOE_VSA3>
4.98

>  <PEOE_VSA4>
18.43

>  <PEOE_VSA5>
0

>  <PEOE_VSA6>
24.27

>  <PEOE_VSA7>
30.89

>  <PEOE_VSA8>
13.09

>  <PEOE_VSA9>
0

>  <PEOE_VSA10>
18.44

>  <PEOE_VSA11>
11.38

>  <PEOE_VSA12>
0

>  <PEOE_VSA13>
5.56

>  <SMR_VSA1>
13.17

>  <SMR_VSA2>
5.26

>  <SMR_VSA3>
9.55

>  <SMR_VSA4>
0

>  <SMR_VSA5>
32.49

>  <SMR_VSA6>
17.99

>  <SMR_VSA7>
57.13

>  <SMR_VSA8>
0

>  <SMR_VSA9>
6.07

>  <SlogP_VSA1>
10.46

>  <SlogP_VSA2>
28.82

>  <SlogP_VSA3>
19.39

>  <SlogP_VSA4>
18.25

>  <SlogP_VSA5>
22.51

>  <SlogP_VSA6>
29.06

>  <SlogP_VSA7>
0

>  <SlogP_VSA8>
0

>  <SlogP_VSA9>
0

>  <SlogP_VSA10>
18.99

>  <SlogP_VSA11>
0

>  <EState_VSA1>
18.28

>  <EState_VSA2>
17.21

>  <EState_VSA3>
30.5

>  <EState_VSA4>
0

>  <EState_VSA5>
18.05

>  <EState_VSA6>
6.07

>  <EState_VSA7>
29.17

>  <EState_VSA8>
4.98

>  <EState_VSA9>
0

>  <EState_VSA10>
23.23

>  <VSA_EState1>
38.66

>  <VSA_EState2>
18.43

>  <VSA_EState3>
9.38

>  <VSA_EState4>
1.09

>  <VSA_EState5>
0.12

>  <VSA_EState6>
9.72

>  <VSA_EState7>
-3.13

>  <VSA_EState8>
0.98

>  <VSA_EState9>
0

>  <apol>
48.27

>  <bpol>
26.39

>  <nRing>
3

>  <nHRing>
2

>  <naRing>
2

>  <naHRing>
1

>  <nARing 2>
1

>  <nAHRing 2>
1

>  <nFRing>
1

>  <nFHRing>
1

>  <nFaRing>
0

>  <nFaHRing>
0

>  <nFARing 2>
1

>  <nFAHRing 2>
1

>  <nRot>
2

>  <SLogP>
2.59

>  <SMR>
90.07

>  <TopoPSA(NO)>
61.92

>  <TopoPSA>
61.92

>  <JGI1>
0.23

>  <JGI2>
0.09

>  <JGI3>
0.05

>  <JGI4>
0.05

>  <JGI5>
0.03

>  <Diameter>
12

>  <Radius>
6

>  <TMWC10>
130.19

>  <TSRW10>
69.08

>  <MW>
362.14

>  <AMW>
8.42

>  <WPath>
1626

>  <WPol>
46

>  <Zagreb1>
138

>  <Zagreb2>
162

>  <mZagreb2>
5.63

>  <yes>


>  <nAR-cont>
0.816016

>  <nHA-cont>
0.892715677

>  <MWHBN>
0.262743364

>  <MWHBN-cont>
0.935856072

>  <TPSA-cont>
0.56775995

>  <pka_cont>
0.97

>  <yes.1>


>  <BBB_SCORE>
4.733035685

>  <MMFF94 Energy>
19.622

$$$$
Compound 624
Actelion Java MolfileCreator 2.0

  0  0  0  0  0  0              0 V3000
M  V30 BEGIN CTAB
M  V30 COUNTS 38 41 0 0 0
M  V30 BEGIN ATOM
M  V30 1 Cl 0.0 -1.3797 4.6317 0
M  V30 2 C -0.6462 -0.5357 3.279 0
M  V30 3 C 0.0018 -0.6071 2.0478 0
M  V30 4 C -1.8065 0.2232 3.4274 0
M  V30 5 C -0.5146 0.0913 0.9475 0
M  V30 6 C -2.3333 0.9032 2.3284 0
M  V30 7 C 0.2349 0.0564 -0.3474 0
M  V30 8 C -1.6981 0.8173 1.0862 0
M  V30 9 N -0.3454 -0.0659 -1.5103 0
M  V30 10 N 1.6288 0.1227 -0.3047 0
M  V30 11 O -2.2801 1.4882 0.0404 0
M  V30 12 C -1.7346 -0.1236 -1.6919 0
M  V30 13 C 2.419 -0.3265 -1.4668 0
M  V30 14 C 2.3327 1.1353 0.5039 0
M  V30 15 C -2.6616 0.652 -0.9839 0
M  V30 16 C -2.2135 -0.9428 -2.7203 0
M  V30 17 C 3.826 -0.7851 -1.028 0
M  V30 18 C 3.7334 0.6336 0.9113 0
M  V30 19 C -4.0236 0.6254 -1.3026 0
M  V30 20 C -3.5758 -0.9932 -3.0309 0
M  V30 21 N 4.5595 0.2201 -0.2361 0
M  V30 22 C -4.4811 -0.205 -2.3236 0
M  V30 23 H 0.9058 -1.2001 1.9385 0
M  V30 24 H -2.3079 0.283 4.3901 0
M  V30 25 H -3.2445 1.4864 2.4336 0
M  V30 26 H 2.4971 0.4915 -2.1934 0
M  V30 27 H 1.9294 -1.1727 -1.9633 0
M  V30 28 H 1.779 1.3946 1.4115 0
M  V30 29 H 2.4239 2.0572 -0.0843 0
M  V30 30 H -1.5072 -1.5379 -3.2937 0
M  V30 31 H 3.7385 -1.7072 -0.4392 0
M  V30 32 H 4.4161 -1.0281 -1.9183 0
M  V30 33 H 3.6315 -0.2099 1.6058 0
M  V30 34 H 4.2564 1.432 1.4488 0
M  V30 35 H -4.7232 1.2463 -0.7505 0
M  V30 36 H -3.9233 -1.637 -3.8346 0
M  V30 37 H 5.4275 -0.1916 0.1043 0
M  V30 38 H -5.539 -0.2336 -2.5711 0
M  V30 END ATOM
M  V30 BEGIN BOND
M  V30 1 1 1 2
M  V30 2 2 2 3
M  V30 3 1 2 4
M  V30 4 1 3 5
M  V30 5 2 4 6
M  V30 6 1 5 7
M  V30 7 2 5 8
M  V30 8 2 7 9
M  V30 9 1 7 10
M  V30 10 1 8 11
M  V30 11 1 9 12
M  V30 12 1 10 13
M  V30 13 1 10 14
M  V30 14 1 11 15
M  V30 15 1 12 16
M  V30 16 1 13 17
M  V30 17 1 14 18
M  V30 18 1 15 19
M  V30 19 2 16 20
M  V30 20 1 17 21
M  V30 21 2 19 22
M  V30 22 1 6 8
M  V30 23 2 12 15
M  V30 24 1 18 21
M  V30 25 1 20 22
M  V30 26 1 3 23
M  V30 27 1 4 24
M  V30 28 1 6 25
M  V30 29 1 13 26
M  V30 30 1 13 27
M  V30 31 1 14 28
M  V30 32 1 14 29
M  V30 33 1 16 30
M  V30 34 1 17 31
M  V30 35 1 17 32
M  V30 36 1 18 33
M  V30 37 1 18 34
M  V30 38 1 19 35
M  V30 39 1 20 36
M  V30 40 1 21 37
M  V30 41 1 22 38
M  V30 END BOND
M  V30 END CTAB
M  END
>  <Column 1>
751

>  <level_0>
858

>  <index>
858

>  <Unnamed: 0>
858

>  <NO.>
870

>  <Name>
amoxapine

>  <IUPAC_name>
8-chloro-6-piperazin-1-ylbenzo[b][1-4]benzoxazepine

>  <SMILES>
Clc1ccc2c(c1)C(N1CCNCC1)=Nc1ccccc1O2

>  <CID>
2170

>  <logBB>
0.6

>  <BBB+/BBB->
BBB+

>  <Inchi>
InChI=1S/C17H16ClN3O/c18-12-5-6-15-13(11-12)17(21-9-7-19-8-10-21)20-14-3-1-2-4-16(14)22-15/h1-6-11-19H-7-10H2

>  <threshold>


>  <reference>
R2|R2|R25|R27|R46|

>  <group>
A

>  <Class>
1

>  <ABC>
17.63

>  <ABCGG>
13.53

>  <nAcid>
0

>  <nBase>
3

>  <nAromAtom>
12

>  <nAromBond>
12

>  <nAtom>
38

>  <nHeavyAtom>
22

>  <nSpiro>
0

>  <nBridgehead>
0

>  <nHetero>
5

>  <nN>
3

>  <nO>
1

>  <nF>
0

>  <BalabanJ>
1.57

>  <BertzCT>
738.43

>  <nBonds>
41

>  <nBondsO>
25

>  <nBondsS>
28

>  <nBondsD>
1

>  <nBondsT>
0

>  <nBondsA>
12

>  <nBondsM>
13

>  <nBondsKS>
34

>  <nBondsKD>
7

>  <RNCG>
0.27

>  <RPCG>
0.09

>  <FCSP3>
0.24

>  <SZ>
27.33

>  <Sm>
26.12

>  <Sv>
25.41

>  <Sse>
38.19

>  <Sp>
27.15

>  <Si>
42.56

>  <MZ>
0.72

>  <Mm>
0.69

>  <Mv>
0.67

>  <Mse>
1

>  <Mp>
0.71

>  <Mi>
1.12

>  <NsCH3>
0

>  <NdCH2>
0

>  <NssCH2>
4

>  <NtCH>
0

>  <NdsCH>
0

>  <NaaCH>
7

>  <NsssCH>
0

>  <NddC>
0

>  <NtsC>
0

>  <NdssC>
1

>  <NaasC>
5

>  <NaaaC>
0

>  <NssssC>
0

>  <NsNH3>
0

>  <NsNH2>
0

>  <NssNH2>
0

>  <NdNH>
0

>  <NssNH>
1

>  <NaaNH>
0

>  <NtN>
0

>  <NsssNH>
0

>  <NdsN>
1

>  <NaaN>
0

>  <NsssN>
1

>  <NddsN>
0

>  <NaasN>
0

>  <NssssN>
0

>  <NsOH>
0

>  <NdO>
0

>  <NssO>
1

>  <NaaO>
0

>  <NsF>
0

>  <NsSiH3>
0

>  <NssSiH2>
0

>  <NsssSiH>
0

>  <NssssSi>
0

>  <NsPH2>
0

>  <NssPH>
0

>  <NsssP>
0

>  <NdsssP>
0

>  <NsssssP>
0

>  <NsSH>
0

>  <NdS>
0

>  <NssS>
0

>  <NaaS>
0

>  <NdssS>
0

>  <NddssS>
0

>  <NsCl>
1

>  <NsBr>
0

>  <NsI>
0

>  <fragCpx>
163.05

>  <fMF>
0.55

>  <nHBAcc>
4

>  <nHBDon>
1

>  <Kier1>
15.52

>  <Kier2>
6.86

>  <Lipinski>
1

>  <GhoseFilter>
1

>  <FilterItLogS>
-5

>  <VMcGowan>
224.9

>  <LabuteASA>
133.92

>  <PEOE_VSA1>
14.95

>  <PEOE_VSA2>
0

>  <PEOE_VSA3>
4.99

>  <PEOE_VSA4>
0

>  <PEOE_VSA5>
0

>  <PEOE_VSA6>
23.73

>  <PEOE_VSA7>
30.33

>  <PEOE_VSA8>
31.2

>  <PEOE_VSA9>
5.56

>  <PEOE_VSA10>
17.27

>  <PEOE_VSA11>
5.75

>  <PEOE_VSA12>
0

>  <PEOE_VSA13>
0

>  <SMR_VSA1>
4.74

>  <SMR_VSA2>
0

>  <SMR_VSA3>
10.22

>  <SMR_VSA4>
4.99

>  <SMR_VSA5>
0

>  <SMR_VSA6>
26.18

>  <SMR_VSA7>
53.05

>  <SMR_VSA8>
0

>  <SMR_VSA9>
11.5

>  <SlogP_VSA1>
10.05

>  <SlogP_VSA2>
36.91

>  <SlogP_VSA3>
0

>  <SlogP_VSA4>
0

>  <SlogP_VSA5>
5.56

>  <SlogP_VSA6>
47.46

>  <SlogP_VSA7>
5.02

>  <SlogP_VSA8>
0

>  <SlogP_VSA9>
0

>  <SlogP_VSA10>
5.69

>  <SlogP_VSA11>
11.5

>  <EState_VSA1>
0

>  <EState_VSA2>
0

>  <EState_VSA3>
5.02

>  <EState_VSA4>
54.76

>  <EState_VSA5>
0

>  <EState_VSA6>
0

>  <EState_VSA7>
42.46

>  <EState_VSA8>
10.22

>  <EState_VSA9>
21.33

>  <EState_VSA10>
0

>  <VSA_EState1>
6.06

>  <VSA_EState2>
7.17

>  <VSA_EState3>
4.06

>  <VSA_EState4>
1.8

>  <VSA_EState5>
2.51

>  <VSA_EState6>
13.55

>  <VSA_EState7>
0

>  <VSA_EState8>
3.76

>  <VSA_EState9>
0

>  <apol>
45.34

>  <bpol>
21.72

>  <nRing>
4

>  <nHRing>
2

>  <naRing>
2

>  <naHRing>
0

>  <nARing 2>
2

>  <nAHRing 2>
2

>  <nFRing>
1

>  <nFHRing>
1

>  <nFaRing>
0

>  <nFaHRing>
0

>  <nFARing 2>
1

>  <nFAHRing 2>
1

>  <nRot>
0

>  <SLogP>
3.43

>  <SMR>
88.61

>  <TopoPSA(NO)>
36.86

>  <TopoPSA>
36.86

>  <JGI1>
0.14

>  <JGI2>
0.06

>  <JGI3>
0.03

>  <JGI4>
0.04

>  <JGI5>
0.02

>  <Diameter>
9

>  <Radius>
5

>  <TMWC10>
122.06

>  <TSRW10>
64.51

>  <MW>
313.1

>  <AMW>
8.24

>  <WPath>
936

>  <WPol>
39

>  <Zagreb1>
120

>  <Zagreb2>
143

>  <mZagreb2>
4.78

>  <yes>


>  <nAR-cont>
1

>  <nHA-cont>
0.983774276

>  <MWHBN>
0.282571574

>  <MWHBN-cont>
0.889489137

>  <TPSA-cont>
0.742694311

>  <pka_cont>
0.97

>  <yes.1>


>  <BBB_SCORE>
5.288396604

>  <MMFF94 Energy>
114.43

$$$$
Compound 625
Actelion Java MolfileCreator 2.0

  0  0  0  0  0  0              0 V3000
M  V30 BEGIN CTAB
M  V30 COUNTS 3 2 0 0 0
M  V30 BEGIN ATOM
M  V30 1 S -0.9467 -1.5386 0.5916 0
M  V30 2 C -0.0011 0.0049 0.0378 0
M  V30 3 S 0.9443 1.5484 -0.5159 0
M  V30 END ATOM
M  V30 BEGIN BOND
M  V30 1 2 1 2
M  V30 2 2 2 3
M  V30 END BOND
M  V30 END CTAB
M  END
>  <Column 1>
752

>  <level_0>
859

>  <index>
859

>  <Unnamed: 0>
859

>  <NO.>
871

>  <Name>
carbon disulfide

>  <IUPAC_name>


>  <SMILES>
S=C=S

>  <CID>
6348

>  <logBB>
0.6

>  <BBB+/BBB->
BBB+

>  <Inchi>
InChI=1S/CS2/c2-1-3

>  <threshold>


>  <reference>
R2|R2|R3|R11|R12|R21|R25|R27|R27|R38|R41|R46|R49|R40|

>  <group>
A

>  <Class>
1

>  <ABC>
1.41

>  <ABCGG>
1.41

>  <nAcid>
0

>  <nBase>
0

>  <nAromAtom>
0

>  <nAromBond>
0

>  <nAtom>
3

>  <nHeavyAtom>
3

>  <nSpiro>
0

>  <nBridgehead>
0

>  <nHetero>
2

>  <nN>
0

>  <nO>
0

>  <nF>
0

>  <BalabanJ>
1.63

>  <BertzCT>
23.77

>  <nBonds>
2

>  <nBondsO>
2

>  <nBondsS>
0

>  <nBondsD>
2

>  <nBondsT>
0

>  <nBondsA>
0

>  <nBondsM>
2

>  <nBondsKS>
0

>  <nBondsKD>
2

>  <RNCG>
0.5

>  <RPCG>
1

>  <FCSP3>
0

>  <SZ>
6.33

>  <Sm>
6.34

>  <Sv>
3.37

>  <Sse>
3.15

>  <Sp>
4.47

>  <Si>
2.84

>  <MZ>
2.11

>  <Mm>
2.11

>  <Mv>
1.12

>  <Mse>
1.05

>  <Mp>
1.49

>  <Mi>
0.95

>  <NsCH3>
0

>  <NdCH2>
0

>  <NssCH2>
0

>  <NtCH>
0

>  <NdsCH>
0

>  <NaaCH>
0

>  <NsssCH>
0

>  <NddC>
1

>  <NtsC>
0

>  <NdssC>
0

>  <NaasC>
0

>  <NaaaC>
0

>  <NssssC>
0

>  <NsNH3>
0

>  <NsNH2>
0

>  <NssNH2>
0

>  <NdNH>
0

>  <NssNH>
0

>  <NaaNH>
0

>  <NtN>
0

>  <NsssNH>
0

>  <NdsN>
0

>  <NaaN>
0

>  <NsssN>
0

>  <NddsN>
0

>  <NaasN>
0

>  <NssssN>
0

>  <NsOH>
0

>  <NdO>
0

>  <NssO>
0

>  <NaaO>
0

>  <NsF>
0

>  <NsSiH3>
0

>  <NssSiH2>
0

>  <NsssSiH>
0

>  <NssssSi>
0

>  <NsPH2>
0

>  <NssPH>
0

>  <NsssP>
0

>  <NdsssP>
0

>  <NsssssP>
0

>  <NsSH>
0

>  <NdS>
2

>  <NssS>
0

>  <NaaS>
0

>  <NdssS>
0

>  <NddssS>
0

>  <NsCl>
0

>  <NsBr>
0

>  <NsI>
0

>  <fragCpx>
2.02

>  <fMF>
0

>  <nHBAcc>
2

>  <nHBDon>
0

>  <Kier1>
3

>  <Kier2>
2

>  <Lipinski>
1

>  <GhoseFilter>
0

>  <FilterItLogS>
-0.01

>  <VMcGowan>
49.05

>  <LabuteASA>
29.46

>  <PEOE_VSA1>
0

>  <PEOE_VSA2>
0

>  <PEOE_VSA3>
0

>  <PEOE_VSA4>
0

>  <PEOE_VSA5>
0

>  <PEOE_VSA6>
0

>  <PEOE_VSA7>
24.44

>  <PEOE_VSA8>
4.31

>  <PEOE_VSA9>
0

>  <PEOE_VSA10>
0

>  <PEOE_VSA11>
0

>  <PEOE_VSA12>
0

>  <PEOE_VSA13>
0

>  <SMR_VSA1>
0

>  <SMR_VSA2>
0

>  <SMR_VSA3>
0

>  <SMR_VSA4>
0

>  <SMR_VSA5>
0

>  <SMR_VSA6>
0

>  <SMR_VSA7>
0

>  <SMR_VSA8>
0

>  <SMR_VSA9>
0

>  <SlogP_VSA1>
0

>  <SlogP_VSA2>
4.31

>  <SlogP_VSA3>
0

>  <SlogP_VSA4>
0

>  <SlogP_VSA5>
0

>  <SlogP_VSA6>
0

>  <SlogP_VSA7>
0

>  <SlogP_VSA8>
0

>  <SlogP_VSA9>
0

>  <SlogP_VSA10>
0

>  <SlogP_VSA11>
0

>  <EState_VSA1>
0

>  <EState_VSA2>
0

>  <EState_VSA3>
0

>  <EState_VSA4>
0

>  <EState_VSA5>
0

>  <EState_VSA6>
0

>  <EState_VSA7>
4.31

>  <EState_VSA8>
24.44

>  <EState_VSA9>
0

>  <EState_VSA10>
0

>  <VSA_EState1>
1.92

>  <VSA_EState2>
0

>  <VSA_EState3>
0

>  <VSA_EState4>
0

>  <VSA_EState5>
0

>  <VSA_EState6>
0

>  <VSA_EState7>
0

>  <VSA_EState8>
0

>  <VSA_EState9>
0

>  <apol>
7.47

>  <bpol>
2.46

>  <nRing>
0

>  <nHRing>
0

>  <naRing>
0

>  <naHRing>
0

>  <nARing 2>
0

>  <nAHRing 2>
0

>  <nFRing>
0

>  <nFHRing>
0

>  <nFaRing>
0

>  <nFaHRing>
0

>  <nFARing 2>
0

>  <nFAHRing 2>
0

>  <nRot>
0

>  <SLogP>
1.02

>  <SMR>
20.19

>  <TopoPSA(NO)>
0

>  <TopoPSA>
64.18

>  <JGI1>
0.25

>  <JGI2>
0

>  <JGI3>
0

>  <JGI4>
0

>  <JGI5>
0

>  <Diameter>
2

>  <Radius>
1

>  <TMWC10>
33.9

>  <TSRW10>
17.31

>  <MW>
75.94

>  <AMW>
25.31

>  <WPath>
4

>  <WPol>
0

>  <Zagreb1>
6

>  <Zagreb2>
4

>  <mZagreb2>
1

>  <yes>


>  <nAR-cont>
0.336376

>  <nHA-cont>
0

>  <MWHBN>
0.229506346

>  <MWHBN-cont>
0.987261775

>  <TPSA-cont>
0.551983747

>  <pka_cont>
0.97

>  <yes.1>


>  <BBB_SCORE>
3.406236156

>  <MMFF94 Energy>
MMFF94 error code 2

$$$$
Compound 626
Actelion Java MolfileCreator 2.0

  0  0  0  0  0  0              0 V3000
M  V30 BEGIN CTAB
M  V30 COUNTS 30 30 0 0 0
M  V30 BEGIN ATOM
M  V30 1 C 0.5443 0.7777 1.1667 0
M  V30 2 C -0.3002 -0.1409 0.2052 0
M  V30 3 C -0.3251 1.9383 1.6995 0
M  V30 4 C 1.0253 -0.0292 2.3932 0
M  V30 5 C 1.7812 1.3835 0.4769 0
M  V30 6 C -0.9012 0.6133 -1.0029 0
M  V30 7 C 0.4691 -1.3832 -0.299 0
M  V30 8 C -1.7629 -0.294 -1.8807 0
M  V30 9 C -0.3982 -2.2825 -1.1797 0
M  V30 10 C -0.9911 -1.5176 -2.355 0
M  V30 11 H -1.15 -0.516 0.7954 0
M  V30 12 H 0.2049 2.508 2.4721 0
M  V30 13 H -0.587 2.6495 0.9097 0
M  V30 14 H -1.2538 1.564 2.1444 0
M  V30 15 H 0.188 -0.5366 2.885 0
M  V30 16 H 1.498 0.6238 3.1363 0
M  V30 17 H 1.7695 -0.784 2.1202 0
M  V30 18 H 2.3448 2.0159 1.1733 0
M  V30 19 H 1.5053 2.0127 -0.3748 0
M  V30 20 H 2.468 0.6101 0.1197 0
M  V30 21 H -0.102 1.0399 -1.6196 0
M  V30 22 H -1.5284 1.445 -0.6668 0
M  V30 23 H 0.826 -1.9852 0.5425 0
M  V30 24 H 1.3504 -1.0763 -0.8736 0
M  V30 25 H -2.1254 0.2705 -2.7474 0
M  V30 26 H -2.6476 -0.614 -1.3163 0
M  V30 27 H 0.202 -3.1205 -1.5519 0
M  V30 28 H -1.2069 -2.713 -0.5764 0
M  V30 29 H -0.1873 -1.2048 -3.0326 0
M  V30 30 H -1.6549 -2.175 -2.9276 0
M  V30 END ATOM
M  V30 BEGIN BOND
M  V30 1 1 1 2
M  V30 2 1 1 3
M  V30 3 1 1 4
M  V30 4 1 1 5
M  V30 5 1 2 6
M  V30 6 1 2 7
M  V30 7 1 6 8
M  V30 8 1 7 9
M  V30 9 1 8 10
M  V30 10 1 9 10
M  V30 11 1 2 11
M  V30 12 1 3 12
M  V30 13 1 3 13
M  V30 14 1 3 14
M  V30 15 1 4 15
M  V30 16 1 4 16
M  V30 17 1 4 17
M  V30 18 1 5 18
M  V30 19 1 5 19
M  V30 20 1 5 20
M  V30 21 1 6 21
M  V30 22 1 6 22
M  V30 23 1 7 23
M  V30 24 1 7 24
M  V30 25 1 8 25
M  V30 26 1 8 26
M  V30 27 1 9 27
M  V30 28 1 9 28
M  V30 29 1 10 29
M  V30 30 1 10 30
M  V30 END BOND
M  V30 END CTAB
M  END
>  <Column 1>
754

>  <level_0>
861

>  <index>
861

>  <Unnamed: 0>
861

>  <NO.>
873

>  <Name>
tert-butylcyclohexane

>  <IUPAC_name>
tert-butylcyclohexane

>  <SMILES>
CC(C)(C)C1CCCCC1

>  <CID>
18508

>  <logBB>
0.61

>  <BBB+/BBB->
BBB+

>  <Inchi>
InChI=1S/C10H20/c1-10(2-3)9-7-5-4-6-8-9/h9H-4-8H2-1-3H3

>  <threshold>


>  <reference>
R3|R21|R25|R27|R38|R41|R46|R47|R2|R2|R8|R27|R40|

>  <group>
A

>  <Class>
1

>  <ABC>
7.49

>  <ABCGG>
7.11

>  <nAcid>
0

>  <nBase>
0

>  <nAromAtom>
0

>  <nAromBond>
0

>  <nAtom>
30

>  <nHeavyAtom>
10

>  <nSpiro>
0

>  <nBridgehead>
0

>  <nHetero>
0

>  <nN>
0

>  <nO>
0

>  <nF>
0

>  <BalabanJ>
2.39

>  <BertzCT>
91.1

>  <nBonds>
30

>  <nBondsO>
10

>  <nBondsS>
30

>  <nBondsD>
0

>  <nBondsT>
0

>  <nBondsA>
0

>  <nBondsM>
0

>  <nBondsKS>
30

>  <nBondsKD>
0

>  <RNCG>
0.12

>  <RPCG>
0.06

>  <FCSP3>
1

>  <SZ>
13.33

>  <Sm>
11.68

>  <Sv>
15.42

>  <Sse>
28.88

>  <Sp>
17.99

>  <Si>
34.15

>  <MZ>
0.44

>  <Mm>
0.39

>  <Mv>
0.51

>  <Mse>
0.96

>  <Mp>
0.6

>  <Mi>
1.14

>  <NsCH3>
3

>  <NdCH2>
0

>  <NssCH2>
5

>  <NtCH>
0

>  <NdsCH>
0

>  <NaaCH>
0

>  <NsssCH>
1

>  <NddC>
0

>  <NtsC>
0

>  <NdssC>
0

>  <NaasC>
0

>  <NaaaC>
0

>  <NssssC>
1

>  <NsNH3>
0

>  <NsNH2>
0

>  <NssNH2>
0

>  <NdNH>
0

>  <NssNH>
0

>  <NaaNH>
0

>  <NtN>
0

>  <NsssNH>
0

>  <NdsN>
0

>  <NaaN>
0

>  <NsssN>
0

>  <NddsN>
0

>  <NaasN>
0

>  <NssssN>
0

>  <NsOH>
0

>  <NdO>
0

>  <NssO>
0

>  <NaaO>
0

>  <NsF>
0

>  <NsSiH3>
0

>  <NssSiH2>
0

>  <NsssSiH>
0

>  <NssssSi>
0

>  <NsPH2>
0

>  <NssPH>
0

>  <NsssP>
0

>  <NdsssP>
0

>  <NsssssP>
0

>  <NsSH>
0

>  <NdS>
0

>  <NssS>
0

>  <NaaS>
0

>  <NdssS>
0

>  <NddssS>
0

>  <NsCl>
0

>  <NsBr>
0

>  <NsI>
0

>  <fragCpx>
10

>  <fMF>
0.2

>  <nHBAcc>
0

>  <nHBDon>
0

>  <Kier1>
8.1

>  <Kier2>
2.94

>  <Lipinski>
1

>  <GhoseFilter>
0

>  <FilterItLogS>
-2.5

>  <VMcGowan>
140.9

>  <LabuteASA>
65.02

>  <PEOE_VSA1>
0

>  <PEOE_VSA2>
0

>  <PEOE_VSA3>
0

>  <PEOE_VSA4>
0

>  <PEOE_VSA5>
0

>  <PEOE_VSA6>
40.03

>  <PEOE_VSA7>
24.17

>  <PEOE_VSA8>
0

>  <PEOE_VSA9>
0

>  <PEOE_VSA10>
0

>  <PEOE_VSA11>
0

>  <PEOE_VSA12>
0

>  <PEOE_VSA13>
0

>  <SMR_VSA1>
0

>  <SMR_VSA2>
0

>  <SMR_VSA3>
0

>  <SMR_VSA4>
11.33

>  <SMR_VSA5>
52.88

>  <SMR_VSA6>
0

>  <SMR_VSA7>
0

>  <SMR_VSA8>
0

>  <SMR_VSA9>
0

>  <SlogP_VSA1>
0

>  <SlogP_VSA2>
0

>  <SlogP_VSA3>
0

>  <SlogP_VSA4>
11.33

>  <SlogP_VSA5>
52.88

>  <SlogP_VSA6>
0

>  <SlogP_VSA7>
0

>  <SlogP_VSA8>
0

>  <SlogP_VSA9>
0

>  <SlogP_VSA10>
0

>  <SlogP_VSA11>
0

>  <EState_VSA1>
0

>  <EState_VSA2>
0

>  <EState_VSA3>
5.41

>  <EState_VSA4>
5.92

>  <EState_VSA5>
32.1

>  <EState_VSA6>
0

>  <EState_VSA7>
0

>  <EState_VSA8>
20.77

>  <EState_VSA9>
0

>  <EState_VSA10>
0

>  <VSA_EState1>
0

>  <VSA_EState2>
0

>  <VSA_EState3>
0

>  <VSA_EState4>
0.57

>  <VSA_EState5>
1

>  <VSA_EState6>
0

>  <VSA_EState7>
7.38

>  <VSA_EState8>
7.13

>  <VSA_EState9>
0

>  <apol>
30.04

>  <bpol>
20.06

>  <nRing>
1

>  <nHRing>
0

>  <naRing>
0

>  <naHRing>
0

>  <nARing 2>
1

>  <nAHRing 2>
0

>  <nFRing>
0

>  <nFHRing>
0

>  <nFaRing>
0

>  <nFaHRing>
0

>  <nFARing 2>
0

>  <nFAHRing 2>
0

>  <nRot>
0

>  <SLogP>
3.61

>  <SMR>
46.03

>  <TopoPSA(NO)>
0

>  <TopoPSA>
0

>  <JGI1>
0.3

>  <JGI2>
0.1

>  <JGI3>
0.06

>  <JGI4>
0.04

>  <JGI5>
0.06

>  <Diameter>
5

>  <Radius>
3

>  <TMWC10>
84.34

>  <TSRW10>
39.68

>  <MW>
140.16

>  <AMW>
4.67

>  <WPath>
114

>  <WPol>
11

>  <Zagreb1>
48

>  <Zagreb2>
52

>  <mZagreb2>
2.17

>  <yes>


>  <nAR-cont>
0.816016

>  <nHA-cont>
0.645914733

>  <MWHBN>
0

>  <MWHBN-cont>
0

>  <TPSA-cont>
0

>  <pka_cont>
0.97

>  <yes.1>


>  <BBB_SCORE>
1.946930733

>  <MMFF94 Energy>
18.684

$$$$
Compound 627
Actelion Java MolfileCreator 2.0

  0  0  0  0  0  0              0 V3000
M  V30 BEGIN CTAB
M  V30 COUNTS 24 25 0 0 0
M  V30 BEGIN ATOM
M  V30 1 Cl -1.543 -3.7388 -2.0306 0
M  V30 2 C -1.0942 -2.5183 -0.9055 0
M  V30 3 C -0.6377 -1.2858 -1.3683 0
M  V30 4 C -1.198 -2.7659 0.46 0
M  V30 5 C -0.2728 -0.2858 -0.4546 0
M  V30 6 C -0.8283 -1.7772 1.374 0
M  V30 7 C 0.1308 1.0448 -0.9895 0
M  V30 8 C -0.3457 -0.5416 0.9256 0
M  V30 9 N 1.0968 1.7781 -0.5533 0
M  V30 10 C -0.6622 1.5945 -2.1575 0
M  V30 11 N 0.0102 0.3894 1.9103 0
M  V30 12 C 1.9096 1.2898 0.5547 0 CFG=2
M  V30 13 C 1.0278 1.3088 1.8326 0
M  V30 14 O 3.0784 2.0673 0.7465 0
M  V30 15 O 1.2126 2.0844 2.7729 0
M  V30 16 H -0.5665 -1.1136 -2.4394 0
M  V30 17 H -1.5598 -3.7262 0.8203 0
M  V30 18 H -0.9038 -1.9915 2.4383 0
M  V30 19 H -1.6709 1.1741 -2.1908 0
M  V30 20 H -0.7518 2.6812 -2.0618 0
M  V30 21 H -0.1376 1.3653 -3.0894 0
M  V30 22 H -0.4654 0.3788 2.8047 0
M  V30 23 H 2.2591 0.2668 0.375 0
M  V30 24 H 2.7366 2.9658 0.898 0
M  V30 END ATOM
M  V30 BEGIN BOND
M  V30 1 1 1 2
M  V30 2 2 2 3
M  V30 3 1 2 4
M  V30 4 1 3 5
M  V30 5 2 4 6
M  V30 6 1 5 7
M  V30 7 2 5 8
M  V30 8 2 7 9
M  V30 9 1 7 10
M  V30 10 1 8 11
M  V30 11 1 9 12
M  V30 12 1 11 13
M  V30 13 1 12 14
M  V30 14 2 13 15
M  V30 15 1 6 8
M  V30 16 1 12 13
M  V30 17 1 3 16
M  V30 18 1 4 17
M  V30 19 1 6 18
M  V30 20 1 10 19
M  V30 21 1 10 20
M  V30 22 1 10 21
M  V30 23 1 11 22
M  V30 24 1 12 23
M  V30 25 1 14 24
M  V30 END BOND
M  V30 BEGIN COLLECTION
M  V30 MDLV30/STERAC1 ATOMS=(1 12)
M  V30 END COLLECTION
M  V30 END CTAB
M  END
>  <Column 1>
755

>  <level_0>
862

>  <index>
862

>  <Unnamed: 0>
862

>  <NO.>
874

>  <Name>
oxazepam

>  <IUPAC_name>


>  <SMILES>
CC1=NC(O)C(=O)Nc2ccc(Cl)cc21

>  <CID>


>  <logBB>
0.61

>  <BBB+/BBB->
BBB+

>  <Inchi>
InChI=1S/C10H9ClN2O2/c1-5-7-4-6(11)2-3-8(7)13-10(15)9(14)12-5/h2-4-9-14H-1H3-(H-13-15)

>  <threshold>


>  <reference>
R18|R26|R27|

>  <group>
A

>  <Class>
1

>  <ABC>
11.63

>  <ABCGG>
10.22

>  <nAcid>
0

>  <nBase>
0

>  <nAromAtom>
6

>  <nAromBond>
6

>  <nAtom>
24

>  <nHeavyAtom>
15

>  <nSpiro>
0

>  <nBridgehead>
0

>  <nHetero>
5

>  <nN>
2

>  <nO>
2

>  <nF>
0

>  <BalabanJ>
2.09

>  <BertzCT>
456.74

>  <nBonds>
25

>  <nBondsO>
16

>  <nBondsS>
17

>  <nBondsD>
2

>  <nBondsT>
0

>  <nBondsA>
6

>  <nBondsM>
8

>  <nBondsKS>
20

>  <nBondsKD>
5

>  <RNCG>
0.26

>  <RPCG>
0.19

>  <FCSP3>
0.2

>  <SZ>
19.33

>  <Sm>
18.7

>  <Sv>
16.47

>  <Sse>
24.75

>  <Sp>
17.18

>  <Si>
27.02

>  <MZ>
0.81

>  <Mm>
0.78

>  <Mv>
0.69

>  <Mse>
1.03

>  <Mp>
0.72

>  <Mi>
1.13

>  <NsCH3>
1

>  <NdCH2>
0

>  <NssCH2>
0

>  <NtCH>
0

>  <NdsCH>
0

>  <NaaCH>
3

>  <NsssCH>
1

>  <NddC>
0

>  <NtsC>
0

>  <NdssC>
2

>  <NaasC>
3

>  <NaaaC>
0

>  <NssssC>
0

>  <NsNH3>
0

>  <NsNH2>
0

>  <NssNH2>
0

>  <NdNH>
0

>  <NssNH>
1

>  <NaaNH>
0

>  <NtN>
0

>  <NsssNH>
0

>  <NdsN>
1

>  <NaaN>
0

>  <NsssN>
0

>  <NddsN>
0

>  <NaasN>
0

>  <NssssN>
0

>  <NsOH>
1

>  <NdO>
1

>  <NssO>
0

>  <NaaO>
0

>  <NsF>
0

>  <NsSiH3>
0

>  <NssSiH2>
0

>  <NsssSiH>
0

>  <NssssSi>
0

>  <NsPH2>
0

>  <NssPH>
0

>  <NsssP>
0

>  <NdsssP>
0

>  <NsssssP>
0

>  <NsSH>
0

>  <NdS>
0

>  <NssS>
0

>  <NaaS>
0

>  <NdssS>
0

>  <NddssS>
0

>  <NsCl>
1

>  <NsBr>
0

>  <NsI>
0

>  <fragCpx>
46.05

>  <fMF>
0.46

>  <nHBAcc>
3

>  <nHBDon>
2

>  <Kier1>
11.48

>  <Kier2>
4.47

>  <Lipinski>
1

>  <GhoseFilter>
1

>  <FilterItLogS>
-2.95

>  <VMcGowan>
152.48

>  <LabuteASA>
91.59

>  <PEOE_VSA1>
10.42

>  <PEOE_VSA2>
4.79

>  <PEOE_VSA3>
4.99

>  <PEOE_VSA4>
0

>  <PEOE_VSA5>
0

>  <PEOE_VSA6>
11.6

>  <PEOE_VSA7>
25.12

>  <PEOE_VSA8>
16.3

>  <PEOE_VSA9>
5.69

>  <PEOE_VSA10>
0

>  <PEOE_VSA11>
0

>  <PEOE_VSA12>
6.23

>  <PEOE_VSA13>
5.91

>  <SMR_VSA1>
9.9

>  <SMR_VSA2>
0

>  <SMR_VSA3>
0

>  <SMR_VSA4>
4.99

>  <SMR_VSA5>
13.15

>  <SMR_VSA6>
5.32

>  <SMR_VSA7>
28.79

>  <SMR_VSA8>
0

>  <SMR_VSA9>
0

>  <SlogP_VSA1>
5.32

>  <SlogP_VSA2>
22.95

>  <SlogP_VSA3>
4.79

>  <SlogP_VSA4>
0

>  <SlogP_VSA5>
12.49

>  <SlogP_VSA6>
23.19

>  <SlogP_VSA7>
5.02

>  <SlogP_VSA8>
0

>  <SlogP_VSA9>
0

>  <SlogP_VSA10>
5.69

>  <SlogP_VSA11>
0

>  <EState_VSA1>
12.14

>  <EState_VSA2>
0

>  <EState_VSA3>
16.42

>  <EState_VSA4>
5.56

>  <EState_VSA5>
0

>  <EState_VSA6>
25.12

>  <EState_VSA7>
0

>  <EState_VSA8>
10.31

>  <EState_VSA9>
11.6

>  <EState_VSA10>
9.9

>  <VSA_EState1>
0

>  <VSA_EState2>
15.15

>  <VSA_EState3>
12.47

>  <VSA_EState4>
1.92

>  <VSA_EState5>
-0.53

>  <VSA_EState6>
5.06

>  <VSA_EState7>
-1.35

>  <VSA_EState8>
1.72

>  <VSA_EState9>
0

>  <apol>
28.69

>  <bpol>
12.12

>  <nRing>
2

>  <nHRing>
1

>  <naRing>
1

>  <naHRing>
0

>  <nARing 2>
1

>  <nAHRing 2>
1

>  <nFRing>
1

>  <nFHRing>
1

>  <nFaRing>
0

>  <nFaHRing>
0

>  <nFARing 2>
1

>  <nFAHRing 2>
1

>  <nRot>
0

>  <SLogP>
1.42

>  <SMR>
58.3

>  <TopoPSA(NO)>
61.69

>  <TopoPSA>
61.69

>  <JGI1>
0.25

>  <JGI2>
0.1

>  <JGI3>
0.05

>  <JGI4>
0.07

>  <JGI5>
0.02

>  <Diameter>
7

>  <Radius>
4

>  <TMWC10>
101.51

>  <TSRW10>
55.26

>  <MW>
224.04

>  <AMW>
9.33

>  <WPath>
329

>  <WPol>
26

>  <Zagreb1>
78

>  <Zagreb2>
91

>  <mZagreb2>
3.25

>  <yes>


>  <nAR-cont>
0.816016

>  <nHA-cont>
0.92539861

>  <MWHBN>
0.334046728

>  <MWHBN-cont>
0.72854779

>  <TPSA-cont>
0.569365493

>  <pka_cont>
0.97

>  <yes.1>


>  <BBB_SCORE>
4.457967281

>  <MMFF94 Energy>
65.819

$$$$
Compound 628
Actelion Java MolfileCreator 2.0

  0  0  0  0  0  0              0 V3000
M  V30 BEGIN CTAB
M  V30 COUNTS 41 43 0 0 0
M  V30 BEGIN ATOM
M  V30 1 O -5.4911 1.9073 -0.4765 0
M  V30 2 C -4.5068 1.3689 -0.95 0
M  V30 3 N -3.976 1.6402 -2.1924 0
M  V30 4 C -3.6332 0.3442 -0.2726 0
M  V30 5 C -2.7814 0.895 -2.4556 0
M  V30 6 C -2.8504 -0.2553 -1.4504 0 CFG=1
M  V30 7 C -1.5128 -0.8517 -1.0836 0
M  V30 8 C -0.5031 -0.0875 -0.4746 0
M  V30 9 C -1.258 -2.2011 -1.3524 0
M  V30 10 C 0.7346 -0.6533 -0.1428 0
M  V30 11 C -0.0292 -2.7781 -1.0201 0
M  V30 12 O 1.7637 0.0235 0.4613 0
M  V30 13 C 0.9711 -2.0146 -0.413 0
M  V30 14 C 1.6806 1.4406 0.611 0
M  V30 15 O 2.2058 -2.4962 -0.0543 0
M  V30 16 C 0.9921 1.8176 1.9205 0
M  V30 17 C 3.0964 1.9709 0.8351 0
M  V30 18 C 2.4569 -3.8794 -0.2539 0
M  V30 19 C 2.0434 1.5582 2.997 0
M  V30 20 C 3.3983 1.6644 2.3 0
M  V30 21 H -4.3905 2.3403 -2.796 0
M  V30 22 H -3.0015 0.8561 0.4596 0
M  V30 23 H -4.2419 -0.4111 0.2323 0
M  V30 24 H -1.9288 1.5645 -2.3054 0
M  V30 25 H -2.7838 0.546 -3.4922 0
M  V30 26 H -3.485 -1.0386 -1.8915 0
M  V30 27 H -0.7063 0.9547 -0.2521 0
M  V30 28 H -2.0166 -2.8248 -1.8221 0
M  V30 29 H 0.1144 -3.8284 -1.2497 0
M  V30 30 H 1.2457 1.9179 -0.2735 0
M  V30 31 H 0.732 2.8828 1.9121 0
M  V30 32 H 0.0838 1.2421 2.1206 0
M  V30 33 H 3.1205 3.0558 0.6768 0
M  V30 34 H 3.8345 1.5056 0.1744 0
M  V30 35 H 1.7572 -4.4963 0.3195 0
M  V30 36 H 3.4653 -4.0927 0.1135 0
M  V30 37 H 2.4308 -4.1351 -1.3182 0
M  V30 38 H 1.92 0.5531 3.4169 0
M  V30 39 H 1.952 2.2713 3.8225 0
M  V30 40 H 4.027 2.4413 2.7467 0
M  V30 41 H 3.9381 0.7146 2.3895 0
M  V30 END ATOM
M  V30 BEGIN BOND
M  V30 1 2 1 2
M  V30 2 1 2 3
M  V30 3 1 2 4
M  V30 4 1 3 5
M  V30 5 1 4 6
M  V30 6 1 6 7
M  V30 7 2 7 8
M  V30 8 1 7 9
M  V30 9 1 8 10
M  V30 10 2 9 11
M  V30 11 1 10 12
M  V30 12 2 10 13
M  V30 13 1 12 14
M  V30 14 1 13 15
M  V30 15 1 14 16
M  V30 16 1 14 17
M  V30 17 1 15 18
M  V30 18 1 16 19
M  V30 19 1 17 20
M  V30 20 1 5 6
M  V30 21 1 11 13
M  V30 22 1 19 20
M  V30 23 1 3 21
M  V30 24 1 4 22
M  V30 25 1 4 23
M  V30 26 1 5 24
M  V30 27 1 5 25
M  V30 28 1 6 26
M  V30 29 1 8 27
M  V30 30 1 9 28
M  V30 31 1 11 29
M  V30 32 1 14 30
M  V30 33 1 16 31
M  V30 34 1 16 32
M  V30 35 1 17 33
M  V30 36 1 17 34
M  V30 37 1 18 35
M  V30 38 1 18 36
M  V30 39 1 18 37
M  V30 40 1 19 38
M  V30 41 1 19 39
M  V30 42 1 20 40
M  V30 43 1 20 41
M  V30 END BOND
M  V30 BEGIN COLLECTION
M  V30 MDLV30/STERAC1 ATOMS=(1 6)
M  V30 END COLLECTION
M  V30 END CTAB
M  END
>  <Column 1>
756

>  <level_0>
863

>  <index>
863

>  <Unnamed: 0>
863

>  <NO.>
875

>  <Name>
rolipram

>  <IUPAC_name>
4-(3-cyclopentyloxy-4-methoxyphenyl)pyrrolidin-2-one

>  <SMILES>
COc1ccc(C2CNC(=O)C2)cc1OC1CCCC1

>  <CID>
5092

>  <logBB>
0.61

>  <BBB+/BBB->
BBB+

>  <Inchi>
InChI=1S/C16H21NO3/c1-19-14-7-6-11(12-9-16(18)17-10-12)8-15(14)20-13-4-2-3-5-13/h6-8-12-13H-2-5-9-10H2-1H3-(H-17-18)

>  <threshold>


>  <reference>
R3|R18|R21|R25|R26|R27|R27|R38|R41|R43|R46|R47|R2|R2|R8|R27|R40|

>  <group>
A

>  <Class>
1

>  <ABC>
15.58

>  <ABCGG>
13.49

>  <nAcid>
0

>  <nBase>
0

>  <nAromAtom>
6

>  <nAromBond>
6

>  <nAtom>
41

>  <nHeavyAtom>
20

>  <nSpiro>
0

>  <nBridgehead>
0

>  <nHetero>
4

>  <nN>
1

>  <nO>
3

>  <nF>
0

>  <BalabanJ>
1.56

>  <BertzCT>
494.5

>  <nBonds>
43

>  <nBondsO>
22

>  <nBondsS>
36

>  <nBondsD>
1

>  <nBondsT>
0

>  <nBondsA>
6

>  <nBondsM>
7

>  <nBondsKS>
39

>  <nBondsKD>
4

>  <RNCG>
0.26

>  <RPCG>
0.12

>  <FCSP3>
0.56

>  <SZ>
24.67

>  <Sm>
22.92

>  <Sv>
24.59

>  <Sse>
40.98

>  <Sp>
26.48

>  <Si>
46.28

>  <MZ>
0.6

>  <Mm>
0.56

>  <Mv>
0.6

>  <Mse>
1

>  <Mp>
0.65

>  <Mi>
1.13

>  <NsCH3>
1

>  <NdCH2>
0

>  <NssCH2>
6

>  <NtCH>
0

>  <NdsCH>
0

>  <NaaCH>
3

>  <NsssCH>
2

>  <NddC>
0

>  <NtsC>
0

>  <NdssC>
1

>  <NaasC>
3

>  <NaaaC>
0

>  <NssssC>
0

>  <NsNH3>
0

>  <NsNH2>
0

>  <NssNH2>
0

>  <NdNH>
0

>  <NssNH>
1

>  <NaaNH>
0

>  <NtN>
0

>  <NsssNH>
0

>  <NdsN>
0

>  <NaaN>
0

>  <NsssN>
0

>  <NddsN>
0

>  <NaasN>
0

>  <NssssN>
0

>  <NsOH>
0

>  <NdO>
1

>  <NssO>
2

>  <NaaO>
0

>  <NsF>
0

>  <NsSiH3>
0

>  <NssSiH2>
0

>  <NsssSiH>
0

>  <NssssSi>
0

>  <NsPH2>
0

>  <NssPH>
0

>  <NsssP>
0

>  <NdsssP>
0

>  <NsssssP>
0

>  <NsSH>
0

>  <NdS>
0

>  <NssS>
0

>  <NaaS>
0

>  <NdssS>
0

>  <NddssS>
0

>  <NsCl>
0

>  <NsBr>
0

>  <NsI>
0

>  <fragCpx>
104.04

>  <fMF>
0.41

>  <nHBAcc>
3

>  <nHBDon>
1

>  <Kier1>
14.92

>  <Kier2>
6.84

>  <Lipinski>
1

>  <GhoseFilter>
1

>  <FilterItLogS>
-3.79

>  <VMcGowan>
214.11

>  <LabuteASA>
119.01

>  <PEOE_VSA1>
14.79

>  <PEOE_VSA2>
4.79

>  <PEOE_VSA3>
0

>  <PEOE_VSA4>
0

>  <PEOE_VSA5>
0

>  <PEOE_VSA6>
6.07

>  <PEOE_VSA7>
43.38

>  <PEOE_VSA8>
18.88

>  <PEOE_VSA9>
13.21

>  <PEOE_VSA10>
0

>  <PEOE_VSA11>
11.5

>  <PEOE_VSA12>
5.91

>  <PEOE_VSA13>
0

>  <SMR_VSA1>
14.27

>  <SMR_VSA2>
0

>  <SMR_VSA3>
5.32

>  <SMR_VSA4>
0

>  <SMR_VSA5>
44.13

>  <SMR_VSA6>
13.65

>  <SMR_VSA7>
23.76

>  <SMR_VSA8>
0

>  <SMR_VSA9>
11.5

>  <SlogP_VSA1>
14.79

>  <SlogP_VSA2>
25.67

>  <SlogP_VSA3>
4.79

>  <SlogP_VSA4>
0

>  <SlogP_VSA5>
43.59

>  <SlogP_VSA6>
18.2

>  <SlogP_VSA7>
0

>  <SlogP_VSA8>
0

>  <SlogP_VSA9>
0

>  <SlogP_VSA10>
0

>  <SlogP_VSA11>
11.5

>  <EState_VSA1>
0

>  <EState_VSA2>
11.83

>  <EState_VSA3>
19.07

>  <EState_VSA4>
29.9

>  <EState_VSA5>
12.84

>  <EState_VSA6>
7.11

>  <EState_VSA7>
18.2

>  <EState_VSA8>
5.32

>  <EState_VSA9>
9.47

>  <EState_VSA10>
4.79

>  <VSA_EState1>
11.48

>  <VSA_EState2>
11.35

>  <VSA_EState3>
2.88

>  <VSA_EState4>
1.15

>  <VSA_EState5>
1.97

>  <VSA_EState6>
6.02

>  <VSA_EState7>
5.6

>  <VSA_EState8>
0.72

>  <VSA_EState9>
1.66

>  <apol>
44.23

>  <bpol>
25.98

>  <nRing>
3

>  <nHRing>
1

>  <naRing>
1

>  <naHRing>
0

>  <nARing 2>
2

>  <nAHRing 2>
1

>  <nFRing>
0

>  <nFHRing>
0

>  <nFaRing>
0

>  <nFaHRing>
0

>  <nFARing 2>
0

>  <nFAHRing 2>
0

>  <nRot>
4

>  <SLogP>
2.62

>  <SMR>
76.25

>  <TopoPSA(NO)>
47.56

>  <TopoPSA>
47.56

>  <JGI1>
0.18

>  <JGI2>
0.07

>  <JGI3>
0.04

>  <JGI4>
0.04

>  <JGI5>
0.02

>  <Diameter>
10

>  <Radius>
5

>  <TMWC10>
114.81

>  <TSRW10>
68.76

>  <MW>
275.15

>  <AMW>
6.71

>  <WPath>
828

>  <WPol>
26

>  <Zagreb1>
104

>  <Zagreb2>
121

>  <mZagreb2>
4.47

>  <yes>


>  <nAR-cont>
1

>  <nHA-cont>
0.999629945

>  <MWHBN>
0.241143318

>  <MWHBN-cont>
0.973399387

>  <TPSA-cont>
0.668001667

>  <pka_cont>
0.97

>  <yes.1>


>  <BBB_SCORE>
5.280732359

>  <MMFF94 Energy>
38.39

$$$$
Compound 629
Actelion Java MolfileCreator 2.0

  0  0  0  0  0  0              0 V3000
M  V30 BEGIN CTAB
M  V30 COUNTS 55 59 0 0 0
M  V30 BEGIN ATOM
M  V30 1 S -0.0807 2.6671 4.7724 0
M  V30 2 C -0.4928 1.7775 3.3536 0
M  V30 3 C 0.4915 1.2299 5.4934 0
M  V30 4 C -0.1649 0.436 3.5508 0
M  V30 5 C -1.0649 2.2406 2.1552 0
M  V30 6 N 0.3941 0.1339 4.781 0
M  V30 7 C 1.0858 1.2102 6.9391 0
M  V30 8 C -0.4241 -0.4794 2.514 0
M  V30 9 C -1.3087 1.3164 1.1302 0
M  V30 10 C 2.2432 0.2935 7.2445 0
M  V30 11 C 2.463 1.7763 7.1756 0
M  V30 12 C -1.0102 -0.0453 1.3092 0
M  V30 13 O -1.8596 1.651 -0.0823 0
M  V30 14 C -1.254 -1.0555 0.2073 0
M  V30 15 C -1.7971 3.0207 -0.462 0
M  V30 16 N -0.1587 -1.022 -0.7645 0
M  V30 17 C -0.4269 -1.86 -1.9516 0
M  V30 18 C 0.4751 -1.4422 -3.1745 0
M  V30 19 C -0.1788 -3.3408 -1.6141 0
M  V30 20 N 0.308 -2.3371 -4.3368 0
M  V30 21 C 0.2377 0.0013 -3.6161 0
M  V30 22 C -0.3174 -4.2167 -2.8561 0
M  V30 23 C 0.5852 -3.7264 -3.9824 0
M  V30 24 C 1.3185 0.8956 -3.6804 0
M  V30 25 C -1.0386 0.4705 -3.9692 0
M  V30 26 C 1.1269 2.2223 -4.0715 0
M  V30 27 C -1.228 1.7974 -4.3621 0
M  V30 28 C -0.1462 2.6732 -4.4108 0
M  V30 29 H -1.3076 3.2917 2.0569 0
M  V30 30 H 0.3455 1.3411 7.7207 0
M  V30 31 H -0.1579 -1.5224 2.6584 0
M  V30 32 H 2.6377 -0.32 6.4419 0
M  V30 33 H 2.2645 -0.1839 8.2167 0
M  V30 34 H 2.6382 2.3082 8.1032 0
M  V30 35 H 3.0213 2.1622 6.3301 0
M  V30 36 H -2.2194 -0.8418 -0.2682 0
M  V30 37 H -1.3435 -2.0533 0.6519 0
M  V30 38 H -2.4918 3.6218 0.1329 0
M  V30 39 H -2.1106 3.092 -1.5075 0
M  V30 40 H -0.7758 3.4097 -0.3919 0
M  V30 41 H -0.0745 -0.0486 -1.071 0
M  V30 42 H -1.4779 -1.744 -2.2491 0
M  V30 43 H 1.5232 -1.5211 -2.8509 0
M  V30 44 H -0.8857 -3.6931 -0.8547 0
M  V30 45 H 0.8286 -3.4672 -1.1963 0
M  V30 46 H -0.6477 -2.2565 -4.6782 0
M  V30 47 H -0.0625 -5.2524 -2.6046 0
M  V30 48 H -1.3625 -4.217 -3.1903 0
M  V30 49 H 0.433 -4.3525 -4.8682 0
M  V30 50 H 1.6396 -3.8359 -3.7014 0
M  V30 51 H 2.3218 0.5598 -3.4266 0
M  V30 52 H -1.8982 -0.1936 -3.9456 0
M  V30 53 H 1.9749 2.9003 -4.1172 0
M  V30 54 H -2.2209 2.1451 -4.6346 0
M  V30 55 H -0.2931 3.7038 -4.7216 0
M  V30 END ATOM
M  V30 BEGIN BOND
M  V30 1 1 1 2
M  V30 2 1 1 3
M  V30 3 2 2 4
M  V30 4 1 2 5
M  V30 5 2 3 6
M  V30 6 1 3 7
M  V30 7 1 4 8
M  V30 8 2 5 9
M  V30 9 1 7 10
M  V30 10 1 7 11
M  V30 11 2 8 12
M  V30 12 1 9 13
M  V30 13 1 12 14
M  V30 14 1 13 15
M  V30 15 1 14 16
M  V30 16 1 16 17
M  V30 17 1 17 18
M  V30 18 1 17 19
M  V30 19 1 18 20
M  V30 20 1 18 21
M  V30 21 1 19 22
M  V30 22 1 20 23
M  V30 23 2 21 24
M  V30 24 1 21 25
M  V30 25 1 24 26
M  V30 26 2 25 27
M  V30 27 2 26 28
M  V30 28 1 4 6
M  V30 29 1 9 12
M  V30 30 1 10 11
M  V30 31 1 22 23
M  V30 32 1 27 28
M  V30 33 1 5 29
M  V30 34 1 7 30
M  V30 35 1 8 31
M  V30 36 1 10 32
M  V30 37 1 10 33
M  V30 38 1 11 34
M  V30 39 1 11 35
M  V30 40 1 14 36
M  V30 41 1 14 37
M  V30 42 1 15 38
M  V30 43 1 15 39
M  V30 44 1 15 40
M  V30 45 1 16 41
M  V30 46 1 17 42
M  V30 47 1 18 43
M  V30 48 1 19 44
M  V30 49 1 19 45
M  V30 50 1 20 46
M  V30 51 1 22 47
M  V30 52 1 22 48
M  V30 53 1 23 49
M  V30 54 1 23 50
M  V30 55 1 24 51
M  V30 56 1 25 52
M  V30 57 1 26 53
M  V30 58 1 27 54
M  V30 59 1 28 55
M  V30 END BOND
M  V30 END CTAB
M  END
>  <Column 1>
757

>  <level_0>
865

>  <index>
865

>  <Unnamed: 0>
865

>  <NO.>
877

>  <Name>
pfizer compound 24

>  <IUPAC_name>
n-[(2-cyclopropyl-6-methoxy-1-3-benzothiazol-5-yl)methyl]-2-phenylpiperidin-3-amine

>  <SMILES>
COc1cc2sc(C3CC3)nc2cc1CNC1CCCNC1c1ccccc1

>  <CID>
22620085

>  <logBB>
0.62

>  <BBB+/BBB->
BBB+

>  <Inchi>
InChI=1S/C23H27N3OS/c1-27-20-13-21-19(26-23(28-21)16-9-10-16)12-17(20)14-25-18-8-5-11-24-22(18)15-6-3-2-4-7-15/h2-4-6-7-12-13-16-18-22-24-25H-5-8-11-14H2-1H3

>  <threshold>


>  <reference>
R2|R2|R8|R25|R27|R46|R47|R4|R40|

>  <group>
A

>  <Class>
1

>  <ABC>
22.43

>  <ABCGG>
16.89

>  <nAcid>
0

>  <nBase>
2

>  <nAromAtom>
15

>  <nAromBond>
16

>  <nAtom>
55

>  <nHeavyAtom>
28

>  <nSpiro>
0

>  <nBridgehead>
0

>  <nHetero>
5

>  <nN>
3

>  <nO>
1

>  <nF>
0

>  <BalabanJ>
1.17

>  <BertzCT>
951.14

>  <nBonds>
59

>  <nBondsO>
32

>  <nBondsS>
43

>  <nBondsD>
0

>  <nBondsT>
0

>  <nBondsA>
16

>  <nBondsM>
16

>  <nBondsKS>
52

>  <nBondsKD>
7

>  <RNCG>
0.25

>  <RPCG>
0.06

>  <FCSP3>
0.43

>  <SZ>
35

>  <Sm>
32.77

>  <Sv>
34.49

>  <Sse>
54.38

>  <Sp>
37.97

>  <Si>
61.61

>  <MZ>
0.64

>  <Mm>
0.6

>  <Mv>
0.63

>  <Mse>
0.99

>  <Mp>
0.69

>  <Mi>
1.12

>  <NsCH3>
1

>  <NdCH2>
0

>  <NssCH2>
6

>  <NtCH>
0

>  <NdsCH>
0

>  <NaaCH>
7

>  <NsssCH>
3

>  <NddC>
0

>  <NtsC>
0

>  <NdssC>
0

>  <NaasC>
4

>  <NaaaC>
2

>  <NssssC>
0

>  <NsNH3>
0

>  <NsNH2>
0

>  <NssNH2>
0

>  <NdNH>
0

>  <NssNH>
2

>  <NaaNH>
0

>  <NtN>
0

>  <NsssNH>
0

>  <NdsN>
0

>  <NaaN>
1

>  <NsssN>
0

>  <NddsN>
0

>  <NaasN>
0

>  <NssssN>
0

>  <NsOH>
0

>  <NdO>
0

>  <NssO>
1

>  <NaaO>
0

>  <NsF>
0

>  <NsSiH3>
0

>  <NssSiH2>
0

>  <NsssSiH>
0

>  <NssssSi>
0

>  <NsPH2>
0

>  <NssPH>
0

>  <NsssP>
0

>  <NdsssP>
0

>  <NsssssP>
0

>  <NsSH>
0

>  <NdS>
0

>  <NssS>
0

>  <NaaS>
1

>  <NdssS>
0

>  <NddssS>
0

>  <NsCl>
0

>  <NsBr>
0

>  <NsI>
0

>  <fragCpx>
268.05

>  <fMF>
0.47

>  <nHBAcc>
5

>  <nHBDon>
2

>  <Kier1>
19.93

>  <Kier2>
9.01

>  <Lipinski>
1

>  <GhoseFilter>
1

>  <FilterItLogS>
-6.52

>  <VMcGowan>
302.69

>  <LabuteASA>
169.88

>  <PEOE_VSA1>
15.37

>  <PEOE_VSA2>
0

>  <PEOE_VSA3>
4.98

>  <PEOE_VSA4>
0

>  <PEOE_VSA5>
11.34

>  <PEOE_VSA6>
30.33

>  <PEOE_VSA7>
49.92

>  <PEOE_VSA8>
30.11

>  <PEOE_VSA9>
22.33

>  <PEOE_VSA10>
5.75

>  <PEOE_VSA11>
0

>  <PEOE_VSA12>
0

>  <PEOE_VSA13>
0

>  <SMR_VSA1>
4.74

>  <SMR_VSA2>
0

>  <SMR_VSA3>
15.62

>  <SMR_VSA4>
0

>  <SMR_VSA5>
50.23

>  <SMR_VSA6>
13.65

>  <SMR_VSA7>
58.6

>  <SMR_VSA8>
0

>  <SMR_VSA9>
5.75

>  <SlogP_VSA1>
15.37

>  <SlogP_VSA2>
24.68

>  <SlogP_VSA3>
6.54

>  <SlogP_VSA4>
0

>  <SlogP_VSA5>
53.78

>  <SlogP_VSA6>
42.46

>  <SlogP_VSA7>
0

>  <SlogP_VSA8>
10.22

>  <SlogP_VSA9>
0

>  <SlogP_VSA10>
0

>  <SlogP_VSA11>
5.75

>  <EState_VSA1>
0

>  <EState_VSA2>
0

>  <EState_VSA3>
18

>  <EState_VSA4>
24.36

>  <EState_VSA5>
46.52

>  <EState_VSA6>
7.11

>  <EState_VSA7>
11.34

>  <EState_VSA8>
53.1

>  <EState_VSA9>
9.72

>  <EState_VSA10>
0

>  <VSA_EState1>
6.95

>  <VSA_EState2>
4.89

>  <VSA_EState3>
8.79

>  <VSA_EState4>
3.67

>  <VSA_EState5>
1.66

>  <VSA_EState6>
15.93

>  <VSA_EState7>
4.97

>  <VSA_EState8>
1.88

>  <VSA_EState9>
1.77

>  <apol>
63.42

>  <bpol>
33.56

>  <nRing>
5

>  <nHRing>
2

>  <naRing>
3

>  <naHRing>
1

>  <nARing 2>
2

>  <nAHRing 2>
1

>  <nFRing>
1

>  <nFHRing>
1

>  <nFaRing>
1

>  <nFaHRing>
1

>  <nFARing 2>
0

>  <nFAHRing 2>
0

>  <nRot>
6

>  <SLogP>
4.77

>  <SMR>
115.19

>  <TopoPSA(NO)>
46.18

>  <TopoPSA>
74.42

>  <JGI1>
0.14

>  <JGI2>
0.06

>  <JGI3>
0.04

>  <JGI4>
0.03

>  <JGI5>
0.02

>  <Diameter>
14

>  <Radius>
7

>  <TMWC10>
137.32

>  <TSRW10>
83.17

>  <MW>
393.19

>  <AMW>
7.15

>  <WPath>
2147

>  <WPol>
44

>  <Zagreb1>
154

>  <Zagreb2>
185

>  <mZagreb2>
6.14

>  <yes>


>  <nAR-cont>
1

>  <nHA-cont>
0.82432561

>  <MWHBN>
0.353017966

>  <MWHBN-cont>
0.65892372

>  <TPSA-cont>
0.480502188

>  <pka_cont>
0.97

>  <yes.1>


>  <BBB_SCORE>
4.258715566

>  <MMFF94 Energy>
79.044

$$$$
Compound 630
Actelion Java MolfileCreator 2.0

  0  0  0  0  0  0              0 V3000
M  V30 BEGIN CTAB
M  V30 COUNTS 47 48 0 0 0
M  V30 BEGIN ATOM
M  V30 1 O -3.5414 -0.7075 -4.0143 0
M  V30 2 C -2.7405 -0.3973 -2.9507 0
M  V30 3 C -4.8831 -0.2402 -3.9625 0
M  V30 4 C -1.4398 -0.8911 -3.0312 0
M  V30 5 C -3.1068 0.3476 -1.835 0
M  V30 6 C -0.5118 -0.6513 -2.01 0
M  V30 7 C -2.1767 0.5899 -0.8161 0
M  V30 8 C -0.861 0.0941 -0.8792 0
M  V30 9 C 0.0963 0.3978 0.2857 0 CFG=2
M  V30 10 C 1.6479 0.4328 -0.0323 0
M  V30 11 C -0.2249 -0.5126 1.5149 0
M  V30 12 O 1.8777 1.0172 -1.3267 0
M  V30 13 C 2.3449 -0.9478 -0.0026 0
M  V30 14 C 2.3601 1.3717 0.9794 0
M  V30 15 N -1.4847 -0.1888 2.2235 0
M  V30 16 C 3.853 -0.8511 -0.2516 0
M  V30 17 C 3.8711 1.4606 0.7499 0
M  V30 18 C -1.3417 1.0016 3.0652 0
M  V30 19 C -1.9086 -1.3251 3.046 0
M  V30 20 C 4.5238 0.0842 0.747 0
M  V30 21 H -5.4181 -0.6675 -3.1079 0
M  V30 22 H -5.3892 -0.5756 -4.8729 0
M  V30 23 H -4.9198 0.854 -3.9456 0
M  V30 24 H -1.1383 -1.4696 -3.9011 0
M  V30 25 H -4.1054 0.7537 -1.7175 0
M  V30 26 H 0.487 -1.0498 -2.1448 0
M  V30 27 H -2.4984 1.1686 0.0484 0
M  V30 28 H -0.1413 1.4384 0.549 0
M  V30 29 H 0.593 -0.4918 2.2441 0
M  V30 30 H -0.2799 -1.5459 1.1448 0
M  V30 31 H 1.2166 1.7186 -1.4652 0
M  V30 32 H 2.1962 -1.4362 0.9667 0
M  V30 33 H 1.9297 -1.6187 -0.7584 0
M  V30 34 H 1.9515 2.3869 0.8955 0
M  V30 35 H 2.1816 1.0368 2.0074 0
M  V30 36 H 4.2998 -1.8489 -0.1733 0
M  V30 37 H 4.0422 -0.5002 -1.2731 0
M  V30 38 H 4.0732 1.9643 -0.203 0
M  V30 39 H 4.3233 2.0793 1.5336 0
M  V30 40 H -1.0915 1.8847 2.4699 0
M  V30 41 H -0.5704 0.8748 3.8336 0
M  V30 42 H -2.2891 1.2308 3.5665 0
M  V30 43 H -1.1634 -1.5856 3.8063 0
M  V30 44 H -2.0894 -2.2068 2.4211 0
M  V30 45 H -2.8557 -1.1038 3.5509 0
M  V30 46 H 4.4617 -0.3504 1.7523 0
M  V30 47 H 5.5885 0.1802 0.5065 0
M  V30 END ATOM
M  V30 BEGIN BOND
M  V30 1 1 1 2
M  V30 2 1 1 3
M  V30 3 2 2 4
M  V30 4 1 2 5
M  V30 5 1 4 6
M  V30 6 2 5 7
M  V30 7 2 6 8
M  V30 8 1 8 9
M  V30 9 1 9 10
M  V30 10 1 9 11
M  V30 11 1 10 12
M  V30 12 1 10 13
M  V30 13 1 10 14
M  V30 14 1 11 15
M  V30 15 1 13 16
M  V30 16 1 14 17
M  V30 17 1 15 18
M  V30 18 1 15 19
M  V30 19 1 16 20
M  V30 20 1 7 8
M  V30 21 1 17 20
M  V30 22 1 3 21
M  V30 23 1 3 22
M  V30 24 1 3 23
M  V30 25 1 4 24
M  V30 26 1 5 25
M  V30 27 1 6 26
M  V30 28 1 7 27
M  V30 29 1 9 28
M  V30 30 1 11 29
M  V30 31 1 11 30
M  V30 32 1 12 31
M  V30 33 1 13 32
M  V30 34 1 13 33
M  V30 35 1 14 34
M  V30 36 1 14 35
M  V30 37 1 16 36
M  V30 38 1 16 37
M  V30 39 1 17 38
M  V30 40 1 17 39
M  V30 41 1 18 40
M  V30 42 1 18 41
M  V30 43 1 18 42
M  V30 44 1 19 43
M  V30 45 1 19 44
M  V30 46 1 19 45
M  V30 47 1 20 46
M  V30 48 1 20 47
M  V30 END BOND
M  V30 BEGIN COLLECTION
M  V30 MDLV30/STERAC1 ATOMS=(1 9)
M  V30 END COLLECTION
M  V30 END CTAB
M  END
>  <Column 1>
758

>  <level_0>
866

>  <index>
866

>  <Unnamed: 0>
866

>  <NO.>
878

>  <Name>
venlafaxine

>  <IUPAC_name>
1-[2-(dimethylamino)-1-(4-methoxyphenyl)ethyl]cyclohexan-1-ol

>  <SMILES>
COc1ccc(C(CN(C)C)C2(O)CCCCC2)cc1

>  <CID>
5656

>  <logBB>
0.62

>  <BBB+/BBB->
BBB+

>  <Inchi>
InChI=1S/C17H27NO2/c1-18(2)13-16(17(19)11-5-4-6-12-17)14-7-9-15(20-3)10-8-14/h7-10-16-19H-4-6-11-13H2-1-3H3

>  <threshold>


>  <reference>
R18|R26|R27|

>  <group>
A

>  <Class>
1

>  <ABC>
15.12

>  <ABCGG>
13.11

>  <nAcid>
0

>  <nBase>
1

>  <nAromAtom>
6

>  <nAromBond>
6

>  <nAtom>
47

>  <nHeavyAtom>
20

>  <nSpiro>
0

>  <nBridgehead>
0

>  <nHetero>
3

>  <nN>
1

>  <nO>
2

>  <nF>
0

>  <BalabanJ>
2.03

>  <BertzCT>
407.5

>  <nBonds>
48

>  <nBondsO>
21

>  <nBondsS>
42

>  <nBondsD>
0

>  <nBondsT>
0

>  <nBondsA>
6

>  <nBondsM>
6

>  <nBondsKS>
45

>  <nBondsKD>
3

>  <RNCG>
0.31

>  <RPCG>
0.13

>  <FCSP3>
0.65

>  <SZ>
25.33

>  <Sm>
23.1

>  <Sv>
26.5

>  <Sse>
46.31

>  <Sp>
29.4

>  <Si>
53.32

>  <MZ>
0.54

>  <Mm>
0.49

>  <Mv>
0.56

>  <Mse>
0.99

>  <Mp>
0.63

>  <Mi>
1.13

>  <NsCH3>
3

>  <NdCH2>
0

>  <NssCH2>
6

>  <NtCH>
0

>  <NdsCH>
0

>  <NaaCH>
4

>  <NsssCH>
1

>  <NddC>
0

>  <NtsC>
0

>  <NdssC>
0

>  <NaasC>
2

>  <NaaaC>
0

>  <NssssC>
1

>  <NsNH3>
0

>  <NsNH2>
0

>  <NssNH2>
0

>  <NdNH>
0

>  <NssNH>
0

>  <NaaNH>
0

>  <NtN>
0

>  <NsssNH>
0

>  <NdsN>
0

>  <NaaN>
0

>  <NsssN>
1

>  <NddsN>
0

>  <NaasN>
0

>  <NssssN>
0

>  <NsOH>
1

>  <NdO>
0

>  <NssO>
1

>  <NaaO>
0

>  <NsF>
0

>  <NsSiH3>
0

>  <NssSiH2>
0

>  <NsssSiH>
0

>  <NssssSi>
0

>  <NsPH2>
0

>  <NssPH>
0

>  <NsssP>
0

>  <NdsssP>
0

>  <NsssssP>
0

>  <NsSH>
0

>  <NdS>
0

>  <NssS>
0

>  <NaaS>
0

>  <NdssS>
0

>  <NddssS>
0

>  <NsCl>
0

>  <NsBr>
0

>  <NsI>
0

>  <fragCpx>
61.03

>  <fMF>
0.28

>  <nHBAcc>
3

>  <nHBDon>
1

>  <Kier1>
16.37

>  <Kier2>
7.32

>  <Lipinski>
1

>  <GhoseFilter>
1

>  <FilterItLogS>
-3.56

>  <VMcGowan>
237.49

>  <LabuteASA>
122.11

>  <PEOE_VSA1>
14.74

>  <PEOE_VSA2>
0

>  <PEOE_VSA3>
0

>  <PEOE_VSA4>
0

>  <PEOE_VSA5>
0

>  <PEOE_VSA6>
31.4

>  <PEOE_VSA7>
44.63

>  <PEOE_VSA8>
12.46

>  <PEOE_VSA9>
12.71

>  <PEOE_VSA10>
5.75

>  <PEOE_VSA11>
0

>  <PEOE_VSA12>
0

>  <PEOE_VSA13>
0

>  <SMR_VSA1>
9.84

>  <SMR_VSA2>
0

>  <SMR_VSA3>
4.9

>  <SMR_VSA4>
0

>  <SMR_VSA5>
43.62

>  <SMR_VSA6>
27.75

>  <SMR_VSA7>
29.83

>  <SMR_VSA8>
0

>  <SMR_VSA9>
5.75

>  <SlogP_VSA1>
4.74

>  <SlogP_VSA2>
43.36

>  <SlogP_VSA3>
0

>  <SlogP_VSA4>
0

>  <SlogP_VSA5>
43.59

>  <SlogP_VSA6>
24.27

>  <SlogP_VSA7>
0

>  <SlogP_VSA8>
0

>  <SlogP_VSA9>
0

>  <SlogP_VSA10>
0

>  <SlogP_VSA11>
5.75

>  <EState_VSA1>
5.6

>  <EState_VSA2>
5.92

>  <EState_VSA3>
0

>  <EState_VSA4>
37.98

>  <EState_VSA5>
11.98

>  <EState_VSA6>
7.11

>  <EState_VSA7>
12.13

>  <EState_VSA8>
31.13

>  <EState_VSA9>
4.74

>  <EState_VSA10>
5.11

>  <VSA_EState1>
5.23

>  <VSA_EState2>
2.17

>  <VSA_EState3>
11.1

>  <VSA_EState4>
0.65

>  <VSA_EState5>
1.04

>  <VSA_EState6>
8.17

>  <VSA_EState7>
5.35

>  <VSA_EState8>
0.88

>  <VSA_EState9>
5.83

>  <apol>
49.1

>  <bpol>
30.53

>  <nRing>
2

>  <nHRing>
0

>  <naRing>
1

>  <naHRing>
0

>  <nARing 2>
1

>  <nAHRing 2>
0

>  <nFRing>
0

>  <nFHRing>
0

>  <nFaRing>
0

>  <nFaHRing>
0

>  <nFARing 2>
0

>  <nFAHRing 2>
0

>  <nRot>
5

>  <SLogP>
3.04

>  <SMR>
82.32

>  <TopoPSA(NO)>
32.7

>  <TopoPSA>
32.7

>  <JGI1>
0.24

>  <JGI2>
0.09

>  <JGI3>
0.05

>  <JGI4>
0.05

>  <JGI5>
0.02

>  <Diameter>
10

>  <Radius>
5

>  <TMWC10>
113.72

>  <TSRW10>
53.5

>  <MW>
277.2

>  <AMW>
5.9

>  <WPath>
792

>  <WPol>
30

>  <Zagreb1>
100

>  <Zagreb2>
115

>  <mZagreb2>
4.53

>  <yes>


>  <nAR-cont>
0.816016

>  <nHA-cont>
0.999629945

>  <MWHBN>
0.24024999

>  <MWHBN-cont>
0.974629456

>  <TPSA-cont>
0.771733695

>  <pka_cont>
0.97

>  <yes.1>


>  <BBB_SCORE>
5.306057518

>  <MMFF94 Energy>
78.116

$$$$
Compound 631
Actelion Java MolfileCreator 2.0

  0  0  0  0  0  0              0 V3000
M  V30 BEGIN CTAB
M  V30 COUNTS 50 52 0 0 0
M  V30 BEGIN ATOM
M  V30 1 F -0.1598 2.56 -5.3657 0
M  V30 2 C 0.5804 3.4138 -4.6266 0
M  V30 3 F -0.0265 4.619 -4.5842 0
M  V30 4 F 1.776 3.5679 -5.238 0
M  V30 5 O 0.8011 2.9044 -3.3228 0
M  V30 6 C -0.2917 2.6637 -2.54 0
M  V30 7 C 0.0093 2.146 -1.2736 0
M  V30 8 C -1.6242 2.8883 -2.8836 0
M  V30 9 C -1.0008 1.8355 -0.3462 0
M  V30 10 C -2.6411 2.5912 -1.9723 0
M  V30 11 C -2.3312 2.0526 -0.7222 0
M  V30 12 C -0.6378 1.2726 1.0056 0
M  V30 13 O -3.339 1.8128 0.1745 0
M  V30 14 N -0.81 -0.1828 1.1243 0
M  V30 15 C -4.0616 0.636 -0.1889 0
M  V30 16 C 0.2045 -0.9628 0.3819 0
M  V30 17 C 0.8148 -2.1388 1.236 0
M  V30 18 C -0.46 -1.5524 -0.8748 0
M  V30 19 N 1.7332 -2.9893 0.4554 0
M  V30 20 C 1.5305 -1.6467 2.4915 0
M  V30 21 C 0.5128 -2.4519 -1.6319 0
M  V30 22 C 1.0744 -3.5423 -0.7256 0
M  V30 23 C 1.1836 -2.1809 3.7435 0
M  V30 24 C 2.5454 -0.6767 2.4374 0
M  V30 25 C 1.8155 -1.7413 4.9083 0
M  V30 26 C 3.1761 -0.2379 3.6038 0
M  V30 27 C 2.8088 -0.7676 4.8385 0
M  V30 28 H 1.0514 1.9811 -1.0066 0
M  V30 29 H -1.9169 3.3014 -3.8443 0
M  V30 30 H -3.6761 2.7922 -2.2358 0
M  V30 31 H -1.275 1.7544 1.7582 0
M  V30 32 H 0.3846 1.5612 1.2817 0
M  V30 33 H -0.7283 -0.4007 2.119 0
M  V30 34 H -4.7204 0.8349 -1.0406 0
M  V30 35 H -4.6872 0.3516 0.6625 0
M  V30 36 H -3.3941 -0.203 -0.4139 0
M  V30 37 H 1.0318 -0.3161 0.0629 0
M  V30 38 H -0.0217 -2.7745 1.5616 0
M  V30 39 H -1.345 -2.1388 -0.5933 0
M  V30 40 H -0.8075 -0.7609 -1.5469 0
M  V30 41 H 2.5343 -2.4302 0.1671 0
M  V30 42 H 1.3324 -1.8464 -2.0387 0
M  V30 43 H 2.0E-4 -2.9107 -2.485 0
M  V30 44 H 1.8005 -4.1418 -1.2855 0
M  V30 45 H 0.2765 -4.2287 -0.4175 0
M  V30 46 H 0.4187 -2.9512 3.8182 0
M  V30 47 H 2.8597 -0.256 1.4862 0
M  V30 48 H 1.5361 -2.1648 5.8695 0
M  V30 49 H 3.9594 0.5134 3.5479 0
M  V30 50 H 3.303 -0.4289 5.7452 0
M  V30 END ATOM
M  V30 BEGIN BOND
M  V30 1 1 1 2
M  V30 2 1 2 3
M  V30 3 1 2 4
M  V30 4 1 2 5
M  V30 5 1 5 6
M  V30 6 2 6 7
M  V30 7 1 6 8
M  V30 8 1 7 9
M  V30 9 2 8 10
M  V30 10 2 9 11
M  V30 11 1 9 12
M  V30 12 1 11 13
M  V30 13 1 12 14
M  V30 14 1 13 15
M  V30 15 1 14 16
M  V30 16 1 16 17
M  V30 17 1 16 18
M  V30 18 1 17 19
M  V30 19 1 17 20
M  V30 20 1 18 21
M  V30 21 1 19 22
M  V30 22 2 20 23
M  V30 23 1 20 24
M  V30 24 1 23 25
M  V30 25 2 24 26
M  V30 26 2 25 27
M  V30 27 1 10 11
M  V30 28 1 21 22
M  V30 29 1 26 27
M  V30 30 1 7 28
M  V30 31 1 8 29
M  V30 32 1 10 30
M  V30 33 1 12 31
M  V30 34 1 12 32
M  V30 35 1 14 33
M  V30 36 1 15 34
M  V30 37 1 15 35
M  V30 38 1 15 36
M  V30 39 1 16 37
M  V30 40 1 17 38
M  V30 41 1 18 39
M  V30 42 1 18 40
M  V30 43 1 19 41
M  V30 44 1 21 42
M  V30 45 1 21 43
M  V30 46 1 22 44
M  V30 47 1 22 45
M  V30 48 1 23 46
M  V30 49 1 24 47
M  V30 50 1 25 48
M  V30 51 1 26 49
M  V30 52 1 27 50
M  V30 END BOND
M  V30 END CTAB
M  END
>  <Column 1>
759

>  <level_0>
867

>  <index>
867

>  <Unnamed: 0>
867

>  <NO.>
879

>  <Name>
145877-52-7

>  <IUPAC_name>
n-[[2-methoxy-5-(trifluoromethoxy)phenyl]methyl]-2-phenylpiperidin-3-amine

>  <SMILES>
COc1ccc(OC(F)(F)F)cc1CNC1CCCNC1c1ccccc1

>  <CID>
9864647

>  <logBB>
0.63

>  <BBB+/BBB->
BBB+

>  <Inchi>
InChI=1S/C20H23F3N2O2/c1-26-18-10-9-16(27-20(21-22)23)12-15(18)13-25-17-8-5-11-24-19(17)14-6-3-2-4-7-14/h2-4-6-7-9-10-12-17-19-24-25H-5-8-11-13H2-1H3

>  <threshold>


>  <reference>
R2|R2|R8|R27|R47|R4|R40|

>  <group>
A

>  <Class>
1

>  <ABC>
20.86

>  <ABCGG>
16.44

>  <nAcid>
0

>  <nBase>
2

>  <nAromAtom>
12

>  <nAromBond>
12

>  <nAtom>
50

>  <nHeavyAtom>
27

>  <nSpiro>
0

>  <nBridgehead>
0

>  <nHetero>
7

>  <nN>
2

>  <nO>
2

>  <nF>
3

>  <BalabanJ>
1.54

>  <BertzCT>
737.75

>  <nBonds>
52

>  <nBondsO>
29

>  <nBondsS>
40

>  <nBondsD>
0

>  <nBondsT>
0

>  <nBondsA>
12

>  <nBondsM>
12

>  <nBondsKS>
46

>  <nBondsKD>
6

>  <RNCG>
0.21

>  <RPCG>
0.24

>  <FCSP3>
0.4

>  <SZ>
33.33

>  <Sm>
31.67

>  <Sv>
31.12

>  <Sse>
51.07

>  <Sp>
32.46

>  <Si>
57.42

>  <MZ>
0.67

>  <Mm>
0.63

>  <Mv>
0.62

>  <Mse>
1.02

>  <Mp>
0.65

>  <Mi>
1.15

>  <NsCH3>
1

>  <NdCH2>
0

>  <NssCH2>
4

>  <NtCH>
0

>  <NdsCH>
0

>  <NaaCH>
8

>  <NsssCH>
2

>  <NddC>
0

>  <NtsC>
0

>  <NdssC>
0

>  <NaasC>
4

>  <NaaaC>
0

>  <NssssC>
1

>  <NsNH3>
0

>  <NsNH2>
0

>  <NssNH2>
0

>  <NdNH>
0

>  <NssNH>
2

>  <NaaNH>
0

>  <NtN>
0

>  <NsssNH>
0

>  <NdsN>
0

>  <NaaN>
0

>  <NsssN>
0

>  <NddsN>
0

>  <NaasN>
0

>  <NssssN>
0

>  <NsOH>
0

>  <NdO>
0

>  <NssO>
2

>  <NaaO>
0

>  <NsF>
3

>  <NsSiH3>
0

>  <NssSiH2>
0

>  <NsssSiH>
0

>  <NssssSi>
0

>  <NsPH2>
0

>  <NssPH>
0

>  <NsssP>
0

>  <NdsssP>
0

>  <NsssssP>
0

>  <NsSH>
0

>  <NdS>
0

>  <NssS>
0

>  <NaaS>
0

>  <NdssS>
0

>  <NddssS>
0

>  <NsCl>
0

>  <NsBr>
0

>  <NsI>
0

>  <fragCpx>
139.07

>  <fMF>
0.4

>  <nHBAcc>
4

>  <nHBDon>
2

>  <Kier1>
21.7

>  <Kier2>
10.16

>  <Lipinski>
1

>  <GhoseFilter>
1

>  <FilterItLogS>
-5.83

>  <VMcGowan>
271.26

>  <LabuteASA>
156.23

>  <PEOE_VSA1>
20.11

>  <PEOE_VSA2>
0

>  <PEOE_VSA3>
0

>  <PEOE_VSA4>
0

>  <PEOE_VSA5>
13.17

>  <PEOE_VSA6>
30.33

>  <PEOE_VSA7>
43.15

>  <PEOE_VSA8>
24.19

>  <PEOE_VSA9>
7.11

>  <PEOE_VSA10>
11.5

>  <PEOE_VSA11>
0

>  <PEOE_VSA12>
0

>  <PEOE_VSA13>
0

>  <SMR_VSA1>
22.64

>  <SMR_VSA2>
0

>  <SMR_VSA3>
10.63

>  <SMR_VSA4>
0

>  <SMR_VSA5>
37.83

>  <SMR_VSA6>
13.65

>  <SMR_VSA7>
59.66

>  <SMR_VSA8>
0

>  <SMR_VSA9>
11.5

>  <SlogP_VSA1>
20.11

>  <SlogP_VSA2>
26.06

>  <SlogP_VSA3>
6.54

>  <SlogP_VSA4>
0

>  <SlogP_VSA5>
30.01

>  <SlogP_VSA6>
48.53

>  <SlogP_VSA7>
0

>  <SlogP_VSA8>
0

>  <SlogP_VSA9>
0

>  <SlogP_VSA10>
13.17

>  <SlogP_VSA11>
11.5

>  <EState_VSA1>
6.36

>  <EState_VSA2>
17.83

>  <EState_VSA3>
17.86

>  <EState_VSA4>
19.39

>  <EState_VSA5>
30.87

>  <EState_VSA6>
0

>  <EState_VSA7>
18.2

>  <EState_VSA8>
27.5

>  <EState_VSA9>
4.74

>  <EState_VSA10>
13.17

>  <VSA_EState1>
46.8

>  <VSA_EState2>
0

>  <VSA_EState3>
7

>  <VSA_EState4>
1.81

>  <VSA_EState5>
0.28

>  <VSA_EState6>
14.58

>  <VSA_EState7>
-2.7

>  <VSA_EState8>
1.32

>  <VSA_EState9>
1.5

>  <apol>
54.21

>  <bpol>
31.02

>  <nRing>
3

>  <nHRing>
1

>  <naRing>
2

>  <naHRing>
0

>  <nARing 2>
1

>  <nAHRing 2>
1

>  <nFRing>
0

>  <nFHRing>
0

>  <nFaRing>
0

>  <nFaHRing>
0

>  <nFARing 2>
0

>  <nFAHRing 2>
0

>  <nRot>
6

>  <SLogP>
4.18

>  <SMR>
96.72

>  <TopoPSA(NO)>
42.52

>  <TopoPSA>
42.52

>  <JGI1>
0.21

>  <JGI2>
0.07

>  <JGI3>
0.04

>  <JGI4>
0.03

>  <JGI5>
0.02

>  <Diameter>
13

>  <Radius>
7

>  <TMWC10>
131.05

>  <TSRW10>
61.93

>  <MW>
380.17

>  <AMW>
7.6

>  <WPath>
1962

>  <WPol>
39

>  <Zagreb1>
138

>  <Zagreb2>
157

>  <mZagreb2>
5.96

>  <yes>


>  <nAR-cont>
0.816016

>  <nHA-cont>
0.860070871

>  <MWHBN>
0.30772468

>  <MWHBN-cont>
0.817062357

>  <TPSA-cont>
0.703183997

>  <pka_cont>
0.97

>  <yes.1>


>  <BBB_SCORE>
4.7930484

>  <MMFF94 Energy>
78.526

$$$$
Compound 632
Actelion Java MolfileCreator 2.0

  0  0  0  0  0  0              0 V3000
M  V30 BEGIN CTAB
M  V30 COUNTS 59 62 0 0 0
M  V30 BEGIN ATOM
M  V30 1 O 2.6075 -1.1055 0.3157 0
M  V30 2 C 2.2748 -2.3178 0.8522 0
M  V30 3 C 1.2371 -3.0752 0.3098 0
M  V30 4 C 2.9798 -2.8181 1.9411 0
M  V30 5 N 0.9087 -4.3025 0.802 0
M  V30 6 C 0.421 -2.5783 -0.8525 0
M  V30 7 C 2.6345 -4.0629 2.4598 0
M  V30 8 C 1.598 -4.7745 1.8669 0
M  V30 9 N -0.7679 -1.8682 -0.4133 0
M  V30 10 C 1.2 -6.1167 2.4031 0
M  V30 11 C -0.8935 -0.507 -0.2408 0
M  V30 12 C -2.0088 -2.4386 -0.2151 0
M  V30 13 N -2.1416 -0.178 -0.0034 0
M  V30 14 N 0.1636 0.3258 -0.3189 0
M  V30 15 C -2.8473 -1.3558 0.0292 0
M  V30 16 C -2.4635 -3.7622 -0.2302 0
M  V30 17 C -0.0225 1.7646 -0.1824 0
M  V30 18 C -4.2218 -1.5662 0.2645 0
M  V30 19 C -3.8243 -3.9686 0.0071 0
M  V30 20 C 1.2834 2.403 0.2992 0
M  V30 21 C -0.4483 2.3734 -1.5197 0
M  V30 22 C -4.6865 -2.8968 0.2467 0
M  V30 23 C -5.1857 -0.4489 0.533 0
M  V30 24 C 1.1651 3.9268 0.3217 0
M  V30 25 C -0.5057 3.8973 -1.4232 0
M  V30 26 N 0.7475 4.5178 -0.9595 0
M  V30 27 C 1.795 4.4734 -2.0029 0
M  V30 28 C 3.0013 5.395 -1.7063 0
M  V30 29 N 2.5815 6.7309 -1.2659 0
M  V30 30 H 3.3299 -0.7262 0.8477 0
M  V30 31 H 3.7917 -2.2612 2.3975 0
M  V30 32 H 0.0984 -3.4252 -1.4698 0
M  V30 33 H 1.0 -1.9298 -1.5184 0
M  V30 34 H 3.1679 -4.469 3.3135 0
M  V30 35 H 2.0433 -6.8118 2.3461 0
M  V30 36 H 0.8767 -6.0269 3.4449 0
M  V30 37 H 0.3714 -6.5373 1.8242 0
M  V30 38 H 1.119 -0.0192 -0.378 0
M  V30 39 H -1.7921 -4.5973 -0.4017 0
M  V30 40 H -0.792 1.9751 0.5735 0
M  V30 41 H -4.2172 -4.983 0.0088 0
M  V30 42 H 2.1215 2.0978 -0.3396 0
M  V30 43 H 1.5219 2.0404 1.307 0
M  V30 44 H 0.2415 2.0678 -2.3165 0
M  V30 45 H -1.436 1.9948 -1.8101 0
M  V30 46 H -5.7406 -3.0986 0.428 0
M  V30 47 H -5.9779 -0.4452 -0.2224 0
M  V30 48 H -4.6883 0.5255 0.5053 0
M  V30 49 H -5.6367 -0.5706 1.523 0
M  V30 50 H 0.4277 4.2125 1.0839 0
M  V30 51 H 2.1086 4.3629 0.6672 0
M  V30 52 H -1.3075 4.1813 -0.7286 0
M  V30 53 H -0.8017 4.3191 -2.3915 0
M  V30 54 H 1.358 4.8267 -2.9466 0
M  V30 55 H 2.1554 3.4555 -2.1877 0
M  V30 56 H 3.6227 5.4888 -2.6033 0
M  V30 57 H 3.6298 4.952 -0.9267 0
M  V30 58 H 2.0713 7.1738 -2.0306 0
M  V30 59 H 1.8519 6.5797 -0.5602 0
M  V30 END ATOM
M  V30 BEGIN BOND
M  V30 1 1 1 2
M  V30 2 2 2 3
M  V30 3 1 2 4
M  V30 4 1 3 5
M  V30 5 1 3 6
M  V30 6 2 4 7
M  V30 7 2 5 8
M  V30 8 1 6 9
M  V30 9 1 8 10
M  V30 10 1 9 11
M  V30 11 1 9 12
M  V30 12 2 11 13
M  V30 13 1 11 14
M  V30 14 2 12 15
M  V30 15 1 12 16
M  V30 16 1 14 17
M  V30 17 1 15 18
M  V30 18 2 16 19
M  V30 19 1 17 20
M  V30 20 1 17 21
M  V30 21 2 18 22
M  V30 22 1 18 23
M  V30 23 1 20 24
M  V30 24 1 21 25
M  V30 25 1 24 26
M  V30 26 1 26 27
M  V30 27 1 27 28
M  V30 28 1 28 29
M  V30 29 1 7 8
M  V30 30 1 13 15
M  V30 31 1 19 22
M  V30 32 1 25 26
M  V30 33 1 1 30
M  V30 34 1 4 31
M  V30 35 1 6 32
M  V30 36 1 6 33
M  V30 37 1 7 34
M  V30 38 1 10 35
M  V30 39 1 10 36
M  V30 40 1 10 37
M  V30 41 1 14 38
M  V30 42 1 16 39
M  V30 43 1 17 40
M  V30 44 1 19 41
M  V30 45 1 20 42
M  V30 46 1 20 43
M  V30 47 1 21 44
M  V30 48 1 21 45
M  V30 49 1 22 46
M  V30 50 1 23 47
M  V30 51 1 23 48
M  V30 52 1 23 49
M  V30 53 1 24 50
M  V30 54 1 24 51
M  V30 55 1 25 52
M  V30 56 1 25 53
M  V30 57 1 27 54
M  V30 58 1 27 55
M  V30 59 1 28 56
M  V30 60 1 28 57
M  V30 61 1 29 58
M  V30 62 1 29 59
M  V30 END BOND
M  V30 END CTAB
M  END
>  <Column 1>
760

>  <level_0>
868

>  <index>
868

>  <Unnamed: 0>
868

>  <NO.>
880

>  <Name>
jnj-2408068

>  <IUPAC_name>
2-[[2-[[1-(2-aminoethyl)piperidin-4-yl]amino]-4-methylbenzimidazol-1-yl]methyl]-6-methylpyridin-3-ol

>  <SMILES>
Cc1ccc(O)c(Cn2c(NC3CCN(CCN)CC3)nc3c(C)cccc32)n1

>  <CID>
511013

>  <logBB>
0.63

>  <BBB+/BBB->
BBB+

>  <Inchi>
InChI=1S/C22H30N6O/c1-15-4-3-5-19-21(15)26-22(25-17-8-11-27(12-9-17)13-10-23)28(19)14-18-20(29)7-6-16(2)24-18/h3-7-17-29H-8-14-23H2-1-2H3-(H-25-26)

>  <threshold>


>  <reference>
R47|

>  <group>
A

>  <Class>
1

>  <ABC>
22.75

>  <ABCGG>
17.49

>  <nAcid>
0

>  <nBase>
2

>  <nAromAtom>
15

>  <nAromBond>
16

>  <nAtom>
59

>  <nHeavyAtom>
29

>  <nSpiro>
0

>  <nBridgehead>
0

>  <nHetero>
7

>  <nN>
6

>  <nO>
1

>  <nF>
0

>  <BalabanJ>
1.41

>  <BertzCT>
990.38

>  <nBonds>
62

>  <nBondsO>
32

>  <nBondsS>
46

>  <nBondsD>
0

>  <nBondsT>
0

>  <nBondsA>
16

>  <nBondsM>
16

>  <nBondsKS>
55

>  <nBondsKD>
7

>  <RNCG>
0.2

>  <RPCG>
0.11

>  <FCSP3>
0.45

>  <SZ>
35.33

>  <Sm>
32.85

>  <Sv>
35.39

>  <Sse>
58.63

>  <Sp>
38.41

>  <Si>
67.18

>  <MZ>
0.6

>  <Mm>
0.56

>  <Mv>
0.6

>  <Mse>
0.99

>  <Mp>
0.65

>  <Mi>
1.14

>  <NsCH3>
2

>  <NdCH2>
0

>  <NssCH2>
7

>  <NtCH>
0

>  <NdsCH>
0

>  <NaaCH>
5

>  <NsssCH>
1

>  <NddC>
0

>  <NtsC>
0

>  <NdssC>
0

>  <NaasC>
5

>  <NaaaC>
2

>  <NssssC>
0

>  <NsNH3>
0

>  <NsNH2>
1

>  <NssNH2>
0

>  <NdNH>
0

>  <NssNH>
1

>  <NaaNH>
0

>  <NtN>
0

>  <NsssNH>
0

>  <NdsN>
0

>  <NaaN>
2

>  <NsssN>
1

>  <NddsN>
0

>  <NaasN>
1

>  <NssssN>
0

>  <NsOH>
1

>  <NdO>
0

>  <NssO>
0

>  <NaaO>
0

>  <NsF>
0

>  <NsSiH3>
0

>  <NssSiH2>
0

>  <NsssSiH>
0

>  <NssssSi>
0

>  <NsPH2>
0

>  <NssPH>
0

>  <NsssP>
0

>  <NdsssP>
0

>  <NsssssP>
0

>  <NsSH>
0

>  <NdS>
0

>  <NssS>
0

>  <NaaS>
0

>  <NdssS>
0

>  <NddssS>
0

>  <NsCl>
0

>  <NsBr>
0

>  <NsI>
0

>  <fragCpx>
212.07

>  <fMF>
0.39

>  <nHBAcc>
7

>  <nHBDon>
3

>  <Kier1>
22.2

>  <Kier2>
10.08

>  <Lipinski>
1

>  <GhoseFilter>
1

>  <FilterItLogS>
-5

>  <VMcGowan>
313.05

>  <LabuteASA>
171.12

>  <PEOE_VSA1>
25.62

>  <PEOE_VSA2>
4.98

>  <PEOE_VSA3>
4.98

>  <PEOE_VSA4>
0

>  <PEOE_VSA5>
0

>  <PEOE_VSA6>
12.13

>  <PEOE_VSA7>
50.45

>  <PEOE_VSA8>
37.91

>  <PEOE_VSA9>
17.58

>  <PEOE_VSA10>
11.44

>  <PEOE_VSA11>
0

>  <PEOE_VSA12>
5.95

>  <PEOE_VSA13>
0

>  <SMR_VSA1>
5.11

>  <SMR_VSA2>
0

>  <SMR_VSA3>
19.43

>  <SMR_VSA4>
5.73

>  <SMR_VSA5>
39.28

>  <SMR_VSA6>
31.5

>  <SMR_VSA7>
47.28

>  <SMR_VSA8>
0

>  <SMR_VSA9>
5.75

>  <SlogP_VSA1>
11.05

>  <SlogP_VSA2>
56.76

>  <SlogP_VSA3>
6.54

>  <SlogP_VSA4>
13.85

>  <SlogP_VSA5>
29.79

>  <SlogP_VSA6>
30.33

>  <SlogP_VSA7>
0

>  <SlogP_VSA8>
11.03

>  <SlogP_VSA9>
0

>  <SlogP_VSA10>
5.95

>  <SlogP_VSA11>
5.75

>  <EState_VSA1>
0

>  <EState_VSA2>
5.75

>  <EState_VSA3>
24.83

>  <EState_VSA4>
60.72

>  <EState_VSA5>
0

>  <EState_VSA6>
6.07

>  <EState_VSA7>
12.99

>  <EState_VSA8>
44.89

>  <EState_VSA9>
10.72

>  <EState_VSA10>
5.11

>  <VSA_EState1>
2.14

>  <VSA_EState2>
11.89

>  <VSA_EState3>
13.99

>  <VSA_EState4>
10.42

>  <VSA_EState5>
1.06

>  <VSA_EState6>
10.12

>  <VSA_EState7>
2.13

>  <VSA_EState8>
8.26

>  <VSA_EState9>
0

>  <apol>
64.15

>  <bpol>
35.8

>  <nRing>
4

>  <nHRing>
3

>  <naRing>
3

>  <naHRing>
2

>  <nARing 2>
1

>  <nAHRing 2>
1

>  <nFRing>
1

>  <nFHRing>
1

>  <nFaRing>
1

>  <nFaHRing>
1

>  <nFARing 2>
0

>  <nFAHRing 2>
0

>  <nRot>
6

>  <SLogP>
2.64

>  <SMR>
116.35

>  <TopoPSA(NO)>
92.23

>  <TopoPSA>
92.23

>  <JGI1>
0.19

>  <JGI2>
0.07

>  <JGI3>
0.04

>  <JGI4>
0.04

>  <JGI5>
0.02

>  <Diameter>
14

>  <Radius>
7

>  <TMWC10>
138.15

>  <TSRW10>
78.91

>  <MW>
394.25

>  <AMW>
6.68

>  <WPath>
2281

>  <WPol>
46

>  <Zagreb1>
154

>  <Zagreb2>
182

>  <mZagreb2>
6.39

>  <yes>


>  <nAR-cont>
0.816016

>  <nHA-cont>
0.785905698

>  <MWHBN>
0.503632965

>  <MWHBN-cont>
0

>  <TPSA-cont>
0.356177329

>  <pka_cont>
0.97

>  <yes.1>


>  <BBB_SCORE>
2.799276356

>  <MMFF94 Energy>
37.771

$$$$
Compound 633
Actelion Java MolfileCreator 2.0

  0  0  0  0  0  0              0 V3000
M  V30 BEGIN CTAB
M  V30 COUNTS 42 44 0 0 0
M  V30 BEGIN ATOM
M  V30 1 F 0.2447 1.5511 4.9862 0
M  V30 2 C 0.1176 2.0835 3.739 0
M  V30 3 F 0.8185 3.2546 3.7575 0
M  V30 4 F -1.1943 2.4473 3.625 0
M  V30 5 C 0.5626 1.1596 2.6116 0
M  V30 6 N 1.2425 0.0195 2.9024 0
M  V30 7 C 0.2821 1.5144 1.301 0
M  V30 8 C 1.646 -0.801 1.9192 0
M  V30 9 C 0.7 0.6877 0.2456 0
M  V30 10 C 1.3942 -0.5148 0.5526 0
M  V30 11 C 2.3289 -1.9681 2.2599 0
M  V30 12 C 0.365 1.1198 -1.1739 0
M  V30 13 C 1.8395 -1.4401 -0.422 0
M  V30 14 C 2.7639 -2.8654 1.2686 0
M  V30 15 C 2.5979 -2.2679 3.7117 0
M  V30 16 O 0.6674 2.5261 -1.287 0
M  V30 17 C -1.1319 0.9104 -1.5589 0
M  V30 18 C 2.5175 -2.6024 -0.0682 0
M  V30 19 F 3.2842 -3.4398 3.8841 0
M  V30 20 F 3.3599 -1.3243 4.3322 0
M  V30 21 F 1.4672 -2.4139 4.4572 0
M  V30 22 N -1.3563 1.4273 -2.9295 0
M  V30 23 C -1.569 -0.5609 -1.4899 0
M  V30 24 C -2.7656 1.3613 -3.3074 0
M  V30 25 C -3.0242 -0.7285 -1.9256 0
M  V30 26 C -3.2658 -0.0803 -3.2844 0
M  V30 27 H -0.2574 2.4384 1.0958 0
M  V30 28 H 1.0071 0.6298 -1.9107 0
M  V30 29 H 1.6607 -1.281 -1.4822 0
M  V30 30 H 3.2949 -3.7759 1.5438 0
M  V30 31 H 1.6271 2.6107 -1.1494 0
M  V30 32 H -1.7496 1.5056 -0.8716 0
M  V30 33 H 2.849 -3.2987 -0.8352 0
M  V30 34 H -1.0346 2.3997 -2.946 0
M  V30 35 H -1.4662 -0.9475 -0.4701 0
M  V30 36 H -0.9263 -1.1744 -2.1342 0
M  V30 37 H -2.8819 1.7658 -4.3186 0
M  V30 38 H -3.3699 1.9874 -2.6398 0
M  V30 39 H -3.283 -1.7922 -1.966 0
M  V30 40 H -3.6821 -0.2659 -1.1794 0
M  V30 41 H -2.7512 -0.6606 -4.0608 0
M  V30 42 H -4.3351 -0.1065 -3.5224 0
M  V30 END ATOM
M  V30 BEGIN BOND
M  V30 1 1 1 2
M  V30 2 1 2 3
M  V30 3 1 2 4
M  V30 4 1 2 5
M  V30 5 2 5 6
M  V30 6 1 5 7
M  V30 7 1 6 8
M  V30 8 2 7 9
M  V30 9 1 8 10
M  V30 10 2 8 11
M  V30 11 1 9 12
M  V30 12 2 10 13
M  V30 13 1 11 14
M  V30 14 1 11 15
M  V30 15 1 12 16
M  V30 16 1 12 17
M  V30 17 1 13 18
M  V30 18 1 15 19
M  V30 19 1 15 20
M  V30 20 1 15 21
M  V30 21 1 17 22
M  V30 22 1 17 23
M  V30 23 1 22 24
M  V30 24 1 23 25
M  V30 25 1 24 26
M  V30 26 1 9 10
M  V30 27 2 14 18
M  V30 28 1 25 26
M  V30 29 1 7 27
M  V30 30 1 12 28
M  V30 31 1 13 29
M  V30 32 1 14 30
M  V30 33 1 16 31
M  V30 34 1 17 32
M  V30 35 1 18 33
M  V30 36 1 22 34
M  V30 37 1 23 35
M  V30 38 1 23 36
M  V30 39 1 24 37
M  V30 40 1 24 38
M  V30 41 1 25 39
M  V30 42 1 25 40
M  V30 43 1 26 41
M  V30 44 1 26 42
M  V30 END BOND
M  V30 END CTAB
M  END
>  <Column 1>
761

>  <level_0>
869

>  <index>
869

>  <Unnamed: 0>
869

>  <NO.>
881

>  <Name>
mefloquine

>  <IUPAC_name>
[2-8-bis(trifluoromethyl)quinolin-4-yl]-piperidin-2-ylmethanol

>  <SMILES>
OC(c1cc(C(F)(F)F)nc2c(C(F)(F)F)cccc12)C1CCCCN1

>  <CID>
4046

>  <logBB>
0.63

>  <BBB+/BBB->
BBB+

>  <Inchi>
InChI=1S/C17H16F6N2O/c18-16(19-20)11-5-3-4-9-10(15(26)12-6-1-2-7-24-12)8-13(17(21-22)23)25-14(9)11/h3-5-8-12-15-24-26H-1-2-6-7H2

>  <threshold>


>  <reference>
R2|R2|R3|R8|R18|R21|R25|R26|R27|R27|R27|R38|R41|R43|R47|R40|

>  <group>
A

>  <Class>
1

>  <ABC>
20.54

>  <ABCGG>
17.07

>  <nAcid>
0

>  <nBase>
1

>  <nAromAtom>
10

>  <nAromBond>
11

>  <nAtom>
42

>  <nHeavyAtom>
26

>  <nSpiro>
0

>  <nBridgehead>
0

>  <nHetero>
9

>  <nN>
2

>  <nO>
1

>  <nF>
6

>  <BalabanJ>
1.86

>  <BertzCT>
796.17

>  <nBonds>
44

>  <nBondsO>
28

>  <nBondsS>
33

>  <nBondsD>
0

>  <nBondsT>
0

>  <nBondsA>
11

>  <nBondsM>
11

>  <nBondsKS>
39

>  <nBondsKD>
5

>  <RNCG>
0.17

>  <RPCG>
0.19

>  <FCSP3>
0.47

>  <SZ>
32.33

>  <Sm>
31.5

>  <Sv>
27.44

>  <Sse>
44.5

>  <Sp>
27.19

>  <Si>
49.4

>  <MZ>
0.77

>  <Mm>
0.75

>  <Mv>
0.65

>  <Mse>
1.06

>  <Mp>
0.65

>  <Mi>
1.18

>  <NsCH3>
0

>  <NdCH2>
0

>  <NssCH2>
4

>  <NtCH>
0

>  <NdsCH>
0

>  <NaaCH>
4

>  <NsssCH>
2

>  <NddC>
0

>  <NtsC>
0

>  <NdssC>
0

>  <NaasC>
3

>  <NaaaC>
2

>  <NssssC>
2

>  <NsNH3>
0

>  <NsNH2>
0

>  <NssNH2>
0

>  <NdNH>
0

>  <NssNH>
1

>  <NaaNH>
0

>  <NtN>
0

>  <NsssNH>
0

>  <NdsN>
0

>  <NaaN>
1

>  <NsssN>
0

>  <NddsN>
0

>  <NaasN>
0

>  <NssssN>
0

>  <NsOH>
1

>  <NdO>
0

>  <NssO>
0

>  <NaaO>
0

>  <NsF>
6

>  <NsSiH3>
0

>  <NssSiH2>
0

>  <NsssSiH>
0

>  <NssssSi>
0

>  <NsPH2>
0

>  <NssPH>
0

>  <NsssP>
0

>  <NdsssP>
0

>  <NsssssP>
0

>  <NsSH>
0

>  <NdS>
0

>  <NssS>
0

>  <NaaS>
0

>  <NdssS>
0

>  <NddssS>
0

>  <NsCl>
0

>  <NsBr>
0

>  <NsI>
0

>  <fragCpx>
134.09

>  <fMF>
0.4

>  <nHBAcc>
3

>  <nHBDon>
2

>  <Kier1>
20.73

>  <Kier2>
7.79

>  <Lipinski>
1

>  <GhoseFilter>
1

>  <FilterItLogS>
-5.49

>  <VMcGowan>
232.7

>  <LabuteASA>
144.58

>  <PEOE_VSA1>
10.42

>  <PEOE_VSA2>
0

>  <PEOE_VSA3>
4.98

>  <PEOE_VSA4>
26.34

>  <PEOE_VSA5>
0

>  <PEOE_VSA6>
18.55

>  <PEOE_VSA7>
37.08

>  <PEOE_VSA8>
11.43

>  <PEOE_VSA9>
17.18

>  <PEOE_VSA10>
5.69

>  <PEOE_VSA11>
0

>  <PEOE_VSA12>
0

>  <PEOE_VSA13>
0

>  <SMR_VSA1>
31.45

>  <SMR_VSA2>
0

>  <SMR_VSA3>
10.3

>  <SMR_VSA4>
0

>  <SMR_VSA5>
43.76

>  <SMR_VSA6>
6.54

>  <SMR_VSA7>
41.09

>  <SMR_VSA8>
0

>  <SMR_VSA9>
0

>  <SlogP_VSA1>
5.32

>  <SlogP_VSA2>
22.68

>  <SlogP_VSA3>
12.35

>  <SlogP_VSA4>
0

>  <SlogP_VSA5>
42.19

>  <SlogP_VSA6>
24.27

>  <SlogP_VSA7>
0

>  <SlogP_VSA8>
10.9

>  <SlogP_VSA9>
0

>  <SlogP_VSA10>
26.34

>  <SlogP_VSA11>
0

>  <EState_VSA1>
41.27

>  <EState_VSA2>
10.95

>  <EState_VSA3>
25.1

>  <EState_VSA4>
18.91

>  <EState_VSA5>
6.07

>  <EState_VSA6>
0

>  <EState_VSA7>
0

>  <EState_VSA8>
10.3

>  <EState_VSA9>
0

>  <EState_VSA10>
31.45

>  <VSA_EState1>
79.28

>  <VSA_EState2>
3.22

>  <VSA_EState3>
13.47

>  <VSA_EState4>
-3.72

>  <VSA_EState5>
0

>  <VSA_EState6>
3.16

>  <VSA_EState7>
-9

>  <VSA_EState8>
0.59

>  <VSA_EState9>
0

>  <apol>
45.4

>  <bpol>
24.44

>  <nRing>
3

>  <nHRing>
2

>  <naRing>
2

>  <naHRing>
1

>  <nARing 2>
1

>  <nAHRing 2>
1

>  <nFRing>
1

>  <nFHRing>
1

>  <nFaRing>
1

>  <nFaHRing>
1

>  <nFARing 2>
0

>  <nFAHRing 2>
0

>  <nRot>
2

>  <SLogP>
4.45

>  <SMR>
82.35

>  <TopoPSA(NO)>
45.15

>  <TopoPSA>
45.15

>  <JGI1>
0.27

>  <JGI2>
0.09

>  <JGI3>
0.06

>  <JGI4>
0.05

>  <JGI5>
0.04

>  <Diameter>
10

>  <Radius>
5

>  <TMWC10>
131.08

>  <TSRW10>
61.56

>  <MW>
378.12

>  <AMW>
9

>  <WPath>
1491

>  <WPol>
45

>  <Zagreb1>
142

>  <Zagreb2>
168

>  <mZagreb2>
5.39

>  <yes>


>  <nAR-cont>
0.816016

>  <nHA-cont>
0.892715677

>  <MWHBN>
0.257131439

>  <MWHBN-cont>
0.946994834

>  <TPSA-cont>
0.684824964

>  <pka_cont>
0.97

>  <yes.1>


>  <BBB_SCORE>
4.983873856

>  <MMFF94 Energy>
126.27

$$$$
Compound 634
Actelion Java MolfileCreator 2.0

  0  0  0  0  0  0              0 V3000
M  V30 BEGIN CTAB
M  V30 COUNTS 40 40 0 0 0
M  V30 BEGIN ATOM
M  V30 1 I -1.4966 -4.4952 1.2602 0
M  V30 2 C -1.2525 -2.4745 0.7106 0
M  V30 3 C -0.0123 -1.8213 0.8418 0
M  V30 4 C -2.3765 -1.8131 0.21 0
M  V30 5 N 1.0851 -2.4933 1.3537 0
M  V30 6 C 0.033 -0.4738 0.445 0
M  V30 7 C -2.2844 -0.4751 -0.1744 0
M  V30 8 C 2.4295 -1.982 1.5681 0
M  V30 9 C -1.0793 0.2187 -0.0745 0
M  V30 10 C 3.378 -2.5078 0.4796 0
M  V30 11 C 2.8989 -2.4643 2.9442 0
M  V30 12 N -0.9283 1.5494 -0.4212 0
M  V30 13 C 3.0896 -1.9346 -0.9009 0
M  V30 14 C -1.967 2.4158 -0.9684 0
M  V30 15 C -1.6191 3.8695 -0.5931 0
M  V30 16 C -2.0425 2.2191 -2.4824 0
M  V30 17 C -2.6986 4.8714 -0.9765 0
M  V30 18 H -3.3307 -2.3237 0.1138 0
M  V30 19 H 0.9357 -3.4791 1.5518 0
M  V30 20 H 0.964 0.0761 0.5291 0
M  V30 21 H -3.178 0.0048 -0.5596 0
M  V30 22 H 2.4613 -0.8885 1.5916 0
M  V30 23 H 4.4106 -2.2505 0.7457 0
M  V30 24 H 3.3269 -3.6025 0.4265 0
M  V30 25 H 2.9192 -3.5585 3.0005 0
M  V30 26 H 3.905 -2.0932 3.1656 0
M  V30 27 H 2.2257 -2.1052 3.7307 0
M  V30 28 H 0.0148 1.9212 -0.4094 0
M  V30 29 H 3.8431 -2.2813 -1.6152 0
M  V30 30 H 3.117 -0.8406 -0.886 0
M  V30 31 H 2.1113 -2.2539 -1.2717 0
M  V30 32 H -2.9378 2.1843 -0.5153 0
M  V30 33 H -0.6704 4.1658 -1.0581 0
M  V30 34 H -1.4624 3.9314 0.4917 0
M  V30 35 H -2.2275 1.1704 -2.7379 0
M  V30 36 H -1.1049 2.5129 -2.9671 0
M  V30 37 H -2.8533 2.8083 -2.921 0
M  V30 38 H -3.6662 4.5899 -0.5494 0
M  V30 39 H -2.8073 4.9497 -2.0619 0
M  V30 40 H -2.4386 5.8655 -0.5984 0
M  V30 END ATOM
M  V30 BEGIN BOND
M  V30 1 1 1 2
M  V30 2 2 2 3
M  V30 3 1 2 4
M  V30 4 1 3 5
M  V30 5 1 3 6
M  V30 6 2 4 7
M  V30 7 1 5 8
M  V30 8 2 6 9
M  V30 9 1 8 10
M  V30 10 1 8 11
M  V30 11 1 9 12
M  V30 12 1 10 13
M  V30 13 1 12 14
M  V30 14 1 14 15
M  V30 15 1 14 16
M  V30 16 1 15 17
M  V30 17 1 7 9
M  V30 18 1 4 18
M  V30 19 1 5 19
M  V30 20 1 6 20
M  V30 21 1 7 21
M  V30 22 1 8 22
M  V30 23 1 10 23
M  V30 24 1 10 24
M  V30 25 1 11 25
M  V30 26 1 11 26
M  V30 27 1 11 27
M  V30 28 1 12 28
M  V30 29 1 13 29
M  V30 30 1 13 30
M  V30 31 1 13 31
M  V30 32 1 14 32
M  V30 33 1 15 33
M  V30 34 1 15 34
M  V30 35 1 16 35
M  V30 36 1 16 36
M  V30 37 1 16 37
M  V30 38 1 17 38
M  V30 39 1 17 39
M  V30 40 1 17 40
M  V30 END BOND
M  V30 END CTAB
M  END
>  <Column 1>
762

>  <level_0>
870

>  <index>
870

>  <Unnamed: 0>
870

>  <NO.>
882

>  <Name>
4-iodo-n-n'-isopropyl-m- xylenediamine

>  <IUPAC_name>


>  <SMILES>
CCC(C)Nc1ccc(I)c(NC(C)CC)c1

>  <CID>


>  <logBB>
0.64

>  <BBB+/BBB->
BBB+

>  <Inchi>
InChI=1S/C14H23IN2/c1-5-10(3)16-12-7-8-13(15)14(9-12)17-11(4)6-2/h7-11-16-17H-5-6H2-1-4H3

>  <threshold>


>  <reference>
R2|R2|R8|R27|R40|R3|R25|R38|R41|R43|R46|R47|

>  <group>
A

>  <Class>
1

>  <ABC>
12.31

>  <ABCGG>
11.23

>  <nAcid>
0

>  <nBase>
0

>  <nAromAtom>
6

>  <nAromBond>
6

>  <nAtom>
40

>  <nHeavyAtom>
17

>  <nSpiro>
0

>  <nBridgehead>
0

>  <nHetero>
3

>  <nN>
2

>  <nO>
0

>  <nF>
0

>  <BalabanJ>
2.41

>  <BertzCT>
352.08

>  <nBonds>
40

>  <nBondsO>
17

>  <nBondsS>
34

>  <nBondsD>
0

>  <nBondsT>
0

>  <nBondsA>
6

>  <nBondsM>
6

>  <nBondsKS>
37

>  <nBondsKD>
3

>  <RNCG>
0.32

>  <RPCG>
0.13

>  <FCSP3>
0.57

>  <SZ>
29

>  <Sm>
28.83

>  <Sv>
23.33

>  <Sse>
39.05

>  <Sp>
27.7

>  <Si>
45.29

>  <MZ>
0.73

>  <Mm>
0.72

>  <Mv>
0.58

>  <Mse>
0.98

>  <Mp>
0.69

>  <Mi>
1.13

>  <NsCH3>
4

>  <NdCH2>
0

>  <NssCH2>
2

>  <NtCH>
0

>  <NdsCH>
0

>  <NaaCH>
3

>  <NsssCH>
2

>  <NddC>
0

>  <NtsC>
0

>  <NdssC>
0

>  <NaasC>
3

>  <NaaaC>
0

>  <NssssC>
0

>  <NsNH3>
0

>  <NsNH2>
0

>  <NssNH2>
0

>  <NdNH>
0

>  <NssNH>
2

>  <NaaNH>
0

>  <NtN>
0

>  <NsssNH>
0

>  <NdsN>
0

>  <NaaN>
0

>  <NsssN>
0

>  <NddsN>
0

>  <NaasN>
0

>  <NssssN>
0

>  <NsOH>
0

>  <NdO>
0

>  <NssO>
0

>  <NaaO>
0

>  <NsF>
0

>  <NsSiH3>
0

>  <NssSiH2>
0

>  <NsssSiH>
0

>  <NssssSi>
0

>  <NsPH2>
0

>  <NssPH>
0

>  <NsssP>
0

>  <NdsssP>
0

>  <NsssssP>
0

>  <NsSH>
0

>  <NdS>
0

>  <NssS>
0

>  <NaaS>
0

>  <NdssS>
0

>  <NddssS>
0

>  <NsCl>
0

>  <NsBr>
0

>  <NsI>
1

>  <fragCpx>
17.03

>  <fMF>
0.15

>  <nHBAcc>
2

>  <nHBDon>
2

>  <Kier1>
15.06

>  <Kier2>
7.44

>  <Lipinski>
1

>  <GhoseFilter>
1

>  <FilterItLogS>
-5.42

>  <VMcGowan>
230.15

>  <LabuteASA>
118.71

>  <PEOE_VSA1>
10.63

>  <PEOE_VSA2>
0

>  <PEOE_VSA3>
0

>  <PEOE_VSA4>
0

>  <PEOE_VSA5>
0

>  <PEOE_VSA6>
13.85

>  <PEOE_VSA7>
67.48

>  <PEOE_VSA8>
27.03

>  <PEOE_VSA9>
0

>  <PEOE_VSA10>
0

>  <PEOE_VSA11>
0

>  <PEOE_VSA12>
0

>  <PEOE_VSA13>
0

>  <SMR_VSA1>
0

>  <SMR_VSA2>
0

>  <SMR_VSA3>
0

>  <SMR_VSA4>
0

>  <SMR_VSA5>
52.62

>  <SMR_VSA6>
10.63

>  <SMR_VSA7>
21.77

>  <SMR_VSA8>
0

>  <SMR_VSA9>
0

>  <SlogP_VSA1>
10.63

>  <SlogP_VSA2>
12.08

>  <SlogP_VSA3>
0

>  <SlogP_VSA4>
3.57

>  <SlogP_VSA5>
40.54

>  <SlogP_VSA6>
18.2

>  <SlogP_VSA7>
0

>  <SlogP_VSA8>
0

>  <SlogP_VSA9>
0

>  <SlogP_VSA10>
11.37

>  <SlogP_VSA11>
0

>  <EState_VSA1>
0

>  <EState_VSA2>
0

>  <EState_VSA3>
12.08

>  <EState_VSA4>
12.84

>  <EState_VSA5>
14.94

>  <EState_VSA6>
0

>  <EState_VSA7>
0

>  <EState_VSA8>
79.12

>  <EState_VSA9>
0

>  <EState_VSA10>
0

>  <VSA_EState1>
1.28

>  <VSA_EState2>
0

>  <VSA_EState3>
7.05

>  <VSA_EState4>
2.43

>  <VSA_EState5>
0

>  <VSA_EState6>
7.56

>  <VSA_EState7>
2.28

>  <VSA_EState8>
8.82

>  <VSA_EState9>
0

>  <apol>
46.27

>  <bpol>
27.89

>  <nRing>
1

>  <nHRing>
0

>  <naRing>
1

>  <naHRing>
0

>  <nARing 2>
0

>  <nAHRing 2>
0

>  <nFRing>
0

>  <nFHRing>
0

>  <nFaRing>
0

>  <nFaHRing>
0

>  <nFARing 2>
0

>  <nFAHRing 2>
0

>  <nRot>
6

>  <SLogP>
4.71

>  <SMR>
85.91

>  <TopoPSA(NO)>
24.06

>  <TopoPSA>
24.06

>  <JGI1>
0.26

>  <JGI2>
0.08

>  <JGI3>
0.05

>  <JGI4>
0.05

>  <JGI5>
0.03

>  <Diameter>
10

>  <Radius>
5

>  <TMWC10>
102.8

>  <TSRW10>
48.77

>  <MW>
346.09

>  <AMW>
8.65

>  <WPath>
560

>  <WPol>
22

>  <Zagreb1>
78

>  <Zagreb2>
86

>  <mZagreb2>
4.03

>  <yes>


>  <nAR-cont>
0.336376

>  <nHA-cont>
0.976740822

>  <MWHBN>
0.21501337

>  <MWHBN-cont>
0.997626538

>  <TPSA-cont>
0.83204626

>  <pka_cont>
0.97

>  <yes.1>


>  <BBB_SCORE>
4.958649148

>  <MMFF94 Energy>
30.121

$$$$
Compound 635
Actelion Java MolfileCreator 2.0

  0  0  0  0  0  0              0 V3000
M  V30 BEGIN CTAB
M  V30 COUNTS 42 43 0 0 0
M  V30 BEGIN ATOM
M  V30 1 O 0.5512 -0.7087 0.2362 0
M  V30 2 C 0.6717 0.6751 0.6531 0 CFG=2
M  V30 3 C -0.3035 -1.5522 1.0027 0
M  V30 4 C -0.6989 1.3074 1.0068 0
M  V30 5 C 1.318 1.4602 -0.5178 0
M  V30 6 C 1.6976 0.6646 1.813 0
M  V30 7 C -0.1412 -3.018 0.5459 0
M  V30 8 N -1.6867 1.2141 0.0704 0
M  V30 9 C -0.9309 1.9564 2.2235 0
M  V30 10 C 1.5961 0.8437 -1.7517 0
M  V30 11 C 1.638 2.8267 -0.3827 0
M  V30 12 N -0.3878 -3.2916 -0.8851 0
M  V30 13 C -2.887 1.77 0.3386 0
M  V30 14 C -2.1834 2.5158 2.4775 0
M  V30 15 C 2.183 1.557 -2.8002 0
M  V30 16 C 2.2247 3.5389 -1.4323 0
M  V30 17 C -1.7133 -2.8557 -1.319 0
M  V30 18 C -0.1951 -4.7121 -1.1713 0
M  V30 19 C -3.1817 2.4241 1.5187 0
M  V30 20 C 2.4994 2.903 -2.6395 0
M  V30 21 H -1.349 -1.2494 0.8984 0
M  V30 22 H -0.0395 -1.4951 2.0637 0
M  V30 23 H 1.3209 0.1184 2.6848 0
M  V30 24 H 2.6199 0.1541 1.5079 0
M  V30 25 H 1.9734 1.6692 2.1517 0
M  V30 26 H 0.8951 -3.3071 0.7634 0
M  V30 27 H -0.7927 -3.6445 1.169 0
M  V30 28 H -0.1614 2.0454 2.9818 0
M  V30 29 H 1.3488 -0.2051 -1.9108 0
M  V30 30 H 1.4225 3.3559 0.5423 0
M  V30 31 H -3.6272 1.6708 -0.4498 0
M  V30 32 H -2.3743 3.025 3.4183 0
M  V30 33 H 2.3854 1.0567 -3.7433 0
M  V30 34 H 2.4607 4.5923 -1.3082 0
M  V30 35 H -1.812 -1.7671 -1.2608 0
M  V30 36 H -2.5121 -3.3139 -0.7249 0
M  V30 37 H -1.8792 -3.1143 -2.3712 0
M  V30 38 H -0.911 -5.3429 -0.6318 0
M  V30 39 H 0.8178 -5.0279 -0.8981 0
M  V30 40 H -0.3034 -4.908 -2.244 0
M  V30 41 H -4.1628 2.8538 1.6844 0
M  V30 42 H 2.9519 3.4563 -3.4575 0
M  V30 END ATOM
M  V30 BEGIN BOND
M  V30 1 1 1 2
M  V30 2 1 1 3
M  V30 3 1 2 4
M  V30 4 1 2 5
M  V30 5 1 2 6
M  V30 6 1 3 7
M  V30 7 2 4 8
M  V30 8 1 4 9
M  V30 9 2 5 10
M  V30 10 1 5 11
M  V30 11 1 7 12
M  V30 12 1 8 13
M  V30 13 2 9 14
M  V30 14 1 10 15
M  V30 15 2 11 16
M  V30 16 1 12 17
M  V30 17 1 12 18
M  V30 18 2 13 19
M  V30 19 2 15 20
M  V30 20 1 14 19
M  V30 21 1 16 20
M  V30 22 1 3 21
M  V30 23 1 3 22
M  V30 24 1 6 23
M  V30 25 1 6 24
M  V30 26 1 6 25
M  V30 27 1 7 26
M  V30 28 1 7 27
M  V30 29 1 9 28
M  V30 30 1 10 29
M  V30 31 1 11 30
M  V30 32 1 13 31
M  V30 33 1 14 32
M  V30 34 1 15 33
M  V30 35 1 16 34
M  V30 36 1 17 35
M  V30 37 1 17 36
M  V30 38 1 17 37
M  V30 39 1 18 38
M  V30 40 1 18 39
M  V30 41 1 18 40
M  V30 42 1 19 41
M  V30 43 1 20 42
M  V30 END BOND
M  V30 BEGIN COLLECTION
M  V30 MDLV30/STERAC1 ATOMS=(1 2)
M  V30 END COLLECTION
M  V30 END CTAB
M  END
>  <Column 1>
763

>  <level_0>
871

>  <index>
871

>  <Unnamed: 0>
871

>  <NO.>
883

>  <Name>
doxylamine

>  <IUPAC_name>
n-n-dimethyl-2-(1-phenyl-1-pyridin-2-ylethoxy)ethanamine

>  <SMILES>
CN(C)CCOC(C)(c1ccccc1)c1ccccn1

>  <CID>
3162

>  <logBB>
0.64

>  <BBB+/BBB->
BBB+

>  <Inchi>
InChI=1S/C17H22N2O/c1-17(20-14-13-19(2)3-15-9-5-4-6-10-15)16-11-7-8-12-18-16/h4-12H-13-14H2-1-3H3

>  <threshold>


>  <reference>
R8|R40|R3|R18|R20|R21|R26|R27|R27|R38|R41|R43|R47|

>  <group>
A

>  <Class>
1

>  <ABC>
15.1

>  <ABCGG>
13.05

>  <nAcid>
0

>  <nBase>
1

>  <nAromAtom>
12

>  <nAromBond>
12

>  <nAtom>
42

>  <nHeavyAtom>
20

>  <nSpiro>
0

>  <nBridgehead>
0

>  <nHetero>
3

>  <nN>
2

>  <nO>
1

>  <nF>
0

>  <BalabanJ>
2

>  <BertzCT>
471.53

>  <nBonds>
43

>  <nBondsO>
21

>  <nBondsS>
31

>  <nBondsD>
0

>  <nBondsT>
0

>  <nBondsA>
12

>  <nBondsM>
12

>  <nBondsKS>
37

>  <nBondsKD>
6

>  <RNCG>
0.25

>  <RPCG>
0.09

>  <FCSP3>
0.35

>  <SZ>
24.33

>  <Sm>
22.51

>  <Sv>
25.19

>  <Sse>
41.42

>  <Sp>
27.58

>  <Si>
47.36

>  <MZ>
0.58

>  <Mm>
0.54

>  <Mv>
0.6

>  <Mse>
0.99

>  <Mp>
0.66

>  <Mi>
1.13

>  <NsCH3>
3

>  <NdCH2>
0

>  <NssCH2>
2

>  <NtCH>
0

>  <NdsCH>
0

>  <NaaCH>
9

>  <NsssCH>
0

>  <NddC>
0

>  <NtsC>
0

>  <NdssC>
0

>  <NaasC>
2

>  <NaaaC>
0

>  <NssssC>
1

>  <NsNH3>
0

>  <NsNH2>
0

>  <NssNH2>
0

>  <NdNH>
0

>  <NssNH>
0

>  <NaaNH>
0

>  <NtN>
0

>  <NsssNH>
0

>  <NdsN>
0

>  <NaaN>
1

>  <NsssN>
1

>  <NddsN>
0

>  <NaasN>
0

>  <NssssN>
0

>  <NsOH>
0

>  <NdO>
0

>  <NssO>
1

>  <NaaO>
0

>  <NsF>
0

>  <NsSiH3>
0

>  <NssSiH2>
0

>  <NsssSiH>
0

>  <NssssSi>
0

>  <NsPH2>
0

>  <NssPH>
0

>  <NsssP>
0

>  <NdsssP>
0

>  <NsssssP>
0

>  <NsSH>
0

>  <NdS>
0

>  <NssS>
0

>  <NaaS>
0

>  <NdssS>
0

>  <NddssS>
0

>  <NsCl>
0

>  <NsBr>
0

>  <NsI>
0

>  <fragCpx>
61.03

>  <fMF>
0.31

>  <nHBAcc>
3

>  <nHBDon>
0

>  <Kier1>
16.37

>  <Kier2>
7.85

>  <Lipinski>
1

>  <GhoseFilter>
1

>  <FilterItLogS>
-4.28

>  <VMcGowan>
228.7

>  <LabuteASA>
120.77

>  <PEOE_VSA1>
9.64

>  <PEOE_VSA2>
4.98

>  <PEOE_VSA3>
0

>  <PEOE_VSA4>
0

>  <PEOE_VSA5>
0

>  <PEOE_VSA6>
36.4

>  <PEOE_VSA7>
38.72

>  <PEOE_VSA8>
12.74

>  <PEOE_VSA9>
12.3

>  <PEOE_VSA10>
5.6

>  <PEOE_VSA11>
0

>  <PEOE_VSA12>
0

>  <PEOE_VSA13>
0

>  <SMR_VSA1>
4.74

>  <SMR_VSA2>
0

>  <SMR_VSA3>
9.88

>  <SMR_VSA4>
0

>  <SMR_VSA5>
12.52

>  <SMR_VSA6>
27.25

>  <SMR_VSA7>
65.99

>  <SMR_VSA8>
0

>  <SMR_VSA9>
0

>  <SlogP_VSA1>
0

>  <SlogP_VSA2>
37.13

>  <SlogP_VSA3>
10.34

>  <SlogP_VSA4>
0

>  <SlogP_VSA5>
18.18

>  <SlogP_VSA6>
54.73

>  <SlogP_VSA7>
0

>  <SlogP_VSA8>
0

>  <SlogP_VSA9>
0

>  <SlogP_VSA10>
0

>  <SlogP_VSA11>
0

>  <EState_VSA1>
5.6

>  <EState_VSA2>
0

>  <EState_VSA3>
6.61

>  <EState_VSA4>
17.8

>  <EState_VSA5>
0

>  <EState_VSA6>
0

>  <EState_VSA7>
56.69

>  <EState_VSA8>
28.94

>  <EState_VSA9>
4.74

>  <EState_VSA10>
0

>  <VSA_EState1>
6.21

>  <VSA_EState2>
6.6

>  <VSA_EState3>
0

>  <VSA_EState4>
1.54

>  <VSA_EState5>
0

>  <VSA_EState6>
16.2

>  <VSA_EState7>
1.81

>  <VSA_EState8>
3.63

>  <VSA_EState9>
4.09

>  <apol>
46.06

>  <bpol>
26.66

>  <nRing>
2

>  <nHRing>
1

>  <naRing>
2

>  <naHRing>
1

>  <nARing 2>
0

>  <nAHRing 2>
0

>  <nFRing>
0

>  <nFHRing>
0

>  <nFaRing>
0

>  <nFaHRing>
0

>  <nFARing 2>
0

>  <nFAHRing 2>
0

>  <nRot>
6

>  <SLogP>
2.92

>  <SMR>
81.64

>  <TopoPSA(NO)>
25.36

>  <TopoPSA>
25.36

>  <JGI1>
0.19

>  <JGI2>
0.1

>  <JGI3>
0.06

>  <JGI4>
0.02

>  <JGI5>
0.02

>  <Diameter>
9

>  <Radius>
5

>  <TMWC10>
113.26

>  <TSRW10>
53.32

>  <MW>
270.17

>  <AMW>
6.43

>  <WPath>
805

>  <WPol>
29

>  <Zagreb1>
98

>  <Zagreb2>
112

>  <mZagreb2>
4.54

>  <yes>


>  <nAR-cont>
0.336376

>  <nHA-cont>
0.999629945

>  <MWHBN>
0.182516736

>  <MWHBN-cont>
0.989733193

>  <TPSA-cont>
0.822971452

>  <pka_cont>
0.97

>  <yes.1>


>  <BBB_SCORE>
4.951548639

>  <MMFF94 Energy>
121.22

$$$$
Compound 636
Actelion Java MolfileCreator 2.0

  0  0  0  0  0  0              0 V3000
M  V30 BEGIN CTAB
M  V30 COUNTS 40 41 0 0 0
M  V30 BEGIN ATOM
M  V30 1 O -0.7067 1.1781 -0.5496 0
M  V30 2 C -0.8683 1.8571 0.6344 0
M  V30 3 C -1.861 0.9913 -1.3702 0
M  V30 4 C 0.211 1.7787 1.5516 0
M  V30 5 C -2.0008 2.6161 0.9491 0
M  V30 6 C -1.5169 0.0735 -2.5554 0 CFG=1
M  V30 7 C 0.1204 2.4689 2.7853 0
M  V30 8 C 1.3823 1.0333 1.2942 0
M  V30 9 C -2.0806 3.2901 2.1666 0
M  V30 10 O -0.418 0.6314 -3.2922 0
M  V30 11 C -1.1814 -1.3816 -2.1583 0
M  V30 12 C -1.029 3.2164 3.0774 0
M  V30 13 C 1.1809 2.399 3.7049 0
M  V30 14 C 2.4278 0.972 2.2175 0
M  V30 15 N 0.1701 -1.5301 -1.6008 0
M  V30 16 C 2.327 1.6559 3.4226 0
M  V30 17 C 0.4381 -2.8795 -1.0904 0
M  V30 18 C 0.5968 -3.9107 -2.2094 0
M  V30 19 C 1.7203 -2.8191 -0.2578 0
M  V30 20 H -2.1625 1.966 -1.7724 0
M  V30 21 H -2.6831 0.5517 -0.7928 0
M  V30 22 H -2.8346 2.7131 0.2624 0
M  V30 23 H -2.3793 0.0512 -3.2316 0
M  V30 24 H 1.4802 0.4838 0.3595 0
M  V30 25 H -2.9626 3.8793 2.4047 0
M  V30 26 H 0.2588 0.8111 -2.6084 0
M  V30 27 H -1.9387 -1.7461 -1.4545 0
M  V30 28 H -1.2502 -1.9903 -3.0673 0
M  V30 29 H -1.1125 3.7521 4.0206 0
M  V30 30 H 1.1207 2.9264 4.6545 0
M  V30 31 H 3.3154 0.3878 1.9911 0
M  V30 32 H 0.8454 -1.2972 -2.3309 0
M  V30 33 H 3.1381 1.6111 4.1443 0
M  V30 34 H -0.3742 -3.1926 -0.4229 0
M  V30 35 H 1.3787 -3.6162 -2.9184 0
M  V30 36 H -0.3349 -4.0463 -2.7673 0
M  V30 37 H 0.8718 -4.8875 -1.7964 0
M  V30 38 H 1.6122 -2.1203 0.5787 0
M  V30 39 H 2.5788 -2.4992 -0.8593 0
M  V30 40 H 1.9539 -3.8025 0.1646 0
M  V30 END ATOM
M  V30 BEGIN BOND
M  V30 1 1 1 2
M  V30 2 1 1 3
M  V30 3 1 2 4
M  V30 4 2 2 5
M  V30 5 1 3 6
M  V30 6 1 4 7
M  V30 7 2 4 8
M  V30 8 1 5 9
M  V30 9 1 6 10
M  V30 10 1 6 11
M  V30 11 1 7 12
M  V30 12 2 7 13
M  V30 13 1 8 14
M  V30 14 1 11 15
M  V30 15 1 13 16
M  V30 16 1 15 17
M  V30 17 1 17 18
M  V30 18 1 17 19
M  V30 19 2 9 12
M  V30 20 2 14 16
M  V30 21 1 3 20
M  V30 22 1 3 21
M  V30 23 1 5 22
M  V30 24 1 6 23
M  V30 25 1 8 24
M  V30 26 1 9 25
M  V30 27 1 10 26
M  V30 28 1 11 27
M  V30 29 1 11 28
M  V30 30 1 12 29
M  V30 31 1 13 30
M  V30 32 1 14 31
M  V30 33 1 15 32
M  V30 34 1 16 33
M  V30 35 1 17 34
M  V30 36 1 18 35
M  V30 37 1 18 36
M  V30 38 1 18 37
M  V30 39 1 19 38
M  V30 40 1 19 39
M  V30 41 1 19 40
M  V30 END BOND
M  V30 BEGIN COLLECTION
M  V30 MDLV30/STERAC1 ATOMS=(1 6)
M  V30 END COLLECTION
M  V30 END CTAB
M  END
>  <Column 1>
764

>  <level_0>
872

>  <index>
872

>  <Unnamed: 0>
872

>  <NO.>
884

>  <Name>
upcmld-dp067

>  <IUPAC_name>
1-naphthalen-1-yloxy-3-(propan-2-ylamino)propan-2-ol

>  <SMILES>
CC(C)NCC(O)COc1cccc2ccccc12

>  <CID>
4946

>  <logBB>
0.64

>  <BBB+/BBB->
BBB+

>  <Inchi>
InChI=1S/C16H21NO2/c1-12(2)17-10-14(18)11-19-16-9-5-7-13-6-3-4-8-15(13)16/h3-9-12-14-17-18H-10-11H2-1-2H3

>  <threshold>


>  <reference>
R3|R11|R12|R18|R25|R26|R27|R35|R36|R38|R39|R41|R42|R43|R44|R46|R47|R27|R2|R2|R8|R21|R27|R50|R40|R4|

>  <group>
A

>  <Class>
1

>  <ABC>
14.39

>  <ABCGG>
11.81

>  <nAcid>
0

>  <nBase>
1

>  <nAromAtom>
10

>  <nAromBond>
11

>  <nAtom>
40

>  <nHeavyAtom>
19

>  <nSpiro>
0

>  <nBridgehead>
0

>  <nHetero>
3

>  <nN>
1

>  <nO>
2

>  <nF>
0

>  <BalabanJ>
1.71

>  <BertzCT>
519.64

>  <nBonds>
41

>  <nBondsO>
20

>  <nBondsS>
30

>  <nBondsD>
0

>  <nBondsT>
0

>  <nBondsA>
11

>  <nBondsM>
11

>  <nBondsKS>
36

>  <nBondsKD>
5

>  <RNCG>
0.29

>  <RPCG>
0.13

>  <FCSP3>
0.38

>  <SZ>
23.33

>  <Sm>
21.59

>  <Sv>
23.88

>  <Sse>
39.65

>  <Sp>
26

>  <Si>
45.07

>  <MZ>
0.58

>  <Mm>
0.54

>  <Mv>
0.6

>  <Mse>
0.99

>  <Mp>
0.65

>  <Mi>
1.13

>  <NsCH3>
2

>  <NdCH2>
0

>  <NssCH2>
2

>  <NtCH>
0

>  <NdsCH>
0

>  <NaaCH>
7

>  <NsssCH>
2

>  <NddC>
0

>  <NtsC>
0

>  <NdssC>
0

>  <NaasC>
1

>  <NaaaC>
2

>  <NssssC>
0

>  <NsNH3>
0

>  <NsNH2>
0

>  <NssNH2>
0

>  <NdNH>
0

>  <NssNH>
1

>  <NaaNH>
0

>  <NtN>
0

>  <NsssNH>
0

>  <NdsN>
0

>  <NaaN>
0

>  <NsssN>
0

>  <NddsN>
0

>  <NaasN>
0

>  <NssssN>
0

>  <NsOH>
1

>  <NdO>
0

>  <NssO>
1

>  <NaaO>
0

>  <NsF>
0

>  <NsSiH3>
0

>  <NssSiH2>
0

>  <NsssSiH>
0

>  <NssssSi>
0

>  <NsPH2>
0

>  <NssPH>
0

>  <NsssP>
0

>  <NdsssP>
0

>  <NsssssP>
0

>  <NsSH>
0

>  <NdS>
0

>  <NssS>
0

>  <NaaS>
0

>  <NdssS>
0

>  <NddssS>
0

>  <NsCl>
0

>  <NsBr>
0

>  <NsI>
0

>  <fragCpx>
58.03

>  <fMF>
0.25

>  <nHBAcc>
3

>  <nHBDon>
2

>  <Kier1>
15.39

>  <Kier2>
7.7

>  <Lipinski>
1

>  <GhoseFilter>
1

>  <FilterItLogS>
-3.92

>  <VMcGowan>
214.8

>  <LabuteASA>
113.76

>  <PEOE_VSA1>
15.16

>  <PEOE_VSA2>
0

>  <PEOE_VSA3>
0

>  <PEOE_VSA4>
0

>  <PEOE_VSA5>
0

>  <PEOE_VSA6>
50.25

>  <PEOE_VSA7>
11.45

>  <PEOE_VSA8>
17.97

>  <PEOE_VSA9>
0

>  <PEOE_VSA10>
18.46

>  <PEOE_VSA11>
0

>  <PEOE_VSA12>
0

>  <PEOE_VSA13>
0

>  <SMR_VSA1>
9.84

>  <SMR_VSA2>
0

>  <SMR_VSA3>
5.32

>  <SMR_VSA4>
0

>  <SMR_VSA5>
25.99

>  <SMR_VSA6>
13.15

>  <SMR_VSA7>
42.46

>  <SMR_VSA8>
0

>  <SMR_VSA9>
5.75

>  <SlogP_VSA1>
10.05

>  <SlogP_VSA2>
30.4

>  <SlogP_VSA3>
0

>  <SlogP_VSA4>
0

>  <SlogP_VSA5>
13.85

>  <SlogP_VSA6>
42.46

>  <SlogP_VSA7>
0

>  <SlogP_VSA8>
10.77

>  <SlogP_VSA9>
0

>  <SlogP_VSA10>
0

>  <SlogP_VSA11>
5.75

>  <EState_VSA1>
6.1

>  <EState_VSA2>
0

>  <EState_VSA3>
19.19

>  <EState_VSA4>
16.52

>  <EState_VSA5>
0

>  <EState_VSA6>
0

>  <EState_VSA7>
30.33

>  <EState_VSA8>
31.3

>  <EState_VSA9>
4.74

>  <EState_VSA10>
5.11

>  <VSA_EState1>
5.72

>  <VSA_EState2>
0

>  <VSA_EState3>
15.26

>  <VSA_EState4>
0

>  <VSA_EState5>
0.82

>  <VSA_EState6>
14.41

>  <VSA_EState7>
-0.5

>  <VSA_EState8>
4.95

>  <VSA_EState9>
0

>  <apol>
43.43

>  <bpol>
23.37

>  <nRing>
2

>  <nHRing>
0

>  <naRing>
2

>  <naHRing>
0

>  <nARing 2>
0

>  <nAHRing 2>
0

>  <nFRing>
1

>  <nFHRing>
0

>  <nFaRing>
1

>  <nFaHRing>
0

>  <nFARing 2>
0

>  <nFAHRing 2>
0

>  <nRot>
6

>  <SLogP>
2.58

>  <SMR>
78.59

>  <TopoPSA(NO)>
41.49

>  <TopoPSA>
41.49

>  <JGI1>
0.18

>  <JGI2>
0.08

>  <JGI3>
0.03

>  <JGI4>
0.04

>  <JGI5>
0.02

>  <Diameter>
11

>  <Radius>
6

>  <TMWC10>
109.71

>  <TSRW10>
51.72

>  <MW>
259.16

>  <AMW>
6.48

>  <WPath>
792

>  <WPol>
25

>  <Zagreb1>
92

>  <Zagreb2>
103

>  <mZagreb2>
4.31

>  <yes>


>  <nAR-cont>
0.336376

>  <nHA-cont>
0.998649058

>  <MWHBN>
0.310588963

>  <MWHBN-cont>
0.8079917

>  <TPSA-cont>
0.710374036

>  <pka_cont>
0.97

>  <yes.1>


>  <BBB_SCORE>
4.45276068

>  <MMFF94 Energy>
78.019

$$$$
Compound 637
Actelion Java MolfileCreator 2.0

  0  0  0  0  0  0              0 V3000
M  V30 BEGIN CTAB
M  V30 COUNTS 42 45 0 0 0
M  V30 BEGIN ATOM
M  V30 1 Cl 6.8706 1.4519 3.7137 0
M  V30 2 C 5.4035 0.9546 2.9672 0
M  V30 3 C 4.8719 1.6945 1.9185 0
M  V30 4 C 4.752 -0.1892 3.4097 0
M  V30 5 C 3.6772 1.2852 1.3122 0
M  V30 6 C 3.5575 -0.5877 2.7976 0
M  V30 7 C 2.9853 0.141 1.741 0
M  V30 8 N 1.8013 -0.2845 1.1485 0
M  V30 9 C 1.4348 0.1803 -0.2002 0
M  V30 10 C 0.6494 -0.5646 2.026 0
M  V30 11 C 0.3801 -0.7484 -0.8441 0
M  V30 12 C -0.3851 -1.4669 1.3158 0
M  V30 13 N -0.8203 -0.9347 0.005 0
M  V30 14 C -1.7895 -1.8518 -0.6128 0
M  V30 15 C -2.4393 -1.2177 -1.7958 0
M  V30 16 C -3.2 -0.0667 -1.8683 0
M  V30 17 C -2.4312 -1.6922 -3.1254 0
M  V30 18 N -3.5934 0.0904 -3.1998 0
M  V30 19 C -3.6233 0.9178 -0.9277 0
M  V30 20 N -3.1133 -0.9196 -3.9702 0
M  V30 21 C -4.3818 1.1652 -3.6162 0
M  V30 22 C -4.3823 1.9506 -1.341 0
M  V30 23 C -4.7851 2.0902 -2.7299 0
M  V30 24 H 5.374 2.5906 1.5648 0
M  V30 25 H 5.1651 -0.7826 4.2202 0
M  V30 26 H 3.2863 1.8994 0.5059 0
M  V30 27 H 3.0903 -1.5071 3.1408 0
M  V30 28 H 2.3131 0.1873 -0.8573 0
M  V30 29 H 1.0388 1.2024 -0.1451 0
M  V30 30 H 0.1771 0.385 2.3094 0
M  V30 31 H 0.9448 -1.0676 2.9528 0
M  V30 32 H 0.8469 -1.7204 -1.0546 0
M  V30 33 H 0.101 -0.3057 -1.807 0
M  V30 34 H -1.2547 -1.565 1.9771 0
M  V30 35 H 0.0462 -2.4696 1.192 0
M  V30 36 H -1.3174 -2.8028 -0.8909 0
M  V30 37 H -2.5857 -2.0904 0.1049 0
M  V30 38 H -1.949 -2.5806 -3.5135 0
M  V30 39 H -3.3187 0.8287 0.1105 0
M  V30 40 H -4.632 1.1904 -4.6677 0
M  V30 41 H -4.7088 2.7127 -0.6396 0
M  V30 42 H -5.3977 2.9359 -3.0214 0
M  V30 END ATOM
M  V30 BEGIN BOND
M  V30 1 1 1 2
M  V30 2 2 2 3
M  V30 3 1 2 4
M  V30 4 1 3 5
M  V30 5 2 4 6
M  V30 6 2 5 7
M  V30 7 1 7 8
M  V30 8 1 8 9
M  V30 9 1 8 10
M  V30 10 1 9 11
M  V30 11 1 10 12
M  V30 12 1 11 13
M  V30 13 1 13 14
M  V30 14 1 14 15
M  V30 15 2 15 16
M  V30 16 1 15 17
M  V30 17 1 16 18
M  V30 18 1 16 19
M  V30 19 2 17 20
M  V30 20 1 18 21
M  V30 21 2 19 22
M  V30 22 2 21 23
M  V30 23 1 6 7
M  V30 24 1 12 13
M  V30 25 1 18 20
M  V30 26 1 22 23
M  V30 27 1 3 24
M  V30 28 1 4 25
M  V30 29 1 5 26
M  V30 30 1 6 27
M  V30 31 1 9 28
M  V30 32 1 9 29
M  V30 33 1 10 30
M  V30 34 1 10 31
M  V30 35 1 11 32
M  V30 36 1 11 33
M  V30 37 1 12 34
M  V30 38 1 12 35
M  V30 39 1 14 36
M  V30 40 1 14 37
M  V30 41 1 17 38
M  V30 42 1 19 39
M  V30 43 1 21 40
M  V30 44 1 22 41
M  V30 45 1 23 42
M  V30 END BOND
M  V30 END CTAB
M  END
>  <Column 1>
765

>  <level_0>
874

>  <index>
874

>  <Unnamed: 0>
874

>  <NO.>
886

>  <Name>
fauc-113

>  <IUPAC_name>
3-[[4-(4-chlorophenyl)piperazin-1-yl]methyl]pyrazolo[1-5-a]pyridine

>  <SMILES>
Clc1ccc(N2CCN(Cc3cnn4ccccc34)CC2)cc1

>  <CID>
10404144

>  <logBB>
0.64

>  <BBB+/BBB->
BBB+

>  <Inchi>
InChI=1S/C18H19ClN4/c19-16-4-6-17(7-5-16)22-11-9-21(10-12-22)14-15-13-20-23-8-2-1-3-18(15)23/h1-8-13H-9-12-14H2

>  <threshold>


>  <reference>
R2|R2|R20|R25|R27|R46|

>  <group>
A

>  <Class>
1

>  <ABC>
18.37

>  <ABCGG>
13.61

>  <nAcid>
0

>  <nBase>
1

>  <nAromAtom>
15

>  <nAromBond>
16

>  <nAtom>
42

>  <nHeavyAtom>
23

>  <nSpiro>
0

>  <nBridgehead>
0

>  <nHetero>
5

>  <nN>
4

>  <nO>
0

>  <nF>
0

>  <BalabanJ>
1.22

>  <BertzCT>
788.15

>  <nBonds>
45

>  <nBondsO>
26

>  <nBondsS>
29

>  <nBondsD>
0

>  <nBondsT>
0

>  <nBondsA>
16

>  <nBondsM>
16

>  <nBondsKS>
38

>  <nBondsKD>
7

>  <RNCG>
0.25

>  <RPCG>
0.06

>  <FCSP3>
0.28

>  <SZ>
28.67

>  <Sm>
27.21

>  <Sv>
27.27

>  <Sse>
41.85

>  <Sp>
29.53

>  <Si>
47.26

>  <MZ>
0.68

>  <Mm>
0.65

>  <Mv>
0.65

>  <Mse>
1

>  <Mp>
0.7

>  <Mi>
1.13

>  <NsCH3>
0

>  <NdCH2>
0

>  <NssCH2>
5

>  <NtCH>
0

>  <NdsCH>
0

>  <NaaCH>
9

>  <NsssCH>
0

>  <NddC>
0

>  <NtsC>
0

>  <NdssC>
0

>  <NaasC>
3

>  <NaaaC>
1

>  <NssssC>
0

>  <NsNH3>
0

>  <NsNH2>
0

>  <NssNH2>
0

>  <NdNH>
0

>  <NssNH>
0

>  <NaaNH>
0

>  <NtN>
0

>  <NsssNH>
0

>  <NdsN>
0

>  <NaaN>
1

>  <NsssN>
2

>  <NddsN>
0

>  <NaasN>
1

>  <NssssN>
0

>  <NsOH>
0

>  <NdO>
0

>  <NssO>
0

>  <NaaO>
0

>  <NsF>
0

>  <NsSiH3>
0

>  <NssSiH2>
0

>  <NsssSiH>
0

>  <NssssSi>
0

>  <NsPH2>
0

>  <NssPH>
0

>  <NsssP>
0

>  <NdsssP>
0

>  <NsssssP>
0

>  <NsSH>
0

>  <NdS>
0

>  <NssS>
0

>  <NaaS>
0

>  <NdssS>
0

>  <NddssS>
0

>  <NsCl>
1

>  <NsBr>
0

>  <NsI>
0

>  <fragCpx>
170.05

>  <fMF>
0.52

>  <nHBAcc>
4

>  <nHBDon>
0

>  <Kier1>
16.47

>  <Kier2>
7.49

>  <Lipinski>
1

>  <GhoseFilter>
1

>  <FilterItLogS>
-4.02

>  <VMcGowan>
243.1

>  <LabuteASA>
140.44

>  <PEOE_VSA1>
4.9

>  <PEOE_VSA2>
4.9

>  <PEOE_VSA3>
4.52

>  <PEOE_VSA4>
5.1

>  <PEOE_VSA5>
0

>  <PEOE_VSA6>
17.67

>  <PEOE_VSA7>
36.4

>  <PEOE_VSA8>
55.19

>  <PEOE_VSA9>
11.71

>  <PEOE_VSA10>
0

>  <PEOE_VSA11>
0

>  <PEOE_VSA12>
0

>  <PEOE_VSA13>
0

>  <SMR_VSA1>
0

>  <SMR_VSA2>
0

>  <SMR_VSA3>
14.51

>  <SMR_VSA4>
0

>  <SMR_VSA5>
6.54

>  <SMR_VSA6>
31.08

>  <SMR_VSA7>
65.44

>  <SMR_VSA8>
0

>  <SMR_VSA9>
0

>  <SlogP_VSA1>
4.9

>  <SlogP_VSA2>
40.69

>  <SlogP_VSA3>
6.54

>  <SlogP_VSA4>
0

>  <SlogP_VSA5>
5.56

>  <SlogP_VSA6>
54.86

>  <SlogP_VSA7>
5.02

>  <SlogP_VSA8>
5.52

>  <SlogP_VSA9>
0

>  <SlogP_VSA10>
5.69

>  <SlogP_VSA11>
0

>  <EState_VSA1>
0

>  <EState_VSA2>
0

>  <EState_VSA3>
0

>  <EState_VSA4>
37.75

>  <EState_VSA5>
16.77

>  <EState_VSA6>
0

>  <EState_VSA7>
35.11

>  <EState_VSA8>
39.16

>  <EState_VSA9>
11.6

>  <EState_VSA10>
0

>  <VSA_EState1>
1.94

>  <VSA_EState2>
4.92

>  <VSA_EState3>
5.21

>  <VSA_EState4>
3.75

>  <VSA_EState5>
0

>  <VSA_EState6>
14.33

>  <VSA_EState7>
3.98

>  <VSA_EState8>
5.17

>  <VSA_EState9>
0

>  <apol>
49.31

>  <bpol>
24.7

>  <nRing>
4

>  <nHRing>
3

>  <naRing>
3

>  <naHRing>
2

>  <nARing 2>
1

>  <nAHRing 2>
1

>  <nFRing>
1

>  <nFHRing>
1

>  <nFaRing>
1

>  <nFaHRing>
1

>  <nFARing 2>
0

>  <nFAHRing 2>
0

>  <nRot>
3

>  <SLogP>
3.31

>  <SMR>
94.13

>  <TopoPSA(NO)>
23.78

>  <TopoPSA>
23.78

>  <JGI1>
0.15

>  <JGI2>
0.07

>  <JGI3>
0.03

>  <JGI4>
0.03

>  <JGI5>
0.03

>  <Diameter>
14

>  <Radius>
7

>  <TMWC10>
123.64

>  <TSRW10>
71.41

>  <MW>
326.13

>  <AMW>
7.77

>  <WPath>
1339

>  <WPol>
34

>  <Zagreb1>
124

>  <Zagreb2>
146

>  <mZagreb2>
5

>  <yes>


>  <nAR-cont>
0.816016

>  <nHA-cont>
0.967789328

>  <MWHBN>
0.221495351

>  <MWHBN-cont>
0.993974741

>  <TPSA-cont>
0.834000834

>  <pka_cont>
0.97

>  <yes.1>


>  <BBB_SCORE>
5.427769106

>  <MMFF94 Energy>
107.3

$$$$
Compound 638
Actelion Java MolfileCreator 2.0

  0  0  0  0  0  0              0 V3000
M  V30 BEGIN CTAB
M  V30 COUNTS 30 31 0 0 0
M  V30 BEGIN ATOM
M  V30 1 Cl -3.96 -2.0189 -2.1805 0
M  V30 2 C -2.2697 -1.6938 -2.0308 0
M  V30 3 C -1.3093 -2.3482 -2.8082 0
M  V30 4 C -1.8718 -0.7366 -1.0903 0
M  V30 5 Cl -1.7235 -3.5402 -3.9873 0
M  V30 6 C 0.0432 -2.0398 -2.6429 0
M  V30 7 C -0.5144 -0.423 -0.9108 0
M  V30 8 C 0.4369 -1.0832 -1.703 0
M  V30 9 C -0.1031 0.5838 0.076 0
M  V30 10 C -0.0712 1.9461 -0.2249 0
M  V30 11 C 0.2765 0.2672 1.379 0
M  V30 12 N 0.2793 2.8902 0.6612 0
M  V30 13 N -0.4693 2.4335 -1.4595 0
M  V30 14 N 0.6539 1.2088 2.2752 0
M  V30 15 C 0.3135 -1.1488 1.9012 0
M  V30 16 C 0.6342 2.4806 1.8775 0
M  V30 17 C 1.7116 -1.7431 1.822 0
M  V30 18 N 1.0035 3.4287 2.7844 0
M  V30 19 H -2.625 -0.2248 -0.492 0
M  V30 20 H 0.7984 -2.5414 -3.2439 0
M  V30 21 H 1.4964 -0.8553 -1.5917 0
M  V30 22 H -0.2655 1.8924 -2.2861 0
M  V30 23 H -0.4088 3.4418 -1.5277 0
M  V30 24 H -0.4004 -1.7905 1.3749 0
M  V30 25 H -0.0118 -1.1419 2.9493 0
M  V30 26 H 1.7121 -2.7617 2.2227 0
M  V30 27 H 2.4276 -1.1511 2.4024 0
M  V30 28 H 2.0727 -1.785 0.7898 0
M  V30 29 H 1.2521 3.1239 3.7085 0
M  V30 30 H 0.9701 4.3915 2.5011 0
M  V30 END ATOM
M  V30 BEGIN BOND
M  V30 1 1 1 2
M  V30 2 2 2 3
M  V30 3 1 2 4
M  V30 4 1 3 5
M  V30 5 1 3 6
M  V30 6 2 4 7
M  V30 7 2 6 8
M  V30 8 1 7 9
M  V30 9 2 9 10
M  V30 10 1 9 11
M  V30 11 1 10 12
M  V30 12 1 10 13
M  V30 13 2 11 14
M  V30 14 1 11 15
M  V30 15 2 12 16
M  V30 16 1 15 17
M  V30 17 1 16 18
M  V30 18 1 7 8
M  V30 19 1 14 16
M  V30 20 1 4 19
M  V30 21 1 6 20
M  V30 22 1 8 21
M  V30 23 1 13 22
M  V30 24 1 13 23
M  V30 25 1 15 24
M  V30 26 1 15 25
M  V30 27 1 17 26
M  V30 28 1 17 27
M  V30 29 1 17 28
M  V30 30 1 18 29
M  V30 31 1 18 30
M  V30 END BOND
M  V30 END CTAB
M  END
>  <Column 1>
766

>  <level_0>
875

>  <index>
875

>  <Unnamed: 0>
875

>  <NO.>
887

>  <Name>
etoprine

>  <IUPAC_name>
5-(3-4-dichlorophenyl)-6-ethylpyrimidine-2-4-diamine

>  <SMILES>
CCc1nc(N)nc(N)c1-c1ccc(Cl)c(Cl)c1

>  <CID>
29142

>  <logBB>
0.65

>  <BBB+/BBB->
BBB+

>  <Inchi>
InChI=1S/C12H12Cl2N4/c1-2-9-10(11(15)18-12(16)17-9)6-3-4-7(13)8(14)5-6/h3-5H-2H2-1H3-(H4-15-16-17-18)

>  <threshold>


>  <reference>
R18|R26|R27|

>  <group>
A

>  <Class>
1

>  <ABC>
13.71

>  <ABCGG>
12.06

>  <nAcid>
0

>  <nBase>
0

>  <nAromAtom>
12

>  <nAromBond>
12

>  <nAtom>
30

>  <nHeavyAtom>
18

>  <nSpiro>
0

>  <nBridgehead>
0

>  <nHetero>
6

>  <nN>
4

>  <nO>
0

>  <nF>
0

>  <BalabanJ>
2.05

>  <BertzCT>
598.87

>  <nBonds>
31

>  <nBondsO>
19

>  <nBondsS>
19

>  <nBondsD>
0

>  <nBondsT>
0

>  <nBondsA>
12

>  <nBondsM>
12

>  <nBondsKS>
25

>  <nBondsKD>
6

>  <RNCG>
0.25

>  <RPCG>
0.14

>  <FCSP3>
0.17

>  <SZ>
24.33

>  <Sm>
23.57

>  <Sv>
20.46

>  <Sse>
30.51

>  <Sp>
22.04

>  <Si>
33.96

>  <MZ>
0.81

>  <Mm>
0.79

>  <Mv>
0.68

>  <Mse>
1.02

>  <Mp>
0.73

>  <Mi>
1.13

>  <NsCH3>
1

>  <NdCH2>
0

>  <NssCH2>
1

>  <NtCH>
0

>  <NdsCH>
0

>  <NaaCH>
3

>  <NsssCH>
0

>  <NddC>
0

>  <NtsC>
0

>  <NdssC>
0

>  <NaasC>
7

>  <NaaaC>
0

>  <NssssC>
0

>  <NsNH3>
0

>  <NsNH2>
2

>  <NssNH2>
0

>  <NdNH>
0

>  <NssNH>
0

>  <NaaNH>
0

>  <NtN>
0

>  <NsssNH>
0

>  <NdsN>
0

>  <NaaN>
2

>  <NsssN>
0

>  <NddsN>
0

>  <NaasN>
0

>  <NssssN>
0

>  <NsOH>
0

>  <NdO>
0

>  <NssO>
0

>  <NaaO>
0

>  <NsF>
0

>  <NsSiH3>
0

>  <NssSiH2>
0

>  <NsssSiH>
0

>  <NssssSi>
0

>  <NsPH2>
0

>  <NssPH>
0

>  <NsssP>
0

>  <NdsssP>
0

>  <NsssssP>
0

>  <NsSH>
0

>  <NdS>
0

>  <NssS>
0

>  <NaaS>
0

>  <NdssS>
0

>  <NddssS>
0

>  <NsCl>
2

>  <NsBr>
0

>  <NsI>
0

>  <fragCpx>
55.06

>  <fMF>
0.4

>  <nHBAcc>
4

>  <nHBDon>
2

>  <Kier1>
14.41

>  <Kier2>
5.97

>  <Lipinski>
1

>  <GhoseFilter>
1

>  <FilterItLogS>
-5.02

>  <VMcGowan>
196.82

>  <LabuteASA>
114.94

>  <PEOE_VSA1>
11.47

>  <PEOE_VSA2>
0

>  <PEOE_VSA3>
4.98

>  <PEOE_VSA4>
4.98

>  <PEOE_VSA5>
0

>  <PEOE_VSA6>
36.19

>  <PEOE_VSA7>
24.12

>  <PEOE_VSA8>
5.56

>  <PEOE_VSA9>
15.74

>  <PEOE_VSA10>
5.82

>  <PEOE_VSA11>
0

>  <PEOE_VSA12>
5.95

>  <PEOE_VSA13>
0

>  <SMR_VSA1>
0

>  <SMR_VSA2>
0

>  <SMR_VSA3>
9.97

>  <SMR_VSA4>
0

>  <SMR_VSA5>
13.34

>  <SMR_VSA6>
11.47

>  <SMR_VSA7>
33.94

>  <SMR_VSA8>
0

>  <SMR_VSA9>
11.13

>  <SlogP_VSA1>
11.47

>  <SlogP_VSA2>
9.97

>  <SlogP_VSA3>
6.42

>  <SlogP_VSA4>
0

>  <SlogP_VSA5>
12.62

>  <SlogP_VSA6>
18.2

>  <SlogP_VSA7>
10.05

>  <SlogP_VSA8>
11.13

>  <SlogP_VSA9>
0

>  <SlogP_VSA10>
11.77

>  <SlogP_VSA11>
0

>  <EState_VSA1>
0

>  <EState_VSA2>
5.95

>  <EState_VSA3>
22.28

>  <EState_VSA4>
16.82

>  <EState_VSA5>
0

>  <EState_VSA6>
12.13

>  <EState_VSA7>
12.99

>  <EState_VSA8>
9.97

>  <EState_VSA9>
34.67

>  <EState_VSA10>
0

>  <VSA_EState1>
0

>  <VSA_EState2>
8.17

>  <VSA_EState3>
0.96

>  <VSA_EState4>
13.87

>  <VSA_EState5>
0.52

>  <VSA_EState6>
5.29

>  <VSA_EState7>
0.7

>  <VSA_EState8>
1.97

>  <VSA_EState9>
0

>  <apol>
36.8

>  <bpol>
14.2

>  <nRing>
2

>  <nHRing>
1

>  <naRing>
2

>  <naHRing>
1

>  <nARing 2>
0

>  <nAHRing 2>
0

>  <nFRing>
0

>  <nFHRing>
0

>  <nFaRing>
0

>  <nFaHRing>
0

>  <nFARing 2>
0

>  <nFAHRing 2>
0

>  <nRot>
2

>  <SLogP>
3.18

>  <SMR>
75.69

>  <TopoPSA(NO)>
77.82

>  <TopoPSA>
77.82

>  <JGI1>
0.24

>  <JGI2>
0.09

>  <JGI3>
0.07

>  <JGI4>
0.05

>  <JGI5>
0.03

>  <Diameter>
9

>  <Radius>
5

>  <TMWC10>
109.27

>  <TSRW10>
51.17

>  <MW>
282.04

>  <AMW>
9.4

>  <WPath>
576

>  <WPol>
29

>  <Zagreb1>
92

>  <Zagreb2>
108

>  <mZagreb2>
4.03

>  <yes>


>  <nAR-cont>
0.336376

>  <nHA-cont>
0.991161285

>  <MWHBN>
0.357269463

>  <MWHBN-cont>
0.642832082

>  <TPSA-cont>
0.456768077

>  <pka_cont>
0.97

>  <yes.1>


>  <BBB_SCORE>
3.690321561

>  <MMFF94 Energy>
-80.123

$$$$
Compound 639
Actelion Java MolfileCreator 2.0

  0  0  0  0  0  0              0 V3000
M  V30 BEGIN CTAB
M  V30 COUNTS 49 51 0 0 0
M  V30 BEGIN ATOM
M  V30 1 N 0.317 0.7927 1.9033 0
M  V30 2 C 1.1695 0.8588 3.1292 0
M  V30 3 C 0.992 1.2327 0.6725 0
M  V30 4 C -0.3265 -0.509 1.6759 0
M  V30 5 C 1.5882 2.3258 3.3978 0
M  V30 6 C 2.4475 -0.0019 3.0436 0
M  V30 7 C 0.3715 0.4113 4.3792 0
M  V30 8 C -0.0086 1.364 -0.4788 0
M  V30 9 C -1.3076 -0.4896 0.4928 0
M  V30 10 C -0.6924 0.0124 -0.8491 0
M  V30 11 C 0.3516 -0.9431 -1.4935 0
M  V30 12 C -1.8661 0.1898 -1.8583 0
M  V30 13 C 0.5546 -2.265 -1.0603 0
M  V30 14 C 1.1036 -0.5104 -2.6059 0
M  V30 15 C -2.6465 -0.9269 -2.2245 0
M  V30 16 C -2.1849 1.4221 -2.4557 0
M  V30 17 C 1.4972 -3.0961 -1.6755 0
M  V30 18 C 2.044 -1.3404 -3.2218 0
M  V30 19 C -3.7038 -0.8133 -3.1308 0
M  V30 20 C -3.2446 1.5354 -3.3622 0
M  V30 21 C 2.2461 -2.6321 -2.7513 0
M  V30 22 C -4.0047 0.4196 -3.6978 0
M  V30 23 H 1.4332 2.2251 0.8042 0
M  V30 24 H 1.8056 0.5542 0.3924 0
M  V30 25 H -0.9247 -0.7984 2.5458 0
M  V30 26 H 0.4238 -1.2923 1.5348 0
M  V30 27 H 2.0664 2.4267 4.3797 0
M  V30 28 H 2.3129 2.6952 2.6652 0
M  V30 29 H 0.7191 2.9941 3.3885 0
M  V30 30 H 2.2178 -1.061 2.8891 0
M  V30 31 H 3.0249 0.0683 3.9735 0
M  V30 32 H 3.109 0.324 2.2344 0
M  V30 33 H 0.9267 0.625 5.3007 0
M  V30 34 H 0.1755 -0.6662 4.3819 0
M  V30 35 H -0.5875 0.938 4.448 0
M  V30 36 H 0.5024 1.8184 -1.3354 0
M  V30 37 H -0.7701 2.0945 -0.1674 0
M  V30 38 H -1.7538 -1.4864 0.3922 0
M  V30 39 H -2.1443 0.1706 0.7686 0
M  V30 40 H -0.0194 -2.6896 -0.2428 0
M  V30 41 H 0.9495 0.4817 -3.0247 0
M  V30 42 H -2.4281 -1.9097 -1.8124 0
M  V30 43 H -1.6204 2.3235 -2.2364 0
M  V30 44 H 1.6383 -4.1122 -1.316 0
M  V30 45 H 2.6088 -0.9774 -4.0764 0
M  V30 46 H -4.2867 -1.6913 -3.3955 0
M  V30 47 H -3.4732 2.5002 -3.8079 0
M  V30 48 H 2.9739 -3.2804 -3.2308 0
M  V30 49 H -4.8256 0.5103 -4.4036 0
M  V30 END ATOM
M  V30 BEGIN BOND
M  V30 1 1 1 2
M  V30 2 1 1 3
M  V30 3 1 1 4
M  V30 4 1 2 5
M  V30 5 1 2 6
M  V30 6 1 2 7
M  V30 7 1 3 8
M  V30 8 1 4 9
M  V30 9 1 8 10
M  V30 10 1 10 11
M  V30 11 1 10 12
M  V30 12 2 11 13
M  V30 13 1 11 14
M  V30 14 2 12 15
M  V30 15 1 12 16
M  V30 16 1 13 17
M  V30 17 2 14 18
M  V30 18 1 15 19
M  V30 19 2 16 20
M  V30 20 2 17 21
M  V30 21 2 19 22
M  V30 22 1 9 10
M  V30 23 1 18 21
M  V30 24 1 20 22
M  V30 25 1 3 23
M  V30 26 1 3 24
M  V30 27 1 4 25
M  V30 28 1 4 26
M  V30 29 1 5 27
M  V30 30 1 5 28
M  V30 31 1 5 29
M  V30 32 1 6 30
M  V30 33 1 6 31
M  V30 34 1 6 32
M  V30 35 1 7 33
M  V30 36 1 7 34
M  V30 37 1 7 35
M  V30 38 1 8 36
M  V30 39 1 8 37
M  V30 40 1 9 38
M  V30 41 1 9 39
M  V30 42 1 13 40
M  V30 43 1 14 41
M  V30 44 1 15 42
M  V30 45 1 16 43
M  V30 46 1 17 44
M  V30 47 1 18 45
M  V30 48 1 19 46
M  V30 49 1 20 47
M  V30 50 1 21 48
M  V30 51 1 22 49
M  V30 END BOND
M  V30 END CTAB
M  END
>  <Column 1>
767

>  <level_0>
876

>  <index>
876

>  <Unnamed: 0>
876

>  <NO.>
888

>  <Name>
budipine

>  <IUPAC_name>
1-tert-butyl-4-4-diphenylpiperidine

>  <SMILES>
CC(C)(C)N1CCC(c2ccccc2)(c2ccccc2)CC1

>  <CID>
68778

>  <logBB>
0.66

>  <BBB+/BBB->
BBB+

>  <Inchi>
InChI=1S/C21H27N/c1-20(2-3)22-16-14-21(15-17-22-18-10-6-4-7-11-18)19-12-8-5-9-13-19/h4-13H-14-17H2-1-3H3

>  <threshold>


>  <reference>
R18|R26|R27|R2|R2|R20|R25|R27|R46|

>  <group>
A

>  <Class>
1

>  <ABC>
17.26

>  <ABCGG>
14.09

>  <nAcid>
0

>  <nBase>
1

>  <nAromAtom>
12

>  <nAromBond>
12

>  <nAtom>
49

>  <nHeavyAtom>
22

>  <nSpiro>
0

>  <nBridgehead>
0

>  <nHetero>
1

>  <nN>
1

>  <nO>
0

>  <nF>
0

>  <BalabanJ>
1.75

>  <BertzCT>
545.31

>  <nBonds>
51

>  <nBondsO>
24

>  <nBondsS>
39

>  <nBondsD>
0

>  <nBondsT>
0

>  <nBondsA>
12

>  <nBondsM>
12

>  <nBondsKS>
45

>  <nBondsKD>
6

>  <RNCG>
0.25

>  <RPCG>
0.05

>  <FCSP3>
0.43

>  <SZ>
26.67

>  <Sm>
24.43

>  <Sv>
29.07

>  <Sse>
47.65

>  <Sp>
32.44

>  <Si>
54.9

>  <MZ>
0.54

>  <Mm>
0.5

>  <Mv>
0.59

>  <Mse>
0.97

>  <Mp>
0.66

>  <Mi>
1.12

>  <NsCH3>
3

>  <NdCH2>
0

>  <NssCH2>
4

>  <NtCH>
0

>  <NdsCH>
0

>  <NaaCH>
10

>  <NsssCH>
0

>  <NddC>
0

>  <NtsC>
0

>  <NdssC>
0

>  <NaasC>
2

>  <NaaaC>
0

>  <NssssC>
2

>  <NsNH3>
0

>  <NsNH2>
0

>  <NssNH2>
0

>  <NdNH>
0

>  <NssNH>
0

>  <NaaNH>
0

>  <NtN>
0

>  <NsssNH>
0

>  <NdsN>
0

>  <NaaN>
0

>  <NsssN>
1

>  <NddsN>
0

>  <NaasN>
0

>  <NssssN>
0

>  <NsOH>
0

>  <NdO>
0

>  <NssO>
0

>  <NaaO>
0

>  <NsF>
0

>  <NsSiH3>
0

>  <NssSiH2>
0

>  <NsssSiH>
0

>  <NssssSi>
0

>  <NsPH2>
0

>  <NssPH>
0

>  <NsssP>
0

>  <NdsssP>
0

>  <NsssssP>
0

>  <NsSH>
0

>  <NdS>
0

>  <NssS>
0

>  <NaaS>
0

>  <NdssS>
0

>  <NddssS>
0

>  <NsCl>
0

>  <NsBr>
0

>  <NsI>
0

>  <fragCpx>
114.01

>  <fMF>
0.37

>  <nHBAcc>
1

>  <nHBDon>
0

>  <Kier1>
16.84

>  <Kier2>
6.86

>  <Lipinski>
1

>  <GhoseFilter>
1

>  <FilterItLogS>
-5.32

>  <VMcGowan>
258.35

>  <LabuteASA>
134.53

>  <PEOE_VSA1>
0

>  <PEOE_VSA2>
4.9

>  <PEOE_VSA3>
0

>  <PEOE_VSA4>
0

>  <PEOE_VSA5>
0

>  <PEOE_VSA6>
60.66

>  <PEOE_VSA7>
57.83

>  <PEOE_VSA8>
10.95

>  <PEOE_VSA9>
0

>  <PEOE_VSA10>
0

>  <PEOE_VSA11>
0

>  <PEOE_VSA12>
0

>  <PEOE_VSA13>
0

>  <SMR_VSA1>
0

>  <SMR_VSA2>
0

>  <SMR_VSA3>
4.9

>  <SMR_VSA4>
0

>  <SMR_VSA5>
44.57

>  <SMR_VSA6>
13.09

>  <SMR_VSA7>
71.79

>  <SMR_VSA8>
0

>  <SMR_VSA9>
0

>  <SlogP_VSA1>
0

>  <SlogP_VSA2>
23.53

>  <SlogP_VSA3>
5.41

>  <SlogP_VSA4>
0

>  <SlogP_VSA5>
44.74

>  <SlogP_VSA6>
60.66

>  <SlogP_VSA7>
0

>  <SlogP_VSA8>
0

>  <SlogP_VSA9>
0

>  <SlogP_VSA10>
0

>  <SlogP_VSA11>
0

>  <EState_VSA1>
0

>  <EState_VSA2>
10.95

>  <EState_VSA3>
0

>  <EState_VSA4>
13.09

>  <EState_VSA5>
23.97

>  <EState_VSA6>
0

>  <EState_VSA7>
0

>  <EState_VSA8>
86.33

>  <EState_VSA9>
0

>  <EState_VSA10>
0

>  <VSA_EState1>
0

>  <VSA_EState2>
2.62

>  <VSA_EState3>
0

>  <VSA_EState4>
3.37

>  <VSA_EState5>
0

>  <VSA_EState6>
22.16

>  <VSA_EState7>
2.39

>  <VSA_EState8>
9.29

>  <VSA_EState9>
0

>  <apol>
54.17

>  <bpol>
28.8

>  <nRing>
3

>  <nHRing>
1

>  <naRing>
2

>  <naHRing>
0

>  <nARing 2>
1

>  <nAHRing 2>
1

>  <nFRing>
0

>  <nFHRing>
0

>  <nFaRing>
0

>  <nFaHRing>
0

>  <nFARing 2>
0

>  <nFAHRing 2>
0

>  <nRot>
2

>  <SLogP>
4.87

>  <SMR>
94.22

>  <TopoPSA(NO)>
3.24

>  <TopoPSA>
3.24

>  <JGI1>
0.23

>  <JGI2>
0.1

>  <JGI3>
0.05

>  <JGI4>
0.02

>  <JGI5>
0.03

>  <Diameter>
9

>  <Radius>
5

>  <TMWC10>
121.22

>  <TSRW10>
56.64

>  <MW>
293.21

>  <AMW>
5.98

>  <WPath>
984

>  <WPol>
37

>  <Zagreb1>
118

>  <Zagreb2>
140

>  <mZagreb2>
4.75

>  <yes>


>  <nAR-cont>
0.816016

>  <nHA-cont>
0.983774276

>  <MWHBN>
0.058399699

>  <MWHBN-cont>
0.440209866

>  <TPSA-cont>
0.977382788

>  <pka_cont>
0.97

>  <yes.1>


>  <BBB_SCORE>
4.899870651

>  <MMFF94 Energy>
70.697

$$$$
Compound 640
Actelion Java MolfileCreator 2.0

  0  0  0  0  0  0              0 V3000
M  V30 BEGIN CTAB
M  V30 COUNTS 51 53 0 0 0
M  V30 BEGIN ATOM
M  V30 1 O -0.3937 0.6301 0.315 0
M  V30 2 C -0.199 0.5654 -1.0375 0
M  V30 3 C -1.7331 0.8179 0.7709 0
M  V30 4 C 1.1304 0.369 -1.4243 0
M  V30 5 C -1.1867 0.6772 -2.016 0
M  V30 6 C -1.7074 0.8508 2.2952 0
M  V30 7 C 1.4857 0.2789 -2.7786 0
M  V30 8 C -0.846 0.5918 -3.3683 0
M  V30 9 C -3.1063 1.0488 2.8677 0
M  V30 10 C 0.4811 0.3954 -3.7477 0
M  V30 11 C 2.9308 0.0771 -3.1843 0
M  V30 12 N -3.0504 1.0761 4.3078 0
M  V30 13 N 3.1436 -1.1266 -4.0052 0
M  V30 14 C -4.1142 1.2362 5.1506 0
M  V30 15 C 2.9139 -2.3811 -3.2705 0
M  V30 16 C 4.4739 -1.1302 -4.631 0
M  V30 17 N -3.8007 1.2269 6.4612 0
M  V30 18 C -5.4267 1.3982 4.7222 0
M  V30 19 C 4.0018 -2.7171 -2.2469 0
M  V30 20 C 5.6215 -1.4131 -3.6582 0
M  V30 21 C -4.8007 1.3799 7.3581 0
M  V30 22 C -6.4448 1.5547 5.6626 0
M  V30 23 C 5.3859 -2.7069 -2.8865 0
M  V30 24 C -6.128 1.5458 7.012 0
M  V30 25 H -2.3645 -0.013 0.4341 0
M  V30 26 H -2.1288 1.7678 0.3916 0
M  V30 27 H 1.8934 0.2821 -0.654 0
M  V30 28 H -2.2301 0.8297 -1.7639 0
M  V30 29 H -1.2663 -0.0796 2.6752 0
M  V30 30 H -1.0381 1.6523 2.634 0
M  V30 31 H -1.6174 0.6757 -4.1295 0
M  V30 32 H -3.5244 1.9902 2.4917 0
M  V30 33 H -3.7559 0.2308 2.5341 0
M  V30 34 H 0.7358 0.322 -4.8031 0
M  V30 35 H 3.5749 0.0816 -2.2972 0
M  V30 36 H 3.2099 0.9696 -3.761 0
M  V30 37 H -2.1696 0.9724 4.7975 0
M  V30 38 H 2.8596 -3.1968 -4.0039 0
M  V30 39 H 1.9343 -2.3792 -2.7791 0
M  V30 40 H 4.6537 -0.1805 -5.1497 0
M  V30 41 H 4.4807 -1.8952 -5.4185 0
M  V30 42 H -5.6747 1.4053 3.6679 0
M  V30 43 H 3.8063 -3.706 -1.8165 0
M  V30 44 H 3.9738 -2.0029 -1.4156 0
M  V30 45 H 5.7348 -0.5797 -2.9547 0
M  V30 46 H 6.5635 -1.4852 -4.2138 0
M  V30 47 H -4.4908 1.3645 8.3988 0
M  V30 48 H -7.4735 1.6819 5.3391 0
M  V30 49 H 6.1565 -2.8327 -2.1181 0
M  V30 50 H 5.4748 -3.559 -3.5718 0
M  V30 51 H -6.8911 1.6645 7.7721 0
M  V30 END ATOM
M  V30 BEGIN BOND
M  V30 1 1 1 2
M  V30 2 1 1 3
M  V30 3 2 2 4
M  V30 4 1 2 5
M  V30 5 1 3 6
M  V30 6 1 4 7
M  V30 7 2 5 8
M  V30 8 1 6 9
M  V30 9 2 7 10
M  V30 10 1 7 11
M  V30 11 1 9 12
M  V30 12 1 11 13
M  V30 13 1 12 14
M  V30 14 1 13 15
M  V30 15 1 13 16
M  V30 16 2 14 17
M  V30 17 1 14 18
M  V30 18 1 15 19
M  V30 19 1 16 20
M  V30 20 1 17 21
M  V30 21 2 18 22
M  V30 22 1 19 23
M  V30 23 2 21 24
M  V30 24 1 8 10
M  V30 25 1 20 23
M  V30 26 1 22 24
M  V30 27 1 3 25
M  V30 28 1 3 26
M  V30 29 1 4 27
M  V30 30 1 5 28
M  V30 31 1 6 29
M  V30 32 1 6 30
M  V30 33 1 8 31
M  V30 34 1 9 32
M  V30 35 1 9 33
M  V30 36 1 10 34
M  V30 37 1 11 35
M  V30 38 1 11 36
M  V30 39 1 12 37
M  V30 40 1 15 38
M  V30 41 1 15 39
M  V30 42 1 16 40
M  V30 43 1 16 41
M  V30 44 1 18 42
M  V30 45 1 19 43
M  V30 46 1 19 44
M  V30 47 1 20 45
M  V30 48 1 20 46
M  V30 49 1 21 47
M  V30 50 1 22 48
M  V30 51 1 23 49
M  V30 52 1 23 50
M  V30 53 1 24 51
M  V30 END BOND
M  V30 END CTAB
M  END
>  <Column 1>
770

>  <level_0>
881

>  <index>
881

>  <Unnamed: 0>
881

>  <NO.>
893

>  <Name>
chembl142149

>  <IUPAC_name>
n-[3-[3-(piperidin-1-ylmethyl)phenoxy]propyl]pyridin-2-amine

>  <SMILES>
c1ccc(NCCCOc2cccc(CN3CCCCC3)c2)nc1

>  <CID>
10019237

>  <logBB>
0.69

>  <BBB+/BBB->
BBB+

>  <Inchi>
InChI=1S/C20H27N3O/c1-4-13-23(14-5-1)17-18-8-6-9-19(16-18)24-15-7-12-22-20-10-2-3-11-21-20/h2-3-6-8-11-16H-1-4-5-7-12-15-17H2-(H-21-22)

>  <threshold>


>  <reference>
R2|R2|R3|R3|R8|R12|R18|R20|R21|R25|R26|R27|R27|R27|R35|R36|R38|R38|R41|R41|R43|R46|R47|R48|R49|R49|R4|R40|

>  <group>
A

>  <Class>
1

>  <ABC>
18.38

>  <ABCGG>
13.23

>  <nAcid>
0

>  <nBase>
1

>  <nAromAtom>
12

>  <nAromBond>
12

>  <nAtom>
51

>  <nHeavyAtom>
24

>  <nSpiro>
0

>  <nBridgehead>
0

>  <nHetero>
4

>  <nN>
3

>  <nO>
1

>  <nF>
0

>  <BalabanJ>
1.24

>  <BertzCT>
596.84

>  <nBonds>
53

>  <nBondsO>
26

>  <nBondsS>
41

>  <nBondsD>
0

>  <nBondsT>
0

>  <nBondsA>
12

>  <nBondsM>
12

>  <nBondsKS>
47

>  <nBondsKD>
6

>  <RNCG>
0.27

>  <RPCG>
0.09

>  <FCSP3>
0.45

>  <SZ>
29.33

>  <Sm>
27.1

>  <Sv>
30.3

>  <Sse>
50.31

>  <Sp>
33.24

>  <Si>
57.69

>  <MZ>
0.58

>  <Mm>
0.53

>  <Mv>
0.59

>  <Mse>
0.99

>  <Mp>
0.65

>  <Mi>
1.13

>  <NsCH3>
0

>  <NdCH2>
0

>  <NssCH2>
9

>  <NtCH>
0

>  <NdsCH>
0

>  <NaaCH>
8

>  <NsssCH>
0

>  <NddC>
0

>  <NtsC>
0

>  <NdssC>
0

>  <NaasC>
3

>  <NaaaC>
0

>  <NssssC>
0

>  <NsNH3>
0

>  <NsNH2>
0

>  <NssNH2>
0

>  <NdNH>
0

>  <NssNH>
1

>  <NaaNH>
0

>  <NtN>
0

>  <NsssNH>
0

>  <NdsN>
0

>  <NaaN>
1

>  <NsssN>
1

>  <NddsN>
0

>  <NaasN>
0

>  <NssssN>
0

>  <NsOH>
0

>  <NdO>
0

>  <NssO>
1

>  <NaaO>
0

>  <NsF>
0

>  <NsSiH3>
0

>  <NssSiH2>
0

>  <NsssSiH>
0

>  <NssssSi>
0

>  <NsPH2>
0

>  <NssPH>
0

>  <NsssP>
0

>  <NdsssP>
0

>  <NsssssP>
0

>  <NsSH>
0

>  <NdS>
0

>  <NssS>
0

>  <NaaS>
0

>  <NdssS>
0

>  <NddssS>
0

>  <NsCl>
0

>  <NsBr>
0

>  <NsI>
0

>  <fragCpx>
124.04

>  <fMF>
0.47

>  <nHBAcc>
4

>  <nHBDon>
1

>  <Kier1>
18.78

>  <Kier2>
10.87

>  <Lipinski>
1

>  <GhoseFilter>
1

>  <FilterItLogS>
-5.44

>  <VMcGowan>
270.09

>  <LabuteASA>
144.41

>  <PEOE_VSA1>
10.05

>  <PEOE_VSA2>
4.9

>  <PEOE_VSA3>
4.98

>  <PEOE_VSA4>
0

>  <PEOE_VSA5>
0

>  <PEOE_VSA6>
24.62

>  <PEOE_VSA7>
62.18

>  <PEOE_VSA8>
19.29

>  <PEOE_VSA9>
6.61

>  <PEOE_VSA10>
11.57

>  <PEOE_VSA11>
0

>  <PEOE_VSA12>
0

>  <PEOE_VSA13>
0

>  <SMR_VSA1>
4.74

>  <SMR_VSA2>
0

>  <SMR_VSA3>
9.88

>  <SMR_VSA4>
0

>  <SMR_VSA5>
32.23

>  <SMR_VSA6>
31.56

>  <SMR_VSA7>
54.22

>  <SMR_VSA8>
0

>  <SMR_VSA9>
5.75

>  <SlogP_VSA1>
10.05

>  <SlogP_VSA2>
36.13

>  <SlogP_VSA3>
6.54

>  <SlogP_VSA4>
0

>  <SlogP_VSA5>
31.25

>  <SlogP_VSA6>
48.66

>  <SlogP_VSA7>
0

>  <SlogP_VSA8>
0

>  <SlogP_VSA9>
0

>  <SlogP_VSA10>
5.82

>  <SlogP_VSA11>
5.75

>  <EState_VSA1>
0

>  <EState_VSA2>
0

>  <EState_VSA3>
6.61

>  <EState_VSA4>
31.08

>  <EState_VSA5>
37.92

>  <EState_VSA6>
6.2

>  <EState_VSA7>
24.27

>  <EState_VSA8>
33.4

>  <EState_VSA9>
4.74

>  <EState_VSA10>
0

>  <VSA_EState1>
5.89

>  <VSA_EState2>
6.79

>  <VSA_EState3>
3.3

>  <VSA_EState4>
1.35

>  <VSA_EState5>
1.89

>  <VSA_EState6>
14.41

>  <VSA_EState7>
6.8

>  <VSA_EState8>
5.07

>  <VSA_EState9>
0

>  <apol>
55.51

>  <bpol>
32.24

>  <nRing>
3

>  <nHRing>
2

>  <naRing>
2

>  <naHRing>
1

>  <nARing 2>
1

>  <nAHRing 2>
1

>  <nFRing>
0

>  <nFHRing>
0

>  <nFaRing>
0

>  <nFaHRing>
0

>  <nFARing 2>
0

>  <nFAHRing 2>
0

>  <nRot>
8

>  <SLogP>
3.95

>  <SMR>
98.41

>  <TopoPSA(NO)>
37.39

>  <TopoPSA>
37.39

>  <JGI1>
0.12

>  <JGI2>
0.03

>  <JGI3>
0.03

>  <JGI4>
0.02

>  <JGI5>
0.01

>  <Diameter>
16

>  <Radius>
8

>  <TMWC10>
121.76

>  <TSRW10>
57.57

>  <MW>
325.22

>  <AMW>
6.38

>  <WPath>
1721

>  <WPol>
29

>  <Zagreb1>
116

>  <Zagreb2>
128

>  <mZagreb2>
5.5

>  <yes>


>  <nAR-cont>
0.816016

>  <nHA-cont>
0.94700071

>  <MWHBN>
0.277256273

>  <MWHBN-cont>
0.902933357

>  <TPSA-cont>
0.738994582

>  <pka_cont>
0.97

>  <yes.1>


>  <BBB_SCORE>
5.080405909

>  <MMFF94 Energy>
-4.6527

$$$$
Compound 641
Actelion Java MolfileCreator 2.0

  0  0  0  0  0  0              0 V3000
M  V30 BEGIN CTAB
M  V30 COUNTS 31 31 0 0 0
M  V30 BEGIN ATOM
M  V30 1 O -1.4766 -1.0879 -0.233 0
M  V30 2 C -0.3943 -0.272 -0.0294 0
M  V30 3 C 0.8206 -0.8929 0.3172 0
M  V30 4 C -0.5053 1.1264 -0.1746 0
M  V30 5 C 1.9568 -0.0839 0.4723 0
M  V30 6 C 0.921 -2.4016 0.4986 0
M  V30 7 C 0.6632 1.8924 -0.0273 0
M  V30 8 C -1.832 1.8051 -0.491 0
M  V30 9 C 1.8807 1.2946 0.2935 0
M  V30 10 C 1.7949 -3.0324 -0.5889 0
M  V30 11 C 1.4326 -2.7759 1.8936 0
M  V30 12 C -2.0656 3.105 0.2898 0
M  V30 13 C -1.9549 2.056 -1.9953 0
M  V30 14 H -2.06 -0.6673 -0.8831 0
M  V30 15 H 2.9179 -0.5248 0.7256 0
M  V30 16 H -0.0742 -2.8519 0.4073 0
M  V30 17 H 0.6435 2.9711 -0.1603 0
M  V30 18 H -2.6498 1.1407 -0.1869 0
M  V30 19 H 2.772 1.906 0.4083 0
M  V30 20 H 2.8335 -2.6891 -0.5306 0
M  V30 21 H 1.7999 -4.1236 -0.4939 0
M  V30 22 H 1.4167 -2.7846 -1.5869 0
M  V30 23 H 2.4649 -2.4485 2.057 0
M  V30 24 H 0.8098 -2.3227 2.673 0
M  V30 25 H 1.4057 -3.8621 2.0329 0
M  V30 26 H -1.3915 3.9076 -0.0265 0
M  V30 27 H -3.0895 3.4629 0.1337 0
M  V30 28 H -1.9271 2.9478 1.3652 0
M  V30 29 H -1.1812 2.7447 -2.3528 0
M  V30 30 H -1.8557 1.1233 -2.5613 0
M  V30 31 H -2.9304 2.4914 -2.2373 0
M  V30 END ATOM
M  V30 BEGIN BOND
M  V30 1 1 1 2
M  V30 2 2 2 3
M  V30 3 1 2 4
M  V30 4 1 3 5
M  V30 5 1 3 6
M  V30 6 2 4 7
M  V30 7 1 4 8
M  V30 8 2 5 9
M  V30 9 1 6 10
M  V30 10 1 6 11
M  V30 11 1 8 12
M  V30 12 1 8 13
M  V30 13 1 7 9
M  V30 14 1 1 14
M  V30 15 1 5 15
M  V30 16 1 6 16
M  V30 17 1 7 17
M  V30 18 1 8 18
M  V30 19 1 9 19
M  V30 20 1 10 20
M  V30 21 1 10 21
M  V30 22 1 10 22
M  V30 23 1 11 23
M  V30 24 1 11 24
M  V30 25 1 11 25
M  V30 26 1 12 26
M  V30 27 1 12 27
M  V30 28 1 12 28
M  V30 29 1 13 29
M  V30 30 1 13 30
M  V30 31 1 13 31
M  V30 END BOND
M  V30 END CTAB
M  END
>  <Column 1>
771

>  <level_0>
882

>  <index>
882

>  <Unnamed: 0>
882

>  <NO.>
894

>  <Name>
propofol;diprivan

>  <IUPAC_name>
2-6-di(propan-2-yl)phenol

>  <SMILES>
CC(C)c1cccc(C(C)C)c1O

>  <CID>
4943

>  <logBB>
0.7

>  <BBB+/BBB->
BBB+

>  <Inchi>
InChI=1S/C12H18O/c1-8(2)10-6-5-7-11(9(3)4)12(10)13/h5-9-13H-1-4H3

>  <threshold>


>  <reference>
R3|R11|R18|R26|R27|R42|R47|R8|R21|R27|R43|R2|R2|R27|R40|R38|R25|R41|R46|R3|

>  <group>
A

>  <Class>
1

>  <ABC>
9.58

>  <ABCGG>
9.26

>  <nAcid>
0

>  <nBase>
0

>  <nAromAtom>
6

>  <nAromBond>
6

>  <nAtom>
31

>  <nHeavyAtom>
13

>  <nSpiro>
0

>  <nBridgehead>
0

>  <nHetero>
1

>  <nN>
0

>  <nO>
1

>  <nF>
0

>  <BalabanJ>
2.6

>  <BertzCT>
260.93

>  <nBonds>
31

>  <nBondsO>
13

>  <nBondsS>
25

>  <nBondsD>
0

>  <nBondsT>
0

>  <nBondsA>
6

>  <nBondsM>
6

>  <nBondsKS>
28

>  <nBondsKD>
3

>  <RNCG>
0.53

>  <RPCG>
0.31

>  <FCSP3>
0.5

>  <SZ>
16.33

>  <Sm>
14.84

>  <Sv>
17.59

>  <Sse>
30.32

>  <Sp>
19.67

>  <Si>
34.95

>  <MZ>
0.53

>  <Mm>
0.48

>  <Mv>
0.57

>  <Mse>
0.98

>  <Mp>
0.63

>  <Mi>
1.13

>  <NsCH3>
4

>  <NdCH2>
0

>  <NssCH2>
0

>  <NtCH>
0

>  <NdsCH>
0

>  <NaaCH>
3

>  <NsssCH>
2

>  <NddC>
0

>  <NtsC>
0

>  <NdssC>
0

>  <NaasC>
3

>  <NaaaC>
0

>  <NssssC>
0

>  <NsNH3>
0

>  <NsNH2>
0

>  <NssNH2>
0

>  <NdNH>
0

>  <NssNH>
0

>  <NaaNH>
0

>  <NtN>
0

>  <NsssNH>
0

>  <NdsN>
0

>  <NaaN>
0

>  <NsssN>
0

>  <NddsN>
0

>  <NaasN>
0

>  <NssssN>
0

>  <NsOH>
1

>  <NdO>
0

>  <NssO>
0

>  <NaaO>
0

>  <NsF>
0

>  <NsSiH3>
0

>  <NssSiH2>
0

>  <NsssSiH>
0

>  <NssssSi>
0

>  <NsPH2>
0

>  <NssPH>
0

>  <NsssP>
0

>  <NdsssP>
0

>  <NsssssP>
0

>  <NsSH>
0

>  <NdS>
0

>  <NssS>
0

>  <NaaS>
0

>  <NdssS>
0

>  <NddssS>
0

>  <NsCl>
0

>  <NsBr>
0

>  <NsI>
0

>  <fragCpx>
13.01

>  <fMF>
0.19

>  <nHBAcc>
1

>  <nHBDon>
1

>  <Kier1>
11.08

>  <Kier2>
4.48

>  <Lipinski>
1

>  <GhoseFilter>
1

>  <FilterItLogS>
-3.01

>  <VMcGowan>
162.05

>  <LabuteASA>
80.42

>  <PEOE_VSA1>
5.11

>  <PEOE_VSA2>
0

>  <PEOE_VSA3>
0

>  <PEOE_VSA4>
0

>  <PEOE_VSA5>
0

>  <PEOE_VSA6>
45.89

>  <PEOE_VSA7>
22.96

>  <PEOE_VSA8>
0

>  <PEOE_VSA9>
0

>  <PEOE_VSA10>
5.75

>  <PEOE_VSA11>
0

>  <PEOE_VSA12>
0

>  <PEOE_VSA13>
0

>  <SMR_VSA1>
5.11

>  <SMR_VSA2>
0

>  <SMR_VSA3>
0

>  <SMR_VSA4>
0

>  <SMR_VSA5>
39.53

>  <SMR_VSA6>
0

>  <SMR_VSA7>
29.33

>  <SMR_VSA8>
0

>  <SMR_VSA9>
5.75

>  <SlogP_VSA1>
0

>  <SlogP_VSA2>
5.11

>  <SlogP_VSA3>
0

>  <SlogP_VSA4>
0

>  <SlogP_VSA5>
50.66

>  <SlogP_VSA6>
18.2

>  <SlogP_VSA7>
0

>  <SlogP_VSA8>
0

>  <SlogP_VSA9>
0

>  <SlogP_VSA10>
0

>  <SlogP_VSA11>
5.75

>  <EState_VSA1>
0

>  <EState_VSA2>
0

>  <EState_VSA3>
17.59

>  <EState_VSA4>
11.13

>  <EState_VSA5>
0

>  <EState_VSA6>
0

>  <EState_VSA7>
18.2

>  <EState_VSA8>
27.69

>  <EState_VSA9>
0

>  <EState_VSA10>
5.11

>  <VSA_EState1>
0

>  <VSA_EState2>
0

>  <VSA_EState3>
9.93

>  <VSA_EState4>
2.09

>  <VSA_EState5>
1.25

>  <VSA_EState6>
6

>  <VSA_EState7>
0

>  <VSA_EState8>
8.39

>  <VSA_EState9>
0

>  <apol>
32.84

>  <bpol>
18.06

>  <nRing>
1

>  <nHRing>
0

>  <naRing>
1

>  <naHRing>
0

>  <nARing 2>
0

>  <nAHRing 2>
0

>  <nFRing>
0

>  <nFHRing>
0

>  <nFaRing>
0

>  <nFaHRing>
0

>  <nFARing 2>
0

>  <nFAHRing 2>
0

>  <nRot>
2

>  <SLogP>
3.64

>  <SMR>
56.28

>  <TopoPSA(NO)>
20.23

>  <TopoPSA>
20.23

>  <JGI1>
0.23

>  <JGI2>
0.11

>  <JGI3>
0.08

>  <JGI4>
0.04

>  <JGI5>
0.06

>  <Diameter>
6

>  <Radius>
3

>  <TMWC10>
93.82

>  <TSRW10>
44.06

>  <MW>
178.14

>  <AMW>
5.75

>  <WPath>
234

>  <WPol>
19

>  <Zagreb1>
62

>  <Zagreb2>
71

>  <mZagreb2>
2.94

>  <yes>


>  <nAR-cont>
0.336376

>  <nHA-cont>
0.841215992

>  <MWHBN>
0.149847421

>  <MWHBN-cont>
0.932117767

>  <TPSA-cont>
0.858782038

>  <pka_cont>
0.97

>  <yes.1>


>  <BBB_SCORE>
4.778332718

>  <MMFF94 Energy>
25.095

$$$$
Compound 642
Actelion Java MolfileCreator 2.0

  0  0  0  0  0  0              0 V3000
M  V30 BEGIN CTAB
M  V30 COUNTS 44 45 0 0 0
M  V30 BEGIN ATOM
M  V30 1 O 0.3932 0.9439 -4.1744 0
M  V30 2 C -0.0868 1.3809 -2.9698 0
M  V30 3 C -0.1197 1.5766 -5.3392 0
M  V30 4 C 0.4914 0.7676 -1.8521 0
M  V30 5 C -1.0709 2.3489 -2.7842 0
M  V30 6 C 0.1001 1.0946 -0.5406 0
M  V30 7 C -1.4655 2.7022 -1.4935 0
M  V30 8 C -0.8845 2.0848 -0.3842 0
M  V30 9 C 0.7381 0.4127 0.6761 0 CFG=2
M  V30 10 O 1.6131 -0.6387 0.2386 0
M  V30 11 C -0.3069 -0.183 1.6772 0 CFG=2
M  V30 12 C 1.6401 1.4446 1.3961 0
M  V30 13 C 0.3963 -0.7503 2.927 0
M  V30 14 C -1.2646 -1.2249 1.0346 0
M  V30 15 C 2.2945 0.8823 2.6583 0
M  V30 16 C 1.2586 0.3046 3.6142 0
M  V30 17 N -0.5738 -2.3797 0.4227 0
M  V30 18 C -1.1645 -2.6957 -0.8864 0
M  V30 19 C -0.6669 -3.5709 1.2772 0
M  V30 20 H -1.1941 1.394 -5.446 0
M  V30 21 H 0.3801 1.1354 -6.2069 0
M  V30 22 H 0.1013 2.6491 -5.3374 0
M  V30 23 H 1.2661 0.021 -2.0188 0
M  V30 24 H -1.5467 2.8502 -3.6197 0
M  V30 25 H -2.2265 3.4655 -1.3507 0
M  V30 26 H -1.2077 2.3948 0.6067 0
M  V30 27 H 1.047 -1.4358 0.1438 0
M  V30 28 H -0.9502 0.6341 2.0331 0
M  V30 29 H 2.4377 1.7823 0.7212 0
M  V30 30 H 1.0618 2.3353 1.674 0
M  V30 31 H 1.0364 -1.5989 2.6616 0
M  V30 32 H -0.3513 -1.1202 3.6386 0
M  V30 33 H -1.8615 -0.6963 0.2797 0
M  V30 34 H -1.9985 -1.5554 1.7824 0
M  V30 35 H 3.0195 0.1054 2.3874 0
M  V30 36 H 2.8572 1.676 3.1629 0
M  V30 37 H 0.6198 1.1101 3.9966 0
M  V30 38 H 1.7642 -0.1397 4.479 0
M  V30 39 H -1.062 -1.8477 -1.5713 0
M  V30 40 H -2.2274 -2.952 -0.8088 0
M  V30 41 H -0.6373 -3.5359 -1.352 0
M  V30 42 H -1.7034 -3.9022 1.4118 0
M  V30 43 H -0.2388 -3.3915 2.2671 0
M  V30 44 H -0.0969 -4.3975 0.8384 0
M  V30 END ATOM
M  V30 BEGIN BOND
M  V30 1 1 1 2
M  V30 2 1 1 3
M  V30 3 2 2 4
M  V30 4 1 2 5
M  V30 5 1 4 6
M  V30 6 2 5 7
M  V30 7 2 6 8
M  V30 8 1 6 9
M  V30 9 1 9 10
M  V30 10 1 9 11
M  V30 11 1 9 12
M  V30 12 1 11 13
M  V30 13 1 11 14
M  V30 14 1 12 15
M  V30 15 1 13 16
M  V30 16 1 14 17
M  V30 17 1 17 18
M  V30 18 1 17 19
M  V30 19 1 7 8
M  V30 20 1 15 16
M  V30 21 1 3 20
M  V30 22 1 3 21
M  V30 23 1 3 22
M  V30 24 1 4 23
M  V30 25 1 5 24
M  V30 26 1 7 25
M  V30 27 1 8 26
M  V30 28 1 10 27
M  V30 29 1 11 28
M  V30 30 1 12 29
M  V30 31 1 12 30
M  V30 32 1 13 31
M  V30 33 1 13 32
M  V30 34 1 14 33
M  V30 35 1 14 34
M  V30 36 1 15 35
M  V30 37 1 15 36
M  V30 38 1 16 37
M  V30 39 1 16 38
M  V30 40 1 18 39
M  V30 41 1 18 40
M  V30 42 1 18 41
M  V30 43 1 19 42
M  V30 44 1 19 43
M  V30 45 1 19 44
M  V30 END BOND
M  V30 BEGIN COLLECTION
M  V30 MDLV30/STEABS ATOMS=(2 9 11)
M  V30 END COLLECTION
M  V30 END CTAB
M  END
>  <Column 1>
772

>  <level_0>
883

>  <index>
883

>  <Unnamed: 0>
883

>  <NO.>
895

>  <Name>
tramadol

>  <IUPAC_name>
(1r-2r)-2-[(dimethylamino)methyl]-1-(3-methoxyphenyl)cyclohexan-1-ol

>  <SMILES>
COc1cccc([C@@]2(O)CCCC[C@@H]2CN(C)C)c1

>  <CID>
33741

>  <logBB>
0.7

>  <BBB+/BBB->
BBB+

>  <Inchi>
InChI=1S/C16H25NO2/c1-17(2)12-14-7-4-5-10-16(14-18)13-8-6-9-15(11-13)19-3/h6-8-9-11-14-18H-4-5-7-10-12H2-1-3H3/t14--16+/m1/s1

>  <threshold>


>  <reference>
R20|R42|R2|R2|R25|R27|R46|

>  <group>
A

>  <Class>
1

>  <ABC>
14.4

>  <ABCGG>
12.6

>  <nAcid>
0

>  <nBase>
1

>  <nAromAtom>
6

>  <nAromBond>
6

>  <nAtom>
44

>  <nHeavyAtom>
19

>  <nSpiro>
0

>  <nBridgehead>
0

>  <nHetero>
3

>  <nN>
1

>  <nO>
2

>  <nF>
0

>  <BalabanJ>
2.07

>  <BertzCT>
418.96

>  <nBonds>
45

>  <nBondsO>
20

>  <nBondsS>
39

>  <nBondsD>
0

>  <nBondsT>
0

>  <nBondsA>
6

>  <nBondsM>
6

>  <nBondsKS>
42

>  <nBondsKD>
3

>  <RNCG>
0.32

>  <RPCG>
0.14

>  <FCSP3>
0.63

>  <SZ>
24

>  <Sm>
21.93

>  <Sv>
24.96

>  <Sse>
43.42

>  <Sp>
27.6

>  <Si>
49.9

>  <MZ>
0.55

>  <Mm>
0.5

>  <Mv>
0.57

>  <Mse>
0.99

>  <Mp>
0.63

>  <Mi>
1.13

>  <NsCH3>
3

>  <NdCH2>
0

>  <NssCH2>
5

>  <NtCH>
0

>  <NdsCH>
0

>  <NaaCH>
4

>  <NsssCH>
1

>  <NddC>
0

>  <NtsC>
0

>  <NdssC>
0

>  <NaasC>
2

>  <NaaaC>
0

>  <NssssC>
1

>  <NsNH3>
0

>  <NsNH2>
0

>  <NssNH2>
0

>  <NdNH>
0

>  <NssNH>
0

>  <NaaNH>
0

>  <NtN>
0

>  <NsssNH>
0

>  <NdsN>
0

>  <NaaN>
0

>  <NsssN>
1

>  <NddsN>
0

>  <NaasN>
0

>  <NssssN>
0

>  <NsOH>
1

>  <NdO>
0

>  <NssO>
1

>  <NaaO>
0

>  <NsF>
0

>  <NsSiH3>
0

>  <NssSiH2>
0

>  <NsssSiH>
0

>  <NssssSi>
0

>  <NsPH2>
0

>  <NssPH>
0

>  <NsssP>
0

>  <NdsssP>
0

>  <NsssssP>
0

>  <NsSH>
0

>  <NdS>
0

>  <NssS>
0

>  <NaaS>
0

>  <NdssS>
0

>  <NddssS>
0

>  <NsCl>
0

>  <NsBr>
0

>  <NsI>
0

>  <fragCpx>
58.03

>  <fMF>
0.27

>  <nHBAcc>
3

>  <nHBDon>
1

>  <Kier1>
15.39

>  <Kier2>
6.64

>  <Lipinski>
1

>  <GhoseFilter>
1

>  <FilterItLogS>
-3.29

>  <VMcGowan>
223.4

>  <LabuteASA>
115.74

>  <PEOE_VSA1>
14.74

>  <PEOE_VSA2>
0

>  <PEOE_VSA3>
0

>  <PEOE_VSA4>
0

>  <PEOE_VSA5>
0

>  <PEOE_VSA6>
24.97

>  <PEOE_VSA7>
44.63

>  <PEOE_VSA8>
12.46

>  <PEOE_VSA9>
12.71

>  <PEOE_VSA10>
5.75

>  <PEOE_VSA11>
0

>  <PEOE_VSA12>
0

>  <PEOE_VSA13>
0

>  <SMR_VSA1>
9.84

>  <SMR_VSA2>
0

>  <SMR_VSA3>
4.9

>  <SMR_VSA4>
5.92

>  <SMR_VSA5>
31.28

>  <SMR_VSA6>
27.75

>  <SMR_VSA7>
29.83

>  <SMR_VSA8>
0

>  <SMR_VSA9>
5.75

>  <SlogP_VSA1>
4.74

>  <SlogP_VSA2>
37.76

>  <SlogP_VSA3>
5.6

>  <SlogP_VSA4>
5.92

>  <SlogP_VSA5>
31.25

>  <SlogP_VSA6>
24.27

>  <SlogP_VSA7>
0

>  <SlogP_VSA8>
0

>  <SlogP_VSA9>
0

>  <SlogP_VSA10>
0

>  <SlogP_VSA11>
5.75

>  <EState_VSA1>
5.6

>  <EState_VSA2>
0

>  <EState_VSA3>
5.92

>  <EState_VSA4>
37.12

>  <EState_VSA5>
6.42

>  <EState_VSA6>
7.11

>  <EState_VSA7>
24.27

>  <EState_VSA8>
19

>  <EState_VSA9>
4.74

>  <EState_VSA10>
5.11

>  <VSA_EState1>
5.29

>  <VSA_EState2>
2.17

>  <VSA_EState3>
11.19

>  <VSA_EState4>
0.29

>  <VSA_EState5>
1.11

>  <VSA_EState6>
7.9

>  <VSA_EState7>
4.24

>  <VSA_EState8>
0.92

>  <VSA_EState9>
5.81

>  <apol>
46.09

>  <bpol>
28.53

>  <nRing>
2

>  <nHRing>
0

>  <naRing>
1

>  <naHRing>
0

>  <nARing 2>
1

>  <nAHRing 2>
0

>  <nFRing>
0

>  <nFHRing>
0

>  <nFaRing>
0

>  <nFaHRing>
0

>  <nFARing 2>
0

>  <nFAHRing 2>
0

>  <nRot>
4

>  <SLogP>
2.63

>  <SMR>
77.4

>  <TopoPSA(NO)>
32.7

>  <TopoPSA>
32.7

>  <JGI1>
0.25

>  <JGI2>
0.1

>  <JGI3>
0.06

>  <JGI4>
0.04

>  <JGI5>
0.03

>  <Diameter>
9

>  <Radius>
5

>  <TMWC10>
111.8

>  <TSRW10>
52.45

>  <MW>
263.19

>  <AMW>
5.98

>  <WPath>
670

>  <WPol>
30

>  <Zagreb1>
96

>  <Zagreb2>
112

>  <mZagreb2>
4.29

>  <yes>


>  <nAR-cont>
0.816016

>  <nHA-cont>
0.998649058

>  <MWHBN>
0.24656152

>  <MWHBN-cont>
0.965369232

>  <TPSA-cont>
0.771733695

>  <pka_cont>
0.97

>  <yes.1>


>  <BBB_SCORE>
5.291186294

>  <MMFF94 Energy>
48.395

$$$$
Compound 643
Actelion Java MolfileCreator 2.0

  0  0  0  0  0  0              0 V3000
M  V30 BEGIN CTAB
M  V30 COUNTS 35 38 0 0 0
M  V30 BEGIN ATOM
M  V30 1 Cl -0.4953 4.0506 0.743 0
M  V30 2 C -1.7255 2.8505 0.5783 0
M  V30 3 C -1.4382 1.4813 0.547 0
M  V30 4 C -3.0462 3.2791 0.4217 0
M  V30 5 C -0.0557 0.9673 0.7234 0
M  V30 6 C -2.4654 0.5448 0.3706 0
M  V30 7 C -4.071 2.3465 0.2411 0
M  V30 8 N 0.4411 1.0506 1.91 0
M  V30 9 C 0.6183 0.3749 -0.4764 0
M  V30 10 C -3.7812 0.9819 0.2161 0
M  V30 11 C 1.787 0.5589 2.193 0
M  V30 12 C 1.383 -0.8061 -0.4257 0
M  V30 13 C 0.4691 1.0357 -1.7074 0
M  V30 14 C 1.8368 -0.9069 2.0071 0
M  V30 15 N 1.5817 -1.4942 0.7918 0
M  V30 16 C 2.0131 -1.2898 -1.5839 0
M  V30 17 C 1.0783 0.5321 -2.8561 0
M  V30 18 N 2.0959 -1.8348 2.9028 0
M  V30 19 C 1.5921 -2.8538 1.0438 0
M  V30 20 C 1.8513 -0.623 -2.7988 0
M  V30 21 Cl 0.8853 1.3548 -4.3541 0
M  V30 22 N 1.9438 -3.0553 2.298 0
M  V30 23 C 1.2191 -3.9181 0.0838 0
M  V30 24 H -3.2856 4.3399 0.4393 0
M  V30 25 H -2.2507 -0.5208 0.3747 0
M  V30 26 H -5.0983 2.6859 0.1257 0
M  V30 27 H -4.5838 0.2588 0.0876 0
M  V30 28 H 2.534 1.0707 1.5747 0
M  V30 29 H 2.0285 0.8015 3.2338 0
M  V30 30 H -0.1028 1.9575 -1.7826 0
M  V30 31 H 2.6587 -2.1653 -1.5595 0
M  V30 32 H 2.3419 -1.0014 -3.693 0
M  V30 33 H 0.4031 -3.6035 -0.5735 0
M  V30 34 H 0.8794 -4.8084 0.6235 0
M  V30 35 H 2.0794 -4.2082 -0.5258 0
M  V30 END ATOM
M  V30 BEGIN BOND
M  V30 1 1 1 2
M  V30 2 2 2 3
M  V30 3 1 2 4
M  V30 4 1 3 5
M  V30 5 1 3 6
M  V30 6 2 4 7
M  V30 7 2 5 8
M  V30 8 1 5 9
M  V30 9 2 6 10
M  V30 10 1 8 11
M  V30 11 2 9 12
M  V30 12 1 9 13
M  V30 13 1 11 14
M  V30 14 1 12 15
M  V30 15 1 12 16
M  V30 16 2 13 17
M  V30 17 2 14 18
M  V30 18 1 15 19
M  V30 19 2 16 20
M  V30 20 1 17 21
M  V30 21 1 18 22
M  V30 22 1 19 23
M  V30 23 1 7 10
M  V30 24 1 14 15
M  V30 25 1 17 20
M  V30 26 2 19 22
M  V30 27 1 4 24
M  V30 28 1 6 25
M  V30 29 1 7 26
M  V30 30 1 10 27
M  V30 31 1 11 28
M  V30 32 1 11 29
M  V30 33 1 13 30
M  V30 34 1 16 31
M  V30 35 1 20 32
M  V30 36 1 23 33
M  V30 37 1 23 34
M  V30 38 1 23 35
M  V30 END BOND
M  V30 END CTAB
M  END
>  <Column 1>
773

>  <level_0>
884

>  <index>
884

>  <Unnamed: 0>
884

>  <NO.>
896

>  <Name>
28911-01-5

>  <IUPAC_name>
8-chloro-6-(2-chlorophenyl)-1-methyl-4h-[1-2-4]triazolo[4-3-a][1-4]benzodiazepine

>  <SMILES>
Cc1nnc2n1-c1ccc(Cl)cc1C(c1ccccc1Cl)=NC2

>  <CID>
5556

>  <logBB>
0.7

>  <BBB+/BBB->
BBB+

>  <Inchi>
InChI=1S/C17H12Cl2N4/c1-10-21-22-16-9-20-17(12-4-2-3-5-14(12)19)13-8-11(18)6-7-15(13)23(10)16/h2-8H-9H2-1H3

>  <threshold>


>  <reference>
R25|R46|R3|R4|R40|R2|R2|R27|R21|R27|R8|R11|R12|R36|R39|R43|R44|R47|

>  <group>
A

>  <Class>
1

>  <ABC>
18.43

>  <ABCGG>
15.09

>  <nAcid>
0

>  <nBase>
0

>  <nAromAtom>
17

>  <nAromBond>
17

>  <nAtom>
35

>  <nHeavyAtom>
23

>  <nSpiro>
0

>  <nBridgehead>
0

>  <nHetero>
6

>  <nN>
4

>  <nO>
0

>  <nF>
0

>  <BalabanJ>
1.61

>  <BertzCT>
943.52

>  <nBonds>
38

>  <nBondsO>
26

>  <nBondsS>
20

>  <nBondsD>
1

>  <nBondsT>
0

>  <nBondsA>
17

>  <nBondsM>
18

>  <nBondsKS>
29

>  <nBondsKD>
9

>  <RNCG>
0.21

>  <RPCG>
0.12

>  <FCSP3>
0.12

>  <SZ>
29.33

>  <Sm>
28.57

>  <Sv>
25.46

>  <Sse>
35.51

>  <Sp>
27.04

>  <Si>
38.96

>  <MZ>
0.84

>  <Mm>
0.82

>  <Mv>
0.73

>  <Mse>
1.01

>  <Mp>
0.77

>  <Mi>
1.11

>  <NsCH3>
1

>  <NdCH2>
0

>  <NssCH2>
1

>  <NtCH>
0

>  <NdsCH>
0

>  <NaaCH>
7

>  <NsssCH>
0

>  <NddC>
0

>  <NtsC>
0

>  <NdssC>
1

>  <NaasC>
7

>  <NaaaC>
0

>  <NssssC>
0

>  <NsNH3>
0

>  <NsNH2>
0

>  <NssNH2>
0

>  <NdNH>
0

>  <NssNH>
0

>  <NaaNH>
0

>  <NtN>
0

>  <NsssNH>
0

>  <NdsN>
1

>  <NaaN>
2

>  <NsssN>
0

>  <NddsN>
0

>  <NaasN>
1

>  <NssssN>
0

>  <NsOH>
0

>  <NdO>
0

>  <NssO>
0

>  <NaaO>
0

>  <NsF>
0

>  <NsSiH3>
0

>  <NssSiH2>
0

>  <NsssSiH>
0

>  <NssssSi>
0

>  <NsPH2>
0

>  <NssPH>
0

>  <NsssP>
0

>  <NdsssP>
0

>  <NsssssP>
0

>  <NsSH>
0

>  <NdS>
0

>  <NssS>
0

>  <NaaS>
0

>  <NdssS>
0

>  <NddssS>
0

>  <NsCl>
2

>  <NsBr>
0

>  <NsI>
0

>  <fragCpx>
170.06

>  <fMF>
0.57

>  <nHBAcc>
4

>  <nHBDon>
0

>  <Kier1>
16.47

>  <Kier2>
6.72

>  <Lipinski>
1

>  <GhoseFilter>
1

>  <FilterItLogS>
-6.18

>  <VMcGowan>
232.65

>  <LabuteASA>
142.96

>  <PEOE_VSA1>
0

>  <PEOE_VSA2>
9.56

>  <PEOE_VSA3>
0

>  <PEOE_VSA4>
0

>  <PEOE_VSA5>
10.2

>  <PEOE_VSA6>
41.4

>  <PEOE_VSA7>
31.19

>  <PEOE_VSA8>
21.17

>  <PEOE_VSA9>
11.4

>  <PEOE_VSA10>
12.37

>  <PEOE_VSA11>
5.82

>  <PEOE_VSA12>
0

>  <PEOE_VSA13>
0

>  <SMR_VSA1>
0

>  <SMR_VSA2>
0

>  <SMR_VSA3>
14.76

>  <SMR_VSA4>
4.99

>  <SMR_VSA5>
13.47

>  <SMR_VSA6>
0

>  <SMR_VSA7>
75.29

>  <SMR_VSA8>
0

>  <SMR_VSA9>
5.69

>  <SlogP_VSA1>
0

>  <SlogP_VSA2>
20.48

>  <SlogP_VSA3>
6.54

>  <SlogP_VSA4>
6.92

>  <SlogP_VSA5>
22.78

>  <SlogP_VSA6>
47.46

>  <SlogP_VSA7>
10.05

>  <SlogP_VSA8>
5.69

>  <SlogP_VSA9>
0

>  <SlogP_VSA10>
0

>  <SlogP_VSA11>
0

>  <EState_VSA1>
0

>  <EState_VSA2>
0

>  <EState_VSA3>
16.59

>  <EState_VSA4>
34.17

>  <EState_VSA5>
0

>  <EState_VSA6>
0

>  <EState_VSA7>
53.96

>  <EState_VSA8>
10.2

>  <EState_VSA9>
28.19

>  <EState_VSA10>
0

>  <VSA_EState1>
2.01

>  <VSA_EState2>
4.74

>  <VSA_EState3>
9.7

>  <VSA_EState4>
3.59

>  <VSA_EState5>
1.62

>  <VSA_EState6>
13.41

>  <VSA_EState7>
0

>  <VSA_EState8>
2.36

>  <VSA_EState9>
0

>  <apol>
45.15

>  <bpol>
17.05

>  <nRing>
4

>  <nHRing>
2

>  <naRing>
3

>  <naHRing>
1

>  <nARing 2>
1

>  <nAHRing 2>
1

>  <nFRing>
1

>  <nFHRing>
1

>  <nFaRing>
0

>  <nFaHRing>
0

>  <nFARing 2>
1

>  <nFAHRing 2>
1

>  <nRot>
1

>  <SLogP>
4.23

>  <SMR>
91.9

>  <TopoPSA(NO)>
43.07

>  <TopoPSA>
43.07

>  <JGI1>
0.15

>  <JGI2>
0.08

>  <JGI3>
0.05

>  <JGI4>
0.04

>  <JGI5>
0.02

>  <Diameter>
9

>  <Radius>
5

>  <TMWC10>
125.42

>  <TSRW10>
72.14

>  <MW>
342.04

>  <AMW>
9.77

>  <WPath>
1035

>  <WPol>
43

>  <Zagreb1>
128

>  <Zagreb2>
156

>  <mZagreb2>
4.94

>  <yes>


>  <nAR-cont>
0.816016

>  <nHA-cont>
0.967789328

>  <MWHBN>
0.21628258

>  <MWHBN-cont>
0.997040084

>  <TPSA-cont>
0.699344655

>  <pka_cont>
0.97

>  <yes.1>


>  <BBB_SCORE>
5.163054764

>  <MMFF94 Energy>
90.557

$$$$
Compound 644
Actelion Java MolfileCreator 2.0

  0  0  0  0  0  0              0 V3000
M  V30 BEGIN CTAB
M  V30 COUNTS 21 22 0 0 0
M  V30 BEGIN ATOM
M  V30 1 N 1.497 -0.7876 -0.2362 0
M  V30 2 C 0.7166 0.1907 0.3599 0
M  V30 3 C 0.8712 -1.8861 -0.9437 0
M  V30 4 C -0.6648 0.2757 0.1114 0
M  V30 5 C 1.3111 1.1503 1.1861 0
M  V30 6 C -0.3352 -1.3944 -1.7304 0
M  V30 7 C -1.431 1.2768 0.7273 0
M  V30 8 C -1.3355 -0.7348 -0.7847 0
M  V30 9 C 0.5474 2.1538 1.7871 0
M  V30 10 C -0.8247 2.2138 1.5617 0
M  V30 11 H 2.4706 -0.8673 0.0261 0
M  V30 12 H 0.5698 -2.6592 -0.2267 0
M  V30 13 H 1.6007 -2.339 -1.6232 0
M  V30 14 H 2.3809 1.1204 1.3725 0
M  V30 15 H -0.0105 -0.67 -2.4888 0
M  V30 16 H -0.8117 -2.2273 -2.2587 0
M  V30 17 H -2.5026 1.3319 0.5523 0
M  V30 18 H -2.1205 -0.2517 -1.3784 0
M  V30 19 H -1.8116 -1.4961 -0.1546 0
M  V30 20 H 1.0263 2.8865 2.4306 0
M  V30 21 H -1.4209 2.9914 2.0314 0
M  V30 END ATOM
M  V30 BEGIN BOND
M  V30 1 1 1 2
M  V30 2 1 1 3
M  V30 3 2 2 4
M  V30 4 1 2 5
M  V30 5 1 3 6
M  V30 6 1 4 7
M  V30 7 1 4 8
M  V30 8 2 5 9
M  V30 9 2 7 10
M  V30 10 1 6 8
M  V30 11 1 9 10
M  V30 12 1 1 11
M  V30 13 1 3 12
M  V30 14 1 3 13
M  V30 15 1 5 14
M  V30 16 1 6 15
M  V30 17 1 6 16
M  V30 18 1 7 17
M  V30 19 1 8 18
M  V30 20 1 8 19
M  V30 21 1 9 20
M  V30 22 1 10 21
M  V30 END BOND
M  V30 END CTAB
M  END
>  <Column 1>
774

>  <level_0>
885

>  <index>
885

>  <Unnamed: 0>
885

>  <NO.>
897

>  <Name>
1-2-3-4-tetrahydroquinoline

>  <IUPAC_name>
1-2-3-4-tetrahydroquinoline

>  <SMILES>
c1ccc2c(c1)CCCN2

>  <CID>
69460

>  <logBB>
0.7

>  <BBB+/BBB->
BBB+

>  <Inchi>
InChI=1S/C9H11N/c1-2-6-9-8(4-1)5-3-7-10-9/h1-2-4-6-10H-3-5-7H2

>  <threshold>


>  <reference>
R40|R12|R25|R35|R39|R46|R47|R27|R2|R2|R21|R27|R43|R8|R5|

>  <group>
A

>  <Class>
1

>  <ABC>
7.74

>  <ABCGG>
6.63

>  <nAcid>
0

>  <nBase>
0

>  <nAromAtom>
6

>  <nAromBond>
6

>  <nAtom>
21

>  <nHeavyAtom>
10

>  <nSpiro>
0

>  <nBridgehead>
0

>  <nHetero>
1

>  <nN>
1

>  <nO>
0

>  <nF>
0

>  <BalabanJ>
1.93

>  <BertzCT>
204.92

>  <nBonds>
22

>  <nBondsO>
11

>  <nBondsS>
16

>  <nBondsD>
0

>  <nBondsT>
0

>  <nBondsA>
6

>  <nBondsM>
6

>  <nBondsKS>
19

>  <nBondsKD>
3

>  <RNCG>
0.56

>  <RPCG>
0.23

>  <FCSP3>
0.33

>  <SZ>
12

>  <Sm>
11.09

>  <Sv>
12.74

>  <Sse>
20.55

>  <Sp>
14.05

>  <Si>
23.57

>  <MZ>
0.57

>  <Mm>
0.53

>  <Mv>
0.61

>  <Mse>
0.98

>  <Mp>
0.67

>  <Mi>
1.12

>  <NsCH3>
0

>  <NdCH2>
0

>  <NssCH2>
3

>  <NtCH>
0

>  <NdsCH>
0

>  <NaaCH>
4

>  <NsssCH>
0

>  <NddC>
0

>  <NtsC>
0

>  <NdssC>
0

>  <NaasC>
2

>  <NaaaC>
0

>  <NssssC>
0

>  <NsNH3>
0

>  <NsNH2>
0

>  <NssNH2>
0

>  <NdNH>
0

>  <NssNH>
1

>  <NaaNH>
0

>  <NtN>
0

>  <NsssNH>
0

>  <NdsN>
0

>  <NaaN>
0

>  <NsssN>
0

>  <NddsN>
0

>  <NaasN>
0

>  <NssssN>
0

>  <NsOH>
0

>  <NdO>
0

>  <NssO>
0

>  <NaaO>
0

>  <NsF>
0

>  <NsSiH3>
0

>  <NssSiH2>
0

>  <NsssSiH>
0

>  <NssssSi>
0

>  <NsPH2>
0

>  <NssPH>
0

>  <NsssP>
0

>  <NdsssP>
0

>  <NsssssP>
0

>  <NsSH>
0

>  <NdS>
0

>  <NssS>
0

>  <NaaS>
0

>  <NdssS>
0

>  <NddssS>
0

>  <NsCl>
0

>  <NsBr>
0

>  <NsI>
0

>  <fragCpx>
31.01

>  <fMF>
0.48

>  <nHBAcc>
1

>  <nHBDon>
1

>  <Kier1>
6.69

>  <Kier2>
2.94

>  <Lipinski>
1

>  <GhoseFilter>
0

>  <FilterItLogS>
-2.64

>  <VMcGowan>
113.03

>  <LabuteASA>
61.07

>  <PEOE_VSA1>
5.32

>  <PEOE_VSA2>
0

>  <PEOE_VSA3>
0

>  <PEOE_VSA4>
0

>  <PEOE_VSA5>
0

>  <PEOE_VSA6>
18.2

>  <PEOE_VSA7>
24.47

>  <PEOE_VSA8>
12.23

>  <PEOE_VSA9>
0

>  <PEOE_VSA10>
0

>  <PEOE_VSA11>
0

>  <PEOE_VSA12>
0

>  <PEOE_VSA13>
0

>  <SMR_VSA1>
0

>  <SMR_VSA2>
0

>  <SMR_VSA3>
0

>  <SMR_VSA4>
0

>  <SMR_VSA5>
12.84

>  <SMR_VSA6>
11.86

>  <SMR_VSA7>
29.83

>  <SMR_VSA8>
0

>  <SMR_VSA9>
0

>  <SlogP_VSA1>
5.32

>  <SlogP_VSA2>
6.54

>  <SlogP_VSA3>
6.42

>  <SlogP_VSA4>
0

>  <SlogP_VSA5>
11.98

>  <SlogP_VSA6>
24.27

>  <SlogP_VSA7>
0

>  <SlogP_VSA8>
0

>  <SlogP_VSA9>
0

>  <SlogP_VSA10>
5.69

>  <SlogP_VSA11>
0

>  <EState_VSA1>
0

>  <EState_VSA2>
0

>  <EState_VSA3>
0

>  <EState_VSA4>
6.54

>  <EState_VSA5>
24.09

>  <EState_VSA6>
0

>  <EState_VSA7>
0

>  <EState_VSA8>
29.58

>  <EState_VSA9>
0

>  <EState_VSA10>
0

>  <VSA_EState1>
0

>  <VSA_EState2>
0

>  <VSA_EState3>
3.36

>  <VSA_EState4>
2.79

>  <VSA_EState5>
0

>  <VSA_EState6>
8.53

>  <VSA_EState7>
2.51

>  <VSA_EState8>
1.14

>  <VSA_EState9>
0

>  <apol>
23.46

>  <bpol>
11.61

>  <nRing>
2

>  <nHRing>
1

>  <naRing>
1

>  <naHRing>
0

>  <nARing 2>
1

>  <nAHRing 2>
1

>  <nFRing>
1

>  <nFHRing>
1

>  <nFaRing>
0

>  <nFaHRing>
0

>  <nFARing 2>
1

>  <nFAHRing 2>
1

>  <nRot>
0

>  <SLogP>
2.04

>  <SMR>
43.25

>  <TopoPSA(NO)>
12.03

>  <TopoPSA>
12.03

>  <JGI1>
0.09

>  <JGI2>
0.06

>  <JGI3>
0.02

>  <JGI4>
0.05

>  <JGI5>
0

>  <Diameter>
5

>  <Radius>
3

>  <TMWC10>
86.16

>  <TSRW10>
39.86

>  <MW>
133.09

>  <AMW>
6.34

>  <WPath>
109

>  <WPol>
12

>  <Zagreb1>
50

>  <Zagreb2>
57

>  <mZagreb2>
2.28

>  <yes>


>  <nAR-cont>
0.816016

>  <nHA-cont>
0.645914733

>  <MWHBN>
0.173363347

>  <MWHBN-cont>
0.978945041

>  <TPSA-cont>
0.91602313

>  <pka_cont>
0.97

>  <yes.1>


>  <BBB_SCORE>
5.247394554

>  <MMFF94 Energy>
5.4694

$$$$
Compound 645
Actelion Java MolfileCreator 2.0

  0  0  0  0  0  0              0 V3000
M  V30 BEGIN CTAB
M  V30 COUNTS 54 56 0 0 0
M  V30 BEGIN ATOM
M  V30 1 O 0.1588 -1.4302 -2.5437 0
M  V30 2 C 0.8116 -0.4863 -2.9859 0
M  V30 3 N 1.3265 -0.4884 -4.2666 0
M  V30 4 C 1.042 0.7162 -2.1407 0
M  V30 5 C 1.1294 -1.608 -5.1498 0
M  V30 6 C 2.1222 1.5688 -2.3018 0
M  V30 7 C 0.1642 1.0475 -1.107 0
M  V30 8 O 3.0855 1.2518 -3.2325 0
M  V30 9 N 2.3554 2.6585 -1.5442 0
M  V30 10 N 0.3605 2.1427 -0.3407 0
M  V30 11 N -0.9842 0.3113 -0.8715 0
M  V30 12 C 3.6741 2.4061 -3.8457 0
M  V30 13 C 1.445 2.8919 -0.5899 0
M  V30 14 C -1.9036 0.606 0.2097 0
M  V30 15 C 4.2872 1.9518 -5.1663 0
M  V30 16 C 1.6457 4.0503 0.2396 0
M  V30 17 C -1.3877 0.0809 1.562 0
M  V30 18 O 3.2505 1.4722 -6.0268 0
M  V30 19 N 1.8156 4.9909 0.9037 0
M  V30 20 C -2.3092 0.5651 2.6949 0
M  V30 21 C -1.289 -1.4555 1.5767 0
M  V30 22 C -1.8608 0.0399 4.058 0
M  V30 23 C -0.8285 -1.9761 2.9374 0
M  V30 24 C -1.774 -1.4925 4.0401 0
M  V30 25 C -1.4518 -2.1109 5.4353 0
M  V30 26 C -3.1382 -2.2499 4.1249 0
M  V30 27 C -2.9648 -2.294 5.6543 0
M  V30 28 H 1.8997 0.2855 -4.5983 0
M  V30 29 H 0.0633 -1.8416 -5.215 0
M  V30 30 H 1.6684 -2.4728 -4.7539 0
M  V30 31 H 1.516 -1.348 -6.1378 0
M  V30 32 H -0.9875 -0.637 -1.2565 0
M  V30 33 H 4.4518 2.8142 -3.1911 0
M  V30 34 H 2.9097 3.1667 -4.051 0
M  V30 35 H -2.8642 0.1299 -0.0224 0
M  V30 36 H -2.1063 1.6831 0.259 0
M  V30 37 H 4.7953 2.7842 -5.6617 0
M  V30 38 H 4.9929 1.1311 -5.0053 0
M  V30 39 H -0.3843 0.487 1.7468 0
M  V30 40 H 3.6774 1.2231 -6.8662 0
M  V30 41 H -2.3196 1.6615 2.7213 0
M  V30 42 H -3.3391 0.2432 2.4962 0
M  V30 43 H -0.5812 -1.7979 0.8133 0
M  V30 44 H -2.2647 -1.8914 1.3274 0
M  V30 45 H -0.8801 0.4647 4.3071 0
M  V30 46 H -2.56 0.3905 4.8261 0
M  V30 47 H -0.7863 -3.0715 2.9093 0
M  V30 48 H 0.1916 -1.6255 3.1385 0
M  V30 49 H -0.951 -1.4559 6.1543 0
M  V30 50 H -0.9065 -3.0618 5.3967 0
M  V30 51 H -3.1332 -3.2447 3.6633 0
M  V30 52 H -4.0228 -1.7118 3.7739 0
M  V30 53 H -3.2635 -3.2278 6.1375 0
M  V30 54 H -3.4411 -1.4577 6.1783 0
M  V30 END ATOM
M  V30 BEGIN BOND
M  V30 1 2 1 2
M  V30 2 1 2 3
M  V30 3 1 2 4
M  V30 4 1 3 5
M  V30 5 2 4 6
M  V30 6 1 4 7
M  V30 7 1 6 8
M  V30 8 1 6 9
M  V30 9 2 7 10
M  V30 10 1 7 11
M  V30 11 1 8 12
M  V30 12 2 9 13
M  V30 13 1 11 14
M  V30 14 1 12 15
M  V30 15 1 13 16
M  V30 16 1 14 17
M  V30 17 1 15 18
M  V30 18 3 16 19
M  V30 19 1 17 20
M  V30 20 1 17 21
M  V30 21 1 20 22
M  V30 22 1 21 23
M  V30 23 1 22 24
M  V30 24 1 24 25
M  V30 25 1 24 26
M  V30 26 1 25 27
M  V30 27 1 10 13
M  V30 28 1 23 24
M  V30 29 1 26 27
M  V30 30 1 3 28
M  V30 31 1 5 29
M  V30 32 1 5 30
M  V30 33 1 5 31
M  V30 34 1 11 32
M  V30 35 1 12 33
M  V30 36 1 12 34
M  V30 37 1 14 35
M  V30 38 1 14 36
M  V30 39 1 15 37
M  V30 40 1 15 38
M  V30 41 1 17 39
M  V30 42 1 18 40
M  V30 43 1 20 41
M  V30 44 1 20 42
M  V30 45 1 21 43
M  V30 46 1 21 44
M  V30 47 1 22 45
M  V30 48 1 22 46
M  V30 49 1 23 47
M  V30 50 1 23 48
M  V30 51 1 25 49
M  V30 52 1 25 50
M  V30 53 1 26 51
M  V30 54 1 26 52
M  V30 55 1 27 53
M  V30 56 1 27 54
M  V30 END BOND
M  V30 END CTAB
M  END
>  <Column 1>
775

>  <level_0>
886

>  <index>
886

>  <Unnamed: 0>
886

>  <NO.>
898

>  <Name>
irie-13b

>  <IUPAC_name>
2-cyano-4-(2-hydroxyethoxy)-n-methyl-6-(spiro[3.5]nonan-7-ylmethylamino)pyrimidine-5-carboxamide

>  <SMILES>
CNC(=O)c1c(NCC2CCC3(CCC3)CC2)nc(C#N)nc1OCCO

>  <CID>
25030810

>  <logBB>
0.7

>  <BBB+/BBB->
BBB+

>  <Inchi>
InChI=1S/C19H27N5O3/c1-21-17(26)15-16(23-14(11-20)24-18(15)27-10-9-25)22-12-13-3-7-19(8-4-13)5-2-6-19/h13-25H-2-10-12H2-1H3-(H-21-26)(H-22-23-24)

>  <threshold>


>  <reference>
R18|R26|R27|

>  <group>
A

>  <Class>
1

>  <ABC>
20.49

>  <ABCGG>
16.82

>  <nAcid>
0

>  <nBase>
0

>  <nAromAtom>
6

>  <nAromBond>
6

>  <nAtom>
54

>  <nHeavyAtom>
27

>  <nSpiro>
1

>  <nBridgehead>
0

>  <nHetero>
8

>  <nN>
5

>  <nO>
3

>  <nF>
0

>  <BalabanJ>
1.57

>  <BertzCT>
716.79

>  <nBonds>
56

>  <nBondsO>
29

>  <nBondsS>
48

>  <nBondsD>
1

>  <nBondsT>
1

>  <nBondsA>
6

>  <nBondsM>
8

>  <nBondsKS>
51

>  <nBondsKD>
4

>  <RNCG>
0.17

>  <RPCG>
0.09

>  <FCSP3>
0.68

>  <SZ>
33.33

>  <Sm>
31.09

>  <Sv>
32.25

>  <Sse>
54.29

>  <Sp>
34.51

>  <Si>
61.69

>  <MZ>
0.62

>  <Mm>
0.58

>  <Mv>
0.6

>  <Mse>
1.01

>  <Mp>
0.64

>  <Mi>
1.14

>  <NsCH3>
1

>  <NdCH2>
0

>  <NssCH2>
10

>  <NtCH>
0

>  <NdsCH>
0

>  <NaaCH>
0

>  <NsssCH>
1

>  <NddC>
0

>  <NtsC>
1

>  <NdssC>
1

>  <NaasC>
4

>  <NaaaC>
0

>  <NssssC>
1

>  <NsNH3>
0

>  <NsNH2>
0

>  <NssNH2>
0

>  <NdNH>
0

>  <NssNH>
2

>  <NaaNH>
0

>  <NtN>
1

>  <NsssNH>
0

>  <NdsN>
0

>  <NaaN>
2

>  <NsssN>
0

>  <NddsN>
0

>  <NaasN>
0

>  <NssssN>
0

>  <NsOH>
1

>  <NdO>
1

>  <NssO>
1

>  <NaaO>
0

>  <NsF>
0

>  <NsSiH3>
0

>  <NssSiH2>
0

>  <NsssSiH>
0

>  <NssssSi>
0

>  <NsPH2>
0

>  <NssPH>
0

>  <NsssP>
0

>  <NdsssP>
0

>  <NsssssP>
0

>  <NsSH>
0

>  <NdS>
0

>  <NssS>
0

>  <NaaS>
0

>  <NdssS>
0

>  <NddssS>
0

>  <NsCl>
0

>  <NsBr>
0

>  <NsI>
0

>  <fragCpx>
139.08

>  <fMF>
0.31

>  <nHBAcc>
7

>  <nHBDon>
3

>  <Kier1>
21.7

>  <Kier2>
10.16

>  <Lipinski>
1

>  <GhoseFilter>
1

>  <FilterItLogS>
-4.76

>  <VMcGowan>
287.7

>  <LabuteASA>
158.89

>  <PEOE_VSA1>
20.48

>  <PEOE_VSA2>
4.79

>  <PEOE_VSA3>
4.98

>  <PEOE_VSA4>
10.25

>  <PEOE_VSA5>
0

>  <PEOE_VSA6>
6.42

>  <PEOE_VSA7>
49.86

>  <PEOE_VSA8>
13.59

>  <PEOE_VSA9>
6.61

>  <PEOE_VSA10>
24.06

>  <PEOE_VSA11>
0

>  <PEOE_VSA12>
11.7

>  <PEOE_VSA13>
5.91

>  <SMR_VSA1>
14.64

>  <SMR_VSA2>
5.26

>  <SMR_VSA3>
15.28

>  <SMR_VSA4>
11.33

>  <SMR_VSA5>
44.95

>  <SMR_VSA6>
32.12

>  <SMR_VSA7>
11.39

>  <SMR_VSA8>
0

>  <SMR_VSA9>
11.95

>  <SlogP_VSA1>
15.37

>  <SlogP_VSA2>
47.79

>  <SlogP_VSA3>
0

>  <SlogP_VSA4>
22.66

>  <SlogP_VSA5>
61.13

>  <SlogP_VSA6>
0

>  <SlogP_VSA7>
0

>  <SlogP_VSA8>
0

>  <SlogP_VSA9>
0

>  <SlogP_VSA10>
5.82

>  <SlogP_VSA11>
5.88

>  <EState_VSA1>
5.91

>  <EState_VSA2>
30.48

>  <EState_VSA3>
23.7

>  <EState_VSA4>
0

>  <EState_VSA5>
51.99

>  <EState_VSA6>
0

>  <EState_VSA7>
6.07

>  <EState_VSA8>
20.6

>  <EState_VSA9>
9.84

>  <EState_VSA10>
10.06

>  <VSA_EState1>
5.38

>  <VSA_EState2>
20.51

>  <VSA_EState3>
24

>  <VSA_EState4>
0.77

>  <VSA_EState5>
0.37

>  <VSA_EState6>
1.9

>  <VSA_EState7>
9.01

>  <VSA_EState8>
0.46

>  <VSA_EState9>
1.51

>  <apol>
57.64

>  <bpol>
33.68

>  <nRing>
3

>  <nHRing>
1

>  <naRing>
1

>  <naHRing>
1

>  <nARing 2>
2

>  <nAHRing 2>
0

>  <nFRing>
0

>  <nFHRing>
0

>  <nFaRing>
0

>  <nFaHRing>
0

>  <nFARing 2>
0

>  <nFAHRing 2>
0

>  <nRot>
7

>  <SLogP>
1.85

>  <SMR>
99.45

>  <TopoPSA(NO)>
120.16

>  <TopoPSA>
120.16

>  <JGI1>
0.21

>  <JGI2>
0.07

>  <JGI3>
0.05

>  <JGI4>
0.05

>  <JGI5>
0.03

>  <Diameter>
14

>  <Radius>
7

>  <TMWC10>
131.96

>  <TSRW10>
62.43

>  <MW>
373.21

>  <AMW>
6.91

>  <WPath>
1944

>  <WPol>
41

>  <Zagreb1>
138

>  <Zagreb2>
162

>  <mZagreb2>
6.25

>  <yes>


>  <nAR-cont>
1

>  <nHA-cont>
0.860070871

>  <MWHBN>
0.517634679

>  <MWHBN-cont>
0

>  <TPSA-cont>
0

>  <pka_cont>
0.97

>  <yes.1>


>  <BBB_SCORE>
2.345070871

>  <MMFF94 Energy>
23.91

$$$$
Compound 646
Actelion Java MolfileCreator 2.0

  0  0  0  0  0  0              0 V3000
M  V30 BEGIN CTAB
M  V30 COUNTS 53 56 0 0 0
M  V30 BEGIN ATOM
M  V30 1 Cl -1.4617 -4.7973 -3.8202 0
M  V30 2 C -1.8542 -3.1277 -3.6752 0
M  V30 3 C -2.2853 -2.6214 -2.4472 0
M  V30 4 C -1.7448 -2.297 -4.7804 0
M  V30 5 C -2.6085 -1.2589 -2.285 0
M  V30 6 C -2.0896 -0.9537 -4.6559 0
M  V30 7 N -3.0288 -0.7519 -1.0256 0
M  V30 8 C -2.5338 -0.4348 -3.4263 0
M  V30 9 C -3.7648 0.4513 -0.8487 0
M  V30 10 C -2.2367 -1.1974 0.1485 0
M  V30 11 S -2.9603 1.2936 -3.4044 0
M  V30 12 C -3.8072 1.4462 -1.845 0
M  V30 13 C -4.5137 0.6803 0.3237 0
M  V30 14 C -0.9404 -0.3838 0.2828 0
M  V30 15 C -4.5219 2.6388 -1.6338 0
M  V30 16 C -5.2307 1.8641 0.524 0
M  V30 17 C -0.1003 -0.8994 1.4572 0
M  V30 18 C -5.2272 2.8494 -0.4522 0
M  V30 19 N 1.0816 -0.0688 1.7326 0
M  V30 20 C 2.0831 -0.1337 0.6472 0
M  V30 21 C 1.7225 -0.496 2.994 0
M  V30 22 C 3.3794 0.6514 0.9687 0
M  V30 23 C 2.9955 0.317 3.3142 0
M  V30 24 N 4.0052 0.226 2.2389 0
M  V30 25 C 5.1766 1.0624 2.5797 0
M  V30 26 C 6.3555 0.9322 1.6003 0
M  V30 27 O 6.1921 1.7984 0.4801 0
M  V30 28 H -2.401 -3.3181 -1.6229 0
M  V30 29 H -1.4089 -2.6847 -5.7378 0
M  V30 30 H -2.0179 -0.309 -5.5298 0
M  V30 31 H -1.9863 -2.2614 0.0901 0
M  V30 32 H -2.8095 -1.1227 1.0784 0
M  V30 33 H -4.5831 -0.0785 1.0971 0
M  V30 34 H -1.1792 0.6759 0.4355 0
M  V30 35 H -0.3721 -0.4537 -0.651 0
M  V30 36 H -4.5373 3.4119 -2.3992 0
M  V30 37 H -5.7968 2.0071 1.4409 0
M  V30 38 H -0.7418 -0.898 2.3483 0
M  V30 39 H 0.1901 -1.9427 1.2771 0
M  V30 40 H -5.7805 3.7727 -0.3035 0
M  V30 41 H 1.6679 0.2937 -0.2718 0
M  V30 42 H 2.3459 -1.1787 0.4342 0
M  V30 43 H 1.0182 -0.3611 3.8241 0
M  V30 44 H 1.9789 -1.5634 2.9535 0
M  V30 45 H 4.0695 0.4787 0.1362 0
M  V30 46 H 3.1479 1.7248 0.9938 0
M  V30 47 H 3.4208 -0.0735 4.2467 0
M  V30 48 H 2.716 1.3639 3.4959 0
M  V30 49 H 5.5444 0.7311 3.559 0
M  V30 50 H 4.8849 2.1165 2.672 0
M  V30 51 H 7.2817 1.225 2.1059 0
M  V30 52 H 6.4686 -0.0982 1.2472 0
M  V30 53 H 6.9308 1.6155 -0.1247 0
M  V30 END ATOM
M  V30 BEGIN BOND
M  V30 1 1 1 2
M  V30 2 2 2 3
M  V30 3 1 2 4
M  V30 4 1 3 5
M  V30 5 2 4 6
M  V30 6 1 5 7
M  V30 7 2 5 8
M  V30 8 1 7 9
M  V30 9 1 7 10
M  V30 10 1 8 11
M  V30 11 2 9 12
M  V30 12 1 9 13
M  V30 13 1 10 14
M  V30 14 1 12 15
M  V30 15 2 13 16
M  V30 16 1 14 17
M  V30 17 2 15 18
M  V30 18 1 17 19
M  V30 19 1 19 20
M  V30 20 1 19 21
M  V30 21 1 20 22
M  V30 22 1 21 23
M  V30 23 1 22 24
M  V30 24 1 24 25
M  V30 25 1 25 26
M  V30 26 1 26 27
M  V30 27 1 6 8
M  V30 28 1 11 12
M  V30 29 1 16 18
M  V30 30 1 23 24
M  V30 31 1 3 28
M  V30 32 1 4 29
M  V30 33 1 6 30
M  V30 34 1 10 31
M  V30 35 1 10 32
M  V30 36 1 13 33
M  V30 37 1 14 34
M  V30 38 1 14 35
M  V30 39 1 15 36
M  V30 40 1 16 37
M  V30 41 1 17 38
M  V30 42 1 17 39
M  V30 43 1 18 40
M  V30 44 1 20 41
M  V30 45 1 20 42
M  V30 46 1 21 43
M  V30 47 1 21 44
M  V30 48 1 22 45
M  V30 49 1 22 46
M  V30 50 1 23 47
M  V30 51 1 23 48
M  V30 52 1 25 49
M  V30 53 1 25 50
M  V30 54 1 26 51
M  V30 55 1 26 52
M  V30 56 1 27 53
M  V30 END BOND
M  V30 END CTAB
M  END
>  <Column 1>
776

>  <level_0>
887

>  <index>
887

>  <Unnamed: 0>
887

>  <NO.>
899

>  <Name>
perphenazine

>  <IUPAC_name>
2-[4-[3-(2-chlorophenothiazin-10-yl)propyl]piperazin-1-yl]ethanol

>  <SMILES>
OCCN1CCN(CCCN2c3ccccc3Sc3ccc(Cl)cc32)CC1

>  <CID>
4748

>  <logBB>
0.7

>  <BBB+/BBB->
BBB+

>  <Inchi>
InChI=1S/C21H26ClN3OS/c22-17-6-7-21-19(16-17)25(18-4-1-2-5-20(18)27-21)9-3-8-23-10-12-24(13-11-23)14-15-26/h1-2-4-7-16-26H-3-8-15H2

>  <threshold>


>  <reference>
R2|R2|R25|R27|R46|

>  <group>
A

>  <Class>
1

>  <ABC>
21.16

>  <ABCGG>
15.24

>  <nAcid>
0

>  <nBase>
2

>  <nAromAtom>
12

>  <nAromBond>
12

>  <nAtom>
53

>  <nHeavyAtom>
27

>  <nSpiro>
0

>  <nBridgehead>
0

>  <nHetero>
6

>  <nN>
3

>  <nO>
1

>  <nF>
0

>  <BalabanJ>
1.3

>  <BertzCT>
779.77

>  <nBonds>
56

>  <nBondsO>
30

>  <nBondsS>
44

>  <nBondsD>
0

>  <nBondsT>
0

>  <nBondsA>
12

>  <nBondsM>
12

>  <nBondsKS>
50

>  <nBondsKD>
6

>  <RNCG>
0.22

>  <RPCG>
0.11

>  <FCSP3>
0.43

>  <SZ>
35.67

>  <Sm>
33.63

>  <Sv>
33.31

>  <Sse>
52.7

>  <Sp>
36.88

>  <Si>
59.55

>  <MZ>
0.67

>  <Mm>
0.63

>  <Mv>
0.63

>  <Mse>
0.99

>  <Mp>
0.7

>  <Mi>
1.12

>  <NsCH3>
0

>  <NdCH2>
0

>  <NssCH2>
9

>  <NtCH>
0

>  <NdsCH>
0

>  <NaaCH>
7

>  <NsssCH>
0

>  <NddC>
0

>  <NtsC>
0

>  <NdssC>
0

>  <NaasC>
5

>  <NaaaC>
0

>  <NssssC>
0

>  <NsNH3>
0

>  <NsNH2>
0

>  <NssNH2>
0

>  <NdNH>
0

>  <NssNH>
0

>  <NaaNH>
0

>  <NtN>
0

>  <NsssNH>
0

>  <NdsN>
0

>  <NaaN>
0

>  <NsssN>
3

>  <NddsN>
0

>  <NaasN>
0

>  <NssssN>
0

>  <NsOH>
1

>  <NdO>
0

>  <NssO>
0

>  <NaaO>
0

>  <NsF>
0

>  <NsSiH3>
0

>  <NssSiH2>
0

>  <NsssSiH>
0

>  <NssssSi>
0

>  <NsPH2>
0

>  <NssPH>
0

>  <NsssP>
0

>  <NdsssP>
0

>  <NsssssP>
0

>  <NsSH>
0

>  <NdS>
0

>  <NssS>
1

>  <NaaS>
0

>  <NdssS>
0

>  <NddssS>
0

>  <NsCl>
1

>  <NsBr>
0

>  <NsI>
0

>  <fragCpx>
198.06

>  <fMF>
0.43

>  <nHBAcc>
5

>  <nHBDon>
1

>  <Kier1>
20.28

>  <Kier2>
9.67

>  <Lipinski>
1

>  <GhoseFilter>
1

>  <FilterItLogS>
-5.06

>  <VMcGowan>
301.91

>  <LabuteASA>
170.26

>  <PEOE_VSA1>
14.91

>  <PEOE_VSA2>
4.9

>  <PEOE_VSA3>
0

>  <PEOE_VSA4>
0

>  <PEOE_VSA5>
0

>  <PEOE_VSA6>
35.5

>  <PEOE_VSA7>
43.3

>  <PEOE_VSA8>
54.08

>  <PEOE_VSA9>
17.98

>  <PEOE_VSA10>
0

>  <PEOE_VSA11>
0

>  <PEOE_VSA12>
0

>  <PEOE_VSA13>
0

>  <SMR_VSA1>
5.11

>  <SMR_VSA2>
0

>  <SMR_VSA3>
9.8

>  <SMR_VSA4>
0

>  <SMR_VSA5>
16.21

>  <SMR_VSA6>
57.32

>  <SMR_VSA7>
47.49

>  <SMR_VSA8>
0

>  <SMR_VSA9>
0

>  <SlogP_VSA1>
4.9

>  <SlogP_VSA2>
67.33

>  <SlogP_VSA3>
0

>  <SlogP_VSA4>
0

>  <SlogP_VSA5>
6.42

>  <SlogP_VSA6>
52.26

>  <SlogP_VSA7>
5.02

>  <SlogP_VSA8>
0

>  <SlogP_VSA9>
0

>  <SlogP_VSA10>
11.37

>  <SlogP_VSA11>
0

>  <EState_VSA1>
0

>  <EState_VSA2>
6.61

>  <EState_VSA3>
0

>  <EState_VSA4>
57.26

>  <EState_VSA5>
21.17

>  <EState_VSA6>
0

>  <EState_VSA7>
17.83

>  <EState_VSA8>
51.1

>  <EState_VSA9>
16.71

>  <EState_VSA10>
0

>  <VSA_EState1>
0

>  <VSA_EState2>
9.89

>  <VSA_EState3>
9.87

>  <VSA_EState4>
2.5

>  <VSA_EState5>
0

>  <VSA_EState6>
14.83

>  <VSA_EState7>
1.12

>  <VSA_EState8>
7.45

>  <VSA_EState9>
0

>  <apol>
61.59

>  <bpol>
34.18

>  <nRing>
4

>  <nHRing>
2

>  <naRing>
2

>  <naHRing>
0

>  <nARing 2>
2

>  <nAHRing 2>
2

>  <nFRing>
1

>  <nFHRing>
1

>  <nFaRing>
0

>  <nFaHRing>
0

>  <nFARing 2>
1

>  <nFAHRing 2>
1

>  <nRot>
6

>  <SLogP>
3.94

>  <SMR>
113.61

>  <TopoPSA(NO)>
29.95

>  <TopoPSA>
55.25

>  <JGI1>
0.15

>  <JGI2>
0.07

>  <JGI3>
0.03

>  <JGI4>
0.04

>  <JGI5>
0.02

>  <Diameter>
14

>  <Radius>
7

>  <TMWC10>
133.17

>  <TSRW10>
62.26

>  <MW>
403.15

>  <AMW>
7.61

>  <WPath>
2000

>  <WPol>
43

>  <Zagreb1>
142

>  <Zagreb2>
167

>  <mZagreb2>
6.03

>  <yes>


>  <nAR-cont>
1

>  <nHA-cont>
0.860070871

>  <MWHBN>
0.298825681

>  <MWHBN-cont>
0.844233065

>  <TPSA-cont>
0.614320692

>  <pka_cont>
0.97

>  <yes.1>


>  <BBB_SCORE>
4.840061852

>  <MMFF94 Energy>
149.85

$$$$
Compound 647
Actelion Java MolfileCreator 2.0

  0  0  0  0  0  0              0 V3000
M  V30 BEGIN CTAB
M  V30 COUNTS 52 55 0 0 0
M  V30 BEGIN ATOM
M  V30 1 S -1.6951 4.4441 -0.7262 0
M  V30 2 C -3.2467 3.6574 -0.3051 0
M  V30 3 C -0.8079 4.0358 0.7656 0
M  V30 4 C -3.3346 2.3018 0.0601 0
M  V30 5 C -4.3987 4.4606 -0.3002 0
M  V30 6 C -0.6654 2.7268 1.2385 0
M  V30 7 C -0.2698 5.0904 1.5181 0
M  V30 8 N -2.2882 1.3733 -0.0513 0
M  V30 9 C -4.5856 1.7879 0.4285 0
M  V30 10 C -5.6323 3.9312 0.0793 0
M  V30 11 C -1.0874 1.535 0.4348 0
M  V30 12 C -0.0332 2.4852 2.4698 0
M  V30 13 C 0.3699 4.8458 2.7362 0
M  V30 14 C -5.7253 2.594 0.4493 0
M  V30 15 N -0.1469 0.5224 0.2257 0
M  V30 16 C 0.4797 3.5439 3.2176 0
M  V30 17 C -0.5773 -0.7943 -0.276 0
M  V30 18 C 1.2636 0.8097 -0.0832 0
M  V30 19 C 0.3748 -1.9116 0.2077 0
M  V30 20 C 2.1767 -0.3253 0.4232 0
M  V30 21 N 1.7957 -1.6519 -0.1085 0
M  V30 22 C 2.6946 -2.6947 0.428 0
M  V30 23 C 2.5302 -4.092 -0.1998 0
M  V30 24 O 2.8624 -4.0512 -1.5889 0
M  V30 25 C 2.6734 -5.3182 -2.2138 0
M  V30 26 C 3.0238 -5.2049 -3.6918 0
M  V30 27 O 2.8549 -6.4623 -4.3349 0
M  V30 28 H -4.3385 5.5094 -0.5812 0
M  V30 29 H -0.3642 6.1171 1.1698 0
M  V30 30 H -4.6674 0.7343 0.6842 0
M  V30 31 H -6.5174 4.562 0.084 0
M  V30 32 H 0.0643 1.4663 2.8374 0
M  V30 33 H 0.7714 5.6756 3.3131 0
M  V30 34 H -6.6836 2.1704 0.7377 0
M  V30 35 H 0.9688 3.3527 4.1694 0
M  V30 36 H -1.5839 -1.0392 0.0831 0
M  V30 37 H -0.6091 -0.7732 -1.3722 0
M  V30 38 H 1.6037 1.7488 0.3633 0
M  V30 39 H 1.3735 0.9206 -1.1694 0
M  V30 40 H 0.2506 -2.0329 1.2923 0
M  V30 41 H 0.0474 -2.8425 -0.2667 0
M  V30 42 H 2.1515 -0.3373 1.5214 0
M  V30 43 H 3.2047 -0.0921 0.1207 0
M  V30 44 H 2.5734 -2.7774 1.5155 0
M  V30 45 H 3.7292 -2.3815 0.237 0
M  V30 46 H 3.217 -4.7836 0.3024 0
M  V30 47 H 1.512 -4.4714 -0.0644 0
M  V30 48 H 1.6315 -5.6423 -2.1044 0
M  V30 49 H 3.31 -6.0722 -1.7359 0
M  V30 50 H 2.3817 -4.464 -4.1801 0
M  V30 51 H 4.0617 -4.8775 -3.8145 0
M  V30 52 H 3.073 -6.3257 -5.273 0
M  V30 END ATOM
M  V30 BEGIN BOND
M  V30 1 1 1 2
M  V30 2 1 1 3
M  V30 3 2 2 4
M  V30 4 1 2 5
M  V30 5 2 3 6
M  V30 6 1 3 7
M  V30 7 1 4 8
M  V30 8 1 4 9
M  V30 9 2 5 10
M  V30 10 1 6 11
M  V30 11 1 6 12
M  V30 12 2 7 13
M  V30 13 2 9 14
M  V30 14 1 11 15
M  V30 15 2 12 16
M  V30 16 1 15 17
M  V30 17 1 15 18
M  V30 18 1 17 19
M  V30 19 1 18 20
M  V30 20 1 19 21
M  V30 21 1 21 22
M  V30 22 1 22 23
M  V30 23 1 23 24
M  V30 24 1 24 25
M  V30 25 1 25 26
M  V30 26 1 26 27
M  V30 27 2 8 11
M  V30 28 1 10 14
M  V30 29 1 13 16
M  V30 30 1 20 21
M  V30 31 1 5 28
M  V30 32 1 7 29
M  V30 33 1 9 30
M  V30 34 1 10 31
M  V30 35 1 12 32
M  V30 36 1 13 33
M  V30 37 1 14 34
M  V30 38 1 16 35
M  V30 39 1 17 36
M  V30 40 1 17 37
M  V30 41 1 18 38
M  V30 42 1 18 39
M  V30 43 1 19 40
M  V30 44 1 19 41
M  V30 45 1 20 42
M  V30 46 1 20 43
M  V30 47 1 22 44
M  V30 48 1 22 45
M  V30 49 1 23 46
M  V30 50 1 23 47
M  V30 51 1 25 48
M  V30 52 1 25 49
M  V30 53 1 26 50
M  V30 54 1 26 51
M  V30 55 1 27 52
M  V30 END BOND
M  V30 END CTAB
M  END
>  <Column 1>
777

>  <level_0>
888

>  <index>
888

>  <Unnamed: 0>
888

>  <NO.>
900

>  <Name>
quetiapine

>  <IUPAC_name>
2-[2-(4-benzo[b][1-4]benzothiazepin-6-ylpiperazin-1-yl)ethoxy]ethanol

>  <SMILES>
OCCOCCN1CCN(C2=Nc3ccccc3Sc3ccccc32)CC1

>  <CID>
5002

>  <logBB>
0.7

>  <BBB+/BBB->
BBB+

>  <Inchi>
InChI=1S/C21H25N3O2S/c25-14-16-26-15-13-23-9-11-24(12-10-23)21-17-5-1-3-7-19(17)27-20-8-4-2-6-18(20)22-21/h1-8-25H-9-16H2

>  <threshold>


>  <reference>
R2|R2|R25|R27|R46|

>  <group>
A

>  <Class>
1

>  <ABC>
21.05

>  <ABCGG>
15.09

>  <nAcid>
0

>  <nBase>
3

>  <nAromAtom>
12

>  <nAromBond>
12

>  <nAtom>
52

>  <nHeavyAtom>
27

>  <nSpiro>
0

>  <nBridgehead>
0

>  <nHetero>
6

>  <nN>
3

>  <nO>
2

>  <nF>
0

>  <BalabanJ>
1.35

>  <BertzCT>
803.52

>  <nBonds>
55

>  <nBondsO>
30

>  <nBondsS>
42

>  <nBondsD>
1

>  <nBondsT>
0

>  <nBondsA>
12

>  <nBondsM>
13

>  <nBondsKS>
48

>  <nBondsKD>
7

>  <RNCG>
0.18

>  <RPCG>
0.1

>  <FCSP3>
0.38

>  <SZ>
34

>  <Sm>
31.93

>  <Sv>
32.66

>  <Sse>
51.83

>  <Sp>
35.65

>  <Si>
58.4

>  <MZ>
0.65

>  <Mm>
0.61

>  <Mv>
0.63

>  <Mse>
1

>  <Mp>
0.69

>  <Mi>
1.12

>  <NsCH3>
0

>  <NdCH2>
0

>  <NssCH2>
8

>  <NtCH>
0

>  <NdsCH>
0

>  <NaaCH>
8

>  <NsssCH>
0

>  <NddC>
0

>  <NtsC>
0

>  <NdssC>
1

>  <NaasC>
4

>  <NaaaC>
0

>  <NssssC>
0

>  <NsNH3>
0

>  <NsNH2>
0

>  <NssNH2>
0

>  <NdNH>
0

>  <NssNH>
0

>  <NaaNH>
0

>  <NtN>
0

>  <NsssNH>
0

>  <NdsN>
1

>  <NaaN>
0

>  <NsssN>
2

>  <NddsN>
0

>  <NaasN>
0

>  <NssssN>
0

>  <NsOH>
1

>  <NdO>
0

>  <NssO>
1

>  <NaaO>
0

>  <NsF>
0

>  <NsSiH3>
0

>  <NssSiH2>
0

>  <NsssSiH>
0

>  <NssssSi>
0

>  <NsPH2>
0

>  <NssPH>
0

>  <NsssP>
0

>  <NdsssP>
0

>  <NsssssP>
0

>  <NsSH>
0

>  <NdS>
0

>  <NssS>
1

>  <NaaS>
0

>  <NdssS>
0

>  <NddssS>
0

>  <NsCl>
0

>  <NsBr>
0

>  <NsI>
0

>  <fragCpx>
198.06

>  <fMF>
0.4

>  <nHBAcc>
6

>  <nHBDon>
1

>  <Kier1>
20.28

>  <Kier2>
10.16

>  <Lipinski>
1

>  <GhoseFilter>
1

>  <FilterItLogS>
-4.62

>  <VMcGowan>
291.24

>  <LabuteASA>
164.21

>  <PEOE_VSA1>
14.74

>  <PEOE_VSA2>
4.9

>  <PEOE_VSA3>
4.99

>  <PEOE_VSA4>
0

>  <PEOE_VSA5>
0

>  <PEOE_VSA6>
42.09

>  <PEOE_VSA7>
18.2

>  <PEOE_VSA8>
48.08

>  <PEOE_VSA9>
25.51

>  <PEOE_VSA10>
5.84

>  <PEOE_VSA11>
0

>  <PEOE_VSA12>
0

>  <PEOE_VSA13>
0

>  <SMR_VSA1>
9.84

>  <SMR_VSA2>
0

>  <SMR_VSA3>
9.8

>  <SMR_VSA4>
4.99

>  <SMR_VSA5>
9.79

>  <SMR_VSA6>
52.54

>  <SMR_VSA7>
54.09

>  <SMR_VSA8>
0

>  <SMR_VSA9>
0

>  <SlogP_VSA1>
0

>  <SlogP_VSA2>
73.29

>  <SlogP_VSA3>
4.74

>  <SlogP_VSA4>
0

>  <SlogP_VSA5>
5.56

>  <SlogP_VSA6>
63.31

>  <SlogP_VSA7>
0

>  <SlogP_VSA8>
0

>  <SlogP_VSA9>
0

>  <SlogP_VSA10>
5.69

>  <SlogP_VSA11>
0

>  <EState_VSA1>
0

>  <EState_VSA2>
6.61

>  <EState_VSA3>
13.21

>  <EState_VSA4>
44.25

>  <EState_VSA5>
15.35

>  <EState_VSA6>
11.76

>  <EState_VSA7>
0

>  <EState_VSA8>
58.33

>  <EState_VSA9>
14.84

>  <EState_VSA10>
0

>  <VSA_EState1>
5.4

>  <VSA_EState2>
12.36

>  <VSA_EState3>
8.79

>  <VSA_EState4>
2.27

>  <VSA_EState5>
1.08

>  <VSA_EState6>
16.94

>  <VSA_EState7>
0

>  <VSA_EState8>
6.01

>  <VSA_EState9>
0

>  <apol>
59.54

>  <bpol>
33.84

>  <nRing>
4

>  <nHRing>
2

>  <naRing>
2

>  <naHRing>
0

>  <nARing 2>
2

>  <nAHRing 2>
2

>  <nFRing>
1

>  <nFHRing>
1

>  <nFaRing>
0

>  <nFaHRing>
0

>  <nFARing 2>
1

>  <nFAHRing 2>
1

>  <nRot>
5

>  <SLogP>
2.86

>  <SMR>
109.12

>  <TopoPSA(NO)>
48.3

>  <TopoPSA>
73.6

>  <JGI1>
0.12

>  <JGI2>
0.06

>  <JGI3>
0.03

>  <JGI4>
0.04

>  <JGI5>
0.02

>  <Diameter>
15

>  <Radius>
8

>  <TMWC10>
132.9

>  <TSRW10>
70.1

>  <MW>
383.17

>  <AMW>
7.37

>  <WPath>
1956

>  <WPol>
45

>  <Zagreb1>
140

>  <Zagreb2>
164

>  <mZagreb2>
6.11

>  <yes>


>  <nAR-cont>
1

>  <nHA-cont>
0.860070871

>  <MWHBN>
0.357603936

>  <MWHBN-cont>
0.641559867

>  <TPSA-cont>
0.486226297

>  <pka_cont>
0.97

>  <yes.1>


>  <BBB_SCORE>
4.279863266

>  <MMFF94 Energy>
169.89

$$$$
Compound 648
Actelion Java MolfileCreator 2.0

  0  0  0  0  0  0              0 V3000
M  V30 BEGIN CTAB
M  V30 COUNTS 50 52 0 0 0
M  V30 BEGIN ATOM
M  V30 1 O 3.557 6.3304 -0.7106 0
M  V30 2 C 2.9739 5.1491 -0.3439 0
M  V30 3 C 4.1615 6.3755 -1.9966 0
M  V30 4 C 2.9136 3.9889 -1.115 0
M  V30 5 C 2.3983 5.1517 0.9283 0
M  V30 6 C 2.2819 2.8429 -0.614 0
M  V30 7 C 1.7676 4.0083 1.4295 0
M  V30 8 C 1.702 2.839 0.6621 0
M  V30 9 C 1.0467 1.6383 1.1709 0
M  V30 10 N 0.4614 1.5509 2.3733 0
M  V30 11 N 0.9626 0.4802 0.4349 0
M  V30 12 N 0.0082 0.2818 2.3813 0
M  V30 13 C 0.3313 -0.375 1.2179 0
M  V30 14 C -0.8617 -0.137 3.456 0
M  V30 15 C 0.03 -1.765 0.8749 0
M  V30 16 C -2.3306 0.0236 3.0949 0
M  V30 17 C -0.3771 -2.0691 -0.4321 0
M  V30 18 C 0.2751 -2.8234 1.7582 0
M  V30 19 O -3.14 -0.4643 4.1617 0
M  V30 20 C -0.6275 -3.3922 -0.833 0
M  V30 21 C 0.0334 -4.1444 1.3727 0
M  V30 22 C -0.4251 -4.427 0.087 0
M  V30 23 C -1.0922 -3.6856 -2.2437 0
M  V30 24 N -2.4028 -3.0899 -2.5578 0
M  V30 25 C -3.4839 -3.7508 -1.8234 0
M  V30 26 C -2.6568 -3.1723 -3.997 0
M  V30 27 H 4.9855 5.6583 -2.0711 0
M  V30 28 H 4.5793 7.3774 -2.1344 0
M  V30 29 H 3.4214 6.2122 -2.7868 0
M  V30 30 H 3.3456 3.9365 -2.1084 0
M  V30 31 H 2.4405 6.0512 1.5375 0
M  V30 32 H 2.2454 1.9463 -1.2304 0
M  V30 33 H 1.3284 4.0381 2.4245 0
M  V30 34 H -0.6228 0.4624 4.3432 0
M  V30 35 H -0.634 -1.1689 3.7301 0
M  V30 36 H -2.5775 1.0769 2.9235 0
M  V30 37 H -2.5825 -0.5407 2.1911 0
M  V30 38 H -0.522 -1.2618 -1.1506 0
M  V30 39 H 0.6879 -2.6435 2.7472 0
M  V30 40 H -4.0672 -0.3061 3.9097 0
M  V30 41 H 0.2201 -4.9559 2.0718 0
M  V30 42 H -0.6066 -5.4606 -0.1977 0
M  V30 43 H -1.1034 -4.7686 -2.4262 0
M  V30 44 H -0.3248 -3.2735 -2.9132 0
M  V30 45 H -3.365 -3.627 -0.7419 0
M  V30 46 H -3.5403 -4.8226 -2.0457 0
M  V30 47 H -4.4499 -3.2984 -2.0756 0
M  V30 48 H -2.6818 -4.2081 -4.3545 0
M  V30 49 H -1.8851 -2.6319 -4.5565 0
M  V30 50 H -3.612 -2.6974 -4.2478 0
M  V30 END ATOM
M  V30 BEGIN BOND
M  V30 1 1 1 2
M  V30 2 1 1 3
M  V30 3 2 2 4
M  V30 4 1 2 5
M  V30 5 1 4 6
M  V30 6 2 5 7
M  V30 7 2 6 8
M  V30 8 1 8 9
M  V30 9 2 9 10
M  V30 10 1 9 11
M  V30 11 1 10 12
M  V30 12 2 11 13
M  V30 13 1 12 14
M  V30 14 1 13 15
M  V30 15 1 14 16
M  V30 16 2 15 17
M  V30 17 1 15 18
M  V30 18 1 16 19
M  V30 19 1 17 20
M  V30 20 2 18 21
M  V30 21 2 20 22
M  V30 22 1 20 23
M  V30 23 1 23 24
M  V30 24 1 24 25
M  V30 25 1 24 26
M  V30 26 1 7 8
M  V30 27 1 12 13
M  V30 28 1 21 22
M  V30 29 1 3 27
M  V30 30 1 3 28
M  V30 31 1 3 29
M  V30 32 1 4 30
M  V30 33 1 5 31
M  V30 34 1 6 32
M  V30 35 1 7 33
M  V30 36 1 14 34
M  V30 37 1 14 35
M  V30 38 1 16 36
M  V30 39 1 16 37
M  V30 40 1 17 38
M  V30 41 1 18 39
M  V30 42 1 19 40
M  V30 43 1 21 41
M  V30 44 1 22 42
M  V30 45 1 23 43
M  V30 46 1 23 44
M  V30 47 1 25 45
M  V30 48 1 25 46
M  V30 49 1 25 47
M  V30 50 1 26 48
M  V30 51 1 26 49
M  V30 52 1 26 50
M  V30 END BOND
M  V30 END CTAB
M  END
>  <Column 1>
778

>  <level_0>
889

>  <index>
889

>  <Unnamed: 0>
889

>  <NO.>
901

>  <Name>
schembl6578223

>  <IUPAC_name>
2-[5-[3-[(dimethylamino)methyl]phenyl]-3-(4-methoxyphenyl)-1-2-4-triazol-1-yl]ethanol

>  <SMILES>
COc1ccc(-c2nc(-c3cccc(CN(C)C)c3)n(CCO)n2)cc1

>  <CID>
21180284

>  <logBB>
0.71

>  <BBB+/BBB->
BBB+

>  <Inchi>
InChI=1S/C20H24N4O2/c1-23(2)14-15-5-4-6-17(13-15)20-21-19(22-24(20)11-12-25)16-7-9-18(26-3)10-8-16/h4-10-13-25H-11-12-14H2-1-3H3

>  <threshold>


>  <reference>
R47|

>  <group>
A

>  <Class>
1

>  <ABC>
19.9

>  <ABCGG>
15.78

>  <nAcid>
0

>  <nBase>
1

>  <nAromAtom>
17

>  <nAromBond>
17

>  <nAtom>
50

>  <nHeavyAtom>
26

>  <nSpiro>
0

>  <nBridgehead>
0

>  <nHetero>
6

>  <nN>
4

>  <nO>
2

>  <nF>
0

>  <BalabanJ>
1.58

>  <BertzCT>
856.5

>  <nBonds>
52

>  <nBondsO>
28

>  <nBondsS>
35

>  <nBondsD>
0

>  <nBondsT>
0

>  <nBondsA>
17

>  <nBondsM>
17

>  <nBondsKS>
44

>  <nBondsKD>
8

>  <RNCG>
0.23

>  <RPCG>
0.1

>  <FCSP3>
0.3

>  <SZ>
31.33

>  <Sm>
29.34

>  <Sv>
30.96

>  <Sse>
49.97

>  <Sp>
33.18

>  <Si>
56.57

>  <MZ>
0.63

>  <Mm>
0.59

>  <Mv>
0.62

>  <Mse>
1

>  <Mp>
0.66

>  <Mi>
1.13

>  <NsCH3>
3

>  <NdCH2>
0

>  <NssCH2>
3

>  <NtCH>
0

>  <NdsCH>
0

>  <NaaCH>
8

>  <NsssCH>
0

>  <NddC>
0

>  <NtsC>
0

>  <NdssC>
0

>  <NaasC>
6

>  <NaaaC>
0

>  <NssssC>
0

>  <NsNH3>
0

>  <NsNH2>
0

>  <NssNH2>
0

>  <NdNH>
0

>  <NssNH>
0

>  <NaaNH>
0

>  <NtN>
0

>  <NsssNH>
0

>  <NdsN>
0

>  <NaaN>
2

>  <NsssN>
1

>  <NddsN>
0

>  <NaasN>
1

>  <NssssN>
0

>  <NsOH>
1

>  <NdO>
0

>  <NssO>
1

>  <NaaO>
0

>  <NsF>
0

>  <NsSiH3>
0

>  <NssSiH2>
0

>  <NsssSiH>
0

>  <NssssSi>
0

>  <NsPH2>
0

>  <NssPH>
0

>  <NsssP>
0

>  <NdsssP>
0

>  <NsssssP>
0

>  <NsSH>
0

>  <NdS>
0

>  <NssS>
0

>  <NaaS>
0

>  <NdssS>
0

>  <NddssS>
0

>  <NsCl>
0

>  <NsBr>
0

>  <NsI>
0

>  <fragCpx>
134.06

>  <fMF>
0.34

>  <nHBAcc>
6

>  <nHBDon>
1

>  <Kier1>
20.73

>  <Kier2>
9.97

>  <Lipinski>
1

>  <GhoseFilter>
1

>  <FilterItLogS>
-4.7

>  <VMcGowan>
277.34

>  <LabuteASA>
153.23

>  <PEOE_VSA1>
14.74

>  <PEOE_VSA2>
0

>  <PEOE_VSA3>
9.67

>  <PEOE_VSA4>
5.1

>  <PEOE_VSA5>
0

>  <PEOE_VSA6>
18.2

>  <PEOE_VSA7>
49.99

>  <PEOE_VSA8>
17.67

>  <PEOE_VSA9>
20.26

>  <PEOE_VSA10>
5.75

>  <PEOE_VSA11>
11.65

>  <PEOE_VSA12>
0

>  <PEOE_VSA13>
0

>  <SMR_VSA1>
9.84

>  <SMR_VSA2>
0

>  <SMR_VSA3>
19.66

>  <SMR_VSA4>
0

>  <SMR_VSA5>
13.09

>  <SMR_VSA6>
27.81

>  <SMR_VSA7>
54.09

>  <SMR_VSA8>
0

>  <SMR_VSA9>
28.53

>  <SlogP_VSA1>
4.74

>  <SlogP_VSA2>
52.58

>  <SlogP_VSA3>
13.09

>  <SlogP_VSA4>
0

>  <SlogP_VSA5>
5.56

>  <SlogP_VSA6>
48.53

>  <SlogP_VSA7>
0

>  <SlogP_VSA8>
22.78

>  <SlogP_VSA9>
0

>  <SlogP_VSA10>
0

>  <SlogP_VSA11>
5.75

>  <EState_VSA1>
0

>  <EState_VSA2>
6.61

>  <EState_VSA3>
12.37

>  <EState_VSA4>
29.25

>  <EState_VSA5>
5.56

>  <EState_VSA6>
11.79

>  <EState_VSA7>
50.49

>  <EState_VSA8>
22.13

>  <EState_VSA9>
9.72

>  <EState_VSA10>
5.11

>  <VSA_EState1>
6.96

>  <VSA_EState2>
6.86

>  <VSA_EState3>
13.99

>  <VSA_EState4>
3.11

>  <VSA_EState5>
2.18

>  <VSA_EState6>
15.91

>  <VSA_EState7>
0

>  <VSA_EState8>
1.26

>  <VSA_EState9>
5.73

>  <apol>
55.41

>  <bpol>
30.37

>  <nRing>
3

>  <nHRing>
1

>  <naRing>
3

>  <naHRing>
1

>  <nARing 2>
0

>  <nAHRing 2>
0

>  <nFRing>
0

>  <nFHRing>
0

>  <nFaRing>
0

>  <nFaHRing>
0

>  <nFARing 2>
0

>  <nFAHRing 2>
0

>  <nRot>
7

>  <SLogP>
2.67

>  <SMR>
101.92

>  <TopoPSA(NO)>
63.41

>  <TopoPSA>
63.41

>  <JGI1>
0.2

>  <JGI2>
0.06

>  <JGI3>
0.04

>  <JGI4>
0.04

>  <JGI5>
0.03

>  <Diameter>
14

>  <Radius>
7

>  <TMWC10>
129.23

>  <TSRW10>
74.63

>  <MW>
352.19

>  <AMW>
7.04

>  <WPath>
1755

>  <WPol>
38

>  <Zagreb1>
132

>  <Zagreb2>
153

>  <mZagreb2>
5.92

>  <yes>


>  <nAR-cont>
0.336376

>  <nHA-cont>
0.892715677

>  <MWHBN>
0.373000599

>  <MWHBN-cont>
0.582187743

>  <TPSA-cont>
0.557358825

>  <pka_cont>
0.97

>  <yes.1>


>  <BBB_SCORE>
3.702090941

>  <MMFF94 Energy>
81.019

$$$$
Compound 649
Actelion Java MolfileCreator 2.0

  0  0  0  0  0  0              0 V3000
M  V30 BEGIN CTAB
M  V30 COUNTS 40 41 0 0 0
M  V30 BEGIN ATOM
M  V30 1 F 5.3496 -3.1113 -0.3187 0
M  V30 2 C 4.2273 -3.5944 -0.9194 0
M  V30 3 F 3.9498 -4.7748 -0.2982 0
M  V30 4 F 4.5948 -3.9219 -2.1898 0
M  V30 5 C 3.0823 -2.6132 -0.867 0
M  V30 6 C 2.1934 -2.6083 0.218 0
M  V30 7 C 2.903 -1.6686 -1.8862 0
M  V30 8 C 1.1421 -1.6861 0.2797 0
M  V30 9 C 1.8517 -0.7507 -1.8215 0
M  V30 10 C 0.9734 -0.7466 -0.7356 0
M  V30 11 O -0.0138 0.1959 -0.8045 0
M  V30 12 C -0.7177 0.5425 0.3998 0 CFG=2
M  V30 13 C -1.9288 -0.3516 0.6231 0
M  V30 14 C -1.1782 2.0058 0.2647 0
M  V30 15 C -2.6444 -0.9015 -0.4512 0
M  V30 16 C -2.3676 -0.6166 1.9305 0
M  V30 17 C 0.0134 2.9566 0.1179 0
M  V30 18 C -3.7598 -1.7091 -0.2235 0
M  V30 19 C -3.4841 -1.4237 2.1559 0
M  V30 20 N -0.4608 4.3428 0.0879 0
M  V30 21 C -4.1784 -1.9708 1.0791 0
M  V30 22 C 0.6511 5.2717 -0.0645 0
M  V30 23 H 2.3084 -3.3344 1.0221 0
M  V30 24 H 3.5782 -1.6453 -2.7401 0
M  V30 25 H 0.4634 -1.7442 1.1245 0
M  V30 26 H 1.7184 -0.0286 -2.624 0
M  V30 27 H -0.0405 0.483 1.2628 0
M  V30 28 H -1.8279 2.1131 -0.6145 0
M  V30 29 H -1.772 2.2915 1.143 0
M  V30 30 H -2.3329 -0.7057 -1.4753 0
M  V30 31 H -1.8431 -0.1921 2.784 0
M  V30 32 H 0.5629 2.7292 -0.8028 0
M  V30 33 H 0.6951 2.8179 0.9653 0
M  V30 34 H -4.3023 -2.1328 -1.0645 0
M  V30 35 H -3.8145 -1.6231 3.172 0
M  V30 36 H -1.1069 4.4634 -0.6923 0
M  V30 37 H -5.0479 -2.5986 1.2546 0
M  V30 38 H 1.1901 5.1024 -1.0022 0
M  V30 39 H 1.3524 5.1903 0.7721 0
M  V30 40 H 0.2699 6.2975 -0.0756 0
M  V30 END ATOM
M  V30 BEGIN BOND
M  V30 1 1 1 2
M  V30 2 1 2 3
M  V30 3 1 2 4
M  V30 4 1 2 5
M  V30 5 2 5 6
M  V30 6 1 5 7
M  V30 7 1 6 8
M  V30 8 2 7 9
M  V30 9 2 8 10
M  V30 10 1 10 11
M  V30 11 1 11 12
M  V30 12 1 12 13
M  V30 13 1 12 14
M  V30 14 2 13 15
M  V30 15 1 13 16
M  V30 16 1 14 17
M  V30 17 1 15 18
M  V30 18 2 16 19
M  V30 19 1 17 20
M  V30 20 2 18 21
M  V30 21 1 20 22
M  V30 22 1 9 10
M  V30 23 1 19 21
M  V30 24 1 6 23
M  V30 25 1 7 24
M  V30 26 1 8 25
M  V30 27 1 9 26
M  V30 28 1 12 27
M  V30 29 1 14 28
M  V30 30 1 14 29
M  V30 31 1 15 30
M  V30 32 1 16 31
M  V30 33 1 17 32
M  V30 34 1 17 33
M  V30 35 1 18 34
M  V30 36 1 19 35
M  V30 37 1 20 36
M  V30 38 1 21 37
M  V30 39 1 22 38
M  V30 40 1 22 39
M  V30 41 1 22 40
M  V30 END BOND
M  V30 BEGIN COLLECTION
M  V30 MDLV30/STERAC1 ATOMS=(1 12)
M  V30 END COLLECTION
M  V30 END CTAB
M  END
>  <Column 1>
779

>  <level_0>
890

>  <index>
890

>  <Unnamed: 0>
890

>  <NO.>
902

>  <Name>
fluoxetine

>  <IUPAC_name>
n-methyl-3-phenyl-3-[4-(trifluoromethyl)phenoxy]propan-1-amine

>  <SMILES>
CNCCC(Oc1ccc(C(F)(F)F)cc1)c1ccccc1

>  <CID>
3386

>  <logBB>
0.72

>  <BBB+/BBB->
BBB+

>  <Inchi>
InChI=1S/C17H18F3NO/c1-21-12-11-16(13-5-3-2-4-6-13)22-15-9-7-14(8-10-15)17(18-19)20/h2-10-16-21H-11-12H2-1H3

>  <threshold>


>  <reference>
R3|R25|R38|R41|R47|R21|R27|R43|R2|R2|R8|R27|R40|R18|R26|R27|R4|

>  <group>
A

>  <Class>
1

>  <ABC>
16.64

>  <ABCGG>
13.7

>  <nAcid>
0

>  <nBase>
1

>  <nAromAtom>
12

>  <nAromBond>
12

>  <nAtom>
40

>  <nHeavyAtom>
22

>  <nSpiro>
0

>  <nBridgehead>
0

>  <nHetero>
5

>  <nN>
1

>  <nO>
1

>  <nF>
3

>  <BalabanJ>
1.82

>  <BertzCT>
566.71

>  <nBonds>
41

>  <nBondsO>
23

>  <nBondsS>
29

>  <nBondsD>
0

>  <nBondsT>
0

>  <nBondsA>
12

>  <nBondsM>
12

>  <nBondsKS>
35

>  <nBondsKD>
6

>  <RNCG>
0.28

>  <RPCG>
0.24

>  <FCSP3>
0.29

>  <SZ>
27

>  <Sm>
25.75

>  <Sv>
25.29

>  <Sse>
40.85

>  <Sp>
26.33

>  <Si>
45.88

>  <MZ>
0.68

>  <Mm>
0.64

>  <Mv>
0.63

>  <Mse>
1.02

>  <Mp>
0.66

>  <Mi>
1.15

>  <NsCH3>
1

>  <NdCH2>
0

>  <NssCH2>
2

>  <NtCH>
0

>  <NdsCH>
0

>  <NaaCH>
9

>  <NsssCH>
1

>  <NddC>
0

>  <NtsC>
0

>  <NdssC>
0

>  <NaasC>
3

>  <NaaaC>
0

>  <NssssC>
1

>  <NsNH3>
0

>  <NsNH2>
0

>  <NssNH2>
0

>  <NdNH>
0

>  <NssNH>
1

>  <NaaNH>
0

>  <NtN>
0

>  <NsssNH>
0

>  <NdsN>
0

>  <NaaN>
0

>  <NsssN>
0

>  <NddsN>
0

>  <NaasN>
0

>  <NssssN>
0

>  <NsOH>
0

>  <NdO>
0

>  <NssO>
1

>  <NaaO>
0

>  <NsF>
3

>  <NsSiH3>
0

>  <NssSiH2>
0

>  <NsssSiH>
0

>  <NssssSi>
0

>  <NsPH2>
0

>  <NssPH>
0

>  <NsssP>
0

>  <NdsssP>
0

>  <NsssssP>
0

>  <NsSH>
0

>  <NdS>
0

>  <NssS>
0

>  <NaaS>
0

>  <NdssS>
0

>  <NddssS>
0

>  <NsCl>
0

>  <NsBr>
0

>  <NsI>
0

>  <fragCpx>
67.05

>  <fMF>
0.35

>  <nHBAcc>
2

>  <nHBDon>
1

>  <Kier1>
18.34

>  <Kier2>
8.74

>  <Lipinski>
1

>  <GhoseFilter>
1

>  <FilterItLogS>
-5.46

>  <VMcGowan>
224

>  <LabuteASA>
127.47

>  <PEOE_VSA1>
10.05

>  <PEOE_VSA2>
0

>  <PEOE_VSA3>
0

>  <PEOE_VSA4>
13.17

>  <PEOE_VSA5>
0

>  <PEOE_VSA6>
30.33

>  <PEOE_VSA7>
43.42

>  <PEOE_VSA8>
6.42

>  <PEOE_VSA9>
5.56

>  <PEOE_VSA10>
11.85

>  <PEOE_VSA11>
0

>  <PEOE_VSA12>
0

>  <PEOE_VSA13>
0

>  <SMR_VSA1>
17.91

>  <SMR_VSA2>
0

>  <SMR_VSA3>
5.32

>  <SMR_VSA4>
0

>  <SMR_VSA5>
18.7

>  <SMR_VSA6>
13.59

>  <SMR_VSA7>
65.72

>  <SMR_VSA8>
0

>  <SMR_VSA9>
5.75

>  <SlogP_VSA1>
10.05

>  <SlogP_VSA2>
13.59

>  <SlogP_VSA3>
6.18

>  <SlogP_VSA4>
0

>  <SlogP_VSA5>
23.65

>  <SlogP_VSA6>
54.6

>  <SlogP_VSA7>
0

>  <SlogP_VSA8>
0

>  <SlogP_VSA9>
0

>  <SlogP_VSA10>
13.17

>  <SlogP_VSA11>
5.75

>  <EState_VSA1>
11.74

>  <EState_VSA2>
6.1

>  <EState_VSA3>
5.75

>  <EState_VSA4>
30.66

>  <EState_VSA5>
12.13

>  <EState_VSA6>
0

>  <EState_VSA7>
37.38

>  <EState_VSA8>
5.32

>  <EState_VSA9>
4.74

>  <EState_VSA10>
13.17

>  <VSA_EState1>
43.56

>  <VSA_EState2>
0

>  <VSA_EState3>
3.05

>  <VSA_EState4>
0.32

>  <VSA_EState5>
0.43

>  <VSA_EState6>
14.43

>  <VSA_EState7>
-3.81

>  <VSA_EState8>
0.75

>  <VSA_EState9>
1.85

>  <apol>
43.97

>  <bpol>
23.7

>  <nRing>
2

>  <nHRing>
0

>  <naRing>
2

>  <naHRing>
0

>  <nARing 2>
0

>  <nAHRing 2>
0

>  <nFRing>
0

>  <nFHRing>
0

>  <nFaRing>
0

>  <nFaHRing>
0

>  <nFARing 2>
0

>  <nFAHRing 2>
0

>  <nRot>
6

>  <SLogP>
4.44

>  <SMR>
79.8

>  <TopoPSA(NO)>
21.26

>  <TopoPSA>
21.26

>  <JGI1>
0.22

>  <JGI2>
0.08

>  <JGI3>
0.04

>  <JGI4>
0.03

>  <JGI5>
0.03

>  <Diameter>
11

>  <Radius>
6

>  <TMWC10>
117.33

>  <TSRW10>
55.61

>  <MW>
309.13

>  <AMW>
7.73

>  <WPath>
1148

>  <WPol>
30

>  <Zagreb1>
108

>  <Zagreb2>
121

>  <mZagreb2>
4.94

>  <yes>


>  <nAR-cont>
0.336376

>  <nHA-cont>
0.983774276

>  <MWHBN>
0.170628148

>  <MWHBN-cont>
0.974937414

>  <TPSA-cont>
0.851591998

>  <pka_cont>
0.97

>  <yes.1>


>  <BBB_SCORE>
4.970740393

>  <MMFF94 Energy>
74.135

$$$$
Compound 650
Actelion Java MolfileCreator 2.0

  0  0  0  0  0  0              0 V3000
M  V30 BEGIN CTAB
M  V30 COUNTS 24 23 0 0 0
M  V30 BEGIN ATOM
M  V30 1 C -2.8936 -0.6847 -1.9029 0
M  V30 2 C -3.0479 -1.3837 -3.0343 0
M  V30 3 C -1.7012 0.1768 -1.6014 0
M  V30 4 C -0.9507 -0.3255 -0.3663 0
M  V30 5 C 0.2564 0.5604 -0.0519 0
M  V30 6 C 1.0076 0.0599 1.1829 0
M  V30 7 C 2.2135 0.945 1.4966 0
M  V30 8 C 2.963 0.4508 2.7236 0
M  V30 9 H -3.6764 -0.7241 -1.1478 0
M  V30 10 H -2.2979 -1.3734 -3.819 0
M  V30 11 H -3.9361 -1.9862 -3.1979 0
M  V30 12 H -2.0487 1.2032 -1.4333 0
M  V30 13 H -1.0195 0.2082 -2.4601 0
M  V30 14 H -0.6149 -1.3571 -0.5312 0
M  V30 15 H -1.6266 -0.3427 0.4981 0
M  V30 16 H -0.0782 1.5916 0.1146 0
M  V30 17 H 0.935 0.5757 -0.9133 0
M  V30 18 H 1.342 -0.9712 1.0166 0
M  V30 19 H 0.3291 0.0445 2.0446 0
M  V30 20 H 2.897 0.9606 0.6399 0
M  V30 21 H 1.8841 1.9765 1.6679 0
M  V30 22 H 3.8212 1.0981 2.9297 0
M  V30 23 H 2.3156 0.4537 3.6064 0
M  V30 24 H 3.3342 -0.5677 2.5727 0
M  V30 END ATOM
M  V30 BEGIN BOND
M  V30 1 2 1 2
M  V30 2 1 1 3
M  V30 3 1 3 4
M  V30 4 1 4 5
M  V30 5 1 5 6
M  V30 6 1 6 7
M  V30 7 1 7 8
M  V30 8 1 1 9
M  V30 9 1 2 10
M  V30 10 1 2 11
M  V30 11 1 3 12
M  V30 12 1 3 13
M  V30 13 1 4 14
M  V30 14 1 4 15
M  V30 15 1 5 16
M  V30 16 1 5 17
M  V30 17 1 6 18
M  V30 18 1 6 19
M  V30 19 1 7 20
M  V30 20 1 7 21
M  V30 21 1 8 22
M  V30 22 1 8 23
M  V30 23 1 8 24
M  V30 END BOND
M  V30 END CTAB
M  END
>  <Column 1>
781

>  <level_0>
892

>  <index>
892

>  <Unnamed: 0>
892

>  <NO.>
904

>  <Name>
1-octene

>  <IUPAC_name>
oct-1-ene

>  <SMILES>
C=CCCCCCC

>  <CID>
8125

>  <logBB>
0.74

>  <BBB+/BBB->
BBB+

>  <Inchi>
InChI=1S/C8H16/c1-3-5-7-8-6-4-2/h3H-1-4-8H2-2H3

>  <threshold>


>  <reference>
R3|R21|R25|R27|R38|R41|R46|R47|R2|R2|R8|R27|R40|

>  <group>
A

>  <Class>
1

>  <ABC>
4.95

>  <ABCGG>
5.14

>  <nAcid>
0

>  <nBase>
0

>  <nAromAtom>
0

>  <nAromBond>
0

>  <nAtom>
24

>  <nHeavyAtom>
8

>  <nSpiro>
0

>  <nBridgehead>
0

>  <nHetero>
0

>  <nN>
0

>  <nO>
0

>  <nF>
0

>  <BalabanJ>
2.53

>  <BertzCT>
46

>  <nBonds>
23

>  <nBondsO>
7

>  <nBondsS>
22

>  <nBondsD>
1

>  <nBondsT>
0

>  <nBondsA>
0

>  <nBondsM>
1

>  <nBondsKS>
22

>  <nBondsKD>
1

>  <RNCG>
0.2

>  <RPCG>
0.11

>  <FCSP3>
0.75

>  <SZ>
10.67

>  <Sm>
9.34

>  <Sv>
12.33

>  <Sse>
23.1

>  <Sp>
14.39

>  <Si>
27.32

>  <MZ>
0.44

>  <Mm>
0.39

>  <Mv>
0.51

>  <Mse>
0.96

>  <Mp>
0.6

>  <Mi>
1.14

>  <NsCH3>
1

>  <NdCH2>
1

>  <NssCH2>
5

>  <NtCH>
0

>  <NdsCH>
1

>  <NaaCH>
0

>  <NsssCH>
0

>  <NddC>
0

>  <NtsC>
0

>  <NdssC>
0

>  <NaasC>
0

>  <NaaaC>
0

>  <NssssC>
0

>  <NsNH3>
0

>  <NsNH2>
0

>  <NssNH2>
0

>  <NdNH>
0

>  <NssNH>
0

>  <NaaNH>
0

>  <NtN>
0

>  <NsssNH>
0

>  <NdsN>
0

>  <NaaN>
0

>  <NsssN>
0

>  <NddsN>
0

>  <NaasN>
0

>  <NssssN>
0

>  <NsOH>
0

>  <NdO>
0

>  <NssO>
0

>  <NaaO>
0

>  <NsF>
0

>  <NsSiH3>
0

>  <NssSiH2>
0

>  <NsssSiH>
0

>  <NssssSi>
0

>  <NsPH2>
0

>  <NssPH>
0

>  <NsssP>
0

>  <NdsssP>
0

>  <NsssssP>
0

>  <NsSH>
0

>  <NdS>
0

>  <NssS>
0

>  <NaaS>
0

>  <NdssS>
0

>  <NddssS>
0

>  <NsCl>
0

>  <NsBr>
0

>  <NsI>
0

>  <fragCpx>
7

>  <fMF>
0

>  <nHBAcc>
0

>  <nHBDon>
0

>  <Kier1>
8

>  <Kier2>
7

>  <Lipinski>
1

>  <GhoseFilter>
0

>  <FilterItLogS>
-2.68

>  <VMcGowan>
119.28

>  <LabuteASA>
52.6

>  <PEOE_VSA1>
0

>  <PEOE_VSA2>
0

>  <PEOE_VSA3>
0

>  <PEOE_VSA4>
0

>  <PEOE_VSA5>
6.58

>  <PEOE_VSA6>
32.26

>  <PEOE_VSA7>
12.84

>  <PEOE_VSA8>
0

>  <PEOE_VSA9>
0

>  <PEOE_VSA10>
0

>  <PEOE_VSA11>
0

>  <PEOE_VSA12>
0

>  <PEOE_VSA13>
0

>  <SMR_VSA1>
0

>  <SMR_VSA2>
0

>  <SMR_VSA3>
0

>  <SMR_VSA4>
0

>  <SMR_VSA5>
39.03

>  <SMR_VSA6>
0

>  <SMR_VSA7>
12.65

>  <SMR_VSA8>
0

>  <SMR_VSA9>
0

>  <SlogP_VSA1>
0

>  <SlogP_VSA2>
0

>  <SlogP_VSA3>
0

>  <SlogP_VSA4>
0

>  <SlogP_VSA5>
39.03

>  <SlogP_VSA6>
12.65

>  <SlogP_VSA7>
0

>  <SlogP_VSA8>
0

>  <SlogP_VSA9>
0

>  <SlogP_VSA10>
0

>  <SlogP_VSA11>
0

>  <EState_VSA1>
0

>  <EState_VSA2>
0

>  <EState_VSA3>
0

>  <EState_VSA4>
0

>  <EState_VSA5>
32.1

>  <EState_VSA6>
0

>  <EState_VSA7>
6.08

>  <EState_VSA8>
13.5

>  <EState_VSA9>
0

>  <EState_VSA10>
0

>  <VSA_EState1>
0

>  <VSA_EState2>
0

>  <VSA_EState3>
0

>  <VSA_EState4>
0

>  <VSA_EState5>
0

>  <VSA_EState6>
0

>  <VSA_EState7>
8.61

>  <VSA_EState8>
5.89

>  <VSA_EState9>
0

>  <apol>
24.03

>  <bpol>
16.05

>  <nRing>
0

>  <nHRing>
0

>  <naRing>
0

>  <naHRing>
0

>  <nARing 2>
0

>  <nAHRing 2>
0

>  <nFRing>
0

>  <nFHRing>
0

>  <nFaRing>
0

>  <nFaHRing>
0

>  <nFARing 2>
0

>  <nFAHRing 2>
0

>  <nRot>
5

>  <SLogP>
3.14

>  <SMR>
38.96

>  <TopoPSA(NO)>
0

>  <TopoPSA>
0

>  <JGI1>
0.07

>  <JGI2>
0.04

>  <JGI3>
0.03

>  <JGI4>
0.02

>  <JGI5>
0.02

>  <Diameter>
7

>  <Radius>
4

>  <TMWC10>
66.91

>  <TSRW10>
32.19

>  <MW>
112.13

>  <AMW>
4.67

>  <WPath>
84

>  <WPol>
5

>  <Zagreb1>
26

>  <Zagreb2>
24

>  <mZagreb2>
2.25

>  <yes>


>  <nAR-cont>
0.336376

>  <nHA-cont>
0.464727961

>  <MWHBN>
0

>  <MWHBN-cont>
0

>  <TPSA-cont>
0

>  <pka_cont>
0.97

>  <yes.1>


>  <BBB_SCORE>
1.286103961

>  <MMFF94 Energy>
4.6266

$$$$
Compound 651
Actelion Java MolfileCreator 2.0

  0  0  0  0  0  0              0 V3000
M  V30 BEGIN CTAB
M  V30 COUNTS 47 48 0 0 0
M  V30 BEGIN ATOM
M  V30 1 O 0.0 -1.0213 0.3141 0
M  V30 2 C 0.47 0.1139 0.2734 0
M  V30 3 N -0.2209 1.1728 -0.2969 0
M  V30 4 C 1.8405 0.5107 0.8652 0
M  V30 5 C -1.525 0.9987 -0.9035 0
M  V30 6 C 1.7311 1.0938 2.2749 0
M  V30 7 C 2.8902 -0.5924 0.7598 0
M  V30 8 C -1.4061 0.5152 -2.3474 0
M  V30 9 C 2.6407 2.0844 2.6849 0
M  V30 10 C 0.7679 0.6492 3.1952 0
M  V30 11 C 2.7583 -1.8037 1.4573 0
M  V30 12 C 4.0305 -0.4034 -0.04 0
M  V30 13 C -2.7494 0.4491 -3.078 0
M  V30 14 C 2.5728 2.6297 3.9683 0
M  V30 15 C 0.7018 1.197 4.4782 0
M  V30 16 C 3.7351 -2.7962 1.3573 0
M  V30 17 C 5.0069 -1.3971 -0.138 0
M  V30 18 C -3.7 -0.6036 -2.5038 0
M  V30 19 C 1.6012 2.1884 4.8631 0
M  V30 20 C 4.8591 -2.5926 0.5608 0
M  V30 21 C -4.9789 -0.7071 -3.3362 0
M  V30 22 C -5.9299 -1.7493 -2.7692 0
M  V30 23 H 0.17 2.1049 -0.2496 0
M  V30 24 H 2.1863 1.3377 0.2254 0
M  V30 25 H -2.0273 1.9711 -0.8652 0
M  V30 26 H -2.1007 0.2927 -0.2966 0
M  V30 27 H -0.9209 -0.4682 -2.3758 0
M  V30 28 H -0.746 1.1974 -2.8986 0
M  V30 29 H 3.418 2.4317 2.0073 0
M  V30 30 H 0.061 -0.1349 2.9283 0
M  V30 31 H 1.8836 -1.9887 2.0779 0
M  V30 32 H 4.1705 0.5211 -0.5951 0
M  V30 33 H -2.5537 0.2181 -4.1325 0
M  V30 34 H -3.2299 1.4349 -3.0548 0
M  V30 35 H 3.2839 3.3934 4.2725 0
M  V30 36 H -0.0495 0.8427 5.1795 0
M  V30 37 H 3.6134 -3.7299 1.9 0
M  V30 38 H 5.8832 -1.2385 -0.761 0
M  V30 39 H -3.9648 -0.3483 -1.4716 0
M  V30 40 H -3.1981 -1.5784 -2.4795 0
M  V30 41 H 1.5509 2.6092 5.8639 0
M  V30 42 H 5.6173 -3.367 0.4832 0
M  V30 43 H -5.4851 0.2649 -3.3633 0
M  V30 44 H -4.7303 -0.9728 -4.3703 0
M  V30 45 H -6.8366 -1.8071 -3.3796 0
M  V30 46 H -5.4643 -2.74 -2.7575 0
M  V30 47 H -6.225 -1.4958 -1.7458 0
M  V30 END ATOM
M  V30 BEGIN BOND
M  V30 1 2 1 2
M  V30 2 1 2 3
M  V30 3 1 2 4
M  V30 4 1 3 5
M  V30 5 1 4 6
M  V30 6 1 4 7
M  V30 7 1 5 8
M  V30 8 2 6 9
M  V30 9 1 6 10
M  V30 10 2 7 11
M  V30 11 1 7 12
M  V30 12 1 8 13
M  V30 13 1 9 14
M  V30 14 2 10 15
M  V30 15 1 11 16
M  V30 16 2 12 17
M  V30 17 1 13 18
M  V30 18 2 14 19
M  V30 19 2 16 20
M  V30 20 1 18 21
M  V30 21 1 21 22
M  V30 22 1 15 19
M  V30 23 1 17 20
M  V30 24 1 3 23
M  V30 25 1 4 24
M  V30 26 1 5 25
M  V30 27 1 5 26
M  V30 28 1 8 27
M  V30 29 1 8 28
M  V30 30 1 9 29
M  V30 31 1 10 30
M  V30 32 1 11 31
M  V30 33 1 12 32
M  V30 34 1 13 33
M  V30 35 1 13 34
M  V30 36 1 14 35
M  V30 37 1 15 36
M  V30 38 1 16 37
M  V30 39 1 17 38
M  V30 40 1 18 39
M  V30 41 1 18 40
M  V30 42 1 19 41
M  V30 43 1 20 42
M  V30 44 1 21 43
M  V30 45 1 21 44
M  V30 46 1 22 45
M  V30 47 1 22 46
M  V30 48 1 22 47
M  V30 END BOND
M  V30 END CTAB
M  END
>  <Column 1>
782

>  <level_0>
893

>  <index>
893

>  <Unnamed: 0>
893

>  <NO.>
905

>  <Name>
n-hexyl-2-2-diphenylacetamide

>  <IUPAC_name>
n-hexyl-2-2-diphenylacetamide

>  <SMILES>
CCCCCCNC(=O)C(c1ccccc1)c1ccccc1

>  <CID>
4080062

>  <logBB>
0.74

>  <BBB+/BBB->
BBB+

>  <Inchi>
InChI=1S/C20H25NO/c1-2-3-4-11-16-21-20(22)19(17-12-7-5-8-13-17)18-14-9-6-10-15-18/h5-10-12-15-19H-2-4-11-16H2-1H3-(H-21-22)

>  <threshold>


>  <reference>
R47|

>  <group>
A

>  <Class>
1

>  <ABC>
16.25

>  <ABCGG>
13.59

>  <nAcid>
0

>  <nBase>
0

>  <nAromAtom>
12

>  <nAromBond>
12

>  <nAtom>
47

>  <nHeavyAtom>
22

>  <nSpiro>
0

>  <nBridgehead>
0

>  <nHetero>
2

>  <nN>
1

>  <nO>
1

>  <nF>
0

>  <BalabanJ>
1.84

>  <BertzCT>
510.93

>  <nBonds>
48

>  <nBondsO>
23

>  <nBondsS>
35

>  <nBondsD>
1

>  <nBondsT>
0

>  <nBondsA>
12

>  <nBondsM>
13

>  <nBondsKS>
41

>  <nBondsKD>
7

>  <RNCG>
0.23

>  <RPCG>
0.15

>  <FCSP3>
0.35

>  <SZ>
26.67

>  <Sm>
24.6

>  <Sv>
28.25

>  <Sse>
46.09

>  <Sp>
31.12

>  <Si>
52.69

>  <MZ>
0.57

>  <Mm>
0.52

>  <Mv>
0.6

>  <Mse>
0.98

>  <Mp>
0.66

>  <Mi>
1.12

>  <NsCH3>
1

>  <NdCH2>
0

>  <NssCH2>
5

>  <NtCH>
0

>  <NdsCH>
0

>  <NaaCH>
10

>  <NsssCH>
1

>  <NddC>
0

>  <NtsC>
0

>  <NdssC>
1

>  <NaasC>
2

>  <NaaaC>
0

>  <NssssC>
0

>  <NsNH3>
0

>  <NsNH2>
0

>  <NssNH2>
0

>  <NdNH>
0

>  <NssNH>
1

>  <NaaNH>
0

>  <NtN>
0

>  <NsssNH>
0

>  <NdsN>
0

>  <NaaN>
0

>  <NsssN>
0

>  <NddsN>
0

>  <NaasN>
0

>  <NssssN>
0

>  <NsOH>
0

>  <NdO>
1

>  <NssO>
0

>  <NaaO>
0

>  <NsF>
0

>  <NsSiH3>
0

>  <NssSiH2>
0

>  <NsssSiH>
0

>  <NssssSi>
0

>  <NsPH2>
0

>  <NssPH>
0

>  <NsssP>
0

>  <NdsssP>
0

>  <NsssssP>
0

>  <NsSH>
0

>  <NdS>
0

>  <NssS>
0

>  <NaaS>
0

>  <NdssS>
0

>  <NddssS>
0

>  <NsCl>
0

>  <NsBr>
0

>  <NsI>
0

>  <fragCpx>
67.02

>  <fMF>
0.28

>  <nHBAcc>
1

>  <nHBDon>
1

>  <Kier1>
18.34

>  <Kier2>
10.71

>  <Lipinski>
1

>  <GhoseFilter>
1

>  <FilterItLogS>
-5.85

>  <VMcGowan>
256.69

>  <LabuteASA>
133.12

>  <PEOE_VSA1>
5.32

>  <PEOE_VSA2>
4.79

>  <PEOE_VSA3>
0

>  <PEOE_VSA4>
0

>  <PEOE_VSA5>
0

>  <PEOE_VSA6>
86.85

>  <PEOE_VSA7>
17.55

>  <PEOE_VSA8>
6.54

>  <PEOE_VSA9>
5.92

>  <PEOE_VSA10>
0

>  <PEOE_VSA11>
0

>  <PEOE_VSA12>
5.91

>  <PEOE_VSA13>
0

>  <SMR_VSA1>
4.79

>  <SMR_VSA2>
0

>  <SMR_VSA3>
5.32

>  <SMR_VSA4>
0

>  <SMR_VSA5>
38.52

>  <SMR_VSA6>
6.54

>  <SMR_VSA7>
71.79

>  <SMR_VSA8>
0

>  <SMR_VSA9>
0

>  <SlogP_VSA1>
5.32

>  <SlogP_VSA2>
12.45

>  <SlogP_VSA3>
4.79

>  <SlogP_VSA4>
0

>  <SlogP_VSA5>
49.65

>  <SlogP_VSA6>
60.66

>  <SlogP_VSA7>
0

>  <SlogP_VSA8>
0

>  <SlogP_VSA9>
0

>  <SlogP_VSA10>
0

>  <SlogP_VSA11>
0

>  <EState_VSA1>
0

>  <EState_VSA2>
11.83

>  <EState_VSA3>
0

>  <EState_VSA4>
24.09

>  <EState_VSA5>
19.26

>  <EState_VSA6>
0

>  <EState_VSA7>
60.66

>  <EState_VSA8>
12.24

>  <EState_VSA9>
0

>  <EState_VSA10>
4.79

>  <VSA_EState1>
0

>  <VSA_EState2>
12.67

>  <VSA_EState3>
3.1

>  <VSA_EState4>
2.08

>  <VSA_EState5>
-0.14

>  <VSA_EState6>
19.99

>  <VSA_EState7>
4.68

>  <VSA_EState8>
2.95

>  <VSA_EState9>
0

>  <apol>
51.97

>  <bpol>
26.52

>  <nRing>
2

>  <nHRing>
0

>  <naRing>
2

>  <naHRing>
0

>  <nARing 2>
0

>  <nAHRing 2>
0

>  <nFRing>
0

>  <nFHRing>
0

>  <nFaRing>
0

>  <nFaHRing>
0

>  <nFARing 2>
0

>  <nFAHRing 2>
0

>  <nRot>
8

>  <SLogP>
4.52

>  <SMR>
91.88

>  <TopoPSA(NO)>
29.1

>  <TopoPSA>
29.1

>  <JGI1>
0.09

>  <JGI2>
0.06

>  <JGI3>
0.05

>  <JGI4>
0.03

>  <JGI5>
0.01

>  <Diameter>
12

>  <Radius>
6

>  <TMWC10>
116.57

>  <TSRW10>
55.08

>  <MW>
295.19

>  <AMW>
6.28

>  <WPath>
1148

>  <WPol>
29

>  <Zagreb1>
102

>  <Zagreb2>
114

>  <mZagreb2>
5.25

>  <yes>


>  <nAR-cont>
0.336376

>  <nHA-cont>
0.983774276

>  <MWHBN>
0.116407021

>  <MWHBN-cont>
0.813488281

>  <TPSA-cont>
0.79686393

>  <pka_cont>
0.97

>  <yes.1>


>  <BBB_SCORE>
4.619110557

>  <MMFF94 Energy>
63.49

$$$$
Compound 652
Actelion Java MolfileCreator 2.0

  0  0  0  0  0  0              0 V3000
M  V30 BEGIN CTAB
M  V30 COUNTS 36 39 0 0 0
M  V30 BEGIN ATOM
M  V30 1 Cl -0.0822 -4.202 0.5759 0
M  V30 2 C -1.379 -3.101 0.8708 0
M  V30 3 C -1.2156 -1.7129 0.8044 0
M  V30 4 C -2.6444 -3.6314 1.1362 0
M  V30 5 C 0.1065 -1.091 0.5407 0
M  V30 6 C -2.3075 -0.8593 1.0114 0
M  V30 7 C -3.735 -2.7814 1.3384 0
M  V30 8 N 0.9784 -1.1596 1.4896 0
M  V30 9 C 0.2969 -0.4135 -0.7825 0
M  V30 10 C -3.5668 -1.3977 1.2766 0
M  V30 11 C 2.2933 -0.558 1.3184 0
M  V30 12 C 0.9358 0.8337 -0.9198 0
M  V30 13 C -0.1853 -1.0617 -1.9312 0
M  V30 14 C 2.1332 0.9063 1.2399 0
M  V30 15 N 1.4527 1.5123 0.2093 0
M  V30 16 C 1.1218 1.3962 -2.1922 0
M  V30 17 C -0.0199 -0.4802 -3.1876 0
M  V30 18 C 2.5343 1.9241 2.0711 0
M  V30 19 C 1.3964 2.8652 0.5164 0
M  V30 20 C 0.6341 0.7407 -3.3234 0
M  V30 21 Cl -0.6147 -1.2875 -4.5853 0
M  V30 22 N 2.0887 3.1306 1.609 0
M  V30 23 C 0.6183 3.8784 -0.243 0
M  V30 24 H -2.7891 -4.708 1.1864 0
M  V30 25 H -2.178 0.2199 0.9879 0
M  V30 26 H -4.7166 -3.2003 1.5498 0
M  V30 27 H -4.4158 -0.7389 1.4458 0
M  V30 28 H 2.9089 -0.8215 2.1859 0
M  V30 29 H 2.8108 -0.9632 0.4405 0
M  V30 30 H -0.6718 -2.0315 -1.8631 0
M  V30 31 H 1.6679 2.327 -2.3282 0
M  V30 32 H 3.1026 1.8474 2.9893 0
M  V30 33 H 0.78 1.1805 -4.3075 0
M  V30 34 H 1.2021 4.2639 -1.0836 0
M  V30 35 H -0.3254 3.4695 -0.6158 0
M  V30 36 H 0.373 4.7257 0.4062 0
M  V30 END ATOM
M  V30 BEGIN BOND
M  V30 1 1 1 2
M  V30 2 2 2 3
M  V30 3 1 2 4
M  V30 4 1 3 5
M  V30 5 1 3 6
M  V30 6 2 4 7
M  V30 7 2 5 8
M  V30 8 1 5 9
M  V30 9 2 6 10
M  V30 10 1 8 11
M  V30 11 2 9 12
M  V30 12 1 9 13
M  V30 13 1 11 14
M  V30 14 1 12 15
M  V30 15 1 12 16
M  V30 16 2 13 17
M  V30 17 2 14 18
M  V30 18 1 15 19
M  V30 19 2 16 20
M  V30 20 1 17 21
M  V30 21 1 18 22
M  V30 22 1 19 23
M  V30 23 1 7 10
M  V30 24 1 14 15
M  V30 25 1 17 20
M  V30 26 2 19 22
M  V30 27 1 4 24
M  V30 28 1 6 25
M  V30 29 1 7 26
M  V30 30 1 10 27
M  V30 31 1 11 28
M  V30 32 1 11 29
M  V30 33 1 13 30
M  V30 34 1 16 31
M  V30 35 1 18 32
M  V30 36 1 20 33
M  V30 37 1 23 34
M  V30 38 1 23 35
M  V30 39 1 23 36
M  V30 END BOND
M  V30 END CTAB
M  END
>  <Column 1>
785

>  <level_0>
896

>  <index>
896

>  <Unnamed: 0>
896

>  <NO.>
908

>  <Name>
climazolam

>  <IUPAC_name>
8-chloro-6-(2-chlorophenyl)-1-methyl-4h-imidazo[1-5-a][1-4]benzodiazepine

>  <SMILES>
Cc1ncc2n1-c1ccc(Cl)cc1C(c1ccccc1Cl)=NC2

>  <CID>
68790

>  <logBB>
0.74

>  <BBB+/BBB->
BBB+

>  <Inchi>
InChI=1S/C18H13Cl2N3/c1-11-21-9-13-10-22-18(14-4-2-3-5-16(14)20)15-8-12(19)6-7-17(15)23(11)13/h2-9H-10H2-1H3

>  <threshold>


>  <reference>
R18|R26|R27|

>  <group>
A

>  <Class>
1

>  <ABC>
18.43

>  <ABCGG>
15.09

>  <nAcid>
0

>  <nBase>
0

>  <nAromAtom>
17

>  <nAromBond>
17

>  <nAtom>
36

>  <nHeavyAtom>
23

>  <nSpiro>
0

>  <nBridgehead>
0

>  <nHetero>
5

>  <nN>
3

>  <nO>
0

>  <nF>
0

>  <BalabanJ>
1.61

>  <BertzCT>
941.19

>  <nBonds>
39

>  <nBondsO>
26

>  <nBondsS>
21

>  <nBondsD>
1

>  <nBondsT>
0

>  <nBondsA>
17

>  <nBondsM>
18

>  <nBondsKS>
30

>  <nBondsKD>
9

>  <RNCG>
0.23

>  <RPCG>
0.08

>  <FCSP3>
0.11

>  <SZ>
29.33

>  <Sm>
28.49

>  <Sv>
25.98

>  <Sse>
36.29

>  <Sp>
27.78

>  <Si>
39.87

>  <MZ>
0.81

>  <Mm>
0.79

>  <Mv>
0.72

>  <Mse>
1.01

>  <Mp>
0.77

>  <Mi>
1.11

>  <NsCH3>
1

>  <NdCH2>
0

>  <NssCH2>
1

>  <NtCH>
0

>  <NdsCH>
0

>  <NaaCH>
8

>  <NsssCH>
0

>  <NddC>
0

>  <NtsC>
0

>  <NdssC>
1

>  <NaasC>
7

>  <NaaaC>
0

>  <NssssC>
0

>  <NsNH3>
0

>  <NsNH2>
0

>  <NssNH2>
0

>  <NdNH>
0

>  <NssNH>
0

>  <NaaNH>
0

>  <NtN>
0

>  <NsssNH>
0

>  <NdsN>
1

>  <NaaN>
1

>  <NsssN>
0

>  <NddsN>
0

>  <NaasN>
1

>  <NssssN>
0

>  <NsOH>
0

>  <NdO>
0

>  <NssO>
0

>  <NaaO>
0

>  <NsF>
0

>  <NsSiH3>
0

>  <NssSiH2>
0

>  <NsssSiH>
0

>  <NssssSi>
0

>  <NsPH2>
0

>  <NssPH>
0

>  <NsssP>
0

>  <NdsssP>
0

>  <NsssssP>
0

>  <NsSH>
0

>  <NdS>
0

>  <NssS>
0

>  <NaaS>
0

>  <NdssS>
0

>  <NddssS>
0

>  <NsCl>
2

>  <NsBr>
0

>  <NsI>
0

>  <fragCpx>
170.05

>  <fMF>
0.56

>  <nHBAcc>
3

>  <nHBDon>
0

>  <Kier1>
16.47

>  <Kier2>
6.72

>  <Lipinski>
1

>  <GhoseFilter>
1

>  <FilterItLogS>
-6.4

>  <VMcGowan>
236.76

>  <LabuteASA>
143.78

>  <PEOE_VSA1>
0

>  <PEOE_VSA2>
9.56

>  <PEOE_VSA3>
4.98

>  <PEOE_VSA4>
0

>  <PEOE_VSA5>
0

>  <PEOE_VSA6>
41.4

>  <PEOE_VSA7>
31.19

>  <PEOE_VSA8>
21.17

>  <PEOE_VSA9>
29.83

>  <PEOE_VSA10>
5.82

>  <PEOE_VSA11>
0

>  <PEOE_VSA12>
0

>  <PEOE_VSA13>
0

>  <SMR_VSA1>
0

>  <SMR_VSA2>
0

>  <SMR_VSA3>
9.55

>  <SMR_VSA4>
4.99

>  <SMR_VSA5>
13.47

>  <SMR_VSA6>
0

>  <SMR_VSA7>
81.35

>  <SMR_VSA8>
0

>  <SMR_VSA9>
5.69

>  <SlogP_VSA1>
0

>  <SlogP_VSA2>
15.26

>  <SlogP_VSA3>
6.54

>  <SlogP_VSA4>
6.92

>  <SlogP_VSA5>
22.65

>  <SlogP_VSA6>
53.65

>  <SlogP_VSA7>
10.05

>  <SlogP_VSA8>
5.69

>  <SlogP_VSA9>
0

>  <SlogP_VSA10>
0

>  <SlogP_VSA11>
0

>  <EState_VSA1>
0

>  <EState_VSA2>
0

>  <EState_VSA3>
16.59

>  <EState_VSA4>
34.04

>  <EState_VSA5>
0

>  <EState_VSA6>
0

>  <EState_VSA7>
55.59

>  <EState_VSA8>
9.55

>  <EState_VSA9>
28.19

>  <EState_VSA10>
0

>  <VSA_EState1>
2.12

>  <VSA_EState2>
9.22

>  <VSA_EState3>
1.35

>  <VSA_EState4>
4.8

>  <VSA_EState5>
0.93

>  <VSA_EState6>
13.57

>  <VSA_EState7>
1.87

>  <VSA_EState8>
2.54

>  <VSA_EState9>
0

>  <apol>
46.39

>  <bpol>
18.05

>  <nRing>
4

>  <nHRing>
2

>  <naRing>
3

>  <naHRing>
1

>  <nARing 2>
1

>  <nAHRing 2>
1

>  <nFRing>
1

>  <nFHRing>
1

>  <nFaRing>
0

>  <nFaHRing>
0

>  <nFARing 2>
1

>  <nFAHRing 2>
1

>  <nRot>
1

>  <SLogP>
4.84

>  <SMR>
94.11

>  <TopoPSA(NO)>
30.18

>  <TopoPSA>
30.18

>  <JGI1>
0.15

>  <JGI2>
0.08

>  <JGI3>
0.05

>  <JGI4>
0.04

>  <JGI5>
0.02

>  <Diameter>
9

>  <Radius>
5

>  <TMWC10>
125.42

>  <TSRW10>
72.14

>  <MW>
341.05

>  <AMW>
9.47

>  <WPath>
1035

>  <WPol>
43

>  <Zagreb1>
128

>  <Zagreb2>
156

>  <mZagreb2>
4.94

>  <yes>


>  <nAR-cont>
0.816016

>  <nHA-cont>
0.967789328

>  <MWHBN>
0.162447199

>  <MWHBN-cont>
0.960731399

>  <TPSA-cont>
0.789324859

>  <pka_cont>
0.97

>  <yes.1>


>  <BBB_SCORE>
5.288552146

>  <MMFF94 Energy>
77.377

$$$$
Compound 653
Actelion Java MolfileCreator 2.0

  0  0  0  0  0  0              0 V3000
M  V30 BEGIN CTAB
M  V30 COUNTS 37 39 0 0 0
M  V30 BEGIN ATOM
M  V30 1 O 2.6988 -0.7931 -0.3172 0
M  V30 2 C 1.6048 -0.2448 -0.2552 0
M  V30 3 N 0.3767 -0.8608 -0.0988 0
M  V30 4 C 1.5453 1.2359 -0.4094 0
M  V30 5 C 0.1396 -2.2334 0.1181 0
M  V30 6 C 0.623 2.0127 0.305 0
M  V30 7 C 2.4557 1.8539 -1.2706 0
M  V30 8 C -1.1751 -2.6911 -0.0367 0
M  V30 9 C 1.128 -3.1363 0.5082 0
M  V30 10 C 0.5852 3.4076 0.1397 0
M  V30 11 C 2.4264 3.2391 -1.4431 0
M  V30 12 C -1.509 -4.0384 0.1839 0
M  V30 13 C 0.8103 -4.479 0.7285 0
M  V30 14 C 1.4953 4.0275 -0.7489 0
M  V30 15 C -0.3352 4.202 0.8427 0
M  V30 16 C -0.4997 -4.929 0.5666 0
M  V30 17 C -2.9271 -4.5125 -0.003 0
M  V30 18 C 1.4541 5.4212 -0.9127 0
M  V30 19 C -0.3626 5.5866 0.6679 0
M  V30 20 N -3.8436 -3.822 0.8981 0
M  V30 21 C 0.53 6.1951 -0.2091 0
M  V30 22 H -0.4492 -0.2905 -0.2245 0
M  V30 23 H -0.0518 1.5417 1.0156 0
M  V30 24 H 3.1882 1.2575 -1.8111 0
M  V30 25 H -1.9661 -2.004 -0.3311 0
M  V30 26 H 2.1563 -2.8213 0.6578 0
M  V30 27 H 3.1413 3.6988 -2.1224 0
M  V30 28 H 1.5915 -5.1725 1.0294 0
M  V30 29 H -1.041 3.7483 1.5354 0
M  V30 30 H -0.7239 -5.9784 0.7425 0
M  V30 31 H -3.2287 -4.3391 -1.0421 0
M  V30 32 H -2.9969 -5.5916 0.1754 0
M  V30 33 H 2.1462 5.9165 -1.5903 0
M  V30 34 H -1.0803 6.1896 1.2184 0
M  V30 35 H -3.5393 -3.9857 1.8574 0
M  V30 36 H -4.767 -4.243 0.8165 0
M  V30 37 H 0.5102 7.2735 -0.3446 0
M  V30 END ATOM
M  V30 BEGIN BOND
M  V30 1 2 1 2
M  V30 2 1 2 3
M  V30 3 1 2 4
M  V30 4 1 3 5
M  V30 5 2 4 6
M  V30 6 1 4 7
M  V30 7 2 5 8
M  V30 8 1 5 9
M  V30 9 1 6 10
M  V30 10 2 7 11
M  V30 11 1 8 12
M  V30 12 2 9 13
M  V30 13 1 10 14
M  V30 14 2 10 15
M  V30 15 2 12 16
M  V30 16 1 12 17
M  V30 17 2 14 18
M  V30 18 1 15 19
M  V30 19 1 17 20
M  V30 20 1 18 21
M  V30 21 1 11 14
M  V30 22 1 13 16
M  V30 23 2 19 21
M  V30 24 1 3 22
M  V30 25 1 6 23
M  V30 26 1 7 24
M  V30 27 1 8 25
M  V30 28 1 9 26
M  V30 29 1 11 27
M  V30 30 1 13 28
M  V30 31 1 15 29
M  V30 32 1 16 30
M  V30 33 1 17 31
M  V30 34 1 17 32
M  V30 35 1 18 33
M  V30 36 1 19 34
M  V30 37 1 20 35
M  V30 38 1 20 36
M  V30 39 1 21 37
M  V30 END BOND
M  V30 END CTAB
M  END
>  <Column 1>
786

>  <level_0>
897

>  <index>
897

>  <Unnamed: 0>
897

>  <NO.>
909

>  <Name>
ctk7e5530

>  <IUPAC_name>
n-[3-(aminomethyl)phenyl]naphthalene-2-carboxamide

>  <SMILES>
NCc1cccc(NC(=O)c2ccc3ccccc3c2)c1

>  <CID>
16777599

>  <logBB>
0.74

>  <BBB+/BBB->
BBB+

>  <Inchi>
InChI=1S/C18H16N2O/c19-12-13-4-3-7-17(10-13)20-18(21)16-9-8-14-5-1-2-6-15(14)11-16/h1-11H-12-19H2-(H-20-21)

>  <threshold>


>  <reference>
R47|

>  <group>
A

>  <Class>
1

>  <ABC>
16.29

>  <ABCGG>
12.65

>  <nAcid>
0

>  <nBase>
1

>  <nAromAtom>
16

>  <nAromBond>
17

>  <nAtom>
37

>  <nHeavyAtom>
21

>  <nSpiro>
0

>  <nBridgehead>
0

>  <nHetero>
3

>  <nN>
2

>  <nO>
1

>  <nF>
0

>  <BalabanJ>
1.47

>  <BertzCT>
795.84

>  <nBonds>
39

>  <nBondsO>
23

>  <nBondsS>
21

>  <nBondsD>
1

>  <nBondsT>
0

>  <nBondsA>
17

>  <nBondsM>
18

>  <nBondsKS>
30

>  <nBondsKD>
9

>  <RNCG>
0.21

>  <RPCG>
0.16

>  <FCSP3>
0.06

>  <SZ>
24.33

>  <Sm>
23.01

>  <Sv>
24.57

>  <Sse>
36.76

>  <Sp>
26.19

>  <Si>
41.11

>  <MZ>
0.66

>  <Mm>
0.62

>  <Mv>
0.66

>  <Mse>
0.99

>  <Mp>
0.71

>  <Mi>
1.11

>  <NsCH3>
0

>  <NdCH2>
0

>  <NssCH2>
1

>  <NtCH>
0

>  <NdsCH>
0

>  <NaaCH>
11

>  <NsssCH>
0

>  <NddC>
0

>  <NtsC>
0

>  <NdssC>
1

>  <NaasC>
3

>  <NaaaC>
2

>  <NssssC>
0

>  <NsNH3>
0

>  <NsNH2>
1

>  <NssNH2>
0

>  <NdNH>
0

>  <NssNH>
1

>  <NaaNH>
0

>  <NtN>
0

>  <NsssNH>
0

>  <NdsN>
0

>  <NaaN>
0

>  <NsssN>
0

>  <NddsN>
0

>  <NaasN>
0

>  <NssssN>
0

>  <NsOH>
0

>  <NdO>
1

>  <NssO>
0

>  <NaaO>
0

>  <NsF>
0

>  <NsSiH3>
0

>  <NssSiH2>
0

>  <NsssSiH>
0

>  <NssssSi>
0

>  <NsPH2>
0

>  <NssPH>
0

>  <NsssP>
0

>  <NdsssP>
0

>  <NsssssP>
0

>  <NsSH>
0

>  <NdS>
0

>  <NssS>
0

>  <NaaS>
0

>  <NdssS>
0

>  <NddssS>
0

>  <NsCl>
0

>  <NsBr>
0

>  <NsI>
0

>  <fragCpx>
109.03

>  <fMF>
0.49

>  <nHBAcc>
2

>  <nHBDon>
2

>  <Kier1>
15.88

>  <Kier2>
7.51

>  <Lipinski>
1

>  <GhoseFilter>
1

>  <FilterItLogS>
-4.97

>  <VMcGowan>
219.03

>  <LabuteASA>
122.95

>  <PEOE_VSA1>
11.05

>  <PEOE_VSA2>
4.79

>  <PEOE_VSA3>
0

>  <PEOE_VSA4>
0

>  <PEOE_VSA5>
0

>  <PEOE_VSA6>
42.46

>  <PEOE_VSA7>
40.6

>  <PEOE_VSA8>
17.8

>  <PEOE_VSA9>
0

>  <PEOE_VSA10>
0

>  <PEOE_VSA11>
0

>  <PEOE_VSA12>
0

>  <PEOE_VSA13>
5.91

>  <SMR_VSA1>
4.79

>  <SMR_VSA2>
0

>  <SMR_VSA3>
0

>  <SMR_VSA4>
5.73

>  <SMR_VSA5>
6.54

>  <SMR_VSA6>
5.32

>  <SMR_VSA7>
77.86

>  <SMR_VSA8>
0

>  <SMR_VSA9>
0

>  <SlogP_VSA1>
11.05

>  <SlogP_VSA2>
5.91

>  <SlogP_VSA3>
6.54

>  <SlogP_VSA4>
0

>  <SlogP_VSA5>
15.92

>  <SlogP_VSA6>
66.73

>  <SlogP_VSA7>
0

>  <SlogP_VSA8>
10.77

>  <SlogP_VSA9>
0

>  <SlogP_VSA10>
5.69

>  <SlogP_VSA11>
0

>  <EState_VSA1>
0

>  <EState_VSA2>
5.91

>  <EState_VSA3>
12.11

>  <EState_VSA4>
22.02

>  <EState_VSA5>
0

>  <EState_VSA6>
0

>  <EState_VSA7>
66.73

>  <EState_VSA8>
5.32

>  <EState_VSA9>
5.73

>  <EState_VSA10>
4.79

>  <VSA_EState1>
0

>  <VSA_EState2>
12.32

>  <VSA_EState3>
5.08

>  <VSA_EState4>
8.01

>  <VSA_EState5>
-0.12

>  <VSA_EState6>
21.25

>  <VSA_EState7>
0

>  <VSA_EState8>
0.46

>  <VSA_EState9>
0

>  <apol>
43.73

>  <bpol>
16.92

>  <nRing>
3

>  <nHRing>
0

>  <naRing>
3

>  <naHRing>
0

>  <nARing 2>
0

>  <nAHRing 2>
0

>  <nFRing>
1

>  <nFHRing>
0

>  <nFaRing>
1

>  <nFaHRing>
0

>  <nFARing 2>
0

>  <nFAHRing 2>
0

>  <nRot>
3

>  <SLogP>
3.55

>  <SMR>
86.23

>  <TopoPSA(NO)>
55.12

>  <TopoPSA>
55.12

>  <JGI1>
0.17

>  <JGI2>
0.06

>  <JGI3>
0.03

>  <JGI4>
0.05

>  <JGI5>
0.02

>  <Diameter>
12

>  <Radius>
6

>  <TMWC10>
116.86

>  <TSRW10>
54.73

>  <MW>
276.13

>  <AMW>
7.46

>  <WPath>
998

>  <WPol>
31

>  <Zagreb1>
108

>  <Zagreb2>
125

>  <mZagreb2>
4.72

>  <yes>


>  <nAR-cont>
0.336376

>  <nHA-cont>
0.994529749

>  <MWHBN>
0.240715023

>  <MWHBN-cont>
0.973992489

>  <TPSA-cont>
0.615228173

>  <pka_cont>
0.97

>  <yes.1>


>  <BBB_SCORE>
4.507350828

>  <MMFF94 Energy>
37.472

$$$$
Compound 654
Actelion Java MolfileCreator 2.0

  0  0  0  0  0  0              0 V3000
M  V30 BEGIN CTAB
M  V30 COUNTS 46 48 0 0 0
M  V30 BEGIN ATOM
M  V30 1 S 2.0 -5.1262 1.9199 0
M  V30 2 C 0.6757 -5.6617 0.9589 0
M  V30 3 C 2.7257 -6.671 1.9283 0
M  V30 4 C -0.4052 -4.7353 0.5663 0
M  V30 5 C 0.8135 -7.0085 0.66 0
M  V30 6 C 1.9906 -7.5888 1.2167 0
M  V30 7 C -0.1738 -3.3697 0.3343 0
M  V30 8 C -1.7018 -5.2271 0.3512 0
M  V30 9 C -1.2085 -2.5212 -0.0827 0
M  V30 10 C -2.7388 -4.3834 -0.0624 0
M  V30 11 N -1.0279 -1.1254 -0.1922 0
M  V30 12 C -2.4981 -3.0339 -0.32 0
M  V30 13 C 0.139 -0.4836 -0.5546 0
M  V30 14 N -3.5523 -2.2033 -0.7114 0
M  V30 15 O 1.17 -1.0261 -0.9344 0
M  V30 16 C 0.0752 1.0048 -0.5195 0
M  V30 17 C -0.6832 1.6883 0.4396 0
M  V30 18 C 0.817 1.7277 -1.4593 0
M  V30 19 C -0.7175 3.0862 0.4392 0
M  V30 20 C 0.7783 3.1237 -1.4588 0
M  V30 21 C 0.0119 3.8172 -0.5095 0
M  V30 22 C -0.0342 5.3328 -0.519 0
M  V30 23 N 1.2942 5.9618 -0.4219 0
M  V30 24 C 1.8958 5.7471 0.8967 0
M  V30 25 C 1.1912 7.3965 -0.6932 0
M  V30 26 H 3.6584 -6.8298 2.4515 0
M  V30 27 H 0.1058 -7.5596 0.0531 0
M  V30 28 H 2.2833 -8.6243 1.0957 0
M  V30 29 H 0.8182 -2.9557 0.4927 0
M  V30 30 H -1.9303 -6.2757 0.5274 0
M  V30 31 H -3.7327 -4.8008 -0.1982 0
M  V30 32 H -1.8686 -0.5821 -0.0486 0
M  V30 33 H -4.4457 -2.6361 -0.9117 0
M  V30 34 H -3.3138 -1.4012 -1.2816 0
M  V30 35 H -1.2267 1.1511 1.2122 0
M  V30 36 H 1.428 1.2061 -2.1933 0
M  V30 37 H -1.3065 3.6024 1.1945 0
M  V30 38 H 1.3627 3.6764 -2.1926 0
M  V30 39 H -0.6931 5.7 0.2793 0
M  V30 40 H -0.5118 5.6176 -1.4664 0
M  V30 41 H 2.0629 4.6825 1.0909 0
M  V30 42 H 1.2762 6.1533 1.7046 0
M  V30 43 H 2.8813 6.2238 0.9492 0
M  V30 44 H 0.5435 7.9091 0.0274 0
M  V30 45 H 0.7944 7.5713 -1.6995 0
M  V30 46 H 2.1806 7.8666 -0.6633 0
M  V30 END ATOM
M  V30 BEGIN BOND
M  V30 1 1 1 2
M  V30 2 1 1 3
M  V30 3 1 2 4
M  V30 4 2 2 5
M  V30 5 2 3 6
M  V30 6 2 4 7
M  V30 7 1 4 8
M  V30 8 1 7 9
M  V30 9 2 8 10
M  V30 10 1 9 11
M  V30 11 2 9 12
M  V30 12 1 11 13
M  V30 13 1 12 14
M  V30 14 2 13 15
M  V30 15 1 13 16
M  V30 16 2 16 17
M  V30 17 1 16 18
M  V30 18 1 17 19
M  V30 19 2 18 20
M  V30 20 2 19 21
M  V30 21 1 21 22
M  V30 22 1 22 23
M  V30 23 1 23 24
M  V30 24 1 23 25
M  V30 25 1 5 6
M  V30 26 1 10 12
M  V30 27 1 20 21
M  V30 28 1 3 26
M  V30 29 1 5 27
M  V30 30 1 6 28
M  V30 31 1 7 29
M  V30 32 1 8 30
M  V30 33 1 10 31
M  V30 34 1 11 32
M  V30 35 1 14 33
M  V30 36 1 14 34
M  V30 37 1 17 35
M  V30 38 1 18 36
M  V30 39 1 19 37
M  V30 40 1 20 38
M  V30 41 1 22 39
M  V30 42 1 22 40
M  V30 43 1 24 41
M  V30 44 1 24 42
M  V30 45 1 24 43
M  V30 46 1 25 44
M  V30 47 1 25 45
M  V30 48 1 25 46
M  V30 END BOND
M  V30 END CTAB
M  END
>  <Column 1>
789

>  <level_0>
901

>  <index>
901

>  <Unnamed: 0>
901

>  <NO.>
913

>  <Name>


>  <IUPAC_name>


>  <SMILES>
CN(C)Cc1ccc(C(=O)Nc2cc(-c3cccs3)ccc2N)cc1

>  <CID>


>  <logBB>
0.77

>  <BBB+/BBB->
BBB+

>  <Inchi>
InChI=1S/C20H21N3OS/c1-23(2)13-14-5-7-15(8-6-14)20(24)22-18-12-16(9-10-17(18)21)19-4-3-11-25-19/h3-12H-13-21H2-1-2H3-(H-22-24)

>  <threshold>


>  <reference>
R47|

>  <group>
A

>  <Class>
1

>  <ABC>
19.41

>  <ABCGG>
15.46

>  <nAcid>
0

>  <nBase>
1

>  <nAromAtom>
17

>  <nAromBond>
17

>  <nAtom>
46

>  <nHeavyAtom>
25

>  <nSpiro>
0

>  <nBridgehead>
0

>  <nHetero>
5

>  <nN>
3

>  <nO>
1

>  <nF>
0

>  <BalabanJ>
1.45

>  <BertzCT>
855.16

>  <nBonds>
48

>  <nBondsO>
27

>  <nBondsS>
30

>  <nBondsD>
1

>  <nBondsT>
0

>  <nBondsA>
17

>  <nBondsM>
18

>  <nBondsKS>
39

>  <nBondsKD>
9

>  <RNCG>
0.21

>  <RPCG>
0.13

>  <FCSP3>
0.15

>  <SZ>
31

>  <Sm>
29.26

>  <Sv>
29.86

>  <Sse>
45.72

>  <Sp>
32.58

>  <Si>
51.36

>  <MZ>
0.67

>  <Mm>
0.64

>  <Mv>
0.65

>  <Mse>
0.99

>  <Mp>
0.71

>  <Mi>
1.12

>  <NsCH3>
2

>  <NdCH2>
0

>  <NssCH2>
1

>  <NtCH>
0

>  <NdsCH>
0

>  <NaaCH>
10

>  <NsssCH>
0

>  <NddC>
0

>  <NtsC>
0

>  <NdssC>
1

>  <NaasC>
6

>  <NaaaC>
0

>  <NssssC>
0

>  <NsNH3>
0

>  <NsNH2>
1

>  <NssNH2>
0

>  <NdNH>
0

>  <NssNH>
1

>  <NaaNH>
0

>  <NtN>
0

>  <NsssNH>
0

>  <NdsN>
0

>  <NaaN>
0

>  <NsssN>
1

>  <NddsN>
0

>  <NaasN>
0

>  <NssssN>
0

>  <NsOH>
0

>  <NdO>
1

>  <NssO>
0

>  <NaaO>
0

>  <NsF>
0

>  <NsSiH3>
0

>  <NssSiH2>
0

>  <NsssSiH>
0

>  <NssssSi>
0

>  <NsPH2>
0

>  <NssPH>
0

>  <NsssP>
0

>  <NdsssP>
0

>  <NsssssP>
0

>  <NsSH>
0

>  <NdS>
0

>  <NssS>
0

>  <NaaS>
1

>  <NdssS>
0

>  <NddssS>
0

>  <NsCl>
0

>  <NsBr>
0

>  <NsI>
0

>  <fragCpx>
129.05

>  <fMF>
0.41

>  <nHBAcc>
4

>  <nHBDon>
2

>  <Kier1>
19.75

>  <Kier2>
9.27

>  <Lipinski>
1

>  <GhoseFilter>
1

>  <FilterItLogS>
-5.3

>  <VMcGowan>
273.54

>  <LabuteASA>
151.46

>  <PEOE_VSA1>
15.95

>  <PEOE_VSA2>
4.79

>  <PEOE_VSA3>
0

>  <PEOE_VSA4>
0

>  <PEOE_VSA5>
11.34

>  <PEOE_VSA6>
24.27

>  <PEOE_VSA7>
60.93

>  <PEOE_VSA8>
16.99

>  <PEOE_VSA9>
11.37

>  <PEOE_VSA10>
0

>  <PEOE_VSA11>
0

>  <PEOE_VSA12>
0

>  <PEOE_VSA13>
5.91

>  <SMR_VSA1>
4.79

>  <SMR_VSA2>
0

>  <SMR_VSA3>
4.9

>  <SMR_VSA4>
0

>  <SMR_VSA5>
6.54

>  <SMR_VSA6>
25.15

>  <SMR_VSA7>
71.1

>  <SMR_VSA8>
0

>  <SMR_VSA9>
10.44

>  <SlogP_VSA1>
11.05

>  <SlogP_VSA2>
24.9

>  <SlogP_VSA3>
6.54

>  <SlogP_VSA4>
0

>  <SlogP_VSA5>
15.92

>  <SlogP_VSA6>
59.98

>  <SlogP_VSA7>
0

>  <SlogP_VSA8>
10.44

>  <SlogP_VSA9>
0

>  <SlogP_VSA10>
11.37

>  <SlogP_VSA11>
0

>  <EState_VSA1>
0

>  <EState_VSA2>
5.91

>  <EState_VSA3>
16.94

>  <EState_VSA4>
16.99

>  <EState_VSA5>
5.56

>  <EState_VSA6>
11.34

>  <EState_VSA7>
74.07

>  <EState_VSA8>
10.22

>  <EState_VSA9>
5.73

>  <EState_VSA10>
4.79

>  <VSA_EState1>
0

>  <VSA_EState2>
15.75

>  <VSA_EState3>
4.95

>  <VSA_EState4>
10.04

>  <VSA_EState5>
-0.16

>  <VSA_EState6>
17.38

>  <VSA_EState7>
0

>  <VSA_EState8>
0.84

>  <VSA_EState9>
4.04

>  <apol>
54.4

>  <bpol>
26.11

>  <nRing>
3

>  <nHRing>
1

>  <naRing>
3

>  <naHRing>
1

>  <nARing 2>
0

>  <nAHRing 2>
0

>  <nFRing>
0

>  <nFHRing>
0

>  <nFaRing>
0

>  <nFaHRing>
0

>  <nFARing 2>
0

>  <nFAHRing 2>
0

>  <nRot>
5

>  <SLogP>
4.31

>  <SMR>
105.95

>  <TopoPSA(NO)>
58.36

>  <TopoPSA>
86.6

>  <JGI1>
0.2

>  <JGI2>
0.08

>  <JGI3>
0.03

>  <JGI4>
0.04

>  <JGI5>
0.03

>  <Diameter>
14

>  <Radius>
7

>  <TMWC10>
126.33

>  <TSRW10>
72.59

>  <MW>
351.14

>  <AMW>
7.63

>  <WPath>
1677

>  <WPol>
35

>  <Zagreb1>
128

>  <Zagreb2>
147

>  <mZagreb2>
5.5

>  <yes>


>  <nAR-cont>
0.336376

>  <nHA-cont>
0.921834225

>  <MWHBN>
0.320192458

>  <MWHBN-cont>
0.776517711

>  <TPSA-cont>
0.395478225

>  <pka_cont>
0.97

>  <yes.1>


>  <BBB_SCORE>
3.69894324

>  <MMFF94 Energy>
63.178

$$$$
Compound 655
Actelion Java MolfileCreator 2.0

  0  0  0  0  0  0              0 V3000
M  V30 BEGIN CTAB
M  V30 COUNTS 43 45 0 0 0
M  V30 BEGIN ATOM
M  V30 1 N -1.7428 0.9503 -1.5842 0
M  V30 2 C -0.8516 -0.0298 -1.2927 0
M  V30 3 C -2.8186 0.6074 -2.3254 0
M  V30 4 C 0.3462 0.3552 -0.5048 0
M  V30 5 C -1.0075 -1.3402 -1.7377 0
M  V30 6 C -3.0539 -0.6719 -2.799 0
M  V30 7 C 1.7264 0.0455 -0.9623 0
M  V30 8 C 0.2312 1.0275 0.6632 0
M  V30 9 C -2.1282 -1.6629 -2.4984 0
M  V30 10 C 2.6141 -0.685 -0.1605 0
M  V30 11 C 2.1475 0.4607 -2.2316 0
M  V30 12 C -1.0261 1.4338 1.3821 0
M  V30 13 C 3.8993 -0.9886 -0.618 0
M  V30 14 C 3.4328 0.1569 -2.6888 0
M  V30 15 N -0.9708 1.0111 2.7961 0
M  V30 16 C 4.3142 -0.5804 -1.8904 0
M  V30 17 C -1.1939 -0.4363 2.9482 0
M  V30 18 C -2.0692 1.6138 3.5675 0
M  V30 19 C 5.7056 -0.8744 -2.3668 0
M  V30 20 C -2.7029 -0.6365 2.962 0
M  V30 21 C -3.2792 0.7167 3.353 0
M  V30 22 H -3.5101 1.418 -2.5369 0
M  V30 23 H -0.2712 -2.1005 -1.498 0
M  V30 24 H -3.9356 -0.8894 -3.3911 0
M  V30 25 H 1.1365 1.3349 1.1857 0
M  V30 26 H -2.273 -2.6783 -2.8554 0
M  V30 27 H 2.3099 -1.0228 0.8277 0
M  V30 28 H 1.4787 1.0354 -2.8696 0
M  V30 29 H -1.0628 2.53 1.3392 0
M  V30 30 H -1.9364 1.0674 0.9008 0
M  V30 31 H 4.5736 -1.5467 0.0273 0
M  V30 32 H 3.74 0.5028 -3.673 0
M  V30 33 H -0.7007 -1.0511 2.1882 0
M  V30 34 H -0.7783 -0.7476 3.9151 0
M  V30 35 H -1.7922 1.6049 4.6294 0
M  V30 36 H -2.2697 2.6585 3.3056 0
M  V30 37 H 6.0729 -1.8149 -1.9429 0
M  V30 38 H 6.3808 -0.0654 -2.0718 0
M  V30 39 H 5.7315 -0.9779 -3.4566 0
M  V30 40 H -2.9956 -1.4196 3.6687 0
M  V30 41 H -3.0681 -0.9253 1.9698 0
M  V30 42 H -3.8952 0.6498 4.2554 0
M  V30 43 H -3.9101 1.1008 2.5432 0
M  V30 END ATOM
M  V30 BEGIN BOND
M  V30 1 2 1 2
M  V30 2 1 1 3
M  V30 3 1 2 4
M  V30 4 1 2 5
M  V30 5 2 3 6
M  V30 6 1 4 7
M  V30 7 2 4 8
M  V30 8 2 5 9
M  V30 9 2 7 10
M  V30 10 1 7 11
M  V30 11 1 8 12
M  V30 12 1 10 13
M  V30 13 2 11 14
M  V30 14 1 12 15
M  V30 15 2 13 16
M  V30 16 1 15 17
M  V30 17 1 15 18
M  V30 18 1 16 19
M  V30 19 1 17 20
M  V30 20 1 18 21
M  V30 21 1 6 9
M  V30 22 1 14 16
M  V30 23 1 20 21
M  V30 24 1 3 22
M  V30 25 1 5 23
M  V30 26 1 6 24
M  V30 27 1 8 25
M  V30 28 1 9 26
M  V30 29 1 10 27
M  V30 30 1 11 28
M  V30 31 1 12 29
M  V30 32 1 12 30
M  V30 33 1 13 31
M  V30 34 1 14 32
M  V30 35 1 17 33
M  V30 36 1 17 34
M  V30 37 1 18 35
M  V30 38 1 18 36
M  V30 39 1 19 37
M  V30 40 1 19 38
M  V30 41 1 19 39
M  V30 42 1 20 40
M  V30 43 1 20 41
M  V30 44 1 21 42
M  V30 45 1 21 43
M  V30 END BOND
M  V30 END CTAB
M  END
>  <Column 1>
790

>  <level_0>
902

>  <index>
902

>  <Unnamed: 0>
902

>  <NO.>
914

>  <Name>
tripyrolidine

>  <IUPAC_name>
2-[(z)-1-(4-methylphenyl)-3-pyrrolidin-1-ylprop-1-enyl]pyridine

>  <SMILES>
Cc1ccc(/C(=C/CN2CCCC2)c2ccccn2)cc1

>  <CID>
688585

>  <logBB>
0.77

>  <BBB+/BBB->
BBB+

>  <Inchi>
InChI=1S/C19H22N2/c1-16-7-9-17(10-8-16)18(19-6-2-3-12-20-19)11-15-21-13-4-5-14-21/h2-3-6-12H-4-5-13-15H2-1H3/b18-11-

>  <threshold>


>  <reference>
R47|

>  <group>
A

>  <Class>
1

>  <ABC>
16.29

>  <ABCGG>
13.53

>  <nAcid>
0

>  <nBase>
1

>  <nAromAtom>
12

>  <nAromBond>
12

>  <nAtom>
43

>  <nHeavyAtom>
21

>  <nSpiro>
0

>  <nBridgehead>
0

>  <nHetero>
2

>  <nN>
2

>  <nO>
0

>  <nF>
0

>  <BalabanJ>
1.56

>  <BertzCT>
593.22

>  <nBonds>
45

>  <nBondsO>
23

>  <nBondsS>
32

>  <nBondsD>
1

>  <nBondsT>
0

>  <nBondsA>
12

>  <nBondsM>
13

>  <nBondsKS>
38

>  <nBondsKD>
7

>  <RNCG>
0.26

>  <RPCG>
0.07

>  <FCSP3>
0.32

>  <SZ>
25

>  <Sm>
23.18

>  <Sv>
26.48

>  <Sse>
42.09

>  <Sp>
29.1

>  <Si>
48.15

>  <MZ>
0.58

>  <Mm>
0.54

>  <Mv>
0.62

>  <Mse>
0.98

>  <Mp>
0.68

>  <Mi>
1.12

>  <NsCH3>
1

>  <NdCH2>
0

>  <NssCH2>
5

>  <NtCH>
0

>  <NdsCH>
1

>  <NaaCH>
8

>  <NsssCH>
0

>  <NddC>
0

>  <NtsC>
0

>  <NdssC>
1

>  <NaasC>
3

>  <NaaaC>
0

>  <NssssC>
0

>  <NsNH3>
0

>  <NsNH2>
0

>  <NssNH2>
0

>  <NdNH>
0

>  <NssNH>
0

>  <NaaNH>
0

>  <NtN>
0

>  <NsssNH>
0

>  <NdsN>
0

>  <NaaN>
1

>  <NsssN>
1

>  <NddsN>
0

>  <NaasN>
0

>  <NssssN>
0

>  <NsOH>
0

>  <NdO>
0

>  <NssO>
0

>  <NaaO>
0

>  <NsF>
0

>  <NsSiH3>
0

>  <NssSiH2>
0

>  <NsssSiH>
0

>  <NssssSi>
0

>  <NsPH2>
0

>  <NssPH>
0

>  <NsssP>
0

>  <NdsssP>
0

>  <NsssssP>
0

>  <NsSH>
0

>  <NdS>
0

>  <NssS>
0

>  <NaaS>
0

>  <NdssS>
0

>  <NddssS>
0

>  <NsCl>
0

>  <NsBr>
0

>  <NsI>
0

>  <fragCpx>
109.02

>  <fMF>
0.47

>  <nHBAcc>
2

>  <nHBDon>
0

>  <Kier1>
15.88

>  <Kier2>
8.02

>  <Lipinski>
1

>  <GhoseFilter>
1

>  <FilterItLogS>
-4.66

>  <VMcGowan>
235.85

>  <LabuteASA>
126.69

>  <PEOE_VSA1>
0

>  <PEOE_VSA2>
9.88

>  <PEOE_VSA3>
0

>  <PEOE_VSA4>
0

>  <PEOE_VSA5>
0

>  <PEOE_VSA6>
41.97

>  <PEOE_VSA7>
50.55

>  <PEOE_VSA8>
18.31

>  <PEOE_VSA9>
5.69

>  <PEOE_VSA10>
0

>  <PEOE_VSA11>
0

>  <PEOE_VSA12>
0

>  <PEOE_VSA13>
0

>  <SMR_VSA1>
0

>  <SMR_VSA2>
0

>  <SMR_VSA3>
9.88

>  <SMR_VSA4>
0

>  <SMR_VSA5>
19.77

>  <SMR_VSA6>
19.63

>  <SMR_VSA7>
71.56

>  <SMR_VSA8>
0

>  <SMR_VSA9>
0

>  <SlogP_VSA1>
0

>  <SlogP_VSA2>
29.52

>  <SlogP_VSA3>
0

>  <SlogP_VSA4>
6.92

>  <SlogP_VSA5>
29.66

>  <SlogP_VSA6>
54.74

>  <SlogP_VSA7>
0

>  <SlogP_VSA8>
5.57

>  <SlogP_VSA9>
0

>  <SlogP_VSA10>
0

>  <SlogP_VSA11>
0

>  <EState_VSA1>
0

>  <EState_VSA2>
0

>  <EState_VSA3>
0

>  <EState_VSA4>
12.24

>  <EState_VSA5>
42.63

>  <EState_VSA6>
0

>  <EState_VSA7>
12.26

>  <EState_VSA8>
59.28

>  <EState_VSA9>
0

>  <EState_VSA10>
0

>  <VSA_EState1>
0

>  <VSA_EState2>
7.05

>  <VSA_EState3>
0

>  <VSA_EState4>
4.83

>  <VSA_EState5>
0

>  <VSA_EState6>
14.84

>  <VSA_EState7>
6.86

>  <VSA_EState8>
5.58

>  <VSA_EState9>
0

>  <apol>
48.6

>  <bpol>
24.92

>  <nRing>
3

>  <nHRing>
2

>  <naRing>
2

>  <naHRing>
1

>  <nARing 2>
1

>  <nAHRing 2>
1

>  <nFRing>
0

>  <nFHRing>
0

>  <nFaRing>
0

>  <nFaHRing>
0

>  <nFARing 2>
0

>  <nFAHRing 2>
0

>  <nRot>
4

>  <SLogP>
3.92

>  <SMR>
88.17

>  <TopoPSA(NO)>
16.13

>  <TopoPSA>
16.13

>  <JGI1>
0.13

>  <JGI2>
0.07

>  <JGI3>
0.03

>  <JGI4>
0.02

>  <JGI5>
0.02

>  <Diameter>
10

>  <Radius>
5

>  <TMWC10>
116.25

>  <TSRW10>
67.48

>  <MW>
278.18

>  <AMW>
6.47

>  <WPath>
953

>  <WPol>
27

>  <Zagreb1>
106

>  <Zagreb2>
121

>  <mZagreb2>
4.72

>  <yes>


>  <nAR-cont>
0.816016

>  <nHA-cont>
0.994529749

>  <MWHBN>
0.119913214

>  <MWHBN-cont>
0.829001649

>  <TPSA-cont>
0.887402584

>  <pka_cont>
0.97

>  <yes.1>


>  <BBB_SCORE>
5.313853391

>  <MMFF94 Energy>
46.101

$$$$
Compound 656
Actelion Java MolfileCreator 2.0

  0  0  0  0  0  0              0 V3000
M  V30 BEGIN CTAB
M  V30 COUNTS 41 44 0 0 0
M  V30 BEGIN ATOM
M  V30 1 F 3.2153 -1.1244 4.7453 0
M  V30 2 C 2.4449 -1.1223 3.6497 0
M  V30 3 C 1.9299 0.0765 3.1758 0
M  V30 4 C 2.167 -2.3215 3.0069 0
M  V30 5 C 1.1246 0.0784 2.0353 0
M  V30 6 C 1.3624 -2.322 1.8658 0
M  V30 7 C 0.8411 -1.119 1.3567 0
M  V30 8 C -0.0524 -1.1499 0.1357 0
M  V30 9 N 0.2759 -0.1298 -0.8527 0
M  V30 10 C 1.4031 -0.1582 -1.6524 0
M  V30 11 C -0.4851 0.9651 -1.2257 0
M  V30 12 C 1.2694 0.952 -2.4761 0
M  V30 13 C 2.5028 -1.0236 -1.731 0
M  V30 14 N 0.1083 1.6237 -2.2073 0
M  V30 15 C -1.815 1.3661 -0.6482 0 CFG=2
M  V30 16 C 2.2611 1.2344 -3.4269 0
M  V30 17 C 3.484 -0.7271 -2.6844 0
M  V30 18 O -1.7661 1.1848 0.778 0
M  V30 19 C -2.9729 0.5586 -1.2822 0
M  V30 20 C 3.368 0.3834 -3.5209 0
M  V30 21 C -3.0203 1.5566 1.3665 0
M  V30 22 N -4.2806 0.8504 -0.6592 0
M  V30 23 C -4.1693 0.7092 0.8 0
M  V30 24 H 2.1552 1.0029 3.6946 0
M  V30 25 H 2.5763 -3.2468 3.3993 0
M  V30 26 H 0.7239 1.0267 1.68 0
M  V30 27 H 1.1482 -3.2696 1.3758 0
M  V30 28 H -1.0986 -1.0668 0.4353 0
M  V30 29 H 0.0416 -2.1109 -0.3861 0
M  V30 30 H 2.6072 -1.8835 -1.0788 0
M  V30 31 H -1.9634 2.4365 -0.8457 0
M  V30 32 H 2.1619 2.1 -4.0721 0
M  V30 33 H 4.3555 -1.3728 -2.7708 0
M  V30 34 H -2.7827 -0.5177 -1.1864 0
M  V30 35 H -3.0355 0.7758 -2.3547 0
M  V30 36 H 4.1443 0.594 -4.2522 0
M  V30 37 H -3.1949 2.6272 1.2051 0
M  V30 38 H -2.9378 1.3922 2.4456 0
M  V30 39 H -4.9808 0.2019 -1.018 0
M  V30 40 H -5.1135 1.0127 1.2636 0
M  V30 41 H -4.0003 -0.3466 1.0436 0
M  V30 END ATOM
M  V30 BEGIN BOND
M  V30 1 1 1 2
M  V30 2 2 2 3
M  V30 3 1 2 4
M  V30 4 1 3 5
M  V30 5 2 4 6
M  V30 6 2 5 7
M  V30 7 1 7 8
M  V30 8 1 8 9
M  V30 9 1 9 10
M  V30 10 1 9 11
M  V30 11 2 10 12
M  V30 12 1 10 13
M  V30 13 2 11 14
M  V30 14 1 11 15
M  V30 15 1 12 16
M  V30 16 2 13 17
M  V30 17 1 15 18
M  V30 18 1 15 19
M  V30 19 2 16 20
M  V30 20 1 18 21
M  V30 21 1 19 22
M  V30 22 1 21 23
M  V30 23 1 6 7
M  V30 24 1 12 14
M  V30 25 1 17 20
M  V30 26 1 22 23
M  V30 27 1 3 24
M  V30 28 1 4 25
M  V30 29 1 5 26
M  V30 30 1 6 27
M  V30 31 1 8 28
M  V30 32 1 8 29
M  V30 33 1 13 30
M  V30 34 1 15 31
M  V30 35 1 16 32
M  V30 36 1 17 33
M  V30 37 1 19 34
M  V30 38 1 19 35
M  V30 39 1 20 36
M  V30 40 1 21 37
M  V30 41 1 21 38
M  V30 42 1 22 39
M  V30 43 1 23 40
M  V30 44 1 23 41
M  V30 END BOND
M  V30 BEGIN COLLECTION
M  V30 MDLV30/STEABS ATOMS=(1 15)
M  V30 END COLLECTION
M  V30 END CTAB
M  END
>  <Column 1>
791

>  <level_0>
903

>  <index>
903

>  <Unnamed: 0>
903

>  <NO.>
915

>  <Name>
9b

>  <IUPAC_name>
(2r)-2-[1-[(4-fluorophenyl)methyl]benzimidazol-2-yl]morpholine

>  <SMILES>
Fc1ccc(Cn2c([C@H]3CNCCO3)nc3ccccc32)cc1

>  <CID>
57402315

>  <logBB>
0.77

>  <BBB+/BBB->
BBB+

>  <Inchi>
InChI=1S/C18H18FN3O/c19-14-7-5-13(6-8-14)12-22-16-4-2-1-3-15(16)21-18(22)17-11-20-9-10-23-17/h1-8-17-20H-9-12H2/t17-/m1/s1

>  <threshold>


>  <reference>
R2|R2|R25|R27|R46|

>  <group>
A

>  <Class>
1

>  <ABC>
18.33

>  <ABCGG>
14.35

>  <nAcid>
0

>  <nBase>
1

>  <nAromAtom>
15

>  <nAromBond>
16

>  <nAtom>
41

>  <nHeavyAtom>
23

>  <nSpiro>
0

>  <nBridgehead>
0

>  <nHetero>
5

>  <nN>
3

>  <nO>
1

>  <nF>
1

>  <BalabanJ>
1.44

>  <BertzCT>
806.75

>  <nBonds>
44

>  <nBondsO>
26

>  <nBondsS>
28

>  <nBondsD>
0

>  <nBondsT>
0

>  <nBondsA>
16

>  <nBondsM>
16

>  <nBondsKS>
37

>  <nBondsKD>
7

>  <RNCG>
0.2

>  <RPCG>
0.08

>  <FCSP3>
0.28

>  <SZ>
27.33

>  <Sm>
25.92

>  <Sv>
26.51

>  <Sse>
41.27

>  <Sp>
27.98

>  <Si>
46.37

>  <MZ>
0.67

>  <Mm>
0.63

>  <Mv>
0.65

>  <Mse>
1.01

>  <Mp>
0.68

>  <Mi>
1.13

>  <NsCH3>
0

>  <NdCH2>
0

>  <NssCH2>
4

>  <NtCH>
0

>  <NdsCH>
0

>  <NaaCH>
8

>  <NsssCH>
1

>  <NddC>
0

>  <NtsC>
0

>  <NdssC>
0

>  <NaasC>
3

>  <NaaaC>
2

>  <NssssC>
0

>  <NsNH3>
0

>  <NsNH2>
0

>  <NssNH2>
0

>  <NdNH>
0

>  <NssNH>
1

>  <NaaNH>
0

>  <NtN>
0

>  <NsssNH>
0

>  <NdsN>
0

>  <NaaN>
1

>  <NsssN>
0

>  <NddsN>
0

>  <NaasN>
1

>  <NssssN>
0

>  <NsOH>
0

>  <NdO>
0

>  <NssO>
1

>  <NaaO>
0

>  <NsF>
1

>  <NsSiH3>
0

>  <NssSiH2>
0

>  <NsssSiH>
0

>  <NssssSi>
0

>  <NsPH2>
0

>  <NssPH>
0

>  <NsssP>
0

>  <NdsssP>
0

>  <NsssssP>
0

>  <NsSH>
0

>  <NdS>
0

>  <NssS>
0

>  <NaaS>
0

>  <NdssS>
0

>  <NddssS>
0

>  <NsCl>
0

>  <NsBr>
0

>  <NsI>
0

>  <fragCpx>
170.05

>  <fMF>
0.54

>  <nHBAcc>
4

>  <nHBDon>
1

>  <Kier1>
16.47

>  <Kier2>
7.49

>  <Lipinski>
1

>  <GhoseFilter>
1

>  <FilterItLogS>
-4.73

>  <VMcGowan>
228.51

>  <LabuteASA>
133.46

>  <PEOE_VSA1>
14.62

>  <PEOE_VSA2>
0

>  <PEOE_VSA3>
9.37

>  <PEOE_VSA4>
0

>  <PEOE_VSA5>
0

>  <PEOE_VSA6>
24.27

>  <PEOE_VSA7>
29.83

>  <PEOE_VSA8>
19.63

>  <PEOE_VSA9>
17.64

>  <PEOE_VSA10>
17.75

>  <PEOE_VSA11>
0

>  <PEOE_VSA12>
0

>  <PEOE_VSA13>
0

>  <SMR_VSA1>
9.13

>  <SMR_VSA2>
0

>  <SMR_VSA3>
14.87

>  <SMR_VSA4>
0

>  <SMR_VSA5>
12.65

>  <SMR_VSA6>
19.7

>  <SMR_VSA7>
65.74

>  <SMR_VSA8>
0

>  <SMR_VSA9>
0

>  <SlogP_VSA1>
5.32

>  <SlogP_VSA2>
29.25

>  <SlogP_VSA3>
11.28

>  <SlogP_VSA4>
5.82

>  <SlogP_VSA5>
17.49

>  <SlogP_VSA6>
48.53

>  <SlogP_VSA7>
0

>  <SlogP_VSA8>
11.03

>  <SlogP_VSA9>
0

>  <SlogP_VSA10>
4.39

>  <SlogP_VSA11>
0

>  <EState_VSA1>
0

>  <EState_VSA2>
11.92

>  <EState_VSA3>
13.15

>  <EState_VSA4>
35.51

>  <EState_VSA5>
12.13

>  <EState_VSA6>
0

>  <EState_VSA7>
30.33

>  <EState_VSA8>
15.95

>  <EState_VSA9>
9.72

>  <EState_VSA10>
4.39

>  <VSA_EState1>
21.19

>  <VSA_EState2>
4.77

>  <VSA_EState3>
3.35

>  <VSA_EState4>
3.07

>  <VSA_EState5>
0.7

>  <VSA_EState6>
14.68

>  <VSA_EState7>
-0.06

>  <VSA_EState8>
2.96

>  <VSA_EState9>
0

>  <apol>
46.72

>  <bpol>
24.33

>  <nRing>
4

>  <nHRing>
2

>  <naRing>
3

>  <naHRing>
1

>  <nARing 2>
1

>  <nAHRing 2>
1

>  <nFRing>
1

>  <nFHRing>
1

>  <nFaRing>
1

>  <nFaHRing>
1

>  <nFARing 2>
0

>  <nFAHRing 2>
0

>  <nRot>
3

>  <SLogP>
2.88

>  <SMR>
86.8

>  <TopoPSA(NO)>
39.08

>  <TopoPSA>
39.08

>  <JGI1>
0.13

>  <JGI2>
0.06

>  <JGI3>
0.04

>  <JGI4>
0.04

>  <JGI5>
0.02

>  <Diameter>
11

>  <Radius>
6

>  <TMWC10>
124.27

>  <TSRW10>
71.82

>  <MW>
311.14

>  <AMW>
7.59

>  <WPath>
1155

>  <WPol>
35

>  <Zagreb1>
124

>  <Zagreb2>
147

>  <mZagreb2>
5.03

>  <yes>


>  <nAR-cont>
0.816016

>  <nHA-cont>
0.967789328

>  <MWHBN>
0.283460194

>  <MWHBN-cont>
0.887173216

>  <TPSA-cont>
0.727197333

>  <pka_cont>
0.97

>  <yes.1>


>  <BBB_SCORE>
5.053959818

>  <MMFF94 Energy>
120.33

$$$$
Compound 657
Actelion Java MolfileCreator 2.0

  0  0  0  0  0  0              0 V3000
M  V30 BEGIN CTAB
M  V30 COUNTS 42 45 0 0 0
M  V30 BEGIN ATOM
M  V30 1 S -0.1615 1.9394 3.5578 0
M  V30 2 C -1.0582 1.5124 2.0718 0
M  V30 3 C 1.2798 1.1068 3.0581 0
M  V30 4 N -2.2491 1.9624 1.9803 0
M  V30 5 C -0.152 0.6849 1.2375 0
M  V30 6 C 1.1515 0.5149 1.8651 0
M  V30 7 C 2.4954 1.1003 3.9182 0
M  V30 8 C -3.1122 1.7493 0.9022 0
M  V30 9 C -0.4963 0.1628 0.0433 0
M  V30 10 C -2.8802 0.998 -0.2615 0
M  V30 11 C -4.3612 2.3858 1.0577 0
M  V30 12 N 0.4354 -0.619 -0.6528 0
M  V30 13 N -1.7016 0.3113 -0.5838 0
M  V30 14 C -3.9174 0.9243 -1.2242 0
M  V30 15 C -5.3696 2.2987 0.0999 0
M  V30 16 C 0.4753 -2.0832 -0.4652 0
M  V30 17 C 0.9928 -0.1735 -1.9439 0
M  V30 18 C -5.1457 1.5627 -1.0495 0
M  V30 19 C 1.8897 -2.6398 -0.7375 0
M  V30 20 C 2.3987 -0.7692 -2.1722 0
M  V30 21 N 2.4149 -2.2447 -2.0631 0
M  V30 22 C 3.7686 -2.7607 -2.2557 0
M  V30 23 H 1.9433 -0.0434 1.3858 0
M  V30 24 H 3.311 0.5349 3.4551 0
M  V30 25 H 2.8541 2.1206 4.0899 0
M  V30 26 H 2.2809 0.6396 4.8882 0
M  V30 27 H -4.5408 2.9661 1.9616 0
M  V30 28 H -1.7332 -0.2147 -1.4464 0
M  V30 29 H -3.768 0.3544 -2.139 0
M  V30 30 H -6.3174 2.8047 0.2588 0
M  V30 31 H -0.2484 -2.5517 -1.1438 0
M  V30 32 H 0.1838 -2.3458 0.5589 0
M  V30 33 H 0.3208 -0.4783 -2.7557 0
M  V30 34 H 1.0658 0.9206 -1.9663 0
M  V30 35 H -5.9177 1.4827 -1.8097 0
M  V30 36 H 2.5655 -2.2915 0.0553 0
M  V30 37 H 1.8452 -3.7335 -0.6722 0
M  V30 38 H 2.7381 -0.4718 -3.1716 0
M  V30 39 H 3.0931 -0.3281 -1.4441 0
M  V30 40 H 4.4713 -2.3769 -1.5072 0
M  V30 41 H 3.7725 -3.855 -2.2028 0
M  V30 42 H 4.143 -2.4919 -3.2496 0
M  V30 END ATOM
M  V30 BEGIN BOND
M  V30 1 1 1 2
M  V30 2 1 1 3
M  V30 3 2 2 4
M  V30 4 1 2 5
M  V30 5 2 3 6
M  V30 6 1 3 7
M  V30 7 1 4 8
M  V30 8 2 5 9
M  V30 9 2 8 10
M  V30 10 1 8 11
M  V30 11 1 9 12
M  V30 12 1 9 13
M  V30 13 1 10 14
M  V30 14 2 11 15
M  V30 15 1 12 16
M  V30 16 1 12 17
M  V30 17 2 14 18
M  V30 18 1 16 19
M  V30 19 1 17 20
M  V30 20 1 19 21
M  V30 21 1 21 22
M  V30 22 1 5 6
M  V30 23 1 10 13
M  V30 24 1 15 18
M  V30 25 1 20 21
M  V30 26 1 6 23
M  V30 27 1 7 24
M  V30 28 1 7 25
M  V30 29 1 7 26
M  V30 30 1 11 27
M  V30 31 1 13 28
M  V30 32 1 14 29
M  V30 33 1 15 30
M  V30 34 1 16 31
M  V30 35 1 16 32
M  V30 36 1 17 33
M  V30 37 1 17 34
M  V30 38 1 18 35
M  V30 39 1 19 36
M  V30 40 1 19 37
M  V30 41 1 20 38
M  V30 42 1 20 39
M  V30 43 1 22 40
M  V30 44 1 22 41
M  V30 45 1 22 42
M  V30 END BOND
M  V30 END CTAB
M  END
>  <Column 1>
792

>  <level_0>
904

>  <index>
904

>  <Unnamed: 0>
904

>  <NO.>
916

>  <Name>
olanzapine

>  <IUPAC_name>
2-methyl-4-(4-methylpiperazin-1-yl)-5h-thieno[3-2-c][1-5]benzodiazepine

>  <SMILES>
Cc1cc2c(s1)=Nc1ccccc1NC=2N1CCN(C)CC1

>  <CID>
135398745

>  <logBB>
0.78

>  <BBB+/BBB->
BBB+

>  <Inchi>
InChI=1S/C17H20N4S/c1-12-11-13-16(21-9-7-20(2)8-10-21)18-14-5-3-4-6-15(14)19-17(13)22-12/h3-6-11-18H-7-10H2-1-2H3

>  <threshold>


>  <reference>
R8|R21|

>  <group>
A

>  <Class>
1

>  <ABC>
17.73

>  <ABCGG>
13.93

>  <nAcid>
0

>  <nBase>
1

>  <nAromAtom>
11

>  <nAromBond>
11

>  <nAtom>
42

>  <nHeavyAtom>
22

>  <nSpiro>
0

>  <nBridgehead>
0

>  <nHetero>
5

>  <nN>
4

>  <nO>
0

>  <nF>
0

>  <BalabanJ>
1.54

>  <BertzCT>
815.42

>  <nBonds>
45

>  <nBondsO>
25

>  <nBondsS>
32

>  <nBondsD>
2

>  <nBondsT>
0

>  <nBondsA>
11

>  <nBondsM>
13

>  <nBondsKS>
39

>  <nBondsKD>
6

>  <RNCG>
0.22

>  <RPCG>
0.1

>  <FCSP3>
0.35

>  <SZ>
27.67

>  <Sm>
26.01

>  <Sv>
26.64

>  <Sse>
41.61

>  <Sp>
29.36

>  <Si>
47.24

>  <MZ>
0.66

>  <Mm>
0.62

>  <Mv>
0.63

>  <Mse>
0.99

>  <Mp>
0.7

>  <Mi>
1.12

>  <NsCH3>
2

>  <NdCH2>
0

>  <NssCH2>
4

>  <NtCH>
0

>  <NdsCH>
0

>  <NaaCH>
5

>  <NsssCH>
0

>  <NddC>
0

>  <NtsC>
0

>  <NdssC>
1

>  <NaasC>
3

>  <NaaaC>
0

>  <NssssC>
0

>  <NsNH3>
0

>  <NsNH2>
0

>  <NssNH2>
0

>  <NdNH>
0

>  <NssNH>
1

>  <NaaNH>
0

>  <NtN>
0

>  <NsssNH>
0

>  <NdsN>
1

>  <NaaN>
0

>  <NsssN>
2

>  <NddsN>
0

>  <NaasN>
0

>  <NssssN>
0

>  <NsOH>
0

>  <NdO>
0

>  <NssO>
0

>  <NaaO>
0

>  <NsF>
0

>  <NsSiH3>
0

>  <NssSiH2>
0

>  <NsssSiH>
0

>  <NssssSi>
0

>  <NsPH2>
0

>  <NssPH>
0

>  <NsssP>
0

>  <NdsssP>
0

>  <NsssssP>
0

>  <NsSH>
0

>  <NdS>
0

>  <NssS>
0

>  <NaaS>
1

>  <NdssS>
0

>  <NddssS>
0

>  <NsCl>
0

>  <NsBr>
0

>  <NsI>
0

>  <fragCpx>
163.05

>  <fMF>
0.48

>  <nHBAcc>
5

>  <nHBDon>
1

>  <Kier1>
15.52

>  <Kier2>
6.48

>  <Lipinski>
1

>  <GhoseFilter>
1

>  <FilterItLogS>
-4.32

>  <VMcGowan>
237.42

>  <LabuteASA>
133.95

>  <PEOE_VSA1>
15.12

>  <PEOE_VSA2>
0

>  <PEOE_VSA3>
4.99

>  <PEOE_VSA4>
0

>  <PEOE_VSA5>
11.34

>  <PEOE_VSA6>
12.13

>  <PEOE_VSA7>
32.17

>  <PEOE_VSA8>
31.06

>  <PEOE_VSA9>
16.59

>  <PEOE_VSA10>
10.49

>  <PEOE_VSA11>
0

>  <PEOE_VSA12>
0

>  <PEOE_VSA13>
0

>  <SMR_VSA1>
0

>  <SMR_VSA2>
0

>  <SMR_VSA3>
9.8

>  <SMR_VSA4>
4.99

>  <SMR_VSA5>
6.92

>  <SMR_VSA6>
38.54

>  <SMR_VSA7>
45.1

>  <SMR_VSA8>
0

>  <SMR_VSA9>
0

>  <SlogP_VSA1>
15.21

>  <SlogP_VSA2>
43.03

>  <SlogP_VSA3>
0

>  <SlogP_VSA4>
6.92

>  <SlogP_VSA5>
4.88

>  <SlogP_VSA6>
35.32

>  <SlogP_VSA7>
0

>  <SlogP_VSA8>
5.82

>  <SlogP_VSA9>
0

>  <SlogP_VSA10>
11.37

>  <SlogP_VSA11>
0

>  <EState_VSA1>
0

>  <EState_VSA2>
0

>  <EState_VSA3>
0

>  <EState_VSA4>
42.22

>  <EState_VSA5>
15.92

>  <EState_VSA6>
11.34

>  <EState_VSA7>
6.07

>  <EState_VSA8>
53.35

>  <EState_VSA9>
4.99

>  <EState_VSA10>
0

>  <VSA_EState1>
1.11

>  <VSA_EState2>
11.03

>  <VSA_EState3>
4.89

>  <VSA_EState4>
2.12

>  <VSA_EState5>
1.21

>  <VSA_EState6>
10.56

>  <VSA_EState7>
0

>  <VSA_EState8>
6.46

>  <VSA_EState9>
2.19

>  <apol>
49.03

>  <bpol>
27.65

>  <nRing>
4

>  <nHRing>
3

>  <naRing>
2

>  <naHRing>
1

>  <nARing 2>
2

>  <nAHRing 2>
2

>  <nFRing>
1

>  <nFHRing>
1

>  <nFaRing>
0

>  <nFaHRing>
0

>  <nFARing 2>
1

>  <nFAHRing 2>
1

>  <nRot>
1

>  <SLogP>
1.75

>  <SMR>
92.04

>  <TopoPSA(NO)>
30.87

>  <TopoPSA>
59.11

>  <JGI1>
0.18

>  <JGI2>
0.07

>  <JGI3>
0.04

>  <JGI4>
0.04

>  <JGI5>
0.02

>  <Diameter>
10

>  <Radius>
5

>  <TMWC10>
122.43

>  <TSRW10>
70.73

>  <MW>
312.14

>  <AMW>
7.43

>  <WPath>
958

>  <WPol>
38

>  <Zagreb1>
122

>  <Zagreb2>
146

>  <mZagreb2>
4.69

>  <yes>


>  <nAR-cont>
1

>  <nHA-cont>
0.983774276

>  <MWHBN>
0.339606925

>  <MWHBN-cont>
0.70855982

>  <TPSA-cont>
0.587375495

>  <pka_cont>
0.97

>  <yes.1>


>  <BBB_SCORE>
4.706364996

>  <MMFF94 Energy>
119.86

$$$$
Compound 658
Actelion Java MolfileCreator 2.0

  0  0  0  0  0  0              0 V3000
M  V30 BEGIN CTAB
M  V30 COUNTS 55 58 0 0 0
M  V30 BEGIN ATOM
M  V30 1 S 5.3255 0.2416 -2.8214 0
M  V30 2 C 3.6825 -0.1743 -2.4438 0
M  V30 3 C 5.5106 -1.1931 -3.7421 0
M  V30 4 N 3.3001 -1.3162 -2.9758 0
M  V30 5 N 2.8655 0.607 -1.6684 0
M  V30 6 C 4.3144 -1.9031 -3.7086 0
M  V30 7 C 6.6337 -1.6603 -4.4455 0
M  V30 8 C 1.5135 0.1207 -1.3419 0
M  V30 9 C 3.3084 1.9013 -1.1727 0
M  V30 10 C 4.2319 -3.1275 -4.4028 0
M  V30 11 C 6.5283 -2.8772 -5.1266 0
M  V30 12 C 1.2871 0.0452 0.1725 0
M  V30 13 C 0.4414 0.9725 -2.0292 0
M  V30 14 C 5.3423 -3.6043 -5.107 0
M  V30 15 C -0.1497 -0.3831 0.4724 0
M  V30 16 C -0.9573 0.5061 -1.6216 0
M  V30 17 N -1.177 0.4591 -0.1648 0
M  V30 18 C -1.2827 1.8178 0.4119 0
M  V30 19 C -1.7728 1.9097 1.8748 0 CFG=2
M  V30 20 O -0.7031 1.6215 2.7872 0
M  V30 21 C -2.9815 1.0101 2.1624 0
M  V30 22 O -3.4422 1.3263 3.4857 0
M  V30 23 C -4.5378 0.6446 3.9391 0
M  V30 24 C -5.2193 -0.3638 3.2524 0
M  V30 25 C -4.9747 1.026 5.2132 0
M  V30 26 C -6.3292 -0.9813 3.8375 0
M  V30 27 C -6.0825 0.41 5.7974 0
M  V30 28 C -6.7504 -0.5891 5.1025 0
M  V30 29 F -7.8141 -1.1835 5.6584 0
M  V30 30 H 7.5591 -1.093 -4.4604 0
M  V30 31 H 1.3791 -0.9044 -1.7134 0
M  V30 32 H 2.507 2.4526 -0.6709 0
M  V30 33 H 3.652 2.5417 -1.9928 0
M  V30 34 H 4.1194 1.7806 -0.4461 0
M  V30 35 H 3.3039 -3.69 -4.3832 0
M  V30 36 H 7.3855 -3.2584 -5.6776 0
M  V30 37 H 1.4953 1.0017 0.6635 0
M  V30 38 H 1.9834 -0.6798 0.6119 0
M  V30 39 H 0.5483 0.8926 -3.1182 0
M  V30 40 H 0.5627 2.035 -1.7898 0
M  V30 41 H 5.2747 -4.5493 -5.6408 0
M  V30 42 H -0.3022 -0.4486 1.5536 0
M  V30 43 H -0.2903 -1.4128 0.116 0
M  V30 44 H -1.1318 -0.4985 -2.0289 0
M  V30 45 H -1.7127 1.1434 -2.0979 0
M  V30 46 H -0.3317 2.3558 0.3261 0
M  V30 47 H -2.0164 2.3731 -0.1873 0
M  V30 48 H -2.0513 2.9518 2.076 0
M  V30 49 H -1.1191 1.5479 3.6672 0
M  V30 50 H -3.7751 1.2093 1.4328 0
M  V30 51 H -2.6813 -0.0432 2.1376 0
M  V30 52 H -4.9136 -0.695 2.2653 0
M  V30 53 H -4.4485 1.8094 5.7532 0
M  V30 54 H -6.8657 -1.7662 3.3137 0
M  V30 55 H -6.425 0.703 6.7843 0
M  V30 END ATOM
M  V30 BEGIN BOND
M  V30 1 1 1 2
M  V30 2 1 1 3
M  V30 3 2 2 4
M  V30 4 1 2 5
M  V30 5 2 3 6
M  V30 6 1 3 7
M  V30 7 1 5 8
M  V30 8 1 5 9
M  V30 9 1 6 10
M  V30 10 2 7 11
M  V30 11 1 8 12
M  V30 12 1 8 13
M  V30 13 2 10 14
M  V30 14 1 12 15
M  V30 15 1 13 16
M  V30 16 1 15 17
M  V30 17 1 17 18
M  V30 18 1 18 19
M  V30 19 1 19 20
M  V30 20 1 19 21
M  V30 21 1 21 22
M  V30 22 1 22 23
M  V30 23 2 23 24
M  V30 24 1 23 25
M  V30 25 1 24 26
M  V30 26 2 25 27
M  V30 27 2 26 28
M  V30 28 1 28 29
M  V30 29 1 4 6
M  V30 30 1 11 14
M  V30 31 1 16 17
M  V30 32 1 27 28
M  V30 33 1 7 30
M  V30 34 1 8 31
M  V30 35 1 9 32
M  V30 36 1 9 33
M  V30 37 1 9 34
M  V30 38 1 10 35
M  V30 39 1 11 36
M  V30 40 1 12 37
M  V30 41 1 12 38
M  V30 42 1 13 39
M  V30 43 1 13 40
M  V30 44 1 14 41
M  V30 45 1 15 42
M  V30 46 1 15 43
M  V30 47 1 16 44
M  V30 48 1 16 45
M  V30 49 1 18 46
M  V30 50 1 18 47
M  V30 51 1 19 48
M  V30 52 1 20 49
M  V30 53 1 21 50
M  V30 54 1 21 51
M  V30 55 1 24 52
M  V30 56 1 25 53
M  V30 57 1 26 54
M  V30 58 1 27 55
M  V30 END BOND
M  V30 BEGIN COLLECTION
M  V30 MDLV30/STERAC1 ATOMS=(1 19)
M  V30 END COLLECTION
M  V30 END CTAB
M  END
>  <Column 1>
793

>  <level_0>
905

>  <index>
905

>  <Unnamed: 0>
905

>  <NO.>
917

>  <Name>
sabeluzole

>  <IUPAC_name>
1-[4-[1-3-benzothiazol-2-yl(methyl)amino]piperidin-1-yl]-3-(4-fluorophenoxy)propan-2-ol

>  <SMILES>
CN(c1nc2ccccc2s1)C1CCN(CC(O)COc2ccc(F)cc2)CC1

>  <CID>
59823

>  <logBB>
0.78

>  <BBB+/BBB->
BBB+

>  <Inchi>
InChI=1S/C22H26FN3O2S/c1-25(22-24-20-4-2-3-5-21(20)29-22)17-10-12-26(13-11-17)14-18(27)15-28-19-8-6-16(23)7-9-19/h2-9-17-18-27H-10-15H2-1H3

>  <threshold>


>  <reference>
R2|R2|R25|R27|R46|R47|

>  <group>
A

>  <Class>
1

>  <ABC>
22.83

>  <ABCGG>
16.42

>  <nAcid>
0

>  <nBase>
1

>  <nAromAtom>
15

>  <nAromBond>
16

>  <nAtom>
55

>  <nHeavyAtom>
29

>  <nSpiro>
0

>  <nBridgehead>
0

>  <nHetero>
7

>  <nN>
3

>  <nO>
2

>  <nF>
1

>  <BalabanJ>
1.13

>  <BertzCT>
892.21

>  <nBonds>
58

>  <nBondsO>
32

>  <nBondsS>
42

>  <nBondsD>
0

>  <nBondsT>
0

>  <nBondsA>
16

>  <nBondsM>
16

>  <nBondsKS>
51

>  <nBondsKD>
7

>  <RNCG>
0.21

>  <RPCG>
0.09

>  <FCSP3>
0.41

>  <SZ>
36.67

>  <Sm>
34.6

>  <Sv>
34.58

>  <Sse>
55.23

>  <Sp>
37.39

>  <Si>
62.16

>  <MZ>
0.67

>  <Mm>
0.63

>  <Mv>
0.63

>  <Mse>
1

>  <Mp>
0.68

>  <Mi>
1.13

>  <NsCH3>
1

>  <NdCH2>
0

>  <NssCH2>
6

>  <NtCH>
0

>  <NdsCH>
0

>  <NaaCH>
8

>  <NsssCH>
2

>  <NddC>
0

>  <NtsC>
0

>  <NdssC>
0

>  <NaasC>
3

>  <NaaaC>
2

>  <NssssC>
0

>  <NsNH3>
0

>  <NsNH2>
0

>  <NssNH2>
0

>  <NdNH>
0

>  <NssNH>
0

>  <NaaNH>
0

>  <NtN>
0

>  <NsssNH>
0

>  <NdsN>
0

>  <NaaN>
1

>  <NsssN>
2

>  <NddsN>
0

>  <NaasN>
0

>  <NssssN>
0

>  <NsOH>
1

>  <NdO>
0

>  <NssO>
1

>  <NaaO>
0

>  <NsF>
1

>  <NsSiH3>
0

>  <NssSiH2>
0

>  <NsssSiH>
0

>  <NssssSi>
0

>  <NsPH2>
0

>  <NssPH>
0

>  <NsssP>
0

>  <NdsssP>
0

>  <NsssssP>
0

>  <NsSH>
0

>  <NdS>
0

>  <NssS>
0

>  <NaaS>
1

>  <NdssS>
0

>  <NddssS>
0

>  <NsCl>
0

>  <NsBr>
0

>  <NsI>
0

>  <fragCpx>
212.07

>  <fMF>
0.47

>  <nHBAcc>
6

>  <nHBDon>
1

>  <Kier1>
22.2

>  <Kier2>
10.54

>  <Lipinski>
1

>  <GhoseFilter>
1

>  <FilterItLogS>
-4.7

>  <VMcGowan>
307.09

>  <LabuteASA>
173.9

>  <PEOE_VSA1>
19.64

>  <PEOE_VSA2>
0

>  <PEOE_VSA3>
9.37

>  <PEOE_VSA4>
0

>  <PEOE_VSA5>
0

>  <PEOE_VSA6>
23.47

>  <PEOE_VSA7>
49.24

>  <PEOE_VSA8>
32.72

>  <PEOE_VSA9>
10.22

>  <PEOE_VSA10>
24.28

>  <PEOE_VSA11>
5.13

>  <PEOE_VSA12>
0

>  <PEOE_VSA13>
0

>  <SMR_VSA1>
14.23

>  <SMR_VSA2>
0

>  <SMR_VSA3>
9.88

>  <SMR_VSA4>
0

>  <SMR_VSA5>
24.99

>  <SMR_VSA6>
38.19

>  <SMR_VSA7>
54.35

>  <SMR_VSA8>
0

>  <SMR_VSA9>
5.75

>  <SlogP_VSA1>
9.64

>  <SlogP_VSA2>
60.43

>  <SlogP_VSA3>
0

>  <SlogP_VSA4>
5.82

>  <SlogP_VSA5>
12.84

>  <SlogP_VSA6>
48.53

>  <SlogP_VSA7>
0

>  <SlogP_VSA8>
10.22

>  <SlogP_VSA9>
0

>  <SlogP_VSA10>
9.52

>  <SlogP_VSA11>
5.75

>  <EState_VSA1>
6.1

>  <EState_VSA2>
12.42

>  <EState_VSA3>
18.34

>  <EState_VSA4>
36.58

>  <EState_VSA5>
16.83

>  <EState_VSA6>
23.47

>  <EState_VSA7>
12.13

>  <EState_VSA8>
28.98

>  <EState_VSA9>
9.72

>  <EState_VSA10>
9.5

>  <VSA_EState1>
19.7

>  <VSA_EState2>
9.35

>  <VSA_EState3>
11.36

>  <VSA_EState4>
1.06

>  <VSA_EState5>
0.28

>  <VSA_EState6>
14.56

>  <VSA_EState7>
1.51

>  <VSA_EState8>
2.66

>  <VSA_EState9>
2.13

>  <apol>
62.44

>  <bpol>
35.95

>  <nRing>
4

>  <nHRing>
2

>  <naRing>
3

>  <naHRing>
1

>  <nARing 2>
1

>  <nAHRing 2>
1

>  <nFRing>
1

>  <nFHRing>
1

>  <nFaRing>
1

>  <nFaHRing>
1

>  <nFARing 2>
0

>  <nFAHRing 2>
0

>  <nRot>
7

>  <SLogP>
3.78

>  <SMR>
115.39

>  <TopoPSA(NO)>
48.83

>  <TopoPSA>
77.07

>  <JGI1>
0.19

>  <JGI2>
0.07

>  <JGI3>
0.04

>  <JGI4>
0.04

>  <JGI5>
0.02

>  <Diameter>
18

>  <Radius>
9

>  <TMWC10>
137.05

>  <TSRW10>
78.31

>  <MW>
415.17

>  <AMW>
7.55

>  <WPath>
2775

>  <WPol>
42

>  <Zagreb1>
152

>  <Zagreb2>
176

>  <mZagreb2>
6.33

>  <yes>


>  <nAR-cont>
0.816016

>  <nHA-cont>
0.785905698

>  <MWHBN>
0.343546128

>  <MWHBN-cont>
0.694176253

>  <TPSA-cont>
0.462003542

>  <pka_cont>
0.97

>  <yes.1>


>  <BBB_SCORE>
4.052193162

>  <MMFF94 Energy>
49.535

$$$$
Compound 659
Actelion Java MolfileCreator 2.0

  0  0  0  0  0  0              0 V3000
M  V30 BEGIN CTAB
M  V30 COUNTS 62 65 0 0 0
M  V30 BEGIN ATOM
M  V30 1 O 4.1274 1.4272 0.7927 0
M  V30 2 C 3.6075 1.6817 1.8727 0
M  V30 3 N 3.3816 0.7435 2.8585 0
M  V30 4 C 3.2094 3.0777 2.1953 0
M  V30 5 C 3.6819 -0.6604 2.6683 0
M  V30 6 C 2.094 3.3599 2.9945 0
M  V30 7 C 3.961 4.1246 1.6556 0
M  V30 8 C 2.4168 -1.5013 2.5054 0
M  V30 9 C 1.7403 4.689 3.2831 0
M  V30 10 C 3.6202 5.4491 1.9371 0
M  V30 11 C 1.628 -1.151 1.2387 0
M  V30 12 C 2.5163 5.7463 2.7516 0
M  V30 13 C 0.6276 4.9915 4.085 0
M  V30 14 C 0.4391 -2.1027 1.049 0
M  V30 15 C 2.1612 7.0729 3.043 0
M  V30 16 C 0.2884 6.3163 4.3646 0
M  V30 17 N -0.4619 -1.6892 -0.0381 0
M  V30 18 C 1.0547 7.3554 3.8454 0
M  V30 19 C 0.1851 -1.7846 -1.37 0
M  V30 20 C -1.6733 -2.5496 -0.0436 0
M  V30 21 C -0.7629 -1.425 -2.5399 0
M  V30 22 C -2.6673 -2.1999 -1.1735 0
M  V30 23 N -1.9896 -2.2276 -2.4783 0
M  V30 24 C -2.7895 -2.4006 -3.6085 0
M  V30 25 C -3.5343 -3.5908 -3.8199 0
M  V30 26 C -2.8781 -1.3944 -4.5874 0
M  V30 27 O -3.3916 -4.5801 -2.8719 0
M  V30 28 C -4.3492 -3.7235 -4.9544 0
M  V30 29 C -3.6835 -1.5391 -5.7193 0
M  V30 30 C -3.8756 -5.8742 -3.1987 0
M  V30 31 C -4.4219 -2.7009 -5.8998 0
M  V30 32 H 3.048 1.0393 3.7654 0
M  V30 33 H 4.2231 -0.9878 3.5624 0
M  V30 34 H 4.3468 -0.797 1.809 0
M  V30 35 H 1.4758 2.5496 3.3719 0
M  V30 36 H 4.8153 3.9106 1.0164 0
M  V30 37 H 1.7722 -1.3695 3.3834 0
M  V30 38 H 2.7049 -2.559 2.4731 0
M  V30 39 H 4.2223 6.2483 1.5102 0
M  V30 40 H 1.2615 -0.1196 1.3049 0
M  V30 41 H 2.3017 -1.2069 0.3764 0
M  V30 42 H 0.0126 4.1954 4.499 0
M  V30 43 H 0.8049 -3.1252 0.8879 0
M  V30 44 H -0.1305 -2.1126 1.9875 0
M  V30 45 H 2.7445 7.8993 2.6427 0
M  V30 46 H -0.5757 6.5362 4.9864 0
M  V30 47 H 0.7903 8.3875 4.0613 0
M  V30 48 H 1.0363 -1.0978 -1.4252 0
M  V30 49 H 0.5701 -2.8012 -1.5271 0
M  V30 50 H -1.3843 -3.6049 -0.1415 0
M  V30 51 H -2.1992 -2.4411 0.9127 0
M  V30 52 H -0.2281 -1.61 -3.4796 0
M  V30 53 H -1.0107 -0.357 -2.4924 0
M  V30 54 H -3.0775 -1.1955 -1.0043 0
M  V30 55 H -3.5089 -2.898 -1.1171 0
M  V30 56 H -2.3328 -0.4629 -4.4659 0
M  V30 57 H -4.9414 -4.6147 -5.1296 0
M  V30 58 H -3.7363 -0.7381 -6.4517 0
M  V30 59 H -4.9697 -5.8861 -3.2305 0
M  V30 60 H -3.561 -6.5583 -2.4046 0
M  V30 61 H -3.4466 -6.2378 -4.1385 0
M  V30 62 H -5.0543 -2.8137 -6.7762 0
M  V30 END ATOM
M  V30 BEGIN BOND
M  V30 1 2 1 2
M  V30 2 1 2 3
M  V30 3 1 2 4
M  V30 4 1 3 5
M  V30 5 2 4 6
M  V30 6 1 4 7
M  V30 7 1 5 8
M  V30 8 1 6 9
M  V30 9 2 7 10
M  V30 10 1 8 11
M  V30 11 1 9 12
M  V30 12 2 9 13
M  V30 13 1 11 14
M  V30 14 2 12 15
M  V30 15 1 13 16
M  V30 16 1 14 17
M  V30 17 1 15 18
M  V30 18 1 17 19
M  V30 19 1 17 20
M  V30 20 1 19 21
M  V30 21 1 20 22
M  V30 22 1 21 23
M  V30 23 1 23 24
M  V30 24 2 24 25
M  V30 25 1 24 26
M  V30 26 1 25 27
M  V30 27 1 25 28
M  V30 28 2 26 29
M  V30 29 1 27 30
M  V30 30 2 28 31
M  V30 31 1 10 12
M  V30 32 2 16 18
M  V30 33 1 22 23
M  V30 34 1 29 31
M  V30 35 1 3 32
M  V30 36 1 5 33
M  V30 37 1 5 34
M  V30 38 1 6 35
M  V30 39 1 7 36
M  V30 40 1 8 37
M  V30 41 1 8 38
M  V30 42 1 10 39
M  V30 43 1 11 40
M  V30 44 1 11 41
M  V30 45 1 13 42
M  V30 46 1 14 43
M  V30 47 1 14 44
M  V30 48 1 15 45
M  V30 49 1 16 46
M  V30 50 1 18 47
M  V30 51 1 19 48
M  V30 52 1 19 49
M  V30 53 1 20 50
M  V30 54 1 20 51
M  V30 55 1 21 52
M  V30 56 1 21 53
M  V30 57 1 22 54
M  V30 58 1 22 55
M  V30 59 1 26 56
M  V30 60 1 28 57
M  V30 61 1 29 58
M  V30 62 1 30 59
M  V30 63 1 30 60
M  V30 64 1 30 61
M  V30 65 1 31 62
M  V30 END BOND
M  V30 END CTAB
M  END
>  <Column 1>
795

>  <level_0>
907

>  <index>
907

>  <Unnamed: 0>
907

>  <NO.>
919

>  <Name>
piperazinederivatives 12

>  <IUPAC_name>
n-[4-[4-(2-methoxyphenyl)piperazin-1-yl]butyl]naphthalene-2-carboxamide

>  <SMILES>
COc1ccccc1N1CCN(CCCCNC(=O)c2ccc3ccccc3c2)CC1

>  <CID>
3038495

>  <logBB>
0.78

>  <BBB+/BBB->
BBB+

>  <Inchi>
InChI=1S/C26H31N3O2/c1-31-25-11-5-4-10-24(25)29-18-16-28(17-19-29)15-7-6-14-27-26(30)23-13-12-21-8-2-3-9-22(21)20-23/h2-5-8-13-20H-6-7-14-19H2-1H3-(H-27-30)

>  <threshold>


>  <reference>
R47|

>  <group>
A

>  <Class>
1

>  <ABC>
23.99

>  <ABCGG>
16.45

>  <nAcid>
0

>  <nBase>
1

>  <nAromAtom>
16

>  <nAromBond>
17

>  <nAtom>
62

>  <nHeavyAtom>
31

>  <nSpiro>
0

>  <nBridgehead>
0

>  <nHetero>
5

>  <nN>
3

>  <nO>
2

>  <nF>
0

>  <BalabanJ>
1.06

>  <BertzCT>
1012.21

>  <nBonds>
65

>  <nBondsO>
34

>  <nBondsS>
47

>  <nBondsD>
1

>  <nBondsT>
0

>  <nBondsA>
17

>  <nBondsM>
18

>  <nBondsKS>
56

>  <nBondsKD>
9

>  <RNCG>
0.2

>  <RPCG>
0.1

>  <FCSP3>
0.35

>  <SZ>
37.33

>  <Sm>
34.76

>  <Sv>
38.1

>  <Sse>
61.41

>  <Sp>
41.31

>  <Si>
69.73

>  <MZ>
0.6

>  <Mm>
0.56

>  <Mv>
0.61

>  <Mse>
0.99

>  <Mp>
0.67

>  <Mi>
1.12

>  <NsCH3>
1

>  <NdCH2>
0

>  <NssCH2>
8

>  <NtCH>
0

>  <NdsCH>
0

>  <NaaCH>
11

>  <NsssCH>
0

>  <NddC>
0

>  <NtsC>
0

>  <NdssC>
1

>  <NaasC>
3

>  <NaaaC>
2

>  <NssssC>
0

>  <NsNH3>
0

>  <NsNH2>
0

>  <NssNH2>
0

>  <NdNH>
0

>  <NssNH>
1

>  <NaaNH>
0

>  <NtN>
0

>  <NsssNH>
0

>  <NdsN>
0

>  <NaaN>
0

>  <NsssN>
2

>  <NddsN>
0

>  <NaasN>
0

>  <NssssN>
0

>  <NsOH>
0

>  <NdO>
1

>  <NssO>
1

>  <NaaO>
0

>  <NsF>
0

>  <NsSiH3>
0

>  <NssSiH2>
0

>  <NsssSiH>
0

>  <NssssSi>
0

>  <NsPH2>
0

>  <NssPH>
0

>  <NsssP>
0

>  <NdsssP>
0

>  <NsssssP>
0

>  <NsSH>
0

>  <NdS>
0

>  <NssS>
0

>  <NaaS>
0

>  <NdssS>
0

>  <NddssS>
0

>  <NsCl>
0

>  <NsBr>
0

>  <NsI>
0

>  <fragCpx>
226.05

>  <fMF>
0.45

>  <nHBAcc>
4

>  <nHBDon>
1

>  <Kier1>
24.13

>  <Kier2>
12.46

>  <Lipinski>
1

>  <GhoseFilter>
1

>  <FilterItLogS>
-6.36

>  <VMcGowan>
336.74

>  <LabuteASA>
184.16

>  <PEOE_VSA1>
14.95

>  <PEOE_VSA2>
9.69

>  <PEOE_VSA3>
0

>  <PEOE_VSA4>
0

>  <PEOE_VSA5>
0

>  <PEOE_VSA6>
42.46

>  <PEOE_VSA7>
54.42

>  <PEOE_VSA8>
38.29

>  <PEOE_VSA9>
12.8

>  <PEOE_VSA10>
5.75

>  <PEOE_VSA11>
0

>  <PEOE_VSA12>
0

>  <PEOE_VSA13>
5.91

>  <SMR_VSA1>
9.53

>  <SMR_VSA2>
0

>  <SMR_VSA3>
10.22

>  <SMR_VSA4>
0

>  <SMR_VSA5>
12.84

>  <SMR_VSA6>
51.28

>  <SMR_VSA7>
72.29

>  <SMR_VSA8>
0

>  <SMR_VSA9>
5.75

>  <SlogP_VSA1>
14.95

>  <SlogP_VSA2>
57.19

>  <SlogP_VSA3>
0

>  <SlogP_VSA4>
0

>  <SlogP_VSA5>
23.2

>  <SlogP_VSA6>
66.73

>  <SlogP_VSA7>
0

>  <SlogP_VSA8>
10.77

>  <SlogP_VSA9>
0

>  <SlogP_VSA10>
5.69

>  <SlogP_VSA11>
5.75

>  <EState_VSA1>
0

>  <EState_VSA2>
5.91

>  <EState_VSA3>
6.54

>  <EState_VSA4>
67.65

>  <EState_VSA5>
5.69

>  <EState_VSA6>
7.11

>  <EState_VSA7>
48.53

>  <EState_VSA8>
33.32

>  <EState_VSA9>
4.74

>  <EState_VSA10>
4.79

>  <VSA_EState1>
5.5

>  <VSA_EState2>
17.35

>  <VSA_EState3>
5.32

>  <VSA_EState4>
1.91

>  <VSA_EState5>
0.95

>  <VSA_EState6>
22.22

>  <VSA_EState7>
2.08

>  <VSA_EState8>
5.93

>  <VSA_EState9>
1.73

>  <apol>
68.99

>  <bpol>
37.69

>  <nRing>
4

>  <nHRing>
1

>  <naRing>
3

>  <naHRing>
0

>  <nARing 2>
1

>  <nAHRing 2>
1

>  <nFRing>
1

>  <nFHRing>
0

>  <nFaRing>
1

>  <nFaHRing>
0

>  <nFARing 2>
0

>  <nFAHRing 2>
0

>  <nRot>
8

>  <SLogP>
4.18

>  <SMR>
127.16

>  <TopoPSA(NO)>
44.81

>  <TopoPSA>
44.81

>  <JGI1>
0.13

>  <JGI2>
0.07

>  <JGI3>
0.03

>  <JGI4>
0.03

>  <JGI5>
0.02

>  <Diameter>
19

>  <Radius>
10

>  <TMWC10>
141.22

>  <TSRW10>
66.58

>  <MW>
417.24

>  <AMW>
6.73

>  <WPath>
3522

>  <WPol>
47

>  <Zagreb1>
158

>  <Zagreb2>
183

>  <mZagreb2>
7.03

>  <yes>


>  <nAR-cont>
0.816016

>  <nHA-cont>
0.702745138

>  <MWHBN>
0.244780623

>  <MWHBN-cont>
0.968115446

>  <TPSA-cont>
0.687198375

>  <pka_cont>
0.97

>  <yes.1>


>  <BBB_SCORE>
4.830331056

>  <MMFF94 Energy>
138.06

$$$$
Compound 660
Actelion Java MolfileCreator 2.0

  0  0  0  0  0  0              0 V3000
M  V30 BEGIN CTAB
M  V30 COUNTS 43 43 0 0 0
M  V30 BEGIN ATOM
M  V30 1 F -4.5939 2.6117 2.0573 0
M  V30 2 C -3.9612 1.698 2.8443 0
M  V30 3 F -4.9462 0.9341 3.3938 0
M  V30 4 F -3.4166 2.403 3.874 0
M  V30 5 C -2.9278 0.8849 2.1006 0
M  V30 6 C -2.2567 1.4262 0.9913 0
M  V30 7 C -2.5984 -0.412 2.5313 0
M  V30 8 C -1.2874 0.6813 0.317 0
M  V30 9 C -1.6286 -1.1597 1.8593 0
M  V30 10 C -0.9793 -0.61 0.7521 0
M  V30 11 C 0.0667 -1.392 0.0484 0
M  V30 12 N 0.0217 -1.7545 -1.2002 0
M  V30 13 C 1.2814 -1.798 0.8712 0
M  V30 14 O -1.1753 -1.3654 -1.8179 0
M  V30 15 C 2.5876 -1.2542 0.2899 0
M  V30 16 C -1.1389 -1.7834 -3.1837 0
M  V30 17 C 2.6948 0.2664 0.4152 0
M  V30 18 C -2.4475 -1.3745 -3.8667 0
M  V30 19 C 4.0264 0.7801 -0.1283 0
M  V30 20 N -2.647 0.0807 -3.902 0
M  V30 21 O 4.0765 2.2062 -0.102 0
M  V30 22 C 4.4272 2.7322 1.1707 0
M  V30 23 H -2.4906 2.4328 0.6459 0
M  V30 24 H -3.1047 -0.8465 3.3929 0
M  V30 25 H -0.7748 1.1059 -0.5431 0
M  V30 26 H -1.3952 -2.167 2.195 0
M  V30 27 H 1.3173 -2.8942 0.8768 0
M  V30 28 H 1.1751 -1.4726 1.9118 0
M  V30 29 H 2.6852 -1.5444 -0.7629 0
M  V30 30 H 3.4247 -1.7177 0.8261 0
M  V30 31 H -1.0299 -2.8732 -3.2235 0
M  V30 32 H -0.2809 -1.3213 -3.6862 0
M  V30 33 H 2.579 0.5589 1.465 0
M  V30 34 H 1.8791 0.758 -0.1273 0
M  V30 35 H -3.2956 -1.8156 -3.3316 0
M  V30 36 H -2.4625 -1.7564 -4.8924 0
M  V30 37 H 4.8777 0.3546 0.416 0
M  V30 38 H 4.1286 0.4813 -1.1773 0
M  V30 39 H -2.6135 0.4222 -2.939 0
M  V30 40 H -1.8494 0.5162 -4.3649 0
M  V30 41 H 4.4874 3.8208 1.0852 0
M  V30 42 H 5.4048 2.3556 1.4866 0
M  V30 43 H 3.6688 2.4888 1.9194 0
M  V30 END ATOM
M  V30 BEGIN BOND
M  V30 1 1 1 2
M  V30 2 1 2 3
M  V30 3 1 2 4
M  V30 4 1 2 5
M  V30 5 2 5 6
M  V30 6 1 5 7
M  V30 7 1 6 8
M  V30 8 2 7 9
M  V30 9 2 8 10
M  V30 10 1 10 11
M  V30 11 2 11 12
M  V30 12 1 11 13
M  V30 13 1 12 14
M  V30 14 1 13 15
M  V30 15 1 14 16
M  V30 16 1 15 17
M  V30 17 1 16 18
M  V30 18 1 17 19
M  V30 19 1 18 20
M  V30 20 1 19 21
M  V30 21 1 21 22
M  V30 22 1 9 10
M  V30 23 1 6 23
M  V30 24 1 7 24
M  V30 25 1 8 25
M  V30 26 1 9 26
M  V30 27 1 13 27
M  V30 28 1 13 28
M  V30 29 1 15 29
M  V30 30 1 15 30
M  V30 31 1 16 31
M  V30 32 1 16 32
M  V30 33 1 17 33
M  V30 34 1 17 34
M  V30 35 1 18 35
M  V30 36 1 18 36
M  V30 37 1 19 37
M  V30 38 1 19 38
M  V30 39 1 20 39
M  V30 40 1 20 40
M  V30 41 1 22 41
M  V30 42 1 22 42
M  V30 43 1 22 43
M  V30 END BOND
M  V30 END CTAB
M  END
>  <Column 1>
796

>  <level_0>
908

>  <index>
908

>  <Unnamed: 0>
908

>  <NO.>
920

>  <Name>
fluvoxamine

>  <IUPAC_name>
2-[(z)-[5-methoxy-1-[4-(trifluoromethyl)phenyl]pentylidene]amino]oxyethanamine

>  <SMILES>
COCCCC/C(=N/OCCN)c1ccc(C(F)(F)F)cc1

>  <CID>
5324346

>  <logBB>
0.79

>  <BBB+/BBB->
BBB+

>  <Inchi>
InChI=1S/C15H21F3N2O2/c1-21-10-3-2-4-14(20-22-11-9-19)12-5-7-13(8-6-12)15(16-17)18/h5-8H-2-4-9-11-19H2-1H3/b20-14-

>  <threshold>


>  <reference>
R18|R25|R26|R27|

>  <group>
A

>  <Class>
1

>  <ABC>
15.93

>  <ABCGG>
13.51

>  <nAcid>
0

>  <nBase>
1

>  <nAromAtom>
6

>  <nAromBond>
6

>  <nAtom>
43

>  <nHeavyAtom>
22

>  <nSpiro>
0

>  <nBridgehead>
0

>  <nHetero>
7

>  <nN>
2

>  <nO>
2

>  <nF>
3

>  <BalabanJ>
2.41

>  <BertzCT>
458.85

>  <nBonds>
43

>  <nBondsO>
22

>  <nBondsS>
36

>  <nBondsD>
1

>  <nBondsT>
0

>  <nBondsA>
6

>  <nBondsM>
7

>  <nBondsKS>
39

>  <nBondsKD>
4

>  <RNCG>
0.2

>  <RPCG>
0.21

>  <FCSP3>
0.53

>  <SZ>
28

>  <Sm>
26.5

>  <Sv>
25.57

>  <Sse>
44.18

>  <Sp>
26.66

>  <Si>
50

>  <MZ>
0.65

>  <Mm>
0.62

>  <Mv>
0.59

>  <Mse>
1.03

>  <Mp>
0.62

>  <Mi>
1.16

>  <NsCH3>
1

>  <NdCH2>
0

>  <NssCH2>
6

>  <NtCH>
0

>  <NdsCH>
0

>  <NaaCH>
4

>  <NsssCH>
0

>  <NddC>
0

>  <NtsC>
0

>  <NdssC>
1

>  <NaasC>
2

>  <NaaaC>
0

>  <NssssC>
1

>  <NsNH3>
0

>  <NsNH2>
1

>  <NssNH2>
0

>  <NdNH>
0

>  <NssNH>
0

>  <NaaNH>
0

>  <NtN>
0

>  <NsssNH>
0

>  <NdsN>
1

>  <NaaN>
0

>  <NsssN>
0

>  <NddsN>
0

>  <NaasN>
0

>  <NssssN>
0

>  <NsOH>
0

>  <NdO>
0

>  <NssO>
2

>  <NaaO>
0

>  <NsF>
3

>  <NsSiH3>
0

>  <NssSiH2>
0

>  <NsssSiH>
0

>  <NssssSi>
0

>  <NsPH2>
0

>  <NssPH>
0

>  <NsssP>
0

>  <NdsssP>
0

>  <NsssssP>
0

>  <NsSH>
0

>  <NdS>
0

>  <NssS>
0

>  <NaaS>
0

>  <NdssS>
0

>  <NddssS>
0

>  <NsCl>
0

>  <NsBr>
0

>  <NsI>
0

>  <fragCpx>
22.07

>  <fMF>
0.14

>  <nHBAcc>
4

>  <nHBDon>
1

>  <Kier1>
20.05

>  <Kier2>
10.71

>  <Lipinski>
1

>  <GhoseFilter>
1

>  <FilterItLogS>
-4.69

>  <VMcGowan>
231.13

>  <LabuteASA>
127.63

>  <PEOE_VSA1>
15.31

>  <PEOE_VSA2>
0

>  <PEOE_VSA3>
0

>  <PEOE_VSA4>
13.17

>  <PEOE_VSA5>
0

>  <PEOE_VSA6>
17.29

>  <PEOE_VSA7>
36.96

>  <PEOE_VSA8>
20.26

>  <PEOE_VSA9>
11.28

>  <PEOE_VSA10>
6.61

>  <PEOE_VSA11>
0

>  <PEOE_VSA12>
0

>  <PEOE_VSA13>
0

>  <SMR_VSA1>
22.75

>  <SMR_VSA2>
0

>  <SMR_VSA3>
0

>  <SMR_VSA4>
10.89

>  <SMR_VSA5>
25.44

>  <SMR_VSA6>
26.87

>  <SMR_VSA7>
35.39

>  <SMR_VSA8>
0

>  <SMR_VSA9>
0

>  <SlogP_VSA1>
5.73

>  <SlogP_VSA2>
32.58

>  <SlogP_VSA3>
15.75

>  <SlogP_VSA4>
0

>  <SlogP_VSA5>
30.39

>  <SlogP_VSA6>
29.42

>  <SlogP_VSA7>
0

>  <SlogP_VSA8>
0

>  <SlogP_VSA9>
0

>  <SlogP_VSA10>
13.17

>  <SlogP_VSA11>
0

>  <EState_VSA1>
11.74

>  <EState_VSA2>
6.61

>  <EState_VSA3>
30.85

>  <EState_VSA4>
24.97

>  <EState_VSA5>
12.13

>  <EState_VSA6>
7.11

>  <EState_VSA7>
0

>  <EState_VSA8>
5.16

>  <EState_VSA9>
15.31

>  <EState_VSA10>
13.17

>  <VSA_EState1>
42.69

>  <VSA_EState2>
5.06

>  <VSA_EState3>
3.99

>  <VSA_EState4>
5.87

>  <VSA_EState5>
0

>  <VSA_EState6>
4.9

>  <VSA_EState7>
-2.1

>  <VSA_EState8>
1.22

>  <VSA_EState9>
1.62

>  <apol>
44.53

>  <bpol>
27.31

>  <nRing>
1

>  <nHRing>
0

>  <naRing>
1

>  <naHRing>
0

>  <nARing 2>
0

>  <nAHRing 2>
0

>  <nFRing>
0

>  <nFHRing>
0

>  <nFaRing>
0

>  <nFaHRing>
0

>  <nFARing 2>
0

>  <nFAHRing 2>
0

>  <nRot>
9

>  <SLogP>
3.2

>  <SMR>
78.71

>  <TopoPSA(NO)>
56.84

>  <TopoPSA>
56.84

>  <JGI1>
0.2

>  <JGI2>
0.09

>  <JGI3>
0.04

>  <JGI4>
0.02

>  <JGI5>
0.03

>  <Diameter>
12

>  <Radius>
6

>  <TMWC10>
114.99

>  <TSRW10>
55.01

>  <MW>
318.16

>  <AMW>
7.4

>  <WPath>
1216

>  <WPol>
28

>  <Zagreb1>
100

>  <Zagreb2>
109

>  <mZagreb2>
5.19

>  <yes>


>  <nAR-cont>
0.336376

>  <nHA-cont>
0.983774276

>  <MWHBN>
0.280315566

>  <MWHBN-cont>
0.895281658

>  <TPSA-cont>
0.603221504

>  <pka_cont>
0.97

>  <yes.1>


>  <BBB_SCORE>
4.354515771

>  <MMFF94 Energy>
103.63

$$$$
Compound 661
Actelion Java MolfileCreator 2.0

  0  0  0  0  0  0              0 V3000
M  V30 BEGIN CTAB
M  V30 COUNTS 42 45 0 0 0
M  V30 BEGIN ATOM
M  V30 1 S 1.0488 -2.0177 3.4724 0
M  V30 2 C 0.1349 -1.6064 2.0734 0
M  V30 3 C 1.693 -0.4517 3.6168 0
M  V30 4 N -0.6952 -2.5449 1.5787 0
M  V30 5 C 0.3941 -0.3217 1.6429 0
M  V30 6 C 1.2631 0.3518 2.587 0
M  V30 7 C 2.5994 -0.1119 4.7474 0
M  V30 8 C -1.794 -2.3378 0.7277 0
M  V30 9 C -0.1259 0.278 0.4183 0
M  V30 10 C -2.019 -1.1846 -0.0435 0
M  V30 11 C -2.7664 -3.3665 0.7032 0
M  V30 12 N -1.1598 -0.1027 -0.2593 0
M  V30 13 N 0.6106 1.3803 0.0017 0
M  V30 14 C -3.209 -1.1052 -0.7956 0
M  V30 15 C -3.9361 -3.2635 -0.0492 0
M  V30 16 C -0.069 2.482 -0.6995 0
M  V30 17 C 1.9989 1.2063 -0.464 0
M  V30 18 C -4.1617 -2.1231 -0.7999 0
M  V30 19 C -0.0125 2.28 -2.2299 0
M  V30 20 C 2.029 1.0067 -1.9972 0
M  V30 21 N 1.3773 2.1214 -2.7234 0
M  V30 22 C 1.3804 1.8661 -4.1626 0
M  V30 23 H -0.6561 -3.4636 2.0035 0
M  V30 24 H 1.5646 1.388 2.4852 0
M  V30 25 H 2.9188 0.934 4.6922 0
M  V30 26 H 2.0942 -0.2567 5.7082 0
M  V30 27 H 3.4978 -0.7374 4.727 0
M  V30 28 H -2.6196 -4.2663 1.2968 0
M  V30 29 H -3.3816 -0.2204 -1.4055 0
M  V30 30 H -4.6647 -4.0693 -0.0412 0
M  V30 31 H -1.1101 2.5754 -0.368 0
M  V30 32 H 0.4265 3.4248 -0.4357 0
M  V30 33 H 2.58 2.0964 -0.1928 0
M  V30 34 H 2.4852 0.3494 0.0147 0
M  V30 35 H -5.065 -2.022 -1.3944 0
M  V30 36 H -0.4676 3.156 -2.7074 0
M  V30 37 H -0.616 1.4061 -2.507 0
M  V30 38 H 3.0767 0.9323 -2.3118 0
M  V30 39 H 1.5413 0.0539 -2.244 0
M  V30 40 H 0.9223 2.7031 -4.7008 0
M  V30 41 H 2.4076 1.7776 -4.5331 0
M  V30 42 H 0.8393 0.9499 -4.4251 0
M  V30 END ATOM
M  V30 BEGIN BOND
M  V30 1 1 1 2
M  V30 2 1 1 3
M  V30 3 1 2 4
M  V30 4 2 2 5
M  V30 5 2 3 6
M  V30 6 1 3 7
M  V30 7 1 4 8
M  V30 8 1 5 9
M  V30 9 2 8 10
M  V30 10 1 8 11
M  V30 11 2 9 12
M  V30 12 1 9 13
M  V30 13 1 10 14
M  V30 14 2 11 15
M  V30 15 1 13 16
M  V30 16 1 13 17
M  V30 17 2 14 18
M  V30 18 1 16 19
M  V30 19 1 17 20
M  V30 20 1 19 21
M  V30 21 1 21 22
M  V30 22 1 5 6
M  V30 23 1 10 12
M  V30 24 1 15 18
M  V30 25 1 20 21
M  V30 26 1 4 23
M  V30 27 1 6 24
M  V30 28 1 7 25
M  V30 29 1 7 26
M  V30 30 1 7 27
M  V30 31 1 11 28
M  V30 32 1 14 29
M  V30 33 1 15 30
M  V30 34 1 16 31
M  V30 35 1 16 32
M  V30 36 1 17 33
M  V30 37 1 17 34
M  V30 38 1 18 35
M  V30 39 1 19 36
M  V30 40 1 19 37
M  V30 41 1 20 38
M  V30 42 1 20 39
M  V30 43 1 22 40
M  V30 44 1 22 41
M  V30 45 1 22 42
M  V30 END BOND
M  V30 END CTAB
M  END
>  <Column 1>
797

>  <level_0>
911

>  <index>
911

>  <Unnamed: 0>
911

>  <NO.>
923

>  <Name>
olanzapine

>  <IUPAC_name>
2-methyl-4-(4-methylpiperazin-1-yl)-10h-thieno[2-3-b][1-5]benzodiazepine

>  <SMILES>
Cc1cc2c(s1)Nc1ccccc1N=C2N1CCN(C)CC1

>  <CID>
135398745

>  <logBB>
0.8

>  <BBB+/BBB->
BBB+

>  <Inchi>
InChI=1S/C17H20N4S/c1-12-11-13-16(21-9-7-20(2)8-10-21)18-14-5-3-4-6-15(14)19-17(13)22-12/h3-6-11-19H-7-10H2-1-2H3

>  <threshold>


>  <reference>
R18|R26|R27|R8|R2|R2|R2|R2|R27|R40|R3|R25|R27|R38|R41|R43|R46|R47|R42|

>  <group>
A

>  <Class>
1

>  <ABC>
17.73

>  <ABCGG>
13.93

>  <nAcid>
0

>  <nBase>
3

>  <nAromAtom>
11

>  <nAromBond>
11

>  <nAtom>
42

>  <nHeavyAtom>
22

>  <nSpiro>
0

>  <nBridgehead>
0

>  <nHetero>
5

>  <nN>
4

>  <nO>
0

>  <nF>
0

>  <BalabanJ>
1.54

>  <BertzCT>
726.01

>  <nBonds>
45

>  <nBondsO>
25

>  <nBondsS>
33

>  <nBondsD>
1

>  <nBondsT>
0

>  <nBondsA>
11

>  <nBondsM>
12

>  <nBondsKS>
39

>  <nBondsKD>
6

>  <RNCG>
0.22

>  <RPCG>
0.1

>  <FCSP3>
0.35

>  <SZ>
27.67

>  <Sm>
26.01

>  <Sv>
26.64

>  <Sse>
41.61

>  <Sp>
29.36

>  <Si>
47.24

>  <MZ>
0.66

>  <Mm>
0.62

>  <Mv>
0.63

>  <Mse>
0.99

>  <Mp>
0.7

>  <Mi>
1.12

>  <NsCH3>
2

>  <NdCH2>
0

>  <NssCH2>
4

>  <NtCH>
0

>  <NdsCH>
0

>  <NaaCH>
5

>  <NsssCH>
0

>  <NddC>
0

>  <NtsC>
0

>  <NdssC>
1

>  <NaasC>
5

>  <NaaaC>
0

>  <NssssC>
0

>  <NsNH3>
0

>  <NsNH2>
0

>  <NssNH2>
0

>  <NdNH>
0

>  <NssNH>
1

>  <NaaNH>
0

>  <NtN>
0

>  <NsssNH>
0

>  <NdsN>
1

>  <NaaN>
0

>  <NsssN>
2

>  <NddsN>
0

>  <NaasN>
0

>  <NssssN>
0

>  <NsOH>
0

>  <NdO>
0

>  <NssO>
0

>  <NaaO>
0

>  <NsF>
0

>  <NsSiH3>
0

>  <NssSiH2>
0

>  <NsssSiH>
0

>  <NssssSi>
0

>  <NsPH2>
0

>  <NssPH>
0

>  <NsssP>
0

>  <NdsssP>
0

>  <NsssssP>
0

>  <NsSH>
0

>  <NdS>
0

>  <NssS>
0

>  <NaaS>
1

>  <NdssS>
0

>  <NddssS>
0

>  <NsCl>
0

>  <NsBr>
0

>  <NsI>
0

>  <fragCpx>
163.05

>  <fMF>
0.48

>  <nHBAcc>
5

>  <nHBDon>
1

>  <Kier1>
15.52

>  <Kier2>
6.48

>  <Lipinski>
1

>  <GhoseFilter>
1

>  <FilterItLogS>
-4.32

>  <VMcGowan>
237.42

>  <LabuteASA>
134.64

>  <PEOE_VSA1>
15.12

>  <PEOE_VSA2>
0

>  <PEOE_VSA3>
4.99

>  <PEOE_VSA4>
0

>  <PEOE_VSA5>
11.34

>  <PEOE_VSA6>
12.13

>  <PEOE_VSA7>
32.17

>  <PEOE_VSA8>
31.06

>  <PEOE_VSA9>
16.94

>  <PEOE_VSA10>
10.84

>  <PEOE_VSA11>
0

>  <PEOE_VSA12>
0

>  <PEOE_VSA13>
0

>  <SMR_VSA1>
0

>  <SMR_VSA2>
0

>  <SMR_VSA3>
9.8

>  <SMR_VSA4>
4.99

>  <SMR_VSA5>
6.92

>  <SMR_VSA6>
38.54

>  <SMR_VSA7>
40.77

>  <SMR_VSA8>
0

>  <SMR_VSA9>
0

>  <SlogP_VSA1>
5.32

>  <SlogP_VSA2>
48.86

>  <SlogP_VSA3>
0

>  <SlogP_VSA4>
6.92

>  <SlogP_VSA5>
10.44

>  <SlogP_VSA6>
35.32

>  <SlogP_VSA7>
0

>  <SlogP_VSA8>
0

>  <SlogP_VSA9>
0

>  <SlogP_VSA10>
16.38

>  <SlogP_VSA11>
0

>  <EState_VSA1>
0

>  <EState_VSA2>
0

>  <EState_VSA3>
0

>  <EState_VSA4>
43.39

>  <EState_VSA5>
15.44

>  <EState_VSA6>
11.34

>  <EState_VSA7>
0

>  <EState_VSA8>
59.42

>  <EState_VSA9>
4.99

>  <EState_VSA10>
0

>  <VSA_EState1>
0

>  <VSA_EState2>
11.13

>  <VSA_EState3>
4.78

>  <VSA_EState4>
3.36

>  <VSA_EState5>
1.12

>  <VSA_EState6>
10.56

>  <VSA_EState7>
0

>  <VSA_EState8>
6.41

>  <VSA_EState9>
2.18

>  <apol>
49.03

>  <bpol>
27.65

>  <nRing>
4

>  <nHRing>
3

>  <naRing>
2

>  <naHRing>
1

>  <nARing 2>
2

>  <nAHRing 2>
2

>  <nFRing>
1

>  <nFHRing>
1

>  <nFaRing>
0

>  <nFaHRing>
0

>  <nFARing 2>
1

>  <nFAHRing 2>
1

>  <nRot>
0

>  <SLogP>
3.44

>  <SMR>
94.05

>  <TopoPSA(NO)>
30.87

>  <TopoPSA>
59.11

>  <JGI1>
0.18

>  <JGI2>
0.07

>  <JGI3>
0.04

>  <JGI4>
0.04

>  <JGI5>
0.02

>  <Diameter>
10

>  <Radius>
5

>  <TMWC10>
122.43

>  <TSRW10>
70.73

>  <MW>
312.14

>  <AMW>
7.43

>  <WPath>
958

>  <WPol>
38

>  <Zagreb1>
122

>  <Zagreb2>
146

>  <mZagreb2>
4.69

>  <yes>


>  <nAR-cont>
1

>  <nHA-cont>
0.983774276

>  <MWHBN>
0.339606925

>  <MWHBN-cont>
0.70855982

>  <TPSA-cont>
0.587375495

>  <pka_cont>
0.97

>  <yes.1>


>  <BBB_SCORE>
4.706364996

>  <MMFF94 Energy>
94.607

$$$$
Compound 662
Actelion Java MolfileCreator 2.0

  0  0  0  0  0  0              0 V3000
M  V30 BEGIN CTAB
M  V30 COUNTS 23 22 0 0 0
M  V30 BEGIN ATOM
M  V30 1 C -0.1516 -0.455 0.3033 0
M  V30 2 C 1.0455 0.4441 0.6158 0
M  V30 3 C -0.9099 0.0369 -0.9305 0
M  V30 4 C 1.8031 -0.0475 1.8489 0
M  V30 5 C -2.1063 -0.8616 -1.2426 0
M  V30 6 C 2.9941 0.8436 2.163 0
M  V30 7 C -2.8629 -0.3759 -2.4686 0
M  V30 8 H -0.8289 -0.4777 1.1657 0
M  V30 9 H 0.1941 -1.4823 0.1365 0
M  V30 10 H 0.6998 1.4716 0.7826 0
M  V30 11 H 1.7228 0.4671 -0.2464 0
M  V30 12 H -0.2328 0.0599 -1.793 0
M  V30 13 H -1.2558 1.0644 -0.7639 0
M  V30 14 H 1.1315 -0.0684 2.7151 0
M  V30 15 H 2.1544 -1.0729 1.6859 0
M  V30 16 H -1.7657 -1.8892 -1.4141 0
M  V30 17 H -2.7887 -0.8847 -0.385 0
M  V30 18 H 3.5212 0.4738 3.048 0
M  V30 19 H 3.702 0.8609 1.3283 0
M  V30 20 H 2.6734 1.871 2.3632 0
M  V30 21 H -3.7141 -1.0327 -2.6735 0
M  V30 22 H -3.2454 0.6385 -2.3172 0
M  V30 23 H -2.2167 -0.3715 -3.3521 0
M  V30 END ATOM
M  V30 BEGIN BOND
M  V30 1 1 1 2
M  V30 2 1 1 3
M  V30 3 1 2 4
M  V30 4 1 3 5
M  V30 5 1 4 6
M  V30 6 1 5 7
M  V30 7 1 1 8
M  V30 8 1 1 9
M  V30 9 1 2 10
M  V30 10 1 2 11
M  V30 11 1 3 12
M  V30 12 1 3 13
M  V30 13 1 4 14
M  V30 14 1 4 15
M  V30 15 1 5 16
M  V30 16 1 5 17
M  V30 17 1 6 18
M  V30 18 1 6 19
M  V30 19 1 6 20
M  V30 20 1 7 21
M  V30 21 1 7 22
M  V30 22 1 7 23
M  V30 END BOND
M  V30 END CTAB
M  END
>  <Column 1>
798

>  <level_0>
912

>  <index>
912

>  <Unnamed: 0>
912

>  <NO.>
924

>  <Name>
heptane

>  <IUPAC_name>
heptane

>  <SMILES>
CCCCCCC

>  <CID>
8900

>  <logBB>
0.8

>  <BBB+/BBB->
BBB+

>  <Inchi>
InChI=1S/C7H16/c1-3-5-7-6-4-2/h3-7H2-1-2H3

>  <threshold>


>  <reference>
R3|R38|R41|R40|R8|R21|R27|R2|R2|R27|R5|R11|R12|R17|R20|R22|R25|R32|R33|R35|R36|R39|R43|R44|R44|R46|R47|R48|R49|

>  <group>
A

>  <Class>
1

>  <ABC>
4.24

>  <ABCGG>
4.53

>  <nAcid>
0

>  <nBase>
0

>  <nAromAtom>
0

>  <nAromBond>
0

>  <nAtom>
23

>  <nHeavyAtom>
7

>  <nSpiro>
0

>  <nBridgehead>
0

>  <nHetero>
0

>  <nN>
0

>  <nO>
0

>  <nF>
0

>  <BalabanJ>
2.45

>  <BertzCT>
19.22

>  <nBonds>
22

>  <nBondsO>
6

>  <nBondsS>
22

>  <nBondsD>
0

>  <nBondsT>
0

>  <nBondsA>
0

>  <nBondsM>
0

>  <nBondsKS>
22

>  <nBondsKD>
0

>  <RNCG>
0.16

>  <RPCG>
0.07

>  <FCSP3>
1

>  <SZ>
9.67

>  <Sm>
8.34

>  <Sv>
11.33

>  <Sse>
22.1

>  <Sp>
13.39

>  <Si>
26.32

>  <MZ>
0.42

>  <Mm>
0.36

>  <Mv>
0.49

>  <Mse>
0.96

>  <Mp>
0.58

>  <Mi>
1.14

>  <NsCH3>
2

>  <NdCH2>
0

>  <NssCH2>
5

>  <NtCH>
0

>  <NdsCH>
0

>  <NaaCH>
0

>  <NsssCH>
0

>  <NddC>
0

>  <NtsC>
0

>  <NdssC>
0

>  <NaasC>
0

>  <NaaaC>
0

>  <NssssC>
0

>  <NsNH3>
0

>  <NsNH2>
0

>  <NssNH2>
0

>  <NdNH>
0

>  <NssNH>
0

>  <NaaNH>
0

>  <NtN>
0

>  <NsssNH>
0

>  <NdsN>
0

>  <NaaN>
0

>  <NsssN>
0

>  <NddsN>
0

>  <NaasN>
0

>  <NssssN>
0

>  <NsOH>
0

>  <NdO>
0

>  <NssO>
0

>  <NaaO>
0

>  <NsF>
0

>  <NsSiH3>
0

>  <NssSiH2>
0

>  <NsssSiH>
0

>  <NssssSi>
0

>  <NsPH2>
0

>  <NssPH>
0

>  <NsssP>
0

>  <NdsssP>
0

>  <NsssssP>
0

>  <NsSH>
0

>  <NdS>
0

>  <NssS>
0

>  <NaaS>
0

>  <NdssS>
0

>  <NddssS>
0

>  <NsCl>
0

>  <NsBr>
0

>  <NsI>
0

>  <fragCpx>
6

>  <fMF>
0

>  <nHBAcc>
0

>  <nHBDon>
0

>  <Kier1>
7

>  <Kier2>
6

>  <Lipinski>
1

>  <GhoseFilter>
0

>  <FilterItLogS>
-2.6

>  <VMcGowan>
109.49

>  <LabuteASA>
46.93

>  <PEOE_VSA1>
0

>  <PEOE_VSA2>
0

>  <PEOE_VSA3>
0

>  <PEOE_VSA4>
0

>  <PEOE_VSA5>
0

>  <PEOE_VSA6>
45.95

>  <PEOE_VSA7>
0

>  <PEOE_VSA8>
0

>  <PEOE_VSA9>
0

>  <PEOE_VSA10>
0

>  <PEOE_VSA11>
0

>  <PEOE_VSA12>
0

>  <PEOE_VSA13>
0

>  <SMR_VSA1>
0

>  <SMR_VSA2>
0

>  <SMR_VSA3>
0

>  <SMR_VSA4>
0

>  <SMR_VSA5>
45.95

>  <SMR_VSA6>
0

>  <SMR_VSA7>
0

>  <SMR_VSA8>
0

>  <SMR_VSA9>
0

>  <SlogP_VSA1>
0

>  <SlogP_VSA2>
0

>  <SlogP_VSA3>
0

>  <SlogP_VSA4>
0

>  <SlogP_VSA5>
45.95

>  <SlogP_VSA6>
0

>  <SlogP_VSA7>
0

>  <SlogP_VSA8>
0

>  <SlogP_VSA9>
0

>  <SlogP_VSA10>
0

>  <SlogP_VSA11>
0

>  <EState_VSA1>
0

>  <EState_VSA2>
0

>  <EState_VSA3>
0

>  <EState_VSA4>
0

>  <EState_VSA5>
32.1

>  <EState_VSA6>
0

>  <EState_VSA7>
0

>  <EState_VSA8>
13.85

>  <EState_VSA9>
0

>  <EState_VSA10>
0

>  <VSA_EState1>
0

>  <VSA_EState2>
0

>  <VSA_EState3>
0

>  <VSA_EState4>
0

>  <VSA_EState5>
0

>  <VSA_EState6>
0

>  <VSA_EState7>
7.01

>  <VSA_EState8>
4.49

>  <VSA_EState9>
0

>  <apol>
22.36

>  <bpol>
16.05

>  <nRing>
0

>  <nHRing>
0

>  <naRing>
0

>  <naHRing>
0

>  <nARing 2>
0

>  <nAHRing 2>
0

>  <nFRing>
0

>  <nFHRing>
0

>  <nFaRing>
0

>  <nFaHRing>
0

>  <nFARing 2>
0

>  <nFAHRing 2>
0

>  <nRot>
4

>  <SLogP>
2.98

>  <SMR>
34.43

>  <TopoPSA(NO)>
0

>  <TopoPSA>
0

>  <JGI1>
0.08

>  <JGI2>
0.04

>  <JGI3>
0.03

>  <JGI4>
0.03

>  <JGI5>
0.03

>  <Diameter>
6

>  <Radius>
3

>  <TMWC10>
62.87

>  <TSRW10>
30.26

>  <MW>
100.13

>  <AMW>
4.35

>  <WPath>
56

>  <WPol>
4

>  <Zagreb1>
22

>  <Zagreb2>
20

>  <mZagreb2>
2

>  <yes>


>  <nAR-cont>
0.336376

>  <nHA-cont>
0.357561384

>  <MWHBN>
0

>  <MWHBN-cont>
0

>  <TPSA-cont>
0

>  <pka_cont>
0.97

>  <yes.1>


>  <BBB_SCORE>
1.178937384

>  <MMFF94 Energy>
-5.6797

$$$$
Compound 663
Actelion Java MolfileCreator 2.0

  0  0  0  0  0  0              0 V3000
M  V30 BEGIN CTAB
M  V30 COUNTS 17 16 0 0 0
M  V30 BEGIN ATOM
M  V30 1 C -0.1503 0.0 0.3007 0
M  V30 2 C 1.2865 0.4968 0.1433 0
M  V30 3 C -0.7723 -0.3404 -1.0533 0
M  V30 4 C 1.909 0.8367 1.4882 0
M  V30 5 C -2.202 -0.8351 -0.9011 0
M  V30 6 H -0.7528 0.7695 0.7989 0
M  V30 7 H -0.1639 -0.8876 0.9451 0
M  V30 8 H 1.894 -0.2705 -0.3503 0
M  V30 9 H 1.3049 1.3868 -0.4965 0
M  V30 10 H -0.7652 0.545 -1.6996 0
M  V30 11 H -0.1761 -1.1123 -1.5535 0
M  V30 12 H 2.936 1.1897 1.3521 0
M  V30 13 H 1.3429 1.6252 1.9946 0
M  V30 14 H 1.9352 -0.0413 2.1415 0
M  V30 15 H -2.6272 -1.0726 -1.8812 0
M  V30 16 H -2.2408 -1.7396 -0.2856 0
M  V30 17 H -2.8332 -0.073 -0.4326 0
M  V30 END ATOM
M  V30 BEGIN BOND
M  V30 1 1 1 2
M  V30 2 1 1 3
M  V30 3 1 2 4
M  V30 4 1 3 5
M  V30 5 1 1 6
M  V30 6 1 1 7
M  V30 7 1 2 8
M  V30 8 1 2 9
M  V30 9 1 3 10
M  V30 10 1 3 11
M  V30 11 1 4 12
M  V30 12 1 4 13
M  V30 13 1 4 14
M  V30 14 1 5 15
M  V30 15 1 5 16
M  V30 16 1 5 17
M  V30 END BOND
M  V30 END CTAB
M  END
>  <Column 1>
799

>  <level_0>
913

>  <index>
913

>  <Unnamed: 0>
913

>  <NO.>
925

>  <Name>
pentane

>  <IUPAC_name>
pentane

>  <SMILES>
CCCCC

>  <CID>
8003

>  <logBB>
0.8

>  <BBB+/BBB->
BBB+

>  <Inchi>
InChI=1S/C5H12/c1-3-5-4-2/h3-5H2-1-2H3

>  <threshold>


>  <reference>
R41|R3|R38|R40|R8|R21|R27|R2|R2|R27|R11|R12|R17|R18|R22|R25|R26|R27|R32|R33|R35|R36|R39|R43|R44|R46|R47|R48|R49|R5|

>  <group>
A

>  <Class>
1

>  <ABC>
2.83

>  <ABCGG>
3.15

>  <nAcid>
0

>  <nBase>
0

>  <nAromAtom>
0

>  <nAromBond>
0

>  <nAtom>
17

>  <nHeavyAtom>
5

>  <nSpiro>
0

>  <nBridgehead>
0

>  <nHetero>
0

>  <nN>
0

>  <nO>
0

>  <nF>
0

>  <BalabanJ>
2.19

>  <BertzCT>
7.51

>  <nBonds>
16

>  <nBondsO>
4

>  <nBondsS>
16

>  <nBondsD>
0

>  <nBondsT>
0

>  <nBondsA>
0

>  <nBondsM>
0

>  <nBondsKS>
16

>  <nBondsKD>
0

>  <RNCG>
0.22

>  <RPCG>
0.09

>  <FCSP3>
1

>  <SZ>
7

>  <Sm>
6.01

>  <Sv>
8.25

>  <Sse>
16.33

>  <Sp>
9.79

>  <Si>
19.49

>  <MZ>
0.41

>  <Mm>
0.35

>  <Mv>
0.49

>  <Mse>
0.96

>  <Mp>
0.58

>  <Mi>
1.15

>  <NsCH3>
2

>  <NdCH2>
0

>  <NssCH2>
3

>  <NtCH>
0

>  <NdsCH>
0

>  <NaaCH>
0

>  <NsssCH>
0

>  <NddC>
0

>  <NtsC>
0

>  <NdssC>
0

>  <NaasC>
0

>  <NaaaC>
0

>  <NssssC>
0

>  <NsNH3>
0

>  <NsNH2>
0

>  <NssNH2>
0

>  <NdNH>
0

>  <NssNH>
0

>  <NaaNH>
0

>  <NtN>
0

>  <NsssNH>
0

>  <NdsN>
0

>  <NaaN>
0

>  <NsssN>
0

>  <NddsN>
0

>  <NaasN>
0

>  <NssssN>
0

>  <NsOH>
0

>  <NdO>
0

>  <NssO>
0

>  <NaaO>
0

>  <NsF>
0

>  <NsSiH3>
0

>  <NssSiH2>
0

>  <NsssSiH>
0

>  <NssssSi>
0

>  <NsPH2>
0

>  <NssPH>
0

>  <NsssP>
0

>  <NdsssP>
0

>  <NsssssP>
0

>  <NsSH>
0

>  <NdS>
0

>  <NssS>
0

>  <NaaS>
0

>  <NdssS>
0

>  <NddssS>
0

>  <NsCl>
0

>  <NsBr>
0

>  <NsI>
0

>  <fragCpx>
4

>  <fMF>
0

>  <nHBAcc>
0

>  <nHBDon>
0

>  <Kier1>
5

>  <Kier2>
4

>  <Lipinski>
1

>  <GhoseFilter>
0

>  <FilterItLogS>
-1.73

>  <VMcGowan>
81.31

>  <LabuteASA>
34.2

>  <PEOE_VSA1>
0

>  <PEOE_VSA2>
0

>  <PEOE_VSA3>
0

>  <PEOE_VSA4>
0

>  <PEOE_VSA5>
0

>  <PEOE_VSA6>
33.11

>  <PEOE_VSA7>
0

>  <PEOE_VSA8>
0

>  <PEOE_VSA9>
0

>  <PEOE_VSA10>
0

>  <PEOE_VSA11>
0

>  <PEOE_VSA12>
0

>  <PEOE_VSA13>
0

>  <SMR_VSA1>
0

>  <SMR_VSA2>
0

>  <SMR_VSA3>
0

>  <SMR_VSA4>
0

>  <SMR_VSA5>
33.11

>  <SMR_VSA6>
0

>  <SMR_VSA7>
0

>  <SMR_VSA8>
0

>  <SMR_VSA9>
0

>  <SlogP_VSA1>
0

>  <SlogP_VSA2>
0

>  <SlogP_VSA3>
0

>  <SlogP_VSA4>
0

>  <SlogP_VSA5>
33.11

>  <SlogP_VSA6>
0

>  <SlogP_VSA7>
0

>  <SlogP_VSA8>
0

>  <SlogP_VSA9>
0

>  <SlogP_VSA10>
0

>  <SlogP_VSA11>
0

>  <EState_VSA1>
0

>  <EState_VSA2>
0

>  <EState_VSA3>
0

>  <EState_VSA4>
0

>  <EState_VSA5>
19.26

>  <EState_VSA6>
0

>  <EState_VSA7>
0

>  <EState_VSA8>
13.85

>  <EState_VSA9>
0

>  <EState_VSA10>
0

>  <VSA_EState1>
0

>  <VSA_EState2>
0

>  <VSA_EState3>
0

>  <VSA_EState4>
0

>  <VSA_EState5>
0

>  <VSA_EState6>
0

>  <VSA_EState7>
4.08

>  <VSA_EState8>
4.42

>  <VSA_EState9>
0

>  <apol>
16.35

>  <bpol>
12.04

>  <nRing>
0

>  <nHRing>
0

>  <naRing>
0

>  <naHRing>
0

>  <nARing 2>
0

>  <nAHRing 2>
0

>  <nFRing>
0

>  <nFHRing>
0

>  <nFaRing>
0

>  <nFaHRing>
0

>  <nFARing 2>
0

>  <nFAHRing 2>
0

>  <nRot>
2

>  <SLogP>
2.2

>  <SMR>
25.2

>  <TopoPSA(NO)>
0

>  <TopoPSA>
0

>  <JGI1>
0.13

>  <JGI2>
0.07

>  <JGI3>
0.06

>  <JGI4>
0

>  <JGI5>
0

>  <Diameter>
4

>  <Radius>
2

>  <TMWC10>
52.65

>  <TSRW10>
25.58

>  <MW>
72.09

>  <AMW>
4.24

>  <WPath>
20

>  <WPol>
2

>  <Zagreb1>
14

>  <Zagreb2>
12

>  <mZagreb2>
1.5

>  <yes>


>  <nAR-cont>
0.336376

>  <nHA-cont>
0

>  <MWHBN>
0

>  <MWHBN-cont>
0

>  <TPSA-cont>
0

>  <pka_cont>
0.97

>  <yes.1>


>  <BBB_SCORE>
0.821376

>  <MMFF94 Energy>
-5.2718

$$$$
Compound 664
Actelion Java MolfileCreator 2.0

  0  0  0  0  0  0              0 V3000
M  V30 BEGIN CTAB
M  V30 COUNTS 20 19 0 0 0
M  V30 BEGIN ATOM
M  V30 1 C -0.529 -0.3022 -0.907 0
M  V30 2 C 0.6757 0.59 -0.5951 0
M  V30 3 C -1.6282 -0.2319 0.1537 0
M  V30 4 C 1.4534 0.1493 0.6454 0
M  V30 5 C -2.8469 -1.0448 -0.2562 0
M  V30 6 C 2.7012 0.9958 0.847 0
M  V30 7 H -0.1964 -1.3403 -1.0281 0
M  V30 8 H -0.9441 0.0103 -1.8733 0
M  V30 9 H 0.3432 1.6283 -0.4749 0
M  V30 10 H 1.3469 0.5726 -1.4629 0
M  V30 11 H -1.2591 -0.6142 1.1112 0
M  V30 12 H -1.9284 0.8104 0.3114 0
M  V30 13 H 0.8258 0.2338 1.5389 0
M  V30 14 H 1.745 -0.9027 0.5487 0
M  V30 15 H -3.6198 -0.9847 0.5164 0
M  V30 16 H -3.2729 -0.6691 -1.192 0
M  V30 17 H -2.5863 -2.0988 -0.3952 0
M  V30 18 H 3.2413 0.6677 1.7405 0
M  V30 19 H 3.3774 0.9087 -0.0093 0
M  V30 20 H 2.4421 2.0518 0.9749 0
M  V30 END ATOM
M  V30 BEGIN BOND
M  V30 1 1 1 2
M  V30 2 1 1 3
M  V30 3 1 2 4
M  V30 4 1 3 5
M  V30 5 1 4 6
M  V30 6 1 1 7
M  V30 7 1 1 8
M  V30 8 1 2 9
M  V30 9 1 2 10
M  V30 10 1 3 11
M  V30 11 1 3 12
M  V30 12 1 4 13
M  V30 13 1 4 14
M  V30 14 1 5 15
M  V30 15 1 5 16
M  V30 16 1 5 17
M  V30 17 1 6 18
M  V30 18 1 6 19
M  V30 19 1 6 20
M  V30 END BOND
M  V30 END CTAB
M  END
>  <Column 1>
800

>  <level_0>
914

>  <index>
914

>  <Unnamed: 0>
914

>  <NO.>
926

>  <Name>
n-hexane

>  <IUPAC_name>
hexane

>  <SMILES>
CCCCCC

>  <CID>
8058

>  <logBB>
0.8

>  <BBB+/BBB->
BBB+

>  <Inchi>
InChI=1S/C6H14/c1-3-5-6-4-2/h3-6H2-1-2H3

>  <threshold>


>  <reference>
R3|R38|R41|R40|R8|R21|R27|R2|R2|R27|R5|R11|R12|R17|R22|R25|R32|R33|R35|R36|R39|R43|R44|R44|R46|R47|R48|R49|R18|R26|R27|

>  <group>
A

>  <Class>
1

>  <ABC>
3.54

>  <ABCGG>
3.87

>  <nAcid>
0

>  <nBase>
0

>  <nAromAtom>
0

>  <nAromBond>
0

>  <nAtom>
20

>  <nHeavyAtom>
6

>  <nSpiro>
0

>  <nBridgehead>
0

>  <nHetero>
0

>  <nN>
0

>  <nO>
0

>  <nF>
0

>  <BalabanJ>
2.34

>  <BertzCT>
12

>  <nBonds>
19

>  <nBondsO>
5

>  <nBondsS>
19

>  <nBondsD>
0

>  <nBondsT>
0

>  <nBondsA>
0

>  <nBondsM>
0

>  <nBondsKS>
19

>  <nBondsKD>
0

>  <RNCG>
0.19

>  <RPCG>
0.08

>  <FCSP3>
1

>  <SZ>
8.33

>  <Sm>
7.17

>  <Sv>
9.79

>  <Sse>
19.21

>  <Sp>
11.59

>  <Si>
22.91

>  <MZ>
0.42

>  <Mm>
0.36

>  <Mv>
0.49

>  <Mse>
0.96

>  <Mp>
0.58

>  <Mi>
1.15

>  <NsCH3>
2

>  <NdCH2>
0

>  <NssCH2>
4

>  <NtCH>
0

>  <NdsCH>
0

>  <NaaCH>
0

>  <NsssCH>
0

>  <NddC>
0

>  <NtsC>
0

>  <NdssC>
0

>  <NaasC>
0

>  <NaaaC>
0

>  <NssssC>
0

>  <NsNH3>
0

>  <NsNH2>
0

>  <NssNH2>
0

>  <NdNH>
0

>  <NssNH>
0

>  <NaaNH>
0

>  <NtN>
0

>  <NsssNH>
0

>  <NdsN>
0

>  <NaaN>
0

>  <NsssN>
0

>  <NddsN>
0

>  <NaasN>
0

>  <NssssN>
0

>  <NsOH>
0

>  <NdO>
0

>  <NssO>
0

>  <NaaO>
0

>  <NsF>
0

>  <NsSiH3>
0

>  <NssSiH2>
0

>  <NsssSiH>
0

>  <NssssSi>
0

>  <NsPH2>
0

>  <NssPH>
0

>  <NsssP>
0

>  <NdsssP>
0

>  <NsssssP>
0

>  <NsSH>
0

>  <NdS>
0

>  <NssS>
0

>  <NaaS>
0

>  <NdssS>
0

>  <NddssS>
0

>  <NsCl>
0

>  <NsBr>
0

>  <NsI>
0

>  <fragCpx>
5

>  <fMF>
0

>  <nHBAcc>
0

>  <nHBDon>
0

>  <Kier1>
6

>  <Kier2>
5

>  <Lipinski>
1

>  <GhoseFilter>
0

>  <FilterItLogS>
-2.17

>  <VMcGowan>
95.4

>  <LabuteASA>
40.56

>  <PEOE_VSA1>
0

>  <PEOE_VSA2>
0

>  <PEOE_VSA3>
0

>  <PEOE_VSA4>
0

>  <PEOE_VSA5>
0

>  <PEOE_VSA6>
39.53

>  <PEOE_VSA7>
0

>  <PEOE_VSA8>
0

>  <PEOE_VSA9>
0

>  <PEOE_VSA10>
0

>  <PEOE_VSA11>
0

>  <PEOE_VSA12>
0

>  <PEOE_VSA13>
0

>  <SMR_VSA1>
0

>  <SMR_VSA2>
0

>  <SMR_VSA3>
0

>  <SMR_VSA4>
0

>  <SMR_VSA5>
39.53

>  <SMR_VSA6>
0

>  <SMR_VSA7>
0

>  <SMR_VSA8>
0

>  <SMR_VSA9>
0

>  <SlogP_VSA1>
0

>  <SlogP_VSA2>
0

>  <SlogP_VSA3>
0

>  <SlogP_VSA4>
0

>  <SlogP_VSA5>
39.53

>  <SlogP_VSA6>
0

>  <SlogP_VSA7>
0

>  <SlogP_VSA8>
0

>  <SlogP_VSA9>
0

>  <SlogP_VSA10>
0

>  <SlogP_VSA11>
0

>  <EState_VSA1>
0

>  <EState_VSA2>
0

>  <EState_VSA3>
0

>  <EState_VSA4>
0

>  <EState_VSA5>
25.68

>  <EState_VSA6>
0

>  <EState_VSA7>
0

>  <EState_VSA8>
13.85

>  <EState_VSA9>
0

>  <EState_VSA10>
0

>  <VSA_EState1>
0

>  <VSA_EState2>
0

>  <VSA_EState3>
0

>  <VSA_EState4>
0

>  <VSA_EState5>
0

>  <VSA_EState6>
0

>  <VSA_EState7>
5.54

>  <VSA_EState8>
4.46

>  <VSA_EState9>
0

>  <apol>
19.36

>  <bpol>
14.04

>  <nRing>
0

>  <nHRing>
0

>  <naRing>
0

>  <naHRing>
0

>  <nARing 2>
0

>  <nAHRing 2>
0

>  <nFRing>
0

>  <nFHRing>
0

>  <nFaRing>
0

>  <nFaHRing>
0

>  <nFARing 2>
0

>  <nFAHRing 2>
0

>  <nRot>
3

>  <SLogP>
2.59

>  <SMR>
29.82

>  <TopoPSA(NO)>
0

>  <TopoPSA>
0

>  <JGI1>
0.1

>  <JGI2>
0.06

>  <JGI3>
0.04

>  <JGI4>
0.04

>  <JGI5>
0

>  <Diameter>
5

>  <Radius>
3

>  <TMWC10>
58.25

>  <TSRW10>
28.11

>  <MW>
86.11

>  <AMW>
4.31

>  <WPath>
35

>  <WPol>
3

>  <Zagreb1>
18

>  <Zagreb2>
16

>  <mZagreb2>
1.75

>  <yes>


>  <nAR-cont>
0.336376

>  <nHA-cont>
0.238778273

>  <MWHBN>
0

>  <MWHBN-cont>
0

>  <TPSA-cont>
0

>  <pka_cont>
0.97

>  <yes.1>


>  <BBB_SCORE>
1.060154273

>  <MMFF94 Energy>
-4.5929

$$$$
Compound 665
Actelion Java MolfileCreator 2.0

  0  0  0  0  0  0              0 V3000
M  V30 BEGIN CTAB
M  V30 COUNTS 41 44 0 0 0
M  V30 BEGIN ATOM
M  V30 1 Cl -0.4855 -1.376 4.6194 0
M  V30 2 C -1.1194 -0.5255 3.265 0
M  V30 3 C -0.4664 -0.5999 2.0367 0
M  V30 4 C -2.2748 0.2415 3.4092 0
M  V30 5 C -0.9727 0.1038 0.9351 0
M  V30 6 C -2.7916 0.9269 2.3089 0
M  V30 7 C -0.2173 0.0654 -0.3562 0
M  V30 8 C -2.1514 0.8383 1.0694 0
M  V30 9 N -0.7929 -0.0502 -1.5222 0
M  V30 10 N 1.1765 0.1204 -0.3064 0
M  V30 11 O -2.7236 1.5152 0.0222 0
M  V30 12 C -2.1815 -0.0971 -1.7107 0
M  V30 13 C 1.97 -0.3362 -1.4627 0
M  V30 14 C 1.885 1.1262 0.5057 0
M  V30 15 C -3.1061 0.6839 -1.0055 0
M  V30 16 C -2.6614 -0.9105 -2.7431 0
M  V30 17 C 3.3695 -0.8125 -1.016 0
M  V30 18 C 3.2779 0.612 0.9266 0
M  V30 19 C -4.4667 0.6681 -1.3309 0
M  V30 20 C -4.0225 -0.9502 -3.0604 0
M  V30 21 N 4.1025 0.2034 -0.2293 0
M  V30 22 C -4.9253 -0.1568 -2.3558 0
M  V30 23 C 5.3936 -0.3179 0.2126 0
M  V30 24 H 0.4338 -1.1991 1.9307 0
M  V30 25 H -2.7801 0.3036 4.3697 0
M  V30 26 H -3.699 1.5166 2.4108 0
M  V30 27 H 1.474 -1.1762 -1.9636 0
M  V30 28 H 2.0619 0.4811 -2.1885 0
M  V30 29 H 1.9897 2.0467 -0.0824 0
M  V30 30 H 1.3264 1.3926 1.4084 0
M  V30 31 H -1.9568 -1.5097 -3.3143 0
M  V30 32 H 3.9471 -1.0668 -1.9128 0
M  V30 33 H 3.2556 -1.7332 -0.4274 0
M  V30 34 H 3.7883 1.4139 1.4735 0
M  V30 35 H 3.1507 -0.2302 1.6201 0
M  V30 36 H -5.1644 1.2929 -0.7809 0
M  V30 37 H -4.3708 -1.5898 -3.8671 0
M  V30 38 H -5.9822 -0.1771 -2.6084 0
M  V30 39 H 6.0123 -0.5906 -0.6493 0
M  V30 40 H 5.9464 0.4481 0.7675 0
M  V30 41 H 5.2892 -1.2 0.8547 0
M  V30 END ATOM
M  V30 BEGIN BOND
M  V30 1 1 1 2
M  V30 2 2 2 3
M  V30 3 1 2 4
M  V30 4 1 3 5
M  V30 5 2 4 6
M  V30 6 1 5 7
M  V30 7 2 5 8
M  V30 8 2 7 9
M  V30 9 1 7 10
M  V30 10 1 8 11
M  V30 11 1 9 12
M  V30 12 1 10 13
M  V30 13 1 10 14
M  V30 14 1 11 15
M  V30 15 1 12 16
M  V30 16 1 13 17
M  V30 17 1 14 18
M  V30 18 1 15 19
M  V30 19 2 16 20
M  V30 20 1 17 21
M  V30 21 2 19 22
M  V30 22 1 21 23
M  V30 23 1 6 8
M  V30 24 2 12 15
M  V30 25 1 18 21
M  V30 26 1 20 22
M  V30 27 1 3 24
M  V30 28 1 4 25
M  V30 29 1 6 26
M  V30 30 1 13 27
M  V30 31 1 13 28
M  V30 32 1 14 29
M  V30 33 1 14 30
M  V30 34 1 16 31
M  V30 35 1 17 32
M  V30 36 1 17 33
M  V30 37 1 18 34
M  V30 38 1 18 35
M  V30 39 1 19 36
M  V30 40 1 20 37
M  V30 41 1 22 38
M  V30 42 1 23 39
M  V30 43 1 23 40
M  V30 44 1 23 41
M  V30 END BOND
M  V30 END CTAB
M  END
>  <Column 1>
802

>  <level_0>
916

>  <index>
916

>  <Unnamed: 0>
916

>  <NO.>
928

>  <Name>
loxapine

>  <IUPAC_name>
8-chloro-6-(4-methylpiperazin-1-yl)benzo[b][1-4]benzoxazepine

>  <SMILES>
CN1CCN(C2=Nc3ccccc3Oc3ccc(Cl)cc32)CC1

>  <CID>
3964

>  <logBB>
0.8

>  <BBB+/BBB->
BBB+

>  <Inchi>
InChI=1S/C18H18ClN3O/c1-21-8-10-22(11-9-21)18-14-12-13(19)6-7-16(14)23-17-5-3-2-4-15(17)20-18/h2-7-12H-8-11H2-1H3

>  <threshold>


>  <reference>
R2|R2|R25|R27|R46|

>  <group>
A

>  <Class>
1

>  <ABC>
18.44

>  <ABCGG>
14.03

>  <nAcid>
0

>  <nBase>
3

>  <nAromAtom>
12

>  <nAromBond>
12

>  <nAtom>
41

>  <nHeavyAtom>
23

>  <nSpiro>
0

>  <nBridgehead>
0

>  <nHetero>
5

>  <nN>
3

>  <nO>
1

>  <nF>
0

>  <BalabanJ>
1.55

>  <BertzCT>
766.61

>  <nBonds>
44

>  <nBondsO>
26

>  <nBondsS>
31

>  <nBondsD>
1

>  <nBondsT>
0

>  <nBondsA>
12

>  <nBondsM>
13

>  <nBondsKS>
37

>  <nBondsKD>
7

>  <RNCG>
0.27

>  <RPCG>
0.09

>  <FCSP3>
0.28

>  <SZ>
28.67

>  <Sm>
27.29

>  <Sv>
26.96

>  <Sse>
41.08

>  <Sp>
28.95

>  <Si>
45.97

>  <MZ>
0.7

>  <Mm>
0.67

>  <Mv>
0.66

>  <Mse>
1

>  <Mp>
0.71

>  <Mi>
1.12

>  <NsCH3>
1

>  <NdCH2>
0

>  <NssCH2>
4

>  <NtCH>
0

>  <NdsCH>
0

>  <NaaCH>
7

>  <NsssCH>
0

>  <NddC>
0

>  <NtsC>
0

>  <NdssC>
1

>  <NaasC>
5

>  <NaaaC>
0

>  <NssssC>
0

>  <NsNH3>
0

>  <NsNH2>
0

>  <NssNH2>
0

>  <NdNH>
0

>  <NssNH>
0

>  <NaaNH>
0

>  <NtN>
0

>  <NsssNH>
0

>  <NdsN>
1

>  <NaaN>
0

>  <NsssN>
2

>  <NddsN>
0

>  <NaasN>
0

>  <NssssN>
0

>  <NsOH>
0

>  <NdO>
0

>  <NssO>
1

>  <NaaO>
0

>  <NsF>
0

>  <NsSiH3>
0

>  <NssSiH2>
0

>  <NsssSiH>
0

>  <NssssSi>
0

>  <NsPH2>
0

>  <NssPH>
0

>  <NsssP>
0

>  <NdsssP>
0

>  <NsssssP>
0

>  <NsSH>
0

>  <NdS>
0

>  <NssS>
0

>  <NaaS>
0

>  <NdssS>
0

>  <NddssS>
0

>  <NsCl>
1

>  <NsBr>
0

>  <NsI>
0

>  <fragCpx>
170.05

>  <fMF>
0.51

>  <nHBAcc>
4

>  <nHBDon>
0

>  <Kier1>
16.47

>  <Kier2>
7.09

>  <Lipinski>
1

>  <GhoseFilter>
1

>  <FilterItLogS>
-4.66

>  <VMcGowan>
238.99

>  <LabuteASA>
140.5

>  <PEOE_VSA1>
14.54

>  <PEOE_VSA2>
0

>  <PEOE_VSA3>
4.99

>  <PEOE_VSA4>
0

>  <PEOE_VSA5>
0

>  <PEOE_VSA6>
23.73

>  <PEOE_VSA7>
37.38

>  <PEOE_VSA8>
31.2

>  <PEOE_VSA9>
5.56

>  <PEOE_VSA10>
17.27

>  <PEOE_VSA11>
5.75

>  <PEOE_VSA12>
0

>  <PEOE_VSA13>
0

>  <SMR_VSA1>
4.74

>  <SMR_VSA2>
0

>  <SMR_VSA3>
9.8

>  <SMR_VSA4>
4.99

>  <SMR_VSA5>
0

>  <SMR_VSA6>
33.23

>  <SMR_VSA7>
53.05

>  <SMR_VSA8>
0

>  <SMR_VSA9>
11.5

>  <SlogP_VSA1>
4.74

>  <SlogP_VSA2>
48.86

>  <SlogP_VSA3>
0

>  <SlogP_VSA4>
0

>  <SlogP_VSA5>
5.56

>  <SlogP_VSA6>
47.46

>  <SlogP_VSA7>
5.02

>  <SlogP_VSA8>
0

>  <SlogP_VSA9>
0

>  <SlogP_VSA10>
5.69

>  <SlogP_VSA11>
11.5

>  <EState_VSA1>
0

>  <EState_VSA2>
0

>  <EState_VSA3>
5.02

>  <EState_VSA4>
54.76

>  <EState_VSA5>
0

>  <EState_VSA6>
0

>  <EState_VSA7>
42.46

>  <EState_VSA8>
16.85

>  <EState_VSA9>
21.33

>  <EState_VSA10>
0

>  <VSA_EState1>
6.09

>  <VSA_EState2>
9.56

>  <VSA_EState3>
0.69

>  <VSA_EState4>
1.81

>  <VSA_EState5>
2.53

>  <VSA_EState6>
13.6

>  <VSA_EState7>
0

>  <VSA_EState8>
3.95

>  <VSA_EState9>
2.15

>  <apol>
48.34

>  <bpol>
24.86

>  <nRing>
4

>  <nHRing>
2

>  <naRing>
2

>  <naHRing>
0

>  <nARing 2>
2

>  <nAHRing 2>
2

>  <nFRing>
1

>  <nFHRing>
1

>  <nFaRing>
0

>  <nFaHRing>
0

>  <nFARing 2>
1

>  <nFAHRing 2>
1

>  <nRot>
0

>  <SLogP>
3.77

>  <SMR>
93.24

>  <TopoPSA(NO)>
28.07

>  <TopoPSA>
28.07

>  <JGI1>
0.17

>  <JGI2>
0.07

>  <JGI3>
0.03

>  <JGI4>
0.05

>  <JGI5>
0.02

>  <Diameter>
10

>  <Radius>
5

>  <TMWC10>
124.51

>  <TSRW10>
65.77

>  <MW>
327.11

>  <AMW>
7.98

>  <WPath>
1075

>  <WPol>
41

>  <Zagreb1>
126

>  <Zagreb2>
150

>  <mZagreb2>
4.94

>  <yes>


>  <nAR-cont>
1

>  <nHA-cont>
0.967789328

>  <MWHBN>
0.22116331

>  <MWHBN-cont>
0.994201125

>  <TPSA-cont>
0.80405397

>  <pka_cont>
0.97

>  <yes.1>


>  <BBB_SCORE>
5.552198955

>  <MMFF94 Energy>
116.47

$$$$
Compound 666
Actelion Java MolfileCreator 2.0

  0  0  0  0  0  0              0 V3000
M  V30 BEGIN CTAB
M  V30 COUNTS 45 47 0 0 0
M  V30 BEGIN ATOM
M  V30 1 N -0.9478 0.7897 0.2368 0
M  V30 2 C -0.5118 2.0527 -0.2275 0
M  V30 3 C -1.8457 -0.1093 -0.3891 0
M  V30 4 C -0.1557 0.2926 1.3885 0
M  V30 5 C 0.0252 2.2332 -1.5086 0
M  V30 6 C -0.6007 3.173 0.6202 0
M  V30 7 C -2.0378 -0.2018 -1.7855 0
M  V30 8 C -2.6551 -0.9416 0.4219 0
M  V30 9 C 0.8992 -0.7293 0.9416 0
M  V30 10 C 0.4795 3.5016 -1.9113 0
M  V30 11 C 0.1101 1.0711 -2.4551 0
M  V30 12 C -0.154 4.4319 0.2152 0
M  V30 13 C -3.0106 -1.0939 -2.3018 0
M  V30 14 C -1.2866 0.5967 -2.83 0
M  V30 15 C -3.5968 -1.8303 -0.1041 0
M  V30 16 C 1.669 -1.2724 2.1517 0
M  V30 17 C 0.3917 4.5947 -1.0517 0
M  V30 18 C -3.7758 -1.9063 -1.4727 0
M  V30 19 N 2.7921 -2.1518 1.7833 0
M  V30 20 C 2.3401 -3.3994 1.1637 0
M  V30 21 C 3.6018 -2.454 2.9669 0
M  V30 22 H -0.8011 -0.1405 2.1596 0
M  V30 23 H 0.3632 1.1125 1.903 0
M  V30 24 H -1.043 3.066 1.6077 0
M  V30 25 H -2.6003 -0.8786 1.5045 0
M  V30 26 H 1.597 -0.2541 0.2415 0
M  V30 27 H 0.4119 -1.5497 0.4043 0
M  V30 28 H 0.9007 3.6438 -2.9038 0
M  V30 29 H 0.712 0.2652 -2.0191 0
M  V30 30 H 0.6321 1.3801 -3.3695 0
M  V30 31 H -0.238 5.2808 0.8879 0
M  V30 32 H -3.1711 -1.1567 -3.3771 0
M  V30 33 H -1.1674 -0.038 -3.7188 0
M  V30 34 H -1.9157 1.4453 -3.1304 0
M  V30 35 H -4.199 -2.4414 0.562 0
M  V30 36 H 2.0675 -0.4105 2.7032 0
M  V30 37 H 0.9781 -1.791 2.8296 0
M  V30 38 H 0.7417 5.5713 -1.3746 0
M  V30 39 H -4.5124 -2.5829 -1.896 0
M  V30 40 H 1.8499 -3.2119 0.2036 0
M  V30 41 H 1.648 -3.9534 1.8082 0
M  V30 42 H 3.1941 -4.0496 0.9411 0
M  V30 43 H 3.0287 -2.9872 3.7342 0
M  V30 44 H 3.9984 -1.5331 3.409 0
M  V30 45 H 4.4692 -3.0661 2.6953 0
M  V30 END ATOM
M  V30 BEGIN BOND
M  V30 1 1 1 2
M  V30 2 1 1 3
M  V30 3 1 1 4
M  V30 4 2 2 5
M  V30 5 1 2 6
M  V30 6 2 3 7
M  V30 7 1 3 8
M  V30 8 1 4 9
M  V30 9 1 5 10
M  V30 10 1 5 11
M  V30 11 2 6 12
M  V30 12 1 7 13
M  V30 13 1 7 14
M  V30 14 2 8 15
M  V30 15 1 9 16
M  V30 16 2 10 17
M  V30 17 2 13 18
M  V30 18 1 16 19
M  V30 19 1 19 20
M  V30 20 1 19 21
M  V30 21 1 11 14
M  V30 22 1 12 17
M  V30 23 1 15 18
M  V30 24 1 4 22
M  V30 25 1 4 23
M  V30 26 1 6 24
M  V30 27 1 8 25
M  V30 28 1 9 26
M  V30 29 1 9 27
M  V30 30 1 10 28
M  V30 31 1 11 29
M  V30 32 1 11 30
M  V30 33 1 12 31
M  V30 34 1 13 32
M  V30 35 1 14 33
M  V30 36 1 14 34
M  V30 37 1 15 35
M  V30 38 1 16 36
M  V30 39 1 16 37
M  V30 40 1 17 38
M  V30 41 1 18 39
M  V30 42 1 20 40
M  V30 43 1 20 41
M  V30 44 1 20 42
M  V30 45 1 21 43
M  V30 46 1 21 44
M  V30 47 1 21 45
M  V30 END BOND
M  V30 END CTAB
M  END
>  <Column 1>
803

>  <level_0>
917

>  <index>
917

>  <Unnamed: 0>
917

>  <NO.>
929

>  <Name>
imipramine

>  <IUPAC_name>
3-(5-6-dihydrobenzo[b][1]benzazepin-11-yl)-n-n-dimethylpropan-1-amine

>  <SMILES>
CN(C)CCCN1c2ccccc2CCc2ccccc21

>  <CID>
3696

>  <logBB>
0.8

>  <BBB+/BBB->
BBB+

>  <Inchi>
InChI=1S/C19H24N2/c1-20(2)14-7-15-21-18-10-5-3-8-16(18)12-13-17-9-4-6-11-19(17)21/h3-6-8-11H-7-12-15H2-1-2H3

>  <threshold>


>  <reference>
R3|R11|R20|R25|R31|R36|R38|R41|R43|R46|R47|R48|R49|R2|R2|R27|R21|R27|R8|R40|R49|R12|R18|R26|R27|R39|R42|R44|R48|R4|R48|R49|

>  <group>
A

>  <Class>
1

>  <ABC>
16.32

>  <ABCGG>
13.12

>  <nAcid>
0

>  <nBase>
1

>  <nAromAtom>
12

>  <nAromBond>
12

>  <nAtom>
45

>  <nHeavyAtom>
21

>  <nSpiro>
0

>  <nBridgehead>
0

>  <nHetero>
2

>  <nN>
2

>  <nO>
0

>  <nF>
0

>  <BalabanJ>
1.7

>  <BertzCT>
556.52

>  <nBonds>
47

>  <nBondsO>
23

>  <nBondsS>
35

>  <nBondsD>
0

>  <nBondsT>
0

>  <nBondsA>
12

>  <nBondsM>
12

>  <nBondsKS>
41

>  <nBondsKD>
6

>  <RNCG>
0.28

>  <RPCG>
0.05

>  <FCSP3>
0.37

>  <SZ>
25.33

>  <Sm>
23.35

>  <Sv>
27.02

>  <Sse>
43.98

>  <Sp>
29.9

>  <Si>
50.56

>  <MZ>
0.56

>  <Mm>
0.52

>  <Mv>
0.6

>  <Mse>
0.98

>  <Mp>
0.66

>  <Mi>
1.12

>  <NsCH3>
2

>  <NdCH2>
0

>  <NssCH2>
5

>  <NtCH>
0

>  <NdsCH>
0

>  <NaaCH>
8

>  <NsssCH>
0

>  <NddC>
0

>  <NtsC>
0

>  <NdssC>
0

>  <NaasC>
4

>  <NaaaC>
0

>  <NssssC>
0

>  <NsNH3>
0

>  <NsNH2>
0

>  <NssNH2>
0

>  <NdNH>
0

>  <NssNH>
0

>  <NaaNH>
0

>  <NtN>
0

>  <NsssNH>
0

>  <NdsN>
0

>  <NaaN>
0

>  <NsssN>
2

>  <NddsN>
0

>  <NaasN>
0

>  <NssssN>
0

>  <NsOH>
0

>  <NdO>
0

>  <NssO>
0

>  <NaaO>
0

>  <NsF>
0

>  <NsSiH3>
0

>  <NssSiH2>
0

>  <NsssSiH>
0

>  <NssssSi>
0

>  <NsPH2>
0

>  <NssPH>
0

>  <NsssP>
0

>  <NdsssP>
0

>  <NsssssP>
0

>  <NsSH>
0

>  <NdS>
0

>  <NssS>
0

>  <NaaS>
0

>  <NdssS>
0

>  <NddssS>
0

>  <NsCl>
0

>  <NsBr>
0

>  <NsI>
0

>  <fragCpx>
109.02

>  <fMF>
0.33

>  <nHBAcc>
2

>  <nHBDon>
0

>  <Kier1>
15.88

>  <Kier2>
7.51

>  <Lipinski>
1

>  <GhoseFilter>
1

>  <FilterItLogS>
-4.91

>  <VMcGowan>
240.15

>  <LabuteASA>
127.56

>  <PEOE_VSA1>
9.8

>  <PEOE_VSA2>
0

>  <PEOE_VSA3>
0

>  <PEOE_VSA4>
0

>  <PEOE_VSA5>
0

>  <PEOE_VSA6>
36.4

>  <PEOE_VSA7>
63.16

>  <PEOE_VSA8>
17.92

>  <PEOE_VSA9>
0

>  <PEOE_VSA10>
0

>  <PEOE_VSA11>
0

>  <PEOE_VSA12>
0

>  <PEOE_VSA13>
0

>  <SMR_VSA1>
0

>  <SMR_VSA2>
0

>  <SMR_VSA3>
4.9

>  <SMR_VSA4>
0

>  <SMR_VSA5>
19.26

>  <SMR_VSA6>
32.08

>  <SMR_VSA7>
59.66

>  <SMR_VSA8>
0

>  <SMR_VSA9>
0

>  <SlogP_VSA1>
4.9

>  <SlogP_VSA2>
32.08

>  <SlogP_VSA3>
12.84

>  <SlogP_VSA4>
0

>  <SlogP_VSA5>
17.55

>  <SlogP_VSA6>
48.53

>  <SlogP_VSA7>
0

>  <SlogP_VSA8>
0

>  <SlogP_VSA9>
0

>  <SlogP_VSA10>
11.37

>  <SlogP_VSA11>
0

>  <EState_VSA1>
0

>  <EState_VSA2>
0

>  <EState_VSA3>
0

>  <EState_VSA4>
25.93

>  <EState_VSA5>
28.92

>  <EState_VSA6>
0

>  <EState_VSA7>
0

>  <EState_VSA8>
72.43

>  <EState_VSA9>
0

>  <EState_VSA10>
0

>  <VSA_EState1>
0

>  <VSA_EState2>
4.77

>  <VSA_EState3>
0

>  <VSA_EState4>
5.72

>  <VSA_EState5>
0

>  <VSA_EState6>
17.73

>  <VSA_EState7>
3.45

>  <VSA_EState8>
2.2

>  <VSA_EState9>
4.29

>  <apol>
49.93

>  <bpol>
27.5

>  <nRing>
3

>  <nHRing>
1

>  <naRing>
2

>  <naHRing>
0

>  <nARing 2>
1

>  <nAHRing 2>
1

>  <nFRing>
1

>  <nFHRing>
1

>  <nFaRing>
0

>  <nFaHRing>
0

>  <nFARing 2>
1

>  <nFAHRing 2>
1

>  <nRot>
4

>  <SLogP>
3.88

>  <SMR>
90.47

>  <TopoPSA(NO)>
6.48

>  <TopoPSA>
6.48

>  <JGI1>
0.13

>  <JGI2>
0.07

>  <JGI3>
0.04

>  <JGI4>
0.03

>  <JGI5>
0.01

>  <Diameter>
9

>  <Radius>
5

>  <TMWC10>
117.56

>  <TSRW10>
62.81

>  <MW>
280.19

>  <AMW>
6.23

>  <WPath>
882

>  <WPol>
35

>  <Zagreb1>
108

>  <Zagreb2>
126

>  <mZagreb2>
4.69

>  <yes>


>  <nAR-cont>
0.816016

>  <nHA-cont>
0.994529749

>  <MWHBN>
0.119482329

>  <MWHBN-cont>
0.827135486

>  <TPSA-cont>
0.954765576

>  <pka_cont>
0.97

>  <yes.1>


>  <BBB_SCORE>
5.445780131

>  <MMFF94 Energy>
64.037

$$$$
Compound 667
Actelion Java MolfileCreator 2.0

  0  0  0  0  0  0              0 V3000
M  V30 BEGIN CTAB
M  V30 COUNTS 76 80 0 0 0
M  V30 BEGIN ATOM
M  V30 1 O 1.668 -6.2859 -1.9859 0
M  V30 2 C 1.0627 -5.2671 -1.6358 0
M  V30 3 N -0.2383 -5.0751 -2.0177 0
M  V30 4 N 1.7078 -4.3277 -0.8793 0
M  V30 5 C -1.0876 -3.8926 -1.9109 0
M  V30 6 C -0.8921 -6.0833 -2.8438 0
M  V30 7 C 1.183 -3.2175 -0.0919 0
M  V30 8 C 3.1477 -4.4414 -0.6892 0
M  V30 9 C -2.4282 -4.2947 -2.5625 0
M  V30 10 C -1.9816 -5.3322 -3.5974 0
M  V30 11 C 2.351 -2.8002 0.82 0
M  V30 12 C 3.5753 -3.1404 -0.0262 0
M  V30 13 N -3.3277 -3.2388 -3.0601 0
M  V30 14 N 2.3289 -1.4359 1.3574 0
M  V30 15 C -2.7483 -2.3848 -4.1075 0
M  V30 16 C -3.8424 -2.4224 -1.9475 0
M  V30 17 C 2.1427 -0.3454 0.5058 0
M  V30 18 C 2.6624 -1.305 2.7723 0
M  V30 19 C -3.7858 -1.3993 -4.6539 0
M  V30 20 C -4.9125 -1.4393 -2.4237 0
M  V30 21 O 2.1253 -0.4279 -0.7191 0
M  V30 22 C 1.9252 0.9974 1.0889 0
M  V30 23 C -4.3871 -0.5495 -3.5422 0
M  V30 24 C 2.7353 2.0544 0.6718 0
M  V30 25 C 0.8807 1.2242 1.9893 0
M  V30 26 C 2.5248 3.3354 1.1901 0
M  V30 27 C 0.677 2.508 2.5038 0
M  V30 28 C 1.4967 3.5835 2.1171 0
M  V30 29 C 1.276 4.9346 2.6586 0
M  V30 30 C 1.0977 6.0355 1.8063 0
M  V30 31 C 1.2343 5.1622 4.0431 0
M  V30 32 C 0.8866 7.3196 2.3187 0
M  V30 33 C 1.0246 6.4453 4.5587 0
M  V30 34 C 0.8543 7.5363 3.7002 0
M  V30 35 C 0.6102 8.9166 4.2537 0
M  V30 36 C -0.8721 9.1918 4.4538 0
M  V30 37 H -0.585 -3.0769 -2.4375 0
M  V30 38 H -1.2495 -3.6179 -0.8679 0
M  V30 39 H -0.1923 -6.5789 -3.5235 0
M  V30 40 H -1.3204 -6.8342 -2.1702 0
M  V30 41 H 0.3301 -3.5468 0.5076 0
M  V30 42 H 0.864 -2.4322 -0.7778 0
M  V30 43 H 3.3347 -5.2995 -0.0328 0
M  V30 44 H 3.6557 -4.6136 -1.6434 0
M  V30 45 H -2.9957 -4.8638 -1.8097 0
M  V30 46 H -1.5397 -4.8665 -4.4842 0
M  V30 47 H -2.7928 -5.9909 -3.9212 0
M  V30 48 H 2.3371 -3.4857 1.6807 0
M  V30 49 H 4.4862 -3.2538 0.5688 0
M  V30 50 H 3.7657 -2.3764 -0.7877 0
M  V30 51 H -2.404 -2.9859 -4.9542 0
M  V30 52 H -1.8858 -1.8223 -3.731 0
M  V30 53 H -4.2977 -3.0692 -1.1877 0
M  V30 54 H -3.0295 -1.8695 -1.4594 0
M  V30 55 H 1.8165 -1.6678 3.3629 0
M  V30 56 H 3.544 -1.9177 2.986 0
M  V30 57 H 2.8976 -0.2786 3.0578 0
M  V30 58 H -3.3191 -0.7497 -5.4029 0
M  V30 59 H -4.5843 -1.9528 -5.1643 0
M  V30 60 H -5.2458 -0.8193 -1.5838 0
M  V30 61 H -5.7898 -1.9948 -2.7789 0
M  V30 62 H -5.1954 0.074 -3.9393 0
M  V30 63 H -3.6221 0.128 -3.1436 0
M  V30 64 H 3.5258 1.8841 -0.0552 0
M  V30 65 H 0.2182 0.4143 2.2816 0
M  V30 66 H 3.1754 4.146 0.8664 0
M  V30 67 H -0.1452 2.6735 3.198 0
M  V30 68 H 1.1083 5.8983 0.7268 0
M  V30 69 H 1.3767 4.3368 4.7374 0
M  V30 70 H 0.7444 8.1487 1.6291 0
M  V30 71 H 0.9973 6.586 5.6369 0
M  V30 72 H 1.0384 9.6663 3.5773 0
M  V30 73 H 1.1404 9.0308 5.207 0
M  V30 74 H -1.019 10.1993 4.8558 0
M  V30 75 H -1.3176 8.4784 5.1553 0
M  V30 76 H -1.4206 9.1204 3.5086 0
M  V30 END ATOM
M  V30 BEGIN BOND
M  V30 1 2 1 2
M  V30 2 1 2 3
M  V30 3 1 2 4
M  V30 4 1 3 5
M  V30 5 1 3 6
M  V30 6 1 4 7
M  V30 7 1 4 8
M  V30 8 1 5 9
M  V30 9 1 6 10
M  V30 10 1 7 11
M  V30 11 1 8 12
M  V30 12 1 9 13
M  V30 13 1 11 14
M  V30 14 1 13 15
M  V30 15 1 13 16
M  V30 16 1 14 17
M  V30 17 1 14 18
M  V30 18 1 15 19
M  V30 19 1 16 20
M  V30 20 2 17 21
M  V30 21 1 17 22
M  V30 22 1 19 23
M  V30 23 2 22 24
M  V30 24 1 22 25
M  V30 25 1 24 26
M  V30 26 2 25 27
M  V30 27 2 26 28
M  V30 28 1 28 29
M  V30 29 2 29 30
M  V30 30 1 29 31
M  V30 31 1 30 32
M  V30 32 2 31 33
M  V30 33 2 32 34
M  V30 34 1 34 35
M  V30 35 1 35 36
M  V30 36 1 9 10
M  V30 37 1 11 12
M  V30 38 1 20 23
M  V30 39 1 27 28
M  V30 40 1 33 34
M  V30 41 1 5 37
M  V30 42 1 5 38
M  V30 43 1 6 39
M  V30 44 1 6 40
M  V30 45 1 7 41
M  V30 46 1 7 42
M  V30 47 1 8 43
M  V30 48 1 8 44
M  V30 49 1 9 45
M  V30 50 1 10 46
M  V30 51 1 10 47
M  V30 52 1 11 48
M  V30 53 1 12 49
M  V30 54 1 12 50
M  V30 55 1 15 51
M  V30 56 1 15 52
M  V30 57 1 16 53
M  V30 58 1 16 54
M  V30 59 1 18 55
M  V30 60 1 18 56
M  V30 61 1 18 57
M  V30 62 1 19 58
M  V30 63 1 19 59
M  V30 64 1 20 60
M  V30 65 1 20 61
M  V30 66 1 23 62
M  V30 67 1 23 63
M  V30 68 1 24 64
M  V30 69 1 25 65
M  V30 70 1 26 66
M  V30 71 1 27 67
M  V30 72 1 30 68
M  V30 73 1 31 69
M  V30 74 1 32 70
M  V30 75 1 33 71
M  V30 76 1 35 72
M  V30 77 1 35 73
M  V30 78 1 36 74
M  V30 79 1 36 75
M  V30 80 1 36 76
M  V30 END BOND
M  V30 END CTAB
M  END
>  <Column 1>
804

>  <level_0>
918

>  <index>
918

>  <Unnamed: 0>
918

>  <NO.>
930

>  <Name>
mchr antagonist 23c

>  <IUPAC_name>
4-(4-ethylphenyl)-n-methyl-n-[1-(3-piperidin-1-ylpyrrolidine-1-carbonyl)pyrrolidin-3-yl]benzamide

>  <SMILES>
CCc1ccc(-c2ccc(C(=O)N(C)C3CCN(C(=O)N4CCC(N5CCCCC5)C4)C3)cc2)cc1

>  <CID>
73226213

>  <logBB>
0.81

>  <BBB+/BBB->
BBB+

>  <Inchi>
InChI=1S/C30H40N4O2/c1-3-23-7-9-24(10-8-23)25-11-13-26(14-12-25)29(35)31(2)27-15-19-33(21-27)30(36)34-20-16-28(22-34)32-17-5-4-6-18-32/h7-14-27-28H-3-6-15-22H2-1-2H3

>  <threshold>


>  <reference>
R2|R2|R20|R25|R27|R46|

>  <group>
A

>  <Class>
1

>  <ABC>
28.33

>  <ABCGG>
20.58

>  <nAcid>
0

>  <nBase>
1

>  <nAromAtom>
12

>  <nAromBond>
12

>  <nAtom>
76

>  <nHeavyAtom>
36

>  <nSpiro>
0

>  <nBridgehead>
0

>  <nHetero>
6

>  <nN>
4

>  <nO>
2

>  <nF>
0

>  <BalabanJ>
1.04

>  <BertzCT>
1045.62

>  <nBonds>
80

>  <nBondsO>
40

>  <nBondsS>
66

>  <nBondsD>
2

>  <nBondsT>
0

>  <nBondsA>
12

>  <nBondsM>
14

>  <nBondsKS>
72

>  <nBondsKD>
8

>  <RNCG>
0.13

>  <RPCG>
0.12

>  <FCSP3>
0.53

>  <SZ>
44

>  <Sm>
40.69

>  <Sv>
45.3

>  <Sse>
75.07

>  <Sp>
49.57

>  <Si>
85.89

>  <MZ>
0.58

>  <Mm>
0.54

>  <Mv>
0.6

>  <Mse>
0.99

>  <Mp>
0.65

>  <Mi>
1.13

>  <NsCH3>
2

>  <NdCH2>
0

>  <NssCH2>
12

>  <NtCH>
0

>  <NdsCH>
0

>  <NaaCH>
8

>  <NsssCH>
2

>  <NddC>
0

>  <NtsC>
0

>  <NdssC>
2

>  <NaasC>
4

>  <NaaaC>
0

>  <NssssC>
0

>  <NsNH3>
0

>  <NsNH2>
0

>  <NssNH2>
0

>  <NdNH>
0

>  <NssNH>
0

>  <NaaNH>
0

>  <NtN>
0

>  <NsssNH>
0

>  <NdsN>
0

>  <NaaN>
0

>  <NsssN>
4

>  <NddsN>
0

>  <NaasN>
0

>  <NssssN>
0

>  <NsOH>
0

>  <NdO>
2

>  <NssO>
0

>  <NaaO>
0

>  <NsF>
0

>  <NsSiH3>
0

>  <NssSiH2>
0

>  <NsssSiH>
0

>  <NssssSi>
0

>  <NsPH2>
0

>  <NssPH>
0

>  <NsssP>
0

>  <NdsssP>
0

>  <NsssssP>
0

>  <NsSH>
0

>  <NdS>
0

>  <NssS>
0

>  <NaaS>
0

>  <NdssS>
0

>  <NddssS>
0

>  <NsCl>
0

>  <NsBr>
0

>  <NsI>
0

>  <fragCpx>
340.06

>  <fMF>
0.41

>  <nHBAcc>
3

>  <nHBDon>
0

>  <Kier1>
27.56

>  <Kier2>
12.9

>  <Lipinski>
1

>  <GhoseFilter>
0

>  <FilterItLogS>
-5.1

>  <VMcGowan>
396.52

>  <LabuteASA>
215.4

>  <PEOE_VSA1>
14.7

>  <PEOE_VSA2>
9.69

>  <PEOE_VSA3>
4.79

>  <PEOE_VSA4>
0

>  <PEOE_VSA5>
0

>  <PEOE_VSA6>
49.74

>  <PEOE_VSA7>
74.02

>  <PEOE_VSA8>
44.83

>  <PEOE_VSA9>
6.04

>  <PEOE_VSA10>
0

>  <PEOE_VSA11>
0

>  <PEOE_VSA12>
0

>  <PEOE_VSA13>
5.91

>  <SMR_VSA1>
9.59

>  <SMR_VSA2>
0

>  <SMR_VSA3>
19.6

>  <SMR_VSA4>
0

>  <SMR_VSA5>
57.53

>  <SMR_VSA6>
46.32

>  <SMR_VSA7>
59.66

>  <SMR_VSA8>
0

>  <SMR_VSA9>
11.13

>  <SlogP_VSA1>
0

>  <SlogP_VSA2>
89.94

>  <SlogP_VSA3>
6.42

>  <SlogP_VSA4>
0

>  <SlogP_VSA5>
54.95

>  <SlogP_VSA6>
48.53

>  <SlogP_VSA7>
0

>  <SlogP_VSA8>
11.13

>  <SlogP_VSA9>
0

>  <SlogP_VSA10>
4.79

>  <SlogP_VSA11>
0

>  <EState_VSA1>
0

>  <EState_VSA2>
17.98

>  <EState_VSA3>
18.15

>  <EState_VSA4>
50.02

>  <EState_VSA5>
37.92

>  <EState_VSA6>
0

>  <EState_VSA7>
46.01

>  <EState_VSA8>
36.09

>  <EState_VSA9>
0

>  <EState_VSA10>
9.59

>  <VSA_EState1>
0

>  <VSA_EState2>
34.86

>  <VSA_EState3>
0

>  <VSA_EState4>
4.29

>  <VSA_EState5>
0.02

>  <VSA_EState6>
17.22

>  <VSA_EState7>
6.85

>  <VSA_EState8>
7.55

>  <VSA_EState9>
1.88

>  <apol>
82.78

>  <bpol>
48.7

>  <nRing>
5

>  <nHRing>
3

>  <naRing>
2

>  <naHRing>
0

>  <nARing 2>
3

>  <nAHRing 2>
3

>  <nFRing>
0

>  <nFHRing>
0

>  <nFaRing>
0

>  <nFaHRing>
0

>  <nFARing 2>
0

>  <nFAHRing 2>
0

>  <nRot>
5

>  <SLogP>
4.74

>  <SMR>
144.13

>  <TopoPSA(NO)>
47.1

>  <TopoPSA>
47.1

>  <JGI1>
0.16

>  <JGI2>
0.09

>  <JGI3>
0.04

>  <JGI4>
0.03

>  <JGI5>
0.03

>  <Diameter>
22

>  <Radius>
11

>  <TMWC10>
154.76

>  <TSRW10>
88.26

>  <MW>
488.32

>  <AMW>
6.43

>  <WPath>
4895

>  <WPol>
57

>  <Zagreb1>
192

>  <Zagreb2>
228

>  <mZagreb2>
7.94

>  <yes>


>  <nAR-cont>
0.691115

>  <nHA-cont>
0.477843619

>  <MWHBN>
0.135759115

>  <MWHBN-cont>
0.889968105

>  <TPSA-cont>
0.671212753

>  <pka_cont>
0.97

>  <yes.1>


>  <BBB_SCORE>
4.331336281

>  <MMFF94 Energy>
25.436

$$$$
Compound 668
Actelion Java MolfileCreator 2.0

  0  0  0  0  0  0              0 V3000
M  V30 BEGIN CTAB
M  V30 COUNTS 27 28 0 0 0
M  V30 BEGIN ATOM
M  V30 1 Cl -1.865 2.4332 -3.6515 0
M  V30 2 C -1.9527 1.3002 -2.35 0
M  V30 3 C -3.1137 0.575 -2.0651 0
M  V30 4 C -0.8073 1.1193 -1.5661 0
M  V30 5 Cl -4.5646 0.7441 -2.9868 0
M  V30 6 C -3.1234 -0.3253 -0.9969 0
M  V30 7 C -0.8035 0.2139 -0.4922 0
M  V30 8 C -1.9778 -0.5031 -0.2162 0
M  V30 9 C 0.4012 0.0289 0.3278 0
M  V30 10 C 0.7702 0.9252 1.3304 0
M  V30 11 C 1.269 -1.048 0.1643 0
M  V30 12 N 1.8787 0.7848 2.073 0
M  V30 13 N 0.0405 2.074 1.5919 0
M  V30 14 N 2.3778 -1.2147 0.9194 0
M  V30 15 C 1.0348 -2.1052 -0.8776 0
M  V30 16 C 2.6361 -0.286 1.84 0
M  V30 17 N 3.7593 -0.4453 2.5954 0
M  V30 18 H 0.0925 1.6917 -1.7892 0
M  V30 19 H -4.0218 -0.8934 -0.7654 0
M  V30 20 H -2.0075 -1.2083 0.6137 0
M  V30 21 H -0.9649 2.0379 1.5157 0
M  V30 22 H 0.4367 2.6358 2.3352 0
M  V30 23 H 0.1157 -2.6588 -0.6632 0
M  V30 24 H 0.9703 -1.6577 -1.8742 0
M  V30 25 H 1.8607 -2.8246 -0.8913 0
M  V30 26 H 3.9746 0.261 3.2759 0
M  V30 27 H 4.3431 -1.2406 2.408 0
M  V30 END ATOM
M  V30 BEGIN BOND
M  V30 1 1 1 2
M  V30 2 2 2 3
M  V30 3 1 2 4
M  V30 4 1 3 5
M  V30 5 1 3 6
M  V30 6 2 4 7
M  V30 7 2 6 8
M  V30 8 1 7 9
M  V30 9 2 9 10
M  V30 10 1 9 11
M  V30 11 1 10 12
M  V30 12 1 10 13
M  V30 13 2 11 14
M  V30 14 1 11 15
M  V30 15 2 12 16
M  V30 16 1 16 17
M  V30 17 1 7 8
M  V30 18 1 14 16
M  V30 19 1 4 18
M  V30 20 1 6 19
M  V30 21 1 8 20
M  V30 22 1 13 21
M  V30 23 1 13 22
M  V30 24 1 15 23
M  V30 25 1 15 24
M  V30 26 1 15 25
M  V30 27 1 17 26
M  V30 28 1 17 27
M  V30 END BOND
M  V30 END CTAB
M  END
>  <Column 1>
805

>  <level_0>
919

>  <index>
919

>  <Unnamed: 0>
919

>  <NO.>
931

>  <Name>
metoprine

>  <IUPAC_name>
5-(3-4-dichlorophenyl)-6-methylpyrimidine-2-4-diamine

>  <SMILES>
Cc1nc(N)nc(N)c1-c1ccc(Cl)c(Cl)c1

>  <CID>
24466

>  <logBB>
0.81

>  <BBB+/BBB->
BBB+

>  <Inchi>
InChI=1S/C11H10Cl2N4/c1-5-9(10(14)17-11(15)16-5)6-2-3-7(12)8(13)4-6/h2-4H-1H3-(H4-14-15-16-17)

>  <threshold>


>  <reference>
R18|R26|R27|

>  <group>
A

>  <Class>
1

>  <ABC>
13.11

>  <ABCGG>
11.45

>  <nAcid>
0

>  <nBase>
0

>  <nAromAtom>
12

>  <nAromBond>
12

>  <nAtom>
27

>  <nHeavyAtom>
17

>  <nSpiro>
0

>  <nBridgehead>
0

>  <nHetero>
6

>  <nN>
4

>  <nO>
0

>  <nF>
0

>  <BalabanJ>
2.01

>  <BertzCT>
560.67

>  <nBonds>
28

>  <nBondsO>
18

>  <nBondsS>
16

>  <nBondsD>
0

>  <nBondsT>
0

>  <nBondsA>
12

>  <nBondsM>
12

>  <nBondsKS>
22

>  <nBondsKD>
6

>  <RNCG>
0.26

>  <RPCG>
0.15

>  <FCSP3>
0.09

>  <SZ>
23

>  <Sm>
22.41

>  <Sv>
18.92

>  <Sse>
27.62

>  <Sp>
20.24

>  <Si>
30.54

>  <MZ>
0.85

>  <Mm>
0.83

>  <Mv>
0.7

>  <Mse>
1.02

>  <Mp>
0.75

>  <Mi>
1.13

>  <NsCH3>
1

>  <NdCH2>
0

>  <NssCH2>
0

>  <NtCH>
0

>  <NdsCH>
0

>  <NaaCH>
3

>  <NsssCH>
0

>  <NddC>
0

>  <NtsC>
0

>  <NdssC>
0

>  <NaasC>
7

>  <NaaaC>
0

>  <NssssC>
0

>  <NsNH3>
0

>  <NsNH2>
2

>  <NssNH2>
0

>  <NdNH>
0

>  <NssNH>
0

>  <NaaNH>
0

>  <NtN>
0

>  <NsssNH>
0

>  <NdsN>
0

>  <NaaN>
2

>  <NsssN>
0

>  <NddsN>
0

>  <NaasN>
0

>  <NssssN>
0

>  <NsOH>
0

>  <NdO>
0

>  <NssO>
0

>  <NaaO>
0

>  <NsF>
0

>  <NsSiH3>
0

>  <NssSiH2>
0

>  <NsssSiH>
0

>  <NssssSi>
0

>  <NsPH2>
0

>  <NssPH>
0

>  <NsssP>
0

>  <NdsssP>
0

>  <NsssssP>
0

>  <NsSH>
0

>  <NdS>
0

>  <NssS>
0

>  <NaaS>
0

>  <NdssS>
0

>  <NddssS>
0

>  <NsCl>
2

>  <NsBr>
0

>  <NsI>
0

>  <fragCpx>
52.06

>  <fMF>
0.44

>  <nHBAcc>
4

>  <nHBDon>
2

>  <Kier1>
13.43

>  <Kier2>
5.33

>  <Lipinski>
1

>  <GhoseFilter>
1

>  <FilterItLogS>
-4.62

>  <VMcGowan>
182.73

>  <LabuteASA>
108.58

>  <PEOE_VSA1>
11.47

>  <PEOE_VSA2>
0

>  <PEOE_VSA3>
4.98

>  <PEOE_VSA4>
4.98

>  <PEOE_VSA5>
0

>  <PEOE_VSA6>
29.27

>  <PEOE_VSA7>
24.62

>  <PEOE_VSA8>
5.56

>  <PEOE_VSA9>
15.74

>  <PEOE_VSA10>
5.82

>  <PEOE_VSA11>
0

>  <PEOE_VSA12>
5.95

>  <PEOE_VSA13>
0

>  <SMR_VSA1>
0

>  <SMR_VSA2>
0

>  <SMR_VSA3>
9.97

>  <SMR_VSA4>
0

>  <SMR_VSA5>
6.92

>  <SMR_VSA6>
11.47

>  <SMR_VSA7>
33.94

>  <SMR_VSA8>
0

>  <SMR_VSA9>
11.13

>  <SlogP_VSA1>
11.47

>  <SlogP_VSA2>
9.97

>  <SlogP_VSA3>
0

>  <SlogP_VSA4>
6.92

>  <SlogP_VSA5>
5.69

>  <SlogP_VSA6>
18.2

>  <SlogP_VSA7>
10.05

>  <SlogP_VSA8>
11.13

>  <SlogP_VSA9>
0

>  <SlogP_VSA10>
11.77

>  <SlogP_VSA11>
0

>  <EState_VSA1>
0

>  <EState_VSA2>
5.95

>  <EState_VSA3>
21.56

>  <EState_VSA4>
11.13

>  <EState_VSA5>
0

>  <EState_VSA6>
12.13

>  <EState_VSA7>
12.99

>  <EState_VSA8>
9.97

>  <EState_VSA9>
34.67

>  <EState_VSA10>
0

>  <VSA_EState1>
0

>  <VSA_EState2>
8

>  <VSA_EState3>
0.95

>  <VSA_EState4>
13.58

>  <VSA_EState5>
0.48

>  <VSA_EState6>
5.24

>  <VSA_EState7>
0

>  <VSA_EState8>
1.81

>  <VSA_EState9>
0

>  <apol>
33.8

>  <bpol>
12.19

>  <nRing>
2

>  <nHRing>
1

>  <naRing>
2

>  <naHRing>
1

>  <nARing 2>
0

>  <nAHRing 2>
0

>  <nFRing>
0

>  <nFHRing>
0

>  <nFaRing>
0

>  <nFaHRing>
0

>  <nFARing 2>
0

>  <nFAHRing 2>
0

>  <nRot>
1

>  <SLogP>
2.92

>  <SMR>
71.05

>  <TopoPSA(NO)>
77.82

>  <TopoPSA>
77.82

>  <JGI1>
0.25

>  <JGI2>
0.09

>  <JGI3>
0.07

>  <JGI4>
0.05

>  <JGI5>
0.04

>  <Diameter>
9

>  <Radius>
5

>  <TMWC10>
106.76

>  <TSRW10>
49.96

>  <MW>
268.03

>  <AMW>
9.93

>  <WPath>
496

>  <WPol>
27

>  <Zagreb1>
88

>  <Zagreb2>
103

>  <mZagreb2>
3.69

>  <yes>


>  <nAR-cont>
0.336376

>  <nHA-cont>
0.976740822

>  <MWHBN>
0.366487821

>  <MWHBN-cont>
0.607475583

>  <TPSA-cont>
0.456768077

>  <pka_cont>
0.97

>  <yes.1>


>  <BBB_SCORE>
3.622866349

>  <MMFF94 Energy>
-79.776

$$$$
Compound 669
Actelion Java MolfileCreator 2.0

  0  0  0  0  0  0              0 V3000
M  V30 BEGIN CTAB
M  V30 COUNTS 21 22 0 0 0
M  V30 BEGIN ATOM
M  V30 1 F 4.4537 0.5558 0.2382 0
M  V30 2 C 3.1148 0.5279 0.2317 0
M  V30 3 C 2.4338 0.5931 -0.9751 0
M  V30 4 C 2.4253 0.4265 1.4314 0
M  V30 5 C 1.0369 0.561 -0.9784 0
M  V30 6 C 1.0285 0.395 1.4205 0
M  V30 7 C 0.3014 0.4829 0.2188 0
M  V30 8 C -1.2056 0.3756 0.2043 0 CFG=1
M  V30 9 C -1.8898 -0.7099 -0.5951 0 CFG=1
M  V30 10 C -1.9024 -0.7665 0.903 0
M  V30 11 N -3.1355 -0.4032 -1.2963 0
M  V30 12 H 2.9894 0.6647 -1.9041 0
M  V30 13 H 2.974 0.3685 2.3655 0
M  V30 14 H 0.5092 0.606 -1.929 0
M  V30 15 H 0.4943 0.3076 2.3647 0
M  V30 16 H -1.7225 1.3332 0.2493 0
M  V30 17 H -1.2571 -1.4412 -1.0943 0
M  V30 18 H -2.8285 -0.5452 1.4213 0
M  V30 19 H -1.3077 -1.5381 1.3774 0
M  V30 20 H -2.9444 -0.0474 -2.2324 0
M  V30 21 H -3.6933 -1.2473 -1.4236 0
M  V30 END ATOM
M  V30 BEGIN BOND
M  V30 1 1 1 2
M  V30 2 2 2 3
M  V30 3 1 2 4
M  V30 4 1 3 5
M  V30 5 2 4 6
M  V30 6 2 5 7
M  V30 7 1 7 8
M  V30 8 1 8 9
M  V30 9 1 8 10
M  V30 10 1 9 11
M  V30 11 1 6 7
M  V30 12 1 9 10
M  V30 13 1 3 12
M  V30 14 1 4 13
M  V30 15 1 5 14
M  V30 16 1 6 15
M  V30 17 1 8 16
M  V30 18 1 9 17
M  V30 19 1 10 18
M  V30 20 1 10 19
M  V30 21 1 11 20
M  V30 22 1 11 21
M  V30 END BOND
M  V30 BEGIN COLLECTION
M  V30 MDLV30/STEABS ATOMS=(2 8 9)
M  V30 END COLLECTION
M  V30 END CTAB
M  END
>  <Column 1>
806

>  <level_0>
920

>  <index>
920

>  <Unnamed: 0>
920

>  <NO.>
932

>  <Name>
(1r-2s)-2-(4-fluorophenyl)cyclopropan-1-amine

>  <IUPAC_name>
(1r-2s)-2-(4-fluorophenyl)cyclopropan-1-amine

>  <SMILES>
N[C@@H]1C[C@H]1c1ccc(F)cc1

>  <CID>
3082666

>  <logBB>
0.81

>  <BBB+/BBB->
BBB+

>  <Inchi>
InChI=1S/C9H10FN/c10-7-3-1-6(2-4-7)8-5-9(8)11/h1-4-8-9H-5-11H2/t8--9+/m0/s1

>  <threshold>


>  <reference>
R20|

>  <group>
A

>  <Class>
1

>  <ABC>
8.62

>  <ABCGG>
8.22

>  <nAcid>
0

>  <nBase>
1

>  <nAromAtom>
6

>  <nAromBond>
6

>  <nAtom>
21

>  <nHeavyAtom>
11

>  <nSpiro>
0

>  <nBridgehead>
0

>  <nHetero>
2

>  <nN>
1

>  <nO>
0

>  <nF>
1

>  <BalabanJ>
1.79

>  <BertzCT>
254.77

>  <nBonds>
22

>  <nBondsO>
12

>  <nBondsS>
16

>  <nBondsD>
0

>  <nBondsT>
0

>  <nBondsA>
6

>  <nBondsM>
6

>  <nBondsKS>
19

>  <nBondsKD>
3

>  <RNCG>
0.42

>  <RPCG>
0.16

>  <FCSP3>
0.33

>  <SZ>
13.33

>  <Sm>
12.59

>  <Sv>
13.11

>  <Sse>
21.06

>  <Sp>
13.98

>  <Si>
23.91

>  <MZ>
0.63

>  <Mm>
0.6

>  <Mv>
0.62

>  <Mse>
1

>  <Mp>
0.67

>  <Mi>
1.14

>  <NsCH3>
0

>  <NdCH2>
0

>  <NssCH2>
1

>  <NtCH>
0

>  <NdsCH>
0

>  <NaaCH>
4

>  <NsssCH>
2

>  <NddC>
0

>  <NtsC>
0

>  <NdssC>
0

>  <NaasC>
2

>  <NaaaC>
0

>  <NssssC>
0

>  <NsNH3>
0

>  <NsNH2>
1

>  <NssNH2>
0

>  <NdNH>
0

>  <NssNH>
0

>  <NaaNH>
0

>  <NtN>
0

>  <NsssNH>
0

>  <NdsN>
0

>  <NaaN>
0

>  <NsssN>
0

>  <NddsN>
0

>  <NaasN>
0

>  <NssssN>
0

>  <NsOH>
0

>  <NdO>
0

>  <NssO>
0

>  <NaaO>
0

>  <NsF>
1

>  <NsSiH3>
0

>  <NssSiH2>
0

>  <NsssSiH>
0

>  <NssssSi>
0

>  <NsPH2>
0

>  <NssPH>
0

>  <NsssP>
0

>  <NdsssP>
0

>  <NsssssP>
0

>  <NsSH>
0

>  <NdS>
0

>  <NssS>
0

>  <NaaS>
0

>  <NdssS>
0

>  <NddssS>
0

>  <NsCl>
0

>  <NsBr>
0

>  <NsI>
0

>  <fragCpx>
34.02

>  <fMF>
0.43

>  <nHBAcc>
1

>  <nHBDon>
1

>  <Kier1>
7.64

>  <Kier2>
2.8

>  <Lipinski>
1

>  <GhoseFilter>
0

>  <FilterItLogS>
-2.06

>  <VMcGowan>
114.79

>  <LabuteASA>
65.03

>  <PEOE_VSA1>
5.73

>  <PEOE_VSA2>
0

>  <PEOE_VSA3>
4.39

>  <PEOE_VSA4>
0

>  <PEOE_VSA5>
0

>  <PEOE_VSA6>
12.13

>  <PEOE_VSA7>
24.12

>  <PEOE_VSA8>
11.96

>  <PEOE_VSA9>
0

>  <PEOE_VSA10>
5.82

>  <PEOE_VSA11>
0

>  <PEOE_VSA12>
0

>  <PEOE_VSA13>
0

>  <SMR_VSA1>
4.39

>  <SMR_VSA2>
0

>  <SMR_VSA3>
0

>  <SMR_VSA4>
5.73

>  <SMR_VSA5>
18.38

>  <SMR_VSA6>
0

>  <SMR_VSA7>
35.65

>  <SMR_VSA8>
0

>  <SMR_VSA9>
0

>  <SlogP_VSA1>
5.73

>  <SlogP_VSA2>
6.04

>  <SlogP_VSA3>
0

>  <SlogP_VSA4>
5.82

>  <SlogP_VSA5>
17.9

>  <SlogP_VSA6>
24.27

>  <SlogP_VSA7>
0

>  <SlogP_VSA8>
0

>  <SlogP_VSA9>
0

>  <SlogP_VSA10>
4.39

>  <SlogP_VSA11>
0

>  <EState_VSA1>
0

>  <EState_VSA2>
5.82

>  <EState_VSA3>
11.96

>  <EState_VSA4>
6.42

>  <EState_VSA5>
17.7

>  <EState_VSA6>
0

>  <EState_VSA7>
12.13

>  <EState_VSA8>
0

>  <EState_VSA9>
5.73

>  <EState_VSA10>
4.39

>  <VSA_EState1>
12.44

>  <VSA_EState2>
0

>  <VSA_EState3>
0

>  <VSA_EState4>
6.81

>  <VSA_EState5>
0.3

>  <VSA_EState6>
6.9

>  <VSA_EState7>
1.05

>  <VSA_EState8>
0

>  <VSA_EState9>
0

>  <apol>
23.35

>  <bpol>
10.58

>  <nRing>
2

>  <nHRing>
0

>  <naRing>
1

>  <naHRing>
0

>  <nARing 2>
1

>  <nAHRing 2>
0

>  <nFRing>
0

>  <nFHRing>
0

>  <nFaRing>
0

>  <nFaHRing>
0

>  <nFARing 2>
0

>  <nFAHRing 2>
0

>  <nRot>
1

>  <SLogP>
1.64

>  <SMR>
41.73

>  <TopoPSA(NO)>
26.02

>  <TopoPSA>
26.02

>  <JGI1>
0.21

>  <JGI2>
0.12

>  <JGI3>
0.06

>  <JGI4>
0.06

>  <JGI5>
0.04

>  <Diameter>
7

>  <Radius>
4

>  <TMWC10>
90.97

>  <TSRW10>
61.18

>  <MW>
151.08

>  <AMW>
7.19

>  <WPath>
158

>  <WPol>
12

>  <Zagreb1>
58

>  <Zagreb2>
68

>  <mZagreb2>
2.39

>  <yes>


>  <nAR-cont>
0.816016

>  <nHA-cont>
0.720786536

>  <MWHBN>
0.162714594

>  <MWHBN-cont>
0.961249142

>  <TPSA-cont>
0.818364243

>  <pka_cont>
0.97

>  <yes.1>


>  <BBB_SCORE>
5.100404734

>  <MMFF94 Energy>
6.6843

$$$$
Compound 670
Actelion Java MolfileCreator 2.0

  0  0  0  0  0  0              0 V3000
M  V30 BEGIN CTAB
M  V30 COUNTS 43 46 0 0 0
M  V30 BEGIN ATOM
M  V30 1 O 0.1603 1.5236 1.4434 0
M  V30 2 C 0.3769 0.2424 1.9049 0
M  V30 3 C 0.898 1.8551 0.3277 0
M  V30 4 C -0.2029 -0.8286 1.2068 0
M  V30 5 C 1.115 0.0486 3.0815 0
M  V30 6 C 0.8351 1.1704 -0.8979 0
M  V30 7 C 1.7282 2.9742 0.4908 0
M  V30 8 C 0.0222 -2.1275 1.6766 0
M  V30 9 C -1.0188 -0.4898 -0.0318 0
M  V30 10 C 1.3264 -1.2608 3.5257 0
M  V30 11 C 1.7139 1.2033 3.8289 0
M  V30 12 C 1.7113 1.6077 -1.9184 0
M  V30 13 C -0.1049 -0.0074 -1.1979 0
M  V30 14 C 2.5582 3.3977 -0.5422 0
M  V30 15 C 0.7851 -2.3402 2.8268 0
M  V30 16 C -1.9633 -1.6173 -0.5027 0
M  V30 17 C 2.5592 2.7048 -1.7453 0
M  V30 18 O 0.7364 -1.1082 -1.6079 0
M  V30 19 C -1.0156 0.3452 -2.3991 0
M  V30 20 N -2.8105 -1.1677 -1.6203 0
M  V30 21 C -1.9738 -0.7894 -2.7643 0
M  V30 22 C -3.752 -2.2205 -2.0035 0
M  V30 23 H 1.7358 3.5061 1.439 0
M  V30 24 H -0.3824 -2.9952 1.1634 0
M  V30 25 H -1.683 0.3414 0.2555 0
M  V30 26 H 1.9132 -1.4503 4.4219 0
M  V30 27 H 1.997 0.913 4.8463 0
M  V30 28 H 2.6097 1.5613 3.3124 0
M  V30 29 H 0.995 2.0244 3.9184 0
M  V30 30 H 1.7378 1.0843 -2.8735 0
M  V30 31 H 3.2072 4.2581 -0.4043 0
M  V30 32 H 0.9551 -3.3536 3.1831 0
M  V30 33 H -1.396 -2.5112 -0.7943 0
M  V30 34 H -2.6084 -1.9053 0.338 0
M  V30 35 H 3.2135 3.0177 -2.555 0
M  V30 36 H 1.4631 -1.151 -0.9591 0
M  V30 37 H -1.5926 1.2531 -2.176 0
M  V30 38 H -0.422 0.559 -3.2961 0
M  V30 39 H -2.6123 -0.44 -3.5854 0
M  V30 40 H -1.4083 -1.6508 -3.1436 0
M  V30 41 H -3.243 -3.132 -2.3373 0
M  V30 42 H -4.4036 -2.4782 -1.1611 0
M  V30 43 H -4.4065 -1.8751 -2.8115 0
M  V30 END ATOM
M  V30 BEGIN BOND
M  V30 1 1 1 2
M  V30 2 1 1 3
M  V30 3 2 2 4
M  V30 4 1 2 5
M  V30 5 2 3 6
M  V30 6 1 3 7
M  V30 7 1 4 8
M  V30 8 1 4 9
M  V30 9 2 5 10
M  V30 10 1 5 11
M  V30 11 1 6 12
M  V30 12 1 6 13
M  V30 13 2 7 14
M  V30 14 2 8 15
M  V30 15 1 9 16
M  V30 16 2 12 17
M  V30 17 1 13 18
M  V30 18 1 13 19
M  V30 19 1 16 20
M  V30 20 1 19 21
M  V30 21 1 20 22
M  V30 22 1 9 13
M  V30 23 1 10 15
M  V30 24 1 14 17
M  V30 25 1 20 21
M  V30 26 1 7 23
M  V30 27 1 8 24
M  V30 28 1 9 25
M  V30 29 1 10 26
M  V30 30 1 11 27
M  V30 31 1 11 28
M  V30 32 1 11 29
M  V30 33 1 12 30
M  V30 34 1 14 31
M  V30 35 1 15 32
M  V30 36 1 16 33
M  V30 37 1 16 34
M  V30 38 1 17 35
M  V30 39 1 18 36
M  V30 40 1 19 37
M  V30 41 1 19 38
M  V30 42 1 21 39
M  V30 43 1 21 40
M  V30 44 1 22 41
M  V30 45 1 22 42
M  V30 46 1 22 43
M  V30 END BOND
M  V30 END CTAB
M  END
>  <Column 1>
807

>  <level_0>
922

>  <index>
922

>  <Unnamed: 0>
922

>  <NO.>
934

>  <Name>
org4428

>  <IUPAC_name>
4-16-dimethyl-14-oxa-4-azatetracyclo[13.4.0.02-7.08-13]nonadeca-1(19)-8-10-12-15-17-hexaen-7-ol

>  <SMILES>
Cc1cccc2c1Oc1ccccc1C1(O)CCN(C)CC21

>  <CID>
9860946

>  <logBB>
0.82

>  <BBB+/BBB->
BBB+

>  <Inchi>
InChI=1S/C19H21NO2/c1-13-6-5-7-14-16-12-20(2)11-10-19(16-21)15-8-3-4-9-17(15)22-18(13)14/h3-9-16-21H-10-12H2-1-2H3

>  <threshold>


>  <reference>
R2|R2|R27|R40|R3|R18|R25|R26|R27|R27|R36|R38|R41|R41|R43|R46|R47|R49|R4|

>  <group>
A

>  <Class>
1

>  <ABC>
17.77

>  <ABCGG>
14.03

>  <nAcid>
0

>  <nBase>
1

>  <nAromAtom>
12

>  <nAromBond>
12

>  <nAtom>
43

>  <nHeavyAtom>
22

>  <nSpiro>
0

>  <nBridgehead>
0

>  <nHetero>
3

>  <nN>
1

>  <nO>
2

>  <nF>
0

>  <BalabanJ>
1.72

>  <BertzCT>
727.13

>  <nBonds>
46

>  <nBondsO>
25

>  <nBondsS>
34

>  <nBondsD>
0

>  <nBondsT>
0

>  <nBondsA>
12

>  <nBondsM>
12

>  <nBondsKS>
40

>  <nBondsKD>
6

>  <RNCG>
0.29

>  <RPCG>
0.13

>  <FCSP3>
0.37

>  <SZ>
26.33

>  <Sm>
24.59

>  <Sv>
26.88

>  <Sse>
42.65

>  <Sp>
29

>  <Si>
48.07

>  <MZ>
0.61

>  <Mm>
0.57

>  <Mv>
0.63

>  <Mse>
0.99

>  <Mp>
0.67

>  <Mi>
1.12

>  <NsCH3>
2

>  <NdCH2>
0

>  <NssCH2>
3

>  <NtCH>
0

>  <NdsCH>
0

>  <NaaCH>
7

>  <NsssCH>
1

>  <NddC>
0

>  <NtsC>
0

>  <NdssC>
0

>  <NaasC>
5

>  <NaaaC>
0

>  <NssssC>
1

>  <NsNH3>
0

>  <NsNH2>
0

>  <NssNH2>
0

>  <NdNH>
0

>  <NssNH>
0

>  <NaaNH>
0

>  <NtN>
0

>  <NsssNH>
0

>  <NdsN>
0

>  <NaaN>
0

>  <NsssN>
1

>  <NddsN>
0

>  <NaasN>
0

>  <NssssN>
0

>  <NsOH>
1

>  <NdO>
0

>  <NssO>
1

>  <NaaO>
0

>  <NsF>
0

>  <NsSiH3>
0

>  <NssSiH2>
0

>  <NsssSiH>
0

>  <NssssSi>
0

>  <NsPH2>
0

>  <NssPH>
0

>  <NsssP>
0

>  <NdsssP>
0

>  <NsssssP>
0

>  <NsSH>
0

>  <NdS>
0

>  <NssS>
0

>  <NaaS>
0

>  <NdssS>
0

>  <NddssS>
0

>  <NsCl>
0

>  <NsBr>
0

>  <NsI>
0

>  <fragCpx>
163.03

>  <fMF>
0.44

>  <nHBAcc>
3

>  <nHBDon>
1

>  <Kier1>
15.52

>  <Kier2>
5.82

>  <Lipinski>
1

>  <GhoseFilter>
1

>  <FilterItLogS>
-4.26

>  <VMcGowan>
231.05

>  <LabuteASA>
130.7

>  <PEOE_VSA1>
14.74

>  <PEOE_VSA2>
0

>  <PEOE_VSA3>
0

>  <PEOE_VSA4>
0

>  <PEOE_VSA5>
0

>  <PEOE_VSA6>
36.4

>  <PEOE_VSA7>
32.02

>  <PEOE_VSA8>
30.13

>  <PEOE_VSA9>
0

>  <PEOE_VSA10>
17.1

>  <PEOE_VSA11>
0

>  <PEOE_VSA12>
0

>  <PEOE_VSA13>
0

>  <SMR_VSA1>
9.84

>  <SMR_VSA2>
0

>  <SMR_VSA3>
4.9

>  <SMR_VSA4>
0

>  <SMR_VSA5>
24.86

>  <SMR_VSA6>
20.14

>  <SMR_VSA7>
59.15

>  <SMR_VSA8>
0

>  <SMR_VSA9>
11.5

>  <SlogP_VSA1>
4.74

>  <SlogP_VSA2>
30.14

>  <SlogP_VSA3>
5.6

>  <SlogP_VSA4>
6.92

>  <SlogP_VSA5>
29.03

>  <SlogP_VSA6>
42.46

>  <SlogP_VSA7>
0

>  <SlogP_VSA8>
0

>  <SlogP_VSA9>
0

>  <SlogP_VSA10>
0

>  <SlogP_VSA11>
11.5

>  <EState_VSA1>
5.6

>  <EState_VSA2>
5.92

>  <EState_VSA3>
0

>  <EState_VSA4>
47.7

>  <EState_VSA5>
0

>  <EState_VSA6>
0

>  <EState_VSA7>
24.27

>  <EState_VSA8>
37.07

>  <EState_VSA9>
4.74

>  <EState_VSA10>
5.11

>  <VSA_EState1>
6.25

>  <VSA_EState2>
2.29

>  <VSA_EState3>
11.57

>  <VSA_EState4>
2.29

>  <VSA_EState5>
1.73

>  <VSA_EState6>
14.15

>  <VSA_EState7>
0.72

>  <VSA_EState8>
3.8

>  <VSA_EState9>
2.12

>  <apol>
48.44

>  <bpol>
24.51

>  <nRing>
4

>  <nHRing>
2

>  <naRing>
2

>  <naHRing>
0

>  <nARing 2>
2

>  <nAHRing 2>
2

>  <nFRing>
1

>  <nFHRing>
1

>  <nFaRing>
0

>  <nFaHRing>
0

>  <nFARing 2>
1

>  <nFAHRing 2>
1

>  <nRot>
0

>  <SLogP>
3.41

>  <SMR>
86.45

>  <TopoPSA(NO)>
32.7

>  <TopoPSA>
32.7

>  <JGI1>
0.2

>  <JGI2>
0.1

>  <JGI3>
0.05

>  <JGI4>
0.05

>  <JGI5>
0.02

>  <Diameter>
8

>  <Radius>
5

>  <TMWC10>
124.03

>  <TSRW10>
65.38

>  <MW>
295.16

>  <AMW>
6.86

>  <WPath>
856

>  <WPol>
46

>  <Zagreb1>
126

>  <Zagreb2>
156

>  <mZagreb2>
4.65

>  <yes>


>  <nAR-cont>
1

>  <nHA-cont>
0.983774276

>  <MWHBN>
0.232825873

>  <MWHBN-cont>
0.983792282

>  <TPSA-cont>
0.771733695

>  <pka_cont>
0.97

>  <yes.1>


>  <BBB_SCORE>
5.487930088

>  <MMFF94 Energy>
83.984

$$$$
Compound 671
Actelion Java MolfileCreator 2.0

  0  0  0  0  0  0              0 V3000
M  V30 BEGIN CTAB
M  V30 COUNTS 60 63 0 0 0
M  V30 BEGIN ATOM
M  V30 1 S 1.2048 -3.4567 -4.3425 0
M  V30 2 C -0.1872 -3.0606 -3.3147 0
M  V30 3 C 2.3868 -2.2133 -3.8809 0
M  V30 4 C -0.2753 -1.8914 -2.534 0
M  V30 5 C -1.2359 -3.9995 -3.3314 0
M  V30 6 C 2.0842 -1.1188 -3.0452 0
M  V30 7 C 3.6771 -2.3795 -4.4231 0
M  V30 8 N 0.78 -0.9308 -2.5007 0
M  V30 9 C -1.4575 -1.735 -1.7684 0
M  V30 10 C -2.3827 -3.8108 -2.5659 0
M  V30 11 C 3.1522 -0.2338 -2.77 0
M  V30 12 C 4.6971 -1.4797 -4.1392 0
M  V30 13 C 0.4709 0.3994 -1.9258 0
M  V30 14 C -2.5017 -2.6738 -1.7732 0
M  V30 15 C 4.4343 -0.4062 -3.3064 0
M  V30 16 C 0.7343 0.4439 -0.413 0
M  V30 17 C -3.7375 -2.5128 -0.9429 0
M  V30 18 C 0.2623 1.7784 0.1759 0
M  V30 19 O -4.5522 -3.4336 -0.8879 0
M  V30 20 C -3.9743 -1.2286 -0.1713 0
M  V30 21 N 0.2557 1.7797 1.6458 0
M  V30 22 C -3.3199 -1.2814 1.205 0
M  V30 23 C 1.617 1.7053 2.2193 0
M  V30 24 C -0.4085 3.0017 2.1531 0
M  V30 25 C -3.4913 0.0305 1.9527 0
M  V30 26 C 1.6159 1.7939 3.7643 0
M  V30 27 C -0.4133 3.0778 3.6963 0
M  V30 28 N 0.9501 3.0154 4.2538 0
M  V30 29 C 0.9136 3.0349 5.7141 0
M  V30 30 H -1.1602 -4.8977 -3.9422 0
M  V30 31 H 3.8934 -3.2249 -5.0736 0
M  V30 32 H -1.5632 -0.8741 -1.1227 0
M  V30 33 H -3.1731 -4.5585 -2.5902 0
M  V30 34 H 3.0303 0.619 -2.111 0
M  V30 35 H 5.6878 -1.6226 -4.5611 0
M  V30 36 H -0.5683 0.678 -2.1452 0
M  V30 37 H 1.0309 1.1966 -2.4313 0
M  V30 38 H 5.2232 0.3016 -3.0645 0
M  V30 39 H 1.8019 0.2992 -0.219 0
M  V30 40 H 0.2218 -0.3817 0.0932 0
M  V30 41 H 0.8762 2.5987 -0.2178 0
M  V30 42 H -0.7642 1.9524 -0.1719 0
M  V30 43 H -3.6376 -0.366 -0.7553 0
M  V30 44 H -5.0595 -1.1021 -0.0668 0
M  V30 45 H -3.7603 -2.0961 1.7921 0
M  V30 46 H -2.2512 -1.506 1.1174 0
M  V30 47 H 2.0859 0.7528 1.9501 0
M  V30 48 H 2.247 2.5089 1.8149 0
M  V30 49 H -1.4506 3.0183 1.8112 0
M  V30 50 H 0.0814 3.8989 1.751 0
M  V30 51 H -3.0139 -0.0272 2.9359 0
M  V30 52 H -3.033 0.8577 1.4015 0
M  V30 53 H -4.5508 0.2618 2.1019 0
M  V30 54 H 2.6573 1.7835 4.108 0
M  V30 55 H 1.128 0.898 4.1721 0
M  V30 56 H -1.0337 2.263 4.0938 0
M  V30 57 H -0.886 4.0225 3.9914 0
M  V30 58 H 0.3609 2.1843 6.1291 0
M  V30 59 H 1.9298 3.0177 6.1231 0
M  V30 60 H 0.4451 3.9579 6.0735 0
M  V30 END ATOM
M  V30 BEGIN BOND
M  V30 1 1 1 2
M  V30 2 1 1 3
M  V30 3 2 2 4
M  V30 4 1 2 5
M  V30 5 2 3 6
M  V30 6 1 3 7
M  V30 7 1 4 8
M  V30 8 1 4 9
M  V30 9 2 5 10
M  V30 10 1 6 11
M  V30 11 2 7 12
M  V30 12 1 8 13
M  V30 13 2 9 14
M  V30 14 2 11 15
M  V30 15 1 13 16
M  V30 16 1 14 17
M  V30 17 1 16 18
M  V30 18 2 17 19
M  V30 19 1 17 20
M  V30 20 1 18 21
M  V30 21 1 20 22
M  V30 22 1 21 23
M  V30 23 1 21 24
M  V30 24 1 22 25
M  V30 25 1 23 26
M  V30 26 1 24 27
M  V30 27 1 26 28
M  V30 28 1 28 29
M  V30 29 1 6 8
M  V30 30 1 10 14
M  V30 31 1 12 15
M  V30 32 1 27 28
M  V30 33 1 5 30
M  V30 34 1 7 31
M  V30 35 1 9 32
M  V30 36 1 10 33
M  V30 37 1 11 34
M  V30 38 1 12 35
M  V30 39 1 13 36
M  V30 40 1 13 37
M  V30 41 1 15 38
M  V30 42 1 16 39
M  V30 43 1 16 40
M  V30 44 1 18 41
M  V30 45 1 18 42
M  V30 46 1 20 43
M  V30 47 1 20 44
M  V30 48 1 22 45
M  V30 49 1 22 46
M  V30 50 1 23 47
M  V30 51 1 23 48
M  V30 52 1 24 49
M  V30 53 1 24 50
M  V30 54 1 25 51
M  V30 55 1 25 52
M  V30 56 1 25 53
M  V30 57 1 26 54
M  V30 58 1 26 55
M  V30 59 1 27 56
M  V30 60 1 27 57
M  V30 61 1 29 58
M  V30 62 1 29 59
M  V30 63 1 29 60
M  V30 END BOND
M  V30 END CTAB
M  END
>  <Column 1>
808

>  <level_0>
924

>  <index>
924

>  <Unnamed: 0>
924

>  <NO.>
936

>  <Name>
butaperazine

>  <IUPAC_name>
1-[10-[3-(4-methylpiperazin-1-yl)propyl]phenothiazin-2-yl]butan-1-one

>  <SMILES>
CCCC(=O)c1ccc2c(c1)N(CCCN1CCN(C)CC1)c1ccccc1S2

>  <CID>
12598

>  <logBB>
0.83

>  <BBB+/BBB->
BBB+

>  <Inchi>
InChI=1S/C24H31N3OS/c1-3-7-22(28)19-10-11-24-21(18-19)27(20-8-4-5-9-23(20)29-24)13-6-12-26-16-14-25(2)15-17-26/h4-5-8-11-18H-3-6-7-12-17H2-1-2H3

>  <threshold>


>  <reference>
R2|R2|R8|R27|R40|R21|R25|R27|R43|R46|R47|R27|R21|R4|

>  <group>
A

>  <Class>
1

>  <ABC>
22.64

>  <ABCGG>
16.61

>  <nAcid>
0

>  <nBase>
2

>  <nAromAtom>
12

>  <nAromBond>
12

>  <nAtom>
60

>  <nHeavyAtom>
29

>  <nSpiro>
0

>  <nBridgehead>
0

>  <nHetero>
5

>  <nN>
3

>  <nO>
1

>  <nF>
0

>  <BalabanJ>
1.38

>  <BertzCT>
860.95

>  <nBonds>
63

>  <nBondsO>
32

>  <nBondsS>
50

>  <nBondsD>
1

>  <nBondsT>
0

>  <nBondsA>
12

>  <nBondsM>
13

>  <nBondsKS>
56

>  <nBondsKD>
7

>  <RNCG>
0.19

>  <RPCG>
0.09

>  <FCSP3>
0.46

>  <SZ>
36.67

>  <Sm>
34.1

>  <Sv>
36.57

>  <Sse>
59.16

>  <Sp>
40.57

>  <Si>
67.44

>  <MZ>
0.61

>  <Mm>
0.57

>  <Mv>
0.61

>  <Mse>
0.99

>  <Mp>
0.68

>  <Mi>
1.12

>  <NsCH3>
2

>  <NdCH2>
0

>  <NssCH2>
9

>  <NtCH>
0

>  <NdsCH>
0

>  <NaaCH>
7

>  <NsssCH>
0

>  <NddC>
0

>  <NtsC>
0

>  <NdssC>
1

>  <NaasC>
5

>  <NaaaC>
0

>  <NssssC>
0

>  <NsNH3>
0

>  <NsNH2>
0

>  <NssNH2>
0

>  <NdNH>
0

>  <NssNH>
0

>  <NaaNH>
0

>  <NtN>
0

>  <NsssNH>
0

>  <NdsN>
0

>  <NaaN>
0

>  <NsssN>
3

>  <NddsN>
0

>  <NaasN>
0

>  <NssssN>
0

>  <NsOH>
0

>  <NdO>
1

>  <NssO>
0

>  <NaaO>
0

>  <NsF>
0

>  <NsSiH3>
0

>  <NssSiH2>
0

>  <NsssSiH>
0

>  <NssssSi>
0

>  <NsPH2>
0

>  <NssPH>
0

>  <NsssP>
0

>  <NdsssP>
0

>  <NsssssP>
0

>  <NsSH>
0

>  <NdS>
0

>  <NssS>
1

>  <NaaS>
0

>  <NdssS>
0

>  <NddssS>
0

>  <NsCl>
0

>  <NsBr>
0

>  <NsI>
0

>  <fragCpx>
212.05

>  <fMF>
0.38

>  <nHBAcc>
5

>  <nHBDon>
0

>  <Kier1>
22.2

>  <Kier2>
10.54

>  <Lipinski>
1

>  <GhoseFilter>
1

>  <FilterItLogS>
-5.74

>  <VMcGowan>
327.64

>  <LabuteASA>
178.42

>  <PEOE_VSA1>
14.7

>  <PEOE_VSA2>
4.79

>  <PEOE_VSA3>
0

>  <PEOE_VSA4>
0

>  <PEOE_VSA5>
0

>  <PEOE_VSA6>
36.88

>  <PEOE_VSA7>
50.7

>  <PEOE_VSA8>
54.5

>  <PEOE_VSA9>
11.37

>  <PEOE_VSA10>
0

>  <PEOE_VSA11>
5.78

>  <PEOE_VSA12>
0

>  <PEOE_VSA13>
0

>  <SMR_VSA1>
4.79

>  <SMR_VSA2>
0

>  <SMR_VSA3>
9.8

>  <SMR_VSA4>
0

>  <SMR_VSA5>
35.98

>  <SMR_VSA6>
51.22

>  <SMR_VSA7>
48.03

>  <SMR_VSA8>
0

>  <SMR_VSA9>
0

>  <SlogP_VSA1>
4.9

>  <SlogP_VSA2>
61.9

>  <SlogP_VSA3>
0

>  <SlogP_VSA4>
0

>  <SlogP_VSA5>
36.54

>  <SlogP_VSA6>
52.26

>  <SlogP_VSA7>
0

>  <SlogP_VSA8>
0

>  <SlogP_VSA9>
0

>  <SlogP_VSA10>
11.37

>  <SlogP_VSA11>
0

>  <EState_VSA1>
0

>  <EState_VSA2>
5.78

>  <EState_VSA3>
6.42

>  <EState_VSA4>
57.67

>  <EState_VSA5>
21.17

>  <EState_VSA6>
0

>  <EState_VSA7>
17.83

>  <EState_VSA8>
65.07

>  <EState_VSA9>
0

>  <EState_VSA10>
4.79

>  <VSA_EState1>
0

>  <VSA_EState2>
22.45

>  <VSA_EState3>
0

>  <VSA_EState4>
3.3

>  <VSA_EState5>
0.25

>  <VSA_EState6>
14.88

>  <VSA_EState7>
2.63

>  <VSA_EState8>
8.81

>  <VSA_EState9>
2.2

>  <apol>
67.75

>  <bpol>
39.56

>  <nRing>
4

>  <nHRing>
2

>  <naRing>
2

>  <naHRing>
0

>  <nARing 2>
2

>  <nAHRing 2>
2

>  <nFRing>
1

>  <nFHRing>
1

>  <nFaRing>
0

>  <nFaHRing>
0

>  <nFARing 2>
1

>  <nFAHRing 2>
1

>  <nRot>
7

>  <SLogP>
4.91

>  <SMR>
121.81

>  <TopoPSA(NO)>
26.79

>  <TopoPSA>
52.09

>  <JGI1>
0.16

>  <JGI2>
0.08

>  <JGI3>
0.03

>  <JGI4>
0.04

>  <JGI5>
0.02

>  <Diameter>
15

>  <Radius>
8

>  <TMWC10>
137.85

>  <TSRW10>
64.6

>  <MW>
409.22

>  <AMW>
6.82

>  <WPath>
2332

>  <WPol>
47

>  <Zagreb1>
152

>  <Zagreb2>
179

>  <mZagreb2>
6.47

>  <yes>


>  <nAR-cont>
1

>  <nHA-cont>
0.785905698

>  <MWHBN>
0.247167622

>  <MWHBN-cont>
0.964411068

>  <TPSA-cont>
0.636379454

>  <pka_cont>
0.97

>  <yes.1>


>  <BBB_SCORE>
4.990281209

>  <MMFF94 Energy>
147.18

$$$$
Compound 672
Actelion Java MolfileCreator 2.0

  0  0  0  0  0  0              0 V3000
M  V30 BEGIN CTAB
M  V30 COUNTS 41 42 0 0 0
M  V30 BEGIN ATOM
M  V30 1 F 5.5528 0.3166 6.2685 0
M  V30 2 C 4.8168 0.4477 5.1576 0
M  V30 3 C 5.215 1.342 4.1725 0
M  V30 4 C 3.664 -0.3149 5.0066 0
M  V30 5 C 4.4453 1.4762 3.0148 0
M  V30 6 C 2.8904 -0.1835 3.8489 0
M  V30 7 C 3.2764 0.7157 2.8443 0
M  V30 8 C 2.4888 0.8971 1.5848 0
M  V30 9 O 2.9211 1.6507 0.7153 0
M  V30 10 C 1.1856 0.1314 1.4241 0
M  V30 11 C 0.4485 0.5071 0.1356 0
M  V30 12 C -0.8379 -0.3142 -0.0197 0
M  V30 13 N -1.6882 0.1314 -1.137 0
M  V30 14 C -2.997 -0.54 -1.0677 0
M  V30 15 C -1.0535 -0.0915 -2.4456 0
M  V30 16 C -3.9424 -0.0532 -2.1682 0
M  V30 17 C -1.9391 0.4035 -3.5938 0
M  V30 18 C -3.3439 -0.2073 -3.5699 0
M  V30 19 C -3.337 -1.6673 -4.0296 0
M  V30 20 H 6.1185 1.9283 4.3083 0
M  V30 21 H 3.3755 -1.0076 5.7917 0
M  V30 22 H 4.7612 2.1784 2.2445 0
M  V30 23 H 1.9975 -0.7947 3.7577 0
M  V30 24 H 1.4151 -0.94 1.4113 0
M  V30 25 H 0.5403 0.3549 2.2812 0
M  V30 26 H 0.2098 1.5782 0.1508 0
M  V30 27 H 1.1159 0.3384 -0.7171 0
M  V30 28 H -0.5885 -1.3785 -0.123 0
M  V30 29 H -1.4065 -0.2113 0.914 0
M  V30 30 H -3.4719 -0.321 -0.103 0
M  V30 31 H -2.8804 -1.6297 -1.1254 0
M  V30 32 H -0.1119 0.4637 -2.5119 0
M  V30 33 H -0.8119 -1.1524 -2.5863 0
M  V30 34 H -4.8961 -0.5901 -2.0995 0
M  V30 35 H -4.1698 1.0072 -1.9951 0
M  V30 36 H -2.0287 1.4961 -3.5228 0
M  V30 37 H -1.4493 0.1949 -4.5525 0
M  V30 38 H -3.9737 0.3486 -4.2764 0
M  V30 39 H -2.9418 -1.7469 -5.048 0
M  V30 40 H -4.3547 -2.0724 -4.0364 0
M  V30 41 H -2.7275 -2.3064 -3.3843 0
M  V30 END ATOM
M  V30 BEGIN BOND
M  V30 1 1 1 2
M  V30 2 2 2 3
M  V30 3 1 2 4
M  V30 4 1 3 5
M  V30 5 2 4 6
M  V30 6 2 5 7
M  V30 7 1 7 8
M  V30 8 2 8 9
M  V30 9 1 8 10
M  V30 10 1 10 11
M  V30 11 1 11 12
M  V30 12 1 12 13
M  V30 13 1 13 14
M  V30 14 1 13 15
M  V30 15 1 14 16
M  V30 16 1 15 17
M  V30 17 1 16 18
M  V30 18 1 18 19
M  V30 19 1 6 7
M  V30 20 1 17 18
M  V30 21 1 3 20
M  V30 22 1 4 21
M  V30 23 1 5 22
M  V30 24 1 6 23
M  V30 25 1 10 24
M  V30 26 1 10 25
M  V30 27 1 11 26
M  V30 28 1 11 27
M  V30 29 1 12 28
M  V30 30 1 12 29
M  V30 31 1 14 30
M  V30 32 1 14 31
M  V30 33 1 15 32
M  V30 34 1 15 33
M  V30 35 1 16 34
M  V30 36 1 16 35
M  V30 37 1 17 36
M  V30 38 1 17 37
M  V30 39 1 18 38
M  V30 40 1 19 39
M  V30 41 1 19 40
M  V30 42 1 19 41
M  V30 END BOND
M  V30 END CTAB
M  END
>  <Column 1>
809

>  <level_0>
925

>  <index>
925

>  <Unnamed: 0>
925

>  <NO.>
937

>  <Name>
melperone

>  <IUPAC_name>
1-(4-fluorophenyl)-4-(4-methylpiperidin-1-yl)butan-1-one

>  <SMILES>
CC1CCN(CCCC(=O)c2ccc(F)cc2)CC1

>  <CID>
15387

>  <logBB>
0.83

>  <BBB+/BBB->
BBB+

>  <Inchi>
InChI=1S/C16H22FNO/c1-13-8-11-18(12-9-13)10-2-3-16(19)14-4-6-15(17)7-5-14/h4-7-13H-2-3-8-12H2-1H3

>  <threshold>


>  <reference>
R18|R26|R27|

>  <group>
A

>  <Class>
1

>  <ABC>
14.43

>  <ABCGG>
11.51

>  <nAcid>
0

>  <nBase>
1

>  <nAromAtom>
6

>  <nAromBond>
6

>  <nAtom>
41

>  <nHeavyAtom>
19

>  <nSpiro>
0

>  <nBridgehead>
0

>  <nHetero>
3

>  <nN>
1

>  <nO>
1

>  <nF>
1

>  <BalabanJ>
1.57

>  <BertzCT>
407.26

>  <nBonds>
42

>  <nBondsO>
20

>  <nBondsS>
35

>  <nBondsD>
1

>  <nBondsT>
0

>  <nBondsA>
6

>  <nBondsM>
7

>  <nBondsKS>
38

>  <nBondsKD>
4

>  <RNCG>
0.26

>  <RPCG>
0.14

>  <FCSP3>
0.56

>  <SZ>
23.67

>  <Sm>
21.93

>  <Sv>
24.08

>  <Sse>
40.72

>  <Sp>
26.26

>  <Si>
46.62

>  <MZ>
0.58

>  <Mm>
0.53

>  <Mv>
0.59

>  <Mse>
0.99

>  <Mp>
0.64

>  <Mi>
1.14

>  <NsCH3>
1

>  <NdCH2>
0

>  <NssCH2>
7

>  <NtCH>
0

>  <NdsCH>
0

>  <NaaCH>
4

>  <NsssCH>
1

>  <NddC>
0

>  <NtsC>
0

>  <NdssC>
1

>  <NaasC>
2

>  <NaaaC>
0

>  <NssssC>
0

>  <NsNH3>
0

>  <NsNH2>
0

>  <NssNH2>
0

>  <NdNH>
0

>  <NssNH>
0

>  <NaaNH>
0

>  <NtN>
0

>  <NsssNH>
0

>  <NdsN>
0

>  <NaaN>
0

>  <NsssN>
1

>  <NddsN>
0

>  <NaasN>
0

>  <NssssN>
0

>  <NsOH>
0

>  <NdO>
1

>  <NssO>
0

>  <NaaO>
0

>  <NsF>
1

>  <NsSiH3>
0

>  <NssSiH2>
0

>  <NsssSiH>
0

>  <NssssSi>
0

>  <NsPH2>
0

>  <NssPH>
0

>  <NsssP>
0

>  <NdsssP>
0

>  <NsssssP>
0

>  <NsSH>
0

>  <NdS>
0

>  <NssS>
0

>  <NaaS>
0

>  <NdssS>
0

>  <NddssS>
0

>  <NsCl>
0

>  <NsBr>
0

>  <NsI>
0

>  <fragCpx>
58.03

>  <fMF>
0.39

>  <nHBAcc>
2

>  <nHBDon>
0

>  <Kier1>
15.39

>  <Kier2>
7.7

>  <Lipinski>
1

>  <GhoseFilter>
1

>  <FilterItLogS>
-4.12

>  <VMcGowan>
214.99

>  <LabuteASA>
114.16

>  <PEOE_VSA1>
4.9

>  <PEOE_VSA2>
4.79

>  <PEOE_VSA3>
4.39

>  <PEOE_VSA4>
0

>  <PEOE_VSA5>
0

>  <PEOE_VSA6>
6.92

>  <PEOE_VSA7>
69.08

>  <PEOE_VSA8>
11.98

>  <PEOE_VSA9>
0

>  <PEOE_VSA10>
5.82

>  <PEOE_VSA11>
5.78

>  <PEOE_VSA12>
0

>  <PEOE_VSA13>
0

>  <SMR_VSA1>
9.18

>  <SMR_VSA2>
0

>  <SMR_VSA3>
4.9

>  <SMR_VSA4>
5.92

>  <SMR_VSA5>
32.61

>  <SMR_VSA6>
19.63

>  <SMR_VSA7>
35.65

>  <SMR_VSA8>
0

>  <SMR_VSA9>
0

>  <SlogP_VSA1>
0

>  <SlogP_VSA2>
30.32

>  <SlogP_VSA3>
0

>  <SlogP_VSA4>
11.74

>  <SlogP_VSA5>
42.97

>  <SlogP_VSA6>
24.27

>  <SlogP_VSA7>
0

>  <SlogP_VSA8>
0

>  <SlogP_VSA9>
0

>  <SlogP_VSA10>
4.39

>  <SlogP_VSA11>
0

>  <EState_VSA1>
0

>  <EState_VSA2>
11.6

>  <EState_VSA3>
11.98

>  <EState_VSA4>
31.97

>  <EState_VSA5>
24.97

>  <EState_VSA6>
12.13

>  <EState_VSA7>
0

>  <EState_VSA8>
11.82

>  <EState_VSA9>
0

>  <EState_VSA10>
9.18

>  <VSA_EState1>
12.76

>  <VSA_EState2>
14.35

>  <VSA_EState3>
0

>  <VSA_EState4>
0.62

>  <VSA_EState5>
0.67

>  <VSA_EState6>
5.83

>  <VSA_EState7>
3.99

>  <VSA_EState8>
5.62

>  <VSA_EState9>
0

>  <apol>
43.85

>  <bpol>
25.76

>  <nRing>
2

>  <nHRing>
1

>  <naRing>
1

>  <naHRing>
0

>  <nARing 2>
1

>  <nAHRing 2>
1

>  <nFRing>
0

>  <nFHRing>
0

>  <nFaRing>
0

>  <nFaHRing>
0

>  <nFARing 2>
0

>  <nFAHRing 2>
0

>  <nRot>
5

>  <SLogP>
3.52

>  <SMR>
74.8

>  <TopoPSA(NO)>
20.31

>  <TopoPSA>
20.31

>  <JGI1>
0.2

>  <JGI2>
0.09

>  <JGI3>
0.03

>  <JGI4>
0.04

>  <JGI5>
0.03

>  <Diameter>
13

>  <Radius>
7

>  <TMWC10>
108.92

>  <TSRW10>
51.57

>  <MW>
263.17

>  <AMW>
6.42

>  <WPath>
850

>  <WPol>
24

>  <Zagreb1>
92

>  <Zagreb2>
102

>  <mZagreb2>
4.28

>  <yes>


>  <nAR-cont>
0.816016

>  <nHA-cont>
0.998649058

>  <MWHBN>
0.123285445

>  <MWHBN-cont>
0.843219865

>  <TPSA-cont>
0.858223588

>  <pka_cont>
0.97

>  <yes.1>


>  <BBB_SCORE>
5.280942031

>  <MMFF94 Energy>
37.275

$$$$
Compound 673
Actelion Java MolfileCreator 2.0

  0  0  0  0  0  0              0 V3000
M  V30 BEGIN CTAB
M  V30 COUNTS 54 56 0 0 0
M  V30 BEGIN ATOM
M  V30 1 N 0.0 0.3151 0.9457 0
M  V30 2 C 1.1699 0.9599 1.3289 0
M  V30 3 C -0.142 -1.0994 1.3434 0
M  V30 4 C -0.9739 1.0567 0.1418 0
M  V30 5 C 2.4208 0.5539 0.8329 0
M  V30 6 C 1.1156 2.0312 2.233 0
M  V30 7 C 0.4534 -2.0292 0.2561 0
M  V30 8 C -1.6 -1.3755 1.7742 0
M  V30 9 C -0.473 1.3168 -1.2824 0
M  V30 10 C 3.584 1.2189 1.2601 0
M  V30 11 C 2.529 -0.5193 -0.2226 0
M  V30 12 C 2.2753 2.6826 2.6543 0
M  V30 13 C 1.9998 -1.8899 0.1955 0
M  V30 14 C 0.1548 -3.5357 0.4482 0
M  V30 15 C -1.7786 -2.6853 2.536 0
M  V30 16 C -1.5052 2.126 -2.0784 0
M  V30 17 C 3.5116 2.2733 2.1694 0
M  V30 18 C -1.3163 -3.9113 0.3169 0
M  V30 19 C -2.0811 -3.8767 1.6349 0
M  V30 20 N -1.1608 2.2729 -3.5043 0
M  V30 21 C 0.0484 3.0758 -3.7007 0
M  V30 22 C -2.2797 2.8818 -4.2291 0
M  V30 23 H 0.4539 -1.2498 2.257 0
M  V30 24 H -1.2131 2.0096 0.6307 0
M  V30 25 H -1.9229 0.5186 0.0751 0
M  V30 26 H 0.1562 2.3474 2.6339 0
M  V30 27 H 0.0497 -1.7364 -0.7218 0
M  V30 28 H -2.2872 -1.348 0.9217 0
M  V30 29 H -1.9122 -0.5635 2.4457 0
M  V30 30 H -0.2835 0.3626 -1.7872 0
M  V30 31 H 0.4771 1.8598 -1.2428 0
M  V30 32 H 4.5572 0.9233 0.8751 0
M  V30 33 H 3.5864 -0.6462 -0.4904 0
M  V30 34 H 2.0369 -0.1795 -1.1409 0
M  V30 35 H 2.2098 3.5034 3.3627 0
M  V30 36 H 2.4361 -2.1774 1.1615 0
M  V30 37 H 2.3795 -2.6115 -0.5402 0
M  V30 38 H 0.6901 -4.0862 -0.3372 0
M  V30 39 H 0.5662 -3.8946 1.3999 0
M  V30 40 H -2.6142 -2.5789 3.2395 0
M  V30 41 H -0.8955 -2.8932 3.1519 0
M  V30 42 H -2.4661 1.5994 -2.0063 0
M  V30 43 H -1.646 3.1096 -1.6108 0
M  V30 44 H 4.4184 2.7774 2.4919 0
M  V30 45 H -1.3887 -4.9323 -0.0791 0
M  V30 46 H -1.8068 -3.2698 -0.425 0
M  V30 47 H -1.8779 -4.7957 2.1991 0
M  V30 48 H -3.1545 -3.8955 1.4076 0
M  V30 49 H 0.9293 2.575 -3.2875 0
M  V30 50 H -0.0364 4.069 -3.245 0
M  V30 51 H 0.2533 3.2068 -4.7696 0
M  V30 52 H -2.5131 3.8873 -3.86 0
M  V30 53 H -3.1799 2.2632 -4.1401 0
M  V30 54 H -2.0548 2.95 -5.2994 0
M  V30 END ATOM
M  V30 BEGIN BOND
M  V30 1 1 1 2
M  V30 2 1 1 3
M  V30 3 1 1 4
M  V30 4 2 2 5
M  V30 5 1 2 6
M  V30 6 1 3 7
M  V30 7 1 3 8
M  V30 8 1 4 9
M  V30 9 1 5 10
M  V30 10 1 5 11
M  V30 11 2 6 12
M  V30 12 1 7 13
M  V30 13 1 7 14
M  V30 14 1 8 15
M  V30 15 1 9 16
M  V30 16 2 10 17
M  V30 17 1 14 18
M  V30 18 1 15 19
M  V30 19 1 16 20
M  V30 20 1 20 21
M  V30 21 1 20 22
M  V30 22 1 11 13
M  V30 23 1 12 17
M  V30 24 1 18 19
M  V30 25 1 3 23
M  V30 26 1 4 24
M  V30 27 1 4 25
M  V30 28 1 6 26
M  V30 29 1 7 27
M  V30 30 1 8 28
M  V30 31 1 8 29
M  V30 32 1 9 30
M  V30 33 1 9 31
M  V30 34 1 10 32
M  V30 35 1 11 33
M  V30 36 1 11 34
M  V30 37 1 12 35
M  V30 38 1 13 36
M  V30 39 1 13 37
M  V30 40 1 14 38
M  V30 41 1 14 39
M  V30 42 1 15 40
M  V30 43 1 15 41
M  V30 44 1 16 42
M  V30 45 1 16 43
M  V30 46 1 17 44
M  V30 47 1 18 45
M  V30 48 1 18 46
M  V30 49 1 19 47
M  V30 50 1 19 48
M  V30 51 1 21 49
M  V30 52 1 21 50
M  V30 53 1 21 51
M  V30 54 1 22 52
M  V30 55 1 22 53
M  V30 56 1 22 54
M  V30 END BOND
M  V30 END CTAB
M  END
>  <Column 1>
810

>  <level_0>
926

>  <index>
926

>  <Unnamed: 0>
926

>  <NO.>
938

>  <Name>
s113 amitryptalline

>  <IUPAC_name>


>  <SMILES>
CN(C)CCCN1c2ccccc2CCC2CCCCCC21

>  <CID>


>  <logBB>
0.83

>  <BBB+/BBB->
BBB+

>  <Inchi>
InChI=1S/C20H32N2/c1-21(2)15-8-16-22-19-11-5-3-4-9-17(19)13-14-18-10-6-7-12-20(18)22/h6-7-10-12-17-19H-3-5-8-9-11-13-16H2-1-2H3

>  <threshold>


>  <reference>
R47|

>  <group>
A

>  <Class>
1

>  <ABC>
17.03

>  <ABCGG>
13.75

>  <nAcid>
0

>  <nBase>
1

>  <nAromAtom>
6

>  <nAromBond>
6

>  <nAtom>
54

>  <nHeavyAtom>
22

>  <nSpiro>
0

>  <nBridgehead>
0

>  <nHetero>
2

>  <nN>
2

>  <nO>
0

>  <nF>
0

>  <BalabanJ>
1.73

>  <BertzCT>
468.53

>  <nBonds>
56

>  <nBondsO>
24

>  <nBondsS>
50

>  <nBondsD>
0

>  <nBondsT>
0

>  <nBondsA>
6

>  <nBondsM>
6

>  <nBondsKS>
53

>  <nBondsKD>
3

>  <RNCG>
0.28

>  <RPCG>
0.05

>  <FCSP3>
0.7

>  <SZ>
27.67

>  <Sm>
25.02

>  <Sv>
30.19

>  <Sse>
52.53

>  <Sp>
34.09

>  <Si>
61.23

>  <MZ>
0.51

>  <Mm>
0.46

>  <Mv>
0.56

>  <Mse>
0.97

>  <Mp>
0.63

>  <Mi>
1.13

>  <NsCH3>
2

>  <NdCH2>
0

>  <NssCH2>
10

>  <NtCH>
0

>  <NdsCH>
0

>  <NaaCH>
4

>  <NsssCH>
2

>  <NddC>
0

>  <NtsC>
0

>  <NdssC>
0

>  <NaasC>
2

>  <NaaaC>
0

>  <NssssC>
0

>  <NsNH3>
0

>  <NsNH2>
0

>  <NssNH2>
0

>  <NdNH>
0

>  <NssNH>
0

>  <NaaNH>
0

>  <NtN>
0

>  <NsssNH>
0

>  <NdsN>
0

>  <NaaN>
0

>  <NsssN>
2

>  <NddsN>
0

>  <NaasN>
0

>  <NssssN>
0

>  <NsOH>
0

>  <NdO>
0

>  <NssO>
0

>  <NaaO>
0

>  <NsF>
0

>  <NsSiH3>
0

>  <NssSiH2>
0

>  <NsssSiH>
0

>  <NssssSi>
0

>  <NsPH2>
0

>  <NssPH>
0

>  <NsssP>
0

>  <NdsssP>
0

>  <NsssssP>
0

>  <NsSH>
0

>  <NdS>
0

>  <NssS>
0

>  <NaaS>
0

>  <NdssS>
0

>  <NddssS>
0

>  <NsCl>
0

>  <NsBr>
0

>  <NsI>
0

>  <fragCpx>
114.02

>  <fMF>
0.3

>  <nHBAcc>
2

>  <nHBDon>
0

>  <Kier1>
16.84

>  <Kier2>
8.2

>  <Lipinski>
1

>  <GhoseFilter>
1

>  <FilterItLogS>
-4.48

>  <VMcGowan>
267.14

>  <LabuteASA>
136.05

>  <PEOE_VSA1>
9.8

>  <PEOE_VSA2>
0

>  <PEOE_VSA3>
0

>  <PEOE_VSA4>
0

>  <PEOE_VSA5>
0

>  <PEOE_VSA6>
37.46

>  <PEOE_VSA7>
70.29

>  <PEOE_VSA8>
18.27

>  <PEOE_VSA9>
0

>  <PEOE_VSA10>
0

>  <PEOE_VSA11>
0

>  <PEOE_VSA12>
0

>  <PEOE_VSA13>
0

>  <SMR_VSA1>
0

>  <SMR_VSA2>
0

>  <SMR_VSA3>
4.9

>  <SMR_VSA4>
5.92

>  <SMR_VSA5>
57.41

>  <SMR_VSA6>
32.08

>  <SMR_VSA7>
29.83

>  <SMR_VSA8>
0

>  <SMR_VSA9>
0

>  <SlogP_VSA1>
4.9

>  <SlogP_VSA2>
38.13

>  <SlogP_VSA3>
6.42

>  <SlogP_VSA4>
5.92

>  <SlogP_VSA5>
50.51

>  <SlogP_VSA6>
24.27

>  <SlogP_VSA7>
0

>  <SlogP_VSA8>
0

>  <SlogP_VSA9>
0

>  <SlogP_VSA10>
5.69

>  <SlogP_VSA11>
0

>  <EState_VSA1>
0

>  <EState_VSA2>
0

>  <EState_VSA3>
0

>  <EState_VSA4>
11.96

>  <EState_VSA5>
70.14

>  <EState_VSA6>
5.56

>  <EState_VSA7>
0

>  <EState_VSA8>
48.16

>  <EState_VSA9>
0

>  <EState_VSA10>
0

>  <VSA_EState1>
0

>  <VSA_EState2>
5.11

>  <VSA_EState3>
0

>  <VSA_EState4>
3.12

>  <VSA_EState5>
0.91

>  <VSA_EState6>
9.97

>  <VSA_EState7>
11.11

>  <VSA_EState8>
2.41

>  <VSA_EState9>
4.37

>  <apol>
56.94

>  <bpol>
35.52

>  <nRing>
3

>  <nHRing>
1

>  <naRing>
1

>  <naHRing>
0

>  <nARing 2>
2

>  <nAHRing 2>
1

>  <nFRing>
1

>  <nFHRing>
1

>  <nFaRing>
0

>  <nFaHRing>
0

>  <nFARing 2>
1

>  <nFAHRing 2>
1

>  <nRot>
4

>  <SLogP>
4.34

>  <SMR>
95.64

>  <TopoPSA(NO)>
6.48

>  <TopoPSA>
6.48

>  <JGI1>
0.13

>  <JGI2>
0.07

>  <JGI3>
0.04

>  <JGI4>
0.03

>  <JGI5>
0.01

>  <Diameter>
9

>  <Radius>
5

>  <TMWC10>
119.73

>  <TSRW10>
65.06

>  <MW>
300.26

>  <AMW>
5.56

>  <WPath>
993

>  <WPol>
39

>  <Zagreb1>
112

>  <Zagreb2>
130

>  <mZagreb2>
4.94

>  <yes>


>  <nAR-cont>
1

>  <nHA-cont>
0.983774276

>  <MWHBN>
0.115420049

>  <MWHBN-cont>
0.808985781

>  <TPSA-cont>
0.954765576

>  <pka_cont>
0.97

>  <yes.1>


>  <BBB_SCORE>
5.591784099

>  <MMFF94 Energy>
58.18

$$$$
Compound 674
Actelion Java MolfileCreator 2.0

  0  0  0  0  0  0              0 V3000
M  V30 BEGIN CTAB
M  V30 COUNTS 42 44 0 0 0
M  V30 BEGIN ATOM
M  V30 1 N -0.4742 0.9486 -0.079 0
M  V30 2 C -1.7673 0.5803 -0.5285 0
M  V30 3 C 0.3343 1.9047 -0.7435 0
M  V30 4 C 0.0474 0.3214 1.15 0
M  V30 5 C -2.3638 1.3074 -1.5766 0
M  V30 6 C -2.5034 -0.497 -0.0014 0
M  V30 7 C -0.2183 2.66 -1.7959 0
M  V30 8 C 1.6853 2.1425 -0.4303 0
M  V30 9 C 0.8283 -0.9627 0.8434 0
M  V30 10 C -3.6484 0.9757 -2.05 0
M  V30 11 C -1.6604 2.4876 -2.1923 0
M  V30 12 C -3.7773 -0.8288 -0.4787 0
M  V30 13 C 0.5501 3.6228 -2.4792 0
M  V30 14 C 2.449 3.095 -1.1162 0
M  V30 15 C 1.2922 -1.6293 2.1443 0
M  V30 16 C -4.352 -0.0899 -1.5024 0
M  V30 17 C 1.8801 3.8384 -2.14 0
M  V30 18 N 2.1872 -2.778 1.9254 0
M  V30 19 C 1.5087 -3.8941 1.2631 0
M  V30 20 C 2.7471 -3.2293 3.2025 0
M  V30 21 H -0.7649 0.1126 1.8577 0
M  V30 22 H 0.6753 1.023 1.7138 0
M  V30 23 H -2.1038 -1.1254 0.7868 0
M  V30 24 H 2.1956 1.5824 0.3458 0
M  V30 25 H 1.6962 -0.7366 0.2131 0
M  V30 26 H 0.1968 -1.648 0.2684 0
M  V30 27 H -4.0999 1.5554 -2.852 0
M  V30 28 H -1.704 2.3797 -3.2839 0
M  V30 29 H -2.2055 3.3977 -1.9112 0
M  V30 30 H -4.3141 -1.6697 -0.0475 0
M  V30 31 H 0.1044 4.2063 -3.2816 0
M  V30 32 H 3.4909 3.247 -0.8471 0
M  V30 33 H 1.8335 -0.8729 2.7279 0
M  V30 34 H 0.4195 -1.9266 2.7408 0
M  V30 35 H -5.3406 -0.3431 -1.8745 0
M  V30 36 H 2.4692 4.5788 -2.6735 0
M  V30 37 H 1.1994 -3.6255 0.2484 0
M  V30 38 H 0.6271 -4.2304 1.8205 0
M  V30 39 H 2.1889 -4.7466 1.1524 0
M  V30 40 H 1.9702 -3.5707 3.8963 0
M  V30 41 H 3.3104 -2.4221 3.6841 0
M  V30 42 H 3.4553 -4.0505 3.0449 0
M  V30 END ATOM
M  V30 BEGIN BOND
M  V30 1 1 1 2
M  V30 2 1 1 3
M  V30 3 1 1 4
M  V30 4 2 2 5
M  V30 5 1 2 6
M  V30 6 2 3 7
M  V30 7 1 3 8
M  V30 8 1 4 9
M  V30 9 1 5 10
M  V30 10 1 5 11
M  V30 11 2 6 12
M  V30 12 1 7 13
M  V30 13 2 8 14
M  V30 14 1 9 15
M  V30 15 2 10 16
M  V30 16 2 13 17
M  V30 17 1 15 18
M  V30 18 1 18 19
M  V30 19 1 18 20
M  V30 20 1 7 11
M  V30 21 1 12 16
M  V30 22 1 14 17
M  V30 23 1 4 21
M  V30 24 1 4 22
M  V30 25 1 6 23
M  V30 26 1 8 24
M  V30 27 1 9 25
M  V30 28 1 9 26
M  V30 29 1 10 27
M  V30 30 1 11 28
M  V30 31 1 11 29
M  V30 32 1 12 30
M  V30 33 1 13 31
M  V30 34 1 14 32
M  V30 35 1 15 33
M  V30 36 1 15 34
M  V30 37 1 16 35
M  V30 38 1 17 36
M  V30 39 1 19 37
M  V30 40 1 19 38
M  V30 41 1 19 39
M  V30 42 1 20 40
M  V30 43 1 20 41
M  V30 44 1 20 42
M  V30 END BOND
M  V30 END CTAB
M  END
>  <Column 1>
811

>  <level_0>
927

>  <index>
927

>  <Unnamed: 0>
927

>  <NO.>
939

>  <Name>
zinc1677753

>  <IUPAC_name>
3-(9h-acridin-10-yl)-n-n-dimethylpropan-1-amine

>  <SMILES>
CN(C)CCCN1c2ccccc2Cc2ccccc21

>  <CID>
240090

>  <logBB>
0.83

>  <BBB+/BBB->
BBB+

>  <Inchi>
InChI=1S/C18H22N2/c1-19(2)12-7-13-20-17-10-5-3-8-15(17)14-16-9-4-6-11-18(16)20/h3-6-8-11H-7-12-14H2-1-2H3

>  <threshold>


>  <reference>
R35|

>  <group>
A

>  <Class>
1

>  <ABC>
15.61

>  <ABCGG>
12.33

>  <nAcid>
0

>  <nBase>
1

>  <nAromAtom>
12

>  <nAromBond>
12

>  <nAtom>
42

>  <nHeavyAtom>
20

>  <nSpiro>
0

>  <nBridgehead>
0

>  <nHetero>
2

>  <nN>
2

>  <nO>
0

>  <nF>
0

>  <BalabanJ>
1.66

>  <BertzCT>
543.98

>  <nBonds>
44

>  <nBondsO>
22

>  <nBondsS>
32

>  <nBondsD>
0

>  <nBondsT>
0

>  <nBondsA>
12

>  <nBondsM>
12

>  <nBondsKS>
38

>  <nBondsKD>
6

>  <RNCG>
0.29

>  <RPCG>
0.05

>  <FCSP3>
0.33

>  <SZ>
24

>  <Sm>
22.18

>  <Sv>
25.48

>  <Sse>
41.09

>  <Sp>
28.1

>  <Si>
47.15

>  <MZ>
0.57

>  <Mm>
0.53

>  <Mv>
0.61

>  <Mse>
0.98

>  <Mp>
0.67

>  <Mi>
1.12

>  <NsCH3>
2

>  <NdCH2>
0

>  <NssCH2>
4

>  <NtCH>
0

>  <NdsCH>
0

>  <NaaCH>
8

>  <NsssCH>
0

>  <NddC>
0

>  <NtsC>
0

>  <NdssC>
0

>  <NaasC>
4

>  <NaaaC>
0

>  <NssssC>
0

>  <NsNH3>
0

>  <NsNH2>
0

>  <NssNH2>
0

>  <NdNH>
0

>  <NssNH>
0

>  <NaaNH>
0

>  <NtN>
0

>  <NsssNH>
0

>  <NdsN>
0

>  <NaaN>
0

>  <NsssN>
2

>  <NddsN>
0

>  <NaasN>
0

>  <NssssN>
0

>  <NsOH>
0

>  <NdO>
0

>  <NssO>
0

>  <NaaO>
0

>  <NsF>
0

>  <NsSiH3>
0

>  <NssSiH2>
0

>  <NsssSiH>
0

>  <NssssSi>
0

>  <NsPH2>
0

>  <NssPH>
0

>  <NsssP>
0

>  <NdsssP>
0

>  <NsssssP>
0

>  <NsSH>
0

>  <NdS>
0

>  <NssS>
0

>  <NaaS>
0

>  <NdssS>
0

>  <NddssS>
0

>  <NsCl>
0

>  <NsBr>
0

>  <NsI>
0

>  <fragCpx>
104.02

>  <fMF>
0.33

>  <nHBAcc>
2

>  <nHBDon>
0

>  <Kier1>
14.92

>  <Kier2>
6.84

>  <Lipinski>
1

>  <GhoseFilter>
1

>  <FilterItLogS>
-4.64

>  <VMcGowan>
226.06

>  <LabuteASA>
121.19

>  <PEOE_VSA1>
9.8

>  <PEOE_VSA2>
0

>  <PEOE_VSA3>
0

>  <PEOE_VSA4>
0

>  <PEOE_VSA5>
0

>  <PEOE_VSA6>
36.4

>  <PEOE_VSA7>
50.32

>  <PEOE_VSA8>
24.34

>  <PEOE_VSA9>
0

>  <PEOE_VSA10>
0

>  <PEOE_VSA11>
0

>  <PEOE_VSA12>
0

>  <PEOE_VSA13>
0

>  <SMR_VSA1>
0

>  <SMR_VSA2>
0

>  <SMR_VSA3>
4.9

>  <SMR_VSA4>
0

>  <SMR_VSA5>
12.84

>  <SMR_VSA6>
32.08

>  <SMR_VSA7>
59.66

>  <SMR_VSA8>
0

>  <SMR_VSA9>
0

>  <SlogP_VSA1>
4.9

>  <SlogP_VSA2>
32.08

>  <SlogP_VSA3>
6.42

>  <SlogP_VSA4>
0

>  <SlogP_VSA5>
17.55

>  <SlogP_VSA6>
48.53

>  <SlogP_VSA7>
0

>  <SlogP_VSA8>
0

>  <SlogP_VSA9>
0

>  <SlogP_VSA10>
11.37

>  <SlogP_VSA11>
0

>  <EState_VSA1>
0

>  <EState_VSA2>
0

>  <EState_VSA3>
0

>  <EState_VSA4>
19.51

>  <EState_VSA5>
28.92

>  <EState_VSA6>
0

>  <EState_VSA7>
0

>  <EState_VSA8>
72.43

>  <EState_VSA9>
0

>  <EState_VSA10>
0

>  <VSA_EState1>
0

>  <VSA_EState2>
4.74

>  <VSA_EState3>
0

>  <VSA_EState4>
5.64

>  <VSA_EState5>
0

>  <VSA_EState6>
17.59

>  <VSA_EState7>
2.23

>  <VSA_EState8>
2.2

>  <VSA_EState9>
4.27

>  <apol>
46.93

>  <bpol>
25.49

>  <nRing>
3

>  <nHRing>
1

>  <naRing>
2

>  <naHRing>
0

>  <nARing 2>
1

>  <nAHRing 2>
1

>  <nFRing>
1

>  <nFHRing>
1

>  <nFaRing>
0

>  <nFaHRing>
0

>  <nFARing 2>
1

>  <nFAHRing 2>
1

>  <nRot>
4

>  <SLogP>
3.68

>  <SMR>
85.87

>  <TopoPSA(NO)>
6.48

>  <TopoPSA>
6.48

>  <JGI1>
0.14

>  <JGI2>
0.07

>  <JGI3>
0.04

>  <JGI4>
0.04

>  <JGI5>
0.02

>  <Diameter>
9

>  <Radius>
5

>  <TMWC10>
115.53

>  <TSRW10>
53.75

>  <MW>
266.18

>  <AMW>
6.34

>  <WPath>
789

>  <WPol>
31

>  <Zagreb1>
104

>  <Zagreb2>
122

>  <mZagreb2>
4.44

>  <yes>


>  <nAR-cont>
0.816016

>  <nHA-cont>
0.999629945

>  <MWHBN>
0.122586398

>  <MWHBN-cont>
0.840328662

>  <TPSA-cont>
0.954765576

>  <pka_cont>
0.97

>  <yes.1>


>  <BBB_SCORE>
5.47067009

>  <MMFF94 Energy>
47.075

$$$$
Compound 675
Actelion Java MolfileCreator 2.0

  0  0  0  0  0  0              0 V3000
M  V30 BEGIN CTAB
M  V30 COUNTS 48 52 0 0 0
M  V30 BEGIN ATOM
M  V30 1 Cl 0.727 0.6462 7.6946 0
M  V30 2 C 1.6456 -0.238 6.5358 0
M  V30 3 C 1.2291 -0.2512 5.2008 0
M  V30 4 C 2.7877 -0.9251 6.9471 0
M  V30 5 C 1.9908 -0.9781 4.2648 0
M  V30 6 C 3.5563 -1.653 6.0326 0
M  V30 7 C 1.9223 -1.2425 2.8653 0
M  V30 8 C 3.1246 -1.6543 4.7023 0
M  V30 9 N 2.9306 -2.0167 2.4633 0
M  V30 10 N 0.9465 -0.7503 2.0734 0
M  V30 11 N 3.6322 -2.2512 3.5812 0
M  V30 12 C 0.9105 -1.0046 0.6386 0
M  V30 13 C -0.5391 -0.9404 0.1482 0
M  V30 14 C 1.7659 0.0254 -0.1014 0
M  V30 15 C -0.6007 -1.0667 -1.3738 0
M  V30 16 C 1.6203 -0.1398 -1.6135 0
M  V30 17 N 0.2305 -0.0881 -2.0904 0
M  V30 18 C -0.3078 1.2814 -2.0595 0
M  V30 19 C -1.6068 1.4315 -2.8267 0
M  V30 20 C -1.6583 1.1183 -4.1965 0
M  V30 21 C -2.7717 1.9012 -2.1757 0
M  V30 22 C -2.8576 1.278 -4.8571 0
M  V30 23 C -3.9745 2.0531 -2.8733 0
M  V30 24 O -3.0811 1.0207 -6.1736 0
M  V30 25 C -3.9837 1.7325 -4.213 0
M  V30 26 C -4.4783 1.3606 -6.2821 0
M  V30 27 O -5.058 1.818 -5.0426 0
M  V30 28 H 0.3388 0.285 4.8909 0
M  V30 29 H 3.0902 -0.8992 7.9918 0
M  V30 30 H 4.445 -2.1894 6.3486 0
M  V30 31 H 0.2384 -0.1289 2.4438 0
M  V30 32 H 4.4585 -2.833 3.5124 0
M  V30 33 H 1.2867 -2.0136 0.4209 0
M  V30 34 H -1.0155 -0.0057 0.4699 0
M  V30 35 H -1.12 -1.7511 0.6056 0
M  V30 36 H 1.4849 1.0429 0.1987 0
M  V30 37 H 2.8211 -0.0923 0.1732 0
M  V30 38 H -0.2625 -2.0721 -1.6578 0
M  V30 39 H -1.6442 -1.0178 -1.705 0
M  V30 40 H 2.0499 -1.1061 -1.9089 0
M  V30 41 H 2.2276 0.6145 -2.1288 0
M  V30 42 H -0.4342 1.6429 -1.0322 0
M  V30 43 H 0.4051 1.9693 -2.5339 0
M  V30 44 H -0.7819 0.751 -4.7203 0
M  V30 45 H -2.743 2.1481 -1.1165 0
M  V30 46 H -4.8707 2.4105 -2.3793 0
M  V30 47 H -5.0293 0.4756 -6.6208 0
M  V30 48 H -4.5892 2.1515 -7.033 0
M  V30 END ATOM
M  V30 BEGIN BOND
M  V30 1 1 1 2
M  V30 2 2 2 3
M  V30 3 1 2 4
M  V30 4 1 3 5
M  V30 5 2 4 6
M  V30 6 1 5 7
M  V30 7 2 5 8
M  V30 8 2 7 9
M  V30 9 1 7 10
M  V30 10 1 8 11
M  V30 11 1 10 12
M  V30 12 1 12 13
M  V30 13 1 12 14
M  V30 14 1 13 15
M  V30 15 1 14 16
M  V30 16 1 15 17
M  V30 17 1 17 18
M  V30 18 1 18 19
M  V30 19 2 19 20
M  V30 20 1 19 21
M  V30 21 1 20 22
M  V30 22 2 21 23
M  V30 23 1 22 24
M  V30 24 2 22 25
M  V30 25 1 24 26
M  V30 26 1 25 27
M  V30 27 1 6 8
M  V30 28 1 9 11
M  V30 29 1 16 17
M  V30 30 1 23 25
M  V30 31 1 26 27
M  V30 32 1 3 28
M  V30 33 1 4 29
M  V30 34 1 6 30
M  V30 35 1 10 31
M  V30 36 1 11 32
M  V30 37 1 12 33
M  V30 38 1 13 34
M  V30 39 1 13 35
M  V30 40 1 14 36
M  V30 41 1 14 37
M  V30 42 1 15 38
M  V30 43 1 15 39
M  V30 44 1 16 40
M  V30 45 1 16 41
M  V30 46 1 18 42
M  V30 47 1 18 43
M  V30 48 1 20 44
M  V30 49 1 21 45
M  V30 50 1 23 46
M  V30 51 1 26 47
M  V30 52 1 26 48
M  V30 END BOND
M  V30 END CTAB
M  END
>  <Column 1>
812

>  <level_0>
928

>  <index>
928

>  <Unnamed: 0>
928

>  <NO.>
940

>  <Name>
mchr antagonist 19

>  <IUPAC_name>
n-[1-(1-3-benzodioxol-5-ylmethyl)piperidin-4-yl]-5-chloro-1h-indazol-3-amine

>  <SMILES>
Clc1ccc2[nH]nc(NC3CCN(Cc4ccc5c(c4)OCO5)CC3)c2c1

>  <CID>
11653882

>  <logBB>
0.83

>  <BBB+/BBB->
BBB+

>  <Inchi>
InChI=1S/C20H21ClN4O2/c21-14-2-3-17-16(10-14)20(24-23-17)22-15-5-7-25(8-6-15)11-13-1-4-18-19(9-13)27-12-26-18/h1-4-9-10-15H-5-8-11-12H2-(H2-22-23-24)

>  <threshold>


>  <reference>
R2|R2|R18|R20|R25|R26|R27|R27|R46|

>  <group>
A

>  <Class>
1

>  <ABC>
21.91

>  <ABCGG>
15.89

>  <nAcid>
0

>  <nBase>
1

>  <nAromAtom>
15

>  <nAromBond>
16

>  <nAtom>
48

>  <nHeavyAtom>
27

>  <nSpiro>
0

>  <nBridgehead>
0

>  <nHetero>
7

>  <nN>
4

>  <nO>
2

>  <nF>
0

>  <BalabanJ>
1.05

>  <BertzCT>
965.77

>  <nBonds>
52

>  <nBondsO>
31

>  <nBondsS>
36

>  <nBondsD>
0

>  <nBondsT>
0

>  <nBondsA>
16

>  <nBondsM>
16

>  <nBondsKS>
45

>  <nBondsKD>
7

>  <RNCG>
0.19

>  <RPCG>
0.1

>  <FCSP3>
0.35

>  <SZ>
33.67

>  <Sm>
32.04

>  <Sv>
31.24

>  <Sse>
48.4

>  <Sp>
33.29

>  <Si>
54.09

>  <MZ>
0.7

>  <Mm>
0.67

>  <Mv>
0.65

>  <Mse>
1.01

>  <Mp>
0.69

>  <Mi>
1.13

>  <NsCH3>
0

>  <NdCH2>
0

>  <NssCH2>
6

>  <NtCH>
0

>  <NdsCH>
0

>  <NaaCH>
6

>  <NsssCH>
1

>  <NddC>
0

>  <NtsC>
0

>  <NdssC>
0

>  <NaasC>
5

>  <NaaaC>
2

>  <NssssC>
0

>  <NsNH3>
0

>  <NsNH2>
0

>  <NssNH2>
0

>  <NdNH>
0

>  <NssNH>
1

>  <NaaNH>
1

>  <NtN>
0

>  <NsssNH>
0

>  <NdsN>
0

>  <NaaN>
1

>  <NsssN>
1

>  <NddsN>
0

>  <NaasN>
0

>  <NssssN>
0

>  <NsOH>
0

>  <NdO>
0

>  <NssO>
2

>  <NaaO>
0

>  <NsF>
0

>  <NsSiH3>
0

>  <NssSiH2>
0

>  <NsssSiH>
0

>  <NssssSi>
0

>  <NsPH2>
0

>  <NssPH>
0

>  <NsssP>
0

>  <NdsssP>
0

>  <NsssssP>
0

>  <NsSH>
0

>  <NdS>
0

>  <NssS>
0

>  <NaaS>
0

>  <NdssS>
0

>  <NddssS>
0

>  <NsCl>
1

>  <NsBr>
0

>  <NsI>
0

>  <fragCpx>
259.07

>  <fMF>
0.54

>  <nHBAcc>
5

>  <nHBDon>
2

>  <Kier1>
18.99

>  <Kier2>
8.39

>  <Lipinski>
1

>  <GhoseFilter>
1

>  <FilterItLogS>
-5.77

>  <VMcGowan>
272.16

>  <LabuteASA>
161.95

>  <PEOE_VSA1>
14.79

>  <PEOE_VSA2>
10

>  <PEOE_VSA3>
0

>  <PEOE_VSA4>
5.1

>  <PEOE_VSA5>
0

>  <PEOE_VSA6>
17.67

>  <PEOE_VSA7>
48.74

>  <PEOE_VSA8>
36.08

>  <PEOE_VSA9>
5.52

>  <PEOE_VSA10>
0

>  <PEOE_VSA11>
17.32

>  <PEOE_VSA12>
6.79

>  <PEOE_VSA13>
0

>  <SMR_VSA1>
9.47

>  <SMR_VSA2>
0

>  <SMR_VSA3>
15.1

>  <SMR_VSA4>
0

>  <SMR_VSA5>
25.43

>  <SMR_VSA6>
25.2

>  <SMR_VSA7>
46.98

>  <SMR_VSA8>
0

>  <SMR_VSA9>
11.5

>  <SlogP_VSA1>
14.79

>  <SlogP_VSA2>
41.02

>  <SlogP_VSA3>
6.54

>  <SlogP_VSA4>
0

>  <SlogP_VSA5>
18.41

>  <SlogP_VSA6>
36.4

>  <SlogP_VSA7>
5.02

>  <SlogP_VSA8>
10.9

>  <SlogP_VSA9>
0

>  <SlogP_VSA10>
5.82

>  <SlogP_VSA11>
11.5

>  <EState_VSA1>
0

>  <EState_VSA2>
0

>  <EState_VSA3>
12.83

>  <EState_VSA4>
65.72

>  <EState_VSA5>
5.56

>  <EState_VSA6>
0

>  <EState_VSA7>
24.27

>  <EState_VSA8>
32.55

>  <EState_VSA9>
21.07

>  <EState_VSA10>
0

>  <VSA_EState1>
10.86

>  <VSA_EState2>
2.48

>  <VSA_EState3>
12.84

>  <VSA_EState4>
2.26

>  <VSA_EState5>
2.59

>  <VSA_EState6>
12.43

>  <VSA_EState7>
2.17

>  <VSA_EState8>
3.36

>  <VSA_EState9>
0

>  <apol>
55.59

>  <bpol>
27.9

>  <nRing>
5

>  <nHRing>
3

>  <naRing>
3

>  <naHRing>
1

>  <nARing 2>
2

>  <nAHRing 2>
2

>  <nFRing>
2

>  <nFHRing>
2

>  <nFaRing>
1

>  <nFaHRing>
1

>  <nFARing 2>
1

>  <nFAHRing 2>
1

>  <nRot>
4

>  <SLogP>
4.02

>  <SMR>
105.59

>  <TopoPSA(NO)>
62.41

>  <TopoPSA>
62.41

>  <JGI1>
0.18

>  <JGI2>
0.06

>  <JGI3>
0.04

>  <JGI4>
0.04

>  <JGI5>
0.02

>  <Diameter>
15

>  <Radius>
8

>  <TMWC10>
134.67

>  <TSRW10>
78.24

>  <MW>
384.14

>  <AMW>
8

>  <WPath>
2145

>  <WPol>
40

>  <Zagreb1>
150

>  <Zagreb2>
178

>  <mZagreb2>
5.75

>  <yes>


>  <nAR-cont>
1

>  <nHA-cont>
0.860070871

>  <MWHBN>
0.357152154

>  <MWHBN-cont>
0.643278074

>  <TPSA-cont>
0.564339446

>  <pka_cont>
0.97

>  <yes.1>


>  <BBB_SCORE>
4.438666874

>  <MMFF94 Energy>
0.74118

$$$$
Compound 676
Actelion Java MolfileCreator 2.0

  0  0  0  0  0  0              0 V3000
M  V30 BEGIN CTAB
M  V30 COUNTS 39 40 0 0 0
M  V30 BEGIN ATOM
M  V30 1 O -1.9767 -0.6322 1.9767 0
M  V30 2 C -1.2999 0.145 1.3123 0
M  V30 3 O -1.1404 1.4684 1.6132 0
M  V30 4 C -0.4717 -0.2472 0.0695 0
M  V30 5 C -1.8335 1.8951 2.7913 0
M  V30 6 C 1.0088 -0.3521 0.5008 0
M  V30 7 C -0.7783 0.7905 -1.0481 0
M  V30 8 C -1.0132 -1.6108 -0.4495 0
M  V30 9 C -1.5524 3.371 2.995 0
M  V30 10 C 1.4073 -1.3638 1.3988 0
M  V30 11 C 1.9939 0.5594 0.0852 0
M  V30 12 C -0.2909 0.3584 -2.4338 0
M  V30 13 C -0.4686 -1.9728 -1.8294 0
M  V30 14 C 2.7327 -1.4828 1.8254 0
M  V30 15 C 3.3213 0.4401 0.5114 0
M  V30 16 N -0.8434 -0.9457 -2.8067 0
M  V30 17 C 3.6919 -0.5834 1.3763 0
M  V30 18 C -0.3972 -1.3284 -4.1469 0
M  V30 19 H -1.4755 1.3276 3.6576 0
M  V30 20 H -2.9103 1.7375 2.6644 0
M  V30 21 H -1.8669 0.9429 -1.1035 0
M  V30 22 H -0.3672 1.7791 -0.8108 0
M  V30 23 H -2.1109 -1.5669 -0.513 0
M  V30 24 H -0.8029 -2.4327 0.2438 0
M  V30 25 H -2.0623 3.7461 3.8869 0
M  V30 26 H -0.4769 3.5473 3.1018 0
M  V30 27 H -1.8852 3.9501 2.1272 0
M  V30 28 H 0.6826 -2.0714 1.799 0
M  V30 29 H 1.7606 1.3919 -0.5715 0
M  V30 30 H 0.8043 0.3428 -2.4727 0
M  V30 31 H -0.622 1.1152 -3.156 0
M  V30 32 H 0.6191 -2.1119 -1.7904 0
M  V30 33 H -0.9065 -2.9349 -2.123 0
M  V30 34 H 3.0103 -2.2749 2.5162 0
M  V30 35 H 4.0649 1.1562 0.1703 0
M  V30 36 H 4.7224 -0.6721 1.7089 0
M  V30 37 H -0.7148 -0.5836 -4.8852 0
M  V30 38 H -0.8513 -2.2795 -4.4464 0
M  V30 39 H 0.6921 -1.4317 -4.2072 0
M  V30 END ATOM
M  V30 BEGIN BOND
M  V30 1 2 1 2
M  V30 2 1 2 3
M  V30 3 1 2 4
M  V30 4 1 3 5
M  V30 5 1 4 6
M  V30 6 1 4 7
M  V30 7 1 4 8
M  V30 8 1 5 9
M  V30 9 2 6 10
M  V30 10 1 6 11
M  V30 11 1 7 12
M  V30 12 1 8 13
M  V30 13 1 10 14
M  V30 14 2 11 15
M  V30 15 1 12 16
M  V30 16 2 14 17
M  V30 17 1 16 18
M  V30 18 1 13 16
M  V30 19 1 15 17
M  V30 20 1 5 19
M  V30 21 1 5 20
M  V30 22 1 7 21
M  V30 23 1 7 22
M  V30 24 1 8 23
M  V30 25 1 8 24
M  V30 26 1 9 25
M  V30 27 1 9 26
M  V30 28 1 9 27
M  V30 29 1 10 28
M  V30 30 1 11 29
M  V30 31 1 12 30
M  V30 32 1 12 31
M  V30 33 1 13 32
M  V30 34 1 13 33
M  V30 35 1 14 34
M  V30 36 1 15 35
M  V30 37 1 17 36
M  V30 38 1 18 37
M  V30 39 1 18 38
M  V30 40 1 18 39
M  V30 END BOND
M  V30 END CTAB
M  END
>  <Column 1>
813

>  <level_0>
929

>  <index>
929

>  <Unnamed: 0>
929

>  <NO.>
941

>  <Name>
meperidine

>  <IUPAC_name>
ethyl 1-methyl-4-phenylpiperidine-4-carboxylate

>  <SMILES>
CCOC(=O)C1(c2ccccc2)CCN(C)CC1

>  <CID>
4058

>  <logBB>
0.85

>  <BBB+/BBB->
BBB+

>  <Inchi>
InChI=1S/C15H21NO2/c1-3-18-14(17)15(9-11-16(2)12-10-15)13-7-5-4-6-8-13/h4-8H-3-9-12H2-1-2H3

>  <threshold>


>  <reference>
R47|R2|R2|R20|R25|R27|R46|

>  <group>
A

>  <Class>
1

>  <ABC>
13.53

>  <ABCGG>
11.97

>  <nAcid>
0

>  <nBase>
1

>  <nAromAtom>
6

>  <nAromBond>
6

>  <nAtom>
39

>  <nHeavyAtom>
18

>  <nSpiro>
0

>  <nBridgehead>
0

>  <nHetero>
3

>  <nN>
1

>  <nO>
2

>  <nF>
0

>  <BalabanJ>
2.1

>  <BertzCT>
394.21

>  <nBonds>
40

>  <nBondsO>
19

>  <nBondsS>
33

>  <nBondsD>
1

>  <nBondsT>
0

>  <nBondsA>
6

>  <nBondsM>
7

>  <nBondsKS>
36

>  <nBondsKD>
4

>  <RNCG>
0.32

>  <RPCG>
0.22

>  <FCSP3>
0.53

>  <SZ>
22.33

>  <Sm>
20.59

>  <Sv>
22.88

>  <Sse>
38.65

>  <Sp>
25

>  <Si>
44.07

>  <MZ>
0.57

>  <Mm>
0.53

>  <Mv>
0.59

>  <Mse>
0.99

>  <Mp>
0.64

>  <Mi>
1.13

>  <NsCH3>
2

>  <NdCH2>
0

>  <NssCH2>
5

>  <NtCH>
0

>  <NdsCH>
0

>  <NaaCH>
5

>  <NsssCH>
0

>  <NddC>
0

>  <NtsC>
0

>  <NdssC>
1

>  <NaasC>
1

>  <NaaaC>
0

>  <NssssC>
1

>  <NsNH3>
0

>  <NsNH2>
0

>  <NssNH2>
0

>  <NdNH>
0

>  <NssNH>
0

>  <NaaNH>
0

>  <NtN>
0

>  <NsssNH>
0

>  <NdsN>
0

>  <NaaN>
0

>  <NsssN>
1

>  <NddsN>
0

>  <NaasN>
0

>  <NssssN>
0

>  <NsOH>
0

>  <NdO>
1

>  <NssO>
1

>  <NaaO>
0

>  <NsF>
0

>  <NsSiH3>
0

>  <NssSiH2>
0

>  <NsssSiH>
0

>  <NssssSi>
0

>  <NsPH2>
0

>  <NssPH>
0

>  <NsssP>
0

>  <NdsssP>
0

>  <NsssssP>
0

>  <NsSH>
0

>  <NdS>
0

>  <NssS>
0

>  <NaaS>
0

>  <NdssS>
0

>  <NddssS>
0

>  <NsCl>
0

>  <NsBr>
0

>  <NsI>
0

>  <fragCpx>
55.03

>  <fMF>
0.31

>  <nHBAcc>
3

>  <nHBDon>
0

>  <Kier1>
14.41

>  <Kier2>
6.44

>  <Lipinski>
1

>  <GhoseFilter>
1

>  <FilterItLogS>
-3.23

>  <VMcGowan>
205.01

>  <LabuteASA>
108.74

>  <PEOE_VSA1>
9.64

>  <PEOE_VSA2>
4.79

>  <PEOE_VSA3>
0

>  <PEOE_VSA4>
0

>  <PEOE_VSA5>
0

>  <PEOE_VSA6>
30.33

>  <PEOE_VSA7>
45.47

>  <PEOE_VSA8>
0

>  <PEOE_VSA9>
12.02

>  <PEOE_VSA10>
0

>  <PEOE_VSA11>
0

>  <PEOE_VSA12>
0

>  <PEOE_VSA13>
0

>  <SMR_VSA1>
9.53

>  <SMR_VSA2>
0

>  <SMR_VSA3>
4.9

>  <SMR_VSA4>
0

>  <SMR_VSA5>
25.18

>  <SMR_VSA6>
26.74

>  <SMR_VSA7>
35.9

>  <SMR_VSA8>
0

>  <SMR_VSA9>
0

>  <SlogP_VSA1>
0

>  <SlogP_VSA2>
37.61

>  <SlogP_VSA3>
14.95

>  <SlogP_VSA4>
0

>  <SlogP_VSA5>
25.33

>  <SlogP_VSA6>
30.33

>  <SlogP_VSA7>
0

>  <SlogP_VSA8>
0

>  <SlogP_VSA9>
0

>  <SlogP_VSA10>
0

>  <SlogP_VSA11>
0

>  <EState_VSA1>
5.41

>  <EState_VSA2>
5.97

>  <EState_VSA3>
6.61

>  <EState_VSA4>
31.49

>  <EState_VSA5>
0

>  <EState_VSA6>
0

>  <EState_VSA7>
37.26

>  <EState_VSA8>
11.95

>  <EState_VSA9>
4.74

>  <EState_VSA10>
4.79

>  <VSA_EState1>
5.32

>  <VSA_EState2>
14.65

>  <VSA_EState3>
0

>  <VSA_EState4>
0.65

>  <VSA_EState5>
-0.07

>  <VSA_EState6>
10.06

>  <VSA_EState7>
1.68

>  <VSA_EState8>
4.19

>  <VSA_EState9>
2.1

>  <apol>
41.76

>  <bpol>
25.38

>  <nRing>
2

>  <nHRing>
1

>  <naRing>
1

>  <naHRing>
0

>  <nARing 2>
1

>  <nAHRing 2>
1

>  <nFRing>
0

>  <nFHRing>
0

>  <nFaRing>
0

>  <nFaHRing>
0

>  <nFARing 2>
0

>  <nFAHRing 2>
0

>  <nRot>
3

>  <SLogP>
2.21

>  <SMR>
71.48

>  <TopoPSA(NO)>
29.54

>  <TopoPSA>
29.54

>  <JGI1>
0.21

>  <JGI2>
0.11

>  <JGI3>
0.05

>  <JGI4>
0.03

>  <JGI5>
0.03

>  <Diameter>
8

>  <Radius>
4

>  <TMWC10>
109.38

>  <TSRW10>
51.17

>  <MW>
247.16

>  <AMW>
6.34

>  <WPath>
568

>  <WPol>
29

>  <Zagreb1>
90

>  <Zagreb2>
106

>  <mZagreb2>
4.17

>  <yes>


>  <nAR-cont>
0.816016

>  <nHA-cont>
0.991161285

>  <MWHBN>
0.190823634

>  <MWHBN-cont>
0.99613542

>  <TPSA-cont>
0.793792457

>  <pka_cont>
0.97

>  <yes.1>


>  <BBB_SCORE>
5.373965328

>  <MMFF94 Energy>
31.794

$$$$
Compound 677
Actelion Java MolfileCreator 2.0

  0  0  0  0  0  0              0 V3000
M  V30 BEGIN CTAB
M  V30 COUNTS 52 55 0 0 0
M  V30 BEGIN ATOM
M  V30 1 O -0.0798 -2.0772 -0.5589 0
M  V30 2 C 0.5324 -0.9734 0.1165 0
M  V30 3 C 1.4034 -0.1679 -0.8655 0
M  V30 4 C 1.3716 -1.5367 1.3119 0
M  V30 5 C -0.6061 -0.0677 0.6676 0
M  V30 6 C 1.274 -0.3261 -2.2588 0
M  V30 7 C 2.3233 0.7911 -0.4029 0
M  V30 8 C 0.6345 -2.5478 2.2486 0
M  V30 9 C 2.6345 -2.3782 0.8986 0
M  V30 10 C -1.5722 0.4589 -0.4105 0
M  V30 11 C 2.0542 0.4176 -3.148 0
M  V30 12 C 3.1041 1.5338 -1.2927 0
M  V30 13 C 1.4607 -2.6211 3.5206 0
M  V30 14 C 1.0126 -3.9167 1.6713 0
M  V30 15 C 2.5148 -3.6532 1.7603 0
M  V30 16 N -2.6921 1.2331 0.1648 0
M  V30 17 C 2.9728 1.3435 -2.6645 0
M  V30 18 C 2.5976 -3.2667 3.2179 0
M  V30 19 C -3.7903 1.3909 -0.804 0
M  V30 20 C -2.2965 2.546 0.6989 0
M  V30 21 C -3.4806 2.3678 -1.9414 0
M  V30 22 C -1.933 3.5782 -0.3723 0
M  V30 23 C -3.0498 3.7268 -1.4 0
M  V30 24 H 0.623 -2.5524 -1.0329 0
M  V30 25 H 1.7124 -0.6845 1.9175 0
M  V30 26 H -0.1613 0.7678 1.2199 0
M  V30 27 H -1.2106 -0.6373 1.3836 0
M  V30 28 H 0.5434 -1.0173 -2.6746 0
M  V30 29 H 2.4423 0.9825 0.661 0
M  V30 30 H -0.4307 -2.3991 2.4213 0
M  V30 31 H 2.6223 -2.6425 -0.1638 0
M  V30 32 H 3.5597 -1.8281 1.1036 0
M  V30 33 H -1.0341 1.0494 -1.1577 0
M  V30 34 H -1.9845 -0.4122 -0.9348 0
M  V30 35 H 1.9359 0.2784 -4.2196 0
M  V30 36 H 3.8117 2.266 -0.9116 0
M  V30 37 H 1.2 -2.1758 4.4688 0
M  V30 38 H 0.6809 -4.7571 2.2957 0
M  V30 39 H 0.6647 -4.0909 0.65 0
M  V30 40 H 3.151 -4.4893 1.4687 0
M  V30 41 H 3.5778 1.9238 -3.356 0
M  V30 42 H 3.4325 -3.4513 3.8765 0
M  V30 43 H -4.6784 1.7447 -0.2634 0
M  V30 44 H -4.0757 0.4165 -1.2193 0
M  V30 45 H -1.4729 2.4527 1.4138 0
M  V30 46 H -3.1358 2.9373 1.2899 0
M  V30 47 H -4.3691 2.4905 -2.5714 0
M  V30 48 H -2.6923 1.9604 -2.5855 0
M  V30 49 H -1.0024 3.2915 -0.8758 0
M  V30 50 H -1.7445 4.5479 0.103 0
M  V30 51 H -2.7218 4.373 -2.2216 0
M  V30 52 H -3.9108 4.2187 -0.9303 0
M  V30 END ATOM
M  V30 BEGIN BOND
M  V30 1 1 1 2
M  V30 2 1 2 3
M  V30 3 1 2 4
M  V30 4 1 2 5
M  V30 5 2 3 6
M  V30 6 1 3 7
M  V30 7 1 4 8
M  V30 8 1 4 9
M  V30 9 1 5 10
M  V30 10 1 6 11
M  V30 11 2 7 12
M  V30 12 1 8 13
M  V30 13 1 8 14
M  V30 14 1 9 15
M  V30 15 1 10 16
M  V30 16 2 11 17
M  V30 17 2 13 18
M  V30 18 1 16 19
M  V30 19 1 16 20
M  V30 20 1 19 21
M  V30 21 1 20 22
M  V30 22 1 21 23
M  V30 23 1 12 17
M  V30 24 1 14 15
M  V30 25 1 15 18
M  V30 26 1 22 23
M  V30 27 1 1 24
M  V30 28 1 4 25
M  V30 29 1 5 26
M  V30 30 1 5 27
M  V30 31 1 6 28
M  V30 32 1 7 29
M  V30 33 1 8 30
M  V30 34 1 9 31
M  V30 35 1 9 32
M  V30 36 1 10 33
M  V30 37 1 10 34
M  V30 38 1 11 35
M  V30 39 1 12 36
M  V30 40 1 13 37
M  V30 41 1 14 38
M  V30 42 1 14 39
M  V30 43 1 15 40
M  V30 44 1 17 41
M  V30 45 1 18 42
M  V30 46 1 19 43
M  V30 47 1 19 44
M  V30 48 1 20 45
M  V30 49 1 20 46
M  V30 50 1 21 47
M  V30 51 1 21 48
M  V30 52 1 22 49
M  V30 53 1 22 50
M  V30 54 1 23 51
M  V30 55 1 23 52
M  V30 END BOND
M  V30 END CTAB
M  END
>  <Column 1>
814

>  <level_0>
930

>  <index>
930

>  <Unnamed: 0>
930

>  <NO.>
942

>  <Name>
biperiden

>  <IUPAC_name>
1-(2-bicyclo[2.2.1]hept-5-enyl)-1-phenyl-3-piperidin-1-ylpropan-1-ol

>  <SMILES>
OC(CCN1CCCCC1)(c1ccccc1)C1CC2C=CC1C2

>  <CID>
2381

>  <logBB>
0.85

>  <BBB+/BBB->
BBB+

>  <Inchi>
InChI=1S/C21H29NO/c23-21(19-7-3-1-4-8-19-11-14-22-12-5-2-6-13-22)20-16-17-9-10-18(20)15-17/h1-3-4-7-10-17-18-20-23H-2-5-6-11-16H2

>  <threshold>


>  <reference>
R25|R41|R3|R38|R40|R21|R27|R41|R43|R46|R47|R2|R2|R8|R27|

>  <group>
A

>  <Class>
1

>  <ABC>
18.38

>  <ABCGG>
15.34

>  <nAcid>
0

>  <nBase>
1

>  <nAromAtom>
6

>  <nAromBond>
6

>  <nAtom>
52

>  <nHeavyAtom>
23

>  <nSpiro>
0

>  <nBridgehead>
2

>  <nHetero>
2

>  <nN>
1

>  <nO>
1

>  <nF>
0

>  <BalabanJ>
1.46

>  <BertzCT>
548.22

>  <nBonds>
55

>  <nBondsO>
26

>  <nBondsS>
48

>  <nBondsD>
1

>  <nBondsT>
0

>  <nBondsA>
6

>  <nBondsM>
7

>  <nBondsKS>
51

>  <nBondsKD>
4

>  <RNCG>
0.27

>  <RPCG>
0.15

>  <FCSP3>
0.62

>  <SZ>
28.33

>  <Sm>
25.93

>  <Sv>
30.33

>  <Sse>
50.87

>  <Sp>
33.72

>  <Si>
58.52

>  <MZ>
0.54

>  <Mm>
0.5

>  <Mv>
0.58

>  <Mse>
0.98

>  <Mp>
0.65

>  <Mi>
1.13

>  <NsCH3>
0

>  <NdCH2>
0

>  <NssCH2>
9

>  <NtCH>
0

>  <NdsCH>
2

>  <NaaCH>
5

>  <NsssCH>
3

>  <NddC>
0

>  <NtsC>
0

>  <NdssC>
0

>  <NaasC>
1

>  <NaaaC>
0

>  <NssssC>
1

>  <NsNH3>
0

>  <NsNH2>
0

>  <NssNH2>
0

>  <NdNH>
0

>  <NssNH>
0

>  <NaaNH>
0

>  <NtN>
0

>  <NsssNH>
0

>  <NdsN>
0

>  <NaaN>
0

>  <NsssN>
1

>  <NddsN>
0

>  <NaasN>
0

>  <NssssN>
0

>  <NsOH>
1

>  <NdO>
0

>  <NssO>
0

>  <NaaO>
0

>  <NsF>
0

>  <NsSiH3>
0

>  <NssSiH2>
0

>  <NsssSiH>
0

>  <NssssSi>
0

>  <NsPH2>
0

>  <NssPH>
0

>  <NsssP>
0

>  <NdsssP>
0

>  <NsssssP>
0

>  <NsSH>
0

>  <NdS>
0

>  <NssS>
0

>  <NaaS>
0

>  <NdssS>
0

>  <NddssS>
0

>  <NsCl>
0

>  <NsBr>
0

>  <NsI>
0

>  <fragCpx>
170.02

>  <fMF>
0.42

>  <nHBAcc>
2

>  <nHBDon>
1

>  <Kier1>
16.47

>  <Kier2>
7.09

>  <Lipinski>
1

>  <GhoseFilter>
1

>  <FilterItLogS>
-3.41

>  <VMcGowan>
261.96

>  <LabuteASA>
139.75

>  <PEOE_VSA1>
10.01

>  <PEOE_VSA2>
0

>  <PEOE_VSA3>
0

>  <PEOE_VSA4>
0

>  <PEOE_VSA5>
0

>  <PEOE_VSA6>
48.9

>  <PEOE_VSA7>
68.51

>  <PEOE_VSA8>
6.54

>  <PEOE_VSA9>
5.6

>  <PEOE_VSA10>
0

>  <PEOE_VSA11>
0

>  <PEOE_VSA12>
0

>  <PEOE_VSA13>
0

>  <SMR_VSA1>
5.11

>  <SMR_VSA2>
0

>  <SMR_VSA3>
4.9

>  <SMR_VSA4>
17.75

>  <SMR_VSA5>
44.13

>  <SMR_VSA6>
19.63

>  <SMR_VSA7>
48.05

>  <SMR_VSA8>
0

>  <SMR_VSA9>
0

>  <SlogP_VSA1>
0

>  <SlogP_VSA2>
29.64

>  <SlogP_VSA3>
5.6

>  <SlogP_VSA4>
17.75

>  <SlogP_VSA5>
44.09

>  <SlogP_VSA6>
42.48

>  <SlogP_VSA7>
0

>  <SlogP_VSA8>
0

>  <SlogP_VSA9>
0

>  <SlogP_VSA10>
0

>  <SlogP_VSA11>
0

>  <EState_VSA1>
5.6

>  <EState_VSA2>
0

>  <EState_VSA3>
17.75

>  <EState_VSA4>
24.95

>  <EState_VSA5>
38.77

>  <EState_VSA6>
0

>  <EState_VSA7>
0

>  <EState_VSA8>
47.38

>  <EState_VSA9>
0

>  <EState_VSA10>
5.11

>  <VSA_EState1>
0

>  <VSA_EState2>
2.56

>  <VSA_EState3>
11.77

>  <VSA_EState4>
0.46

>  <VSA_EState5>
1.67

>  <VSA_EState6>
10.46

>  <VSA_EState7>
12.04

>  <VSA_EState8>
3.45

>  <VSA_EState9>
0

>  <apol>
56.31

>  <bpol>
30.8

>  <nRing>
4

>  <nHRing>
1

>  <naRing>
1

>  <naHRing>
0

>  <nARing 2>
3

>  <nAHRing 2>
1

>  <nFRing>
1

>  <nFHRing>
0

>  <nFaRing>
0

>  <nFaHRing>
0

>  <nFARing 2>
1

>  <nFAHRing 2>
0

>  <nRot>
5

>  <SLogP>
3.96

>  <SMR>
94.09

>  <TopoPSA(NO)>
23.47

>  <TopoPSA>
23.47

>  <JGI1>
0.17

>  <JGI2>
0.08

>  <JGI3>
0.04

>  <JGI4>
0.03

>  <JGI5>
0.02

>  <Diameter>
10

>  <Radius>
5

>  <TMWC10>
124.86

>  <TSRW10>
73.63

>  <MW>
311.22

>  <AMW>
5.99

>  <WPath>
1142

>  <WPol>
33

>  <Zagreb1>
126

>  <Zagreb2>
151

>  <mZagreb2>
4.99

>  <yes>


>  <nAR-cont>
0.691115

>  <nHA-cont>
0.967789328

>  <MWHBN>
0.170054256

>  <MWHBN-cont>
0.974049886

>  <TPSA-cont>
0.836164826

>  <pka_cont>
0.97

>  <yes.1>


>  <BBB_SCORE>
5.277308809

>  <MMFF94 Energy>
77.929

$$$$
Compound 678
Actelion Java MolfileCreator 2.0

  0  0  0  0  0  0              0 V3000
M  V30 BEGIN CTAB
M  V30 COUNTS 27 26 0 0 0
M  V30 BEGIN ATOM
M  V30 1 C -3.2832 -0.5339 -2.6717 0
M  V30 2 C -3.082 0.4927 -3.5079 0
M  V30 3 C -2.4586 -0.9145 -1.4707 0
M  V30 4 C -1.2466 -0.0284 -1.1639 0
M  V30 5 C -0.4985 -0.5234 0.0766 0
M  V30 6 C 0.7119 0.3591 0.3853 0
M  V30 7 C 1.4594 -0.1353 1.6248 0
M  V30 8 C 2.6689 0.7467 1.9332 0
M  V30 9 C 3.4148 0.2584 3.1648 0
M  V30 10 H -4.1375 -1.1827 -2.8633 0
M  V30 11 H -3.7545 0.6613 -4.344 0
M  V30 12 H -2.2577 1.1881 -3.3927 0
M  V30 13 H -2.1179 -1.9474 -1.615 0
M  V30 14 H -3.1245 -0.9222 -0.5987 0
M  V30 15 H -1.5734 1.0058 -0.9999 0
M  V30 16 H -0.5619 -0.0242 -2.0209 0
M  V30 17 H -0.1683 -1.5573 -0.0817 0
M  V30 18 H -1.1781 -0.529 0.9375 0
M  V30 19 H 0.3818 1.3931 0.5437 0
M  V30 20 H 1.3914 0.3649 -0.4754 0
M  V30 21 H 1.7894 -1.1692 1.4667 0
M  V30 22 H 0.7799 -0.1411 2.4858 0
M  V30 23 H 3.3535 0.7528 1.0772 0
M  V30 24 H 2.344 1.7809 2.0963 0
M  V30 25 H 4.2757 0.9034 3.367 0
M  V30 26 H 2.7665 0.2709 4.0468 0
M  V30 27 H 3.7816 -0.7629 3.022 0
M  V30 END ATOM
M  V30 BEGIN BOND
M  V30 1 2 1 2
M  V30 2 1 1 3
M  V30 3 1 3 4
M  V30 4 1 4 5
M  V30 5 1 5 6
M  V30 6 1 6 7
M  V30 7 1 7 8
M  V30 8 1 8 9
M  V30 9 1 1 10
M  V30 10 1 2 11
M  V30 11 1 2 12
M  V30 12 1 3 13
M  V30 13 1 3 14
M  V30 14 1 4 15
M  V30 15 1 4 16
M  V30 16 1 5 17
M  V30 17 1 5 18
M  V30 18 1 6 19
M  V30 19 1 6 20
M  V30 20 1 7 21
M  V30 21 1 7 22
M  V30 22 1 8 23
M  V30 23 1 8 24
M  V30 24 1 9 25
M  V30 25 1 9 26
M  V30 26 1 9 27
M  V30 END BOND
M  V30 END CTAB
M  END
>  <Column 1>
816

>  <level_0>
933

>  <index>
933

>  <Unnamed: 0>
933

>  <NO.>
945

>  <Name>
1-nonene

>  <IUPAC_name>
non-1-ene

>  <SMILES>
C=CCCCCCCC

>  <CID>
31285

>  <logBB>
0.86

>  <BBB+/BBB->
BBB+

>  <Inchi>
InChI=1S/C9H18/c1-3-5-7-9-8-6-4-2/h3H-1-4-9H2-2H3

>  <threshold>


>  <reference>
R3|R21|R25|R27|R38|R41|R46|R47|R2|R2|R8|R27|R40|

>  <group>
A

>  <Class>
1

>  <ABC>
5.66

>  <ABCGG>
5.72

>  <nAcid>
0

>  <nBase>
0

>  <nAromAtom>
0

>  <nAromBond>
0

>  <nAtom>
27

>  <nHeavyAtom>
9

>  <nSpiro>
0

>  <nBridgehead>
0

>  <nHetero>
0

>  <nN>
0

>  <nO>
0

>  <nF>
0

>  <BalabanJ>
2.6

>  <BertzCT>
55.06

>  <nBonds>
26

>  <nBondsO>
8

>  <nBondsS>
25

>  <nBondsD>
1

>  <nBondsT>
0

>  <nBondsA>
0

>  <nBondsM>
1

>  <nBondsKS>
25

>  <nBondsKD>
1

>  <RNCG>
0.18

>  <RPCG>
0.1

>  <FCSP3>
0.78

>  <SZ>
12

>  <Sm>
10.51

>  <Sv>
13.88

>  <Sse>
25.99

>  <Sp>
16.19

>  <Si>
30.74

>  <MZ>
0.44

>  <Mm>
0.39

>  <Mv>
0.51

>  <Mse>
0.96

>  <Mp>
0.6

>  <Mi>
1.14

>  <NsCH3>
1

>  <NdCH2>
1

>  <NssCH2>
6

>  <NtCH>
0

>  <NdsCH>
1

>  <NaaCH>
0

>  <NsssCH>
0

>  <NddC>
0

>  <NtsC>
0

>  <NdssC>
0

>  <NaasC>
0

>  <NaaaC>
0

>  <NssssC>
0

>  <NsNH3>
0

>  <NsNH2>
0

>  <NssNH2>
0

>  <NdNH>
0

>  <NssNH>
0

>  <NaaNH>
0

>  <NtN>
0

>  <NsssNH>
0

>  <NdsN>
0

>  <NaaN>
0

>  <NsssN>
0

>  <NddsN>
0

>  <NaasN>
0

>  <NssssN>
0

>  <NsOH>
0

>  <NdO>
0

>  <NssO>
0

>  <NaaO>
0

>  <NsF>
0

>  <NsSiH3>
0

>  <NssSiH2>
0

>  <NsssSiH>
0

>  <NssssSi>
0

>  <NsPH2>
0

>  <NssPH>
0

>  <NsssP>
0

>  <NdsssP>
0

>  <NsssssP>
0

>  <NsSH>
0

>  <NdS>
0

>  <NssS>
0

>  <NaaS>
0

>  <NdssS>
0

>  <NddssS>
0

>  <NsCl>
0

>  <NsBr>
0

>  <NsI>
0

>  <fragCpx>
8

>  <fMF>
0

>  <nHBAcc>
0

>  <nHBDon>
0

>  <Kier1>
9

>  <Kier2>
8

>  <Lipinski>
1

>  <GhoseFilter>
0

>  <FilterItLogS>
-3.1

>  <VMcGowan>
133.37

>  <LabuteASA>
58.97

>  <PEOE_VSA1>
0

>  <PEOE_VSA2>
0

>  <PEOE_VSA3>
0

>  <PEOE_VSA4>
0

>  <PEOE_VSA5>
6.58

>  <PEOE_VSA6>
38.68

>  <PEOE_VSA7>
12.84

>  <PEOE_VSA8>
0

>  <PEOE_VSA9>
0

>  <PEOE_VSA10>
0

>  <PEOE_VSA11>
0

>  <PEOE_VSA12>
0

>  <PEOE_VSA13>
0

>  <SMR_VSA1>
0

>  <SMR_VSA2>
0

>  <SMR_VSA3>
0

>  <SMR_VSA4>
0

>  <SMR_VSA5>
45.45

>  <SMR_VSA6>
0

>  <SMR_VSA7>
12.65

>  <SMR_VSA8>
0

>  <SMR_VSA9>
0

>  <SlogP_VSA1>
0

>  <SlogP_VSA2>
0

>  <SlogP_VSA3>
0

>  <SlogP_VSA4>
0

>  <SlogP_VSA5>
45.45

>  <SlogP_VSA6>
12.65

>  <SlogP_VSA7>
0

>  <SlogP_VSA8>
0

>  <SlogP_VSA9>
0

>  <SlogP_VSA10>
0

>  <SlogP_VSA11>
0

>  <EState_VSA1>
0

>  <EState_VSA2>
0

>  <EState_VSA3>
0

>  <EState_VSA4>
0

>  <EState_VSA5>
38.52

>  <EState_VSA6>
0

>  <EState_VSA7>
6.08

>  <EState_VSA8>
13.5

>  <EState_VSA9>
0

>  <EState_VSA10>
0

>  <VSA_EState1>
0

>  <VSA_EState2>
0

>  <VSA_EState3>
0

>  <VSA_EState4>
0

>  <VSA_EState5>
0

>  <VSA_EState6>
0

>  <VSA_EState7>
10.08

>  <VSA_EState8>
5.92

>  <VSA_EState9>
0

>  <apol>
27.03

>  <bpol>
18.06

>  <nRing>
0

>  <nHRing>
0

>  <naRing>
0

>  <naHRing>
0

>  <nARing 2>
0

>  <nAHRing 2>
0

>  <nFRing>
0

>  <nFHRing>
0

>  <nFaRing>
0

>  <nFaHRing>
0

>  <nFARing 2>
0

>  <nFAHRing 2>
0

>  <nRot>
6

>  <SLogP>
3.53

>  <SMR>
43.57

>  <TopoPSA(NO)>
0

>  <TopoPSA>
0

>  <JGI1>
0.06

>  <JGI2>
0.03

>  <JGI3>
0.02

>  <JGI4>
0.02

>  <JGI5>
0.01

>  <Diameter>
8

>  <Radius>
4

>  <TMWC10>
70.57

>  <TSRW10>
33.97

>  <MW>
126.14

>  <AMW>
4.67

>  <WPath>
120

>  <WPol>
6

>  <Zagreb1>
30

>  <Zagreb2>
28

>  <mZagreb2>
2.5

>  <yes>


>  <nAR-cont>
0.336376

>  <nHA-cont>
0.56070381

>  <MWHBN>
0

>  <MWHBN-cont>
0

>  <TPSA-cont>
0

>  <pka_cont>
0.97

>  <yes.1>


>  <BBB_SCORE>
1.38207981

>  <MMFF94 Energy>
4.7388

$$$$
Compound 679
Actelion Java MolfileCreator 2.0

  0  0  0  0  0  0              0 V3000
M  V30 BEGIN CTAB
M  V30 COUNTS 23 22 0 0 0
M  V30 BEGIN ATOM
M  V30 1 C -0.0758 1.1389 -1.0629 0
M  V30 2 C -0.344 -0.1019 -0.1893 0
M  V30 3 C -0.9655 1.0976 -2.3082 0
M  V30 4 C -0.3089 2.449 -0.3089 0
M  V30 5 C 0.6174 -0.2314 0.9967 0
M  V30 6 C 0.3624 -1.4779 1.8489 0
M  V30 7 C 0.6677 -2.7823 1.1289 0
M  V30 8 H 0.9691 1.1154 -1.3964 0
M  V30 9 H -0.2556 -0.9923 -0.8223 0
M  V30 10 H -1.3771 -0.0788 0.18 0
M  V30 11 H -0.7823 0.1869 -2.888 0
M  V30 12 H -2.0271 1.1211 -2.0393 0
M  V30 13 H -0.762 1.9531 -2.961 0
M  V30 14 H 0.4064 2.5718 0.5094 0
M  V30 15 H -1.3196 2.4914 0.1105 0
M  V30 16 H -0.1845 3.3085 -0.9766 0
M  V30 17 H 0.5133 0.6411 1.6509 0
M  V30 18 H 1.6529 -0.2381 0.6362 0
M  V30 19 H 0.9951 -1.4205 2.7428 0
M  V30 20 H -0.6769 -1.4867 2.1971 0
M  V30 21 H 0.568 -3.6245 1.8211 0
M  V30 22 H -0.0227 -2.9549 0.2986 0
M  V30 23 H 1.6896 -2.7854 0.7372 0
M  V30 END ATOM
M  V30 BEGIN BOND
M  V30 1 1 1 2
M  V30 2 1 1 3
M  V30 3 1 1 4
M  V30 4 1 2 5
M  V30 5 1 5 6
M  V30 6 1 6 7
M  V30 7 1 1 8
M  V30 8 1 2 9
M  V30 9 1 2 10
M  V30 10 1 3 11
M  V30 11 1 3 12
M  V30 12 1 3 13
M  V30 13 1 4 14
M  V30 14 1 4 15
M  V30 15 1 4 16
M  V30 16 1 5 17
M  V30 17 1 5 18
M  V30 18 1 6 19
M  V30 19 1 6 20
M  V30 20 1 7 21
M  V30 21 1 7 22
M  V30 22 1 7 23
M  V30 END BOND
M  V30 END CTAB
M  END
>  <Column 1>
817

>  <level_0>
934

>  <index>
934

>  <Unnamed: 0>
934

>  <NO.>
946

>  <Name>
2-methyl heptane

>  <IUPAC_name>
2-methylhexane

>  <SMILES>
CCCCC(C)C

>  <CID>
11582

>  <logBB>
0.86

>  <BBB+/BBB->
BBB+

>  <Inchi>
InChI=1S/C7H16/c1-4-5-6-7(2)3/h7H-4-6H2-1-3H3

>  <threshold>


>  <reference>
R3|R38|R41|R2|R2|R8|R27|

>  <group>
A

>  <Class>
1

>  <ABC>
4.46

>  <ABCGG>
4.74

>  <nAcid>
0

>  <nBase>
0

>  <nAromAtom>
0

>  <nAromBond>
0

>  <nAtom>
23

>  <nHeavyAtom>
7

>  <nSpiro>
0

>  <nBridgehead>
0

>  <nHetero>
0

>  <nN>
0

>  <nO>
0

>  <nF>
0

>  <BalabanJ>
2.68

>  <BertzCT>
29.02

>  <nBonds>
22

>  <nBondsO>
6

>  <nBondsS>
22

>  <nBondsD>
0

>  <nBondsT>
0

>  <nBondsA>
0

>  <nBondsM>
0

>  <nBondsKS>
22

>  <nBondsKD>
0

>  <RNCG>
0.16

>  <RPCG>
0.07

>  <FCSP3>
1

>  <SZ>
9.67

>  <Sm>
8.34

>  <Sv>
11.33

>  <Sse>
22.1

>  <Sp>
13.39

>  <Si>
26.32

>  <MZ>
0.42

>  <Mm>
0.36

>  <Mv>
0.49

>  <Mse>
0.96

>  <Mp>
0.58

>  <Mi>
1.14

>  <NsCH3>
3

>  <NdCH2>
0

>  <NssCH2>
3

>  <NtCH>
0

>  <NdsCH>
0

>  <NaaCH>
0

>  <NsssCH>
1

>  <NddC>
0

>  <NtsC>
0

>  <NdssC>
0

>  <NaasC>
0

>  <NaaaC>
0

>  <NssssC>
0

>  <NsNH3>
0

>  <NsNH2>
0

>  <NssNH2>
0

>  <NdNH>
0

>  <NssNH>
0

>  <NaaNH>
0

>  <NtN>
0

>  <NsssNH>
0

>  <NdsN>
0

>  <NaaN>
0

>  <NsssN>
0

>  <NddsN>
0

>  <NaasN>
0

>  <NssssN>
0

>  <NsOH>
0

>  <NdO>
0

>  <NssO>
0

>  <NaaO>
0

>  <NsF>
0

>  <NsSiH3>
0

>  <NssSiH2>
0

>  <NsssSiH>
0

>  <NssssSi>
0

>  <NsPH2>
0

>  <NssPH>
0

>  <NsssP>
0

>  <NdsssP>
0

>  <NsssssP>
0

>  <NsSH>
0

>  <NdS>
0

>  <NssS>
0

>  <NaaS>
0

>  <NdssS>
0

>  <NddssS>
0

>  <NsCl>
0

>  <NsBr>
0

>  <NsI>
0

>  <fragCpx>
6

>  <fMF>
0

>  <nHBAcc>
0

>  <nHBDon>
0

>  <Kier1>
7

>  <Kier2>
4.17

>  <Lipinski>
1

>  <GhoseFilter>
0

>  <FilterItLogS>
-2.23

>  <VMcGowan>
109.49

>  <LabuteASA>
46.93

>  <PEOE_VSA1>
0

>  <PEOE_VSA2>
0

>  <PEOE_VSA3>
0

>  <PEOE_VSA4>
0

>  <PEOE_VSA5>
0

>  <PEOE_VSA6>
40.03

>  <PEOE_VSA7>
5.92

>  <PEOE_VSA8>
0

>  <PEOE_VSA9>
0

>  <PEOE_VSA10>
0

>  <PEOE_VSA11>
0

>  <PEOE_VSA12>
0

>  <PEOE_VSA13>
0

>  <SMR_VSA1>
0

>  <SMR_VSA2>
0

>  <SMR_VSA3>
0

>  <SMR_VSA4>
5.92

>  <SMR_VSA5>
40.03

>  <SMR_VSA6>
0

>  <SMR_VSA7>
0

>  <SMR_VSA8>
0

>  <SMR_VSA9>
0

>  <SlogP_VSA1>
0

>  <SlogP_VSA2>
0

>  <SlogP_VSA3>
0

>  <SlogP_VSA4>
5.92

>  <SlogP_VSA5>
40.03

>  <SlogP_VSA6>
0

>  <SlogP_VSA7>
0

>  <SlogP_VSA8>
0

>  <SlogP_VSA9>
0

>  <SlogP_VSA10>
0

>  <SlogP_VSA11>
0

>  <EState_VSA1>
0

>  <EState_VSA2>
0

>  <EState_VSA3>
0

>  <EState_VSA4>
5.92

>  <EState_VSA5>
19.26

>  <EState_VSA6>
0

>  <EState_VSA7>
0

>  <EState_VSA8>
20.77

>  <EState_VSA9>
0

>  <EState_VSA10>
0

>  <VSA_EState1>
0

>  <VSA_EState2>
0

>  <VSA_EState3>
0

>  <VSA_EState4>
0

>  <VSA_EState5>
0.9

>  <VSA_EState6>
0

>  <VSA_EState7>
4.15

>  <VSA_EState8>
6.79

>  <VSA_EState9>
0

>  <apol>
22.36

>  <bpol>
16.05

>  <nRing>
0

>  <nHRing>
0

>  <naRing>
0

>  <naHRing>
0

>  <nARing 2>
0

>  <nAHRing 2>
0

>  <nFRing>
0

>  <nFHRing>
0

>  <nFaRing>
0

>  <nFaHRing>
0

>  <nFARing 2>
0

>  <nFAHRing 2>
0

>  <nRot>
3

>  <SLogP>
2.83

>  <SMR>
34.36

>  <TopoPSA(NO)>
0

>  <TopoPSA>
0

>  <JGI1>
0.25

>  <JGI2>
0.07

>  <JGI3>
0.06

>  <JGI4>
0.05

>  <JGI5>
0

>  <Diameter>
5

>  <Radius>
3

>  <TMWC10>
65.08

>  <TSRW10>
31.34

>  <MW>
100.13

>  <AMW>
4.35

>  <WPath>
52

>  <WPol>
4

>  <Zagreb1>
24

>  <Zagreb2>
22

>  <mZagreb2>
1.83

>  <yes>


>  <nAR-cont>
0.336376

>  <nHA-cont>
0.357561384

>  <MWHBN>
0

>  <MWHBN-cont>
0

>  <TPSA-cont>
0

>  <pka_cont>
0.97

>  <yes.1>


>  <BBB_SCORE>
1.178937384

>  <MMFF94 Energy>
0.95552

$$$$
Compound 680
Actelion Java MolfileCreator 2.0

  0  0  0  0  0  0              0 V3000
M  V30 BEGIN CTAB
M  V30 COUNTS 26 25 0 0 0
M  V30 BEGIN ATOM
M  V30 1 C -1.5226 -0.1521 -1.675 0
M  V30 2 C -0.7681 -0.6074 -0.4122 0
M  V30 3 C -2.6043 -1.1754 -2.03 0
M  V30 4 C -2.1552 1.2305 -1.5115 0
M  V30 5 C 0.4303 0.2802 -0.064 0
M  V30 6 C 1.2148 -0.2883 1.1208 0
M  V30 7 C 2.4089 0.598 1.4738 0
M  V30 8 C 3.1912 0.0361 2.6501 0
M  V30 9 H -0.8142 -0.1088 -2.5118 0
M  V30 10 H -0.4117 -1.6342 -0.5654 0
M  V30 11 H -1.4576 -0.639 0.441 0
M  V30 12 H -2.1653 -2.1652 -2.1936 0
M  V30 13 H -3.3478 -1.2616 -1.2303 0
M  V30 14 H -3.1262 -0.8875 -2.9487 0
M  V30 15 H -1.3932 2.0053 -1.3849 0
M  V30 16 H -2.8225 1.2619 -0.6436 0
M  V30 17 H -2.7416 1.4963 -2.3977 0
M  V30 18 H 0.09 1.2909 0.1866 0
M  V30 19 H 1.0913 0.364 -0.9348 0
M  V30 20 H 1.5669 -1.2983 0.8783 0
M  V30 21 H 0.5528 -0.377 1.9909 0
M  V30 22 H 3.0754 0.687 0.6082 0
M  V30 23 H 2.0627 1.608 1.7221 0
M  V30 24 H 4.0402 0.6854 2.8855 0
M  V30 25 H 2.5609 -0.0355 3.5422 0
M  V30 26 H 3.5795 -0.9615 2.4222 0
M  V30 END ATOM
M  V30 BEGIN BOND
M  V30 1 1 1 2
M  V30 2 1 1 3
M  V30 3 1 1 4
M  V30 4 1 2 5
M  V30 5 1 5 6
M  V30 6 1 6 7
M  V30 7 1 7 8
M  V30 8 1 1 9
M  V30 9 1 2 10
M  V30 10 1 2 11
M  V30 11 1 3 12
M  V30 12 1 3 13
M  V30 13 1 3 14
M  V30 14 1 4 15
M  V30 15 1 4 16
M  V30 16 1 4 17
M  V30 17 1 5 18
M  V30 18 1 5 19
M  V30 19 1 6 20
M  V30 20 1 6 21
M  V30 21 1 7 22
M  V30 22 1 7 23
M  V30 23 1 8 24
M  V30 24 1 8 25
M  V30 25 1 8 26
M  V30 END BOND
M  V30 END CTAB
M  END
>  <Column 1>
818

>  <level_0>
935

>  <index>
935

>  <Unnamed: 0>
935

>  <NO.>
947

>  <Name>
2-methylheptane

>  <IUPAC_name>
2-methylheptane

>  <SMILES>
CCCCCC(C)C

>  <CID>
11594

>  <logBB>
0.86

>  <BBB+/BBB->
BBB+

>  <Inchi>
InChI=1S/C8H18/c1-4-5-6-7-8(2)3/h8H-4-7H2-1-3H3

>  <threshold>


>  <reference>
R21|R25|R27|R46|R47|R2|R2|R8|R27|R40|R3|R38|R41|

>  <group>
A

>  <Class>
1

>  <ABC>
5.17

>  <ABCGG>
5.36

>  <nAcid>
0

>  <nBase>
0

>  <nAromAtom>
0

>  <nAromBond>
0

>  <nAtom>
26

>  <nHeavyAtom>
8

>  <nSpiro>
0

>  <nBridgehead>
0

>  <nHetero>
0

>  <nN>
0

>  <nO>
0

>  <nF>
0

>  <BalabanJ>
2.72

>  <BertzCT>
37.3

>  <nBonds>
25

>  <nBondsO>
7

>  <nBondsS>
25

>  <nBondsD>
0

>  <nBondsT>
0

>  <nBondsA>
0

>  <nBondsM>
0

>  <nBondsKS>
25

>  <nBondsKD>
0

>  <RNCG>
0.14

>  <RPCG>
0.07

>  <FCSP3>
1

>  <SZ>
11

>  <Sm>
9.51

>  <Sv>
12.88

>  <Sse>
24.99

>  <Sp>
15.19

>  <Si>
29.74

>  <MZ>
0.42

>  <Mm>
0.37

>  <Mv>
0.5

>  <Mse>
0.96

>  <Mp>
0.58

>  <Mi>
1.14

>  <NsCH3>
3

>  <NdCH2>
0

>  <NssCH2>
4

>  <NtCH>
0

>  <NdsCH>
0

>  <NaaCH>
0

>  <NsssCH>
1

>  <NddC>
0

>  <NtsC>
0

>  <NdssC>
0

>  <NaasC>
0

>  <NaaaC>
0

>  <NssssC>
0

>  <NsNH3>
0

>  <NsNH2>
0

>  <NssNH2>
0

>  <NdNH>
0

>  <NssNH>
0

>  <NaaNH>
0

>  <NtN>
0

>  <NsssNH>
0

>  <NdsN>
0

>  <NaaN>
0

>  <NsssN>
0

>  <NddsN>
0

>  <NaasN>
0

>  <NssssN>
0

>  <NsOH>
0

>  <NdO>
0

>  <NssO>
0

>  <NaaO>
0

>  <NsF>
0

>  <NsSiH3>
0

>  <NssSiH2>
0

>  <NsssSiH>
0

>  <NssssSi>
0

>  <NsPH2>
0

>  <NssPH>
0

>  <NsssP>
0

>  <NdsssP>
0

>  <NsssssP>
0

>  <NsSH>
0

>  <NdS>
0

>  <NssS>
0

>  <NaaS>
0

>  <NdssS>
0

>  <NddssS>
0

>  <NsCl>
0

>  <NsBr>
0

>  <NsI>
0

>  <fragCpx>
7

>  <fMF>
0

>  <nHBAcc>
0

>  <nHBDon>
0

>  <Kier1>
8

>  <Kier2>
5.14

>  <Lipinski>
1

>  <GhoseFilter>
0

>  <FilterItLogS>
-2.65

>  <VMcGowan>
123.58

>  <LabuteASA>
53.29

>  <PEOE_VSA1>
0

>  <PEOE_VSA2>
0

>  <PEOE_VSA3>
0

>  <PEOE_VSA4>
0

>  <PEOE_VSA5>
0

>  <PEOE_VSA6>
46.45

>  <PEOE_VSA7>
5.92

>  <PEOE_VSA8>
0

>  <PEOE_VSA9>
0

>  <PEOE_VSA10>
0

>  <PEOE_VSA11>
0

>  <PEOE_VSA12>
0

>  <PEOE_VSA13>
0

>  <SMR_VSA1>
0

>  <SMR_VSA2>
0

>  <SMR_VSA3>
0

>  <SMR_VSA4>
5.92

>  <SMR_VSA5>
46.45

>  <SMR_VSA6>
0

>  <SMR_VSA7>
0

>  <SMR_VSA8>
0

>  <SMR_VSA9>
0

>  <SlogP_VSA1>
0

>  <SlogP_VSA2>
0

>  <SlogP_VSA3>
0

>  <SlogP_VSA4>
5.92

>  <SlogP_VSA5>
46.45

>  <SlogP_VSA6>
0

>  <SlogP_VSA7>
0

>  <SlogP_VSA8>
0

>  <SlogP_VSA9>
0

>  <SlogP_VSA10>
0

>  <SlogP_VSA11>
0

>  <EState_VSA1>
0

>  <EState_VSA2>
0

>  <EState_VSA3>
0

>  <EState_VSA4>
5.92

>  <EState_VSA5>
25.68

>  <EState_VSA6>
0

>  <EState_VSA7>
0

>  <EState_VSA8>
20.77

>  <EState_VSA9>
0

>  <EState_VSA10>
0

>  <VSA_EState1>
0

>  <VSA_EState2>
0

>  <VSA_EState3>
0

>  <VSA_EState4>
0

>  <VSA_EState5>
0.9

>  <VSA_EState6>
0

>  <VSA_EState7>
5.6

>  <VSA_EState8>
6.83

>  <VSA_EState9>
0

>  <apol>
25.36

>  <bpol>
18.06

>  <nRing>
0

>  <nHRing>
0

>  <naRing>
0

>  <naHRing>
0

>  <nARing 2>
0

>  <nAHRing 2>
0

>  <nFRing>
0

>  <nFHRing>
0

>  <nFaRing>
0

>  <nFaHRing>
0

>  <nFARing 2>
0

>  <nFAHRing 2>
0

>  <nRot>
4

>  <SLogP>
3.22

>  <SMR>
38.98

>  <TopoPSA(NO)>
0

>  <TopoPSA>
0

>  <JGI1>
0.21

>  <JGI2>
0.06

>  <JGI3>
0.05

>  <JGI4>
0.04

>  <JGI5>
0.04

>  <Diameter>
6

>  <Radius>
3

>  <TMWC10>
68.74

>  <TSRW10>
33.09

>  <MW>
114.14

>  <AMW>
4.39

>  <WPath>
79

>  <WPol>
5

>  <Zagreb1>
28

>  <Zagreb2>
26

>  <mZagreb2>
2.08

>  <yes>


>  <nAR-cont>
0.336376

>  <nHA-cont>
0.464727961

>  <MWHBN>
0

>  <MWHBN-cont>
0

>  <TPSA-cont>
0

>  <pka_cont>
0.97

>  <yes.1>


>  <BBB_SCORE>
1.286103961

>  <MMFF94 Energy>
-0.23577

$$$$
Compound 681
Actelion Java MolfileCreator 2.0

  0  0  0  0  0  0              0 V3000
M  V30 BEGIN CTAB
M  V30 COUNTS 46 48 0 0 0
M  V30 BEGIN ATOM
M  V30 1 O -1.5828 0.0 -2.2957 0
M  V30 2 C -2.7073 -0.3352 -1.5855 0
M  V30 3 C -1.2516 -0.8343 -3.3988 0
M  V30 4 C -2.8089 0.2123 -0.2919 0
M  V30 5 C -3.7332 -1.1516 -2.0734 0
M  V30 6 C -3.9223 -0.1068 0.5038 0
M  V30 7 C -1.7162 1.0918 0.2771 0
M  V30 8 C -4.8423 -1.446 -1.2764 0
M  V30 9 C -4.9346 -0.929 0.0124 0
M  V30 10 N -0.6363 0.2722 0.8339 0
M  V30 11 C 0.5483 1.0722 1.2072 0
M  V30 12 C 1.8409 0.1783 1.3259 0
M  V30 13 C 0.2954 1.7886 2.5456 0
M  V30 14 N 3.0134 0.9348 1.8096 0
M  V30 15 C 2.2018 -0.5163 0.0135 0
M  V30 16 C 1.5491 2.5159 3.0236 0
M  V30 17 C 2.7429 1.5706 3.0961 0
M  V30 18 C 2.3577 -1.9116 -0.0145 0
M  V30 19 C 2.392 0.2005 -1.1797 0
M  V30 20 C 2.6782 -2.5719 -1.2025 0
M  V30 21 C 2.7143 -0.4612 -2.3667 0
M  V30 22 C 2.8546 -1.8468 -2.3783 0
M  V30 23 H -1.2153 -1.8894 -3.1073 0
M  V30 24 H -0.2536 -0.5494 -3.7449 0
M  V30 25 H -1.9468 -0.6763 -4.2294 0
M  V30 26 H -3.7013 -1.5693 -3.0739 0
M  V30 27 H -3.9961 0.2818 1.5172 0
M  V30 28 H -2.1458 1.7368 1.0523 0
M  V30 29 H -1.3476 1.7608 -0.5105 0
M  V30 30 H -5.6332 -2.0838 -1.6625 0
M  V30 31 H -5.7919 -1.1675 0.6363 0
M  V30 32 H -0.3635 -0.3822 0.0948 0
M  V30 33 H 0.7313 1.8336 0.4369 0
M  V30 34 H 1.6302 -0.6054 2.0682 0
M  V30 35 H -0.0107 1.0615 3.3093 0
M  V30 36 H -0.519 2.5159 2.4525 0
M  V30 37 H 3.2509 1.6459 1.1206 0
M  V30 38 H 1.3653 2.9531 4.0117 0
M  V30 39 H 1.7734 3.347 2.3431 0
M  V30 40 H 3.6318 2.1316 3.4052 0
M  V30 41 H 2.5767 0.8043 3.8629 0
M  V30 42 H 2.2305 -2.4944 0.8954 0
M  V30 43 H 2.2937 1.2826 -1.1969 0
M  V30 44 H 2.7952 -3.6523 -1.206 0
M  V30 45 H 2.8593 0.1071 -3.2815 0
M  V30 46 H 3.1095 -2.3609 -3.3009 0
M  V30 END ATOM
M  V30 BEGIN BOND
M  V30 1 1 1 2
M  V30 2 1 1 3
M  V30 3 2 2 4
M  V30 4 1 2 5
M  V30 5 1 4 6
M  V30 6 1 4 7
M  V30 7 2 5 8
M  V30 8 2 6 9
M  V30 9 1 7 10
M  V30 10 1 10 11
M  V30 11 1 11 12
M  V30 12 1 11 13
M  V30 13 1 12 14
M  V30 14 1 12 15
M  V30 15 1 13 16
M  V30 16 1 14 17
M  V30 17 2 15 18
M  V30 18 1 15 19
M  V30 19 1 18 20
M  V30 20 2 19 21
M  V30 21 2 20 22
M  V30 22 1 8 9
M  V30 23 1 16 17
M  V30 24 1 21 22
M  V30 25 1 3 23
M  V30 26 1 3 24
M  V30 27 1 3 25
M  V30 28 1 5 26
M  V30 29 1 6 27
M  V30 30 1 7 28
M  V30 31 1 7 29
M  V30 32 1 8 30
M  V30 33 1 9 31
M  V30 34 1 10 32
M  V30 35 1 11 33
M  V30 36 1 12 34
M  V30 37 1 13 35
M  V30 38 1 13 36
M  V30 39 1 14 37
M  V30 40 1 16 38
M  V30 41 1 16 39
M  V30 42 1 17 40
M  V30 43 1 17 41
M  V30 44 1 18 42
M  V30 45 1 19 43
M  V30 46 1 20 44
M  V30 47 1 21 45
M  V30 48 1 22 46
M  V30 END BOND
M  V30 END CTAB
M  END
>  <Column 1>
819

>  <level_0>
936

>  <index>
936

>  <Unnamed: 0>
936

>  <NO.>
948

>  <Name>
145148-39-6

>  <IUPAC_name>
n-[(2-methoxyphenyl)methyl]-2-phenylpiperidin-3-amine

>  <SMILES>
COc1ccccc1CNC1CCCNC1c1ccccc1

>  <CID>
18435769

>  <logBB>
0.87

>  <BBB+/BBB->
BBB+

>  <Inchi>
InChI=1S/C19H24N2O/c1-22-18-12-6-5-10-16(18)14-21-17-11-7-13-20-19(17)15-8-3-2-4-9-15/h2-6-8-10-12-17-19-21H-7-11-13-14H2-1H3

>  <threshold>


>  <reference>
R2|R2|R8|R25|R27|R46|R47|R4|R40|

>  <group>
A

>  <Class>
1

>  <ABC>
16.85

>  <ABCGG>
13.47

>  <nAcid>
0

>  <nBase>
2

>  <nAromAtom>
12

>  <nAromBond>
12

>  <nAtom>
46

>  <nHeavyAtom>
22

>  <nSpiro>
0

>  <nBridgehead>
0

>  <nHetero>
3

>  <nN>
2

>  <nO>
1

>  <nF>
0

>  <BalabanJ>
1.52

>  <BertzCT>
585

>  <nBonds>
48

>  <nBondsO>
24

>  <nBondsS>
36

>  <nBondsD>
0

>  <nBondsT>
0

>  <nBondsA>
12

>  <nBondsM>
12

>  <nBondsKS>
42

>  <nBondsKD>
6

>  <RNCG>
0.29

>  <RPCG>
0.07

>  <FCSP3>
0.37

>  <SZ>
26.67

>  <Sm>
24.68

>  <Sv>
27.73

>  <Sse>
45.31

>  <Sp>
30.38

>  <Si>
51.77

>  <MZ>
0.58

>  <Mm>
0.54

>  <Mv>
0.6

>  <Mse>
0.99

>  <Mp>
0.66

>  <Mi>
1.13

>  <NsCH3>
1

>  <NdCH2>
0

>  <NssCH2>
4

>  <NtCH>
0

>  <NdsCH>
0

>  <NaaCH>
9

>  <NsssCH>
2

>  <NddC>
0

>  <NtsC>
0

>  <NdssC>
0

>  <NaasC>
3

>  <NaaaC>
0

>  <NssssC>
0

>  <NsNH3>
0

>  <NsNH2>
0

>  <NssNH2>
0

>  <NdNH>
0

>  <NssNH>
2

>  <NaaNH>
0

>  <NtN>
0

>  <NsssNH>
0

>  <NdsN>
0

>  <NaaN>
0

>  <NsssN>
0

>  <NddsN>
0

>  <NaasN>
0

>  <NssssN>
0

>  <NsOH>
0

>  <NdO>
0

>  <NssO>
1

>  <NaaO>
0

>  <NsF>
0

>  <NsSiH3>
0

>  <NssSiH2>
0

>  <NsssSiH>
0

>  <NssssSi>
0

>  <NsPH2>
0

>  <NssPH>
0

>  <NsssP>
0

>  <NdsssP>
0

>  <NsssssP>
0

>  <NsSH>
0

>  <NdS>
0

>  <NssS>
0

>  <NaaS>
0

>  <NdssS>
0

>  <NddssS>
0

>  <NsCl>
0

>  <NsBr>
0

>  <NsI>
0

>  <fragCpx>
114.03

>  <fMF>
0.43

>  <nHBAcc>
3

>  <nHBDon>
2

>  <Kier1>
16.84

>  <Kier2>
8.74

>  <Lipinski>
1

>  <GhoseFilter>
1

>  <FilterItLogS>
-5.11

>  <VMcGowan>
246.02

>  <LabuteASA>
132.25

>  <PEOE_VSA1>
15.37

>  <PEOE_VSA2>
0

>  <PEOE_VSA3>
0

>  <PEOE_VSA4>
0

>  <PEOE_VSA5>
0

>  <PEOE_VSA6>
48.53

>  <PEOE_VSA7>
31.02

>  <PEOE_VSA8>
24.19

>  <PEOE_VSA9>
7.11

>  <PEOE_VSA10>
5.75

>  <PEOE_VSA11>
0

>  <PEOE_VSA12>
0

>  <PEOE_VSA13>
0

>  <SMR_VSA1>
4.74

>  <SMR_VSA2>
0

>  <SMR_VSA3>
10.63

>  <SMR_VSA4>
0

>  <SMR_VSA5>
31.47

>  <SMR_VSA6>
13.65

>  <SMR_VSA7>
65.72

>  <SMR_VSA8>
0

>  <SMR_VSA9>
5.75

>  <SlogP_VSA1>
15.37

>  <SlogP_VSA2>
19.7

>  <SlogP_VSA3>
6.54

>  <SlogP_VSA4>
0

>  <SlogP_VSA5>
30.01

>  <SlogP_VSA6>
54.6

>  <SlogP_VSA7>
0

>  <SlogP_VSA8>
0

>  <SlogP_VSA9>
0

>  <SlogP_VSA10>
0

>  <SlogP_VSA11>
5.75

>  <EState_VSA1>
0

>  <EState_VSA2>
0

>  <EState_VSA3>
12.08

>  <EState_VSA4>
18.84

>  <EState_VSA5>
23.97

>  <EState_VSA6>
7.11

>  <EState_VSA7>
12.13

>  <EState_VSA8>
53.1

>  <EState_VSA9>
4.74

>  <EState_VSA10>
0

>  <VSA_EState1>
5.44

>  <VSA_EState2>
0

>  <VSA_EState3>
7.38

>  <VSA_EState4>
2.57

>  <VSA_EState5>
0.95

>  <VSA_EState6>
19.76

>  <VSA_EState7>
2.41

>  <VSA_EState8>
1.92

>  <VSA_EState9>
1.73

>  <apol>
50.74

>  <bpol>
26.95

>  <nRing>
3

>  <nHRing>
1

>  <naRing>
2

>  <naHRing>
0

>  <nARing 2>
1

>  <nAHRing 2>
1

>  <nFRing>
0

>  <nFHRing>
0

>  <nFaRing>
0

>  <nFaHRing>
0

>  <nFARing 2>
0

>  <nFAHRing 2>
0

>  <nRot>
5

>  <SLogP>
3.28

>  <SMR>
90.04

>  <TopoPSA(NO)>
33.29

>  <TopoPSA>
33.29

>  <JGI1>
0.1

>  <JGI2>
0.07

>  <JGI3>
0.03

>  <JGI4>
0.02

>  <JGI5>
0.02

>  <Diameter>
11

>  <Radius>
6

>  <TMWC10>
118.81

>  <TSRW10>
55.74

>  <MW>
296.19

>  <AMW>
6.44

>  <WPath>
1107

>  <WPol>
32

>  <Zagreb1>
110

>  <Zagreb2>
127

>  <mZagreb2>
5.08

>  <yes>


>  <nAR-cont>
0.816016

>  <nHA-cont>
0.983774276

>  <MWHBN>
0.290525869

>  <MWHBN-cont>
0.868090021

>  <TPSA-cont>
0.767615128

>  <pka_cont>
0.97

>  <yes.1>


>  <BBB_SCORE>
5.122155564

>  <MMFF94 Energy>
70.876

$$$$
Compound 682
Actelion Java MolfileCreator 2.0

  0  0  0  0  0  0              0 V3000
M  V30 BEGIN CTAB
M  V30 COUNTS 40 40 0 0 0
M  V30 BEGIN ATOM
M  V30 1 O -1.167 -1.167 -2.1013 0
M  V30 2 C -1.528 -1.8703 -1.1622 0
M  V30 3 O -1.7739 -1.3985 0.1253 0
M  V30 4 N -1.7319 -3.2418 -1.2754 0
M  V30 5 C -1.5612 -0.0307 0.354 0
M  V30 6 C -1.481 -3.8863 -2.5587 0
M  V30 7 C -2.1005 -4.0933 -0.1559 0
M  V30 8 C -0.2944 0.538 0.201 0
M  V30 9 C -2.6378 0.712 0.8294 0
M  V30 10 C -0.0469 -4.3772 -2.6784 0
M  V30 11 C -0.0964 1.8973 0.4856 0
M  V30 12 C -2.4525 2.0578 1.1294 0
M  V30 13 C -1.195 2.6435 0.9585 0
M  V30 14 C 1.2526 2.6019 0.3209 0 CFG=1
M  V30 15 N 1.8137 2.9785 1.6394 0
M  V30 16 C 2.2369 1.8774 -0.6151 0
M  V30 17 C 2.8335 4.0196 1.5374 0
M  V30 18 C 2.3118 1.8475 2.4191 0
M  V30 19 H -1.6834 -3.1773 -3.3692 0
M  V30 20 H -2.1822 -4.7198 -2.6765 0
M  V30 21 H -2.3229 -3.527 0.7505 0
M  V30 22 H -2.9879 -4.671 -0.4308 0
M  V30 23 H -1.2733 -4.7771 0.0537 0
M  V30 24 H 0.522 -0.0876 -0.1429 0
M  V30 25 H -3.6091 0.2482 0.9671 0
M  V30 26 H 0.1832 -5.1189 -1.9071 0
M  V30 27 H 0.6624 -3.5504 -2.5689 0
M  V30 28 H 0.1153 -4.8409 -3.6561 0
M  V30 29 H -3.2813 2.6536 1.5016 0
M  V30 30 H -1.0622 3.6952 1.2074 0
M  V30 31 H 0.9999 3.536 -0.2035 0
M  V30 32 H 2.5791 0.9209 -0.2075 0
M  V30 33 H 3.1216 2.4903 -0.8148 0
M  V30 34 H 1.7664 1.6729 -1.584 0
M  V30 35 H 3.7452 3.6715 1.0411 0
M  V30 36 H 3.1101 4.3792 2.5351 0
M  V30 37 H 2.4511 4.8894 0.9919 0
M  V30 38 H 1.5442 1.0789 2.5537 0
M  V30 39 H 2.588 2.1782 3.4271 0
M  V30 40 H 3.1949 1.3817 1.9692 0
M  V30 END ATOM
M  V30 BEGIN BOND
M  V30 1 2 1 2
M  V30 2 1 2 3
M  V30 3 1 2 4
M  V30 4 1 3 5
M  V30 5 1 4 6
M  V30 6 1 4 7
M  V30 7 2 5 8
M  V30 8 1 5 9
M  V30 9 1 6 10
M  V30 10 1 8 11
M  V30 11 2 9 12
M  V30 12 2 11 13
M  V30 13 1 11 14
M  V30 14 1 14 15
M  V30 15 1 14 16
M  V30 16 1 15 17
M  V30 17 1 15 18
M  V30 18 1 12 13
M  V30 19 1 6 19
M  V30 20 1 6 20
M  V30 21 1 7 21
M  V30 22 1 7 22
M  V30 23 1 7 23
M  V30 24 1 8 24
M  V30 25 1 9 25
M  V30 26 1 10 26
M  V30 27 1 10 27
M  V30 28 1 10 28
M  V30 29 1 12 29
M  V30 30 1 13 30
M  V30 31 1 14 31
M  V30 32 1 16 32
M  V30 33 1 16 33
M  V30 34 1 16 34
M  V30 35 1 17 35
M  V30 36 1 17 36
M  V30 37 1 17 37
M  V30 38 1 18 38
M  V30 39 1 18 39
M  V30 40 1 18 40
M  V30 END BOND
M  V30 BEGIN COLLECTION
M  V30 MDLV30/STERAC1 ATOMS=(1 14)
M  V30 END COLLECTION
M  V30 END CTAB
M  END
>  <Column 1>
820

>  <level_0>
937

>  <index>
937

>  <Unnamed: 0>
937

>  <NO.>
949

>  <Name>
105601-20-5

>  <IUPAC_name>
[3-[1-(dimethylamino)ethyl]phenyl] n-ethyl-n-methylcarbamate

>  <SMILES>
CCN(C)C(=O)Oc1cccc(C(C)N(C)C)c1

>  <CID>
5077

>  <logBB>
0.88

>  <BBB+/BBB->
BBB+

>  <Inchi>
InChI=1S/C14H22N2O2/c1-6-16(5)14(17)18-13-9-7-8-12(10-13)11(2)15(3)4/h7-11H-6H2-1-5H3

>  <threshold>


>  <reference>
R27|R43|R47|R4|R40|

>  <group>
A

>  <Class>
1

>  <ABC>
13.15

>  <ABCGG>
12.06

>  <nAcid>
0

>  <nBase>
1

>  <nAromAtom>
6

>  <nAromBond>
6

>  <nAtom>
40

>  <nHeavyAtom>
18

>  <nSpiro>
0

>  <nBridgehead>
0

>  <nHetero>
4

>  <nN>
2

>  <nO>
2

>  <nF>
0

>  <BalabanJ>
2.44

>  <BertzCT>
404.54

>  <nBonds>
40

>  <nBondsO>
18

>  <nBondsS>
33

>  <nBondsD>
1

>  <nBondsT>
0

>  <nBondsA>
6

>  <nBondsM>
7

>  <nBondsKS>
36

>  <nBondsKD>
4

>  <RNCG>
0.27

>  <RPCG>
0.27

>  <FCSP3>
0.5

>  <SZ>
22.67

>  <Sm>
20.84

>  <Sv>
22.91

>  <Sse>
39.75

>  <Sp>
25.06

>  <Si>
45.57

>  <MZ>
0.57

>  <Mm>
0.52

>  <Mv>
0.57

>  <Mse>
0.99

>  <Mp>
0.63

>  <Mi>
1.14

>  <NsCH3>
5

>  <NdCH2>
0

>  <NssCH2>
1

>  <NtCH>
0

>  <NdsCH>
0

>  <NaaCH>
4

>  <NsssCH>
1

>  <NddC>
0

>  <NtsC>
0

>  <NdssC>
1

>  <NaasC>
2

>  <NaaaC>
0

>  <NssssC>
0

>  <NsNH3>
0

>  <NsNH2>
0

>  <NssNH2>
0

>  <NdNH>
0

>  <NssNH>
0

>  <NaaNH>
0

>  <NtN>
0

>  <NsssNH>
0

>  <NdsN>
0

>  <NaaN>
0

>  <NsssN>
2

>  <NddsN>
0

>  <NaasN>
0

>  <NssssN>
0

>  <NsOH>
0

>  <NdO>
1

>  <NssO>
1

>  <NaaO>
0

>  <NsF>
0

>  <NsSiH3>
0

>  <NssSiH2>
0

>  <NsssSiH>
0

>  <NssssSi>
0

>  <NsPH2>
0

>  <NssPH>
0

>  <NsssP>
0

>  <NdsssP>
0

>  <NsssssP>
0

>  <NsSH>
0

>  <NdS>
0

>  <NssS>
0

>  <NaaS>
0

>  <NdssS>
0

>  <NddssS>
0

>  <NsCl>
0

>  <NsBr>
0

>  <NsI>
0

>  <fragCpx>
18.04

>  <fMF>
0.15

>  <nHBAcc>
3

>  <nHBDon>
0

>  <Kier1>
16.06

>  <Kier2>
7.56

>  <Lipinski>
1

>  <GhoseFilter>
1

>  <FilterItLogS>
-2.55

>  <VMcGowan>
211.76

>  <LabuteASA>
109.15

>  <PEOE_VSA1>
14.54

>  <PEOE_VSA2>
0

>  <PEOE_VSA3>
4.79

>  <PEOE_VSA4>
0

>  <PEOE_VSA5>
0

>  <PEOE_VSA6>
12.13

>  <PEOE_VSA7>
45.64

>  <PEOE_VSA8>
19.63

>  <PEOE_VSA9>
0

>  <PEOE_VSA10>
5.75

>  <PEOE_VSA11>
0

>  <PEOE_VSA12>
0

>  <PEOE_VSA13>
0

>  <SMR_VSA1>
9.53

>  <SMR_VSA2>
0

>  <SMR_VSA3>
9.8

>  <SMR_VSA4>
0

>  <SMR_VSA5>
19.89

>  <SMR_VSA6>
27.69

>  <SMR_VSA7>
29.83

>  <SMR_VSA8>
0

>  <SMR_VSA9>
5.75

>  <SlogP_VSA1>
4.74

>  <SlogP_VSA2>
43.58

>  <SlogP_VSA3>
0

>  <SlogP_VSA4>
0

>  <SlogP_VSA5>
25.45

>  <SlogP_VSA6>
24.27

>  <SlogP_VSA7>
0

>  <SlogP_VSA8>
0

>  <SlogP_VSA9>
0

>  <SlogP_VSA10>
4.79

>  <SlogP_VSA11>
5.75

>  <EState_VSA1>
0

>  <EState_VSA2>
12.14

>  <EState_VSA3>
12.29

>  <EState_VSA4>
5.56

>  <EState_VSA5>
4.9

>  <EState_VSA6>
13.11

>  <EState_VSA7>
39.22

>  <EState_VSA8>
11.82

>  <EState_VSA9>
4.74

>  <EState_VSA10>
4.79

>  <VSA_EState1>
5.31

>  <VSA_EState2>
15.29

>  <VSA_EState3>
0

>  <VSA_EState4>
1.13

>  <VSA_EState5>
0.59

>  <VSA_EState6>
7.93

>  <VSA_EState7>
-0.33

>  <VSA_EState8>
4.65

>  <VSA_EState9>
5.76

>  <apol>
41.85

>  <bpol>
28.09

>  <nRing>
1

>  <nHRing>
0

>  <naRing>
1

>  <naHRing>
0

>  <nARing 2>
0

>  <nAHRing 2>
0

>  <nFRing>
0

>  <nFHRing>
0

>  <nFaRing>
0

>  <nFaHRing>
0

>  <nFARing 2>
0

>  <nFAHRing 2>
0

>  <nRot>
4

>  <SLogP>
2.76

>  <SMR>
72.87

>  <TopoPSA(NO)>
32.78

>  <TopoPSA>
32.78

>  <JGI1>
0.25

>  <JGI2>
0.1

>  <JGI3>
0.05

>  <JGI4>
0.04

>  <JGI5>
0.03

>  <Diameter>
10

>  <Radius>
5

>  <TMWC10>
105.67

>  <TSRW10>
50.24

>  <MW>
250.17

>  <AMW>
6.25

>  <WPath>
654

>  <WPol>
25

>  <Zagreb1>
84

>  <Zagreb2>
94

>  <mZagreb2>
4.17

>  <yes>


>  <nAR-cont>
0.336376

>  <nHA-cont>
0.991161285

>  <MWHBN>
0.189672182

>  <MWHBN-cont>
0.995435483

>  <TPSA-cont>
0.771175245

>  <pka_cont>
0.97

>  <yes.1>


>  <BBB_SCORE>
4.848040999

>  <MMFF94 Energy>
6.3547

$$$$
Compound 683
Actelion Java MolfileCreator 2.0

  0  0  0  0  0  0              0 V3000
M  V30 BEGIN CTAB
M  V30 COUNTS 49 51 0 0 0
M  V30 BEGIN ATOM
M  V30 1 O 1.3416 -0.7101 -0.1577 0
M  V30 2 C 0.2719 -0.1107 -0.1817 0
M  V30 3 N -0.9821 -0.6875 -0.2169 0
M  V30 4 C 0.2896 1.3804 -0.1574 0
M  V30 5 C -1.2669 -2.0714 -0.2195 0
M  V30 6 C 1.3363 2.0188 0.5193 0
M  V30 7 C -0.6831 2.1505 -0.8058 0
M  V30 8 C -2.4824 -2.4864 -0.7979 0
M  V30 9 C -0.4302 -3.0054 0.4035 0
M  V30 10 C 1.3981 3.4138 0.5704 0
M  V30 11 C -0.6194 3.546 -0.7518 0
M  V30 12 N -3.3502 -1.5721 -1.4035 0
M  V30 13 C -2.8656 -3.8227 -0.6704 0
M  V30 14 C -0.786 -4.3627 0.4875 0
M  V30 15 C 0.421 4.1914 -0.0658 0
M  V30 16 C -2.0217 -4.7511 -0.0518 0
M  V30 17 C 0.1045 -5.3419 1.1375 0
M  V30 18 C 0.4777 5.7051 -0.0018 0
M  V30 19 C 1.4685 -5.4107 0.8051 0
M  V30 20 C -0.3789 -6.2351 2.109 0
M  V30 21 N 0.4606 6.3485 -1.3279 0
M  V30 22 C 2.3161 -6.3385 1.4171 0
M  V30 23 C 0.4672 -7.1635 2.7227 0
M  V30 24 C 1.7064 6.0978 -2.0587 0
M  V30 25 C 0.2553 7.7908 -1.1807 0
M  V30 26 C 1.8145 -7.215 2.3754 0
M  V30 27 H -1.805 -0.1 -0.2081 0
M  V30 28 H 2.1072 1.4281 1.0111 0
M  V30 29 H -1.4784 1.6908 -1.3835 0
M  V30 30 H 0.4968 -2.6775 0.8678 0
M  V30 31 H 2.2189 3.8867 1.1053 0
M  V30 32 H -1.3736 4.14 -1.2661 0
M  V30 33 H -4.1861 -1.9363 -1.8444 0
M  V30 34 H -2.9251 -0.7717 -1.8533 0
M  V30 35 H -3.8155 -4.1639 -1.0724 0
M  V30 36 H -2.3355 -5.792 -0.0042 0
M  V30 37 H 1.3545 6.0316 0.5735 0
M  V30 38 H -0.4032 6.0192 0.5747 0
M  V30 39 H 1.8819 -4.7391 0.0541 0
M  V30 40 H -1.4245 -6.2037 2.4082 0
M  V30 41 H 3.3671 -6.3729 1.1428 0
M  V30 42 H 0.0729 -7.8418 3.4746 0
M  V30 43 H 1.8462 5.0296 -2.2546 0
M  V30 44 H 2.5849 6.4687 -1.518 0
M  V30 45 H 1.6779 6.5856 -3.0399 0
M  V30 46 H 1.0557 8.2668 -0.6023 0
M  V30 47 H -0.6992 7.9955 -0.6829 0
M  V30 48 H 0.2038 8.2749 -2.1624 0
M  V30 49 H 2.4736 -7.9351 2.8527 0
M  V30 END ATOM
M  V30 BEGIN BOND
M  V30 1 2 1 2
M  V30 2 1 2 3
M  V30 3 1 2 4
M  V30 4 1 3 5
M  V30 5 2 4 6
M  V30 6 1 4 7
M  V30 7 2 5 8
M  V30 8 1 5 9
M  V30 9 1 6 10
M  V30 10 2 7 11
M  V30 11 1 8 12
M  V30 12 1 8 13
M  V30 13 2 9 14
M  V30 14 2 10 15
M  V30 15 2 13 16
M  V30 16 1 14 17
M  V30 17 1 15 18
M  V30 18 2 17 19
M  V30 19 1 17 20
M  V30 20 1 18 21
M  V30 21 1 19 22
M  V30 22 2 20 23
M  V30 23 1 21 24
M  V30 24 1 21 25
M  V30 25 2 22 26
M  V30 26 1 11 15
M  V30 27 1 14 16
M  V30 28 1 23 26
M  V30 29 1 3 27
M  V30 30 1 6 28
M  V30 31 1 7 29
M  V30 32 1 9 30
M  V30 33 1 10 31
M  V30 34 1 11 32
M  V30 35 1 12 33
M  V30 36 1 12 34
M  V30 37 1 13 35
M  V30 38 1 16 36
M  V30 39 1 18 37
M  V30 40 1 18 38
M  V30 41 1 19 39
M  V30 42 1 20 40
M  V30 43 1 22 41
M  V30 44 1 23 42
M  V30 45 1 24 43
M  V30 46 1 24 44
M  V30 47 1 24 45
M  V30 48 1 25 46
M  V30 49 1 25 47
M  V30 50 1 25 48
M  V30 51 1 26 49
M  V30 END BOND
M  V30 END CTAB
M  END
>  <Column 1>
821

>  <level_0>
939

>  <index>
939

>  <Unnamed: 0>
939

>  <NO.>
951

>  <Name>
schembl18653512

>  <IUPAC_name>
n-(2-amino-5-phenylphenyl)-4-[(dimethylamino)methyl]benzamide

>  <SMILES>
CN(C)Cc1ccc(C(=O)Nc2cc(-c3ccccc3)ccc2N)cc1

>  <CID>
53245431

>  <logBB>
0.88

>  <BBB+/BBB->
BBB+

>  <Inchi>
InChI=1S/C22H23N3O/c1-25(2)15-16-8-10-18(11-9-16)22(26)24-21-14-19(12-13-20(21)23)17-6-4-3-5-7-17/h3-14H-15-23H2-1-2H3-(H-24-26)

>  <threshold>


>  <reference>
R47|

>  <group>
A

>  <Class>
1

>  <ABC>
20.12

>  <ABCGG>
15.34

>  <nAcid>
0

>  <nBase>
1

>  <nAromAtom>
18

>  <nAromBond>
18

>  <nAtom>
49

>  <nHeavyAtom>
26

>  <nSpiro>
0

>  <nBridgehead>
0

>  <nHetero>
4

>  <nN>
3

>  <nO>
1

>  <nF>
0

>  <BalabanJ>
1.45

>  <BertzCT>
887.02

>  <nBonds>
51

>  <nBondsO>
28

>  <nBondsS>
32

>  <nBondsD>
1

>  <nBondsT>
0

>  <nBondsA>
18

>  <nBondsM>
19

>  <nBondsKS>
41

>  <nBondsKD>
10

>  <RNCG>
0.2

>  <RPCG>
0.13

>  <FCSP3>
0.14

>  <SZ>
30.67

>  <Sm>
28.76

>  <Sv>
31.22

>  <Sse>
48.53

>  <Sp>
33.64

>  <Si>
54.86

>  <MZ>
0.63

>  <Mm>
0.59

>  <Mv>
0.64

>  <Mse>
0.99

>  <Mp>
0.69

>  <Mi>
1.12

>  <NsCH3>
2

>  <NdCH2>
0

>  <NssCH2>
1

>  <NtCH>
0

>  <NdsCH>
0

>  <NaaCH>
12

>  <NsssCH>
0

>  <NddC>
0

>  <NtsC>
0

>  <NdssC>
1

>  <NaasC>
6

>  <NaaaC>
0

>  <NssssC>
0

>  <NsNH3>
0

>  <NsNH2>
1

>  <NssNH2>
0

>  <NdNH>
0

>  <NssNH>
1

>  <NaaNH>
0

>  <NtN>
0

>  <NsssNH>
0

>  <NdsN>
0

>  <NaaN>
0

>  <NsssN>
1

>  <NddsN>
0

>  <NaasN>
0

>  <NssssN>
0

>  <NsOH>
0

>  <NdO>
1

>  <NssO>
0

>  <NaaO>
0

>  <NsF>
0

>  <NsSiH3>
0

>  <NssSiH2>
0

>  <NsssSiH>
0

>  <NssssSi>
0

>  <NsPH2>
0

>  <NssPH>
0

>  <NsssP>
0

>  <NdsssP>
0

>  <NsssssP>
0

>  <NsSH>
0

>  <NdS>
0

>  <NssS>
0

>  <NaaS>
0

>  <NdssS>
0

>  <NddssS>
0

>  <NsCl>
0

>  <NsBr>
0

>  <NsI>
0

>  <fragCpx>
134.04

>  <fMF>
0.41

>  <nHBAcc>
3

>  <nHBDon>
2

>  <Kier1>
20.73

>  <Kier2>
9.97

>  <Lipinski>
1

>  <GhoseFilter>
1

>  <FilterItLogS>
-5.74

>  <VMcGowan>
281.07

>  <LabuteASA>
153.82

>  <PEOE_VSA1>
15.95

>  <PEOE_VSA2>
4.79

>  <PEOE_VSA3>
0

>  <PEOE_VSA4>
0

>  <PEOE_VSA5>
0

>  <PEOE_VSA6>
48.53

>  <PEOE_VSA7>
55.05

>  <PEOE_VSA8>
12.11

>  <PEOE_VSA9>
11.37

>  <PEOE_VSA10>
0

>  <PEOE_VSA11>
0

>  <PEOE_VSA12>
0

>  <PEOE_VSA13>
5.91

>  <SMR_VSA1>
4.79

>  <SMR_VSA2>
0

>  <SMR_VSA3>
4.9

>  <SMR_VSA4>
0

>  <SMR_VSA5>
6.54

>  <SMR_VSA6>
25.15

>  <SMR_VSA7>
83.92

>  <SMR_VSA8>
0

>  <SMR_VSA9>
11.13

>  <SlogP_VSA1>
11.05

>  <SlogP_VSA2>
24.9

>  <SlogP_VSA3>
6.54

>  <SlogP_VSA4>
0

>  <SlogP_VSA5>
15.92

>  <SlogP_VSA6>
72.8

>  <SlogP_VSA7>
0

>  <SlogP_VSA8>
11.13

>  <SlogP_VSA9>
0

>  <SlogP_VSA10>
11.37

>  <SlogP_VSA11>
0

>  <EState_VSA1>
0

>  <EState_VSA2>
5.91

>  <EState_VSA3>
16.94

>  <EState_VSA4>
23.24

>  <EState_VSA5>
0

>  <EState_VSA6>
0

>  <EState_VSA7>
86.89

>  <EState_VSA8>
10.22

>  <EState_VSA9>
5.73

>  <EState_VSA10>
4.79

>  <VSA_EState1>
0

>  <VSA_EState2>
14.66

>  <VSA_EState3>
2.92

>  <VSA_EState4>
11.08

>  <VSA_EState5>
-0.17

>  <VSA_EState6>
23.3

>  <VSA_EState7>
0

>  <VSA_EState8>
0.84

>  <VSA_EState9>
4.03

>  <apol>
56.18

>  <bpol>
25.65

>  <nRing>
3

>  <nHRing>
0

>  <naRing>
3

>  <naHRing>
0

>  <nARing 2>
0

>  <nAHRing 2>
0

>  <nFRing>
0

>  <nFHRing>
0

>  <nFaRing>
0

>  <nFaHRing>
0

>  <nFARing 2>
0

>  <nFAHRing 2>
0

>  <nRot>
5

>  <SLogP>
4.25

>  <SMR>
108.08

>  <TopoPSA(NO)>
58.36

>  <TopoPSA>
58.36

>  <JGI1>
0.2

>  <JGI2>
0.08

>  <JGI3>
0.04

>  <JGI4>
0.04

>  <JGI5>
0.03

>  <Diameter>
15

>  <Radius>
8

>  <TMWC10>
128.49

>  <TSRW10>
60.64

>  <MW>
345.18

>  <AMW>
7.04

>  <WPath>
1874

>  <WPol>
38

>  <Zagreb1>
132

>  <Zagreb2>
151

>  <mZagreb2>
5.75

>  <yes>


>  <nAR-cont>
0.336376

>  <nHA-cont>
0.892715677

>  <MWHBN>
0.269120755

>  <MWHBN-cont>
0.922097202

>  <TPSA-cont>
0.592610961

>  <pka_cont>
0.97

>  <yes.1>


>  <BBB_SCORE>
4.282459402

>  <MMFF94 Energy>
72.336

$$$$
Compound 684
Actelion Java MolfileCreator 2.0

  0  0  0  0  0  0              0 V3000
M  V30 BEGIN CTAB
M  V30 COUNTS 36 37 0 0 0
M  V30 BEGIN ATOM
M  V30 1 O -3.0076 0.079 -1.4237 0
M  V30 2 C -1.7857 0.0277 -1.3282 0
M  V30 3 O -0.9405 -0.1124 -2.3915 0
M  V30 4 C -1.035 0.0539 0.0012 0
M  V30 5 C -1.6047 -0.2028 -3.6528 0
M  V30 6 C -0.9543 -1.3623 0.5636 0
M  V30 7 C 0.3467 0.781 -0.0728 0
M  V30 8 C -1.7179 -1.7103 1.6889 0
M  V30 9 C -0.1415 -2.3427 -0.028 0
M  V30 10 N 0.2045 2.1578 -0.6062 0
M  V30 11 C 1.0024 0.8487 1.3264 0
M  V30 12 C -1.6594 -3.0014 2.2163 0
M  V30 13 C -0.0851 -3.633 0.5019 0
M  V30 14 C 1.4917 2.8504 -0.6989 0
M  V30 15 C 2.3328 1.5962 1.301 0
M  V30 16 C -0.8422 -3.9613 1.6242 0
M  V30 17 C 2.1645 2.9671 0.6627 0
M  V30 18 H -1.6655 0.66 0.6696 0
M  V30 19 H -0.8424 -0.3149 -4.4287 0
M  V30 20 H -2.2582 -1.0803 -3.6803 0
M  V30 21 H -2.1713 0.7118 -3.854 0
M  V30 22 H 1.0154 0.2242 -0.7429 0
M  V30 23 H -2.3684 -0.9777 2.1635 0
M  V30 24 H 0.453 -2.1151 -0.9102 0
M  V30 25 H -0.1958 2.1164 -1.5453 0
M  V30 26 H 1.1859 -0.158 1.7177 0
M  V30 27 H 0.3237 1.3457 2.0324 0
M  V30 28 H -2.2559 -3.2582 3.0881 0
M  V30 29 H 0.5475 -4.3842 0.0362 0
M  V30 30 H 1.322 3.8552 -1.1013 0
M  V30 31 H 2.1487 2.3299 -1.4064 0
M  V30 32 H 2.7231 1.7016 2.3193 0
M  V30 33 H 3.0683 1.0135 0.7328 0
M  V30 34 H -0.7995 -4.9667 2.0347 0
M  V30 35 H 1.5621 3.607 1.32 0
M  V30 36 H 3.1425 3.4494 0.5551 0
M  V30 END ATOM
M  V30 BEGIN BOND
M  V30 1 2 1 2
M  V30 2 1 2 3
M  V30 3 1 2 4
M  V30 4 1 3 5
M  V30 5 1 4 6
M  V30 6 1 4 7
M  V30 7 2 6 8
M  V30 8 1 6 9
M  V30 9 1 7 10
M  V30 10 1 7 11
M  V30 11 1 8 12
M  V30 12 2 9 13
M  V30 13 1 10 14
M  V30 14 1 11 15
M  V30 15 2 12 16
M  V30 16 1 14 17
M  V30 17 1 13 16
M  V30 18 1 15 17
M  V30 19 1 4 18
M  V30 20 1 5 19
M  V30 21 1 5 20
M  V30 22 1 5 21
M  V30 23 1 7 22
M  V30 24 1 8 23
M  V30 25 1 9 24
M  V30 26 1 10 25
M  V30 27 1 11 26
M  V30 28 1 11 27
M  V30 29 1 12 28
M  V30 30 1 13 29
M  V30 31 1 14 30
M  V30 32 1 14 31
M  V30 33 1 15 32
M  V30 34 1 15 33
M  V30 35 1 16 34
M  V30 36 1 17 35
M  V30 37 1 17 36
M  V30 END BOND
M  V30 END CTAB
M  END
>  <Column 1>
822

>  <level_0>
940

>  <index>
940

>  <Unnamed: 0>
940

>  <NO.>
952

>  <Name>
methylphenidate

>  <IUPAC_name>
methyl 2-phenyl-2-piperidin-2-ylacetate

>  <SMILES>
COC(=O)C(c1ccccc1)C1CCCCN1

>  <CID>
4158

>  <logBB>
0.88

>  <BBB+/BBB->
BBB+

>  <Inchi>
InChI=1S/C14H19NO2/c1-17-14(16)13(11-7-3-2-4-8-11)12-9-5-6-10-15-12/h2-4-7-8-12-13-15H-5-6-9-10H2-1H3

>  <threshold>


>  <reference>
R2|R2|R8|R27|R18|R26|R27|

>  <group>
A

>  <Class>
1

>  <ABC>
12.72

>  <ABCGG>
11.31

>  <nAcid>
0

>  <nBase>
1

>  <nAromAtom>
6

>  <nAromBond>
6

>  <nAtom>
36

>  <nHeavyAtom>
17

>  <nSpiro>
0

>  <nBridgehead>
0

>  <nHetero>
3

>  <nN>
1

>  <nO>
2

>  <nF>
0

>  <BalabanJ>
2

>  <BertzCT>
357.74

>  <nBonds>
37

>  <nBondsO>
18

>  <nBondsS>
30

>  <nBondsD>
1

>  <nBondsT>
0

>  <nBondsA>
6

>  <nBondsM>
7

>  <nBondsKS>
33

>  <nBondsKD>
4

>  <RNCG>
0.31

>  <RPCG>
0.21

>  <FCSP3>
0.5

>  <SZ>
21

>  <Sm>
19.42

>  <Sv>
21.33

>  <Sse>
35.76

>  <Sp>
23.21

>  <Si>
40.65

>  <MZ>
0.58

>  <Mm>
0.54

>  <Mv>
0.59

>  <Mse>
0.99

>  <Mp>
0.64

>  <Mi>
1.13

>  <NsCH3>
1

>  <NdCH2>
0

>  <NssCH2>
4

>  <NtCH>
0

>  <NdsCH>
0

>  <NaaCH>
5

>  <NsssCH>
2

>  <NddC>
0

>  <NtsC>
0

>  <NdssC>
1

>  <NaasC>
1

>  <NaaaC>
0

>  <NssssC>
0

>  <NsNH3>
0

>  <NsNH2>
0

>  <NssNH2>
0

>  <NdNH>
0

>  <NssNH>
1

>  <NaaNH>
0

>  <NtN>
0

>  <NsssNH>
0

>  <NdsN>
0

>  <NaaN>
0

>  <NsssN>
0

>  <NddsN>
0

>  <NaasN>
0

>  <NssssN>
0

>  <NsOH>
0

>  <NdO>
1

>  <NssO>
1

>  <NaaO>
0

>  <NsF>
0

>  <NsSiH3>
0

>  <NssSiH2>
0

>  <NsssSiH>
0

>  <NssssSi>
0

>  <NsPH2>
0

>  <NssPH>
0

>  <NsssP>
0

>  <NdsssP>
0

>  <NsssssP>
0

>  <NsSH>
0

>  <NdS>
0

>  <NssS>
0

>  <NaaS>
0

>  <NdssS>
0

>  <NddssS>
0

>  <NsCl>
0

>  <NsBr>
0

>  <NsI>
0

>  <fragCpx>
52.03

>  <fMF>
0.36

>  <nHBAcc>
3

>  <nHBDon>
1

>  <Kier1>
13.43

>  <Kier2>
6.81

>  <Lipinski>
1

>  <GhoseFilter>
1

>  <FilterItLogS>
-2.98

>  <VMcGowan>
190.92

>  <LabuteASA>
102.17

>  <PEOE_VSA1>
10.05

>  <PEOE_VSA2>
4.79

>  <PEOE_VSA3>
0

>  <PEOE_VSA4>
0

>  <PEOE_VSA5>
0

>  <PEOE_VSA6>
36.75

>  <PEOE_VSA7>
24.95

>  <PEOE_VSA8>
6.04

>  <PEOE_VSA9>
13.03

>  <PEOE_VSA10>
0

>  <PEOE_VSA11>
0

>  <PEOE_VSA12>
0

>  <PEOE_VSA13>
0

>  <SMR_VSA1>
9.53

>  <SMR_VSA2>
0

>  <SMR_VSA3>
5.32

>  <SMR_VSA4>
0

>  <SMR_VSA5>
31.22

>  <SMR_VSA6>
13.65

>  <SMR_VSA7>
35.9

>  <SMR_VSA8>
0

>  <SMR_VSA9>
0

>  <SlogP_VSA1>
5.32

>  <SlogP_VSA2>
25.67

>  <SlogP_VSA3>
9.53

>  <SlogP_VSA4>
0

>  <SlogP_VSA5>
30.74

>  <SlogP_VSA6>
30.33

>  <SlogP_VSA7>
0

>  <SlogP_VSA8>
0

>  <SlogP_VSA9>
0

>  <SlogP_VSA10>
0

>  <SlogP_VSA11>
0

>  <EState_VSA1>
0

>  <EState_VSA2>
17.93

>  <EState_VSA3>
0

>  <EState_VSA4>
18.53

>  <EState_VSA5>
19.95

>  <EState_VSA6>
0

>  <EState_VSA7>
30.33

>  <EState_VSA8>
5.32

>  <EState_VSA9>
4.74

>  <EState_VSA10>
4.79

>  <VSA_EState1>
4.94

>  <VSA_EState2>
11.95

>  <VSA_EState3>
3.43

>  <VSA_EState4>
1.04

>  <VSA_EState5>
-0.32

>  <VSA_EState6>
10.1

>  <VSA_EState7>
3.41

>  <VSA_EState8>
0.99

>  <VSA_EState9>
1.46

>  <apol>
38.75

>  <bpol>
22.23

>  <nRing>
2

>  <nHRing>
1

>  <naRing>
1

>  <naHRing>
0

>  <nARing 2>
1

>  <nAHRing 2>
1

>  <nFRing>
0

>  <nFHRing>
0

>  <nFaRing>
0

>  <nFaHRing>
0

>  <nFARing 2>
0

>  <nFAHRing 2>
0

>  <nRot>
3

>  <SLogP>
2.09

>  <SMR>
66.84

>  <TopoPSA(NO)>
38.33

>  <TopoPSA>
38.33

>  <JGI1>
0.11

>  <JGI2>
0.07

>  <JGI3>
0.06

>  <JGI4>
0.03

>  <JGI5>
0.01

>  <Diameter>
8

>  <Radius>
4

>  <TMWC10>
105.25

>  <TSRW10>
49.26

>  <MW>
233.14

>  <AMW>
6.48

>  <WPath>
498

>  <WPol>
24

>  <Zagreb1>
82

>  <Zagreb2>
94

>  <mZagreb2>
4

>  <yes>


>  <nAR-cont>
0.816016

>  <nHA-cont>
0.976740822

>  <MWHBN>
0.261970021

>  <MWHBN-cont>
0.937445892

>  <TPSA-cont>
0.732432798

>  <pka_cont>
0.97

>  <yes.1>


>  <BBB_SCORE>
5.148791257

>  <MMFF94 Energy>
48.523

$$$$
Compound 685
Actelion Java MolfileCreator 2.0

  0  0  0  0  0  0              0 V3000
M  V30 BEGIN CTAB
M  V30 COUNTS 50 52 0 0 0
M  V30 BEGIN ATOM
M  V30 1 F -3.8718 -1.5312 2.1765 0
M  V30 2 C -3.1396 -1.7408 3.2913 0
M  V30 3 F -2.0184 -2.4236 2.9771 0
M  V30 4 F -3.8718 -2.5069 4.1315 0
M  V30 5 O -2.8354 -0.5198 3.9442 0
M  V30 6 C -2.1138 0.4093 3.2534 0
M  V30 7 C -1.6076 0.2761 1.9629 0
M  V30 8 C -1.8718 1.5932 3.9513 0
M  V30 9 C -0.8747 1.3194 1.3595 0
M  V30 10 C -1.1378 2.6336 3.3726 0
M  V30 11 C -0.6429 2.5092 2.0722 0
M  V30 12 C -0.3228 1.1004 -0.0336 0
M  V30 13 O 0.1035 3.4629 1.4342 0
M  V30 14 N 1.0156 0.5096 0.0385 0
M  V30 15 C -0.0268 4.7917 1.9105 0
M  V30 16 C 1.5298 0.1462 -1.3008 0
M  V30 17 F 0.7015 4.9299 3.0455 0
M  V30 18 F 0.5402 5.6074 0.9856 0
M  V30 19 C 1.4412 -1.3949 -1.5965 0
M  V30 20 C 3.0045 0.5936 -1.3744 0
M  V30 21 N 2.1026 -1.7472 -2.8728 0
M  V30 22 C 0.0082 -1.9149 -1.6165 0
M  V30 23 C 3.6532 0.1512 -2.6814 0
M  V30 24 C 3.5066 -1.3518 -2.8843 0
M  V30 25 C -0.4743 -2.6864 -0.547 0
M  V30 26 C -0.86 -1.6291 -2.6832 0
M  V30 27 C -1.7886 -3.1575 -0.5439 0
M  V30 28 C -2.1741 -2.1002 -2.678 0
M  V30 29 C -2.638 -2.863 -1.6081 0
M  V30 30 H -1.7507 -0.6337 1.3856 0
M  V30 31 H -2.2448 1.7064 4.9675 0
M  V30 32 H -0.948 3.5126 3.9817 0
M  V30 33 H -0.2976 2.0503 -0.582 0
M  V30 34 H -1.0188 0.4581 -0.5828 0
M  V30 35 H 1.6209 1.2076 0.4718 0
M  V30 36 H -1.0649 5.1048 2.0688 0
M  V30 37 H 0.9869 0.6991 -2.0809 0
M  V30 38 H 1.9782 -1.9269 -0.7974 0
M  V30 39 H 3.0746 1.6851 -1.2874 0
M  V30 40 H 3.571 0.1687 -0.5347 0
M  V30 41 H 2.0323 -2.7576 -2.9944 0
M  V30 42 H 3.1929 0.6876 -3.5207 0
M  V30 43 H 4.7154 0.4206 -2.6742 0
M  V30 44 H 4.0633 -1.8987 -2.1136 0
M  V30 45 H 3.9435 -1.6273 -3.8502 0
M  V30 46 H 0.1705 -2.913 0.2995 0
M  V30 47 H -0.5078 -1.038 -3.5262 0
M  V30 48 H -2.1489 -3.7512 0.292 0
M  V30 49 H -2.8338 -1.8731 -3.5111 0
M  V30 50 H -3.6611 -3.2293 -1.6048 0
M  V30 END ATOM
M  V30 BEGIN BOND
M  V30 1 1 1 2
M  V30 2 1 2 3
M  V30 3 1 2 4
M  V30 4 1 2 5
M  V30 5 1 5 6
M  V30 6 2 6 7
M  V30 7 1 6 8
M  V30 8 1 7 9
M  V30 9 2 8 10
M  V30 10 2 9 11
M  V30 11 1 9 12
M  V30 12 1 11 13
M  V30 13 1 12 14
M  V30 14 1 13 15
M  V30 15 1 14 16
M  V30 16 1 15 17
M  V30 17 1 15 18
M  V30 18 1 16 19
M  V30 19 1 16 20
M  V30 20 1 19 21
M  V30 21 1 19 22
M  V30 22 1 20 23
M  V30 23 1 21 24
M  V30 24 2 22 25
M  V30 25 1 22 26
M  V30 26 1 25 27
M  V30 27 2 26 28
M  V30 28 2 27 29
M  V30 29 1 10 11
M  V30 30 1 23 24
M  V30 31 1 28 29
M  V30 32 1 7 30
M  V30 33 1 8 31
M  V30 34 1 10 32
M  V30 35 1 12 33
M  V30 36 1 12 34
M  V30 37 1 14 35
M  V30 38 1 15 36
M  V30 39 1 16 37
M  V30 40 1 19 38
M  V30 41 1 20 39
M  V30 42 1 20 40
M  V30 43 1 21 41
M  V30 44 1 23 42
M  V30 45 1 23 43
M  V30 46 1 24 44
M  V30 47 1 24 45
M  V30 48 1 25 46
M  V30 49 1 26 47
M  V30 50 1 27 48
M  V30 51 1 28 49
M  V30 52 1 29 50
M  V30 END BOND
M  V30 END CTAB
M  END
>  <Column 1>
823

>  <level_0>
941

>  <index>
941

>  <Unnamed: 0>
941

>  <NO.>
953

>  <Name>
145742-22-9

>  <IUPAC_name>
n-[[2-(difluoromethoxy)-5-(trifluoromethoxy)phenyl]methyl]-2-phenylpiperidin-3-amine

>  <SMILES>
FC(F)Oc1ccc(OC(F)(F)F)cc1CNC1CCCNC1c1ccccc1

>  <CID>
10201984

>  <logBB>
0.88

>  <BBB+/BBB->
BBB+

>  <Inchi>
InChI=1S/C20H21F5N2O2/c21-19(22)28-17-9-8-15(29-20(23-24)25)11-14(17)12-27-16-7-4-10-26-18(16)13-5-2-1-3-6-13/h1-3-5-6-8-9-11-16-18-19-26-27H-4-7-10-12H2

>  <threshold>


>  <reference>
R2|R2|R8|R25|R27|R47|R4|R40|

>  <group>
A

>  <Class>
1

>  <ABC>
22.49

>  <ABCGG>
17.64

>  <nAcid>
0

>  <nBase>
2

>  <nAromAtom>
12

>  <nAromBond>
12

>  <nAtom>
50

>  <nHeavyAtom>
29

>  <nSpiro>
0

>  <nBridgehead>
0

>  <nHetero>
9

>  <nN>
2

>  <nO>
2

>  <nF>
5

>  <BalabanJ>
1.58

>  <BertzCT>
786.19

>  <nBonds>
52

>  <nBondsO>
31

>  <nBondsS>
40

>  <nBondsD>
0

>  <nBondsT>
0

>  <nBondsA>
12

>  <nBondsM>
12

>  <nBondsKS>
46

>  <nBondsKD>
6

>  <RNCG>
0.16

>  <RPCG>
0.22

>  <FCSP3>
0.4

>  <SZ>
36

>  <Sm>
34.67

>  <Sv>
31.87

>  <Sse>
52.09

>  <Sp>
32.33

>  <Si>
58.1

>  <MZ>
0.72

>  <Mm>
0.69

>  <Mv>
0.64

>  <Mse>
1.04

>  <Mp>
0.65

>  <Mi>
1.16

>  <NsCH3>
0

>  <NdCH2>
0

>  <NssCH2>
4

>  <NtCH>
0

>  <NdsCH>
0

>  <NaaCH>
8

>  <NsssCH>
3

>  <NddC>
0

>  <NtsC>
0

>  <NdssC>
0

>  <NaasC>
4

>  <NaaaC>
0

>  <NssssC>
1

>  <NsNH3>
0

>  <NsNH2>
0

>  <NssNH2>
0

>  <NdNH>
0

>  <NssNH>
2

>  <NaaNH>
0

>  <NtN>
0

>  <NsssNH>
0

>  <NdsN>
0

>  <NaaN>
0

>  <NsssN>
0

>  <NddsN>
0

>  <NaasN>
0

>  <NssssN>
0

>  <NsOH>
0

>  <NdO>
0

>  <NssO>
2

>  <NaaO>
0

>  <NsF>
5

>  <NsSiH3>
0

>  <NssSiH2>
0

>  <NsssSiH>
0

>  <NssssSi>
0

>  <NsPH2>
0

>  <NssPH>
0

>  <NsssP>
0

>  <NdsssP>
0

>  <NsssssP>
0

>  <NsSH>
0

>  <NdS>
0

>  <NssS>
0

>  <NaaS>
0

>  <NdssS>
0

>  <NddssS>
0

>  <NsCl>
0

>  <NsBr>
0

>  <NsI>
0

>  <fragCpx>
149.09

>  <fMF>
0.4

>  <nHBAcc>
4

>  <nHBDon>
2

>  <Kier1>
23.66

>  <Kier2>
11.04

>  <Lipinski>
1

>  <GhoseFilter>
1

>  <FilterItLogS>
-6.02

>  <VMcGowan>
274.78

>  <LabuteASA>
164.56

>  <PEOE_VSA1>
20.11

>  <PEOE_VSA2>
0

>  <PEOE_VSA3>
0

>  <PEOE_VSA4>
8.78

>  <PEOE_VSA5>
13.17

>  <PEOE_VSA6>
30.33

>  <PEOE_VSA7>
43.15

>  <PEOE_VSA8>
24.19

>  <PEOE_VSA9>
0

>  <PEOE_VSA10>
11.5

>  <PEOE_VSA11>
0

>  <PEOE_VSA12>
0

>  <PEOE_VSA13>
0

>  <SMR_VSA1>
31.43

>  <SMR_VSA2>
0

>  <SMR_VSA3>
10.63

>  <SMR_VSA4>
0

>  <SMR_VSA5>
44.44

>  <SMR_VSA6>
6.54

>  <SMR_VSA7>
59.66

>  <SMR_VSA8>
0

>  <SMR_VSA9>
11.5

>  <SlogP_VSA1>
20.11

>  <SlogP_VSA2>
25.56

>  <SlogP_VSA3>
6.54

>  <SlogP_VSA4>
0

>  <SlogP_VSA5>
30.01

>  <SlogP_VSA6>
48.53

>  <SlogP_VSA7>
0

>  <SlogP_VSA8>
0

>  <SlogP_VSA9>
0

>  <SlogP_VSA10>
21.95

>  <SlogP_VSA11>
11.5

>  <EState_VSA1>
18.72

>  <EState_VSA2>
29.94

>  <EState_VSA3>
0

>  <EState_VSA4>
43.15

>  <EState_VSA5>
0

>  <EState_VSA6>
0

>  <EState_VSA7>
30.33

>  <EState_VSA8>
20.11

>  <EState_VSA9>
0

>  <EState_VSA10>
21.95

>  <VSA_EState1>
71.24

>  <VSA_EState2>
0

>  <VSA_EState3>
6.69

>  <VSA_EState4>
1.23

>  <VSA_EState5>
-0.68

>  <VSA_EState6>
12.77

>  <VSA_EState7>
-3.13

>  <VSA_EState8>
-2.2

>  <VSA_EState9>
0

>  <apol>
53.99

>  <bpol>
31.24

>  <nRing>
3

>  <nHRing>
1

>  <naRing>
2

>  <naHRing>
0

>  <nARing 2>
1

>  <nAHRing 2>
1

>  <nFRing>
0

>  <nFHRing>
0

>  <nFaRing>
0

>  <nFaHRing>
0

>  <nFARing 2>
0

>  <nFAHRing 2>
0

>  <nRot>
7

>  <SLogP>
4.77

>  <SMR>
96.8

>  <TopoPSA(NO)>
42.52

>  <TopoPSA>
42.52

>  <JGI1>
0.23

>  <JGI2>
0.06

>  <JGI3>
0.05

>  <JGI4>
0.03

>  <JGI5>
0.02

>  <Diameter>
13

>  <Radius>
7

>  <TMWC10>
135.62

>  <TSRW10>
64.24

>  <MW>
416.15

>  <AMW>
8.32

>  <WPath>
2358

>  <WPol>
41

>  <Zagreb1>
148

>  <Zagreb2>
167

>  <mZagreb2>
6.29

>  <yes>


>  <nAR-cont>
0.816016

>  <nHA-cont>
0.785905698

>  <MWHBN>
0.294121181

>  <MWHBN-cont>
0.857940055

>  <TPSA-cont>
0.703183997

>  <pka_cont>
0.97

>  <yes.1>


>  <BBB_SCORE>
4.780199774

>  <MMFF94 Energy>
72.591

$$$$
Compound 686
Actelion Java MolfileCreator 2.0

  0  0  0  0  0  0              0 V3000
M  V30 BEGIN CTAB
M  V30 COUNTS 57 60 0 0 0
M  V30 BEGIN ATOM
M  V30 1 O -0.3982 3.3493 -2.5511 0
M  V30 2 C -0.9502 2.9034 -1.56 0
M  V30 3 C -1.6629 3.7301 -0.5974 0
M  V30 4 C -1.0287 1.4433 -1.1415 0 CFG=2
M  V30 5 C -2.1546 2.9125 0.4064 0
M  V30 6 C -1.8548 5.0996 -0.6221 0
M  V30 7 C -1.7995 1.4738 0.2017 0
M  V30 8 C 0.3735 0.8284 -1.0416 0
M  V30 9 C -2.8789 3.4645 1.4525 0
M  V30 10 C -2.5836 5.6718 0.4241 0
M  V30 11 C 0.4113 -0.7012 -1.2352 0
M  V30 12 C -3.0986 4.8516 1.4667 0
M  V30 13 O -2.8538 7.0152 0.5309 0
M  V30 14 C 1.8677 -1.1909 -1.2174 0
M  V30 15 C -0.3946 -1.4738 -0.1849 0
M  V30 16 O -3.8008 5.5095 2.4483 0
M  V30 17 C -2.3476 7.87 -0.4851 0
M  V30 18 C 1.9604 -2.713 -1.3384 0
M  V30 19 C -0.2218 -2.9871 -0.3393 0
M  V30 20 C -4.3218 4.7374 3.5202 0
M  V30 21 N 1.1927 -3.374 -0.2712 0
M  V30 22 C 1.3181 -4.8419 -0.3524 0
M  V30 23 C 2.7031 -5.3522 -0.0118 0
M  V30 24 C 3.3994 -6.1784 -0.9057 0
M  V30 25 C 3.3005 -5.0283 1.2158 0
M  V30 26 C 4.6686 -6.6617 -0.5814 0
M  V30 27 C 4.5693 -5.5117 1.5381 0
M  V30 28 C 5.2528 -6.3282 0.6394 0
M  V30 29 H -1.628 0.9254 -1.9008 0
M  V30 30 H -1.4394 5.6731 -1.4417 0
M  V30 31 H -1.1936 1.1144 1.0397 0
M  V30 32 H -2.7079 0.8655 0.1339 0
M  V30 33 H 0.836 1.0983 -0.0831 0
M  V30 34 H 1.0165 1.2737 -1.8127 0
M  V30 35 H -3.2559 2.813 2.2324 0
M  V30 36 H -0.0092 -0.9291 -2.2244 0
M  V30 37 H 2.3575 -0.8718 -0.2877 0
M  V30 38 H 2.4251 -0.7311 -2.0424 0
M  V30 39 H -1.4606 -1.2398 -0.276 0
M  V30 40 H -0.0815 -1.1731 0.8232 0
M  V30 41 H -1.2533 7.8438 -0.5145 0
M  V30 42 H -2.6488 8.8935 -0.2414 0
M  V30 43 H -2.7771 7.6207 -1.4609 0
M  V30 44 H 3.0208 -2.9825 -1.2755 0
M  V30 45 H 1.6038 -3.0262 -2.3285 0
M  V30 46 H -0.7797 -3.4721 0.4712 0
M  V30 47 H -0.673 -3.315 -1.2852 0
M  V30 48 H -5.055 4.0077 3.1613 0
M  V30 49 H -4.8386 5.4186 4.2032 0
M  V30 50 H -3.519 4.2494 4.0826 0
M  V30 51 H 0.635 -5.3135 0.3672 0
M  V30 52 H 1.0118 -5.1979 -1.3452 0
M  V30 53 H 2.9588 -6.449 -1.8622 0
M  V30 54 H 2.7753 -4.3862 1.9202 0
M  V30 55 H 5.2021 -7.2987 -1.2818 0
M  V30 56 H 5.0236 -5.2484 2.4895 0
M  V30 57 H 6.2412 -6.7037 0.8902 0
M  V30 END ATOM
M  V30 BEGIN BOND
M  V30 1 2 1 2
M  V30 2 1 2 3
M  V30 3 1 2 4
M  V30 4 2 3 5
M  V30 5 1 3 6
M  V30 6 1 4 7
M  V30 7 1 4 8
M  V30 8 1 5 9
M  V30 9 2 6 10
M  V30 10 1 8 11
M  V30 11 2 9 12
M  V30 12 1 10 13
M  V30 13 1 11 14
M  V30 14 1 11 15
M  V30 15 1 12 16
M  V30 16 1 13 17
M  V30 17 1 14 18
M  V30 18 1 15 19
M  V30 19 1 16 20
M  V30 20 1 18 21
M  V30 21 1 21 22
M  V30 22 1 22 23
M  V30 23 2 23 24
M  V30 24 1 23 25
M  V30 25 1 24 26
M  V30 26 2 25 27
M  V30 27 2 26 28
M  V30 28 1 5 7
M  V30 29 1 10 12
M  V30 30 1 19 21
M  V30 31 1 27 28
M  V30 32 1 4 29
M  V30 33 1 6 30
M  V30 34 1 7 31
M  V30 35 1 7 32
M  V30 36 1 8 33
M  V30 37 1 8 34
M  V30 38 1 9 35
M  V30 39 1 11 36
M  V30 40 1 14 37
M  V30 41 1 14 38
M  V30 42 1 15 39
M  V30 43 1 15 40
M  V30 44 1 17 41
M  V30 45 1 17 42
M  V30 46 1 17 43
M  V30 47 1 18 44
M  V30 48 1 18 45
M  V30 49 1 19 46
M  V30 50 1 19 47
M  V30 51 1 20 48
M  V30 52 1 20 49
M  V30 53 1 20 50
M  V30 54 1 22 51
M  V30 55 1 22 52
M  V30 56 1 24 53
M  V30 57 1 25 54
M  V30 58 1 26 55
M  V30 59 1 27 56
M  V30 60 1 28 57
M  V30 END BOND
M  V30 BEGIN COLLECTION
M  V30 MDLV30/STERAC1 ATOMS=(1 4)
M  V30 END COLLECTION
M  V30 END CTAB
M  END
>  <Column 1>
824

>  <level_0>
942

>  <index>
942

>  <Unnamed: 0>
942

>  <NO.>
954

>  <Name>
donepezil

>  <IUPAC_name>
2-[(1-benzylpiperidin-4-yl)methyl]-5-6-dimethoxy-2-3-dihydroinden-1-one

>  <SMILES>
COc1cc2c(cc1OC)C(=O)C(CC1CCN(Cc3ccccc3)CC1)C2

>  <CID>
3152

>  <logBB>
0.89

>  <BBB+/BBB->
BBB+

>  <Inchi>
InChI=1S/C24H29NO3/c1-27-22-14-19-13-20(24(26)21(19)15-23(22)28-2)12-17-8-10-25(11-9-17)16-18-6-4-3-5-7-18/h3-7-14-15-17-20H-8-13-16H2-1-2H3

>  <threshold>


>  <reference>
R18|R26|R27|R2|R2|R8|R27|R40|R21|R25|R27|R43|R46|R47|R4|

>  <group>
A

>  <Class>
1

>  <ABC>
21.87

>  <ABCGG>
16.13

>  <nAcid>
0

>  <nBase>
1

>  <nAromAtom>
12

>  <nAromBond>
12

>  <nAtom>
57

>  <nHeavyAtom>
28

>  <nSpiro>
0

>  <nBridgehead>
0

>  <nHetero>
4

>  <nN>
1

>  <nO>
3

>  <nF>
0

>  <BalabanJ>
1.23

>  <BertzCT>
825.24

>  <nBonds>
60

>  <nBondsO>
31

>  <nBondsS>
47

>  <nBondsD>
1

>  <nBondsT>
0

>  <nBondsA>
12

>  <nBondsM>
13

>  <nBondsKS>
53

>  <nBondsKD>
7

>  <RNCG>
0.23

>  <RPCG>
0.08

>  <FCSP3>
0.46

>  <SZ>
34

>  <Sm>
31.6

>  <Sv>
34.76

>  <Sse>
56.53

>  <Sp>
37.68

>  <Si>
63.94

>  <MZ>
0.6

>  <Mm>
0.55

>  <Mv>
0.61

>  <Mse>
0.99

>  <Mp>
0.66

>  <Mi>
1.12

>  <NsCH3>
2

>  <NdCH2>
0

>  <NssCH2>
7

>  <NtCH>
0

>  <NdsCH>
0

>  <NaaCH>
7

>  <NsssCH>
2

>  <NddC>
0

>  <NtsC>
0

>  <NdssC>
1

>  <NaasC>
5

>  <NaaaC>
0

>  <NssssC>
0

>  <NsNH3>
0

>  <NsNH2>
0

>  <NssNH2>
0

>  <NdNH>
0

>  <NssNH>
0

>  <NaaNH>
0

>  <NtN>
0

>  <NsssNH>
0

>  <NdsN>
0

>  <NaaN>
0

>  <NsssN>
1

>  <NddsN>
0

>  <NaasN>
0

>  <NssssN>
0

>  <NsOH>
0

>  <NdO>
1

>  <NssO>
2

>  <NaaO>
0

>  <NsF>
0

>  <NsSiH3>
0

>  <NssSiH2>
0

>  <NsssSiH>
0

>  <NssssSi>
0

>  <NsPH2>
0

>  <NssPH>
0

>  <NsssP>
0

>  <NdsssP>
0

>  <NsssssP>
0

>  <NsSH>
0

>  <NdS>
0

>  <NssS>
0

>  <NaaS>
0

>  <NdssS>
0

>  <NddssS>
0

>  <NsCl>
0

>  <NsBr>
0

>  <NsI>
0

>  <fragCpx>
205.04

>  <fMF>
0.4

>  <nHBAcc>
4

>  <nHBDon>
0

>  <Kier1>
21.24

>  <Kier2>
9.87

>  <Lipinski>
1

>  <GhoseFilter>
1

>  <FilterItLogS>
-5.84

>  <VMcGowan>
303.07

>  <LabuteASA>
167

>  <PEOE_VSA1>
9.47

>  <PEOE_VSA2>
9.69

>  <PEOE_VSA3>
0

>  <PEOE_VSA4>
0

>  <PEOE_VSA5>
0

>  <PEOE_VSA6>
30.33

>  <PEOE_VSA7>
67.95

>  <PEOE_VSA8>
18.03

>  <PEOE_VSA9>
14.22

>  <PEOE_VSA10>
0

>  <PEOE_VSA11>
17.28

>  <PEOE_VSA12>
0

>  <PEOE_VSA13>
0

>  <SMR_VSA1>
14.27

>  <SMR_VSA2>
0

>  <SMR_VSA3>
4.9

>  <SMR_VSA4>
11.84

>  <SMR_VSA5>
32.23

>  <SMR_VSA6>
27.31

>  <SMR_VSA7>
59.15

>  <SMR_VSA8>
0

>  <SMR_VSA9>
11.5

>  <SlogP_VSA1>
9.47

>  <SlogP_VSA2>
37.99

>  <SlogP_VSA3>
12.97

>  <SlogP_VSA4>
11.84

>  <SlogP_VSA5>
40.75

>  <SlogP_VSA6>
42.46

>  <SlogP_VSA7>
0

>  <SlogP_VSA8>
0

>  <SlogP_VSA9>
0

>  <SlogP_VSA10>
0

>  <SlogP_VSA11>
11.5

>  <EState_VSA1>
0

>  <EState_VSA2>
11.7

>  <EState_VSA3>
17.42

>  <EState_VSA4>
43.6

>  <EState_VSA5>
18.41

>  <EState_VSA6>
14.22

>  <EState_VSA7>
12.13

>  <EState_VSA8>
35.23

>  <EState_VSA9>
9.47

>  <EState_VSA10>
4.79

>  <VSA_EState1>
10.77

>  <VSA_EState2>
15.47

>  <VSA_EState3>
0

>  <VSA_EState4>
3.31

>  <VSA_EState5>
2.38

>  <VSA_EState6>
14.52

>  <VSA_EState7>
4.19

>  <VSA_EState8>
3.27

>  <VSA_EState9>
3.26

>  <apol>
62.92

>  <bpol>
35.14

>  <nRing>
4

>  <nHRing>
1

>  <naRing>
2

>  <naHRing>
0

>  <nARing 2>
2

>  <nAHRing 2>
1

>  <nFRing>
1

>  <nFHRing>
0

>  <nFaRing>
0

>  <nFaHRing>
0

>  <nFARing 2>
1

>  <nFAHRing 2>
0

>  <nRot>
6

>  <SLogP>
4.36

>  <SMR>
110.13

>  <TopoPSA(NO)>
38.77

>  <TopoPSA>
38.77

>  <JGI1>
0.18

>  <JGI2>
0.06

>  <JGI3>
0.05

>  <JGI4>
0.04

>  <JGI5>
0.03

>  <Diameter>
16

>  <Radius>
8

>  <TMWC10>
135.59

>  <TSRW10>
77.65

>  <MW>
379.21

>  <AMW>
6.65

>  <WPath>
2333

>  <WPol>
44

>  <Zagreb1>
148

>  <Zagreb2>
175

>  <mZagreb2>
6.28

>  <yes>


>  <nAR-cont>
1

>  <nHA-cont>
0.82432561

>  <MWHBN>
0.205409299

>  <MWHBN-cont>
0.99997243

>  <TPSA-cont>
0.729361325

>  <pka_cont>
0.97

>  <yes.1>


>  <BBB_SCORE>
5.268006906

>  <MMFF94 Energy>
84.862

$$$$
Compound 687
Actelion Java MolfileCreator 2.0

  0  0  0  0  0  0              0 V3000
M  V30 BEGIN CTAB
M  V30 COUNTS 41 44 0 0 0
M  V30 BEGIN ATOM
M  V30 1 S -1.5478 -1.4663 -2.6895 0
M  V30 2 C -1.7613 -0.916 -0.9498 0 CFG=1
M  V30 3 C -2.4048 -0.0782 -3.507 0
M  V30 4 C -0.8062 0.2119 -0.6429 0
M  V30 5 C -3.2384 -0.5377 -0.6682 0
M  V30 6 C -3.7985 0.1753 -2.9205 0
M  V30 7 N -1.1067 1.4994 -0.6892 0
M  V30 8 N 0.5188 0.0406 -0.2837 0
M  V30 9 N -3.8093 0.5412 -1.4984 0
M  V30 10 C 0.038 2.1727 -0.3557 0
M  V30 11 C 1.078 1.2882 -0.0983 0
M  V30 12 C 1.2452 -1.2182 -0.1794 0
M  V30 13 C 0.2611 3.5535 -0.2549 0
M  V30 14 C 2.3607 1.7195 0.2638 0
M  V30 15 C 1.5684 -1.6047 1.2476 0
M  V30 16 C 1.5355 4.0058 0.1056 0
M  V30 17 C 2.5664 3.1007 0.3606 0
M  V30 18 C 2.8286 -2.1564 1.54 0
M  V30 19 C 0.6272 -1.487 2.2855 0
M  V30 20 C 3.1475 -2.5536 2.8399 0
M  V30 21 C 0.9497 -1.8839 3.585 0
M  V30 22 C 2.2062 -2.4115 3.8505 0
M  V30 23 F 2.5127 -2.7936 5.0969 0
M  V30 24 H -1.5243 -1.772 -0.3087 0
M  V30 25 H -2.496 -0.3221 -4.5703 0
M  V30 26 H -1.7822 0.8197 -3.4351 0
M  V30 27 H -3.3258 -0.2201 0.3787 0
M  V30 28 H -3.8724 -1.4295 -0.7601 0
M  V30 29 H -4.2594 0.9996 -3.4771 0
M  V30 30 H -4.446 -0.6954 -3.083 0
M  V30 31 H -3.1898 1.3546 -1.3711 0
M  V30 32 H 0.6697 -2.0193 -0.6486 0
M  V30 33 H 2.1611 -1.092 -0.7697 0
M  V30 34 H -0.5453 4.2504 -0.4535 0
M  V30 35 H 3.166 1.0233 0.4707 0
M  V30 36 H 1.7206 5.074 0.1888 0
M  V30 37 H 3.5483 3.475 0.6429 0
M  V30 38 H 3.5742 -2.2802 0.7568 0
M  V30 39 H -0.363 -1.0757 2.1018 0
M  V30 40 H 4.1213 -2.9742 3.0698 0
M  V30 41 H 0.2289 -1.7835 4.3906 0
M  V30 END ATOM
M  V30 BEGIN BOND
M  V30 1 1 1 2
M  V30 2 1 1 3
M  V30 3 1 2 4
M  V30 4 1 2 5
M  V30 5 1 3 6
M  V30 6 2 4 7
M  V30 7 1 4 8
M  V30 8 1 5 9
M  V30 9 1 7 10
M  V30 10 1 8 11
M  V30 11 1 8 12
M  V30 12 1 10 13
M  V30 13 1 11 14
M  V30 14 1 12 15
M  V30 15 2 13 16
M  V30 16 2 14 17
M  V30 17 2 15 18
M  V30 18 1 15 19
M  V30 19 1 18 20
M  V30 20 2 19 21
M  V30 21 2 20 22
M  V30 22 1 22 23
M  V30 23 1 6 9
M  V30 24 2 10 11
M  V30 25 1 16 17
M  V30 26 1 21 22
M  V30 27 1 2 24
M  V30 28 1 3 25
M  V30 29 1 3 26
M  V30 30 1 5 27
M  V30 31 1 5 28
M  V30 32 1 6 29
M  V30 33 1 6 30
M  V30 34 1 9 31
M  V30 35 1 12 32
M  V30 36 1 12 33
M  V30 37 1 13 34
M  V30 38 1 14 35
M  V30 39 1 16 36
M  V30 40 1 17 37
M  V30 41 1 18 38
M  V30 42 1 19 39
M  V30 43 1 20 40
M  V30 44 1 21 41
M  V30 END BOND
M  V30 BEGIN COLLECTION
M  V30 MDLV30/STEABS ATOMS=(1 2)
M  V30 END COLLECTION
M  V30 END CTAB
M  END
>  <Column 1>
826

>  <level_0>
944

>  <index>
944

>  <Unnamed: 0>
944

>  <NO.>
956

>  <Name>
chembl1935446

>  <IUPAC_name>
(2r)-2-[1-[(4-fluorophenyl)methyl]benzimidazol-2-yl]thiomorpholine

>  <SMILES>
Fc1ccc(Cn2c([C@H]3CNCCS3)nc3ccccc32)cc1

>  <CID>
57397056

>  <logBB>
0.89

>  <BBB+/BBB->
BBB+

>  <Inchi>
InChI=1S/C18H18FN3S/c19-14-7-5-13(6-8-14)12-22-16-4-2-1-3-15(16)21-18(22)17-11-20-9-10-23-17/h1-8-17-20H-9-12H2/t17-/m1/s1

>  <threshold>


>  <reference>
R2|R2|R25|R27|R46|

>  <group>
A

>  <Class>
1

>  <ABC>
18.33

>  <ABCGG>
14.35

>  <nAcid>
0

>  <nBase>
1

>  <nAromAtom>
15

>  <nAromBond>
16

>  <nAtom>
41

>  <nHeavyAtom>
23

>  <nSpiro>
0

>  <nBridgehead>
0

>  <nHetero>
5

>  <nN>
3

>  <nO>
0

>  <nF>
1

>  <BalabanJ>
1.44

>  <BertzCT>
806.75

>  <nBonds>
44

>  <nBondsO>
26

>  <nBondsS>
28

>  <nBondsD>
0

>  <nBondsT>
0

>  <nBondsA>
16

>  <nBondsM>
16

>  <nBondsKS>
37

>  <nBondsKD>
7

>  <RNCG>
0.2

>  <RPCG>
0.08

>  <FCSP3>
0.28

>  <SZ>
28.67

>  <Sm>
27.26

>  <Sv>
26.98

>  <Sse>
41.01

>  <Sp>
29.23

>  <Si>
46.08

>  <MZ>
0.7

>  <Mm>
0.66

>  <Mv>
0.66

>  <Mse>
1

>  <Mp>
0.71

>  <Mi>
1.12

>  <NsCH3>
0

>  <NdCH2>
0

>  <NssCH2>
4

>  <NtCH>
0

>  <NdsCH>
0

>  <NaaCH>
8

>  <NsssCH>
1

>  <NddC>
0

>  <NtsC>
0

>  <NdssC>
0

>  <NaasC>
3

>  <NaaaC>
2

>  <NssssC>
0

>  <NsNH3>
0

>  <NsNH2>
0

>  <NssNH2>
0

>  <NdNH>
0

>  <NssNH>
1

>  <NaaNH>
0

>  <NtN>
0

>  <NsssNH>
0

>  <NdsN>
0

>  <NaaN>
1

>  <NsssN>
0

>  <NddsN>
0

>  <NaasN>
1

>  <NssssN>
0

>  <NsOH>
0

>  <NdO>
0

>  <NssO>
0

>  <NaaO>
0

>  <NsF>
1

>  <NsSiH3>
0

>  <NssSiH2>
0

>  <NsssSiH>
0

>  <NssssSi>
0

>  <NsPH2>
0

>  <NssPH>
0

>  <NsssP>
0

>  <NdsssP>
0

>  <NsssssP>
0

>  <NsSH>
0

>  <NdS>
0

>  <NssS>
1

>  <NaaS>
0

>  <NdssS>
0

>  <NddssS>
0

>  <NsCl>
0

>  <NsBr>
0

>  <NsI>
0

>  <fragCpx>
170.05

>  <fMF>
0.54

>  <nHBAcc>
4

>  <nHBDon>
1

>  <Kier1>
16.47

>  <Kier2>
7.49

>  <Lipinski>
1

>  <GhoseFilter>
1

>  <FilterItLogS>
-5.09

>  <VMcGowan>
238.99

>  <LabuteASA>
138.47

>  <PEOE_VSA1>
9.88

>  <PEOE_VSA2>
0

>  <PEOE_VSA3>
9.37

>  <PEOE_VSA4>
0

>  <PEOE_VSA5>
11.76

>  <PEOE_VSA6>
24.27

>  <PEOE_VSA7>
29.83

>  <PEOE_VSA8>
25.39

>  <PEOE_VSA9>
16.28

>  <PEOE_VSA10>
11.64

>  <PEOE_VSA11>
0

>  <PEOE_VSA12>
0

>  <PEOE_VSA13>
0

>  <SMR_VSA1>
4.39

>  <SMR_VSA2>
0

>  <SMR_VSA3>
14.87

>  <SMR_VSA4>
0

>  <SMR_VSA5>
11.79

>  <SMR_VSA6>
18.84

>  <SMR_VSA7>
65.74

>  <SMR_VSA8>
0

>  <SMR_VSA9>
0

>  <SlogP_VSA1>
5.32

>  <SlogP_VSA2>
28.39

>  <SlogP_VSA3>
6.54

>  <SlogP_VSA4>
5.82

>  <SlogP_VSA5>
16.64

>  <SlogP_VSA6>
48.53

>  <SlogP_VSA7>
0

>  <SlogP_VSA8>
11.03

>  <SlogP_VSA9>
0

>  <SlogP_VSA10>
4.39

>  <SlogP_VSA11>
0

>  <EState_VSA1>
0

>  <EState_VSA2>
5.82

>  <EState_VSA3>
11.79

>  <EState_VSA4>
41.26

>  <EState_VSA5>
12.13

>  <EState_VSA6>
0

>  <EState_VSA7>
36.03

>  <EState_VSA8>
22.02

>  <EState_VSA9>
4.98

>  <EState_VSA10>
4.39

>  <VSA_EState1>
15.43

>  <VSA_EState2>
4.88

>  <VSA_EState3>
3.81

>  <VSA_EState4>
3.25

>  <VSA_EState5>
2.01

>  <VSA_EState6>
14.96

>  <VSA_EState7>
0

>  <VSA_EState8>
2.71

>  <VSA_EState9>
0

>  <apol>
48.82

>  <bpol>
25.05

>  <nRing>
4

>  <nHRing>
2

>  <naRing>
3

>  <naHRing>
1

>  <nARing 2>
1

>  <nAHRing 2>
1

>  <nFRing>
1

>  <nFHRing>
1

>  <nFaRing>
1

>  <nFaHRing>
1

>  <nFARing 2>
0

>  <nFAHRing 2>
0

>  <nRot>
3

>  <SLogP>
3.6

>  <SMR>
93.3

>  <TopoPSA(NO)>
29.85

>  <TopoPSA>
55.15

>  <JGI1>
0.13

>  <JGI2>
0.06

>  <JGI3>
0.04

>  <JGI4>
0.04

>  <JGI5>
0.02

>  <Diameter>
11

>  <Radius>
6

>  <TMWC10>
124.27

>  <TSRW10>
71.82

>  <MW>
327.12

>  <AMW>
7.98

>  <WPath>
1155

>  <WPol>
35

>  <Zagreb1>
124

>  <Zagreb2>
147

>  <mZagreb2>
5.03

>  <yes>


>  <nAR-cont>
0.816016

>  <nHA-cont>
0.967789328

>  <MWHBN>
0.276449912

>  <MWHBN-cont>
0.904910491

>  <TPSA-cont>
0.615018754

>  <pka_cont>
0.97

>  <yes.1>


>  <BBB_SCORE>
4.856208572

>  <MMFF94 Energy>
105.27

$$$$
Compound 688
Actelion Java MolfileCreator 2.0

  0  0  0  0  0  0              0 V3000
M  V30 BEGIN CTAB
M  V30 COUNTS 50 51 0 0 0
M  V30 BEGIN ATOM
M  V30 1 O 0.3943 -1.5782 -2.131 0
M  V30 2 C 0.8562 -0.6285 -1.4924 0
M  V30 3 C 0.4702 -0.2999 0.007 0
M  V30 4 C 1.9295 0.254 -2.1447 0
M  V30 5 C -0.7435 -1.089 0.5905 0
M  V30 6 C 1.7486 -0.7018 0.8282 0
M  V30 7 C 0.1592 1.2413 0.1089 0
M  V30 8 C 2.4884 -0.3573 -3.4197 0
M  V30 9 C -1.7266 -1.7029 -0.2028 0
M  V30 10 C -0.9199 -1.1649 1.9917 0
M  V30 11 C 2.4558 0.1887 1.6554 0
M  V30 12 C 2.216 -2.032 0.7466 0
M  V30 13 C -0.9286 1.8405 -0.8354 0 CFG=1
M  V30 14 C -2.8061 -2.3876 0.368 0
M  V30 15 C -1.9967 -1.849 2.5632 0
M  V30 16 C 3.5918 -0.2299 2.3554 0
M  V30 17 C 3.35 -2.4461 1.4469 0
M  V30 18 N -2.2887 1.3762 -0.5368 0
M  V30 19 C -0.7941 3.3746 -0.8434 0
M  V30 20 C -2.9386 -2.4655 1.7496 0
M  V30 21 C 4.0397 -1.5434 2.249 0
M  V30 22 C -3.2078 1.5347 -1.6623 0
M  V30 23 C -2.8828 1.9058 0.6876 0
M  V30 24 H 2.7554 0.3999 -1.4431 0
M  V30 25 H 1.4979 1.2298 -2.381 0
M  V30 26 H 1.0859 1.7905 -0.1089 0
M  V30 27 H -0.0819 1.5052 1.1471 0
M  V30 28 H 3.2687 0.2849 -3.8392 0
M  V30 29 H 1.7051 -0.4785 -4.1751 0
M  V30 30 H 2.9236 -1.3428 -3.2241 0
M  V30 31 H -1.6999 -1.6406 -1.2867 0
M  V30 32 H -0.2099 -0.6888 2.6646 0
M  V30 33 H 2.1421 1.22 1.7869 0
M  V30 34 H 1.6855 -2.7644 0.1369 0
M  V30 35 H -0.6837 1.5066 -1.85 0
M  V30 36 H -3.5476 -2.8509 -0.2771 0
M  V30 37 H -2.0958 -1.8968 3.6441 0
M  V30 38 H 4.1256 0.4724 2.9909 0
M  V30 39 H 3.688 -3.4761 1.3682 0
M  V30 40 H -0.9168 3.8 0.1581 0
M  V30 41 H 0.1982 3.6671 -1.2048 0
M  V30 42 H -1.5256 3.8429 -1.5091 0
M  V30 43 H -3.7777 -2.9972 2.1883 0
M  V30 44 H 4.9209 -1.8657 2.7972 0
M  V30 45 H -3.4163 2.5853 -1.8896 0
M  V30 46 H -4.1615 1.0378 -1.4504 0
M  V30 47 H -2.8072 1.0575 -2.5634 0
M  V30 48 H -2.2346 1.7535 1.5551 0
M  V30 49 H -3.8172 1.3785 0.9122 0
M  V30 50 H -3.1127 2.9742 0.6124 0
M  V30 END ATOM
M  V30 BEGIN BOND
M  V30 1 2 1 2
M  V30 2 1 2 3
M  V30 3 1 2 4
M  V30 4 1 3 5
M  V30 5 1 3 6
M  V30 6 1 3 7
M  V30 7 1 4 8
M  V30 8 2 5 9
M  V30 9 1 5 10
M  V30 10 2 6 11
M  V30 11 1 6 12
M  V30 12 1 7 13
M  V30 13 1 9 14
M  V30 14 2 10 15
M  V30 15 1 11 16
M  V30 16 2 12 17
M  V30 17 1 13 18
M  V30 18 1 13 19
M  V30 19 2 14 20
M  V30 20 2 16 21
M  V30 21 1 18 22
M  V30 22 1 18 23
M  V30 23 1 15 20
M  V30 24 1 17 21
M  V30 25 1 4 24
M  V30 26 1 4 25
M  V30 27 1 7 26
M  V30 28 1 7 27
M  V30 29 1 8 28
M  V30 30 1 8 29
M  V30 31 1 8 30
M  V30 32 1 9 31
M  V30 33 1 10 32
M  V30 34 1 11 33
M  V30 35 1 12 34
M  V30 36 1 13 35
M  V30 37 1 14 36
M  V30 38 1 15 37
M  V30 39 1 16 38
M  V30 40 1 17 39
M  V30 41 1 19 40
M  V30 42 1 19 41
M  V30 43 1 19 42
M  V30 44 1 20 43
M  V30 45 1 21 44
M  V30 46 1 22 45
M  V30 47 1 22 46
M  V30 48 1 22 47
M  V30 49 1 23 48
M  V30 50 1 23 49
M  V30 51 1 23 50
M  V30 END BOND
M  V30 BEGIN COLLECTION
M  V30 MDLV30/STERAC1 ATOMS=(1 13)
M  V30 END COLLECTION
M  V30 END CTAB
M  END
>  <Column 1>
827

>  <level_0>
945

>  <index>
945

>  <Unnamed: 0>
945

>  <NO.>
957

>  <Name>
methadone

>  <IUPAC_name>
6-(dimethylamino)-4-4-diphenylheptan-3-one

>  <SMILES>
CCC(=O)C(CC(C)N(C)C)(c1ccccc1)c1ccccc1

>  <CID>
4095

>  <logBB>
0.9

>  <BBB+/BBB->
BBB+

>  <Inchi>
InChI=1S/C21H27NO/c1-5-20(23)21(16-17(2)22(3)4-18-12-8-6-9-13-18)19-14-10-7-11-15-19/h6-15-17H-5-16H2-1-4H3

>  <threshold>


>  <reference>
R47|R2|R2|R25|R27|R46|

>  <group>
A

>  <Class>
1

>  <ABC>
17.18

>  <ABCGG>
15.65

>  <nAcid>
0

>  <nBase>
1

>  <nAromAtom>
12

>  <nAromBond>
12

>  <nAtom>
50

>  <nHeavyAtom>
23

>  <nSpiro>
0

>  <nBridgehead>
0

>  <nHetero>
2

>  <nN>
1

>  <nO>
1

>  <nF>
0

>  <BalabanJ>
2.33

>  <BertzCT>
579.3

>  <nBonds>
51

>  <nBondsO>
24

>  <nBondsS>
38

>  <nBondsD>
1

>  <nBondsT>
0

>  <nBondsA>
12

>  <nBondsM>
13

>  <nBondsKS>
44

>  <nBondsKD>
7

>  <RNCG>
0.22

>  <RPCG>
0.1

>  <FCSP3>
0.38

>  <SZ>
28

>  <Sm>
25.76

>  <Sv>
29.79

>  <Sse>
48.98

>  <Sp>
32.92

>  <Si>
56.11

>  <MZ>
0.56

>  <Mm>
0.52

>  <Mv>
0.6

>  <Mse>
0.98

>  <Mp>
0.66

>  <Mi>
1.12

>  <NsCH3>
4

>  <NdCH2>
0

>  <NssCH2>
2

>  <NtCH>
0

>  <NdsCH>
0

>  <NaaCH>
10

>  <NsssCH>
1

>  <NddC>
0

>  <NtsC>
0

>  <NdssC>
1

>  <NaasC>
2

>  <NaaaC>
0

>  <NssssC>
1

>  <NsNH3>
0

>  <NsNH2>
0

>  <NssNH2>
0

>  <NdNH>
0

>  <NssNH>
0

>  <NaaNH>
0

>  <NtN>
0

>  <NsssNH>
0

>  <NdsN>
0

>  <NaaN>
0

>  <NsssN>
1

>  <NddsN>
0

>  <NaasN>
0

>  <NssssN>
0

>  <NsOH>
0

>  <NdO>
1

>  <NssO>
0

>  <NaaO>
0

>  <NsF>
0

>  <NsSiH3>
0

>  <NssSiH2>
0

>  <NsssSiH>
0

>  <NssssSi>
0

>  <NsPH2>
0

>  <NssPH>
0

>  <NsssP>
0

>  <NdsssP>
0

>  <NsssssP>
0

>  <NsSH>
0

>  <NdS>
0

>  <NssS>
0

>  <NaaS>
0

>  <NdssS>
0

>  <NddssS>
0

>  <NsCl>
0

>  <NsBr>
0

>  <NsI>
0

>  <fragCpx>
70.02

>  <fMF>
0.26

>  <nHBAcc>
2

>  <nHBDon>
0

>  <Kier1>
19.33

>  <Kier2>
8.91

>  <Lipinski>
1

>  <GhoseFilter>
1

>  <FilterItLogS>
-5.13

>  <VMcGowan>
270.78

>  <LabuteASA>
139.69

>  <PEOE_VSA1>
4.9

>  <PEOE_VSA2>
4.79

>  <PEOE_VSA3>
0

>  <PEOE_VSA4>
0

>  <PEOE_VSA5>
0

>  <PEOE_VSA6>
67.59

>  <PEOE_VSA7>
38.57

>  <PEOE_VSA8>
12.46

>  <PEOE_VSA9>
5.41

>  <PEOE_VSA10>
5.78

>  <PEOE_VSA11>
0

>  <PEOE_VSA12>
0

>  <PEOE_VSA13>
0

>  <SMR_VSA1>
4.79

>  <SMR_VSA2>
0

>  <SMR_VSA3>
4.9

>  <SMR_VSA4>
0

>  <SMR_VSA5>
38.15

>  <SMR_VSA6>
14.1

>  <SMR_VSA7>
71.79

>  <SMR_VSA8>
0

>  <SMR_VSA9>
0

>  <SlogP_VSA1>
0

>  <SlogP_VSA2>
30.82

>  <SlogP_VSA3>
10.21

>  <SlogP_VSA4>
0

>  <SlogP_VSA5>
37.82

>  <SlogP_VSA6>
60.66

>  <SlogP_VSA7>
0

>  <SlogP_VSA8>
0

>  <SlogP_VSA9>
0

>  <SlogP_VSA10>
0

>  <SlogP_VSA11>
0

>  <EState_VSA1>
5.41

>  <EState_VSA2>
5.78

>  <EState_VSA3>
12.46

>  <EState_VSA4>
17.55

>  <EState_VSA5>
0

>  <EState_VSA6>
0

>  <EState_VSA7>
43.32

>  <EState_VSA8>
50.18

>  <EState_VSA9>
0

>  <EState_VSA10>
4.79

>  <VSA_EState1>
0

>  <VSA_EState2>
15.36

>  <VSA_EState3>
0

>  <VSA_EState4>
1.6

>  <VSA_EState5>
0.28

>  <VSA_EState6>
20.75

>  <VSA_EState7>
1.31

>  <VSA_EState8>
4.15

>  <VSA_EState9>
4.14

>  <apol>
54.98

>  <bpol>
29.66

>  <nRing>
2

>  <nHRing>
0

>  <naRing>
2

>  <naHRing>
0

>  <nARing 2>
0

>  <nAHRing 2>
0

>  <nFRing>
0

>  <nFHRing>
0

>  <nFaRing>
0

>  <nFaHRing>
0

>  <nFARing 2>
0

>  <nFAHRing 2>
0

>  <nRot>
7

>  <SLogP>
4.29

>  <SMR>
96.73

>  <TopoPSA(NO)>
20.31

>  <TopoPSA>
20.31

>  <JGI1>
0.21

>  <JGI2>
0.11

>  <JGI3>
0.05

>  <JGI4>
0.03

>  <JGI5>
0.02

>  <Diameter>
8

>  <Radius>
4

>  <TMWC10>
121.88

>  <TSRW10>
57.34

>  <MW>
309.21

>  <AMW>
6.18

>  <WPath>
1044

>  <WPol>
39

>  <Zagreb1>
114

>  <Zagreb2>
135

>  <mZagreb2>
5.32

>  <yes>


>  <nAR-cont>
0.336376

>  <nHA-cont>
0.967789328

>  <MWHBN>
0.113737383

>  <MWHBN-cont>
0.8011712

>  <TPSA-cont>
0.858223588

>  <pka_cont>
0.97

>  <yes.1>


>  <BBB_SCORE>
4.707369304

>  <MMFF94 Energy>
101.34

$$$$
Compound 689
Actelion Java MolfileCreator 2.0

  0  0  0  0  0  0              0 V3000
M  V30 BEGIN CTAB
M  V30 COUNTS 44 46 0 0 0
M  V30 BEGIN ATOM
M  V30 1 N 2.2986 2.3779 -1.6641 0
M  V30 2 C 1.0729 1.6066 -1.9629 0
M  V30 3 C 2.7966 2.1224 -0.3119 0
M  V30 4 C 2.0268 3.8107 -1.8205 0
M  V30 5 C 1.2709 0.0837 -2.1008 0
M  V30 6 C 1.1637 -0.6969 -0.8131 0
M  V30 7 C 0.0456 -1.114 -0.1744 0
M  V30 8 C 0.2137 -1.802 1.1354 0
M  V30 9 C -1.2871 -0.7492 -0.6995 0
M  V30 10 C -0.4628 -1.3958 2.3057 0
M  V30 11 C 1.056 -2.9322 1.1911 0
M  V30 12 C -2.0578 0.1957 -0.002 0
M  V30 13 C -1.7995 -1.3468 -1.8578 0
M  V30 14 C -0.2549 -2.1307 3.4942 0
M  V30 15 C -1.4543 -0.248 2.4055 0
M  V30 16 C 1.252 -3.6373 2.3783 0
M  V30 17 C -3.3197 0.5552 -0.4951 0
M  V30 18 C -1.5292 0.7889 1.2804 0
M  V30 19 C -3.0572 -0.9839 -2.3397 0
M  V30 20 C 0.5972 -3.2335 3.5328 0
M  V30 21 C -3.8137 -0.0302 -1.6615 0
M  V30 22 H 0.7034 1.9454 -2.9406 0
M  V30 23 H 0.2805 1.8385 -1.2408 0
M  V30 24 H 3.1837 1.1046 -0.2215 0
M  V30 25 H 2.0274 2.2814 0.4524 0
M  V30 26 H 3.6443 2.7788 -0.0821 0
M  V30 27 H 1.2529 4.1627 -1.1284 0
M  V30 28 H 1.7038 4.0339 -2.8435 0
M  V30 29 H 2.9366 4.3971 -1.649 0
M  V30 30 H 0.5411 -0.2989 -2.8231 0
M  V30 31 H 2.2454 -0.1273 -2.5601 0
M  V30 32 H 2.1327 -0.9194 -0.3678 0
M  V30 33 H 1.562 -3.2807 0.2926 0
M  V30 34 H -1.219 -2.0982 -2.3873 0
M  V30 35 H -0.7733 -1.8427 4.4076 0
M  V30 36 H -1.218 0.3068 3.3241 0
M  V30 37 H -2.4506 -0.6886 2.5486 0
M  V30 38 H 1.9074 -4.5036 2.3948 0
M  V30 39 H -3.9299 1.2858 0.0306 0
M  V30 40 H -2.1919 1.6026 1.6026 0
M  V30 41 H -0.5516 1.2553 1.107 0
M  V30 42 H -3.4473 -1.4481 -3.2414 0
M  V30 43 H 0.7382 -3.7807 4.461 0
M  V30 44 H -4.7948 0.2506 -2.0361 0
M  V30 END ATOM
M  V30 BEGIN BOND
M  V30 1 1 1 2
M  V30 2 1 1 3
M  V30 3 1 1 4
M  V30 4 1 2 5
M  V30 5 1 5 6
M  V30 6 2 6 7
M  V30 7 1 7 8
M  V30 8 1 7 9
M  V30 9 2 8 10
M  V30 10 1 8 11
M  V30 11 2 9 12
M  V30 12 1 9 13
M  V30 13 1 10 14
M  V30 14 1 10 15
M  V30 15 2 11 16
M  V30 16 1 12 17
M  V30 17 1 12 18
M  V30 18 2 13 19
M  V30 19 2 14 20
M  V30 20 2 17 21
M  V30 21 1 15 18
M  V30 22 1 16 20
M  V30 23 1 19 21
M  V30 24 1 2 22
M  V30 25 1 2 23
M  V30 26 1 3 24
M  V30 27 1 3 25
M  V30 28 1 3 26
M  V30 29 1 4 27
M  V30 30 1 4 28
M  V30 31 1 4 29
M  V30 32 1 5 30
M  V30 33 1 5 31
M  V30 34 1 6 32
M  V30 35 1 11 33
M  V30 36 1 13 34
M  V30 37 1 14 35
M  V30 38 1 15 36
M  V30 39 1 15 37
M  V30 40 1 16 38
M  V30 41 1 17 39
M  V30 42 1 18 40
M  V30 43 1 18 41
M  V30 44 1 19 42
M  V30 45 1 20 43
M  V30 46 1 21 44
M  V30 END BOND
M  V30 END CTAB
M  END
>  <Column 1>
828

>  <level_0>
946

>  <index>
946

>  <Unnamed: 0>
946

>  <NO.>
958

>  <Name>
50-48-6

>  <IUPAC_name>
n-n-dimethyl-3-(2-tricyclo[9.4.0.03-8]pentadeca-1(15)-3-5-7-11-13-hexaenylidene)propan-1-amine

>  <SMILES>
CN(C)CCC=C1c2ccccc2CCc2ccccc21

>  <CID>
2160

>  <logBB>
0.9

>  <BBB+/BBB->
BBB+

>  <Inchi>
InChI=1S/C20H23N/c1-21(2)15-7-12-20-18-10-5-3-8-16(18)13-14-17-9-4-6-11-19(17)20/h3-6-8-12H-7-13-15H2-1-2H3

>  <threshold>


>  <reference>
R12|R25|R44|R40|R3|R18|R26|R27|R35|R36|R38|R41|R43|R46|R47|R48|R49|R4|R27|R2|R2|R8|R5|R21|R27|R39|R49|

>  <group>
A

>  <Class>
1

>  <ABC>
16.32

>  <ABCGG>
13.12

>  <nAcid>
0

>  <nBase>
1

>  <nAromAtom>
12

>  <nAromBond>
12

>  <nAtom>
44

>  <nHeavyAtom>
21

>  <nSpiro>
0

>  <nBridgehead>
0

>  <nHetero>
1

>  <nN>
1

>  <nO>
0

>  <nF>
0

>  <BalabanJ>
1.7

>  <BertzCT>
602.89

>  <nBonds>
46

>  <nBondsO>
23

>  <nBondsS>
33

>  <nBondsD>
1

>  <nBondsT>
0

>  <nBondsA>
12

>  <nBondsM>
13

>  <nBondsKS>
39

>  <nBondsKD>
7

>  <RNCG>
0.29

>  <RPCG>
0.06

>  <FCSP3>
0.3

>  <SZ>
25

>  <Sm>
23.1

>  <Sv>
26.99

>  <Sse>
42.87

>  <Sp>
29.84

>  <Si>
49.07

>  <MZ>
0.57

>  <Mm>
0.52

>  <Mv>
0.61

>  <Mse>
0.97

>  <Mp>
0.68

>  <Mi>
1.12

>  <NsCH3>
2

>  <NdCH2>
0

>  <NssCH2>
4

>  <NtCH>
0

>  <NdsCH>
1

>  <NaaCH>
8

>  <NsssCH>
0

>  <NddC>
0

>  <NtsC>
0

>  <NdssC>
1

>  <NaasC>
4

>  <NaaaC>
0

>  <NssssC>
0

>  <NsNH3>
0

>  <NsNH2>
0

>  <NssNH2>
0

>  <NdNH>
0

>  <NssNH>
0

>  <NaaNH>
0

>  <NtN>
0

>  <NsssNH>
0

>  <NdsN>
0

>  <NaaN>
0

>  <NsssN>
1

>  <NddsN>
0

>  <NaasN>
0

>  <NssssN>
0

>  <NsOH>
0

>  <NdO>
0

>  <NssO>
0

>  <NaaO>
0

>  <NsF>
0

>  <NsSiH3>
0

>  <NssSiH2>
0

>  <NsssSiH>
0

>  <NssssSi>
0

>  <NsPH2>
0

>  <NssPH>
0

>  <NsssP>
0

>  <NdsssP>
0

>  <NsssssP>
0

>  <NsSH>
0

>  <NdS>
0

>  <NssS>
0

>  <NaaS>
0

>  <NdssS>
0

>  <NddssS>
0

>  <NsCl>
0

>  <NsBr>
0

>  <NsI>
0

>  <fragCpx>
109.01

>  <fMF>
0.34

>  <nHBAcc>
1

>  <nHBDon>
0

>  <Kier1>
15.88

>  <Kier2>
7.51

>  <Lipinski>
1

>  <GhoseFilter>
1

>  <FilterItLogS>
-5.48

>  <VMcGowan>
239.96

>  <LabuteASA>
127.47

>  <PEOE_VSA1>
4.9

>  <PEOE_VSA2>
0

>  <PEOE_VSA3>
0

>  <PEOE_VSA4>
0

>  <PEOE_VSA5>
0

>  <PEOE_VSA6>
54.61

>  <PEOE_VSA7>
61.18

>  <PEOE_VSA8>
6.54

>  <PEOE_VSA9>
0

>  <PEOE_VSA10>
0

>  <PEOE_VSA11>
0

>  <PEOE_VSA12>
0

>  <PEOE_VSA13>
0

>  <SMR_VSA1>
0

>  <SMR_VSA2>
0

>  <SMR_VSA3>
4.9

>  <SMR_VSA4>
0

>  <SMR_VSA5>
19.26

>  <SMR_VSA6>
20.64

>  <SMR_VSA7>
76.86

>  <SMR_VSA8>
0

>  <SMR_VSA9>
0

>  <SlogP_VSA1>
0

>  <SlogP_VSA2>
25.54

>  <SlogP_VSA3>
12.84

>  <SlogP_VSA4>
0

>  <SlogP_VSA5>
28.67

>  <SlogP_VSA6>
54.61

>  <SlogP_VSA7>
0

>  <SlogP_VSA8>
5.57

>  <SlogP_VSA9>
0

>  <SlogP_VSA10>
0

>  <SlogP_VSA11>
0

>  <EState_VSA1>
0

>  <EState_VSA2>
0

>  <EState_VSA3>
0

>  <EState_VSA4>
25.81

>  <EState_VSA5>
27.83

>  <EState_VSA6>
0

>  <EState_VSA7>
0

>  <EState_VSA8>
73.6

>  <EState_VSA9>
0

>  <EState_VSA10>
0

>  <VSA_EState1>
0

>  <VSA_EState2>
2.24

>  <VSA_EState3>
0

>  <VSA_EState4>
7.21

>  <VSA_EState5>
0

>  <VSA_EState6>
17.75

>  <VSA_EState7>
5.78

>  <VSA_EState8>
1.09

>  <VSA_EState9>
4.26

>  <apol>
49.84

>  <bpol>
24.78

>  <nRing>
3

>  <nHRing>
0

>  <naRing>
2

>  <naHRing>
0

>  <nARing 2>
1

>  <nAHRing 2>
0

>  <nFRing>
1

>  <nFHRing>
0

>  <nFaRing>
0

>  <nFaHRing>
0

>  <nFARing 2>
1

>  <nFAHRing 2>
0

>  <nRot>
3

>  <SLogP>
4.17

>  <SMR>
90.54

>  <TopoPSA(NO)>
3.24

>  <TopoPSA>
3.24

>  <JGI1>
0.13

>  <JGI2>
0.07

>  <JGI3>
0.04

>  <JGI4>
0.03

>  <JGI5>
0.01

>  <Diameter>
9

>  <Radius>
5

>  <TMWC10>
117.56

>  <TSRW10>
62.81

>  <MW>
277.18

>  <AMW>
6.3

>  <WPath>
882

>  <WPol>
35

>  <Zagreb1>
108

>  <Zagreb2>
126

>  <mZagreb2>
4.69

>  <yes>


>  <nAR-cont>
0.816016

>  <nHA-cont>
0.994529749

>  <MWHBN>
0.060064664

>  <MWHBN-cont>
0.454197613

>  <TPSA-cont>
0.977382788

>  <pka_cont>
0.97

>  <yes.1>


>  <BBB_SCORE>
4.931607746

>  <MMFF94 Energy>
83.768

$$$$
Compound 690
Actelion Java MolfileCreator 2.0

  0  0  0  0  0  0              0 V3000
M  V30 BEGIN CTAB
M  V30 COUNTS 23 22 0 0 0
M  V30 BEGIN ATOM
M  V30 1 C 0.4556 0.8354 0.0759 0 CFG=2
M  V30 2 C -0.1851 -0.5568 -0.1048 0
M  V30 3 C 0.438 1.2845 1.5524 0
M  V30 4 C 1.9005 0.8687 -0.4357 0
M  V30 5 C -0.2227 -1.035 -1.5593 0
M  V30 6 C -0.9602 1.4749 2.124 0
M  V30 7 C -0.9959 -2.3386 -1.6945 0
M  V30 8 H -0.1223 1.5625 -0.5094 0
M  V30 9 H 0.3537 -1.2931 0.5049 0
M  V30 10 H -1.215 -0.5317 0.269 0
M  V30 11 H 0.9844 0.5626 2.1717 0
M  V30 12 H 0.9689 2.2407 1.642 0
M  V30 13 H 2.5117 0.1029 0.0536 0
M  V30 14 H 1.9456 0.7057 -1.5165 0
M  V30 15 H 2.3607 1.8437 -0.2415 0
M  V30 16 H -0.6919 -0.272 -2.1909 0
M  V30 17 H 0.793 -1.1953 -1.9353 0
M  V30 18 H -1.4907 0.5234 2.2194 0
M  V30 19 H -1.5548 2.145 1.4953 0
M  V30 20 H -0.8982 1.9161 3.1242 0
M  V30 21 H -1.0049 -2.667 -2.7385 0
M  V30 22 H -0.538 -3.1301 -1.0927 0
M  V30 23 H -2.0339 -2.2155 -1.3689 0
M  V30 END ATOM
M  V30 BEGIN BOND
M  V30 1 1 1 2
M  V30 2 1 1 3
M  V30 3 1 1 4
M  V30 4 1 2 5
M  V30 5 1 3 6
M  V30 6 1 5 7
M  V30 7 1 1 8
M  V30 8 1 2 9
M  V30 9 1 2 10
M  V30 10 1 3 11
M  V30 11 1 3 12
M  V30 12 1 4 13
M  V30 13 1 4 14
M  V30 14 1 4 15
M  V30 15 1 5 16
M  V30 16 1 5 17
M  V30 17 1 6 18
M  V30 18 1 6 19
M  V30 19 1 6 20
M  V30 20 1 7 21
M  V30 21 1 7 22
M  V30 22 1 7 23
M  V30 END BOND
M  V30 BEGIN COLLECTION
M  V30 MDLV30/STERAC1 ATOMS=(1 1)
M  V30 END COLLECTION
M  V30 END CTAB
M  END
>  <Column 1>
829

>  <level_0>
947

>  <index>
947

>  <Unnamed: 0>
947

>  <NO.>
959

>  <Name>
3-methylhexane (2- ethylpentane)

>  <IUPAC_name>
3-methylhexane

>  <SMILES>
CCCC(C)CC

>  <CID>
11507

>  <logBB>
0.9

>  <BBB+/BBB->
BBB+

>  <Inchi>
InChI=1S/C7H16/c1-4-6-7(3)5-2/h7H-4-6H2-1-3H3

>  <threshold>


>  <reference>
R3|R38|R41|R40|R2|R2|R27|R5|R11|R12|R17|R18|R21|R22|R25|R26|R27|R27|R27|R32|R33|R35|R36|R39|R44|R46|R47|R49|

>  <group>
A

>  <Class>
1

>  <ABC>
4.35

>  <ABCGG>
4.8

>  <nAcid>
0

>  <nBase>
0

>  <nAromAtom>
0

>  <nAromBond>
0

>  <nAtom>
23

>  <nHeavyAtom>
7

>  <nSpiro>
0

>  <nBridgehead>
0

>  <nHetero>
0

>  <nN>
0

>  <nO>
0

>  <nF>
0

>  <BalabanJ>
2.83

>  <BertzCT>
31.02

>  <nBonds>
22

>  <nBondsO>
6

>  <nBondsS>
22

>  <nBondsD>
0

>  <nBondsT>
0

>  <nBondsA>
0

>  <nBondsM>
0

>  <nBondsKS>
22

>  <nBondsKD>
0

>  <RNCG>
0.16

>  <RPCG>
0.08

>  <FCSP3>
1

>  <SZ>
9.67

>  <Sm>
8.34

>  <Sv>
11.33

>  <Sse>
22.1

>  <Sp>
13.39

>  <Si>
26.32

>  <MZ>
0.42

>  <Mm>
0.36

>  <Mv>
0.49

>  <Mse>
0.96

>  <Mp>
0.58

>  <Mi>
1.14

>  <NsCH3>
3

>  <NdCH2>
0

>  <NssCH2>
3

>  <NtCH>
0

>  <NdsCH>
0

>  <NaaCH>
0

>  <NsssCH>
1

>  <NddC>
0

>  <NtsC>
0

>  <NdssC>
0

>  <NaasC>
0

>  <NaaaC>
0

>  <NssssC>
0

>  <NsNH3>
0

>  <NsNH2>
0

>  <NssNH2>
0

>  <NdNH>
0

>  <NssNH>
0

>  <NaaNH>
0

>  <NtN>
0

>  <NsssNH>
0

>  <NdsN>
0

>  <NaaN>
0

>  <NsssN>
0

>  <NddsN>
0

>  <NaasN>
0

>  <NssssN>
0

>  <NsOH>
0

>  <NdO>
0

>  <NssO>
0

>  <NaaO>
0

>  <NsF>
0

>  <NsSiH3>
0

>  <NssSiH2>
0

>  <NsssSiH>
0

>  <NssssSi>
0

>  <NsPH2>
0

>  <NssPH>
0

>  <NsssP>
0

>  <NdsssP>
0

>  <NsssssP>
0

>  <NsSH>
0

>  <NdS>
0

>  <NssS>
0

>  <NaaS>
0

>  <NdssS>
0

>  <NddssS>
0

>  <NsCl>
0

>  <NsBr>
0

>  <NsI>
0

>  <fragCpx>
6

>  <fMF>
0

>  <nHBAcc>
0

>  <nHBDon>
0

>  <Kier1>
7

>  <Kier2>
4.17

>  <Lipinski>
1

>  <GhoseFilter>
0

>  <FilterItLogS>
-2.23

>  <VMcGowan>
109.49

>  <LabuteASA>
46.93

>  <PEOE_VSA1>
0

>  <PEOE_VSA2>
0

>  <PEOE_VSA3>
0

>  <PEOE_VSA4>
0

>  <PEOE_VSA5>
0

>  <PEOE_VSA6>
40.03

>  <PEOE_VSA7>
5.92

>  <PEOE_VSA8>
0

>  <PEOE_VSA9>
0

>  <PEOE_VSA10>
0

>  <PEOE_VSA11>
0

>  <PEOE_VSA12>
0

>  <PEOE_VSA13>
0

>  <SMR_VSA1>
0

>  <SMR_VSA2>
0

>  <SMR_VSA3>
0

>  <SMR_VSA4>
5.92

>  <SMR_VSA5>
40.03

>  <SMR_VSA6>
0

>  <SMR_VSA7>
0

>  <SMR_VSA8>
0

>  <SMR_VSA9>
0

>  <SlogP_VSA1>
0

>  <SlogP_VSA2>
0

>  <SlogP_VSA3>
0

>  <SlogP_VSA4>
5.92

>  <SlogP_VSA5>
40.03

>  <SlogP_VSA6>
0

>  <SlogP_VSA7>
0

>  <SlogP_VSA8>
0

>  <SlogP_VSA9>
0

>  <SlogP_VSA10>
0

>  <SlogP_VSA11>
0

>  <EState_VSA1>
0

>  <EState_VSA2>
0

>  <EState_VSA3>
0

>  <EState_VSA4>
5.92

>  <EState_VSA5>
19.26

>  <EState_VSA6>
0

>  <EState_VSA7>
0

>  <EState_VSA8>
20.77

>  <EState_VSA9>
0

>  <EState_VSA10>
0

>  <VSA_EState1>
0

>  <VSA_EState2>
0

>  <VSA_EState3>
0

>  <VSA_EState4>
0

>  <VSA_EState5>
0.95

>  <VSA_EState6>
0

>  <VSA_EState7>
4.08

>  <VSA_EState8>
6.8

>  <VSA_EState9>
0

>  <apol>
22.36

>  <bpol>
16.05

>  <nRing>
0

>  <nHRing>
0

>  <naRing>
0

>  <naHRing>
0

>  <nARing 2>
0

>  <nAHRing 2>
0

>  <nFRing>
0

>  <nFHRing>
0

>  <nFaRing>
0

>  <nFaHRing>
0

>  <nFARing 2>
0

>  <nFAHRing 2>
0

>  <nRot>
3

>  <SLogP>
2.83

>  <SMR>
34.36

>  <TopoPSA(NO)>
0

>  <TopoPSA>
0

>  <JGI1>
0.25

>  <JGI2>
0.11

>  <JGI3>
0.05

>  <JGI4>
0.03

>  <JGI5>
0

>  <Diameter>
5

>  <Radius>
3

>  <TMWC10>
65.91

>  <TSRW10>
31.66

>  <MW>
100.13

>  <AMW>
4.35

>  <WPath>
50

>  <WPol>
5

>  <Zagreb1>
24

>  <Zagreb2>
23

>  <mZagreb2>
1.92

>  <yes>


>  <nAR-cont>
0.336376

>  <nHA-cont>
0.357561384

>  <MWHBN>
0

>  <MWHBN-cont>
0

>  <TPSA-cont>
0

>  <pka_cont>
0.97

>  <yes.1>


>  <BBB_SCORE>
1.178937384

>  <MMFF94 Energy>
1.3218

$$$$
Compound 691
Actelion Java MolfileCreator 2.0

  0  0  0  0  0  0              0 V3000
M  V30 BEGIN CTAB
M  V30 COUNTS 20 19 0 0 0
M  V30 BEGIN ATOM
M  V30 1 C -0.5311 0.2275 -0.4552 0
M  V30 2 C -1.5712 -0.5917 -0.6743 0
M  V30 3 C 0.4889 -0.0338 0.5413 0 RAD=2
M  V30 4 C -0.3935 1.5269 -1.2215 0
M  V30 5 C 0.698 -1.3447 1.2329 0
M  V30 6 C 0.7238 1.4788 -2.2561 0
M  V30 7 C -0.0168 -1.3975 2.5738 0
M  V30 8 H -1.7166 -1.5158 -0.126 0
M  V30 9 H -2.325 -0.3553 -1.4194 0
M  V30 10 H 1.1034 0.802 0.8662 0
M  V30 11 H -0.2158 2.3549 -0.5237 0
M  V30 12 H -1.3323 1.7668 -1.737 0
M  V30 13 H 1.7737 -1.4755 1.3998 0
M  V30 14 H 0.3843 -2.1845 0.604 0
M  V30 15 H 0.7666 2.424 -2.8069 0
M  V30 16 H 1.7 1.321 -1.7862 0
M  V30 17 H 0.558 0.6735 -2.9794 0
M  V30 18 H 0.1837 -2.3519 3.0709 0
M  V30 19 H 0.3237 -0.5944 3.2362 0
M  V30 20 H -1.1008 -1.3017 2.453 0
M  V30 END ATOM
M  V30 BEGIN BOND
M  V30 1 2 1 2
M  V30 2 1 1 3
M  V30 3 1 1 4
M  V30 4 1 3 5
M  V30 5 1 4 6
M  V30 6 1 5 7
M  V30 7 1 2 8
M  V30 8 1 2 9
M  V30 9 1 3 10
M  V30 10 1 4 11
M  V30 11 1 4 12
M  V30 12 1 5 13
M  V30 13 1 5 14
M  V30 14 1 6 15
M  V30 15 1 6 16
M  V30 16 1 6 17
M  V30 17 1 7 18
M  V30 18 1 7 19
M  V30 19 1 7 20
M  V30 END BOND
M  V30 END CTAB
M  END
>  <Column 1>
830

>  <level_0>
948

>  <index>
948

>  <Unnamed: 0>
948

>  <NO.>
960

>  <Name>
3-methylhexane

>  <IUPAC_name>


>  <SMILES>
C=C([CH]CC)CC

>  <CID>
520668

>  <logBB>
0.9

>  <BBB+/BBB->
BBB+

>  <Inchi>
InChI=1S/C7H13/c1-4-6-7(3)5-2/h6H-3-5H2-1-2H3

>  <threshold>


>  <reference>
R8|R21|

>  <group>
A

>  <Class>
1

>  <ABC>
4.35

>  <ABCGG>
4.8

>  <nAcid>
0

>  <nBase>
0

>  <nAromAtom>
0

>  <nAromBond>
0

>  <nAtom>
20

>  <nHeavyAtom>
7

>  <nSpiro>
0

>  <nBridgehead>
0

>  <nHetero>
0

>  <nN>
0

>  <nO>
0

>  <nF>
0

>  <BalabanJ>
2.83

>  <BertzCT>
53.06

>  <nBonds>
19

>  <nBondsO>
6

>  <nBondsS>
18

>  <nBondsD>
1

>  <nBondsT>
0

>  <nBondsA>
0

>  <nBondsM>
1

>  <nBondsKS>
18

>  <nBondsKD>
1

>  <RNCG>
0.25

>  <RPCG>
0.13

>  <FCSP3>
0.57

>  <SZ>
9.17

>  <Sm>
8.09

>  <Sv>
10.52

>  <Sse>
19.27

>  <Sp>
12.19

>  <Si>
22.7

>  <MZ>
0.46

>  <Mm>
0.4

>  <Mv>
0.53

>  <Mse>
0.96

>  <Mp>
0.61

>  <Mi>
1.13

>  <NsCH3>
2

>  <NdCH2>
1

>  <NssCH2>
2

>  <NtCH>
0

>  <NdsCH>
0

>  <NaaCH>
0

>  <NsssCH>
0

>  <NddC>
0

>  <NtsC>
0

>  <NdssC>
1

>  <NaasC>
0

>  <NaaaC>
0

>  <NssssC>
0

>  <NsNH3>
0

>  <NsNH2>
0

>  <NssNH2>
0

>  <NdNH>
0

>  <NssNH>
0

>  <NaaNH>
0

>  <NtN>
0

>  <NsssNH>
0

>  <NdsN>
0

>  <NaaN>
0

>  <NsssN>
0

>  <NddsN>
0

>  <NaasN>
0

>  <NssssN>
0

>  <NsOH>
0

>  <NdO>
0

>  <NssO>
0

>  <NaaO>
0

>  <NsF>
0

>  <NsSiH3>
0

>  <NssSiH2>
0

>  <NsssSiH>
0

>  <NssssSi>
0

>  <NsPH2>
0

>  <NssPH>
0

>  <NsssP>
0

>  <NdsssP>
0

>  <NsssssP>
0

>  <NsSH>
0

>  <NdS>
0

>  <NssS>
0

>  <NaaS>
0

>  <NdssS>
0

>  <NddssS>
0

>  <NsCl>
0

>  <NsBr>
0

>  <NsI>
0

>  <fragCpx>
6

>  <fMF>
0

>  <nHBAcc>
0

>  <nHBDon>
0

>  <Kier1>
7

>  <Kier2>
4.17

>  <Lipinski>
1

>  <GhoseFilter>
0

>  <FilterItLogS>
-1.87

>  <VMcGowan>
103.04

>  <LabuteASA>
46.24

>  <PEOE_VSA1>
0

>  <PEOE_VSA2>
0

>  <PEOE_VSA3>
0

>  <PEOE_VSA4>
0

>  <PEOE_VSA5>
0

>  <PEOE_VSA6>
26

>  <PEOE_VSA7>
19.26

>  <PEOE_VSA8>
0

>  <PEOE_VSA9>
0

>  <PEOE_VSA10>
0

>  <PEOE_VSA11>
0

>  <PEOE_VSA12>
0

>  <PEOE_VSA13>
0

>  <SMR_VSA1>
0

>  <SMR_VSA2>
0

>  <SMR_VSA3>
0

>  <SMR_VSA4>
0

>  <SMR_VSA5>
26.69

>  <SMR_VSA6>
0

>  <SMR_VSA7>
18.57

>  <SMR_VSA8>
0

>  <SMR_VSA9>
0

>  <SlogP_VSA1>
0

>  <SlogP_VSA2>
0

>  <SlogP_VSA3>
0

>  <SlogP_VSA4>
6.42

>  <SlogP_VSA5>
26.69

>  <SlogP_VSA6>
12.15

>  <SlogP_VSA7>
0

>  <SlogP_VSA8>
0

>  <SlogP_VSA9>
0

>  <SlogP_VSA10>
0

>  <SlogP_VSA11>
0

>  <EState_VSA1>
0

>  <EState_VSA2>
0

>  <EState_VSA3>
0

>  <EState_VSA4>
12.84

>  <EState_VSA5>
5.57

>  <EState_VSA6>
0

>  <EState_VSA7>
0

>  <EState_VSA8>
26.85

>  <EState_VSA9>
0

>  <EState_VSA10>
0

>  <VSA_EState1>
0

>  <VSA_EState2>
0

>  <VSA_EState3>
0

>  <VSA_EState4>
1.25

>  <VSA_EState5>
0

>  <VSA_EState6>
0

>  <VSA_EState7>
4.36

>  <VSA_EState8>
8.05

>  <VSA_EState9>
0

>  <apol>
20.36

>  <bpol>
13.04

>  <nRing>
0

>  <nHRing>
0

>  <naRing>
0

>  <naHRing>
0

>  <nARing 2>
0

>  <nAHRing 2>
0

>  <nFRing>
0

>  <nFHRing>
0

>  <nFaRing>
0

>  <nFaHRing>
0

>  <nFARing 2>
0

>  <nFAHRing 2>
0

>  <nRot>
3

>  <SLogP>
2.57

>  <SMR>
34.02

>  <TopoPSA(NO)>
0

>  <TopoPSA>
0

>  <JGI1>
0.25

>  <JGI2>
0.11

>  <JGI3>
0.05

>  <JGI4>
0.03

>  <JGI5>
0

>  <Diameter>
5

>  <Radius>
3

>  <TMWC10>
65.91

>  <TSRW10>
31.66

>  <MW>
97.1

>  <AMW>
4.86

>  <WPath>
50

>  <WPol>
5

>  <Zagreb1>
24

>  <Zagreb2>
23

>  <mZagreb2>
1.92

>  <yes>


>  <nAR-cont>
0.336376

>  <nHA-cont>
0.357561384

>  <MWHBN>
0

>  <MWHBN-cont>
0

>  <TPSA-cont>
0

>  <pka_cont>
0.97

>  <yes.1>


>  <BBB_SCORE>
1.178937384

>  <MMFF94 Energy>
4.1563

$$$$
Compound 692
Actelion Java MolfileCreator 2.0

  0  0  0  0  0  0              0 V3000
M  V30 BEGIN CTAB
M  V30 COUNTS 18 18 0 0 0
M  V30 BEGIN ATOM
M  V30 1 C -1.2403 -0.1549 -0.775 0
M  V30 2 C -0.4085 -1.3602 -0.3447 0
M  V30 3 C -1.0873 1.0109 0.1981 0
M  V30 4 C 1.0573 -0.9876 -0.1388 0
M  V30 5 C 0.3784 1.3834 0.404 0
M  V30 6 C 1.2103 0.1782 0.8343 0
M  V30 7 H -0.9285 0.1638 -1.7773 0
M  V30 8 H -2.2959 -0.4411 -0.8447 0
M  V30 9 H -0.4858 -2.1504 -1.1 0
M  V30 10 H -0.815 -1.7689 0.5886 0
M  V30 11 H -1.6396 1.8798 -0.1771 0
M  V30 12 H -1.5335 0.7408 1.1633 0
M  V30 13 H 1.5034 -0.7174 -1.1039 0
M  V30 14 H 1.6095 -1.8565 0.2364 0
M  V30 15 H 0.4557 2.1738 1.1593 0
M  V30 16 H 0.7849 1.7922 -0.5292 0
M  V30 17 H 2.2658 0.4645 0.9041 0
M  V30 18 H 0.8984 -0.1404 1.8367 0
M  V30 END ATOM
M  V30 BEGIN BOND
M  V30 1 1 1 2
M  V30 2 1 1 3
M  V30 3 1 2 4
M  V30 4 1 3 5
M  V30 5 1 4 6
M  V30 6 1 5 6
M  V30 7 1 1 7
M  V30 8 1 1 8
M  V30 9 1 2 9
M  V30 10 1 2 10
M  V30 11 1 3 11
M  V30 12 1 3 12
M  V30 13 1 4 13
M  V30 14 1 4 14
M  V30 15 1 5 15
M  V30 16 1 5 16
M  V30 17 1 6 17
M  V30 18 1 6 18
M  V30 END BOND
M  V30 END CTAB
M  END
>  <Column 1>
831

>  <level_0>
949

>  <index>
949

>  <Unnamed: 0>
949

>  <NO.>
961

>  <Name>
cyclohexane

>  <IUPAC_name>
cyclohexane

>  <SMILES>
C1CCCCC1

>  <CID>
8078

>  <logBB>
0.9

>  <BBB+/BBB->
BBB+

>  <Inchi>
InChI=1S/C6H12/c1-2-4-6-5-3-1/h1-6H2

>  <threshold>


>  <reference>
R5|R12|R18|R26|R27|R35|R39|R43|R44|R8|R21|R27|R2|R2|R27|R40|R3|R25|R38|R41|R46|R47|

>  <group>
A

>  <Class>
1

>  <ABC>
4.24

>  <ABCGG>
4

>  <nAcid>
0

>  <nBase>
0

>  <nAromAtom>
0

>  <nAromBond>
0

>  <nAtom>
18

>  <nHeavyAtom>
6

>  <nSpiro>
0

>  <nBridgehead>
0

>  <nHetero>
0

>  <nN>
0

>  <nO>
0

>  <nF>
0

>  <BalabanJ>
2

>  <BertzCT>
15.51

>  <nBonds>
18

>  <nBondsO>
6

>  <nBondsS>
18

>  <nBondsD>
0

>  <nBondsT>
0

>  <nBondsA>
0

>  <nBondsM>
0

>  <nBondsKS>
18

>  <nBondsKD>
0

>  <RNCG>
0.17

>  <RPCG>
0.08

>  <FCSP3>
1

>  <SZ>
8

>  <Sm>
7.01

>  <Sv>
9.25

>  <Sse>
17.33

>  <Sp>
10.79

>  <Si>
20.49

>  <MZ>
0.44

>  <Mm>
0.39

>  <Mv>
0.51

>  <Mse>
0.96

>  <Mp>
0.6

>  <Mi>
1.14

>  <NsCH3>
0

>  <NdCH2>
0

>  <NssCH2>
6

>  <NtCH>
0

>  <NdsCH>
0

>  <NaaCH>
0

>  <NsssCH>
0

>  <NddC>
0

>  <NtsC>
0

>  <NdssC>
0

>  <NaasC>
0

>  <NaaaC>
0

>  <NssssC>
0

>  <NsNH3>
0

>  <NsNH2>
0

>  <NssNH2>
0

>  <NdNH>
0

>  <NssNH>
0

>  <NaaNH>
0

>  <NtN>
0

>  <NsssNH>
0

>  <NdsN>
0

>  <NaaN>
0

>  <NsssN>
0

>  <NddsN>
0

>  <NaasN>
0

>  <NssssN>
0

>  <NsOH>
0

>  <NdO>
0

>  <NssO>
0

>  <NaaO>
0

>  <NsF>
0

>  <NsSiH3>
0

>  <NssSiH2>
0

>  <NsssSiH>
0

>  <NssssSi>
0

>  <NsPH2>
0

>  <NssPH>
0

>  <NsssP>
0

>  <NdsssP>
0

>  <NsssssP>
0

>  <NsSH>
0

>  <NdS>
0

>  <NssS>
0

>  <NaaS>
0

>  <NdssS>
0

>  <NddssS>
0

>  <NsCl>
0

>  <NsBr>
0

>  <NsI>
0

>  <fragCpx>
6

>  <fMF>
0.33

>  <nHBAcc>
0

>  <nHBDon>
0

>  <Kier1>
4.17

>  <Kier2>
2.22

>  <Lipinski>
1

>  <GhoseFilter>
0

>  <FilterItLogS>
-1.44

>  <VMcGowan>
84.54

>  <LabuteASA>
39.56

>  <PEOE_VSA1>
0

>  <PEOE_VSA2>
0

>  <PEOE_VSA3>
0

>  <PEOE_VSA4>
0

>  <PEOE_VSA5>
0

>  <PEOE_VSA6>
38.52

>  <PEOE_VSA7>
0

>  <PEOE_VSA8>
0

>  <PEOE_VSA9>
0

>  <PEOE_VSA10>
0

>  <PEOE_VSA11>
0

>  <PEOE_VSA12>
0

>  <PEOE_VSA13>
0

>  <SMR_VSA1>
0

>  <SMR_VSA2>
0

>  <SMR_VSA3>
0

>  <SMR_VSA4>
0

>  <SMR_VSA5>
38.52

>  <SMR_VSA6>
0

>  <SMR_VSA7>
0

>  <SMR_VSA8>
0

>  <SMR_VSA9>
0

>  <SlogP_VSA1>
0

>  <SlogP_VSA2>
0

>  <SlogP_VSA3>
0

>  <SlogP_VSA4>
0

>  <SlogP_VSA5>
38.52

>  <SlogP_VSA6>
0

>  <SlogP_VSA7>
0

>  <SlogP_VSA8>
0

>  <SlogP_VSA9>
0

>  <SlogP_VSA10>
0

>  <SlogP_VSA11>
0

>  <EState_VSA1>
0

>  <EState_VSA2>
0

>  <EState_VSA3>
0

>  <EState_VSA4>
0

>  <EState_VSA5>
38.52

>  <EState_VSA6>
0

>  <EState_VSA7>
0

>  <EState_VSA8>
0

>  <EState_VSA9>
0

>  <EState_VSA10>
0

>  <VSA_EState1>
0

>  <VSA_EState2>
0

>  <VSA_EState3>
0

>  <VSA_EState4>
0

>  <VSA_EState5>
0

>  <VSA_EState6>
0

>  <VSA_EState7>
9

>  <VSA_EState8>
0

>  <VSA_EState9>
0

>  <apol>
18.02

>  <bpol>
12.04

>  <nRing>
1

>  <nHRing>
0

>  <naRing>
0

>  <naHRing>
0

>  <nARing 2>
1

>  <nAHRing 2>
0

>  <nFRing>
0

>  <nFHRing>
0

>  <nFaRing>
0

>  <nFaHRing>
0

>  <nFARing 2>
0

>  <nFAHRing 2>
0

>  <nRot>
0

>  <SLogP>
2.34

>  <SMR>
27.7

>  <TopoPSA(NO)>
0

>  <TopoPSA>
0

>  <JGI1>
0

>  <JGI2>
0

>  <JGI3>
0

>  <JGI4>
0

>  <JGI5>
0

>  <Diameter>
3

>  <Radius>
3

>  <TMWC10>
65.64

>  <TSRW10>
30.94

>  <MW>
84.09

>  <AMW>
4.67

>  <WPath>
27

>  <WPol>
3

>  <Zagreb1>
24

>  <Zagreb2>
24

>  <mZagreb2>
1.5

>  <yes>


>  <nAR-cont>
0.816016

>  <nHA-cont>
0.238778273

>  <MWHBN>
0

>  <MWHBN-cont>
0

>  <TPSA-cont>
0

>  <pka_cont>
0.97

>  <yes.1>


>  <BBB_SCORE>
1.539794273

>  <MMFF94 Energy>
-3.5609

$$$$
Compound 693
Actelion Java MolfileCreator 2.0

  0  0  0  0  0  0              0 V3000
M  V30 BEGIN CTAB
M  V30 COUNTS 18 18 0 0 0
M  V30 BEGIN ATOM
M  V30 1 C -0.5423 0.5423 -0.6198 0
M  V30 2 C 0.9799 0.6638 -0.6295 0
M  V30 3 C -0.7475 -0.9582 -0.4236 0
M  V30 4 C -1.1824 1.3656 0.4962 0
M  V30 5 C 1.4649 -0.3442 0.4081 0
M  V30 6 C 0.3548 -1.3865 0.5404 0
M  V30 7 H -0.9633 0.8692 -1.5771 0
M  V30 8 H 1.3639 0.3785 -1.6169 0
M  V30 9 H 1.3342 1.6774 -0.4173 0
M  V30 10 H -0.6101 -1.475 -1.3816 0
M  V30 11 H -1.7443 -1.2132 -0.0505 0
M  V30 12 H -0.9829 2.4322 0.3476 0
M  V30 13 H -0.8051 1.0893 1.4861 0
M  V30 14 H -2.2685 1.225 0.5008 0
M  V30 15 H 2.4146 -0.7979 0.1071 0
M  V30 16 H 1.6301 0.1483 1.3733 0
M  V30 17 H -0.0209 -1.4019 1.57 0
M  V30 18 H 0.7142 -2.3946 0.3097 0
M  V30 END ATOM
M  V30 BEGIN BOND
M  V30 1 1 1 2
M  V30 2 1 1 3
M  V30 3 1 1 4
M  V30 4 1 2 5
M  V30 5 1 3 6
M  V30 6 1 5 6
M  V30 7 1 1 7
M  V30 8 1 2 8
M  V30 9 1 2 9
M  V30 10 1 3 10
M  V30 11 1 3 11
M  V30 12 1 4 12
M  V30 13 1 4 13
M  V30 14 1 4 14
M  V30 15 1 5 15
M  V30 16 1 5 16
M  V30 17 1 6 17
M  V30 18 1 6 18
M  V30 END BOND
M  V30 END CTAB
M  END
>  <Column 1>
832

>  <level_0>
950

>  <index>
950

>  <Unnamed: 0>
950

>  <NO.>
962

>  <Name>
methylcyclopentane

>  <IUPAC_name>
methylcyclopentane

>  <SMILES>
CC1CCCC1

>  <CID>
7296

>  <logBB>
0.9

>  <BBB+/BBB->
BBB+

>  <Inchi>
InChI=1S/C6H12/c1-6-4-2-3-5-6/h6H-2-5H2-1H3

>  <threshold>


>  <reference>
R5|R11|R12|R17|R18|R21|R22|R25|R26|R27|R27|R32|R33|R35|R36|R39|R43|R44|R44|R46|R47|R48|R49|R2|R2|R8|R27|R40|R41|R3|R38|

>  <group>
A

>  <Class>
1

>  <ABC>
4.35

>  <ABCGG>
4.43

>  <nAcid>
0

>  <nBase>
0

>  <nAromAtom>
0

>  <nAromBond>
0

>  <nAtom>
18

>  <nHeavyAtom>
6

>  <nSpiro>
0

>  <nBridgehead>
0

>  <nHetero>
0

>  <nN>
0

>  <nO>
0

>  <nF>
0

>  <BalabanJ>
2.18

>  <BertzCT>
33.3

>  <nBonds>
18

>  <nBondsO>
6

>  <nBondsS>
18

>  <nBondsD>
0

>  <nBondsT>
0

>  <nBondsA>
0

>  <nBondsM>
0

>  <nBondsKS>
18

>  <nBondsKD>
0

>  <RNCG>
0.2

>  <RPCG>
0.1

>  <FCSP3>
1

>  <SZ>
8

>  <Sm>
7.01

>  <Sv>
9.25

>  <Sse>
17.33

>  <Sp>
10.79

>  <Si>
20.49

>  <MZ>
0.44

>  <Mm>
0.39

>  <Mv>
0.51

>  <Mse>
0.96

>  <Mp>
0.6

>  <Mi>
1.14

>  <NsCH3>
1

>  <NdCH2>
0

>  <NssCH2>
4

>  <NtCH>
0

>  <NdsCH>
0

>  <NaaCH>
0

>  <NsssCH>
1

>  <NddC>
0

>  <NtsC>
0

>  <NdssC>
0

>  <NaasC>
0

>  <NaaaC>
0

>  <NssssC>
0

>  <NsNH3>
0

>  <NsNH2>
0

>  <NssNH2>
0

>  <NdNH>
0

>  <NssNH>
0

>  <NaaNH>
0

>  <NtN>
0

>  <NsssNH>
0

>  <NdsN>
0

>  <NaaN>
0

>  <NsssN>
0

>  <NddsN>
0

>  <NaasN>
0

>  <NssssN>
0

>  <NsOH>
0

>  <NdO>
0

>  <NssO>
0

>  <NaaO>
0

>  <NsF>
0

>  <NsSiH3>
0

>  <NssSiH2>
0

>  <NsssSiH>
0

>  <NssssSi>
0

>  <NsPH2>
0

>  <NssPH>
0

>  <NsssP>
0

>  <NdsssP>
0

>  <NsssssP>
0

>  <NsSH>
0

>  <NdS>
0

>  <NssS>
0

>  <NaaS>
0

>  <NdssS>
0

>  <NddssS>
0

>  <NsCl>
0

>  <NsBr>
0

>  <NsI>
0

>  <fragCpx>
6

>  <fMF>
0.28

>  <nHBAcc>
0

>  <nHBDon>
0

>  <Kier1>
4.17

>  <Kier2>
1.63

>  <Lipinski>
1

>  <GhoseFilter>
0

>  <FilterItLogS>
-1.31

>  <VMcGowan>
84.54

>  <LabuteASA>
39.56

>  <PEOE_VSA1>
0

>  <PEOE_VSA2>
0

>  <PEOE_VSA3>
0

>  <PEOE_VSA4>
0

>  <PEOE_VSA5>
0

>  <PEOE_VSA6>
32.61

>  <PEOE_VSA7>
5.92

>  <PEOE_VSA8>
0

>  <PEOE_VSA9>
0

>  <PEOE_VSA10>
0

>  <PEOE_VSA11>
0

>  <PEOE_VSA12>
0

>  <PEOE_VSA13>
0

>  <SMR_VSA1>
0

>  <SMR_VSA2>
0

>  <SMR_VSA3>
0

>  <SMR_VSA4>
5.92

>  <SMR_VSA5>
32.61

>  <SMR_VSA6>
0

>  <SMR_VSA7>
0

>  <SMR_VSA8>
0

>  <SMR_VSA9>
0

>  <SlogP_VSA1>
0

>  <SlogP_VSA2>
0

>  <SlogP_VSA3>
0

>  <SlogP_VSA4>
5.92

>  <SlogP_VSA5>
32.61

>  <SlogP_VSA6>
0

>  <SlogP_VSA7>
0

>  <SlogP_VSA8>
0

>  <SlogP_VSA9>
0

>  <SlogP_VSA10>
0

>  <SlogP_VSA11>
0

>  <EState_VSA1>
0

>  <EState_VSA2>
0

>  <EState_VSA3>
0

>  <EState_VSA4>
5.92

>  <EState_VSA5>
25.68

>  <EState_VSA6>
0

>  <EState_VSA7>
0

>  <EState_VSA8>
6.92

>  <EState_VSA9>
0

>  <EState_VSA10>
0

>  <VSA_EState1>
0

>  <VSA_EState2>
0

>  <VSA_EState3>
0

>  <VSA_EState4>
0

>  <VSA_EState5>
1.05

>  <VSA_EState6>
0

>  <VSA_EState7>
5.95

>  <VSA_EState8>
2.34

>  <VSA_EState9>
0

>  <apol>
18.02

>  <bpol>
12.04

>  <nRing>
1

>  <nHRing>
0

>  <naRing>
0

>  <naHRing>
0

>  <nARing 2>
1

>  <nAHRing 2>
0

>  <nFRing>
0

>  <nFHRing>
0

>  <nFaRing>
0

>  <nFaHRing>
0

>  <nFARing 2>
0

>  <nFAHRing 2>
0

>  <nRot>
0

>  <SLogP>
2.2

>  <SMR>
27.63

>  <TopoPSA(NO)>
0

>  <TopoPSA>
0

>  <JGI1>
0.17

>  <JGI2>
0.06

>  <JGI3>
0.11

>  <JGI4>
0

>  <JGI5>
0

>  <Diameter>
3

>  <Radius>
2

>  <TMWC10>
68.28

>  <TSRW10>
44.53

>  <MW>
84.09

>  <AMW>
4.67

>  <WPath>
26

>  <WPol>
2

>  <Zagreb1>
26

>  <Zagreb2>
27

>  <mZagreb2>
1.42

>  <yes>


>  <nAR-cont>
0.816016

>  <nHA-cont>
0.238778273

>  <MWHBN>
0

>  <MWHBN-cont>
0

>  <TPSA-cont>
0

>  <pka_cont>
0.97

>  <yes.1>


>  <BBB_SCORE>
1.539794273

>  <MMFF94 Energy>
6.6653

$$$$
Compound 694
Actelion Java MolfileCreator 2.0

  0  0  0  0  0  0              0 V3000
M  V30 BEGIN CTAB
M  V30 COUNTS 58 60 0 0 0
M  V30 BEGIN ATOM
M  V30 1 Cl -5.0635 3.5344 -3.2931 0
M  V30 2 C -5.7975 2.5316 -2.0708 0
M  V30 3 C -7.1976 2.4561 -1.9729 0
M  V30 4 C -4.9754 1.8327 -1.1511 0
M  V30 5 Cl -8.257 3.2845 -3.0636 0
M  V30 6 C -7.7937 1.6937 -0.9661 0
M  V30 7 N -3.5829 1.8655 -1.2319 0
M  V30 8 C -5.6095 1.0787 -0.1471 0
M  V30 9 C -7.0006 1.0076 -0.0529 0
M  V30 10 C -2.7802 2.0048 -0.0102 0
M  V30 11 C -2.9647 1.0307 -2.2752 0
M  V30 12 C -1.3424 2.4609 -0.3564 0
M  V30 13 C -1.5231 1.5079 -2.5623 0
M  V30 14 N -0.6773 1.5749 -1.3432 0
M  V30 15 C 0.6677 2.0565 -1.6941 0
M  V30 16 C 1.6922 1.9557 -0.5516 0
M  V30 17 C 1.8231 0.5619 0.0977 0
M  V30 18 C 2.2491 -0.5162 -0.9109 0
M  V30 19 C 2.823 0.6293 1.265 0
M  V30 20 C 2.4511 -1.8746 -0.2423 0
M  V30 21 C 3.0185 -0.7301 1.9308 0
M  V30 22 C 3.446 -1.7966 0.918 0
M  V30 23 N 3.5707 -3.0945 1.565 0
M  V30 24 C 4.7273 -3.4855 2.2069 0
M  V30 25 O 5.7366 -2.7933 2.2668 0
M  V30 26 C 4.6118 -4.8627 2.8305 0
M  V30 27 C 5.8884 -5.2934 3.5288 0
M  V30 28 H -8.8765 1.6335 -0.8881 0
M  V30 29 H -5.0163 0.5141 0.568 0
M  V30 30 H -7.462 0.4116 0.7308 0
M  V30 31 H -3.2287 2.7497 0.6583 0
M  V30 32 H -2.7364 1.0484 0.5256 0
M  V30 33 H -2.9474 -0.0143 -1.9398 0
M  V30 34 H -3.5337 1.0601 -3.2112 0
M  V30 35 H -0.7729 2.4775 0.5788 0
M  V30 36 H -1.3792 3.4899 -0.7387 0
M  V30 37 H -1.5655 2.4937 -3.0451 0
M  V30 38 H -1.074 0.8101 -3.2792 0
M  V30 39 H 0.6272 3.0973 -2.042 0
M  V30 40 H 1.0528 1.4714 -2.5384 0
M  V30 41 H 2.6696 2.2611 -0.9479 0
M  V30 42 H 1.4438 2.6917 0.223 0
M  V30 43 H 0.8485 0.2755 0.5146 0
M  V30 44 H 1.492 -0.6279 -1.6946 0
M  V30 45 H 3.1803 -0.2145 -1.4068 0
M  V30 46 H 2.4715 1.3477 2.0154 0
M  V30 47 H 3.7927 0.9961 0.9046 0
M  V30 48 H 1.4831 -2.2474 0.1181 0
M  V30 49 H 2.8026 -2.5993 -0.9867 0
M  V30 50 H 2.0844 -1.0337 2.4215 0
M  V30 51 H 3.769 -0.6405 2.7254 0
M  V30 52 H 4.4309 -1.5239 0.5173 0
M  V30 53 H 2.7582 -3.6957 1.6094 0
M  V30 54 H 4.363 -5.5811 2.0414 0
M  V30 55 H 3.7851 -4.8494 3.5497 0
M  V30 56 H 5.7671 -6.2897 3.9649 0
M  V30 57 H 6.1507 -4.5976 4.3328 0
M  V30 58 H 6.7283 -5.3267 2.8271 0
M  V30 END ATOM
M  V30 BEGIN BOND
M  V30 1 1 1 2
M  V30 2 2 2 3
M  V30 3 1 2 4
M  V30 4 1 3 5
M  V30 5 1 3 6
M  V30 6 1 4 7
M  V30 7 2 4 8
M  V30 8 2 6 9
M  V30 9 1 7 10
M  V30 10 1 7 11
M  V30 11 1 10 12
M  V30 12 1 11 13
M  V30 13 1 12 14
M  V30 14 1 14 15
M  V30 15 1 15 16
M  V30 16 1 16 17
M  V30 17 1 17 18
M  V30 18 1 17 19
M  V30 19 1 18 20
M  V30 20 1 19 21
M  V30 21 1 20 22
M  V30 22 1 22 23
M  V30 23 1 23 24
M  V30 24 2 24 25
M  V30 25 1 24 26
M  V30 26 1 26 27
M  V30 27 1 8 9
M  V30 28 1 13 14
M  V30 29 1 21 22
M  V30 30 1 6 28
M  V30 31 1 8 29
M  V30 32 1 9 30
M  V30 33 1 10 31
M  V30 34 1 10 32
M  V30 35 1 11 33
M  V30 36 1 11 34
M  V30 37 1 12 35
M  V30 38 1 12 36
M  V30 39 1 13 37
M  V30 40 1 13 38
M  V30 41 1 15 39
M  V30 42 1 15 40
M  V30 43 1 16 41
M  V30 44 1 16 42
M  V30 45 1 17 43
M  V30 46 1 18 44
M  V30 47 1 18 45
M  V30 48 1 19 46
M  V30 49 1 19 47
M  V30 50 1 20 48
M  V30 51 1 20 49
M  V30 52 1 21 50
M  V30 53 1 21 51
M  V30 54 1 22 52
M  V30 55 1 23 53
M  V30 56 1 26 54
M  V30 57 1 26 55
M  V30 58 1 27 56
M  V30 59 1 27 57
M  V30 60 1 27 58
M  V30 END BOND
M  V30 END CTAB
M  END
>  <Column 1>
833

>  <level_0>
951

>  <index>
951

>  <Unnamed: 0>
951

>  <NO.>
963

>  <Name>
piperazinederivatives 7

>  <IUPAC_name>
n-[4-[2-[4-(2-3-dichlorophenyl)piperazin-1-yl]ethyl]cyclohexyl]propanamide

>  <SMILES>
CCC(=O)NC1CCC(CCN2CCN(c3cccc(Cl)c3Cl)CC2)CC1

>  <CID>
70696192

>  <logBB>
0.9

>  <BBB+/BBB->
BBB+

>  <Inchi>
InChI=1S/C21H31Cl2N3O/c1-2-20(27)24-17-8-6-16(7-9-17)10-11-25-12-14-26(15-13-25)19-5-3-4-18(22)21(19)23/h3-5-16-17H-2-6-15H2-1H3-(H-24-27)

>  <threshold>


>  <reference>
R47|

>  <group>
A

>  <Class>
1

>  <ABC>
20.71

>  <ABCGG>
15.02

>  <nAcid>
0

>  <nBase>
1

>  <nAromAtom>
6

>  <nAromBond>
6

>  <nAtom>
58

>  <nHeavyAtom>
27

>  <nSpiro>
0

>  <nBridgehead>
0

>  <nHetero>
6

>  <nN>
3

>  <nO>
1

>  <nF>
0

>  <BalabanJ>
1.31

>  <BertzCT>
623.85

>  <nBonds>
60

>  <nBondsO>
29

>  <nBondsS>
53

>  <nBondsD>
1

>  <nBondsT>
0

>  <nBondsA>
6

>  <nBondsM>
7

>  <nBondsKS>
56

>  <nBondsKD>
4

>  <RNCG>
0.19

>  <RPCG>
0.12

>  <FCSP3>
0.67

>  <SZ>
36.67

>  <Sm>
34.34

>  <Sv>
34.57

>  <Sse>
57.61

>  <Sp>
38.44

>  <Si>
65.82

>  <MZ>
0.63

>  <Mm>
0.59

>  <Mv>
0.6

>  <Mse>
0.99

>  <Mp>
0.66

>  <Mi>
1.13

>  <NsCH3>
1

>  <NdCH2>
0

>  <NssCH2>
11

>  <NtCH>
0

>  <NdsCH>
0

>  <NaaCH>
3

>  <NsssCH>
2

>  <NddC>
0

>  <NtsC>
0

>  <NdssC>
1

>  <NaasC>
3

>  <NaaaC>
0

>  <NssssC>
0

>  <NsNH3>
0

>  <NsNH2>
0

>  <NssNH2>
0

>  <NdNH>
0

>  <NssNH>
1

>  <NaaNH>
0

>  <NtN>
0

>  <NsssNH>
0

>  <NdsN>
0

>  <NaaN>
0

>  <NsssN>
2

>  <NddsN>
0

>  <NaasN>
0

>  <NssssN>
0

>  <NsOH>
0

>  <NdO>
1

>  <NssO>
0

>  <NaaO>
0

>  <NsF>
0

>  <NsSiH3>
0

>  <NssSiH2>
0

>  <NsssSiH>
0

>  <NssssSi>
0

>  <NsPH2>
0

>  <NssPH>
0

>  <NsssP>
0

>  <NdsssP>
0

>  <NsssssP>
0

>  <NsSH>
0

>  <NdS>
0

>  <NssS>
0

>  <NaaS>
0

>  <NdssS>
0

>  <NddssS>
0

>  <NsCl>
2

>  <NsBr>
0

>  <NsI>
0

>  <fragCpx>
139.06

>  <fMF>
0.34

>  <nHBAcc>
3

>  <nHBDon>
1

>  <Kier1>
21.7

>  <Kier2>
10.68

>  <Lipinski>
1

>  <GhoseFilter>
1

>  <FilterItLogS>
-5.68

>  <VMcGowan>
317.26

>  <LabuteASA>
172.73

>  <PEOE_VSA1>
10.22

>  <PEOE_VSA2>
9.69

>  <PEOE_VSA3>
0

>  <PEOE_VSA4>
0

>  <PEOE_VSA5>
0

>  <PEOE_VSA6>
36.19

>  <PEOE_VSA7>
56.7

>  <PEOE_VSA8>
38.64

>  <PEOE_VSA9>
15.73

>  <PEOE_VSA10>
0

>  <PEOE_VSA11>
0

>  <PEOE_VSA12>
5.91

>  <PEOE_VSA13>
0

>  <SMR_VSA1>
4.79

>  <SMR_VSA2>
0

>  <SMR_VSA3>
10.22

>  <SMR_VSA4>
5.92

>  <SMR_VSA5>
51.49

>  <SMR_VSA6>
37.62

>  <SMR_VSA7>
28.24

>  <SMR_VSA8>
0

>  <SMR_VSA9>
0

>  <SlogP_VSA1>
10.22

>  <SlogP_VSA2>
49.57

>  <SlogP_VSA3>
4.79

>  <SlogP_VSA4>
5.92

>  <SlogP_VSA5>
45.45

>  <SlogP_VSA6>
18.2

>  <SlogP_VSA7>
10.05

>  <SlogP_VSA8>
0

>  <SlogP_VSA9>
0

>  <SlogP_VSA10>
5.69

>  <SlogP_VSA11>
0

>  <EState_VSA1>
0

>  <EState_VSA2>
5.91

>  <EState_VSA3>
22.51

>  <EState_VSA4>
50.63

>  <EState_VSA5>
25.81

>  <EState_VSA6>
0

>  <EState_VSA7>
19.06

>  <EState_VSA8>
21.18

>  <EState_VSA9>
23.2

>  <EState_VSA10>
4.79

>  <VSA_EState1>
0

>  <VSA_EState2>
16.43

>  <VSA_EState3>
4.44

>  <VSA_EState4>
1.05

>  <VSA_EState5>
1

>  <VSA_EState6>
6.26

>  <VSA_EState7>
6.62

>  <VSA_EState8>
7.23

>  <VSA_EState9>
0

>  <apol>
64.2

>  <bpol>
36.98

>  <nRing>
3

>  <nHRing>
1

>  <naRing>
1

>  <naHRing>
0

>  <nARing 2>
2

>  <nAHRing 2>
1

>  <nFRing>
0

>  <nFHRing>
0

>  <nFaRing>
0

>  <nFaHRing>
0

>  <nFARing 2>
0

>  <nFAHRing 2>
0

>  <nRot>
6

>  <SLogP>
4.59

>  <SMR>
113.91

>  <TopoPSA(NO)>
35.58

>  <TopoPSA>
35.58

>  <JGI1>
0.19

>  <JGI2>
0.08

>  <JGI3>
0.03

>  <JGI4>
0.04

>  <JGI5>
0.02

>  <Diameter>
17

>  <Radius>
9

>  <TMWC10>
130.63

>  <TSRW10>
61.79

>  <MW>
411.18

>  <AMW>
7.09

>  <WPath>
2304

>  <WPol>
40

>  <Zagreb1>
136

>  <Zagreb2>
156

>  <mZagreb2>
6.08

>  <yes>


>  <nAR-cont>
1

>  <nHA-cont>
0.860070871

>  <MWHBN>
0.197262258

>  <MWHBN-cont>
0.998963806

>  <TPSA-cont>
0.751629506

>  <pka_cont>
0.97

>  <yes.1>


>  <BBB_SCORE>
5.346775592

>  <MMFF94 Energy>
112.46

$$$$
Compound 695
Actelion Java MolfileCreator 2.0

  0  0  0  0  0  0              0 V3000
M  V30 BEGIN CTAB
M  V30 COUNTS 42 42 0 0 0
M  V30 BEGIN ATOM
M  V30 1 Cl -5.0331 3.0647 -2.8287 0
M  V30 2 C -3.8907 1.9642 -2.1374 0
M  V30 3 C -4.1045 0.58 -2.1978 0
M  V30 4 C -2.7593 2.4863 -1.513 0
M  V30 5 N -5.2078 0.0317 -2.8402 0
M  V30 6 C -3.139 -0.2672 -1.6392 0
M  V30 7 C -1.8001 1.6351 -0.938 0
M  V30 8 C -1.9892 0.2387 -1.0074 0
M  V30 9 C -0.6265 2.3146 -0.2925 0
M  V30 10 O -1.0278 -0.5644 -0.4491 0
M  V30 11 O -0.5054 3.535 -0.3648 0
M  V30 12 N 0.2823 1.5313 0.3691 0
M  V30 13 C -1.1662 -1.9747 -0.5706 0
M  V30 14 C 1.4853 2.0572 0.9796 0
M  V30 15 C 2.0653 1.0783 2.0184 0
M  V30 16 N 2.2179 -0.3094 1.512 0
M  V30 17 C 2.4429 -1.2233 2.6477 0
M  V30 18 C 3.2932 -0.3991 0.5071 0
M  V30 19 C 2.3696 -2.6969 2.2615 0
M  V30 20 C 2.7683 -1.0558 -0.7629 0
M  V30 21 H -2.6219 3.5655 -1.4734 0
M  V30 22 H -5.4064 -0.9574 -2.8099 0
M  V30 23 H -5.9159 0.6598 -3.2062 0
M  V30 24 H -3.3099 -1.3363 -1.7108 0
M  V30 25 H 0.1799 0.5191 0.3527 0
M  V30 26 H -2.0577 -2.3292 -0.0434 0
M  V30 27 H -0.2952 -2.4369 -0.0972 0
M  V30 28 H -1.1748 -2.2819 -1.6214 0
M  V30 29 H 1.2537 3.0146 1.4596 0
M  V30 30 H 2.1978 2.2593 0.1735 0
M  V30 31 H 3.0167 1.4635 2.4064 0
M  V30 32 H 1.3588 1.0685 2.8593 0
M  V30 33 H 3.4034 -1.0143 3.1357 0
M  V30 34 H 1.6616 -1.0605 3.4011 0
M  V30 35 H 3.6884 0.5872 0.2371 0
M  V30 36 H 4.16 -0.9578 0.8809 0
M  V30 37 H 2.4358 -3.3201 3.1596 0
M  V30 38 H 3.1893 -2.9893 1.5989 0
M  V30 39 H 1.4213 -2.9272 1.7654 0
M  V30 40 H 3.5696 -1.1271 -1.5055 0
M  V30 41 H 1.9559 -0.4699 -1.2053 0
M  V30 42 H 2.3969 -2.0675 -0.5749 0
M  V30 END ATOM
M  V30 BEGIN BOND
M  V30 1 1 1 2
M  V30 2 2 2 3
M  V30 3 1 2 4
M  V30 4 1 3 5
M  V30 5 1 3 6
M  V30 6 2 4 7
M  V30 7 2 6 8
M  V30 8 1 7 9
M  V30 9 1 8 10
M  V30 10 2 9 11
M  V30 11 1 9 12
M  V30 12 1 10 13
M  V30 13 1 12 14
M  V30 14 1 14 15
M  V30 15 1 15 16
M  V30 16 1 16 17
M  V30 17 1 16 18
M  V30 18 1 17 19
M  V30 19 1 18 20
M  V30 20 1 7 8
M  V30 21 1 4 21
M  V30 22 1 5 22
M  V30 23 1 5 23
M  V30 24 1 6 24
M  V30 25 1 12 25
M  V30 26 1 13 26
M  V30 27 1 13 27
M  V30 28 1 13 28
M  V30 29 1 14 29
M  V30 30 1 14 30
M  V30 31 1 15 31
M  V30 32 1 15 32
M  V30 33 1 17 33
M  V30 34 1 17 34
M  V30 35 1 18 35
M  V30 36 1 18 36
M  V30 37 1 19 37
M  V30 38 1 19 38
M  V30 39 1 19 39
M  V30 40 1 20 40
M  V30 41 1 20 41
M  V30 42 1 20 42
M  V30 END BOND
M  V30 END CTAB
M  END
>  <Column 1>
834

>  <level_0>
953

>  <index>
953

>  <Unnamed: 0>
953

>  <NO.>
965

>  <Name>
metoclopramide

>  <IUPAC_name>
4-amino-5-chloro-n-[2-(diethylamino)ethyl]-2-methoxybenzamide

>  <SMILES>
CCN(CC)CCNC(=O)c1cc(Cl)c(N)cc1OC

>  <CID>
4168

>  <logBB>
0.9

>  <BBB+/BBB->
BBB+

>  <Inchi>
InChI=1S/C14H22ClN3O2/c1-4-18(5-2)7-6-17-14(19)10-8-11(15)12(16)9-13(10)20-3/h8-9H-4-7-16H2-1-3H3-(H-17-19)

>  <threshold>


>  <reference>
R2|R2|R20|R25|R27|

>  <group>
A

>  <Class>
1

>  <ABC>
14.35

>  <ABCGG>
13.1

>  <nAcid>
0

>  <nBase>
1

>  <nAromAtom>
6

>  <nAromBond>
6

>  <nAtom>
42

>  <nHeavyAtom>
20

>  <nSpiro>
0

>  <nBridgehead>
0

>  <nHetero>
6

>  <nN>
3

>  <nO>
2

>  <nF>
0

>  <BalabanJ>
2.42

>  <BertzCT>
461.98

>  <nBonds>
42

>  <nBondsO>
20

>  <nBondsS>
35

>  <nBondsD>
1

>  <nBondsT>
0

>  <nBondsA>
6

>  <nBondsM>
7

>  <nBondsKS>
38

>  <nBondsKD>
4

>  <RNCG>
0.24

>  <RPCG>
0.13

>  <FCSP3>
0.5

>  <SZ>
26.67

>  <Sm>
24.96

>  <Sv>
24.75

>  <Sse>
42.18

>  <Sp>
27.03

>  <Si>
48.01

>  <MZ>
0.63

>  <Mm>
0.59

>  <Mv>
0.59

>  <Mse>
1

>  <Mp>
0.64

>  <Mi>
1.14

>  <NsCH3>
3

>  <NdCH2>
0

>  <NssCH2>
4

>  <NtCH>
0

>  <NdsCH>
0

>  <NaaCH>
2

>  <NsssCH>
0

>  <NddC>
0

>  <NtsC>
0

>  <NdssC>
1

>  <NaasC>
4

>  <NaaaC>
0

>  <NssssC>
0

>  <NsNH3>
0

>  <NsNH2>
1

>  <NssNH2>
0

>  <NdNH>
0

>  <NssNH>
1

>  <NaaNH>
0

>  <NtN>
0

>  <NsssNH>
0

>  <NdsN>
0

>  <NaaN>
0

>  <NsssN>
1

>  <NddsN>
0

>  <NaasN>
0

>  <NssssN>
0

>  <NsOH>
0

>  <NdO>
1

>  <NssO>
1

>  <NaaO>
0

>  <NsF>
0

>  <NsSiH3>
0

>  <NssSiH2>
0

>  <NsssSiH>
0

>  <NssssSi>
0

>  <NsPH2>
0

>  <NssPH>
0

>  <NsssP>
0

>  <NdsssP>
0

>  <NsssssP>
0

>  <NsSH>
0

>  <NdS>
0

>  <NssS>
0

>  <NaaS>
0

>  <NdssS>
0

>  <NddssS>
0

>  <NsCl>
1

>  <NsBr>
0

>  <NsI>
0

>  <fragCpx>
20.06

>  <fMF>
0.14

>  <nHBAcc>
4

>  <nHBDon>
2

>  <Kier1>
18.05

>  <Kier2>
9.11

>  <Lipinski>
1

>  <GhoseFilter>
1

>  <FilterItLogS>
-4.2

>  <VMcGowan>
233.98

>  <LabuteASA>
124.58

>  <PEOE_VSA1>
20.69

>  <PEOE_VSA2>
4.79

>  <PEOE_VSA3>
0

>  <PEOE_VSA4>
0

>  <PEOE_VSA5>
0

>  <PEOE_VSA6>
25.45

>  <PEOE_VSA7>
19.16

>  <PEOE_VSA8>
19.16

>  <PEOE_VSA9>
23.38

>  <PEOE_VSA10>
5.75

>  <PEOE_VSA11>
0

>  <PEOE_VSA12>
0

>  <PEOE_VSA13>
5.91

>  <SMR_VSA1>
9.53

>  <SMR_VSA2>
0

>  <SMR_VSA3>
10.22

>  <SMR_VSA4>
0

>  <SMR_VSA5>
13.85

>  <SMR_VSA6>
39.02

>  <SMR_VSA7>
22.72

>  <SMR_VSA8>
0

>  <SMR_VSA9>
5.75

>  <SlogP_VSA1>
15.79

>  <SlogP_VSA2>
44.1

>  <SlogP_VSA3>
0

>  <SlogP_VSA4>
0

>  <SlogP_VSA5>
24.21

>  <SlogP_VSA6>
12.13

>  <SlogP_VSA7>
5.02

>  <SlogP_VSA8>
0

>  <SlogP_VSA9>
0

>  <SlogP_VSA10>
5.69

>  <SlogP_VSA11>
5.75

>  <EState_VSA1>
0

>  <EState_VSA2>
5.91

>  <EState_VSA3>
28.57

>  <EState_VSA4>
19.63

>  <EState_VSA5>
13.18

>  <EState_VSA6>
6.07

>  <EState_VSA7>
0

>  <EState_VSA8>
24.06

>  <EState_VSA9>
22.07

>  <EState_VSA10>
4.79

>  <VSA_EState1>
5.16

>  <VSA_EState2>
14.37

>  <VSA_EState3>
3.21

>  <VSA_EState4>
6.48

>  <VSA_EState5>
0.21

>  <VSA_EState6>
3.09

>  <VSA_EState7>
0

>  <VSA_EState8>
7.49

>  <VSA_EState9>
1.5

>  <apol>
45.13

>  <bpol>
26.89

>  <nRing>
1

>  <nHRing>
0

>  <naRing>
1

>  <naHRing>
0

>  <nARing 2>
0

>  <nAHRing 2>
0

>  <nFRing>
0

>  <nFHRing>
0

>  <nFaRing>
0

>  <nFaHRing>
0

>  <nFARing 2>
0

>  <nFAHRing 2>
0

>  <nRot>
7

>  <SLogP>
2

>  <SMR>
82.54

>  <TopoPSA(NO)>
67.59

>  <TopoPSA>
67.59

>  <JGI1>
0.23

>  <JGI2>
0.1

>  <JGI3>
0.05

>  <JGI4>
0.05

>  <JGI5>
0.03

>  <Diameter>
11

>  <Radius>
6

>  <TMWC10>
110.85

>  <TSRW10>
52.76

>  <MW>
299.14

>  <AMW>
7.12

>  <WPath>
902

>  <WPol>
29

>  <Zagreb1>
92

>  <Zagreb2>
104

>  <mZagreb2>
4.83

>  <yes>


>  <nAR-cont>
0.336376

>  <nHA-cont>
0.999629945

>  <MWHBN>
0.346907753

>  <MWHBN-cont>
0.6817672

>  <TPSA-cont>
0.528179829

>  <pka_cont>
0.97

>  <yes.1>


>  <BBB_SCORE>
3.900016403

>  <MMFF94 Energy>
44.065

$$$$
Compound 696
Actelion Java MolfileCreator 2.0

  0  0  0  0  0  0              0 V3000
M  V30 BEGIN CTAB
M  V30 COUNTS 26 26 0 0 0
M  V30 BEGIN ATOM
M  V30 1 N 0.6974 0.3099 -2.0935 0
M  V30 2 C 1.3928 -0.3754 -0.9882 0 CFG=2
M  V30 3 C 0.2044 -0.6121 -3.1082 0
M  V30 4 C 0.4683 -1.1734 -0.0314 0
M  V30 5 C 2.2339 0.6539 -0.2225 0
M  V30 6 C -0.4625 -0.3648 0.845 0
M  V30 7 C -0.2308 -0.2661 2.2249 0
M  V30 8 C -1.5754 0.2889 0.3011 0
M  V30 9 C -1.091 0.4731 3.0392 0
M  V30 10 C -2.4347 1.0286 1.1157 0
M  V30 11 C -2.1928 1.1205 2.4845 0
M  V30 12 H 1.3365 0.9707 -2.5354 0
M  V30 13 H 2.1035 -1.0903 -1.4249 0
M  V30 14 H -0.2562 -0.0401 -3.9199 0
M  V30 15 H 1.0153 -1.2076 -3.5393 0
M  V30 16 H -0.5641 -1.282 -2.7133 0
M  V30 17 H -0.1319 -1.8997 -0.5932 0
M  V30 18 H 1.1092 -1.7898 0.6143 0
M  V30 19 H 2.9889 1.1038 -0.8774 0
M  V30 20 H 1.6207 1.4665 0.182 0
M  V30 21 H 2.7642 0.1792 0.61 0
M  V30 22 H 0.6241 -0.7635 2.6764 0
M  V30 23 H -1.7748 0.232 -0.7663 0
M  V30 24 H -0.9004 0.5441 4.1066 0
M  V30 25 H -3.2908 1.5351 0.6785 0
M  V30 26 H -2.8614 1.6974 3.1173 0
M  V30 END ATOM
M  V30 BEGIN BOND
M  V30 1 1 1 2
M  V30 2 1 1 3
M  V30 3 1 2 4
M  V30 4 1 2 5
M  V30 5 1 4 6
M  V30 6 2 6 7
M  V30 7 1 6 8
M  V30 8 1 7 9
M  V30 9 2 8 10
M  V30 10 2 9 11
M  V30 11 1 10 11
M  V30 12 1 1 12
M  V30 13 1 2 13
M  V30 14 1 3 14
M  V30 15 1 3 15
M  V30 16 1 3 16
M  V30 17 1 4 17
M  V30 18 1 4 18
M  V30 19 1 5 19
M  V30 20 1 5 20
M  V30 21 1 5 21
M  V30 22 1 7 22
M  V30 23 1 8 23
M  V30 24 1 9 24
M  V30 25 1 10 25
M  V30 26 1 11 26
M  V30 END BOND
M  V30 BEGIN COLLECTION
M  V30 MDLV30/STERAC1 ATOMS=(1 2)
M  V30 END COLLECTION
M  V30 END CTAB
M  END
>  <Column 1>
835

>  <level_0>
954

>  <index>
954

>  <Unnamed: 0>
954

>  <NO.>
966

>  <Name>
methamphetamine (pervertin)

>  <IUPAC_name>
n-methyl-1-phenylpropan-2-amine

>  <SMILES>
CNC(C)Cc1ccccc1

>  <CID>
1206

>  <logBB>
0.9

>  <BBB+/BBB->
BBB+

>  <Inchi>
InChI=1S/C10H15N/c1-9(11-2)8-10-6-4-3-5-7-10/h3-7-9-11H-8H2-1-2H3

>  <threshold>


>  <reference>
R3|R18|R25|R26|R27|R38|R41|R46|R47|R27|R2|R2|R27|R43|R40|R8|R21|R27|R12|R35|

>  <group>
A

>  <Class>
1

>  <ABC>
7.89

>  <ABCGG>
7.39

>  <nAcid>
0

>  <nBase>
1

>  <nAromAtom>
6

>  <nAromBond>
6

>  <nAtom>
26

>  <nHeavyAtom>
11

>  <nSpiro>
0

>  <nBridgehead>
0

>  <nHetero>
1

>  <nN>
1

>  <nO>
0

>  <nF>
0

>  <BalabanJ>
2.13

>  <BertzCT>
193.29

>  <nBonds>
26

>  <nBondsO>
11

>  <nBondsS>
20

>  <nBondsD>
0

>  <nBondsT>
0

>  <nBondsA>
6

>  <nBondsM>
6

>  <nBondsKS>
23

>  <nBondsKD>
3

>  <RNCG>
0.42

>  <RPCG>
0.16

>  <FCSP3>
0.4

>  <SZ>
13.67

>  <Sm>
12.43

>  <Sv>
14.82

>  <Sse>
25.32

>  <Sp>
16.65

>  <Si>
29.41

>  <MZ>
0.53

>  <Mm>
0.48

>  <Mv>
0.57

>  <Mse>
0.97

>  <Mp>
0.64

>  <Mi>
1.13

>  <NsCH3>
2

>  <NdCH2>
0

>  <NssCH2>
1

>  <NtCH>
0

>  <NdsCH>
0

>  <NaaCH>
5

>  <NsssCH>
1

>  <NddC>
0

>  <NtsC>
0

>  <NdssC>
0

>  <NaasC>
1

>  <NaaaC>
0

>  <NssssC>
0

>  <NsNH3>
0

>  <NsNH2>
0

>  <NssNH2>
0

>  <NdNH>
0

>  <NssNH>
1

>  <NaaNH>
0

>  <NtN>
0

>  <NsssNH>
0

>  <NdsN>
0

>  <NaaN>
0

>  <NsssN>
0

>  <NddsN>
0

>  <NaasN>
0

>  <NssssN>
0

>  <NsOH>
0

>  <NdO>
0

>  <NssO>
0

>  <NaaO>
0

>  <NsF>
0

>  <NsSiH3>
0

>  <NssSiH2>
0

>  <NsssSiH>
0

>  <NssssSi>
0

>  <NsPH2>
0

>  <NssPH>
0

>  <NsssP>
0

>  <NdsssP>
0

>  <NsssssP>
0

>  <NsSH>
0

>  <NdS>
0

>  <NssS>
0

>  <NaaS>
0

>  <NdssS>
0

>  <NddssS>
0

>  <NsCl>
0

>  <NsBr>
0

>  <NsI>
0

>  <fragCpx>
11.01

>  <fMF>
0.23

>  <nHBAcc>
1

>  <nHBDon>
1

>  <Kier1>
9.09

>  <Kier2>
4.79

>  <Lipinski>
1

>  <GhoseFilter>
0

>  <FilterItLogS>
-2.9

>  <VMcGowan>
137.98

>  <LabuteASA>
68.44

>  <PEOE_VSA1>
5.32

>  <PEOE_VSA2>
0

>  <PEOE_VSA3>
0

>  <PEOE_VSA4>
0

>  <PEOE_VSA5>
0

>  <PEOE_VSA6>
30.33

>  <PEOE_VSA7>
25.96

>  <PEOE_VSA8>
6.04

>  <PEOE_VSA9>
0

>  <PEOE_VSA10>
0

>  <PEOE_VSA11>
0

>  <PEOE_VSA12>
0

>  <PEOE_VSA13>
0

>  <SMR_VSA1>
0

>  <SMR_VSA2>
0

>  <SMR_VSA3>
5.32

>  <SMR_VSA4>
0

>  <SMR_VSA5>
19.39

>  <SMR_VSA6>
7.05

>  <SMR_VSA7>
35.9

>  <SMR_VSA8>
0

>  <SMR_VSA9>
0

>  <SlogP_VSA1>
5.32

>  <SlogP_VSA2>
13.09

>  <SlogP_VSA3>
6.42

>  <SlogP_VSA4>
0

>  <SlogP_VSA5>
12.49

>  <SlogP_VSA6>
30.33

>  <SlogP_VSA7>
0

>  <SlogP_VSA8>
0

>  <SlogP_VSA9>
0

>  <SlogP_VSA10>
0

>  <SlogP_VSA11>
0

>  <EState_VSA1>
0

>  <EState_VSA2>
0

>  <EState_VSA3>
6.04

>  <EState_VSA4>
6.42

>  <EState_VSA5>
5.56

>  <EState_VSA6>
0

>  <EState_VSA7>
13.11

>  <EState_VSA8>
36.51

>  <EState_VSA9>
0

>  <EState_VSA10>
0

>  <VSA_EState1>
0

>  <VSA_EState2>
0

>  <VSA_EState3>
3.21

>  <VSA_EState4>
1.4

>  <VSA_EState5>
0

>  <VSA_EState6>
11.1

>  <VSA_EState7>
1.11

>  <VSA_EState8>
2.19

>  <VSA_EState9>
1.99

>  <apol>
27.8

>  <bpol>
15.62

>  <nRing>
1

>  <nHRing>
0

>  <naRing>
1

>  <naHRing>
0

>  <nARing 2>
0

>  <nAHRing 2>
0

>  <nFRing>
0

>  <nFHRing>
0

>  <nFaRing>
0

>  <nFaHRing>
0

>  <nFARing 2>
0

>  <nFAHRing 2>
0

>  <nRot>
3

>  <SLogP>
1.84

>  <SMR>
48.67

>  <TopoPSA(NO)>
12.03

>  <TopoPSA>
12.03

>  <JGI1>
0.18

>  <JGI2>
0.05

>  <JGI3>
0.04

>  <JGI4>
0.04

>  <JGI5>
0.02

>  <Diameter>
7

>  <Radius>
4

>  <TMWC10>
84.75

>  <TSRW10>
39.98

>  <MW>
149.12

>  <AMW>
5.74

>  <WPath>
168

>  <WPol>
11

>  <Zagreb1>
48

>  <Zagreb2>
51

>  <mZagreb2>
2.67

>  <yes>


>  <nAR-cont>
0.336376

>  <nHA-cont>
0.720786536

>  <MWHBN>
0.163780446

>  <MWHBN-cont>
0.963276661

>  <TPSA-cont>
0.91602313

>  <pka_cont>
0.97

>  <yes.1>


>  <BBB_SCORE>
4.819123787

>  <MMFF94 Energy>
34.15

$$$$
Compound 697
Actelion Java MolfileCreator 2.0

  0  0  0  0  0  0              0 V3000
M  V30 BEGIN CTAB
M  V30 COUNTS 40 42 0 0 0
M  V30 BEGIN ATOM
M  V30 1 O 2.7741 -3.4884 4.0442 0
M  V30 2 C 2.1251 -2.7769 3.074 0
M  V30 3 C 4.0952 -3.0755 4.3686 0
M  V30 4 C 2.6319 -1.6806 2.3806 0
M  V30 5 C 0.839 -3.2264 2.7792 0
M  V30 6 C 1.8533 -1.0393 1.4051 0
M  V30 7 C 0.0651 -2.5863 1.8049 0
M  V30 8 C 0.5502 -1.4718 1.0999 0
M  V30 9 C -0.2834 -0.8034 0.0783 0
M  V30 10 N -1.1121 -1.6124 -0.6179 0
M  V30 11 C -0.2384 0.5676 -0.1537 0
M  V30 12 C -1.8833 -1.084 -1.5764 0
M  V30 13 C -1.0577 1.1528 -1.126 0
M  V30 14 C -1.8958 0.2936 -1.8905 0
M  V30 15 C -2.6995 -1.952 -2.2895 0
M  V30 16 N -1.0114 2.5235 -1.3789 0
M  V30 17 C -2.7387 0.7267 -2.9475 0
M  V30 18 C -3.5307 -1.5103 -3.319 0
M  V30 19 C -0.1036 3.4453 -0.7101 0
M  V30 20 C -3.5478 -0.1656 -3.6518 0
M  V30 21 C -0.217 4.8546 -1.2995 0
M  V30 22 O 0.6697 5.7418 -0.627 0
M  V30 23 H 4.7613 -3.1679 3.5045 0
M  V30 24 H 4.471 -3.7417 5.151 0
M  V30 25 H 4.1034 -2.0558 4.7677 0
M  V30 26 H 3.63 -1.2986 2.5656 0
M  V30 27 H 0.4317 -4.0845 3.3078 0
M  V30 28 H 2.2943 -0.2013 0.8695 0
M  V30 29 H -0.9343 -2.9653 1.5964 0
M  V30 30 H 0.4168 1.1807 0.453 0
M  V30 31 H -2.6827 -3.0102 -2.0372 0
M  V30 32 H -1.7804 2.928 -1.896 0
M  V30 33 H -2.7675 1.7702 -3.2445 0
M  V30 34 H -4.1534 -2.2196 -3.857 0
M  V30 35 H 0.9352 3.1095 -0.8161 0
M  V30 36 H -0.323 3.4874 0.3636 0
M  V30 37 H -4.1838 0.1913 -4.4575 0
M  V30 38 H 0.0375 4.8466 -2.3646 0
M  V30 39 H -1.238 5.2361 -1.1911 0
M  V30 40 H 0.5723 6.6143 -1.0463 0
M  V30 END ATOM
M  V30 BEGIN BOND
M  V30 1 1 1 2
M  V30 2 1 1 3
M  V30 3 2 2 4
M  V30 4 1 2 5
M  V30 5 1 4 6
M  V30 6 2 5 7
M  V30 7 2 6 8
M  V30 8 1 8 9
M  V30 9 2 9 10
M  V30 10 1 9 11
M  V30 11 1 10 12
M  V30 12 2 11 13
M  V30 13 1 12 14
M  V30 14 2 12 15
M  V30 15 1 13 16
M  V30 16 2 14 17
M  V30 17 1 15 18
M  V30 18 1 16 19
M  V30 19 1 17 20
M  V30 20 1 19 21
M  V30 21 1 21 22
M  V30 22 1 7 8
M  V30 23 1 13 14
M  V30 24 2 18 20
M  V30 25 1 3 23
M  V30 26 1 3 24
M  V30 27 1 3 25
M  V30 28 1 4 26
M  V30 29 1 5 27
M  V30 30 1 6 28
M  V30 31 1 7 29
M  V30 32 1 11 30
M  V30 33 1 15 31
M  V30 34 1 16 32
M  V30 35 1 17 33
M  V30 36 1 18 34
M  V30 37 1 19 35
M  V30 38 1 19 36
M  V30 39 1 20 37
M  V30 40 1 21 38
M  V30 41 1 21 39
M  V30 42 1 22 40
M  V30 END BOND
M  V30 END CTAB
M  END
>  <Column 1>
836

>  <level_0>
955

>  <index>
955

>  <Unnamed: 0>
955

>  <NO.>
967

>  <Name>
chembl88330

>  <IUPAC_name>
2-[[2-(4-methoxyphenyl)quinolin-4-yl]amino]ethanol

>  <SMILES>
COc1ccc(-c2cc(NCCO)c3ccccc3n2)cc1

>  <CID>
9971682

>  <logBB>
0.9

>  <BBB+/BBB->
BBB+

>  <Inchi>
InChI=1S/C18H18N2O2/c1-22-14-8-6-13(7-9-14)17-12-18(19-10-11-21)15-4-2-3-5-16(15)20-17/h2-9-12-21H-10-11H2-1H3-(H-19-20)

>  <threshold>


>  <reference>
R47|

>  <group>
A

>  <Class>
1

>  <ABC>
16.85

>  <ABCGG>
13.11

>  <nAcid>
0

>  <nBase>
0

>  <nAromAtom>
16

>  <nAromBond>
17

>  <nAtom>
40

>  <nHeavyAtom>
22

>  <nSpiro>
0

>  <nBridgehead>
0

>  <nHetero>
4

>  <nN>
2

>  <nO>
2

>  <nF>
0

>  <BalabanJ>
1.6

>  <BertzCT>
769.64

>  <nBonds>
42

>  <nBondsO>
24

>  <nBondsS>
25

>  <nBondsD>
0

>  <nBondsT>
0

>  <nBondsA>
17

>  <nBondsM>
17

>  <nBondsKS>
34

>  <nBondsKD>
8

>  <RNCG>
0.26

>  <RPCG>
0.11

>  <FCSP3>
0.17

>  <SZ>
26

>  <Sm>
24.51

>  <Sv>
25.82

>  <Sse>
39.98

>  <Sp>
27.46

>  <Si>
44.74

>  <MZ>
0.65

>  <Mm>
0.61

>  <Mv>
0.65

>  <Mse>
1

>  <Mp>
0.69

>  <Mi>
1.12

>  <NsCH3>
1

>  <NdCH2>
0

>  <NssCH2>
2

>  <NtCH>
0

>  <NdsCH>
0

>  <NaaCH>
9

>  <NsssCH>
0

>  <NddC>
0

>  <NtsC>
0

>  <NdssC>
0

>  <NaasC>
4

>  <NaaaC>
2

>  <NssssC>
0

>  <NsNH3>
0

>  <NsNH2>
0

>  <NssNH2>
0

>  <NdNH>
0

>  <NssNH>
1

>  <NaaNH>
0

>  <NtN>
0

>  <NsssNH>
0

>  <NdsN>
0

>  <NaaN>
1

>  <NsssN>
0

>  <NddsN>
0

>  <NaasN>
0

>  <NssssN>
0

>  <NsOH>
1

>  <NdO>
0

>  <NssO>
1

>  <NaaO>
0

>  <NsF>
0

>  <NsSiH3>
0

>  <NssSiH2>
0

>  <NsssSiH>
0

>  <NssssSi>
0

>  <NsPH2>
0

>  <NssPH>
0

>  <NsssP>
0

>  <NdsssP>
0

>  <NsssssP>
0

>  <NsSH>
0

>  <NdS>
0

>  <NssS>
0

>  <NaaS>
0

>  <NdssS>
0

>  <NddssS>
0

>  <NsCl>
0

>  <NsBr>
0

>  <NsI>
0

>  <fragCpx>
114.04

>  <fMF>
0.4

>  <nHBAcc>
4

>  <nHBDon>
2

>  <Kier1>
16.84

>  <Kier2>
8.2

>  <Lipinski>
1

>  <GhoseFilter>
1

>  <FilterItLogS>
-5.26

>  <VMcGowan>
229.2

>  <LabuteASA>
128.94

>  <PEOE_VSA1>
15.16

>  <PEOE_VSA2>
0

>  <PEOE_VSA3>
4.98

>  <PEOE_VSA4>
0

>  <PEOE_VSA5>
0

>  <PEOE_VSA6>
18.2

>  <PEOE_VSA7>
36.4

>  <PEOE_VSA8>
23.18

>  <PEOE_VSA9>
24.93

>  <PEOE_VSA10>
5.75

>  <PEOE_VSA11>
0

>  <PEOE_VSA12>
0

>  <PEOE_VSA13>
0

>  <SMR_VSA1>
9.84

>  <SMR_VSA2>
0

>  <SMR_VSA3>
4.98

>  <SMR_VSA4>
0

>  <SMR_VSA5>
0

>  <SMR_VSA6>
25.58

>  <SMR_VSA7>
54.6

>  <SMR_VSA8>
0

>  <SMR_VSA9>
17.01

>  <SlogP_VSA1>
10.05

>  <SlogP_VSA2>
30.35

>  <SlogP_VSA3>
0

>  <SlogP_VSA4>
0

>  <SlogP_VSA5>
0

>  <SlogP_VSA6>
54.6

>  <SlogP_VSA7>
0

>  <SlogP_VSA8>
22.16

>  <SlogP_VSA9>
0

>  <SlogP_VSA10>
5.69

>  <SlogP_VSA11>
5.75

>  <EState_VSA1>
0

>  <EState_VSA2>
6.61

>  <EState_VSA3>
6.54

>  <EState_VSA4>
33.6

>  <EState_VSA5>
0

>  <EState_VSA6>
7.11

>  <EState_VSA7>
54.6

>  <EState_VSA8>
5.32

>  <EState_VSA9>
14.83

>  <EState_VSA10>
0

>  <VSA_EState1>
5.19

>  <VSA_EState2>
4.73

>  <VSA_EState3>
13.36

>  <VSA_EState4>
3.82

>  <VSA_EState5>
0.82

>  <VSA_EState6>
17.83

>  <VSA_EState7>
0

>  <VSA_EState8>
0.6

>  <VSA_EState9>
1.65

>  <apol>
45.87

>  <bpol>
21.5

>  <nRing>
3

>  <nHRing>
1

>  <naRing>
3

>  <naHRing>
1

>  <nARing 2>
0

>  <nAHRing 2>
0

>  <nFRing>
1

>  <nFHRing>
1

>  <nFaRing>
1

>  <nFaHRing>
1

>  <nFARing 2>
0

>  <nFAHRing 2>
0

>  <nRot>
5

>  <SLogP>
3.31

>  <SMR>
89.31

>  <TopoPSA(NO)>
54.38

>  <TopoPSA>
54.38

>  <JGI1>
0.15

>  <JGI2>
0.07

>  <JGI3>
0.03

>  <JGI4>
0.04

>  <JGI5>
0.03

>  <Diameter>
12

>  <Radius>
6

>  <TMWC10>
119.79

>  <TSRW10>
56.01

>  <MW>
294.14

>  <AMW>
7.35

>  <WPath>
1075

>  <WPol>
34

>  <Zagreb1>
112

>  <Zagreb2>
131

>  <mZagreb2>
5.08

>  <yes>


>  <nAR-cont>
0.336376

>  <nHA-cont>
0.983774276

>  <MWHBN>
0.34984382

>  <MWHBN-cont>
0.670834756

>  <TPSA-cont>
0.620393832

>  <pka_cont>
0.97

>  <yes.1>


>  <BBB_SCORE>
4.052190074

>  <MMFF94 Energy>
93.499

$$$$
Compound 698
Actelion Java MolfileCreator 2.0

  0  0  0  0  0  0              0 V3000
M  V30 BEGIN CTAB
M  V30 COUNTS 59 61 0 0 0
M  V30 BEGIN ATOM
M  V30 1 I 3.5221 -8.5012 1.3597 0
M  V30 2 C 3.5419 -7.1453 2.9739 0
M  V30 3 C 2.9896 -5.8487 2.8958 0
M  V30 4 C 4.1413 -7.6061 4.155 0
M  V30 5 C 3.0606 -5.0459 4.0495 0
M  V30 6 C 2.3371 -5.3427 1.6212 0
M  V30 7 C 4.1995 -6.7867 5.2788 0
M  V30 8 C 3.6586 -5.5082 5.2257 0
M  V30 9 C 1.8104 -3.8991 1.617 0
M  V30 10 C 1.2016 -3.5454 0.2525 0
M  V30 11 N 0.5705 -2.2158 0.2382 0
M  V30 12 C -0.217 -2.0438 -1.0016 0
M  V30 13 C 1.5622 -1.1234 0.3198 0
M  V30 14 C -0.8713 -0.6462 -1.1055 0
M  V30 15 C 0.9088 0.2744 0.2148 0
M  V30 16 N 0.1198 0.4462 -1.0244 0
M  V30 17 C -0.5159 1.777 -1.034 0
M  V30 18 C -1.1515 2.1371 -2.3874 0
M  V30 19 C -1.6721 3.5563 -2.3974 0
M  V30 20 C -2.9581 3.8455 -1.9164 0
M  V30 21 C -0.8675 4.6017 -2.8589 0
M  V30 22 C -3.4406 5.1606 -1.9037 0
M  V30 23 C -1.3393 5.9167 -2.8504 0
M  V30 24 O -4.6848 5.5263 -1.4508 0
M  V30 25 C -2.6228 6.2065 -2.3761 0
M  V30 26 C -5.5481 4.4978 -0.99 0
M  V30 27 O -3.1668 7.4668 -2.3296 0
M  V30 28 C -2.3772 8.5428 -2.8139 0
M  V30 29 H 4.5668 -8.6049 4.2134 0
M  V30 30 H 2.6499 -4.0392 4.0619 0
M  V30 31 H 1.4949 -6.0066 1.3886 0
M  V30 32 H 3.0714 -5.4242 0.8101 0
M  V30 33 H 4.6637 -7.1462 6.1932 0
M  V30 34 H 3.6986 -4.8644 6.1012 0
M  V30 35 H 1.0466 -3.7787 2.3956 0
M  V30 36 H 2.6351 -3.2164 1.8502 0
M  V30 37 H 1.9647 -3.6256 -0.5324 0
M  V30 38 H 0.4361 -4.3001 0.029 0
M  V30 39 H -1.0178 -2.7929 -1.0306 0
M  V30 40 H 0.416 -2.2082 -1.8842 0
M  V30 41 H 2.0878 -1.1631 1.2799 0
M  V30 42 H 2.3156 -1.2269 -0.4724 0
M  V30 43 H -1.3976 -0.6048 -2.065 0
M  V30 44 H -1.6243 -0.5433 -0.3125 0
M  V30 45 H 1.7096 1.0235 0.2424 0
M  V30 46 H 0.2766 0.4397 1.0981 0
M  V30 47 H 0.2521 2.5319 -0.8171 0
M  V30 48 H -1.2628 1.857 -0.2324 0
M  V30 49 H -0.4168 2.0136 -3.1935 0
M  V30 50 H -1.9813 1.4617 -2.6264 0
M  V30 51 H -3.5666 3.0231 -1.5544 0
M  V30 52 H 0.1357 4.4004 -3.2287 0
M  V30 53 H -0.6778 6.6927 -3.2198 0
M  V30 54 H -5.7755 3.7843 -1.7887 0
M  V30 55 H -6.4898 4.9637 -0.6838 0
M  V30 56 H -5.1281 3.9927 -0.1141 0
M  V30 57 H -1.466 8.6632 -2.2188 0
M  V30 58 H -2.9638 9.4609 -2.711 0
M  V30 59 H -2.1438 8.4157 -3.876 0
M  V30 END ATOM
M  V30 BEGIN BOND
M  V30 1 1 1 2
M  V30 2 2 2 3
M  V30 3 1 2 4
M  V30 4 1 3 5
M  V30 5 1 3 6
M  V30 6 2 4 7
M  V30 7 2 5 8
M  V30 8 1 6 9
M  V30 9 1 9 10
M  V30 10 1 10 11
M  V30 11 1 11 12
M  V30 12 1 11 13
M  V30 13 1 12 14
M  V30 14 1 13 15
M  V30 15 1 14 16
M  V30 16 1 16 17
M  V30 17 1 17 18
M  V30 18 1 18 19
M  V30 19 2 19 20
M  V30 20 1 19 21
M  V30 21 1 20 22
M  V30 22 2 21 23
M  V30 23 1 22 24
M  V30 24 2 22 25
M  V30 25 1 24 26
M  V30 26 1 25 27
M  V30 27 1 27 28
M  V30 28 1 7 8
M  V30 29 1 15 16
M  V30 30 1 23 25
M  V30 31 1 4 29
M  V30 32 1 5 30
M  V30 33 1 6 31
M  V30 34 1 6 32
M  V30 35 1 7 33
M  V30 36 1 8 34
M  V30 37 1 9 35
M  V30 38 1 9 36
M  V30 39 1 10 37
M  V30 40 1 10 38
M  V30 41 1 12 39
M  V30 42 1 12 40
M  V30 43 1 13 41
M  V30 44 1 13 42
M  V30 45 1 14 43
M  V30 46 1 14 44
M  V30 47 1 15 45
M  V30 48 1 15 46
M  V30 49 1 17 47
M  V30 50 1 17 48
M  V30 51 1 18 49
M  V30 52 1 18 50
M  V30 53 1 20 51
M  V30 54 1 21 52
M  V30 55 1 23 53
M  V30 56 1 26 54
M  V30 57 1 26 55
M  V30 58 1 26 56
M  V30 59 1 28 57
M  V30 60 1 28 58
M  V30 61 1 28 59
M  V30 END BOND
M  V30 END CTAB
M  END
>  <Column 1>
837

>  <level_0>
956

>  <index>
956

>  <Unnamed: 0>
956

>  <NO.>
968

>  <Name>
1-[2-(3-4-dimethoxyphenyl)ethyl]-4-[3-(2-iodophenyl)propyl]piperazine

>  <IUPAC_name>
1-[2-(3-4-dimethoxyphenyl)ethyl]-4-[3-(2-iodophenyl)propyl]piperazine

>  <SMILES>
COc1ccc(CCN2CCN(CCCc3ccccc3I)CC2)cc1OC

>  <CID>
11627361

>  <logBB>
0.9

>  <BBB+/BBB->
BBB+

>  <Inchi>
InChI=1S/C23H31IN2O2/c1-27-22-10-9-19(18-23(22)28-2)11-13-26-16-14-25(15-17-26)12-5-7-20-6-3-4-8-21(20)24/h3-4-6-8-10-18H-5-7-11-17H2-1-2H3

>  <threshold>


>  <reference>
R20|

>  <group>
A

>  <Class>
1

>  <ABC>
21.24

>  <ABCGG>
15.29

>  <nAcid>
0

>  <nBase>
2

>  <nAromAtom>
12

>  <nAromBond>
12

>  <nAtom>
59

>  <nHeavyAtom>
28

>  <nSpiro>
0

>  <nBridgehead>
0

>  <nHetero>
5

>  <nN>
2

>  <nO>
2

>  <nF>
0

>  <BalabanJ>
1.26

>  <BertzCT>
745.13

>  <nBonds>
61

>  <nBondsO>
30

>  <nBondsS>
49

>  <nBondsD>
0

>  <nBondsT>
0

>  <nBondsA>
12

>  <nBondsM>
12

>  <nBondsKS>
55

>  <nBondsKD>
6

>  <RNCG>
0.23

>  <RPCG>
0.08

>  <FCSP3>
0.48

>  <SZ>
42

>  <Sm>
41.16

>  <Sv>
35.92

>  <Sse>
58.26

>  <Sp>
40.86

>  <Si>
66.37

>  <MZ>
0.71

>  <Mm>
0.7

>  <Mv>
0.61

>  <Mse>
0.99

>  <Mp>
0.69

>  <Mi>
1.12

>  <NsCH3>
2

>  <NdCH2>
0

>  <NssCH2>
9

>  <NtCH>
0

>  <NdsCH>
0

>  <NaaCH>
7

>  <NsssCH>
0

>  <NddC>
0

>  <NtsC>
0

>  <NdssC>
0

>  <NaasC>
5

>  <NaaaC>
0

>  <NssssC>
0

>  <NsNH3>
0

>  <NsNH2>
0

>  <NssNH2>
0

>  <NdNH>
0

>  <NssNH>
0

>  <NaaNH>
0

>  <NtN>
0

>  <NsssNH>
0

>  <NdsN>
0

>  <NaaN>
0

>  <NsssN>
2

>  <NddsN>
0

>  <NaasN>
0

>  <NssssN>
0

>  <NsOH>
0

>  <NdO>
0

>  <NssO>
2

>  <NaaO>
0

>  <NsF>
0

>  <NsSiH3>
0

>  <NssSiH2>
0

>  <NsssSiH>
0

>  <NssssSi>
0

>  <NsPH2>
0

>  <NssPH>
0

>  <NsssP>
0

>  <NdsssP>
0

>  <NsssssP>
0

>  <NsSH>
0

>  <NdS>
0

>  <NssS>
0

>  <NaaS>
0

>  <NdssS>
0

>  <NddssS>
0

>  <NsCl>
0

>  <NsBr>
0

>  <NsI>
1

>  <fragCpx>
144.05

>  <fMF>
0.39

>  <nHBAcc>
4

>  <nHBDon>
0

>  <Kier1>
22.68

>  <Kier2>
12

>  <Lipinski>
1

>  <GhoseFilter>
0

>  <FilterItLogS>
-6.69

>  <VMcGowan>
334.08

>  <LabuteASA>
182.51

>  <PEOE_VSA1>
19.27

>  <PEOE_VSA2>
0

>  <PEOE_VSA3>
0

>  <PEOE_VSA4>
0

>  <PEOE_VSA5>
0

>  <PEOE_VSA6>
24.27

>  <PEOE_VSA7>
77.72

>  <PEOE_VSA8>
36.29

>  <PEOE_VSA9>
14.22

>  <PEOE_VSA10>
0

>  <PEOE_VSA11>
11.5

>  <PEOE_VSA12>
0

>  <PEOE_VSA13>
0

>  <SMR_VSA1>
9.47

>  <SMR_VSA2>
0

>  <SMR_VSA3>
9.8

>  <SMR_VSA4>
0

>  <SMR_VSA5>
19.26

>  <SMR_VSA6>
53.49

>  <SMR_VSA7>
57.16

>  <SMR_VSA8>
0

>  <SMR_VSA9>
11.5

>  <SlogP_VSA1>
9.47

>  <SlogP_VSA2>
63.29

>  <SlogP_VSA3>
12.84

>  <SlogP_VSA4>
3.57

>  <SlogP_VSA5>
17.55

>  <SlogP_VSA6>
42.46

>  <SlogP_VSA7>
0

>  <SlogP_VSA8>
0

>  <SlogP_VSA9>
0

>  <SlogP_VSA10>
0

>  <SlogP_VSA11>
11.5

>  <EState_VSA1>
0

>  <EState_VSA2>
0

>  <EState_VSA3>
0

>  <EState_VSA4>
37.55

>  <EState_VSA5>
47.17

>  <EState_VSA6>
14.22

>  <EState_VSA7>
6.07

>  <EState_VSA8>
68.79

>  <EState_VSA9>
9.47

>  <EState_VSA10>
0

>  <VSA_EState1>
12.13

>  <VSA_EState2>
5.19

>  <VSA_EState3>
0

>  <VSA_EState4>
2.79

>  <VSA_EState5>
1.61

>  <VSA_EState6>
14.96

>  <VSA_EState7>
3.47

>  <VSA_EState8>
6.99

>  <VSA_EState9>
3.37

>  <apol>
68.23

>  <bpol>
41.67

>  <nRing>
3

>  <nHRing>
1

>  <naRing>
2

>  <naHRing>
0

>  <nARing 2>
1

>  <nAHRing 2>
1

>  <nFRing>
0

>  <nFHRing>
0

>  <nFaRing>
0

>  <nFaHRing>
0

>  <nFARing 2>
0

>  <nFAHRing 2>
0

>  <nRot>
9

>  <SLogP>
4.1

>  <SMR>
123.61

>  <TopoPSA(NO)>
24.94

>  <TopoPSA>
24.94

>  <JGI1>
0.17

>  <JGI2>
0.07

>  <JGI3>
0.03

>  <JGI4>
0.04

>  <JGI5>
0.02

>  <Diameter>
18

>  <Radius>
9

>  <TMWC10>
132.27

>  <TSRW10>
62.74

>  <MW>
494.14

>  <AMW>
8.38

>  <WPath>
2642

>  <WPol>
40

>  <Zagreb1>
138

>  <Zagreb2>
157

>  <mZagreb2>
6.47

>  <yes>


>  <nAR-cont>
0.816016

>  <nHA-cont>
0.82432561

>  <MWHBN>
0.179943012

>  <MWHBN-cont>
0.987102223

>  <TPSA-cont>
0.825903313

>  <pka_cont>
0.97

>  <yes.1>


>  <BBB_SCORE>
5.257801572

>  <MMFF94 Energy>
147.34

$$$$
Compound 699
Actelion Java MolfileCreator 2.0

  0  0  0  0  0  0              0 V3000
M  V30 BEGIN CTAB
M  V30 COUNTS 55 57 0 0 0
M  V30 BEGIN ATOM
M  V30 1 O 0.5521 3.9492 -0.7099 0
M  V30 2 C 0.3616 3.2557 0.4561 0
M  V30 3 C 1.1503 5.2349 -0.614 0
M  V30 4 C -0.0141 1.9083 0.3281 0
M  V30 5 C 0.4954 3.8091 1.7338 0
M  V30 6 C -0.2382 1.1413 1.4912 0
M  V30 7 C -0.172 1.2334 -1.0204 0
M  V30 8 C 0.2709 3.0343 2.8779 0
M  V30 9 C -0.0974 1.6897 2.7726 0
M  V30 10 N 0.9535 0.334 -1.2903 0
M  V30 11 C -0.3267 0.8606 4.0231 0
M  V30 12 C 0.7404 -0.6206 -2.3948 0
M  V30 13 C -1.7601 0.3271 4.0932 0
M  V30 14 C 0.685 -0.2834 4.1282 0
M  V30 15 C -0.4123 -1.6752 -2.1957 0
M  V30 16 C 0.5704 0.0904 -3.7485 0
M  V30 17 N -0.4831 -2.632 -3.3174 0
M  V30 18 C -0.3176 -2.4394 -0.8789 0
M  V30 19 C 0.4496 -0.9348 -4.875 0
M  V30 20 C -0.6627 -1.9425 -4.5948 0
M  V30 21 C -1.4525 -2.5478 -0.0572 0
M  V30 22 C 0.872 -3.0549 -0.4566 0
M  V30 23 C -1.3915 -3.2236 1.163 0
M  V30 24 C 0.9315 -3.7298 0.7648 0
M  V30 25 C -0.1983 -3.8106 1.5756 0
M  V30 26 H 0.4741 5.946 -0.1285 0
M  V30 27 H 1.334 5.5942 -1.6312 0
M  V30 28 H 2.1154 5.1894 -0.0982 0
M  V30 29 H 0.7701 4.8486 1.8782 0
M  V30 30 H -0.5213 0.0952 1.3846 0
M  V30 31 H -0.2587 1.9782 -1.8177 0
M  V30 32 H -1.127 0.6966 -0.9974 0
M  V30 33 H 0.3882 3.4973 3.8554 0
M  V30 34 H 1.1452 -0.1977 -0.4401 0
M  V30 35 H -0.1798 1.5045 4.9006 0
M  V30 36 H 1.686 -1.1763 -2.4654 0
M  V30 37 H -1.9756 -0.3795 3.2844 0
M  V30 38 H -1.9305 -0.1932 5.0421 0
M  V30 39 H -2.4861 1.145 4.0244 0
M  V30 40 H 0.572 -1.0067 3.3134 0
M  V30 41 H 1.7117 0.0977 4.0953 0
M  V30 42 H 0.5582 -0.824 5.0725 0
M  V30 43 H -1.3658 -1.1297 -2.1875 0
M  V30 44 H -0.3295 0.7174 -3.7478 0
M  V30 45 H 1.4247 0.7492 -3.945 0
M  V30 46 H 0.3814 -3.1711 -3.3401 0
M  V30 47 H 0.2495 -0.4187 -5.8209 0
M  V30 48 H 1.4044 -1.462 -4.9946 0
M  V30 49 H -0.6851 -2.6891 -5.3963 0
M  V30 50 H -1.6388 -1.4421 -4.61 0
M  V30 51 H -2.3968 -2.1045 -0.3669 0
M  V30 52 H 1.7663 -3.015 -1.0732 0
M  V30 53 H -2.2781 -3.2962 1.7875 0
M  V30 54 H 1.8606 -4.1972 1.0811 0
M  V30 55 H -0.151 -4.3392 2.5239 0
M  V30 END ATOM
M  V30 BEGIN BOND
M  V30 1 1 1 2
M  V30 2 1 1 3
M  V30 3 2 2 4
M  V30 4 1 2 5
M  V30 5 1 4 6
M  V30 6 1 4 7
M  V30 7 2 5 8
M  V30 8 2 6 9
M  V30 9 1 7 10
M  V30 10 1 9 11
M  V30 11 1 10 12
M  V30 12 1 11 13
M  V30 13 1 11 14
M  V30 14 1 12 15
M  V30 15 1 12 16
M  V30 16 1 15 17
M  V30 17 1 15 18
M  V30 18 1 16 19
M  V30 19 1 17 20
M  V30 20 2 18 21
M  V30 21 1 18 22
M  V30 22 1 21 23
M  V30 23 2 22 24
M  V30 24 2 23 25
M  V30 25 1 8 9
M  V30 26 1 19 20
M  V30 27 1 24 25
M  V30 28 1 3 26
M  V30 29 1 3 27
M  V30 30 1 3 28
M  V30 31 1 5 29
M  V30 32 1 6 30
M  V30 33 1 7 31
M  V30 34 1 7 32
M  V30 35 1 8 33
M  V30 36 1 10 34
M  V30 37 1 11 35
M  V30 38 1 12 36
M  V30 39 1 13 37
M  V30 40 1 13 38
M  V30 41 1 13 39
M  V30 42 1 14 40
M  V30 43 1 14 41
M  V30 44 1 14 42
M  V30 45 1 15 43
M  V30 46 1 16 44
M  V30 47 1 16 45
M  V30 48 1 17 46
M  V30 49 1 19 47
M  V30 50 1 19 48
M  V30 51 1 20 49
M  V30 52 1 20 50
M  V30 53 1 21 51
M  V30 54 1 22 52
M  V30 55 1 23 53
M  V30 56 1 24 54
M  V30 57 1 25 55
M  V30 END BOND
M  V30 END CTAB
M  END
>  <Column 1>
840

>  <level_0>
961

>  <index>
961

>  <Unnamed: 0>
961

>  <NO.>
973

>  <Name>
pfizer compound 8

>  <IUPAC_name>
n-[(2-methoxy-5-propan-2-ylphenyl)methyl]-2-phenylpiperidin-3-amine

>  <SMILES>
COc1ccc(C(C)C)cc1CNC1CCCNC1c1ccccc1

>  <CID>
9902443

>  <logBB>
0.92

>  <BBB+/BBB->
BBB+

>  <Inchi>
InChI=1S/C22H30N2O/c1-16(2)18-11-12-21(25-3)19(14-18)15-24-20-10-7-13-23-22(20)17-8-5-4-6-9-17/h4-6-8-9-11-12-14-16-20-22-24H-7-10-13-15H2-1-3H3

>  <threshold>


>  <reference>
R25|R46|R47|R4|R2|R2|R8|R27|R40|

>  <group>
A

>  <Class>
1

>  <ABC>
19.15

>  <ABCGG>
15.3

>  <nAcid>
0

>  <nBase>
2

>  <nAromAtom>
12

>  <nAromBond>
12

>  <nAtom>
55

>  <nHeavyAtom>
25

>  <nSpiro>
0

>  <nBridgehead>
0

>  <nHetero>
3

>  <nN>
2

>  <nO>
1

>  <nF>
0

>  <BalabanJ>
1.55

>  <BertzCT>
668.98

>  <nBonds>
57

>  <nBondsO>
27

>  <nBondsS>
45

>  <nBondsD>
0

>  <nBondsT>
0

>  <nBondsA>
12

>  <nBondsM>
12

>  <nBondsKS>
51

>  <nBondsKD>
6

>  <RNCG>
0.27

>  <RPCG>
0.07

>  <FCSP3>
0.45

>  <SZ>
30.67

>  <Sm>
28.18

>  <Sv>
32.36

>  <Sse>
53.97

>  <Sp>
35.78

>  <Si>
62.02

>  <MZ>
0.56

>  <Mm>
0.51

>  <Mv>
0.59

>  <Mse>
0.98

>  <Mp>
0.65

>  <Mi>
1.13

>  <NsCH3>
3

>  <NdCH2>
0

>  <NssCH2>
4

>  <NtCH>
0

>  <NdsCH>
0

>  <NaaCH>
8

>  <NsssCH>
3

>  <NddC>
0

>  <NtsC>
0

>  <NdssC>
0

>  <NaasC>
4

>  <NaaaC>
0

>  <NssssC>
0

>  <NsNH3>
0

>  <NsNH2>
0

>  <NssNH2>
0

>  <NdNH>
0

>  <NssNH>
2

>  <NaaNH>
0

>  <NtN>
0

>  <NsssNH>
0

>  <NdsN>
0

>  <NaaN>
0

>  <NsssN>
0

>  <NddsN>
0

>  <NaasN>
0

>  <NssssN>
0

>  <NsOH>
0

>  <NdO>
0

>  <NssO>
1

>  <NaaO>
0

>  <NsF>
0

>  <NsSiH3>
0

>  <NssSiH2>
0

>  <NsssSiH>
0

>  <NssssSi>
0

>  <NsPH2>
0

>  <NssPH>
0

>  <NsssP>
0

>  <NdsssP>
0

>  <NsssssP>
0

>  <NsSH>
0

>  <NdS>
0

>  <NssS>
0

>  <NaaS>
0

>  <NdssS>
0

>  <NddssS>
0

>  <NsCl>
0

>  <NsBr>
0

>  <NsI>
0

>  <fragCpx>
129.03

>  <fMF>
0.36

>  <nHBAcc>
3

>  <nHBDon>
2

>  <Kier1>
19.75

>  <Kier2>
9.8

>  <Lipinski>
1

>  <GhoseFilter>
1

>  <FilterItLogS>
-6.06

>  <VMcGowan>
288.29

>  <LabuteASA>
151.35

>  <PEOE_VSA1>
15.37

>  <PEOE_VSA2>
0

>  <PEOE_VSA3>
0

>  <PEOE_VSA4>
0

>  <PEOE_VSA5>
0

>  <PEOE_VSA6>
56.31

>  <PEOE_VSA7>
42.5

>  <PEOE_VSA8>
24.19

>  <PEOE_VSA9>
7.11

>  <PEOE_VSA10>
5.75

>  <PEOE_VSA11>
0

>  <PEOE_VSA12>
0

>  <PEOE_VSA13>
0

>  <SMR_VSA1>
4.74

>  <SMR_VSA2>
0

>  <SMR_VSA3>
10.63

>  <SMR_VSA4>
0

>  <SMR_VSA5>
51.24

>  <SMR_VSA6>
13.65

>  <SMR_VSA7>
65.22

>  <SMR_VSA8>
0

>  <SMR_VSA9>
5.75

>  <SlogP_VSA1>
15.37

>  <SlogP_VSA2>
19.7

>  <SlogP_VSA3>
6.54

>  <SlogP_VSA4>
0

>  <SlogP_VSA5>
55.34

>  <SlogP_VSA6>
48.53

>  <SlogP_VSA7>
0

>  <SlogP_VSA8>
0

>  <SlogP_VSA9>
0

>  <SlogP_VSA10>
0

>  <SlogP_VSA11>
5.75

>  <EState_VSA1>
0

>  <EState_VSA2>
0

>  <EState_VSA3>
18

>  <EState_VSA4>
18.84

>  <EState_VSA5>
29.53

>  <EState_VSA6>
7.11

>  <EState_VSA7>
0

>  <EState_VSA8>
73.01

>  <EState_VSA9>
4.74

>  <EState_VSA10>
0

>  <VSA_EState1>
5.58

>  <VSA_EState2>
0

>  <VSA_EState3>
7.47

>  <VSA_EState4>
3.97

>  <VSA_EState5>
1.5

>  <VSA_EState6>
18.12

>  <VSA_EState7>
2.41

>  <VSA_EState8>
6.38

>  <VSA_EState9>
1.75

>  <apol>
59.75

>  <bpol>
32.97

>  <nRing>
3

>  <nHRing>
1

>  <naRing>
2

>  <naHRing>
0

>  <nARing 2>
1

>  <nAHRing 2>
1

>  <nFRing>
0

>  <nFHRing>
0

>  <nFaRing>
0

>  <nFaHRing>
0

>  <nFARing 2>
0

>  <nFAHRing 2>
0

>  <nRot>
6

>  <SLogP>
4.4

>  <SMR>
104.13

>  <TopoPSA(NO)>
33.29

>  <TopoPSA>
33.29

>  <JGI1>
0.15

>  <JGI2>
0.08

>  <JGI3>
0.04

>  <JGI4>
0.03

>  <JGI5>
0.02

>  <Diameter>
12

>  <Radius>
6

>  <TMWC10>
126.31

>  <TSRW10>
59.48

>  <MW>
338.24

>  <AMW>
6.15

>  <WPath>
1566

>  <WPol>
38

>  <Zagreb1>
126

>  <Zagreb2>
146

>  <mZagreb2>
5.69

>  <yes>


>  <nAR-cont>
0.816016

>  <nHA-cont>
0.921834225

>  <MWHBN>
0.271867643

>  <MWHBN-cont>
0.915823777

>  <TPSA-cont>
0.767615128

>  <pka_cont>
0.97

>  <yes.1>


>  <BBB_SCORE>
5.131816146

>  <MMFF94 Energy>
79.417

$$$$
Compound 700
Actelion Java MolfileCreator 2.0

  0  0  0  0  0  0              0 V3000
M  V30 BEGIN CTAB
M  V30 COUNTS 65 69 0 0 0
M  V30 BEGIN ATOM
M  V30 1 Cl -2.3969 -4.7122 5.2272 0
M  V30 2 C -2.3492 -3.0202 5.538 0
M  V30 3 C -2.4522 -2.1194 4.4793 0
M  V30 4 C -2.2169 -2.5636 6.8495 0
M  V30 5 C -2.4075 -0.7433 4.7364 0
M  V30 6 C -2.1928 -1.193 7.1091 0
M  V30 7 O -2.548 0.2024 3.7698 0
M  V30 8 C -2.2956 -0.284 6.0549 0
M  V30 9 C -2.7373 -0.487 2.5279 0
M  V30 10 C -3.2671 0.5231 1.5059 0
M  V30 11 C -1.4072 -1.0728 2.0432 0
M  V30 12 C -2.2125 1.5744 1.1521 0
M  V30 13 C -0.4088 0.0284 1.6799 0
M  V30 14 N -0.9883 0.9257 0.6759 0
M  V30 15 C -0.0138 1.8806 0.1467 0
M  V30 16 C 1.0049 1.3159 -0.8378 0
M  V30 17 C 2.1449 2.5816 -1.4159 0
M  V30 18 N 3.329 2.0203 -2.5295 0
M  V30 19 C 3.0725 3.3017 0.0026 0
M  V30 20 S 2.9818 0.749 -3.9826 0
M  V30 21 C 4.8901 2.6686 -2.2092 0
M  V30 22 C 4.8667 3.1665 -0.4369 0
M  V30 23 O 1.8643 1.8661 -4.5956 0
M  V30 24 O 3.7594 0.8114 -5.5881 0
M  V30 25 C 1.615 -0.6242 -3.7368 0
M  V30 26 C 0.0557 -0.4048 -4.1055 0
M  V30 27 C 1.9948 -2.0721 -3.1572 0
M  V30 28 C -1.0406 -1.5534 -3.8978 0
M  V30 29 C 0.9063 -3.2178 -2.9355 0
M  V30 30 N -2.5831 -1.5046 -4.2063 0
M  V30 31 C -0.6202 -2.9707 -3.3061 0
M  V30 32 C -3.1169 -2.9244 -3.7908 0
M  V30 33 C -1.9816 -3.8586 -3.2389 0
M  V30 34 H -2.5701 -2.4888 3.464 0
M  V30 35 H -2.1369 -3.2701 7.6721 0
M  V30 36 H -2.095 -0.8347 8.1314 0
M  V30 37 H -2.2793 0.7838 6.2627 0
M  V30 38 H -3.4826 -1.2884 2.6325 0
M  V30 39 H -3.5762 -0.0052 0.5951 0
M  V30 40 H -4.1516 1.0326 1.907 0
M  V30 41 H -1.5868 -1.7072 1.1659 0
M  V30 42 H -0.9629 -1.708 2.8183 0
M  V30 43 H -2.0249 2.2112 2.0257 0
M  V30 44 H -2.628 2.2162 0.3653 0
M  V30 45 H -0.1116 0.5678 2.588 0
M  V30 46 H 0.4911 -0.453 1.278 0
M  V30 47 H 0.516 2.3498 0.9902 0
M  V30 48 H -0.5559 2.7134 -0.3275 0
M  V30 49 H 0.4741 0.8846 -1.6986 0
M  V30 50 H 1.554 0.4866 -0.3689 0
M  V30 51 H 1.5371 3.4645 -1.8843 0
M  V30 52 H 2.8139 4.4221 0.092 0
M  V30 53 H 2.8805 2.7735 1.0002 0
M  V30 54 H 3.8861 -0.0044 -3.4794 0
M  V30 55 H 5.0001 3.6753 -2.7966 0
M  V30 56 H 5.7665 2.0118 -2.4393 0
M  V30 57 H 5.3362 4.1954 -0.279 0
M  V30 58 H 5.3441 2.3624 0.2212 0
M  V30 59 H 3.3549 1.2654 -6.3584 0
M  V30 60 H -0.2806 0.5406 -4.5127 0
M  V30 61 H 3.0151 -2.3078 -2.8814 0
M  V30 62 H 1.2115 -4.1731 -2.5262 0
M  V30 63 H -3.1278 -0.7247 -4.5915 0
M  V30 64 H -4.1549 -3.2259 -3.8758 0
M  V30 65 H -2.1092 -4.8786 -2.8924 0
M  V30 END ATOM
M  V30 BEGIN BOND
M  V30 1 1 1 2
M  V30 2 2 2 3
M  V30 3 1 2 4
M  V30 4 1 3 5
M  V30 5 2 4 6
M  V30 6 1 5 7
M  V30 7 2 5 8
M  V30 8 1 7 9
M  V30 9 1 9 10
M  V30 10 1 9 11
M  V30 11 1 10 12
M  V30 12 1 11 13
M  V30 13 1 12 14
M  V30 14 1 14 15
M  V30 15 1 15 16
M  V30 16 1 16 17
M  V30 17 1 17 18
M  V30 18 1 17 19
M  V30 19 1 18 20
M  V30 20 1 18 21
M  V30 21 1 19 22
M  V30 22 2 20 23
M  V30 23 1 20 24
M  V30 24 1 20 25
M  V30 25 2 25 26
M  V30 26 1 25 27
M  V30 27 1 26 28
M  V30 28 2 27 29
M  V30 29 1 28 30
M  V30 30 2 28 31
M  V30 31 1 30 32
M  V30 32 1 31 33
M  V30 33 1 6 8
M  V30 34 1 13 14
M  V30 35 1 21 22
M  V30 36 1 29 31
M  V30 37 2 32 33
M  V30 38 1 3 34
M  V30 39 1 4 35
M  V30 40 1 6 36
M  V30 41 1 8 37
M  V30 42 1 9 38
M  V30 43 1 10 39
M  V30 44 1 10 40
M  V30 45 1 11 41
M  V30 46 1 11 42
M  V30 47 1 12 43
M  V30 48 1 12 44
M  V30 49 1 13 45
M  V30 50 1 13 46
M  V30 51 1 15 47
M  V30 52 1 15 48
M  V30 53 1 16 49
M  V30 54 1 16 50
M  V30 55 1 17 51
M  V30 56 1 19 52
M  V30 57 1 19 53
M  V30 58 1 20 54
M  V30 59 1 21 55
M  V30 60 1 21 56
M  V30 61 1 22 57
M  V30 62 1 22 58
M  V30 63 1 24 59
M  V30 64 1 26 60
M  V30 65 1 27 61
M  V30 66 1 29 62
M  V30 67 1 30 63
M  V30 68 1 32 64
M  V30 69 1 33 65
M  V30 END BOND
M  V30 END CTAB
M  END
>  <Column 1>
842

>  <level_0>
963

>  <index>
963

>  <Unnamed: 0>
963

>  <NO.>
975

>  <Name>
s119

>  <IUPAC_name>


>  <SMILES>
O=[SH](O)(c1ccc2cc[nH]c2c1)N1CCCC1CCN1CCC(Oc2cccc(Cl)c2)CC1

>  <CID>


>  <logBB>
0.92

>  <BBB+/BBB->
BBB+

>  <Inchi>
InChI=1S/C25H32ClN3O3S/c26-20-3-1-5-23(17-20)32-22-10-15-28(16-11-22)14-9-21-4-2-13-29(21)33(30-31)24-7-6-19-8-12-27-25(19)18-24/h1-3-5-8-12-17-18-21-22-27-33H-2-4-9-11-13-16H2-(H-30-31)

>  <threshold>


>  <reference>
R45|

>  <group>
A

>  <Class>
1

>  <ABC>
26.39

>  <ABCGG>
19.68

>  <nAcid>
1

>  <nBase>
1

>  <nAromAtom>
15

>  <nAromBond>
16

>  <nAtom>
65

>  <nHeavyAtom>
33

>  <nSpiro>
0

>  <nBridgehead>
0

>  <nHetero>
8

>  <nN>
3

>  <nO>
3

>  <nF>
0

>  <BalabanJ>
1.06

>  <BertzCT>
1144.64

>  <nBonds>
69

>  <nBondsO>
37

>  <nBondsS>
52

>  <nBondsD>
1

>  <nBondsT>
0

>  <nBondsA>
16

>  <nBondsM>
17

>  <nBondsKS>
61

>  <nBondsKD>
8

>  <RNCG>
0.2

>  <RPCG>
0.1

>  <FCSP3>
0.44

>  <SZ>
43.33

>  <Sm>
40.8

>  <Sv>
40.37

>  <Sse>
65.03

>  <Sp>
44.24

>  <Si>
73.22

>  <MZ>
0.67

>  <Mm>
0.63

>  <Mv>
0.62

>  <Mse>
1

>  <Mp>
0.68

>  <Mi>
1.13

>  <NsCH3>
0

>  <NdCH2>
0

>  <NssCH2>
9

>  <NtCH>
0

>  <NdsCH>
0

>  <NaaCH>
9

>  <NsssCH>
2

>  <NddC>
0

>  <NtsC>
0

>  <NdssC>
0

>  <NaasC>
3

>  <NaaaC>
2

>  <NssssC>
0

>  <NsNH3>
0

>  <NsNH2>
0

>  <NssNH2>
0

>  <NdNH>
0

>  <NssNH>
0

>  <NaaNH>
1

>  <NtN>
0

>  <NsssNH>
0

>  <NdsN>
0

>  <NaaN>
0

>  <NsssN>
2

>  <NddsN>
0

>  <NaasN>
0

>  <NssssN>
0

>  <NsOH>
1

>  <NdO>
1

>  <NssO>
1

>  <NaaO>
0

>  <NsF>
0

>  <NsSiH3>
0

>  <NssSiH2>
0

>  <NsssSiH>
0

>  <NssssSi>
0

>  <NsPH2>
0

>  <NssPH>
0

>  <NsssP>
0

>  <NdsssP>
0

>  <NsssssP>
0

>  <NsSH>
0

>  <NdS>
0

>  <NssS>
0

>  <NaaS>
0

>  <NdssS>
0

>  <NddssS>
0

>  <NsCl>
1

>  <NsBr>
0

>  <NsI>
0

>  <fragCpx>
313.08

>  <fMF>
0.46

>  <nHBAcc>
3

>  <nHBDon>
3

>  <Kier1>
24.68

>  <Kier2>
10.95

>  <Lipinski>
1

>  <GhoseFilter>
0

>  <FilterItLogS>
-5.6

>  <VMcGowan>
359.15

>  <LabuteASA>
200.8

>  <PEOE_VSA1>
14.62

>  <PEOE_VSA2>
4.55

>  <PEOE_VSA3>
4.31

>  <PEOE_VSA4>
4.21

>  <PEOE_VSA5>
10.4

>  <PEOE_VSA6>
23.73

>  <PEOE_VSA7>
80.43

>  <PEOE_VSA8>
42.41

>  <PEOE_VSA9>
4.9

>  <PEOE_VSA10>
11.85

>  <PEOE_VSA11>
0

>  <PEOE_VSA12>
0

>  <PEOE_VSA13>
0

>  <SMR_VSA1>
13.5

>  <SMR_VSA2>
0

>  <SMR_VSA3>
14.19

>  <SMR_VSA4>
0

>  <SMR_VSA5>
49.15

>  <SMR_VSA6>
26.18

>  <SMR_VSA7>
59.75

>  <SMR_VSA8>
0

>  <SMR_VSA9>
5.75

>  <SlogP_VSA1>
4.74

>  <SlogP_VSA2>
61.28

>  <SlogP_VSA3>
10.4

>  <SlogP_VSA4>
0

>  <SlogP_VSA5>
32.1

>  <SlogP_VSA6>
59.62

>  <SlogP_VSA7>
5.02

>  <SlogP_VSA8>
10.9

>  <SlogP_VSA9>
0

>  <SlogP_VSA10>
0

>  <SlogP_VSA11>
5.75

>  <EState_VSA1>
10.4

>  <EState_VSA2>
12.15

>  <EState_VSA3>
16.46

>  <EState_VSA4>
68.39

>  <EState_VSA5>
0

>  <EState_VSA6>
6.07

>  <EState_VSA7>
52.97

>  <EState_VSA8>
9.88

>  <EState_VSA9>
16.34

>  <EState_VSA10>
8.76

>  <VSA_EState1>
32.6

>  <VSA_EState2>
6.13

>  <VSA_EState3>
1.75

>  <VSA_EState4>
0.9

>  <VSA_EState5>
0.83

>  <VSA_EState6>
15.25

>  <VSA_EState7>
6.89

>  <VSA_EState8>
3.59

>  <VSA_EState9>
-3.59

>  <apol>
73.87

>  <bpol>
45.36

>  <nRing>
5

>  <nHRing>
3

>  <naRing>
3

>  <naHRing>
1

>  <nARing 2>
2

>  <nAHRing 2>
2

>  <nFRing>
1

>  <nFHRing>
1

>  <nFaRing>
1

>  <nFaHRing>
1

>  <nFARing 2>
0

>  <nFAHRing 2>
0

>  <nRot>
7

>  <SLogP>
4.98

>  <SMR>
134.62

>  <TopoPSA(NO)>
68.8

>  <TopoPSA>
68.8

>  <JGI1>
0.2

>  <JGI2>
0.08

>  <JGI3>
0.05

>  <JGI4>
0.04

>  <JGI5>
0.02

>  <Diameter>
18

>  <Radius>
9

>  <TMWC10>
148.41

>  <TSRW10>
85.04

>  <MW>
489.19

>  <AMW>
7.53

>  <WPath>
3736

>  <WPol>
51

>  <Zagreb1>
180

>  <Zagreb2>
213

>  <mZagreb2>
7.06

>  <yes>


>  <nAR-cont>
1

>  <nHA-cont>
0.61399562

>  <MWHBN>
0.271276682

>  <MWHBN-cont>
0.917190676

>  <TPSA-cont>
0.519733278

>  <pka_cont>
0.97

>  <yes.1>


>  <BBB_SCORE>
4.51424819

>  <MMFF94 Energy>
Couldn't assign an atom type to atom 19 (S)

$$$$
Compound 701
Actelion Java MolfileCreator 2.0

  0  0  0  0  0  0              0 V3000
M  V30 BEGIN CTAB
M  V30 COUNTS 23 23 0 0 0
M  V30 BEGIN ATOM
M  V30 1 N -2.0921 0.9294 0.7744 0
M  V30 2 C -1.7045 -0.2157 -0.061 0 CFG=2
M  V30 3 C -0.4948 0.117 -0.962 0
M  V30 4 C -2.9055 -0.63 -0.9136 0
M  V30 5 C 0.8313 0.076 -0.237 0
M  V30 6 C 1.2531 1.1607 0.5427 0
M  V30 7 C 1.6549 -1.0551 -0.3254 0
M  V30 8 C 2.4763 1.1192 1.2139 0
M  V30 9 C 2.8786 -1.095 0.3454 0
M  V30 10 C 3.2895 -0.0076 1.1138 0
M  V30 11 H -2.4153 1.695 0.1848 0
M  V30 12 H -2.8827 0.6691 1.3628 0
M  V30 13 H -1.4492 -1.0514 0.6017 0
M  V30 14 H -0.4515 -0.5966 -1.7958 0
M  V30 15 H -0.6199 1.1007 -1.4347 0
M  V30 16 H -2.6682 -1.5181 -1.5092 0
M  V30 17 H -3.2041 0.1681 -1.6025 0
M  V30 18 H -3.7687 -0.8769 -0.2854 0
M  V30 19 H 0.6216 2.0412 0.6393 0
M  V30 20 H 1.3487 -1.9137 -0.9181 0
M  V30 21 H 2.7901 1.9656 1.8187 0
M  V30 22 H 3.5103 -1.9758 0.2698 0
M  V30 23 H 4.2406 -0.0396 1.6381 0
M  V30 END ATOM
M  V30 BEGIN BOND
M  V30 1 1 1 2
M  V30 2 1 2 3
M  V30 3 1 2 4
M  V30 4 1 3 5
M  V30 5 2 5 6
M  V30 6 1 5 7
M  V30 7 1 6 8
M  V30 8 2 7 9
M  V30 9 2 8 10
M  V30 10 1 9 10
M  V30 11 1 1 11
M  V30 12 1 1 12
M  V30 13 1 2 13
M  V30 14 1 3 14
M  V30 15 1 3 15
M  V30 16 1 4 16
M  V30 17 1 4 17
M  V30 18 1 4 18
M  V30 19 1 6 19
M  V30 20 1 7 20
M  V30 21 1 8 21
M  V30 22 1 9 22
M  V30 23 1 10 23
M  V30 END BOND
M  V30 BEGIN COLLECTION
M  V30 MDLV30/STERAC1 ATOMS=(1 2)
M  V30 END COLLECTION
M  V30 END CTAB
M  END
>  <Column 1>
843

>  <level_0>
964

>  <index>
964

>  <Unnamed: 0>
964

>  <NO.>
976

>  <Name>
amphetamine

>  <IUPAC_name>
1-phenylpropan-2-amine

>  <SMILES>
CC(N)Cc1ccccc1

>  <CID>
3007

>  <logBB>
0.93

>  <BBB+/BBB->
BBB+

>  <Inchi>
InChI=1S/C9H13N/c1-8(10)7-9-5-3-2-4-6-9/h2-6-8H-7-10H2-1H3

>  <threshold>


>  <reference>
R12|R21|R25|R27|R35|R39|R43|R46|R47|R2|R2|R8|R27|R40|

>  <group>
A

>  <Class>
1

>  <ABC>
7.29

>  <ABCGG>
6.78

>  <nAcid>
0

>  <nBase>
1

>  <nAromAtom>
6

>  <nAromBond>
6

>  <nAtom>
23

>  <nHeavyAtom>
10

>  <nSpiro>
0

>  <nBridgehead>
0

>  <nHetero>
1

>  <nN>
1

>  <nO>
0

>  <nF>
0

>  <BalabanJ>
2.13

>  <BertzCT>
179.18

>  <nBonds>
23

>  <nBondsO>
10

>  <nBondsS>
17

>  <nBondsD>
0

>  <nBondsT>
0

>  <nBondsA>
6

>  <nBondsM>
6

>  <nBondsKS>
20

>  <nBondsKD>
3

>  <RNCG>
0.44

>  <RPCG>
0.16

>  <FCSP3>
0.33

>  <SZ>
12.33

>  <Sm>
11.26

>  <Sv>
13.28

>  <Sse>
22.43

>  <Sp>
14.85

>  <Si>
25.99

>  <MZ>
0.54

>  <Mm>
0.49

>  <Mv>
0.58

>  <Mse>
0.98

>  <Mp>
0.65

>  <Mi>
1.13

>  <NsCH3>
1

>  <NdCH2>
0

>  <NssCH2>
1

>  <NtCH>
0

>  <NdsCH>
0

>  <NaaCH>
5

>  <NsssCH>
1

>  <NddC>
0

>  <NtsC>
0

>  <NdssC>
0

>  <NaasC>
1

>  <NaaaC>
0

>  <NssssC>
0

>  <NsNH3>
0

>  <NsNH2>
1

>  <NssNH2>
0

>  <NdNH>
0

>  <NssNH>
0

>  <NaaNH>
0

>  <NtN>
0

>  <NsssNH>
0

>  <NdsN>
0

>  <NaaN>
0

>  <NsssN>
0

>  <NddsN>
0

>  <NaasN>
0

>  <NssssN>
0

>  <NsOH>
0

>  <NdO>
0

>  <NssO>
0

>  <NaaO>
0

>  <NsF>
0

>  <NsSiH3>
0

>  <NssSiH2>
0

>  <NsssSiH>
0

>  <NssssSi>
0

>  <NsPH2>
0

>  <NssPH>
0

>  <NsssP>
0

>  <NdsssP>
0

>  <NsssssP>
0

>  <NsSH>
0

>  <NdS>
0

>  <NssS>
0

>  <NaaS>
0

>  <NdssS>
0

>  <NddssS>
0

>  <NsCl>
0

>  <NsBr>
0

>  <NsI>
0

>  <fragCpx>
10.01

>  <fMF>
0.26

>  <nHBAcc>
1

>  <nHBDon>
1

>  <Kier1>
8.1

>  <Kier2>
4

>  <Lipinski>
1

>  <GhoseFilter>
0

>  <FilterItLogS>
-2.09

>  <VMcGowan>
123.89

>  <LabuteASA>
61.87

>  <PEOE_VSA1>
5.73

>  <PEOE_VSA2>
0

>  <PEOE_VSA3>
0

>  <PEOE_VSA4>
0

>  <PEOE_VSA5>
0

>  <PEOE_VSA6>
30.33

>  <PEOE_VSA7>
18.91

>  <PEOE_VSA8>
6.04

>  <PEOE_VSA9>
0

>  <PEOE_VSA10>
0

>  <PEOE_VSA11>
0

>  <PEOE_VSA12>
0

>  <PEOE_VSA13>
0

>  <SMR_VSA1>
0

>  <SMR_VSA2>
0

>  <SMR_VSA3>
0

>  <SMR_VSA4>
5.73

>  <SMR_VSA5>
19.39

>  <SMR_VSA6>
0

>  <SMR_VSA7>
35.9

>  <SMR_VSA8>
0

>  <SMR_VSA9>
0

>  <SlogP_VSA1>
5.73

>  <SlogP_VSA2>
6.04

>  <SlogP_VSA3>
6.42

>  <SlogP_VSA4>
0

>  <SlogP_VSA5>
12.49

>  <SlogP_VSA6>
30.33

>  <SlogP_VSA7>
0

>  <SlogP_VSA8>
0

>  <SlogP_VSA9>
0

>  <SlogP_VSA10>
0

>  <SlogP_VSA11>
0

>  <EState_VSA1>
0

>  <EState_VSA2>
6.04

>  <EState_VSA3>
0

>  <EState_VSA4>
6.42

>  <EState_VSA5>
5.56

>  <EState_VSA6>
0

>  <EState_VSA7>
25.12

>  <EState_VSA8>
12.13

>  <EState_VSA9>
5.73

>  <EState_VSA10>
0

>  <VSA_EState1>
0

>  <VSA_EState2>
0

>  <VSA_EState3>
0

>  <VSA_EState4>
6.94

>  <VSA_EState5>
0

>  <VSA_EState6>
10.56

>  <VSA_EState7>
0.97

>  <VSA_EState8>
2.02

>  <VSA_EState9>
0

>  <apol>
24.8

>  <bpol>
12.47

>  <nRing>
1

>  <nHRing>
0

>  <naRing>
1

>  <naHRing>
0

>  <nARing 2>
0

>  <nAHRing 2>
0

>  <nFRing>
0

>  <nFHRing>
0

>  <nFaRing>
0

>  <nFaHRing>
0

>  <nFARing 2>
0

>  <nFAHRing 2>
0

>  <nRot>
2

>  <SLogP>
1.58

>  <SMR>
43.8

>  <TopoPSA(NO)>
26.02

>  <TopoPSA>
26.02

>  <JGI1>
0.2

>  <JGI2>
0.04

>  <JGI3>
0.05

>  <JGI4>
0.04

>  <JGI5>
0.02

>  <Diameter>
6

>  <Radius>
3

>  <TMWC10>
81.78

>  <TSRW10>
38.52

>  <MW>
135.1

>  <AMW>
5.87

>  <WPath>
126

>  <WPol>
9

>  <Zagreb1>
44

>  <Zagreb2>
46

>  <mZagreb2>
2.33

>  <yes>


>  <nAR-cont>
0.336376

>  <nHA-cont>
0.645914733

>  <MWHBN>
0.172068876

>  <MWHBN-cont>
0.977094056

>  <TPSA-cont>
0.818364243

>  <pka_cont>
0.97

>  <yes.1>


>  <BBB_SCORE>
4.569660303

>  <MMFF94 Energy>
31.671

$$$$
Compound 702
Actelion Java MolfileCreator 2.0

  0  0  0  0  0  0              0 V3000
M  V30 BEGIN CTAB
M  V30 COUNTS 30 29 0 0 0
M  V30 BEGIN ATOM
M  V30 1 C -4.1312 -1.1462 0.0763 0
M  V30 2 C -5.3536 -0.6454 -0.1421 0
M  V30 3 C -3.0394 -1.1822 -0.954 0
M  V30 4 C -1.8294 -0.3552 -0.5115 0
M  V30 5 C -0.7121 -0.4084 -1.5564 0
M  V30 6 C 0.4793 0.4931 -1.2209 0
M  V30 7 C 1.2434 0.0521 0.0294 0
M  V30 8 C 2.4878 0.9151 0.251 0
M  V30 9 C 3.251 0.4795 1.5017 0
M  V30 10 C 4.4884 1.3342 1.7251 0
M  V30 11 H -3.9005 -1.5663 1.0534 0
M  V30 12 H -5.6336 -0.2194 -1.1005 0
M  V30 13 H -6.1044 -0.6514 0.6421 0
M  V30 14 H -3.4067 -0.8122 -1.9191 0
M  V30 15 H -2.7404 -2.2261 -1.1061 0
M  V30 16 H -1.4623 -0.7361 0.4486 0
M  V30 17 H -2.1324 0.687 -0.3511 0
M  V30 18 H -1.115 -0.0932 -2.527 0
M  V30 19 H -0.3681 -1.4426 -1.6785 0
M  V30 20 H 0.1352 1.5274 -1.0995 0
M  V30 21 H 1.1633 0.487 -2.0787 0
M  V30 22 H 1.5391 -0.9989 -0.0716 0
M  V30 23 H 0.5964 0.1253 0.9107 0
M  V30 24 H 2.1926 1.967 0.3482 0
M  V30 25 H 3.1456 0.8435 -0.6236 0
M  V30 26 H 2.5996 0.5536 2.3804 0
M  V30 27 H 3.5512 -0.5704 1.4079 0
M  V30 28 H 5.0187 1.0055 2.6243 0
M  V30 29 H 5.1767 1.257 0.8774 0
M  V30 30 H 4.2196 2.3874 1.855 0
M  V30 END ATOM
M  V30 BEGIN BOND
M  V30 1 2 1 2
M  V30 2 1 1 3
M  V30 3 1 3 4
M  V30 4 1 4 5
M  V30 5 1 5 6
M  V30 6 1 6 7
M  V30 7 1 7 8
M  V30 8 1 8 9
M  V30 9 1 9 10
M  V30 10 1 1 11
M  V30 11 1 2 12
M  V30 12 1 2 13
M  V30 13 1 3 14
M  V30 14 1 3 15
M  V30 15 1 4 16
M  V30 16 1 4 17
M  V30 17 1 5 18
M  V30 18 1 5 19
M  V30 19 1 6 20
M  V30 20 1 6 21
M  V30 21 1 7 22
M  V30 22 1 7 23
M  V30 23 1 8 24
M  V30 24 1 8 25
M  V30 25 1 9 26
M  V30 26 1 9 27
M  V30 27 1 10 28
M  V30 28 1 10 29
M  V30 29 1 10 30
M  V30 END BOND
M  V30 END CTAB
M  END
>  <Column 1>
844

>  <level_0>
966

>  <index>
966

>  <Unnamed: 0>
966

>  <NO.>
978

>  <Name>
1-decene

>  <IUPAC_name>
dec-1-ene

>  <SMILES>
C=CCCCCCCCC

>  <CID>
13381

>  <logBB>
0.96

>  <BBB+/BBB->
BBB+

>  <Inchi>
InChI=1S/C10H20/c1-3-5-7-9-10-8-6-4-2/h3H-1-4-10H2-2H3

>  <threshold>


>  <reference>
R2|R2|R8|R27|R40|R3|R21|R25|R27|R38|R41|R46|R47|

>  <group>
A

>  <Class>
1

>  <ABC>
6.36

>  <ABCGG>
6.25

>  <nAcid>
0

>  <nBase>
0

>  <nAromAtom>
0

>  <nAromBond>
0

>  <nAtom>
30

>  <nHeavyAtom>
10

>  <nSpiro>
0

>  <nBridgehead>
0

>  <nHetero>
0

>  <nN>
0

>  <nO>
0

>  <nF>
0

>  <BalabanJ>
2.65

>  <BertzCT>
64.44

>  <nBonds>
29

>  <nBondsO>
9

>  <nBondsS>
28

>  <nBondsD>
1

>  <nBondsT>
0

>  <nBondsA>
0

>  <nBondsM>
1

>  <nBondsKS>
28

>  <nBondsKD>
1

>  <RNCG>
0.17

>  <RPCG>
0.09

>  <FCSP3>
0.8

>  <SZ>
13.33

>  <Sm>
11.68

>  <Sv>
15.42

>  <Sse>
28.88

>  <Sp>
17.99

>  <Si>
34.15

>  <MZ>
0.44

>  <Mm>
0.39

>  <Mv>
0.51

>  <Mse>
0.96

>  <Mp>
0.6

>  <Mi>
1.14

>  <NsCH3>
1

>  <NdCH2>
1

>  <NssCH2>
7

>  <NtCH>
0

>  <NdsCH>
1

>  <NaaCH>
0

>  <NsssCH>
0

>  <NddC>
0

>  <NtsC>
0

>  <NdssC>
0

>  <NaasC>
0

>  <NaaaC>
0

>  <NssssC>
0

>  <NsNH3>
0

>  <NsNH2>
0

>  <NssNH2>
0

>  <NdNH>
0

>  <NssNH>
0

>  <NaaNH>
0

>  <NtN>
0

>  <NsssNH>
0

>  <NdsN>
0

>  <NaaN>
0

>  <NsssN>
0

>  <NddsN>
0

>  <NaasN>
0

>  <NssssN>
0

>  <NsOH>
0

>  <NdO>
0

>  <NssO>
0

>  <NaaO>
0

>  <NsF>
0

>  <NsSiH3>
0

>  <NssSiH2>
0

>  <NsssSiH>
0

>  <NssssSi>
0

>  <NsPH2>
0

>  <NssPH>
0

>  <NsssP>
0

>  <NdsssP>
0

>  <NsssssP>
0

>  <NsSH>
0

>  <NdS>
0

>  <NssS>
0

>  <NaaS>
0

>  <NdssS>
0

>  <NddssS>
0

>  <NsCl>
0

>  <NsBr>
0

>  <NsI>
0

>  <fragCpx>
9

>  <fMF>
0

>  <nHBAcc>
0

>  <nHBDon>
0

>  <Kier1>
10

>  <Kier2>
9

>  <Lipinski>
1

>  <GhoseFilter>
0

>  <FilterItLogS>
-3.52

>  <VMcGowan>
147.46

>  <LabuteASA>
65.33

>  <PEOE_VSA1>
0

>  <PEOE_VSA2>
0

>  <PEOE_VSA3>
0

>  <PEOE_VSA4>
0

>  <PEOE_VSA5>
6.58

>  <PEOE_VSA6>
45.1

>  <PEOE_VSA7>
12.84

>  <PEOE_VSA8>
0

>  <PEOE_VSA9>
0

>  <PEOE_VSA10>
0

>  <PEOE_VSA11>
0

>  <PEOE_VSA12>
0

>  <PEOE_VSA13>
0

>  <SMR_VSA1>
0

>  <SMR_VSA2>
0

>  <SMR_VSA3>
0

>  <SMR_VSA4>
0

>  <SMR_VSA5>
51.87

>  <SMR_VSA6>
0

>  <SMR_VSA7>
12.65

>  <SMR_VSA8>
0

>  <SMR_VSA9>
0

>  <SlogP_VSA1>
0

>  <SlogP_VSA2>
0

>  <SlogP_VSA3>
0

>  <SlogP_VSA4>
0

>  <SlogP_VSA5>
51.87

>  <SlogP_VSA6>
12.65

>  <SlogP_VSA7>
0

>  <SlogP_VSA8>
0

>  <SlogP_VSA9>
0

>  <SlogP_VSA10>
0

>  <SlogP_VSA11>
0

>  <EState_VSA1>
0

>  <EState_VSA2>
0

>  <EState_VSA3>
0

>  <EState_VSA4>
0

>  <EState_VSA5>
44.95

>  <EState_VSA6>
0

>  <EState_VSA7>
6.08

>  <EState_VSA8>
13.5

>  <EState_VSA9>
0

>  <EState_VSA10>
0

>  <VSA_EState1>
0

>  <VSA_EState2>
0

>  <VSA_EState3>
0

>  <VSA_EState4>
0

>  <VSA_EState5>
0

>  <VSA_EState6>
0

>  <VSA_EState7>
11.55

>  <VSA_EState8>
5.95

>  <VSA_EState9>
0

>  <apol>
30.04

>  <bpol>
20.06

>  <nRing>
0

>  <nHRing>
0

>  <naRing>
0

>  <naHRing>
0

>  <nARing 2>
0

>  <nAHRing 2>
0

>  <nFRing>
0

>  <nFHRing>
0

>  <nFaRing>
0

>  <nFaHRing>
0

>  <nFARing 2>
0

>  <nFAHRing 2>
0

>  <nRot>
7

>  <SLogP>
3.92

>  <SMR>
48.19

>  <TopoPSA(NO)>
0

>  <TopoPSA>
0

>  <JGI1>
0.06

>  <JGI2>
0.03

>  <JGI3>
0.02

>  <JGI4>
0.01

>  <JGI5>
0.01

>  <Diameter>
9

>  <Radius>
5

>  <TMWC10>
73.97

>  <TSRW10>
35.64

>  <MW>
140.16

>  <AMW>
4.67

>  <WPath>
165

>  <WPol>
7

>  <Zagreb1>
34

>  <Zagreb2>
32

>  <mZagreb2>
2.75

>  <yes>


>  <nAR-cont>
0.336376

>  <nHA-cont>
0.645914733

>  <MWHBN>
0

>  <MWHBN-cont>
0

>  <TPSA-cont>
0

>  <pka_cont>
0.97

>  <yes.1>


>  <BBB_SCORE>
1.467290733

>  <MMFF94 Energy>
5.0865

$$$$
Compound 703
Actelion Java MolfileCreator 2.0

  0  0  0  0  0  0              0 V3000
M  V30 BEGIN CTAB
M  V30 COUNTS 21 21 0 0 0
M  V30 BEGIN ATOM
M  V30 1 C -0.0775 -0.4653 0.9308 0
M  V30 2 C -1.2568 -0.1562 -0.0015 0
M  V30 3 C 1.1352 0.4097 0.5861 0
M  V30 4 C -0.4813 -0.2764 2.3919 0
M  V30 5 C -0.8627 -0.2864 -1.471 0
M  V30 6 C 1.5254 0.2785 -0.8842 0
M  V30 7 C 0.3485 0.5778 -1.8076 0
M  V30 8 H 0.2053 -1.5174 0.7926 0
M  V30 9 H -2.0899 -0.8369 0.2107 0
M  V30 10 H -1.6231 0.8616 0.1844 0
M  V30 11 H 1.9897 0.1282 1.2132 0
M  V30 12 H 0.9118 1.4614 0.8073 0
M  V30 13 H -0.7759 0.7591 2.5937 0
M  V30 14 H 0.3491 -0.5284 3.0598 0
M  V30 15 H -1.3259 -0.9247 2.6482 0
M  V30 16 H -0.6364 -1.3359 -1.6961 0
M  V30 17 H -1.7084 0.001 -2.106 0
M  V30 18 H 1.8901 -0.7381 -1.0753 0
M  V30 19 H 2.3524 0.9618 -1.1081 0
M  V30 20 H 0.6444 0.4087 -2.8491 0
M  V30 21 H 0.0764 1.637 -1.7204 0
M  V30 END ATOM
M  V30 BEGIN BOND
M  V30 1 1 1 2
M  V30 2 1 1 3
M  V30 3 1 1 4
M  V30 4 1 2 5
M  V30 5 1 3 6
M  V30 6 1 5 7
M  V30 7 1 6 7
M  V30 8 1 1 8
M  V30 9 1 2 9
M  V30 10 1 2 10
M  V30 11 1 3 11
M  V30 12 1 3 12
M  V30 13 1 4 13
M  V30 14 1 4 14
M  V30 15 1 4 15
M  V30 16 1 5 16
M  V30 17 1 5 17
M  V30 18 1 6 18
M  V30 19 1 6 19
M  V30 20 1 7 20
M  V30 21 1 7 21
M  V30 END BOND
M  V30 END CTAB
M  END
>  <Column 1>
846

>  <level_0>
968

>  <index>
968

>  <Unnamed: 0>
968

>  <NO.>
980

>  <Name>
methylcyclohexane

>  <IUPAC_name>
methylcyclohexane

>  <SMILES>
CC1CCCCC1

>  <CID>
7962

>  <logBB>
0.96

>  <BBB+/BBB->
BBB+

>  <Inchi>
InChI=1S/C7H14/c1-7-5-3-2-4-6-7/h7H-2-6H2-1H3

>  <threshold>


>  <reference>
R2|R2|R8|R27|R40|R3|R21|R25|R27|R38|R41|R46|R47|

>  <group>
A

>  <Class>
1

>  <ABC>
5.06

>  <ABCGG>
4.79

>  <nAcid>
0

>  <nBase>
0

>  <nAromAtom>
0

>  <nAromBond>
0

>  <nAtom>
21

>  <nHeavyAtom>
7

>  <nSpiro>
0

>  <nBridgehead>
0

>  <nHetero>
0

>  <nN>
0

>  <nO>
0

>  <nF>
0

>  <BalabanJ>
2.12

>  <BertzCT>
42

>  <nBonds>
21

>  <nBondsO>
7

>  <nBondsS>
21

>  <nBondsD>
0

>  <nBondsT>
0

>  <nBondsA>
0

>  <nBondsM>
0

>  <nBondsKS>
21

>  <nBondsKD>
0

>  <RNCG>
0.17

>  <RPCG>
0.08

>  <FCSP3>
1

>  <SZ>
9.33

>  <Sm>
8.17

>  <Sv>
10.79

>  <Sse>
20.21

>  <Sp>
12.59

>  <Si>
23.91

>  <MZ>
0.44

>  <Mm>
0.39

>  <Mv>
0.51

>  <Mse>
0.96

>  <Mp>
0.6

>  <Mi>
1.14

>  <NsCH3>
1

>  <NdCH2>
0

>  <NssCH2>
5

>  <NtCH>
0

>  <NdsCH>
0

>  <NaaCH>
0

>  <NsssCH>
1

>  <NddC>
0

>  <NtsC>
0

>  <NdssC>
0

>  <NaasC>
0

>  <NaaaC>
0

>  <NssssC>
0

>  <NsNH3>
0

>  <NsNH2>
0

>  <NssNH2>
0

>  <NdNH>
0

>  <NssNH>
0

>  <NaaNH>
0

>  <NtN>
0

>  <NsssNH>
0

>  <NdsN>
0

>  <NaaN>
0

>  <NsssN>
0

>  <NddsN>
0

>  <NaasN>
0

>  <NssssN>
0

>  <NsOH>
0

>  <NdO>
0

>  <NssO>
0

>  <NaaO>
0

>  <NsF>
0

>  <NsSiH3>
0

>  <NssSiH2>
0

>  <NsssSiH>
0

>  <NssssSi>
0

>  <NsPH2>
0

>  <NssPH>
0

>  <NsssP>
0

>  <NdsssP>
0

>  <NsssssP>
0

>  <NsSH>
0

>  <NdS>
0

>  <NssS>
0

>  <NaaS>
0

>  <NdssS>
0

>  <NddssS>
0

>  <NsCl>
0

>  <NsBr>
0

>  <NsI>
0

>  <fragCpx>
7

>  <fMF>
0.29

>  <nHBAcc>
0

>  <nHBDon>
0

>  <Kier1>
5.14

>  <Kier2>
2.34

>  <Lipinski>
1

>  <GhoseFilter>
0

>  <FilterItLogS>
-1.62

>  <VMcGowan>
98.63

>  <LabuteASA>
45.92

>  <PEOE_VSA1>
0

>  <PEOE_VSA2>
0

>  <PEOE_VSA3>
0

>  <PEOE_VSA4>
0

>  <PEOE_VSA5>
0

>  <PEOE_VSA6>
39.03

>  <PEOE_VSA7>
5.92

>  <PEOE_VSA8>
0

>  <PEOE_VSA9>
0

>  <PEOE_VSA10>
0

>  <PEOE_VSA11>
0

>  <PEOE_VSA12>
0

>  <PEOE_VSA13>
0

>  <SMR_VSA1>
0

>  <SMR_VSA2>
0

>  <SMR_VSA3>
0

>  <SMR_VSA4>
5.92

>  <SMR_VSA5>
39.03

>  <SMR_VSA6>
0

>  <SMR_VSA7>
0

>  <SMR_VSA8>
0

>  <SMR_VSA9>
0

>  <SlogP_VSA1>
0

>  <SlogP_VSA2>
0

>  <SlogP_VSA3>
0

>  <SlogP_VSA4>
5.92

>  <SlogP_VSA5>
39.03

>  <SlogP_VSA6>
0

>  <SlogP_VSA7>
0

>  <SlogP_VSA8>
0

>  <SlogP_VSA9>
0

>  <SlogP_VSA10>
0

>  <SlogP_VSA11>
0

>  <EState_VSA1>
0

>  <EState_VSA2>
0

>  <EState_VSA3>
0

>  <EState_VSA4>
5.92

>  <EState_VSA5>
32.1

>  <EState_VSA6>
0

>  <EState_VSA7>
0

>  <EState_VSA8>
6.92

>  <EState_VSA9>
0

>  <EState_VSA10>
0

>  <VSA_EState1>
0

>  <VSA_EState2>
0

>  <VSA_EState3>
0

>  <VSA_EState4>
0

>  <VSA_EState5>
1.04

>  <VSA_EState6>
0

>  <VSA_EState7>
7.44

>  <VSA_EState8>
2.36

>  <VSA_EState9>
0

>  <apol>
21.03

>  <bpol>
14.04

>  <nRing>
1

>  <nHRing>
0

>  <naRing>
0

>  <naHRing>
0

>  <nARing 2>
1

>  <nAHRing 2>
0

>  <nFRing>
0

>  <nFHRing>
0

>  <nFaRing>
0

>  <nFaHRing>
0

>  <nFARing 2>
0

>  <nFAHRing 2>
0

>  <nRot>
0

>  <SLogP>
2.59

>  <SMR>
32.25

>  <TopoPSA(NO)>
0

>  <TopoPSA>
0

>  <JGI1>
0.14

>  <JGI2>
0.06

>  <JGI3>
0.04

>  <JGI4>
0.11

>  <JGI5>
0

>  <Diameter>
4

>  <Radius>
3

>  <TMWC10>
71.32

>  <TSRW10>
33.54

>  <MW>
98.11

>  <AMW>
4.67

>  <WPath>
42

>  <WPol>
5

>  <Zagreb1>
30

>  <Zagreb2>
31

>  <mZagreb2>
1.67

>  <yes>


>  <nAR-cont>
0.816016

>  <nHA-cont>
0.357561384

>  <MWHBN>
0

>  <MWHBN-cont>
0

>  <TPSA-cont>
0

>  <pka_cont>
0.97

>  <yes.1>


>  <BBB_SCORE>
1.658577384

>  <MMFF94 Energy>
0.69824

$$$$
Compound 704
Actelion Java MolfileCreator 2.0

  0  0  0  0  0  0              0 V3000
M  V30 BEGIN CTAB
M  V30 COUNTS 34 36 0 0 0
M  V30 BEGIN ATOM
M  V30 1 Cl -4.429 -2.7869 -0.1637 0
M  V30 2 C -3.2802 -1.6937 -0.8334 0
M  V30 3 C -2.0055 -1.596 -0.2709 0
M  V30 4 C -3.6278 -0.9193 -1.9303 0
M  V30 5 C -1.039 -0.7078 -0.7856 0
M  V30 6 C -2.684 -0.0526 -2.475 0
M  V30 7 N 0.251 -0.6041 -0.1969 0
M  V30 8 C -1.3946 0.0482 -1.9218 0
M  V30 9 C 1.3949 -0.0745 -0.8521 0
M  V30 10 C 0.2878 -0.5907 1.2902 0
M  V30 11 S -0.2834 1.1929 -2.7133 0
M  V30 12 C 1.2817 0.7503 -1.9881 0
M  V30 13 C 2.6976 -0.3918 -0.4153 0
M  V30 14 C -0.1968 0.7624 1.8339 0
M  V30 15 C 2.4292 1.2829 -2.603 0
M  V30 16 C 3.8358 0.1319 -1.0366 0
M  V30 17 C -0.063 0.8655 3.3516 0
M  V30 18 C 3.7012 0.9799 -2.1259 0
M  V30 19 N -0.9017 -0.11 4.0384 0
M  V30 20 H -1.7681 -2.2514 0.5611 0
M  V30 21 H -4.618 -0.9906 -2.3713 0
M  V30 22 H -2.9575 0.5442 -3.343 0
M  V30 23 H 1.2918 -0.7845 1.6798 0
M  V30 24 H -0.3092 -1.4053 1.7105 0
M  V30 25 H 2.8556 -1.0911 0.4008 0
M  V30 26 H -1.2402 0.9379 1.5431 0
M  V30 27 H 0.3895 1.5716 1.3808 0
M  V30 28 H 2.3349 1.9332 -3.4703 0
M  V30 29 H 4.8242 -0.1358 -0.6722 0
M  V30 30 H -0.3501 1.8728 3.6733 0
M  V30 31 H 0.9809 0.7142 3.6468 0
M  V30 32 H 4.5804 1.3905 -2.6149 0
M  V30 33 H -0.8098 0.018 5.0468 0
M  V30 34 H -1.8834 0.0737 3.8261 0
M  V30 END ATOM
M  V30 BEGIN BOND
M  V30 1 1 1 2
M  V30 2 2 2 3
M  V30 3 1 2 4
M  V30 4 1 3 5
M  V30 5 2 4 6
M  V30 6 1 5 7
M  V30 7 2 5 8
M  V30 8 1 7 9
M  V30 9 1 7 10
M  V30 10 1 8 11
M  V30 11 2 9 12
M  V30 12 1 9 13
M  V30 13 1 10 14
M  V30 14 1 12 15
M  V30 15 2 13 16
M  V30 16 1 14 17
M  V30 17 2 15 18
M  V30 18 1 17 19
M  V30 19 1 6 8
M  V30 20 1 11 12
M  V30 21 1 16 18
M  V30 22 1 3 20
M  V30 23 1 4 21
M  V30 24 1 6 22
M  V30 25 1 10 23
M  V30 26 1 10 24
M  V30 27 1 13 25
M  V30 28 1 14 26
M  V30 29 1 14 27
M  V30 30 1 15 28
M  V30 31 1 16 29
M  V30 32 1 17 30
M  V30 33 1 17 31
M  V30 34 1 18 32
M  V30 35 1 19 33
M  V30 36 1 19 34
M  V30 END BOND
M  V30 END CTAB
M  END
>  <Column 1>
847

>  <level_0>
969

>  <index>
969

>  <Unnamed: 0>
969

>  <NO.>
981

>  <Name>
2095-17-2

>  <IUPAC_name>
3-(2-chlorophenothiazin-10-yl)propan-1-amine

>  <SMILES>
NCCCN1c2ccccc2Sc2ccc(Cl)cc21

>  <CID>
74981

>  <logBB>
0.97

>  <BBB+/BBB->
BBB+

>  <Inchi>
InChI=1S/C15H15ClN2S/c16-11-6-7-15-13(10-11)18(9-3-8-17)12-4-1-2-5-14(12)19-15/h1-2-4-7-10H-3-8-9-17H2

>  <threshold>


>  <reference>
R12|R21|R25|R27|R35|R36|R39|R43|R46|R47|R4|R2|R2|R8|R27|R40|

>  <group>
A

>  <Class>
1

>  <ABC>
14.8

>  <ABCGG>
11.87

>  <nAcid>
0

>  <nBase>
1

>  <nAromAtom>
12

>  <nAromBond>
12

>  <nAtom>
34

>  <nHeavyAtom>
19

>  <nSpiro>
0

>  <nBridgehead>
0

>  <nHetero>
4

>  <nN>
2

>  <nO>
0

>  <nF>
0

>  <BalabanJ>
1.75

>  <BertzCT>
600.45

>  <nBonds>
36

>  <nBondsO>
21

>  <nBondsS>
24

>  <nBondsD>
0

>  <nBondsT>
0

>  <nBondsA>
12

>  <nBondsM>
12

>  <nBondsKS>
30

>  <nBondsKD>
6

>  <RNCG>
0.29

>  <RPCG>
0.1

>  <FCSP3>
0.2

>  <SZ>
25.33

>  <Sm>
24.21

>  <Sv>
22.86

>  <Sse>
33.83

>  <Sp>
25.35

>  <Si>
37.77

>  <MZ>
0.75

>  <Mm>
0.71

>  <Mv>
0.67

>  <Mse>
0.99

>  <Mp>
0.75

>  <Mi>
1.11

>  <NsCH3>
0

>  <NdCH2>
0

>  <NssCH2>
3

>  <NtCH>
0

>  <NdsCH>
0

>  <NaaCH>
7

>  <NsssCH>
0

>  <NddC>
0

>  <NtsC>
0

>  <NdssC>
0

>  <NaasC>
5

>  <NaaaC>
0

>  <NssssC>
0

>  <NsNH3>
0

>  <NsNH2>
1

>  <NssNH2>
0

>  <NdNH>
0

>  <NssNH>
0

>  <NaaNH>
0

>  <NtN>
0

>  <NsssNH>
0

>  <NdsN>
0

>  <NaaN>
0

>  <NsssN>
1

>  <NddsN>
0

>  <NaasN>
0

>  <NssssN>
0

>  <NsOH>
0

>  <NdO>
0

>  <NssO>
0

>  <NaaO>
0

>  <NsF>
0

>  <NsSiH3>
0

>  <NssSiH2>
0

>  <NsssSiH>
0

>  <NssssSi>
0

>  <NsPH2>
0

>  <NssPH>
0

>  <NsssP>
0

>  <NdsssP>
0

>  <NsssssP>
0

>  <NsSH>
0

>  <NdS>
0

>  <NssS>
1

>  <NaaS>
0

>  <NdssS>
0

>  <NddssS>
0

>  <NsCl>
1

>  <NsBr>
0

>  <NsI>
0

>  <fragCpx>
99.04

>  <fMF>
0.41

>  <nHBAcc>
3

>  <nHBDon>
1

>  <Kier1>
13.96

>  <Kier2>
6.19

>  <Lipinski>
1

>  <GhoseFilter>
1

>  <FilterItLogS>
-4.76

>  <VMcGowan>
212.38

>  <LabuteASA>
122.1

>  <PEOE_VSA1>
10.63

>  <PEOE_VSA2>
0

>  <PEOE_VSA3>
0

>  <PEOE_VSA4>
0

>  <PEOE_VSA5>
0

>  <PEOE_VSA6>
35.5

>  <PEOE_VSA7>
43.3

>  <PEOE_VSA8>
21.36

>  <PEOE_VSA9>
11.37

>  <PEOE_VSA10>
0

>  <PEOE_VSA11>
0

>  <PEOE_VSA12>
0

>  <PEOE_VSA13>
0

>  <SMR_VSA1>
0

>  <SMR_VSA2>
0

>  <SMR_VSA3>
0

>  <SMR_VSA4>
5.73

>  <SMR_VSA5>
16.21

>  <SMR_VSA6>
17.99

>  <SMR_VSA7>
47.49

>  <SMR_VSA8>
0

>  <SMR_VSA9>
0

>  <SlogP_VSA1>
10.63

>  <SlogP_VSA2>
13.09

>  <SlogP_VSA3>
0

>  <SlogP_VSA4>
0

>  <SlogP_VSA5>
6.42

>  <SlogP_VSA6>
52.26

>  <SlogP_VSA7>
5.02

>  <SlogP_VSA8>
0

>  <SlogP_VSA9>
0

>  <SlogP_VSA10>
11.37

>  <SlogP_VSA11>
0

>  <EState_VSA1>
0

>  <EState_VSA2>
0

>  <EState_VSA3>
6.54

>  <EState_VSA4>
17.99

>  <EState_VSA5>
21.17

>  <EState_VSA6>
11.76

>  <EState_VSA7>
12.13

>  <EState_VSA8>
35.23

>  <EState_VSA9>
17.33

>  <EState_VSA10>
0

>  <VSA_EState1>
0

>  <VSA_EState2>
4.86

>  <VSA_EState3>
0.77

>  <VSA_EState4>
8.09

>  <VSA_EState5>
0

>  <VSA_EState6>
14.54

>  <VSA_EState7>
0.96

>  <VSA_EState8>
1.61

>  <VSA_EState9>
0

>  <apol>
42.33

>  <bpol>
19.16

>  <nRing>
3

>  <nHRing>
1

>  <naRing>
2

>  <naHRing>
0

>  <nARing 2>
1

>  <nAHRing 2>
1

>  <nFRing>
1

>  <nFHRing>
1

>  <nFaRing>
0

>  <nFaHRing>
0

>  <nFARing 2>
1

>  <nFAHRing 2>
1

>  <nRot>
3

>  <SLogP>
4.29

>  <SMR>
82.69

>  <TopoPSA(NO)>
29.26

>  <TopoPSA>
54.56

>  <JGI1>
0.14

>  <JGI2>
0.07

>  <JGI3>
0.04

>  <JGI4>
0.05

>  <JGI5>
0.02

>  <Diameter>
8

>  <Radius>
4

>  <TMWC10>
113.61

>  <TSRW10>
52.67

>  <MW>
290.06

>  <AMW>
8.53

>  <WPath>
650

>  <WPol>
31

>  <Zagreb1>
100

>  <Zagreb2>
119

>  <mZagreb2>
4.28

>  <yes>


>  <nAR-cont>
0.816016

>  <nHA-cont>
0.998649058

>  <MWHBN>
0.234863793

>  <MWHBN-cont>
0.981468031

>  <TPSA-cont>
0.61913732

>  <pka_cont>
0.97

>  <yes.1>


>  <BBB_SCORE>
5.010141745

>  <MMFF94 Energy>
57.634

$$$$
Compound 705
Actelion Java MolfileCreator 2.0

  0  0  0  0  0  0              0 V3000
M  V30 BEGIN CTAB
M  V30 COUNTS 29 28 0 0 0
M  V30 BEGIN ATOM
M  V30 1 C -1.6025 0.6865 -1.908 0
M  V30 2 C -0.8916 0.1224 -0.6624 0
M  V30 3 C -2.6744 -0.2982 -2.383 0
M  V30 4 C -2.2391 2.0535 -1.6519 0
M  V30 5 C 0.3092 0.9619 -0.2137 0
M  V30 6 C 1.0244 0.3895 1.016 0
M  V30 7 C 1.7198 -0.9478 0.7477 0
M  V30 8 C 2.6173 -1.4021 1.9019 0
M  V30 9 C 1.8524 -1.7066 3.1808 0
M  V30 10 H -0.8663 0.7957 -2.7144 0
M  V30 11 H -1.6066 0.0372 0.1657 0
M  V30 12 H -0.5532 -0.8944 -0.8925 0
M  V30 13 H -2.2325 -1.2729 -2.6155 0
M  V30 14 H -3.4437 -0.448 -1.6177 0
M  V30 15 H -3.1656 0.0683 -3.2906 0
M  V30 16 H -1.4815 2.8144 -1.4424 0
M  V30 17 H -2.931 2.0168 -0.8036 0
M  V30 18 H -2.8001 2.3912 -2.5302 0
M  V30 19 H -0.0247 1.9735 0.0423 0
M  V30 20 H 1.0224 1.062 -1.0406 0
M  V30 21 H 0.3026 0.2834 1.834 0
M  V30 22 H 1.7727 1.1211 1.3451 0
M  V30 23 H 2.3394 -0.8571 -0.1527 0
M  V30 24 H 0.9766 -1.7274 0.546 0
M  V30 25 H 3.1512 -2.3079 1.5907 0
M  V30 26 H 3.3789 -0.6402 2.1051 0
M  V30 27 H 2.5317 -2.1137 3.9366 0
M  V30 28 H 1.3945 -0.8052 3.5986 0
M  V30 29 H 1.0642 -2.4446 3.0012 0
M  V30 END ATOM
M  V30 BEGIN BOND
M  V30 1 1 1 2
M  V30 2 1 1 3
M  V30 3 1 1 4
M  V30 4 1 2 5
M  V30 5 1 5 6
M  V30 6 1 6 7
M  V30 7 1 7 8
M  V30 8 1 8 9
M  V30 9 1 1 10
M  V30 10 1 2 11
M  V30 11 1 2 12
M  V30 12 1 3 13
M  V30 13 1 3 14
M  V30 14 1 3 15
M  V30 15 1 4 16
M  V30 16 1 4 17
M  V30 17 1 4 18
M  V30 18 1 5 19
M  V30 19 1 5 20
M  V30 20 1 6 21
M  V30 21 1 6 22
M  V30 22 1 7 23
M  V30 23 1 7 24
M  V30 24 1 8 25
M  V30 25 1 8 26
M  V30 26 1 9 27
M  V30 27 1 9 28
M  V30 28 1 9 29
M  V30 END BOND
M  V30 END CTAB
M  END
>  <Column 1>
848

>  <level_0>
970

>  <index>
970

>  <Unnamed: 0>
970

>  <NO.>
982

>  <Name>
2-methyl nonane

>  <IUPAC_name>
2-methyloctane

>  <SMILES>
CCCCCCC(C)C

>  <CID>
18591

>  <logBB>
0.98

>  <BBB+/BBB->
BBB+

>  <Inchi>
InChI=1S/C9H20/c1-4-5-6-7-8-9(2)3/h9H-4-8H2-1-3H3

>  <threshold>


>  <reference>
R21|R25|R27|R46|R47|R2|R2|R8|R27|R40|R3|R38|R41|

>  <group>
A

>  <Class>
1

>  <ABC>
5.88

>  <ABCGG>
5.94

>  <nAcid>
0

>  <nBase>
0

>  <nAromAtom>
0

>  <nAromBond>
0

>  <nAtom>
29

>  <nHeavyAtom>
9

>  <nSpiro>
0

>  <nBridgehead>
0

>  <nHetero>
0

>  <nN>
0

>  <nO>
0

>  <nF>
0

>  <BalabanJ>
2.75

>  <BertzCT>
46

>  <nBonds>
28

>  <nBondsO>
8

>  <nBondsS>
28

>  <nBondsD>
0

>  <nBondsT>
0

>  <nBondsA>
0

>  <nBondsM>
0

>  <nBondsKS>
28

>  <nBondsKD>
0

>  <RNCG>
0.13

>  <RPCG>
0.06

>  <FCSP3>
1

>  <SZ>
12.33

>  <Sm>
10.68

>  <Sv>
14.42

>  <Sse>
27.88

>  <Sp>
16.99

>  <Si>
33.15

>  <MZ>
0.43

>  <Mm>
0.37

>  <Mv>
0.5

>  <Mse>
0.96

>  <Mp>
0.59

>  <Mi>
1.14

>  <NsCH3>
3

>  <NdCH2>
0

>  <NssCH2>
5

>  <NtCH>
0

>  <NdsCH>
0

>  <NaaCH>
0

>  <NsssCH>
1

>  <NddC>
0

>  <NtsC>
0

>  <NdssC>
0

>  <NaasC>
0

>  <NaaaC>
0

>  <NssssC>
0

>  <NsNH3>
0

>  <NsNH2>
0

>  <NssNH2>
0

>  <NdNH>
0

>  <NssNH>
0

>  <NaaNH>
0

>  <NtN>
0

>  <NsssNH>
0

>  <NdsN>
0

>  <NaaN>
0

>  <NsssN>
0

>  <NddsN>
0

>  <NaasN>
0

>  <NssssN>
0

>  <NsOH>
0

>  <NdO>
0

>  <NssO>
0

>  <NaaO>
0

>  <NsF>
0

>  <NsSiH3>
0

>  <NssSiH2>
0

>  <NsssSiH>
0

>  <NssssSi>
0

>  <NsPH2>
0

>  <NssPH>
0

>  <NsssP>
0

>  <NdsssP>
0

>  <NsssssP>
0

>  <NsSH>
0

>  <NdS>
0

>  <NssS>
0

>  <NaaS>
0

>  <NdssS>
0

>  <NddssS>
0

>  <NsCl>
0

>  <NsBr>
0

>  <NsI>
0

>  <fragCpx>
8

>  <fMF>
0

>  <nHBAcc>
0

>  <nHBDon>
0

>  <Kier1>
9

>  <Kier2>
6.13

>  <Lipinski>
1

>  <GhoseFilter>
0

>  <FilterItLogS>
-3.07

>  <VMcGowan>
137.67

>  <LabuteASA>
59.66

>  <PEOE_VSA1>
0

>  <PEOE_VSA2>
0

>  <PEOE_VSA3>
0

>  <PEOE_VSA4>
0

>  <PEOE_VSA5>
0

>  <PEOE_VSA6>
52.88

>  <PEOE_VSA7>
5.92

>  <PEOE_VSA8>
0

>  <PEOE_VSA9>
0

>  <PEOE_VSA10>
0

>  <PEOE_VSA11>
0

>  <PEOE_VSA12>
0

>  <PEOE_VSA13>
0

>  <SMR_VSA1>
0

>  <SMR_VSA2>
0

>  <SMR_VSA3>
0

>  <SMR_VSA4>
5.92

>  <SMR_VSA5>
52.88

>  <SMR_VSA6>
0

>  <SMR_VSA7>
0

>  <SMR_VSA8>
0

>  <SMR_VSA9>
0

>  <SlogP_VSA1>
0

>  <SlogP_VSA2>
0

>  <SlogP_VSA3>
0

>  <SlogP_VSA4>
5.92

>  <SlogP_VSA5>
52.88

>  <SlogP_VSA6>
0

>  <SlogP_VSA7>
0

>  <SlogP_VSA8>
0

>  <SlogP_VSA9>
0

>  <SlogP_VSA10>
0

>  <SlogP_VSA11>
0

>  <EState_VSA1>
0

>  <EState_VSA2>
0

>  <EState_VSA3>
0

>  <EState_VSA4>
5.92

>  <EState_VSA5>
32.1

>  <EState_VSA6>
0

>  <EState_VSA7>
0

>  <EState_VSA8>
20.77

>  <EState_VSA9>
0

>  <EState_VSA10>
0

>  <VSA_EState1>
0

>  <VSA_EState2>
0

>  <VSA_EState3>
0

>  <VSA_EState4>
0

>  <VSA_EState5>
0.9

>  <VSA_EState6>
0

>  <VSA_EState7>
7.07

>  <VSA_EState8>
6.85

>  <VSA_EState9>
0

>  <apol>
28.37

>  <bpol>
20.06

>  <nRing>
0

>  <nHRing>
0

>  <naRing>
0

>  <naHRing>
0

>  <nARing 2>
0

>  <nAHRing 2>
0

>  <nFRing>
0

>  <nFHRing>
0

>  <nFaRing>
0

>  <nFaHRing>
0

>  <nFARing 2>
0

>  <nFAHRing 2>
0

>  <nRot>
5

>  <SLogP>
3.61

>  <SMR>
43.6

>  <TopoPSA(NO)>
0

>  <TopoPSA>
0

>  <JGI1>
0.19

>  <JGI2>
0.06

>  <JGI3>
0.04

>  <JGI4>
0.03

>  <JGI5>
0.03

>  <Diameter>
7

>  <Radius>
4

>  <TMWC10>
72.12

>  <TSRW10>
34.75

>  <MW>
128.16

>  <AMW>
4.42

>  <WPath>
114

>  <WPol>
6

>  <Zagreb1>
32

>  <Zagreb2>
30

>  <mZagreb2>
2.33

>  <yes>


>  <nAR-cont>
0.336376

>  <nHA-cont>
0.56070381

>  <MWHBN>
0

>  <MWHBN-cont>
0

>  <TPSA-cont>
0

>  <pka_cont>
0.97

>  <yes.1>


>  <BBB_SCORE>
1.38207981

>  <MMFF94 Energy>
1.3364

$$$$
Compound 706
Actelion Java MolfileCreator 2.0

  0  0  0  0  0  0              0 V3000
M  V30 BEGIN CTAB
M  V30 COUNTS 58 60 0 0 0
M  V30 BEGIN ATOM
M  V30 1 O -3.9492 0.4732 1.5782 0
M  V30 2 C -2.7114 0.9496 1.9225 0
M  V30 3 C -5.0219 0.7232 2.4773 0
M  V30 4 C -1.6696 0.6854 1.0209 0
M  V30 5 C -2.4357 1.6697 3.0875 0
M  V30 6 C -0.38 1.1884 1.3011 0
M  V30 7 C -1.9101 -0.0595 -0.2787 0
M  V30 8 C -1.1427 2.1407 3.3569 0
M  V30 9 C -0.0846 1.9143 2.4694 0
M  V30 10 N -0.8239 -0.998 -0.5653 0
M  V30 11 C 1.3463 2.4183 2.7204 0
M  V30 12 C -0.8333 -1.5341 -1.9337 0
M  V30 13 C 2.322 1.2217 2.7568 0
M  V30 14 C 1.765 3.3785 1.5858 0
M  V30 15 C 1.5115 3.1835 4.0527 0
M  V30 16 C 0.5496 -2.2036 -2.2889 0
M  V30 17 C -1.9668 -2.5598 -2.1181 0
M  V30 18 N 0.5341 -2.8091 -3.6371 0
M  V30 19 C 1.7768 -1.2965 -2.1841 0
M  V30 20 C -1.9075 -3.1889 -3.5068 0
M  V30 21 C -0.5349 -3.791 -3.7812 0
M  V30 22 C 3.0365 -1.8883 -1.9762 0
M  V30 23 C 1.7199 0.0993 -2.317 0
M  V30 24 C 4.1924 -1.111 -1.8784 0
M  V30 25 C 2.8767 0.8778 -2.2156 0
M  V30 26 C 4.1113 0.2734 -1.9942 0
M  V30 27 H -4.8428 0.2491 3.4478 0
M  V30 28 H -5.9251 0.2756 2.0513 0
M  V30 29 H -5.2038 1.7974 2.5866 0
M  V30 30 H -3.2075 1.8913 3.8172 0
M  V30 31 H 0.4112 0.9937 0.5769 0
M  V30 32 H -1.9923 0.6933 -1.0722 0
M  V30 33 H -2.8541 -0.6113 -0.2404 0
M  V30 34 H -0.9967 2.6931 4.281 0
M  V30 35 H -0.8325 -1.7466 0.1254 0
M  V30 36 H -1.0036 -0.7123 -2.6423 0
M  V30 37 H 2.3561 0.6842 1.8028 0
M  V30 38 H 3.3445 1.5523 2.9738 0
M  V30 39 H 2.0331 0.5008 3.5308 0
M  V30 40 H 1.0742 4.2268 1.5119 0
M  V30 41 H 2.7699 3.7807 1.7593 0
M  V30 42 H 1.7829 2.8833 0.6088 0
M  V30 43 H 1.2614 2.5527 4.9137 0
M  V30 44 H 0.8758 4.076 4.0872 0
M  V30 45 H 2.5462 3.5201 4.1895 0
M  V30 46 H 0.7061 -3.0127 -1.559 0
M  V30 47 H -1.8886 -3.3501 -1.3601 0
M  V30 48 H -2.9467 -2.0869 -1.9882 0
M  V30 49 H 0.4185 -2.0612 -4.3202 0
M  V30 50 H -2.1383 -2.4292 -4.2642 0
M  V30 51 H -2.6749 -3.9667 -3.5908 0
M  V30 52 H -0.5113 -4.191 -4.8008 0
M  V30 53 H -0.3516 -4.6393 -3.1107 0
M  V30 54 H 3.1175 -2.9706 -1.8964 0
M  V30 55 H 0.7754 0.6074 -2.4875 0
M  V30 56 H 5.1541 -1.5893 -1.7156 0
M  V30 57 H 2.8102 1.9585 -2.3095 0
M  V30 58 H 5.009 0.88 -1.9174 0
M  V30 END ATOM
M  V30 BEGIN BOND
M  V30 1 1 1 2
M  V30 2 1 1 3
M  V30 3 2 2 4
M  V30 4 1 2 5
M  V30 5 1 4 6
M  V30 6 1 4 7
M  V30 7 2 5 8
M  V30 8 2 6 9
M  V30 9 1 7 10
M  V30 10 1 9 11
M  V30 11 1 10 12
M  V30 12 1 11 13
M  V30 13 1 11 14
M  V30 14 1 11 15
M  V30 15 1 12 16
M  V30 16 1 12 17
M  V30 17 1 16 18
M  V30 18 1 16 19
M  V30 19 1 17 20
M  V30 20 1 18 21
M  V30 21 2 19 22
M  V30 22 1 19 23
M  V30 23 1 22 24
M  V30 24 2 23 25
M  V30 25 2 24 26
M  V30 26 1 8 9
M  V30 27 1 20 21
M  V30 28 1 25 26
M  V30 29 1 3 27
M  V30 30 1 3 28
M  V30 31 1 3 29
M  V30 32 1 5 30
M  V30 33 1 6 31
M  V30 34 1 7 32
M  V30 35 1 7 33
M  V30 36 1 8 34
M  V30 37 1 10 35
M  V30 38 1 12 36
M  V30 39 1 13 37
M  V30 40 1 13 38
M  V30 41 1 13 39
M  V30 42 1 14 40
M  V30 43 1 14 41
M  V30 44 1 14 42
M  V30 45 1 15 43
M  V30 46 1 15 44
M  V30 47 1 15 45
M  V30 48 1 16 46
M  V30 49 1 17 47
M  V30 50 1 17 48
M  V30 51 1 18 49
M  V30 52 1 20 50
M  V30 53 1 20 51
M  V30 54 1 21 52
M  V30 55 1 21 53
M  V30 56 1 22 54
M  V30 57 1 23 55
M  V30 58 1 24 56
M  V30 59 1 25 57
M  V30 60 1 26 58
M  V30 END BOND
M  V30 END CTAB
M  END
>  <Column 1>
849

>  <level_0>
971

>  <index>
971

>  <Unnamed: 0>
971

>  <NO.>
983

>  <Name>
pfizer compound 6

>  <IUPAC_name>
n-[(5-tert-butyl-2-methoxyphenyl)methyl]-2-phenylpiperidin-3-amine

>  <SMILES>
COc1ccc(C(C)(C)C)cc1CNC1CCCNC1c1ccccc1

>  <CID>
18533772

>  <logBB>
0.98

>  <BBB+/BBB->
BBB+

>  <Inchi>
InChI=1S/C23H32N2O/c1-23(2-3)19-12-13-21(26-4)18(15-19)16-25-20-11-8-14-24-22(20)17-9-6-5-7-10-17/h5-7-9-10-12-13-15-20-22-24-25H-8-11-14-16H2-1-4H3

>  <threshold>


>  <reference>
R25|R46|R47|R4|R2|R2|R27|R40|

>  <group>
A

>  <Class>
1

>  <ABC>
20.09

>  <ABCGG>
16.07

>  <nAcid>
0

>  <nBase>
2

>  <nAromAtom>
12

>  <nAromBond>
12

>  <nAtom>
58

>  <nHeavyAtom>
26

>  <nSpiro>
0

>  <nBridgehead>
0

>  <nHetero>
3

>  <nN>
2

>  <nO>
1

>  <nF>
0

>  <BalabanJ>
1.57

>  <BertzCT>
705.89

>  <nBonds>
60

>  <nBondsO>
28

>  <nBondsS>
48

>  <nBondsD>
0

>  <nBondsT>
0

>  <nBondsA>
12

>  <nBondsM>
12

>  <nBondsKS>
54

>  <nBondsKD>
6

>  <RNCG>
0.27

>  <RPCG>
0.07

>  <FCSP3>
0.48

>  <SZ>
32

>  <Sm>
29.35

>  <Sv>
33.9

>  <Sse>
56.86

>  <Sp>
37.57

>  <Si>
65.44

>  <MZ>
0.55

>  <Mm>
0.51

>  <Mv>
0.58

>  <Mse>
0.98

>  <Mp>
0.65

>  <Mi>
1.13

>  <NsCH3>
4

>  <NdCH2>
0

>  <NssCH2>
4

>  <NtCH>
0

>  <NdsCH>
0

>  <NaaCH>
8

>  <NsssCH>
2

>  <NddC>
0

>  <NtsC>
0

>  <NdssC>
0

>  <NaasC>
4

>  <NaaaC>
0

>  <NssssC>
1

>  <NsNH3>
0

>  <NsNH2>
0

>  <NssNH2>
0

>  <NdNH>
0

>  <NssNH>
2

>  <NaaNH>
0

>  <NtN>
0

>  <NsssNH>
0

>  <NdsN>
0

>  <NaaN>
0

>  <NsssN>
0

>  <NddsN>
0

>  <NaasN>
0

>  <NssssN>
0

>  <NsOH>
0

>  <NdO>
0

>  <NssO>
1

>  <NaaO>
0

>  <NsF>
0

>  <NsSiH3>
0

>  <NssSiH2>
0

>  <NsssSiH>
0

>  <NssssSi>
0

>  <NsPH2>
0

>  <NssPH>
0

>  <NsssP>
0

>  <NdsssP>
0

>  <NsssssP>
0

>  <NsSH>
0

>  <NdS>
0

>  <NssS>
0

>  <NaaS>
0

>  <NdssS>
0

>  <NddssS>
0

>  <NsCl>
0

>  <NsBr>
0

>  <NsI>
0

>  <fragCpx>
134.03

>  <fMF>
0.34

>  <nHBAcc>
3

>  <nHBDon>
2

>  <Kier1>
20.73

>  <Kier2>
9.47

>  <Lipinski>
1

>  <GhoseFilter>
1

>  <FilterItLogS>
-6.44

>  <VMcGowan>
302.38

>  <LabuteASA>
157.71

>  <PEOE_VSA1>
15.37

>  <PEOE_VSA2>
0

>  <PEOE_VSA3>
0

>  <PEOE_VSA4>
0

>  <PEOE_VSA5>
0

>  <PEOE_VSA6>
63.24

>  <PEOE_VSA7>
41.99

>  <PEOE_VSA8>
24.19

>  <PEOE_VSA9>
7.11

>  <PEOE_VSA10>
5.75

>  <PEOE_VSA11>
0

>  <PEOE_VSA12>
0

>  <PEOE_VSA13>
0

>  <SMR_VSA1>
4.74

>  <SMR_VSA2>
0

>  <SMR_VSA3>
10.63

>  <SMR_VSA4>
0

>  <SMR_VSA5>
57.66

>  <SMR_VSA6>
13.65

>  <SMR_VSA7>
65.22

>  <SMR_VSA8>
0

>  <SMR_VSA9>
5.75

>  <SlogP_VSA1>
15.37

>  <SlogP_VSA2>
19.7

>  <SlogP_VSA3>
11.96

>  <SlogP_VSA4>
0

>  <SlogP_VSA5>
56.35

>  <SlogP_VSA6>
48.53

>  <SlogP_VSA7>
0

>  <SlogP_VSA8>
0

>  <SlogP_VSA9>
0

>  <SlogP_VSA10>
0

>  <SlogP_VSA11>
5.75

>  <EState_VSA1>
0

>  <EState_VSA2>
5.41

>  <EState_VSA3>
12.08

>  <EState_VSA4>
18.84

>  <EState_VSA5>
29.53

>  <EState_VSA6>
7.11

>  <EState_VSA7>
0

>  <EState_VSA8>
79.94

>  <EState_VSA9>
4.74

>  <EState_VSA10>
0

>  <VSA_EState1>
5.61

>  <VSA_EState2>
0

>  <VSA_EState3>
7.49

>  <VSA_EState4>
4.08

>  <VSA_EState5>
0.96

>  <VSA_EState6>
18.13

>  <VSA_EState7>
2.4

>  <VSA_EState8>
8.66

>  <VSA_EState9>
1.75

>  <apol>
62.75

>  <bpol>
34.98

>  <nRing>
3

>  <nHRing>
1

>  <naRing>
2

>  <naHRing>
0

>  <nARing 2>
1

>  <nAHRing 2>
1

>  <nFRing>
0

>  <nFHRing>
0

>  <nFaRing>
0

>  <nFaHRing>
0

>  <nFARing 2>
0

>  <nFAHRing 2>
0

>  <nRot>
5

>  <SLogP>
4.58

>  <SMR>
108.74

>  <TopoPSA(NO)>
33.29

>  <TopoPSA>
33.29

>  <JGI1>
0.2

>  <JGI2>
0.09

>  <JGI3>
0.04

>  <JGI4>
0.03

>  <JGI5>
0.03

>  <Diameter>
12

>  <Radius>
6

>  <TMWC10>
129.12

>  <TSRW10>
60.91

>  <MW>
352.25

>  <AMW>
6.07

>  <WPath>
1730

>  <WPol>
40

>  <Zagreb1>
134

>  <Zagreb2>
155

>  <mZagreb2>
5.75

>  <yes>


>  <nAR-cont>
0.816016

>  <nHA-cont>
0.892715677

>  <MWHBN>
0.266406308

>  <MWHBN-cont>
0.928093205

>  <TPSA-cont>
0.767615128

>  <pka_cont>
0.97

>  <yes.1>


>  <BBB_SCORE>
5.121101741

>  <MMFF94 Energy>
91.128

$$$$
Compound 707
Actelion Java MolfileCreator 2.0

  0  0  0  0  0  0              0 V3000
M  V30 BEGIN CTAB
M  V30 COUNTS 48 50 0 0 0
M  V30 BEGIN ATOM
M  V30 1 I -3.213 -2.9718 -1.4449 0
M  V30 2 C -2.1375 -1.4966 -0.4051 0
M  V30 3 C -0.8514 -1.064 -0.7663 0
M  V30 4 C -2.7836 -0.9469 0.7127 0
M  V30 5 C -0.2367 -0.0814 0.0412 0
M  V30 6 C -0.0515 -1.6037 -1.9398 0
M  V30 7 C -2.1588 0.0306 1.4882 0
M  V30 8 C -0.8751 0.4723 1.1618 0
M  V30 9 N 0.4279 -0.5463 -2.8509 0
M  V30 10 C -0.1832 1.5343 1.9913 0
M  V30 11 C -0.6486 0.0812 -3.6321 0
M  V30 12 C 1.5046 -1.0227 -3.7296 0
M  V30 13 N 1.059 1.0613 2.6231 0
M  V30 14 C -1.1948 -0.7886 -4.7678 0
M  V30 15 C 1.0307 -1.9461 -4.8537 0
M  V30 16 C 0.8398 0.0432 3.6617 0
M  V30 17 C 1.8601 2.1751 3.1507 0
M  V30 18 C -0.0757 -1.291 -5.6726 0
M  V30 19 C 0.2302 0.5902 4.9553 0
M  V30 20 C 1.287 2.8074 4.4217 0
M  V30 21 C 1.0457 1.7575 5.5011 0
M  V30 22 H -3.7808 -1.2747 0.9972 0
M  V30 23 H 0.768 0.2603 -0.2111 0
M  V30 24 H -0.5869 -2.3757 -2.4943 0
M  V30 25 H 0.8115 -2.1163 -1.4921 0
M  V30 26 H -2.6798 0.4384 2.351 0
M  V30 27 H -0.8816 1.9495 2.7275 0
M  V30 28 H 0.0444 2.3582 1.301 0
M  V30 29 H -0.2531 1.0101 -4.0642 0
M  V30 30 H -1.4732 0.3993 -2.9837 0
M  V30 31 H 2.2842 -1.5231 -3.1423 0
M  V30 32 H 1.9961 -0.1475 -4.1745 0
M  V30 33 H -1.9111 -0.2084 -5.3609 0
M  V30 34 H -1.7459 -1.6428 -4.3601 0
M  V30 35 H 0.6706 -2.8944 -4.4376 0
M  V30 36 H 1.875 -2.1897 -5.5087 0
M  V30 37 H 1.8102 -0.4134 3.898 0
M  V30 38 H 0.2254 -0.7821 3.2849 0
M  V30 39 H 1.9954 2.9459 2.382 0
M  V30 40 H 2.8698 1.801 3.3654 0
M  V30 41 H -0.4742 -2.0024 -6.4041 0
M  V30 42 H 0.3405 -0.4483 -6.2383 0
M  V30 43 H 0.188 -0.2073 5.7059 0
M  V30 44 H -0.8033 0.9113 4.7811 0
M  V30 45 H 0.3478 3.3259 4.1954 0
M  V30 46 H 1.9818 3.5664 4.7991 0
M  V30 47 H 0.5312 2.2086 6.3567 0
M  V30 48 H 2.0106 1.3858 5.8672 0
M  V30 END ATOM
M  V30 BEGIN BOND
M  V30 1 1 1 2
M  V30 2 2 2 3
M  V30 3 1 2 4
M  V30 4 1 3 5
M  V30 5 1 3 6
M  V30 6 2 4 7
M  V30 7 2 5 8
M  V30 8 1 6 9
M  V30 9 1 8 10
M  V30 10 1 9 11
M  V30 11 1 9 12
M  V30 12 1 10 13
M  V30 13 1 11 14
M  V30 14 1 12 15
M  V30 15 1 13 16
M  V30 16 1 13 17
M  V30 17 1 14 18
M  V30 18 1 16 19
M  V30 19 1 17 20
M  V30 20 1 19 21
M  V30 21 1 7 8
M  V30 22 1 15 18
M  V30 23 1 20 21
M  V30 24 1 4 22
M  V30 25 1 5 23
M  V30 26 1 6 24
M  V30 27 1 6 25
M  V30 28 1 7 26
M  V30 29 1 10 27
M  V30 30 1 10 28
M  V30 31 1 11 29
M  V30 32 1 11 30
M  V30 33 1 12 31
M  V30 34 1 12 32
M  V30 35 1 14 33
M  V30 36 1 14 34
M  V30 37 1 15 35
M  V30 38 1 15 36
M  V30 39 1 16 37
M  V30 40 1 16 38
M  V30 41 1 17 39
M  V30 42 1 17 40
M  V30 43 1 18 41
M  V30 44 1 18 42
M  V30 45 1 19 43
M  V30 46 1 19 44
M  V30 47 1 20 45
M  V30 48 1 20 46
M  V30 49 1 21 47
M  V30 50 1 21 48
M  V30 END BOND
M  V30 END CTAB
M  END
>  <Column 1>
850

>  <level_0>
972

>  <index>
972

>  <Unnamed: 0>
972

>  <NO.>
984

>  <Name>
4-iodo-alpha-alpha'- dipiperidino-m-xylene

>  <IUPAC_name>
1-[[2-iodo-5-(piperidin-1-ylmethyl)phenyl]methyl]piperidine

>  <SMILES>
Ic1ccc(CN2CCCCC2)cc1CN1CCCCC1

>  <CID>
12780299

>  <logBB>
0.98

>  <BBB+/BBB->
BBB+

>  <Inchi>
InChI=1S/C18H27IN2/c19-18-8-7-16(14-20-9-3-1-4-10-20)13-17(18)15-21-11-5-2-6-12-21/h7-8-13H-1-6-9-12-14-15H2

>  <threshold>


>  <reference>
R3|R21|R25|R27|R38|R41|R43|R46|R47|R2|R2|R8|R27|R40|

>  <group>
A

>  <Class>
1

>  <ABC>
16.33

>  <ABCGG>
12.61

>  <nAcid>
0

>  <nBase>
2

>  <nAromAtom>
6

>  <nAromBond>
6

>  <nAtom>
48

>  <nHeavyAtom>
21

>  <nSpiro>
0

>  <nBridgehead>
0

>  <nHetero>
3

>  <nN>
2

>  <nO>
0

>  <nF>
0

>  <BalabanJ>
1.46

>  <BertzCT>
448.53

>  <nBonds>
50

>  <nBondsO>
23

>  <nBondsS>
44

>  <nBondsD>
0

>  <nBondsT>
0

>  <nBondsA>
6

>  <nBondsM>
6

>  <nBondsKS>
47

>  <nBondsKD>
3

>  <RNCG>
0.27

>  <RPCG>
0.06

>  <FCSP3>
0.67

>  <SZ>
33.67

>  <Sm>
33.16

>  <Sv>
28.41

>  <Sse>
46.82

>  <Sp>
33.3

>  <Si>
54.12

>  <MZ>
0.7

>  <Mm>
0.69

>  <Mv>
0.59

>  <Mse>
0.98

>  <Mp>
0.69

>  <Mi>
1.13

>  <NsCH3>
0

>  <NdCH2>
0

>  <NssCH2>
12

>  <NtCH>
0

>  <NdsCH>
0

>  <NaaCH>
3

>  <NsssCH>
0

>  <NddC>
0

>  <NtsC>
0

>  <NdssC>
0

>  <NaasC>
3

>  <NaaaC>
0

>  <NssssC>
0

>  <NsNH3>
0

>  <NsNH2>
0

>  <NssNH2>
0

>  <NdNH>
0

>  <NssNH>
0

>  <NaaNH>
0

>  <NtN>
0

>  <NsssNH>
0

>  <NdsN>
0

>  <NaaN>
0

>  <NsssN>
2

>  <NddsN>
0

>  <NaasN>
0

>  <NssssN>
0

>  <NsOH>
0

>  <NdO>
0

>  <NssO>
0

>  <NaaO>
0

>  <NsF>
0

>  <NsSiH3>
0

>  <NssSiH2>
0

>  <NsssSiH>
0

>  <NssssSi>
0

>  <NsPH2>
0

>  <NssPH>
0

>  <NsssP>
0

>  <NdsssP>
0

>  <NsssssP>
0

>  <NsSH>
0

>  <NdS>
0

>  <NssS>
0

>  <NaaS>
0

>  <NdssS>
0

>  <NddssS>
0

>  <NsCl>
0

>  <NsBr>
0

>  <NsI>
1

>  <fragCpx>
109.03

>  <fMF>
0.42

>  <nHBAcc>
2

>  <nHBDon>
0

>  <Kier1>
15.88

>  <Kier2>
8.02

>  <Lipinski>
1

>  <GhoseFilter>
1

>  <FilterItLogS>
-5.07

>  <VMcGowan>
264.79

>  <LabuteASA>
142.58

>  <PEOE_VSA1>
0

>  <PEOE_VSA2>
9.8

>  <PEOE_VSA3>
0

>  <PEOE_VSA4>
0

>  <PEOE_VSA5>
0

>  <PEOE_VSA6>
24.97

>  <PEOE_VSA7>
91.65

>  <PEOE_VSA8>
16.66

>  <PEOE_VSA9>
0

>  <PEOE_VSA10>
0

>  <PEOE_VSA11>
0

>  <PEOE_VSA12>
0

>  <PEOE_VSA13>
0

>  <SMR_VSA1>
0

>  <SMR_VSA2>
0

>  <SMR_VSA3>
9.8

>  <SMR_VSA4>
0

>  <SMR_VSA5>
51.61

>  <SMR_VSA6>
26.18

>  <SMR_VSA7>
32.9

>  <SMR_VSA8>
0

>  <SMR_VSA9>
0

>  <SlogP_VSA1>
0

>  <SlogP_VSA2>
35.98

>  <SlogP_VSA3>
13.09

>  <SlogP_VSA4>
3.57

>  <SlogP_VSA5>
49.65

>  <SlogP_VSA6>
18.2

>  <SlogP_VSA7>
0

>  <SlogP_VSA8>
0

>  <SlogP_VSA9>
0

>  <SlogP_VSA10>
0

>  <SlogP_VSA11>
0

>  <EState_VSA1>
0

>  <EState_VSA2>
0

>  <EState_VSA3>
0

>  <EState_VSA4>
13.09

>  <EState_VSA5>
79.4

>  <EState_VSA6>
0

>  <EState_VSA7>
0

>  <EState_VSA8>
50.59

>  <EState_VSA9>
0

>  <EState_VSA10>
0

>  <VSA_EState1>
1.43

>  <VSA_EState2>
5.25

>  <VSA_EState3>
0

>  <VSA_EState4>
3.04

>  <VSA_EState5>
0

>  <VSA_EState6>
7.11

>  <VSA_EState7>
8.36

>  <VSA_EState8>
7.43

>  <VSA_EState9>
0

>  <apol>
55.61

>  <bpol>
34.19

>  <nRing>
3

>  <nHRing>
2

>  <naRing>
1

>  <naHRing>
0

>  <nARing 2>
2

>  <nAHRing 2>
2

>  <nFRing>
0

>  <nFHRing>
0

>  <nFaRing>
0

>  <nFaHRing>
0

>  <nFARing 2>
0

>  <nFAHRing 2>
0

>  <nRot>
4

>  <SLogP>
4.26

>  <SMR>
97.42

>  <TopoPSA(NO)>
6.48

>  <TopoPSA>
6.48

>  <JGI1>
0.15

>  <JGI2>
0.04

>  <JGI3>
0.03

>  <JGI4>
0.04

>  <JGI5>
0.01

>  <Diameter>
12

>  <Radius>
6

>  <TMWC10>
116

>  <TSRW10>
54.42

>  <MW>
398.12

>  <AMW>
8.29

>  <WPath>
1008

>  <WPol>
28

>  <Zagreb1>
106

>  <Zagreb2>
120

>  <mZagreb2>
4.69

>  <yes>


>  <nAR-cont>
1

>  <nHA-cont>
0.994529749

>  <MWHBN>
0.100235832

>  <MWHBN-cont>
0.73203035

>  <TPSA-cont>
0.954765576

>  <pka_cont>
0.97

>  <yes.1>


>  <BBB_SCORE>
5.487106427

>  <MMFF94 Energy>
31.007

$$$$
Compound 708
Actelion Java MolfileCreator 2.0

  0  0  0  0  0  0              0 V3000
M  V30 BEGIN CTAB
M  V30 COUNTS 48 50 0 0 0
M  V30 BEGIN ATOM
M  V30 1 N -0.7894 0.7104 0.0789 0
M  V30 2 C -0.8208 2.1095 -0.146 0
M  V30 3 C -1.538 -0.2782 -0.6115 0
M  V30 4 C 0.0437 0.3132 1.2439 0
M  V30 5 C -0.5673 2.6571 -1.4113 0
M  V30 6 C -1.1131 2.9967 0.9083 0
M  V30 7 C -1.9286 -0.1729 -1.9668 0
M  V30 8 C -1.9789 -1.4338 0.0814 0
M  V30 9 C 1.1827 -0.6663 0.8657 0 CFG=2
M  V30 10 C -0.5715 4.0515 -1.596 0
M  V30 11 C -0.3098 1.7502 -2.5792 0
M  V30 12 C -1.1221 4.3806 0.7208 0
M  V30 13 C -2.7359 -1.1833 -2.5492 0
M  V30 14 C -1.567 0.9593 -2.906 0
M  V30 15 C -2.758 -2.4311 -0.5135 0
M  V30 16 C 1.6538 -1.3943 2.1477 0
M  V30 17 C 2.3409 0.0841 0.1974 0
M  V30 18 C -0.8436 4.9087 -0.5328 0
M  V30 19 C -3.1414 -2.3035 -1.8344 0
M  V30 20 N 2.7636 -2.345 1.9548 0
M  V30 21 C 2.3699 -3.4927 1.1345 0
M  V30 22 C 3.2597 -2.8116 3.252 0
M  V30 23 H 0.5197 1.1829 1.7185 0
M  V30 24 H -0.6005 -0.1007 2.0287 0
M  V30 25 H -1.3608 2.6068 1.8923 0
M  V30 26 H -1.7485 -1.5756 1.1322 0
M  V30 27 H 0.8096 -1.4095 0.1546 0
M  V30 28 H -0.3702 4.4754 -2.577 0
M  V30 29 H 0.5425 1.0924 -2.3787 0
M  V30 30 H -0.0318 2.3483 -3.4561 0
M  V30 31 H -1.3529 5.04 1.5527 0
M  V30 32 H -3.0498 -1.0929 -3.5881 0
M  V30 33 H -1.4091 0.5302 -3.9051 0
M  V30 34 H -2.434 1.6292 -2.9832 0
M  V30 35 H -3.0732 -3.2932 0.0673 0
M  V30 36 H 0.7993 -1.9098 2.6073 0
M  V30 37 H 1.974 -0.6247 2.8637 0
M  V30 38 H 2.7969 0.8041 0.8855 0
M  V30 39 H 3.1223 -0.6071 -0.1334 0
M  V30 40 H 2.001 0.6325 -0.6841 0
M  V30 41 H -0.8495 5.9841 -0.6869 0
M  V30 42 H -3.7557 -3.0638 -2.3073 0
M  V30 43 H 2.1187 -3.1859 0.1147 0
M  V30 44 H 1.5137 -4.0292 1.5589 0
M  V30 45 H 3.2023 -4.1993 1.038 0
M  V30 46 H 2.4897 -3.3451 3.8212 0
M  V30 47 H 3.6142 -1.9686 3.8557 0
M  V30 48 H 4.1173 -3.4805 3.1193 0
M  V30 END ATOM
M  V30 BEGIN BOND
M  V30 1 1 1 2
M  V30 2 1 1 3
M  V30 3 1 1 4
M  V30 4 2 2 5
M  V30 5 1 2 6
M  V30 6 2 3 7
M  V30 7 1 3 8
M  V30 8 1 4 9
M  V30 9 1 5 10
M  V30 10 1 5 11
M  V30 11 2 6 12
M  V30 12 1 7 13
M  V30 13 1 7 14
M  V30 14 2 8 15
M  V30 15 1 9 16
M  V30 16 1 9 17
M  V30 17 2 10 18
M  V30 18 2 13 19
M  V30 19 1 16 20
M  V30 20 1 20 21
M  V30 21 1 20 22
M  V30 22 1 11 14
M  V30 23 1 12 18
M  V30 24 1 15 19
M  V30 25 1 4 23
M  V30 26 1 4 24
M  V30 27 1 6 25
M  V30 28 1 8 26
M  V30 29 1 9 27
M  V30 30 1 10 28
M  V30 31 1 11 29
M  V30 32 1 11 30
M  V30 33 1 12 31
M  V30 34 1 13 32
M  V30 35 1 14 33
M  V30 36 1 14 34
M  V30 37 1 15 35
M  V30 38 1 16 36
M  V30 39 1 16 37
M  V30 40 1 17 38
M  V30 41 1 17 39
M  V30 42 1 17 40
M  V30 43 1 18 41
M  V30 44 1 19 42
M  V30 45 1 21 43
M  V30 46 1 21 44
M  V30 47 1 21 45
M  V30 48 1 22 46
M  V30 49 1 22 47
M  V30 50 1 22 48
M  V30 END BOND
M  V30 BEGIN COLLECTION
M  V30 MDLV30/STERAC1 ATOMS=(1 9)
M  V30 END COLLECTION
M  V30 END CTAB
M  END
>  <Column 1>
851

>  <level_0>
975

>  <index>
975

>  <Unnamed: 0>
975

>  <NO.>
987

>  <Name>
trimipramine

>  <IUPAC_name>
3-(5-6-dihydrobenzo[b][1]benzazepin-11-yl)-n-n-2-trimethylpropan-1-amine

>  <SMILES>
CC(CN(C)C)CN1c2ccccc2CCc2ccccc21

>  <CID>
5584

>  <logBB>
0.99

>  <BBB+/BBB->
BBB+

>  <Inchi>
InChI=1S/C20H26N2/c1-16(14-21(2)3)15-22-19-10-6-4-8-17(19)12-13-18-9-5-7-11-20(18)22/h4-11-16H-12-15H2-1-3H3

>  <threshold>


>  <reference>
R2|R2|R20|R25|R27|R46|

>  <group>
A

>  <Class>
1

>  <ABC>
17.14

>  <ABCGG>
14.01

>  <nAcid>
0

>  <nBase>
1

>  <nAromAtom>
12

>  <nAromBond>
12

>  <nAtom>
48

>  <nHeavyAtom>
22

>  <nSpiro>
0

>  <nBridgehead>
0

>  <nHetero>
2

>  <nN>
2

>  <nO>
0

>  <nF>
0

>  <BalabanJ>
1.75

>  <BertzCT>
585.61

>  <nBonds>
50

>  <nBondsO>
24

>  <nBondsS>
38

>  <nBondsD>
0

>  <nBondsT>
0

>  <nBondsA>
12

>  <nBondsM>
12

>  <nBondsKS>
44

>  <nBondsKD>
6

>  <RNCG>
0.27

>  <RPCG>
0.05

>  <FCSP3>
0.4

>  <SZ>
26.67

>  <Sm>
24.51

>  <Sv>
28.56

>  <Sse>
46.87

>  <Sp>
31.7

>  <Si>
53.98

>  <MZ>
0.56

>  <Mm>
0.51

>  <Mv>
0.59

>  <Mse>
0.98

>  <Mp>
0.66

>  <Mi>
1.12

>  <NsCH3>
3

>  <NdCH2>
0

>  <NssCH2>
4

>  <NtCH>
0

>  <NdsCH>
0

>  <NaaCH>
8

>  <NsssCH>
1

>  <NddC>
0

>  <NtsC>
0

>  <NdssC>
0

>  <NaasC>
4

>  <NaaaC>
0

>  <NssssC>
0

>  <NsNH3>
0

>  <NsNH2>
0

>  <NssNH2>
0

>  <NdNH>
0

>  <NssNH>
0

>  <NaaNH>
0

>  <NtN>
0

>  <NsssNH>
0

>  <NdsN>
0

>  <NaaN>
0

>  <NsssN>
2

>  <NddsN>
0

>  <NaasN>
0

>  <NssssN>
0

>  <NsOH>
0

>  <NdO>
0

>  <NssO>
0

>  <NaaO>
0

>  <NsF>
0

>  <NsSiH3>
0

>  <NssSiH2>
0

>  <NsssSiH>
0

>  <NssssSi>
0

>  <NsPH2>
0

>  <NssPH>
0

>  <NsssP>
0

>  <NdsssP>
0

>  <NsssssP>
0

>  <NsSH>
0

>  <NdS>
0

>  <NssS>
0

>  <NaaS>
0

>  <NdssS>
0

>  <NddssS>
0

>  <NsCl>
0

>  <NsBr>
0

>  <NsI>
0

>  <fragCpx>
114.02

>  <fMF>
0.31

>  <nHBAcc>
2

>  <nHBDon>
0

>  <Kier1>
16.84

>  <Kier2>
7.71

>  <Lipinski>
1

>  <GhoseFilter>
1

>  <FilterItLogS>
-4.94

>  <VMcGowan>
254.24

>  <LabuteASA>
133.92

>  <PEOE_VSA1>
9.8

>  <PEOE_VSA2>
0

>  <PEOE_VSA3>
0

>  <PEOE_VSA4>
0

>  <PEOE_VSA5>
0

>  <PEOE_VSA6>
43.32

>  <PEOE_VSA7>
56.11

>  <PEOE_VSA8>
24.46

>  <PEOE_VSA9>
0

>  <PEOE_VSA10>
0

>  <PEOE_VSA11>
0

>  <PEOE_VSA12>
0

>  <PEOE_VSA13>
0

>  <SMR_VSA1>
0

>  <SMR_VSA2>
0

>  <SMR_VSA3>
4.9

>  <SMR_VSA4>
5.92

>  <SMR_VSA5>
19.77

>  <SMR_VSA6>
32.08

>  <SMR_VSA7>
59.66

>  <SMR_VSA8>
0

>  <SMR_VSA9>
0

>  <SlogP_VSA1>
4.9

>  <SlogP_VSA2>
32.08

>  <SlogP_VSA3>
12.84

>  <SlogP_VSA4>
5.92

>  <SlogP_VSA5>
18.05

>  <SlogP_VSA6>
48.53

>  <SlogP_VSA7>
0

>  <SlogP_VSA8>
0

>  <SlogP_VSA9>
0

>  <SlogP_VSA10>
11.37

>  <SlogP_VSA11>
0

>  <EState_VSA1>
0

>  <EState_VSA2>
0

>  <EState_VSA3>
5.92

>  <EState_VSA4>
25.93

>  <EState_VSA5>
22.5

>  <EState_VSA6>
0

>  <EState_VSA7>
0

>  <EState_VSA8>
79.35

>  <EState_VSA9>
0

>  <EState_VSA10>
0

>  <VSA_EState1>
0

>  <VSA_EState2>
4.81

>  <VSA_EState3>
0

>  <VSA_EState4>
5.71

>  <VSA_EState5>
0.62

>  <VSA_EState6>
17.77

>  <VSA_EState7>
2.26

>  <VSA_EState8>
4.52

>  <VSA_EState9>
4.31

>  <apol>
52.94

>  <bpol>
29.5

>  <nRing>
3

>  <nHRing>
1

>  <naRing>
2

>  <naHRing>
0

>  <nARing 2>
1

>  <nAHRing 2>
1

>  <nFRing>
1

>  <nFHRing>
1

>  <nFaRing>
0

>  <nFaHRing>
0

>  <nFARing 2>
1

>  <nFAHRing 2>
1

>  <nRot>
4

>  <SLogP>
4.12

>  <SMR>
95.02

>  <TopoPSA(NO)>
6.48

>  <TopoPSA>
6.48

>  <JGI1>
0.17

>  <JGI2>
0.07

>  <JGI3>
0.04

>  <JGI4>
0.03

>  <JGI5>
0.02

>  <Diameter>
9

>  <Radius>
5

>  <TMWC10>
120.17

>  <TSRW10>
64.11

>  <MW>
294.21

>  <AMW>
6.13

>  <WPath>
979

>  <WPol>
37

>  <Zagreb1>
114

>  <Zagreb2>
133

>  <mZagreb2>
4.86

>  <yes>


>  <nAR-cont>
0.816016

>  <nHA-cont>
0.983774276

>  <MWHBN>
0.116600733

>  <MWHBN-cont>
0.814364962

>  <TPSA-cont>
0.954765576

>  <pka_cont>
0.97

>  <yes.1>


>  <BBB_SCORE>
5.415868871

>  <MMFF94 Energy>
69.17

$$$$
Compound 709
Actelion Java MolfileCreator 2.0

  0  0  0  0  0  0              0 V3000
M  V30 BEGIN CTAB
M  V30 COUNTS 40 43 0 0 0
M  V30 BEGIN ATOM
M  V30 1 N -0.1601 -1.0415 -0.2402 0
M  V30 2 C -0.0855 -1.304 1.1215 0
M  V30 3 C 0.3927 0.2144 -0.8181 0 CFG=2
M  V30 4 C -0.195 -2.1949 -1.1554 0
M  V30 5 C -0.7943 -0.4932 2.026 0
M  V30 6 C 0.6428 -2.3831 1.6441 0
M  V30 7 C 0.3145 1.5076 0.0042 0
M  V30 8 C -0.2812 0.4873 -2.2114 0
M  V30 9 C -0.8516 -1.8262 -2.5038 0
M  V30 10 C -0.7545 -0.7523 3.4064 0
M  V30 11 C -1.5728 0.682 1.4909 0
M  V30 12 C 0.6779 -2.6437 3.0174 0
M  V30 13 C -0.6295 1.7598 1.0203 0
M  V30 14 C 1.2234 2.538 -0.3261 0
M  V30 15 N -0.2905 -0.6386 -3.1785 0
M  V30 16 C -0.0213 -1.8276 3.899 0
M  V30 17 C -0.6561 3.0149 1.6569 0
M  V30 18 C 1.1895 3.7768 0.315 0
M  V30 19 C 1.0423 -0.897 -3.7159 0
M  V30 20 C 0.2447 4.0169 1.3037 0
M  V30 21 H 1.4625 0.0207 -0.9792 0
M  V30 22 H -0.7816 -3.0137 -0.7191 0
M  V30 23 H 0.8221 -2.5682 -1.324 0
M  V30 24 H 1.2143 -3.0306 0.9861 0
M  V30 25 H -1.3285 0.7759 -2.0405 0
M  V30 26 H 0.1778 1.3598 -2.6944 0
M  V30 27 H -1.919 -1.6358 -2.3278 0
M  V30 28 H -0.8148 -2.6912 -3.1773 0
M  V30 29 H -1.2925 -0.1114 4.1003 0
M  V30 30 H -2.2327 0.3728 0.6702 0
M  V30 31 H -2.2451 1.0681 2.2678 0
M  V30 32 H 1.2571 -3.4818 3.3945 0
M  V30 33 H 1.97 2.3789 -1.1024 0
M  V30 34 H 0.0082 -2.0244 4.967 0
M  V30 35 H -1.3759 3.2122 2.4485 0
M  V30 36 H 1.8994 4.5521 0.0401 0
M  V30 37 H 1.4159 -0.0132 -4.2449 0
M  V30 38 H 1.0035 -1.7067 -4.453 0
M  V30 39 H 1.7768 -1.1694 -2.9519 0
M  V30 40 H 0.2142 4.9787 1.8083 0
M  V30 END ATOM
M  V30 BEGIN BOND
M  V30 1 1 1 2
M  V30 2 1 1 3
M  V30 3 1 1 4
M  V30 4 2 2 5
M  V30 5 1 2 6
M  V30 6 1 3 7
M  V30 7 1 3 8
M  V30 8 1 4 9
M  V30 9 1 5 10
M  V30 10 1 5 11
M  V30 11 2 6 12
M  V30 12 2 7 13
M  V30 13 1 7 14
M  V30 14 1 8 15
M  V30 15 2 10 16
M  V30 16 1 13 17
M  V30 17 2 14 18
M  V30 18 1 15 19
M  V30 19 2 17 20
M  V30 20 1 9 15
M  V30 21 1 11 13
M  V30 22 1 12 16
M  V30 23 1 18 20
M  V30 24 1 3 21
M  V30 25 1 4 22
M  V30 26 1 4 23
M  V30 27 1 6 24
M  V30 28 1 8 25
M  V30 29 1 8 26
M  V30 30 1 9 27
M  V30 31 1 9 28
M  V30 32 1 10 29
M  V30 33 1 11 30
M  V30 34 1 11 31
M  V30 35 1 12 32
M  V30 36 1 14 33
M  V30 37 1 16 34
M  V30 38 1 17 35
M  V30 39 1 18 36
M  V30 40 1 19 37
M  V30 41 1 19 38
M  V30 42 1 19 39
M  V30 43 1 20 40
M  V30 END BOND
M  V30 BEGIN COLLECTION
M  V30 MDLV30/STERAC1 ATOMS=(1 3)
M  V30 END COLLECTION
M  V30 END CTAB
M  END
>  <Column 1>
852

>  <level_0>
976

>  <index>
976

>  <Unnamed: 0>
976

>  <NO.>
988

>  <Name>
24219-97-4

>  <IUPAC_name>
5-methyl-2-5-diazatetracyclo[13.4.0.02-7.08-13]nonadeca-1(19)-8-10-12-15-17-hexaene

>  <SMILES>
CN1CCN2c3ccccc3Cc3ccccc3C2C1

>  <CID>
4184

>  <logBB>
0.99

>  <BBB+/BBB->
BBB+

>  <Inchi>
InChI=1S/C18H20N2/c1-19-10-11-20-17-9-5-3-7-15(17)12-14-6-2-4-8-16(14)18(20)13-19/h2-9-18H-10-13H2-1H3

>  <threshold>


>  <reference>
R3|R12|R18|R21|R25|R26|R27|R27|R35|R36|R38|R39|R41|R42|R43|R44|R46|R47|R49|R50|R4|R2|R2|R8|R27|R40|

>  <group>
A

>  <Class>
1

>  <ABC>
16.17

>  <ABCGG>
12.43

>  <nAcid>
0

>  <nBase>
1

>  <nAromAtom>
12

>  <nAromBond>
12

>  <nAtom>
40

>  <nHeavyAtom>
20

>  <nSpiro>
0

>  <nBridgehead>
0

>  <nHetero>
2

>  <nN>
2

>  <nO>
0

>  <nF>
0

>  <BalabanJ>
1.64

>  <BertzCT>
634.82

>  <nBonds>
43

>  <nBondsO>
23

>  <nBondsS>
31

>  <nBondsD>
0

>  <nBondsT>
0

>  <nBondsA>
12

>  <nBondsM>
12

>  <nBondsKS>
37

>  <nBondsKD>
6

>  <RNCG>
0.3

>  <RPCG>
0.06

>  <FCSP3>
0.33

>  <SZ>
23.67

>  <Sm>
22.01

>  <Sv>
24.93

>  <Sse>
39.2

>  <Sp>
27.3

>  <Si>
44.73

>  <MZ>
0.59

>  <Mm>
0.55

>  <Mv>
0.62

>  <Mse>
0.98

>  <Mp>
0.68

>  <Mi>
1.12

>  <NsCH3>
1

>  <NdCH2>
0

>  <NssCH2>
4

>  <NtCH>
0

>  <NdsCH>
0

>  <NaaCH>
8

>  <NsssCH>
1

>  <NddC>
0

>  <NtsC>
0

>  <NdssC>
0

>  <NaasC>
4

>  <NaaaC>
0

>  <NssssC>
0

>  <NsNH3>
0

>  <NsNH2>
0

>  <NssNH2>
0

>  <NdNH>
0

>  <NssNH>
0

>  <NaaNH>
0

>  <NtN>
0

>  <NsssNH>
0

>  <NdsN>
0

>  <NaaN>
0

>  <NsssN>
2

>  <NddsN>
0

>  <NaasN>
0

>  <NssssN>
0

>  <NsOH>
0

>  <NdO>
0

>  <NssO>
0

>  <NaaO>
0

>  <NsF>
0

>  <NsSiH3>
0

>  <NssSiH2>
0

>  <NsssSiH>
0

>  <NssssSi>
0

>  <NsPH2>
0

>  <NssPH>
0

>  <NsssP>
0

>  <NdsssP>
0

>  <NsssssP>
0

>  <NsSH>
0

>  <NdS>
0

>  <NssS>
0

>  <NaaS>
0

>  <NdssS>
0

>  <NddssS>
0

>  <NsCl>
0

>  <NsBr>
0

>  <NsI>
0

>  <fragCpx>
149.02

>  <fMF>
0.48

>  <nHBAcc>
2

>  <nHBDon>
0

>  <Kier1>
13.65

>  <Kier2>
5.65

>  <Lipinski>
1

>  <GhoseFilter>
1

>  <FilterItLogS>
-3.92

>  <VMcGowan>
215.2

>  <LabuteASA>
120.19

>  <PEOE_VSA1>
9.8

>  <PEOE_VSA2>
0

>  <PEOE_VSA3>
0

>  <PEOE_VSA4>
0

>  <PEOE_VSA5>
0

>  <PEOE_VSA6>
42.46

>  <PEOE_VSA7>
36.23

>  <PEOE_VSA8>
25.32

>  <PEOE_VSA9>
6.04

>  <PEOE_VSA10>
0

>  <PEOE_VSA11>
0

>  <PEOE_VSA12>
0

>  <PEOE_VSA13>
0

>  <SMR_VSA1>
0

>  <SMR_VSA2>
0

>  <SMR_VSA3>
4.9

>  <SMR_VSA4>
0

>  <SMR_VSA5>
12.46

>  <SMR_VSA6>
31.58

>  <SMR_VSA7>
65.22

>  <SMR_VSA8>
0

>  <SMR_VSA9>
0

>  <SlogP_VSA1>
4.9

>  <SlogP_VSA2>
31.58

>  <SlogP_VSA3>
6.42

>  <SlogP_VSA4>
0

>  <SlogP_VSA5>
22.73

>  <SlogP_VSA6>
48.53

>  <SlogP_VSA7>
0

>  <SlogP_VSA8>
0

>  <SlogP_VSA9>
0

>  <SlogP_VSA10>
5.69

>  <SlogP_VSA11>
0

>  <EState_VSA1>
0

>  <EState_VSA2>
0

>  <EState_VSA3>
6.04

>  <EState_VSA4>
26.06

>  <EState_VSA5>
22.38

>  <EState_VSA6>
0

>  <EState_VSA7>
0

>  <EState_VSA8>
65.38

>  <EState_VSA9>
0

>  <EState_VSA10>
0

>  <VSA_EState1>
0

>  <VSA_EState2>
5.06

>  <VSA_EState3>
0

>  <VSA_EState4>
5.9

>  <VSA_EState5>
0

>  <VSA_EState6>
18.37

>  <VSA_EState7>
1.06

>  <VSA_EState8>
3.38

>  <VSA_EState9>
2.23

>  <apol>
45.6

>  <bpol>
23.48

>  <nRing>
4

>  <nHRing>
2

>  <naRing>
2

>  <naHRing>
0

>  <nARing 2>
2

>  <nAHRing 2>
2

>  <nFRing>
1

>  <nFHRing>
1

>  <nFaRing>
0

>  <nFaHRing>
0

>  <nFARing 2>
1

>  <nFAHRing 2>
1

>  <nRot>
0

>  <SLogP>
3.08

>  <SMR>
83.27

>  <TopoPSA(NO)>
6.48

>  <TopoPSA>
6.48

>  <JGI1>
0.13

>  <JGI2>
0.07

>  <JGI3>
0.04

>  <JGI4>
0.04

>  <JGI5>
0.02

>  <Diameter>
8

>  <Radius>
5

>  <TMWC10>
118.07

>  <TSRW10>
62.42

>  <MW>
264.16

>  <AMW>
6.6

>  <WPath>
687

>  <WPol>
38

>  <Zagreb1>
112

>  <Zagreb2>
136

>  <mZagreb2>
4.31

>  <yes>


>  <nAR-cont>
1

>  <nHA-cont>
0.999629945

>  <MWHBN>
0.123054207

>  <MWHBN-cont>
0.842266724

>  <TPSA-cont>
0.954765576

>  <pka_cont>
0.97

>  <yes.1>


>  <BBB_SCORE>
5.657561183

>  <MMFF94 Energy>
154.97

$$$$
Compound 710
Actelion Java MolfileCreator 2.0

  0  0  0  0  0  0              0 V3000
M  V30 BEGIN CTAB
M  V30 COUNTS 48 51 0 0 0
M  V30 BEGIN ATOM
M  V30 1 O 0.5571 -0.5571 2.3896 0
M  V30 2 C 1.6604 -0.0324 2.3439 0
M  V30 3 O 2.3462 0.2781 1.1712 0
M  V30 4 N 2.4426 0.3559 3.4012 0
M  V30 5 C 1.6999 -0.0027 -0.0424 0
M  V30 6 C 2.1724 0.2453 4.7758 0
M  V30 7 C 0.4754 0.5792 -0.3623 0
M  V30 8 C 2.379 -0.82 -0.9529 0
M  V30 9 C 1.0262 -0.3569 5.298 0
M  V30 10 C 3.1234 0.7721 5.6596 0
M  V30 11 C -0.0708 0.2873 -1.6058 0
M  V30 12 C 1.8117 -1.0935 -2.2016 0
M  V30 13 C 0.8323 -0.4289 6.6815 0
M  V30 14 C 2.9292 0.7001 7.0416 0
M  V30 15 C 0.5831 -0.5388 -2.5254 0
M  V30 16 C -1.3898 0.7436 -2.1806 0 CFG=1
M  V30 17 C 1.7822 0.0991 7.5526 0
M  V30 18 N -0.1309 -0.6811 -3.6945 0
M  V30 19 C -1.4299 -0.0173 -3.5628 0 CFG=1
M  V30 20 C -2.59 0.1963 -1.4037 0
M  V30 21 C -1.4391 2.2631 -2.335 0
M  V30 22 C 0.1092 -1.682 -4.6997 0
M  V30 23 N -2.6557 -0.8471 -3.5444 0
M  V30 24 C -2.9282 -1.0991 -2.1237 0
M  V30 25 C -3.7707 -0.1731 -4.2037 0
M  V30 26 H 3.3179 0.7788 3.1266 0
M  V30 27 H -0.0417 1.2239 0.3391 0
M  V30 28 H 3.3437 -1.2448 -0.6929 0
M  V30 29 H 0.2618 -0.7847 4.6565 0
M  V30 30 H 4.0273 1.2468 5.287 0
M  V30 31 H 2.3376 -1.7306 -2.9037 0
M  V30 32 H -0.0645 -0.901 7.0752 0
M  V30 33 H 3.6734 1.113 7.7179 0
M  V30 34 H 1.6277 0.0408 8.627 0
M  V30 35 H -1.4868 0.7048 -4.389 0
M  V30 36 H -2.3877 0.0235 -0.3415 0
M  V30 37 H -3.4437 0.8825 -1.4668 0
M  V30 38 H -1.4176 2.7625 -1.3597 0
M  V30 39 H -2.3519 2.5796 -2.8513 0
M  V30 40 H -0.5853 2.6338 -2.9141 0
M  V30 41 H -0.518 -1.5085 -5.5807 0
M  V30 42 H 1.1507 -1.6613 -5.0369 0
M  V30 43 H -0.1148 -2.6821 -4.3141 0
M  V30 44 H -2.2754 -1.9079 -1.7723 0
M  V30 45 H -3.9584 -1.4211 -1.9353 0
M  V30 46 H -4.004 0.8056 -3.7715 0
M  V30 47 H -4.673 -0.7927 -4.1543 0
M  V30 48 H -3.5501 -0.0309 -5.2677 0
M  V30 END ATOM
M  V30 BEGIN BOND
M  V30 1 2 1 2
M  V30 2 1 2 3
M  V30 3 1 2 4
M  V30 4 1 3 5
M  V30 5 1 4 6
M  V30 6 2 5 7
M  V30 7 1 5 8
M  V30 8 2 6 9
M  V30 9 1 6 10
M  V30 10 1 7 11
M  V30 11 2 8 12
M  V30 12 1 9 13
M  V30 13 2 10 14
M  V30 14 2 11 15
M  V30 15 1 11 16
M  V30 16 2 13 17
M  V30 17 1 15 18
M  V30 18 1 16 19
M  V30 19 1 16 20
M  V30 20 1 16 21
M  V30 21 1 18 22
M  V30 22 1 19 23
M  V30 23 1 20 24
M  V30 24 1 23 25
M  V30 25 1 12 15
M  V30 26 1 14 17
M  V30 27 1 18 19
M  V30 28 1 23 24
M  V30 29 1 4 26
M  V30 30 1 7 27
M  V30 31 1 8 28
M  V30 32 1 9 29
M  V30 33 1 10 30
M  V30 34 1 12 31
M  V30 35 1 13 32
M  V30 36 1 14 33
M  V30 37 1 17 34
M  V30 38 1 19 35
M  V30 39 1 20 36
M  V30 40 1 20 37
M  V30 41 1 21 38
M  V30 42 1 21 39
M  V30 43 1 21 40
M  V30 44 1 22 41
M  V30 45 1 22 42
M  V30 46 1 22 43
M  V30 47 1 24 44
M  V30 48 1 24 45
M  V30 49 1 25 46
M  V30 50 1 25 47
M  V30 51 1 25 48
M  V30 END BOND
M  V30 BEGIN COLLECTION
M  V30 MDLV30/STEABS ATOMS=(2 16 19)
M  V30 END COLLECTION
M  V30 END CTAB
M  END
>  <Column 1>
853

>  <level_0>
977

>  <index>
977

>  <Unnamed: 0>
977

>  <NO.>
989

>  <Name>
phenserine

>  <IUPAC_name>
[(3ar-8bs)-3-4-8b-trimethyl-2-3a-dihydro-1h-pyrrolo[2-3-b]indol-7-yl] n-phenylcarbamate

>  <SMILES>
CN1CC[C@@]2(C)c3cc(OC(=O)Nc4ccccc4)ccc3N(C)[C@@H]12

>  <CID>
192706

>  <logBB>
1

>  <BBB+/BBB->
BBB+

>  <Inchi>
InChI=1S/C20H23N3O2/c1-20-11-12-22(2)18(20)23(3)17-10-9-15(13-16(17)20)25-19(24)21-14-7-5-4-6-8-14/h4-10-13-18H-11-12H2-1-3H3-(H-21-24)/t18--20+/m1/s1

>  <threshold>


>  <reference>
R20|R8|R11|R11|R17|R21|R44|R48|

>  <group>
A

>  <Class>
1

>  <ABC>
20

>  <ABCGG>
16.14

>  <nAcid>
0

>  <nBase>
1

>  <nAromAtom>
12

>  <nAromBond>
12

>  <nAtom>
48

>  <nHeavyAtom>
25

>  <nSpiro>
0

>  <nBridgehead>
0

>  <nHetero>
5

>  <nN>
3

>  <nO>
2

>  <nF>
0

>  <BalabanJ>
1.35

>  <BertzCT>
807.84

>  <nBonds>
51

>  <nBondsO>
28

>  <nBondsS>
38

>  <nBondsD>
1

>  <nBondsT>
0

>  <nBondsA>
12

>  <nBondsM>
13

>  <nBondsKS>
44

>  <nBondsKD>
7

>  <RNCG>
0.21

>  <RPCG>
0.21

>  <FCSP3>
0.35

>  <SZ>
30

>  <Sm>
28.09

>  <Sv>
29.93

>  <Sse>
47.86

>  <Sp>
32.12

>  <Si>
54.07

>  <MZ>
0.63

>  <Mm>
0.59

>  <Mv>
0.62

>  <Mse>
1

>  <Mp>
0.67

>  <Mi>
1.13

>  <NsCH3>
3

>  <NdCH2>
0

>  <NssCH2>
2

>  <NtCH>
0

>  <NdsCH>
0

>  <NaaCH>
8

>  <NsssCH>
1

>  <NddC>
0

>  <NtsC>
0

>  <NdssC>
1

>  <NaasC>
4

>  <NaaaC>
0

>  <NssssC>
1

>  <NsNH3>
0

>  <NsNH2>
0

>  <NssNH2>
0

>  <NdNH>
0

>  <NssNH>
1

>  <NaaNH>
0

>  <NtN>
0

>  <NsssNH>
0

>  <NdsN>
0

>  <NaaN>
0

>  <NsssN>
2

>  <NddsN>
0

>  <NaasN>
0

>  <NssssN>
0

>  <NsOH>
0

>  <NdO>
1

>  <NssO>
1

>  <NaaO>
0

>  <NsF>
0

>  <NsSiH3>
0

>  <NssSiH2>
0

>  <NsssSiH>
0

>  <NssssSi>
0

>  <NsPH2>
0

>  <NssPH>
0

>  <NsssP>
0

>  <NdsssP>
0

>  <NsssssP>
0

>  <NsSH>
0

>  <NdS>
0

>  <NssS>
0

>  <NaaS>
0

>  <NdssS>
0

>  <NddssS>
0

>  <NsCl>
0

>  <NsBr>
0

>  <NsI>
0

>  <fragCpx>
184.05

>  <fMF>
0.44

>  <nHBAcc>
4

>  <nHBDon>
1

>  <Kier1>
18.37

>  <Kier2>
7.2

>  <Lipinski>
1

>  <GhoseFilter>
1

>  <FilterItLogS>
-4.11

>  <VMcGowan>
260.8

>  <LabuteASA>
147.74

>  <PEOE_VSA1>
9.64

>  <PEOE_VSA2>
10.22

>  <PEOE_VSA3>
4.79

>  <PEOE_VSA4>
0

>  <PEOE_VSA5>
0

>  <PEOE_VSA6>
25.12

>  <PEOE_VSA7>
49.36

>  <PEOE_VSA8>
30.38

>  <PEOE_VSA9>
6.17

>  <PEOE_VSA10>
5.75

>  <PEOE_VSA11>
0

>  <PEOE_VSA12>
0

>  <PEOE_VSA13>
0

>  <SMR_VSA1>
9.53

>  <SMR_VSA2>
0

>  <SMR_VSA3>
4.9

>  <SMR_VSA4>
0

>  <SMR_VSA5>
24.93

>  <SMR_VSA6>
30.86

>  <SMR_VSA7>
54.09

>  <SMR_VSA8>
0

>  <SMR_VSA9>
5.75

>  <SlogP_VSA1>
14.95

>  <SlogP_VSA2>
37.8

>  <SlogP_VSA3>
5.41

>  <SlogP_VSA4>
0

>  <SlogP_VSA5>
18.91

>  <SlogP_VSA6>
48.53

>  <SlogP_VSA7>
0

>  <SlogP_VSA8>
0

>  <SlogP_VSA9>
0

>  <SlogP_VSA10>
16.17

>  <SlogP_VSA11>
5.75

>  <EState_VSA1>
6.09

>  <EState_VSA2>
5.41

>  <EState_VSA3>
11.92

>  <EState_VSA4>
18.65

>  <EState_VSA5>
11.25

>  <EState_VSA6>
0

>  <EState_VSA7>
42.46

>  <EState_VSA8>
42.2

>  <EState_VSA9>
4.74

>  <EState_VSA10>
4.79

>  <VSA_EState1>
5.52

>  <VSA_EState2>
16.88

>  <VSA_EState3>
2.75

>  <VSA_EState4>
3.26

>  <VSA_EState5>
0.58

>  <VSA_EState6>
15.26

>  <VSA_EState7>
0.99

>  <VSA_EState8>
3.38

>  <VSA_EState9>
4.31

>  <apol>
53.64

>  <bpol>
29.67

>  <nRing>
4

>  <nHRing>
2

>  <naRing>
2

>  <naHRing>
0

>  <nARing 2>
2

>  <nAHRing 2>
2

>  <nFRing>
1

>  <nFHRing>
1

>  <nFaRing>
0

>  <nFaHRing>
0

>  <nFARing 2>
1

>  <nFAHRing 2>
1

>  <nRot>
2

>  <SLogP>
3.67

>  <SMR>
99.32

>  <TopoPSA(NO)>
44.81

>  <TopoPSA>
44.81

>  <JGI1>
0.21

>  <JGI2>
0.08

>  <JGI3>
0.08

>  <JGI4>
0.04

>  <JGI5>
0.03

>  <Diameter>
13

>  <Radius>
7

>  <TMWC10>
130.72

>  <TSRW10>
77.09

>  <MW>
337.18

>  <AMW>
7.02

>  <WPath>
1548

>  <WPol>
43

>  <Zagreb1>
140

>  <Zagreb2>
171

>  <mZagreb2>
5.32

>  <yes>


>  <nAR-cont>
1

>  <nHA-cont>
0.921834225

>  <MWHBN>
0.272294645

>  <MWHBN-cont>
0.914830282

>  <TPSA-cont>
0.687198375

>  <pka_cont>
0.97

>  <yes.1>


>  <BBB_SCORE>
5.153476396

>  <MMFF94 Energy>
10.501

$$$$
Compound 711
Actelion Java MolfileCreator 2.0

  0  0  0  0  0  0              0 V3000
M  V30 BEGIN CTAB
M  V30 COUNTS 20 19 0 0 0
M  V30 BEGIN ATOM
M  V30 1 C -0.2268 0.9077 -0.6807 0
M  V30 2 C -0.4573 -0.3276 0.2089 0
M  V30 3 C 1.1187 0.8631 -1.4058 0
M  V30 4 C -1.3598 1.0296 -1.7028 0
M  V30 5 C 0.5476 -0.4483 1.3568 0
M  V30 6 C 0.2027 -1.6109 2.2755 0
M  V30 7 H -0.247 1.8049 -0.0492 0
M  V30 8 H -1.4687 -0.2739 0.6323 0
M  V30 9 H -0.422 -1.2378 -0.4031 0
M  V30 10 H 1.9536 0.9048 -0.6999 0
M  V30 11 H 1.219 -0.0508 -2.0007 0
M  V30 12 H 1.2241 1.7188 -2.0814 0
M  V30 13 H -2.3303 1.1065 -1.2012 0
M  V30 14 H -1.3897 0.1605 -2.3687 0
M  V30 15 H -1.2331 1.9255 -2.3198 0
M  V30 16 H 1.5582 -0.6026 0.9647 0
M  V30 17 H 0.5601 0.4789 1.9409 0
M  V30 18 H 0.9347 -1.6833 3.086 0
M  V30 19 H -0.787 -1.4773 2.7234 0
M  V30 20 H 0.2075 -2.5583 1.7273 0
M  V30 END ATOM
M  V30 BEGIN BOND
M  V30 1 1 1 2
M  V30 2 1 1 3
M  V30 3 1 1 4
M  V30 4 1 2 5
M  V30 5 1 5 6
M  V30 6 1 1 7
M  V30 7 1 2 8
M  V30 8 1 2 9
M  V30 9 1 3 10
M  V30 10 1 3 11
M  V30 11 1 3 12
M  V30 12 1 4 13
M  V30 13 1 4 14
M  V30 14 1 4 15
M  V30 15 1 5 16
M  V30 16 1 5 17
M  V30 17 1 6 18
M  V30 18 1 6 19
M  V30 19 1 6 20
M  V30 END BOND
M  V30 END CTAB
M  END
>  <Column 1>
854

>  <level_0>
978

>  <index>
978

>  <Unnamed: 0>
978

>  <NO.>
990

>  <Name>
2-methylpentane (isohexane)

>  <IUPAC_name>
2-methylpentane

>  <SMILES>
CCCC(C)C

>  <CID>
7892

>  <logBB>
1

>  <BBB+/BBB->
BBB+

>  <Inchi>
InChI=1S/C6H14/c1-4-5-6(2)3/h6H-4-5H2-1-3H3

>  <threshold>


>  <reference>
R3|R38|R11|R12|R17|R18|R22|R25|R26|R27|R32|R33|R35|R36|R39|R41|R44|R46|R47|R48|R49|R40|R2|R2|R27|R21|R27|R8|R5|

>  <group>
A

>  <Class>
1

>  <ABC>
3.75

>  <ABCGG>
4.06

>  <nAcid>
0

>  <nBase>
0

>  <nAromAtom>
0

>  <nAromBond>
0

>  <nAtom>
20

>  <nHeavyAtom>
6

>  <nSpiro>
0

>  <nBridgehead>
0

>  <nHetero>
0

>  <nN>
0

>  <nO>
0

>  <nF>
0

>  <BalabanJ>
2.63

>  <BertzCT>
21.22

>  <nBonds>
19

>  <nBondsO>
5

>  <nBondsS>
19

>  <nBondsD>
0

>  <nBondsT>
0

>  <nBondsA>
0

>  <nBondsM>
0

>  <nBondsKS>
19

>  <nBondsKD>
0

>  <RNCG>
0.19

>  <RPCG>
0.09

>  <FCSP3>
1

>  <SZ>
8.33

>  <Sm>
7.17

>  <Sv>
9.79

>  <Sse>
19.21

>  <Sp>
11.59

>  <Si>
22.91

>  <MZ>
0.42

>  <Mm>
0.36

>  <Mv>
0.49

>  <Mse>
0.96

>  <Mp>
0.58

>  <Mi>
1.15

>  <NsCH3>
3

>  <NdCH2>
0

>  <NssCH2>
2

>  <NtCH>
0

>  <NdsCH>
0

>  <NaaCH>
0

>  <NsssCH>
1

>  <NddC>
0

>  <NtsC>
0

>  <NdssC>
0

>  <NaasC>
0

>  <NaaaC>
0

>  <NssssC>
0

>  <NsNH3>
0

>  <NsNH2>
0

>  <NssNH2>
0

>  <NdNH>
0

>  <NssNH>
0

>  <NaaNH>
0

>  <NtN>
0

>  <NsssNH>
0

>  <NdsN>
0

>  <NaaN>
0

>  <NsssN>
0

>  <NddsN>
0

>  <NaasN>
0

>  <NssssN>
0

>  <NsOH>
0

>  <NdO>
0

>  <NssO>
0

>  <NaaO>
0

>  <NsF>
0

>  <NsSiH3>
0

>  <NssSiH2>
0

>  <NsssSiH>
0

>  <NssssSi>
0

>  <NsPH2>
0

>  <NssPH>
0

>  <NsssP>
0

>  <NdsssP>
0

>  <NsssssP>
0

>  <NsSH>
0

>  <NdS>
0

>  <NssS>
0

>  <NaaS>
0

>  <NdssS>
0

>  <NddssS>
0

>  <NsCl>
0

>  <NsBr>
0

>  <NsI>
0

>  <fragCpx>
5

>  <fMF>
0

>  <nHBAcc>
0

>  <nHBDon>
0

>  <Kier1>
6

>  <Kier2>
3.2

>  <Lipinski>
1

>  <GhoseFilter>
0

>  <FilterItLogS>
-1.79

>  <VMcGowan>
95.4

>  <LabuteASA>
40.56

>  <PEOE_VSA1>
0

>  <PEOE_VSA2>
0

>  <PEOE_VSA3>
0

>  <PEOE_VSA4>
0

>  <PEOE_VSA5>
0

>  <PEOE_VSA6>
33.61

>  <PEOE_VSA7>
5.92

>  <PEOE_VSA8>
0

>  <PEOE_VSA9>
0

>  <PEOE_VSA10>
0

>  <PEOE_VSA11>
0

>  <PEOE_VSA12>
0

>  <PEOE_VSA13>
0

>  <SMR_VSA1>
0

>  <SMR_VSA2>
0

>  <SMR_VSA3>
0

>  <SMR_VSA4>
5.92

>  <SMR_VSA5>
33.61

>  <SMR_VSA6>
0

>  <SMR_VSA7>
0

>  <SMR_VSA8>
0

>  <SMR_VSA9>
0

>  <SlogP_VSA1>
0

>  <SlogP_VSA2>
0

>  <SlogP_VSA3>
0

>  <SlogP_VSA4>
5.92

>  <SlogP_VSA5>
33.61

>  <SlogP_VSA6>
0

>  <SlogP_VSA7>
0

>  <SlogP_VSA8>
0

>  <SlogP_VSA9>
0

>  <SlogP_VSA10>
0

>  <SlogP_VSA11>
0

>  <EState_VSA1>
0

>  <EState_VSA2>
0

>  <EState_VSA3>
0

>  <EState_VSA4>
5.92

>  <EState_VSA5>
12.84

>  <EState_VSA6>
0

>  <EState_VSA7>
0

>  <EState_VSA8>
20.77

>  <EState_VSA9>
0

>  <EState_VSA10>
0

>  <VSA_EState1>
0

>  <VSA_EState2>
0

>  <VSA_EState3>
0

>  <VSA_EState4>
0

>  <VSA_EState5>
0.9

>  <VSA_EState6>
0

>  <VSA_EState7>
2.71

>  <VSA_EState8>
6.73

>  <VSA_EState9>
0

>  <apol>
19.36

>  <bpol>
14.04

>  <nRing>
0

>  <nHRing>
0

>  <naRing>
0

>  <naHRing>
0

>  <nARing 2>
0

>  <nAHRing 2>
0

>  <nFRing>
0

>  <nFHRing>
0

>  <nFaRing>
0

>  <nFaHRing>
0

>  <nFARing 2>
0

>  <nFAHRing 2>
0

>  <nRot>
2

>  <SLogP>
2.44

>  <SMR>
29.75

>  <TopoPSA(NO)>
0

>  <TopoPSA>
0

>  <JGI1>
0.3

>  <JGI2>
0.09

>  <JGI3>
0.08

>  <JGI4>
0

>  <JGI5>
0

>  <Diameter>
4

>  <Radius>
2

>  <TMWC10>
60.96

>  <TSRW10>
29.44

>  <MW>
86.11

>  <AMW>
4.31

>  <WPath>
32

>  <WPol>
3

>  <Zagreb1>
20

>  <Zagreb2>
18

>  <mZagreb2>
1.58

>  <yes>


>  <nAR-cont>
0.336376

>  <nHA-cont>
0.238778273

>  <MWHBN>
0

>  <MWHBN-cont>
0

>  <TPSA-cont>
0

>  <pka_cont>
0.97

>  <yes.1>


>  <BBB_SCORE>
1.060154273

>  <MMFF94 Energy>
0.18486

$$$$
Compound 712
Actelion Java MolfileCreator 2.0

  0  0  0  0  0  0              0 V3000
M  V30 BEGIN CTAB
M  V30 COUNTS 50 50 0 0 0
M  V30 BEGIN ATOM
M  V30 1 Cl -2.2286 -2.4676 3.2646 0
M  V30 2 C -2.3906 -4.198 2.8797 0
M  V30 3 C -2.7486 -4.4582 1.4121 0
M  V30 4 N -1.5798 -4.3725 0.5134 0
M  V30 5 C -1.22 -3.2021 -0.1481 0
M  V30 6 C -0.7888 -5.6118 0.3731 0
M  V30 7 C 0.0089 -3.067 -0.8196 0
M  V30 8 C -2.0553 -2.074 -0.2018 0
M  V30 9 C -1.0682 -6.305 -0.961 0
M  V30 10 C 0.3803 -1.8949 -1.4969 0
M  V30 11 C -1.6965 -0.8946 -0.8742 0
M  V30 12 Cl -0.1766 -7.8443 -1.0655 0
M  V30 13 C -0.4745 -0.7966 -1.5344 0
M  V30 14 C -0.073 0.474 -2.2352 0
M  V30 15 C 0.6979 1.4102 -1.3047 0
M  V30 16 C 1.0863 2.6992 -2.0182 0
M  V30 17 C 1.8913 3.5899 -1.1079 0
M  V30 18 O 3.1052 3.7104 -1.1783 0
M  V30 19 O 1.0705 4.2063 -0.2176 0
M  V30 20 C 1.6077 5.0962 0.7944 0
M  V30 21 C 2.5476 4.3499 1.7473 0
M  V30 22 C 0.3805 5.5711 1.5873 0
M  V30 23 C 2.2839 6.3165 0.1605 0
M  V30 24 H -1.4552 -4.691 3.1608 0
M  V30 25 H -3.1863 -4.5835 3.5244 0
M  V30 26 H -3.5909 -3.8403 1.0867 0
M  V30 27 H -3.1402 -5.4829 1.3517 0
M  V30 28 H 0.2806 -5.419 0.5151 0
M  V30 29 H -1.051 -6.3029 1.1857 0
M  V30 30 H 0.7374 -3.8711 -0.8301 0
M  V30 31 H -3.0257 -2.0647 0.2821 0
M  V30 32 H -0.7656 -5.6907 -1.8132 0
M  V30 33 H -2.1338 -6.5312 -1.0679 0
M  V30 34 H 1.3504 -1.8538 -1.987 0
M  V30 35 H -2.3878 -0.0549 -0.8672 0
M  V30 36 H -0.9691 0.9772 -2.6202 0
M  V30 37 H 0.5355 0.2275 -3.1144 0
M  V30 38 H 1.6006 0.9107 -0.9297 0
M  V30 39 H 0.0908 1.6442 -0.4204 0
M  V30 40 H 1.6936 2.4841 -2.905 0
M  V30 41 H 0.2048 3.2496 -2.3665 0
M  V30 42 H 3.4742 4.045 1.252 0
M  V30 43 H 2.8243 4.974 2.604 0
M  V30 44 H 2.0754 3.4344 2.1209 0
M  V30 45 H -0.153 4.7199 2.0262 0
M  V30 46 H 0.6576 6.2585 2.3935 0
M  V30 47 H -0.3353 6.0788 0.9303 0
M  V30 48 H 3.206 6.0471 -0.3628 0
M  V30 49 H 1.6266 6.7835 -0.5814 0
M  V30 50 H 2.5436 7.0655 0.9164 0
M  V30 END ATOM
M  V30 BEGIN BOND
M  V30 1 1 1 2
M  V30 2 1 2 3
M  V30 3 1 3 4
M  V30 4 1 4 5
M  V30 5 1 4 6
M  V30 6 2 5 7
M  V30 7 1 5 8
M  V30 8 1 6 9
M  V30 9 1 7 10
M  V30 10 2 8 11
M  V30 11 1 9 12
M  V30 12 2 10 13
M  V30 13 1 13 14
M  V30 14 1 14 15
M  V30 15 1 15 16
M  V30 16 1 16 17
M  V30 17 2 17 18
M  V30 18 1 17 19
M  V30 19 1 19 20
M  V30 20 1 20 21
M  V30 21 1 20 22
M  V30 22 1 20 23
M  V30 23 1 11 13
M  V30 24 1 2 24
M  V30 25 1 2 25
M  V30 26 1 3 26
M  V30 27 1 3 27
M  V30 28 1 6 28
M  V30 29 1 6 29
M  V30 30 1 7 30
M  V30 31 1 8 31
M  V30 32 1 9 32
M  V30 33 1 9 33
M  V30 34 1 10 34
M  V30 35 1 11 35
M  V30 36 1 14 36
M  V30 37 1 14 37
M  V30 38 1 15 38
M  V30 39 1 15 39
M  V30 40 1 16 40
M  V30 41 1 16 41
M  V30 42 1 21 42
M  V30 43 1 21 43
M  V30 44 1 21 44
M  V30 45 1 22 45
M  V30 46 1 22 46
M  V30 47 1 22 47
M  V30 48 1 23 48
M  V30 49 1 23 49
M  V30 50 1 23 50
M  V30 END BOND
M  V30 END CTAB
M  END
>  <Column 1>
855

>  <level_0>
979

>  <index>
979

>  <Unnamed: 0>
979

>  <NO.>
991

>  <Name>
tertbutylchlorambucil

>  <IUPAC_name>
tert-butyl 4-[4-[bis(2-chloroethyl)amino]phenyl]butanoate

>  <SMILES>
CC(C)(C)OC(=O)CCCc1ccc(N(CCCl)CCCl)cc1

>  <CID>
83909

>  <logBB>
1

>  <BBB+/BBB->
BBB+

>  <Inchi>
InChI=1S/C18H27Cl2NO2/c1-18(2-3)23-17(22)6-4-5-15-7-9-16(10-8-15)21(13-11-19)14-12-20/h7-10H-4-6-11-14H2-1-3H3

>  <threshold>


>  <reference>
R2|R2|R3|R8|R12|R17|R21|R25|R27|R27|R35|R36|R38|R40|R41|R43|R46|R47|R48|R49|

>  <group>
A

>  <Class>
1

>  <ABC>
16.81

>  <ABCGG>
13.97

>  <nAcid>
0

>  <nBase>
0

>  <nAromAtom>
6

>  <nAromBond>
6

>  <nAtom>
50

>  <nHeavyAtom>
23

>  <nSpiro>
0

>  <nBridgehead>
0

>  <nHetero>
5

>  <nN>
1

>  <nO>
2

>  <nF>
0

>  <BalabanJ>
2.21

>  <BertzCT>
462.91

>  <nBonds>
50

>  <nBondsO>
23

>  <nBondsS>
43

>  <nBondsD>
1

>  <nBondsT>
0

>  <nBondsA>
6

>  <nBondsM>
7

>  <nBondsKS>
46

>  <nBondsKD>
4

>  <RNCG>
0.27

>  <RPCG>
0.18

>  <FCSP3>
0.61

>  <SZ>
32

>  <Sm>
30

>  <Sv>
29.68

>  <Sse>
49.84

>  <Sp>
33.01

>  <Si>
56.62

>  <MZ>
0.64

>  <Mm>
0.6

>  <Mv>
0.59

>  <Mse>
1

>  <Mp>
0.66

>  <Mi>
1.13

>  <NsCH3>
3

>  <NdCH2>
0

>  <NssCH2>
7

>  <NtCH>
0

>  <NdsCH>
0

>  <NaaCH>
4

>  <NsssCH>
0

>  <NddC>
0

>  <NtsC>
0

>  <NdssC>
1

>  <NaasC>
2

>  <NaaaC>
0

>  <NssssC>
1

>  <NsNH3>
0

>  <NsNH2>
0

>  <NssNH2>
0

>  <NdNH>
0

>  <NssNH>
0

>  <NaaNH>
0

>  <NtN>
0

>  <NsssNH>
0

>  <NdsN>
0

>  <NaaN>
0

>  <NsssN>
1

>  <NddsN>
0

>  <NaasN>
0

>  <NssssN>
0

>  <NsOH>
0

>  <NdO>
1

>  <NssO>
1

>  <NaaO>
0

>  <NsF>
0

>  <NsSiH3>
0

>  <NssSiH2>
0

>  <NsssSiH>
0

>  <NssssSi>
0

>  <NsPH2>
0

>  <NssPH>
0

>  <NsssP>
0

>  <NdsssP>
0

>  <NsssssP>
0

>  <NsSH>
0

>  <NdS>
0

>  <NssS>
0

>  <NaaS>
0

>  <NdssS>
0

>  <NddssS>
0

>  <NsCl>
2

>  <NsBr>
0

>  <NsI>
0

>  <fragCpx>
23.05

>  <fMF>
0.12

>  <nHBAcc>
3

>  <nHBDon>
0

>  <Kier1>
21.04

>  <Kier2>
10.78

>  <Lipinski>
1

>  <GhoseFilter>
1

>  <FilterItLogS>
-6.05

>  <VMcGowan>
282.62

>  <LabuteASA>
149.45

>  <PEOE_VSA1>
9.64

>  <PEOE_VSA2>
4.79

>  <PEOE_VSA3>
0

>  <PEOE_VSA4>
0

>  <PEOE_VSA5>
23.2

>  <PEOE_VSA6>
12.13

>  <PEOE_VSA7>
51.31

>  <PEOE_VSA8>
36.96

>  <PEOE_VSA9>
0

>  <PEOE_VSA10>
5.6

>  <PEOE_VSA11>
0

>  <PEOE_VSA12>
0

>  <PEOE_VSA13>
0

>  <SMR_VSA1>
9.53

>  <SMR_VSA2>
0

>  <SMR_VSA3>
0

>  <SMR_VSA4>
0

>  <SMR_VSA5>
45.63

>  <SMR_VSA6>
29.75

>  <SMR_VSA7>
29.83

>  <SMR_VSA8>
0

>  <SMR_VSA9>
0

>  <SlogP_VSA1>
4.9

>  <SlogP_VSA2>
36.42

>  <SlogP_VSA3>
15.95

>  <SlogP_VSA4>
0

>  <SlogP_VSA5>
39.18

>  <SlogP_VSA6>
24.27

>  <SlogP_VSA7>
0

>  <SlogP_VSA8>
0

>  <SlogP_VSA9>
0

>  <SlogP_VSA10>
5.69

>  <SlogP_VSA11>
0

>  <EState_VSA1>
5.6

>  <EState_VSA2>
5.97

>  <EState_VSA3>
18.18

>  <EState_VSA4>
31.62

>  <EState_VSA5>
5.56

>  <EState_VSA6>
0

>  <EState_VSA7>
20.77

>  <EState_VSA8>
29.17

>  <EState_VSA9>
27.94

>  <EState_VSA10>
4.79

>  <VSA_EState1>
5.31

>  <VSA_EState2>
13.85

>  <VSA_EState3>
0

>  <VSA_EState4>
1.93

>  <VSA_EState5>
1.02

>  <VSA_EState6>
8.36

>  <VSA_EState7>
2.11

>  <VSA_EState8>
7.23

>  <VSA_EState9>
0

>  <apol>
55.13

>  <bpol>
32.42

>  <nRing>
1

>  <nHRing>
0

>  <naRing>
1

>  <naHRing>
0

>  <nARing 2>
0

>  <nAHRing 2>
0

>  <nFRing>
0

>  <nFHRing>
0

>  <nFaRing>
0

>  <nFaHRing>
0

>  <nFARing 2>
0

>  <nFAHRing 2>
0

>  <nRot>
9

>  <SLogP>
4.64

>  <SMR>
98.88

>  <TopoPSA(NO)>
29.54

>  <TopoPSA>
29.54

>  <JGI1>
0.26

>  <JGI2>
0.07

>  <JGI3>
0.05

>  <JGI4>
0.02

>  <JGI5>
0.03

>  <Diameter>
14

>  <Radius>
7

>  <TMWC10>
117.11

>  <TSRW10>
56.21

>  <MW>
359.14

>  <AMW>
7.18

>  <WPath>
1492

>  <WPol>
28

>  <Zagreb1>
106

>  <Zagreb2>
114

>  <mZagreb2>
5.32

>  <yes>


>  <nAR-cont>
0.336376

>  <nHA-cont>
0.967789328

>  <MWHBN>
0.15830308

>  <MWHBN-cont>
0.952237511

>  <TPSA-cont>
0.793792457

>  <pka_cont>
0.97

>  <yes.1>


>  <BBB_SCORE>
4.805106507

>  <MMFF94 Energy>
60.465

$$$$
Compound 713
Actelion Java MolfileCreator 2.0

  0  0  0  0  0  0              0 V3000
M  V30 BEGIN CTAB
M  V30 COUNTS 20 19 0 0 0
M  V30 BEGIN ATOM
M  V30 1 C 0.2272 0.1515 -0.303 0
M  V30 2 C 0.2517 -0.8898 0.8453 0
M  V30 3 C -0.876 -0.1732 -1.3235 0
M  V30 4 C 1.5889 0.1056 -1.0231 0
M  V30 5 C 0.0104 1.5731 0.2412 0
M  V30 6 C -1.0206 -0.9897 1.6779 0
M  V30 7 H 1.0838 -0.6603 1.5239 0
M  V30 8 H 0.4631 -1.8831 0.4284 0
M  V30 9 H -0.827 0.5028 -2.1848 0
M  V30 10 H -0.7771 -1.1975 -1.6994 0
M  V30 11 H -1.8751 -0.0688 -0.8881 0
M  V30 12 H 1.7821 -0.8887 -1.441 0
M  V30 13 H 1.627 0.8256 -1.8484 0
M  V30 14 H 2.4083 0.3447 -0.3359 0
M  V30 15 H 0.0943 2.3179 -0.5585 0
M  V30 16 H -0.9823 1.6899 0.6876 0
M  V30 17 H 0.7553 1.8213 1.0053 0
M  V30 18 H -0.8944 -1.7504 2.4555 0
M  V30 19 H -1.2517 -0.0454 2.1785 0
M  V30 20 H -1.8802 -1.2835 1.0693 0
M  V30 END ATOM
M  V30 BEGIN BOND
M  V30 1 1 1 2
M  V30 2 1 1 3
M  V30 3 1 1 4
M  V30 4 1 1 5
M  V30 5 1 2 6
M  V30 6 1 2 7
M  V30 7 1 2 8
M  V30 8 1 3 9
M  V30 9 1 3 10
M  V30 10 1 3 11
M  V30 11 1 4 12
M  V30 12 1 4 13
M  V30 13 1 4 14
M  V30 14 1 5 15
M  V30 15 1 5 16
M  V30 16 1 5 17
M  V30 17 1 6 18
M  V30 18 1 6 19
M  V30 19 1 6 20
M  V30 END BOND
M  V30 END CTAB
M  END
>  <Column 1>
856

>  <level_0>
980

>  <index>
980

>  <Unnamed: 0>
980

>  <NO.>
992

>  <Name>
2-2-dimethylbutane

>  <IUPAC_name>
2-2-dimethylbutane

>  <SMILES>
CCC(C)(C)C

>  <CID>
6403

>  <logBB>
1

>  <BBB+/BBB->
BBB+

>  <Inchi>
InChI=1S/C6H14/c1-5-6(2-3)4/h5H2-1-4H3

>  <threshold>


>  <reference>
R5|R8|R21|R27|R2|R2|R27|R41|R3|R38|R40|R11|R12|R17|R18|R22|R25|R26|R27|R32|R33|R36|R39|R44|R46|R47|R48|R49|

>  <group>
A

>  <Class>
1

>  <ABC>
4.01

>  <ABCGG>
4.28

>  <nAcid>
0

>  <nBase>
0

>  <nAromAtom>
0

>  <nAromBond>
0

>  <nAtom>
20

>  <nHeavyAtom>
6

>  <nSpiro>
0

>  <nBridgehead>
0

>  <nHetero>
0

>  <nN>
0

>  <nO>
0

>  <nF>
0

>  <BalabanJ>
3.17

>  <BertzCT>
29.79

>  <nBonds>
19

>  <nBondsO>
5

>  <nBondsS>
19

>  <nBondsD>
0

>  <nBondsT>
0

>  <nBondsA>
0

>  <nBondsM>
0

>  <nBondsKS>
19

>  <nBondsKD>
0

>  <RNCG>
0.19

>  <RPCG>
0.08

>  <FCSP3>
1

>  <SZ>
8.33

>  <Sm>
7.17

>  <Sv>
9.79

>  <Sse>
19.21

>  <Sp>
11.59

>  <Si>
22.91

>  <MZ>
0.42

>  <Mm>
0.36

>  <Mv>
0.49

>  <Mse>
0.96

>  <Mp>
0.58

>  <Mi>
1.15

>  <NsCH3>
4

>  <NdCH2>
0

>  <NssCH2>
1

>  <NtCH>
0

>  <NdsCH>
0

>  <NaaCH>
0

>  <NsssCH>
0

>  <NddC>
0

>  <NtsC>
0

>  <NdssC>
0

>  <NaasC>
0

>  <NaaaC>
0

>  <NssssC>
1

>  <NsNH3>
0

>  <NsNH2>
0

>  <NssNH2>
0

>  <NdNH>
0

>  <NssNH>
0

>  <NaaNH>
0

>  <NtN>
0

>  <NsssNH>
0

>  <NdsN>
0

>  <NaaN>
0

>  <NsssN>
0

>  <NddsN>
0

>  <NaasN>
0

>  <NssssN>
0

>  <NsOH>
0

>  <NdO>
0

>  <NssO>
0

>  <NaaO>
0

>  <NsF>
0

>  <NsSiH3>
0

>  <NssSiH2>
0

>  <NsssSiH>
0

>  <NssssSi>
0

>  <NsPH2>
0

>  <NssPH>
0

>  <NsssP>
0

>  <NdsssP>
0

>  <NsssssP>
0

>  <NsSH>
0

>  <NdS>
0

>  <NssS>
0

>  <NaaS>
0

>  <NdssS>
0

>  <NddssS>
0

>  <NsCl>
0

>  <NsBr>
0

>  <NsI>
0

>  <fragCpx>
5

>  <fMF>
0

>  <nHBAcc>
0

>  <nHBDon>
0

>  <Kier1>
6

>  <Kier2>
1.63

>  <Lipinski>
1

>  <GhoseFilter>
0

>  <FilterItLogS>
-1.78

>  <VMcGowan>
95.4

>  <LabuteASA>
40.56

>  <PEOE_VSA1>
0

>  <PEOE_VSA2>
0

>  <PEOE_VSA3>
0

>  <PEOE_VSA4>
0

>  <PEOE_VSA5>
0

>  <PEOE_VSA6>
34.12

>  <PEOE_VSA7>
5.41

>  <PEOE_VSA8>
0

>  <PEOE_VSA9>
0

>  <PEOE_VSA10>
0

>  <PEOE_VSA11>
0

>  <PEOE_VSA12>
0

>  <PEOE_VSA13>
0

>  <SMR_VSA1>
0

>  <SMR_VSA2>
0

>  <SMR_VSA3>
0

>  <SMR_VSA4>
5.41

>  <SMR_VSA5>
34.12

>  <SMR_VSA6>
0

>  <SMR_VSA7>
0

>  <SMR_VSA8>
0

>  <SMR_VSA9>
0

>  <SlogP_VSA1>
0

>  <SlogP_VSA2>
0

>  <SlogP_VSA3>
0

>  <SlogP_VSA4>
5.41

>  <SlogP_VSA5>
34.12

>  <SlogP_VSA6>
0

>  <SlogP_VSA7>
0

>  <SlogP_VSA8>
0

>  <SlogP_VSA9>
0

>  <SlogP_VSA10>
0

>  <SlogP_VSA11>
0

>  <EState_VSA1>
0

>  <EState_VSA2>
0

>  <EState_VSA3>
5.41

>  <EState_VSA4>
0

>  <EState_VSA5>
6.42

>  <EState_VSA6>
0

>  <EState_VSA7>
0

>  <EState_VSA8>
27.69

>  <EState_VSA9>
0

>  <EState_VSA10>
0

>  <VSA_EState1>
0

>  <VSA_EState2>
0

>  <VSA_EState3>
0

>  <VSA_EState4>
0.54

>  <VSA_EState5>
0

>  <VSA_EState6>
0

>  <VSA_EState7>
1.27

>  <VSA_EState8>
8.94

>  <VSA_EState9>
0

>  <apol>
19.36

>  <bpol>
14.04

>  <nRing>
0

>  <nHRing>
0

>  <naRing>
0

>  <naHRing>
0

>  <nARing 2>
0

>  <nAHRing 2>
0

>  <nFRing>
0

>  <nFHRing>
0

>  <nFaRing>
0

>  <nFaHRing>
0

>  <nFARing 2>
0

>  <nFAHRing 2>
0

>  <nRot>
0

>  <SLogP>
2.44

>  <SMR>
29.75

>  <TopoPSA(NO)>
0

>  <TopoPSA>
0

>  <JGI1>
0.6

>  <JGI2>
0.1

>  <JGI3>
0

>  <JGI4>
0

>  <JGI5>
0

>  <Diameter>
3

>  <Radius>
2

>  <TMWC10>
65.41

>  <TSRW10>
31.67

>  <MW>
86.11

>  <AMW>
4.31

>  <WPath>
28

>  <WPol>
3

>  <Zagreb1>
24

>  <Zagreb2>
22

>  <mZagreb2>
1.38

>  <yes>


>  <nAR-cont>
0.336376

>  <nHA-cont>
0.238778273

>  <MWHBN>
0

>  <MWHBN-cont>
0

>  <TPSA-cont>
0

>  <pka_cont>
0.97

>  <yes.1>


>  <BBB_SCORE>
1.060154273

>  <MMFF94 Energy>
10.235

$$$$
Compound 714
Actelion Java MolfileCreator 2.0

  0  0  0  0  0  0              0 V3000
M  V30 BEGIN CTAB
M  V30 COUNTS 20 19 0 0 0
M  V30 BEGIN ATOM
M  V30 1 C 0.2269 -0.1513 -0.3783 0
M  V30 2 C -0.8071 0.719 0.3634 0
M  V30 3 C 1.0613 -1.0053 0.5992 0
M  V30 4 C -0.4402 -1.0767 -1.4025 0
M  V30 5 C -1.6382 1.6057 -0.5546 0
M  V30 6 C 1.9217 -0.1881 1.553 0
M  V30 7 H 0.9114 0.5113 -0.9241 0
M  V30 8 H -0.2924 1.3758 1.0733 0
M  V30 9 H -1.4802 0.0829 0.9511 0
M  V30 10 H 1.728 -1.6595 0.0235 0
M  V30 11 H 0.4029 -1.6616 1.1815 0
M  V30 12 H -1.1942 -1.7141 -0.9284 0
M  V30 13 H 0.3001 -1.7271 -1.8808 0
M  V30 14 H -0.9257 -0.506 -2.2 0
M  V30 15 H -0.997 2.2146 -1.1997 0
M  V30 16 H -2.3094 1.0156 -1.1853 0
M  V30 17 H -2.2597 2.2824 0.0409 0
M  V30 18 H 1.3124 0.3679 2.271 0
M  V30 19 H 2.578 -0.8515 2.1258 0
M  V30 20 H 2.5514 0.5206 1.0062 0
M  V30 END ATOM
M  V30 BEGIN BOND
M  V30 1 1 1 2
M  V30 2 1 1 3
M  V30 3 1 1 4
M  V30 4 1 2 5
M  V30 5 1 3 6
M  V30 6 1 1 7
M  V30 7 1 2 8
M  V30 8 1 2 9
M  V30 9 1 3 10
M  V30 10 1 3 11
M  V30 11 1 4 12
M  V30 12 1 4 13
M  V30 13 1 4 14
M  V30 14 1 5 15
M  V30 15 1 5 16
M  V30 16 1 5 17
M  V30 17 1 6 18
M  V30 18 1 6 19
M  V30 19 1 6 20
M  V30 END BOND
M  V30 END CTAB
M  END
>  <Column 1>
857

>  <level_0>
981

>  <index>
981

>  <Unnamed: 0>
981

>  <NO.>
993

>  <Name>
3-methylpentane

>  <IUPAC_name>
3-methylpentane

>  <SMILES>
CCC(C)CC

>  <CID>
7282

>  <logBB>
1

>  <BBB+/BBB->
BBB+

>  <Inchi>
InChI=1S/C6H14/c1-4-6(3)5-2/h6H-4-5H2-1-3H3

>  <threshold>


>  <reference>
R5|R2|R2|R8|R11|R12|R17|R18|R20|R21|R22|R25|R26|R27|R27|R32|R33|R35|R36|R39|R43|R44|R46|R47|R48|R49|R40|R41|R3|R38|

>  <group>
A

>  <Class>
1

>  <ABC>
3.64

>  <ABCGG>
4.1

>  <nAcid>
0

>  <nBase>
0

>  <nAromAtom>
0

>  <nAromBond>
0

>  <nAtom>
20

>  <nHeavyAtom>
6

>  <nSpiro>
0

>  <nBridgehead>
0

>  <nHetero>
0

>  <nN>
0

>  <nO>
0

>  <nF>
0

>  <BalabanJ>
2.75

>  <BertzCT>
19.22

>  <nBonds>
19

>  <nBondsO>
5

>  <nBondsS>
19

>  <nBondsD>
0

>  <nBondsT>
0

>  <nBondsA>
0

>  <nBondsM>
0

>  <nBondsKS>
19

>  <nBondsKD>
0

>  <RNCG>
0.19

>  <RPCG>
0.09

>  <FCSP3>
1

>  <SZ>
8.33

>  <Sm>
7.17

>  <Sv>
9.79

>  <Sse>
19.21

>  <Sp>
11.59

>  <Si>
22.91

>  <MZ>
0.42

>  <Mm>
0.36

>  <Mv>
0.49

>  <Mse>
0.96

>  <Mp>
0.58

>  <Mi>
1.15

>  <NsCH3>
3

>  <NdCH2>
0

>  <NssCH2>
2

>  <NtCH>
0

>  <NdsCH>
0

>  <NaaCH>
0

>  <NsssCH>
1

>  <NddC>
0

>  <NtsC>
0

>  <NdssC>
0

>  <NaasC>
0

>  <NaaaC>
0

>  <NssssC>
0

>  <NsNH3>
0

>  <NsNH2>
0

>  <NssNH2>
0

>  <NdNH>
0

>  <NssNH>
0

>  <NaaNH>
0

>  <NtN>
0

>  <NsssNH>
0

>  <NdsN>
0

>  <NaaN>
0

>  <NsssN>
0

>  <NddsN>
0

>  <NaasN>
0

>  <NssssN>
0

>  <NsOH>
0

>  <NdO>
0

>  <NssO>
0

>  <NaaO>
0

>  <NsF>
0

>  <NsSiH3>
0

>  <NssSiH2>
0

>  <NsssSiH>
0

>  <NssssSi>
0

>  <NsPH2>
0

>  <NssPH>
0

>  <NsssP>
0

>  <NdsssP>
0

>  <NsssssP>
0

>  <NsSH>
0

>  <NdS>
0

>  <NssS>
0

>  <NaaS>
0

>  <NdssS>
0

>  <NddssS>
0

>  <NsCl>
0

>  <NsBr>
0

>  <NsI>
0

>  <fragCpx>
5

>  <fMF>
0

>  <nHBAcc>
0

>  <nHBDon>
0

>  <Kier1>
6

>  <Kier2>
3.2

>  <Lipinski>
1

>  <GhoseFilter>
0

>  <FilterItLogS>
-1.79

>  <VMcGowan>
95.4

>  <LabuteASA>
40.56

>  <PEOE_VSA1>
0

>  <PEOE_VSA2>
0

>  <PEOE_VSA3>
0

>  <PEOE_VSA4>
0

>  <PEOE_VSA5>
0

>  <PEOE_VSA6>
33.61

>  <PEOE_VSA7>
5.92

>  <PEOE_VSA8>
0

>  <PEOE_VSA9>
0

>  <PEOE_VSA10>
0

>  <PEOE_VSA11>
0

>  <PEOE_VSA12>
0

>  <PEOE_VSA13>
0

>  <SMR_VSA1>
0

>  <SMR_VSA2>
0

>  <SMR_VSA3>
0

>  <SMR_VSA4>
5.92

>  <SMR_VSA5>
33.61

>  <SMR_VSA6>
0

>  <SMR_VSA7>
0

>  <SMR_VSA8>
0

>  <SMR_VSA9>
0

>  <SlogP_VSA1>
0

>  <SlogP_VSA2>
0

>  <SlogP_VSA3>
0

>  <SlogP_VSA4>
5.92

>  <SlogP_VSA5>
33.61

>  <SlogP_VSA6>
0

>  <SlogP_VSA7>
0

>  <SlogP_VSA8>
0

>  <SlogP_VSA9>
0

>  <SlogP_VSA10>
0

>  <SlogP_VSA11>
0

>  <EState_VSA1>
0

>  <EState_VSA2>
0

>  <EState_VSA3>
0

>  <EState_VSA4>
5.92

>  <EState_VSA5>
12.84

>  <EState_VSA6>
0

>  <EState_VSA7>
0

>  <EState_VSA8>
20.77

>  <EState_VSA9>
0

>  <EState_VSA10>
0

>  <VSA_EState1>
0

>  <VSA_EState2>
0

>  <VSA_EState3>
0

>  <VSA_EState4>
0

>  <VSA_EState5>
0.94

>  <VSA_EState6>
0

>  <VSA_EState7>
2.66

>  <VSA_EState8>
6.74

>  <VSA_EState9>
0

>  <apol>
19.36

>  <bpol>
14.04

>  <nRing>
0

>  <nHRing>
0

>  <naRing>
0

>  <naHRing>
0

>  <nARing 2>
0

>  <nAHRing 2>
0

>  <nFRing>
0

>  <nFHRing>
0

>  <nFaRing>
0

>  <nFaHRing>
0

>  <nFARing 2>
0

>  <nFAHRing 2>
0

>  <nRot>
2

>  <SLogP>
2.44

>  <SMR>
29.75

>  <TopoPSA(NO)>
0

>  <TopoPSA>
0

>  <JGI1>
0.3

>  <JGI2>
0.13

>  <JGI3>
0.03

>  <JGI4>
0

>  <JGI5>
0

>  <Diameter>
4

>  <Radius>
2

>  <TMWC10>
61.67

>  <TSRW10>
29.75

>  <MW>
86.11

>  <AMW>
4.31

>  <WPath>
31

>  <WPol>
4

>  <Zagreb1>
20

>  <Zagreb2>
19

>  <mZagreb2>
1.67

>  <yes>


>  <nAR-cont>
0.336376

>  <nHA-cont>
0.238778273

>  <MWHBN>
0

>  <MWHBN-cont>
0

>  <TPSA-cont>
0

>  <pka_cont>
0.97

>  <yes.1>


>  <BBB_SCORE>
1.060154273

>  <MMFF94 Energy>
1.4523

$$$$
Compound 715
Actelion Java MolfileCreator 2.0

  0  0  0  0  0  0              0 V3000
M  V30 BEGIN CTAB
M  V30 COUNTS 42 44 0 0 0
M  V30 BEGIN ATOM
M  V30 1 O -1.6666 1.6666 -2.5405 0
M  V30 2 C -0.6504 2.4896 -2.1277 0
M  V30 3 C -2.7588 1.7211 -1.6139 0
M  V30 4 C 0.1546 2.1206 -1.0445 0
M  V30 5 C -0.4006 3.657 -2.8453 0
M  V30 6 C -2.6383 0.9367 -0.3156 0
M  V30 7 C -0.1102 0.8284 -0.3714 0
M  V30 8 C 1.1926 2.972 -0.648 0
M  V30 9 C 0.6392 4.497 -2.4472 0
M  V30 10 C -1.4174 0.5526 0.2788 0
M  V30 11 C -3.8446 0.6659 0.3676 0
M  V30 12 C 0.8509 -0.1096 -0.5395 0
M  V30 13 C 1.43 4.1591 -1.3465 0
M  V30 14 C -1.4439 -0.036 1.5578 0
M  V30 15 C -3.8493 0.0414 1.6136 0
M  V30 16 C 0.8421 -1.569 -0.1559 0
M  V30 17 C -2.6464 -0.302 2.2137 0
M  V30 18 C 1.9077 -1.8726 0.9128 0
M  V30 19 N 1.8425 -3.2484 1.4422 0
M  V30 20 C 2.7518 -3.3887 2.5826 0
M  V30 21 C 2.1706 -4.2464 0.4225 0
M  V30 22 H -3.6167 1.3201 -2.1682 0
M  V30 23 H -3.0048 2.767 -1.3799 0
M  V30 24 H -1.0142 3.9114 -3.7041 0
M  V30 25 H 1.8204 2.7124 0.2004 0
M  V30 26 H 0.8354 5.4146 -2.9959 0
M  V30 27 H -4.7973 0.9574 -0.0716 0
M  V30 28 H 1.7525 0.1703 -1.0873 0
M  V30 29 H 2.2387 4.8166 -1.0373 0
M  V30 30 H -0.5156 -0.2932 2.0625 0
M  V30 31 H -4.7893 -0.1593 2.1207 0
M  V30 32 H 1.0531 -2.1412 -1.0674 0
M  V30 33 H -0.1428 -1.9013 0.1842 0
M  V30 34 H -2.6371 -0.7721 3.1933 0
M  V30 35 H 2.9078 -1.6632 0.5088 0
M  V30 36 H 1.7551 -1.1731 1.7456 0
M  V30 37 H 2.4824 -2.6869 3.3799 0
M  V30 38 H 3.7965 -3.2101 2.3028 0
M  V30 39 H 2.6765 -4.3929 3.0148 0
M  V30 40 H 3.162 -4.0805 -0.0141 0
M  V30 41 H 1.4297 -4.2485 -0.3829 0
M  V30 42 H 2.1504 -5.2551 0.8513 0
M  V30 END ATOM
M  V30 BEGIN BOND
M  V30 1 1 1 2
M  V30 2 1 1 3
M  V30 3 2 2 4
M  V30 4 1 2 5
M  V30 5 1 3 6
M  V30 6 1 4 7
M  V30 7 1 4 8
M  V30 8 2 5 9
M  V30 9 2 6 10
M  V30 10 1 6 11
M  V30 11 2 7 12
M  V30 12 2 8 13
M  V30 13 1 10 14
M  V30 14 2 11 15
M  V30 15 1 12 16
M  V30 16 2 14 17
M  V30 17 1 16 18
M  V30 18 1 18 19
M  V30 19 1 19 20
M  V30 20 1 19 21
M  V30 21 1 7 10
M  V30 22 1 9 13
M  V30 23 1 15 17
M  V30 24 1 3 22
M  V30 25 1 3 23
M  V30 26 1 5 24
M  V30 27 1 8 25
M  V30 28 1 9 26
M  V30 29 1 11 27
M  V30 30 1 12 28
M  V30 31 1 13 29
M  V30 32 1 14 30
M  V30 33 1 15 31
M  V30 34 1 16 32
M  V30 35 1 16 33
M  V30 36 1 17 34
M  V30 37 1 18 35
M  V30 38 1 18 36
M  V30 39 1 20 37
M  V30 40 1 20 38
M  V30 41 1 20 39
M  V30 42 1 21 40
M  V30 43 1 21 41
M  V30 44 1 21 42
M  V30 END BOND
M  V30 END CTAB
M  END
>  <Column 1>
858

>  <level_0>
982

>  <index>
982

>  <Unnamed: 0>
982

>  <NO.>
994

>  <Name>
doxepin

>  <IUPAC_name>
(3e)-3-(6h-benzo[c][1]benzoxepin-11-ylidene)-n-n-dimethylpropan-1-amine

>  <SMILES>
CN(C)CC/C=C1\c2ccccc2COc2ccccc21

>  <CID>
667477

>  <logBB>
1

>  <BBB+/BBB->
BBB+

>  <Inchi>
InChI=1S/C19H21NO/c1-20(2)13-7-11-17-16-9-4-3-8-15(16)14-21-19-12-6-5-10-18(17)19/h3-6-8-12H-7-13-14H2-1-2H3/b17-11+

>  <threshold>


>  <reference>
R2|R2|R27|

>  <group>
A

>  <Class>
1

>  <ABC>
16.32

>  <ABCGG>
13.12

>  <nAcid>
0

>  <nBase>
1

>  <nAromAtom>
12

>  <nAromBond>
12

>  <nAtom>
42

>  <nHeavyAtom>
21

>  <nSpiro>
0

>  <nBridgehead>
0

>  <nHetero>
2

>  <nN>
1

>  <nO>
1

>  <nF>
0

>  <BalabanJ>
1.7

>  <BertzCT>
608.62

>  <nBonds>
44

>  <nBondsO>
23

>  <nBondsS>
31

>  <nBondsD>
1

>  <nBondsT>
0

>  <nBondsA>
12

>  <nBondsM>
13

>  <nBondsKS>
37

>  <nBondsKD>
7

>  <RNCG>
0.36

>  <RPCG>
0.09

>  <FCSP3>
0.26

>  <SZ>
25

>  <Sm>
23.26

>  <Sv>
26.16

>  <Sse>
41.32

>  <Sp>
28.52

>  <Si>
46.86

>  <MZ>
0.6

>  <Mm>
0.55

>  <Mv>
0.62

>  <Mse>
0.98

>  <Mp>
0.68

>  <Mi>
1.12

>  <NsCH3>
2

>  <NdCH2>
0

>  <NssCH2>
3

>  <NtCH>
0

>  <NdsCH>
1

>  <NaaCH>
8

>  <NsssCH>
0

>  <NddC>
0

>  <NtsC>
0

>  <NdssC>
1

>  <NaasC>
4

>  <NaaaC>
0

>  <NssssC>
0

>  <NsNH3>
0

>  <NsNH2>
0

>  <NssNH2>
0

>  <NdNH>
0

>  <NssNH>
0

>  <NaaNH>
0

>  <NtN>
0

>  <NsssNH>
0

>  <NdsN>
0

>  <NaaN>
0

>  <NsssN>
1

>  <NddsN>
0

>  <NaasN>
0

>  <NssssN>
0

>  <NsOH>
0

>  <NdO>
0

>  <NssO>
1

>  <NaaO>
0

>  <NsF>
0

>  <NsSiH3>
0

>  <NssSiH2>
0

>  <NsssSiH>
0

>  <NssssSi>
0

>  <NsPH2>
0

>  <NssPH>
0

>  <NsssP>
0

>  <NdsssP>
0

>  <NsssssP>
0

>  <NsSH>
0

>  <NdS>
0

>  <NssS>
0

>  <NaaS>
0

>  <NdssS>
0

>  <NddssS>
0

>  <NsCl>
0

>  <NsBr>
0

>  <NsI>
0

>  <fragCpx>
109.02

>  <fMF>
0.36

>  <nHBAcc>
2

>  <nHBDon>
0

>  <Kier1>
15.88

>  <Kier2>
7.51

>  <Lipinski>
1

>  <GhoseFilter>
1

>  <FilterItLogS>
-4.94

>  <VMcGowan>
231.74

>  <LabuteASA>
126.22

>  <PEOE_VSA1>
9.64

>  <PEOE_VSA2>
0

>  <PEOE_VSA3>
0

>  <PEOE_VSA4>
0

>  <PEOE_VSA5>
0

>  <PEOE_VSA6>
48.54

>  <PEOE_VSA7>
43.28

>  <PEOE_VSA8>
12.11

>  <PEOE_VSA9>
0

>  <PEOE_VSA10>
12.36

>  <PEOE_VSA11>
0

>  <PEOE_VSA12>
0

>  <PEOE_VSA13>
0

>  <SMR_VSA1>
4.74

>  <SMR_VSA2>
0

>  <SMR_VSA3>
4.9

>  <SMR_VSA4>
0

>  <SMR_VSA5>
13.03

>  <SMR_VSA6>
20.64

>  <SMR_VSA7>
71.3

>  <SMR_VSA8>
0

>  <SMR_VSA9>
5.75

>  <SlogP_VSA1>
4.74

>  <SlogP_VSA2>
25.54

>  <SlogP_VSA3>
6.61

>  <SlogP_VSA4>
0

>  <SlogP_VSA5>
23.11

>  <SlogP_VSA6>
54.61

>  <SlogP_VSA7>
0

>  <SlogP_VSA8>
5.57

>  <SlogP_VSA9>
0

>  <SlogP_VSA10>
0

>  <SlogP_VSA11>
5.75

>  <EState_VSA1>
0

>  <EState_VSA2>
0

>  <EState_VSA3>
6.61

>  <EState_VSA4>
18.72

>  <EState_VSA5>
22.26

>  <EState_VSA6>
0

>  <EState_VSA7>
6.07

>  <EState_VSA8>
67.54

>  <EState_VSA9>
4.74

>  <EState_VSA10>
0

>  <VSA_EState1>
5.98

>  <VSA_EState2>
2.21

>  <VSA_EState3>
0

>  <VSA_EState4>
5.03

>  <VSA_EState5>
0.98

>  <VSA_EState6>
16.85

>  <VSA_EState7>
3.37

>  <VSA_EState8>
1.69

>  <VSA_EState9>
4.22

>  <apol>
47.63

>  <bpol>
24.51

>  <nRing>
3

>  <nHRing>
1

>  <naRing>
2

>  <naHRing>
0

>  <nARing 2>
1

>  <nAHRing 2>
1

>  <nFRing>
1

>  <nFHRing>
1

>  <nFaRing>
0

>  <nFaHRing>
0

>  <nFARing 2>
1

>  <nFAHRing 2>
1

>  <nRot>
3

>  <SLogP>
3.96

>  <SMR>
87.47

>  <TopoPSA(NO)>
12.47

>  <TopoPSA>
12.47

>  <JGI1>
0.13

>  <JGI2>
0.07

>  <JGI3>
0.04

>  <JGI4>
0.03

>  <JGI5>
0.01

>  <Diameter>
9

>  <Radius>
5

>  <TMWC10>
117.56

>  <TSRW10>
62.81

>  <MW>
279.16

>  <AMW>
6.65

>  <WPath>
882

>  <WPol>
35

>  <Zagreb1>
108

>  <Zagreb2>
126

>  <mZagreb2>
4.69

>  <yes>


>  <nAR-cont>
0.816016

>  <nHA-cont>
0.994529749

>  <MWHBN>
0.11970255

>  <MWHBN-cont>
0.828090667

>  <TPSA-cont>
0.912951657

>  <pka_cont>
0.97

>  <yes.1>


>  <BBB_SCORE>
5.363585062

>  <MMFF94 Energy>
93.247

$$$$
Compound 716
Actelion Java MolfileCreator 2.0

  0  0  0  0  0  0              0 V3000
M  V30 BEGIN CTAB
M  V30 COUNTS 56 58 0 0 0
M  V30 BEGIN ATOM
M  V30 1 Cl -2.5252 4.4018 2.4436 0
M  V30 2 C -3.2794 3.7029 3.8512 0
M  V30 3 C -3.9273 4.5303 4.7847 0
M  V30 4 C -3.1953 2.3046 4.0693 0
M  V30 5 Cl -4.0638 6.2441 4.5783 0
M  V30 6 C -4.4929 3.983 5.9384 0
M  V30 7 N -2.5806 1.4505 3.1531 0
M  V30 8 C -3.7719 1.7881 5.2435 0
M  V30 9 C -4.4136 2.6138 6.1685 0
M  V30 10 C -1.6955 0.3783 3.6308 0
M  V30 11 C -3.3589 1.1111 1.9477 0
M  V30 12 C -0.8006 -0.1336 2.4764 0
M  V30 13 C -2.4271 0.5707 0.8368 0
M  V30 14 N -1.5907 -0.5557 1.3019 0
M  V30 15 C -0.779 -1.1561 0.2362 0
M  V30 16 C 0.3222 -0.2779 -0.3822 0
M  V30 17 C 1.0358 -0.9466 -1.5774 0
M  V30 18 C 1.9776 0.0704 -2.2482 0
M  V30 19 C 1.8145 -2.2074 -1.1655 0
M  V30 20 C 2.7269 -0.537 -3.4334 0
M  V30 21 C 2.5781 -2.8209 -2.3399 0
M  V30 22 C 3.4856 -1.7932 -3.0156 0
M  V30 23 N 4.2655 -2.4026 -4.1074 0
M  V30 24 S 3.6369 -2.806 -5.6046 0
M  V30 25 O 4.4723 -3.886 -6.0829 0
M  V30 26 O 2.2032 -2.9461 -5.5119 0
M  V30 27 C 4.0228 -1.3642 -6.575 0
M  V30 28 H -4.9952 4.6206 6.662 0
M  V30 29 H -3.7452 0.7189 5.4397 0
M  V30 30 H -4.8557 2.1844 7.0645 0
M  V30 31 H -1.0478 0.7481 4.435 0
M  V30 32 H -2.289 -0.4551 4.0268 0
M  V30 33 H -4.1082 0.3506 2.2033 0
M  V30 34 H -3.9001 1.9797 1.5556 0
M  V30 35 H -0.2112 -0.9791 2.8501 0
M  V30 36 H -0.0997 0.6651 2.2036 0
M  V30 37 H -1.8006 1.3984 0.4829 0
M  V30 38 H -3.0515 0.2452 -0.0034 0
M  V30 39 H -1.4528 -1.5 -0.5589 0
M  V30 40 H -0.3282 -2.0672 0.6463 0
M  V30 41 H 1.0676 -0.0179 0.3788 0
M  V30 42 H -0.1161 0.6631 -0.7332 0
M  V30 43 H 0.2737 -1.2372 -2.3135 0
M  V30 44 H 1.4037 0.9376 -2.5966 0
M  V30 45 H 2.7035 0.4452 -1.5151 0
M  V30 46 H 1.1332 -2.9666 -0.7667 0
M  V30 47 H 2.5218 -1.9609 -0.3634 0
M  V30 48 H 2.0011 -0.7556 -4.2235 0
M  V30 49 H 3.4237 0.2049 -3.8408 0
M  V30 50 H 3.1737 -3.6699 -1.9825 0
M  V30 51 H 1.8536 -3.232 -3.0507 0
M  V30 52 H 4.2334 -1.4827 -2.2718 0
M  V30 53 H 4.985 -3.0693 -3.8207 0
M  V30 54 H 3.4516 -0.5114 -6.2087 0
M  V30 55 H 5.096 -1.1744 -6.5158 0
M  V30 56 H 3.7428 -1.5746 -7.6097 0
M  V30 END ATOM
M  V30 BEGIN BOND
M  V30 1 1 1 2
M  V30 2 2 2 3
M  V30 3 1 2 4
M  V30 4 1 3 5
M  V30 5 1 3 6
M  V30 6 1 4 7
M  V30 7 2 4 8
M  V30 8 2 6 9
M  V30 9 1 7 10
M  V30 10 1 7 11
M  V30 11 1 10 12
M  V30 12 1 11 13
M  V30 13 1 12 14
M  V30 14 1 14 15
M  V30 15 1 15 16
M  V30 16 1 16 17
M  V30 17 1 17 18
M  V30 18 1 17 19
M  V30 19 1 18 20
M  V30 20 1 19 21
M  V30 21 1 20 22
M  V30 22 1 22 23
M  V30 23 1 23 24
M  V30 24 2 24 25
M  V30 25 2 24 26
M  V30 26 1 24 27
M  V30 27 1 8 9
M  V30 28 1 13 14
M  V30 29 1 21 22
M  V30 30 1 6 28
M  V30 31 1 8 29
M  V30 32 1 9 30
M  V30 33 1 10 31
M  V30 34 1 10 32
M  V30 35 1 11 33
M  V30 36 1 11 34
M  V30 37 1 12 35
M  V30 38 1 12 36
M  V30 39 1 13 37
M  V30 40 1 13 38
M  V30 41 1 15 39
M  V30 42 1 15 40
M  V30 43 1 16 41
M  V30 44 1 16 42
M  V30 45 1 17 43
M  V30 46 1 18 44
M  V30 47 1 18 45
M  V30 48 1 19 46
M  V30 49 1 19 47
M  V30 50 1 20 48
M  V30 51 1 20 49
M  V30 52 1 21 50
M  V30 53 1 21 51
M  V30 54 1 22 52
M  V30 55 1 23 53
M  V30 56 1 27 54
M  V30 57 1 27 55
M  V30 58 1 27 56
M  V30 END BOND
M  V30 END CTAB
M  END
>  <Column 1>
859

>  <level_0>
985

>  <index>
985

>  <Unnamed: 0>
985

>  <NO.>
997

>  <Name>
chembl2024515

>  <IUPAC_name>
n-[4-[2-[4-(2-3-dichlorophenyl)piperazin-1-yl]ethyl]cyclohexyl]methanesulfonamide

>  <SMILES>
CS(=O)(=O)NC1CCC(CCN2CCN(c3cccc(Cl)c3Cl)CC2)CC1

>  <CID>
70683583

>  <logBB>
1

>  <BBB+/BBB->
BBB+

>  <Inchi>
InChI=1S/C19H29Cl2N3O2S/c1-27(25-26)22-16-7-5-15(6-8-16)9-10-23-11-13-24(14-12-23)18-4-2-3-17(20)19(18)21/h2-4-15-16-22H-5-14H2-1H3

>  <threshold>


>  <reference>
R47|

>  <group>
A

>  <Class>
1

>  <ABC>
21.08

>  <ABCGG>
15.3

>  <nAcid>
0

>  <nBase>
1

>  <nAromAtom>
6

>  <nAromBond>
6

>  <nAtom>
56

>  <nHeavyAtom>
27

>  <nSpiro>
0

>  <nBridgehead>
0

>  <nHetero>
8

>  <nN>
3

>  <nO>
2

>  <nF>
0

>  <BalabanJ>
1.32

>  <BertzCT>
728.47

>  <nBonds>
58

>  <nBondsO>
29

>  <nBondsS>
50

>  <nBondsD>
2

>  <nBondsT>
0

>  <nBondsA>
6

>  <nBondsM>
8

>  <nBondsKS>
53

>  <nBondsKD>
5

>  <RNCG>
0.2

>  <RPCG>
0.11

>  <FCSP3>
0.68

>  <SZ>
38.33

>  <Sm>
36.17

>  <Sv>
33.93

>  <Sse>
56.13

>  <Sp>
37.86

>  <Si>
63.54

>  <MZ>
0.68

>  <Mm>
0.65

>  <Mv>
0.61

>  <Mse>
1

>  <Mp>
0.68

>  <Mi>
1.13

>  <NsCH3>
1

>  <NdCH2>
0

>  <NssCH2>
10

>  <NtCH>
0

>  <NdsCH>
0

>  <NaaCH>
3

>  <NsssCH>
2

>  <NddC>
0

>  <NtsC>
0

>  <NdssC>
0

>  <NaasC>
3

>  <NaaaC>
0

>  <NssssC>
0

>  <NsNH3>
0

>  <NsNH2>
0

>  <NssNH2>
0

>  <NdNH>
0

>  <NssNH>
1

>  <NaaNH>
0

>  <NtN>
0

>  <NsssNH>
0

>  <NdsN>
0

>  <NaaN>
0

>  <NsssN>
2

>  <NddsN>
0

>  <NaasN>
0

>  <NssssN>
0

>  <NsOH>
0

>  <NdO>
2

>  <NssO>
0

>  <NaaO>
0

>  <NsF>
0

>  <NsSiH3>
0

>  <NssSiH2>
0

>  <NsssSiH>
0

>  <NssssSi>
0

>  <NsPH2>
0

>  <NssPH>
0

>  <NsssP>
0

>  <NdsssP>
0

>  <NsssssP>
0

>  <NsSH>
0

>  <NdS>
0

>  <NssS>
0

>  <NaaS>
0

>  <NdssS>
0

>  <NddssS>
1

>  <NsCl>
2

>  <NsBr>
0

>  <NsI>
0

>  <fragCpx>
139.08

>  <fMF>
0.36

>  <nHBAcc>
4

>  <nHBDon>
1

>  <Kier1>
21.7

>  <Kier2>
9.67

>  <Lipinski>
1

>  <GhoseFilter>
1

>  <FilterItLogS>
-5.23

>  <VMcGowan>
315.6

>  <LabuteASA>
172.6

>  <PEOE_VSA1>
4.9

>  <PEOE_VSA2>
4.9

>  <PEOE_VSA3>
13.14

>  <PEOE_VSA4>
0

>  <PEOE_VSA5>
0

>  <PEOE_VSA6>
29.27

>  <PEOE_VSA7>
56.7

>  <PEOE_VSA8>
32.22

>  <PEOE_VSA9>
21.99

>  <PEOE_VSA10>
0

>  <PEOE_VSA11>
0

>  <PEOE_VSA12>
10.02

>  <PEOE_VSA13>
0

>  <SMR_VSA1>
8.42

>  <SMR_VSA2>
0

>  <SMR_VSA3>
9.62

>  <SMR_VSA4>
5.92

>  <SMR_VSA5>
38.15

>  <SMR_VSA6>
43.88

>  <SMR_VSA7>
28.24

>  <SMR_VSA8>
0

>  <SMR_VSA9>
0

>  <SlogP_VSA1>
9.62

>  <SlogP_VSA2>
58.34

>  <SlogP_VSA3>
10.02

>  <SlogP_VSA4>
5.92

>  <SlogP_VSA5>
32.1

>  <SlogP_VSA6>
18.2

>  <SlogP_VSA7>
10.05

>  <SlogP_VSA8>
0

>  <SlogP_VSA9>
0

>  <SlogP_VSA10>
5.69

>  <SlogP_VSA11>
0

>  <EState_VSA1>
10.02

>  <EState_VSA2>
6.04

>  <EState_VSA3>
15.96

>  <EState_VSA4>
64.09

>  <EState_VSA5>
12.68

>  <EState_VSA6>
0

>  <EState_VSA7>
18.2

>  <EState_VSA8>
14.52

>  <EState_VSA9>
23.2

>  <EState_VSA10>
8.42

>  <VSA_EState1>
25.44

>  <VSA_EState2>
4.84

>  <VSA_EState3>
1.25

>  <VSA_EState4>
1.03

>  <VSA_EState5>
0.71

>  <VSA_EState6>
5.93

>  <VSA_EState7>
6.59

>  <VSA_EState8>
5.11

>  <VSA_EState9>
-3.09

>  <apol>
63.23

>  <bpol>
40.76

>  <nRing>
3

>  <nHRing>
1

>  <naRing>
1

>  <naHRing>
0

>  <nARing 2>
2

>  <nAHRing 2>
1

>  <nFRing>
0

>  <nFHRing>
0

>  <nFaRing>
0

>  <nFaHRing>
0

>  <nFARing 2>
0

>  <nFAHRing 2>
0

>  <nRot>
6

>  <SLogP>
3.61

>  <SMR>
113.46

>  <TopoPSA(NO)>
52.65

>  <TopoPSA>
61.03

>  <JGI1>
0.24

>  <JGI2>
0.08

>  <JGI3>
0.04

>  <JGI4>
0.05

>  <JGI5>
0.02

>  <Diameter>
16

>  <Radius>
8

>  <TMWC10>
131.02

>  <TSRW10>
62.01

>  <MW>
433.14

>  <AMW>
7.73

>  <WPath>
2280

>  <WPol>
39

>  <Zagreb1>
140

>  <Zagreb2>
159

>  <mZagreb2>
5.79

>  <yes>


>  <nAR-cont>
1

>  <nHA-cont>
0.860070871

>  <MWHBN>
0.24024583

>  <MWHBN-cont>
0.974635121

>  <TPSA-cont>
0.573972703

>  <pka_cont>
0.97

>  <yes.1>


>  <BBB_SCORE>
4.954968958

>  <MMFF94 Energy>
74.025

$$$$
Compound 717
Actelion Java MolfileCreator 2.0

  0  0  0  0  0  0              0 V3000
M  V30 BEGIN CTAB
M  V30 COUNTS 47 49 0 0 0
M  V30 BEGIN ATOM
M  V30 1 S -0.816 3.3489 1.7142 0
M  V30 2 O -0.8295 4.641 1.0535 0
M  V30 3 O -0.0346 3.1424 2.9182 0
M  V30 4 C -2.5141 2.9839 2.1168 0
M  V30 5 C -0.3688 2.1061 0.504 0
M  V30 6 C -3.5254 3.3838 1.2382 0
M  V30 7 C -2.8232 2.3468 3.322 0
M  V30 8 C 1.0538 2.3536 0.0022 0
M  V30 9 C -0.4946 0.686 1.0509 0
M  V30 10 C -4.8587 3.1156 1.5578 0
M  V30 11 C -4.1584 2.0807 3.6357 0
M  V30 12 C 1.4825 1.2734 -0.9852 0
M  V30 13 C -0.0104 -0.3427 0.0296 0
M  V30 14 C -5.1786 2.4613 2.7546 0
M  V30 15 N 1.3695 -0.0659 -0.3873 0
M  V30 16 C -6.5483 2.1862 3.0788 0
M  V30 17 C 1.8768 -1.0812 -1.3344 0
M  V30 18 N -7.6565 1.9566 3.3351 0
M  V30 19 C 2.1614 -2.4414 -0.6738 0
M  V30 20 C 2.732 -3.4323 -1.6601 0
M  V30 21 C 4.0936 -3.4045 -1.9876 0
M  V30 22 C 1.908 -4.3813 -2.2823 0
M  V30 23 F 4.8964 -2.496 -1.4158 0
M  V30 24 C 4.6383 -4.2969 -2.9021 0
M  V30 25 C 2.4487 -5.2818 -3.2022 0
M  V30 26 C 3.8068 -5.2309 -3.5017 0
M  V30 27 F 4.3174 -6.097 -4.3863 0
M  V30 28 H -1.0647 2.2377 -0.3344 0
M  V30 29 H -3.288 3.9141 0.3177 0
M  V30 30 H -2.0391 2.0608 4.0211 0
M  V30 31 H 1.1192 3.3353 -0.4818 0
M  V30 32 H 1.7549 2.3771 0.8469 0
M  V30 33 H 0.0849 0.5812 1.9771 0
M  V30 34 H -1.536 0.4636 1.3081 0
M  V30 35 H -5.6464 3.4295 0.8741 0
M  V30 36 H -4.3973 1.5831 4.5747 0
M  V30 37 H 0.8792 1.3441 -1.8999 0
M  V30 38 H 2.5241 1.4715 -1.266 0
M  V30 39 H -0.6856 -0.3495 -0.8359 0
M  V30 40 H -0.082 -1.3269 0.5036 0
M  V30 41 H 2.8214 -0.7228 -1.7652 0
M  V30 42 H 1.1824 -1.203 -2.1768 0
M  V30 43 H 2.8646 -2.3175 0.1598 0
M  V30 44 H 1.25 -2.8669 -0.2391 0
M  V30 45 H 0.8454 -4.4267 -2.0536 0
M  V30 46 H 5.6938 -4.2627 -3.143 0
M  V30 47 H 1.8209 -6.023 -3.6875 0
M  V30 END ATOM
M  V30 BEGIN BOND
M  V30 1 2 1 2
M  V30 2 2 1 3
M  V30 3 1 1 4
M  V30 4 1 1 5
M  V30 5 2 4 6
M  V30 6 1 4 7
M  V30 7 1 5 8
M  V30 8 1 5 9
M  V30 9 1 6 10
M  V30 10 2 7 11
M  V30 11 1 8 12
M  V30 12 1 9 13
M  V30 13 2 10 14
M  V30 14 1 12 15
M  V30 15 1 14 16
M  V30 16 1 15 17
M  V30 17 3 16 18
M  V30 18 1 17 19
M  V30 19 1 19 20
M  V30 20 2 20 21
M  V30 21 1 20 22
M  V30 22 1 21 23
M  V30 23 1 21 24
M  V30 24 2 22 25
M  V30 25 2 24 26
M  V30 26 1 26 27
M  V30 27 1 11 14
M  V30 28 1 13 15
M  V30 29 1 25 26
M  V30 30 1 5 28
M  V30 31 1 6 29
M  V30 32 1 7 30
M  V30 33 1 8 31
M  V30 34 1 8 32
M  V30 35 1 9 33
M  V30 36 1 9 34
M  V30 37 1 10 35
M  V30 38 1 11 36
M  V30 39 1 12 37
M  V30 40 1 12 38
M  V30 41 1 13 39
M  V30 42 1 13 40
M  V30 43 1 17 41
M  V30 44 1 17 42
M  V30 45 1 19 43
M  V30 46 1 19 44
M  V30 47 1 22 45
M  V30 48 1 24 46
M  V30 49 1 25 47
M  V30 END BOND
M  V30 END CTAB
M  END
>  <Column 1>
860

>  <level_0>
986

>  <index>
986

>  <Unnamed: 0>
986

>  <NO.>
998

>  <Name>
compound 26

>  <IUPAC_name>
4-[1-[2-(2-4-difluorophenyl)ethyl]piperidin-4-yl]sulfonylbenzonitrile

>  <SMILES>
N#Cc1ccc(S(=O)(=O)C2CCN(CCc3ccc(F)cc3F)CC2)cc1

>  <CID>
9908431

>  <logBB>
1

>  <BBB+/BBB->
BBB+

>  <Inchi>
InChI=1S/C20H20F2N2O2S/c21-17-4-3-16(20(22)13-17)7-10-24-11-8-19(9-12-24)27(25-26)18-5-1-15(14-23)2-6-18/h1-6-13-19H-7-12H2

>  <threshold>


>  <reference>
R18|R26|R27|

>  <group>
A

>  <Class>
1

>  <ABC>
20.88

>  <ABCGG>
15.7

>  <nAcid>
0

>  <nBase>
1

>  <nAromAtom>
12

>  <nAromBond>
12

>  <nAtom>
47

>  <nHeavyAtom>
27

>  <nSpiro>
0

>  <nBridgehead>
0

>  <nHetero>
7

>  <nN>
2

>  <nO>
2

>  <nF>
2

>  <BalabanJ>
1.4

>  <BertzCT>
944.94

>  <nBonds>
49

>  <nBondsO>
29

>  <nBondsS>
34

>  <nBondsD>
2

>  <nBondsT>
1

>  <nBondsA>
12

>  <nBondsM>
15

>  <nBondsKS>
40

>  <nBondsKD>
8

>  <RNCG>
0.18

>  <RPCG>
0.11

>  <FCSP3>
0.35

>  <SZ>
34

>  <Sm>
32.51

>  <Sv>
30.84

>  <Sse>
47.86

>  <Sp>
32.67

>  <Si>
53.17

>  <MZ>
0.72

>  <Mm>
0.69

>  <Mv>
0.66

>  <Mse>
1.02

>  <Mp>
0.7

>  <Mi>
1.13

>  <NsCH3>
0

>  <NdCH2>
0

>  <NssCH2>
6

>  <NtCH>
0

>  <NdsCH>
0

>  <NaaCH>
7

>  <NsssCH>
1

>  <NddC>
0

>  <NtsC>
1

>  <NdssC>
0

>  <NaasC>
5

>  <NaaaC>
0

>  <NssssC>
0

>  <NsNH3>
0

>  <NsNH2>
0

>  <NssNH2>
0

>  <NdNH>
0

>  <NssNH>
0

>  <NaaNH>
0

>  <NtN>
1

>  <NsssNH>
0

>  <NdsN>
0

>  <NaaN>
0

>  <NsssN>
1

>  <NddsN>
0

>  <NaasN>
0

>  <NssssN>
0

>  <NsOH>
0

>  <NdO>
2

>  <NssO>
0

>  <NaaO>
0

>  <NsF>
2

>  <NsSiH3>
0

>  <NssSiH2>
0

>  <NsssSiH>
0

>  <NssssSi>
0

>  <NsPH2>
0

>  <NssPH>
0

>  <NsssP>
0

>  <NdsssP>
0

>  <NsssssP>
0

>  <NsSH>
0

>  <NdS>
0

>  <NssS>
0

>  <NaaS>
0

>  <NdssS>
0

>  <NddssS>
1

>  <NsCl>
0

>  <NsBr>
0

>  <NsI>
0

>  <fragCpx>
139.07

>  <fMF>
0.45

>  <nHBAcc>
4

>  <nHBDon>
0

>  <Kier1>
21.7

>  <Kier2>
9.67

>  <Lipinski>
1

>  <GhoseFilter>
1

>  <FilterItLogS>
-5.66

>  <VMcGowan>
277.25

>  <LabuteASA>
157.51

>  <PEOE_VSA1>
4.9

>  <PEOE_VSA2>
0

>  <PEOE_VSA3>
17.2

>  <PEOE_VSA4>
5.26

>  <PEOE_VSA5>
0

>  <PEOE_VSA6>
6.07

>  <PEOE_VSA7>
68.25

>  <PEOE_VSA8>
12.61

>  <PEOE_VSA9>
21.78

>  <PEOE_VSA10>
11.63

>  <PEOE_VSA11>
9.84

>  <PEOE_VSA12>
0

>  <PEOE_VSA13>
0

>  <SMR_VSA1>
17.2

>  <SMR_VSA2>
5.26

>  <SMR_VSA3>
4.9

>  <SMR_VSA4>
0

>  <SMR_VSA5>
29.41

>  <SMR_VSA6>
19.63

>  <SMR_VSA7>
65.23

>  <SMR_VSA8>
0

>  <SMR_VSA9>
6.07

>  <SlogP_VSA1>
0

>  <SlogP_VSA2>
38.2

>  <SlogP_VSA3>
16.26

>  <SlogP_VSA4>
22.97

>  <SlogP_VSA5>
23.97

>  <SlogP_VSA6>
47.36

>  <SlogP_VSA7>
0

>  <SlogP_VSA8>
0

>  <SlogP_VSA9>
0

>  <SlogP_VSA10>
8.78

>  <SlogP_VSA11>
0

>  <EState_VSA1>
26.72

>  <EState_VSA2>
4.9

>  <EState_VSA3>
50.02

>  <EState_VSA4>
6.07

>  <EState_VSA5>
36.4

>  <EState_VSA6>
0

>  <EState_VSA7>
6.07

>  <EState_VSA8>
4.9

>  <EState_VSA9>
5.26

>  <EState_VSA10>
17.2

>  <VSA_EState1>
52.19

>  <VSA_EState2>
2.35

>  <VSA_EState3>
8.37

>  <VSA_EState4>
0.89

>  <VSA_EState5>
-1.14

>  <VSA_EState6>
11.55

>  <VSA_EState7>
1.47

>  <VSA_EState8>
1.83

>  <VSA_EState9>
-3.43

>  <apol>
54.55

>  <bpol>
31.23

>  <nRing>
3

>  <nHRing>
1

>  <naRing>
2

>  <naHRing>
0

>  <nARing 2>
1

>  <nAHRing 2>
1

>  <nFRing>
0

>  <nFHRing>
0

>  <nFaRing>
0

>  <nFaHRing>
0

>  <nFARing 2>
0

>  <nFAHRing 2>
0

>  <nRot>
5

>  <SLogP>
3.32

>  <SMR>
97.87

>  <TopoPSA(NO)>
61.17

>  <TopoPSA>
69.55

>  <JGI1>
0.24

>  <JGI2>
0.1

>  <JGI3>
0.05

>  <JGI4>
0.04

>  <JGI5>
0.03

>  <Diameter>
17

>  <Radius>
9

>  <TMWC10>
131.58

>  <TSRW10>
62.19

>  <MW>
390.12

>  <AMW>
8.3

>  <WPath>
2162

>  <WPol>
43

>  <Zagreb1>
140

>  <Zagreb2>
163

>  <mZagreb2>
5.94

>  <yes>


>  <nAR-cont>
0.816016

>  <nHA-cont>
0.860070871

>  <MWHBN>
0.202516719

>  <MWHBN-cont>
0.999936493

>  <TPSA-cont>
0.514497812

>  <pka_cont>
0.97

>  <yes.1>


>  <BBB_SCORE>
4.689987235

>  <MMFF94 Energy>
61.067

$$$$
Compound 718
Actelion Java MolfileCreator 2.0

  0  0  0  0  0  0              0 V3000
M  V30 BEGIN CTAB
M  V30 COUNTS 44 45 0 0 0
M  V30 BEGIN ATOM
M  V30 1 I 7.9096 1.9131 4.2285 0
M  V30 2 C 6.077 1.4565 3.3667 0
M  V30 3 C 5.647 2.146 2.2387 0
M  V30 4 C 5.2801 0.4579 3.9137 0
M  V30 5 C 4.4099 1.8328 1.6601 0
M  V30 6 C 4.0449 0.1567 3.3265 0
M  V30 7 C 3.5739 0.839 2.1925 0
M  V30 8 N 2.3458 0.5107 1.6288 0
M  V30 9 C 2.0433 0.8763 0.2356 0
M  V30 10 C 1.1653 0.4739 2.5123 0
M  V30 11 C 0.8753 0.032 -0.3271 0
M  V30 12 C 0.0249 -0.3579 1.8833 0
M  V30 13 N -0.3419 0.0829 0.5158 0
M  V30 14 C -1.4187 -0.7709 -0.0122 0
M  V30 15 C -2.0312 -0.222 -1.3079 0
M  V30 16 C -3.2343 -1.0617 -1.7473 0
M  V30 17 C -3.8475 -0.5216 -3.0404 0
M  V30 18 C -5.0486 -1.3594 -3.4782 0
M  V30 19 C -5.6611 -0.8259 -4.7634 0
M  V30 20 H 6.2544 2.9302 1.7951 0
M  V30 21 H 5.6013 -0.1025 4.7871 0
M  V30 22 H 4.1032 2.4053 0.7894 0
M  V30 23 H 3.4608 -0.6536 3.7548 0
M  V30 24 H 2.9152 0.7017 -0.4066 0
M  V30 25 H 1.7846 1.9415 0.1802 0
M  V30 26 H 0.8188 1.5006 2.6884 0
M  V30 27 H 1.3915 0.0372 3.4907 0
M  V30 28 H 1.2127 -1.0072 -0.4382 0
M  V30 29 H 0.657 0.4142 -1.3297 0
M  V30 30 H -0.8502 -0.276 2.5395 0
M  V30 31 H 0.3255 -1.4146 1.8697 0
M  V30 32 H -2.2232 -0.8234 0.7331 0
M  V30 33 H -1.0646 -1.798 -0.1692 0
M  V30 34 H -1.2893 -0.2224 -2.1139 0
M  V30 35 H -2.3479 0.8172 -1.1553 0
M  V30 36 H -3.9923 -1.0619 -0.9546 0
M  V30 37 H -2.9206 -2.1021 -1.8957 0
M  V30 38 H -3.0907 -0.5216 -3.8342 0
M  V30 39 H -4.16 0.5192 -2.8921 0
M  V30 40 H -4.7407 -2.4001 -3.6316 0
M  V30 41 H -5.8103 -1.3591 -2.6898 0
M  V30 42 H -6.518 -1.4396 -5.0581 0
M  V30 43 H -6.0092 0.2039 -4.6341 0
M  V30 44 H -4.9337 -0.8429 -5.5812 0
M  V30 END ATOM
M  V30 BEGIN BOND
M  V30 1 1 1 2
M  V30 2 2 2 3
M  V30 3 1 2 4
M  V30 4 1 3 5
M  V30 5 2 4 6
M  V30 6 2 5 7
M  V30 7 1 7 8
M  V30 8 1 8 9
M  V30 9 1 8 10
M  V30 10 1 9 11
M  V30 11 1 10 12
M  V30 12 1 11 13
M  V30 13 1 13 14
M  V30 14 1 14 15
M  V30 15 1 15 16
M  V30 16 1 16 17
M  V30 17 1 17 18
M  V30 18 1 18 19
M  V30 19 1 6 7
M  V30 20 1 12 13
M  V30 21 1 3 20
M  V30 22 1 4 21
M  V30 23 1 5 22
M  V30 24 1 6 23
M  V30 25 1 9 24
M  V30 26 1 9 25
M  V30 27 1 10 26
M  V30 28 1 10 27
M  V30 29 1 11 28
M  V30 30 1 11 29
M  V30 31 1 12 30
M  V30 32 1 12 31
M  V30 33 1 14 32
M  V30 34 1 14 33
M  V30 35 1 15 34
M  V30 36 1 15 35
M  V30 37 1 16 36
M  V30 38 1 16 37
M  V30 39 1 17 38
M  V30 40 1 17 39
M  V30 41 1 18 40
M  V30 42 1 18 41
M  V30 43 1 19 42
M  V30 44 1 19 43
M  V30 45 1 19 44
M  V30 END BOND
M  V30 END CTAB
M  END
>  <Column 1>
861

>  <level_0>
987

>  <index>
987

>  <Unnamed: 0>
987

>  <NO.>
999

>  <Name>
1-hexyl-4-(4- iodophenyl)piperazine

>  <IUPAC_name>
1-hexyl-4-(4-iodophenyl)piperazine

>  <SMILES>
CCCCCCN1CCN(c2ccc(I)cc2)CC1

>  <CID>
13720676

>  <logBB>
1.01

>  <BBB+/BBB->
BBB+

>  <Inchi>
InChI=1S/C16H25IN2/c1-2-3-4-5-10-18-11-13-19(14-12-18)16-8-6-15(17)7-9-16/h6-9H-2-5-10-14H2-1H3

>  <threshold>


>  <reference>
R2|R2|R3|R8|R21|R25|R27|R27|R38|R41|R43|R46|R47|R40|

>  <group>
A

>  <Class>
1

>  <ABC>
14.21

>  <ABCGG>
10.99

>  <nAcid>
0

>  <nBase>
1

>  <nAromAtom>
6

>  <nAromBond>
6

>  <nAtom>
44

>  <nHeavyAtom>
19

>  <nSpiro>
0

>  <nBridgehead>
0

>  <nHetero>
3

>  <nN>
2

>  <nO>
0

>  <nF>
0

>  <BalabanJ>
1.59

>  <BertzCT>
355.52

>  <nBonds>
45

>  <nBondsO>
20

>  <nBondsS>
39

>  <nBondsD>
0

>  <nBondsT>
0

>  <nBondsA>
6

>  <nBondsM>
6

>  <nBondsKS>
42

>  <nBondsKD>
3

>  <RNCG>
0.32

>  <RPCG>
0.06

>  <FCSP3>
0.63

>  <SZ>
31.33

>  <Sm>
31

>  <Sv>
25.87

>  <Sse>
42.94

>  <Sp>
30.5

>  <Si>
49.7

>  <MZ>
0.71

>  <Mm>
0.7

>  <Mv>
0.59

>  <Mse>
0.98

>  <Mp>
0.69

>  <Mi>
1.13

>  <NsCH3>
1

>  <NdCH2>
0

>  <NssCH2>
9

>  <NtCH>
0

>  <NdsCH>
0

>  <NaaCH>
4

>  <NsssCH>
0

>  <NddC>
0

>  <NtsC>
0

>  <NdssC>
0

>  <NaasC>
2

>  <NaaaC>
0

>  <NssssC>
0

>  <NsNH3>
0

>  <NsNH2>
0

>  <NssNH2>
0

>  <NdNH>
0

>  <NssNH>
0

>  <NaaNH>
0

>  <NtN>
0

>  <NsssNH>
0

>  <NdsN>
0

>  <NaaN>
0

>  <NsssN>
2

>  <NddsN>
0

>  <NaasN>
0

>  <NssssN>
0

>  <NsOH>
0

>  <NdO>
0

>  <NssO>
0

>  <NaaO>
0

>  <NsF>
0

>  <NsSiH3>
0

>  <NssSiH2>
0

>  <NsssSiH>
0

>  <NssssSi>
0

>  <NsPH2>
0

>  <NssPH>
0

>  <NsssP>
0

>  <NdsssP>
0

>  <NsssssP>
0

>  <NsSH>
0

>  <NdS>
0

>  <NssS>
0

>  <NaaS>
0

>  <NdssS>
0

>  <NddssS>
0

>  <NsCl>
0

>  <NsBr>
0

>  <NsI>
1

>  <fragCpx>
58.03

>  <fMF>
0.27

>  <nHBAcc>
2

>  <nHBDon>
0

>  <Kier1>
15.39

>  <Kier2>
8.32

>  <Lipinski>
1

>  <GhoseFilter>
1

>  <FilterItLogS>
-4.88

>  <VMcGowan>
247.47

>  <LabuteASA>
130.86

>  <PEOE_VSA1>
4.9

>  <PEOE_VSA2>
4.9

>  <PEOE_VSA3>
0

>  <PEOE_VSA4>
0

>  <PEOE_VSA5>
0

>  <PEOE_VSA6>
26.19

>  <PEOE_VSA7>
59.82

>  <PEOE_VSA8>
35.44

>  <PEOE_VSA9>
0

>  <PEOE_VSA10>
0

>  <PEOE_VSA11>
0

>  <PEOE_VSA12>
0

>  <PEOE_VSA13>
0

>  <SMR_VSA1>
0

>  <SMR_VSA2>
0

>  <SMR_VSA3>
4.9

>  <SMR_VSA4>
0

>  <SMR_VSA5>
32.61

>  <SMR_VSA6>
37.62

>  <SMR_VSA7>
27.84

>  <SMR_VSA8>
0

>  <SMR_VSA9>
0

>  <SlogP_VSA1>
4.9

>  <SlogP_VSA2>
37.62

>  <SlogP_VSA3>
0

>  <SlogP_VSA4>
3.57

>  <SlogP_VSA5>
32.61

>  <SlogP_VSA6>
24.27

>  <SlogP_VSA7>
0

>  <SlogP_VSA8>
0

>  <SlogP_VSA9>
0

>  <SlogP_VSA10>
5.69

>  <SlogP_VSA11>
0

>  <EState_VSA1>
0

>  <EState_VSA2>
0

>  <EState_VSA3>
0

>  <EState_VSA4>
0

>  <EState_VSA5>
67.66

>  <EState_VSA6>
0

>  <EState_VSA7>
0

>  <EState_VSA8>
63.58

>  <EState_VSA9>
0

>  <EState_VSA10>
0

>  <VSA_EState1>
1.32

>  <VSA_EState2>
5.14

>  <VSA_EState3>
0

>  <VSA_EState4>
1.38

>  <VSA_EState5>
0

>  <VSA_EState6>
8.9

>  <VSA_EState7>
5.49

>  <VSA_EState8>
8.36

>  <VSA_EState9>
0

>  <apol>
50.94

>  <bpol>
32.18

>  <nRing>
2

>  <nHRing>
1

>  <naRing>
1

>  <naHRing>
0

>  <nARing 2>
1

>  <nAHRing 2>
1

>  <nFRing>
0

>  <nFHRing>
0

>  <nFaRing>
0

>  <nFaHRing>
0

>  <nFARing 2>
0

>  <nFAHRing 2>
0

>  <nRot>
6

>  <SLogP>
3.99

>  <SMR>
91.95

>  <TopoPSA(NO)>
6.48

>  <TopoPSA>
6.48

>  <JGI1>
0.15

>  <JGI2>
0.07

>  <JGI3>
0.02

>  <JGI4>
0.03

>  <JGI5>
0.03

>  <Diameter>
14

>  <Radius>
7

>  <TMWC10>
109.01

>  <TSRW10>
51.45

>  <MW>
372.11

>  <AMW>
8.46

>  <WPath>
860

>  <WPol>
24

>  <Zagreb1>
90

>  <Zagreb2>
100

>  <mZagreb2>
4.44

>  <yes>


>  <nAR-cont>
0.816016

>  <nHA-cont>
0.998649058

>  <MWHBN>
0.103679842

>  <MWHBN-cont>
0.750769676

>  <TPSA-cont>
0.954765576

>  <pka_cont>
0.97

>  <yes.1>


>  <BBB_SCORE>
5.335350724

>  <MMFF94 Energy>
90.716

$$$$
Compound 719
Actelion Java MolfileCreator 2.0

  0  0  0  0  0  0              0 V3000
M  V30 BEGIN CTAB
M  V30 COUNTS 27 27 0 0 0
M  V30 BEGIN ATOM
M  V30 1 C 0.8543 -0.1552 -0.6989 0
M  V30 2 C 0.3378 -1.2671 0.2462 0
M  V30 3 C 0.4553 1.2357 -0.1737 0
M  V30 4 C 2.3727 -0.2074 -0.8909 0
M  V30 5 C -1.1772 -1.129 0.47 0
M  V30 6 C 0.6463 -2.6728 -0.2768 0
M  V30 7 C -1.0572 1.3579 0.0456 0
M  V30 8 C -1.5571 0.2561 0.9838 0
M  V30 9 C -1.413 2.7376 0.5972 0
M  V30 10 H 0.3897 -0.2898 -1.6854 0
M  V30 11 H 0.8347 -1.158 1.22 0
M  V30 12 H 0.7808 2.0032 -0.8875 0
M  V30 13 H 0.9832 1.438 0.7678 0
M  V30 14 H 2.8959 -0.1626 0.07 0
M  V30 15 H 2.679 -1.1227 -1.4057 0
M  V30 16 H 2.716 0.6344 -1.502 0
M  V30 17 H -1.7116 -1.3256 -0.4683 0
M  V30 18 H -1.5178 -1.8818 1.1912 0
M  V30 19 H 0.2478 -2.8166 -1.2867 0
M  V30 20 H 0.2026 -3.4349 0.373 0
M  V30 21 H 1.7235 -2.8616 -0.3031 0
M  V30 22 H -1.5589 1.2436 -0.9244 0
M  V30 23 H -1.137 0.3977 1.9878 0
M  V30 24 H -2.6474 0.3169 1.0848 0
M  V30 25 H -1.0835 3.5261 -0.0874 0
M  V30 26 H -0.9391 2.9131 1.569 0
M  V30 27 H -2.496 2.8367 0.7257 0
M  V30 END ATOM
M  V30 BEGIN BOND
M  V30 1 1 1 2
M  V30 2 1 1 3
M  V30 3 1 1 4
M  V30 4 1 2 5
M  V30 5 1 2 6
M  V30 6 1 3 7
M  V30 7 1 5 8
M  V30 8 1 7 9
M  V30 9 1 7 8
M  V30 10 1 1 10
M  V30 11 1 2 11
M  V30 12 1 3 12
M  V30 13 1 3 13
M  V30 14 1 4 14
M  V30 15 1 4 15
M  V30 16 1 4 16
M  V30 17 1 5 17
M  V30 18 1 5 18
M  V30 19 1 6 19
M  V30 20 1 6 20
M  V30 21 1 6 21
M  V30 22 1 7 22
M  V30 23 1 8 23
M  V30 24 1 8 24
M  V30 25 1 9 25
M  V30 26 1 9 26
M  V30 27 1 9 27
M  V30 END BOND
M  V30 END CTAB
M  END
>  <Column 1>
862

>  <level_0>
988

>  <index>
988

>  <Unnamed: 0>
988

>  <NO.>
1000

>  <Name>
tripropylphosphine

>  <IUPAC_name>
1-2-4-trimethylcyclohexane

>  <SMILES>
CC1CCC(C)C(C)C1

>  <CID>
91517

>  <logBB>
1.02

>  <BBB+/BBB->
BBB+

>  <Inchi>
InChI=1S/C9H18/c1-7-4-5-8(2)9(3)6-7/h7-9H-4-6H2-1-3H3

>  <threshold>


>  <reference>
R2|R2|R3|R8|R21|R25|R27|R27|R38|R40|R41|R46|R47|

>  <group>
A

>  <Class>
1

>  <ABC>
6.65

>  <ABCGG>
6.36

>  <nAcid>
0

>  <nBase>
0

>  <nAromAtom>
0

>  <nAromBond>
0

>  <nAtom>
27

>  <nHeavyAtom>
9

>  <nSpiro>
0

>  <nBridgehead>
0

>  <nHetero>
0

>  <nN>
0

>  <nO>
0

>  <nF>
0

>  <BalabanJ>
2.35

>  <BertzCT>
86.04

>  <nBonds>
27

>  <nBondsO>
9

>  <nBondsS>
27

>  <nBondsD>
0

>  <nBondsT>
0

>  <nBondsA>
0

>  <nBondsM>
0

>  <nBondsKS>
27

>  <nBondsKD>
0

>  <RNCG>
0.14

>  <RPCG>
0.07

>  <FCSP3>
1

>  <SZ>
12

>  <Sm>
10.51

>  <Sv>
13.88

>  <Sse>
25.99

>  <Sp>
16.19

>  <Si>
30.74

>  <MZ>
0.44

>  <Mm>
0.39

>  <Mv>
0.51

>  <Mse>
0.96

>  <Mp>
0.6

>  <Mi>
1.14

>  <NsCH3>
3

>  <NdCH2>
0

>  <NssCH2>
3

>  <NtCH>
0

>  <NdsCH>
0

>  <NaaCH>
0

>  <NsssCH>
3

>  <NddC>
0

>  <NtsC>
0

>  <NdssC>
0

>  <NaasC>
0

>  <NaaaC>
0

>  <NssssC>
0

>  <NsNH3>
0

>  <NsNH2>
0

>  <NssNH2>
0

>  <NdNH>
0

>  <NssNH>
0

>  <NaaNH>
0

>  <NtN>
0

>  <NsssNH>
0

>  <NdsN>
0

>  <NaaN>
0

>  <NsssN>
0

>  <NddsN>
0

>  <NaasN>
0

>  <NssssN>
0

>  <NsOH>
0

>  <NdO>
0

>  <NssO>
0

>  <NaaO>
0

>  <NsF>
0

>  <NsSiH3>
0

>  <NssSiH2>
0

>  <NsssSiH>
0

>  <NssssSi>
0

>  <NsPH2>
0

>  <NssPH>
0

>  <NsssP>
0

>  <NdsssP>
0

>  <NsssssP>
0

>  <NsSH>
0

>  <NdS>
0

>  <NssS>
0

>  <NaaS>
0

>  <NdssS>
0

>  <NddssS>
0

>  <NsCl>
0

>  <NsBr>
0

>  <NsI>
0

>  <fragCpx>
9

>  <fMF>
0.22

>  <nHBAcc>
0

>  <nHBDon>
0

>  <Kier1>
7.11

>  <Kier2>
2.72

>  <Lipinski>
1

>  <GhoseFilter>
0

>  <FilterItLogS>
-1.98

>  <VMcGowan>
126.81

>  <LabuteASA>
58.65

>  <PEOE_VSA1>
0

>  <PEOE_VSA2>
0

>  <PEOE_VSA3>
0

>  <PEOE_VSA4>
0

>  <PEOE_VSA5>
0

>  <PEOE_VSA6>
33.61

>  <PEOE_VSA7>
24.17

>  <PEOE_VSA8>
0

>  <PEOE_VSA9>
0

>  <PEOE_VSA10>
0

>  <PEOE_VSA11>
0

>  <PEOE_VSA12>
0

>  <PEOE_VSA13>
0

>  <SMR_VSA1>
0

>  <SMR_VSA2>
0

>  <SMR_VSA3>
0

>  <SMR_VSA4>
17.75

>  <SMR_VSA5>
40.03

>  <SMR_VSA6>
0

>  <SMR_VSA7>
0

>  <SMR_VSA8>
0

>  <SMR_VSA9>
0

>  <SlogP_VSA1>
0

>  <SlogP_VSA2>
0

>  <SlogP_VSA3>
0

>  <SlogP_VSA4>
17.75

>  <SlogP_VSA5>
40.03

>  <SlogP_VSA6>
0

>  <SlogP_VSA7>
0

>  <SlogP_VSA8>
0

>  <SlogP_VSA9>
0

>  <SlogP_VSA10>
0

>  <SlogP_VSA11>
0

>  <EState_VSA1>
0

>  <EState_VSA2>
0

>  <EState_VSA3>
0

>  <EState_VSA4>
17.75

>  <EState_VSA5>
19.26

>  <EState_VSA6>
0

>  <EState_VSA7>
0

>  <EState_VSA8>
20.77

>  <EState_VSA9>
0

>  <EState_VSA10>
0

>  <VSA_EState1>
0

>  <VSA_EState2>
0

>  <VSA_EState3>
0

>  <VSA_EState4>
0

>  <VSA_EState5>
2.96

>  <VSA_EState6>
0

>  <VSA_EState7>
4.38

>  <VSA_EState8>
7.15

>  <VSA_EState9>
0

>  <apol>
27.03

>  <bpol>
18.06

>  <nRing>
1

>  <nHRing>
0

>  <naRing>
0

>  <naHRing>
0

>  <nARing 2>
1

>  <nAHRing 2>
0

>  <nFRing>
0

>  <nFHRing>
0

>  <nFaRing>
0

>  <nFaHRing>
0

>  <nFARing 2>
0

>  <nFAHRing 2>
0

>  <nRot>
0

>  <SLogP>
3.08

>  <SMR>
41.34

>  <TopoPSA(NO)>
0

>  <TopoPSA>
0

>  <JGI1>
0.28

>  <JGI2>
0.11

>  <JGI3>
0.06

>  <JGI4>
0.1

>  <JGI5>
0

>  <Diameter>
5

>  <Radius>
3

>  <TMWC10>
80.68

>  <TSRW10>
37.84

>  <MW>
126.14

>  <AMW>
4.67

>  <WPath>
84

>  <WPol>
10

>  <Zagreb1>
42

>  <Zagreb2>
46

>  <mZagreb2>
2.03

>  <yes>


>  <nAR-cont>
0.816016

>  <nHA-cont>
0.56070381

>  <MWHBN>
0

>  <MWHBN-cont>
0

>  <TPSA-cont>
0

>  <pka_cont>
0.97

>  <yes.1>


>  <BBB_SCORE>
1.86171981

>  <MMFF94 Energy>
10.465

$$$$
Compound 720
Actelion Java MolfileCreator 2.0

  0  0  0  0  0  0              0 V3000
M  V30 BEGIN CTAB
M  V30 COUNTS 36 39 0 0 0
M  V30 BEGIN ATOM
M  V30 1 Cl -3.9918 -3.8286 -0.1626 0
M  V30 2 C -3.1148 -2.3668 0.0723 0
M  V30 3 C -1.7484 -2.3253 -0.2117 0
M  V30 4 C -3.7685 -1.2383 0.5517 0
M  V30 5 C -0.9982 -1.1439 -0.0259 0
M  V30 6 C -3.0485 -0.0598 0.7351 0
M  V30 7 C -1.6813 -0.0072 0.4297 0
M  V30 8 C 0.4942 -1.2101 -0.3131 0
M  V30 9 O -1.0775 1.2073 0.6536 0
M  V30 10 C 1.3276 0.0829 -0.4091 0
M  V30 11 C 1.2534 -1.9555 0.7988 0
M  V30 12 C -0.5334 1.7795 -0.4698 0
M  V30 13 C 0.6473 1.275 -1.02 0
M  V30 14 C 1.9006 0.304 1.006 0
M  V30 15 N 1.5648 -0.9045 1.7701 0
M  V30 16 C -1.1531 2.9134 -0.9962 0
M  V30 17 C 1.1866 1.9171 -2.1438 0
M  V30 18 C 2.5927 -1.2876 2.7224 0
M  V30 19 C -0.6078 3.5409 -2.1138 0
M  V30 20 C 0.5596 3.0409 -2.6889 0
M  V30 21 H -1.2572 -3.2267 -0.5729 0
M  V30 22 H -4.8291 -1.2671 0.7837 0
M  V30 23 H -3.551 0.8279 1.1108 0
M  V30 24 H 0.6026 -1.7499 -1.2646 0
M  V30 25 H 2.1927 -0.1683 -1.0433 0
M  V30 26 H 2.1742 -2.3862 0.3829 0
M  V30 27 H 0.6745 -2.7643 1.2569 0
M  V30 28 H 1.4871 1.1838 1.5102 0
M  V30 29 H 2.9852 0.4559 0.9275 0
M  V30 30 H -2.0579 3.3014 -0.5379 0
M  V30 31 H 2.1023 1.5518 -2.603 0
M  V30 32 H 2.7646 -0.4821 3.4446 0
M  V30 33 H 3.5455 -1.5211 2.234 0
M  V30 34 H 2.276 -2.1667 3.2941 0
M  V30 35 H -1.0898 4.4198 -2.5337 0
M  V30 36 H 0.987 3.5308 -3.5603 0
M  V30 END ATOM
M  V30 BEGIN BOND
M  V30 1 1 1 2
M  V30 2 2 2 3
M  V30 3 1 2 4
M  V30 4 1 3 5
M  V30 5 2 4 6
M  V30 6 2 5 7
M  V30 7 1 5 8
M  V30 8 1 7 9
M  V30 9 1 8 10
M  V30 10 1 8 11
M  V30 11 1 9 12
M  V30 12 1 10 13
M  V30 13 1 10 14
M  V30 14 1 11 15
M  V30 15 1 12 16
M  V30 16 1 13 17
M  V30 17 1 15 18
M  V30 18 2 16 19
M  V30 19 2 17 20
M  V30 20 1 6 7
M  V30 21 2 12 13
M  V30 22 1 14 15
M  V30 23 1 19 20
M  V30 24 1 3 21
M  V30 25 1 4 22
M  V30 26 1 6 23
M  V30 27 1 8 24
M  V30 28 1 10 25
M  V30 29 1 11 26
M  V30 30 1 11 27
M  V30 31 1 14 28
M  V30 32 1 14 29
M  V30 33 1 16 30
M  V30 34 1 17 31
M  V30 35 1 18 32
M  V30 36 1 18 33
M  V30 37 1 18 34
M  V30 38 1 19 35
M  V30 39 1 20 36
M  V30 END BOND
M  V30 END CTAB
M  END
>  <Column 1>
863

>  <level_0>
989

>  <index>
989

>  <Unnamed: 0>
989

>  <NO.>
1001

>  <Name>
org-5222

>  <IUPAC_name>
9-chloro-4-methyl-13-oxa-4-azatetracyclo[12.4.0.02-6.07-12]octadeca-1(18)-7(12)-8-10-14-16-hexaene

>  <SMILES>
CN1CC2c3ccccc3Oc3ccc(Cl)cc3C2C1

>  <CID>
9903970

>  <logBB>
1.03

>  <BBB+/BBB->
BBB+

>  <Inchi>
InChI=1S/C17H16ClNO/c1-19-9-14-12-4-2-3-5-16(12)20-17-7-6-11(18)8-13(17)15(14)10-19/h2-8-14-15H-9-10H2-1H3

>  <threshold>


>  <reference>
R2|R2|R3|R8|R21|R25|R27|R27|R36|R38|R41|R43|R46|R47|R49|R4|R40|

>  <group>
A

>  <Class>
1

>  <ABC>
16.28

>  <ABCGG>
13

>  <nAcid>
0

>  <nBase>
1

>  <nAromAtom>
12

>  <nAromBond>
12

>  <nAtom>
36

>  <nHeavyAtom>
20

>  <nSpiro>
0

>  <nBridgehead>
0

>  <nHetero>
3

>  <nN>
1

>  <nO>
1

>  <nF>
0

>  <BalabanJ>
1.64

>  <BertzCT>
669.79

>  <nBonds>
39

>  <nBondsO>
23

>  <nBondsS>
27

>  <nBondsD>
0

>  <nBondsT>
0

>  <nBondsA>
12

>  <nBondsM>
12

>  <nBondsKS>
33

>  <nBondsKD>
6

>  <RNCG>
0.4

>  <RPCG>
0.11

>  <FCSP3>
0.29

>  <SZ>
25

>  <Sm>
23.79

>  <Sv>
23.9

>  <Sse>
35.86

>  <Sp>
25.83

>  <Si>
39.97

>  <MZ>
0.69

>  <Mm>
0.66

>  <Mv>
0.66

>  <Mse>
1

>  <Mp>
0.72

>  <Mi>
1.11

>  <NsCH3>
1

>  <NdCH2>
0

>  <NssCH2>
2

>  <NtCH>
0

>  <NdsCH>
0

>  <NaaCH>
7

>  <NsssCH>
2

>  <NddC>
0

>  <NtsC>
0

>  <NdssC>
0

>  <NaasC>
5

>  <NaaaC>
0

>  <NssssC>
0

>  <NsNH3>
0

>  <NsNH2>
0

>  <NssNH2>
0

>  <NdNH>
0

>  <NssNH>
0

>  <NaaNH>
0

>  <NtN>
0

>  <NsssNH>
0

>  <NdsN>
0

>  <NaaN>
0

>  <NsssN>
1

>  <NddsN>
0

>  <NaasN>
0

>  <NssssN>
0

>  <NsOH>
0

>  <NdO>
0

>  <NssO>
1

>  <NaaO>
0

>  <NsF>
0

>  <NsSiH3>
0

>  <NssSiH2>
0

>  <NsssSiH>
0

>  <NssssSi>
0

>  <NsPH2>
0

>  <NssPH>
0

>  <NsssP>
0

>  <NdsssP>
0

>  <NsssssP>
0

>  <NsSH>
0

>  <NdS>
0

>  <NssS>
0

>  <NaaS>
0

>  <NdssS>
0

>  <NddssS>
0

>  <NsCl>
1

>  <NsBr>
0

>  <NsI>
0

>  <fragCpx>
149.03

>  <fMF>
0.5

>  <nHBAcc>
2

>  <nHBDon>
0

>  <Kier1>
13.65

>  <Kier2>
5.33

>  <Lipinski>
1

>  <GhoseFilter>
1

>  <FilterItLogS>
-4.57

>  <VMcGowan>
209.24

>  <LabuteASA>
123.48

>  <PEOE_VSA1>
9.64

>  <PEOE_VSA2>
0

>  <PEOE_VSA3>
0

>  <PEOE_VSA4>
0

>  <PEOE_VSA5>
0

>  <PEOE_VSA6>
29.8

>  <PEOE_VSA7>
36.88

>  <PEOE_VSA8>
35.51

>  <PEOE_VSA9>
0

>  <PEOE_VSA10>
11.5

>  <PEOE_VSA11>
0

>  <PEOE_VSA12>
0

>  <PEOE_VSA13>
0

>  <SMR_VSA1>
4.74

>  <SMR_VSA2>
0

>  <SMR_VSA3>
4.9

>  <SMR_VSA4>
0

>  <SMR_VSA5>
11.84

>  <SMR_VSA6>
20.14

>  <SMR_VSA7>
58.61

>  <SMR_VSA8>
0

>  <SMR_VSA9>
11.5

>  <SlogP_VSA1>
4.74

>  <SlogP_VSA2>
25.04

>  <SlogP_VSA3>
0

>  <SlogP_VSA4>
0

>  <SlogP_VSA5>
22.96

>  <SlogP_VSA6>
42.46

>  <SlogP_VSA7>
5.02

>  <SlogP_VSA8>
0

>  <SlogP_VSA9>
0

>  <SlogP_VSA10>
0

>  <SlogP_VSA11>
11.5

>  <EState_VSA1>
0

>  <EState_VSA2>
0

>  <EState_VSA3>
11.84

>  <EState_VSA4>
29.61

>  <EState_VSA5>
11.13

>  <EState_VSA6>
0

>  <EState_VSA7>
18.2

>  <EState_VSA8>
36.21

>  <EState_VSA9>
16.34

>  <EState_VSA10>
0

>  <VSA_EState1>
6.15

>  <VSA_EState2>
2.39

>  <VSA_EState3>
0.78

>  <VSA_EState4>
2.55

>  <VSA_EState5>
2.87

>  <VSA_EState6>
14.36

>  <VSA_EState7>
0

>  <VSA_EState8>
2.12

>  <VSA_EState9>
2.18

>  <apol>
43.14

>  <bpol>
20.01

>  <nRing>
4

>  <nHRing>
2

>  <naRing>
2

>  <naHRing>
0

>  <nARing 2>
2

>  <nAHRing 2>
2

>  <nFRing>
1

>  <nFHRing>
1

>  <nFaRing>
0

>  <nFaHRing>
0

>  <nFARing 2>
1

>  <nFAHRing 2>
1

>  <nRot>
0

>  <SLogP>
4.26

>  <SMR>
80.95

>  <TopoPSA(NO)>
12.47

>  <TopoPSA>
12.47

>  <JGI1>
0.17

>  <JGI2>
0.07

>  <JGI3>
0.04

>  <JGI4>
0.05

>  <JGI5>
0.02

>  <Diameter>
8

>  <Radius>
5

>  <TMWC10>
118.53

>  <TSRW10>
68.61

>  <MW>
285.09

>  <AMW>
7.92

>  <WPath>
689

>  <WPol>
37

>  <Zagreb1>
114

>  <Zagreb2>
139

>  <mZagreb2>
4.22

>  <yes>


>  <nAR-cont>
1

>  <nHA-cont>
0.999629945

>  <MWHBN>
0.118451074

>  <MWHBN-cont>
0.822623361

>  <TPSA-cont>
0.912951657

>  <pka_cont>
0.97

>  <yes.1>


>  <BBB_SCORE>
5.544468299

>  <MMFF94 Energy>
88.189

$$$$
Compound 721
Actelion Java MolfileCreator 2.0

  0  0  0  0  0  0              0 V3000
M  V30 BEGIN CTAB
M  V30 COUNTS 40 43 0 0 0
M  V30 BEGIN ATOM
M  V30 1 Cl -2.0325 -3.335 -3.8237 0
M  V30 2 C -1.2756 -2.955 -2.3243 0
M  V30 3 C -1.4062 -1.6673 -1.7931 0
M  V30 4 C -0.5463 -3.9356 -1.6536 0
M  V30 5 C -0.7988 -1.3447 -0.5724 0
M  V30 6 C 0.0676 -3.6263 -0.4422 0
M  V30 7 C -0.0488 -2.336 0.0741 0
M  V30 8 C -0.8724 0.0113 0.1075 0
M  V30 9 O 0.5398 -2.0565 1.2853 0
M  V30 10 C 0.4968 0.7597 0.0457 0
M  V30 11 C -2.0379 0.9036 -0.3717 0
M  V30 12 C 1.6693 -1.272 1.1979 0
M  V30 13 O 0.8543 1.0475 -1.3225 0
M  V30 14 C 1.711 0.0087 0.6181 0
M  V30 15 C 0.3322 2.1096 0.7903 0
M  V30 16 N -2.1106 2.1486 0.4046 0
M  V30 17 C 2.8141 -1.8496 1.7693 0
M  V30 18 C 2.9781 0.6362 0.5617 0
M  V30 19 C -0.8703 2.9193 0.303 0
M  V30 20 C -3.2586 2.9551 -0.0118 0
M  V30 21 C 4.0383 -1.1905 1.7253 0
M  V30 22 C 4.1232 0.0496 1.108 0
M  V30 23 H -1.9825 -0.9338 -2.3479 0
M  V30 24 H -0.4523 -4.9353 -2.068 0
M  V30 25 H 0.639 -4.3792 0.0924 0
M  V30 26 H -1.0981 -0.1916 1.1675 0
M  V30 27 H -2.9761 0.3476 -0.2405 0
M  V30 28 H -1.9535 1.1313 -1.4416 0
M  V30 29 H 0.0954 1.4464 -1.7724 0
M  V30 30 H 1.2164 2.7446 0.6568 0
M  V30 31 H 0.231 1.9278 1.8693 0
M  V30 32 H 2.7479 -2.8297 2.2347 0
M  V30 33 H 3.0824 1.6025 0.0705 0
M  V30 34 H -0.9447 3.819 0.9268 0
M  V30 35 H -0.7018 3.2603 -0.7264 0
M  V30 36 H -4.191 2.3951 0.1205 0
M  V30 37 H -3.3427 3.8545 0.6084 0
M  V30 38 H -3.1873 3.2643 -1.0608 0
M  V30 39 H 4.9228 -1.65 2.1571 0
M  V30 40 H 5.0778 0.5656 1.047 0
M  V30 END ATOM
M  V30 BEGIN BOND
M  V30 1 1 1 2
M  V30 2 2 2 3
M  V30 3 1 2 4
M  V30 4 1 3 5
M  V30 5 2 4 6
M  V30 6 2 5 7
M  V30 7 1 5 8
M  V30 8 1 7 9
M  V30 9 1 8 10
M  V30 10 1 8 11
M  V30 11 1 9 12
M  V30 12 1 10 13
M  V30 13 1 10 14
M  V30 14 1 10 15
M  V30 15 1 11 16
M  V30 16 1 12 17
M  V30 17 1 14 18
M  V30 18 1 15 19
M  V30 19 1 16 20
M  V30 20 2 17 21
M  V30 21 2 18 22
M  V30 22 1 6 7
M  V30 23 2 12 14
M  V30 24 1 16 19
M  V30 25 1 21 22
M  V30 26 1 3 23
M  V30 27 1 4 24
M  V30 28 1 6 25
M  V30 29 1 8 26
M  V30 30 1 11 27
M  V30 31 1 11 28
M  V30 32 1 13 29
M  V30 33 1 15 30
M  V30 34 1 15 31
M  V30 35 1 17 32
M  V30 36 1 18 33
M  V30 37 1 19 34
M  V30 38 1 19 35
M  V30 39 1 20 36
M  V30 40 1 20 37
M  V30 41 1 20 38
M  V30 42 1 21 39
M  V30 43 1 22 40
M  V30 END BOND
M  V30 END CTAB
M  END
>  <Column 1>
864

>  <level_0>
990

>  <index>
990

>  <Unnamed: 0>
990

>  <NO.>
1002

>  <Name>
b-102;asenapine;org5222

>  <IUPAC_name>


>  <SMILES>
CN1CCC2(O)c3ccccc3Oc3ccc(Cl)cc3C2C1

>  <CID>


>  <logBB>
1.03

>  <BBB+/BBB->
BBB+

>  <Inchi>
InChI=1S/C18H18ClNO2/c1-20-9-8-18(21)14-4-2-3-5-17(14)22-16-7-6-12(19)10-13(16)15(18)11-20/h2-7-10-15-21H-8-9-11H2-1H3

>  <threshold>


>  <reference>
R18|R26|R27|

>  <group>
A

>  <Class>
1

>  <ABC>
17.81

>  <ABCGG>
13.95

>  <nAcid>
0

>  <nBase>
1

>  <nAromAtom>
12

>  <nAromBond>
12

>  <nAtom>
40

>  <nHeavyAtom>
22

>  <nSpiro>
0

>  <nBridgehead>
0

>  <nHetero>
4

>  <nN>
1

>  <nO>
2

>  <nF>
0

>  <BalabanJ>
1.7

>  <BertzCT>
732.78

>  <nBonds>
43

>  <nBondsO>
25

>  <nBondsS>
31

>  <nBondsD>
0

>  <nBondsT>
0

>  <nBondsA>
12

>  <nBondsM>
12

>  <nBondsKS>
37

>  <nBondsKD>
6

>  <RNCG>
0.3

>  <RPCG>
0.14

>  <FCSP3>
0.33

>  <SZ>
27.67

>  <Sm>
26.29

>  <Sv>
26.15

>  <Sse>
40.08

>  <Sp>
28.11

>  <Si>
44.6

>  <MZ>
0.69

>  <Mm>
0.66

>  <Mv>
0.65

>  <Mse>
1

>  <Mp>
0.7

>  <Mi>
1.11

>  <NsCH3>
1

>  <NdCH2>
0

>  <NssCH2>
3

>  <NtCH>
0

>  <NdsCH>
0

>  <NaaCH>
7

>  <NsssCH>
1

>  <NddC>
0

>  <NtsC>
0

>  <NdssC>
0

>  <NaasC>
5

>  <NaaaC>
0

>  <NssssC>
1

>  <NsNH3>
0

>  <NsNH2>
0

>  <NssNH2>
0

>  <NdNH>
0

>  <NssNH>
0

>  <NaaNH>
0

>  <NtN>
0

>  <NsssNH>
0

>  <NdsN>
0

>  <NaaN>
0

>  <NsssN>
1

>  <NddsN>
0

>  <NaasN>
0

>  <NssssN>
0

>  <NsOH>
1

>  <NdO>
0

>  <NssO>
1

>  <NaaO>
0

>  <NsF>
0

>  <NsSiH3>
0

>  <NssSiH2>
0

>  <NsssSiH>
0

>  <NssssSi>
0

>  <NsPH2>
0

>  <NssPH>
0

>  <NsssP>
0

>  <NdsssP>
0

>  <NsssssP>
0

>  <NsSH>
0

>  <NdS>
0

>  <NssS>
0

>  <NaaS>
0

>  <NdssS>
0

>  <NddssS>
0

>  <NsCl>
1

>  <NsBr>
0

>  <NsI>
0

>  <fragCpx>
163.04

>  <fMF>
0.48

>  <nHBAcc>
3

>  <nHBDon>
1

>  <Kier1>
15.52

>  <Kier2>
5.82

>  <Lipinski>
1

>  <GhoseFilter>
1

>  <FilterItLogS>
-4.48

>  <VMcGowan>
229.2

>  <LabuteASA>
134.64

>  <PEOE_VSA1>
14.74

>  <PEOE_VSA2>
0

>  <PEOE_VSA3>
0

>  <PEOE_VSA4>
0

>  <PEOE_VSA5>
0

>  <PEOE_VSA6>
29.8

>  <PEOE_VSA7>
37.73

>  <PEOE_VSA8>
35.16

>  <PEOE_VSA9>
0

>  <PEOE_VSA10>
17.1

>  <PEOE_VSA11>
0

>  <PEOE_VSA12>
0

>  <PEOE_VSA13>
0

>  <SMR_VSA1>
9.84

>  <SMR_VSA2>
0

>  <SMR_VSA3>
4.9

>  <SMR_VSA4>
0

>  <SMR_VSA5>
17.94

>  <SMR_VSA6>
20.14

>  <SMR_VSA7>
58.61

>  <SMR_VSA8>
0

>  <SMR_VSA9>
11.5

>  <SlogP_VSA1>
4.74

>  <SlogP_VSA2>
30.14

>  <SlogP_VSA3>
5.6

>  <SlogP_VSA4>
0

>  <SlogP_VSA5>
23.47

>  <SlogP_VSA6>
42.46

>  <SlogP_VSA7>
5.02

>  <SlogP_VSA8>
0

>  <SlogP_VSA9>
0

>  <SlogP_VSA10>
0

>  <SlogP_VSA11>
11.5

>  <EState_VSA1>
5.6

>  <EState_VSA2>
5.92

>  <EState_VSA3>
11.44

>  <EState_VSA4>
35.72

>  <EState_VSA5>
0

>  <EState_VSA6>
0

>  <EState_VSA7>
42.46

>  <EState_VSA8>
11.95

>  <EState_VSA9>
16.34

>  <EState_VSA10>
5.11

>  <VSA_EState1>
6.11

>  <VSA_EState2>
2.25

>  <VSA_EState3>
12.2

>  <VSA_EState4>
0.94

>  <VSA_EState5>
1.47

>  <VSA_EState6>
13.45

>  <VSA_EState7>
0.68

>  <VSA_EState8>
1.64

>  <VSA_EState9>
2.08

>  <apol>
46.95

>  <bpol>
22.01

>  <nRing>
4

>  <nHRing>
2

>  <naRing>
2

>  <naHRing>
0

>  <nARing 2>
2

>  <nAHRing 2>
2

>  <nFRing>
1

>  <nFHRing>
1

>  <nFaRing>
0

>  <nFaHRing>
0

>  <nFARing 2>
1

>  <nFAHRing 2>
1

>  <nRot>
0

>  <SLogP>
3.75

>  <SMR>
86.72

>  <TopoPSA(NO)>
32.7

>  <TopoPSA>
32.7

>  <JGI1>
0.22

>  <JGI2>
0.09

>  <JGI3>
0.05

>  <JGI4>
0.05

>  <JGI5>
0.02

>  <Diameter>
8

>  <Radius>
5

>  <TMWC10>
123.91

>  <TSRW10>
65.34

>  <MW>
315.1

>  <AMW>
7.88

>  <WPath>
867

>  <WPol>
45

>  <Zagreb1>
126

>  <Zagreb2>
155

>  <mZagreb2>
4.63

>  <yes>


>  <nAR-cont>
1

>  <nHA-cont>
0.983774276

>  <MWHBN>
0.225338703

>  <MWHBN-cont>
0.991051493

>  <TPSA-cont>
0.771733695

>  <pka_cont>
0.97

>  <yes.1>


>  <BBB_SCORE>
5.498818905

>  <MMFF94 Energy>
83.487

$$$$
Compound 722
Actelion Java MolfileCreator 2.0

  0  0  0  0  0  0              0 V3000
M  V30 BEGIN CTAB
M  V30 COUNTS 45 47 0 0 0
M  V30 BEGIN ATOM
M  V30 1 Cl -5.0366 0.0797 0.878 0
M  V30 2 C -3.6843 0.9974 0.3381 0
M  V30 3 C -2.484 0.3536 0.0428 0
M  V30 4 C -3.797 2.3758 0.2005 0
M  V30 5 C -1.3655 1.0805 -0.3916 0
M  V30 6 C -2.703 3.1112 -0.2506 0
M  V30 7 N -0.1472 0.4125 -0.6404 0
M  V30 8 C -1.4908 2.4691 -0.5543 0
M  V30 9 C 0.6192 0.4359 -1.8323 0
M  V30 10 C 0.6083 0.0687 0.5892 0
M  V30 11 C -0.3288 3.2618 -1.0847 0
M  V30 12 C 0.6683 1.5256 -2.7271 0
M  V30 13 C 1.3537 -0.723 -2.175 0
M  V30 14 C 0.2213 -1.2968 1.1667 0
M  V30 15 C -0.0266 2.856 -2.5239 0
M  V30 16 C 1.4148 1.4066 -3.9235 0
M  V30 17 C 2.101 -0.8165 -3.3503 0
M  V30 18 C 1.2104 -1.718 2.2618 0
M  V30 19 C 2.128 0.2515 -4.2302 0
M  V30 20 N 0.9655 -3.0781 2.7717 0
M  V30 21 C -0.2951 -3.1759 3.5114 0
M  V30 22 C 2.0743 -3.4973 3.6342 0
M  V30 23 H -2.4234 -0.7273 0.1264 0
M  V30 24 H -4.7318 2.8798 0.429 0
M  V30 25 H -2.8031 4.1871 -0.3744 0
M  V30 26 H 0.4535 0.8426 1.3548 0
M  V30 27 H 1.6888 0.0904 0.3914 0
M  V30 28 H 0.5448 3.1376 -0.4332 0
M  V30 29 H -0.575 4.331 -1.0656 0
M  V30 30 H 1.3213 -1.5973 -1.5306 0
M  V30 31 H 0.1944 -2.0567 0.3781 0
M  V30 32 H -0.7859 -1.2363 1.5879 0
M  V30 33 H -0.9456 2.8578 -3.1249 0
M  V30 34 H 0.6231 3.6404 -2.9357 0
M  V30 35 H 1.4445 2.2355 -4.6289 0
M  V30 36 H 2.6421 -1.7303 -3.579 0
M  V30 37 H 2.2176 -1.6866 1.8261 0
M  V30 38 H 1.1949 -0.9867 3.0807 0
M  V30 39 H 2.6955 0.1878 -5.1542 0
M  V30 40 H -1.1547 -2.9991 2.8578 0
M  V30 41 H -0.3395 -2.4684 4.3472 0
M  V30 42 H -0.428 -4.1874 3.9125 0
M  V30 43 H 2.1824 -2.8495 4.5118 0
M  V30 44 H 3.0192 -3.4891 3.0796 0
M  V30 45 H 1.9266 -4.5265 3.9799 0
M  V30 END ATOM
M  V30 BEGIN BOND
M  V30 1 1 1 2
M  V30 2 2 2 3
M  V30 3 1 2 4
M  V30 4 1 3 5
M  V30 5 2 4 6
M  V30 6 1 5 7
M  V30 7 2 5 8
M  V30 8 1 7 9
M  V30 9 1 7 10
M  V30 10 1 8 11
M  V30 11 2 9 12
M  V30 12 1 9 13
M  V30 13 1 10 14
M  V30 14 1 11 15
M  V30 15 1 12 16
M  V30 16 2 13 17
M  V30 17 1 14 18
M  V30 18 2 16 19
M  V30 19 1 18 20
M  V30 20 1 20 21
M  V30 21 1 20 22
M  V30 22 1 6 8
M  V30 23 1 12 15
M  V30 24 1 17 19
M  V30 25 1 3 23
M  V30 26 1 4 24
M  V30 27 1 6 25
M  V30 28 1 10 26
M  V30 29 1 10 27
M  V30 30 1 11 28
M  V30 31 1 11 29
M  V30 32 1 13 30
M  V30 33 1 14 31
M  V30 34 1 14 32
M  V30 35 1 15 33
M  V30 36 1 15 34
M  V30 37 1 16 35
M  V30 38 1 17 36
M  V30 39 1 18 37
M  V30 40 1 18 38
M  V30 41 1 19 39
M  V30 42 1 21 40
M  V30 43 1 21 41
M  V30 44 1 21 42
M  V30 45 1 22 43
M  V30 46 1 22 44
M  V30 47 1 22 45
M  V30 END BOND
M  V30 END CTAB
M  END
>  <Column 1>
865

>  <level_0>
991

>  <index>
991

>  <Unnamed: 0>
991

>  <NO.>
1003

>  <Name>
clomipramine

>  <IUPAC_name>
3-(2-chloro-5-6-dihydrobenzo[b][1]benzazepin-11-yl)-n-n-dimethylpropan-1-amine

>  <SMILES>
CN(C)CCCN1c2ccccc2CCc2ccc(Cl)cc21

>  <CID>
2801

>  <logBB>
1.04

>  <BBB+/BBB->
BBB+

>  <Inchi>
InChI=1S/C19H23ClN2/c1-21(2)12-5-13-22-18-7-4-3-6-15(18)8-9-16-10-11-17(20)14-19(16)22/h3-4-6-7-10-11-14H-5-8-9-12-13H2-1-2H3

>  <threshold>


>  <reference>
R47|

>  <group>
A

>  <Class>
1

>  <ABC>
17.14

>  <ABCGG>
13.78

>  <nAcid>
0

>  <nBase>
1

>  <nAromAtom>
12

>  <nAromBond>
12

>  <nAtom>
45

>  <nHeavyAtom>
22

>  <nSpiro>
0

>  <nBridgehead>
0

>  <nHetero>
3

>  <nN>
2

>  <nO>
0

>  <nF>
0

>  <BalabanJ>
1.73

>  <BertzCT>
651.63

>  <nBonds>
47

>  <nBondsO>
24

>  <nBondsS>
35

>  <nBondsD>
0

>  <nBondsT>
0

>  <nBondsA>
12

>  <nBondsM>
12

>  <nBondsKS>
41

>  <nBondsKD>
6

>  <RNCG>
0.28

>  <RPCG>
0.05

>  <FCSP3>
0.37

>  <SZ>
28

>  <Sm>
26.21

>  <Sv>
27.84

>  <Sse>
44.3

>  <Sp>
30.81

>  <Si>
50.51

>  <MZ>
0.62

>  <Mm>
0.58

>  <Mv>
0.62

>  <Mse>
0.98

>  <Mp>
0.68

>  <Mi>
1.12

>  <NsCH3>
2

>  <NdCH2>
0

>  <NssCH2>
5

>  <NtCH>
0

>  <NdsCH>
0

>  <NaaCH>
7

>  <NsssCH>
0

>  <NddC>
0

>  <NtsC>
0

>  <NdssC>
0

>  <NaasC>
5

>  <NaaaC>
0

>  <NssssC>
0

>  <NsNH3>
0

>  <NsNH2>
0

>  <NssNH2>
0

>  <NdNH>
0

>  <NssNH>
0

>  <NaaNH>
0

>  <NtN>
0

>  <NsssNH>
0

>  <NdsN>
0

>  <NaaN>
0

>  <NsssN>
2

>  <NddsN>
0

>  <NaasN>
0

>  <NssssN>
0

>  <NsOH>
0

>  <NdO>
0

>  <NssO>
0

>  <NaaO>
0

>  <NsF>
0

>  <NsSiH3>
0

>  <NssSiH2>
0

>  <NsssSiH>
0

>  <NssssSi>
0

>  <NsPH2>
0

>  <NssPH>
0

>  <NsssP>
0

>  <NdsssP>
0

>  <NsssssP>
0

>  <NsSH>
0

>  <NdS>
0

>  <NssS>
0

>  <NaaS>
0

>  <NdssS>
0

>  <NddssS>
0

>  <NsCl>
1

>  <NsBr>
0

>  <NsI>
0

>  <fragCpx>
114.03

>  <fMF>
0.33

>  <nHBAcc>
2

>  <nHBDon>
0

>  <Kier1>
16.84

>  <Kier2>
7.71

>  <Lipinski>
1

>  <GhoseFilter>
1

>  <FilterItLogS>
-5.67

>  <VMcGowan>
252.39

>  <LabuteASA>
137.86

>  <PEOE_VSA1>
9.8

>  <PEOE_VSA2>
0

>  <PEOE_VSA3>
0

>  <PEOE_VSA4>
0

>  <PEOE_VSA5>
0

>  <PEOE_VSA6>
35.87

>  <PEOE_VSA7>
69.23

>  <PEOE_VSA8>
22.94

>  <PEOE_VSA9>
0

>  <PEOE_VSA10>
0

>  <PEOE_VSA11>
0

>  <PEOE_VSA12>
0

>  <PEOE_VSA13>
0

>  <SMR_VSA1>
0

>  <SMR_VSA2>
0

>  <SMR_VSA3>
4.9

>  <SMR_VSA4>
0

>  <SMR_VSA5>
19.26

>  <SMR_VSA6>
32.08

>  <SMR_VSA7>
58.61

>  <SMR_VSA8>
0

>  <SMR_VSA9>
0

>  <SlogP_VSA1>
4.9

>  <SlogP_VSA2>
32.08

>  <SlogP_VSA3>
12.84

>  <SlogP_VSA4>
0

>  <SlogP_VSA5>
17.55

>  <SlogP_VSA6>
42.46

>  <SlogP_VSA7>
5.02

>  <SlogP_VSA8>
0

>  <SlogP_VSA9>
0

>  <SlogP_VSA10>
11.37

>  <SlogP_VSA11>
0

>  <EState_VSA1>
0

>  <EState_VSA2>
0

>  <EState_VSA3>
0

>  <EState_VSA4>
37.37

>  <EState_VSA5>
22.5

>  <EState_VSA6>
0

>  <EState_VSA7>
6.07

>  <EState_VSA8>
60.29

>  <EState_VSA9>
11.6

>  <EState_VSA10>
0

>  <VSA_EState1>
0

>  <VSA_EState2>
4.69

>  <VSA_EState3>
0.82

>  <VSA_EState4>
5.43

>  <VSA_EState5>
0

>  <VSA_EState6>
15.07

>  <VSA_EState7>
3.3

>  <VSA_EState8>
2.11

>  <VSA_EState9>
4.25

>  <apol>
51.45

>  <bpol>
27

>  <nRing>
3

>  <nHRing>
1

>  <naRing>
2

>  <naHRing>
0

>  <nARing 2>
1

>  <nAHRing 2>
1

>  <nFRing>
1

>  <nFHRing>
1

>  <nFaRing>
0

>  <nFaHRing>
0

>  <nFARing 2>
1

>  <nFAHRing 2>
1

>  <nRot>
4

>  <SLogP>
4.53

>  <SMR>
95.48

>  <TopoPSA(NO)>
6.48

>  <TopoPSA>
6.48

>  <JGI1>
0.17

>  <JGI2>
0.07

>  <JGI3>
0.04

>  <JGI4>
0.04

>  <JGI5>
0.02

>  <Diameter>
9

>  <Radius>
5

>  <TMWC10>
120.17

>  <TSRW10>
64.12

>  <MW>
314.15

>  <AMW>
6.98

>  <WPath>
995

>  <WPol>
37

>  <Zagreb1>
114

>  <Zagreb2>
133

>  <mZagreb2>
4.86

>  <yes>


>  <nAR-cont>
0.816016

>  <nHA-cont>
0.983774276

>  <MWHBN>
0.112839581

>  <MWHBN-cont>
0.796929992

>  <TPSA-cont>
0.954765576

>  <pka_cont>
0.97

>  <yes.1>


>  <BBB_SCORE>
5.389716417

>  <MMFF94 Energy>
61.324

$$$$
Compound 723
Actelion Java MolfileCreator 2.0

  0  0  0  0  0  0              0 V3000
M  V30 BEGIN CTAB
M  V30 COUNTS 41 43 0 0 0
M  V30 BEGIN ATOM
M  V30 1 N 2.5381 3.094 -1.6651 0
M  V30 2 C 1.928 1.7627 -1.5838 0
M  V30 3 C 3.9774 2.9967 -1.8642 0
M  V30 4 C 0.4121 1.8758 -1.3641 0
M  V30 5 C -0.2424 0.5163 -1.3844 0
M  V30 6 C -0.8492 -0.1411 -0.3696 0
M  V30 7 C -1.3175 -1.53 -0.6285 0
M  V30 8 C -0.8942 0.454 0.9816 0
M  V30 9 C -0.9452 -2.6234 0.1825 0
M  V30 10 C -2.2 -1.7471 -1.7071 0
M  V30 11 C -0.0929 -0.0974 1.9942 0
M  V30 12 C -1.7395 1.533 1.2699 0
M  V30 13 C -1.4602 -3.9005 -0.131 0
M  V30 14 C -0.0623 -2.5526 1.4183 0
M  V30 15 C -2.6898 -3.0189 -2.0016 0
M  V30 16 C -0.1277 0.4595 3.2798 0
M  V30 17 C 0.771 -1.2953 1.6892 0
M  V30 18 C -1.7681 2.0794 2.553 0
M  V30 19 C -2.3163 -4.0981 -1.2137 0
M  V30 20 C -0.96 1.5455 3.555 0
M  V30 21 H 2.1238 3.6115 -2.4395 0
M  V30 22 H 2.1267 1.2066 -2.5086 0
M  V30 23 H 2.3704 1.2002 -0.7521 0
M  V30 24 H 4.2196 2.4812 -2.7991 0
M  V30 25 H 4.458 2.4737 -1.0312 0
M  V30 26 H 4.4072 4.0019 -1.913 0
M  V30 27 H 0.2237 2.4176 -0.4325 0
M  V30 28 H -0.0375 2.4746 -2.1663 0
M  V30 29 H -0.1667 0.0218 -2.3531 0
M  V30 30 H -2.5243 -0.911 -2.3236 0
M  V30 31 H -2.3748 1.952 0.4939 0
M  V30 32 H -1.1952 -4.758 0.4853 0
M  V30 33 H 0.6473 -3.3891 1.3585 0
M  V30 34 H -0.7053 -2.7436 2.2886 0
M  V30 35 H -3.3678 -3.1607 -2.8384 0
M  V30 36 H 0.4874 0.048 4.076 0
M  V30 37 H 1.4298 -1.4936 2.5443 0
M  V30 38 H 1.4384 -1.0734 0.8472 0
M  V30 39 H -2.4204 2.9208 2.77 0
M  V30 40 H -2.6983 -5.0917 -1.4312 0
M  V30 41 H -0.9823 1.9721 4.5544 0
M  V30 END ATOM
M  V30 BEGIN BOND
M  V30 1 1 1 2
M  V30 2 1 1 3
M  V30 3 1 2 4
M  V30 4 1 4 5
M  V30 5 2 5 6
M  V30 6 1 6 7
M  V30 7 1 6 8
M  V30 8 2 7 9
M  V30 9 1 7 10
M  V30 10 2 8 11
M  V30 11 1 8 12
M  V30 12 1 9 13
M  V30 13 1 9 14
M  V30 14 2 10 15
M  V30 15 1 11 16
M  V30 16 1 11 17
M  V30 17 2 12 18
M  V30 18 2 13 19
M  V30 19 2 16 20
M  V30 20 1 14 17
M  V30 21 1 15 19
M  V30 22 1 18 20
M  V30 23 1 1 21
M  V30 24 1 2 22
M  V30 25 1 2 23
M  V30 26 1 3 24
M  V30 27 1 3 25
M  V30 28 1 3 26
M  V30 29 1 4 27
M  V30 30 1 4 28
M  V30 31 1 5 29
M  V30 32 1 10 30
M  V30 33 1 12 31
M  V30 34 1 13 32
M  V30 35 1 14 33
M  V30 36 1 14 34
M  V30 37 1 15 35
M  V30 38 1 16 36
M  V30 39 1 17 37
M  V30 40 1 17 38
M  V30 41 1 18 39
M  V30 42 1 19 40
M  V30 43 1 20 41
M  V30 END BOND
M  V30 END CTAB
M  END
>  <Column 1>
866

>  <level_0>
992

>  <index>
992

>  <Unnamed: 0>
992

>  <NO.>
1004

>  <Name>
nortriptyline

>  <IUPAC_name>
n-methyl-3-(2-tricyclo[9.4.0.03-8]pentadeca-1(15)-3-5-7-11-13-hexaenylidene)propan-1-amine

>  <SMILES>
CNCCC=C1c2ccccc2CCc2ccccc21

>  <CID>
4543

>  <logBB>
1.04

>  <BBB+/BBB->
BBB+

>  <Inchi>
InChI=1S/C19H21N/c1-20-14-6-11-19-17-9-4-2-7-15(17)12-13-16-8-3-5-10-18(16)19/h2-5-7-11-20H-6-12-14H2-1H3

>  <threshold>


>  <reference>
R18|R26|R27|

>  <group>
A

>  <Class>
1

>  <ABC>
15.39

>  <ABCGG>
12.44

>  <nAcid>
0

>  <nBase>
1

>  <nAromAtom>
12

>  <nAromBond>
12

>  <nAtom>
41

>  <nHeavyAtom>
20

>  <nSpiro>
0

>  <nBridgehead>
0

>  <nHetero>
1

>  <nN>
1

>  <nO>
0

>  <nF>
0

>  <BalabanJ>
1.73

>  <BertzCT>
575.67

>  <nBonds>
43

>  <nBondsO>
22

>  <nBondsS>
30

>  <nBondsD>
1

>  <nBondsT>
0

>  <nBondsA>
12

>  <nBondsM>
13

>  <nBondsKS>
36

>  <nBondsKD>
7

>  <RNCG>
0.3

>  <RPCG>
0.11

>  <FCSP3>
0.26

>  <SZ>
23.67

>  <Sm>
21.93

>  <Sv>
25.45

>  <Sse>
39.99

>  <Sp>
28.04

>  <Si>
45.65

>  <MZ>
0.58

>  <Mm>
0.53

>  <Mv>
0.62

>  <Mse>
0.98

>  <Mp>
0.68

>  <Mi>
1.11

>  <NsCH3>
1

>  <NdCH2>
0

>  <NssCH2>
4

>  <NtCH>
0

>  <NdsCH>
1

>  <NaaCH>
8

>  <NsssCH>
0

>  <NddC>
0

>  <NtsC>
0

>  <NdssC>
1

>  <NaasC>
4

>  <NaaaC>
0

>  <NssssC>
0

>  <NsNH3>
0

>  <NsNH2>
0

>  <NssNH2>
0

>  <NdNH>
0

>  <NssNH>
1

>  <NaaNH>
0

>  <NtN>
0

>  <NsssNH>
0

>  <NdsN>
0

>  <NaaN>
0

>  <NsssN>
0

>  <NddsN>
0

>  <NaasN>
0

>  <NssssN>
0

>  <NsOH>
0

>  <NdO>
0

>  <NssO>
0

>  <NaaO>
0

>  <NsF>
0

>  <NsSiH3>
0

>  <NssSiH2>
0

>  <NsssSiH>
0

>  <NssssSi>
0

>  <NsPH2>
0

>  <NssPH>
0

>  <NsssP>
0

>  <NdsssP>
0

>  <NsssssP>
0

>  <NsSH>
0

>  <NdS>
0

>  <NssS>
0

>  <NaaS>
0

>  <NdssS>
0

>  <NddssS>
0

>  <NsCl>
0

>  <NsBr>
0

>  <NsI>
0

>  <fragCpx>
104.01

>  <fMF>
0.37

>  <nHBAcc>
1

>  <nHBDon>
1

>  <Kier1>
14.92

>  <Kier2>
7.32

>  <Lipinski>
1

>  <GhoseFilter>
1

>  <FilterItLogS>
-5.81

>  <VMcGowan>
225.87

>  <LabuteASA>
120.9

>  <PEOE_VSA1>
5.32

>  <PEOE_VSA2>
0

>  <PEOE_VSA3>
0

>  <PEOE_VSA4>
0

>  <PEOE_VSA5>
0

>  <PEOE_VSA6>
54.61

>  <PEOE_VSA7>
60.68

>  <PEOE_VSA8>
0

>  <PEOE_VSA9>
0

>  <PEOE_VSA10>
0

>  <PEOE_VSA11>
0

>  <PEOE_VSA12>
0

>  <PEOE_VSA13>
0

>  <SMR_VSA1>
0

>  <SMR_VSA2>
0

>  <SMR_VSA3>
5.32

>  <SMR_VSA4>
0

>  <SMR_VSA5>
19.26

>  <SMR_VSA6>
13.59

>  <SMR_VSA7>
76.86

>  <SMR_VSA8>
0

>  <SMR_VSA9>
0

>  <SlogP_VSA1>
5.32

>  <SlogP_VSA2>
13.59

>  <SlogP_VSA3>
12.84

>  <SlogP_VSA4>
0

>  <SlogP_VSA5>
28.67

>  <SlogP_VSA6>
54.61

>  <SlogP_VSA7>
0

>  <SlogP_VSA8>
5.57

>  <SlogP_VSA9>
0

>  <SlogP_VSA10>
0

>  <SlogP_VSA11>
0

>  <EState_VSA1>
0

>  <EState_VSA2>
0

>  <EState_VSA3>
0

>  <EState_VSA4>
25.81

>  <EState_VSA5>
27.83

>  <EState_VSA6>
0

>  <EState_VSA7>
7.05

>  <EState_VSA8>
59.92

>  <EState_VSA9>
0

>  <EState_VSA10>
0

>  <VSA_EState1>
0

>  <VSA_EState2>
0

>  <VSA_EState3>
3.23

>  <VSA_EState4>
7.17

>  <VSA_EState5>
0

>  <VSA_EState6>
17.68

>  <VSA_EState7>
5.72

>  <VSA_EState8>
1.02

>  <VSA_EState9>
2.01

>  <apol>
46.83

>  <bpol>
21.64

>  <nRing>
3

>  <nHRing>
0

>  <naRing>
2

>  <naHRing>
0

>  <nARing 2>
1

>  <nAHRing 2>
0

>  <nFRing>
1

>  <nFHRing>
0

>  <nFaRing>
0

>  <nFaHRing>
0

>  <nFARing 2>
1

>  <nFAHRing 2>
0

>  <nRot>
3

>  <SLogP>
3.83

>  <SMR>
85.91

>  <TopoPSA(NO)>
12.03

>  <TopoPSA>
12.03

>  <JGI1>
0.09

>  <JGI2>
0.07

>  <JGI3>
0.04

>  <JGI4>
0.03

>  <JGI5>
0.02

>  <Diameter>
9

>  <Radius>
5

>  <TMWC10>
115.19

>  <TSRW10>
61.56

>  <MW>
263.17

>  <AMW>
6.42

>  <WPath>
759

>  <WPol>
34

>  <Zagreb1>
102

>  <Zagreb2>
120

>  <mZagreb2>
4.61

>  <yes>


>  <nAR-cont>
0.816016

>  <nHA-cont>
0.999629945

>  <MWHBN>
0.123285445

>  <MWHBN-cont>
0.843219865

>  <TPSA-cont>
0.91602313

>  <pka_cont>
0.97

>  <yes.1>


>  <BBB_SCORE>
5.397522001

>  <MMFF94 Energy>
73.806

$$$$
Compound 724
Actelion Java MolfileCreator 2.0

  0  0  0  0  0  0              0 V3000
M  V30 BEGIN CTAB
M  V30 COUNTS 34 36 0 0 0
M  V30 BEGIN ATOM
M  V30 1 Cl 4.0647 0.2485 -1.9064 0
M  V30 2 C 3.254 0.3191 -0.3903 0
M  V30 3 C 1.8694 0.1415 -0.338 0
M  V30 4 C 3.981 0.5555 0.7704 0
M  V30 5 C 1.1754 0.2062 0.889 0
M  V30 6 C 3.3203 0.5975 1.9961 0
M  V30 7 C 1.9355 0.3986 2.0566 0
M  V30 8 C -0.3388 -0.0071 0.9787 0 CFG=2
M  V30 9 O 1.2899 0.4469 3.263 0
M  V30 10 F -0.9205 0.7056 1.995 0
M  V30 11 C -0.6402 -1.5429 1.1519 0
M  V30 12 C -1.1024 0.2791 -0.3062 0
M  V30 13 C 1.755 -0.553 4.1703 0
M  V30 14 O -0.2731 -2.2949 2.0439 0
M  V30 15 N -1.428 -1.9454 0.072 0
M  V30 16 C -1.7052 -0.8862 -0.7735 0
M  V30 17 C -1.2752 1.4797 -0.9763 0
M  V30 18 C -2.471 -0.9162 -1.9201 0
M  V30 19 C -2.0461 1.4768 -2.1432 0
M  V30 20 C -2.652 0.289 -2.6213 0
M  V30 21 C -3.4632 0.3105 -3.8955 0
M  V30 22 F -4.4511 -0.6269 -3.9123 0
M  V30 23 F -4.0784 1.5042 -4.119 0
M  V30 24 F -2.6985 0.0688 -4.9948 0
M  V30 25 H 1.3407 -0.0498 -1.2691 0
M  V30 26 H 5.0562 0.7063 0.7298 0
M  V30 27 H 3.8881 0.7962 2.9009 0
M  V30 28 H 1.9275 -1.5137 3.6722 0
M  V30 29 H 0.9818 -0.6998 4.9303 0
M  V30 30 H 2.6652 -0.2159 4.6759 0
M  V30 31 H -1.7588 -2.8936 -0.0312 0
M  V30 32 H -0.8273 2.3981 -0.6061 0
M  V30 33 H -2.9277 -1.8386 -2.2674 0
M  V30 34 H -2.186 2.4122 -2.6863 0
M  V30 END ATOM
M  V30 BEGIN BOND
M  V30 1 1 1 2
M  V30 2 2 2 3
M  V30 3 1 2 4
M  V30 4 1 3 5
M  V30 5 2 4 6
M  V30 6 2 5 7
M  V30 7 1 5 8
M  V30 8 1 7 9
M  V30 9 1 8 10
M  V30 10 1 8 11
M  V30 11 1 8 12
M  V30 12 1 9 13
M  V30 13 2 11 14
M  V30 14 1 11 15
M  V30 15 2 12 16
M  V30 16 1 12 17
M  V30 17 1 16 18
M  V30 18 2 17 19
M  V30 19 2 18 20
M  V30 20 1 20 21
M  V30 21 1 21 22
M  V30 22 1 21 23
M  V30 23 1 21 24
M  V30 24 1 6 7
M  V30 25 1 15 16
M  V30 26 1 19 20
M  V30 27 1 3 25
M  V30 28 1 4 26
M  V30 29 1 6 27
M  V30 30 1 13 28
M  V30 31 1 13 29
M  V30 32 1 13 30
M  V30 33 1 15 31
M  V30 34 1 17 32
M  V30 35 1 18 33
M  V30 36 1 19 34
M  V30 END BOND
M  V30 BEGIN COLLECTION
M  V30 MDLV30/STEABS ATOMS=(1 8)
M  V30 END COLLECTION
M  V30 END CTAB
M  END
>  <Column 1>
867

>  <level_0>
993

>  <index>
993

>  <Unnamed: 0>
993

>  <NO.>
1005

>  <Name>
bms-204352

>  <IUPAC_name>
(3s)-3-(5-chloro-2-methoxyphenyl)-3-fluoro-6-(trifluoromethyl)-1h-indol-2-one

>  <SMILES>
COc1ccc(Cl)cc1[C@]1(F)C(=O)Nc2cc(C(F)(F)F)ccc21

>  <CID>
214350

>  <logBB>
1.04

>  <BBB+/BBB->
BBB+

>  <Inchi>
InChI=1S/C16H10ClF4NO2/c1-24-13-5-3-9(17)7-11(13)15(18)10-4-2-8(16(19-20)21)6-12(10)22-14(15)23/h2-7H-1H3-(H-22-23)/t15-/m0/s1

>  <threshold>


>  <reference>
R18|R26|R27|

>  <group>
A

>  <Class>
1

>  <ABC>
18.91

>  <ABCGG>
16.14

>  <nAcid>
0

>  <nBase>
0

>  <nAromAtom>
12

>  <nAromBond>
12

>  <nAtom>
34

>  <nHeavyAtom>
24

>  <nSpiro>
0

>  <nBridgehead>
0

>  <nHetero>
8

>  <nN>
1

>  <nO>
2

>  <nF>
4

>  <BalabanJ>
1.83

>  <BertzCT>
837.31

>  <nBonds>
36

>  <nBondsO>
26

>  <nBondsS>
23

>  <nBondsD>
1

>  <nBondsT>
0

>  <nBondsA>
12

>  <nBondsM>
13

>  <nBondsKS>
29

>  <nBondsKD>
7

>  <RNCG>
0.24

>  <RPCG>
0.2

>  <FCSP3>
0.19

>  <SZ>
30.33

>  <Sm>
29.95

>  <Sv>
24.57

>  <Sse>
36.36

>  <Sp>
24.25

>  <Si>
39.13

>  <MZ>
0.89

>  <Mm>
0.88

>  <Mv>
0.72

>  <Mse>
1.07

>  <Mp>
0.71

>  <Mi>
1.15

>  <NsCH3>
1

>  <NdCH2>
0

>  <NssCH2>
0

>  <NtCH>
0

>  <NdsCH>
0

>  <NaaCH>
6

>  <NsssCH>
0

>  <NddC>
0

>  <NtsC>
0

>  <NdssC>
1

>  <NaasC>
6

>  <NaaaC>
0

>  <NssssC>
2

>  <NsNH3>
0

>  <NsNH2>
0

>  <NssNH2>
0

>  <NdNH>
0

>  <NssNH>
1

>  <NaaNH>
0

>  <NtN>
0

>  <NsssNH>
0

>  <NdsN>
0

>  <NaaN>
0

>  <NsssN>
0

>  <NddsN>
0

>  <NaasN>
0

>  <NssssN>
0

>  <NsOH>
0

>  <NdO>
1

>  <NssO>
1

>  <NaaO>
0

>  <NsF>
4

>  <NsSiH3>
0

>  <NssSiH2>
0

>  <NsssSiH>
0

>  <NssssSi>
0

>  <NsPH2>
0

>  <NssPH>
0

>  <NsssP>
0

>  <NdsssP>
0

>  <NsssssP>
0

>  <NsSH>
0

>  <NdS>
0

>  <NssS>
0

>  <NaaS>
0

>  <NdssS>
0

>  <NddssS>
0

>  <NsCl>
1

>  <NsBr>
0

>  <NsI>
0

>  <fragCpx>
124.08

>  <fMF>
0.44

>  <nHBAcc>
2

>  <nHBDon>
1

>  <Kier1>
18.78

>  <Kier2>
6.62

>  <Lipinski>
1

>  <GhoseFilter>
1

>  <FilterItLogS>
-6.35

>  <VMcGowan>
214.62

>  <LabuteASA>
138.73

>  <PEOE_VSA1>
10.05

>  <PEOE_VSA2>
4.79

>  <PEOE_VSA3>
4.39

>  <PEOE_VSA4>
13.17

>  <PEOE_VSA5>
0

>  <PEOE_VSA6>
17.67

>  <PEOE_VSA7>
30.33

>  <PEOE_VSA8>
21.84

>  <PEOE_VSA9>
12.67

>  <PEOE_VSA10>
5.75

>  <PEOE_VSA11>
0

>  <PEOE_VSA12>
5.67

>  <PEOE_VSA13>
5.91

>  <SMR_VSA1>
27.09

>  <SMR_VSA2>
0

>  <SMR_VSA3>
0

>  <SMR_VSA4>
0

>  <SMR_VSA5>
11.85

>  <SMR_VSA6>
12.43

>  <SMR_VSA7>
58.11

>  <SMR_VSA8>
0

>  <SMR_VSA9>
5.75

>  <SlogP_VSA1>
10.05

>  <SlogP_VSA2>
13.02

>  <SlogP_VSA3>
16.64

>  <SlogP_VSA4>
0

>  <SlogP_VSA5>
16.69

>  <SlogP_VSA6>
36.4

>  <SlogP_VSA7>
5.02

>  <SlogP_VSA8>
0

>  <SlogP_VSA9>
0

>  <SlogP_VSA10>
23.25

>  <SlogP_VSA11>
5.75

>  <EState_VSA1>
23.32

>  <EState_VSA2>
27.59

>  <EState_VSA3>
6.07

>  <EState_VSA4>
12.13

>  <EState_VSA5>
25.31

>  <EState_VSA6>
0

>  <EState_VSA7>
0

>  <EState_VSA8>
5.32

>  <EState_VSA9>
16.34

>  <EState_VSA10>
17.97

>  <VSA_EState1>
59.11

>  <VSA_EState2>
12.23

>  <VSA_EState3>
2.32

>  <VSA_EState4>
-4.31

>  <VSA_EState5>
-1.04

>  <VSA_EState6>
6.42

>  <VSA_EState7>
-4.6

>  <VSA_EState8>
0

>  <VSA_EState9>
1.29

>  <apol>
40.5

>  <bpol>
18.17

>  <nRing>
3

>  <nHRing>
1

>  <naRing>
2

>  <naHRing>
0

>  <nARing 2>
1

>  <nAHRing 2>
1

>  <nFRing>
1

>  <nFHRing>
1

>  <nFaRing>
0

>  <nFaHRing>
0

>  <nFARing 2>
1

>  <nFAHRing 2>
1

>  <nRot>
2

>  <SLogP>
4.53

>  <SMR>
79.97

>  <TopoPSA(NO)>
38.33

>  <TopoPSA>
38.33

>  <JGI1>
0.31

>  <JGI2>
0.11

>  <JGI3>
0.07

>  <JGI4>
0.05

>  <JGI5>
0.03

>  <Diameter>
10

>  <Radius>
5

>  <TMWC10>
127.55

>  <TSRW10>
74.04

>  <MW>
359.03

>  <AMW>
10.56

>  <WPath>
1220

>  <WPol>
45

>  <Zagreb1>
134

>  <Zagreb2>
164

>  <mZagreb2>
5.06

>  <yes>


>  <nAR-cont>
0.816016

>  <nHA-cont>
0.94700071

>  <MWHBN>
0.158327329

>  <MWHBN-cont>
0.952289795

>  <TPSA-cont>
0.732432798

>  <pka_cont>
0.97

>  <yes.1>


>  <BBB_SCORE>
5.141316999

>  <MMFF94 Energy>
110.98

$$$$
Compound 725
Actelion Java MolfileCreator 2.0

  0  0  0  0  0  0              0 V3000
M  V30 BEGIN CTAB
M  V30 COUNTS 40 42 0 0 0
M  V30 BEGIN ATOM
M  V30 1 Cl -4.2351 -3.4196 -0.9761 0
M  V30 2 C -3.1549 -2.2375 -1.6071 0
M  V30 3 C -1.8631 -2.1318 -1.0873 0
M  V30 4 C -3.5728 -1.4009 -2.6312 0
M  V30 5 C -0.9514 -1.1715 -1.5702 0
M  V30 6 C -2.6809 -0.4659 -3.1497 0
M  V30 7 N 0.3544 -1.0617 -1.0207 0
M  V30 8 C -1.3746 -0.3567 -2.6399 0
M  V30 9 C 1.4573 -0.4587 -1.6843 0
M  V30 10 C 0.439 -1.0978 0.4612 0
M  V30 11 S -0.3276 0.865 -3.4017 0
M  V30 12 C 1.2768 0.4257 -2.7656 0
M  V30 13 C 2.7833 -0.7522 -1.3055 0
M  V30 14 C 0.1101 0.2746 1.0683 0
M  V30 15 C 2.3842 1.0286 -3.388 0
M  V30 16 C 3.8811 -0.157 -1.9348 0
M  V30 17 C 0.1229 0.2031 2.6004 0
M  V30 18 C 3.6811 0.7421 -2.9717 0
M  V30 19 N -0.0298 1.517 3.2473 0
M  V30 20 C 0.1978 1.3967 4.6901 0
M  V30 21 C -1.3481 2.1071 3.0045 0
M  V30 22 H -1.5652 -2.8394 -0.3201 0
M  V30 23 H -4.5767 -1.4776 -3.0389 0
M  V30 24 H -3.0077 0.1771 -3.9646 0
M  V30 25 H 1.4272 -1.4195 0.8049 0
M  V30 26 H -0.2341 -1.8474 0.8891 0
M  V30 27 H 2.9921 -1.4819 -0.5292 0
M  V30 28 H -0.8729 0.6013 0.7116 0
M  V30 29 H 0.8402 1.0183 0.7262 0
M  V30 30 H 2.2389 1.7246 -4.2115 0
M  V30 31 H 4.8898 -0.4063 -1.616 0
M  V30 32 H -0.654 -0.4911 2.9464 0
M  V30 33 H 1.0881 -0.2238 2.9027 0
M  V30 34 H 4.5289 1.2098 -3.4646 0
M  V30 35 H 1.2039 1.0126 4.8915 0
M  V30 36 H -0.5291 0.7305 5.1687 0
M  V30 37 H 0.138 2.3783 5.1736 0
M  V30 38 H -2.1613 1.4508 3.3346 0
M  V30 39 H -1.492 2.3361 1.9443 0
M  V30 40 H -1.4448 3.063 3.5324 0
M  V30 END ATOM
M  V30 BEGIN BOND
M  V30 1 1 1 2
M  V30 2 2 2 3
M  V30 3 1 2 4
M  V30 4 1 3 5
M  V30 5 2 4 6
M  V30 6 1 5 7
M  V30 7 2 5 8
M  V30 8 1 7 9
M  V30 9 1 7 10
M  V30 10 1 8 11
M  V30 11 2 9 12
M  V30 12 1 9 13
M  V30 13 1 10 14
M  V30 14 1 12 15
M  V30 15 2 13 16
M  V30 16 1 14 17
M  V30 17 2 15 18
M  V30 18 1 17 19
M  V30 19 1 19 20
M  V30 20 1 19 21
M  V30 21 1 6 8
M  V30 22 1 11 12
M  V30 23 1 16 18
M  V30 24 1 3 22
M  V30 25 1 4 23
M  V30 26 1 6 24
M  V30 27 1 10 25
M  V30 28 1 10 26
M  V30 29 1 13 27
M  V30 30 1 14 28
M  V30 31 1 14 29
M  V30 32 1 15 30
M  V30 33 1 16 31
M  V30 34 1 17 32
M  V30 35 1 17 33
M  V30 36 1 18 34
M  V30 37 1 20 35
M  V30 38 1 20 36
M  V30 39 1 20 37
M  V30 40 1 21 38
M  V30 41 1 21 39
M  V30 42 1 21 40
M  V30 END BOND
M  V30 END CTAB
M  END
>  <Column 1>
869

>  <level_0>
996

>  <index>
996

>  <Unnamed: 0>
996

>  <NO.>
1008

>  <Name>
50-53-3

>  <IUPAC_name>
3-(2-chlorophenothiazin-10-yl)propyl-dimethylazanium

>  <SMILES>
CN(C)CCCN1c2ccccc2Sc2ccc(Cl)cc21

>  <CID>
2726

>  <logBB>
1.06

>  <BBB+/BBB->
BBB+

>  <Inchi>
InChI=1S/C17H19ClN2S/c1-19(2)10-5-11-20-14-6-3-4-7-16(14)21-17-9-8-13(18)12-15(17)20/h3-4-6-9-12H-5-10-11H2-1-2H3

>  <threshold>


>  <reference>
R4|R40|R50|R8|R21|R27|R2|R2|R27|R3|R3|R11|R12|R17|R25|R31|R35|R36|R38|R41|R43|R44|R46|R47|R48|R49|R49|R3|R18|R26|R27|R42|

>  <group>
A

>  <Class>
1

>  <ABC>
16.43

>  <ABCGG>
12.98

>  <nAcid>
0

>  <nBase>
1

>  <nAromAtom>
12

>  <nAromBond>
12

>  <nAtom>
40

>  <nHeavyAtom>
21

>  <nSpiro>
0

>  <nBridgehead>
0

>  <nHetero>
4

>  <nN>
2

>  <nO>
0

>  <nF>
0

>  <BalabanJ>
1.69

>  <BertzCT>
642.44

>  <nBonds>
42

>  <nBondsO>
23

>  <nBondsS>
30

>  <nBondsD>
0

>  <nBondsT>
0

>  <nBondsA>
12

>  <nBondsM>
12

>  <nBondsKS>
36

>  <nBondsKD>
6

>  <RNCG>
0.29

>  <RPCG>
0.06

>  <FCSP3>
0.29

>  <SZ>
28

>  <Sm>
26.55

>  <Sv>
25.94

>  <Sse>
39.6

>  <Sp>
28.95

>  <Si>
44.6

>  <MZ>
0.7

>  <Mm>
0.66

>  <Mv>
0.65

>  <Mse>
0.99

>  <Mp>
0.72

>  <Mi>
1.11

>  <NsCH3>
2

>  <NdCH2>
0

>  <NssCH2>
3

>  <NtCH>
0

>  <NdsCH>
0

>  <NaaCH>
7

>  <NsssCH>
0

>  <NddC>
0

>  <NtsC>
0

>  <NdssC>
0

>  <NaasC>
5

>  <NaaaC>
0

>  <NssssC>
0

>  <NsNH3>
0

>  <NsNH2>
0

>  <NssNH2>
0

>  <NdNH>
0

>  <NssNH>
0

>  <NaaNH>
0

>  <NtN>
0

>  <NsssNH>
0

>  <NdsN>
0

>  <NaaN>
0

>  <NsssN>
2

>  <NddsN>
0

>  <NaasN>
0

>  <NssssN>
0

>  <NsOH>
0

>  <NdO>
0

>  <NssO>
0

>  <NaaO>
0

>  <NsF>
0

>  <NsSiH3>
0

>  <NssSiH2>
0

>  <NsssSiH>
0

>  <NssssSi>
0

>  <NsPH2>
0

>  <NssPH>
0

>  <NsssP>
0

>  <NdsssP>
0

>  <NsssssP>
0

>  <NsSH>
0

>  <NdS>
0

>  <NssS>
1

>  <NaaS>
0

>  <NdssS>
0

>  <NddssS>
0

>  <NsCl>
1

>  <NsBr>
0

>  <NsI>
0

>  <fragCpx>
109.04

>  <fMF>
0.35

>  <nHBAcc>
3

>  <nHBDon>
0

>  <Kier1>
15.88

>  <Kier2>
7.05

>  <Lipinski>
1

>  <GhoseFilter>
1

>  <FilterItLogS>
-5.22

>  <VMcGowan>
240.56

>  <LabuteASA>
135.25

>  <PEOE_VSA1>
9.8

>  <PEOE_VSA2>
0

>  <PEOE_VSA3>
0

>  <PEOE_VSA4>
0

>  <PEOE_VSA5>
0

>  <PEOE_VSA6>
35.5

>  <PEOE_VSA7>
57.39

>  <PEOE_VSA8>
21.36

>  <PEOE_VSA9>
11.37

>  <PEOE_VSA10>
0

>  <PEOE_VSA11>
0

>  <PEOE_VSA12>
0

>  <PEOE_VSA13>
0

>  <SMR_VSA1>
0

>  <SMR_VSA2>
0

>  <SMR_VSA3>
4.9

>  <SMR_VSA4>
0

>  <SMR_VSA5>
16.21

>  <SMR_VSA6>
32.08

>  <SMR_VSA7>
47.49

>  <SMR_VSA8>
0

>  <SMR_VSA9>
0

>  <SlogP_VSA1>
4.9

>  <SlogP_VSA2>
32.08

>  <SlogP_VSA3>
0

>  <SlogP_VSA4>
0

>  <SlogP_VSA5>
6.42

>  <SlogP_VSA6>
52.26

>  <SlogP_VSA7>
5.02

>  <SlogP_VSA8>
0

>  <SlogP_VSA9>
0

>  <SlogP_VSA10>
11.37

>  <SlogP_VSA11>
0

>  <EState_VSA1>
0

>  <EState_VSA2>
0

>  <EState_VSA3>
0

>  <EState_VSA4>
24.53

>  <EState_VSA5>
21.17

>  <EState_VSA6>
0

>  <EState_VSA7>
17.83

>  <EState_VSA8>
60.29

>  <EState_VSA9>
11.6

>  <EState_VSA10>
0

>  <VSA_EState1>
0

>  <VSA_EState2>
7.22

>  <VSA_EState3>
0.8

>  <VSA_EState4>
2.51

>  <VSA_EState5>
0

>  <VSA_EState6>
14.77

>  <VSA_EState7>
1.12

>  <VSA_EState8>
2.09

>  <VSA_EState9>
4.23

>  <apol>
48.34

>  <bpol>
25.45

>  <nRing>
3

>  <nHRing>
1

>  <naRing>
2

>  <naHRing>
0

>  <nARing 2>
1

>  <nAHRing 2>
1

>  <nFRing>
1

>  <nFHRing>
1

>  <nFaRing>
0

>  <nFaHRing>
0

>  <nFARing 2>
1

>  <nFAHRing 2>
1

>  <nRot>
4

>  <SLogP>
4.89

>  <SMR>
92.19

>  <TopoPSA(NO)>
6.48

>  <TopoPSA>
31.78

>  <JGI1>
0.17

>  <JGI2>
0.07

>  <JGI3>
0.04

>  <JGI4>
0.05

>  <JGI5>
0.02

>  <Diameter>
9

>  <Radius>
5

>  <TMWC10>
118.14

>  <TSRW10>
55.05

>  <MW>
318.1

>  <AMW>
7.95

>  <WPath>
896

>  <WPol>
33

>  <Zagreb1>
110

>  <Zagreb2>
129

>  <mZagreb2>
4.61

>  <yes>


>  <nAR-cont>
0.816016

>  <nHA-cont>
0.994529749

>  <MWHBN>
0.168205201

>  <MWHBN-cont>
0.971079384

>  <TPSA-cont>
0.778155866

>  <pka_cont>
0.97

>  <yes.1>


>  <BBB_SCORE>
5.308476557

>  <MMFF94 Energy>
67.887

$$$$
Compound 726
Actelion Java MolfileCreator 2.0

  0  0  0  0  0  0              0 V3000
M  V30 BEGIN CTAB
M  V30 COUNTS 42 44 0 0 0
M  V30 BEGIN ATOM
M  V30 1 N 1.7448 0.3963 -3.0947 0
M  V30 2 C 1.4299 1.2238 -1.9099 0
M  V30 3 C 1.181 -0.9507 -2.9872 0
M  V30 4 C 3.1997 0.3016 -3.2528 0
M  V30 5 C -0.0478 1.6463 -1.7777 0
M  V30 6 C -0.9487 0.6486 -1.0944 0
M  V30 7 C -1.016 0.3416 0.2206 0
M  V30 8 C -1.9029 -0.7824 0.6069 0
M  V30 9 C -0.1371 0.9835 1.2241 0
M  V30 10 C -1.3713 -1.9395 1.2092 0
M  V30 11 C -3.2887 -0.6816 0.3929 0
M  V30 12 C 0.7954 0.2202 1.9531 0
M  V30 13 C -0.2698 2.3563 1.4919 0
M  V30 14 C 0.0708 -2.1486 1.4401 0
M  V30 15 C -2.2439 -2.9862 1.5508 0
M  V30 16 C -4.1411 -1.7254 0.7509 0
M  V30 17 C 0.9971 -1.2268 1.7537 0
M  V30 18 C 1.6195 0.8685 2.8883 0
M  V30 19 C 0.5461 2.9813 2.4342 0
M  V30 20 C -3.6184 -2.8785 1.3271 0
M  V30 21 C 1.4958 2.2387 3.1273 0
M  V30 22 H 1.9954 2.161 -2.0042 0
M  V30 23 H 1.7892 0.7425 -0.9922 0
M  V30 24 H 0.0905 -0.9281 -3.0539 0
M  V30 25 H 1.4716 -1.4514 -2.0567 0
M  V30 26 H 1.5115 -1.5748 -3.8258 0
M  V30 27 H 3.6794 -0.1755 -2.3904 0
M  V30 28 H 3.6396 1.2961 -3.3873 0
M  V30 29 H 3.4535 -0.2723 -4.1511 0
M  V30 30 H -0.0954 2.6025 -1.2447 0
M  V30 31 H -0.4587 1.8667 -2.7717 0
M  V30 32 H -1.5845 0.0993 -1.7886 0
M  V30 33 H -3.7086 0.218 -0.051 0
M  V30 34 H -1.019 2.9445 0.967 0
M  V30 35 H 0.3987 -3.1832 1.3579 0
M  V30 36 H -1.8589 -3.8963 2.0057 0
M  V30 37 H -5.2107 -1.6363 0.5808 0
M  V30 38 H 2.0182 -1.5705 1.9075 0
M  V30 39 H 2.3587 0.3048 3.4532 0
M  V30 40 H 0.4361 4.0449 2.6284 0
M  V30 41 H -4.2791 -3.6952 1.6061 0
M  V30 42 H 2.1344 2.7214 3.8625 0
M  V30 END ATOM
M  V30 BEGIN BOND
M  V30 1 1 1 2
M  V30 2 1 1 3
M  V30 3 1 1 4
M  V30 4 1 2 5
M  V30 5 1 5 6
M  V30 6 2 6 7
M  V30 7 1 7 8
M  V30 8 1 7 9
M  V30 9 2 8 10
M  V30 10 1 8 11
M  V30 11 2 9 12
M  V30 12 1 9 13
M  V30 13 1 10 14
M  V30 14 1 10 15
M  V30 15 2 11 16
M  V30 16 1 12 17
M  V30 17 1 12 18
M  V30 18 2 13 19
M  V30 19 2 15 20
M  V30 20 2 18 21
M  V30 21 2 14 17
M  V30 22 1 16 20
M  V30 23 1 19 21
M  V30 24 1 2 22
M  V30 25 1 2 23
M  V30 26 1 3 24
M  V30 27 1 3 25
M  V30 28 1 3 26
M  V30 29 1 4 27
M  V30 30 1 4 28
M  V30 31 1 4 29
M  V30 32 1 5 30
M  V30 33 1 5 31
M  V30 34 1 6 32
M  V30 35 1 11 33
M  V30 36 1 13 34
M  V30 37 1 14 35
M  V30 38 1 15 36
M  V30 39 1 16 37
M  V30 40 1 17 38
M  V30 41 1 18 39
M  V30 42 1 19 40
M  V30 43 1 20 41
M  V30 44 1 21 42
M  V30 END BOND
M  V30 END CTAB
M  END
>  <Column 1>
870

>  <level_0>
997

>  <index>
997

>  <Unnamed: 0>
997

>  <NO.>
1009

>  <Name>
cyclobenzaprine

>  <IUPAC_name>
n-n-dimethyl-3-(2-tricyclo[9.4.0.03-8]pentadeca-1(15)-3-5-7-9-11-13-heptaenylidene)propan-1-amine

>  <SMILES>
CN(C)CCC=C1c2ccccc2C=Cc2ccccc21

>  <CID>
2895

>  <logBB>
1.06

>  <BBB+/BBB->
BBB+

>  <Inchi>
InChI=1S/C20H21N/c1-21(2)15-7-12-20-18-10-5-3-8-16(18)13-14-17-9-4-6-11-19(17)20/h3-6-8-14H-7-15H2-1-2H3

>  <threshold>


>  <reference>
R18|R26|R27|

>  <group>
A

>  <Class>
1

>  <ABC>
16.32

>  <ABCGG>
13.12

>  <nAcid>
0

>  <nBase>
1

>  <nAromAtom>
12

>  <nAromBond>
12

>  <nAtom>
42

>  <nHeavyAtom>
21

>  <nSpiro>
0

>  <nBridgehead>
0

>  <nHetero>
1

>  <nN>
1

>  <nO>
0

>  <nF>
0

>  <BalabanJ>
1.7

>  <BertzCT>
640.99

>  <nBonds>
44

>  <nBondsO>
23

>  <nBondsS>
30

>  <nBondsD>
2

>  <nBondsT>
0

>  <nBondsA>
12

>  <nBondsM>
14

>  <nBondsKS>
36

>  <nBondsKD>
8

>  <RNCG>
0.29

>  <RPCG>
0.06

>  <FCSP3>
0.2

>  <SZ>
24.67

>  <Sm>
22.93

>  <Sv>
26.45

>  <Sse>
40.99

>  <Sp>
29.04

>  <Si>
46.65

>  <MZ>
0.59

>  <Mm>
0.55

>  <Mv>
0.63

>  <Mse>
0.98

>  <Mp>
0.69

>  <Mi>
1.11

>  <NsCH3>
2

>  <NdCH2>
0

>  <NssCH2>
2

>  <NtCH>
0

>  <NdsCH>
3

>  <NaaCH>
8

>  <NsssCH>
0

>  <NddC>
0

>  <NtsC>
0

>  <NdssC>
1

>  <NaasC>
4

>  <NaaaC>
0

>  <NssssC>
0

>  <NsNH3>
0

>  <NsNH2>
0

>  <NssNH2>
0

>  <NdNH>
0

>  <NssNH>
0

>  <NaaNH>
0

>  <NtN>
0

>  <NsssNH>
0

>  <NdsN>
0

>  <NaaN>
0

>  <NsssN>
1

>  <NddsN>
0

>  <NaasN>
0

>  <NssssN>
0

>  <NsOH>
0

>  <NdO>
0

>  <NssO>
0

>  <NaaO>
0

>  <NsF>
0

>  <NsSiH3>
0

>  <NssSiH2>
0

>  <NsssSiH>
0

>  <NssssSi>
0

>  <NsPH2>
0

>  <NssPH>
0

>  <NsssP>
0

>  <NdsssP>
0

>  <NsssssP>
0

>  <NsSH>
0

>  <NdS>
0

>  <NssS>
0

>  <NaaS>
0

>  <NdssS>
0

>  <NddssS>
0

>  <NsCl>
0

>  <NsBr>
0

>  <NsI>
0

>  <fragCpx>
109.01

>  <fMF>
0.36

>  <nHBAcc>
1

>  <nHBDon>
0

>  <Kier1>
15.88

>  <Kier2>
7.51

>  <Lipinski>
1

>  <GhoseFilter>
1

>  <FilterItLogS>
-5.01

>  <VMcGowan>
235.66

>  <LabuteASA>
126.78

>  <PEOE_VSA1>
4.9

>  <PEOE_VSA2>
0

>  <PEOE_VSA3>
0

>  <PEOE_VSA4>
0

>  <PEOE_VSA5>
0

>  <PEOE_VSA6>
66.76

>  <PEOE_VSA7>
48.34

>  <PEOE_VSA8>
6.54

>  <PEOE_VSA9>
0

>  <PEOE_VSA10>
0

>  <PEOE_VSA11>
0

>  <PEOE_VSA12>
0

>  <PEOE_VSA13>
0

>  <SMR_VSA1>
0

>  <SMR_VSA2>
0

>  <SMR_VSA3>
4.9

>  <SMR_VSA4>
0

>  <SMR_VSA5>
6.42

>  <SMR_VSA6>
20.64

>  <SMR_VSA7>
76.86

>  <SMR_VSA8>
0

>  <SMR_VSA9>
0

>  <SlogP_VSA1>
0

>  <SlogP_VSA2>
25.54

>  <SlogP_VSA3>
0

>  <SlogP_VSA4>
0

>  <SlogP_VSA5>
28.67

>  <SlogP_VSA6>
54.61

>  <SlogP_VSA7>
0

>  <SlogP_VSA8>
17.73

>  <SlogP_VSA9>
0

>  <SlogP_VSA10>
0

>  <SlogP_VSA11>
0

>  <EState_VSA1>
0

>  <EState_VSA2>
0

>  <EState_VSA3>
0

>  <EState_VSA4>
12.97

>  <EState_VSA5>
27.83

>  <EState_VSA6>
0

>  <EState_VSA7>
0

>  <EState_VSA8>
85.75

>  <EState_VSA9>
0

>  <EState_VSA10>
0

>  <VSA_EState1>
0

>  <VSA_EState2>
2.23

>  <VSA_EState3>
0

>  <VSA_EState4>
6.61

>  <VSA_EState5>
0

>  <VSA_EState6>
17.3

>  <VSA_EState7>
7.89

>  <VSA_EState8>
1.07

>  <VSA_EState9>
4.24

>  <apol>
48.5

>  <bpol>
22.78

>  <nRing>
3

>  <nHRing>
0

>  <naRing>
2

>  <naHRing>
0

>  <nARing 2>
1

>  <nAHRing 2>
0

>  <nFRing>
1

>  <nFHRing>
0

>  <nFaRing>
0

>  <nFaHRing>
0

>  <nFARing 2>
1

>  <nFAHRing 2>
0

>  <nRot>
3

>  <SLogP>
4.55

>  <SMR>
92.06

>  <TopoPSA(NO)>
3.24

>  <TopoPSA>
3.24

>  <JGI1>
0.13

>  <JGI2>
0.07

>  <JGI3>
0.04

>  <JGI4>
0.03

>  <JGI5>
0.01

>  <Diameter>
9

>  <Radius>
5

>  <TMWC10>
117.56

>  <TSRW10>
62.81

>  <MW>
275.17

>  <AMW>
6.55

>  <WPath>
882

>  <WPol>
35

>  <Zagreb1>
108

>  <Zagreb2>
126

>  <mZagreb2>
4.69

>  <yes>


>  <nAR-cont>
0.816016

>  <nHA-cont>
0.994529749

>  <MWHBN>
0.060283639

>  <MWHBN-cont>
0.456022013

>  <TPSA-cont>
0.977382788

>  <pka_cont>
0.97

>  <yes.1>


>  <BBB_SCORE>
4.934344345

>  <MMFF94 Energy>
92.404

$$$$
Compound 727
Actelion Java MolfileCreator 2.0

  0  0  0  0  0  0              0 V3000
M  V30 BEGIN CTAB
M  V30 COUNTS 39 42 0 0 0
M  V30 BEGIN ATOM
M  V30 1 Cl 0.4872 -2.1127 -5.288 0
M  V30 2 C 0.6975 -0.9596 -4.028 0
M  V30 3 C 0.3232 -1.2843 -2.7217 0
M  V30 4 C 1.2421 0.2848 -4.3156 0
M  V30 5 C 0.4918 -0.3705 -1.6579 0
M  V30 6 C 1.3873 1.2164 -3.2911 0
M  V30 7 C 0.9896 0.9034 -1.9829 0
M  V30 8 C 0.101 -0.8274 -0.2479 0
M  V30 9 O 1.1405 1.9282 -1.0754 0
M  V30 10 C 0.1983 0.2181 0.8978 0
M  V30 11 C 0.934 -2.0654 0.1606 0
M  V30 12 C -0.0316 2.2968 -0.4555 0
M  V30 13 C -0.5659 1.4839 0.553 0
M  V30 14 C -0.2101 -0.4259 2.2427 0
M  V30 15 C 0.5184 -2.6148 1.5246 0
M  V30 16 C -0.6282 3.5023 -0.8228 0
M  V30 17 C -1.7573 1.8938 1.1645 0
M  V30 18 N 0.6302 -1.5894 2.5638 0
M  V30 19 C -1.8079 3.8981 -0.2 0
M  V30 20 C -2.3733 3.0926 0.7878 0
M  V30 21 C 0.2727 -2.139 3.8715 0
M  V30 22 H -0.1053 -2.2662 -2.5327 0
M  V30 23 H 1.5417 0.5401 -5.3277 0
M  V30 24 H 1.7939 2.2007 -3.5099 0
M  V30 25 H -0.9547 -1.1319 -0.3196 0
M  V30 26 H 1.2531 0.5125 1.018 0
M  V30 27 H 2.001 -1.8037 0.1778 0
M  V30 28 H 0.8291 -2.8745 -0.5709 0
M  V30 29 H -0.1013 0.3239 3.0373 0
M  V30 30 H -1.2667 -0.7251 2.2196 0
M  V30 31 H 1.1753 -3.4594 1.7658 0
M  V30 32 H -0.5056 -3.0068 1.4663 0
M  V30 33 H -0.1792 4.1216 -1.5929 0
M  V30 34 H -2.23 1.3021 1.9429 0
M  V30 35 H -2.2869 4.8316 -0.4829 0
M  V30 36 H -3.2964 3.4014 1.2729 0
M  V30 37 H 0.9304 -2.9763 4.1297 0
M  V30 38 H -0.7643 -2.4922 3.9031 0
M  V30 39 H 0.4041 -1.3845 4.655 0
M  V30 END ATOM
M  V30 BEGIN BOND
M  V30 1 1 1 2
M  V30 2 2 2 3
M  V30 3 1 2 4
M  V30 4 1 3 5
M  V30 5 2 4 6
M  V30 6 2 5 7
M  V30 7 1 5 8
M  V30 8 1 7 9
M  V30 9 1 8 10
M  V30 10 1 8 11
M  V30 11 1 9 12
M  V30 12 1 10 13
M  V30 13 1 10 14
M  V30 14 1 11 15
M  V30 15 1 12 16
M  V30 16 1 13 17
M  V30 17 1 14 18
M  V30 18 2 16 19
M  V30 19 2 17 20
M  V30 20 1 18 21
M  V30 21 1 6 7
M  V30 22 2 12 13
M  V30 23 1 15 18
M  V30 24 1 19 20
M  V30 25 1 3 22
M  V30 26 1 4 23
M  V30 27 1 6 24
M  V30 28 1 8 25
M  V30 29 1 10 26
M  V30 30 1 11 27
M  V30 31 1 11 28
M  V30 32 1 14 29
M  V30 33 1 14 30
M  V30 34 1 15 31
M  V30 35 1 15 32
M  V30 36 1 16 33
M  V30 37 1 17 34
M  V30 38 1 19 35
M  V30 39 1 20 36
M  V30 40 1 21 37
M  V30 41 1 21 38
M  V30 42 1 21 39
M  V30 END BOND
M  V30 END CTAB
M  END
>  <Column 1>
871

>  <level_0>
998

>  <index>
998

>  <Unnamed: 0>
998

>  <NO.>
1010

>  <Name>
7-k06

>  <IUPAC_name>


>  <SMILES>
CN1CCC2c3cc(Cl)ccc3Oc3ccccc3C2C1

>  <CID>


>  <logBB>
1.06

>  <BBB+/BBB->
BBB+

>  <Inchi>
InChI=1S/C18H18ClNO/c1-20-9-8-13-15-10-12(19)6-7-18(15)21-17-5-3-2-4-14(17)16(13)11-20/h2-7-10-13-16H-8-9-11H2-1H3

>  <threshold>


>  <reference>
R43|

>  <group>
A

>  <Class>
1

>  <ABC>
16.99

>  <ABCGG>
13.05

>  <nAcid>
0

>  <nBase>
1

>  <nAromAtom>
12

>  <nAromBond>
12

>  <nAtom>
39

>  <nHeavyAtom>
21

>  <nSpiro>
0

>  <nBridgehead>
0

>  <nHetero>
3

>  <nN>
1

>  <nO>
1

>  <nF>
0

>  <BalabanJ>
1.64

>  <BertzCT>
684.67

>  <nBonds>
42

>  <nBondsO>
24

>  <nBondsS>
30

>  <nBondsD>
0

>  <nBondsT>
0

>  <nBondsA>
12

>  <nBondsM>
12

>  <nBondsKS>
36

>  <nBondsKD>
6

>  <RNCG>
0.39

>  <RPCG>
0.11

>  <FCSP3>
0.33

>  <SZ>
26.33

>  <Sm>
24.96

>  <Sv>
25.44

>  <Sse>
38.75

>  <Sp>
27.63

>  <Si>
43.39

>  <MZ>
0.68

>  <Mm>
0.64

>  <Mv>
0.65

>  <Mse>
0.99

>  <Mp>
0.71

>  <Mi>
1.11

>  <NsCH3>
1

>  <NdCH2>
0

>  <NssCH2>
3

>  <NtCH>
0

>  <NdsCH>
0

>  <NaaCH>
7

>  <NsssCH>
2

>  <NddC>
0

>  <NtsC>
0

>  <NdssC>
0

>  <NaasC>
5

>  <NaaaC>
0

>  <NssssC>
0

>  <NsNH3>
0

>  <NsNH2>
0

>  <NssNH2>
0

>  <NdNH>
0

>  <NssNH>
0

>  <NaaNH>
0

>  <NtN>
0

>  <NsssNH>
0

>  <NdsN>
0

>  <NaaN>
0

>  <NsssN>
1

>  <NddsN>
0

>  <NaasN>
0

>  <NssssN>
0

>  <NsOH>
0

>  <NdO>
0

>  <NssO>
1

>  <NaaO>
0

>  <NsF>
0

>  <NsSiH3>
0

>  <NssSiH2>
0

>  <NsssSiH>
0

>  <NssssSi>
0

>  <NsPH2>
0

>  <NssPH>
0

>  <NsssP>
0

>  <NdsssP>
0

>  <NsssssP>
0

>  <NsSH>
0

>  <NdS>
0

>  <NssS>
0

>  <NaaS>
0

>  <NdssS>
0

>  <NddssS>
0

>  <NsCl>
1

>  <NsBr>
0

>  <NsI>
0

>  <fragCpx>
156.03

>  <fMF>
0.49

>  <nHBAcc>
2

>  <nHBDon>
0

>  <Kier1>
14.58

>  <Kier2>
5.89

>  <Lipinski>
1

>  <GhoseFilter>
1

>  <FilterItLogS>
-4.84

>  <VMcGowan>
223.33

>  <LabuteASA>
129.84

>  <PEOE_VSA1>
9.64

>  <PEOE_VSA2>
0

>  <PEOE_VSA3>
0

>  <PEOE_VSA4>
0

>  <PEOE_VSA5>
0

>  <PEOE_VSA6>
29.8

>  <PEOE_VSA7>
55.76

>  <PEOE_VSA8>
23.05

>  <PEOE_VSA9>
0

>  <PEOE_VSA10>
11.5

>  <PEOE_VSA11>
0

>  <PEOE_VSA12>
0

>  <PEOE_VSA13>
0

>  <SMR_VSA1>
4.74

>  <SMR_VSA2>
0

>  <SMR_VSA3>
4.9

>  <SMR_VSA4>
0

>  <SMR_VSA5>
18.26

>  <SMR_VSA6>
20.14

>  <SMR_VSA7>
58.61

>  <SMR_VSA8>
0

>  <SMR_VSA9>
11.5

>  <SlogP_VSA1>
4.74

>  <SlogP_VSA2>
25.04

>  <SlogP_VSA3>
0

>  <SlogP_VSA4>
0

>  <SlogP_VSA5>
29.38

>  <SlogP_VSA6>
42.46

>  <SlogP_VSA7>
5.02

>  <SlogP_VSA8>
0

>  <SlogP_VSA9>
0

>  <SlogP_VSA10>
0

>  <SlogP_VSA11>
11.5

>  <EState_VSA1>
0

>  <EState_VSA2>
0

>  <EState_VSA3>
11.84

>  <EState_VSA4>
36.03

>  <EState_VSA5>
11.13

>  <EState_VSA6>
0

>  <EState_VSA7>
18.2

>  <EState_VSA8>
36.21

>  <EState_VSA9>
16.34

>  <EState_VSA10>
0

>  <VSA_EState1>
6.21

>  <VSA_EState2>
2.41

>  <VSA_EState3>
0.79

>  <VSA_EState4>
2.58

>  <VSA_EState5>
2.91

>  <VSA_EState6>
14.45

>  <VSA_EState7>
1.15

>  <VSA_EState8>
2.19

>  <VSA_EState9>
2.2

>  <apol>
46.14

>  <bpol>
22.01

>  <nRing>
4

>  <nHRing>
2

>  <naRing>
2

>  <naHRing>
0

>  <nARing 2>
2

>  <nAHRing 2>
2

>  <nFRing>
1

>  <nFHRing>
1

>  <nFaRing>
0

>  <nFaHRing>
0

>  <nFARing 2>
1

>  <nFAHRing 2>
1

>  <nRot>
0

>  <SLogP>
4.65

>  <SMR>
85.56

>  <TopoPSA(NO)>
12.47

>  <TopoPSA>
12.47

>  <JGI1>
0.17

>  <JGI2>
0.07

>  <JGI3>
0.04

>  <JGI4>
0.05

>  <JGI5>
0.02

>  <Diameter>
8

>  <Radius>
5

>  <TMWC10>
120.59

>  <TSRW10>
63.69

>  <MW>
299.11

>  <AMW>
7.67

>  <WPath>
790

>  <WPol>
40

>  <Zagreb1>
118

>  <Zagreb2>
143

>  <mZagreb2>
4.47

>  <yes>


>  <nAR-cont>
1

>  <nHA-cont>
0.994529749

>  <MWHBN>
0.115641716

>  <MWHBN-cont>
0.810002225

>  <TPSA-cont>
0.912951657

>  <pka_cont>
0.97

>  <yes.1>


>  <BBB_SCORE>
5.5204364

>  <MMFF94 Energy>
73.635

$$$$
Compound 728
Actelion Java MolfileCreator 2.0

  0  0  0  0  0  0              0 V3000
M  V30 BEGIN CTAB
M  V30 COUNTS 24 24 0 0 0
M  V30 BEGIN ATOM
M  V30 1 C 0.3881 0.7763 -0.3104 0
M  V30 2 C 0.3524 -0.7672 -0.4329 0
M  V30 3 C 0.0195 1.2181 1.1165 0
M  V30 4 C 1.7514 1.3638 -0.6862 0
M  V30 5 C -1.0071 -1.319 0.03 0
M  V30 6 C 0.6359 -1.2496 -1.8583 0
M  V30 7 C -1.3258 0.6544 1.5611 0
M  V30 8 C -1.3593 -0.8633 1.4421 0
M  V30 9 H -0.3573 1.1993 -0.998 0
M  V30 10 H 1.1282 -1.1881 0.2213 0
M  V30 11 H -0.0171 2.313 1.1707 0
M  V30 12 H 0.7975 0.8922 1.8189 0
M  V30 13 H 1.9788 1.2007 -1.7438 0
M  V30 14 H 1.7676 2.4461 -0.5176 0
M  V30 15 H 2.5539 0.9171 -0.0898 0
M  V30 16 H -0.9943 -2.4152 0.0019 0
M  V30 17 H -1.7951 -0.9936 -0.6614 0
M  V30 18 H -0.0559 -0.7958 -2.5758 0
M  V30 19 H 0.5294 -2.3376 -1.9283 0
M  V30 20 H 1.6571 -1.0069 -2.1663 0
M  V30 21 H -2.1252 1.0887 0.9482 0
M  V30 22 H -1.5237 0.9475 2.5984 0
M  V30 23 H -0.6522 -1.3033 2.1559 0
M  V30 24 H -2.3556 -1.2323 1.7108 0
M  V30 END ATOM
M  V30 BEGIN BOND
M  V30 1 1 1 2
M  V30 2 1 1 3
M  V30 3 1 1 4
M  V30 4 1 2 5
M  V30 5 1 2 6
M  V30 6 1 3 7
M  V30 7 1 5 8
M  V30 8 1 7 8
M  V30 9 1 1 9
M  V30 10 1 2 10
M  V30 11 1 3 11
M  V30 12 1 3 12
M  V30 13 1 4 13
M  V30 14 1 4 14
M  V30 15 1 4 15
M  V30 16 1 5 16
M  V30 17 1 5 17
M  V30 18 1 6 18
M  V30 19 1 6 19
M  V30 20 1 6 20
M  V30 21 1 7 21
M  V30 22 1 7 22
M  V30 23 1 8 23
M  V30 24 1 8 24
M  V30 END BOND
M  V30 END CTAB
M  END
>  <Column 1>
872

>  <level_0>
999

>  <index>
999

>  <Unnamed: 0>
999

>  <NO.>
1011

>  <Name>
1-2-dimethylcyclohexane

>  <IUPAC_name>
1-2-dimethylcyclohexane

>  <SMILES>
CC1CCCCC1C

>  <CID>
11416

>  <logBB>
1.07

>  <BBB+/BBB->
BBB+

>  <Inchi>
InChI=1S/C8H16/c1-7-5-3-4-6-8(7)2/h7-8H-3-6H2-1-2H3

>  <threshold>


>  <reference>
R3|R21|R25|R27|R38|R41|R46|R47|R2|R2|R8|R27|R40|

>  <group>
A

>  <Class>
1

>  <ABC>
5.84

>  <ABCGG>
5.61

>  <nAcid>
0

>  <nBase>
0

>  <nAromAtom>
0

>  <nAromBond>
0

>  <nAtom>
24

>  <nHeavyAtom>
8

>  <nSpiro>
0

>  <nBridgehead>
0

>  <nHetero>
0

>  <nN>
0

>  <nO>
0

>  <nF>
0

>  <BalabanJ>
2.28

>  <BertzCT>
56.44

>  <nBonds>
24

>  <nBondsO>
8

>  <nBondsS>
24

>  <nBondsD>
0

>  <nBondsT>
0

>  <nBondsA>
0

>  <nBondsM>
0

>  <nBondsKS>
24

>  <nBondsKD>
0

>  <RNCG>
0.15

>  <RPCG>
0.07

>  <FCSP3>
1

>  <SZ>
10.67

>  <Sm>
9.34

>  <Sv>
12.33

>  <Sse>
23.1

>  <Sp>
14.39

>  <Si>
27.32

>  <MZ>
0.44

>  <Mm>
0.39

>  <Mv>
0.51

>  <Mse>
0.96

>  <Mp>
0.6

>  <Mi>
1.14

>  <NsCH3>
2

>  <NdCH2>
0

>  <NssCH2>
4

>  <NtCH>
0

>  <NdsCH>
0

>  <NaaCH>
0

>  <NsssCH>
2

>  <NddC>
0

>  <NtsC>
0

>  <NdssC>
0

>  <NaasC>
0

>  <NaaaC>
0

>  <NssssC>
0

>  <NsNH3>
0

>  <NsNH2>
0

>  <NssNH2>
0

>  <NdNH>
0

>  <NssNH>
0

>  <NaaNH>
0

>  <NtN>
0

>  <NsssNH>
0

>  <NdsN>
0

>  <NaaN>
0

>  <NsssN>
0

>  <NddsN>
0

>  <NaasN>
0

>  <NssssN>
0

>  <NsOH>
0

>  <NdO>
0

>  <NssO>
0

>  <NaaO>
0

>  <NsF>
0

>  <NsSiH3>
0

>  <NssSiH2>
0

>  <NsssSiH>
0

>  <NssssSi>
0

>  <NsPH2>
0

>  <NssPH>
0

>  <NsssP>
0

>  <NdsssP>
0

>  <NsssssP>
0

>  <NsSH>
0

>  <NdS>
0

>  <NssS>
0

>  <NaaS>
0

>  <NdssS>
0

>  <NddssS>
0

>  <NsCl>
0

>  <NsBr>
0

>  <NsI>
0

>  <fragCpx>
8

>  <fMF>
0.25

>  <nHBAcc>
0

>  <nHBDon>
0

>  <Kier1>
6.13

>  <Kier2>
2.52

>  <Lipinski>
1

>  <GhoseFilter>
0

>  <FilterItLogS>
-1.8

>  <VMcGowan>
112.72

>  <LabuteASA>
52.29

>  <PEOE_VSA1>
0

>  <PEOE_VSA2>
0

>  <PEOE_VSA3>
0

>  <PEOE_VSA4>
0

>  <PEOE_VSA5>
0

>  <PEOE_VSA6>
39.53

>  <PEOE_VSA7>
11.84

>  <PEOE_VSA8>
0

>  <PEOE_VSA9>
0

>  <PEOE_VSA10>
0

>  <PEOE_VSA11>
0

>  <PEOE_VSA12>
0

>  <PEOE_VSA13>
0

>  <SMR_VSA1>
0

>  <SMR_VSA2>
0

>  <SMR_VSA3>
0

>  <SMR_VSA4>
11.84

>  <SMR_VSA5>
39.53

>  <SMR_VSA6>
0

>  <SMR_VSA7>
0

>  <SMR_VSA8>
0

>  <SMR_VSA9>
0

>  <SlogP_VSA1>
0

>  <SlogP_VSA2>
0

>  <SlogP_VSA3>
0

>  <SlogP_VSA4>
11.84

>  <SlogP_VSA5>
39.53

>  <SlogP_VSA6>
0

>  <SlogP_VSA7>
0

>  <SlogP_VSA8>
0

>  <SlogP_VSA9>
0

>  <SlogP_VSA10>
0

>  <SlogP_VSA11>
0

>  <EState_VSA1>
0

>  <EState_VSA2>
0

>  <EState_VSA3>
0

>  <EState_VSA4>
11.84

>  <EState_VSA5>
25.68

>  <EState_VSA6>
0

>  <EState_VSA7>
0

>  <EState_VSA8>
13.85

>  <EState_VSA9>
0

>  <EState_VSA10>
0

>  <VSA_EState1>
0

>  <VSA_EState2>
0

>  <VSA_EState3>
0

>  <VSA_EState4>
0

>  <VSA_EState5>
2.01

>  <VSA_EState6>
0

>  <VSA_EState7>
5.9

>  <VSA_EState8>
4.76

>  <VSA_EState9>
0

>  <apol>
24.03

>  <bpol>
16.05

>  <nRing>
1

>  <nHRing>
0

>  <naRing>
0

>  <naHRing>
0

>  <nARing 2>
1

>  <nAHRing 2>
0

>  <nFRing>
0

>  <nFHRing>
0

>  <nFaRing>
0

>  <nFaHRing>
0

>  <nFARing 2>
0

>  <nFAHRing 2>
0

>  <nRot>
0

>  <SLogP>
2.83

>  <SMR>
36.8

>  <TopoPSA(NO)>
0

>  <TopoPSA>
0

>  <JGI1>
0.19

>  <JGI2>
0.11

>  <JGI3>
0.05

>  <JGI4>
0.11

>  <JGI5>
0

>  <Diameter>
4

>  <Radius>
3

>  <TMWC10>
76.5

>  <TSRW10>
35.91

>  <MW>
112.13

>  <AMW>
4.67

>  <WPath>
60

>  <WPol>
8

>  <Zagreb1>
36

>  <Zagreb2>
39

>  <mZagreb2>
1.86

>  <yes>


>  <nAR-cont>
0.816016

>  <nHA-cont>
0.464727961

>  <MWHBN>
0

>  <MWHBN-cont>
0

>  <TPSA-cont>
0

>  <pka_cont>
0.97

>  <yes.1>


>  <BBB_SCORE>
1.765743961

>  <MMFF94 Energy>
6.2046

$$$$
Compound 729
Actelion Java MolfileCreator 2.0

  0  0  0  0  0  0              0 V3000
M  V30 BEGIN CTAB
M  V30 COUNTS 55 57 0 0 0
M  V30 BEGIN ATOM
M  V30 1 Cl -4.5078 3.8629 -1.2059 0
M  V30 2 C -4.8143 4.3968 0.4248 0
M  V30 3 C -5.7031 5.4599 0.6604 0
M  V30 4 C -4.1978 3.7237 1.5097 0
M  V30 5 Cl -6.4891 6.3222 -0.619 0
M  V30 6 C -5.9897 5.8627 1.9666 0
M  V30 7 N -3.2928 2.6801 1.3125 0
M  V30 8 C -4.5126 4.1527 2.8118 0
M  V30 9 C -5.3968 5.2087 3.0412 0
M  V30 10 C -1.929 3.0623 0.9099 0
M  V30 11 C -3.3614 1.4815 2.1576 0
M  V30 12 C -1.1866 1.855 0.2889 0
M  V30 13 C -2.5967 0.3145 1.4919 0
M  V30 14 N -1.1889 0.6543 1.1627 0
M  V30 15 C -0.5357 -0.4979 0.5175 0
M  V30 16 C 0.9829 -0.3115 0.3762 0
M  V30 17 C 1.7177 -1.5964 -0.0605 0
M  V30 18 C 1.2878 -2.0696 -1.4583 0
M  V30 19 C 3.2375 -1.3617 -0.0177 0
M  V30 20 C 2.0787 -3.2941 -1.9154 0
M  V30 21 C 4.0214 -2.5897 -0.473 0
M  V30 22 C 3.5886 -3.0481 -1.8689 0
M  V30 23 N 4.3094 -4.2512 -2.2576 0
M  V30 24 C 5.55 -4.1992 -2.8526 0
M  V30 25 O 6.1329 -3.159 -3.1363 0
M  V30 26 C 6.126 -5.5552 -3.1567 0
M  V30 27 H -6.6765 6.6852 2.1518 0
M  V30 28 H -4.0476 3.6752 3.6711 0
M  V30 29 H -5.6158 5.5219 4.0592 0
M  V30 30 H -1.9349 3.8792 0.1793 0
M  V30 31 H -1.3785 3.4193 1.7902 0
M  V30 32 H -2.9257 1.6856 3.1436 0
M  V30 33 H -4.4046 1.1755 2.3027 0
M  V30 34 H -0.1579 2.1751 0.0927 0
M  V30 35 H -1.6486 1.6164 -0.6784 0
M  V30 36 H -3.1331 0.0116 0.5823 0
M  V30 37 H -2.615 -0.537 2.1828 0
M  V30 38 H -0.9914 -0.6964 -0.4598 0
M  V30 39 H -0.7018 -1.3886 1.1371 0
M  V30 40 H 1.39 0.0133 1.343 0
M  V30 41 H 1.2014 0.4853 -0.3444 0
M  V30 42 H 1.479 -2.3907 0.6599 0
M  V30 43 H 1.4251 -1.2583 -2.1843 0
M  V30 44 H 0.2229 -2.3261 -1.4643 0
M  V30 45 H 3.5453 -1.0991 1.0015 0
M  V30 46 H 3.5008 -0.5095 -0.6575 0
M  V30 47 H 1.8186 -4.1504 -1.2792 0
M  V30 48 H 1.7762 -3.5643 -2.9346 0
M  V30 49 H 3.8763 -3.4037 0.2494 0
M  V30 50 H 5.0936 -2.3588 -0.4663 0
M  V30 51 H 3.8373 -2.2581 -2.5896 0
M  V30 52 H 3.9189 -5.1526 -2.0155 0
M  V30 53 H 5.9459 -6.2443 -2.3266 0
M  V30 54 H 7.2052 -5.4688 -3.3092 0
M  V30 55 H 5.6615 -5.9501 -4.0641 0
M  V30 END ATOM
M  V30 BEGIN BOND
M  V30 1 1 1 2
M  V30 2 2 2 3
M  V30 3 1 2 4
M  V30 4 1 3 5
M  V30 5 1 3 6
M  V30 6 1 4 7
M  V30 7 2 4 8
M  V30 8 2 6 9
M  V30 9 1 7 10
M  V30 10 1 7 11
M  V30 11 1 10 12
M  V30 12 1 11 13
M  V30 13 1 12 14
M  V30 14 1 14 15
M  V30 15 1 15 16
M  V30 16 1 16 17
M  V30 17 1 17 18
M  V30 18 1 17 19
M  V30 19 1 18 20
M  V30 20 1 19 21
M  V30 21 1 20 22
M  V30 22 1 22 23
M  V30 23 1 23 24
M  V30 24 2 24 25
M  V30 25 1 24 26
M  V30 26 1 8 9
M  V30 27 1 13 14
M  V30 28 1 21 22
M  V30 29 1 6 27
M  V30 30 1 8 28
M  V30 31 1 9 29
M  V30 32 1 10 30
M  V30 33 1 10 31
M  V30 34 1 11 32
M  V30 35 1 11 33
M  V30 36 1 12 34
M  V30 37 1 12 35
M  V30 38 1 13 36
M  V30 39 1 13 37
M  V30 40 1 15 38
M  V30 41 1 15 39
M  V30 42 1 16 40
M  V30 43 1 16 41
M  V30 44 1 17 42
M  V30 45 1 18 43
M  V30 46 1 18 44
M  V30 47 1 19 45
M  V30 48 1 19 46
M  V30 49 1 20 47
M  V30 50 1 20 48
M  V30 51 1 21 49
M  V30 52 1 21 50
M  V30 53 1 22 51
M  V30 54 1 23 52
M  V30 55 1 26 53
M  V30 56 1 26 54
M  V30 57 1 26 55
M  V30 END BOND
M  V30 END CTAB
M  END
>  <Column 1>
873

>  <level_0>
1000

>  <index>
1000

>  <Unnamed: 0>
1000

>  <NO.>
1012

>  <Name>
chembl2024514

>  <IUPAC_name>
n-[4-[2-[4-(2-3-dichlorophenyl)piperazin-1-yl]ethyl]cyclohexyl]acetamide

>  <SMILES>
CC(=O)NC1CCC(CCN2CCN(c3cccc(Cl)c3Cl)CC2)CC1

>  <CID>
70683582

>  <logBB>
1.08

>  <BBB+/BBB->
BBB+

>  <Inchi>
InChI=1S/C20H29Cl2N3O/c1-15(26)23-17-7-5-16(6-8-17)9-10-24-11-13-25(14-12-24)19-4-2-3-18(21)20(19)22/h2-4-16-17H-5-14H2-1H3-(H-23-26)

>  <threshold>


>  <reference>
R47|

>  <group>
A

>  <Class>
1

>  <ABC>
20.12

>  <ABCGG>
14.6

>  <nAcid>
0

>  <nBase>
1

>  <nAromAtom>
6

>  <nAromBond>
6

>  <nAtom>
55

>  <nHeavyAtom>
26

>  <nSpiro>
0

>  <nBridgehead>
0

>  <nHetero>
6

>  <nN>
3

>  <nO>
1

>  <nF>
0

>  <BalabanJ>
1.32

>  <BertzCT>
609.07

>  <nBonds>
57

>  <nBondsO>
28

>  <nBondsS>
50

>  <nBondsD>
1

>  <nBondsT>
0

>  <nBondsA>
6

>  <nBondsM>
7

>  <nBondsKS>
53

>  <nBondsKD>
4

>  <RNCG>
0.2

>  <RPCG>
0.12

>  <FCSP3>
0.65

>  <SZ>
35.33

>  <Sm>
33.17

>  <Sv>
33.03

>  <Sse>
54.72

>  <Sp>
36.65

>  <Si>
62.41

>  <MZ>
0.64

>  <Mm>
0.6

>  <Mv>
0.6

>  <Mse>
0.99

>  <Mp>
0.67

>  <Mi>
1.13

>  <NsCH3>
1

>  <NdCH2>
0

>  <NssCH2>
10

>  <NtCH>
0

>  <NdsCH>
0

>  <NaaCH>
3

>  <NsssCH>
2

>  <NddC>
0

>  <NtsC>
0

>  <NdssC>
1

>  <NaasC>
3

>  <NaaaC>
0

>  <NssssC>
0

>  <NsNH3>
0

>  <NsNH2>
0

>  <NssNH2>
0

>  <NdNH>
0

>  <NssNH>
1

>  <NaaNH>
0

>  <NtN>
0

>  <NsssNH>
0

>  <NdsN>
0

>  <NaaN>
0

>  <NsssN>
2

>  <NddsN>
0

>  <NaasN>
0

>  <NssssN>
0

>  <NsOH>
0

>  <NdO>
1

>  <NssO>
0

>  <NaaO>
0

>  <NsF>
0

>  <NsSiH3>
0

>  <NssSiH2>
0

>  <NsssSiH>
0

>  <NssssSi>
0

>  <NsPH2>
0

>  <NssPH>
0

>  <NsssP>
0

>  <NdsssP>
0

>  <NsssssP>
0

>  <NsSH>
0

>  <NdS>
0

>  <NssS>
0

>  <NaaS>
0

>  <NdssS>
0

>  <NddssS>
0

>  <NsCl>
2

>  <NsBr>
0

>  <NsI>
0

>  <fragCpx>
134.06

>  <fMF>
0.36

>  <nHBAcc>
3

>  <nHBDon>
1

>  <Kier1>
20.73

>  <Kier2>
9.97

>  <Lipinski>
1

>  <GhoseFilter>
1

>  <FilterItLogS>
-5.28

>  <VMcGowan>
303.17

>  <LabuteASA>
166.37

>  <PEOE_VSA1>
10.22

>  <PEOE_VSA2>
9.69

>  <PEOE_VSA3>
0

>  <PEOE_VSA4>
0

>  <PEOE_VSA5>
0

>  <PEOE_VSA6>
29.27

>  <PEOE_VSA7>
56.7

>  <PEOE_VSA8>
39.14

>  <PEOE_VSA9>
15.73

>  <PEOE_VSA10>
0

>  <PEOE_VSA11>
0

>  <PEOE_VSA12>
5.91

>  <PEOE_VSA13>
0

>  <SMR_VSA1>
4.79

>  <SMR_VSA2>
0

>  <SMR_VSA3>
10.22

>  <SMR_VSA4>
5.92

>  <SMR_VSA5>
45.07

>  <SMR_VSA6>
37.62

>  <SMR_VSA7>
28.24

>  <SMR_VSA8>
0

>  <SMR_VSA9>
0

>  <SlogP_VSA1>
10.22

>  <SlogP_VSA2>
49.57

>  <SlogP_VSA3>
4.79

>  <SlogP_VSA4>
5.92

>  <SlogP_VSA5>
39.03

>  <SlogP_VSA6>
18.2

>  <SlogP_VSA7>
10.05

>  <SlogP_VSA8>
0

>  <SlogP_VSA9>
0

>  <SlogP_VSA10>
5.69

>  <SlogP_VSA11>
0

>  <EState_VSA1>
0

>  <EState_VSA2>
5.91

>  <EState_VSA3>
16.09

>  <EState_VSA4>
50.63

>  <EState_VSA5>
25.81

>  <EState_VSA6>
6.92

>  <EState_VSA7>
12.13

>  <EState_VSA8>
21.18

>  <EState_VSA9>
23.2

>  <EState_VSA10>
4.79

>  <VSA_EState1>
0

>  <VSA_EState2>
16.06

>  <VSA_EState3>
4.35

>  <VSA_EState4>
1.05

>  <VSA_EState5>
0.91

>  <VSA_EState6>
6.25

>  <VSA_EState7>
6.01

>  <VSA_EState8>
6.92

>  <VSA_EState9>
0

>  <apol>
61.2

>  <bpol>
34.97

>  <nRing>
3

>  <nHRing>
1

>  <naRing>
1

>  <naHRing>
0

>  <nARing 2>
2

>  <nAHRing 2>
1

>  <nFRing>
0

>  <nFHRing>
0

>  <nFaRing>
0

>  <nFaHRing>
0

>  <nFARing 2>
0

>  <nFAHRing 2>
0

>  <nRot>
5

>  <SLogP>
4.2

>  <SMR>
109.29

>  <TopoPSA(NO)>
35.58

>  <TopoPSA>
35.58

>  <JGI1>
0.2

>  <JGI2>
0.08

>  <JGI3>
0.03

>  <JGI4>
0.04

>  <JGI5>
0.03

>  <Diameter>
16

>  <Radius>
8

>  <TMWC10>
128.38

>  <TSRW10>
60.65

>  <MW>
397.17

>  <AMW>
7.22

>  <WPath>
2050

>  <WPol>
38

>  <Zagreb1>
132

>  <Zagreb2>
151

>  <mZagreb2>
5.75

>  <yes>


>  <nAR-cont>
1

>  <nHA-cont>
0.892715677

>  <MWHBN>
0.200711276

>  <MWHBN-cont>
0.999735352

>  <TPSA-cont>
0.751629506

>  <pka_cont>
0.97

>  <yes.1>


>  <BBB_SCORE>
5.380577717

>  <MMFF94 Energy>
114.52

$$$$
Compound 730
Actelion Java MolfileCreator 2.0

  0  0  0  0  0  0              0 V3000
M  V30 BEGIN CTAB
M  V30 COUNTS 41 42 0 0 0
M  V30 BEGIN ATOM
M  V30 1 O 1.8906 -0.9449 -1.4176 0
M  V30 2 C 1.2584 0.0243 -0.9946 0
M  V30 3 C 1.3677 0.3726 0.4563 0
M  V30 4 C 0.3955 0.8798 -1.917 0 CFG=2
M  V30 5 C 1.8817 -0.5964 1.3285 0
M  V30 6 C 0.9909 1.6179 0.97 0
M  V30 7 C -0.3735 0.0115 -2.9352 0
M  V30 8 C 1.3266 1.8519 -2.6461 0
M  V30 9 C 2.0054 -0.3304 2.6946 0
M  V30 10 C 1.1155 1.8829 2.3384 0
M  V30 11 N -1.6179 -0.5577 -2.3907 0
M  V30 12 C 1.6263 0.9137 3.2106 0
M  V30 13 C -1.4009 -1.6555 -1.4428 0
M  V30 14 C -2.4407 -1.1513 -3.451 0
M  V30 15 C 1.7425 1.1971 4.6869 0
M  V30 16 C -2.7504 -2.361 -1.3898 0
M  V30 17 C -3.4648 -1.9594 -2.6734 0
M  V30 18 C 0.4768 0.812 5.4376 0
M  V30 19 H -0.3384 1.4541 -1.3429 0
M  V30 20 H 2.1871 -1.5696 0.948 0
M  V30 21 H 0.6077 2.4084 0.3325 0
M  V30 22 H 0.2664 -0.7729 -3.3597 0
M  V30 23 H -0.6573 0.6631 -3.7728 0
M  V30 24 H 2.0454 1.3166 -3.2767 0
M  V30 25 H 1.9001 2.4587 -1.9371 0
M  V30 26 H 0.7555 2.534 -3.2847 0
M  V30 27 H 2.4011 -1.1022 3.3516 0
M  V30 28 H 0.8124 2.8561 2.7203 0
M  V30 29 H -1.116 -1.2975 -0.4495 0
M  V30 30 H -0.6359 -2.3565 -1.7997 0
M  V30 31 H -2.9207 -0.3909 -4.0752 0
M  V30 32 H -1.8519 -1.8157 -4.0966 0
M  V30 33 H 1.9565 2.2616 4.8425 0
M  V30 34 H 2.5995 0.652 5.101 0
M  V30 35 H -3.3325 -2.0344 -0.5202 0
M  V30 36 H -2.6258 -3.4468 -1.3218 0
M  V30 37 H -4.3401 -1.344 -2.4327 0
M  V30 38 H -3.8117 -2.83 -3.2387 0
M  V30 39 H 0.5892 1.0282 6.5049 0
M  V30 40 H 0.2596 -0.2559 5.3288 0
M  V30 41 H -0.39 1.3704 5.0679 0
M  V30 END ATOM
M  V30 BEGIN BOND
M  V30 1 2 1 2
M  V30 2 1 2 3
M  V30 3 1 2 4
M  V30 4 2 3 5
M  V30 5 1 3 6
M  V30 6 1 4 7
M  V30 7 1 4 8
M  V30 8 1 5 9
M  V30 9 2 6 10
M  V30 10 1 7 11
M  V30 11 2 9 12
M  V30 12 1 11 13
M  V30 13 1 11 14
M  V30 14 1 12 15
M  V30 15 1 13 16
M  V30 16 1 14 17
M  V30 17 1 15 18
M  V30 18 1 10 12
M  V30 19 1 16 17
M  V30 20 1 4 19
M  V30 21 1 5 20
M  V30 22 1 6 21
M  V30 23 1 7 22
M  V30 24 1 7 23
M  V30 25 1 8 24
M  V30 26 1 8 25
M  V30 27 1 8 26
M  V30 28 1 9 27
M  V30 29 1 10 28
M  V30 30 1 13 29
M  V30 31 1 13 30
M  V30 32 1 14 31
M  V30 33 1 14 32
M  V30 34 1 15 33
M  V30 35 1 15 34
M  V30 36 1 16 35
M  V30 37 1 16 36
M  V30 38 1 17 37
M  V30 39 1 17 38
M  V30 40 1 18 39
M  V30 41 1 18 40
M  V30 42 1 18 41
M  V30 END BOND
M  V30 BEGIN COLLECTION
M  V30 MDLV30/STERAC1 ATOMS=(1 4)
M  V30 END COLLECTION
M  V30 END CTAB
M  END
>  <Column 1>
874

>  <level_0>
1001

>  <index>
1001

>  <Unnamed: 0>
1001

>  <NO.>
1013

>  <Name>
inaperisone

>  <IUPAC_name>
1-(4-ethylphenyl)-2-methyl-3-pyrrolidin-1-ylpropan-1-one

>  <SMILES>
CCc1ccc(C(=O)C(C)CN2CCCC2)cc1

>  <CID>
65860

>  <logBB>
1.08

>  <BBB+/BBB->
BBB+

>  <Inchi>
InChI=1S/C16H23NO/c1-3-14-6-8-15(9-7-14)16(18)13(2)12-17-10-4-5-11-17/h6-9-13H-3-5-10-12H2-1-2H3

>  <threshold>


>  <reference>
R2|R2|R8|R27|R47|

>  <group>
A

>  <Class>
1

>  <ABC>
13.57

>  <ABCGG>
11.99

>  <nAcid>
0

>  <nBase>
1

>  <nAromAtom>
6

>  <nAromBond>
6

>  <nAtom>
41

>  <nHeavyAtom>
18

>  <nSpiro>
0

>  <nBridgehead>
0

>  <nHetero>
2

>  <nN>
1

>  <nO>
1

>  <nF>
0

>  <BalabanJ>
1.74

>  <BertzCT>
390.06

>  <nBonds>
42

>  <nBondsO>
19

>  <nBondsS>
35

>  <nBondsD>
1

>  <nBondsT>
0

>  <nBondsA>
6

>  <nBondsM>
7

>  <nBondsKS>
38

>  <nBondsKD>
4

>  <RNCG>
0.28

>  <RPCG>
0.15

>  <FCSP3>
0.56

>  <SZ>
22.33

>  <Sm>
20.43

>  <Sv>
23.7

>  <Sse>
40.2

>  <Sp>
26.32

>  <Si>
46.28

>  <MZ>
0.54

>  <Mm>
0.5

>  <Mv>
0.58

>  <Mse>
0.98

>  <Mp>
0.64

>  <Mi>
1.13

>  <NsCH3>
2

>  <NdCH2>
0

>  <NssCH2>
6

>  <NtCH>
0

>  <NdsCH>
0

>  <NaaCH>
4

>  <NsssCH>
1

>  <NddC>
0

>  <NtsC>
0

>  <NdssC>
1

>  <NaasC>
2

>  <NaaaC>
0

>  <NssssC>
0

>  <NsNH3>
0

>  <NsNH2>
0

>  <NssNH2>
0

>  <NdNH>
0

>  <NssNH>
0

>  <NaaNH>
0

>  <NtN>
0

>  <NsssNH>
0

>  <NdsN>
0

>  <NaaN>
0

>  <NsssN>
1

>  <NddsN>
0

>  <NaasN>
0

>  <NssssN>
0

>  <NsOH>
0

>  <NdO>
1

>  <NssO>
0

>  <NaaO>
0

>  <NsF>
0

>  <NsSiH3>
0

>  <NssSiH2>
0

>  <NsssSiH>
0

>  <NssssSi>
0

>  <NsPH2>
0

>  <NssPH>
0

>  <NsssP>
0

>  <NdsssP>
0

>  <NsssssP>
0

>  <NsSH>
0

>  <NdS>
0

>  <NssS>
0

>  <NaaS>
0

>  <NdssS>
0

>  <NddssS>
0

>  <NsCl>
0

>  <NsBr>
0

>  <NsI>
0

>  <fragCpx>
55.02

>  <fMF>
0.34

>  <nHBAcc>
2

>  <nHBDon>
0

>  <Kier1>
14.41

>  <Kier2>
6.96

>  <Lipinski>
1

>  <GhoseFilter>
1

>  <FilterItLogS>
-3.82

>  <VMcGowan>
213.23

>  <LabuteASA>
110

>  <PEOE_VSA1>
4.9

>  <PEOE_VSA2>
4.79

>  <PEOE_VSA3>
0

>  <PEOE_VSA4>
0

>  <PEOE_VSA5>
0

>  <PEOE_VSA6>
38.11

>  <PEOE_VSA7>
37.92

>  <PEOE_VSA8>
18.03

>  <PEOE_VSA9>
0

>  <PEOE_VSA10>
0

>  <PEOE_VSA11>
5.78

>  <PEOE_VSA12>
0

>  <PEOE_VSA13>
0

>  <SMR_VSA1>
4.79

>  <SMR_VSA2>
0

>  <SMR_VSA3>
4.9

>  <SMR_VSA4>
5.92

>  <SMR_VSA5>
33.11

>  <SMR_VSA6>
19.63

>  <SMR_VSA7>
35.39

>  <SMR_VSA8>
0

>  <SMR_VSA9>
0

>  <SlogP_VSA1>
0

>  <SlogP_VSA2>
30.32

>  <SlogP_VSA3>
6.42

>  <SlogP_VSA4>
5.92

>  <SlogP_VSA5>
42.61

>  <SlogP_VSA6>
24.27

>  <SlogP_VSA7>
0

>  <SlogP_VSA8>
0

>  <SlogP_VSA9>
0

>  <SlogP_VSA10>
0

>  <SlogP_VSA11>
0

>  <EState_VSA1>
0

>  <EState_VSA2>
11.7

>  <EState_VSA3>
0

>  <EState_VSA4>
31.62

>  <EState_VSA5>
18.41

>  <EState_VSA6>
0

>  <EState_VSA7>
19.06

>  <EState_VSA8>
23.96

>  <EState_VSA9>
0

>  <EState_VSA10>
4.79

>  <VSA_EState1>
0

>  <VSA_EState2>
14.71

>  <VSA_EState3>
0

>  <VSA_EState4>
2.15

>  <VSA_EState5>
0.39

>  <VSA_EState6>
8.08

>  <VSA_EState7>
3.59

>  <VSA_EState8>
7.41

>  <VSA_EState9>
0

>  <apol>
43.96

>  <bpol>
25.65

>  <nRing>
2

>  <nHRing>
1

>  <naRing>
1

>  <naHRing>
0

>  <nARing 2>
1

>  <nAHRing 2>
1

>  <nFRing>
0

>  <nFHRing>
0

>  <nFaRing>
0

>  <nFaHRing>
0

>  <nFARing 2>
0

>  <nFAHRing 2>
0

>  <nRot>
5

>  <SLogP>
3.16

>  <SMR>
74.99

>  <TopoPSA(NO)>
20.31

>  <TopoPSA>
20.31

>  <JGI1>
0.18

>  <JGI2>
0.08

>  <JGI3>
0.05

>  <JGI4>
0.04

>  <JGI5>
0.03

>  <Diameter>
11

>  <Radius>
6

>  <TMWC10>
107.3

>  <TSRW10>
63.52

>  <MW>
245.18

>  <AMW>
5.98

>  <WPath>
668

>  <WPol>
23

>  <Zagreb1>
88

>  <Zagreb2>
100

>  <mZagreb2>
4.14

>  <yes>


>  <nAR-cont>
0.816016

>  <nHA-cont>
0.991161285

>  <MWHBN>
0.127728401

>  <MWHBN-cont>
0.860915597

>  <TPSA-cont>
0.858223588

>  <pka_cont>
0.97

>  <yes.1>


>  <BBB_SCORE>
5.299997857

>  <MMFF94 Energy>
49.722

$$$$
Compound 731
Actelion Java MolfileCreator 2.0

  0  0  0  0  0  0              0 V3000
M  V30 BEGIN CTAB
M  V30 COUNTS 32 32 0 0 0
M  V30 BEGIN ATOM
M  V30 1 N 2.4048 1.2406 1.3958 0
M  V30 2 C 1.1559 0.475 1.2125 0 CFG=2
M  V30 3 C 2.24 2.5708 1.9671 0
M  V30 4 C 0.2192 1.1463 0.1802 0
M  V30 5 C 0.4719 0.2322 2.5643 0
M  V30 6 C -0.6095 0.2171 -0.7352 0
M  V30 7 C 0.2715 -0.5292 -1.7523 0
M  V30 8 C -1.5099 -0.7708 0.0148 0
M  V30 9 C -0.5727 -1.3607 -2.7181 0
M  V30 10 C -2.3652 -1.5877 -0.9533 0
M  V30 11 C -1.5027 -2.3181 -1.9787 0
M  V30 12 H 2.8741 1.3251 0.494 0
M  V30 13 H 1.4698 -0.5026 0.8324 0
M  V30 14 H 3.2176 3.0622 2.0106 0
M  V30 15 H 1.5825 3.2045 1.365 0
M  V30 16 H 1.8633 2.5306 2.9931 0
M  V30 17 H -0.467 1.8271 0.7015 0
M  V30 18 H 0.812 1.7858 -0.4888 0
M  V30 19 H 1.1873 -0.1569 3.2979 0
M  V30 20 H 0.0312 1.1478 2.9729 0
M  V30 21 H -0.3301 -0.5047 2.4849 0
M  V30 22 H -1.2687 0.8813 -1.3137 0
M  V30 23 H 0.8705 0.187 -2.327 0
M  V30 24 H 0.9755 -1.1925 -1.2368 0
M  V30 25 H -0.9019 -1.4681 0.6016 0
M  V30 26 H -2.163 -0.2325 0.7112 0
M  V30 27 H 0.0844 -1.928 -3.3868 0
M  V30 28 H -1.1683 -0.6902 -3.35 0
M  V30 29 H -2.9641 -2.3141 -0.3924 0
M  V30 30 H -3.0687 -0.9243 -1.4709 0
M  V30 31 H -0.9053 -3.0855 -1.4711 0
M  V30 32 H -2.1452 -2.838 -2.6982 0
M  V30 END ATOM
M  V30 BEGIN BOND
M  V30 1 1 1 2
M  V30 2 1 1 3
M  V30 3 1 2 4
M  V30 4 1 2 5
M  V30 5 1 4 6
M  V30 6 1 6 7
M  V30 7 1 6 8
M  V30 8 1 7 9
M  V30 9 1 8 10
M  V30 10 1 9 11
M  V30 11 1 10 11
M  V30 12 1 1 12
M  V30 13 1 2 13
M  V30 14 1 3 14
M  V30 15 1 3 15
M  V30 16 1 3 16
M  V30 17 1 4 17
M  V30 18 1 4 18
M  V30 19 1 5 19
M  V30 20 1 5 20
M  V30 21 1 5 21
M  V30 22 1 6 22
M  V30 23 1 7 23
M  V30 24 1 7 24
M  V30 25 1 8 25
M  V30 26 1 8 26
M  V30 27 1 9 27
M  V30 28 1 9 28
M  V30 29 1 10 29
M  V30 30 1 10 30
M  V30 31 1 11 31
M  V30 32 1 11 32
M  V30 END BOND
M  V30 BEGIN COLLECTION
M  V30 MDLV30/STERAC1 ATOMS=(1 2)
M  V30 END COLLECTION
M  V30 END CTAB
M  END
>  <Column 1>
875

>  <level_0>
1002

>  <index>
1002

>  <Unnamed: 0>
1002

>  <NO.>
1014

>  <Name>
101-40-6

>  <IUPAC_name>
1-cyclohexyl-n-methylpropan-2-amine

>  <SMILES>
CNC(C)CC1CCCCC1

>  <CID>
7558

>  <logBB>
1.08

>  <BBB+/BBB->
BBB+

>  <Inchi>
InChI=1S/C10H21N/c1-9(11-2)8-10-6-4-3-5-7-10/h9-11H-3-8H2-1-2H3

>  <threshold>


>  <reference>
R8|R21|R27|R43|R47|R4|R40|

>  <group>
A

>  <Class>
1

>  <ABC>
7.89

>  <ABCGG>
7.39

>  <nAcid>
0

>  <nBase>
1

>  <nAromAtom>
0

>  <nAromBond>
0

>  <nAtom>
32

>  <nHeavyAtom>
11

>  <nSpiro>
0

>  <nBridgehead>
0

>  <nHetero>
1

>  <nN>
1

>  <nO>
0

>  <nF>
0

>  <BalabanJ>
2.13

>  <BertzCT>
95.05

>  <nBonds>
32

>  <nBondsO>
11

>  <nBondsS>
32

>  <nBondsD>
0

>  <nBondsT>
0

>  <nBondsA>
0

>  <nBondsM>
0

>  <nBondsKS>
32

>  <nBondsKD>
0

>  <RNCG>
0.44

>  <RPCG>
0.17

>  <FCSP3>
1

>  <SZ>
14.67

>  <Sm>
12.93

>  <Sv>
16.45

>  <Sse>
30.99

>  <Sp>
19.04

>  <Si>
36.65

>  <MZ>
0.46

>  <Mm>
0.4

>  <Mv>
0.51

>  <Mse>
0.97

>  <Mp>
0.6

>  <Mi>
1.15

>  <NsCH3>
2

>  <NdCH2>
0

>  <NssCH2>
6

>  <NtCH>
0

>  <NdsCH>
0

>  <NaaCH>
0

>  <NsssCH>
2

>  <NddC>
0

>  <NtsC>
0

>  <NdssC>
0

>  <NaasC>
0

>  <NaaaC>
0

>  <NssssC>
0

>  <NsNH3>
0

>  <NsNH2>
0

>  <NssNH2>
0

>  <NdNH>
0

>  <NssNH>
1

>  <NaaNH>
0

>  <NtN>
0

>  <NsssNH>
0

>  <NdsN>
0

>  <NaaN>
0

>  <NsssN>
0

>  <NddsN>
0

>  <NaasN>
0

>  <NssssN>
0

>  <NsOH>
0

>  <NdO>
0

>  <NssO>
0

>  <NaaO>
0

>  <NsF>
0

>  <NsSiH3>
0

>  <NssSiH2>
0

>  <NsssSiH>
0

>  <NssssSi>
0

>  <NsPH2>
0

>  <NssPH>
0

>  <NsssP>
0

>  <NdsssP>
0

>  <NsssssP>
0

>  <NsSH>
0

>  <NdS>
0

>  <NssS>
0

>  <NaaS>
0

>  <NdssS>
0

>  <NddssS>
0

>  <NsCl>
0

>  <NsBr>
0

>  <NsI>
0

>  <fragCpx>
11.01

>  <fMF>
0.19

>  <nHBAcc>
1

>  <nHBDon>
1

>  <Kier1>
9.09

>  <Kier2>
4.79

>  <Lipinski>
1

>  <GhoseFilter>
0

>  <FilterItLogS>
-2.58

>  <VMcGowan>
150.88

>  <LabuteASA>
70.57

>  <PEOE_VSA1>
5.32

>  <PEOE_VSA2>
0

>  <PEOE_VSA3>
0

>  <PEOE_VSA4>
0

>  <PEOE_VSA5>
0

>  <PEOE_VSA6>
32.1

>  <PEOE_VSA7>
26.31

>  <PEOE_VSA8>
6.04

>  <PEOE_VSA9>
0

>  <PEOE_VSA10>
0

>  <PEOE_VSA11>
0

>  <PEOE_VSA12>
0

>  <PEOE_VSA13>
0

>  <SMR_VSA1>
0

>  <SMR_VSA2>
0

>  <SMR_VSA3>
5.32

>  <SMR_VSA4>
5.92

>  <SMR_VSA5>
51.49

>  <SMR_VSA6>
7.05

>  <SMR_VSA7>
0

>  <SMR_VSA8>
0

>  <SMR_VSA9>
0

>  <SlogP_VSA1>
5.32

>  <SlogP_VSA2>
13.09

>  <SlogP_VSA3>
0

>  <SlogP_VSA4>
5.92

>  <SlogP_VSA5>
45.45

>  <SlogP_VSA6>
0

>  <SlogP_VSA7>
0

>  <SlogP_VSA8>
0

>  <SlogP_VSA9>
0

>  <SlogP_VSA10>
0

>  <SlogP_VSA11>
0

>  <EState_VSA1>
0

>  <EState_VSA2>
0

>  <EState_VSA3>
0

>  <EState_VSA4>
11.96

>  <EState_VSA5>
38.52

>  <EState_VSA6>
0

>  <EState_VSA7>
0

>  <EState_VSA8>
19.29

>  <EState_VSA9>
0

>  <EState_VSA10>
0

>  <VSA_EState1>
0

>  <VSA_EState2>
0

>  <VSA_EState3>
3.31

>  <VSA_EState4>
0

>  <VSA_EState5>
1.02

>  <VSA_EState6>
0.72

>  <VSA_EState7>
8.77

>  <VSA_EState8>
2.29

>  <VSA_EState9>
2.06

>  <apol>
31.8

>  <bpol>
21.64

>  <nRing>
1

>  <nHRing>
0

>  <naRing>
0

>  <naHRing>
0

>  <nARing 2>
1

>  <nAHRing 2>
0

>  <nFRing>
0

>  <nFHRing>
0

>  <nFaRing>
0

>  <nFaHRing>
0

>  <nFARing 2>
0

>  <nFAHRing 2>
0

>  <nRot>
3

>  <SLogP>
2.56

>  <SMR>
49.71

>  <TopoPSA(NO)>
12.03

>  <TopoPSA>
12.03

>  <JGI1>
0.18

>  <JGI2>
0.05

>  <JGI3>
0.04

>  <JGI4>
0.04

>  <JGI5>
0.02

>  <Diameter>
7

>  <Radius>
4

>  <TMWC10>
84.75

>  <TSRW10>
39.98

>  <MW>
155.17

>  <AMW>
4.85

>  <WPath>
168

>  <WPol>
11

>  <Zagreb1>
48

>  <Zagreb2>
51

>  <mZagreb2>
2.67

>  <yes>


>  <nAR-cont>
0.816016

>  <nHA-cont>
0.720786536

>  <MWHBN>
0.160555843

>  <MWHBN-cont>
0.956964673

>  <TPSA-cont>
0.91602313

>  <pka_cont>
0.97

>  <yes.1>


>  <BBB_SCORE>
5.289295804

>  <MMFF94 Energy>
11.176

$$$$
Compound 732
Actelion Java MolfileCreator 2.0

  0  0  0  0  0  0              0 V3000
M  V30 BEGIN CTAB
M  V30 COUNTS 39 41 0 0 0
M  V30 BEGIN ATOM
M  V30 1 N 0.3164 -0.4746 0.1582 0
M  V30 2 C 0.3147 -0.4358 -1.2578 0
M  V30 3 C 1.1515 0.2443 1.045 0
M  V30 4 C -0.7347 -1.2641 0.8502 0
M  V30 5 C 0.6982 0.6895 -2.0218 0
M  V30 6 C -0.0416 -1.6014 -1.9795 0
M  V30 7 C 1.2785 1.638 0.9779 0
M  V30 8 C 1.8774 -0.4405 2.0377 0
M  V30 9 C -2.1265 -0.6652 0.602 0
M  V30 10 C 0.729 0.6014 -3.4362 0
M  V30 11 C 1.1023 2.0367 -1.4598 0
M  V30 12 C -0.0251 -1.6657 -3.3757 0
M  V30 13 C 2.0928 2.3199 1.8993 0
M  V30 14 C 0.5492 2.4011 -0.0892 0
M  V30 15 C 2.6891 0.2384 2.9482 0
M  V30 16 C -3.2188 -1.3775 1.3964 0
M  V30 17 C 0.3648 -0.5599 -4.1075 0
M  V30 18 C 2.7925 1.6222 2.8813 0
M  V30 19 N -3.3784 -2.7658 0.977 0
M  V30 20 H -0.5765 -1.2735 1.9372 0
M  V30 21 H -0.6892 -2.3181 0.5578 0
M  V30 22 H -0.3083 -2.5154 -1.4571 0
M  V30 23 H 1.8242 -1.5253 2.0911 0
M  V30 24 H -2.3768 -0.6887 -0.4652 0
M  V30 25 H -2.1208 0.3926 0.8935 0
M  V30 26 H 1.0407 1.4624 -4.0256 0
M  V30 27 H 2.1989 2.094 -1.4617 0
M  V30 28 H 0.744 2.8114 -2.1517 0
M  V30 29 H -0.2994 -2.5881 -3.8794 0
M  V30 30 H 2.1907 3.4018 1.8496 0
M  V30 31 H -0.5297 2.217 -0.0206 0
M  V30 32 H 0.6856 3.4781 0.0704 0
M  V30 33 H 3.2412 -0.3159 3.7016 0
M  V30 34 H -4.1697 -0.8518 1.2555 0
M  V30 35 H -2.9861 -1.3484 2.4664 0
M  V30 36 H 0.3947 -0.599 -5.1923 0
M  V30 37 H 3.4235 2.1575 3.5855 0
M  V30 38 H -4.1448 -3.1885 1.5012 0
M  V30 39 H -3.6633 -2.7935 -0.0025 0
M  V30 END ATOM
M  V30 BEGIN BOND
M  V30 1 1 1 2
M  V30 2 1 1 3
M  V30 3 1 1 4
M  V30 4 2 2 5
M  V30 5 1 2 6
M  V30 6 2 3 7
M  V30 7 1 3 8
M  V30 8 1 4 9
M  V30 9 1 5 10
M  V30 10 1 5 11
M  V30 11 2 6 12
M  V30 12 1 7 13
M  V30 13 1 7 14
M  V30 14 2 8 15
M  V30 15 1 9 16
M  V30 16 2 10 17
M  V30 17 2 13 18
M  V30 18 1 16 19
M  V30 19 1 11 14
M  V30 20 1 12 17
M  V30 21 1 15 18
M  V30 22 1 4 20
M  V30 23 1 4 21
M  V30 24 1 6 22
M  V30 25 1 8 23
M  V30 26 1 9 24
M  V30 27 1 9 25
M  V30 28 1 10 26
M  V30 29 1 11 27
M  V30 30 1 11 28
M  V30 31 1 12 29
M  V30 32 1 13 30
M  V30 33 1 14 31
M  V30 34 1 14 32
M  V30 35 1 15 33
M  V30 36 1 16 34
M  V30 37 1 16 35
M  V30 38 1 17 36
M  V30 39 1 18 37
M  V30 40 1 19 38
M  V30 41 1 19 39
M  V30 END BOND
M  V30 END CTAB
M  END
>  <Column 1>
876

>  <level_0>
1004

>  <index>
1004

>  <Unnamed: 0>
1004

>  <NO.>
1016

>  <Name>
desmethyldesipramine

>  <IUPAC_name>
3-(5-6-dihydrobenzo[b][1]benzazepin-11-yl)propan-1-amine

>  <SMILES>
NCCCN1c2ccccc2CCc2ccccc21

>  <CID>
159642

>  <logBB>
1.1

>  <BBB+/BBB->
BBB+

>  <Inchi>
InChI=1S/C17H20N2/c18-12-5-13-19-16-8-3-1-6-14(16)10-11-15-7-2-4-9-17(15)19/h1-4-6-9H-5-10-13-18H2

>  <threshold>


>  <reference>
R4|R40|R8|R21|R27|R2|R2|R27|R3|R12|R18|R25|R26|R27|R35|R36|R38|R39|R41|R43|R46|R47|R5|

>  <group>
A

>  <Class>
1

>  <ABC>
14.69

>  <ABCGG>
12

>  <nAcid>
0

>  <nBase>
1

>  <nAromAtom>
12

>  <nAromBond>
12

>  <nAtom>
39

>  <nHeavyAtom>
19

>  <nSpiro>
0

>  <nBridgehead>
0

>  <nHetero>
2

>  <nN>
2

>  <nO>
0

>  <nF>
0

>  <BalabanJ>
1.77

>  <BertzCT>
515.19

>  <nBonds>
41

>  <nBondsO>
21

>  <nBondsS>
29

>  <nBondsD>
0

>  <nBondsT>
0

>  <nBondsA>
12

>  <nBondsM>
12

>  <nBondsKS>
35

>  <nBondsKD>
6

>  <RNCG>
0.28

>  <RPCG>
0.1

>  <FCSP3>
0.29

>  <SZ>
22.67

>  <Sm>
21.01

>  <Sv>
23.93

>  <Sse>
38.2

>  <Sp>
26.3

>  <Si>
43.73

>  <MZ>
0.58

>  <Mm>
0.54

>  <Mv>
0.61

>  <Mse>
0.98

>  <Mp>
0.67

>  <Mi>
1.12

>  <NsCH3>
0

>  <NdCH2>
0

>  <NssCH2>
5

>  <NtCH>
0

>  <NdsCH>
0

>  <NaaCH>
8

>  <NsssCH>
0

>  <NddC>
0

>  <NtsC>
0

>  <NdssC>
0

>  <NaasC>
4

>  <NaaaC>
0

>  <NssssC>
0

>  <NsNH3>
0

>  <NsNH2>
1

>  <NssNH2>
0

>  <NdNH>
0

>  <NssNH>
0

>  <NaaNH>
0

>  <NtN>
0

>  <NsssNH>
0

>  <NdsN>
0

>  <NaaN>
0

>  <NsssN>
1

>  <NddsN>
0

>  <NaasN>
0

>  <NssssN>
0

>  <NsOH>
0

>  <NdO>
0

>  <NssO>
0

>  <NaaO>
0

>  <NsF>
0

>  <NsSiH3>
0

>  <NssSiH2>
0

>  <NsssSiH>
0

>  <NssssSi>
0

>  <NsPH2>
0

>  <NssPH>
0

>  <NsssP>
0

>  <NdsssP>
0

>  <NsssssP>
0

>  <NsSH>
0

>  <NdS>
0

>  <NssS>
0

>  <NaaS>
0

>  <NdssS>
0

>  <NddssS>
0

>  <NsCl>
0

>  <NsBr>
0

>  <NsI>
0

>  <fragCpx>
99.02

>  <fMF>
0.38

>  <nHBAcc>
2

>  <nHBDon>
1

>  <Kier1>
13.96

>  <Kier2>
6.64

>  <Lipinski>
1

>  <GhoseFilter>
1

>  <FilterItLogS>
-4.45

>  <VMcGowan>
211.97

>  <LabuteASA>
114.41

>  <PEOE_VSA1>
10.63

>  <PEOE_VSA2>
0

>  <PEOE_VSA3>
0

>  <PEOE_VSA4>
0

>  <PEOE_VSA5>
0

>  <PEOE_VSA6>
36.4

>  <PEOE_VSA7>
49.07

>  <PEOE_VSA8>
17.92

>  <PEOE_VSA9>
0

>  <PEOE_VSA10>
0

>  <PEOE_VSA11>
0

>  <PEOE_VSA12>
0

>  <PEOE_VSA13>
0

>  <SMR_VSA1>
0

>  <SMR_VSA2>
0

>  <SMR_VSA3>
0

>  <SMR_VSA4>
5.73

>  <SMR_VSA5>
19.26

>  <SMR_VSA6>
17.99

>  <SMR_VSA7>
59.66

>  <SMR_VSA8>
0

>  <SMR_VSA9>
0

>  <SlogP_VSA1>
10.63

>  <SlogP_VSA2>
13.09

>  <SlogP_VSA3>
12.84

>  <SlogP_VSA4>
0

>  <SlogP_VSA5>
17.55

>  <SlogP_VSA6>
48.53

>  <SlogP_VSA7>
0

>  <SlogP_VSA8>
0

>  <SlogP_VSA9>
0

>  <SlogP_VSA10>
11.37

>  <SlogP_VSA11>
0

>  <EState_VSA1>
0

>  <EState_VSA2>
0

>  <EState_VSA3>
0

>  <EState_VSA4>
32.35

>  <EState_VSA5>
22.5

>  <EState_VSA6>
0

>  <EState_VSA7>
0

>  <EState_VSA8>
53.43

>  <EState_VSA9>
5.73

>  <EState_VSA10>
0

>  <VSA_EState1>
0

>  <VSA_EState2>
2.44

>  <VSA_EState3>
0

>  <VSA_EState4>
11.28

>  <VSA_EState5>
0

>  <VSA_EState6>
17.48

>  <VSA_EState7>
3.25

>  <VSA_EState8>
1.73

>  <VSA_EState9>
0

>  <apol>
43.93

>  <bpol>
21.2

>  <nRing>
3

>  <nHRing>
1

>  <naRing>
2

>  <naHRing>
0

>  <nARing 2>
1

>  <nAHRing 2>
1

>  <nFRing>
1

>  <nFHRing>
1

>  <nFaRing>
0

>  <nFaHRing>
0

>  <nFARing 2>
1

>  <nFAHRing 2>
1

>  <nRot>
3

>  <SLogP>
3.27

>  <SMR>
80.97

>  <TopoPSA(NO)>
29.26

>  <TopoPSA>
29.26

>  <JGI1>
0.1

>  <JGI2>
0.07

>  <JGI3>
0.04

>  <JGI4>
0.03

>  <JGI5>
0.02

>  <Diameter>
8

>  <Radius>
4

>  <TMWC10>
112.99

>  <TSRW10>
60.41

>  <MW>
252.16

>  <AMW>
6.47

>  <WPath>
638

>  <WPol>
33

>  <Zagreb1>
98

>  <Zagreb2>
116

>  <mZagreb2>
4.36

>  <yes>


>  <nAR-cont>
0.816016

>  <nHA-cont>
0.998649058

>  <MWHBN>
0.188922271

>  <MWHBN-cont>
0.994947521

>  <TPSA-cont>
0.795747031

>  <pka_cont>
0.97

>  <yes.1>


>  <BBB_SCORE>
5.383580401

>  <MMFF94 Energy>
54.027

$$$$
Compound 733
Actelion Java MolfileCreator 2.0

  0  0  0  0  0  0              0 V3000
M  V30 BEGIN CTAB
M  V30 COUNTS 32 35 0 0 0
M  V30 BEGIN ATOM
M  V30 1 N -0.0807 1.9401 0.5655 0
M  V30 2 C -0.8575 0.7952 -0.0313 0
M  V30 3 C 1.3207 1.4742 0.3564 0
M  V30 4 C -0.761 -0.3841 0.9532 0
M  V30 5 C -0.0447 0.4773 -1.2753 0
M  V30 6 C -2.276 1.2819 -0.3422 0
M  V30 7 C 1.275 0.884 -1.0281 0
M  V30 8 C 1.6218 0.3977 1.4288 0
M  V30 9 C 0.4706 -0.5832 1.6365 0
M  V30 10 C -1.8036 -1.2971 1.1642 0
M  V30 11 C -0.391 -0.1295 -2.4691 0
M  V30 12 C 2.2769 0.7022 -1.9617 0
M  V30 13 C 0.6219 -1.6602 2.518 0
M  V30 14 C -1.6384 -2.3694 2.0447 0
M  V30 15 C 0.6118 -0.3127 -3.425 0
M  V30 16 C 1.9331 0.0997 -3.1738 0
M  V30 17 C -0.4317 -2.5493 2.7196 0
M  V30 18 H -0.2248 2.7482 -0.0383 0
M  V30 19 H 2.0246 2.3105 0.4138 0
M  V30 20 H -2.8144 1.5541 0.5733 0
M  V30 21 H -2.8668 0.5175 -0.8595 0
M  V30 22 H -2.2653 2.1622 -0.9971 0
M  V30 23 H 1.8027 0.8983 2.3887 0
M  V30 24 H 2.5252 -0.1618 1.157 0
M  V30 25 H -2.7537 -1.194 0.6488 0
M  V30 26 H -1.4039 -0.466 -2.6613 0
M  V30 27 H 3.2973 1.0124 -1.7649 0
M  V30 28 H 1.5585 -1.8078 3.0493 0
M  V30 29 H -2.4551 -3.069 2.2032 0
M  V30 30 H 0.3711 -0.7884 -4.373 0
M  V30 31 H 2.6963 -0.0598 -3.932 0
M  V30 32 H -0.3123 -3.3852 3.4036 0
M  V30 END ATOM
M  V30 BEGIN BOND
M  V30 1 1 1 2
M  V30 2 1 1 3
M  V30 3 1 2 4
M  V30 4 1 2 5
M  V30 5 1 2 6
M  V30 6 1 3 7
M  V30 7 1 3 8
M  V30 8 2 4 9
M  V30 9 1 4 10
M  V30 10 1 5 11
M  V30 11 1 7 12
M  V30 12 1 9 13
M  V30 13 2 10 14
M  V30 14 2 11 15
M  V30 15 2 12 16
M  V30 16 2 13 17
M  V30 17 2 5 7
M  V30 18 1 8 9
M  V30 19 1 14 17
M  V30 20 1 15 16
M  V30 21 1 1 18
M  V30 22 1 3 19
M  V30 23 1 6 20
M  V30 24 1 6 21
M  V30 25 1 6 22
M  V30 26 1 8 23
M  V30 27 1 8 24
M  V30 28 1 10 25
M  V30 29 1 11 26
M  V30 30 1 12 27
M  V30 31 1 13 28
M  V30 32 1 14 29
M  V30 33 1 15 30
M  V30 34 1 16 31
M  V30 35 1 17 32
M  V30 END BOND
M  V30 END CTAB
M  END
>  <Column 1>
878

>  <level_0>
1006

>  <index>
1006

>  <Unnamed: 0>
1006

>  <NO.>
1018

>  <Name>
77086-21-6

>  <IUPAC_name>
1-methyl-16-azatetracyclo[7.6.1.02-7.010-15]hexadeca-2-4-6-10-12-14-hexaene

>  <SMILES>
CC12NC(Cc3ccccc31)c1ccccc12

>  <CID>
1207

>  <logBB>
1.11

>  <BBB+/BBB->
BBB+

>  <Inchi>
InChI=1S/C16H15N/c1-16-13-8-4-2-6-11(13)10-15(17-16)12-7-3-5-9-14(12)16/h2-9-15-17H-10H2-1H3

>  <threshold>


>  <reference>
R2|R2|R25|R27|R46|R4|R40|

>  <group>
A

>  <Class>
1

>  <ABC>
14.06

>  <ABCGG>
11.38

>  <nAcid>
0

>  <nBase>
1

>  <nAromAtom>
12

>  <nAromBond>
12

>  <nAtom>
32

>  <nHeavyAtom>
17

>  <nSpiro>
0

>  <nBridgehead>
2

>  <nHetero>
1

>  <nN>
1

>  <nO>
0

>  <nF>
0

>  <BalabanJ>
1.69

>  <BertzCT>
588.98

>  <nBonds>
35

>  <nBondsO>
20

>  <nBondsS>
23

>  <nBondsD>
0

>  <nBondsT>
0

>  <nBondsA>
12

>  <nBondsM>
12

>  <nBondsKS>
29

>  <nBondsKD>
6

>  <RNCG>
0.32

>  <RPCG>
0.13

>  <FCSP3>
0.25

>  <SZ>
19.67

>  <Sm>
18.43

>  <Sv>
20.82

>  <Sse>
31.32

>  <Sp>
22.65

>  <Si>
35.41

>  <MZ>
0.61

>  <Mm>
0.58

>  <Mv>
0.65

>  <Mse>
0.98

>  <Mp>
0.71

>  <Mi>
1.11

>  <NsCH3>
1

>  <NdCH2>
0

>  <NssCH2>
1

>  <NtCH>
0

>  <NdsCH>
0

>  <NaaCH>
8

>  <NsssCH>
1

>  <NddC>
0

>  <NtsC>
0

>  <NdssC>
0

>  <NaasC>
4

>  <NaaaC>
0

>  <NssssC>
1

>  <NsNH3>
0

>  <NsNH2>
0

>  <NssNH2>
0

>  <NdNH>
0

>  <NssNH>
1

>  <NaaNH>
0

>  <NtN>
0

>  <NsssNH>
0

>  <NdsN>
0

>  <NaaN>
0

>  <NsssN>
0

>  <NddsN>
0

>  <NaasN>
0

>  <NssssN>
0

>  <NsOH>
0

>  <NdO>
0

>  <NssO>
0

>  <NaaO>
0

>  <NsF>
0

>  <NsSiH3>
0

>  <NssSiH2>
0

>  <NsssSiH>
0

>  <NssssSi>
0

>  <NsPH2>
0

>  <NssPH>
0

>  <NsssP>
0

>  <NdsssP>
0

>  <NsssssP>
0

>  <NsSH>
0

>  <NdS>
0

>  <NssS>
0

>  <NaaS>
0

>  <NdssS>
0

>  <NddssS>
0

>  <NsCl>
0

>  <NsBr>
0

>  <NsI>
0

>  <fragCpx>
128.01

>  <fMF>
0.5

>  <nHBAcc>
1

>  <nHBDon>
1

>  <Kier1>
10.88

>  <Kier2>
3.75

>  <Lipinski>
1

>  <GhoseFilter>
1

>  <FilterItLogS>
-4.73

>  <VMcGowan>
177.04

>  <LabuteASA>
101.49

>  <PEOE_VSA1>
0

>  <PEOE_VSA2>
5.32

>  <PEOE_VSA3>
0

>  <PEOE_VSA4>
0

>  <PEOE_VSA5>
0

>  <PEOE_VSA6>
48.53

>  <PEOE_VSA7>
35.6

>  <PEOE_VSA8>
6.04

>  <PEOE_VSA9>
5.54

>  <PEOE_VSA10>
0

>  <PEOE_VSA11>
0

>  <PEOE_VSA12>
0

>  <PEOE_VSA13>
0

>  <SMR_VSA1>
0

>  <SMR_VSA2>
0

>  <SMR_VSA3>
5.32

>  <SMR_VSA4>
0

>  <SMR_VSA5>
24.93

>  <SMR_VSA6>
0

>  <SMR_VSA7>
70.78

>  <SMR_VSA8>
0

>  <SMR_VSA9>
0

>  <SlogP_VSA1>
5.32

>  <SlogP_VSA2>
0

>  <SlogP_VSA3>
11.96

>  <SlogP_VSA4>
0

>  <SlogP_VSA5>
35.22

>  <SlogP_VSA6>
48.53

>  <SlogP_VSA7>
0

>  <SlogP_VSA8>
0

>  <SlogP_VSA9>
0

>  <SlogP_VSA10>
0

>  <SlogP_VSA11>
0

>  <EState_VSA1>
0

>  <EState_VSA2>
5.54

>  <EState_VSA3>
6.04

>  <EState_VSA4>
6.42

>  <EState_VSA5>
22.25

>  <EState_VSA6>
0

>  <EState_VSA7>
0

>  <EState_VSA8>
60.77

>  <EState_VSA9>
0

>  <EState_VSA10>
0

>  <VSA_EState1>
0

>  <VSA_EState2>
0

>  <VSA_EState3>
3.79

>  <VSA_EState4>
5.88

>  <VSA_EState5>
0

>  <VSA_EState6>
18.16

>  <VSA_EState7>
1.11

>  <VSA_EState8>
2.31

>  <VSA_EState9>
0

>  <apol>
37.82

>  <bpol>
15.62

>  <nRing>
4

>  <nHRing>
2

>  <naRing>
2

>  <naHRing>
0

>  <nARing 2>
2

>  <nAHRing 2>
2

>  <nFRing>
1

>  <nFHRing>
1

>  <nFaRing>
0

>  <nFaHRing>
0

>  <nFARing 2>
1

>  <nFAHRing 2>
1

>  <nRot>
0

>  <SLogP>
3.15

>  <SMR>
68.92

>  <TopoPSA(NO)>
12.03

>  <TopoPSA>
12.03

>  <JGI1>
0.18

>  <JGI2>
0.09

>  <JGI3>
0.07

>  <JGI4>
0.04

>  <JGI5>
0.02

>  <Diameter>
7

>  <Radius>
4

>  <TMWC10>
112.79

>  <TSRW10>
66.11

>  <MW>
221.12

>  <AMW>
6.91

>  <WPath>
428

>  <WPol>
33

>  <Zagreb1>
102

>  <Zagreb2>
129

>  <mZagreb2>
3.54

>  <yes>


>  <nAR-cont>
1

>  <nHA-cont>
0.976740822

>  <MWHBN>
0.134498048

>  <MWHBN-cont>
0.885652377

>  <TPSA-cont>
0.91602313

>  <pka_cont>
0.97

>  <yes.1>


>  <BBB_SCORE>
5.622265647

>  <MMFF94 Energy>
76.909

$$$$
Compound 734
Actelion Java MolfileCreator 2.0

  0  0  0  0  0  0              0 V3000
M  V30 BEGIN CTAB
M  V30 COUNTS 14 14 0 0 0
M  V30 BEGIN ATOM
M  V30 1 O -0.3967 1.667 2.9385 0
M  V30 2 C 0.0378 1.0013 2.0138 0
M  V30 3 O -0.6169 0.7308 0.8422 0
M  V30 4 C 1.3598 0.374 2.0156 0
M  V30 5 C 0.2642 -0.0515 0.1099 0
M  V30 6 C 1.4627 -0.2528 0.8515 0
M  V30 7 C 0.0174 -0.5404 -1.1107 0
M  V30 8 C -1.2421 -0.2953 -1.8228 0
M  V30 9 O -2.209 0.3431 -1.4622 0
M  V30 10 O -1.2053 -0.907 -3.0195 0
M  V30 11 H 2.0606 0.4436 2.8265 0
M  V30 12 H 2.3159 -0.8237 0.5183 0
M  V30 13 H 0.7484 -1.1467 -1.6323 0
M  V30 14 H -2.0765 -0.6888 -3.4137 0
M  V30 END ATOM
M  V30 BEGIN BOND
M  V30 1 2 1 2
M  V30 2 1 2 3
M  V30 3 1 2 4
M  V30 4 1 3 5
M  V30 5 2 4 6
M  V30 6 2 5 7
M  V30 7 1 7 8
M  V30 8 2 8 9
M  V30 9 1 8 10
M  V30 10 1 5 6
M  V30 11 1 4 11
M  V30 12 1 6 12
M  V30 13 1 7 13
M  V30 14 1 10 14
M  V30 END BOND
M  V30 END CTAB
M  END
>  <Column 1>
879

>  <level_0>
1010

>  <index>
1010

>  <Unnamed: 0>
1010

>  <NO.>
1022

>  <Name>
4-carboxymethylenebut-2-en-4-olide

>  <IUPAC_name>
2-(5-oxofuran-2-ylidene)acetic acid

>  <SMILES>
O=C(O)C=C1C=CC(=O)O1

>  <CID>
120

>  <logBB>
1.11

>  <BBB+/BBB->
BBB+

>  <Inchi>
InChI=1S/C6H4O4/c7-5(8)3-4-1-2-6(9)10-4/h1-3H-(H-7-8)

>  <threshold>


>  <reference>
R8|

>  <group>
A

>  <Class>
1

>  <ABC>
7.4

>  <ABCGG>
7.31

>  <nAcid>
1

>  <nBase>
0

>  <nAromAtom>
0

>  <nAromBond>
0

>  <nAtom>
14

>  <nHeavyAtom>
10

>  <nSpiro>
0

>  <nBridgehead>
0

>  <nHetero>
4

>  <nN>
0

>  <nO>
4

>  <nF>
0

>  <BalabanJ>
2.18

>  <BertzCT>
236.13

>  <nBonds>
14

>  <nBondsO>
10

>  <nBondsS>
10

>  <nBondsD>
4

>  <nBondsT>
0

>  <nBondsA>
0

>  <nBondsM>
4

>  <nBondsKS>
10

>  <nBondsKD>
4

>  <RNCG>
0.34

>  <RPCG>
0.24

>  <FCSP3>
0

>  <SZ>
12

>  <Sm>
11.66

>  <Sv>
9.94

>  <Sse>
15.1

>  <Sp>
9.52

>  <Si>
15.67

>  <MZ>
0.86

>  <Mm>
0.83

>  <Mv>
0.71

>  <Mse>
1.08

>  <Mp>
0.68

>  <Mi>
1.12

>  <NsCH3>
0

>  <NdCH2>
0

>  <NssCH2>
0

>  <NtCH>
0

>  <NdsCH>
3

>  <NaaCH>
0

>  <NsssCH>
0

>  <NddC>
0

>  <NtsC>
0

>  <NdssC>
3

>  <NaasC>
0

>  <NaaaC>
0

>  <NssssC>
0

>  <NsNH3>
0

>  <NsNH2>
0

>  <NssNH2>
0

>  <NdNH>
0

>  <NssNH>
0

>  <NaaNH>
0

>  <NtN>
0

>  <NsssNH>
0

>  <NdsN>
0

>  <NaaN>
0

>  <NsssN>
0

>  <NddsN>
0

>  <NaasN>
0

>  <NssssN>
0

>  <NsOH>
1

>  <NdO>
2

>  <NssO>
1

>  <NaaO>
0

>  <NsF>
0

>  <NsSiH3>
0

>  <NssSiH2>
0

>  <NsssSiH>
0

>  <NssssSi>
0

>  <NsPH2>
0

>  <NssPH>
0

>  <NsssP>
0

>  <NdsssP>
0

>  <NsssssP>
0

>  <NsSH>
0

>  <NdS>
0

>  <NssS>
0

>  <NaaS>
0

>  <NdssS>
0

>  <NddssS>
0

>  <NsCl>
0

>  <NsBr>
0

>  <NsI>
0

>  <fragCpx>
10.04

>  <fMF>
0.36

>  <nHBAcc>
3

>  <nHBDon>
1

>  <Kier1>
8.1

>  <Kier2>
3.41

>  <Lipinski>
1

>  <GhoseFilter>
0

>  <FilterItLogS>
0.47

>  <VMcGowan>
90.82

>  <LabuteASA>
56.41

>  <PEOE_VSA1>
9.84

>  <PEOE_VSA2>
0

>  <PEOE_VSA3>
9.59

>  <PEOE_VSA4>
0

>  <PEOE_VSA5>
0

>  <PEOE_VSA6>
0

>  <PEOE_VSA7>
6.08

>  <PEOE_VSA8>
6.08

>  <PEOE_VSA9>
6.08

>  <PEOE_VSA10>
5.76

>  <PEOE_VSA11>
0

>  <PEOE_VSA12>
0

>  <PEOE_VSA13>
0

>  <SMR_VSA1>
19.43

>  <SMR_VSA2>
0

>  <SMR_VSA3>
0

>  <SMR_VSA4>
0

>  <SMR_VSA5>
0

>  <SMR_VSA6>
0

>  <SMR_VSA7>
23.99

>  <SMR_VSA8>
0

>  <SMR_VSA9>
0

>  <SlogP_VSA1>
0

>  <SlogP_VSA2>
17.05

>  <SlogP_VSA3>
14.33

>  <SlogP_VSA4>
0

>  <SlogP_VSA5>
0

>  <SlogP_VSA6>
23.99

>  <SlogP_VSA7>
0

>  <SlogP_VSA8>
0

>  <SlogP_VSA9>
0

>  <SlogP_VSA10>
0

>  <SlogP_VSA11>
0

>  <EState_VSA1>
11.94

>  <EState_VSA2>
5.76

>  <EState_VSA3>
0

>  <EState_VSA4>
12.15

>  <EState_VSA5>
6.08

>  <EState_VSA6>
0

>  <EState_VSA7>
0

>  <EState_VSA8>
4.74

>  <EState_VSA9>
5.11

>  <EState_VSA10>
9.59

>  <VSA_EState1>
4.4

>  <VSA_EState2>
20.25

>  <VSA_EState3>
8.16

>  <VSA_EState4>
0

>  <VSA_EState5>
-1.6

>  <VSA_EState6>
0

>  <VSA_EState7>
3.28

>  <VSA_EState8>
0

>  <VSA_EState9>
0

>  <apol>
15.9

>  <bpol>
7.48

>  <nRing>
1

>  <nHRing>
1

>  <naRing>
0

>  <naHRing>
0

>  <nARing 2>
1

>  <nAHRing 2>
1

>  <nFRing>
0

>  <nFHRing>
0

>  <nFaRing>
0

>  <nFaHRing>
0

>  <nFARing 2>
0

>  <nFAHRing 2>
0

>  <nRot>
1

>  <SLogP>
0.07

>  <SMR>
30.95

>  <TopoPSA(NO)>
63.6

>  <TopoPSA>
63.6

>  <JGI1>
0.3

>  <JGI2>
0.05

>  <JGI3>
0.1

>  <JGI4>
0.03

>  <JGI5>
0.05

>  <Diameter>
6

>  <Radius>
3

>  <TMWC10>
83.24

>  <TSRW10>
52.27

>  <MW>
140.01

>  <AMW>
10

>  <WPath>
125

>  <WPol>
8

>  <Zagreb1>
46

>  <Zagreb2>
49

>  <mZagreb2>
2.25

>  <yes>


>  <nAR-cont>
0.816016

>  <nHA-cont>
0.645914733

>  <MWHBN>
0.338049629

>  <MWHBN-cont>
0.714196419

>  <TPSA-cont>
0.556032507

>  <pka_cont>
0.97

>  <yes.1>


>  <BBB_SCORE>
4.130290376

>  <MMFF94 Energy>
-32.75

$$$$
Compound 735
Actelion Java MolfileCreator 2.0

  0  0  0  0  0  0              0 V3000
M  V30 BEGIN CTAB
M  V30 COUNTS 39 40 0 0 0
M  V30 BEGIN ATOM
M  V30 1 I 3.5479 -6.6198 1.4502 0
M  V30 2 C 2.2702 -5.0406 1.237 0
M  V30 3 C 2.086 -4.1172 2.1924 0
M  V30 4 C 1.1633 -2.929 2.1234 0
M  V30 5 N 0.6534 -2.6091 0.7819 0
M  V30 6 C 1.6656 -1.9002 -0.0185 0
M  V30 7 C -0.5863 -1.8232 0.8779 0
M  V30 8 C 1.1527 -1.6227 -1.4345 0
M  V30 9 C -1.1709 -1.5427 -0.5081 0
M  V30 10 C -0.168 -0.8437 -1.438 0
M  V30 11 C 0.0489 0.6347 -1.0686 0
M  V30 12 O -1.1978 1.3232 -1.1835 0
M  V30 13 C -1.2106 2.6555 -0.8801 0
M  V30 14 C -0.1079 3.425 -0.5075 0
M  V30 15 C -2.4681 3.2595 -0.9686 0
M  V30 16 C -0.2649 4.7873 -0.2234 0
M  V30 17 C -2.6293 4.6186 -0.6859 0
M  V30 18 C -1.5253 5.3873 -0.3113 0
M  V30 19 C -1.6818 6.7821 -0.0192 0
M  V30 20 N -1.8052 7.9114 0.2188 0
M  V30 21 H 1.729 -4.9852 0.2972 0
M  V30 22 H 2.6234 -4.2128 3.1337 0
M  V30 23 H 0.3275 -3.1671 2.795 0
M  V30 24 H 1.6667 -2.0565 2.5602 0
M  V30 25 H 2.5754 -2.5044 -0.1094 0
M  V30 26 H 1.9596 -0.9601 0.465 0
M  V30 27 H -0.416 -0.8835 1.4181 0
M  V30 28 H -1.3372 -2.3873 1.4451 0
M  V30 29 H 1.0016 -2.5803 -1.9505 0
M  V30 30 H 1.9168 -1.0808 -2.0041 0
M  V30 31 H -2.0895 -0.9533 -0.408 0
M  V30 32 H -1.4679 -2.4965 -0.9649 0
M  V30 33 H -0.5889 -0.8674 -2.452 0
M  V30 34 H 0.4314 0.7287 -0.0464 0
M  V30 35 H 0.7719 1.0724 -1.768 0
M  V30 36 H 0.8874 2.9999 -0.4306 0
M  V30 37 H -3.3307 2.6644 -1.261 0
M  V30 38 H 0.6049 5.3748 0.0654 0
M  V30 39 H -3.6184 5.0662 -0.7615 0
M  V30 END ATOM
M  V30 BEGIN BOND
M  V30 1 1 1 2
M  V30 2 2 2 3
M  V30 3 1 3 4
M  V30 4 1 4 5
M  V30 5 1 5 6
M  V30 6 1 5 7
M  V30 7 1 6 8
M  V30 8 1 7 9
M  V30 9 1 8 10
M  V30 10 1 10 11
M  V30 11 1 11 12
M  V30 12 1 12 13
M  V30 13 2 13 14
M  V30 14 1 13 15
M  V30 15 1 14 16
M  V30 16 2 15 17
M  V30 17 2 16 18
M  V30 18 1 18 19
M  V30 19 3 19 20
M  V30 20 1 9 10
M  V30 21 1 17 18
M  V30 22 1 2 21
M  V30 23 1 3 22
M  V30 24 1 4 23
M  V30 25 1 4 24
M  V30 26 1 6 25
M  V30 27 1 6 26
M  V30 28 1 7 27
M  V30 29 1 7 28
M  V30 30 1 8 29
M  V30 31 1 8 30
M  V30 32 1 9 31
M  V30 33 1 9 32
M  V30 34 1 10 33
M  V30 35 1 11 34
M  V30 36 1 11 35
M  V30 37 1 14 36
M  V30 38 1 15 37
M  V30 39 1 16 38
M  V30 40 1 17 39
M  V30 END BOND
M  V30 END CTAB
M  END
>  <Column 1>
880

>  <level_0>
1011

>  <index>
1011

>  <Unnamed: 0>
1011

>  <NO.>
1023

>  <Name>
i-4 (44cyanophenoxymethylpiperidineniodoallyl)

>  <IUPAC_name>
4-[[1-[(e)-3-iodoprop-2-enyl]piperidin-4-yl]methoxy]benzonitrile

>  <SMILES>
N#Cc1ccc(OCC2CCN(C/C=C/I)CC2)cc1

>  <CID>
9864749

>  <logBB>
1.13

>  <BBB+/BBB->
BBB+

>  <Inchi>
InChI=1S/C16H19IN2O/c17-8-1-9-19-10-6-15(7-11-19)13-20-16-4-2-14(12-18)3-5-16/h1-5-8-15H-6-7-9-11-13H2/b8-1+

>  <threshold>


>  <reference>
R2|R2|R8|R21|R27|R43|R46|R47|R40|R25|R41|R38|

>  <group>
A

>  <Class>
1

>  <ABC>
14.85

>  <ABCGG>
11.38

>  <nAcid>
0

>  <nBase>
1

>  <nAromAtom>
6

>  <nAromBond>
6

>  <nAtom>
39

>  <nHeavyAtom>
20

>  <nSpiro>
0

>  <nBridgehead>
0

>  <nHetero>
4

>  <nN>
2

>  <nO>
1

>  <nF>
0

>  <BalabanJ>
1.55

>  <BertzCT>
470.25

>  <nBonds>
40

>  <nBondsO>
21

>  <nBondsS>
32

>  <nBondsD>
1

>  <nBondsT>
1

>  <nBondsA>
6

>  <nBondsM>
8

>  <nBondsKS>
35

>  <nBondsKD>
4

>  <RNCG>
0.37

>  <RPCG>
0.09

>  <FCSP3>
0.44

>  <SZ>
31.67

>  <Sm>
31.82

>  <Sv>
24.96

>  <Sse>
38.6

>  <Sp>
28.59

>  <Si>
43.66

>  <MZ>
0.81

>  <Mm>
0.82

>  <Mv>
0.64

>  <Mse>
0.99

>  <Mp>
0.73

>  <Mi>
1.12

>  <NsCH3>
0

>  <NdCH2>
0

>  <NssCH2>
6

>  <NtCH>
0

>  <NdsCH>
2

>  <NaaCH>
4

>  <NsssCH>
1

>  <NddC>
0

>  <NtsC>
1

>  <NdssC>
0

>  <NaasC>
2

>  <NaaaC>
0

>  <NssssC>
0

>  <NsNH3>
0

>  <NsNH2>
0

>  <NssNH2>
0

>  <NdNH>
0

>  <NssNH>
0

>  <NaaNH>
0

>  <NtN>
1

>  <NsssNH>
0

>  <NdsN>
0

>  <NaaN>
0

>  <NsssN>
1

>  <NddsN>
0

>  <NaasN>
0

>  <NssssN>
0

>  <NsOH>
0

>  <NdO>
0

>  <NssO>
1

>  <NaaO>
0

>  <NsF>
0

>  <NsSiH3>
0

>  <NssSiH2>
0

>  <NsssSiH>
0

>  <NssssSi>
0

>  <NsPH2>
0

>  <NssPH>
0

>  <NsssP>
0

>  <NdsssP>
0

>  <NsssssP>
0

>  <NsSH>
0

>  <NdS>
0

>  <NssS>
0

>  <NaaS>
0

>  <NdssS>
0

>  <NddssS>
0

>  <NsCl>
0

>  <NsBr>
0

>  <NsI>
1

>  <fragCpx>
61.04

>  <fMF>
0.36

>  <nHBAcc>
3

>  <nHBDon>
0

>  <Kier1>
16.37

>  <Kier2>
9.11

>  <Lipinski>
1

>  <GhoseFilter>
1

>  <FilterItLogS>
-3.9

>  <VMcGowan>
240.44

>  <LabuteASA>
133.91

>  <PEOE_VSA1>
4.74

>  <PEOE_VSA2>
4.9

>  <PEOE_VSA3>
0

>  <PEOE_VSA4>
5.26

>  <PEOE_VSA5>
0

>  <PEOE_VSA6>
28.67

>  <PEOE_VSA7>
60.2

>  <PEOE_VSA8>
6.54

>  <PEOE_VSA9>
18.24

>  <PEOE_VSA10>
5.75

>  <PEOE_VSA11>
0

>  <PEOE_VSA12>
0

>  <PEOE_VSA13>
0

>  <SMR_VSA1>
4.74

>  <SMR_VSA2>
5.26

>  <SMR_VSA3>
4.9

>  <SMR_VSA4>
5.92

>  <SMR_VSA5>
12.84

>  <SMR_VSA6>
26.24

>  <SMR_VSA7>
39.99

>  <SMR_VSA8>
0

>  <SMR_VSA9>
11.82

>  <SlogP_VSA1>
4.74

>  <SlogP_VSA2>
31.14

>  <SlogP_VSA3>
0

>  <SlogP_VSA4>
17.25

>  <SlogP_VSA5>
18.41

>  <SlogP_VSA6>
34.42

>  <SlogP_VSA7>
0

>  <SlogP_VSA8>
0

>  <SlogP_VSA9>
0

>  <SlogP_VSA10>
0

>  <SlogP_VSA11>
5.75

>  <EState_VSA1>
0

>  <EState_VSA2>
0

>  <EState_VSA3>
11.48

>  <EState_VSA4>
31.99

>  <EState_VSA5>
12.84

>  <EState_VSA6>
12.13

>  <EState_VSA7>
12.13

>  <EState_VSA8>
43.72

>  <EState_VSA9>
10

>  <EState_VSA10>
0

>  <VSA_EState1>
7.9

>  <VSA_EState2>
2.48

>  <VSA_EState3>
8.75

>  <VSA_EState4>
0.67

>  <VSA_EState5>
1.5

>  <VSA_EState6>
9.46

>  <VSA_EState7>
4.6

>  <VSA_EState8>
4.15

>  <VSA_EState9>
0

>  <apol>
47.74

>  <bpol>
26.76

>  <nRing>
2

>  <nHRing>
1

>  <naRing>
1

>  <naHRing>
0

>  <nARing 2>
1

>  <nAHRing 2>
1

>  <nFRing>
0

>  <nFHRing>
0

>  <nFaRing>
0

>  <nFaHRing>
0

>  <nFARing 2>
0

>  <nFAHRing 2>
0

>  <nRot>
5

>  <SLogP>
3.6

>  <SMR>
88.98

>  <TopoPSA(NO)>
36.26

>  <TopoPSA>
36.26

>  <JGI1>
0.17

>  <JGI2>
0.06

>  <JGI3>
0.01

>  <JGI4>
0.04

>  <JGI5>
0.02

>  <Diameter>
15

>  <Radius>
8

>  <TMWC10>
111.01

>  <TSRW10>
52.58

>  <MW>
382.05

>  <AMW>
9.8

>  <WPath>
1018

>  <WPol>
25

>  <Zagreb1>
94

>  <Zagreb2>
104

>  <mZagreb2>
4.75

>  <yes>


>  <nAR-cont>
0.816016

>  <nHA-cont>
0.999629945

>  <MWHBN>
0.153483309

>  <MWHBN-cont>
0.941233678

>  <TPSA-cont>
0.746882684

>  <pka_cont>
0.97

>  <yes.1>


>  <BBB_SCORE>
5.206261829

>  <MMFF94 Energy>
28.952

$$$$
Compound 736
Actelion Java MolfileCreator 2.0

  0  0  0  0  0  0              0 V3000
M  V30 BEGIN CTAB
M  V30 COUNTS 44 44 0 0 0
M  V30 BEGIN ATOM
M  V30 1 O -0.4668 -1.7904 -0.7003 0
M  V30 2 C 0.5287 -1.8419 0.2359 0
M  V30 3 C -1.3719 -0.6787 -0.6268 0
M  V30 4 C 0.7246 -0.9368 1.2779 0
M  V30 5 C 1.4058 -2.9195 0.0961 0
M  V30 6 C -2.3838 -0.8346 -1.7691 0 CFG=1
M  V30 7 C 1.7889 -1.1108 2.1694 0
M  V30 8 C 2.4698 -3.0948 0.9846 0
M  V30 9 O -3.0731 -2.0863 -1.6051 0
M  V30 10 C -3.4353 0.2909 -1.8109 0
M  V30 11 C 2.67 -2.1907 2.0334 0
M  V30 12 N -2.8614 1.6225 -2.052 0
M  V30 13 C 3.8234 -2.3662 2.9951 0
M  V30 14 C -3.8946 2.6534 -2.2422 0
M  V30 15 C 4.9809 -1.4065 2.7118 0
M  V30 16 C -3.25 4.0296 -2.0489 0
M  V30 17 C -4.5177 2.5756 -3.6372 0
M  V30 18 O 4.6689 -0.1061 3.2202 0
M  V30 19 C 5.6978 0.8299 2.9282 0
M  V30 20 H -0.8146 0.2578 -0.7356 0
M  V30 21 H -1.9 -0.7073 0.3339 0
M  V30 22 H 0.0728 -0.0836 1.4302 0
M  V30 23 H 1.2616 -3.63 -0.7139 0
M  V30 24 H -1.8565 -0.8933 -2.7287 0
M  V30 25 H 1.9333 -0.3911 2.9739 0
M  V30 26 H 3.1369 -3.9425 0.8487 0
M  V30 27 H -2.3732 -2.753 -1.4646 0
M  V30 28 H -4.1552 0.0314 -2.5954 0
M  V30 29 H -4.0012 0.2915 -0.8701 0
M  V30 30 H -2.285 1.8853 -1.2534 0
M  V30 31 H 4.1899 -3.3977 2.9254 0
M  V30 32 H 3.4526 -2.2306 4.0187 0
M  V30 33 H -4.6799 2.546 -1.4835 0
M  V30 34 H 5.8771 -1.7682 3.229 0
M  V30 35 H 5.1922 -1.35 1.6372 0
M  V30 36 H -2.4469 4.2037 -2.774 0
M  V30 37 H -2.8264 4.1287 -1.043 0
M  V30 38 H -3.9928 4.8254 -2.1721 0
M  V30 39 H -5.0729 1.6445 -3.7847 0
M  V30 40 H -3.7539 2.6426 -4.4202 0
M  V30 41 H -5.224 3.3993 -3.7897 0
M  V30 42 H 5.4114 1.798 3.3477 0
M  V30 43 H 5.8189 0.9403 1.8464 0
M  V30 44 H 6.642 0.5166 3.384 0
M  V30 END ATOM
M  V30 BEGIN BOND
M  V30 1 1 1 2
M  V30 2 1 1 3
M  V30 3 2 2 4
M  V30 4 1 2 5
M  V30 5 1 3 6
M  V30 6 1 4 7
M  V30 7 2 5 8
M  V30 8 1 6 9
M  V30 9 1 6 10
M  V30 10 2 7 11
M  V30 11 1 10 12
M  V30 12 1 11 13
M  V30 13 1 12 14
M  V30 14 1 13 15
M  V30 15 1 14 16
M  V30 16 1 14 17
M  V30 17 1 15 18
M  V30 18 1 18 19
M  V30 19 1 8 11
M  V30 20 1 3 20
M  V30 21 1 3 21
M  V30 22 1 4 22
M  V30 23 1 5 23
M  V30 24 1 6 24
M  V30 25 1 7 25
M  V30 26 1 8 26
M  V30 27 1 9 27
M  V30 28 1 10 28
M  V30 29 1 10 29
M  V30 30 1 12 30
M  V30 31 1 13 31
M  V30 32 1 13 32
M  V30 33 1 14 33
M  V30 34 1 15 34
M  V30 35 1 15 35
M  V30 36 1 16 36
M  V30 37 1 16 37
M  V30 38 1 16 38
M  V30 39 1 17 39
M  V30 40 1 17 40
M  V30 41 1 17 41
M  V30 42 1 19 42
M  V30 43 1 19 43
M  V30 44 1 19 44
M  V30 END BOND
M  V30 BEGIN COLLECTION
M  V30 MDLV30/STERAC1 ATOMS=(1 6)
M  V30 END COLLECTION
M  V30 END CTAB
M  END
>  <Column 1>
882

>  <level_0>
1014

>  <index>
1014

>  <Unnamed: 0>
1014

>  <NO.>
1026

>  <Name>
metoprolol

>  <IUPAC_name>
1-[4-(2-methoxyethyl)phenoxy]-3-(propan-2-ylamino)propan-2-ol

>  <SMILES>
COCCc1ccc(OCC(O)CNC(C)C)cc1

>  <CID>
4171

>  <logBB>
1.15

>  <BBB+/BBB->
BBB+

>  <Inchi>
InChI=1S/C15H25NO3/c1-12(2)16-10-14(17)11-19-15-6-4-13(5-7-15)8-9-18-3/h4-7-12-14-16-17H-8-11H2-1-3H3

>  <threshold>


>  <reference>
R2|R2|R4|R8|R21|R25|R27|R27|R43|R47|R40|

>  <group>
A

>  <Class>
1

>  <ABC>
13.76

>  <ABCGG>
11.37

>  <nAcid>
0

>  <nBase>
1

>  <nAromAtom>
6

>  <nAromBond>
6

>  <nAtom>
44

>  <nHeavyAtom>
19

>  <nSpiro>
0

>  <nBridgehead>
0

>  <nHetero>
4

>  <nN>
1

>  <nO>
3

>  <nF>
0

>  <BalabanJ>
2.05

>  <BertzCT>
337.75

>  <nBonds>
44

>  <nBondsO>
19

>  <nBondsS>
38

>  <nBondsD>
0

>  <nBondsT>
0

>  <nBondsA>
6

>  <nBondsM>
6

>  <nBondsKS>
41

>  <nBondsKD>
3

>  <RNCG>
0.26

>  <RPCG>
0.11

>  <FCSP3>
0.6

>  <SZ>
24.33

>  <Sm>
22.26

>  <Sv>
24.68

>  <Sse>
43.75

>  <Sp>
27.08

>  <Si>
50.11

>  <MZ>
0.55

>  <Mm>
0.51

>  <Mv>
0.56

>  <Mse>
0.99

>  <Mp>
0.62

>  <Mi>
1.14

>  <NsCH3>
3

>  <NdCH2>
0

>  <NssCH2>
4

>  <NtCH>
0

>  <NdsCH>
0

>  <NaaCH>
4

>  <NsssCH>
2

>  <NddC>
0

>  <NtsC>
0

>  <NdssC>
0

>  <NaasC>
2

>  <NaaaC>
0

>  <NssssC>
0

>  <NsNH3>
0

>  <NsNH2>
0

>  <NssNH2>
0

>  <NdNH>
0

>  <NssNH>
1

>  <NaaNH>
0

>  <NtN>
0

>  <NsssNH>
0

>  <NdsN>
0

>  <NaaN>
0

>  <NsssN>
0

>  <NddsN>
0

>  <NaasN>
0

>  <NssssN>
0

>  <NsOH>
1

>  <NdO>
0

>  <NssO>
2

>  <NaaO>
0

>  <NsF>
0

>  <NsSiH3>
0

>  <NssSiH2>
0

>  <NsssSiH>
0

>  <NssssSi>
0

>  <NsPH2>
0

>  <NssPH>
0

>  <NsssP>
0

>  <NdsssP>
0

>  <NsssssP>
0

>  <NsSH>
0

>  <NdS>
0

>  <NssS>
0

>  <NaaS>
0

>  <NdssS>
0

>  <NddssS>
0

>  <NsCl>
0

>  <NsBr>
0

>  <NsI>
0

>  <fragCpx>
19.04

>  <fMF>
0.14

>  <nHBAcc>
4

>  <nHBDon>
2

>  <Kier1>
17.05

>  <Kier2>
9.83

>  <Lipinski>
1

>  <GhoseFilter>
1

>  <FilterItLogS>
-3.63

>  <VMcGowan>
226.04

>  <LabuteASA>
115.29

>  <PEOE_VSA1>
19.9

>  <PEOE_VSA2>
0

>  <PEOE_VSA3>
0

>  <PEOE_VSA4>
0

>  <PEOE_VSA5>
0

>  <PEOE_VSA6>
25.98

>  <PEOE_VSA7>
24.12

>  <PEOE_VSA8>
19.7

>  <PEOE_VSA9>
6.61

>  <PEOE_VSA10>
18.46

>  <PEOE_VSA11>
0

>  <PEOE_VSA12>
0

>  <PEOE_VSA13>
0

>  <SMR_VSA1>
14.58

>  <SMR_VSA2>
0

>  <SMR_VSA3>
5.32

>  <SMR_VSA4>
0

>  <SMR_VSA5>
32.41

>  <SMR_VSA6>
26.87

>  <SMR_VSA7>
29.83

>  <SMR_VSA8>
0

>  <SMR_VSA9>
5.75

>  <SlogP_VSA1>
10.05

>  <SlogP_VSA2>
44.12

>  <SlogP_VSA3>
11.16

>  <SlogP_VSA4>
0

>  <SlogP_VSA5>
19.41

>  <SlogP_VSA6>
24.27

>  <SlogP_VSA7>
0

>  <SlogP_VSA8>
0

>  <SlogP_VSA9>
0

>  <SlogP_VSA10>
0

>  <SlogP_VSA11>
5.75

>  <EState_VSA1>
6.1

>  <EState_VSA2>
0

>  <EState_VSA3>
19.19

>  <EState_VSA4>
18.78

>  <EState_VSA5>
5.56

>  <EState_VSA6>
7.11

>  <EState_VSA7>
38.11

>  <EState_VSA8>
5.32

>  <EState_VSA9>
9.47

>  <EState_VSA10>
5.11

>  <VSA_EState1>
10.57

>  <VSA_EState2>
0

>  <VSA_EState3>
12.9

>  <VSA_EState4>
1.22

>  <VSA_EState5>
0.78

>  <VSA_EState6>
8.26

>  <VSA_EState7>
0.41

>  <VSA_EState8>
5.67

>  <VSA_EState9>
1.7

>  <apol>
45.23

>  <bpol>
29.12

>  <nRing>
1

>  <nHRing>
0

>  <naRing>
1

>  <naHRing>
0

>  <nARing 2>
0

>  <nAHRing 2>
0

>  <nFRing>
0

>  <nFHRing>
0

>  <nFaRing>
0

>  <nFaHRing>
0

>  <nFARing 2>
0

>  <nFAHRing 2>
0

>  <nRot>
9

>  <SLogP>
1.61

>  <SMR>
76.66

>  <TopoPSA(NO)>
50.72

>  <TopoPSA>
50.72

>  <JGI1>
0.21

>  <JGI2>
0.07

>  <JGI3>
0.02

>  <JGI4>
0.04

>  <JGI5>
0.02

>  <Diameter>
14

>  <Radius>
7

>  <TMWC10>
106.01

>  <TSRW10>
50.7

>  <MW>
267.18

>  <AMW>
6.07

>  <WPath>
906

>  <WPol>
21

>  <Zagreb1>
84

>  <Zagreb2>
89

>  <mZagreb2>
4.5

>  <yes>


>  <nAR-cont>
0.336376

>  <nHA-cont>
0.998649058

>  <MWHBN>
0.367070326

>  <MWHBN-cont>
0.605222978

>  <TPSA-cont>
0.645942905

>  <pka_cont>
0.97

>  <yes.1>


>  <BBB_SCORE>
4.019745334

>  <MMFF94 Energy>
71.367

$$$$
Compound 737
Actelion Java MolfileCreator 2.0

  0  0  0  0  0  0              0 V3000
M  V30 BEGIN CTAB
M  V30 COUNTS 42 44 0 0 0
M  V30 BEGIN ATOM
M  V30 1 N 0.7112 -0.316 -0.237 0
M  V30 2 C 0.6218 -0.2675 -1.6498 0
M  V30 3 C 1.4948 0.4959 0.616 0
M  V30 4 C -0.3111 -1.1055 0.4958 0
M  V30 5 C 0.8274 0.8962 -2.4233 0
M  V30 6 C 0.3662 -1.4669 -2.3579 0
M  V30 7 C 1.4639 1.8952 0.5534 0
M  V30 8 C 2.3283 -0.1085 1.5757 0
M  V30 9 C -1.6762 -0.4065 0.4728 0
M  V30 10 C 0.7742 0.8165 -3.8373 0
M  V30 11 C 1.1247 2.2754 -1.8731 0
M  V30 12 C 0.2984 -1.525 -3.7526 0
M  V30 13 C 2.2346 2.6589 1.448 0
M  V30 14 C 0.6099 2.5802 -0.4736 0
M  V30 15 C 3.0962 0.6525 2.4586 0
M  V30 16 C -2.8077 -1.2749 1.0302 0
M  V30 17 C 0.5033 -0.3775 -4.4959 0
M  V30 18 C 3.045 2.0395 2.397 0
M  V30 19 N -2.6638 -1.5282 2.4641 0
M  V30 20 C -3.8079 -2.2681 2.9824 0
M  V30 21 H -0.0158 -1.2623 1.5409 0
M  V30 22 H -0.4004 -2.1175 0.0888 0
M  V30 23 H 0.2622 -2.4085 -1.8273 0
M  V30 24 H 2.3935 -1.1926 1.624 0
M  V30 25 H -1.9402 -0.1365 -0.5569 0
M  V30 26 H -1.6208 0.536 1.032 0
M  V30 27 H 0.9465 1.7091 -4.437 0
M  V30 28 H 2.2088 2.4407 -1.9306 0
M  V30 29 H 0.6571 3.0129 -2.54 0
M  V30 30 H 0.1078 -2.4724 -4.2486 0
M  V30 31 H 2.2094 3.7453 1.4047 0
M  V30 32 H -0.4405 2.2909 -0.3527 0
M  V30 33 H 0.6462 3.6657 -0.316 0
M  V30 34 H 3.7337 0.1604 3.1874 0
M  V30 35 H -2.8496 -2.2219 0.4784 0
M  V30 36 H -3.7522 -0.7472 0.849 0
M  V30 37 H 0.4663 -0.4092 -5.5808 0
M  V30 38 H 3.6393 2.6391 3.081 0
M  V30 39 H -1.8157 -2.0604 2.6509 0
M  V30 40 H -3.9065 -3.2446 2.4974 0
M  V30 41 H -4.7376 -1.7054 2.8494 0
M  V30 42 H -3.6766 -2.4364 4.0558 0
M  V30 END ATOM
M  V30 BEGIN BOND
M  V30 1 1 1 2
M  V30 2 1 1 3
M  V30 3 1 1 4
M  V30 4 2 2 5
M  V30 5 1 2 6
M  V30 6 2 3 7
M  V30 7 1 3 8
M  V30 8 1 4 9
M  V30 9 1 5 10
M  V30 10 1 5 11
M  V30 11 2 6 12
M  V30 12 1 7 13
M  V30 13 1 7 14
M  V30 14 2 8 15
M  V30 15 1 9 16
M  V30 16 2 10 17
M  V30 17 2 13 18
M  V30 18 1 16 19
M  V30 19 1 19 20
M  V30 20 1 11 14
M  V30 21 1 12 17
M  V30 22 1 15 18
M  V30 23 1 4 21
M  V30 24 1 4 22
M  V30 25 1 6 23
M  V30 26 1 8 24
M  V30 27 1 9 25
M  V30 28 1 9 26
M  V30 29 1 10 27
M  V30 30 1 11 28
M  V30 31 1 11 29
M  V30 32 1 12 30
M  V30 33 1 13 31
M  V30 34 1 14 32
M  V30 35 1 14 33
M  V30 36 1 15 34
M  V30 37 1 16 35
M  V30 38 1 16 36
M  V30 39 1 17 37
M  V30 40 1 18 38
M  V30 41 1 19 39
M  V30 42 1 20 40
M  V30 43 1 20 41
M  V30 44 1 20 42
M  V30 END BOND
M  V30 END CTAB
M  END
>  <Column 1>
884

>  <level_0>
1016

>  <index>
1016

>  <Unnamed: 0>
1016

>  <NO.>
1028

>  <Name>
2qju

>  <IUPAC_name>
3-(5-6-dihydrobenzo[b][1]benzazepin-11-yl)propyl-methylazanium

>  <SMILES>
CNCCCN1c2ccccc2CCc2ccccc21

>  <CID>
2995

>  <logBB>
1.2

>  <BBB+/BBB->
BBB+

>  <Inchi>
InChI=1S/C18H22N2/c1-19-13-6-14-20-17-9-4-2-7-15(17)11-12-16-8-3-5-10-18(16)20/h2-5-7-10-19H-6-11-14H2-1H3

>  <threshold>


>  <reference>
R4|R3|R38|R41|R43|R47|R49|R40|R8|R21|R27|R2|R2|R27|R12|R17|R18|R25|R26|R27|R35|R36|R42|R44|R46|R48|R49|R49|

>  <group>
A

>  <Class>
1

>  <ABC>
15.39

>  <ABCGG>
12.44

>  <nAcid>
0

>  <nBase>
1

>  <nAromAtom>
12

>  <nAromBond>
12

>  <nAtom>
42

>  <nHeavyAtom>
20

>  <nSpiro>
0

>  <nBridgehead>
0

>  <nHetero>
2

>  <nN>
2

>  <nO>
0

>  <nF>
0

>  <BalabanJ>
1.73

>  <BertzCT>
529.64

>  <nBonds>
44

>  <nBondsO>
22

>  <nBondsS>
32

>  <nBondsD>
0

>  <nBondsT>
0

>  <nBondsA>
12

>  <nBondsM>
12

>  <nBondsKS>
38

>  <nBondsKD>
6

>  <RNCG>
0.28

>  <RPCG>
0.1

>  <FCSP3>
0.33

>  <SZ>
24

>  <Sm>
22.18

>  <Sv>
25.48

>  <Sse>
41.09

>  <Sp>
28.1

>  <Si>
47.15

>  <MZ>
0.57

>  <Mm>
0.53

>  <Mv>
0.61

>  <Mse>
0.98

>  <Mp>
0.67

>  <Mi>
1.12

>  <NsCH3>
1

>  <NdCH2>
0

>  <NssCH2>
5

>  <NtCH>
0

>  <NdsCH>
0

>  <NaaCH>
8

>  <NsssCH>
0

>  <NddC>
0

>  <NtsC>
0

>  <NdssC>
0

>  <NaasC>
4

>  <NaaaC>
0

>  <NssssC>
0

>  <NsNH3>
0

>  <NsNH2>
0

>  <NssNH2>
0

>  <NdNH>
0

>  <NssNH>
1

>  <NaaNH>
0

>  <NtN>
0

>  <NsssNH>
0

>  <NdsN>
0

>  <NaaN>
0

>  <NsssN>
1

>  <NddsN>
0

>  <NaasN>
0

>  <NssssN>
0

>  <NsOH>
0

>  <NdO>
0

>  <NssO>
0

>  <NaaO>
0

>  <NsF>
0

>  <NsSiH3>
0

>  <NssSiH2>
0

>  <NsssSiH>
0

>  <NssssSi>
0

>  <NsPH2>
0

>  <NssPH>
0

>  <NsssP>
0

>  <NdsssP>
0

>  <NsssssP>
0

>  <NsSH>
0

>  <NdS>
0

>  <NssS>
0

>  <NaaS>
0

>  <NdssS>
0

>  <NddssS>
0

>  <NsCl>
0

>  <NsBr>
0

>  <NsI>
0

>  <fragCpx>
104.02

>  <fMF>
0.36

>  <nHBAcc>
2

>  <nHBDon>
1

>  <Kier1>
14.92

>  <Kier2>
7.32

>  <Lipinski>
1

>  <GhoseFilter>
1

>  <FilterItLogS>
-5.25

>  <VMcGowan>
226.06

>  <LabuteASA>
120.98

>  <PEOE_VSA1>
10.22

>  <PEOE_VSA2>
0

>  <PEOE_VSA3>
0

>  <PEOE_VSA4>
0

>  <PEOE_VSA5>
0

>  <PEOE_VSA6>
36.4

>  <PEOE_VSA7>
56.11

>  <PEOE_VSA8>
17.92

>  <PEOE_VSA9>
0

>  <PEOE_VSA10>
0

>  <PEOE_VSA11>
0

>  <PEOE_VSA12>
0

>  <PEOE_VSA13>
0

>  <SMR_VSA1>
0

>  <SMR_VSA2>
0

>  <SMR_VSA3>
5.32

>  <SMR_VSA4>
0

>  <SMR_VSA5>
19.26

>  <SMR_VSA6>
25.04

>  <SMR_VSA7>
59.66

>  <SMR_VSA8>
0

>  <SMR_VSA9>
0

>  <SlogP_VSA1>
10.22

>  <SlogP_VSA2>
20.14

>  <SlogP_VSA3>
12.84

>  <SlogP_VSA4>
0

>  <SlogP_VSA5>
17.55

>  <SlogP_VSA6>
48.53

>  <SlogP_VSA7>
0

>  <SlogP_VSA8>
0

>  <SlogP_VSA9>
0

>  <SlogP_VSA10>
11.37

>  <SlogP_VSA11>
0

>  <EState_VSA1>
0

>  <EState_VSA2>
0

>  <EState_VSA3>
0

>  <EState_VSA4>
32.35

>  <EState_VSA5>
22.5

>  <EState_VSA6>
0

>  <EState_VSA7>
7.05

>  <EState_VSA8>
58.75

>  <EState_VSA9>
0

>  <EState_VSA10>
0

>  <VSA_EState1>
0

>  <VSA_EState2>
2.5

>  <VSA_EState3>
3.24

>  <VSA_EState4>
5.7

>  <VSA_EState5>
0

>  <VSA_EState6>
17.67

>  <VSA_EState7>
3.42

>  <VSA_EState8>
2.12

>  <VSA_EState9>
2.02

>  <apol>
46.93

>  <bpol>
24.35

>  <nRing>
3

>  <nHRing>
1

>  <naRing>
2

>  <naHRing>
0

>  <nARing 2>
1

>  <nAHRing 2>
1

>  <nFRing>
1

>  <nFHRing>
1

>  <nFaRing>
0

>  <nFaHRing>
0

>  <nFARing 2>
1

>  <nFAHRing 2>
1

>  <nRot>
4

>  <SLogP>
3.53

>  <SMR>
85.84

>  <TopoPSA(NO)>
15.27

>  <TopoPSA>
15.27

>  <JGI1>
0.09

>  <JGI2>
0.07

>  <JGI3>
0.04

>  <JGI4>
0.03

>  <JGI5>
0.02

>  <Diameter>
9

>  <Radius>
5

>  <TMWC10>
115.19

>  <TSRW10>
61.56

>  <MW>
266.18

>  <AMW>
6.34

>  <WPath>
759

>  <WPol>
34

>  <Zagreb1>
102

>  <Zagreb2>
120

>  <mZagreb2>
4.61

>  <yes>


>  <nAR-cont>
0.816016

>  <nHA-cont>
0.999629945

>  <MWHBN>
0.183879597

>  <MWHBN-cont>
0.991000965

>  <TPSA-cont>
0.893405918

>  <pka_cont>
0.97

>  <yes.1>


>  <BBB_SCORE>
5.573959228

>  <MMFF94 Energy>
58.209

$$$$
Compound 738
Actelion Java MolfileCreator 2.0

  0  0  0  0  0  0              0 V3000
M  V30 BEGIN CTAB
M  V30 COUNTS 42 43 0 0 0
M  V30 BEGIN ATOM
M  V30 1 N -0.5475 -0.2346 0.6258 0
M  V30 2 C -0.263 0.5854 1.7234 0
M  V30 3 C -1.7763 -0.5186 0.3021 0
M  V30 4 C -0.1298 1.9669 1.5564 0
M  V30 5 C -0.0444 0.0253 2.9833 0
M  V30 6 N -2.1391 -1.3171 -0.7671 0
M  V30 7 C -2.9557 0.0302 1.1052 0
M  V30 8 C 0.1759 2.7978 2.6442 0
M  V30 9 C 0.2664 0.8386 4.0732 0
M  V30 10 C -1.3449 -1.9953 -1.7131 0
M  V30 11 C 0.3739 2.2197 3.9047 0
M  V30 12 C 0.327 4.2841 2.4497 0
M  V30 13 C 0.0539 -1.9943 -1.7206 0
M  V30 14 C -1.9966 -2.7206 -2.7263 0
M  V30 15 C 1.7543 4.6653 2.0884 0
M  V30 16 C 0.7904 -2.6924 -2.6955 0
M  V30 17 C -1.2802 -3.4136 -3.7056 0
M  V30 18 C 0.1103 -3.3975 -3.6916 0
M  V30 19 C 2.2976 -2.6515 -2.6782 0
M  V30 20 C 2.8391 -1.4481 -3.4345 0
M  V30 21 H -0.2633 2.3893 0.5636 0
M  V30 22 H -0.1128 -1.0512 3.1094 0
M  V30 23 H -3.1302 -1.4523 -0.9137 0
M  V30 24 H -2.8905 -0.3087 2.1427 0
M  V30 25 H -3.9093 -0.3159 0.6965 0
M  V30 26 H -2.9513 1.1232 1.0731 0
M  V30 27 H 0.4342 0.3944 5.0504 0
M  V30 28 H 0.6255 2.842 4.7607 0
M  V30 29 H 0.0236 4.8087 3.3639 0
M  V30 30 H -0.358 4.6245 1.6638 0
M  V30 31 H 0.6081 -1.4473 -0.9636 0
M  V30 32 H -3.0824 -2.7528 -2.768 0
M  V30 33 H 1.8342 5.7486 1.954 0
M  V30 34 H 2.0706 4.1836 1.157 0
M  V30 35 H 2.4561 4.3683 2.8752 0
M  V30 36 H -1.8092 -3.9633 -4.4793 0
M  V30 37 H 0.6607 -3.9349 -4.4598 0
M  V30 38 H 2.6978 -3.5739 -3.116 0
M  V30 39 H 2.6534 -2.6297 -1.6409 0
M  V30 40 H 3.9333 -1.446 -3.4083 0
M  V30 41 H 2.4876 -0.5094 -2.9928 0
M  V30 42 H 2.5244 -1.4642 -4.4833 0
M  V30 END ATOM
M  V30 BEGIN BOND
M  V30 1 1 1 2
M  V30 2 2 1 3
M  V30 3 2 2 4
M  V30 4 1 2 5
M  V30 5 1 3 6
M  V30 6 1 3 7
M  V30 7 1 4 8
M  V30 8 2 5 9
M  V30 9 1 6 10
M  V30 10 2 8 11
M  V30 11 1 8 12
M  V30 12 2 10 13
M  V30 13 1 10 14
M  V30 14 1 12 15
M  V30 15 1 13 16
M  V30 16 2 14 17
M  V30 17 2 16 18
M  V30 18 1 16 19
M  V30 19 1 19 20
M  V30 20 1 9 11
M  V30 21 1 17 18
M  V30 22 1 4 21
M  V30 23 1 5 22
M  V30 24 1 6 23
M  V30 25 1 7 24
M  V30 26 1 7 25
M  V30 27 1 7 26
M  V30 28 1 9 27
M  V30 29 1 11 28
M  V30 30 1 12 29
M  V30 31 1 12 30
M  V30 32 1 13 31
M  V30 33 1 14 32
M  V30 34 1 15 33
M  V30 35 1 15 34
M  V30 36 1 15 35
M  V30 37 1 17 36
M  V30 38 1 18 37
M  V30 39 1 19 38
M  V30 40 1 19 39
M  V30 41 1 20 40
M  V30 42 1 20 41
M  V30 43 1 20 42
M  V30 END BOND
M  V30 END CTAB
M  END
>  <Column 1>
885

>  <level_0>
1017

>  <index>
1017

>  <Unnamed: 0>
1017

>  <NO.>
1029

>  <Name>
9-c17

>  <IUPAC_name>
n-n'-bis(3-ethylphenyl)ethanimidamide

>  <SMILES>
CCc1cccc(N=C(C)Nc2cccc(CC)c2)c1

>  <CID>
19427054

>  <logBB>
1.2

>  <BBB+/BBB->
BBB+

>  <Inchi>
InChI=1S/C18H22N2/c1-4-15-8-6-10-17(12-15)19-14(3)20-18-11-7-9-16(5-2)13-18/h6-13H-4-5H2-1-3H3-(H-19-20)

>  <threshold>


>  <reference>
R2|R2|R8|R27|R43|R47|R48|

>  <group>
A

>  <Class>
1

>  <ABC>
14.96

>  <ABCGG>
12.35

>  <nAcid>
0

>  <nBase>
2

>  <nAromAtom>
12

>  <nAromBond>
12

>  <nAtom>
42

>  <nHeavyAtom>
20

>  <nSpiro>
0

>  <nBridgehead>
0

>  <nHetero>
2

>  <nN>
2

>  <nO>
0

>  <nF>
0

>  <BalabanJ>
1.7

>  <BertzCT>
599.87

>  <nBonds>
43

>  <nBondsO>
21

>  <nBondsS>
30

>  <nBondsD>
1

>  <nBondsT>
0

>  <nBondsA>
12

>  <nBondsM>
13

>  <nBondsKS>
36

>  <nBondsKD>
7

>  <RNCG>
0.28

>  <RPCG>
0.13

>  <FCSP3>
0.28

>  <SZ>
24

>  <Sm>
22.18

>  <Sv>
25.48

>  <Sse>
41.09

>  <Sp>
28.1

>  <Si>
47.15

>  <MZ>
0.57

>  <Mm>
0.53

>  <Mv>
0.61

>  <Mse>
0.98

>  <Mp>
0.67

>  <Mi>
1.12

>  <NsCH3>
3

>  <NdCH2>
0

>  <NssCH2>
2

>  <NtCH>
0

>  <NdsCH>
0

>  <NaaCH>
8

>  <NsssCH>
0

>  <NddC>
0

>  <NtsC>
0

>  <NdssC>
1

>  <NaasC>
4

>  <NaaaC>
0

>  <NssssC>
0

>  <NsNH3>
0

>  <NsNH2>
0

>  <NssNH2>
0

>  <NdNH>
0

>  <NssNH>
1

>  <NaaNH>
0

>  <NtN>
0

>  <NsssNH>
0

>  <NdsN>
1

>  <NaaN>
0

>  <NsssN>
0

>  <NddsN>
0

>  <NaasN>
0

>  <NssssN>
0

>  <NsOH>
0

>  <NdO>
0

>  <NssO>
0

>  <NaaO>
0

>  <NsF>
0

>  <NsSiH3>
0

>  <NssSiH2>
0

>  <NsssSiH>
0

>  <NssssSi>
0

>  <NsPH2>
0

>  <NssPH>
0

>  <NsssP>
0

>  <NdsssP>
0

>  <NsssssP>
0

>  <NsSH>
0

>  <NdS>
0

>  <NssS>
0

>  <NaaS>
0

>  <NdssS>
0

>  <NddssS>
0

>  <NsCl>
0

>  <NsBr>
0

>  <NsI>
0

>  <fragCpx>
61.02

>  <fMF>
0.36

>  <nHBAcc>
1

>  <nHBDon>
1

>  <Kier1>
16.37

>  <Kier2>
8.44

>  <Lipinski>
1

>  <GhoseFilter>
1

>  <FilterItLogS>
-5.82

>  <VMcGowan>
232.62

>  <LabuteASA>
121.12

>  <PEOE_VSA1>
5.32

>  <PEOE_VSA2>
0

>  <PEOE_VSA3>
4.99

>  <PEOE_VSA4>
0

>  <PEOE_VSA5>
0

>  <PEOE_VSA6>
38.11

>  <PEOE_VSA7>
55.16

>  <PEOE_VSA8>
5.69

>  <PEOE_VSA9>
5.69

>  <PEOE_VSA10>
5.84

>  <PEOE_VSA11>
0

>  <PEOE_VSA12>
0

>  <PEOE_VSA13>
0

>  <SMR_VSA1>
0

>  <SMR_VSA2>
0

>  <SMR_VSA3>
0

>  <SMR_VSA4>
4.99

>  <SMR_VSA5>
33.61

>  <SMR_VSA6>
5.32

>  <SMR_VSA7>
59.66

>  <SMR_VSA8>
0

>  <SMR_VSA9>
0

>  <SlogP_VSA1>
5.32

>  <SlogP_VSA2>
5.84

>  <SlogP_VSA3>
12.84

>  <SlogP_VSA4>
0

>  <SlogP_VSA5>
31.9

>  <SlogP_VSA6>
53.52

>  <SlogP_VSA7>
0

>  <SlogP_VSA8>
0

>  <SlogP_VSA9>
0

>  <SlogP_VSA10>
11.37

>  <SlogP_VSA11>
0

>  <EState_VSA1>
0

>  <EState_VSA2>
0

>  <EState_VSA3>
0

>  <EState_VSA4>
30.05

>  <EState_VSA5>
11.13

>  <EState_VSA6>
0

>  <EState_VSA7>
12.99

>  <EState_VSA8>
66.62

>  <EState_VSA9>
0

>  <EState_VSA10>
0

>  <VSA_EState1>
0

>  <VSA_EState2>
4.62

>  <VSA_EState3>
3.35

>  <VSA_EState4>
4.74

>  <VSA_EState5>
0.91

>  <VSA_EState6>
16.81

>  <VSA_EState7>
2.08

>  <VSA_EState8>
6.32

>  <VSA_EState9>
0

>  <apol>
46.93

>  <bpol>
23.78

>  <nRing>
2

>  <nHRing>
0

>  <naRing>
2

>  <naHRing>
0

>  <nARing 2>
0

>  <nAHRing 2>
0

>  <nFRing>
0

>  <nFHRing>
0

>  <nFaRing>
0

>  <nFaHRing>
0

>  <nFARing 2>
0

>  <nFAHRing 2>
0

>  <nRot>
4

>  <SLogP>
4.97

>  <SMR>
88.03

>  <TopoPSA(NO)>
24.39

>  <TopoPSA>
24.39

>  <JGI1>
0.21

>  <JGI2>
0.04

>  <JGI3>
0.05

>  <JGI4>
0.03

>  <JGI5>
0.03

>  <Diameter>
12

>  <Radius>
6

>  <TMWC10>
111.65

>  <TSRW10>
52.81

>  <MW>
266.18

>  <AMW>
6.34

>  <WPath>
921

>  <WPol>
26

>  <Zagreb1>
96

>  <Zagreb2>
107

>  <mZagreb2>
4.67

>  <yes>


>  <nAR-cont>
0.336376

>  <nHA-cont>
0.999629945

>  <MWHBN>
0.122586398

>  <MWHBN-cont>
0.840328662

>  <TPSA-cont>
0.829742655

>  <pka_cont>
0.97

>  <yes.1>


>  <BBB_SCORE>
4.740984247

>  <MMFF94 Energy>
21.958

$$$$
Compound 739
Actelion Java MolfileCreator 2.0

  0  0  0  0  0  0              0 V3000
M  V30 BEGIN CTAB
M  V30 COUNTS 40 42 0 0 0
M  V30 BEGIN ATOM
M  V30 1 S -0.1607 1.1257 -3.2996 0
M  V30 2 C -1.5667 1.1881 -2.2079 0
M  V30 3 C 1.1519 1.7064 -2.2446 0
M  V30 4 C -1.4486 1.3471 -0.8135 0
M  V30 5 C -2.832 1.0519 -2.8065 0
M  V30 6 C 1.0214 1.8145 -0.8461 0
M  V30 7 C 2.3629 2.0402 -2.8768 0
M  V30 8 N -0.1824 1.4601 -0.1789 0
M  V30 9 C -2.6442 1.4305 -0.0702 0
M  V30 10 C -3.994 1.1046 -2.0416 0
M  V30 11 C 2.126 2.3228 -0.1321 0
M  V30 12 C 3.4466 2.5121 -2.1413 0
M  V30 13 C -0.0178 0.6824 1.0739 0
M  V30 14 C -3.9001 1.3048 -0.6722 0
M  V30 15 C 3.3245 2.6621 -0.7676 0
M  V30 16 C 0.3309 -0.7839 0.7751 0
M  V30 17 C 0.4066 -1.595 2.0746 0
M  V30 18 N 0.8959 -2.9701 1.8792 0
M  V30 19 C -0.0268 -3.7812 1.082 0
M  V30 20 C 1.1231 -3.6124 3.1767 0
M  V30 21 H -2.9168 0.9127 -3.8822 0
M  V30 22 H 2.4641 1.9388 -3.9552 0
M  V30 23 H -2.6218 1.6352 0.996 0
M  V30 24 H -4.9659 1.0065 -2.5176 0
M  V30 25 H 2.064 2.4979 0.9375 0
M  V30 26 H 4.3748 2.7721 -2.6424 0
M  V30 27 H -0.9186 0.7138 1.6952 0
M  V30 28 H 0.7516 1.115 1.7216 0
M  V30 29 H -4.801 1.3756 -0.0682 0
M  V30 30 H 4.156 3.0508 -0.1854 0
M  V30 31 H 1.2911 -0.839 0.2477 0
M  V30 32 H -0.428 -1.2067 0.1074 0
M  V30 33 H 1.097 -1.073 2.7503 0
M  V30 34 H -0.5754 -1.6004 2.5658 0
M  V30 35 H -0.1074 -3.4016 0.0588 0
M  V30 36 H -1.0298 -3.8179 1.5223 0
M  V30 37 H 0.3442 -4.8086 0.9911 0
M  V30 38 H 0.2012 -3.6944 3.764 0
M  V30 39 H 1.8578 -3.0492 3.7631 0
M  V30 40 H 1.5383 -4.6176 3.0424 0
M  V30 END ATOM
M  V30 BEGIN BOND
M  V30 1 1 1 2
M  V30 2 1 1 3
M  V30 3 2 2 4
M  V30 4 1 2 5
M  V30 5 2 3 6
M  V30 6 1 3 7
M  V30 7 1 4 8
M  V30 8 1 4 9
M  V30 9 2 5 10
M  V30 10 1 6 11
M  V30 11 2 7 12
M  V30 12 1 8 13
M  V30 13 2 9 14
M  V30 14 2 11 15
M  V30 15 1 13 16
M  V30 16 1 16 17
M  V30 17 1 17 18
M  V30 18 1 18 19
M  V30 19 1 18 20
M  V30 20 1 6 8
M  V30 21 1 10 14
M  V30 22 1 12 15
M  V30 23 1 5 21
M  V30 24 1 7 22
M  V30 25 1 9 23
M  V30 26 1 10 24
M  V30 27 1 11 25
M  V30 28 1 12 26
M  V30 29 1 13 27
M  V30 30 1 13 28
M  V30 31 1 14 29
M  V30 32 1 15 30
M  V30 33 1 16 31
M  V30 34 1 16 32
M  V30 35 1 17 33
M  V30 36 1 17 34
M  V30 37 1 19 35
M  V30 38 1 19 36
M  V30 39 1 19 37
M  V30 40 1 20 38
M  V30 41 1 20 39
M  V30 42 1 20 40
M  V30 END BOND
M  V30 END CTAB
M  END
>  <Column 1>
886

>  <level_0>
1018

>  <index>
1018

>  <Unnamed: 0>
1018

>  <NO.>
1030

>  <Name>
promazine

>  <IUPAC_name>
n-n-dimethyl-3-phenothiazin-10-ylpropan-1-amine

>  <SMILES>
CN(C)CCCN1c2ccccc2Sc2ccccc21

>  <CID>
4926

>  <logBB>
1.23

>  <BBB+/BBB->
BBB+

>  <Inchi>
InChI=1S/C17H20N2S/c1-18(2)12-7-13-19-14-8-3-5-10-16(14)20-17-11-6-4-9-15(17)19/h3-6-8-11H-7-12-13H2-1-2H3

>  <threshold>


>  <reference>
R3|R4|R50|R40|R38|R41|R8|R21|R27|R2|R2|R27|R3|R11|R12|R17|R18|R25|R26|R27|R31|R35|R36|R42|R43|R46|R47|R48|R49|R49|

>  <group>
A

>  <Class>
1

>  <ABC>
15.61

>  <ABCGG>
12.33

>  <nAcid>
0

>  <nBase>
1

>  <nAromAtom>
12

>  <nAromBond>
12

>  <nAtom>
40

>  <nHeavyAtom>
20

>  <nSpiro>
0

>  <nBridgehead>
0

>  <nHetero>
3

>  <nN>
2

>  <nO>
0

>  <nF>
0

>  <BalabanJ>
1.66

>  <BertzCT>
549.55

>  <nBonds>
42

>  <nBondsO>
22

>  <nBondsS>
30

>  <nBondsD>
0

>  <nBondsT>
0

>  <nBondsA>
12

>  <nBondsM>
12

>  <nBondsKS>
36

>  <nBondsKD>
6

>  <RNCG>
0.28

>  <RPCG>
0.05

>  <FCSP3>
0.29

>  <SZ>
25.33

>  <Sm>
23.68

>  <Sv>
25.12

>  <Sse>
39.28

>  <Sp>
28.04

>  <Si>
44.65

>  <MZ>
0.63

>  <Mm>
0.59

>  <Mv>
0.63

>  <Mse>
0.98

>  <Mp>
0.7

>  <Mi>
1.12

>  <NsCH3>
2

>  <NdCH2>
0

>  <NssCH2>
3

>  <NtCH>
0

>  <NdsCH>
0

>  <NaaCH>
8

>  <NsssCH>
0

>  <NddC>
0

>  <NtsC>
0

>  <NdssC>
0

>  <NaasC>
4

>  <NaaaC>
0

>  <NssssC>
0

>  <NsNH3>
0

>  <NsNH2>
0

>  <NssNH2>
0

>  <NdNH>
0

>  <NssNH>
0

>  <NaaNH>
0

>  <NtN>
0

>  <NsssNH>
0

>  <NdsN>
0

>  <NaaN>
0

>  <NsssN>
2

>  <NddsN>
0

>  <NaasN>
0

>  <NssssN>
0

>  <NsOH>
0

>  <NdO>
0

>  <NssO>
0

>  <NaaO>
0

>  <NsF>
0

>  <NsSiH3>
0

>  <NssSiH2>
0

>  <NsssSiH>
0

>  <NssssSi>
0

>  <NsPH2>
0

>  <NssPH>
0

>  <NsssP>
0

>  <NdsssP>
0

>  <NsssssP>
0

>  <NsSH>
0

>  <NdS>
0

>  <NssS>
1

>  <NaaS>
0

>  <NdssS>
0

>  <NddssS>
0

>  <NsCl>
0

>  <NsBr>
0

>  <NsI>
0

>  <fragCpx>
104.03

>  <fMF>
0.35

>  <nHBAcc>
3

>  <nHBDon>
0

>  <Kier1>
14.92

>  <Kier2>
6.84

>  <Lipinski>
1

>  <GhoseFilter>
1

>  <FilterItLogS>
-4.46

>  <VMcGowan>
228.32

>  <LabuteASA>
124.95

>  <PEOE_VSA1>
9.8

>  <PEOE_VSA2>
0

>  <PEOE_VSA3>
0

>  <PEOE_VSA4>
0

>  <PEOE_VSA5>
0

>  <PEOE_VSA6>
36.03

>  <PEOE_VSA7>
51.33

>  <PEOE_VSA8>
16.34

>  <PEOE_VSA9>
11.37

>  <PEOE_VSA10>
0

>  <PEOE_VSA11>
0

>  <PEOE_VSA12>
0

>  <PEOE_VSA13>
0

>  <SMR_VSA1>
0

>  <SMR_VSA2>
0

>  <SMR_VSA3>
4.9

>  <SMR_VSA4>
0

>  <SMR_VSA5>
16.21

>  <SMR_VSA6>
32.08

>  <SMR_VSA7>
48.53

>  <SMR_VSA8>
0

>  <SMR_VSA9>
0

>  <SlogP_VSA1>
4.9

>  <SlogP_VSA2>
32.08

>  <SlogP_VSA3>
0

>  <SlogP_VSA4>
0

>  <SlogP_VSA5>
6.42

>  <SlogP_VSA6>
58.32

>  <SlogP_VSA7>
0

>  <SlogP_VSA8>
0

>  <SlogP_VSA9>
0

>  <SlogP_VSA10>
11.37

>  <SlogP_VSA11>
0

>  <EState_VSA1>
0

>  <EState_VSA2>
0

>  <EState_VSA3>
0

>  <EState_VSA4>
13.09

>  <EState_VSA5>
27.59

>  <EState_VSA6>
0

>  <EState_VSA7>
11.76

>  <EState_VSA8>
72.43

>  <EState_VSA9>
0

>  <EState_VSA10>
0

>  <VSA_EState1>
0

>  <VSA_EState2>
7.42

>  <VSA_EState3>
0

>  <VSA_EState4>
2.69

>  <VSA_EState5>
0

>  <VSA_EState6>
17.4

>  <VSA_EState7>
1.17

>  <VSA_EState8>
2.18

>  <VSA_EState9>
4.27

>  <apol>
46.83

>  <bpol>
25.94

>  <nRing>
3

>  <nHRing>
1

>  <naRing>
2

>  <naHRing>
0

>  <nARing 2>
1

>  <nAHRing 2>
1

>  <nFRing>
1

>  <nFHRing>
1

>  <nFaRing>
0

>  <nFaHRing>
0

>  <nFARing 2>
1

>  <nFAHRing 2>
1

>  <nRot>
4

>  <SLogP>
4.24

>  <SMR>
87.18

>  <TopoPSA(NO)>
6.48

>  <TopoPSA>
31.78

>  <JGI1>
0.14

>  <JGI2>
0.07

>  <JGI3>
0.04

>  <JGI4>
0.04

>  <JGI5>
0.02

>  <Diameter>
9

>  <Radius>
5

>  <TMWC10>
115.53

>  <TSRW10>
53.75

>  <MW>
284.13

>  <AMW>
7.1

>  <WPath>
789

>  <WPol>
31

>  <Zagreb1>
104

>  <Zagreb2>
122

>  <mZagreb2>
4.44

>  <yes>


>  <nAR-cont>
0.816016

>  <nHA-cont>
0.999629945

>  <MWHBN>
0.177976519

>  <MWHBN-cont>
0.984881349

>  <TPSA-cont>
0.778155866

>  <pka_cont>
0.97

>  <yes.1>


>  <BBB_SCORE>
5.334279701

>  <MMFF94 Energy>
73.372

$$$$
Compound 740
Actelion Java MolfileCreator 2.0

  0  0  0  0  0  0              0 V3000
M  V30 BEGIN CTAB
M  V30 COUNTS 46 48 0 0 0
M  V30 BEGIN ATOM
M  V30 1 O -0.3159 6.8898 0.4739 0
M  V30 2 C 0.0712 5.5781 0.4722 0
M  V30 3 C -1.6515 7.1645 0.0704 0
M  V30 4 C 1.3903 5.3577 0.8743 0
M  V30 5 C -0.7212 4.4884 0.113 0
M  V30 6 C 1.9168 4.0626 0.9188 0
M  V30 7 C -0.1948 3.1905 0.1572 0
M  V30 8 C 1.1282 2.9625 0.5601 0
M  V30 9 C 1.6625 1.6049 0.6014 0
M  V30 10 N 2.9143 1.2971 0.9688 0
M  V30 11 N 0.9052 0.5084 0.2623 0
M  V30 12 N 2.9193 -0.0447 0.862 0
M  V30 13 C 1.7185 -0.5237 0.3981 0
M  V30 14 C 4.0754 -0.7729 1.3175 0
M  V30 15 C 1.3717 -1.9175 0.1023 0
M  V30 16 C 0.0371 -2.3306 0.2428 0
M  V30 17 C 2.2793 -2.8106 -0.4829 0
M  V30 18 C -0.3732 -3.6308 -0.1001 0
M  V30 19 C 1.8874 -4.1075 -0.8269 0
M  V30 20 C 0.5712 -4.5196 -0.6251 0
M  V30 21 C -1.8111 -4.0614 0.106 0
M  V30 22 N -2.7864 -3.2244 -0.6131 0
M  V30 23 C -4.1446 -3.5434 -0.1719 0
M  V30 24 C -2.6791 -3.396 -2.0637 0
M  V30 25 H -1.8216 6.858 -0.9669 0
M  V30 26 H -1.8014 8.2471 0.1261 0
M  V30 27 H -2.3732 6.6936 0.7462 0
M  V30 28 H 2.0162 6.2009 1.1562 0
M  V30 29 H -1.7509 4.607 -0.2062 0
M  V30 30 H 2.9476 3.9194 1.2357 0
M  V30 31 H -0.8286 2.3519 -0.1273 0
M  V30 32 H 3.76 -1.7141 1.7731 0
M  V30 33 H 4.7288 -0.9511 0.4605 0
M  V30 34 H 4.6026 -0.1769 2.068 0
M  V30 35 H -0.7033 -1.628 0.6277 0
M  V30 36 H 3.2978 -2.5095 -0.7086 0
M  V30 37 H 2.6061 -4.7916 -1.2714 0
M  V30 38 H 0.2816 -5.5303 -0.9032 0
M  V30 39 H -1.9967 -4.0015 1.1873 0
M  V30 40 H -1.9356 -5.118 -0.167 0
M  V30 41 H -4.2534 -3.3636 0.9035 0
M  V30 42 H -4.4125 -4.5863 -0.3768 0
M  V30 43 H -4.8744 -2.8953 -0.6704 0
M  V30 44 H -2.8436 -4.4356 -2.3698 0
M  V30 45 H -1.6985 -3.0775 -2.4323 0
M  V30 46 H -3.4153 -2.7678 -2.5785 0
M  V30 END ATOM
M  V30 BEGIN BOND
M  V30 1 1 1 2
M  V30 2 1 1 3
M  V30 3 2 2 4
M  V30 4 1 2 5
M  V30 5 1 4 6
M  V30 6 2 5 7
M  V30 7 2 6 8
M  V30 8 1 8 9
M  V30 9 2 9 10
M  V30 10 1 9 11
M  V30 11 1 10 12
M  V30 12 2 11 13
M  V30 13 1 12 14
M  V30 14 1 13 15
M  V30 15 2 15 16
M  V30 16 1 15 17
M  V30 17 1 16 18
M  V30 18 2 17 19
M  V30 19 2 18 20
M  V30 20 1 18 21
M  V30 21 1 21 22
M  V30 22 1 22 23
M  V30 23 1 22 24
M  V30 24 1 7 8
M  V30 25 1 12 13
M  V30 26 1 19 20
M  V30 27 1 3 25
M  V30 28 1 3 26
M  V30 29 1 3 27
M  V30 30 1 4 28
M  V30 31 1 5 29
M  V30 32 1 6 30
M  V30 33 1 7 31
M  V30 34 1 14 32
M  V30 35 1 14 33
M  V30 36 1 14 34
M  V30 37 1 16 35
M  V30 38 1 17 36
M  V30 39 1 19 37
M  V30 40 1 20 38
M  V30 41 1 21 39
M  V30 42 1 21 40
M  V30 43 1 23 41
M  V30 44 1 23 42
M  V30 45 1 23 43
M  V30 46 1 24 44
M  V30 47 1 24 45
M  V30 48 1 24 46
M  V30 END BOND
M  V30 END CTAB
M  END
>  <Column 1>
889

>  <level_0>
1021

>  <index>
1021

>  <Unnamed: 0>
1021

>  <NO.>
1033

>  <Name>
schembl6584053

>  <IUPAC_name>
1-[3-[5-(4-methoxyphenyl)-2-methyl-1-2-4-triazol-3-yl]phenyl]-n-n-dimethylmethanamine

>  <SMILES>
COc1ccc(-c2nc(-c3cccc(CN(C)C)c3)n(C)n2)cc1

>  <CID>
17807768

>  <logBB>
1.26

>  <BBB+/BBB->
BBB+

>  <Inchi>
InChI=1S/C19H22N4O/c1-22(2)13-14-6-5-7-16(12-14)19-20-18(21-23(19)3)15-8-10-17(24-4)11-9-15/h5-12H-13H2-1-4H3

>  <threshold>


>  <reference>
R47|

>  <group>
A

>  <Class>
1

>  <ABC>
18.59

>  <ABCGG>
14.75

>  <nAcid>
0

>  <nBase>
1

>  <nAromAtom>
17

>  <nAromBond>
17

>  <nAtom>
46

>  <nHeavyAtom>
24

>  <nSpiro>
0

>  <nBridgehead>
0

>  <nHetero>
5

>  <nN>
4

>  <nO>
1

>  <nF>
0

>  <BalabanJ>
1.52

>  <BertzCT>
821.64

>  <nBonds>
48

>  <nBondsO>
26

>  <nBondsS>
31

>  <nBondsD>
0

>  <nBondsT>
0

>  <nBondsA>
17

>  <nBondsM>
17

>  <nBondsKS>
40

>  <nBondsKD>
8

>  <RNCG>
0.27

>  <RPCG>
0.1

>  <FCSP3>
0.26

>  <SZ>
28.67

>  <Sm>
26.84

>  <Sv>
28.71

>  <Sse>
45.75

>  <Sp>
30.9

>  <Si>
51.94

>  <MZ>
0.62

>  <Mm>
0.58

>  <Mv>
0.62

>  <Mse>
0.99

>  <Mp>
0.67

>  <Mi>
1.13

>  <NsCH3>
4

>  <NdCH2>
0

>  <NssCH2>
1

>  <NtCH>
0

>  <NdsCH>
0

>  <NaaCH>
8

>  <NsssCH>
0

>  <NddC>
0

>  <NtsC>
0

>  <NdssC>
0

>  <NaasC>
6

>  <NaaaC>
0

>  <NssssC>
0

>  <NsNH3>
0

>  <NsNH2>
0

>  <NssNH2>
0

>  <NdNH>
0

>  <NssNH>
0

>  <NaaNH>
0

>  <NtN>
0

>  <NsssNH>
0

>  <NdsN>
0

>  <NaaN>
2

>  <NsssN>
1

>  <NddsN>
0

>  <NaasN>
1

>  <NssssN>
0

>  <NsOH>
0

>  <NdO>
0

>  <NssO>
1

>  <NaaO>
0

>  <NsF>
0

>  <NsSiH3>
0

>  <NssSiH2>
0

>  <NsssSiH>
0

>  <NssssSi>
0

>  <NsPH2>
0

>  <NssPH>
0

>  <NsssP>
0

>  <NdsssP>
0

>  <NsssssP>
0

>  <NsSH>
0

>  <NdS>
0

>  <NssS>
0

>  <NaaS>
0

>  <NdssS>
0

>  <NddssS>
0

>  <NsCl>
0

>  <NsBr>
0

>  <NsI>
0

>  <fragCpx>
124.05

>  <fMF>
0.37

>  <nHBAcc>
5

>  <nHBDon>
0

>  <Kier1>
18.78

>  <Kier2>
8.59

>  <Lipinski>
1

>  <GhoseFilter>
1

>  <FilterItLogS>
-4.87

>  <VMcGowan>
257.38

>  <LabuteASA>
142.07

>  <PEOE_VSA1>
9.64

>  <PEOE_VSA2>
0

>  <PEOE_VSA3>
9.67

>  <PEOE_VSA4>
5.1

>  <PEOE_VSA5>
0

>  <PEOE_VSA6>
18.2

>  <PEOE_VSA7>
49.99

>  <PEOE_VSA8>
24.72

>  <PEOE_VSA9>
7.11

>  <PEOE_VSA10>
5.75

>  <PEOE_VSA11>
11.65

>  <PEOE_VSA12>
0

>  <PEOE_VSA13>
0

>  <SMR_VSA1>
4.74

>  <SMR_VSA2>
0

>  <SMR_VSA3>
19.66

>  <SMR_VSA4>
7.05

>  <SMR_VSA5>
6.54

>  <SMR_VSA6>
21.21

>  <SMR_VSA7>
54.09

>  <SMR_VSA8>
0

>  <SMR_VSA9>
28.53

>  <SlogP_VSA1>
4.74

>  <SlogP_VSA2>
40.87

>  <SlogP_VSA3>
13.59

>  <SlogP_VSA4>
0

>  <SlogP_VSA5>
5.56

>  <SlogP_VSA6>
48.53

>  <SlogP_VSA7>
0

>  <SlogP_VSA8>
22.78

>  <SlogP_VSA9>
0

>  <SlogP_VSA10>
0

>  <SlogP_VSA11>
5.75

>  <EState_VSA1>
0

>  <EState_VSA2>
0

>  <EState_VSA3>
5.82

>  <EState_VSA4>
29.25

>  <EState_VSA5>
5.56

>  <EState_VSA6>
7.11

>  <EState_VSA7>
35.99

>  <EState_VSA8>
48.36

>  <EState_VSA9>
9.72

>  <EState_VSA10>
0

>  <VSA_EState1>
7.03

>  <VSA_EState2>
6.87

>  <VSA_EState3>
4.56

>  <VSA_EState4>
3.3

>  <VSA_EState5>
2.4

>  <VSA_EState6>
16.22

>  <VSA_EState7>
0

>  <VSA_EState8>
0.9

>  <VSA_EState9>
7.72

>  <apol>
51.6

>  <bpol>
28.37

>  <nRing>
3

>  <nHRing>
1

>  <naRing>
3

>  <naHRing>
1

>  <nARing 2>
0

>  <nAHRing 2>
0

>  <nFRing>
0

>  <nFHRing>
0

>  <nFaRing>
0

>  <nFaHRing>
0

>  <nFARing 2>
0

>  <nFAHRing 2>
0

>  <nRot>
5

>  <SLogP>
3.22

>  <SMR>
95.82

>  <TopoPSA(NO)>
43.18

>  <TopoPSA>
43.18

>  <JGI1>
0.21

>  <JGI2>
0.07

>  <JGI3>
0.04

>  <JGI4>
0.04

>  <JGI5>
0.03

>  <Diameter>
14

>  <Radius>
7

>  <TMWC10>
124.62

>  <TSRW10>
72.33

>  <MW>
322.18

>  <AMW>
7

>  <WPath>
1448

>  <WPol>
35

>  <Zagreb1>
124

>  <Zagreb2>
144

>  <mZagreb2>
5.33

>  <yes>


>  <nAR-cont>
0.336376

>  <nHA-cont>
0.94700071

>  <MWHBN>
0.278561258

>  <MWHBN-cont>
0.899698382

>  <TPSA-cont>
0.698576787

>  <pka_cont>
0.97

>  <yes.1>


>  <BBB_SCORE>
4.515077856

>  <MMFF94 Energy>
75.62

$$$$
Compound 741
Actelion Java MolfileCreator 2.0

  0  0  0  0  0  0              0 V3000
M  V30 BEGIN CTAB
M  V30 COUNTS 40 41 0 0 0
M  V30 BEGIN ATOM
M  V30 1 O -0.3145 0.7864 -0.3145 0
M  V30 2 C 0.8589 0.0645 -0.7188 0
M  V30 3 C -1.2744 0.907 -1.3674 0
M  V30 4 C 2.1195 0.7878 -0.2539 0
M  V30 5 C 0.7561 -1.3534 -0.1801 0
M  V30 6 C -2.5344 1.6252 -0.8508 0
M  V30 7 C 2.0771 1.8408 0.6743 0
M  V30 8 C 3.3717 0.3937 -0.7582 0
M  V30 9 C 0.6527 -1.5975 1.1994 0
M  V30 10 C 0.7548 -2.4486 -1.0585 0
M  V30 11 N -3.5574 0.7357 -0.2575 0
M  V30 12 C 3.2487 2.483 1.0815 0
M  V30 13 C 4.5424 1.0362 -0.3496 0
M  V30 14 C 0.5562 -2.9014 1.6874 0
M  V30 15 C 0.6576 -3.7525 -0.5682 0
M  V30 16 C -4.731 1.52 0.1341 0
M  V30 17 C -3.0385 0.0053 0.9015 0
M  V30 18 C 4.48 2.0812 0.5691 0
M  V30 19 C 0.5594 -3.9781 0.8034 0
M  V30 20 H 0.9081 0.0433 -1.817 0
M  V30 21 H -1.5251 -0.0775 -1.7798 0
M  V30 22 H -0.8295 1.5133 -2.1657 0
M  V30 23 H -2.2462 2.4071 -0.136 0
M  V30 24 H -2.9948 2.1181 -1.7165 0
M  V30 25 H 1.1261 2.1671 1.0907 0
M  V30 26 H 3.4415 -0.426 -1.4702 0
M  V30 27 H 0.6431 -0.7633 1.8983 0
M  V30 28 H 0.8265 -2.2941 -2.1325 0
M  V30 29 H 3.1979 3.2957 1.8014 0
M  V30 30 H 5.5029 0.7176 -0.7458 0
M  V30 31 H 0.4775 -3.0747 2.7573 0
M  V30 32 H 0.6564 -4.5932 -1.2571 0
M  V30 33 H -5.1558 2.0384 -0.7327 0
M  V30 34 H -4.4934 2.2664 0.901 0
M  V30 35 H -5.5198 0.8656 0.5222 0
M  V30 36 H -2.6184 0.675 1.6605 0
M  V30 37 H -2.2732 -0.7147 0.5994 0
M  V30 38 H -3.8331 -0.5864 1.371 0
M  V30 39 H 5.391 2.5801 0.8887 0
M  V30 40 H 0.483 -4.9932 1.1838 0
M  V30 END ATOM
M  V30 BEGIN BOND
M  V30 1 1 1 2
M  V30 2 1 1 3
M  V30 3 1 2 4
M  V30 4 1 2 5
M  V30 5 1 3 6
M  V30 6 2 4 7
M  V30 7 1 4 8
M  V30 8 2 5 9
M  V30 9 1 5 10
M  V30 10 1 6 11
M  V30 11 1 7 12
M  V30 12 2 8 13
M  V30 13 1 9 14
M  V30 14 2 10 15
M  V30 15 1 11 16
M  V30 16 1 11 17
M  V30 17 2 12 18
M  V30 18 2 14 19
M  V30 19 1 13 18
M  V30 20 1 15 19
M  V30 21 1 2 20
M  V30 22 1 3 21
M  V30 23 1 3 22
M  V30 24 1 6 23
M  V30 25 1 6 24
M  V30 26 1 7 25
M  V30 27 1 8 26
M  V30 28 1 9 27
M  V30 29 1 10 28
M  V30 30 1 12 29
M  V30 31 1 13 30
M  V30 32 1 14 31
M  V30 33 1 15 32
M  V30 34 1 16 33
M  V30 35 1 16 34
M  V30 36 1 16 35
M  V30 37 1 17 36
M  V30 38 1 17 37
M  V30 39 1 17 38
M  V30 40 1 18 39
M  V30 41 1 19 40
M  V30 END BOND
M  V30 END CTAB
M  END
>  <Column 1>
890

>  <level_0>
1022

>  <index>
1022

>  <Unnamed: 0>
1022

>  <NO.>
1034

>  <Name>
diphenhydramine

>  <IUPAC_name>
2-benzhydryloxy-n-n-dimethylethanamine

>  <SMILES>
CN(C)CCOC(c1ccccc1)c1ccccc1

>  <CID>
3100

>  <logBB>
1.3

>  <BBB+/BBB->
BBB+

>  <Inchi>
InChI=1S/C17H21NO/c1-18(2)13-14-19-17(15-9-5-3-6-10-15)16-11-7-4-8-12-16/h3-12-17H-13-14H2-1-2H3

>  <threshold>


>  <reference>
R42|R2|R2|R3|R8|R18|R21|R25|R26|R27|R27|R27|R38|R41|R43|R46|R47|R40|

>  <group>
A

>  <Class>
1

>  <ABC>
14.28

>  <ABCGG>
12.11

>  <nAcid>
0

>  <nBase>
1

>  <nAromAtom>
12

>  <nAromBond>
12

>  <nAtom>
40

>  <nHeavyAtom>
19

>  <nSpiro>
0

>  <nBridgehead>
0

>  <nHetero>
2

>  <nN>
1

>  <nO>
1

>  <nF>
0

>  <BalabanJ>
1.86

>  <BertzCT>
427.64

>  <nBonds>
41

>  <nBondsO>
20

>  <nBondsS>
29

>  <nBondsD>
0

>  <nBondsT>
0

>  <nBondsA>
12

>  <nBondsM>
12

>  <nBondsKS>
35

>  <nBondsKD>
6

>  <RNCG>
0.28

>  <RPCG>
0.08

>  <FCSP3>
0.29

>  <SZ>
23

>  <Sm>
21.26

>  <Sv>
24.16

>  <Sse>
39.32

>  <Sp>
26.52

>  <Si>
44.86

>  <MZ>
0.58

>  <Mm>
0.53

>  <Mv>
0.6

>  <Mse>
0.98

>  <Mp>
0.66

>  <Mi>
1.12

>  <NsCH3>
2

>  <NdCH2>
0

>  <NssCH2>
2

>  <NtCH>
0

>  <NdsCH>
0

>  <NaaCH>
10

>  <NsssCH>
1

>  <NddC>
0

>  <NtsC>
0

>  <NdssC>
0

>  <NaasC>
2

>  <NaaaC>
0

>  <NssssC>
0

>  <NsNH3>
0

>  <NsNH2>
0

>  <NssNH2>
0

>  <NdNH>
0

>  <NssNH>
0

>  <NaaNH>
0

>  <NtN>
0

>  <NsssNH>
0

>  <NdsN>
0

>  <NaaN>
0

>  <NsssN>
1

>  <NddsN>
0

>  <NaasN>
0

>  <NssssN>
0

>  <NsOH>
0

>  <NdO>
0

>  <NssO>
1

>  <NaaO>
0

>  <NsF>
0

>  <NsSiH3>
0

>  <NssSiH2>
0

>  <NsssSiH>
0

>  <NssssSi>
0

>  <NsPH2>
0

>  <NssPH>
0

>  <NsssP>
0

>  <NdsssP>
0

>  <NsssssP>
0

>  <NsSH>
0

>  <NdS>
0

>  <NssS>
0

>  <NaaS>
0

>  <NdssS>
0

>  <NddssS>
0

>  <NsCl>
0

>  <NsBr>
0

>  <NsI>
0

>  <fragCpx>
58.02

>  <fMF>
0.33

>  <nHBAcc>
2

>  <nHBDon>
0

>  <Kier1>
15.39

>  <Kier2>
8.32

>  <Lipinski>
1

>  <GhoseFilter>
1

>  <FilterItLogS>
-4.11

>  <VMcGowan>
218.72

>  <LabuteASA>
115.19

>  <PEOE_VSA1>
9.64

>  <PEOE_VSA2>
0

>  <PEOE_VSA3>
0

>  <PEOE_VSA4>
0

>  <PEOE_VSA5>
0

>  <PEOE_VSA6>
60.66

>  <PEOE_VSA7>
25.22

>  <PEOE_VSA8>
6.54

>  <PEOE_VSA9>
6.61

>  <PEOE_VSA10>
6.1

>  <PEOE_VSA11>
0

>  <PEOE_VSA12>
0

>  <PEOE_VSA13>
0

>  <SMR_VSA1>
4.74

>  <SMR_VSA2>
0

>  <SMR_VSA3>
4.9

>  <SMR_VSA4>
0

>  <SMR_VSA5>
6.1

>  <SMR_VSA6>
27.25

>  <SMR_VSA7>
71.79

>  <SMR_VSA8>
0

>  <SMR_VSA9>
0

>  <SlogP_VSA1>
0

>  <SlogP_VSA2>
32.15

>  <SlogP_VSA3>
4.74

>  <SlogP_VSA4>
0

>  <SlogP_VSA5>
17.23

>  <SlogP_VSA6>
60.66

>  <SlogP_VSA7>
0

>  <SlogP_VSA8>
0

>  <SlogP_VSA9>
0

>  <SlogP_VSA10>
0

>  <SlogP_VSA11>
0

>  <EState_VSA1>
0

>  <EState_VSA2>
6.1

>  <EState_VSA3>
0

>  <EState_VSA4>
13.15

>  <EState_VSA5>
11.13

>  <EState_VSA6>
0

>  <EState_VSA7>
12.13

>  <EState_VSA8>
67.53

>  <EState_VSA9>
4.74

>  <EState_VSA10>
0

>  <VSA_EState1>
6.08

>  <VSA_EState2>
2.13

>  <VSA_EState3>
0

>  <VSA_EState4>
2.4

>  <VSA_EState5>
0

>  <VSA_EState6>
20.76

>  <VSA_EState7>
0.02

>  <VSA_EState8>
1.65

>  <VSA_EState9>
4.12

>  <apol>
44.29

>  <bpol>
24.51

>  <nRing>
2

>  <nHRing>
0

>  <naRing>
2

>  <naHRing>
0

>  <nARing 2>
0

>  <nAHRing 2>
0

>  <nFRing>
0

>  <nFHRing>
0

>  <nFaRing>
0

>  <nFaHRing>
0

>  <nFARing 2>
0

>  <nFAHRing 2>
0

>  <nRot>
6

>  <SLogP>
3.35

>  <SMR>
79.23

>  <TopoPSA(NO)>
12.47

>  <TopoPSA>
12.47

>  <JGI1>
0.13

>  <JGI2>
0.06

>  <JGI3>
0.04

>  <JGI4>
0.02

>  <JGI5>
0.01

>  <Diameter>
9

>  <Radius>
5

>  <TMWC10>
109.2

>  <TSRW10>
51.45

>  <MW>
255.16

>  <AMW>
6.38

>  <WPath>
736

>  <WPol>
24

>  <Zagreb1>
90

>  <Zagreb2>
100

>  <mZagreb2>
4.39

>  <yes>


>  <nAR-cont>
0.336376

>  <nHA-cont>
0.998649058

>  <MWHBN>
0.125205584

>  <MWHBN-cont>
0.851011254

>  <TPSA-cont>
0.912951657

>  <pka_cont>
0.97

>  <yes.1>


>  <BBB_SCORE>
4.922445252

>  <MMFF94 Energy>
82.466

$$$$
Compound 742
Actelion Java MolfileCreator 2.0

  0  0  0  0  0  0              0 V3000
M  V30 BEGIN CTAB
M  V30 COUNTS 49 51 0 0 0
M  V30 BEGIN ATOM
M  V30 1 Cl 4.4359 -2.5791 6.2954 0
M  V30 2 C 3.1732 -1.8672 5.37 0
M  V30 3 C 2.5841 -0.6827 5.7961 0
M  V30 4 C 2.7425 -2.4796 4.1975 0
M  V30 5 C 1.5583 -0.1092 5.04 0
M  V30 6 C 1.7145 -1.9037 3.4415 0
M  V30 7 C 1.1022 -0.7059 3.8456 0
M  V30 8 C -0.0278 -0.0314 3.0578 0
M  V30 9 O -1.1019 0.2017 3.9869 0
M  V30 10 C -0.6067 -0.869 1.9044 0
M  V30 11 C 0.4349 1.3264 2.5049 0
M  V30 12 C -1.6671 -0.1004 1.112 0
M  V30 13 C -0.6525 2.0077 1.6729 0
M  V30 14 N -1.1066 1.147 0.5664 0
M  V30 15 C -2.098 1.8732 -0.2493 0
M  V30 16 C -2.4414 1.1869 -1.5778 0
M  V30 17 C -1.2052 0.9137 -2.4374 0
M  V30 18 C -1.5686 0.3239 -3.7889 0
M  V30 19 O -2.7328 0.1171 -4.1256 0
M  V30 20 C -0.4652 -0.0143 -4.7414 0
M  V30 21 C -0.8057 -0.5592 -5.9904 0
M  V30 22 C 0.886 0.1938 -4.4288 0
M  V30 23 C 0.1889 -0.8911 -6.9126 0
M  V30 24 C 1.8788 -0.1398 -5.3551 0
M  V30 25 C 1.5218 -0.6782 -6.5861 0
M  V30 26 F 2.4773 -0.9957 -7.4685 0
M  V30 27 H 2.9142 -0.1994 6.7117 0
M  V30 28 H 3.2015 -3.4062 3.8624 0
M  V30 29 H 1.1055 0.817 5.3931 0
M  V30 30 H 1.4129 -2.4181 2.533 0
M  V30 31 H -1.1428 -0.5697 4.5792 0
M  V30 32 H 0.1859 -1.1677 1.2064 0
M  V30 33 H -1.0662 -1.7864 2.2939 0
M  V30 34 H 0.7033 2.0091 3.3208 0
M  V30 35 H 1.3347 1.1947 1.8889 0
M  V30 36 H -2.5443 0.0994 1.7409 0
M  V30 37 H -1.9974 -0.7566 0.2997 0
M  V30 38 H -0.2268 2.9338 1.2668 0
M  V30 39 H -1.4938 2.2974 2.3164 0
M  V30 40 H -1.6977 2.865 -0.4984 0
M  V30 41 H -3.0211 2.0442 0.3198 0
M  V30 42 H -3.1311 1.8387 -2.1299 0
M  V30 43 H -2.9899 0.2542 -1.4019 0
M  V30 44 H -0.5499 0.2034 -1.9221 0
M  V30 45 H -0.6671 1.8537 -2.6033 0
M  V30 46 H -1.8498 -0.7275 -6.2501 0
M  V30 47 H 1.1942 0.6124 -3.475 0
M  V30 48 H -0.0698 -1.3123 -7.879 0
M  V30 49 H 2.9282 0.0167 -5.1241 0
M  V30 END ATOM
M  V30 BEGIN BOND
M  V30 1 1 1 2
M  V30 2 2 2 3
M  V30 3 1 2 4
M  V30 4 1 3 5
M  V30 5 2 4 6
M  V30 6 2 5 7
M  V30 7 1 7 8
M  V30 8 1 8 9
M  V30 9 1 8 10
M  V30 10 1 8 11
M  V30 11 1 10 12
M  V30 12 1 11 13
M  V30 13 1 12 14
M  V30 14 1 14 15
M  V30 15 1 15 16
M  V30 16 1 16 17
M  V30 17 1 17 18
M  V30 18 2 18 19
M  V30 19 1 18 20
M  V30 20 2 20 21
M  V30 21 1 20 22
M  V30 22 1 21 23
M  V30 23 2 22 24
M  V30 24 2 23 25
M  V30 25 1 25 26
M  V30 26 1 6 7
M  V30 27 1 13 14
M  V30 28 1 24 25
M  V30 29 1 3 27
M  V30 30 1 4 28
M  V30 31 1 5 29
M  V30 32 1 6 30
M  V30 33 1 9 31
M  V30 34 1 10 32
M  V30 35 1 10 33
M  V30 36 1 11 34
M  V30 37 1 11 35
M  V30 38 1 12 36
M  V30 39 1 12 37
M  V30 40 1 13 38
M  V30 41 1 13 39
M  V30 42 1 15 40
M  V30 43 1 15 41
M  V30 44 1 16 42
M  V30 45 1 16 43
M  V30 46 1 17 44
M  V30 47 1 17 45
M  V30 48 1 21 46
M  V30 49 1 22 47
M  V30 50 1 23 48
M  V30 51 1 24 49
M  V30 END BOND
M  V30 END CTAB
M  END
>  <Column 1>
891

>  <level_0>
1023

>  <index>
1023

>  <Unnamed: 0>
1023

>  <NO.>
1035

>  <Name>
haloperidol

>  <IUPAC_name>
4-[4-(4-chlorophenyl)-4-hydroxypiperidin-1-yl]-1-(4-fluorophenyl)butan-1-one

>  <SMILES>
O=C(CCCN1CCC(O)(c2ccc(Cl)cc2)CC1)c1ccc(F)cc1

>  <CID>
3559

>  <logBB>
1.3

>  <BBB+/BBB->
BBB+

>  <Inchi>
InChI=1S/C21H23ClFNO2/c22-18-7-5-17(6-8-18)21(26)11-14-24(15-12-21)13-1-2-20(25)16-3-9-19(23)10-4-16/h3-10-26H-1-2-11-15H2

>  <threshold>


>  <reference>
R18|R26|R27|R5|R2|R2|R8|R21|R27|R27|R12|R25|R35|R36|R39|R42|R43|R44|R47|R50|R4|R40|

>  <group>
A

>  <Class>
1

>  <ABC>
20.18

>  <ABCGG>
14.87

>  <nAcid>
0

>  <nBase>
1

>  <nAromAtom>
12

>  <nAromBond>
12

>  <nAtom>
49

>  <nHeavyAtom>
26

>  <nSpiro>
0

>  <nBridgehead>
0

>  <nHetero>
5

>  <nN>
1

>  <nO>
2

>  <nF>
1

>  <BalabanJ>
1.32

>  <BertzCT>
737.61

>  <nBonds>
51

>  <nBondsO>
28

>  <nBondsS>
38

>  <nBondsD>
1

>  <nBondsT>
0

>  <nBondsA>
12

>  <nBondsM>
13

>  <nBondsKS>
44

>  <nBondsKD>
7

>  <RNCG>
0.23

>  <RPCG>
0.13

>  <FCSP3>
0.38

>  <SZ>
33

>  <Sm>
31.29

>  <Sv>
31.16

>  <Sse>
49.26

>  <Sp>
33.44

>  <Si>
55.18

>  <MZ>
0.67

>  <Mm>
0.64

>  <Mv>
0.64

>  <Mse>
1.01

>  <Mp>
0.68

>  <Mi>
1.13

>  <NsCH3>
0

>  <NdCH2>
0

>  <NssCH2>
7

>  <NtCH>
0

>  <NdsCH>
0

>  <NaaCH>
8

>  <NsssCH>
0

>  <NddC>
0

>  <NtsC>
0

>  <NdssC>
1

>  <NaasC>
4

>  <NaaaC>
0

>  <NssssC>
1

>  <NsNH3>
0

>  <NsNH2>
0

>  <NssNH2>
0

>  <NdNH>
0

>  <NssNH>
0

>  <NaaNH>
0

>  <NtN>
0

>  <NsssNH>
0

>  <NdsN>
0

>  <NaaN>
0

>  <NsssN>
1

>  <NddsN>
0

>  <NaasN>
0

>  <NssssN>
0

>  <NsOH>
1

>  <NdO>
1

>  <NssO>
0

>  <NaaO>
0

>  <NsF>
1

>  <NsSiH3>
0

>  <NssSiH2>
0

>  <NsssSiH>
0

>  <NssssSi>
0

>  <NsPH2>
0

>  <NssPH>
0

>  <NsssP>
0

>  <NdsssP>
0

>  <NsssssP>
0

>  <NsSH>
0

>  <NdS>
0

>  <NssS>
0

>  <NaaS>
0

>  <NdssS>
0

>  <NddssS>
0

>  <NsCl>
1

>  <NsBr>
0

>  <NsI>
0

>  <fragCpx>
134.05

>  <fMF>
0.45

>  <nHBAcc>
3

>  <nHBDon>
1

>  <Kier1>
20.73

>  <Kier2>
9.47

>  <Lipinski>
1

>  <GhoseFilter>
1

>  <FilterItLogS>
-5.84

>  <VMcGowan>
279.79

>  <LabuteASA>
157.95

>  <PEOE_VSA1>
10.01

>  <PEOE_VSA2>
4.79

>  <PEOE_VSA3>
4.39

>  <PEOE_VSA4>
0

>  <PEOE_VSA5>
0

>  <PEOE_VSA6>
23.73

>  <PEOE_VSA7>
67.77

>  <PEOE_VSA8>
30.1

>  <PEOE_VSA9>
5.6

>  <PEOE_VSA10>
5.82

>  <PEOE_VSA11>
5.78

>  <PEOE_VSA12>
0

>  <PEOE_VSA13>
0

>  <SMR_VSA1>
14.29

>  <SMR_VSA2>
0

>  <SMR_VSA3>
4.9

>  <SMR_VSA4>
0

>  <SMR_VSA5>
31.28

>  <SMR_VSA6>
19.63

>  <SMR_VSA7>
70.5

>  <SMR_VSA8>
0

>  <SMR_VSA9>
0

>  <SlogP_VSA1>
0

>  <SlogP_VSA2>
35.42

>  <SlogP_VSA3>
5.6

>  <SlogP_VSA4>
5.82

>  <SlogP_VSA5>
41.6

>  <SlogP_VSA6>
48.53

>  <SlogP_VSA7>
5.02

>  <SlogP_VSA8>
0

>  <SlogP_VSA9>
0

>  <SlogP_VSA10>
4.39

>  <SlogP_VSA11>
0

>  <EState_VSA1>
5.6

>  <EState_VSA2>
11.6

>  <EState_VSA3>
29.85

>  <EState_VSA4>
31.62

>  <EState_VSA5>
24.27

>  <EState_VSA6>
0

>  <EState_VSA7>
24.27

>  <EState_VSA8>
4.9

>  <EState_VSA9>
11.6

>  <EState_VSA10>
14.29

>  <VSA_EState1>
12.91

>  <VSA_EState2>
14.4

>  <VSA_EState3>
11.55

>  <VSA_EState4>
0.67

>  <VSA_EState5>
-0.29

>  <VSA_EState6>
13.09

>  <VSA_EState7>
2.54

>  <VSA_EState8>
2.41

>  <VSA_EState9>
0

>  <apol>
55.85

>  <bpol>
27.27

>  <nRing>
3

>  <nHRing>
1

>  <naRing>
2

>  <naHRing>
0

>  <nARing 2>
1

>  <nAHRing 2>
1

>  <nFRing>
0

>  <nFHRing>
0

>  <nFaRing>
0

>  <nFaHRing>
0

>  <nFARing 2>
0

>  <nFAHRing 2>
0

>  <nRot>
6

>  <SLogP>
4.43

>  <SMR>
100.99

>  <TopoPSA(NO)>
40.54

>  <TopoPSA>
40.54

>  <JGI1>
0.23

>  <JGI2>
0.1

>  <JGI3>
0.04

>  <JGI4>
0.03

>  <JGI5>
0.03

>  <Diameter>
17

>  <Radius>
9

>  <TMWC10>
128.81

>  <TSRW10>
60.87

>  <MW>
375.14

>  <AMW>
7.66

>  <WPath>
2035

>  <WPol>
39

>  <Zagreb1>
134

>  <Zagreb2>
154

>  <mZagreb2>
5.69

>  <yes>


>  <nAR-cont>
0.816016

>  <nHA-cont>
0.892715677

>  <MWHBN>
0.206520565

>  <MWHBN-cont>
0.999893448

>  <TPSA-cont>
0.717005626

>  <pka_cont>
0.97

>  <yes.1>


>  <BBB_SCORE>
5.127583102

>  <MMFF94 Energy>
53.972

$$$$
Compound 743
Actelion Java MolfileCreator 2.0

  0  0  0  0  0  0              0 V3000
M  V30 BEGIN CTAB
M  V30 COUNTS 40 42 0 0 0
M  V30 BEGIN ATOM
M  V30 1 S -0.4021 0.8849 -2.8178 0
M  V30 2 C -1.8084 0.7738 -1.729 0
M  V30 3 C 0.8512 1.5374 -1.732 0
M  V30 4 C -1.7033 0.8741 -0.3278 0
M  V30 5 C -3.0573 0.5519 -2.3359 0
M  V30 6 C 0.7083 1.5725 -0.3316 0
M  V30 7 C 2.022 2.022 -2.3418 0
M  V30 8 N -0.451 1.0683 0.3133 0
M  V30 9 C -2.8975 0.7995 0.4183 0
M  V30 10 C -4.2169 0.4561 -1.571 0
M  V30 11 C 1.7456 2.1756 0.4089 0
M  V30 12 C 3.0465 2.5788 -1.5806 0
M  V30 13 C -0.2101 0.2403 1.5285 0
M  V30 14 C -4.1377 0.5888 -0.1921 0
M  V30 15 C 2.9029 2.666 -0.2033 0
M  V30 16 C -0.0549 -1.2867 1.2092 0 CFG=1
M  V30 17 N 1.1547 -1.5955 0.4096 0
M  V30 18 C -0.1546 -2.0877 2.5179 0
M  V30 19 C 1.024 -2.8408 -0.3415 0
M  V30 20 C 2.413 -1.5589 1.1452 0
M  V30 21 H -3.1313 0.4596 -3.4174 0
M  V30 22 H 2.1355 1.9748 -3.4225 0
M  V30 23 H -2.889 0.9388 1.4949 0
M  V30 24 H -5.1766 0.2923 -2.0534 0
M  V30 25 H 1.6542 2.3022 1.4835 0
M  V30 26 H 3.943 2.9555 -2.0648 0
M  V30 27 H 0.6607 0.5784 2.0988 0
M  V30 28 H -1.0333 0.3752 2.2396 0
M  V30 29 H -5.0392 0.5391 0.413 0
M  V30 30 H 3.6839 3.122 0.3991 0
M  V30 31 H -0.9297 -1.5687 0.6087 0
M  V30 32 H -0.0681 -3.164 2.3396 0
M  V30 33 H 0.6172 -1.793 3.2366 0
M  V30 34 H -1.1273 -1.9173 2.9933 0
M  V30 35 H 0.9668 -3.7185 0.3106 0
M  V30 36 H 1.8773 -2.9733 -1.0163 0
M  V30 37 H 0.1311 -2.8212 -0.9762 0
M  V30 38 H 2.537 -0.618 1.6895 0
M  V30 39 H 3.2583 -1.6228 0.4504 0
M  V30 40 H 2.505 -2.3848 1.8591 0
M  V30 END ATOM
M  V30 BEGIN BOND
M  V30 1 1 1 2
M  V30 2 1 1 3
M  V30 3 2 2 4
M  V30 4 1 2 5
M  V30 5 2 3 6
M  V30 6 1 3 7
M  V30 7 1 4 8
M  V30 8 1 4 9
M  V30 9 2 5 10
M  V30 10 1 6 11
M  V30 11 2 7 12
M  V30 12 1 8 13
M  V30 13 2 9 14
M  V30 14 2 11 15
M  V30 15 1 13 16
M  V30 16 1 16 17
M  V30 17 1 16 18
M  V30 18 1 17 19
M  V30 19 1 17 20
M  V30 20 1 6 8
M  V30 21 1 10 14
M  V30 22 1 12 15
M  V30 23 1 5 21
M  V30 24 1 7 22
M  V30 25 1 9 23
M  V30 26 1 10 24
M  V30 27 1 11 25
M  V30 28 1 12 26
M  V30 29 1 13 27
M  V30 30 1 13 28
M  V30 31 1 14 29
M  V30 32 1 15 30
M  V30 33 1 16 31
M  V30 34 1 18 32
M  V30 35 1 18 33
M  V30 36 1 18 34
M  V30 37 1 19 35
M  V30 38 1 19 36
M  V30 39 1 19 37
M  V30 40 1 20 38
M  V30 41 1 20 39
M  V30 42 1 20 40
M  V30 END BOND
M  V30 BEGIN COLLECTION
M  V30 MDLV30/STERAC1 ATOMS=(1 16)
M  V30 END COLLECTION
M  V30 END CTAB
M  END
>  <Column 1>
892

>  <level_0>
1024

>  <index>
1024

>  <Unnamed: 0>
1024

>  <NO.>
1036

>  <Name>
promethazine

>  <IUPAC_name>
n-n-dimethyl-1-phenothiazin-10-ylpropan-2-amine

>  <SMILES>
CC(CN1c2ccccc2Sc2ccccc21)N(C)C

>  <CID>
4927

>  <logBB>
1.3

>  <BBB+/BBB->
BBB+

>  <Inchi>
InChI=1S/C17H20N2S/c1-13(18(2)3)12-19-14-8-4-6-10-16(14)20-17-11-7-5-9-15(17)19/h4-11-13H-12H2-1-3H3

>  <threshold>


>  <reference>
R42|R47|

>  <group>
A

>  <Class>
1

>  <ABC>
15.68

>  <ABCGG>
12.78

>  <nAcid>
0

>  <nBase>
1

>  <nAromAtom>
12

>  <nAromBond>
12

>  <nAtom>
40

>  <nHeavyAtom>
20

>  <nSpiro>
0

>  <nBridgehead>
0

>  <nHetero>
3

>  <nN>
2

>  <nO>
0

>  <nF>
0

>  <BalabanJ>
1.76

>  <BertzCT>
563.94

>  <nBonds>
42

>  <nBondsO>
22

>  <nBondsS>
30

>  <nBondsD>
0

>  <nBondsT>
0

>  <nBondsA>
12

>  <nBondsM>
12

>  <nBondsKS>
36

>  <nBondsKD>
6

>  <RNCG>
0.28

>  <RPCG>
0.05

>  <FCSP3>
0.29

>  <SZ>
25.33

>  <Sm>
23.68

>  <Sv>
25.12

>  <Sse>
39.28

>  <Sp>
28.04

>  <Si>
44.65

>  <MZ>
0.63

>  <Mm>
0.59

>  <Mv>
0.63

>  <Mse>
0.98

>  <Mp>
0.7

>  <Mi>
1.12

>  <NsCH3>
3

>  <NdCH2>
0

>  <NssCH2>
1

>  <NtCH>
0

>  <NdsCH>
0

>  <NaaCH>
8

>  <NsssCH>
1

>  <NddC>
0

>  <NtsC>
0

>  <NdssC>
0

>  <NaasC>
4

>  <NaaaC>
0

>  <NssssC>
0

>  <NsNH3>
0

>  <NsNH2>
0

>  <NssNH2>
0

>  <NdNH>
0

>  <NssNH>
0

>  <NaaNH>
0

>  <NtN>
0

>  <NsssNH>
0

>  <NdsN>
0

>  <NaaN>
0

>  <NsssN>
2

>  <NddsN>
0

>  <NaasN>
0

>  <NssssN>
0

>  <NsOH>
0

>  <NdO>
0

>  <NssO>
0

>  <NaaO>
0

>  <NsF>
0

>  <NsSiH3>
0

>  <NssSiH2>
0

>  <NsssSiH>
0

>  <NssssSi>
0

>  <NsPH2>
0

>  <NssPH>
0

>  <NsssP>
0

>  <NdsssP>
0

>  <NsssssP>
0

>  <NsSH>
0

>  <NdS>
0

>  <NssS>
1

>  <NaaS>
0

>  <NdssS>
0

>  <NddssS>
0

>  <NsCl>
0

>  <NsBr>
0

>  <NsI>
0

>  <fragCpx>
104.03

>  <fMF>
0.35

>  <nHBAcc>
3

>  <nHBDon>
0

>  <Kier1>
14.92

>  <Kier2>
6.41

>  <Lipinski>
1

>  <GhoseFilter>
1

>  <FilterItLogS>
-4.09

>  <VMcGowan>
228.32

>  <LabuteASA>
124.95

>  <PEOE_VSA1>
9.8

>  <PEOE_VSA2>
0

>  <PEOE_VSA3>
0

>  <PEOE_VSA4>
0

>  <PEOE_VSA5>
0

>  <PEOE_VSA6>
36.03

>  <PEOE_VSA7>
45.28

>  <PEOE_VSA8>
22.38

>  <PEOE_VSA9>
11.37

>  <PEOE_VSA10>
0

>  <PEOE_VSA11>
0

>  <PEOE_VSA12>
0

>  <PEOE_VSA13>
0

>  <SMR_VSA1>
0

>  <SMR_VSA2>
0

>  <SMR_VSA3>
4.9

>  <SMR_VSA4>
0

>  <SMR_VSA5>
22.76

>  <SMR_VSA6>
25.54

>  <SMR_VSA7>
48.53

>  <SMR_VSA8>
0

>  <SMR_VSA9>
0

>  <SlogP_VSA1>
4.9

>  <SlogP_VSA2>
31.58

>  <SlogP_VSA3>
0

>  <SlogP_VSA4>
0

>  <SlogP_VSA5>
6.92

>  <SlogP_VSA6>
58.32

>  <SlogP_VSA7>
0

>  <SlogP_VSA8>
0

>  <SlogP_VSA9>
0

>  <SlogP_VSA10>
11.37

>  <SlogP_VSA11>
0

>  <EState_VSA1>
0

>  <EState_VSA2>
0

>  <EState_VSA3>
6.04

>  <EState_VSA4>
6.54

>  <EState_VSA5>
21.17

>  <EState_VSA6>
0

>  <EState_VSA7>
11.76

>  <EState_VSA8>
79.35

>  <EState_VSA9>
0

>  <EState_VSA10>
0

>  <VSA_EState1>
0

>  <VSA_EState2>
7.41

>  <VSA_EState3>
0

>  <VSA_EState4>
2.65

>  <VSA_EState5>
0

>  <VSA_EState6>
17.86

>  <VSA_EState7>
0

>  <VSA_EState8>
3.27

>  <VSA_EState9>
4.28

>  <apol>
46.83

>  <bpol>
25.94

>  <nRing>
3

>  <nHRing>
1

>  <naRing>
2

>  <naHRing>
0

>  <nARing 2>
1

>  <nAHRing 2>
1

>  <nFRing>
1

>  <nFHRing>
1

>  <nFaRing>
0

>  <nFaHRing>
0

>  <nFARing 2>
1

>  <nFAHRing 2>
1

>  <nRot>
3

>  <SLogP>
4.24

>  <SMR>
87.16

>  <TopoPSA(NO)>
6.48

>  <TopoPSA>
31.78

>  <JGI1>
0.16

>  <JGI2>
0.08

>  <JGI3>
0.04

>  <JGI4>
0.04

>  <JGI5>
0.03

>  <Diameter>
8

>  <Radius>
4

>  <TMWC10>
116.02

>  <TSRW10>
53.94

>  <MW>
284.13

>  <AMW>
7.1

>  <WPath>
744

>  <WPol>
33

>  <Zagreb1>
106

>  <Zagreb2>
126

>  <mZagreb2>
4.39

>  <yes>


>  <nAR-cont>
0.816016

>  <nHA-cont>
0.999629945

>  <MWHBN>
0.177976519

>  <MWHBN-cont>
0.984881349

>  <TPSA-cont>
0.778155866

>  <pka_cont>
0.97

>  <yes.1>


>  <BBB_SCORE>
5.334279701

>  <MMFF94 Energy>
104.18

$$$$
Compound 744
Actelion Java MolfileCreator 2.0

  0  0  0  0  0  0              0 V3000
M  V30 BEGIN CTAB
M  V30 COUNTS 44 47 0 0 0
M  V30 BEGIN ATOM
M  V30 1 N -3.77 -1.0417 -1.4425 0
M  V30 2 C -2.501 -1.139 -2.1636 0
M  V30 3 C -4.8995 -1.1031 -2.3605 0
M  V30 4 C -1.3091 -1.0766 -1.1992 0
M  V30 5 C -1.2313 0.2681 -0.4442 0
M  V30 6 C 0.0851 0.5662 0.3205 0
M  V30 7 C 0.4198 -0.3919 1.4955 0
M  V30 8 C 1.3447 0.7398 -0.5757 0
M  V30 9 C -0.0363 1.9678 1.0315 0
M  V30 10 C 1.6322 -0.0735 2.1649 0
M  V30 11 C -0.3594 -1.4339 1.9917 0
M  V30 12 C 2.5288 1.0311 0.1524 0
M  V30 13 C 1.4066 0.7163 -1.9677 0
M  V30 14 C 1.2739 2.3188 1.8089 0
M  V30 15 C 2.0898 -0.8266 3.243 0
M  V30 16 C 2.3162 1.1804 1.6483 0
M  V30 17 C 0.0986 -2.1909 3.076 0
M  V30 18 C 3.7502 1.2203 -0.4884 0
M  V30 19 C 2.6335 0.9074 -2.6127 0
M  V30 20 C 1.3204 -1.8978 3.6893 0
M  V30 21 C 3.7989 1.1468 -1.8782 0
M  V30 22 H -3.8397 -1.8082 -0.7735 0
M  V30 23 H -2.4552 -2.0871 -2.7132 0
M  V30 24 H -2.4154 -0.3262 -2.8947 0
M  V30 25 H -4.92 -2.0501 -2.9095 0
M  V30 26 H -4.8741 -0.2743 -3.0755 0
M  V30 27 H -5.8332 -1.0212 -1.7952 0
M  V30 28 H -0.3999 -1.2596 -1.7775 0
M  V30 29 H -1.3832 -1.9164 -0.5035 0
M  V30 30 H -1.4058 1.0791 -1.1648 0
M  V30 31 H -2.0705 0.3155 0.2629 0
M  V30 32 H -0.2369 2.7585 0.2959 0
M  V30 33 H -0.8803 1.9729 1.7343 0
M  V30 34 H -1.3334 -1.667 1.578 0
M  V30 35 H 0.5219 0.568 -2.5771 0
M  V30 36 H 1.0354 2.476 2.8687 0
M  V30 37 H 1.6772 3.2667 1.43 0
M  V30 38 H 3.0215 -0.5779 3.7417 0
M  V30 39 H 3.2454 1.4006 2.1832 0
M  V30 40 H -0.5081 -3.0108 3.4531 0
M  V30 41 H 4.6503 1.4362 0.079 0
M  V30 42 H 2.6802 0.8769 -3.6987 0
M  V30 43 H 1.6592 -2.4953 4.5316 0
M  V30 44 H 4.7431 1.2943 -2.396 0
M  V30 END ATOM
M  V30 BEGIN BOND
M  V30 1 1 1 2
M  V30 2 1 1 3
M  V30 3 1 2 4
M  V30 4 1 4 5
M  V30 5 1 5 6
M  V30 6 1 6 7
M  V30 7 1 6 8
M  V30 8 1 6 9
M  V30 9 2 7 10
M  V30 10 1 7 11
M  V30 11 2 8 12
M  V30 12 1 8 13
M  V30 13 1 9 14
M  V30 14 1 10 15
M  V30 15 1 10 16
M  V30 16 2 11 17
M  V30 17 1 12 18
M  V30 18 2 13 19
M  V30 19 2 15 20
M  V30 20 2 18 21
M  V30 21 1 12 16
M  V30 22 1 14 16
M  V30 23 1 17 20
M  V30 24 1 19 21
M  V30 25 1 1 22
M  V30 26 1 2 23
M  V30 27 1 2 24
M  V30 28 1 3 25
M  V30 29 1 3 26
M  V30 30 1 3 27
M  V30 31 1 4 28
M  V30 32 1 4 29
M  V30 33 1 5 30
M  V30 34 1 5 31
M  V30 35 1 9 32
M  V30 36 1 9 33
M  V30 37 1 11 34
M  V30 38 1 13 35
M  V30 39 1 14 36
M  V30 40 1 14 37
M  V30 41 1 15 38
M  V30 42 1 16 39
M  V30 43 1 17 40
M  V30 44 1 18 41
M  V30 45 1 19 42
M  V30 46 1 20 43
M  V30 47 1 21 44
M  V30 END BOND
M  V30 END CTAB
M  END
>  <Column 1>
893

>  <level_0>
1025

>  <index>
1025

>  <Unnamed: 0>
1025

>  <NO.>
1037

>  <Name>
maprotiline

>  <IUPAC_name>
n-methyl-3-(1-tetracyclo[6.6.2.02-7.09-14]hexadeca-2-4-6-9-11-13-hexaenyl)propan-1-amine

>  <SMILES>
CNCCCC12CCC(c3ccccc31)c1ccccc12

>  <CID>
4011

>  <logBB>
1.3

>  <BBB+/BBB->
BBB+

>  <Inchi>
InChI=1S/C20H23N/c1-21-14-6-12-20-13-11-15(16-7-2-4-9-18(16)20)17-8-3-5-10-19(17)20/h2-5-7-10-15-21H-6-11-14H2-1H3

>  <threshold>


>  <reference>
R2|R2|R25|R27|R46|

>  <group>
A

>  <Class>
1

>  <ABC>
16.69

>  <ABCGG>
12.91

>  <nAcid>
0

>  <nBase>
1

>  <nAromAtom>
12

>  <nAromBond>
12

>  <nAtom>
44

>  <nHeavyAtom>
21

>  <nSpiro>
0

>  <nBridgehead>
2

>  <nHetero>
1

>  <nN>
1

>  <nO>
0

>  <nF>
0

>  <BalabanJ>
1.63

>  <BertzCT>
610.89

>  <nBonds>
47

>  <nBondsO>
24

>  <nBondsS>
35

>  <nBondsD>
0

>  <nBondsT>
0

>  <nBondsA>
12

>  <nBondsM>
12

>  <nBondsKS>
41

>  <nBondsKD>
6

>  <RNCG>
0.29

>  <RPCG>
0.11

>  <FCSP3>
0.4

>  <SZ>
25

>  <Sm>
23.1

>  <Sv>
26.99

>  <Sse>
42.87

>  <Sp>
29.84

>  <Si>
49.07

>  <MZ>
0.57

>  <Mm>
0.52

>  <Mv>
0.61

>  <Mse>
0.97

>  <Mp>
0.68

>  <Mi>
1.12

>  <NsCH3>
1

>  <NdCH2>
0

>  <NssCH2>
5

>  <NtCH>
0

>  <NdsCH>
0

>  <NaaCH>
8

>  <NsssCH>
1

>  <NddC>
0

>  <NtsC>
0

>  <NdssC>
0

>  <NaasC>
4

>  <NaaaC>
0

>  <NssssC>
1

>  <NsNH3>
0

>  <NsNH2>
0

>  <NssNH2>
0

>  <NdNH>
0

>  <NssNH>
1

>  <NaaNH>
0

>  <NtN>
0

>  <NsssNH>
0

>  <NdsN>
0

>  <NaaN>
0

>  <NsssN>
0

>  <NddsN>
0

>  <NaasN>
0

>  <NssssN>
0

>  <NsOH>
0

>  <NdO>
0

>  <NssO>
0

>  <NaaO>
0

>  <NsF>
0

>  <NsSiH3>
0

>  <NssSiH2>
0

>  <NsssSiH>
0

>  <NssssSi>
0

>  <NsPH2>
0

>  <NssPH>
0

>  <NsssP>
0

>  <NdsssP>
0

>  <NsssssP>
0

>  <NsSH>
0

>  <NdS>
0

>  <NssS>
0

>  <NaaS>
0

>  <NdssS>
0

>  <NddssS>
0

>  <NsCl>
0

>  <NsBr>
0

>  <NsI>
0

>  <fragCpx>
156.01

>  <fMF>
0.36

>  <nHBAcc>
1

>  <nHBDon>
1

>  <Kier1>
14.58

>  <Kier2>
5.89

>  <Lipinski>
1

>  <GhoseFilter>
1

>  <FilterItLogS>
-6.21

>  <VMcGowan>
233.4

>  <LabuteASA>
126.95

>  <PEOE_VSA1>
5.32

>  <PEOE_VSA2>
0

>  <PEOE_VSA3>
0

>  <PEOE_VSA4>
0

>  <PEOE_VSA5>
0

>  <PEOE_VSA6>
48.53

>  <PEOE_VSA7>
61.53

>  <PEOE_VSA8>
11.33

>  <PEOE_VSA9>
0

>  <PEOE_VSA10>
0

>  <PEOE_VSA11>
0

>  <PEOE_VSA12>
0

>  <PEOE_VSA13>
0

>  <SMR_VSA1>
0

>  <SMR_VSA2>
0

>  <SMR_VSA3>
5.32

>  <SMR_VSA4>
0

>  <SMR_VSA5>
37.02

>  <SMR_VSA6>
13.59

>  <SMR_VSA7>
70.78

>  <SMR_VSA8>
0

>  <SMR_VSA9>
0

>  <SlogP_VSA1>
5.32

>  <SlogP_VSA2>
13.59

>  <SlogP_VSA3>
5.41

>  <SlogP_VSA4>
0

>  <SlogP_VSA5>
53.86

>  <SlogP_VSA6>
48.53

>  <SlogP_VSA7>
0

>  <SlogP_VSA8>
0

>  <SlogP_VSA9>
0

>  <SlogP_VSA10>
0

>  <SlogP_VSA11>
0

>  <EState_VSA1>
0

>  <EState_VSA2>
5.41

>  <EState_VSA3>
5.92

>  <EState_VSA4>
6.54

>  <EState_VSA5>
25.68

>  <EState_VSA6>
22.25

>  <EState_VSA7>
0

>  <EState_VSA8>
60.9

>  <EState_VSA9>
0

>  <EState_VSA10>
0

>  <VSA_EState1>
0

>  <VSA_EState2>
0

>  <VSA_EState3>
3.31

>  <VSA_EState4>
6.66

>  <VSA_EState5>
0.63

>  <VSA_EState6>
18.37

>  <VSA_EState7>
5.13

>  <VSA_EState8>
1.11

>  <VSA_EState9>
2.05

>  <apol>
49.84

>  <bpol>
23.64

>  <nRing>
5

>  <nHRing>
0

>  <naRing>
2

>  <naHRing>
0

>  <nARing 2>
3

>  <nAHRing 2>
0

>  <nFRing>
1

>  <nFHRing>
0

>  <nFaRing>
0

>  <nFaHRing>
0

>  <nFARing 2>
1

>  <nFAHRing 2>
0

>  <nRot>
4

>  <SLogP>
4.21

>  <SMR>
87.9

>  <TopoPSA(NO)>
12.03

>  <TopoPSA>
12.03

>  <JGI1>
0.13

>  <JGI2>
0.09

>  <JGI3>
0.05

>  <JGI4>
0.04

>  <JGI5>
0.02

>  <Diameter>
9

>  <Radius>
5

>  <TMWC10>
122.04

>  <TSRW10>
56.12

>  <MW>
277.18

>  <AMW>
6.3

>  <WPath>
810

>  <WPol>
40

>  <Zagreb1>
118

>  <Zagreb2>
148

>  <mZagreb2>
4.69

>  <yes>


>  <nAR-cont>
0.691115

>  <nHA-cont>
0.994529749

>  <MWHBN>
0.120129329

>  <MWHBN-cont>
0.829933407

>  <TPSA-cont>
0.91602313

>  <pka_cont>
0.97

>  <yes.1>


>  <BBB_SCORE>
5.247591119

>  <MMFF94 Energy>
93.883

$$$$
Compound 745
Actelion Java MolfileCreator 2.0

  0  0  0  0  0  0              0 V3000
M  V30 BEGIN CTAB
M  V30 COUNTS 53 55 0 0 0
M  V30 BEGIN ATOM
M  V30 1 O -2.2164 -0.2373 -1.7412 0
M  V30 2 C -1.162 0.1053 -0.8149 0 CFG=2
M  V30 3 C -1.8151 0.4326 0.5425 0
M  V30 4 C -0.3715 1.296 -1.4798 0
M  V30 5 C -0.3193 -1.1931 -0.6558 0
M  V30 6 C -1.3022 1.4035 1.4197 0
M  V30 7 C -2.9383 -0.3027 0.9741 0
M  V30 8 C 0.3426 0.8855 -2.7909 0
M  V30 9 C -1.2836 2.5129 -1.7843 0
M  V30 10 C 0.9204 -1.0516 0.2419 0
M  V30 11 C -1.9056 1.6521 2.6567 0
M  V30 12 C -3.5406 -0.0551 2.2096 0
M  V30 13 C 1.1117 2.0477 -3.4198 0
M  V30 14 C -0.5023 3.6765 -2.3915 0
M  V30 15 N 1.7798 -2.251 0.2353 0
M  V30 16 C -3.026 0.9264 3.0494 0
M  V30 17 C 0.2189 3.2563 -3.665 0
M  V30 18 C 1.1617 -3.4363 0.8509 0
M  V30 19 C 3.0879 -1.9836 0.8575 0
M  V30 20 C 1.0241 -3.3489 2.3732 0
M  V30 21 C 3.0339 -1.8359 2.3808 0
M  V30 22 C 2.3654 -3.0424 3.0315 0
M  V30 23 H -2.9554 0.3726 -1.573 0
M  V30 24 H 0.412 1.634 -0.7905 0
M  V30 25 H -0.9729 -1.9828 -0.2629 0
M  V30 26 H -0.022 -1.564 -1.6452 0
M  V30 27 H -0.4194 1.9839 1.1666 0
M  V30 28 H -3.3489 -1.0924 0.3456 0
M  V30 29 H 1.0608 0.0811 -2.6032 0
M  V30 30 H -0.3878 0.503 -3.5143 0
M  V30 31 H -1.7784 2.8695 -0.8757 0
M  V30 32 H -2.0786 2.2256 -2.4834 0
M  V30 33 H 1.5157 -0.213 -0.1353 0
M  V30 34 H 0.6197 -0.7892 1.2609 0
M  V30 35 H -1.4944 2.412 3.3167 0
M  V30 36 H -4.4073 -0.635 2.5163 0
M  V30 37 H 1.558 1.7225 -4.3664 0
M  V30 38 H 1.9399 2.3336 -2.7595 0
M  V30 39 H 0.2248 4.0511 -1.6607 0
M  V30 40 H -1.187 4.5029 -2.6136 0
M  V30 41 H -3.4916 1.1196 4.0122 0
M  V30 42 H 0.8202 4.0907 -4.043 0
M  V30 43 H -0.5179 3.0154 -4.441 0
M  V30 44 H 1.7831 -4.3082 0.6054 0
M  V30 45 H 0.1877 -3.6566 0.4028 0
M  V30 46 H 3.5451 -1.0901 0.4148 0
M  V30 47 H 3.7653 -2.8098 0.6044 0
M  V30 48 H 0.6369 -4.2983 2.7609 0
M  V30 49 H 0.293 -2.5785 2.645 0
M  V30 50 H 2.4912 -0.9228 2.6531 0
M  V30 51 H 4.0507 -1.7251 2.7745 0
M  V30 52 H 2.2266 -2.8635 4.1035 0
M  V30 53 H 3.0231 -3.9152 2.9355 0
M  V30 END ATOM
M  V30 BEGIN BOND
M  V30 1 1 1 2
M  V30 2 1 2 3
M  V30 3 1 2 4
M  V30 4 1 2 5
M  V30 5 2 3 6
M  V30 6 1 3 7
M  V30 7 1 4 8
M  V30 8 1 4 9
M  V30 9 1 5 10
M  V30 10 1 6 11
M  V30 11 2 7 12
M  V30 12 1 8 13
M  V30 13 1 9 14
M  V30 14 1 10 15
M  V30 15 2 11 16
M  V30 16 1 13 17
M  V30 17 1 15 18
M  V30 18 1 15 19
M  V30 19 1 18 20
M  V30 20 1 19 21
M  V30 21 1 20 22
M  V30 22 1 12 16
M  V30 23 1 14 17
M  V30 24 1 21 22
M  V30 25 1 1 23
M  V30 26 1 4 24
M  V30 27 1 5 25
M  V30 28 1 5 26
M  V30 29 1 6 27
M  V30 30 1 7 28
M  V30 31 1 8 29
M  V30 32 1 8 30
M  V30 33 1 9 31
M  V30 34 1 9 32
M  V30 35 1 10 33
M  V30 36 1 10 34
M  V30 37 1 11 35
M  V30 38 1 12 36
M  V30 39 1 13 37
M  V30 40 1 13 38
M  V30 41 1 14 39
M  V30 42 1 14 40
M  V30 43 1 16 41
M  V30 44 1 17 42
M  V30 45 1 17 43
M  V30 46 1 18 44
M  V30 47 1 18 45
M  V30 48 1 19 46
M  V30 49 1 19 47
M  V30 50 1 20 48
M  V30 51 1 20 49
M  V30 52 1 21 50
M  V30 53 1 21 51
M  V30 54 1 22 52
M  V30 55 1 22 53
M  V30 END BOND
M  V30 BEGIN COLLECTION
M  V30 MDLV30/STERAC1 ATOMS=(1 2)
M  V30 END COLLECTION
M  V30 END CTAB
M  END
>  <Column 1>
894

>  <level_0>
1026

>  <index>
1026

>  <Unnamed: 0>
1026

>  <NO.>
1038

>  <Name>
trihexyphenidyl

>  <IUPAC_name>
1-cyclohexyl-1-phenyl-3-piperidin-1-ylpropan-1-ol

>  <SMILES>
OC(CCN1CCCCC1)(c1ccccc1)C1CCCCC1

>  <CID>
5572

>  <logBB>
1.32

>  <BBB+/BBB->
BBB+

>  <Inchi>
InChI=1S/C20H31NO/c22-20(18-10-4-1-5-11-18-19-12-6-2-7-13-19)14-17-21-15-8-3-9-16-21/h1-4-5-10-11-19-22H-2-3-6-9-12-17H2

>  <threshold>


>  <reference>
R47|

>  <group>
A

>  <Class>
1

>  <ABC>
17.01

>  <ABCGG>
13.87

>  <nAcid>
0

>  <nBase>
1

>  <nAromAtom>
6

>  <nAromBond>
6

>  <nAtom>
53

>  <nHeavyAtom>
22

>  <nSpiro>
0

>  <nBridgehead>
0

>  <nHetero>
2

>  <nN>
1

>  <nO>
1

>  <nF>
0

>  <BalabanJ>
1.63

>  <BertzCT>
434.28

>  <nBonds>
55

>  <nBondsO>
24

>  <nBondsS>
49

>  <nBondsD>
0

>  <nBondsT>
0

>  <nBondsA>
6

>  <nBondsM>
6

>  <nBondsKS>
52

>  <nBondsKD>
3

>  <RNCG>
0.27

>  <RPCG>
0.15

>  <FCSP3>
0.7

>  <SZ>
27.67

>  <Sm>
25.1

>  <Sv>
29.87

>  <Sse>
51.76

>  <Sp>
33.52

>  <Si>
59.94

>  <MZ>
0.52

>  <Mm>
0.47

>  <Mv>
0.56

>  <Mse>
0.98

>  <Mp>
0.63

>  <Mi>
1.13

>  <NsCH3>
0

>  <NdCH2>
0

>  <NssCH2>
12

>  <NtCH>
0

>  <NdsCH>
0

>  <NaaCH>
5

>  <NsssCH>
1

>  <NddC>
0

>  <NtsC>
0

>  <NdssC>
0

>  <NaasC>
1

>  <NaaaC>
0

>  <NssssC>
1

>  <NsNH3>
0

>  <NsNH2>
0

>  <NssNH2>
0

>  <NdNH>
0

>  <NssNH>
0

>  <NaaNH>
0

>  <NtN>
0

>  <NsssNH>
0

>  <NdsN>
0

>  <NaaN>
0

>  <NsssN>
1

>  <NddsN>
0

>  <NaasN>
0

>  <NssssN>
0

>  <NsOH>
1

>  <NdO>
0

>  <NssO>
0

>  <NaaO>
0

>  <NsF>
0

>  <NsSiH3>
0

>  <NssSiH2>
0

>  <NsssSiH>
0

>  <NssssSi>
0

>  <NsPH2>
0

>  <NssPH>
0

>  <NsssP>
0

>  <NdsssP>
0

>  <NsssssP>
0

>  <NsSH>
0

>  <NdS>
0

>  <NssS>
0

>  <NaaS>
0

>  <NdssS>
0

>  <NddssS>
0

>  <NsCl>
0

>  <NsBr>
0

>  <NsI>
0

>  <fragCpx>
114.02

>  <fMF>
0.4

>  <nHBAcc>
2

>  <nHBDon>
1

>  <Kier1>
16.84

>  <Kier2>
8.2

>  <Lipinski>
1

>  <GhoseFilter>
1

>  <FilterItLogS>
-4.07

>  <VMcGowan>
263.03

>  <LabuteASA>
135.08

>  <PEOE_VSA1>
10.01

>  <PEOE_VSA2>
0

>  <PEOE_VSA3>
0

>  <PEOE_VSA4>
0

>  <PEOE_VSA5>
0

>  <PEOE_VSA6>
56.02

>  <PEOE_VSA7>
56.67

>  <PEOE_VSA8>
6.54

>  <PEOE_VSA9>
5.6

>  <PEOE_VSA10>
0

>  <PEOE_VSA11>
0

>  <PEOE_VSA12>
0

>  <PEOE_VSA13>
0

>  <SMR_VSA1>
5.11

>  <SMR_VSA2>
0

>  <SMR_VSA3>
4.9

>  <SMR_VSA4>
5.92

>  <SMR_VSA5>
63.39

>  <SMR_VSA6>
19.63

>  <SMR_VSA7>
35.9

>  <SMR_VSA8>
0

>  <SMR_VSA9>
0

>  <SlogP_VSA1>
0

>  <SlogP_VSA2>
29.64

>  <SlogP_VSA3>
5.6

>  <SlogP_VSA4>
5.92

>  <SlogP_VSA5>
63.35

>  <SlogP_VSA6>
30.33

>  <SlogP_VSA7>
0

>  <SlogP_VSA8>
0

>  <SlogP_VSA9>
0

>  <SlogP_VSA10>
0

>  <SlogP_VSA11>
0

>  <EState_VSA1>
5.6

>  <EState_VSA2>
0

>  <EState_VSA3>
5.92

>  <EState_VSA4>
18.53

>  <EState_VSA5>
64.46

>  <EState_VSA6>
0

>  <EState_VSA7>
0

>  <EState_VSA8>
35.23

>  <EState_VSA9>
0

>  <EState_VSA10>
5.11

>  <VSA_EState1>
0

>  <VSA_EState2>
2.56

>  <VSA_EState3>
11.61

>  <VSA_EState4>
0.51

>  <VSA_EState5>
0.44

>  <VSA_EState6>
10.46

>  <VSA_EState7>
11.2

>  <VSA_EState8>
3.48

>  <VSA_EState9>
0

>  <apol>
55.97

>  <bpol>
32.81

>  <nRing>
3

>  <nHRing>
1

>  <naRing>
1

>  <naHRing>
0

>  <nARing 2>
2

>  <nAHRing 2>
1

>  <nFRing>
0

>  <nFHRing>
0

>  <nFaRing>
0

>  <nFaHRing>
0

>  <nFARing 2>
0

>  <nFAHRing 2>
0

>  <nRot>
5

>  <SLogP>
4.33

>  <SMR>
91.82

>  <TopoPSA(NO)>
23.47

>  <TopoPSA>
23.47

>  <JGI1>
0.15

>  <JGI2>
0.08

>  <JGI3>
0.04

>  <JGI4>
0.02

>  <JGI5>
0.02

>  <Diameter>
10

>  <Radius>
5

>  <TMWC10>
119.58

>  <TSRW10>
56.03

>  <MW>
301.24

>  <AMW>
5.68

>  <WPath>
1039

>  <WPol>
33

>  <Zagreb1>
112

>  <Zagreb2>
130

>  <mZagreb2>
4.96

>  <yes>


>  <nAR-cont>
1

>  <nHA-cont>
0.983774276

>  <MWHBN>
0.172848229

>  <MWHBN-cont>
0.978218267

>  <TPSA-cont>
0.836164826

>  <pka_cont>
0.97

>  <yes.1>


>  <BBB_SCORE>
5.608431328

>  <MMFF94 Energy>
42.873

$$$$
Compound 746
Actelion Java MolfileCreator 2.0

  0  0  0  0  0  0              0 V3000
M  V30 BEGIN CTAB
M  V30 COUNTS 37 39 0 0 0
M  V30 BEGIN ATOM
M  V30 1 Cl 0.5717 1.2255 2.6158 0
M  V30 2 C -0.1564 -0.3421 2.548 0
M  V30 3 C -0.5803 -0.9168 1.33 0
M  V30 4 C -0.3403 -1.0089 3.7645 0
M  V30 5 N -0.3399 -0.2692 0.0689 0
M  V30 6 C -1.2381 -2.1664 1.3813 0
M  V30 7 C -0.9551 -2.2568 3.7925 0
M  V30 8 C -1.2772 -0.3966 -0.9958 0
M  V30 9 C 1.0619 -0.5671 -0.3625 0
M  V30 10 S -1.8867 -2.9685 -0.0808 0
M  V30 11 C -1.4052 -2.8311 2.606 0
M  V30 12 C -2.0119 -1.5811 -1.1973 0
M  V30 13 C -1.5091 0.6874 -1.857 0
M  V30 14 C 1.6795 0.4278 -1.3498 0
M  V30 15 C -2.8886 -1.6888 -2.2863 0
M  V30 16 C -2.3947 0.5798 -2.9312 0
M  V30 17 C 1.8705 1.8497 -0.8187 0
M  V30 18 C -3.075 -0.6128 -3.1535 0
M  V30 19 N 2.9035 1.9042 0.2196 0
M  V30 20 C 3.2079 3.2878 0.5703 0
M  V30 21 H -0.0096 -0.5545 4.6955 0
M  V30 22 H -1.0972 -2.7753 4.7375 0
M  V30 23 H 1.0918 -1.5674 -0.8184 0
M  V30 24 H 1.7311 -0.6282 0.5058 0
M  V30 25 H -1.9011 -3.7992 2.6426 0
M  V30 26 H -1.0046 1.6338 -1.6858 0
M  V30 27 H 1.0953 0.4665 -2.2746 0
M  V30 28 H 2.6598 0.0356 -1.6537 0
M  V30 29 H -3.4472 -2.6067 -2.454 0
M  V30 30 H -2.5546 1.4299 -3.5895 0
M  V30 31 H 0.9255 2.2522 -0.4383 0
M  V30 32 H 2.1762 2.4776 -1.6648 0
M  V30 33 H -3.7644 -0.7007 -3.9892 0
M  V30 34 H 2.5443 1.4437 1.0591 0
M  V30 35 H 2.3211 3.8139 0.9388 0
M  V30 36 H 3.6182 3.8318 -0.2863 0
M  V30 37 H 3.9628 3.3039 1.3626 0
M  V30 END ATOM
M  V30 BEGIN BOND
M  V30 1 1 1 2
M  V30 2 2 2 3
M  V30 3 1 2 4
M  V30 4 1 3 5
M  V30 5 1 3 6
M  V30 6 2 4 7
M  V30 7 1 5 8
M  V30 8 1 5 9
M  V30 9 1 6 10
M  V30 10 2 6 11
M  V30 11 2 8 12
M  V30 12 1 8 13
M  V30 13 1 9 14
M  V30 14 1 12 15
M  V30 15 2 13 16
M  V30 16 1 14 17
M  V30 17 2 15 18
M  V30 18 1 17 19
M  V30 19 1 19 20
M  V30 20 1 7 11
M  V30 21 1 10 12
M  V30 22 1 16 18
M  V30 23 1 4 21
M  V30 24 1 7 22
M  V30 25 1 9 23
M  V30 26 1 9 24
M  V30 27 1 11 25
M  V30 28 1 13 26
M  V30 29 1 14 27
M  V30 30 1 14 28
M  V30 31 1 15 29
M  V30 32 1 16 30
M  V30 33 1 17 31
M  V30 34 1 17 32
M  V30 35 1 18 33
M  V30 36 1 19 34
M  V30 37 1 20 35
M  V30 38 1 20 36
M  V30 39 1 20 37
M  V30 END BOND
M  V30 END CTAB
M  END
>  <Column 1>
895

>  <level_0>
1027

>  <index>
1027

>  <Unnamed: 0>
1027

>  <NO.>
1039

>  <Name>
nor-1-chlorpromazine

>  <IUPAC_name>
3-(1-chlorophenothiazin-10-yl)-n-methylpropan-1-amine

>  <SMILES>
CNCCCN1c2ccccc2Sc2cccc(Cl)c21

>  <CID>
154294793

>  <logBB>
1.37

>  <BBB+/BBB->
BBB+

>  <Inchi>
InChI=1S/C16H17ClN2S/c1-18-10-5-11-19-13-7-2-3-8-14(13)20-15-9-4-6-12(17)16(15)19/h2-4-6-9-18H-5-10-11H2-1H3

>  <threshold>


>  <reference>
R18|R26|R27|

>  <group>
A

>  <Class>
1

>  <ABC>
15.46

>  <ABCGG>
12.43

>  <nAcid>
0

>  <nBase>
1

>  <nAromAtom>
12

>  <nAromBond>
12

>  <nAtom>
37

>  <nHeavyAtom>
20

>  <nSpiro>
0

>  <nBridgehead>
0

>  <nHetero>
4

>  <nN>
2

>  <nO>
0

>  <nF>
0

>  <BalabanJ>
1.74

>  <BertzCT>
615.18

>  <nBonds>
39

>  <nBondsO>
22

>  <nBondsS>
27

>  <nBondsD>
0

>  <nBondsT>
0

>  <nBondsA>
12

>  <nBondsM>
12

>  <nBondsKS>
33

>  <nBondsKD>
6

>  <RNCG>
0.28

>  <RPCG>
0.1

>  <FCSP3>
0.25

>  <SZ>
26.67

>  <Sm>
25.38

>  <Sv>
24.4

>  <Sse>
36.72

>  <Sp>
27.15

>  <Si>
41.18

>  <MZ>
0.72

>  <Mm>
0.69

>  <Mv>
0.66

>  <Mse>
0.99

>  <Mp>
0.73

>  <Mi>
1.11

>  <NsCH3>
1

>  <NdCH2>
0

>  <NssCH2>
3

>  <NtCH>
0

>  <NdsCH>
0

>  <NaaCH>
7

>  <NsssCH>
0

>  <NddC>
0

>  <NtsC>
0

>  <NdssC>
0

>  <NaasC>
5

>  <NaaaC>
0

>  <NssssC>
0

>  <NsNH3>
0

>  <NsNH2>
0

>  <NssNH2>
0

>  <NdNH>
0

>  <NssNH>
1

>  <NaaNH>
0

>  <NtN>
0

>  <NsssNH>
0

>  <NdsN>
0

>  <NaaN>
0

>  <NsssN>
1

>  <NddsN>
0

>  <NaasN>
0

>  <NssssN>
0

>  <NsOH>
0

>  <NdO>
0

>  <NssO>
0

>  <NaaO>
0

>  <NsF>
0

>  <NsSiH3>
0

>  <NssSiH2>
0

>  <NsssSiH>
0

>  <NssssSi>
0

>  <NsPH2>
0

>  <NssPH>
0

>  <NsssP>
0

>  <NdsssP>
0

>  <NsssssP>
0

>  <NsSH>
0

>  <NdS>
0

>  <NssS>
1

>  <NaaS>
0

>  <NdssS>
0

>  <NddssS>
0

>  <NsCl>
1

>  <NsBr>
0

>  <NsI>
0

>  <fragCpx>
104.04

>  <fMF>
0.38

>  <nHBAcc>
3

>  <nHBDon>
1

>  <Kier1>
14.92

>  <Kier2>
6.84

>  <Lipinski>
1

>  <GhoseFilter>
1

>  <FilterItLogS>
-5.55

>  <VMcGowan>
226.47

>  <LabuteASA>
128.68

>  <PEOE_VSA1>
10.22

>  <PEOE_VSA2>
0

>  <PEOE_VSA3>
0

>  <PEOE_VSA4>
0

>  <PEOE_VSA5>
0

>  <PEOE_VSA6>
41.56

>  <PEOE_VSA7>
44.28

>  <PEOE_VSA8>
16.34

>  <PEOE_VSA9>
16.4

>  <PEOE_VSA10>
0

>  <PEOE_VSA11>
0

>  <PEOE_VSA12>
0

>  <PEOE_VSA13>
0

>  <SMR_VSA1>
0

>  <SMR_VSA2>
0

>  <SMR_VSA3>
5.32

>  <SMR_VSA4>
0

>  <SMR_VSA5>
16.21

>  <SMR_VSA6>
25.04

>  <SMR_VSA7>
47.49

>  <SMR_VSA8>
0

>  <SMR_VSA9>
0

>  <SlogP_VSA1>
10.22

>  <SlogP_VSA2>
20.14

>  <SlogP_VSA3>
0

>  <SlogP_VSA4>
0

>  <SlogP_VSA5>
6.42

>  <SlogP_VSA6>
52.26

>  <SlogP_VSA7>
5.02

>  <SlogP_VSA8>
0

>  <SlogP_VSA9>
0

>  <SlogP_VSA10>
11.37

>  <SlogP_VSA11>
0

>  <EState_VSA1>
0

>  <EState_VSA2>
0

>  <EState_VSA3>
0

>  <EState_VSA4>
30.22

>  <EState_VSA5>
15.48

>  <EState_VSA6>
11.76

>  <EState_VSA7>
19.18

>  <EState_VSA8>
40.55

>  <EState_VSA9>
11.6

>  <EState_VSA10>
0

>  <VSA_EState1>
0

>  <VSA_EState2>
4.88

>  <VSA_EState3>
4.03

>  <VSA_EState4>
2.41

>  <VSA_EState5>
0

>  <VSA_EState6>
14.67

>  <VSA_EState7>
1.08

>  <VSA_EState8>
1.97

>  <VSA_EState9>
1.99

>  <apol>
45.34

>  <bpol>
22.3

>  <nRing>
3

>  <nHRing>
1

>  <naRing>
2

>  <naHRing>
0

>  <nARing 2>
1

>  <nAHRing 2>
1

>  <nFRing>
1

>  <nFHRing>
1

>  <nFaRing>
0

>  <nFaHRing>
0

>  <nFARing 2>
1

>  <nFAHRing 2>
1

>  <nRot>
4

>  <SLogP>
4.55

>  <SMR>
87.57

>  <TopoPSA(NO)>
15.27

>  <TopoPSA>
40.57

>  <JGI1>
0.11

>  <JGI2>
0.07

>  <JGI3>
0.05

>  <JGI4>
0.05

>  <JGI5>
0.02

>  <Diameter>
9

>  <Radius>
5

>  <TMWC10>
116.02

>  <TSRW10>
53.87

>  <MW>
304.08

>  <AMW>
8.22

>  <WPath>
759

>  <WPol>
33

>  <Zagreb1>
104

>  <Zagreb2>
124

>  <mZagreb2>
4.56

>  <yes>


>  <nAR-cont>
0.816016

>  <nHA-cont>
0.999629945

>  <MWHBN>
0.229385554

>  <MWHBN-cont>
0.987380546

>  <TPSA-cont>
0.716796208

>  <pka_cont>
0.97

>  <yes.1>


>  <BBB_SCORE>
5.215309179

>  <MMFF94 Energy>
85.822

$$$$
Compound 747
Actelion Java MolfileCreator 2.0

  0  0  0  0  0  0              0 V3000
M  V30 BEGIN CTAB
M  V30 COUNTS 38 39 0 0 0
M  V30 BEGIN ATOM
M  V30 1 I -0.7202 -2.0818 -7.5422 0
M  V30 2 C -0.5767 -1.5815 -5.5326 0
M  V30 3 C 0.5505 -0.9206 -5.0584 0
M  V30 4 C -1.6053 -1.911 -4.6581 0
M  V30 5 C 0.643 -0.5867 -3.7006 0
M  V30 6 C -1.5008 -1.5693 -3.3039 0
M  V30 7 C -0.3814 -0.893 -2.7912 0
M  V30 8 N -0.3045 -0.5742 -1.4397 0
M  V30 9 C 0.9974 -0.2848 -0.8155 0
M  V30 10 C -1.4417 0.1427 -0.8307 0
M  V30 11 C 0.9221 -0.4261 0.7218 0
M  V30 12 C -1.434 0.004 0.7095 0
M  V30 13 N -0.1478 0.4036 1.3239 0
M  V30 14 C -0.1852 0.2543 2.7875 0
M  V30 15 C 0.3357 1.5191 3.5034 0
M  V30 16 C 0.1734 1.359 5.018 0
M  V30 17 C 1.7947 1.8397 3.1758 0
M  V30 18 H 1.366 -0.6537 -5.7246 0
M  V30 19 H -2.4898 -2.4387 -5.0035 0
M  V30 20 H 1.5326 -0.0566 -3.3732 0
M  V30 21 H -2.3044 -1.8729 -2.6382 0
M  V30 22 H 1.3161 0.7324 -1.0754 0
M  V30 23 H 1.7607 -0.986 -1.1742 0
M  V30 24 H -2.4072 -0.2285 -1.1898 0
M  V30 25 H -1.3808 1.2041 -1.1042 0
M  V30 26 H 1.8961 -0.1414 1.1344 0
M  V30 27 H 0.7623 -1.4845 0.97 0
M  V30 28 H -1.6715 -1.0354 0.9736 0
M  V30 29 H -2.2383 0.6357 1.1063 0
M  V30 30 H 0.3764 -0.6288 3.12 0
M  V30 31 H -1.2168 0.0881 3.1271 0
M  V30 32 H -0.278 2.3748 3.1923 0
M  V30 33 H 0.7686 0.5204 5.3948 0
M  V30 34 H -0.874 1.1774 5.2809 0
M  V30 35 H 0.4945 2.2654 5.5423 0
M  V30 36 H 2.4493 0.994 3.4113 0
M  V30 37 H 1.9193 2.0883 2.1175 0
M  V30 38 H 2.141 2.7043 3.7527 0
M  V30 END ATOM
M  V30 BEGIN BOND
M  V30 1 1 1 2
M  V30 2 2 2 3
M  V30 3 1 2 4
M  V30 4 1 3 5
M  V30 5 2 4 6
M  V30 6 2 5 7
M  V30 7 1 7 8
M  V30 8 1 8 9
M  V30 9 1 8 10
M  V30 10 1 9 11
M  V30 11 1 10 12
M  V30 12 1 11 13
M  V30 13 1 13 14
M  V30 14 1 14 15
M  V30 15 1 15 16
M  V30 16 1 15 17
M  V30 17 1 6 7
M  V30 18 1 12 13
M  V30 19 1 3 18
M  V30 20 1 4 19
M  V30 21 1 5 20
M  V30 22 1 6 21
M  V30 23 1 9 22
M  V30 24 1 9 23
M  V30 25 1 10 24
M  V30 26 1 10 25
M  V30 27 1 11 26
M  V30 28 1 11 27
M  V30 29 1 12 28
M  V30 30 1 12 29
M  V30 31 1 14 30
M  V30 32 1 14 31
M  V30 33 1 15 32
M  V30 34 1 16 33
M  V30 35 1 16 34
M  V30 36 1 16 35
M  V30 37 1 17 36
M  V30 38 1 17 37
M  V30 39 1 17 38
M  V30 END BOND
M  V30 END CTAB
M  END
>  <Column 1>
896

>  <level_0>
1028

>  <index>
1028

>  <Unnamed: 0>
1028

>  <NO.>
1040

>  <Name>
1-isobutyl-4-(4-iodophenyl)piperazine

>  <IUPAC_name>
1-(4-iodophenyl)-4-(2-methylpropyl)piperazine

>  <SMILES>
CC(C)CN1CCN(c2ccc(I)cc2)CC1

>  <CID>
13720674

>  <logBB>
1.38

>  <BBB+/BBB->
BBB+

>  <Inchi>
InChI=1S/C14H21IN2/c1-12(2)11-16-7-9-17(10-8-16)14-5-3-13(15)4-6-14/h3-6-12H-7-11H2-1-2H3

>  <threshold>


>  <reference>
R2|R2|R25|R27|R46|

>  <group>
A

>  <Class>
1

>  <ABC>
13.02

>  <ABCGG>
10.5

>  <nAcid>
0

>  <nBase>
1

>  <nAromAtom>
6

>  <nAromBond>
6

>  <nAtom>
38

>  <nHeavyAtom>
17

>  <nSpiro>
0

>  <nBridgehead>
0

>  <nHetero>
3

>  <nN>
2

>  <nO>
0

>  <nF>
0

>  <BalabanJ>
1.71

>  <BertzCT>
339.74

>  <nBonds>
39

>  <nBondsO>
18

>  <nBondsS>
33

>  <nBondsD>
0

>  <nBondsT>
0

>  <nBondsA>
6

>  <nBondsM>
6

>  <nBondsKS>
36

>  <nBondsKD>
3

>  <RNCG>
0.36

>  <RPCG>
0.06

>  <FCSP3>
0.57

>  <SZ>
28.67

>  <Sm>
28.66

>  <Sv>
22.79

>  <Sse>
37.16

>  <Sp>
26.91

>  <Si>
42.87

>  <MZ>
0.75

>  <Mm>
0.75

>  <Mv>
0.6

>  <Mse>
0.98

>  <Mp>
0.71

>  <Mi>
1.13

>  <NsCH3>
2

>  <NdCH2>
0

>  <NssCH2>
5

>  <NtCH>
0

>  <NdsCH>
0

>  <NaaCH>
4

>  <NsssCH>
1

>  <NddC>
0

>  <NtsC>
0

>  <NdssC>
0

>  <NaasC>
2

>  <NaaaC>
0

>  <NssssC>
0

>  <NsNH3>
0

>  <NsNH2>
0

>  <NssNH2>
0

>  <NdNH>
0

>  <NssNH>
0

>  <NaaNH>
0

>  <NtN>
0

>  <NsssNH>
0

>  <NdsN>
0

>  <NaaN>
0

>  <NsssN>
2

>  <NddsN>
0

>  <NaasN>
0

>  <NssssN>
0

>  <NsOH>
0

>  <NdO>
0

>  <NssO>
0

>  <NaaO>
0

>  <NsF>
0

>  <NsSiH3>
0

>  <NssSiH2>
0

>  <NsssSiH>
0

>  <NssssSi>
0

>  <NsPH2>
0

>  <NssPH>
0

>  <NsssP>
0

>  <NdsssP>
0

>  <NsssssP>
0

>  <NsSH>
0

>  <NdS>
0

>  <NssS>
0

>  <NaaS>
0

>  <NdssS>
0

>  <NddssS>
0

>  <NsCl>
0

>  <NsBr>
0

>  <NsI>
1

>  <fragCpx>
52.03

>  <fMF>
0.32

>  <nHBAcc>
2

>  <nHBDon>
0

>  <Kier1>
13.43

>  <Kier2>
6.25

>  <Lipinski>
1

>  <GhoseFilter>
1

>  <FilterItLogS>
-3.72

>  <VMcGowan>
219.29

>  <LabuteASA>
118.13

>  <PEOE_VSA1>
4.9

>  <PEOE_VSA2>
4.9

>  <PEOE_VSA3>
0

>  <PEOE_VSA4>
0

>  <PEOE_VSA5>
0

>  <PEOE_VSA6>
13.85

>  <PEOE_VSA7>
52.77

>  <PEOE_VSA8>
41.98

>  <PEOE_VSA9>
0

>  <PEOE_VSA10>
0

>  <PEOE_VSA11>
0

>  <PEOE_VSA12>
0

>  <PEOE_VSA13>
0

>  <SMR_VSA1>
0

>  <SMR_VSA2>
0

>  <SMR_VSA3>
4.9

>  <SMR_VSA4>
5.92

>  <SMR_VSA5>
13.85

>  <SMR_VSA6>
37.62

>  <SMR_VSA7>
27.84

>  <SMR_VSA8>
0

>  <SMR_VSA9>
0

>  <SlogP_VSA1>
4.9

>  <SlogP_VSA2>
37.62

>  <SlogP_VSA3>
0

>  <SlogP_VSA4>
9.49

>  <SlogP_VSA5>
13.85

>  <SlogP_VSA6>
24.27

>  <SlogP_VSA7>
0

>  <SlogP_VSA8>
0

>  <SlogP_VSA9>
0

>  <SlogP_VSA10>
5.69

>  <SlogP_VSA11>
0

>  <EState_VSA1>
0

>  <EState_VSA2>
0

>  <EState_VSA3>
0

>  <EState_VSA4>
19.01

>  <EState_VSA5>
28.89

>  <EState_VSA6>
0

>  <EState_VSA7>
0

>  <EState_VSA8>
70.5

>  <EState_VSA9>
0

>  <EState_VSA10>
0

>  <VSA_EState1>
1.31

>  <VSA_EState2>
5.07

>  <VSA_EState3>
0

>  <VSA_EState4>
1.37

>  <VSA_EState5>
0.78

>  <VSA_EState6>
8.85

>  <VSA_EState7>
0

>  <VSA_EState8>
10.55

>  <VSA_EState9>
0

>  <apol>
44.93

>  <bpol>
28.17

>  <nRing>
2

>  <nHRing>
1

>  <naRing>
1

>  <naHRing>
0

>  <nARing 2>
1

>  <nAHRing 2>
1

>  <nFRing>
0

>  <nFHRing>
0

>  <nFaRing>
0

>  <nFaHRing>
0

>  <nFARing 2>
0

>  <nFAHRing 2>
0

>  <nRot>
3

>  <SLogP>
3.07

>  <SMR>
82.65

>  <TopoPSA(NO)>
6.48

>  <TopoPSA>
6.48

>  <JGI1>
0.22

>  <JGI2>
0.07

>  <JGI3>
0.03

>  <JGI4>
0.04

>  <JGI5>
0.03

>  <Diameter>
11

>  <Radius>
6

>  <TMWC10>
104.8

>  <TSRW10>
49.26

>  <MW>
344.07

>  <AMW>
9.05

>  <WPath>
578

>  <WPol>
22

>  <Zagreb1>
84

>  <Zagreb2>
94

>  <mZagreb2>
3.78

>  <yes>


>  <nAR-cont>
0.816016

>  <nHA-cont>
0.976740822

>  <MWHBN>
0.107821804

>  <MWHBN-cont>
0.772299501

>  <TPSA-cont>
0.954765576

>  <pka_cont>
0.97

>  <yes.1>


>  <BBB_SCORE>
5.345737226

>  <MMFF94 Energy>
99.168

$$$$
Compound 748
Actelion Java MolfileCreator 2.0

  0  0  0  0  0  0              0 V3000
M  V30 BEGIN CTAB
M  V30 COUNTS 35 36 0 0 0
M  V30 BEGIN ATOM
M  V30 1 I -7.2371 0.6416 0.8021 0
M  V30 2 C -5.1816 0.4157 0.6189 0
M  V30 3 C -4.5319 -0.614 1.2898 0
M  V30 4 C -4.4522 1.2966 -0.1706 0
M  V30 5 C -3.1441 -0.761 1.164 0
M  V30 6 C -3.066 1.1367 -0.2892 0
M  V30 7 C -2.3775 0.1023 0.3659 0
M  V30 8 N -0.999 -0.0249 0.2336 0
M  V30 9 C -0.2218 -0.7849 1.2268 0
M  V30 10 C -0.4326 -0.0525 -1.1291 0
M  V30 11 C 1.2784 -0.4133 1.1685 0
M  V30 12 C 1.0755 0.2956 -1.117 0
M  V30 13 N 1.8516 -0.5527 -0.1881 0
M  V30 14 C 3.3085 -0.3229 -0.207 0
M  V30 15 C 3.9197 -0.9029 -1.4892 0
M  V30 16 C 3.7605 1.131 -0.0249 0
M  V30 17 H -5.0831 -1.3135 1.9124 0
M  V30 18 H -4.9368 2.1166 -0.6935 0
M  V30 19 H -2.6766 -1.5877 1.6913 0
M  V30 20 H -2.518 1.863 -0.8839 0
M  V30 21 H -0.5762 -0.5681 2.2422 0
M  V30 22 H -0.3402 -1.8607 1.0448 0
M  V30 23 H -0.5759 -1.0543 -1.5545 0
M  V30 24 H -0.929 0.6571 -1.7994 0
M  V30 25 H 1.8118 -1.0705 1.8659 0
M  V30 26 H 1.3969 0.6152 1.5321 0
M  V30 27 H 1.1781 1.3546 -0.8478 0
M  V30 28 H 1.4467 0.1787 -2.1405 0
M  V30 29 H 3.7457 -0.9056 0.6152 0
M  V30 30 H 3.6139 -1.9452 -1.6333 0
M  V30 31 H 5.0138 -0.8883 -1.43 0
M  V30 32 H 3.6313 -0.3346 -2.3794 0
M  V30 33 H 4.8535 1.1816 0.0368 0
M  V30 34 H 3.4533 1.7644 -0.8635 0
M  V30 35 H 3.3655 1.5654 0.8983 0
M  V30 END ATOM
M  V30 BEGIN BOND
M  V30 1 1 1 2
M  V30 2 2 2 3
M  V30 3 1 2 4
M  V30 4 1 3 5
M  V30 5 2 4 6
M  V30 6 2 5 7
M  V30 7 1 7 8
M  V30 8 1 8 9
M  V30 9 1 8 10
M  V30 10 1 9 11
M  V30 11 1 10 12
M  V30 12 1 11 13
M  V30 13 1 13 14
M  V30 14 1 14 15
M  V30 15 1 14 16
M  V30 16 1 6 7
M  V30 17 1 12 13
M  V30 18 1 3 17
M  V30 19 1 4 18
M  V30 20 1 5 19
M  V30 21 1 6 20
M  V30 22 1 9 21
M  V30 23 1 9 22
M  V30 24 1 10 23
M  V30 25 1 10 24
M  V30 26 1 11 25
M  V30 27 1 11 26
M  V30 28 1 12 27
M  V30 29 1 12 28
M  V30 30 1 14 29
M  V30 31 1 15 30
M  V30 32 1 15 31
M  V30 33 1 15 32
M  V30 34 1 16 33
M  V30 35 1 16 34
M  V30 36 1 16 35
M  V30 END BOND
M  V30 END CTAB
M  END
>  <Column 1>
897

>  <level_0>
1029

>  <index>
1029

>  <Unnamed: 0>
1029

>  <NO.>
1041

>  <Name>
1-(4-iodophenyl)-4-isopropylpiperazine

>  <IUPAC_name>
1-(4-iodophenyl)-4-propan-2-ylpiperazine

>  <SMILES>
CC(C)N1CCN(c2ccc(I)cc2)CC1

>  <CID>
58486189

>  <logBB>
1.38

>  <BBB+/BBB->
BBB+

>  <Inchi>
InChI=1S/C13H19IN2/c1-11(2)15-7-9-16(10-8-15)13-5-3-12(14)4-6-13/h3-6-11H-7-10H2-1-2H3

>  <threshold>


>  <reference>
R8|

>  <group>
A

>  <Class>
1

>  <ABC>
12.27

>  <ABCGG>
10.11

>  <nAcid>
0

>  <nBase>
1

>  <nAromAtom>
6

>  <nAromBond>
6

>  <nAtom>
35

>  <nHeavyAtom>
16

>  <nSpiro>
0

>  <nBridgehead>
0

>  <nHetero>
3

>  <nN>
2

>  <nO>
0

>  <nF>
0

>  <BalabanJ>
1.76

>  <BertzCT>
326.29

>  <nBonds>
36

>  <nBondsO>
17

>  <nBondsS>
30

>  <nBondsD>
0

>  <nBondsT>
0

>  <nBondsA>
6

>  <nBondsM>
6

>  <nBondsKS>
33

>  <nBondsKD>
3

>  <RNCG>
0.38

>  <RPCG>
0.07

>  <FCSP3>
0.54

>  <SZ>
27.33

>  <Sm>
27.49

>  <Sv>
21.24

>  <Sse>
34.27

>  <Sp>
25.11

>  <Si>
39.45

>  <MZ>
0.78

>  <Mm>
0.79

>  <Mv>
0.61

>  <Mse>
0.98

>  <Mp>
0.72

>  <Mi>
1.13

>  <NsCH3>
2

>  <NdCH2>
0

>  <NssCH2>
4

>  <NtCH>
0

>  <NdsCH>
0

>  <NaaCH>
4

>  <NsssCH>
1

>  <NddC>
0

>  <NtsC>
0

>  <NdssC>
0

>  <NaasC>
2

>  <NaaaC>
0

>  <NssssC>
0

>  <NsNH3>
0

>  <NsNH2>
0

>  <NssNH2>
0

>  <NdNH>
0

>  <NssNH>
0

>  <NaaNH>
0

>  <NtN>
0

>  <NsssNH>
0

>  <NdsN>
0

>  <NaaN>
0

>  <NsssN>
2

>  <NddsN>
0

>  <NaasN>
0

>  <NssssN>
0

>  <NsOH>
0

>  <NdO>
0

>  <NssO>
0

>  <NaaO>
0

>  <NsF>
0

>  <NsSiH3>
0

>  <NssSiH2>
0

>  <NsssSiH>
0

>  <NssssSi>
0

>  <NsPH2>
0

>  <NssPH>
0

>  <NsssP>
0

>  <NdsssP>
0

>  <NsssssP>
0

>  <NsSH>
0

>  <NdS>
0

>  <NssS>
0

>  <NaaS>
0

>  <NdssS>
0

>  <NddssS>
0

>  <NsCl>
0

>  <NsBr>
0

>  <NsI>
1

>  <fragCpx>
49.03

>  <fMF>
0.34

>  <nHBAcc>
2

>  <nHBDon>
0

>  <Kier1>
12.46

>  <Kier2>
5.56

>  <Lipinski>
1

>  <GhoseFilter>
1

>  <FilterItLogS>
-3.32

>  <VMcGowan>
205.2

>  <LabuteASA>
111.76

>  <PEOE_VSA1>
4.9

>  <PEOE_VSA2>
4.9

>  <PEOE_VSA3>
0

>  <PEOE_VSA4>
0

>  <PEOE_VSA5>
0

>  <PEOE_VSA6>
0

>  <PEOE_VSA7>
60.7

>  <PEOE_VSA8>
41.48

>  <PEOE_VSA9>
0

>  <PEOE_VSA10>
0

>  <PEOE_VSA11>
0

>  <PEOE_VSA12>
0

>  <PEOE_VSA13>
0

>  <SMR_VSA1>
0

>  <SMR_VSA2>
0

>  <SMR_VSA3>
4.9

>  <SMR_VSA4>
0

>  <SMR_VSA5>
19.89

>  <SMR_VSA6>
31.08

>  <SMR_VSA7>
27.84

>  <SMR_VSA8>
0

>  <SMR_VSA9>
0

>  <SlogP_VSA1>
4.9

>  <SlogP_VSA2>
37.12

>  <SlogP_VSA3>
0

>  <SlogP_VSA4>
3.57

>  <SlogP_VSA5>
13.85

>  <SlogP_VSA6>
24.27

>  <SlogP_VSA7>
0

>  <SlogP_VSA8>
0

>  <SlogP_VSA9>
0

>  <SlogP_VSA10>
5.69

>  <SlogP_VSA11>
0

>  <EState_VSA1>
0

>  <EState_VSA2>
0

>  <EState_VSA3>
6.04

>  <EState_VSA4>
13.09

>  <EState_VSA5>
22.35

>  <EState_VSA6>
0

>  <EState_VSA7>
0

>  <EState_VSA8>
70.5

>  <EState_VSA9>
0

>  <EState_VSA10>
0

>  <VSA_EState1>
1.31

>  <VSA_EState2>
5.03

>  <VSA_EState3>
0

>  <VSA_EState4>
1.36

>  <VSA_EState5>
0

>  <VSA_EState6>
9.51

>  <VSA_EState7>
0

>  <VSA_EState8>
9.23

>  <VSA_EState9>
0

>  <apol>
41.93

>  <bpol>
26.16

>  <nRing>
2

>  <nHRing>
1

>  <naRing>
1

>  <naHRing>
0

>  <nARing 2>
1

>  <nAHRing 2>
1

>  <nFRing>
0

>  <nFHRing>
0

>  <nFaRing>
0

>  <nFaHRing>
0

>  <nFARing 2>
0

>  <nFAHRing 2>
0

>  <nRot>
2

>  <SLogP>
2.82

>  <SMR>
78.08

>  <TopoPSA(NO)>
6.48

>  <TopoPSA>
6.48

>  <JGI1>
0.21

>  <JGI2>
0.1

>  <JGI3>
0.03

>  <JGI4>
0.03

>  <JGI5>
0.04

>  <Diameter>
10

>  <Radius>
5

>  <TMWC10>
102.64

>  <TSRW10>
48.14

>  <MW>
330.06

>  <AMW>
9.43

>  <WPath>
471

>  <WPol>
22

>  <Zagreb1>
80

>  <Zagreb2>
91

>  <mZagreb2>
3.56

>  <yes>


>  <nAR-cont>
0.816016

>  <nHA-cont>
0.954961865

>  <MWHBN>
0.110086369

>  <MWHBN-cont>
0.783610916

>  <TPSA-cont>
0.954765576

>  <pka_cont>
0.97

>  <yes.1>


>  <BBB_SCORE>
5.340925391

>  <MMFF94 Energy>
94.987

$$$$
Compound 749
Actelion Java MolfileCreator 2.0

  0  0  0  0  0  0              0 V3000
M  V30 BEGIN CTAB
M  V30 COUNTS 38 39 0 0 0
M  V30 BEGIN ATOM
M  V30 1 I 0.16 2.4021 7.2195 0
M  V30 2 C 0.2004 1.758 5.2465 0
M  V30 3 C 0.6922 2.5946 4.251 0
M  V30 4 C -0.2595 0.4881 4.9193 0
M  V30 5 C 0.7188 2.1543 2.9211 0
M  V30 6 C -0.2292 0.0617 3.5858 0
M  V30 7 C 0.2513 0.8832 2.5526 0
M  V30 8 N 0.2749 0.4273 1.2391 0
M  V30 9 C 1.1571 1.0622 0.2457 0
M  V30 10 C -0.9708 -0.129 0.6758 0
M  V30 11 C 1.384 0.1388 -0.9741 0
M  V30 12 C -0.6812 -1.0161 -0.5589 0
M  V30 13 N 0.1189 -0.3196 -1.587 0
M  V30 14 C 0.3354 -1.0828 -2.8312 0 CFG=2
M  V30 15 C -0.9547 -1.1708 -3.6798 0
M  V30 16 C 0.9178 -2.4912 -2.6417 0
M  V30 17 C -1.5506 0.19 -4.0196 0
M  V30 18 H 1.0568 3.5911 4.485 0
M  V30 19 H -0.6361 -0.1874 5.6823 0
M  V30 20 H 1.0956 2.8437 2.1711 0
M  V30 21 H -0.5612 -0.9495 3.3662 0
M  V30 22 H 2.1394 1.2776 0.6838 0
M  V30 23 H 0.7158 2.0096 -0.0891 0
M  V30 24 H -1.6325 0.6981 0.3875 0
M  V30 25 H -1.517 -0.7417 1.4008 0
M  V30 26 H 1.972 0.6989 -1.7111 0
M  V30 27 H 1.9897 -0.7179 -0.6539 0
M  V30 28 H -0.1632 -1.9202 -0.2148 0
M  V30 29 H -1.6463 -1.3269 -0.9726 0
M  V30 30 H 1.0545 -0.5195 -3.4422 0
M  V30 31 H -1.7136 -1.7818 -3.1773 0
M  V30 32 H -0.7236 -1.6839 -4.6222 0
M  V30 33 H 0.2172 -3.1587 -2.1293 0
M  V30 34 H 1.1426 -2.9412 -3.6153 0
M  V30 35 H 1.8532 -2.4712 -2.0748 0
M  V30 36 H -0.8157 0.8248 -4.5247 0
M  V30 37 H -1.9013 0.711 -3.1235 0
M  V30 38 H -2.4081 0.0671 -4.689 0
M  V30 END ATOM
M  V30 BEGIN BOND
M  V30 1 1 1 2
M  V30 2 2 2 3
M  V30 3 1 2 4
M  V30 4 1 3 5
M  V30 5 2 4 6
M  V30 6 2 5 7
M  V30 7 1 7 8
M  V30 8 1 8 9
M  V30 9 1 8 10
M  V30 10 1 9 11
M  V30 11 1 10 12
M  V30 12 1 11 13
M  V30 13 1 13 14
M  V30 14 1 14 15
M  V30 15 1 14 16
M  V30 16 1 15 17
M  V30 17 1 6 7
M  V30 18 1 12 13
M  V30 19 1 3 18
M  V30 20 1 4 19
M  V30 21 1 5 20
M  V30 22 1 6 21
M  V30 23 1 9 22
M  V30 24 1 9 23
M  V30 25 1 10 24
M  V30 26 1 10 25
M  V30 27 1 11 26
M  V30 28 1 11 27
M  V30 29 1 12 28
M  V30 30 1 12 29
M  V30 31 1 14 30
M  V30 32 1 15 31
M  V30 33 1 15 32
M  V30 34 1 16 33
M  V30 35 1 16 34
M  V30 36 1 16 35
M  V30 37 1 17 36
M  V30 38 1 17 37
M  V30 39 1 17 38
M  V30 END BOND
M  V30 BEGIN COLLECTION
M  V30 MDLV30/STERAC1 ATOMS=(1 14)
M  V30 END COLLECTION
M  V30 END CTAB
M  END
>  <Column 1>
898

>  <level_0>
1030

>  <index>
1030

>  <Unnamed: 0>
1030

>  <NO.>
1042

>  <Name>
1-isobutyl-4-(4-iodophenyl)piperazine

>  <IUPAC_name>
1-butan-2-yl-4-(4-iodophenyl)piperazine

>  <SMILES>
CCC(C)N1CCN(c2ccc(I)cc2)CC1

>  <CID>
142271743

>  <logBB>
1.38

>  <BBB+/BBB->
BBB+

>  <Inchi>
InChI=1S/C14H21IN2/c1-3-12(2)16-8-10-17(11-9-16)14-6-4-13(15)5-7-14/h4-7-12H-3-8-11H2-1-2H3

>  <threshold>


>  <reference>
R2|R2|R3|R27|R38|R41|R43|R47|R40|

>  <group>
A

>  <Class>
1

>  <ABC>
12.87

>  <ABCGG>
10.61

>  <nAcid>
0

>  <nBase>
1

>  <nAromAtom>
6

>  <nAromBond>
6

>  <nAtom>
38

>  <nHeavyAtom>
17

>  <nSpiro>
0

>  <nBridgehead>
0

>  <nHetero>
3

>  <nN>
2

>  <nO>
0

>  <nF>
0

>  <BalabanJ>
1.75

>  <BertzCT>
341.74

>  <nBonds>
39

>  <nBondsO>
18

>  <nBondsS>
33

>  <nBondsD>
0

>  <nBondsT>
0

>  <nBondsA>
6

>  <nBondsM>
6

>  <nBondsKS>
36

>  <nBondsKD>
3

>  <RNCG>
0.36

>  <RPCG>
0.06

>  <FCSP3>
0.57

>  <SZ>
28.67

>  <Sm>
28.66

>  <Sv>
22.79

>  <Sse>
37.16

>  <Sp>
26.91

>  <Si>
42.87

>  <MZ>
0.75

>  <Mm>
0.75

>  <Mv>
0.6

>  <Mse>
0.98

>  <Mp>
0.71

>  <Mi>
1.13

>  <NsCH3>
2

>  <NdCH2>
0

>  <NssCH2>
5

>  <NtCH>
0

>  <NdsCH>
0

>  <NaaCH>
4

>  <NsssCH>
1

>  <NddC>
0

>  <NtsC>
0

>  <NdssC>
0

>  <NaasC>
2

>  <NaaaC>
0

>  <NssssC>
0

>  <NsNH3>
0

>  <NsNH2>
0

>  <NssNH2>
0

>  <NdNH>
0

>  <NssNH>
0

>  <NaaNH>
0

>  <NtN>
0

>  <NsssNH>
0

>  <NdsN>
0

>  <NaaN>
0

>  <NsssN>
2

>  <NddsN>
0

>  <NaasN>
0

>  <NssssN>
0

>  <NsOH>
0

>  <NdO>
0

>  <NssO>
0

>  <NaaO>
0

>  <NsF>
0

>  <NsSiH3>
0

>  <NssSiH2>
0

>  <NsssSiH>
0

>  <NssssSi>
0

>  <NsPH2>
0

>  <NssPH>
0

>  <NsssP>
0

>  <NdsssP>
0

>  <NsssssP>
0

>  <NsSH>
0

>  <NdS>
0

>  <NssS>
0

>  <NaaS>
0

>  <NdssS>
0

>  <NddssS>
0

>  <NsCl>
0

>  <NsBr>
0

>  <NsI>
1

>  <fragCpx>
52.03

>  <fMF>
0.32

>  <nHBAcc>
2

>  <nHBDon>
0

>  <Kier1>
13.43

>  <Kier2>
6.25

>  <Lipinski>
1

>  <GhoseFilter>
1

>  <FilterItLogS>
-3.72

>  <VMcGowan>
219.29

>  <LabuteASA>
118.13

>  <PEOE_VSA1>
4.9

>  <PEOE_VSA2>
4.9

>  <PEOE_VSA3>
0

>  <PEOE_VSA4>
0

>  <PEOE_VSA5>
0

>  <PEOE_VSA6>
6.92

>  <PEOE_VSA7>
60.2

>  <PEOE_VSA8>
41.48

>  <PEOE_VSA9>
0

>  <PEOE_VSA10>
0

>  <PEOE_VSA11>
0

>  <PEOE_VSA12>
0

>  <PEOE_VSA13>
0

>  <SMR_VSA1>
0

>  <SMR_VSA2>
0

>  <SMR_VSA3>
4.9

>  <SMR_VSA4>
0

>  <SMR_VSA5>
26.31

>  <SMR_VSA6>
31.08

>  <SMR_VSA7>
27.84

>  <SMR_VSA8>
0

>  <SMR_VSA9>
0

>  <SlogP_VSA1>
4.9

>  <SlogP_VSA2>
37.12

>  <SlogP_VSA3>
0

>  <SlogP_VSA4>
3.57

>  <SlogP_VSA5>
20.27

>  <SlogP_VSA6>
24.27

>  <SlogP_VSA7>
0

>  <SlogP_VSA8>
0

>  <SlogP_VSA9>
0

>  <SlogP_VSA10>
5.69

>  <SlogP_VSA11>
0

>  <EState_VSA1>
0

>  <EState_VSA2>
0

>  <EState_VSA3>
0

>  <EState_VSA4>
19.13

>  <EState_VSA5>
28.77

>  <EState_VSA6>
0

>  <EState_VSA7>
0

>  <EState_VSA8>
70.5

>  <EState_VSA9>
0

>  <EState_VSA10>
0

>  <VSA_EState1>
1.31

>  <VSA_EState2>
5.1

>  <VSA_EState3>
0

>  <VSA_EState4>
1.37

>  <VSA_EState5>
0

>  <VSA_EState6>
9.59

>  <VSA_EState7>
1.25

>  <VSA_EState8>
9.31

>  <VSA_EState9>
0

>  <apol>
44.93

>  <bpol>
28.17

>  <nRing>
2

>  <nHRing>
1

>  <naRing>
1

>  <naHRing>
0

>  <nARing 2>
1

>  <nAHRing 2>
1

>  <nFRing>
0

>  <nFHRing>
0

>  <nFaRing>
0

>  <nFaHRing>
0

>  <nFARing 2>
0

>  <nFAHRing 2>
0

>  <nRot>
3

>  <SLogP>
3.21

>  <SMR>
82.7

>  <TopoPSA(NO)>
6.48

>  <TopoPSA>
6.48

>  <JGI1>
0.19

>  <JGI2>
0.1

>  <JGI3>
0.03

>  <JGI4>
0.03

>  <JGI5>
0.04

>  <Diameter>
11

>  <Radius>
6

>  <TMWC10>
105.13

>  <TSRW10>
49.38

>  <MW>
344.07

>  <AMW>
9.05

>  <WPath>
566

>  <WPol>
24

>  <Zagreb1>
84

>  <Zagreb2>
96

>  <mZagreb2>
3.89

>  <yes>


>  <nAR-cont>
0.816016

>  <nHA-cont>
0.976740822

>  <MWHBN>
0.107821804

>  <MWHBN-cont>
0.772299501

>  <TPSA-cont>
0.954765576

>  <pka_cont>
0.97

>  <yes.1>


>  <BBB_SCORE>
5.345737226

>  <MMFF94 Energy>
95.085

$$$$
Compound 750
Actelion Java MolfileCreator 2.0

  0  0  0  0  0  0              0 V3000
M  V30 BEGIN CTAB
M  V30 COUNTS 50 52 0 0 0
M  V30 BEGIN ATOM
M  V30 1 O 2.6885 6.3348 -1.1063 0
M  V30 2 C 2.1046 5.2537 -0.5056 0
M  V30 3 C 2.8205 7.512 -0.32 0
M  V30 4 C 2.0075 4.1183 -1.3127 0
M  V30 5 C 1.6183 5.2031 0.8004 0
M  V30 6 C 1.4312 2.9415 -0.8234 0
M  V30 7 C 1.0401 4.0247 1.2915 0
M  V30 8 C 0.9393 2.8817 0.4862 0
M  V30 9 C 0.3373 1.6524 0.9937 0
M  V30 10 N -0.1856 1.5213 2.2206 0
M  V30 11 N 0.2351 0.5163 0.2275 0
M  V30 12 N -0.5982 0.2325 2.2191 0
M  V30 13 C -0.3285 -0.3801 1.0174 0
M  V30 14 C -1.4184 -0.2513 3.3167 0
M  V30 15 C -0.6173 -1.768 0.6445 0
M  V30 16 O -0.591 -0.9435 4.2521 0
M  V30 17 C -0.9355 -2.0621 -0.6908 0
M  V30 18 C -0.4233 -2.838 1.527 0
M  V30 19 C -1.3228 -1.3086 5.4131 0
M  V30 20 C -1.1495 -3.3823 -1.1244 0
M  V30 21 C -0.6359 -4.1556 1.1128 0
M  V30 22 C -1.01 -4.4258 -0.2023 0
M  V30 23 C -1.5376 -3.6669 -2.5612 0
M  V30 24 N -0.586 -3.1297 -3.5483 0
M  V30 25 C -1.1478 -3.2298 -4.8955 0
M  V30 26 C 0.7015 -3.8255 -3.4908 0
M  V30 27 H 1.8407 7.8999 -0.022 0
M  V30 28 H 3.3057 8.2739 -0.9377 0
M  V30 29 H 3.4585 7.3352 0.5523 0
M  V30 30 H 2.3843 4.1466 -2.3321 0
M  V30 31 H 1.6712 6.0576 1.4664 0
M  V30 32 H 1.3695 2.0701 -1.4728 0
M  V30 33 H 0.6682 4.0043 2.3144 0
M  V30 34 H -1.8935 0.6167 3.7888 0
M  V30 35 H -2.1913 -0.9138 2.914 0
M  V30 36 H -1.0181 -1.2491 -1.4133 0
M  V30 37 H -0.071 -2.6711 2.5413 0
M  V30 38 H -0.6529 -1.8494 6.0869 0
M  V30 39 H -2.1577 -1.965 5.1489 0
M  V30 40 H -1.6924 -0.4175 5.9298 0
M  V30 41 H -0.487 -4.9737 1.8132 0
M  V30 42 H -1.1649 -5.4574 -0.5096 0
M  V30 43 H -2.5241 -3.2061 -2.7082 0
M  V30 44 H -1.6777 -4.7459 -2.7113 0
M  V30 45 H -2.084 -2.6646 -4.9664 0
M  V30 46 H -1.3484 -4.2679 -5.1845 0
M  V30 47 H -0.4643 -2.7924 -5.632 0
M  V30 48 H 0.5989 -4.9002 -3.6804 0
M  V30 49 H 1.186 -3.6905 -2.518 0
M  V30 50 H 1.3929 -3.4118 -4.2339 0
M  V30 END ATOM
M  V30 BEGIN BOND
M  V30 1 1 1 2
M  V30 2 1 1 3
M  V30 3 2 2 4
M  V30 4 1 2 5
M  V30 5 1 4 6
M  V30 6 2 5 7
M  V30 7 2 6 8
M  V30 8 1 8 9
M  V30 9 2 9 10
M  V30 10 1 9 11
M  V30 11 1 10 12
M  V30 12 2 11 13
M  V30 13 1 12 14
M  V30 14 1 13 15
M  V30 15 1 14 16
M  V30 16 2 15 17
M  V30 17 1 15 18
M  V30 18 1 16 19
M  V30 19 1 17 20
M  V30 20 2 18 21
M  V30 21 2 20 22
M  V30 22 1 20 23
M  V30 23 1 23 24
M  V30 24 1 24 25
M  V30 25 1 24 26
M  V30 26 1 7 8
M  V30 27 1 12 13
M  V30 28 1 21 22
M  V30 29 1 3 27
M  V30 30 1 3 28
M  V30 31 1 3 29
M  V30 32 1 4 30
M  V30 33 1 5 31
M  V30 34 1 6 32
M  V30 35 1 7 33
M  V30 36 1 14 34
M  V30 37 1 14 35
M  V30 38 1 17 36
M  V30 39 1 18 37
M  V30 40 1 19 38
M  V30 41 1 19 39
M  V30 42 1 19 40
M  V30 43 1 21 41
M  V30 44 1 22 42
M  V30 45 1 23 43
M  V30 46 1 23 44
M  V30 47 1 25 45
M  V30 48 1 25 46
M  V30 49 1 25 47
M  V30 50 1 26 48
M  V30 51 1 26 49
M  V30 52 1 26 50
M  V30 END BOND
M  V30 END CTAB
M  END
>  <Column 1>
899

>  <level_0>
1031

>  <index>
1031

>  <Unnamed: 0>
1031

>  <NO.>
1043

>  <Name>
schembl6578579

>  <IUPAC_name>
1-[3-[2-(methoxymethyl)-5-(4-methoxyphenyl)-1-2-4-triazol-3-yl]phenyl]-n-n-dimethylmethanamine

>  <SMILES>
COCn1nc(-c2ccc(OC)cc2)nc1-c1cccc(CN(C)C)c1

>  <CID>
21180375

>  <logBB>
1.38

>  <BBB+/BBB->
BBB+

>  <Inchi>
InChI=1S/C20H24N4O2/c1-23(2)13-15-6-5-7-17(12-15)20-21-19(22-24(20)14-25-3)16-8-10-18(26-4)11-9-16/h5-12H-13-14H2-1-4H3

>  <threshold>


>  <reference>
R47|

>  <group>
A

>  <Class>
1

>  <ABC>
19.9

>  <ABCGG>
15.78

>  <nAcid>
0

>  <nBase>
1

>  <nAromAtom>
17

>  <nAromBond>
17

>  <nAtom>
50

>  <nHeavyAtom>
26

>  <nSpiro>
0

>  <nBridgehead>
0

>  <nHetero>
6

>  <nN>
4

>  <nO>
2

>  <nF>
0

>  <BalabanJ>
1.58

>  <BertzCT>
856.5

>  <nBonds>
52

>  <nBondsO>
28

>  <nBondsS>
35

>  <nBondsD>
0

>  <nBondsT>
0

>  <nBondsA>
17

>  <nBondsM>
17

>  <nBondsKS>
44

>  <nBondsKD>
8

>  <RNCG>
0.23

>  <RPCG>
0.08

>  <FCSP3>
0.3

>  <SZ>
31.33

>  <Sm>
29.34

>  <Sv>
30.96

>  <Sse>
49.97

>  <Sp>
33.18

>  <Si>
56.57

>  <MZ>
0.63

>  <Mm>
0.59

>  <Mv>
0.62

>  <Mse>
1

>  <Mp>
0.66

>  <Mi>
1.13

>  <NsCH3>
4

>  <NdCH2>
0

>  <NssCH2>
2

>  <NtCH>
0

>  <NdsCH>
0

>  <NaaCH>
8

>  <NsssCH>
0

>  <NddC>
0

>  <NtsC>
0

>  <NdssC>
0

>  <NaasC>
6

>  <NaaaC>
0

>  <NssssC>
0

>  <NsNH3>
0

>  <NsNH2>
0

>  <NssNH2>
0

>  <NdNH>
0

>  <NssNH>
0

>  <NaaNH>
0

>  <NtN>
0

>  <NsssNH>
0

>  <NdsN>
0

>  <NaaN>
2

>  <NsssN>
1

>  <NddsN>
0

>  <NaasN>
1

>  <NssssN>
0

>  <NsOH>
0

>  <NdO>
0

>  <NssO>
2

>  <NaaO>
0

>  <NsF>
0

>  <NsSiH3>
0

>  <NssSiH2>
0

>  <NsssSiH>
0

>  <NssssSi>
0

>  <NsPH2>
0

>  <NssPH>
0

>  <NsssP>
0

>  <NdsssP>
0

>  <NsssssP>
0

>  <NsSH>
0

>  <NdS>
0

>  <NssS>
0

>  <NaaS>
0

>  <NdssS>
0

>  <NddssS>
0

>  <NsCl>
0

>  <NsBr>
0

>  <NsI>
0

>  <fragCpx>
134.06

>  <fMF>
0.34

>  <nHBAcc>
6

>  <nHBDon>
0

>  <Kier1>
20.73

>  <Kier2>
9.97

>  <Lipinski>
1

>  <GhoseFilter>
1

>  <FilterItLogS>
-5

>  <VMcGowan>
277.34

>  <LabuteASA>
153.55

>  <PEOE_VSA1>
14.37

>  <PEOE_VSA2>
0

>  <PEOE_VSA3>
9.67

>  <PEOE_VSA4>
0

>  <PEOE_VSA5>
5.1

>  <PEOE_VSA6>
18.2

>  <PEOE_VSA7>
49.99

>  <PEOE_VSA8>
24.78

>  <PEOE_VSA9>
7.11

>  <PEOE_VSA10>
12.48

>  <PEOE_VSA11>
11.65

>  <PEOE_VSA12>
0

>  <PEOE_VSA13>
0

>  <SMR_VSA1>
9.47

>  <SMR_VSA2>
0

>  <SMR_VSA3>
19.66

>  <SMR_VSA4>
0

>  <SMR_VSA5>
13.28

>  <SMR_VSA6>
28.31

>  <SMR_VSA7>
54.09

>  <SMR_VSA8>
0

>  <SMR_VSA9>
28.53

>  <SlogP_VSA1>
4.74

>  <SlogP_VSA2>
47.98

>  <SlogP_VSA3>
18.01

>  <SlogP_VSA4>
0

>  <SlogP_VSA5>
5.56

>  <SlogP_VSA6>
48.53

>  <SlogP_VSA7>
0

>  <SlogP_VSA8>
22.78

>  <SlogP_VSA9>
0

>  <SlogP_VSA10>
0

>  <SlogP_VSA11>
5.75

>  <EState_VSA1>
0

>  <EState_VSA2>
0

>  <EState_VSA3>
12.56

>  <EState_VSA4>
29.25

>  <EState_VSA5>
5.56

>  <EState_VSA6>
18.9

>  <EState_VSA7>
36.4

>  <EState_VSA8>
36.23

>  <EState_VSA9>
14.46

>  <EState_VSA10>
0

>  <VSA_EState1>
12.31

>  <VSA_EState2>
6.9

>  <VSA_EState3>
4.62

>  <VSA_EState4>
3.19

>  <VSA_EState5>
2.26

>  <VSA_EState6>
16.08

>  <VSA_EState7>
0

>  <VSA_EState8>
1.22

>  <VSA_EState9>
7.42

>  <apol>
55.41

>  <bpol>
32.11

>  <nRing>
3

>  <nHRing>
1

>  <naRing>
3

>  <naHRing>
1

>  <nARing 2>
0

>  <nAHRing 2>
0

>  <nFRing>
0

>  <nFHRing>
0

>  <nFaRing>
0

>  <nFaHRing>
0

>  <nFARing 2>
0

>  <nFAHRing 2>
0

>  <nRot>
7

>  <SLogP>
3.29

>  <SMR>
101.85

>  <TopoPSA(NO)>
52.41

>  <TopoPSA>
52.41

>  <JGI1>
0.2

>  <JGI2>
0.06

>  <JGI3>
0.04

>  <JGI4>
0.04

>  <JGI5>
0.03

>  <Diameter>
14

>  <Radius>
7

>  <TMWC10>
129.23

>  <TSRW10>
74.63

>  <MW>
352.19

>  <AMW>
7.04

>  <WPath>
1755

>  <WPol>
38

>  <Zagreb1>
132

>  <Zagreb2>
153

>  <mZagreb2>
5.92

>  <yes>


>  <nAR-cont>
0.336376

>  <nHA-cont>
0.892715677

>  <MWHBN>
0.3197148

>  <MWHBN-cont>
0.778119874

>  <TPSA-cont>
0.634145655

>  <pka_cont>
0.97

>  <yes.1>


>  <BBB_SCORE>
4.149562799

>  <MMFF94 Energy>
99.909

$$$$
Compound 751
Actelion Java MolfileCreator 2.0

  0  0  0  0  0  0              0 V3000
M  V30 BEGIN CTAB
M  V30 COUNTS 49 51 0 0 0
M  V30 BEGIN ATOM
M  V30 1 Br 5.6627 -3.2329 6.8793 0
M  V30 2 C 4.4831 -2.3519 5.6948 0
M  V30 3 C 4.7538 -2.3377 4.3303 0
M  V30 4 C 3.3485 -1.7198 6.1899 0
M  V30 5 C 3.8821 -1.6856 3.4501 0
M  V30 6 C 2.4802 -1.0702 5.3087 0
M  V30 7 C 2.7273 -1.039 3.9201 0
M  V30 8 C 1.7396 -0.3092 3.0014 0
M  V30 9 O 1.5501 1.0067 3.5547 0
M  V30 10 C 0.3815 -1.0285 2.9894 0
M  V30 11 C 2.2166 -0.1205 1.5516 0
M  V30 12 C -0.6166 -0.3514 2.0494 0
M  V30 13 C 1.1485 0.5399 0.6759 0
M  V30 14 N -0.092 -0.2512 0.6764 0
M  V30 15 C -1.1197 0.3315 -0.2047 0
M  V30 16 C -0.7608 0.2459 -1.6936 0
M  V30 17 C -1.9376 0.6895 -2.5669 0
M  V30 18 C -1.5991 0.6522 -4.0481 0
M  V30 19 O -0.4756 0.3705 -4.4595 0
M  V30 20 C -2.6731 0.9793 -5.0374 0
M  V30 21 C -2.3686 0.8892 -6.4057 0
M  V30 22 C -3.9612 1.3722 -4.6456 0
M  V30 23 C -3.337 1.185 -7.3676 0
M  V30 24 C -4.9279 1.6676 -5.612 0
M  V30 25 C -4.6077 1.5712 -6.9615 0
M  V30 26 F -5.5379 1.8557 -7.8814 0
M  V30 27 H 5.6387 -2.8317 3.9369 0
M  V30 28 H 3.1279 -1.725 7.254 0
M  V30 29 H 4.1327 -1.7033 2.3929 0
M  V30 30 H 1.5974 -0.5772 5.7149 0
M  V30 31 H 2.4165 1.3047 3.8838 0
M  V30 32 H 0.5131 -2.0761 2.6867 0
M  V30 33 H -0.0631 -1.0393 3.9925 0
M  V30 34 H 3.1178 0.5053 1.5261 0
M  V30 35 H 2.4735 -1.0869 1.0991 0
M  V30 36 H -0.8871 0.6392 2.4384 0
M  V30 37 H -1.5326 -0.9554 2.0497 0
M  V30 38 H 1.5629 0.6011 -0.3357 0
M  V30 39 H 0.9623 1.5686 1.0104 0
M  V30 40 H -1.3235 1.3746 0.0708 0
M  V30 41 H -2.057 -0.2224 -0.0628 0
M  V30 42 H -0.4814 -0.7831 -1.9526 0
M  V30 43 H 0.1048 0.8795 -1.9171 0
M  V30 44 H -2.2176 1.7156 -2.3027 0
M  V30 45 H -2.7876 0.0223 -2.3857 0
M  V30 46 H -1.3734 0.587 -6.7285 0
M  V30 47 H -4.2399 1.4591 -3.5997 0
M  V30 48 H -3.1058 1.1162 -8.4259 0
M  V30 49 H -5.9287 1.9729 -5.3213 0
M  V30 END ATOM
M  V30 BEGIN BOND
M  V30 1 1 1 2
M  V30 2 2 2 3
M  V30 3 1 2 4
M  V30 4 1 3 5
M  V30 5 2 4 6
M  V30 6 2 5 7
M  V30 7 1 7 8
M  V30 8 1 8 9
M  V30 9 1 8 10
M  V30 10 1 8 11
M  V30 11 1 10 12
M  V30 12 1 11 13
M  V30 13 1 12 14
M  V30 14 1 14 15
M  V30 15 1 15 16
M  V30 16 1 16 17
M  V30 17 1 17 18
M  V30 18 2 18 19
M  V30 19 1 18 20
M  V30 20 2 20 21
M  V30 21 1 20 22
M  V30 22 1 21 23
M  V30 23 2 22 24
M  V30 24 2 23 25
M  V30 25 1 25 26
M  V30 26 1 6 7
M  V30 27 1 13 14
M  V30 28 1 24 25
M  V30 29 1 3 27
M  V30 30 1 4 28
M  V30 31 1 5 29
M  V30 32 1 6 30
M  V30 33 1 9 31
M  V30 34 1 10 32
M  V30 35 1 10 33
M  V30 36 1 11 34
M  V30 37 1 11 35
M  V30 38 1 12 36
M  V30 39 1 12 37
M  V30 40 1 13 38
M  V30 41 1 13 39
M  V30 42 1 15 40
M  V30 43 1 15 41
M  V30 44 1 16 42
M  V30 45 1 16 43
M  V30 46 1 17 44
M  V30 47 1 17 45
M  V30 48 1 21 46
M  V30 49 1 22 47
M  V30 50 1 23 48
M  V30 51 1 24 49
M  V30 END BOND
M  V30 END CTAB
M  END
>  <Column 1>
900

>  <level_0>
1032

>  <index>
1032

>  <Unnamed: 0>
1032

>  <NO.>
1044

>  <Name>
bromperidol

>  <IUPAC_name>
4-[4-(4-bromophenyl)-4-hydroxypiperidin-1-yl]-1-(4-fluorophenyl)butan-1-one

>  <SMILES>
O=C(CCCN1CCC(O)(c2ccc(Br)cc2)CC1)c1ccc(F)cc1

>  <CID>
2448

>  <logBB>
1.38

>  <BBB+/BBB->
BBB+

>  <Inchi>
InChI=1S/C21H23BrFNO2/c22-18-7-5-17(6-8-18)21(26)11-14-24(15-12-21)13-1-2-20(25)16-3-9-19(23)10-4-16/h3-10-26H-1-2-11-15H2

>  <threshold>


>  <reference>
R2|R2|R8|R18|R20|R21|R25|R26|R27|R27|R27|R36|R39|R43|R44|R47|R4|

>  <group>
A

>  <Class>
1

>  <ABC>
20.18

>  <ABCGG>
14.87

>  <nAcid>
0

>  <nBase>
1

>  <nAromAtom>
12

>  <nAromBond>
12

>  <nAtom>
49

>  <nHeavyAtom>
26

>  <nSpiro>
0

>  <nBridgehead>
0

>  <nHetero>
5

>  <nN>
1

>  <nO>
2

>  <nF>
1

>  <BalabanJ>
1.32

>  <BertzCT>
737.61

>  <nBonds>
51

>  <nBondsO>
28

>  <nBondsS>
38

>  <nBondsD>
1

>  <nBondsT>
0

>  <nBondsA>
12

>  <nBondsM>
13

>  <nBondsKS>
44

>  <nBondsKD>
7

>  <RNCG>
0.23

>  <RPCG>
0.13

>  <FCSP3>
0.38

>  <SZ>
36

>  <Sm>
34.99

>  <Sv>
31.35

>  <Sse>
49.16

>  <Sp>
33.96

>  <Si>
55.08

>  <MZ>
0.73

>  <Mm>
0.71

>  <Mv>
0.64

>  <Mse>
1

>  <Mp>
0.69

>  <Mi>
1.12

>  <NsCH3>
0

>  <NdCH2>
0

>  <NssCH2>
7

>  <NtCH>
0

>  <NdsCH>
0

>  <NaaCH>
8

>  <NsssCH>
0

>  <NddC>
0

>  <NtsC>
0

>  <NdssC>
1

>  <NaasC>
4

>  <NaaaC>
0

>  <NssssC>
1

>  <NsNH3>
0

>  <NsNH2>
0

>  <NssNH2>
0

>  <NdNH>
0

>  <NssNH>
0

>  <NaaNH>
0

>  <NtN>
0

>  <NsssNH>
0

>  <NdsN>
0

>  <NaaN>
0

>  <NsssN>
1

>  <NddsN>
0

>  <NaasN>
0

>  <NssssN>
0

>  <NsOH>
1

>  <NdO>
1

>  <NssO>
0

>  <NaaO>
0

>  <NsF>
1

>  <NsSiH3>
0

>  <NssSiH2>
0

>  <NsssSiH>
0

>  <NssssSi>
0

>  <NsPH2>
0

>  <NssPH>
0

>  <NsssP>
0

>  <NdsssP>
0

>  <NsssssP>
0

>  <NsSH>
0

>  <NdS>
0

>  <NssS>
0

>  <NaaS>
0

>  <NdssS>
0

>  <NddssS>
0

>  <NsCl>
0

>  <NsBr>
1

>  <NsI>
0

>  <fragCpx>
134.05

>  <fMF>
0.45

>  <nHBAcc>
3

>  <nHBDon>
1

>  <Kier1>
20.73

>  <Kier2>
9.47

>  <Lipinski>
1

>  <GhoseFilter>
1

>  <FilterItLogS>
-6.04

>  <VMcGowan>
285.05

>  <LabuteASA>
161.52

>  <PEOE_VSA1>
10.01

>  <PEOE_VSA2>
4.79

>  <PEOE_VSA3>
4.39

>  <PEOE_VSA4>
0

>  <PEOE_VSA5>
0

>  <PEOE_VSA6>
28.06

>  <PEOE_VSA7>
67.77

>  <PEOE_VSA8>
29.55

>  <PEOE_VSA9>
5.6

>  <PEOE_VSA10>
5.82

>  <PEOE_VSA11>
5.78

>  <PEOE_VSA12>
0

>  <PEOE_VSA13>
0

>  <SMR_VSA1>
14.29

>  <SMR_VSA2>
0

>  <SMR_VSA3>
4.9

>  <SMR_VSA4>
0

>  <SMR_VSA5>
31.28

>  <SMR_VSA6>
19.63

>  <SMR_VSA7>
69.95

>  <SMR_VSA8>
0

>  <SMR_VSA9>
0

>  <SlogP_VSA1>
0

>  <SlogP_VSA2>
35.42

>  <SlogP_VSA3>
5.6

>  <SlogP_VSA4>
5.82

>  <SlogP_VSA5>
41.6

>  <SlogP_VSA6>
53

>  <SlogP_VSA7>
0

>  <SlogP_VSA8>
0

>  <SlogP_VSA9>
0

>  <SlogP_VSA10>
4.39

>  <SlogP_VSA11>
0

>  <EState_VSA1>
5.6

>  <EState_VSA2>
11.6

>  <EState_VSA3>
24.83

>  <EState_VSA4>
36.09

>  <EState_VSA5>
24.27

>  <EState_VSA6>
0

>  <EState_VSA7>
24.27

>  <EState_VSA8>
20.83

>  <EState_VSA9>
0

>  <EState_VSA10>
14.29

>  <VSA_EState1>
13.92

>  <VSA_EState2>
14.43

>  <VSA_EState3>
10.91

>  <VSA_EState4>
0.77

>  <VSA_EState5>
-0.28

>  <VSA_EState6>
13.58

>  <VSA_EState7>
2.62

>  <VSA_EState8>
2.47

>  <VSA_EState9>
0

>  <apol>
56.72

>  <bpol>
28.14

>  <nRing>
3

>  <nHRing>
1

>  <naRing>
2

>  <naHRing>
0

>  <nARing 2>
1

>  <nAHRing 2>
1

>  <nFRing>
0

>  <nFHRing>
0

>  <nFaRing>
0

>  <nFaHRing>
0

>  <nFARing 2>
0

>  <nFAHRing 2>
0

>  <nRot>
6

>  <SLogP>
4.53

>  <SMR>
103.68

>  <TopoPSA(NO)>
40.54

>  <TopoPSA>
40.54

>  <JGI1>
0.23

>  <JGI2>
0.1

>  <JGI3>
0.04

>  <JGI4>
0.03

>  <JGI5>
0.03

>  <Diameter>
17

>  <Radius>
9

>  <TMWC10>
128.81

>  <TSRW10>
60.87

>  <MW>
419.09

>  <AMW>
8.55

>  <WPath>
2035

>  <WPol>
39

>  <Zagreb1>
134

>  <Zagreb2>
154

>  <mZagreb2>
5.69

>  <yes>


>  <nAR-cont>
0.816016

>  <nHA-cont>
0.892715677

>  <MWHBN>
0.195391804

>  <MWHBN-cont>
0.998330126

>  <TPSA-cont>
0.717005626

>  <pka_cont>
0.97

>  <yes.1>


>  <BBB_SCORE>
5.125238119

>  <MMFF94 Energy>
56.483

$$$$
Compound 752
Actelion Java MolfileCreator 2.0

  0  0  0  0  0  0              0 V3000
M  V30 BEGIN CTAB
M  V30 COUNTS 46 48 0 0 0
M  V30 BEGIN ATOM
M  V30 1 Br 6.8156 -1.9437 5.1896 0
M  V30 2 C 5.3835 -1.1947 4.2104 0
M  V30 3 C 5.4721 0.1111 3.7428 0
M  V30 4 C 4.2432 -1.9522 3.9614 0
M  V30 5 C 4.4094 0.6588 3.0194 0
M  V30 6 C 3.1802 -1.4002 3.2366 0
M  V30 7 C 3.2411 -0.0845 2.7491 0
M  V30 8 C 2.1059 0.571 1.9524 0
M  V30 9 O 1.8012 1.8167 2.6063 0
M  V30 10 C 0.797 -0.2361 1.9005 0
M  V30 11 C 2.56 0.8768 0.5158 0
M  V30 12 C -0.2583 0.4373 1.0194 0
M  V30 13 C 1.4368 1.4861 -0.3246 0
M  V30 14 N 0.2455 0.6171 -0.352 0
M  V30 15 C -0.7788 1.22 -1.2334 0
M  V30 16 C -1.8869 0.2282 -1.6025 0
M  V30 17 C -2.8537 0.8293 -2.6067 0
M  V30 18 O -2.8065 2.012 -2.9398 0
M  V30 19 C -3.9116 -0.0488 -3.1973 0
M  V30 20 C -4.7564 0.4932 -4.1799 0
M  V30 21 C -4.0878 -1.3825 -2.8005 0
M  V30 22 C -5.7597 -0.2864 -4.7596 0
M  V30 23 C -5.0936 -2.1598 -3.3836 0
M  V30 24 C -5.9185 -1.6058 -4.3561 0
M  V30 25 F -6.8799 -2.3554 -4.9099 0
M  V30 26 H 6.3578 0.7116 3.9324 0
M  V30 27 H 4.1687 -2.9743 4.3241 0
M  V30 28 H 4.4951 1.6857 2.6646 0
M  V30 29 H 2.3112 -2.0299 3.0653 0
M  V30 30 H 1.9073 1.6742 3.5634 0
M  V30 31 H 0.9779 -1.243 1.5024 0
M  V30 32 H 0.3803 -0.3503 2.9095 0
M  V30 33 H 3.3965 1.5869 0.5138 0
M  V30 34 H 2.9188 -0.0414 0.0315 0
M  V30 35 H -0.5681 1.3946 1.4583 0
M  V30 36 H -1.1388 -0.214 1.0188 0
M  V30 37 H 1.8209 1.6152 -1.3443 0
M  V30 38 H 1.1843 2.4865 0.0515 0
M  V30 39 H -0.3008 1.5381 -2.1699 0
M  V30 40 H -1.2045 2.1246 -0.7789 0
M  V30 41 H -1.4315 -0.6652 -2.0445 0
M  V30 42 H -2.4626 -0.0541 -0.7155 0
M  V30 43 H -4.636 1.5276 -4.499 0
M  V30 44 H -3.4613 -1.8411 -2.041 0
M  V30 45 H -6.4144 0.1283 -5.5197 0
M  V30 46 H -5.2395 -3.1936 -3.085 0
M  V30 END ATOM
M  V30 BEGIN BOND
M  V30 1 1 1 2
M  V30 2 2 2 3
M  V30 3 1 2 4
M  V30 4 1 3 5
M  V30 5 2 4 6
M  V30 6 2 5 7
M  V30 7 1 7 8
M  V30 8 1 8 9
M  V30 9 1 8 10
M  V30 10 1 8 11
M  V30 11 1 10 12
M  V30 12 1 11 13
M  V30 13 1 12 14
M  V30 14 1 14 15
M  V30 15 1 15 16
M  V30 16 1 16 17
M  V30 17 2 17 18
M  V30 18 1 17 19
M  V30 19 2 19 20
M  V30 20 1 19 21
M  V30 21 1 20 22
M  V30 22 2 21 23
M  V30 23 2 22 24
M  V30 24 1 24 25
M  V30 25 1 6 7
M  V30 26 1 13 14
M  V30 27 1 23 24
M  V30 28 1 3 26
M  V30 29 1 4 27
M  V30 30 1 5 28
M  V30 31 1 6 29
M  V30 32 1 9 30
M  V30 33 1 10 31
M  V30 34 1 10 32
M  V30 35 1 11 33
M  V30 36 1 11 34
M  V30 37 1 12 35
M  V30 38 1 12 36
M  V30 39 1 13 37
M  V30 40 1 13 38
M  V30 41 1 15 39
M  V30 42 1 15 40
M  V30 43 1 16 41
M  V30 44 1 16 42
M  V30 45 1 20 43
M  V30 46 1 21 44
M  V30 47 1 22 45
M  V30 48 1 23 46
M  V30 END BOND
M  V30 END CTAB
M  END
>  <Column 1>
901

>  <level_0>
1033

>  <index>
1033

>  <Unnamed: 0>
1033

>  <NO.>
1045

>  <Name>
bromperidol

>  <IUPAC_name>


>  <SMILES>
O=C(CCN1CCC(O)(c2ccc(Br)cc2)CC1)c1ccc(F)cc1

>  <CID>


>  <logBB>
1.38

>  <BBB+/BBB->
BBB+

>  <Inchi>
InChI=1S/C20H21BrFNO2/c21-17-5-3-16(4-6-17)20(25)10-13-23(14-11-20)12-9-19(24)15-1-7-18(22)8-2-15/h1-8-25H-9-14H2

>  <threshold>


>  <reference>
R12|R35|R40|

>  <group>
A

>  <Class>
1

>  <ABC>
19.48

>  <ABCGG>
14.55

>  <nAcid>
0

>  <nBase>
1

>  <nAromAtom>
12

>  <nAromBond>
12

>  <nAtom>
46

>  <nHeavyAtom>
25

>  <nSpiro>
0

>  <nBridgehead>
0

>  <nHetero>
5

>  <nN>
1

>  <nO>
2

>  <nF>
1

>  <BalabanJ>
1.37

>  <BertzCT>
722.37

>  <nBonds>
48

>  <nBondsO>
27

>  <nBondsS>
35

>  <nBondsD>
1

>  <nBondsT>
0

>  <nBondsA>
12

>  <nBondsM>
13

>  <nBondsKS>
41

>  <nBondsKD>
7

>  <RNCG>
0.24

>  <RPCG>
0.13

>  <FCSP3>
0.35

>  <SZ>
34.67

>  <Sm>
33.83

>  <Sv>
29.81

>  <Sse>
46.28

>  <Sp>
32.16

>  <Si>
51.67

>  <MZ>
0.75

>  <Mm>
0.74

>  <Mv>
0.65

>  <Mse>
1.01

>  <Mp>
0.7

>  <Mi>
1.12

>  <NsCH3>
0

>  <NdCH2>
0

>  <NssCH2>
6

>  <NtCH>
0

>  <NdsCH>
0

>  <NaaCH>
8

>  <NsssCH>
0

>  <NddC>
0

>  <NtsC>
0

>  <NdssC>
1

>  <NaasC>
4

>  <NaaaC>
0

>  <NssssC>
1

>  <NsNH3>
0

>  <NsNH2>
0

>  <NssNH2>
0

>  <NdNH>
0

>  <NssNH>
0

>  <NaaNH>
0

>  <NtN>
0

>  <NsssNH>
0

>  <NdsN>
0

>  <NaaN>
0

>  <NsssN>
1

>  <NddsN>
0

>  <NaasN>
0

>  <NssssN>
0

>  <NsOH>
1

>  <NdO>
1

>  <NssO>
0

>  <NaaO>
0

>  <NsF>
1

>  <NsSiH3>
0

>  <NssSiH2>
0

>  <NsssSiH>
0

>  <NssssSi>
0

>  <NsPH2>
0

>  <NssPH>
0

>  <NsssP>
0

>  <NdsssP>
0

>  <NsssssP>
0

>  <NsSH>
0

>  <NdS>
0

>  <NssS>
0

>  <NaaS>
0

>  <NdssS>
0

>  <NddssS>
0

>  <NsCl>
0

>  <NsBr>
1

>  <NsI>
0

>  <fragCpx>
129.05

>  <fMF>
0.46

>  <nHBAcc>
3

>  <nHBDon>
1

>  <Kier1>
19.75

>  <Kier2>
8.79

>  <Lipinski>
1

>  <GhoseFilter>
1

>  <FilterItLogS>
-5.65

>  <VMcGowan>
270.96

>  <LabuteASA>
155.15

>  <PEOE_VSA1>
10.01

>  <PEOE_VSA2>
4.79

>  <PEOE_VSA3>
4.39

>  <PEOE_VSA4>
0

>  <PEOE_VSA5>
0

>  <PEOE_VSA6>
28.06

>  <PEOE_VSA7>
54.8

>  <PEOE_VSA8>
36.09

>  <PEOE_VSA9>
5.6

>  <PEOE_VSA10>
5.82

>  <PEOE_VSA11>
5.78

>  <PEOE_VSA12>
0

>  <PEOE_VSA13>
0

>  <SMR_VSA1>
14.29

>  <SMR_VSA2>
0

>  <SMR_VSA3>
4.9

>  <SMR_VSA4>
0

>  <SMR_VSA5>
24.86

>  <SMR_VSA6>
19.63

>  <SMR_VSA7>
69.95

>  <SMR_VSA8>
0

>  <SMR_VSA9>
0

>  <SlogP_VSA1>
0

>  <SlogP_VSA2>
35.42

>  <SlogP_VSA3>
5.6

>  <SlogP_VSA4>
5.82

>  <SlogP_VSA5>
35.18

>  <SlogP_VSA6>
53

>  <SlogP_VSA7>
0

>  <SlogP_VSA8>
0

>  <SlogP_VSA9>
0

>  <SlogP_VSA10>
4.39

>  <SlogP_VSA11>
0

>  <EState_VSA1>
5.6

>  <EState_VSA2>
11.6

>  <EState_VSA3>
31.37

>  <EState_VSA4>
23.13

>  <EState_VSA5>
24.27

>  <EState_VSA6>
0

>  <EState_VSA7>
24.27

>  <EState_VSA8>
20.83

>  <EState_VSA9>
0

>  <EState_VSA10>
14.29

>  <VSA_EState1>
13.91

>  <VSA_EState2>
14.38

>  <VSA_EState3>
10.89

>  <VSA_EState4>
0.69

>  <VSA_EState5>
-0.31

>  <VSA_EState6>
13.48

>  <VSA_EState7>
1.71

>  <VSA_EState8>
2.17

>  <VSA_EState9>
0

>  <apol>
53.71

>  <bpol>
26.14

>  <nRing>
3

>  <nHRing>
1

>  <naRing>
2

>  <naHRing>
0

>  <nARing 2>
1

>  <nAHRing 2>
1

>  <nFRing>
0

>  <nFHRing>
0

>  <nFaRing>
0

>  <nFaHRing>
0

>  <nFARing 2>
0

>  <nFAHRing 2>
0

>  <nRot>
5

>  <SLogP>
4.14

>  <SMR>
99.06

>  <TopoPSA(NO)>
40.54

>  <TopoPSA>
40.54

>  <JGI1>
0.24

>  <JGI2>
0.11

>  <JGI3>
0.03

>  <JGI4>
0.04

>  <JGI5>
0.04

>  <Diameter>
16

>  <Radius>
8

>  <TMWC10>
126.67

>  <TSRW10>
59.76

>  <MW>
405.07

>  <AMW>
8.81

>  <WPath>
1762

>  <WPol>
38

>  <Zagreb1>
130

>  <Zagreb2>
150

>  <mZagreb2>
5.44

>  <yes>


>  <nAR-cont>
0.816016

>  <nHA-cont>
0.921834225

>  <MWHBN>
0.198744423

>  <MWHBN-cont>
0.999358073

>  <TPSA-cont>
0.717005626

>  <pka_cont>
0.97

>  <yes.1>


>  <BBB_SCORE>
5.155898587

>  <MMFF94 Energy>
57.569

$$$$
Compound 753
Actelion Java MolfileCreator 2.0

  0  0  0  0  0  0              0 V3000
M  V30 BEGIN CTAB
M  V30 COUNTS 37 39 0 0 0
M  V30 BEGIN ATOM
M  V30 1 Cl -1.8776 4.5763 -0.6528 0
M  V30 2 C -1.0808 3.5679 0.4931 0
M  V30 3 C -0.6611 2.2875 0.1178 0
M  V30 4 C -0.8648 4.0299 1.7792 0
M  V30 5 C -0.005 1.4132 1.0155 0
M  V30 6 C -0.2296 3.1961 2.6918 0
M  V30 7 N 0.4234 0.1075 0.6307 0
M  V30 8 C 0.192 1.9012 2.3247 0
M  V30 9 C 0.91 -0.8995 1.5156 0
M  V30 10 C 0.4206 -0.2048 -0.8209 0
M  V30 11 S 0.9847 0.9745 3.6152 0
M  V30 12 C 1.1936 -0.6233 2.8687 0
M  V30 13 C 1.1245 -2.2341 1.0986 0
M  V30 14 C -0.9173 -0.8224 -1.2567 0
M  V30 15 C 1.6846 -1.6264 3.7297 0
M  V30 16 C 1.608 -3.2286 1.9586 0
M  V30 17 C -0.9289 -1.1963 -2.7393 0
M  V30 18 C 1.8927 -2.9235 3.2777 0
M  V30 19 N -0.8255 -0.0045 -3.5811 0
M  V30 20 C -0.778 -0.3653 -4.9933 0
M  V30 21 H -0.8766 1.9916 -0.9032 0
M  V30 22 H -1.1857 5.0231 2.0791 0
M  V30 23 H -0.0635 3.5607 3.7042 0
M  V30 24 H 1.252 -0.8714 -1.0832 0
M  V30 25 H 0.6568 0.6886 -1.4115 0
M  V30 26 H 0.9094 -2.5563 0.0855 0
M  V30 27 H -1.7494 -0.1418 -1.0406 0
M  V30 28 H -1.1213 -1.7272 -0.6725 0
M  V30 29 H 1.9063 -1.3951 4.77 0
M  V30 30 H 1.7564 -4.2399 1.5885 0
M  V30 31 H -1.8617 -1.7287 -2.9613 0
M  V30 32 H -0.0978 -1.882 -2.9435 0
M  V30 33 H 2.2692 -3.6863 3.9531 0
M  V30 34 H -1.638 0.5941 -3.4245 0
M  V30 35 H -1.6824 -0.8999 -5.3015 0
M  V30 36 H 0.0978 -0.9838 -5.2141 0
M  V30 37 H -0.7005 0.5432 -5.5985 0
M  V30 END ATOM
M  V30 BEGIN BOND
M  V30 1 1 1 2
M  V30 2 2 2 3
M  V30 3 1 2 4
M  V30 4 1 3 5
M  V30 5 2 4 6
M  V30 6 1 5 7
M  V30 7 2 5 8
M  V30 8 1 7 9
M  V30 9 1 7 10
M  V30 10 1 8 11
M  V30 11 2 9 12
M  V30 12 1 9 13
M  V30 13 1 10 14
M  V30 14 1 12 15
M  V30 15 2 13 16
M  V30 16 1 14 17
M  V30 17 2 15 18
M  V30 18 1 17 19
M  V30 19 1 19 20
M  V30 20 1 6 8
M  V30 21 1 11 12
M  V30 22 1 16 18
M  V30 23 1 3 21
M  V30 24 1 4 22
M  V30 25 1 6 23
M  V30 26 1 10 24
M  V30 27 1 10 25
M  V30 28 1 13 26
M  V30 29 1 14 27
M  V30 30 1 14 28
M  V30 31 1 15 29
M  V30 32 1 16 30
M  V30 33 1 17 31
M  V30 34 1 17 32
M  V30 35 1 18 33
M  V30 36 1 19 34
M  V30 37 1 20 35
M  V30 38 1 20 36
M  V30 39 1 20 37
M  V30 END BOND
M  V30 END CTAB
M  END
>  <Column 1>
902

>  <level_0>
1034

>  <index>
1034

>  <Unnamed: 0>
1034

>  <NO.>
1046

>  <Name>
1225-64-5

>  <IUPAC_name>
3-(2-chlorophenothiazin-10-yl)-n-methylpropan-1-amine

>  <SMILES>
CNCCCN1c2ccccc2Sc2ccc(Cl)cc21

>  <CID>
62875

>  <logBB>
1.4

>  <BBB+/BBB->
BBB+

>  <Inchi>
InChI=1S/C16H17ClN2S/c1-18-9-4-10-19-13-5-2-3-6-15(13)20-16-8-7-12(17)11-14(16)19/h2-3-5-8-11-18H-4-9-10H2-1H3

>  <threshold>


>  <reference>
R18|R26|R27|R4|R11|R12|R20|R25|R35|R36|R39|R43|R46|R47|R40|R2|R2|R27|R8|R21|R27|R5|

>  <group>
A

>  <Class>
1

>  <ABC>
15.5

>  <ABCGG>
12.3

>  <nAcid>
0

>  <nBase>
1

>  <nAromAtom>
12

>  <nAromBond>
12

>  <nAtom>
37

>  <nHeavyAtom>
20

>  <nSpiro>
0

>  <nBridgehead>
0

>  <nHetero>
4

>  <nN>
2

>  <nO>
0

>  <nF>
0

>  <BalabanJ>
1.71

>  <BertzCT>
615.18

>  <nBonds>
39

>  <nBondsO>
22

>  <nBondsS>
27

>  <nBondsD>
0

>  <nBondsT>
0

>  <nBondsA>
12

>  <nBondsM>
12

>  <nBondsKS>
33

>  <nBondsKD>
6

>  <RNCG>
0.29

>  <RPCG>
0.1

>  <FCSP3>
0.25

>  <SZ>
26.67

>  <Sm>
25.38

>  <Sv>
24.4

>  <Sse>
36.72

>  <Sp>
27.15

>  <Si>
41.18

>  <MZ>
0.72

>  <Mm>
0.69

>  <Mv>
0.66

>  <Mse>
0.99

>  <Mp>
0.73

>  <Mi>
1.11

>  <NsCH3>
1

>  <NdCH2>
0

>  <NssCH2>
3

>  <NtCH>
0

>  <NdsCH>
0

>  <NaaCH>
7

>  <NsssCH>
0

>  <NddC>
0

>  <NtsC>
0

>  <NdssC>
0

>  <NaasC>
5

>  <NaaaC>
0

>  <NssssC>
0

>  <NsNH3>
0

>  <NsNH2>
0

>  <NssNH2>
0

>  <NdNH>
0

>  <NssNH>
1

>  <NaaNH>
0

>  <NtN>
0

>  <NsssNH>
0

>  <NdsN>
0

>  <NaaN>
0

>  <NsssN>
1

>  <NddsN>
0

>  <NaasN>
0

>  <NssssN>
0

>  <NsOH>
0

>  <NdO>
0

>  <NssO>
0

>  <NaaO>
0

>  <NsF>
0

>  <NsSiH3>
0

>  <NssSiH2>
0

>  <NsssSiH>
0

>  <NssssSi>
0

>  <NsPH2>
0

>  <NssPH>
0

>  <NsssP>
0

>  <NdsssP>
0

>  <NsssssP>
0

>  <NsSH>
0

>  <NdS>
0

>  <NssS>
1

>  <NaaS>
0

>  <NdssS>
0

>  <NddssS>
0

>  <NsCl>
1

>  <NsBr>
0

>  <NsI>
0

>  <fragCpx>
104.04

>  <fMF>
0.38

>  <nHBAcc>
3

>  <nHBDon>
1

>  <Kier1>
14.92

>  <Kier2>
6.84

>  <Lipinski>
1

>  <GhoseFilter>
1

>  <FilterItLogS>
-5.55

>  <VMcGowan>
226.47

>  <LabuteASA>
128.68

>  <PEOE_VSA1>
10.22

>  <PEOE_VSA2>
0

>  <PEOE_VSA3>
0

>  <PEOE_VSA4>
0

>  <PEOE_VSA5>
0

>  <PEOE_VSA6>
35.5

>  <PEOE_VSA7>
50.35

>  <PEOE_VSA8>
21.36

>  <PEOE_VSA9>
11.37

>  <PEOE_VSA10>
0

>  <PEOE_VSA11>
0

>  <PEOE_VSA12>
0

>  <PEOE_VSA13>
0

>  <SMR_VSA1>
0

>  <SMR_VSA2>
0

>  <SMR_VSA3>
5.32

>  <SMR_VSA4>
0

>  <SMR_VSA5>
16.21

>  <SMR_VSA6>
25.04

>  <SMR_VSA7>
47.49

>  <SMR_VSA8>
0

>  <SMR_VSA9>
0

>  <SlogP_VSA1>
10.22

>  <SlogP_VSA2>
20.14

>  <SlogP_VSA3>
0

>  <SlogP_VSA4>
0

>  <SlogP_VSA5>
6.42

>  <SlogP_VSA6>
52.26

>  <SlogP_VSA7>
5.02

>  <SlogP_VSA8>
0

>  <SlogP_VSA9>
0

>  <SlogP_VSA10>
11.37

>  <SlogP_VSA11>
0

>  <EState_VSA1>
0

>  <EState_VSA2>
0

>  <EState_VSA3>
0

>  <EState_VSA4>
24.53

>  <EState_VSA5>
21.17

>  <EState_VSA6>
0

>  <EState_VSA7>
24.88

>  <EState_VSA8>
46.61

>  <EState_VSA9>
11.6

>  <EState_VSA10>
0

>  <VSA_EState1>
0

>  <VSA_EState2>
4.97

>  <VSA_EState3>
4

>  <VSA_EState4>
2.5

>  <VSA_EState5>
0

>  <VSA_EState6>
14.71

>  <VSA_EState7>
1.1

>  <VSA_EState8>
2.01

>  <VSA_EState9>
1.99

>  <apol>
45.34

>  <bpol>
22.3

>  <nRing>
3

>  <nHRing>
1

>  <naRing>
2

>  <naHRing>
0

>  <nARing 2>
1

>  <nAHRing 2>
1

>  <nFRing>
1

>  <nFHRing>
1

>  <nFaRing>
0

>  <nFaHRing>
0

>  <nFARing 2>
1

>  <nFAHRing 2>
1

>  <nRot>
4

>  <SLogP>
4.55

>  <SMR>
87.57

>  <TopoPSA(NO)>
15.27

>  <TopoPSA>
40.57

>  <JGI1>
0.14

>  <JGI2>
0.07

>  <JGI3>
0.04

>  <JGI4>
0.05

>  <JGI5>
0.02

>  <Diameter>
9

>  <Radius>
5

>  <TMWC10>
115.8

>  <TSRW10>
53.81

>  <MW>
304.08

>  <AMW>
8.22

>  <WPath>
772

>  <WPol>
32

>  <Zagreb1>
104

>  <Zagreb2>
123

>  <mZagreb2>
4.53

>  <yes>


>  <nAR-cont>
0.816016

>  <nHA-cont>
0.999629945

>  <MWHBN>
0.229385554

>  <MWHBN-cont>
0.987380546

>  <TPSA-cont>
0.716796208

>  <pka_cont>
0.97

>  <yes.1>


>  <BBB_SCORE>
5.215309179

>  <MMFF94 Energy>
58.098

$$$$
Compound 754
Actelion Java MolfileCreator 2.0

  0  0  0  0  0  0              0 V3000
M  V30 BEGIN CTAB
M  V30 COUNTS 52 55 0 0 0
M  V30 BEGIN ATOM
M  V30 1 S -0.4879 2.5228 -3.0117 0
M  V30 2 C -1.7254 1.2714 -2.741 0
M  V30 3 C 0.974 1.543 -3.286 0
M  V30 4 C -1.4097 -0.0773 -2.4918 0
M  V30 5 C -3.0644 1.6964 -2.7682 0
M  V30 6 C 1.0414 0.1681 -2.9877 0
M  V30 7 C 2.093 2.216 -3.807 0
M  V30 8 N -0.0653 -0.531 -2.4342 0
M  V30 9 C -2.4845 -0.977 -2.3364 0
M  V30 10 C -4.1072 0.7916 -2.5794 0
M  V30 11 C 2.2437 -0.5014 -3.2938 0
M  V30 12 C 3.2781 1.5342 -4.0694 0
M  V30 13 C 0.2566 -1.4558 -1.3184 0
M  V30 14 C -3.8277 -0.5586 -2.3635 0
M  V30 15 C 3.35 0.1712 -3.8216 0
M  V30 16 C 0.4285 -0.6878 0.0024 0
M  V30 17 C -4.9402 -1.5649 -2.2073 0
M  V30 18 C 0.7722 -1.6546 1.1428 0
M  V30 19 F -4.6277 -2.568 -1.3394 0
M  V30 20 F -6.0976 -1.0192 -1.7401 0
M  V30 21 F -5.2592 -2.1728 -3.3823 0
M  V30 22 N 0.9592 -1.0795 2.4781 0
M  V30 23 C -0.2561 -0.45 3.0238 0
M  V30 24 C 2.085 -0.1323 2.5596 0
M  V30 25 C -0.0389 0.0569 4.4697 0
M  V30 26 C 2.3033 0.3747 4.0053 0
M  V30 27 N 1.0902 1.0029 4.5654 0
M  V30 28 C 1.3095 1.4102 5.9505 0
M  V30 29 H -3.3029 2.7435 -2.9472 0
M  V30 30 H 2.0419 3.2818 -4.0201 0
M  V30 31 H -2.2903 -2.0417 -2.224 0
M  V30 32 H -5.1362 1.1463 -2.6147 0
M  V30 33 H 2.3309 -1.5756 -3.1602 0
M  V30 34 H 4.1334 2.0642 -4.4794 0
M  V30 35 H 1.1634 -2.0357 -1.5182 0
M  V30 36 H -0.5142 -2.2228 -1.1917 0
M  V30 37 H 4.2614 -0.3765 -4.0469 0
M  V30 38 H -0.4956 -0.1454 0.2295 0
M  V30 39 H 1.2207 0.0596 -0.1131 0
M  V30 40 H -0.0114 -2.4206 1.2087 0
M  V30 41 H 1.6852 -2.2042 0.8788 0
M  V30 42 H -0.5766 0.3952 2.4024 0
M  V30 43 H -1.075 -1.1791 3.0366 0
M  V30 44 H 1.9201 0.7345 1.9078 0
M  V30 45 H 3.0062 -0.6251 2.2269 0
M  V30 46 H 0.1232 -0.8058 5.1302 0
M  V30 47 H -0.9593 0.5532 4.8007 0
M  V30 48 H 2.6276 -0.466 4.6336 0
M  V30 49 H 3.1198 1.1068 3.992 0
M  V30 50 H 1.5535 0.5624 6.6008 0
M  V30 51 H 0.4176 1.9051 6.3505 0
M  V30 52 H 2.127 2.1371 6.0115 0
M  V30 END ATOM
M  V30 BEGIN BOND
M  V30 1 1 1 2
M  V30 2 1 1 3
M  V30 3 2 2 4
M  V30 4 1 2 5
M  V30 5 2 3 6
M  V30 6 1 3 7
M  V30 7 1 4 8
M  V30 8 1 4 9
M  V30 9 2 5 10
M  V30 10 1 6 11
M  V30 11 2 7 12
M  V30 12 1 8 13
M  V30 13 2 9 14
M  V30 14 2 11 15
M  V30 15 1 13 16
M  V30 16 1 14 17
M  V30 17 1 16 18
M  V30 18 1 17 19
M  V30 19 1 17 20
M  V30 20 1 17 21
M  V30 21 1 18 22
M  V30 22 1 22 23
M  V30 23 1 22 24
M  V30 24 1 23 25
M  V30 25 1 24 26
M  V30 26 1 25 27
M  V30 27 1 27 28
M  V30 28 1 6 8
M  V30 29 1 10 14
M  V30 30 1 12 15
M  V30 31 1 26 27
M  V30 32 1 5 29
M  V30 33 1 7 30
M  V30 34 1 9 31
M  V30 35 1 10 32
M  V30 36 1 11 33
M  V30 37 1 12 34
M  V30 38 1 13 35
M  V30 39 1 13 36
M  V30 40 1 15 37
M  V30 41 1 16 38
M  V30 42 1 16 39
M  V30 43 1 18 40
M  V30 44 1 18 41
M  V30 45 1 23 42
M  V30 46 1 23 43
M  V30 47 1 24 44
M  V30 48 1 24 45
M  V30 49 1 25 46
M  V30 50 1 25 47
M  V30 51 1 26 48
M  V30 52 1 26 49
M  V30 53 1 28 50
M  V30 54 1 28 51
M  V30 55 1 28 52
M  V30 END BOND
M  V30 END CTAB
M  END
>  <Column 1>
903

>  <level_0>
1035

>  <index>
1035

>  <Unnamed: 0>
1035

>  <NO.>
1047

>  <Name>
117-89-5

>  <IUPAC_name>
10-[3-(4-methylpiperazine-1-4-diium-1-yl)propyl]-2-(trifluoromethyl)phenothiazine

>  <SMILES>
CN1CCN(CCCN2c3ccccc3Sc3ccc(C(F)(F)F)cc32)CC1

>  <CID>
5566

>  <logBB>
1.4

>  <BBB+/BBB->
BBB+

>  <Inchi>
InChI=1S/C21H24F3N3S/c1-25-11-13-26(14-12-25)9-4-10-27-17-5-2-3-6-19(17)28-20-8-7-16(15-18(20)27)21(22-23)24/h2-3-5-8-15H-4-9-14H2-1H3

>  <threshold>


>  <reference>
R4|R5|R50|R40|R2|R2|R8|R27|R21|R27|R11|R12|R17|R18|R25|R26|R27|R35|R36|R43|R47|R49|R49|

>  <group>
A

>  <Class>
1

>  <ABC>
22.28

>  <ABCGG>
16.47

>  <nAcid>
0

>  <nBase>
2

>  <nAromAtom>
12

>  <nAromBond>
12

>  <nAtom>
52

>  <nHeavyAtom>
28

>  <nSpiro>
0

>  <nBridgehead>
0

>  <nHetero>
7

>  <nN>
3

>  <nO>
0

>  <nF>
3

>  <BalabanJ>
1.39

>  <BertzCT>
831.89

>  <nBonds>
55

>  <nBondsO>
31

>  <nBondsS>
43

>  <nBondsD>
0

>  <nBondsT>
0

>  <nBondsA>
12

>  <nBondsM>
12

>  <nBondsKS>
49

>  <nBondsKD>
6

>  <RNCG>
0.18

>  <RPCG>
0.22

>  <FCSP3>
0.43

>  <SZ>
35.67

>  <Sm>
33.93

>  <Sv>
32.9

>  <Sse>
52.59

>  <Sp>
35.3

>  <Si>
59.42

>  <MZ>
0.69

>  <Mm>
0.65

>  <Mv>
0.63

>  <Mse>
1.01

>  <Mp>
0.68

>  <Mi>
1.14

>  <NsCH3>
1

>  <NdCH2>
0

>  <NssCH2>
7

>  <NtCH>
0

>  <NdsCH>
0

>  <NaaCH>
7

>  <NsssCH>
0

>  <NddC>
0

>  <NtsC>
0

>  <NdssC>
0

>  <NaasC>
5

>  <NaaaC>
0

>  <NssssC>
1

>  <NsNH3>
0

>  <NsNH2>
0

>  <NssNH2>
0

>  <NdNH>
0

>  <NssNH>
0

>  <NaaNH>
0

>  <NtN>
0

>  <NsssNH>
0

>  <NdsN>
0

>  <NaaN>
0

>  <NsssN>
3

>  <NddsN>
0

>  <NaasN>
0

>  <NssssN>
0

>  <NsOH>
0

>  <NdO>
0

>  <NssO>
0

>  <NaaO>
0

>  <NsF>
3

>  <NsSiH3>
0

>  <NssSiH2>
0

>  <NsssSiH>
0

>  <NssssSi>
0

>  <NsPH2>
0

>  <NssPH>
0

>  <NsssP>
0

>  <NdsssP>
0

>  <NsssssP>
0

>  <NsSH>
0

>  <NdS>
0

>  <NssS>
1

>  <NaaS>
0

>  <NdssS>
0

>  <NddssS>
0

>  <NsCl>
0

>  <NsBr>
0

>  <NsI>
0

>  <fragCpx>
205.07

>  <fMF>
0.44

>  <nHBAcc>
4

>  <nHBDon>
0

>  <Kier1>
21.24

>  <Kier2>
9.01

>  <Lipinski>
1

>  <GhoseFilter>
1

>  <FilterItLogS>
-5.48

>  <VMcGowan>
289.08

>  <LabuteASA>
167.66

>  <PEOE_VSA1>
14.7

>  <PEOE_VSA2>
0

>  <PEOE_VSA3>
0

>  <PEOE_VSA4>
13.17

>  <PEOE_VSA5>
0

>  <PEOE_VSA6>
23.89

>  <PEOE_VSA7>
50.35

>  <PEOE_VSA8>
42.51

>  <PEOE_VSA9>
16.94

>  <PEOE_VSA10>
0

>  <PEOE_VSA11>
0

>  <PEOE_VSA12>
0

>  <PEOE_VSA13>
0

>  <SMR_VSA1>
13.17

>  <SMR_VSA2>
0

>  <SMR_VSA3>
9.8

>  <SMR_VSA4>
0

>  <SMR_VSA5>
22.39

>  <SMR_VSA6>
51.22

>  <SMR_VSA7>
48.03

>  <SMR_VSA8>
0

>  <SMR_VSA9>
0

>  <SlogP_VSA1>
4.9

>  <SlogP_VSA2>
56.12

>  <SlogP_VSA3>
6.18

>  <SlogP_VSA4>
0

>  <SlogP_VSA5>
11.98

>  <SlogP_VSA6>
52.26

>  <SlogP_VSA7>
0

>  <SlogP_VSA8>
0

>  <SlogP_VSA9>
0

>  <SlogP_VSA10>
24.55

>  <SlogP_VSA11>
0

>  <EState_VSA1>
11.74

>  <EState_VSA2>
0

>  <EState_VSA3>
12.23

>  <EState_VSA4>
54.62

>  <EState_VSA5>
12.13

>  <EState_VSA6>
17.83

>  <EState_VSA7>
24.27

>  <EState_VSA8>
21.75

>  <EState_VSA9>
0

>  <EState_VSA10>
13.17

>  <VSA_EState1>
39.81

>  <VSA_EState2>
8.8

>  <VSA_EState3>
0

>  <VSA_EState4>
1.07

>  <VSA_EState5>
0

>  <VSA_EState6>
12.05

>  <VSA_EState7>
-3.42

>  <VSA_EState8>
5.92

>  <VSA_EState9>
2.13

>  <apol>
58.94

>  <bpol>
35.01

>  <nRing>
4

>  <nHRing>
2

>  <naRing>
2

>  <naHRing>
0

>  <nARing 2>
2

>  <nAHRing 2>
2

>  <nFRing>
1

>  <nFHRing>
1

>  <nFaRing>
0

>  <nFaHRing>
0

>  <nFARing 2>
1

>  <nFAHRing 2>
1

>  <nRot>
4

>  <SLogP>
4.95

>  <SMR>
107.57

>  <TopoPSA(NO)>
9.72

>  <TopoPSA>
35.02

>  <JGI1>
0.21

>  <JGI2>
0.08

>  <JGI3>
0.04

>  <JGI4>
0.04

>  <JGI5>
0.03

>  <Diameter>
13

>  <Radius>
7

>  <TMWC10>
136.09

>  <TSRW10>
63.74

>  <MW>
407.16

>  <AMW>
7.83

>  <WPath>
2075

>  <WPol>
46

>  <Zagreb1>
152

>  <Zagreb2>
179

>  <mZagreb2>
5.94

>  <yes>


>  <nAR-cont>
1

>  <nHA-cont>
0.82432561

>  <MWHBN>
0.198233678

>  <MWHBN-cont>
0.999232929

>  <TPSA-cont>
0.755538654

>  <pka_cont>
0.97

>  <yes.1>


>  <BBB_SCORE>
5.319252311

>  <MMFF94 Energy>
158.89

$$$$
Compound 755
Actelion Java MolfileCreator 2.0

  0  0  0  0  0  0              0 V3000
M  V30 BEGIN CTAB
M  V30 COUNTS 34 34 0 0 0
M  V30 BEGIN ATOM
M  V30 1 Cl -3.4094 -4.3624 3.0918 0
M  V30 2 C -2.7449 -3.3099 1.9039 0
M  V30 3 C -1.6567 -2.5011 2.2255 0
M  V30 4 C -3.3001 -3.275 0.6262 0
M  V30 5 C -1.1085 -1.6479 1.2576 0
M  V30 6 C -2.7662 -2.4201 -0.3372 0
M  V30 7 C 0.0604 -0.8006 1.6458 0
M  V30 8 C -1.6743 -1.6064 -0.0231 0
M  V30 9 O 0.2766 -0.6088 2.8438 0
M  V30 10 C 0.9477 -0.1856 0.5418 0 CFG=1
M  V30 11 N 0.3193 1.0826 0.148 0
M  V30 12 C 2.3697 -0.0305 1.0823 0
M  V30 13 C 0.804 1.8023 -1.0387 0
M  V30 14 C 1.9354 2.7804 -0.6791 0
M  V30 15 C -0.4019 2.635 -1.5212 0
M  V30 16 C 1.2438 0.89 -2.1946 0
M  V30 17 H -1.2342 -2.5338 3.2277 0
M  V30 18 H -4.1508 -3.9047 0.3784 0
M  V30 19 H -3.2054 -2.3804 -1.3314 0
M  V30 20 H -1.2972 -0.9313 -0.7869 0
M  V30 21 H 0.9766 -0.903 -0.285 0
M  V30 22 H 0.2948 1.7096 0.9563 0
M  V30 23 H 3.0811 0.1878 0.2817 0
M  V30 24 H 2.704 -0.9556 1.5661 0
M  V30 25 H 2.4339 0.7679 1.8303 0
M  V30 26 H 2.8539 2.2659 -0.3866 0
M  V30 27 H 2.1854 3.4186 -1.535 0
M  V30 28 H 1.6463 3.4429 0.1452 0
M  V30 29 H -0.748 3.3307 -0.747 0
M  V30 30 H -0.144 3.231 -2.4045 0
M  V30 31 H -1.2477 1.9921 -1.7941 0
M  V30 32 H 2.1437 0.3179 -1.9469 0
M  V30 33 H 0.4535 0.1813 -2.4675 0
M  V30 34 H 1.4759 1.4784 -3.0902 0
M  V30 END ATOM
M  V30 BEGIN BOND
M  V30 1 1 1 2
M  V30 2 2 2 3
M  V30 3 1 2 4
M  V30 4 1 3 5
M  V30 5 2 4 6
M  V30 6 1 5 7
M  V30 7 2 5 8
M  V30 8 2 7 9
M  V30 9 1 7 10
M  V30 10 1 10 11
M  V30 11 1 10 12
M  V30 12 1 11 13
M  V30 13 1 13 14
M  V30 14 1 13 15
M  V30 15 1 13 16
M  V30 16 1 6 8
M  V30 17 1 3 17
M  V30 18 1 4 18
M  V30 19 1 6 19
M  V30 20 1 8 20
M  V30 21 1 10 21
M  V30 22 1 11 22
M  V30 23 1 12 23
M  V30 24 1 12 24
M  V30 25 1 12 25
M  V30 26 1 14 26
M  V30 27 1 14 27
M  V30 28 1 14 28
M  V30 29 1 15 29
M  V30 30 1 15 30
M  V30 31 1 15 31
M  V30 32 1 16 32
M  V30 33 1 16 33
M  V30 34 1 16 34
M  V30 END BOND
M  V30 BEGIN COLLECTION
M  V30 MDLV30/STERAC1 ATOMS=(1 10)
M  V30 END COLLECTION
M  V30 END CTAB
M  END
>  <Column 1>
904

>  <level_0>
1036

>  <index>
1036

>  <Unnamed: 0>
1036

>  <NO.>
1048

>  <Name>
bupropion (zyban)

>  <IUPAC_name>
2-(tert-butylamino)-1-(3-chlorophenyl)propan-1-one

>  <SMILES>
CC(NC(C)(C)C)C(=O)c1cccc(Cl)c1

>  <CID>
444

>  <logBB>
1.4

>  <BBB+/BBB->
BBB+

>  <Inchi>
InChI=1S/C13H18ClNO/c1-9(15-13(2-3)4)12(16)10-6-5-7-11(14)8-10/h5-9-15H-1-4H3

>  <threshold>


>  <reference>
R2|R2|R4|R8|R21|R25|R27|R27|R43|R46|R47|R40|

>  <group>
A

>  <Class>
1

>  <ABC>
12.04

>  <ABCGG>
11.14

>  <nAcid>
0

>  <nBase>
1

>  <nAromAtom>
6

>  <nAromBond>
6

>  <nAtom>
34

>  <nHeavyAtom>
16

>  <nSpiro>
0

>  <nBridgehead>
0

>  <nHetero>
3

>  <nN>
1

>  <nO>
1

>  <nF>
0

>  <BalabanJ>
2.46

>  <BertzCT>
381.76

>  <nBonds>
34

>  <nBondsO>
16

>  <nBondsS>
27

>  <nBondsD>
1

>  <nBondsT>
0

>  <nBondsA>
6

>  <nBondsM>
7

>  <nBondsKS>
30

>  <nBondsKD>
4

>  <RNCG>
0.29

>  <RPCG>
0.17

>  <FCSP3>
0.46

>  <SZ>
21.33

>  <Sm>
19.96

>  <Sv>
20.44

>  <Sse>
33.75

>  <Sp>
22.63

>  <Si>
38.39

>  <MZ>
0.63

>  <Mm>
0.59

>  <Mv>
0.6

>  <Mse>
0.99

>  <Mp>
0.67

>  <Mi>
1.13

>  <NsCH3>
4

>  <NdCH2>
0

>  <NssCH2>
0

>  <NtCH>
0

>  <NdsCH>
0

>  <NaaCH>
4

>  <NsssCH>
1

>  <NddC>
0

>  <NtsC>
0

>  <NdssC>
1

>  <NaasC>
2

>  <NaaaC>
0

>  <NssssC>
1

>  <NsNH3>
0

>  <NsNH2>
0

>  <NssNH2>
0

>  <NdNH>
0

>  <NssNH>
1

>  <NaaNH>
0

>  <NtN>
0

>  <NsssNH>
0

>  <NdsN>
0

>  <NaaN>
0

>  <NsssN>
0

>  <NddsN>
0

>  <NaasN>
0

>  <NssssN>
0

>  <NsOH>
0

>  <NdO>
1

>  <NssO>
0

>  <NaaO>
0

>  <NsF>
0

>  <NsSiH3>
0

>  <NssSiH2>
0

>  <NsssSiH>
0

>  <NssssSi>
0

>  <NsPH2>
0

>  <NssPH>
0

>  <NsssP>
0

>  <NdsssP>
0

>  <NsssssP>
0

>  <NsSH>
0

>  <NdS>
0

>  <NssS>
0

>  <NaaS>
0

>  <NdssS>
0

>  <NddssS>
0

>  <NsCl>
1

>  <NsBr>
0

>  <NsI>
0

>  <fragCpx>
16.03

>  <fMF>
0.18

>  <nHBAcc>
2

>  <nHBDon>
1

>  <Kier1>
14.06

>  <Kier2>
5.56

>  <Lipinski>
1

>  <GhoseFilter>
1

>  <FilterItLogS>
-4.06

>  <VMcGowan>
194.06

>  <LabuteASA>
102

>  <PEOE_VSA1>
5.32

>  <PEOE_VSA2>
4.79

>  <PEOE_VSA3>
0

>  <PEOE_VSA4>
0

>  <PEOE_VSA5>
0

>  <PEOE_VSA6>
23.73

>  <PEOE_VSA7>
39.83

>  <PEOE_VSA8>
16.13

>  <PEOE_VSA9>
6.04

>  <PEOE_VSA10>
0

>  <PEOE_VSA11>
5.78

>  <PEOE_VSA12>
0

>  <PEOE_VSA13>
0

>  <SMR_VSA1>
4.79

>  <SMR_VSA2>
0

>  <SMR_VSA3>
5.32

>  <SMR_VSA4>
0

>  <SMR_VSA5>
39.28

>  <SMR_VSA6>
0

>  <SMR_VSA7>
34.85

>  <SMR_VSA8>
0

>  <SMR_VSA9>
0

>  <SlogP_VSA1>
5.32

>  <SlogP_VSA2>
17.36

>  <SlogP_VSA3>
0

>  <SlogP_VSA4>
0

>  <SlogP_VSA5>
38.05

>  <SlogP_VSA6>
24.27

>  <SlogP_VSA7>
5.02

>  <SlogP_VSA8>
0

>  <SlogP_VSA9>
0

>  <SlogP_VSA10>
0

>  <SlogP_VSA11>
0

>  <EState_VSA1>
0

>  <EState_VSA2>
17.36

>  <EState_VSA3>
10.59

>  <EState_VSA4>
0

>  <EState_VSA5>
0

>  <EState_VSA6>
24.27

>  <EState_VSA7>
27.69

>  <EState_VSA8>
5.32

>  <EState_VSA9>
11.6

>  <EState_VSA10>
4.79

>  <VSA_EState1>
0

>  <VSA_EState2>
12.05

>  <VSA_EState3>
3.84

>  <VSA_EState4>
0.57

>  <VSA_EState5>
0.07

>  <VSA_EState6>
6.83

>  <VSA_EState7>
0

>  <VSA_EState8>
7.98

>  <VSA_EState9>
0

>  <apol>
37.79

>  <bpol>
20.01

>  <nRing>
1

>  <nHRing>
0

>  <naRing>
1

>  <naHRing>
0

>  <nARing 2>
0

>  <nAHRing 2>
0

>  <nFRing>
0

>  <nFHRing>
0

>  <nFaRing>
0

>  <nFaHRing>
0

>  <nFARing 2>
0

>  <nFAHRing 2>
0

>  <nRot>
3

>  <SLogP>
3.3

>  <SMR>
68.13

>  <TopoPSA(NO)>
29.1

>  <TopoPSA>
29.1

>  <JGI1>
0.34

>  <JGI2>
0.09

>  <JGI3>
0.08

>  <JGI4>
0.05

>  <JGI5>
0.03

>  <Diameter>
8

>  <Radius>
4

>  <TMWC10>
101.09

>  <TSRW10>
47.99

>  <MW>
239.11

>  <AMW>
7.03

>  <WPath>
454

>  <WPol>
20

>  <Zagreb1>
78

>  <Zagreb2>
85

>  <mZagreb2>
3.43

>  <yes>


>  <nAR-cont>
0.336376

>  <nHA-cont>
0.954961865

>  <MWHBN>
0.194009227

>  <MWHBN-cont>
0.997763315

>  <TPSA-cont>
0.79686393

>  <pka_cont>
0.97

>  <yes.1>


>  <BBB_SCORE>
4.866710697

>  <MMFF94 Energy>
65.991

$$$$
Compound 756
Actelion Java MolfileCreator 2.0

  0  0  0  0  0  0              0 V3000
M  V30 BEGIN CTAB
M  V30 COUNTS 52 55 0 0 0
M  V30 BEGIN ATOM
M  V30 1 S -2.4425 0.4881 -2.7685 0
M  V30 2 C -2.1477 -0.5728 -1.3587 0
M  V30 3 C -2.6804 2.0702 -1.9861 0
M  V30 4 C -1.8425 -0.0761 -0.0663 0
M  V30 5 C -2.2389 -1.9524 -1.6039 0
M  V30 6 C -2.2722 2.3223 -0.6639 0
M  V30 7 C -3.2629 3.0902 -2.7555 0
M  V30 8 N -1.6531 1.3174 0.1242 0
M  V30 9 C -1.7817 -1.0131 0.9951 0
M  V30 10 C -2.0764 -2.8654 -0.573 0
M  V30 11 C -2.5113 3.6053 -0.1351 0
M  V30 12 C -3.4717 4.3576 -2.2158 0
M  V30 13 C -0.3859 1.7354 0.7819 0
M  V30 14 C -1.8655 -2.398 0.7167 0
M  V30 15 C -1.688 -0.6358 2.4555 0
M  V30 16 C -3.1018 4.6133 -0.9016 0
M  V30 17 C 0.7473 2.083 -0.196 0
M  V30 18 F -2.4381 -1.4601 3.2506 0
M  V30 19 F -0.4184 -0.7408 2.9458 0
M  V30 20 F -2.1082 0.6214 2.7692 0
M  V30 21 C 1.325 0.888 -0.9649 0
M  V30 22 N 1.712 -0.2441 -0.1115 0
M  V30 23 C 2.904 0.043 0.7113 0
M  V30 24 C 1.9777 -1.4419 -0.9364 0
M  V30 25 C 3.3269 -1.175 1.5667 0
M  V30 26 C 2.3958 -2.6586 -0.0811 0
M  V30 27 N 3.5841 -2.3734 0.7457 0
M  V30 28 C 3.9135 -3.5182 1.5905 0
M  V30 29 H -2.4478 -2.3205 -2.6062 0
M  V30 30 H -3.564 2.8986 -3.7831 0
M  V30 31 H -2.1499 -3.9319 -0.7678 0
M  V30 32 H -2.2662 3.8282 0.8996 0
M  V30 33 H -3.9308 5.1375 -2.8173 0
M  V30 34 H -0.014 0.9825 1.4782 0
M  V30 35 H -0.5716 2.6085 1.4187 0
M  V30 36 H -1.7909 -3.1199 1.5304 0
M  V30 37 H -3.2783 5.5933 -0.4656 0
M  V30 38 H 1.5527 2.5616 0.3748 0
M  V30 39 H 0.4139 2.8354 -0.9202 0
M  V30 40 H 0.5694 0.5598 -1.6861 0
M  V30 41 H 2.18 1.2286 -1.5637 0
M  V30 42 H 3.7465 0.3477 0.0762 0
M  V30 43 H 2.6958 0.8702 1.3987 0
M  V30 44 H 2.7625 -1.2326 -1.6759 0
M  V30 45 H 1.0719 -1.7148 -1.4906 0
M  V30 46 H 2.5434 -1.3768 2.3102 0
M  V30 47 H 4.2375 -0.9075 2.1163 0
M  V30 48 H 1.5487 -2.9601 0.55 0
M  V30 49 H 2.6135 -3.4943 -0.7568 0
M  V30 50 H 3.1014 -3.7751 2.2804 0
M  V30 51 H 4.8138 -3.313 2.1802 0
M  V30 52 H 4.1335 -4.3977 0.9754 0
M  V30 END ATOM
M  V30 BEGIN BOND
M  V30 1 1 1 2
M  V30 2 1 1 3
M  V30 3 2 2 4
M  V30 4 1 2 5
M  V30 5 2 3 6
M  V30 6 1 3 7
M  V30 7 1 4 8
M  V30 8 1 4 9
M  V30 9 2 5 10
M  V30 10 1 6 11
M  V30 11 2 7 12
M  V30 12 1 8 13
M  V30 13 2 9 14
M  V30 14 1 9 15
M  V30 15 2 11 16
M  V30 16 1 13 17
M  V30 17 1 15 18
M  V30 18 1 15 19
M  V30 19 1 15 20
M  V30 20 1 17 21
M  V30 21 1 21 22
M  V30 22 1 22 23
M  V30 23 1 22 24
M  V30 24 1 23 25
M  V30 25 1 24 26
M  V30 26 1 25 27
M  V30 27 1 27 28
M  V30 28 1 6 8
M  V30 29 1 10 14
M  V30 30 1 12 16
M  V30 31 1 26 27
M  V30 32 1 5 29
M  V30 33 1 7 30
M  V30 34 1 10 31
M  V30 35 1 11 32
M  V30 36 1 12 33
M  V30 37 1 13 34
M  V30 38 1 13 35
M  V30 39 1 14 36
M  V30 40 1 16 37
M  V30 41 1 17 38
M  V30 42 1 17 39
M  V30 43 1 21 40
M  V30 44 1 21 41
M  V30 45 1 23 42
M  V30 46 1 23 43
M  V30 47 1 24 44
M  V30 48 1 24 45
M  V30 49 1 25 46
M  V30 50 1 25 47
M  V30 51 1 26 48
M  V30 52 1 26 49
M  V30 53 1 28 50
M  V30 54 1 28 51
M  V30 55 1 28 52
M  V30 END BOND
M  V30 END CTAB
M  END
>  <Column 1>
907

>  <level_0>
1039

>  <index>
1039

>  <Unnamed: 0>
1039

>  <NO.>
1051

>  <Name>
-

>  <IUPAC_name>


>  <SMILES>
CN1CCN(CCCN2c3ccccc3Sc3cccc(C(F)(F)F)c32)CC1

>  <CID>


>  <logBB>
1.44

>  <BBB+/BBB->
BBB+

>  <Inchi>
InChI=1S/C21H24F3N3S/c1-25-12-14-26(15-13-25)10-5-11-27-17-7-2-3-8-18(17)28-19-9-4-6-16(20(19)27)21(22-23)24/h2-4-6-9H-5-10-15H2-1H3

>  <threshold>


>  <reference>
R3|R38|R41|R2|R2|R8|R27|

>  <group>
A

>  <Class>
1

>  <ABC>
22.24

>  <ABCGG>
16.8

>  <nAcid>
0

>  <nBase>
2

>  <nAromAtom>
12

>  <nAromBond>
12

>  <nAtom>
52

>  <nHeavyAtom>
28

>  <nSpiro>
0

>  <nBridgehead>
0

>  <nHetero>
7

>  <nN>
3

>  <nO>
0

>  <nF>
3

>  <BalabanJ>
1.45

>  <BertzCT>
831.89

>  <nBonds>
55

>  <nBondsO>
31

>  <nBondsS>
43

>  <nBondsD>
0

>  <nBondsT>
0

>  <nBondsA>
12

>  <nBondsM>
12

>  <nBondsKS>
49

>  <nBondsKD>
6

>  <RNCG>
0.18

>  <RPCG>
0.22

>  <FCSP3>
0.43

>  <SZ>
35.67

>  <Sm>
33.93

>  <Sv>
32.9

>  <Sse>
52.59

>  <Sp>
35.3

>  <Si>
59.42

>  <MZ>
0.69

>  <Mm>
0.65

>  <Mv>
0.63

>  <Mse>
1.01

>  <Mp>
0.68

>  <Mi>
1.14

>  <NsCH3>
1

>  <NdCH2>
0

>  <NssCH2>
7

>  <NtCH>
0

>  <NdsCH>
0

>  <NaaCH>
7

>  <NsssCH>
0

>  <NddC>
0

>  <NtsC>
0

>  <NdssC>
0

>  <NaasC>
5

>  <NaaaC>
0

>  <NssssC>
1

>  <NsNH3>
0

>  <NsNH2>
0

>  <NssNH2>
0

>  <NdNH>
0

>  <NssNH>
0

>  <NaaNH>
0

>  <NtN>
0

>  <NsssNH>
0

>  <NdsN>
0

>  <NaaN>
0

>  <NsssN>
3

>  <NddsN>
0

>  <NaasN>
0

>  <NssssN>
0

>  <NsOH>
0

>  <NdO>
0

>  <NssO>
0

>  <NaaO>
0

>  <NsF>
3

>  <NsSiH3>
0

>  <NssSiH2>
0

>  <NsssSiH>
0

>  <NssssSi>
0

>  <NsPH2>
0

>  <NssPH>
0

>  <NsssP>
0

>  <NdsssP>
0

>  <NsssssP>
0

>  <NsSH>
0

>  <NdS>
0

>  <NssS>
1

>  <NaaS>
0

>  <NdssS>
0

>  <NddssS>
0

>  <NsCl>
0

>  <NsBr>
0

>  <NsI>
0

>  <fragCpx>
205.07

>  <fMF>
0.44

>  <nHBAcc>
4

>  <nHBDon>
0

>  <Kier1>
21.24

>  <Kier2>
9.01

>  <Lipinski>
1

>  <GhoseFilter>
1

>  <FilterItLogS>
-5.48

>  <VMcGowan>
289.08

>  <LabuteASA>
167.66

>  <PEOE_VSA1>
14.7

>  <PEOE_VSA2>
0

>  <PEOE_VSA3>
0

>  <PEOE_VSA4>
13.17

>  <PEOE_VSA5>
0

>  <PEOE_VSA6>
29.96

>  <PEOE_VSA7>
44.28

>  <PEOE_VSA8>
42.51

>  <PEOE_VSA9>
16.94

>  <PEOE_VSA10>
0

>  <PEOE_VSA11>
0

>  <PEOE_VSA12>
0

>  <PEOE_VSA13>
0

>  <SMR_VSA1>
13.17

>  <SMR_VSA2>
0

>  <SMR_VSA3>
9.8

>  <SMR_VSA4>
0

>  <SMR_VSA5>
22.39

>  <SMR_VSA6>
51.22

>  <SMR_VSA7>
48.03

>  <SMR_VSA8>
0

>  <SMR_VSA9>
0

>  <SlogP_VSA1>
4.9

>  <SlogP_VSA2>
56.12

>  <SlogP_VSA3>
6.18

>  <SlogP_VSA4>
0

>  <SlogP_VSA5>
11.98

>  <SlogP_VSA6>
52.26

>  <SlogP_VSA7>
0

>  <SlogP_VSA8>
0

>  <SlogP_VSA9>
0

>  <SlogP_VSA10>
24.55

>  <SlogP_VSA11>
0

>  <EState_VSA1>
11.74

>  <EState_VSA2>
0

>  <EState_VSA3>
17.13

>  <EState_VSA4>
49.73

>  <EState_VSA5>
23.89

>  <EState_VSA6>
6.07

>  <EState_VSA7>
29.17

>  <EState_VSA8>
16.85

>  <EState_VSA9>
0

>  <EState_VSA10>
13.17

>  <VSA_EState1>
41.18

>  <VSA_EState2>
8.27

>  <VSA_EState3>
0

>  <VSA_EState4>
0.62

>  <VSA_EState5>
0

>  <VSA_EState6>
12.23

>  <VSA_EState7>
-3.54

>  <VSA_EState8>
5.61

>  <VSA_EState9>
2.12

>  <apol>
58.94

>  <bpol>
35.01

>  <nRing>
4

>  <nHRing>
2

>  <naRing>
2

>  <naHRing>
0

>  <nARing 2>
2

>  <nAHRing 2>
2

>  <nFRing>
1

>  <nFHRing>
1

>  <nFaRing>
0

>  <nFaHRing>
0

>  <nFARing 2>
1

>  <nFAHRing 2>
1

>  <nRot>
4

>  <SLogP>
4.95

>  <SMR>
107.57

>  <TopoPSA(NO)>
9.72

>  <TopoPSA>
35.02

>  <JGI1>
0.19

>  <JGI2>
0.07

>  <JGI3>
0.05

>  <JGI4>
0.05

>  <JGI5>
0.03

>  <Diameter>
12

>  <Radius>
6

>  <TMWC10>
136.43

>  <TSRW10>
63.79

>  <MW>
407.16

>  <AMW>
7.83

>  <WPath>
2003

>  <WPol>
47

>  <Zagreb1>
152

>  <Zagreb2>
180

>  <mZagreb2>
5.97

>  <yes>


>  <nAR-cont>
1

>  <nHA-cont>
0.82432561

>  <MWHBN>
0.198233678

>  <MWHBN-cont>
0.999232929

>  <TPSA-cont>
0.755538654

>  <pka_cont>
0.97

>  <yes.1>


>  <BBB_SCORE>
5.319252311

>  <MMFF94 Energy>
156.34

$$$$
Compound 757
Actelion Java MolfileCreator 2.0

  0  0  0  0  0  0              0 V3000
M  V30 BEGIN CTAB
M  V30 COUNTS 50 52 0 0 0
M  V30 BEGIN ATOM
M  V30 1 Cl 2.4088 7.159 4.4195 0
M  V30 2 C 1.6627 6.142 3.2511 0
M  V30 3 C 0.6028 5.3243 3.6161 0
M  V30 4 C 2.1205 6.1357 1.9412 0
M  V30 5 C -2.0E-4 4.4976 2.6584 0
M  V30 6 C 1.5077 5.3053 0.9925 0
M  V30 7 C 0.429 4.4641 1.3186 0
M  V30 8 N -0.1817 3.6392 0.3763 0
M  V30 9 C -0.851 2.4087 0.8299 0
M  V30 10 C -0.0783 3.9067 -1.0541 0
M  V30 11 C -1.1834 1.3633 -0.2601 0
M  V30 12 C 0.9665 3.0053 -1.6971 0
M  V30 13 N -0.0037 0.7796 -0.9399 0
M  V30 14 C 0.4314 1.6211 -2.0693 0
M  V30 15 C -0.2793 -0.5873 -1.4221 0
M  V30 16 C -0.2816 -1.6207 -0.2865 0
M  V30 17 C -0.4172 -3.042 -0.8398 0
M  V30 18 C -0.4745 -4.0844 0.2648 0
M  V30 19 O -0.5408 -3.7796 1.4537 0
M  V30 20 C -0.4643 -5.5319 -0.1134 0
M  V30 21 C -0.4216 -6.4888 0.9141 0
M  V30 22 C -0.5009 -5.9596 -1.4485 0
M  V30 23 C -0.4117 -7.8522 0.6118 0
M  V30 24 C -0.4909 -7.3258 -1.7467 0
M  V30 25 C -0.446 -8.2577 -0.7158 0
M  V30 26 F -0.4371 -9.5641 -1.0087 0
M  V30 27 H 0.2336 5.3201 4.6376 0
M  V30 28 H 2.9556 6.7637 1.6447 0
M  V30 29 H -0.8369 3.8872 2.9863 0
M  V30 30 H 1.922 5.3125 -0.0111 0
M  V30 31 H -1.7974 2.6834 1.3126 0
M  V30 32 H -0.2288 1.9087 1.5846 0
M  V30 33 H 0.1704 4.9574 -1.2453 0
M  V30 34 H -1.0556 3.7778 -1.5349 0
M  V30 35 H -1.7382 0.5783 0.266 0
M  V30 36 H -1.8982 1.7676 -0.9885 0
M  V30 37 H 1.3076 3.4842 -2.6237 0
M  V30 38 H 1.8502 2.9034 -1.0552 0
M  V30 39 H -0.3779 1.7248 -2.8048 0
M  V30 40 H 1.2544 1.1135 -2.5898 0
M  V30 41 H 0.509 -0.8914 -2.1231 0
M  V30 42 H -1.2252 -0.6227 -1.9783 0
M  V30 43 H -1.1016 -1.4305 0.4143 0
M  V30 44 H 0.6498 -1.5428 0.2889 0
M  V30 45 H 0.4445 -3.2564 -1.4815 0
M  V30 46 H -1.3376 -3.1165 -1.4299 0
M  V30 47 H -0.3949 -6.175 1.9567 0
M  V30 48 H -0.5411 -5.2555 -2.274 0
M  V30 49 H -0.3778 -8.5949 1.4029 0
M  V30 50 H -0.5189 -7.6698 -2.7763 0
M  V30 END ATOM
M  V30 BEGIN BOND
M  V30 1 1 1 2
M  V30 2 2 2 3
M  V30 3 1 2 4
M  V30 4 1 3 5
M  V30 5 2 4 6
M  V30 6 2 5 7
M  V30 7 1 7 8
M  V30 8 1 8 9
M  V30 9 1 8 10
M  V30 10 1 9 11
M  V30 11 1 10 12
M  V30 12 1 11 13
M  V30 13 1 12 14
M  V30 14 1 13 15
M  V30 15 1 15 16
M  V30 16 1 16 17
M  V30 17 1 17 18
M  V30 18 2 18 19
M  V30 19 1 18 20
M  V30 20 2 20 21
M  V30 21 1 20 22
M  V30 22 1 21 23
M  V30 23 2 22 24
M  V30 24 2 23 25
M  V30 25 1 25 26
M  V30 26 1 6 7
M  V30 27 1 13 14
M  V30 28 1 24 25
M  V30 29 1 3 27
M  V30 30 1 4 28
M  V30 31 1 5 29
M  V30 32 1 6 30
M  V30 33 1 9 31
M  V30 34 1 9 32
M  V30 35 1 10 33
M  V30 36 1 10 34
M  V30 37 1 11 35
M  V30 38 1 11 36
M  V30 39 1 12 37
M  V30 40 1 12 38
M  V30 41 1 14 39
M  V30 42 1 14 40
M  V30 43 1 15 41
M  V30 44 1 15 42
M  V30 45 1 16 43
M  V30 46 1 16 44
M  V30 47 1 17 45
M  V30 48 1 17 46
M  V30 49 1 21 47
M  V30 50 1 22 48
M  V30 51 1 23 49
M  V30 52 1 24 50
M  V30 END BOND
M  V30 END CTAB
M  END
>  <Column 1>
908

>  <level_0>
1040

>  <index>
1040

>  <Unnamed: 0>
1040

>  <NO.>
1052

>  <Name>
chembl476108

>  <IUPAC_name>
4-[4-(4-chlorophenyl)-1-4-diazepan-1-yl]-1-(4-fluorophenyl)butan-1-one

>  <SMILES>
O=C(CCCN1CCCN(c2ccc(Cl)cc2)CC1)c1ccc(F)cc1

>  <CID>
11653679

>  <logBB>
1.48

>  <BBB+/BBB->
BBB+

>  <Inchi>
InChI=1S/C21H24ClFN2O/c22-18-6-10-20(11-7-18)25-14-2-13-24(15-16-25)12-1-3-21(26)17-4-8-19(23)9-5-17/h4-11H-1-3-12-16H2

>  <threshold>


>  <reference>
R47|

>  <group>
A

>  <Class>
1

>  <ABC>
20.05

>  <ABCGG>
14.76

>  <nAcid>
0

>  <nBase>
1

>  <nAromAtom>
12

>  <nAromBond>
12

>  <nAtom>
50

>  <nHeavyAtom>
26

>  <nSpiro>
0

>  <nBridgehead>
0

>  <nHetero>
5

>  <nN>
2

>  <nO>
1

>  <nF>
1

>  <BalabanJ>
1.32

>  <BertzCT>
717.8

>  <nBonds>
52

>  <nBondsO>
28

>  <nBondsS>
39

>  <nBondsD>
1

>  <nBondsT>
0

>  <nBondsA>
12

>  <nBondsM>
13

>  <nBondsKS>
45

>  <nBondsKD>
7

>  <RNCG>
0.23

>  <RPCG>
0.1

>  <FCSP3>
0.38

>  <SZ>
33

>  <Sm>
31.21

>  <Sv>
31.47

>  <Sse>
50.03

>  <Sp>
34.02

>  <Si>
56.47

>  <MZ>
0.66

>  <Mm>
0.62

>  <Mv>
0.63

>  <Mse>
1

>  <Mp>
0.68

>  <Mi>
1.13

>  <NsCH3>
0

>  <NdCH2>
0

>  <NssCH2>
8

>  <NtCH>
0

>  <NdsCH>
0

>  <NaaCH>
8

>  <NsssCH>
0

>  <NddC>
0

>  <NtsC>
0

>  <NdssC>
1

>  <NaasC>
4

>  <NaaaC>
0

>  <NssssC>
0

>  <NsNH3>
0

>  <NsNH2>
0

>  <NssNH2>
0

>  <NdNH>
0

>  <NssNH>
0

>  <NaaNH>
0

>  <NtN>
0

>  <NsssNH>
0

>  <NdsN>
0

>  <NaaN>
0

>  <NsssN>
2

>  <NddsN>
0

>  <NaasN>
0

>  <NssssN>
0

>  <NsOH>
0

>  <NdO>
1

>  <NssO>
0

>  <NaaO>
0

>  <NsF>
1

>  <NsSiH3>
0

>  <NssSiH2>
0

>  <NsssSiH>
0

>  <NssssSi>
0

>  <NsPH2>
0

>  <NssPH>
0

>  <NsssP>
0

>  <NdsssP>
0

>  <NsssssP>
0

>  <NsSH>
0

>  <NdS>
0

>  <NssS>
0

>  <NaaS>
0

>  <NdssS>
0

>  <NddssS>
0

>  <NsCl>
1

>  <NsBr>
0

>  <NsI>
0

>  <fragCpx>
134.05

>  <fMF>
0.46

>  <nHBAcc>
3

>  <nHBDon>
0

>  <Kier1>
20.73

>  <Kier2>
10.52

>  <Lipinski>
1

>  <GhoseFilter>
1

>  <FilterItLogS>
-5.76

>  <VMcGowan>
283.9

>  <LabuteASA>
158.92

>  <PEOE_VSA1>
9.8

>  <PEOE_VSA2>
4.79

>  <PEOE_VSA3>
4.39

>  <PEOE_VSA4>
0

>  <PEOE_VSA5>
0

>  <PEOE_VSA6>
11.6

>  <PEOE_VSA7>
74.46

>  <PEOE_VSA8>
42.33

>  <PEOE_VSA9>
0

>  <PEOE_VSA10>
5.82

>  <PEOE_VSA11>
5.78

>  <PEOE_VSA12>
0

>  <PEOE_VSA13>
0

>  <SMR_VSA1>
9.18

>  <SMR_VSA2>
0

>  <SMR_VSA3>
4.9

>  <SMR_VSA4>
0

>  <SMR_VSA5>
19.26

>  <SMR_VSA6>
37.62

>  <SMR_VSA7>
64.93

>  <SMR_VSA8>
0

>  <SMR_VSA9>
0

>  <SlogP_VSA1>
4.9

>  <SlogP_VSA2>
43.41

>  <SlogP_VSA3>
0

>  <SlogP_VSA4>
5.82

>  <SlogP_VSA5>
29.62

>  <SlogP_VSA6>
48.53

>  <SlogP_VSA7>
5.02

>  <SlogP_VSA8>
0

>  <SlogP_VSA9>
0

>  <SlogP_VSA10>
10.08

>  <SlogP_VSA11>
0

>  <EState_VSA1>
0

>  <EState_VSA2>
11.6

>  <EState_VSA3>
11.98

>  <EState_VSA4>
50.59

>  <EState_VSA5>
17.82

>  <EState_VSA6>
12.13

>  <EState_VSA7>
12.13

>  <EState_VSA8>
21.93

>  <EState_VSA9>
11.6

>  <EState_VSA10>
9.18

>  <VSA_EState1>
12.93

>  <VSA_EState2>
16.98

>  <VSA_EState3>
0.76

>  <VSA_EState4>
1.8

>  <VSA_EState5>
-0.22

>  <VSA_EState6>
13.81

>  <VSA_EState7>
2.44

>  <VSA_EState8>
4.98

>  <VSA_EState9>
0

>  <apol>
56.81

>  <bpol>
29.99

>  <nRing>
3

>  <nHRing>
1

>  <naRing>
2

>  <naHRing>
0

>  <nARing 2>
1

>  <nAHRing 2>
1

>  <nFRing>
0

>  <nFHRing>
0

>  <nFaRing>
0

>  <nFaHRing>
0

>  <nFARing 2>
0

>  <nFAHRing 2>
0

>  <nRot>
6

>  <SLogP>
4.65

>  <SMR>
104.69

>  <TopoPSA(NO)>
23.55

>  <TopoPSA>
23.55

>  <JGI1>
0.18

>  <JGI2>
0.08

>  <JGI3>
0.03

>  <JGI4>
0.03

>  <JGI5>
0.03

>  <Diameter>
17

>  <Radius>
9

>  <TMWC10>
127.65

>  <TSRW10>
68.13

>  <MW>
374.16

>  <AMW>
7.48

>  <WPath>
2037

>  <WPol>
39

>  <Zagreb1>
130

>  <Zagreb2>
147

>  <mZagreb2>
5.81

>  <yes>


>  <nAR-cont>
0.816016

>  <nHA-cont>
0.892715677

>  <MWHBN>
0.155093136

>  <MWHBN-cont>
0.945044987

>  <TPSA-cont>
0.835606376

>  <pka_cont>
0.97

>  <yes.1>


>  <BBB_SCORE>
5.28251191

>  <MMFF94 Energy>
86.675

$$$$
Compound 758
Actelion Java MolfileCreator 2.0

  0  0  0  0  0  0              0 V3000
M  V30 BEGIN CTAB
M  V30 COUNTS 56 59 0 0 0
M  V30 BEGIN ATOM
M  V30 1 S -1.1367 1.8681 -4.4715 0
M  V30 2 C -0.6291 0.1645 -4.5706 0
M  V30 3 C -1.9088 1.9313 -2.8674 0
M  V30 4 C -0.6088 -0.6959 -3.4571 0
M  V30 5 C -0.2259 -0.2953 -5.8358 0
M  V30 6 C -1.7689 0.9096 -1.9079 0
M  V30 7 C -2.6622 3.0836 -2.5798 0
M  V30 8 N -0.99 -0.2526 -2.164 0
M  V30 9 C -0.2362 -2.0371 -3.6841 0
M  V30 10 C 0.1717 -1.6171 -6.0242 0
M  V30 11 C -2.4576 1.0726 -0.688 0
M  V30 12 C -3.3081 3.2281 -1.3552 0
M  V30 13 C -0.1386 -0.7135 -1.0351 0
M  V30 14 C 0.1673 -2.5054 -4.948 0
M  V30 15 C -3.2121 2.2169 -0.4109 0
M  V30 16 C 1.0927 0.1905 -0.8777 0
M  V30 17 C 0.5417 -3.954 -5.1368 0
M  V30 18 C 2.0171 -0.272 0.2544 0
M  V30 19 F 1.1962 -4.4761 -4.0616 0
M  V30 20 F -0.544 -4.7496 -5.3367 0
M  V30 21 F 1.3614 -4.1624 -6.2048 0
M  V30 22 N 1.3596 -0.3648 1.5665 0
M  V30 23 C 2.2601 -1.01 2.5453 0
M  V30 24 C 0.9714 0.963 2.0907 0
M  V30 25 C 1.6282 -1.0988 3.9518 0
M  V30 26 C 0.3584 0.8933 3.5112 0
M  V30 27 N 1.2476 0.226 4.4849 0
M  V30 28 C 0.5977 0.0678 5.8041 0
M  V30 29 C 0.2822 1.3921 6.5205 0
M  V30 30 O -0.9616 1.9319 6.0801 0
M  V30 31 H -0.2308 0.3789 -6.6903 0
M  V30 32 H -2.7546 3.8768 -3.3186 0
M  V30 33 H -0.2906 -2.761 -2.8732 0
M  V30 34 H 0.4696 -1.9499 -7.0171 0
M  V30 35 H -2.4473 0.2922 0.0671 0
M  V30 36 H -3.8928 4.12 -1.1474 0
M  V30 37 H 0.1997 -1.7456 -1.1688 0
M  V30 38 H -0.7062 -0.7527 -0.1012 0
M  V30 39 H -3.7296 2.307 0.5408 0
M  V30 40 H 0.7902 1.2317 -0.7187 0
M  V30 41 H 1.6687 0.1871 -1.8118 0
M  V30 42 H 2.3993 -1.263 -0.0233 0
M  V30 43 H 2.8873 0.3953 0.302 0
M  V30 44 H 2.4886 -2.0297 2.2124 0
M  V30 45 H 3.2122 -0.4661 2.6116 0
M  V30 46 H 1.8403 1.6346 2.1112 0
M  V30 47 H 0.2205 1.4193 1.4367 0
M  V30 48 H 0.7545 -1.7635 3.9094 0
M  V30 49 H 2.36 -1.5643 4.6231 0
M  V30 50 H -0.609 0.3764 3.4556 0
M  V30 51 H 0.1677 1.9249 3.8254 0
M  V30 52 H 1.2937 -0.481 6.4508 0
M  V30 53 H -0.3172 -0.5313 5.7136 0
M  V30 54 H 0.1956 1.211 7.597 0
M  V30 55 H 1.0742 2.1313 6.3597 0
M  V30 56 H -1.0662 2.7899 6.5255 0
M  V30 END ATOM
M  V30 BEGIN BOND
M  V30 1 1 1 2
M  V30 2 1 1 3
M  V30 3 2 2 4
M  V30 4 1 2 5
M  V30 5 2 3 6
M  V30 6 1 3 7
M  V30 7 1 4 8
M  V30 8 1 4 9
M  V30 9 2 5 10
M  V30 10 1 6 11
M  V30 11 2 7 12
M  V30 12 1 8 13
M  V30 13 2 9 14
M  V30 14 2 11 15
M  V30 15 1 13 16
M  V30 16 1 14 17
M  V30 17 1 16 18
M  V30 18 1 17 19
M  V30 19 1 17 20
M  V30 20 1 17 21
M  V30 21 1 18 22
M  V30 22 1 22 23
M  V30 23 1 22 24
M  V30 24 1 23 25
M  V30 25 1 24 26
M  V30 26 1 25 27
M  V30 27 1 27 28
M  V30 28 1 28 29
M  V30 29 1 29 30
M  V30 30 1 6 8
M  V30 31 1 10 14
M  V30 32 1 12 15
M  V30 33 1 26 27
M  V30 34 1 5 31
M  V30 35 1 7 32
M  V30 36 1 9 33
M  V30 37 1 10 34
M  V30 38 1 11 35
M  V30 39 1 12 36
M  V30 40 1 13 37
M  V30 41 1 13 38
M  V30 42 1 15 39
M  V30 43 1 16 40
M  V30 44 1 16 41
M  V30 45 1 18 42
M  V30 46 1 18 43
M  V30 47 1 23 44
M  V30 48 1 23 45
M  V30 49 1 24 46
M  V30 50 1 24 47
M  V30 51 1 25 48
M  V30 52 1 25 49
M  V30 53 1 26 50
M  V30 54 1 26 51
M  V30 55 1 28 52
M  V30 56 1 28 53
M  V30 57 1 29 54
M  V30 58 1 29 55
M  V30 59 1 30 56
M  V30 END BOND
M  V30 END CTAB
M  END
>  <Column 1>
909

>  <level_0>
1041

>  <index>
1041

>  <Unnamed: 0>
1041

>  <NO.>
1053

>  <Name>
fluphenazine

>  <IUPAC_name>
2-[4-[3-[2-(trifluoromethyl)phenothiazin-10-yl]propyl]piperazin-1-yl]ethanol

>  <SMILES>
OCCN1CCN(CCCN2c3ccccc3Sc3ccc(C(F)(F)F)cc32)CC1

>  <CID>
3372

>  <logBB>
1.5

>  <BBB+/BBB->
BBB+

>  <Inchi>
InChI=1S/C22H26F3N3OS/c23-22(24-25)17-6-7-21-19(16-17)28(18-4-1-2-5-20(18)30-21)9-3-8-26-10-12-27(13-11-26)14-15-29/h1-2-4-7-16-29H-3-8-15H2

>  <threshold>


>  <reference>
R5|R2|R2|R8|R11|R12|R18|R21|R25|R26|R27|R27|R27|R35|R36|R39|R42|R43|R44|R47|R50|R40|R4|

>  <group>
A

>  <Class>
1

>  <ABC>
23.59

>  <ABCGG>
17.13

>  <nAcid>
0

>  <nBase>
2

>  <nAromAtom>
12

>  <nAromBond>
12

>  <nAtom>
56

>  <nHeavyAtom>
30

>  <nSpiro>
0

>  <nBridgehead>
0

>  <nHetero>
8

>  <nN>
3

>  <nO>
1

>  <nF>
3

>  <BalabanJ>
1.34

>  <BertzCT>
868.95

>  <nBonds>
59

>  <nBondsO>
33

>  <nBondsS>
47

>  <nBondsD>
0

>  <nBondsT>
0

>  <nBondsA>
12

>  <nBondsM>
12

>  <nBondsKS>
53

>  <nBondsKD>
6

>  <RNCG>
0.17

>  <RPCG>
0.18

>  <FCSP3>
0.45

>  <SZ>
38.33

>  <Sm>
36.43

>  <Sv>
35.16

>  <Sse>
56.81

>  <Sp>
37.57

>  <Si>
64.04

>  <MZ>
0.68

>  <Mm>
0.65

>  <Mv>
0.63

>  <Mse>
1.01

>  <Mp>
0.67

>  <Mi>
1.14

>  <NsCH3>
0

>  <NdCH2>
0

>  <NssCH2>
9

>  <NtCH>
0

>  <NdsCH>
0

>  <NaaCH>
7

>  <NsssCH>
0

>  <NddC>
0

>  <NtsC>
0

>  <NdssC>
0

>  <NaasC>
5

>  <NaaaC>
0

>  <NssssC>
1

>  <NsNH3>
0

>  <NsNH2>
0

>  <NssNH2>
0

>  <NdNH>
0

>  <NssNH>
0

>  <NaaNH>
0

>  <NtN>
0

>  <NsssNH>
0

>  <NdsN>
0

>  <NaaN>
0

>  <NsssN>
3

>  <NddsN>
0

>  <NaasN>
0

>  <NssssN>
0

>  <NsOH>
1

>  <NdO>
0

>  <NssO>
0

>  <NaaO>
0

>  <NsF>
3

>  <NsSiH3>
0

>  <NssSiH2>
0

>  <NsssSiH>
0

>  <NssssSi>
0

>  <NsPH2>
0

>  <NssPH>
0

>  <NsssP>
0

>  <NdsssP>
0

>  <NsssssP>
0

>  <NsSH>
0

>  <NdS>
0

>  <NssS>
1

>  <NaaS>
0

>  <NdssS>
0

>  <NddssS>
0

>  <NsCl>
0

>  <NsBr>
0

>  <NsI>
0

>  <fragCpx>
219.08

>  <fMF>
0.41

>  <nHBAcc>
5

>  <nHBDon>
1

>  <Kier1>
23.17

>  <Kier2>
10.29

>  <Lipinski>
1

>  <GhoseFilter>
1

>  <FilterItLogS>
-5.3

>  <VMcGowan>
309.04

>  <LabuteASA>
178.82

>  <PEOE_VSA1>
14.91

>  <PEOE_VSA2>
4.9

>  <PEOE_VSA3>
0

>  <PEOE_VSA4>
13.17

>  <PEOE_VSA5>
0

>  <PEOE_VSA6>
23.89

>  <PEOE_VSA7>
43.3

>  <PEOE_VSA8>
49.06

>  <PEOE_VSA9>
23.55

>  <PEOE_VSA10>
0

>  <PEOE_VSA11>
0

>  <PEOE_VSA12>
0

>  <PEOE_VSA13>
0

>  <SMR_VSA1>
18.28

>  <SMR_VSA2>
0

>  <SMR_VSA3>
9.8

>  <SMR_VSA4>
0

>  <SMR_VSA5>
22.39

>  <SMR_VSA6>
57.32

>  <SMR_VSA7>
48.03

>  <SMR_VSA8>
0

>  <SMR_VSA9>
0

>  <SlogP_VSA1>
4.9

>  <SlogP_VSA2>
67.33

>  <SlogP_VSA3>
6.18

>  <SlogP_VSA4>
0

>  <SlogP_VSA5>
11.98

>  <SlogP_VSA6>
52.26

>  <SlogP_VSA7>
0

>  <SlogP_VSA8>
0

>  <SlogP_VSA9>
0

>  <SlogP_VSA10>
24.55

>  <SlogP_VSA11>
0

>  <EState_VSA1>
11.74

>  <EState_VSA2>
6.61

>  <EState_VSA3>
18.78

>  <EState_VSA4>
54.62

>  <EState_VSA5>
23.89

>  <EState_VSA6>
6.07

>  <EState_VSA7>
29.17

>  <EState_VSA8>
9.8

>  <EState_VSA9>
5.11

>  <EState_VSA10>
13.17

>  <VSA_EState1>
39.93

>  <VSA_EState2>
8.62

>  <VSA_EState3>
9.07

>  <VSA_EState4>
1.01

>  <VSA_EState5>
0

>  <VSA_EState6>
11.95

>  <VSA_EState7>
-3.48

>  <VSA_EState8>
6.29

>  <VSA_EState9>
0

>  <apol>
62.75

>  <bpol>
37.01

>  <nRing>
4

>  <nHRing>
2

>  <naRing>
2

>  <naHRing>
0

>  <nARing 2>
2

>  <nAHRing 2>
2

>  <nFRing>
1

>  <nFHRing>
1

>  <nFaRing>
0

>  <nFaHRing>
0

>  <nFARing 2>
1

>  <nFAHRing 2>
1

>  <nRot>
6

>  <SLogP>
4.31

>  <SMR>
113.6

>  <TopoPSA(NO)>
29.95

>  <TopoPSA>
55.25

>  <JGI1>
0.2

>  <JGI2>
0.08

>  <JGI3>
0.04

>  <JGI4>
0.04

>  <JGI5>
0.03

>  <Diameter>
15

>  <Radius>
8

>  <TMWC10>
140.46

>  <TSRW10>
65.95

>  <MW>
437.17

>  <AMW>
7.81

>  <WPath>
2618

>  <WPol>
49

>  <Zagreb1>
160

>  <Zagreb2>
188

>  <mZagreb2>
6.53

>  <yes>


>  <nAR-cont>
1

>  <nHA-cont>
0.74523694

>  <MWHBN>
0.286963113

>  <MWHBN-cont>
0.877858874

>  <TPSA-cont>
0.614320692

>  <pka_cont>
0.97

>  <yes.1>


>  <BBB_SCORE>
4.775666634

>  <MMFF94 Energy>
175.22

$$$$
Compound 759
Actelion Java MolfileCreator 2.0

  0  0  0  0  0  0              0 V3000
M  V30 BEGIN CTAB
M  V30 COUNTS 38 39 0 0 0
M  V30 BEGIN ATOM
M  V30 1 Cl -4.3868 -0.0796 -4.8662 0
M  V30 2 C -3.2261 0.1118 -3.6109 0
M  V30 3 C -3.3027 1.2078 -2.7578 0
M  V30 4 C -2.2162 -0.8331 -3.4517 0
M  V30 5 C -2.3594 1.3587 -1.7389 0
M  V30 6 C -1.2722 -0.6826 -2.4309 0
M  V30 7 C -1.3268 0.4182 -1.5611 0
M  V30 8 C -0.333 0.6323 -0.4153 0 CFG=1
M  V30 9 C -0.9641 0.3672 0.9481 0
M  V30 10 C 1.0067 -0.1281 -0.5629 0
M  V30 11 N -0.8962 1.3781 1.8529 0
M  V30 12 C -1.5502 -0.8614 1.2543 0
M  V30 13 C 2.0686 0.3588 0.4387 0
M  V30 14 C -1.4336 1.1622 3.0737 0
M  V30 15 C -2.0934 -1.0541 2.5216 0
M  V30 16 N 3.3945 -0.2377 0.1833 0
M  V30 17 C -2.0364 -0.0242 3.4513 0
M  V30 18 C 3.431 -1.66 0.5315 0
M  V30 19 C 4.4159 0.4793 0.9534 0
M  V30 20 H -4.0908 1.9463 -2.8758 0
M  V30 21 H -2.1564 -1.6898 -4.1176 0
M  V30 22 H -2.4342 2.2181 -1.073 0
M  V30 23 H -0.4995 -1.4407 -2.3329 0
M  V30 24 H -0.078 1.7024 -0.4557 0
M  V30 25 H 0.8412 -1.2047 -0.4393 0
M  V30 26 H 1.3954 0.0229 -1.579 0
M  V30 27 H -1.5919 -1.6596 0.5205 0
M  V30 28 H 2.1454 1.4487 0.3313 0
M  V30 29 H 1.7544 0.1598 1.4707 0
M  V30 30 H -1.3636 1.998 3.7639 0
M  V30 31 H -2.5598 -2.0008 2.7789 0
M  V30 32 H -2.4525 -0.1423 4.4452 0
M  V30 33 H 2.7591 -2.243 -0.1055 0
M  V30 34 H 3.1595 -1.8373 1.5785 0
M  V30 35 H 4.4337 -2.0701 0.3645 0
M  V30 36 H 4.2366 0.421 2.0332 0
M  V30 37 H 4.4465 1.5358 0.6641 0
M  V30 38 H 5.4119 0.0724 0.7456 0
M  V30 END ATOM
M  V30 BEGIN BOND
M  V30 1 1 1 2
M  V30 2 2 2 3
M  V30 3 1 2 4
M  V30 4 1 3 5
M  V30 5 2 4 6
M  V30 6 2 5 7
M  V30 7 1 7 8
M  V30 8 1 8 9
M  V30 9 1 8 10
M  V30 10 2 9 11
M  V30 11 1 9 12
M  V30 12 1 10 13
M  V30 13 1 11 14
M  V30 14 2 12 15
M  V30 15 1 13 16
M  V30 16 2 14 17
M  V30 17 1 16 18
M  V30 18 1 16 19
M  V30 19 1 6 7
M  V30 20 1 15 17
M  V30 21 1 3 20
M  V30 22 1 4 21
M  V30 23 1 5 22
M  V30 24 1 6 23
M  V30 25 1 8 24
M  V30 26 1 10 25
M  V30 27 1 10 26
M  V30 28 1 12 27
M  V30 29 1 13 28
M  V30 30 1 13 29
M  V30 31 1 14 30
M  V30 32 1 15 31
M  V30 33 1 17 32
M  V30 34 1 18 33
M  V30 35 1 18 34
M  V30 36 1 18 35
M  V30 37 1 19 36
M  V30 38 1 19 37
M  V30 39 1 19 38
M  V30 END BOND
M  V30 BEGIN COLLECTION
M  V30 MDLV30/STERAC1 ATOMS=(1 8)
M  V30 END COLLECTION
M  V30 END CTAB
M  END
>  <Column 1>
910

>  <level_0>
1042

>  <index>
1042

>  <Unnamed: 0>
1042

>  <NO.>
1054

>  <Name>
chlorpheniramine

>  <IUPAC_name>
3-(4-chlorophenyl)-n-n-dimethyl-3-pyridin-2-ylpropan-1-amine

>  <SMILES>
CN(C)CCC(c1ccc(Cl)cc1)c1ccccn1

>  <CID>
2725

>  <logBB>
1.53

>  <BBB+/BBB->
BBB+

>  <Inchi>
InChI=1S/C16H19ClN2/c1-19(2)12-10-15(16-5-3-4-11-18-16)13-6-8-14(17)9-7-13/h3-9-11-15H-10-12H2-1-2H3

>  <threshold>


>  <reference>
R47|

>  <group>
A

>  <Class>
1

>  <ABC>
14.39

>  <ABCGG>
12.22

>  <nAcid>
0

>  <nBase>
1

>  <nAromAtom>
12

>  <nAromBond>
12

>  <nAtom>
38

>  <nHeavyAtom>
19

>  <nSpiro>
0

>  <nBridgehead>
0

>  <nHetero>
3

>  <nN>
2

>  <nO>
0

>  <nF>
0

>  <BalabanJ>
1.92

>  <BertzCT>
493.92

>  <nBonds>
39

>  <nBondsO>
20

>  <nBondsS>
27

>  <nBondsD>
0

>  <nBondsT>
0

>  <nBondsA>
12

>  <nBondsM>
12

>  <nBondsKS>
33

>  <nBondsKD>
6

>  <RNCG>
0.28

>  <RPCG>
0.08

>  <FCSP3>
0.31

>  <SZ>
24.33

>  <Sm>
22.88

>  <Sv>
23.75

>  <Sse>
37.53

>  <Sp>
26.21

>  <Si>
42.68

>  <MZ>
0.64

>  <Mm>
0.6

>  <Mv>
0.63

>  <Mse>
0.99

>  <Mp>
0.69

>  <Mi>
1.12

>  <NsCH3>
2

>  <NdCH2>
0

>  <NssCH2>
2

>  <NtCH>
0

>  <NdsCH>
0

>  <NaaCH>
8

>  <NsssCH>
1

>  <NddC>
0

>  <NtsC>
0

>  <NdssC>
0

>  <NaasC>
3

>  <NaaaC>
0

>  <NssssC>
0

>  <NsNH3>
0

>  <NsNH2>
0

>  <NssNH2>
0

>  <NdNH>
0

>  <NssNH>
0

>  <NaaNH>
0

>  <NtN>
0

>  <NsssNH>
0

>  <NdsN>
0

>  <NaaN>
1

>  <NsssN>
1

>  <NddsN>
0

>  <NaasN>
0

>  <NssssN>
0

>  <NsOH>
0

>  <NdO>
0

>  <NssO>
0

>  <NaaO>
0

>  <NsF>
0

>  <NsSiH3>
0

>  <NssSiH2>
0

>  <NsssSiH>
0

>  <NssssSi>
0

>  <NsPH2>
0

>  <NssPH>
0

>  <NsssP>
0

>  <NdsssP>
0

>  <NsssssP>
0

>  <NsSH>
0

>  <NdS>
0

>  <NssS>
0

>  <NaaS>
0

>  <NdssS>
0

>  <NddssS>
0

>  <NsCl>
1

>  <NsBr>
0

>  <NsI>
0

>  <fragCpx>
58.03

>  <fMF>
0.34

>  <nHBAcc>
2

>  <nHBDon>
0

>  <Kier1>
15.39

>  <Kier2>
7.7

>  <Lipinski>
1

>  <GhoseFilter>
1

>  <FilterItLogS>
-4.91

>  <VMcGowan>
220.98

>  <LabuteASA>
119.6

>  <PEOE_VSA1>
4.9

>  <PEOE_VSA2>
4.98

>  <PEOE_VSA3>
0

>  <PEOE_VSA4>
0

>  <PEOE_VSA5>
0

>  <PEOE_VSA6>
29.8

>  <PEOE_VSA7>
56.89

>  <PEOE_VSA8>
22.83

>  <PEOE_VSA9>
0

>  <PEOE_VSA10>
0

>  <PEOE_VSA11>
0

>  <PEOE_VSA12>
0

>  <PEOE_VSA13>
0

>  <SMR_VSA1>
0

>  <SMR_VSA2>
0

>  <SMR_VSA3>
9.88

>  <SMR_VSA4>
0

>  <SMR_VSA5>
12.34

>  <SMR_VSA6>
20.64

>  <SMR_VSA7>
64.94

>  <SMR_VSA8>
0

>  <SMR_VSA9>
0

>  <SlogP_VSA1>
0

>  <SlogP_VSA2>
30.52

>  <SlogP_VSA3>
0

>  <SlogP_VSA4>
0

>  <SlogP_VSA5>
23.6

>  <SlogP_VSA6>
48.66

>  <SlogP_VSA7>
5.02

>  <SlogP_VSA8>
0

>  <SlogP_VSA9>
0

>  <SlogP_VSA10>
0

>  <SlogP_VSA11>
0

>  <EState_VSA1>
0

>  <EState_VSA2>
0

>  <EState_VSA3>
5.92

>  <EState_VSA4>
23.68

>  <EState_VSA5>
5.56

>  <EState_VSA6>
0

>  <EState_VSA7>
30.46

>  <EState_VSA8>
42.18

>  <EState_VSA9>
11.6

>  <EState_VSA10>
0

>  <VSA_EState1>
0

>  <VSA_EState2>
6.7

>  <VSA_EState3>
0.77

>  <VSA_EState4>
2.39

>  <VSA_EState5>
0.32

>  <VSA_EState6>
14.17

>  <VSA_EState7>
2.9

>  <VSA_EState8>
1.03

>  <VSA_EState9>
4.19

>  <apol>
43.77

>  <bpol>
22.42

>  <nRing>
2

>  <nHRing>
1

>  <naRing>
2

>  <naHRing>
1

>  <nARing 2>
0

>  <nAHRing 2>
0

>  <nFRing>
0

>  <nFHRing>
0

>  <nFaRing>
0

>  <nFaHRing>
0

>  <nFARing 2>
0

>  <nFAHRing 2>
0

>  <nRot>
5

>  <SLogP>
3.82

>  <SMR>
80.7

>  <TopoPSA(NO)>
16.13

>  <TopoPSA>
16.13

>  <JGI1>
0.18

>  <JGI2>
0.08

>  <JGI3>
0.04

>  <JGI4>
0.02

>  <JGI5>
0.02

>  <Diameter>
9

>  <Radius>
5

>  <TMWC10>
109.75

>  <TSRW10>
51.68

>  <MW>
274.12

>  <AMW>
7.21

>  <WPath>
718

>  <WPol>
25

>  <Zagreb1>
92

>  <Zagreb2>
103

>  <mZagreb2>
4.31

>  <yes>


>  <nAR-cont>
0.336376

>  <nHA-cont>
0.998649058

>  <MWHBN>
0.120797969

>  <MWHBN-cont>
0.8327983

>  <TPSA-cont>
0.887402584

>  <pka_cont>
0.97

>  <yes.1>


>  <BBB_SCORE>
4.844027676

>  <MMFF94 Energy>
58.077

$$$$
Compound 760
Actelion Java MolfileCreator 2.0

  0  0  0  0  0  0              0 V3000
M  V30 BEGIN CTAB
M  V30 COUNTS 28 29 0 0 0
M  V30 BEGIN ATOM
M  V30 1 Cl -1.2258 2.9438 -2.6164 0
M  V30 2 C -0.3287 1.5349 -2.2044 0
M  V30 3 N -0.4815 1.1913 -0.9046 0
M  V30 4 C 0.4541 0.8463 -3.1056 0
M  V30 5 C 0.152 0.0994 -0.4279 0
M  V30 6 C 1.1266 -0.2714 -2.612 0
M  V30 7 C 0.5793 1.2822 -4.5252 0
M  V30 8 N -0.0066 -0.2339 0.9119 0
M  V30 9 C 0.9772 -0.6394 -1.2728 0
M  V30 10 F 1.3957 0.4684 -5.2575 0
M  V30 11 F -0.6071 1.2895 -5.1912 0
M  V30 12 F 1.1054 2.5298 -4.6594 0
M  V30 13 C -0.1535 -1.6472 1.2944 0
M  V30 14 C -0.8036 0.7098 1.7197 0
M  V30 15 C 0.001 -1.8335 2.8211 0
M  V30 16 C -0.6296 0.4407 3.2301 0
M  V30 17 N -0.8778 -0.9604 3.6161 0
M  V30 18 H 1.7773 -0.8596 -3.2569 0
M  V30 19 H 1.5385 -1.4906 -0.9042 0
M  V30 20 H 0.5976 -2.2834 0.8166 0
M  V30 21 H -1.1414 -2.0063 0.9785 0
M  V30 22 H -1.8646 0.6195 1.4524 0
M  V30 23 H -0.4907 1.7455 1.5364 0
M  V30 24 H 1.0449 -1.6486 3.1051 0
M  V30 25 H -0.2186 -2.8762 3.0752 0
M  V30 26 H 0.387 0.7212 3.5338 0
M  V30 27 H -1.3179 1.085 3.7881 0
M  V30 28 H -0.6588 -1.0746 4.6048 0
M  V30 END ATOM
M  V30 BEGIN BOND
M  V30 1 1 1 2
M  V30 2 2 2 3
M  V30 3 1 2 4
M  V30 4 1 3 5
M  V30 5 2 4 6
M  V30 6 1 4 7
M  V30 7 1 5 8
M  V30 8 2 5 9
M  V30 9 1 7 10
M  V30 10 1 7 11
M  V30 11 1 7 12
M  V30 12 1 8 13
M  V30 13 1 8 14
M  V30 14 1 13 15
M  V30 15 1 14 16
M  V30 16 1 15 17
M  V30 17 1 6 9
M  V30 18 1 16 17
M  V30 19 1 6 18
M  V30 20 1 9 19
M  V30 21 1 13 20
M  V30 22 1 13 21
M  V30 23 1 14 22
M  V30 24 1 14 23
M  V30 25 1 15 24
M  V30 26 1 15 25
M  V30 27 1 16 26
M  V30 28 1 16 27
M  V30 29 1 17 28
M  V30 END BOND
M  V30 END CTAB
M  END
>  <Column 1>
912

>  <level_0>
1045

>  <index>
1045

>  <Unnamed: 0>
1045

>  <NO.>
1057

>  <Name>
chebi: 568657

>  <IUPAC_name>
1-[6-chloro-5-(trifluoromethyl)pyridin-2-yl]piperazine

>  <SMILES>
FC(F)(F)c1ccc(N2CCNCC2)nc1Cl

>  <CID>
9796408

>  <logBB>
1.64

>  <BBB+/BBB->
BBB+

>  <Inchi>
InChI=1S/C10H11ClF3N3/c11-9-7(10(12-13)14)1-2-8(16-9)17-5-3-15-4-6-17/h1-2-15H-3-6H2

>  <threshold>


>  <reference>
R2|R2|R8|R18|R21|R25|R26|R27|R27|R27|R36|R43|R47|R49|R4|R40|

>  <group>
A

>  <Class>
1

>  <ABC>
13.17

>  <ABCGG>
11.22

>  <nAcid>
0

>  <nBase>
1

>  <nAromAtom>
6

>  <nAromBond>
6

>  <nAtom>
28

>  <nHeavyAtom>
17

>  <nSpiro>
0

>  <nBridgehead>
0

>  <nHetero>
7

>  <nN>
3

>  <nO>
0

>  <nF>
3

>  <BalabanJ>
1.9

>  <BertzCT>
402.27

>  <nBonds>
29

>  <nBondsO>
18

>  <nBondsS>
23

>  <nBondsD>
0

>  <nBondsT>
0

>  <nBondsA>
6

>  <nBondsM>
6

>  <nBondsKS>
26

>  <nBondsKD>
3

>  <RNCG>
0.23

>  <RPCG>
0.28

>  <FCSP3>
0.5

>  <SZ>
22.67

>  <Sm>
22.12

>  <Sv>
18.28

>  <Sse>
29.51

>  <Sp>
18.67

>  <Si>
32.95

>  <MZ>
0.81

>  <Mm>
0.79

>  <Mv>
0.65

>  <Mse>
1.05

>  <Mp>
0.67

>  <Mi>
1.18

>  <NsCH3>
0

>  <NdCH2>
0

>  <NssCH2>
4

>  <NtCH>
0

>  <NdsCH>
0

>  <NaaCH>
2

>  <NsssCH>
0

>  <NddC>
0

>  <NtsC>
0

>  <NdssC>
0

>  <NaasC>
3

>  <NaaaC>
0

>  <NssssC>
1

>  <NsNH3>
0

>  <NsNH2>
0

>  <NssNH2>
0

>  <NdNH>
0

>  <NssNH>
1

>  <NaaNH>
0

>  <NtN>
0

>  <NsssNH>
0

>  <NdsN>
0

>  <NaaN>
1

>  <NsssN>
1

>  <NddsN>
0

>  <NaasN>
0

>  <NssssN>
0

>  <NsOH>
0

>  <NdO>
0

>  <NssO>
0

>  <NaaO>
0

>  <NsF>
3

>  <NsSiH3>
0

>  <NssSiH2>
0

>  <NsssSiH>
0

>  <NssssSi>
0

>  <NsPH2>
0

>  <NssPH>
0

>  <NsssP>
0

>  <NdsssP>
0

>  <NsssssP>
0

>  <NsSH>
0

>  <NdS>
0

>  <NssS>
0

>  <NaaS>
0

>  <NdssS>
0

>  <NddssS>
0

>  <NsCl>
1

>  <NsBr>
0

>  <NsI>
0

>  <fragCpx>
52.07

>  <fMF>
0.43

>  <nHBAcc>
3

>  <nHBDon>
1

>  <Kier1>
13.43

>  <Kier2>
5.33

>  <Lipinski>
1

>  <GhoseFilter>
1

>  <FilterItLogS>
-3.72

>  <VMcGowan>
164.6

>  <LabuteASA>
101.58

>  <PEOE_VSA1>
10.22

>  <PEOE_VSA2>
0

>  <PEOE_VSA3>
4.98

>  <PEOE_VSA4>
13.17

>  <PEOE_VSA5>
0

>  <PEOE_VSA6>
11.6

>  <PEOE_VSA7>
12.13

>  <PEOE_VSA8>
26.18

>  <PEOE_VSA9>
5.56

>  <PEOE_VSA10>
10.97

>  <PEOE_VSA11>
0

>  <PEOE_VSA12>
0

>  <PEOE_VSA13>
0

>  <SMR_VSA1>
13.17

>  <SMR_VSA2>
0

>  <SMR_VSA3>
10.3

>  <SMR_VSA4>
0

>  <SMR_VSA5>
6.18

>  <SMR_VSA6>
31.08

>  <SMR_VSA7>
22.85

>  <SMR_VSA8>
0

>  <SMR_VSA9>
0

>  <SlogP_VSA1>
10.22

>  <SlogP_VSA2>
31.16

>  <SlogP_VSA3>
6.18

>  <SlogP_VSA4>
0

>  <SlogP_VSA5>
5.56

>  <SlogP_VSA6>
12.13

>  <SlogP_VSA7>
5.15

>  <SlogP_VSA8>
0

>  <SlogP_VSA9>
0

>  <SlogP_VSA10>
18.99

>  <SlogP_VSA11>
0

>  <EState_VSA1>
16.89

>  <EState_VSA2>
0

>  <EState_VSA3>
18.91

>  <EState_VSA4>
19.16

>  <EState_VSA5>
6.07

>  <EState_VSA6>
0

>  <EState_VSA7>
4.9

>  <EState_VSA8>
10.3

>  <EState_VSA9>
11.6

>  <EState_VSA10>
13.17

>  <VSA_EState1>
37.42

>  <VSA_EState2>
5.71

>  <VSA_EState3>
2.66

>  <VSA_EState4>
-0.89

>  <VSA_EState5>
0.49

>  <VSA_EState6>
2.34

>  <VSA_EState7>
-4.45

>  <VSA_EState8>
3.02

>  <VSA_EState9>
0

>  <apol>
31.19

>  <bpol>
18.3

>  <nRing>
2

>  <nHRing>
2

>  <naRing>
1

>  <naHRing>
1

>  <nARing 2>
1

>  <nAHRing 2>
1

>  <nFRing>
0

>  <nFHRing>
0

>  <nFaRing>
0

>  <nFaHRing>
0

>  <nFARing 2>
0

>  <nFAHRing 2>
0

>  <nRot>
1

>  <SLogP>
2.16

>  <SMR>
59.33

>  <TopoPSA(NO)>
28.16

>  <TopoPSA>
28.16

>  <JGI1>
0.25

>  <JGI2>
0.09

>  <JGI3>
0.06

>  <JGI4>
0.03

>  <JGI5>
0.04

>  <Diameter>
9

>  <Radius>
5

>  <TMWC10>
106.38

>  <TSRW10>
49.91

>  <MW>
265.06

>  <AMW>
9.47

>  <WPath>
522

>  <WPol>
25

>  <Zagreb1>
88

>  <Zagreb2>
101

>  <mZagreb2>
3.64

>  <yes>


>  <nAR-cont>
0.816016

>  <nHA-cont>
0.976740822

>  <MWHBN>
0.245690234

>  <MWHBN-cont>
0.966725723

>  <TPSA-cont>
0.803425714

>  <pka_cont>
0.97

>  <yes.1>


>  <BBB_SCORE>
5.334696833

>  <MMFF94 Energy>
40.425

$$$$
Compound 761
Actelion Java MolfileCreator 2.0

  0  0  0  0  0  0              0 V3000
M  V30 BEGIN CTAB
M  V30 COUNTS 43 44 0 0 0
M  V30 BEGIN ATOM
M  V30 1 S -1.1952 -1.9926 -1.5141 0
M  V30 2 C -1.5024 -1.5457 0.1867 0
M  V30 3 C 0.3122 -1.0141 -1.8612 0
M  V30 4 C -0.4948 -1.5244 1.1531 0
M  V30 5 C -2.8112 -1.2412 0.5696 0
M  V30 6 C 0.5935 -1.0221 -3.3633 0
M  V30 7 C -0.7871 -1.1798 2.4773 0
M  V30 8 C -3.1051 -0.8965 1.8928 0
M  V30 9 C 1.9752 -0.4855 -3.7511 0
M  V30 10 C -2.0957 -0.858 2.8639 0
M  V30 11 C 2.2282 1.0018 -3.5117 0 CFG=2
M  V30 12 C -2.4372 -0.4815 4.2945 0
M  V30 13 N 2.2384 1.3949 -2.0752 0
M  V30 14 C 1.1188 2.0653 -3.7194 0
M  V30 15 C -2.1576 -1.6349 5.261 0
M  V30 16 C -1.703 0.7878 4.7332 0
M  V30 17 C 1.7275 2.7341 -2.4705 0
M  V30 18 C 3.6038 1.4989 -1.5708 0
M  V30 19 H 1.1551 -1.4495 -1.3166 0
M  V30 20 H 0.1396 0.0044 -1.5058 0
M  V30 21 H 0.5277 -1.7854 0.8975 0
M  V30 22 H -3.6165 -1.2654 -0.1608 0
M  V30 23 H 0.5458 -2.0559 -3.7319 0
M  V30 24 H -0.1891 -0.4708 -3.8972 0
M  V30 25 H 0.0211 -1.1708 3.2049 0
M  V30 26 H -4.1337 -0.66 2.1559 0
M  V30 27 H 2.7529 -1.0785 -3.2536 0
M  V30 28 H 2.1004 -0.674 -4.8256 0
M  V30 29 H 3.1453 1.2866 -4.0531 0
M  V30 30 H -3.5126 -0.2666 4.3517 0
M  V30 31 H 0.0882 1.7284 -3.5695 0
M  V30 32 H 1.175 2.6419 -4.6461 0
M  V30 33 H -1.0908 -1.8788 5.3103 0
M  V30 34 H -2.4864 -1.3767 6.2736 0
M  V30 35 H -2.6933 -2.5404 4.9554 0
M  V30 36 H -0.6175 0.6443 4.7628 0
M  V30 37 H -1.9115 1.6172 4.0482 0
M  V30 38 H -2.0251 1.0918 5.7351 0
M  V30 39 H 1.0028 3.1683 -1.7756 0
M  V30 40 H 2.4882 3.4893 -2.7058 0
M  V30 41 H 3.599 1.9685 -0.5813 0
M  V30 42 H 4.0345 0.499 -1.4529 0
M  V30 43 H 4.2714 2.0806 -2.2173 0
M  V30 END ATOM
M  V30 BEGIN BOND
M  V30 1 1 1 2
M  V30 2 1 1 3
M  V30 3 2 2 4
M  V30 4 1 2 5
M  V30 5 1 3 6
M  V30 6 1 4 7
M  V30 7 2 5 8
M  V30 8 1 6 9
M  V30 9 2 7 10
M  V30 10 1 9 11
M  V30 11 1 10 12
M  V30 12 1 11 13
M  V30 13 1 11 14
M  V30 14 1 12 15
M  V30 15 1 12 16
M  V30 16 1 13 17
M  V30 17 1 13 18
M  V30 18 1 8 10
M  V30 19 1 14 17
M  V30 20 1 3 19
M  V30 21 1 3 20
M  V30 22 1 4 21
M  V30 23 1 5 22
M  V30 24 1 6 23
M  V30 25 1 6 24
M  V30 26 1 7 25
M  V30 27 1 8 26
M  V30 28 1 9 27
M  V30 29 1 9 28
M  V30 30 1 11 29
M  V30 31 1 12 30
M  V30 32 1 14 31
M  V30 33 1 14 32
M  V30 34 1 15 33
M  V30 35 1 15 34
M  V30 36 1 15 35
M  V30 37 1 16 36
M  V30 38 1 16 37
M  V30 39 1 16 38
M  V30 40 1 17 39
M  V30 41 1 17 40
M  V30 42 1 18 41
M  V30 43 1 18 42
M  V30 44 1 18 43
M  V30 END BOND
M  V30 BEGIN COLLECTION
M  V30 MDLV30/STERAC1 ATOMS=(1 11)
M  V30 END COLLECTION
M  V30 END CTAB
M  END
>  <Column 1>
913

>  <level_0>
1046

>  <index>
1046

>  <Unnamed: 0>
1046

>  <NO.>
1058

>  <Name>


>  <IUPAC_name>


>  <SMILES>
CC(C)c1ccc(SCCCC2CCN2C)cc1

>  <CID>


>  <logBB>
1.7

>  <BBB+/BBB->
BBB+

>  <Inchi>
InChI=1S/C16H25NS/c1-13(2)14-6-8-16(9-7-14)18-12-4-5-15-10-11-17(15)3/h6-9-13-15H-4-5-10-12H2-1-3H3

>  <threshold>


>  <reference>
R47|

>  <group>
A

>  <Class>
1

>  <ABC>
13.68

>  <ABCGG>
11.26

>  <nAcid>
0

>  <nBase>
1

>  <nAromAtom>
6

>  <nAromBond>
6

>  <nAtom>
43

>  <nHeavyAtom>
18

>  <nSpiro>
0

>  <nBridgehead>
0

>  <nHetero>
2

>  <nN>
1

>  <nO>
0

>  <nF>
0

>  <BalabanJ>
1.5

>  <BertzCT>
357.86

>  <nBonds>
44

>  <nBondsO>
19

>  <nBondsS>
38

>  <nBondsD>
0

>  <nBondsT>
0

>  <nBondsA>
6

>  <nBondsM>
6

>  <nBondsKS>
41

>  <nBondsKD>
3

>  <RNCG>
0.32

>  <RPCG>
0.07

>  <FCSP3>
0.63

>  <SZ>
24

>  <Sm>
21.93

>  <Sv>
24.72

>  <Sse>
41.84

>  <Sp>
28.38

>  <Si>
48.4

>  <MZ>
0.56

>  <Mm>
0.51

>  <Mv>
0.57

>  <Mse>
0.97

>  <Mp>
0.66

>  <Mi>
1.13

>  <NsCH3>
3

>  <NdCH2>
0

>  <NssCH2>
5

>  <NtCH>
0

>  <NdsCH>
0

>  <NaaCH>
4

>  <NsssCH>
2

>  <NddC>
0

>  <NtsC>
0

>  <NdssC>
0

>  <NaasC>
2

>  <NaaaC>
0

>  <NssssC>
0

>  <NsNH3>
0

>  <NsNH2>
0

>  <NssNH2>
0

>  <NdNH>
0

>  <NssNH>
0

>  <NaaNH>
0

>  <NtN>
0

>  <NsssNH>
0

>  <NdsN>
0

>  <NaaN>
0

>  <NsssN>
1

>  <NddsN>
0

>  <NaasN>
0

>  <NssssN>
0

>  <NsOH>
0

>  <NdO>
0

>  <NssO>
0

>  <NaaO>
0

>  <NsF>
0

>  <NsSiH3>
0

>  <NssSiH2>
0

>  <NsssSiH>
0

>  <NssssSi>
0

>  <NsPH2>
0

>  <NssPH>
0

>  <NsssP>
0

>  <NdsssP>
0

>  <NsssssP>
0

>  <NsSH>
0

>  <NdS>
0

>  <NssS>
1

>  <NaaS>
0

>  <NdssS>
0

>  <NddssS>
0

>  <NsCl>
0

>  <NsBr>
0

>  <NsI>
0

>  <fragCpx>
55.02

>  <fMF>
0.33

>  <nHBAcc>
2

>  <nHBDon>
0

>  <Kier1>
14.41

>  <Kier2>
6.96

>  <Lipinski>
1

>  <GhoseFilter>
1

>  <FilterItLogS>
-4.27

>  <VMcGowan>
228.01

>  <LabuteASA>
115.96

>  <PEOE_VSA1>
4.9

>  <PEOE_VSA2>
0

>  <PEOE_VSA3>
0

>  <PEOE_VSA4>
0

>  <PEOE_VSA5>
11.76

>  <PEOE_VSA6>
25.98

>  <PEOE_VSA7>
62.22

>  <PEOE_VSA8>
10.94

>  <PEOE_VSA9>
0

>  <PEOE_VSA10>
0

>  <PEOE_VSA11>
0

>  <PEOE_VSA12>
0

>  <PEOE_VSA13>
0

>  <SMR_VSA1>
0

>  <SMR_VSA2>
0

>  <SMR_VSA3>
4.9

>  <SMR_VSA4>
0

>  <SMR_VSA5>
49.97

>  <SMR_VSA6>
19.35

>  <SMR_VSA7>
29.83

>  <SMR_VSA8>
0

>  <SMR_VSA9>
0

>  <SlogP_VSA1>
0

>  <SlogP_VSA2>
30.29

>  <SlogP_VSA3>
0

>  <SlogP_VSA4>
0

>  <SlogP_VSA5>
44.59

>  <SlogP_VSA6>
29.16

>  <SlogP_VSA7>
0

>  <SlogP_VSA8>
0

>  <SlogP_VSA9>
0

>  <SlogP_VSA10>
0

>  <SlogP_VSA11>
0

>  <EState_VSA1>
0

>  <EState_VSA2>
0

>  <EState_VSA3>
5.92

>  <EState_VSA4>
6.04

>  <EState_VSA5>
42.02

>  <EState_VSA6>
0

>  <EState_VSA7>
11.76

>  <EState_VSA8>
50.06

>  <EState_VSA9>
0

>  <EState_VSA10>
0

>  <VSA_EState1>
0

>  <VSA_EState2>
3.89

>  <VSA_EState3>
0

>  <VSA_EState4>
1.44

>  <VSA_EState5>
1.89

>  <VSA_EState6>
9.96

>  <VSA_EState7>
4.11

>  <VSA_EState8>
5.79

>  <VSA_EState9>
2.24

>  <apol>
47.39

>  <bpol>
29.25

>  <nRing>
2

>  <nHRing>
1

>  <naRing>
1

>  <naHRing>
0

>  <nARing 2>
1

>  <nAHRing 2>
1

>  <nFRing>
0

>  <nFHRing>
0

>  <nFaRing>
0

>  <nFaHRing>
0

>  <nFARing 2>
0

>  <nFAHRing 2>
0

>  <nRot>
6

>  <SLogP>
4.39

>  <SMR>
81.52

>  <TopoPSA(NO)>
3.24

>  <TopoPSA>
28.54

>  <JGI1>
0.18

>  <JGI2>
0.09

>  <JGI3>
0.05

>  <JGI4>
0.04

>  <JGI5>
0.03

>  <Diameter>
12

>  <Radius>
6

>  <TMWC10>
106.94

>  <TSRW10>
50.89

>  <MW>
263.17

>  <AMW>
6.12

>  <WPath>
764

>  <WPol>
21

>  <Zagreb1>
88

>  <Zagreb2>
99

>  <mZagreb2>
4.06

>  <yes>


>  <nAR-cont>
0.816016

>  <nHA-cont>
0.991161285

>  <MWHBN>
0.123285445

>  <MWHBN-cont>
0.843219865

>  <TPSA-cont>
0.800773078

>  <pka_cont>
0.97

>  <yes.1>


>  <BBB_SCORE>
5.158553237

>  <MMFF94 Energy>
43.76

$$$$
Compound 762
Actelion Java MolfileCreator 2.0

  0  0  0  0  0  0              0 V3000
M  V30 BEGIN CTAB
M  V30 COUNTS 5 4 0 0 0
M  V30 BEGIN ATOM
M  V30 1 Br 0.2164 -1.8404 0.6493 0
M  V30 2 C 0.043 -0.0255 -0.0258 0
M  V30 3 Br 0.138 1.2979 1.395 0
M  V30 4 Br -1.5406 0.1976 -1.1311 0
M  V30 5 H 0.9044 0.1501 -0.6746 0
M  V30 END ATOM
M  V30 BEGIN BOND
M  V30 1 1 1 2
M  V30 2 1 2 3
M  V30 3 1 2 4
M  V30 4 1 2 5
M  V30 END BOND
M  V30 END CTAB
M  END
>  <Column 1>
914

>  <level_0>
1047

>  <index>
1047

>  <Unnamed: 0>
1047

>  <NO.>
1059

>  <Name>
bromoform

>  <IUPAC_name>
bromoform

>  <SMILES>
BrC(Br)Br

>  <CID>
5558

>  <logBB>


>  <BBB+/BBB->
BBB+

>  <Inchi>
InChI=1S/CHBr3/c2-1(3)4/h1H

>  <threshold>
-1

>  <reference>
R1|R13|R19|R6|R24|R27|R27|R27|R30|R30|

>  <group>
B

>  <Class>
1

>  <ABC>
2.45

>  <ABCGG>
2.45

>  <nAcid>
0

>  <nBase>
0

>  <nAromAtom>
0

>  <nAromBond>
0

>  <nAtom>
5

>  <nHeavyAtom>
4

>  <nSpiro>
0

>  <nBridgehead>
0

>  <nHetero>
3

>  <nN>
0

>  <nO>
0

>  <nF>
0

>  <BalabanJ>
2.32

>  <BertzCT>
8

>  <nBonds>
4

>  <nBondsO>
3

>  <nBondsS>
4

>  <nBondsD>
0

>  <nBondsT>
0

>  <nBondsA>
0

>  <nBondsM>
0

>  <nBondsKS>
4

>  <nBondsKD>
0

>  <RNCG>
0.33

>  <RPCG>
0.65

>  <FCSP3>
1

>  <SZ>
18.67

>  <Sm>
21.04

>  <Sv>
5.14

>  <Sse>
5.46

>  <Sp>
6.88

>  <Si>
5.36

>  <MZ>
3.73

>  <Mm>
4.21

>  <Mv>
1.03

>  <Mse>
1.09

>  <Mp>
1.38

>  <Mi>
1.07

>  <NsCH3>
0

>  <NdCH2>
0

>  <NssCH2>
0

>  <NtCH>
0

>  <NdsCH>
0

>  <NaaCH>
0

>  <NsssCH>
1

>  <NddC>
0

>  <NtsC>
0

>  <NdssC>
0

>  <NaasC>
0

>  <NaaaC>
0

>  <NssssC>
0

>  <NsNH3>
0

>  <NsNH2>
0

>  <NssNH2>
0

>  <NdNH>
0

>  <NssNH>
0

>  <NaaNH>
0

>  <NtN>
0

>  <NsssNH>
0

>  <NdsN>
0

>  <NaaN>
0

>  <NsssN>
0

>  <NddsN>
0

>  <NaasN>
0

>  <NssssN>
0

>  <NsOH>
0

>  <NdO>
0

>  <NssO>
0

>  <NaaO>
0

>  <NsF>
0

>  <NsSiH3>
0

>  <NssSiH2>
0

>  <NsssSiH>
0

>  <NssssSi>
0

>  <NsPH2>
0

>  <NssPH>
0

>  <NsssP>
0

>  <NdsssP>
0

>  <NsssssP>
0

>  <NsSH>
0

>  <NdS>
0

>  <NssS>
0

>  <NaaS>
0

>  <NdssS>
0

>  <NddssS>
0

>  <NsCl>
0

>  <NsBr>
3

>  <NsI>
0

>  <fragCpx>
3.03

>  <fMF>
0

>  <nHBAcc>
0

>  <nHBDon>
0

>  <Kier1>
4

>  <Kier2>
1.33

>  <Lipinski>
1

>  <GhoseFilter>
0

>  <FilterItLogS>
-2.49

>  <VMcGowan>
77.45

>  <LabuteASA>
50.34

>  <PEOE_VSA1>
0

>  <PEOE_VSA2>
0

>  <PEOE_VSA3>
0

>  <PEOE_VSA4>
0

>  <PEOE_VSA5>
0

>  <PEOE_VSA6>
47.79

>  <PEOE_VSA7>
0

>  <PEOE_VSA8>
0

>  <PEOE_VSA9>
0

>  <PEOE_VSA10>
2.65

>  <PEOE_VSA11>
0

>  <PEOE_VSA12>
0

>  <PEOE_VSA13>
0

>  <SMR_VSA1>
0

>  <SMR_VSA2>
0

>  <SMR_VSA3>
0

>  <SMR_VSA4>
0

>  <SMR_VSA5>
2.65

>  <SMR_VSA6>
0

>  <SMR_VSA7>
0

>  <SMR_VSA8>
0

>  <SMR_VSA9>
0

>  <SlogP_VSA1>
0

>  <SlogP_VSA2>
2.65

>  <SlogP_VSA3>
0

>  <SlogP_VSA4>
0

>  <SlogP_VSA5>
0

>  <SlogP_VSA6>
0

>  <SlogP_VSA7>
0

>  <SlogP_VSA8>
0

>  <SlogP_VSA9>
0

>  <SlogP_VSA10>
0

>  <SlogP_VSA11>
0

>  <EState_VSA1>
0

>  <EState_VSA2>
2.65

>  <EState_VSA3>
0

>  <EState_VSA4>
0

>  <EState_VSA5>
0

>  <EState_VSA6>
0

>  <EState_VSA7>
0

>  <EState_VSA8>
47.79

>  <EState_VSA9>
0

>  <EState_VSA10>
0

>  <VSA_EState1>
0.27

>  <VSA_EState2>
0

>  <VSA_EState3>
0

>  <VSA_EState4>
0

>  <VSA_EState5>
0

>  <VSA_EState6>
0

>  <VSA_EState7>
0

>  <VSA_EState8>
0

>  <VSA_EState9>
0

>  <apol>
11.49

>  <bpol>
5.14

>  <nRing>
0

>  <nHRing>
0

>  <naRing>
0

>  <naHRing>
0

>  <nARing 2>
0

>  <nAHRing 2>
0

>  <nFRing>
0

>  <nFHRing>
0

>  <nFaRing>
0

>  <nFaHRing>
0

>  <nFARing 2>
0

>  <nFAHRing 2>
0

>  <nRot>
0

>  <SLogP>
2.45

>  <SMR>
30.57

>  <TopoPSA(NO)>
0

>  <TopoPSA>
0

>  <JGI1>
0.5

>  <JGI2>
0

>  <JGI3>
0

>  <JGI4>
0

>  <JGI5>
0

>  <Diameter>
2

>  <Radius>
1

>  <TMWC10>
48.77

>  <TSRW10>
24.18

>  <MW>
249.76

>  <AMW>
49.95

>  <WPath>
9

>  <WPol>
0

>  <Zagreb1>
12

>  <Zagreb2>
9

>  <mZagreb2>
1

>  <yes>


>  <nAR-cont>
0.336376

>  <nHA-cont>
0

>  <MWHBN>
0

>  <MWHBN-cont>
0

>  <TPSA-cont>
0

>  <pka_cont>
0.97

>  <yes.1>


>  <BBB_SCORE>
0.821376

>  <MMFF94 Energy>
0.019106

$$$$
Compound 763
Actelion Java MolfileCreator 2.0

  0  0  0  0  0  0              0 V3000
M  V30 BEGIN CTAB
M  V30 COUNTS 17 16 0 0 0
M  V30 BEGIN ATOM
M  V30 1 O -1.0672 0.991 0.991 0
M  V30 2 C -0.5911 0.1388 -0.0497 0 CFG=2
M  V30 3 C -1.7051 -0.7483 -0.4436 0
M  V30 4 C 0.5752 -0.7168 0.4857 0
M  V30 5 C -0.1862 1.0048 -1.2464 0
M  V30 6 C -2.6138 -1.4678 -0.7604 0
M  V30 7 C 1.7882 0.0727 0.9649 0
M  V30 8 H -0.4166 1.6993 1.1194 0
M  V30 9 H 0.2209 -1.3155 1.3361 0
M  V30 10 H 0.9022 -1.4285 -0.2835 0
M  V30 11 H -1.0472 1.5661 -1.6303 0
M  V30 12 H 0.5613 1.7551 -0.9679 0
M  V30 13 H 0.2144 0.3994 -2.0668 0
M  V30 14 H -3.426 -2.1011 -1.0328 0
M  V30 15 H 2.5432 -0.6129 1.3639 0
M  V30 16 H 2.2523 0.6319 0.1476 0
M  V30 17 H 1.5232 0.7733 1.7622 0
M  V30 END ATOM
M  V30 BEGIN BOND
M  V30 1 1 1 2
M  V30 2 1 2 3
M  V30 3 1 2 4
M  V30 4 1 2 5
M  V30 5 3 3 6
M  V30 6 1 4 7
M  V30 7 1 1 8
M  V30 8 1 4 9
M  V30 9 1 4 10
M  V30 10 1 5 11
M  V30 11 1 5 12
M  V30 12 1 5 13
M  V30 13 1 6 14
M  V30 14 1 7 15
M  V30 15 1 7 16
M  V30 16 1 7 17
M  V30 END BOND
M  V30 BEGIN COLLECTION
M  V30 MDLV30/STERAC1 ATOMS=(1 2)
M  V30 END COLLECTION
M  V30 END CTAB
M  END
>  <Column 1>
915

>  <level_0>
1048

>  <index>
1048

>  <Unnamed: 0>
1048

>  <NO.>
1060

>  <Name>
3-methyl-1-pentyn-3-ol

>  <IUPAC_name>
3-methylpent-1-yn-3-ol

>  <SMILES>
C#CC(C)(O)CC

>  <CID>
6494

>  <logBB>


>  <BBB+/BBB->
BBB+

>  <Inchi>
InChI=1S/C6H10O/c1-4-6(3-7)5-2/h1-7H-5H2-2-3H3

>  <threshold>
-1

>  <reference>
R1|R13|R19|R6|R27|R30|

>  <group>
B

>  <Class>
1

>  <ABC>
4.56

>  <ABCGG>
5.07

>  <nAcid>
0

>  <nBase>
0

>  <nAromAtom>
0

>  <nAromBond>
0

>  <nAtom>
17

>  <nHeavyAtom>
7

>  <nSpiro>
0

>  <nBridgehead>
0

>  <nHetero>
1

>  <nN>
0

>  <nO>
1

>  <nF>
0

>  <BalabanJ>
3.36

>  <BertzCT>
86.84

>  <nBonds>
16

>  <nBondsO>
6

>  <nBondsS>
15

>  <nBondsD>
0

>  <nBondsT>
1

>  <nBondsA>
0

>  <nBondsM>
1

>  <nBondsKS>
15

>  <nBondsKD>
0

>  <RNCG>
0.56

>  <RPCG>
0.32

>  <FCSP3>
0.67

>  <SZ>
9

>  <Sm>
8.17

>  <Sv>
9.42

>  <Sse>
16.77

>  <Sp>
10.47

>  <Si>
19.29

>  <MZ>
0.53

>  <Mm>
0.48

>  <Mv>
0.55

>  <Mse>
0.99

>  <Mp>
0.62

>  <Mi>
1.13

>  <NsCH3>
2

>  <NdCH2>
0

>  <NssCH2>
1

>  <NtCH>
1

>  <NdsCH>
0

>  <NaaCH>
0

>  <NsssCH>
0

>  <NddC>
0

>  <NtsC>
1

>  <NdssC>
0

>  <NaasC>
0

>  <NaaaC>
0

>  <NssssC>
1

>  <NsNH3>
0

>  <NsNH2>
0

>  <NssNH2>
0

>  <NdNH>
0

>  <NssNH>
0

>  <NaaNH>
0

>  <NtN>
0

>  <NsssNH>
0

>  <NdsN>
0

>  <NaaN>
0

>  <NsssN>
0

>  <NddsN>
0

>  <NaasN>
0

>  <NssssN>
0

>  <NsOH>
1

>  <NdO>
0

>  <NssO>
0

>  <NaaO>
0

>  <NsF>
0

>  <NsSiH3>
0

>  <NssSiH2>
0

>  <NsssSiH>
0

>  <NssssSi>
0

>  <NsPH2>
0

>  <NssPH>
0

>  <NsssP>
0

>  <NdsssP>
0

>  <NsssssP>
0

>  <NsSH>
0

>  <NdS>
0

>  <NssS>
0

>  <NaaS>
0

>  <NdssS>
0

>  <NddssS>
0

>  <NsCl>
0

>  <NsBr>
0

>  <NsI>
0

>  <fragCpx>
6.01

>  <fMF>
0

>  <nHBAcc>
1

>  <nHBDon>
1

>  <Kier1>
7

>  <Kier2>
2.34

>  <Lipinski>
1

>  <GhoseFilter>
0

>  <FilterItLogS>
-0.53

>  <VMcGowan>
92.67

>  <LabuteASA>
44.36

>  <PEOE_VSA1>
5.11

>  <PEOE_VSA2>
0

>  <PEOE_VSA3>
0

>  <PEOE_VSA4>
0

>  <PEOE_VSA5>
6.42

>  <PEOE_VSA6>
12.84

>  <PEOE_VSA7>
13.34

>  <PEOE_VSA8>
0

>  <PEOE_VSA9>
0

>  <PEOE_VSA10>
5.6

>  <PEOE_VSA11>
0

>  <PEOE_VSA12>
0

>  <PEOE_VSA13>
0

>  <SMR_VSA1>
5.11

>  <SMR_VSA2>
0

>  <SMR_VSA3>
0

>  <SMR_VSA4>
0

>  <SMR_VSA5>
25.87

>  <SMR_VSA6>
0

>  <SMR_VSA7>
0

>  <SMR_VSA8>
0

>  <SMR_VSA9>
12.34

>  <SlogP_VSA1>
0

>  <SlogP_VSA2>
10.71

>  <SlogP_VSA3>
0

>  <SlogP_VSA4>
12.34

>  <SlogP_VSA5>
20.27

>  <SlogP_VSA6>
0

>  <SlogP_VSA7>
0

>  <SlogP_VSA8>
0

>  <SlogP_VSA9>
0

>  <SlogP_VSA10>
0

>  <SlogP_VSA11>
0

>  <EState_VSA1>
5.6

>  <EState_VSA2>
0

>  <EState_VSA3>
6.42

>  <EState_VSA4>
0

>  <EState_VSA5>
0

>  <EState_VSA6>
6.92

>  <EState_VSA7>
6.92

>  <EState_VSA8>
5.92

>  <EState_VSA9>
11.53

>  <EState_VSA10>
0

>  <VSA_EState1>
0

>  <VSA_EState2>
0

>  <VSA_EState3>
8.9

>  <VSA_EState4>
-0.89

>  <VSA_EState5>
2.25

>  <VSA_EState6>
0

>  <VSA_EState7>
5.53

>  <VSA_EState8>
3.47

>  <VSA_EState9>
0

>  <apol>
17.49

>  <bpol>
10.03

>  <nRing>
0

>  <nHRing>
0

>  <naRing>
0

>  <naHRing>
0

>  <nARing 2>
0

>  <nAHRing 2>
0

>  <nFRing>
0

>  <nFHRing>
0

>  <nFaRing>
0

>  <nFaHRing>
0

>  <nFARing 2>
0

>  <nFAHRing 2>
0

>  <nRot>
1

>  <SLogP>
0.78

>  <SMR>
29.75

>  <TopoPSA(NO)>
20.23

>  <TopoPSA>
20.23

>  <JGI1>
0.5

>  <JGI2>
0.14

>  <JGI3>
0.02

>  <JGI4>
0

>  <JGI5>
0

>  <Diameter>
4

>  <Radius>
2

>  <TMWC10>
70.06

>  <TSRW10>
33.68

>  <MW>
98.07

>  <AMW>
5.77

>  <WPath>
44

>  <WPol>
6

>  <Zagreb1>
28

>  <Zagreb2>
28

>  <mZagreb2>
1.75

>  <yes>


>  <nAR-cont>
0.336376

>  <nHA-cont>
0.357561384

>  <MWHBN>
0.201958394

>  <MWHBN-cont>
0.99988905

>  <TPSA-cont>
0.858782038

>  <pka_cont>
0.97

>  <yes.1>


>  <BBB_SCORE>
4.396335035

>  <MMFF94 Energy>
6.2218

$$$$
Compound 764
Actelion Java MolfileCreator 2.0

  0  0  0  0  0  0              0 V3000
M  V30 BEGIN CTAB
M  V30 COUNTS 18 17 0 0 0
M  V30 BEGIN ATOM
M  V30 1 Cl 3.6266 -1.6472 2.1418 0
M  V30 2 C 2.0248 -1.1274 1.819 0
M  V30 3 C 1.5805 -0.847 0.5855 0
M  V30 4 C -0.0233 -0.3062 0.0921 0 CFG=2
M  V30 5 O -1.0027 -0.1724 1.4414 0
M  V30 6 C -0.6884 -1.4397 -0.9823 0
M  V30 7 C 0.0869 1.0744 -0.6122 0
M  V30 8 C -1.228 -2.3588 -1.8536 0
M  V30 9 C -1.1027 2.0178 -0.4063 0
M  V30 10 H 1.4174 -1.0511 2.713 0
M  V30 11 H 2.2729 -0.9563 -0.2444 0
M  V30 12 H -1.9207 0.1108 1.1669 0
M  V30 13 H 0.9875 1.6094 -0.2718 0
M  V30 14 H 0.2123 0.9434 -1.6987 0
M  V30 15 H -1.6522 -3.0812 -2.5384 0
M  V30 16 H -0.9248 2.957 -0.9413 0
M  V30 17 H -2.0316 1.5897 -0.7947 0
M  V30 18 H -1.2467 2.2639 0.6499 0
M  V30 END ATOM
M  V30 BEGIN BOND
M  V30 1 1 1 2
M  V30 2 2 2 3
M  V30 3 1 3 4
M  V30 4 1 4 5
M  V30 5 1 4 6
M  V30 6 1 4 7
M  V30 7 3 6 8
M  V30 8 1 7 9
M  V30 9 1 2 10
M  V30 10 1 3 11
M  V30 11 1 5 12
M  V30 12 1 7 13
M  V30 13 1 7 14
M  V30 14 1 8 15
M  V30 15 1 9 16
M  V30 16 1 9 17
M  V30 17 1 9 18
M  V30 END BOND
M  V30 BEGIN COLLECTION
M  V30 MDLV30/STERAC1 ATOMS=(1 4)
M  V30 END COLLECTION
M  V30 END CTAB
M  END
>  <Column 1>
916

>  <level_0>
1049

>  <index>
1049

>  <Unnamed: 0>
1049

>  <NO.>
1061

>  <Name>
ethchlorvynol

>  <IUPAC_name>
(e)-1-chloro-3-ethylpent-1-en-4-yn-3-ol

>  <SMILES>
C#CC(O)(/C=C/Cl)CC

>  <CID>
5281077

>  <logBB>


>  <BBB+/BBB->
BBB+

>  <Inchi>
InChI=1S/C7H9ClO/c1-3-7(9-4-2)5-6-8/h1-5-6-9H-4H2-2H3/b6-5+

>  <threshold>
-1

>  <reference>
R1|R13|R6|R14|R23|R27|R30|

>  <group>
B

>  <Class>
1

>  <ABC>
5.82

>  <ABCGG>
6.49

>  <nAcid>
0

>  <nBase>
0

>  <nAromAtom>
0

>  <nAromBond>
0

>  <nAtom>
18

>  <nHeavyAtom>
9

>  <nSpiro>
0

>  <nBridgehead>
0

>  <nHetero>
2

>  <nN>
0

>  <nO>
1

>  <nF>
0

>  <BalabanJ>
3.62

>  <BertzCT>
145.49

>  <nBonds>
17

>  <nBondsO>
8

>  <nBondsS>
15

>  <nBondsD>
1

>  <nBondsT>
1

>  <nBondsA>
0

>  <nBondsM>
2

>  <nBondsKS>
15

>  <nBondsKD>
1

>  <RNCG>
0.5

>  <RPCG>
0.28

>  <FCSP3>
0.43

>  <SZ>
12.67

>  <Sm>
12.04

>  <Sv>
11.24

>  <Sse>
18.09

>  <Sp>
12.38

>  <Si>
20.23

>  <MZ>
0.7

>  <Mm>
0.67

>  <Mv>
0.62

>  <Mse>
1.01

>  <Mp>
0.69

>  <Mi>
1.12

>  <NsCH3>
1

>  <NdCH2>
0

>  <NssCH2>
1

>  <NtCH>
1

>  <NdsCH>
2

>  <NaaCH>
0

>  <NsssCH>
0

>  <NddC>
0

>  <NtsC>
1

>  <NdssC>
0

>  <NaasC>
0

>  <NaaaC>
0

>  <NssssC>
1

>  <NsNH3>
0

>  <NsNH2>
0

>  <NssNH2>
0

>  <NdNH>
0

>  <NssNH>
0

>  <NaaNH>
0

>  <NtN>
0

>  <NsssNH>
0

>  <NdsN>
0

>  <NaaN>
0

>  <NsssN>
0

>  <NddsN>
0

>  <NaasN>
0

>  <NssssN>
0

>  <NsOH>
1

>  <NdO>
0

>  <NssO>
0

>  <NaaO>
0

>  <NsF>
0

>  <NsSiH3>
0

>  <NssSiH2>
0

>  <NsssSiH>
0

>  <NssssSi>
0

>  <NsPH2>
0

>  <NssPH>
0

>  <NsssP>
0

>  <NdsssP>
0

>  <NsssssP>
0

>  <NsSH>
0

>  <NdS>
0

>  <NssS>
0

>  <NaaS>
0

>  <NdssS>
0

>  <NddssS>
0

>  <NsCl>
1

>  <NsBr>
0

>  <NsI>
0

>  <fragCpx>
8.02

>  <fMF>
0

>  <nHBAcc>
1

>  <nHBDon>
1

>  <Kier1>
9

>  <Kier2>
3.92

>  <Lipinski>
1

>  <GhoseFilter>
0

>  <FilterItLogS>
-0.91

>  <VMcGowan>
114.7

>  <LabuteASA>
60.34

>  <PEOE_VSA1>
5.11

>  <PEOE_VSA2>
0

>  <PEOE_VSA3>
0

>  <PEOE_VSA4>
0

>  <PEOE_VSA5>
6.42

>  <PEOE_VSA6>
24.45

>  <PEOE_VSA7>
12.5

>  <PEOE_VSA8>
5.54

>  <PEOE_VSA9>
0

>  <PEOE_VSA10>
5.6

>  <PEOE_VSA11>
0

>  <PEOE_VSA12>
0

>  <PEOE_VSA13>
0

>  <SMR_VSA1>
5.11

>  <SMR_VSA2>
0

>  <SMR_VSA3>
0

>  <SMR_VSA4>
0

>  <SMR_VSA5>
18.95

>  <SMR_VSA6>
0

>  <SMR_VSA7>
11.61

>  <SMR_VSA8>
0

>  <SMR_VSA9>
12.34

>  <SlogP_VSA1>
0

>  <SlogP_VSA2>
10.71

>  <SlogP_VSA3>
0

>  <SlogP_VSA4>
12.34

>  <SlogP_VSA5>
13.34

>  <SlogP_VSA6>
11.61

>  <SlogP_VSA7>
0

>  <SlogP_VSA8>
0

>  <SlogP_VSA9>
0

>  <SlogP_VSA10>
0

>  <SlogP_VSA11>
0

>  <EState_VSA1>
5.6

>  <EState_VSA2>
0

>  <EState_VSA3>
6.42

>  <EState_VSA4>
0

>  <EState_VSA5>
11.61

>  <EState_VSA6>
6.92

>  <EState_VSA7>
0

>  <EState_VSA8>
5.92

>  <EState_VSA9>
18.02

>  <EState_VSA10>
5.11

>  <VSA_EState1>
0

>  <VSA_EState2>
0

>  <VSA_EState3>
9.22

>  <VSA_EState4>
0.07

>  <VSA_EState5>
2.21

>  <VSA_EState6>
0

>  <VSA_EState7>
6.86

>  <VSA_EState8>
1.79

>  <VSA_EState9>
0

>  <apol>
20.67

>  <bpol>
9.54

>  <nRing>
0

>  <nHRing>
0

>  <naRing>
0

>  <naHRing>
0

>  <nARing 2>
0

>  <nAHRing 2>
0

>  <nFRing>
0

>  <nFHRing>
0

>  <nFaRing>
0

>  <nFaHRing>
0

>  <nFARing 2>
0

>  <nFAHRing 2>
0

>  <nRot>
2

>  <SLogP>
1.51

>  <SMR>
39.07

>  <TopoPSA(NO)>
20.23

>  <TopoPSA>
20.23

>  <JGI1>
0.38

>  <JGI2>
0.13

>  <JGI3>
0.05

>  <JGI4>
0.03

>  <JGI5>
0

>  <Diameter>
5

>  <Radius>
3

>  <TMWC10>
77.5

>  <TSRW10>
37.03

>  <MW>
144.03

>  <AMW>
8

>  <WPath>
92

>  <WPol>
10

>  <Zagreb1>
36

>  <Zagreb2>
38

>  <mZagreb2>
2.38

>  <yes>


>  <nAR-cont>
0.336376

>  <nHA-cont>
0.56070381

>  <MWHBN>
0.166649308

>  <MWHBN-cont>
0.968447896

>  <TPSA-cont>
0.858782038

>  <pka_cont>
0.97

>  <yes.1>


>  <BBB_SCORE>
4.55231573

>  <MMFF94 Energy>
MMFF94 error code 2

$$$$
Compound 765
Actelion Java MolfileCreator 2.0

  0  0  0  0  0  0              0 V3000
M  V30 BEGIN CTAB
M  V30 COUNTS 22 22 0 0 0
M  V30 BEGIN ATOM
M  V30 1 O -1.5669 -1.2533 2.1158 0
M  V30 2 C -0.5353 -1.8039 1.768 0
M  V30 3 O 0.0134 -1.7965 0.5379 0
M  V30 4 N 0.2299 -2.5374 2.6068 0
M  V30 5 C -0.701 -1.0208 -0.4353 0 CFG=2
M  V30 6 C -0.5207 -1.6588 -1.7581 0
M  V30 7 C -0.1682 0.4029 -0.4255 0
M  V30 8 C -0.3787 -2.1814 -2.8309 0
M  V30 9 C -1.0259 1.4748 -0.1315 0
M  V30 10 C 1.1852 0.6771 -0.6873 0
M  V30 11 C -0.5452 2.7856 -0.1115 0
M  V30 12 C 1.6631 1.9886 -0.6679 0
M  V30 13 C 0.7974 3.0419 -0.3815 0
M  V30 14 H -0.0514 -2.6324 3.5707 0
M  V30 15 H 1.0762 -2.969 2.2704 0
M  V30 16 H -1.7787 -1.0267 -0.2235 0
M  V30 17 H -0.2518 -2.6422 -3.7831 0
M  V30 18 H -2.0752 1.2939 0.0945 0
M  V30 19 H 1.8739 -0.1359 -0.9078 0
M  V30 20 H -1.2193 3.6065 0.1195 0
M  V30 21 H 2.7113 2.1873 -0.8747 0
M  V30 22 H 1.1697 4.0627 -0.3645 0
M  V30 END ATOM
M  V30 BEGIN BOND
M  V30 1 2 1 2
M  V30 2 1 2 3
M  V30 3 1 2 4
M  V30 4 1 3 5
M  V30 5 1 5 6
M  V30 6 1 5 7
M  V30 7 3 6 8
M  V30 8 2 7 9
M  V30 9 1 7 10
M  V30 10 1 9 11
M  V30 11 2 10 12
M  V30 12 2 11 13
M  V30 13 1 12 13
M  V30 14 1 4 14
M  V30 15 1 4 15
M  V30 16 1 5 16
M  V30 17 1 8 17
M  V30 18 1 9 18
M  V30 19 1 10 19
M  V30 20 1 11 20
M  V30 21 1 12 21
M  V30 22 1 13 22
M  V30 END BOND
M  V30 BEGIN COLLECTION
M  V30 MDLV30/STERAC1 ATOMS=(1 5)
M  V30 END COLLECTION
M  V30 END CTAB
M  END
>  <Column 1>
917

>  <level_0>
1050

>  <index>
1050

>  <Unnamed: 0>
1050

>  <NO.>
1062

>  <Name>
carfimate

>  <IUPAC_name>
1-phenylprop-2-ynyl carbamate

>  <SMILES>
C#CC(OC(N)=O)c1ccccc1

>  <CID>
19111

>  <logBB>


>  <BBB+/BBB->
BBB+

>  <Inchi>
InChI=1S/C10H9NO2/c1-2-9(13-10(11)12)8-6-4-3-5-7-8/h1-3-7-9H-(H2-11-12)

>  <threshold>
-1

>  <reference>
R1|R19|R6|R27|R27|R30|

>  <group>
B

>  <Class>
1

>  <ABC>
9.37

>  <ABCGG>
8.88

>  <nAcid>
0

>  <nBase>
0

>  <nAromAtom>
6

>  <nAromBond>
6

>  <nAtom>
22

>  <nHeavyAtom>
13

>  <nSpiro>
0

>  <nBridgehead>
0

>  <nHetero>
3

>  <nN>
1

>  <nO>
2

>  <nF>
0

>  <BalabanJ>
2.34

>  <BertzCT>
326.53

>  <nBonds>
22

>  <nBondsO>
13

>  <nBondsS>
14

>  <nBondsD>
1

>  <nBondsT>
1

>  <nBondsA>
6

>  <nBondsM>
8

>  <nBondsKS>
17

>  <nBondsKD>
4

>  <RNCG>
0.29

>  <RPCG>
0.28

>  <FCSP3>
0.1

>  <SZ>
15.33

>  <Sm>
14.59

>  <Sv>
14.63

>  <Sse>
22.32

>  <Sp>
15.21

>  <Si>
24.58

>  <MZ>
0.7

>  <Mm>
0.66

>  <Mv>
0.66

>  <Mse>
1.01

>  <Mp>
0.69

>  <Mi>
1.12

>  <NsCH3>
0

>  <NdCH2>
0

>  <NssCH2>
0

>  <NtCH>
1

>  <NdsCH>
0

>  <NaaCH>
5

>  <NsssCH>
1

>  <NddC>
0

>  <NtsC>
1

>  <NdssC>
1

>  <NaasC>
1

>  <NaaaC>
0

>  <NssssC>
0

>  <NsNH3>
0

>  <NsNH2>
1

>  <NssNH2>
0

>  <NdNH>
0

>  <NssNH>
0

>  <NaaNH>
0

>  <NtN>
0

>  <NsssNH>
0

>  <NdsN>
0

>  <NaaN>
0

>  <NsssN>
0

>  <NddsN>
0

>  <NaasN>
0

>  <NssssN>
0

>  <NsOH>
0

>  <NdO>
1

>  <NssO>
1

>  <NaaO>
0

>  <NsF>
0

>  <NsSiH3>
0

>  <NssSiH2>
0

>  <NsssSiH>
0

>  <NssssSi>
0

>  <NsPH2>
0

>  <NssPH>
0

>  <NsssP>
0

>  <NdsssP>
0

>  <NsssssP>
0

>  <NsSH>
0

>  <NdS>
0

>  <NssS>
0

>  <NaaS>
0

>  <NdssS>
0

>  <NddssS>
0

>  <NsCl>
0

>  <NsBr>
0

>  <NsI>
0

>  <fragCpx>
13.03

>  <fMF>
0.27

>  <nHBAcc>
2

>  <nHBDon>
1

>  <Kier1>
11.08

>  <Kier2>
5.67

>  <Lipinski>
1

>  <GhoseFilter>
1

>  <FilterItLogS>
-1.1

>  <VMcGowan>
136.82

>  <LabuteASA>
76.51

>  <PEOE_VSA1>
10.47

>  <PEOE_VSA2>
0

>  <PEOE_VSA3>
4.79

>  <PEOE_VSA4>
0

>  <PEOE_VSA5>
6.42

>  <PEOE_VSA6>
36.25

>  <PEOE_VSA7>
0

>  <PEOE_VSA8>
5.56

>  <PEOE_VSA9>
0

>  <PEOE_VSA10>
0

>  <PEOE_VSA11>
6.1

>  <PEOE_VSA12>
0

>  <PEOE_VSA13>
0

>  <SMR_VSA1>
9.53

>  <SMR_VSA2>
0

>  <SMR_VSA3>
0

>  <SMR_VSA4>
5.73

>  <SMR_VSA5>
6.1

>  <SMR_VSA6>
0

>  <SMR_VSA7>
35.9

>  <SMR_VSA8>
0

>  <SMR_VSA9>
12.34

>  <SlogP_VSA1>
5.73

>  <SlogP_VSA2>
6.09

>  <SlogP_VSA3>
4.74

>  <SlogP_VSA4>
12.34

>  <SlogP_VSA5>
11.67

>  <SlogP_VSA6>
30.33

>  <SlogP_VSA7>
0

>  <SlogP_VSA8>
0

>  <SlogP_VSA9>
0

>  <SlogP_VSA10>
4.79

>  <SlogP_VSA11>
0

>  <EState_VSA1>
12.2

>  <EState_VSA2>
0

>  <EState_VSA3>
0

>  <EState_VSA4>
5.56

>  <EState_VSA5>
0

>  <EState_VSA6>
12.13

>  <EState_VSA7>
18.2

>  <EState_VSA8>
10.66

>  <EState_VSA9>
12.16

>  <EState_VSA10>
4.79

>  <VSA_EState1>
4.69

>  <VSA_EState2>
10.45

>  <VSA_EState3>
0

>  <VSA_EState4>
5.59

>  <VSA_EState5>
2.33

>  <VSA_EState6>
9.01

>  <VSA_EState7>
3.61

>  <VSA_EState8>
0

>  <VSA_EState9>
0

>  <apol>
25.41

>  <bpol>
11.06

>  <nRing>
1

>  <nHRing>
0

>  <naRing>
1

>  <naHRing>
0

>  <nARing 2>
0

>  <nAHRing 2>
0

>  <nFRing>
0

>  <nFHRing>
0

>  <nFaRing>
0

>  <nFaHRing>
0

>  <nFARing 2>
0

>  <nFAHRing 2>
0

>  <nRot>
2

>  <SLogP>
1.46

>  <SMR>
48.68

>  <TopoPSA(NO)>
52.32

>  <TopoPSA>
52.32

>  <JGI1>
0.19

>  <JGI2>
0.07

>  <JGI3>
0.05

>  <JGI4>
0.04

>  <JGI5>
0.02

>  <Diameter>
7

>  <Radius>
4

>  <TMWC10>
91.51

>  <TSRW10>
43.15

>  <MW>
175.06

>  <AMW>
7.96

>  <WPath>
256

>  <WPol>
15

>  <Zagreb1>
58

>  <Zagreb2>
63

>  <mZagreb2>
3.11

>  <yes>


>  <nAR-cont>
0.336376

>  <nHA-cont>
0.841215992

>  <MWHBN>
0.226739817

>  <MWHBN-cont>
0.989848641

>  <TPSA-cont>
0.634773911

>  <pka_cont>
0.97

>  <yes.1>


>  <BBB_SCORE>
4.416912776

>  <MMFF94 Energy>
-48.744

$$$$
Compound 766
Actelion Java MolfileCreator 2.0

  0  0  0  0  0  0              0 V3000
M  V30 BEGIN CTAB
M  V30 COUNTS 55 57 0 0 0
M  V30 BEGIN ATOM
M  V30 1 F -9.6526 1.5109 0.5564 0
M  V30 2 C -8.3379 1.3172 0.3901 0
M  V30 3 C -7.5703 0.8674 1.4525 0
M  V30 4 C -7.7565 1.5733 -0.8409 0
M  V30 5 C -6.1963 0.6675 1.276 0
M  V30 6 C -6.3829 1.369 -1.0083 0
M  V30 7 C -5.5692 0.9035 0.0404 0
M  V30 8 N -4.2049 0.7165 -0.1537 0
M  V30 9 C -3.2871 0.6662 0.9971 0
M  V30 10 C -3.7708 -0.0929 -1.3063 0
M  V30 11 C -1.8213 0.9226 0.5713 0
M  V30 12 C -2.2997 0.2054 -1.6712 0
M  V30 13 N -1.3649 0.0445 -0.532 0
M  V30 14 C 0.0128 0.3724 -0.9673 0
M  V30 15 C 1.1043 0.1609 0.1049 0 CFG=2
M  V30 16 O 1.1454 1.2795 1.0076 0
M  V30 17 C 2.4916 0.0379 -0.544 0
M  V30 18 O 3.4438 -0.1456 0.5128 0
M  V30 19 C 4.8338 -0.1108 0.1392 0
M  V30 20 C 5.2016 1.2442 -0.3311 0
M  V30 21 C 5.6215 -0.4116 1.435 0
M  V30 22 C 5.1941 -1.1698 -0.9232 0
M  V30 23 C 5.4997 2.3452 -0.709 0
M  V30 24 C 5.3869 -1.8373 1.9403 0
M  V30 25 C 4.9471 -2.5954 -0.4275 0
M  V30 26 C 5.7031 -2.8739 0.8675 0
M  V30 27 H -8.0385 0.6719 2.4114 0
M  V30 28 H -8.3658 1.9385 -1.6606 0
M  V30 29 H -5.6272 0.3004 2.1252 0
M  V30 30 H -5.9433 1.6131 -1.9717 0
M  V30 31 H -3.3585 -0.3162 1.4811 0
M  V30 32 H -3.5537 1.4318 1.7365 0
M  V30 33 H -4.3767 0.0947 -2.1989 0
M  V30 34 H -3.8815 -1.1566 -1.0584 0
M  V30 35 H -1.207 0.7569 1.4619 0
M  V30 36 H -1.7169 1.977 0.2821 0
M  V30 37 H -2.2372 1.2277 -2.069 0
M  V30 38 H -2.009 -0.4772 -2.4789 0
M  V30 39 H 0.2463 -0.284 -1.8152 0
M  V30 40 H 0.0552 1.4084 -1.3293 0
M  V30 41 H 0.8997 -0.7349 0.7031 0
M  V30 42 H 1.9721 1.1595 1.5158 0
M  V30 43 H 2.5089 -0.8235 -1.2177 0
M  V30 44 H 2.7207 0.952 -1.1014 0
M  V30 45 H 5.3239 0.2864 2.229 0
M  V30 46 H 6.6974 -0.2646 1.2691 0
M  V30 47 H 6.253 -1.0712 -1.2005 0
M  V30 48 H 4.6268 -1.0131 -1.848 0
M  V30 49 H 5.7605 3.3247 -1.0384 0
M  V30 50 H 4.3446 -1.95 2.2628 0
M  V30 51 H 6.0113 -2.02 2.8224 0
M  V30 52 H 5.2633 -3.3098 -1.1961 0
M  V30 53 H 3.8742 -2.7558 -0.268 0
M  V30 54 H 5.4506 -3.875 1.235 0
M  V30 55 H 6.7815 -2.8708 0.6665 0
M  V30 END ATOM
M  V30 BEGIN BOND
M  V30 1 1 1 2
M  V30 2 2 2 3
M  V30 3 1 2 4
M  V30 4 1 3 5
M  V30 5 2 4 6
M  V30 6 2 5 7
M  V30 7 1 7 8
M  V30 8 1 8 9
M  V30 9 1 8 10
M  V30 10 1 9 11
M  V30 11 1 10 12
M  V30 12 1 11 13
M  V30 13 1 13 14
M  V30 14 1 14 15
M  V30 15 1 15 16
M  V30 16 1 15 17
M  V30 17 1 17 18
M  V30 18 1 18 19
M  V30 19 1 19 20
M  V30 20 1 19 21
M  V30 21 1 19 22
M  V30 22 3 20 23
M  V30 23 1 21 24
M  V30 24 1 22 25
M  V30 25 1 24 26
M  V30 26 1 6 7
M  V30 27 1 12 13
M  V30 28 1 25 26
M  V30 29 1 3 27
M  V30 30 1 4 28
M  V30 31 1 5 29
M  V30 32 1 6 30
M  V30 33 1 9 31
M  V30 34 1 9 32
M  V30 35 1 10 33
M  V30 36 1 10 34
M  V30 37 1 11 35
M  V30 38 1 11 36
M  V30 39 1 12 37
M  V30 40 1 12 38
M  V30 41 1 14 39
M  V30 42 1 14 40
M  V30 43 1 15 41
M  V30 44 1 16 42
M  V30 45 1 17 43
M  V30 46 1 17 44
M  V30 47 1 21 45
M  V30 48 1 21 46
M  V30 49 1 22 47
M  V30 50 1 22 48
M  V30 51 1 23 49
M  V30 52 1 24 50
M  V30 53 1 24 51
M  V30 54 1 25 52
M  V30 55 1 25 53
M  V30 56 1 26 54
M  V30 57 1 26 55
M  V30 END BOND
M  V30 BEGIN COLLECTION
M  V30 MDLV30/STERAC1 ATOMS=(1 15)
M  V30 END COLLECTION
M  V30 END CTAB
M  END
>  <Column 1>
918

>  <level_0>
1051

>  <index>
1051

>  <Unnamed: 0>
1051

>  <NO.>
1063

>  <Name>
fluciprazine

>  <IUPAC_name>
1-(1-ethynylcyclohexyl)oxy-3-[4-(4-fluorophenyl)piperazin-1-yl]propan-2-ol

>  <SMILES>
C#CC1(OCC(O)CN2CCN(c3ccc(F)cc3)CC2)CCCCC1

>  <CID>
216227

>  <logBB>


>  <BBB+/BBB->
BBB+

>  <Inchi>
InChI=1S/C21H29FN2O2/c1-2-21(10-4-3-5-11-21)26-17-20(25)16-23-12-14-24(15-13-23)19-8-6-18(22)7-9-19/h1-6-9-20-25H-3-5-10-17H2

>  <threshold>
-1

>  <reference>
R1|R19|R6|R27|R27|R30|

>  <group>
B

>  <Class>
1

>  <ABC>
19.98

>  <ABCGG>
15.01

>  <nAcid>
0

>  <nBase>
1

>  <nAromAtom>
6

>  <nAromBond>
6

>  <nAtom>
55

>  <nHeavyAtom>
26

>  <nSpiro>
0

>  <nBridgehead>
0

>  <nHetero>
5

>  <nN>
2

>  <nO>
2

>  <nF>
1

>  <BalabanJ>
1.34

>  <BertzCT>
599.43

>  <nBonds>
57

>  <nBondsO>
28

>  <nBondsS>
50

>  <nBondsD>
0

>  <nBondsT>
1

>  <nBondsA>
6

>  <nBondsM>
7

>  <nBondsKS>
53

>  <nBondsKD>
3

>  <RNCG>
0.18

>  <RPCG>
0.1

>  <FCSP3>
0.62

>  <SZ>
32.33

>  <Sm>
30.01

>  <Sv>
32.45

>  <Sse>
54.82

>  <Sp>
35.19

>  <Si>
62.57

>  <MZ>
0.59

>  <Mm>
0.55

>  <Mv>
0.59

>  <Mse>
1

>  <Mp>
0.64

>  <Mi>
1.14

>  <NsCH3>
0

>  <NdCH2>
0

>  <NssCH2>
11

>  <NtCH>
1

>  <NdsCH>
0

>  <NaaCH>
4

>  <NsssCH>
1

>  <NddC>
0

>  <NtsC>
1

>  <NdssC>
0

>  <NaasC>
2

>  <NaaaC>
0

>  <NssssC>
1

>  <NsNH3>
0

>  <NsNH2>
0

>  <NssNH2>
0

>  <NdNH>
0

>  <NssNH>
0

>  <NaaNH>
0

>  <NtN>
0

>  <NsssNH>
0

>  <NdsN>
0

>  <NaaN>
0

>  <NsssN>
2

>  <NddsN>
0

>  <NaasN>
0

>  <NssssN>
0

>  <NsOH>
1

>  <NdO>
0

>  <NssO>
1

>  <NaaO>
0

>  <NsF>
1

>  <NsSiH3>
0

>  <NssSiH2>
0

>  <NsssSiH>
0

>  <NssssSi>
0

>  <NsPH2>
0

>  <NssPH>
0

>  <NsssP>
0

>  <NdsssP>
0

>  <NsssssP>
0

>  <NsSH>
0

>  <NdS>
0

>  <NssS>
0

>  <NaaS>
0

>  <NdssS>
0

>  <NddssS>
0

>  <NsCl>
0

>  <NsBr>
0

>  <NsI>
0

>  <fragCpx>
134.05

>  <fMF>
0.4

>  <nHBAcc>
4

>  <nHBDon>
1

>  <Kier1>
20.73

>  <Kier2>
9.97

>  <Lipinski>
1

>  <GhoseFilter>
1

>  <FilterItLogS>
-3.57

>  <VMcGowan>
286.13

>  <LabuteASA>
155.49

>  <PEOE_VSA1>
14.74

>  <PEOE_VSA2>
4.9

>  <PEOE_VSA3>
4.39

>  <PEOE_VSA4>
0

>  <PEOE_VSA5>
6.42

>  <PEOE_VSA6>
12.34

>  <PEOE_VSA7>
49.95

>  <PEOE_VSA8>
38.41

>  <PEOE_VSA9>
12.71

>  <PEOE_VSA10>
11.42

>  <PEOE_VSA11>
0

>  <PEOE_VSA12>
0

>  <PEOE_VSA13>
0

>  <SMR_VSA1>
14.23

>  <SMR_VSA2>
0

>  <SMR_VSA3>
4.9

>  <SMR_VSA4>
0

>  <SMR_VSA5>
43.81

>  <SMR_VSA6>
44.23

>  <SMR_VSA7>
30.08

>  <SMR_VSA8>
0

>  <SMR_VSA9>
12.34

>  <SlogP_VSA1>
4.9

>  <SlogP_VSA2>
61.04

>  <SlogP_VSA3>
4.74

>  <SlogP_VSA4>
18.16

>  <SlogP_VSA5>
32.1

>  <SlogP_VSA6>
24.27

>  <SlogP_VSA7>
0

>  <SlogP_VSA8>
0

>  <SlogP_VSA9>
0

>  <SlogP_VSA10>
10.08

>  <SlogP_VSA11>
0

>  <EState_VSA1>
11.71

>  <EState_VSA2>
5.82

>  <EState_VSA3>
13.15

>  <EState_VSA4>
57.55

>  <EState_VSA5>
18.55

>  <EState_VSA6>
0

>  <EState_VSA7>
12.13

>  <EState_VSA8>
15.72

>  <EState_VSA9>
11.16

>  <EState_VSA10>
9.5

>  <VSA_EState1>
19.01

>  <VSA_EState2>
4.49

>  <VSA_EState3>
10.36

>  <VSA_EState4>
0.57

>  <VSA_EState5>
2.61

>  <VSA_EState6>
6.62

>  <VSA_EState7>
10.38

>  <VSA_EState8>
4.37

>  <VSA_EState9>
0

>  <apol>
58.77

>  <bpol>
35.36

>  <nRing>
3

>  <nHRing>
1

>  <naRing>
1

>  <naHRing>
0

>  <nARing 2>
2

>  <nAHRing 2>
1

>  <nFRing>
0

>  <nFHRing>
0

>  <nFaRing>
0

>  <nFaHRing>
0

>  <nFARing 2>
0

>  <nFAHRing 2>
0

>  <nRot>
6

>  <SLogP>
2.66

>  <SMR>
101.66

>  <TopoPSA(NO)>
35.94

>  <TopoPSA>
35.94

>  <JGI1>
0.21

>  <JGI2>
0.08

>  <JGI3>
0.03

>  <JGI4>
0.04

>  <JGI5>
0.03

>  <Diameter>
16

>  <Radius>
8

>  <TMWC10>
128.4

>  <TSRW10>
60.71

>  <MW>
360.22

>  <AMW>
6.55

>  <WPath>
2001

>  <WPol>
38

>  <Zagreb1>
132

>  <Zagreb2>
151

>  <mZagreb2>
5.86

>  <yes>


>  <nAR-cont>
1

>  <nHA-cont>
0.892715677

>  <MWHBN>
0.263442654

>  <MWHBN-cont>
0.934403628

>  <TPSA-cont>
0.749116483

>  <pka_cont>
0.97

>  <yes.1>


>  <BBB_SCORE>
5.277554085

>  <MMFF94 Energy>
143.87

$$$$
Compound 767
Actelion Java MolfileCreator 2.0

  0  0  0  0  0  0              0 V3000
M  V30 BEGIN CTAB
M  V30 COUNTS 28 28 0 0 0
M  V30 BEGIN ATOM
M  V30 1 O 0.2347 2.3497 1.6443 0
M  V30 2 C 0.8516 2.3972 0.5944 0
M  V30 3 O 0.9783 1.4261 -0.3293 0
M  V30 4 N 1.534 3.4914 0.1911 0
M  V30 5 C 0.327 0.1265 -0.1852 0
M  V30 6 C 0.8787 -0.6101 1.0612 0
M  V30 7 C -1.2107 0.2675 -0.091 0
M  V30 8 C 0.7552 -0.6646 -1.459 0
M  V30 9 C 0.1596 -1.9275 1.3538 0
M  V30 10 C -1.9122 -1.0629 0.1786 0
M  V30 11 C 0.2971 -0.0496 -2.7219 0
M  V30 12 C -1.354 -1.7455 1.4244 0
M  V30 13 C -0.071 0.4427 -3.7535 0
M  V30 14 H 1.5348 4.3121 0.7768 0
M  V30 15 H 2.0202 3.4811 -0.6914 0
M  V30 16 H 0.7921 0.0232 1.9507 0
M  V30 17 H 1.9552 -0.7898 0.9463 0
M  V30 18 H -1.4821 0.9568 0.716 0
M  V30 19 H -1.6181 0.7312 -0.9967 0
M  V30 20 H 0.395 -1.6978 -1.4283 0
M  V30 21 H 1.8517 -0.7145 -1.4956 0
M  V30 22 H 0.5214 -2.3344 2.3054 0
M  V30 23 H 0.406 -2.6716 0.5882 0
M  V30 24 H -1.8109 -1.7277 -0.6865 0
M  V30 25 H -2.9861 -0.8868 0.3119 0
M  V30 26 H -1.6046 -1.1455 2.3083 0
M  V30 27 H -1.8358 -2.7209 1.5568 0
M  V30 28 H -0.3988 0.8809 -4.6681 0
M  V30 END ATOM
M  V30 BEGIN BOND
M  V30 1 2 1 2
M  V30 2 1 2 3
M  V30 3 1 2 4
M  V30 4 1 3 5
M  V30 5 1 5 6
M  V30 6 1 5 7
M  V30 7 1 5 8
M  V30 8 1 6 9
M  V30 9 1 7 10
M  V30 10 1 8 11
M  V30 11 1 9 12
M  V30 12 3 11 13
M  V30 13 1 10 12
M  V30 14 1 4 14
M  V30 15 1 4 15
M  V30 16 1 6 16
M  V30 17 1 6 17
M  V30 18 1 7 18
M  V30 19 1 7 19
M  V30 20 1 8 20
M  V30 21 1 8 21
M  V30 22 1 9 22
M  V30 23 1 9 23
M  V30 24 1 10 24
M  V30 25 1 10 25
M  V30 26 1 12 26
M  V30 27 1 12 27
M  V30 28 1 13 28
M  V30 END BOND
M  V30 END CTAB
M  END
>  <Column 1>
919

>  <level_0>
1052

>  <index>
1052

>  <Unnamed: 0>
1052

>  <NO.>
1064

>  <Name>
hexapropymate

>  <IUPAC_name>
(1-prop-2-ynylcyclohexyl) carbamate

>  <SMILES>
C#CCC1(OC(N)=O)CCCCC1

>  <CID>
9661

>  <logBB>


>  <BBB+/BBB->
BBB+

>  <Inchi>
InChI=1S/C10H15NO2/c1-2-6-10(13-9(11)12)7-4-3-5-8-10/h1H-3-8H2-(H2-11-12)

>  <threshold>
-1

>  <reference>
R1|R13|R19|R6|R24|R27|R27|R30|R30|

>  <group>
B

>  <Class>
1

>  <ABC>
9.41

>  <ABCGG>
8.98

>  <nAcid>
0

>  <nBase>
0

>  <nAromAtom>
0

>  <nAromBond>
0

>  <nAtom>
28

>  <nHeavyAtom>
13

>  <nSpiro>
0

>  <nBridgehead>
0

>  <nHetero>
3

>  <nN>
1

>  <nO>
2

>  <nF>
0

>  <BalabanJ>
2.5

>  <BertzCT>
223.57

>  <nBonds>
28

>  <nBondsO>
13

>  <nBondsS>
26

>  <nBondsD>
1

>  <nBondsT>
1

>  <nBondsA>
0

>  <nBondsM>
2

>  <nBondsKS>
26

>  <nBondsKD>
1

>  <RNCG>
0.32

>  <RPCG>
0.29

>  <FCSP3>
0.7

>  <SZ>
16.33

>  <Sm>
15.09

>  <Sv>
16.25

>  <Sse>
27.98

>  <Sp>
17.61

>  <Si>
31.82

>  <MZ>
0.58

>  <Mm>
0.54

>  <Mv>
0.58

>  <Mse>
1

>  <Mp>
0.63

>  <Mi>
1.14

>  <NsCH3>
0

>  <NdCH2>
0

>  <NssCH2>
6

>  <NtCH>
1

>  <NdsCH>
0

>  <NaaCH>
0

>  <NsssCH>
0

>  <NddC>
0

>  <NtsC>
1

>  <NdssC>
1

>  <NaasC>
0

>  <NaaaC>
0

>  <NssssC>
1

>  <NsNH3>
0

>  <NsNH2>
1

>  <NssNH2>
0

>  <NdNH>
0

>  <NssNH>
0

>  <NaaNH>
0

>  <NtN>
0

>  <NsssNH>
0

>  <NdsN>
0

>  <NaaN>
0

>  <NsssN>
0

>  <NddsN>
0

>  <NaasN>
0

>  <NssssN>
0

>  <NsOH>
0

>  <NdO>
1

>  <NssO>
1

>  <NaaO>
0

>  <NsF>
0

>  <NsSiH3>
0

>  <NssSiH2>
0

>  <NsssSiH>
0

>  <NssssSi>
0

>  <NsPH2>
0

>  <NssPH>
0

>  <NsssP>
0

>  <NdsssP>
0

>  <NsssssP>
0

>  <NsSH>
0

>  <NdS>
0

>  <NssS>
0

>  <NaaS>
0

>  <NdssS>
0

>  <NddssS>
0

>  <NsCl>
0

>  <NsBr>
0

>  <NsI>
0

>  <fragCpx>
13.03

>  <fMF>
0.21

>  <nHBAcc>
2

>  <nHBDon>
1

>  <Kier1>
11.08

>  <Kier2>
5.02

>  <Lipinski>
1

>  <GhoseFilter>
1

>  <FilterItLogS>
-1.35

>  <VMcGowan>
149.72

>  <LabuteASA>
78.63

>  <PEOE_VSA1>
10.47

>  <PEOE_VSA2>
0

>  <PEOE_VSA3>
4.79

>  <PEOE_VSA4>
0

>  <PEOE_VSA5>
12.34

>  <PEOE_VSA6>
6.42

>  <PEOE_VSA7>
25.68

>  <PEOE_VSA8>
6.42

>  <PEOE_VSA9>
0

>  <PEOE_VSA10>
5.6

>  <PEOE_VSA11>
0

>  <PEOE_VSA12>
0

>  <PEOE_VSA13>
0

>  <SMR_VSA1>
9.53

>  <SMR_VSA2>
0

>  <SMR_VSA3>
0

>  <SMR_VSA4>
5.73

>  <SMR_VSA5>
44.13

>  <SMR_VSA6>
0

>  <SMR_VSA7>
0

>  <SMR_VSA8>
0

>  <SMR_VSA9>
12.34

>  <SlogP_VSA1>
5.73

>  <SlogP_VSA2>
11.69

>  <SlogP_VSA3>
4.74

>  <SlogP_VSA4>
12.34

>  <SlogP_VSA5>
38.52

>  <SlogP_VSA6>
0

>  <SlogP_VSA7>
0

>  <SlogP_VSA8>
0

>  <SlogP_VSA9>
0

>  <SlogP_VSA10>
4.79

>  <SlogP_VSA11>
0

>  <EState_VSA1>
11.69

>  <EState_VSA2>
0

>  <EState_VSA3>
6.42

>  <EState_VSA4>
25.68

>  <EState_VSA5>
6.42

>  <EState_VSA6>
0

>  <EState_VSA7>
0

>  <EState_VSA8>
5.92

>  <EState_VSA9>
16.89

>  <EState_VSA10>
4.79

>  <VSA_EState1>
5.12

>  <VSA_EState2>
10.68

>  <VSA_EState3>
0

>  <VSA_EState4>
4.55

>  <VSA_EState5>
2.55

>  <VSA_EState6>
0

>  <VSA_EState7>
10.02

>  <VSA_EState8>
0

>  <VSA_EState9>
0

>  <apol>
29.41

>  <bpol>
17.08

>  <nRing>
1

>  <nHRing>
0

>  <naRing>
0

>  <naHRing>
0

>  <nARing 2>
1

>  <nAHRing 2>
0

>  <nFRing>
0

>  <nFHRing>
0

>  <nFaRing>
0

>  <nFaHRing>
0

>  <nFARing 2>
0

>  <nFAHRing 2>
0

>  <nRot>
2

>  <SLogP>
1.81

>  <SMR>
49.93

>  <TopoPSA(NO)>
52.32

>  <TopoPSA>
52.32

>  <JGI1>
0.27

>  <JGI2>
0.07

>  <JGI3>
0.05

>  <JGI4>
0.04

>  <JGI5>
0.03

>  <Diameter>
6

>  <Radius>
3

>  <TMWC10>
93.01

>  <TSRW10>
43.78

>  <MW>
181.11

>  <AMW>
6.47

>  <WPath>
244

>  <WPol>
16

>  <Zagreb1>
60

>  <Zagreb2>
66

>  <mZagreb2>
3.08

>  <yes>


>  <nAR-cont>
0.816016

>  <nHA-cont>
0.841215992

>  <MWHBN>
0.222920516

>  <MWHBN-cont>
0.992955582

>  <TPSA-cont>
0.634773911

>  <pka_cont>
0.97

>  <yes.1>


>  <BBB_SCORE>
4.901213187

>  <MMFF94 Energy>
-48.568

$$$$
Compound 768
Actelion Java MolfileCreator 2.0

  0  0  0  0  0  0              0 V3000
M  V30 BEGIN CTAB
M  V30 COUNTS 32 32 0 0 0
M  V30 BEGIN ATOM
M  V30 1 Cl 3.3011 2.9787 1.3677 0
M  V30 2 C 3.3014 1.3755 2.0194 0
M  V30 3 C 2.3227 0.4358 1.6482 0
M  V30 4 C 4.3071 1.0446 2.9311 0
M  V30 5 O 1.3787 0.8523 0.7474 0
M  V30 6 C 2.3733 -0.8449 2.2093 0
M  V30 7 C 4.3401 -0.233 3.4783 0
M  V30 8 C 0.35 -0.0657 0.3786 0
M  V30 9 C 3.3801 -1.1776 3.1225 0
M  V30 10 Cl 5.5732 -0.6517 4.602 0
M  V30 11 C -0.5717 0.6365 -0.6169 0
M  V30 12 C -1.7414 -0.2688 -1.0179 0
M  V30 13 N -2.5639 0.2899 -2.1081 0
M  V30 14 C -3.5476 -0.6967 -2.5911 0
M  V30 15 C -3.2662 1.506 -1.6869 0
M  V30 16 C -2.9068 -1.794 -3.3361 0
M  V30 17 C -2.3893 -2.6885 -3.9487 0
M  V30 18 H 5.0568 1.7798 3.2099 0
M  V30 19 H 1.6469 -1.6108 1.9576 0
M  V30 20 H -0.2249 -0.3583 1.2655 0
M  V30 21 H 0.7896 -0.952 -0.0941 0
M  V30 22 H 3.4085 -2.1768 3.5508 0
M  V30 23 H -0.929 1.5686 -0.1638 0
M  V30 24 H 0.0093 0.9283 -1.501 0
M  V30 25 H -1.3103 -1.2251 -1.338 0
M  V30 26 H -2.3619 -0.4827 -0.1374 0
M  V30 27 H -4.2498 -0.2111 -3.2813 0
M  V30 28 H -4.1448 -1.0959 -1.7614 0
M  V30 29 H -3.886 1.8972 -2.5022 0
M  V30 30 H -3.9132 1.3291 -0.82 0
M  V30 31 H -2.5638 2.3083 -1.4414 0
M  V30 32 H -1.9248 -3.4747 -4.4974 0
M  V30 END ATOM
M  V30 BEGIN BOND
M  V30 1 1 1 2
M  V30 2 2 2 3
M  V30 3 1 2 4
M  V30 4 1 3 5
M  V30 5 1 3 6
M  V30 6 2 4 7
M  V30 7 1 5 8
M  V30 8 2 6 9
M  V30 9 1 7 10
M  V30 10 1 8 11
M  V30 11 1 11 12
M  V30 12 1 12 13
M  V30 13 1 13 14
M  V30 14 1 13 15
M  V30 15 1 14 16
M  V30 16 3 16 17
M  V30 17 1 7 9
M  V30 18 1 4 18
M  V30 19 1 6 19
M  V30 20 1 8 20
M  V30 21 1 8 21
M  V30 22 1 9 22
M  V30 23 1 11 23
M  V30 24 1 11 24
M  V30 25 1 12 25
M  V30 26 1 12 26
M  V30 27 1 14 27
M  V30 28 1 14 28
M  V30 29 1 15 29
M  V30 30 1 15 30
M  V30 31 1 15 31
M  V30 32 1 17 32
M  V30 END BOND
M  V30 END CTAB
M  END
>  <Column 1>
920

>  <level_0>
1053

>  <index>
1053

>  <Unnamed: 0>
1053

>  <NO.>
1065

>  <Name>
clorgiline

>  <IUPAC_name>
3-(2-4-dichlorophenoxy)-n-methyl-n-prop-2-ynylpropan-1-amine

>  <SMILES>
C#CCN(C)CCCOc1ccc(Cl)cc1Cl

>  <CID>
4380

>  <logBB>


>  <BBB+/BBB->
BBB+

>  <Inchi>
InChI=1S/C13H15Cl2NO/c1-3-7-16(2)8-4-9-17-13-6-5-11(14)10-12(13)15/h1-5-6-10H-4-7-9H2-2H3

>  <threshold>
-1

>  <reference>
R1|R13|R19|R6|R24|R27|R27|R27|R30|R30|

>  <group>
B

>  <Class>
1

>  <ABC>
12.31

>  <ABCGG>
10.68

>  <nAcid>
0

>  <nBase>
1

>  <nAromAtom>
6

>  <nAromBond>
6

>  <nAtom>
32

>  <nHeavyAtom>
17

>  <nSpiro>
0

>  <nBridgehead>
0

>  <nHetero>
4

>  <nN>
1

>  <nO>
1

>  <nF>
0

>  <BalabanJ>
2.06

>  <BertzCT>
400.9

>  <nBonds>
32

>  <nBondsO>
17

>  <nBondsS>
25

>  <nBondsD>
0

>  <nBondsT>
1

>  <nBondsA>
6

>  <nBondsM>
7

>  <nBondsKS>
28

>  <nBondsKD>
3

>  <RNCG>
0.39

>  <RPCG>
0.11

>  <FCSP3>
0.38

>  <SZ>
23.67

>  <Sm>
22.66

>  <Sv>
20.72

>  <Sse>
32.18

>  <Sp>
22.74

>  <Si>
35.92

>  <MZ>
0.74

>  <Mm>
0.71

>  <Mv>
0.65

>  <Mse>
1.01

>  <Mp>
0.71

>  <Mi>
1.12

>  <NsCH3>
1

>  <NdCH2>
0

>  <NssCH2>
4

>  <NtCH>
1

>  <NdsCH>
0

>  <NaaCH>
3

>  <NsssCH>
0

>  <NddC>
0

>  <NtsC>
1

>  <NdssC>
0

>  <NaasC>
3

>  <NaaaC>
0

>  <NssssC>
0

>  <NsNH3>
0

>  <NsNH2>
0

>  <NssNH2>
0

>  <NdNH>
0

>  <NssNH>
0

>  <NaaNH>
0

>  <NtN>
0

>  <NsssNH>
0

>  <NdsN>
0

>  <NaaN>
0

>  <NsssN>
1

>  <NddsN>
0

>  <NaasN>
0

>  <NssssN>
0

>  <NsOH>
0

>  <NdO>
0

>  <NssO>
1

>  <NaaO>
0

>  <NsF>
0

>  <NsSiH3>
0

>  <NssSiH2>
0

>  <NsssSiH>
0

>  <NssssSi>
0

>  <NsPH2>
0

>  <NssPH>
0

>  <NsssP>
0

>  <NdsssP>
0

>  <NsssssP>
0

>  <NsSH>
0

>  <NdS>
0

>  <NssS>
0

>  <NaaS>
0

>  <NdssS>
0

>  <NddssS>
0

>  <NsCl>
2

>  <NsBr>
0

>  <NsI>
0

>  <fragCpx>
17.04

>  <fMF>
0.19

>  <nHBAcc>
2

>  <nHBDon>
0

>  <Kier1>
15.06

>  <Kier2>
8.16

>  <Lipinski>
1

>  <GhoseFilter>
1

>  <FilterItLogS>
-4.34

>  <VMcGowan>
202

>  <LabuteASA>
112.47

>  <PEOE_VSA1>
4.74

>  <PEOE_VSA2>
4.9

>  <PEOE_VSA3>
0

>  <PEOE_VSA4>
0

>  <PEOE_VSA5>
6.42

>  <PEOE_VSA6>
29.12

>  <PEOE_VSA7>
31.67

>  <PEOE_VSA8>
11.57

>  <PEOE_VSA9>
18.17

>  <PEOE_VSA10>
5.75

>  <PEOE_VSA11>
0

>  <PEOE_VSA12>
0

>  <PEOE_VSA13>
0

>  <SMR_VSA1>
4.74

>  <SMR_VSA2>
0

>  <SMR_VSA3>
4.9

>  <SMR_VSA4>
0

>  <SMR_VSA5>
6.42

>  <SMR_VSA6>
26.74

>  <SMR_VSA7>
28.24

>  <SMR_VSA8>
0

>  <SMR_VSA9>
18.09

>  <SlogP_VSA1>
4.74

>  <SlogP_VSA2>
31.64

>  <SlogP_VSA3>
0

>  <SlogP_VSA4>
12.34

>  <SlogP_VSA5>
6.42

>  <SlogP_VSA6>
18.2

>  <SlogP_VSA7>
10.05

>  <SlogP_VSA8>
0

>  <SlogP_VSA9>
0

>  <SlogP_VSA10>
0

>  <SlogP_VSA11>
5.75

>  <EState_VSA1>
0

>  <EState_VSA2>
0

>  <EState_VSA3>
28.95

>  <EState_VSA4>
12.97

>  <EState_VSA5>
0

>  <EState_VSA6>
18.2

>  <EState_VSA7>
7.05

>  <EState_VSA8>
10.82

>  <EState_VSA9>
34.36

>  <EState_VSA10>
0

>  <VSA_EState1>
5.55

>  <VSA_EState2>
2.06

>  <VSA_EState3>
1.14

>  <VSA_EState4>
0

>  <VSA_EState5>
3.25

>  <VSA_EState6>
5.2

>  <VSA_EState7>
6.11

>  <VSA_EState8>
2.16

>  <VSA_EState9>
1.98

>  <apol>
37.97

>  <bpol>
19.51

>  <nRing>
1

>  <nHRing>
0

>  <naRing>
1

>  <naHRing>
0

>  <nARing 2>
0

>  <nAHRing 2>
0

>  <nFRing>
0

>  <nFHRing>
0

>  <nFaRing>
0

>  <nFaHRing>
0

>  <nFARing 2>
0

>  <nFAHRing 2>
0

>  <nRot>
6

>  <SLogP>
3.33

>  <SMR>
72.9

>  <TopoPSA(NO)>
12.47

>  <TopoPSA>
12.47

>  <JGI1>
0.21

>  <JGI2>
0.08

>  <JGI3>
0.05

>  <JGI4>
0.04

>  <JGI5>
0.02

>  <Diameter>
12

>  <Radius>
6

>  <TMWC10>
101.6

>  <TSRW10>
48.43

>  <MW>
271.05

>  <AMW>
8.47

>  <WPath>
640

>  <WPol>
20

>  <Zagreb1>
76

>  <Zagreb2>
82

>  <mZagreb2>
4.03

>  <yes>


>  <nAR-cont>
0.336376

>  <nHA-cont>
0.976740822

>  <MWHBN>
0.121480142

>  <MWHBN-cont>
0.835693362

>  <TPSA-cont>
0.912951657

>  <pka_cont>
0.97

>  <yes.1>


>  <BBB_SCORE>
4.877560178

>  <MMFF94 Energy>
28.623

$$$$
Compound 769
Actelion Java MolfileCreator 2.0

  0  0  0  0  0  0              0 V3000
M  V30 BEGIN CTAB
M  V30 COUNTS 25 25 0 0 0
M  V30 BEGIN ATOM
M  V30 1 N 0.3117 -0.2338 -1.2474 0
M  V30 2 C 0.7281 -1.0585 -2.3929 0
M  V30 3 C 0.4333 -1.0207 -0.0051 0
M  V30 4 C 1.1154 0.9923 -1.1658 0
M  V30 5 C 0.3578 -0.4432 -3.6789 0
M  V30 6 C -0.207 -0.3626 1.2002 0
M  V30 7 C 0.0548 0.0534 -4.73 0
M  V30 8 C 0.528 -0.1579 2.3769 0
M  V30 9 C -1.5554 0.0249 1.1687 0
M  V30 10 C -0.0708 0.4303 3.493 0
M  V30 11 C -2.152 0.6132 2.2849 0
M  V30 12 C -1.4095 0.8157 3.4465 0
M  V30 13 H 0.223 -2.0322 -2.3496 0
M  V30 14 H 1.8063 -1.2604 -2.3643 0
M  V30 15 H -0.0746 -1.9875 -0.1233 0
M  V30 16 H 1.4876 -1.2506 0.2002 0
M  V30 17 H 0.782 1.6325 -0.3419 0
M  V30 18 H 2.1809 0.7774 -1.0228 0
M  V30 19 H 1.0077 1.5997 -2.0708 0
M  V30 20 H -0.2209 0.4992 -5.6574 0
M  V30 21 H 1.5729 -0.4532 2.4322 0
M  V30 22 H -2.1406 -0.124 0.2632 0
M  V30 23 H 0.5074 0.5879 4.3996 0
M  V30 24 H -3.1953 0.9148 2.2451 0
M  V30 25 H -1.8743 1.2746 4.3151 0
M  V30 END ATOM
M  V30 BEGIN BOND
M  V30 1 1 1 2
M  V30 2 1 1 3
M  V30 3 1 1 4
M  V30 4 1 2 5
M  V30 5 1 3 6
M  V30 6 3 5 7
M  V30 7 2 6 8
M  V30 8 1 6 9
M  V30 9 1 8 10
M  V30 10 2 9 11
M  V30 11 2 10 12
M  V30 12 1 11 12
M  V30 13 1 2 13
M  V30 14 1 2 14
M  V30 15 1 3 15
M  V30 16 1 3 16
M  V30 17 1 4 17
M  V30 18 1 4 18
M  V30 19 1 4 19
M  V30 20 1 7 20
M  V30 21 1 8 21
M  V30 22 1 9 22
M  V30 23 1 10 23
M  V30 24 1 11 24
M  V30 25 1 12 25
M  V30 END BOND
M  V30 END CTAB
M  END
>  <Column 1>
921

>  <level_0>
1054

>  <index>
1054

>  <Unnamed: 0>
1054

>  <NO.>
1066

>  <Name>
pargyline

>  <IUPAC_name>
n-benzyl-n-methylprop-2-yn-1-amine

>  <SMILES>
C#CCN(C)Cc1ccccc1

>  <CID>
4688

>  <logBB>


>  <BBB+/BBB->
BBB+

>  <Inchi>
InChI=1S/C11H13N/c1-3-9-12(2)10-11-7-5-4-6-8-11/h1-4-8H-9-10H2-2H3

>  <threshold>
-1

>  <reference>
R1|R13|R19|R6|R24|R27|R27|R27|R30|R30|

>  <group>
B

>  <Class>
1

>  <ABC>
8.59

>  <ABCGG>
7.94

>  <nAcid>
0

>  <nBase>
1

>  <nAromAtom>
6

>  <nAromBond>
6

>  <nAtom>
25

>  <nHeavyAtom>
12

>  <nSpiro>
0

>  <nBridgehead>
0

>  <nHetero>
1

>  <nN>
1

>  <nO>
0

>  <nF>
0

>  <BalabanJ>
2.11

>  <BertzCT>
258.08

>  <nBonds>
25

>  <nBondsO>
12

>  <nBondsS>
18

>  <nBondsD>
0

>  <nBondsT>
1

>  <nBondsA>
6

>  <nBondsM>
7

>  <nBondsKS>
21

>  <nBondsKD>
3

>  <RNCG>
0.34

>  <RPCG>
0.15

>  <FCSP3>
0.27

>  <SZ>
14.33

>  <Sm>
13.26

>  <Sv>
15.28

>  <Sse>
24.43

>  <Sp>
16.85

>  <Si>
27.99

>  <MZ>
0.57

>  <Mm>
0.53

>  <Mv>
0.61

>  <Mse>
0.98

>  <Mp>
0.67

>  <Mi>
1.12

>  <NsCH3>
1

>  <NdCH2>
0

>  <NssCH2>
2

>  <NtCH>
1

>  <NdsCH>
0

>  <NaaCH>
5

>  <NsssCH>
0

>  <NddC>
0

>  <NtsC>
1

>  <NdssC>
0

>  <NaasC>
1

>  <NaaaC>
0

>  <NssssC>
0

>  <NsNH3>
0

>  <NsNH2>
0

>  <NssNH2>
0

>  <NdNH>
0

>  <NssNH>
0

>  <NaaNH>
0

>  <NtN>
0

>  <NsssNH>
0

>  <NdsN>
0

>  <NaaN>
0

>  <NsssN>
1

>  <NddsN>
0

>  <NaasN>
0

>  <NssssN>
0

>  <NsOH>
0

>  <NdO>
0

>  <NssO>
0

>  <NaaO>
0

>  <NsF>
0

>  <NsSiH3>
0

>  <NssSiH2>
0

>  <NsssSiH>
0

>  <NssssSi>
0

>  <NsPH2>
0

>  <NssPH>
0

>  <NsssP>
0

>  <NdsssP>
0

>  <NsssssP>
0

>  <NsSH>
0

>  <NdS>
0

>  <NssS>
0

>  <NaaS>
0

>  <NdssS>
0

>  <NddssS>
0

>  <NsCl>
0

>  <NsBr>
0

>  <NsI>
0

>  <fragCpx>
12.01

>  <fMF>
0.24

>  <nHBAcc>
1

>  <nHBDon>
0

>  <Kier1>
10.08

>  <Kier2>
5.61

>  <Lipinski>
1

>  <GhoseFilter>
0

>  <FilterItLogS>
-2.24

>  <VMcGowan>
143.47

>  <LabuteASA>
74.02

>  <PEOE_VSA1>
0

>  <PEOE_VSA2>
4.9

>  <PEOE_VSA3>
0

>  <PEOE_VSA4>
0

>  <PEOE_VSA5>
6.42

>  <PEOE_VSA6>
36.25

>  <PEOE_VSA7>
12.61

>  <PEOE_VSA8>
6.54

>  <PEOE_VSA9>
6.54

>  <PEOE_VSA10>
0

>  <PEOE_VSA11>
0

>  <PEOE_VSA12>
0

>  <PEOE_VSA13>
0

>  <SMR_VSA1>
0

>  <SMR_VSA2>
0

>  <SMR_VSA3>
4.9

>  <SMR_VSA4>
0

>  <SMR_VSA5>
6.54

>  <SMR_VSA6>
13.59

>  <SMR_VSA7>
35.9

>  <SMR_VSA8>
0

>  <SMR_VSA9>
12.34

>  <SlogP_VSA1>
0

>  <SlogP_VSA2>
18.49

>  <SlogP_VSA3>
6.54

>  <SlogP_VSA4>
12.34

>  <SlogP_VSA5>
5.56

>  <SlogP_VSA6>
30.33

>  <SlogP_VSA7>
0

>  <SlogP_VSA8>
0

>  <SlogP_VSA9>
0

>  <SlogP_VSA10>
0

>  <SlogP_VSA11>
0

>  <EState_VSA1>
0

>  <EState_VSA2>
0

>  <EState_VSA3>
6.54

>  <EState_VSA4>
6.54

>  <EState_VSA5>
5.56

>  <EState_VSA6>
0

>  <EState_VSA7>
25.25

>  <EState_VSA8>
22.95

>  <EState_VSA9>
6.42

>  <EState_VSA10>
0

>  <VSA_EState1>
0

>  <VSA_EState2>
2.11

>  <VSA_EState3>
0

>  <VSA_EState4>
1.3

>  <VSA_EState5>
2.61

>  <VSA_EState6>
10.31

>  <VSA_EState7>
5.19

>  <VSA_EState8>
1.62

>  <VSA_EState9>
2.02

>  <apol>
28.14

>  <bpol>
14.75

>  <nRing>
1

>  <nHRing>
0

>  <naRing>
1

>  <naHRing>
0

>  <nARing 2>
0

>  <nAHRing 2>
0

>  <nFRing>
0

>  <nFHRing>
0

>  <nFaRing>
0

>  <nFaHRing>
0

>  <nFARing 2>
0

>  <nFAHRing 2>
0

>  <nRot>
3

>  <SLogP>
1.75

>  <SMR>
51.61

>  <TopoPSA(NO)>
3.24

>  <TopoPSA>
3.24

>  <JGI1>
0.17

>  <JGI2>
0.05

>  <JGI3>
0.05

>  <JGI4>
0.03

>  <JGI5>
0.01

>  <Diameter>
8

>  <Radius>
4

>  <TMWC10>
87.43

>  <TSRW10>
41.32

>  <MW>
159.1

>  <AMW>
6.36

>  <WPath>
221

>  <WPol>
12

>  <Zagreb1>
52

>  <Zagreb2>
55

>  <mZagreb2>
2.92

>  <yes>


>  <nAR-cont>
0.336376

>  <nHA-cont>
0.785745021

>  <MWHBN>
0.079280232

>  <MWHBN-cont>
0.601078874

>  <TPSA-cont>
0.977382788

>  <pka_cont>
0.97

>  <yes.1>


>  <BBB_SCORE>
4.463504908

>  <MMFF94 Energy>
22.011

$$$$
Compound 770
Actelion Java MolfileCreator 2.0

  0  0  0  0  0  0              0 V3000
M  V30 BEGIN CTAB
M  V30 COUNTS 35 37 0 0 0
M  V30 BEGIN ATOM
M  V30 1 Cl 2.8474 0.0 -3.7436 0
M  V30 2 C 2.0499 0.4829 -2.2993 0
M  V30 3 C 1.3918 -0.4634 -1.5215 0
M  V30 4 C 2.0701 1.8167 -1.9107 0
M  V30 5 C 0.73 -0.0708 -0.3444 0
M  V30 6 C 1.4318 2.2071 -0.7295 0
M  V30 7 C 0.0494 -1.136 0.4484 0
M  V30 8 C 0.7552 1.2737 0.0744 0
M  V30 9 N 0.1922 -1.2803 1.7246 0
M  V30 10 C -0.8376 -2.1109 -0.2634 0
M  V30 11 N 0.1356 1.7149 1.2807 0
M  V30 12 C 0.9983 -0.2971 2.4529 0
M  V30 13 C -0.9158 -3.4272 0.2075 0
M  V30 14 C -1.6094 -1.7232 -1.3665 0
M  V30 15 C 0.2316 1.0193 2.4885 0
M  V30 16 C -0.6666 2.935 1.269 0
M  V30 17 C -1.7357 -4.3551 -0.4365 0
M  V30 18 C -2.4282 -2.6553 -2.008 0
M  V30 19 O -0.2721 1.4315 3.5362 0
M  V30 20 C 0.1075 4.1095 1.7046 0
M  V30 21 C -2.4876 -3.9697 -1.5456 0
M  V30 22 C 0.7352 5.0674 2.0676 0
M  V30 23 H 1.4049 -1.5075 -1.8266 0
M  V30 24 H 2.5916 2.5586 -2.511 0
M  V30 25 H 1.4991 3.2532 -0.4408 0
M  V30 26 H 1.1278 -0.6459 3.4833 0
M  V30 27 H 2.0029 -0.1703 2.0353 0
M  V30 28 H -0.3395 -3.7333 1.078 0
M  V30 29 H -1.6001 -0.6992 -1.7286 0
M  V30 30 H -1.5277 2.8022 1.9351 0
M  V30 31 H -1.0768 3.0923 0.2642 0
M  V30 32 H -1.7917 -5.3761 -0.0675 0
M  V30 33 H -3.028 -2.3548 -2.8637 0
M  V30 34 H -3.1292 -4.6929 -2.0433 0
M  V30 35 H 1.2894 5.9126 2.4058 0
M  V30 END ATOM
M  V30 BEGIN BOND
M  V30 1 1 1 2
M  V30 2 2 2 3
M  V30 3 1 2 4
M  V30 4 1 3 5
M  V30 5 2 4 6
M  V30 6 1 5 7
M  V30 7 2 5 8
M  V30 8 2 7 9
M  V30 9 1 7 10
M  V30 10 1 8 11
M  V30 11 1 9 12
M  V30 12 2 10 13
M  V30 13 1 10 14
M  V30 14 1 11 15
M  V30 15 1 11 16
M  V30 16 1 13 17
M  V30 17 2 14 18
M  V30 18 2 15 19
M  V30 19 1 16 20
M  V30 20 2 17 21
M  V30 21 3 20 22
M  V30 22 1 6 8
M  V30 23 1 12 15
M  V30 24 1 18 21
M  V30 25 1 3 23
M  V30 26 1 4 24
M  V30 27 1 6 25
M  V30 28 1 12 26
M  V30 29 1 12 27
M  V30 30 1 13 28
M  V30 31 1 14 29
M  V30 32 1 16 30
M  V30 33 1 16 31
M  V30 34 1 17 32
M  V30 35 1 18 33
M  V30 36 1 21 34
M  V30 37 1 22 35
M  V30 END BOND
M  V30 END CTAB
M  END
>  <Column 1>
922

>  <level_0>
1055

>  <index>
1055

>  <Unnamed: 0>
1055

>  <NO.>
1067

>  <Name>
pinazepam

>  <IUPAC_name>
7-chloro-5-phenyl-1-prop-2-ynyl-3h-1-4-benzodiazepin-2-one

>  <SMILES>
C#CCN1C(=O)CN=C(c2ccccc2)c2cc(Cl)ccc21

>  <CID>
40391

>  <logBB>


>  <BBB+/BBB->
BBB+

>  <Inchi>
InChI=1S/C18H13ClN2O/c1-2-10-21-16-9-8-14(19)11-15(16)18(20-12-17(21)22)13-6-4-3-5-7-13/h1-3-9-11H-10-12H2

>  <threshold>
-1

>  <reference>
R1|R13|R19|R6|R24|R27|R27|R27|R30|R30|

>  <group>
B

>  <Class>
1

>  <ABC>
16.99

>  <ABCGG>
14.02

>  <nAcid>
0

>  <nBase>
0

>  <nAromAtom>
12

>  <nAromBond>
12

>  <nAtom>
35

>  <nHeavyAtom>
22

>  <nSpiro>
0

>  <nBridgehead>
0

>  <nHetero>
4

>  <nN>
2

>  <nO>
1

>  <nF>
0

>  <BalabanJ>
1.8

>  <BertzCT>
790.48

>  <nBonds>
37

>  <nBondsO>
24

>  <nBondsS>
22

>  <nBondsD>
2

>  <nBondsT>
1

>  <nBondsA>
12

>  <nBondsM>
15

>  <nBondsKS>
28

>  <nBondsKD>
8

>  <RNCG>
0.19

>  <RPCG>
0.16

>  <FCSP3>
0.11

>  <SZ>
26.67

>  <Sm>
25.71

>  <Sv>
24.84

>  <Sse>
35.19

>  <Sp>
26.29

>  <Si>
38.64

>  <MZ>
0.76

>  <Mm>
0.73

>  <Mv>
0.71

>  <Mse>
1.01

>  <Mp>
0.75

>  <Mi>
1.1

>  <NsCH3>
0

>  <NdCH2>
0

>  <NssCH2>
2

>  <NtCH>
1

>  <NdsCH>
0

>  <NaaCH>
8

>  <NsssCH>
0

>  <NddC>
0

>  <NtsC>
1

>  <NdssC>
2

>  <NaasC>
4

>  <NaaaC>
0

>  <NssssC>
0

>  <NsNH3>
0

>  <NsNH2>
0

>  <NssNH2>
0

>  <NdNH>
0

>  <NssNH>
0

>  <NaaNH>
0

>  <NtN>
0

>  <NsssNH>
0

>  <NdsN>
1

>  <NaaN>
0

>  <NsssN>
1

>  <NddsN>
0

>  <NaasN>
0

>  <NssssN>
0

>  <NsOH>
0

>  <NdO>
1

>  <NssO>
0

>  <NaaO>
0

>  <NsF>
0

>  <NsSiH3>
0

>  <NssSiH2>
0

>  <NsssSiH>
0

>  <NssssSi>
0

>  <NsPH2>
0

>  <NssPH>
0

>  <NsssP>
0

>  <NdsssP>
0

>  <NsssssP>
0

>  <NsSH>
0

>  <NdS>
0

>  <NssS>
0

>  <NaaS>
0

>  <NdssS>
0

>  <NddssS>
0

>  <NsCl>
1

>  <NsBr>
0

>  <NsI>
0

>  <fragCpx>
114.04

>  <fMF>
0.49

>  <nHBAcc>
2

>  <nHBDon>
0

>  <Kier1>
16.84

>  <Kier2>
7.71

>  <Lipinski>
1

>  <GhoseFilter>
1

>  <FilterItLogS>
-4.88

>  <VMcGowan>
226.97

>  <LabuteASA>
133.79

>  <PEOE_VSA1>
0

>  <PEOE_VSA2>
14.69

>  <PEOE_VSA3>
0

>  <PEOE_VSA4>
0

>  <PEOE_VSA5>
6.42

>  <PEOE_VSA6>
47.85

>  <PEOE_VSA7>
18.2

>  <PEOE_VSA8>
16.15

>  <PEOE_VSA9>
17.94

>  <PEOE_VSA10>
6.54

>  <PEOE_VSA11>
0

>  <PEOE_VSA12>
5.91

>  <PEOE_VSA13>
0

>  <SMR_VSA1>
4.79

>  <SMR_VSA2>
0

>  <SMR_VSA3>
0

>  <SMR_VSA4>
4.99

>  <SMR_VSA5>
0

>  <SMR_VSA6>
17.99

>  <SMR_VSA7>
64.68

>  <SMR_VSA8>
0

>  <SMR_VSA9>
12.34

>  <SlogP_VSA1>
4.9

>  <SlogP_VSA2>
24.71

>  <SlogP_VSA3>
4.79

>  <SlogP_VSA4>
12.34

>  <SlogP_VSA5>
11.13

>  <SlogP_VSA6>
53.52

>  <SlogP_VSA7>
5.02

>  <SlogP_VSA8>
0

>  <SlogP_VSA9>
0

>  <SlogP_VSA10>
5.69

>  <SlogP_VSA11>
0

>  <EState_VSA1>
0

>  <EState_VSA2>
19

>  <EState_VSA3>
5.02

>  <EState_VSA4>
22.53

>  <EState_VSA5>
0

>  <EState_VSA6>
10.97

>  <EState_VSA7>
42.46

>  <EState_VSA8>
10.91

>  <EState_VSA9>
18.02

>  <EState_VSA10>
4.79

>  <VSA_EState1>
0

>  <VSA_EState2>
18.38

>  <VSA_EState3>
0.59

>  <VSA_EState4>
3.26

>  <VSA_EState5>
2.41

>  <VSA_EState6>
15.14

>  <VSA_EState7>
5.4

>  <VSA_EState8>
0.28

>  <VSA_EState9>
0

>  <apol>
43.91

>  <bpol>
17.27

>  <nRing>
3

>  <nHRing>
1

>  <naRing>
2

>  <naHRing>
0

>  <nARing 2>
1

>  <nAHRing 2>
1

>  <nFRing>
1

>  <nFHRing>
1

>  <nFaRing>
0

>  <nFaHRing>
0

>  <nFARing 2>
1

>  <nFAHRing 2>
1

>  <nRot>
2

>  <SLogP>
3.16

>  <SMR>
89.59

>  <TopoPSA(NO)>
32.67

>  <TopoPSA>
32.67

>  <JGI1>
0.15

>  <JGI2>
0.08

>  <JGI3>
0.04

>  <JGI4>
0.04

>  <JGI5>
0.02

>  <Diameter>
10

>  <Radius>
5

>  <TMWC10>
120.52

>  <TSRW10>
64.21

>  <MW>
308.07

>  <AMW>
8.8

>  <WPath>
953

>  <WPol>
39

>  <Zagreb1>
114

>  <Zagreb2>
135

>  <mZagreb2>
4.97

>  <yes>


>  <nAR-cont>
0.816016

>  <nHA-cont>
0.983774276

>  <MWHBN>
0.113947629

>  <MWHBN-cont>
0.80215718

>  <TPSA-cont>
0.771943113

>  <pka_cont>
0.97

>  <yes.1>


>  <BBB_SCORE>
5.031912272

>  <MMFF94 Energy>
102.89

$$$$
Compound 771
Actelion Java MolfileCreator 2.0

  0  0  0  0  0  0              0 V3000
M  V30 BEGIN CTAB
M  V30 COUNTS 26 27 0 0 0
M  V30 BEGIN ATOM
M  V30 1 N 1.7402 0.4743 -0.3162 0
M  V30 2 C 0.4218 -0.1272 -0.5064 0 CFG=1
M  V30 3 C 2.5535 0.5022 -1.5279 0
M  V30 4 C -0.4056 -0.1141 0.7556 0
M  V30 5 C -0.509 0.67 -1.4497 0
M  V30 6 C 2.9646 -0.8425 -1.9495 0
M  V30 7 C -1.7492 0.1583 0.465 0
M  V30 8 C -0.0034 -0.3846 2.0551 0
M  V30 9 C -1.9447 0.3587 -1.0044 0
M  V30 10 C 3.3025 -1.9421 -2.2955 0
M  V30 11 C -2.7105 0.1719 1.4618 0
M  V30 12 C -0.9632 -0.3597 3.0692 0
M  V30 13 C -2.3072 -0.0827 2.7743 0
M  V30 14 H 1.6122 1.4285 0.0157 0
M  V30 15 H 0.4976 -1.171 -0.8355 0
M  V30 16 H 3.4564 1.0853 -1.3118 0
M  V30 17 H 2.0417 1.0262 -2.3423 0
M  V30 18 H -0.3332 1.7501 -1.3378 0
M  V30 19 H -0.3455 0.4254 -2.5044 0
M  V30 20 H 1.0343 -0.6138 2.2774 0
M  V30 21 H -2.6205 1.1887 -1.2284 0
M  V30 22 H -2.3136 -0.5627 -1.4661 0
M  V30 23 H 3.6019 -2.9204 -2.5923 0
M  V30 24 H -3.7525 0.372 1.2342 0
M  V30 25 H -0.6679 -0.5647 4.0952 0
M  V30 26 H -3.0417 -0.075 3.576 0
M  V30 END ATOM
M  V30 BEGIN BOND
M  V30 1 1 1 2
M  V30 2 1 1 3
M  V30 3 1 2 4
M  V30 4 1 2 5
M  V30 5 1 3 6
M  V30 6 2 4 7
M  V30 7 1 4 8
M  V30 8 1 5 9
M  V30 9 3 6 10
M  V30 10 1 7 11
M  V30 11 2 8 12
M  V30 12 2 11 13
M  V30 13 1 7 9
M  V30 14 1 12 13
M  V30 15 1 1 14
M  V30 16 1 2 15
M  V30 17 1 3 16
M  V30 18 1 3 17
M  V30 19 1 5 18
M  V30 20 1 5 19
M  V30 21 1 8 20
M  V30 22 1 9 21
M  V30 23 1 9 22
M  V30 24 1 10 23
M  V30 25 1 11 24
M  V30 26 1 12 25
M  V30 27 1 13 26
M  V30 END BOND
M  V30 BEGIN COLLECTION
M  V30 MDLV30/STEABS ATOMS=(1 2)
M  V30 END COLLECTION
M  V30 END CTAB
M  END
>  <Column 1>
923

>  <level_0>
1056

>  <index>
1056

>  <Unnamed: 0>
1056

>  <NO.>
1068

>  <Name>
rasagiline

>  <IUPAC_name>
(1r)-n-prop-2-ynyl-2-3-dihydro-1h-inden-1-amine

>  <SMILES>
C#CCN[C@@H]1CCc2ccccc21

>  <CID>
3052776

>  <logBB>


>  <BBB+/BBB->
BBB+

>  <Inchi>
InChI=1S/C12H13N/c1-2-9-13-12-8-7-10-5-3-4-6-11(10)12/h1-3-6-12-13H-7-9H2/t12-/m1/s1

>  <threshold>
-1

>  <reference>
R1|R6|R27|R30|

>  <group>
B

>  <Class>
1

>  <ABC>
9.82

>  <ABCGG>
8.88

>  <nAcid>
0

>  <nBase>
1

>  <nAromAtom>
6

>  <nAromBond>
6

>  <nAtom>
26

>  <nHeavyAtom>
13

>  <nSpiro>
0

>  <nBridgehead>
0

>  <nHetero>
1

>  <nN>
1

>  <nO>
0

>  <nF>
0

>  <BalabanJ>
1.84

>  <BertzCT>
335.22

>  <nBonds>
27

>  <nBondsO>
14

>  <nBondsS>
20

>  <nBondsD>
0

>  <nBondsT>
1

>  <nBondsA>
6

>  <nBondsM>
7

>  <nBondsKS>
23

>  <nBondsKD>
3

>  <RNCG>
0.34

>  <RPCG>
0.14

>  <FCSP3>
0.33

>  <SZ>
15.33

>  <Sm>
14.26

>  <Sv>
16.28

>  <Sse>
25.43

>  <Sp>
17.85

>  <Si>
28.99

>  <MZ>
0.59

>  <Mm>
0.55

>  <Mv>
0.63

>  <Mse>
0.98

>  <Mp>
0.69

>  <Mi>
1.12

>  <NsCH3>
0

>  <NdCH2>
0

>  <NssCH2>
3

>  <NtCH>
1

>  <NdsCH>
0

>  <NaaCH>
4

>  <NsssCH>
1

>  <NddC>
0

>  <NtsC>
1

>  <NdssC>
0

>  <NaasC>
2

>  <NaaaC>
0

>  <NssssC>
0

>  <NsNH3>
0

>  <NsNH2>
0

>  <NssNH2>
0

>  <NdNH>
0

>  <NssNH>
1

>  <NaaNH>
0

>  <NtN>
0

>  <NsssNH>
0

>  <NdsN>
0

>  <NaaN>
0

>  <NsssN>
0

>  <NddsN>
0

>  <NaasN>
0

>  <NssssN>
0

>  <NsOH>
0

>  <NdO>
0

>  <NssO>
0

>  <NaaO>
0

>  <NsF>
0

>  <NsSiH3>
0

>  <NssSiH2>
0

>  <NsssSiH>
0

>  <NssssSi>
0

>  <NsPH2>
0

>  <NssPH>
0

>  <NsssP>
0

>  <NdsssP>
0

>  <NsssssP>
0

>  <NsSH>
0

>  <NdS>
0

>  <NssS>
0

>  <NaaS>
0

>  <NdssS>
0

>  <NddssS>
0

>  <NsCl>
0

>  <NsBr>
0

>  <NsI>
0

>  <fragCpx>
40.01

>  <fMF>
0.35

>  <nHBAcc>
1

>  <nHBDon>
1

>  <Kier1>
9.55

>  <Kier2>
4.48

>  <Lipinski>
1

>  <GhoseFilter>
1

>  <FilterItLogS>
-2.92

>  <VMcGowan>
146.7

>  <LabuteASA>
79.16

>  <PEOE_VSA1>
0

>  <PEOE_VSA2>
5.32

>  <PEOE_VSA3>
0

>  <PEOE_VSA4>
0

>  <PEOE_VSA5>
6.42

>  <PEOE_VSA6>
30.19

>  <PEOE_VSA7>
23.97

>  <PEOE_VSA8>
6.04

>  <PEOE_VSA9>
6.54

>  <PEOE_VSA10>
0

>  <PEOE_VSA11>
0

>  <PEOE_VSA12>
0

>  <PEOE_VSA13>
0

>  <SMR_VSA1>
0

>  <SMR_VSA2>
0

>  <SMR_VSA3>
5.32

>  <SMR_VSA4>
0

>  <SMR_VSA5>
18.88

>  <SMR_VSA6>
6.54

>  <SMR_VSA7>
35.39

>  <SMR_VSA8>
0

>  <SMR_VSA9>
12.34

>  <SlogP_VSA1>
5.32

>  <SlogP_VSA2>
6.54

>  <SlogP_VSA3>
6.42

>  <SlogP_VSA4>
12.34

>  <SlogP_VSA5>
23.59

>  <SlogP_VSA6>
24.27

>  <SlogP_VSA7>
0

>  <SlogP_VSA8>
0

>  <SlogP_VSA9>
0

>  <SlogP_VSA10>
0

>  <SlogP_VSA11>
0

>  <EState_VSA1>
0

>  <EState_VSA2>
0

>  <EState_VSA3>
12.59

>  <EState_VSA4>
0

>  <EState_VSA5>
23.97

>  <EState_VSA6>
0

>  <EState_VSA7>
0

>  <EState_VSA8>
35.5

>  <EState_VSA9>
6.42

>  <EState_VSA10>
0

>  <VSA_EState1>
0

>  <VSA_EState2>
0

>  <VSA_EState3>
3.35

>  <VSA_EState4>
2.9

>  <VSA_EState5>
2.61

>  <VSA_EState6>
9.06

>  <VSA_EState7>
7.57

>  <VSA_EState8>
0.67

>  <VSA_EState9>
0

>  <apol>
29.81

>  <bpol>
13.61

>  <nRing>
2

>  <nHRing>
0

>  <naRing>
1

>  <naHRing>
0

>  <nARing 2>
1

>  <nAHRing 2>
0

>  <nFRing>
1

>  <nFHRing>
0

>  <nFaRing>
0

>  <nFaHRing>
0

>  <nFARing 2>
1

>  <nFAHRing 2>
0

>  <nRot>
2

>  <SLogP>
1.9

>  <SMR>
54.34

>  <TopoPSA(NO)>
12.03

>  <TopoPSA>
12.03

>  <JGI1>
0.11

>  <JGI2>
0.07

>  <JGI3>
0.05

>  <JGI4>
0.02

>  <JGI5>
0.02

>  <Diameter>
8

>  <Radius>
4

>  <TMWC10>
95.33

>  <TSRW10>
57.94

>  <MW>
171.1

>  <AMW>
6.58

>  <WPath>
251

>  <WPol>
16

>  <Zagreb1>
64

>  <Zagreb2>
74

>  <mZagreb2>
3.06

>  <yes>


>  <nAR-cont>
0.816016

>  <nHA-cont>
0.841215992

>  <MWHBN>
0.152899122

>  <MWHBN-cont>
0.939816616

>  <TPSA-cont>
0.91602313

>  <pka_cont>
0.97

>  <yes.1>


>  <BBB_SCORE>
5.384003176

>  <MMFF94 Energy>
13.61

$$$$
Compound 772
Actelion Java MolfileCreator 2.0

  0  0  0  0  0  0              0 V3000
M  V30 BEGIN CTAB
M  V30 COUNTS 48 51 0 0 0
M  V30 BEGIN ATOM
M  V30 1 O 1.6925 -2.0958 -5.3267 0
M  V30 2 C 1.0373 -1.5959 -4.4158 0
M  V30 3 C 0.3643 -2.4776 -3.4308 0
M  V30 4 C 0.9656 -0.1033 -4.1954 0
M  V30 5 C -0.3966 -1.9591 -2.4529 0
M  V30 6 C -0.3876 0.2776 -3.6181 0
M  V30 7 C -0.7177 -0.4799 -2.3218 0 CFG=2
M  V30 8 C -0.9196 -2.8033 -1.322 0
M  V30 9 C -0.0238 0.0305 -1.0306 0 CFG=2
M  V30 10 C -0.3304 -2.3002 -8.0E-4 0
M  V30 11 C -0.5592 -0.7878 0.1943 0 CFG=1
M  V30 12 C -0.1722 1.5539 -0.8136 0
M  V30 13 C 0.1106 -0.265 1.4679 0 CFG=1
M  V30 14 C 0.3956 2.036 0.5346 0
M  V30 15 C -0.1694 1.2334 1.7212 0 CFG=2
M  V30 16 C -0.2358 -0.9245 2.8004 0
M  V30 17 C 0.5252 1.4194 3.105 0 CFG=2
M  V30 18 C -1.6842 1.5705 1.8575 0
M  V30 19 C 0.1335 0.1268 3.8672 0
M  V30 20 O 0.0289 2.5533 3.8019 0
M  V30 21 C 1.9975 1.5405 3.0309 0
M  V30 22 C 3.1935 1.6453 2.9854 0
M  V30 23 H 0.5933 -3.5341 -3.5081 0
M  V30 24 H 1.7841 0.1945 -3.5322 0
M  V30 25 H 1.1013 0.397 -5.1602 0
M  V30 26 H -1.1582 0.0283 -4.3619 0
M  V30 27 H -0.4516 1.3612 -3.4837 0
M  V30 28 H -1.8037 -0.3772 -2.182 0
M  V30 29 H -2.0142 -2.7421 -1.2962 0
M  V30 30 H -0.6628 -3.8607 -1.4545 0
M  V30 31 H 1.0553 -0.1683 -1.1172 0
M  V30 32 H 0.7454 -2.5172 0.0248 0
M  V30 33 H -0.7864 -2.8597 0.8242 0
M  V30 34 H -1.6444 -0.6423 0.2664 0
M  V30 35 H 0.3634 2.0936 -1.6028 0
M  V30 36 H -1.2252 1.8429 -0.9045 0
M  V30 37 H 1.1942 -0.4049 1.3265 0
M  V30 38 H 1.486 1.9366 0.4827 0
M  V30 39 H 0.1887 3.1056 0.66 0
M  V30 40 H -1.3023 -1.1686 2.8628 0
M  V30 41 H 0.324 -1.8534 2.9502 0
M  V30 42 H -2.2627 1.3064 0.9689 0
M  V30 43 H -1.826 2.6462 2.0155 0
M  V30 44 H -2.1547 1.0567 2.7016 0
M  V30 45 H 0.9478 -0.2438 4.5015 0
M  V30 46 H -0.7232 0.296 4.5309 0
M  V30 47 H 0.3912 3.3377 3.3562 0
M  V30 48 H 4.2548 1.7367 2.9519 0
M  V30 END ATOM
M  V30 BEGIN BOND
M  V30 1 2 1 2
M  V30 2 1 2 3
M  V30 3 1 2 4
M  V30 4 2 3 5
M  V30 5 1 4 6
M  V30 6 1 5 7
M  V30 7 1 5 8
M  V30 8 1 7 9
M  V30 9 1 8 10
M  V30 10 1 9 11
M  V30 11 1 9 12
M  V30 12 1 11 13
M  V30 13 1 12 14
M  V30 14 1 13 15
M  V30 15 1 13 16
M  V30 16 1 15 17
M  V30 17 1 15 18
M  V30 18 1 16 19
M  V30 19 1 17 20
M  V30 20 1 17 21
M  V30 21 3 21 22
M  V30 22 1 6 7
M  V30 23 1 10 11
M  V30 24 1 14 15
M  V30 25 1 17 19
M  V30 26 1 3 23
M  V30 27 1 4 24
M  V30 28 1 4 25
M  V30 29 1 6 26
M  V30 30 1 6 27
M  V30 31 1 7 28
M  V30 32 1 8 29
M  V30 33 1 8 30
M  V30 34 1 9 31
M  V30 35 1 10 32
M  V30 36 1 10 33
M  V30 37 1 11 34
M  V30 38 1 12 35
M  V30 39 1 12 36
M  V30 40 1 13 37
M  V30 41 1 14 38
M  V30 42 1 14 39
M  V30 43 1 16 40
M  V30 44 1 16 41
M  V30 45 1 18 42
M  V30 46 1 18 43
M  V30 47 1 18 44
M  V30 48 1 19 45
M  V30 49 1 19 46
M  V30 50 1 20 47
M  V30 51 1 22 48
M  V30 END BOND
M  V30 BEGIN COLLECTION
M  V30 MDLV30/STEABS ATOMS=(6 7 9 11 13 15 17)
M  V30 END COLLECTION
M  V30 END CTAB
M  END
>  <Column 1>
925

>  <level_0>
1058

>  <index>
1058

>  <Unnamed: 0>
1058

>  <NO.>
1070

>  <Name>
norethindrone

>  <IUPAC_name>
(8r-9s-10r-13s-14s-17r)-17-ethynyl-17-hydroxy-13-methyl-1-2-6-7-8-9-10-11-12-14-15-16-dodecahydrocyclopenta[a]phenanthren-3-one

>  <SMILES>
C#C[C@]1(O)CC[C@H]2[C@@H]3CCC4=CC(=O)CC[C@@H]4[C@H]3CC[C@@]21C

>  <CID>
6230

>  <logBB>


>  <BBB+/BBB->
BBB-

>  <Inchi>
InChI=1S/C20H26O2/c1-3-20(22)11-9-18-17-6-4-13-12-14(21)5-7-15(13)16(17)8-10-19(18-20)2/h1-12-15-18-22H-4-11H2-2H3/t15--16+-17+-18--19--20-/m0/s1

>  <threshold>
-1

>  <reference>
R1|R27|R30|

>  <group>
B

>  <Class>
-1

>  <ABC>
17.79

>  <ABCGG>
14.23

>  <nAcid>
0

>  <nBase>
0

>  <nAromAtom>
0

>  <nAromBond>
0

>  <nAtom>
48

>  <nHeavyAtom>
22

>  <nSpiro>
0

>  <nBridgehead>
0

>  <nHetero>
2

>  <nN>
0

>  <nO>
2

>  <nF>
0

>  <BalabanJ>
1.58

>  <BertzCT>
583

>  <nBonds>
51

>  <nBondsO>
25

>  <nBondsS>
48

>  <nBondsD>
2

>  <nBondsT>
1

>  <nBondsA>
0

>  <nBondsM>
3

>  <nBondsKS>
48

>  <nBondsKD>
2

>  <RNCG>
0.27

>  <RPCG>
0.15

>  <FCSP3>
0.75

>  <SZ>
27

>  <Sm>
24.85

>  <Sv>
28.47

>  <Sse>
47.2

>  <Sp>
31.34

>  <Si>
53.82

>  <MZ>
0.56

>  <Mm>
0.52

>  <Mv>
0.59

>  <Mse>
0.98

>  <Mp>
0.65

>  <Mi>
1.12

>  <NsCH3>
1

>  <NdCH2>
0

>  <NssCH2>
8

>  <NtCH>
1

>  <NdsCH>
1

>  <NaaCH>
0

>  <NsssCH>
4

>  <NddC>
0

>  <NtsC>
1

>  <NdssC>
2

>  <NaasC>
0

>  <NaaaC>
0

>  <NssssC>
2

>  <NsNH3>
0

>  <NsNH2>
0

>  <NssNH2>
0

>  <NdNH>
0

>  <NssNH>
0

>  <NaaNH>
0

>  <NtN>
0

>  <NsssNH>
0

>  <NdsN>
0

>  <NaaN>
0

>  <NsssN>
0

>  <NddsN>
0

>  <NaasN>
0

>  <NssssN>
0

>  <NsOH>
1

>  <NdO>
1

>  <NssO>
0

>  <NaaO>
0

>  <NsF>
0

>  <NsSiH3>
0

>  <NssSiH2>
0

>  <NsssSiH>
0

>  <NssssSi>
0

>  <NsPH2>
0

>  <NssPH>
0

>  <NsssP>
0

>  <NdsssP>
0

>  <NsssssP>
0

>  <NsSH>
0

>  <NdS>
0

>  <NssS>
0

>  <NaaS>
0

>  <NdssS>
0

>  <NddssS>
0

>  <NsCl>
0

>  <NsBr>
0

>  <NsI>
0

>  <fragCpx>
163.02

>  <fMF>
0.35

>  <nHBAcc>
2

>  <nHBDon>
1

>  <Kier1>
15.52

>  <Kier2>
5.25

>  <Lipinski>
1

>  <GhoseFilter>
1

>  <FilterItLogS>
-3.18

>  <VMcGowan>
243.76

>  <LabuteASA>
132.92

>  <PEOE_VSA1>
5.11

>  <PEOE_VSA2>
4.79

>  <PEOE_VSA3>
0

>  <PEOE_VSA4>
0

>  <PEOE_VSA5>
6.42

>  <PEOE_VSA6>
18.42

>  <PEOE_VSA7>
74.69

>  <PEOE_VSA8>
11.84

>  <PEOE_VSA9>
0

>  <PEOE_VSA10>
5.6

>  <PEOE_VSA11>
5.78

>  <PEOE_VSA12>
0

>  <PEOE_VSA13>
0

>  <SMR_VSA1>
9.9

>  <SMR_VSA2>
0

>  <SMR_VSA3>
0

>  <SMR_VSA4>
29.09

>  <SMR_VSA5>
63.89

>  <SMR_VSA6>
0

>  <SMR_VSA7>
11.65

>  <SMR_VSA8>
0

>  <SMR_VSA9>
12.34

>  <SlogP_VSA1>
0

>  <SlogP_VSA2>
16.49

>  <SlogP_VSA3>
4.79

>  <SlogP_VSA4>
41.43

>  <SlogP_VSA5>
58.29

>  <SlogP_VSA6>
11.65

>  <SlogP_VSA7>
0

>  <SlogP_VSA8>
0

>  <SlogP_VSA9>
0

>  <SlogP_VSA10>
0

>  <SlogP_VSA11>
0

>  <EState_VSA1>
5.6

>  <EState_VSA2>
5.41

>  <EState_VSA3>
29.45

>  <EState_VSA4>
44.95

>  <EState_VSA5>
11.99

>  <EState_VSA6>
0

>  <EState_VSA7>
6.08

>  <EState_VSA8>
12.84

>  <EState_VSA9>
6.42

>  <EState_VSA10>
9.9

>  <VSA_EState1>
0

>  <VSA_EState2>
11.7

>  <VSA_EState3>
10.92

>  <VSA_EState4>
0.42

>  <VSA_EState5>
5.66

>  <VSA_EState6>
0

>  <VSA_EState7>
15.74

>  <VSA_EState8>
2.23

>  <VSA_EState9>
0

>  <apol>
52.34

>  <bpol>
26.95

>  <nRing>
4

>  <nHRing>
0

>  <naRing>
0

>  <naHRing>
0

>  <nARing 2>
4

>  <nAHRing 2>
0

>  <nFRing>
1

>  <nFHRing>
0

>  <nFaRing>
0

>  <nFaHRing>
0

>  <nFARing 2>
1

>  <nFAHRing 2>
0

>  <nRot>
0

>  <SLogP>
3.49

>  <SMR>
85.88

>  <TopoPSA(NO)>
37.3

>  <TopoPSA>
37.3

>  <JGI1>
0.24

>  <JGI2>
0.13

>  <JGI3>
0.06

>  <JGI4>
0.05

>  <JGI5>
0.03

>  <Diameter>
11

>  <Radius>
6

>  <TMWC10>
124.97

>  <TSRW10>
72.15

>  <MW>
298.19

>  <AMW>
6.21

>  <WPath>
941

>  <WPol>
46

>  <Zagreb1>
130

>  <Zagreb2>
165

>  <mZagreb2>
4.63

>  <yes>


>  <nAR-cont>
0.199399

>  <nHA-cont>
0.983774276

>  <MWHBN>
0.173729959

>  <MWHBN-cont>
0.979454418

>  <TPSA-cont>
0.739622838

>  <pka_cont>
0.97

>  <yes.1>


>  <BBB_SCORE>
4.616600579

>  <MMFF94 Energy>
64.462

$$$$
Compound 773
Actelion Java MolfileCreator 2.0

  0  0  0  0  0  0              0 V3000
M  V30 BEGIN CTAB
M  V30 COUNTS 46 49 0 0 0
M  V30 BEGIN ATOM
M  V30 1 O 4.3445 -2.6533 -4.0222 0
M  V30 2 C 3.5734 -2.0 -3.1075 0
M  V30 3 C 2.5107 -2.69 -2.5423 0
M  V30 4 C 3.8358 -0.6892 -2.7414 0
M  V30 5 C 1.6832 -2.0699 -1.5899 0
M  V30 6 C 3.014 -0.06 -1.8018 0
M  V30 7 C 1.9143 -0.7244 -1.2273 0
M  V30 8 C 0.5344 -2.8729 -1.0297 0
M  V30 9 C 1.0464 -0.0478 -0.1677 0 CFG=2
M  V30 10 C -0.1243 -2.2428 0.1936 0
M  V30 11 C -0.3414 -0.7464 -0.0449 0 CFG=1
M  V30 12 C 0.8898 1.4873 -0.3308 0
M  V30 13 C -1.1339 -0.0831 1.0842 0 CFG=1
M  V30 14 C -0.0245 2.1271 0.7326 0
M  V30 15 C -1.3886 1.4198 0.8274 0 CFG=2
M  V30 16 C -2.5191 -0.6272 1.4268 0
M  V30 17 C -2.2904 1.7665 2.0537 0 CFG=2
M  V30 18 C -2.1695 1.7015 -0.4907 0
M  V30 19 C -3.234 0.5349 2.1484 0
M  V30 20 O -3.025 2.9669 1.8648 0
M  V30 21 C -1.5408 1.9157 3.3201 0
M  V30 22 C -0.9448 2.043 4.3558 0
M  V30 23 H 5.0411 -2.0483 -4.3247 0
M  V30 24 H 2.3273 -3.7184 -2.8437 0
M  V30 25 H 4.6704 -0.141 -3.1662 0
M  V30 26 H 3.2591 0.9609 -1.5232 0
M  V30 27 H -0.2166 -2.9827 -1.8226 0
M  V30 28 H 0.8798 -3.8789 -0.7623 0
M  V30 29 H 1.5825 -0.2046 0.7811 0
M  V30 30 H -1.0723 -2.7566 0.3876 0
M  V30 31 H 0.5076 -2.3947 1.0783 0
M  V30 32 H -0.8912 -0.6424 -0.989 0
M  V30 33 H 1.8666 1.9777 -0.2459 0
M  V30 34 H 0.5216 1.7207 -1.3367 0
M  V30 35 H -0.5254 -0.1925 1.996 0
M  V30 36 H 0.507 2.0762 1.69 0
M  V30 37 H -0.1579 3.1928 0.5107 0
M  V30 38 H -3.0733 -0.9114 0.5252 0
M  V30 39 H -2.4591 -1.5119 2.0691 0
M  V30 40 H -2.3101 2.7798 -0.6311 0
M  V30 41 H -3.1629 1.2423 -0.4965 0
M  V30 42 H -1.6519 1.3372 -1.3813 0
M  V30 43 H -4.202 0.7239 1.6689 0
M  V30 44 H -3.4543 0.261 3.1874 0
M  V30 45 H -3.7549 2.7894 1.2513 0
M  V30 46 H -0.42 2.1666 5.2746 0
M  V30 END ATOM
M  V30 BEGIN BOND
M  V30 1 1 1 2
M  V30 2 2 2 3
M  V30 3 1 2 4
M  V30 4 1 3 5
M  V30 5 2 4 6
M  V30 6 2 5 7
M  V30 7 1 5 8
M  V30 8 1 7 9
M  V30 9 1 8 10
M  V30 10 1 9 11
M  V30 11 1 9 12
M  V30 12 1 11 13
M  V30 13 1 12 14
M  V30 14 1 13 15
M  V30 15 1 13 16
M  V30 16 1 15 17
M  V30 17 1 15 18
M  V30 18 1 16 19
M  V30 19 1 17 20
M  V30 20 1 17 21
M  V30 21 3 21 22
M  V30 22 1 6 7
M  V30 23 1 10 11
M  V30 24 1 14 15
M  V30 25 1 17 19
M  V30 26 1 1 23
M  V30 27 1 3 24
M  V30 28 1 4 25
M  V30 29 1 6 26
M  V30 30 1 8 27
M  V30 31 1 8 28
M  V30 32 1 9 29
M  V30 33 1 10 30
M  V30 34 1 10 31
M  V30 35 1 11 32
M  V30 36 1 12 33
M  V30 37 1 12 34
M  V30 38 1 13 35
M  V30 39 1 14 36
M  V30 40 1 14 37
M  V30 41 1 16 38
M  V30 42 1 16 39
M  V30 43 1 18 40
M  V30 44 1 18 41
M  V30 45 1 18 42
M  V30 46 1 19 43
M  V30 47 1 19 44
M  V30 48 1 20 45
M  V30 49 1 22 46
M  V30 END BOND
M  V30 BEGIN COLLECTION
M  V30 MDLV30/STEABS ATOMS=(5 9 11 13 15 17)
M  V30 END COLLECTION
M  V30 END CTAB
M  END
>  <Column 1>
926

>  <level_0>
1059

>  <index>
1059

>  <Unnamed: 0>
1059

>  <NO.>
1071

>  <Name>
ethinyl estradiol

>  <IUPAC_name>
(8r-9s-13s-14s-17r)-17-ethynyl-13-methyl-7-8-9-11-12-14-15-16-octahydro-6h-cyclopenta[a]phenanthrene-3-17-diol

>  <SMILES>
C#C[C@]1(O)CC[C@H]2[C@@H]3CCc4cc(O)ccc4[C@H]3CC[C@@]21C

>  <CID>
5991

>  <logBB>


>  <BBB+/BBB->
BBB-

>  <Inchi>
InChI=1S/C20H24O2/c1-3-20(22)11-9-18-17-6-4-13-12-14(21)5-7-15(13)16(17)8-10-19(18-20)2/h1-5-7-12-16-18-21-22H-4-6-8-11H2-2H3/t16--17--18+-19+-20+/m1/s1

>  <threshold>
-1

>  <reference>
R1|R7|R27|R29|R30|

>  <group>
B

>  <Class>
-1

>  <ABC>
17.79

>  <ABCGG>
14.23

>  <nAcid>
0

>  <nBase>
0

>  <nAromAtom>
6

>  <nAromBond>
6

>  <nAtom>
46

>  <nHeavyAtom>
22

>  <nSpiro>
0

>  <nBridgehead>
0

>  <nHetero>
2

>  <nN>
0

>  <nO>
2

>  <nF>
0

>  <BalabanJ>
1.58

>  <BertzCT>
658.16

>  <nBonds>
49

>  <nBondsO>
25

>  <nBondsS>
42

>  <nBondsD>
0

>  <nBondsT>
1

>  <nBondsA>
6

>  <nBondsM>
7

>  <nBondsKS>
45

>  <nBondsKD>
3

>  <RNCG>
0.32

>  <RPCG>
0.18

>  <FCSP3>
0.6

>  <SZ>
26.67

>  <Sm>
24.68

>  <Sv>
27.93

>  <Sse>
45.32

>  <Sp>
30.54

>  <Si>
51.4

>  <MZ>
0.58

>  <Mm>
0.54

>  <Mv>
0.61

>  <Mse>
0.99

>  <Mp>
0.66

>  <Mi>
1.12

>  <NsCH3>
1

>  <NdCH2>
0

>  <NssCH2>
6

>  <NtCH>
1

>  <NdsCH>
0

>  <NaaCH>
3

>  <NsssCH>
3

>  <NddC>
0

>  <NtsC>
1

>  <NdssC>
0

>  <NaasC>
3

>  <NaaaC>
0

>  <NssssC>
2

>  <NsNH3>
0

>  <NsNH2>
0

>  <NssNH2>
0

>  <NdNH>
0

>  <NssNH>
0

>  <NaaNH>
0

>  <NtN>
0

>  <NsssNH>
0

>  <NdsN>
0

>  <NaaN>
0

>  <NsssN>
0

>  <NddsN>
0

>  <NaasN>
0

>  <NssssN>
0

>  <NsOH>
2

>  <NdO>
0

>  <NssO>
0

>  <NaaO>
0

>  <NsF>
0

>  <NsSiH3>
0

>  <NssSiH2>
0

>  <NsssSiH>
0

>  <NssssSi>
0

>  <NsPH2>
0

>  <NssPH>
0

>  <NsssP>
0

>  <NdsssP>
0

>  <NsssssP>
0

>  <NsSH>
0

>  <NdS>
0

>  <NssS>
0

>  <NaaS>
0

>  <NdssS>
0

>  <NddssS>
0

>  <NsCl>
0

>  <NsBr>
0

>  <NsI>
0

>  <fragCpx>
163.02

>  <fMF>
0.37

>  <nHBAcc>
2

>  <nHBDon>
2

>  <Kier1>
15.52

>  <Kier2>
5.25

>  <Lipinski>
1

>  <GhoseFilter>
1

>  <FilterItLogS>
-3.59

>  <VMcGowan>
239.46

>  <LabuteASA>
132.11

>  <PEOE_VSA1>
10.21

>  <PEOE_VSA2>
0

>  <PEOE_VSA3>
0

>  <PEOE_VSA4>
0

>  <PEOE_VSA5>
6.42

>  <PEOE_VSA6>
18.91

>  <PEOE_VSA7>
79.54

>  <PEOE_VSA8>
5.41

>  <PEOE_VSA9>
0

>  <PEOE_VSA10>
11.35

>  <PEOE_VSA11>
0

>  <PEOE_VSA12>
0

>  <PEOE_VSA13>
0

>  <SMR_VSA1>
10.21

>  <SMR_VSA2>
0

>  <SMR_VSA3>
0

>  <SMR_VSA4>
17.25

>  <SMR_VSA5>
56.97

>  <SMR_VSA6>
0

>  <SMR_VSA7>
29.33

>  <SMR_VSA8>
0

>  <SMR_VSA9>
18.09

>  <SlogP_VSA1>
0

>  <SlogP_VSA2>
15.81

>  <SlogP_VSA3>
6.42

>  <SlogP_VSA4>
29.59

>  <SlogP_VSA5>
56.07

>  <SlogP_VSA6>
18.2

>  <SlogP_VSA7>
0

>  <SlogP_VSA8>
0

>  <SlogP_VSA9>
0

>  <SlogP_VSA10>
0

>  <SlogP_VSA11>
5.75

>  <EState_VSA1>
5.6

>  <EState_VSA2>
5.41

>  <EState_VSA3>
23.5

>  <EState_VSA4>
38.52

>  <EState_VSA5>
11.13

>  <EState_VSA6>
0

>  <EState_VSA7>
12.13

>  <EState_VSA8>
18.91

>  <EState_VSA9>
6.42

>  <EState_VSA10>
10.21

>  <VSA_EState1>
0

>  <VSA_EState2>
0

>  <VSA_EState3>
20.63

>  <VSA_EState4>
1.69

>  <VSA_EState5>
4.82

>  <VSA_EState6>
5.87

>  <VSA_EState7>
11.77

>  <VSA_EState8>
2.22

>  <VSA_EState9>
0

>  <apol>
51.01

>  <bpol>
24.08

>  <nRing>
4

>  <nHRing>
0

>  <naRing>
1

>  <naHRing>
0

>  <nARing 2>
3

>  <nAHRing 2>
0

>  <nFRing>
1

>  <nFHRing>
0

>  <nFaRing>
0

>  <nFaHRing>
0

>  <nFARing 2>
1

>  <nFAHRing 2>
0

>  <nRot>
0

>  <SLogP>
3.61

>  <SMR>
86.51

>  <TopoPSA(NO)>
40.46

>  <TopoPSA>
40.46

>  <JGI1>
0.24

>  <JGI2>
0.13

>  <JGI3>
0.06

>  <JGI4>
0.05

>  <JGI5>
0.03

>  <Diameter>
11

>  <Radius>
6

>  <TMWC10>
124.97

>  <TSRW10>
72.15

>  <MW>
296.18

>  <AMW>
6.44

>  <WPath>
941

>  <WPol>
46

>  <Zagreb1>
130

>  <Zagreb2>
165

>  <mZagreb2>
4.63

>  <yes>


>  <nAR-cont>
0.691115

>  <nHA-cont>
0.983774276

>  <MWHBN>
0.232424619

>  <MWHBN-cont>
0.984232605

>  <TPSA-cont>
0.717564076

>  <pka_cont>
0.97

>  <yes.1>


>  <BBB_SCORE>
5.071366335

>  <MMFF94 Energy>
63.998

$$$$
Compound 774
Actelion Java MolfileCreator 2.0

  0  0  0  0  0  0              0 V3000
M  V30 BEGIN CTAB
M  V30 COUNTS 49 52 0 0 0
M  V30 BEGIN ATOM
M  V30 1 O 3.6136 -4.9008 0.0 0
M  V30 2 C 2.8285 -3.7863 0.1038 0
M  V30 3 C 2.9501 -6.1334 -0.2482 0
M  V30 4 C 1.4402 -3.7432 0.0 0
M  V30 5 C 3.5213 -2.6031 0.3409 0
M  V30 6 C 0.7394 -2.526 0.1309 0
M  V30 7 C 2.8409 -1.3883 0.4638 0
M  V30 8 C 1.4443 -1.3214 0.3389 0
M  V30 9 C -0.7639 -2.5642 -0.0138 0
M  V30 10 C 0.6958 -0.0026 0.5178 0 CFG=2
M  V30 11 C -1.4644 -1.2834 0.4298 0
M  V30 12 C -0.7219 -0.0658 -0.1255 0 CFG=1
M  V30 13 C 1.4681 1.2589 0.0492 0
M  V30 14 C -1.4558 1.247 0.1585 0 CFG=1
M  V30 15 C 0.6649 2.5645 0.2123 0
M  V30 16 C -0.7281 2.4737 -0.4361 0 CFG=2
M  V30 17 C -2.8905 1.4072 -0.3384 0
M  V30 18 C -1.7514 3.6003 -0.0965 0 CFG=2
M  V30 19 C -0.5387 2.4003 -1.9808 0
M  V30 20 C -3.1169 2.932 -0.4023 0
M  V30 21 O -1.5828 4.7421 -0.9243 0
M  V30 22 C -1.709 4.051 1.3117 0
M  V30 23 C -1.6819 4.4306 2.4515 0
M  V30 24 H 2.2729 -6.3898 0.5732 0
M  V30 25 H 3.7118 -6.9168 -0.3079 0
M  V30 26 H 2.4202 -6.111 -1.2062 0
M  V30 27 H 0.8667 -4.6468 -0.1818 0
M  V30 28 H 4.6041 -2.6236 0.4356 0
M  V30 29 H 3.4328 -0.5007 0.6667 0
M  V30 30 H -1.1711 -3.4032 0.5635 0
M  V30 31 H -0.9944 -2.7495 -1.0708 0
M  V30 32 H 0.5626 0.1031 1.6058 0
M  V30 33 H -1.4976 -1.236 1.5261 0
M  V30 34 H -2.5025 -1.3099 0.0807 0
M  V30 35 H -0.6284 -0.2064 -1.2099 0
M  V30 36 H 1.7852 1.1371 -0.9931 0
M  V30 37 H 2.3885 1.3771 0.6328 0
M  V30 38 H -1.4952 1.3515 1.2547 0
M  V30 39 H 1.2332 3.4017 -0.2107 0
M  V30 40 H 0.5804 2.7616 1.2875 0
M  V30 41 H -3.0244 0.962 -1.3307 0
M  V30 42 H -3.6087 0.9301 0.3364 0
M  V30 43 H -1.4905 2.3533 -2.5191 0
M  V30 44 H -0.0056 3.2864 -2.3452 0
M  V30 45 H 0.0444 1.5328 -2.2992 0
M  V30 46 H -3.4855 3.209 -1.3976 0
M  V30 47 H -3.895 3.2322 0.3101 0
M  V30 48 H -0.7652 5.1809 -0.6339 0
M  V30 49 H -1.6636 4.7701 3.4616 0
M  V30 END ATOM
M  V30 BEGIN BOND
M  V30 1 1 1 2
M  V30 2 1 1 3
M  V30 3 2 2 4
M  V30 4 1 2 5
M  V30 5 1 4 6
M  V30 6 2 5 7
M  V30 7 2 6 8
M  V30 8 1 6 9
M  V30 9 1 8 10
M  V30 10 1 9 11
M  V30 11 1 10 12
M  V30 12 1 10 13
M  V30 13 1 12 14
M  V30 14 1 13 15
M  V30 15 1 14 16
M  V30 16 1 14 17
M  V30 17 1 16 18
M  V30 18 1 16 19
M  V30 19 1 17 20
M  V30 20 1 18 21
M  V30 21 1 18 22
M  V30 22 3 22 23
M  V30 23 1 7 8
M  V30 24 1 11 12
M  V30 25 1 15 16
M  V30 26 1 18 20
M  V30 27 1 3 24
M  V30 28 1 3 25
M  V30 29 1 3 26
M  V30 30 1 4 27
M  V30 31 1 5 28
M  V30 32 1 7 29
M  V30 33 1 9 30
M  V30 34 1 9 31
M  V30 35 1 10 32
M  V30 36 1 11 33
M  V30 37 1 11 34
M  V30 38 1 12 35
M  V30 39 1 13 36
M  V30 40 1 13 37
M  V30 41 1 14 38
M  V30 42 1 15 39
M  V30 43 1 15 40
M  V30 44 1 17 41
M  V30 45 1 17 42
M  V30 46 1 19 43
M  V30 47 1 19 44
M  V30 48 1 19 45
M  V30 49 1 20 46
M  V30 50 1 20 47
M  V30 51 1 21 48
M  V30 52 1 23 49
M  V30 END BOND
M  V30 BEGIN COLLECTION
M  V30 MDLV30/STEABS ATOMS=(5 10 12 14 16 18)
M  V30 END COLLECTION
M  V30 END CTAB
M  END
>  <Column 1>
927

>  <level_0>
1060

>  <index>
1060

>  <Unnamed: 0>
1060

>  <NO.>
1072

>  <Name>
mestranol

>  <IUPAC_name>
(8r-9s-13s-14s-17r)-17-ethynyl-3-methoxy-13-methyl-7-8-9-11-12-14-15-16-octahydro-6h-cyclopenta[a]phenanthren-17-ol

>  <SMILES>
C#C[C@]1(O)CC[C@H]2[C@@H]3CCc4cc(OC)ccc4[C@H]3CC[C@@]21C

>  <CID>
6291

>  <logBB>


>  <BBB+/BBB->
BBB-

>  <Inchi>
InChI=1S/C21H26O2/c1-4-21(22)12-10-19-18-7-5-14-13-15(23-3)6-8-16(14)17(18)9-11-20(19-21)2/h1-6-8-13-17-19-22H-5-7-9-12H2-2-3H3/t17--18--19+-20+-21+/m1/s1

>  <threshold>
-1

>  <reference>
R1|R27|R30|

>  <group>
B

>  <Class>
1

>  <ABC>
18.38

>  <ABCGG>
14.61

>  <nAcid>
0

>  <nBase>
0

>  <nAromAtom>
6

>  <nAromBond>
6

>  <nAtom>
49

>  <nHeavyAtom>
23

>  <nSpiro>
0

>  <nBridgehead>
0

>  <nHetero>
2

>  <nN>
0

>  <nO>
2

>  <nF>
0

>  <BalabanJ>
1.54

>  <BertzCT>
672.91

>  <nBonds>
52

>  <nBondsO>
26

>  <nBondsS>
45

>  <nBondsD>
0

>  <nBondsT>
1

>  <nBondsA>
6

>  <nBondsM>
7

>  <nBondsKS>
48

>  <nBondsKD>
3

>  <RNCG>
0.31

>  <RPCG>
0.13

>  <FCSP3>
0.62

>  <SZ>
28

>  <Sm>
25.85

>  <Sv>
29.47

>  <Sse>
48.2

>  <Sp>
32.34

>  <Si>
54.82

>  <MZ>
0.57

>  <Mm>
0.53

>  <Mv>
0.6

>  <Mse>
0.98

>  <Mp>
0.66

>  <Mi>
1.12

>  <NsCH3>
2

>  <NdCH2>
0

>  <NssCH2>
6

>  <NtCH>
1

>  <NdsCH>
0

>  <NaaCH>
3

>  <NsssCH>
3

>  <NddC>
0

>  <NtsC>
1

>  <NdssC>
0

>  <NaasC>
3

>  <NaaaC>
0

>  <NssssC>
2

>  <NsNH3>
0

>  <NsNH2>
0

>  <NssNH2>
0

>  <NdNH>
0

>  <NssNH>
0

>  <NaaNH>
0

>  <NtN>
0

>  <NsssNH>
0

>  <NdsN>
0

>  <NaaN>
0

>  <NsssN>
0

>  <NddsN>
0

>  <NaasN>
0

>  <NssssN>
0

>  <NsOH>
1

>  <NdO>
0

>  <NssO>
1

>  <NaaO>
0

>  <NsF>
0

>  <NsSiH3>
0

>  <NssSiH2>
0

>  <NsssSiH>
0

>  <NssssSi>
0

>  <NsPH2>
0

>  <NssPH>
0

>  <NsssP>
0

>  <NdsssP>
0

>  <NsssssP>
0

>  <NsSH>
0

>  <NdS>
0

>  <NssS>
0

>  <NaaS>
0

>  <NdssS>
0

>  <NddssS>
0

>  <NsCl>
0

>  <NsBr>
0

>  <NsI>
0

>  <fragCpx>
170.02

>  <fMF>
0.35

>  <nHBAcc>
2

>  <nHBDon>
1

>  <Kier1>
16.47

>  <Kier2>
5.77

>  <Lipinski>
1

>  <GhoseFilter>
1

>  <FilterItLogS>
-4.28

>  <VMcGowan>
253.55

>  <LabuteASA>
138.8

>  <PEOE_VSA1>
9.84

>  <PEOE_VSA2>
0

>  <PEOE_VSA3>
0

>  <PEOE_VSA4>
0

>  <PEOE_VSA5>
6.42

>  <PEOE_VSA6>
18.91

>  <PEOE_VSA7>
79.54

>  <PEOE_VSA8>
5.41

>  <PEOE_VSA9>
7.11

>  <PEOE_VSA10>
11.35

>  <PEOE_VSA11>
0

>  <PEOE_VSA12>
0

>  <PEOE_VSA13>
0

>  <SMR_VSA1>
9.84

>  <SMR_VSA2>
0

>  <SMR_VSA3>
0

>  <SMR_VSA4>
17.25

>  <SMR_VSA5>
56.97

>  <SMR_VSA6>
7.11

>  <SMR_VSA7>
29.33

>  <SMR_VSA8>
0

>  <SMR_VSA9>
18.09

>  <SlogP_VSA1>
4.74

>  <SlogP_VSA2>
17.82

>  <SlogP_VSA3>
6.42

>  <SlogP_VSA4>
29.59

>  <SlogP_VSA5>
56.07

>  <SlogP_VSA6>
18.2

>  <SlogP_VSA7>
0

>  <SlogP_VSA8>
0

>  <SlogP_VSA9>
0

>  <SlogP_VSA10>
0

>  <SlogP_VSA11>
5.75

>  <EState_VSA1>
5.6

>  <EState_VSA2>
5.41

>  <EState_VSA3>
17.75

>  <EState_VSA4>
37.85

>  <EState_VSA5>
17.55

>  <EState_VSA6>
7.11

>  <EState_VSA7>
0

>  <EState_VSA8>
31.04

>  <EState_VSA9>
11.16

>  <EState_VSA10>
5.11

>  <VSA_EState1>
5.39

>  <VSA_EState2>
0

>  <VSA_EState3>
10.96

>  <VSA_EState4>
1.97

>  <VSA_EState5>
5.56

>  <VSA_EState6>
6.59

>  <VSA_EState7>
12.07

>  <VSA_EState8>
2.24

>  <VSA_EState9>
1.73

>  <apol>
54.01

>  <bpol>
27.82

>  <nRing>
4

>  <nHRing>
0

>  <naRing>
1

>  <naHRing>
0

>  <nARing 2>
3

>  <nAHRing 2>
0

>  <nFRing>
1

>  <nFHRing>
0

>  <nFaRing>
0

>  <nFaHRing>
0

>  <nFARing 2>
1

>  <nFAHRing 2>
0

>  <nRot>
1

>  <SLogP>
3.92

>  <SMR>
91.39

>  <TopoPSA(NO)>
29.46

>  <TopoPSA>
29.46

>  <JGI1>
0.23

>  <JGI2>
0.12

>  <JGI3>
0.06

>  <JGI4>
0.05

>  <JGI5>
0.03

>  <Diameter>
12

>  <Radius>
6

>  <TMWC10>
127.18

>  <TSRW10>
73.28

>  <MW>
310.19

>  <AMW>
6.33

>  <WPath>
1092

>  <WPol>
48

>  <Zagreb1>
134

>  <Zagreb2>
170

>  <mZagreb2>
4.97

>  <yes>


>  <nAR-cont>
0.691115

>  <nHA-cont>
0.967789328

>  <MWHBN>
0.170336358

>  <MWHBN-cont>
0.974488191

>  <TPSA-cont>
0.794350906

>  <pka_cont>
0.97

>  <yes.1>


>  <BBB_SCORE>
5.194338427

>  <MMFF94 Energy>
75.954

$$$$
Compound 775
Actelion Java MolfileCreator 2.0

  0  0  0  0  0  0              0 V3000
M  V30 BEGIN CTAB
M  V30 COUNTS 52 53 0 0 0
M  V30 BEGIN ATOM
M  V30 1 S 0.5628 -2.9777 -1.8502 0
M  V30 2 S -0.7384 -2.8138 -0.2613 0
M  V30 3 C 1.206 -1.3348 -1.8416 0
M  V30 4 C 0.2979 -3.2982 1.1669 0
M  V30 5 C 0.5145 -0.2989 -2.3926 0
M  V30 6 C 2.6186 -1.2123 -1.28 0
M  V30 7 C -0.386 -3.0915 2.5225 0 CFG=2
M  V30 8 N 0.8989 1.0432 -2.2251 0
M  V30 9 C -0.7544 -0.4797 -3.2161 0
M  V30 10 C 3.6669 -2.0214 -2.0495 0
M  V30 11 O -1.5584 -3.9169 2.6592 0
M  V30 12 C -0.8109 -1.6675 2.8578 0
M  V30 13 C 0.893 1.9401 -3.2948 0
M  V30 14 C 1.1405 1.5895 -0.879 0
M  V30 15 O 4.9556 -1.7286 -1.5139 0
M  V30 16 C -2.5795 -3.1451 3.3096 0
M  V30 17 C -1.9045 -1.9107 3.8691 0
M  V30 18 O 0.6961 1.6873 -4.4764 0
M  V30 19 C -0.0381 2.3365 -0.3233 0
M  V30 20 C -0.0203 3.674 0.0252 0
M  V30 21 C -1.2252 1.6787 -0.0537 0
M  V30 22 N -1.068 4.2879 0.5947 0
M  V30 23 N 1.0939 4.4746 -0.1238 0
M  V30 24 N -2.3037 2.2599 0.5 0
M  V30 25 C -2.1817 3.5617 0.7969 0
M  V30 26 C -3.3461 4.2405 1.4466 0
M  V30 27 H 1.2253 -2.7195 1.1499 0
M  V30 28 H 0.5392 -4.3593 1.0451 0
M  V30 29 H 2.9738 -0.177 -1.2926 0
M  V30 30 H 2.6326 -1.5006 -0.2222 0
M  V30 31 H 0.3099 -3.4366 3.2987 0
M  V30 32 H -1.3611 -1.3338 -2.9077 0
M  V30 33 H -0.5039 -0.6081 -4.2741 0
M  V30 34 H -1.4124 0.3918 -3.119 0
M  V30 35 H 3.5022 -3.0985 -1.9529 0
M  V30 36 H 3.6663 -1.7524 -3.1111 0
M  V30 37 H -1.2317 -1.1422 1.9947 0
M  V30 38 H 0.0129 -1.0642 3.2498 0
M  V30 39 H 1.1266 2.9697 -2.976 0
M  V30 40 H 1.3855 0.7979 -0.1634 0
M  V30 41 H 2.0251 2.2326 -0.9454 0
M  V30 42 H 5.5996 -2.2364 -2.0384 0
M  V30 43 H -3.0609 -3.7488 4.0838 0
M  V30 44 H -3.3285 -2.8798 2.5557 0
M  V30 45 H -2.5889 -1.0666 3.9884 0
M  V30 46 H -1.4622 -2.1361 4.8467 0
M  V30 47 H -1.3495 0.6205 -0.2697 0
M  V30 48 H 0.9317 5.4071 0.2442 0
M  V30 49 H 1.6272 4.4341 -0.9776 0
M  V30 50 H -3.365 5.3039 1.189 0
M  V30 51 H -4.2876 3.7915 1.1158 0
M  V30 52 H -3.2706 4.1419 2.5334 0
M  V30 END ATOM
M  V30 BEGIN BOND
M  V30 1 1 1 2
M  V30 2 1 1 3
M  V30 3 1 2 4
M  V30 4 2 3 5
M  V30 5 1 3 6
M  V30 6 1 4 7
M  V30 7 1 5 8
M  V30 8 1 5 9
M  V30 9 1 6 10
M  V30 10 1 7 11
M  V30 11 1 7 12
M  V30 12 1 8 13
M  V30 13 1 8 14
M  V30 14 1 10 15
M  V30 15 1 11 16
M  V30 16 1 12 17
M  V30 17 2 13 18
M  V30 18 1 14 19
M  V30 19 2 19 20
M  V30 20 1 19 21
M  V30 21 1 20 22
M  V30 22 1 20 23
M  V30 23 2 21 24
M  V30 24 2 22 25
M  V30 25 1 25 26
M  V30 26 1 16 17
M  V30 27 1 24 25
M  V30 28 1 4 27
M  V30 29 1 4 28
M  V30 30 1 6 29
M  V30 31 1 6 30
M  V30 32 1 7 31
M  V30 33 1 9 32
M  V30 34 1 9 33
M  V30 35 1 9 34
M  V30 36 1 10 35
M  V30 37 1 10 36
M  V30 38 1 12 37
M  V30 39 1 12 38
M  V30 40 1 13 39
M  V30 41 1 14 40
M  V30 42 1 14 41
M  V30 43 1 15 42
M  V30 44 1 16 43
M  V30 45 1 16 44
M  V30 46 1 17 45
M  V30 47 1 17 46
M  V30 48 1 21 47
M  V30 49 1 23 48
M  V30 50 1 23 49
M  V30 51 1 26 50
M  V30 52 1 26 51
M  V30 53 1 26 52
M  V30 END BOND
M  V30 BEGIN COLLECTION
M  V30 MDLV30/STERAC1 ATOMS=(1 7)
M  V30 END COLLECTION
M  V30 END CTAB
M  END
>  <Column 1>
928

>  <level_0>
1061

>  <index>
1061

>  <Unnamed: 0>
1061

>  <NO.>
1073

>  <Name>
fursultiamine

>  <IUPAC_name>
n-[(4-amino-2-methylpyrimidin-5-yl)methyl]-n-[(e)-5-hydroxy-3-(oxolan-2-ylmethyldisulfanyl)pent-2-en-2-yl]formamide

>  <SMILES>
C/C(=C(/CCO)SSCC1CCCO1)N(C=O)Cc1cnc(C)nc1N

>  <CID>
3002119

>  <logBB>


>  <BBB+/BBB->
BBB+

>  <Inchi>
InChI=1S/C17H26N4O3S2/c1-12(16(5-6-22)26-25-10-15-4-3-7-24-15)21(11-23)9-14-8-19-13(2)20-17(14)18/h8-11-15-22H-3-7-9-10H2-1-2H3-(H2-18-19-20)/b16-12+

>  <threshold>
-1

>  <reference>
R1|R6|R27|R30|

>  <group>
B

>  <Class>
1

>  <ABC>
19.3

>  <ABCGG>
16.8

>  <nAcid>
0

>  <nBase>
0

>  <nAromAtom>
6

>  <nAromBond>
6

>  <nAtom>
52

>  <nHeavyAtom>
26

>  <nSpiro>
0

>  <nBridgehead>
0

>  <nHetero>
9

>  <nN>
4

>  <nO>
3

>  <nF>
0

>  <BalabanJ>
1.83

>  <BertzCT>
636.43

>  <nBonds>
53

>  <nBondsO>
27

>  <nBondsS>
45

>  <nBondsD>
2

>  <nBondsT>
0

>  <nBondsA>
6

>  <nBondsM>
8

>  <nBondsKS>
48

>  <nBondsKD>
5

>  <RNCG>
0.16

>  <RPCG>
0.09

>  <FCSP3>
0.59

>  <SZ>
35.33

>  <Sm>
33.18

>  <Sv>
31.59

>  <Sse>
52.34

>  <Sp>
34.93

>  <Si>
59.03

>  <MZ>
0.68

>  <Mm>
0.64

>  <Mv>
0.61

>  <Mse>
1.01

>  <Mp>
0.67

>  <Mi>
1.14

>  <NsCH3>
2

>  <NdCH2>
0

>  <NssCH2>
7

>  <NtCH>
0

>  <NdsCH>
1

>  <NaaCH>
1

>  <NsssCH>
1

>  <NddC>
0

>  <NtsC>
0

>  <NdssC>
2

>  <NaasC>
3

>  <NaaaC>
0

>  <NssssC>
0

>  <NsNH3>
0

>  <NsNH2>
1

>  <NssNH2>
0

>  <NdNH>
0

>  <NssNH>
0

>  <NaaNH>
0

>  <NtN>
0

>  <NsssNH>
0

>  <NdsN>
0

>  <NaaN>
2

>  <NsssN>
1

>  <NddsN>
0

>  <NaasN>
0

>  <NssssN>
0

>  <NsOH>
1

>  <NdO>
1

>  <NssO>
1

>  <NaaO>
0

>  <NsF>
0

>  <NsSiH3>
0

>  <NssSiH2>
0

>  <NsssSiH>
0

>  <NssssSi>
0

>  <NsPH2>
0

>  <NssPH>
0

>  <NsssP>
0

>  <NdsssP>
0

>  <NsssssP>
0

>  <NsSH>
0

>  <NdS>
0

>  <NssS>
2

>  <NaaS>
0

>  <NdssS>
0

>  <NddssS>
0

>  <NsCl>
0

>  <NsBr>
0

>  <NsI>
0

>  <fragCpx>
79.09

>  <fMF>
0.35

>  <nHBAcc>
8

>  <nHBDon>
2

>  <Kier1>
22.29

>  <Kier2>
11.76

>  <Lipinski>
1

>  <GhoseFilter>
1

>  <FilterItLogS>
-3.1

>  <VMcGowan>
297.4

>  <LabuteASA>
161.73

>  <PEOE_VSA1>
20.48

>  <PEOE_VSA2>
4.79

>  <PEOE_VSA3>
9.97

>  <PEOE_VSA4>
0

>  <PEOE_VSA5>
0

>  <PEOE_VSA6>
21.59

>  <PEOE_VSA7>
26.69

>  <PEOE_VSA8>
47.75

>  <PEOE_VSA9>
12.65

>  <PEOE_VSA10>
11.64

>  <PEOE_VSA11>
0

>  <PEOE_VSA12>
6.41

>  <PEOE_VSA13>
0

>  <SMR_VSA1>
14.64

>  <SMR_VSA2>
0

>  <SMR_VSA3>
14.87

>  <SMR_VSA4>
0

>  <SMR_VSA5>
45.76

>  <SMR_VSA6>
24.7

>  <SMR_VSA7>
28.19

>  <SMR_VSA8>
0

>  <SMR_VSA9>
0

>  <SlogP_VSA1>
5.73

>  <SlogP_VSA2>
51.46

>  <SlogP_VSA3>
16.08

>  <SlogP_VSA4>
6.92

>  <SlogP_VSA5>
37.57

>  <SlogP_VSA6>
16.8

>  <SlogP_VSA7>
0

>  <SlogP_VSA8>
0

>  <SlogP_VSA9>
0

>  <SlogP_VSA10>
5.82

>  <SlogP_VSA11>
0

>  <EState_VSA1>
0

>  <EState_VSA2>
6.61

>  <EState_VSA3>
36.28

>  <EState_VSA4>
42.21

>  <EState_VSA5>
0

>  <EState_VSA6>
39.61

>  <EState_VSA7>
6.92

>  <EState_VSA8>
9.97

>  <EState_VSA9>
10.47

>  <EState_VSA10>
9.9

>  <VSA_EState1>
5.63

>  <VSA_EState2>
22.47

>  <VSA_EState3>
9.39

>  <VSA_EState4>
7.44

>  <VSA_EState5>
1.87

>  <VSA_EState6>
0

>  <VSA_EState7>
5.43

>  <VSA_EState8>
4.82

>  <VSA_EState9>
3.29

>  <apol>
58.33

>  <bpol>
34.57

>  <nRing>
2

>  <nHRing>
2

>  <naRing>
1

>  <naHRing>
1

>  <nARing 2>
1

>  <nAHRing 2>
1

>  <nFRing>
0

>  <nFHRing>
0

>  <nFaRing>
0

>  <nFaHRing>
0

>  <nFARing 2>
0

>  <nFAHRing 2>
0

>  <nRot>
10

>  <SLogP>
2.5

>  <SMR>
106.21

>  <TopoPSA(NO)>
101.57

>  <TopoPSA>
152.17

>  <JGI1>
0.19

>  <JGI2>
0.08

>  <JGI3>
0.05

>  <JGI4>
0.04

>  <JGI5>
0.02

>  <Diameter>
14

>  <Radius>
7

>  <TMWC10>
126.35

>  <TSRW10>
73.19

>  <MW>
398.14

>  <AMW>
7.66

>  <WPath>
1847

>  <WPol>
35

>  <Zagreb1>
124

>  <Zagreb2>
140

>  <mZagreb2>
6.08

>  <yes>


>  <nAR-cont>
0.816016

>  <nHA-cont>
0.892715677

>  <MWHBN>
0.50116657

>  <MWHBN-cont>
0

>  <TPSA-cont>
0

>  <pka_cont>
0.97

>  <yes.1>


>  <BBB_SCORE>
2.193731677

>  <MMFF94 Energy>
-3.1682

$$$$
Compound 776
Actelion Java MolfileCreator 2.0

  0  0  0  0  0  0              0 V3000
M  V30 BEGIN CTAB
M  V30 COUNTS 61 63 0 0 0
M  V30 BEGIN ATOM
M  V30 1 S -2.4046 -0.4004 0.3203 0
M  V30 2 C -2.7785 -2.0004 -0.3308 0
M  V30 3 C -0.6423 -0.3434 0.1771 0
M  V30 4 O -1.8921 -2.8264 -0.518 0
M  V30 5 C -4.2041 -2.3286 -0.6397 0
M  V30 6 C 0.1731 -0.2654 1.2671 0
M  V30 7 C -0.1443 -0.2225 -1.2572 0
M  V30 8 C -5.2771 -1.4561 -0.4041 0
M  V30 9 C -4.4707 -3.59 -1.1979 0
M  V30 10 N -0.268 -0.4354 2.5952 0
M  V30 11 C 1.6557 0.0353 1.1341 0
M  V30 12 C -0.0073 1.2287 -1.7174 0
M  V30 13 C -6.584 -1.8395 -0.7229 0
M  V30 14 C -5.7771 -3.9694 -1.515 0
M  V30 15 C -1.0955 -1.4881 2.9793 0
M  V30 16 C 0.1394 0.5149 3.6436 0
M  V30 17 O 0.5011 1.2257 -3.0602 0
M  V30 18 C -6.8327 -3.0932 -1.2775 0
M  V30 19 O -1.57 -1.6552 4.0979 0
M  V30 20 C 1.4309 0.1971 4.342 0
M  V30 21 C 0.6787 2.4621 -3.5899 0
M  V30 22 C 2.4561 1.1119 4.5102 0
M  V30 23 C 1.6655 -1.0424 4.908 0
M  V30 24 O 0.4457 3.5181 -3.0229 0
M  V30 25 C 1.205 2.3693 -4.9787 0
M  V30 26 N 3.6202 0.8028 5.1014 0
M  V30 27 N 2.3896 2.4079 4.0353 0
M  V30 28 N 2.8087 -1.3885 5.5295 0
M  V30 29 C 1.4498 3.5618 -5.6739 0
M  V30 30 C 1.4608 1.1422 -5.6064 0
M  V30 31 C 3.7513 -0.4384 5.5994 0
M  V30 32 C 1.9439 3.5277 -6.9793 0
M  V30 33 C 1.9553 1.1125 -6.9128 0
M  V30 34 C 5.0549 -0.7968 6.2395 0
M  V30 35 C 2.1961 2.3036 -7.597 0
M  V30 36 H 0.8049 -0.7544 -1.3917 0
M  V30 37 H -0.8149 -0.7457 -1.9521 0
M  V30 38 H -5.1328 -0.471 0.0304 0
M  V30 39 H -3.6589 -4.2902 -1.3895 0
M  V30 40 H 2.0379 -0.0421 0.1149 0
M  V30 41 H 2.2424 -0.6745 1.7268 0
M  V30 42 H 1.8727 1.053 1.4716 0
M  V30 43 H -0.9841 1.7272 -1.7027 0
M  V30 44 H 0.688 1.7756 -1.07 0
M  V30 45 H -7.4104 -1.1573 -0.535 0
M  V30 46 H -5.9684 -4.9495 -1.9454 0
M  V30 47 H -1.2642 -2.2247 2.178 0
M  V30 48 H 0.1572 1.5083 3.1808 0
M  V30 49 H -0.6464 0.5664 4.4084 0
M  V30 50 H -7.8504 -3.3881 -1.5224 0
M  V30 51 H 0.9194 -1.8321 4.8819 0
M  V30 52 H 3.2524 2.9124 4.2099 0
M  V30 53 H 1.5403 2.9325 4.1822 0
M  V30 54 H 1.2563 4.5229 -5.2006 0
M  V30 55 H 1.2806 0.2015 -5.0925 0
M  V30 56 H 2.1319 4.4562 -7.513 0
M  V30 57 H 2.1529 0.159 -7.3968 0
M  V30 58 H 4.9074 -1.5507 7.0189 0
M  V30 59 H 5.7376 -1.1979 5.485 0
M  V30 60 H 5.514 0.0842 6.6983 0
M  V30 61 H 2.5811 2.2778 -8.6137 0
M  V30 END ATOM
M  V30 BEGIN BOND
M  V30 1 1 1 2
M  V30 2 1 1 3
M  V30 3 2 2 4
M  V30 4 1 2 5
M  V30 5 2 3 6
M  V30 6 1 3 7
M  V30 7 2 5 8
M  V30 8 1 5 9
M  V30 9 1 6 10
M  V30 10 1 6 11
M  V30 11 1 7 12
M  V30 12 1 8 13
M  V30 13 2 9 14
M  V30 14 1 10 15
M  V30 15 1 10 16
M  V30 16 1 12 17
M  V30 17 2 13 18
M  V30 18 2 15 19
M  V30 19 1 16 20
M  V30 20 1 17 21
M  V30 21 2 20 22
M  V30 22 1 20 23
M  V30 23 2 21 24
M  V30 24 1 21 25
M  V30 25 1 22 26
M  V30 26 1 22 27
M  V30 27 2 23 28
M  V30 28 2 25 29
M  V30 29 1 25 30
M  V30 30 2 26 31
M  V30 31 1 29 32
M  V30 32 2 30 33
M  V30 33 1 31 34
M  V30 34 2 32 35
M  V30 35 1 14 18
M  V30 36 1 28 31
M  V30 37 1 33 35
M  V30 38 1 7 36
M  V30 39 1 7 37
M  V30 40 1 8 38
M  V30 41 1 9 39
M  V30 42 1 11 40
M  V30 43 1 11 41
M  V30 44 1 11 42
M  V30 45 1 12 43
M  V30 46 1 12 44
M  V30 47 1 13 45
M  V30 48 1 14 46
M  V30 49 1 15 47
M  V30 50 1 16 48
M  V30 51 1 16 49
M  V30 52 1 18 50
M  V30 53 1 23 51
M  V30 54 1 27 52
M  V30 55 1 27 53
M  V30 56 1 29 54
M  V30 57 1 30 55
M  V30 58 1 32 56
M  V30 59 1 33 57
M  V30 60 1 34 58
M  V30 61 1 34 59
M  V30 62 1 34 60
M  V30 63 1 35 61
M  V30 END BOND
M  V30 END CTAB
M  END
>  <Column 1>
930

>  <level_0>
1063

>  <index>
1063

>  <Unnamed: 0>
1063

>  <NO.>
1075

>  <Name>
bentiamine

>  <IUPAC_name>
[(z)-4-[(4-amino-2-methylpyrimidin-5-yl)methyl-formylamino]-3-benzoylsulfanylpent-3-enyl] benzoate

>  <SMILES>
C/C(=C(\CCOC(=O)c1ccccc1)SC(=O)c1ccccc1)N(C=O)Cc1cnc(C)nc1N

>  <CID>
3036235

>  <logBB>


>  <BBB+/BBB->
BBB+

>  <Inchi>
InChI=1S/C26H26N4O4S/c1-18(30(17-31)16-22-15-28-19(2)29-24(22)27)23(35-26(33)21-11-7-4-8-12-21)13-14-34-25(32)20-9-5-3-6-10-20/h3-12-15-17H-13-14-16H2-1-2H3-(H2-27-28-29)/b23-18-

>  <threshold>
-1

>  <reference>
R1|R13|R6|R27|R30|

>  <group>
B

>  <Class>
1

>  <ABC>
26.51

>  <ABCGG>
21.22

>  <nAcid>
0

>  <nBase>
0

>  <nAromAtom>
18

>  <nAromBond>
18

>  <nAtom>
61

>  <nHeavyAtom>
35

>  <nSpiro>
0

>  <nBridgehead>
0

>  <nHetero>
9

>  <nN>
4

>  <nO>
4

>  <nF>
0

>  <BalabanJ>
1.59

>  <BertzCT>
1216.54

>  <nBonds>
63

>  <nBondsO>
37

>  <nBondsS>
41

>  <nBondsD>
4

>  <nBondsT>
0

>  <nBondsA>
18

>  <nBondsM>
22

>  <nBondsKS>
50

>  <nBondsKD>
13

>  <RNCG>
0.15

>  <RPCG>
0.11

>  <FCSP3>
0.19

>  <SZ>
43

>  <Sm>
40.84

>  <Sv>
40.12

>  <Sse>
61.59

>  <Sp>
42.67

>  <Si>
68.32

>  <MZ>
0.7

>  <Mm>
0.67

>  <Mv>
0.66

>  <Mse>
1.01

>  <Mp>
0.7

>  <Mi>
1.12

>  <NsCH3>
2

>  <NdCH2>
0

>  <NssCH2>
3

>  <NtCH>
0

>  <NdsCH>
1

>  <NaaCH>
11

>  <NsssCH>
0

>  <NddC>
0

>  <NtsC>
0

>  <NdssC>
4

>  <NaasC>
5

>  <NaaaC>
0

>  <NssssC>
0

>  <NsNH3>
0

>  <NsNH2>
1

>  <NssNH2>
0

>  <NdNH>
0

>  <NssNH>
0

>  <NaaNH>
0

>  <NtN>
0

>  <NsssNH>
0

>  <NdsN>
0

>  <NaaN>
2

>  <NsssN>
1

>  <NddsN>
0

>  <NaasN>
0

>  <NssssN>
0

>  <NsOH>
0

>  <NdO>
3

>  <NssO>
1

>  <NaaO>
0

>  <NsF>
0

>  <NsSiH3>
0

>  <NssSiH2>
0

>  <NsssSiH>
0

>  <NssssSi>
0

>  <NsPH2>
0

>  <NssPH>
0

>  <NsssP>
0

>  <NdsssP>
0

>  <NsssssP>
0

>  <NsSH>
0

>  <NdS>
0

>  <NssS>
1

>  <NaaS>
0

>  <NdssS>
0

>  <NddssS>
0

>  <NsCl>
0

>  <NsBr>
0

>  <NsI>
0

>  <fragCpx>
179.09

>  <fMF>
0.46

>  <nHBAcc>
8

>  <nHBDon>
1

>  <Kier1>
29.55

>  <Kier2>
15.42

>  <Lipinski>
1

>  <GhoseFilter>
0

>  <FilterItLogS>
-5.61

>  <VMcGowan>
368.47

>  <LabuteASA>
207.77

>  <PEOE_VSA1>
15.37

>  <PEOE_VSA2>
9.59

>  <PEOE_VSA3>
14.76

>  <PEOE_VSA4>
0

>  <PEOE_VSA5>
0

>  <PEOE_VSA6>
48.53

>  <PEOE_VSA7>
37.74

>  <PEOE_VSA8>
34.35

>  <PEOE_VSA9>
18.72

>  <PEOE_VSA10>
11.64

>  <PEOE_VSA11>
0

>  <PEOE_VSA12>
11.53

>  <PEOE_VSA13>
0

>  <SMR_VSA1>
19.12

>  <SMR_VSA2>
0

>  <SMR_VSA3>
14.87

>  <SMR_VSA4>
0

>  <SMR_VSA5>
26.81

>  <SMR_VSA6>
12.34

>  <SMR_VSA7>
99.98

>  <SMR_VSA8>
0

>  <SMR_VSA9>
0

>  <SlogP_VSA1>
5.73

>  <SlogP_VSA2>
38.97

>  <SlogP_VSA3>
16.08

>  <SlogP_VSA4>
6.92

>  <SlogP_VSA5>
45.45

>  <SlogP_VSA6>
77.46

>  <SlogP_VSA7>
0

>  <SlogP_VSA8>
0

>  <SlogP_VSA9>
0

>  <SlogP_VSA10>
5.82

>  <SlogP_VSA11>
0

>  <EState_VSA1>
5.97

>  <EState_VSA2>
30.51

>  <EState_VSA3>
39.53

>  <EState_VSA4>
11.76

>  <EState_VSA5>
4.9

>  <EState_VSA6>
68.58

>  <EState_VSA7>
12.13

>  <EState_VSA8>
9.97

>  <EState_VSA9>
10.47

>  <EState_VSA10>
14.38

>  <VSA_EState1>
5.42

>  <VSA_EState2>
47.55

>  <VSA_EState3>
-0.18

>  <VSA_EState4>
8.09

>  <VSA_EState5>
0.35

>  <VSA_EState6>
17.49

>  <VSA_EState7>
2.49

>  <VSA_EState8>
3.63

>  <VSA_EState9>
0

>  <apol>
71.26

>  <bpol>
36.3

>  <nRing>
3

>  <nHRing>
1

>  <naRing>
3

>  <naHRing>
1

>  <nARing 2>
0

>  <nAHRing 2>
0

>  <nFRing>
0

>  <nFHRing>
0

>  <nFaRing>
0

>  <nFaHRing>
0

>  <nFARing 2>
0

>  <nFAHRing 2>
0

>  <nRot>
10

>  <SLogP>
4.38

>  <SMR>
135.19

>  <TopoPSA(NO)>
115.48

>  <TopoPSA>
140.78

>  <JGI1>
0.18

>  <JGI2>
0.09

>  <JGI3>
0.05

>  <JGI4>
0.03

>  <JGI5>
0.02

>  <Diameter>
16

>  <Radius>
8

>  <TMWC10>
148.52

>  <TSRW10>
70.86

>  <MW>
490.17

>  <AMW>
8.04

>  <WPath>
4026

>  <WPol>
52

>  <Zagreb1>
172

>  <Zagreb2>
196

>  <mZagreb2>
7.97

>  <yes>


>  <nAR-cont>
0.336376

>  <nHA-cont>
0.523063577

>  <MWHBN>
0.406508046

>  <MWHBN-cont>
0.450490614

>  <TPSA-cont>
0

>  <pka_cont>
0.97

>  <yes.1>


>  <BBB_SCORE>
2.020175498

>  <MMFF94 Energy>
43.996

$$$$
Compound 777
Actelion Java MolfileCreator 2.0

  0  0  0  0  0  0              0 V3000
M  V30 BEGIN CTAB
M  V30 COUNTS 57 60 0 0 0
M  V30 BEGIN ATOM
M  V30 1 F 4.5429 -0.3182 -5.9009 0
M  V30 2 C 3.8561 0.5544 -5.1517 0
M  V30 3 C 4.5245 1.616 -4.5529 0
M  V30 4 C 2.4867 0.3853 -4.9858 0
M  V30 5 C 3.81 2.5272 -3.7726 0
M  V30 6 C 1.7707 1.2963 -4.207 0
M  V30 7 C 2.4279 2.3733 -3.5936 0
M  V30 8 C 1.6747 3.3378 -2.7738 0
M  V30 9 C 1.1663 3.0249 -1.5658 0
M  V30 10 C 1.5162 4.7071 -3.3768 0
M  V30 11 C 1.2811 1.7138 -0.8258 0
M  V30 12 C -0.0914 1.0304 -0.6882 0
M  V30 13 N -0.026 -0.3173 -0.0843 0
M  V30 14 C -1.3263 -0.9878 -0.2396 0
M  V30 15 C 0.3279 -0.258 1.3407 0
M  V30 16 C -1.2876 -2.4279 0.2627 0
M  V30 17 C 0.4955 -1.6583 1.9234 0
M  V30 18 C -0.7105 -2.5684 1.6718 0
M  V30 19 N -1.737 -2.4865 2.7427 0
M  V30 20 C -0.2304 -4.0235 1.8495 0
M  V30 21 C -2.4123 -1.3606 3.1381 0
M  V30 22 C -1.7034 -3.6276 3.6311 0
M  V30 23 O 0.5603 -4.6488 1.1611 0
M  V30 24 N -0.8405 -4.5399 2.9694 0
M  V30 25 C -3.5863 -0.9705 2.4857 0
M  V30 26 C -1.9825 -0.5905 4.2262 0
M  V30 27 C -4.297 0.1643 2.8863 0
M  V30 28 C -2.6866 0.5464 4.6329 0
M  V30 29 C -3.8443 0.9253 3.9599 0
M  V30 30 H 5.5946 1.7256 -4.6936 0
M  V30 31 H 1.9861 -0.4526 -5.4593 0
M  V30 32 H 4.3372 3.3513 -3.2979 0
M  V30 33 H 0.6994 1.1618 -4.0781 0
M  V30 34 H 0.6214 3.796 -1.0217 0
M  V30 35 H 1.0334 4.6418 -4.358 0
M  V30 36 H 0.8968 5.359 -2.751 0
M  V30 37 H 2.488 5.1967 -3.4989 0
M  V30 38 H 1.6998 1.9371 0.1619 0
M  V30 39 H 1.9867 1.0325 -1.3126 0
M  V30 40 H -0.777 1.6745 -0.1205 0
M  V30 41 H -0.5122 0.9399 -1.6988 0
M  V30 42 H -1.5983 -1.0212 -1.3024 0
M  V30 43 H -2.1161 -0.4199 0.2626 0
M  V30 44 H -0.4158 0.3145 1.9061 0
M  V30 45 H 1.2861 0.2549 1.476 0
M  V30 46 H -2.2933 -2.8633 0.2066 0
M  V30 47 H -0.6762 -3.0043 -0.4456 0
M  V30 48 H 1.3923 -2.1016 1.4676 0
M  V30 49 H 0.7171 -1.5847 2.9957 0
M  V30 50 H -1.2716 -3.3969 4.6101 0
M  V30 51 H -2.6881 -4.0898 3.7496 0
M  V30 52 H -0.6562 -5.4842 3.2721 0
M  V30 53 H -3.9637 -1.5631 1.656 0
M  V30 54 H -1.0776 -0.8651 4.7624 0
M  V30 55 H -5.2052 0.4478 2.3613 0
M  V30 56 H -2.3289 1.1339 5.4743 0
M  V30 57 H -4.3948 1.8081 4.2739 0
M  V30 END ATOM
M  V30 BEGIN BOND
M  V30 1 1 1 2
M  V30 2 2 2 3
M  V30 3 1 2 4
M  V30 4 1 3 5
M  V30 5 2 4 6
M  V30 6 2 5 7
M  V30 7 1 7 8
M  V30 8 2 8 9
M  V30 9 1 8 10
M  V30 10 1 9 11
M  V30 11 1 11 12
M  V30 12 1 12 13
M  V30 13 1 13 14
M  V30 14 1 13 15
M  V30 15 1 14 16
M  V30 16 1 15 17
M  V30 17 1 16 18
M  V30 18 1 18 19
M  V30 19 1 18 20
M  V30 20 1 19 21
M  V30 21 1 19 22
M  V30 22 2 20 23
M  V30 23 1 20 24
M  V30 24 2 21 25
M  V30 25 1 21 26
M  V30 26 1 25 27
M  V30 27 2 26 28
M  V30 28 2 27 29
M  V30 29 1 6 7
M  V30 30 1 17 18
M  V30 31 1 22 24
M  V30 32 1 28 29
M  V30 33 1 3 30
M  V30 34 1 4 31
M  V30 35 1 5 32
M  V30 36 1 6 33
M  V30 37 1 9 34
M  V30 38 1 10 35
M  V30 39 1 10 36
M  V30 40 1 10 37
M  V30 41 1 11 38
M  V30 42 1 11 39
M  V30 43 1 12 40
M  V30 44 1 12 41
M  V30 45 1 14 42
M  V30 46 1 14 43
M  V30 47 1 15 44
M  V30 48 1 15 45
M  V30 49 1 16 46
M  V30 50 1 16 47
M  V30 51 1 17 48
M  V30 52 1 17 49
M  V30 53 1 22 50
M  V30 54 1 22 51
M  V30 55 1 24 52
M  V30 56 1 25 53
M  V30 57 1 26 54
M  V30 58 1 27 55
M  V30 59 1 28 56
M  V30 60 1 29 57
M  V30 END BOND
M  V30 END CTAB
M  END
>  <Column 1>
932

>  <level_0>
1065

>  <index>
1065

>  <Unnamed: 0>
1065

>  <NO.>
1077

>  <Name>
spirilene

>  <IUPAC_name>
8-[(z)-4-(4-fluorophenyl)pent-3-enyl]-1-phenyl-1-3-8-triazaspiro[4.5]decan-4-one

>  <SMILES>
C/C(=C/CCN1CCC2(CC1)C(=O)NCN2c1ccccc1)c1ccc(F)cc1

>  <CID>
6436870

>  <logBB>


>  <BBB+/BBB->
BBB+

>  <Inchi>
InChI=1S/C24H28FN3O/c1-19(20-9-11-21(25)12-10-20)6-5-15-27-16-13-24(14-17-27)23(29)26-18-28(24)22-7-3-2-4-8-22/h2-4-6-12H-5-13-18H2-1H3-(H-26-29)/b19-6-

>  <threshold>
-1

>  <reference>
R1|R13|R27|R27|R30|R30|

>  <group>
B

>  <Class>
1

>  <ABC>
22.75

>  <ABCGG>
17.12

>  <nAcid>
0

>  <nBase>
1

>  <nAromAtom>
12

>  <nAromBond>
12

>  <nAtom>
57

>  <nHeavyAtom>
29

>  <nSpiro>
1

>  <nBridgehead>
0

>  <nHetero>
5

>  <nN>
3

>  <nO>
1

>  <nF>
1

>  <BalabanJ>
1.21

>  <BertzCT>
870.76

>  <nBonds>
60

>  <nBondsO>
32

>  <nBondsS>
46

>  <nBondsD>
2

>  <nBondsT>
0

>  <nBondsA>
12

>  <nBondsM>
14

>  <nBondsKS>
52

>  <nBondsKD>
8

>  <RNCG>
0.16

>  <RPCG>
0.12

>  <FCSP3>
0.38

>  <SZ>
35

>  <Sm>
32.76

>  <Sv>
35.22

>  <Sse>
56.71

>  <Sp>
37.97

>  <Si>
64.44

>  <MZ>
0.61

>  <Mm>
0.57

>  <Mv>
0.62

>  <Mse>
0.99

>  <Mp>
0.67

>  <Mi>
1.13

>  <NsCH3>
1

>  <NdCH2>
0

>  <NssCH2>
7

>  <NtCH>
0

>  <NdsCH>
1

>  <NaaCH>
9

>  <NsssCH>
0

>  <NddC>
0

>  <NtsC>
0

>  <NdssC>
2

>  <NaasC>
3

>  <NaaaC>
0

>  <NssssC>
1

>  <NsNH3>
0

>  <NsNH2>
0

>  <NssNH2>
0

>  <NdNH>
0

>  <NssNH>
1

>  <NaaNH>
0

>  <NtN>
0

>  <NsssNH>
0

>  <NdsN>
0

>  <NaaN>
0

>  <NsssN>
2

>  <NddsN>
0

>  <NaasN>
0

>  <NssssN>
0

>  <NsOH>
0

>  <NdO>
1

>  <NssO>
0

>  <NaaO>
0

>  <NsF>
1

>  <NsSiH3>
0

>  <NssSiH2>
0

>  <NsssSiH>
0

>  <NssssSi>
0

>  <NsPH2>
0

>  <NssPH>
0

>  <NsssP>
0

>  <NdsssP>
0

>  <NsssssP>
0

>  <NsSH>
0

>  <NdS>
0

>  <NssS>
0

>  <NaaS>
0

>  <NdssS>
0

>  <NddssS>
0

>  <NsCl>
0

>  <NsBr>
0

>  <NsI>
0

>  <fragCpx>
212.05

>  <fMF>
0.46

>  <nHBAcc>
3

>  <nHBDon>
1

>  <Kier1>
22.2

>  <Kier2>
10.08

>  <Lipinski>
1

>  <GhoseFilter>
1

>  <FilterItLogS>
-5.59

>  <VMcGowan>
308.75

>  <LabuteASA>
171.56

>  <PEOE_VSA1>
15.12

>  <PEOE_VSA2>
4.79

>  <PEOE_VSA3>
4.39

>  <PEOE_VSA4>
0

>  <PEOE_VSA5>
0

>  <PEOE_VSA6>
36.41

>  <PEOE_VSA7>
61.59

>  <PEOE_VSA8>
25.32

>  <PEOE_VSA9>
6.67

>  <PEOE_VSA10>
11.36

>  <PEOE_VSA11>
0

>  <PEOE_VSA12>
5.91

>  <PEOE_VSA13>
0

>  <SMR_VSA1>
9.18

>  <SMR_VSA2>
0

>  <SMR_VSA3>
10.22

>  <SMR_VSA4>
0

>  <SMR_VSA5>
31.73

>  <SMR_VSA6>
31.2

>  <SMR_VSA7>
72.05

>  <SMR_VSA8>
0

>  <SMR_VSA9>
0

>  <SlogP_VSA1>
10.22

>  <SlogP_VSA2>
42.65

>  <SlogP_VSA3>
4.79

>  <SlogP_VSA4>
5.82

>  <SlogP_VSA5>
31.75

>  <SlogP_VSA6>
60.67

>  <SlogP_VSA7>
0

>  <SlogP_VSA8>
5.57

>  <SlogP_VSA9>
0

>  <SlogP_VSA10>
10.08

>  <SlogP_VSA11>
0

>  <EState_VSA1>
5.54

>  <EState_VSA2>
11.72

>  <EState_VSA3>
6.67

>  <EState_VSA4>
50.15

>  <EState_VSA5>
17.71

>  <EState_VSA6>
0

>  <EState_VSA7>
30.33

>  <EState_VSA8>
40.25

>  <EState_VSA9>
0

>  <EState_VSA10>
9.18

>  <VSA_EState1>
13.08

>  <VSA_EState2>
17.4

>  <VSA_EState3>
3.06

>  <VSA_EState4>
2.92

>  <VSA_EState5>
-0.04

>  <VSA_EState6>
16.86

>  <VSA_EState7>
4.85

>  <VSA_EState8>
5.46

>  <VSA_EState9>
0

>  <apol>
63.41

>  <bpol>
34.06

>  <nRing>
4

>  <nHRing>
2

>  <naRing>
2

>  <naHRing>
0

>  <nARing 2>
2

>  <nAHRing 2>
2

>  <nFRing>
0

>  <nFHRing>
0

>  <nFaRing>
0

>  <nFaHRing>
0

>  <nFARing 2>
0

>  <nFAHRing 2>
0

>  <nRot>
5

>  <SLogP>
4.05

>  <SMR>
115

>  <TopoPSA(NO)>
35.58

>  <TopoPSA>
35.58

>  <JGI1>
0.19

>  <JGI2>
0.1

>  <JGI3>
0.05

>  <JGI4>
0.03

>  <JGI5>
0.03

>  <Diameter>
17

>  <Radius>
9

>  <TMWC10>
138.27

>  <TSRW10>
79.01

>  <MW>
393.22

>  <AMW>
6.9

>  <WPath>
2602

>  <WPol>
47

>  <Zagreb1>
154

>  <Zagreb2>
183

>  <mZagreb2>
6.39

>  <yes>


>  <nAR-cont>
1

>  <nHA-cont>
0.785905698

>  <MWHBN>
0.201716857

>  <MWHBN-cont>
0.999864438

>  <TPSA-cont>
0.751629506

>  <pka_cont>
0.97

>  <yes.1>


>  <BBB_SCORE>
5.273961368

>  <MMFF94 Energy>
38.525

$$$$
Compound 778
Actelion Java MolfileCreator 2.0

  0  0  0  0  0  0              0 V3000
M  V30 BEGIN CTAB
M  V30 COUNTS 37 38 0 0 0
M  V30 BEGIN ATOM
M  V30 1 S -1.0446 -3.2973 -0.7231 0
M  V30 2 C 0.1715 -4.582 -0.7236 0
M  V30 3 C -0.3527 -2.0256 0.2721 0
M  V30 4 O 0.0354 -5.5076 -1.516 0
M  V30 5 O 1.2492 -4.5718 0.1167 0
M  V30 6 C -1.1203 -0.9967 0.7267 0
M  V30 7 C 1.138 -2.164 0.4727 0
M  V30 8 C 1.4147 -3.5241 1.0855 0
M  V30 9 N -0.6242 0.0101 1.5801 0
M  V30 10 C -2.5974 -0.8573 0.3888 0
M  V30 11 C 0.0199 -0.3052 2.7802 0
M  V30 12 C -0.9882 1.4197 1.3609 0
M  V30 13 O 0.2613 -1.4228 3.2203 0
M  V30 14 C -0.5069 1.9838 0.0581 0
M  V30 15 C 0.8251 2.1733 -0.2571 0
M  V30 16 C -1.3999 2.4148 -0.9038 0
M  V30 17 N 1.2279 2.7503 -1.3981 0
M  V30 18 N 1.8465 1.8291 0.6092 0
M  V30 19 N -1.0411 2.9779 -2.0703 0
M  V30 20 C 0.2768 3.1334 -2.2679 0
M  V30 21 C 0.7213 3.7346 -3.5637 0
M  V30 22 H 1.569 -1.3791 1.095 0
M  V30 23 H 1.6363 -2.0783 -0.5022 0
M  V30 24 H 0.7903 -3.7471 1.9581 0
M  V30 25 H 2.4595 -3.5673 1.4107 0
M  V30 26 H -2.7357 -0.1988 -0.4729 0
M  V30 27 H -3.0898 -1.8086 0.1714 0
M  V30 28 H -3.1516 -0.4442 1.2394 0
M  V30 29 H 0.3248 0.5913 3.3454 0
M  V30 30 H -2.0762 1.5163 1.4571 0
M  V30 31 H -0.5842 2.044 2.1682 0
M  V30 32 H -2.4742 2.3267 -0.7637 0
M  V30 33 H 2.7524 2.0898 0.2322 0
M  V30 34 H 1.7997 0.9149 1.0321 0
M  V30 35 H 0.8668 2.9443 -4.3055 0
M  V30 36 H -0.0279 4.4381 -3.9393 0
M  V30 37 H 1.6638 4.2753 -3.4341 0
M  V30 END ATOM
M  V30 BEGIN BOND
M  V30 1 1 1 2
M  V30 2 1 1 3
M  V30 3 2 2 4
M  V30 4 1 2 5
M  V30 5 2 3 6
M  V30 6 1 3 7
M  V30 7 1 5 8
M  V30 8 1 6 9
M  V30 9 1 6 10
M  V30 10 1 9 11
M  V30 11 1 9 12
M  V30 12 2 11 13
M  V30 13 1 12 14
M  V30 14 2 14 15
M  V30 15 1 14 16
M  V30 16 1 15 17
M  V30 17 1 15 18
M  V30 18 2 16 19
M  V30 19 2 17 20
M  V30 20 1 20 21
M  V30 21 1 7 8
M  V30 22 1 19 20
M  V30 23 1 7 22
M  V30 24 1 7 23
M  V30 25 1 8 24
M  V30 26 1 8 25
M  V30 27 1 10 26
M  V30 28 1 10 27
M  V30 29 1 10 28
M  V30 30 1 11 29
M  V30 31 1 12 30
M  V30 32 1 12 31
M  V30 33 1 16 32
M  V30 34 1 18 33
M  V30 35 1 18 34
M  V30 36 1 21 35
M  V30 37 1 21 36
M  V30 38 1 21 37
M  V30 END BOND
M  V30 END CTAB
M  END
>  <Column 1>
933

>  <level_0>
1066

>  <index>
1066

>  <Unnamed: 0>
1066

>  <NO.>
1078

>  <Name>
cycotiamine

>  <IUPAC_name>
n-[(4-amino-2-methylpyrimidin-5-yl)methyl]-n-[(1e)-1-(2-oxo-1-3-oxathian-4-ylidene)ethyl]formamide

>  <SMILES>
C/C(=C1/CCOC(=O)S1)N(C=O)Cc1cnc(C)nc1N

>  <CID>
3034024

>  <logBB>


>  <BBB+/BBB->
BBB+

>  <Inchi>
InChI=1S/C13H16N4O3S/c1-8(11-3-4-20-13(19)21-11)17(7-18)6-10-5-15-9(2)16-12(10)14/h5-7H-3-4-6H2-1-2H3-(H2-14-15-16)/b11-8+

>  <threshold>
-1

>  <reference>
R1|R13|R24|R27|R30|

>  <group>
B

>  <Class>
1

>  <ABC>
15.87

>  <ABCGG>
13.68

>  <nAcid>
0

>  <nBase>
0

>  <nAromAtom>
6

>  <nAromBond>
6

>  <nAtom>
37

>  <nHeavyAtom>
21

>  <nSpiro>
0

>  <nBridgehead>
0

>  <nHetero>
8

>  <nN>
4

>  <nO>
3

>  <nF>
0

>  <BalabanJ>
1.89

>  <BertzCT>
603.08

>  <nBonds>
38

>  <nBondsO>
22

>  <nBondsS>
29

>  <nBondsD>
3

>  <nBondsT>
0

>  <nBondsA>
6

>  <nBondsM>
9

>  <nBondsKS>
32

>  <nBondsKD>
6

>  <RNCG>
0.21

>  <RPCG>
0.17

>  <FCSP3>
0.38

>  <SZ>
27

>  <Sm>
25.67

>  <Sv>
23.7

>  <Sse>
37.82

>  <Sp>
25.2

>  <Si>
42.03

>  <MZ>
0.73

>  <Mm>
0.69

>  <Mv>
0.64

>  <Mse>
1.02

>  <Mp>
0.68

>  <Mi>
1.14

>  <NsCH3>
2

>  <NdCH2>
0

>  <NssCH2>
3

>  <NtCH>
0

>  <NdsCH>
1

>  <NaaCH>
1

>  <NsssCH>
0

>  <NddC>
0

>  <NtsC>
0

>  <NdssC>
3

>  <NaasC>
3

>  <NaaaC>
0

>  <NssssC>
0

>  <NsNH3>
0

>  <NsNH2>
1

>  <NssNH2>
0

>  <NdNH>
0

>  <NssNH>
0

>  <NaaNH>
0

>  <NtN>
0

>  <NsssNH>
0

>  <NdsN>
0

>  <NaaN>
2

>  <NsssN>
1

>  <NddsN>
0

>  <NaasN>
0

>  <NssssN>
0

>  <NsOH>
0

>  <NdO>
2

>  <NssO>
1

>  <NaaO>
0

>  <NsF>
0

>  <NsSiH3>
0

>  <NssSiH2>
0

>  <NsssSiH>
0

>  <NssssSi>
0

>  <NsPH2>
0

>  <NssPH>
0

>  <NsssP>
0

>  <NdsssP>
0

>  <NsssssP>
0

>  <NsSH>
0

>  <NdS>
0

>  <NssS>
1

>  <NaaS>
0

>  <NdssS>
0

>  <NddssS>
0

>  <NsCl>
0

>  <NsBr>
0

>  <NsI>
0

>  <fragCpx>
64.08

>  <fMF>
0.41

>  <nHBAcc>
7

>  <nHBDon>
1

>  <Kier1>
17.36

>  <Kier2>
8.02

>  <Lipinski>
1

>  <GhoseFilter>
1

>  <FilterItLogS>
-2.47

>  <VMcGowan>
220.39

>  <LabuteASA>
126.12

>  <PEOE_VSA1>
15.37

>  <PEOE_VSA2>
4.79

>  <PEOE_VSA3>
14.76

>  <PEOE_VSA4>
0

>  <PEOE_VSA5>
0

>  <PEOE_VSA6>
0

>  <PEOE_VSA7>
25.61

>  <PEOE_VSA8>
28.78

>  <PEOE_VSA9>
13.15

>  <PEOE_VSA10>
11.64

>  <PEOE_VSA11>
0

>  <PEOE_VSA12>
6.41

>  <PEOE_VSA13>
0

>  <SMR_VSA1>
14.33

>  <SMR_VSA2>
0

>  <SMR_VSA3>
14.87

>  <SMR_VSA4>
0

>  <SMR_VSA5>
26.81

>  <SMR_VSA6>
12.34

>  <SMR_VSA7>
28.19

>  <SMR_VSA8>
0

>  <SMR_VSA9>
0

>  <SlogP_VSA1>
5.73

>  <SlogP_VSA2>
33.19

>  <SlogP_VSA3>
16.08

>  <SlogP_VSA4>
6.92

>  <SlogP_VSA5>
24.73

>  <SlogP_VSA6>
16.8

>  <SlogP_VSA7>
0

>  <SlogP_VSA8>
0

>  <SlogP_VSA9>
0

>  <SlogP_VSA10>
10.61

>  <SlogP_VSA11>
0

>  <EState_VSA1>
0

>  <EState_VSA2>
11.85

>  <EState_VSA3>
42.34

>  <EState_VSA4>
16.67

>  <EState_VSA5>
4.9

>  <EState_VSA6>
20.04

>  <EState_VSA7>
0

>  <EState_VSA8>
9.97

>  <EState_VSA9>
10.47

>  <EState_VSA10>
9.59

>  <VSA_EState1>
4.87

>  <VSA_EState2>
33.11

>  <VSA_EState3>
-0.35

>  <VSA_EState4>
7.21

>  <VSA_EState5>
0.93

>  <VSA_EState6>
0

>  <VSA_EState7>
2.92

>  <VSA_EState8>
4.14

>  <VSA_EState9>
0

>  <apol>
42.08

>  <bpol>
25.4

>  <nRing>
2

>  <nHRing>
2

>  <naRing>
1

>  <naHRing>
1

>  <nARing 2>
1

>  <nAHRing 2>
1

>  <nFRing>
0

>  <nFHRing>
0

>  <nFaRing>
0

>  <nFaHRing>
0

>  <nFARing 2>
0

>  <nFAHRing 2>
0

>  <nRot>
4

>  <SLogP>
1.83

>  <SMR>
79.04

>  <TopoPSA(NO)>
98.41

>  <TopoPSA>
123.71

>  <JGI1>
0.23

>  <JGI2>
0.09

>  <JGI3>
0.05

>  <JGI4>
0.05

>  <JGI5>
0.03

>  <Diameter>
11

>  <Radius>
6

>  <TMWC10>
115.32

>  <TSRW10>
54.49

>  <MW>
308.09

>  <AMW>
8.33

>  <WPath>
962

>  <WPol>
31

>  <Zagreb1>
104

>  <Zagreb2>
119

>  <mZagreb2>
4.75

>  <yes>


>  <nAR-cont>
0.816016

>  <nHA-cont>
0.994529749

>  <MWHBN>
0.45577572

>  <MWHBN-cont>
0

>  <TPSA-cont>
0

>  <pka_cont>
0.97

>  <yes.1>


>  <BBB_SCORE>
2.295545749

>  <MMFF94 Energy>
-29.635

$$$$
Compound 779
Actelion Java MolfileCreator 2.0

  0  0  0  0  0  0              0 V3000
M  V30 BEGIN CTAB
M  V30 COUNTS 23 22 0 0 0
M  V30 BEGIN ATOM
M  V30 1 O 3.3542 -0.3807 2.1335 0
M  V30 2 C 2.7018 0.4153 1.4666 0
M  V30 3 N 1.4726 0.0839 0.9757 0
M  V30 4 N 3.1606 1.6522 1.191 0
M  V30 5 C 0.6099 0.8631 0.2328 0
M  V30 6 O 0.8597 1.9849 -0.196 0
M  V30 7 C -0.6824 0.1794 -0.0971 0
M  V30 8 C -1.3893 -0.3785 0.9064 0
M  V30 9 C -1.1033 0.2733 -1.5407 0
M  V30 10 C -2.6955 -1.0989 0.7893 0
M  V30 11 C -0.418 -0.7828 -2.3953 0
M  V30 12 H 1.196 -0.8562 1.2133 0
M  V30 13 H 2.612 2.2904 0.6215 0
M  V30 14 H 4.065 1.9369 1.5355 0
M  V30 15 H -1.0167 -0.3117 1.9286 0
M  V30 16 H -0.871 1.2682 -1.9392 0
M  V30 17 H -2.1889 0.1711 -1.6428 0
M  V30 18 H -2.6228 -2.0686 1.2924 0
M  V30 19 H -2.994 -1.2905 -0.2437 0
M  V30 20 H -3.4851 -0.5201 1.2778 0
M  V30 21 H -0.7442 -0.6947 -3.4366 0
M  V30 22 H -0.6633 -1.7924 -2.0489 0
M  V30 23 H 0.6708 -0.6689 -2.3732 0
M  V30 END ATOM
M  V30 BEGIN BOND
M  V30 1 2 1 2
M  V30 2 1 2 3
M  V30 3 1 2 4
M  V30 4 1 3 5
M  V30 5 2 5 6
M  V30 6 1 5 7
M  V30 7 2 7 8
M  V30 8 1 7 9
M  V30 9 1 8 10
M  V30 10 1 9 11
M  V30 11 1 3 12
M  V30 12 1 4 13
M  V30 13 1 4 14
M  V30 14 1 8 15
M  V30 15 1 9 16
M  V30 16 1 9 17
M  V30 17 1 10 18
M  V30 18 1 10 19
M  V30 19 1 10 20
M  V30 20 1 11 21
M  V30 21 1 11 22
M  V30 22 1 11 23
M  V30 END BOND
M  V30 END CTAB
M  END
>  <Column 1>
934

>  <level_0>
1067

>  <index>
1067

>  <Unnamed: 0>
1067

>  <NO.>
1079

>  <Name>
1-(2-ethylcrotonoyl)urea

>  <IUPAC_name>
(e)-n-carbamoyl-2-ethylbut-2-enamide

>  <SMILES>
C/C=C(\CC)C(=O)NC(N)=O

>  <CID>
5354486

>  <logBB>


>  <BBB+/BBB->
BBB+

>  <Inchi>
InChI=1S/C7H12N2O2/c1-3-5(4-2)6(10)9-7(8)11/h3H-4H2-1-2H3-(H3-8-9-10-11)/b5-3+

>  <threshold>
-1

>  <reference>
R1|R13|R24|R27|R30|

>  <group>
B

>  <Class>
1

>  <ABC>
7.36

>  <ABCGG>
7.88

>  <nAcid>
0

>  <nBase>
0

>  <nAromAtom>
0

>  <nAromBond>
0

>  <nAtom>
23

>  <nHeavyAtom>
11

>  <nSpiro>
0

>  <nBridgehead>
0

>  <nHetero>
4

>  <nN>
2

>  <nO>
2

>  <nF>
0

>  <BalabanJ>
3.68

>  <BertzCT>
196.62

>  <nBonds>
22

>  <nBondsO>
10

>  <nBondsS>
19

>  <nBondsD>
3

>  <nBondsT>
0

>  <nBondsA>
0

>  <nBondsM>
3

>  <nBondsKS>
19

>  <nBondsKD>
3

>  <RNCG>
0.26

>  <RPCG>
0.24

>  <FCSP3>
0.43

>  <SZ>
14

>  <Sm>
13

>  <Sv>
13.2

>  <Sse>
23.31

>  <Sp>
14.07

>  <Si>
26.49

>  <MZ>
0.61

>  <Mm>
0.57

>  <Mv>
0.57

>  <Mse>
1.01

>  <Mp>
0.61

>  <Mi>
1.15

>  <NsCH3>
2

>  <NdCH2>
0

>  <NssCH2>
1

>  <NtCH>
0

>  <NdsCH>
1

>  <NaaCH>
0

>  <NsssCH>
0

>  <NddC>
0

>  <NtsC>
0

>  <NdssC>
3

>  <NaasC>
0

>  <NaaaC>
0

>  <NssssC>
0

>  <NsNH3>
0

>  <NsNH2>
1

>  <NssNH2>
0

>  <NdNH>
0

>  <NssNH>
1

>  <NaaNH>
0

>  <NtN>
0

>  <NsssNH>
0

>  <NdsN>
0

>  <NaaN>
0

>  <NsssN>
0

>  <NddsN>
0

>  <NaasN>
0

>  <NssssN>
0

>  <NsOH>
0

>  <NdO>
2

>  <NssO>
0

>  <NaaO>
0

>  <NsF>
0

>  <NsSiH3>
0

>  <NssSiH2>
0

>  <NsssSiH>
0

>  <NssssSi>
0

>  <NsPH2>
0

>  <NssPH>
0

>  <NsssP>
0

>  <NdsssP>
0

>  <NsssssP>
0

>  <NsSH>
0

>  <NdS>
0

>  <NssS>
0

>  <NaaS>
0

>  <NdssS>
0

>  <NddssS>
0

>  <NsCl>
0

>  <NsBr>
0

>  <NsI>
0

>  <fragCpx>
10.04

>  <fMF>
0

>  <nHBAcc>
2

>  <nHBDon>
2

>  <Kier1>
11

>  <Kier2>
5.63

>  <Lipinski>
1

>  <GhoseFilter>
0

>  <FilterItLogS>
-0.73

>  <VMcGowan>
128.29

>  <LabuteASA>
65.45

>  <PEOE_VSA1>
5.73

>  <PEOE_VSA2>
10.11

>  <PEOE_VSA3>
4.79

>  <PEOE_VSA4>
0

>  <PEOE_VSA5>
0

>  <PEOE_VSA6>
13

>  <PEOE_VSA7>
13.34

>  <PEOE_VSA8>
5.57

>  <PEOE_VSA9>
0

>  <PEOE_VSA10>
0

>  <PEOE_VSA11>
0

>  <PEOE_VSA12>
0

>  <PEOE_VSA13>
5.91

>  <SMR_VSA1>
9.59

>  <SMR_VSA2>
0

>  <SMR_VSA3>
5.32

>  <SMR_VSA4>
5.73

>  <SMR_VSA5>
20.27

>  <SMR_VSA6>
0

>  <SMR_VSA7>
11.65

>  <SMR_VSA8>
0

>  <SMR_VSA9>
0

>  <SlogP_VSA1>
11.05

>  <SlogP_VSA2>
11.94

>  <SlogP_VSA3>
4.79

>  <SlogP_VSA4>
0

>  <SlogP_VSA5>
20.27

>  <SlogP_VSA6>
11.65

>  <SlogP_VSA7>
0

>  <SlogP_VSA8>
0

>  <SlogP_VSA9>
0

>  <SlogP_VSA10>
4.79

>  <SlogP_VSA11>
0

>  <EState_VSA1>
11.94

>  <EState_VSA2>
0

>  <EState_VSA3>
11.99

>  <EState_VSA4>
0

>  <EState_VSA5>
0

>  <EState_VSA6>
13

>  <EState_VSA7>
12.24

>  <EState_VSA8>
0

>  <EState_VSA9>
5.73

>  <EState_VSA10>
9.59

>  <VSA_EState1>
0

>  <VSA_EState2>
21.14

>  <VSA_EState3>
1.98

>  <VSA_EState4>
5.3

>  <VSA_EState5>
-0.41

>  <VSA_EState6>
-0.82

>  <VSA_EState7>
2.24

>  <VSA_EState8>
3.56

>  <VSA_EState9>
0

>  <apol>
23.5

>  <bpol>
13.77

>  <nRing>
0

>  <nHRing>
0

>  <naRing>
0

>  <naHRing>
0

>  <nARing 2>
0

>  <nAHRing 2>
0

>  <nFRing>
0

>  <nFHRing>
0

>  <nFaRing>
0

>  <nFaHRing>
0

>  <nFARing 2>
0

>  <nFAHRing 2>
0

>  <nRot>
2

>  <SLogP>
0.54

>  <SMR>
41.77

>  <TopoPSA(NO)>
72.19

>  <TopoPSA>
72.19

>  <JGI1>
0.3

>  <JGI2>
0.11

>  <JGI3>
0.07

>  <JGI4>
0.03

>  <JGI5>
0.04

>  <Diameter>
6

>  <Radius>
3

>  <TMWC10>
82.78

>  <TSRW10>
39.52

>  <MW>
156.09

>  <AMW>
6.79

>  <WPath>
168

>  <WPol>
12

>  <Zagreb1>
44

>  <Zagreb2>
46

>  <mZagreb2>
2.78

>  <yes>


>  <nAR-cont>
0.336376

>  <nHA-cont>
0.720786536

>  <MWHBN>
0.320163966

>  <MWHBN-cont>
0.776613382

>  <TPSA-cont>
0.496068973

>  <pka_cont>
0.97

>  <yes.1>


>  <BBB_SCORE>
3.699220554

>  <MMFF94 Energy>
-106.76

$$$$
Compound 780
Actelion Java MolfileCreator 2.0

  0  0  0  0  0  0              0 V3000
M  V30 BEGIN CTAB
M  V30 COUNTS 38 37 0 0 0
M  V30 BEGIN ATOM
M  V30 1 O 1.6207 0.8486 -0.6171 0
M  V30 2 C 1.0966 0.0389 0.1444 0
M  V30 3 N -0.163 -0.5078 -0.0895 0
M  V30 4 C 1.8128 -0.369 1.388 0
M  V30 5 C -0.8328 -0.1473 -1.3696 0 CFG=2
M  V30 6 C -0.8582 -1.4295 0.8226 0
M  V30 7 C 2.8764 0.3312 1.8149 0
M  V30 8 C -1.1106 1.3898 -1.57 0
M  V30 9 C -0.0977 -0.6877 -2.624 0
M  V30 10 C -0.4597 -2.8875 0.6594 0
M  V30 11 C 3.6707 -0.0125 3.031 0
M  V30 12 O -1.0458 1.8868 -2.7027 0
M  V30 13 N -1.5785 2.1647 -0.513 0
M  V30 14 C 0.1227 -2.1896 -2.6445 0
M  V30 15 C -2.1109 1.6528 0.7307 0
M  V30 16 C -1.577 3.6109 -0.6609 0
M  V30 17 H 1.4932 -1.2472 1.9269 0
M  V30 18 H -1.829 -0.6092 -1.3569 0
M  V30 19 H -1.9392 -1.3436 0.6761 0
M  V30 20 H -0.6667 -1.1125 1.8531 0
M  V30 21 H 3.2069 1.2067 1.2566 0
M  V30 22 H 0.8694 -0.1886 -2.7522 0
M  V30 23 H -0.6845 -0.4324 -3.5161 0
M  V30 24 H 0.6251 -3.0233 0.66 0
M  V30 25 H -0.852 -3.2972 -0.2743 0
M  V30 26 H -0.8802 -3.4839 1.4758 0
M  V30 27 H 3.6483 0.8217 3.7389 0
M  V30 28 H 4.7124 -0.2018 2.7547 0
M  V30 29 H 3.2851 -0.9019 3.5395 0
M  V30 30 H 0.8187 -2.5009 -1.8613 0
M  V30 31 H -0.8223 -2.7271 -2.5249 0
M  V30 32 H 0.557 -2.4899 -3.6039 0
M  V30 33 H -2.6082 0.698 0.5654 0
M  V30 34 H -1.2979 1.5498 1.4534 0
M  V30 35 H -2.8561 2.3494 1.1285 0
M  V30 36 H -1.0182 3.9368 -1.5421 0
M  V30 37 H -1.1161 4.0565 0.226 0
M  V30 38 H -2.6121 3.9549 -0.7467 0
M  V30 END ATOM
M  V30 BEGIN BOND
M  V30 1 2 1 2
M  V30 2 1 2 3
M  V30 3 1 2 4
M  V30 4 1 3 5
M  V30 5 1 3 6
M  V30 6 2 4 7
M  V30 7 1 5 8
M  V30 8 1 5 9
M  V30 9 1 6 10
M  V30 10 1 7 11
M  V30 11 2 8 12
M  V30 12 1 8 13
M  V30 13 1 9 14
M  V30 14 1 13 15
M  V30 15 1 13 16
M  V30 16 1 4 17
M  V30 17 1 5 18
M  V30 18 1 6 19
M  V30 19 1 6 20
M  V30 20 1 7 21
M  V30 21 1 9 22
M  V30 22 1 9 23
M  V30 23 1 10 24
M  V30 24 1 10 25
M  V30 25 1 10 26
M  V30 26 1 11 27
M  V30 27 1 11 28
M  V30 28 1 11 29
M  V30 29 1 14 30
M  V30 30 1 14 31
M  V30 31 1 14 32
M  V30 32 1 15 33
M  V30 33 1 15 34
M  V30 34 1 15 35
M  V30 35 1 16 36
M  V30 36 1 16 37
M  V30 37 1 16 38
M  V30 END BOND
M  V30 BEGIN COLLECTION
M  V30 MDLV30/STERAC1 ATOMS=(1 5)
M  V30 END COLLECTION
M  V30 END CTAB
M  END
>  <Column 1>
935

>  <level_0>
1068

>  <index>
1068

>  <Unnamed: 0>
1068

>  <NO.>
1080

>  <Name>
crotetamide

>  <IUPAC_name>
2-[[(e)-but-2-enoyl]-ethylamino]-n-n-dimethylbutanamide

>  <SMILES>
C/C=C/C(=O)N(CC)C(CC)C(=O)N(C)C

>  <CID>
5368010

>  <logBB>


>  <BBB+/BBB->
BBB+

>  <Inchi>
InChI=1S/C12H22N2O2/c1-6-9-11(15)14(8-3)10(7-2)12(16)13(4)5/h6-9-10H-7-8H2-1-5H3/b9-6+

>  <threshold>
-1

>  <reference>
R1|R6|R27|R30|

>  <group>
B

>  <Class>
1

>  <ABC>
10.88

>  <ABCGG>
11.56

>  <nAcid>
0

>  <nBase>
0

>  <nAromAtom>
0

>  <nAromBond>
0

>  <nAtom>
38

>  <nHeavyAtom>
16

>  <nSpiro>
0

>  <nBridgehead>
0

>  <nHetero>
4

>  <nN>
2

>  <nO>
2

>  <nF>
0

>  <BalabanJ>
4.6

>  <BertzCT>
272.19

>  <nBonds>
37

>  <nBondsO>
15

>  <nBondsS>
34

>  <nBondsD>
3

>  <nBondsT>
0

>  <nBondsA>
0

>  <nBondsM>
3

>  <nBondsKS>
34

>  <nBondsKD>
3

>  <RNCG>
0.23

>  <RPCG>
0.17

>  <FCSP3>
0.67

>  <SZ>
20.67

>  <Sm>
18.84

>  <Sv>
20.91

>  <Sse>
37.75

>  <Sp>
23.06

>  <Si>
43.57

>  <MZ>
0.54

>  <Mm>
0.5

>  <Mv>
0.55

>  <Mse>
0.99

>  <Mp>
0.61

>  <Mi>
1.15

>  <NsCH3>
5

>  <NdCH2>
0

>  <NssCH2>
2

>  <NtCH>
0

>  <NdsCH>
2

>  <NaaCH>
0

>  <NsssCH>
1

>  <NddC>
0

>  <NtsC>
0

>  <NdssC>
2

>  <NaasC>
0

>  <NaaaC>
0

>  <NssssC>
0

>  <NsNH3>
0

>  <NsNH2>
0

>  <NssNH2>
0

>  <NdNH>
0

>  <NssNH>
0

>  <NaaNH>
0

>  <NtN>
0

>  <NsssNH>
0

>  <NdsN>
0

>  <NaaN>
0

>  <NsssN>
2

>  <NddsN>
0

>  <NaasN>
0

>  <NssssN>
0

>  <NsOH>
0

>  <NdO>
2

>  <NssO>
0

>  <NaaO>
0

>  <NsF>
0

>  <NsSiH3>
0

>  <NssSiH2>
0

>  <NsssSiH>
0

>  <NssssSi>
0

>  <NsPH2>
0

>  <NssPH>
0

>  <NsssP>
0

>  <NdsssP>
0

>  <NsssssP>
0

>  <NsSH>
0

>  <NdS>
0

>  <NssS>
0

>  <NaaS>
0

>  <NdssS>
0

>  <NddssS>
0

>  <NsCl>
0

>  <NsBr>
0

>  <NsI>
0

>  <fragCpx>
15.04

>  <fMF>
0

>  <nHBAcc>
2

>  <nHBDon>
0

>  <Kier1>
16

>  <Kier2>
8.14

>  <Lipinski>
1

>  <GhoseFilter>
1

>  <FilterItLogS>
-1.34

>  <VMcGowan>
198.74

>  <LabuteASA>
97.91

>  <PEOE_VSA1>
9.8

>  <PEOE_VSA2>
9.59

>  <PEOE_VSA3>
0

>  <PEOE_VSA4>
0

>  <PEOE_VSA5>
0

>  <PEOE_VSA6>
13

>  <PEOE_VSA7>
26.34

>  <PEOE_VSA8>
20.64

>  <PEOE_VSA9>
0

>  <PEOE_VSA10>
6.04

>  <PEOE_VSA11>
0

>  <PEOE_VSA12>
11.81

>  <PEOE_VSA13>
0

>  <SMR_VSA1>
9.59

>  <SMR_VSA2>
0

>  <SMR_VSA3>
9.8

>  <SMR_VSA4>
0

>  <SMR_VSA5>
33.23

>  <SMR_VSA6>
20.64

>  <SMR_VSA7>
12.15

>  <SMR_VSA8>
0

>  <SMR_VSA9>
0

>  <SlogP_VSA1>
0

>  <SlogP_VSA2>
48.3

>  <SlogP_VSA3>
9.59

>  <SlogP_VSA4>
0

>  <SlogP_VSA5>
27.19

>  <SlogP_VSA6>
12.15

>  <SlogP_VSA7>
0

>  <SlogP_VSA8>
0

>  <SlogP_VSA9>
0

>  <SlogP_VSA10>
0

>  <SlogP_VSA11>
0

>  <EState_VSA1>
0

>  <EState_VSA2>
17.86

>  <EState_VSA3>
12.97

>  <EState_VSA4>
0

>  <EState_VSA5>
10.98

>  <EState_VSA6>
32

>  <EState_VSA7>
13.85

>  <EState_VSA8>
0

>  <EState_VSA9>
0

>  <EState_VSA10>
9.59

>  <VSA_EState1>
0

>  <VSA_EState2>
26.79

>  <VSA_EState3>
0

>  <VSA_EState4>
0

>  <VSA_EState5>
-0.13

>  <VSA_EState6>
-0.36

>  <VSA_EState7>
3.82

>  <VSA_EState8>
6.13

>  <VSA_EState9>
3.41

>  <apol>
38.51

>  <bpol>
27.23

>  <nRing>
0

>  <nHRing>
0

>  <naRing>
0

>  <naHRing>
0

>  <nARing 2>
0

>  <nAHRing 2>
0

>  <nFRing>
0

>  <nFHRing>
0

>  <nFaRing>
0

>  <nFaHRing>
0

>  <nFARing 2>
0

>  <nFAHRing 2>
0

>  <nRot>
5

>  <SLogP>
1.28

>  <SMR>
64.97

>  <TopoPSA(NO)>
40.62

>  <TopoPSA>
40.62

>  <JGI1>
0.23

>  <JGI2>
0.13

>  <JGI3>
0.07

>  <JGI4>
0.04

>  <JGI5>
0.03

>  <Diameter>
8

>  <Radius>
4

>  <TMWC10>
98.89

>  <TSRW10>
47.18

>  <MW>
226.17

>  <AMW>
5.95

>  <WPath>
441

>  <WPol>
23

>  <Zagreb1>
68

>  <Zagreb2>
76

>  <mZagreb2>
4.03

>  <yes>


>  <nAR-cont>
0.336376

>  <nHA-cont>
0.954961865

>  <MWHBN>
0.132988013

>  <MWHBN-cont>
0.880364646

>  <TPSA-cont>
0.716447176

>  <pka_cont>
0.97

>  <yes.1>


>  <BBB_SCORE>
4.529779187

>  <MMFF94 Energy>
16.51

$$$$
Compound 781
Actelion Java MolfileCreator 2.0

  0  0  0  0  0  0              0 V3000
M  V30 BEGIN CTAB
M  V30 COUNTS 41 40 0 0 0
M  V30 BEGIN ATOM
M  V30 1 O -0.9261 -1.853 0.5401 0
M  V30 2 C -0.0877 -0.9939 0.8029 0
M  V30 3 N 0.0259 0.1912 0.0819 0
M  V30 4 C 0.865 -1.2148 1.9278 0
M  V30 5 C -1.0324 0.4757 -0.9244 0 CFG=2
M  V30 6 C 0.9819 1.2675 0.3775 0
M  V30 7 C 1.0896 -2.4575 2.3842 0
M  V30 8 C -1.1963 -0.6003 -2.0555 0
M  V30 9 C -2.3804 0.7707 -0.2258 0
M  V30 10 C 0.4415 2.2695 1.3985 0
M  V30 11 C 1.9978 -2.7778 3.5246 0
M  V30 12 O -2.3202 -0.8691 -2.4986 0
M  V30 13 N -0.0654 -1.1325 -2.6709 0
M  V30 14 C -3.2353 1.7661 -1.0014 0
M  V30 15 C 1.4934 3.3009 1.7737 0
M  V30 16 C 1.2884 -0.6471 -2.5001 0
M  V30 17 C -0.2278 -2.2776 -3.5512 0
M  V30 18 H 1.3369 -0.3662 2.3995 0
M  V30 19 H -0.718 1.3831 -1.4574 0
M  V30 20 H 1.9205 0.8297 0.7315 0
M  V30 21 H 1.2276 1.7887 -0.5541 0
M  V30 22 H 0.5862 -3.3034 1.9169 0
M  V30 23 H -2.2102 1.189 0.7732 0
M  V30 24 H -2.9512 -0.1537 -0.0776 0
M  V30 25 H -0.4319 2.7868 0.9856 0
M  V30 26 H 0.1035 1.7522 2.3034 0
M  V30 27 H 2.7926 -3.4515 3.1902 0
M  V30 28 H 1.4357 -3.2764 4.3203 0
M  V30 29 H 2.4646 -1.8818 3.9462 0
M  V30 30 H -2.7184 2.7258 -1.1043 0
M  V30 31 H -3.4791 1.3993 -2.0023 0
M  V30 32 H -4.1759 1.9465 -0.471 0
M  V30 33 H 1.0839 4.0148 2.4954 0
M  V30 34 H 2.3671 2.8225 2.2278 0
M  V30 35 H 1.8257 3.8603 0.8933 0
M  V30 36 H 1.8597 -0.8217 -3.4173 0
M  V30 37 H 1.2933 0.425 -2.3067 0
M  V30 38 H 1.76 -1.1884 -1.6758 0
M  V30 39 H -1.2431 -2.6818 -3.527 0
M  V30 40 H 0.4658 -3.0638 -3.2377 0
M  V30 41 H 0.0087 -1.9691 -4.5738 0
M  V30 END ATOM
M  V30 BEGIN BOND
M  V30 1 2 1 2
M  V30 2 1 2 3
M  V30 3 1 2 4
M  V30 4 1 3 5
M  V30 5 1 3 6
M  V30 6 2 4 7
M  V30 7 1 5 8
M  V30 8 1 5 9
M  V30 9 1 6 10
M  V30 10 1 7 11
M  V30 11 2 8 12
M  V30 12 1 8 13
M  V30 13 1 9 14
M  V30 14 1 10 15
M  V30 15 1 13 16
M  V30 16 1 13 17
M  V30 17 1 4 18
M  V30 18 1 5 19
M  V30 19 1 6 20
M  V30 20 1 6 21
M  V30 21 1 7 22
M  V30 22 1 9 23
M  V30 23 1 9 24
M  V30 24 1 10 25
M  V30 25 1 10 26
M  V30 26 1 11 27
M  V30 27 1 11 28
M  V30 28 1 11 29
M  V30 29 1 14 30
M  V30 30 1 14 31
M  V30 31 1 14 32
M  V30 32 1 15 33
M  V30 33 1 15 34
M  V30 34 1 15 35
M  V30 35 1 16 36
M  V30 36 1 16 37
M  V30 37 1 16 38
M  V30 38 1 17 39
M  V30 39 1 17 40
M  V30 40 1 17 41
M  V30 END BOND
M  V30 BEGIN COLLECTION
M  V30 MDLV30/STERAC1 ATOMS=(1 5)
M  V30 END COLLECTION
M  V30 END CTAB
M  END
>  <Column 1>
936

>  <level_0>
1069

>  <index>
1069

>  <Unnamed: 0>
1069

>  <NO.>
1081

>  <Name>
cropropamide

>  <IUPAC_name>
2-[[(e)-but-2-enoyl]-propylamino]-n-n-dimethylbutanamide

>  <SMILES>
C/C=C/C(=O)N(CCC)C(CC)C(=O)N(C)C

>  <CID>
5369258

>  <logBB>


>  <BBB+/BBB->
BBB+

>  <Inchi>
InChI=1S/C13H24N2O2/c1-6-9-12(16)15(10-7-2)11(8-3)13(17)14(4)5/h6-9-11H-7-8-10H2-1-5H3/b9-6+

>  <threshold>
-1

>  <reference>
R1|R6|R27|R30|

>  <group>
B

>  <Class>
-1

>  <ABC>
11.59

>  <ABCGG>
12.15

>  <nAcid>
0

>  <nBase>
0

>  <nAromAtom>
0

>  <nAromBond>
0

>  <nAtom>
41

>  <nHeavyAtom>
17

>  <nSpiro>
0

>  <nBridgehead>
0

>  <nHetero>
4

>  <nN>
2

>  <nO>
2

>  <nF>
0

>  <BalabanJ>
4.72

>  <BertzCT>
285.14

>  <nBonds>
40

>  <nBondsO>
16

>  <nBondsS>
37

>  <nBondsD>
3

>  <nBondsT>
0

>  <nBondsA>
0

>  <nBondsM>
3

>  <nBondsKS>
37

>  <nBondsKD>
3

>  <RNCG>
0.23

>  <RPCG>
0.16

>  <FCSP3>
0.69

>  <SZ>
22

>  <Sm>
20.01

>  <Sv>
22.45

>  <Sse>
40.64

>  <Sp>
24.86

>  <Si>
46.98

>  <MZ>
0.54

>  <Mm>
0.49

>  <Mv>
0.55

>  <Mse>
0.99

>  <Mp>
0.61

>  <Mi>
1.15

>  <NsCH3>
5

>  <NdCH2>
0

>  <NssCH2>
3

>  <NtCH>
0

>  <NdsCH>
2

>  <NaaCH>
0

>  <NsssCH>
1

>  <NddC>
0

>  <NtsC>
0

>  <NdssC>
2

>  <NaasC>
0

>  <NaaaC>
0

>  <NssssC>
0

>  <NsNH3>
0

>  <NsNH2>
0

>  <NssNH2>
0

>  <NdNH>
0

>  <NssNH>
0

>  <NaaNH>
0

>  <NtN>
0

>  <NsssNH>
0

>  <NdsN>
0

>  <NaaN>
0

>  <NsssN>
2

>  <NddsN>
0

>  <NaasN>
0

>  <NssssN>
0

>  <NsOH>
0

>  <NdO>
2

>  <NssO>
0

>  <NaaO>
0

>  <NsF>
0

>  <NsSiH3>
0

>  <NssSiH2>
0

>  <NsssSiH>
0

>  <NssssSi>
0

>  <NsPH2>
0

>  <NssPH>
0

>  <NsssP>
0

>  <NdsssP>
0

>  <NsssssP>
0

>  <NsSH>
0

>  <NdS>
0

>  <NssS>
0

>  <NaaS>
0

>  <NdssS>
0

>  <NddssS>
0

>  <NsCl>
0

>  <NsBr>
0

>  <NsI>
0

>  <fragCpx>
16.04

>  <fMF>
0

>  <nHBAcc>
2

>  <nHBDon>
0

>  <Kier1>
17

>  <Kier2>
9

>  <Lipinski>
1

>  <GhoseFilter>
1

>  <FilterItLogS>
-1.75

>  <VMcGowan>
212.83

>  <LabuteASA>
104.27

>  <PEOE_VSA1>
9.8

>  <PEOE_VSA2>
9.59

>  <PEOE_VSA3>
0

>  <PEOE_VSA4>
0

>  <PEOE_VSA5>
0

>  <PEOE_VSA6>
19.92

>  <PEOE_VSA7>
25.84

>  <PEOE_VSA8>
20.64

>  <PEOE_VSA9>
0

>  <PEOE_VSA10>
6.04

>  <PEOE_VSA11>
0

>  <PEOE_VSA12>
11.81

>  <PEOE_VSA13>
0

>  <SMR_VSA1>
9.59

>  <SMR_VSA2>
0

>  <SMR_VSA3>
9.8

>  <SMR_VSA4>
0

>  <SMR_VSA5>
39.65

>  <SMR_VSA6>
20.64

>  <SMR_VSA7>
12.15

>  <SMR_VSA8>
0

>  <SMR_VSA9>
0

>  <SlogP_VSA1>
0

>  <SlogP_VSA2>
48.3

>  <SlogP_VSA3>
9.59

>  <SlogP_VSA4>
0

>  <SlogP_VSA5>
33.61

>  <SlogP_VSA6>
12.15

>  <SlogP_VSA7>
0

>  <SlogP_VSA8>
0

>  <SlogP_VSA9>
0

>  <SlogP_VSA10>
0

>  <SlogP_VSA11>
0

>  <EState_VSA1>
0

>  <EState_VSA2>
17.86

>  <EState_VSA3>
12.97

>  <EState_VSA4>
6.42

>  <EState_VSA5>
6.08

>  <EState_VSA6>
36.89

>  <EState_VSA7>
13.85

>  <EState_VSA8>
0

>  <EState_VSA9>
0

>  <EState_VSA10>
9.59

>  <VSA_EState1>
0

>  <VSA_EState2>
27.13

>  <VSA_EState3>
0

>  <VSA_EState4>
0

>  <VSA_EState5>
-0.1

>  <VSA_EState6>
-0.35

>  <VSA_EState7>
4.71

>  <VSA_EState8>
6.35

>  <VSA_EState9>
3.44

>  <apol>
41.52

>  <bpol>
29.23

>  <nRing>
0

>  <nHRing>
0

>  <naRing>
0

>  <naHRing>
0

>  <nARing 2>
0

>  <nAHRing 2>
0

>  <nFRing>
0

>  <nFHRing>
0

>  <nFaRing>
0

>  <nFaHRing>
0

>  <nFARing 2>
0

>  <nFAHRing 2>
0

>  <nRot>
6

>  <SLogP>
1.67

>  <SMR>
69.59

>  <TopoPSA(NO)>
40.62

>  <TopoPSA>
40.62

>  <JGI1>
0.22

>  <JGI2>
0.12

>  <JGI3>
0.07

>  <JGI4>
0.04

>  <JGI5>
0.03

>  <Diameter>
8

>  <Radius>
4

>  <TMWC10>
101.38

>  <TSRW10>
48.41

>  <MW>
240.18

>  <AMW>
5.86

>  <WPath>
520

>  <WPol>
24

>  <Zagreb1>
72

>  <Zagreb2>
80

>  <mZagreb2>
4.28

>  <yes>


>  <nAR-cont>
0.336376

>  <nHA-cont>
0.976740822

>  <MWHBN>
0.12905106

>  <MWHBN-cont>
0.865958417

>  <TPSA-cont>
0.716447176

>  <pka_cont>
0.97

>  <yes.1>


>  <BBB_SCORE>
4.529948801

>  <MMFF94 Energy>
14.044

$$$$
Compound 782
Actelion Java MolfileCreator 2.0

  0  0  0  0  0  0              0 V3000
M  V30 BEGIN CTAB
M  V30 COUNTS 46 48 0 0 0
M  V30 BEGIN ATOM
M  V30 1 S 0.5657 0.6465 0.2424 0
M  V30 2 C 1.7296 -0.0356 -0.9636 0 CFG=1
M  V30 3 C 1.7427 0.4902 1.6257 0
M  V30 4 N 2.0224 -1.3837 -0.5399 0
M  V30 5 C 1.1683 -0.6601 -2.279 0 CFG=1
M  V30 6 C 2.4133 -0.8772 1.7416 0
M  V30 7 C 2.4637 -1.7424 0.6958 0
M  V30 8 C 1.6401 -2.0169 -1.6655 0
M  V30 9 N -0.291 -0.5464 -2.5434 0
M  V30 10 C 2.9705 -1.2044 3.0628 0
M  V30 11 C 2.9942 -3.1288 0.8286 0
M  V30 12 O 1.602 -3.1821 -1.9828 0
M  V30 13 C -0.8253 0.612 -3.0702 0
M  V30 14 C 3.1513 -0.3577 4.0908 0
M  V30 15 O 2.6545 -3.9722 1.6382 0
M  V30 16 O 3.9651 -3.3587 -0.0763 0
M  V30 17 O -0.1178 1.5791 -3.3588 0
M  V30 18 C -2.3669 0.5997 -3.2463 0 CFG=2
M  V30 19 C 3.7299 -0.7728 5.4079 0
M  V30 20 N -2.7286 1.3271 -4.476 0
M  V30 21 C -3.0848 1.1754 -2.0386 0
M  V30 22 C -2.7156 2.4112 -1.4813 0
M  V30 23 C -4.1709 0.4825 -1.4757 0
M  V30 24 C -3.3995 2.9272 -0.3789 0
M  V30 25 C -4.8558 1.0001 -0.3727 0
M  V30 26 C -4.4613 2.2188 0.1675 0
M  V30 27 O -5.1008 2.7605 1.2429 0
M  V30 28 H 2.6293 0.5704 -1.1229 0
M  V30 29 H 1.1478 0.7015 2.5206 0
M  V30 30 H 2.5054 1.2713 1.5305 0
M  V30 31 H 1.7495 -0.3981 -3.1723 0
M  V30 32 H -0.913 -1.3074 -2.2939 0
M  V30 33 H 3.2826 -2.2359 3.2247 0
M  V30 34 H 2.8905 0.6943 4.0201 0
M  V30 35 H 4.1766 -4.3077 0.0404 0
M  V30 36 H -2.6742 -0.4436 -3.3878 0
M  V30 37 H 3.0119 -0.5713 6.2088 0
M  V30 38 H 3.9822 -1.8375 5.4359 0
M  V30 39 H 4.6408 -0.201 5.6101 0
M  V30 40 H -3.7167 1.5708 -4.4353 0
M  V30 41 H -2.219 2.2141 -4.4666 0
M  V30 42 H -1.8868 2.9828 -1.8961 0
M  V30 43 H -4.4951 -0.4678 -1.8951 0
M  V30 44 H -3.1019 3.8794 0.0512 0
M  V30 45 H -5.6889 0.4435 0.0448 0
M  V30 46 H -5.8046 2.1533 1.5237 0
M  V30 END ATOM
M  V30 BEGIN BOND
M  V30 1 1 1 2
M  V30 2 1 1 3
M  V30 3 1 2 4
M  V30 4 1 2 5
M  V30 5 1 3 6
M  V30 6 1 4 7
M  V30 7 1 4 8
M  V30 8 1 5 9
M  V30 9 1 6 10
M  V30 10 1 7 11
M  V30 11 2 8 12
M  V30 12 1 9 13
M  V30 13 2 10 14
M  V30 14 2 11 15
M  V30 15 1 11 16
M  V30 16 2 13 17
M  V30 17 1 13 18
M  V30 18 1 14 19
M  V30 19 1 18 20
M  V30 20 1 18 21
M  V30 21 2 21 22
M  V30 22 1 21 23
M  V30 23 1 22 24
M  V30 24 2 23 25
M  V30 25 2 24 26
M  V30 26 1 26 27
M  V30 27 1 5 8
M  V30 28 2 6 7
M  V30 29 1 25 26
M  V30 30 1 2 28
M  V30 31 1 3 29
M  V30 32 1 3 30
M  V30 33 1 5 31
M  V30 34 1 9 32
M  V30 35 1 10 33
M  V30 36 1 14 34
M  V30 37 1 16 35
M  V30 38 1 18 36
M  V30 39 1 19 37
M  V30 40 1 19 38
M  V30 41 1 19 39
M  V30 42 1 20 40
M  V30 43 1 20 41
M  V30 44 1 22 42
M  V30 45 1 23 43
M  V30 46 1 24 44
M  V30 47 1 25 45
M  V30 48 1 27 46
M  V30 END BOND
M  V30 BEGIN COLLECTION
M  V30 MDLV30/STEABS ATOMS=(3 2 5 18)
M  V30 END COLLECTION
M  V30 END CTAB
M  END
>  <Column 1>
937

>  <level_0>
1070

>  <index>
1070

>  <Unnamed: 0>
1070

>  <NO.>
1082

>  <Name>
cefprozil

>  <IUPAC_name>
(6r-7r)-7-[[(2r)-2-amino-2-(4-hydroxyphenyl)acetyl]amino]-8-oxo-3-[(e)-prop-1-enyl]-5-thia-1-azabicyclo[4.2.0]oct-2-ene-2-carboxylic acid;hydrate

>  <SMILES>
C/C=C/C1=C(C(=O)O)N2C(=O)[C@@H](NC(=O)[C@H](N)c3ccc(O)cc3)[C@H]2SC1

>  <CID>
5281006

>  <logBB>


>  <BBB+/BBB->
BBB-

>  <Inchi>
InChI=1S/C18H19N3O5S/c1-2-3-10-8-27-17-13(16(24)21(17)14(10)18(25)26)20-15(23)12(19)9-4-6-11(22)7-5-9/h2-7-12-13-17-22H-8-19H2-1H3-(H-20-23)(H-25-26)/b3-2+/t12--13--17-/m1/s1

>  <threshold>
-1

>  <reference>
R1|R6|R24|R27|R27|R30|R30|

>  <group>
B

>  <Class>
-1

>  <ABC>
20.8

>  <ABCGG>
16.99

>  <nAcid>
1

>  <nBase>
1

>  <nAromAtom>
6

>  <nAromBond>
6

>  <nAtom>
46

>  <nHeavyAtom>
27

>  <nSpiro>
0

>  <nBridgehead>
0

>  <nHetero>
9

>  <nN>
3

>  <nO>
5

>  <nF>
0

>  <BalabanJ>
1.58

>  <BertzCT>
849.06

>  <nBonds>
48

>  <nBondsO>
29

>  <nBondsS>
37

>  <nBondsD>
5

>  <nBondsT>
0

>  <nBondsA>
6

>  <nBondsM>
11

>  <nBondsKS>
40

>  <nBondsKD>
8

>  <RNCG>
0.16

>  <RPCG>
0.11

>  <FCSP3>
0.28

>  <SZ>
34

>  <Sm>
32.42

>  <Sv>
30.18

>  <Sse>
47.15

>  <Sp>
31.7

>  <Si>
51.78

>  <MZ>
0.74

>  <Mm>
0.7

>  <Mv>
0.66

>  <Mse>
1.03

>  <Mp>
0.69

>  <Mi>
1.13

>  <NsCH3>
1

>  <NdCH2>
0

>  <NssCH2>
1

>  <NtCH>
0

>  <NdsCH>
2

>  <NaaCH>
4

>  <NsssCH>
3

>  <NddC>
0

>  <NtsC>
0

>  <NdssC>
5

>  <NaasC>
2

>  <NaaaC>
0

>  <NssssC>
0

>  <NsNH3>
0

>  <NsNH2>
1

>  <NssNH2>
0

>  <NdNH>
0

>  <NssNH>
1

>  <NaaNH>
0

>  <NtN>
0

>  <NsssNH>
0

>  <NdsN>
0

>  <NaaN>
0

>  <NsssN>
1

>  <NddsN>
0

>  <NaasN>
0

>  <NssssN>
0

>  <NsOH>
2

>  <NdO>
3

>  <NssO>
0

>  <NaaO>
0

>  <NsF>
0

>  <NsSiH3>
0

>  <NssSiH2>
0

>  <NsssSiH>
0

>  <NssssSi>
0

>  <NsPH2>
0

>  <NssPH>
0

>  <NsssP>
0

>  <NdsssP>
0

>  <NsssssP>
0

>  <NsSH>
0

>  <NdS>
0

>  <NssS>
1

>  <NaaS>
0

>  <NdssS>
0

>  <NddssS>
0

>  <NsCl>
0

>  <NsBr>
0

>  <NsI>
0

>  <fragCpx>
139.09

>  <fMF>
0.37

>  <nHBAcc>
6

>  <nHBDon>
4

>  <Kier1>
21.7

>  <Kier2>
9.21

>  <Lipinski>
1

>  <GhoseFilter>
1

>  <FilterItLogS>
-1.19

>  <VMcGowan>
273.14

>  <LabuteASA>
159.27

>  <PEOE_VSA1>
21.26

>  <PEOE_VSA2>
14.49

>  <PEOE_VSA3>
4.79

>  <PEOE_VSA4>
0

>  <PEOE_VSA5>
11.76

>  <PEOE_VSA6>
24.28

>  <PEOE_VSA7>
30.19

>  <PEOE_VSA8>
5.75

>  <PEOE_VSA9>
0

>  <PEOE_VSA10>
28.9

>  <PEOE_VSA11>
0

>  <PEOE_VSA12>
5.91

>  <PEOE_VSA13>
5.91

>  <SMR_VSA1>
24.6

>  <SMR_VSA2>
0

>  <SMR_VSA3>
10.22

>  <SMR_VSA4>
5.73

>  <SMR_VSA5>
24.38

>  <SMR_VSA6>
5.75

>  <SMR_VSA7>
53.25

>  <SMR_VSA8>
0

>  <SMR_VSA9>
5.75

>  <SlogP_VSA1>
11.05

>  <SlogP_VSA2>
50.07

>  <SlogP_VSA3>
14.38

>  <SlogP_VSA4>
0

>  <SlogP_VSA5>
18.53

>  <SlogP_VSA6>
47.69

>  <SlogP_VSA7>
0

>  <SlogP_VSA8>
0

>  <SlogP_VSA9>
0

>  <SlogP_VSA10>
0

>  <SlogP_VSA11>
5.75

>  <EState_VSA1>
35.24

>  <EState_VSA2>
11.45

>  <EState_VSA3>
16.89

>  <EState_VSA4>
0

>  <EState_VSA5>
40.93

>  <EState_VSA6>
19.08

>  <EState_VSA7>
0

>  <EState_VSA8>
5.32

>  <EState_VSA9>
5.73

>  <EState_VSA10>
24.6

>  <VSA_EState1>
0

>  <VSA_EState2>
37.73

>  <VSA_EState3>
20.93

>  <VSA_EState4>
6.93

>  <VSA_EState5>
-1.71

>  <VSA_EState6>
4.06

>  <VSA_EState7>
3.39

>  <VSA_EState8>
1.77

>  <VSA_EState9>
0

>  <apol>
52.94

>  <bpol>
25.83

>  <nRing>
3

>  <nHRing>
2

>  <naRing>
1

>  <naHRing>
0

>  <nARing 2>
2

>  <nAHRing 2>
2

>  <nFRing>
1

>  <nFHRing>
1

>  <nFaRing>
0

>  <nFaHRing>
0

>  <nFARing 2>
1

>  <nFAHRing 2>
1

>  <nRot>
5

>  <SLogP>
0.71

>  <SMR>
99.53

>  <TopoPSA(NO)>
132.96

>  <TopoPSA>
158.26

>  <JGI1>
0.19

>  <JGI2>
0.09

>  <JGI3>
0.07

>  <JGI4>
0.05

>  <JGI5>
0.04

>  <Diameter>
15

>  <Radius>
8

>  <TMWC10>
133.25

>  <TSRW10>
62.88

>  <MW>
389.1

>  <AMW>
8.46

>  <WPath>
1954

>  <WPol>
44

>  <Zagreb1>
142

>  <Zagreb2>
171

>  <mZagreb2>
6

>  <yes>


>  <nAR-cont>
1

>  <nHA-cont>
0.860070871

>  <MWHBN>
0.506954969

>  <MWHBN-cont>
0

>  <TPSA-cont>
0

>  <pka_cont>
0.97

>  <yes.1>


>  <BBB_SCORE>
2.345070871

>  <MMFF94 Energy>
74.161

$$$$
Compound 783
Actelion Java MolfileCreator 2.0

  0  0  0  0  0  0              0 V3000
M  V30 BEGIN CTAB
M  V30 COUNTS 76 81 0 0 0
M  V30 BEGIN ATOM
M  V30 1 O -0.1617 0.6471 -7.2173 0
M  V30 2 C -0.3933 0.1024 -6.1414 0
M  V30 3 C 0.4142 -1.0682 -5.7246 0
M  V30 4 C -1.4044 0.6384 -5.1602 0
M  V30 5 C 0.1307 -1.7428 -4.5964 0
M  V30 6 C -2.0824 -0.5185 -4.4462 0
M  V30 7 C -1.095 -1.4717 -3.713 0 CFG=2
M  V30 8 C 1.1168 -2.737 -4.0389 0
M  V30 9 C -0.5185 -0.8602 -2.3792 0 CFG=1
M  V30 10 C -1.8729 -2.796 -3.5074 0
M  V30 11 C 1.6625 -2.2032 -2.7147 0
M  V30 12 C -1.5629 -0.3255 -1.3551 0 CFG=1
M  V30 13 C 0.5545 -1.8041 -1.7085 0 CFG=1
M  V30 14 O -2.6 -1.2532 -1.0705 0
M  V30 15 C -0.9625 0.1787 -0.0224 0
M  V30 16 C 1.1559 -1.1011 -0.468 0 CFG=2
M  V30 17 C 0.0811 -0.7804 0.5949 0 CFG=1
M  V30 18 O 1.715 0.1348 -0.9634 0
M  V30 19 C 2.2296 -1.8717 0.3184 0
M  V30 20 C 1.0466 -0.1755 1.6537 0 CFG=1
M  V30 21 C -0.6392 -2.0295 1.1764 0
M  V30 22 C 2.3249 0.9768 0.002 0
M  V30 23 C 2.1996 -1.2227 1.7239 0
M  V30 24 O 1.5598 1.0771 1.1954 0
M  V30 25 C 0.3951 0.0498 3.031 0
M  V30 26 C 2.3693 2.3494 -0.5927 0
M  V30 27 O 0.3464 -0.8495 3.8761 0
M  V30 28 C -0.2148 1.4255 3.2855 0
M  V30 29 C 3.4383 3.126 -0.8396 0
M  V30 30 O -0.9367 1.4139 4.519 0
M  V30 31 C 4.8761 2.8166 -0.5779 0
M  V30 32 C -1.5548 2.5804 4.8115 0
M  V30 33 O -1.542 3.5865 4.121 0
M  V30 34 C -2.2704 2.4788 6.1088 0
M  V30 35 C -2.9796 3.5939 6.5585 0
M  V30 36 C -2.2543 1.3163 6.882 0
M  V30 37 C -3.6452 3.4981 7.7662 0
M  V30 38 C -2.9526 1.3228 8.0757 0
M  V30 39 N -3.6464 2.3871 8.533 0
M  V30 40 H 1.293 -1.2649 -6.3284 0
M  V30 41 H -2.1555 1.2127 -5.7135 0
M  V30 42 H -0.9016 1.3142 -4.4616 0
M  V30 43 H -2.6353 -1.0912 -5.2062 0
M  V30 44 H -2.8459 -0.1349 -3.7613 0
M  V30 45 H 1.9538 -2.901 -4.7285 0
M  V30 46 H 0.6445 -3.7147 -3.8975 0
M  V30 47 H 0.0347 0.0407 -2.6878 0
M  V30 48 H -1.3756 -3.488 -2.823 0
M  V30 49 H -2.881 -2.6179 -3.1191 0
M  V30 50 H -2.0003 -3.3255 -4.4603 0
M  V30 51 H 2.3093 -2.9677 -2.2679 0
M  V30 52 H 2.3055 -1.3389 -2.9264 0
M  V30 53 H -2.0681 0.5376 -1.8035 0
M  V30 54 H 0.0701 -2.7329 -1.3923 0
M  V30 55 H -2.2383 -2.1511 -1.0405 0
M  V30 56 H -1.7724 0.3484 0.698 0
M  V30 57 H -0.5177 1.1616 -0.2118 0
M  V30 58 H 1.986 -2.937 0.3973 0
M  V30 59 H 3.2254 -1.7813 -0.128 0
M  V30 60 H 0.0153 -2.6653 1.7791 0
M  V30 61 H -1.468 -1.7269 1.8269 0
M  V30 62 H -1.0526 -2.6855 0.4115 0
M  V30 63 H 3.3305 0.614 0.2257 0
M  V30 64 H 2.0304 -2.001 2.4758 0
M  V30 65 H 3.1625 -0.7597 1.9664 0
M  V30 66 H 1.3922 2.7515 -0.8548 0
M  V30 67 H 0.5979 2.1565 3.3492 0
M  V30 68 H -0.8975 1.6666 2.466 0
M  V30 69 H 3.2558 4.1041 -1.2844 0
M  V30 70 H 5.2981 3.5702 0.0944 0
M  V30 71 H 5.0353 1.8367 -0.1238 0
M  V30 72 H 5.4363 2.8471 -1.5176 0
M  V30 73 H -3.0139 4.5142 5.9843 0
M  V30 74 H -1.717 0.425 6.5757 0
M  V30 75 H -4.2123 4.3359 8.1626 0
M  V30 76 H -2.974 0.4458 8.7171 0
M  V30 END ATOM
M  V30 BEGIN BOND
M  V30 1 2 1 2
M  V30 2 1 2 3
M  V30 3 1 2 4
M  V30 4 2 3 5
M  V30 5 1 4 6
M  V30 6 1 5 7
M  V30 7 1 5 8
M  V30 8 1 7 9
M  V30 9 1 7 10
M  V30 10 1 8 11
M  V30 11 1 9 12
M  V30 12 1 9 13
M  V30 13 1 12 14
M  V30 14 1 12 15
M  V30 15 1 13 16
M  V30 16 1 15 17
M  V30 17 1 16 18
M  V30 18 1 16 19
M  V30 19 1 17 20
M  V30 20 1 17 21
M  V30 21 1 18 22
M  V30 22 1 19 23
M  V30 23 1 20 24
M  V30 24 1 20 25
M  V30 25 1 22 26
M  V30 26 2 25 27
M  V30 27 1 25 28
M  V30 28 2 26 29
M  V30 29 1 28 30
M  V30 30 1 29 31
M  V30 31 1 30 32
M  V30 32 2 32 33
M  V30 33 1 32 34
M  V30 34 2 34 35
M  V30 35 1 34 36
M  V30 36 1 35 37
M  V30 37 2 36 38
M  V30 38 2 37 39
M  V30 39 1 6 7
M  V30 40 1 11 13
M  V30 41 1 16 17
M  V30 42 1 20 23
M  V30 43 1 22 24
M  V30 44 1 38 39
M  V30 45 1 3 40
M  V30 46 1 4 41
M  V30 47 1 4 42
M  V30 48 1 6 43
M  V30 49 1 6 44
M  V30 50 1 8 45
M  V30 51 1 8 46
M  V30 52 1 9 47
M  V30 53 1 10 48
M  V30 54 1 10 49
M  V30 55 1 10 50
M  V30 56 1 11 51
M  V30 57 1 11 52
M  V30 58 1 12 53
M  V30 59 1 13 54
M  V30 60 1 14 55
M  V30 61 1 15 56
M  V30 62 1 15 57
M  V30 63 1 19 58
M  V30 64 1 19 59
M  V30 65 1 21 60
M  V30 66 1 21 61
M  V30 67 1 21 62
M  V30 68 1 22 63
M  V30 69 1 23 64
M  V30 70 1 23 65
M  V30 71 1 26 66
M  V30 72 1 28 67
M  V30 73 1 28 68
M  V30 74 1 29 69
M  V30 75 1 31 70
M  V30 76 1 31 71
M  V30 77 1 31 72
M  V30 78 1 35 73
M  V30 79 1 36 74
M  V30 80 1 37 75
M  V30 81 1 38 76
M  V30 END BOND
M  V30 BEGIN COLLECTION
M  V30 MDLV30/STEABS ATOMS=(7 7 9 12 13 16 17 20)
M  V30 END COLLECTION
M  V30 END CTAB
M  END
>  <Column 1>
939

>  <level_0>
1072

>  <index>
1072

>  <Unnamed: 0>
1072

>  <NO.>
1084

>  <Name>
nicocortonida

>  <IUPAC_name>
[2-[(1r-2r-10r-11s-12s-14s-15r)-12-hydroxy-10-14-dimethyl-7-oxo-17-[(z)-prop-1-enyl]-16-18-dioxapentacyclo[13.3.2.01-14.02-11.05-10]icos-5-en-15-yl]-2-oxoethyl] pyridine-4-carboxylate

>  <SMILES>
C/C=C\C1O[C@]2(C(=O)COC(=O)c3ccncc3)CC[C@@]3(O1)[C@@H]1CCC4=CC(=O)CC[C@]4(C)[C@H]1[C@@H](O)C[C@]23C

>  <CID>
6436148

>  <logBB>


>  <BBB+/BBB->
BBB+

>  <Inchi>
InChI=1S/C31H37NO7/c1-4-5-25-38-30-12-13-31(39-25-24(35)18-37-27(36)19-9-14-32-15-10-19)29(30-3)17-23(34)26-22(30)7-6-20-16-21(33)8-11-28(20-26)2/h4-5-9-10-14-16-22-23-25-26-34H-6-8-11-13-17-18H2-1-3H3/b5-4-/t22--23+-25?-26--28+-29+-30--31+/m1/s1

>  <threshold>
-1

>  <reference>
R1|R6|R27|R30|

>  <group>
B

>  <Class>
1

>  <ABC>
31.31

>  <ABCGG>
23.56

>  <nAcid>
0

>  <nBase>
0

>  <nAromAtom>
6

>  <nAromBond>
6

>  <nAtom>
76

>  <nHeavyAtom>
39

>  <nSpiro>
0

>  <nBridgehead>
2

>  <nHetero>
8

>  <nN>
1

>  <nO>
7

>  <nF>
0

>  <BalabanJ>
1.3

>  <BertzCT>
1258.65

>  <nBonds>
81

>  <nBondsO>
44

>  <nBondsS>
70

>  <nBondsD>
5

>  <nBondsT>
0

>  <nBondsA>
6

>  <nBondsM>
11

>  <nBondsKS>
73

>  <nBondsKD>
8

>  <RNCG>
0.14

>  <RPCG>
0.11

>  <FCSP3>
0.61

>  <SZ>
47.67

>  <Sm>
44.6

>  <Sv>
46.79

>  <Sse>
76.4

>  <Sp>
49.79

>  <Si>
85.44

>  <MZ>
0.63

>  <Mm>
0.59

>  <Mv>
0.62

>  <Mse>
1.01

>  <Mp>
0.66

>  <Mi>
1.12

>  <NsCH3>
3

>  <NdCH2>
0

>  <NssCH2>
8

>  <NtCH>
0

>  <NdsCH>
3

>  <NaaCH>
4

>  <NsssCH>
4

>  <NddC>
0

>  <NtsC>
0

>  <NdssC>
4

>  <NaasC>
1

>  <NaaaC>
0

>  <NssssC>
4

>  <NsNH3>
0

>  <NsNH2>
0

>  <NssNH2>
0

>  <NdNH>
0

>  <NssNH>
0

>  <NaaNH>
0

>  <NtN>
0

>  <NsssNH>
0

>  <NdsN>
0

>  <NaaN>
1

>  <NsssN>
0

>  <NddsN>
0

>  <NaasN>
0

>  <NssssN>
0

>  <NsOH>
1

>  <NdO>
3

>  <NssO>
3

>  <NaaO>
0

>  <NsF>
0

>  <NsSiH3>
0

>  <NssSiH2>
0

>  <NsssSiH>
0

>  <NssssSi>
0

>  <NsPH2>
0

>  <NssPH>
0

>  <NsssP>
0

>  <NdsssP>
0

>  <NsssssP>
0

>  <NsSH>
0

>  <NdS>
0

>  <NssS>
0

>  <NaaS>
0

>  <NdssS>
0

>  <NddssS>
0

>  <NsCl>
0

>  <NsBr>
0

>  <NsI>
0

>  <fragCpx>
454.08

>  <fMF>
0.39

>  <nHBAcc>
8

>  <nHBDon>
1

>  <Kier1>
29.09

>  <Kier2>
10.62

>  <Lipinski>
0

>  <GhoseFilter>
0

>  <FilterItLogS>
-5.06

>  <VMcGowan>
399.16

>  <LabuteASA>
228.35

>  <PEOE_VSA1>
19.32

>  <PEOE_VSA2>
14.57

>  <PEOE_VSA3>
4.79

>  <PEOE_VSA4>
0

>  <PEOE_VSA5>
0

>  <PEOE_VSA6>
25.5

>  <PEOE_VSA7>
86.98

>  <PEOE_VSA8>
24.23

>  <PEOE_VSA9>
17.27

>  <PEOE_VSA10>
5.6

>  <PEOE_VSA11>
18.68

>  <PEOE_VSA12>
5.78

>  <PEOE_VSA13>
0

>  <SMR_VSA1>
33.7

>  <SMR_VSA2>
0

>  <SMR_VSA3>
4.98

>  <SMR_VSA4>
22.67

>  <SMR_VSA5>
89.31

>  <SMR_VSA6>
6.61

>  <SMR_VSA7>
53.89

>  <SMR_VSA8>
0

>  <SMR_VSA9>
0

>  <SlogP_VSA1>
0

>  <SlogP_VSA2>
57.83

>  <SlogP_VSA3>
23.8

>  <SlogP_VSA4>
22.67

>  <SlogP_VSA5>
76.07

>  <SlogP_VSA6>
48.33

>  <SlogP_VSA7>
0

>  <SlogP_VSA8>
0

>  <SlogP_VSA9>
0

>  <SlogP_VSA10>
0

>  <SlogP_VSA11>
0

>  <EState_VSA1>
41.59

>  <EState_VSA2>
28.82

>  <EState_VSA3>
37.67

>  <EState_VSA4>
18.41

>  <EState_VSA5>
12.39

>  <EState_VSA6>
12.13

>  <EState_VSA7>
32.08

>  <EState_VSA8>
11.91

>  <EState_VSA9>
14.21

>  <EState_VSA10>
19.49

>  <VSA_EState1>
18.87

>  <VSA_EState2>
42.93

>  <VSA_EState3>
11.83

>  <VSA_EState4>
-1.61

>  <VSA_EState5>
-0.82

>  <VSA_EState6>
3.09

>  <VSA_EState7>
11.2

>  <VSA_EState8>
5.67

>  <VSA_EState9>
0

>  <apol>
83.16

>  <bpol>
46.07

>  <nRing>
6

>  <nHRing>
2

>  <naRing>
1

>  <naHRing>
1

>  <nARing 2>
5

>  <nAHRing 2>
1

>  <nFRing>
1

>  <nFHRing>
1

>  <nFaRing>
0

>  <nFaHRing>
0

>  <nFARing 2>
1

>  <nFAHRing 2>
1

>  <nRot>
5

>  <SLogP>
4.12

>  <SMR>
140.37

>  <TopoPSA(NO)>
112.02

>  <TopoPSA>
112.02

>  <JGI1>
0.25

>  <JGI2>
0.12

>  <JGI3>
0.07

>  <JGI4>
0.05

>  <JGI5>
0.03

>  <Diameter>
17

>  <Radius>
9

>  <TMWC10>
166.86

>  <TSRW10>
92.58

>  <MW>
535.26

>  <AMW>
7.04

>  <WPath>
4527

>  <WPol>
87

>  <Zagreb1>
228

>  <Zagreb2>
291

>  <mZagreb2>
8.29

>  <yes>


>  <nAR-cont>
0

>  <nHA-cont>
0.348277641

>  <MWHBN>
0.389009417

>  <MWHBN-cont>
0.519366581

>  <TPSA-cont>
0.21803084

>  <pka_cont>
0.97

>  <yes.1>


>  <BBB_SCORE>
2.048389192

>  <MMFF94 Energy>
102.2

$$$$
Compound 784
Actelion Java MolfileCreator 2.0

  0  0  0  0  0  0              0 V3000
M  V30 BEGIN CTAB
M  V30 COUNTS 32 34 0 0 0
M  V30 BEGIN ATOM
M  V30 1 N 0.5582 3.5927 0.3189 0
M  V30 2 C -0.1832 2.5947 0.6954 0
M  V30 3 C -0.3192 4.3368 -0.5951 0
M  V30 4 C -1.5776 2.5752 0.1417 0
M  V30 5 C 0.3061 1.5091 1.6154 0
M  V30 6 N -1.7098 3.9344 -0.3814 0
M  V30 7 C 0.434 0.2133 0.8602 0
M  V30 8 C -0.4236 -0.808 1.0408 0
M  V30 9 C 1.6141 0.0814 -0.0775 0
M  V30 10 C -0.2419 -2.0821 0.3355 0
M  V30 11 C 1.3881 -0.9353 -1.2035 0
M  V30 12 C 0.6572 -2.1694 -0.741 0
M  V30 13 C -0.9697 -3.2133 0.7206 0
M  V30 14 C 0.8083 -3.3831 -1.4242 0
M  V30 15 C -0.803 -4.4228 0.0435 0
M  V30 16 C 0.0846 -4.5071 -1.0272 0
M  V30 17 H -0.0221 4.1344 -1.6307 0
M  V30 18 H -0.2099 5.4127 -0.4228 0
M  V30 19 H -2.3133 2.3651 0.9219 0
M  V30 20 H -1.6518 1.833 -0.6578 0
M  V30 21 H -0.4058 1.4229 2.4441 0
M  V30 22 H 1.2723 1.7936 2.0462 0
M  V30 23 H -2.0613 4.526 0.3711 0
M  V30 24 H -1.2555 -0.7356 1.7349 0
M  V30 25 H 1.8582 1.0469 -0.5351 0
M  V30 26 H 2.4871 -0.2147 0.5184 0
M  V30 27 H 0.7927 -0.4705 -1.9999 0
M  V30 28 H 2.3589 -1.205 -1.636 0
M  V30 29 H -1.6685 -3.1657 1.5518 0
M  V30 30 H 1.4869 -3.4562 -2.2706 0
M  V30 31 H -1.3688 -5.2986 0.3501 0
M  V30 32 H 0.2085 -5.4476 -1.5575 0
M  V30 END ATOM
M  V30 BEGIN BOND
M  V30 1 2 1 2
M  V30 2 1 1 3
M  V30 3 1 2 4
M  V30 4 1 2 5
M  V30 5 1 3 6
M  V30 6 1 5 7
M  V30 7 2 7 8
M  V30 8 1 7 9
M  V30 9 1 8 10
M  V30 10 1 9 11
M  V30 11 2 10 12
M  V30 12 1 10 13
M  V30 13 1 12 14
M  V30 14 2 13 15
M  V30 15 2 14 16
M  V30 16 1 4 6
M  V30 17 1 11 12
M  V30 18 1 15 16
M  V30 19 1 3 17
M  V30 20 1 3 18
M  V30 21 1 4 19
M  V30 22 1 4 20
M  V30 23 1 5 21
M  V30 24 1 5 22
M  V30 25 1 6 23
M  V30 26 1 8 24
M  V30 27 1 9 25
M  V30 28 1 9 26
M  V30 29 1 11 27
M  V30 30 1 11 28
M  V30 31 1 13 29
M  V30 32 1 14 30
M  V30 33 1 15 31
M  V30 34 1 16 32
M  V30 END BOND
M  V30 END CTAB
M  END
>  <Column 1>
940

>  <level_0>
1073

>  <index>
1073

>  <Unnamed: 0>
1073

>  <NO.>
1085

>  <Name>
schembl1232177

>  <IUPAC_name>
4-(3-4-dihydronaphthalen-2-ylmethyl)-2-5-dihydro-1h-imidazole

>  <SMILES>
C1=C(CC2=NCNC2)CCc2ccccc21

>  <CID>
124655

>  <logBB>


>  <BBB+/BBB->
BBB+

>  <Inchi>
InChI=1S/C14H16N2/c1-2-4-13-7-11(5-6-12(13)3-1)8-14-9-15-10-16-14/h1-4-7-15H-5-6-8-10H2

>  <threshold>
-1

>  <reference>
R1|R27|R30|

>  <group>
B

>  <Class>
1

>  <ABC>
12.69

>  <ABCGG>
10.32

>  <nAcid>
0

>  <nBase>
1

>  <nAromAtom>
6

>  <nAromBond>
6

>  <nAtom>
32

>  <nHeavyAtom>
16

>  <nSpiro>
0

>  <nBridgehead>
0

>  <nHetero>
2

>  <nN>
2

>  <nO>
0

>  <nF>
0

>  <BalabanJ>
1.5

>  <BertzCT>
457.56

>  <nBonds>
34

>  <nBondsO>
18

>  <nBondsS>
26

>  <nBondsD>
2

>  <nBondsT>
0

>  <nBondsA>
6

>  <nBondsM>
8

>  <nBondsKS>
29

>  <nBondsKD>
5

>  <RNCG>
0.28

>  <RPCG>
0.12

>  <FCSP3>
0.36

>  <SZ>
19

>  <Sm>
17.68

>  <Sv>
19.85

>  <Sse>
31.43

>  <Sp>
21.71

>  <Si>
35.9

>  <MZ>
0.59

>  <Mm>
0.55

>  <Mv>
0.62

>  <Mse>
0.98

>  <Mp>
0.68

>  <Mi>
1.12

>  <NsCH3>
0

>  <NdCH2>
0

>  <NssCH2>
5

>  <NtCH>
0

>  <NdsCH>
1

>  <NaaCH>
4

>  <NsssCH>
0

>  <NddC>
0

>  <NtsC>
0

>  <NdssC>
2

>  <NaasC>
2

>  <NaaaC>
0

>  <NssssC>
0

>  <NsNH3>
0

>  <NsNH2>
0

>  <NssNH2>
0

>  <NdNH>
0

>  <NssNH>
1

>  <NaaNH>
0

>  <NtN>
0

>  <NsssNH>
0

>  <NdsN>
1

>  <NaaN>
0

>  <NsssN>
0

>  <NddsN>
0

>  <NaasN>
0

>  <NssssN>
0

>  <NsOH>
0

>  <NdO>
0

>  <NssO>
0

>  <NaaO>
0

>  <NsF>
0

>  <NsSiH3>
0

>  <NssSiH2>
0

>  <NsssSiH>
0

>  <NssssSi>
0

>  <NsPH2>
0

>  <NssPH>
0

>  <NsssP>
0

>  <NdsssP>
0

>  <NsssssP>
0

>  <NsSH>
0

>  <NdS>
0

>  <NssS>
0

>  <NaaS>
0

>  <NdssS>
0

>  <NddssS>
0

>  <NsCl>
0

>  <NsBr>
0

>  <NsI>
0

>  <fragCpx>
84.02

>  <fMF>
0.5

>  <nHBAcc>
2

>  <nHBDon>
1

>  <Kier1>
11.11

>  <Kier2>
5.1

>  <Lipinski>
1

>  <GhoseFilter>
1

>  <FilterItLogS>
-3.98

>  <VMcGowan>
174

>  <LabuteASA>
96.09

>  <PEOE_VSA1>
0

>  <PEOE_VSA2>
10.31

>  <PEOE_VSA3>
0

>  <PEOE_VSA4>
0

>  <PEOE_VSA5>
0

>  <PEOE_VSA6>
35.91

>  <PEOE_VSA7>
23.97

>  <PEOE_VSA8>
18.68

>  <PEOE_VSA9>
6.67

>  <PEOE_VSA10>
0

>  <PEOE_VSA11>
0

>  <PEOE_VSA12>
0

>  <PEOE_VSA13>
0

>  <SMR_VSA1>
0

>  <SMR_VSA2>
0

>  <SMR_VSA3>
5.32

>  <SMR_VSA4>
4.99

>  <SMR_VSA5>
19.26

>  <SMR_VSA6>
13.21

>  <SMR_VSA7>
40.97

>  <SMR_VSA8>
0

>  <SMR_VSA9>
0

>  <SlogP_VSA1>
5.32

>  <SlogP_VSA2>
18.93

>  <SlogP_VSA3>
6.42

>  <SlogP_VSA4>
0

>  <SlogP_VSA5>
23.97

>  <SlogP_VSA6>
34.83

>  <SlogP_VSA7>
0

>  <SlogP_VSA8>
6.08

>  <SlogP_VSA9>
0

>  <SlogP_VSA10>
0

>  <SlogP_VSA11>
0

>  <EState_VSA1>
0

>  <EState_VSA2>
0

>  <EState_VSA3>
0

>  <EState_VSA4>
19.63

>  <EState_VSA5>
35.25

>  <EState_VSA6>
0

>  <EState_VSA7>
0

>  <EState_VSA8>
40.65

>  <EState_VSA9>
0

>  <EState_VSA10>
0

>  <VSA_EState1>
0

>  <VSA_EState2>
4.45

>  <VSA_EState3>
3.25

>  <VSA_EState4>
5.72

>  <VSA_EState5>
0

>  <VSA_EState6>
8.69

>  <VSA_EState7>
5.78

>  <VSA_EState8>
1.78

>  <VSA_EState9>
0

>  <apol>
36.25

>  <bpol>
17.76

>  <nRing>
3

>  <nHRing>
1

>  <naRing>
1

>  <naHRing>
0

>  <nARing 2>
2

>  <nAHRing 2>
1

>  <nFRing>
1

>  <nFHRing>
0

>  <nFaRing>
0

>  <nFaHRing>
0

>  <nFARing 2>
1

>  <nFAHRing 2>
0

>  <nRot>
2

>  <SLogP>
2.41

>  <SMR>
67.66

>  <TopoPSA(NO)>
24.39

>  <TopoPSA>
24.39

>  <JGI1>
0.14

>  <JGI2>
0.05

>  <JGI3>
0.03

>  <JGI4>
0.03

>  <JGI5>
0.01

>  <Diameter>
9

>  <Radius>
5

>  <TMWC10>
104.47

>  <TSRW10>
61.47

>  <MW>
212.13

>  <AMW>
6.63

>  <WPath>
455

>  <WPol>
20

>  <Zagreb1>
84

>  <Zagreb2>
97

>  <mZagreb2>
3.53

>  <yes>


>  <nAR-cont>
1

>  <nHA-cont>
0.954961865

>  <MWHBN>
0.205977702

>  <MWHBN-cont>
0.999938427

>  <TPSA-cont>
0.829742655

>  <pka_cont>
0.97

>  <yes.1>


>  <BBB_SCORE>
5.599354815

>  <MMFF94 Energy>
34.21

$$$$
Compound 785
Actelion Java MolfileCreator 2.0

  0  0  0  0  0  0              0 V3000
M  V30 BEGIN CTAB
M  V30 COUNTS 34 36 0 0 0
M  V30 BEGIN ATOM
M  V30 1 O -2.5526 2.1534 -0.8768 0
M  V30 2 C -1.6281 1.0565 -1.0107 0 CFG=2
M  V30 3 C -3.522 2.1346 -1.9324 0
M  V30 4 C -2.3804 -0.2942 -1.029 0
M  V30 5 C -0.6334 1.1222 0.1539 0
M  V30 6 C -4.2958 0.809 -1.9547 0
M  V30 7 N -3.403 -0.3549 -2.0949 0
M  V30 8 O 0.3511 0.102 -0.0068 0
M  V30 9 C 1.3022 -3.0E-4 0.9647 0
M  V30 10 C 2.2142 -1.0342 0.8186 0
M  V30 11 C 1.4446 0.8316 2.0794 0
M  V30 12 C 3.2418 -1.2474 1.7483 0
M  V30 13 C 2.3028 -2.0671 -0.2633 0
M  V30 14 C 2.4771 0.618 3.014 0
M  V30 15 C 3.3863 -0.4294 2.8521 0
M  V30 16 C 4.0317 -2.3946 1.3356 0
M  V30 17 C 3.5025 -2.8634 0.1942 0
M  V30 18 H -1.0766 1.1747 -1.9533 0
M  V30 19 H -3.0156 2.3147 -2.8881 0
M  V30 20 H -4.2139 2.9653 -1.7608 0
M  V30 21 H -2.8787 -0.4602 -0.0657 0
M  V30 22 H -1.6784 -1.1219 -1.176 0
M  V30 23 H -0.1582 2.1116 0.1554 0
M  V30 24 H -1.1731 0.996 1.1015 0
M  V30 25 H -5.0134 0.8119 -2.7817 0
M  V30 26 H -4.8692 0.7001 -1.0262 0
M  V30 27 H -2.9292 -0.2951 -2.9966 0
M  V30 28 H 0.7705 1.6638 2.2582 0
M  V30 29 H 2.4888 -1.6093 -1.239 0
M  V30 30 H 1.4072 -2.6944 -0.2916 0
M  V30 31 H 2.5666 1.2793 3.873 0
M  V30 32 H 4.1801 -0.5918 3.5731 0
M  V30 33 H 4.8849 -2.7791 1.87 0
M  V30 34 H 3.881 -3.7166 -0.3502 0
M  V30 END ATOM
M  V30 BEGIN BOND
M  V30 1 1 1 2
M  V30 2 1 1 3
M  V30 3 1 2 4
M  V30 4 1 2 5
M  V30 5 1 3 6
M  V30 6 1 4 7
M  V30 7 1 5 8
M  V30 8 1 8 9
M  V30 9 2 9 10
M  V30 10 1 9 11
M  V30 11 1 10 12
M  V30 12 1 10 13
M  V30 13 2 11 14
M  V30 14 2 12 15
M  V30 15 1 12 16
M  V30 16 1 13 17
M  V30 17 1 6 7
M  V30 18 1 14 15
M  V30 19 2 16 17
M  V30 20 1 2 18
M  V30 21 1 3 19
M  V30 22 1 3 20
M  V30 23 1 4 21
M  V30 24 1 4 22
M  V30 25 1 5 23
M  V30 26 1 5 24
M  V30 27 1 6 25
M  V30 28 1 6 26
M  V30 29 1 7 27
M  V30 30 1 11 28
M  V30 31 1 13 29
M  V30 32 1 13 30
M  V30 33 1 14 31
M  V30 34 1 15 32
M  V30 35 1 16 33
M  V30 36 1 17 34
M  V30 END BOND
M  V30 BEGIN COLLECTION
M  V30 MDLV30/STERAC1 ATOMS=(1 2)
M  V30 END COLLECTION
M  V30 END CTAB
M  END
>  <Column 1>
941

>  <level_0>
1074

>  <index>
1074

>  <Unnamed: 0>
1074

>  <NO.>
1086

>  <Name>
indeloxazine

>  <IUPAC_name>
2-(3h-inden-4-yloxymethyl)morpholine

>  <SMILES>
C1=Cc2cccc(OCC3CNCCO3)c2C1

>  <CID>
3704

>  <logBB>


>  <BBB+/BBB->
BBB+

>  <Inchi>
InChI=1S/C14H17NO2/c1-3-11-4-2-6-14(13(11)5-1)17-10-12-9-15-7-8-16-12/h1-4-6-12-15H-5-7-10H2

>  <threshold>
-1

>  <reference>
R1|R19|R6|R14|R23|R27|R27|R30|R37|

>  <group>
B

>  <Class>
1

>  <ABC>
13.35

>  <ABCGG>
11.04

>  <nAcid>
0

>  <nBase>
1

>  <nAromAtom>
6

>  <nAromBond>
6

>  <nAtom>
34

>  <nHeavyAtom>
17

>  <nSpiro>
0

>  <nBridgehead>
0

>  <nHetero>
3

>  <nN>
1

>  <nO>
2

>  <nF>
0

>  <BalabanJ>
1.47

>  <BertzCT>
422.23

>  <nBonds>
36

>  <nBondsO>
19

>  <nBondsS>
29

>  <nBondsD>
1

>  <nBondsT>
0

>  <nBondsA>
6

>  <nBondsM>
7

>  <nBondsKS>
32

>  <nBondsKD>
4

>  <RNCG>
0.33

>  <RPCG>
0.08

>  <FCSP3>
0.43

>  <SZ>
20.67

>  <Sm>
19.26

>  <Sv>
20.79

>  <Sse>
33.87

>  <Sp>
22.41

>  <Si>
38.24

>  <MZ>
0.61

>  <Mm>
0.57

>  <Mv>
0.61

>  <Mse>
1

>  <Mp>
0.66

>  <Mi>
1.12

>  <NsCH3>
0

>  <NdCH2>
0

>  <NssCH2>
5

>  <NtCH>
0

>  <NdsCH>
2

>  <NaaCH>
3

>  <NsssCH>
1

>  <NddC>
0

>  <NtsC>
0

>  <NdssC>
0

>  <NaasC>
3

>  <NaaaC>
0

>  <NssssC>
0

>  <NsNH3>
0

>  <NsNH2>
0

>  <NssNH2>
0

>  <NdNH>
0

>  <NssNH>
1

>  <NaaNH>
0

>  <NtN>
0

>  <NsssNH>
0

>  <NdsN>
0

>  <NaaN>
0

>  <NsssN>
0

>  <NddsN>
0

>  <NaasN>
0

>  <NssssN>
0

>  <NsOH>
0

>  <NdO>
0

>  <NssO>
2

>  <NaaO>
0

>  <NsF>
0

>  <NsSiH3>
0

>  <NssSiH2>
0

>  <NsssSiH>
0

>  <NssssSi>
0

>  <NsPH2>
0

>  <NssPH>
0

>  <NsssP>
0

>  <NdsssP>
0

>  <NsssssP>
0

>  <NsSH>
0

>  <NdS>
0

>  <NssS>
0

>  <NaaS>
0

>  <NdssS>
0

>  <NddssS>
0

>  <NsCl>
0

>  <NsBr>
0

>  <NsI>
0

>  <fragCpx>
89.03

>  <fMF>
0.5

>  <nHBAcc>
3

>  <nHBDon>
1

>  <Kier1>
12.06

>  <Kier2>
5.76

>  <Lipinski>
1

>  <GhoseFilter>
1

>  <FilterItLogS>
-3.13

>  <VMcGowan>
180.06

>  <LabuteASA>
101.43

>  <PEOE_VSA1>
14.79

>  <PEOE_VSA2>
0

>  <PEOE_VSA3>
0

>  <PEOE_VSA4>
0

>  <PEOE_VSA5>
0

>  <PEOE_VSA6>
24.28

>  <PEOE_VSA7>
18.05

>  <PEOE_VSA8>
18.65

>  <PEOE_VSA9>
6.61

>  <PEOE_VSA10>
18.46

>  <PEOE_VSA11>
0

>  <PEOE_VSA12>
0

>  <PEOE_VSA13>
0

>  <SMR_VSA1>
9.47

>  <SMR_VSA2>
0

>  <SMR_VSA3>
5.32

>  <SMR_VSA4>
0

>  <SMR_VSA5>
12.52

>  <SMR_VSA6>
26.3

>  <SMR_VSA7>
35.4

>  <SMR_VSA8>
0

>  <SMR_VSA9>
5.75

>  <SlogP_VSA1>
10.05

>  <SlogP_VSA2>
32.41

>  <SlogP_VSA3>
11.16

>  <SlogP_VSA4>
0

>  <SlogP_VSA5>
11.13

>  <SlogP_VSA6>
24.28

>  <SlogP_VSA7>
0

>  <SlogP_VSA8>
6.08

>  <SlogP_VSA9>
0

>  <SlogP_VSA10>
0

>  <SlogP_VSA11>
5.75

>  <EState_VSA1>
0

>  <EState_VSA2>
6.1

>  <EState_VSA3>
6.61

>  <EState_VSA4>
31.87

>  <EState_VSA5>
11.13

>  <EState_VSA6>
0

>  <EState_VSA7>
12.13

>  <EState_VSA8>
23.54

>  <EState_VSA9>
9.47

>  <EState_VSA10>
0

>  <VSA_EState1>
11.5

>  <VSA_EState2>
0

>  <VSA_EState3>
3.31

>  <VSA_EState4>
2.58

>  <VSA_EState5>
1

>  <VSA_EState6>
6.22

>  <VSA_EState7>
5.49

>  <VSA_EState8>
3.24

>  <VSA_EState9>
0

>  <apol>
37.42

>  <bpol>
21.1

>  <nRing>
3

>  <nHRing>
1

>  <naRing>
1

>  <naHRing>
0

>  <nARing 2>
2

>  <nAHRing 2>
1

>  <nFRing>
1

>  <nFHRing>
0

>  <nFaRing>
0

>  <nFaHRing>
0

>  <nFARing 2>
1

>  <nFAHRing 2>
0

>  <nRot>
3

>  <SLogP>
1.62

>  <SMR>
67.28

>  <TopoPSA(NO)>
30.49

>  <TopoPSA>
30.49

>  <JGI1>
0.11

>  <JGI2>
0.06

>  <JGI3>
0.02

>  <JGI4>
0.03

>  <JGI5>
0.02

>  <Diameter>
9

>  <Radius>
5

>  <TMWC10>
106.96

>  <TSRW10>
63.19

>  <MW>
231.13

>  <AMW>
6.8

>  <WPath>
549

>  <WPol>
22

>  <Zagreb1>
88

>  <Zagreb2>
102

>  <mZagreb2>
3.81

>  <yes>


>  <nAR-cont>
1

>  <nHA-cont>
0.976740822

>  <MWHBN>
0.263106654

>  <MWHBN-cont>
0.935103265

>  <TPSA-cont>
0.787160867

>  <pka_cont>
0.97

>  <yes.1>


>  <BBB_SCORE>
5.438717453

>  <MMFF94 Energy>
102.47

$$$$
Compound 786
Actelion Java MolfileCreator 2.0

  0  0  0  0  0  0              0 V3000
M  V30 BEGIN CTAB
M  V30 COUNTS 46 47 0 0 0
M  V30 BEGIN ATOM
M  V30 1 Cl -5.5845 -3.5074 -1.6728 0
M  V30 2 C -4.1572 -2.6989 -1.1545 0
M  V30 3 C -4.2572 -1.5804 -0.3314 0
M  V30 4 C -2.9099 -3.1686 -1.5647 0
M  V30 5 C -3.0919 -0.9191 0.0753 0
M  V30 6 C -1.7466 -2.5231 -1.1375 0
M  V30 7 C -1.8272 -1.3981 -0.3071 0
M  V30 8 C -3.2557 0.2655 0.9388 0
M  V30 9 N -0.6215 -0.807 0.156 0
M  V30 10 O -3.7981 0.1108 2.0298 0
M  V30 11 C -2.7822 1.6104 0.5108 0
M  V30 12 C 0.2077 -0.145 -0.7489 0
M  V30 13 C -0.3132 -0.974 1.5738 0
M  V30 14 C -2.5109 1.9169 -0.8278 0
M  V30 15 C -2.6197 2.5989 1.4906 0
M  V30 16 O -0.0256 -0.0892 -1.9612 0
M  V30 17 C 1.4629 0.536 -0.1881 0
M  V30 18 C -2.0552 3.191 -1.1754 0
M  V30 19 C -2.168 3.872 1.1386 0
M  V30 20 N 2.5593 -0.4428 -0.1302 0
M  V30 21 C -1.8824 4.1658 -0.1935 0
M  V30 22 C 3.796 0.1969 0.3099 0
M  V30 23 C 4.9015 -0.819 0.4587 0
M  V30 24 C 5.4292 -1.1231 1.6573 0
M  V30 25 C 5.422 -1.4518 -0.8024 0
M  V30 26 H -5.2303 -1.2199 -0.0062 0
M  V30 27 H -2.8342 -4.0399 -2.2106 0
M  V30 28 H -0.777 -2.9024 -1.453 0
M  V30 29 H -0.9865 -1.6977 2.0442 0
M  V30 30 H 0.7132 -1.331 1.6895 0
M  V30 31 H -0.4106 -0.0067 2.0753 0
M  V30 32 H -2.6403 1.1814 -1.6182 0
M  V30 33 H -2.8454 2.3798 2.5327 0
M  V30 34 H 1.7158 1.3635 -0.8623 0
M  V30 35 H 1.255 0.9665 0.7958 0
M  V30 36 H -1.8374 3.4214 -2.2159 0
M  V30 37 H -2.0446 4.6347 1.9038 0
M  V30 38 H 2.6974 -0.8137 -1.0715 0
M  V30 39 H -1.5328 5.1581 -0.4687 0
M  V30 40 H 4.1103 0.9662 -0.4064 0
M  V30 41 H 3.6264 0.7039 1.2685 0
M  V30 42 H 5.0632 -0.6661 2.5719 0
M  V30 43 H 6.2319 -1.8472 1.7587 0
M  V30 44 H 6.2858 -2.0976 -0.6111 0
M  V30 45 H 4.6502 -2.0659 -1.2765 0
M  V30 46 H 5.7389 -0.6799 -1.5115 0
M  V30 END ATOM
M  V30 BEGIN BOND
M  V30 1 1 1 2
M  V30 2 2 2 3
M  V30 3 1 2 4
M  V30 4 1 3 5
M  V30 5 2 4 6
M  V30 6 2 5 7
M  V30 7 1 5 8
M  V30 8 1 7 9
M  V30 9 2 8 10
M  V30 10 1 8 11
M  V30 11 1 9 12
M  V30 12 1 9 13
M  V30 13 2 11 14
M  V30 14 1 11 15
M  V30 15 2 12 16
M  V30 16 1 12 17
M  V30 17 1 14 18
M  V30 18 2 15 19
M  V30 19 1 17 20
M  V30 20 2 18 21
M  V30 21 1 20 22
M  V30 22 1 22 23
M  V30 23 2 23 24
M  V30 24 1 23 25
M  V30 25 1 6 7
M  V30 26 1 19 21
M  V30 27 1 3 26
M  V30 28 1 4 27
M  V30 29 1 6 28
M  V30 30 1 13 29
M  V30 31 1 13 30
M  V30 32 1 13 31
M  V30 33 1 14 32
M  V30 34 1 15 33
M  V30 35 1 17 34
M  V30 36 1 17 35
M  V30 37 1 18 36
M  V30 38 1 19 37
M  V30 39 1 20 38
M  V30 40 1 21 39
M  V30 41 1 22 40
M  V30 42 1 22 41
M  V30 43 1 24 42
M  V30 44 1 24 43
M  V30 45 1 25 44
M  V30 46 1 25 45
M  V30 47 1 25 46
M  V30 END BOND
M  V30 END CTAB
M  END
>  <Column 1>
942

>  <level_0>
1075

>  <index>
1075

>  <Unnamed: 0>
1075

>  <NO.>
1087

>  <Name>
dinazafone

>  <IUPAC_name>
n-(2-benzoyl-4-chlorophenyl)-n-methyl-2-(2-methylprop-2-enylamino)acetamide

>  <SMILES>
C=C(C)CNCC(=O)N(C)c1ccc(Cl)cc1C(=O)c1ccccc1

>  <CID>
68903

>  <logBB>


>  <BBB+/BBB->
BBB+

>  <Inchi>
InChI=1S/C20H21ClN2O2/c1-14(2)12-22-13-19(24)23(3)18-10-9-16(21)11-17(18)20(25)15-7-5-4-6-8-15/h4-11-22H-1-12-13H2-2-3H3

>  <threshold>
-1

>  <reference>
R1|R13|R19|R6|R24|R27|R27|R27|R30|R30|

>  <group>
B

>  <Class>
1

>  <ABC>
18.84

>  <ABCGG>
15.98

>  <nAcid>
0

>  <nBase>
1

>  <nAromAtom>
12

>  <nAromBond>
12

>  <nAtom>
46

>  <nHeavyAtom>
25

>  <nSpiro>
0

>  <nBridgehead>
0

>  <nHetero>
5

>  <nN>
2

>  <nO>
2

>  <nF>
0

>  <BalabanJ>
1.96

>  <BertzCT>
787.54

>  <nBonds>
47

>  <nBondsO>
26

>  <nBondsS>
32

>  <nBondsD>
3

>  <nBondsT>
0

>  <nBondsA>
12

>  <nBondsM>
15

>  <nBondsKS>
38

>  <nBondsKD>
9

>  <RNCG>
0.17

>  <RPCG>
0.13

>  <FCSP3>
0.2

>  <SZ>
31.33

>  <Sm>
29.71

>  <Sv>
29.73

>  <Sse>
46.08

>  <Sp>
31.97

>  <Si>
51.51

>  <MZ>
0.68

>  <Mm>
0.65

>  <Mv>
0.65

>  <Mse>
1

>  <Mp>
0.69

>  <Mi>
1.12

>  <NsCH3>
2

>  <NdCH2>
1

>  <NssCH2>
2

>  <NtCH>
0

>  <NdsCH>
0

>  <NaaCH>
8

>  <NsssCH>
0

>  <NddC>
0

>  <NtsC>
0

>  <NdssC>
3

>  <NaasC>
4

>  <NaaaC>
0

>  <NssssC>
0

>  <NsNH3>
0

>  <NsNH2>
0

>  <NssNH2>
0

>  <NdNH>
0

>  <NssNH>
1

>  <NaaNH>
0

>  <NtN>
0

>  <NsssNH>
0

>  <NdsN>
0

>  <NaaN>
0

>  <NsssN>
1

>  <NddsN>
0

>  <NaasN>
0

>  <NssssN>
0

>  <NsOH>
0

>  <NdO>
2

>  <NssO>
0

>  <NaaO>
0

>  <NsF>
0

>  <NsSiH3>
0

>  <NssSiH2>
0

>  <NsssSiH>
0

>  <NssssSi>
0

>  <NsPH2>
0

>  <NssPH>
0

>  <NsssP>
0

>  <NdsssP>
0

>  <NsssssP>
0

>  <NsSH>
0

>  <NdS>
0

>  <NssS>
0

>  <NaaS>
0

>  <NdssS>
0

>  <NddssS>
0

>  <NsCl>
1

>  <NsBr>
0

>  <NsI>
0

>  <fragCpx>
76.05

>  <fMF>
0.28

>  <nHBAcc>
3

>  <nHBDon>
1

>  <Kier1>
21.3

>  <Kier2>
10.36

>  <Lipinski>
1

>  <GhoseFilter>
1

>  <FilterItLogS>
-5.59

>  <VMcGowan>
276.18

>  <LabuteASA>
152.65

>  <PEOE_VSA1>
10.22

>  <PEOE_VSA2>
9.59

>  <PEOE_VSA3>
0

>  <PEOE_VSA4>
0

>  <PEOE_VSA5>
0

>  <PEOE_VSA6>
54.08

>  <PEOE_VSA7>
25.12

>  <PEOE_VSA8>
29.74

>  <PEOE_VSA9>
12.23

>  <PEOE_VSA10>
0

>  <PEOE_VSA11>
5.78

>  <PEOE_VSA12>
5.91

>  <PEOE_VSA13>
0

>  <SMR_VSA1>
9.59

>  <SMR_VSA2>
0

>  <SMR_VSA3>
5.32

>  <SMR_VSA4>
0

>  <SMR_VSA5>
6.92

>  <SMR_VSA6>
25.04

>  <SMR_VSA7>
76.83

>  <SMR_VSA8>
0

>  <SMR_VSA9>
0

>  <SlogP_VSA1>
10.22

>  <SlogP_VSA2>
31.83

>  <SlogP_VSA3>
4.79

>  <SlogP_VSA4>
0

>  <SlogP_VSA5>
22.85

>  <SlogP_VSA6>
60.68

>  <SlogP_VSA7>
5.02

>  <SlogP_VSA8>
0

>  <SlogP_VSA9>
0

>  <SlogP_VSA10>
5.69

>  <SlogP_VSA11>
0

>  <EState_VSA1>
0

>  <EState_VSA2>
18.24

>  <EState_VSA3>
28.38

>  <EState_VSA4>
5.57

>  <EState_VSA5>
4.9

>  <EState_VSA6>
49.51

>  <EState_VSA7>
12.99

>  <EState_VSA8>
11.9

>  <EState_VSA9>
11.6

>  <EState_VSA10>
9.59

>  <VSA_EState1>
0

>  <VSA_EState2>
26.71

>  <VSA_EState3>
3.47

>  <VSA_EState4>
2.42

>  <VSA_EState5>
-0.32

>  <VSA_EState6>
13.88

>  <VSA_EState7>
0

>  <VSA_EState8>
6.4

>  <VSA_EState9>
1.65

>  <apol>
53.39

>  <bpol>
25.59

>  <nRing>
2

>  <nHRing>
0

>  <naRing>
2

>  <naHRing>
0

>  <nARing 2>
0

>  <nAHRing 2>
0

>  <nFRing>
0

>  <nFHRing>
0

>  <nFaRing>
0

>  <nFaHRing>
0

>  <nFARing 2>
0

>  <nFAHRing 2>
0

>  <nRot>
7

>  <SLogP>
3.7

>  <SMR>
102.42

>  <TopoPSA(NO)>
49.41

>  <TopoPSA>
49.41

>  <JGI1>
0.19

>  <JGI2>
0.09

>  <JGI3>
0.05

>  <JGI4>
0.04

>  <JGI5>
0.03

>  <Diameter>
13

>  <Radius>
7

>  <TMWC10>
124.95

>  <TSRW10>
59.25

>  <MW>
356.13

>  <AMW>
7.74

>  <WPath>
1566

>  <WPol>
37

>  <Zagreb1>
122

>  <Zagreb2>
139

>  <mZagreb2>
5.64

>  <yes>


>  <nAR-cont>
0.336376

>  <nHA-cont>
0.921834225

>  <MWHBN>
0.211960879

>  <MWHBN-cont>
0.998775929

>  <TPSA-cont>
0.655087518

>  <pka_cont>
0.97

>  <yes.1>


>  <BBB_SCORE>
4.551549155

>  <MMFF94 Energy>
97.537

$$$$
Compound 787
Actelion Java MolfileCreator 2.0

  0  0  0  0  0  0              0 V3000
M  V30 BEGIN CTAB
M  V30 COUNTS 31 31 0 0 0
M  V30 BEGIN ATOM
M  V30 1 Cl -0.6509 0.5695 -3.3396 0
M  V30 2 C 0.0271 0.2273 -1.7729 0
M  V30 3 C -0.5215 0.8067 -0.6138 0
M  V30 4 C 1.1398 -0.6398 -1.6873 0
M  V30 5 Cl -1.8469 1.9239 -0.7185 0
M  V30 6 C 0.0391 0.4914 0.6297 0
M  V30 7 O 1.6052 -1.164 -2.8664 0
M  V30 8 C 1.6989 -0.9169 -0.436 0
M  V30 9 C -0.4616 1.0513 1.8986 0
M  V30 10 C 1.1549 -0.3496 0.7165 0
M  V30 11 C 2.7833 -1.9595 -2.8318 0
M  V30 12 O 0.2774 1.797 2.5337 0
M  V30 13 C -1.819 0.6634 2.4079 0
M  V30 14 C 3.1677 -2.4016 -4.232 0
M  V30 15 C -2.46 -0.4361 1.9755 0
M  V30 16 C -2.3902 1.5434 3.4933 0
M  V30 17 O 2.5968 -2.1639 -5.2824 0
M  V30 18 O 4.2929 -3.1514 -4.2314 0
M  V30 19 C -2.8768 2.882 2.9551 0
M  V30 20 H 2.5595 -1.5683 -0.3177 0
M  V30 21 H 1.6038 -0.5601 1.6866 0
M  V30 22 H 2.6047 -2.8652 -2.2415 0
M  V30 23 H 3.6191 -1.3749 -2.4312 0
M  V30 24 H -3.4337 -0.7032 2.378 0
M  V30 25 H -2.0585 -1.1091 1.2263 0
M  V30 26 H -1.6404 1.7089 4.2762 0
M  V30 27 H -3.2313 1.0407 3.9874 0
M  V30 28 H 4.4273 -3.3636 -5.1804 0
M  V30 29 H -3.3039 3.4805 3.7662 0
M  V30 30 H -3.6522 2.7434 2.1942 0
M  V30 31 H -2.0596 3.4579 2.5089 0
M  V30 END ATOM
M  V30 BEGIN BOND
M  V30 1 1 1 2
M  V30 2 2 2 3
M  V30 3 1 2 4
M  V30 4 1 3 5
M  V30 5 1 3 6
M  V30 6 1 4 7
M  V30 7 2 4 8
M  V30 8 1 6 9
M  V30 9 2 6 10
M  V30 10 1 7 11
M  V30 11 2 9 12
M  V30 12 1 9 13
M  V30 13 1 11 14
M  V30 14 2 13 15
M  V30 15 1 13 16
M  V30 16 2 14 17
M  V30 17 1 14 18
M  V30 18 1 16 19
M  V30 19 1 8 10
M  V30 20 1 8 20
M  V30 21 1 10 21
M  V30 22 1 11 22
M  V30 23 1 11 23
M  V30 24 1 15 24
M  V30 25 1 15 25
M  V30 26 1 16 26
M  V30 27 1 16 27
M  V30 28 1 18 28
M  V30 29 1 19 29
M  V30 30 1 19 30
M  V30 31 1 19 31
M  V30 END BOND
M  V30 END CTAB
M  END
>  <Column 1>
944

>  <level_0>
1077

>  <index>
1077

>  <Unnamed: 0>
1077

>  <NO.>
1089

>  <Name>
etacrynicacid

>  <IUPAC_name>
2-[2-3-dichloro-4-(2-methylidenebutanoyl)phenoxy]acetic acid

>  <SMILES>
C=C(CC)C(=O)c1ccc(OCC(=O)O)c(Cl)c1Cl

>  <CID>
3278

>  <logBB>


>  <BBB+/BBB->
BBB-

>  <Inchi>
InChI=1S/C13H12Cl2O4/c1-3-7(2)13(18)8-4-5-9(12(15)11(8)14)19-6-10(16)17/h4-5H-2-3-6H2-1H3-(H-16-17)

>  <threshold>
-1

>  <reference>
R1|R13|R19|R28|R9|R14|R23|R24|R27|R27|R30|R36|

>  <group>
B

>  <Class>
1

>  <ABC>
13.89

>  <ABCGG>
12.75

>  <nAcid>
1

>  <nBase>
0

>  <nAromAtom>
6

>  <nAromBond>
6

>  <nAtom>
31

>  <nHeavyAtom>
19

>  <nSpiro>
0

>  <nBridgehead>
0

>  <nHetero>
6

>  <nN>
0

>  <nO>
4

>  <nF>
0

>  <BalabanJ>
2.56

>  <BertzCT>
537.69

>  <nBonds>
31

>  <nBondsO>
19

>  <nBondsS>
22

>  <nBondsD>
3

>  <nBondsT>
0

>  <nBondsA>
6

>  <nBondsM>
9

>  <nBondsKS>
25

>  <nBondsKD>
6

>  <RNCG>
0.25

>  <RPCG>
0.18

>  <FCSP3>
0.23

>  <SZ>
26

>  <Sm>
25.24

>  <Sv>
21.29

>  <Sse>
32.18

>  <Sp>
22.32

>  <Si>
34.63

>  <MZ>
0.84

>  <Mm>
0.81

>  <Mv>
0.69

>  <Mse>
1.04

>  <Mp>
0.72

>  <Mi>
1.12

>  <NsCH3>
1

>  <NdCH2>
1

>  <NssCH2>
2

>  <NtCH>
0

>  <NdsCH>
0

>  <NaaCH>
2

>  <NsssCH>
0

>  <NddC>
0

>  <NtsC>
0

>  <NdssC>
3

>  <NaasC>
4

>  <NaaaC>
0

>  <NssssC>
0

>  <NsNH3>
0

>  <NsNH2>
0

>  <NssNH2>
0

>  <NdNH>
0

>  <NssNH>
0

>  <NaaNH>
0

>  <NtN>
0

>  <NsssNH>
0

>  <NdsN>
0

>  <NaaN>
0

>  <NsssN>
0

>  <NddsN>
0

>  <NaasN>
0

>  <NssssN>
0

>  <NsOH>
1

>  <NdO>
2

>  <NssO>
1

>  <NaaO>
0

>  <NsF>
0

>  <NsSiH3>
0

>  <NssSiH2>
0

>  <NsssSiH>
0

>  <NssssSi>
0

>  <NsPH2>
0

>  <NssPH>
0

>  <NsssP>
0

>  <NdsssP>
0

>  <NsssssP>
0

>  <NsSH>
0

>  <NdS>
0

>  <NssS>
0

>  <NaaS>
0

>  <NdssS>
0

>  <NddssS>
0

>  <NsCl>
2

>  <NsBr>
0

>  <NsI>
0

>  <fragCpx>
19.06

>  <fMF>
0.19

>  <nHBAcc>
3

>  <nHBDon>
1

>  <Kier1>
17.05

>  <Kier2>
7.7

>  <Lipinski>
1

>  <GhoseFilter>
1

>  <FilterItLogS>
-4.02

>  <VMcGowan>
205.33

>  <LabuteASA>
120.13

>  <PEOE_VSA1>
9.84

>  <PEOE_VSA2>
4.79

>  <PEOE_VSA3>
4.79

>  <PEOE_VSA4>
0

>  <PEOE_VSA5>
0

>  <PEOE_VSA6>
36.7

>  <PEOE_VSA7>
24.13

>  <PEOE_VSA8>
5.56

>  <PEOE_VSA9>
5.02

>  <PEOE_VSA10>
10.77

>  <PEOE_VSA11>
12.39

>  <PEOE_VSA12>
0

>  <PEOE_VSA13>
0

>  <SMR_VSA1>
19.43

>  <SMR_VSA2>
0

>  <SMR_VSA3>
0

>  <SMR_VSA4>
0

>  <SMR_VSA5>
13.34

>  <SMR_VSA6>
6.61

>  <SMR_VSA7>
39.89

>  <SMR_VSA8>
0

>  <SMR_VSA9>
5.75

>  <SlogP_VSA1>
4.74

>  <SlogP_VSA2>
23.47

>  <SlogP_VSA3>
4.79

>  <SlogP_VSA4>
0

>  <SlogP_VSA5>
23.7

>  <SlogP_VSA6>
24.28

>  <SlogP_VSA7>
10.05

>  <SlogP_VSA8>
0

>  <SlogP_VSA9>
0

>  <SlogP_VSA10>
0

>  <SlogP_VSA11>
5.75

>  <EState_VSA1>
12.58

>  <EState_VSA2>
27.14

>  <EState_VSA3>
11.99

>  <EState_VSA4>
0

>  <EState_VSA5>
12.13

>  <EState_VSA6>
6.92

>  <EState_VSA7>
0

>  <EState_VSA8>
6.58

>  <EState_VSA9>
33.05

>  <EState_VSA10>
9.59

>  <VSA_EState1>
4.95

>  <VSA_EState2>
22.35

>  <VSA_EState3>
8.56

>  <VSA_EState4>
0.64

>  <VSA_EState5>
-1.31

>  <VSA_EState6>
2.85

>  <VSA_EState7>
0.5

>  <VSA_EState8>
4.91

>  <VSA_EState9>
0

>  <apol>
37.28

>  <bpol>
16.53

>  <nRing>
1

>  <nHRing>
0

>  <naRing>
1

>  <naHRing>
0

>  <nARing 2>
0

>  <nAHRing 2>
0

>  <nFRing>
0

>  <nFHRing>
0

>  <nFaRing>
0

>  <nFaHRing>
0

>  <nFARing 2>
0

>  <nFAHRing 2>
0

>  <nRot>
6

>  <SLogP>
3.61

>  <SMR>
73.35

>  <TopoPSA(NO)>
63.6

>  <TopoPSA>
63.6

>  <JGI1>
0.24

>  <JGI2>
0.12

>  <JGI3>
0.06

>  <JGI4>
0.05

>  <JGI5>
0.04

>  <Diameter>
11

>  <Radius>
6

>  <TMWC10>
109.24

>  <TSRW10>
51.83

>  <MW>
302.01

>  <AMW>
9.74

>  <WPath>
744

>  <WPol>
29

>  <Zagreb1>
90

>  <Zagreb2>
103

>  <mZagreb2>
4.39

>  <yes>


>  <nAR-cont>
0.336376

>  <nHA-cont>
0.998649058

>  <MWHBN>
0.230170324

>  <MWHBN-cont>
0.98659948

>  <TPSA-cont>
0.556032507

>  <pka_cont>
0.97

>  <yes.1>


>  <BBB_SCORE>
4.411989291

>  <MMFF94 Energy>
68.9

$$$$
Compound 788
Actelion Java MolfileCreator 2.0

  0  0  0  0  0  0              0 V3000
M  V30 BEGIN CTAB
M  V30 COUNTS 55 58 0 0 0
M  V30 BEGIN ATOM
M  V30 1 O -2.5007 3.5508 -5.168 0
M  V30 2 C -1.99 2.9972 -4.1962 0
M  V30 3 C -2.8573 2.2587 -3.2512 0
M  V30 4 C -0.5021 3.0474 -3.9413 0
M  V30 5 C -2.38 1.7974 -2.082 0
M  V30 6 C -0.045 2.0608 -2.865 0
M  V30 7 C -3.2135 0.9072 -1.3025 0
M  V30 8 C -0.9437 2.0737 -1.6017 0
M  V30 9 C -2.6724 -0.1065 -0.6167 0
M  V30 10 C -0.4603 1.0472 -0.4847 0
M  V30 11 C -0.9417 3.4952 -0.9707 0
M  V30 12 C -1.1805 -0.3196 -0.5787 0
M  V30 13 C 1.0655 0.8322 -0.3927 0
M  V30 14 C -0.7742 -1.3071 0.5383 0
M  V30 15 O 1.7391 2.071 -0.1879 0
M  V30 16 C 1.4534 -0.1089 0.7541 0
M  V30 17 C 0.7596 -1.4938 0.6997 0
M  V30 18 C -1.2521 -0.933 1.9536 0
M  V30 19 C 0.8425 -2.2664 2.0622 0 CFG=1
M  V30 20 C 1.335 -2.3126 -0.4728 0
M  V30 21 C -0.2982 -1.6607 2.8663 0
M  V30 22 O 0.4908 -3.636 1.8649 0
M  V30 23 C 2.2316 -2.1443 2.7488 0
M  V30 24 C -0.4812 -1.739 4.1936 0
M  V30 25 O 2.5712 -1.1736 3.4354 0
M  V30 26 C 3.2067 -3.2974 2.539 0
M  V30 27 O 4.5057 -2.9789 3.0239 0
M  V30 28 H -3.8645 2.0648 -3.6031 0
M  V30 29 H 0.0146 2.8148 -4.8791 0
M  V30 30 H -0.2416 4.0732 -3.6588 0
M  V30 31 H -0.0353 1.0487 -3.2926 0
M  V30 32 H 0.9933 2.308 -2.6206 0
M  V30 33 H -4.2953 0.9914 -1.3805 0
M  V30 34 H -3.3281 -0.8255 -0.132 0
M  V30 35 H -0.7583 1.4971 0.4742 0
M  V30 36 H -1.3875 4.2501 -1.6279 0
M  V30 37 H 0.0723 3.8338 -0.74 0
M  V30 38 H -1.5223 3.5179 -0.0405 0
M  V30 39 H -0.9049 -0.7906 -1.5329 0
M  V30 40 H 1.4449 0.4197 -1.3324 0
M  V30 41 H -1.2231 -2.2823 0.2906 0
M  V30 42 H 1.5368 2.3887 0.7098 0
M  V30 43 H 1.2331 0.3996 1.7021 0
M  V30 44 H 2.5448 -0.2316 0.7506 0
M  V30 45 H -1.1903 0.1425 2.1441 0
M  V30 46 H -2.2852 -1.2586 2.1155 0
M  V30 47 H 1.1891 -1.8128 -1.435 0
M  V30 48 H 2.4111 -2.4693 -0.3516 0
M  V30 49 H 0.8599 -3.2955 -0.558 0
M  V30 50 H 0.0487 -3.9506 2.6742 0
M  V30 51 H -1.3337 -1.2636 4.6717 0
M  V30 52 H 0.219 -2.2541 4.8444 0
M  V30 53 H 2.8437 -4.1725 3.0844 0
M  V30 54 H 3.2927 -3.5309 1.4768 0
M  V30 55 H 4.3932 -2.2254 3.6389 0
M  V30 END ATOM
M  V30 BEGIN BOND
M  V30 1 2 1 2
M  V30 2 1 2 3
M  V30 3 1 2 4
M  V30 4 2 3 5
M  V30 5 1 4 6
M  V30 6 1 5 7
M  V30 7 1 5 8
M  V30 8 2 7 9
M  V30 9 1 8 10
M  V30 10 1 8 11
M  V30 11 1 9 12
M  V30 12 1 10 13
M  V30 13 1 12 14
M  V30 14 1 13 15
M  V30 15 1 13 16
M  V30 16 1 14 17
M  V30 17 1 14 18
M  V30 18 1 17 19
M  V30 19 1 17 20
M  V30 20 1 18 21
M  V30 21 1 19 22
M  V30 22 1 19 23
M  V30 23 2 21 24
M  V30 24 2 23 25
M  V30 25 1 23 26
M  V30 26 1 26 27
M  V30 27 1 6 8
M  V30 28 1 10 12
M  V30 29 1 16 17
M  V30 30 1 19 21
M  V30 31 1 3 28
M  V30 32 1 4 29
M  V30 33 1 4 30
M  V30 34 1 6 31
M  V30 35 1 6 32
M  V30 36 1 7 33
M  V30 37 1 9 34
M  V30 38 1 10 35
M  V30 39 1 11 36
M  V30 40 1 11 37
M  V30 41 1 11 38
M  V30 42 1 12 39
M  V30 43 1 13 40
M  V30 44 1 14 41
M  V30 45 1 15 42
M  V30 46 1 16 43
M  V30 47 1 16 44
M  V30 48 1 18 45
M  V30 49 1 18 46
M  V30 50 1 20 47
M  V30 51 1 20 48
M  V30 52 1 20 49
M  V30 53 1 22 50
M  V30 54 1 24 51
M  V30 55 1 24 52
M  V30 56 1 26 53
M  V30 57 1 26 54
M  V30 58 1 27 55
M  V30 END BOND
M  V30 BEGIN COLLECTION
M  V30 MDLV30/STEABS ATOMS=(1 19)
M  V30 END COLLECTION
M  V30 END CTAB
M  END
>  <Column 1>
945

>  <level_0>
1078

>  <index>
1078

>  <Unnamed: 0>
1078

>  <NO.>
1090

>  <Name>
isoprednidene

>  <IUPAC_name>
(17r)-11-17-dihydroxy-17-(2-hydroxyacetyl)-10-13-dimethyl-16-methylidene-1-2-8-9-11-12-14-15-octahydrocyclopenta[a]phenanthren-3-one

>  <SMILES>
C=C1CC2C3C=CC4=CC(=O)CCC4(C)C3C(O)CC2(C)[C@@]1(O)C(=O)CO

>  <CID>
71888

>  <logBB>


>  <BBB+/BBB->
BBB+

>  <Inchi>
InChI=1S/C22H28O5/c1-12-8-16-15-5-4-13-9-14(24)6-7-20(13-2)19(15)17(25)10-21(16-3)22(12-27)18(26)11-23/h4-5-9-15-17-19-23-25-27H-1-6-8-10-11H2-2-3H3/t15?-16?-17?-19?-20?-21?-22-/m0/s1

>  <threshold>
-1

>  <reference>
R1|R27|R30|

>  <group>
B

>  <Class>
1

>  <ABC>
21.6

>  <ABCGG>
17.94

>  <nAcid>
0

>  <nBase>
0

>  <nAromAtom>
0

>  <nAromBond>
0

>  <nAtom>
55

>  <nHeavyAtom>
27

>  <nSpiro>
0

>  <nBridgehead>
0

>  <nHetero>
5

>  <nN>
0

>  <nO>
5

>  <nF>
0

>  <BalabanJ>
1.71

>  <BertzCT>
794.52

>  <nBonds>
58

>  <nBondsO>
30

>  <nBondsS>
53

>  <nBondsD>
5

>  <nBondsT>
0

>  <nBondsA>
0

>  <nBondsM>
5

>  <nBondsKS>
53

>  <nBondsKD>
5

>  <RNCG>
0.17

>  <RPCG>
0.09

>  <FCSP3>
0.64

>  <SZ>
33.33

>  <Sm>
31.01

>  <Sv>
33.16

>  <Sse>
55.08

>  <Sp>
35.58

>  <Si>
61.86

>  <MZ>
0.61

>  <Mm>
0.56

>  <Mv>
0.6

>  <Mse>
1

>  <Mp>
0.65

>  <Mi>
1.12

>  <NsCH3>
2

>  <NdCH2>
1

>  <NssCH2>
5

>  <NtCH>
0

>  <NdsCH>
3

>  <NaaCH>
0

>  <NsssCH>
4

>  <NddC>
0

>  <NtsC>
0

>  <NdssC>
4

>  <NaasC>
0

>  <NaaaC>
0

>  <NssssC>
3

>  <NsNH3>
0

>  <NsNH2>
0

>  <NssNH2>
0

>  <NdNH>
0

>  <NssNH>
0

>  <NaaNH>
0

>  <NtN>
0

>  <NsssNH>
0

>  <NdsN>
0

>  <NaaN>
0

>  <NsssN>
0

>  <NddsN>
0

>  <NaasN>
0

>  <NssssN>
0

>  <NsOH>
3

>  <NdO>
2

>  <NssO>
0

>  <NaaO>
0

>  <NsF>
0

>  <NsSiH3>
0

>  <NssSiH2>
0

>  <NsssSiH>
0

>  <NssssSi>
0

>  <NsPH2>
0

>  <NssPH>
0

>  <NsssP>
0

>  <NdsssP>
0

>  <NsssssP>
0

>  <NsSH>
0

>  <NdS>
0

>  <NssS>
0

>  <NaaS>
0

>  <NdssS>
0

>  <NddssS>
0

>  <NsCl>
0

>  <NsBr>
0

>  <NsI>
0

>  <fragCpx>
198.05

>  <fMF>
0.31

>  <nHBAcc>
5

>  <nHBDon>
3

>  <Kier1>
20.28

>  <Kier2>
6.5

>  <Lipinski>
1

>  <GhoseFilter>
1

>  <FilterItLogS>
-2.54

>  <VMcGowan>
285.25

>  <LabuteASA>
159.02

>  <PEOE_VSA1>
15.32

>  <PEOE_VSA2>
9.59

>  <PEOE_VSA3>
0

>  <PEOE_VSA4>
0

>  <PEOE_VSA5>
0

>  <PEOE_VSA6>
32.58

>  <PEOE_VSA7>
53.74

>  <PEOE_VSA8>
17.75

>  <PEOE_VSA9>
6.1

>  <PEOE_VSA10>
6.61

>  <PEOE_VSA11>
17.17

>  <PEOE_VSA12>
0

>  <PEOE_VSA13>
0

>  <SMR_VSA1>
24.91

>  <SMR_VSA2>
0

>  <SMR_VSA3>
0

>  <SMR_VSA4>
28.58

>  <SMR_VSA5>
51.24

>  <SMR_VSA6>
6.61

>  <SMR_VSA7>
35.95

>  <SMR_VSA8>
0

>  <SMR_VSA9>
0

>  <SlogP_VSA1>
0

>  <SlogP_VSA2>
45.2

>  <SlogP_VSA3>
9.59

>  <SlogP_VSA4>
28.58

>  <SlogP_VSA5>
39.53

>  <SlogP_VSA6>
35.95

>  <SlogP_VSA7>
0

>  <SlogP_VSA8>
0

>  <SlogP_VSA9>
0

>  <SlogP_VSA10>
0

>  <SlogP_VSA11>
0

>  <EState_VSA1>
29.51

>  <EState_VSA2>
35.37

>  <EState_VSA3>
24.84

>  <EState_VSA4>
5.57

>  <EState_VSA5>
0

>  <EState_VSA6>
6.08

>  <EState_VSA7>
19.08

>  <EState_VSA8>
13.5

>  <EState_VSA9>
0

>  <EState_VSA10>
24.91

>  <VSA_EState1>
0

>  <VSA_EState2>
24.39

>  <VSA_EState3>
31.96

>  <VSA_EState4>
-1.58

>  <VSA_EState5>
-0.66

>  <VSA_EState6>
0

>  <VSA_EState7>
6.96

>  <VSA_EState8>
7.19

>  <VSA_EState9>
0

>  <apol>
59.42

>  <bpol>
29.83

>  <nRing>
4

>  <nHRing>
0

>  <naRing>
0

>  <naHRing>
0

>  <nARing 2>
4

>  <nAHRing 2>
0

>  <nFRing>
1

>  <nFHRing>
0

>  <nFaRing>
0

>  <nFaHRing>
0

>  <nFARing 2>
1

>  <nFAHRing 2>
0

>  <nRot>
2

>  <SLogP>
1.72

>  <SMR>
99.57

>  <TopoPSA(NO)>
94.83

>  <TopoPSA>
94.83

>  <JGI1>
0.3

>  <JGI2>
0.14

>  <JGI3>
0.08

>  <JGI4>
0.06

>  <JGI5>
0.04

>  <Diameter>
12

>  <Radius>
6

>  <TMWC10>
137.75

>  <TSRW10>
78.66

>  <MW>
372.19

>  <AMW>
6.77

>  <WPath>
1556

>  <WPol>
63

>  <Zagreb1>
160

>  <Zagreb2>
207

>  <mZagreb2>
5.65

>  <yes>


>  <nAR-cont>
0.199399

>  <nHA-cont>
0.860070871

>  <MWHBN>
0.414674793

>  <MWHBN-cont>
0.418594274

>  <TPSA-cont>
0.338027714

>  <pka_cont>
0.97

>  <yes.1>


>  <BBB_SCORE>
2.84841671

>  <MMFF94 Energy>
128.45

$$$$
Compound 789
Actelion Java MolfileCreator 2.0

  0  0  0  0  0  0              0 V3000
M  V30 BEGIN CTAB
M  V30 COUNTS 55 58 0 0 0
M  V30 BEGIN ATOM
M  V30 1 O 3.4716 5.0085 -2.5019 0
M  V30 2 C 3.1692 3.9221 -2.025 0
M  V30 3 C 2.841 3.7753 -0.5941 0
M  V30 4 C 3.1166 2.7057 -2.8516 0
M  V30 5 C 2.5261 2.5851 -0.051 0
M  V30 6 C 2.8064 1.5198 -2.3116 0
M  V30 7 C 2.4772 1.2646 -0.8439 0
M  V30 8 C 2.1365 2.5148 1.4012 0
M  V30 9 C 1.0348 0.6277 -0.6547 0
M  V30 10 C 3.5915 0.3277 -0.3233 0
M  V30 11 C 0.7348 1.9371 1.536 0
M  V30 12 C 0.8081 -0.7595 -1.345 0
M  V30 13 C 0.6296 0.56 0.8647 0
M  V30 14 O 0.9273 -0.6442 -2.7609 0
M  V30 15 C -0.5903 -1.3584 -1.0751 0
M  V30 16 C -0.791 -0.0063 0.9921 0
M  V30 17 C -0.9233 -1.4337 0.4199 0
M  V30 18 C -1.4063 -0.1214 2.3863 0
M  V30 19 C -2.4008 -1.7794 0.7965 0
M  V30 20 C 0.04 -2.4644 1.0848 0
M  V30 21 C -2.5458 -1.0985 2.1635 0
M  V30 22 O -2.5689 -3.1856 0.9213 0
M  V30 23 C -3.4549 -1.1993 -0.1898 0
M  V30 24 C -3.5356 -1.2736 3.0536 0
M  V30 25 O -3.8398 -0.0247 -0.1743 0
M  V30 26 C -4.0084 -2.1612 -1.2368 0
M  V30 27 O -4.7387 -1.4749 -2.246 0
M  V30 28 H 2.8565 4.6973 -0.0238 0
M  V30 29 H 3.3524 2.8222 -3.902 0
M  V30 30 H 2.8221 0.661 -2.9777 0
M  V30 31 H 2.1573 3.5056 1.8715 0
M  V30 32 H 2.8574 1.9003 1.9524 0
M  V30 33 H 0.3346 1.3249 -1.1443 0
M  V30 34 H 3.4286 0.0103 0.7108 0
M  V30 35 H 3.6751 -0.5813 -0.93 0
M  V30 36 H 4.5715 0.8216 -0.3548 0
M  V30 37 H 0.4933 1.8587 2.6025 0
M  V30 38 H 0.0035 2.6268 1.0944 0
M  V30 39 H 1.5772 -1.4655 -1.0191 0
M  V30 40 H 1.3234 -0.1022 1.3933 0
M  V30 41 H 0.7585 -1.5184 -3.1538 0
M  V30 42 H -0.66 -2.3527 -1.5348 0
M  V30 43 H -1.3249 -0.7429 -1.6105 0
M  V30 44 H -1.4401 0.6719 0.4156 0
M  V30 45 H -1.7694 0.848 2.7427 0
M  V30 46 H -0.6903 -0.5239 3.1106 0
M  V30 47 H -0.1668 -2.6017 2.1513 0
M  V30 48 H 1.0931 -2.1853 1.0026 0
M  V30 49 H -0.0593 -3.4464 0.607 0
M  V30 50 H -3.024 -3.3687 1.7608 0
M  V30 51 H -3.5493 -0.7186 3.9884 0
M  V30 52 H -4.3724 -1.9402 2.8706 0
M  V30 53 H -3.1898 -2.6982 -1.721 0
M  V30 54 H -4.6814 -2.8701 -0.7471 0
M  V30 55 H -5.0115 -0.6206 -1.8527 0
M  V30 END ATOM
M  V30 BEGIN BOND
M  V30 1 2 1 2
M  V30 2 1 2 3
M  V30 3 1 2 4
M  V30 4 2 3 5
M  V30 5 2 4 6
M  V30 6 1 5 7
M  V30 7 1 5 8
M  V30 8 1 7 9
M  V30 9 1 7 10
M  V30 10 1 8 11
M  V30 11 1 9 12
M  V30 12 1 9 13
M  V30 13 1 12 14
M  V30 14 1 12 15
M  V30 15 1 13 16
M  V30 16 1 15 17
M  V30 17 1 16 18
M  V30 18 1 17 19
M  V30 19 1 17 20
M  V30 20 1 18 21
M  V30 21 1 19 22
M  V30 22 1 19 23
M  V30 23 2 21 24
M  V30 24 2 23 25
M  V30 25 1 23 26
M  V30 26 1 26 27
M  V30 27 1 6 7
M  V30 28 1 11 13
M  V30 29 1 16 17
M  V30 30 1 19 21
M  V30 31 1 3 28
M  V30 32 1 4 29
M  V30 33 1 6 30
M  V30 34 1 8 31
M  V30 35 1 8 32
M  V30 36 1 9 33
M  V30 37 1 10 34
M  V30 38 1 10 35
M  V30 39 1 10 36
M  V30 40 1 11 37
M  V30 41 1 11 38
M  V30 42 1 12 39
M  V30 43 1 13 40
M  V30 44 1 14 41
M  V30 45 1 15 42
M  V30 46 1 15 43
M  V30 47 1 16 44
M  V30 48 1 18 45
M  V30 49 1 18 46
M  V30 50 1 20 47
M  V30 51 1 20 48
M  V30 52 1 20 49
M  V30 53 1 22 50
M  V30 54 1 24 51
M  V30 55 1 24 52
M  V30 56 1 26 53
M  V30 57 1 26 54
M  V30 58 1 27 55
M  V30 END BOND
M  V30 END CTAB
M  END
>  <Column 1>
946

>  <level_0>
1079

>  <index>
1079

>  <Unnamed: 0>
1079

>  <NO.>
1091

>  <Name>
prednylidene

>  <IUPAC_name>
11-17-dihydroxy-17-(2-hydroxyacetyl)-10-13-dimethyl-16-methylidene-6-7-8-9-11-12-14-15-octahydrocyclopenta[a]phenanthren-3-one

>  <SMILES>
C=C1CC2C3CCC4=CC(=O)C=CC4(C)C3C(O)CC2(C)C1(O)C(=O)CO

>  <CID>
11740

>  <logBB>


>  <BBB+/BBB->
BBB+

>  <Inchi>
InChI=1S/C22H28O5/c1-12-8-16-15-5-4-13-9-14(24)6-7-20(13-2)19(15)17(25)10-21(16-3)22(12-27)18(26)11-23/h6-7-9-15-17-19-23-25-27H-1-4-5-8-10-11H2-2-3H3

>  <threshold>
-1

>  <reference>
R1|R19|R27|R27|R30|

>  <group>
B

>  <Class>
1

>  <ABC>
21.6

>  <ABCGG>
17.94

>  <nAcid>
0

>  <nBase>
0

>  <nAromAtom>
0

>  <nAromBond>
0

>  <nAtom>
55

>  <nHeavyAtom>
27

>  <nSpiro>
0

>  <nBridgehead>
0

>  <nHetero>
5

>  <nN>
0

>  <nO>
5

>  <nF>
0

>  <BalabanJ>
1.71

>  <BertzCT>
794.52

>  <nBonds>
58

>  <nBondsO>
30

>  <nBondsS>
53

>  <nBondsD>
5

>  <nBondsT>
0

>  <nBondsA>
0

>  <nBondsM>
5

>  <nBondsKS>
53

>  <nBondsKD>
5

>  <RNCG>
0.17

>  <RPCG>
0.09

>  <FCSP3>
0.64

>  <SZ>
33.33

>  <Sm>
31.01

>  <Sv>
33.16

>  <Sse>
55.08

>  <Sp>
35.58

>  <Si>
61.86

>  <MZ>
0.61

>  <Mm>
0.56

>  <Mv>
0.6

>  <Mse>
1

>  <Mp>
0.65

>  <Mi>
1.12

>  <NsCH3>
2

>  <NdCH2>
1

>  <NssCH2>
5

>  <NtCH>
0

>  <NdsCH>
3

>  <NaaCH>
0

>  <NsssCH>
4

>  <NddC>
0

>  <NtsC>
0

>  <NdssC>
4

>  <NaasC>
0

>  <NaaaC>
0

>  <NssssC>
3

>  <NsNH3>
0

>  <NsNH2>
0

>  <NssNH2>
0

>  <NdNH>
0

>  <NssNH>
0

>  <NaaNH>
0

>  <NtN>
0

>  <NsssNH>
0

>  <NdsN>
0

>  <NaaN>
0

>  <NsssN>
0

>  <NddsN>
0

>  <NaasN>
0

>  <NssssN>
0

>  <NsOH>
3

>  <NdO>
2

>  <NssO>
0

>  <NaaO>
0

>  <NsF>
0

>  <NsSiH3>
0

>  <NssSiH2>
0

>  <NsssSiH>
0

>  <NssssSi>
0

>  <NsPH2>
0

>  <NssPH>
0

>  <NsssP>
0

>  <NdsssP>
0

>  <NsssssP>
0

>  <NsSH>
0

>  <NdS>
0

>  <NssS>
0

>  <NaaS>
0

>  <NdssS>
0

>  <NddssS>
0

>  <NsCl>
0

>  <NsBr>
0

>  <NsI>
0

>  <fragCpx>
198.05

>  <fMF>
0.31

>  <nHBAcc>
5

>  <nHBDon>
3

>  <Kier1>
20.28

>  <Kier2>
6.5

>  <Lipinski>
1

>  <GhoseFilter>
1

>  <FilterItLogS>
-2.54

>  <VMcGowan>
285.25

>  <LabuteASA>
159.02

>  <PEOE_VSA1>
15.32

>  <PEOE_VSA2>
9.59

>  <PEOE_VSA3>
0

>  <PEOE_VSA4>
0

>  <PEOE_VSA5>
0

>  <PEOE_VSA6>
32.08

>  <PEOE_VSA7>
55.24

>  <PEOE_VSA8>
16.75

>  <PEOE_VSA9>
6.1

>  <PEOE_VSA10>
6.61

>  <PEOE_VSA11>
17.17

>  <PEOE_VSA12>
0

>  <PEOE_VSA13>
0

>  <SMR_VSA1>
24.91

>  <SMR_VSA2>
0

>  <SMR_VSA3>
0

>  <SMR_VSA4>
28.58

>  <SMR_VSA5>
51.24

>  <SMR_VSA6>
6.61

>  <SMR_VSA7>
35.95

>  <SMR_VSA8>
0

>  <SMR_VSA9>
0

>  <SlogP_VSA1>
0

>  <SlogP_VSA2>
45.2

>  <SlogP_VSA3>
9.59

>  <SlogP_VSA4>
28.58

>  <SlogP_VSA5>
39.53

>  <SlogP_VSA6>
35.95

>  <SlogP_VSA7>
0

>  <SlogP_VSA8>
0

>  <SlogP_VSA9>
0

>  <SlogP_VSA10>
0

>  <SlogP_VSA11>
0

>  <EState_VSA1>
29.51

>  <EState_VSA2>
35.37

>  <EState_VSA3>
11.99

>  <EState_VSA4>
18.41

>  <EState_VSA5>
0

>  <EState_VSA6>
12.15

>  <EState_VSA7>
13

>  <EState_VSA8>
13.5

>  <EState_VSA9>
0

>  <EState_VSA10>
24.91

>  <VSA_EState1>
0

>  <VSA_EState2>
24.34

>  <VSA_EState3>
31.97

>  <VSA_EState4>
-1.52

>  <VSA_EState5>
-0.6

>  <VSA_EState6>
0

>  <VSA_EState7>
6.87

>  <VSA_EState8>
7.19

>  <VSA_EState9>
0

>  <apol>
59.42

>  <bpol>
29.83

>  <nRing>
4

>  <nHRing>
0

>  <naRing>
0

>  <naHRing>
0

>  <nARing 2>
4

>  <nAHRing 2>
0

>  <nFRing>
1

>  <nFHRing>
0

>  <nFaRing>
0

>  <nFaHRing>
0

>  <nFARing 2>
1

>  <nFAHRing 2>
0

>  <nRot>
2

>  <SLogP>
1.72

>  <SMR>
99.57

>  <TopoPSA(NO)>
94.83

>  <TopoPSA>
94.83

>  <JGI1>
0.3

>  <JGI2>
0.14

>  <JGI3>
0.08

>  <JGI4>
0.06

>  <JGI5>
0.04

>  <Diameter>
12

>  <Radius>
6

>  <TMWC10>
137.75

>  <TSRW10>
78.66

>  <MW>
372.19

>  <AMW>
6.77

>  <WPath>
1556

>  <WPol>
63

>  <Zagreb1>
160

>  <Zagreb2>
207

>  <mZagreb2>
5.65

>  <yes>


>  <nAR-cont>
0.199399

>  <nHA-cont>
0.860070871

>  <MWHBN>
0.414674793

>  <MWHBN-cont>
0.418594274

>  <TPSA-cont>
0.338027714

>  <pka_cont>
0.97

>  <yes.1>


>  <BBB_SCORE>
2.84841671

>  <MMFF94 Energy>
140.71

$$$$
Compound 790
Actelion Java MolfileCreator 2.0

  0  0  0  0  0  0              0 V3000
M  V30 BEGIN CTAB
M  V30 COUNTS 50 55 0 0 0
M  V30 BEGIN ATOM
M  V30 1 O 0.162 -0.081 3.4077 0
M  V30 2 C 1.1992 -0.4318 2.5743 0
M  V30 3 C -0.646 0.8313 2.568 0 CFG=1
M  V30 4 C 2.4144 -0.9602 2.9357 0
M  V30 5 C 0.9318 -0.1481 1.2536 0
M  V30 6 C -0.2008 2.2776 2.8163 0
M  V30 7 C -0.4684 0.3406 1.1129 0 CFG=2
M  V30 8 O 2.7007 -1.2616 4.2298 0
M  V30 9 C 3.3761 -1.1588 1.9438 0
M  V30 10 C 1.866 -0.2781 0.244 0
M  V30 11 C 0.3948 2.6879 3.951 0
M  V30 12 C -0.4412 3.2462 1.6831 0
M  V30 13 C -0.5535 1.3839 -0.0081 0 CFG=2
M  V30 14 C -1.3707 -0.8672 0.7725 0
M  V30 15 C 3.1105 -0.8021 0.6024 0
M  V30 16 C 1.5164 0.2341 -1.1277 0
M  V30 17 C 0.121 2.7101 0.362 0
M  V30 18 O -1.9397 1.7072 -0.273 0
M  V30 19 C 0.0245 0.6921 -1.2925 0 CFG=1
M  V30 20 C -1.0765 -1.4317 -0.6305 0
M  V30 21 N -0.9584 -0.3834 -1.6629 0
M  V30 22 C -0.6734 -0.9515 -2.9877 0
M  V30 23 C -1.9084 -1.5944 -3.5489 0
M  V30 24 C -1.8079 -2.4308 -4.8009 0
M  V30 25 C -2.1142 -3.0883 -3.4858 0
M  V30 26 H -1.6926 0.7371 2.883 0
M  V30 27 H 1.9034 -1.0203 4.7387 0
M  V30 28 H 4.3477 -1.5645 2.2136 0
M  V30 29 H 0.5828 2.0062 4.7749 0
M  V30 30 H 0.7092 3.7177 4.091 0
M  V30 31 H 0.0242 4.2176 1.8909 0
M  V30 32 H -1.5185 3.4323 1.5959 0
M  V30 33 H -1.2578 -1.6764 1.5061 0
M  V30 34 H -2.424 -0.5613 0.8219 0
M  V30 35 H 3.8919 -0.9267 -0.1434 0
M  V30 36 H 2.1533 1.1076 -1.3195 0
M  V30 37 H 1.7828 -0.5152 -1.8797 0
M  V30 38 H 1.2089 2.606 0.442 0
M  V30 39 H -0.0729 3.454 -0.4208 0
M  V30 40 H -2.2312 1.0404 -0.9324 0
M  V30 41 H -0.0129 1.4293 -2.1064 0
M  V30 42 H -1.9025 -2.108 -0.8777 0
M  V30 43 H -0.1719 -2.0511 -0.5992 0
M  V30 44 H -0.3957 -0.1505 -3.6838 0
M  V30 45 H 0.165 -1.6575 -2.9584 0
M  V30 46 H -2.7783 -0.9508 -3.4665 0
M  V30 47 H -0.8308 -2.6029 -5.2374 0
M  V30 48 H -2.609 -2.3522 -5.5275 0
M  V30 49 H -1.3437 -3.7022 -3.0337 0
M  V30 50 H -3.1224 -3.4505 -3.3192 0
M  V30 END ATOM
M  V30 BEGIN BOND
M  V30 1 1 1 2
M  V30 2 1 1 3
M  V30 3 2 2 4
M  V30 4 1 2 5
M  V30 5 1 3 6
M  V30 6 1 3 7
M  V30 7 1 4 8
M  V30 8 1 4 9
M  V30 9 2 5 10
M  V30 10 2 6 11
M  V30 11 1 6 12
M  V30 12 1 7 13
M  V30 13 1 7 14
M  V30 14 2 9 15
M  V30 15 1 10 16
M  V30 16 1 12 17
M  V30 17 1 13 18
M  V30 18 1 13 19
M  V30 19 1 14 20
M  V30 20 1 19 21
M  V30 21 1 21 22
M  V30 22 1 22 23
M  V30 23 1 23 24
M  V30 24 1 23 25
M  V30 25 1 5 7
M  V30 26 1 10 15
M  V30 27 1 13 17
M  V30 28 1 16 19
M  V30 29 1 20 21
M  V30 30 1 24 25
M  V30 31 1 3 26
M  V30 32 1 8 27
M  V30 33 1 9 28
M  V30 34 1 11 29
M  V30 35 1 11 30
M  V30 36 1 12 31
M  V30 37 1 12 32
M  V30 38 1 14 33
M  V30 39 1 14 34
M  V30 40 1 15 35
M  V30 41 1 16 36
M  V30 42 1 16 37
M  V30 43 1 17 38
M  V30 44 1 17 39
M  V30 45 1 18 40
M  V30 46 1 19 41
M  V30 47 1 20 42
M  V30 48 1 20 43
M  V30 49 1 22 44
M  V30 50 1 22 45
M  V30 51 1 23 46
M  V30 52 1 24 47
M  V30 53 1 24 48
M  V30 54 1 25 49
M  V30 55 1 25 50
M  V30 END BOND
M  V30 BEGIN COLLECTION
M  V30 MDLV30/STEABS ATOMS=(4 3 7 13 19)
M  V30 END COLLECTION
M  V30 END CTAB
M  END
>  <Column 1>
947

>  <level_0>
1080

>  <index>
1080

>  <Unnamed: 0>
1080

>  <NO.>
1092

>  <Name>
nalmefene

>  <IUPAC_name>
(4r-4as-7as-12bs)-3-(cyclopropylmethyl)-7-methylidene-2-4-5-6-7a-13-hexahydro-1h-4-12-methanobenzofuro[3-2-e]isoquinoline-4a-9-diol

>  <SMILES>
C=C1CC[C@@]2(O)[C@H]3Cc4ccc(O)c5c4[C@@]2(CCN3CC2CC2)[C@H]1O5

>  <CID>
5284594

>  <logBB>


>  <BBB+/BBB->
BBB+

>  <Inchi>
InChI=1S/C21H25NO3/c1-12-6-7-21(24)16-10-14-4-5-15(23)18-17(14)20(21-19(12)25-18)8-9-22(16)11-13-2-3-13/h4-5-13-16-19-23-24H-1-3-6-11H2/t16--19+-20+-21-/m1/s1

>  <threshold>
-1

>  <reference>
R1|R6|R27|R30|

>  <group>
B

>  <Class>
1

>  <ABC>
21.11

>  <ABCGG>
15.87

>  <nAcid>
0

>  <nBase>
1

>  <nAromAtom>
6

>  <nAromBond>
6

>  <nAtom>
50

>  <nHeavyAtom>
25

>  <nSpiro>
1

>  <nBridgehead>
2

>  <nHetero>
4

>  <nN>
1

>  <nO>
3

>  <nF>
0

>  <BalabanJ>
1.46

>  <BertzCT>
800.58

>  <nBonds>
55

>  <nBondsO>
30

>  <nBondsS>
48

>  <nBondsD>
1

>  <nBondsT>
0

>  <nBondsA>
6

>  <nBondsM>
7

>  <nBondsKS>
51

>  <nBondsKD>
4

>  <RNCG>
0.24

>  <RPCG>
0.14

>  <FCSP3>
0.62

>  <SZ>
30.33

>  <Sm>
28.26

>  <Sv>
30.68

>  <Sse>
49.75

>  <Sp>
33.08

>  <Si>
56.11

>  <MZ>
0.61

>  <Mm>
0.57

>  <Mv>
0.61

>  <Mse>
1

>  <Mp>
0.66

>  <Mi>
1.12

>  <NsCH3>
0

>  <NdCH2>
1

>  <NssCH2>
8

>  <NtCH>
0

>  <NdsCH>
0

>  <NaaCH>
2

>  <NsssCH>
3

>  <NddC>
0

>  <NtsC>
0

>  <NdssC>
1

>  <NaasC>
4

>  <NaaaC>
0

>  <NssssC>
2

>  <NsNH3>
0

>  <NsNH2>
0

>  <NssNH2>
0

>  <NdNH>
0

>  <NssNH>
0

>  <NaaNH>
0

>  <NtN>
0

>  <NsssNH>
0

>  <NdsN>
0

>  <NaaN>
0

>  <NsssN>
1

>  <NddsN>
0

>  <NaasN>
0

>  <NssssN>
0

>  <NsOH>
2

>  <NdO>
0

>  <NssO>
1

>  <NaaO>
0

>  <NsF>
0

>  <NsSiH3>
0

>  <NssSiH2>
0

>  <NsssSiH>
0

>  <NssssSi>
0

>  <NsPH2>
0

>  <NssPH>
0

>  <NsssP>
0

>  <NdsssP>
0

>  <NsssssP>
0

>  <NsSH>
0

>  <NdS>
0

>  <NssS>
0

>  <NaaS>
0

>  <NdssS>
0

>  <NddssS>
0

>  <NsCl>
0

>  <NsBr>
0

>  <NsI>
0

>  <fragCpx>
300.04

>  <fMF>
0.44

>  <nHBAcc>
4

>  <nHBDon>
2

>  <Kier1>
16

>  <Kier2>
5.08

>  <Lipinski>
1

>  <GhoseFilter>
1

>  <FilterItLogS>
-3.66

>  <VMcGowan>
251.98

>  <LabuteASA>
147.65

>  <PEOE_VSA1>
14.95

>  <PEOE_VSA2>
4.9

>  <PEOE_VSA3>
0

>  <PEOE_VSA4>
0

>  <PEOE_VSA5>
0

>  <PEOE_VSA6>
12.65

>  <PEOE_VSA7>
68.19

>  <PEOE_VSA8>
18.15

>  <PEOE_VSA9>
11.02

>  <PEOE_VSA10>
6.1

>  <PEOE_VSA11>
11.5

>  <PEOE_VSA12>
0

>  <PEOE_VSA13>
0

>  <SMR_VSA1>
14.95

>  <SMR_VSA2>
0

>  <SMR_VSA3>
4.9

>  <SMR_VSA4>
5.92

>  <SMR_VSA5>
61.69

>  <SMR_VSA6>
13.09

>  <SMR_VSA7>
35.41

>  <SMR_VSA8>
0

>  <SMR_VSA9>
11.5

>  <SlogP_VSA1>
4.74

>  <SlogP_VSA2>
45.95

>  <SlogP_VSA3>
11.84

>  <SlogP_VSA4>
5.92

>  <SlogP_VSA5>
43.23

>  <SlogP_VSA6>
24.28

>  <SlogP_VSA7>
0

>  <SlogP_VSA8>
0

>  <SlogP_VSA9>
0

>  <SlogP_VSA10>
0

>  <SlogP_VSA11>
11.5

>  <EState_VSA1>
11.02

>  <EState_VSA2>
17.9

>  <EState_VSA3>
5.75

>  <EState_VSA4>
55.83

>  <EState_VSA5>
18.41

>  <EState_VSA6>
6.07

>  <EState_VSA7>
6.07

>  <EState_VSA8>
11.48

>  <EState_VSA9>
4.74

>  <EState_VSA10>
10.21

>  <VSA_EState1>
6.29

>  <VSA_EState2>
2.56

>  <VSA_EState3>
22.49

>  <VSA_EState4>
2.21

>  <VSA_EState5>
1.64

>  <VSA_EState6>
3.96

>  <VSA_EState7>
5.79

>  <VSA_EState8>
6.4

>  <VSA_EState9>
0

>  <apol>
55.25

>  <bpol>
28.53

>  <nRing>
6

>  <nHRing>
2

>  <naRing>
1

>  <naHRing>
0

>  <nARing 2>
5

>  <nAHRing 2>
2

>  <nFRing>
1

>  <nFHRing>
1

>  <nFaRing>
0

>  <nFaHRing>
0

>  <nFARing 2>
1

>  <nFAHRing 2>
1

>  <nRot>
2

>  <SLogP>
2.51

>  <SMR>
93.93

>  <TopoPSA(NO)>
52.93

>  <TopoPSA>
52.93

>  <JGI1>
0.22

>  <JGI2>
0.12

>  <JGI3>
0.06

>  <JGI4>
0.06

>  <JGI5>
0.03

>  <Diameter>
10

>  <Radius>
5

>  <TMWC10>
136.4

>  <TSRW10>
81.6

>  <MW>
339.18

>  <AMW>
6.78

>  <WPath>
1189

>  <WPol>
59

>  <Zagreb1>
160

>  <Zagreb2>
211

>  <mZagreb2>
5.03

>  <yes>


>  <nAR-cont>
0

>  <nHA-cont>
0.921834225

>  <MWHBN>
0.325788787

>  <MWHBN-cont>
0.757479331

>  <TPSA-cont>
0.630515732

>  <pka_cont>
0.97

>  <yes.1>


>  <BBB_SCORE>
3.804084687

>  <MMFF94 Energy>
108.71

$$$$
Compound 791
Actelion Java MolfileCreator 2.0

  0  0  0  0  0  0              0 V3000
M  V30 BEGIN CTAB
M  V30 COUNTS 56 60 0 0 0
M  V30 BEGIN ATOM
M  V30 1 O -2.7328 -1.2853 4.9876 0
M  V30 2 C -1.9932 -0.5649 4.0956 0
M  V30 3 C -1.8767 -0.9602 2.7637 0
M  V30 4 C -1.3558 0.5734 4.5601 0
M  V30 5 C -1.1193 -0.2002 1.8526 0
M  V30 6 C -0.5826 1.3276 3.6833 0
M  V30 7 C -0.448 0.9477 2.3364 0
M  V30 8 C -0.9514 -0.6297 0.3787 0 CFG=2
M  V30 9 C 0.4168 1.8115 1.4428 0
M  V30 10 C -0.648 0.6094 -0.5212 0 CFG=2
M  V30 11 C -2.1881 -1.3607 -0.2206 0
M  V30 12 C 0.2676 -1.5901 0.3045 0
M  V30 13 C 0.6403 1.2713 0.0113 0 CFG=2
M  V30 14 C -1.8776 1.5648 -0.6497 0 CFG=2
M  V30 15 C -3.3751 -0.4421 -0.3743 0
M  V30 16 C 1.5905 -0.9011 0.6585 0
M  V30 17 N 1.8197 0.3594 -0.0593 0
M  V30 18 C -3.1042 0.7983 -1.1833 0
M  V30 19 C -1.5936 2.7564 -1.5703 0
M  V30 20 C -4.5742 -0.7043 0.168 0
M  V30 21 C 2.286 0.1733 -1.448 0
M  V30 22 C 3.7223 -0.3686 -1.5117 0
M  V30 23 C 3.9011 -1.8983 -1.7407 0
M  V30 24 C 4.4269 -0.1797 -2.8858 0
M  V30 25 C 3.9974 -1.6106 -3.2497 0
M  V30 26 H -3.1418 -2.0298 4.5181 0
M  V30 27 H -2.3745 -1.8676 2.4425 0
M  V30 28 H -1.4544 0.8694 5.6001 0
M  V30 29 H -0.0756 2.2156 4.0546 0
M  V30 30 H -0.0705 2.793 1.3683 0
M  V30 31 H 1.3866 1.9844 1.9279 0
M  V30 32 H -0.4494 0.2489 -1.5411 0
M  V30 33 H -2.4475 -2.2552 0.3568 0
M  V30 34 H -1.9367 -1.735 -1.2235 0
M  V30 35 H 0.3493 -2.0055 -0.7084 0
M  V30 36 H 0.1226 -2.4472 0.975 0
M  V30 37 H 0.8933 2.1466 -0.5984 0
M  V30 38 H -2.1444 1.9714 0.3334 0
M  V30 39 H 2.4176 -1.6008 0.5066 0
M  V30 40 H 1.6274 -0.7036 1.7364 0
M  V30 41 H -2.9351 0.5027 -2.227 0
M  V30 42 H -3.9781 1.4621 -1.1842 0
M  V30 43 H -1.2375 2.4246 -2.5512 0
M  V30 44 H -2.4996 3.353 -1.724 0
M  V30 45 H -0.8414 3.4236 -1.1395 0
M  V30 46 H -4.7522 -1.6025 0.7503 0
M  V30 47 H -5.4118 -0.0234 0.0474 0
M  V30 48 H 2.2974 1.1565 -1.9357 0
M  V30 49 H 1.6053 -0.4549 -2.0332 0
M  V30 50 H 4.3333 0.0289 -0.6903 0
M  V30 51 H 4.8274 -2.297 -1.3104 0
M  V30 52 H 3.0719 -2.549 -1.4525 0
M  V30 53 H 5.5139 -0.0589 -2.8039 0
M  V30 54 H 4.0379 0.6088 -3.5357 0
M  V30 55 H 4.7332 -2.2023 -3.7999 0
M  V30 56 H 3.0358 -1.6639 -3.7726 0
M  V30 END ATOM
M  V30 BEGIN BOND
M  V30 1 1 1 2
M  V30 2 2 2 3
M  V30 3 1 2 4
M  V30 4 1 3 5
M  V30 5 2 4 6
M  V30 6 2 5 7
M  V30 7 1 5 8
M  V30 8 1 7 9
M  V30 9 1 8 10
M  V30 10 1 8 11
M  V30 11 1 8 12
M  V30 12 1 9 13
M  V30 13 1 10 14
M  V30 14 1 11 15
M  V30 15 1 12 16
M  V30 16 1 13 17
M  V30 17 1 14 18
M  V30 18 1 14 19
M  V30 19 2 15 20
M  V30 20 1 17 21
M  V30 21 1 21 22
M  V30 22 1 22 23
M  V30 23 1 22 24
M  V30 24 1 23 25
M  V30 25 1 6 7
M  V30 26 1 10 13
M  V30 27 1 15 18
M  V30 28 1 16 17
M  V30 29 1 24 25
M  V30 30 1 1 26
M  V30 31 1 3 27
M  V30 32 1 4 28
M  V30 33 1 6 29
M  V30 34 1 9 30
M  V30 35 1 9 31
M  V30 36 1 10 32
M  V30 37 1 11 33
M  V30 38 1 11 34
M  V30 39 1 12 35
M  V30 40 1 12 36
M  V30 41 1 13 37
M  V30 42 1 14 38
M  V30 43 1 16 39
M  V30 44 1 16 40
M  V30 45 1 18 41
M  V30 46 1 18 42
M  V30 47 1 19 43
M  V30 48 1 19 44
M  V30 49 1 19 45
M  V30 50 1 20 46
M  V30 51 1 20 47
M  V30 52 1 21 48
M  V30 53 1 21 49
M  V30 54 1 22 50
M  V30 55 1 23 51
M  V30 56 1 23 52
M  V30 57 1 24 53
M  V30 58 1 24 54
M  V30 59 1 25 55
M  V30 60 1 25 56
M  V30 END BOND
M  V30 BEGIN COLLECTION
M  V30 MDLV30/STEABS ATOMS=(4 8 10 13 14)
M  V30 END COLLECTION
M  V30 END CTAB
M  END
>  <Column 1>
948

>  <level_0>
1081

>  <index>
1081

>  <Unnamed: 0>
1081

>  <NO.>
1093

>  <Name>
xorphanol

>  <IUPAC_name>
(1r-9r-10r-11s)-17-(cyclobutylmethyl)-11-methyl-13-methylidene-17-azatetracyclo[7.5.3.01-10.02-7]heptadeca-2(7)-3-5-trien-4-ol

>  <SMILES>
C=C1C[C@H](C)[C@H]2[C@H]3Cc4ccc(O)cc4[C@@]2(CCN3CC2CCC2)C1

>  <CID>
5488631

>  <logBB>


>  <BBB+/BBB->
BBB+

>  <Inchi>
InChI=1S/C23H31NO/c1-15-10-16(2)22-21-11-18-6-7-19(25)12-20(18)23(22-13-15)8-9-24(21)14-17-4-3-5-17/h6-7-12-16-17-21-22-25H-1-3-5-8-11-13-14H2-2H3/t16--21+-22--23+/m0/s1

>  <threshold>
-1

>  <reference>
R1|R6|R27|R30|

>  <group>
B

>  <Class>
1

>  <ABC>
20.55

>  <ABCGG>
15.61

>  <nAcid>
0

>  <nBase>
1

>  <nAromAtom>
6

>  <nAromBond>
6

>  <nAtom>
56

>  <nHeavyAtom>
25

>  <nSpiro>
0

>  <nBridgehead>
2

>  <nHetero>
2

>  <nN>
1

>  <nO>
1

>  <nF>
0

>  <BalabanJ>
1.47

>  <BertzCT>
706.04

>  <nBonds>
60

>  <nBondsO>
29

>  <nBondsS>
53

>  <nBondsD>
1

>  <nBondsT>
0

>  <nBondsA>
6

>  <nBondsM>
7

>  <nBondsKS>
56

>  <nBondsKD>
4

>  <RNCG>
0.33

>  <RPCG>
0.19

>  <FCSP3>
0.65

>  <SZ>
30.67

>  <Sm>
28.1

>  <Sv>
32.87

>  <Sse>
54.76

>  <Sp>
36.52

>  <Si>
62.94

>  <MZ>
0.55

>  <Mm>
0.5

>  <Mv>
0.59

>  <Mse>
0.98

>  <Mp>
0.65

>  <Mi>
1.12

>  <NsCH3>
1

>  <NdCH2>
1

>  <NssCH2>
9

>  <NtCH>
0

>  <NdsCH>
0

>  <NaaCH>
3

>  <NsssCH>
4

>  <NddC>
0

>  <NtsC>
0

>  <NdssC>
1

>  <NaasC>
3

>  <NaaaC>
0

>  <NssssC>
1

>  <NsNH3>
0

>  <NsNH2>
0

>  <NssNH2>
0

>  <NdNH>
0

>  <NssNH>
0

>  <NaaNH>
0

>  <NtN>
0

>  <NsssNH>
0

>  <NdsN>
0

>  <NaaN>
0

>  <NsssN>
1

>  <NddsN>
0

>  <NaasN>
0

>  <NssssN>
0

>  <NsOH>
1

>  <NdO>
0

>  <NssO>
0

>  <NaaO>
0

>  <NsF>
0

>  <NsSiH3>
0

>  <NssSiH2>
0

>  <NsssSiH>
0

>  <NssssSi>
0

>  <NsPH2>
0

>  <NssPH>
0

>  <NsssP>
0

>  <NdsssP>
0

>  <NsssssP>
0

>  <NsSH>
0

>  <NdS>
0

>  <NssS>
0

>  <NaaS>
0

>  <NdssS>
0

>  <NddssS>
0

>  <NsCl>
0

>  <NsBr>
0

>  <NsI>
0

>  <fragCpx>
241.02

>  <fMF>
0.39

>  <nHBAcc>
2

>  <nHBDon>
1

>  <Kier1>
17.12

>  <Kier2>
6.27

>  <Lipinski>
1

>  <GhoseFilter>
1

>  <FilterItLogS>
-4.8

>  <VMcGowan>
279.28

>  <LabuteASA>
151.48

>  <PEOE_VSA1>
5.11

>  <PEOE_VSA2>
4.9

>  <PEOE_VSA3>
0

>  <PEOE_VSA4>
0

>  <PEOE_VSA5>
0

>  <PEOE_VSA6>
31.56

>  <PEOE_VSA7>
86.08

>  <PEOE_VSA8>
18

>  <PEOE_VSA9>
0

>  <PEOE_VSA10>
5.75

>  <PEOE_VSA11>
0

>  <PEOE_VSA12>
0

>  <PEOE_VSA13>
0

>  <SMR_VSA1>
5.11

>  <SMR_VSA2>
0

>  <SMR_VSA3>
4.9

>  <SMR_VSA4>
17.75

>  <SMR_VSA5>
63.33

>  <SMR_VSA6>
13.09

>  <SMR_VSA7>
41.48

>  <SMR_VSA8>
0

>  <SMR_VSA9>
5.75

>  <SlogP_VSA1>
0

>  <SlogP_VSA2>
29.14

>  <SlogP_VSA3>
11.84

>  <SlogP_VSA4>
17.75

>  <SlogP_VSA5>
56.58

>  <SlogP_VSA6>
30.35

>  <SlogP_VSA7>
0

>  <SlogP_VSA8>
0

>  <SlogP_VSA9>
0

>  <SlogP_VSA10>
0

>  <SlogP_VSA11>
5.75

>  <EState_VSA1>
0

>  <EState_VSA2>
5.41

>  <EState_VSA3>
17.71

>  <EState_VSA4>
18.26

>  <EState_VSA5>
68.31

>  <EState_VSA6>
0

>  <EState_VSA7>
6.07

>  <EState_VSA8>
30.54

>  <EState_VSA9>
0

>  <EState_VSA10>
5.11

>  <VSA_EState1>
0

>  <VSA_EState2>
2.85

>  <VSA_EState3>
10.18

>  <VSA_EState4>
4.58

>  <VSA_EState5>
2.81

>  <VSA_EState6>
6.87

>  <VSA_EState7>
9.05

>  <VSA_EState8>
9.41

>  <VSA_EState9>
0

>  <apol>
60.98

>  <bpol>
32.81

>  <nRing>
5

>  <nHRing>
1

>  <naRing>
1

>  <naHRing>
0

>  <nARing 2>
4

>  <nAHRing 2>
1

>  <nFRing>
1

>  <nFHRing>
1

>  <nFaRing>
0

>  <nFaHRing>
0

>  <nFARing 2>
1

>  <nFAHRing 2>
1

>  <nRot>
2

>  <SLogP>
4.66

>  <SMR>
101.84

>  <TopoPSA(NO)>
23.47

>  <TopoPSA>
23.47

>  <JGI1>
0.22

>  <JGI2>
0.08

>  <JGI3>
0.06

>  <JGI4>
0.05

>  <JGI5>
0.03

>  <Diameter>
11

>  <Radius>
6

>  <TMWC10>
133.04

>  <TSRW10>
61.28

>  <MW>
337.24

>  <AMW>
6.02

>  <WPath>
1290

>  <WPol>
49

>  <Zagreb1>
148

>  <Zagreb2>
185

>  <mZagreb2>
5.19

>  <yes>


>  <nAR-cont>
0.199399

>  <nHA-cont>
0.921834225

>  <MWHBN>
0.163362253

>  <MWHBN-cont>
0.96248805

>  <TPSA-cont>
0.836164826

>  <pka_cont>
0.97

>  <yes.1>


>  <BBB_SCORE>
4.722294952

>  <MMFF94 Energy>
83.117

$$$$
Compound 792
Actelion Java MolfileCreator 2.0

  0  0  0  0  0  0              0 V3000
M  V30 BEGIN CTAB
M  V30 COUNTS 55 58 0 0 0
M  V30 BEGIN ATOM
M  V30 1 F 0.4048 -1.1337 1.782 0
M  V30 2 C -0.4868 -1.1209 0.7229 0 CFG=2
M  V30 3 C -1.7069 -2.0497 1.1409 0 CFG=2
M  V30 4 C 0.3424 -1.6017 -0.512 0
M  V30 5 C -0.9345 0.3725 0.5464 0 CFG=2
M  V30 6 C -2.4092 -1.4023 2.3525 0
M  V30 7 C -1.276 -3.4764 1.4787 0
M  V30 8 C -2.7335 -2.1935 -0.0073 0
M  V30 9 O 0.9776 -2.8596 -0.2647 0
M  V30 10 C 1.4738 -0.6327 -0.9177 0
M  V30 11 C 0.286 1.2346 0.1927 0 CFG=1
M  V30 12 C -1.6296 0.8981 1.813 0
M  V30 13 C -2.6046 -2.0281 3.5275 0
M  V30 14 C -2.8264 0.0367 2.197 0
M  V30 15 C -1.4713 -4.095 2.6506 0
M  V30 16 C 0.9772 0.8049 -1.1269 0 CFG=1
M  V30 17 C 0.0844 2.7387 0.0207 0
M  V30 18 C -2.1558 -3.4142 3.7626 0
M  V30 19 C 2.0799 1.9093 -1.2404 0 CFG=1
M  V30 20 C 0.0281 0.8449 -2.3578 0
M  V30 21 C 1.3357 3.1469 -0.7296 0
M  V30 22 O -2.3487 -3.9739 4.834 0
M  V30 23 O 3.1253 1.6554 -0.3036 0
M  V30 24 C 2.665 2.0542 -2.6716 0
M  V30 25 C 1.7065 4.4277 -0.8792 0
M  V30 26 O 2.183 2.793 -3.5375 0
M  V30 27 C 3.8943 1.2129 -2.9963 0
M  V30 28 O 4.1767 1.2209 -4.3905 0
M  V30 29 H -0.3199 -1.7521 -1.3689 0
M  V30 30 H -1.6625 0.4408 -0.2683 0
M  V30 31 H -0.8031 -4.0567 0.689 0
M  V30 32 H -2.314 -2.7381 -0.8609 0
M  V30 33 H -3.6201 -2.7514 0.3213 0
M  V30 34 H -3.088 -1.2298 -0.3841 0
M  V30 35 H 1.4521 -2.7669 0.5853 0
M  V30 36 H 2.2542 -0.6679 -0.1463 0
M  V30 37 H 1.9555 -1.0117 -1.8273 0
M  V30 38 H 1.0018 1.111 1.0227 0
M  V30 39 H -1.9794 1.9248 1.6539 0
M  V30 40 H -0.9159 0.9327 2.6465 0
M  V30 41 H -3.0824 -1.5518 4.3763 0
M  V30 42 H -3.2613 0.4301 3.1241 0
M  V30 43 H -3.6105 0.1161 1.4354 0
M  V30 44 H -1.1564 -5.1158 2.8297 0
M  V30 45 H -0.8107 2.9612 -0.5693 0
M  V30 46 H 0.0109 3.2445 0.9887 0
M  V30 47 H 0.5443 0.4797 -3.2532 0
M  V30 48 H -0.857 0.216 -2.2362 0
M  V30 49 H -0.3315 1.8549 -2.5789 0
M  V30 50 H 3.4654 2.5159 0.0015 0
M  V30 51 H 1.1053 5.2378 -0.4753 0
M  V30 52 H 2.601 4.7085 -1.4271 0
M  V30 53 H 4.7575 1.6264 -2.4684 0
M  V30 54 H 3.7342 0.1775 -2.6927 0
M  V30 55 H 3.7631 2.0321 -4.7497 0
M  V30 END ATOM
M  V30 BEGIN BOND
M  V30 1 1 1 2
M  V30 2 1 2 3
M  V30 3 1 2 4
M  V30 4 1 2 5
M  V30 5 1 3 6
M  V30 6 1 3 7
M  V30 7 1 3 8
M  V30 8 1 4 9
M  V30 9 1 4 10
M  V30 10 1 5 11
M  V30 11 1 5 12
M  V30 12 2 6 13
M  V30 13 1 6 14
M  V30 14 2 7 15
M  V30 15 1 10 16
M  V30 16 1 11 17
M  V30 17 1 13 18
M  V30 18 1 16 19
M  V30 19 1 16 20
M  V30 20 1 17 21
M  V30 21 2 18 22
M  V30 22 1 19 23
M  V30 23 1 19 24
M  V30 24 2 21 25
M  V30 25 2 24 26
M  V30 26 1 24 27
M  V30 27 1 27 28
M  V30 28 1 11 16
M  V30 29 1 12 14
M  V30 30 1 15 18
M  V30 31 1 19 21
M  V30 32 1 4 29
M  V30 33 1 5 30
M  V30 34 1 7 31
M  V30 35 1 8 32
M  V30 36 1 8 33
M  V30 37 1 8 34
M  V30 38 1 9 35
M  V30 39 1 10 36
M  V30 40 1 10 37
M  V30 41 1 11 38
M  V30 42 1 12 39
M  V30 43 1 12 40
M  V30 44 1 13 41
M  V30 45 1 14 42
M  V30 46 1 14 43
M  V30 47 1 15 44
M  V30 48 1 17 45
M  V30 49 1 17 46
M  V30 50 1 20 47
M  V30 51 1 20 48
M  V30 52 1 20 49
M  V30 53 1 23 50
M  V30 54 1 25 51
M  V30 55 1 25 52
M  V30 56 1 27 53
M  V30 57 1 27 54
M  V30 58 1 28 55
M  V30 END BOND
M  V30 BEGIN COLLECTION
M  V30 MDLV30/STEABS ATOMS=(6 2 3 5 11 16 19)
M  V30 END COLLECTION
M  V30 END CTAB
M  END
>  <Column 1>
949

>  <level_0>
1082

>  <index>
1082

>  <Unnamed: 0>
1082

>  <NO.>
1094

>  <Name>
fluprednidene

>  <IUPAC_name>
(8s-9r-10s-13s-14s-17r)-9-fluoro-11-17-dihydroxy-17-(2-hydroxyacetyl)-10-13-dimethyl-16-methylidene-7-8-11-12-14-15-hexahydro-6h-cyclopenta[a]phenanthren-3-one

>  <SMILES>
C=C1C[C@H]2[C@@H]3CCC4=CC(=O)C=C[C@]4(C)[C@@]3(F)C(O)C[C@]2(C)[C@@]1(O)C(=O)CO

>  <CID>
92921

>  <logBB>


>  <BBB+/BBB->
BBB+

>  <Inchi>
InChI=1S/C22H27FO5/c1-12-8-16-15-5-4-13-9-14(25)6-7-19(13-2)21(15-23)17(26)10-20(16-3)22(12-28)18(27)11-24/h6-7-9-15-17-24-26-28H-1-4-5-8-10-11H2-2-3H3/t15--16--17?-19--20--21--22-/m0/s1

>  <threshold>
-1

>  <reference>
R1|R27|R30|

>  <group>
B

>  <Class>
1

>  <ABC>
22.39

>  <ABCGG>
18.86

>  <nAcid>
0

>  <nBase>
0

>  <nAromAtom>
0

>  <nAromBond>
0

>  <nAtom>
55

>  <nHeavyAtom>
28

>  <nSpiro>
0

>  <nBridgehead>
0

>  <nHetero>
6

>  <nN>
0

>  <nO>
5

>  <nF>
1

>  <BalabanJ>
1.77

>  <BertzCT>
845.87

>  <nBonds>
58

>  <nBondsO>
31

>  <nBondsS>
53

>  <nBondsD>
5

>  <nBondsT>
0

>  <nBondsA>
0

>  <nBondsM>
5

>  <nBondsKS>
53

>  <nBondsKD>
5

>  <RNCG>
0.16

>  <RPCG>
0.08

>  <FCSP3>
0.64

>  <SZ>
34.67

>  <Sm>
32.51

>  <Sv>
33.54

>  <Sse>
55.6

>  <Sp>
35.52

>  <Si>
62.2

>  <MZ>
0.63

>  <Mm>
0.59

>  <Mv>
0.61

>  <Mse>
1.01

>  <Mp>
0.65

>  <Mi>
1.13

>  <NsCH3>
2

>  <NdCH2>
1

>  <NssCH2>
5

>  <NtCH>
0

>  <NdsCH>
3

>  <NaaCH>
0

>  <NsssCH>
3

>  <NddC>
0

>  <NtsC>
0

>  <NdssC>
4

>  <NaasC>
0

>  <NaaaC>
0

>  <NssssC>
4

>  <NsNH3>
0

>  <NsNH2>
0

>  <NssNH2>
0

>  <NdNH>
0

>  <NssNH>
0

>  <NaaNH>
0

>  <NtN>
0

>  <NsssNH>
0

>  <NdsN>
0

>  <NaaN>
0

>  <NsssN>
0

>  <NddsN>
0

>  <NaasN>
0

>  <NssssN>
0

>  <NsOH>
3

>  <NdO>
2

>  <NssO>
0

>  <NaaO>
0

>  <NsF>
1

>  <NsSiH3>
0

>  <NssSiH2>
0

>  <NsssSiH>
0

>  <NssssSi>
0

>  <NsPH2>
0

>  <NssPH>
0

>  <NsssP>
0

>  <NdsssP>
0

>  <NsssssP>
0

>  <NsSH>
0

>  <NdS>
0

>  <NssS>
0

>  <NaaS>
0

>  <NdssS>
0

>  <NddssS>
0

>  <NsCl>
0

>  <NsBr>
0

>  <NsI>
0

>  <fragCpx>
205.06

>  <fMF>
0.31

>  <nHBAcc>
5

>  <nHBDon>
3

>  <Kier1>
21.24

>  <Kier2>
6.5

>  <Lipinski>
1

>  <GhoseFilter>
1

>  <FilterItLogS>
-3.03

>  <VMcGowan>
287.01

>  <LabuteASA>
163.18

>  <PEOE_VSA1>
15.32

>  <PEOE_VSA2>
9.59

>  <PEOE_VSA3>
4.39

>  <PEOE_VSA4>
0

>  <PEOE_VSA5>
0

>  <PEOE_VSA6>
25.15

>  <PEOE_VSA7>
56.25

>  <PEOE_VSA8>
16.75

>  <PEOE_VSA9>
6.1

>  <PEOE_VSA10>
6.61

>  <PEOE_VSA11>
22.84

>  <PEOE_VSA12>
0

>  <PEOE_VSA13>
0

>  <SMR_VSA1>
29.3

>  <SMR_VSA2>
0

>  <SMR_VSA3>
0

>  <SMR_VSA4>
22.67

>  <SMR_VSA5>
56.9

>  <SMR_VSA6>
6.61

>  <SMR_VSA7>
35.95

>  <SMR_VSA8>
0

>  <SMR_VSA9>
0

>  <SlogP_VSA1>
0

>  <SlogP_VSA2>
50.87

>  <SlogP_VSA3>
9.59

>  <SlogP_VSA4>
22.67

>  <SlogP_VSA5>
39.53

>  <SlogP_VSA6>
35.95

>  <SlogP_VSA7>
0

>  <SlogP_VSA8>
0

>  <SlogP_VSA9>
0

>  <SlogP_VSA10>
4.39

>  <SlogP_VSA11>
0

>  <EState_VSA1>
52.43

>  <EState_VSA2>
24.2

>  <EState_VSA3>
18.41

>  <EState_VSA4>
0

>  <EState_VSA5>
12.15

>  <EState_VSA6>
19.92

>  <EState_VSA7>
0

>  <EState_VSA8>
6.58

>  <EState_VSA9>
0

>  <EState_VSA10>
24.91

>  <VSA_EState1>
16.83

>  <VSA_EState2>
24.31

>  <VSA_EState3>
31.79

>  <VSA_EState4>
-5.28

>  <VSA_EState5>
-1.95

>  <VSA_EState6>
0

>  <VSA_EState7>
4.01

>  <VSA_EState8>
6.46

>  <VSA_EState9>
0

>  <apol>
59.31

>  <bpol>
29.94

>  <nRing>
4

>  <nHRing>
0

>  <naRing>
0

>  <naHRing>
0

>  <nARing 2>
4

>  <nAHRing 2>
0

>  <nFRing>
1

>  <nFHRing>
0

>  <nFaRing>
0

>  <nFaHRing>
0

>  <nFARing 2>
1

>  <nFAHRing 2>
0

>  <nRot>
2

>  <SLogP>
1.82

>  <SMR>
99.92

>  <TopoPSA(NO)>
94.83

>  <TopoPSA>
94.83

>  <JGI1>
0.32

>  <JGI2>
0.16

>  <JGI3>
0.08

>  <JGI4>
0.06

>  <JGI5>
0.04

>  <Diameter>
12

>  <Radius>
6

>  <TMWC10>
140.69

>  <TSRW10>
80.08

>  <MW>
390.18

>  <AMW>
7.09

>  <WPath>
1670

>  <WPol>
70

>  <Zagreb1>
168

>  <Zagreb2>
221

>  <mZagreb2>
5.82

>  <yes>


>  <nAR-cont>
0.199399

>  <nHA-cont>
0.82432561

>  <MWHBN>
0.405002296

>  <MWHBN-cont>
0.456397418

>  <TPSA-cont>
0.338027714

>  <pka_cont>
0.97

>  <yes.1>


>  <BBB_SCORE>
2.869376165

>  <MMFF94 Energy>
172.38

$$$$
Compound 793
Actelion Java MolfileCreator 2.0

  0  0  0  0  0  0              0 V3000
M  V30 BEGIN CTAB
M  V30 COUNTS 46 47 0 0 0
M  V30 BEGIN ATOM
M  V30 1 O -2.9715 -2.9715 2.5801 0
M  V30 2 C -2.4172 -1.884 1.9723 0
M  V30 3 C -2.8317 -1.527 0.7059 0
M  V30 4 C -1.4332 -1.1179 2.5939 0
M  V30 5 N -3.7835 -2.1434 -0.1012 0
M  V30 6 C -2.2793 -0.4129 0.047 0
M  V30 7 C -0.8803 -0.0036 1.9331 0
M  V30 8 C -3.9075 -1.4897 -1.3019 0
M  V30 9 C -1.2986 0.3705 0.6438 0
M  V30 10 C -2.9344 -0.2986 -1.3123 0
M  V30 11 C -4.7246 -1.8079 -2.3098 0
M  V30 12 C -0.676 1.5525 -0.0523 0
M  V30 13 C 0.542 1.1939 -0.9252 0
M  V30 14 N 1.7348 0.8212 -0.13 0
M  V30 15 C 2.7288 1.9131 -0.0661 0
M  V30 16 C 2.3816 -0.3941 -0.6679 0
M  V30 17 C 2.2304 3.1706 0.6559 0
M  V30 18 C 1.5834 -1.6707 -0.3703 0
M  V30 19 C 3.3442 4.1968 0.8105 0
M  V30 20 C 2.3119 -2.907 -0.8775 0
M  V30 21 H -2.5571 -3.0729 3.4518 0
M  V30 22 H -1.0718 -1.3679 3.5864 0
M  V30 23 H -4.3006 -2.9587 0.1834 0
M  V30 24 H -0.097 0.5679 2.4295 0
M  V30 25 H -2.1916 -0.4089 -2.108 0
M  V30 26 H -3.4774 0.6473 -1.3995 0
M  V30 27 H -5.3898 -2.6615 -2.2428 0
M  V30 28 H -4.7455 -1.2215 -3.2216 0
M  V30 29 H -0.4194 2.3148 0.6919 0
M  V30 30 H -1.4341 2.026 -0.6893 0
M  V30 31 H 0.2465 0.3894 -1.61 0
M  V30 32 H 0.7703 2.0427 -1.5832 0
M  V30 33 H 3.0758 2.1761 -1.0743 0
M  V30 34 H 3.6072 1.5545 0.4864 0
M  V30 35 H 3.3653 -0.5213 -0.1969 0
M  V30 36 H 2.5614 -0.2931 -1.7463 0
M  V30 37 H 1.411 3.6379 0.0995 0
M  V30 38 H 1.8497 2.906 1.6496 0
M  V30 39 H 1.43 -1.7689 0.7107 0
M  V30 40 H 0.5946 -1.639 -0.8385 0
M  V30 41 H 2.9689 5.0887 1.3223 0
M  V30 42 H 4.1731 3.7916 1.3996 0
M  V30 43 H 3.7329 4.5032 -0.1658 0
M  V30 44 H 1.7304 -3.807 -0.6541 0
M  V30 45 H 2.4595 -2.8575 -1.961 0
M  V30 46 H 3.2918 -3.0093 -0.4004 0
M  V30 END ATOM
M  V30 BEGIN BOND
M  V30 1 1 1 2
M  V30 2 2 2 3
M  V30 3 1 2 4
M  V30 4 1 3 5
M  V30 5 1 3 6
M  V30 6 2 4 7
M  V30 7 1 5 8
M  V30 8 2 6 9
M  V30 9 1 6 10
M  V30 10 2 8 11
M  V30 11 1 9 12
M  V30 12 1 12 13
M  V30 13 1 13 14
M  V30 14 1 14 15
M  V30 15 1 14 16
M  V30 16 1 15 17
M  V30 17 1 16 18
M  V30 18 1 17 19
M  V30 19 1 18 20
M  V30 20 1 7 9
M  V30 21 1 8 10
M  V30 22 1 1 21
M  V30 23 1 4 22
M  V30 24 1 5 23
M  V30 25 1 7 24
M  V30 26 1 10 25
M  V30 27 1 10 26
M  V30 28 1 11 27
M  V30 29 1 11 28
M  V30 30 1 12 29
M  V30 31 1 12 30
M  V30 32 1 13 31
M  V30 33 1 13 32
M  V30 34 1 15 33
M  V30 35 1 15 34
M  V30 36 1 16 35
M  V30 37 1 16 36
M  V30 38 1 17 37
M  V30 39 1 17 38
M  V30 40 1 18 39
M  V30 41 1 18 40
M  V30 42 1 19 41
M  V30 43 1 19 42
M  V30 44 1 19 43
M  V30 45 1 20 44
M  V30 46 1 20 45
M  V30 47 1 20 46
M  V30 END BOND
M  V30 END CTAB
M  END
>  <Column 1>
950

>  <level_0>
1083

>  <index>
1083

>  <Unnamed: 0>
1083

>  <NO.>
1095

>  <Name>
1948-01-01 0:00

>  <IUPAC_name>


>  <SMILES>
C=C1Cc2c(CCN(CCC)CCC)ccc(O)c2N1

>  <CID>


>  <logBB>


>  <BBB+/BBB->
BBB+

>  <Inchi>
InChI=1S/C17H26N2O/c1-4-9-19(10-5-2)11-8-14-6-7-16(20)17-15(14)12-13(3)18-17/h6-7-18-20H-3-5-8-12H2-1-2H3

>  <threshold>
-1

>  <reference>
R1|R19|R28|R9|R24|R27|R27|R30|R36|

>  <group>
B

>  <Class>
-1

>  <ABC>
14.95

>  <ABCGG>
13.14

>  <nAcid>
0

>  <nBase>
1

>  <nAromAtom>
6

>  <nAromBond>
6

>  <nAtom>
46

>  <nHeavyAtom>
20

>  <nSpiro>
0

>  <nBridgehead>
0

>  <nHetero>
3

>  <nN>
2

>  <nO>
1

>  <nF>
0

>  <BalabanJ>
1.85

>  <BertzCT>
476.12

>  <nBonds>
47

>  <nBondsO>
21

>  <nBondsS>
40

>  <nBondsD>
1

>  <nBondsT>
0

>  <nBondsA>
6

>  <nBondsM>
7

>  <nBondsKS>
43

>  <nBondsKD>
4

>  <RNCG>
0.32

>  <RPCG>
0.18

>  <FCSP3>
0.53

>  <SZ>
25

>  <Sm>
22.85

>  <Sv>
26.27

>  <Sse>
45.2

>  <Sp>
29.18

>  <Si>
52.19

>  <MZ>
0.54

>  <Mm>
0.5

>  <Mv>
0.57

>  <Mse>
0.98

>  <Mp>
0.63

>  <Mi>
1.13

>  <NsCH3>
2

>  <NdCH2>
1

>  <NssCH2>
7

>  <NtCH>
0

>  <NdsCH>
0

>  <NaaCH>
2

>  <NsssCH>
0

>  <NddC>
0

>  <NtsC>
0

>  <NdssC>
1

>  <NaasC>
4

>  <NaaaC>
0

>  <NssssC>
0

>  <NsNH3>
0

>  <NsNH2>
0

>  <NssNH2>
0

>  <NdNH>
0

>  <NssNH>
1

>  <NaaNH>
0

>  <NtN>
0

>  <NsssNH>
0

>  <NdsN>
0

>  <NaaN>
0

>  <NsssN>
1

>  <NddsN>
0

>  <NaasN>
0

>  <NssssN>
0

>  <NsOH>
1

>  <NdO>
0

>  <NssO>
0

>  <NaaO>
0

>  <NsF>
0

>  <NsSiH3>
0

>  <NssSiH2>
0

>  <NsssSiH>
0

>  <NssssSi>
0

>  <NsPH2>
0

>  <NssPH>
0

>  <NsssP>
0

>  <NdsssP>
0

>  <NsssssP>
0

>  <NsSH>
0

>  <NdS>
0

>  <NssS>
0

>  <NaaS>
0

>  <NdssS>
0

>  <NddssS>
0

>  <NsCl>
0

>  <NsBr>
0

>  <NsI>
0

>  <fragCpx>
61.03

>  <fMF>
0.2

>  <nHBAcc>
3

>  <nHBDon>
2

>  <Kier1>
16.37

>  <Kier2>
7.85

>  <Lipinski>
1

>  <GhoseFilter>
1

>  <FilterItLogS>
-5.05

>  <VMcGowan>
237.3

>  <LabuteASA>
121.85

>  <PEOE_VSA1>
15.32

>  <PEOE_VSA2>
0

>  <PEOE_VSA3>
0

>  <PEOE_VSA4>
0

>  <PEOE_VSA5>
0

>  <PEOE_VSA6>
26.49

>  <PEOE_VSA7>
49.55

>  <PEOE_VSA8>
18.66

>  <PEOE_VSA9>
5.69

>  <PEOE_VSA10>
5.75

>  <PEOE_VSA11>
0

>  <PEOE_VSA12>
0

>  <PEOE_VSA13>
0

>  <SMR_VSA1>
5.11

>  <SMR_VSA2>
0

>  <SMR_VSA3>
4.9

>  <SMR_VSA4>
0

>  <SMR_VSA5>
39.53

>  <SMR_VSA6>
24.95

>  <SMR_VSA7>
35.54

>  <SMR_VSA8>
0

>  <SMR_VSA9>
5.75

>  <SlogP_VSA1>
5.32

>  <SlogP_VSA2>
29.64

>  <SlogP_VSA3>
12.84

>  <SlogP_VSA4>
0

>  <SlogP_VSA5>
37.82

>  <SlogP_VSA6>
24.41

>  <SlogP_VSA7>
0

>  <SlogP_VSA8>
0

>  <SlogP_VSA9>
0

>  <SlogP_VSA10>
5.69

>  <SlogP_VSA11>
5.75

>  <EState_VSA1>
0

>  <EState_VSA2>
0

>  <EState_VSA3>
5.75

>  <EState_VSA4>
30.77

>  <EState_VSA5>
37.06

>  <EState_VSA6>
6.07

>  <EState_VSA7>
0

>  <EState_VSA8>
36.71

>  <EState_VSA9>
0

>  <EState_VSA10>
5.11

>  <VSA_EState1>
0

>  <VSA_EState2>
2.52

>  <VSA_EState3>
13.09

>  <VSA_EState4>
4.4

>  <VSA_EState5>
0.33

>  <VSA_EState6>
3.86

>  <VSA_EState7>
4.27

>  <VSA_EState8>
11.85

>  <VSA_EState9>
0

>  <apol>
48.73

>  <bpol>
28.36

>  <nRing>
2

>  <nHRing>
1

>  <naRing>
1

>  <naHRing>
0

>  <nARing 2>
1

>  <nAHRing 2>
1

>  <nFRing>
1

>  <nFHRing>
1

>  <nFaRing>
0

>  <nFaHRing>
0

>  <nFARing 2>
1

>  <nFAHRing 2>
1

>  <nRot>
7

>  <SLogP>
3.54

>  <SMR>
85.3

>  <TopoPSA(NO)>
35.5

>  <TopoPSA>
35.5

>  <JGI1>
0.19

>  <JGI2>
0.08

>  <JGI3>
0.04

>  <JGI4>
0.04

>  <JGI5>
0.03

>  <Diameter>
10

>  <Radius>
5

>  <TMWC10>
113.42

>  <TSRW10>
67.14

>  <MW>
274.2

>  <AMW>
5.96

>  <WPath>
862

>  <WPol>
28

>  <Zagreb1>
98

>  <Zagreb2>
113

>  <mZagreb2>
4.67

>  <yes>


>  <nAR-cont>
0.816016

>  <nHA-cont>
0.999629945

>  <MWHBN>
0.301950866

>  <MWHBN-cont>
0.834871151

>  <TPSA-cont>
0.752187956

>  <pka_cont>
0.97

>  <yes.1>


>  <BBB_SCORE>
5.057328583

>  <MMFF94 Energy>
56.785

$$$$
Compound 794
Actelion Java MolfileCreator 2.0

  0  0  0  0  0  0              0 V3000
M  V30 BEGIN CTAB
M  V30 COUNTS 46 48 0 0 0
M  V30 BEGIN ATOM
M  V30 1 N 0.0 -0.0789 1.1063 0
M  V30 2 C -0.3422 -1.2932 1.7051 0
M  V30 3 C -1.0186 0.9578 1.2274 0
M  V30 4 C 0.8441 -0.1499 -0.0854 0
M  V30 5 C -1.4007 -2.0881 1.2282 0
M  V30 6 C 0.3818 -1.7219 2.8258 0
M  V30 7 C -2.233 0.8508 0.3186 0
M  V30 8 C 1.9464 0.9114 -0.0294 0
M  V30 9 C -2.1305 -1.6812 0.0034 0
M  V30 10 C -1.7348 -3.2749 1.9021 0
M  V30 11 C 0.0509 -2.9082 3.4821 0
M  V30 12 C -2.7679 -0.349 -0.2005 0
M  V30 13 C -2.9168 2.0646 0.0661 0
M  V30 14 C 2.8672 0.7949 -1.2506 0
M  V30 15 C -2.0695 -2.5465 -1.0303 0
M  V30 16 C -1.0119 -3.6817 3.0242 0
M  V30 17 C -3.9797 -0.2859 -0.9244 0
M  V30 18 C -4.0948 2.1031 -0.677 0
M  V30 19 N 4.0165 1.7168 -1.2034 0
M  V30 20 C -4.6315 0.9237 -1.1677 0
M  V30 21 C 3.6091 3.1168 -1.3387 0
M  V30 22 C 4.9726 1.3783 -2.2616 0
M  V30 23 H -0.5324 1.9238 1.0434 0
M  V30 24 H -1.3789 1.0051 2.265 0
M  V30 25 H 0.242 -0.0174 -0.9922 0
M  V30 26 H 1.3176 -1.1379 -0.1624 0
M  V30 27 H 1.2042 -1.114 3.1943 0
M  V30 28 H 2.5295 0.7879 0.8919 0
M  V30 29 H 1.4909 1.9061 0.0099 0
M  V30 30 H -2.5615 -3.888 1.5517 0
M  V30 31 H 0.6193 -3.2212 4.3535 0
M  V30 32 H -2.5304 3.0 0.4689 0
M  V30 33 H 3.246 -0.2351 -1.2789 0
M  V30 34 H 2.2881 0.945 -2.1714 0
M  V30 35 H -1.5549 -3.5 -0.9492 0
M  V30 36 H -2.4913 -2.3228 -2.0045 0
M  V30 37 H -1.2769 -4.6021 3.5374 0
M  V30 38 H -4.4422 -1.1965 -1.3004 0
M  V30 39 H -4.5988 3.0494 -0.854 0
M  V30 40 H -5.5603 0.9371 -1.7315 0
M  V30 41 H 2.9965 3.437 -0.4904 0
M  V30 42 H 3.0479 3.2965 -2.2627 0
M  V30 43 H 4.4865 3.7741 -1.3388 0
M  V30 44 H 4.5333 1.4741 -3.2613 0
M  V30 45 H 5.3357 0.3517 -2.1401 0
M  V30 46 H 5.854 2.0272 -2.2074 0
M  V30 END ATOM
M  V30 BEGIN BOND
M  V30 1 1 1 2
M  V30 2 1 1 3
M  V30 3 1 1 4
M  V30 4 2 2 5
M  V30 5 1 2 6
M  V30 6 1 3 7
M  V30 7 1 4 8
M  V30 8 1 5 9
M  V30 9 1 5 10
M  V30 10 2 6 11
M  V30 11 2 7 12
M  V30 12 1 7 13
M  V30 13 1 8 14
M  V30 14 2 9 15
M  V30 15 2 10 16
M  V30 16 1 12 17
M  V30 17 2 13 18
M  V30 18 1 14 19
M  V30 19 2 17 20
M  V30 20 1 19 21
M  V30 21 1 19 22
M  V30 22 1 9 12
M  V30 23 1 11 16
M  V30 24 1 18 20
M  V30 25 1 3 23
M  V30 26 1 3 24
M  V30 27 1 4 25
M  V30 28 1 4 26
M  V30 29 1 6 27
M  V30 30 1 8 28
M  V30 31 1 8 29
M  V30 32 1 10 30
M  V30 33 1 11 31
M  V30 34 1 13 32
M  V30 35 1 14 33
M  V30 36 1 14 34
M  V30 37 1 15 35
M  V30 38 1 15 36
M  V30 39 1 16 37
M  V30 40 1 17 38
M  V30 41 1 18 39
M  V30 42 1 20 40
M  V30 43 1 21 41
M  V30 44 1 21 42
M  V30 45 1 21 43
M  V30 46 1 22 44
M  V30 47 1 22 45
M  V30 48 1 22 46
M  V30 END BOND
M  V30 END CTAB
M  END
>  <Column 1>
953

>  <level_0>
1086

>  <index>
1086

>  <Unnamed: 0>
1086

>  <NO.>
1098

>  <Name>
enprazepine

>  <IUPAC_name>
n-n-dimethyl-3-(11-methylidene-6h-benzo[c][1]benzazepin-5-yl)propan-1-amine

>  <SMILES>
C=C1c2ccccc2CN(CCCN(C)C)c2ccccc21

>  <CID>
208922

>  <logBB>


>  <BBB+/BBB->
BBB+

>  <Inchi>
InChI=1S/C20H24N2/c1-16-18-10-5-4-9-17(18)15-22(14-8-13-21(2)3)20-12-7-6-11-19(16)20/h4-7-9-12H-1-8-13-15H2-2-3H3

>  <threshold>
-1

>  <reference>
R1|R13|R19|R6|R24|R27|R27|R27|R30|R30|

>  <group>
B

>  <Class>
1

>  <ABC>
17.1

>  <ABCGG>
13.72

>  <nAcid>
0

>  <nBase>
1

>  <nAromAtom>
12

>  <nAromBond>
12

>  <nAtom>
46

>  <nHeavyAtom>
22

>  <nSpiro>
0

>  <nBridgehead>
0

>  <nHetero>
2

>  <nN>
2

>  <nO>
0

>  <nF>
0

>  <BalabanJ>
1.72

>  <BertzCT>
672.91

>  <nBonds>
48

>  <nBondsO>
24

>  <nBondsS>
35

>  <nBondsD>
1

>  <nBondsT>
0

>  <nBondsA>
12

>  <nBondsM>
13

>  <nBondsKS>
41

>  <nBondsKD>
7

>  <RNCG>
0.28

>  <RPCG>
0.05

>  <FCSP3>
0.3

>  <SZ>
26.33

>  <Sm>
24.35

>  <Sv>
28.02

>  <Sse>
44.98

>  <Sp>
30.9

>  <Si>
51.56

>  <MZ>
0.57

>  <Mm>
0.53

>  <Mv>
0.61

>  <Mse>
0.98

>  <Mp>
0.67

>  <Mi>
1.12

>  <NsCH3>
2

>  <NdCH2>
1

>  <NssCH2>
4

>  <NtCH>
0

>  <NdsCH>
0

>  <NaaCH>
8

>  <NsssCH>
0

>  <NddC>
0

>  <NtsC>
0

>  <NdssC>
1

>  <NaasC>
4

>  <NaaaC>
0

>  <NssssC>
0

>  <NsNH3>
0

>  <NsNH2>
0

>  <NssNH2>
0

>  <NdNH>
0

>  <NssNH>
0

>  <NaaNH>
0

>  <NtN>
0

>  <NsssNH>
0

>  <NdsN>
0

>  <NaaN>
0

>  <NsssN>
2

>  <NddsN>
0

>  <NaasN>
0

>  <NssssN>
0

>  <NsOH>
0

>  <NdO>
0

>  <NssO>
0

>  <NaaO>
0

>  <NsF>
0

>  <NsSiH3>
0

>  <NssSiH2>
0

>  <NsssSiH>
0

>  <NssssSi>
0

>  <NsPH2>
0

>  <NssPH>
0

>  <NsssP>
0

>  <NdsssP>
0

>  <NsssssP>
0

>  <NsSH>
0

>  <NdS>
0

>  <NssS>
0

>  <NaaS>
0

>  <NdssS>
0

>  <NddssS>
0

>  <NsCl>
0

>  <NsBr>
0

>  <NsI>
0

>  <fragCpx>
114.02

>  <fMF>
0.33

>  <nHBAcc>
2

>  <nHBDon>
0

>  <Kier1>
16.84

>  <Kier2>
7.71

>  <Lipinski>
1

>  <GhoseFilter>
1

>  <FilterItLogS>
-5.29

>  <VMcGowan>
249.94

>  <LabuteASA>
133.23

>  <PEOE_VSA1>
9.8

>  <PEOE_VSA2>
0

>  <PEOE_VSA3>
0

>  <PEOE_VSA4>
0

>  <PEOE_VSA5>
0

>  <PEOE_VSA6>
49.04

>  <PEOE_VSA7>
49.83

>  <PEOE_VSA8>
24.34

>  <PEOE_VSA9>
0

>  <PEOE_VSA10>
0

>  <PEOE_VSA11>
0

>  <PEOE_VSA12>
0

>  <PEOE_VSA13>
0

>  <SMR_VSA1>
0

>  <SMR_VSA2>
0

>  <SMR_VSA3>
4.9

>  <SMR_VSA4>
0

>  <SMR_VSA5>
12.97

>  <SMR_VSA6>
32.08

>  <SMR_VSA7>
71.8

>  <SMR_VSA8>
0

>  <SMR_VSA9>
0

>  <SlogP_VSA1>
4.9

>  <SlogP_VSA2>
32.08

>  <SlogP_VSA3>
6.54

>  <SlogP_VSA4>
0

>  <SlogP_VSA5>
23.11

>  <SlogP_VSA6>
55.11

>  <SlogP_VSA7>
0

>  <SlogP_VSA8>
5.57

>  <SlogP_VSA9>
0

>  <SlogP_VSA10>
5.69

>  <SlogP_VSA11>
0

>  <EState_VSA1>
0

>  <EState_VSA2>
0

>  <EState_VSA3>
0

>  <EState_VSA4>
31.63

>  <EState_VSA5>
22.38

>  <EState_VSA6>
0

>  <EState_VSA7>
0

>  <EState_VSA8>
79.01

>  <EState_VSA9>
0

>  <EState_VSA10>
0

>  <VSA_EState1>
0

>  <VSA_EState2>
4.74

>  <VSA_EState3>
0

>  <VSA_EState4>
6.36

>  <VSA_EState5>
0

>  <VSA_EState6>
17.3

>  <VSA_EState7>
1.16

>  <VSA_EState8>
7.5

>  <VSA_EState9>
4.26

>  <apol>
51.6

>  <bpol>
27.5

>  <nRing>
3

>  <nHRing>
1

>  <naRing>
2

>  <naHRing>
0

>  <nARing 2>
1

>  <nAHRing 2>
1

>  <nFRing>
1

>  <nFHRing>
1

>  <nFaRing>
0

>  <nFaHRing>
0

>  <nFARing 2>
1

>  <nFAHRing 2>
1

>  <nRot>
4

>  <SLogP>
4.02

>  <SMR>
95.24

>  <TopoPSA(NO)>
6.48

>  <TopoPSA>
6.48

>  <JGI1>
0.15

>  <JGI2>
0.07

>  <JGI3>
0.05

>  <JGI4>
0.04

>  <JGI5>
0.02

>  <Diameter>
10

>  <Radius>
5

>  <TMWC10>
120.32

>  <TSRW10>
64.24

>  <MW>
292.19

>  <AMW>
6.35

>  <WPath>
1001

>  <WPol>
38

>  <Zagreb1>
114

>  <Zagreb2>
134

>  <mZagreb2>
4.89

>  <yes>


>  <nAR-cont>
0.816016

>  <nHA-cont>
0.983774276

>  <MWHBN>
0.117003087

>  <MWHBN-cont>
0.816178545

>  <TPSA-cont>
0.954765576

>  <pka_cont>
0.97

>  <yes.1>


>  <BBB_SCORE>
5.418589246

>  <MMFF94 Energy>
86.842

$$$$
Compound 795
Actelion Java MolfileCreator 2.0

  0  0  0  0  0  0              0 V3000
M  V30 BEGIN CTAB
M  V30 COUNTS 20 19 0 0 0
M  V30 BEGIN ATOM
M  V30 1 O -1.5276 2.9806 0.458 0
M  V30 2 C -1.6504 1.9331 1.0696 0
M  V30 3 O -2.4084 1.8776 2.1829 0
M  V30 4 C -1.0399 0.5998 0.7379 0
M  V30 5 C -0.128 0.7007 -0.4887 0
M  V30 6 C 0.5059 -0.6251 -0.9395 0 CFG=2
M  V30 7 N -0.5227 -1.6024 -1.2847 0
M  V30 8 C 1.4017 -1.2262 0.105 0
M  V30 9 C 2.7346 -1.3165 0.0 0
M  V30 10 H -2.7459 2.7917 2.2861 0
M  V30 11 H -1.8577 -0.1044 0.5533 0
M  V30 12 H -0.468 0.2684 1.6107 0
M  V30 13 H -0.7015 1.1204 -1.3269 0
M  V30 14 H 0.6699 1.4273 -0.2822 0
M  V30 15 H 1.0889 -0.4206 -1.8468 0
M  V30 16 H -1.0897 -1.2356 -2.0479 0
M  V30 17 H -0.0666 -2.4361 -1.6552 0
M  V30 18 H 0.9236 -1.6226 0.9992 0
M  V30 19 H 3.2674 -0.9444 -0.8692 0
M  V30 20 H 3.3222 -1.7705 0.7923 0
M  V30 END ATOM
M  V30 BEGIN BOND
M  V30 1 2 1 2
M  V30 2 1 2 3
M  V30 3 1 2 4
M  V30 4 1 4 5
M  V30 5 1 5 6
M  V30 6 1 6 7
M  V30 7 1 6 8
M  V30 8 2 8 9
M  V30 9 1 3 10
M  V30 10 1 4 11
M  V30 11 1 4 12
M  V30 12 1 5 13
M  V30 13 1 5 14
M  V30 14 1 6 15
M  V30 15 1 7 16
M  V30 16 1 7 17
M  V30 17 1 8 18
M  V30 18 1 9 19
M  V30 19 1 9 20
M  V30 END BOND
M  V30 BEGIN COLLECTION
M  V30 MDLV30/STERAC1 ATOMS=(1 6)
M  V30 END COLLECTION
M  V30 END CTAB
M  END
>  <Column 1>
954

>  <level_0>
1087

>  <index>
1087

>  <Unnamed: 0>
1087

>  <NO.>
1099

>  <Name>
vigabatrin

>  <IUPAC_name>
4-aminohex-5-enoic acid

>  <SMILES>
C=CC(N)CCC(=O)O

>  <CID>
5665

>  <logBB>


>  <BBB+/BBB->
BBB+

>  <Inchi>
InChI=1S/C6H11NO2/c1-2-5(7)3-4-6(8)9/h2-5H-1-3-4-7H2-(H-8-9)

>  <threshold>
-1

>  <reference>
R1|R7|R19|R6|R14|R23|R27|R27|R29|R30|R37|

>  <group>
B

>  <Class>
1

>  <ABC>
5.99

>  <ABCGG>
6.26

>  <nAcid>
1

>  <nBase>
1

>  <nAromAtom>
0

>  <nAromBond>
0

>  <nAtom>
20

>  <nHeavyAtom>
9

>  <nSpiro>
0

>  <nBridgehead>
0

>  <nHetero>
3

>  <nN>
1

>  <nO>
2

>  <nF>
0

>  <BalabanJ>
3.06

>  <BertzCT>
111.63

>  <nBonds>
19

>  <nBondsO>
8

>  <nBondsS>
17

>  <nBondsD>
2

>  <nBondsT>
0

>  <nBondsA>
0

>  <nBondsM>
2

>  <nBondsKS>
17

>  <nBondsKD>
2

>  <RNCG>
0.38

>  <RPCG>
0.24

>  <FCSP3>
0.5

>  <SZ>
11.67

>  <Sm>
10.75

>  <Sv>
11.17

>  <Sse>
20.21

>  <Sp>
12.01

>  <Si>
22.99

>  <MZ>
0.58

>  <Mm>
0.54

>  <Mv>
0.56

>  <Mse>
1.01

>  <Mp>
0.6

>  <Mi>
1.15

>  <NsCH3>
0

>  <NdCH2>
1

>  <NssCH2>
2

>  <NtCH>
0

>  <NdsCH>
1

>  <NaaCH>
0

>  <NsssCH>
1

>  <NddC>
0

>  <NtsC>
0

>  <NdssC>
1

>  <NaasC>
0

>  <NaaaC>
0

>  <NssssC>
0

>  <NsNH3>
0

>  <NsNH2>
1

>  <NssNH2>
0

>  <NdNH>
0

>  <NssNH>
0

>  <NaaNH>
0

>  <NtN>
0

>  <NsssNH>
0

>  <NdsN>
0

>  <NaaN>
0

>  <NsssN>
0

>  <NddsN>
0

>  <NaasN>
0

>  <NssssN>
0

>  <NsOH>
1

>  <NdO>
1

>  <NssO>
0

>  <NaaO>
0

>  <NsF>
0

>  <NsSiH3>
0

>  <NssSiH2>
0

>  <NsssSiH>
0

>  <NssssSi>
0

>  <NsPH2>
0

>  <NssPH>
0

>  <NsssP>
0

>  <NdsssP>
0

>  <NsssssP>
0

>  <NsSH>
0

>  <NdS>
0

>  <NssS>
0

>  <NaaS>
0

>  <NdssS>
0

>  <NddssS>
0

>  <NsCl>
0

>  <NsBr>
0

>  <NsI>
0

>  <fragCpx>
8.03

>  <fMF>
0

>  <nHBAcc>
2

>  <nHBDon>
2

>  <Kier1>
9

>  <Kier2>
4.84

>  <Lipinski>
1

>  <GhoseFilter>
0

>  <FilterItLogS>
-0.16

>  <VMcGowan>
108.52

>  <LabuteASA>
54.17

>  <PEOE_VSA1>
10.84

>  <PEOE_VSA2>
4.79

>  <PEOE_VSA3>
0

>  <PEOE_VSA4>
0

>  <PEOE_VSA5>
6.58

>  <PEOE_VSA6>
6.08

>  <PEOE_VSA7>
6.42

>  <PEOE_VSA8>
12.46

>  <PEOE_VSA9>
0

>  <PEOE_VSA10>
0

>  <PEOE_VSA11>
0

>  <PEOE_VSA12>
0

>  <PEOE_VSA13>
0

>  <SMR_VSA1>
9.9

>  <SMR_VSA2>
0

>  <SMR_VSA3>
0

>  <SMR_VSA4>
5.73

>  <SMR_VSA5>
18.88

>  <SMR_VSA6>
0

>  <SMR_VSA7>
12.65

>  <SMR_VSA8>
0

>  <SMR_VSA9>
0

>  <SlogP_VSA1>
5.73

>  <SlogP_VSA2>
17.12

>  <SlogP_VSA3>
4.79

>  <SlogP_VSA4>
0

>  <SlogP_VSA5>
12.84

>  <SlogP_VSA6>
12.65

>  <SlogP_VSA7>
0

>  <SlogP_VSA8>
0

>  <SlogP_VSA9>
0

>  <SlogP_VSA10>
0

>  <SlogP_VSA11>
0

>  <EState_VSA1>
5.97

>  <EState_VSA2>
12.46

>  <EState_VSA3>
6.42

>  <EState_VSA4>
0

>  <EState_VSA5>
0

>  <EState_VSA6>
6.08

>  <EState_VSA7>
0

>  <EState_VSA8>
6.58

>  <EState_VSA9>
10.84

>  <EState_VSA10>
4.79

>  <VSA_EState1>
0

>  <VSA_EState2>
9.93

>  <VSA_EState3>
8.17

>  <VSA_EState4>
5.34

>  <VSA_EState5>
-0.81

>  <VSA_EState6>
-0.18

>  <VSA_EState7>
2.13

>  <VSA_EState8>
3.42

>  <VSA_EState9>
0

>  <apol>
20.06

>  <bpol>
11.33

>  <nRing>
0

>  <nHRing>
0

>  <naRing>
0

>  <naHRing>
0

>  <nARing 2>
0

>  <nAHRing 2>
0

>  <nFRing>
0

>  <nFHRing>
0

>  <nFaRing>
0

>  <nFaHRing>
0

>  <nFARing 2>
0

>  <nFAHRing 2>
0

>  <nRot>
4

>  <SLogP>
0.36

>  <SMR>
35.04

>  <TopoPSA(NO)>
63.32

>  <TopoPSA>
63.32

>  <JGI1>
0.31

>  <JGI2>
0.1

>  <JGI3>
0.04

>  <JGI4>
0.06

>  <JGI5>
0.02

>  <Diameter>
6

>  <Radius>
3

>  <TMWC10>
74.09

>  <TSRW10>
35.59

>  <MW>
129.08

>  <AMW>
6.45

>  <WPath>
104

>  <WPol>
7

>  <Zagreb1>
34

>  <Zagreb2>
33

>  <mZagreb2>
2.25

>  <yes>


>  <nAR-cont>
0.336376

>  <nHA-cont>
0.56070381

>  <MWHBN>
0.35207121

>  <MWHBN-cont>
0.662486049

>  <TPSA-cont>
0.557987081

>  <pka_cont>
0.97

>  <yes.1>


>  <BBB_SCORE>
3.491783044

>  <MMFF94 Energy>
-42.453

$$$$
Compound 796
Actelion Java MolfileCreator 2.0

  0  0  0  0  0  0              0 V3000
M  V30 BEGIN CTAB
M  V30 COUNTS 32 32 0 0 0
M  V30 BEGIN ATOM
M  V30 1 O -2.5109 -2.7465 -3.2965 0
M  V30 2 C -1.9883 -1.9421 -2.533 0
M  V30 3 N -2.7102 -1.2729 -1.6016 0
M  V30 4 N -0.6573 -1.6872 -2.5724 0
M  V30 5 C -2.2342 -0.3872 -0.6783 0
M  V30 6 C 0.0333 -0.7945 -1.8032 0
M  V30 7 O -3.0092 0.0606 0.169 0
M  V30 8 C -0.7544 0.0086 -0.7613 0
M  V30 9 O 1.2363 -0.6427 -2.0169 0
M  V30 10 C -0.796 1.4505 -1.2927 0
M  V30 11 C -0.1163 -0.1714 0.6681 0 CFG=2
M  V30 12 C -0.8544 2.5796 -0.5698 0
M  V30 13 C 1.3369 0.3585 0.7903 0
M  V30 14 C -0.1685 -1.6441 1.1236 0
M  V30 15 C 1.7505 0.6302 2.2419 0
M  V30 16 C 3.1552 1.2095 2.3184 0
M  V30 17 H -3.6963 -1.4882 -1.5523 0
M  V30 18 H -0.1221 -2.1925 -3.2649 0
M  V30 19 H -0.7883 1.5646 -2.378 0
M  V30 20 H -0.7331 0.3916 1.3826 0
M  V30 21 H -0.8898 2.5774 0.5152 0
M  V30 22 H -0.8838 3.5496 -1.0585 0
M  V30 23 H 2.0388 -0.3632 0.3562 0
M  V30 24 H 1.4577 1.2881 0.2254 0
M  V30 25 H -1.1853 -2.0456 1.0774 0
M  V30 26 H 0.474 -2.2789 0.505 0
M  V30 27 H 0.1615 -1.7485 2.1615 0
M  V30 28 H 1.0486 1.335 2.7025 0
M  V30 29 H 1.7202 -0.2922 2.8303 0
M  V30 30 H 3.4318 1.3959 3.3608 0
M  V30 31 H 3.888 0.5182 1.8905 0
M  V30 32 H 3.2189 2.1581 1.7758 0
M  V30 END ATOM
M  V30 BEGIN BOND
M  V30 1 2 1 2
M  V30 2 1 2 3
M  V30 3 1 2 4
M  V30 4 1 3 5
M  V30 5 1 4 6
M  V30 6 2 5 7
M  V30 7 1 5 8
M  V30 8 2 6 9
M  V30 9 1 8 10
M  V30 10 1 8 11
M  V30 11 2 10 12
M  V30 12 1 11 13
M  V30 13 1 11 14
M  V30 14 1 13 15
M  V30 15 1 15 16
M  V30 16 1 6 8
M  V30 17 1 3 17
M  V30 18 1 4 18
M  V30 19 1 10 19
M  V30 20 1 11 20
M  V30 21 1 12 21
M  V30 22 1 12 22
M  V30 23 1 13 23
M  V30 24 1 13 24
M  V30 25 1 14 25
M  V30 26 1 14 26
M  V30 27 1 14 27
M  V30 28 1 15 28
M  V30 29 1 15 29
M  V30 30 1 16 30
M  V30 31 1 16 31
M  V30 32 1 16 32
M  V30 END BOND
M  V30 BEGIN COLLECTION
M  V30 MDLV30/STERAC1 ATOMS=(1 11)
M  V30 END COLLECTION
M  V30 END CTAB
M  END
>  <Column 1>
955

>  <level_0>
1088

>  <index>
1088

>  <Unnamed: 0>
1088

>  <NO.>
1100

>  <Name>
vinylbital

>  <IUPAC_name>
5-ethenyl-5-pentan-2-yl-1-3-diazinane-2-4-6-trione

>  <SMILES>
C=CC1(C(C)CCC)C(=O)NC(=O)NC1=O

>  <CID>
72135

>  <logBB>


>  <BBB+/BBB->
BBB+

>  <Inchi>
InChI=1S/C11H16N2O3/c1-4-6-7(3)11(5-2)8(14)12-10(16)13-9(11)15/h5-7H-2-4-6H2-1-3H3-(H2-12-13-14-15-16)

>  <threshold>
-1

>  <reference>
R1|R19|R6|R27|R27|R30|

>  <group>
B

>  <Class>
-1

>  <ABC>
11.57

>  <ABCGG>
11.41

>  <nAcid>
0

>  <nBase>
0

>  <nAromAtom>
0

>  <nAromBond>
0

>  <nAtom>
32

>  <nHeavyAtom>
16

>  <nSpiro>
0

>  <nBridgehead>
0

>  <nHetero>
5

>  <nN>
2

>  <nO>
3

>  <nF>
0

>  <BalabanJ>
2.9

>  <BertzCT>
329.14

>  <nBonds>
32

>  <nBondsO>
16

>  <nBondsS>
28

>  <nBondsD>
4

>  <nBondsT>
0

>  <nBondsA>
0

>  <nBondsM>
4

>  <nBondsKS>
28

>  <nBondsKD>
4

>  <RNCG>
0.16

>  <RPCG>
0.19

>  <FCSP3>
0.55

>  <SZ>
20

>  <Sm>
18.67

>  <Sv>
18.99

>  <Sse>
32.42

>  <Sp>
20.15

>  <Si>
36.53

>  <MZ>
0.63

>  <Mm>
0.58

>  <Mv>
0.59

>  <Mse>
1.01

>  <Mp>
0.63

>  <Mi>
1.14

>  <NsCH3>
2

>  <NdCH2>
1

>  <NssCH2>
2

>  <NtCH>
0

>  <NdsCH>
1

>  <NaaCH>
0

>  <NsssCH>
1

>  <NddC>
0

>  <NtsC>
0

>  <NdssC>
3

>  <NaasC>
0

>  <NaaaC>
0

>  <NssssC>
1

>  <NsNH3>
0

>  <NsNH2>
0

>  <NssNH2>
0

>  <NdNH>
0

>  <NssNH>
2

>  <NaaNH>
0

>  <NtN>
0

>  <NsssNH>
0

>  <NdsN>
0

>  <NaaN>
0

>  <NsssN>
0

>  <NddsN>
0

>  <NaasN>
0

>  <NssssN>
0

>  <NsOH>
0

>  <NdO>
3

>  <NssO>
0

>  <NaaO>
0

>  <NsF>
0

>  <NsSiH3>
0

>  <NssSiH2>
0

>  <NsssSiH>
0

>  <NssssSi>
0

>  <NsPH2>
0

>  <NssPH>
0

>  <NsssP>
0

>  <NdsssP>
0

>  <NsssssP>
0

>  <NsSH>
0

>  <NdS>
0

>  <NssS>
0

>  <NaaS>
0

>  <NdssS>
0

>  <NddssS>
0

>  <NsCl>
0

>  <NsBr>
0

>  <NsI>
0

>  <fragCpx>
16.05

>  <fMF>
0.19

>  <nHBAcc>
3

>  <nHBDon>
2

>  <Kier1>
14.06

>  <Kier2>
5.56

>  <Lipinski>
1

>  <GhoseFilter>
1

>  <FilterItLogS>
-2.83

>  <VMcGowan>
175.36

>  <LabuteASA>
94.28

>  <PEOE_VSA1>
0

>  <PEOE_VSA2>
20.22

>  <PEOE_VSA3>
4.79

>  <PEOE_VSA4>
0

>  <PEOE_VSA5>
6.58

>  <PEOE_VSA6>
26.34

>  <PEOE_VSA7>
12.34

>  <PEOE_VSA8>
0

>  <PEOE_VSA9>
0

>  <PEOE_VSA10>
5.41

>  <PEOE_VSA11>
0

>  <PEOE_VSA12>
11.81

>  <PEOE_VSA13>
0

>  <SMR_VSA1>
14.38

>  <SMR_VSA2>
0

>  <SMR_VSA3>
10.63

>  <SMR_VSA4>
11.33

>  <SMR_VSA5>
26.69

>  <SMR_VSA6>
0

>  <SMR_VSA7>
12.65

>  <SMR_VSA8>
0

>  <SMR_VSA9>
0

>  <SlogP_VSA1>
10.63

>  <SlogP_VSA2>
17.85

>  <SlogP_VSA3>
9.59

>  <SlogP_VSA4>
11.33

>  <SlogP_VSA5>
26.69

>  <SlogP_VSA6>
12.65

>  <SlogP_VSA7>
0

>  <SlogP_VSA8>
0

>  <SlogP_VSA9>
0

>  <SlogP_VSA10>
4.79

>  <SlogP_VSA11>
0

>  <EState_VSA1>
23.26

>  <EState_VSA2>
5.92

>  <EState_VSA3>
6.42

>  <EState_VSA4>
6.42

>  <EState_VSA5>
6.08

>  <EState_VSA6>
6.92

>  <EState_VSA7>
6.92

>  <EState_VSA8>
17.21

>  <EState_VSA9>
0

>  <EState_VSA10>
14.38

>  <VSA_EState1>
0

>  <VSA_EState2>
34.61

>  <VSA_EState3>
4.22

>  <VSA_EState4>
-1.33

>  <VSA_EState5>
-1.36

>  <VSA_EState6>
-0.77

>  <VSA_EState7>
2.89

>  <VSA_EState8>
7.33

>  <VSA_EState9>
0

>  <apol>
33.64

>  <bpol>
19.8

>  <nRing>
1

>  <nHRing>
1

>  <naRing>
0

>  <naHRing>
0

>  <nARing 2>
1

>  <nAHRing 2>
1

>  <nFRing>
0

>  <nFHRing>
0

>  <nFaRing>
0

>  <nFaHRing>
0

>  <nFARing 2>
0

>  <nFAHRing 2>
0

>  <nRot>
4

>  <SLogP>
0.96

>  <SMR>
58.38

>  <TopoPSA(NO)>
75.27

>  <TopoPSA>
75.27

>  <JGI1>
0.31

>  <JGI2>
0.14

>  <JGI3>
0.09

>  <JGI4>
0.04

>  <JGI5>
0.04

>  <Diameter>
8

>  <Radius>
4

>  <TMWC10>
103.73

>  <TSRW10>
48.75

>  <MW>
224.12

>  <AMW>
7

>  <WPath>
398

>  <WPol>
29

>  <Zagreb1>
78

>  <Zagreb2>
94

>  <mZagreb2>
3.79

>  <yes>


>  <nAR-cont>
0.816016

>  <nHA-cont>
0.954961865

>  <MWHBN>
0.333987104

>  <MWHBN-cont>
0.728760017

>  <TPSA-cont>
0.47456866

>  <pka_cont>
0.97

>  <yes.1>


>  <BBB_SCORE>
4.298255211

>  <MMFF94 Energy>
-75.897

$$$$
Compound 797
Actelion Java MolfileCreator 2.0

  0  0  0  0  0  0              0 V3000
M  V30 BEGIN CTAB
M  V30 COUNTS 49 51 0 0 0
M  V30 BEGIN ATOM
M  V30 1 O -4.9918 -1.5826 -1.1076 0
M  V30 2 C -4.4824 -0.3235 -1.2563 0
M  V30 3 C -4.3618 -2.4289 -0.1544 0
M  V30 4 C -3.4013 0.218 -0.5602 0
M  V30 5 C -5.1318 0.4602 -2.2019 0
M  V30 6 C -2.955 1.5447 -0.7993 0
M  V30 7 C -4.7033 1.766 -2.448 0
M  V30 8 C -3.6309 2.3229 -1.7694 0
M  V30 9 C -1.8621 2.1526 -0.1246 0
M  V30 10 N -3.2839 3.5837 -2.0725 0
M  V30 11 C -1.5068 3.4649 -0.4568 0
M  V30 12 C -1.0377 1.4391 0.9253 0
M  V30 13 C -2.2391 4.1279 -1.4205 0
M  V30 14 C 0.0529 0.565 0.2981 0
M  V30 15 C 0.8734 -0.1508 1.3753 0
M  V30 16 C 1.9208 -1.1267 0.8001 0
M  V30 17 C 2.9821 -0.5082 -0.1591 0
M  V30 18 C 2.6156 -1.8909 1.9417 0
M  V30 19 C 3.6583 0.7372 0.4021 0
M  V30 20 C 3.9412 -1.6411 -0.6129 0
M  V30 21 C 3.5822 -2.94 1.3937 0
M  V30 22 C 4.968 1.0073 0.4911 0
M  V30 23 N 4.5822 -2.355 0.5015 0
M  V30 24 H -3.3172 -2.6172 -0.4233 0
M  V30 25 H -4.8859 -3.3895 -0.1621 0
M  V30 26 H -4.4421 -2.0138 0.8557 0
M  V30 27 H -2.885 -0.3832 0.1786 0
M  V30 28 H -5.9768 0.058 -2.7552 0
M  V30 29 H -5.2223 2.3648 -3.1928 0
M  V30 30 H -0.6734 3.9664 0.0244 0
M  V30 31 H -1.6901 0.8474 1.578 0
M  V30 32 H -0.573 2.1811 1.5885 0
M  V30 33 H -1.9971 5.1478 -1.7053 0
M  V30 34 H 0.7041 1.1927 -0.3207 0
M  V30 35 H -0.3956 -0.1788 -0.371 0
M  V30 36 H 1.3506 0.5847 2.0334 0
M  V30 37 H 0.1838 -0.7211 2.0121 0
M  V30 38 H 1.3604 -1.871 0.2141 0
M  V30 39 H 2.4552 -0.1724 -1.0628 0
M  V30 40 H 1.8663 -2.3927 2.566 0
M  V30 41 H 3.1544 -1.1921 2.5943 0
M  V30 42 H 2.9837 1.5261 0.7321 0
M  V30 43 H 3.3836 -2.366 -1.2206 0
M  V30 44 H 4.7191 -1.2426 -1.2744 0
M  V30 45 H 4.0968 -3.43 2.2277 0
M  V30 46 H 3.0292 -3.7256 0.8646 0
M  V30 47 H 5.7401 0.3239 0.1561 0
M  V30 48 H 5.3053 1.9573 0.8974 0
M  V30 49 H 5.1331 -1.6845 1.0383 0
M  V30 END ATOM
M  V30 BEGIN BOND
M  V30 1 1 1 2
M  V30 2 1 1 3
M  V30 3 2 2 4
M  V30 4 1 2 5
M  V30 5 1 4 6
M  V30 6 2 5 7
M  V30 7 1 6 8
M  V30 8 2 6 9
M  V30 9 2 8 10
M  V30 10 1 9 11
M  V30 11 1 9 12
M  V30 12 1 10 13
M  V30 13 1 12 14
M  V30 14 1 14 15
M  V30 15 1 15 16
M  V30 16 1 16 17
M  V30 17 1 16 18
M  V30 18 1 17 19
M  V30 19 1 17 20
M  V30 20 1 18 21
M  V30 21 2 19 22
M  V30 22 1 20 23
M  V30 23 1 7 8
M  V30 24 2 11 13
M  V30 25 1 21 23
M  V30 26 1 3 24
M  V30 27 1 3 25
M  V30 28 1 3 26
M  V30 29 1 4 27
M  V30 30 1 5 28
M  V30 31 1 7 29
M  V30 32 1 11 30
M  V30 33 1 12 31
M  V30 34 1 12 32
M  V30 35 1 13 33
M  V30 36 1 14 34
M  V30 37 1 14 35
M  V30 38 1 15 36
M  V30 39 1 15 37
M  V30 40 1 16 38
M  V30 41 1 17 39
M  V30 42 1 18 40
M  V30 43 1 18 41
M  V30 44 1 19 42
M  V30 45 1 20 43
M  V30 46 1 20 44
M  V30 47 1 21 45
M  V30 48 1 21 46
M  V30 49 1 22 47
M  V30 50 1 22 48
M  V30 51 1 23 49
M  V30 END BOND
M  V30 END CTAB
M  END
>  <Column 1>
958

>  <level_0>
1091

>  <index>
1091

>  <Unnamed: 0>
1091

>  <NO.>
1103

>  <Name>
viqualine

>  <IUPAC_name>
4-[3-(3-ethenylpiperidin-4-yl)propyl]-6-methoxyquinoline

>  <SMILES>
C=CC1CNCCC1CCCc1ccnc2ccc(OC)cc12

>  <CID>
51669

>  <logBB>


>  <BBB+/BBB->
BBB+

>  <Inchi>
InChI=1S/C20H26N2O/c1-3-15-14-21-11-9-16(15)5-4-6-17-10-12-22-20-8-7-18(23-2)13-19(17)20/h3-7-8-10-12-13-15-16-21H-1-4-6-9-11-14H2-2H3

>  <threshold>
-1

>  <reference>
R1|R19|R19|R27|R27|R30|

>  <group>
B

>  <Class>
1

>  <ABC>
17.56

>  <ABCGG>
13.71

>  <nAcid>
0

>  <nBase>
1

>  <nAromAtom>
10

>  <nAromBond>
11

>  <nAtom>
49

>  <nHeavyAtom>
23

>  <nSpiro>
0

>  <nBridgehead>
0

>  <nHetero>
3

>  <nN>
2

>  <nO>
1

>  <nF>
0

>  <BalabanJ>
1.46

>  <BertzCT>
667.74

>  <nBonds>
51

>  <nBondsO>
25

>  <nBondsS>
39

>  <nBondsD>
1

>  <nBondsT>
0

>  <nBondsA>
11

>  <nBondsM>
12

>  <nBondsKS>
45

>  <nBondsKD>
6

>  <RNCG>
0.31

>  <RPCG>
0.08

>  <FCSP3>
0.45

>  <SZ>
28

>  <Sm>
25.85

>  <Sv>
29.27

>  <Sse>
48.2

>  <Sp>
32.18

>  <Si>
55.19

>  <MZ>
0.57

>  <Mm>
0.53

>  <Mv>
0.6

>  <Mse>
0.98

>  <Mp>
0.66

>  <Mi>
1.13

>  <NsCH3>
1

>  <NdCH2>
1

>  <NssCH2>
6

>  <NtCH>
0

>  <NdsCH>
1

>  <NaaCH>
5

>  <NsssCH>
2

>  <NddC>
0

>  <NtsC>
0

>  <NdssC>
0

>  <NaasC>
2

>  <NaaaC>
2

>  <NssssC>
0

>  <NsNH3>
0

>  <NsNH2>
0

>  <NssNH2>
0

>  <NdNH>
0

>  <NssNH>
1

>  <NaaNH>
0

>  <NtN>
0

>  <NsssNH>
0

>  <NdsN>
0

>  <NaaN>
1

>  <NsssN>
0

>  <NddsN>
0

>  <NaasN>
0

>  <NssssN>
0

>  <NsOH>
0

>  <NdO>
0

>  <NssO>
1

>  <NaaO>
0

>  <NsF>
0

>  <NsSiH3>
0

>  <NssSiH2>
0

>  <NsssSiH>
0

>  <NssssSi>
0

>  <NsPH2>
0

>  <NssPH>
0

>  <NsssP>
0

>  <NdsssP>
0

>  <NsssssP>
0

>  <NsSH>
0

>  <NdS>
0

>  <NssS>
0

>  <NaaS>
0

>  <NdssS>
0

>  <NddssS>
0

>  <NsCl>
0

>  <NsBr>
0

>  <NsI>
0

>  <fragCpx>
119.03

>  <fMF>
0.39

>  <nHBAcc>
3

>  <nHBDon>
1

>  <Kier1>
17.81

>  <Kier2>
8.91

>  <Lipinski>
1

>  <GhoseFilter>
1

>  <FilterItLogS>
-5.69

>  <VMcGowan>
260.11

>  <LabuteASA>
138.32

>  <PEOE_VSA1>
10.05

>  <PEOE_VSA2>
4.98

>  <PEOE_VSA3>
0

>  <PEOE_VSA4>
0

>  <PEOE_VSA5>
6.58

>  <PEOE_VSA6>
6.08

>  <PEOE_VSA7>
73.89

>  <PEOE_VSA8>
18.13

>  <PEOE_VSA9>
12.63

>  <PEOE_VSA10>
5.75

>  <PEOE_VSA11>
0

>  <PEOE_VSA12>
0

>  <PEOE_VSA13>
0

>  <SMR_VSA1>
4.74

>  <SMR_VSA2>
0

>  <SMR_VSA3>
10.3

>  <SMR_VSA4>
11.84

>  <SMR_VSA5>
25.68

>  <SMR_VSA6>
20.2

>  <SMR_VSA7>
48.68

>  <SMR_VSA8>
0

>  <SMR_VSA9>
5.75

>  <SlogP_VSA1>
10.05

>  <SlogP_VSA2>
25.18

>  <SlogP_VSA3>
6.42

>  <SlogP_VSA4>
11.84

>  <SlogP_VSA5>
24.83

>  <SlogP_VSA6>
43.12

>  <SlogP_VSA7>
0

>  <SlogP_VSA8>
10.9

>  <SlogP_VSA9>
0

>  <SlogP_VSA10>
0

>  <SlogP_VSA11>
5.75

>  <EState_VSA1>
0

>  <EState_VSA2>
0

>  <EState_VSA3>
5.92

>  <EState_VSA4>
36.69

>  <EState_VSA5>
30.21

>  <EState_VSA6>
7.11

>  <EState_VSA7>
18.33

>  <EState_VSA8>
35.09

>  <EState_VSA9>
4.74

>  <EState_VSA10>
0

>  <VSA_EState1>
5.36

>  <VSA_EState2>
4.46

>  <VSA_EState3>
4.69

>  <VSA_EState4>
2.42

>  <VSA_EState5>
2.3

>  <VSA_EState6>
8.27

>  <VSA_EState7>
8.89

>  <VSA_EState8>
6.23

>  <VSA_EState9>
1.71

>  <apol>
53.74

>  <bpol>
29.53

>  <nRing>
3

>  <nHRing>
2

>  <naRing>
2

>  <naHRing>
1

>  <nARing 2>
1

>  <nAHRing 2>
1

>  <nFRing>
1

>  <nFHRing>
1

>  <nFaRing>
1

>  <nFaHRing>
1

>  <nFARing 2>
0

>  <nFAHRing 2>
0

>  <nRot>
6

>  <SLogP>
3.98

>  <SMR>
95.9

>  <TopoPSA(NO)>
34.15

>  <TopoPSA>
34.15

>  <JGI1>
0.14

>  <JGI2>
0.07

>  <JGI3>
0.03

>  <JGI4>
0.04

>  <JGI5>
0.02

>  <Diameter>
12

>  <Radius>
6

>  <TMWC10>
121.62

>  <TSRW10>
57.11

>  <MW>
310.2

>  <AMW>
6.33

>  <WPath>
1302

>  <WPol>
35

>  <Zagreb1>
116

>  <Zagreb2>
135

>  <mZagreb2>
5.33

>  <yes>


>  <nAR-cont>
0.816016

>  <nHA-cont>
0.967789328

>  <MWHBN>
0.227111484

>  <MWHBN-cont>
0.989517404

>  <TPSA-cont>
0.761611794

>  <pka_cont>
0.97

>  <yes.1>


>  <BBB_SCORE>
5.276305023

>  <MMFF94 Energy>
71.489

$$$$
Compound 798
Actelion Java MolfileCreator 2.0

  0  0  0  0  0  0              0 V3000
M  V30 BEGIN CTAB
M  V30 COUNTS 60 64 0 0 0
M  V30 BEGIN ATOM
M  V30 1 F 1.9514 1.4633 0.0 0
M  V30 2 C 1.7287 0.2765 -0.6717 0
M  V30 3 C 2.8627 0.1563 -1.7791 0
M  V30 4 C 1.712 -0.8551 0.4201 0
M  V30 5 C 0.2958 0.4164 -1.3081 0
M  V30 6 C 2.6525 1.2669 -2.8311 0
M  V30 7 C 4.2712 0.2513 -1.1921 0
M  V30 8 C 2.8005 -1.2118 -2.4975 0
M  V30 9 O 2.944 -0.9451 1.1369 0
M  V30 10 C 0.5847 -0.6642 1.4634 0
M  V30 11 C -0.7313 0.6424 -0.1869 0
M  V30 12 C 0.2402 1.5606 -2.331 0
M  V30 13 C 3.601 2.1521 -3.1883 0
M  V30 14 C 1.2761 1.3761 -3.4303 0
M  V30 15 C 5.2114 1.1365 -1.5483 0
M  V30 16 C -0.8022 -0.5312 0.814 0
M  V30 17 C -2.1941 0.8767 -0.559 0
M  V30 18 C 4.9499 2.1413 -2.5911 0
M  V30 19 C -1.9779 -0.0586 1.7283 0 CFG=1
M  V30 20 C -1.1631 -1.8907 0.1499 0
M  V30 21 C -2.9361 0.6742 0.7704 0 CFG=2
M  V30 22 O 5.8134 2.9308 -2.9518 0
M  V30 23 O -2.7373 -1.1383 2.2746 0
M  V30 24 C -1.556 0.8712 2.8766 0
M  V30 25 O -4.0514 -0.1968 0.6063 0
M  V30 26 C -4.0754 -0.9701 1.7997 0
M  V30 27 O -1.4249 2.0905 2.7332 0
M  V30 28 C -1.2877 0.2268 4.2329 0
M  V30 29 C -4.6465 -2.3137 1.4971 0
M  V30 30 O -0.5609 1.0962 5.0892 0
M  V30 31 C -5.7243 -2.8441 2.0922 0
M  V30 32 H 1.5853 -1.8234 -0.0715 0
M  V30 33 H 0.0467 -0.5054 -1.8446 0
M  V30 34 H 4.5501 -0.4752 -0.4339 0
M  V30 35 H 3.068 -2.0356 -1.8255 0
M  V30 36 H 3.5015 -1.2503 -3.3413 0
M  V30 37 H 1.8062 -1.4322 -2.8974 0
M  V30 38 H 2.824 -1.5425 1.8952 0
M  V30 39 H 0.83 0.2236 2.0598 0
M  V30 40 H 0.5938 -1.5017 2.1726 0
M  V30 41 H -0.4085 1.5467 0.3524 0
M  V30 42 H -0.7521 1.6039 -2.7948 0
M  V30 43 H 0.3978 2.5241 -1.8288 0
M  V30 44 H 3.4308 2.9353 -3.9183 0
M  V30 45 H 1.2072 2.2213 -4.1261 0
M  V30 46 H 1.0526 0.4783 -4.0177 0
M  V30 47 H 6.1971 1.1491 -1.0999 0
M  V30 48 H -2.5414 0.1841 -1.3332 0
M  V30 49 H -2.3485 1.8938 -0.9348 0
M  V30 50 H -2.1313 -1.8648 -0.3575 0
M  V30 51 H -0.4377 -2.2112 -0.6011 0
M  V30 52 H -1.2068 -2.6863 0.9027 0
M  V30 53 H -3.3057 1.6295 1.1595 0
M  V30 54 H -4.6543 -0.4354 2.5625 0
M  V30 55 H -2.2439 -0.0087 4.7078 0
M  V30 56 H -0.7037 -0.6871 4.1075 0
M  V30 57 H -4.1386 -2.8881 0.7281 0
M  V30 58 H -0.7734 2.0082 4.8048 0
M  V30 59 H -6.2737 -2.3127 2.8631 0
M  V30 60 H -6.0821 -3.8302 1.8118 0
M  V30 END ATOM
M  V30 BEGIN BOND
M  V30 1 1 1 2
M  V30 2 1 2 3
M  V30 3 1 2 4
M  V30 4 1 2 5
M  V30 5 1 3 6
M  V30 6 1 3 7
M  V30 7 1 3 8
M  V30 8 1 4 9
M  V30 9 1 4 10
M  V30 10 1 5 11
M  V30 11 1 5 12
M  V30 12 2 6 13
M  V30 13 1 6 14
M  V30 14 2 7 15
M  V30 15 1 10 16
M  V30 16 1 11 17
M  V30 17 1 13 18
M  V30 18 1 16 19
M  V30 19 1 16 20
M  V30 20 1 17 21
M  V30 21 2 18 22
M  V30 22 1 19 23
M  V30 23 1 19 24
M  V30 24 1 21 25
M  V30 25 1 23 26
M  V30 26 2 24 27
M  V30 27 1 24 28
M  V30 28 1 26 29
M  V30 29 1 28 30
M  V30 30 2 29 31
M  V30 31 1 11 16
M  V30 32 1 12 14
M  V30 33 1 15 18
M  V30 34 1 19 21
M  V30 35 1 25 26
M  V30 36 1 4 32
M  V30 37 1 5 33
M  V30 38 1 7 34
M  V30 39 1 8 35
M  V30 40 1 8 36
M  V30 41 1 8 37
M  V30 42 1 9 38
M  V30 43 1 10 39
M  V30 44 1 10 40
M  V30 45 1 11 41
M  V30 46 1 12 42
M  V30 47 1 12 43
M  V30 48 1 13 44
M  V30 49 1 14 45
M  V30 50 1 14 46
M  V30 51 1 15 47
M  V30 52 1 17 48
M  V30 53 1 17 49
M  V30 54 1 20 50
M  V30 55 1 20 51
M  V30 56 1 20 52
M  V30 57 1 21 53
M  V30 58 1 26 54
M  V30 59 1 28 55
M  V30 60 1 28 56
M  V30 61 1 29 57
M  V30 62 1 30 58
M  V30 63 1 31 59
M  V30 64 1 31 60
M  V30 END BOND
M  V30 BEGIN COLLECTION
M  V30 MDLV30/STEABS ATOMS=(2 19 21)
M  V30 END COLLECTION
M  V30 END CTAB
M  END
>  <Column 1>
959

>  <level_0>
1092

>  <index>
1092

>  <Unnamed: 0>
1092

>  <NO.>
1104

>  <Name>
acrocinonide

>  <IUPAC_name>
(4r-8s)-6-ethenyl-12-fluoro-11-hydroxy-8-(2-hydroxyacetyl)-9-13-dimethyl-5-7-dioxapentacyclo[10.8.0.02-9.04-8.013-18]icosa-14-17-dien-16-one

>  <SMILES>
C=CC1O[C@@H]2CC3C4CCC5=CC(=O)C=CC5(C)C4(F)C(O)CC3(C)[C@]2(C(=O)CO)O1

>  <CID>
176868

>  <logBB>


>  <BBB+/BBB->
BBB+

>  <Inchi>
InChI=1S/C24H29FO6/c1-4-20-30-19-10-16-15-6-5-13-9-14(27)7-8-21(13-2)23(15-25)17(28)11-22(16-3)24(19-31-20)18(29)12-26/h4-7-9-15-17-19-20-26-28H-1-5-6-10-12H2-2-3H3/t15?-16?-17?-19--20?-21?-22?-23?-24-/m1/s1

>  <threshold>
-1

>  <reference>
R1|R27|R30|

>  <group>
B

>  <Class>
1

>  <ABC>
24.95

>  <ABCGG>
20.31

>  <nAcid>
0

>  <nBase>
0

>  <nAromAtom>
0

>  <nAromBond>
0

>  <nAtom>
60

>  <nHeavyAtom>
31

>  <nSpiro>
0

>  <nBridgehead>
0

>  <nHetero>
7

>  <nN>
0

>  <nO>
6

>  <nF>
1

>  <BalabanJ>
1.57

>  <BertzCT>
927.03

>  <nBonds>
64

>  <nBondsO>
35

>  <nBondsS>
59

>  <nBondsD>
5

>  <nBondsT>
0

>  <nBondsA>
0

>  <nBondsM>
5

>  <nBondsKS>
59

>  <nBondsKD>
5

>  <RNCG>
0.14

>  <RPCG>
0.08

>  <FCSP3>
0.67

>  <SZ>
38.33

>  <Sm>
36.01

>  <Sv>
36.79

>  <Sse>
60.81

>  <Sp>
38.79

>  <Si>
67.83

>  <MZ>
0.64

>  <Mm>
0.6

>  <Mv>
0.61

>  <Mse>
1.01

>  <Mp>
0.65

>  <Mi>
1.13

>  <NsCH3>
2

>  <NdCH2>
1

>  <NssCH2>
5

>  <NtCH>
0

>  <NdsCH>
4

>  <NaaCH>
0

>  <NsssCH>
5

>  <NddC>
0

>  <NtsC>
0

>  <NdssC>
3

>  <NaasC>
0

>  <NaaaC>
0

>  <NssssC>
4

>  <NsNH3>
0

>  <NsNH2>
0

>  <NssNH2>
0

>  <NdNH>
0

>  <NssNH>
0

>  <NaaNH>
0

>  <NtN>
0

>  <NsssNH>
0

>  <NdsN>
0

>  <NaaN>
0

>  <NsssN>
0

>  <NddsN>
0

>  <NaasN>
0

>  <NssssN>
0

>  <NsOH>
2

>  <NdO>
2

>  <NssO>
2

>  <NaaO>
0

>  <NsF>
1

>  <NsSiH3>
0

>  <NssSiH2>
0

>  <NsssSiH>
0

>  <NssssSi>
0

>  <NsPH2>
0

>  <NssPH>
0

>  <NsssP>
0

>  <NdsssP>
0

>  <NsssssP>
0

>  <NsSH>
0

>  <NdS>
0

>  <NssS>
0

>  <NaaS>
0

>  <NdssS>
0

>  <NddssS>
0

>  <NsCl>
0

>  <NsBr>
0

>  <NsI>
0

>  <fragCpx>
295.07

>  <fMF>
0.33

>  <nHBAcc>
6

>  <nHBDon>
2

>  <Kier1>
22.78

>  <Kier2>
7.25

>  <Lipinski>
1

>  <GhoseFilter>
1

>  <FilterItLogS>
-2.92

>  <VMcGowan>
310.2

>  <LabuteASA>
180.34

>  <PEOE_VSA1>
19.69

>  <PEOE_VSA2>
9.59

>  <PEOE_VSA3>
4.39

>  <PEOE_VSA4>
0

>  <PEOE_VSA5>
0

>  <PEOE_VSA6>
25.15

>  <PEOE_VSA7>
56.75

>  <PEOE_VSA8>
16.75

>  <PEOE_VSA9>
12.21

>  <PEOE_VSA10>
6.61

>  <PEOE_VSA11>
29.13

>  <PEOE_VSA12>
0

>  <PEOE_VSA13>
0

>  <SMR_VSA1>
33.67

>  <SMR_VSA2>
0

>  <SMR_VSA3>
0

>  <SMR_VSA4>
22.67

>  <SMR_VSA5>
69.3

>  <SMR_VSA6>
6.61

>  <SMR_VSA7>
36.46

>  <SMR_VSA8>
0

>  <SMR_VSA9>
0

>  <SlogP_VSA1>
0

>  <SlogP_VSA2>
58.15

>  <SlogP_VSA3>
19.06

>  <SlogP_VSA4>
22.67

>  <SlogP_VSA5>
39.53

>  <SlogP_VSA6>
36.46

>  <SlogP_VSA7>
0

>  <SlogP_VSA8>
0

>  <SlogP_VSA9>
0

>  <SlogP_VSA10>
4.39

>  <SlogP_VSA11>
0

>  <EState_VSA1>
58.91

>  <EState_VSA2>
18.12

>  <EState_VSA3>
24.84

>  <EState_VSA4>
0

>  <EState_VSA5>
18.23

>  <EState_VSA6>
13

>  <EState_VSA7>
6.92

>  <EState_VSA8>
6.58

>  <EState_VSA9>
9.47

>  <EState_VSA10>
19.8

>  <VSA_EState1>
29.17

>  <VSA_EState2>
25.02

>  <VSA_EState3>
21.12

>  <VSA_EState4>
-4.75

>  <VSA_EState5>
-1.51

>  <VSA_EState6>
0

>  <VSA_EState7>
4.52

>  <VSA_EState8>
6.58

>  <VSA_EState9>
0

>  <apol>
64.79

>  <bpol>
35.41

>  <nRing>
5

>  <nHRing>
1

>  <naRing>
0

>  <naHRing>
0

>  <nARing 2>
5

>  <nAHRing 2>
1

>  <nFRing>
1

>  <nFHRing>
1

>  <nFaRing>
0

>  <nFaHRing>
0

>  <nFARing 2>
1

>  <nFAHRing 2>
1

>  <nRot>
3

>  <SLogP>
2.19

>  <SMR>
108.5

>  <TopoPSA(NO)>
93.06

>  <TopoPSA>
93.06

>  <JGI1>
0.3

>  <JGI2>
0.14

>  <JGI3>
0.08

>  <JGI4>
0.06

>  <JGI5>
0.04

>  <Diameter>
13

>  <Radius>
7

>  <TMWC10>
148.94

>  <TSRW10>
85.4

>  <MW>
432.19

>  <AMW>
7.2

>  <WPath>
2213

>  <WPol>
76

>  <Zagreb1>
188

>  <Zagreb2>
248

>  <mZagreb2>
6.53

>  <yes>


>  <nAR-cont>
0

>  <nHA-cont>
0.702745138

>  <MWHBN>
0.384815565

>  <MWHBN-cont>
0.535881317

>  <TPSA-cont>
0.350383413

>  <pka_cont>
0.97

>  <yes.1>


>  <BBB_SCORE>
2.69233394

>  <MMFF94 Energy>
163.73

$$$$
Compound 799
Actelion Java MolfileCreator 2.0

  0  0  0  0  0  0              0 V3000
M  V30 BEGIN CTAB
M  V30 COUNTS 28 27 0 0 0
M  V30 BEGIN ATOM
M  V30 1 O -0.6908 -0.998 -2.3812 0
M  V30 2 C -0.0909 -1.0553 -1.3102 0
M  V30 3 N 0.9233 -1.9553 -1.1838 0
M  V30 4 C -0.4771 -0.2219 -0.0688 0
M  V30 5 C 0.7423 0.207 0.7976 0
M  V30 6 C -1.3316 1.0095 -0.5272 0
M  V30 7 C -1.4579 -1.0938 0.7919 0
M  V30 8 C 1.8427 0.9791 0.1185 0
M  V30 9 C -0.6662 2.0358 -1.4362 0
M  V30 10 C -0.8916 -2.3335 1.4756 0
M  V30 11 C 2.3783 2.1039 0.6109 0
M  V30 12 H 1.1472 -2.5122 -1.9985 0
M  V30 13 H 1.4586 -2.1009 -0.3414 0
M  V30 14 H 0.3703 0.7787 1.6589 0
M  V30 15 H 1.23 -0.6774 1.2221 0
M  V30 16 H -1.7068 1.5408 0.3575 0
M  V30 17 H -2.2233 0.6432 -1.0549 0
M  V30 18 H -1.8986 -0.4636 1.5761 0
M  V30 19 H -2.2934 -1.4225 0.1587 0
M  V30 20 H 2.2357 0.5858 -0.8171 0
M  V30 21 H -1.4314 2.6831 -1.879 0
M  V30 22 H 0.0054 2.6903 -0.8769 0
M  V30 23 H -0.1113 1.5724 -2.2557 0
M  V30 24 H -1.6903 -2.8418 2.0274 0
M  V30 25 H -0.1126 -2.083 2.2 0
M  V30 26 H -0.4917 -3.052 0.7566 0
M  V30 27 H 2.0357 2.5425 1.5431 0
M  V30 28 H 3.1756 2.6168 0.0811 0
M  V30 END ATOM
M  V30 BEGIN BOND
M  V30 1 2 1 2
M  V30 2 1 2 3
M  V30 3 1 2 4
M  V30 4 1 4 5
M  V30 5 1 4 6
M  V30 6 1 4 7
M  V30 7 1 5 8
M  V30 8 1 6 9
M  V30 9 1 7 10
M  V30 10 2 8 11
M  V30 11 1 3 12
M  V30 12 1 3 13
M  V30 13 1 5 14
M  V30 14 1 5 15
M  V30 15 1 6 16
M  V30 16 1 6 17
M  V30 17 1 7 18
M  V30 18 1 7 19
M  V30 19 1 8 20
M  V30 20 1 9 21
M  V30 21 1 9 22
M  V30 22 1 9 23
M  V30 23 1 10 24
M  V30 24 1 10 25
M  V30 25 1 10 26
M  V30 26 1 11 27
M  V30 27 1 11 28
M  V30 END BOND
M  V30 END CTAB
M  END
>  <Column 1>
960

>  <level_0>
1093

>  <index>
1093

>  <Unnamed: 0>
1093

>  <NO.>
1105

>  <Name>
valdetamide

>  <IUPAC_name>
2-2-diethylpent-4-enamide

>  <SMILES>
C=CCC(CC)(CC)C(N)=O

>  <CID>
68845

>  <logBB>


>  <BBB+/BBB->
BBB+

>  <Inchi>
InChI=1S/C9H17NO/c1-4-7-9(5-2-6-3)8(10)11/h4H-1-5-7H2-2-3H3-(H2-10-11)

>  <threshold>
-1

>  <reference>
R1|R13|R19|R6|R24|R27|R27|R27|R30|R30|

>  <group>
B

>  <Class>
1

>  <ABC>
7.23

>  <ABCGG>
8.09

>  <nAcid>
0

>  <nBase>
0

>  <nAromAtom>
0

>  <nAromBond>
0

>  <nAtom>
28

>  <nHeavyAtom>
11

>  <nSpiro>
0

>  <nBridgehead>
0

>  <nHetero>
2

>  <nN>
1

>  <nO>
1

>  <nF>
0

>  <BalabanJ>
4.2

>  <BertzCT>
147.64

>  <nBonds>
27

>  <nBondsO>
10

>  <nBondsS>
25

>  <nBondsD>
2

>  <nBondsT>
0

>  <nBondsA>
0

>  <nBondsM>
2

>  <nBondsKS>
25

>  <nBondsKD>
2

>  <RNCG>
0.35

>  <RPCG>
0.21

>  <FCSP3>
0.67

>  <SZ>
14.33

>  <Sm>
12.92

>  <Sv>
15.08

>  <Sse>
27.54

>  <Sp>
16.93

>  <Si>
32.03

>  <MZ>
0.51

>  <Mm>
0.46

>  <Mv>
0.54

>  <Mse>
0.98

>  <Mp>
0.6

>  <Mi>
1.14

>  <NsCH3>
2

>  <NdCH2>
1

>  <NssCH2>
3

>  <NtCH>
0

>  <NdsCH>
1

>  <NaaCH>
0

>  <NsssCH>
0

>  <NddC>
0

>  <NtsC>
0

>  <NdssC>
1

>  <NaasC>
0

>  <NaaaC>
0

>  <NssssC>
1

>  <NsNH3>
0

>  <NsNH2>
1

>  <NssNH2>
0

>  <NdNH>
0

>  <NssNH>
0

>  <NaaNH>
0

>  <NtN>
0

>  <NsssNH>
0

>  <NdsN>
0

>  <NaaN>
0

>  <NsssN>
0

>  <NddsN>
0

>  <NaasN>
0

>  <NssssN>
0

>  <NsOH>
0

>  <NdO>
1

>  <NssO>
0

>  <NaaO>
0

>  <NsF>
0

>  <NsSiH3>
0

>  <NssSiH2>
0

>  <NsssSiH>
0

>  <NssssSi>
0

>  <NsPH2>
0

>  <NssPH>
0

>  <NsssP>
0

>  <NdsssP>
0

>  <NsssssP>
0

>  <NsSH>
0

>  <NdS>
0

>  <NssS>
0

>  <NaaS>
0

>  <NdssS>
0

>  <NddssS>
0

>  <NsCl>
0

>  <NsBr>
0

>  <NsI>
0

>  <fragCpx>
10.02

>  <fMF>
0

>  <nHBAcc>
1

>  <nHBDon>
1

>  <Kier1>
11

>  <Kier2>
4.79

>  <Lipinski>
1

>  <GhoseFilter>
0

>  <FilterItLogS>
-1.94

>  <VMcGowan>
144.92

>  <LabuteASA>
68.47

>  <PEOE_VSA1>
5.73

>  <PEOE_VSA2>
4.79

>  <PEOE_VSA3>
0

>  <PEOE_VSA4>
0

>  <PEOE_VSA5>
6.58

>  <PEOE_VSA6>
19.92

>  <PEOE_VSA7>
19.26

>  <PEOE_VSA8>
0

>  <PEOE_VSA9>
5.41

>  <PEOE_VSA10>
0

>  <PEOE_VSA11>
0

>  <PEOE_VSA12>
5.91

>  <PEOE_VSA13>
0

>  <SMR_VSA1>
4.79

>  <SMR_VSA2>
0

>  <SMR_VSA3>
0

>  <SMR_VSA4>
11.15

>  <SMR_VSA5>
33.11

>  <SMR_VSA6>
0

>  <SMR_VSA7>
12.65

>  <SMR_VSA8>
0

>  <SMR_VSA9>
0

>  <SlogP_VSA1>
5.73

>  <SlogP_VSA2>
5.91

>  <SlogP_VSA3>
4.79

>  <SlogP_VSA4>
5.41

>  <SlogP_VSA5>
33.11

>  <SlogP_VSA6>
12.65

>  <SlogP_VSA7>
0

>  <SlogP_VSA8>
0

>  <SlogP_VSA9>
0

>  <SlogP_VSA10>
0

>  <SlogP_VSA11>
0

>  <EState_VSA1>
0

>  <EState_VSA2>
11.32

>  <EState_VSA3>
6.42

>  <EState_VSA4>
12.84

>  <EState_VSA5>
0

>  <EState_VSA6>
6.08

>  <EState_VSA7>
13.85

>  <EState_VSA8>
6.58

>  <EState_VSA9>
5.73

>  <EState_VSA10>
4.79

>  <VSA_EState1>
0

>  <VSA_EState2>
11.05

>  <VSA_EState3>
0

>  <VSA_EState4>
4.95

>  <VSA_EState5>
-0.21

>  <VSA_EState6>
0

>  <VSA_EState7>
4.04

>  <VSA_EState8>
7.58

>  <VSA_EState9>
0

>  <apol>
28.27

>  <bpol>
17.35

>  <nRing>
0

>  <nHRing>
0

>  <naRing>
0

>  <naHRing>
0

>  <nARing 2>
0

>  <nAHRing 2>
0

>  <nFRing>
0

>  <nFHRing>
0

>  <nFaRing>
0

>  <nFaHRing>
0

>  <nFARing 2>
0

>  <nFAHRing 2>
0

>  <nRot>
5

>  <SLogP>
1.85

>  <SMR>
47.02

>  <TopoPSA(NO)>
43.09

>  <TopoPSA>
43.09

>  <JGI1>
0.35

>  <JGI2>
0.15

>  <JGI3>
0.07

>  <JGI4>
0.03

>  <JGI5>
0

>  <Diameter>
5

>  <Radius>
3

>  <TMWC10>
85.51

>  <TSRW10>
40.67

>  <MW>
155.13

>  <AMW>
5.54

>  <WPath>
152

>  <WPol>
16

>  <Zagreb1>
46

>  <Zagreb2>
52

>  <mZagreb2>
2.88

>  <yes>


>  <nAR-cont>
0.336376

>  <nHA-cont>
0.720786536

>  <MWHBN>
0.160576541

>  <MWHBN-cont>
0.957006889

>  <TPSA-cont>
0.699205043

>  <pka_cont>
0.97

>  <yes.1>


>  <BBB_SCORE>
4.376082955

>  <MMFF94 Energy>
2.1603

$$$$
Compound 800
Actelion Java MolfileCreator 2.0

  0  0  0  0  0  0              0 V3000
M  V30 BEGIN CTAB
M  V30 COUNTS 27 27 0 0 0
M  V30 BEGIN ATOM
M  V30 1 N -1.8644 2.331 0.0 0
M  V30 2 C -0.8712 1.3161 0.4016 0 CFG=2
M  V30 3 C 0.1175 1.041 -0.756 0
M  V30 4 C -1.5885 0.0499 0.9349 0
M  V30 5 C 1.2772 0.149 -0.3774 0
M  V30 6 C -2.4101 -0.7047 -0.0814 0
M  V30 7 C 2.2567 0.597 0.5201 0
M  V30 8 C 1.395 -1.1369 -0.9214 0
M  V30 9 C -3.7462 -0.7901 -0.0506 0
M  V30 10 C 3.3254 -0.2282 0.8734 0
M  V30 11 C 2.4644 -1.961 -0.5667 0
M  V30 12 C 3.4282 -1.5072 0.3312 0
M  V30 13 H -2.4889 1.9289 -0.7001 0
M  V30 14 H -1.397 3.1173 -0.4477 0
M  V30 15 H -0.314 1.7478 1.2423 0
M  V30 16 H -0.4121 0.6238 -1.6218 0
M  V30 17 H 0.5419 1.9914 -1.1092 0
M  V30 18 H -2.2242 0.3398 1.7829 0
M  V30 19 H -0.8473 -0.6429 1.3516 0
M  V30 20 H -1.8694 -1.2287 -0.8651 0
M  V30 21 H 2.1953 1.5947 0.9496 0
M  V30 22 H 0.6547 -1.5087 -1.6256 0
M  V30 23 H -4.3291 -0.2933 0.7195 0
M  V30 24 H -4.2865 -1.3614 -0.7989 0
M  V30 25 H 4.0786 0.128 1.5713 0
M  V30 26 H 2.5456 -2.9577 -0.9921 0
M  V30 27 H 4.2604 -2.1495 0.6066 0
M  V30 END ATOM
M  V30 BEGIN BOND
M  V30 1 1 1 2
M  V30 2 1 2 3
M  V30 3 1 2 4
M  V30 4 1 3 5
M  V30 5 1 4 6
M  V30 6 2 5 7
M  V30 7 1 5 8
M  V30 8 2 6 9
M  V30 9 1 7 10
M  V30 10 2 8 11
M  V30 11 2 10 12
M  V30 12 1 11 12
M  V30 13 1 1 13
M  V30 14 1 1 14
M  V30 15 1 2 15
M  V30 16 1 3 16
M  V30 17 1 3 17
M  V30 18 1 4 18
M  V30 19 1 4 19
M  V30 20 1 6 20
M  V30 21 1 7 21
M  V30 22 1 8 22
M  V30 23 1 9 23
M  V30 24 1 9 24
M  V30 25 1 10 25
M  V30 26 1 11 26
M  V30 27 1 12 27
M  V30 END BOND
M  V30 BEGIN COLLECTION
M  V30 MDLV30/STERAC1 ATOMS=(1 2)
M  V30 END COLLECTION
M  V30 END CTAB
M  END
>  <Column 1>
961

>  <level_0>
1094

>  <index>
1094

>  <Unnamed: 0>
1094

>  <NO.>
1106

>  <Name>
aletamine (alfetamine)

>  <IUPAC_name>
1-phenylpent-4-en-2-amine

>  <SMILES>
C=CCC(N)Cc1ccccc1

>  <CID>
20254

>  <logBB>


>  <BBB+/BBB->
BBB+

>  <Inchi>
InChI=1S/C11H15N/c1-2-6-11(12)9-10-7-4-3-5-8-10/h2-5-7-8-11H-1-6-9-12H2

>  <threshold>
-1

>  <reference>
R1|R19|R6|R27|R27|R30|

>  <group>
B

>  <Class>
1

>  <ABC>
8.59

>  <ABCGG>
7.94

>  <nAcid>
0

>  <nBase>
1

>  <nAromAtom>
6

>  <nAromBond>
6

>  <nAtom>
27

>  <nHeavyAtom>
12

>  <nSpiro>
0

>  <nBridgehead>
0

>  <nHetero>
1

>  <nN>
1

>  <nO>
0

>  <nF>
0

>  <BalabanJ>
2.11

>  <BertzCT>
228.02

>  <nBonds>
27

>  <nBondsO>
12

>  <nBondsS>
20

>  <nBondsD>
1

>  <nBondsT>
0

>  <nBondsA>
6

>  <nBondsM>
7

>  <nBondsKS>
23

>  <nBondsKD>
4

>  <RNCG>
0.36

>  <RPCG>
0.13

>  <FCSP3>
0.27

>  <SZ>
14.67

>  <Sm>
13.43

>  <Sv>
15.82

>  <Sse>
26.32

>  <Sp>
17.65

>  <Si>
30.41

>  <MZ>
0.54

>  <Mm>
0.5

>  <Mv>
0.59

>  <Mse>
0.97

>  <Mp>
0.65

>  <Mi>
1.13

>  <NsCH3>
0

>  <NdCH2>
1

>  <NssCH2>
2

>  <NtCH>
0

>  <NdsCH>
1

>  <NaaCH>
5

>  <NsssCH>
1

>  <NddC>
0

>  <NtsC>
0

>  <NdssC>
0

>  <NaasC>
1

>  <NaaaC>
0

>  <NssssC>
0

>  <NsNH3>
0

>  <NsNH2>
1

>  <NssNH2>
0

>  <NdNH>
0

>  <NssNH>
0

>  <NaaNH>
0

>  <NtN>
0

>  <NsssNH>
0

>  <NdsN>
0

>  <NaaN>
0

>  <NsssN>
0

>  <NddsN>
0

>  <NaasN>
0

>  <NssssN>
0

>  <NsOH>
0

>  <NdO>
0

>  <NssO>
0

>  <NaaO>
0

>  <NsF>
0

>  <NsSiH3>
0

>  <NssSiH2>
0

>  <NsssSiH>
0

>  <NssssSi>
0

>  <NsPH2>
0

>  <NssPH>
0

>  <NsssP>
0

>  <NdsssP>
0

>  <NsssssP>
0

>  <NsSH>
0

>  <NdS>
0

>  <NssS>
0

>  <NaaS>
0

>  <NdssS>
0

>  <NddssS>
0

>  <NsCl>
0

>  <NsBr>
0

>  <NsI>
0

>  <fragCpx>
12.01

>  <fMF>
0.22

>  <nHBAcc>
1

>  <nHBDon>
1

>  <Kier1>
10.08

>  <Kier2>
5.61

>  <Lipinski>
1

>  <GhoseFilter>
1

>  <FilterItLogS>
-2.57

>  <VMcGowan>
147.77

>  <LabuteASA>
73.91

>  <PEOE_VSA1>
5.73

>  <PEOE_VSA2>
0

>  <PEOE_VSA3>
0

>  <PEOE_VSA4>
0

>  <PEOE_VSA5>
6.58

>  <PEOE_VSA6>
36.41

>  <PEOE_VSA7>
18.41

>  <PEOE_VSA8>
6.04

>  <PEOE_VSA9>
0

>  <PEOE_VSA10>
0

>  <PEOE_VSA11>
0

>  <PEOE_VSA12>
0

>  <PEOE_VSA13>
0

>  <SMR_VSA1>
0

>  <SMR_VSA2>
0

>  <SMR_VSA3>
0

>  <SMR_VSA4>
5.73

>  <SMR_VSA5>
18.88

>  <SMR_VSA6>
0

>  <SMR_VSA7>
48.55

>  <SMR_VSA8>
0

>  <SMR_VSA9>
0

>  <SlogP_VSA1>
5.73

>  <SlogP_VSA2>
6.04

>  <SlogP_VSA3>
6.42

>  <SlogP_VSA4>
0

>  <SlogP_VSA5>
11.98

>  <SlogP_VSA6>
42.99

>  <SlogP_VSA7>
0

>  <SlogP_VSA8>
0

>  <SlogP_VSA9>
0

>  <SlogP_VSA10>
0

>  <SlogP_VSA11>
0

>  <EState_VSA1>
0

>  <EState_VSA2>
6.04

>  <EState_VSA3>
0

>  <EState_VSA4>
12.84

>  <EState_VSA5>
5.56

>  <EState_VSA6>
0

>  <EState_VSA7>
24.28

>  <EState_VSA8>
18.71

>  <EState_VSA9>
5.73

>  <EState_VSA10>
0

>  <VSA_EState1>
0

>  <VSA_EState2>
0

>  <VSA_EState3>
0

>  <VSA_EState4>
7.14

>  <VSA_EState5>
0

>  <VSA_EState6>
10.5

>  <VSA_EState7>
3.69

>  <VSA_EState8>
3.66

>  <VSA_EState9>
0

>  <apol>
29.47

>  <bpol>
14.48

>  <nRing>
1

>  <nHRing>
0

>  <naRing>
1

>  <naHRing>
0

>  <nARing 2>
0

>  <nAHRing 2>
0

>  <nFRing>
0

>  <nFHRing>
0

>  <nFaRing>
0

>  <nFaHRing>
0

>  <nFARing 2>
0

>  <nFAHRing 2>
0

>  <nRot>
4

>  <SLogP>
2.13

>  <SMR>
52.94

>  <TopoPSA(NO)>
26.02

>  <TopoPSA>
26.02

>  <JGI1>
0.17

>  <JGI2>
0.05

>  <JGI3>
0.05

>  <JGI4>
0.03

>  <JGI5>
0.01

>  <Diameter>
8

>  <Radius>
4

>  <TMWC10>
87.43

>  <TSRW10>
41.32

>  <MW>
161.12

>  <AMW>
5.97

>  <WPath>
221

>  <WPol>
12

>  <Zagreb1>
52

>  <Zagreb2>
55

>  <mZagreb2>
2.92

>  <yes>


>  <nAR-cont>
0.336376

>  <nHA-cont>
0.785745021

>  <MWHBN>
0.157563373

>  <MWHBN-cont>
0.950627854

>  <TPSA-cont>
0.818364243

>  <pka_cont>
0.97

>  <yes.1>


>  <BBB_SCORE>
4.669791287

>  <MMFF94 Energy>
50.88

$$$$
Compound 801
Actelion Java MolfileCreator 2.0

  0  0  0  0  0  0              0 V3000
M  V30 BEGIN CTAB
M  V30 COUNTS 29 29 0 0 0
M  V30 BEGIN ATOM
M  V30 1 O 2.5906 1.5694 -2.905 0
M  V30 2 C 1.7578 1.1422 -2.1134 0
M  V30 3 N 1.5837 -0.1876 -1.907 0
M  V30 4 N 0.9245 1.974 -1.436 0
M  V30 5 C 0.6263 -0.7563 -1.1157 0
M  V30 6 C -0.0479 1.6064 -0.5475 0
M  V30 7 O 0.3753 -1.9535 -1.2429 0
M  V30 8 C -0.0408 0.152 -0.078 0
M  V30 9 O -0.8108 2.4653 -0.1107 0
M  V30 10 C -1.4899 -0.3774 0.2162 0
M  V30 11 C 0.8885 0.151 1.1761 0
M  V30 12 C -2.1761 0.22 1.4535 0
M  V30 13 C -2.4244 -0.2219 -0.996 0
M  V30 14 C 1.0826 -1.1815 1.8511 0
M  V30 15 C 2.265 -1.8005 1.9581 0
M  V30 16 H 2.1105 -0.81 -2.5038 0
M  V30 17 H 0.9837 2.9566 -1.6653 0
M  V30 18 H -1.4231 -1.4571 0.4086 0
M  V30 19 H 0.5033 0.8542 1.9263 0
M  V30 20 H 1.874 0.5542 0.9009 0
M  V30 21 H -1.5974 0.05 2.365 0
M  V30 22 H -3.1523 -0.2539 1.6085 0
M  V30 23 H -2.3537 1.2937 1.3555 0
M  V30 24 H -1.9981 -0.6761 -1.8954 0
M  V30 25 H -3.3826 -0.718 -0.8049 0
M  V30 26 H -2.6377 0.829 -1.2141 0
M  V30 27 H 0.2069 -1.6601 2.2858 0
M  V30 28 H 3.179 -1.3774 1.5538 0
M  V30 29 H 2.3417 -2.7617 2.4587 0
M  V30 END ATOM
M  V30 BEGIN BOND
M  V30 1 2 1 2
M  V30 2 1 2 3
M  V30 3 1 2 4
M  V30 4 1 3 5
M  V30 5 1 4 6
M  V30 6 2 5 7
M  V30 7 1 5 8
M  V30 8 2 6 9
M  V30 9 1 8 10
M  V30 10 1 8 11
M  V30 11 1 10 12
M  V30 12 1 10 13
M  V30 13 1 11 14
M  V30 14 2 14 15
M  V30 15 1 6 8
M  V30 16 1 3 16
M  V30 17 1 4 17
M  V30 18 1 10 18
M  V30 19 1 11 19
M  V30 20 1 11 20
M  V30 21 1 12 21
M  V30 22 1 12 22
M  V30 23 1 12 23
M  V30 24 1 13 24
M  V30 25 1 13 25
M  V30 26 1 13 26
M  V30 27 1 14 27
M  V30 28 1 15 28
M  V30 29 1 15 29
M  V30 END BOND
M  V30 END CTAB
M  END
>  <Column 1>
962

>  <level_0>
1095

>  <index>
1095

>  <Unnamed: 0>
1095

>  <NO.>
1107

>  <Name>
aprobarbital

>  <IUPAC_name>
5-propan-2-yl-5-prop-2-enyl-1-3-diazinane-2-4-6-trione

>  <SMILES>
C=CCC1(C(C)C)C(=O)NC(=O)NC1=O

>  <CID>
6464

>  <logBB>


>  <BBB+/BBB->
BBB+

>  <Inchi>
InChI=1S/C10H14N2O3/c1-4-5-10(6(2)3)7(13)11-9(15)12-8(10)14/h4-6H-1-5H2-2-3H3-(H2-11-12-13-14-15)

>  <threshold>
-1

>  <reference>
R1|R13|R19|R6|R24|R27|R27|R27|R30|R30|

>  <group>
B

>  <Class>
1

>  <ABC>
10.97

>  <ABCGG>
10.82

>  <nAcid>
0

>  <nBase>
0

>  <nAromAtom>
0

>  <nAromBond>
0

>  <nAtom>
29

>  <nHeavyAtom>
15

>  <nSpiro>
0

>  <nBridgehead>
0

>  <nHetero>
5

>  <nN>
2

>  <nO>
3

>  <nF>
0

>  <BalabanJ>
2.92

>  <BertzCT>
313.56

>  <nBonds>
29

>  <nBondsO>
15

>  <nBondsS>
25

>  <nBondsD>
4

>  <nBondsT>
0

>  <nBondsA>
0

>  <nBondsM>
4

>  <nBondsKS>
25

>  <nBondsKD>
4

>  <RNCG>
0.16

>  <RPCG>
0.19

>  <FCSP3>
0.5

>  <SZ>
18.67

>  <Sm>
17.5

>  <Sv>
17.45

>  <Sse>
29.53

>  <Sp>
18.35

>  <Si>
33.12

>  <MZ>
0.64

>  <Mm>
0.6

>  <Mv>
0.6

>  <Mse>
1.02

>  <Mp>
0.63

>  <Mi>
1.14

>  <NsCH3>
2

>  <NdCH2>
1

>  <NssCH2>
1

>  <NtCH>
0

>  <NdsCH>
1

>  <NaaCH>
0

>  <NsssCH>
1

>  <NddC>
0

>  <NtsC>
0

>  <NdssC>
3

>  <NaasC>
0

>  <NaaaC>
0

>  <NssssC>
1

>  <NsNH3>
0

>  <NsNH2>
0

>  <NssNH2>
0

>  <NdNH>
0

>  <NssNH>
2

>  <NaaNH>
0

>  <NtN>
0

>  <NsssNH>
0

>  <NdsN>
0

>  <NaaN>
0

>  <NsssN>
0

>  <NddsN>
0

>  <NaasN>
0

>  <NssssN>
0

>  <NsOH>
0

>  <NdO>
3

>  <NssO>
0

>  <NaaO>
0

>  <NsF>
0

>  <NsSiH3>
0

>  <NssSiH2>
0

>  <NsssSiH>
0

>  <NssssSi>
0

>  <NsPH2>
0

>  <NssPH>
0

>  <NsssP>
0

>  <NdsssP>
0

>  <NsssssP>
0

>  <NsSH>
0

>  <NdS>
0

>  <NssS>
0

>  <NaaS>
0

>  <NdssS>
0

>  <NddssS>
0

>  <NsCl>
0

>  <NsBr>
0

>  <NsI>
0

>  <fragCpx>
15.05

>  <fMF>
0.21

>  <nHBAcc>
3

>  <nHBDon>
2

>  <Kier1>
13.07

>  <Kier2>
4.89

>  <Lipinski>
1

>  <GhoseFilter>
1

>  <FilterItLogS>
-2.43

>  <VMcGowan>
161.27

>  <LabuteASA>
87.91

>  <PEOE_VSA1>
0

>  <PEOE_VSA2>
20.22

>  <PEOE_VSA3>
4.79

>  <PEOE_VSA4>
0

>  <PEOE_VSA5>
6.58

>  <PEOE_VSA6>
19.92

>  <PEOE_VSA7>
12.34

>  <PEOE_VSA8>
0

>  <PEOE_VSA9>
0

>  <PEOE_VSA10>
5.41

>  <PEOE_VSA11>
0

>  <PEOE_VSA12>
11.81

>  <PEOE_VSA13>
0

>  <SMR_VSA1>
14.38

>  <SMR_VSA2>
0

>  <SMR_VSA3>
10.63

>  <SMR_VSA4>
11.33

>  <SMR_VSA5>
20.27

>  <SMR_VSA6>
0

>  <SMR_VSA7>
12.65

>  <SMR_VSA8>
0

>  <SMR_VSA9>
0

>  <SlogP_VSA1>
10.63

>  <SlogP_VSA2>
17.85

>  <SlogP_VSA3>
9.59

>  <SlogP_VSA4>
11.33

>  <SlogP_VSA5>
20.27

>  <SlogP_VSA6>
12.65

>  <SlogP_VSA7>
0

>  <SlogP_VSA8>
0

>  <SlogP_VSA9>
0

>  <SlogP_VSA10>
4.79

>  <SlogP_VSA11>
0

>  <EState_VSA1>
23.26

>  <EState_VSA2>
12.34

>  <EState_VSA3>
0

>  <EState_VSA4>
0

>  <EState_VSA5>
6.08

>  <EState_VSA6>
13.85

>  <EState_VSA7>
0

>  <EState_VSA8>
17.21

>  <EState_VSA9>
0

>  <EState_VSA10>
14.38

>  <VSA_EState1>
0

>  <VSA_EState2>
34.36

>  <VSA_EState3>
4.22

>  <VSA_EState4>
-1.21

>  <VSA_EState5>
-1.3

>  <VSA_EState6>
-0.76

>  <VSA_EState7>
1.73

>  <VSA_EState8>
7.05

>  <VSA_EState9>
0

>  <apol>
30.64

>  <bpol>
17.79

>  <nRing>
1

>  <nHRing>
1

>  <naRing>
0

>  <naHRing>
0

>  <nARing 2>
1

>  <nAHRing 2>
1

>  <nFRing>
0

>  <nFHRing>
0

>  <nFaRing>
0

>  <nFaHRing>
0

>  <nFARing 2>
0

>  <nFAHRing 2>
0

>  <nRot>
3

>  <SLogP>
0.57

>  <SMR>
53.77

>  <TopoPSA(NO)>
75.27

>  <TopoPSA>
75.27

>  <JGI1>
0.33

>  <JGI2>
0.13

>  <JGI3>
0.09

>  <JGI4>
0.05

>  <JGI5>
0.03

>  <Diameter>
7

>  <Radius>
4

>  <TMWC10>
101.28

>  <TSRW10>
47.52

>  <MW>
210.1

>  <AMW>
7.24

>  <WPath>
326

>  <WPol>
27

>  <Zagreb1>
74

>  <Zagreb2>
89

>  <mZagreb2>
3.46

>  <yes>


>  <nAR-cont>
0.816016

>  <nHA-cont>
0.92539861

>  <MWHBN>
0.344950658

>  <MWHBN-cont>
0.689006105

>  <TPSA-cont>
0.47456866

>  <pka_cont>
0.97

>  <yes.1>


>  <BBB_SCORE>
4.209061088

>  <MMFF94 Energy>
-113.15

$$$$
Compound 802
Actelion Java MolfileCreator 2.0

  0  0  0  0  0  0              0 V3000
M  V30 BEGIN CTAB
M  V30 COUNTS 32 32 0 0 0
M  V30 BEGIN ATOM
M  V30 1 O 3.2161 -0.3134 -2.4309 0
M  V30 2 C 2.2906 -0.1228 -1.6491 0
M  V30 3 N 2.3204 -0.6003 -0.3805 0
M  V30 4 N 1.1871 0.5774 -2.0121 0
M  V30 5 C 1.3458 -0.4672 0.5641 0
M  V30 6 C 0.1167 0.8829 -1.2238 0
M  V30 7 O 1.4986 -0.9921 1.6679 0
M  V30 8 C 0.0915 0.315 0.1868 0
M  V30 9 O -0.7745 1.6023 -1.674 0
M  V30 10 C -1.1295 -0.6777 0.3505 0 CFG=2
M  V30 11 C 0.0017 1.5101 1.1781 0
M  V30 12 C -1.0974 -1.8095 -0.7114 0
M  V30 13 C -2.5067 0.0063 0.369 0
M  V30 14 C 1.1783 2.458 1.1312 0
M  V30 15 C -2.0753 -2.9446 -0.4325 0
M  V30 16 C 2.127 2.5173 2.0738 0
M  V30 17 H 3.1446 -1.1185 -0.1108 0
M  V30 18 H 1.1788 0.9487 -2.9519 0
M  V30 19 H -1.0268 -1.1609 1.3331 0
M  V30 20 H -0.8843 2.1217 0.9686 0
M  V30 21 H -0.1246 1.1319 2.2017 0
M  V30 22 H -1.3096 -1.4024 -1.707 0
M  V30 23 H -0.095 -2.2492 -0.7562 0
M  V30 24 H -2.5698 0.7733 1.1454 0
M  V30 25 H -3.299 -0.7131 0.5986 0
M  V30 26 H -2.7495 0.4638 -0.5937 0
M  V30 27 H 1.2252 3.1525 0.2931 0
M  V30 28 H -3.1139 -2.6211 -0.5443 0
M  V30 29 H -1.9392 -3.3427 0.5778 0
M  V30 30 H -1.9104 -3.7617 -1.1424 0
M  V30 31 H 2.1164 1.8582 2.9382 0
M  V30 32 H 2.9404 3.2336 2.0033 0
M  V30 END ATOM
M  V30 BEGIN BOND
M  V30 1 2 1 2
M  V30 2 1 2 3
M  V30 3 1 2 4
M  V30 4 1 3 5
M  V30 5 1 4 6
M  V30 6 2 5 7
M  V30 7 1 5 8
M  V30 8 2 6 9
M  V30 9 1 8 10
M  V30 10 1 8 11
M  V30 11 1 10 12
M  V30 12 1 10 13
M  V30 13 1 11 14
M  V30 14 1 12 15
M  V30 15 2 14 16
M  V30 16 1 6 8
M  V30 17 1 3 17
M  V30 18 1 4 18
M  V30 19 1 10 19
M  V30 20 1 11 20
M  V30 21 1 11 21
M  V30 22 1 12 22
M  V30 23 1 12 23
M  V30 24 1 13 24
M  V30 25 1 13 25
M  V30 26 1 13 26
M  V30 27 1 14 27
M  V30 28 1 15 28
M  V30 29 1 15 29
M  V30 30 1 15 30
M  V30 31 1 16 31
M  V30 32 1 16 32
M  V30 END BOND
M  V30 BEGIN COLLECTION
M  V30 MDLV30/STERAC1 ATOMS=(1 10)
M  V30 END COLLECTION
M  V30 END CTAB
M  END
>  <Column 1>
963

>  <level_0>
1096

>  <index>
1096

>  <Unnamed: 0>
1096

>  <NO.>
1108

>  <Name>
talbutal

>  <IUPAC_name>
5-butan-2-yl-5-prop-2-enyl-1-3-diazinane-2-4-6-trione

>  <SMILES>
C=CCC1(C(C)CC)C(=O)NC(=O)NC1=O

>  <CID>
8275

>  <logBB>


>  <BBB+/BBB->
BBB+

>  <Inchi>
InChI=1S/C11H16N2O3/c1-4-6-11(7(3)5-2)8(14)12-10(16)13-9(11)15/h4-7H-1-5-6H2-2-3H3-(H2-12-13-14-15-16)

>  <threshold>
-1

>  <reference>
R1|R13|R19|R6|R27|R27|R30|

>  <group>
B

>  <Class>
1

>  <ABC>
11.57

>  <ABCGG>
11.45

>  <nAcid>
0

>  <nBase>
0

>  <nAromAtom>
0

>  <nAromBond>
0

>  <nAtom>
32

>  <nHeavyAtom>
16

>  <nSpiro>
0

>  <nBridgehead>
0

>  <nHetero>
5

>  <nN>
2

>  <nO>
3

>  <nF>
0

>  <BalabanJ>
2.96

>  <BertzCT>
329.14

>  <nBonds>
32

>  <nBondsO>
16

>  <nBondsS>
28

>  <nBondsD>
4

>  <nBondsT>
0

>  <nBondsA>
0

>  <nBondsM>
4

>  <nBondsKS>
28

>  <nBondsKD>
4

>  <RNCG>
0.16

>  <RPCG>
0.19

>  <FCSP3>
0.55

>  <SZ>
20

>  <Sm>
18.67

>  <Sv>
18.99

>  <Sse>
32.42

>  <Sp>
20.15

>  <Si>
36.53

>  <MZ>
0.63

>  <Mm>
0.58

>  <Mv>
0.59

>  <Mse>
1.01

>  <Mp>
0.63

>  <Mi>
1.14

>  <NsCH3>
2

>  <NdCH2>
1

>  <NssCH2>
2

>  <NtCH>
0

>  <NdsCH>
1

>  <NaaCH>
0

>  <NsssCH>
1

>  <NddC>
0

>  <NtsC>
0

>  <NdssC>
3

>  <NaasC>
0

>  <NaaaC>
0

>  <NssssC>
1

>  <NsNH3>
0

>  <NsNH2>
0

>  <NssNH2>
0

>  <NdNH>
0

>  <NssNH>
2

>  <NaaNH>
0

>  <NtN>
0

>  <NsssNH>
0

>  <NdsN>
0

>  <NaaN>
0

>  <NsssN>
0

>  <NddsN>
0

>  <NaasN>
0

>  <NssssN>
0

>  <NsOH>
0

>  <NdO>
3

>  <NssO>
0

>  <NaaO>
0

>  <NsF>
0

>  <NsSiH3>
0

>  <NssSiH2>
0

>  <NsssSiH>
0

>  <NssssSi>
0

>  <NsPH2>
0

>  <NssPH>
0

>  <NsssP>
0

>  <NdsssP>
0

>  <NsssssP>
0

>  <NsSH>
0

>  <NdS>
0

>  <NssS>
0

>  <NaaS>
0

>  <NdssS>
0

>  <NddssS>
0

>  <NsCl>
0

>  <NsBr>
0

>  <NsI>
0

>  <fragCpx>
16.05

>  <fMF>
0.19

>  <nHBAcc>
3

>  <nHBDon>
2

>  <Kier1>
14.06

>  <Kier2>
5.56

>  <Lipinski>
1

>  <GhoseFilter>
1

>  <FilterItLogS>
-2.83

>  <VMcGowan>
175.36

>  <LabuteASA>
94.28

>  <PEOE_VSA1>
0

>  <PEOE_VSA2>
20.22

>  <PEOE_VSA3>
4.79

>  <PEOE_VSA4>
0

>  <PEOE_VSA5>
6.58

>  <PEOE_VSA6>
26.34

>  <PEOE_VSA7>
12.34

>  <PEOE_VSA8>
0

>  <PEOE_VSA9>
0

>  <PEOE_VSA10>
5.41

>  <PEOE_VSA11>
0

>  <PEOE_VSA12>
11.81

>  <PEOE_VSA13>
0

>  <SMR_VSA1>
14.38

>  <SMR_VSA2>
0

>  <SMR_VSA3>
10.63

>  <SMR_VSA4>
11.33

>  <SMR_VSA5>
26.69

>  <SMR_VSA6>
0

>  <SMR_VSA7>
12.65

>  <SMR_VSA8>
0

>  <SMR_VSA9>
0

>  <SlogP_VSA1>
10.63

>  <SlogP_VSA2>
17.85

>  <SlogP_VSA3>
9.59

>  <SlogP_VSA4>
11.33

>  <SlogP_VSA5>
26.69

>  <SlogP_VSA6>
12.65

>  <SlogP_VSA7>
0

>  <SlogP_VSA8>
0

>  <SlogP_VSA9>
0

>  <SlogP_VSA10>
4.79

>  <SlogP_VSA11>
0

>  <EState_VSA1>
23.26

>  <EState_VSA2>
12.34

>  <EState_VSA3>
6.42

>  <EState_VSA4>
0

>  <EState_VSA5>
6.08

>  <EState_VSA6>
0

>  <EState_VSA7>
13.85

>  <EState_VSA8>
17.21

>  <EState_VSA9>
0

>  <EState_VSA10>
14.38

>  <VSA_EState1>
0

>  <VSA_EState2>
34.77

>  <VSA_EState3>
4.29

>  <VSA_EState4>
-1.2

>  <VSA_EState5>
-1.22

>  <VSA_EState6>
-0.75

>  <VSA_EState7>
2.43

>  <VSA_EState8>
7.27

>  <VSA_EState9>
0

>  <apol>
33.64

>  <bpol>
19.8

>  <nRing>
1

>  <nHRing>
1

>  <naRing>
0

>  <naHRing>
0

>  <nARing 2>
1

>  <nAHRing 2>
1

>  <nFRing>
0

>  <nFHRing>
0

>  <nFaRing>
0

>  <nFaHRing>
0

>  <nFARing 2>
0

>  <nFAHRing 2>
0

>  <nRot>
4

>  <SLogP>
0.96

>  <SMR>
58.38

>  <TopoPSA(NO)>
75.27

>  <TopoPSA>
75.27

>  <JGI1>
0.31

>  <JGI2>
0.14

>  <JGI3>
0.08

>  <JGI4>
0.05

>  <JGI5>
0.03

>  <Diameter>
7

>  <Radius>
4

>  <TMWC10>
103.82

>  <TSRW10>
48.76

>  <MW>
224.12

>  <AMW>
7

>  <WPath>
391

>  <WPol>
29

>  <Zagreb1>
78

>  <Zagreb2>
94

>  <mZagreb2>
3.79

>  <yes>


>  <nAR-cont>
0.816016

>  <nHA-cont>
0.954961865

>  <MWHBN>
0.333987104

>  <MWHBN-cont>
0.728760017

>  <TPSA-cont>
0.47456866

>  <pka_cont>
0.97

>  <yes.1>


>  <BBB_SCORE>
4.298255211

>  <MMFF94 Energy>
-113.35

$$$$
Compound 803
Actelion Java MolfileCreator 2.0

  0  0  0  0  0  0              0 V3000
M  V30 BEGIN CTAB
M  V30 COUNTS 35 35 0 0 0
M  V30 BEGIN ATOM
M  V30 1 S 0.3955 4.8342 -1.6622 0
M  V30 2 C 0.2532 3.2368 -1.2307 0
M  V30 3 N -0.423 2.8623 -0.1157 0
M  V30 4 N 0.8446 2.253 -1.9558 0
M  V30 5 C -0.5549 1.5796 0.3449 0
M  V30 6 C 0.7882 0.9094 -1.6923 0
M  V30 7 O -0.9634 1.3946 1.4903 0
M  V30 8 C -0.2209 0.4525 -0.6387 0
M  V30 9 O 1.4727 0.1428 -2.3663 0
M  V30 10 C 0.3013 -0.7977 0.1686 0 CFG=2
M  V30 11 C -1.5288 0.1826 -1.4485 0
M  V30 12 C 1.663 -0.4984 0.8574 0
M  V30 13 C 0.3838 -2.1006 -0.644 0
M  V30 14 C -2.7034 -0.3302 -0.6565 0
M  V30 15 C 2.1744 -1.5701 1.8285 0
M  V30 16 C -3.86 0.3308 -0.5199 0
M  V30 17 C 1.2402 -1.8304 2.9995 0
M  V30 18 H -0.7654 3.5897 0.5 0
M  V30 19 H 1.4353 2.5259 -2.732 0
M  V30 20 H -0.4282 -0.9896 0.9656 0
M  V30 21 H -1.8303 1.103 -1.9699 0
M  V30 22 H -1.3295 -0.5348 -2.2551 0
M  V30 23 H 2.4355 -0.3527 0.0927 0
M  V30 24 H 1.5996 0.4471 1.4087 0
M  V30 25 H 0.5554 -2.9564 0.0171 0
M  V30 26 H 1.2014 -2.0835 -1.3692 0
M  V30 27 H -0.5438 -2.3162 -1.1788 0
M  V30 28 H -2.6039 -1.303 -0.1784 0
M  V30 29 H 2.3736 -2.5078 1.2994 0
M  V30 30 H 3.14 -1.2341 2.2263 0
M  V30 31 H -4.0289 1.3017 -0.9746 0
M  V30 32 H -4.6725 -0.0925 0.0638 0
M  V30 33 H 1.7175 -2.5053 3.7172 0
M  V30 34 H 0.9943 -0.9002 3.5214 0
M  V30 35 H 0.309 -2.3024 2.6735 0
M  V30 END ATOM
M  V30 BEGIN BOND
M  V30 1 2 1 2
M  V30 2 1 2 3
M  V30 3 1 2 4
M  V30 4 1 3 5
M  V30 5 1 4 6
M  V30 6 2 5 7
M  V30 7 1 5 8
M  V30 8 2 6 9
M  V30 9 1 8 10
M  V30 10 1 8 11
M  V30 11 1 10 12
M  V30 12 1 10 13
M  V30 13 1 11 14
M  V30 14 1 12 15
M  V30 15 2 14 16
M  V30 16 1 15 17
M  V30 17 1 6 8
M  V30 18 1 3 18
M  V30 19 1 4 19
M  V30 20 1 10 20
M  V30 21 1 11 21
M  V30 22 1 11 22
M  V30 23 1 12 23
M  V30 24 1 12 24
M  V30 25 1 13 25
M  V30 26 1 13 26
M  V30 27 1 13 27
M  V30 28 1 14 28
M  V30 29 1 15 29
M  V30 30 1 15 30
M  V30 31 1 16 31
M  V30 32 1 16 32
M  V30 33 1 17 33
M  V30 34 1 17 34
M  V30 35 1 17 35
M  V30 END BOND
M  V30 BEGIN COLLECTION
M  V30 MDLV30/STERAC1 ATOMS=(1 10)
M  V30 END COLLECTION
M  V30 END CTAB
M  END
>  <Column 1>
964

>  <level_0>
1097

>  <index>
1097

>  <Unnamed: 0>
1097

>  <NO.>
1109

>  <Name>
thiamylal

>  <IUPAC_name>
5-pentan-2-yl-5-prop-2-enyl-2-sulfanylidene-1-3-diazinane-4-6-dione

>  <SMILES>
C=CCC1(C(C)CCC)C(=O)NC(=S)NC1=O

>  <CID>
3032285

>  <logBB>


>  <BBB+/BBB->
BBB+

>  <Inchi>
InChI=1S/C12H18N2O2S/c1-4-6-8(3)12(7-5-2)9(15)13-11(17)14-10(12)16/h5-8H-2-4-6-7H2-1-3H3-(H2-13-14-15-16-17)

>  <threshold>
-1

>  <reference>
R1|R19|R6|R27|R27|R30|

>  <group>
B

>  <Class>
1

>  <ABC>
12.27

>  <ABCGG>
11.99

>  <nAcid>
0

>  <nBase>
0

>  <nAromAtom>
0

>  <nAromBond>
0

>  <nAtom>
35

>  <nHeavyAtom>
17

>  <nSpiro>
0

>  <nBridgehead>
0

>  <nHetero>
5

>  <nN>
2

>  <nO>
2

>  <nF>
0

>  <BalabanJ>
2.94

>  <BertzCT>
345.52

>  <nBonds>
35

>  <nBondsO>
17

>  <nBondsS>
31

>  <nBondsD>
4

>  <nBondsT>
0

>  <nBondsA>
0

>  <nBondsM>
4

>  <nBondsKS>
31

>  <nBondsKD>
4

>  <RNCG>
0.18

>  <RPCG>
0.15

>  <FCSP3>
0.58

>  <SZ>
22.67

>  <Sm>
21.18

>  <Sv>
21.01

>  <Sse>
35.05

>  <Sp>
23.2

>  <Si>
39.66

>  <MZ>
0.65

>  <Mm>
0.61

>  <Mv>
0.6

>  <Mse>
1

>  <Mp>
0.66

>  <Mi>
1.13

>  <NsCH3>
2

>  <NdCH2>
1

>  <NssCH2>
3

>  <NtCH>
0

>  <NdsCH>
1

>  <NaaCH>
0

>  <NsssCH>
1

>  <NddC>
0

>  <NtsC>
0

>  <NdssC>
3

>  <NaasC>
0

>  <NaaaC>
0

>  <NssssC>
1

>  <NsNH3>
0

>  <NsNH2>
0

>  <NssNH2>
0

>  <NdNH>
0

>  <NssNH>
2

>  <NaaNH>
0

>  <NtN>
0

>  <NsssNH>
0

>  <NdsN>
0

>  <NaaN>
0

>  <NsssN>
0

>  <NddsN>
0

>  <NaasN>
0

>  <NssssN>
0

>  <NsOH>
0

>  <NdO>
2

>  <NssO>
0

>  <NaaO>
0

>  <NsF>
0

>  <NsSiH3>
0

>  <NssSiH2>
0

>  <NsssSiH>
0

>  <NssssSi>
0

>  <NsPH2>
0

>  <NssPH>
0

>  <NsssP>
0

>  <NdsssP>
0

>  <NsssssP>
0

>  <NsSH>
0

>  <NdS>
1

>  <NssS>
0

>  <NaaS>
0

>  <NdssS>
0

>  <NddssS>
0

>  <NsCl>
0

>  <NsBr>
0

>  <NsI>
0

>  <fragCpx>
17.05

>  <fMF>
0.17

>  <nHBAcc>
3

>  <nHBDon>
2

>  <Kier1>
15.06

>  <Kier2>
6.25

>  <Lipinski>
1

>  <GhoseFilter>
1

>  <FilterItLogS>
-3.44

>  <VMcGowan>
199.93

>  <LabuteASA>
106.84

>  <PEOE_VSA1>
10.63

>  <PEOE_VSA2>
9.59

>  <PEOE_VSA3>
0

>  <PEOE_VSA4>
0

>  <PEOE_VSA5>
6.58

>  <PEOE_VSA6>
26.34

>  <PEOE_VSA7>
30.98

>  <PEOE_VSA8>
0

>  <PEOE_VSA9>
0

>  <PEOE_VSA10>
5.41

>  <PEOE_VSA11>
5.11

>  <PEOE_VSA12>
11.81

>  <PEOE_VSA13>
0

>  <SMR_VSA1>
9.59

>  <SMR_VSA2>
0

>  <SMR_VSA3>
10.63

>  <SMR_VSA4>
11.33

>  <SMR_VSA5>
33.11

>  <SMR_VSA6>
0

>  <SMR_VSA7>
12.65

>  <SMR_VSA8>
0

>  <SMR_VSA9>
0

>  <SlogP_VSA1>
10.63

>  <SlogP_VSA2>
16.93

>  <SlogP_VSA3>
9.59

>  <SlogP_VSA4>
11.33

>  <SlogP_VSA5>
33.11

>  <SlogP_VSA6>
12.65

>  <SlogP_VSA7>
0

>  <SlogP_VSA8>
0

>  <SlogP_VSA9>
0

>  <SlogP_VSA10>
0

>  <SlogP_VSA11>
0

>  <EState_VSA1>
5.41

>  <EState_VSA2>
22.84

>  <EState_VSA3>
6.42

>  <EState_VSA4>
12.84

>  <EState_VSA5>
0

>  <EState_VSA6>
6.08

>  <EState_VSA7>
13.85

>  <EState_VSA8>
17.21

>  <EState_VSA9>
12.22

>  <EState_VSA10>
9.59

>  <VSA_EState1>
0

>  <VSA_EState2>
24.27

>  <VSA_EState3>
5.16

>  <VSA_EState4>
-1.07

>  <VSA_EState5>
-0.67

>  <VSA_EState6>
0

>  <VSA_EState7>
3.67

>  <VSA_EState8>
7.58

>  <VSA_EState9>
0

>  <apol>
38.75

>  <bpol>
22.16

>  <nRing>
1

>  <nHRing>
1

>  <naRing>
0

>  <naHRing>
0

>  <nARing 2>
1

>  <nAHRing 2>
1

>  <nFRing>
0

>  <nFHRing>
0

>  <nFaRing>
0

>  <nFaHRing>
0

>  <nFARing 2>
0

>  <nFAHRing 2>
0

>  <nRot>
5

>  <SLogP>
1.52

>  <SMR>
70.2

>  <TopoPSA(NO)>
58.2

>  <TopoPSA>
90.29

>  <JGI1>
0.29

>  <JGI2>
0.13

>  <JGI3>
0.09

>  <JGI4>
0.04

>  <JGI5>
0.03

>  <Diameter>
8

>  <Radius>
4

>  <TMWC10>
106.14

>  <TSRW10>
49.94

>  <MW>
254.11

>  <AMW>
7.26

>  <WPath>
472

>  <WPol>
30

>  <Zagreb1>
82

>  <Zagreb2>
98

>  <mZagreb2>
4.04

>  <yes>


>  <nAR-cont>
0.816016

>  <nHA-cont>
0.976740822

>  <MWHBN>
0.313659991

>  <MWHBN-cont>
0.798100318

>  <TPSA-cont>
0.369719733

>  <pka_cont>
0.97

>  <yes.1>


>  <BBB_SCORE>
4.214346766

>  <MMFF94 Energy>
-82.831

$$$$
Compound 804
Actelion Java MolfileCreator 2.0

  0  0  0  0  0  0              0 V3000
M  V30 BEGIN CTAB
M  V30 COUNTS 34 35 0 0 0
M  V30 BEGIN ATOM
M  V30 1 S -0.3208 1.8457 4.257 0
M  V30 2 C -0.3931 1.413 2.6546 0
M  V30 3 N -1.5319 0.9165 2.1105 0
M  V30 4 N 0.68 1.5516 1.8375 0
M  V30 5 C -1.703 0.5241 0.8119 0
M  V30 6 C 0.7288 1.2503 0.5034 0
M  V30 7 O -2.8048 0.1146 0.4453 0
M  V30 8 C -0.4927 0.579 -0.1097 0
M  V30 9 O 1.7466 1.5248 -0.1319 0
M  V30 10 C -0.15 -0.9137 -0.4904 0 CFG=1
M  V30 11 C -0.9071 1.4007 -1.3644 0
M  V30 12 C 0.9436 -1.0862 -1.5317 0
M  V30 13 C 0.1464 -1.7834 0.7638 0
M  V30 14 C -1.4422 2.7821 -1.0616 0
M  V30 15 C 1.8804 -2.0454 -1.4839 0
M  V30 16 C 0.6463 -3.1771 0.3886 0
M  V30 17 C -0.7357 3.9082 -1.2202 0
M  V30 18 C 1.938 -3.0983 -0.4209 0
M  V30 19 H -2.3472 0.8386 2.7062 0
M  V30 20 H 1.5214 1.9623 2.2232 0
M  V30 21 H -1.0517 -1.3398 -0.957 0
M  V30 22 H -1.6841 0.8647 -1.9257 0
M  V30 23 H -0.0606 1.5056 -2.0541 0
M  V30 24 H 0.9705 -0.4005 -2.3753 0
M  V30 25 H 0.8998 -1.303 1.3996 0
M  V30 26 H -0.7602 -1.8931 1.3697 0
M  V30 27 H -2.4767 2.8516 -0.7263 0
M  V30 28 H 2.6425 -2.0853 -2.2592 0
M  V30 29 H -0.1258 -3.6964 -0.1932 0
M  V30 30 H 0.8152 -3.7717 1.2936 0
M  V30 31 H 0.294 3.8928 -1.568 0
M  V30 32 H -1.1762 4.878 -1.008 0
M  V30 33 H 2.7835 -2.8796 0.2419 0
M  V30 34 H 2.132 -4.0735 -0.8814 0
M  V30 END ATOM
M  V30 BEGIN BOND
M  V30 1 2 1 2
M  V30 2 1 2 3
M  V30 3 1 2 4
M  V30 4 1 3 5
M  V30 5 1 4 6
M  V30 6 2 5 7
M  V30 7 1 5 8
M  V30 8 2 6 9
M  V30 9 1 8 10
M  V30 10 1 8 11
M  V30 11 1 10 12
M  V30 12 1 10 13
M  V30 13 1 11 14
M  V30 14 2 12 15
M  V30 15 1 13 16
M  V30 16 2 14 17
M  V30 17 1 15 18
M  V30 18 1 6 8
M  V30 19 1 16 18
M  V30 20 1 3 19
M  V30 21 1 4 20
M  V30 22 1 10 21
M  V30 23 1 11 22
M  V30 24 1 11 23
M  V30 25 1 12 24
M  V30 26 1 13 25
M  V30 27 1 13 26
M  V30 28 1 14 27
M  V30 29 1 15 28
M  V30 30 1 16 29
M  V30 31 1 16 30
M  V30 32 1 17 31
M  V30 33 1 17 32
M  V30 34 1 18 33
M  V30 35 1 18 34
M  V30 END BOND
M  V30 BEGIN COLLECTION
M  V30 MDLV30/STERAC1 ATOMS=(1 10)
M  V30 END COLLECTION
M  V30 END CTAB
M  END
>  <Column 1>
965

>  <level_0>
1098

>  <index>
1098

>  <Unnamed: 0>
1098

>  <NO.>
1110

>  <Name>
thialbarbital

>  <IUPAC_name>
5-cyclohex-2-en-1-yl-5-prop-2-enyl-2-sulfanylidene-1-3-diazinane-4-6-dione

>  <SMILES>
C=CCC1(C2C=CCCC2)C(=O)NC(=S)NC1=O

>  <CID>
3032306

>  <logBB>


>  <BBB+/BBB->
BBB+

>  <Inchi>
InChI=1S/C13H16N2O2S/c1-2-8-13(9-6-4-3-5-7-9)10(16)14-12(18)15-11(13)17/h2-4-6-9H-1-3-5-7-8H2-(H2-14-15-16-17-18)

>  <threshold>
-1

>  <reference>
R1|R19|R6|R27|R27|R30|

>  <group>
B

>  <Class>
1

>  <ABC>
13.58

>  <ABCGG>
12.29

>  <nAcid>
0

>  <nBase>
0

>  <nAromAtom>
0

>  <nAromBond>
0

>  <nAtom>
34

>  <nHeavyAtom>
18

>  <nSpiro>
0

>  <nBridgehead>
0

>  <nHetero>
5

>  <nN>
2

>  <nO>
2

>  <nF>
0

>  <BalabanJ>
2.22

>  <BertzCT>
422.27

>  <nBonds>
35

>  <nBondsO>
19

>  <nBondsS>
30

>  <nBondsD>
5

>  <nBondsT>
0

>  <nBondsA>
0

>  <nBondsM>
5

>  <nBondsKS>
30

>  <nBondsKD>
5

>  <RNCG>
0.18

>  <RPCG>
0.14

>  <FCSP3>
0.46

>  <SZ>
23.33

>  <Sm>
22.01

>  <Sv>
21.47

>  <Sse>
34.17

>  <Sp>
23.4

>  <Si>
38.24

>  <MZ>
0.69

>  <Mm>
0.65

>  <Mv>
0.63

>  <Mse>
1

>  <Mp>
0.69

>  <Mi>
1.12

>  <NsCH3>
0

>  <NdCH2>
1

>  <NssCH2>
4

>  <NtCH>
0

>  <NdsCH>
3

>  <NaaCH>
0

>  <NsssCH>
1

>  <NddC>
0

>  <NtsC>
0

>  <NdssC>
3

>  <NaasC>
0

>  <NaaaC>
0

>  <NssssC>
1

>  <NsNH3>
0

>  <NsNH2>
0

>  <NssNH2>
0

>  <NdNH>
0

>  <NssNH>
2

>  <NaaNH>
0

>  <NtN>
0

>  <NsssNH>
0

>  <NdsN>
0

>  <NaaN>
0

>  <NsssN>
0

>  <NddsN>
0

>  <NaasN>
0

>  <NssssN>
0

>  <NsOH>
0

>  <NdO>
2

>  <NssO>
0

>  <NaaO>
0

>  <NsF>
0

>  <NsSiH3>
0

>  <NssSiH2>
0

>  <NsssSiH>
0

>  <NssssSi>
0

>  <NsPH2>
0

>  <NssPH>
0

>  <NsssP>
0

>  <NdsssP>
0

>  <NsssssP>
0

>  <NsSH>
0

>  <NdS>
1

>  <NssS>
0

>  <NaaS>
0

>  <NdssS>
0

>  <NddssS>
0

>  <NsCl>
0

>  <NsBr>
0

>  <NsI>
0

>  <fragCpx>
55.05

>  <fMF>
0.35

>  <nHBAcc>
3

>  <nHBDon>
2

>  <Kier1>
14.41

>  <Kier2>
5.97

>  <Lipinski>
1

>  <GhoseFilter>
1

>  <FilterItLogS>
-2.77

>  <VMcGowan>
198.86

>  <LabuteASA>
111.51

>  <PEOE_VSA1>
10.63

>  <PEOE_VSA2>
9.59

>  <PEOE_VSA3>
0

>  <PEOE_VSA4>
0

>  <PEOE_VSA5>
6.58

>  <PEOE_VSA6>
18.23

>  <PEOE_VSA7>
37.9

>  <PEOE_VSA8>
5.92

>  <PEOE_VSA9>
0

>  <PEOE_VSA10>
5.41

>  <PEOE_VSA11>
5.11

>  <PEOE_VSA12>
11.81

>  <PEOE_VSA13>
0

>  <SMR_VSA1>
9.59

>  <SMR_VSA2>
0

>  <SMR_VSA3>
10.63

>  <SMR_VSA4>
11.33

>  <SMR_VSA5>
25.68

>  <SMR_VSA6>
0

>  <SMR_VSA7>
24.81

>  <SMR_VSA8>
0

>  <SMR_VSA9>
0

>  <SlogP_VSA1>
10.63

>  <SlogP_VSA2>
16.93

>  <SlogP_VSA3>
9.59

>  <SlogP_VSA4>
11.33

>  <SlogP_VSA5>
25.68

>  <SlogP_VSA6>
24.81

>  <SlogP_VSA7>
0

>  <SlogP_VSA8>
0

>  <SlogP_VSA9>
0

>  <SlogP_VSA10>
0

>  <SlogP_VSA11>
0

>  <EState_VSA1>
5.41

>  <EState_VSA2>
22.84

>  <EState_VSA3>
6.42

>  <EState_VSA4>
19.26

>  <EState_VSA5>
0

>  <EState_VSA6>
6.08

>  <EState_VSA7>
12.15

>  <EState_VSA8>
17.21

>  <EState_VSA9>
12.22

>  <EState_VSA10>
9.59

>  <VSA_EState1>
0

>  <VSA_EState2>
24.57

>  <VSA_EState3>
5.21

>  <VSA_EState4>
-1.1

>  <VSA_EState5>
-0.72

>  <VSA_EState6>
0

>  <VSA_EState7>
8.77

>  <VSA_EState8>
3.67

>  <VSA_EState9>
0

>  <apol>
39.08

>  <bpol>
20.16

>  <nRing>
2

>  <nHRing>
1

>  <naRing>
0

>  <naHRing>
0

>  <nARing 2>
2

>  <nAHRing 2>
1

>  <nFRing>
0

>  <nFHRing>
0

>  <nFaRing>
0

>  <nFaHRing>
0

>  <nFARing 2>
0

>  <nFAHRing 2>
0

>  <nRot>
3

>  <SLogP>
1.44

>  <SMR>
72.61

>  <TopoPSA(NO)>
58.2

>  <TopoPSA>
90.29

>  <JGI1>
0.24

>  <JGI2>
0.11

>  <JGI3>
0.07

>  <JGI4>
0.04

>  <JGI5>
0.02

>  <Diameter>
8

>  <Radius>
4

>  <TMWC10>
110.39

>  <TSRW10>
51.52

>  <MW>
264.09

>  <AMW>
7.77

>  <WPath>
538

>  <WPol>
32

>  <Zagreb1>
92

>  <Zagreb2>
111

>  <mZagreb2>
4.13

>  <yes>


>  <nAR-cont>
1

>  <nHA-cont>
0.991161285

>  <MWHBN>
0.307676287

>  <MWHBN-cont>
0.817214294

>  <TPSA-cont>
0.369719733

>  <pka_cont>
0.97

>  <yes.1>


>  <BBB_SCORE>
4.441422193

>  <MMFF94 Energy>
-81.403

$$$$
Compound 805
Actelion Java MolfileCreator 2.0

  0  0  0  0  0  0              0 V3000
M  V30 BEGIN CTAB
M  V30 COUNTS 27 27 0 0 0
M  V30 BEGIN ATOM
M  V30 1 Br 2.4949 2.656 -0.4825 0
M  V30 2 C 0.6551 2.5892 -0.1308 0
M  V30 3 C 0.0703 3.5974 0.5323 0
M  V30 4 C -0.117 1.4523 -0.7692 0
M  V30 5 C -0.2677 0.0955 -0.017 0
M  V30 6 C -1.0849 0.2499 1.2644 0
M  V30 7 C -0.9809 -0.8797 -0.9569 0
M  V30 8 C 1.0774 -0.5539 0.4118 0
M  V30 9 O -1.0969 1.2538 1.9702 0
M  V30 10 N -1.7819 -0.856 1.6751 0
M  V30 11 O -0.9732 -0.7841 -2.1824 0
M  V30 12 N -1.6327 -1.9256 -0.3652 0
M  V30 13 C 1.9647 -1.0184 -0.7137 0
M  V30 14 C -2.0685 -1.9509 0.9211 0
M  V30 15 C 2.3546 -2.2887 -0.8807 0
M  V30 16 O -2.7376 -2.8792 1.3598 0
M  V30 17 H 0.6437 4.4267 0.9349 0
M  V30 18 H -1.0005 3.6145 0.7085 0
M  V30 19 H 0.3128 1.2787 -1.7657 0
M  V30 20 H -1.1324 1.8212 -0.9834 0
M  V30 21 H 0.8787 -1.4108 1.0717 0
M  V30 22 H 1.6461 0.1432 1.0388 0
M  V30 23 H -2.2189 -0.8099 2.5857 0
M  V30 24 H -1.9779 -2.6561 -0.9724 0
M  V30 25 H 2.3116 -0.2766 -1.4304 0
M  V30 26 H 2.055 -3.0816 -0.2026 0
M  V30 27 H 2.9975 -2.5631 -1.7126 0
M  V30 END ATOM
M  V30 BEGIN BOND
M  V30 1 1 1 2
M  V30 2 2 2 3
M  V30 3 1 2 4
M  V30 4 1 4 5
M  V30 5 1 5 6
M  V30 6 1 5 7
M  V30 7 1 5 8
M  V30 8 2 6 9
M  V30 9 1 6 10
M  V30 10 2 7 11
M  V30 11 1 7 12
M  V30 12 1 8 13
M  V30 13 1 10 14
M  V30 14 2 13 15
M  V30 15 2 14 16
M  V30 16 1 12 14
M  V30 17 1 3 17
M  V30 18 1 3 18
M  V30 19 1 4 19
M  V30 20 1 4 20
M  V30 21 1 8 21
M  V30 22 1 8 22
M  V30 23 1 10 23
M  V30 24 1 12 24
M  V30 25 1 13 25
M  V30 26 1 15 26
M  V30 27 1 15 27
M  V30 END BOND
M  V30 END CTAB
M  END
>  <Column 1>
966

>  <level_0>
1099

>  <index>
1099

>  <Unnamed: 0>
1099

>  <NO.>
1111

>  <Name>
brallobarbital

>  <IUPAC_name>
5-(2-bromoprop-2-enyl)-5-prop-2-enyl-1-3-diazinane-2-4-6-trione

>  <SMILES>
C=CCC1(CC(=C)Br)C(=O)NC(=O)NC1=O

>  <CID>
68416

>  <logBB>


>  <BBB+/BBB->
BBB+

>  <Inchi>
InChI=1S/C10H11BrN2O3/c1-3-4-10(5-6(2)11)7(14)12-9(16)13-8(10)15/h3H-1-2-4-5H2-(H2-12-13-14-15-16)

>  <threshold>
-1

>  <reference>
R1|R13|R19|R6|R24|R27|R27|R27|R30|R30|

>  <group>
B

>  <Class>
1

>  <ABC>
11.74

>  <ABCGG>
11.34

>  <nAcid>
0

>  <nBase>
0

>  <nAromAtom>
0

>  <nAromBond>
0

>  <nAtom>
27

>  <nHeavyAtom>
16

>  <nSpiro>
0

>  <nBridgehead>
0

>  <nHetero>
6

>  <nN>
2

>  <nO>
3

>  <nF>
0

>  <BalabanJ>
2.87

>  <BertzCT>
369.53

>  <nBonds>
27

>  <nBondsO>
16

>  <nBondsS>
22

>  <nBondsD>
5

>  <nBondsT>
0

>  <nBondsA>
0

>  <nBondsM>
5

>  <nBondsKS>
22

>  <nBondsKD>
5

>  <RNCG>
0.16

>  <RPCG>
0.19

>  <FCSP3>
0.3

>  <SZ>
24

>  <Sm>
23.9

>  <Sv>
17.93

>  <Sse>
27.87

>  <Sp>
18.98

>  <Si>
30.54

>  <MZ>
0.89

>  <Mm>
0.89

>  <Mv>
0.66

>  <Mse>
1.03

>  <Mp>
0.7

>  <Mi>
1.13

>  <NsCH3>
0

>  <NdCH2>
2

>  <NssCH2>
2

>  <NtCH>
0

>  <NdsCH>
1

>  <NaaCH>
0

>  <NsssCH>
0

>  <NddC>
0

>  <NtsC>
0

>  <NdssC>
4

>  <NaasC>
0

>  <NaaaC>
0

>  <NssssC>
1

>  <NsNH3>
0

>  <NsNH2>
0

>  <NssNH2>
0

>  <NdNH>
0

>  <NssNH>
2

>  <NaaNH>
0

>  <NtN>
0

>  <NsssNH>
0

>  <NdsN>
0

>  <NaaN>
0

>  <NsssN>
0

>  <NddsN>
0

>  <NaasN>
0

>  <NssssN>
0

>  <NsOH>
0

>  <NdO>
3

>  <NssO>
0

>  <NaaO>
0

>  <NsF>
0

>  <NsSiH3>
0

>  <NssSiH2>
0

>  <NsssSiH>
0

>  <NssssSi>
0

>  <NsPH2>
0

>  <NssPH>
0

>  <NsssP>
0

>  <NdsssP>
0

>  <NsssssP>
0

>  <NsSH>
0

>  <NdS>
0

>  <NssS>
0

>  <NaaS>
0

>  <NdssS>
0

>  <NddssS>
0

>  <NsCl>
0

>  <NsBr>
1

>  <NsI>
0

>  <fragCpx>
16.06

>  <fMF>
0.22

>  <nHBAcc>
3

>  <nHBDon>
2

>  <Kier1>
14.06

>  <Kier2>
5.56

>  <Lipinski>
1

>  <GhoseFilter>
1

>  <FilterItLogS>
-3.3

>  <VMcGowan>
174.47

>  <LabuteASA>
101.09

>  <PEOE_VSA1>
0

>  <PEOE_VSA2>
20.22

>  <PEOE_VSA3>
4.79

>  <PEOE_VSA4>
0

>  <PEOE_VSA5>
6.58

>  <PEOE_VSA6>
28.58

>  <PEOE_VSA7>
10.9

>  <PEOE_VSA8>
6.42

>  <PEOE_VSA9>
0

>  <PEOE_VSA10>
5.41

>  <PEOE_VSA11>
0

>  <PEOE_VSA12>
11.81

>  <PEOE_VSA13>
0

>  <SMR_VSA1>
14.38

>  <SMR_VSA2>
0

>  <SMR_VSA3>
10.63

>  <SMR_VSA4>
5.41

>  <SMR_VSA5>
12.84

>  <SMR_VSA6>
0

>  <SMR_VSA7>
23.72

>  <SMR_VSA8>
0

>  <SMR_VSA9>
0

>  <SlogP_VSA1>
10.63

>  <SlogP_VSA2>
17.85

>  <SlogP_VSA3>
9.59

>  <SlogP_VSA4>
5.41

>  <SlogP_VSA5>
12.84

>  <SlogP_VSA6>
23.72

>  <SlogP_VSA7>
0

>  <SlogP_VSA8>
0

>  <SlogP_VSA9>
0

>  <SlogP_VSA10>
4.79

>  <SlogP_VSA11>
0

>  <EState_VSA1>
23.26

>  <EState_VSA2>
12.84

>  <EState_VSA3>
4.48

>  <EState_VSA4>
0

>  <EState_VSA5>
6.08

>  <EState_VSA6>
0

>  <EState_VSA7>
0

>  <EState_VSA8>
39.72

>  <EState_VSA9>
0

>  <EState_VSA10>
14.38

>  <VSA_EState1>
0.51

>  <VSA_EState2>
34.46

>  <VSA_EState3>
4.14

>  <VSA_EState4>
-1.34

>  <VSA_EState5>
-1.25

>  <VSA_EState6>
-0.8

>  <VSA_EState7>
1.72

>  <VSA_EState8>
7.11

>  <VSA_EState9>
0

>  <apol>
31.69

>  <bpol>
16.16

>  <nRing>
1

>  <nHRing>
1

>  <naRing>
0

>  <naHRing>
0

>  <nARing 2>
1

>  <nAHRing 2>
1

>  <nFRing>
0

>  <nFHRing>
0

>  <nFaRing>
0

>  <nFaHRing>
0

>  <nFARing 2>
0

>  <nFAHRing 2>
0

>  <nRot>
4

>  <SLogP>
1.21

>  <SMR>
61.61

>  <TopoPSA(NO)>
75.27

>  <TopoPSA>
75.27

>  <JGI1>
0.34

>  <JGI2>
0.12

>  <JGI3>
0.07

>  <JGI4>
0.06

>  <JGI5>
0.02

>  <Diameter>
7

>  <Radius>
4

>  <TMWC10>
103.25

>  <TSRW10>
48.57

>  <MW>
286

>  <AMW>
10.59

>  <WPath>
402

>  <WPol>
26

>  <Zagreb1>
78

>  <Zagreb2>
91

>  <mZagreb2>
3.67

>  <yes>


>  <nAR-cont>
0.816016

>  <nHA-cont>
0.954961865

>  <MWHBN>
0.295656198

>  <MWHBN-cont>
0.853519757

>  <TPSA-cont>
0.47456866

>  <pka_cont>
0.97

>  <yes.1>


>  <BBB_SCORE>
4.48539482

>  <MMFF94 Energy>
-121.98

$$$$
Compound 806
Actelion Java MolfileCreator 2.0

  0  0  0  0  0  0              0 V3000
M  V30 BEGIN CTAB
M  V30 COUNTS 35 35 0 0 0
M  V30 BEGIN ATOM
M  V30 1 O -3.9222 -0.7834 0.6267 0
M  V30 2 C -2.8008 -0.3782 0.34 0
M  V30 3 N -2.1653 0.5503 1.0997 0
M  V30 4 N -2.1289 -0.8474 -0.7416 0
M  V30 5 C -0.925 1.0754 0.8778 0
M  V30 6 C -0.8786 -0.4792 -1.1472 0
M  V30 7 O -0.4701 1.9155 1.6538 0
M  V30 8 C -0.1881 0.617 -0.3619 0
M  V30 9 O -0.3734 -1.0174 -2.1322 0
M  V30 10 C -0.1113 1.852 -1.3175 0
M  V30 11 C 1.2791 0.2082 -0.0154 0
M  V30 12 C -1.4415 2.4397 -1.726 0
M  V30 13 C 1.5976 -0.9968 0.9307 0
M  V30 14 C -1.9918 2.2711 -2.9347 0
M  V30 15 C 1.0644 -0.7957 2.3576 0
M  V30 16 C 3.1395 -1.1016 1.0224 0
M  V30 17 C 1.0754 -2.3374 0.3929 0
M  V30 18 H -2.6613 0.8827 1.915 0
M  V30 19 H -2.5959 -1.553 -1.2935 0
M  V30 20 H 0.4624 2.6586 -0.8404 0
M  V30 21 H 0.4546 1.5831 -2.2205 0
M  V30 22 H 1.7772 1.0913 0.4128 0
M  V30 23 H 1.8029 0.018 -0.9643 0
M  V30 24 H -1.9562 3.064 -0.9964 0
M  V30 25 H -1.5104 1.6746 -3.7053 0
M  V30 26 H -2.9417 2.7352 -3.1848 0
M  V30 27 H 1.455 -1.5648 3.0348 0
M  V30 28 H 1.3654 0.1766 2.7619 0
M  V30 29 H -0.0254 -0.8698 2.4009 0
M  V30 30 H 3.5753 -0.1817 1.4289 0
M  V30 31 H 3.4466 -1.9282 1.6735 0
M  V30 32 H 3.5838 -1.2759 0.0359 0
M  V30 33 H 1.4608 -3.1753 0.9862 0
M  V30 34 H -0.0151 -2.3995 0.4406 0
M  V30 35 H 1.3907 -2.5008 -0.6429 0
M  V30 END ATOM
M  V30 BEGIN BOND
M  V30 1 2 1 2
M  V30 2 1 2 3
M  V30 3 1 2 4
M  V30 4 1 3 5
M  V30 5 1 4 6
M  V30 6 2 5 7
M  V30 7 1 5 8
M  V30 8 2 6 9
M  V30 9 1 8 10
M  V30 10 1 8 11
M  V30 11 1 10 12
M  V30 12 1 11 13
M  V30 13 2 12 14
M  V30 14 1 13 15
M  V30 15 1 13 16
M  V30 16 1 13 17
M  V30 17 1 6 8
M  V30 18 1 3 18
M  V30 19 1 4 19
M  V30 20 1 10 20
M  V30 21 1 10 21
M  V30 22 1 11 22
M  V30 23 1 11 23
M  V30 24 1 12 24
M  V30 25 1 14 25
M  V30 26 1 14 26
M  V30 27 1 15 27
M  V30 28 1 15 28
M  V30 29 1 15 29
M  V30 30 1 16 30
M  V30 31 1 16 31
M  V30 32 1 16 32
M  V30 33 1 17 33
M  V30 34 1 17 34
M  V30 35 1 17 35
M  V30 END BOND
M  V30 END CTAB
M  END
>  <Column 1>
967

>  <level_0>
1100

>  <index>
1100

>  <Unnamed: 0>
1100

>  <NO.>
1112

>  <Name>
nealbarbital

>  <IUPAC_name>
5-(2-2-dimethylpropyl)-5-prop-2-enyl-1-3-diazinane-2-4-6-trione

>  <SMILES>
C=CCC1(CC(C)(C)C)C(=O)NC(=O)NC1=O

>  <CID>
521716

>  <logBB>


>  <BBB+/BBB->
BBB+

>  <Inchi>
InChI=1S/C12H18N2O3/c1-5-6-12(7-11(2-3)4)8(15)13-10(17)14-9(12)16/h5H-1-6-7H2-2-4H3-(H2-13-14-15-16-17)

>  <threshold>
-1

>  <reference>
R1|R13|R19|R6|R24|R27|R27|R27|R30|R30|

>  <group>
B

>  <Class>
1

>  <ABC>
12.7

>  <ABCGG>
12.19

>  <nAcid>
0

>  <nBase>
0

>  <nAromAtom>
0

>  <nAromBond>
0

>  <nAtom>
35

>  <nHeavyAtom>
17

>  <nSpiro>
0

>  <nBridgehead>
0

>  <nHetero>
5

>  <nN>
2

>  <nO>
3

>  <nF>
0

>  <BalabanJ>
2.95

>  <BertzCT>
359.7

>  <nBonds>
35

>  <nBondsO>
17

>  <nBondsS>
31

>  <nBondsD>
4

>  <nBondsT>
0

>  <nBondsA>
0

>  <nBondsM>
4

>  <nBondsKS>
31

>  <nBondsKD>
4

>  <RNCG>
0.15

>  <RPCG>
0.18

>  <FCSP3>
0.58

>  <SZ>
21.33

>  <Sm>
19.84

>  <Sv>
20.54

>  <Sse>
35.31

>  <Sp>
21.95

>  <Si>
39.95

>  <MZ>
0.61

>  <Mm>
0.57

>  <Mv>
0.59

>  <Mse>
1.01

>  <Mp>
0.63

>  <Mi>
1.14

>  <NsCH3>
3

>  <NdCH2>
1

>  <NssCH2>
2

>  <NtCH>
0

>  <NdsCH>
1

>  <NaaCH>
0

>  <NsssCH>
0

>  <NddC>
0

>  <NtsC>
0

>  <NdssC>
3

>  <NaasC>
0

>  <NaaaC>
0

>  <NssssC>
2

>  <NsNH3>
0

>  <NsNH2>
0

>  <NssNH2>
0

>  <NdNH>
0

>  <NssNH>
2

>  <NaaNH>
0

>  <NtN>
0

>  <NsssNH>
0

>  <NdsN>
0

>  <NaaN>
0

>  <NsssN>
0

>  <NddsN>
0

>  <NaasN>
0

>  <NssssN>
0

>  <NsOH>
0

>  <NdO>
3

>  <NssO>
0

>  <NaaO>
0

>  <NsF>
0

>  <NsSiH3>
0

>  <NssSiH2>
0

>  <NsssSiH>
0

>  <NssssSi>
0

>  <NsPH2>
0

>  <NssPH>
0

>  <NsssP>
0

>  <NdsssP>
0

>  <NsssssP>
0

>  <NsSH>
0

>  <NdS>
0

>  <NssS>
0

>  <NaaS>
0

>  <NdssS>
0

>  <NddssS>
0

>  <NsCl>
0

>  <NsBr>
0

>  <NsI>
0

>  <fragCpx>
17.05

>  <fMF>
0.17

>  <nHBAcc>
3

>  <nHBDon>
2

>  <Kier1>
15.06

>  <Kier2>
5.33

>  <Lipinski>
1

>  <GhoseFilter>
1

>  <FilterItLogS>
-3.22

>  <VMcGowan>
189.45

>  <LabuteASA>
100.64

>  <PEOE_VSA1>
0

>  <PEOE_VSA2>
20.22

>  <PEOE_VSA3>
4.79

>  <PEOE_VSA4>
0

>  <PEOE_VSA5>
6.58

>  <PEOE_VSA6>
26.85

>  <PEOE_VSA7>
18.26

>  <PEOE_VSA8>
0

>  <PEOE_VSA9>
0

>  <PEOE_VSA10>
5.41

>  <PEOE_VSA11>
0

>  <PEOE_VSA12>
11.81

>  <PEOE_VSA13>
0

>  <SMR_VSA1>
14.38

>  <SMR_VSA2>
0

>  <SMR_VSA3>
10.63

>  <SMR_VSA4>
10.83

>  <SMR_VSA5>
33.61

>  <SMR_VSA6>
0

>  <SMR_VSA7>
12.65

>  <SMR_VSA8>
0

>  <SMR_VSA9>
0

>  <SlogP_VSA1>
10.63

>  <SlogP_VSA2>
17.85

>  <SlogP_VSA3>
9.59

>  <SlogP_VSA4>
10.83

>  <SlogP_VSA5>
33.61

>  <SlogP_VSA6>
12.65

>  <SlogP_VSA7>
0

>  <SlogP_VSA8>
0

>  <SlogP_VSA9>
0

>  <SlogP_VSA10>
4.79

>  <SlogP_VSA11>
0

>  <EState_VSA1>
23.26

>  <EState_VSA2>
11.84

>  <EState_VSA3>
6.42

>  <EState_VSA4>
0

>  <EState_VSA5>
6.08

>  <EState_VSA6>
0

>  <EState_VSA7>
20.77

>  <EState_VSA8>
17.21

>  <EState_VSA9>
0

>  <EState_VSA10>
14.38

>  <VSA_EState1>
0

>  <VSA_EState2>
34.98

>  <VSA_EState3>
4.3

>  <VSA_EState4>
-1.44

>  <VSA_EState5>
-1.08

>  <VSA_EState6>
-0.76

>  <VSA_EState7>
2.1

>  <VSA_EState8>
9.39

>  <VSA_EState9>
0

>  <apol>
36.65

>  <bpol>
21.8

>  <nRing>
1

>  <nHRing>
1

>  <naRing>
0

>  <naHRing>
0

>  <nARing 2>
1

>  <nAHRing 2>
1

>  <nFRing>
0

>  <nFHRing>
0

>  <nFaRing>
0

>  <nFaHRing>
0

>  <nFARing 2>
0

>  <nFAHRing 2>
0

>  <nRot>
3

>  <SLogP>
1.35

>  <SMR>
63

>  <TopoPSA(NO)>
75.27

>  <TopoPSA>
75.27

>  <JGI1>
0.41

>  <JGI2>
0.1

>  <JGI3>
0.09

>  <JGI4>
0.07

>  <JGI5>
0.02

>  <Diameter>
7

>  <Radius>
4

>  <TMWC10>
106.29

>  <TSRW10>
50.12

>  <MW>
238.13

>  <AMW>
6.8

>  <WPath>
468

>  <WPol>
27

>  <Zagreb1>
86

>  <Zagreb2>
99

>  <mZagreb2>
3.71

>  <yes>


>  <nAR-cont>
0.816016

>  <nHA-cont>
0.976740822

>  <MWHBN>
0.324013383

>  <MWHBN-cont>
0.763571387

>  <TPSA-cont>
0.47456866

>  <pka_cont>
0.97

>  <yes.1>


>  <BBB_SCORE>
4.372251223

>  <MMFF94 Energy>
-102.58

$$$$
Compound 807
Actelion Java MolfileCreator 2.0

  0  0  0  0  0  0              0 V3000
M  V30 BEGIN CTAB
M  V30 COUNTS 32 32 0 0 0
M  V30 BEGIN ATOM
M  V30 1 O -3.7634 -1.0181 0.8614 0
M  V30 2 C -2.653 -0.6367 0.5071 0
M  V30 3 N -1.9401 0.2581 1.2378 0
M  V30 4 N -2.0664 -1.1099 -0.6224 0
M  V30 5 C -0.689 0.7263 0.9549 0
M  V30 6 C -0.8451 -0.754 -1.117 0
M  V30 7 O -0.1154 1.4609 1.7587 0
M  V30 8 C -0.0879 0.3316 -0.3806 0
M  V30 9 O -0.4238 -1.2824 -2.1453 0
M  V30 10 C -0.1085 1.6108 -1.2703 0
M  V30 11 C 1.3986 -0.0967 -0.1973 0
M  V30 12 C -1.48 2.1493 -1.5996 0
M  V30 13 C 1.6741 -1.4882 0.4245 0
M  V30 14 C -2.003 3.2488 -1.0428 0
M  V30 15 C 3.1815 -1.7691 0.3805 0
M  V30 16 C 1.1795 -1.634 1.8621 0
M  V30 17 H -2.3591 0.5734 2.1013 0
M  V30 18 H -2.5841 -1.8044 -1.1425 0
M  V30 19 H 0.4837 2.4009 -0.7875 0
M  V30 20 H 0.392 1.4086 -2.227 0
M  V30 21 H 1.9288 0.6624 0.3944 0
M  V30 22 H 1.8797 -0.0866 -1.186 0
M  V30 23 H -2.0534 1.6229 -2.3616 0
M  V30 24 H 1.1864 -2.2598 -0.1823 0
M  V30 25 H -1.4656 3.823 -0.2927 0
M  V30 26 H -2.9872 3.6061 -1.3323 0
M  V30 27 H 3.5573 -1.7224 -0.647 0
M  V30 28 H 3.7389 -1.0413 0.9802 0
M  V30 29 H 3.4035 -2.7691 0.7683 0
M  V30 30 H 0.088 -1.646 1.9089 0
M  V30 31 H 1.5493 -0.8218 2.4964 0
M  V30 32 H 1.5215 -2.5798 2.297 0
M  V30 END ATOM
M  V30 BEGIN BOND
M  V30 1 2 1 2
M  V30 2 1 2 3
M  V30 3 1 2 4
M  V30 4 1 3 5
M  V30 5 1 4 6
M  V30 6 2 5 7
M  V30 7 1 5 8
M  V30 8 2 6 9
M  V30 9 1 8 10
M  V30 10 1 8 11
M  V30 11 1 10 12
M  V30 12 1 11 13
M  V30 13 2 12 14
M  V30 14 1 13 15
M  V30 15 1 13 16
M  V30 16 1 6 8
M  V30 17 1 3 17
M  V30 18 1 4 18
M  V30 19 1 10 19
M  V30 20 1 10 20
M  V30 21 1 11 21
M  V30 22 1 11 22
M  V30 23 1 12 23
M  V30 24 1 13 24
M  V30 25 1 14 25
M  V30 26 1 14 26
M  V30 27 1 15 27
M  V30 28 1 15 28
M  V30 29 1 15 29
M  V30 30 1 16 30
M  V30 31 1 16 31
M  V30 32 1 16 32
M  V30 END BOND
M  V30 END CTAB
M  END
>  <Column 1>
968

>  <level_0>
1101

>  <index>
1101

>  <Unnamed: 0>
1101

>  <NO.>
1113

>  <Name>
butalbital

>  <IUPAC_name>
5-(2-methylpropyl)-5-prop-2-enyl-1-3-diazinane-2-4-6-trione

>  <SMILES>
C=CCC1(CC(C)C)C(=O)NC(=O)NC1=O

>  <CID>
2481

>  <logBB>


>  <BBB+/BBB->
BBB+

>  <Inchi>
InChI=1S/C11H16N2O3/c1-4-5-11(6-7(2)3)8(14)12-10(16)13-9(11)15/h4-7H-1-5-6H2-2-3H3-(H2-12-13-14-15-16)

>  <threshold>
-1

>  <reference>
R1|R13|R19|R6|R14|R23|R24|R27|R27|R27|R30|R30|

>  <group>
B

>  <Class>
1

>  <ABC>
11.74

>  <ABCGG>
11.34

>  <nAcid>
0

>  <nBase>
0

>  <nAromAtom>
0

>  <nAromBond>
0

>  <nAtom>
32

>  <nHeavyAtom>
16

>  <nSpiro>
0

>  <nBridgehead>
0

>  <nHetero>
5

>  <nN>
2

>  <nO>
3

>  <nF>
0

>  <BalabanJ>
2.87

>  <BertzCT>
327.14

>  <nBonds>
32

>  <nBondsO>
16

>  <nBondsS>
28

>  <nBondsD>
4

>  <nBondsT>
0

>  <nBondsA>
0

>  <nBondsM>
4

>  <nBondsKS>
28

>  <nBondsKD>
4

>  <RNCG>
0.16

>  <RPCG>
0.19

>  <FCSP3>
0.55

>  <SZ>
20

>  <Sm>
18.67

>  <Sv>
18.99

>  <Sse>
32.42

>  <Sp>
20.15

>  <Si>
36.53

>  <MZ>
0.63

>  <Mm>
0.58

>  <Mv>
0.59

>  <Mse>
1.01

>  <Mp>
0.63

>  <Mi>
1.14

>  <NsCH3>
2

>  <NdCH2>
1

>  <NssCH2>
2

>  <NtCH>
0

>  <NdsCH>
1

>  <NaaCH>
0

>  <NsssCH>
1

>  <NddC>
0

>  <NtsC>
0

>  <NdssC>
3

>  <NaasC>
0

>  <NaaaC>
0

>  <NssssC>
1

>  <NsNH3>
0

>  <NsNH2>
0

>  <NssNH2>
0

>  <NdNH>
0

>  <NssNH>
2

>  <NaaNH>
0

>  <NtN>
0

>  <NsssNH>
0

>  <NdsN>
0

>  <NaaN>
0

>  <NsssN>
0

>  <NddsN>
0

>  <NaasN>
0

>  <NssssN>
0

>  <NsOH>
0

>  <NdO>
3

>  <NssO>
0

>  <NaaO>
0

>  <NsF>
0

>  <NsSiH3>
0

>  <NssSiH2>
0

>  <NsssSiH>
0

>  <NssssSi>
0

>  <NsPH2>
0

>  <NssPH>
0

>  <NsssP>
0

>  <NdsssP>
0

>  <NsssssP>
0

>  <NsSH>
0

>  <NdS>
0

>  <NssS>
0

>  <NaaS>
0

>  <NdssS>
0

>  <NddssS>
0

>  <NsCl>
0

>  <NsBr>
0

>  <NsI>
0

>  <fragCpx>
16.05

>  <fMF>
0.19

>  <nHBAcc>
3

>  <nHBDon>
2

>  <Kier1>
14.06

>  <Kier2>
5.56

>  <Lipinski>
1

>  <GhoseFilter>
1

>  <FilterItLogS>
-2.83

>  <VMcGowan>
175.36

>  <LabuteASA>
94.28

>  <PEOE_VSA1>
0

>  <PEOE_VSA2>
20.22

>  <PEOE_VSA3>
4.79

>  <PEOE_VSA4>
0

>  <PEOE_VSA5>
6.58

>  <PEOE_VSA6>
19.92

>  <PEOE_VSA7>
18.76

>  <PEOE_VSA8>
0

>  <PEOE_VSA9>
0

>  <PEOE_VSA10>
5.41

>  <PEOE_VSA11>
0

>  <PEOE_VSA12>
11.81

>  <PEOE_VSA13>
0

>  <SMR_VSA1>
14.38

>  <SMR_VSA2>
0

>  <SMR_VSA3>
10.63

>  <SMR_VSA4>
11.33

>  <SMR_VSA5>
26.69

>  <SMR_VSA6>
0

>  <SMR_VSA7>
12.65

>  <SMR_VSA8>
0

>  <SMR_VSA9>
0

>  <SlogP_VSA1>
10.63

>  <SlogP_VSA2>
17.85

>  <SlogP_VSA3>
9.59

>  <SlogP_VSA4>
11.33

>  <SlogP_VSA5>
26.69

>  <SlogP_VSA6>
12.65

>  <SlogP_VSA7>
0

>  <SlogP_VSA8>
0

>  <SlogP_VSA9>
0

>  <SlogP_VSA10>
4.79

>  <SlogP_VSA11>
0

>  <EState_VSA1>
23.26

>  <EState_VSA2>
12.34

>  <EState_VSA3>
6.42

>  <EState_VSA4>
0

>  <EState_VSA5>
6.08

>  <EState_VSA6>
0

>  <EState_VSA7>
13.85

>  <EState_VSA8>
17.21

>  <EState_VSA9>
0

>  <EState_VSA10>
14.38

>  <VSA_EState1>
0

>  <VSA_EState2>
34.62

>  <VSA_EState3>
4.27

>  <VSA_EState4>
-1.19

>  <VSA_EState5>
-0.89

>  <VSA_EState6>
-0.75

>  <VSA_EState7>
2.15

>  <VSA_EState8>
7.39

>  <VSA_EState9>
0

>  <apol>
33.64

>  <bpol>
19.8

>  <nRing>
1

>  <nHRing>
1

>  <naRing>
0

>  <naHRing>
0

>  <nARing 2>
1

>  <nAHRing 2>
1

>  <nFRing>
0

>  <nFHRing>
0

>  <nFaRing>
0

>  <nFaHRing>
0

>  <nFARing 2>
0

>  <nFAHRing 2>
0

>  <nRot>
4

>  <SLogP>
0.96

>  <SMR>
58.38

>  <TopoPSA(NO)>
75.27

>  <TopoPSA>
75.27

>  <JGI1>
0.34

>  <JGI2>
0.12

>  <JGI3>
0.07

>  <JGI4>
0.06

>  <JGI5>
0.02

>  <Diameter>
7

>  <Radius>
4

>  <TMWC10>
103.25

>  <TSRW10>
48.57

>  <MW>
224.12

>  <AMW>
7

>  <WPath>
402

>  <WPol>
26

>  <Zagreb1>
78

>  <Zagreb2>
91

>  <mZagreb2>
3.67

>  <yes>


>  <nAR-cont>
0.816016

>  <nHA-cont>
0.954961865

>  <MWHBN>
0.333987104

>  <MWHBN-cont>
0.728760017

>  <TPSA-cont>
0.47456866

>  <pka_cont>
0.97

>  <yes.1>


>  <BBB_SCORE>
4.298255211

>  <MMFF94 Energy>
-115.08

$$$$
Compound 808
Actelion Java MolfileCreator 2.0

  0  0  0  0  0  0              0 V3000
M  V30 BEGIN CTAB
M  V30 COUNTS 30 30 0 0 0
M  V30 BEGIN ATOM
M  V30 1 S 2.7612 -2.9192 0.6306 0
M  V30 2 C 1.619 -1.726 0.5003 0
M  V30 3 N 0.3769 -1.638 1.062 0
M  V30 4 N 1.8387 -0.5984 -0.26 0
M  V30 5 C -0.2395 -0.472 0.6702 0
M  V30 6 C -0.2727 -2.6032 1.9309 0
M  V30 7 C 0.7125 0.3074 -0.2454 0 CFG=2
M  V30 8 O -1.3624 -0.1021 0.9872 0
M  V30 9 C 0.0358 -2.3774 3.3887 0
M  V30 10 C 0.157 0.5138 -1.6527 0
M  V30 11 C 0.7915 -1.4216 3.9486 0
M  V30 12 C -0.958 1.5719 -1.7676 0
M  V30 13 C -0.4924 2.9629 -1.3359 0
M  V30 14 C -1.4703 1.6251 -3.21 0
M  V30 15 H 2.7153 -0.4376 -0.7422 0
M  V30 16 H 0.0422 -3.6138 1.6528 0
M  V30 17 H -1.3573 -2.537 1.79 0
M  V30 18 H 1.0377 1.2286 0.2434 0
M  V30 19 H -0.4316 -3.1 4.0565 0
M  V30 20 H 0.9822 0.7938 -2.3217 0
M  V30 21 H -0.2265 -0.4433 -2.0322 0
M  V30 22 H 1.2962 -0.6568 3.369 0
M  V30 23 H 0.9226 -1.3854 5.0264 0
M  V30 24 H -1.8016 1.2804 -1.1319 0
M  V30 25 H -0.255 2.9908 -0.2685 0
M  V30 26 H 0.397 3.2749 -1.8933 0
M  V30 27 H -1.2776 3.7067 -1.5101 0
M  V30 28 H -1.846 0.6462 -3.5259 0
M  V30 29 H -0.677 1.9247 -3.9033 0
M  V30 30 H -2.2921 2.3428 -3.3051 0
M  V30 END ATOM
M  V30 BEGIN BOND
M  V30 1 2 1 2
M  V30 2 1 2 3
M  V30 3 1 2 4
M  V30 4 1 3 5
M  V30 5 1 3 6
M  V30 6 1 4 7
M  V30 7 2 5 8
M  V30 8 1 6 9
M  V30 9 1 7 10
M  V30 10 2 9 11
M  V30 11 1 10 12
M  V30 12 1 12 13
M  V30 13 1 12 14
M  V30 14 1 5 7
M  V30 15 1 4 15
M  V30 16 1 6 16
M  V30 17 1 6 17
M  V30 18 1 7 18
M  V30 19 1 9 19
M  V30 20 1 10 20
M  V30 21 1 10 21
M  V30 22 1 11 22
M  V30 23 1 11 23
M  V30 24 1 12 24
M  V30 25 1 13 25
M  V30 26 1 13 26
M  V30 27 1 13 27
M  V30 28 1 14 28
M  V30 29 1 14 29
M  V30 30 1 14 30
M  V30 END BOND
M  V30 BEGIN COLLECTION
M  V30 MDLV30/STERAC1 ATOMS=(1 7)
M  V30 END COLLECTION
M  V30 END CTAB
M  END
>  <Column 1>
970

>  <level_0>
1103

>  <index>
1103

>  <Unnamed: 0>
1103

>  <NO.>
1115

>  <Name>
albutoin

>  <IUPAC_name>
5-(2-methylpropyl)-3-prop-2-enyl-2-sulfanylideneimidazolidin-4-one

>  <SMILES>
C=CCN1C(=O)C(CC(C)C)NC1=S

>  <CID>
3032361

>  <logBB>


>  <BBB+/BBB->
BBB+

>  <Inchi>
InChI=1S/C10H16N2OS/c1-4-5-12-9(13)8(6-7(2)3)11-10(12)14/h4-7-8H-1-5-6H2-2-3H3-(H-11-14)

>  <threshold>
-1

>  <reference>
R1|R19|R6|R27|R27|R30|

>  <group>
B

>  <Class>
1

>  <ABC>
10.22

>  <ABCGG>
10.07

>  <nAcid>
0

>  <nBase>
0

>  <nAromAtom>
0

>  <nAromBond>
0

>  <nAtom>
30

>  <nHeavyAtom>
14

>  <nSpiro>
0

>  <nBridgehead>
0

>  <nHetero>
4

>  <nN>
2

>  <nO>
1

>  <nF>
0

>  <BalabanJ>
2.5

>  <BertzCT>
262.85

>  <nBonds>
30

>  <nBondsO>
14

>  <nBondsS>
27

>  <nBondsD>
3

>  <nBondsT>
0

>  <nBondsA>
0

>  <nBondsM>
3

>  <nBondsKS>
27

>  <nBondsKD>
3

>  <RNCG>
0.27

>  <RPCG>
0.19

>  <FCSP3>
0.6

>  <SZ>
19

>  <Sm>
17.68

>  <Sv>
17.75

>  <Sse>
29.84

>  <Sp>
19.92

>  <Si>
34.03

>  <MZ>
0.63

>  <Mm>
0.59

>  <Mv>
0.59

>  <Mse>
0.99

>  <Mp>
0.66

>  <Mi>
1.13

>  <NsCH3>
2

>  <NdCH2>
1

>  <NssCH2>
2

>  <NtCH>
0

>  <NdsCH>
1

>  <NaaCH>
0

>  <NsssCH>
2

>  <NddC>
0

>  <NtsC>
0

>  <NdssC>
2

>  <NaasC>
0

>  <NaaaC>
0

>  <NssssC>
0

>  <NsNH3>
0

>  <NsNH2>
0

>  <NssNH2>
0

>  <NdNH>
0

>  <NssNH>
1

>  <NaaNH>
0

>  <NtN>
0

>  <NsssNH>
0

>  <NdsN>
0

>  <NaaN>
0

>  <NsssN>
1

>  <NddsN>
0

>  <NaasN>
0

>  <NssssN>
0

>  <NsOH>
0

>  <NdO>
1

>  <NssO>
0

>  <NaaO>
0

>  <NsF>
0

>  <NsSiH3>
0

>  <NssSiH2>
0

>  <NsssSiH>
0

>  <NssssSi>
0

>  <NsPH2>
0

>  <NssPH>
0

>  <NsssP>
0

>  <NdsssP>
0

>  <NsssssP>
0

>  <NsSH>
0

>  <NdS>
1

>  <NssS>
0

>  <NaaS>
0

>  <NdssS>
0

>  <NddssS>
0

>  <NsCl>
0

>  <NsBr>
0

>  <NsI>
0

>  <fragCpx>
14.04

>  <fMF>
0.17

>  <nHBAcc>
2

>  <nHBDon>
1

>  <Kier1>
12.07

>  <Kier2>
5.19

>  <Lipinski>
1

>  <GhoseFilter>
1

>  <FilterItLogS>
-1.93

>  <VMcGowan>
170.18

>  <LabuteASA>
90.16

>  <PEOE_VSA1>
5.32

>  <PEOE_VSA2>
9.69

>  <PEOE_VSA3>
0

>  <PEOE_VSA4>
0

>  <PEOE_VSA5>
6.58

>  <PEOE_VSA6>
19.92

>  <PEOE_VSA7>
24.56

>  <PEOE_VSA8>
6.54

>  <PEOE_VSA9>
0

>  <PEOE_VSA10>
6.04

>  <PEOE_VSA11>
5.11

>  <PEOE_VSA12>
0

>  <PEOE_VSA13>
5.91

>  <SMR_VSA1>
4.79

>  <SMR_VSA2>
0

>  <SMR_VSA3>
10.22

>  <SMR_VSA4>
5.92

>  <SMR_VSA5>
26.31

>  <SMR_VSA6>
6.54

>  <SMR_VSA7>
12.65

>  <SMR_VSA8>
0

>  <SMR_VSA9>
0

>  <SlogP_VSA1>
5.32

>  <SlogP_VSA2>
28.51

>  <SlogP_VSA3>
4.79

>  <SlogP_VSA4>
5.92

>  <SlogP_VSA5>
20.27

>  <SlogP_VSA6>
12.65

>  <SlogP_VSA7>
0

>  <SlogP_VSA8>
0

>  <SlogP_VSA9>
0

>  <SlogP_VSA10>
0

>  <SlogP_VSA11>
0

>  <EState_VSA1>
0

>  <EState_VSA2>
11.95

>  <EState_VSA3>
17.58

>  <EState_VSA4>
6.42

>  <EState_VSA5>
0

>  <EState_VSA6>
10.98

>  <EState_VSA7>
0

>  <EState_VSA8>
25.74

>  <EState_VSA9>
12.22

>  <EState_VSA10>
4.79

>  <VSA_EState1>
0

>  <VSA_EState2>
13.33

>  <VSA_EState3>
3.56

>  <VSA_EState4>
0

>  <VSA_EState5>
0.56

>  <VSA_EState6>
-0.14

>  <VSA_EState7>
2.51

>  <VSA_EState8>
8.28

>  <VSA_EState9>
0

>  <apol>
33.27

>  <bpol>
20.43

>  <nRing>
1

>  <nHRing>
1

>  <naRing>
0

>  <naHRing>
0

>  <nARing 2>
1

>  <nAHRing 2>
1

>  <nFRing>
0

>  <nFHRing>
0

>  <nFaRing>
0

>  <nFaHRing>
0

>  <nFARing 2>
0

>  <nFAHRing 2>
0

>  <nRot>
4

>  <SLogP>
1.3

>  <SMR>
60.89

>  <TopoPSA(NO)>
32.34

>  <TopoPSA>
64.43

>  <JGI1>
0.25

>  <JGI2>
0.09

>  <JGI3>
0.1

>  <JGI4>
0.05

>  <JGI5>
0.04

>  <Diameter>
8

>  <Radius>
4

>  <TMWC10>
96.63

>  <TSRW10>
59.34

>  <MW>
212.1

>  <AMW>
7.07

>  <WPath>
308

>  <WPol>
18

>  <Zagreb1>
66

>  <Zagreb2>
75

>  <mZagreb2>
3.25

>  <yes>


>  <nAR-cont>
0.816016

>  <nHA-cont>
0.887625254

>  <MWHBN>
0.205992269

>  <MWHBN-cont>
0.999937379

>  <TPSA-cont>
0.550238591

>  <pka_cont>
0.97

>  <yes.1>


>  <BBB_SCORE>
4.789024506

>  <MMFF94 Energy>
-24.867

$$$$
Compound 809
Actelion Java MolfileCreator 2.0

  0  0  0  0  0  0              0 V3000
M  V30 BEGIN CTAB
M  V30 COUNTS 20 20 0 0 0
M  V30 BEGIN ATOM
M  V30 1 O 0.5485 2.6667 -0.3918 0
M  V30 2 C 0.0591 1.7202 0.2039 0
M  V30 3 O -1.162 1.7768 0.8099 0
M  V30 4 N 0.611 0.5009 0.3718 0
M  V30 5 C -1.4383 0.5075 1.4107 0 CFG=2
M  V30 6 C -0.2043 -0.2945 1.1048 0
M  V30 7 C 1.8984 0.1075 -0.1424 0
M  V30 8 C -2.6773 -0.0997 0.7861 0
M  V30 9 O 0.0023 -1.4438 1.4627 0
M  V30 10 C 1.7221 -0.3987 -1.545 0
M  V30 11 C 1.8147 -1.6862 -1.9035 0
M  V30 12 H -1.5433 0.6407 2.4915 0
M  V30 13 H 2.3285 -0.6639 0.5057 0
M  V30 14 H 2.5728 0.9704 -0.1512 0
M  V30 15 H -3.5423 0.5545 0.9367 0
M  V30 16 H -2.5555 -0.222 -0.2961 0
M  V30 17 H -2.8974 -1.0815 1.2164 0
M  V30 18 H 1.5255 0.35 -2.3105 0
M  V30 19 H 2.0096 -2.4695 -1.1761 0
M  V30 20 H 1.6856 -1.9861 -2.9392 0
M  V30 END ATOM
M  V30 BEGIN BOND
M  V30 1 2 1 2
M  V30 2 1 2 3
M  V30 3 1 2 4
M  V30 4 1 3 5
M  V30 5 1 4 6
M  V30 6 1 4 7
M  V30 7 1 5 8
M  V30 8 2 6 9
M  V30 9 1 7 10
M  V30 10 2 10 11
M  V30 11 1 5 6
M  V30 12 1 5 12
M  V30 13 1 7 13
M  V30 14 1 7 14
M  V30 15 1 8 15
M  V30 16 1 8 16
M  V30 17 1 8 17
M  V30 18 1 10 18
M  V30 19 1 11 19
M  V30 20 1 11 20
M  V30 END BOND
M  V30 BEGIN COLLECTION
M  V30 MDLV30/STERAC1 ATOMS=(1 5)
M  V30 END COLLECTION
M  V30 END CTAB
M  END
>  <Column 1>
971

>  <level_0>
1104

>  <index>
1104

>  <Unnamed: 0>
1104

>  <NO.>
1116

>  <Name>
allomethadione

>  <IUPAC_name>
5-methyl-3-prop-2-enyl-1-3-oxazolidine-2-4-dione

>  <SMILES>
C=CCN1C(=O)OC(C)C1=O

>  <CID>
10683

>  <logBB>


>  <BBB+/BBB->
BBB+

>  <Inchi>
InChI=1S/C7H9NO3/c1-3-4-8-6(9)5(2)11-7(8)10/h3-5H-1-4H2-2H3

>  <threshold>
-1

>  <reference>
R1|R19|R6|R27|R27|R30|

>  <group>
B

>  <Class>
1

>  <ABC>
7.99

>  <ABCGG>
8.21

>  <nAcid>
0

>  <nBase>
0

>  <nAromAtom>
0

>  <nAromBond>
0

>  <nAtom>
20

>  <nHeavyAtom>
11

>  <nSpiro>
0

>  <nBridgehead>
0

>  <nHetero>
4

>  <nN>
1

>  <nO>
3

>  <nF>
0

>  <BalabanJ>
2.49

>  <BertzCT>
211.73

>  <nBonds>
20

>  <nBondsO>
11

>  <nBondsS>
17

>  <nBondsD>
3

>  <nBondsT>
0

>  <nBondsA>
0

>  <nBondsM>
3

>  <nBondsKS>
17

>  <nBondsKD>
3

>  <RNCG>
0.32

>  <RPCG>
0.31

>  <FCSP3>
0.43

>  <SZ>
13.67

>  <Sm>
12.92

>  <Sv>
12.34

>  <Sse>
20.65

>  <Sp>
12.69

>  <Si>
22.79

>  <MZ>
0.68

>  <Mm>
0.65

>  <Mv>
0.62

>  <Mse>
1.03

>  <Mp>
0.63

>  <Mi>
1.14

>  <NsCH3>
1

>  <NdCH2>
1

>  <NssCH2>
1

>  <NtCH>
0

>  <NdsCH>
1

>  <NaaCH>
0

>  <NsssCH>
1

>  <NddC>
0

>  <NtsC>
0

>  <NdssC>
2

>  <NaasC>
0

>  <NaaaC>
0

>  <NssssC>
0

>  <NsNH3>
0

>  <NsNH2>
0

>  <NssNH2>
0

>  <NdNH>
0

>  <NssNH>
0

>  <NaaNH>
0

>  <NtN>
0

>  <NsssNH>
0

>  <NdsN>
0

>  <NaaN>
0

>  <NsssN>
1

>  <NddsN>
0

>  <NaasN>
0

>  <NssssN>
0

>  <NsOH>
0

>  <NdO>
2

>  <NssO>
1

>  <NaaO>
0

>  <NsF>
0

>  <NsSiH3>
0

>  <NssSiH2>
0

>  <NsssSiH>
0

>  <NssssSi>
0

>  <NsPH2>
0

>  <NssPH>
0

>  <NsssP>
0

>  <NdsssP>
0

>  <NsssssP>
0

>  <NsSH>
0

>  <NdS>
0

>  <NssS>
0

>  <NaaS>
0

>  <NdssS>
0

>  <NddssS>
0

>  <NsCl>
0

>  <NsBr>
0

>  <NsI>
0

>  <fragCpx>
11.04

>  <fMF>
0.25

>  <nHBAcc>
3

>  <nHBDon>
0

>  <Kier1>
9.09

>  <Kier2>
3.6

>  <Lipinski>
1

>  <GhoseFilter>
0

>  <FilterItLogS>
-0.56

>  <VMcGowan>
113.32

>  <LabuteASA>
64.43

>  <PEOE_VSA1>
4.74

>  <PEOE_VSA2>
4.79

>  <PEOE_VSA3>
9.69

>  <PEOE_VSA4>
0

>  <PEOE_VSA5>
6.58

>  <PEOE_VSA6>
6.08

>  <PEOE_VSA7>
6.92

>  <PEOE_VSA8>
6.54

>  <PEOE_VSA9>
0

>  <PEOE_VSA10>
0

>  <PEOE_VSA11>
6.1

>  <PEOE_VSA12>
0

>  <PEOE_VSA13>
5.91

>  <SMR_VSA1>
14.33

>  <SMR_VSA2>
0

>  <SMR_VSA3>
4.9

>  <SMR_VSA4>
0

>  <SMR_VSA5>
13.03

>  <SMR_VSA6>
6.54

>  <SMR_VSA7>
12.65

>  <SMR_VSA8>
0

>  <SMR_VSA9>
0

>  <SlogP_VSA1>
0

>  <SlogP_VSA2>
29.55

>  <SlogP_VSA3>
9.53

>  <SlogP_VSA4>
0

>  <SlogP_VSA5>
6.92

>  <SlogP_VSA6>
12.65

>  <SlogP_VSA7>
0

>  <SlogP_VSA8>
0

>  <SlogP_VSA9>
0

>  <SlogP_VSA10>
4.79

>  <SlogP_VSA11>
0

>  <EState_VSA1>
12.2

>  <EState_VSA2>
12.45

>  <EState_VSA3>
0

>  <EState_VSA4>
4.9

>  <EState_VSA5>
6.08

>  <EState_VSA6>
6.92

>  <EState_VSA7>
0

>  <EState_VSA8>
11.32

>  <EState_VSA9>
0

>  <EState_VSA10>
9.59

>  <VSA_EState1>
4.63

>  <VSA_EState2>
22.88

>  <VSA_EState3>
0

>  <VSA_EState4>
0

>  <VSA_EState5>
-0.3

>  <VSA_EState6>
0

>  <VSA_EState7>
0.27

>  <VSA_EState8>
5.19

>  <VSA_EState9>
0

>  <apol>
21.2

>  <bpol>
14.21

>  <nRing>
1

>  <nHRing>
1

>  <naRing>
0

>  <naHRing>
0

>  <nARing 2>
1

>  <nAHRing 2>
1

>  <nFRing>
0

>  <nFHRing>
0

>  <nFaRing>
0

>  <nFaHRing>
0

>  <nFARing 2>
0

>  <nFAHRing 2>
0

>  <nRot>
2

>  <SLogP>
0.54

>  <SMR>
37.85

>  <TopoPSA(NO)>
46.61

>  <TopoPSA>
46.61

>  <JGI1>
0.23

>  <JGI2>
0.12

>  <JGI3>
0.11

>  <JGI4>
0.04

>  <JGI5>
0.03

>  <Diameter>
6

>  <Radius>
3

>  <TMWC10>
88.47

>  <TSRW10>
55.22

>  <MW>
155.06

>  <AMW>
7.75

>  <WPath>
150

>  <WPol>
14

>  <Zagreb1>
52

>  <Zagreb2>
60

>  <mZagreb2>
2.58

>  <yes>


>  <nAR-cont>
0.816016

>  <nHA-cont>
0.720786536

>  <MWHBN>
0.240919174

>  <MWHBN-cont>
0.973710552

>  <TPSA-cont>
0.674633257

>  <pka_cont>
0.97

>  <yes.1>


>  <BBB_SCORE>
4.831634878

>  <MMFF94 Energy>
-53.765

$$$$
Compound 810
Actelion Java MolfileCreator 2.0

  0  0  0  0  0  0              0 V3000
M  V30 BEGIN CTAB
M  V30 COUNTS 67 72 0 0 0
M  V30 BEGIN ATOM
M  V30 1 O 1.2102 -2.9873 1.291 0
M  V30 2 C 0.8206 -2.5348 2.5263 0
M  V30 3 C 0.5849 -2.0682 0.3275 0
M  V30 4 C 1.3074 -2.9594 3.7411 0
M  V30 5 C -0.0447 -1.4702 2.4716 0
M  V30 6 C 1.6019 -1.153 -0.4733 0
M  V30 7 C -0.4208 -1.1704 1.0697 0
M  V30 8 O 2.1636 -4.0126 3.8307 0
M  V30 9 C 0.9479 -2.258 4.8938 0
M  V30 10 C -0.3114 -0.6577 3.5619 0
M  V30 11 O 2.67 -1.882 -1.0659 0
M  V30 12 C 2.2113 -0.1524 0.4914 0
M  V30 13 C 0.7439 -0.2882 -1.5082 0
M  V30 14 C -0.1515 0.3341 0.838 0
M  V30 15 C -1.8824 -1.5718 0.7981 0
M  V30 16 C 0.1615 -1.0892 4.8033 0
M  V30 17 C -0.9098 0.7116 3.3094 0
M  V30 18 C 2.3212 -3.0758 -1.7505 0
M  V30 19 C 1.3306 0.6424 1.1254 0
M  V30 20 C 1.4845 0.5919 -2.595 0 CFG=2
M  V30 21 C -0.2858 0.6052 -0.6844 0
M  V30 22 C -1.1609 1.0738 1.7812 0
M  V30 23 C -2.8936 -0.643 1.4803 0
M  V30 24 O 2.0426 1.7644 -1.9922 0
M  V30 25 C 0.4282 1.0787 -3.6367 0
M  V30 26 C 2.6285 -0.1237 -3.3216 0
M  V30 27 N -2.5426 0.7727 1.3056 0
M  V30 28 C 0.9528 2.0364 -4.7163 0
M  V30 29 C -3.5777 1.6392 1.8825 0
M  V30 30 C -0.1822 2.5666 -5.5816 0
M  V30 31 C -3.4259 3.0663 1.4427 0
M  V30 32 C -3.338 4.1142 2.2729 0
M  V30 33 H 0.0641 -2.719 -0.3865 0
M  V30 34 H 2.3366 -4.2874 2.9104 0
M  V30 35 H 1.3344 -2.5772 5.8579 0
M  V30 36 H 3.2831 -0.0823 0.6295 0
M  V30 37 H 0.1529 -1.0187 -2.0802 0
M  V30 38 H -2.0728 -2.6023 1.1257 0
M  V30 39 H -2.0719 -1.5608 -0.2827 0
M  V30 40 H -0.0214 -0.5008 5.6991 0
M  V30 41 H -0.1941 1.4501 3.6957 0
M  V30 42 H -1.8185 0.8249 3.9082 0
M  V30 43 H 3.1888 -3.3952 -2.3345 0
M  V30 44 H 2.0865 -3.8741 -1.042 0
M  V30 45 H 1.4845 -2.9191 -2.4362 0
M  V30 46 H 1.6335 1.4193 1.8179 0
M  V30 47 H -0.1245 1.6759 -0.8614 0
M  V30 48 H -1.2955 0.3985 -1.0562 0
M  V30 49 H -0.9814 2.1501 1.6661 0
M  V30 50 H -3.8749 -0.839 1.0298 0
M  V30 51 H -2.9893 -0.9028 2.5415 0
M  V30 52 H 2.7461 1.4801 -1.3834 0
M  V30 53 H -0.0281 0.2081 -4.1251 0
M  V30 54 H -0.3789 1.6064 -3.115 0
M  V30 55 H 3.4578 -0.351 -2.6464 0
M  V30 56 H 3.0864 0.5188 -4.0807 0
M  V30 57 H 2.2877 -1.0392 -3.8126 0
M  V30 58 H 1.4724 2.8838 -4.2562 0
M  V30 59 H 1.6668 1.5245 -5.3687 0
M  V30 60 H -3.6188 1.5604 2.9744 0
M  V30 61 H -4.5607 1.3151 1.516 0
M  V30 62 H 0.2106 3.2369 -6.3524 0
M  V30 63 H -0.7106 1.7477 -6.08 0
M  V30 64 H -0.9051 3.128 -4.981 0
M  V30 65 H -3.3937 3.2381 0.3689 0
M  V30 66 H -3.3677 3.9941 3.3511 0
M  V30 67 H -3.2309 5.1215 1.882 0
M  V30 END ATOM
M  V30 BEGIN BOND
M  V30 1 1 1 2
M  V30 2 1 1 3
M  V30 3 2 2 4
M  V30 4 1 2 5
M  V30 5 1 3 6
M  V30 6 1 3 7
M  V30 7 1 4 8
M  V30 8 1 4 9
M  V30 9 2 5 10
M  V30 10 1 6 11
M  V30 11 1 6 12
M  V30 12 1 6 13
M  V30 13 1 7 14
M  V30 14 1 7 15
M  V30 15 2 9 16
M  V30 16 1 10 17
M  V30 17 1 11 18
M  V30 18 2 12 19
M  V30 19 1 13 20
M  V30 20 1 13 21
M  V30 21 1 14 22
M  V30 22 1 15 23
M  V30 23 1 20 24
M  V30 24 1 20 25
M  V30 25 1 20 26
M  V30 26 1 22 27
M  V30 27 1 25 28
M  V30 28 1 27 29
M  V30 29 1 28 30
M  V30 30 1 29 31
M  V30 31 2 31 32
M  V30 32 1 5 7
M  V30 33 1 10 16
M  V30 34 1 14 19
M  V30 35 1 14 21
M  V30 36 1 17 22
M  V30 37 1 23 27
M  V30 38 1 3 33
M  V30 39 1 8 34
M  V30 40 1 9 35
M  V30 41 1 12 36
M  V30 42 1 13 37
M  V30 43 1 15 38
M  V30 44 1 15 39
M  V30 45 1 16 40
M  V30 46 1 17 41
M  V30 47 1 17 42
M  V30 48 1 18 43
M  V30 49 1 18 44
M  V30 50 1 18 45
M  V30 51 1 19 46
M  V30 52 1 21 47
M  V30 53 1 21 48
M  V30 54 1 22 49
M  V30 55 1 23 50
M  V30 56 1 23 51
M  V30 57 1 24 52
M  V30 58 1 25 53
M  V30 59 1 25 54
M  V30 60 1 26 55
M  V30 61 1 26 56
M  V30 62 1 26 57
M  V30 63 1 28 58
M  V30 64 1 28 59
M  V30 65 1 29 60
M  V30 66 1 29 61
M  V30 67 1 30 62
M  V30 68 1 30 63
M  V30 69 1 30 64
M  V30 70 1 31 65
M  V30 71 1 32 66
M  V30 72 1 32 67
M  V30 END BOND
M  V30 BEGIN COLLECTION
M  V30 MDLV30/STEABS ATOMS=(1 20)
M  V30 END COLLECTION
M  V30 END CTAB
M  END
>  <Column 1>
972

>  <level_0>
1105

>  <index>
1105

>  <Unnamed: 0>
1105

>  <NO.>
1117

>  <Name>
dtxsid90937058

>  <IUPAC_name>
19-[(2r)-2-hydroxypentan-2-yl]-15-methoxy-5-prop-2-enyl-13-oxa-5-azahexacyclo[13.2.2.12-8.01-6.02-14.012-20]icosa-8(20)-9-11-16-tetraen-11-ol

>  <SMILES>
C=CCN1CCC23c4c5ccc(O)c4OC2C2(OC)C=CC3(CC2[C@](C)(O)CCC)C1C5

>  <CID>
72090

>  <logBB>


>  <BBB+/BBB->
BBB+

>  <Inchi>
InChI=1S/C27H35NO4/c1-5-9-24(3-30)19-16-25-10-11-27(19-31-4)23-26(25)12-14-28(13-6-2)20(25)15-17-7-8-18(29)22(32-23)21(17)26/h6-8-10-11-19-20-23-29-30H-2-5-9-12-16H2-1-3-4H3/t19?-20?-23?-24--25?-26?-27?/m1/s1

>  <threshold>
-1

>  <reference>
R1|R27|R30|

>  <group>
B

>  <Class>
1

>  <ABC>
25.96

>  <ABCGG>
19.81

>  <nAcid>
0

>  <nBase>
1

>  <nAromAtom>
6

>  <nAromBond>
6

>  <nAtom>
67

>  <nHeavyAtom>
32

>  <nSpiro>
2

>  <nBridgehead>
4

>  <nHetero>
5

>  <nN>
1

>  <nO>
4

>  <nF>
0

>  <BalabanJ>
1.54

>  <BertzCT>
1017.15

>  <nBonds>
72

>  <nBondsO>
37

>  <nBondsS>
64

>  <nBondsD>
2

>  <nBondsT>
0

>  <nBondsA>
6

>  <nBondsM>
8

>  <nBondsKS>
67

>  <nBondsKD>
5

>  <RNCG>
0.19

>  <RPCG>
0.11

>  <FCSP3>
0.63

>  <SZ>
39.33

>  <Sm>
36.43

>  <Sv>
40.1

>  <Sse>
66.52

>  <Sp>
43.55

>  <Si>
75.4

>  <MZ>
0.59

>  <Mm>
0.54

>  <Mv>
0.6

>  <Mse>
0.99

>  <Mp>
0.65

>  <Mi>
1.13

>  <NsCH3>
3

>  <NdCH2>
1

>  <NssCH2>
7

>  <NtCH>
0

>  <NdsCH>
3

>  <NaaCH>
2

>  <NsssCH>
3

>  <NddC>
0

>  <NtsC>
0

>  <NdssC>
0

>  <NaasC>
4

>  <NaaaC>
0

>  <NssssC>
4

>  <NsNH3>
0

>  <NsNH2>
0

>  <NssNH2>
0

>  <NdNH>
0

>  <NssNH>
0

>  <NaaNH>
0

>  <NtN>
0

>  <NsssNH>
0

>  <NdsN>
0

>  <NaaN>
0

>  <NsssN>
1

>  <NddsN>
0

>  <NaasN>
0

>  <NssssN>
0

>  <NsOH>
2

>  <NdO>
0

>  <NssO>
2

>  <NaaO>
0

>  <NsF>
0

>  <NsSiH3>
0

>  <NssSiH2>
0

>  <NsssSiH>
0

>  <NssssSi>
0

>  <NsPH2>
0

>  <NssPH>
0

>  <NsssP>
0

>  <NdsssP>
0

>  <NsssssP>
0

>  <NsSH>
0

>  <NdS>
0

>  <NssS>
0

>  <NaaS>
0

>  <NdssS>
0

>  <NddssS>
0

>  <NsCl>
0

>  <NsBr>
0

>  <NsI>
0

>  <fragCpx>
377.05

>  <fMF>
0.3

>  <nHBAcc>
5

>  <nHBDon>
2

>  <Kier1>
22.46

>  <Kier2>
7.26

>  <Lipinski>
1

>  <GhoseFilter>
1

>  <FilterItLogS>
-4.64

>  <VMcGowan>
338.09

>  <LabuteASA>
190.26

>  <PEOE_VSA1>
19.69

>  <PEOE_VSA2>
4.9

>  <PEOE_VSA3>
0

>  <PEOE_VSA4>
0

>  <PEOE_VSA5>
6.58

>  <PEOE_VSA6>
37.64

>  <PEOE_VSA7>
50.78

>  <PEOE_VSA8>
36.59

>  <PEOE_VSA9>
11.02

>  <PEOE_VSA10>
11.71

>  <PEOE_VSA11>
11.5

>  <PEOE_VSA12>
0

>  <PEOE_VSA13>
0

>  <SMR_VSA1>
19.69

>  <SMR_VSA2>
0

>  <SMR_VSA3>
4.9

>  <SMR_VSA4>
11.33

>  <SMR_VSA5>
74.71

>  <SMR_VSA6>
20.2

>  <SMR_VSA7>
48.07

>  <SMR_VSA8>
0

>  <SMR_VSA9>
11.5

>  <SlogP_VSA1>
4.74

>  <SlogP_VSA2>
58.66

>  <SlogP_VSA3>
16.57

>  <SlogP_VSA4>
11.33

>  <SlogP_VSA5>
50.66

>  <SlogP_VSA6>
36.94

>  <SlogP_VSA7>
0

>  <SlogP_VSA8>
0

>  <SlogP_VSA9>
0

>  <SlogP_VSA10>
0

>  <SlogP_VSA11>
11.5

>  <EState_VSA1>
11.2

>  <EState_VSA2>
28.6

>  <EState_VSA3>
11.79

>  <EState_VSA4>
45.19

>  <EState_VSA5>
11.13

>  <EState_VSA6>
13.18

>  <EState_VSA7>
13

>  <EState_VSA8>
36.62

>  <EState_VSA9>
9.47

>  <EState_VSA10>
10.21

>  <VSA_EState1>
13.14

>  <VSA_EState2>
2.57

>  <VSA_EState3>
22.6

>  <VSA_EState4>
0.47

>  <VSA_EState5>
0.78

>  <VSA_EState6>
4.18

>  <VSA_EState7>
10.73

>  <VSA_EState8>
9.95

>  <VSA_EState9>
1.76

>  <apol>
72.74

>  <bpol>
40.29

>  <nRing>
7

>  <nHRing>
2

>  <naRing>
1

>  <naHRing>
0

>  <nARing 2>
6

>  <nAHRing 2>
2

>  <nFRing>
1

>  <nFHRing>
1

>  <nFaRing>
0

>  <nFaHRing>
0

>  <nFARing 2>
1

>  <nFAHRing 2>
1

>  <nRot>
6

>  <SLogP>
3.72

>  <SMR>
123.03

>  <TopoPSA(NO)>
62.16

>  <TopoPSA>
62.16

>  <JGI1>
0.26

>  <JGI2>
0.12

>  <JGI3>
0.06

>  <JGI4>
0.05

>  <JGI5>
0.04

>  <Diameter>
11

>  <Radius>
6

>  <TMWC10>
153.06

>  <TSRW10>
84.87

>  <MW>
437.26

>  <AMW>
6.53

>  <WPath>
2242

>  <WPol>
80

>  <Zagreb1>
198

>  <Zagreb2>
263

>  <mZagreb2>
6.84

>  <yes>


>  <nAR-cont>
0

>  <nHA-cont>
0.658856097

>  <MWHBN>
0.334755842

>  <MWHBN-cont>
0.726020246

>  <TPSA-cont>
0.566084601

>  <pka_cont>
0.97

>  <yes.1>


>  <BBB_SCORE>
3.365055667

>  <MMFF94 Energy>
156.19

$$$$
Compound 811
Actelion Java MolfileCreator 2.0

  0  0  0  0  0  0              0 V3000
M  V30 BEGIN CTAB
M  V30 COUNTS 54 58 0 0 0
M  V30 BEGIN ATOM
M  V30 1 O -3.4813 -0.5661 2.6709 0
M  V30 2 C -3.0058 0.2609 3.4376 0
M  V30 3 O -2.1832 1.3334 3.1223 0
M  V30 4 C -3.2669 0.2798 4.915 0
M  V30 5 C -1.7878 1.3368 1.7912 0
M  V30 6 C -0.7466 0.5465 1.356 0
M  V30 7 C -2.4131 2.2004 0.8847 0
M  V30 8 O -0.0661 -0.4013 2.0698 0
M  V30 9 C -0.3159 0.637 0.0528 0
M  V30 10 C -2.0181 2.2139 -0.4676 0
M  V30 11 C 0.6476 -1.1857 1.0425 0
M  V30 12 C -0.961 1.4081 -0.9007 0
M  V30 13 C 0.8537 -0.2633 -0.1798 0
M  V30 14 C -0.0841 -2.5282 0.7241 0
M  V30 15 C -0.5676 1.2478 -2.3461 0
M  V30 16 C 0.7291 -0.8816 -1.5781 0
M  V30 17 C 2.1634 0.543 -0.0932 0
M  V30 18 O -1.0374 -2.8847 1.7376 0
M  V30 19 C -0.8016 -2.5782 -0.6037 0
M  V30 20 C 0.6707 0.3128 -2.5868 0
M  V30 21 C -0.4271 -1.8484 -1.6659 0
M  V30 22 C 2.3035 1.5686 -1.2283 0
M  V30 23 C -0.5025 -3.3174 2.9081 0
M  V30 24 N 1.9961 0.9941 -2.5472 0
M  V30 25 O 0.691 -3.464 3.1334 0
M  V30 26 C -1.5894 -3.5881 3.902 0
M  V30 27 C 2.154 1.9739 -3.63 0
M  V30 28 C 3.6001 2.1749 -3.988 0
M  V30 29 C 4.1326 1.896 -5.1859 0
M  V30 30 H -3.8779 -0.5861 5.1855 0
M  V30 31 H -2.3211 0.2178 5.4593 0
M  V30 32 H -3.8089 1.1897 5.1843 0
M  V30 33 H -3.2309 2.835 1.2141 0
M  V30 34 H -2.5566 2.8412 -1.1741 0
M  V30 35 H 1.6162 -1.4407 1.4915 0
M  V30 36 H 0.6701 -3.3259 0.6573 0
M  V30 37 H -0.4128 2.2335 -2.7974 0
M  V30 38 H -1.4248 0.7991 -2.8658 0
M  V30 39 H 1.6288 -1.474 -1.8035 0
M  V30 40 H 3.0111 -0.1538 -0.1422 0
M  V30 41 H 2.2469 1.0672 0.8677 0
M  V30 42 H -1.619 -3.2882 -0.7008 0
M  V30 43 H 0.564 -0.1162 -3.5929 0
M  V30 44 H -0.9387 -1.9725 -2.6166 0
M  V30 45 H 1.6699 2.4402 -1.0222 0
M  V30 46 H 3.3371 1.9329 -1.2058 0
M  V30 47 H -2.0412 -2.6467 4.2215 0
M  V30 48 H -2.3428 -4.2467 3.462 0
M  V30 49 H -1.1642 -4.0919 4.7748 0
M  V30 50 H 1.7121 2.9421 -3.3644 0
M  V30 51 H 1.6237 1.6296 -4.5276 0
M  V30 52 H 4.2467 2.5909 -3.2201 0
M  V30 53 H 3.5378 1.4794 -5.9924 0
M  V30 54 H 5.1868 2.0699 -5.3775 0
M  V30 END ATOM
M  V30 BEGIN BOND
M  V30 1 2 1 2
M  V30 2 1 2 3
M  V30 3 1 2 4
M  V30 4 1 3 5
M  V30 5 2 5 6
M  V30 6 1 5 7
M  V30 7 1 6 8
M  V30 8 1 6 9
M  V30 9 2 7 10
M  V30 10 1 8 11
M  V30 11 2 9 12
M  V30 12 1 9 13
M  V30 13 1 11 14
M  V30 14 1 12 15
M  V30 15 1 13 16
M  V30 16 1 13 17
M  V30 17 1 14 18
M  V30 18 1 14 19
M  V30 19 1 15 20
M  V30 20 1 16 21
M  V30 21 1 17 22
M  V30 22 1 18 23
M  V30 23 1 20 24
M  V30 24 2 23 25
M  V30 25 1 23 26
M  V30 26 1 24 27
M  V30 27 1 27 28
M  V30 28 2 28 29
M  V30 29 1 10 12
M  V30 30 1 11 13
M  V30 31 1 16 20
M  V30 32 2 19 21
M  V30 33 1 22 24
M  V30 34 1 4 30
M  V30 35 1 4 31
M  V30 36 1 4 32
M  V30 37 1 7 33
M  V30 38 1 10 34
M  V30 39 1 11 35
M  V30 40 1 14 36
M  V30 41 1 15 37
M  V30 42 1 15 38
M  V30 43 1 16 39
M  V30 44 1 17 40
M  V30 45 1 17 41
M  V30 46 1 19 42
M  V30 47 1 20 43
M  V30 48 1 21 44
M  V30 49 1 22 45
M  V30 50 1 22 46
M  V30 51 1 26 47
M  V30 52 1 26 48
M  V30 53 1 26 49
M  V30 54 1 27 50
M  V30 55 1 27 51
M  V30 56 1 28 52
M  V30 57 1 29 53
M  V30 58 1 29 54
M  V30 END BOND
M  V30 END CTAB
M  END
>  <Column 1>
973

>  <level_0>
1106

>  <index>
1106

>  <Unnamed: 0>
1106

>  <NO.>
1118

>  <Name>
diacetylnalorphine

>  <IUPAC_name>
(9-acetyloxy-3-prop-2-enyl-2-4-4a-7-7a-13-hexahydro-1h-4-12-methanobenzofuro[3-2-e]isoquinolin-7-yl) acetate

>  <SMILES>
C=CCN1CCC23c4c5ccc(OC(C)=O)c4OC2C(OC(C)=O)C=CC3C1C5

>  <CID>
631837

>  <logBB>


>  <BBB+/BBB->
BBB+

>  <Inchi>
InChI=1S/C23H25NO5/c1-4-10-24-11-9-23-16-6-8-19(28-14(3)26)22(23)29-21-18(27-13(2)25)7-5-15(20(21)23)12-17(16)24/h4-8-16-17-19-22H-1-9-12H2-2-3H3

>  <threshold>
-1

>  <reference>
R1|R19|R6|R27|R27|R30|

>  <group>
B

>  <Class>
1

>  <ABC>
23.34

>  <ABCGG>
17.35

>  <nAcid>
0

>  <nBase>
1

>  <nAromAtom>
6

>  <nAromBond>
6

>  <nAtom>
54

>  <nHeavyAtom>
29

>  <nSpiro>
1

>  <nBridgehead>
2

>  <nHetero>
6

>  <nN>
1

>  <nO>
5

>  <nF>
0

>  <BalabanJ>
1.52

>  <BertzCT>
937.44

>  <nBonds>
58

>  <nBondsO>
33

>  <nBondsS>
48

>  <nBondsD>
4

>  <nBondsT>
0

>  <nBondsA>
6

>  <nBondsM>
10

>  <nBondsKS>
51

>  <nBondsKD>
7

>  <RNCG>
0.18

>  <RPCG>
0.12

>  <FCSP3>
0.48

>  <SZ>
35

>  <Sm>
32.92

>  <Sv>
34.1

>  <Sse>
54.41

>  <Sp>
36.04

>  <Si>
60.53

>  <MZ>
0.65

>  <Mm>
0.61

>  <Mv>
0.63

>  <Mse>
1.01

>  <Mp>
0.67

>  <Mi>
1.12

>  <NsCH3>
2

>  <NdCH2>
1

>  <NssCH2>
4

>  <NtCH>
0

>  <NdsCH>
3

>  <NaaCH>
2

>  <NsssCH>
4

>  <NddC>
0

>  <NtsC>
0

>  <NdssC>
2

>  <NaasC>
4

>  <NaaaC>
0

>  <NssssC>
1

>  <NsNH3>
0

>  <NsNH2>
0

>  <NssNH2>
0

>  <NdNH>
0

>  <NssNH>
0

>  <NaaNH>
0

>  <NtN>
0

>  <NsssNH>
0

>  <NdsN>
0

>  <NaaN>
0

>  <NsssN>
1

>  <NddsN>
0

>  <NaasN>
0

>  <NssssN>
0

>  <NsOH>
0

>  <NdO>
2

>  <NssO>
3

>  <NaaO>
0

>  <NsF>
0

>  <NsSiH3>
0

>  <NssSiH2>
0

>  <NsssSiH>
0

>  <NssssSi>
0

>  <NsPH2>
0

>  <NssPH>
0

>  <NsssP>
0

>  <NdsssP>
0

>  <NsssssP>
0

>  <NsSH>
0

>  <NdS>
0

>  <NssS>
0

>  <NaaS>
0

>  <NdssS>
0

>  <NddssS>
0

>  <NsCl>
0

>  <NsBr>
0

>  <NsI>
0

>  <fragCpx>
277.06

>  <fMF>
0.33

>  <nHBAcc>
6

>  <nHBDon>
0

>  <Kier1>
20.88

>  <Kier2>
7.85

>  <Lipinski>
1

>  <GhoseFilter>
1

>  <FilterItLogS>
-3.46

>  <VMcGowan>
289.86

>  <LabuteASA>
169.66

>  <PEOE_VSA1>
14.21

>  <PEOE_VSA2>
14.49

>  <PEOE_VSA3>
0

>  <PEOE_VSA4>
0

>  <PEOE_VSA5>
6.58

>  <PEOE_VSA6>
18.22

>  <PEOE_VSA7>
37.09

>  <PEOE_VSA8>
43.33

>  <PEOE_VSA9>
0

>  <PEOE_VSA10>
6.1

>  <PEOE_VSA11>
17.6

>  <PEOE_VSA12>
0

>  <PEOE_VSA13>
0

>  <SMR_VSA1>
23.8

>  <SMR_VSA2>
0

>  <SMR_VSA3>
4.9

>  <SMR_VSA4>
5.92

>  <SMR_VSA5>
50.35

>  <SMR_VSA6>
13.09

>  <SMR_VSA7>
48.07

>  <SMR_VSA8>
0

>  <SMR_VSA9>
11.5

>  <SlogP_VSA1>
9.47

>  <SlogP_VSA2>
48.18

>  <SlogP_VSA3>
26.16

>  <SlogP_VSA4>
5.92

>  <SlogP_VSA5>
31.4

>  <SlogP_VSA6>
36.94

>  <SlogP_VSA7>
0

>  <SlogP_VSA8>
0

>  <SlogP_VSA9>
0

>  <SlogP_VSA10>
0

>  <SlogP_VSA11>
11.5

>  <EState_VSA1>
6.1

>  <EState_VSA2>
29.38

>  <EState_VSA3>
17.54

>  <EState_VSA4>
31.49

>  <EState_VSA5>
19.41

>  <EState_VSA6>
0

>  <EState_VSA7>
18.22

>  <EState_VSA8>
23.62

>  <EState_VSA9>
14.21

>  <EState_VSA10>
9.59

>  <VSA_EState1>
17.59

>  <VSA_EState2>
25.89

>  <VSA_EState3>
0

>  <VSA_EState4>
2.09

>  <VSA_EState5>
0.63

>  <VSA_EState6>
4.22

>  <VSA_EState7>
7.16

>  <VSA_EState8>
8.51

>  <VSA_EState9>
0

>  <apol>
60.19

>  <bpol>
33.73

>  <nRing>
5

>  <nHRing>
2

>  <naRing>
1

>  <naHRing>
0

>  <nARing 2>
4

>  <nAHRing 2>
2

>  <nFRing>
1

>  <nFHRing>
1

>  <nFaRing>
0

>  <nFaHRing>
0

>  <nFARing 2>
1

>  <nFAHRing 2>
1

>  <nRot>
4

>  <SLogP>
2.54

>  <SMR>
105.91

>  <TopoPSA(NO)>
65.07

>  <TopoPSA>
65.07

>  <JGI1>
0.21

>  <JGI2>
0.08

>  <JGI3>
0.05

>  <JGI4>
0.05

>  <JGI5>
0.03

>  <Diameter>
12

>  <Radius>
6

>  <TMWC10>
142.9

>  <TSRW10>
80.46

>  <MW>
395.17

>  <AMW>
7.32

>  <WPath>
1924

>  <WPol>
60

>  <Zagreb1>
168

>  <Zagreb2>
212

>  <mZagreb2>
6.21

>  <yes>


>  <nAR-cont>
0.199399

>  <nHA-cont>
0.785905698

>  <MWHBN>
0.30182782

>  <MWHBN-cont>
0.835243517

>  <TPSA-cont>
0.545770994

>  <pka_cont>
0.97

>  <yes.1>


>  <BBB_SCORE>
3.814711961

>  <MMFF94 Energy>
95.271

$$$$
Compound 812
Actelion Java MolfileCreator 2.0

  0  0  0  0  0  0              0 V3000
M  V30 BEGIN CTAB
M  V30 COUNTS 52 53 0 0 0
M  V30 BEGIN ATOM
M  V30 1 S -1.9896 0.7159 3.0254 0
M  V30 2 O -3.2095 1.2356 3.6076 0
M  V30 3 O -0.8009 1.5337 2.9211 0
M  V30 4 N -1.5435 -0.6495 3.894 0
M  V30 5 C -2.3162 0.0447 1.4129 0
M  V30 6 C -2.5902 -1.5076 4.4318 0
M  V30 7 C -3.6072 0.0098 0.8638 0
M  V30 8 C -1.2029 -0.42 0.6888 0
M  V30 9 N -4.7515 0.4002 1.5428 0
M  V30 10 C -3.7566 -0.5559 -0.4108 0
M  V30 11 C -1.3719 -0.9587 -0.5908 0
M  V30 12 C -2.6576 -1.0452 -1.1284 0
M  V30 13 C -0.1922 -1.4704 -1.333 0
M  V30 14 O -2.8672 -1.5051 -2.4017 0
M  V30 15 O -0.2163 -2.5634 -1.8847 0
M  V30 16 N 0.9085 -0.6501 -1.3178 0
M  V30 17 C -3.3422 -2.8523 -2.3751 0
M  V30 18 C 2.1643 -1.0182 -1.9441 0
M  V30 19 C 3.1089 0.1939 -2.0528 0 CFG=2
M  V30 20 N 3.0806 1.0515 -0.8448 0
M  V30 21 C 2.6892 1.1467 -3.1827 0
M  V30 22 C 3.5499 2.3651 -1.2986 0
M  V30 23 C 3.8983 0.5161 0.2461 0
M  V30 24 C 2.7829 2.5476 -2.5933 0
M  V30 25 C 3.5862 1.0803 1.6075 0
M  V30 26 C 2.5375 1.8389 1.9569 0
M  V30 27 H -0.6852 -0.5237 4.4281 0
M  V30 28 H -3.0047 -1.0719 5.3448 0
M  V30 29 H -2.1574 -2.4798 4.6841 0
M  V30 30 H -3.3887 -1.6748 3.7047 0
M  V30 31 H -0.2116 -0.3791 1.1374 0
M  V30 32 H -4.6582 0.9028 2.4289 0
M  V30 33 H -5.6351 0.4926 1.0592 0
M  V30 34 H -4.7426 -0.6094 -0.8667 0
M  V30 35 H 0.9101 0.2375 -0.8245 0
M  V30 36 H -2.7482 -3.4879 -1.709 0
M  V30 37 H -3.2643 -3.2551 -3.3891 0
M  V30 38 H -4.3961 -2.8795 -2.0787 0
M  V30 39 H 1.9639 -1.4564 -2.928 0
M  V30 40 H 2.6114 -1.7982 -1.318 0
M  V30 41 H 4.1282 -0.1571 -2.2643 0
M  V30 42 H 3.3742 1.0447 -4.0321 0
M  V30 43 H 1.6746 0.9616 -3.5525 0
M  V30 44 H 4.6287 2.3669 -1.5 0
M  V30 45 H 3.3239 3.1668 -0.5894 0
M  V30 46 H 4.9666 0.6556 0.0369 0
M  V30 47 H 3.7441 -0.5663 0.3335 0
M  V30 48 H 3.2756 3.2491 -3.2731 0
M  V30 49 H 1.7749 2.9287 -2.3875 0
M  V30 50 H 4.2976 0.8115 2.386 0
M  V30 51 H 1.7737 2.1302 1.2428 0
M  V30 52 H 2.4054 2.178 2.9796 0
M  V30 END ATOM
M  V30 BEGIN BOND
M  V30 1 2 1 2
M  V30 2 2 1 3
M  V30 3 1 1 4
M  V30 4 1 1 5
M  V30 5 1 4 6
M  V30 6 2 5 7
M  V30 7 1 5 8
M  V30 8 1 7 9
M  V30 9 1 7 10
M  V30 10 2 8 11
M  V30 11 2 10 12
M  V30 12 1 11 13
M  V30 13 1 12 14
M  V30 14 2 13 15
M  V30 15 1 13 16
M  V30 16 1 14 17
M  V30 17 1 16 18
M  V30 18 1 18 19
M  V30 19 1 19 20
M  V30 20 1 19 21
M  V30 21 1 20 22
M  V30 22 1 20 23
M  V30 23 1 21 24
M  V30 24 1 23 25
M  V30 25 2 25 26
M  V30 26 1 11 12
M  V30 27 1 22 24
M  V30 28 1 4 27
M  V30 29 1 6 28
M  V30 30 1 6 29
M  V30 31 1 6 30
M  V30 32 1 8 31
M  V30 33 1 9 32
M  V30 34 1 9 33
M  V30 35 1 10 34
M  V30 36 1 16 35
M  V30 37 1 17 36
M  V30 38 1 17 37
M  V30 39 1 17 38
M  V30 40 1 18 39
M  V30 41 1 18 40
M  V30 42 1 19 41
M  V30 43 1 21 42
M  V30 44 1 21 43
M  V30 45 1 22 44
M  V30 46 1 22 45
M  V30 47 1 23 46
M  V30 48 1 23 47
M  V30 49 1 24 48
M  V30 50 1 24 49
M  V30 51 1 25 50
M  V30 52 1 26 51
M  V30 53 1 26 52
M  V30 END BOND
M  V30 BEGIN COLLECTION
M  V30 MDLV30/STERAC1 ATOMS=(1 19)
M  V30 END COLLECTION
M  V30 END CTAB
M  END
>  <Column 1>
974

>  <level_0>
1107

>  <index>
1107

>  <Unnamed: 0>
1107

>  <NO.>
1119

>  <Name>
alpiropride

>  <IUPAC_name>
4-amino-2-methoxy-5-(methylsulfamoyl)-n-[(1-prop-2-enylpyrrolidin-2-yl)methyl]benzamide

>  <SMILES>
C=CCN1CCCC1CNC(=O)c1cc(S(=O)(=O)NC)c(N)cc1OC

>  <CID>
71253

>  <logBB>


>  <BBB+/BBB->
BBB+

>  <Inchi>
InChI=1S/C17H26N4O4S/c1-4-7-21-8-5-6-12(21)11-20-17(22)13-9-16(26(23-24)19-2)14(18)10-15(13)25-3/h4-9-10-12-19H-1-5-8-11-18H2-2-3H3-(H-20-22)

>  <threshold>
-1

>  <reference>
R1|R19|R6|R27|R27|R30|

>  <group>
B

>  <Class>
1

>  <ABC>
19.41

>  <ABCGG>
17.4

>  <nAcid>
0

>  <nBase>
1

>  <nAromAtom>
6

>  <nAromBond>
6

>  <nAtom>
52

>  <nHeavyAtom>
26

>  <nSpiro>
0

>  <nBridgehead>
0

>  <nHetero>
9

>  <nN>
4

>  <nO>
4

>  <nF>
0

>  <BalabanJ>
1.97

>  <BertzCT>
779.21

>  <nBonds>
53

>  <nBondsO>
27

>  <nBondsS>
43

>  <nBondsD>
4

>  <nBondsT>
0

>  <nBondsA>
6

>  <nBondsM>
10

>  <nBondsKS>
46

>  <nBondsKD>
7

>  <RNCG>
0.18

>  <RPCG>
0.09

>  <FCSP3>
0.47

>  <SZ>
34

>  <Sm>
31.84

>  <Sv>
31.12

>  <Sse>
52.59

>  <Sp>
33.67

>  <Si>
59.32

>  <MZ>
0.65

>  <Mm>
0.61

>  <Mv>
0.6

>  <Mse>
1.01

>  <Mp>
0.65

>  <Mi>
1.14

>  <NsCH3>
2

>  <NdCH2>
1

>  <NssCH2>
5

>  <NtCH>
0

>  <NdsCH>
1

>  <NaaCH>
2

>  <NsssCH>
1

>  <NddC>
0

>  <NtsC>
0

>  <NdssC>
1

>  <NaasC>
4

>  <NaaaC>
0

>  <NssssC>
0

>  <NsNH3>
0

>  <NsNH2>
1

>  <NssNH2>
0

>  <NdNH>
0

>  <NssNH>
2

>  <NaaNH>
0

>  <NtN>
0

>  <NsssNH>
0

>  <NdsN>
0

>  <NaaN>
0

>  <NsssN>
1

>  <NddsN>
0

>  <NaasN>
0

>  <NssssN>
0

>  <NsOH>
0

>  <NdO>
3

>  <NssO>
1

>  <NaaO>
0

>  <NsF>
0

>  <NsSiH3>
0

>  <NssSiH2>
0

>  <NsssSiH>
0

>  <NssssSi>
0

>  <NsPH2>
0

>  <NssPH>
0

>  <NsssP>
0

>  <NdsssP>
0

>  <NsssssP>
0

>  <NsSH>
0

>  <NdS>
0

>  <NssS>
0

>  <NaaS>
0

>  <NdssS>
0

>  <NddssS>
1

>  <NsCl>
0

>  <NsBr>
0

>  <NsI>
0

>  <fragCpx>
79.09

>  <fMF>
0.27

>  <nHBAcc>
6

>  <nHBDon>
3

>  <Kier1>
22.29

>  <Kier2>
9.97

>  <Lipinski>
1

>  <GhoseFilter>
1

>  <FilterItLogS>
-3.64

>  <VMcGowan>
286.92

>  <LabuteASA>
153.99

>  <PEOE_VSA1>
15.79

>  <PEOE_VSA2>
9.69

>  <PEOE_VSA3>
13.14

>  <PEOE_VSA4>
0

>  <PEOE_VSA5>
6.58

>  <PEOE_VSA6>
6.08

>  <PEOE_VSA7>
32.5

>  <PEOE_VSA8>
25.2

>  <PEOE_VSA9>
18.36

>  <PEOE_VSA10>
10.65

>  <PEOE_VSA11>
0

>  <PEOE_VSA12>
10.02

>  <PEOE_VSA13>
5.91

>  <SMR_VSA1>
17.95

>  <SMR_VSA2>
0

>  <SMR_VSA3>
14.94

>  <SMR_VSA4>
0

>  <SMR_VSA5>
23.78

>  <SMR_VSA6>
39.53

>  <SMR_VSA7>
30.35

>  <SMR_VSA8>
0

>  <SMR_VSA9>
5.75

>  <SlogP_VSA1>
20.51

>  <SlogP_VSA2>
59.06

>  <SlogP_VSA3>
10.02

>  <SlogP_VSA4>
0

>  <SlogP_VSA5>
23.2

>  <SlogP_VSA6>
29.68

>  <SlogP_VSA7>
0

>  <SlogP_VSA8>
0

>  <SlogP_VSA9>
0

>  <SlogP_VSA10>
5.69

>  <SlogP_VSA11>
5.75

>  <EState_VSA1>
15.93

>  <EState_VSA2>
27.94

>  <EState_VSA3>
6.54

>  <EState_VSA4>
25.93

>  <EState_VSA5>
26.29

>  <EState_VSA6>
0

>  <EState_VSA7>
6.08

>  <EState_VSA8>
21.52

>  <EState_VSA9>
10.47

>  <EState_VSA10>
13.21

>  <VSA_EState1>
31.6

>  <VSA_EState2>
14.74

>  <VSA_EState3>
2.87

>  <VSA_EState4>
5.95

>  <VSA_EState5>
-0.18

>  <VSA_EState6>
2.82

>  <VSA_EState7>
3.91

>  <VSA_EState8>
5.97

>  <VSA_EState9>
-1.1

>  <apol>
56.23

>  <bpol>
37.62

>  <nRing>
2

>  <nHRing>
1

>  <naRing>
1

>  <naHRing>
0

>  <nARing 2>
1

>  <nAHRing 2>
1

>  <nFRing>
0

>  <nFHRing>
0

>  <nFaRing>
0

>  <nFaHRing>
0

>  <nFARing 2>
0

>  <nFAHRing 2>
0

>  <nRot>
8

>  <SLogP>
0.57

>  <SMR>
100.78

>  <TopoPSA(NO)>
113.76

>  <TopoPSA>
122.14

>  <JGI1>
0.24

>  <JGI2>
0.11

>  <JGI3>
0.06

>  <JGI4>
0.04

>  <JGI5>
0.04

>  <Diameter>
13

>  <Radius>
7

>  <TMWC10>
128.3

>  <TSRW10>
74.35

>  <MW>
382.17

>  <AMW>
7.35

>  <WPath>
1739

>  <WPol>
41

>  <Zagreb1>
130

>  <Zagreb2>
152

>  <mZagreb2>
5.99

>  <yes>


>  <nAR-cont>
0.816016

>  <nHA-cont>
0.892715677

>  <MWHBN>
0.46037763

>  <MWHBN-cont>
0

>  <TPSA-cont>
0

>  <pka_cont>
0.97

>  <yes.1>


>  <BBB_SCORE>
2.193731677

>  <MMFF94 Energy>
-10.934

$$$$
Compound 813
Actelion Java MolfileCreator 2.0

  0  0  0  0  0  0              0 V3000
M  V30 BEGIN CTAB
M  V30 COUNTS 51 52 0 0 0
M  V30 BEGIN ATOM
M  V30 1 S 4.2358 3.5956 -1.5968 0
M  V30 2 O 3.9699 5.0124 -1.6915 0
M  V30 3 O 4.8181 2.8396 -2.6785 0
M  V30 4 N 5.2587 3.4169 -0.2794 0
M  V30 5 C 2.775 2.7679 -1.0438 0
M  V30 6 C 1.6045 3.4959 -0.8149 0
M  V30 7 C 2.808 1.3826 -0.8701 0
M  V30 8 C 0.4528 2.8332 -0.3873 0
M  V30 9 C 1.6615 0.7004 -0.4385 0
M  V30 10 O -0.7493 3.4485 -0.1449 0
M  V30 11 C 0.4937 1.4383 -0.1698 0
M  V30 12 C 1.7839 -0.7818 -0.2864 0
M  V30 13 C -0.8818 4.8103 -0.533 0
M  V30 14 O -0.6531 0.7989 0.2437 0
M  V30 15 O 2.8955 -1.3025 -0.2592 0
M  V30 16 N 0.6246 -1.506 -0.2001 0
M  V30 17 C -0.8001 0.9054 1.6623 0
M  V30 18 C 0.5919 -2.952 -0.0972 0
M  V30 19 C -0.6672 -3.4453 0.641 0 CFG=2
M  V30 20 N -1.9089 -2.7237 0.2856 0
M  V30 21 C -0.5683 -3.2078 2.1518 0
M  V30 22 C -2.8496 -3.0557 1.3627 0
M  V30 23 C -2.4268 -3.099 -1.0328 0
M  V30 24 C -1.9981 -2.965 2.6182 0
M  V30 25 C -3.4615 -2.162 -1.6008 0
M  V30 26 C -3.7664 -0.9285 -1.1727 0
M  V30 27 H 5.5013 4.3318 0.1019 0
M  V30 28 H 6.0681 2.8513 -0.5391 0
M  V30 29 H 1.6139 4.5698 -0.9744 0
M  V30 30 H 3.7248 0.8316 -1.0775 0
M  V30 31 H -0.2424 5.4552 0.0783 0
M  V30 32 H -1.9199 5.1083 -0.3563 0
M  V30 33 H -0.6744 4.9422 -1.6002 0
M  V30 34 H -0.2773 -1.0349 -0.2618 0
M  V30 35 H 0.0614 0.4721 2.1822 0
M  V30 36 H -1.6894 0.3358 1.9474 0
M  V30 37 H -0.9501 1.9428 1.9777 0
M  V30 38 H 1.4993 -3.3104 0.4012 0
M  V30 39 H 0.6056 -3.3349 -1.1233 0
M  V30 40 H -0.7834 -4.5248 0.4691 0
M  V30 41 H 0.0486 -2.3355 2.3981 0
M  V30 42 H -0.1288 -4.0746 2.6573 0
M  V30 43 H -3.2395 -4.0768 1.2607 0
M  V30 44 H -3.6979 -2.3663 1.4128 0
M  V30 45 H -2.8407 -4.1155 -1.0117 0
M  V30 46 H -1.6118 -3.1172 -1.7663 0
M  V30 47 H -2.31 -3.6985 3.3687 0
M  V30 48 H -2.0766 -1.9695 3.0703 0
M  V30 49 H -3.993 -2.543 -2.4708 0
M  V30 50 H -3.2538 -0.4748 -0.3299 0
M  V30 51 H -4.5251 -0.3357 -1.6727 0
M  V30 END ATOM
M  V30 BEGIN BOND
M  V30 1 2 1 2
M  V30 2 2 1 3
M  V30 3 1 1 4
M  V30 4 1 1 5
M  V30 5 2 5 6
M  V30 6 1 5 7
M  V30 7 1 6 8
M  V30 8 2 7 9
M  V30 9 1 8 10
M  V30 10 2 8 11
M  V30 11 1 9 12
M  V30 12 1 10 13
M  V30 13 1 11 14
M  V30 14 2 12 15
M  V30 15 1 12 16
M  V30 16 1 14 17
M  V30 17 1 16 18
M  V30 18 1 18 19
M  V30 19 1 19 20
M  V30 20 1 19 21
M  V30 21 1 20 22
M  V30 22 1 20 23
M  V30 23 1 21 24
M  V30 24 1 23 25
M  V30 25 2 25 26
M  V30 26 1 9 11
M  V30 27 1 22 24
M  V30 28 1 4 27
M  V30 29 1 4 28
M  V30 30 1 6 29
M  V30 31 1 7 30
M  V30 32 1 13 31
M  V30 33 1 13 32
M  V30 34 1 13 33
M  V30 35 1 16 34
M  V30 36 1 17 35
M  V30 37 1 17 36
M  V30 38 1 17 37
M  V30 39 1 18 38
M  V30 40 1 18 39
M  V30 41 1 19 40
M  V30 42 1 21 41
M  V30 43 1 21 42
M  V30 44 1 22 43
M  V30 45 1 22 44
M  V30 46 1 23 45
M  V30 47 1 23 46
M  V30 48 1 24 47
M  V30 49 1 24 48
M  V30 50 1 25 49
M  V30 51 1 26 50
M  V30 52 1 26 51
M  V30 END BOND
M  V30 BEGIN COLLECTION
M  V30 MDLV30/STERAC1 ATOMS=(1 19)
M  V30 END COLLECTION
M  V30 END CTAB
M  END
>  <Column 1>
975

>  <level_0>
1108

>  <index>
1108

>  <Unnamed: 0>
1108

>  <NO.>
1120

>  <Name>
veralipride

>  <IUPAC_name>
2-3-dimethoxy-n-[(1-prop-2-enylpyrrolidin-2-yl)methyl]-5-sulfamoylbenzamide

>  <SMILES>
C=CCN1CCCC1CNC(=O)c1cc(S(N)(=O)=O)cc(OC)c1OC

>  <CID>
47979

>  <logBB>


>  <BBB+/BBB->
BBB+

>  <Inchi>
InChI=1S/C17H25N3O5S/c1-4-7-20-8-5-6-12(20)11-19-17(21)14-9-13(26(18-22)23)10-15(24-2)16(14)25-3/h4-9-10-12H-1-5-8-11H2-2-3H3-(H-19-21)(H2-18-22-23)

>  <threshold>
-1

>  <reference>
R1|R19|R6|R27|R27|R30|

>  <group>
B

>  <Class>
1

>  <ABC>
19.45

>  <ABCGG>
17.46

>  <nAcid>
0

>  <nBase>
1

>  <nAromAtom>
6

>  <nAromBond>
6

>  <nAtom>
51

>  <nHeavyAtom>
26

>  <nSpiro>
0

>  <nBridgehead>
0

>  <nHetero>
9

>  <nN>
3

>  <nO>
5

>  <nF>
0

>  <BalabanJ>
2

>  <BertzCT>
778.85

>  <nBonds>
52

>  <nBondsO>
27

>  <nBondsS>
42

>  <nBondsD>
4

>  <nBondsT>
0

>  <nBondsA>
6

>  <nBondsM>
10

>  <nBondsKS>
45

>  <nBondsKD>
7

>  <RNCG>
0.17

>  <RPCG>
0.09

>  <FCSP3>
0.47

>  <SZ>
34

>  <Sm>
31.93

>  <Sv>
30.81

>  <Sse>
51.82

>  <Sp>
33.1

>  <Si>
58.03

>  <MZ>
0.67

>  <Mm>
0.63

>  <Mv>
0.6

>  <Mse>
1.02

>  <Mp>
0.65

>  <Mi>
1.14

>  <NsCH3>
2

>  <NdCH2>
1

>  <NssCH2>
5

>  <NtCH>
0

>  <NdsCH>
1

>  <NaaCH>
2

>  <NsssCH>
1

>  <NddC>
0

>  <NtsC>
0

>  <NdssC>
1

>  <NaasC>
4

>  <NaaaC>
0

>  <NssssC>
0

>  <NsNH3>
0

>  <NsNH2>
1

>  <NssNH2>
0

>  <NdNH>
0

>  <NssNH>
1

>  <NaaNH>
0

>  <NtN>
0

>  <NsssNH>
0

>  <NdsN>
0

>  <NaaN>
0

>  <NsssN>
1

>  <NddsN>
0

>  <NaasN>
0

>  <NssssN>
0

>  <NsOH>
0

>  <NdO>
3

>  <NssO>
2

>  <NaaO>
0

>  <NsF>
0

>  <NsSiH3>
0

>  <NssSiH2>
0

>  <NsssSiH>
0

>  <NssssSi>
0

>  <NsPH2>
0

>  <NssPH>
0

>  <NsssP>
0

>  <NdsssP>
0

>  <NsssssP>
0

>  <NsSH>
0

>  <NdS>
0

>  <NssS>
0

>  <NaaS>
0

>  <NdssS>
0

>  <NddssS>
1

>  <NsCl>
0

>  <NsBr>
0

>  <NsI>
0

>  <fragCpx>
79.09

>  <fMF>
0.27

>  <nHBAcc>
6

>  <nHBDon>
2

>  <Kier1>
22.29

>  <Kier2>
9.97

>  <Lipinski>
1

>  <GhoseFilter>
1

>  <FilterItLogS>
-3.32

>  <VMcGowan>
282.81

>  <LabuteASA>
153.55

>  <PEOE_VSA1>
14.79

>  <PEOE_VSA2>
9.69

>  <PEOE_VSA3>
13.56

>  <PEOE_VSA4>
0

>  <PEOE_VSA5>
6.58

>  <PEOE_VSA6>
6.08

>  <PEOE_VSA7>
25.45

>  <PEOE_VSA8>
25.2

>  <PEOE_VSA9>
24.68

>  <PEOE_VSA10>
0

>  <PEOE_VSA11>
11.5

>  <PEOE_VSA12>
10.02

>  <PEOE_VSA13>
5.91

>  <SMR_VSA1>
22.69

>  <SMR_VSA2>
0

>  <SMR_VSA3>
10.22

>  <SMR_VSA4>
5.14

>  <SMR_VSA5>
23.78

>  <SMR_VSA6>
33.85

>  <SMR_VSA7>
30.35

>  <SMR_VSA8>
0

>  <SMR_VSA9>
11.5

>  <SlogP_VSA1>
19.93

>  <SlogP_VSA2>
59.12

>  <SlogP_VSA3>
10.02

>  <SlogP_VSA4>
0

>  <SlogP_VSA5>
23.2

>  <SlogP_VSA6>
29.68

>  <SlogP_VSA7>
0

>  <SlogP_VSA8>
0

>  <SlogP_VSA9>
0

>  <SlogP_VSA10>
0

>  <SlogP_VSA11>
11.5

>  <EState_VSA1>
15.93

>  <EState_VSA2>
28

>  <EState_VSA3>
6.54

>  <EState_VSA4>
25.93

>  <EState_VSA5>
26.35

>  <EState_VSA6>
0

>  <EState_VSA7>
6.08

>  <EState_VSA8>
16.8

>  <EState_VSA9>
14.61

>  <EState_VSA10>
13.21

>  <VSA_EState1>
33.77

>  <VSA_EState2>
14.7

>  <VSA_EState3>
8.04

>  <VSA_EState4>
0.06

>  <VSA_EState5>
-0.17

>  <VSA_EState6>
2.64

>  <VSA_EState7>
3.88

>  <VSA_EState8>
5.92

>  <VSA_EState9>
-1.26

>  <apol>
55.27

>  <bpol>
37.79

>  <nRing>
2

>  <nHRing>
1

>  <naRing>
1

>  <naHRing>
0

>  <nARing 2>
1

>  <nAHRing 2>
1

>  <nFRing>
0

>  <nFHRing>
0

>  <nFaRing>
0

>  <nFaHRing>
0

>  <nFARing 2>
0

>  <nFAHRing 2>
0

>  <nRot>
8

>  <SLogP>
0.73

>  <SMR>
98.04

>  <TopoPSA(NO)>
110.96

>  <TopoPSA>
119.34

>  <JGI1>
0.24

>  <JGI2>
0.1

>  <JGI3>
0.05

>  <JGI4>
0.05

>  <JGI5>
0.04

>  <Diameter>
12

>  <Radius>
6

>  <TMWC10>
128.23

>  <TSRW10>
74.31

>  <MW>
383.15

>  <AMW>
7.51

>  <WPath>
1715

>  <WPol>
40

>  <Zagreb1>
130

>  <Zagreb2>
151

>  <mZagreb2>
5.94

>  <yes>


>  <nAR-cont>
0.816016

>  <nHA-cont>
0.892715677

>  <MWHBN>
0.408700879

>  <MWHBN-cont>
0.441901123

>  <TPSA-cont>
0.166932694

>  <pka_cont>
0.97

>  <yes.1>


>  <BBB_SCORE>
3.190448751

>  <MMFF94 Energy>
-40.159

$$$$
Compound 814
Actelion Java MolfileCreator 2.0

  0  0  0  0  0  0              0 V3000
M  V30 BEGIN CTAB
M  V30 COUNTS 46 49 0 0 0
M  V30 BEGIN ATOM
M  V30 1 O -4.6491 -2.1622 1.3609 0
M  V30 2 C -3.4603 -1.4989 1.4516 0
M  V30 3 C -2.6224 -1.3573 0.3465 0
M  V30 4 C -3.1099 -0.9731 2.684 0
M  V30 5 C -1.404 -0.6602 0.454 0
M  V30 6 C -1.8977 -0.304 2.8204 0
M  V30 7 C -1.0341 -0.1524 1.7216 0
M  V30 8 C -0.4482 -0.5116 -0.7463 0 CFG=1
M  V30 9 C 0.2761 0.5732 1.9476 0
M  V30 10 C 0.4687 0.7273 -0.5742 0 CFG=2
M  V30 11 C 0.4665 -1.7651 -0.7802 0
M  V30 12 C -1.1701 -0.3698 -2.1152 0
M  V30 13 C 1.2485 0.5793 0.7438 0 CFG=2
M  V30 14 C -0.3008 2.0587 -0.6884 0
M  V30 15 C 1.3872 -1.8618 0.4452 0
M  V30 16 C -1.9463 0.9424 -2.2483 0
M  V30 17 N 2.1257 -0.6258 0.7549 0
M  V30 18 C -1.0459 2.1516 -2.0176 0
M  V30 19 C 3.3197 -0.4977 -0.0925 0
M  V30 20 C 4.2726 0.5415 0.4253 0
M  V30 21 C 4.7406 1.5717 -0.2923 0
M  V30 22 H -4.7664 -2.4634 0.4457 0
M  V30 23 H -2.9204 -1.8011 -0.5963 0
M  V30 24 H -3.7715 -1.0909 3.5368 0
M  V30 25 H -1.6202 0.0958 3.7934 0
M  V30 26 H 0.0335 1.6142 2.2008 0
M  V30 27 H 0.7806 0.1528 2.8277 0
M  V30 28 H 1.1908 0.7411 -1.4027 0
M  V30 29 H -0.1355 -2.6805 -0.8468 0
M  V30 30 H 1.0903 -1.7421 -1.6837 0
M  V30 31 H -1.8374 -1.2145 -2.3157 0
M  V30 32 H -0.4215 -0.3986 -2.9195 0
M  V30 33 H 1.8821 1.4633 0.886 0
M  V30 34 H -1.0223 2.1825 0.1261 0
M  V30 35 H 0.4023 2.8967 -0.6111 0
M  V30 36 H 2.0815 -2.7008 0.3067 0
M  V30 37 H 0.8021 -2.1512 1.3261 0
M  V30 38 H -2.3861 1.0043 -3.2504 0
M  V30 39 H -2.7805 0.964 -1.5378 0
M  V30 40 H -1.6446 3.0692 -2.0426 0
M  V30 41 H -0.3194 2.2248 -2.8364 0
M  V30 42 H 3.065 -0.316 -1.1424 0
M  V30 43 H 3.8772 -1.4435 -0.0735 0
M  V30 44 H 4.5968 0.4228 1.4569 0
M  V30 45 H 4.4457 1.7287 -1.3248 0
M  V30 46 H 5.4307 2.2843 0.1484 0
M  V30 END ATOM
M  V30 BEGIN BOND
M  V30 1 1 1 2
M  V30 2 2 2 3
M  V30 3 1 2 4
M  V30 4 1 3 5
M  V30 5 2 4 6
M  V30 6 2 5 7
M  V30 7 1 5 8
M  V30 8 1 7 9
M  V30 9 1 8 10
M  V30 10 1 8 11
M  V30 11 1 8 12
M  V30 12 1 9 13
M  V30 13 1 10 14
M  V30 14 1 11 15
M  V30 15 1 12 16
M  V30 16 1 13 17
M  V30 17 1 14 18
M  V30 18 1 17 19
M  V30 19 1 19 20
M  V30 20 2 20 21
M  V30 21 1 6 7
M  V30 22 1 10 13
M  V30 23 1 15 17
M  V30 24 1 16 18
M  V30 25 1 1 22
M  V30 26 1 3 23
M  V30 27 1 4 24
M  V30 28 1 6 25
M  V30 29 1 9 26
M  V30 30 1 9 27
M  V30 31 1 10 28
M  V30 32 1 11 29
M  V30 33 1 11 30
M  V30 34 1 12 31
M  V30 35 1 12 32
M  V30 36 1 13 33
M  V30 37 1 14 34
M  V30 38 1 14 35
M  V30 39 1 15 36
M  V30 40 1 15 37
M  V30 41 1 16 38
M  V30 42 1 16 39
M  V30 43 1 18 40
M  V30 44 1 18 41
M  V30 45 1 19 42
M  V30 46 1 19 43
M  V30 47 1 20 44
M  V30 48 1 21 45
M  V30 49 1 21 46
M  V30 END BOND
M  V30 BEGIN COLLECTION
M  V30 MDLV30/STEABS ATOMS=(3 8 10 13)
M  V30 END COLLECTION
M  V30 END CTAB
M  END
>  <Column 1>
976

>  <level_0>
1109

>  <index>
1109

>  <Unnamed: 0>
1109

>  <NO.>
1121

>  <Name>
levallorphan

>  <IUPAC_name>
(1r-9r-10r)-17-prop-2-enyl-17-azatetracyclo[7.5.3.01-10.02-7]heptadeca-2(7)-3-5-trien-4-ol

>  <SMILES>
C=CCN1CC[C@]23CCCC[C@H]2[C@H]1Cc1ccc(O)cc13

>  <CID>
5359371

>  <logBB>


>  <BBB+/BBB->
BBB+

>  <Inchi>
InChI=1S/C19H25NO/c1-2-10-20-11-9-19-8-4-3-5-16(19)18(20)12-14-6-7-15(21)13-17(14)19/h2-6-7-13-16-18-21H-1-3-5-8-12H2/t16--18+-19+/m0/s1

>  <threshold>
-1

>  <reference>
R1|R6|R27|R27|R30|R30|

>  <group>
B

>  <Class>
1

>  <ABC>
16.84

>  <ABCGG>
12.88

>  <nAcid>
0

>  <nBase>
1

>  <nAromAtom>
6

>  <nAromBond>
6

>  <nAtom>
46

>  <nHeavyAtom>
21

>  <nSpiro>
0

>  <nBridgehead>
2

>  <nHetero>
2

>  <nN>
1

>  <nO>
1

>  <nF>
0

>  <BalabanJ>
1.66

>  <BertzCT>
566.68

>  <nBonds>
49

>  <nBondsO>
24

>  <nBondsS>
42

>  <nBondsD>
1

>  <nBondsT>
0

>  <nBondsA>
6

>  <nBondsM>
7

>  <nBondsKS>
45

>  <nBondsKD>
4

>  <RNCG>
0.36

>  <RPCG>
0.21

>  <FCSP3>
0.58

>  <SZ>
25.67

>  <Sm>
23.6

>  <Sv>
27.25

>  <Sse>
45.09

>  <Sp>
30.12

>  <Si>
51.69

>  <MZ>
0.56

>  <Mm>
0.51

>  <Mv>
0.59

>  <Mse>
0.98

>  <Mp>
0.65

>  <Mi>
1.12

>  <NsCH3>
0

>  <NdCH2>
1

>  <NssCH2>
8

>  <NtCH>
0

>  <NdsCH>
1

>  <NaaCH>
3

>  <NsssCH>
2

>  <NddC>
0

>  <NtsC>
0

>  <NdssC>
0

>  <NaasC>
3

>  <NaaaC>
0

>  <NssssC>
1

>  <NsNH3>
0

>  <NsNH2>
0

>  <NssNH2>
0

>  <NdNH>
0

>  <NssNH>
0

>  <NaaNH>
0

>  <NtN>
0

>  <NsssNH>
0

>  <NdsN>
0

>  <NaaN>
0

>  <NsssN>
1

>  <NddsN>
0

>  <NaasN>
0

>  <NssssN>
0

>  <NsOH>
1

>  <NdO>
0

>  <NssO>
0

>  <NaaO>
0

>  <NsF>
0

>  <NsSiH3>
0

>  <NssSiH2>
0

>  <NsssSiH>
0

>  <NssssSi>
0

>  <NsPH2>
0

>  <NssPH>
0

>  <NsssP>
0

>  <NdsssP>
0

>  <NsssssP>
0

>  <NsSH>
0

>  <NdS>
0

>  <NssS>
0

>  <NaaS>
0

>  <NdssS>
0

>  <NddssS>
0

>  <NsCl>
0

>  <NsBr>
0

>  <NsI>
0

>  <fragCpx>
156.02

>  <fMF>
0.37

>  <nHBAcc>
2

>  <nHBDon>
1

>  <Kier1>
14.58

>  <Kier2>
5.57

>  <Lipinski>
1

>  <GhoseFilter>
1

>  <FilterItLogS>
-3.85

>  <VMcGowan>
233.78

>  <LabuteASA>
127.02

>  <PEOE_VSA1>
5.11

>  <PEOE_VSA2>
4.9

>  <PEOE_VSA3>
0

>  <PEOE_VSA4>
0

>  <PEOE_VSA5>
6.58

>  <PEOE_VSA6>
24.98

>  <PEOE_VSA7>
61.41

>  <PEOE_VSA8>
18

>  <PEOE_VSA9>
0

>  <PEOE_VSA10>
5.75

>  <PEOE_VSA11>
0

>  <PEOE_VSA12>
0

>  <PEOE_VSA13>
0

>  <SMR_VSA1>
5.11

>  <SMR_VSA2>
0

>  <SMR_VSA3>
4.9

>  <SMR_VSA4>
5.92

>  <SMR_VSA5>
49.98

>  <SMR_VSA6>
13.09

>  <SMR_VSA7>
41.98

>  <SMR_VSA8>
0

>  <SMR_VSA9>
5.75

>  <SlogP_VSA1>
0

>  <SlogP_VSA2>
29.14

>  <SlogP_VSA3>
11.84

>  <SlogP_VSA4>
5.92

>  <SlogP_VSA5>
43.23

>  <SlogP_VSA6>
30.85

>  <SlogP_VSA7>
0

>  <SlogP_VSA8>
0

>  <SlogP_VSA9>
0

>  <SlogP_VSA10>
0

>  <SlogP_VSA11>
5.75

>  <EState_VSA1>
0

>  <EState_VSA2>
0

>  <EState_VSA3>
17.21

>  <EState_VSA4>
18.88

>  <EState_VSA5>
49.78

>  <EState_VSA6>
0

>  <EState_VSA7>
6.07

>  <EState_VSA8>
29.69

>  <EState_VSA9>
0

>  <EState_VSA10>
5.11

>  <VSA_EState1>
0

>  <VSA_EState2>
2.65

>  <VSA_EState3>
9.98

>  <VSA_EState4>
3.29

>  <VSA_EState5>
1.22

>  <VSA_EState6>
6.79

>  <VSA_EState7>
9.84

>  <VSA_EState8>
6.15

>  <VSA_EState9>
0

>  <apol>
50.3

>  <bpol>
26.79

>  <nRing>
4

>  <nHRing>
1

>  <naRing>
1

>  <naHRing>
0

>  <nARing 2>
3

>  <nAHRing 2>
1

>  <nFRing>
1

>  <nFHRing>
1

>  <nFaRing>
0

>  <nFaHRing>
0

>  <nFARing 2>
1

>  <nFAHRing 2>
1

>  <nRot>
2

>  <SLogP>
3.64

>  <SMR>
85.62

>  <TopoPSA(NO)>
23.47

>  <TopoPSA>
23.47

>  <JGI1>
0.19

>  <JGI2>
0.09

>  <JGI3>
0.04

>  <JGI4>
0.05

>  <JGI5>
0.03

>  <Diameter>
10

>  <Radius>
5

>  <TMWC10>
122.04

>  <TSRW10>
56.11

>  <MW>
283.19

>  <AMW>
6.16

>  <WPath>
794

>  <WPol>
42

>  <Zagreb1>
120

>  <Zagreb2>
150

>  <mZagreb2>
4.58

>  <yes>


>  <nAR-cont>
0.691115

>  <nHA-cont>
0.994529749

>  <MWHBN>
0.178271656

>  <MWHBN-cont>
0.985226379

>  <TPSA-cont>
0.836164826

>  <pka_cont>
0.97

>  <yes.1>


>  <BBB_SCORE>
5.32081397

>  <MMFF94 Energy>
45.114

$$$$
Compound 815
Actelion Java MolfileCreator 2.0

  0  0  0  0  0  0              0 V3000
M  V30 BEGIN CTAB
M  V30 COUNTS 44 48 0 0 0
M  V30 BEGIN ATOM
M  V30 1 O 2.4298 -1.5383 -1.3763 0
M  V30 2 C 1.0742 -1.7291 -1.4607 0
M  V30 3 C 2.5687 -0.1751 -0.8303 0 CFG=2
M  V30 4 C 0.4136 -2.6921 -2.1902 0
M  V30 5 C 0.3672 -0.771 -0.769 0
M  V30 6 C 1.2896 0.138 -0.0267 0 CFG=2
M  V30 7 C 2.8805 0.8269 -1.9818 0 CFG=1
M  V30 8 O 1.1229 -3.6362 -2.8658 0
M  V30 9 C -0.9835 -2.6463 -2.2426 0
M  V30 10 C -1.0064 -0.644 -0.855 0
M  V30 11 C 0.7377 1.5717 -0.0959 0 CFG=1
M  V30 12 C 1.388 -0.3163 1.4448 0
M  V30 13 O 3.283 0.1601 -3.1775 0
M  V30 14 C 1.786 1.7914 -2.3406 0
M  V30 15 C -1.6908 -1.6129 -1.5923 0
M  V30 16 C -1.6587 0.5759 -0.2589 0
M  V30 17 C 0.8105 2.1472 -1.49 0
M  V30 18 C -0.6962 1.5289 0.536 0 CFG=1
M  V30 19 C 0.0754 -0.1149 2.2207 0
M  V30 20 N -0.4889 1.2075 1.9648 0
M  V30 21 C -1.5196 1.6286 2.9051 0
M  V30 22 C -2.7707 0.8033 2.9592 0
M  V30 23 C -3.0897 -0.0244 3.9636 0
M  V30 24 H 3.4441 -0.2052 -0.1693 0
M  V30 25 H 3.7361 1.4399 -1.6724 0
M  V30 26 H 0.5022 -4.2249 -3.3233 0
M  V30 27 H -1.5422 -3.3811 -2.8148 0
M  V30 28 H 1.3621 2.2339 0.5236 0
M  V30 29 H 1.6857 -1.3701 1.5206 0
M  V30 30 H 2.178 0.2661 1.9382 0
M  V30 31 H 2.9935 -0.7691 -3.081 0
M  V30 32 H 1.8388 2.251 -3.3244 0
M  V30 33 H -2.7727 -1.5623 -1.6916 0
M  V30 34 H -2.5069 0.261 0.3505 0
M  V30 35 H -2.0754 1.1562 -1.0931 0
M  V30 36 H 0.0816 2.8965 -1.7868 0
M  V30 37 H -1.1164 2.5423 0.4813 0
M  V30 38 H -0.638 -0.9086 1.9708 0
M  V30 39 H 0.3036 -0.2285 3.2879 0
M  V30 40 H -1.8048 2.6678 2.6964 0
M  V30 41 H -1.069 1.671 3.906 0
M  V30 42 H -3.4844 0.9354 2.1518 0
M  V30 43 H -2.4257 -0.1765 4.8089 0
M  V30 44 H -4.0254 -0.5747 3.9548 0
M  V30 END ATOM
M  V30 BEGIN BOND
M  V30 1 1 1 2
M  V30 2 1 1 3
M  V30 3 2 2 4
M  V30 4 1 2 5
M  V30 5 1 3 6
M  V30 6 1 3 7
M  V30 7 1 4 8
M  V30 8 1 4 9
M  V30 9 2 5 10
M  V30 10 1 6 11
M  V30 11 1 6 12
M  V30 12 1 7 13
M  V30 13 1 7 14
M  V30 14 2 9 15
M  V30 15 1 10 16
M  V30 16 1 11 17
M  V30 17 1 11 18
M  V30 18 1 12 19
M  V30 19 1 18 20
M  V30 20 1 20 21
M  V30 21 1 21 22
M  V30 22 2 22 23
M  V30 23 1 5 6
M  V30 24 1 10 15
M  V30 25 2 14 17
M  V30 26 1 16 18
M  V30 27 1 19 20
M  V30 28 1 3 24
M  V30 29 1 7 25
M  V30 30 1 8 26
M  V30 31 1 9 27
M  V30 32 1 11 28
M  V30 33 1 12 29
M  V30 34 1 12 30
M  V30 35 1 13 31
M  V30 36 1 14 32
M  V30 37 1 15 33
M  V30 38 1 16 34
M  V30 39 1 16 35
M  V30 40 1 17 36
M  V30 41 1 18 37
M  V30 42 1 19 38
M  V30 43 1 19 39
M  V30 44 1 21 40
M  V30 45 1 21 41
M  V30 46 1 22 42
M  V30 47 1 23 43
M  V30 48 1 23 44
M  V30 END BOND
M  V30 BEGIN COLLECTION
M  V30 MDLV30/STEABS ATOMS=(5 3 6 7 11 18)
M  V30 END COLLECTION
M  V30 END CTAB
M  END
>  <Column 1>
977

>  <level_0>
1110

>  <index>
1110

>  <Unnamed: 0>
1110

>  <NO.>
1122

>  <Name>
nalorphine

>  <IUPAC_name>
(4r-4ar-7s-7ar-12bs)-3-prop-2-enyl-2-4-4a-7-7a-13-hexahydro-1h-4-12-methanobenzofuro[3-2-e]isoquinoline-7-9-diol

>  <SMILES>
C=CCN1CC[C@]23c4c5ccc(O)c4O[C@H]2[C@@H](O)C=C[C@H]3[C@H]1C5

>  <CID>
5284595

>  <logBB>


>  <BBB+/BBB->
BBB+

>  <Inchi>
InChI=1S/C19H21NO3/c1-2-8-20-9-7-19-12-4-6-15(22)18(19)23-17-14(21)5-3-11(16(17)19)10-13(12)20/h2-6-12-13-15-18-21-22H-1-7-10H2/t12--13+-15--18--19-/m0/s1

>  <threshold>
-1

>  <reference>
R1|R27|R30|

>  <group>
B

>  <Class>
1

>  <ABC>
18.88

>  <ABCGG>
14.34

>  <nAcid>
0

>  <nBase>
1

>  <nAromAtom>
6

>  <nAromBond>
6

>  <nAtom>
44

>  <nHeavyAtom>
23

>  <nSpiro>
1

>  <nBridgehead>
2

>  <nHetero>
4

>  <nN>
1

>  <nO>
3

>  <nF>
0

>  <BalabanJ>
1.59

>  <BertzCT>
727.57

>  <nBonds>
48

>  <nBondsO>
27

>  <nBondsS>
40

>  <nBondsD>
2

>  <nBondsT>
0

>  <nBondsA>
6

>  <nBondsM>
8

>  <nBondsKS>
43

>  <nBondsKD>
5

>  <RNCG>
0.24

>  <RPCG>
0.14

>  <FCSP3>
0.47

>  <SZ>
27.67

>  <Sm>
25.92

>  <Sv>
27.59

>  <Sse>
43.98

>  <Sp>
29.48

>  <Si>
49.28

>  <MZ>
0.63

>  <Mm>
0.59

>  <Mv>
0.63

>  <Mse>
1

>  <Mp>
0.67

>  <Mi>
1.12

>  <NsCH3>
0

>  <NdCH2>
1

>  <NssCH2>
4

>  <NtCH>
0

>  <NdsCH>
3

>  <NaaCH>
2

>  <NsssCH>
4

>  <NddC>
0

>  <NtsC>
0

>  <NdssC>
0

>  <NaasC>
4

>  <NaaaC>
0

>  <NssssC>
1

>  <NsNH3>
0

>  <NsNH2>
0

>  <NssNH2>
0

>  <NdNH>
0

>  <NssNH>
0

>  <NaaNH>
0

>  <NtN>
0

>  <NsssNH>
0

>  <NdsN>
0

>  <NaaN>
0

>  <NsssN>
1

>  <NddsN>
0

>  <NaasN>
0

>  <NssssN>
0

>  <NsOH>
2

>  <NdO>
0

>  <NssO>
1

>  <NaaO>
0

>  <NsF>
0

>  <NsSiH3>
0

>  <NssSiH2>
0

>  <NsssSiH>
0

>  <NssssSi>
0

>  <NsPH2>
0

>  <NssPH>
0

>  <NsssP>
0

>  <NdsssP>
0

>  <NsssssP>
0

>  <NsSH>
0

>  <NdS>
0

>  <NssS>
0

>  <NaaS>
0

>  <NdssS>
0

>  <NddssS>
0

>  <NsCl>
0

>  <NsBr>
0

>  <NsI>
0

>  <fragCpx>
223.04

>  <fMF>
0.41

>  <nHBAcc>
4

>  <nHBDon>
2

>  <Kier1>
15.27

>  <Kier2>
5.25

>  <Lipinski>
1

>  <GhoseFilter>
1

>  <FilterItLogS>
-2.22

>  <VMcGowan>
230.36

>  <LabuteASA>
135.23

>  <PEOE_VSA1>
14.95

>  <PEOE_VSA2>
4.9

>  <PEOE_VSA3>
0

>  <PEOE_VSA4>
0

>  <PEOE_VSA5>
6.58

>  <PEOE_VSA6>
24.29

>  <PEOE_VSA7>
31.02

>  <PEOE_VSA8>
29.48

>  <PEOE_VSA9>
0

>  <PEOE_VSA10>
12.21

>  <PEOE_VSA11>
11.5

>  <PEOE_VSA12>
0

>  <PEOE_VSA13>
0

>  <SMR_VSA1>
14.95

>  <SMR_VSA2>
0

>  <SMR_VSA3>
4.9

>  <SMR_VSA4>
5.92

>  <SMR_VSA5>
36.51

>  <SMR_VSA6>
13.09

>  <SMR_VSA7>
48.07

>  <SMR_VSA8>
0

>  <SMR_VSA9>
11.5

>  <SlogP_VSA1>
4.74

>  <SlogP_VSA2>
46.45

>  <SlogP_VSA3>
11.84

>  <SlogP_VSA4>
5.92

>  <SlogP_VSA5>
17.55

>  <SlogP_VSA6>
36.94

>  <SlogP_VSA7>
0

>  <SlogP_VSA8>
0

>  <SlogP_VSA9>
0

>  <SlogP_VSA10>
0

>  <SlogP_VSA11>
11.5

>  <EState_VSA1>
6.1

>  <EState_VSA2>
17.27

>  <EState_VSA3>
17.71

>  <EState_VSA4>
31.49

>  <EState_VSA5>
5.56

>  <EState_VSA6>
6.07

>  <EState_VSA7>
18.22

>  <EState_VSA8>
17.55

>  <EState_VSA9>
4.74

>  <EState_VSA10>
10.21

>  <VSA_EState1>
6.13

>  <VSA_EState2>
2.5

>  <VSA_EState3>
20.81

>  <VSA_EState4>
2.22

>  <VSA_EState5>
1.13

>  <VSA_EState6>
4.17

>  <VSA_EState7>
7.04

>  <VSA_EState8>
5.76

>  <VSA_EState9>
0

>  <apol>
49.24

>  <bpol>
24.51

>  <nRing>
5

>  <nHRing>
2

>  <naRing>
1

>  <naHRing>
0

>  <nARing 2>
4

>  <nAHRing 2>
2

>  <nFRing>
1

>  <nFHRing>
1

>  <nFaRing>
0

>  <nFaHRing>
0

>  <nFARing 2>
1

>  <nFAHRing 2>
1

>  <nRot>
2

>  <SLogP>
1.75

>  <SMR>
86.72

>  <TopoPSA(NO)>
52.93

>  <TopoPSA>
52.93

>  <JGI1>
0.19

>  <JGI2>
0.1

>  <JGI3>
0.05

>  <JGI4>
0.05

>  <JGI5>
0.03

>  <Diameter>
10

>  <Radius>
5

>  <TMWC10>
129.75

>  <TSRW10>
73.75

>  <MW>
311.15

>  <AMW>
7.07

>  <WPath>
960

>  <WPol>
52

>  <Zagreb1>
140

>  <Zagreb2>
182

>  <mZagreb2>
4.88

>  <yes>


>  <nAR-cont>
0.199399

>  <nHA-cont>
0.967789328

>  <MWHBN>
0.340146767

>  <MWHBN-cont>
0.706599157

>  <TPSA-cont>
0.630515732

>  <pka_cont>
0.97

>  <yes.1>


>  <BBB_SCORE>
3.973118529

>  <MMFF94 Energy>
99.77

$$$$
Compound 816
Actelion Java MolfileCreator 2.0

  0  0  0  0  0  0              0 V3000
M  V30 BEGIN CTAB
M  V30 COUNTS 70 73 0 0 0
M  V30 BEGIN ATOM
M  V30 1 O -2.3755 0.5538 1.8208 0
M  V30 2 C -1.3303 0.5715 2.4642 0
M  V30 3 N -0.1433 1.1238 1.9911 0
M  V30 4 N -1.2815 0.0959 3.7545 0
M  V30 5 C 0.1956 1.1864 0.6333 0
M  V30 6 C 0.7759 1.8048 2.9093 0
M  V30 7 C -2.4551 -0.4253 4.4251 0
M  V30 8 O 1.0991 1.9302 0.2311 0
M  V30 9 C -0.5504 0.2968 -0.3626 0 CFG=1
M  V30 10 C 2.017 0.9583 3.2117 0
M  V30 11 C -3.2868 0.685 5.0411 0
M  V30 12 C -1.5022 1.1599 -1.1902 0
M  V30 13 C 0.4571 -0.3958 -1.2845 0
M  V30 14 C 2.9665 1.7053 4.1554 0
M  V30 15 N -2.2579 0.3592 -2.187 0
M  V30 16 C -0.27 -1.2101 -2.3607 0 CFG=1
M  V30 17 N 4.0713 0.8588 4.6355 0
M  V30 18 C -1.3106 -0.2868 -3.1484 0 CFG=1
M  V30 19 C -3.2563 1.2238 -2.8415 0
M  V30 20 C 0.6838 -1.9163 -3.311 0
M  V30 21 C 4.8001 1.5476 5.7059 0
M  V30 22 C 5.0037 0.5083 3.5599 0
M  V30 23 C -2.0377 -1.101 -4.2945 0
M  V30 24 C -4.4677 1.5742 -2.0097 0
M  V30 25 C 0.2 -2.1909 -4.5946 0
M  V30 26 C 1.97 -2.3936 -3.023 0
M  V30 27 C -1.0544 -1.8489 -5.1324 0
M  V30 28 C -4.8503 1.0214 -0.8497 0
M  V30 29 C 0.9367 -2.865 -5.5485 0
M  V30 30 C 2.7237 -3.075 -3.9924 0
M  V30 31 C -1.0799 -2.3243 -6.4232 0
M  V30 32 N 0.1328 -2.9368 -6.6654 0
M  V30 33 C 2.2255 -3.3248 -5.2809 0
M  V30 34 H -0.3889 -0.0348 4.2041 0
M  V30 35 H 1.0843 2.758 2.4623 0
M  V30 36 H 0.2537 2.0616 3.8384 0
M  V30 37 H -3.0562 -0.9998 3.7124 0
M  V30 38 H -2.106 -1.1089 5.2055 0
M  V30 39 H -1.1009 -0.4929 0.157 0
M  V30 40 H 2.5267 0.7155 2.2726 0
M  V30 41 H 1.7174 0.0042 3.6611 0
M  V30 42 H -4.1513 0.2676 5.5664 0
M  V30 43 H -2.6951 1.2638 5.7582 0
M  V30 44 H -3.6527 1.3775 4.2762 0
M  V30 45 H -0.9407 1.9575 -1.698 0
M  V30 46 H -2.1846 1.6723 -0.5039 0
M  V30 47 H 1.1003 -1.0408 -0.6732 0
M  V30 48 H 1.1204 0.3383 -1.7614 0
M  V30 49 H 3.3485 2.6103 3.6652 0
M  V30 50 H 2.3785 2.0364 5.0216 0
M  V30 51 H -0.8441 -2.0028 -1.858 0
M  V30 52 H -0.7318 0.5064 -3.6482 0
M  V30 53 H -3.683 0.7388 -3.7227 0
M  V30 54 H -2.7849 2.1491 -3.1972 0
M  V30 55 H 4.1328 1.7684 6.5466 0
M  V30 56 H 5.2472 2.4878 5.3628 0
M  V30 57 H 5.5975 0.9092 6.1024 0
M  V30 58 H 5.4201 1.3951 3.0687 0
M  V30 59 H 4.5198 -0.1157 2.8025 0
M  V30 60 H 5.8357 -0.0877 3.9523 0
M  V30 61 H -2.7492 -1.809 -3.8525 0
M  V30 62 H -2.5903 -0.4278 -4.9575 0
M  V30 63 H -5.0989 2.3536 -2.4318 0
M  V30 64 H 2.4076 -2.2477 -2.0394 0
M  V30 65 H -5.7489 1.3522 -0.3405 0
M  V30 66 H -4.2735 0.2309 -0.377 0
M  V30 67 H 3.7214 -3.4255 -3.7354 0
M  V30 68 H -1.8403 -2.2851 -7.1913 0
M  V30 69 H 0.3965 -3.3788 -7.5344 0
M  V30 70 H 2.814 -3.8555 -6.0202 0
M  V30 END ATOM
M  V30 BEGIN BOND
M  V30 1 2 1 2
M  V30 2 1 2 3
M  V30 3 1 2 4
M  V30 4 1 3 5
M  V30 5 1 3 6
M  V30 6 1 4 7
M  V30 7 2 5 8
M  V30 8 1 5 9
M  V30 9 1 6 10
M  V30 10 1 7 11
M  V30 11 1 9 12
M  V30 12 1 9 13
M  V30 13 1 10 14
M  V30 14 1 12 15
M  V30 15 1 13 16
M  V30 16 1 14 17
M  V30 17 1 15 18
M  V30 18 1 15 19
M  V30 19 1 16 20
M  V30 20 1 17 21
M  V30 21 1 17 22
M  V30 22 1 18 23
M  V30 23 1 19 24
M  V30 24 2 20 25
M  V30 25 1 20 26
M  V30 26 1 23 27
M  V30 27 2 24 28
M  V30 28 1 25 29
M  V30 29 2 26 30
M  V30 30 2 27 31
M  V30 31 1 29 32
M  V30 32 2 29 33
M  V30 33 1 16 18
M  V30 34 1 25 27
M  V30 35 1 30 33
M  V30 36 1 31 32
M  V30 37 1 4 34
M  V30 38 1 6 35
M  V30 39 1 6 36
M  V30 40 1 7 37
M  V30 41 1 7 38
M  V30 42 1 9 39
M  V30 43 1 10 40
M  V30 44 1 10 41
M  V30 45 1 11 42
M  V30 46 1 11 43
M  V30 47 1 11 44
M  V30 48 1 12 45
M  V30 49 1 12 46
M  V30 50 1 13 47
M  V30 51 1 13 48
M  V30 52 1 14 49
M  V30 53 1 14 50
M  V30 54 1 16 51
M  V30 55 1 18 52
M  V30 56 1 19 53
M  V30 57 1 19 54
M  V30 58 1 21 55
M  V30 59 1 21 56
M  V30 60 1 21 57
M  V30 61 1 22 58
M  V30 62 1 22 59
M  V30 63 1 22 60
M  V30 64 1 23 61
M  V30 65 1 23 62
M  V30 66 1 24 63
M  V30 67 1 26 64
M  V30 68 1 28 65
M  V30 69 1 28 66
M  V30 70 1 30 67
M  V30 71 1 31 68
M  V30 72 1 32 69
M  V30 73 1 33 70
M  V30 END BOND
M  V30 BEGIN COLLECTION
M  V30 MDLV30/STEABS ATOMS=(3 9 16 18)
M  V30 END COLLECTION
M  V30 END CTAB
M  END
>  <Column 1>
978

>  <level_0>
1111

>  <index>
1111

>  <Unnamed: 0>
1111

>  <NO.>
1123

>  <Name>
cabergoline

>  <IUPAC_name>
(6ar-9r-10ar)-n-[3-(dimethylamino)propyl]-n-(ethylcarbamoyl)-7-prop-2-enyl-6-6a-8-9-10-10a-hexahydro-4h-indolo[4-3-fg]quinoline-9-carboxamide

>  <SMILES>
C=CCN1C[C@H](C(=O)N(CCCN(C)C)C(=O)NCC)C[C@@H]2c3cccc4[nH]cc(c34)C[C@H]21

>  <CID>
54746

>  <logBB>


>  <BBB+/BBB->
BBB+

>  <Inchi>
InChI=1S/C26H37N5O2/c1-5-11-30-17-19(25(32)31(26(33)27-6-2)13-8-12-29(3)4)14-21-20-9-7-10-22-24(20)18(16-28-22)15-23(21)30/h5-7-9-10-16-19-21-23-28H-1-6-8-11-15-17H2-2-4H3-(H-27-33)/t19--21--23-/m1/s1

>  <threshold>
-1

>  <reference>
R1|R27|R30|R37|R50|

>  <group>
B

>  <Class>
1

>  <ABC>
25.53

>  <ABCGG>
20.35

>  <nAcid>
0

>  <nBase>
2

>  <nAromAtom>
9

>  <nAromBond>
10

>  <nAtom>
70

>  <nHeavyAtom>
33

>  <nSpiro>
0

>  <nBridgehead>
0

>  <nHetero>
7

>  <nN>
5

>  <nO>
2

>  <nF>
0

>  <BalabanJ>
1.51

>  <BertzCT>
1013.28

>  <nBonds>
73

>  <nBondsO>
36

>  <nBondsS>
60

>  <nBondsD>
3

>  <nBondsT>
0

>  <nBondsA>
10

>  <nBondsM>
13

>  <nBondsKS>
66

>  <nBondsKD>
7

>  <RNCG>
0.14

>  <RPCG>
0.12

>  <FCSP3>
0.54

>  <SZ>
40.67

>  <Sm>
37.6

>  <Sv>
41.24

>  <Sse>
69.4

>  <Sp>
45.03

>  <Si>
79.56

>  <MZ>
0.58

>  <Mm>
0.54

>  <Mv>
0.59

>  <Mse>
0.99

>  <Mp>
0.64

>  <Mi>
1.14

>  <NsCH3>
3

>  <NdCH2>
1

>  <NssCH2>
8

>  <NtCH>
0

>  <NdsCH>
1

>  <NaaCH>
4

>  <NsssCH>
3

>  <NddC>
0

>  <NtsC>
0

>  <NdssC>
2

>  <NaasC>
2

>  <NaaaC>
2

>  <NssssC>
0

>  <NsNH3>
0

>  <NsNH2>
0

>  <NssNH2>
0

>  <NdNH>
0

>  <NssNH>
1

>  <NaaNH>
1

>  <NtN>
0

>  <NsssNH>
0

>  <NdsN>
0

>  <NaaN>
0

>  <NsssN>
3

>  <NddsN>
0

>  <NaasN>
0

>  <NssssN>
0

>  <NsOH>
0

>  <NdO>
2

>  <NssO>
0

>  <NaaO>
0

>  <NsF>
0

>  <NsSiH3>
0

>  <NssSiH2>
0

>  <NsssSiH>
0

>  <NssssSi>
0

>  <NsPH2>
0

>  <NssPH>
0

>  <NsssP>
0

>  <NdsssP>
0

>  <NsssssP>
0

>  <NsSH>
0

>  <NdS>
0

>  <NssS>
0

>  <NaaS>
0

>  <NdssS>
0

>  <NddssS>
0

>  <NsCl>
0

>  <NsBr>
0

>  <NsI>
0

>  <fragCpx>
240.07

>  <fMF>
0.23

>  <nHBAcc>
4

>  <nHBDon>
2

>  <Kier1>
26.07

>  <Kier2>
11.82

>  <Lipinski>
1

>  <GhoseFilter>
0

>  <FilterItLogS>
-5.11

>  <VMcGowan>
365.3

>  <LabuteASA>
196.34

>  <PEOE_VSA1>
15.2

>  <PEOE_VSA2>
14.59

>  <PEOE_VSA3>
4.79

>  <PEOE_VSA4>
0

>  <PEOE_VSA5>
6.58

>  <PEOE_VSA6>
18.21

>  <PEOE_VSA7>
64.02

>  <PEOE_VSA8>
55.24

>  <PEOE_VSA9>
5.92

>  <PEOE_VSA10>
0

>  <PEOE_VSA11>
0

>  <PEOE_VSA12>
5.91

>  <PEOE_VSA13>
0

>  <SMR_VSA1>
9.59

>  <SMR_VSA2>
0

>  <SMR_VSA3>
25

>  <SMR_VSA4>
5.92

>  <SMR_VSA5>
38.15

>  <SMR_VSA6>
46.82

>  <SMR_VSA7>
48.18

>  <SMR_VSA8>
0

>  <SMR_VSA9>
0

>  <SlogP_VSA1>
5.32

>  <SlogP_VSA2>
84.48

>  <SlogP_VSA3>
11.22

>  <SlogP_VSA4>
5.92

>  <SlogP_VSA5>
36.81

>  <SlogP_VSA6>
37.05

>  <SlogP_VSA7>
0

>  <SlogP_VSA8>
10.9

>  <SlogP_VSA9>
0

>  <SlogP_VSA10>
4.79

>  <SlogP_VSA11>
0

>  <EState_VSA1>
0

>  <EState_VSA2>
23.77

>  <EState_VSA3>
25.68

>  <EState_VSA4>
37.87

>  <EState_VSA5>
21.41

>  <EState_VSA6>
0

>  <EState_VSA7>
27.1

>  <EState_VSA8>
51.08

>  <EState_VSA9>
0

>  <EState_VSA10>
9.59

>  <VSA_EState1>
0

>  <VSA_EState2>
35.92

>  <VSA_EState3>
4.16

>  <VSA_EState4>
3.84

>  <VSA_EState5>
-0.01

>  <VSA_EState6>
6.5

>  <VSA_EState7>
6.56

>  <VSA_EState8>
9.02

>  <VSA_EState9>
4.01

>  <apol>
75.2

>  <bpol>
45.12

>  <nRing>
4

>  <nHRing>
2

>  <naRing>
2

>  <naHRing>
1

>  <nARing 2>
2

>  <nAHRing 2>
1

>  <nFRing>
1

>  <nFHRing>
1

>  <nFaRing>
0

>  <nFaHRing>
0

>  <nFARing 2>
1

>  <nFAHRing 2>
1

>  <nRot>
8

>  <SLogP>
3.19

>  <SMR>
132.37

>  <TopoPSA(NO)>
71.68

>  <TopoPSA>
71.68

>  <JGI1>
0.17

>  <JGI2>
0.08

>  <JGI3>
0.05

>  <JGI4>
0.04

>  <JGI5>
0.02

>  <Diameter>
13

>  <Radius>
7

>  <TMWC10>
148.07

>  <TSRW10>
83.41

>  <MW>
451.29

>  <AMW>
6.45

>  <WPath>
3064

>  <WPol>
57

>  <Zagreb1>
174

>  <Zagreb2>
209

>  <mZagreb2>
7.42

>  <yes>


>  <nAR-cont>
1

>  <nHA-cont>
0.61399562

>  <MWHBN>
0.282438174

>  <MWHBN-cont>
0.889835141

>  <TPSA-cont>
0.499629089

>  <pka_cont>
0.97

>  <yes.1>


>  <BBB_SCORE>
4.43300651

>  <MMFF94 Energy>
-17.16

$$$$
Compound 817
Actelion Java MolfileCreator 2.0

  0  0  0  0  0  0              0 V3000
M  V30 BEGIN CTAB
M  V30 COUNTS 39 41 0 0 0
M  V30 BEGIN ATOM
M  V30 1 Cl 3.266 2.4488 0.1631 0
M  V30 2 C 3.2278 1.118 1.2622 0
M  V30 3 C 2.0751 0.3566 1.4815 0
M  V30 4 C 4.3862 0.8354 1.9913 0
M  V30 5 C 0.819 0.598 0.7298 0
M  V30 6 C 2.0814 -0.6852 2.4186 0
M  V30 7 C 4.3929 -0.2014 2.928 0
M  V30 8 N 0.8162 0.2869 -0.5235 0
M  V30 9 C -0.3416 1.1506 1.486 0
M  V30 10 C 3.2421 -0.9604 3.1415 0
M  V30 11 C -0.4232 0.4831 -1.2782 0
M  V30 12 C -1.6438 0.6556 1.2866 0
M  V30 13 C -0.1111 2.1927 2.4005 0
M  V30 14 C -1.4621 -0.5128 -0.7565 0
M  V30 15 N -1.9966 -0.4031 0.4331 0
M  V30 16 C -2.6892 1.2088 2.0403 0
M  V30 17 C -1.1717 2.7293 3.1257 0
M  V30 18 N -1.8691 -1.5725 -1.532 0
M  V30 19 C -2.4612 2.2409 2.9527 0
M  V30 20 Cl -0.8838 4.0036 4.2444 0
M  V30 21 O -1.1234 -1.8962 -2.6576 0
M  V30 22 C -1.9943 -1.7982 -3.7889 0
M  V30 23 C -1.1941 -2.1293 -5.0098 0
M  V30 24 C -1.5146 -3.076 -5.9018 0
M  V30 25 H 5.2889 1.4213 1.8359 0
M  V30 26 H 1.1924 -1.2927 2.573 0
M  V30 27 H 5.2989 -0.419 3.4891 0
M  V30 28 H 3.2523 -1.7727 3.8647 0
M  V30 29 H -0.7987 1.5096 -1.1945 0
M  V30 30 H -0.219 0.3166 -2.339 0
M  V30 31 H 0.8858 2.6008 2.5416 0
M  V30 32 H -3.698 0.8218 1.9107 0
M  V30 33 H -2.4254 -2.3003 -1.098 0
M  V30 34 H -3.2918 2.6524 3.52 0
M  V30 35 H -2.3732 -0.7728 -3.8742 0
M  V30 36 H -2.8394 -2.4862 -3.6659 0
M  V30 37 H -0.2879 -1.5463 -5.1593 0
M  V30 38 H -2.4047 -3.6877 -5.7941 0
M  V30 39 H -0.8795 -3.262 -6.7627 0
M  V30 END ATOM
M  V30 BEGIN BOND
M  V30 1 1 1 2
M  V30 2 2 2 3
M  V30 3 1 2 4
M  V30 4 1 3 5
M  V30 5 1 3 6
M  V30 6 2 4 7
M  V30 7 2 5 8
M  V30 8 1 5 9
M  V30 9 2 6 10
M  V30 10 1 8 11
M  V30 11 2 9 12
M  V30 12 1 9 13
M  V30 13 1 11 14
M  V30 14 1 12 15
M  V30 15 1 12 16
M  V30 16 2 13 17
M  V30 17 1 14 18
M  V30 18 2 16 19
M  V30 19 1 17 20
M  V30 20 1 18 21
M  V30 21 1 21 22
M  V30 22 1 22 23
M  V30 23 2 23 24
M  V30 24 1 7 10
M  V30 25 2 14 15
M  V30 26 1 17 19
M  V30 27 1 4 25
M  V30 28 1 6 26
M  V30 29 1 7 27
M  V30 30 1 10 28
M  V30 31 1 11 29
M  V30 32 1 11 30
M  V30 33 1 13 31
M  V30 34 1 16 32
M  V30 35 1 18 33
M  V30 36 1 19 34
M  V30 37 1 22 35
M  V30 38 1 22 36
M  V30 39 1 23 37
M  V30 40 1 24 38
M  V30 41 1 24 39
M  V30 END BOND
M  V30 END CTAB
M  END
>  <Column 1>
979

>  <level_0>
1112

>  <index>
1112

>  <Unnamed: 0>
1112

>  <NO.>
1124

>  <Name>
uldazepam

>  <IUPAC_name>
7-chloro-5-(2-chlorophenyl)-n-prop-2-enoxy-3h-1-4-benzodiazepin-2-amine

>  <SMILES>
C=CCONC1=Nc2ccc(Cl)cc2C(c2ccccc2Cl)=NC1

>  <CID>
34274

>  <logBB>


>  <BBB+/BBB->
BBB+

>  <Inchi>
InChI=1S/C18H15Cl2N3O/c1-2-9-24-23-17-11-21-18(13-5-3-4-6-15(13)20)14-10-12(19)7-8-16(14)22-17/h2-8-10H-1-9-11H2-(H-22-23)

>  <threshold>
-1

>  <reference>
R1|R13|R19|R6|R24|R27|R27|R27|R30|R30|

>  <group>
B

>  <Class>
-1

>  <ABC>
18.44

>  <ABCGG>
14.58

>  <nAcid>
0

>  <nBase>
2

>  <nAromAtom>
12

>  <nAromBond>
12

>  <nAtom>
39

>  <nHeavyAtom>
24

>  <nSpiro>
0

>  <nBridgehead>
0

>  <nHetero>
6

>  <nN>
3

>  <nO>
1

>  <nF>
0

>  <BalabanJ>
1.69

>  <BertzCT>
830.76

>  <nBonds>
41

>  <nBondsO>
26

>  <nBondsS>
26

>  <nBondsD>
3

>  <nBondsT>
0

>  <nBondsA>
12

>  <nBondsM>
15

>  <nBondsKS>
32

>  <nBondsKD>
9

>  <RNCG>
0.16

>  <RPCG>
0.12

>  <FCSP3>
0.11

>  <SZ>
31

>  <Sm>
29.99

>  <Sv>
27.23

>  <Sse>
39.51

>  <Sp>
29.06

>  <Si>
43.5

>  <MZ>
0.79

>  <Mm>
0.77

>  <Mv>
0.7

>  <Mse>
1.01

>  <Mp>
0.75

>  <Mi>
1.12

>  <NsCH3>
0

>  <NdCH2>
1

>  <NssCH2>
2

>  <NtCH>
0

>  <NdsCH>
1

>  <NaaCH>
7

>  <NsssCH>
0

>  <NddC>
0

>  <NtsC>
0

>  <NdssC>
2

>  <NaasC>
5

>  <NaaaC>
0

>  <NssssC>
0

>  <NsNH3>
0

>  <NsNH2>
0

>  <NssNH2>
0

>  <NdNH>
0

>  <NssNH>
1

>  <NaaNH>
0

>  <NtN>
0

>  <NsssNH>
0

>  <NdsN>
2

>  <NaaN>
0

>  <NsssN>
0

>  <NddsN>
0

>  <NaasN>
0

>  <NssssN>
0

>  <NsOH>
0

>  <NdO>
0

>  <NssO>
1

>  <NaaO>
0

>  <NsF>
0

>  <NsSiH3>
0

>  <NssSiH2>
0

>  <NsssSiH>
0

>  <NssssSi>
0

>  <NsPH2>
0

>  <NssPH>
0

>  <NsssP>
0

>  <NdsssP>
0

>  <NsssssP>
0

>  <NsSH>
0

>  <NdS>
0

>  <NssS>
0

>  <NaaS>
0

>  <NdssS>
0

>  <NddssS>
0

>  <NsCl>
2

>  <NsBr>
0

>  <NsI>
0

>  <fragCpx>
124.06

>  <fMF>
0.44

>  <nHBAcc>
4

>  <nHBDon>
1

>  <Kier1>
18.78

>  <Kier2>
9.09

>  <Lipinski>
1

>  <GhoseFilter>
1

>  <FilterItLogS>
-6.58

>  <VMcGowan>
253.49

>  <LabuteASA>
150

>  <PEOE_VSA1>
0

>  <PEOE_VSA2>
15.31

>  <PEOE_VSA3>
4.99

>  <PEOE_VSA4>
0

>  <PEOE_VSA5>
6.58

>  <PEOE_VSA6>
47.48

>  <PEOE_VSA7>
24.27

>  <PEOE_VSA8>
21.17

>  <PEOE_VSA9>
24.55

>  <PEOE_VSA10>
5.84

>  <PEOE_VSA11>
0

>  <PEOE_VSA12>
0

>  <PEOE_VSA13>
0

>  <SMR_VSA1>
4.84

>  <SMR_VSA2>
0

>  <SMR_VSA3>
5.48

>  <SMR_VSA4>
9.98

>  <SMR_VSA5>
0

>  <SMR_VSA6>
13.15

>  <SMR_VSA7>
76.29

>  <SMR_VSA8>
0

>  <SMR_VSA9>
0

>  <SlogP_VSA1>
5.48

>  <SlogP_VSA2>
24.7

>  <SlogP_VSA3>
4.84

>  <SlogP_VSA4>
0

>  <SlogP_VSA5>
11.13

>  <SlogP_VSA6>
65.1

>  <SlogP_VSA7>
10.05

>  <SlogP_VSA8>
0

>  <SlogP_VSA9>
0

>  <SlogP_VSA10>
5.69

>  <SlogP_VSA11>
0

>  <EState_VSA1>
0

>  <EState_VSA2>
0

>  <EState_VSA3>
29.03

>  <EState_VSA4>
22.53

>  <EState_VSA5>
0

>  <EState_VSA6>
12.14

>  <EState_VSA7>
36.4

>  <EState_VSA8>
22.04

>  <EState_VSA9>
28.04

>  <EState_VSA10>
0

>  <VSA_EState1>
0

>  <VSA_EState2>
14.52

>  <VSA_EState3>
1.24

>  <VSA_EState4>
5.98

>  <VSA_EState5>
0.6

>  <VSA_EState6>
13.06

>  <VSA_EState7>
1.65

>  <VSA_EState8>
4.31

>  <VSA_EState9>
0

>  <apol>
48.52

>  <bpol>
19.51

>  <nRing>
3

>  <nHRing>
1

>  <naRing>
2

>  <naHRing>
0

>  <nARing 2>
1

>  <nAHRing 2>
1

>  <nFRing>
1

>  <nFHRing>
1

>  <nFaRing>
0

>  <nFaHRing>
0

>  <nFARing 2>
1

>  <nFAHRing 2>
1

>  <nRot>
4

>  <SLogP>
4.58

>  <SMR>
99.79

>  <TopoPSA(NO)>
45.98

>  <TopoPSA>
45.98

>  <JGI1>
0.15

>  <JGI2>
0.07

>  <JGI3>
0.04

>  <JGI4>
0.04

>  <JGI5>
0.02

>  <Diameter>
12

>  <Radius>
6

>  <TMWC10>
124.62

>  <TSRW10>
66.32

>  <MW>
359.06

>  <AMW>
9.21

>  <WPath>
1307

>  <WPol>
40

>  <Zagreb1>
122

>  <Zagreb2>
142

>  <mZagreb2>
5.44

>  <yes>


>  <nAR-cont>
0.816016

>  <nHA-cont>
0.94700071

>  <MWHBN>
0.263867858

>  <MWHBN-cont>
0.933513605

>  <TPSA-cont>
0.679031048

>  <pka_cont>
0.97

>  <yes.1>


>  <BBB_SCORE>
5.006349214

>  <MMFF94 Energy>
132.51

$$$$
Compound 818
Actelion Java MolfileCreator 2.0

  0  0  0  0  0  0              0 V3000
M  V30 BEGIN CTAB
M  V30 COUNTS 39 40 0 0 0
M  V30 BEGIN ATOM
M  V30 1 S 2.2206 0.2465 -2.3852 0
M  V30 2 C 3.6709 -0.0889 -1.2605 0
M  V30 3 C 0.9532 -0.2319 -1.14 0
M  V30 4 C 3.1155 -0.807 -0.0088 0
M  V30 5 C 4.7183 -0.8835 -2.0479 0
M  V30 6 C 4.2691 1.2757 -0.8775 0
M  V30 7 N 1.7215 -0.4263 0.0859 0
M  V30 8 C 0.2298 0.9495 -0.4293 0
M  V30 9 C 3.19 -2.3289 -0.0751 0
M  V30 10 C 1.2336 0.6632 0.7266 0
M  V30 11 N -1.197 0.7381 -0.071 0
M  V30 12 O 2.384 -3.0926 -0.5827 0
M  V30 13 O 4.3207 -2.8156 0.4808 0
M  V30 14 O 1.5724 1.1909 1.7591 0
M  V30 15 C -2.1659 0.498 -1.0137 0
M  V30 16 O -1.8971 0.4039 -2.21 0
M  V30 17 C -3.5803 0.2723 -0.4972 0
M  V30 18 S -3.8544 0.9529 1.171 0
M  V30 19 C -5.6082 0.5152 1.3455 0
M  V30 20 C -6.0858 0.9583 2.6933 0
M  V30 21 C -6.5363 0.1328 3.648 0
M  V30 22 H 0.346 -1.1026 -1.4029 0
M  V30 23 H 3.6235 -0.4794 0.9065 0
M  V30 24 H 5.0969 -0.3118 -2.9039 0
M  V30 25 H 5.5808 -1.1211 -1.4147 0
M  V30 26 H 4.3201 -1.8267 -2.4383 0
M  V30 27 H 5.1265 1.143 -0.207 0
M  V30 28 H 4.6287 1.8225 -1.7573 0
M  V30 29 H 3.5489 1.9177 -0.3589 0
M  V30 30 H 0.3743 1.9381 -0.8798 0
M  V30 31 H -1.508 0.8381 0.8938 0
M  V30 32 H 4.2374 -3.7881 0.3773 0
M  V30 33 H -4.2741 0.7521 -1.1943 0
M  V30 34 H -3.7624 -0.8064 -0.4822 0
M  V30 35 H -6.1907 1.0224 0.57 0
M  V30 36 H -5.7249 -0.5657 1.2176 0
M  V30 37 H -6.0735 2.0288 2.8922 0
M  V30 38 H -6.5741 -0.9427 3.5064 0
M  V30 39 H -6.8718 0.5234 4.6044 0
M  V30 END ATOM
M  V30 BEGIN BOND
M  V30 1 1 1 2
M  V30 2 1 1 3
M  V30 3 1 2 4
M  V30 4 1 2 5
M  V30 5 1 2 6
M  V30 6 1 3 7
M  V30 7 1 3 8
M  V30 8 1 4 9
M  V30 9 1 7 10
M  V30 10 1 8 11
M  V30 11 2 9 12
M  V30 12 1 9 13
M  V30 13 2 10 14
M  V30 14 1 11 15
M  V30 15 2 15 16
M  V30 16 1 15 17
M  V30 17 1 17 18
M  V30 18 1 18 19
M  V30 19 1 19 20
M  V30 20 2 20 21
M  V30 21 1 4 7
M  V30 22 1 8 10
M  V30 23 1 3 22
M  V30 24 1 4 23
M  V30 25 1 5 24
M  V30 26 1 5 25
M  V30 27 1 5 26
M  V30 28 1 6 27
M  V30 29 1 6 28
M  V30 30 1 6 29
M  V30 31 1 8 30
M  V30 32 1 11 31
M  V30 33 1 13 32
M  V30 34 1 17 33
M  V30 35 1 17 34
M  V30 36 1 19 35
M  V30 37 1 19 36
M  V30 38 1 20 37
M  V30 39 1 21 38
M  V30 40 1 21 39
M  V30 END BOND
M  V30 END CTAB
M  END
>  <Column 1>
980

>  <level_0>
1113

>  <index>
1113

>  <Unnamed: 0>
1113

>  <NO.>
1125

>  <Name>
almecillin

>  <IUPAC_name>
sodium;3-3-dimethyl-7-oxo-6-[(2-prop-2-enylsulfanylacetyl)amino]-4-thia-1-azabicyclo[3.2.0]heptane-2-carboxylate

>  <SMILES>
C=CCSCC(=O)NC1C(=O)N2C1SC(C)(C)C2C(=O)O

>  <CID>
11330

>  <logBB>


>  <BBB+/BBB->
BBB-

>  <Inchi>
InChI=1S/C13H18N2O4S2/c1-4-5-20-6-7(16)14-8-10(17)15-9(12(18)19)13(2-3)21-11(8)15/h4-8-9-11H-1-5-6H2-2-3H3-(H-14-16)(H-18-19)

>  <threshold>
-1

>  <reference>
R1|R19|R27|R27|R30|

>  <group>
B

>  <Class>
-1

>  <ABC>
16.01

>  <ABCGG>
14.35

>  <nAcid>
1

>  <nBase>
0

>  <nAromAtom>
0

>  <nAromBond>
0

>  <nAtom>
39

>  <nHeavyAtom>
21

>  <nSpiro>
0

>  <nBridgehead>
0

>  <nHetero>
8

>  <nN>
2

>  <nO>
4

>  <nF>
0

>  <BalabanJ>
1.92

>  <BertzCT>
494.56

>  <nBonds>
40

>  <nBondsO>
22

>  <nBondsS>
36

>  <nBondsD>
4

>  <nBondsT>
0

>  <nBondsA>
0

>  <nBondsM>
4

>  <nBondsKS>
36

>  <nBondsKD>
4

>  <RNCG>
0.19

>  <RPCG>
0.13

>  <FCSP3>
0.62

>  <SZ>
29

>  <Sm>
27.51

>  <Sv>
24.63

>  <Sse>
39.79

>  <Sp>
26.9

>  <Si>
44

>  <MZ>
0.74

>  <Mm>
0.71

>  <Mv>
0.63

>  <Mse>
1.02

>  <Mp>
0.69

>  <Mi>
1.13

>  <NsCH3>
2

>  <NdCH2>
1

>  <NssCH2>
2

>  <NtCH>
0

>  <NdsCH>
1

>  <NaaCH>
0

>  <NsssCH>
3

>  <NddC>
0

>  <NtsC>
0

>  <NdssC>
3

>  <NaasC>
0

>  <NaaaC>
0

>  <NssssC>
1

>  <NsNH3>
0

>  <NsNH2>
0

>  <NssNH2>
0

>  <NdNH>
0

>  <NssNH>
1

>  <NaaNH>
0

>  <NtN>
0

>  <NsssNH>
0

>  <NdsN>
0

>  <NaaN>
0

>  <NsssN>
1

>  <NddsN>
0

>  <NaasN>
0

>  <NssssN>
0

>  <NsOH>
1

>  <NdO>
3

>  <NssO>
0

>  <NaaO>
0

>  <NsF>
0

>  <NsSiH3>
0

>  <NssSiH2>
0

>  <NsssSiH>
0

>  <NssssSi>
0

>  <NsPH2>
0

>  <NssPH>
0

>  <NsssP>
0

>  <NdsssP>
0

>  <NsssssP>
0

>  <NsSH>
0

>  <NdS>
0

>  <NssS>
2

>  <NaaS>
0

>  <NdssS>
0

>  <NddssS>
0

>  <NsCl>
0

>  <NsBr>
0

>  <NsI>
0

>  <fragCpx>
64.08

>  <fMF>
0.18

>  <nHBAcc>
5

>  <nHBDon>
2

>  <Kier1>
17.36

>  <Kier2>
6.63

>  <Lipinski>
1

>  <GhoseFilter>
1

>  <FilterItLogS>
-1.38

>  <VMcGowan>
231.25

>  <LabuteASA>
131.25

>  <PEOE_VSA1>
15.32

>  <PEOE_VSA2>
9.59

>  <PEOE_VSA3>
4.79

>  <PEOE_VSA4>
0

>  <PEOE_VSA5>
30.1

>  <PEOE_VSA6>
6.08

>  <PEOE_VSA7>
13.85

>  <PEOE_VSA8>
10.5

>  <PEOE_VSA9>
5.75

>  <PEOE_VSA10>
17.46

>  <PEOE_VSA11>
0

>  <PEOE_VSA12>
11.81

>  <PEOE_VSA13>
0

>  <SMR_VSA1>
19.49

>  <SMR_VSA2>
0

>  <SMR_VSA3>
10.22

>  <SMR_VSA4>
0

>  <SMR_VSA5>
36.05

>  <SMR_VSA6>
11.51

>  <SMR_VSA7>
12.65

>  <SMR_VSA8>
0

>  <SMR_VSA9>
0

>  <SlogP_VSA1>
5.32

>  <SlogP_VSA2>
61.5

>  <SlogP_VSA3>
14.38

>  <SlogP_VSA4>
0

>  <SlogP_VSA5>
13.85

>  <SlogP_VSA6>
12.65

>  <SlogP_VSA7>
0

>  <SlogP_VSA8>
0

>  <SlogP_VSA9>
0

>  <SlogP_VSA10>
0

>  <SlogP_VSA11>
0

>  <EState_VSA1>
22.8

>  <EState_VSA2>
22.94

>  <EState_VSA3>
5.75

>  <EState_VSA4>
0

>  <EState_VSA5>
28.42

>  <EState_VSA6>
19.92

>  <EState_VSA7>
0

>  <EState_VSA8>
11.9

>  <EState_VSA9>
0

>  <EState_VSA10>
19.49

>  <VSA_EState1>
-0.57

>  <VSA_EState2>
36.61

>  <VSA_EState3>
11.7

>  <VSA_EState4>
0

>  <VSA_EState5>
-0.59

>  <VSA_EState6>
-1.46

>  <VSA_EState7>
1.71

>  <VSA_EState8>
7.18

>  <VSA_EState9>
0

>  <apol>
44.92

>  <bpol>
27.86

>  <nRing>
2

>  <nHRing>
2

>  <naRing>
0

>  <naHRing>
0

>  <nARing 2>
2

>  <nAHRing 2>
2

>  <nFRing>
1

>  <nFHRing>
1

>  <nFaRing>
0

>  <nFaHRing>
0

>  <nFARing 2>
1

>  <nFAHRing 2>
1

>  <nRot>
6

>  <SLogP>
0.54

>  <SMR>
83.18

>  <TopoPSA(NO)>
86.71

>  <TopoPSA>
137.31

>  <JGI1>
0.25

>  <JGI2>
0.09

>  <JGI3>
0.1

>  <JGI4>
0.06

>  <JGI5>
0.03

>  <Diameter>
12

>  <Radius>
6

>  <TMWC10>
118.74

>  <TSRW10>
70.62

>  <MW>
330.07

>  <AMW>
8.46

>  <WPath>
985

>  <WPol>
31

>  <Zagreb1>
110

>  <Zagreb2>
132

>  <mZagreb2>
4.63

>  <yes>


>  <nAR-cont>
1

>  <nHA-cont>
0.994529749

>  <MWHBN>
0.385296455

>  <MWHBN-cont>
0.533988902

>  <TPSA-cont>
0

>  <pka_cont>
0.97

>  <yes.1>


>  <BBB_SCORE>
3.280513103

>  <MMFF94 Energy>
46.395

$$$$
Compound 819
Actelion Java MolfileCreator 2.0

  0  0  0  0  0  0              0 V3000
M  V30 BEGIN CTAB
M  V30 COUNTS 44 46 0 0 0
M  V30 BEGIN ATOM
M  V30 1 S 0.5701 -0.1628 -3.1795 0
M  V30 2 C 1.6615 1.2586 -3.6957 0
M  V30 3 C 0.0606 0.6107 -1.5889 0
M  V30 4 C 1.3919 2.417 -2.7078 0
M  V30 5 C 3.1172 0.7758 -3.5758 0
M  V30 6 C 1.3687 1.5831 -5.1645 0
M  V30 7 N 0.8997 1.8018 -1.4933 0
M  V30 8 C 0.7811 0.0724 -0.3186 0
M  V30 9 C 0.3509 3.4219 -3.1901 0
M  V30 10 C 1.6572 1.3518 -0.4638 0
M  V30 11 N -0.0209 0.0156 0.9235 0
M  V30 12 O -0.8624 3.3517 -3.0759 0
M  V30 13 O 0.9054 4.4683 -3.8402 0
M  V30 14 O 2.6679 1.7971 0.0258 0
M  V30 15 C -1.1647 -0.7423 1.0463 0
M  V30 16 O -1.6159 -1.4086 0.1177 0
M  V30 17 C -1.81 -0.6884 2.4513 0
M  V30 18 N -1.2208 0.47 3.1919 0
M  V30 19 C -1.6276 -2.011 3.1762 0
M  V30 20 C -1.9453 0.8508 4.1854 0
M  V30 21 C -2.6364 -2.985 3.1216 0
M  V30 22 C -0.4484 -2.3009 3.8806 0
M  V30 23 C -2.4772 -4.2097 3.7724 0
M  V30 24 C -0.2919 -3.5257 4.5313 0
M  V30 25 C -1.307 -4.4782 4.4791 0
M  V30 26 H -1.0059 0.835 -1.5001 0
M  V30 27 H 2.3102 2.9663 -2.4661 0
M  V30 28 H 3.8104 1.576 -3.8609 0
M  V30 29 H 3.3178 -0.0758 -4.2365 0
M  V30 30 H 3.3749 0.4726 -2.5554 0
M  V30 31 H 0.3164 1.8369 -5.3344 0
M  V30 32 H 1.6082 0.7364 -5.8189 0
M  V30 33 H 1.9758 2.4308 -5.5023 0
M  V30 34 H 1.3563 -0.8506 -0.4525 0
M  V30 35 H 0.2223 0.5581 1.7521 0
M  V30 36 H 0.1376 5.0284 -4.0858 0
M  V30 37 H -2.8783 -0.4911 2.2823 0
M  V30 38 H -2.9007 0.376 4.4701 0
M  V30 39 H -1.6146 1.6972 4.8085 0
M  V30 40 H -3.5497 -2.8017 2.5588 0
M  V30 41 H 0.3582 -1.5718 3.9246 0
M  V30 42 H -3.2633 -4.9585 3.7193 0
M  V30 43 H 0.6256 -3.7384 5.0737 0
M  V30 44 H -1.182 -5.4341 4.9809 0
M  V30 END ATOM
M  V30 BEGIN BOND
M  V30 1 1 1 2
M  V30 2 1 1 3
M  V30 3 1 2 4
M  V30 4 1 2 5
M  V30 5 1 2 6
M  V30 6 1 3 7
M  V30 7 1 3 8
M  V30 8 1 4 9
M  V30 9 1 7 10
M  V30 10 1 8 11
M  V30 11 2 9 12
M  V30 12 1 9 13
M  V30 13 2 10 14
M  V30 14 1 11 15
M  V30 15 2 15 16
M  V30 16 1 15 17
M  V30 17 1 17 18
M  V30 18 1 17 19
M  V30 19 2 18 20
M  V30 20 2 19 21
M  V30 21 1 19 22
M  V30 22 1 21 23
M  V30 23 2 22 24
M  V30 24 2 23 25
M  V30 25 1 4 7
M  V30 26 1 8 10
M  V30 27 1 24 25
M  V30 28 1 3 26
M  V30 29 1 4 27
M  V30 30 1 5 28
M  V30 31 1 5 29
M  V30 32 1 5 30
M  V30 33 1 6 31
M  V30 34 1 6 32
M  V30 35 1 6 33
M  V30 36 1 8 34
M  V30 37 1 11 35
M  V30 38 1 13 36
M  V30 39 1 17 37
M  V30 40 1 20 38
M  V30 41 1 20 39
M  V30 42 1 21 40
M  V30 43 1 22 41
M  V30 44 1 23 42
M  V30 45 1 24 43
M  V30 46 1 25 44
M  V30 END BOND
M  V30 END CTAB
M  END
>  <Column 1>
982

>  <level_0>
1118

>  <index>
1118

>  <Unnamed: 0>
1118

>  <NO.>
1130

>  <Name>
6489-97-0

>  <IUPAC_name>
3-3-dimethyl-6-[[2-(methylideneamino)-2-phenylacetyl]amino]-7-oxo-4-thia-1-azabicyclo[3.2.0]heptane-2-carboxylic acid

>  <SMILES>
C=NC(C(=O)NC1C(=O)N2C1SC(C)(C)C2C(=O)O)c1ccccc1

>  <CID>
4084

>  <logBB>


>  <BBB+/BBB->
BBB-

>  <Inchi>
InChI=1S/C17H19N3O4S/c1-17(2)12(16(23)24)20-14(22)11(15(20)25-17)19-13(21)10(18-3)9-7-5-4-6-8-9/h4-8-10-12-15H-3H2-1-2H3-(H-19-21)(H-23-24)

>  <threshold>
-1

>  <reference>
R1|R19|R6|R27|R27|R30|

>  <group>
B

>  <Class>
-1

>  <ABC>
19.46

>  <ABCGG>
16.93

>  <nAcid>
1

>  <nBase>
0

>  <nAromAtom>
6

>  <nAromBond>
6

>  <nAtom>
44

>  <nHeavyAtom>
25

>  <nSpiro>
0

>  <nBridgehead>
0

>  <nHetero>
8

>  <nN>
3

>  <nO>
4

>  <nF>
0

>  <BalabanJ>
1.63

>  <BertzCT>
736.67

>  <nBonds>
46

>  <nBondsO>
27

>  <nBondsS>
36

>  <nBondsD>
4

>  <nBondsT>
0

>  <nBondsA>
6

>  <nBondsM>
10

>  <nBondsKS>
39

>  <nBondsKD>
7

>  <RNCG>
0.17

>  <RPCG>
0.12

>  <FCSP3>
0.41

>  <SZ>
31.67

>  <Sm>
30.09

>  <Sv>
28.47

>  <Sse>
44.82

>  <Sp>
30.22

>  <Si>
49.58

>  <MZ>
0.72

>  <Mm>
0.68

>  <Mv>
0.65

>  <Mse>
1.02

>  <Mp>
0.69

>  <Mi>
1.13

>  <NsCH3>
2

>  <NdCH2>
1

>  <NssCH2>
0

>  <NtCH>
0

>  <NdsCH>
0

>  <NaaCH>
5

>  <NsssCH>
4

>  <NddC>
0

>  <NtsC>
0

>  <NdssC>
3

>  <NaasC>
1

>  <NaaaC>
0

>  <NssssC>
1

>  <NsNH3>
0

>  <NsNH2>
0

>  <NssNH2>
0

>  <NdNH>
0

>  <NssNH>
1

>  <NaaNH>
0

>  <NtN>
0

>  <NsssNH>
0

>  <NdsN>
1

>  <NaaN>
0

>  <NsssN>
1

>  <NddsN>
0

>  <NaasN>
0

>  <NssssN>
0

>  <NsOH>
1

>  <NdO>
3

>  <NssO>
0

>  <NaaO>
0

>  <NsF>
0

>  <NsSiH3>
0

>  <NssSiH2>
0

>  <NsssSiH>
0

>  <NssssSi>
0

>  <NsPH2>
0

>  <NssPH>
0

>  <NsssP>
0

>  <NdsssP>
0

>  <NsssssP>
0

>  <NsSH>
0

>  <NdS>
0

>  <NssS>
1

>  <NaaS>
0

>  <NdssS>
0

>  <NddssS>
0

>  <NsCl>
0

>  <NsBr>
0

>  <NsI>
0

>  <fragCpx>
129.08

>  <fMF>
0.36

>  <nHBAcc>
5

>  <nHBDon>
2

>  <Kier1>
19.75

>  <Kier2>
7.55

>  <Lipinski>
1

>  <GhoseFilter>
1

>  <FilterItLogS>
-2.25

>  <VMcGowan>
257.48

>  <LabuteASA>
149.04

>  <PEOE_VSA1>
15.32

>  <PEOE_VSA2>
14.58

>  <PEOE_VSA3>
4.79

>  <PEOE_VSA4>
0

>  <PEOE_VSA5>
11.76

>  <PEOE_VSA6>
30.33

>  <PEOE_VSA7>
26.13

>  <PEOE_VSA8>
4.75

>  <PEOE_VSA9>
0

>  <PEOE_VSA10>
17.46

>  <PEOE_VSA11>
6.04

>  <PEOE_VSA12>
11.81

>  <PEOE_VSA13>
0

>  <SMR_VSA1>
19.49

>  <SMR_VSA2>
0

>  <SMR_VSA3>
10.22

>  <SMR_VSA4>
4.99

>  <SMR_VSA5>
42.09

>  <SMR_VSA6>
0

>  <SMR_VSA7>
35.9

>  <SMR_VSA8>
0

>  <SMR_VSA9>
0

>  <SlogP_VSA1>
5.32

>  <SlogP_VSA2>
56.71

>  <SlogP_VSA3>
14.38

>  <SlogP_VSA4>
0

>  <SlogP_VSA5>
25.45

>  <SlogP_VSA6>
35.32

>  <SlogP_VSA7>
0

>  <SlogP_VSA8>
0

>  <SlogP_VSA9>
0

>  <SlogP_VSA10>
0

>  <SlogP_VSA11>
0

>  <EState_VSA1>
34.75

>  <EState_VSA2>
11.28

>  <EState_VSA3>
5.56

>  <EState_VSA4>
0

>  <EState_VSA5>
16.66

>  <EState_VSA6>
38.11

>  <EState_VSA7>
6.07

>  <EState_VSA8>
17.03

>  <EState_VSA9>
0

>  <EState_VSA10>
19.49

>  <VSA_EState1>
-0.62

>  <VSA_EState2>
41.68

>  <VSA_EState3>
11.74

>  <VSA_EState4>
0.68

>  <VSA_EState5>
-1.83

>  <VSA_EState6>
6.51

>  <VSA_EState7>
0

>  <VSA_EState8>
7.05

>  <VSA_EState9>
0

>  <apol>
50.47

>  <bpol>
27.54

>  <nRing>
3

>  <nHRing>
2

>  <naRing>
1

>  <naHRing>
0

>  <nARing 2>
2

>  <nAHRing 2>
2

>  <nFRing>
1

>  <nFHRing>
1

>  <nFaRing>
0

>  <nFaHRing>
0

>  <nFARing 2>
1

>  <nFAHRing 2>
1

>  <nRot>
5

>  <SLogP>
1.06

>  <SMR>
94.39

>  <TopoPSA(NO)>
99.07

>  <TopoPSA>
124.37

>  <JGI1>
0.22

>  <JGI2>
0.1

>  <JGI3>
0.09

>  <JGI4>
0.05

>  <JGI5>
0.03

>  <Diameter>
12

>  <Radius>
6

>  <TMWC10>
129.62

>  <TSRW10>
75.64

>  <MW>
361.11

>  <AMW>
8.21

>  <WPath>
1507

>  <WPol>
41

>  <Zagreb1>
136

>  <Zagreb2>
166

>  <mZagreb2>
5.43

>  <yes>


>  <nAR-cont>
1

>  <nHA-cont>
0.921834225

>  <MWHBN>
0.368364935

>  <MWHBN-cont>
0.600209744

>  <TPSA-cont>
0

>  <pka_cont>
0.97

>  <yes.1>


>  <BBB_SCORE>
3.307148841

>  <MMFF94 Energy>
94.363

$$$$
Compound 820
Actelion Java MolfileCreator 2.0

  0  0  0  0  0  0              0 V3000
M  V30 BEGIN CTAB
M  V30 COUNTS 53 56 0 0 0
M  V30 BEGIN ATOM
M  V30 1 O -2.7426 -3.9545 4.197 0
M  V30 2 C -2.5827 -3.1264 3.3096 0
M  V30 3 C -2.1867 -1.7381 3.6149 0
M  V30 4 C -2.7734 -3.4727 1.8913 0
M  V30 5 C -2.0035 -0.8188 2.6497 0
M  V30 6 C -2.5928 -2.5582 0.9297 0
M  V30 7 C -2.1848 -1.1049 1.1478 0
M  V30 8 C -1.5308 0.5633 3.018 0
M  V30 9 C -0.817 -0.7546 0.4257 0
M  V30 10 C -3.3617 -0.2588 0.6096 0
M  V30 11 C -0.2156 0.8728 2.3147 0
M  V30 12 C -0.7943 -0.9764 -1.1213 0
M  V30 13 C -0.3332 0.6957 0.7928 0
M  V30 14 O -0.9611 -2.3545 -1.4533 0
M  V30 15 C 0.5205 -0.5321 -1.7974 0
M  V30 16 C 1.0036 0.9841 0.0983 0
M  V30 17 C 0.9138 0.9055 -1.439 0
M  V30 18 C 1.6732 2.3322 0.3485 0
M  V30 19 C 2.3476 1.373 -1.8427 0
M  V30 20 C -0.1366 1.8742 -2.0556 0
M  V30 21 C 2.6399 2.5182 -0.8346 0
M  V30 22 O 2.3681 1.9012 -3.1664 0
M  V30 23 C 3.4219 0.2574 -1.7278 0
M  V30 24 O 3.9813 -0.0148 -0.6634 0
M  V30 25 C 3.7706 -0.5036 -2.9845 0
M  V30 26 H -2.0377 -1.5241 4.6674 0
M  V30 27 H -3.0828 -4.4884 1.6779 0
M  V30 28 H -2.7986 -2.8699 -0.0925 0
M  V30 29 H -1.3843 0.662 4.1006 0
M  V30 30 H -2.2918 1.3032 2.7451 0
M  V30 31 H -0.0718 -1.4541 0.8396 0
M  V30 32 H -3.591 -0.4988 -0.4348 0
M  V30 33 H -3.1693 0.8167 0.6566 0
M  V30 34 H -4.2773 -0.443 1.1867 0
M  V30 35 H 0.0734 1.9024 2.5556 0
M  V30 36 H 0.576 0.2211 2.7069 0
M  V30 37 H -1.6301 -0.4452 -1.5846 0
M  V30 38 H -1.0735 1.4237 0.4449 0
M  V30 39 H -0.2593 -2.8602 -1.0061 0
M  V30 40 H 0.43 -0.6504 -2.8848 0
M  V30 41 H 1.3059 -1.2369 -1.496 0
M  V30 42 H 1.7059 0.2162 0.456 0
M  V30 43 H 0.9397 3.1462 0.3693 0
M  V30 44 H 2.2104 2.3488 1.3025 0
M  V30 45 H 0.0988 2.9249 -1.8576 0
M  V30 46 H -0.1808 1.7513 -3.1442 0
M  V30 47 H -1.1495 1.7041 -1.6825 0
M  V30 48 H 2.4819 3.505 -1.2865 0
M  V30 49 H 3.6778 2.5033 -0.4838 0
M  V30 50 H 3.1678 2.4495 -3.2599 0
M  V30 51 H 4.3502 -1.3934 -2.7225 0
M  V30 52 H 4.3711 0.1304 -3.641 0
M  V30 53 H 2.8636 -0.8257 -3.4999 0
M  V30 END ATOM
M  V30 BEGIN BOND
M  V30 1 2 1 2
M  V30 2 1 2 3
M  V30 3 1 2 4
M  V30 4 2 3 5
M  V30 5 2 4 6
M  V30 6 1 5 7
M  V30 7 1 5 8
M  V30 8 1 7 9
M  V30 9 1 7 10
M  V30 10 1 8 11
M  V30 11 1 9 12
M  V30 12 1 9 13
M  V30 13 1 12 14
M  V30 14 1 12 15
M  V30 15 1 13 16
M  V30 16 1 15 17
M  V30 17 1 16 18
M  V30 18 1 17 19
M  V30 19 1 17 20
M  V30 20 1 18 21
M  V30 21 1 19 22
M  V30 22 1 19 23
M  V30 23 2 23 24
M  V30 24 1 23 25
M  V30 25 1 6 7
M  V30 26 1 11 13
M  V30 27 1 16 17
M  V30 28 1 19 21
M  V30 29 1 3 26
M  V30 30 1 4 27
M  V30 31 1 6 28
M  V30 32 1 8 29
M  V30 33 1 8 30
M  V30 34 1 9 31
M  V30 35 1 10 32
M  V30 36 1 10 33
M  V30 37 1 10 34
M  V30 38 1 11 35
M  V30 39 1 11 36
M  V30 40 1 12 37
M  V30 41 1 13 38
M  V30 42 1 14 39
M  V30 43 1 15 40
M  V30 44 1 15 41
M  V30 45 1 16 42
M  V30 46 1 18 43
M  V30 47 1 18 44
M  V30 48 1 20 45
M  V30 49 1 20 46
M  V30 50 1 20 47
M  V30 51 1 21 48
M  V30 52 1 21 49
M  V30 53 1 22 50
M  V30 54 1 25 51
M  V30 55 1 25 52
M  V30 56 1 25 53
M  V30 END BOND
M  V30 END CTAB
M  END
>  <Column 1>
984

>  <level_0>
1120

>  <index>
1120

>  <Unnamed: 0>
1120

>  <NO.>
1132

>  <Name>
deprodone

>  <IUPAC_name>
17-acetyl-11-17-dihydroxy-10-13-dimethyl-7-8-9-11-12-14-15-16-octahydro-6h-cyclopenta[a]phenanthren-3-one

>  <SMILES>
CC(=O)C1(O)CCC2C3CCC4=CC(=O)C=CC4(C)C3C(O)CC21C

>  <CID>
89339

>  <logBB>


>  <BBB+/BBB->
BBB+

>  <Inchi>
InChI=1S/C21H28O4/c1-12(22)21(25)9-7-16-15-5-4-13-10-14(23)6-8-19(13-2)18(15)17(24)11-20(16-21)3/h6-8-10-15-18-24-25H-4-5-7-9-11H2-1-3H3

>  <threshold>
-1

>  <reference>
R1|R19|R27|R27|R30|

>  <group>
B

>  <Class>
1

>  <ABC>
20.25

>  <ABCGG>
16.73

>  <nAcid>
0

>  <nBase>
0

>  <nAromAtom>
0

>  <nAromBond>
0

>  <nAtom>
53

>  <nHeavyAtom>
25

>  <nSpiro>
0

>  <nBridgehead>
0

>  <nHetero>
4

>  <nN>
0

>  <nO>
4

>  <nF>
0

>  <BalabanJ>
1.69

>  <BertzCT>
706.68

>  <nBonds>
56

>  <nBondsO>
28

>  <nBondsS>
52

>  <nBondsD>
4

>  <nBondsT>
0

>  <nBondsA>
0

>  <nBondsM>
4

>  <nBondsKS>
52

>  <nBondsKD>
4

>  <RNCG>
0.21

>  <RPCG>
0.11

>  <FCSP3>
0.71

>  <SZ>
31

>  <Sm>
28.68

>  <Sv>
31.44

>  <Sse>
52.75

>  <Sp>
34.1

>  <Si>
59.65

>  <MZ>
0.58

>  <Mm>
0.54

>  <Mv>
0.59

>  <Mse>
1

>  <Mp>
0.64

>  <Mi>
1.13

>  <NsCH3>
3

>  <NdCH2>
0

>  <NssCH2>
5

>  <NtCH>
0

>  <NdsCH>
3

>  <NaaCH>
0

>  <NsssCH>
4

>  <NddC>
0

>  <NtsC>
0

>  <NdssC>
3

>  <NaasC>
0

>  <NaaaC>
0

>  <NssssC>
3

>  <NsNH3>
0

>  <NsNH2>
0

>  <NssNH2>
0

>  <NdNH>
0

>  <NssNH>
0

>  <NaaNH>
0

>  <NtN>
0

>  <NsssNH>
0

>  <NdsN>
0

>  <NaaN>
0

>  <NsssN>
0

>  <NddsN>
0

>  <NaasN>
0

>  <NssssN>
0

>  <NsOH>
2

>  <NdO>
2

>  <NssO>
0

>  <NaaO>
0

>  <NsF>
0

>  <NsSiH3>
0

>  <NssSiH2>
0

>  <NsssSiH>
0

>  <NssssSi>
0

>  <NsPH2>
0

>  <NssPH>
0

>  <NsssP>
0

>  <NdsssP>
0

>  <NsssssP>
0

>  <NsSH>
0

>  <NdS>
0

>  <NssS>
0

>  <NaaS>
0

>  <NdssS>
0

>  <NddssS>
0

>  <NsCl>
0

>  <NsBr>
0

>  <NsI>
0

>  <fragCpx>
184.04

>  <fMF>
0.32

>  <nHBAcc>
4

>  <nHBDon>
2

>  <Kier1>
18.37

>  <Kier2>
5.75

>  <Lipinski>
1

>  <GhoseFilter>
1

>  <FilterItLogS>
-2.74

>  <VMcGowan>
269.59

>  <LabuteASA>
148.55

>  <PEOE_VSA1>
10.21

>  <PEOE_VSA2>
9.59

>  <PEOE_VSA3>
0

>  <PEOE_VSA4>
0

>  <PEOE_VSA5>
0

>  <PEOE_VSA6>
25.5

>  <PEOE_VSA7>
63.02

>  <PEOE_VSA8>
16.75

>  <PEOE_VSA9>
6.1

>  <PEOE_VSA10>
5.6

>  <PEOE_VSA11>
11.57

>  <PEOE_VSA12>
0

>  <PEOE_VSA13>
0

>  <SMR_VSA1>
19.8

>  <SMR_VSA2>
0

>  <SMR_VSA3>
0

>  <SMR_VSA4>
28.58

>  <SMR_VSA5>
64.58

>  <SMR_VSA6>
0

>  <SMR_VSA7>
23.8

>  <SMR_VSA8>
0

>  <SMR_VSA9>
0

>  <SlogP_VSA1>
0

>  <SlogP_VSA2>
33.48

>  <SlogP_VSA3>
9.59

>  <SlogP_VSA4>
28.58

>  <SlogP_VSA5>
52.88

>  <SlogP_VSA6>
23.8

>  <SlogP_VSA7>
0

>  <SlogP_VSA8>
0

>  <SlogP_VSA9>
0

>  <SlogP_VSA10>
0

>  <SlogP_VSA11>
0

>  <EState_VSA1>
17.12

>  <EState_VSA2>
34.74

>  <EState_VSA3>
12.84

>  <EState_VSA4>
24.84

>  <EState_VSA5>
6.92

>  <EState_VSA6>
12.15

>  <EState_VSA7>
13

>  <EState_VSA8>
6.92

>  <EState_VSA9>
0

>  <EState_VSA10>
19.8

>  <VSA_EState1>
0

>  <VSA_EState2>
24.03

>  <VSA_EState3>
22.26

>  <VSA_EState4>
-1.05

>  <VSA_EState5>
0.41

>  <VSA_EState6>
0

>  <VSA_EState7>
8.32

>  <VSA_EState8>
5.61

>  <VSA_EState9>
0

>  <apol>
56.95

>  <bpol>
29.83

>  <nRing>
4

>  <nHRing>
0

>  <naRing>
0

>  <naHRing>
0

>  <nARing 2>
4

>  <nAHRing 2>
0

>  <nFRing>
1

>  <nFHRing>
0

>  <nFaRing>
0

>  <nFaHRing>
0

>  <nFARing 2>
1

>  <nFAHRing 2>
0

>  <nRot>
1

>  <SLogP>
2.59

>  <SMR>
93.64

>  <TopoPSA(NO)>
74.6

>  <TopoPSA>
74.6

>  <JGI1>
0.3

>  <JGI2>
0.14

>  <JGI3>
0.07

>  <JGI4>
0.06

>  <JGI5>
0.04

>  <Diameter>
11

>  <Radius>
6

>  <TMWC10>
132.97

>  <TSRW10>
76.07

>  <MW>
344.2

>  <AMW>
6.49

>  <WPath>
1265

>  <WPol>
57

>  <Zagreb1>
150

>  <Zagreb2>
193

>  <mZagreb2>
5.1

>  <yes>


>  <nAR-cont>
0.199399

>  <nHA-cont>
0.921834225

>  <MWHBN>
0.32340432

>  <MWHBN-cont>
0.765650291

>  <TPSA-cont>
0.479245676

>  <pka_cont>
0.97

>  <yes.1>


>  <BBB_SCORE>
3.713200014

>  <MMFF94 Energy>
113.13

$$$$
Compound 821
Actelion Java MolfileCreator 2.0

  0  0  0  0  0  0              0 V3000
M  V30 BEGIN CTAB
M  V30 COUNTS 62 66 0 0 0
M  V30 BEGIN ATOM
M  V30 1 O 0.5645 6.5472 2.2595 0
M  V30 2 C 0.3917 5.5956 1.502 0
M  V30 3 C 1.5492 4.7645 1.1 0
M  V30 4 C -0.9475 5.2878 0.8873 0
M  V30 5 C 1.409 3.693 0.299 0
M  V30 6 C -1.0954 3.791 0.6546 0
M  V30 7 C 0.0541 3.1688 -0.1942 0
M  V30 8 C 2.6359 2.9565 -0.1828 0
M  V30 9 C -0.0051 1.5983 -0.0271 0
M  V30 10 C -0.1198 3.6053 -1.667 0
M  V30 11 C 2.5248 1.4589 0.0663 0
M  V30 12 C 1.2548 0.8785 -0.5739 0
M  V30 13 C -1.2782 0.9644 -0.6228 0
M  V30 14 C 1.2052 -0.6582 -0.4166 0
M  V30 15 C -1.3318 -0.5457 -0.3856 0
M  V30 16 C -0.099 -1.3115 -0.9347 0
M  V30 17 C 1.3197 -1.181 1.0262 0
M  V30 18 C 0.0054 -2.7581 -0.3426 0
M  V30 19 C -0.1613 -1.3015 -2.4747 0
M  V30 20 C 0.7462 -2.597 0.9884 0
M  V30 21 O -1.2706 -3.3144 -0.0132 0
M  V30 22 C 0.793 -3.7397 -1.2367 0
M  V30 23 O -0.2412 -2.7785 2.0042 0
M  V30 24 C -1.2591 -3.572 1.3958 0
M  V30 25 O 2.0246 -3.7188 -1.3049 0
M  V30 26 C 0.0021 -4.7324 -2.0533 0
M  V30 27 C -2.6117 -3.1974 1.9866 0
M  V30 28 C -0.9702 -5.0542 1.6393 0
M  V30 29 H 2.5137 5.116 1.4504 0
M  V30 30 H -1.731 5.623 1.576 0
M  V30 31 H -1.0461 5.8552 -0.0434 0
M  V30 32 H -2.0683 3.6094 0.1825 0
M  V30 33 H -1.1313 3.2991 1.6369 0
M  V30 34 H 3.5426 3.3295 0.3091 0
M  V30 35 H 2.7684 3.1442 -1.2553 0
M  V30 36 H -0.0346 1.4044 1.0553 0
M  V30 37 H -1.1355 3.4108 -2.0277 0
M  V30 38 H 0.0617 4.6793 -1.7931 0
M  V30 39 H 0.5722 3.0862 -2.3373 0
M  V30 40 H 2.5288 1.2745 1.1479 0
M  V30 41 H 3.4108 0.9609 -0.3456 0
M  V30 42 H 1.3148 1.076 -1.6525 0
M  V30 43 H -2.1703 1.4049 -0.1644 0
M  V30 44 H -1.3494 1.169 -1.6954 0
M  V30 45 H 2.0568 -1.0676 -0.9794 0
M  V30 46 H -2.2514 -0.945 -0.8319 0
M  V30 47 H -1.427 -0.6964 0.6949 0
M  V30 48 H 2.3684 -1.2001 1.3433 0
M  V30 49 H 0.7773 -0.5587 1.7453 0
M  V30 50 H -1.0502 -1.8323 -2.8319 0
M  V30 51 H 0.719 -1.7718 -2.9246 0
M  V30 52 H -0.2021 -0.2868 -2.8815 0
M  V30 53 H 1.5372 -3.3374 1.1523 0
M  V30 54 H -0.4215 -5.496 -1.3972 0
M  V30 55 H 0.6633 -5.2169 -2.7775 0
M  V30 56 H -0.7931 -4.224 -2.6023 0
M  V30 57 H -3.4218 -3.7652 1.5168 0
M  V30 58 H -2.6336 -3.3667 3.0685 0
M  V30 59 H -2.8283 -2.1363 1.8253 0
M  V30 60 H -0.9432 -5.2798 2.7108 0
M  V30 61 H -1.7225 -5.6873 1.157 0
M  V30 62 H 0.0029 -5.3434 1.2283 0
M  V30 END ATOM
M  V30 BEGIN BOND
M  V30 1 2 1 2
M  V30 2 1 2 3
M  V30 3 1 2 4
M  V30 4 2 3 5
M  V30 5 1 4 6
M  V30 6 1 5 7
M  V30 7 1 5 8
M  V30 8 1 7 9
M  V30 9 1 7 10
M  V30 10 1 8 11
M  V30 11 1 9 12
M  V30 12 1 9 13
M  V30 13 1 12 14
M  V30 14 1 13 15
M  V30 15 1 14 16
M  V30 16 1 14 17
M  V30 17 1 16 18
M  V30 18 1 16 19
M  V30 19 1 17 20
M  V30 20 1 18 21
M  V30 21 1 18 22
M  V30 22 1 20 23
M  V30 23 1 21 24
M  V30 24 2 22 25
M  V30 25 1 22 26
M  V30 26 1 24 27
M  V30 27 1 24 28
M  V30 28 1 6 7
M  V30 29 1 11 12
M  V30 30 1 15 16
M  V30 31 1 18 20
M  V30 32 1 23 24
M  V30 33 1 3 29
M  V30 34 1 4 30
M  V30 35 1 4 31
M  V30 36 1 6 32
M  V30 37 1 6 33
M  V30 38 1 8 34
M  V30 39 1 8 35
M  V30 40 1 9 36
M  V30 41 1 10 37
M  V30 42 1 10 38
M  V30 43 1 10 39
M  V30 44 1 11 40
M  V30 45 1 11 41
M  V30 46 1 12 42
M  V30 47 1 13 43
M  V30 48 1 13 44
M  V30 49 1 14 45
M  V30 50 1 15 46
M  V30 51 1 15 47
M  V30 52 1 17 48
M  V30 53 1 17 49
M  V30 54 1 19 50
M  V30 55 1 19 51
M  V30 56 1 19 52
M  V30 57 1 20 53
M  V30 58 1 26 54
M  V30 59 1 26 55
M  V30 60 1 26 56
M  V30 61 1 27 57
M  V30 62 1 27 58
M  V30 63 1 27 59
M  V30 64 1 28 60
M  V30 65 1 28 61
M  V30 66 1 28 62
M  V30 END BOND
M  V30 END CTAB
M  END
>  <Column 1>
985

>  <level_0>
1121

>  <index>
1121

>  <Unnamed: 0>
1121

>  <NO.>
1133

>  <Name>
algestone-acetonide

>  <IUPAC_name>
8-acetyl-6-6-9-13-tetramethyl-5-7-dioxapentacyclo[10.8.0.02-9.04-8.013-18]icos-17-en-16-one

>  <SMILES>
CC(=O)C12OC(C)(C)OC1CC1C3CCC4=CC(=O)CCC4(C)C3CCC12C

>  <CID>
21075

>  <logBB>


>  <BBB+/BBB->
BBB+

>  <Inchi>
InChI=1S/C24H34O4/c1-14(25)24-20(27-21(2-3)28-24)13-19-17-7-6-15-12-16(26)8-10-22(15-4)18(17)9-11-23(19-24)5/h12-17-20H-6-11-13H2-1-5H3

>  <threshold>
-1

>  <reference>
R1|R19|R27|R27|R30|

>  <group>
B

>  <Class>
-1

>  <ABC>
23.11

>  <ABCGG>
18.19

>  <nAcid>
0

>  <nBase>
0

>  <nAromAtom>
0

>  <nAromBond>
0

>  <nAtom>
62

>  <nHeavyAtom>
28

>  <nSpiro>
0

>  <nBridgehead>
0

>  <nHetero>
4

>  <nN>
0

>  <nO>
4

>  <nF>
0

>  <BalabanJ>
1.49

>  <BertzCT>
781.47

>  <nBonds>
66

>  <nBondsO>
32

>  <nBondsS>
63

>  <nBondsD>
3

>  <nBondsT>
0

>  <nBondsA>
0

>  <nBondsM>
3

>  <nBondsKS>
63

>  <nBondsKD>
3

>  <RNCG>
0.19

>  <RPCG>
0.09

>  <FCSP3>
0.83

>  <SZ>
35

>  <Sm>
32.18

>  <Sv>
36.07

>  <Sse>
61.42

>  <Sp>
39.5

>  <Si>
69.9

>  <MZ>
0.56

>  <Mm>
0.52

>  <Mv>
0.58

>  <Mse>
0.99

>  <Mp>
0.64

>  <Mi>
1.13

>  <NsCH3>
5

>  <NdCH2>
0

>  <NssCH2>
7

>  <NtCH>
0

>  <NdsCH>
1

>  <NaaCH>
0

>  <NsssCH>
4

>  <NddC>
0

>  <NtsC>
0

>  <NdssC>
3

>  <NaasC>
0

>  <NaaaC>
0

>  <NssssC>
4

>  <NsNH3>
0

>  <NsNH2>
0

>  <NssNH2>
0

>  <NdNH>
0

>  <NssNH>
0

>  <NaaNH>
0

>  <NtN>
0

>  <NsssNH>
0

>  <NdsN>
0

>  <NaaN>
0

>  <NsssN>
0

>  <NddsN>
0

>  <NaasN>
0

>  <NssssN>
0

>  <NsOH>
0

>  <NdO>
2

>  <NssO>
2

>  <NaaO>
0

>  <NsF>
0

>  <NsSiH3>
0

>  <NssSiH2>
0

>  <NsssSiH>
0

>  <NssssSi>
0

>  <NsPH2>
0

>  <NssPH>
0

>  <NsssP>
0

>  <NdsssP>
0

>  <NsssssP>
0

>  <NsSH>
0

>  <NdS>
0

>  <NssS>
0

>  <NaaS>
0

>  <NdssS>
0

>  <NddssS>
0

>  <NsCl>
0

>  <NsBr>
0

>  <NsI>
0

>  <fragCpx>
268.04

>  <fMF>
0.32

>  <nHBAcc>
4

>  <nHBDon>
0

>  <Kier1>
19.93

>  <Kier2>
6.03

>  <Lipinski>
1

>  <GhoseFilter>
1

>  <FilterItLogS>
-4.84

>  <VMcGowan>
305.3

>  <LabuteASA>
167.96

>  <PEOE_VSA1>
9.47

>  <PEOE_VSA2>
9.59

>  <PEOE_VSA3>
0

>  <PEOE_VSA4>
0

>  <PEOE_VSA5>
0

>  <PEOE_VSA6>
19.42

>  <PEOE_VSA7>
88.54

>  <PEOE_VSA8>
11.84

>  <PEOE_VSA9>
6.1

>  <PEOE_VSA10>
0

>  <PEOE_VSA11>
22.95

>  <PEOE_VSA12>
0

>  <PEOE_VSA13>
0

>  <SMR_VSA1>
19.06

>  <SMR_VSA2>
0

>  <SMR_VSA3>
0

>  <SMR_VSA4>
28.58

>  <SMR_VSA5>
97.06

>  <SMR_VSA6>
0

>  <SMR_VSA7>
11.65

>  <SMR_VSA8>
0

>  <SMR_VSA9>
0

>  <SlogP_VSA1>
0

>  <SlogP_VSA2>
29.06

>  <SlogP_VSA3>
19.06

>  <SlogP_VSA4>
28.58

>  <SlogP_VSA5>
79.56

>  <SlogP_VSA6>
11.65

>  <SlogP_VSA7>
0

>  <SlogP_VSA8>
0

>  <SlogP_VSA9>
0

>  <SlogP_VSA10>
0

>  <SlogP_VSA11>
0

>  <EState_VSA1>
11.39

>  <EState_VSA2>
22.72

>  <EState_VSA3>
29.96

>  <EState_VSA4>
38.52

>  <EState_VSA5>
5.57

>  <EState_VSA6>
6.92

>  <EState_VSA7>
19.92

>  <EState_VSA8>
13.85

>  <EState_VSA9>
9.47

>  <EState_VSA10>
9.59

>  <VSA_EState1>
12.81

>  <VSA_EState2>
25.05

>  <VSA_EState3>
0

>  <VSA_EState4>
0.58

>  <VSA_EState5>
1.39

>  <VSA_EState6>
0

>  <VSA_EState7>
8.71

>  <VSA_EState8>
10.29

>  <VSA_EState9>
0

>  <apol>
65.96

>  <bpol>
39.32

>  <nRing>
5

>  <nHRing>
1

>  <naRing>
0

>  <naHRing>
0

>  <nARing 2>
5

>  <nAHRing 2>
1

>  <nFRing>
1

>  <nFHRing>
1

>  <nFaRing>
0

>  <nFaHRing>
0

>  <nFARing 2>
1

>  <nFAHRing 2>
1

>  <nRot>
1

>  <SLogP>
4.61

>  <SMR>
105.54

>  <TopoPSA(NO)>
52.6

>  <TopoPSA>
52.6

>  <JGI1>
0.33

>  <JGI2>
0.13

>  <JGI3>
0.08

>  <JGI4>
0.06

>  <JGI5>
0.03

>  <Diameter>
12

>  <Radius>
6

>  <TMWC10>
141.81

>  <TSRW10>
82.01

>  <MW>
386.25

>  <AMW>
6.23

>  <WPath>
1738

>  <WPol>
64

>  <Zagreb1>
174

>  <Zagreb2>
225

>  <mZagreb2>
5.58

>  <yes>


>  <nAR-cont>
0

>  <nHA-cont>
0.82432561

>  <MWHBN>
0.203528741

>  <MWHBN-cont>
0.999988966

>  <TPSA-cont>
0.632819337

>  <pka_cont>
0.97

>  <yes.1>


>  <BBB_SCORE>
4.074947734

>  <MMFF94 Energy>
106.02

$$$$
Compound 822
Actelion Java MolfileCreator 2.0

  0  0  0  0  0  0              0 V3000
M  V30 BEGIN CTAB
M  V30 COUNTS 51 54 0 0 0
M  V30 BEGIN ATOM
M  V30 1 O 1.0499 -1.2115 2.8286 0
M  V30 2 C 0.4083 -0.5575 2.0003 0
M  V30 3 C 1.0338 -0.2121 0.6981 0
M  V30 4 C -1.032 -0.1023 2.2725 0 CFG=2
M  V30 5 C 2.244 -0.8247 0.3254 0
M  V30 6 C 0.4216 0.7208 -0.149 0
M  V30 7 O -1.207 -0.0927 3.6973 0
M  V30 8 C -2.0762 -1.0707 1.7523 0
M  V30 9 C -1.2187 1.3193 1.7534 0 CFG=1
M  V30 10 O 2.8684 -1.7329 1.1638 0
M  V30 11 C 2.8822 -0.5456 -0.9094 0
M  V30 12 C 1.01 0.9828 -1.4161 0
M  V30 13 C -0.8569 1.4208 0.2606 0
M  V30 14 O -1.6541 -2.3945 1.7299 0
M  V30 15 C -3.3186 -0.6847 1.3764 0
M  V30 16 C -2.6628 1.7511 2.0483 0 CFG=2
M  V30 17 C 4.1155 -1.1375 -1.3182 0
M  V30 18 C 2.2556 0.3759 -1.7857 0
M  V30 19 C 0.3408 1.9373 -2.389 0
M  V30 20 C -3.6745 0.7672 1.4324 0
M  V30 21 C -4.2973 -1.7267 0.9317 0
M  V30 22 N -2.935 3.1238 1.5676 0
M  V30 23 O 4.7719 -2.0454 -0.5179 0
M  V30 24 C 4.7341 -0.8415 -2.5376 0
M  V30 25 C 2.907 0.6653 -3.0098 0
M  V30 26 O -4.7467 1.1659 0.9757 0
M  V30 27 O -3.884 -2.8365 0.5792 0
M  V30 28 C -5.7733 -1.4305 0.9496 0
M  V30 29 C 4.1163 0.0725 -3.3806 0
M  V30 30 C 6.0328 -1.4841 -2.9279 0
M  V30 31 H -0.7268 -0.8842 4.0225 0
M  V30 32 H -0.5445 1.9863 2.3123 0
M  V30 33 H 2.3618 -1.779 2.0088 0
M  V30 34 H -1.6644 1.0182 -0.3623 0
M  V30 35 H -0.7568 2.4883 0.0276 0
M  V30 36 H -2.3421 -2.9575 1.3016 0
M  V30 37 H -2.8417 1.7527 3.1305 0
M  V30 38 H 0.3063 1.5022 -3.3933 0
M  V30 39 H -0.7013 2.1495 -2.1402 0
M  V30 40 H 0.885 2.8865 -2.4142 0
M  V30 41 H -3.8503 3.4036 1.9349 0
M  V30 42 H -3.0918 3.107 0.5575 0
M  V30 43 H 4.2246 -2.1553 0.2871 0
M  V30 44 H 2.4844 1.3793 -3.7132 0
M  V30 45 H -6.0472 -0.881 1.8539 0
M  V30 46 H -6.0545 -0.875 0.0521 0
M  V30 47 H -6.3258 -2.3753 0.9648 0
M  V30 48 H 4.567 0.3362 -4.3345 0
M  V30 49 H 6.8166 -1.2229 -2.2096 0
M  V30 50 H 6.3641 -1.1506 -3.9169 0
M  V30 51 H 5.9223 -2.5726 -2.9662 0
M  V30 END ATOM
M  V30 BEGIN BOND
M  V30 1 2 1 2
M  V30 2 1 2 3
M  V30 3 1 2 4
M  V30 4 2 3 5
M  V30 5 1 3 6
M  V30 6 1 4 7
M  V30 7 1 4 8
M  V30 8 1 4 9
M  V30 9 1 5 10
M  V30 10 1 5 11
M  V30 11 2 6 12
M  V30 12 1 6 13
M  V30 13 1 8 14
M  V30 14 2 8 15
M  V30 15 1 9 16
M  V30 16 2 11 17
M  V30 17 1 11 18
M  V30 18 1 12 19
M  V30 19 1 15 20
M  V30 20 1 15 21
M  V30 21 1 16 22
M  V30 22 1 17 23
M  V30 23 1 17 24
M  V30 24 2 18 25
M  V30 25 2 20 26
M  V30 26 2 21 27
M  V30 27 1 21 28
M  V30 28 2 24 29
M  V30 29 1 24 30
M  V30 30 1 9 13
M  V30 31 1 12 18
M  V30 32 1 16 20
M  V30 33 1 25 29
M  V30 34 1 7 31
M  V30 35 1 9 32
M  V30 36 1 10 33
M  V30 37 1 13 34
M  V30 38 1 13 35
M  V30 39 1 14 36
M  V30 40 1 16 37
M  V30 41 1 19 38
M  V30 42 1 19 39
M  V30 43 1 19 40
M  V30 44 1 22 41
M  V30 45 1 22 42
M  V30 46 1 23 43
M  V30 47 1 25 44
M  V30 48 1 28 45
M  V30 49 1 28 46
M  V30 50 1 28 47
M  V30 51 1 29 48
M  V30 52 1 30 49
M  V30 53 1 30 50
M  V30 54 1 30 51
M  V30 END BOND
M  V30 BEGIN COLLECTION
M  V30 MDLV30/STEABS ATOMS=(3 4 9 16)
M  V30 END COLLECTION
M  V30 END CTAB
M  END
>  <Column 1>
986

>  <level_0>
1122

>  <index>
1122

>  <Unnamed: 0>
1122

>  <NO.>
1134

>  <Name>
cetocycline

>  <IUPAC_name>
(1r-4ar-12as)-3-acetyl-1-amino-4-4a-6-7-tetrahydroxy-8-11-dimethyl-12-12a-dihydro-1h-tetracene-2-5-dione

>  <SMILES>
CC(=O)C1=C(O)[C@@]2(O)C(=O)c3c(c(C)c4ccc(C)c(O)c4c3O)C[C@H]2[C@@H](N)C1=O

>  <CID>
71402

>  <logBB>


>  <BBB+/BBB->
BBB-

>  <Inchi>
InChI=1S/C22H21NO7/c1-7-4-5-10-8(2)11-6-12-16(23)19(27)13(9(3)24)20(28)22(12-30)21(29)15(11)18(26)14(10)17(7)25/h4-5-12-16-25-26-28-30H-6-23H2-1-3H3/t12--16+-22+/m0/s1

>  <threshold>
-1

>  <reference>
R1|R6|R27|R30|

>  <group>
B

>  <Class>
1

>  <ABC>
23.84

>  <ABCGG>
19.69

>  <nAcid>
0

>  <nBase>
1

>  <nAromAtom>
10

>  <nAromBond>
11

>  <nAtom>
51

>  <nHeavyAtom>
30

>  <nSpiro>
0

>  <nBridgehead>
0

>  <nHetero>
8

>  <nN>
1

>  <nO>
7

>  <nF>
0

>  <BalabanJ>
1.74

>  <BertzCT>
1226.2

>  <nBonds>
54

>  <nBondsO>
33

>  <nBondsS>
39

>  <nBondsD>
4

>  <nBondsT>
0

>  <nBondsA>
11

>  <nBondsM>
15

>  <nBondsKS>
45

>  <nBondsKD>
9

>  <RNCG>
0.15

>  <RPCG>
0.09

>  <FCSP3>
0.32

>  <SZ>
36

>  <Sm>
34.25

>  <Sv>
33.45

>  <Sse>
52.3

>  <Sp>
34.41

>  <Si>
57.12

>  <MZ>
0.71

>  <Mm>
0.67

>  <Mv>
0.66

>  <Mse>
1.03

>  <Mp>
0.67

>  <Mi>
1.12

>  <NsCH3>
3

>  <NdCH2>
0

>  <NssCH2>
1

>  <NtCH>
0

>  <NdsCH>
0

>  <NaaCH>
2

>  <NsssCH>
2

>  <NddC>
0

>  <NtsC>
0

>  <NdssC>
5

>  <NaasC>
6

>  <NaaaC>
2

>  <NssssC>
1

>  <NsNH3>
0

>  <NsNH2>
1

>  <NssNH2>
0

>  <NdNH>
0

>  <NssNH>
0

>  <NaaNH>
0

>  <NtN>
0

>  <NsssNH>
0

>  <NdsN>
0

>  <NaaN>
0

>  <NsssN>
0

>  <NddsN>
0

>  <NaasN>
0

>  <NssssN>
0

>  <NsOH>
4

>  <NdO>
3

>  <NssO>
0

>  <NaaO>
0

>  <NsF>
0

>  <NsSiH3>
0

>  <NssSiH2>
0

>  <NsssSiH>
0

>  <NssssSi>
0

>  <NsPH2>
0

>  <NssPH>
0

>  <NsssP>
0

>  <NdsssP>
0

>  <NsssssP>
0

>  <NsSH>
0

>  <NdS>
0

>  <NssS>
0

>  <NaaS>
0

>  <NdssS>
0

>  <NddssS>
0

>  <NsCl>
0

>  <NsBr>
0

>  <NsI>
0

>  <fragCpx>
219.08

>  <fMF>
0.35

>  <nHBAcc>
8

>  <nHBDon>
5

>  <Kier1>
23.17

>  <Kier2>
7.8

>  <Lipinski>
1

>  <GhoseFilter>
1

>  <FilterItLogS>
-3.63

>  <VMcGowan>
289.77

>  <LabuteASA>
170.79

>  <PEOE_VSA1>
26.16

>  <PEOE_VSA2>
14.38

>  <PEOE_VSA3>
0

>  <PEOE_VSA4>
0

>  <PEOE_VSA5>
0

>  <PEOE_VSA6>
12.13

>  <PEOE_VSA7>
49.27

>  <PEOE_VSA8>
5.92

>  <PEOE_VSA9>
16.99

>  <PEOE_VSA10>
22.83

>  <PEOE_VSA11>
17.17

>  <PEOE_VSA12>
5.78

>  <PEOE_VSA13>
0

>  <SMR_VSA1>
34.81

>  <SMR_VSA2>
0

>  <SMR_VSA3>
0

>  <SMR_VSA4>
11.65

>  <SMR_VSA5>
38.83

>  <SMR_VSA6>
0

>  <SMR_VSA7>
45.72

>  <SMR_VSA8>
0

>  <SMR_VSA9>
11.5

>  <SlogP_VSA1>
5.73

>  <SlogP_VSA2>
49.42

>  <SlogP_VSA3>
16.01

>  <SlogP_VSA4>
19.77

>  <SlogP_VSA5>
33.97

>  <SlogP_VSA6>
23.47

>  <SlogP_VSA7>
0

>  <SlogP_VSA8>
10.77

>  <SlogP_VSA9>
0

>  <SlogP_VSA10>
0

>  <SlogP_VSA11>
11.5

>  <EState_VSA1>
51.99

>  <EState_VSA2>
23.12

>  <EState_VSA3>
22.08

>  <EState_VSA4>
6.92

>  <EState_VSA5>
0

>  <EState_VSA6>
25.98

>  <EState_VSA7>
0

>  <EState_VSA8>
0

>  <EState_VSA9>
5.73

>  <EState_VSA10>
34.81

>  <VSA_EState1>
0

>  <VSA_EState2>
37.94

>  <VSA_EState3>
43.88

>  <VSA_EState4>
3.8

>  <VSA_EState5>
-5.76

>  <VSA_EState6>
1.97

>  <VSA_EState7>
-0.09

>  <VSA_EState8>
4.35

>  <VSA_EState9>
0

>  <apol>
57.46

>  <bpol>
23.1

>  <nRing>
4

>  <nHRing>
0

>  <naRing>
2

>  <naHRing>
0

>  <nARing 2>
2

>  <nAHRing 2>
0

>  <nFRing>
1

>  <nFHRing>
0

>  <nFaRing>
0

>  <nFaHRing>
0

>  <nFARing 2>
1

>  <nFAHRing 2>
0

>  <nRot>
1

>  <SLogP>
1.27

>  <SMR>
106.54

>  <TopoPSA(NO)>
158.15

>  <TopoPSA>
158.15

>  <JGI1>
0.23

>  <JGI2>
0.12

>  <JGI3>
0.07

>  <JGI4>
0.07

>  <JGI5>
0.03

>  <Diameter>
11

>  <Radius>
6

>  <TMWC10>
144.07

>  <TSRW10>
67.13

>  <MW>
411.13

>  <AMW>
8.06

>  <WPath>
2046

>  <WPol>
71

>  <Zagreb1>
174

>  <Zagreb2>
224

>  <mZagreb2>
6.31

>  <yes>


>  <nAR-cont>
1

>  <nHA-cont>
0.74523694

>  <MWHBN>
0.641141322

>  <MWHBN-cont>
0

>  <TPSA-cont>
0

>  <pka_cont>
0.97

>  <yes.1>


>  <BBB_SCORE>
2.23023694

>  <MMFF94 Energy>
126.2

$$$$
Compound 823
Actelion Java MolfileCreator 2.0

  0  0  0  0  0  0              0 V3000
M  V30 BEGIN CTAB
M  V30 COUNTS 55 58 0 0 0
M  V30 BEGIN ATOM
M  V30 1 O 2.7357 2.7357 4.7508 0
M  V30 2 C 1.8821 2.3919 3.9431 0
M  V30 3 C 1.4577 0.9835 3.8269 0
M  V30 4 C 1.2369 3.3607 3.0484 0
M  V30 5 C 0.5205 0.5705 2.9506 0
M  V30 6 C 0.3013 2.9671 2.1764 0
M  V30 7 C -0.2069 1.5401 1.9832 0
M  V30 8 C 0.1398 -0.8975 2.8091 0
M  V30 9 C 0.0231 1.0391 0.4923 0
M  V30 10 C -1.7091 1.5869 2.3501 0
M  V30 11 C 0.4705 -1.3359 1.38 0
M  V30 12 C 0.7878 -1.8736 3.8008 0
M  V30 13 C -0.7744 1.8016 -0.6052 0
M  V30 14 C -0.2719 -0.4857 0.3375 0
M  V30 15 O -0.4517 3.1885 -0.6132 0
M  V30 16 C -0.4604 1.2755 -2.012 0
M  V30 17 C -0.0113 -1.0339 -1.0832 0
M  V30 18 C -0.7081 -0.2391 -2.2013 0
M  V30 19 C 1.4637 -1.0897 -1.5132 0
M  V30 20 C 0.0302 -0.7249 -3.4772 0
M  V30 21 C -2.2233 -0.4976 -2.2464 0
M  V30 22 C 1.4828 -0.9426 -3.0372 0
M  V30 23 C -0.5721 -1.9455 -4.1819 0
M  V30 24 O -1.2509 -1.7912 -5.2018 0
M  V30 25 C -0.418 -3.3228 -3.5855 0
M  V30 26 H 1.9844 0.3184 4.5001 0
M  V30 27 H 1.5462 4.394 3.1436 0
M  V30 28 H -0.1564 3.7479 1.5746 0
M  V30 29 H -0.9416 -0.9877 2.9688 0
M  V30 30 H 1.091 1.2055 0.2862 0
M  V30 31 H -2.226 0.6467 2.1379 0
M  V30 32 H -2.2387 2.3724 1.7978 0
M  V30 33 H -1.8502 1.7988 3.4178 0
M  V30 34 H 1.5546 -1.2753 1.2178 0
M  V30 35 H 0.1911 -2.3893 1.2486 0
M  V30 36 H 0.4082 -2.8891 3.6407 0
M  V30 37 H 0.5538 -1.5991 4.8352 0
M  V30 38 H 1.8768 -1.9083 3.6867 0
M  V30 39 H -1.8485 1.7221 -0.4111 0
M  V30 40 H -1.345 -0.6303 0.5238 0
M  V30 41 H -0.9729 3.6147 -1.3164 0
M  V30 42 H -1.0462 1.8408 -2.7501 0
M  V30 43 H 0.5824 1.5333 -2.2419 0
M  V30 44 H -0.3872 -2.0654 -1.0971 0
M  V30 45 H 1.921 -2.0375 -1.2085 0
M  V30 46 H 2.0597 -0.2892 -1.0634 0
M  V30 47 H 0.0201 0.067 -4.2396 0
M  V30 48 H -2.4571 -1.5648 -2.3035 0
M  V30 49 H -2.7323 -0.118 -1.3554 0
M  V30 50 H -2.6754 -0.0094 -3.1169 0
M  V30 51 H 1.9632 -1.7981 -3.5212 0
M  V30 52 H 2.0868 -0.0655 -3.3012 0
M  V30 53 H -1.1188 -3.4548 -2.7595 0
M  V30 54 H 0.6015 -3.5018 -3.2437 0
M  V30 55 H -0.6417 -4.0694 -4.3539 0
M  V30 END ATOM
M  V30 BEGIN BOND
M  V30 1 2 1 2
M  V30 2 1 2 3
M  V30 3 1 2 4
M  V30 4 2 3 5
M  V30 5 2 4 6
M  V30 6 1 5 7
M  V30 7 1 5 8
M  V30 8 1 7 9
M  V30 9 1 7 10
M  V30 10 1 8 11
M  V30 11 1 8 12
M  V30 12 1 9 13
M  V30 13 1 9 14
M  V30 14 1 13 15
M  V30 15 1 13 16
M  V30 16 1 14 17
M  V30 17 1 16 18
M  V30 18 1 17 19
M  V30 19 1 18 20
M  V30 20 1 18 21
M  V30 21 1 19 22
M  V30 22 1 20 23
M  V30 23 2 23 24
M  V30 24 1 23 25
M  V30 25 1 6 7
M  V30 26 1 11 14
M  V30 27 1 17 18
M  V30 28 1 20 22
M  V30 29 1 3 26
M  V30 30 1 4 27
M  V30 31 1 6 28
M  V30 32 1 8 29
M  V30 33 1 9 30
M  V30 34 1 10 31
M  V30 35 1 10 32
M  V30 36 1 10 33
M  V30 37 1 11 34
M  V30 38 1 11 35
M  V30 39 1 12 36
M  V30 40 1 12 37
M  V30 41 1 12 38
M  V30 42 1 13 39
M  V30 43 1 14 40
M  V30 44 1 15 41
M  V30 45 1 16 42
M  V30 46 1 16 43
M  V30 47 1 17 44
M  V30 48 1 19 45
M  V30 49 1 19 46
M  V30 50 1 20 47
M  V30 51 1 21 48
M  V30 52 1 21 49
M  V30 53 1 21 50
M  V30 54 1 22 51
M  V30 55 1 22 52
M  V30 56 1 25 53
M  V30 57 1 25 54
M  V30 58 1 25 55
M  V30 END BOND
M  V30 END CTAB
M  END
>  <Column 1>
987

>  <level_0>
1123

>  <index>
1123

>  <Unnamed: 0>
1123

>  <NO.>
1135

>  <Name>
endrysone (endrisone)

>  <IUPAC_name>
17-acetyl-11-hydroxy-6-10-13-trimethyl-6-7-8-9-11-12-14-15-16-17-decahydrocyclopenta[a]phenanthren-3-one

>  <SMILES>
CC(=O)C1CCC2C3CC(C)C4=CC(=O)C=CC4(C)C3C(O)CC12C

>  <CID>
37049

>  <logBB>


>  <BBB+/BBB->
BBB+

>  <Inchi>
InChI=1S/C22H30O3/c1-12-9-15-17-6-5-16(13(2)23)22(17-4)11-19(25)20(15)21(3)8-7-14(24)10-18(12)21/h7-8-10-12-15-17-19-20-25H-5-6-9-11H2-1-4H3

>  <threshold>
-1

>  <reference>
R1|R19|R27|R30|

>  <group>
B

>  <Class>
1

>  <ABC>
20.22

>  <ABCGG>
16.73

>  <nAcid>
0

>  <nBase>
0

>  <nAromAtom>
0

>  <nAromBond>
0

>  <nAtom>
55

>  <nHeavyAtom>
25

>  <nSpiro>
0

>  <nBridgehead>
0

>  <nHetero>
3

>  <nN>
0

>  <nO>
3

>  <nF>
0

>  <BalabanJ>
1.69

>  <BertzCT>
689.39

>  <nBonds>
58

>  <nBondsO>
28

>  <nBondsS>
54

>  <nBondsD>
4

>  <nBondsT>
0

>  <nBondsA>
0

>  <nBondsM>
4

>  <nBondsKS>
54

>  <nBondsKD>
4

>  <RNCG>
0.25

>  <RPCG>
0.13

>  <FCSP3>
0.73

>  <SZ>
31

>  <Sm>
28.51

>  <Sv>
32.27

>  <Sse>
54.31

>  <Sp>
35.42

>  <Si>
61.86

>  <MZ>
0.56

>  <Mm>
0.52

>  <Mv>
0.59

>  <Mse>
0.99

>  <Mp>
0.64

>  <Mi>
1.12

>  <NsCH3>
4

>  <NdCH2>
0

>  <NssCH2>
4

>  <NtCH>
0

>  <NdsCH>
3

>  <NaaCH>
0

>  <NsssCH>
6

>  <NddC>
0

>  <NtsC>
0

>  <NdssC>
3

>  <NaasC>
0

>  <NaaaC>
0

>  <NssssC>
2

>  <NsNH3>
0

>  <NsNH2>
0

>  <NssNH2>
0

>  <NdNH>
0

>  <NssNH>
0

>  <NaaNH>
0

>  <NtN>
0

>  <NsssNH>
0

>  <NdsN>
0

>  <NaaN>
0

>  <NsssN>
0

>  <NddsN>
0

>  <NaasN>
0

>  <NssssN>
0

>  <NsOH>
1

>  <NdO>
2

>  <NssO>
0

>  <NaaO>
0

>  <NsF>
0

>  <NsSiH3>
0

>  <NssSiH2>
0

>  <NsssSiH>
0

>  <NssssSi>
0

>  <NsPH2>
0

>  <NssPH>
0

>  <NsssP>
0

>  <NdsssP>
0

>  <NsssssP>
0

>  <NsSH>
0

>  <NdS>
0

>  <NssS>
0

>  <NaaS>
0

>  <NdssS>
0

>  <NddssS>
0

>  <NsCl>
0

>  <NsBr>
0

>  <NsI>
0

>  <fragCpx>
184.03

>  <fMF>
0.31

>  <nHBAcc>
3

>  <nHBDon>
1

>  <Kier1>
18.37

>  <Kier2>
6

>  <Lipinski>
1

>  <GhoseFilter>
1

>  <FilterItLogS>
-3.25

>  <VMcGowan>
277.81

>  <LabuteASA>
150.12

>  <PEOE_VSA1>
5.11

>  <PEOE_VSA2>
9.59

>  <PEOE_VSA3>
0

>  <PEOE_VSA4>
0

>  <PEOE_VSA5>
0

>  <PEOE_VSA6>
32.42

>  <PEOE_VSA7>
67.93

>  <PEOE_VSA8>
17.25

>  <PEOE_VSA9>
6.1

>  <PEOE_VSA10>
5.78

>  <PEOE_VSA11>
5.78

>  <PEOE_VSA12>
0

>  <PEOE_VSA13>
0

>  <SMR_VSA1>
14.7

>  <SMR_VSA2>
0

>  <SMR_VSA3>
0

>  <SMR_VSA4>
40.42

>  <SMR_VSA5>
59.48

>  <SMR_VSA6>
0

>  <SMR_VSA7>
23.8

>  <SMR_VSA8>
0

>  <SMR_VSA9>
0

>  <SlogP_VSA1>
0

>  <SlogP_VSA2>
22.78

>  <SlogP_VSA3>
9.59

>  <SlogP_VSA4>
40.42

>  <SlogP_VSA5>
53.38

>  <SlogP_VSA6>
23.8

>  <SlogP_VSA7>
0

>  <SlogP_VSA8>
0

>  <SlogP_VSA9>
0

>  <SlogP_VSA10>
0

>  <SlogP_VSA11>
0

>  <EState_VSA1>
6.1

>  <EState_VSA2>
34.23

>  <EState_VSA3>
24.17

>  <EState_VSA4>
19.26

>  <EState_VSA5>
5.57

>  <EState_VSA6>
13

>  <EState_VSA7>
6.08

>  <EState_VSA8>
26.85

>  <EState_VSA9>
0

>  <EState_VSA10>
14.7

>  <VSA_EState1>
0

>  <VSA_EState2>
24.16

>  <VSA_EState3>
11.22

>  <VSA_EState4>
0.9

>  <VSA_EState5>
1.89

>  <VSA_EState6>
0

>  <VSA_EState7>
8.94

>  <VSA_EState8>
8.4

>  <VSA_EState9>
0

>  <apol>
59.15

>  <bpol>
31.83

>  <nRing>
4

>  <nHRing>
0

>  <naRing>
0

>  <naHRing>
0

>  <nARing 2>
4

>  <nAHRing 2>
0

>  <nFRing>
1

>  <nFHRing>
0

>  <nFaRing>
0

>  <nFaHRing>
0

>  <nFARing 2>
1

>  <nFAHRing 2>
0

>  <nRot>
1

>  <SLogP>
3.72

>  <SMR>
96.72

>  <TopoPSA(NO)>
54.37

>  <TopoPSA>
54.37

>  <JGI1>
0.29

>  <JGI2>
0.12

>  <JGI3>
0.08

>  <JGI4>
0.06

>  <JGI5>
0.04

>  <Diameter>
11

>  <Radius>
6

>  <TMWC10>
132.59

>  <TSRW10>
75.59

>  <MW>
342.22

>  <AMW>
6.22

>  <WPath>
1261

>  <WPol>
54

>  <Zagreb1>
148

>  <Zagreb2>
188

>  <mZagreb2>
5.14

>  <yes>


>  <nAR-cont>
0.199399

>  <nHA-cont>
0.921834225

>  <MWHBN>
0.216225693

>  <MWHBN-cont>
0.997067723

>  <TPSA-cont>
0.620463638

>  <pka_cont>
0.97

>  <yes.1>


>  <BBB_SCORE>
4.342762086

>  <MMFF94 Energy>
90.705

$$$$
Compound 824
Actelion Java MolfileCreator 2.0

  0  0  0  0  0  0              0 V3000
M  V30 BEGIN CTAB
M  V30 COUNTS 66 69 0 0 0
M  V30 BEGIN ATOM
M  V30 1 O -1.282 4.4927 -2.9666 0
M  V30 2 C -1.0393 4.0749 -1.8437 0
M  V30 3 O -1.5421 2.9322 -1.3032 0
M  V30 4 C -0.1342 4.7442 -0.8438 0
M  V30 5 C -2.3978 2.1394 -2.1571 0
M  V30 6 C 0.4744 6.0175 -1.4163 0
M  V30 7 C -1.5584 1.3172 -3.1494 0
M  V30 8 C -3.2336 1.233 -1.2473 0
M  V30 9 C 1.392 6.666 -0.4224 0
M  V30 10 C -0.7566 0.2591 -2.4157 0
M  V30 11 C -2.4002 0.133 -0.5674 0
M  V30 12 O 1.6786 6.2615 0.6911 0
M  V30 13 O 1.9164 7.8137 -0.8927 0
M  V30 14 C 0.5861 0.2822 -2.456 0
M  V30 15 C -1.5538 -0.7238 -1.5509 0
M  V30 16 C 1.4595 -0.5826 -1.6084 0
M  V30 17 C -0.6122 -1.7552 -0.7994 0
M  V30 18 C -2.4976 -1.5572 -2.458 0
M  V30 19 C 0.7316 -1.1296 -0.362 0
M  V30 20 C -1.2978 -2.4501 0.3893 0
M  V30 21 C 1.6596 -2.1324 0.3863 0
M  V30 22 C -0.3997 -3.5089 1.0128 0
M  V30 23 C 0.9627 -2.9757 1.486 0
M  V30 24 C 2.7594 -1.391 1.1667 0
M  V30 25 C 0.8908 -1.9634 2.6608 0
M  V30 26 C 1.8345 -4.202 1.8548 0
M  V30 27 C 2.2141 -1.1848 2.5834 0
M  V30 28 C 0.5361 -2.5877 4.0106 0
M  V30 29 O -0.6029 -3.0155 4.2179 0
M  V30 30 C 1.5845 -2.6949 5.0856 0
M  V30 31 H 0.6593 4.0386 -0.5713 0
M  V30 32 H -0.7197 4.9774 0.053 0
M  V30 33 H -3.0798 2.8059 -2.7001 0
M  V30 34 H 1.0501 5.7885 -2.3202 0
M  V30 35 H -0.3176 6.7297 -1.6746 0
M  V30 36 H -2.2095 0.8421 -3.891 0
M  V30 37 H -0.8894 1.9802 -3.7103 0
M  V30 38 H -4.0429 0.7767 -1.8285 0
M  V30 39 H -3.7079 1.8366 -0.4633 0
M  V30 40 H -3.0969 -0.5026 -0.0077 0
M  V30 41 H -1.7413 0.6038 0.1739 0
M  V30 42 H 2.4883 8.1372 -0.1652 0
M  V30 43 H 1.1009 1.0033 -3.0878 0
M  V30 44 H 1.8455 -1.4007 -2.2286 0
M  V30 45 H 2.3233 0.0148 -1.2972 0
M  V30 46 H -0.3576 -2.5473 -1.5215 0
M  V30 47 H -3.1035 -2.2555 -1.8715 0
M  V30 48 H -3.1997 -0.9423 -3.0286 0
M  V30 49 H -1.9252 -2.1439 -3.1865 0
M  V30 50 H 0.5125 -0.2844 0.3057 0
M  V30 51 H -1.5829 -1.7243 1.1574 0
M  V30 52 H -2.2228 -2.9375 0.0625 0
M  V30 53 H 2.1178 -2.7965 -0.3584 0
M  V30 54 H -0.2397 -4.2975 0.2646 0
M  V30 55 H -0.9338 -3.9874 1.8417 0
M  V30 56 H 3.6633 -2.0108 1.2117 0
M  V30 57 H 3.0592 -0.4396 0.7189 0
M  V30 58 H 0.0959 -1.2279 2.4801 0
M  V30 59 H 2.8088 -3.9203 2.2657 0
M  V30 60 H 1.3356 -4.8326 2.5994 0
M  V30 61 H 2.0211 -4.8259 0.973 0
M  V30 62 H 2.0322 -0.1203 2.7735 0
M  V30 63 H 2.9668 -1.508 3.3071 0
M  V30 64 H 2.4341 -3.28 4.7271 0
M  V30 65 H 1.9022 -1.6969 5.3967 0
M  V30 66 H 1.1616 -3.2063 5.9557 0
M  V30 END ATOM
M  V30 BEGIN BOND
M  V30 1 2 1 2
M  V30 2 1 2 3
M  V30 3 1 2 4
M  V30 4 1 3 5
M  V30 5 1 4 6
M  V30 6 1 5 7
M  V30 7 1 5 8
M  V30 8 1 6 9
M  V30 9 1 7 10
M  V30 10 1 8 11
M  V30 11 2 9 12
M  V30 12 1 9 13
M  V30 13 2 10 14
M  V30 14 1 10 15
M  V30 15 1 14 16
M  V30 16 1 15 17
M  V30 17 1 15 18
M  V30 18 1 16 19
M  V30 19 1 17 20
M  V30 20 1 19 21
M  V30 21 1 20 22
M  V30 22 1 21 23
M  V30 23 1 21 24
M  V30 24 1 23 25
M  V30 25 1 23 26
M  V30 26 1 24 27
M  V30 27 1 25 28
M  V30 28 2 28 29
M  V30 29 1 28 30
M  V30 30 1 11 15
M  V30 31 1 17 19
M  V30 32 1 22 23
M  V30 33 1 25 27
M  V30 34 1 4 31
M  V30 35 1 4 32
M  V30 36 1 5 33
M  V30 37 1 6 34
M  V30 38 1 6 35
M  V30 39 1 7 36
M  V30 40 1 7 37
M  V30 41 1 8 38
M  V30 42 1 8 39
M  V30 43 1 11 40
M  V30 44 1 11 41
M  V30 45 1 13 42
M  V30 46 1 14 43
M  V30 47 1 16 44
M  V30 48 1 16 45
M  V30 49 1 17 46
M  V30 50 1 18 47
M  V30 51 1 18 48
M  V30 52 1 18 49
M  V30 53 1 19 50
M  V30 54 1 20 51
M  V30 55 1 20 52
M  V30 56 1 21 53
M  V30 57 1 22 54
M  V30 58 1 22 55
M  V30 59 1 24 56
M  V30 60 1 24 57
M  V30 61 1 25 58
M  V30 62 1 26 59
M  V30 63 1 26 60
M  V30 64 1 26 61
M  V30 65 1 27 62
M  V30 66 1 27 63
M  V30 67 1 30 64
M  V30 68 1 30 65
M  V30 69 1 30 66
M  V30 END BOND
M  V30 END CTAB
M  END
>  <Column 1>
988

>  <level_0>
1124

>  <index>
1124

>  <Unnamed: 0>
1124

>  <NO.>
1136

>  <Name>
pregnenolone-succinate

>  <IUPAC_name>
4-[(17-acetyl-10-13-dimethyl-2-3-4-7-8-9-11-12-14-15-16-17-dodecahydro-1h-cyclopenta[a]phenanthren-3-yl)oxy]-4-oxobutanoic acid

>  <SMILES>
CC(=O)C1CCC2C3CC=C4CC(OC(=O)CCC(=O)O)CCC4(C)C3CCC12C

>  <CID>
20728

>  <logBB>


>  <BBB+/BBB->
BBB+

>  <Inchi>
InChI=1S/C25H36O5/c1-15(26)19-6-7-20-18-5-4-16-14-17(30-23(29)9-8-22(27)28)10-12-24(16-2)21(18)11-13-25(19-20)3/h4-17-21H-5-14H2-1-3H3-(H-27-28)

>  <threshold>
-1

>  <reference>
R1|R19|R27|R27|R30|

>  <group>
B

>  <Class>
-1

>  <ABC>
23.83

>  <ABCGG>
18.1

>  <nAcid>
1

>  <nBase>
0

>  <nAromAtom>
0

>  <nAromBond>
0

>  <nAtom>
66

>  <nHeavyAtom>
30

>  <nSpiro>
0

>  <nBridgehead>
0

>  <nHetero>
5

>  <nN>
0

>  <nO>
5

>  <nF>
0

>  <BalabanJ>
1.4

>  <BertzCT>
769.5

>  <nBonds>
69

>  <nBondsO>
33

>  <nBondsS>
65

>  <nBondsD>
4

>  <nBondsT>
0

>  <nBondsA>
0

>  <nBondsM>
4

>  <nBondsKS>
65

>  <nBondsKD>
4

>  <RNCG>
0.2

>  <RPCG>
0.13

>  <FCSP3>
0.8

>  <SZ>
37.67

>  <Sm>
34.68

>  <Sv>
38.33

>  <Sse>
65.63

>  <Sp>
41.78

>  <Si>
74.52

>  <MZ>
0.57

>  <Mm>
0.53

>  <Mv>
0.58

>  <Mse>
0.99

>  <Mp>
0.63

>  <Mi>
1.13

>  <NsCH3>
3

>  <NdCH2>
0

>  <NssCH2>
10

>  <NtCH>
0

>  <NdsCH>
1

>  <NaaCH>
0

>  <NsssCH>
5

>  <NddC>
0

>  <NtsC>
0

>  <NdssC>
4

>  <NaasC>
0

>  <NaaaC>
0

>  <NssssC>
2

>  <NsNH3>
0

>  <NsNH2>
0

>  <NssNH2>
0

>  <NdNH>
0

>  <NssNH>
0

>  <NaaNH>
0

>  <NtN>
0

>  <NsssNH>
0

>  <NdsN>
0

>  <NaaN>
0

>  <NsssN>
0

>  <NddsN>
0

>  <NaasN>
0

>  <NssssN>
0

>  <NsOH>
1

>  <NdO>
3

>  <NssO>
1

>  <NaaO>
0

>  <NsF>
0

>  <NsSiH3>
0

>  <NssSiH2>
0

>  <NsssSiH>
0

>  <NssssSi>
0

>  <NsPH2>
0

>  <NssPH>
0

>  <NsssP>
0

>  <NdsssP>
0

>  <NsssssP>
0

>  <NsSH>
0

>  <NdS>
0

>  <NssS>
0

>  <NaaS>
0

>  <NdssS>
0

>  <NddssS>
0

>  <NsCl>
0

>  <NsBr>
0

>  <NsI>
0

>  <fragCpx>
219.05

>  <fMF>
0.26

>  <nHBAcc>
4

>  <nHBDon>
1

>  <Kier1>
23.17

>  <Kier2>
8.74

>  <Lipinski>
1

>  <GhoseFilter>
1

>  <FilterItLogS>
-4.06

>  <VMcGowan>
331.82

>  <LabuteASA>
179.18

>  <PEOE_VSA1>
9.84

>  <PEOE_VSA2>
14.38

>  <PEOE_VSA3>
0

>  <PEOE_VSA4>
0

>  <PEOE_VSA5>
0

>  <PEOE_VSA6>
25.5

>  <PEOE_VSA7>
80.45

>  <PEOE_VSA8>
12.34

>  <PEOE_VSA9>
12.84

>  <PEOE_VSA10>
11.89

>  <PEOE_VSA11>
0

>  <PEOE_VSA12>
0

>  <PEOE_VSA13>
0

>  <SMR_VSA1>
24.23

>  <SMR_VSA2>
0

>  <SMR_VSA3>
0

>  <SMR_VSA4>
34.5

>  <SMR_VSA5>
91.08

>  <SMR_VSA6>
0

>  <SMR_VSA7>
11.65

>  <SMR_VSA8>
0

>  <SMR_VSA9>
0

>  <SlogP_VSA1>
0

>  <SlogP_VSA2>
28.93

>  <SlogP_VSA3>
19.12

>  <SlogP_VSA4>
34.5

>  <SlogP_VSA5>
84.98

>  <SlogP_VSA6>
11.65

>  <SlogP_VSA7>
0

>  <SlogP_VSA8>
0

>  <SlogP_VSA9>
0

>  <SlogP_VSA10>
0

>  <SlogP_VSA11>
0

>  <EState_VSA1>
11.94

>  <EState_VSA2>
35.69

>  <EState_VSA3>
23.54

>  <EState_VSA4>
38.52

>  <EState_VSA5>
18.41

>  <EState_VSA6>
6.92

>  <EState_VSA7>
0

>  <EState_VSA8>
19.92

>  <EState_VSA9>
9.84

>  <EState_VSA10>
14.38

>  <VSA_EState1>
5.62

>  <VSA_EState2>
34.96

>  <VSA_EState3>
8.76

>  <VSA_EState4>
1.78

>  <VSA_EState5>
1.22

>  <VSA_EState6>
0

>  <VSA_EState7>
10.42

>  <VSA_EState8>
6.57

>  <VSA_EState9>
0

>  <apol>
69.76

>  <bpol>
40.46

>  <nRing>
4

>  <nHRing>
0

>  <naRing>
0

>  <naHRing>
0

>  <nARing 2>
4

>  <nAHRing 2>
0

>  <nFRing>
1

>  <nFHRing>
0

>  <nFaRing>
0

>  <nFaHRing>
0

>  <nFARing 2>
1

>  <nFAHRing 2>
0

>  <nRot>
5

>  <SLogP>
4.93

>  <SMR>
112.62

>  <TopoPSA(NO)>
80.67

>  <TopoPSA>
80.67

>  <JGI1>
0.27

>  <JGI2>
0.11

>  <JGI3>
0.06

>  <JGI4>
0.05

>  <JGI5>
0.03

>  <Diameter>
16

>  <Radius>
8

>  <TMWC10>
142.63

>  <TSRW10>
80.92

>  <MW>
416.26

>  <AMW>
6.31

>  <WPath>
2555

>  <WPol>
57

>  <Zagreb1>
168

>  <Zagreb2>
206

>  <mZagreb2>
6.33

>  <yes>


>  <nAR-cont>
0.199399

>  <nHA-cont>
0.74523694

>  <MWHBN>
0.245068597

>  <MWHBN-cont>
0.967678405

>  <TPSA-cont>
0.436873307

>  <pka_cont>
0.97

>  <yes.1>


>  <BBB_SCORE>
3.75490016

>  <MMFF94 Energy>
32.863

$$$$
Compound 825
Actelion Java MolfileCreator 2.0

  0  0  0  0  0  0              0 V3000
M  V30 BEGIN CTAB
M  V30 COUNTS 52 54 0 0 0
M  V30 BEGIN ATOM
M  V30 1 F -0.7991 -7.2898 0.2396 0
M  V30 2 C -1.264 -6.101 0.6461 0
M  V30 3 C -2.3689 -6.0507 1.4832 0
M  V30 4 C -0.629 -4.9368 0.2163 0
M  V30 5 C -2.8345 -4.8109 1.8957 0
M  V30 6 C -1.1065 -3.6831 0.6253 0
M  V30 7 F -3.8991 -4.7427 2.7061 0
M  V30 8 C -2.2173 -3.632 1.4803 0
M  V30 9 C -0.4187 -2.4133 0.1806 0
M  V30 10 C 0.6693 -1.9207 1.1316 0
M  V30 11 O 1.0042 -2.5733 2.1209 0
M  V30 12 N 1.2772 -0.7043 0.8244 0
M  V30 13 C 0.849 0.2137 -0.2672 0 CFG=2
M  V30 14 C 2.2894 -0.1754 1.7583 0
M  V30 15 C 2.0657 0.8963 -0.9433 0
M  V30 16 C -0.1766 1.254 0.2669 0
M  V30 17 C 3.4676 0.4849 1.0345 0
M  V30 18 N 2.995 1.4529 0.0436 0
M  V30 19 N -0.7777 2.0951 -0.7782 0
M  V30 20 C 3.3911 2.7749 0.1304 0
M  V30 21 C -1.7371 1.3746 -1.6345 0
M  V30 22 C -1.5603 3.1998 -0.2009 0
M  V30 23 O 4.1195 3.1897 1.032 0
M  V30 24 C 2.8898 3.7208 -0.9301 0
M  V30 25 C -2.4139 2.5323 -2.3648 0 CFG=1
M  V30 26 C -2.522 3.6271 -1.3095 0
M  V30 27 O -1.5734 2.9838 -3.4295 0
M  V30 28 H -2.8543 -6.961 1.8127 0
M  V30 29 H 0.2412 -5.0243 -0.4281 0
M  V30 30 H -2.6081 -2.684 1.8393 0
M  V30 31 H 0.0313 -2.5784 -0.8056 0
M  V30 32 H -1.179 -1.6322 0.0656 0
M  V30 33 H 0.357 -0.3835 -1.0391 0
M  V30 34 H 2.6668 -0.9644 2.4164 0
M  V30 35 H 1.7788 0.559 2.3924 0
M  V30 36 H 1.7409 1.643 -1.6704 0
M  V30 37 H 2.6331 0.1405 -1.5013 0
M  V30 38 H 0.3386 1.905 0.9852 0
M  V30 39 H -0.9602 0.7376 0.8377 0
M  V30 40 H 4.0449 -0.2726 0.4908 0
M  V30 41 H 4.1381 0.9497 1.7637 0
M  V30 42 H -2.4674 0.8137 -1.0387 0
M  V30 43 H -1.2262 0.7022 -2.3298 0
M  V30 44 H -2.1381 2.8746 0.674 0
M  V30 45 H -0.9111 4.0265 0.1053 0
M  V30 46 H 3.1912 3.3725 -1.9215 0
M  V30 47 H 1.8023 3.8104 -0.8713 0
M  V30 48 H 3.3258 4.7116 -0.7694 0
M  V30 49 H -3.3836 2.2582 -2.789 0
M  V30 50 H -2.2553 4.6107 -1.7107 0
M  V30 51 H -3.5405 3.6763 -0.9085 0
M  V30 52 H -0.6991 3.1409 -3.0247 0
M  V30 END ATOM
M  V30 BEGIN BOND
M  V30 1 1 1 2
M  V30 2 2 2 3
M  V30 3 1 2 4
M  V30 4 1 3 5
M  V30 5 2 4 6
M  V30 6 1 5 7
M  V30 7 2 5 8
M  V30 8 1 6 9
M  V30 9 1 9 10
M  V30 10 2 10 11
M  V30 11 1 10 12
M  V30 12 1 12 13
M  V30 13 1 12 14
M  V30 14 1 13 15
M  V30 15 1 13 16
M  V30 16 1 14 17
M  V30 17 1 15 18
M  V30 18 1 16 19
M  V30 19 1 18 20
M  V30 20 1 19 21
M  V30 21 1 19 22
M  V30 22 2 20 23
M  V30 23 1 20 24
M  V30 24 1 21 25
M  V30 25 1 22 26
M  V30 26 1 25 27
M  V30 27 1 6 8
M  V30 28 1 17 18
M  V30 29 1 25 26
M  V30 30 1 3 28
M  V30 31 1 4 29
M  V30 32 1 8 30
M  V30 33 1 9 31
M  V30 34 1 9 32
M  V30 35 1 13 33
M  V30 36 1 14 34
M  V30 37 1 14 35
M  V30 38 1 15 36
M  V30 39 1 15 37
M  V30 40 1 16 38
M  V30 41 1 16 39
M  V30 42 1 17 40
M  V30 43 1 17 41
M  V30 44 1 21 42
M  V30 45 1 21 43
M  V30 46 1 22 44
M  V30 47 1 22 45
M  V30 48 1 24 46
M  V30 49 1 24 47
M  V30 50 1 24 48
M  V30 51 1 25 49
M  V30 52 1 26 50
M  V30 53 1 26 51
M  V30 54 1 27 52
M  V30 END BOND
M  V30 BEGIN COLLECTION
M  V30 MDLV30/STEABS ATOMS=(2 13 25)
M  V30 END COLLECTION
M  V30 END CTAB
M  END
>  <Column 1>
989

>  <level_0>
1125

>  <index>
1125

>  <Unnamed: 0>
1125

>  <NO.>
1137

>  <Name>
chembl70543

>  <IUPAC_name>
1-[(2s)-4-acetyl-2-[[(3r)-3-hydroxypyrrolidin-1-yl]methyl]piperazin-1-yl]-2-(3-5-difluorophenyl)ethanone

>  <SMILES>
CC(=O)N1CCN(C(=O)Cc2cc(F)cc(F)c2)[C@@H](CN2CC[C@@H](O)C2)C1

>  <CID>
44310781

>  <logBB>


>  <BBB+/BBB->
BBB-

>  <Inchi>
InChI=1S/C19H25F2N3O3/c1-13(25)23-4-5-24(17(11-23)10-22-3-2-18(26)12-22)19(27)8-14-6-15(20)9-16(21)7-14/h6-7-9-17-18-26H-2-5-8-10-12H2-1H3/t17--18+/m0/s1

>  <threshold>
-1

>  <reference>
R1|R28|R9|R24|R27|R30|

>  <group>
B

>  <Class>
-1

>  <ABC>
21.04

>  <ABCGG>
17.26

>  <nAcid>
0

>  <nBase>
1

>  <nAromAtom>
6

>  <nAromBond>
6

>  <nAtom>
52

>  <nHeavyAtom>
27

>  <nSpiro>
0

>  <nBridgehead>
0

>  <nHetero>
8

>  <nN>
3

>  <nO>
3

>  <nF>
2

>  <BalabanJ>
1.61

>  <BertzCT>
695.19

>  <nBonds>
54

>  <nBondsO>
29

>  <nBondsS>
46

>  <nBondsD>
2

>  <nBondsT>
0

>  <nBondsA>
6

>  <nBondsM>
8

>  <nBondsKS>
49

>  <nBondsKD>
5

>  <RNCG>
0.16

>  <RPCG>
0.09

>  <FCSP3>
0.58

>  <SZ>
33.67

>  <Sm>
31.76

>  <Sv>
31.48

>  <Sse>
52.99

>  <Sp>
33.07

>  <Si>
59.79

>  <MZ>
0.65

>  <Mm>
0.61

>  <Mv>
0.61

>  <Mse>
1.02

>  <Mp>
0.64

>  <Mi>
1.15

>  <NsCH3>
1

>  <NdCH2>
0

>  <NssCH2>
8

>  <NtCH>
0

>  <NdsCH>
0

>  <NaaCH>
3

>  <NsssCH>
2

>  <NddC>
0

>  <NtsC>
0

>  <NdssC>
2

>  <NaasC>
3

>  <NaaaC>
0

>  <NssssC>
0

>  <NsNH3>
0

>  <NsNH2>
0

>  <NssNH2>
0

>  <NdNH>
0

>  <NssNH>
0

>  <NaaNH>
0

>  <NtN>
0

>  <NsssNH>
0

>  <NdsN>
0

>  <NaaN>
0

>  <NsssN>
3

>  <NddsN>
0

>  <NaasN>
0

>  <NssssN>
0

>  <NsOH>
1

>  <NdO>
2

>  <NssO>
0

>  <NaaO>
0

>  <NsF>
2

>  <NsSiH3>
0

>  <NssSiH2>
0

>  <NsssSiH>
0

>  <NssssSi>
0

>  <NsPH2>
0

>  <NssPH>
0

>  <NsssP>
0

>  <NdsssP>
0

>  <NsssssP>
0

>  <NsSH>
0

>  <NdS>
0

>  <NssS>
0

>  <NaaS>
0

>  <NdssS>
0

>  <NddssS>
0

>  <NsCl>
0

>  <NsBr>
0

>  <NsI>
0

>  <fragCpx>
139.08

>  <fMF>
0.38

>  <nHBAcc>
4

>  <nHBDon>
1

>  <Kier1>
21.7

>  <Kier2>
9.67

>  <Lipinski>
1

>  <GhoseFilter>
1

>  <FilterItLogS>
-2.72

>  <VMcGowan>
275.56

>  <LabuteASA>
156.89

>  <PEOE_VSA1>
14.91

>  <PEOE_VSA2>
14.49

>  <PEOE_VSA3>
8.78

>  <PEOE_VSA4>
0

>  <PEOE_VSA5>
0

>  <PEOE_VSA6>
0

>  <PEOE_VSA7>
24.12

>  <PEOE_VSA8>
52.26

>  <PEOE_VSA9>
18.57

>  <PEOE_VSA10>
11.63

>  <PEOE_VSA11>
0

>  <PEOE_VSA12>
11.81

>  <PEOE_VSA13>
0

>  <SMR_VSA1>
23.48

>  <SMR_VSA2>
0

>  <SMR_VSA3>
14.7

>  <SMR_VSA4>
0

>  <SMR_VSA5>
31.91

>  <SMR_VSA6>
39.27

>  <SMR_VSA7>
35.4

>  <SMR_VSA8>
0

>  <SMR_VSA9>
0

>  <SlogP_VSA1>
0

>  <SlogP_VSA2>
83.03

>  <SlogP_VSA3>
16.01

>  <SlogP_VSA4>
11.63

>  <SlogP_VSA5>
18.91

>  <SlogP_VSA6>
18.2

>  <SlogP_VSA7>
0

>  <SlogP_VSA8>
0

>  <SlogP_VSA9>
0

>  <SlogP_VSA10>
8.78

>  <SlogP_VSA11>
0

>  <EState_VSA1>
11.63

>  <EState_VSA2>
30.38

>  <EState_VSA3>
44.71

>  <EState_VSA4>
12.61

>  <EState_VSA5>
19.06

>  <EState_VSA6>
9.8

>  <EState_VSA7>
0

>  <EState_VSA8>
4.9

>  <EState_VSA9>
0

>  <EState_VSA10>
23.48

>  <VSA_EState1>
26.81

>  <VSA_EState2>
30.08

>  <VSA_EState3>
9.73

>  <VSA_EState4>
0.29

>  <VSA_EState5>
-1.67

>  <VSA_EState6>
2.9

>  <VSA_EState7>
0.24

>  <VSA_EState8>
4.61

>  <VSA_EState9>
0

>  <apol>
55.22

>  <bpol>
34.17

>  <nRing>
3

>  <nHRing>
2

>  <naRing>
1

>  <naHRing>
0

>  <nARing 2>
2

>  <nAHRing 2>
2

>  <nFRing>
0

>  <nFHRing>
0

>  <nFaRing>
0

>  <nFaHRing>
0

>  <nFARing 2>
0

>  <nFAHRing 2>
0

>  <nRot>
4

>  <SLogP>
0.63

>  <SMR>
94.88

>  <TopoPSA(NO)>
64.09

>  <TopoPSA>
64.09

>  <JGI1>
0.26

>  <JGI2>
0.07

>  <JGI3>
0.07

>  <JGI4>
0.04

>  <JGI5>
0.03

>  <Diameter>
12

>  <Radius>
6

>  <TMWC10>
131.44

>  <TSRW10>
75.49

>  <MW>
381.19

>  <AMW>
7.33

>  <WPath>
1901

>  <WPol>
39

>  <Zagreb1>
140

>  <Zagreb2>
161

>  <mZagreb2>
5.83

>  <yes>


>  <nAR-cont>
1

>  <nHA-cont>
0.860070871

>  <MWHBN>
0.256093912

>  <MWHBN-cont>
0.948951509

>  <TPSA-cont>
0.552612003

>  <pka_cont>
0.97

>  <yes.1>


>  <BBB_SCORE>
4.873722139

>  <MMFF94 Energy>
87.116

$$$$
Compound 826
Actelion Java MolfileCreator 2.0

  0  0  0  0  0  0              0 V3000
M  V30 BEGIN CTAB
M  V30 COUNTS 55 57 0 0 0
M  V30 BEGIN ATOM
M  V30 1 F -3.2078 -5.6189 2.6459 0
M  V30 2 C -2.3664 -5.8642 1.6016 0
M  V30 3 F -3.1629 -5.9818 0.5034 0
M  V30 4 F -1.853 -7.1062 1.8265 0
M  V30 5 C -1.3093 -4.8019 1.4361 0
M  V30 6 C -1.6012 -3.4596 1.7199 0
M  V30 7 C -0.0328 -5.1302 0.9561 0
M  V30 8 C -0.6317 -2.4711 1.5435 0
M  V30 9 C 0.9376 -4.141 0.7803 0
M  V30 10 C 0.6482 -2.805 1.0796 0
M  V30 11 C 1.6847 -1.7213 0.8785 0
M  V30 12 C 1.4618 -0.9217 -0.4009 0
M  V30 13 O 1.0979 -1.4749 -1.4417 0
M  V30 14 N 1.6853 0.4472 -0.3499 0
M  V30 15 C 1.0358 1.3085 -1.3688 0 CFG=2
M  V30 16 C 2.4265 1.1437 0.7118 0
M  V30 17 C 2.0254 2.3649 -1.9104 0
M  V30 18 C -0.2409 2.0062 -0.8021 0
M  V30 19 C 3.3754 2.2121 0.146 0
M  V30 20 N 2.7043 3.081 -0.822 0
M  V30 21 N -1.2478 1.0902 -0.2405 0
M  V30 22 C 2.7686 4.4536 -0.6673 0
M  V30 23 C -1.9057 0.2598 -1.2677 0
M  V30 24 C -2.34 1.8101 0.4183 0
M  V30 25 O 3.3416 4.9871 0.2824 0
M  V30 26 C 2.0917 5.3006 -1.7137 0
M  V30 27 C -3.2887 -0.0779 -0.6917 0 CFG=1
M  V30 28 C -3.3776 0.716 0.6046 0
M  V30 29 O -4.3129 0.3556 -1.5856 0
M  V30 30 H -2.5901 -3.1777 2.0776 0
M  V30 31 H 0.2111 -6.1625 0.7095 0
M  V30 32 H -0.8814 -1.4333 1.7587 0
M  V30 33 H 1.9161 -4.4187 0.3942 0
M  V30 34 H 1.6433 -1.0782 1.763 0
M  V30 35 H 2.6928 -2.1494 0.8385 0
M  V30 36 H 0.7232 0.6928 -2.2201 0
M  V30 37 H 3.0188 0.4363 1.298 0
M  V30 38 H 1.6876 1.6021 1.3781 0
M  V30 39 H 1.5146 3.0475 -2.5929 0
M  V30 40 H 2.8136 1.864 -2.4861 0
M  V30 41 H -0.6881 2.6304 -1.5875 0
M  V30 42 H 0.0672 2.6933 -0.0037 0
M  V30 43 H 4.2001 1.7261 -0.3894 0
M  V30 44 H 3.8138 2.7866 0.9678 0
M  V30 45 H -2.0063 0.7855 -2.2253 0
M  V30 46 H -1.3361 -0.6569 -1.4366 0
M  V30 47 H -2.0297 2.2343 1.3783 0
M  V30 48 H -2.7412 2.6136 -0.2124 0
M  V30 49 H 2.5209 5.099 -2.6986 0
M  V30 50 H 1.0164 5.1038 -1.7184 0
M  V30 51 H 2.2472 6.3587 -1.4824 0
M  V30 52 H -3.4092 -1.1521 -0.5176 0
M  V30 53 H -3.094 0.0796 1.4518 0
M  V30 54 H -4.3725 1.13 0.7947 0
M  V30 55 H -5.162 0.0648 -1.2107 0
M  V30 END ATOM
M  V30 BEGIN BOND
M  V30 1 1 1 2
M  V30 2 1 2 3
M  V30 3 1 2 4
M  V30 4 1 2 5
M  V30 5 2 5 6
M  V30 6 1 5 7
M  V30 7 1 6 8
M  V30 8 2 7 9
M  V30 9 2 8 10
M  V30 10 1 10 11
M  V30 11 1 11 12
M  V30 12 2 12 13
M  V30 13 1 12 14
M  V30 14 1 14 15
M  V30 15 1 14 16
M  V30 16 1 15 17
M  V30 17 1 15 18
M  V30 18 1 16 19
M  V30 19 1 17 20
M  V30 20 1 18 21
M  V30 21 1 20 22
M  V30 22 1 21 23
M  V30 23 1 21 24
M  V30 24 2 22 25
M  V30 25 1 22 26
M  V30 26 1 23 27
M  V30 27 1 24 28
M  V30 28 1 27 29
M  V30 29 1 9 10
M  V30 30 1 19 20
M  V30 31 1 27 28
M  V30 32 1 6 30
M  V30 33 1 7 31
M  V30 34 1 8 32
M  V30 35 1 9 33
M  V30 36 1 11 34
M  V30 37 1 11 35
M  V30 38 1 15 36
M  V30 39 1 16 37
M  V30 40 1 16 38
M  V30 41 1 17 39
M  V30 42 1 17 40
M  V30 43 1 18 41
M  V30 44 1 18 42
M  V30 45 1 19 43
M  V30 46 1 19 44
M  V30 47 1 23 45
M  V30 48 1 23 46
M  V30 49 1 24 47
M  V30 50 1 24 48
M  V30 51 1 26 49
M  V30 52 1 26 50
M  V30 53 1 26 51
M  V30 54 1 27 52
M  V30 55 1 28 53
M  V30 56 1 28 54
M  V30 57 1 29 55
M  V30 END BOND
M  V30 BEGIN COLLECTION
M  V30 MDLV30/STEABS ATOMS=(2 15 27)
M  V30 END COLLECTION
M  V30 END CTAB
M  END
>  <Column 1>
990

>  <level_0>
1126

>  <index>
1126

>  <Unnamed: 0>
1126

>  <NO.>
1138

>  <Name>
gr94839_a

>  <IUPAC_name>
1-[(2s)-4-acetyl-2-[[(3r)-3-hydroxypyrrolidin-1-yl]methyl]piperazin-1-yl]-2-[4-(trifluoromethyl)phenyl]ethanone

>  <SMILES>
CC(=O)N1CCN(C(=O)Cc2ccc(C(F)(F)F)cc2)[C@@H](CN2CC[C@@H](O)C2)C1

>  <CID>
44310838

>  <logBB>


>  <BBB+/BBB->
BBB-

>  <Inchi>
InChI=1S/C20H26F3N3O3/c1-14(27)25-8-9-26(17(12-25)11-24-7-6-18(28)13-24)19(29)10-15-2-4-16(5-3-15)20(21-22)23/h2-5-17-18-28H-6-13H2-1H3/t17--18+/m0/s1

>  <threshold>
-1

>  <reference>
R1|R28|R9|R24|R27|R30|

>  <group>
B

>  <Class>
1

>  <ABC>
22.65

>  <ABCGG>
18.13

>  <nAcid>
0

>  <nBase>
1

>  <nAromAtom>
6

>  <nAromBond>
6

>  <nAtom>
55

>  <nHeavyAtom>
29

>  <nSpiro>
0

>  <nBridgehead>
0

>  <nHetero>
9

>  <nN>
3

>  <nO>
3

>  <nF>
3

>  <BalabanJ>
1.56

>  <BertzCT>
738.73

>  <nBonds>
57

>  <nBondsO>
31

>  <nBondsS>
49

>  <nBondsD>
2

>  <nBondsT>
0

>  <nBondsA>
6

>  <nBondsM>
8

>  <nBondsKS>
52

>  <nBondsKD>
5

>  <RNCG>
0.15

>  <RPCG>
0.16

>  <FCSP3>
0.6

>  <SZ>
36.33

>  <Sm>
34.42

>  <Sv>
33.4

>  <Sse>
56.39

>  <Sp>
34.8

>  <Si>
63.54

>  <MZ>
0.66

>  <Mm>
0.63

>  <Mv>
0.61

>  <Mse>
1.03

>  <Mp>
0.63

>  <Mi>
1.16

>  <NsCH3>
1

>  <NdCH2>
0

>  <NssCH2>
8

>  <NtCH>
0

>  <NdsCH>
0

>  <NaaCH>
4

>  <NsssCH>
2

>  <NddC>
0

>  <NtsC>
0

>  <NdssC>
2

>  <NaasC>
2

>  <NaaaC>
0

>  <NssssC>
1

>  <NsNH3>
0

>  <NsNH2>
0

>  <NssNH2>
0

>  <NdNH>
0

>  <NssNH>
0

>  <NaaNH>
0

>  <NtN>
0

>  <NsssNH>
0

>  <NdsN>
0

>  <NaaN>
0

>  <NsssN>
3

>  <NddsN>
0

>  <NaasN>
0

>  <NssssN>
0

>  <NsOH>
1

>  <NdO>
2

>  <NssO>
0

>  <NaaO>
0

>  <NsF>
3

>  <NsSiH3>
0

>  <NssSiH2>
0

>  <NsssSiH>
0

>  <NssssSi>
0

>  <NsPH2>
0

>  <NssPH>
0

>  <NsssP>
0

>  <NdsssP>
0

>  <NsssssP>
0

>  <NsSH>
0

>  <NdS>
0

>  <NssS>
0

>  <NaaS>
0

>  <NdssS>
0

>  <NddssS>
0

>  <NsCl>
0

>  <NsBr>
0

>  <NsI>
0

>  <fragCpx>
149.09

>  <fMF>
0.36

>  <nHBAcc>
4

>  <nHBDon>
1

>  <Kier1>
23.66

>  <Kier2>
10.08

>  <Lipinski>
1

>  <GhoseFilter>
1

>  <FilterItLogS>
-2.87

>  <VMcGowan>
291.41

>  <LabuteASA>
167.42

>  <PEOE_VSA1>
14.91

>  <PEOE_VSA2>
14.49

>  <PEOE_VSA3>
0

>  <PEOE_VSA4>
13.17

>  <PEOE_VSA5>
0

>  <PEOE_VSA6>
12.13

>  <PEOE_VSA7>
24.12

>  <PEOE_VSA8>
46.19

>  <PEOE_VSA9>
24.13

>  <PEOE_VSA10>
0

>  <PEOE_VSA11>
0

>  <PEOE_VSA12>
11.81

>  <PEOE_VSA13>
0

>  <SMR_VSA1>
27.87

>  <SMR_VSA2>
0

>  <SMR_VSA3>
14.7

>  <SMR_VSA4>
0

>  <SMR_VSA5>
38.09

>  <SMR_VSA6>
39.27

>  <SMR_VSA7>
35.39

>  <SMR_VSA8>
0

>  <SMR_VSA9>
0

>  <SlogP_VSA1>
0

>  <SlogP_VSA2>
83.03

>  <SlogP_VSA3>
22.19

>  <SlogP_VSA4>
0

>  <SlogP_VSA5>
24.47

>  <SlogP_VSA6>
24.27

>  <SlogP_VSA7>
0

>  <SlogP_VSA8>
0

>  <SlogP_VSA9>
0

>  <SlogP_VSA10>
13.17

>  <SlogP_VSA11>
0

>  <EState_VSA1>
11.74

>  <EState_VSA2>
30.38

>  <EState_VSA3>
44.71

>  <EState_VSA4>
18.68

>  <EState_VSA5>
19.06

>  <EState_VSA6>
9.8

>  <EState_VSA7>
0

>  <EState_VSA8>
4.9

>  <EState_VSA9>
0

>  <EState_VSA10>
27.87

>  <VSA_EState1>
38.15

>  <VSA_EState2>
30.21

>  <VSA_EState3>
9.75

>  <VSA_EState4>
-0.22

>  <VSA_EState5>
-0.22

>  <VSA_EState6>
4.43

>  <VSA_EState7>
-4.09

>  <VSA_EState8>
4.57

>  <VSA_EState9>
0

>  <apol>
58.11

>  <bpol>
36.29

>  <nRing>
3

>  <nHRing>
2

>  <naRing>
1

>  <naHRing>
0

>  <nARing 2>
2

>  <nAHRing 2>
2

>  <nFRing>
0

>  <nFHRing>
0

>  <nFaRing>
0

>  <nFaHRing>
0

>  <nFARing 2>
0

>  <nFAHRing 2>
0

>  <nRot>
4

>  <SLogP>
1.37

>  <SMR>
99.97

>  <TopoPSA(NO)>
64.09

>  <TopoPSA>
64.09

>  <JGI1>
0.27

>  <JGI2>
0.08

>  <JGI3>
0.06

>  <JGI4>
0.04

>  <JGI5>
0.04

>  <Diameter>
14

>  <Radius>
7

>  <TMWC10>
136.29

>  <TSRW10>
78

>  <MW>
413.19

>  <AMW>
7.51

>  <WPath>
2413

>  <WPol>
43

>  <Zagreb1>
152

>  <Zagreb2>
175

>  <mZagreb2>
6.17

>  <yes>


>  <nAR-cont>
1

>  <nHA-cont>
0.785905698

>  <MWHBN>
0.245977341

>  <MWHBN-cont>
0.96628146

>  <TPSA-cont>
0.552612003

>  <pka_cont>
0.97

>  <yes.1>


>  <BBB_SCORE>
4.825551893

>  <MMFF94 Energy>
128.11

$$$$
Compound 827
Actelion Java MolfileCreator 2.0

  0  0  0  0  0  0              0 V3000
M  V30 BEGIN CTAB
M  V30 COUNTS 51 53 0 0 0
M  V30 BEGIN ATOM
M  V30 1 Cl 0.2423 -7.6151 0.2423 0
M  V30 2 C -0.3319 -6.2547 1.1406 0
M  V30 3 C -1.4825 -6.3108 1.9332 0
M  V30 4 C 0.3998 -5.0645 1.0576 0
M  V30 5 Cl -2.4342 -7.7447 2.0882 0
M  V30 6 C -1.8973 -5.1758 2.6353 0
M  V30 7 C -0.0062 -3.924 1.7674 0
M  V30 8 C -1.1658 -3.9885 2.5511 0
M  V30 9 C 0.7766 -2.6342 1.6582 0
M  V30 10 C 0.3328 -1.7273 0.5143 0
M  V30 11 O -0.5745 -2.0493 -0.2543 0
M  V30 12 N 1.0011 -0.5116 0.3728 0
M  V30 13 C 0.5237 0.4253 -0.684 0 CFG=2
M  V30 14 C 1.9698 0.0292 1.3461 0
M  V30 15 C 1.6808 1.2628 -1.2814 0
M  V30 16 C -0.626 1.3193 -0.1396 0
M  V30 17 C 3.0893 0.8384 0.6815 0
M  V30 18 N 2.5352 1.8305 -0.2335 0
M  V30 19 N -1.238 2.2001 -1.1452 0
M  V30 20 C 2.7549 3.1761 -0.0068 0
M  V30 21 C -2.2004 3.1263 -0.5406 0
M  V30 22 C -2.0147 1.4684 -2.1522 0
M  V30 23 O 3.4008 3.5833 0.9595 0
M  V30 24 C 2.1676 4.1536 -0.9916 0
M  V30 25 C -2.9524 3.6643 -1.7462 0
M  V30 26 C -2.8847 2.5481 -2.7816 0
M  V30 27 H 1.2865 -5.0241 0.428 0
M  V30 28 H -2.7959 -5.2072 3.247 0
M  V30 29 H -1.5147 -3.1125 3.0947 0
M  V30 30 H 0.6831 -2.0849 2.6028 0
M  V30 31 H 1.8377 -2.8757 1.5229 0
M  V30 32 H 0.117 -0.181 -1.5022 0
M  V30 33 H 2.4156 -0.7682 1.944 0
M  V30 34 H 1.3991 0.6686 2.03 0
M  V30 35 H 1.3055 2.0267 -1.9646 0
M  V30 36 H 2.3272 0.6033 -1.8745 0
M  V30 37 H -0.2193 1.9434 0.6669 0
M  V30 38 H -1.3914 0.6854 0.3285 0
M  V30 39 H 3.7292 0.1743 0.0882 0
M  V30 40 H 3.7175 1.3018 1.4482 0
M  V30 41 H -1.7061 3.9288 0.0159 0
M  V30 42 H -2.8954 2.6079 0.1324 0
M  V30 43 H -1.3772 0.9907 -2.9023 0
M  V30 44 H -2.6522 0.7011 -1.6946 0
M  V30 45 H 2.5241 3.9352 -2.0015 0
M  V30 46 H 1.0765 4.1151 -0.9553 0
M  V30 47 H 2.4852 5.1676 -0.7301 0
M  V30 48 H -2.4614 4.5629 -2.1384 0
M  V30 49 H -3.985 3.928 -1.4964 0
M  V30 50 H -2.4349 2.9254 -3.7072 0
M  V30 51 H -3.8805 2.1632 -3.0245 0
M  V30 END ATOM
M  V30 BEGIN BOND
M  V30 1 1 1 2
M  V30 2 2 2 3
M  V30 3 1 2 4
M  V30 4 1 3 5
M  V30 5 1 3 6
M  V30 6 2 4 7
M  V30 7 2 6 8
M  V30 8 1 7 9
M  V30 9 1 9 10
M  V30 10 2 10 11
M  V30 11 1 10 12
M  V30 12 1 12 13
M  V30 13 1 12 14
M  V30 14 1 13 15
M  V30 15 1 13 16
M  V30 16 1 14 17
M  V30 17 1 15 18
M  V30 18 1 16 19
M  V30 19 1 18 20
M  V30 20 1 19 21
M  V30 21 1 19 22
M  V30 22 2 20 23
M  V30 23 1 20 24
M  V30 24 1 21 25
M  V30 25 1 22 26
M  V30 26 1 7 8
M  V30 27 1 17 18
M  V30 28 1 25 26
M  V30 29 1 4 27
M  V30 30 1 6 28
M  V30 31 1 8 29
M  V30 32 1 9 30
M  V30 33 1 9 31
M  V30 34 1 13 32
M  V30 35 1 14 33
M  V30 36 1 14 34
M  V30 37 1 15 35
M  V30 38 1 15 36
M  V30 39 1 16 37
M  V30 40 1 16 38
M  V30 41 1 17 39
M  V30 42 1 17 40
M  V30 43 1 21 41
M  V30 44 1 21 42
M  V30 45 1 22 43
M  V30 46 1 22 44
M  V30 47 1 24 45
M  V30 48 1 24 46
M  V30 49 1 24 47
M  V30 50 1 25 48
M  V30 51 1 25 49
M  V30 52 1 26 50
M  V30 53 1 26 51
M  V30 END BOND
M  V30 BEGIN COLLECTION
M  V30 MDLV30/STEABS ATOMS=(1 13)
M  V30 END COLLECTION
M  V30 END CTAB
M  END
>  <Column 1>
991

>  <level_0>
1127

>  <index>
1127

>  <Unnamed: 0>
1127

>  <NO.>
1139

>  <Name>
chembl71375

>  <IUPAC_name>
1-[(2s)-4-acetyl-2-(pyrrolidin-1-ylmethyl)piperazin-1-yl]-2-(3-4-dichlorophenyl)ethanone

>  <SMILES>
CC(=O)N1CCN(C(=O)Cc2ccc(Cl)c(Cl)c2)[C@@H](CN2CCCC2)C1

>  <CID>
44310710

>  <logBB>


>  <BBB+/BBB->
BBB+

>  <Inchi>
InChI=1S/C19H25Cl2N3O2/c1-14(25)23-8-9-24(16(13-23)12-22-6-2-3-7-22)19(26)11-15-4-5-17(20)18(21)10-15/h4-5-10-16H-2-3-6-9-11-13H2-1H3/t16-/m0/s1

>  <threshold>
-1

>  <reference>
R1|R13|R28|R9|R24|R27|R30|

>  <group>
B

>  <Class>
-1

>  <ABC>
20.18

>  <ABCGG>
16.64

>  <nAcid>
0

>  <nBase>
1

>  <nAromAtom>
6

>  <nAromBond>
6

>  <nAtom>
51

>  <nHeavyAtom>
26

>  <nSpiro>
0

>  <nBridgehead>
0

>  <nHetero>
7

>  <nN>
3

>  <nO>
2

>  <nF>
0

>  <BalabanJ>
1.58

>  <BertzCT>
676.75

>  <nBonds>
53

>  <nBondsO>
28

>  <nBondsS>
45

>  <nBondsD>
2

>  <nBondsT>
0

>  <nBondsA>
6

>  <nBondsM>
8

>  <nBondsKS>
48

>  <nBondsKD>
5

>  <RNCG>
0.17

>  <RPCG>
0.12

>  <FCSP3>
0.58

>  <SZ>
35

>  <Sm>
33.16

>  <Sv>
31.66

>  <Sse>
51.28

>  <Sp>
34.53

>  <Si>
57.79

>  <MZ>
0.69

>  <Mm>
0.65

>  <Mv>
0.62

>  <Mse>
1.01

>  <Mp>
0.68

>  <Mi>
1.13

>  <NsCH3>
1

>  <NdCH2>
0

>  <NssCH2>
9

>  <NtCH>
0

>  <NdsCH>
0

>  <NaaCH>
3

>  <NsssCH>
1

>  <NddC>
0

>  <NtsC>
0

>  <NdssC>
2

>  <NaasC>
3

>  <NaaaC>
0

>  <NssssC>
0

>  <NsNH3>
0

>  <NsNH2>
0

>  <NssNH2>
0

>  <NdNH>
0

>  <NssNH>
0

>  <NaaNH>
0

>  <NtN>
0

>  <NsssNH>
0

>  <NdsN>
0

>  <NaaN>
0

>  <NsssN>
3

>  <NddsN>
0

>  <NaasN>
0

>  <NssssN>
0

>  <NsOH>
0

>  <NdO>
2

>  <NssO>
0

>  <NaaO>
0

>  <NsF>
0

>  <NsSiH3>
0

>  <NssSiH2>
0

>  <NsssSiH>
0

>  <NssssSi>
0

>  <NsPH2>
0

>  <NssPH>
0

>  <NsssP>
0

>  <NdsssP>
0

>  <NsssssP>
0

>  <NsSH>
0

>  <NdS>
0

>  <NssS>
0

>  <NaaS>
0

>  <NdssS>
0

>  <NddssS>
0

>  <NsCl>
2

>  <NsBr>
0

>  <NsI>
0

>  <fragCpx>
134.07

>  <fMF>
0.39

>  <nHBAcc>
3

>  <nHBDon>
0

>  <Kier1>
20.73

>  <Kier2>
9.47

>  <Lipinski>
1

>  <GhoseFilter>
1

>  <FilterItLogS>
-4.19

>  <VMcGowan>
290.65

>  <LabuteASA>
164.37

>  <PEOE_VSA1>
14.7

>  <PEOE_VSA2>
9.59

>  <PEOE_VSA3>
0

>  <PEOE_VSA4>
0

>  <PEOE_VSA5>
0

>  <PEOE_VSA6>
29.27

>  <PEOE_VSA7>
43.63

>  <PEOE_VSA8>
33.1

>  <PEOE_VSA9>
22.51

>  <PEOE_VSA10>
0

>  <PEOE_VSA11>
0

>  <PEOE_VSA12>
11.81

>  <PEOE_VSA13>
0

>  <SMR_VSA1>
9.59

>  <SMR_VSA2>
0

>  <SMR_VSA3>
14.7

>  <SMR_VSA4>
0

>  <SMR_VSA5>
32.23

>  <SMR_VSA6>
39.27

>  <SMR_VSA7>
33.81

>  <SMR_VSA8>
0

>  <SMR_VSA9>
0

>  <SlogP_VSA1>
0

>  <SlogP_VSA2>
71.82

>  <SlogP_VSA3>
16.01

>  <SlogP_VSA4>
0

>  <SlogP_VSA5>
25.33

>  <SlogP_VSA6>
18.2

>  <SlogP_VSA7>
10.05

>  <SlogP_VSA8>
0

>  <SlogP_VSA9>
0

>  <SlogP_VSA10>
0

>  <SlogP_VSA11>
0

>  <EState_VSA1>
0

>  <EState_VSA2>
17.86

>  <EState_VSA3>
36.1

>  <EState_VSA4>
25.2

>  <EState_VSA5>
12.84

>  <EState_VSA6>
19.06

>  <EState_VSA7>
15.87

>  <EState_VSA8>
4.9

>  <EState_VSA9>
23.2

>  <EState_VSA10>
9.59

>  <VSA_EState1>
0

>  <VSA_EState2>
30.94

>  <VSA_EState3>
0.96

>  <VSA_EState4>
0.86

>  <VSA_EState5>
0.16

>  <VSA_EState6>
5.36

>  <VSA_EState7>
2.72

>  <VSA_EState8>
6.37

>  <VSA_EState9>
0

>  <apol>
57.66

>  <bpol>
32.97

>  <nRing>
3

>  <nHRing>
2

>  <naRing>
1

>  <naHRing>
0

>  <nARing 2>
2

>  <nAHRing 2>
2

>  <nFRing>
0

>  <nFHRing>
0

>  <nFaRing>
0

>  <nFaHRing>
0

>  <nFARing 2>
0

>  <nFAHRing 2>
0

>  <nRot>
4

>  <SLogP>
2.69

>  <SMR>
103.6

>  <TopoPSA(NO)>
43.86

>  <TopoPSA>
43.86

>  <JGI1>
0.21

>  <JGI2>
0.08

>  <JGI3>
0.05

>  <JGI4>
0.04

>  <JGI5>
0.03

>  <Diameter>
12

>  <Radius>
6

>  <TMWC10>
128.99

>  <TSRW10>
73.86

>  <MW>
397.13

>  <AMW>
7.79

>  <WPath>
1728

>  <WPol>
38

>  <Zagreb1>
134

>  <Zagreb2>
155

>  <mZagreb2>
5.69

>  <yes>


>  <nAR-cont>
1

>  <nHA-cont>
0.892715677

>  <MWHBN>
0.150541038

>  <MWHBN-cont>
0.933911491

>  <TPSA-cont>
0.693829965

>  <pka_cont>
0.97

>  <yes.1>


>  <BBB_SCORE>
5.166242843

>  <MMFF94 Energy>
86.189

$$$$
Compound 828
Actelion Java MolfileCreator 2.0

  0  0  0  0  0  0              0 V3000
M  V30 BEGIN CTAB
M  V30 COUNTS 52 54 0 0 0
M  V30 BEGIN ATOM
M  V30 1 Cl -4.6951 -4.2897 2.1836 0
M  V30 2 C -3.2586 -4.6138 1.279 0
M  V30 3 C -2.7452 -5.9048 1.1229 0
M  V30 4 C -2.6036 -3.5268 0.6889 0
M  V30 5 Cl -3.501 -7.2944 1.8179 0
M  V30 6 C -1.5775 -6.1016 0.3811 0
M  V30 7 C -1.4354 -3.719 -0.0644 0
M  V30 8 C -0.9244 -5.0154 -0.2067 0
M  V30 9 C -0.7202 -2.5373 -0.6814 0
M  V30 10 C 0.3103 -1.8821 0.2342 0
M  V30 11 O 0.5713 -2.3479 1.3451 0
M  V30 12 N 0.9655 -0.7512 -0.2487 0
M  V30 13 C 0.57 0.003 -1.4746 0 CFG=2
M  V30 14 C 1.9734 -0.1206 0.626 0
M  V30 15 C 1.7834 0.6754 -2.1653 0
M  V30 16 C -0.6061 1.007 -1.248 0
M  V30 17 C 3.1363 0.5237 -0.1363 0
M  V30 18 N 2.647 1.3711 -1.221 0
M  V30 19 N -0.4318 1.9413 -0.1302 0
M  V30 20 C 2.8424 2.7331 -1.3489 0
M  V30 21 C -1.2402 1.5945 1.0481 0
M  V30 22 C -0.8636 3.3048 -0.4573 0
M  V30 23 O 2.3855 3.3843 -2.2893 0
M  V30 24 C 3.655 3.4172 -0.2809 0
M  V30 25 C -1.2698 2.8857 1.8765 0 CFG=1
M  V30 26 C -0.8581 3.9857 0.9024 0
M  V30 27 O -2.5773 3.1519 2.3726 0
M  V30 28 H -3.0021 -2.5235 0.8253 0
M  V30 29 H -1.1649 -7.1007 0.2624 0
M  V30 30 H -0.0073 -5.189 -0.7665 0
M  V30 31 H -0.2125 -2.8651 -1.5965 0
M  V30 32 H -1.472 -1.7985 -0.9755 0
M  V30 33 H 0.19 -0.7253 -2.1999 0
M  V30 34 H 2.3792 -0.8558 1.3293 0
M  V30 35 H 1.4646 0.6374 1.2275 0
M  V30 36 H 1.4508 1.334 -2.9742 0
M  V30 37 H 2.4033 -0.1025 -2.6295 0
M  V30 38 H -1.5386 0.4423 -1.1283 0
M  V30 39 H -0.7371 1.5622 -2.1872 0
M  V30 40 H 3.7537 -0.2566 -0.5972 0
M  V30 41 H 3.7746 1.0732 0.5584 0
M  V30 42 H -0.7994 0.7738 1.6212 0
M  V30 43 H -2.2629 1.3002 0.7778 0
M  V30 44 H -1.875 3.318 -0.8838 0
M  V30 45 H -0.1809 3.7998 -1.1542 0
M  V30 46 H 3.1765 3.2917 0.6941 0
M  V30 47 H 4.6702 3.0126 -0.2628 0
M  V30 48 H 3.7144 4.488 -0.498 0
M  V30 49 H -0.5746 2.8483 2.7224 0
M  V30 50 H 0.1605 4.3191 1.137 0
M  V30 51 H -1.52 4.8571 0.9234 0
M  V30 52 H -2.7855 2.4604 3.0243 0
M  V30 END ATOM
M  V30 BEGIN BOND
M  V30 1 1 1 2
M  V30 2 2 2 3
M  V30 3 1 2 4
M  V30 4 1 3 5
M  V30 5 1 3 6
M  V30 6 2 4 7
M  V30 7 2 6 8
M  V30 8 1 7 9
M  V30 9 1 9 10
M  V30 10 2 10 11
M  V30 11 1 10 12
M  V30 12 1 12 13
M  V30 13 1 12 14
M  V30 14 1 13 15
M  V30 15 1 13 16
M  V30 16 1 14 17
M  V30 17 1 15 18
M  V30 18 1 16 19
M  V30 19 1 18 20
M  V30 20 1 19 21
M  V30 21 1 19 22
M  V30 22 2 20 23
M  V30 23 1 20 24
M  V30 24 1 21 25
M  V30 25 1 22 26
M  V30 26 1 25 27
M  V30 27 1 7 8
M  V30 28 1 17 18
M  V30 29 1 25 26
M  V30 30 1 4 28
M  V30 31 1 6 29
M  V30 32 1 8 30
M  V30 33 1 9 31
M  V30 34 1 9 32
M  V30 35 1 13 33
M  V30 36 1 14 34
M  V30 37 1 14 35
M  V30 38 1 15 36
M  V30 39 1 15 37
M  V30 40 1 16 38
M  V30 41 1 16 39
M  V30 42 1 17 40
M  V30 43 1 17 41
M  V30 44 1 21 42
M  V30 45 1 21 43
M  V30 46 1 22 44
M  V30 47 1 22 45
M  V30 48 1 24 46
M  V30 49 1 24 47
M  V30 50 1 24 48
M  V30 51 1 25 49
M  V30 52 1 26 50
M  V30 53 1 26 51
M  V30 54 1 27 52
M  V30 END BOND
M  V30 BEGIN COLLECTION
M  V30 MDLV30/STEABS ATOMS=(2 13 25)
M  V30 END COLLECTION
M  V30 END CTAB
M  END
>  <Column 1>
992

>  <level_0>
1128

>  <index>
1128

>  <Unnamed: 0>
1128

>  <NO.>
1140

>  <Name>
gr94839

>  <IUPAC_name>
1-[(2s)-4-acetyl-2-[[(3r)-3-hydroxypyrrolidin-1-yl]methyl]piperazin-1-yl]-2-(3-4-dichlorophenyl)ethanone

>  <SMILES>
CC(=O)N1CCN(C(=O)Cc2ccc(Cl)c(Cl)c2)[C@@H](CN2CC[C@@H](O)C2)C1

>  <CID>
44310852

>  <logBB>


>  <BBB+/BBB->
BBB-

>  <Inchi>
InChI=1S/C19H25Cl2N3O3/c1-13(25)23-6-7-24(15(11-23)10-22-5-4-16(26)12-22)19(27)9-14-2-3-17(20)18(21)8-14/h2-3-8-15-16-26H-4-7-9-12H2-1H3/t15--16+/m0/s1

>  <threshold>
-1

>  <reference>
R1|R9|R24|R27|R30|

>  <group>
B

>  <Class>
-1

>  <ABC>
21

>  <ABCGG>
17.17

>  <nAcid>
0

>  <nBase>
1

>  <nAromAtom>
6

>  <nAromBond>
6

>  <nAtom>
52

>  <nHeavyAtom>
27

>  <nSpiro>
0

>  <nBridgehead>
0

>  <nHetero>
8

>  <nN>
3

>  <nO>
3

>  <nF>
0

>  <BalabanJ>
1.59

>  <BertzCT>
715.44

>  <nBonds>
54

>  <nBondsO>
29

>  <nBondsS>
46

>  <nBondsD>
2

>  <nBondsT>
0

>  <nBondsA>
6

>  <nBondsM>
8

>  <nBondsKS>
49

>  <nBondsKD>
5

>  <RNCG>
0.17

>  <RPCG>
0.1

>  <FCSP3>
0.58

>  <SZ>
36.33

>  <Sm>
34.5

>  <Sv>
32.37

>  <Sse>
52.61

>  <Sp>
35.01

>  <Si>
58.99

>  <MZ>
0.7

>  <Mm>
0.66

>  <Mv>
0.62

>  <Mse>
1.01

>  <Mp>
0.67

>  <Mi>
1.13

>  <NsCH3>
1

>  <NdCH2>
0

>  <NssCH2>
8

>  <NtCH>
0

>  <NdsCH>
0

>  <NaaCH>
3

>  <NsssCH>
2

>  <NddC>
0

>  <NtsC>
0

>  <NdssC>
2

>  <NaasC>
3

>  <NaaaC>
0

>  <NssssC>
0

>  <NsNH3>
0

>  <NsNH2>
0

>  <NssNH2>
0

>  <NdNH>
0

>  <NssNH>
0

>  <NaaNH>
0

>  <NtN>
0

>  <NsssNH>
0

>  <NdsN>
0

>  <NaaN>
0

>  <NsssN>
3

>  <NddsN>
0

>  <NaasN>
0

>  <NssssN>
0

>  <NsOH>
1

>  <NdO>
2

>  <NssO>
0

>  <NaaO>
0

>  <NsF>
0

>  <NsSiH3>
0

>  <NssSiH2>
0

>  <NsssSiH>
0

>  <NssssSi>
0

>  <NsPH2>
0

>  <NssPH>
0

>  <NsssP>
0

>  <NdsssP>
0

>  <NsssssP>
0

>  <NsSH>
0

>  <NdS>
0

>  <NssS>
0

>  <NaaS>
0

>  <NdssS>
0

>  <NddssS>
0

>  <NsCl>
2

>  <NsBr>
0

>  <NsI>
0

>  <fragCpx>
139.08

>  <fMF>
0.38

>  <nHBAcc>
4

>  <nHBDon>
1

>  <Kier1>
21.7

>  <Kier2>
9.67

>  <Lipinski>
1

>  <GhoseFilter>
1

>  <FilterItLogS>
-3.37

>  <VMcGowan>
296.52

>  <LabuteASA>
169.17

>  <PEOE_VSA1>
14.91

>  <PEOE_VSA2>
14.49

>  <PEOE_VSA3>
0

>  <PEOE_VSA4>
0

>  <PEOE_VSA5>
0

>  <PEOE_VSA6>
29.27

>  <PEOE_VSA7>
24.12

>  <PEOE_VSA8>
46.19

>  <PEOE_VSA9>
28.61

>  <PEOE_VSA10>
0

>  <PEOE_VSA11>
0

>  <PEOE_VSA12>
11.81

>  <PEOE_VSA13>
0

>  <SMR_VSA1>
14.7

>  <SMR_VSA2>
0

>  <SMR_VSA3>
14.7

>  <SMR_VSA4>
0

>  <SMR_VSA5>
31.91

>  <SMR_VSA6>
39.27

>  <SMR_VSA7>
33.81

>  <SMR_VSA8>
0

>  <SMR_VSA9>
0

>  <SlogP_VSA1>
0

>  <SlogP_VSA2>
83.03

>  <SlogP_VSA3>
16.01

>  <SlogP_VSA4>
0

>  <SlogP_VSA5>
18.91

>  <SlogP_VSA6>
18.2

>  <SlogP_VSA7>
10.05

>  <SlogP_VSA8>
0

>  <SlogP_VSA9>
0

>  <SlogP_VSA10>
0

>  <SlogP_VSA11>
0

>  <EState_VSA1>
0

>  <EState_VSA2>
30.38

>  <EState_VSA3>
42.77

>  <EState_VSA4>
18.53

>  <EState_VSA5>
0

>  <EState_VSA6>
23.96

>  <EState_VSA7>
10.97

>  <EState_VSA8>
4.9

>  <EState_VSA9>
23.2

>  <EState_VSA10>
14.7

>  <VSA_EState1>
0

>  <VSA_EState2>
30.6

>  <VSA_EState3>
10.68

>  <VSA_EState4>
0.82

>  <VSA_EState5>
0.04

>  <VSA_EState6>
5.15

>  <VSA_EState7>
0.69

>  <VSA_EState8>
5.23

>  <VSA_EState9>
0

>  <apol>
58.47

>  <bpol>
32.97

>  <nRing>
3

>  <nHRing>
2

>  <naRing>
1

>  <naHRing>
0

>  <nARing 2>
2

>  <nAHRing 2>
2

>  <nFRing>
0

>  <nFHRing>
0

>  <nFaRing>
0

>  <nFaHRing>
0

>  <nFARing 2>
0

>  <nFAHRing 2>
0

>  <nRot>
4

>  <SLogP>
1.66

>  <SMR>
104.98

>  <TopoPSA(NO)>
64.09

>  <TopoPSA>
64.09

>  <JGI1>
0.24

>  <JGI2>
0.08

>  <JGI3>
0.05

>  <JGI4>
0.04

>  <JGI5>
0.03

>  <Diameter>
13

>  <Radius>
7

>  <TMWC10>
131.47

>  <TSRW10>
75.52

>  <MW>
413.13

>  <AMW>
7.94

>  <WPath>
1919

>  <WPol>
40

>  <Zagreb1>
140

>  <Zagreb2>
162

>  <mZagreb2>
5.86

>  <yes>


>  <nAR-cont>
1

>  <nHA-cont>
0.860070871

>  <MWHBN>
0.245995203

>  <MWHBN-cont>
0.966253733

>  <TPSA-cont>
0.552612003

>  <pka_cont>
0.97

>  <yes.1>


>  <BBB_SCORE>
4.899675476

>  <MMFF94 Energy>
116.13

$$$$
Compound 829
Actelion Java MolfileCreator 2.0

  0  0  0  0  0  0              0 V3000
M  V30 BEGIN CTAB
M  V30 COUNTS 54 56 0 0 0
M  V30 BEGIN ATOM
M  V30 1 O 2.0736 -6.551 -3.4312 0
M  V30 2 N 1.3102 -5.6779 -3.8675 0 CHG=1
M  V30 3 O 1.1133 -5.4538 -5.0706 0 CHG=-1
M  V30 4 C 0.5929 -4.8462 -2.8933 0
M  V30 5 C -0.3093 -3.8739 -3.3421 0
M  V30 6 C 0.8115 -5.034 -1.5242 0
M  V30 7 C -0.9891 -3.0825 -2.4123 0
M  V30 8 C 0.1267 -4.2378 -0.6023 0
M  V30 9 C -0.7656 -3.2436 -1.0354 0
M  V30 10 C -1.5309 -2.3951 -0.0405 0
M  V30 11 C -0.6795 -1.8669 1.1073 0
M  V30 12 O -0.6842 -2.4748 2.1821 0
M  V30 13 N 0.101 -0.7354 0.9079 0
M  V30 14 C 0.0795 0.1194 -0.3086 0 CFG=2
M  V30 15 C 0.9216 -0.2572 2.0389 0
M  V30 16 C 1.4694 0.7305 -0.6405 0
M  V30 17 C -1.0577 1.1915 -0.3275 0
M  V30 18 C 2.3028 0.237 1.6098 0
M  V30 19 N 2.193 1.2147 0.5316 0
M  V30 20 N -1.0882 2.1201 0.806 0
M  V30 21 C 2.7433 2.4728 0.6878 0
M  V30 22 C -1.5023 3.4794 0.4266 0
M  V30 23 C -2.0788 1.7379 1.8264 0
M  V30 24 O 3.3116 2.8298 1.7201 0
M  V30 25 C 2.6426 3.4208 -0.4791 0
M  V30 26 C -1.9735 4.1281 1.7364 0 CFG=2
M  V30 27 C -2.1138 2.9694 2.7164 0
M  V30 28 O -3.2412 4.7559 1.5644 0
M  V30 29 H -0.4986 -3.7265 -4.4035 0
M  V30 30 H 1.5005 -5.7928 -1.1582 0
M  V30 31 H -1.7 -2.341 -2.7731 0
M  V30 32 H 0.2934 -4.4053 0.4623 0
M  V30 33 H -2.038 -1.5639 -0.5377 0
M  V30 34 H -2.3298 -3.0131 0.3893 0
M  V30 35 H -0.1464 -0.5313 -1.1588 0
M  V30 36 H 1.0455 -1.0463 2.7878 0
M  V30 37 H 0.3804 0.5575 2.5261 0
M  V30 38 H 1.3754 1.4968 -1.4131 0
M  V30 39 H 2.1009 -0.06 -1.067 0
M  V30 40 H -2.0278 0.6901 -0.4329 0
M  V30 41 H -0.9315 1.7578 -1.2609 0
M  V30 42 H 2.8988 -0.5995 1.2257 0
M  V30 43 H 2.8338 0.6487 2.4736 0
M  V30 44 H -0.6621 4.0348 -6.0E-4 0
M  V30 45 H -2.316 3.4702 -0.3104 0
M  V30 46 H -3.0708 1.5689 1.3864 0
M  V30 47 H -1.8003 0.8457 2.3916 0
M  V30 48 H 3.1374 2.9928 -1.355 0
M  V30 49 H 1.5961 3.6375 -0.7035 0
M  V30 50 H 3.1416 4.3618 -0.2285 0
M  V30 51 H -1.2621 4.8691 2.1165 0
M  V30 52 H -1.2522 2.9528 3.3955 0
M  V30 53 H -3.029 3.0133 3.3148 0
M  V30 54 H -3.0967 5.555 1.0292 0
M  V30 END ATOM
M  V30 BEGIN BOND
M  V30 1 2 1 2
M  V30 2 1 2 3
M  V30 3 1 2 4
M  V30 4 2 4 5
M  V30 5 1 4 6
M  V30 6 1 5 7
M  V30 7 2 6 8
M  V30 8 2 7 9
M  V30 9 1 9 10
M  V30 10 1 10 11
M  V30 11 2 11 12
M  V30 12 1 11 13
M  V30 13 1 13 14
M  V30 14 1 13 15
M  V30 15 1 14 16
M  V30 16 1 14 17
M  V30 17 1 15 18
M  V30 18 1 16 19
M  V30 19 1 17 20
M  V30 20 1 19 21
M  V30 21 1 20 22
M  V30 22 1 20 23
M  V30 23 2 21 24
M  V30 24 1 21 25
M  V30 25 1 22 26
M  V30 26 1 23 27
M  V30 27 1 26 28
M  V30 28 1 8 9
M  V30 29 1 18 19
M  V30 30 1 26 27
M  V30 31 1 5 29
M  V30 32 1 6 30
M  V30 33 1 7 31
M  V30 34 1 8 32
M  V30 35 1 10 33
M  V30 36 1 10 34
M  V30 37 1 14 35
M  V30 38 1 15 36
M  V30 39 1 15 37
M  V30 40 1 16 38
M  V30 41 1 16 39
M  V30 42 1 17 40
M  V30 43 1 17 41
M  V30 44 1 18 42
M  V30 45 1 18 43
M  V30 46 1 22 44
M  V30 47 1 22 45
M  V30 48 1 23 46
M  V30 49 1 23 47
M  V30 50 1 25 48
M  V30 51 1 25 49
M  V30 52 1 25 50
M  V30 53 1 26 51
M  V30 54 1 27 52
M  V30 55 1 27 53
M  V30 56 1 28 54
M  V30 END BOND
M  V30 BEGIN COLLECTION
M  V30 MDLV30/STEABS ATOMS=(2 14 26)
M  V30 END COLLECTION
M  V30 END CTAB
M  END
>  <Column 1>
994

>  <level_0>
1130

>  <index>
1130

>  <Unnamed: 0>
1130

>  <NO.>
1142

>  <Name>
chembl72048

>  <IUPAC_name>
1-[(2s)-4-acetyl-2-[[(3s)-3-hydroxypyrrolidin-1-yl]methyl]piperazin-1-yl]-2-(4-nitrophenyl)ethanone

>  <SMILES>
CC(=O)N1CCN(C(=O)Cc2ccc([N+](=O)[O-])cc2)[C@@H](CN2CC[C@H](O)C2)C1

>  <CID>
44311016

>  <logBB>


>  <BBB+/BBB->
BBB-

>  <Inchi>
InChI=1S/C19H26N4O5/c1-14(24)21-8-9-22(17(12-21)11-20-7-6-18(25)13-20)19(26)10-15-2-4-16(5-3-15)23(27)28/h2-5-17-18-25H-6-13H2-1H3/t17--18-/m0/s1

>  <threshold>
-1

>  <reference>
R1|R28|R9|R24|R27|R30|

>  <group>
B

>  <Class>
-1

>  <ABC>
21.71

>  <ABCGG>
17.42

>  <nAcid>
0

>  <nBase>
1

>  <nAromAtom>
6

>  <nAromBond>
6

>  <nAtom>
54

>  <nHeavyAtom>
28

>  <nSpiro>
0

>  <nBridgehead>
0

>  <nHetero>
9

>  <nN>
4

>  <nO>
5

>  <nF>
0

>  <BalabanJ>
1.55

>  <BertzCT>
738.34

>  <nBonds>
56

>  <nBondsO>
30

>  <nBondsS>
47

>  <nBondsD>
3

>  <nBondsT>
0

>  <nBondsA>
6

>  <nBondsM>
9

>  <nBondsKS>
50

>  <nBondsKD>
6

>  <RNCG>
0.15

>  <RPCG>
0.1

>  <FCSP3>
0.58

>  <SZ>
34.67

>  <Sm>
32.51

>  <Sv>
32.65

>  <Sse>
54.85

>  <Sp>
34.42

>  <Si>
61.61

>  <MZ>
0.64

>  <Mm>
0.6

>  <Mv>
0.6

>  <Mse>
1.02

>  <Mp>
0.64

>  <Mi>
1.14

>  <NsCH3>
1

>  <NdCH2>
0

>  <NssCH2>
8

>  <NtCH>
0

>  <NdsCH>
0

>  <NaaCH>
4

>  <NsssCH>
2

>  <NddC>
0

>  <NtsC>
0

>  <NdssC>
2

>  <NaasC>
2

>  <NaaaC>
0

>  <NssssC>
0

>  <NsNH3>
0

>  <NsNH2>
0

>  <NssNH2>
0

>  <NdNH>
0

>  <NssNH>
0

>  <NaaNH>
0

>  <NtN>
0

>  <NsssNH>
0

>  <NdsN>
0

>  <NaaN>
0

>  <NsssN>
3

>  <NddsN>
1

>  <NaasN>
0

>  <NssssN>
0

>  <NsOH>
1

>  <NdO>
3

>  <NssO>
0

>  <NaaO>
0

>  <NsF>
0

>  <NsSiH3>
0

>  <NssSiH2>
0

>  <NsssSiH>
0

>  <NssssSi>
0

>  <NsPH2>
0

>  <NssPH>
0

>  <NsssP>
0

>  <NdsssP>
0

>  <NsssssP>
0

>  <NsSH>
0

>  <NdS>
0

>  <NssS>
0

>  <NaaS>
0

>  <NdssS>
0

>  <NddssS>
0

>  <NsCl>
0

>  <NsBr>
0

>  <NsI>
0

>  <fragCpx>
144.09

>  <fMF>
0.37

>  <nHBAcc>
6

>  <nHBDon>
1

>  <Kier1>
22.68

>  <Kier2>
10.35

>  <Lipinski>
1

>  <GhoseFilter>
1

>  <FilterItLogS>
-2.01

>  <VMcGowan>
289.46

>  <LabuteASA>
163.21

>  <PEOE_VSA1>
14.91

>  <PEOE_VSA2>
24.6

>  <PEOE_VSA3>
0

>  <PEOE_VSA4>
0

>  <PEOE_VSA5>
0

>  <PEOE_VSA6>
12.13

>  <PEOE_VSA7>
11.98

>  <PEOE_VSA8>
58.33

>  <PEOE_VSA9>
23.49

>  <PEOE_VSA10>
0

>  <PEOE_VSA11>
0

>  <PEOE_VSA12>
11.81

>  <PEOE_VSA13>
5.69

>  <SMR_VSA1>
19.62

>  <SMR_VSA2>
0

>  <SMR_VSA3>
14.7

>  <SMR_VSA4>
0

>  <SMR_VSA5>
31.91

>  <SMR_VSA6>
39.27

>  <SMR_VSA7>
39.94

>  <SMR_VSA8>
0

>  <SMR_VSA9>
0

>  <SlogP_VSA1>
0

>  <SlogP_VSA2>
87.96

>  <SlogP_VSA3>
16.01

>  <SlogP_VSA4>
10.11

>  <SlogP_VSA5>
18.91

>  <SlogP_VSA6>
24.27

>  <SlogP_VSA7>
0

>  <SlogP_VSA8>
0

>  <SlogP_VSA9>
0

>  <SlogP_VSA10>
5.69

>  <SlogP_VSA11>
0

>  <EState_VSA1>
4.92

>  <EState_VSA2>
36.07

>  <EState_VSA3>
32.72

>  <EState_VSA4>
18.53

>  <EState_VSA5>
19.06

>  <EState_VSA6>
17.03

>  <EState_VSA7>
4.9

>  <EState_VSA8>
4.9

>  <EState_VSA9>
0

>  <EState_VSA10>
24.81

>  <VSA_EState1>
0

>  <VSA_EState2>
40.74

>  <VSA_EState3>
20.54

>  <VSA_EState4>
0.72

>  <VSA_EState5>
-0.06

>  <VSA_EState6>
5.88

>  <VSA_EState7>
0.55

>  <VSA_EState8>
4.96

>  <VSA_EState9>
0

>  <apol>
57.48

>  <bpol>
34.12

>  <nRing>
3

>  <nHRing>
2

>  <naRing>
1

>  <naHRing>
0

>  <nARing 2>
2

>  <nAHRing 2>
2

>  <nFRing>
0

>  <nFHRing>
0

>  <nFaRing>
0

>  <nFaHRing>
0

>  <nFARing 2>
0

>  <nFAHRing 2>
0

>  <nRot>
5

>  <SLogP>
0.26

>  <SMR>
101.62

>  <TopoPSA(NO)>
107.23

>  <TopoPSA>
107.23

>  <JGI1>
0.23

>  <JGI2>
0.08

>  <JGI3>
0.05

>  <JGI4>
0.04

>  <JGI5>
0.03

>  <Diameter>
14

>  <Radius>
7

>  <TMWC10>
133.61

>  <TSRW10>
76.61

>  <MW>
390.19

>  <AMW>
7.23

>  <WPath>
2186

>  <WPol>
41

>  <Zagreb1>
144

>  <Zagreb2>
166

>  <mZagreb2>
6.11

>  <yes>


>  <nAR-cont>
1

>  <nHA-cont>
0.82432561

>  <MWHBN>
0.354372467

>  <MWHBN-cont>
0.653813493

>  <TPSA-cont>
0.251468014

>  <pka_cont>
0.97

>  <yes.1>


>  <BBB_SCORE>
3.792981879

>  <MMFF94 Energy>
142.06

$$$$
Compound 830
Actelion Java MolfileCreator 2.0

  0  0  0  0  0  0              0 V3000
M  V30 BEGIN CTAB
M  V30 COUNTS 57 59 0 0 0
M  V30 BEGIN ATOM
M  V30 1 S 1.9295 -4.8293 -3.2981 0
M  V30 2 O 3.275 -5.1123 -2.6966 0
M  V30 3 C 1.0052 -3.9239 -2.0377 0
M  V30 4 C 0.9692 -6.3628 -3.2105 0
M  V30 5 C -0.1553 -3.2341 -2.3981 0
M  V30 6 C 1.4325 -3.9017 -0.7081 0
M  V30 7 C -0.8798 -2.5266 -1.4352 0
M  V30 8 C 0.7046 -3.1994 0.2557 0
M  V30 9 C -0.4476 -2.4857 -0.1011 0
M  V30 10 C -1.2602 -1.7222 0.9238 0
M  V30 11 C -0.4442 -1.0638 2.025 0
M  V30 12 O -0.4398 -1.5723 3.1509 0
M  V30 13 N 0.2958 0.0725 1.7362 0
M  V30 14 C 0.3538 0.7718 0.4206 0 CFG=2
M  V30 15 C 1.0952 0.6798 2.8134 0
M  V30 16 C 1.8303 1.0122 0.0148 0
M  V30 17 C -0.4291 2.1177 0.4315 0
M  V30 18 C 2.5428 0.9316 2.3743 0
M  V30 19 N 2.5983 1.6448 1.0937 0
M  V30 20 N -1.8817 1.9297 0.5629 0
M  V30 21 C 3.3537 2.798 0.9862 0
M  V30 22 C -2.5527 3.1295 1.0877 0
M  V30 23 C -2.5478 1.6732 -0.7191 0
M  V30 24 O 3.9491 3.2944 1.9421 0
M  V30 25 C 3.42 3.4571 -0.3671 0
M  V30 26 C -4.0101 3.0102 0.6172 0 CFG=2
M  V30 27 C -4.0129 1.8325 -0.3495 0
M  V30 28 O -4.4161 4.1832 -0.0845 0
M  V30 29 H 1.4278 -7.0956 -3.8786 0
M  V30 30 H 0.9748 -6.7526 -2.1896 0
M  V30 31 H -0.0564 -6.1734 -3.5357 0
M  V30 32 H -0.506 -3.2403 -3.427 0
M  V30 33 H 2.3332 -4.4364 -0.4118 0
M  V30 34 H -1.7861 -2.0035 -1.7345 0
M  V30 35 H 1.0519 -3.218 1.288 0
M  V30 36 H -1.8828 -0.9614 0.4469 0
M  V30 37 H -1.955 -2.4287 1.3957 0
M  V30 38 H -0.0828 0.1422 -0.3558 0
M  V30 39 H 1.0973 0.0553 3.712 0
M  V30 40 H 0.612 1.6248 3.0845 0
M  V30 41 H 1.8774 1.5871 -0.9124 0
M  V30 42 H 2.3142 0.0472 -0.1816 0
M  V30 43 H -0.2009 2.6943 -0.4743 0
M  V30 44 H -0.0684 2.7244 1.271 0
M  V30 45 H 3.0581 -0.0248 2.2246 0
M  V30 46 H 3.0784 1.4743 3.1591 0
M  V30 47 H -2.4961 3.1422 2.1811 0
M  V30 48 H -2.1007 4.0545 0.7075 0
M  V30 49 H -2.2684 2.412 -1.4813 0
M  V30 50 H -2.3419 0.674 -1.1113 0
M  V30 51 H 3.8267 2.7625 -1.1066 0
M  V30 52 H 2.4256 3.7965 -0.6686 0
M  V30 53 H 4.0806 4.3278 -0.3163 0
M  V30 54 H -4.7071 2.838 1.4439 0
M  V30 55 H -4.3606 0.9287 0.1661 0
M  V30 56 H -4.6391 1.9953 -1.2319 0
M  V30 57 H -4.4502 4.9088 0.5627 0
M  V30 END ATOM
M  V30 BEGIN BOND
M  V30 1 2 1 2
M  V30 2 1 1 3
M  V30 3 1 1 4
M  V30 4 2 3 5
M  V30 5 1 3 6
M  V30 6 1 5 7
M  V30 7 2 6 8
M  V30 8 2 7 9
M  V30 9 1 9 10
M  V30 10 1 10 11
M  V30 11 2 11 12
M  V30 12 1 11 13
M  V30 13 1 13 14
M  V30 14 1 13 15
M  V30 15 1 14 16
M  V30 16 1 14 17
M  V30 17 1 15 18
M  V30 18 1 16 19
M  V30 19 1 17 20
M  V30 20 1 19 21
M  V30 21 1 20 22
M  V30 22 1 20 23
M  V30 23 2 21 24
M  V30 24 1 21 25
M  V30 25 1 22 26
M  V30 26 1 23 27
M  V30 27 1 26 28
M  V30 28 1 8 9
M  V30 29 1 18 19
M  V30 30 1 26 27
M  V30 31 1 4 29
M  V30 32 1 4 30
M  V30 33 1 4 31
M  V30 34 1 5 32
M  V30 35 1 6 33
M  V30 36 1 7 34
M  V30 37 1 8 35
M  V30 38 1 10 36
M  V30 39 1 10 37
M  V30 40 1 14 38
M  V30 41 1 15 39
M  V30 42 1 15 40
M  V30 43 1 16 41
M  V30 44 1 16 42
M  V30 45 1 17 43
M  V30 46 1 17 44
M  V30 47 1 18 45
M  V30 48 1 18 46
M  V30 49 1 22 47
M  V30 50 1 22 48
M  V30 51 1 23 49
M  V30 52 1 23 50
M  V30 53 1 25 51
M  V30 54 1 25 52
M  V30 55 1 25 53
M  V30 56 1 26 54
M  V30 57 1 27 55
M  V30 58 1 27 56
M  V30 59 1 28 57
M  V30 END BOND
M  V30 BEGIN COLLECTION
M  V30 MDLV30/STEABS ATOMS=(2 14 26)
M  V30 END COLLECTION
M  V30 END CTAB
M  END
>  <Column 1>
995

>  <level_0>
1131

>  <index>
1131

>  <Unnamed: 0>
1131

>  <NO.>
1143

>  <Name>
gr94839_i

>  <IUPAC_name>


>  <SMILES>
CC(=O)N1CCN(C(=O)Cc2ccc([S@@+](C)[O-])cc2)[C@@H](CN2CC[C@H](O)C2)C1

>  <CID>


>  <logBB>


>  <BBB+/BBB->
BBB-

>  <Inchi>
InChI=1S/C20H29N3O4S/c1-15(24)22-9-10-23(17(13-22)12-21-8-7-18(25)14-21)20(26)11-16-3-5-19(6-4-16)28(2)27/h3-6-17-18-25H-7-14H2-1-2H3/t17--18--28+/m0/s1

>  <threshold>
-1

>  <reference>
R1|R28|R9|R27|R30|

>  <group>
B

>  <Class>
-1

>  <ABC>
21.71

>  <ABCGG>
17.42

>  <nAcid>
0

>  <nBase>
1

>  <nAromAtom>
6

>  <nAromBond>
6

>  <nAtom>
57

>  <nHeavyAtom>
28

>  <nSpiro>
0

>  <nBridgehead>
0

>  <nHetero>
8

>  <nN>
3

>  <nO>
4

>  <nF>
0

>  <BalabanJ>
1.55

>  <BertzCT>
697.2

>  <nBonds>
59

>  <nBondsO>
30

>  <nBondsS>
51

>  <nBondsD>
2

>  <nBondsT>
0

>  <nBondsA>
6

>  <nBondsM>
8

>  <nBondsKS>
54

>  <nBondsKD>
5

>  <RNCG>
0.23

>  <RPCG>
0.08

>  <FCSP3>
0.6

>  <SZ>
36.33

>  <Sm>
33.93

>  <Sv>
34.18

>  <Sse>
57.26

>  <Sp>
37.21

>  <Si>
64.65

>  <MZ>
0.64

>  <Mm>
0.6

>  <Mv>
0.6

>  <Mse>
1

>  <Mp>
0.65

>  <Mi>
1.13

>  <NsCH3>
2

>  <NdCH2>
0

>  <NssCH2>
8

>  <NtCH>
0

>  <NdsCH>
0

>  <NaaCH>
4

>  <NsssCH>
2

>  <NddC>
0

>  <NtsC>
0

>  <NdssC>
2

>  <NaasC>
2

>  <NaaaC>
0

>  <NssssC>
0

>  <NsNH3>
0

>  <NsNH2>
0

>  <NssNH2>
0

>  <NdNH>
0

>  <NssNH>
0

>  <NaaNH>
0

>  <NtN>
0

>  <NsssNH>
0

>  <NdsN>
0

>  <NaaN>
0

>  <NsssN>
3

>  <NddsN>
0

>  <NaasN>
0

>  <NssssN>
0

>  <NsOH>
1

>  <NdO>
2

>  <NssO>
0

>  <NaaO>
0

>  <NsF>
0

>  <NsSiH3>
0

>  <NssSiH2>
0

>  <NsssSiH>
0

>  <NssssSi>
0

>  <NsPH2>
0

>  <NssPH>
0

>  <NsssP>
0

>  <NdsssP>
0

>  <NsssssP>
0

>  <NsSH>
0

>  <NdS>
0

>  <NssS>
0

>  <NaaS>
0

>  <NdssS>
0

>  <NddssS>
0

>  <NsCl>
0

>  <NsBr>
0

>  <NsI>
0

>  <fragCpx>
144.08

>  <fMF>
0.35

>  <nHBAcc>
5

>  <nHBDon>
1

>  <Kier1>
22.68

>  <Kier2>
10.35

>  <Lipinski>
1

>  <GhoseFilter>
1

>  <FilterItLogS>
-2.55

>  <VMcGowan>
308.35

>  <LabuteASA>
169.02

>  <PEOE_VSA1>
19.46

>  <PEOE_VSA2>
14.49

>  <PEOE_VSA3>
0

>  <PEOE_VSA4>
0

>  <PEOE_VSA5>
0

>  <PEOE_VSA6>
12.13

>  <PEOE_VSA7>
35.29

>  <PEOE_VSA8>
46.19

>  <PEOE_VSA9>
18.57

>  <PEOE_VSA10>
6.26

>  <PEOE_VSA11>
4.9

>  <PEOE_VSA12>
11.81

>  <PEOE_VSA13>
0

>  <SMR_VSA1>
19.25

>  <SMR_VSA2>
0

>  <SMR_VSA3>
14.7

>  <SMR_VSA4>
0

>  <SMR_VSA5>
36.81

>  <SMR_VSA6>
45.52

>  <SMR_VSA7>
29.83

>  <SMR_VSA8>
0

>  <SMR_VSA9>
0

>  <SlogP_VSA1>
0

>  <SlogP_VSA2>
93.84

>  <SlogP_VSA3>
27.19

>  <SlogP_VSA4>
0

>  <SlogP_VSA5>
18.91

>  <SlogP_VSA6>
29.16

>  <SlogP_VSA7>
0

>  <SlogP_VSA8>
0

>  <SlogP_VSA9>
0

>  <SlogP_VSA10>
0

>  <SlogP_VSA11>
0

>  <EState_VSA1>
11.18

>  <EState_VSA2>
30.38

>  <EState_VSA3>
32.72

>  <EState_VSA4>
23.42

>  <EState_VSA5>
0

>  <EState_VSA6>
30.21

>  <EState_VSA7>
17.03

>  <EState_VSA8>
4.9

>  <EState_VSA9>
0

>  <EState_VSA10>
19.25

>  <VSA_EState1>
11.52

>  <VSA_EState2>
31.44

>  <VSA_EState3>
9.79

>  <VSA_EState4>
0.89

>  <VSA_EState5>
0.07

>  <VSA_EState6>
7.24

>  <VSA_EState7>
2.37

>  <VSA_EState8>
5.27

>  <VSA_EState9>
0

>  <apol>
62.15

>  <bpol>
40.52

>  <nRing>
3

>  <nHRing>
2

>  <naRing>
1

>  <naHRing>
0

>  <nARing 2>
2

>  <nAHRing 2>
2

>  <nFRing>
0

>  <nFHRing>
0

>  <nFaRing>
0

>  <nFaHRing>
0

>  <nFARing 2>
0

>  <nFAHRing 2>
0

>  <nRot>
5

>  <SLogP>
0.09

>  <SMR>
107.3

>  <TopoPSA(NO)>
87.15

>  <TopoPSA>
87.15

>  <JGI1>
0.23

>  <JGI2>
0.08

>  <JGI3>
0.05

>  <JGI4>
0.04

>  <JGI5>
0.03

>  <Diameter>
14

>  <Radius>
7

>  <TMWC10>
133.61

>  <TSRW10>
76.61

>  <MW>
407.19

>  <AMW>
7.14

>  <WPath>
2186

>  <WPol>
41

>  <Zagreb1>
144

>  <Zagreb2>
166

>  <mZagreb2>
6.11

>  <yes>


>  <nAR-cont>
1

>  <nHA-cont>
0.82432561

>  <MWHBN>
0.297339563

>  <MWHBN-cont>
0.848613941

>  <TPSA-cont>
0.391638883

>  <pka_cont>
0.97

>  <yes.1>


>  <BBB_SCORE>
4.365524288

>  <MMFF94 Energy>
112.84

$$$$
Compound 831
Actelion Java MolfileCreator 2.0

  0  0  0  0  0  0              0 V3000
M  V30 BEGIN CTAB
M  V30 COUNTS 54 56 0 0 0
M  V30 BEGIN ATOM
M  V30 1 O 2.0736 -5.8304 0.7174 0
M  V30 2 N 1.6849 -5.7694 -0.4571 0 CHG=1
M  V30 3 O 2.094 -6.4994 -1.3715 0 CHG=-1
M  V30 4 C 0.6758 -4.7566 -0.7933 0
M  V30 5 C 0.0951 -3.9853 0.2248 0
M  V30 6 C 0.3024 -4.5717 -2.1302 0
M  V30 7 C -0.8591 -3.0055 -0.0941 0
M  V30 8 C -0.6616 -3.6156 -2.4461 0
M  V30 9 C -1.2419 -2.8443 -1.4361 0
M  V30 10 C -1.5276 -2.173 0.9803 0
M  V30 11 C -0.5927 -1.7055 2.0878 0
M  V30 12 O -0.5846 -2.312 3.1622 0
M  V30 13 N 0.2351 -0.6155 1.855 0
M  V30 14 C 0.2305 0.2231 0.625 0 CFG=2
M  V30 15 C 1.085 -0.1354 2.9614 0
M  V30 16 C 1.6688 0.6271 0.2114 0
M  V30 17 C -0.6926 1.4597 0.8067 0
M  V30 18 C 2.4951 0.2408 2.4942 0
M  V30 19 N 2.4361 1.147 1.3466 0
M  V30 20 N -0.879 2.2485 -0.4187 0
M  V30 21 C 3.0195 2.398 1.4268 0
M  V30 22 C -1.6779 1.5668 -1.4489 0
M  V30 23 C -1.5988 3.5005 -0.1512 0
M  V30 24 O 3.5878 2.7996 2.4424 0
M  V30 25 C 2.9349 3.2829 0.2099 0
M  V30 26 C -2.3165 2.6912 -2.2803 0 CFG=2
M  V30 27 C -1.9495 3.9756 -1.55 0
M  V30 28 O -3.7358 2.5596 -2.3001 0
M  V30 29 H 0.3776 -4.1488 1.2653 0
M  V30 30 H 0.7433 -5.1658 -2.9282 0
M  V30 31 H -0.968 -3.4766 -3.4808 0
M  V30 32 H -2.0042 -2.1152 -1.7061 0
M  V30 33 H -2.0351 -1.3026 0.5505 0
M  V30 34 H -2.3164 -2.7827 1.4395 0
M  V30 35 H -0.1706 -0.3737 -0.1957 0
M  V30 36 H 1.1563 -0.8835 3.7571 0
M  V30 37 H 0.5833 0.7421 3.3859 0
M  V30 38 H 1.654 1.3234 -0.629 0
M  V30 39 H 2.2041 -0.2674 -0.1318 0
M  V30 40 H -0.2532 2.1075 1.5764 0
M  V30 41 H -1.6644 1.1366 1.204 0
M  V30 42 H 3.0335 -0.6564 2.1667 0
M  V30 43 H 3.0571 0.6789 3.3246 0
M  V30 44 H -1.0273 0.9491 -2.0765 0
M  V30 45 H -2.4528 0.9222 -1.0155 0
M  V30 46 H -2.5114 3.3295 0.4341 0
M  V30 47 H -0.9715 4.2282 0.373 0
M  V30 48 H 3.3877 2.786 -0.652 0
M  V30 49 H 1.893 3.5367 4.0E-4 0
M  V30 50 H 3.4842 4.2108 0.3961 0
M  V30 51 H -1.9523 2.7114 -3.3127 0
M  V30 52 H -1.0651 4.4284 -2.0154 0
M  V30 53 H -2.7565 4.7147 -1.5375 0
M  V30 54 H -3.9533 1.811 -2.8811 0
M  V30 END ATOM
M  V30 BEGIN BOND
M  V30 1 2 1 2
M  V30 2 1 2 3
M  V30 3 1 2 4
M  V30 4 2 4 5
M  V30 5 1 4 6
M  V30 6 1 5 7
M  V30 7 2 6 8
M  V30 8 2 7 9
M  V30 9 1 7 10
M  V30 10 1 10 11
M  V30 11 2 11 12
M  V30 12 1 11 13
M  V30 13 1 13 14
M  V30 14 1 13 15
M  V30 15 1 14 16
M  V30 16 1 14 17
M  V30 17 1 15 18
M  V30 18 1 16 19
M  V30 19 1 17 20
M  V30 20 1 19 21
M  V30 21 1 20 22
M  V30 22 1 20 23
M  V30 23 2 21 24
M  V30 24 1 21 25
M  V30 25 1 22 26
M  V30 26 1 23 27
M  V30 27 1 26 28
M  V30 28 1 8 9
M  V30 29 1 18 19
M  V30 30 1 26 27
M  V30 31 1 5 29
M  V30 32 1 6 30
M  V30 33 1 8 31
M  V30 34 1 9 32
M  V30 35 1 10 33
M  V30 36 1 10 34
M  V30 37 1 14 35
M  V30 38 1 15 36
M  V30 39 1 15 37
M  V30 40 1 16 38
M  V30 41 1 16 39
M  V30 42 1 17 40
M  V30 43 1 17 41
M  V30 44 1 18 42
M  V30 45 1 18 43
M  V30 46 1 22 44
M  V30 47 1 22 45
M  V30 48 1 23 46
M  V30 49 1 23 47
M  V30 50 1 25 48
M  V30 51 1 25 49
M  V30 52 1 25 50
M  V30 53 1 26 51
M  V30 54 1 27 52
M  V30 55 1 27 53
M  V30 56 1 28 54
M  V30 END BOND
M  V30 BEGIN COLLECTION
M  V30 MDLV30/STEABS ATOMS=(2 14 26)
M  V30 END COLLECTION
M  V30 END CTAB
M  END
>  <Column 1>
996

>  <level_0>
1132

>  <index>
1132

>  <Unnamed: 0>
1132

>  <NO.>
1144

>  <Name>
chembl71237

>  <IUPAC_name>
1-[(2s)-4-acetyl-2-[[(3s)-3-hydroxypyrrolidin-1-yl]methyl]piperazin-1-yl]-2-(3-nitrophenyl)ethanone

>  <SMILES>
CC(=O)N1CCN(C(=O)Cc2cccc([N+](=O)[O-])c2)[C@@H](CN2CC[C@H](O)C2)C1

>  <CID>
44310946

>  <logBB>


>  <BBB+/BBB->
BBB-

>  <Inchi>
InChI=1S/C19H26N4O5/c1-14(24)21-7-8-22(17(12-21)11-20-6-5-18(25)13-20)19(26)10-15-3-2-4-16(9-15)23(27)28/h2-4-9-17-18-25H-5-8-10-13H2-1H3/t17--18-/m0/s1

>  <threshold>
-1

>  <reference>
R1|R28|R9|R24|R27|R30|

>  <group>
B

>  <Class>
-1

>  <ABC>
21.71

>  <ABCGG>
17.71

>  <nAcid>
0

>  <nBase>
1

>  <nAromAtom>
6

>  <nAromBond>
6

>  <nAtom>
54

>  <nHeavyAtom>
28

>  <nSpiro>
0

>  <nBridgehead>
0

>  <nHetero>
9

>  <nN>
4

>  <nO>
5

>  <nF>
0

>  <BalabanJ>
1.59

>  <BertzCT>
755.59

>  <nBonds>
56

>  <nBondsO>
30

>  <nBondsS>
47

>  <nBondsD>
3

>  <nBondsT>
0

>  <nBondsA>
6

>  <nBondsM>
9

>  <nBondsKS>
50

>  <nBondsKD>
6

>  <RNCG>
0.15

>  <RPCG>
0.1

>  <FCSP3>
0.58

>  <SZ>
34.67

>  <Sm>
32.51

>  <Sv>
32.65

>  <Sse>
54.85

>  <Sp>
34.42

>  <Si>
61.61

>  <MZ>
0.64

>  <Mm>
0.6

>  <Mv>
0.6

>  <Mse>
1.02

>  <Mp>
0.64

>  <Mi>
1.14

>  <NsCH3>
1

>  <NdCH2>
0

>  <NssCH2>
8

>  <NtCH>
0

>  <NdsCH>
0

>  <NaaCH>
4

>  <NsssCH>
2

>  <NddC>
0

>  <NtsC>
0

>  <NdssC>
2

>  <NaasC>
2

>  <NaaaC>
0

>  <NssssC>
0

>  <NsNH3>
0

>  <NsNH2>
0

>  <NssNH2>
0

>  <NdNH>
0

>  <NssNH>
0

>  <NaaNH>
0

>  <NtN>
0

>  <NsssNH>
0

>  <NdsN>
0

>  <NaaN>
0

>  <NsssN>
3

>  <NddsN>
1

>  <NaasN>
0

>  <NssssN>
0

>  <NsOH>
1

>  <NdO>
3

>  <NssO>
0

>  <NaaO>
0

>  <NsF>
0

>  <NsSiH3>
0

>  <NssSiH2>
0

>  <NsssSiH>
0

>  <NssssSi>
0

>  <NsPH2>
0

>  <NssPH>
0

>  <NsssP>
0

>  <NdsssP>
0

>  <NsssssP>
0

>  <NsSH>
0

>  <NdS>
0

>  <NssS>
0

>  <NaaS>
0

>  <NdssS>
0

>  <NddssS>
0

>  <NsCl>
0

>  <NsBr>
0

>  <NsI>
0

>  <fragCpx>
144.09

>  <fMF>
0.37

>  <nHBAcc>
6

>  <nHBDon>
1

>  <Kier1>
22.68

>  <Kier2>
10.35

>  <Lipinski>
1

>  <GhoseFilter>
1

>  <FilterItLogS>
-2.01

>  <VMcGowan>
289.46

>  <LabuteASA>
163.21

>  <PEOE_VSA1>
14.91

>  <PEOE_VSA2>
24.6

>  <PEOE_VSA3>
0

>  <PEOE_VSA4>
0

>  <PEOE_VSA5>
0

>  <PEOE_VSA6>
12.13

>  <PEOE_VSA7>
11.98

>  <PEOE_VSA8>
58.33

>  <PEOE_VSA9>
23.49

>  <PEOE_VSA10>
0

>  <PEOE_VSA11>
0

>  <PEOE_VSA12>
11.81

>  <PEOE_VSA13>
5.69

>  <SMR_VSA1>
19.62

>  <SMR_VSA2>
0

>  <SMR_VSA3>
14.7

>  <SMR_VSA4>
0

>  <SMR_VSA5>
31.91

>  <SMR_VSA6>
39.27

>  <SMR_VSA7>
39.94

>  <SMR_VSA8>
0

>  <SMR_VSA9>
0

>  <SlogP_VSA1>
0

>  <SlogP_VSA2>
87.96

>  <SlogP_VSA3>
16.01

>  <SlogP_VSA4>
10.11

>  <SlogP_VSA5>
18.91

>  <SlogP_VSA6>
24.27

>  <SlogP_VSA7>
0

>  <SlogP_VSA8>
0

>  <SlogP_VSA9>
0

>  <SlogP_VSA10>
5.69

>  <SlogP_VSA11>
0

>  <EState_VSA1>
4.92

>  <EState_VSA2>
36.07

>  <EState_VSA3>
44.71

>  <EState_VSA4>
6.54

>  <EState_VSA5>
19.06

>  <EState_VSA6>
21.93

>  <EState_VSA7>
0

>  <EState_VSA8>
4.9

>  <EState_VSA9>
0

>  <EState_VSA10>
24.81

>  <VSA_EState1>
0

>  <VSA_EState2>
40.9

>  <VSA_EState3>
20.73

>  <VSA_EState4>
0.57

>  <VSA_EState5>
-0.12

>  <VSA_EState6>
5.96

>  <VSA_EState7>
0.45

>  <VSA_EState8>
4.85

>  <VSA_EState9>
0

>  <apol>
57.48

>  <bpol>
34.12

>  <nRing>
3

>  <nHRing>
2

>  <naRing>
1

>  <naHRing>
0

>  <nARing 2>
2

>  <nAHRing 2>
2

>  <nFRing>
0

>  <nFHRing>
0

>  <nFaRing>
0

>  <nFaHRing>
0

>  <nFARing 2>
0

>  <nFAHRing 2>
0

>  <nRot>
5

>  <SLogP>
0.26

>  <SMR>
101.62

>  <TopoPSA(NO)>
107.23

>  <TopoPSA>
107.23

>  <JGI1>
0.23

>  <JGI2>
0.07

>  <JGI3>
0.06

>  <JGI4>
0.04

>  <JGI5>
0.03

>  <Diameter>
13

>  <Radius>
7

>  <TMWC10>
133.65

>  <TSRW10>
76.62

>  <MW>
390.19

>  <AMW>
7.23

>  <WPath>
2129

>  <WPol>
41

>  <Zagreb1>
144

>  <Zagreb2>
166

>  <mZagreb2>
6.11

>  <yes>


>  <nAR-cont>
1

>  <nHA-cont>
0.82432561

>  <MWHBN>
0.354372467

>  <MWHBN-cont>
0.653813493

>  <TPSA-cont>
0.251468014

>  <pka_cont>
0.97

>  <yes.1>


>  <BBB_SCORE>
3.792981879

>  <MMFF94 Energy>
134.53

$$$$
Compound 832
Actelion Java MolfileCreator 2.0

  0  0  0  0  0  0              0 V3000
M  V30 BEGIN CTAB
M  V30 COUNTS 52 54 0 0 0
M  V30 BEGIN ATOM
M  V30 1 O -0.9519 -1.9841 0.0 0
M  V30 2 C 0.0574 -1.716 0.6526 0
M  V30 3 N 0.8954 -0.6613 0.2829 0
M  V30 4 C 0.4562 -2.51 1.8929 0
M  V30 5 C 0.4813 0.1848 -0.8714 0 CFG=2
M  V30 6 C 2.0198 -0.163 1.0883 0
M  V30 7 C -0.4969 -3.6209 2.2669 0
M  V30 8 C 1.6966 0.703 -1.6764 0
M  V30 9 C -0.4426 1.3415 -0.3966 0
M  V30 10 C 3.2014 0.3095 0.2325 0
M  V30 11 C -1.5839 -3.37 3.1161 0
M  V30 12 C -0.3198 -4.9135 1.7538 0
M  V30 13 N 2.7641 1.2287 -0.8165 0
M  V30 14 N -1.066 2.1012 -1.4874 0
M  V30 15 C -2.4657 -4.3965 3.4586 0
M  V30 16 C -1.203 -5.9382 2.0979 0
M  V30 17 C 3.3145 2.4688 -1.0899 0
M  V30 18 C -1.7301 3.3181 -1.0045 0
M  V30 19 C -2.123 1.3567 -2.1808 0
M  V30 20 C -2.2736 -5.6803 2.9519 0
M  V30 21 O 2.9329 3.1821 -2.0171 0
M  V30 22 C 4.428 2.9424 -0.191 0
M  V30 23 C -2.7324 3.6816 -2.1078 0 CFG=1
M  V30 24 C -2.8106 2.4432 -2.9936 0
M  V30 25 O -4.0208 3.9576 -1.5643 0
M  V30 26 H 0.5379 -1.8205 2.742 0
M  V30 27 H 1.451 -2.9406 1.7255 0
M  V30 28 H -0.0991 -0.4498 -1.5511 0
M  V30 29 H 2.374 -0.9212 1.7895 0
M  V30 30 H 1.6316 0.6723 1.6831 0
M  V30 31 H 1.3905 1.4357 -2.4292 0
M  V30 32 H 2.1427 -0.138 -2.2229 0
M  V30 33 H 0.1623 2.0291 0.2094 0
M  V30 34 H -1.2133 0.9454 0.2785 0
M  V30 35 H 3.6628 -0.5484 -0.271 0
M  V30 36 H 3.961 0.7552 0.8775 0
M  V30 37 H -1.7573 -2.3712 3.5096 0
M  V30 38 H 0.5015 -5.1294 1.0748 0
M  V30 39 H -3.3082 -4.1922 4.1141 0
M  V30 40 H -1.0607 -6.9362 1.6922 0
M  V30 41 H -1.0009 4.1221 -0.8597 0
M  V30 42 H -2.2512 3.1543 -0.0522 0
M  V30 43 H -2.8332 0.9049 -1.4765 0
M  V30 44 H -1.7251 0.5742 -2.8336 0
M  V30 45 H -2.9644 -6.4772 3.2139 0
M  V30 46 H 4.0701 3.0282 0.8384 0
M  V30 47 H 5.2755 2.2539 -0.245 0
M  V30 48 H 4.7669 3.9296 -0.5197 0
M  V30 49 H -2.4083 4.5498 -2.6917 0
M  V30 50 H -2.2448 2.6175 -3.9173 0
M  V30 51 H -3.834 2.1632 -3.262 0
M  V30 52 H -3.939 4.7654 -1.0291 0
M  V30 END ATOM
M  V30 BEGIN BOND
M  V30 1 2 1 2
M  V30 2 1 2 3
M  V30 3 1 2 4
M  V30 4 1 3 5
M  V30 5 1 3 6
M  V30 6 1 4 7
M  V30 7 1 5 8
M  V30 8 1 5 9
M  V30 9 1 6 10
M  V30 10 2 7 11
M  V30 11 1 7 12
M  V30 12 1 8 13
M  V30 13 1 9 14
M  V30 14 1 11 15
M  V30 15 2 12 16
M  V30 16 1 13 17
M  V30 17 1 14 18
M  V30 18 1 14 19
M  V30 19 2 15 20
M  V30 20 2 17 21
M  V30 21 1 17 22
M  V30 22 1 18 23
M  V30 23 1 19 24
M  V30 24 1 23 25
M  V30 25 1 10 13
M  V30 26 1 16 20
M  V30 27 1 23 24
M  V30 28 1 4 26
M  V30 29 1 4 27
M  V30 30 1 5 28
M  V30 31 1 6 29
M  V30 32 1 6 30
M  V30 33 1 8 31
M  V30 34 1 8 32
M  V30 35 1 9 33
M  V30 36 1 9 34
M  V30 37 1 10 35
M  V30 38 1 10 36
M  V30 39 1 11 37
M  V30 40 1 12 38
M  V30 41 1 15 39
M  V30 42 1 16 40
M  V30 43 1 18 41
M  V30 44 1 18 42
M  V30 45 1 19 43
M  V30 46 1 19 44
M  V30 47 1 20 45
M  V30 48 1 22 46
M  V30 49 1 22 47
M  V30 50 1 22 48
M  V30 51 1 23 49
M  V30 52 1 24 50
M  V30 53 1 24 51
M  V30 54 1 25 52
M  V30 END BOND
M  V30 BEGIN COLLECTION
M  V30 MDLV30/STEABS ATOMS=(2 5 23)
M  V30 END COLLECTION
M  V30 END CTAB
M  END
>  <Column 1>
997

>  <level_0>
1133

>  <index>
1133

>  <Unnamed: 0>
1133

>  <NO.>
1145

>  <Name>
chembl71005

>  <IUPAC_name>
1-[(2s)-4-acetyl-2-[[(3r)-3-hydroxypyrrolidin-1-yl]methyl]piperazin-1-yl]-2-phenylethanone

>  <SMILES>
CC(=O)N1CCN(C(=O)Cc2ccccc2)[C@@H](CN2CC[C@@H](O)C2)C1

>  <CID>
44310943

>  <logBB>


>  <BBB+/BBB->
BBB-

>  <Inchi>
InChI=1S/C19H27N3O3/c1-15(23)21-9-10-22(19(25)11-16-5-3-2-4-6-16)17(13-21)12-20-8-7-18(24)14-20/h2-6-17-18-24H-7-14H2-1H3/t17--18+/m0/s1

>  <threshold>
-1

>  <reference>
R1|R28|R9|R24|R27|R30|

>  <group>
B

>  <Class>
1

>  <ABC>
19.41

>  <ABCGG>
15.95

>  <nAcid>
0

>  <nBase>
1

>  <nAromAtom>
6

>  <nAromBond>
6

>  <nAtom>
52

>  <nHeavyAtom>
25

>  <nSpiro>
0

>  <nBridgehead>
0

>  <nHetero>
6

>  <nN>
3

>  <nO>
3

>  <nF>
0

>  <BalabanJ>
1.59

>  <BertzCT>
607.19

>  <nBonds>
54

>  <nBondsO>
27

>  <nBondsS>
46

>  <nBondsD>
2

>  <nBondsT>
0

>  <nBondsA>
6

>  <nBondsM>
8

>  <nBondsKS>
49

>  <nBondsKD>
5

>  <RNCG>
0.17

>  <RPCG>
0.1

>  <FCSP3>
0.58

>  <SZ>
31

>  <Sm>
28.76

>  <Sv>
30.73

>  <Sse>
51.97

>  <Sp>
33.2

>  <Si>
59.11

>  <MZ>
0.6

>  <Mm>
0.55

>  <Mv>
0.59

>  <Mse>
1

>  <Mp>
0.64

>  <Mi>
1.14

>  <NsCH3>
1

>  <NdCH2>
0

>  <NssCH2>
8

>  <NtCH>
0

>  <NdsCH>
0

>  <NaaCH>
5

>  <NsssCH>
2

>  <NddC>
0

>  <NtsC>
0

>  <NdssC>
2

>  <NaasC>
1

>  <NaaaC>
0

>  <NssssC>
0

>  <NsNH3>
0

>  <NsNH2>
0

>  <NssNH2>
0

>  <NdNH>
0

>  <NssNH>
0

>  <NaaNH>
0

>  <NtN>
0

>  <NsssNH>
0

>  <NdsN>
0

>  <NaaN>
0

>  <NsssN>
3

>  <NddsN>
0

>  <NaasN>
0

>  <NssssN>
0

>  <NsOH>
1

>  <NdO>
2

>  <NssO>
0

>  <NaaO>
0

>  <NsF>
0

>  <NsSiH3>
0

>  <NssSiH2>
0

>  <NsssSiH>
0

>  <NssssSi>
0

>  <NsPH2>
0

>  <NssPH>
0

>  <NsssP>
0

>  <NdsssP>
0

>  <NsssssP>
0

>  <NsSH>
0

>  <NdS>
0

>  <NssS>
0

>  <NaaS>
0

>  <NdssS>
0

>  <NddssS>
0

>  <NsCl>
0

>  <NsBr>
0

>  <NsI>
0

>  <fragCpx>
129.06

>  <fMF>
0.38

>  <nHBAcc>
4

>  <nHBDon>
1

>  <Kier1>
19.75

>  <Kier2>
9.27

>  <Lipinski>
1

>  <GhoseFilter>
1

>  <FilterItLogS>
-1.89

>  <VMcGowan>
272.04

>  <LabuteASA>
148.56

>  <PEOE_VSA1>
14.91

>  <PEOE_VSA2>
14.49

>  <PEOE_VSA3>
0

>  <PEOE_VSA4>
0

>  <PEOE_VSA5>
0

>  <PEOE_VSA6>
30.33

>  <PEOE_VSA7>
11.98

>  <PEOE_VSA8>
46.19

>  <PEOE_VSA9>
18.57

>  <PEOE_VSA10>
0

>  <PEOE_VSA11>
0

>  <PEOE_VSA12>
11.81

>  <PEOE_VSA13>
0

>  <SMR_VSA1>
14.7

>  <SMR_VSA2>
0

>  <SMR_VSA3>
14.7

>  <SMR_VSA4>
0

>  <SMR_VSA5>
31.91

>  <SMR_VSA6>
39.27

>  <SMR_VSA7>
35.9

>  <SMR_VSA8>
0

>  <SMR_VSA9>
0

>  <SlogP_VSA1>
0

>  <SlogP_VSA2>
83.03

>  <SlogP_VSA3>
16.01

>  <SlogP_VSA4>
0

>  <SlogP_VSA5>
18.91

>  <SlogP_VSA6>
30.33

>  <SlogP_VSA7>
0

>  <SlogP_VSA8>
0

>  <SlogP_VSA9>
0

>  <SlogP_VSA10>
0

>  <SlogP_VSA11>
0

>  <EState_VSA1>
0

>  <EState_VSA2>
23.96

>  <EState_VSA3>
39.14

>  <EState_VSA4>
18.53

>  <EState_VSA5>
0

>  <EState_VSA6>
6.92

>  <EState_VSA7>
40.13

>  <EState_VSA8>
4.9

>  <EState_VSA9>
0

>  <EState_VSA10>
14.7

>  <VSA_EState1>
0

>  <VSA_EState2>
30.56

>  <VSA_EState3>
9.75

>  <VSA_EState4>
1.01

>  <VSA_EState5>
0.17

>  <VSA_EState6>
9.75

>  <VSA_EState7>
0.89

>  <VSA_EState8>
5.53

>  <VSA_EState9>
0

>  <apol>
55.44

>  <bpol>
33.95

>  <nRing>
3

>  <nHRing>
2

>  <naRing>
1

>  <naHRing>
0

>  <nARing 2>
2

>  <nAHRing 2>
2

>  <nFRing>
0

>  <nFHRing>
0

>  <nFaRing>
0

>  <nFaHRing>
0

>  <nFARing 2>
0

>  <nFAHRing 2>
0

>  <nRot>
4

>  <SLogP>
0.36

>  <SMR>
94.96

>  <TopoPSA(NO)>
64.09

>  <TopoPSA>
64.09

>  <JGI1>
0.2

>  <JGI2>
0.07

>  <JGI3>
0.05

>  <JGI4>
0.04

>  <JGI5>
0.03

>  <Diameter>
12

>  <Radius>
6

>  <TMWC10>
126.44

>  <TSRW10>
72.97

>  <MW>
345.21

>  <AMW>
6.64

>  <WPath>
1541

>  <WPol>
35

>  <Zagreb1>
128

>  <Zagreb2>
147

>  <mZagreb2>
5.5

>  <yes>


>  <nAR-cont>
1

>  <nHA-cont>
0.921834225

>  <MWHBN>
0.269109061

>  <MWHBN-cont>
0.92212347

>  <TPSA-cont>
0.552612003

>  <pka_cont>
0.97

>  <yes.1>


>  <BBB_SCORE>
4.895243435

>  <MMFF94 Energy>
104.72

$$$$
Compound 833
Actelion Java MolfileCreator 2.0

  0  0  0  0  0  0              0 V3000
M  V30 BEGIN CTAB
M  V30 COUNTS 58 60 0 0 0
M  V30 BEGIN ATOM
M  V30 1 F 2.1479 10.2945 -0.3975 0
M  V30 2 C 1.7051 9.0433 -0.5744 0
M  V30 3 C 0.7947 8.7749 -1.5883 0
M  V30 4 C 2.1646 8.0303 0.2598 0
M  V30 5 C 0.3349 7.4688 -1.7708 0
M  V30 6 C 1.7067 6.721 0.0806 0
M  V30 7 C 0.7859 6.432 -0.9371 0
M  V30 8 C 0.2627 5.0504 -1.176 0
M  V30 9 O -0.4857 4.8536 -2.131 0
M  V30 10 C 0.6871 3.938 -0.2314 0
M  V30 11 C -0.0174 2.6146 -0.542 0
M  V30 12 C 0.4676 1.5027 0.3969 0
M  V30 13 N -0.3029 0.2521 0.2762 0
M  V30 14 C -0.1302 -0.3855 -1.0324 0
M  V30 15 C 0.079 -0.6682 1.3578 0
M  V30 16 C -0.9495 -1.6759 -1.1493 0
M  V30 17 C -0.7535 -1.9508 1.3158 0
M  V30 18 C -0.6521 -2.7165 -0.0324 0
M  V30 19 C -1.6642 -3.8897 -0.1412 0
M  V30 20 C 0.7855 -3.2974 -0.2281 0
M  V30 21 C -2.3904 -4.364 0.9656 0
M  V30 22 C -1.8535 -4.5564 -1.3688 0
M  V30 23 N 1.1174 -4.3494 0.7211 0
M  V30 24 C -3.2742 -5.442 0.848 0
M  V30 25 C -2.7365 -5.6336 -1.4861 0
M  V30 26 C 1.9748 -4.1637 1.778 0
M  V30 27 C -3.4484 -6.0756 -0.3772 0
M  V30 28 O 2.5297 -3.1005 2.0328 0
M  V30 29 C 2.1448 -5.3866 2.6375 0
M  V30 30 H 0.4481 9.5792 -2.2299 0
M  V30 31 H 2.8775 8.2666 1.0443 0
M  V30 32 H -0.3787 7.2625 -2.5672 0
M  V30 33 H 2.086 5.9505 0.7451 0
M  V30 34 H 1.7705 3.8023 -0.3241 0
M  V30 35 H 0.4446 4.238 0.7943 0
M  V30 36 H -1.1023 2.7455 -0.4394 0
M  V30 37 H 0.1769 2.3455 -1.5865 0
M  V30 38 H 1.5367 1.3168 0.2292 0
M  V30 39 H 0.3681 1.8758 1.4249 0
M  V30 40 H -0.4825 0.2805 -1.8275 0
M  V30 41 H 0.9283 -0.5886 -1.2355 0
M  V30 42 H -0.1066 -0.1883 2.3273 0
M  V30 43 H 1.1502 -0.8957 1.3205 0
M  V30 44 H -2.0172 -1.4134 -1.1269 0
M  V30 45 H -0.7616 -2.0996 -2.1433 0
M  V30 46 H -1.8009 -1.6727 1.5024 0
M  V30 47 H -0.4519 -2.5876 2.1561 0
M  V30 48 H 1.55 -2.517 -0.1737 0
M  V30 49 H 0.8828 -3.7527 -1.221 0
M  V30 50 H -2.2884 -3.9102 1.9477 0
M  V30 51 H -1.311 -4.2494 -2.2599 0
M  V30 52 H 0.6541 -5.2434 0.6063 0
M  V30 53 H -3.8289 -5.783 1.7188 0
M  V30 54 H -2.8679 -6.1248 -2.447 0
M  V30 55 H -4.1385 -6.9101 -0.4674 0
M  V30 56 H 1.3324 -5.4283 3.368 0
M  V30 57 H 3.1035 -5.3342 3.1609 0
M  V30 58 H 2.1311 -6.295 2.0286 0
M  V30 END ATOM
M  V30 BEGIN BOND
M  V30 1 1 1 2
M  V30 2 2 2 3
M  V30 3 1 2 4
M  V30 4 1 3 5
M  V30 5 2 4 6
M  V30 6 2 5 7
M  V30 7 1 7 8
M  V30 8 2 8 9
M  V30 9 1 8 10
M  V30 10 1 10 11
M  V30 11 1 11 12
M  V30 12 1 12 13
M  V30 13 1 13 14
M  V30 14 1 13 15
M  V30 15 1 14 16
M  V30 16 1 15 17
M  V30 17 1 16 18
M  V30 18 1 18 19
M  V30 19 1 18 20
M  V30 20 2 19 21
M  V30 21 1 19 22
M  V30 22 1 20 23
M  V30 23 1 21 24
M  V30 24 2 22 25
M  V30 25 1 23 26
M  V30 26 2 24 27
M  V30 27 2 26 28
M  V30 28 1 26 29
M  V30 29 1 6 7
M  V30 30 1 17 18
M  V30 31 1 25 27
M  V30 32 1 3 30
M  V30 33 1 4 31
M  V30 34 1 5 32
M  V30 35 1 6 33
M  V30 36 1 10 34
M  V30 37 1 10 35
M  V30 38 1 11 36
M  V30 39 1 11 37
M  V30 40 1 12 38
M  V30 41 1 12 39
M  V30 42 1 14 40
M  V30 43 1 14 41
M  V30 44 1 15 42
M  V30 45 1 15 43
M  V30 46 1 16 44
M  V30 47 1 16 45
M  V30 48 1 17 46
M  V30 49 1 17 47
M  V30 50 1 20 48
M  V30 51 1 20 49
M  V30 52 1 21 50
M  V30 53 1 22 51
M  V30 54 1 23 52
M  V30 55 1 24 53
M  V30 56 1 25 54
M  V30 57 1 27 55
M  V30 58 1 29 56
M  V30 59 1 29 57
M  V30 60 1 29 58
M  V30 END BOND
M  V30 END CTAB
M  END
>  <Column 1>
999

>  <level_0>
1135

>  <index>
1135

>  <Unnamed: 0>
1135

>  <NO.>
1147

>  <Name>
aceperone

>  <IUPAC_name>
n-[[1-[4-(4-fluorophenyl)-4-oxobutyl]-4-phenylpiperidin-4-yl]methyl]acetamide

>  <SMILES>
CC(=O)NCC1(c2ccccc2)CCN(CCCC(=O)c2ccc(F)cc2)CC1

>  <CID>
13122

>  <logBB>


>  <BBB+/BBB->
BBB+

>  <Inchi>
InChI=1S/C24H29FN2O2/c1-19(28)26-18-24(21-6-3-2-4-7-21)13-16-27(17-14-24)15-5-8-23(29)20-9-11-22(25)12-10-20/h2-4-6-7-9-12H-5-8-13-18H2-1H3-(H-26-28)

>  <threshold>
-1

>  <reference>
R1|R13|R19|R6|R24|R27|R27|R27|R30|R30|

>  <group>
B

>  <Class>
1

>  <ABC>
22.26

>  <ABCGG>
16.67

>  <nAcid>
0

>  <nBase>
1

>  <nAromAtom>
12

>  <nAromBond>
12

>  <nAtom>
58

>  <nHeavyAtom>
29

>  <nSpiro>
0

>  <nBridgehead>
0

>  <nHetero>
5

>  <nN>
2

>  <nO>
2

>  <nF>
1

>  <BalabanJ>
1.41

>  <BertzCT>
812.53

>  <nBonds>
60

>  <nBondsO>
31

>  <nBondsS>
46

>  <nBondsD>
2

>  <nBondsT>
0

>  <nBondsA>
12

>  <nBondsM>
14

>  <nBondsKS>
52

>  <nBondsKD>
8

>  <RNCG>
0.18

>  <RPCG>
0.11

>  <FCSP3>
0.42

>  <SZ>
35.33

>  <Sm>
33.01

>  <Sv>
35.45

>  <Sse>
57.82

>  <Sp>
38.19

>  <Si>
65.57

>  <MZ>
0.61

>  <Mm>
0.57

>  <Mv>
0.61

>  <Mse>
1

>  <Mp>
0.66

>  <Mi>
1.13

>  <NsCH3>
1

>  <NdCH2>
0

>  <NssCH2>
8

>  <NtCH>
0

>  <NdsCH>
0

>  <NaaCH>
9

>  <NsssCH>
0

>  <NddC>
0

>  <NtsC>
0

>  <NdssC>
2

>  <NaasC>
3

>  <NaaaC>
0

>  <NssssC>
1

>  <NsNH3>
0

>  <NsNH2>
0

>  <NssNH2>
0

>  <NdNH>
0

>  <NssNH>
1

>  <NaaNH>
0

>  <NtN>
0

>  <NsssNH>
0

>  <NdsN>
0

>  <NaaN>
0

>  <NsssN>
1

>  <NddsN>
0

>  <NaasN>
0

>  <NssssN>
0

>  <NsOH>
0

>  <NdO>
2

>  <NssO>
0

>  <NaaO>
0

>  <NsF>
1

>  <NsSiH3>
0

>  <NssSiH2>
0

>  <NsssSiH>
0

>  <NssssSi>
0

>  <NsPH2>
0

>  <NssPH>
0

>  <NsssP>
0

>  <NdsssP>
0

>  <NsssssP>
0

>  <NsSH>
0

>  <NdS>
0

>  <NssS>
0

>  <NaaS>
0

>  <NdssS>
0

>  <NddssS>
0

>  <NsCl>
0

>  <NsBr>
0

>  <NsI>
0

>  <fragCpx>
149.05

>  <fMF>
0.38

>  <nHBAcc>
3

>  <nHBDon>
1

>  <Kier1>
23.66

>  <Kier2>
11.57

>  <Lipinski>
1

>  <GhoseFilter>
1

>  <FilterItLogS>
-6.42

>  <VMcGowan>
315.5

>  <LabuteASA>
171.66

>  <PEOE_VSA1>
10.22

>  <PEOE_VSA2>
9.59

>  <PEOE_VSA3>
4.39

>  <PEOE_VSA4>
0

>  <PEOE_VSA5>
0

>  <PEOE_VSA6>
30.33

>  <PEOE_VSA7>
68.73

>  <PEOE_VSA8>
30.87

>  <PEOE_VSA9>
0

>  <PEOE_VSA10>
5.82

>  <PEOE_VSA11>
5.78

>  <PEOE_VSA12>
5.91

>  <PEOE_VSA13>
0

>  <SMR_VSA1>
13.98

>  <SMR_VSA2>
0

>  <SMR_VSA3>
10.22

>  <SMR_VSA4>
0

>  <SMR_VSA5>
38.02

>  <SMR_VSA6>
26.18

>  <SMR_VSA7>
71.54

>  <SMR_VSA8>
0

>  <SMR_VSA9>
0

>  <SlogP_VSA1>
5.32

>  <SlogP_VSA2>
42.77

>  <SlogP_VSA3>
10.21

>  <SlogP_VSA4>
5.82

>  <SlogP_VSA5>
48.53

>  <SlogP_VSA6>
54.6

>  <SlogP_VSA7>
0

>  <SlogP_VSA8>
0

>  <SlogP_VSA9>
0

>  <SlogP_VSA10>
4.39

>  <SlogP_VSA11>
0

>  <EState_VSA1>
0

>  <EState_VSA2>
22.92

>  <EState_VSA3>
18.53

>  <EState_VSA4>
38.9

>  <EState_VSA5>
17.7

>  <EState_VSA6>
19.06

>  <EState_VSA7>
6.07

>  <EState_VSA8>
34.48

>  <EState_VSA9>
0

>  <EState_VSA10>
13.98

>  <VSA_EState1>
12.99

>  <VSA_EState2>
26.14

>  <VSA_EState3>
3.02

>  <VSA_EState4>
1.82

>  <VSA_EState5>
-0.26

>  <VSA_EState6>
16.19

>  <VSA_EState7>
3.21

>  <VSA_EState8>
4.98

>  <VSA_EState9>
0

>  <apol>
63.78

>  <bpol>
34.22

>  <nRing>
3

>  <nHRing>
1

>  <naRing>
2

>  <naHRing>
0

>  <nARing 2>
1

>  <nAHRing 2>
1

>  <nFRing>
0

>  <nFHRing>
0

>  <nFaRing>
0

>  <nFaHRing>
0

>  <nFARing 2>
0

>  <nFAHRing 2>
0

>  <nRot>
8

>  <SLogP>
3.96

>  <SMR>
112.44

>  <TopoPSA(NO)>
49.41

>  <TopoPSA>
49.41

>  <JGI1>
0.21

>  <JGI2>
0.09

>  <JGI3>
0.03

>  <JGI4>
0.03

>  <JGI5>
0.03

>  <Diameter>
16

>  <Radius>
8

>  <TMWC10>
135.63

>  <TSRW10>
64.24

>  <MW>
396.22

>  <AMW>
6.83

>  <WPath>
2638

>  <WPol>
43

>  <Zagreb1>
146

>  <Zagreb2>
167

>  <mZagreb2>
6.49

>  <yes>


>  <nAR-cont>
0.816016

>  <nHA-cont>
0.785905698

>  <MWHBN>
0.200951751

>  <MWHBN-cont>
0.999770134

>  <TPSA-cont>
0.655087518

>  <pka_cont>
0.97

>  <yes.1>


>  <BBB_SCORE>
4.896751935

>  <MMFF94 Energy>
45.725

$$$$
Compound 834
Actelion Java MolfileCreator 2.0

  0  0  0  0  0  0              0 V3000
M  V30 BEGIN CTAB
M  V30 COUNTS 42 43 0 0 0
M  V30 BEGIN ATOM
M  V30 1 Cl -4.4246 0.6426 0.1606 0
M  V30 2 C -3.9167 1.9712 1.1531 0
M  V30 3 C -2.5601 2.1568 1.5084 0
M  V30 4 C -4.9046 2.883 1.5472 0
M  V30 5 N -1.5691 1.2489 1.1393 0
M  V30 6 C -2.2438 3.2978 2.266 0
M  V30 7 C -4.5617 4.0018 2.3029 0
M  V30 8 C -0.2496 1.733 0.7108 0
M  V30 9 C -1.5346 -0.0265 1.8732 0
M  V30 10 C -3.2324 4.2046 2.6571 0
M  V30 11 C 0.5076 0.628 -0.0647 0
M  V30 12 C -0.7515 -1.0874 1.0676 0
M  V30 13 Cl -2.8023 5.5843 3.5922 0
M  V30 14 N 0.6157 -0.6454 0.6912 0
M  V30 15 C 1.2812 -1.6972 -0.0976 0
M  V30 16 C 2.7732 -1.4212 -0.3228 0
M  V30 17 C 3.4873 -2.6089 -0.9697 0
M  V30 18 N 3.0097 -2.902 -2.3061 0
M  V30 19 C 3.4112 -2.1687 -3.3999 0
M  V30 20 O 4.1667 -1.2055 -3.3381 0
M  V30 21 C 2.8025 -2.6345 -4.6942 0
M  V30 22 H -5.941 2.7279 1.2582 0
M  V30 23 H -1.2185 3.4766 2.5769 0
M  V30 24 H -5.33 4.7081 2.6058 0
M  V30 25 H -0.3574 2.6047 0.0538 0
M  V30 26 H 0.3439 2.0346 1.5829 0
M  V30 27 H -1.0518 0.1286 2.8469 0
M  V30 28 H -2.5402 -0.4135 2.0712 0
M  V30 29 H 1.5052 1.0192 -0.2896 0
M  V30 30 H -0.003 0.4545 -1.0214 0
M  V30 31 H -1.3255 -1.342 0.1662 0
M  V30 32 H -0.6845 -1.994 1.681 0
M  V30 33 H 0.7714 -1.8405 -1.0589 0
M  V30 34 H 1.2011 -2.646 0.4487 0
M  V30 35 H 2.9085 -0.5339 -0.9504 0
M  V30 36 H 3.2536 -1.2127 0.6411 0
M  V30 37 H 4.5617 -2.4008 -1.0264 0
M  V30 38 H 3.3536 -3.5148 -0.3691 0
M  V30 39 H 2.3824 -3.6847 -2.4385 0
M  V30 40 H 2.7223 -3.7249 -4.7151 0
M  V30 41 H 3.433 -2.3169 -5.5292 0
M  V30 42 H 1.807 -2.1958 -4.8022 0
M  V30 END ATOM
M  V30 BEGIN BOND
M  V30 1 1 1 2
M  V30 2 2 2 3
M  V30 3 1 2 4
M  V30 4 1 3 5
M  V30 5 1 3 6
M  V30 6 2 4 7
M  V30 7 1 5 8
M  V30 8 1 5 9
M  V30 9 2 6 10
M  V30 10 1 8 11
M  V30 11 1 9 12
M  V30 12 1 10 13
M  V30 13 1 11 14
M  V30 14 1 14 15
M  V30 15 1 15 16
M  V30 16 1 16 17
M  V30 17 1 17 18
M  V30 18 1 18 19
M  V30 19 2 19 20
M  V30 20 1 19 21
M  V30 21 1 7 10
M  V30 22 1 12 14
M  V30 23 1 4 22
M  V30 24 1 6 23
M  V30 25 1 7 24
M  V30 26 1 8 25
M  V30 27 1 8 26
M  V30 28 1 9 27
M  V30 29 1 9 28
M  V30 30 1 11 29
M  V30 31 1 11 30
M  V30 32 1 12 31
M  V30 33 1 12 32
M  V30 34 1 15 33
M  V30 35 1 15 34
M  V30 36 1 16 35
M  V30 37 1 16 36
M  V30 38 1 17 37
M  V30 39 1 17 38
M  V30 40 1 18 39
M  V30 41 1 21 40
M  V30 42 1 21 41
M  V30 43 1 21 42
M  V30 END BOND
M  V30 END CTAB
M  END
>  <Column 1>
1000

>  <level_0>
1136

>  <index>
1136

>  <Unnamed: 0>
1136

>  <NO.>
1148

>  <Name>
acaprazine

>  <IUPAC_name>
n-[3-[4-(2-5-dichlorophenyl)piperazin-1-yl]propyl]acetamide

>  <SMILES>
CC(=O)NCCCN1CCN(c2cc(Cl)ccc2Cl)CC1

>  <CID>
176864

>  <logBB>


>  <BBB+/BBB->
BBB+

>  <Inchi>
InChI=1S/C15H21Cl2N3O/c1-12(21)18-5-2-6-19-7-9-20(10-8-19)15-11-13(16)3-4-14(15)17/h3-4-11H-2-5-10H2-1H3-(H-18-21)

>  <threshold>
-1

>  <reference>
R1|R13|R19|R6|R24|R27|R27|R27|R30|R30|

>  <group>
B

>  <Class>
1

>  <ABC>
15.91

>  <ABCGG>
12.5

>  <nAcid>
0

>  <nBase>
1

>  <nAromAtom>
6

>  <nAromBond>
6

>  <nAtom>
42

>  <nHeavyAtom>
21

>  <nSpiro>
0

>  <nBridgehead>
0

>  <nHetero>
6

>  <nN>
3

>  <nO>
1

>  <nF>
0

>  <BalabanJ>
1.65

>  <BertzCT>
487.81

>  <nBonds>
43

>  <nBondsO>
22

>  <nBondsS>
36

>  <nBondsD>
1

>  <nBondsT>
0

>  <nBondsA>
6

>  <nBondsM>
7

>  <nBondsKS>
39

>  <nBondsKD>
4

>  <RNCG>
0.23

>  <RPCG>
0.14

>  <FCSP3>
0.53

>  <SZ>
29

>  <Sm>
27.5

>  <Sv>
25.86

>  <Sse>
42.17

>  <Sp>
28.45

>  <Si>
47.75

>  <MZ>
0.69

>  <Mm>
0.65

>  <Mv>
0.62

>  <Mse>
1

>  <Mp>
0.68

>  <Mi>
1.14

>  <NsCH3>
1

>  <NdCH2>
0

>  <NssCH2>
7

>  <NtCH>
0

>  <NdsCH>
0

>  <NaaCH>
3

>  <NsssCH>
0

>  <NddC>
0

>  <NtsC>
0

>  <NdssC>
1

>  <NaasC>
3

>  <NaaaC>
0

>  <NssssC>
0

>  <NsNH3>
0

>  <NsNH2>
0

>  <NssNH2>
0

>  <NdNH>
0

>  <NssNH>
1

>  <NaaNH>
0

>  <NtN>
0

>  <NsssNH>
0

>  <NdsN>
0

>  <NaaN>
0

>  <NsssN>
2

>  <NddsN>
0

>  <NaasN>
0

>  <NssssN>
0

>  <NsOH>
0

>  <NdO>
1

>  <NssO>
0

>  <NaaO>
0

>  <NsF>
0

>  <NsSiH3>
0

>  <NssSiH2>
0

>  <NsssSiH>
0

>  <NssssSi>
0

>  <NsPH2>
0

>  <NssPH>
0

>  <NsssP>
0

>  <NdsssP>
0

>  <NsssssP>
0

>  <NsSH>
0

>  <NdS>
0

>  <NssS>
0

>  <NaaS>
0

>  <NdssS>
0

>  <NddssS>
0

>  <NsCl>
2

>  <NsBr>
0

>  <NsI>
0

>  <fragCpx>
64.06

>  <fMF>
0.29

>  <nHBAcc>
3

>  <nHBDon>
1

>  <Kier1>
17.36

>  <Kier2>
8.59

>  <Lipinski>
1

>  <GhoseFilter>
1

>  <FilterItLogS>
-4.53

>  <VMcGowan>
243.58

>  <LabuteASA>
135.55

>  <PEOE_VSA1>
10.22

>  <PEOE_VSA2>
9.69

>  <PEOE_VSA3>
0

>  <PEOE_VSA4>
0

>  <PEOE_VSA5>
0

>  <PEOE_VSA6>
23.2

>  <PEOE_VSA7>
31.16

>  <PEOE_VSA8>
44.67

>  <PEOE_VSA9>
10.71

>  <PEOE_VSA10>
0

>  <PEOE_VSA11>
0

>  <PEOE_VSA12>
5.91

>  <PEOE_VSA13>
0

>  <SMR_VSA1>
4.79

>  <SMR_VSA2>
0

>  <SMR_VSA3>
10.22

>  <SMR_VSA4>
0

>  <SMR_VSA5>
13.34

>  <SMR_VSA6>
44.17

>  <SMR_VSA7>
28.24

>  <SMR_VSA8>
0

>  <SMR_VSA9>
0

>  <SlogP_VSA1>
10.22

>  <SlogP_VSA2>
50.08

>  <SlogP_VSA3>
4.79

>  <SlogP_VSA4>
0

>  <SlogP_VSA5>
13.34

>  <SlogP_VSA6>
18.2

>  <SlogP_VSA7>
10.05

>  <SlogP_VSA8>
0

>  <SlogP_VSA9>
0

>  <SlogP_VSA10>
5.69

>  <SlogP_VSA11>
0

>  <EState_VSA1>
0

>  <EState_VSA2>
5.91

>  <EState_VSA3>
5.02

>  <EState_VSA4>
56.4

>  <EState_VSA5>
0

>  <EState_VSA6>
6.92

>  <EState_VSA7>
18.2

>  <EState_VSA8>
15.12

>  <EState_VSA9>
23.2

>  <EState_VSA10>
4.79

>  <VSA_EState1>
0

>  <VSA_EState2>
15.49

>  <VSA_EState3>
4.29

>  <VSA_EState4>
1.02

>  <VSA_EState5>
0.04

>  <VSA_EState6>
5.58

>  <VSA_EState7>
0.98

>  <VSA_EState8>
7.2

>  <VSA_EState9>
0

>  <apol>
47.51

>  <bpol>
26.95

>  <nRing>
2

>  <nHRing>
1

>  <naRing>
1

>  <naHRing>
0

>  <nARing 2>
1

>  <nAHRing 2>
1

>  <nFRing>
0

>  <nFHRing>
0

>  <nFaRing>
0

>  <nFaHRing>
0

>  <nFARing 2>
0

>  <nFAHRing 2>
0

>  <nRot>
5

>  <SLogP>
2.64

>  <SMR>
88.42

>  <TopoPSA(NO)>
35.58

>  <TopoPSA>
35.58

>  <JGI1>
0.2

>  <JGI2>
0.08

>  <JGI3>
0.04

>  <JGI4>
0.04

>  <JGI5>
0.02

>  <Diameter>
13

>  <Radius>
7

>  <TMWC10>
114.62

>  <TSRW10>
54.21

>  <MW>
329.11

>  <AMW>
7.84

>  <WPath>
1108

>  <WPol>
28

>  <Zagreb1>
102

>  <Zagreb2>
114

>  <mZagreb2>
4.72

>  <yes>


>  <nAR-cont>
0.816016

>  <nHA-cont>
0.994529749

>  <MWHBN>
0.220490282

>  <MWHBN-cont>
0.994647104

>  <TPSA-cont>
0.751629506

>  <pka_cont>
0.97

>  <yes.1>


>  <BBB_SCORE>
5.290775418

>  <MMFF94 Energy>
91.531

$$$$
Compound 835
Actelion Java MolfileCreator 2.0

  0  0  0  0  0  0              0 V3000
M  V30 BEGIN CTAB
M  V30 COUNTS 31 31 0 0 0
M  V30 BEGIN ATOM
M  V30 1 O 1.5569 1.7127 -1.7906 0
M  V30 2 C 0.5074 1.2834 -2.2543 0
M  V30 3 N -0.7169 1.4041 -1.6348 0
M  V30 4 C 0.438 0.6055 -3.5954 0
M  V30 5 C -0.8535 1.9937 -0.3142 0
M  V30 6 C -1.2678 0.9894 0.7647 0
M  V30 7 N -0.2836 -0.051 1.0398 0
M  V30 8 C -0.3592 -1.3679 0.6075 0
M  V30 9 C 0.828 0.1086 1.8426 0
M  V30 10 C 0.7413 -2.0435 1.1252 0
M  V30 11 C -1.4708 -1.8713 -0.2506 0
M  V30 12 C 1.4773 -1.1062 1.8935 0
M  V30 13 C 1.2169 1.3895 2.4938 0
M  V30 14 C 1.0794 -3.4445 0.9311 0
M  V30 15 O 2.0568 -3.9876 1.4391 0
M  V30 16 H -1.5462 1.0892 -2.1206 0
M  V30 17 H -0.3088 -0.1935 -3.5878 0
M  V30 18 H 1.4112 0.1676 -3.8333 0
M  V30 19 H 0.173 1.3421 -4.3584 0
M  V30 20 H -1.6331 2.7583 -0.4027 0
M  V30 21 H 0.0721 2.5057 -0.0363 0
M  V30 22 H -1.4571 1.5122 1.7089 0
M  V30 23 H -2.2111 0.5065 0.4896 0
M  V30 24 H -1.6056 -1.2393 -1.1329 0
M  V30 25 H -1.2809 -2.8856 -0.611 0
M  V30 26 H -2.4083 -1.8908 0.3143 0
M  V30 27 H 2.3946 -1.3095 2.434 0
M  V30 28 H 2.0658 1.2381 3.1691 0
M  V30 29 H 1.517 2.1298 1.7469 0
M  V30 30 H 0.3939 1.7972 3.0883 0
M  V30 31 H 0.398 -4.0247 0.2899 0
M  V30 END ATOM
M  V30 BEGIN BOND
M  V30 1 2 1 2
M  V30 2 1 2 3
M  V30 3 1 2 4
M  V30 4 1 3 5
M  V30 5 1 5 6
M  V30 6 1 6 7
M  V30 7 1 7 8
M  V30 8 1 7 9
M  V30 9 2 8 10
M  V30 10 1 8 11
M  V30 11 2 9 12
M  V30 12 1 9 13
M  V30 13 1 10 14
M  V30 14 2 14 15
M  V30 15 1 10 12
M  V30 16 1 3 16
M  V30 17 1 4 17
M  V30 18 1 4 18
M  V30 19 1 4 19
M  V30 20 1 5 20
M  V30 21 1 5 21
M  V30 22 1 6 22
M  V30 23 1 6 23
M  V30 24 1 11 24
M  V30 25 1 11 25
M  V30 26 1 11 26
M  V30 27 1 12 27
M  V30 28 1 13 28
M  V30 29 1 13 29
M  V30 30 1 13 30
M  V30 31 1 14 31
M  V30 END BOND
M  V30 END CTAB
M  END
>  <Column 1>
1002

>  <level_0>
1138

>  <index>
1138

>  <Unnamed: 0>
1138

>  <NO.>
1150

>  <Name>
aloracetam

>  <IUPAC_name>
n-[2-(3-formyl-2-5-dimethylpyrrol-1-yl)ethyl]acetamide

>  <SMILES>
CC(=O)NCCn1c(C)cc(C=O)c1C

>  <CID>
178134

>  <logBB>


>  <BBB+/BBB->
BBB+

>  <Inchi>
InChI=1S/C11H16N2O2/c1-8-6-11(7-14)9(2)13(8)5-4-12-10(3)15/h6-7H-4-5H2-1-3H3-(H-12-15)

>  <threshold>
-1

>  <reference>
R1|R13|R19|R6|R24|R27|R27|R27|R30|R30|

>  <group>
B

>  <Class>
1

>  <ABC>
10.92

>  <ABCGG>
10.53

>  <nAcid>
0

>  <nBase>
0

>  <nAromAtom>
5

>  <nAromBond>
5

>  <nAtom>
31

>  <nHeavyAtom>
15

>  <nSpiro>
0

>  <nBridgehead>
0

>  <nHetero>
4

>  <nN>
2

>  <nO>
2

>  <nF>
0

>  <BalabanJ>
2.34

>  <BertzCT>
380.18

>  <nBonds>
31

>  <nBondsO>
15

>  <nBondsS>
24

>  <nBondsD>
2

>  <nBondsT>
0

>  <nBondsA>
5

>  <nBondsM>
7

>  <nBondsKS>
27

>  <nBondsKD>
4

>  <RNCG>
0.26

>  <RPCG>
0.16

>  <FCSP3>
0.45

>  <SZ>
18.67

>  <Sm>
17.34

>  <Sv>
18.28

>  <Sse>
31.09

>  <Sp>
19.67

>  <Si>
35.32

>  <MZ>
0.6

>  <Mm>
0.56

>  <Mv>
0.59

>  <Mse>
1

>  <Mp>
0.63

>  <Mi>
1.14

>  <NsCH3>
3

>  <NdCH2>
0

>  <NssCH2>
2

>  <NtCH>
0

>  <NdsCH>
1

>  <NaaCH>
1

>  <NsssCH>
0

>  <NddC>
0

>  <NtsC>
0

>  <NdssC>
1

>  <NaasC>
3

>  <NaaaC>
0

>  <NssssC>
0

>  <NsNH3>
0

>  <NsNH2>
0

>  <NssNH2>
0

>  <NdNH>
0

>  <NssNH>
1

>  <NaaNH>
0

>  <NtN>
0

>  <NsssNH>
0

>  <NdsN>
0

>  <NaaN>
0

>  <NsssN>
0

>  <NddsN>
0

>  <NaasN>
1

>  <NssssN>
0

>  <NsOH>
0

>  <NdO>
2

>  <NssO>
0

>  <NaaO>
0

>  <NsF>
0

>  <NsSiH3>
0

>  <NssSiH2>
0

>  <NsssSiH>
0

>  <NssssSi>
0

>  <NsPH2>
0

>  <NssPH>
0

>  <NsssP>
0

>  <NdsssP>
0

>  <NsssssP>
0

>  <NsSH>
0

>  <NdS>
0

>  <NssS>
0

>  <NaaS>
0

>  <NdssS>
0

>  <NddssS>
0

>  <NsCl>
0

>  <NsBr>
0

>  <NsI>
0

>  <fragCpx>
15.04

>  <fMF>
0.16

>  <nHBAcc>
3

>  <nHBDon>
1

>  <Kier1>
13.07

>  <Kier2>
5.92

>  <Lipinski>
1

>  <GhoseFilter>
1

>  <FilterItLogS>
-2.56

>  <VMcGowan>
169.49

>  <LabuteASA>
89.28

>  <PEOE_VSA1>
9.88

>  <PEOE_VSA2>
9.59

>  <PEOE_VSA3>
0

>  <PEOE_VSA4>
0

>  <PEOE_VSA5>
0

>  <PEOE_VSA6>
0

>  <PEOE_VSA7>
19.91

>  <PEOE_VSA8>
36.96

>  <PEOE_VSA9>
0

>  <PEOE_VSA10>
0

>  <PEOE_VSA11>
6.29

>  <PEOE_VSA12>
5.91

>  <PEOE_VSA13>
0

>  <SMR_VSA1>
9.59

>  <SMR_VSA2>
0

>  <SMR_VSA3>
9.88

>  <SMR_VSA4>
0

>  <SMR_VSA5>
27.32

>  <SMR_VSA6>
6.54

>  <SMR_VSA7>
23.02

>  <SMR_VSA8>
0

>  <SMR_VSA9>
0

>  <SlogP_VSA1>
5.32

>  <SlogP_VSA2>
23.31

>  <SlogP_VSA3>
11.34

>  <SlogP_VSA4>
13.85

>  <SlogP_VSA5>
28.67

>  <SlogP_VSA6>
6.07

>  <SlogP_VSA7>
0

>  <SlogP_VSA8>
0

>  <SlogP_VSA9>
0

>  <SlogP_VSA10>
0

>  <SlogP_VSA11>
0

>  <EState_VSA1>
0

>  <EState_VSA2>
5.91

>  <EState_VSA3>
13.09

>  <EState_VSA4>
23.24

>  <EState_VSA5>
6.92

>  <EState_VSA6>
0

>  <EState_VSA7>
24.48

>  <EState_VSA8>
5.32

>  <EState_VSA9>
0

>  <EState_VSA10>
9.59

>  <VSA_EState1>
2.03

>  <VSA_EState2>
21.38

>  <VSA_EState3>
2.73

>  <VSA_EState4>
2.71

>  <VSA_EState5>
-0.03

>  <VSA_EState6>
1.86

>  <VSA_EState7>
0.86

>  <VSA_EState8>
6.64

>  <VSA_EState9>
0

>  <apol>
32.84

>  <bpol>
20.07

>  <nRing>
1

>  <nHRing>
1

>  <naRing>
1

>  <naHRing>
1

>  <nARing 2>
0

>  <nAHRing 2>
0

>  <nFRing>
0

>  <nFHRing>
0

>  <nFaRing>
0

>  <nFaHRing>
0

>  <nFARing 2>
0

>  <nFAHRing 2>
0

>  <nRot>
4

>  <SLogP>
1.05

>  <SMR>
57.98

>  <TopoPSA(NO)>
51.1

>  <TopoPSA>
51.1

>  <JGI1>
0.23

>  <JGI2>
0.1

>  <JGI3>
0.09

>  <JGI4>
0.04

>  <JGI5>
0.02

>  <Diameter>
9

>  <Radius>
5

>  <TMWC10>
98.7

>  <TSRW10>
60.53

>  <MW>
208.12

>  <AMW>
6.71

>  <WPath>
399

>  <WPol>
19

>  <Zagreb1>
70

>  <Zagreb2>
79

>  <mZagreb2>
3.5

>  <yes>


>  <nAR-cont>
0.336376

>  <nHA-cont>
0.92539861

>  <MWHBN>
0.277270128

>  <MWHBN-cont>
0.902899241

>  <TPSA-cont>
0.643290269

>  <pka_cont>
0.97

>  <yes.1>


>  <BBB_SCORE>
4.387704009

>  <MMFF94 Energy>
18.325

$$$$
Compound 836
Actelion Java MolfileCreator 2.0

  0  0  0  0  0  0              0 V3000
M  V30 BEGIN CTAB
M  V30 COUNTS 40 41 0 0 0
M  V30 BEGIN ATOM
M  V30 1 O 1.74 -2.4524 -0.9488 0
M  V30 2 C 1.4376 -1.6916 -0.0292 0
M  V30 3 N 0.9519 -2.1409 1.1754 0
M  V30 4 C 1.6235 -0.1931 -0.1196 0
M  V30 5 N 0.6531 -3.4917 1.3214 0
M  V30 6 C 0.3239 0.6238 0.0727 0
M  V30 7 C -0.3013 -3.857 2.2431 0
M  V30 8 O -0.1754 0.2802 1.386 0
M  V30 9 C -0.8093 0.3891 -0.9399 0
M  V30 10 C 0.7428 2.1106 0.0944 0
M  V30 11 O -0.8819 -3.0514 2.9675 0
M  V30 12 C -0.5971 -5.3304 2.2675 0
M  V30 13 C -0.6558 -0.3699 -2.111 0
M  V30 14 C -2.0666 0.991 -0.7135 0
M  V30 15 C 0.8266 2.8369 1.2961 0
M  V30 16 C 1.0834 2.7751 -1.1003 0
M  V30 17 C -1.7211 -0.5461 -3.0001 0
M  V30 18 C -3.1285 0.8157 -1.6026 0
M  V30 19 C 1.2244 4.1762 1.302 0
M  V30 20 C 1.4802 4.1143 -1.0923 0
M  V30 21 C -2.9561 0.0421 -2.7445 0
M  V30 22 C 1.5499 4.8142 0.1085 0
M  V30 23 H 0.6447 -1.501 1.913 0
M  V30 24 H 2.3533 0.0687 0.6598 0
M  V30 25 H 2.0992 0.0305 -1.0828 0
M  V30 26 H 1.0777 -4.1321 0.6536 0
M  V30 27 H -1.0327 -0.171 1.2731 0
M  V30 28 H -1.5167 -5.5191 1.7075 0
M  V30 29 H -0.7262 -5.6545 3.3038 0
M  V30 30 H 0.2173 -5.9085 1.8225 0
M  V30 31 H 0.2905 -0.8365 -2.3719 0
M  V30 32 H -2.221 1.6188 0.1641 0
M  V30 33 H 0.583 2.3647 2.2459 0
M  V30 34 H 1.0365 2.2546 -2.0549 0
M  V30 35 H -1.5809 -1.1431 -3.8981 0
M  V30 36 H -4.0865 1.2897 -1.4047 0
M  V30 37 H 1.2797 4.7196 2.2417 0
M  V30 38 H 1.733 4.6104 -2.0258 0
M  V30 39 H -3.7799 -0.0955 -3.4397 0
M  V30 40 H 1.8579 5.8563 0.1148 0
M  V30 END ATOM
M  V30 BEGIN BOND
M  V30 1 2 1 2
M  V30 2 1 2 3
M  V30 3 1 2 4
M  V30 4 1 3 5
M  V30 5 1 4 6
M  V30 6 1 5 7
M  V30 7 1 6 8
M  V30 8 1 6 9
M  V30 9 1 6 10
M  V30 10 2 7 11
M  V30 11 1 7 12
M  V30 12 2 9 13
M  V30 13 1 9 14
M  V30 14 2 10 15
M  V30 15 1 10 16
M  V30 16 1 13 17
M  V30 17 2 14 18
M  V30 18 1 15 19
M  V30 19 2 16 20
M  V30 20 2 17 21
M  V30 21 2 19 22
M  V30 22 1 18 21
M  V30 23 1 20 22
M  V30 24 1 3 23
M  V30 25 1 4 24
M  V30 26 1 4 25
M  V30 27 1 5 26
M  V30 28 1 8 27
M  V30 29 1 12 28
M  V30 30 1 12 29
M  V30 31 1 12 30
M  V30 32 1 13 31
M  V30 33 1 14 32
M  V30 34 1 15 33
M  V30 35 1 16 34
M  V30 36 1 17 35
M  V30 37 1 18 36
M  V30 38 1 19 37
M  V30 39 1 20 38
M  V30 40 1 21 39
M  V30 41 1 22 40
M  V30 END BOND
M  V30 END CTAB
M  END
>  <Column 1>
1003

>  <level_0>
1139

>  <index>
1139

>  <Unnamed: 0>
1139

>  <NO.>
1151

>  <Name>
diphoxazide

>  <IUPAC_name>
n'-acetyl-3-hydroxy-3-3-diphenylpropanehydrazide

>  <SMILES>
CC(=O)NNC(=O)CC(O)(c1ccccc1)c1ccccc1

>  <CID>
160415

>  <logBB>


>  <BBB+/BBB->
BBB+

>  <Inchi>
InChI=1S/C17H18N2O3/c1-13(20)18-19-16(21)12-17(22-14-8-4-2-5-9-14)15-10-6-3-7-11-15/h2-11-22H-12H2-1H3-(H-18-20)(H-19-21)

>  <threshold>
-1

>  <reference>
R1|R13|R19|R6|R24|R27|R27|R27|R30|R30|

>  <group>
B

>  <Class>
-1

>  <ABC>
16.63

>  <ABCGG>
14.39

>  <nAcid>
0

>  <nBase>
0

>  <nAromAtom>
12

>  <nAromBond>
12

>  <nAtom>
40

>  <nHeavyAtom>
22

>  <nSpiro>
0

>  <nBridgehead>
0

>  <nHetero>
5

>  <nN>
2

>  <nO>
3

>  <nF>
0

>  <BalabanJ>
2.02

>  <BertzCT>
601.97

>  <nBonds>
41

>  <nBondsO>
23

>  <nBondsS>
27

>  <nBondsD>
2

>  <nBondsT>
0

>  <nBondsA>
12

>  <nBondsM>
14

>  <nBondsKS>
33

>  <nBondsKD>
8

>  <RNCG>
0.18

>  <RPCG>
0.12

>  <FCSP3>
0.18

>  <SZ>
26.33

>  <Sm>
24.84

>  <Sv>
25.54

>  <Sse>
40.31

>  <Sp>
26.95

>  <Si>
44.95

>  <MZ>
0.66

>  <Mm>
0.62

>  <Mv>
0.64

>  <Mse>
1.01

>  <Mp>
0.67

>  <Mi>
1.12

>  <NsCH3>
1

>  <NdCH2>
0

>  <NssCH2>
1

>  <NtCH>
0

>  <NdsCH>
0

>  <NaaCH>
10

>  <NsssCH>
0

>  <NddC>
0

>  <NtsC>
0

>  <NdssC>
2

>  <NaasC>
2

>  <NaaaC>
0

>  <NssssC>
1

>  <NsNH3>
0

>  <NsNH2>
0

>  <NssNH2>
0

>  <NdNH>
0

>  <NssNH>
2

>  <NaaNH>
0

>  <NtN>
0

>  <NsssNH>
0

>  <NdsN>
0

>  <NaaN>
0

>  <NsssN>
0

>  <NddsN>
0

>  <NaasN>
0

>  <NssssN>
0

>  <NsOH>
1

>  <NdO>
2

>  <NssO>
0

>  <NaaO>
0

>  <NsF>
0

>  <NsSiH3>
0

>  <NssSiH2>
0

>  <NsssSiH>
0

>  <NssssSi>
0

>  <NsPH2>
0

>  <NssPH>
0

>  <NsssP>
0

>  <NdsssP>
0

>  <NsssssP>
0

>  <NsSH>
0

>  <NdS>
0

>  <NssS>
0

>  <NaaS>
0

>  <NdssS>
0

>  <NddssS>
0

>  <NsCl>
0

>  <NsBr>
0

>  <NsI>
0

>  <fragCpx>
67.05

>  <fMF>
0.33

>  <nHBAcc>
3

>  <nHBDon>
3

>  <Kier1>
18.34

>  <Kier2>
8.74

>  <Lipinski>
1

>  <GhoseFilter>
1

>  <FilterItLogS>
-3.66

>  <VMcGowan>
231.84

>  <LabuteASA>
128.5

>  <PEOE_VSA1>
5.11

>  <PEOE_VSA2>
20.44

>  <PEOE_VSA3>
0

>  <PEOE_VSA4>
0

>  <PEOE_VSA5>
0

>  <PEOE_VSA6>
60.66

>  <PEOE_VSA7>
11.13

>  <PEOE_VSA8>
6.92

>  <PEOE_VSA9>
6.42

>  <PEOE_VSA10>
5.6

>  <PEOE_VSA11>
0

>  <PEOE_VSA12>
11.81

>  <PEOE_VSA13>
0

>  <SMR_VSA1>
14.7

>  <SMR_VSA2>
0

>  <SMR_VSA3>
10.85

>  <SMR_VSA4>
0

>  <SMR_VSA5>
18.95

>  <SMR_VSA6>
0

>  <SMR_VSA7>
71.79

>  <SMR_VSA8>
0

>  <SMR_VSA9>
0

>  <SlogP_VSA1>
10.85

>  <SlogP_VSA2>
16.92

>  <SlogP_VSA3>
15.19

>  <SlogP_VSA4>
0

>  <SlogP_VSA5>
24.47

>  <SlogP_VSA6>
60.66

>  <SlogP_VSA7>
0

>  <SlogP_VSA8>
0

>  <SlogP_VSA9>
0

>  <SlogP_VSA10>
0

>  <SlogP_VSA11>
0

>  <EState_VSA1>
11.51

>  <EState_VSA2>
12.33

>  <EState_VSA3>
11.13

>  <EState_VSA4>
0

>  <EState_VSA5>
6.92

>  <EState_VSA6>
48.53

>  <EState_VSA7>
12.13

>  <EState_VSA8>
10.85

>  <EState_VSA9>
0

>  <EState_VSA10>
14.7

>  <VSA_EState1>
0

>  <VSA_EState2>
22.89

>  <VSA_EState3>
11.12

>  <VSA_EState4>
4.25

>  <VSA_EState5>
-0.86

>  <VSA_EState6>
17.93

>  <VSA_EState7>
-0.21

>  <VSA_EState8>
1.29

>  <VSA_EState9>
0

>  <apol>
45

>  <bpol>
19.79

>  <nRing>
2

>  <nHRing>
0

>  <naRing>
2

>  <naHRing>
0

>  <nARing 2>
0

>  <nAHRing 2>
0

>  <nFRing>
0

>  <nFHRing>
0

>  <nFaRing>
0

>  <nFaHRing>
0

>  <nFARing 2>
0

>  <nFAHRing 2>
0

>  <nRot>
4

>  <SLogP>
1.48

>  <SMR>
82.46

>  <TopoPSA(NO)>
78.43

>  <TopoPSA>
78.43

>  <JGI1>
0.22

>  <JGI2>
0.09

>  <JGI3>
0.05

>  <JGI4>
0.03

>  <JGI5>
0.02

>  <Diameter>
10

>  <Radius>
5

>  <TMWC10>
118.18

>  <TSRW10>
55.78

>  <MW>
298.13

>  <AMW>
7.45

>  <WPath>
1049

>  <WPol>
32

>  <Zagreb1>
108

>  <Zagreb2>
123

>  <mZagreb2>
4.96

>  <yes>


>  <nAR-cont>
0.336376

>  <nHA-cont>
0.983774276

>  <MWHBN>
0.34749488

>  <MWHBN-cont>
0.679587863

>  <TPSA-cont>
0.452509898

>  <pka_cont>
0.97

>  <yes.1>


>  <BBB_SCORE>
3.729551866

>  <MMFF94 Energy>
63.04

$$$$
Compound 837
Actelion Java MolfileCreator 2.0

  0  0  0  0  0  0              0 V3000
M  V30 BEGIN CTAB
M  V30 COUNTS 29 29 0 0 0
M  V30 BEGIN ATOM
M  V30 1 I -0.0851 1.4491 2.4729 0
M  V30 2 C -0.0824 0.4339 0.5831 0
M  V30 3 C 0.4389 1.0651 -0.5653 0
M  V30 4 C -0.5385 -0.9003 0.5201 0
M  V30 5 N 0.8598 2.4144 -0.5322 0
M  V30 6 C 0.5504 0.338 -1.7675 0
M  V30 7 N -1.0427 -1.5128 1.6901 0
M  V30 8 C -0.4928 -1.598 -0.705 0
M  V30 9 C -0.0539 3.4529 -0.4969 0
M  V30 10 I 1.4221 1.2789 -3.4792 0
M  V30 11 C 0.0772 -0.9848 -1.8358 0
M  V30 12 C -0.3014 -2.4466 2.3912 0
M  V30 13 I -1.3683 -3.5453 -0.8626 0
M  V30 14 O -1.2717 3.3085 -0.4525 0
M  V30 15 C 0.5895 4.8116 -0.5635 0
M  V30 16 C 0.1536 -1.7181 -3.1046 0
M  V30 17 O 0.8135 -2.8396 2.063 0
M  V30 18 C -0.978 -2.9172 3.6502 0
M  V30 19 O -0.68 -1.7231 -3.9869 0
M  V30 20 O 1.3085 -2.4003 -3.1718 0
M  V30 21 H 1.8168 2.6141 -0.7992 0
M  V30 22 H -1.8337 -1.0707 2.1448 0
M  V30 23 H 1.5722 4.8034 -0.0836 0
M  V30 24 H -0.0422 5.5385 -0.0458 0
M  V30 25 H 0.7013 5.1046 -1.6107 0
M  V30 26 H -0.6918 -2.2627 4.4777 0
M  V30 27 H -0.6652 -3.9418 3.8691 0
M  V30 28 H -2.0661 -2.904 3.5392 0
M  V30 29 H 1.2711 -2.8696 -4.0319 0
M  V30 END ATOM
M  V30 BEGIN BOND
M  V30 1 1 1 2
M  V30 2 2 2 3
M  V30 3 1 2 4
M  V30 4 1 3 5
M  V30 5 1 3 6
M  V30 6 1 4 7
M  V30 7 2 4 8
M  V30 8 1 5 9
M  V30 9 1 6 10
M  V30 10 2 6 11
M  V30 11 1 7 12
M  V30 12 1 8 13
M  V30 13 2 9 14
M  V30 14 1 9 15
M  V30 15 1 11 16
M  V30 16 2 12 17
M  V30 17 1 12 18
M  V30 18 2 16 19
M  V30 19 1 16 20
M  V30 20 1 8 11
M  V30 21 1 5 21
M  V30 22 1 7 22
M  V30 23 1 15 23
M  V30 24 1 15 24
M  V30 25 1 15 25
M  V30 26 1 18 26
M  V30 27 1 18 27
M  V30 28 1 18 28
M  V30 29 1 20 29
M  V30 END BOND
M  V30 END CTAB
M  END
>  <Column 1>
1004

>  <level_0>
1140

>  <index>
1140

>  <Unnamed: 0>
1140

>  <NO.>
1152

>  <Name>
sodiumamidotrizoate

>  <IUPAC_name>
sodium;3-5-diacetamido-2-4-6-triiodobenzoate

>  <SMILES>
CC(=O)Nc1c(I)c(NC(C)=O)c(I)c(C(=O)O)c1I

>  <CID>
2140

>  <logBB>


>  <BBB+/BBB->
BBB-

>  <Inchi>
InChI=1S/C11H9I3N2O4/c1-3(17)15-9-6(12)5(11(19)20)7(13)10(8(9)14)16-4(2)18/h1-2H3-(H-15-17)(H-16-18)(H-19-20)

>  <threshold>
-1

>  <reference>
R1|R13|R23|R27|R27|R30|

>  <group>
B

>  <Class>
1

>  <ABC>
14.84

>  <ABCGG>
14.17

>  <nAcid>
1

>  <nBase>
0

>  <nAromAtom>
6

>  <nAromBond>
6

>  <nAtom>
29

>  <nHeavyAtom>
20

>  <nSpiro>
0

>  <nBridgehead>
0

>  <nHetero>
9

>  <nN>
2

>  <nO>
4

>  <nF>
0

>  <BalabanJ>
3.01

>  <BertzCT>
573.17

>  <nBonds>
29

>  <nBondsO>
20

>  <nBondsS>
20

>  <nBondsD>
3

>  <nBondsT>
0

>  <nBondsA>
6

>  <nBondsM>
9

>  <nBondsKS>
23

>  <nBondsKD>
6

>  <RNCG>
0.23

>  <RPCG>
0.17

>  <FCSP3>
0.18

>  <SZ>
46.67

>  <Sm>
51.11

>  <Sv>
22.55

>  <Sse>
30.18

>  <Sp>
27.44

>  <Si>
32.07

>  <MZ>
1.61

>  <Mm>
1.76

>  <Mv>
0.78

>  <Mse>
1.04

>  <Mp>
0.95

>  <Mi>
1.11

>  <NsCH3>
2

>  <NdCH2>
0

>  <NssCH2>
0

>  <NtCH>
0

>  <NdsCH>
0

>  <NaaCH>
0

>  <NsssCH>
0

>  <NddC>
0

>  <NtsC>
0

>  <NdssC>
3

>  <NaasC>
6

>  <NaaaC>
0

>  <NssssC>
0

>  <NsNH3>
0

>  <NsNH2>
0

>  <NssNH2>
0

>  <NdNH>
0

>  <NssNH>
2

>  <NaaNH>
0

>  <NtN>
0

>  <NsssNH>
0

>  <NdsN>
0

>  <NaaN>
0

>  <NsssN>
0

>  <NddsN>
0

>  <NaasN>
0

>  <NssssN>
0

>  <NsOH>
1

>  <NdO>
3

>  <NssO>
0

>  <NaaO>
0

>  <NsF>
0

>  <NsSiH3>
0

>  <NssSiH2>
0

>  <NsssSiH>
0

>  <NssssSi>
0

>  <NsPH2>
0

>  <NssPH>
0

>  <NsssP>
0

>  <NdsssP>
0

>  <NsssssP>
0

>  <NsSH>
0

>  <NdS>
0

>  <NssS>
0

>  <NaaS>
0

>  <NdssS>
0

>  <NddssS>
0

>  <NsCl>
0

>  <NsBr>
0

>  <NsI>
3

>  <fragCpx>
20.09

>  <fMF>
0.21

>  <nHBAcc>
3

>  <nHBDon>
3

>  <Kier1>
18.05

>  <Kier2>
7.32

>  <Lipinski>
0

>  <GhoseFilter>
0

>  <FilterItLogS>
-5.08

>  <VMcGowan>
250.12

>  <LabuteASA>
155.42

>  <PEOE_VSA1>
15.74

>  <PEOE_VSA2>
9.59

>  <PEOE_VSA3>
4.79

>  <PEOE_VSA4>
0

>  <PEOE_VSA5>
0

>  <PEOE_VSA6>
0

>  <PEOE_VSA7>
67.77

>  <PEOE_VSA8>
13.85

>  <PEOE_VSA9>
27.65

>  <PEOE_VSA10>
0

>  <PEOE_VSA11>
0

>  <PEOE_VSA12>
11.81

>  <PEOE_VSA13>
0

>  <SMR_VSA1>
19.49

>  <SMR_VSA2>
0

>  <SMR_VSA3>
0

>  <SMR_VSA4>
0

>  <SMR_VSA5>
13.85

>  <SMR_VSA6>
10.63

>  <SMR_VSA7>
16.27

>  <SMR_VSA8>
0

>  <SMR_VSA9>
0

>  <SlogP_VSA1>
10.63

>  <SlogP_VSA2>
22.89

>  <SlogP_VSA3>
9.59

>  <SlogP_VSA4>
10.71

>  <SlogP_VSA5>
24.21

>  <SlogP_VSA6>
0

>  <SlogP_VSA7>
0

>  <SlogP_VSA8>
0

>  <SlogP_VSA9>
0

>  <SlogP_VSA10>
11.37

>  <SlogP_VSA11>
0

>  <EState_VSA1>
5.97

>  <EState_VSA2>
17.38

>  <EState_VSA3>
22.09

>  <EState_VSA4>
0

>  <EState_VSA5>
13.85

>  <EState_VSA6>
0

>  <EState_VSA7>
67.77

>  <EState_VSA8>
10.63

>  <EState_VSA9>
0

>  <EState_VSA10>
19.49

>  <VSA_EState1>
1.44

>  <VSA_EState2>
33.92

>  <VSA_EState3>
14.53

>  <VSA_EState4>
0.83

>  <VSA_EState5>
-1.74

>  <VSA_EState6>
0

>  <VSA_EState7>
0

>  <VSA_EState8>
2.67

>  <VSA_EState9>
0

>  <apol>
45.83

>  <bpol>
23.81

>  <nRing>
1

>  <nHRing>
0

>  <naRing>
1

>  <naHRing>
0

>  <nARing 2>
0

>  <nAHRing 2>
0

>  <nFRing>
0

>  <nFHRing>
0

>  <nFaRing>
0

>  <nFaHRing>
0

>  <nFARing 2>
0

>  <nFAHRing 2>
0

>  <nRot>
3

>  <SLogP>
3.12

>  <SMR>
100.16

>  <TopoPSA(NO)>
95.5

>  <TopoPSA>
95.5

>  <JGI1>
0.28

>  <JGI2>
0.09

>  <JGI3>
0.08

>  <JGI4>
0.06

>  <JGI5>
0.03

>  <Diameter>
8

>  <Radius>
5

>  <TMWC10>
113.23

>  <TSRW10>
53.52

>  <MW>
613.77

>  <AMW>
21.16

>  <WPath>
746

>  <WPol>
33

>  <Zagreb1>
98

>  <Zagreb2>
114

>  <mZagreb2>
4.44

>  <yes>


>  <nAR-cont>
0.336376

>  <nHA-cont>
0.999629945

>  <MWHBN>
0.242185658

>  <MWHBN-cont>
0.971930205

>  <TPSA-cont>
0.333350698

>  <pka_cont>
0.97

>  <yes.1>


>  <BBB_SCORE>
3.945602648

>  <MMFF94 Energy>
11.384

$$$$
Compound 838
Actelion Java MolfileCreator 2.0

  0  0  0  0  0  0              0 V3000
M  V30 BEGIN CTAB
M  V30 COUNTS 33 34 0 0 0
M  V30 BEGIN ATOM
M  V30 1 O -3.2581 4.4522 -0.3175 0
M  V30 2 C -3.4945 3.2845 -0.069 0
M  V30 3 N -3.1416 2.6316 1.0912 0
M  V30 4 C -4.1655 2.2903 -0.9802 0
M  V30 5 C -3.4386 1.2197 1.0452 0 CFG=1
M  V30 6 C -4.5138 1.1437 -0.0321 0
M  V30 7 C -2.2521 0.3042 0.7031 0
M  V30 8 O -2.3659 -0.9021 0.5157 0
M  V30 9 O -1.069 1.0347 0.6695 0
M  V30 10 C 0.0677 0.2832 0.3667 0
M  V30 11 C 0.6199 -0.5786 1.3097 0
M  V30 12 C 0.6783 0.484 -0.8664 0
M  V30 13 C 1.7897 -1.2782 0.9985 0
M  V30 14 C 1.8464 -0.2186 -1.171 0
M  V30 15 C 2.4136 -1.1022 -0.2403 0
M  V30 16 N 3.5862 -1.7812 -0.6284 0
M  V30 17 C 4.4302 -2.5215 0.1803 0
M  V30 18 O 4.3315 -2.6928 1.3898 0
M  V30 19 C 5.5777 -3.1162 -0.5968 0
M  V30 20 H -2.6131 3.1055 1.8145 0
M  V30 21 H -5.056 2.7201 -1.4451 0
M  V30 22 H -3.4516 1.9746 -1.7472 0
M  V30 23 H -3.814 0.9189 2.0285 0
M  V30 24 H -4.5671 0.1828 -0.5525 0
M  V30 25 H -5.4971 1.3364 0.4164 0
M  V30 26 H 0.1502 -0.7199 2.2784 0
M  V30 27 H 0.2549 1.1792 -1.5851 0
M  V30 28 H 2.1873 -1.9607 1.7437 0
M  V30 29 H 2.3111 -0.0569 -2.1401 0
M  V30 30 H 3.8537 -1.6867 -1.6 0
M  V30 31 H 5.2076 -3.6191 -1.4949 0
M  V30 32 H 6.1018 -3.8494 0.0226 0
M  V30 33 H 6.2742 -2.3232 -0.8829 0
M  V30 END ATOM
M  V30 BEGIN BOND
M  V30 1 2 1 2
M  V30 2 1 2 3
M  V30 3 1 2 4
M  V30 4 1 3 5
M  V30 5 1 4 6
M  V30 6 1 5 7
M  V30 7 2 7 8
M  V30 8 1 7 9
M  V30 9 1 9 10
M  V30 10 2 10 11
M  V30 11 1 10 12
M  V30 12 1 11 13
M  V30 13 2 12 14
M  V30 14 2 13 15
M  V30 15 1 15 16
M  V30 16 1 16 17
M  V30 17 2 17 18
M  V30 18 1 17 19
M  V30 19 1 5 6
M  V30 20 1 14 15
M  V30 21 1 3 20
M  V30 22 1 4 21
M  V30 23 1 4 22
M  V30 24 1 5 23
M  V30 25 1 6 24
M  V30 26 1 6 25
M  V30 27 1 11 26
M  V30 28 1 12 27
M  V30 29 1 13 28
M  V30 30 1 14 29
M  V30 31 1 16 30
M  V30 32 1 19 31
M  V30 33 1 19 32
M  V30 34 1 19 33
M  V30 END BOND
M  V30 BEGIN COLLECTION
M  V30 MDLV30/STEABS ATOMS=(1 5)
M  V30 END COLLECTION
M  V30 END CTAB
M  END
>  <Column 1>
1005

>  <level_0>
1141

>  <index>
1141

>  <Unnamed: 0>
1141

>  <NO.>
1153

>  <Name>
pidolacetamol

>  <IUPAC_name>
(4-acetamidophenyl) (2s)-5-oxopyrrolidine-2-carboxylate

>  <SMILES>
CC(=O)Nc1ccc(OC(=O)[C@@H]2CCC(=O)N2)cc1

>  <CID>
65920

>  <logBB>


>  <BBB+/BBB->
BBB+

>  <Inchi>
InChI=1S/C13H14N2O4/c1-8(16)14-9-2-4-10(5-3-9)19-13(18)11-6-7-12(17)15-11/h2-5-11H-6-7H2-1H3-(H-14-16)(H-15-17)/t11-/m0/s1

>  <threshold>
-1

>  <reference>
R1|R13|R6|R24|R27|R30|

>  <group>
B

>  <Class>
1

>  <ABC>
14.54

>  <ABCGG>
12.26

>  <nAcid>
0

>  <nBase>
0

>  <nAromAtom>
6

>  <nAromBond>
6

>  <nAtom>
33

>  <nHeavyAtom>
19

>  <nSpiro>
0

>  <nBridgehead>
0

>  <nHetero>
6

>  <nN>
2

>  <nO>
4

>  <nF>
0

>  <BalabanJ>
1.67

>  <BertzCT>
509.88

>  <nBonds>
34

>  <nBondsO>
20

>  <nBondsS>
25

>  <nBondsD>
3

>  <nBondsT>
0

>  <nBondsA>
6

>  <nBondsM>
9

>  <nBondsKS>
28

>  <nBondsKD>
6

>  <RNCG>
0.21

>  <RPCG>
0.17

>  <FCSP3>
0.31

>  <SZ>
23

>  <Sm>
21.84

>  <Sv>
21.17

>  <Sse>
33.86

>  <Sp>
21.83

>  <Si>
37.33

>  <MZ>
0.7

>  <Mm>
0.66

>  <Mv>
0.64

>  <Mse>
1.03

>  <Mp>
0.66

>  <Mi>
1.13

>  <NsCH3>
1

>  <NdCH2>
0

>  <NssCH2>
2

>  <NtCH>
0

>  <NdsCH>
0

>  <NaaCH>
4

>  <NsssCH>
1

>  <NddC>
0

>  <NtsC>
0

>  <NdssC>
3

>  <NaasC>
2

>  <NaaaC>
0

>  <NssssC>
0

>  <NsNH3>
0

>  <NsNH2>
0

>  <NssNH2>
0

>  <NdNH>
0

>  <NssNH>
2

>  <NaaNH>
0

>  <NtN>
0

>  <NsssNH>
0

>  <NdsN>
0

>  <NaaN>
0

>  <NsssN>
0

>  <NddsN>
0

>  <NaasN>
0

>  <NssssN>
0

>  <NsOH>
0

>  <NdO>
3

>  <NssO>
1

>  <NaaO>
0

>  <NsF>
0

>  <NsSiH3>
0

>  <NssSiH2>
0

>  <NsssSiH>
0

>  <NssssSi>
0

>  <NsPH2>
0

>  <NssPH>
0

>  <NsssP>
0

>  <NdsssP>
0

>  <NsssssP>
0

>  <NsSH>
0

>  <NdS>
0

>  <NssS>
0

>  <NaaS>
0

>  <NdssS>
0

>  <NddssS>
0

>  <NsCl>
0

>  <NsBr>
0

>  <NsI>
0

>  <fragCpx>
58.06

>  <fMF>
0.39

>  <nHBAcc>
4

>  <nHBDon>
2

>  <Kier1>
15.39

>  <Kier2>
7.14

>  <Lipinski>
1

>  <GhoseFilter>
1

>  <FilterItLogS>
-2.69

>  <VMcGowan>
189.95

>  <LabuteASA>
109.68

>  <PEOE_VSA1>
15.37

>  <PEOE_VSA2>
9.59

>  <PEOE_VSA3>
4.79

>  <PEOE_VSA4>
0

>  <PEOE_VSA5>
0

>  <PEOE_VSA6>
0

>  <PEOE_VSA7>
30.69

>  <PEOE_VSA8>
19.03

>  <PEOE_VSA9>
0

>  <PEOE_VSA10>
11.79

>  <PEOE_VSA11>
0

>  <PEOE_VSA12>
11.81

>  <PEOE_VSA13>
0

>  <SMR_VSA1>
19.12

>  <SMR_VSA2>
0

>  <SMR_VSA3>
5.32

>  <SMR_VSA4>
0

>  <SMR_VSA5>
25.81

>  <SMR_VSA6>
5.32

>  <SMR_VSA7>
24.27

>  <SMR_VSA8>
0

>  <SMR_VSA9>
5.75

>  <SlogP_VSA1>
15.37

>  <SlogP_VSA2>
23.83

>  <SlogP_VSA3>
14.38

>  <SlogP_VSA4>
0

>  <SlogP_VSA5>
19.77

>  <SlogP_VSA6>
24.27

>  <SlogP_VSA7>
0

>  <SlogP_VSA8>
0

>  <SlogP_VSA9>
0

>  <SlogP_VSA10>
5.69

>  <SlogP_VSA11>
5.75

>  <EState_VSA1>
12.01

>  <EState_VSA2>
11.81

>  <EState_VSA3>
24.28

>  <EState_VSA4>
0

>  <EState_VSA5>
6.92

>  <EState_VSA6>
24.27

>  <EState_VSA7>
0

>  <EState_VSA8>
10.63

>  <EState_VSA9>
4.74

>  <EState_VSA10>
14.38

>  <VSA_EState1>
5.14

>  <VSA_EState2>
33.56

>  <VSA_EState3>
5.15

>  <VSA_EState4>
0.63

>  <VSA_EState5>
-0.4

>  <VSA_EState6>
5.87

>  <VSA_EState7>
0.81

>  <VSA_EState8>
1.41

>  <VSA_EState9>
0

>  <apol>
36.45

>  <bpol>
19.52

>  <nRing>
2

>  <nHRing>
1

>  <naRing>
1

>  <naHRing>
0

>  <nARing 2>
1

>  <nAHRing 2>
1

>  <nFRing>
0

>  <nFHRing>
0

>  <nFaRing>
0

>  <nFaHRing>
0

>  <nFARing 2>
0

>  <nFAHRing 2>
0

>  <nRot>
3

>  <SLogP>
0.83

>  <SMR>
67.55

>  <TopoPSA(NO)>
84.5

>  <TopoPSA>
84.5

>  <JGI1>
0.25

>  <JGI2>
0.07

>  <JGI3>
0.05

>  <JGI4>
0.05

>  <JGI5>
0.02

>  <Diameter>
12

>  <Radius>
6

>  <TMWC10>
109.81

>  <TSRW10>
65.23

>  <MW>
262.1

>  <AMW>
7.94

>  <WPath>
813

>  <WPol>
23

>  <Zagreb1>
94

>  <Zagreb2>
105

>  <mZagreb2>
4.19

>  <yes>


>  <nAR-cont>
0.816016

>  <nHA-cont>
0.998649058

>  <MWHBN>
0.370610517

>  <MWHBN-cont>
0.591492763

>  <TPSA-cont>
0.410137529

>  <pka_cont>
0.97

>  <yes.1>


>  <BBB_SCORE>
4.00717926

>  <MMFF94 Energy>
15.819

$$$$
Compound 839
Actelion Java MolfileCreator 2.0

  0  0  0  0  0  0              0 V3000
M  V30 BEGIN CTAB
M  V30 COUNTS 33 34 0 0 0
M  V30 BEGIN ATOM
M  V30 1 O -2.2213 -0.7136 -0.8722 0
M  V30 2 C -2.13 0.2844 -0.173 0
M  V30 3 O -0.9661 0.8369 0.332 0
M  V30 4 C -3.3078 1.0806 0.2736 0
M  V30 5 C 0.2219 0.182 -0.0144 0
M  V30 6 C -3.2464 2.3106 0.9458 0
M  V30 7 C -4.5722 0.5393 -0.0231 0
M  V30 8 C 1.0162 -0.3 1.0209 0
M  V30 9 C 0.6413 0.0953 -1.3385 0
M  V30 10 O -2.095 2.9637 1.2915 0
M  V30 11 C -4.4206 2.9746 1.3111 0
M  V30 12 C -5.7431 1.2059 0.3452 0
M  V30 13 C 2.2383 -0.9105 0.7244 0
M  V30 14 C 1.8619 -0.519 -1.6281 0
M  V30 15 C -5.6662 2.4241 1.0131 0
M  V30 16 C 2.6717 -1.0229 -0.5998 0
M  V30 17 N 3.8812 -1.6404 -0.976 0
M  V30 18 C 4.9277 -2.0022 -0.1468 0
M  V30 19 O 5.0091 -1.8172 1.0618 0
M  V30 20 C 6.0503 -2.6599 -0.909 0
M  V30 21 H -4.6532 -0.4127 -0.5463 0
M  V30 22 H 0.6938 -0.2131 2.0544 0
M  V30 23 H 0.0272 0.4881 -2.1433 0
M  V30 24 H -1.3215 2.4252 1.0457 0
M  V30 25 H -4.362 3.9282 1.8311 0
M  V30 26 H -6.7125 0.7732 0.1095 0
M  V30 27 H 2.8281 -1.2967 1.5503 0
M  V30 28 H 2.1711 -0.5917 -2.6673 0
M  V30 29 H -6.5743 2.9477 1.3016 0
M  V30 30 H 4.0057 -1.8065 -1.9666 0
M  V30 31 H 5.6572 -3.443 -1.5636 0
M  V30 32 H 6.7561 -3.1134 -0.2076 0
M  V30 33 H 6.5716 -1.9095 -1.5097 0
M  V30 END ATOM
M  V30 BEGIN BOND
M  V30 1 2 1 2
M  V30 2 1 2 3
M  V30 3 1 2 4
M  V30 4 1 3 5
M  V30 5 2 4 6
M  V30 6 1 4 7
M  V30 7 2 5 8
M  V30 8 1 5 9
M  V30 9 1 6 10
M  V30 10 1 6 11
M  V30 11 2 7 12
M  V30 12 1 8 13
M  V30 13 2 9 14
M  V30 14 2 11 15
M  V30 15 2 13 16
M  V30 16 1 16 17
M  V30 17 1 17 18
M  V30 18 2 18 19
M  V30 19 1 18 20
M  V30 20 1 12 15
M  V30 21 1 14 16
M  V30 22 1 7 21
M  V30 23 1 8 22
M  V30 24 1 9 23
M  V30 25 1 10 24
M  V30 26 1 11 25
M  V30 27 1 12 26
M  V30 28 1 13 27
M  V30 29 1 14 28
M  V30 30 1 15 29
M  V30 31 1 17 30
M  V30 32 1 20 31
M  V30 33 1 20 32
M  V30 34 1 20 33
M  V30 END BOND
M  V30 END CTAB
M  END
>  <Column 1>
1006

>  <level_0>
1142

>  <index>
1142

>  <Unnamed: 0>
1142

>  <NO.>
1154

>  <Name>
acetaminosalol

>  <IUPAC_name>
(4-acetamidophenyl) 2-hydroxybenzoate

>  <SMILES>
CC(=O)Nc1ccc(OC(=O)c2ccccc2O)cc1

>  <CID>
1984

>  <logBB>


>  <BBB+/BBB->
BBB+

>  <Inchi>
InChI=1S/C15H13NO4/c1-10(17)16-11-6-8-12(9-7-11)20-15(19)13-4-2-3-5-14(13)18/h2-9-18H-1H3-(H-16-17)

>  <threshold>
-1

>  <reference>
R1|R13|R19|R6|R24|R27|R27|R27|R30|R30|

>  <group>
B

>  <Class>
1

>  <ABC>
15.21

>  <ABCGG>
12.42

>  <nAcid>
0

>  <nBase>
0

>  <nAromAtom>
12

>  <nAromBond>
12

>  <nAtom>
33

>  <nHeavyAtom>
20

>  <nSpiro>
0

>  <nBridgehead>
0

>  <nHetero>
5

>  <nN>
1

>  <nO>
4

>  <nF>
0

>  <BalabanJ>
1.71

>  <BertzCT>
634.58

>  <nBonds>
34

>  <nBondsO>
21

>  <nBondsS>
20

>  <nBondsD>
2

>  <nBondsT>
0

>  <nBondsA>
12

>  <nBondsM>
14

>  <nBondsKS>
26

>  <nBondsKD>
8

>  <RNCG>
0.25

>  <RPCG>
0.17

>  <FCSP3>
0.07

>  <SZ>
23.67

>  <Sm>
22.59

>  <Sv>
22.14

>  <Sse>
33.76

>  <Sp>
22.77

>  <Si>
36.83

>  <MZ>
0.72

>  <Mm>
0.68

>  <Mv>
0.67

>  <Mse>
1.02

>  <Mp>
0.69

>  <Mi>
1.12

>  <NsCH3>
1

>  <NdCH2>
0

>  <NssCH2>
0

>  <NtCH>
0

>  <NdsCH>
0

>  <NaaCH>
8

>  <NsssCH>
0

>  <NddC>
0

>  <NtsC>
0

>  <NdssC>
2

>  <NaasC>
4

>  <NaaaC>
0

>  <NssssC>
0

>  <NsNH3>
0

>  <NsNH2>
0

>  <NssNH2>
0

>  <NdNH>
0

>  <NssNH>
1

>  <NaaNH>
0

>  <NtN>
0

>  <NsssNH>
0

>  <NdsN>
0

>  <NaaN>
0

>  <NsssN>
0

>  <NddsN>
0

>  <NaasN>
0

>  <NssssN>
0

>  <NsOH>
1

>  <NdO>
2

>  <NssO>
1

>  <NaaO>
0

>  <NsF>
0

>  <NsSiH3>
0

>  <NssSiH2>
0

>  <NsssSiH>
0

>  <NssssSi>
0

>  <NsPH2>
0

>  <NssPH>
0

>  <NsssP>
0

>  <NdsssP>
0

>  <NsssssP>
0

>  <NsSH>
0

>  <NdS>
0

>  <NssS>
0

>  <NaaS>
0

>  <NdssS>
0

>  <NddssS>
0

>  <NsCl>
0

>  <NsBr>
0

>  <NsI>
0

>  <fragCpx>
61.05

>  <fMF>
0.42

>  <nHBAcc>
4

>  <nHBDon>
2

>  <Kier1>
16.37

>  <Kier2>
7.85

>  <Lipinski>
1

>  <GhoseFilter>
1

>  <FilterItLogS>
-3.21

>  <VMcGowan>
199.55

>  <LabuteASA>
115.36

>  <PEOE_VSA1>
15.16

>  <PEOE_VSA2>
4.79

>  <PEOE_VSA3>
4.79

>  <PEOE_VSA4>
0

>  <PEOE_VSA5>
0

>  <PEOE_VSA6>
12.13

>  <PEOE_VSA7>
36.4

>  <PEOE_VSA8>
12.61

>  <PEOE_VSA9>
0

>  <PEOE_VSA10>
17.06

>  <PEOE_VSA11>
0

>  <PEOE_VSA12>
5.91

>  <PEOE_VSA13>
0

>  <SMR_VSA1>
19.43

>  <SMR_VSA2>
0

>  <SMR_VSA3>
0

>  <SMR_VSA4>
0

>  <SMR_VSA5>
6.92

>  <SMR_VSA6>
5.32

>  <SMR_VSA7>
54.09

>  <SMR_VSA8>
0

>  <SMR_VSA9>
11.5

>  <SlogP_VSA1>
10.05

>  <SlogP_VSA2>
16.98

>  <SlogP_VSA3>
4.79

>  <SlogP_VSA4>
0

>  <SlogP_VSA5>
17.28

>  <SlogP_VSA6>
48.53

>  <SlogP_VSA7>
0

>  <SlogP_VSA8>
0

>  <SlogP_VSA9>
0

>  <SlogP_VSA10>
5.69

>  <SlogP_VSA11>
11.5

>  <EState_VSA1>
5.97

>  <EState_VSA2>
17.22

>  <EState_VSA3>
11.44

>  <EState_VSA4>
0

>  <EState_VSA5>
19.06

>  <EState_VSA6>
36.4

>  <EState_VSA7>
0

>  <EState_VSA8>
5.32

>  <EState_VSA9>
4.74

>  <EState_VSA10>
14.7

>  <VSA_EState1>
5.13

>  <VSA_EState2>
22.72

>  <VSA_EState3>
12.16

>  <VSA_EState4>
0.71

>  <VSA_EState5>
-0.63

>  <VSA_EState6>
12.5

>  <VSA_EState7>
0

>  <VSA_EState8>
1.41

>  <VSA_EState9>
0

>  <apol>
38.03

>  <bpol>
17.08

>  <nRing>
2

>  <nHRing>
0

>  <naRing>
2

>  <naHRing>
0

>  <nARing 2>
0

>  <nAHRing 2>
0

>  <nFRing>
0

>  <nFHRing>
0

>  <nFaRing>
0

>  <nFaHRing>
0

>  <nFARing 2>
0

>  <nFAHRing 2>
0

>  <nRot>
3

>  <SLogP>
2.57

>  <SMR>
73.81

>  <TopoPSA(NO)>
75.63

>  <TopoPSA>
75.63

>  <JGI1>
0.21

>  <JGI2>
0.07

>  <JGI3>
0.05

>  <JGI4>
0.04

>  <JGI5>
0.03

>  <Diameter>
12

>  <Radius>
6

>  <TMWC10>
112.22

>  <TSRW10>
53.04

>  <MW>
271.08

>  <AMW>
8.21

>  <WPath>
920

>  <WPol>
27

>  <Zagreb1>
98

>  <Zagreb2>
110

>  <mZagreb2>
4.47

>  <yes>


>  <nAR-cont>
0.336376

>  <nHA-cont>
0.999629945

>  <MWHBN>
0.364420259

>  <MWHBN-cont>
0.615454808

>  <TPSA-cont>
0.472055637

>  <pka_cont>
0.97

>  <yes.1>


>  <BBB_SCORE>
3.68829943

>  <MMFF94 Energy>
46.023

$$$$
Compound 840
Actelion Java MolfileCreator 2.0

  0  0  0  0  0  0              0 V3000
M  V30 BEGIN CTAB
M  V30 COUNTS 32 32 0 0 0
M  V30 BEGIN ATOM
M  V30 1 O 2.4132 -2.3353 -2.9588 0
M  V30 2 C 2.9415 -2.6418 -1.8964 0
M  V30 3 N 2.5069 -2.3147 -0.6243 0
M  V30 4 C 4.2236 -3.435 -1.8677 0
M  V30 5 C 1.3451 -1.5944 -0.2816 0
M  V30 6 C 1.2199 -1.1717 1.0482 0
M  V30 7 C 0.3109 -1.3189 -1.1784 0
M  V30 8 C 0.091 -0.4611 1.4653 0
M  V30 9 C -0.8196 -0.6091 -0.7598 0
M  V30 10 C -0.9088 -0.1491 0.5497 0
M  V30 11 O -2.0358 0.4888 0.979 0
M  V30 12 C -2.0642 1.9279 0.8341 0
M  V30 13 C -0.9244 2.6265 1.5907 0
M  V30 14 C -3.3957 2.3483 1.4805 0
M  V30 15 C -2.0881 2.3671 -0.6367 0
M  V30 16 H 3.1029 -2.5892 0.146 0
M  V30 17 H 5.0501 -2.7815 -1.5755 0
M  V30 18 H 4.4243 -3.8474 -2.8603 0
M  V30 19 H 4.1427 -4.2619 -1.1562 0
M  V30 20 H 1.9938 -1.3899 1.7788 0
M  V30 21 H 0.345 -1.6595 -2.2088 0
M  V30 22 H -0.0064 -0.1558 2.5029 0
M  V30 23 H -1.6283 -0.4282 -1.4616 0
M  V30 24 H 0.0487 2.4175 1.1341 0
M  V30 25 H -1.0564 3.7141 1.5942 0
M  V30 26 H -0.8741 2.2826 2.6297 0
M  V30 27 H -3.4339 2.0361 2.5308 0
M  V30 28 H -3.5472 3.4321 1.4369 0
M  V30 29 H -4.2416 1.8608 0.9819 0
M  V30 30 H -1.1304 2.1717 -1.13 0
M  V30 31 H -2.8568 1.8228 -1.1962 0
M  V30 32 H -2.2882 3.4403 -0.7294 0
M  V30 END ATOM
M  V30 BEGIN BOND
M  V30 1 2 1 2
M  V30 2 1 2 3
M  V30 3 1 2 4
M  V30 4 1 3 5
M  V30 5 2 5 6
M  V30 6 1 5 7
M  V30 7 1 6 8
M  V30 8 2 7 9
M  V30 9 2 8 10
M  V30 10 1 10 11
M  V30 11 1 11 12
M  V30 12 1 12 13
M  V30 13 1 12 14
M  V30 14 1 12 15
M  V30 15 1 9 10
M  V30 16 1 3 16
M  V30 17 1 4 17
M  V30 18 1 4 18
M  V30 19 1 4 19
M  V30 20 1 6 20
M  V30 21 1 7 21
M  V30 22 1 8 22
M  V30 23 1 9 23
M  V30 24 1 13 24
M  V30 25 1 13 25
M  V30 26 1 13 26
M  V30 27 1 14 27
M  V30 28 1 14 28
M  V30 29 1 14 29
M  V30 30 1 15 30
M  V30 31 1 15 31
M  V30 32 1 15 32
M  V30 END BOND
M  V30 END CTAB
M  END
>  <Column 1>
1007

>  <level_0>
1143

>  <index>
1143

>  <Unnamed: 0>
1143

>  <NO.>
1155

>  <Name>
butacetin

>  <IUPAC_name>
n-[4-[(2-methylpropan-2-yl)oxy]phenyl]acetamide

>  <SMILES>
CC(=O)Nc1ccc(OC(C)(C)C)cc1

>  <CID>
16426

>  <logBB>


>  <BBB+/BBB->
BBB+

>  <Inchi>
InChI=1S/C12H17NO2/c1-9(14)13-10-5-7-11(8-6-10)15-12(2-3)4/h5-8H-1-4H3-(H-13-14)

>  <threshold>
-1

>  <reference>
R1|R13|R19|R6|R24|R27|R27|R27|R30|R30|

>  <group>
B

>  <Class>
1

>  <ABC>
11.3

>  <ABCGG>
9.91

>  <nAcid>
0

>  <nBase>
0

>  <nAromAtom>
6

>  <nAromBond>
6

>  <nAtom>
32

>  <nHeavyAtom>
15

>  <nSpiro>
0

>  <nBridgehead>
0

>  <nHetero>
3

>  <nN>
1

>  <nO>
2

>  <nF>
0

>  <BalabanJ>
2.24

>  <BertzCT>
335.63

>  <nBonds>
32

>  <nBondsO>
15

>  <nBondsS>
25

>  <nBondsD>
1

>  <nBondsT>
0

>  <nBondsA>
6

>  <nBondsM>
7

>  <nBondsKS>
28

>  <nBondsKD>
4

>  <RNCG>
0.38

>  <RPCG>
0.17

>  <FCSP3>
0.42

>  <SZ>
18.67

>  <Sm>
17.26

>  <Sv>
18.79

>  <Sse>
31.87

>  <Sp>
20.41

>  <Si>
36.24

>  <MZ>
0.58

>  <Mm>
0.54

>  <Mv>
0.59

>  <Mse>
1

>  <Mp>
0.64

>  <Mi>
1.13

>  <NsCH3>
4

>  <NdCH2>
0

>  <NssCH2>
0

>  <NtCH>
0

>  <NdsCH>
0

>  <NaaCH>
4

>  <NsssCH>
0

>  <NddC>
0

>  <NtsC>
0

>  <NdssC>
1

>  <NaasC>
2

>  <NaaaC>
0

>  <NssssC>
1

>  <NsNH3>
0

>  <NsNH2>
0

>  <NssNH2>
0

>  <NdNH>
0

>  <NssNH>
1

>  <NaaNH>
0

>  <NtN>
0

>  <NsssNH>
0

>  <NdsN>
0

>  <NaaN>
0

>  <NsssN>
0

>  <NddsN>
0

>  <NaasN>
0

>  <NssssN>
0

>  <NsOH>
0

>  <NdO>
1

>  <NssO>
1

>  <NaaO>
0

>  <NsF>
0

>  <NsSiH3>
0

>  <NssSiH2>
0

>  <NsssSiH>
0

>  <NssssSi>
0

>  <NsPH2>
0

>  <NssPH>
0

>  <NsssP>
0

>  <NdsssP>
0

>  <NsssssP>
0

>  <NsSH>
0

>  <NdS>
0

>  <NssS>
0

>  <NaaS>
0

>  <NdssS>
0

>  <NddssS>
0

>  <NsCl>
0

>  <NsBr>
0

>  <NsI>
0

>  <fragCpx>
15.03

>  <fMF>
0.19

>  <nHBAcc>
2

>  <nHBDon>
1

>  <Kier1>
13.07

>  <Kier2>
5.37

>  <Lipinski>
1

>  <GhoseFilter>
1

>  <FilterItLogS>
-3.14

>  <VMcGowan>
173.6

>  <LabuteASA>
90.45

>  <PEOE_VSA1>
10.05

>  <PEOE_VSA2>
4.79

>  <PEOE_VSA3>
0

>  <PEOE_VSA4>
0

>  <PEOE_VSA5>
0

>  <PEOE_VSA6>
0

>  <PEOE_VSA7>
45.04

>  <PEOE_VSA8>
12.61

>  <PEOE_VSA9>
0

>  <PEOE_VSA10>
11.35

>  <PEOE_VSA11>
0

>  <PEOE_VSA12>
5.91

>  <PEOE_VSA13>
0

>  <SMR_VSA1>
9.53

>  <SMR_VSA2>
0

>  <SMR_VSA3>
0

>  <SMR_VSA4>
0

>  <SMR_VSA5>
33.3

>  <SMR_VSA6>
5.32

>  <SMR_VSA7>
24.27

>  <SMR_VSA8>
0

>  <SMR_VSA9>
5.75

>  <SlogP_VSA1>
10.05

>  <SlogP_VSA2>
11.51

>  <SlogP_VSA3>
4.79

>  <SlogP_VSA4>
0

>  <SlogP_VSA5>
27.69

>  <SlogP_VSA6>
24.27

>  <SlogP_VSA7>
0

>  <SlogP_VSA8>
0

>  <SlogP_VSA9>
0

>  <SlogP_VSA10>
5.69

>  <SlogP_VSA11>
5.75

>  <EState_VSA1>
0

>  <EState_VSA2>
11.51

>  <EState_VSA3>
0

>  <EState_VSA4>
11.44

>  <EState_VSA5>
6.92

>  <EState_VSA6>
0

>  <EState_VSA7>
45.04

>  <EState_VSA8>
5.32

>  <EState_VSA9>
4.74

>  <EState_VSA10>
4.79

>  <VSA_EState1>
5.65

>  <VSA_EState2>
10.78

>  <VSA_EState3>
2.7

>  <VSA_EState4>
0.58

>  <VSA_EState5>
0.73

>  <VSA_EState6>
7.33

>  <VSA_EState7>
0

>  <VSA_EState8>
7.47

>  <VSA_EState9>
0

>  <apol>
34.08

>  <bpol>
20.23

>  <nRing>
1

>  <nHRing>
0

>  <naRing>
1

>  <naHRing>
0

>  <nARing 2>
0

>  <nAHRing 2>
0

>  <nFRing>
0

>  <nFHRing>
0

>  <nFaRing>
0

>  <nFaHRing>
0

>  <nFARing 2>
0

>  <nFAHRing 2>
0

>  <nRot>
2

>  <SLogP>
2.82

>  <SMR>
61.13

>  <TopoPSA(NO)>
38.33

>  <TopoPSA>
38.33

>  <JGI1>
0.37

>  <JGI2>
0.05

>  <JGI3>
0.06

>  <JGI4>
0.05

>  <JGI5>
0.02

>  <Diameter>
9

>  <Radius>
5

>  <TMWC10>
97.66

>  <TSRW10>
46.38

>  <MW>
207.13

>  <AMW>
6.47

>  <WPath>
412

>  <WPol>
16

>  <Zagreb1>
72

>  <Zagreb2>
76

>  <mZagreb2>
3.21

>  <yes>


>  <nAR-cont>
0.336376

>  <nHA-cont>
0.92539861

>  <MWHBN>
0.208448969

>  <MWHBN-cont>
0.999635432

>  <TPSA-cont>
0.732432798

>  <pka_cont>
0.97

>  <yes.1>


>  <BBB_SCORE>
4.711093356

>  <MMFF94 Energy>
18.271

$$$$
Compound 841
Actelion Java MolfileCreator 2.0

  0  0  0  0  0  0              0 V3000
M  V30 BEGIN CTAB
M  V30 COUNTS 20 20 0 0 0
M  V30 BEGIN ATOM
M  V30 1 O -1.789 1.9447 1.0886 0
M  V30 2 C -2.1183 0.8598 0.6238 0
M  V30 3 N -1.2886 -0.1062 0.0838 0
M  V30 4 C -3.5658 0.4372 0.5907 0
M  V30 5 C 0.1145 -0.0575 -0.051 0
M  V30 6 C 0.7391 -1.1667 -0.6341 0
M  V30 7 C 0.9025 1.0202 0.3592 0
M  V30 8 C 2.1218 -1.1879 -0.799 0
M  V30 9 C 2.2918 0.9904 0.1896 0
M  V30 10 O 2.6743 -2.2952 -1.3732 0
M  V30 11 C 2.9067 -0.1165 -0.3915 0
M  V30 12 H -1.7343 -0.9493 -0.256 0
M  V30 13 H -3.8787 0.2655 -0.443 0
M  V30 14 H -4.1909 1.2229 1.0243 0
M  V30 15 H -3.6977 -0.4808 1.1703 0
M  V30 16 H 0.1637 -2.0255 -0.9668 0
M  V30 17 H 0.4671 1.9035 0.8166 0
M  V30 18 H 2.8893 1.8386 0.5149 0
M  V30 19 H 3.6366 -2.1696 -1.4231 0
M  V30 20 H 3.9847 -0.1231 -0.5155 0
M  V30 END ATOM
M  V30 BEGIN BOND
M  V30 1 2 1 2
M  V30 2 1 2 3
M  V30 3 1 2 4
M  V30 4 1 3 5
M  V30 5 2 5 6
M  V30 6 1 5 7
M  V30 7 1 6 8
M  V30 8 2 7 9
M  V30 9 1 8 10
M  V30 10 2 8 11
M  V30 11 1 9 11
M  V30 12 1 3 12
M  V30 13 1 4 13
M  V30 14 1 4 14
M  V30 15 1 4 15
M  V30 16 1 6 16
M  V30 17 1 7 17
M  V30 18 1 9 18
M  V30 19 1 10 19
M  V30 20 1 11 20
M  V30 END BOND
M  V30 END CTAB
M  END
>  <Column 1>
1008

>  <level_0>
1144

>  <index>
1144

>  <Unnamed: 0>
1144

>  <NO.>
1156

>  <Name>
metacetamol

>  <IUPAC_name>
n-(3-hydroxyphenyl)acetamide

>  <SMILES>
CC(=O)Nc1cccc(O)c1

>  <CID>
12124

>  <logBB>


>  <BBB+/BBB->
BBB+

>  <Inchi>
InChI=1S/C8H9NO2/c1-6(10)9-7-3-2-4-8(11)5-7/h2-5-11H-1H3-(H-9-10)

>  <threshold>
-1

>  <reference>
R1|R13|R19|R6|R24|R27|R27|R27|R30|R30|

>  <group>
B

>  <Class>
1

>  <ABC>
8.11

>  <ABCGG>
7.52

>  <nAcid>
0

>  <nBase>
0

>  <nAromAtom>
6

>  <nAromBond>
6

>  <nAtom>
20

>  <nHeavyAtom>
11

>  <nSpiro>
0

>  <nBridgehead>
0

>  <nHetero>
3

>  <nN>
1

>  <nO>
2

>  <nF>
0

>  <BalabanJ>
2.23

>  <BertzCT>
270.55

>  <nBonds>
20

>  <nBondsO>
11

>  <nBondsS>
13

>  <nBondsD>
1

>  <nBondsT>
0

>  <nBondsA>
6

>  <nBondsM>
7

>  <nBondsKS>
16

>  <nBondsKD>
4

>  <RNCG>
0.41

>  <RPCG>
0.24

>  <FCSP3>
0.13

>  <SZ>
13.33

>  <Sm>
12.59

>  <Sv>
12.63

>  <Sse>
20.32

>  <Sp>
13.21

>  <Si>
22.58

>  <MZ>
0.67

>  <Mm>
0.63

>  <Mv>
0.63

>  <Mse>
1.02

>  <Mp>
0.66

>  <Mi>
1.13

>  <NsCH3>
1

>  <NdCH2>
0

>  <NssCH2>
0

>  <NtCH>
0

>  <NdsCH>
0

>  <NaaCH>
4

>  <NsssCH>
0

>  <NddC>
0

>  <NtsC>
0

>  <NdssC>
1

>  <NaasC>
2

>  <NaaaC>
0

>  <NssssC>
0

>  <NsNH3>
0

>  <NsNH2>
0

>  <NssNH2>
0

>  <NdNH>
0

>  <NssNH>
1

>  <NaaNH>
0

>  <NtN>
0

>  <NsssNH>
0

>  <NdsN>
0

>  <NaaN>
0

>  <NsssN>
0

>  <NddsN>
0

>  <NaasN>
0

>  <NssssN>
0

>  <NsOH>
1

>  <NdO>
1

>  <NssO>
0

>  <NaaO>
0

>  <NsF>
0

>  <NsSiH3>
0

>  <NssSiH2>
0

>  <NsssSiH>
0

>  <NssssSi>
0

>  <NsPH2>
0

>  <NssPH>
0

>  <NsssP>
0

>  <NdsssP>
0

>  <NsssssP>
0

>  <NsSH>
0

>  <NdS>
0

>  <NssS>
0

>  <NaaS>
0

>  <NdssS>
0

>  <NddssS>
0

>  <NsCl>
0

>  <NsBr>
0

>  <NsI>
0

>  <fragCpx>
11.03

>  <fMF>
0.3

>  <nHBAcc>
2

>  <nHBDon>
2

>  <Kier1>
9.09

>  <Kier2>
4.13

>  <Lipinski>
1

>  <GhoseFilter>
0

>  <FilterItLogS>
-1.59

>  <VMcGowan>
117.24

>  <LabuteASA>
64.67

>  <PEOE_VSA1>
10.42

>  <PEOE_VSA2>
4.79

>  <PEOE_VSA3>
0

>  <PEOE_VSA4>
0

>  <PEOE_VSA5>
0

>  <PEOE_VSA6>
6.07

>  <PEOE_VSA7>
12.13

>  <PEOE_VSA8>
18.68

>  <PEOE_VSA9>
0

>  <PEOE_VSA10>
5.75

>  <PEOE_VSA11>
0

>  <PEOE_VSA12>
5.91

>  <PEOE_VSA13>
0

>  <SMR_VSA1>
9.9

>  <SMR_VSA2>
0

>  <SMR_VSA3>
0

>  <SMR_VSA4>
0

>  <SMR_VSA5>
6.92

>  <SMR_VSA6>
5.32

>  <SMR_VSA7>
24.27

>  <SMR_VSA8>
0

>  <SMR_VSA9>
5.75

>  <SlogP_VSA1>
5.32

>  <SlogP_VSA2>
11.01

>  <SlogP_VSA3>
4.79

>  <SlogP_VSA4>
0

>  <SlogP_VSA5>
6.92

>  <SlogP_VSA6>
24.27

>  <SlogP_VSA7>
0

>  <SlogP_VSA8>
0

>  <SlogP_VSA9>
0

>  <SlogP_VSA10>
5.69

>  <SlogP_VSA11>
5.75

>  <EState_VSA1>
0

>  <EState_VSA2>
11.66

>  <EState_VSA3>
5.69

>  <EState_VSA4>
0

>  <EState_VSA5>
12.99

>  <EState_VSA6>
18.2

>  <EState_VSA7>
0

>  <EState_VSA8>
5.32

>  <EState_VSA9>
5.11

>  <EState_VSA10>
4.79

>  <VSA_EState1>
0

>  <VSA_EState2>
10.53

>  <VSA_EState3>
11.52

>  <VSA_EState4>
0.61

>  <VSA_EState5>
0.01

>  <VSA_EState6>
6.41

>  <VSA_EState7>
0

>  <VSA_EState8>
1.42

>  <VSA_EState9>
0

>  <apol>
22.07

>  <bpol>
10.47

>  <nRing>
1

>  <nHRing>
0

>  <naRing>
1

>  <naHRing>
0

>  <nARing 2>
0

>  <nAHRing 2>
0

>  <nFRing>
0

>  <nFHRing>
0

>  <nFaRing>
0

>  <nFaHRing>
0

>  <nFARing 2>
0

>  <nFAHRing 2>
0

>  <nRot>
1

>  <SLogP>
1.35

>  <SMR>
42.41

>  <TopoPSA(NO)>
49.33

>  <TopoPSA>
49.33

>  <JGI1>
0.27

>  <JGI2>
0.05

>  <JGI3>
0.07

>  <JGI4>
0.05

>  <JGI5>
0.04

>  <Diameter>
6

>  <Radius>
3

>  <TMWC10>
85.68

>  <TSRW10>
40.36

>  <MW>
151.06

>  <AMW>
7.55

>  <WPath>
162

>  <WPol>
11

>  <Zagreb1>
50

>  <Zagreb2>
53

>  <mZagreb2>
2.5

>  <yes>


>  <nAR-cont>
0.336376

>  <nHA-cont>
0.720786536

>  <MWHBN>
0.325450731

>  <MWHBN-cont>
0.758642971

>  <TPSA-cont>
0.655645968

>  <pka_cont>
0.97

>  <yes.1>


>  <BBB_SCORE>
3.991418929

>  <MMFF94 Energy>
-11.137

$$$$
Compound 842
Actelion Java MolfileCreator 2.0

  0  0  0  0  0  0              0 V3000
M  V30 BEGIN CTAB
M  V30 COUNTS 36 37 0 0 0
M  V30 BEGIN ATOM
M  V30 1 O -0.395 1.9765 2.6096 0
M  V30 2 C -0.1953 2.5188 1.5304 0
M  V30 3 O -0.3038 1.935 0.3078 0
M  V30 4 C 0.197 3.9558 1.3716 0
M  V30 5 C -0.6027 0.5223 0.3131 0
M  V30 6 C -1.5313 0.2762 -0.8667 0
M  V30 7 C 0.7245 -0.3094 0.2235 0
M  V30 8 C -2.7679 -0.3585 -0.6705 0
M  V30 9 C -1.1771 0.6718 -2.1668 0
M  V30 10 N 1.7017 0.1119 1.2566 0
M  V30 11 C 0.4291 -1.8184 0.346 0
M  V30 12 C -3.6222 -0.5994 -1.7482 0
M  V30 13 C -2.0329 0.4302 -3.2426 0
M  V30 14 C 2.9414 -0.6572 1.2001 0
M  V30 15 C 1.7053 -2.6549 0.3246 0
M  V30 16 C -3.2539 -0.2067 -3.0332 0
M  V30 17 C 2.695 -2.152 1.3669 0
M  V30 18 H 1.1537 4.0231 0.8476 0
M  V30 19 H -0.5809 4.4942 0.8245 0
M  V30 20 H 0.31 4.4122 2.3593 0
M  V30 21 H -1.1377 0.2528 1.2336 0
M  V30 22 H 1.1922 -0.1114 -0.75 0
M  V30 23 H -3.0764 -0.6707 0.3251 0
M  V30 24 H -0.2317 1.1803 -2.3458 0
M  V30 25 H 1.2743 0.0245 2.1822 0
M  V30 26 H -0.1134 -2.0162 1.2799 0
M  V30 27 H -0.2165 -2.1515 -0.474 0
M  V30 28 H -4.5773 -1.0918 -1.584 0
M  V30 29 H -1.7477 0.7434 -4.2435 0
M  V30 30 H 3.4548 -0.4603 0.2513 0
M  V30 31 H 3.6107 -0.3075 1.9939 0
M  V30 32 H 1.4661 -3.7076 0.5116 0
M  V30 33 H 2.161 -2.6001 -0.6716 0
M  V30 34 H -3.9209 -0.3927 -3.8708 0
M  V30 35 H 3.6406 -2.6975 1.2737 0
M  V30 36 H 2.3052 -2.3541 2.3725 0
M  V30 END ATOM
M  V30 BEGIN BOND
M  V30 1 2 1 2
M  V30 2 1 2 3
M  V30 3 1 2 4
M  V30 4 1 3 5
M  V30 5 1 5 6
M  V30 6 1 5 7
M  V30 7 2 6 8
M  V30 8 1 6 9
M  V30 9 1 7 10
M  V30 10 1 7 11
M  V30 11 1 8 12
M  V30 12 2 9 13
M  V30 13 1 10 14
M  V30 14 1 11 15
M  V30 15 2 12 16
M  V30 16 1 14 17
M  V30 17 1 13 16
M  V30 18 1 15 17
M  V30 19 1 4 18
M  V30 20 1 4 19
M  V30 21 1 4 20
M  V30 22 1 5 21
M  V30 23 1 7 22
M  V30 24 1 8 23
M  V30 25 1 9 24
M  V30 26 1 10 25
M  V30 27 1 11 26
M  V30 28 1 11 27
M  V30 29 1 12 28
M  V30 30 1 13 29
M  V30 31 1 14 30
M  V30 32 1 14 31
M  V30 33 1 15 32
M  V30 34 1 15 33
M  V30 35 1 16 34
M  V30 36 1 17 35
M  V30 37 1 17 36
M  V30 END BOND
M  V30 END CTAB
M  END
>  <Column 1>
1009

>  <level_0>
1145

>  <index>
1145

>  <Unnamed: 0>
1145

>  <NO.>
1157

>  <Name>
levofacetoperane

>  <IUPAC_name>
[phenyl(piperidin-2-yl)methyl] acetate

>  <SMILES>
CC(=O)OC(c1ccccc1)C1CCCCN1

>  <CID>
558526

>  <logBB>


>  <BBB+/BBB->
BBB+

>  <Inchi>
InChI=1S/C14H19NO2/c1-11(16)17-14(12-7-3-2-4-8-12)13-9-5-6-10-15-13/h2-4-7-8-13-15H-5-6-9-10H2-1H3

>  <threshold>
-1

>  <reference>
R1|R19|R6|R27|R27|R30|

>  <group>
B

>  <Class>
-1

>  <ABC>
12.87

>  <ABCGG>
11.2

>  <nAcid>
0

>  <nBase>
1

>  <nAromAtom>
6

>  <nAromBond>
6

>  <nAtom>
36

>  <nHeavyAtom>
17

>  <nSpiro>
0

>  <nBridgehead>
0

>  <nHetero>
3

>  <nN>
1

>  <nO>
2

>  <nF>
0

>  <BalabanJ>
1.95

>  <BertzCT>
357.74

>  <nBonds>
37

>  <nBondsO>
18

>  <nBondsS>
30

>  <nBondsD>
1

>  <nBondsT>
0

>  <nBondsA>
6

>  <nBondsM>
7

>  <nBondsKS>
33

>  <nBondsKD>
4

>  <RNCG>
0.31

>  <RPCG>
0.21

>  <FCSP3>
0.5

>  <SZ>
21

>  <Sm>
19.42

>  <Sv>
21.33

>  <Sse>
35.76

>  <Sp>
23.21

>  <Si>
40.65

>  <MZ>
0.58

>  <Mm>
0.54

>  <Mv>
0.59

>  <Mse>
0.99

>  <Mp>
0.64

>  <Mi>
1.13

>  <NsCH3>
1

>  <NdCH2>
0

>  <NssCH2>
4

>  <NtCH>
0

>  <NdsCH>
0

>  <NaaCH>
5

>  <NsssCH>
2

>  <NddC>
0

>  <NtsC>
0

>  <NdssC>
1

>  <NaasC>
1

>  <NaaaC>
0

>  <NssssC>
0

>  <NsNH3>
0

>  <NsNH2>
0

>  <NssNH2>
0

>  <NdNH>
0

>  <NssNH>
1

>  <NaaNH>
0

>  <NtN>
0

>  <NsssNH>
0

>  <NdsN>
0

>  <NaaN>
0

>  <NsssN>
0

>  <NddsN>
0

>  <NaasN>
0

>  <NssssN>
0

>  <NsOH>
0

>  <NdO>
1

>  <NssO>
1

>  <NaaO>
0

>  <NsF>
0

>  <NsSiH3>
0

>  <NssSiH2>
0

>  <NsssSiH>
0

>  <NssssSi>
0

>  <NsPH2>
0

>  <NssPH>
0

>  <NsssP>
0

>  <NdsssP>
0

>  <NsssssP>
0

>  <NsSH>
0

>  <NdS>
0

>  <NssS>
0

>  <NaaS>
0

>  <NdssS>
0

>  <NddssS>
0

>  <NsCl>
0

>  <NsBr>
0

>  <NsI>
0

>  <fragCpx>
52.03

>  <fMF>
0.36

>  <nHBAcc>
3

>  <nHBDon>
1

>  <Kier1>
13.43

>  <Kier2>
6.81

>  <Lipinski>
1

>  <GhoseFilter>
1

>  <FilterItLogS>
-2.98

>  <VMcGowan>
190.92

>  <LabuteASA>
102.17

>  <PEOE_VSA1>
10.05

>  <PEOE_VSA2>
4.79

>  <PEOE_VSA3>
0

>  <PEOE_VSA4>
0

>  <PEOE_VSA5>
0

>  <PEOE_VSA6>
36.75

>  <PEOE_VSA7>
24.95

>  <PEOE_VSA8>
12.97

>  <PEOE_VSA9>
0

>  <PEOE_VSA10>
6.1

>  <PEOE_VSA11>
0

>  <PEOE_VSA12>
0

>  <PEOE_VSA13>
0

>  <SMR_VSA1>
9.53

>  <SMR_VSA2>
0

>  <SMR_VSA3>
5.32

>  <SMR_VSA4>
0

>  <SMR_VSA5>
38.33

>  <SMR_VSA6>
6.54

>  <SMR_VSA7>
35.9

>  <SMR_VSA8>
0

>  <SMR_VSA9>
0

>  <SlogP_VSA1>
5.32

>  <SlogP_VSA2>
18.56

>  <SlogP_VSA3>
9.53

>  <SlogP_VSA4>
0

>  <SlogP_VSA5>
37.85

>  <SlogP_VSA6>
30.33

>  <SlogP_VSA7>
0

>  <SlogP_VSA8>
0

>  <SlogP_VSA9>
0

>  <SlogP_VSA10>
0

>  <SlogP_VSA11>
0

>  <EState_VSA1>
0

>  <EState_VSA2>
18.12

>  <EState_VSA3>
0

>  <EState_VSA4>
18.53

>  <EState_VSA5>
19.77

>  <EState_VSA6>
0

>  <EState_VSA7>
30.33

>  <EState_VSA8>
5.32

>  <EState_VSA9>
4.74

>  <EState_VSA10>
4.79

>  <VSA_EState1>
5.47

>  <VSA_EState2>
11.22

>  <VSA_EState3>
3.45

>  <VSA_EState4>
1.07

>  <VSA_EState5>
-0.22

>  <VSA_EState6>
10.22

>  <VSA_EState7>
3.31

>  <VSA_EState8>
2.48

>  <VSA_EState9>
0

>  <apol>
38.75

>  <bpol>
22.23

>  <nRing>
2

>  <nHRing>
1

>  <naRing>
1

>  <naHRing>
0

>  <nARing 2>
1

>  <nAHRing 2>
1

>  <nFRing>
0

>  <nFHRing>
0

>  <nFaRing>
0

>  <nFaHRing>
0

>  <nFARing 2>
0

>  <nFAHRing 2>
0

>  <nRot>
3

>  <SLogP>
2.43

>  <SMR>
66.59

>  <TopoPSA(NO)>
38.33

>  <TopoPSA>
38.33

>  <JGI1>
0.14

>  <JGI2>
0.06

>  <JGI3>
0.04

>  <JGI4>
0.03

>  <JGI5>
0.02

>  <Diameter>
8

>  <Radius>
4

>  <TMWC10>
104.78

>  <TSRW10>
49.11

>  <MW>
233.14

>  <AMW>
6.48

>  <WPath>
510

>  <WPol>
22

>  <Zagreb1>
82

>  <Zagreb2>
92

>  <mZagreb2>
3.89

>  <yes>


>  <nAR-cont>
0.816016

>  <nHA-cont>
0.976740822

>  <MWHBN>
0.261970021

>  <MWHBN-cont>
0.937445892

>  <TPSA-cont>
0.732432798

>  <pka_cont>
0.97

>  <yes.1>


>  <BBB_SCORE>
5.148791257

>  <MMFF94 Energy>
36.97

$$$$
Compound 843
Actelion Java MolfileCreator 2.0

  0  0  0  0  0  0              0 V3000
M  V30 BEGIN CTAB
M  V30 COUNTS 71 72 0 0 0
M  V30 BEGIN ATOM
M  V30 1 O -0.3171 -2.5396 2.5396 0
M  V30 2 C -0.743 -1.5111 2.0174 0
M  V30 3 O -1.2265 -1.5562 0.7553 0
M  V30 4 C -0.7923 -0.193 2.7625 0
M  V30 5 C -1.8913 -0.4417 0.1216 0
M  V30 6 C -1.8281 0.776 2.2152 0
M  V30 7 C 0.5873 0.5307 2.7981 0
M  V30 8 C -1.2664 -0.5074 4.203 0
M  V30 9 C -2.7743 0.261 1.1499 0
M  V30 10 C -2.7027 -1.0121 -1.0596 0
M  V30 11 O -1.9453 1.9108 2.6854 0
M  V30 12 N 1.648 -0.1949 3.494 0
M  V30 13 C 1.1082 0.9923 1.457 0
M  V30 14 C -3.6105 1.3965 0.5645 0
M  V30 15 C -1.8762 -1.8408 -2.0639 0
M  V30 16 C 2.3912 -1.2509 3.0121 0
M  V30 17 C 1.2226 2.247 0.969 0
M  V30 18 O -2.7343 -2.3124 -3.1213 0
M  V30 19 C -0.844 -0.9769 -2.7385 0
M  V30 20 O 2.4034 -1.6779 1.8694 0
M  V30 21 C 3.2765 -1.8922 4.0824 0
M  V30 22 C 1.7299 2.3873 -0.3938 0
M  V30 23 C 0.847 3.5031 1.7099 0
M  V30 24 C -3.4481 -3.4374 -2.8512 0
M  V30 25 C 0.4747 -1.0858 -2.5124 0
M  V30 26 O 3.3142 -1.3913 5.2027 0
M  V30 27 C 4.0448 -3.1117 3.6735 0
M  V30 28 C 1.5815 3.4462 -1.2078 0
M  V30 29 O -3.4567 -4.0392 -1.7875 0
M  V30 30 C -4.2488 -3.8342 -4.0534 0
M  V30 31 C 1.5119 -0.1937 -3.0171 0
M  V30 32 C 1.9641 3.5218 -2.6672 0
M  V30 33 C 1.2744 1.1173 -3.2289 0
M  V30 34 C 2.8716 -0.8343 -3.1168 0
M  V30 35 O 0.86 4.1571 -3.3247 0
M  V30 36 C 2.3083 2.2056 -3.421 0
M  V30 37 H -1.1199 0.237 -0.2584 0
M  V30 38 H 0.4583 1.4116 3.4362 0
M  V30 39 H -2.2593 -0.9743 4.1957 0
M  V30 40 H -1.3385 0.4014 4.8119 0
M  V30 41 H -0.5883 -1.1964 4.7189 0
M  V30 42 H -3.4407 -0.4567 1.6451 0
M  V30 43 H -3.5039 -1.649 -0.663 0
M  V30 44 H -3.2083 -0.2042 -1.6032 0
M  V30 45 H 1.8149 0.0251 4.4744 0
M  V30 46 H 1.3913 0.1742 0.7922 0
M  V30 47 H -2.9831 2.1146 0.0249 0
M  V30 48 H -4.3733 1.0185 -0.1225 0
M  V30 49 H -4.1366 1.9451 1.3539 0
M  V30 50 H -1.3948 -2.6948 -1.571 0
M  V30 51 H -1.2275 -0.2101 -3.4068 0
M  V30 52 H 2.2297 1.502 -0.7825 0
M  V30 53 H -0.0494 3.9541 1.2709 0
M  V30 54 H 1.6633 4.2332 1.6663 0
M  V30 55 H 0.6416 3.3379 2.7694 0
M  V30 56 H 0.8284 -1.8679 -1.8378 0
M  V30 57 H 3.3532 -3.8939 3.3509 0
M  V30 58 H 4.6187 -3.4827 4.5274 0
M  V30 59 H 4.7387 -2.8597 2.8679 0
M  V30 60 H 1.084 4.3409 -0.8399 0
M  V30 61 H -4.971 -3.0496 -4.2928 0
M  V30 62 H -3.5819 -4.0155 -4.9 0
M  V30 63 H -4.7936 -4.7577 -3.8373 0
M  V30 64 H 2.8148 4.2078 -2.7573 0
M  V30 65 H 0.2588 1.5002 -3.1295 0
M  V30 66 H 3.2802 -1.0267 -2.1189 0
M  V30 67 H 2.807 -1.7877 -3.6538 0
M  V30 68 H 3.5882 -0.2183 -3.6676 0
M  V30 69 H 1.1122 4.2835 -4.2546 0
M  V30 70 H 2.376 2.4155 -4.4951 0
M  V30 71 H 3.294 1.8715 -3.0804 0
M  V30 END ATOM
M  V30 BEGIN BOND
M  V30 1 2 1 2
M  V30 2 1 2 3
M  V30 3 1 2 4
M  V30 4 1 3 5
M  V30 5 1 4 6
M  V30 6 1 4 7
M  V30 7 1 4 8
M  V30 8 1 5 9
M  V30 9 1 5 10
M  V30 10 2 6 11
M  V30 11 1 7 12
M  V30 12 1 7 13
M  V30 13 1 9 14
M  V30 14 1 10 15
M  V30 15 1 12 16
M  V30 16 2 13 17
M  V30 17 1 15 18
M  V30 18 1 15 19
M  V30 19 2 16 20
M  V30 20 1 16 21
M  V30 21 1 17 22
M  V30 22 1 17 23
M  V30 23 1 18 24
M  V30 24 2 19 25
M  V30 25 2 21 26
M  V30 26 1 21 27
M  V30 27 2 22 28
M  V30 28 2 24 29
M  V30 29 1 24 30
M  V30 30 1 25 31
M  V30 31 1 28 32
M  V30 32 2 31 33
M  V30 33 1 31 34
M  V30 34 1 32 35
M  V30 35 1 32 36
M  V30 36 1 6 9
M  V30 37 1 33 36
M  V30 38 1 5 37
M  V30 39 1 7 38
M  V30 40 1 8 39
M  V30 41 1 8 40
M  V30 42 1 8 41
M  V30 43 1 9 42
M  V30 44 1 10 43
M  V30 45 1 10 44
M  V30 46 1 12 45
M  V30 47 1 13 46
M  V30 48 1 14 47
M  V30 49 1 14 48
M  V30 50 1 14 49
M  V30 51 1 15 50
M  V30 52 1 19 51
M  V30 53 1 22 52
M  V30 54 1 23 53
M  V30 55 1 23 54
M  V30 56 1 23 55
M  V30 57 1 25 56
M  V30 58 1 27 57
M  V30 59 1 27 58
M  V30 60 1 27 59
M  V30 61 1 28 60
M  V30 62 1 30 61
M  V30 63 1 30 62
M  V30 64 1 30 63
M  V30 65 1 32 64
M  V30 66 1 33 65
M  V30 67 1 34 66
M  V30 68 1 34 67
M  V30 69 1 34 68
M  V30 70 1 35 69
M  V30 71 1 36 70
M  V30 72 1 36 71
M  V30 END BOND
M  V30 END CTAB
M  END
>  <Column 1>
1010

>  <level_0>
1146

>  <index>
1146

>  <Unnamed: 0>
1146

>  <NO.>
1158

>  <Name>
sedecamycin

>  <IUPAC_name>
[(3e-5e-9e-11e)-7-hydroxy-1-4-10-19-tetramethyl-17-18-dioxo-2-(2-oxopropanoylamino)-16-oxabicyclo[13.2.2]nonadeca-3-5-9-11-tetraen-13-yl] acetate

>  <SMILES>
CC(=O)OC1/C=C/C(C)=C/CC(O)/C=C/C(C)=C/C(NC(=O)C(C)=O)C2(C)C(=O)OC(C1)C(C)C2=O

>  <CID>
5382567

>  <logBB>


>  <BBB+/BBB->
BBB-

>  <Inchi>
InChI=1S/C27H35NO8/c1-15-7-10-20(31)11-8-16(2)13-23(28-25(33)18(4)29)27(6)24(32)17(3)22(36-26(27)34)14-21(12-9-15)35-19(5)30/h7-9-11-13-17-20-23-31H-10-14H2-1-6H3-(H-28-33)/b11-8+-12-9+-15-7+-16-13+

>  <threshold>
-1

>  <reference>
R1|R27|R30|

>  <group>
B

>  <Class>
1

>  <ABC>
27.22

>  <ABCGG>
21.28

>  <nAcid>
0

>  <nBase>
0

>  <nAromAtom>
0

>  <nAromBond>
0

>  <nAtom>
71

>  <nHeavyAtom>
36

>  <nSpiro>
0

>  <nBridgehead>
2

>  <nHetero>
9

>  <nN>
1

>  <nO>
8

>  <nF>
0

>  <BalabanJ>
2.38

>  <BertzCT>
1036.37

>  <nBonds>
72

>  <nBondsO>
37

>  <nBondsS>
63

>  <nBondsD>
9

>  <nBondsT>
0

>  <nBondsA>
0

>  <nBondsM>
9

>  <nBondsKS>
63

>  <nBondsKD>
9

>  <RNCG>
0.13

>  <RPCG>
0.09

>  <FCSP3>
0.52

>  <SZ>
44.67

>  <Sm>
41.76

>  <Sv>
42.96

>  <Sse>
71.85

>  <Sp>
45.48

>  <Si>
80.23

>  <MZ>
0.63

>  <Mm>
0.59

>  <Mv>
0.61

>  <Mse>
1.01

>  <Mp>
0.64

>  <Mi>
1.13

>  <NsCH3>
6

>  <NdCH2>
0

>  <NssCH2>
2

>  <NtCH>
0

>  <NdsCH>
6

>  <NaaCH>
0

>  <NsssCH>
5

>  <NddC>
0

>  <NtsC>
0

>  <NdssC>
7

>  <NaasC>
0

>  <NaaaC>
0

>  <NssssC>
1

>  <NsNH3>
0

>  <NsNH2>
0

>  <NssNH2>
0

>  <NdNH>
0

>  <NssNH>
1

>  <NaaNH>
0

>  <NtN>
0

>  <NsssNH>
0

>  <NdsN>
0

>  <NaaN>
0

>  <NsssN>
0

>  <NddsN>
0

>  <NaasN>
0

>  <NssssN>
0

>  <NsOH>
1

>  <NdO>
5

>  <NssO>
2

>  <NaaO>
0

>  <NsF>
0

>  <NsSiH3>
0

>  <NssSiH2>
0

>  <NsssSiH>
0

>  <NssssSi>
0

>  <NsPH2>
0

>  <NssPH>
0

>  <NsssP>
0

>  <NdsssP>
0

>  <NsssssP>
0

>  <NsSH>
0

>  <NdS>
0

>  <NssS>
0

>  <NaaS>
0

>  <NdssS>
0

>  <NddssS>
0

>  <NsCl>
0

>  <NsBr>
0

>  <NsI>
0

>  <fragCpx>
109.09

>  <fMF>
0.27

>  <nHBAcc>
8

>  <nHBDon>
2

>  <Kier1>
32.21

>  <Kier2>
14.4

>  <Lipinski>
0

>  <GhoseFilter>
0

>  <FilterItLogS>
-3.02

>  <VMcGowan>
387.81

>  <LabuteASA>
210.84

>  <PEOE_VSA1>
19.9

>  <PEOE_VSA2>
23.97

>  <PEOE_VSA3>
0

>  <PEOE_VSA4>
0

>  <PEOE_VSA5>
0

>  <PEOE_VSA6>
48.45

>  <PEOE_VSA7>
33.27

>  <PEOE_VSA8>
20.27

>  <PEOE_VSA9>
18.06

>  <PEOE_VSA10>
17.62

>  <PEOE_VSA11>
5.78

>  <PEOE_VSA12>
5.78

>  <PEOE_VSA13>
5.91

>  <SMR_VSA1>
38.55

>  <SMR_VSA2>
0

>  <SMR_VSA3>
5.32

>  <SMR_VSA4>
11.33

>  <SMR_VSA5>
78.74

>  <SMR_VSA6>
0

>  <SMR_VSA7>
47.6

>  <SMR_VSA8>
0

>  <SMR_VSA9>
0

>  <SlogP_VSA1>
5.32

>  <SlogP_VSA2>
58.87

>  <SlogP_VSA3>
33.45

>  <SlogP_VSA4>
11.33

>  <SlogP_VSA5>
54.38

>  <SlogP_VSA6>
47.6

>  <SlogP_VSA7>
0

>  <SlogP_VSA8>
0

>  <SlogP_VSA9>
0

>  <SlogP_VSA10>
0

>  <SlogP_VSA11>
0

>  <EState_VSA1>
65.1

>  <EState_VSA2>
6.42

>  <EState_VSA3>
11.99

>  <EState_VSA4>
12.5

>  <EState_VSA5>
19.92

>  <EState_VSA6>
38.15

>  <EState_VSA7>
13

>  <EState_VSA8>
5.32

>  <EState_VSA9>
9.47

>  <EState_VSA10>
29.08

>  <VSA_EState1>
11.07

>  <VSA_EState2>
62.54

>  <VSA_EState3>
12.82

>  <VSA_EState4>
-0.44

>  <VSA_EState5>
-4.37

>  <VSA_EState6>
-1.18

>  <VSA_EState7>
7.78

>  <VSA_EState8>
8.85

>  <VSA_EState9>
0

>  <apol>
75.94

>  <bpol>
43.49

>  <nRing>
3

>  <nHRing>
2

>  <naRing>
0

>  <naHRing>
0

>  <nARing 2>
3

>  <nAHRing 2>
2

>  <nFRing>
1

>  <nFHRing>
1

>  <nFaRing>
0

>  <nFaHRing>
0

>  <nFARing 2>
1

>  <nFAHRing 2>
1

>  <nRot>
3

>  <SLogP>
2.29

>  <SMR>
131.36

>  <TopoPSA(NO)>
136.07

>  <TopoPSA>
136.07

>  <JGI1>
0.3

>  <JGI2>
0.1

>  <JGI3>
0.06

>  <JGI4>
0.05

>  <JGI5>
0.03

>  <Diameter>
13

>  <Radius>
8

>  <TMWC10>
151.28

>  <TSRW10>
72.39

>  <MW>
501.24

>  <AMW>
7.06

>  <WPath>
3691

>  <WPol>
62

>  <Zagreb1>
180

>  <Zagreb2>
208

>  <mZagreb2>
7.92

>  <yes>


>  <nAR-cont>
0.691115

>  <nHA-cont>
0.477843619

>  <MWHBN>
0.44666008

>  <MWHBN-cont>
0.297933908

>  <TPSA-cont>
0

>  <pka_cont>
0.97

>  <yes.1>


>  <BBB_SCORE>
2.100859481

>  <MMFF94 Energy>
10.733

$$$$
Compound 844
Actelion Java MolfileCreator 2.0

  0  0  0  0  0  0              0 V3000
M  V30 BEGIN CTAB
M  V30 COUNTS 62 65 0 0 0
M  V30 BEGIN ATOM
M  V30 1 F 0.0812 1.5444 -1.9512 0
M  V30 2 C 1.1852 0.9668 -1.3591 0
M  V30 3 C 2.4447 1.4714 -2.1814 0
M  V30 4 C 1.0024 -0.5874 -1.3858 0
M  V30 5 C 1.1543 1.4825 0.1063 0
M  V30 6 C 2.5968 2.9875 -1.9932 0
M  V30 7 C 2.2948 1.125 -3.6629 0
M  V30 8 C 3.759 0.7932 -1.7204 0
M  V30 9 O 0.2566 -1.0053 -2.5297 0
M  V30 10 C 0.3795 -1.1802 -0.1109 0
M  V30 11 C -0.2097 1.1377 0.7668 0
M  V30 12 C 1.3701 3.0087 0.1748 0
M  V30 13 C 2.6714 3.865 -3.0112 0
M  V30 14 C 2.6137 3.4584 -0.5683 0
M  V30 15 C 2.3645 2.0016 -4.6736 0
M  V30 16 C -0.7263 -0.327 0.5448 0
M  V30 17 C -0.2062 1.3606 2.2832 0
M  V30 18 C 2.5948 3.4349 -4.4203 0
M  V30 19 F 3.7062 2.9769 0.0822 0
M  V30 20 F 2.6996 4.8131 -0.4788 0
M  V30 21 C -1.133 -0.8356 1.9941 0
M  V30 22 C -1.9623 -0.2731 -0.3871 0
M  V30 23 C -1.3542 0.4848 2.7752 0
M  V30 24 O 2.7105 4.2355 -5.3387 0
M  V30 25 O -0.0396 -1.5068 2.6296 0
M  V30 26 C -2.425 -1.7049 2.0429 0
M  V30 27 C -1.3494 0.3517 4.2952 0
M  V30 28 O -3.5382 -1.2142 2.2463 0
M  V30 29 C -2.2481 -3.1959 1.7819 0
M  V30 30 O -3.5027 -3.8648 1.6783 0
M  V30 31 C -3.3962 -5.1662 1.3039 0
M  V30 32 O -2.3435 -5.7385 1.0569 0
M  V30 33 C -4.7509 -5.7999 1.2315 0
M  V30 34 H 1.977 -1.0738 -1.4817 0
M  V30 35 H 1.9622 0.9996 0.6713 0
M  V30 36 H 2.1207 0.0818 -3.9196 0
M  V30 37 H 3.8426 0.7435 -0.6305 0
M  V30 38 H 4.6388 1.3346 -2.0919 0
M  V30 39 H 3.8514 -0.2333 -2.0936 0
M  V30 40 H 0.2006 -1.9761 -2.5331 0
M  V30 41 H 1.2089 -1.2951 0.5984 0
M  V30 42 H 6.0E-4 -2.1888 -0.3127 0
M  V30 43 H -0.962 1.8272 0.3549 0
M  V30 44 H 1.4609 3.3217 1.2218 0
M  V30 45 H 0.4976 3.5384 -0.2298 0
M  V30 46 H 2.7766 4.9345 -2.8587 0
M  V30 47 H 2.2556 1.7058 -5.7101 0
M  V30 48 H -0.3682 2.4128 2.5404 0
M  V30 49 H 0.7481 1.0505 2.726 0
M  V30 50 H -1.7439 0.2228 -1.3363 0
M  V30 51 H -2.7869 0.2836 0.0718 0
M  V30 52 H -2.3242 -1.2783 -0.628 0
M  V30 53 H -2.3022 0.9518 2.475 0
M  V30 54 H 0.1936 -2.3158 2.1465 0
M  V30 55 H -1.5241 1.3273 4.7616 0
M  V30 56 H -0.3941 -0.0261 4.6737 0
M  V30 57 H -2.1403 -0.3261 4.6312 0
M  V30 58 H -1.694 -3.3088 0.8451 0
M  V30 59 H -1.6857 -3.6221 2.6194 0
M  V30 60 H -5.2321 -5.7595 2.212 0
M  V30 61 H -5.3599 -5.288 0.4821 0
M  V30 62 H -4.645 -6.8484 0.9387 0
M  V30 END ATOM
M  V30 BEGIN BOND
M  V30 1 1 1 2
M  V30 2 1 2 3
M  V30 3 1 2 4
M  V30 4 1 2 5
M  V30 5 1 3 6
M  V30 6 1 3 7
M  V30 7 1 3 8
M  V30 8 1 4 9
M  V30 9 1 4 10
M  V30 10 1 5 11
M  V30 11 1 5 12
M  V30 12 2 6 13
M  V30 13 1 6 14
M  V30 14 2 7 15
M  V30 15 1 10 16
M  V30 16 1 11 17
M  V30 17 1 13 18
M  V30 18 1 14 19
M  V30 19 1 14 20
M  V30 20 1 16 21
M  V30 21 1 16 22
M  V30 22 1 17 23
M  V30 23 2 18 24
M  V30 24 1 21 25
M  V30 25 1 21 26
M  V30 26 1 23 27
M  V30 27 2 26 28
M  V30 28 1 26 29
M  V30 29 1 29 30
M  V30 30 1 30 31
M  V30 31 2 31 32
M  V30 32 1 31 33
M  V30 33 1 11 16
M  V30 34 1 12 14
M  V30 35 1 15 18
M  V30 36 1 21 23
M  V30 37 1 4 34
M  V30 38 1 5 35
M  V30 39 1 7 36
M  V30 40 1 8 37
M  V30 41 1 8 38
M  V30 42 1 8 39
M  V30 43 1 9 40
M  V30 44 1 10 41
M  V30 45 1 10 42
M  V30 46 1 11 43
M  V30 47 1 12 44
M  V30 48 1 12 45
M  V30 49 1 13 46
M  V30 50 1 15 47
M  V30 51 1 17 48
M  V30 52 1 17 49
M  V30 53 1 22 50
M  V30 54 1 22 51
M  V30 55 1 22 52
M  V30 56 1 23 53
M  V30 57 1 25 54
M  V30 58 1 27 55
M  V30 59 1 27 56
M  V30 60 1 27 57
M  V30 61 1 29 58
M  V30 62 1 29 59
M  V30 63 1 33 60
M  V30 64 1 33 61
M  V30 65 1 33 62
M  V30 END BOND
M  V30 END CTAB
M  END
>  <Column 1>
1012

>  <level_0>
1148

>  <index>
1148

>  <Unnamed: 0>
1148

>  <NO.>
1160

>  <Name>
cormethasoneacetate (cormetasone-acetate)

>  <IUPAC_name>
[2-oxo-2-(6-6-9-trifluoro-11-17-dihydroxy-10-13-16-trimethyl-3-oxo-8-11-12-14-15-16-hexahydro-7h-cyclopenta[a]phenanthren-17-yl)ethyl] acetate

>  <SMILES>
CC(=O)OCC(=O)C1(O)C(C)CC2C3CC(F)(F)C4=CC(=O)C=CC4(C)C3(F)C(O)CC21C

>  <CID>
71437196

>  <logBB>


>  <BBB+/BBB->
BBB+

>  <Inchi>
InChI=1S/C24H29F3O6/c1-12-7-15-16-9-22(25-26)17-8-14(29)5-6-20(17-3)23(16-27)18(30)10-21(15-4)24(12-32)19(31)11-33-13(2)28/h5-6-8-12-15-16-18-30-32H-7-9-11H2-1-4H3

>  <threshold>
-1

>  <reference>
R1|R19|R27|R30|

>  <group>
B

>  <Class>
1

>  <ABC>
26.4

>  <ABCGG>
22.09

>  <nAcid>
0

>  <nBase>
0

>  <nAromAtom>
0

>  <nAromBond>
0

>  <nAtom>
62

>  <nHeavyAtom>
33

>  <nSpiro>
0

>  <nBridgehead>
0

>  <nHetero>
9

>  <nN>
0

>  <nO>
6

>  <nF>
3

>  <BalabanJ>
1.77

>  <BertzCT>
990.68

>  <nBonds>
65

>  <nBondsO>
36

>  <nBondsS>
60

>  <nBondsD>
5

>  <nBondsT>
0

>  <nBondsA>
0

>  <nBondsM>
5

>  <nBondsKS>
60

>  <nBondsKD>
5

>  <RNCG>
0.15

>  <RPCG>
0.1

>  <FCSP3>
0.71

>  <SZ>
41.33

>  <Sm>
39.17

>  <Sv>
38.08

>  <Sse>
63.73

>  <Sp>
39.46

>  <Si>
70.92

>  <MZ>
0.67

>  <Mm>
0.63

>  <Mv>
0.61

>  <Mse>
1.03

>  <Mp>
0.64

>  <Mi>
1.14

>  <NsCH3>
4

>  <NdCH2>
0

>  <NssCH2>
4

>  <NtCH>
0

>  <NdsCH>
3

>  <NaaCH>
0

>  <NsssCH>
4

>  <NddC>
0

>  <NtsC>
0

>  <NdssC>
4

>  <NaasC>
0

>  <NaaaC>
0

>  <NssssC>
5

>  <NsNH3>
0

>  <NsNH2>
0

>  <NssNH2>
0

>  <NdNH>
0

>  <NssNH>
0

>  <NaaNH>
0

>  <NtN>
0

>  <NsssNH>
0

>  <NdsN>
0

>  <NaaN>
0

>  <NsssN>
0

>  <NddsN>
0

>  <NaasN>
0

>  <NssssN>
0

>  <NsOH>
2

>  <NdO>
3

>  <NssO>
1

>  <NaaO>
0

>  <NsF>
3

>  <NsSiH3>
0

>  <NssSiH2>
0

>  <NsssSiH>
0

>  <NssssSi>
0

>  <NsPH2>
0

>  <NssPH>
0

>  <NsssP>
0

>  <NdsssP>
0

>  <NsssssP>
0

>  <NsSH>
0

>  <NdS>
0

>  <NssS>
0

>  <NaaS>
0

>  <NdssS>
0

>  <NddssS>
0

>  <NsCl>
0

>  <NsBr>
0

>  <NsI>
0

>  <fragCpx>
240.09

>  <fMF>
0.27

>  <nHBAcc>
6

>  <nHBDon>
2

>  <Kier1>
26.07

>  <Kier2>
8

>  <Lipinski>
1

>  <GhoseFilter>
1

>  <FilterItLogS>
-3.92

>  <VMcGowan>
324.58

>  <LabuteASA>
189.41

>  <PEOE_VSA1>
14.95

>  <PEOE_VSA2>
14.38

>  <PEOE_VSA3>
13.17

>  <PEOE_VSA4>
0

>  <PEOE_VSA5>
0

>  <PEOE_VSA6>
19.92

>  <PEOE_VSA7>
43.75

>  <PEOE_VSA8>
30.25

>  <PEOE_VSA9>
11.52

>  <PEOE_VSA10>
5.6

>  <PEOE_VSA11>
18.06

>  <PEOE_VSA12>
5.78

>  <PEOE_VSA13>
5.92

>  <SMR_VSA1>
42.5

>  <SMR_VSA2>
0

>  <SMR_VSA3>
0

>  <SMR_VSA4>
28.58

>  <SMR_VSA5>
70.25

>  <SMR_VSA6>
6.61

>  <SMR_VSA7>
23.8

>  <SMR_VSA8>
0

>  <SMR_VSA9>
0

>  <SlogP_VSA1>
0

>  <SlogP_VSA2>
57.65

>  <SlogP_VSA3>
19.12

>  <SlogP_VSA4>
28.58

>  <SlogP_VSA5>
46.96

>  <SlogP_VSA6>
23.8

>  <SlogP_VSA7>
0

>  <SlogP_VSA8>
0

>  <SlogP_VSA9>
0

>  <SlogP_VSA10>
13.17

>  <SlogP_VSA11>
0

>  <EState_VSA1>
88.02

>  <EState_VSA2>
12.84

>  <EState_VSA3>
0

>  <EState_VSA4>
25.15

>  <EState_VSA5>
13.85

>  <EState_VSA6>
6.92

>  <EState_VSA7>
0

>  <EState_VSA8>
0

>  <EState_VSA9>
4.74

>  <EState_VSA10>
24.6

>  <VSA_EState1>
52.56

>  <VSA_EState2>
36.08

>  <VSA_EState3>
22.78

>  <VSA_EState4>
-8.65

>  <VSA_EState5>
-8.69

>  <VSA_EState6>
0

>  <VSA_EState7>
-0.1

>  <VSA_EState8>
4.77

>  <VSA_EState9>
0

>  <apol>
65.9

>  <bpol>
36.77

>  <nRing>
4

>  <nHRing>
0

>  <naRing>
0

>  <naHRing>
0

>  <nARing 2>
4

>  <nAHRing 2>
0

>  <nFRing>
1

>  <nFHRing>
0

>  <nFaRing>
0

>  <nFaHRing>
0

>  <nFARing 2>
1

>  <nFAHRing 2>
0

>  <nRot>
3

>  <SLogP>
2.71

>  <SMR>
109.82

>  <TopoPSA(NO)>
100.9

>  <TopoPSA>
100.9

>  <JGI1>
0.36

>  <JGI2>
0.15

>  <JGI3>
0.09

>  <JGI4>
0.06

>  <JGI5>
0.04

>  <Diameter>
14

>  <Radius>
7

>  <TMWC10>
151.98

>  <TSRW10>
85.78

>  <MW>
470.19

>  <AMW>
7.58

>  <WPath>
2679

>  <WPol>
79

>  <Zagreb1>
196

>  <Zagreb2>
253

>  <mZagreb2>
6.69

>  <yes>


>  <nAR-cont>
0.199399

>  <nHA-cont>
0.61399562

>  <MWHBN>
0.368937918

>  <MWHBN-cont>
0.597988007

>  <TPSA-cont>
0.295655345

>  <pka_cont>
0.97

>  <yes.1>


>  <BBB_SCORE>
2.78668732

>  <MMFF94 Energy>
148.89

$$$$
Compound 845
Actelion Java MolfileCreator 2.0

  0  0  0  0  0  0              0 V3000
M  V30 BEGIN CTAB
M  V30 COUNTS 63 67 0 0 0
M  V30 BEGIN ATOM
M  V30 1 F 0.0811 1.8681 1.6242 0
M  V30 2 C -1.0311 1.1044 1.3222 0 CFG=2
M  V30 3 C -2.2059 1.6656 2.2298 0
M  V30 4 C -0.6133 -0.3608 1.608 0
M  V30 5 C -1.3128 1.3161 -0.1957 0
M  V30 6 C -2.4722 3.1231 1.8073 0
M  V30 7 C -1.8281 1.5916 3.71 0
M  V30 8 C -3.5367 0.8895 2.0963 0
M  V30 9 O -1.7018 -1.2725 1.5214 0
M  V30 10 C 0.5227 -0.8241 0.6829 0
M  V30 11 C -0.1973 0.7872 -1.133 0
M  V30 12 C -1.6169 2.7952 -0.5051 0
M  V30 13 C -2.4098 4.1691 2.6505 0
M  V30 14 C -2.7604 3.3397 0.3439 0
M  V30 15 C -1.7659 2.6372 4.5452 0
M  V30 16 C 0.2473 -0.6673 -0.8409 0
M  V30 17 C 1.1224 1.5815 -1.1308 0
M  V30 18 C -2.0682 4.0026 4.0776 0
M  V30 19 C 1.5636 -0.7823 -1.6812 0
M  V30 20 C -0.8223 -1.6771 -1.3036 0
M  V30 21 C 2.1853 0.6201 -1.6701 0
M  V30 22 O -2.037 4.9594 4.8414 0
M  V30 23 N 1.2844 -1.0374 -3.1214 0
M  V30 24 C 2.5448 -1.8566 -1.185 0
M  V30 25 O 2.4533 0.9186 -3.0376 0
M  V30 26 C 1.8436 -0.0509 -3.7418 0
M  V30 27 O 3.3592 -1.6193 -0.2867 0
M  V30 28 C 2.4546 -3.2412 -1.8303 0
M  V30 29 C 1.8725 0.1269 -5.2153 0
M  V30 30 O 3.1822 -4.2363 -1.1069 0
M  V30 31 C 2.575 -4.6508 0.038 0
M  V30 32 O 1.4678 -4.2967 0.4209 0
M  V30 33 C 3.4534 -5.6225 0.7637 0
M  V30 34 H -0.2281 -0.4257 2.6319 0
M  V30 35 H -2.2159 0.7462 -0.4485 0
M  V30 36 H -1.6192 0.6063 4.1207 0
M  V30 37 H -4.3658 1.4458 2.5542 0
M  V30 38 H -3.5063 -0.0794 2.606 0
M  V30 39 H -3.8158 0.7039 1.0552 0
M  V30 40 H -1.3529 -2.1673 1.6934 0
M  V30 41 H 1.4217 -0.2593 0.9599 0
M  V30 42 H 0.7409 -1.8752 0.9006 0
M  V30 43 H -0.5944 0.8322 -2.1585 0
M  V30 44 H -1.876 2.9063 -1.5651 0
M  V30 45 H -0.7254 3.4108 -0.3314 0
M  V30 46 H -2.5865 5.191 2.3349 0
M  V30 47 H -2.895 4.4044 0.1171 0
M  V30 48 H -3.7013 2.8477 0.0722 0
M  V30 49 H -1.505 2.5334 5.5912 0
M  V30 50 H 1.0397 2.4885 -1.7392 0
M  V30 51 H 1.4077 1.8842 -0.1207 0
M  V30 52 H -1.7999 -1.4852 -0.8551 0
M  V30 53 H -0.9861 -1.6375 -2.3853 0
M  V30 54 H -0.5368 -2.7013 -1.0459 0
M  V30 55 H 3.1195 0.7124 -1.1083 0
M  V30 56 H 1.4125 -3.5506 -1.9524 0
M  V30 57 H 2.9079 -3.1773 -2.8246 0
M  V30 58 H 2.909 0.187 -5.5569 0
M  V30 59 H 1.3852 -0.7194 -5.7067 0
M  V30 60 H 1.3443 1.0458 -5.4824 0
M  V30 61 H 3.6106 -6.5113 0.1479 0
M  V30 62 H 4.4075 -5.1486 1.0078 0
M  V30 63 H 2.9673 -5.9236 1.6962 0
M  V30 END ATOM
M  V30 BEGIN BOND
M  V30 1 1 1 2
M  V30 2 1 2 3
M  V30 3 1 2 4
M  V30 4 1 2 5
M  V30 5 1 3 6
M  V30 6 1 3 7
M  V30 7 1 3 8
M  V30 8 1 4 9
M  V30 9 1 4 10
M  V30 10 1 5 11
M  V30 11 1 5 12
M  V30 12 2 6 13
M  V30 13 1 6 14
M  V30 14 2 7 15
M  V30 15 1 10 16
M  V30 16 1 11 17
M  V30 17 1 13 18
M  V30 18 1 16 19
M  V30 19 1 16 20
M  V30 20 1 17 21
M  V30 21 2 18 22
M  V30 22 1 19 23
M  V30 23 1 19 24
M  V30 24 1 21 25
M  V30 25 2 23 26
M  V30 26 2 24 27
M  V30 27 1 24 28
M  V30 28 1 26 29
M  V30 29 1 28 30
M  V30 30 1 30 31
M  V30 31 2 31 32
M  V30 32 1 31 33
M  V30 33 1 11 16
M  V30 34 1 12 14
M  V30 35 1 15 18
M  V30 36 1 19 21
M  V30 37 1 25 26
M  V30 38 1 4 34
M  V30 39 1 5 35
M  V30 40 1 7 36
M  V30 41 1 8 37
M  V30 42 1 8 38
M  V30 43 1 8 39
M  V30 44 1 9 40
M  V30 45 1 10 41
M  V30 46 1 10 42
M  V30 47 1 11 43
M  V30 48 1 12 44
M  V30 49 1 12 45
M  V30 50 1 13 46
M  V30 51 1 14 47
M  V30 52 1 14 48
M  V30 53 1 15 49
M  V30 54 1 17 50
M  V30 55 1 17 51
M  V30 56 1 20 52
M  V30 57 1 20 53
M  V30 58 1 20 54
M  V30 59 1 21 55
M  V30 60 1 28 56
M  V30 61 1 28 57
M  V30 62 1 29 58
M  V30 63 1 29 59
M  V30 64 1 29 60
M  V30 65 1 33 61
M  V30 66 1 33 62
M  V30 67 1 33 63
M  V30 END BOND
M  V30 BEGIN COLLECTION
M  V30 MDLV30/STEABS ATOMS=(1 2)
M  V30 END COLLECTION
M  V30 END CTAB
M  END
>  <Column 1>
1013

>  <level_0>
1149

>  <index>
1149

>  <Unnamed: 0>
1149

>  <NO.>
1161

>  <Name>
fluazacort

>  <IUPAC_name>
[2-[(12r)-12-fluoro-11-hydroxy-6-9-13-trimethyl-16-oxo-5-oxa-7-azapentacyclo[10.8.0.02-9.04-8.013-18]icosa-6-14-17-trien-8-yl]-2-oxoethyl] acetate

>  <SMILES>
CC(=O)OCC(=O)C12N=C(C)OC1CC1C3CCC4=CC(=O)C=CC4(C)[C@@]3(F)C(O)CC12C

>  <CID>
29845

>  <logBB>


>  <BBB+/BBB->
BBB+

>  <Inchi>
InChI=1S/C25H30FNO6/c1-13-27-25(20(31)12-32-14(2)28)21(33-13)10-18-17-6-5-15-9-16(29)7-8-22(15-3)24(17-26)19(30)11-23(18-25)4/h7-9-17-19-21-30H-5-6-10-12H2-1-4H3/t17?-18?-19?-21?-22?-23?-24--25?/m0/s1

>  <threshold>
-1

>  <reference>
R1|R27|R30|

>  <group>
B

>  <Class>
1

>  <ABC>
26.7

>  <ABCGG>
21.54

>  <nAcid>
0

>  <nBase>
0

>  <nAromAtom>
0

>  <nAromBond>
0

>  <nAtom>
63

>  <nHeavyAtom>
33

>  <nSpiro>
0

>  <nBridgehead>
0

>  <nHetero>
8

>  <nN>
1

>  <nO>
6

>  <nF>
1

>  <BalabanJ>
1.53

>  <BertzCT>
1049.5

>  <nBonds>
67

>  <nBondsO>
37

>  <nBondsS>
61

>  <nBondsD>
6

>  <nBondsT>
0

>  <nBondsA>
0

>  <nBondsM>
6

>  <nBondsKS>
61

>  <nBondsKD>
6

>  <RNCG>
0.16

>  <RPCG>
0.1

>  <FCSP3>
0.68

>  <SZ>
40.67

>  <Sm>
38.26

>  <Sv>
38.82

>  <Sse>
63.92

>  <Sp>
40.85

>  <Si>
71.32

>  <MZ>
0.65

>  <Mm>
0.61

>  <Mv>
0.62

>  <Mse>
1.01

>  <Mp>
0.65

>  <Mi>
1.13

>  <NsCH3>
4

>  <NdCH2>
0

>  <NssCH2>
5

>  <NtCH>
0

>  <NdsCH>
3

>  <NaaCH>
0

>  <NsssCH>
4

>  <NddC>
0

>  <NtsC>
0

>  <NdssC>
5

>  <NaasC>
0

>  <NaaaC>
0

>  <NssssC>
4

>  <NsNH3>
0

>  <NsNH2>
0

>  <NssNH2>
0

>  <NdNH>
0

>  <NssNH>
0

>  <NaaNH>
0

>  <NtN>
0

>  <NsssNH>
0

>  <NdsN>
1

>  <NaaN>
0

>  <NsssN>
0

>  <NddsN>
0

>  <NaasN>
0

>  <NssssN>
0

>  <NsOH>
1

>  <NdO>
3

>  <NssO>
2

>  <NaaO>
0

>  <NsF>
1

>  <NsSiH3>
0

>  <NssSiH2>
0

>  <NsssSiH>
0

>  <NssssSi>
0

>  <NsPH2>
0

>  <NssPH>
0

>  <NsssP>
0

>  <NdsssP>
0

>  <NsssssP>
0

>  <NsSH>
0

>  <NdS>
0

>  <NssS>
0

>  <NaaS>
0

>  <NdssS>
0

>  <NddssS>
0

>  <NsCl>
0

>  <NsBr>
0

>  <NsI>
0

>  <fragCpx>
313.08

>  <fMF>
0.32

>  <nHBAcc>
7

>  <nHBDon>
1

>  <Kier1>
24.68

>  <Kier2>
8

>  <Lipinski>
1

>  <GhoseFilter>
1

>  <FilterItLogS>
-4.01

>  <VMcGowan>
329.97

>  <LabuteASA>
191.66

>  <PEOE_VSA1>
14.58

>  <PEOE_VSA2>
14.38

>  <PEOE_VSA3>
9.38

>  <PEOE_VSA4>
0

>  <PEOE_VSA5>
0

>  <PEOE_VSA6>
18.57

>  <PEOE_VSA7>
50.68

>  <PEOE_VSA8>
30.6

>  <PEOE_VSA9>
6.1

>  <PEOE_VSA10>
6.1

>  <PEOE_VSA11>
29.5

>  <PEOE_VSA12>
5.78

>  <PEOE_VSA13>
0

>  <SMR_VSA1>
33.35

>  <SMR_VSA2>
0

>  <SMR_VSA3>
0

>  <SMR_VSA4>
27.66

>  <SMR_VSA5>
76.79

>  <SMR_VSA6>
6.61

>  <SMR_VSA7>
23.8

>  <SMR_VSA8>
0

>  <SMR_VSA9>
0

>  <SlogP_VSA1>
0

>  <SlogP_VSA2>
58.56

>  <SlogP_VSA3>
23.86

>  <SlogP_VSA4>
22.67

>  <SlogP_VSA5>
53.38

>  <SlogP_VSA6>
28.79

>  <SlogP_VSA7>
0

>  <SlogP_VSA8>
0

>  <SlogP_VSA9>
0

>  <SlogP_VSA10>
4.39

>  <SlogP_VSA11>
0

>  <EState_VSA1>
52.74

>  <EState_VSA2>
23.91

>  <EState_VSA3>
30.73

>  <EState_VSA4>
0

>  <EState_VSA5>
19.08

>  <EState_VSA6>
19.92

>  <EState_VSA7>
6.92

>  <EState_VSA8>
4.99

>  <EState_VSA9>
9.47

>  <EState_VSA10>
19.49

>  <VSA_EState1>
28.23

>  <VSA_EState2>
41.57

>  <VSA_EState3>
11.44

>  <VSA_EState4>
-4.6

>  <VSA_EState5>
-1.57

>  <VSA_EState6>
0

>  <VSA_EState7>
3.97

>  <VSA_EState8>
6.13

>  <VSA_EState9>
0

>  <apol>
68.22

>  <bpol>
38.43

>  <nRing>
5

>  <nHRing>
1

>  <naRing>
0

>  <naHRing>
0

>  <nARing 2>
5

>  <nAHRing 2>
1

>  <nFRing>
1

>  <nFHRing>
1

>  <nFaRing>
0

>  <nFaHRing>
0

>  <nFARing 2>
1

>  <nFAHRing 2>
1

>  <nRot>
3

>  <SLogP>
2.66

>  <SMR>
116.09

>  <TopoPSA(NO)>
102.26

>  <TopoPSA>
102.26

>  <JGI1>
0.31

>  <JGI2>
0.14

>  <JGI3>
0.08

>  <JGI4>
0.06

>  <JGI5>
0.04

>  <Diameter>
14

>  <Radius>
7

>  <TMWC10>
153.13

>  <TSRW10>
87.56

>  <MW>
459.21

>  <AMW>
7.29

>  <WPath>
2708

>  <WPol>
77

>  <Zagreb1>
198

>  <Zagreb2>
257

>  <mZagreb2>
6.78

>  <yes>


>  <nAR-cont>
0

>  <nHA-cont>
0.61399562

>  <MWHBN>
0.373322632

>  <MWHBN-cont>
0.580932036

>  <TPSA-cont>
0.2861617

>  <pka_cont>
0.97

>  <yes.1>


>  <BBB_SCORE>
2.542717075

>  <MMFF94 Energy>
141.71

$$$$
Compound 846
Actelion Java MolfileCreator 2.0

  0  0  0  0  0  0              0 V3000
M  V30 BEGIN CTAB
M  V30 COUNTS 58 61 0 0 0
M  V30 BEGIN ATOM
M  V30 1 Cl 0.986 2.2196 1.8083 0
M  V30 2 C -0.3916 1.8281 0.6463 0 CFG=2
M  V30 3 C -1.376 3.1076 0.602 0
M  V30 4 C -1.0393 0.4617 1.112 0
M  V30 5 C 0.236 1.6024 -0.8022 0
M  V30 6 C -0.62 4.2924 -0.0497 0
M  V30 7 C -1.9278 3.5313 1.9662 0
M  V30 8 C -2.6426 2.8238 -0.2463 0
M  V30 9 Cl -1.6276 0.4255 2.8131 0
M  V30 10 C -0.1211 -0.7803 0.9538 0
M  V30 11 C 1.158 0.3721 -0.8307 0
M  V30 12 C 0.9405 2.8524 -1.3566 0
M  V30 13 C -0.4429 5.4874 0.544 0
M  V30 14 C -0.0026 4.0471 -1.4009 0
M  V30 15 C -1.7466 4.7237 2.5503 0
M  V30 16 C 0.4251 -0.943 -0.4742 0
M  V30 17 C 1.8784 0.0293 -2.1307 0
M  V30 18 C -0.9762 5.787 1.8862 0
M  V30 19 C 1.595 -1.9634 -0.6716 0 CFG=1
M  V30 20 C -0.7484 -1.2829 -1.4349 0
M  V30 21 C 2.303 -1.4413 -1.9568 0
M  V30 22 O -0.8032 6.8783 2.413 0
M  V30 23 O 2.5176 -1.8486 0.414 0
M  V30 24 C 1.14 -3.4361 -0.809 0
M  V30 25 O 0.9066 -3.9385 -1.9115 0
M  V30 26 C 0.9762 -4.2255 0.4872 0
M  V30 27 O 0.4133 -5.5109 0.2164 0
M  V30 28 C 0.2827 -6.2978 1.3156 0
M  V30 29 O 0.5982 -5.9772 2.4523 0
M  V30 30 C -0.3075 -7.6212 0.9372 0
M  V30 31 H -1.9402 0.288 0.518 0
M  V30 32 H -0.5859 1.4018 -1.4973 0
M  V30 33 H -2.5635 2.8323 2.5008 0
M  V30 34 H -2.4143 2.4703 -1.2552 0
M  V30 35 H -3.2849 2.0689 0.2218 0
M  V30 36 H -3.253 3.7295 -0.3621 0
M  V30 37 H 0.705 -0.7131 1.6724 0
M  V30 38 H -0.6876 -1.6788 1.2283 0
M  V30 39 H 1.9565 0.5486 -0.0959 0
M  V30 40 H 1.2931 2.6644 -2.3775 0
M  V30 41 H 1.8309 3.0947 -0.7644 0
M  V30 42 H 0.1107 6.2979 0.083 0
M  V30 43 H -0.7927 3.8768 -2.1413 0
M  V30 44 H 0.5562 4.9231 -1.7527 0
M  V30 45 H -2.1714 4.9688 3.5165 0
M  V30 46 H 1.2176 0.1367 -2.9983 0
M  V30 47 H 2.7491 0.6718 -2.2983 0
M  V30 48 H -1.5129 -0.5033 -1.4726 0
M  V30 49 H -1.2574 -2.1982 -1.1107 0
M  V30 50 H -0.4156 -1.446 -2.4646 0
M  V30 51 H 2.0218 -1.9959 -2.858 0
M  V30 52 H 3.3939 -1.5027 -1.8688 0
M  V30 53 H 3.3744 -2.2239 0.1407 0
M  V30 54 H 1.9672 -4.3481 0.9371 0
M  V30 55 H 0.3087 -3.6764 1.1553 0
M  V30 56 H -1.3013 -7.4743 0.5069 0
M  V30 57 H 0.3486 -8.1301 0.2269 0
M  V30 58 H -0.4032 -8.244 1.8313 0
M  V30 END ATOM
M  V30 BEGIN BOND
M  V30 1 1 1 2
M  V30 2 1 2 3
M  V30 3 1 2 4
M  V30 4 1 2 5
M  V30 5 1 3 6
M  V30 6 1 3 7
M  V30 7 1 3 8
M  V30 8 1 4 9
M  V30 9 1 4 10
M  V30 10 1 5 11
M  V30 11 1 5 12
M  V30 12 2 6 13
M  V30 13 1 6 14
M  V30 14 2 7 15
M  V30 15 1 10 16
M  V30 16 1 11 17
M  V30 17 1 13 18
M  V30 18 1 16 19
M  V30 19 1 16 20
M  V30 20 1 17 21
M  V30 21 2 18 22
M  V30 22 1 19 23
M  V30 23 1 19 24
M  V30 24 2 24 25
M  V30 25 1 24 26
M  V30 26 1 26 27
M  V30 27 1 27 28
M  V30 28 2 28 29
M  V30 29 1 28 30
M  V30 30 1 11 16
M  V30 31 1 12 14
M  V30 32 1 15 18
M  V30 33 1 19 21
M  V30 34 1 4 31
M  V30 35 1 5 32
M  V30 36 1 7 33
M  V30 37 1 8 34
M  V30 38 1 8 35
M  V30 39 1 8 36
M  V30 40 1 10 37
M  V30 41 1 10 38
M  V30 42 1 11 39
M  V30 43 1 12 40
M  V30 44 1 12 41
M  V30 45 1 13 42
M  V30 46 1 14 43
M  V30 47 1 14 44
M  V30 48 1 15 45
M  V30 49 1 17 46
M  V30 50 1 17 47
M  V30 51 1 20 48
M  V30 52 1 20 49
M  V30 53 1 20 50
M  V30 54 1 21 51
M  V30 55 1 21 52
M  V30 56 1 23 53
M  V30 57 1 26 54
M  V30 58 1 26 55
M  V30 59 1 30 56
M  V30 60 1 30 57
M  V30 61 1 30 58
M  V30 END BOND
M  V30 BEGIN COLLECTION
M  V30 MDLV30/STEABS ATOMS=(2 2 19)
M  V30 END COLLECTION
M  V30 END CTAB
M  END
>  <Column 1>
1015

>  <level_0>
1151

>  <index>
1151

>  <Unnamed: 0>
1151

>  <NO.>
1163

>  <Name>
dichlorisone-acetate

>  <IUPAC_name>
[2-[(9r-17r)-9-11-dichloro-17-hydroxy-10-13-dimethyl-3-oxo-6-7-8-11-12-14-15-16-octahydrocyclopenta[a]phenanthren-17-yl]-2-oxoethyl] acetate

>  <SMILES>
CC(=O)OCC(=O)[C@@]1(O)CCC2C3CCC4=CC(=O)C=CC4(C)[C@@]3(Cl)C(Cl)CC21C

>  <CID>
6605

>  <logBB>


>  <BBB+/BBB->
BBB+

>  <Inchi>
InChI=1S/C23H28Cl2O5/c1-13(26)30-12-19(28)22(29)9-7-16-17-5-4-14-10-15(27)6-8-20(14-2)23(17-25)18(24)11-21(16-22)3/h6-8-10-16-18-29H-4-5-7-9-11-12H2-1-3H3/t16?-17?-18?-20?-21?-22--23-/m0/s1

>  <threshold>
-1

>  <reference>
R1|R27|R30|

>  <group>
B

>  <Class>
1

>  <ABC>
23.98

>  <ABCGG>
19.68

>  <nAcid>
0

>  <nBase>
0

>  <nAromAtom>
0

>  <nAromBond>
0

>  <nAtom>
58

>  <nHeavyAtom>
30

>  <nSpiro>
0

>  <nBridgehead>
0

>  <nHetero>
7

>  <nN>
0

>  <nO>
5

>  <nF>
0

>  <BalabanJ>
1.66

>  <BertzCT>
880.82

>  <nBonds>
61

>  <nBondsO>
33

>  <nBondsS>
56

>  <nBondsD>
5

>  <nBondsT>
0

>  <nBondsA>
0

>  <nBondsM>
5

>  <nBondsKS>
56

>  <nBondsKD>
5

>  <RNCG>
0.19

>  <RPCG>
0.13

>  <FCSP3>
0.7

>  <SZ>
40

>  <Sm>
37.91

>  <Sv>
36.34

>  <Sse>
58.61

>  <Sp>
39.19

>  <Si>
65.16

>  <MZ>
0.69

>  <Mm>
0.65

>  <Mv>
0.63

>  <Mse>
1.01

>  <Mp>
0.68

>  <Mi>
1.12

>  <NsCH3>
3

>  <NdCH2>
0

>  <NssCH2>
6

>  <NtCH>
0

>  <NdsCH>
3

>  <NaaCH>
0

>  <NsssCH>
3

>  <NddC>
0

>  <NtsC>
0

>  <NdssC>
4

>  <NaasC>
0

>  <NaaaC>
0

>  <NssssC>
4

>  <NsNH3>
0

>  <NsNH2>
0

>  <NssNH2>
0

>  <NdNH>
0

>  <NssNH>
0

>  <NaaNH>
0

>  <NtN>
0

>  <NsssNH>
0

>  <NdsN>
0

>  <NaaN>
0

>  <NsssN>
0

>  <NddsN>
0

>  <NaasN>
0

>  <NssssN>
0

>  <NsOH>
1

>  <NdO>
3

>  <NssO>
1

>  <NaaO>
0

>  <NsF>
0

>  <NsSiH3>
0

>  <NssSiH2>
0

>  <NsssSiH>
0

>  <NssssSi>
0

>  <NsPH2>
0

>  <NssPH>
0

>  <NsssP>
0

>  <NdsssP>
0

>  <NsssssP>
0

>  <NsSH>
0

>  <NdS>
0

>  <NssS>
0

>  <NaaS>
0

>  <NdssS>
0

>  <NddssS>
0

>  <NsCl>
2

>  <NsBr>
0

>  <NsI>
0

>  <fragCpx>
219.07

>  <fMF>
0.29

>  <nHBAcc>
5

>  <nHBDon>
1

>  <Kier1>
23.17

>  <Kier2>
7.52

>  <Lipinski>
1

>  <GhoseFilter>
1

>  <FilterItLogS>
-4.76

>  <VMcGowan>
323.82

>  <LabuteASA>
186.36

>  <PEOE_VSA1>
9.84

>  <PEOE_VSA2>
14.38

>  <PEOE_VSA3>
0

>  <PEOE_VSA4>
0

>  <PEOE_VSA5>
23.2

>  <PEOE_VSA6>
25.5

>  <PEOE_VSA7>
56.09

>  <PEOE_VSA8>
17.75

>  <PEOE_VSA9>
10.25

>  <PEOE_VSA10>
5.6

>  <PEOE_VSA11>
12.39

>  <PEOE_VSA12>
5.78

>  <PEOE_VSA13>
0

>  <SMR_VSA1>
24.23

>  <SMR_VSA2>
0

>  <SMR_VSA3>
0

>  <SMR_VSA4>
22.67

>  <SMR_VSA5>
68.73

>  <SMR_VSA6>
6.61

>  <SMR_VSA7>
23.8

>  <SMR_VSA8>
0

>  <SMR_VSA9>
0

>  <SlogP_VSA1>
0

>  <SlogP_VSA2>
45.1

>  <SlogP_VSA3>
19.12

>  <SlogP_VSA4>
22.67

>  <SlogP_VSA5>
52.88

>  <SlogP_VSA6>
23.8

>  <SlogP_VSA7>
0

>  <SlogP_VSA8>
0

>  <SlogP_VSA9>
0

>  <SlogP_VSA10>
0

>  <SlogP_VSA11>
0

>  <EState_VSA1>
45.04

>  <EState_VSA2>
17.62

>  <EState_VSA3>
19.26

>  <EState_VSA4>
18.41

>  <EState_VSA5>
6.92

>  <EState_VSA6>
12.15

>  <EState_VSA7>
19.92

>  <EState_VSA8>
0

>  <EState_VSA9>
27.94

>  <EState_VSA10>
19.49

>  <VSA_EState1>
4.9

>  <VSA_EState2>
35.27

>  <VSA_EState3>
11.03

>  <VSA_EState4>
-1.91

>  <VSA_EState5>
-1.07

>  <VSA_EState6>
0

>  <VSA_EState7>
7.97

>  <VSA_EState8>
4.78

>  <VSA_EState9>
0

>  <apol>
65.45

>  <bpol>
33.45

>  <nRing>
4

>  <nHRing>
0

>  <naRing>
0

>  <naHRing>
0

>  <nARing 2>
4

>  <nAHRing 2>
0

>  <nFRing>
1

>  <nFHRing>
0

>  <nFaRing>
0

>  <nFaHRing>
0

>  <nFARing 2>
1

>  <nFAHRing 2>
0

>  <nRot>
3

>  <SLogP>
3.74

>  <SMR>
113.32

>  <TopoPSA(NO)>
80.67

>  <TopoPSA>
80.67

>  <JGI1>
0.32

>  <JGI2>
0.16

>  <JGI3>
0.07

>  <JGI4>
0.06

>  <JGI5>
0.04

>  <Diameter>
14

>  <Radius>
7

>  <TMWC10>
144.58

>  <TSRW10>
81.91

>  <MW>
454.13

>  <AMW>
7.83

>  <WPath>
2176

>  <WPol>
69

>  <Zagreb1>
176

>  <Zagreb2>
226

>  <mZagreb2>
6.19

>  <yes>


>  <nAR-cont>
0.199399

>  <nHA-cont>
0.74523694

>  <MWHBN>
0.281553645

>  <MWHBN-cont>
0.892118328

>  <TPSA-cont>
0.436873307

>  <pka_cont>
0.97

>  <yes.1>


>  <BBB_SCORE>
3.641560045

>  <MMFF94 Energy>
140

$$$$
Compound 847
Actelion Java MolfileCreator 2.0

  0  0  0  0  0  0              0 V3000
M  V30 BEGIN CTAB
M  V30 COUNTS 59 62 0 0 0
M  V30 BEGIN ATOM
M  V30 1 F 1.9423 0.9708 -1.2946 0
M  V30 2 C 1.2459 -0.2247 -1.4012 0 CFG=2
M  V30 3 C 1.829 -0.9613 -2.6767 0 CFG=2
M  V30 4 C -0.2526 0.1995 -1.4927 0 CFG=1
M  V30 5 C 1.5512 -1.0093 -0.0827 0 CFG=2
M  V30 6 C 3.3222 -1.2368 -2.4164 0
M  V30 7 C 1.6464 -0.1059 -3.9307 0
M  V30 8 C 1.1484 -2.3151 -2.9851 0
M  V30 9 O -1.1101 -0.8859 -1.8311 0
M  V30 10 C -0.776 0.8744 -0.2036 0
M  V30 11 C 1.0289 -0.1996 1.1149 0 CFG=1
M  V30 12 C 3.0609 -1.2783 0.0623 0
M  V30 13 C 4.3125 -0.8008 -3.2151 0
M  V30 14 C 3.6406 -1.9941 -1.1528 0
M  V30 15 C 2.6368 0.3266 -4.7221 0
M  V30 16 C -0.4995 0.0554 1.0779 0 CFG=1
M  V30 17 C 1.2673 -0.7461 2.5158 0
M  V30 18 C 4.0436 -0.003 -4.4283 0
M  V30 19 C -0.6773 0.8054 2.4389 0 CFG=1
M  V30 20 C -1.3355 -1.2524 1.0938 0
M  V30 21 C 0.2735 0.0291 3.3995 0
M  V30 22 O 4.9512 0.3685 -5.1614 0
M  V30 23 O -0.1892 2.1472 2.3231 0
M  V30 24 C -2.1236 0.8877 2.9826 0
M  V30 25 O -2.4423 0.3657 4.0543 0
M  V30 26 C -3.1325 1.6643 2.1421 0
M  V30 27 O -4.3048 1.957 2.905 0
M  V30 28 C -5.3236 2.4728 2.1694 0
M  V30 29 O -5.284 2.6874 0.966 0
M  V30 30 C -6.5087 2.7435 3.044 0
M  V30 31 H -0.3538 0.9418 -2.2931 0
M  V30 32 H 1.05 -1.9819 -0.1085 0
M  V30 33 H 0.6276 0.1482 -4.215 0
M  V30 34 H 0.1523 -2.191 -3.4233 0
M  V30 35 H 1.7306 -2.892 -3.716 0
M  V30 36 H 1.0389 -2.9449 -2.0974 0
M  V30 37 H -1.9973 -0.5205 -2.0015 0
M  V30 38 H -0.2985 1.8592 -0.1281 0
M  V30 39 H -1.8507 1.0546 -0.3076 0
M  V30 40 H 1.5463 0.7729 1.0797 0
M  V30 41 H 3.2488 -1.8935 0.9502 0
M  V30 42 H 3.5957 -0.3318 0.2166 0
M  V30 43 H 5.36 -0.9903 -3.0107 0
M  V30 44 H 4.7234 -2.1035 -1.0158 0
M  V30 45 H 3.2369 -3.0109 -1.2186 0
M  V30 46 H 2.4573 0.9215 -5.6092 0
M  V30 47 H 2.2977 -0.5868 2.8501 0
M  V30 48 H 1.0662 -1.8221 2.5664 0
M  V30 49 H -2.3955 -1.0396 0.9194 0
M  V30 50 H -1.0274 -1.9702 0.3317 0
M  V30 51 H -1.2711 -1.7785 2.052 0
M  V30 52 H 0.8195 0.7104 4.0622 0
M  V30 53 H -0.2553 -0.6882 4.0361 0
M  V30 54 H -0.0528 2.4977 3.2231 0
M  V30 55 H -2.6805 2.6069 1.8188 0
M  V30 56 H -3.4019 1.0432 1.2839 0
M  V30 57 H -6.854 1.8119 3.4992 0
M  V30 58 H -6.2428 3.4729 3.8133 0
M  V30 59 H -7.3198 3.1566 2.4375 0
M  V30 END ATOM
M  V30 BEGIN BOND
M  V30 1 1 1 2
M  V30 2 1 2 3
M  V30 3 1 2 4
M  V30 4 1 2 5
M  V30 5 1 3 6
M  V30 6 1 3 7
M  V30 7 1 3 8
M  V30 8 1 4 9
M  V30 9 1 4 10
M  V30 10 1 5 11
M  V30 11 1 5 12
M  V30 12 2 6 13
M  V30 13 1 6 14
M  V30 14 2 7 15
M  V30 15 1 10 16
M  V30 16 1 11 17
M  V30 17 1 13 18
M  V30 18 1 16 19
M  V30 19 1 16 20
M  V30 20 1 17 21
M  V30 21 2 18 22
M  V30 22 1 19 23
M  V30 23 1 19 24
M  V30 24 2 24 25
M  V30 25 1 24 26
M  V30 26 1 26 27
M  V30 27 1 27 28
M  V30 28 2 28 29
M  V30 29 1 28 30
M  V30 30 1 11 16
M  V30 31 1 12 14
M  V30 32 1 15 18
M  V30 33 1 19 21
M  V30 34 1 4 31
M  V30 35 1 5 32
M  V30 36 1 7 33
M  V30 37 1 8 34
M  V30 38 1 8 35
M  V30 39 1 8 36
M  V30 40 1 9 37
M  V30 41 1 10 38
M  V30 42 1 10 39
M  V30 43 1 11 40
M  V30 44 1 12 41
M  V30 45 1 12 42
M  V30 46 1 13 43
M  V30 47 1 14 44
M  V30 48 1 14 45
M  V30 49 1 15 46
M  V30 50 1 17 47
M  V30 51 1 17 48
M  V30 52 1 20 49
M  V30 53 1 20 50
M  V30 54 1 20 51
M  V30 55 1 21 52
M  V30 56 1 21 53
M  V30 57 1 23 54
M  V30 58 1 26 55
M  V30 59 1 26 56
M  V30 60 1 30 57
M  V30 61 1 30 58
M  V30 62 1 30 59
M  V30 END BOND
M  V30 BEGIN COLLECTION
M  V30 MDLV30/STEABS ATOMS=(7 2 3 4 5 11 16 19)
M  V30 END COLLECTION
M  V30 END CTAB
M  END
>  <Column 1>
1016

>  <level_0>
1152

>  <index>
1152

>  <Unnamed: 0>
1152

>  <NO.>
1164

>  <Name>
isoflupredone-acetate

>  <IUPAC_name>
[2-[(8s-9r-10s-11s-13s-14s-17r)-9-fluoro-11-17-dihydroxy-10-13-dimethyl-3-oxo-6-7-8-11-12-14-15-16-octahydrocyclopenta[a]phenanthren-17-yl]-2-oxoethyl] acetate

>  <SMILES>
CC(=O)OCC(=O)[C@@]1(O)CC[C@H]2[C@@H]3CCC4=CC(=O)C=C[C@]4(C)[C@@]3(F)[C@@H](O)C[C@@]21C

>  <CID>
224246

>  <logBB>


>  <BBB+/BBB->
BBB+

>  <Inchi>
InChI=1S/C23H29FO6/c1-13(25)30-12-19(28)22(29)9-7-16-17-5-4-14-10-15(26)6-8-20(14-2)23(17-24)18(27)11-21(16-22)3/h6-8-10-16-18-27-29H-4-5-7-9-11-12H2-1-3H3/t16--17--18--20--21--22--23-/m0/s1

>  <threshold>
-1

>  <reference>
R1|R6|R27|R30|

>  <group>
B

>  <Class>
1

>  <ABC>
23.98

>  <ABCGG>
19.68

>  <nAcid>
0

>  <nBase>
0

>  <nAromAtom>
0

>  <nAromBond>
0

>  <nAtom>
59

>  <nHeavyAtom>
30

>  <nSpiro>
0

>  <nBridgehead>
0

>  <nHetero>
7

>  <nN>
0

>  <nO>
6

>  <nF>
1

>  <BalabanJ>
1.66

>  <BertzCT>
878.92

>  <nBonds>
62

>  <nBondsO>
33

>  <nBondsS>
57

>  <nBondsD>
5

>  <nBondsT>
0

>  <nBondsA>
0

>  <nBondsM>
5

>  <nBondsKS>
57

>  <nBondsKD>
5

>  <RNCG>
0.17

>  <RPCG>
0.11

>  <FCSP3>
0.7

>  <SZ>
37.33

>  <Sm>
35.01

>  <Sv>
35.79

>  <Sse>
59.81

>  <Sp>
37.79

>  <Si>
66.83

>  <MZ>
0.63

>  <Mm>
0.59

>  <Mv>
0.61

>  <Mse>
1.01

>  <Mp>
0.64

>  <Mi>
1.13

>  <NsCH3>
3

>  <NdCH2>
0

>  <NssCH2>
6

>  <NtCH>
0

>  <NdsCH>
3

>  <NaaCH>
0

>  <NsssCH>
3

>  <NddC>
0

>  <NtsC>
0

>  <NdssC>
4

>  <NaasC>
0

>  <NaaaC>
0

>  <NssssC>
4

>  <NsNH3>
0

>  <NsNH2>
0

>  <NssNH2>
0

>  <NdNH>
0

>  <NssNH>
0

>  <NaaNH>
0

>  <NtN>
0

>  <NsssNH>
0

>  <NdsN>
0

>  <NaaN>
0

>  <NsssN>
0

>  <NddsN>
0

>  <NaasN>
0

>  <NssssN>
0

>  <NsOH>
2

>  <NdO>
3

>  <NssO>
1

>  <NaaO>
0

>  <NsF>
1

>  <NsSiH3>
0

>  <NssSiH2>
0

>  <NsssSiH>
0

>  <NssssSi>
0

>  <NsPH2>
0

>  <NssPH>
0

>  <NsssP>
0

>  <NdsssP>
0

>  <NsssssP>
0

>  <NsSH>
0

>  <NdS>
0

>  <NssS>
0

>  <NaaS>
0

>  <NdssS>
0

>  <NddssS>
0

>  <NsCl>
0

>  <NsBr>
0

>  <NsI>
0

>  <fragCpx>
219.07

>  <fMF>
0.29

>  <nHBAcc>
6

>  <nHBDon>
2

>  <Kier1>
23.17

>  <Kier2>
7.52

>  <Lipinski>
1

>  <GhoseFilter>
1

>  <FilterItLogS>
-3.27

>  <VMcGowan>
306.97

>  <LabuteASA>
174.72

>  <PEOE_VSA1>
14.95

>  <PEOE_VSA2>
14.38

>  <PEOE_VSA3>
4.39

>  <PEOE_VSA4>
0

>  <PEOE_VSA5>
0

>  <PEOE_VSA6>
18.57

>  <PEOE_VSA7>
57.1

>  <PEOE_VSA8>
23.67

>  <PEOE_VSA9>
6.1

>  <PEOE_VSA10>
5.6

>  <PEOE_VSA11>
18.06

>  <PEOE_VSA12>
5.78

>  <PEOE_VSA13>
0

>  <SMR_VSA1>
33.72

>  <SMR_VSA2>
0

>  <SMR_VSA3>
0

>  <SMR_VSA4>
22.67

>  <SMR_VSA5>
70.25

>  <SMR_VSA6>
6.61

>  <SMR_VSA7>
23.8

>  <SMR_VSA8>
0

>  <SMR_VSA9>
0

>  <SlogP_VSA1>
0

>  <SlogP_VSA2>
51.73

>  <SlogP_VSA3>
19.12

>  <SlogP_VSA4>
22.67

>  <SlogP_VSA5>
52.88

>  <SlogP_VSA6>
23.8

>  <SlogP_VSA7>
0

>  <SlogP_VSA8>
0

>  <SlogP_VSA9>
0

>  <SlogP_VSA10>
4.39

>  <SlogP_VSA11>
0

>  <EState_VSA1>
52.48

>  <EState_VSA2>
24.54

>  <EState_VSA3>
24.84

>  <EState_VSA4>
0

>  <EState_VSA5>
19.08

>  <EState_VSA6>
19.92

>  <EState_VSA7>
0

>  <EState_VSA8>
0

>  <EState_VSA9>
4.74

>  <EState_VSA10>
24.6

>  <VSA_EState1>
21.71

>  <VSA_EState2>
35.82

>  <VSA_EState3>
22.56

>  <VSA_EState4>
-5.23

>  <VSA_EState5>
-2.28

>  <VSA_EState6>
0

>  <VSA_EState7>
4.47

>  <VSA_EState8>
4.12

>  <VSA_EState9>
0

>  <apol>
63.12

>  <bpol>
34.55

>  <nRing>
4

>  <nHRing>
0

>  <naRing>
0

>  <naHRing>
0

>  <nARing 2>
4

>  <nAHRing 2>
0

>  <nFRing>
1

>  <nFHRing>
0

>  <nFaRing>
0

>  <nFaHRing>
0

>  <nFARing 2>
1

>  <nFAHRing 2>
0

>  <nRot>
3

>  <SLogP>
2.22

>  <SMR>
104.94

>  <TopoPSA(NO)>
100.9

>  <TopoPSA>
100.9

>  <JGI1>
0.32

>  <JGI2>
0.16

>  <JGI3>
0.07

>  <JGI4>
0.06

>  <JGI5>
0.04

>  <Diameter>
14

>  <Radius>
7

>  <TMWC10>
144.58

>  <TSRW10>
81.91

>  <MW>
420.19

>  <AMW>
7.12

>  <WPath>
2176

>  <WPol>
69

>  <Zagreb1>
176

>  <Zagreb2>
226

>  <mZagreb2>
6.19

>  <yes>


>  <nAR-cont>
0.199399

>  <nHA-cont>
0.74523694

>  <MWHBN>
0.390271763

>  <MWHBN-cont>
0.51439208

>  <TPSA-cont>
0.295655345

>  <pka_cont>
0.97

>  <yes.1>


>  <BBB_SCORE>
2.79253475

>  <MMFF94 Energy>
147.55

$$$$
Compound 848
Actelion Java MolfileCreator 2.0

  0  0  0  0  0  0              0 V3000
M  V30 BEGIN CTAB
M  V30 COUNTS 59 62 0 0 0
M  V30 BEGIN ATOM
M  V30 1 O 2.0963 -6.2181 -2.5805 0
M  V30 2 C 1.574 -5.1142 -2.4914 0
M  V30 3 C 0.1875 -4.9571 -2.0068 0
M  V30 4 C 2.3052 -3.8864 -2.855 0
M  V30 5 C -0.3998 -3.7507 -1.9128 0
M  V30 6 C 1.7212 -2.6842 -2.7638 0
M  V30 7 C 0.291 -2.4348 -2.2996 0 CFG=2
M  V30 8 C -1.7938 -3.6231 -1.3552 0
M  V30 9 C 0.2868 -1.5144 -1.0185 0 CFG=1
M  V30 10 C -0.4586 -1.8408 -3.5124 0
M  V30 11 C -1.7873 -2.726 -0.1232 0
M  V30 12 C 1.0148 -0.1443 -1.155 0 CFG=1
M  V30 13 C -1.1416 -1.3536 -0.3938 0 CFG=1
M  V30 14 O 0.5591 0.6341 -2.2525 0
M  V30 15 C 0.9697 0.715 0.1275 0
M  V30 16 C -1.0162 -0.5534 0.9138 0 CFG=1
M  V30 17 C -0.4415 0.8742 0.7355 0 CFG=1
M  V30 18 C -2.2647 -0.3319 1.7564 0
M  V30 19 C -0.5068 1.3701 2.2188 0 CFG=1
M  V30 20 C -1.3332 1.7883 -0.1464 0
M  V30 21 C -1.872 0.8044 2.7192 0
M  V30 22 O 0.5289 0.7491 2.99 0
M  V30 23 C -0.3907 2.8996 2.4237 0
M  V30 24 O -1.3156 3.5553 2.9119 0
M  V30 25 C 0.927 3.5537 2.0198 0
M  V30 26 O 1.0198 4.8652 2.5815 0
M  V30 27 C 2.1447 5.5374 2.2242 0
M  V30 28 O 3.0278 5.0983 1.5018 0
M  V30 29 C 2.1524 6.9 2.8456 0
M  V30 30 H -0.308 -5.8776 -1.7197 0
M  V30 31 H 3.3215 -4.0157 -3.2066 0
M  V30 32 H 2.3013 -1.817 -3.0756 0
M  V30 33 H -2.2045 -4.6019 -1.079 0
M  V30 34 H -2.4663 -3.2143 -2.1178 0
M  V30 35 H 0.875 -2.0597 -0.2598 0
M  V30 36 H -1.4388 -1.4355 -3.2433 0
M  V30 37 H -0.628 -2.6033 -4.2842 0
M  V30 38 H 0.1059 -1.0379 -3.9986 0
M  V30 39 H -1.2511 -3.234 0.6894 0
M  V30 40 H -2.8208 -2.5922 0.2179 0
M  V30 41 H 2.0757 -0.3324 -1.3548 0
M  V30 42 H -1.792 -0.8201 -1.0939 0
M  V30 43 H -0.3991 0.5283 -2.3506 0
M  V30 44 H 1.635 0.2405 0.8594 0
M  V30 45 H 1.3966 1.6992 -0.0913 0
M  V30 46 H -0.3233 -1.1283 1.5506 0
M  V30 47 H -2.5557 -1.2316 2.3083 0
M  V30 48 H -3.1179 -0.0321 1.1374 0
M  V30 49 H -1.6698 1.3094 -1.0655 0
M  V30 50 H -2.2445 2.1082 0.3704 0
M  V30 51 H -0.7965 2.6995 -0.4312 0
M  V30 52 H -2.6722 1.5524 2.7175 0
M  V30 53 H -1.7942 0.4145 3.7408 0
M  V30 54 H 0.3201 0.881 3.9338 0
M  V30 55 H 1.7564 2.9453 2.3931 0
M  V30 56 H 0.9506 3.6284 0.9296 0
M  V30 57 H 1.286 7.4699 2.5004 0
M  V30 58 H 2.1457 6.8108 3.9349 0
M  V30 59 H 3.0604 7.4303 2.5446 0
M  V30 END ATOM
M  V30 BEGIN BOND
M  V30 1 2 1 2
M  V30 2 1 2 3
M  V30 3 1 2 4
M  V30 4 2 3 5
M  V30 5 2 4 6
M  V30 6 1 5 7
M  V30 7 1 5 8
M  V30 8 1 7 9
M  V30 9 1 7 10
M  V30 10 1 8 11
M  V30 11 1 9 12
M  V30 12 1 9 13
M  V30 13 1 12 14
M  V30 14 1 12 15
M  V30 15 1 13 16
M  V30 16 1 15 17
M  V30 17 1 16 18
M  V30 18 1 17 19
M  V30 19 1 17 20
M  V30 20 1 18 21
M  V30 21 1 19 22
M  V30 22 1 19 23
M  V30 23 2 23 24
M  V30 24 1 23 25
M  V30 25 1 25 26
M  V30 26 1 26 27
M  V30 27 2 27 28
M  V30 28 1 27 29
M  V30 29 1 6 7
M  V30 30 1 11 13
M  V30 31 1 16 17
M  V30 32 1 19 21
M  V30 33 1 3 30
M  V30 34 1 4 31
M  V30 35 1 6 32
M  V30 36 1 8 33
M  V30 37 1 8 34
M  V30 38 1 9 35
M  V30 39 1 10 36
M  V30 40 1 10 37
M  V30 41 1 10 38
M  V30 42 1 11 39
M  V30 43 1 11 40
M  V30 44 1 12 41
M  V30 45 1 13 42
M  V30 46 1 14 43
M  V30 47 1 15 44
M  V30 48 1 15 45
M  V30 49 1 16 46
M  V30 50 1 18 47
M  V30 51 1 18 48
M  V30 52 1 20 49
M  V30 53 1 20 50
M  V30 54 1 20 51
M  V30 55 1 21 52
M  V30 56 1 21 53
M  V30 57 1 22 54
M  V30 58 1 25 55
M  V30 59 1 25 56
M  V30 60 1 29 57
M  V30 61 1 29 58
M  V30 62 1 29 59
M  V30 END BOND
M  V30 BEGIN COLLECTION
M  V30 MDLV30/STEABS ATOMS=(7 7 9 12 13 16 17 19)
M  V30 END COLLECTION
M  V30 END CTAB
M  END
>  <Column 1>
1017

>  <level_0>
1153

>  <index>
1153

>  <Unnamed: 0>
1153

>  <NO.>
1165

>  <Name>
prednisolone acetate

>  <IUPAC_name>
[2-[(8s-9s-10r-11s-13s-14s-17r)-11-17-dihydroxy-10-13-dimethyl-3-oxo-7-8-9-11-12-14-15-16-octahydro-6h-cyclopenta[a]phenanthren-17-yl]-2-oxoethyl] acetate

>  <SMILES>
CC(=O)OCC(=O)[C@@]1(O)CC[C@H]2[C@@H]3CCC4=CC(=O)C=C[C@]4(C)[C@H]3[C@@H](O)C[C@@]21C

>  <CID>
5834

>  <logBB>


>  <BBB+/BBB->
BBB+

>  <Inchi>
InChI=1S/C23H30O6/c1-13(24)29-12-19(27)23(28)9-7-17-16-5-4-14-10-15(25)6-8-21(14-2)20(16)18(26)11-22(17-23)3/h6-8-10-16-18-20-26-28H-4-5-7-9-11-12H2-1-3H3/t16--17--18--20+-21--22--23-/m0/s1

>  <threshold>
-1

>  <reference>
R1|R6|R27|R30|

>  <group>
B

>  <Class>
1

>  <ABC>
23.19

>  <ABCGG>
18.76

>  <nAcid>
0

>  <nBase>
0

>  <nAromAtom>
0

>  <nAromBond>
0

>  <nAtom>
59

>  <nHeavyAtom>
29

>  <nSpiro>
0

>  <nBridgehead>
0

>  <nHetero>
6

>  <nN>
0

>  <nO>
6

>  <nF>
0

>  <BalabanJ>
1.6

>  <BertzCT>
827.22

>  <nBonds>
62

>  <nBondsO>
32

>  <nBondsS>
57

>  <nBondsD>
5

>  <nBondsT>
0

>  <nBondsA>
0

>  <nBondsM>
5

>  <nBondsKS>
57

>  <nBondsKD>
5

>  <RNCG>
0.18

>  <RPCG>
0.12

>  <FCSP3>
0.7

>  <SZ>
36

>  <Sm>
33.51

>  <Sv>
35.42

>  <Sse>
59.3

>  <Sp>
37.86

>  <Si>
66.49

>  <MZ>
0.61

>  <Mm>
0.57

>  <Mv>
0.6

>  <Mse>
1.01

>  <Mp>
0.64

>  <Mi>
1.13

>  <NsCH3>
3

>  <NdCH2>
0

>  <NssCH2>
6

>  <NtCH>
0

>  <NdsCH>
3

>  <NaaCH>
0

>  <NsssCH>
4

>  <NddC>
0

>  <NtsC>
0

>  <NdssC>
4

>  <NaasC>
0

>  <NaaaC>
0

>  <NssssC>
3

>  <NsNH3>
0

>  <NsNH2>
0

>  <NssNH2>
0

>  <NdNH>
0

>  <NssNH>
0

>  <NaaNH>
0

>  <NtN>
0

>  <NsssNH>
0

>  <NdsN>
0

>  <NaaN>
0

>  <NsssN>
0

>  <NddsN>
0

>  <NaasN>
0

>  <NssssN>
0

>  <NsOH>
2

>  <NdO>
3

>  <NssO>
1

>  <NaaO>
0

>  <NsF>
0

>  <NsSiH3>
0

>  <NssSiH2>
0

>  <NsssSiH>
0

>  <NssssSi>
0

>  <NsPH2>
0

>  <NssPH>
0

>  <NsssP>
0

>  <NdsssP>
0

>  <NsssssP>
0

>  <NsSH>
0

>  <NdS>
0

>  <NssS>
0

>  <NaaS>
0

>  <NdssS>
0

>  <NddssS>
0

>  <NsCl>
0

>  <NsBr>
0

>  <NsI>
0

>  <fragCpx>
212.06

>  <fMF>
0.29

>  <nHBAcc>
6

>  <nHBDon>
2

>  <Kier1>
22.2

>  <Kier2>
7.55

>  <Lipinski>
1

>  <GhoseFilter>
1

>  <FilterItLogS>
-2.79

>  <VMcGowan>
305.21

>  <LabuteASA>
170.55

>  <PEOE_VSA1>
14.95

>  <PEOE_VSA2>
14.38

>  <PEOE_VSA3>
0

>  <PEOE_VSA4>
0

>  <PEOE_VSA5>
0

>  <PEOE_VSA6>
25.5

>  <PEOE_VSA7>
56.09

>  <PEOE_VSA8>
23.67

>  <PEOE_VSA9>
6.1

>  <PEOE_VSA10>
5.6

>  <PEOE_VSA11>
12.39

>  <PEOE_VSA12>
5.78

>  <PEOE_VSA13>
0

>  <SMR_VSA1>
29.33

>  <SMR_VSA2>
0

>  <SMR_VSA3>
0

>  <SMR_VSA4>
28.58

>  <SMR_VSA5>
64.58

>  <SMR_VSA6>
6.61

>  <SMR_VSA7>
23.8

>  <SMR_VSA8>
0

>  <SMR_VSA9>
0

>  <SlogP_VSA1>
0

>  <SlogP_VSA2>
46.06

>  <SlogP_VSA3>
19.12

>  <SlogP_VSA4>
28.58

>  <SlogP_VSA5>
52.88

>  <SlogP_VSA6>
23.8

>  <SlogP_VSA7>
0

>  <SlogP_VSA8>
0

>  <SlogP_VSA9>
0

>  <SlogP_VSA10>
0

>  <SlogP_VSA11>
0

>  <EState_VSA1>
35.48

>  <EState_VSA2>
28.95

>  <EState_VSA3>
19.26

>  <EState_VSA4>
18.41

>  <EState_VSA5>
6.92

>  <EState_VSA6>
12.15

>  <EState_VSA7>
13

>  <EState_VSA8>
6.92

>  <EState_VSA9>
4.74

>  <EState_VSA10>
24.6

>  <VSA_EState1>
4.88

>  <VSA_EState2>
35.86

>  <VSA_EState3>
22.71

>  <VSA_EState4>
-1.67

>  <VSA_EState5>
-0.84

>  <VSA_EState6>
0

>  <VSA_EState7>
7.5

>  <VSA_EState8>
4.8

>  <VSA_EState9>
0

>  <apol>
63.23

>  <bpol>
34.44

>  <nRing>
4

>  <nHRing>
0

>  <naRing>
0

>  <naHRing>
0

>  <nARing 2>
4

>  <nAHRing 2>
0

>  <nFRing>
1

>  <nFHRing>
0

>  <nFaRing>
0

>  <nFaHRing>
0

>  <nFARing 2>
1

>  <nFAHRing 2>
0

>  <nRot>
3

>  <SLogP>
2.13

>  <SMR>
104.6

>  <TopoPSA(NO)>
100.9

>  <TopoPSA>
100.9

>  <JGI1>
0.3

>  <JGI2>
0.14

>  <JGI3>
0.07

>  <JGI4>
0.06

>  <JGI5>
0.03

>  <Diameter>
14

>  <Radius>
7

>  <TMWC10>
141.61

>  <TSRW10>
80.5

>  <MW>
402.2

>  <AMW>
6.82

>  <WPath>
2039

>  <WPol>
62

>  <Zagreb1>
168

>  <Zagreb2>
212

>  <mZagreb2>
6.02

>  <yes>


>  <nAR-cont>
0.199399

>  <nHA-cont>
0.785905698

>  <MWHBN>
0.398904517

>  <MWHBN-cont>
0.480373352

>  <TPSA-cont>
0.295655345

>  <pka_cont>
0.97

>  <yes.1>


>  <BBB_SCORE>
2.782175416

>  <MMFF94 Energy>
114.07

$$$$
Compound 849
Actelion Java MolfileCreator 2.0

  0  0  0  0  0  0              0 V3000
M  V30 BEGIN CTAB
M  V30 COUNTS 61 64 0 0 0
M  V30 BEGIN ATOM
M  V30 1 F 2.2629 0.7269 0.4038 0
M  V30 2 C 1.0397 1.3762 0.4293 0 CFG=2
M  V30 3 C 1.3272 2.8355 0.9607 0 CFG=2
M  V30 4 C 0.1418 0.4848 1.3385 0 CFG=1
M  V30 5 C 0.5364 1.3966 -1.0556 0 CFG=2
M  V30 6 C 2.324 3.4653 -0.0295 0
M  V30 7 C 1.9196 2.8628 2.4012 0
M  V30 8 C 0.0551 3.7212 1.0236 0
M  V30 9 O -1.0906 1.1126 1.6734 0
M  V30 10 C -0.1429 -0.9099 0.7345 0
M  V30 11 C 0.3596 -0.0507 -1.5397 0 CFG=1
M  V30 12 C 1.5071 2.1694 -1.9745 0
M  V30 13 C 3.5939 3.7875 0.2729 0
M  V30 14 C 1.836 3.5689 -1.4524 0
M  V30 15 C 3.3967 2.5168 2.4822 0
M  V30 16 C -0.675 -0.8604 -0.7161 0 CFG=1
M  V30 17 C -0.0689 -0.2824 -2.9819 0
M  V30 18 C 4.1832 3.4381 1.5862 0
M  V30 19 C -0.6551 -2.2052 -1.5143 0 CFG=1
M  V30 20 C -2.1023 -0.2514 -0.7617 0
M  V30 21 C -0.5724 -1.7367 -2.9986 0
M  V30 22 O 5.3091 3.8369 1.8719 0
M  V30 23 O 0.5421 -2.9321 -1.2135 0
M  V30 24 C -1.8472 -3.1592 -1.2643 0
M  V30 25 O -2.6268 -3.4707 -2.1686 0
M  V30 26 C -1.9999 -3.7159 0.1478 0
M  V30 27 O -2.8985 -4.8267 0.1569 0
M  V30 28 C -3.2283 -5.2553 1.4029 0
M  V30 29 O -2.815 -4.7693 2.4464 0
M  V30 30 C -4.1741 -6.4132 1.3188 0
M  V30 31 H 0.6731 0.3086 2.2807 0
M  V30 32 H -0.428 1.9098 -1.1104 0
M  V30 33 H 1.3512 2.2154 3.0765 0
M  V30 34 H 1.8058 3.8773 2.8129 0
M  V30 35 H -0.5715 3.6457 0.1317 0
M  V30 36 H -0.5711 3.4704 1.8858 0
M  V30 37 H 0.3227 4.78 1.1347 0
M  V30 38 H -1.5219 0.571 2.3589 0
M  V30 39 H 0.7922 -1.482 0.7692 0
M  V30 40 H -0.8562 -1.4359 1.3769 0
M  V30 41 H 1.3447 -0.534 -1.4369 0
M  V30 42 H 2.4391 1.5995 -2.087 0
M  V30 43 H 1.0756 2.2643 -2.9779 0
M  V30 44 H 4.2834 4.2171 -0.4449 0
M  V30 45 H 0.9563 4.2188 -1.5102 0
M  V30 46 H 2.5931 4.022 -2.1039 0
M  V30 47 H 3.5967 1.4804 2.1967 0
M  V30 48 H 3.7428 2.6575 3.5123 0
M  V30 49 H 0.7591 -0.1441 -3.6845 0
M  V30 50 H -0.8707 0.4036 -3.2776 0
M  V30 51 H -2.7692 -0.7685 -0.0639 0
M  V30 52 H -2.1282 0.8069 -0.4967 0
M  V30 53 H -2.5589 -0.3293 -1.7538 0
M  V30 54 H 0.1159 -2.3609 -3.5796 0
M  V30 55 H -1.5416 -1.761 -3.5082 0
M  V30 56 H 0.6665 -3.6077 -1.9058 0
M  V30 57 H -1.0232 -4.0519 0.5086 0
M  V30 58 H -2.3996 -2.9193 0.7809 0
M  V30 59 H -5.091 -6.1066 0.8094 0
M  V30 60 H -3.6983 -7.2427 0.7899 0
M  V30 61 H -4.431 -6.7452 2.3288 0
M  V30 END ATOM
M  V30 BEGIN BOND
M  V30 1 1 1 2
M  V30 2 1 2 3
M  V30 3 1 2 4
M  V30 4 1 2 5
M  V30 5 1 3 6
M  V30 6 1 3 7
M  V30 7 1 3 8
M  V30 8 1 4 9
M  V30 9 1 4 10
M  V30 10 1 5 11
M  V30 11 1 5 12
M  V30 12 2 6 13
M  V30 13 1 6 14
M  V30 14 1 7 15
M  V30 15 1 10 16
M  V30 16 1 11 17
M  V30 17 1 13 18
M  V30 18 1 16 19
M  V30 19 1 16 20
M  V30 20 1 17 21
M  V30 21 2 18 22
M  V30 22 1 19 23
M  V30 23 1 19 24
M  V30 24 2 24 25
M  V30 25 1 24 26
M  V30 26 1 26 27
M  V30 27 1 27 28
M  V30 28 2 28 29
M  V30 29 1 28 30
M  V30 30 1 11 16
M  V30 31 1 12 14
M  V30 32 1 15 18
M  V30 33 1 19 21
M  V30 34 1 4 31
M  V30 35 1 5 32
M  V30 36 1 7 33
M  V30 37 1 7 34
M  V30 38 1 8 35
M  V30 39 1 8 36
M  V30 40 1 8 37
M  V30 41 1 9 38
M  V30 42 1 10 39
M  V30 43 1 10 40
M  V30 44 1 11 41
M  V30 45 1 12 42
M  V30 46 1 12 43
M  V30 47 1 13 44
M  V30 48 1 14 45
M  V30 49 1 14 46
M  V30 50 1 15 47
M  V30 51 1 15 48
M  V30 52 1 17 49
M  V30 53 1 17 50
M  V30 54 1 20 51
M  V30 55 1 20 52
M  V30 56 1 20 53
M  V30 57 1 21 54
M  V30 58 1 21 55
M  V30 59 1 23 56
M  V30 60 1 26 57
M  V30 61 1 26 58
M  V30 62 1 30 59
M  V30 63 1 30 60
M  V30 64 1 30 61
M  V30 END BOND
M  V30 BEGIN COLLECTION
M  V30 MDLV30/STEABS ATOMS=(7 2 3 4 5 11 16 19)
M  V30 END COLLECTION
M  V30 END CTAB
M  END
>  <Column 1>
1018

>  <level_0>
1154

>  <index>
1154

>  <Unnamed: 0>
1154

>  <NO.>
1166

>  <Name>
fludrocortisone acetate

>  <IUPAC_name>
[2-[(8s-9r-10s-11s-13s-14s-17r)-9-fluoro-11-17-dihydroxy-10-13-dimethyl-3-oxo-1-2-6-7-8-11-12-14-15-16-decahydrocyclopenta[a]phenanthren-17-yl]-2-oxoethyl] acetate

>  <SMILES>
CC(=O)OCC(=O)[C@@]1(O)CC[C@H]2[C@@H]3CCC4=CC(=O)CC[C@]4(C)[C@@]3(F)[C@@H](O)C[C@@]21C

>  <CID>
225609

>  <logBB>


>  <BBB+/BBB->
BBB+

>  <Inchi>
InChI=1S/C23H31FO6/c1-13(25)30-12-19(28)22(29)9-7-16-17-5-4-14-10-15(26)6-8-20(14-2)23(17-24)18(27)11-21(16-22)3/h10-16-18-27-29H-4-9-11-12H2-1-3H3/t16--17--18--20--21--22--23-/m0/s1

>  <threshold>
-1

>  <reference>
R1|R27|R30|

>  <group>
B

>  <Class>
1

>  <ABC>
23.98

>  <ABCGG>
19.68

>  <nAcid>
0

>  <nBase>
0

>  <nAromAtom>
0

>  <nAromBond>
0

>  <nAtom>
61

>  <nHeavyAtom>
30

>  <nSpiro>
0

>  <nBridgehead>
0

>  <nHetero>
7

>  <nN>
0

>  <nO>
6

>  <nF>
1

>  <BalabanJ>
1.66

>  <BertzCT>
837.55

>  <nBonds>
64

>  <nBondsO>
33

>  <nBondsS>
60

>  <nBondsD>
4

>  <nBondsT>
0

>  <nBondsA>
0

>  <nBondsM>
4

>  <nBondsKS>
60

>  <nBondsKD>
4

>  <RNCG>
0.17

>  <RPCG>
0.11

>  <FCSP3>
0.78

>  <SZ>
37.67

>  <Sm>
35.18

>  <Sv>
36.33

>  <Sse>
61.7

>  <Sp>
38.59

>  <Si>
69.24

>  <MZ>
0.62

>  <Mm>
0.58

>  <Mv>
0.6

>  <Mse>
1.01

>  <Mp>
0.63

>  <Mi>
1.14

>  <NsCH3>
3

>  <NdCH2>
0

>  <NssCH2>
8

>  <NtCH>
0

>  <NdsCH>
1

>  <NaaCH>
0

>  <NsssCH>
3

>  <NddC>
0

>  <NtsC>
0

>  <NdssC>
4

>  <NaasC>
0

>  <NaaaC>
0

>  <NssssC>
4

>  <NsNH3>
0

>  <NsNH2>
0

>  <NssNH2>
0

>  <NdNH>
0

>  <NssNH>
0

>  <NaaNH>
0

>  <NtN>
0

>  <NsssNH>
0

>  <NdsN>
0

>  <NaaN>
0

>  <NsssN>
0

>  <NddsN>
0

>  <NaasN>
0

>  <NssssN>
0

>  <NsOH>
2

>  <NdO>
3

>  <NssO>
1

>  <NaaO>
0

>  <NsF>
1

>  <NsSiH3>
0

>  <NssSiH2>
0

>  <NsssSiH>
0

>  <NssssSi>
0

>  <NsPH2>
0

>  <NssPH>
0

>  <NsssP>
0

>  <NdsssP>
0

>  <NsssssP>
0

>  <NsSH>
0

>  <NdS>
0

>  <NssS>
0

>  <NaaS>
0

>  <NdssS>
0

>  <NddssS>
0

>  <NsCl>
0

>  <NsBr>
0

>  <NsI>
0

>  <fragCpx>
219.07

>  <fMF>
0.28

>  <nHBAcc>
6

>  <nHBDon>
2

>  <Kier1>
23.17

>  <Kier2>
7.52

>  <Lipinski>
1

>  <GhoseFilter>
1

>  <FilterItLogS>
-3.73

>  <VMcGowan>
311.27

>  <LabuteASA>
175.41

>  <PEOE_VSA1>
14.95

>  <PEOE_VSA2>
14.38

>  <PEOE_VSA3>
4.39

>  <PEOE_VSA4>
0

>  <PEOE_VSA5>
0

>  <PEOE_VSA6>
19.42

>  <PEOE_VSA7>
50.52

>  <PEOE_VSA8>
30.09

>  <PEOE_VSA9>
6.1

>  <PEOE_VSA10>
11.27

>  <PEOE_VSA11>
12.39

>  <PEOE_VSA12>
5.78

>  <PEOE_VSA13>
0

>  <SMR_VSA1>
33.72

>  <SMR_VSA2>
0

>  <SMR_VSA3>
0

>  <SMR_VSA4>
22.67

>  <SMR_VSA5>
83.09

>  <SMR_VSA6>
6.61

>  <SMR_VSA7>
11.65

>  <SMR_VSA8>
0

>  <SMR_VSA9>
0

>  <SlogP_VSA1>
0

>  <SlogP_VSA2>
51.73

>  <SlogP_VSA3>
19.12

>  <SlogP_VSA4>
22.67

>  <SlogP_VSA5>
65.72

>  <SlogP_VSA6>
11.65

>  <SlogP_VSA7>
0

>  <SlogP_VSA8>
0

>  <SlogP_VSA9>
0

>  <SlogP_VSA10>
4.39

>  <SlogP_VSA11>
0

>  <EState_VSA1>
52.48

>  <EState_VSA2>
30.96

>  <EState_VSA3>
25.68

>  <EState_VSA4>
5.57

>  <EState_VSA5>
6.92

>  <EState_VSA6>
13

>  <EState_VSA7>
6.92

>  <EState_VSA8>
0

>  <EState_VSA9>
4.74

>  <EState_VSA10>
24.6

>  <VSA_EState1>
21.77

>  <VSA_EState2>
35.93

>  <VSA_EState3>
22.6

>  <VSA_EState4>
-4.83

>  <VSA_EState5>
-1.99

>  <VSA_EState6>
0

>  <VSA_EState7>
2.45

>  <VSA_EState8>
4.25

>  <VSA_EState9>
0

>  <apol>
64.45

>  <bpol>
36.55

>  <nRing>
4

>  <nHRing>
0

>  <naRing>
0

>  <naHRing>
0

>  <nARing 2>
4

>  <nAHRing 2>
0

>  <nFRing>
1

>  <nFHRing>
0

>  <nFaRing>
0

>  <nFaHRing>
0

>  <nFARing 2>
1

>  <nFAHRing 2>
0

>  <nRot>
3

>  <SLogP>
2.44

>  <SMR>
105.04

>  <TopoPSA(NO)>
100.9

>  <TopoPSA>
100.9

>  <JGI1>
0.32

>  <JGI2>
0.16

>  <JGI3>
0.07

>  <JGI4>
0.06

>  <JGI5>
0.04

>  <Diameter>
14

>  <Radius>
7

>  <TMWC10>
144.58

>  <TSRW10>
81.91

>  <MW>
422.21

>  <AMW>
6.92

>  <WPath>
2176

>  <WPol>
69

>  <Zagreb1>
176

>  <Zagreb2>
226

>  <mZagreb2>
6.19

>  <yes>


>  <nAR-cont>
0.199399

>  <nHA-cont>
0.74523694

>  <MWHBN>
0.389337046

>  <MWHBN-cont>
0.518075608

>  <TPSA-cont>
0.295655345

>  <pka_cont>
0.97

>  <yes.1>


>  <BBB_SCORE>
2.798060042

>  <MMFF94 Energy>
137.11

$$$$
Compound 850
Actelion Java MolfileCreator 2.0

  0  0  0  0  0  0              0 V3000
M  V30 BEGIN CTAB
M  V30 COUNTS 59 62 0 0 0
M  V30 BEGIN ATOM
M  V30 1 O 4.3652 -3.7985 4.2843 0
M  V30 2 C 3.7508 -2.9032 3.71 0
M  V30 3 C 4.1158 -2.5467 2.3201 0
M  V30 4 C 2.6877 -2.0851 4.3915 0
M  V30 5 C 3.4498 -1.603 1.6302 0
M  V30 6 C 1.6292 -1.6513 3.3873 0
M  V30 7 C 2.2008 -0.875 2.1619 0 CFG=2
M  V30 8 C 3.9518 -1.1897 0.2667 0
M  V30 9 C 1.1084 -0.8448 1.0316 0 CFG=1
M  V30 10 C 2.6406 0.5404 2.6003 0
M  V30 11 C 2.843 -1.2034 -0.7769 0
M  V30 12 C -0.1902 -0.0926 1.3823 0
M  V30 13 C 1.6535 -0.3397 -0.336 0 CFG=1
M  V30 14 O -0.4061 0.4148 2.4811 0
M  V30 15 C -1.2714 -0.0559 0.3097 0
M  V30 16 C 0.5222 -0.3776 -1.3747 0 CFG=1
M  V30 17 C -0.6942 0.5079 -0.9946 0 CFG=1
M  V30 18 C 0.8474 0.0501 -2.8 0
M  V30 19 C -1.5672 0.331 -2.2757 0 CFG=1
M  V30 20 C -0.3267 2.001 -0.7818 0
M  V30 21 C -0.5205 0.3711 -3.4279 0
M  V30 22 O -2.1569 -0.9727 -2.2682 0
M  V30 23 C -2.673 1.4005 -2.4553 0
M  V30 24 O -2.4911 2.4063 -3.1461 0
M  V30 25 C -3.9916 1.1524 -1.7271 0
M  V30 26 O -4.8782 2.258 -1.9083 0
M  V30 27 C -6.0977 2.0845 -1.3357 0
M  V30 28 O -6.4495 1.0893 -0.7187 0
M  V30 29 C -6.9556 3.2896 -1.5688 0
M  V30 30 H 4.989 -3.0576 1.9289 0
M  V30 31 H 3.1608 -1.2275 4.8799 0
M  V30 32 H 2.2173 -2.7023 5.165 0
M  V30 33 H 0.8832 -1.0522 3.9202 0
M  V30 34 H 1.1069 -2.5524 3.0361 0
M  V30 35 H 4.3793 -0.1818 0.3351 0
M  V30 36 H 4.763 -1.8449 -0.0737 0
M  V30 37 H 0.7813 -1.8865 0.881 0
M  V30 38 H 1.8515 1.0669 3.145 0
M  V30 39 H 3.5097 0.5011 3.2678 0
M  V30 40 H 2.9241 1.1689 1.7504 0
M  V30 41 H 3.2503 -0.8328 -1.7246 0
M  V30 42 H 2.5147 -2.2359 -0.9538 0
M  V30 43 H 2.0089 0.692 -0.2375 0
M  V30 44 H -2.0963 0.5634 0.6754 0
M  V30 45 H -1.651 -1.0771 0.1955 0
M  V30 46 H 0.1892 -1.4267 -1.4353 0
M  V30 47 H 1.492 0.9362 -2.8165 0
M  V30 48 H 1.3608 -0.7403 -3.3571 0
M  V30 49 H -1.2156 2.5832 -0.5123 0
M  V30 50 H 0.1033 2.4594 -1.6775 0
M  V30 51 H 0.3922 2.1454 0.0301 0
M  V30 52 H -0.4577 1.3491 -3.9168 0
M  V30 53 H -0.7518 -0.3636 -4.2076 0
M  V30 54 H -2.4472 -1.1852 -3.1748 0
M  V30 55 H -4.4461 0.2484 -2.1462 0
M  V30 56 H -3.7895 1.0303 -0.6609 0
M  V30 57 H -6.4889 4.1696 -1.1189 0
M  V30 58 H -7.1033 3.4377 -2.6414 0
M  V30 59 H -7.932 3.1354 -1.1004 0
M  V30 END ATOM
M  V30 BEGIN BOND
M  V30 1 2 1 2
M  V30 2 1 2 3
M  V30 3 1 2 4
M  V30 4 2 3 5
M  V30 5 1 4 6
M  V30 6 1 5 7
M  V30 7 1 5 8
M  V30 8 1 7 9
M  V30 9 1 7 10
M  V30 10 1 8 11
M  V30 11 1 9 12
M  V30 12 1 9 13
M  V30 13 2 12 14
M  V30 14 1 12 15
M  V30 15 1 13 16
M  V30 16 1 15 17
M  V30 17 1 16 18
M  V30 18 1 17 19
M  V30 19 1 17 20
M  V30 20 1 18 21
M  V30 21 1 19 22
M  V30 22 1 19 23
M  V30 23 2 23 24
M  V30 24 1 23 25
M  V30 25 1 25 26
M  V30 26 1 26 27
M  V30 27 2 27 28
M  V30 28 1 27 29
M  V30 29 1 6 7
M  V30 30 1 11 13
M  V30 31 1 16 17
M  V30 32 1 19 21
M  V30 33 1 3 30
M  V30 34 1 4 31
M  V30 35 1 4 32
M  V30 36 1 6 33
M  V30 37 1 6 34
M  V30 38 1 8 35
M  V30 39 1 8 36
M  V30 40 1 9 37
M  V30 41 1 10 38
M  V30 42 1 10 39
M  V30 43 1 10 40
M  V30 44 1 11 41
M  V30 45 1 11 42
M  V30 46 1 13 43
M  V30 47 1 15 44
M  V30 48 1 15 45
M  V30 49 1 16 46
M  V30 50 1 18 47
M  V30 51 1 18 48
M  V30 52 1 20 49
M  V30 53 1 20 50
M  V30 54 1 20 51
M  V30 55 1 21 52
M  V30 56 1 21 53
M  V30 57 1 22 54
M  V30 58 1 25 55
M  V30 59 1 25 56
M  V30 60 1 29 57
M  V30 61 1 29 58
M  V30 62 1 29 59
M  V30 END BOND
M  V30 BEGIN COLLECTION
M  V30 MDLV30/STEABS ATOMS=(6 7 9 13 16 17 19)
M  V30 END COLLECTION
M  V30 END CTAB
M  END
>  <Column 1>
1019

>  <level_0>
1155

>  <index>
1155

>  <Unnamed: 0>
1155

>  <NO.>
1167

>  <Name>
cortisone acetate

>  <IUPAC_name>
[2-[(8s-9s-10r-13s-14s-17r)-17-hydroxy-10-13-dimethyl-3-11-dioxo-1-2-6-7-8-9-12-14-15-16-decahydrocyclopenta[a]phenanthren-17-yl]-2-oxoethyl] acetate

>  <SMILES>
CC(=O)OCC(=O)[C@@]1(O)CC[C@H]2[C@@H]3CCC4=CC(=O)CC[C@]4(C)[C@H]3C(=O)C[C@@]21C

>  <CID>
5745

>  <logBB>


>  <BBB+/BBB->
BBB+

>  <Inchi>
InChI=1S/C23H30O6/c1-13(24)29-12-19(27)23(28)9-7-17-16-5-4-14-10-15(25)6-8-21(14-2)20(16)18(26)11-22(17-23)3/h10-16-17-20-28H-4-9-11-12H2-1-3H3/t16--17--20+-21--22--23-/m0/s1

>  <threshold>
-1

>  <reference>
R1|R27|R30|

>  <group>
B

>  <Class>
1

>  <ABC>
23.19

>  <ABCGG>
18.76

>  <nAcid>
0

>  <nBase>
0

>  <nAromAtom>
0

>  <nAromBond>
0

>  <nAtom>
59

>  <nHeavyAtom>
29

>  <nSpiro>
0

>  <nBridgehead>
0

>  <nHetero>
6

>  <nN>
0

>  <nO>
6

>  <nF>
0

>  <BalabanJ>
1.6

>  <BertzCT>
827.22

>  <nBonds>
62

>  <nBondsO>
32

>  <nBondsS>
57

>  <nBondsD>
5

>  <nBondsT>
0

>  <nBondsA>
0

>  <nBondsM>
5

>  <nBondsKS>
57

>  <nBondsKD>
5

>  <RNCG>
0.19

>  <RPCG>
0.13

>  <FCSP3>
0.74

>  <SZ>
36

>  <Sm>
33.51

>  <Sv>
35.42

>  <Sse>
59.3

>  <Sp>
37.86

>  <Si>
66.49

>  <MZ>
0.61

>  <Mm>
0.57

>  <Mv>
0.6

>  <Mse>
1.01

>  <Mp>
0.64

>  <Mi>
1.13

>  <NsCH3>
3

>  <NdCH2>
0

>  <NssCH2>
8

>  <NtCH>
0

>  <NdsCH>
1

>  <NaaCH>
0

>  <NsssCH>
3

>  <NddC>
0

>  <NtsC>
0

>  <NdssC>
5

>  <NaasC>
0

>  <NaaaC>
0

>  <NssssC>
3

>  <NsNH3>
0

>  <NsNH2>
0

>  <NssNH2>
0

>  <NdNH>
0

>  <NssNH>
0

>  <NaaNH>
0

>  <NtN>
0

>  <NsssNH>
0

>  <NdsN>
0

>  <NaaN>
0

>  <NsssN>
0

>  <NddsN>
0

>  <NaasN>
0

>  <NssssN>
0

>  <NsOH>
1

>  <NdO>
4

>  <NssO>
1

>  <NaaO>
0

>  <NsF>
0

>  <NsSiH3>
0

>  <NssSiH2>
0

>  <NsssSiH>
0

>  <NssssSi>
0

>  <NsPH2>
0

>  <NssPH>
0

>  <NsssP>
0

>  <NdsssP>
0

>  <NsssssP>
0

>  <NsSH>
0

>  <NdS>
0

>  <NssS>
0

>  <NaaS>
0

>  <NdssS>
0

>  <NddssS>
0

>  <NsCl>
0

>  <NsBr>
0

>  <NsI>
0

>  <fragCpx>
212.06

>  <fMF>
0.29

>  <nHBAcc>
6

>  <nHBDon>
1

>  <Kier1>
22.2

>  <Kier2>
7.55

>  <Lipinski>
1

>  <GhoseFilter>
1

>  <FilterItLogS>
-3.95

>  <VMcGowan>
305.21

>  <LabuteASA>
170.61

>  <PEOE_VSA1>
9.84

>  <PEOE_VSA2>
19.18

>  <PEOE_VSA3>
0

>  <PEOE_VSA4>
0

>  <PEOE_VSA5>
0

>  <PEOE_VSA6>
19.42

>  <PEOE_VSA7>
55.43

>  <PEOE_VSA8>
31.1

>  <PEOE_VSA9>
0

>  <PEOE_VSA10>
11.38

>  <PEOE_VSA11>
12.39

>  <PEOE_VSA12>
5.78

>  <PEOE_VSA13>
0

>  <SMR_VSA1>
29.02

>  <SMR_VSA2>
0

>  <SMR_VSA3>
0

>  <SMR_VSA4>
28.58

>  <SMR_VSA5>
71.32

>  <SMR_VSA6>
6.61

>  <SMR_VSA7>
11.65

>  <SMR_VSA8>
0

>  <SMR_VSA9>
0

>  <SlogP_VSA1>
0

>  <SlogP_VSA2>
40.63

>  <SlogP_VSA3>
23.92

>  <SlogP_VSA4>
28.58

>  <SlogP_VSA5>
65.72

>  <SlogP_VSA6>
11.65

>  <SlogP_VSA7>
0

>  <SlogP_VSA8>
0

>  <SlogP_VSA9>
0

>  <SlogP_VSA10>
0

>  <SlogP_VSA11>
0

>  <EState_VSA1>
29.38

>  <EState_VSA2>
41.16

>  <EState_VSA3>
25.68

>  <EState_VSA4>
18.41

>  <EState_VSA5>
6.92

>  <EState_VSA6>
6.08

>  <EState_VSA7>
6.92

>  <EState_VSA8>
6.92

>  <EState_VSA9>
4.74

>  <EState_VSA10>
24.28

>  <VSA_EState1>
4.86

>  <VSA_EState2>
49.37

>  <VSA_EState3>
11.42

>  <VSA_EState4>
-1.68

>  <VSA_EState5>
-0.81

>  <VSA_EState6>
0

>  <VSA_EState7>
5.66

>  <VSA_EState8>
4.76

>  <VSA_EState9>
0

>  <apol>
63.23

>  <bpol>
35.3

>  <nRing>
4

>  <nHRing>
0

>  <naRing>
0

>  <naHRing>
0

>  <nARing 2>
4

>  <nAHRing 2>
0

>  <nFRing>
1

>  <nFHRing>
0

>  <nFaRing>
0

>  <nFaHRing>
0

>  <nFARing 2>
1

>  <nFAHRing 2>
0

>  <nRot>
3

>  <SLogP>
2.56

>  <SMR>
103.69

>  <TopoPSA(NO)>
97.74

>  <TopoPSA>
97.74

>  <JGI1>
0.3

>  <JGI2>
0.14

>  <JGI3>
0.07

>  <JGI4>
0.06

>  <JGI5>
0.03

>  <Diameter>
14

>  <Radius>
7

>  <TMWC10>
141.61

>  <TSRW10>
80.5

>  <MW>
402.2

>  <AMW>
6.82

>  <WPath>
2039

>  <WPol>
62

>  <Zagreb1>
168

>  <Zagreb2>
212

>  <mZagreb2>
6.02

>  <yes>


>  <nAR-cont>
0.199399

>  <nHA-cont>
0.785905698

>  <MWHBN>
0.349041452

>  <MWHBN-cont>
0.673830754

>  <TPSA-cont>
0.317714107

>  <pka_cont>
0.97

>  <yes.1>


>  <BBB_SCORE>
3.116479043

>  <MMFF94 Energy>
94.711

$$$$
Compound 851
Actelion Java MolfileCreator 2.0

  0  0  0  0  0  0              0 V3000
M  V30 BEGIN CTAB
M  V30 COUNTS 61 64 0 0 0
M  V30 BEGIN ATOM
M  V30 1 O 1.1269 2.0936 -6.291 0
M  V30 2 C 1.3173 1.8014 -5.1134 0
M  V30 3 C 1.4023 2.8755 -4.0961 0
M  V30 4 C 1.359 0.3746 -4.6289 0
M  V30 5 C 1.6848 2.5953 -2.8116 0
M  V30 6 C 2.3596 0.2519 -3.4928 0
M  V30 7 C 2.0704 1.2012 -2.2944 0 CFG=2
M  V30 8 C 1.4849 3.6412 -1.7441 0
M  V30 9 C 0.8523 0.7366 -1.4096 0 CFG=1
M  V30 10 C 3.4041 1.2921 -1.5096 0
M  V30 11 C 0.3521 3.1955 -0.8189 0
M  V30 12 C 0.911 -0.7237 -0.8829 0 CFG=1
M  V30 13 C 0.5451 1.767 -0.2641 0 CFG=1
M  V30 14 O 2.1175 -0.9656 -0.1751 0
M  V30 15 C -0.291 -1.1018 0.01 0
M  V30 16 C -0.7084 1.2991 0.4899 0 CFG=1
M  V30 17 C -0.558 -0.0943 1.1522 0 CFG=1
M  V30 18 C -1.2455 2.176 1.6127 0
M  V30 19 C -1.9465 -0.1983 1.8632 0 CFG=1
M  V30 20 C 0.5736 -0.1449 2.2137 0
M  V30 21 C -2.1751 1.2433 2.4097 0
M  V30 22 O -2.9708 -0.4693 0.8966 0
M  V30 23 C -2.0664 -1.2723 2.9701 0
M  V30 24 O -2.3336 -0.9706 4.1366 0
M  V30 25 C -1.8754 -2.7249 2.5453 0
M  V30 26 O -2.3545 -3.6132 3.5568 0
M  V30 27 C -2.0819 -4.9209 3.311 0
M  V30 28 O -1.4921 -5.3433 2.3264 0
M  V30 29 C -2.6092 -5.7774 4.4204 0
M  V30 30 H 1.1195 3.8648 -4.4383 0
M  V30 31 H 1.6745 -0.2654 -5.46 0
M  V30 32 H 0.3529 0.071 -4.3238 0
M  V30 33 H 3.3518 0.4892 -3.9056 0
M  V30 34 H 2.425 -0.7912 -3.1672 0
M  V30 35 H 2.409 3.7975 -1.1776 0
M  V30 36 H 1.2266 4.6143 -2.1794 0
M  V30 37 H -0.0332 0.7563 -2.0659 0
M  V30 38 H 4.1503 1.8648 -2.0752 0
M  V30 39 H 3.3035 1.7779 -0.5358 0
M  V30 40 H 3.8402 0.3029 -1.3368 0
M  V30 41 H -0.5976 3.2482 -1.3683 0
M  V30 42 H 0.2733 3.9099 0.0092 0
M  V30 43 H 0.9053 -1.4084 -1.7382 0
M  V30 44 H 1.3884 1.8065 0.4315 0
M  V30 45 H 2.1722 -1.9208 0.0035 0
M  V30 46 H -0.1241 -2.1011 0.4244 0
M  V30 47 H -1.1729 -1.1733 -0.6384 0
M  V30 48 H -1.5131 1.2433 -0.2617 0
M  V30 49 H -1.7917 3.0447 1.2309 0
M  V30 50 H -0.4375 2.5489 2.2522 0
M  V30 51 H 1.5293 0.2297 1.8431 0
M  V30 52 H 0.7457 -1.1719 2.5522 0
M  V30 53 H 0.3388 0.447 3.1045 0
M  V30 54 H -1.9323 1.3389 3.4735 0
M  V30 55 H -3.2167 1.5609 2.284 0
M  V30 56 H -3.8315 -0.2745 1.3126 0
M  V30 57 H -2.4379 -2.9041 1.6239 0
M  V30 58 H -0.8064 -2.8938 2.3926 0
M  V30 59 H -2.1312 -5.4989 5.363 0
M  V30 60 H -3.6941 -5.6661 4.4911 0
M  V30 61 H -2.3791 -6.8256 4.2095 0
M  V30 END ATOM
M  V30 BEGIN BOND
M  V30 1 2 1 2
M  V30 2 1 2 3
M  V30 3 1 2 4
M  V30 4 2 3 5
M  V30 5 1 4 6
M  V30 6 1 5 7
M  V30 7 1 5 8
M  V30 8 1 7 9
M  V30 9 1 7 10
M  V30 10 1 8 11
M  V30 11 1 9 12
M  V30 12 1 9 13
M  V30 13 1 12 14
M  V30 14 1 12 15
M  V30 15 1 13 16
M  V30 16 1 15 17
M  V30 17 1 16 18
M  V30 18 1 17 19
M  V30 19 1 17 20
M  V30 20 1 18 21
M  V30 21 1 19 22
M  V30 22 1 19 23
M  V30 23 2 23 24
M  V30 24 1 23 25
M  V30 25 1 25 26
M  V30 26 1 26 27
M  V30 27 2 27 28
M  V30 28 1 27 29
M  V30 29 1 6 7
M  V30 30 1 11 13
M  V30 31 1 16 17
M  V30 32 1 19 21
M  V30 33 1 3 30
M  V30 34 1 4 31
M  V30 35 1 4 32
M  V30 36 1 6 33
M  V30 37 1 6 34
M  V30 38 1 8 35
M  V30 39 1 8 36
M  V30 40 1 9 37
M  V30 41 1 10 38
M  V30 42 1 10 39
M  V30 43 1 10 40
M  V30 44 1 11 41
M  V30 45 1 11 42
M  V30 46 1 12 43
M  V30 47 1 13 44
M  V30 48 1 14 45
M  V30 49 1 15 46
M  V30 50 1 15 47
M  V30 51 1 16 48
M  V30 52 1 18 49
M  V30 53 1 18 50
M  V30 54 1 20 51
M  V30 55 1 20 52
M  V30 56 1 20 53
M  V30 57 1 21 54
M  V30 58 1 21 55
M  V30 59 1 22 56
M  V30 60 1 25 57
M  V30 61 1 25 58
M  V30 62 1 29 59
M  V30 63 1 29 60
M  V30 64 1 29 61
M  V30 END BOND
M  V30 BEGIN COLLECTION
M  V30 MDLV30/STEABS ATOMS=(7 7 9 12 13 16 17 19)
M  V30 END COLLECTION
M  V30 END CTAB
M  END
>  <Column 1>
1020

>  <level_0>
1156

>  <index>
1156

>  <Unnamed: 0>
1156

>  <NO.>
1168

>  <Name>
hydrocortisone-acetate

>  <IUPAC_name>
[2-[(8s-9s-10r-11s-13s-14s-17r)-11-17-dihydroxy-10-13-dimethyl-3-oxo-2-6-7-8-9-11-12-14-15-16-decahydro-1h-cyclopenta[a]phenanthren-17-yl]-2-oxoethyl] acetate

>  <SMILES>
CC(=O)OCC(=O)[C@@]1(O)CC[C@H]2[C@@H]3CCC4=CC(=O)CC[C@]4(C)[C@H]3[C@@H](O)C[C@@]21C

>  <CID>
5744

>  <logBB>


>  <BBB+/BBB->
BBB+

>  <Inchi>
InChI=1S/C23H32O6/c1-13(24)29-12-19(27)23(28)9-7-17-16-5-4-14-10-15(25)6-8-21(14-2)20(16)18(26)11-22(17-23)3/h10-16-18-20-26-28H-4-9-11-12H2-1-3H3/t16--17--18--20+-21--22--23-/m0/s1

>  <threshold>
-1

>  <reference>
R1|R6|R27|R30|

>  <group>
B

>  <Class>
1

>  <ABC>
23.19

>  <ABCGG>
18.76

>  <nAcid>
0

>  <nBase>
0

>  <nAromAtom>
0

>  <nAromBond>
0

>  <nAtom>
61

>  <nHeavyAtom>
29

>  <nSpiro>
0

>  <nBridgehead>
0

>  <nHetero>
6

>  <nN>
0

>  <nO>
6

>  <nF>
0

>  <BalabanJ>
1.6

>  <BertzCT>
786.24

>  <nBonds>
64

>  <nBondsO>
32

>  <nBondsS>
60

>  <nBondsD>
4

>  <nBondsT>
0

>  <nBondsA>
0

>  <nBondsM>
4

>  <nBondsKS>
60

>  <nBondsKD>
4

>  <RNCG>
0.18

>  <RPCG>
0.12

>  <FCSP3>
0.78

>  <SZ>
36.33

>  <Sm>
33.68

>  <Sv>
35.96

>  <Sse>
61.19

>  <Sp>
38.66

>  <Si>
68.9

>  <MZ>
0.6

>  <Mm>
0.55

>  <Mv>
0.59

>  <Mse>
1

>  <Mp>
0.63

>  <Mi>
1.13

>  <NsCH3>
3

>  <NdCH2>
0

>  <NssCH2>
8

>  <NtCH>
0

>  <NdsCH>
1

>  <NaaCH>
0

>  <NsssCH>
4

>  <NddC>
0

>  <NtsC>
0

>  <NdssC>
4

>  <NaasC>
0

>  <NaaaC>
0

>  <NssssC>
3

>  <NsNH3>
0

>  <NsNH2>
0

>  <NssNH2>
0

>  <NdNH>
0

>  <NssNH>
0

>  <NaaNH>
0

>  <NtN>
0

>  <NsssNH>
0

>  <NdsN>
0

>  <NaaN>
0

>  <NsssN>
0

>  <NddsN>
0

>  <NaasN>
0

>  <NssssN>
0

>  <NsOH>
2

>  <NdO>
3

>  <NssO>
1

>  <NaaO>
0

>  <NsF>
0

>  <NsSiH3>
0

>  <NssSiH2>
0

>  <NsssSiH>
0

>  <NssssSi>
0

>  <NsPH2>
0

>  <NssPH>
0

>  <NsssP>
0

>  <NdsssP>
0

>  <NsssssP>
0

>  <NsSH>
0

>  <NdS>
0

>  <NssS>
0

>  <NaaS>
0

>  <NdssS>
0

>  <NddssS>
0

>  <NsCl>
0

>  <NsBr>
0

>  <NsI>
0

>  <fragCpx>
212.06

>  <fMF>
0.28

>  <nHBAcc>
6

>  <nHBDon>
2

>  <Kier1>
22.2

>  <Kier2>
7.55

>  <Lipinski>
1

>  <GhoseFilter>
1

>  <FilterItLogS>
-3.25

>  <VMcGowan>
309.51

>  <LabuteASA>
171.24

>  <PEOE_VSA1>
14.95

>  <PEOE_VSA2>
14.38

>  <PEOE_VSA3>
0

>  <PEOE_VSA4>
0

>  <PEOE_VSA5>
0

>  <PEOE_VSA6>
19.42

>  <PEOE_VSA7>
67.77

>  <PEOE_VSA8>
18.76

>  <PEOE_VSA9>
6.1

>  <PEOE_VSA10>
5.6

>  <PEOE_VSA11>
12.39

>  <PEOE_VSA12>
5.78

>  <PEOE_VSA13>
0

>  <SMR_VSA1>
29.33

>  <SMR_VSA2>
0

>  <SMR_VSA3>
0

>  <SMR_VSA4>
28.58

>  <SMR_VSA5>
77.42

>  <SMR_VSA6>
6.61

>  <SMR_VSA7>
11.65

>  <SMR_VSA8>
0

>  <SMR_VSA9>
0

>  <SlogP_VSA1>
0

>  <SlogP_VSA2>
46.06

>  <SlogP_VSA3>
19.12

>  <SlogP_VSA4>
28.58

>  <SlogP_VSA5>
65.72

>  <SlogP_VSA6>
11.65

>  <SlogP_VSA7>
0

>  <SlogP_VSA8>
0

>  <SlogP_VSA9>
0

>  <SlogP_VSA10>
0

>  <SlogP_VSA11>
0

>  <EState_VSA1>
35.48

>  <EState_VSA2>
28.95

>  <EState_VSA3>
19.26

>  <EState_VSA4>
31.26

>  <EState_VSA5>
6.92

>  <EState_VSA6>
6.08

>  <EState_VSA7>
6.92

>  <EState_VSA8>
6.92

>  <EState_VSA9>
4.74

>  <EState_VSA10>
24.6

>  <VSA_EState1>
4.89

>  <VSA_EState2>
35.97

>  <VSA_EState3>
22.76

>  <VSA_EState4>
-1.36

>  <VSA_EState5>
-0.46

>  <VSA_EState6>
0

>  <VSA_EState7>
5.54

>  <VSA_EState8>
4.92

>  <VSA_EState9>
0

>  <apol>
64.56

>  <bpol>
36.44

>  <nRing>
4

>  <nHRing>
0

>  <naRing>
0

>  <naHRing>
0

>  <nARing 2>
4

>  <nAHRing 2>
0

>  <nFRing>
1

>  <nFHRing>
0

>  <nFaRing>
0

>  <nFaHRing>
0

>  <nFARing 2>
1

>  <nFAHRing 2>
0

>  <nRot>
3

>  <SLogP>
2.35

>  <SMR>
104.69

>  <TopoPSA(NO)>
100.9

>  <TopoPSA>
100.9

>  <JGI1>
0.3

>  <JGI2>
0.14

>  <JGI3>
0.07

>  <JGI4>
0.06

>  <JGI5>
0.03

>  <Diameter>
14

>  <Radius>
7

>  <TMWC10>
141.61

>  <TSRW10>
80.5

>  <MW>
404.22

>  <AMW>
6.63

>  <WPath>
2039

>  <WPol>
62

>  <Zagreb1>
168

>  <Zagreb2>
212

>  <mZagreb2>
6.02

>  <yes>


>  <nAR-cont>
0.199399

>  <nHA-cont>
0.785905698

>  <MWHBN>
0.39790655

>  <MWHBN-cont>
0.484303475

>  <TPSA-cont>
0.295655345

>  <pka_cont>
0.97

>  <yes.1>


>  <BBB_SCORE>
2.788070601

>  <MMFF94 Energy>
108.03

$$$$
Compound 852
Actelion Java MolfileCreator 2.0

  0  0  0  0  0  0              0 V3000
M  V30 BEGIN CTAB
M  V30 COUNTS 62 65 0 0 0
M  V30 BEGIN ATOM
M  V30 1 O 5.3218 4.7563 -0.4024 0
M  V30 2 C 4.2186 4.2524 -0.572 0
M  V30 3 C 4.011 3.1722 -1.558 0
M  V30 4 C 3.0482 4.6957 0.2015 0
M  V30 5 C 2.811 2.5951 -1.7638 0
M  V30 6 C 1.8488 4.1346 0.0079 0
M  V30 7 C 1.542 3.0193 -0.9873 0 CFG=2
M  V30 8 C 2.6037 1.4462 -2.7464 0 CFG=2
M  V30 9 C 1.017 1.7465 -0.2184 0 CFG=1
M  V30 10 C 0.5305 3.6184 -1.9913 0
M  V30 11 C 2.0861 0.2216 -1.9794 0
M  V30 12 C 3.8263 1.0397 -3.5807 0
M  V30 13 C -0.2163 1.9718 0.7083 0 CFG=1
M  V30 14 C 0.8084 0.5243 -1.1756 0 CFG=1
M  V30 15 O -1.3017 2.5341 -0.0165 0
M  V30 16 C -0.6793 0.6864 1.4277 0
M  V30 17 C 0.3988 -0.6964 -0.3368 0 CFG=1
M  V30 18 C -0.9091 -0.4967 0.466 0 CFG=1
M  V30 19 C 0.1799 -2.0342 -1.0365 0
M  V30 20 C -1.0177 -1.9074 1.1355 0 CFG=1
M  V30 21 C -2.1389 -0.2337 -0.4502 0
M  V30 22 C -0.6526 -2.8618 -0.0341 0
M  V30 23 O -0.0078 -2.0289 2.1491 0
M  V30 24 C -2.3831 -2.2205 1.797 0
M  V30 25 O -3.1803 -1.3337 2.1118 0
M  V30 26 C -2.6631 -3.6889 2.1099 0
M  V30 27 O -3.8857 -3.8415 2.8296 0
M  V30 28 C -4.1638 -5.1274 3.1669 0
M  V30 29 O -3.4604 -6.0902 2.8952 0
M  V30 30 C -5.4563 -5.1997 3.9194 0
M  V30 31 H 4.9129 2.8825 -2.0828 0
M  V30 32 H 3.2108 5.4968 0.9117 0
M  V30 33 H 1.0125 4.5267 0.5836 0
M  V30 34 H 1.8391 1.7536 -3.4707 0
M  V30 35 H 1.8292 1.4513 0.468 0
M  V30 36 H 1.022 4.3287 -2.6691 0
M  V30 37 H 0.052 2.8581 -2.6153 0
M  V30 38 H -0.2699 4.1775 -1.4939 0
M  V30 39 H 2.8689 -0.1486 -1.303 0
M  V30 40 H 1.8812 -0.5864 -2.6927 0
M  V30 41 H 3.5615 0.243 -4.2848 0
M  V30 42 H 4.6419 0.666 -2.9519 0
M  V30 43 H 4.1999 1.8836 -4.1707 0
M  V30 44 H 0.0458 2.696 1.4874 0
M  V30 45 H 0.0201 0.7543 -1.8988 0
M  V30 46 H -2.0561 2.6133 0.5946 0
M  V30 47 H -1.5995 0.8869 1.9895 0
M  V30 48 H 0.0885 0.4284 2.1672 0
M  V30 49 H 1.2259 -0.8593 0.3734 0
M  V30 50 H -0.3684 -1.9111 -1.9772 0
M  V30 51 H 1.1266 -2.5331 -1.2679 0
M  V30 52 H -2.992 0.133 0.1302 0
M  V30 53 H -1.9475 0.5122 -1.2236 0
M  V30 54 H -2.4751 -1.1342 -0.9735 0
M  V30 55 H -1.5416 -3.2468 -0.5458 0
M  V30 56 H -0.0714 -3.7245 0.3102 0
M  V30 57 H 0.1712 -2.9671 2.3287 0
M  V30 58 H -2.7366 -4.2357 1.165 0
M  V30 59 H -1.8346 -4.0698 2.7165 0
M  V30 60 H -5.3829 -4.6144 4.8394 0
M  V30 61 H -6.2716 -4.8308 3.2921 0
M  V30 62 H -5.6635 -6.2405 4.1841 0
M  V30 END ATOM
M  V30 BEGIN BOND
M  V30 1 2 1 2
M  V30 2 1 2 3
M  V30 3 1 2 4
M  V30 4 2 3 5
M  V30 5 2 4 6
M  V30 6 1 5 7
M  V30 7 1 5 8
M  V30 8 1 7 9
M  V30 9 1 7 10
M  V30 10 1 8 11
M  V30 11 1 8 12
M  V30 12 1 9 13
M  V30 13 1 9 14
M  V30 14 1 13 15
M  V30 15 1 13 16
M  V30 16 1 14 17
M  V30 17 1 16 18
M  V30 18 1 17 19
M  V30 19 1 18 20
M  V30 20 1 18 21
M  V30 21 1 19 22
M  V30 22 1 20 23
M  V30 23 1 20 24
M  V30 24 2 24 25
M  V30 25 1 24 26
M  V30 26 1 26 27
M  V30 27 1 27 28
M  V30 28 2 28 29
M  V30 29 1 28 30
M  V30 30 1 6 7
M  V30 31 1 11 14
M  V30 32 1 17 18
M  V30 33 1 20 22
M  V30 34 1 3 31
M  V30 35 1 4 32
M  V30 36 1 6 33
M  V30 37 1 8 34
M  V30 38 1 9 35
M  V30 39 1 10 36
M  V30 40 1 10 37
M  V30 41 1 10 38
M  V30 42 1 11 39
M  V30 43 1 11 40
M  V30 44 1 12 41
M  V30 45 1 12 42
M  V30 46 1 12 43
M  V30 47 1 13 44
M  V30 48 1 14 45
M  V30 49 1 15 46
M  V30 50 1 16 47
M  V30 51 1 16 48
M  V30 52 1 17 49
M  V30 53 1 19 50
M  V30 54 1 19 51
M  V30 55 1 21 52
M  V30 56 1 21 53
M  V30 57 1 21 54
M  V30 58 1 22 55
M  V30 59 1 22 56
M  V30 60 1 23 57
M  V30 61 1 26 58
M  V30 62 1 26 59
M  V30 63 1 30 60
M  V30 64 1 30 61
M  V30 65 1 30 62
M  V30 END BOND
M  V30 BEGIN COLLECTION
M  V30 MDLV30/STEABS ATOMS=(8 7 8 9 13 14 17 18 20)
M  V30 END COLLECTION
M  V30 END CTAB
M  END
>  <Column 1>
1021

>  <level_0>
1157

>  <index>
1157

>  <Unnamed: 0>
1157

>  <NO.>
1169

>  <Name>
methylprednisolone-acetate

>  <IUPAC_name>
[2-[(6s-8s-9s-10r-11s-13s-14s-17r)-11-17-dihydroxy-6-10-13-trimethyl-3-oxo-7-8-9-11-12-14-15-16-octahydro-6h-cyclopenta[a]phenanthren-17-yl]-2-oxoethyl] acetate

>  <SMILES>
CC(=O)OCC(=O)[C@@]1(O)CC[C@H]2[C@@H]3C[C@H](C)C4=CC(=O)C=C[C@]4(C)[C@H]3[C@@H](O)C[C@@]21C

>  <CID>
5877

>  <logBB>


>  <BBB+/BBB->
BBB+

>  <Inchi>
InChI=1S/C24H32O6/c1-13-9-16-17-6-8-24(29-20(28)12-30-14(2)25)23(17-4)11-19(27)21(16)22(3)7-5-15(26)10-18(13)22/h5-7-10-13-16-17-19-21-27-29H-6-8-9-11-12H2-1-4H3/t13--16--17--19--21+-22--23--24-/m0/s1

>  <threshold>
-1

>  <reference>
R1|R6|R27|R30|

>  <group>
B

>  <Class>
1

>  <ABC>
23.96

>  <ABCGG>
19.6

>  <nAcid>
0

>  <nBase>
0

>  <nAromAtom>
0

>  <nAromBond>
0

>  <nAtom>
62

>  <nHeavyAtom>
30

>  <nSpiro>
0

>  <nBridgehead>
0

>  <nHetero>
6

>  <nN>
0

>  <nO>
6

>  <nF>
0

>  <BalabanJ>
1.64

>  <BertzCT>
857.76

>  <nBonds>
65

>  <nBondsO>
33

>  <nBondsS>
60

>  <nBondsD>
5

>  <nBondsT>
0

>  <nBondsA>
0

>  <nBondsM>
5

>  <nBondsKS>
60

>  <nBondsKD>
5

>  <RNCG>
0.18

>  <RPCG>
0.12

>  <FCSP3>
0.71

>  <SZ>
37.33

>  <Sm>
34.68

>  <Sv>
36.96

>  <Sse>
62.19

>  <Sp>
39.66

>  <Si>
69.9

>  <MZ>
0.6

>  <Mm>
0.56

>  <Mv>
0.6

>  <Mse>
1

>  <Mp>
0.64

>  <Mi>
1.13

>  <NsCH3>
4

>  <NdCH2>
0

>  <NssCH2>
5

>  <NtCH>
0

>  <NdsCH>
3

>  <NaaCH>
0

>  <NsssCH>
5

>  <NddC>
0

>  <NtsC>
0

>  <NdssC>
4

>  <NaasC>
0

>  <NaaaC>
0

>  <NssssC>
3

>  <NsNH3>
0

>  <NsNH2>
0

>  <NssNH2>
0

>  <NdNH>
0

>  <NssNH>
0

>  <NaaNH>
0

>  <NtN>
0

>  <NsssNH>
0

>  <NdsN>
0

>  <NaaN>
0

>  <NsssN>
0

>  <NddsN>
0

>  <NaasN>
0

>  <NssssN>
0

>  <NsOH>
2

>  <NdO>
3

>  <NssO>
1

>  <NaaO>
0

>  <NsF>
0

>  <NsSiH3>
0

>  <NssSiH2>
0

>  <NsssSiH>
0

>  <NssssSi>
0

>  <NsPH2>
0

>  <NssPH>
0

>  <NsssP>
0

>  <NdsssP>
0

>  <NsssssP>
0

>  <NsSH>
0

>  <NdS>
0

>  <NssS>
0

>  <NaaS>
0

>  <NdssS>
0

>  <NddssS>
0

>  <NsCl>
0

>  <NsBr>
0

>  <NsI>
0

>  <fragCpx>
219.06

>  <fMF>
0.27

>  <nHBAcc>
6

>  <nHBDon>
2

>  <Kier1>
23.17

>  <Kier2>
7.8

>  <Lipinski>
1

>  <GhoseFilter>
1

>  <FilterItLogS>
-2.93

>  <VMcGowan>
319.3

>  <LabuteASA>
176.92

>  <PEOE_VSA1>
14.95

>  <PEOE_VSA2>
14.38

>  <PEOE_VSA3>
0

>  <PEOE_VSA4>
0

>  <PEOE_VSA5>
0

>  <PEOE_VSA6>
32.42

>  <PEOE_VSA7>
55.59

>  <PEOE_VSA8>
23.67

>  <PEOE_VSA9>
6.1

>  <PEOE_VSA10>
5.6

>  <PEOE_VSA11>
12.39

>  <PEOE_VSA12>
5.78

>  <PEOE_VSA13>
0

>  <SMR_VSA1>
29.33

>  <SMR_VSA2>
0

>  <SMR_VSA3>
0

>  <SMR_VSA4>
34.5

>  <SMR_VSA5>
65.08

>  <SMR_VSA6>
6.61

>  <SMR_VSA7>
23.8

>  <SMR_VSA8>
0

>  <SMR_VSA9>
0

>  <SlogP_VSA1>
0

>  <SlogP_VSA2>
46.06

>  <SlogP_VSA3>
19.12

>  <SlogP_VSA4>
34.5

>  <SlogP_VSA5>
53.38

>  <SlogP_VSA6>
23.8

>  <SlogP_VSA7>
0

>  <SlogP_VSA8>
0

>  <SlogP_VSA9>
0

>  <SlogP_VSA10>
0

>  <SlogP_VSA11>
0

>  <EState_VSA1>
40.89

>  <EState_VSA2>
29.45

>  <EState_VSA3>
19.26

>  <EState_VSA4>
11.99

>  <EState_VSA5>
6.92

>  <EState_VSA6>
12.15

>  <EState_VSA7>
13

>  <EState_VSA8>
13.85

>  <EState_VSA9>
4.74

>  <EState_VSA10>
24.6

>  <VSA_EState1>
4.89

>  <VSA_EState2>
36.11

>  <VSA_EState3>
22.86

>  <VSA_EState4>
-1.72

>  <VSA_EState5>
-0.71

>  <VSA_EState6>
0

>  <VSA_EState7>
6.71

>  <VSA_EState8>
6.94

>  <VSA_EState9>
0

>  <apol>
66.23

>  <bpol>
36.44

>  <nRing>
4

>  <nHRing>
0

>  <naRing>
0

>  <naHRing>
0

>  <nARing 2>
4

>  <nAHRing 2>
0

>  <nFRing>
1

>  <nFHRing>
0

>  <nFaRing>
0

>  <nFaHRing>
0

>  <nFARing 2>
1

>  <nFAHRing 2>
0

>  <nRot>
3

>  <SLogP>
2.37

>  <SMR>
109.14

>  <TopoPSA(NO)>
100.9

>  <TopoPSA>
100.9

>  <JGI1>
0.3

>  <JGI2>
0.14

>  <JGI3>
0.07

>  <JGI4>
0.06

>  <JGI5>
0.04

>  <Diameter>
14

>  <Radius>
7

>  <TMWC10>
144.05

>  <TSRW10>
81.69

>  <MW>
416.22

>  <AMW>
6.71

>  <WPath>
2199

>  <WPol>
65

>  <Zagreb1>
174

>  <Zagreb2>
220

>  <mZagreb2>
6.22

>  <yes>


>  <nAR-cont>
0.199399

>  <nHA-cont>
0.74523694

>  <MWHBN>
0.392128596

>  <MWHBN-cont>
0.507073461

>  <TPSA-cont>
0.295655345

>  <pka_cont>
0.97

>  <yes.1>


>  <BBB_SCORE>
2.78155682

>  <MMFF94 Energy>
118.66

$$$$
Compound 853
Actelion Java MolfileCreator 2.0

  0  0  0  0  0  0              0 V3000
M  V30 BEGIN CTAB
M  V30 COUNTS 57 60 0 0 0
M  V30 BEGIN ATOM
M  V30 1 Cl 1.7959 0.0 -5.6409 0
M  V30 2 C 1.9348 -0.2119 -3.8713 0 CFG=2
M  V30 3 C 2.1583 -1.6462 -3.4131 0
M  V30 4 C 0.6722 0.3554 -3.2187 0
M  V30 5 C 2.1952 -2.7021 -4.2515 0
M  V30 6 C 2.3 -1.807 -1.8764 0 CFG=2
M  V30 7 C 0.7371 0.2708 -1.6859 0 CFG=2
M  V30 8 C 2.3577 -4.0943 -3.7852 0
M  V30 9 C 2.4284 -3.2765 -1.4857 0
M  V30 10 C 1.0193 -1.1894 -1.2182 0 CFG=2
M  V30 11 C 3.6085 -1.1163 -1.426 0
M  V30 12 C -0.5742 0.7515 -1.0421 0 CFG=1
M  V30 13 O 2.3938 -5.0305 -4.5726 0
M  V30 14 C 2.4592 -4.31 -2.3347 0
M  V30 15 C 0.9648 -1.2265 0.3212 0
M  V30 16 C -0.5358 0.7598 0.5107 0 CFG=2
M  V30 17 C -1.083 2.1428 -1.395 0
M  V30 18 O 1.8643 -1.6797 1.0252 0
M  V30 19 C -0.3064 -0.6877 0.966 0
M  V30 20 C -1.9395 1.3719 0.8102 0 CFG=1
M  V30 21 C 0.5892 1.6571 1.0938 0
M  V30 22 C -2.0823 2.4815 -0.2736 0
M  V30 23 O -2.9447 0.3853 0.5593 0
M  V30 24 C -2.1049 1.9322 2.2445 0
M  V30 25 O -1.915 3.1247 2.4963 0
M  V30 26 C -2.4997 0.9333 3.3291 0
M  V30 27 O -2.5253 1.5681 4.6086 0
M  V30 28 C -2.9057 0.7469 5.6215 0
M  V30 29 O -3.2103 -0.4302 5.4948 0
M  V30 30 C -2.9002 1.4904 6.9215 0
M  V30 31 H 2.8001 0.3955 -3.5891 0
M  V30 32 H 0.5476 1.4035 -3.5188 0
M  V30 33 H -0.2143 -0.1844 -3.5792 0
M  V30 34 H 2.0935 -2.6221 -5.3279 0
M  V30 35 H 1.5514 0.9262 -1.3575 0
M  V30 36 H 2.5359 -3.5048 -0.4256 0
M  V30 37 H 0.1676 -1.8133 -1.5359 0
M  V30 38 H 4.4604 -1.4584 -2.0278 0
M  V30 39 H 3.8574 -1.3344 -0.382 0
M  V30 40 H 3.5667 -0.0272 -1.5189 0
M  V30 41 H -1.3557 0.0468 -1.3707 0
M  V30 42 H 2.5703 -5.335 -2.0022 0
M  V30 43 H -0.2686 2.8756 -1.4151 0
M  V30 44 H -1.5692 2.1644 -2.3758 0
M  V30 45 H -1.1267 -1.3553 0.681 0
M  V30 46 H -0.1947 -0.749 2.053 0
M  V30 47 H 1.5876 1.3342 0.7848 0
M  V30 48 H 0.5805 1.6239 2.1895 0
M  V30 49 H 0.4854 2.7059 0.7996 0
M  V30 50 H -3.099 2.5159 -0.6819 0
M  V30 51 H -1.8541 3.4834 0.1048 0
M  V30 52 H -3.8039 0.8371 0.4622 0
M  V30 53 H -3.4987 0.5519 3.0928 0
M  V30 54 H -1.7664 0.1243 3.3471 0
M  V30 55 H -1.892 1.8529 7.1368 0
M  V30 56 H -3.6073 2.3225 6.8757 0
M  V30 57 H -3.2073 0.8158 7.7259 0
M  V30 END ATOM
M  V30 BEGIN BOND
M  V30 1 1 1 2
M  V30 2 1 2 3
M  V30 3 1 2 4
M  V30 4 2 3 5
M  V30 5 1 3 6
M  V30 6 1 4 7
M  V30 7 1 5 8
M  V30 8 1 6 9
M  V30 9 1 6 10
M  V30 10 1 6 11
M  V30 11 1 7 12
M  V30 12 2 8 13
M  V30 13 1 8 14
M  V30 14 1 10 15
M  V30 15 1 12 16
M  V30 16 1 12 17
M  V30 17 2 15 18
M  V30 18 1 15 19
M  V30 19 1 16 20
M  V30 20 1 16 21
M  V30 21 1 17 22
M  V30 22 1 20 23
M  V30 23 1 20 24
M  V30 24 2 24 25
M  V30 25 1 24 26
M  V30 26 1 26 27
M  V30 27 1 27 28
M  V30 28 2 28 29
M  V30 29 1 28 30
M  V30 30 1 7 10
M  V30 31 2 9 14
M  V30 32 1 16 19
M  V30 33 1 20 22
M  V30 34 1 2 31
M  V30 35 1 4 32
M  V30 36 1 4 33
M  V30 37 1 5 34
M  V30 38 1 7 35
M  V30 39 1 9 36
M  V30 40 1 10 37
M  V30 41 1 11 38
M  V30 42 1 11 39
M  V30 43 1 11 40
M  V30 44 1 12 41
M  V30 45 1 14 42
M  V30 46 1 17 43
M  V30 47 1 17 44
M  V30 48 1 19 45
M  V30 49 1 19 46
M  V30 50 1 21 47
M  V30 51 1 21 48
M  V30 52 1 21 49
M  V30 53 1 22 50
M  V30 54 1 22 51
M  V30 55 1 23 52
M  V30 56 1 26 53
M  V30 57 1 26 54
M  V30 58 1 30 55
M  V30 59 1 30 56
M  V30 60 1 30 57
M  V30 END BOND
M  V30 BEGIN COLLECTION
M  V30 MDLV30/STEABS ATOMS=(7 2 6 7 10 12 16 20)
M  V30 END COLLECTION
M  V30 END CTAB
M  END
>  <Column 1>
1022

>  <level_0>
1158

>  <index>
1158

>  <Unnamed: 0>
1158

>  <NO.>
1170

>  <Name>
chloroprednisone-acetate

>  <IUPAC_name>
[2-[(6s-8s-9s-10r-13s-14s-17r)-6-chloro-17-hydroxy-10-13-dimethyl-3-11-dioxo-6-7-8-9-12-14-15-16-octahydrocyclopenta[a]phenanthren-17-yl]-2-oxoethyl] acetate

>  <SMILES>
CC(=O)OCC(=O)[C@@]1(O)CC[C@H]2[C@@H]3C[C@H](Cl)C4=CC(=O)C=C[C@]4(C)[C@H]3C(=O)C[C@@]21C

>  <CID>
235970

>  <logBB>


>  <BBB+/BBB->
BBB+

>  <Inchi>
InChI=1S/C23H27ClO6/c1-12(25)30-11-19(28)23(29)7-5-15-14-9-17(24)16-8-13(26)4-6-21(16-2)20(14)18(27)10-22(15-23)3/h4-6-8-14-15-17-20-29H-5-7-9-11H2-1-3H3/t14--15--17--20+-21--22--23-/m0/s1

>  <threshold>
-1

>  <reference>
R1|R1|R27|R30|

>  <group>
B

>  <Class>
1

>  <ABC>
23.96

>  <ABCGG>
19.6

>  <nAcid>
0

>  <nBase>
0

>  <nAromAtom>
0

>  <nAromBond>
0

>  <nAtom>
57

>  <nHeavyAtom>
30

>  <nSpiro>
0

>  <nBridgehead>
0

>  <nHetero>
7

>  <nN>
0

>  <nO>
6

>  <nF>
0

>  <BalabanJ>
1.64

>  <BertzCT>
905.37

>  <nBonds>
60

>  <nBondsO>
33

>  <nBondsS>
54

>  <nBondsD>
6

>  <nBondsT>
0

>  <nBondsA>
0

>  <nBondsM>
6

>  <nBondsKS>
54

>  <nBondsKD>
6

>  <RNCG>
0.18

>  <RPCG>
0.12

>  <FCSP3>
0.65

>  <SZ>
38.33

>  <Sm>
36.21

>  <Sv>
35.69

>  <Sse>
57.74

>  <Sp>
37.97

>  <Si>
64.01

>  <MZ>
0.67

>  <Mm>
0.64

>  <Mv>
0.63

>  <Mse>
1.01

>  <Mp>
0.67

>  <Mi>
1.12

>  <NsCH3>
3

>  <NdCH2>
0

>  <NssCH2>
5

>  <NtCH>
0

>  <NdsCH>
3

>  <NaaCH>
0

>  <NsssCH>
4

>  <NddC>
0

>  <NtsC>
0

>  <NdssC>
5

>  <NaasC>
0

>  <NaaaC>
0

>  <NssssC>
3

>  <NsNH3>
0

>  <NsNH2>
0

>  <NssNH2>
0

>  <NdNH>
0

>  <NssNH>
0

>  <NaaNH>
0

>  <NtN>
0

>  <NsssNH>
0

>  <NdsN>
0

>  <NaaN>
0

>  <NsssN>
0

>  <NddsN>
0

>  <NaasN>
0

>  <NssssN>
0

>  <NsOH>
1

>  <NdO>
4

>  <NssO>
1

>  <NaaO>
0

>  <NsF>
0

>  <NsSiH3>
0

>  <NssSiH2>
0

>  <NsssSiH>
0

>  <NssssSi>
0

>  <NsPH2>
0

>  <NssPH>
0

>  <NsssP>
0

>  <NdsssP>
0

>  <NsssssP>
0

>  <NsSH>
0

>  <NdS>
0

>  <NssS>
0

>  <NaaS>
0

>  <NdssS>
0

>  <NddssS>
0

>  <NsCl>
1

>  <NsBr>
0

>  <NsI>
0

>  <fragCpx>
219.07

>  <fMF>
0.3

>  <nHBAcc>
6

>  <nHBDon>
1

>  <Kier1>
23.17

>  <Kier2>
7.8

>  <Lipinski>
1

>  <GhoseFilter>
1

>  <FilterItLogS>
-3.84

>  <VMcGowan>
313.15

>  <LabuteASA>
180.22

>  <PEOE_VSA1>
9.84

>  <PEOE_VSA2>
19.18

>  <PEOE_VSA3>
0

>  <PEOE_VSA4>
0

>  <PEOE_VSA5>
11.6

>  <PEOE_VSA6>
19.92

>  <PEOE_VSA7>
48.82

>  <PEOE_VSA8>
30.09

>  <PEOE_VSA9>
5.38

>  <PEOE_VSA10>
11.38

>  <PEOE_VSA11>
12.39

>  <PEOE_VSA12>
5.78

>  <PEOE_VSA13>
0

>  <SMR_VSA1>
29.02

>  <SMR_VSA2>
0

>  <SMR_VSA3>
0

>  <SMR_VSA4>
28.58

>  <SMR_VSA5>
57.43

>  <SMR_VSA6>
6.61

>  <SMR_VSA7>
23.8

>  <SMR_VSA8>
0

>  <SMR_VSA9>
0

>  <SlogP_VSA1>
0

>  <SlogP_VSA2>
46.01

>  <SlogP_VSA3>
23.92

>  <SlogP_VSA4>
28.58

>  <SlogP_VSA5>
46.45

>  <SlogP_VSA6>
23.8

>  <SlogP_VSA7>
0

>  <SlogP_VSA8>
0

>  <SlogP_VSA9>
0

>  <SlogP_VSA10>
0

>  <SlogP_VSA11>
0

>  <EState_VSA1>
34.79

>  <EState_VSA2>
47.54

>  <EState_VSA3>
12.84

>  <EState_VSA4>
5.57

>  <EState_VSA5>
13

>  <EState_VSA6>
6.08

>  <EState_VSA7>
19.92

>  <EState_VSA8>
0

>  <EState_VSA9>
16.34

>  <EState_VSA10>
24.28

>  <VSA_EState1>
4.85

>  <VSA_EState2>
49.45

>  <VSA_EState3>
11.05

>  <VSA_EState4>
-2.51

>  <VSA_EState5>
-1.79

>  <VSA_EState6>
0

>  <VSA_EState7>
6.28

>  <VSA_EState8>
4.48

>  <VSA_EState9>
0

>  <apol>
63.41

>  <bpol>
32.8

>  <nRing>
4

>  <nHRing>
0

>  <naRing>
0

>  <naHRing>
0

>  <nARing 2>
4

>  <nAHRing 2>
0

>  <nFRing>
1

>  <nFHRing>
0

>  <nFaRing>
0

>  <nFaHRing>
0

>  <nFARing 2>
1

>  <nFAHRing 2>
0

>  <nRot>
3

>  <SLogP>
2.55

>  <SMR>
108.62

>  <TopoPSA(NO)>
97.74

>  <TopoPSA>
97.74

>  <JGI1>
0.3

>  <JGI2>
0.14

>  <JGI3>
0.07

>  <JGI4>
0.06

>  <JGI5>
0.04

>  <Diameter>
14

>  <Radius>
7

>  <TMWC10>
144.05

>  <TSRW10>
81.69

>  <MW>
434.15

>  <AMW>
7.62

>  <WPath>
2199

>  <WPol>
65

>  <Zagreb1>
174

>  <Zagreb2>
220

>  <mZagreb2>
6.22

>  <yes>


>  <nAR-cont>
0.199399

>  <nHA-cont>
0.74523694

>  <MWHBN>
0.335952701

>  <MWHBN-cont>
0.721739563

>  <TPSA-cont>
0.317714107

>  <pka_cont>
0.97

>  <yes.1>


>  <BBB_SCORE>
3.147673499

>  <MMFF94 Energy>
101.28

$$$$
Compound 854
Actelion Java MolfileCreator 2.0

  0  0  0  0  0  0              0 V3000
M  V30 BEGIN CTAB
M  V30 COUNTS 77 82 0 0 0
M  V30 BEGIN ATOM
M  V30 1 O -2.6585 -3.8687 -3.8687 0
M  V30 2 C -1.796 -4.0481 -3.0054 0
M  V30 3 C -0.7055 -2.9856 -2.6892 0 CFG=2
M  V30 4 C -1.7735 -5.3145 -2.1573 0
M  V30 5 O 0.5064 -3.6169 -2.2654 0
M  V30 6 C -1.1628 -1.8844 -1.6661 0 CFG=2
M  V30 7 C -0.3677 -2.1352 -3.9657 0 CFG=1
M  V30 8 O -2.9049 -6.141 -2.4243 0
M  V30 9 C -0.0686 -0.8167 -1.9303 0 CFG=1
M  V30 10 C -1.1004 -2.2516 -0.1649 0
M  V30 11 C -2.5951 -1.3916 -2.0209 0
M  V30 12 C -0.0191 -0.7137 -3.4555 0
M  V30 13 C 0.7413 -2.7161 -4.8401 0
M  V30 14 C -3.0195 -7.2007 -1.5828 0
M  V30 15 C -0.2647 0.468 -1.1045 0 CFG=2
M  V30 16 C -1.1868 -1.0291 0.7795 0 CFG=1
M  V30 17 O -2.259 -7.4455 -0.6568 0
M  V30 18 C -4.2154 -8.0254 -1.9455 0
M  V30 19 C 0.75 1.5293 -1.445 0
M  V30 20 C -0.1784 0.0894 0.4008 0 CFG=2
M  V30 21 O -2.5147 -0.5359 0.8185 0
M  V30 22 C 1.3704 2.3268 -0.5551 0
M  V30 23 C -0.1648 1.3688 1.3129 0 CFG=2
M  V30 24 C 1.0641 2.2634 0.8849 0
M  V30 25 C 2.3668 3.3458 -1.0547 0
M  V30 26 C -0.0874 0.9041 2.8214 0
M  V30 27 C -1.4281 2.2557 1.1573 0
M  V30 28 C 1.778 2.9724 1.7939 0
M  V30 29 C 0.5502 1.9282 3.6781 0
M  V30 30 C 1.4021 2.8652 3.1505 0
M  V30 31 C 0.5437 2.1766 5.0544 0
M  V30 32 N 1.8279 3.6582 4.1984 0
M  V30 33 N 1.336 3.1998 5.387 0
M  V30 34 C 2.6455 4.812 4.1736 0
M  V30 35 C 2.417 5.8244 3.234 0
M  V30 36 C 3.6629 4.9454 5.1259 0
M  V30 37 C 3.2322 6.9573 3.2312 0
M  V30 38 C 4.4731 6.0811 5.1152 0
M  V30 39 C 4.2605 7.0826 4.1667 0
M  V30 40 H -0.8621 -5.8707 -2.3999 0
M  V30 41 H -1.7767 -5.014 -1.1048 0
M  V30 42 H 0.4084 -3.9936 -1.377 0
M  V30 43 H -1.2521 -2.0352 -4.6073 0
M  V30 44 H 0.9069 -1.232 -1.628 0
M  V30 45 H -0.1552 -2.7554 0.0636 0
M  V30 46 H -1.9045 -2.9575 0.0733 0
M  V30 47 H -3.3419 -2.1376 -1.7257 0
M  V30 48 H -2.8672 -0.4583 -1.5258 0
M  V30 49 H -2.7296 -1.2074 -3.0907 0
M  V30 50 H 0.9642 -0.3782 -3.8016 0
M  V30 51 H -0.7588 0.007 -3.8238 0
M  V30 52 H 0.4952 -3.7362 -5.1519 0
M  V30 53 H 0.8693 -2.1106 -5.7438 0
M  V30 54 H 1.7044 -2.7362 -4.3196 0
M  V30 55 H -1.2452 0.8957 -1.3369 0
M  V30 56 H -0.9628 -1.3888 1.7899 0
M  V30 57 H -5.1234 -7.4255 -1.8454 0
M  V30 58 H -4.1116 -8.3997 -2.967 0
M  V30 59 H -4.2851 -8.8804 -1.267 0
M  V30 60 H 0.9649 1.6647 -2.503 0
M  V30 61 H 0.8104 -0.3804 0.5438 0
M  V30 62 H -3.0958 -1.2435 1.148 0
M  V30 63 H 3.3678 3.1329 -0.6647 0
M  V30 64 H 2.4434 3.3474 -2.1479 0
M  V30 65 H 2.0727 4.3576 -0.7548 0
M  V30 66 H 0.5276 -0.0021 2.8997 0
M  V30 67 H -1.0832 0.6525 3.2051 0
M  V30 68 H -2.3319 1.7513 1.5089 0
M  V30 69 H -1.3407 3.176 1.7481 0
M  V30 70 H -1.6014 2.566 0.1226 0
M  V30 71 H 2.6214 3.595 1.5187 0
M  V30 72 H 0.0132 1.6509 5.8378 0
M  V30 73 H 1.601 5.757 2.5187 0
M  V30 74 H 3.8269 4.1729 5.8744 0
M  V30 75 H 3.0595 7.749 2.5065 0
M  V30 76 H 5.2658 6.1879 5.8512 0
M  V30 77 H 4.8904 7.9687 4.1648 0
M  V30 END ATOM
M  V30 BEGIN BOND
M  V30 1 2 1 2
M  V30 2 1 2 3
M  V30 3 1 2 4
M  V30 4 1 3 5
M  V30 5 1 3 6
M  V30 6 1 3 7
M  V30 7 1 4 8
M  V30 8 1 6 9
M  V30 9 1 6 10
M  V30 10 1 6 11
M  V30 11 1 7 12
M  V30 12 1 7 13
M  V30 13 1 8 14
M  V30 14 1 9 15
M  V30 15 1 10 16
M  V30 16 2 14 17
M  V30 17 1 14 18
M  V30 18 1 15 19
M  V30 19 1 15 20
M  V30 20 1 16 21
M  V30 21 2 19 22
M  V30 22 1 20 23
M  V30 23 1 22 24
M  V30 24 1 22 25
M  V30 25 1 23 26
M  V30 26 1 23 27
M  V30 27 2 24 28
M  V30 28 1 26 29
M  V30 29 1 28 30
M  V30 30 1 29 31
M  V30 31 1 30 32
M  V30 32 2 31 33
M  V30 33 1 32 34
M  V30 34 2 34 35
M  V30 35 1 34 36
M  V30 36 1 35 37
M  V30 37 2 36 38
M  V30 38 2 37 39
M  V30 39 1 9 12
M  V30 40 1 16 20
M  V30 41 1 23 24
M  V30 42 2 29 30
M  V30 43 1 32 33
M  V30 44 1 38 39
M  V30 45 1 4 40
M  V30 46 1 4 41
M  V30 47 1 5 42
M  V30 48 1 7 43
M  V30 49 1 9 44
M  V30 50 1 10 45
M  V30 51 1 10 46
M  V30 52 1 11 47
M  V30 53 1 11 48
M  V30 54 1 11 49
M  V30 55 1 12 50
M  V30 56 1 12 51
M  V30 57 1 13 52
M  V30 58 1 13 53
M  V30 59 1 13 54
M  V30 60 1 15 55
M  V30 61 1 16 56
M  V30 62 1 18 57
M  V30 63 1 18 58
M  V30 64 1 18 59
M  V30 65 1 19 60
M  V30 66 1 20 61
M  V30 67 1 21 62
M  V30 68 1 25 63
M  V30 69 1 25 64
M  V30 70 1 25 65
M  V30 71 1 26 66
M  V30 72 1 26 67
M  V30 73 1 27 68
M  V30 74 1 27 69
M  V30 75 1 27 70
M  V30 76 1 28 71
M  V30 77 1 31 72
M  V30 78 1 35 73
M  V30 79 1 36 74
M  V30 80 1 37 75
M  V30 81 1 38 76
M  V30 82 1 39 77
M  V30 END BOND
M  V30 BEGIN COLLECTION
M  V30 MDLV30/STEABS ATOMS=(8 3 6 7 9 15 16 20 23)
M  V30 END COLLECTION
M  V30 END CTAB
M  END
>  <Column 1>
1023

>  <level_0>
1160

>  <index>
1160

>  <Unnamed: 0>
1160

>  <NO.>
1172

>  <Name>
cortivazol

>  <IUPAC_name>
[2-[(1s-2r-13s-14s-16r-17r-18s-20s)-17-20-dihydroxy-2-11-16-18-tetramethyl-7-phenyl-6-7-diazapentacyclo[11.7.0.02-10.04-8.014-18]icosa-4(8)-5-9-11-tetraen-17-yl]-2-oxoethyl] acetate

>  <SMILES>
CC(=O)OCC(=O)[C@@]1(O)[C@H](C)C[C@H]2[C@@H]3C=C(C)C4=Cc5c(cnn5-c5ccccc5)C[C@]4(C)[C@H]3[C@@H](O)C[C@@]21C

>  <CID>
66249

>  <logBB>


>  <BBB+/BBB->
BBB+

>  <Inchi>
InChI=1S/C32H38N2O5/c1-18-11-23-25-12-19(2)32(38-28(37)17-39-20(3)35)31(25-5)15-27(36)29(23)30(4)14-21-16-33-34(26(21)13-24(18)30)22-9-7-6-8-10-22/h6-11-13-16-19-23-25-27-29-36-38H-12-14-15-17H2-1-5H3/t19--23+-25+-27+-29--30+-31+-32+/m1/s1

>  <threshold>
-1

>  <reference>
R1|R27|R30|

>  <group>
B

>  <Class>
1

>  <ABC>
31.56

>  <ABCGG>
24.09

>  <nAcid>
0

>  <nBase>
0

>  <nAromAtom>
11

>  <nAromBond>
11

>  <nAtom>
77

>  <nHeavyAtom>
39

>  <nSpiro>
0

>  <nBridgehead>
0

>  <nHetero>
7

>  <nN>
2

>  <nO>
5

>  <nF>
0

>  <BalabanJ>
1.27

>  <BertzCT>
1408.76

>  <nBonds>
82

>  <nBondsO>
44

>  <nBondsS>
67

>  <nBondsD>
4

>  <nBondsT>
0

>  <nBondsA>
11

>  <nBondsM>
15

>  <nBondsKS>
73

>  <nBondsKD>
9

>  <RNCG>
0.15

>  <RPCG>
0.1

>  <FCSP3>
0.53

>  <SZ>
47.33

>  <Sm>
44.18

>  <Sv>
47.38

>  <Sse>
76.85

>  <Sp>
50.89

>  <Si>
86.52

>  <MZ>
0.61

>  <Mm>
0.57

>  <Mv>
0.62

>  <Mse>
1

>  <Mp>
0.66

>  <Mi>
1.12

>  <NsCH3>
5

>  <NdCH2>
0

>  <NssCH2>
4

>  <NtCH>
0

>  <NdsCH>
2

>  <NaaCH>
6

>  <NsssCH>
5

>  <NddC>
0

>  <NtsC>
0

>  <NdssC>
4

>  <NaasC>
3

>  <NaaaC>
0

>  <NssssC>
3

>  <NsNH3>
0

>  <NsNH2>
0

>  <NssNH2>
0

>  <NdNH>
0

>  <NssNH>
0

>  <NaaNH>
0

>  <NtN>
0

>  <NsssNH>
0

>  <NdsN>
0

>  <NaaN>
1

>  <NsssN>
0

>  <NddsN>
0

>  <NaasN>
1

>  <NssssN>
0

>  <NsOH>
2

>  <NdO>
2

>  <NssO>
1

>  <NaaO>
0

>  <NsF>
0

>  <NsSiH3>
0

>  <NssSiH2>
0

>  <NsssSiH>
0

>  <NssssSi>
0

>  <NsPH2>
0

>  <NssPH>
0

>  <NsssP>
0

>  <NdsssP>
0

>  <NsssssP>
0

>  <NsSH>
0

>  <NdS>
0

>  <NssS>
0

>  <NaaS>
0

>  <NdssS>
0

>  <NddssS>
0

>  <NsCl>
0

>  <NsBr>
0

>  <NsI>
0

>  <fragCpx>
454.07

>  <fMF>
0.34

>  <nHBAcc>
7

>  <nHBDon>
2

>  <Kier1>
29.09

>  <Kier2>
10.32

>  <Lipinski>
0

>  <GhoseFilter>
0

>  <FilterItLogS>
-5.11

>  <VMcGowan>
407.19

>  <LabuteASA>
229.11

>  <PEOE_VSA1>
14.95

>  <PEOE_VSA2>
9.59

>  <PEOE_VSA3>
4.68

>  <PEOE_VSA4>
5.1

>  <PEOE_VSA5>
0

>  <PEOE_VSA6>
50.62

>  <PEOE_VSA7>
73.29

>  <PEOE_VSA8>
23.67

>  <PEOE_VSA9>
23.68

>  <PEOE_VSA10>
5.6

>  <PEOE_VSA11>
6.61

>  <PEOE_VSA12>
5.78

>  <PEOE_VSA13>
0

>  <SMR_VSA1>
24.54

>  <SMR_VSA2>
0

>  <SMR_VSA3>
9.78

>  <SMR_VSA4>
34.5

>  <SMR_VSA5>
65.59

>  <SMR_VSA6>
6.61

>  <SMR_VSA7>
65.01

>  <SMR_VSA8>
0

>  <SMR_VSA9>
5.69

>  <SlogP_VSA1>
0

>  <SlogP_VSA2>
50.06

>  <SlogP_VSA3>
20.75

>  <SlogP_VSA4>
34.5

>  <SlogP_VSA5>
58.72

>  <SlogP_VSA6>
53.75

>  <SlogP_VSA7>
0

>  <SlogP_VSA8>
11.76

>  <SlogP_VSA9>
0

>  <SlogP_VSA10>
0

>  <SlogP_VSA11>
0

>  <EState_VSA1>
35.48

>  <EState_VSA2>
29.09

>  <EState_VSA3>
12.84

>  <EState_VSA4>
23.37

>  <EState_VSA5>
18.07

>  <EState_VSA6>
0

>  <EState_VSA7>
42.93

>  <EState_VSA8>
38.13

>  <EState_VSA9>
9.84

>  <EState_VSA10>
19.8

>  <VSA_EState1>
7.01

>  <VSA_EState2>
24.79

>  <VSA_EState3>
28.62

>  <VSA_EState4>
2.83

>  <VSA_EState5>
-1.38

>  <VSA_EState6>
10.12

>  <VSA_EState7>
7.52

>  <VSA_EState8>
9.08

>  <VSA_EState9>
0

>  <apol>
84.99

>  <bpol>
43.3

>  <nRing>
6

>  <nHRing>
1

>  <naRing>
2

>  <naHRing>
1

>  <nARing 2>
4

>  <nAHRing 2>
0

>  <nFRing>
1

>  <nFHRing>
1

>  <nFaRing>
0

>  <nFaHRing>
0

>  <nFARing 2>
1

>  <nFAHRing 2>
1

>  <nRot>
4

>  <SLogP>
4.3

>  <SMR>
146.68

>  <TopoPSA(NO)>
101.65

>  <TopoPSA>
101.65

>  <JGI1>
0.25

>  <JGI2>
0.12

>  <JGI3>
0.07

>  <JGI4>
0.05

>  <JGI5>
0.03

>  <Diameter>
18

>  <Radius>
9

>  <TMWC10>
166.66

>  <TSRW10>
93.91

>  <MW>
530.28

>  <AMW>
6.89

>  <WPath>
4649

>  <WPol>
85

>  <Zagreb1>
230

>  <Zagreb2>
293

>  <mZagreb2>
8.09

>  <yes>


>  <nAR-cont>
0.199399

>  <nHA-cont>
0.348277641

>  <MWHBN>
0.390831794

>  <MWHBN-cont>
0.512184879

>  <TPSA-cont>
0.290419879

>  <pka_cont>
0.97

>  <yes.1>


>  <BBB_SCORE>
2.381793718

>  <MMFF94 Energy>
170.9

$$$$
Compound 855
Actelion Java MolfileCreator 2.0

  0  0  0  0  0  0              0 V3000
M  V30 BEGIN CTAB
M  V30 COUNTS 62 65 0 0 0
M  V30 BEGIN ATOM
M  V30 1 F 4.1223 3.6367 0.565 0
M  V30 2 C 3.5674 2.5443 -0.0341 0 CFG=2
M  V30 3 C 3.0457 2.8745 -1.4081 0
M  V30 4 C 2.4362 2.0549 0.8592 0
M  V30 5 C 3.1672 4.1158 -1.9133 0
M  V30 6 C 2.338 1.7248 -2.1381 0 CFG=2
M  V30 7 C 1.6586 0.8782 0.2436 0 CFG=2
M  V30 8 C 2.6129 4.4802 -3.232 0
M  V30 9 C 1.7772 2.1899 -3.4767 0
M  V30 10 C 1.1683 1.2266 -1.2028 0 CFG=2
M  V30 11 C 3.3926 0.6442 -2.4655 0
M  V30 12 C 0.4328 0.5324 1.1069 0 CFG=1
M  V30 13 O 2.7351 5.6099 -3.6873 0
M  V30 14 C 1.8981 3.4269 -3.9765 0
M  V30 15 C 0.2501 0.1121 -1.7852 0 CFG=1
M  V30 16 C -0.378 -0.6893 0.6066 0 CFG=2
M  V30 17 C 0.6437 0.2531 2.5904 0
M  V30 18 O 0.9652 -1.023 -2.2504 0
M  V30 19 C -0.8656 -0.3457 -0.8202 0
M  V30 20 C -1.4798 -0.7429 1.7243 0 CFG=1
M  V30 21 C 0.4349 -2.011 0.6135 0
M  V30 22 C -0.6445 -0.4839 3.0341 0 CFG=2
M  V30 23 O -2.414 0.3216 1.5172 0
M  V30 24 C -2.2808 -2.0681 1.7978 0
M  V30 25 C -1.3768 0.2801 4.1346 0
M  V30 26 O -2.2508 -2.7819 2.8044 0
M  V30 27 C -3.1315 -2.4341 0.5855 0
M  V30 28 O -4.0866 -3.4378 0.9379 0
M  V30 29 C -4.8448 -3.8641 -0.1052 0
M  V30 30 O -4.7616 -3.4475 -1.2517 0
M  V30 31 C -5.8044 -4.9201 0.3495 0
M  V30 32 H 4.3587 1.7909 -0.0995 0
M  V30 33 H 1.7556 2.8915 1.0686 0
M  V30 34 H 2.8588 1.7673 1.8295 0
M  V30 35 H 3.6609 4.92 -1.3776 0
M  V30 36 H 2.3387 0.0215 0.2065 0
M  V30 37 H 1.2651 1.448 -4.088 0
M  V30 38 H 0.4968 2.0945 -1.0802 0
M  V30 39 H 3.0269 -0.0884 -3.193 0
M  V30 40 H 4.2913 1.0915 -2.9107 0
M  V30 41 H 3.7169 0.0908 -1.5789 0
M  V30 42 H -0.22 1.4201 1.0634 0
M  V30 43 H 1.4954 3.7078 -4.9423 0
M  V30 44 H -0.2617 0.5113 -2.6681 0
M  V30 45 H 1.5172 -0.3907 2.7469 0
M  V30 46 H 0.8133 1.177 3.1538 0
M  V30 47 H 1.6797 -1.2386 -1.633 0
M  V30 48 H -1.3781 -1.2079 -1.2589 0
M  V30 49 H -1.6027 0.4654 -0.7725 0
M  V30 50 H 0.5903 -2.4063 1.6223 0
M  V30 51 H 1.4314 -1.9084 0.1847 0
M  V30 52 H -0.0848 -2.7915 0.0475 0
M  V30 53 H -0.3249 -1.4386 3.4717 0
M  V30 54 H -3.0221 0.3495 2.2787 0
M  V30 55 H -1.6312 1.2985 3.8227 0
M  V30 56 H -0.747 0.3581 5.0276 0
M  V30 57 H -2.2984 -0.2363 4.4214 0
M  V30 58 H -3.6627 -1.5423 0.2387 0
M  V30 59 H -2.4681 -2.8262 -0.1897 0
M  V30 60 H -5.2528 -5.7754 0.7478 0
M  V30 61 H -6.4768 -4.5086 1.1066 0
M  V30 62 H -6.4024 -5.2572 -0.5019 0
M  V30 END ATOM
M  V30 BEGIN BOND
M  V30 1 1 1 2
M  V30 2 1 2 3
M  V30 3 1 2 4
M  V30 4 2 3 5
M  V30 5 1 3 6
M  V30 6 1 4 7
M  V30 7 1 5 8
M  V30 8 1 6 9
M  V30 9 1 6 10
M  V30 10 1 6 11
M  V30 11 1 7 12
M  V30 12 2 8 13
M  V30 13 1 8 14
M  V30 14 1 10 15
M  V30 15 1 12 16
M  V30 16 1 12 17
M  V30 17 1 15 18
M  V30 18 1 15 19
M  V30 19 1 16 20
M  V30 20 1 16 21
M  V30 21 1 17 22
M  V30 22 1 20 23
M  V30 23 1 20 24
M  V30 24 1 22 25
M  V30 25 2 24 26
M  V30 26 1 24 27
M  V30 27 1 27 28
M  V30 28 1 28 29
M  V30 29 2 29 30
M  V30 30 1 29 31
M  V30 31 1 7 10
M  V30 32 2 9 14
M  V30 33 1 16 19
M  V30 34 1 20 22
M  V30 35 1 2 32
M  V30 36 1 4 33
M  V30 37 1 4 34
M  V30 38 1 5 35
M  V30 39 1 7 36
M  V30 40 1 9 37
M  V30 41 1 10 38
M  V30 42 1 11 39
M  V30 43 1 11 40
M  V30 44 1 11 41
M  V30 45 1 12 42
M  V30 46 1 14 43
M  V30 47 1 15 44
M  V30 48 1 17 45
M  V30 49 1 17 46
M  V30 50 1 18 47
M  V30 51 1 19 48
M  V30 52 1 19 49
M  V30 53 1 21 50
M  V30 54 1 21 51
M  V30 55 1 21 52
M  V30 56 1 22 53
M  V30 57 1 23 54
M  V30 58 1 25 55
M  V30 59 1 25 56
M  V30 60 1 25 57
M  V30 61 1 27 58
M  V30 62 1 27 59
M  V30 63 1 31 60
M  V30 64 1 31 61
M  V30 65 1 31 62
M  V30 END BOND
M  V30 BEGIN COLLECTION
M  V30 MDLV30/STEABS ATOMS=(9 2 6 7 10 12 15 16 20 22)
M  V30 END COLLECTION
M  V30 END CTAB
M  END
>  <Column 1>
1024

>  <level_0>
1161

>  <index>
1161

>  <Unnamed: 0>
1161

>  <NO.>
1173

>  <Name>
paramethasone-acetate

>  <IUPAC_name>
[2-[(6s-8s-9s-10r-11s-13s-14s-16r-17r)-6-fluoro-11-17-dihydroxy-10-13-16-trimethyl-3-oxo-7-8-9-11-12-14-15-16-octahydro-6h-cyclopenta[a]phenanthren-17-yl]-2-oxoethyl] acetate

>  <SMILES>
CC(=O)OCC(=O)[C@@]1(O)[C@H](C)C[C@H]2[C@@H]3C[C@H](F)C4=CC(=O)C=C[C@]4(C)[C@H]3[C@@H](O)C[C@@]21C

>  <CID>
443928

>  <logBB>


>  <BBB+/BBB->
BBB+

>  <Inchi>
InChI=1S/C24H31FO6/c1-12-7-16-15-9-18(25)17-8-14(27)5-6-22(17-3)21(15)19(28)10-23(16-4)24(12-30)20(29)11-31-13(2)26/h5-6-8-12-15-16-18-19-21-28-30H-7-9-11H2-1-4H3/t12--15+-16+-18+-19+-21--22+-23+-24+/m1/s1

>  <threshold>
-1

>  <reference>
R1|R27|R30|

>  <group>
B

>  <Class>
1

>  <ABC>
24.72

>  <ABCGG>
20.31

>  <nAcid>
0

>  <nBase>
0

>  <nAromAtom>
0

>  <nAromBond>
0

>  <nAtom>
62

>  <nHeavyAtom>
31

>  <nSpiro>
0

>  <nBridgehead>
0

>  <nHetero>
7

>  <nN>
0

>  <nO>
6

>  <nF>
1

>  <BalabanJ>
1.68

>  <BertzCT>
894.5

>  <nBonds>
65

>  <nBondsO>
34

>  <nBondsS>
60

>  <nBondsD>
5

>  <nBondsT>
0

>  <nBondsA>
0

>  <nBondsM>
5

>  <nBondsKS>
60

>  <nBondsKD>
5

>  <RNCG>
0.17

>  <RPCG>
0.11

>  <FCSP3>
0.71

>  <SZ>
38.67

>  <Sm>
36.18

>  <Sv>
37.33

>  <Sse>
62.7

>  <Sp>
39.59

>  <Si>
70.24

>  <MZ>
0.62

>  <Mm>
0.58

>  <Mv>
0.6

>  <Mse>
1.01

>  <Mp>
0.64

>  <Mi>
1.13

>  <NsCH3>
4

>  <NdCH2>
0

>  <NssCH2>
4

>  <NtCH>
0

>  <NdsCH>
3

>  <NaaCH>
0

>  <NsssCH>
6

>  <NddC>
0

>  <NtsC>
0

>  <NdssC>
4

>  <NaasC>
0

>  <NaaaC>
0

>  <NssssC>
3

>  <NsNH3>
0

>  <NsNH2>
0

>  <NssNH2>
0

>  <NdNH>
0

>  <NssNH>
0

>  <NaaNH>
0

>  <NtN>
0

>  <NsssNH>
0

>  <NdsN>
0

>  <NaaN>
0

>  <NsssN>
0

>  <NddsN>
0

>  <NaasN>
0

>  <NssssN>
0

>  <NsOH>
2

>  <NdO>
3

>  <NssO>
1

>  <NaaO>
0

>  <NsF>
1

>  <NsSiH3>
0

>  <NssSiH2>
0

>  <NsssSiH>
0

>  <NssssSi>
0

>  <NsPH2>
0

>  <NssPH>
0

>  <NsssP>
0

>  <NdsssP>
0

>  <NsssssP>
0

>  <NsSH>
0

>  <NdS>
0

>  <NssS>
0

>  <NaaS>
0

>  <NdssS>
0

>  <NddssS>
0

>  <NsCl>
0

>  <NsBr>
0

>  <NsI>
0

>  <fragCpx>
226.07

>  <fMF>
0.27

>  <nHBAcc>
6

>  <nHBDon>
2

>  <Kier1>
24.13

>  <Kier2>
8.05

>  <Lipinski>
1

>  <GhoseFilter>
1

>  <FilterItLogS>
-2.96

>  <VMcGowan>
321.06

>  <LabuteASA>
181.08

>  <PEOE_VSA1>
14.95

>  <PEOE_VSA2>
14.38

>  <PEOE_VSA3>
4.39

>  <PEOE_VSA4>
0

>  <PEOE_VSA5>
0

>  <PEOE_VSA6>
26.85

>  <PEOE_VSA7>
54.74

>  <PEOE_VSA8>
23.67

>  <PEOE_VSA9>
6.1

>  <PEOE_VSA10>
11.77

>  <PEOE_VSA11>
12.39

>  <PEOE_VSA12>
5.78

>  <PEOE_VSA13>
0

>  <SMR_VSA1>
33.72

>  <SMR_VSA2>
0

>  <SMR_VSA3>
0

>  <SMR_VSA4>
34.5

>  <SMR_VSA5>
64.83

>  <SMR_VSA6>
6.61

>  <SMR_VSA7>
23.8

>  <SMR_VSA8>
0

>  <SMR_VSA9>
0

>  <SlogP_VSA1>
0

>  <SlogP_VSA2>
52.23

>  <SlogP_VSA3>
19.12

>  <SlogP_VSA4>
34.5

>  <SlogP_VSA5>
46.96

>  <SlogP_VSA6>
23.8

>  <SlogP_VSA7>
0

>  <SlogP_VSA8>
0

>  <SlogP_VSA9>
0

>  <SlogP_VSA10>
4.39

>  <SlogP_VSA11>
0

>  <EState_VSA1>
52.98

>  <EState_VSA2>
36.38

>  <EState_VSA3>
11.99

>  <EState_VSA4>
0

>  <EState_VSA5>
19.08

>  <EState_VSA6>
19.92

>  <EState_VSA7>
6.92

>  <EState_VSA8>
0

>  <EState_VSA9>
4.74

>  <EState_VSA10>
24.6

>  <VSA_EState1>
20.23

>  <VSA_EState2>
36.16

>  <VSA_EState3>
23

>  <VSA_EState4>
-3.13

>  <VSA_EState5>
-2.62

>  <VSA_EState6>
0

>  <VSA_EState7>
3.14

>  <VSA_EState8>
6.13

>  <VSA_EState9>
0

>  <apol>
66.12

>  <bpol>
36.55

>  <nRing>
4

>  <nHRing>
0

>  <naRing>
0

>  <naHRing>
0

>  <nARing 2>
4

>  <nAHRing 2>
0

>  <nFRing>
1

>  <nFHRing>
0

>  <nFaRing>
0

>  <nFaHRing>
0

>  <nFARing 2>
1

>  <nFAHRing 2>
0

>  <nRot>
3

>  <SLogP>
2.32

>  <SMR>
109.42

>  <TopoPSA(NO)>
100.9

>  <TopoPSA>
100.9

>  <JGI1>
0.31

>  <JGI2>
0.13

>  <JGI3>
0.08

>  <JGI4>
0.06

>  <JGI5>
0.04

>  <Diameter>
14

>  <Radius>
7

>  <TMWC10>
146.57

>  <TSRW10>
83.15

>  <MW>
434.21

>  <AMW>
7

>  <WPath>
2357

>  <WPol>
69

>  <Zagreb1>
180

>  <Zagreb2>
229

>  <mZagreb2>
6.42

>  <yes>


>  <nAR-cont>
0.199399

>  <nHA-cont>
0.702745138

>  <MWHBN>
0.383919416

>  <MWHBN-cont>
0.539406772

>  <TPSA-cont>
0.295655345

>  <pka_cont>
0.97

>  <yes.1>


>  <BBB_SCORE>
2.787564985

>  <MMFF94 Energy>
115.83

$$$$
Compound 856
Actelion Java MolfileCreator 2.0

  0  0  0  0  0  0              0 V3000
M  V30 BEGIN CTAB
M  V30 COUNTS 65 68 0 0 0
M  V30 BEGIN ATOM
M  V30 1 F 1.8609 -1.2133 -1.5371 0
M  V30 2 C 0.971 -1.9926 -0.8108 0 CFG=2
M  V30 3 C 1.4303 -3.4947 -1.0178 0 CFG=2
M  V30 4 C -0.4338 -1.6307 -1.3907 0 CFG=1
M  V30 5 C 1.1308 -1.5324 0.6781 0 CFG=2
M  V30 6 C 2.8524 -3.6331 -0.4417 0
M  V30 7 C 1.4067 -3.8721 -2.4989 0
M  V30 8 C 0.5313 -4.5296 -0.3024 0
M  V30 9 O -1.4581 -2.5004 -0.9211 0
M  V30 10 C -0.8429 -0.1632 -1.1244 0
M  V30 11 C 0.7533 -0.0461 0.7851 0 CFG=1
M  V30 12 C 2.5702 -1.7595 1.1766 0
M  V30 13 C 3.9095 -4.0585 -1.1561 0
M  V30 14 C 3.0259 -3.2028 0.992 0
M  V30 15 C 2.4632 -4.294 -3.2061 0
M  V30 16 C -0.7023 0.2541 0.3561 0 CFG=1
M  V30 17 C 0.875 0.6497 2.1405 0
M  V30 18 C 3.7912 -4.4303 -2.5802 0
M  V30 19 C -0.7368 1.7989 0.6294 0 CFG=1
M  V30 20 C -1.7481 -0.4951 1.2259 0
M  V30 21 C 0.0242 1.9372 1.9941 0 CFG=2
M  V30 22 O 4.7561 -4.8361 -3.2152 0
M  V30 23 O 0.006 2.4544 -0.4085 0
M  V30 24 C -2.1684 2.3727 0.7303 0
M  V30 25 O 0.9361 3.0623 2.0081 0
M  V30 26 O -2.8975 2.1256 1.6952 0
M  V30 27 C -2.6433 3.2187 -0.445 0
M  V30 28 C 0.3846 4.2857 2.2374 0
M  V30 29 O -4.0187 3.5705 -0.2892 0
M  V30 30 O -0.8128 4.5179 2.261 0
M  V30 31 C 1.4585 5.3166 2.3969 0
M  V30 32 C -4.5013 4.3593 -1.2828 0
M  V30 33 O -3.8677 4.7327 -2.2596 0
M  V30 34 C -5.9343 4.7045 -1.0173 0
M  V30 35 H -0.3995 -1.7476 -2.48 0
M  V30 36 H 0.4697 -2.1233 1.3194 0
M  V30 37 H 0.4481 -3.8178 -3.0101 0
M  V30 38 H 1.0139 -5.5154 -0.2689 0
M  V30 39 H -0.4238 -4.6789 -0.8168 0
M  V30 40 H 0.3059 -4.2503 0.7309 0
M  V30 41 H -2.2862 -2.2579 -1.3733 0
M  V30 42 H -0.2089 0.4692 -1.7573 0
M  V30 43 H -1.8768 0.0027 -1.4512 0
M  V30 44 H 1.4388 0.4914 0.1103 0
M  V30 45 H 2.6427 -1.5051 2.2406 0
M  V30 46 H 3.2594 -1.09 0.6454 0
M  V30 47 H 4.9074 -4.1372 -0.7405 0
M  V30 48 H 2.4529 -3.8658 1.6503 0
M  V30 49 H 4.0723 -3.2868 1.3097 0
M  V30 50 H 2.395 -4.5623 -4.2531 0
M  V30 51 H 1.9185 0.8667 2.3916 0
M  V30 52 H 0.4647 0.015 2.9342 0
M  V30 53 H -1.5722 -1.5704 1.2834 0
M  V30 54 H -1.766 -0.1411 2.2614 0
M  V30 55 H -2.7563 -0.3626 0.8169 0
M  V30 56 H -0.6435 2.0068 2.8617 0
M  V30 57 H 0.6171 3.0871 0.0099 0
M  V30 58 H -2.0334 4.1279 -0.4784 0
M  V30 59 H -2.5244 2.6291 -1.3602 0
M  V30 60 H 2.1543 5.01 3.1821 0
M  V30 61 H 1.984 5.452 1.4487 0
M  V30 62 H 1.0063 6.2677 2.6921 0
M  V30 63 H -6.5379 3.7937 -1.0009 0
M  V30 64 H -6.0172 5.2388 -0.0675 0
M  V30 65 H -6.3041 5.3548 -1.8151 0
M  V30 END ATOM
M  V30 BEGIN BOND
M  V30 1 1 1 2
M  V30 2 1 2 3
M  V30 3 1 2 4
M  V30 4 1 2 5
M  V30 5 1 3 6
M  V30 6 1 3 7
M  V30 7 1 3 8
M  V30 8 1 4 9
M  V30 9 1 4 10
M  V30 10 1 5 11
M  V30 11 1 5 12
M  V30 12 2 6 13
M  V30 13 1 6 14
M  V30 14 2 7 15
M  V30 15 1 10 16
M  V30 16 1 11 17
M  V30 17 1 13 18
M  V30 18 1 16 19
M  V30 19 1 16 20
M  V30 20 1 17 21
M  V30 21 2 18 22
M  V30 22 1 19 23
M  V30 23 1 19 24
M  V30 24 1 21 25
M  V30 25 2 24 26
M  V30 26 1 24 27
M  V30 27 1 25 28
M  V30 28 1 27 29
M  V30 29 2 28 30
M  V30 30 1 28 31
M  V30 31 1 29 32
M  V30 32 2 32 33
M  V30 33 1 32 34
M  V30 34 1 11 16
M  V30 35 1 12 14
M  V30 36 1 15 18
M  V30 37 1 19 21
M  V30 38 1 4 35
M  V30 39 1 5 36
M  V30 40 1 7 37
M  V30 41 1 8 38
M  V30 42 1 8 39
M  V30 43 1 8 40
M  V30 44 1 9 41
M  V30 45 1 10 42
M  V30 46 1 10 43
M  V30 47 1 11 44
M  V30 48 1 12 45
M  V30 49 1 12 46
M  V30 50 1 13 47
M  V30 51 1 14 48
M  V30 52 1 14 49
M  V30 53 1 15 50
M  V30 54 1 17 51
M  V30 55 1 17 52
M  V30 56 1 20 53
M  V30 57 1 20 54
M  V30 58 1 20 55
M  V30 59 1 21 56
M  V30 60 1 23 57
M  V30 61 1 27 58
M  V30 62 1 27 59
M  V30 63 1 31 60
M  V30 64 1 31 61
M  V30 65 1 31 62
M  V30 66 1 34 63
M  V30 67 1 34 64
M  V30 68 1 34 65
M  V30 END BOND
M  V30 BEGIN COLLECTION
M  V30 MDLV30/STEABS ATOMS=(8 2 3 4 5 11 16 19 21)
M  V30 END COLLECTION
M  V30 END CTAB
M  END
>  <Column 1>
1025

>  <level_0>
1162

>  <index>
1162

>  <Unnamed: 0>
1162

>  <NO.>
1174

>  <Name>
triamcinolone-diacetate

>  <IUPAC_name>
[2-[(8s-9r-10s-11s-13s-14s-16r-17s)-16-acetyloxy-9-fluoro-11-17-dihydroxy-10-13-dimethyl-3-oxo-6-7-8-11-12-14-15-16-octahydrocyclopenta[a]phenanthren-17-yl]-2-oxoethyl] acetate

>  <SMILES>
CC(=O)OCC(=O)[C@@]1(O)[C@H](OC(C)=O)C[C@H]2[C@@H]3CCC4=CC(=O)C=C[C@]4(C)[C@@]3(F)[C@@H](O)C[C@@]21C

>  <CID>
6216

>  <logBB>


>  <BBB+/BBB->
BBB+

>  <Inchi>
InChI=1S/C25H31FO8/c1-13(27)33-12-20(31)25(32)21(34-14(2)28)10-18-17-6-5-15-9-16(29)7-8-22(15-3)24(17-26)19(30)11-23(18-25)4/h7-9-17-19-21-30-32H-5-6-10-12H2-1-4H3/t17--18--19--21+-22--23--24--25+/m0/s1

>  <threshold>
-1

>  <reference>
R1|R27|R30|

>  <group>
B

>  <Class>
1

>  <ABC>
26.96

>  <ABCGG>
22.07

>  <nAcid>
0

>  <nBase>
0

>  <nAromAtom>
0

>  <nAromBond>
0

>  <nAtom>
65

>  <nHeavyAtom>
34

>  <nSpiro>
0

>  <nBridgehead>
0

>  <nHetero>
9

>  <nN>
0

>  <nO>
8

>  <nF>
1

>  <BalabanJ>
1.74

>  <BertzCT>
1018.39

>  <nBonds>
68

>  <nBondsO>
37

>  <nBondsS>
62

>  <nBondsD>
6

>  <nBondsT>
0

>  <nBondsA>
0

>  <nBondsM>
6

>  <nBondsKS>
62

>  <nBondsKD>
6

>  <RNCG>
0.14

>  <RPCG>
0.09

>  <FCSP3>
0.68

>  <SZ>
42.33

>  <Sm>
39.84

>  <Sv>
39.76

>  <Sse>
66.36

>  <Sp>
41.55

>  <Si>
73.66

>  <MZ>
0.65

>  <Mm>
0.61

>  <Mv>
0.61

>  <Mse>
1.02

>  <Mp>
0.64

>  <Mi>
1.13

>  <NsCH3>
4

>  <NdCH2>
0

>  <NssCH2>
5

>  <NtCH>
0

>  <NdsCH>
3

>  <NaaCH>
0

>  <NsssCH>
4

>  <NddC>
0

>  <NtsC>
0

>  <NdssC>
5

>  <NaasC>
0

>  <NaaaC>
0

>  <NssssC>
4

>  <NsNH3>
0

>  <NsNH2>
0

>  <NssNH2>
0

>  <NdNH>
0

>  <NssNH>
0

>  <NaaNH>
0

>  <NtN>
0

>  <NsssNH>
0

>  <NdsN>
0

>  <NaaN>
0

>  <NsssN>
0

>  <NddsN>
0

>  <NaasN>
0

>  <NssssN>
0

>  <NsOH>
2

>  <NdO>
4

>  <NssO>
2

>  <NaaO>
0

>  <NsF>
1

>  <NsSiH3>
0

>  <NssSiH2>
0

>  <NsssSiH>
0

>  <NssssSi>
0

>  <NsPH2>
0

>  <NssPH>
0

>  <NsssP>
0

>  <NdsssP>
0

>  <NsssssP>
0

>  <NsSH>
0

>  <NdS>
0

>  <NssS>
0

>  <NaaS>
0

>  <NdssS>
0

>  <NddssS>
0

>  <NsCl>
0

>  <NsBr>
0

>  <NsI>
0

>  <fragCpx>
247.09

>  <fMF>
0.26

>  <nHBAcc>
8

>  <nHBDon>
2

>  <Kier1>
27.05

>  <Kier2>
9.08

>  <Lipinski>
1

>  <GhoseFilter>
1

>  <FilterItLogS>
-3.06

>  <VMcGowan>
342.59

>  <LabuteASA>
196.72

>  <PEOE_VSA1>
19.69

>  <PEOE_VSA2>
19.18

>  <PEOE_VSA3>
4.39

>  <PEOE_VSA4>
0

>  <PEOE_VSA5>
0

>  <PEOE_VSA6>
18.57

>  <PEOE_VSA7>
50.68

>  <PEOE_VSA8>
30.6

>  <PEOE_VSA9>
6.1

>  <PEOE_VSA10>
6.1

>  <PEOE_VSA11>
23.66

>  <PEOE_VSA12>
5.78

>  <PEOE_VSA13>
0

>  <SMR_VSA1>
43.26

>  <SMR_VSA2>
0

>  <SMR_VSA3>
0

>  <SMR_VSA4>
22.67

>  <SMR_VSA5>
76.86

>  <SMR_VSA6>
6.61

>  <SMR_VSA7>
23.8

>  <SMR_VSA8>
0

>  <SMR_VSA9>
0

>  <SlogP_VSA1>
0

>  <SlogP_VSA2>
63.8

>  <SlogP_VSA3>
28.65

>  <SlogP_VSA4>
22.67

>  <SlogP_VSA5>
53.38

>  <SlogP_VSA6>
23.8

>  <SlogP_VSA7>
0

>  <SlogP_VSA8>
0

>  <SlogP_VSA9>
0

>  <SlogP_VSA10>
4.39

>  <SlogP_VSA11>
0

>  <EState_VSA1>
70.47

>  <EState_VSA2>
25.05

>  <EState_VSA3>
11.99

>  <EState_VSA4>
13.85

>  <EState_VSA5>
18.23

>  <EState_VSA6>
13.85

>  <EState_VSA7>
0

>  <EState_VSA8>
0

>  <EState_VSA9>
9.47

>  <EState_VSA10>
29.39

>  <VSA_EState1>
27.38

>  <VSA_EState2>
48.36

>  <VSA_EState3>
23.15

>  <VSA_EState4>
-6.42

>  <VSA_EState5>
-3.93

>  <VSA_EState6>
0

>  <VSA_EState7>
1.82

>  <VSA_EState8>
4.8

>  <VSA_EState9>
0

>  <apol>
69.39

>  <bpol>
39.16

>  <nRing>
4

>  <nHRing>
0

>  <naRing>
0

>  <naHRing>
0

>  <nARing 2>
4

>  <nAHRing 2>
0

>  <nFRing>
1

>  <nFHRing>
0

>  <nFaRing>
0

>  <nFaHRing>
0

>  <nFARing 2>
1

>  <nFAHRing 2>
0

>  <nRot>
4

>  <SLogP>
1.76

>  <SMR>
115.88

>  <TopoPSA(NO)>
127.2

>  <TopoPSA>
127.2

>  <JGI1>
0.32

>  <JGI2>
0.15

>  <JGI3>
0.08

>  <JGI4>
0.06

>  <JGI5>
0.04

>  <Diameter>
14

>  <Radius>
7

>  <TMWC10>
153.58

>  <TSRW10>
86.66

>  <MW>
478.2

>  <AMW>
7.36

>  <WPath>
2963

>  <WPol>
77

>  <Zagreb1>
196

>  <Zagreb2>
250

>  <mZagreb2>
7.07

>  <yes>


>  <nAR-cont>
0.199399

>  <nHA-cont>
0.568589513

>  <MWHBN>
0.457293696

>  <MWHBN-cont>
0

>  <TPSA-cont>
0

>  <pka_cont>
0.97

>  <yes.1>


>  <BBB_SCORE>
1.252988513

>  <MMFF94 Energy>
148.4

$$$$
Compound 857
Actelion Java MolfileCreator 2.0

  0  0  0  0  0  0              0 V3000
M  V30 BEGIN CTAB
M  V30 COUNTS 73 76 0 0 0
M  V30 BEGIN ATOM
M  V30 1 F -0.322 2.5788 0.4831 0
M  V30 2 C 0.4279 1.923 1.4508 0 CFG=2
M  V30 3 C 0.8368 3.0223 2.5148 0 CFG=2
M  V30 4 C 1.6087 1.2774 0.6615 0 CFG=1
M  V30 5 C -0.5285 0.8432 2.0607 0 CFG=2
M  V30 6 C -0.4596 3.5785 3.1333 0
M  V30 7 C 1.6472 4.1405 1.8588 0
M  V30 8 C 1.7152 2.4829 3.6673 0
M  V30 9 O 2.6064 0.7318 1.5166 0
M  V30 10 C 1.1358 0.2036 -0.3441 0
M  V30 11 C -0.9561 -0.1348 0.9527 0 CFG=1
M  V30 12 C -1.765 1.4997 2.7045 0
M  V30 13 C -0.8007 4.8795 3.1096 0
M  V30 14 C -1.3898 2.5577 3.7366 0
M  V30 15 C 1.3024 5.4349 1.8369 0
M  V30 16 C 0.2259 -0.8772 0.285 0 CFG=1
M  V30 17 C -1.9055 -1.2687 1.3124 0
M  V30 18 C 0.0551 5.8998 2.4714 0
M  V30 19 C -0.5526 -1.8071 -0.7394 0 CFG=1
M  V30 20 C 1.0334 -1.7362 1.2986 0
M  V30 21 C -1.8625 -2.1918 0.0676 0 CFG=1
M  V30 22 O -0.2581 7.0837 2.4683 0
M  V30 23 O -0.9667 -0.9412 -1.8388 0
M  V30 24 C 0.3666 -2.9698 -1.2372 0
M  V30 25 C -2.0677 -3.6478 0.466 0
M  V30 26 C -1.7366 -1.46 -2.8358 0
M  V30 27 O 0.5215 -4.0141 -0.5967 0
M  V30 28 C 1.1571 -2.7406 -2.5304 0
M  V30 29 O -2.0276 -2.6418 -2.9333 0
M  V30 30 C -2.1376 -0.3659 -3.8058 0
M  V30 31 O 2.2598 -3.6404 -2.6697 0
M  V30 32 C -0.9428 0.0186 -4.6705 0
M  V30 33 C -3.3146 -0.8136 -4.6677 0
M  V30 34 C 3.355 -3.3173 -1.9326 0
M  V30 35 O 3.4854 -2.2951 -1.2724 0
M  V30 36 C 4.3971 -4.3847 -2.0607 0
M  V30 37 H 2.0997 2.057 0.0678 0
M  V30 38 H -0.0072 0.2943 2.851 0
M  V30 39 H 2.5926 3.8628 1.3977 0
M  V30 40 H 2.7482 2.2991 3.3534 0
M  V30 41 H 1.3311 1.5499 4.0899 0
M  V30 42 H 1.7734 3.2068 4.4913 0
M  V30 43 H 3.2688 0.2812 0.9594 0
M  V30 44 H 0.6037 0.7255 -1.1487 0
M  V30 45 H 2.0074 -0.2707 -0.804 0
M  V30 46 H -1.4722 0.4693 0.1893 0
M  V30 47 H -2.3802 0.7374 3.1968 0
M  V30 48 H -2.3921 1.9567 1.9275 0
M  V30 49 H -1.7244 5.2536 3.5365 0
M  V30 50 H -0.9119 2.0862 4.6031 0
M  V30 51 H -2.3074 3.0271 4.112 0
M  V30 52 H 1.917 6.1946 1.3699 0
M  V30 53 H -1.5827 -1.7882 2.2215 0
M  V30 54 H -2.9245 -0.9071 1.4889 0
M  V30 55 H 0.4709 -2.5999 1.6622 0
M  V30 56 H 1.9501 -2.1206 0.8414 0
M  V30 57 H 1.3363 -1.1842 2.1899 0
M  V30 58 H -2.741 -1.9168 -0.5309 0
M  V30 59 H -1.2941 -4.0042 1.1516 0
M  V30 60 H -2.0873 -4.2966 -0.415 0
M  V30 61 H -3.0297 -3.7667 0.9775 0
M  V30 62 H 0.4961 -2.9351 -3.3781 0
M  V30 63 H 1.4989 -1.7038 -2.6023 0
M  V30 64 H -2.4646 0.4998 -3.2166 0
M  V30 65 H -1.2096 0.8125 -5.3756 0
M  V30 66 H -0.1121 0.3808 -4.0549 0
M  V30 67 H -0.575 -0.8398 -5.2434 0
M  V30 68 H -4.1653 -1.1066 -4.0426 0
M  V30 69 H -3.0502 -1.6751 -5.291 0
M  V30 70 H -3.643 -0.0045 -5.3284 0
M  V30 71 H 3.9894 -5.3427 -1.728 0
M  V30 72 H 4.7358 -4.4492 -3.0975 0
M  V30 73 H 5.2522 -4.1339 -1.4265 0
M  V30 END ATOM
M  V30 BEGIN BOND
M  V30 1 1 1 2
M  V30 2 1 2 3
M  V30 3 1 2 4
M  V30 4 1 2 5
M  V30 5 1 3 6
M  V30 6 1 3 7
M  V30 7 1 3 8
M  V30 8 1 4 9
M  V30 9 1 4 10
M  V30 10 1 5 11
M  V30 11 1 5 12
M  V30 12 2 6 13
M  V30 13 1 6 14
M  V30 14 2 7 15
M  V30 15 1 10 16
M  V30 16 1 11 17
M  V30 17 1 13 18
M  V30 18 1 16 19
M  V30 19 1 16 20
M  V30 20 1 17 21
M  V30 21 2 18 22
M  V30 22 1 19 23
M  V30 23 1 19 24
M  V30 24 1 21 25
M  V30 25 1 23 26
M  V30 26 2 24 27
M  V30 27 1 24 28
M  V30 28 2 26 29
M  V30 29 1 26 30
M  V30 30 1 28 31
M  V30 31 1 30 32
M  V30 32 1 30 33
M  V30 33 1 31 34
M  V30 34 2 34 35
M  V30 35 1 34 36
M  V30 36 1 11 16
M  V30 37 1 12 14
M  V30 38 1 15 18
M  V30 39 1 19 21
M  V30 40 1 4 37
M  V30 41 1 5 38
M  V30 42 1 7 39
M  V30 43 1 8 40
M  V30 44 1 8 41
M  V30 45 1 8 42
M  V30 46 1 9 43
M  V30 47 1 10 44
M  V30 48 1 10 45
M  V30 49 1 11 46
M  V30 50 1 12 47
M  V30 51 1 12 48
M  V30 52 1 13 49
M  V30 53 1 14 50
M  V30 54 1 14 51
M  V30 55 1 15 52
M  V30 56 1 17 53
M  V30 57 1 17 54
M  V30 58 1 20 55
M  V30 59 1 20 56
M  V30 60 1 20 57
M  V30 61 1 21 58
M  V30 62 1 25 59
M  V30 63 1 25 60
M  V30 64 1 25 61
M  V30 65 1 28 62
M  V30 66 1 28 63
M  V30 67 1 30 64
M  V30 68 1 32 65
M  V30 69 1 32 66
M  V30 70 1 32 67
M  V30 71 1 33 68
M  V30 72 1 33 69
M  V30 73 1 33 70
M  V30 74 1 36 71
M  V30 75 1 36 72
M  V30 76 1 36 73
M  V30 END BOND
M  V30 BEGIN COLLECTION
M  V30 MDLV30/STEABS ATOMS=(8 2 3 4 5 11 16 19 21)
M  V30 END COLLECTION
M  V30 END CTAB
M  END
>  <Column 1>
1026

>  <level_0>
1163

>  <index>
1163

>  <Unnamed: 0>
1163

>  <NO.>
1175

>  <Name>
betamethasone-acetate(dexamethasone-acetate)

>  <IUPAC_name>
[(8s-9r-10s-11s-13s-14s-16s-17r)-17-(2-acetyloxyacetyl)-9-fluoro-11-hydroxy-10-13-16-trimethyl-3-oxo-6-7-8-11-12-14-15-16-octahydrocyclopenta[a]phenanthren-17-yl] 2-methylpropanoate

>  <SMILES>
CC(=O)OCC(=O)[C@@]1(OC(=O)C(C)C)[C@@H](C)C[C@H]2[C@@H]3CCC4=CC(=O)C=C[C@]4(C)[C@@]3(F)[C@@H](O)C[C@@]21C

>  <CID>
111080

>  <logBB>


>  <BBB+/BBB->
BBB+

>  <Inchi>
InChI=1S/C28H37FO7/c1-15(2)24(34)36-28(23(33)14-35-17(4)30)16(3)11-21-20-8-7-18-12-19(31)9-10-25(18-5)27(20-29)22(32)13-26(21-28)6/h9-10-12-15-16-20-22-32H-7-8-11-13-14H2-1-6H3/t16--20--21--22--25--26--27--28-/m0/s1

>  <threshold>
-1

>  <reference>
R1|R6|R27|R30|

>  <group>
B

>  <Class>
1

>  <ABC>
28.4

>  <ABCGG>
23.61

>  <nAcid>
0

>  <nBase>
0

>  <nAromAtom>
0

>  <nAromBond>
0

>  <nAtom>
73

>  <nHeavyAtom>
36

>  <nSpiro>
0

>  <nBridgehead>
0

>  <nHetero>
8

>  <nN>
0

>  <nO>
7

>  <nF>
1

>  <BalabanJ>
1.77

>  <BertzCT>
1062.12

>  <nBonds>
76

>  <nBondsO>
39

>  <nBondsS>
70

>  <nBondsD>
6

>  <nBondsT>
0

>  <nBondsA>
0

>  <nBondsM>
6

>  <nBondsKS>
70

>  <nBondsKD>
6

>  <RNCG>
0.14

>  <RPCG>
0.1

>  <FCSP3>
0.71

>  <SZ>
45

>  <Sm>
42.01

>  <Sv>
43.67

>  <Sse>
73.7

>  <Sp>
46.47

>  <Si>
82.7

>  <MZ>
0.62

>  <Mm>
0.58

>  <Mv>
0.6

>  <Mse>
1.01

>  <Mp>
0.64

>  <Mi>
1.13

>  <NsCH3>
6

>  <NdCH2>
0

>  <NssCH2>
5

>  <NtCH>
0

>  <NdsCH>
3

>  <NaaCH>
0

>  <NsssCH>
5

>  <NddC>
0

>  <NtsC>
0

>  <NdssC>
5

>  <NaasC>
0

>  <NaaaC>
0

>  <NssssC>
4

>  <NsNH3>
0

>  <NsNH2>
0

>  <NssNH2>
0

>  <NdNH>
0

>  <NssNH>
0

>  <NaaNH>
0

>  <NtN>
0

>  <NsssNH>
0

>  <NdsN>
0

>  <NaaN>
0

>  <NsssN>
0

>  <NddsN>
0

>  <NaasN>
0

>  <NssssN>
0

>  <NsOH>
1

>  <NdO>
4

>  <NssO>
2

>  <NaaO>
0

>  <NsF>
1

>  <NsSiH3>
0

>  <NssSiH2>
0

>  <NsssSiH>
0

>  <NssssSi>
0

>  <NsPH2>
0

>  <NssPH>
0

>  <NsssP>
0

>  <NdsssP>
0

>  <NsssssP>
0

>  <NsSH>
0

>  <NdS>
0

>  <NssS>
0

>  <NaaS>
0

>  <NdssS>
0

>  <NddssS>
0

>  <NsCl>
0

>  <NsBr>
0

>  <NsI>
0

>  <fragCpx>
261.08

>  <fMF>
0.23

>  <nHBAcc>
7

>  <nHBDon>
1

>  <Kier1>
28.99

>  <Kier2>
9.88

>  <Lipinski>
0

>  <GhoseFilter>
0

>  <FilterItLogS>
-4.42

>  <VMcGowan>
378.99

>  <LabuteASA>
211.02

>  <PEOE_VSA1>
14.58

>  <PEOE_VSA2>
19.18

>  <PEOE_VSA3>
4.39

>  <PEOE_VSA4>
0

>  <PEOE_VSA5>
0

>  <PEOE_VSA6>
39.34

>  <PEOE_VSA7>
50.68

>  <PEOE_VSA8>
29.59

>  <PEOE_VSA9>
12.02

>  <PEOE_VSA10>
0

>  <PEOE_VSA11>
23.66

>  <PEOE_VSA12>
5.78

>  <PEOE_VSA13>
0

>  <SMR_VSA1>
38.15

>  <SMR_VSA2>
0

>  <SMR_VSA3>
0

>  <SMR_VSA4>
34.5

>  <SMR_VSA5>
84.6

>  <SMR_VSA6>
6.61

>  <SMR_VSA7>
23.8

>  <SMR_VSA8>
0

>  <SMR_VSA9>
0

>  <SlogP_VSA1>
0

>  <SlogP_VSA2>
52.59

>  <SlogP_VSA3>
28.65

>  <SlogP_VSA4>
34.5

>  <SlogP_VSA5>
67.23

>  <SlogP_VSA6>
23.8

>  <SlogP_VSA7>
0

>  <SlogP_VSA8>
0

>  <SlogP_VSA9>
0

>  <SlogP_VSA10>
4.39

>  <SlogP_VSA11>
0

>  <EState_VSA1>
70.29

>  <EState_VSA2>
18.12

>  <EState_VSA3>
24.84

>  <EState_VSA4>
0

>  <EState_VSA5>
19.08

>  <EState_VSA6>
33.77

>  <EState_VSA7>
6.92

>  <EState_VSA8>
0

>  <EState_VSA9>
9.47

>  <EState_VSA10>
24.28

>  <VSA_EState1>
28.48

>  <VSA_EState2>
50.27

>  <VSA_EState3>
11.55

>  <VSA_EState4>
-5.3

>  <VSA_EState5>
-3.95

>  <VSA_EState6>
0

>  <VSA_EState7>
4.14

>  <VSA_EState8>
9.31

>  <VSA_EState9>
0

>  <apol>
77.6

>  <bpol>
45.18

>  <nRing>
4

>  <nHRing>
0

>  <naRing>
0

>  <naHRing>
0

>  <nARing 2>
4

>  <nAHRing 2>
0

>  <nFRing>
1

>  <nFHRing>
0

>  <nFaRing>
0

>  <nFaHRing>
0

>  <nFARing 2>
1

>  <nFAHRing 2>
0

>  <nRot>
5

>  <SLogP>
3.67

>  <SMR>
128.2

>  <TopoPSA(NO)>
106.97

>  <TopoPSA>
106.97

>  <JGI1>
0.32

>  <JGI2>
0.15

>  <JGI3>
0.08

>  <JGI4>
0.06

>  <JGI5>
0.04

>  <Diameter>
14

>  <Radius>
7

>  <TMWC10>
158.04

>  <TSRW10>
88.89

>  <MW>
504.25

>  <AMW>
6.91

>  <WPath>
3422

>  <WPol>
82

>  <Zagreb1>
206

>  <Zagreb2>
263

>  <mZagreb2>
7.56

>  <yes>


>  <nAR-cont>
0.199399

>  <nHA-cont>
0.477843619

>  <MWHBN>
0.356259975

>  <MWHBN-cont>
0.646666437

>  <TPSA-cont>
0.253282976

>  <pka_cont>
0.97

>  <yes.1>


>  <BBB_SCORE>
2.638808226

>  <MMFF94 Energy>
135.03

$$$$
Compound 858
Actelion Java MolfileCreator 2.0

  0  0  0  0  0  0              0 V3000
M  V30 BEGIN CTAB
M  V30 COUNTS 71 75 0 0 0
M  V30 BEGIN ATOM
M  V30 1 F 0.4862 -2.3517 0.7294 0
M  V30 2 C 1.6308 -1.5732 0.8398 0 CFG=2
M  V30 3 C 2.7595 -2.5225 1.4162 0 CFG=2
M  V30 4 C 1.2105 -0.3888 1.7629 0 CFG=1
M  V30 5 C 1.9532 -1.0914 -0.6134 0 CFG=2
M  V30 6 C 2.9888 -3.65 0.3929 0
M  V30 7 C 2.3483 -3.0965 2.7722 0
M  V30 8 C 4.1139 -1.8142 1.6491 0
M  V30 9 O 2.3145 0.4186 2.154 0
M  V30 10 C 0.1192 0.5097 1.1348 0
M  V30 11 C 0.7682 -0.2618 -1.1353 0 CFG=1
M  V30 12 C 2.225 -2.2873 -1.546 0
M  V30 13 C 2.862 -4.9577 0.6806 0
M  V30 14 C 3.3163 -3.2069 -1.0094 0
M  V30 15 C 2.2221 -4.4002 3.0533 0
M  V30 16 C 0.4612 1.0022 -0.2939 0 CFG=1
M  V30 17 C 0.816 0.251 -2.5686 0
M  V30 18 C 2.4795 -5.4274 2.0273 0
M  V30 19 C -0.7461 1.6013 -1.1329 0 CFG=1
M  V30 20 C 1.6497 2.0022 -0.2515 0
M  V30 21 C -0.2057 1.4164 -2.6092 0 CFG=2
M  V30 22 O 2.3789 -6.6207 2.282 0
M  V30 23 O -1.8667 0.7137 -0.9091 0
M  V30 24 C -0.9887 3.1088 -0.7955 0
M  V30 25 C -1.2582 1.1865 -3.6889 0
M  V30 26 C -3.1425 1.0936 -1.1977 0
M  V30 27 O -0.6669 4.0076 -1.5783 0
M  V30 28 C -1.5587 3.4322 0.5825 0
M  V30 29 O -3.4556 2.2144 -1.5707 0
M  V30 30 C -4.0341 -0.0166 -0.9639 0
M  V30 31 O -2.1682 4.7213 0.5949 0
M  V30 32 O -5.3775 0.1744 -1.154 0
M  V30 33 C -3.8166 -1.3237 -0.5602 0
M  V30 34 C -2.6497 5.0842 1.8113 0
M  V30 35 C -5.9997 -0.9983 -0.8747 0
M  V30 36 C -5.0838 -1.9528 -0.504 0
M  V30 37 O -2.5663 4.4094 2.8286 0
M  V30 38 C -3.2945 6.4333 1.7334 0
M  V30 39 H 0.7792 -0.8009 2.6826 0
M  V30 40 H 2.8562 -0.473 -0.6056 0
M  V30 41 H 2.1716 -2.3891 3.5794 0
M  V30 42 H 4.9175 -2.5438 1.8162 0
M  V30 43 H 4.4175 -1.1945 0.8003 0
M  V30 44 H 4.1007 -1.171 2.5355 0
M  V30 45 H 2.0037 1.0451 2.8327 0
M  V30 46 H -0.0547 1.3675 1.7921 0
M  V30 47 H -0.8126 -0.0681 1.1215 0
M  V30 48 H -0.1053 -0.9316 -1.0924 0
M  V30 49 H 1.3023 -2.865 -1.6901 0
M  V30 50 H 2.5286 -1.9286 -2.5364 0
M  V30 51 H 3.0123 -5.7395 -0.055 0
M  V30 52 H 4.2832 -2.6912 -1.0203 0
M  V30 53 H 3.42 -4.0648 -1.6847 0
M  V30 54 H 1.9402 -4.7612 4.0348 0
M  V30 55 H 1.8165 0.6219 -2.8205 0
M  V30 56 H 0.5738 -0.5433 -3.2828 0
M  V30 57 H 2.5909 1.5375 0.0471 0
M  V30 58 H 1.4545 2.8094 0.4625 0
M  V30 59 H 1.8434 2.4725 -1.2198 0
M  V30 60 H 0.3561 2.3077 -2.9159 0
M  V30 61 H -1.8184 0.261 -3.5248 0
M  V30 62 H -1.9603 2.0238 -3.7364 0
M  V30 63 H -0.7807 1.1067 -4.6719 0
M  V30 64 H -2.2997 2.679 0.8631 0
M  V30 65 H -0.7258 3.4251 1.2917 0
M  V30 66 H -2.8556 -1.7678 -0.3359 0
M  V30 67 H -7.0756 -0.9937 -0.985 0
M  V30 68 H -5.3032 -2.9752 -0.2289 0
M  V30 69 H -2.5556 7.1804 1.4337 0
M  V30 70 H -4.1252 6.4067 1.0238 0
M  V30 71 H -3.6864 6.7049 2.7178 0
M  V30 END ATOM
M  V30 BEGIN BOND
M  V30 1 1 1 2
M  V30 2 1 2 3
M  V30 3 1 2 4
M  V30 4 1 2 5
M  V30 5 1 3 6
M  V30 6 1 3 7
M  V30 7 1 3 8
M  V30 8 1 4 9
M  V30 9 1 4 10
M  V30 10 1 5 11
M  V30 11 1 5 12
M  V30 12 2 6 13
M  V30 13 1 6 14
M  V30 14 2 7 15
M  V30 15 1 10 16
M  V30 16 1 11 17
M  V30 17 1 13 18
M  V30 18 1 16 19
M  V30 19 1 16 20
M  V30 20 1 17 21
M  V30 21 2 18 22
M  V30 22 1 19 23
M  V30 23 1 19 24
M  V30 24 1 21 25
M  V30 25 1 23 26
M  V30 26 2 24 27
M  V30 27 1 24 28
M  V30 28 2 26 29
M  V30 29 1 26 30
M  V30 30 1 28 31
M  V30 31 1 30 32
M  V30 32 2 30 33
M  V30 33 1 31 34
M  V30 34 1 32 35
M  V30 35 1 33 36
M  V30 36 2 34 37
M  V30 37 1 34 38
M  V30 38 1 11 16
M  V30 39 1 12 14
M  V30 40 1 15 18
M  V30 41 1 19 21
M  V30 42 2 35 36
M  V30 43 1 4 39
M  V30 44 1 5 40
M  V30 45 1 7 41
M  V30 46 1 8 42
M  V30 47 1 8 43
M  V30 48 1 8 44
M  V30 49 1 9 45
M  V30 50 1 10 46
M  V30 51 1 10 47
M  V30 52 1 11 48
M  V30 53 1 12 49
M  V30 54 1 12 50
M  V30 55 1 13 51
M  V30 56 1 14 52
M  V30 57 1 14 53
M  V30 58 1 15 54
M  V30 59 1 17 55
M  V30 60 1 17 56
M  V30 61 1 20 57
M  V30 62 1 20 58
M  V30 63 1 20 59
M  V30 64 1 21 60
M  V30 65 1 25 61
M  V30 66 1 25 62
M  V30 67 1 25 63
M  V30 68 1 28 64
M  V30 69 1 28 65
M  V30 70 1 33 66
M  V30 71 1 35 67
M  V30 72 1 36 68
M  V30 73 1 38 69
M  V30 74 1 38 70
M  V30 75 1 38 71
M  V30 END BOND
M  V30 BEGIN COLLECTION
M  V30 MDLV30/STEABS ATOMS=(8 2 3 4 5 11 16 19 21)
M  V30 END COLLECTION
M  V30 END CTAB
M  END
>  <Column 1>
1027

>  <level_0>
1164

>  <index>
1164

>  <Unnamed: 0>
1164

>  <NO.>
1176

>  <Name>
dexamethasone-acefurate

>  <IUPAC_name>
[(8s-9r-10s-11s-13s-14s-16r-17r)-17-(2-acetyloxyacetyl)-9-fluoro-11-hydroxy-10-13-16-trimethyl-3-oxo-6-7-8-11-12-14-15-16-octahydrocyclopenta[a]phenanthren-17-yl] furan-2-carboxylate

>  <SMILES>
CC(=O)OCC(=O)[C@@]1(OC(=O)c2ccco2)[C@H](C)C[C@H]2[C@@H]3CCC4=CC(=O)C=C[C@]4(C)[C@@]3(F)[C@@H](O)C[C@@]21C

>  <CID>
656777

>  <logBB>


>  <BBB+/BBB->
BBB+

>  <Inchi>
InChI=1S/C29H33FO8/c1-16-12-21-20-8-7-18-13-19(32)9-10-26(18-3)28(20-30)23(33)14-27(21-4)29(16-24(34)15-37-17(2)31)38-25(35)22-6-5-11-36-22/h5-6-9-11-13-16-20-21-23-33H-7-8-12-14-15H2-1-4H3/t16--20+-21+-23+-26+-27+-28+-29+/m1/s1

>  <threshold>
-1

>  <reference>
R1|R27|R30|

>  <group>
B

>  <Class>
1

>  <ABC>
30.3

>  <ABCGG>
24.88

>  <nAcid>
0

>  <nBase>
0

>  <nAromAtom>
5

>  <nAromBond>
5

>  <nAtom>
71

>  <nHeavyAtom>
38

>  <nSpiro>
0

>  <nBridgehead>
0

>  <nHetero>
9

>  <nN>
0

>  <nO>
8

>  <nF>
1

>  <BalabanJ>
1.54

>  <BertzCT>
1249.1

>  <nBonds>
75

>  <nBondsO>
42

>  <nBondsS>
64

>  <nBondsD>
6

>  <nBondsT>
0

>  <nBondsA>
5

>  <nBondsM>
11

>  <nBondsKS>
67

>  <nBondsKD>
8

>  <RNCG>
0.13

>  <RPCG>
0.11

>  <FCSP3>
0.59

>  <SZ>
46.67

>  <Sm>
44.01

>  <Sv>
44.31

>  <Sse>
72.25

>  <Sp>
46.35

>  <Si>
80.07

>  <MZ>
0.66

>  <Mm>
0.62

>  <Mv>
0.62

>  <Mse>
1.02

>  <Mp>
0.65

>  <Mi>
1.13

>  <NsCH3>
4

>  <NdCH2>
0

>  <NssCH2>
5

>  <NtCH>
0

>  <NdsCH>
3

>  <NaaCH>
3

>  <NsssCH>
4

>  <NddC>
0

>  <NtsC>
0

>  <NdssC>
5

>  <NaasC>
1

>  <NaaaC>
0

>  <NssssC>
4

>  <NsNH3>
0

>  <NsNH2>
0

>  <NssNH2>
0

>  <NdNH>
0

>  <NssNH>
0

>  <NaaNH>
0

>  <NtN>
0

>  <NsssNH>
0

>  <NdsN>
0

>  <NaaN>
0

>  <NsssN>
0

>  <NddsN>
0

>  <NaasN>
0

>  <NssssN>
0

>  <NsOH>
1

>  <NdO>
4

>  <NssO>
2

>  <NaaO>
1

>  <NsF>
1

>  <NsSiH3>
0

>  <NssSiH2>
0

>  <NsssSiH>
0

>  <NssssSi>
0

>  <NsPH2>
0

>  <NssPH>
0

>  <NsssP>
0

>  <NdsssP>
0

>  <NsssssP>
0

>  <NsSH>
0

>  <NdS>
0

>  <NssS>
0

>  <NaaS>
0

>  <NdssS>
0

>  <NddssS>
0

>  <NsCl>
0

>  <NsBr>
0

>  <NsI>
0

>  <fragCpx>
358.09

>  <fMF>
0.34

>  <nHBAcc>
8

>  <nHBDon>
1

>  <Kier1>
29.49

>  <Kier2>
10.37

>  <Lipinski>
0

>  <GhoseFilter>
0

>  <FilterItLogS>
-4.85

>  <VMcGowan>
379.49

>  <LabuteASA>
219.78

>  <PEOE_VSA1>
19

>  <PEOE_VSA2>
14.38

>  <PEOE_VSA3>
9.18

>  <PEOE_VSA4>
0

>  <PEOE_VSA5>
0

>  <PEOE_VSA6>
25.5

>  <PEOE_VSA7>
62.81

>  <PEOE_VSA8>
29.59

>  <PEOE_VSA9>
12.37

>  <PEOE_VSA10>
0

>  <PEOE_VSA11>
23.66

>  <PEOE_VSA12>
11.54

>  <PEOE_VSA13>
0

>  <SMR_VSA1>
42.57

>  <SMR_VSA2>
0

>  <SMR_VSA3>
0

>  <SMR_VSA4>
28.58

>  <SMR_VSA5>
70.75

>  <SMR_VSA6>
6.61

>  <SMR_VSA7>
47.96

>  <SMR_VSA8>
0

>  <SMR_VSA9>
0

>  <SlogP_VSA1>
0

>  <SlogP_VSA2>
52.59

>  <SlogP_VSA3>
23.86

>  <SlogP_VSA4>
28.58

>  <SlogP_VSA5>
63.93

>  <SlogP_VSA6>
46.61

>  <SlogP_VSA7>
0

>  <SlogP_VSA8>
0

>  <SlogP_VSA9>
0

>  <SlogP_VSA10>
4.39

>  <SlogP_VSA11>
0

>  <EState_VSA1>
70.29

>  <EState_VSA2>
17.96

>  <EState_VSA3>
24.84

>  <EState_VSA4>
0

>  <EState_VSA5>
37.47

>  <EState_VSA6>
26.85

>  <EState_VSA7>
0

>  <EState_VSA8>
0

>  <EState_VSA9>
13.89

>  <EState_VSA10>
24.28

>  <VSA_EState1>
33.77

>  <VSA_EState2>
50.76

>  <VSA_EState3>
11.61

>  <VSA_EState4>
-5.6

>  <VSA_EState5>
-4.13

>  <VSA_EState6>
2.94

>  <VSA_EState7>
5.19

>  <VSA_EState8>
5.8

>  <VSA_EState9>
0

>  <apol>
77.41

>  <bpol>
42.9

>  <nRing>
5

>  <nHRing>
1

>  <naRing>
1

>  <naHRing>
1

>  <nARing 2>
4

>  <nAHRing 2>
0

>  <nFRing>
1

>  <nFHRing>
0

>  <nFaRing>
0

>  <nFaHRing>
0

>  <nFARing 2>
1

>  <nFAHRing 2>
0

>  <nRot>
5

>  <SLogP>
3.92

>  <SMR>
131.4

>  <TopoPSA(NO)>
120.11

>  <TopoPSA>
120.11

>  <JGI1>
0.29

>  <JGI2>
0.14

>  <JGI3>
0.08

>  <JGI4>
0.06

>  <JGI5>
0.04

>  <Diameter>
14

>  <Radius>
7

>  <TMWC10>
163.5

>  <TSRW10>
92.52

>  <MW>
528.22

>  <AMW>
7.44

>  <WPath>
3987

>  <WPol>
84

>  <Zagreb1>
220

>  <Zagreb2>
281

>  <mZagreb2>
7.97

>  <yes>


>  <nAR-cont>
0.199399

>  <nHA-cont>
0.390024847

>  <MWHBN>
0.391593152

>  <MWHBN-cont>
0.509183995

>  <TPSA-cont>
0

>  <pka_cont>
0.97

>  <yes.1>


>  <BBB_SCORE>
1.838199839

>  <MMFF94 Energy>
161.36

$$$$
Compound 859
Actelion Java MolfileCreator 2.0

  0  0  0  0  0  0              0 V3000
M  V30 BEGIN CTAB
M  V30 COUNTS 67 70 0 0 0
M  V30 BEGIN ATOM
M  V30 1 F 2.5938 -0.6479 0.5669 0
M  V30 2 C 2.1494 -0.5202 -0.7404 0 CFG=2
M  V30 3 C 3.3812 -0.8976 -1.6636 0 CFG=2
M  V30 4 C 1.6527 0.9539 -0.8478 0 CFG=1
M  V30 5 C 0.9735 -1.5421 -0.8846 0 CFG=2
M  V30 6 C 3.761 -2.3587 -1.3653 0
M  V30 7 C 4.5634 0.0347 -1.3984 0
M  V30 8 C 3.0871 -0.7855 -3.1776 0
M  V30 9 O 1.3479 1.3239 -2.187 0
M  V30 10 C 0.4369 1.2517 0.0614 0
M  V30 11 C -0.1372 -1.1706 0.1116 0 CFG=1
M  V30 12 C 1.461 -2.9798 -0.633 0
M  V30 13 C 4.9813 -2.7438 -0.9494 0
M  V30 14 C 2.6438 -3.3582 -1.5138 0 CFG=2
M  V30 15 C 5.7759 -0.3546 -0.9832 0
M  V30 16 C -0.7269 0.2438 -0.1018 0 CFG=1
M  V30 17 C -1.3782 -2.0487 0.1703 0
M  V30 18 C 6.0759 -1.7773 -0.7371 0
M  V30 19 F 3.0436 -4.6107 -1.1522 0
M  V30 20 C -1.8409 0.2678 1.0354 0 CFG=1
M  V30 21 C -1.3742 0.4168 -1.5045 0
M  V30 22 C -2.3631 -1.2297 1.0415 0 CFG=1
M  V30 23 O 7.1876 -2.1375 -0.3732 0
M  V30 24 O -1.1322 0.4906 2.291 0
M  V30 25 C -2.8808 1.4008 0.7571 0
M  V30 26 C -3.8037 -1.4967 0.6242 0
M  V30 27 C -1.8386 0.4532 3.4539 0
M  V30 28 O -3.8305 1.2495 -0.0169 0
M  V30 29 C -2.6022 2.7727 1.3771 0
M  V30 30 O -3.0505 0.3372 3.5276 0
M  V30 31 C -0.9185 0.6056 4.6244 0
M  V30 32 O -3.2847 3.8118 0.669 0
M  V30 33 C -4.5457 4.0735 1.1105 0
M  V30 34 O -5.0627 3.5965 2.1096 0
M  V30 35 C -5.2087 5.0657 0.2055 0
M  V30 36 H 2.4573 1.6186 -0.5131 0
M  V30 37 H 0.577 -1.5074 -1.904 0
M  V30 38 H 4.4148 1.0954 -1.5891 0
M  V30 39 H 3.8706 -1.2772 -3.7693 0
M  V30 40 H 2.1372 -1.2495 -3.4587 0
M  V30 41 H 3.0572 0.254 -3.5209 0
M  V30 42 H 1.1188 2.2709 -2.1954 0
M  V30 43 H 0.7981 1.2476 1.0965 0
M  V30 44 H 0.0732 2.2651 -0.1435 0
M  V30 45 H 0.319 -1.2146 1.1136 0
M  V30 46 H 1.7385 -3.1103 0.4215 0
M  V30 47 H 0.6508 -3.6954 -0.8168 0
M  V30 48 H 5.2246 -3.778 -0.7293 0
M  V30 49 H 2.3339 -3.4225 -2.5617 0
M  V30 50 H 6.5892 0.3421 -0.8204 0
M  V30 51 H -1.7781 -2.2447 -0.8306 0
M  V30 52 H -1.1704 -3.0193 0.6336 0
M  V30 53 H -2.287 -0.1726 -1.6239 0
M  V30 54 H -0.7181 0.1168 -2.3231 0
M  V30 55 H -1.6409 1.4652 -1.6811 0
M  V30 56 H -2.2622 -1.6361 2.0563 0
M  V30 57 H -4.0335 -2.5635 0.7242 0
M  V30 58 H -3.9909 -1.2252 -0.4182 0
M  V30 59 H -4.5055 -0.953 1.2642 0
M  V30 60 H -2.8588 2.7736 2.4399 0
M  V30 61 H -1.5364 2.9939 1.291 0
M  V30 62 H -0.159 -0.1798 4.6033 0
M  V30 63 H -0.4519 1.5933 4.6012 0
M  V30 64 H -1.4915 0.5075 5.5507 0
M  V30 65 H -4.6783 6.0199 0.2501 0
M  V30 66 H -5.2252 4.6814 -0.8174 0
M  V30 67 H -6.2409 5.2209 0.5321 0
M  V30 END ATOM
M  V30 BEGIN BOND
M  V30 1 1 1 2
M  V30 2 1 2 3
M  V30 3 1 2 4
M  V30 4 1 2 5
M  V30 5 1 3 6
M  V30 6 1 3 7
M  V30 7 1 3 8
M  V30 8 1 4 9
M  V30 9 1 4 10
M  V30 10 1 5 11
M  V30 11 1 5 12
M  V30 12 2 6 13
M  V30 13 1 6 14
M  V30 14 2 7 15
M  V30 15 1 10 16
M  V30 16 1 11 17
M  V30 17 1 13 18
M  V30 18 1 14 19
M  V30 19 1 16 20
M  V30 20 1 16 21
M  V30 21 1 17 22
M  V30 22 2 18 23
M  V30 23 1 20 24
M  V30 24 1 20 25
M  V30 25 1 22 26
M  V30 26 1 24 27
M  V30 27 2 25 28
M  V30 28 1 25 29
M  V30 29 2 27 30
M  V30 30 1 27 31
M  V30 31 1 29 32
M  V30 32 1 32 33
M  V30 33 2 33 34
M  V30 34 1 33 35
M  V30 35 1 11 16
M  V30 36 1 12 14
M  V30 37 1 15 18
M  V30 38 1 20 22
M  V30 39 1 4 36
M  V30 40 1 5 37
M  V30 41 1 7 38
M  V30 42 1 8 39
M  V30 43 1 8 40
M  V30 44 1 8 41
M  V30 45 1 9 42
M  V30 46 1 10 43
M  V30 47 1 10 44
M  V30 48 1 11 45
M  V30 49 1 12 46
M  V30 50 1 12 47
M  V30 51 1 13 48
M  V30 52 1 14 49
M  V30 53 1 15 50
M  V30 54 1 17 51
M  V30 55 1 17 52
M  V30 56 1 21 53
M  V30 57 1 21 54
M  V30 58 1 21 55
M  V30 59 1 22 56
M  V30 60 1 26 57
M  V30 61 1 26 58
M  V30 62 1 26 59
M  V30 63 1 29 60
M  V30 64 1 29 61
M  V30 65 1 31 62
M  V30 66 1 31 63
M  V30 67 1 31 64
M  V30 68 1 35 65
M  V30 69 1 35 66
M  V30 70 1 35 67
M  V30 END BOND
M  V30 BEGIN COLLECTION
M  V30 MDLV30/STEABS ATOMS=(9 2 3 4 5 11 14 16 20 22)
M  V30 END COLLECTION
M  V30 END CTAB
M  END
>  <Column 1>
1028

>  <level_0>
1165

>  <index>
1165

>  <Unnamed: 0>
1165

>  <NO.>
1177

>  <Name>
diflorasone diacetate

>  <IUPAC_name>
[2-[(6s-8s-9r-10s-11s-13s-14s-16s-17r)-17-acetyloxy-6-9-difluoro-11-hydroxy-10-13-16-trimethyl-3-oxo-6-7-8-11-12-14-15-16-octahydrocyclopenta[a]phenanthren-17-yl]-2-oxoethyl] acetate

>  <SMILES>
CC(=O)OCC(=O)[C@@]1(OC(C)=O)[C@@H](C)C[C@H]2[C@@H]3C[C@H](F)C4=CC(=O)C=C[C@]4(C)[C@@]3(F)[C@@H](O)C[C@@]21C

>  <CID>
71414

>  <logBB>


>  <BBB+/BBB->
BBB+

>  <Inchi>
InChI=1S/C26H32F2O7/c1-13-8-17-18-10-20(27)19-9-16(31)6-7-23(19-4)25(18-28)21(32)11-24(17-5)26(13-35-15(3)30)22(33)12-34-14(2)29/h6-7-9-13-17-18-20-21-32H-8-10-12H2-1-5H3/t13--17--18--20--21--23--24--25--26-/m0/s1

>  <threshold>
-1

>  <reference>
R1|R27|R30|

>  <group>
B

>  <Class>
1

>  <ABC>
27.69

>  <ABCGG>
23.16

>  <nAcid>
0

>  <nBase>
0

>  <nAromAtom>
0

>  <nAromBond>
0

>  <nAtom>
67

>  <nHeavyAtom>
35

>  <nSpiro>
0

>  <nBridgehead>
0

>  <nHetero>
9

>  <nN>
0

>  <nO>
7

>  <nF>
2

>  <BalabanJ>
1.79

>  <BertzCT>
1052.3

>  <nBonds>
70

>  <nBondsO>
38

>  <nBondsS>
64

>  <nBondsD>
6

>  <nBondsT>
0

>  <nBondsA>
0

>  <nBondsM>
6

>  <nBondsKS>
64

>  <nBondsKD>
6

>  <RNCG>
0.14

>  <RPCG>
0.09

>  <FCSP3>
0.69

>  <SZ>
43.67

>  <Sm>
41.17

>  <Sv>
40.97

>  <Sse>
68.43

>  <Sp>
42.81

>  <Si>
76.2

>  <MZ>
0.65

>  <Mm>
0.61

>  <Mv>
0.61

>  <Mse>
1.02

>  <Mp>
0.64

>  <Mi>
1.14

>  <NsCH3>
5

>  <NdCH2>
0

>  <NssCH2>
4

>  <NtCH>
0

>  <NdsCH>
3

>  <NaaCH>
0

>  <NsssCH>
5

>  <NddC>
0

>  <NtsC>
0

>  <NdssC>
5

>  <NaasC>
0

>  <NaaaC>
0

>  <NssssC>
4

>  <NsNH3>
0

>  <NsNH2>
0

>  <NssNH2>
0

>  <NdNH>
0

>  <NssNH>
0

>  <NaaNH>
0

>  <NtN>
0

>  <NsssNH>
0

>  <NdsN>
0

>  <NaaN>
0

>  <NsssN>
0

>  <NddsN>
0

>  <NaasN>
0

>  <NssssN>
0

>  <NsOH>
1

>  <NdO>
4

>  <NssO>
2

>  <NaaO>
0

>  <NsF>
2

>  <NsSiH3>
0

>  <NssSiH2>
0

>  <NsssSiH>
0

>  <NssssSi>
0

>  <NsPH2>
0

>  <NssPH>
0

>  <NsssP>
0

>  <NdsssP>
0

>  <NsssssP>
0

>  <NsSH>
0

>  <NdS>
0

>  <NssS>
0

>  <NaaS>
0

>  <NdssS>
0

>  <NddssS>
0

>  <NsCl>
0

>  <NsBr>
0

>  <NsI>
0

>  <fragCpx>
254.09

>  <fMF>
0.25

>  <nHBAcc>
7

>  <nHBDon>
1

>  <Kier1>
28.02

>  <Kier2>
9.33

>  <Lipinski>
1

>  <GhoseFilter>
0

>  <FilterItLogS>
-4.05

>  <VMcGowan>
352.57

>  <LabuteASA>
202.46

>  <PEOE_VSA1>
14.58

>  <PEOE_VSA2>
19.18

>  <PEOE_VSA3>
8.78

>  <PEOE_VSA4>
0

>  <PEOE_VSA5>
0

>  <PEOE_VSA6>
19.92

>  <PEOE_VSA7>
49.83

>  <PEOE_VSA8>
36.51

>  <PEOE_VSA9>
6.1

>  <PEOE_VSA10>
6.17

>  <PEOE_VSA11>
23.66

>  <PEOE_VSA12>
5.78

>  <PEOE_VSA13>
0

>  <SMR_VSA1>
42.54

>  <SMR_VSA2>
0

>  <SMR_VSA3>
0

>  <SMR_VSA4>
28.58

>  <SMR_VSA5>
77.43

>  <SMR_VSA6>
6.61

>  <SMR_VSA7>
23.8

>  <SMR_VSA8>
0

>  <SMR_VSA9>
0

>  <SlogP_VSA1>
0

>  <SlogP_VSA2>
58.76

>  <SlogP_VSA3>
28.65

>  <SlogP_VSA4>
28.58

>  <SlogP_VSA5>
53.88

>  <SlogP_VSA6>
23.8

>  <SlogP_VSA7>
0

>  <SlogP_VSA8>
0

>  <SlogP_VSA9>
0

>  <SlogP_VSA10>
8.78

>  <SlogP_VSA11>
0

>  <EState_VSA1>
82.24

>  <EState_VSA2>
24.84

>  <EState_VSA3>
0

>  <EState_VSA4>
19.92

>  <EState_VSA5>
19.08

>  <EState_VSA6>
13.85

>  <EState_VSA7>
0

>  <EState_VSA8>
0

>  <EState_VSA9>
9.47

>  <EState_VSA10>
24.28

>  <VSA_EState1>
43.47

>  <VSA_EState2>
49.14

>  <VSA_EState3>
11.4

>  <VSA_EState4>
-6.9

>  <VSA_EState5>
-4.77

>  <VSA_EState6>
0

>  <VSA_EState7>
0.12

>  <VSA_EState8>
6.52

>  <VSA_EState9>
0

>  <apol>
71.49

>  <bpol>
41.27

>  <nRing>
4

>  <nHRing>
0

>  <naRing>
0

>  <naHRing>
0

>  <nARing 2>
4

>  <nAHRing 2>
0

>  <nFRing>
1

>  <nFHRing>
0

>  <nFaRing>
0

>  <nFaHRing>
0

>  <nFARing 2>
1

>  <nFAHRing 2>
0

>  <nRot>
4

>  <SLogP>
2.99

>  <SMR>
119.32

>  <TopoPSA(NO)>
106.97

>  <TopoPSA>
106.97

>  <JGI1>
0.33

>  <JGI2>
0.14

>  <JGI3>
0.08

>  <JGI4>
0.06

>  <JGI5>
0.04

>  <Diameter>
14

>  <Radius>
7

>  <TMWC10>
156.08

>  <TSRW10>
87.85

>  <MW>
494.21

>  <AMW>
7.38

>  <WPath>
3128

>  <WPol>
81

>  <Zagreb1>
202

>  <Zagreb2>
259

>  <mZagreb2>
7.31

>  <yes>


>  <nAR-cont>
0.199399

>  <nHA-cont>
0.523063577

>  <MWHBN>
0.359860536

>  <MWHBN-cont>
0.63295421

>  <TPSA-cont>
0.253282976

>  <pka_cont>
0.97

>  <yes.1>


>  <BBB_SCORE>
2.663459844

>  <MMFF94 Energy>
131.65

$$$$
Compound 860
Actelion Java MolfileCreator 2.0

  0  0  0  0  0  0              0 V3000
M  V30 BEGIN CTAB
M  V30 COUNTS 63 67 0 0 0
M  V30 BEGIN ATOM
M  V30 1 O 0.7283 -0.1618 -7.3012 0
M  V30 2 C 0.4191 0.2754 -6.2 0
M  V30 3 C -0.8401 -0.123 -5.5397 0
M  V30 4 C 1.2941 1.2148 -5.4748 0
M  V30 5 C -1.1886 0.3509 -4.3302 0
M  V30 6 C 0.9481 1.6891 -4.2708 0
M  V30 7 C -0.3365 1.3439 -3.5238 0 CFG=2
M  V30 8 C -2.4508 -0.1261 -3.6593 0
M  V30 9 C 0.0015 0.652 -2.1466 0 CFG=1
M  V30 10 C -1.1289 2.6642 -3.3942 0
M  V30 11 C -2.1205 -0.7792 -2.3227 0
M  V30 12 C 0.94 1.4551 -1.1951 0 CFG=1
M  V30 13 C -1.2863 0.139 -1.4105 0 CFG=1
M  V30 14 O 0.426 2.7555 -0.9458 0
M  V30 15 C 1.2116 0.7455 0.151 0
M  V30 16 C -0.8568 -0.6108 -0.1413 0 CFG=1
M  V30 17 C -0.0723 0.2678 0.8622 0 CFG=1
M  V30 18 C -1.9246 -1.2736 0.7283 0
M  V30 19 C 0.12 -0.743 2.0346 0 CFG=1
M  V30 20 C -0.8919 1.4883 1.3668 0
M  V30 21 C -1.1794 -1.577 2.0438 0 CFG=2
M  V30 22 N 1.1887 -1.7319 1.7403 0
M  V30 23 C 0.4109 -0.1117 3.4061 0
M  V30 24 O -0.7335 -2.9313 2.0499 0
M  V30 25 C 0.5955 -2.8785 1.8362 0
M  V30 26 O -0.503 0.2116 4.1725 0
M  V30 27 C 1.8728 0.1896 3.7438 0
M  V30 28 C 1.2587 -4.1978 1.6809 0
M  V30 29 O 2.0318 0.6943 5.0723 0
M  V30 30 C 1.9209 -0.2575 6.0405 0
M  V30 31 O 1.7933 -1.4577 5.8417 0
M  V30 32 C 1.9973 0.3758 7.3954 0
M  V30 33 H -1.4468 -0.8325 -6.0907 0
M  V30 34 H 2.2106 1.5034 -5.9744 0
M  V30 35 H 1.6173 2.4063 -3.8 0
M  V30 36 H -3.1371 0.7153 -3.5109 0
M  V30 37 H -2.9865 -0.8502 -4.2853 0
M  V30 38 H 0.5774 -0.2553 -2.398 0
M  V30 39 H -1.968 2.5857 -2.6965 0
M  V30 40 H -0.5013 3.4964 -3.0574 0
M  V30 41 H -1.5451 2.9711 -4.363 0
M  V30 42 H -3.0586 -1.0503 -1.824 0
M  V30 43 H -1.5772 -1.7165 -2.5027 0
M  V30 44 H 1.9096 1.5935 -1.6865 0
M  V30 45 H -1.9197 0.9897 -1.1402 0
M  V30 46 H 1.0873 3.2463 -0.427 0
M  V30 47 H 1.8647 -0.11 -0.0586 0
M  V30 48 H 1.7712 1.4163 0.8131 0
M  V30 49 H -0.1971 -1.4239 -0.4853 0
M  V30 50 H -2.7553 -0.5826 0.9084 0
M  V30 51 H -2.3242 -2.1801 0.2628 0
M  V30 52 H -1.3036 2.0985 0.5615 0
M  V30 53 H -1.746 1.19 1.984 0
M  V30 54 H -0.2655 2.1475 1.979 0
M  V30 55 H -1.8334 -1.4233 2.907 0
M  V30 56 H 2.5044 -0.6927 3.6027 0
M  V30 57 H 2.2231 0.971 3.0644 0
M  V30 58 H 0.9435 -4.6541 0.739 0
M  V30 59 H 0.9839 -4.8496 2.5144 0
M  V30 60 H 2.3449 -4.0738 1.6726 0
M  V30 61 H 2.9747 0.8454 7.5303 0
M  V30 62 H 1.1972 1.1123 7.506 0
M  V30 63 H 1.8685 -0.393 8.1626 0
M  V30 END ATOM
M  V30 BEGIN BOND
M  V30 1 2 1 2
M  V30 2 1 2 3
M  V30 3 1 2 4
M  V30 4 2 3 5
M  V30 5 2 4 6
M  V30 6 1 5 7
M  V30 7 1 5 8
M  V30 8 1 7 9
M  V30 9 1 7 10
M  V30 10 1 8 11
M  V30 11 1 9 12
M  V30 12 1 9 13
M  V30 13 1 12 14
M  V30 14 1 12 15
M  V30 15 1 13 16
M  V30 16 1 15 17
M  V30 17 1 16 18
M  V30 18 1 17 19
M  V30 19 1 17 20
M  V30 20 1 18 21
M  V30 21 1 19 22
M  V30 22 1 19 23
M  V30 23 1 21 24
M  V30 24 2 22 25
M  V30 25 2 23 26
M  V30 26 1 23 27
M  V30 27 1 25 28
M  V30 28 1 27 29
M  V30 29 1 29 30
M  V30 30 2 30 31
M  V30 31 1 30 32
M  V30 32 1 6 7
M  V30 33 1 11 13
M  V30 34 1 16 17
M  V30 35 1 19 21
M  V30 36 1 24 25
M  V30 37 1 3 33
M  V30 38 1 4 34
M  V30 39 1 6 35
M  V30 40 1 8 36
M  V30 41 1 8 37
M  V30 42 1 9 38
M  V30 43 1 10 39
M  V30 44 1 10 40
M  V30 45 1 10 41
M  V30 46 1 11 42
M  V30 47 1 11 43
M  V30 48 1 12 44
M  V30 49 1 13 45
M  V30 50 1 14 46
M  V30 51 1 15 47
M  V30 52 1 15 48
M  V30 53 1 16 49
M  V30 54 1 18 50
M  V30 55 1 18 51
M  V30 56 1 20 52
M  V30 57 1 20 53
M  V30 58 1 20 54
M  V30 59 1 21 55
M  V30 60 1 27 56
M  V30 61 1 27 57
M  V30 62 1 28 58
M  V30 63 1 28 59
M  V30 64 1 28 60
M  V30 65 1 32 61
M  V30 66 1 32 62
M  V30 67 1 32 63
M  V30 END BOND
M  V30 BEGIN COLLECTION
M  V30 MDLV30/STEABS ATOMS=(8 7 9 12 13 16 17 19 21)
M  V30 END COLLECTION
M  V30 END CTAB
M  END
>  <Column 1>
1029

>  <level_0>
1166

>  <index>
1166

>  <Unnamed: 0>
1166

>  <NO.>
1178

>  <Name>
deflazacort

>  <IUPAC_name>
[2-[(1s-2s-4r-8s-9s-11s-12s-13r)-11-hydroxy-6-9-13-trimethyl-16-oxo-5-oxa-7-azapentacyclo[10.8.0.02-9.04-8.013-18]icosa-6-14-17-trien-8-yl]-2-oxoethyl] acetate

>  <SMILES>
CC(=O)OCC(=O)[C@@]12N=C(C)O[C@@H]1C[C@H]1[C@@H]3CCC4=CC(=O)C=C[C@]4(C)[C@H]3[C@@H](O)C[C@@]12C

>  <CID>
189821

>  <logBB>


>  <BBB+/BBB->
BBB+

>  <Inchi>
InChI=1S/C25H31NO6/c1-13-26-25(20(30)12-31-14(2)27)21(32-13)10-18-17-6-5-15-9-16(28)7-8-23(15-3)22(17)19(29)11-24(18-25)4/h7-9-17-19-21-22-29H-5-6-10-12H2-1-4H3/t17--18--19--21+-22+-23--24--25+/m0/s1

>  <threshold>
-1

>  <reference>
R1|R27|R30|

>  <group>
B

>  <Class>
1

>  <ABC>
25.91

>  <ABCGG>
20.63

>  <nAcid>
0

>  <nBase>
0

>  <nAromAtom>
0

>  <nAromBond>
0

>  <nAtom>
63

>  <nHeavyAtom>
32

>  <nSpiro>
0

>  <nBridgehead>
0

>  <nHetero>
7

>  <nN>
1

>  <nO>
6

>  <nF>
0

>  <BalabanJ>
1.49

>  <BertzCT>
996.39

>  <nBonds>
67

>  <nBondsO>
36

>  <nBondsS>
61

>  <nBondsD>
6

>  <nBondsT>
0

>  <nBondsA>
0

>  <nBondsM>
6

>  <nBondsKS>
61

>  <nBondsKD>
6

>  <RNCG>
0.17

>  <RPCG>
0.11

>  <FCSP3>
0.68

>  <SZ>
39.33

>  <Sm>
36.76

>  <Sv>
38.45

>  <Sse>
63.41

>  <Sp>
40.92

>  <Si>
70.98

>  <MZ>
0.62

>  <Mm>
0.58

>  <Mv>
0.61

>  <Mse>
1.01

>  <Mp>
0.65

>  <Mi>
1.13

>  <NsCH3>
4

>  <NdCH2>
0

>  <NssCH2>
5

>  <NtCH>
0

>  <NdsCH>
3

>  <NaaCH>
0

>  <NsssCH>
5

>  <NddC>
0

>  <NtsC>
0

>  <NdssC>
5

>  <NaasC>
0

>  <NaaaC>
0

>  <NssssC>
3

>  <NsNH3>
0

>  <NsNH2>
0

>  <NssNH2>
0

>  <NdNH>
0

>  <NssNH>
0

>  <NaaNH>
0

>  <NtN>
0

>  <NsssNH>
0

>  <NdsN>
1

>  <NaaN>
0

>  <NsssN>
0

>  <NddsN>
0

>  <NaasN>
0

>  <NssssN>
0

>  <NsOH>
1

>  <NdO>
3

>  <NssO>
2

>  <NaaO>
0

>  <NsF>
0

>  <NsSiH3>
0

>  <NssSiH2>
0

>  <NsssSiH>
0

>  <NssssSi>
0

>  <NsPH2>
0

>  <NssPH>
0

>  <NsssP>
0

>  <NdsssP>
0

>  <NsssssP>
0

>  <NsSH>
0

>  <NdS>
0

>  <NssS>
0

>  <NaaS>
0

>  <NdssS>
0

>  <NddssS>
0

>  <NsCl>
0

>  <NsBr>
0

>  <NsI>
0

>  <fragCpx>
304.07

>  <fMF>
0.32

>  <nHBAcc>
7

>  <nHBDon>
1

>  <Kier1>
23.73

>  <Kier2>
8.01

>  <Lipinski>
1

>  <GhoseFilter>
1

>  <FilterItLogS>
-3.53

>  <VMcGowan>
328.21

>  <LabuteASA>
187.49

>  <PEOE_VSA1>
14.58

>  <PEOE_VSA2>
14.38

>  <PEOE_VSA3>
4.99

>  <PEOE_VSA4>
0

>  <PEOE_VSA5>
0

>  <PEOE_VSA6>
25.5

>  <PEOE_VSA7>
49.67

>  <PEOE_VSA8>
30.6

>  <PEOE_VSA9>
6.1

>  <PEOE_VSA10>
6.1

>  <PEOE_VSA11>
23.83

>  <PEOE_VSA12>
5.78

>  <PEOE_VSA13>
0

>  <SMR_VSA1>
28.96

>  <SMR_VSA2>
0

>  <SMR_VSA3>
0

>  <SMR_VSA4>
33.58

>  <SMR_VSA5>
71.13

>  <SMR_VSA6>
6.61

>  <SMR_VSA7>
23.8

>  <SMR_VSA8>
0

>  <SMR_VSA9>
0

>  <SlogP_VSA1>
0

>  <SlogP_VSA2>
52.89

>  <SlogP_VSA3>
23.86

>  <SlogP_VSA4>
28.58

>  <SlogP_VSA5>
53.38

>  <SlogP_VSA6>
28.79

>  <SlogP_VSA7>
0

>  <SlogP_VSA8>
0

>  <SlogP_VSA9>
0

>  <SlogP_VSA10>
0

>  <SlogP_VSA11>
0

>  <EState_VSA1>
29.13

>  <EState_VSA2>
41.34

>  <EState_VSA3>
18.74

>  <EState_VSA4>
18.41

>  <EState_VSA5>
6.92

>  <EState_VSA6>
19.08

>  <EState_VSA7>
6.08

>  <EState_VSA8>
13.85

>  <EState_VSA9>
14.47

>  <EState_VSA10>
19.49

>  <VSA_EState1>
11.16

>  <VSA_EState2>
41.71

>  <VSA_EState3>
11.55

>  <VSA_EState4>
-1.04

>  <VSA_EState5>
-0.01

>  <VSA_EState6>
0

>  <VSA_EState7>
7.01

>  <VSA_EState8>
6.88

>  <VSA_EState9>
0

>  <apol>
68.33

>  <bpol>
38.32

>  <nRing>
5

>  <nHRing>
1

>  <naRing>
0

>  <naHRing>
0

>  <nARing 2>
5

>  <nAHRing 2>
1

>  <nFRing>
1

>  <nFHRing>
1

>  <nFaRing>
0

>  <nFaHRing>
0

>  <nFARing 2>
1

>  <nFAHRing 2>
1

>  <nRot>
3

>  <SLogP>
2.56

>  <SMR>
115.74

>  <TopoPSA(NO)>
102.26

>  <TopoPSA>
102.26

>  <JGI1>
0.29

>  <JGI2>
0.12

>  <JGI3>
0.08

>  <JGI4>
0.06

>  <JGI5>
0.03

>  <Diameter>
14

>  <Radius>
7

>  <TMWC10>
150.33

>  <TSRW10>
86.2

>  <MW>
441.22

>  <AMW>
7

>  <WPath>
2550

>  <WPol>
70

>  <Zagreb1>
190

>  <Zagreb2>
243

>  <mZagreb2>
6.6

>  <yes>


>  <nAR-cont>
0

>  <nHA-cont>
0.658856097

>  <MWHBN>
0.380857394

>  <MWHBN-cont>
0.551439984

>  <TPSA-cont>
0.2861617

>  <pka_cont>
0.97

>  <yes.1>


>  <BBB_SCORE>
2.543339474

>  <MMFF94 Energy>
109.92

$$$$
Compound 861
Actelion Java MolfileCreator 2.0

  0  0  0  0  0  0              0 V3000
M  V30 BEGIN CTAB
M  V30 COUNTS 77 81 0 0 0
M  V30 BEGIN ATOM
M  V30 1 Cl 7.7331 2.0306 4.553 0
M  V30 2 C 7.4691 2.0001 2.7891 0
M  V30 3 C 7.6458 0.5942 2.2246 0
M  V30 4 O 6.6264 -0.3017 2.6711 0
M  V30 5 C 5.3789 -0.312 2.0914 0
M  V30 6 C 4.9837 0.4074 1.0247 0
M  V30 7 C 4.4415 -1.2476 2.8016 0
M  V30 8 C 3.6238 0.3789 0.4732 0
M  V30 9 C 3.121 -1.478 2.0663 0
M  V30 10 C 3.3294 0.8149 -0.7727 0
M  V30 11 C 2.5291 -0.1954 1.4174 0
M  V30 12 C 4.3668 1.2755 -1.7515 0
M  V30 13 C 1.9426 0.8246 -1.3543 0
M  V30 14 C 1.1882 -0.5476 0.6317 0 CFG=1
M  V30 15 C 2.2445 0.8612 2.5205 0
M  V30 16 O 4.0805 1.8121 -2.8161 0
M  V30 17 C 0.811 0.59 -0.3456 0
M  V30 18 F 1.4452 -1.6621 -0.1354 0
M  V30 19 C -0.0265 -0.9147 1.5302 0
M  V30 20 C -0.5414 0.4175 -1.0837 0
M  V30 21 O 0.2099 -2.113 2.2714 0
M  V30 22 C -1.3122 -1.1514 0.7312 0
M  V30 23 C -1.7256 0.0365 -0.1684 0
M  V30 24 C -0.5867 -0.6546 -2.1891 0
M  V30 25 C -2.829 -0.3684 -1.2053 0 CFG=1
M  V30 26 C -2.1576 1.214 0.7266 0
M  V30 27 C -2.0676 -0.9829 -2.3818 0 CFG=2
M  V30 28 O -3.6911 -1.398 -0.7178 0
M  V30 29 C -3.6657 0.8227 -1.7179 0
M  V30 30 O -2.2971 -2.3889 -2.2933 0
M  V30 31 C -3.5303 -2.5245 -1.5894 0
M  V30 32 O -3.1978 1.6326 -2.5233 0
M  V30 33 C -5.0761 0.9636 -1.1523 0
M  V30 34 C -3.5046 -3.8025 -0.7625 0
M  V30 35 C -4.6894 -2.5641 -2.5862 0
M  V30 36 O -5.6523 2.2048 -1.5614 0
M  V30 37 C -6.9284 2.3862 -1.1332 0
M  V30 38 O -7.5617 1.5929 -0.4518 0
M  V30 39 C -7.4533 3.7037 -1.6141 0
M  V30 40 H 8.198 2.6825 2.3434 0
M  V30 41 H 6.4639 2.3902 2.6124 0
M  V30 42 H 7.7019 0.6056 1.1305 0
M  V30 43 H 8.6024 0.1804 2.5648 0
M  V30 44 H 5.6917 1.0715 0.5481 0
M  V30 45 H 4.2385 -0.8426 3.8011 0
M  V30 46 H 4.9315 -2.2175 2.952 0
M  V30 47 H 2.4336 -1.9143 2.7947 0
M  V30 48 H 3.2822 -2.2405 1.2921 0
M  V30 49 H 5.4178 1.1 -1.4847 0
M  V30 50 H 1.9231 0.0571 -2.1371 0
M  V30 51 H 1.7526 1.7872 -1.847 0
M  V30 52 H 1.7234 1.7384 2.1253 0
M  V30 53 H 1.6333 0.4404 3.3259 0
M  V30 54 H 3.1577 1.2374 2.9943 0
M  V30 55 H 0.7074 1.511 0.2426 0
M  V30 56 H -0.2133 -0.1276 2.2644 0
M  V30 57 H -0.7616 1.3815 -1.5655 0
M  V30 58 H 0.4742 -2.7959 1.6248 0
M  V30 59 H -2.1249 -1.3993 1.4276 0
M  V30 60 H -1.1667 -2.0595 0.1353 0
M  V30 61 H -0.0183 -1.5525 -1.9296 0
M  V30 62 H -0.1638 -0.2606 -3.1199 0
M  V30 63 H -3.0346 0.9461 1.3255 0
M  V30 64 H -1.3694 1.5206 1.4202 0
M  V30 65 H -2.4055 2.1056 0.1417 0
M  V30 66 H -2.4146 -0.6451 -3.3648 0
M  V30 67 H -5.6813 0.136 -1.5361 0
M  V30 68 H -5.0211 0.9341 -0.0597 0
M  V30 69 H -4.4259 -3.9188 -0.1821 0
M  V30 70 H -2.6754 -3.7897 -0.048 0
M  V30 71 H -3.3654 -4.6837 -1.3975 0
M  V30 72 H -4.5867 -3.4076 -3.277 0
M  V30 73 H -5.6521 -2.6371 -2.0694 0
M  V30 74 H -4.7215 -1.6548 -3.1961 0
M  V30 75 H -6.8438 4.5155 -1.2093 0
M  V30 76 H -7.4503 3.7275 -2.7066 0
M  V30 77 H -8.482 3.8329 -1.2657 0
M  V30 END ATOM
M  V30 BEGIN BOND
M  V30 1 1 1 2
M  V30 2 1 2 3
M  V30 3 1 3 4
M  V30 4 1 4 5
M  V30 5 2 5 6
M  V30 6 1 5 7
M  V30 7 1 6 8
M  V30 8 1 7 9
M  V30 9 2 8 10
M  V30 10 1 8 11
M  V30 11 1 10 12
M  V30 12 1 10 13
M  V30 13 1 11 14
M  V30 14 1 11 15
M  V30 15 2 12 16
M  V30 16 1 13 17
M  V30 17 1 14 18
M  V30 18 1 14 19
M  V30 19 1 17 20
M  V30 20 1 19 21
M  V30 21 1 19 22
M  V30 22 1 20 23
M  V30 23 1 20 24
M  V30 24 1 23 25
M  V30 25 1 23 26
M  V30 26 1 24 27
M  V30 27 1 25 28
M  V30 28 1 25 29
M  V30 29 1 27 30
M  V30 30 1 28 31
M  V30 31 2 29 32
M  V30 32 1 29 33
M  V30 33 1 31 34
M  V30 34 1 31 35
M  V30 35 1 33 36
M  V30 36 1 36 37
M  V30 37 2 37 38
M  V30 38 1 37 39
M  V30 39 1 9 11
M  V30 40 1 14 17
M  V30 41 1 22 23
M  V30 42 1 25 27
M  V30 43 1 30 31
M  V30 44 1 2 40
M  V30 45 1 2 41
M  V30 46 1 3 42
M  V30 47 1 3 43
M  V30 48 1 6 44
M  V30 49 1 7 45
M  V30 50 1 7 46
M  V30 51 1 9 47
M  V30 52 1 9 48
M  V30 53 1 12 49
M  V30 54 1 13 50
M  V30 55 1 13 51
M  V30 56 1 15 52
M  V30 57 1 15 53
M  V30 58 1 15 54
M  V30 59 1 17 55
M  V30 60 1 19 56
M  V30 61 1 20 57
M  V30 62 1 21 58
M  V30 63 1 22 59
M  V30 64 1 22 60
M  V30 65 1 24 61
M  V30 66 1 24 62
M  V30 67 1 26 63
M  V30 68 1 26 64
M  V30 69 1 26 65
M  V30 70 1 27 66
M  V30 71 1 33 67
M  V30 72 1 33 68
M  V30 73 1 34 69
M  V30 74 1 34 70
M  V30 75 1 34 71
M  V30 76 1 35 72
M  V30 77 1 35 73
M  V30 78 1 35 74
M  V30 79 1 39 75
M  V30 80 1 39 76
M  V30 81 1 39 77
M  V30 END BOND
M  V30 BEGIN COLLECTION
M  V30 MDLV30/STEABS ATOMS=(3 14 25 27)
M  V30 END COLLECTION
M  V30 END CTAB
M  END
>  <Column 1>
1030

>  <level_0>
1167

>  <index>
1167

>  <Unnamed: 0>
1167

>  <NO.>
1179

>  <Name>
cutisterol

>  <IUPAC_name>
[2-[(4r-8s-12r)-16-(2-chloroethoxy)-12-fluoro-19-formyl-11-hydroxy-6-6-9-13-tetramethyl-5-7-dioxapentacyclo[10.8.0.02-9.04-8.013-18]icosa-16-18-dien-8-yl]-2-oxoethyl] acetate

>  <SMILES>
CC(=O)OCC(=O)[C@@]12OC(C)(C)O[C@@H]1CC1C3CC(C=O)=C4C=C(OCCCl)CCC4(C)[C@@]3(F)C(O)CC12C

>  <CID>
17794

>  <logBB>


>  <BBB+/BBB->
BBB+

>  <Inchi>
InChI=1S/C29H38ClFO8/c1-16(33)37-15-23(35)29-24(38-25(2-3)39-29)12-20-21-10-17(14-32)19-11-18(36-9-8-30)6-7-26(19-4)28(21-31)22(34)13-27(20-29)5/h11-14-20-22-24-34H-6-10-12-13-15H2-1-5H3/t20?-21?-22?-24--26?-27?-28+-29-/m1/s1

>  <threshold>
-1

>  <reference>
R1|R27|R30|

>  <group>
B

>  <Class>
1

>  <ABC>
31

>  <ABCGG>
24.64

>  <nAcid>
0

>  <nBase>
0

>  <nAromAtom>
0

>  <nAromBond>
0

>  <nAtom>
77

>  <nHeavyAtom>
39

>  <nSpiro>
0

>  <nBridgehead>
0

>  <nHetero>
10

>  <nN>
0

>  <nO>
8

>  <nF>
1

>  <BalabanJ>
1.53

>  <BertzCT>
1150.11

>  <nBonds>
81

>  <nBondsO>
43

>  <nBondsS>
76

>  <nBondsD>
5

>  <nBondsT>
0

>  <nBondsA>
0

>  <nBondsM>
5

>  <nBondsKS>
76

>  <nBondsKD>
5

>  <RNCG>
0.14

>  <RPCG>
0.09

>  <FCSP3>
0.76

>  <SZ>
50.33

>  <Sm>
47.38

>  <Sv>
46.75

>  <Sse>
78.24

>  <Sp>
49.65

>  <Si>
87.26

>  <MZ>
0.65

>  <Mm>
0.62

>  <Mv>
0.61

>  <Mse>
1.02

>  <Mp>
0.64

>  <Mi>
1.13

>  <NsCH3>
5

>  <NdCH2>
0

>  <NssCH2>
8

>  <NtCH>
0

>  <NdsCH>
2

>  <NaaCH>
0

>  <NsssCH>
4

>  <NddC>
0

>  <NtsC>
0

>  <NdssC>
5

>  <NaasC>
0

>  <NaaaC>
0

>  <NssssC>
5

>  <NsNH3>
0

>  <NsNH2>
0

>  <NssNH2>
0

>  <NdNH>
0

>  <NssNH>
0

>  <NaaNH>
0

>  <NtN>
0

>  <NsssNH>
0

>  <NdsN>
0

>  <NaaN>
0

>  <NsssN>
0

>  <NddsN>
0

>  <NaasN>
0

>  <NssssN>
0

>  <NsOH>
1

>  <NdO>
3

>  <NssO>
4

>  <NaaO>
0

>  <NsF>
1

>  <NsSiH3>
0

>  <NssSiH2>
0

>  <NsssSiH>
0

>  <NssssSi>
0

>  <NsPH2>
0

>  <NssPH>
0

>  <NsssP>
0

>  <NdsssP>
0

>  <NsssssP>
0

>  <NsSH>
0

>  <NdS>
0

>  <NssS>
0

>  <NaaS>
0

>  <NdssS>
0

>  <NddssS>
0

>  <NsCl>
1

>  <NsBr>
0

>  <NsI>
0

>  <fragCpx>
367.1

>  <fMF>
0.26

>  <nHBAcc>
8

>  <nHBDon>
1

>  <Kier1>
30.46

>  <Kier2>
10.32

>  <Lipinski>
0

>  <GhoseFilter>
0

>  <FilterItLogS>
-5.63

>  <VMcGowan>
404.63

>  <LabuteASA>
232.75

>  <PEOE_VSA1>
24.05

>  <PEOE_VSA2>
14.38

>  <PEOE_VSA3>
4.39

>  <PEOE_VSA4>
0

>  <PEOE_VSA5>
11.6

>  <PEOE_VSA6>
13.85

>  <PEOE_VSA7>
62.67

>  <PEOE_VSA8>
30.09

>  <PEOE_VSA9>
23.85

>  <PEOE_VSA10>
18.56

>  <PEOE_VSA11>
18

>  <PEOE_VSA12>
5.78

>  <PEOE_VSA13>
0

>  <SMR_VSA1>
42.83

>  <SMR_VSA2>
0

>  <SMR_VSA3>
0

>  <SMR_VSA4>
22.67

>  <SMR_VSA5>
95.99

>  <SMR_VSA6>
19.09

>  <SMR_VSA7>
22.98

>  <SMR_VSA8>
0

>  <SMR_VSA9>
0

>  <SlogP_VSA1>
0

>  <SlogP_VSA2>
71.5

>  <SlogP_VSA3>
33.33

>  <SlogP_VSA4>
22.67

>  <SlogP_VSA5>
66.72

>  <SlogP_VSA6>
22.98

>  <SlogP_VSA7>
0

>  <SlogP_VSA8>
0

>  <SlogP_VSA9>
0

>  <SlogP_VSA10>
4.39

>  <SlogP_VSA11>
0

>  <EState_VSA1>
70.29

>  <EState_VSA2>
12.84

>  <EState_VSA3>
48.65

>  <EState_VSA4>
6.29

>  <EState_VSA5>
6.92

>  <EState_VSA6>
26.85

>  <EState_VSA7>
6.92

>  <EState_VSA8>
0

>  <EState_VSA9>
30.55

>  <EState_VSA10>
19.49

>  <VSA_EState1>
41.28

>  <VSA_EState2>
37.8

>  <VSA_EState3>
11.76

>  <VSA_EState4>
-4.76

>  <VSA_EState5>
-2.43

>  <VSA_EState6>
0

>  <VSA_EState7>
1.52

>  <VSA_EState8>
8.07

>  <VSA_EState9>
0

>  <apol>
82.92

>  <bpol>
49.29

>  <nRing>
5

>  <nHRing>
1

>  <naRing>
0

>  <naHRing>
0

>  <nARing 2>
5

>  <nAHRing 2>
1

>  <nFRing>
1

>  <nFHRing>
1

>  <nFaRing>
0

>  <nFaHRing>
0

>  <nFARing 2>
1

>  <nFAHRing 2>
1

>  <nRot>
7

>  <SLogP>
3.96

>  <SMR>
138.38

>  <TopoPSA(NO)>
108.36

>  <TopoPSA>
108.36

>  <JGI1>
0.31

>  <JGI2>
0.13

>  <JGI3>
0.08

>  <JGI4>
0.06

>  <JGI5>
0.04

>  <Diameter>
17

>  <Radius>
9

>  <TMWC10>
166.3

>  <TSRW10>
94.33

>  <MW>
568.22

>  <AMW>
7.38

>  <WPath>
4366

>  <WPol>
88

>  <Zagreb1>
228

>  <Zagreb2>
292

>  <mZagreb2>
8.22

>  <yes>


>  <nAR-cont>
0

>  <nHA-cont>
0.348277641

>  <MWHBN>
0.3775585

>  <MWHBN-cont>
0.564376276

>  <TPSA-cont>
0.243579912

>  <pka_cont>
0.97

>  <yes.1>


>  <BBB_SCORE>
2.16700188

>  <MMFF94 Energy>
145.28

$$$$
Compound 862
Actelion Java MolfileCreator 2.0

  0  0  0  0  0  0              0 V3000
M  V30 BEGIN CTAB
M  V30 COUNTS 67 71 0 0 0
M  V30 BEGIN ATOM
M  V30 1 F -0.7289 4.7044 -2.9991 0
M  V30 2 C -0.9275 3.3605 -2.8769 0 CFG=2
M  V30 3 C -2.3784 3.0317 -2.6555 0
M  V30 4 C -0.1108 2.8818 -1.6895 0
M  V30 5 C -3.2923 4.019 -2.6069 0
M  V30 6 C -2.707 1.5435 -2.4359 0
M  V30 7 C -0.2908 1.3769 -1.45 0
M  V30 8 C -4.7154 3.7581 -2.3259 0
M  V30 9 C -4.1931 1.3758 -2.1281 0
M  V30 10 C -1.7928 0.9888 -1.2574 0 CFG=2
M  V30 11 C -2.4648 0.7797 -3.7583 0
M  V30 12 C 0.6354 0.8984 -0.3106 0
M  V30 13 O -5.5401 4.6622 -2.2994 0
M  V30 14 C -5.1001 2.36 -2.0759 0
M  V30 15 C -1.8737 -0.5446 -1.0069 0
M  V30 16 C 0.5054 -0.6031 0.0246 0
M  V30 17 C 0.4281 1.5923 1.0469 0
M  V30 18 O -3.2021 -0.9435 -0.6873 0
M  V30 19 C -0.988 -0.9782 0.1696 0
M  V30 20 C 1.2734 -0.7001 1.3874 0 CFG=1
M  V30 21 C 1.1272 -1.4879 -1.073 0
M  V30 22 C 1.0338 0.6438 2.0815 0 CFG=2
M  V30 23 O 0.7255 -1.6922 2.258 0
M  V30 24 C 2.7934 -0.9158 1.2271 0
M  V30 25 O 0.1069 0.3721 3.1322 0
M  V30 26 C 0.2797 -1.0099 3.4381 0
M  V30 27 O 3.5356 0.0032 0.8692 0
M  V30 28 C 3.3175 -2.3234 1.4964 0
M  V30 29 C -1.049 -1.5998 3.8901 0
M  V30 30 C 1.3275 -1.1652 4.5414 0
M  V30 31 O 4.6941 -2.4201 1.1287 0
M  V30 32 C 5.2363 -3.6456 1.3496 0
M  V30 33 O 4.6369 -4.6076 1.808 0
M  V30 34 C 6.6788 -3.6535 0.9479 0
M  V30 35 H -0.569 2.9076 -3.8063 0
M  V30 36 H -0.3984 3.4561 -0.7994 0
M  V30 37 H 0.9458 3.1156 -1.8684 0
M  V30 38 H -3.0342 5.063 -2.7513 0
M  V30 39 H 0.0622 0.8714 -2.3591 0
M  V30 40 H -4.5635 0.3667 -1.968 0
M  V30 41 H -2.1589 1.4819 -0.3442 0
M  V30 42 H -1.4084 0.7533 -4.0416 0
M  V30 43 H -2.8079 -0.2595 -3.6965 0
M  V30 44 H -3.0088 1.2445 -4.5907 0
M  V30 45 H 1.6685 1.1027 -0.6267 0
M  V30 46 H -6.1463 2.1759 -1.8647 0
M  V30 47 H -1.5854 -1.0895 -1.9105 0
M  V30 48 H -0.6268 1.7871 1.2643 0
M  V30 49 H 0.9445 2.5584 1.0643 0
M  V30 50 H -3.1955 -1.8969 -0.4908 0
M  V30 51 H -1.4146 -0.5289 1.0737 0
M  V30 52 H -1.0891 -2.0616 0.3202 0
M  V30 53 H 1.0981 -2.5439 -0.7846 0
M  V30 54 H 0.5998 -1.3971 -2.027 0
M  V30 55 H 2.1691 -1.2199 -1.276 0
M  V30 56 H 1.9328 1.0827 2.5289 0
M  V30 57 H 3.2125 -2.528 2.5667 0
M  V30 58 H 2.733 -3.0339 0.9039 0
M  V30 59 H -1.4275 -1.0892 4.782 0
M  V30 60 H -1.8112 -1.4897 3.1122 0
M  V30 61 H -0.9574 -2.6705 4.1 0
M  V30 62 H 1.0202 -0.6424 5.4533 0
M  V30 63 H 1.5027 -2.2209 4.7734 0
M  V30 64 H 2.2903 -0.7392 4.2394 0
M  V30 65 H 6.7674 -3.4341 -0.1188 0
M  V30 66 H 7.2322 -2.9199 1.5394 0
M  V30 67 H 7.102 -4.6441 1.137 0
M  V30 END ATOM
M  V30 BEGIN BOND
M  V30 1 1 1 2
M  V30 2 1 2 3
M  V30 3 1 2 4
M  V30 4 2 3 5
M  V30 5 1 3 6
M  V30 6 1 4 7
M  V30 7 1 5 8
M  V30 8 1 6 9
M  V30 9 1 6 10
M  V30 10 1 6 11
M  V30 11 1 7 12
M  V30 12 2 8 13
M  V30 13 1 8 14
M  V30 14 1 10 15
M  V30 15 1 12 16
M  V30 16 1 12 17
M  V30 17 1 15 18
M  V30 18 1 15 19
M  V30 19 1 16 20
M  V30 20 1 16 21
M  V30 21 1 17 22
M  V30 22 1 20 23
M  V30 23 1 20 24
M  V30 24 1 22 25
M  V30 25 1 23 26
M  V30 26 2 24 27
M  V30 27 1 24 28
M  V30 28 1 26 29
M  V30 29 1 26 30
M  V30 30 1 28 31
M  V30 31 1 31 32
M  V30 32 2 32 33
M  V30 33 1 32 34
M  V30 34 1 7 10
M  V30 35 2 9 14
M  V30 36 1 16 19
M  V30 37 1 20 22
M  V30 38 1 25 26
M  V30 39 1 2 35
M  V30 40 1 4 36
M  V30 41 1 4 37
M  V30 42 1 5 38
M  V30 43 1 7 39
M  V30 44 1 9 40
M  V30 45 1 10 41
M  V30 46 1 11 42
M  V30 47 1 11 43
M  V30 48 1 11 44
M  V30 49 1 12 45
M  V30 50 1 14 46
M  V30 51 1 15 47
M  V30 52 1 17 48
M  V30 53 1 17 49
M  V30 54 1 18 50
M  V30 55 1 19 51
M  V30 56 1 19 52
M  V30 57 1 21 53
M  V30 58 1 21 54
M  V30 59 1 21 55
M  V30 60 1 22 56
M  V30 61 1 28 57
M  V30 62 1 28 58
M  V30 63 1 29 59
M  V30 64 1 29 60
M  V30 65 1 29 61
M  V30 66 1 30 62
M  V30 67 1 30 63
M  V30 68 1 30 64
M  V30 69 1 34 65
M  V30 70 1 34 66
M  V30 71 1 34 67
M  V30 END BOND
M  V30 BEGIN COLLECTION
M  V30 MDLV30/STEABS ATOMS=(4 2 10 20 22)
M  V30 END COLLECTION
M  V30 END CTAB
M  END
>  <Column 1>
1031

>  <level_0>
1168

>  <index>
1168

>  <Unnamed: 0>
1168

>  <NO.>
1180

>  <Name>
4533-89-5

>  <IUPAC_name>
[2-[(4r-8s-12s-19s)-19-fluoro-11-hydroxy-6-6-9-13-tetramethyl-16-oxo-5-7-dioxapentacyclo[10.8.0.02-9.04-8.013-18]icosa-14-17-dien-8-yl]-2-oxoethyl] acetate

>  <SMILES>
CC(=O)OCC(=O)[C@@]12OC(C)(C)O[C@@H]1CC1C3C[C@H](F)C4=CC(=O)C=CC4(C)[C@H]3C(O)CC12C

>  <CID>
20629

>  <logBB>


>  <BBB+/BBB->
BBB+

>  <Inchi>
InChI=1S/C26H33FO7/c1-13(28)32-12-20(31)26-21(33-23(2-3)34-26)10-16-15-9-18(27)17-8-14(29)6-7-24(17-4)22(15)19(30)11-25(16-26)5/h6-8-15-16-18-19-21-22-30H-9-12H2-1-5H3/t15?-16?-18--19?-21+-22+-24?-25?-26+/m0/s1

>  <threshold>
-1

>  <reference>
R1|R27|R30|

>  <group>
B

>  <Class>
1

>  <ABC>
27.6

>  <ABCGG>
22.09

>  <nAcid>
0

>  <nBase>
0

>  <nAromAtom>
0

>  <nAromBond>
0

>  <nAtom>
67

>  <nHeavyAtom>
34

>  <nSpiro>
0

>  <nBridgehead>
0

>  <nHetero>
8

>  <nN>
0

>  <nO>
7

>  <nF>
1

>  <BalabanJ>
1.53

>  <BertzCT>
1016.62

>  <nBonds>
71

>  <nBondsO>
38

>  <nBondsS>
66

>  <nBondsD>
5

>  <nBondsT>
0

>  <nBondsA>
0

>  <nBondsM>
5

>  <nBondsKS>
66

>  <nBondsKD>
5

>  <RNCG>
0.15

>  <RPCG>
0.1

>  <FCSP3>
0.73

>  <SZ>
42.33

>  <Sm>
39.68

>  <Sv>
40.59

>  <Sse>
67.92

>  <Sp>
42.87

>  <Si>
75.87

>  <MZ>
0.63

>  <Mm>
0.59

>  <Mv>
0.61

>  <Mse>
1.01

>  <Mp>
0.64

>  <Mi>
1.13

>  <NsCH3>
5

>  <NdCH2>
0

>  <NssCH2>
4

>  <NtCH>
0

>  <NdsCH>
3

>  <NaaCH>
0

>  <NsssCH>
6

>  <NddC>
0

>  <NtsC>
0

>  <NdssC>
4

>  <NaasC>
0

>  <NaaaC>
0

>  <NssssC>
4

>  <NsNH3>
0

>  <NsNH2>
0

>  <NssNH2>
0

>  <NdNH>
0

>  <NssNH>
0

>  <NaaNH>
0

>  <NtN>
0

>  <NsssNH>
0

>  <NdsN>
0

>  <NaaN>
0

>  <NsssN>
0

>  <NddsN>
0

>  <NaasN>
0

>  <NssssN>
0

>  <NsOH>
1

>  <NdO>
3

>  <NssO>
3

>  <NaaO>
0

>  <NsF>
1

>  <NsSiH3>
0

>  <NssSiH2>
0

>  <NsssSiH>
0

>  <NssssSi>
0

>  <NsPH2>
0

>  <NssPH>
0

>  <NsssP>
0

>  <NdsssP>
0

>  <NsssssP>
0

>  <NsSH>
0

>  <NdS>
0

>  <NssS>
0

>  <NaaS>
0

>  <NdssS>
0

>  <NddssS>
0

>  <NsCl>
0

>  <NsBr>
0

>  <NsI>
0

>  <fragCpx>
322.08

>  <fMF>
0.3

>  <nHBAcc>
7

>  <nHBDon>
1

>  <Kier1>
25.64

>  <Kier2>
8.25

>  <Lipinski>
1

>  <GhoseFilter>
1

>  <FilterItLogS>
-3.62

>  <VMcGowan>
344.25

>  <LabuteASA>
198.24

>  <PEOE_VSA1>
19.32

>  <PEOE_VSA2>
14.38

>  <PEOE_VSA3>
4.39

>  <PEOE_VSA4>
0

>  <PEOE_VSA5>
0

>  <PEOE_VSA6>
19.92

>  <PEOE_VSA7>
62.67

>  <PEOE_VSA8>
23.67

>  <PEOE_VSA9>
12.21

>  <PEOE_VSA10>
6.17

>  <PEOE_VSA11>
23.78

>  <PEOE_VSA12>
5.78

>  <PEOE_VSA13>
0

>  <SMR_VSA1>
38.09

>  <SMR_VSA2>
0

>  <SMR_VSA3>
0

>  <SMR_VSA4>
28.58

>  <SMR_VSA5>
83.65

>  <SMR_VSA6>
6.61

>  <SMR_VSA7>
23.8

>  <SMR_VSA8>
0

>  <SMR_VSA9>
0

>  <SlogP_VSA1>
0

>  <SlogP_VSA2>
59.02

>  <SlogP_VSA3>
28.59

>  <SlogP_VSA4>
28.58

>  <SlogP_VSA5>
53.88

>  <SlogP_VSA6>
23.8

>  <SlogP_VSA7>
0

>  <SlogP_VSA8>
0

>  <SlogP_VSA9>
0

>  <SlogP_VSA10>
4.39

>  <SlogP_VSA11>
0

>  <EState_VSA1>
58.96

>  <EState_VSA2>
36.38

>  <EState_VSA3>
11.99

>  <EState_VSA4>
0

>  <EState_VSA5>
19.08

>  <EState_VSA6>
19.92

>  <EState_VSA7>
13.85

>  <EState_VSA8>
0

>  <EState_VSA9>
14.21

>  <EState_VSA10>
19.49

>  <VSA_EState1>
33.25

>  <VSA_EState2>
37.11

>  <VSA_EState3>
11.58

>  <VSA_EState4>
-2.63

>  <VSA_EState5>
-2.94

>  <VSA_EState6>
0

>  <VSA_EState7>
2.7

>  <VSA_EState8>
8.1

>  <VSA_EState9>
0

>  <apol>
71.6

>  <bpol>
42.03

>  <nRing>
5

>  <nHRing>
1

>  <naRing>
0

>  <naHRing>
0

>  <nARing 2>
5

>  <nAHRing 2>
1

>  <nFRing>
1

>  <nFHRing>
1

>  <nFaRing>
0

>  <nFaHRing>
0

>  <nFARing 2>
1

>  <nFAHRing 2>
1

>  <nRot>
3

>  <SLogP>
2.85

>  <SMR>
118.08

>  <TopoPSA(NO)>
99.13

>  <TopoPSA>
99.13

>  <JGI1>
0.33

>  <JGI2>
0.12

>  <JGI3>
0.08

>  <JGI4>
0.06

>  <JGI5>
0.03

>  <Diameter>
14

>  <Radius>
7

>  <TMWC10>
155.13

>  <TSRW10>
88.72

>  <MW>
476.22

>  <AMW>
7.11

>  <WPath>
2941

>  <WPol>
75

>  <Zagreb1>
204

>  <Zagreb2>
260

>  <mZagreb2>
6.88

>  <yes>


>  <nAR-cont>
0

>  <nHA-cont>
0.568589513

>  <MWHBN>
0.366594691

>  <MWHBN-cont>
0.607062452

>  <TPSA-cont>
0.308011044

>  <pka_cont>
0.97

>  <yes.1>


>  <BBB_SCORE>
2.580205279

>  <MMFF94 Energy>
108.31

$$$$
Compound 863
Actelion Java MolfileCreator 2.0

  0  0  0  0  0  0              0 V3000
M  V30 BEGIN CTAB
M  V30 COUNTS 76 80 0 0 0
M  V30 BEGIN ATOM
M  V30 1 Cl 1.9516 -3.2543 9.214 0
M  V30 2 C 2.4201 -4.3638 7.8967 0
M  V30 3 C 2.415 -3.6539 6.5485 0
M  V30 4 O 1.0633 -3.4135 6.1491 0
M  V30 5 C 0.8273 -2.7762 4.9503 0
M  V30 6 C 1.7613 -2.3426 4.0837 0
M  V30 7 C -0.64 -2.6151 4.6729 0
M  V30 8 C 1.4563 -1.6545 2.8206 0
M  V30 9 C -0.9494 -2.2068 3.2315 0
M  V30 10 C 2.3883 -1.5273 1.8448 0
M  V30 11 C 0.0058 -1.1181 2.6696 0
M  V30 12 C 3.7169 -2.0479 1.9909 0
M  V30 13 C 2.1062 -0.8705 0.5206 0
M  V30 14 C -0.346 -0.7985 1.1564 0 CFG=1
M  V30 15 C -0.1159 0.1707 3.527 0
M  V30 16 N 4.7973 -2.4535 2.1096 0
M  V30 17 C 0.8244 -0.0313 0.4714 0
M  V30 18 F -0.4251 -2.0056 0.4912 0
M  V30 19 C -1.7145 -0.063 0.915 0
M  V30 20 C 0.4603 0.2792 -0.9897 0 CFG=1
M  V30 21 O -2.823 -0.8381 1.3703 0
M  V30 22 C -1.9673 0.2897 -0.5666 0
M  V30 23 C -0.8204 1.1205 -1.1581 0
M  V30 24 C 1.478 1.0075 -1.8679 0
M  V30 25 C -0.8365 1.3099 -2.7173 0 CFG=1
M  V30 26 C -0.7163 2.494 -0.4306 0
M  V30 27 C 0.6398 1.5654 -3.0426 0 CFG=2
M  V30 28 O -1.1417 0.0825 -3.3983 0
M  V30 29 C -1.8213 2.4089 -3.1808 0
M  V30 30 O 0.9004 0.8474 -4.2468 0
M  V30 31 C -0.1033 -0.1642 -4.3554 0
M  V30 32 O -2.8061 2.7147 -2.497 0
M  V30 33 C -1.6152 3.0579 -4.5409 0
M  V30 34 C 0.5165 -1.5418 -4.1198 0
M  V30 35 C -0.6888 -0.1377 -5.7655 0
M  V30 36 O -2.0257 4.4268 -4.4708 0
M  V30 37 C -2.0371 5.0571 -5.6747 0
M  V30 38 O -1.6921 4.5545 -6.7343 0
M  V30 39 C -2.5228 6.465 -5.5177 0
M  V30 40 H 1.7122 -5.1975 7.9096 0
M  V30 41 H 3.4213 -4.7352 8.1316 0
M  V30 42 H 2.9717 -2.7112 6.6122 0
M  V30 43 H 2.8921 -4.3106 5.8113 0
M  V30 44 H 2.8095 -2.5092 4.3109 0
M  V30 45 H -1.0477 -1.8688 5.3662 0
M  V30 46 H -1.1613 -3.5566 4.8864 0
M  V30 47 H -0.9012 -3.1017 2.596 0
M  V30 48 H -1.9897 -1.8736 3.2222 0
M  V30 49 H 2.9508 -0.2204 0.2547 0
M  V30 50 H 2.0692 -1.6595 -0.2432 0
M  V30 51 H 0.252 0.0345 4.5499 0
M  V30 52 H 0.4581 1.001 3.1043 0
M  V30 53 H -1.1589 0.4932 3.6142 0
M  V30 54 H 1.0233 0.9037 1.0039 0
M  V30 55 H -1.7351 0.8636 1.4957 0
M  V30 56 H 0.2812 -0.6987 -1.4534 0
M  V30 57 H -3.6431 -0.4103 1.0672 0
M  V30 58 H -2.1129 -0.6417 -1.1291 0
M  V30 59 H -2.9189 0.8282 -0.6559 0
M  V30 60 H 1.9337 1.8336 -1.3097 0
M  V30 61 H 2.2813 0.3445 -2.2039 0
M  V30 62 H -0.3846 2.4059 0.6065 0
M  V30 63 H -0.0187 3.1762 -0.9271 0
M  V30 64 H -1.687 2.9979 -0.3885 0
M  V30 65 H 0.8944 2.619 -3.1961 0
M  V30 66 H -0.5674 3.0248 -4.8423 0
M  V30 67 H -2.243 2.5177 -5.2564 0
M  V30 68 H -0.2518 -2.3216 -4.0916 0
M  V30 69 H 1.065 -1.5911 -3.177 0
M  V30 70 H 1.2442 -1.7844 -4.9023 0
M  V30 71 H -1.5187 -0.8455 -5.8639 0
M  V30 72 H 0.074 -0.3729 -6.5158 0
M  V30 73 H -1.0739 0.8499 -6.0224 0
M  V30 74 H -3.5338 6.4645 -5.1023 0
M  V30 75 H -1.8408 7.0222 -4.8705 0
M  V30 76 H -2.5503 6.9502 -6.4976 0
M  V30 END ATOM
M  V30 BEGIN BOND
M  V30 1 1 1 2
M  V30 2 1 2 3
M  V30 3 1 3 4
M  V30 4 1 4 5
M  V30 5 2 5 6
M  V30 6 1 5 7
M  V30 7 1 6 8
M  V30 8 1 7 9
M  V30 9 2 8 10
M  V30 10 1 8 11
M  V30 11 1 10 12
M  V30 12 1 10 13
M  V30 13 1 11 14
M  V30 14 1 11 15
M  V30 15 3 12 16
M  V30 16 1 13 17
M  V30 17 1 14 18
M  V30 18 1 14 19
M  V30 19 1 17 20
M  V30 20 1 19 21
M  V30 21 1 19 22
M  V30 22 1 20 23
M  V30 23 1 20 24
M  V30 24 1 23 25
M  V30 25 1 23 26
M  V30 26 1 24 27
M  V30 27 1 25 28
M  V30 28 1 25 29
M  V30 29 1 27 30
M  V30 30 1 28 31
M  V30 31 2 29 32
M  V30 32 1 29 33
M  V30 33 1 31 34
M  V30 34 1 31 35
M  V30 35 1 33 36
M  V30 36 1 36 37
M  V30 37 2 37 38
M  V30 38 1 37 39
M  V30 39 1 9 11
M  V30 40 1 14 17
M  V30 41 1 22 23
M  V30 42 1 25 27
M  V30 43 1 30 31
M  V30 44 1 2 40
M  V30 45 1 2 41
M  V30 46 1 3 42
M  V30 47 1 3 43
M  V30 48 1 6 44
M  V30 49 1 7 45
M  V30 50 1 7 46
M  V30 51 1 9 47
M  V30 52 1 9 48
M  V30 53 1 13 49
M  V30 54 1 13 50
M  V30 55 1 15 51
M  V30 56 1 15 52
M  V30 57 1 15 53
M  V30 58 1 17 54
M  V30 59 1 19 55
M  V30 60 1 20 56
M  V30 61 1 21 57
M  V30 62 1 22 58
M  V30 63 1 22 59
M  V30 64 1 24 60
M  V30 65 1 24 61
M  V30 66 1 26 62
M  V30 67 1 26 63
M  V30 68 1 26 64
M  V30 69 1 27 65
M  V30 70 1 33 66
M  V30 71 1 33 67
M  V30 72 1 34 68
M  V30 73 1 34 69
M  V30 74 1 34 70
M  V30 75 1 35 71
M  V30 76 1 35 72
M  V30 77 1 35 73
M  V30 78 1 39 74
M  V30 79 1 39 75
M  V30 80 1 39 76
M  V30 END BOND
M  V30 BEGIN COLLECTION
M  V30 MDLV30/STEABS ATOMS=(4 14 20 25 27)
M  V30 END COLLECTION
M  V30 END CTAB
M  END
>  <Column 1>
1032

>  <level_0>
1169

>  <index>
1169

>  <Unnamed: 0>
1169

>  <NO.>
1181

>  <Name>
cicortonide

>  <IUPAC_name>
[2-[(2s-4r-8s-12r)-16-(2-chloroethoxy)-19-cyano-12-fluoro-11-hydroxy-6-6-9-13-tetramethyl-5-7-dioxapentacyclo[10.8.0.02-9.04-8.013-18]icosa-16-18-dien-8-yl]-2-oxoethyl] acetate

>  <SMILES>
CC(=O)OCC(=O)[C@@]12OC(C)(C)O[C@@H]1C[C@H]1C3CC(C#N)=C4C=C(OCCCl)CCC4(C)[C@@]3(F)C(O)CC12C

>  <CID>
193972

>  <logBB>


>  <BBB+/BBB->
BBB+

>  <Inchi>
InChI=1S/C29H37ClFNO7/c1-16(33)37-15-23(35)29-24(38-25(2-3)39-29)12-20-21-10-17(14-32)19-11-18(36-9-8-30)6-7-26(19-4)28(21-31)22(34)13-27(20-29)5/h11-20-22-24-34H-6-10-12-13-15H2-1-5H3/t20--21?-22?-24+-26?-27?-28--29+/m0/s1

>  <threshold>
-1

>  <reference>
R1|R27|R30|

>  <group>
B

>  <Class>
1

>  <ABC>
31

>  <ABCGG>
24.64

>  <nAcid>
0

>  <nBase>
0

>  <nAromAtom>
0

>  <nAromBond>
0

>  <nAtom>
76

>  <nHeavyAtom>
39

>  <nSpiro>
0

>  <nBridgehead>
0

>  <nHetero>
10

>  <nN>
1

>  <nO>
7

>  <nF>
1

>  <BalabanJ>
1.53

>  <BertzCT>
1194.51

>  <nBonds>
80

>  <nBondsO>
43

>  <nBondsS>
75

>  <nBondsD>
4

>  <nBondsT>
1

>  <nBondsA>
0

>  <nBondsM>
5

>  <nBondsKS>
75

>  <nBondsKD>
4

>  <RNCG>
0.15

>  <RPCG>
0.09

>  <FCSP3>
0.76

>  <SZ>
50

>  <Sm>
47.13

>  <Sv>
46.52

>  <Sse>
77.12

>  <Sp>
49.43

>  <Si>
86.14

>  <MZ>
0.66

>  <Mm>
0.62

>  <Mv>
0.61

>  <Mse>
1.01

>  <Mp>
0.65

>  <Mi>
1.13

>  <NsCH3>
5

>  <NdCH2>
0

>  <NssCH2>
8

>  <NtCH>
0

>  <NdsCH>
1

>  <NaaCH>
0

>  <NsssCH>
4

>  <NddC>
0

>  <NtsC>
1

>  <NdssC>
5

>  <NaasC>
0

>  <NaaaC>
0

>  <NssssC>
5

>  <NsNH3>
0

>  <NsNH2>
0

>  <NssNH2>
0

>  <NdNH>
0

>  <NssNH>
0

>  <NaaNH>
0

>  <NtN>
1

>  <NsssNH>
0

>  <NdsN>
0

>  <NaaN>
0

>  <NsssN>
0

>  <NddsN>
0

>  <NaasN>
0

>  <NssssN>
0

>  <NsOH>
1

>  <NdO>
2

>  <NssO>
4

>  <NaaO>
0

>  <NsF>
1

>  <NsSiH3>
0

>  <NssSiH2>
0

>  <NsssSiH>
0

>  <NssssSi>
0

>  <NsPH2>
0

>  <NssPH>
0

>  <NsssP>
0

>  <NdsssP>
0

>  <NsssssP>
0

>  <NsSH>
0

>  <NdS>
0

>  <NssS>
0

>  <NaaS>
0

>  <NdssS>
0

>  <NddssS>
0

>  <NsCl>
1

>  <NsBr>
0

>  <NsI>
0

>  <fragCpx>
367.1

>  <fMF>
0.26

>  <nHBAcc>
8

>  <nHBDon>
1

>  <Kier1>
30.46

>  <Kier2>
10.32

>  <Lipinski>
0

>  <GhoseFilter>
0

>  <FilterItLogS>
-5.77

>  <VMcGowan>
404.44

>  <LabuteASA>
232.98

>  <PEOE_VSA1>
24.05

>  <PEOE_VSA2>
9.59

>  <PEOE_VSA3>
4.39

>  <PEOE_VSA4>
5.26

>  <PEOE_VSA5>
11.6

>  <PEOE_VSA6>
13.85

>  <PEOE_VSA7>
57.1

>  <PEOE_VSA8>
35.67

>  <PEOE_VSA9>
29.92

>  <PEOE_VSA10>
12.28

>  <PEOE_VSA11>
18

>  <PEOE_VSA12>
5.78

>  <PEOE_VSA13>
0

>  <SMR_VSA1>
38.03

>  <SMR_VSA2>
5.26

>  <SMR_VSA3>
0

>  <SMR_VSA4>
22.67

>  <SMR_VSA5>
95.99

>  <SMR_VSA6>
19.09

>  <SMR_VSA7>
22.98

>  <SMR_VSA8>
0

>  <SMR_VSA9>
6.07

>  <SlogP_VSA1>
0

>  <SlogP_VSA2>
65.22

>  <SlogP_VSA3>
28.54

>  <SlogP_VSA4>
34

>  <SlogP_VSA5>
66.72

>  <SlogP_VSA6>
22.98

>  <SlogP_VSA7>
0

>  <SlogP_VSA8>
0

>  <SlogP_VSA9>
0

>  <SlogP_VSA10>
4.39

>  <SlogP_VSA11>
0

>  <EState_VSA1>
70.29

>  <EState_VSA2>
12.84

>  <EState_VSA3>
48.65

>  <EState_VSA4>
0

>  <EState_VSA5>
6.92

>  <EState_VSA6>
26.85

>  <EState_VSA7>
6.92

>  <EState_VSA8>
6.07

>  <EState_VSA9>
30.55

>  <EState_VSA10>
19.96

>  <VSA_EState1>
41.3

>  <VSA_EState2>
25.38

>  <VSA_EState3>
21.97

>  <VSA_EState4>
-4.74

>  <VSA_EState5>
-2.39

>  <VSA_EState6>
2.31

>  <VSA_EState7>
0.8

>  <VSA_EState8>
8.1

>  <VSA_EState9>
0

>  <apol>
82.55

>  <bpol>
47.99

>  <nRing>
5

>  <nHRing>
1

>  <naRing>
0

>  <naHRing>
0

>  <nARing 2>
5

>  <nAHRing 2>
1

>  <nFRing>
1

>  <nFHRing>
1

>  <nFaRing>
0

>  <nFaHRing>
0

>  <nFARing 2>
1

>  <nFAHRing 2>
1

>  <nRot>
6

>  <SLogP>
4.29

>  <SMR>
137.93

>  <TopoPSA(NO)>
115.08

>  <TopoPSA>
115.08

>  <JGI1>
0.31

>  <JGI2>
0.13

>  <JGI3>
0.08

>  <JGI4>
0.06

>  <JGI5>
0.04

>  <Diameter>
17

>  <Radius>
9

>  <TMWC10>
166.3

>  <TSRW10>
94.33

>  <MW>
565.22

>  <AMW>
7.44

>  <WPath>
4366

>  <WPol>
88

>  <Zagreb1>
228

>  <Zagreb2>
292

>  <mZagreb2>
8.22

>  <yes>


>  <nAR-cont>
0

>  <nHA-cont>
0.348277641

>  <MWHBN>
0.378559151

>  <MWHBN-cont>
0.560455821

>  <TPSA-cont>
0.19667014

>  <pka_cont>
0.97

>  <yes.1>


>  <BBB_SCORE>
2.067301652

>  <MMFF94 Energy>
150.18

$$$$
Compound 864
Actelion Java MolfileCreator 2.0

  0  0  0  0  0  0              0 V3000
M  V30 BEGIN CTAB
M  V30 COUNTS 67 71 0 0 0
M  V30 BEGIN ATOM
M  V30 1 F -1.2191 0.0812 -2.2766 0
M  V30 2 C 0.1661 0.022 -2.2668 0 CFG=2
M  V30 3 C 0.617 0.0581 -3.7859 0 CFG=2
M  V30 4 C 0.5003 -1.2906 -1.4914 0 CFG=1
M  V30 5 C 0.6335 1.2975 -1.4882 0 CFG=2
M  V30 6 C 0.1352 1.3907 -4.3877 0
M  V30 7 C 0.0309 -1.1267 -4.5535 0
M  V30 8 C 2.148 -0.024 -3.9874 0
M  V30 9 O 1.8798 -1.6305 -1.5768 0
M  V30 10 C 0.078 -1.2501 -0.0031 0
M  V30 11 C 0.0817 1.2316 -0.0564 0 CFG=1
M  V30 12 C 0.1537 2.5772 -2.1941 0
M  V30 13 C -0.6703 1.4772 -5.4619 0
M  V30 14 C 0.5809 2.6293 -3.6546 0 CFG=2
M  V30 15 C -0.7717 -1.0338 -5.6219 0
M  V30 16 C 0.5785 0.0042 0.7452 0 CFG=1
M  V30 17 C 0.3377 2.4021 0.8896 0
M  V30 18 C -1.1706 0.2789 -6.1627 0
M  V30 19 F 0.0421 3.7556 -4.2031 0
M  V30 20 C -0.0896 0.2954 2.1291 0 CFG=1
M  V30 21 C 2.122 -0.0335 0.9047 0
M  V30 22 C 0.021 1.8233 2.2842 0 CFG=2
M  V30 23 O -1.8849 0.367 -7.1528 0
M  V30 24 O -1.4963 0.0419 2.0846 0
M  V30 25 C 0.5465 -0.4624 3.3096 0
M  V30 26 O -1.2574 2.2841 2.7184 0
M  V30 27 C -2.149 1.1757 2.6653 0
M  V30 28 O 1.467 0.0252 3.9708 0
M  V30 29 C 0.0165 -1.8669 3.5816 0
M  V30 30 C -3.3538 1.5421 1.8086 0
M  V30 31 C -2.589 0.8362 4.0868 0
M  V30 32 O 0.7056 -2.4565 4.6855 0
M  V30 33 C 0.41 -3.7669 4.8845 0
M  V30 34 O -0.3581 -4.4262 4.1989 0
M  V30 35 C 1.1644 -4.2945 6.0655 0
M  V30 36 H -0.0572 -2.116 -1.9489 0
M  V30 37 H 1.7267 1.3329 -1.4572 0
M  V30 38 H 0.31 -2.1241 -4.2206 0
M  V30 39 H 2.6981 0.6502 -3.3246 0
M  V30 40 H 2.5371 -1.0342 -3.8222 0
M  V30 41 H 2.4255 0.2424 -5.016 0
M  V30 42 H 1.9936 -2.5162 -1.1863 0
M  V30 43 H -1.0174 -1.2936 0.0334 0
M  V30 44 H 0.448 -2.1504 0.4993 0
M  V30 45 H -1.0114 1.1609 -0.1591 0
M  V30 46 H -0.9396 2.6617 -2.1324 0
M  V30 47 H 0.5484 3.4649 -1.6854 0
M  V30 48 H -1.0116 2.4264 -5.862 0
M  V30 49 H 1.6676 2.7384 -3.7296 0
M  V30 50 H -1.154 -1.9034 -6.1425 0
M  V30 51 H -0.2888 3.2667 0.6479 0
M  V30 52 H 1.3868 2.713 0.8357 0
M  V30 53 H 2.4378 -0.973 1.3724 0
M  V30 54 H 2.4964 0.7814 1.5329 0
M  V30 55 H 2.6574 0.0456 -0.0427 0
M  V30 56 H 0.7711 2.1681 3.0019 0
M  V30 57 H -1.0478 -1.8021 3.8262 0
M  V30 58 H 0.1738 -2.4706 2.6846 0
M  V30 59 H -4.0503 0.7017 1.7211 0
M  V30 60 H -3.8842 2.4088 2.2171 0
M  V30 61 H -3.0412 1.8096 0.7936 0
M  V30 62 H -3.1188 1.6761 4.5489 0
M  V30 63 H -1.7244 0.62 4.7236 0
M  V30 64 H -3.2339 -0.0484 4.1025 0
M  V30 65 H 2.2391 -4.2184 5.8828 0
M  V30 66 H 0.8857 -3.7364 6.9629 0
M  V30 67 H 0.9097 -5.3472 6.2172 0
M  V30 END ATOM
M  V30 BEGIN BOND
M  V30 1 1 1 2
M  V30 2 1 2 3
M  V30 3 1 2 4
M  V30 4 1 2 5
M  V30 5 1 3 6
M  V30 6 1 3 7
M  V30 7 1 3 8
M  V30 8 1 4 9
M  V30 9 1 4 10
M  V30 10 1 5 11
M  V30 11 1 5 12
M  V30 12 2 6 13
M  V30 13 1 6 14
M  V30 14 2 7 15
M  V30 15 1 10 16
M  V30 16 1 11 17
M  V30 17 1 13 18
M  V30 18 1 14 19
M  V30 19 1 16 20
M  V30 20 1 16 21
M  V30 21 1 17 22
M  V30 22 2 18 23
M  V30 23 1 20 24
M  V30 24 1 20 25
M  V30 25 1 22 26
M  V30 26 1 24 27
M  V30 27 2 25 28
M  V30 28 1 25 29
M  V30 29 1 27 30
M  V30 30 1 27 31
M  V30 31 1 29 32
M  V30 32 1 32 33
M  V30 33 2 33 34
M  V30 34 1 33 35
M  V30 35 1 11 16
M  V30 36 1 12 14
M  V30 37 1 15 18
M  V30 38 1 20 22
M  V30 39 1 26 27
M  V30 40 1 4 36
M  V30 41 1 5 37
M  V30 42 1 7 38
M  V30 43 1 8 39
M  V30 44 1 8 40
M  V30 45 1 8 41
M  V30 46 1 9 42
M  V30 47 1 10 43
M  V30 48 1 10 44
M  V30 49 1 11 45
M  V30 50 1 12 46
M  V30 51 1 12 47
M  V30 52 1 13 48
M  V30 53 1 14 49
M  V30 54 1 15 50
M  V30 55 1 17 51
M  V30 56 1 17 52
M  V30 57 1 21 53
M  V30 58 1 21 54
M  V30 59 1 21 55
M  V30 60 1 22 56
M  V30 61 1 29 57
M  V30 62 1 29 58
M  V30 63 1 30 59
M  V30 64 1 30 60
M  V30 65 1 30 61
M  V30 66 1 31 62
M  V30 67 1 31 63
M  V30 68 1 31 64
M  V30 69 1 35 65
M  V30 70 1 35 66
M  V30 71 1 35 67
M  V30 END BOND
M  V30 BEGIN COLLECTION
M  V30 MDLV30/STEABS ATOMS=(9 2 3 4 5 11 14 16 20 22)
M  V30 END COLLECTION
M  V30 END CTAB
M  END
>  <Column 1>
1033

>  <level_0>
1170

>  <index>
1170

>  <Unnamed: 0>
1170

>  <NO.>
1182

>  <Name>
fluocinonide

>  <IUPAC_name>
[2-[(1s-2s-4r-8s-9s-11s-12r-13s-19s)-12-19-difluoro-11-hydroxy-6-6-9-13-tetramethyl-16-oxo-5-7-dioxapentacyclo[10.8.0.02-9.04-8.013-18]icosa-14-17-dien-8-yl]-2-oxoethyl] acetate

>  <SMILES>
CC(=O)OCC(=O)[C@@]12OC(C)(C)O[C@@H]1C[C@H]1[C@@H]3C[C@H](F)C4=CC(=O)C=C[C@]4(C)[C@@]3(F)[C@@H](O)C[C@@]12C

>  <CID>
9642

>  <logBB>


>  <BBB+/BBB->
BBB+

>  <Inchi>
InChI=1S/C26H32F2O7/c1-13(29)33-12-20(32)26-21(34-22(2-3)35-26)10-15-16-9-18(27)17-8-14(30)6-7-23(17-4)25(16-28)19(31)11-24(15-26)5/h6-8-15-16-18-19-21-31H-9-12H2-1-5H3/t15--16--18--19--21+-23--24--25--26+/m0/s1

>  <threshold>
-1

>  <reference>
R1|R27|R30|

>  <group>
B

>  <Class>
1

>  <ABC>
28.39

>  <ABCGG>
23.01

>  <nAcid>
0

>  <nBase>
0

>  <nAromAtom>
0

>  <nAromBond>
0

>  <nAtom>
67

>  <nHeavyAtom>
35

>  <nSpiro>
0

>  <nBridgehead>
0

>  <nHetero>
9

>  <nN>
0

>  <nO>
7

>  <nF>
2

>  <BalabanJ>
1.57

>  <BertzCT>
1067.92

>  <nBonds>
71

>  <nBondsO>
39

>  <nBondsS>
66

>  <nBondsD>
5

>  <nBondsT>
0

>  <nBondsA>
0

>  <nBondsM>
5

>  <nBondsKS>
66

>  <nBondsKD>
5

>  <RNCG>
0.15

>  <RPCG>
0.1

>  <FCSP3>
0.73

>  <SZ>
43.67

>  <Sm>
41.17

>  <Sv>
40.97

>  <Sse>
68.43

>  <Sp>
42.81

>  <Si>
76.2

>  <MZ>
0.65

>  <Mm>
0.61

>  <Mv>
0.61

>  <Mse>
1.02

>  <Mp>
0.64

>  <Mi>
1.14

>  <NsCH3>
5

>  <NdCH2>
0

>  <NssCH2>
4

>  <NtCH>
0

>  <NdsCH>
3

>  <NaaCH>
0

>  <NsssCH>
5

>  <NddC>
0

>  <NtsC>
0

>  <NdssC>
4

>  <NaasC>
0

>  <NaaaC>
0

>  <NssssC>
5

>  <NsNH3>
0

>  <NsNH2>
0

>  <NssNH2>
0

>  <NdNH>
0

>  <NssNH>
0

>  <NaaNH>
0

>  <NtN>
0

>  <NsssNH>
0

>  <NdsN>
0

>  <NaaN>
0

>  <NsssN>
0

>  <NddsN>
0

>  <NaasN>
0

>  <NssssN>
0

>  <NsOH>
1

>  <NdO>
3

>  <NssO>
3

>  <NaaO>
0

>  <NsF>
2

>  <NsSiH3>
0

>  <NssSiH2>
0

>  <NsssSiH>
0

>  <NssssSi>
0

>  <NsPH2>
0

>  <NssPH>
0

>  <NsssP>
0

>  <NdsssP>
0

>  <NsssssP>
0

>  <NsSH>
0

>  <NdS>
0

>  <NssS>
0

>  <NaaS>
0

>  <NdssS>
0

>  <NddssS>
0

>  <NsCl>
0

>  <NsBr>
0

>  <NsI>
0

>  <fragCpx>
331.09

>  <fMF>
0.3

>  <nHBAcc>
7

>  <nHBDon>
1

>  <Kier1>
26.6

>  <Kier2>
8.25

>  <Lipinski>
1

>  <GhoseFilter>
0

>  <FilterItLogS>
-4.1

>  <VMcGowan>
346.01

>  <LabuteASA>
202.4

>  <PEOE_VSA1>
19.32

>  <PEOE_VSA2>
14.38

>  <PEOE_VSA3>
8.78

>  <PEOE_VSA4>
0

>  <PEOE_VSA5>
0

>  <PEOE_VSA6>
13

>  <PEOE_VSA7>
63.68

>  <PEOE_VSA8>
23.67

>  <PEOE_VSA9>
12.21

>  <PEOE_VSA10>
6.17

>  <PEOE_VSA11>
29.45

>  <PEOE_VSA12>
5.78

>  <PEOE_VSA13>
0

>  <SMR_VSA1>
42.48

>  <SMR_VSA2>
0

>  <SMR_VSA3>
0

>  <SMR_VSA4>
22.67

>  <SMR_VSA5>
89.32

>  <SMR_VSA6>
6.61

>  <SMR_VSA7>
23.8

>  <SMR_VSA8>
0

>  <SMR_VSA9>
0

>  <SlogP_VSA1>
0

>  <SlogP_VSA2>
64.69

>  <SlogP_VSA3>
28.59

>  <SlogP_VSA4>
22.67

>  <SlogP_VSA5>
53.88

>  <SlogP_VSA6>
23.8

>  <SlogP_VSA7>
0

>  <SlogP_VSA8>
0

>  <SlogP_VSA9>
0

>  <SlogP_VSA10>
8.78

>  <SlogP_VSA11>
0

>  <EState_VSA1>
82.25

>  <EState_VSA2>
24.84

>  <EState_VSA3>
0

>  <EState_VSA4>
6.08

>  <EState_VSA5>
26

>  <EState_VSA6>
20.77

>  <EState_VSA7>
0

>  <EState_VSA8>
0

>  <EState_VSA9>
14.21

>  <EState_VSA10>
19.49

>  <VSA_EState1>
50.31

>  <VSA_EState2>
37.07

>  <VSA_EState3>
11.46

>  <VSA_EState4>
-6.46

>  <VSA_EState5>
-4.23

>  <VSA_EState6>
0

>  <VSA_EState7>
-0.35

>  <VSA_EState8>
7.28

>  <VSA_EState9>
0

>  <apol>
71.49

>  <bpol>
42.14

>  <nRing>
5

>  <nHRing>
1

>  <naRing>
0

>  <naHRing>
0

>  <nARing 2>
5

>  <nAHRing 2>
1

>  <nFRing>
1

>  <nFHRing>
1

>  <nFaRing>
0

>  <nFaHRing>
0

>  <nFARing 2>
1

>  <nFAHRing 2>
1

>  <nRot>
3

>  <SLogP>
2.94

>  <SMR>
118.42

>  <TopoPSA(NO)>
99.13

>  <TopoPSA>
99.13

>  <JGI1>
0.35

>  <JGI2>
0.14

>  <JGI3>
0.08

>  <JGI4>
0.07

>  <JGI5>
0.04

>  <Diameter>
14

>  <Radius>
7

>  <TMWC10>
157.87

>  <TSRW10>
90.05

>  <MW>
494.21

>  <AMW>
7.38

>  <WPath>
3112

>  <WPol>
82

>  <Zagreb1>
212

>  <Zagreb2>
274

>  <mZagreb2>
7.06

>  <yes>


>  <nAR-cont>
0

>  <nHA-cont>
0.523063577

>  <MWHBN>
0.359860536

>  <MWHBN-cont>
0.63295421

>  <TPSA-cont>
0.308011044

>  <pka_cont>
0.97

>  <yes.1>


>  <BBB_SCORE>
2.573516981

>  <MMFF94 Energy>
144.57

$$$$
Compound 865
Actelion Java MolfileCreator 2.0

  0  0  0  0  0  0              0 V3000
M  V30 BEGIN CTAB
M  V30 COUNTS 71 76 0 0 0
M  V30 BEGIN ATOM
M  V30 1 F -1.7071 -1.3004 1.5444 0
M  V30 2 C -0.4231 -1.8066 1.6923 0 CFG=2
M  V30 3 C -0.5522 -3.0653 2.6451 0 CFG=2
M  V30 4 C 0.4053 -0.6107 2.2599 0 CFG=1
M  V30 5 C 0.0379 -2.2093 0.251 0 CFG=2
M  V30 6 C -1.452 -4.0967 1.9383 0
M  V30 7 C -1.1435 -2.6663 3.9973 0
M  V30 8 C 0.7957 -3.7548 2.9589 0
M  V30 9 O 1.7039 -1.0031 2.6917 0
M  V30 10 C 0.5358 0.571 1.2692 0
M  V30 11 C 0.051 -0.9528 -0.6319 0 CFG=1
M  V30 12 C -0.892 -3.2802 -0.3487 0
M  V30 13 C -2.5854 -4.5882 2.4705 0
M  V30 14 C -1.0231 -4.5035 0.552 0
M  V30 15 C -2.2736 -3.1583 4.5221 0
M  V30 16 C 1.0212 0.1459 -0.1326 0 CFG=1
M  V30 17 C 0.4006 -1.0918 -2.1125 0
M  V30 18 C -3.0707 -4.1673 3.8002 0
M  V30 19 C 0.839 1.1988 -1.2716 0 CFG=1
M  V30 20 C 2.4993 -0.3237 -0.0796 0
M  V30 21 C 0.7402 0.3487 -2.55 0 CFG=2
M  V30 22 O -4.0925 -4.6371 4.2846 0
M  V30 23 O -0.433 1.8434 -1.17 0
M  V30 24 C 1.9586 2.2515 -1.3539 0
M  V30 25 O -0.3314 0.8967 -3.3126 0
M  V30 26 C -1.027 1.7982 -2.4605 0
M  V30 27 O 2.9781 2.0614 -2.022 0
M  V30 28 C 1.7617 3.5179 -0.5267 0
M  V30 29 C -2.5013 1.4251 -2.3789 0
M  V30 30 C -1.074 3.1818 -3.099 0
M  V30 31 O 2.9196 4.351 -0.6039 0
M  V30 32 C -3.0982 1.9492 -3.6822 0
M  V30 33 C -2.1726 3.0725 -4.1522 0
M  V30 34 C 2.8668 5.4443 0.1999 0
M  V30 35 O 1.9422 5.7215 0.9505 0
M  V30 36 C 4.1094 6.2647 0.0405 0
M  V30 37 H -0.1136 -0.2178 3.142 0
M  V30 38 H 1.0442 -2.6376 0.2911 0
M  V30 39 H -0.5861 -1.9446 4.5903 0
M  V30 40 H 1.398 -3.1866 3.6759 0
M  V30 41 H 0.6377 -4.7424 3.4126 0
M  V30 42 H 1.4089 -3.9089 2.0664 0
M  V30 43 H 2.1104 -0.2424 3.1448 0
M  V30 44 H 1.223 1.3169 1.6845 0
M  V30 45 H -0.4469 1.0525 1.1939 0
M  V30 46 H -0.9749 -0.5538 -0.6023 0
M  V30 47 H -0.5096 -3.6049 -1.3235 0
M  V30 48 H -1.8874 -2.8526 -0.5279 0
M  V30 49 H -3.2162 -5.303 1.9545 0
M  V30 50 H -0.0679 -5.0387 0.6016 0
M  V30 51 H -1.7404 -5.1999 0.1009 0
M  V30 52 H -2.6479 -2.8538 5.4918 0
M  V30 53 H -0.4272 -1.5163 -2.6894 0
M  V30 54 H 1.274 -1.7416 -2.2369 0
M  V30 55 H 3.1304 0.4432 0.384 0
M  V30 56 H 2.9108 -0.5216 -1.0747 0
M  V30 57 H 2.6413 -1.2416 0.4931 0
M  V30 58 H 1.6376 0.3388 -3.1756 0
M  V30 59 H 0.9034 4.0658 -0.9275 0
M  V30 60 H 1.5875 3.2275 0.5126 0
M  V30 61 H -2.9779 1.9113 -1.519 0
M  V30 62 H -2.6587 0.3462 -2.2798 0
M  V30 63 H -1.3356 3.944 -2.3549 0
M  V30 64 H -0.1196 3.4712 -3.5509 0
M  V30 65 H -4.1237 2.3026 -3.5342 0
M  V30 66 H -3.131 1.1545 -4.4363 0
M  V30 67 H -1.7434 2.8162 -5.1277 0
M  V30 68 H -2.7081 4.0201 -4.2686 0
M  V30 69 H 4.982 5.6763 0.3345 0
M  V30 70 H 4.2018 6.6 -0.9954 0
M  V30 71 H 4.0478 7.1448 0.687 0
M  V30 END ATOM
M  V30 BEGIN BOND
M  V30 1 1 1 2
M  V30 2 1 2 3
M  V30 3 1 2 4
M  V30 4 1 2 5
M  V30 5 1 3 6
M  V30 6 1 3 7
M  V30 7 1 3 8
M  V30 8 1 4 9
M  V30 9 1 4 10
M  V30 10 1 5 11
M  V30 11 1 5 12
M  V30 12 2 6 13
M  V30 13 1 6 14
M  V30 14 2 7 15
M  V30 15 1 10 16
M  V30 16 1 11 17
M  V30 17 1 13 18
M  V30 18 1 16 19
M  V30 19 1 16 20
M  V30 20 1 17 21
M  V30 21 2 18 22
M  V30 22 1 19 23
M  V30 23 1 19 24
M  V30 24 1 21 25
M  V30 25 1 23 26
M  V30 26 2 24 27
M  V30 27 1 24 28
M  V30 28 1 26 29
M  V30 29 1 26 30
M  V30 30 1 28 31
M  V30 31 1 29 32
M  V30 32 1 30 33
M  V30 33 1 31 34
M  V30 34 2 34 35
M  V30 35 1 34 36
M  V30 36 1 11 16
M  V30 37 1 12 14
M  V30 38 1 15 18
M  V30 39 1 19 21
M  V30 40 1 25 26
M  V30 41 1 32 33
M  V30 42 1 4 37
M  V30 43 1 5 38
M  V30 44 1 7 39
M  V30 45 1 8 40
M  V30 46 1 8 41
M  V30 47 1 8 42
M  V30 48 1 9 43
M  V30 49 1 10 44
M  V30 50 1 10 45
M  V30 51 1 11 46
M  V30 52 1 12 47
M  V30 53 1 12 48
M  V30 54 1 13 49
M  V30 55 1 14 50
M  V30 56 1 14 51
M  V30 57 1 15 52
M  V30 58 1 17 53
M  V30 59 1 17 54
M  V30 60 1 20 55
M  V30 61 1 20 56
M  V30 62 1 20 57
M  V30 63 1 21 58
M  V30 64 1 28 59
M  V30 65 1 28 60
M  V30 66 1 29 61
M  V30 67 1 29 62
M  V30 68 1 30 63
M  V30 69 1 30 64
M  V30 70 1 32 65
M  V30 71 1 32 66
M  V30 72 1 33 67
M  V30 73 1 33 68
M  V30 74 1 36 69
M  V30 75 1 36 70
M  V30 76 1 36 71
M  V30 END BOND
M  V30 BEGIN COLLECTION
M  V30 MDLV30/STEABS ATOMS=(8 2 3 4 5 11 16 19 21)
M  V30 END COLLECTION
M  V30 END CTAB
M  END
>  <Column 1>
1034

>  <level_0>
1171

>  <index>
1171

>  <Unnamed: 0>
1171

>  <NO.>
1183

>  <Name>
amcinonide

>  <IUPAC_name>
[2-[(1s-2s-4r-8s-9s-11s-12r-13s)-12-fluoro-11-hydroxy-9-13-dimethyl-16-oxospiro[5-7-dioxapentacyclo[10.8.0.02-9.04-8.013-18]icosa-14-17-diene-6-1'-cyclopentane]-8-yl]-2-oxoethyl] acetate

>  <SMILES>
CC(=O)OCC(=O)[C@@]12OC3(CCCC3)O[C@@H]1C[C@H]1[C@@H]3CCC4=CC(=O)C=C[C@]4(C)[C@@]3(F)[C@@H](O)C[C@@]12C

>  <CID>
443958

>  <logBB>


>  <BBB+/BBB->
BBB+

>  <Inchi>
InChI=1S/C28H35FO7/c1-16(30)34-15-22(33)28-23(35-26(36-28)9-4-5-10-26)13-20-19-7-6-17-12-18(31)8-11-24(17-2)27(19-29)21(32)14-25(20-28)3/h8-11-12-19-21-23-32H-4-7-9-10-13-15H2-1-3H3/t19--20--21--23+-24--25--27--28+/m0/s1

>  <threshold>
-1

>  <reference>
R1|R6|R27|R30|

>  <group>
B

>  <Class>
1

>  <ABC>
29.42

>  <ABCGG>
23.29

>  <nAcid>
0

>  <nBase>
0

>  <nAromAtom>
0

>  <nAromBond>
0

>  <nAtom>
71

>  <nHeavyAtom>
36

>  <nSpiro>
1

>  <nBridgehead>
0

>  <nHetero>
8

>  <nN>
0

>  <nO>
7

>  <nF>
1

>  <BalabanJ>
1.4

>  <BertzCT>
1091.46

>  <nBonds>
76

>  <nBondsO>
41

>  <nBondsS>
71

>  <nBondsD>
5

>  <nBondsT>
0

>  <nBondsA>
0

>  <nBondsM>
5

>  <nBondsKS>
71

>  <nBondsKD>
5

>  <RNCG>
0.15

>  <RPCG>
0.1

>  <FCSP3>
0.75

>  <SZ>
44.67

>  <Sm>
41.84

>  <Sv>
43.13

>  <Sse>
71.81

>  <Sp>
45.67

>  <Si>
80.28

>  <MZ>
0.63

>  <Mm>
0.59

>  <Mv>
0.61

>  <Mse>
1.01

>  <Mp>
0.64

>  <Mi>
1.13

>  <NsCH3>
3

>  <NdCH2>
0

>  <NssCH2>
9

>  <NtCH>
0

>  <NdsCH>
3

>  <NaaCH>
0

>  <NsssCH>
4

>  <NddC>
0

>  <NtsC>
0

>  <NdssC>
4

>  <NaasC>
0

>  <NaaaC>
0

>  <NssssC>
5

>  <NsNH3>
0

>  <NsNH2>
0

>  <NssNH2>
0

>  <NdNH>
0

>  <NssNH>
0

>  <NaaNH>
0

>  <NtN>
0

>  <NsssNH>
0

>  <NdsN>
0

>  <NaaN>
0

>  <NsssN>
0

>  <NddsN>
0

>  <NaasN>
0

>  <NssssN>
0

>  <NsOH>
1

>  <NdO>
3

>  <NssO>
3

>  <NaaO>
0

>  <NsF>
1

>  <NsSiH3>
0

>  <NssSiH2>
0

>  <NsssSiH>
0

>  <NssssSi>
0

>  <NsPH2>
0

>  <NssPH>
0

>  <NsssP>
0

>  <NdsssP>
0

>  <NsssssP>
0

>  <NsSH>
0

>  <NdS>
0

>  <NssS>
0

>  <NaaS>
0

>  <NdssS>
0

>  <NddssS>
0

>  <NsCl>
0

>  <NsBr>
0

>  <NsI>
0

>  <fragCpx>
421.08

>  <fMF>
0.34

>  <nHBAcc>
7

>  <nHBDon>
1

>  <Kier1>
26.23

>  <Kier2>
8.5

>  <Lipinski>
0

>  <GhoseFilter>
0

>  <FilterItLogS>
-4.38

>  <VMcGowan>
361.57

>  <LabuteASA>
209.96

>  <PEOE_VSA1>
19.32

>  <PEOE_VSA2>
14.38

>  <PEOE_VSA3>
4.39

>  <PEOE_VSA4>
0

>  <PEOE_VSA5>
0

>  <PEOE_VSA6>
18.57

>  <PEOE_VSA7>
63.52

>  <PEOE_VSA8>
36.51

>  <PEOE_VSA9>
12.21

>  <PEOE_VSA10>
0

>  <PEOE_VSA11>
29.45

>  <PEOE_VSA12>
5.78

>  <PEOE_VSA13>
0

>  <SMR_VSA1>
38.09

>  <SMR_VSA2>
0

>  <SMR_VSA3>
0

>  <SMR_VSA4>
22.67

>  <SMR_VSA5>
101.4

>  <SMR_VSA6>
6.61

>  <SMR_VSA7>
23.8

>  <SMR_VSA8>
0

>  <SMR_VSA9>
0

>  <SlogP_VSA1>
0

>  <SlogP_VSA2>
58.51

>  <SlogP_VSA3>
28.59

>  <SlogP_VSA4>
22.67

>  <SlogP_VSA5>
72.14

>  <SlogP_VSA6>
23.8

>  <SlogP_VSA7>
0

>  <SlogP_VSA8>
0

>  <SlogP_VSA9>
0

>  <SlogP_VSA10>
4.39

>  <SlogP_VSA11>
0

>  <EState_VSA1>
58.59

>  <EState_VSA2>
23.91

>  <EState_VSA3>
37.68

>  <EState_VSA4>
12.84

>  <EState_VSA5>
19.08

>  <EState_VSA6>
13

>  <EState_VSA7>
6.92

>  <EState_VSA8>
0

>  <EState_VSA9>
14.21

>  <EState_VSA10>
19.49

>  <VSA_EState1>
35.85

>  <VSA_EState2>
37.55

>  <VSA_EState3>
11.62

>  <VSA_EState4>
-4.72

>  <VSA_EState5>
-2.8

>  <VSA_EState6>
0

>  <VSA_EState7>
7.23

>  <VSA_EState8>
4.52

>  <VSA_EState9>
0

>  <apol>
76.27

>  <bpol>
44.04

>  <nRing>
6

>  <nHRing>
1

>  <naRing>
0

>  <naHRing>
0

>  <nARing 2>
6

>  <nAHRing 2>
1

>  <nFRing>
1

>  <nFHRing>
1

>  <nFaRing>
0

>  <nFaHRing>
0

>  <nFARing 2>
1

>  <nFAHRing 2>
1

>  <nRot>
3

>  <SLogP>
3.52

>  <SMR>
125.27

>  <TopoPSA(NO)>
99.13

>  <TopoPSA>
99.13

>  <JGI1>
0.3

>  <JGI2>
0.13

>  <JGI3>
0.08

>  <JGI4>
0.06

>  <JGI5>
0.03

>  <Diameter>
14

>  <Radius>
7

>  <TMWC10>
161.18

>  <TSRW10>
92.1

>  <MW>
502.24

>  <AMW>
7.07

>  <WPath>
3393

>  <WPol>
83

>  <Zagreb1>
220

>  <Zagreb2>
286

>  <mZagreb2>
7.36

>  <yes>


>  <nAR-cont>
0

>  <nHA-cont>
0.477843619

>  <MWHBN>
0.356972152

>  <MWHBN-cont>
0.643962206

>  <TPSA-cont>
0.308011044

>  <pka_cont>
0.97

>  <yes.1>


>  <BBB_SCORE>
2.544809016

>  <MMFF94 Energy>
156.73

$$$$
Compound 866
Actelion Java MolfileCreator 2.0

  0  0  0  0  0  0              0 V3000
M  V30 BEGIN CTAB
M  V30 COUNTS 61 64 0 0 0
M  V30 BEGIN ATOM
M  V30 1 Cl -1.7123 -2.4468 1.2228 0
M  V30 2 C -2.0678 -1.1475 -0.0615 0
M  V30 3 C -3.6326 -1.225 -0.3922 0 CFG=2
M  V30 4 C -1.1079 -1.486 -1.2581 0 CFG=1
M  V30 5 C -1.7086 0.2631 0.5539 0 CFG=2
M  V30 6 C -4.4176 -0.8467 0.8811 0
M  V30 7 C -4.0332 -2.6145 -0.8923 0
M  V30 8 C -4.0988 -0.2544 -1.5076 0
M  V30 9 O -1.4432 -0.7328 -2.4219 0
M  V30 10 C 0.3942 -1.2643 -0.9426 0
M  V30 11 C -0.2047 0.3545 0.8637 0 CFG=1
M  V30 12 C -2.5686 0.5961 1.7861 0
M  V30 13 C -5.3391 -1.6466 1.449 0
M  V30 14 C -4.0622 0.4843 1.4959 0 CFG=2
M  V30 15 C -4.954 -3.4016 -0.3198 0
M  V30 16 C 0.6923 0.1384 -0.3753 0 CFG=1
M  V30 17 C 0.3544 1.6368 1.47 0
M  V30 18 C -5.6804 -2.9699 0.8899 0
M  V30 19 F -4.7248 0.683 2.6718 0
M  V30 20 C 2.0891 0.2843 0.3045 0 CFG=2
M  V30 21 C 0.5012 1.229 -1.4677 0
M  V30 22 C 1.8877 1.4892 1.2793 0 CFG=2
M  V30 23 O -6.5342 -3.6805 1.4046 0
M  V30 24 C 3.2729 0.4084 -0.6668 0
M  V30 25 C 2.5725 1.2653 2.6281 0
M  V30 26 O 3.1835 0.0165 -1.833 0
M  V30 27 C 4.5948 0.9195 -0.1013 0
M  V30 28 O 5.619 0.8917 -1.0952 0
M  V30 29 C 6.8251 1.3293 -0.6497 0
M  V30 30 O 7.0546 1.7209 0.4858 0
M  V30 31 C 7.8386 1.2653 -1.7501 0
M  V30 32 H -1.2339 -2.5385 -1.539 0
M  V30 33 H -1.9429 1.0328 -0.188 0
M  V30 34 H -3.5448 -2.9787 -1.7941 0
M  V30 35 H -3.7028 0.7575 -1.3864 0
M  V30 36 H -5.1938 -0.1652 -1.5206 0
M  V30 37 H -3.818 -0.5996 -2.5084 0
M  V30 38 H -0.7996 -0.9581 -3.1194 0
M  V30 39 H 0.9833 -1.4258 -1.8534 0
M  V30 40 H 0.7263 -2.0269 -0.2276 0
M  V30 41 H 0.022 -0.4308 1.6002 0
M  V30 42 H -2.3077 -0.0444 2.6375 0
M  V30 43 H -2.364 1.6196 2.124 0
M  V30 44 H -5.8748 -1.3717 2.3518 0
M  V30 45 H -4.3746 1.2929 0.8267 0
M  V30 46 H -5.2137 -4.377 -0.7131 0
M  V30 47 H -0.0127 2.5206 0.9356 0
M  V30 48 H 0.0689 1.7504 2.5212 0
M  V30 49 H 2.2957 -0.6222 0.8918 0
M  V30 50 H 0.9574 0.9252 -2.4156 0
M  V30 51 H -0.5478 1.4416 -1.6829 0
M  V30 52 H 0.9585 2.1845 -1.1904 0
M  V30 53 H 2.278 2.4176 0.8458 0
M  V30 54 H 2.388 2.1133 3.2966 0
M  V30 55 H 3.6547 1.1626 2.519 0
M  V30 56 H 2.1957 0.3624 3.1208 0
M  V30 57 H 4.4541 1.9503 0.2373 0
M  V30 58 H 4.8793 0.2622 0.727 0
M  V30 59 H 7.9541 0.2324 -2.088 0
M  V30 60 H 7.5289 1.909 -2.5772 0
M  V30 61 H 8.8032 1.6193 -1.3751 0
M  V30 END ATOM
M  V30 BEGIN BOND
M  V30 1 1 1 2
M  V30 2 1 2 3
M  V30 3 1 2 4
M  V30 4 1 2 5
M  V30 5 1 3 6
M  V30 6 1 3 7
M  V30 7 1 3 8
M  V30 8 1 4 9
M  V30 9 1 4 10
M  V30 10 1 5 11
M  V30 11 1 5 12
M  V30 12 2 6 13
M  V30 13 1 6 14
M  V30 14 2 7 15
M  V30 15 1 10 16
M  V30 16 1 11 17
M  V30 17 1 13 18
M  V30 18 1 14 19
M  V30 19 1 16 20
M  V30 20 1 16 21
M  V30 21 1 17 22
M  V30 22 2 18 23
M  V30 23 1 20 24
M  V30 24 1 22 25
M  V30 25 2 24 26
M  V30 26 1 24 27
M  V30 27 1 27 28
M  V30 28 1 28 29
M  V30 29 2 29 30
M  V30 30 1 29 31
M  V30 31 1 11 16
M  V30 32 1 12 14
M  V30 33 1 15 18
M  V30 34 1 20 22
M  V30 35 1 4 32
M  V30 36 1 5 33
M  V30 37 1 7 34
M  V30 38 1 8 35
M  V30 39 1 8 36
M  V30 40 1 8 37
M  V30 41 1 9 38
M  V30 42 1 10 39
M  V30 43 1 10 40
M  V30 44 1 11 41
M  V30 45 1 12 42
M  V30 46 1 12 43
M  V30 47 1 13 44
M  V30 48 1 14 45
M  V30 49 1 15 46
M  V30 50 1 17 47
M  V30 51 1 17 48
M  V30 52 1 20 49
M  V30 53 1 21 50
M  V30 54 1 21 51
M  V30 55 1 21 52
M  V30 56 1 22 53
M  V30 57 1 25 54
M  V30 58 1 25 55
M  V30 59 1 25 56
M  V30 60 1 27 57
M  V30 61 1 27 58
M  V30 62 1 31 59
M  V30 63 1 31 60
M  V30 64 1 31 61
M  V30 END BOND
M  V30 BEGIN COLLECTION
M  V30 MDLV30/STEABS ATOMS=(8 3 4 5 11 14 16 20 22)
M  V30 END COLLECTION
M  V30 END CTAB
M  END
>  <Column 1>
1035

>  <level_0>
1172

>  <index>
1172

>  <Unnamed: 0>
1172

>  <NO.>
1184

>  <Name>
clocortolone-acetate

>  <IUPAC_name>
[2-[(6s-8s-10s-11s-13s-14s-16r-17s)-9-chloro-6-fluoro-11-hydroxy-10-13-16-trimethyl-3-oxo-7-8-11-12-14-15-16-17-octahydro-6h-cyclopenta[a]phenanthren-17-yl]-2-oxoethyl] acetate

>  <SMILES>
CC(=O)OCC(=O)[C@H]1[C@H](C)C[C@H]2[C@@H]3C[C@H](F)C4=CC(=O)C=C[C@]4(C)C3(Cl)[C@@H](O)C[C@@]21C

>  <CID>
3037082

>  <logBB>


>  <BBB+/BBB->
BBB+

>  <Inchi>
InChI=1S/C24H30ClFO5/c1-12-7-15-16-9-18(26)17-8-14(28)5-6-23(17-4)24(16-25)20(30)10-22(15-3)21(12)19(29)11-31-13(2)27/h5-6-8-12-15-16-18-20-21-30H-7-9-11H2-1-4H3/t12--15+-16+-18+-20+-21--22+-23+-24?/m1/s1

>  <threshold>
-1

>  <reference>
R1|R27|R30|

>  <group>
B

>  <Class>
1

>  <ABC>
24.72

>  <ABCGG>
20.31

>  <nAcid>
0

>  <nBase>
0

>  <nAromAtom>
0

>  <nAromBond>
0

>  <nAtom>
61

>  <nHeavyAtom>
31

>  <nSpiro>
0

>  <nBridgehead>
0

>  <nHetero>
7

>  <nN>
0

>  <nO>
5

>  <nF>
1

>  <BalabanJ>
1.68

>  <BertzCT>
898.4

>  <nBonds>
64

>  <nBondsO>
34

>  <nBondsS>
59

>  <nBondsD>
5

>  <nBondsT>
0

>  <nBondsA>
0

>  <nBondsM>
5

>  <nBondsKS>
59

>  <nBondsKD>
5

>  <RNCG>
0.18

>  <RPCG>
0.12

>  <FCSP3>
0.71

>  <SZ>
40

>  <Sm>
37.71

>  <Sv>
37.44

>  <Sse>
61.69

>  <Sp>
40.02

>  <Si>
68.98

>  <MZ>
0.66

>  <Mm>
0.62

>  <Mv>
0.61

>  <Mse>
1.01

>  <Mp>
0.66

>  <Mi>
1.13

>  <NsCH3>
4

>  <NdCH2>
0

>  <NssCH2>
4

>  <NtCH>
0

>  <NdsCH>
3

>  <NaaCH>
0

>  <NsssCH>
6

>  <NddC>
0

>  <NtsC>
0

>  <NdssC>
4

>  <NaasC>
0

>  <NaaaC>
0

>  <NssssC>
3

>  <NsNH3>
0

>  <NsNH2>
0

>  <NssNH2>
0

>  <NdNH>
0

>  <NssNH>
0

>  <NaaNH>
0

>  <NtN>
0

>  <NsssNH>
0

>  <NdsN>
0

>  <NaaN>
0

>  <NsssN>
0

>  <NddsN>
0

>  <NaasN>
0

>  <NssssN>
0

>  <NsOH>
1

>  <NdO>
3

>  <NssO>
1

>  <NaaO>
0

>  <NsF>
1

>  <NsSiH3>
0

>  <NssSiH2>
0

>  <NsssSiH>
0

>  <NssssSi>
0

>  <NsPH2>
0

>  <NssPH>
0

>  <NsssP>
0

>  <NdsssP>
0

>  <NsssssP>
0

>  <NsSH>
0

>  <NdS>
0

>  <NssS>
0

>  <NaaS>
0

>  <NdssS>
0

>  <NddssS>
0

>  <NsCl>
1

>  <NsBr>
0

>  <NsI>
0

>  <fragCpx>
226.07

>  <fMF>
0.28

>  <nHBAcc>
5

>  <nHBDon>
1

>  <Kier1>
24.13

>  <Kier2>
8.05

>  <Lipinski>
1

>  <GhoseFilter>
1

>  <FilterItLogS>
-4.13

>  <VMcGowan>
327.43

>  <LabuteASA>
186.59

>  <PEOE_VSA1>
9.84

>  <PEOE_VSA2>
14.38

>  <PEOE_VSA3>
4.39

>  <PEOE_VSA4>
0

>  <PEOE_VSA5>
11.6

>  <PEOE_VSA6>
26.85

>  <PEOE_VSA7>
60.16

>  <PEOE_VSA8>
18.26

>  <PEOE_VSA9>
10.98

>  <PEOE_VSA10>
12.78

>  <PEOE_VSA11>
11.57

>  <PEOE_VSA12>
0

>  <PEOE_VSA13>
0

>  <SMR_VSA1>
28.62

>  <SMR_VSA2>
0

>  <SMR_VSA3>
0

>  <SMR_VSA4>
34.5

>  <SMR_VSA5>
64.11

>  <SMR_VSA6>
6.61

>  <SMR_VSA7>
23.8

>  <SMR_VSA8>
0

>  <SMR_VSA9>
0

>  <SlogP_VSA1>
0

>  <SlogP_VSA2>
46.4

>  <SlogP_VSA3>
19.12

>  <SlogP_VSA4>
34.5

>  <SlogP_VSA5>
46.96

>  <SlogP_VSA6>
23.8

>  <SlogP_VSA7>
0

>  <SlogP_VSA8>
0

>  <SlogP_VSA9>
0

>  <SlogP_VSA10>
4.39

>  <SlogP_VSA11>
0

>  <EState_VSA1>
39.87

>  <EState_VSA2>
42.35

>  <EState_VSA3>
18.41

>  <EState_VSA4>
0

>  <EState_VSA5>
19.08

>  <EState_VSA6>
13

>  <EState_VSA7>
13.85

>  <EState_VSA8>
0

>  <EState_VSA9>
16.34

>  <EState_VSA10>
19.49

>  <VSA_EState1>
20.4

>  <VSA_EState2>
35.02

>  <VSA_EState3>
11.44

>  <VSA_EState4>
-1.23

>  <VSA_EState5>
-1.79

>  <VSA_EState6>
0

>  <VSA_EState7>
3.15

>  <VSA_EState8>
6.75

>  <VSA_EState9>
0

>  <apol>
66.83

>  <bpol>
36.06

>  <nRing>
4

>  <nHRing>
0

>  <naRing>
0

>  <naHRing>
0

>  <nARing 2>
4

>  <nAHRing 2>
0

>  <nFRing>
1

>  <nFHRing>
0

>  <nFaRing>
0

>  <nFaHRing>
0

>  <nFARing 2>
1

>  <nFAHRing 2>
0

>  <nRot>
3

>  <SLogP>
3.57

>  <SMR>
113.06

>  <TopoPSA(NO)>
80.67

>  <TopoPSA>
80.67

>  <JGI1>
0.31

>  <JGI2>
0.13

>  <JGI3>
0.08

>  <JGI4>
0.06

>  <JGI5>
0.04

>  <Diameter>
14

>  <Radius>
7

>  <TMWC10>
146.67

>  <TSRW10>
82.91

>  <MW>
452.18

>  <AMW>
7.41

>  <WPath>
2352

>  <WPol>
69

>  <Zagreb1>
180

>  <Zagreb2>
229

>  <mZagreb2>
6.42

>  <yes>


>  <nAR-cont>
0.199399

>  <nHA-cont>
0.702745138

>  <MWHBN>
0.282160084

>  <MWHBN-cont>
0.890555032

>  <TPSA-cont>
0.436873307

>  <pka_cont>
0.97

>  <yes.1>


>  <BBB_SCORE>
3.596723299

>  <MMFF94 Energy>
120.77

$$$$
Compound 867
Actelion Java MolfileCreator 2.0

  0  0  0  0  0  0              0 V3000
M  V30 BEGIN CTAB
M  V30 COUNTS 47 47 0 0 0
M  V30 BEGIN ATOM
M  V30 1 S -0.8729 -2.9385 -0.5554 0
M  V30 2 C -0.2148 -1.5122 0.2614 0
M  V30 3 C -1.7087 -2.1835 -1.9162 0
M  V30 4 C -0.9488 -0.8603 1.2062 0
M  V30 5 C 1.1099 -1.019 -0.3206 0
M  V30 6 O -2.0442 -1.0045 -1.9149 0
M  V30 7 C -1.9894 -3.1217 -3.0541 0
M  V30 8 N -0.5124 0.3166 1.8366 0
M  V30 9 C -2.3215 -1.3367 1.6528 0
M  V30 10 C 2.3072 -1.918 0.0124 0
M  V30 11 C 0.7244 0.4062 2.4749 0
M  V30 12 C -1.4212 1.4658 1.9622 0
M  V30 13 O 2.3911 -2.9697 -0.9666 0
M  V30 14 O 1.5525 -0.4825 2.6236 0
M  V30 15 C -1.0543 2.5882 1.0356 0
M  V30 16 C 3.4405 -3.8177 -0.7947 0
M  V30 17 C -0.7247 3.8652 1.4506 0
M  V30 18 C -1.0802 2.4066 -0.3362 0
M  V30 19 O 4.2963 -3.7309 0.0734 0
M  V30 20 C 3.4049 -4.8882 -1.8421 0
M  V30 21 N -0.4635 4.8616 0.592 0
M  V30 22 N -0.6886 4.2382 2.7794 0
M  V30 23 N -0.8011 3.3727 -1.2296 0
M  V30 24 C -0.5131 4.5795 -0.7218 0
M  V30 25 C -0.1804 5.6775 -1.6818 0
M  V30 26 H 1.008 -0.9315 -1.4108 0
M  V30 27 H 1.3284 -0.003 0.0211 0
M  V30 28 H -1.056 -3.5447 -3.4358 0
M  V30 29 H -2.6619 -3.92 -2.7281 0
M  V30 30 H -2.4734 -2.57 -3.8656 0
M  V30 31 H -2.4031 -2.4274 1.6773 0
M  V30 32 H -3.101 -0.938 0.9955 0
M  V30 33 H -2.5335 -1.0114 2.6784 0
M  V30 34 H 3.2249 -1.3207 -0.0456 0
M  V30 35 H 2.2211 -2.3567 1.0125 0
M  V30 36 H 0.9113 1.4147 2.8806 0
M  V30 37 H -2.459 1.182 1.757 0
M  V30 38 H -1.3957 1.7871 3.0096 0
M  V30 39 H -1.3418 1.4471 -0.7784 0
M  V30 40 H 2.47 -5.4495 -1.7668 0
M  V30 41 H 3.5063 -4.4399 -2.8336 0
M  V30 42 H 4.2382 -5.5786 -1.6834 0
M  V30 43 H -0.4882 5.2288 2.879 0
M  V30 44 H -0.2434 3.6371 3.4543 0
M  V30 45 H 0.8946 5.6774 -1.8832 0
M  V30 46 H -0.7166 5.5399 -2.6258 0
M  V30 47 H -0.4618 6.6504 -1.2671 0
M  V30 END ATOM
M  V30 BEGIN BOND
M  V30 1 1 1 2
M  V30 2 1 1 3
M  V30 3 2 2 4
M  V30 4 1 2 5
M  V30 5 2 3 6
M  V30 6 1 3 7
M  V30 7 1 4 8
M  V30 8 1 4 9
M  V30 9 1 5 10
M  V30 10 1 8 11
M  V30 11 1 8 12
M  V30 12 1 10 13
M  V30 13 2 11 14
M  V30 14 1 12 15
M  V30 15 1 13 16
M  V30 16 2 15 17
M  V30 17 1 15 18
M  V30 18 2 16 19
M  V30 19 1 16 20
M  V30 20 1 17 21
M  V30 21 1 17 22
M  V30 22 2 18 23
M  V30 23 2 21 24
M  V30 24 1 24 25
M  V30 25 1 23 24
M  V30 26 1 5 26
M  V30 27 1 5 27
M  V30 28 1 7 28
M  V30 29 1 7 29
M  V30 30 1 7 30
M  V30 31 1 9 31
M  V30 32 1 9 32
M  V30 33 1 9 33
M  V30 34 1 10 34
M  V30 35 1 10 35
M  V30 36 1 11 36
M  V30 37 1 12 37
M  V30 38 1 12 38
M  V30 39 1 18 39
M  V30 40 1 20 40
M  V30 41 1 20 41
M  V30 42 1 20 42
M  V30 43 1 22 43
M  V30 44 1 22 44
M  V30 45 1 25 45
M  V30 46 1 25 46
M  V30 47 1 25 47
M  V30 END BOND
M  V30 END CTAB
M  END
>  <Column 1>
1036

>  <level_0>
1173

>  <index>
1173

>  <Unnamed: 0>
1173

>  <NO.>
1185

>  <Name>
diacetylthiamine

>  <IUPAC_name>
[(e)-3-acetylsulfanyl-4-[(4-amino-2-methylpyrimidin-5-yl)methyl-formylamino]pent-3-enyl] acetate

>  <SMILES>
CC(=O)OCC/C(SC(C)=O)=C(/C)N(C=O)Cc1cnc(C)nc1N

>  <CID>
5748361

>  <logBB>


>  <BBB+/BBB->
BBB+

>  <Inchi>
InChI=1S/C16H22N4O4S/c1-10(15(25-13(4)23)5-6-24-12(3)22)20(9-21)8-14-7-18-11(2)19-16(14)17/h7-9H-5-6-8H2-1-4H3-(H2-17-18-19)/b15-10+

>  <threshold>
-1

>  <reference>
R1|R13|R24|R27|R30|

>  <group>
B

>  <Class>
-1

>  <ABC>
18.32

>  <ABCGG>
16.33

>  <nAcid>
0

>  <nBase>
0

>  <nAromAtom>
6

>  <nAromBond>
6

>  <nAtom>
47

>  <nHeavyAtom>
25

>  <nSpiro>
0

>  <nBridgehead>
0

>  <nHetero>
9

>  <nN>
4

>  <nO>
4

>  <nF>
0

>  <BalabanJ>
2.64

>  <BertzCT>
690.71

>  <nBonds>
47

>  <nBondsO>
25

>  <nBondsS>
37

>  <nBondsD>
4

>  <nBondsT>
0

>  <nBondsA>
6

>  <nBondsM>
10

>  <nBondsKS>
40

>  <nBondsKD>
7

>  <RNCG>
0.18

>  <RPCG>
0.12

>  <FCSP3>
0.44

>  <SZ>
32.33

>  <Sm>
30.51

>  <Sv>
29.04

>  <Sse>
47.82

>  <Sp>
31.08

>  <Si>
53.49

>  <MZ>
0.69

>  <Mm>
0.65

>  <Mv>
0.62

>  <Mse>
1.02

>  <Mp>
0.66

>  <Mi>
1.14

>  <NsCH3>
4

>  <NdCH2>
0

>  <NssCH2>
3

>  <NtCH>
0

>  <NdsCH>
1

>  <NaaCH>
1

>  <NsssCH>
0

>  <NddC>
0

>  <NtsC>
0

>  <NdssC>
4

>  <NaasC>
3

>  <NaaaC>
0

>  <NssssC>
0

>  <NsNH3>
0

>  <NsNH2>
1

>  <NssNH2>
0

>  <NdNH>
0

>  <NssNH>
0

>  <NaaNH>
0

>  <NtN>
0

>  <NsssNH>
0

>  <NdsN>
0

>  <NaaN>
2

>  <NsssN>
1

>  <NddsN>
0

>  <NaasN>
0

>  <NssssN>
0

>  <NsOH>
0

>  <NdO>
3

>  <NssO>
1

>  <NaaO>
0

>  <NsF>
0

>  <NsSiH3>
0

>  <NssSiH2>
0

>  <NsssSiH>
0

>  <NssssSi>
0

>  <NsPH2>
0

>  <NssPH>
0

>  <NsssP>
0

>  <NdsssP>
0

>  <NsssssP>
0

>  <NsSH>
0

>  <NdS>
0

>  <NssS>
1

>  <NaaS>
0

>  <NdssS>
0

>  <NddssS>
0

>  <NsCl>
0

>  <NsBr>
0

>  <NsI>
0

>  <fragCpx>
25.09

>  <fMF>
0.13

>  <nHBAcc>
8

>  <nHBDon>
1

>  <Kier1>
23.04

>  <Kier2>
11.66

>  <Lipinski>
1

>  <GhoseFilter>
1

>  <FilterItLogS>
-2.98

>  <VMcGowan>
275.09

>  <LabuteASA>
150.38

>  <PEOE_VSA1>
15.37

>  <PEOE_VSA2>
14.38

>  <PEOE_VSA3>
9.97

>  <PEOE_VSA4>
0

>  <PEOE_VSA5>
0

>  <PEOE_VSA6>
11.76

>  <PEOE_VSA7>
13.85

>  <PEOE_VSA8>
42.63

>  <PEOE_VSA9>
13.15

>  <PEOE_VSA10>
11.64

>  <PEOE_VSA11>
5.12

>  <PEOE_VSA12>
6.41

>  <PEOE_VSA13>
0

>  <SMR_VSA1>
19.12

>  <SMR_VSA2>
0

>  <SMR_VSA3>
14.87

>  <SMR_VSA4>
0

>  <SMR_VSA5>
40.66

>  <SMR_VSA6>
12.34

>  <SMR_VSA7>
28.19

>  <SMR_VSA8>
0

>  <SMR_VSA9>
0

>  <SlogP_VSA1>
5.73

>  <SlogP_VSA2>
38.97

>  <SlogP_VSA3>
25.67

>  <SlogP_VSA4>
6.92

>  <SlogP_VSA5>
38.58

>  <SlogP_VSA6>
16.8

>  <SlogP_VSA7>
0

>  <SlogP_VSA8>
0

>  <SlogP_VSA9>
0

>  <SlogP_VSA10>
5.82

>  <SlogP_VSA11>
0

>  <EState_VSA1>
5.97

>  <EState_VSA2>
18.27

>  <EState_VSA3>
40.64

>  <EState_VSA4>
11.76

>  <EState_VSA5>
18.75

>  <EState_VSA6>
20.04

>  <EState_VSA7>
0

>  <EState_VSA8>
9.97

>  <EState_VSA9>
10.47

>  <EState_VSA10>
14.38

>  <VSA_EState1>
4.92

>  <VSA_EState2>
44.15

>  <VSA_EState3>
-0.12

>  <VSA_EState4>
7.05

>  <VSA_EState5>
0.44

>  <VSA_EState6>
0

>  <VSA_EState7>
2.55

>  <VSA_EState8>
6.49

>  <VSA_EState9>
0

>  <apol>
51.9

>  <bpol>
32.29

>  <nRing>
1

>  <nHRing>
1

>  <naRing>
1

>  <naHRing>
1

>  <nARing 2>
0

>  <nAHRing 2>
0

>  <nFRing>
0

>  <nFHRing>
0

>  <nFaRing>
0

>  <nFaHRing>
0

>  <nFARing 2>
0

>  <nFAHRing 2>
0

>  <nRot>
8

>  <SLogP>
1.79

>  <SMR>
95.01

>  <TopoPSA(NO)>
115.48

>  <TopoPSA>
140.78

>  <JGI1>
0.26

>  <JGI2>
0.09

>  <JGI3>
0.06

>  <JGI4>
0.04

>  <JGI5>
0.03

>  <Diameter>
13

>  <Radius>
7

>  <TMWC10>
122.56

>  <TSRW10>
58.75

>  <MW>
366.14

>  <AMW>
7.79

>  <WPath>
1610

>  <WPol>
34

>  <Zagreb1>
116

>  <Zagreb2>
128

>  <mZagreb2>
5.75

>  <yes>


>  <nAR-cont>
0.336376

>  <nHA-cont>
0.921834225

>  <MWHBN>
0.470347588

>  <MWHBN-cont>
0

>  <TPSA-cont>
0

>  <pka_cont>
0.97

>  <yes.1>


>  <BBB_SCORE>
1.743210225

>  <MMFF94 Energy>
-27.545

$$$$
Compound 868
Actelion Java MolfileCreator 2.0

  0  0  0  0  0  0              0 V3000
M  V30 BEGIN CTAB
M  V30 COUNTS 45 47 0 0 0
M  V30 BEGIN ATOM
M  V30 1 S -0.8237 -1.1534 0.4941 0
M  V30 2 C -0.5717 -0.7642 -1.2632 0 CFG=1
M  V30 3 C -2.6299 -1.3016 0.3094 0
M  V30 4 N -1.2759 0.4692 -1.5247 0
M  V30 5 C 0.7291 -0.0132 -1.6854 0 CFG=1
M  V30 6 C -3.2688 -0.1307 -0.4134 0
M  V30 7 C -2.5817 0.7014 -1.2309 0
M  V30 8 C -0.2255 1.1924 -1.9592 0
M  V30 9 N 1.7725 0.2108 -0.652 0
M  V30 10 C -4.7412 0.0312 -0.101 0
M  V30 11 C -3.2115 1.9261 -1.7965 0
M  V30 12 O -0.1021 2.3432 -2.3062 0
M  V30 13 C 2.654 -0.7857 -0.2975 0
M  V30 14 O -5.4255 -1.2125 -0.3321 0
M  V30 15 O -3.8775 2.7414 -1.1835 0
M  V30 16 O -2.9854 2.0251 -3.1178 0
M  V30 17 O 2.6271 -1.8948 -0.8281 0
M  V30 18 C 3.5823 -0.4617 0.8598 0
M  V30 19 C -5.8898 -1.3948 -1.5989 0
M  V30 20 S 4.3637 1.1735 0.6414 0
M  V30 21 O -5.7272 -0.6245 -2.5335 0
M  V30 22 C -6.6197 -2.6995 -1.6931 0
M  V30 23 C 5.4978 1.1546 2.017 0
M  V30 24 C 5.0532 1.0183 3.3304 0
M  V30 25 C 6.8601 1.3152 1.7747 0
M  V30 26 C 5.9957 1.0254 4.3451 0
M  V30 27 C 7.7242 1.3076 2.8562 0
M  V30 28 N 7.3218 1.1607 4.1362 0
M  V30 29 H -0.8481 -1.5723 -1.9507 0
M  V30 30 H -2.8603 -2.2348 -0.2156 0
M  V30 31 H -3.0345 -1.3799 1.3241 0
M  V30 32 H 1.1739 -0.3937 -2.6138 0
M  V30 33 H 1.8842 1.1246 -0.2209 0
M  V30 34 H -4.8567 0.2648 0.9637 0
M  V30 35 H -5.246 0.834 -0.6442 0
M  V30 36 H -3.4069 2.8697 -3.3756 0
M  V30 37 H 2.9954 -0.4827 1.7831 0
M  V30 38 H 4.3593 -1.231 0.9075 0
M  V30 39 H -5.9315 -3.5237 -1.4905 0
M  V30 40 H -7.4531 -2.7104 -0.9859 0
M  V30 41 H -7.0215 -2.8178 -2.7035 0
M  V30 42 H 4.0017 0.9221 3.5747 0
M  V30 43 H 7.2494 1.4416 0.7703 0
M  V30 44 H 5.6998 0.9234 5.3856 0
M  V30 45 H 8.7953 1.4247 2.7176 0
M  V30 END ATOM
M  V30 BEGIN BOND
M  V30 1 1 1 2
M  V30 2 1 1 3
M  V30 3 1 2 4
M  V30 4 1 2 5
M  V30 5 1 3 6
M  V30 6 1 4 7
M  V30 7 1 4 8
M  V30 8 1 5 9
M  V30 9 1 6 10
M  V30 10 1 7 11
M  V30 11 2 8 12
M  V30 12 1 9 13
M  V30 13 1 10 14
M  V30 14 2 11 15
M  V30 15 1 11 16
M  V30 16 2 13 17
M  V30 17 1 13 18
M  V30 18 1 14 19
M  V30 19 1 18 20
M  V30 20 2 19 21
M  V30 21 1 19 22
M  V30 22 1 20 23
M  V30 23 2 23 24
M  V30 24 1 23 25
M  V30 25 1 24 26
M  V30 26 2 25 27
M  V30 27 2 26 28
M  V30 28 1 5 8
M  V30 29 2 6 7
M  V30 30 1 27 28
M  V30 31 1 2 29
M  V30 32 1 3 30
M  V30 33 1 3 31
M  V30 34 1 5 32
M  V30 35 1 9 33
M  V30 36 1 10 34
M  V30 37 1 10 35
M  V30 38 1 16 36
M  V30 39 1 18 37
M  V30 40 1 18 38
M  V30 41 1 22 39
M  V30 42 1 22 40
M  V30 43 1 22 41
M  V30 44 1 24 42
M  V30 45 1 25 43
M  V30 46 1 26 44
M  V30 47 1 27 45
M  V30 END BOND
M  V30 BEGIN COLLECTION
M  V30 MDLV30/STEABS ATOMS=(2 2 5)
M  V30 END COLLECTION
M  V30 END CTAB
M  END
>  <Column 1>
1038

>  <level_0>
1175

>  <index>
1175

>  <Unnamed: 0>
1175

>  <NO.>
1187

>  <Name>
cephapirin (cefapirin)

>  <IUPAC_name>
(6r-7r)-3-(acetyloxymethyl)-8-oxo-7-[(2-pyridin-4-ylsulfanylacetyl)amino]-5-thia-1-azabicyclo[4.2.0]oct-2-ene-2-carboxylic acid

>  <SMILES>
CC(=O)OCC1=C(C(=O)O)N2C(=O)[C@@H](NC(=O)CSc3ccncc3)[C@H]2SC1

>  <CID>
30699

>  <logBB>


>  <BBB+/BBB->
BBB-

>  <Inchi>
InChI=1S/C17H17N3O6S2/c1-9(21)26-6-10-7-28-16-13(15(23)20(16)14(10)17(24)25)19-12(22)8-27-11-2-4-18-5-3-11/h2-5-13-16H-6-8H2-1H3-(H-19-22)(H-24-25)/t13--16-/m1/s1

>  <threshold>
-1

>  <reference>
R1|R6|R24|R27|R27|R30|R30|

>  <group>
B

>  <Class>
-1

>  <ABC>
21.59

>  <ABCGG>
16.99

>  <nAcid>
1

>  <nBase>
0

>  <nAromAtom>
6

>  <nAromBond>
6

>  <nAtom>
45

>  <nHeavyAtom>
28

>  <nSpiro>
0

>  <nBridgehead>
0

>  <nHetero>
11

>  <nN>
3

>  <nO>
6

>  <nF>
0

>  <BalabanJ>
1.5

>  <BertzCT>
844.55

>  <nBonds>
47

>  <nBondsO>
30

>  <nBondsS>
36

>  <nBondsD>
5

>  <nBondsT>
0

>  <nBondsA>
6

>  <nBondsM>
11

>  <nBondsKS>
39

>  <nBondsKD>
8

>  <RNCG>
0.15

>  <RPCG>
0.11

>  <FCSP3>
0.35

>  <SZ>
36.67

>  <Sm>
35.26

>  <Sv>
30.54

>  <Sse>
46.67

>  <Sp>
32.12

>  <Si>
50.5

>  <MZ>
0.81

>  <Mm>
0.78

>  <Mv>
0.68

>  <Mse>
1.04

>  <Mp>
0.71

>  <Mi>
1.12

>  <NsCH3>
1

>  <NdCH2>
0

>  <NssCH2>
3

>  <NtCH>
0

>  <NdsCH>
0

>  <NaaCH>
4

>  <NsssCH>
2

>  <NddC>
0

>  <NtsC>
0

>  <NdssC>
6

>  <NaasC>
1

>  <NaaaC>
0

>  <NssssC>
0

>  <NsNH3>
0

>  <NsNH2>
0

>  <NssNH2>
0

>  <NdNH>
0

>  <NssNH>
1

>  <NaaNH>
0

>  <NtN>
0

>  <NsssNH>
0

>  <NdsN>
0

>  <NaaN>
1

>  <NsssN>
1

>  <NddsN>
0

>  <NaasN>
0

>  <NssssN>
0

>  <NsOH>
1

>  <NdO>
4

>  <NssO>
1

>  <NaaO>
0

>  <NsF>
0

>  <NsSiH3>
0

>  <NssSiH2>
0

>  <NsssSiH>
0

>  <NssssSi>
0

>  <NsPH2>
0

>  <NssPH>
0

>  <NsssP>
0

>  <NdsssP>
0

>  <NsssssP>
0

>  <NsSH>
0

>  <NdS>
0

>  <NssS>
2

>  <NaaS>
0

>  <NdssS>
0

>  <NddssS>
0

>  <NsCl>
0

>  <NsBr>
0

>  <NsI>
0

>  <fragCpx>
144.11

>  <fMF>
0.4

>  <nHBAcc>
8

>  <nHBDon>
2

>  <Kier1>
22.68

>  <Kier2>
10.35

>  <Lipinski>
1

>  <GhoseFilter>
1

>  <FilterItLogS>
-2.2

>  <VMcGowan>
281.27

>  <LabuteASA>
168.44

>  <PEOE_VSA1>
15.16

>  <PEOE_VSA2>
24.27

>  <PEOE_VSA3>
4.79

>  <PEOE_VSA4>
0

>  <PEOE_VSA5>
23.52

>  <PEOE_VSA6>
0

>  <PEOE_VSA7>
12.13

>  <PEOE_VSA8>
35.54

>  <PEOE_VSA9>
5.75

>  <PEOE_VSA10>
23.72

>  <PEOE_VSA11>
0

>  <PEOE_VSA12>
5.91

>  <PEOE_VSA13>
5.91

>  <SMR_VSA1>
29.02

>  <SMR_VSA2>
0

>  <SMR_VSA3>
15.2

>  <SMR_VSA4>
0

>  <SMR_VSA5>
23.23

>  <SMR_VSA6>
18.11

>  <SMR_VSA7>
35.8

>  <SMR_VSA8>
0

>  <SMR_VSA9>
0

>  <SlogP_VSA1>
5.32

>  <SlogP_VSA2>
68.27

>  <SlogP_VSA3>
23.92

>  <SlogP_VSA4>
0

>  <SlogP_VSA5>
6.92

>  <SlogP_VSA6>
40.69

>  <SlogP_VSA7>
0

>  <SlogP_VSA8>
0

>  <SlogP_VSA9>
0

>  <SlogP_VSA10>
0

>  <SlogP_VSA11>
0

>  <EState_VSA1>
29.26

>  <EState_VSA2>
23.96

>  <EState_VSA3>
11.33

>  <EState_VSA4>
9.8

>  <EState_VSA5>
30.45

>  <EState_VSA6>
24.53

>  <EState_VSA7>
0

>  <EState_VSA8>
10.3

>  <EState_VSA9>
4.74

>  <EState_VSA10>
24.28

>  <VSA_EState1>
4.88

>  <VSA_EState2>
53.22

>  <VSA_EState3>
11.68

>  <VSA_EState4>
0.18

>  <VSA_EState5>
-2.18

>  <VSA_EState6>
2.78

>  <VSA_EState7>
3.25

>  <VSA_EState8>
1.05

>  <VSA_EState9>
0

>  <apol>
53.64

>  <bpol>
30.6

>  <nRing>
3

>  <nHRing>
3

>  <naRing>
1

>  <naHRing>
1

>  <nARing 2>
2

>  <nAHRing 2>
2

>  <nFRing>
1

>  <nFHRing>
1

>  <nFaRing>
0

>  <nFaHRing>
0

>  <nFARing 2>
1

>  <nFAHRing 2>
1

>  <nRot>
7

>  <SLogP>
0.48

>  <SMR>
101.28

>  <TopoPSA(NO)>
125.9

>  <TopoPSA>
176.5

>  <JGI1>
0.18

>  <JGI2>
0.07

>  <JGI3>
0.06

>  <JGI4>
0.05

>  <JGI5>
0.03

>  <Diameter>
16

>  <Radius>
8

>  <TMWC10>
134.83

>  <TSRW10>
63.78

>  <MW>
423.06

>  <AMW>
9.4

>  <WPath>
2292

>  <WPol>
41

>  <Zagreb1>
144

>  <Zagreb2>
169

>  <mZagreb2>
6.19

>  <yes>


>  <nAR-cont>
1

>  <nHA-cont>
0.82432561

>  <MWHBN>
0.486182159

>  <MWHBN-cont>
0

>  <TPSA-cont>
0

>  <pka_cont>
0.97

>  <yes.1>


>  <BBB_SCORE>
2.30932561

>  <MMFF94 Energy>
-4.9922

$$$$
Compound 869
Actelion Java MolfileCreator 2.0

  0  0  0  0  0  0              0 V3000
M  V30 BEGIN CTAB
M  V30 COUNTS 45 47 0 0 0
M  V30 BEGIN ATOM
M  V30 1 S 0.6496 -1.4621 -0.812 0
M  V30 2 C -0.3462 -1.2107 0.6859 0 CFG=1
M  V30 3 C 2.1578 -1.8537 0.1316 0
M  V30 4 N 0.2463 -0.1063 1.404 0
M  V30 5 C -1.6413 -0.3456 0.592 0 CFG=1
M  V30 6 C 2.4822 -0.8372 1.2116 0
M  V30 7 C 1.5572 -0.0052 1.7444 0
M  V30 8 C -0.8366 0.6946 1.4356 0
M  V30 9 N -2.0795 0.1097 -0.7524 0
M  V30 10 C 3.9469 -0.8252 1.5942 0
M  V30 11 C 1.9434 1.0854 2.6793 0
M  V30 12 O -1.0236 1.807 1.8683 0
M  V30 13 C -2.7878 -0.7243 -1.588 0
M  V30 14 O 4.3072 -2.164 1.9668 0
M  V30 15 O 2.8459 1.8866 2.5207 0
M  V30 16 O 1.187 1.0635 3.7907 0
M  V30 17 O -3.1031 -1.8651 -1.2554 0
M  V30 18 C -3.0807 -0.1679 -2.9698 0
M  V30 19 C 5.6306 -2.323 2.242 0
M  V30 20 C -3.6986 1.2099 -2.9569 0
M  V30 21 O 6.4778 -1.4451 2.1772 0
M  V30 22 C 5.9059 -3.7417 2.6348 0
M  V30 23 C -4.9748 1.4085 -2.411 0
M  V30 24 C -3.0038 2.3084 -3.4819 0
M  V30 25 C -5.54 2.6838 -2.3822 0
M  V30 26 C -3.5722 3.5826 -3.4517 0
M  V30 27 C -4.8384 3.7702 -2.9007 0
M  V30 28 H -0.4697 -2.1081 1.3036 0
M  V30 29 H 2.9721 -1.8951 -0.5994 0
M  V30 30 H 2.0546 -2.85 0.5746 0
M  V30 31 H -2.4856 -0.7565 1.1602 0
M  V30 32 H -1.8825 1.057 -1.0606 0
M  V30 33 H 4.5426 -0.5026 0.7317 0
M  V30 34 H 4.163 -0.1727 2.4438 0
M  V30 35 H 1.4648 1.8603 4.2877 0
M  V30 36 H -3.7603 -0.8545 -3.4885 0
M  V30 37 H -2.1393 -0.1657 -3.5318 0
M  V30 38 H 5.3319 -3.9967 3.5291 0
M  V30 39 H 5.6506 -4.4107 1.8093 0
M  V30 40 H 6.97 -3.8554 2.86 0
M  V30 41 H -5.5367 0.5704 -2.0024 0
M  V30 42 H -2.0163 2.1826 -3.9206 0
M  V30 43 H -6.5289 2.8299 -1.9551 0
M  V30 44 H -3.0281 4.4307 -3.8599 0
M  V30 45 H -5.28 4.7632 -2.8778 0
M  V30 END ATOM
M  V30 BEGIN BOND
M  V30 1 1 1 2
M  V30 2 1 1 3
M  V30 3 1 2 4
M  V30 4 1 2 5
M  V30 5 1 3 6
M  V30 6 1 4 7
M  V30 7 1 4 8
M  V30 8 1 5 9
M  V30 9 1 6 10
M  V30 10 1 7 11
M  V30 11 2 8 12
M  V30 12 1 9 13
M  V30 13 1 10 14
M  V30 14 2 11 15
M  V30 15 1 11 16
M  V30 16 2 13 17
M  V30 17 1 13 18
M  V30 18 1 14 19
M  V30 19 1 18 20
M  V30 20 2 19 21
M  V30 21 1 19 22
M  V30 22 2 20 23
M  V30 23 1 20 24
M  V30 24 1 23 25
M  V30 25 2 24 26
M  V30 26 2 25 27
M  V30 27 1 5 8
M  V30 28 2 6 7
M  V30 29 1 26 27
M  V30 30 1 2 28
M  V30 31 1 3 29
M  V30 32 1 3 30
M  V30 33 1 5 31
M  V30 34 1 9 32
M  V30 35 1 10 33
M  V30 36 1 10 34
M  V30 37 1 16 35
M  V30 38 1 18 36
M  V30 39 1 18 37
M  V30 40 1 22 38
M  V30 41 1 22 39
M  V30 42 1 22 40
M  V30 43 1 23 41
M  V30 44 1 24 42
M  V30 45 1 25 43
M  V30 46 1 26 44
M  V30 47 1 27 45
M  V30 END BOND
M  V30 BEGIN COLLECTION
M  V30 MDLV30/STEABS ATOMS=(2 2 5)
M  V30 END COLLECTION
M  V30 END CTAB
M  END
>  <Column 1>
1039

>  <level_0>
1176

>  <index>
1176

>  <Unnamed: 0>
1176

>  <NO.>
1188

>  <Name>
cefaloram

>  <IUPAC_name>
(6r-7r)-3-(acetyloxymethyl)-8-oxo-7-[(2-phenylacetyl)amino]-5-thia-1-azabicyclo[4.2.0]oct-2-ene-2-carboxylic acid

>  <SMILES>
CC(=O)OCC1=C(C(=O)O)N2C(=O)[C@@H](NC(=O)Cc3ccccc3)[C@H]2SC1

>  <CID>
68940

>  <logBB>


>  <BBB+/BBB->
BBB-

>  <Inchi>
InChI=1S/C18H18N2O6S/c1-10(21)26-8-12-9-27-17-14(16(23)20(17)15(12)18(24)25)19-13(22)7-11-5-3-2-4-6-11/h2-6-14-17H-7-9H2-1H3-(H-19-22)(H-24-25)/t14--17-/m1/s1

>  <threshold>
-1

>  <reference>
R1|R6|R27|R27|R30|R30|

>  <group>
B

>  <Class>
-1

>  <ABC>
20.88

>  <ABCGG>
16.66

>  <nAcid>
1

>  <nBase>
0

>  <nAromAtom>
6

>  <nAromBond>
6

>  <nAtom>
45

>  <nHeavyAtom>
27

>  <nSpiro>
0

>  <nBridgehead>
0

>  <nHetero>
9

>  <nN>
2

>  <nO>
6

>  <nF>
0

>  <BalabanJ>
1.54

>  <BertzCT>
822.4

>  <nBonds>
47

>  <nBondsO>
29

>  <nBondsS>
36

>  <nBondsD>
5

>  <nBondsT>
0

>  <nBondsA>
6

>  <nBondsM>
11

>  <nBondsKS>
39

>  <nBondsKD>
8

>  <RNCG>
0.15

>  <RPCG>
0.11

>  <FCSP3>
0.33

>  <SZ>
34

>  <Sm>
32.5

>  <Sv>
29.87

>  <Sse>
46.38

>  <Sp>
31.12

>  <Si>
50.5

>  <MZ>
0.76

>  <Mm>
0.72

>  <Mv>
0.66

>  <Mse>
1.03

>  <Mp>
0.69

>  <Mi>
1.12

>  <NsCH3>
1

>  <NdCH2>
0

>  <NssCH2>
3

>  <NtCH>
0

>  <NdsCH>
0

>  <NaaCH>
5

>  <NsssCH>
2

>  <NddC>
0

>  <NtsC>
0

>  <NdssC>
6

>  <NaasC>
1

>  <NaaaC>
0

>  <NssssC>
0

>  <NsNH3>
0

>  <NsNH2>
0

>  <NssNH2>
0

>  <NdNH>
0

>  <NssNH>
1

>  <NaaNH>
0

>  <NtN>
0

>  <NsssNH>
0

>  <NdsN>
0

>  <NaaN>
0

>  <NsssN>
1

>  <NddsN>
0

>  <NaasN>
0

>  <NssssN>
0

>  <NsOH>
1

>  <NdO>
4

>  <NssO>
1

>  <NaaO>
0

>  <NsF>
0

>  <NsSiH3>
0

>  <NssSiH2>
0

>  <NsssSiH>
0

>  <NssssSi>
0

>  <NsPH2>
0

>  <NssPH>
0

>  <NsssP>
0

>  <NdsssP>
0

>  <NsssssP>
0

>  <NsSH>
0

>  <NdS>
0

>  <NssS>
1

>  <NaaS>
0

>  <NdssS>
0

>  <NddssS>
0

>  <NsCl>
0

>  <NsBr>
0

>  <NsI>
0

>  <fragCpx>
139.09

>  <fMF>
0.38

>  <nHBAcc>
6

>  <nHBDon>
2

>  <Kier1>
21.7

>  <Kier2>
9.67

>  <Lipinski>
1

>  <GhoseFilter>
1

>  <FilterItLogS>
-2.34

>  <VMcGowan>
269.03

>  <LabuteASA>
159.1

>  <PEOE_VSA1>
15.16

>  <PEOE_VSA2>
19.28

>  <PEOE_VSA3>
4.79

>  <PEOE_VSA4>
0

>  <PEOE_VSA5>
11.76

>  <PEOE_VSA6>
30.33

>  <PEOE_VSA7>
5.56

>  <PEOE_VSA8>
18.25

>  <PEOE_VSA9>
6.42

>  <PEOE_VSA10>
23.72

>  <PEOE_VSA11>
0

>  <PEOE_VSA12>
5.91

>  <PEOE_VSA13>
5.91

>  <SMR_VSA1>
29.02

>  <SMR_VSA2>
0

>  <SMR_VSA3>
10.22

>  <SMR_VSA4>
0

>  <SMR_VSA5>
24.76

>  <SMR_VSA6>
12.36

>  <SMR_VSA7>
47.17

>  <SMR_VSA8>
0

>  <SMR_VSA9>
0

>  <SlogP_VSA1>
5.32

>  <SlogP_VSA2>
57.53

>  <SlogP_VSA3>
30.34

>  <SlogP_VSA4>
0

>  <SlogP_VSA5>
12.49

>  <SlogP_VSA6>
41.6

>  <SlogP_VSA7>
0

>  <SlogP_VSA8>
0

>  <SlogP_VSA9>
0

>  <SlogP_VSA10>
0

>  <SlogP_VSA11>
0

>  <EState_VSA1>
29.26

>  <EState_VSA2>
24.63

>  <EState_VSA3>
11.33

>  <EState_VSA4>
10.46

>  <EState_VSA5>
18.69

>  <EState_VSA6>
0

>  <EState_VSA7>
30.33

>  <EState_VSA8>
5.32

>  <EState_VSA9>
4.74

>  <EState_VSA10>
24.28

>  <VSA_EState1>
4.88

>  <VSA_EState2>
48.46

>  <VSA_EState3>
11.69

>  <VSA_EState4>
1.02

>  <VSA_EState5>
-2.27

>  <VSA_EState6>
8.36

>  <VSA_EState7>
0.14

>  <VSA_EState8>
1.05

>  <VSA_EState9>
0

>  <apol>
51.97

>  <bpol>
28.01

>  <nRing>
3

>  <nHRing>
2

>  <naRing>
1

>  <naHRing>
0

>  <nARing 2>
2

>  <nAHRing 2>
2

>  <nFRing>
1

>  <nFHRing>
1

>  <nFaRing>
0

>  <nFaHRing>
0

>  <nFARing 2>
1

>  <nFAHRing 2>
1

>  <nRot>
6

>  <SLogP>
0.53

>  <SMR>
96.46

>  <TopoPSA(NO)>
113.01

>  <TopoPSA>
138.31

>  <JGI1>
0.19

>  <JGI2>
0.07

>  <JGI3>
0.07

>  <JGI4>
0.05

>  <JGI5>
0.03

>  <Diameter>
15

>  <Radius>
8

>  <TMWC10>
132.74

>  <TSRW10>
62.68

>  <MW>
390.09

>  <AMW>
8.67

>  <WPath>
2008

>  <WPol>
40

>  <Zagreb1>
140

>  <Zagreb2>
165

>  <mZagreb2>
5.94

>  <yes>


>  <nAR-cont>
1

>  <nHA-cont>
0.860070871

>  <MWHBN>
0.405049013

>  <MWHBN-cont>
0.456214056

>  <TPSA-cont>
0

>  <pka_cont>
0.97

>  <yes.1>


>  <BBB_SCORE>
3.029391955

>  <MMFF94 Energy>
3.4198

$$$$
Compound 870
Actelion Java MolfileCreator 2.0

  0  0  0  0  0  0              0 V3000
M  V30 BEGIN CTAB
M  V30 COUNTS 42 44 0 0 0
M  V30 BEGIN ATOM
M  V30 1 S -1.1552 1.4029 0.4124 0
M  V30 2 C 0.2524 1.509 -0.7292 0 CFG=1
M  V30 3 C -0.2667 2.2405 1.7643 0
M  V30 4 N 1.3403 0.7689 -0.1327 0
M  V30 5 C 0.3315 0.5029 -1.9192 0 CFG=1
M  V30 6 C 1.112 1.67 2.0352 0
M  V30 7 C 1.8107 0.9484 1.1285 0
M  V30 8 C 1.5362 -0.1098 -1.135 0
M  V30 9 N -0.8227 -0.4054 -2.1445 0
M  V30 10 C 1.6176 1.9792 3.4259 0
M  V30 11 C 3.0908 0.2815 1.4937 0
M  V30 12 O 2.2884 -1.0448 -1.2747 0
M  V30 13 C -1.9469 0.0279 -2.8133 0
M  V30 14 O 0.9122 1.1435 4.3452 0
M  V30 15 O 3.3095 -0.3753 2.4949 0
M  V30 16 O 4.0472 0.5422 0.5844 0
M  V30 17 O -2.0381 1.1634 -3.2756 0
M  V30 18 C -3.0651 -0.9924 -2.9099 0
M  V30 19 C 1.2844 1.3223 5.6413 0
M  V30 20 C -2.7076 -2.0406 -3.9183 0
M  V30 21 O 2.0831 2.1588 6.0384 0
M  V30 22 C 0.5575 0.3546 6.5235 0
M  V30 23 S -2.1589 -3.5815 -3.4061 0
M  V30 24 C -2.7584 -1.9528 -5.2959 0
M  V30 25 C -1.982 -4.1238 -5.0174 0
M  V30 26 C -2.3365 -3.1563 -5.9305 0
M  V30 27 H 0.5318 2.5319 -1.0087 0
M  V30 28 H -0.8996 2.1397 2.6522 0
M  V30 29 H -0.1849 3.3087 1.5352 0
M  V30 30 H 0.6569 0.9626 -2.8614 0
M  V30 31 H -0.7836 -1.3706 -1.8307 0
M  V30 32 H 2.6971 1.8262 3.5263 0
M  V30 33 H 1.4157 3.0342 3.6535 0
M  V30 34 H 4.8097 4.0E-4 0.8749 0
M  V30 35 H -3.9837 -0.4762 -3.2123 0
M  V30 36 H -3.2473 -1.4195 -1.9169 0
M  V30 37 H -0.5172 0.5473 6.4779 0
M  V30 38 H 0.7789 -0.6693 6.2122 0
M  V30 39 H 0.8935 0.4831 7.5565 0
M  V30 40 H -3.0781 -1.0622 -5.826 0
M  V30 41 H -1.6273 -5.1255 -5.2184 0
M  V30 42 H -2.2947 -3.3045 -7.0027 0
M  V30 END ATOM
M  V30 BEGIN BOND
M  V30 1 1 1 2
M  V30 2 1 1 3
M  V30 3 1 2 4
M  V30 4 1 2 5
M  V30 5 1 3 6
M  V30 6 1 4 7
M  V30 7 1 4 8
M  V30 8 1 5 9
M  V30 9 1 6 10
M  V30 10 1 7 11
M  V30 11 2 8 12
M  V30 12 1 9 13
M  V30 13 1 10 14
M  V30 14 2 11 15
M  V30 15 1 11 16
M  V30 16 2 13 17
M  V30 17 1 13 18
M  V30 18 1 14 19
M  V30 19 1 18 20
M  V30 20 2 19 21
M  V30 21 1 19 22
M  V30 22 1 20 23
M  V30 23 2 20 24
M  V30 24 1 23 25
M  V30 25 1 24 26
M  V30 26 1 5 8
M  V30 27 2 6 7
M  V30 28 2 25 26
M  V30 29 1 2 27
M  V30 30 1 3 28
M  V30 31 1 3 29
M  V30 32 1 5 30
M  V30 33 1 9 31
M  V30 34 1 10 32
M  V30 35 1 10 33
M  V30 36 1 16 34
M  V30 37 1 18 35
M  V30 38 1 18 36
M  V30 39 1 22 37
M  V30 40 1 22 38
M  V30 41 1 22 39
M  V30 42 1 24 40
M  V30 43 1 25 41
M  V30 44 1 26 42
M  V30 END BOND
M  V30 BEGIN COLLECTION
M  V30 MDLV30/STEABS ATOMS=(2 2 5)
M  V30 END COLLECTION
M  V30 END CTAB
M  END
>  <Column 1>
1040

>  <level_0>
1177

>  <index>
1177

>  <Unnamed: 0>
1177

>  <NO.>
1189

>  <Name>
cephalotin

>  <IUPAC_name>
(6r-7r)-3-(acetyloxymethyl)-8-oxo-7-[(2-thiophen-2-ylacetyl)amino]-5-thia-1-azabicyclo[4.2.0]oct-2-ene-2-carboxylic acid

>  <SMILES>
CC(=O)OCC1=C(C(=O)O)N2C(=O)[C@@H](NC(=O)Cc3cccs3)[C@H]2SC1

>  <CID>
6024

>  <logBB>


>  <BBB+/BBB->
BBB-

>  <Inchi>
InChI=1S/C16H16N2O6S2/c1-8(19)24-6-9-7-26-15-12(14(21)18(15)13(9)16(22)23)17-11(20)5-10-3-2-4-25-10/h2-4-12-15H-5-7H2-1H3-(H-17-20)(H-22-23)/t12--15-/m1/s1

>  <threshold>
-1

>  <reference>
R1|R7|R6|R27|R27|R29|R30|R30|

>  <group>
B

>  <Class>
-1

>  <ABC>
20.17

>  <ABCGG>
16.79

>  <nAcid>
1

>  <nBase>
0

>  <nAromAtom>
5

>  <nAromBond>
5

>  <nAtom>
42

>  <nHeavyAtom>
26

>  <nSpiro>
0

>  <nBridgehead>
0

>  <nHetero>
10

>  <nN>
2

>  <nO>
6

>  <nF>
0

>  <BalabanJ>
1.56

>  <BertzCT>
788.67

>  <nBonds>
44

>  <nBondsO>
28

>  <nBondsS>
34

>  <nBondsD>
5

>  <nBondsT>
0

>  <nBondsA>
5

>  <nBondsM>
10

>  <nBondsKS>
37

>  <nBondsKD>
7

>  <RNCG>
0.16

>  <RPCG>
0.12

>  <FCSP3>
0.38

>  <SZ>
34.33

>  <Sm>
33.01

>  <Sv>
28.51

>  <Sse>
43.57

>  <Sp>
30.06

>  <Si>
47

>  <MZ>
0.82

>  <Mm>
0.79

>  <Mv>
0.68

>  <Mse>
1.04

>  <Mp>
0.72

>  <Mi>
1.12

>  <NsCH3>
1

>  <NdCH2>
0

>  <NssCH2>
3

>  <NtCH>
0

>  <NdsCH>
0

>  <NaaCH>
3

>  <NsssCH>
2

>  <NddC>
0

>  <NtsC>
0

>  <NdssC>
6

>  <NaasC>
1

>  <NaaaC>
0

>  <NssssC>
0

>  <NsNH3>
0

>  <NsNH2>
0

>  <NssNH2>
0

>  <NdNH>
0

>  <NssNH>
1

>  <NaaNH>
0

>  <NtN>
0

>  <NsssNH>
0

>  <NdsN>
0

>  <NaaN>
0

>  <NsssN>
1

>  <NddsN>
0

>  <NaasN>
0

>  <NssssN>
0

>  <NsOH>
1

>  <NdO>
4

>  <NssO>
1

>  <NaaO>
0

>  <NsF>
0

>  <NsSiH3>
0

>  <NssSiH2>
0

>  <NsssSiH>
0

>  <NssssSi>
0

>  <NsPH2>
0

>  <NssPH>
0

>  <NsssP>
0

>  <NdsssP>
0

>  <NsssssP>
0

>  <NsSH>
0

>  <NdS>
0

>  <NssS>
1

>  <NaaS>
1

>  <NdssS>
0

>  <NddssS>
0

>  <NsCl>
0

>  <NsBr>
0

>  <NsI>
0

>  <fragCpx>
134.1

>  <fMF>
0.38

>  <nHBAcc>
7

>  <nHBDon>
2

>  <Kier1>
20.73

>  <Kier2>
9

>  <Lipinski>
1

>  <GhoseFilter>
1

>  <FilterItLogS>
-1.9

>  <VMcGowan>
261.5

>  <LabuteASA>
156.74

>  <PEOE_VSA1>
15.16

>  <PEOE_VSA2>
19.28

>  <PEOE_VSA3>
4.79

>  <PEOE_VSA4>
0

>  <PEOE_VSA5>
23.1

>  <PEOE_VSA6>
6.07

>  <PEOE_VSA7>
11.45

>  <PEOE_VSA8>
23.13

>  <PEOE_VSA9>
6.42

>  <PEOE_VSA10>
23.72

>  <PEOE_VSA11>
0

>  <PEOE_VSA12>
5.91

>  <PEOE_VSA13>
5.91

>  <SMR_VSA1>
29.02

>  <SMR_VSA2>
0

>  <SMR_VSA3>
10.22

>  <SMR_VSA4>
0

>  <SMR_VSA5>
24.76

>  <SMR_VSA6>
12.36

>  <SMR_VSA7>
33.66

>  <SMR_VSA8>
0

>  <SMR_VSA9>
0

>  <SlogP_VSA1>
5.32

>  <SlogP_VSA2>
57.53

>  <SlogP_VSA3>
30.34

>  <SlogP_VSA4>
0

>  <SlogP_VSA5>
11.8

>  <SlogP_VSA6>
28.78

>  <SlogP_VSA7>
0

>  <SlogP_VSA8>
0

>  <SlogP_VSA9>
0

>  <SlogP_VSA10>
0

>  <SlogP_VSA11>
0

>  <EState_VSA1>
29.26

>  <EState_VSA2>
24.63

>  <EState_VSA3>
11.33

>  <EState_VSA4>
9.78

>  <EState_VSA5>
30.02

>  <EState_VSA6>
0

>  <EState_VSA7>
17.51

>  <EState_VSA8>
5.32

>  <EState_VSA9>
4.74

>  <EState_VSA10>
24.28

>  <VSA_EState1>
4.87

>  <VSA_EState2>
49.16

>  <VSA_EState3>
13.54

>  <VSA_EState4>
0.2

>  <VSA_EState5>
-2.23

>  <VSA_EState6>
2.92

>  <VSA_EState7>
0.18

>  <VSA_EState8>
1.06

>  <VSA_EState9>
0

>  <apol>
50.2

>  <bpol>
28.46

>  <nRing>
3

>  <nHRing>
3

>  <naRing>
1

>  <naHRing>
1

>  <nARing 2>
2

>  <nAHRing 2>
2

>  <nFRing>
1

>  <nFHRing>
1

>  <nFaRing>
0

>  <nFaHRing>
0

>  <nFARing 2>
1

>  <nFAHRing 2>
1

>  <nRot>
6

>  <SLogP>
0.59

>  <SMR>
94.34

>  <TopoPSA(NO)>
113.01

>  <TopoPSA>
166.55

>  <JGI1>
0.2

>  <JGI2>
0.07

>  <JGI3>
0.08

>  <JGI4>
0.05

>  <JGI5>
0.03

>  <Diameter>
14

>  <Radius>
7

>  <TMWC10>
130.6

>  <TSRW10>
74.64

>  <MW>
396.04

>  <AMW>
9.43

>  <WPath>
1790

>  <WPol>
37

>  <Zagreb1>
136

>  <Zagreb2>
161

>  <mZagreb2>
5.69

>  <yes>


>  <nAR-cont>
1

>  <nHA-cont>
0.892715677

>  <MWHBN>
0.452244177

>  <MWHBN-cont>
0

>  <TPSA-cont>
0

>  <pka_cont>
0.97

>  <yes.1>


>  <BBB_SCORE>
2.377715677

>  <MMFF94 Energy>
-9.4302

$$$$
Compound 871
Actelion Java MolfileCreator 2.0

  0  0  0  0  0  0              0 V3000
M  V30 BEGIN CTAB
M  V30 COUNTS 51 54 0 0 0
M  V30 BEGIN ATOM
M  V30 1 Cl -2.8803 1.1513 1.7274 0
M  V30 2 C -2.8271 2.2343 3.0782 0
M  V30 3 C -1.968 2.0354 4.1707 0
M  V30 4 C -3.7088 3.321 3.0665 0
M  V30 5 C -1.0166 0.9325 4.226 0
M  V30 6 C -2.0249 2.9284 5.2538 0
M  V30 7 C -3.7468 4.2082 4.1431 0
M  V30 8 N -1.1221 -0.0147 5.1709 0
M  V30 9 C 0.094 0.6721 3.3684 0
M  V30 10 C -2.9085 4.0098 5.238 0
M  V30 11 O -0.1032 -0.91 4.9327 0
M  V30 12 C 0.6293 -0.4993 3.8652 0
M  V30 13 C 0.5706 1.4808 2.269 0
M  V30 14 C 1.7914 -1.3448 3.5288 0
M  V30 15 O 0.5307 2.7057 2.2876 0
M  V30 16 N 1.0629 0.7775 1.1947 0
M  V30 17 C 1.541 1.4671 -0.0362 0 CFG=2
M  V30 18 C 0.451 1.6718 -1.159 0
M  V30 19 C 2.2457 0.5743 -1.1048 0 CFG=2
M  V30 20 O -0.5709 2.2927 -1.319 0
M  V30 21 N 1.0627 0.7341 -1.9101 0
M  V30 22 S 2.4319 -1.1911 -0.7267 0
M  V30 23 C 0.7928 0.042 -3.0421 0
M  V30 24 C 2.5626 -1.6732 -2.483 0
M  V30 25 C 1.4909 -1.0689 -3.3692 0
M  V30 26 C -0.3193 0.5373 -3.8889 0
M  V30 27 C 1.2685 -1.8334 -4.6544 0
M  V30 28 O -0.2906 1.5362 -4.5832 0
M  V30 29 O -1.3905 -0.2702 -3.8176 0
M  V30 30 O 0.6644 -3.0862 -4.321 0
M  V30 31 C 0.3923 -3.8685 -5.3999 0
M  V30 32 O 0.6618 -3.5899 -6.5592 0
M  V30 33 C -0.2792 -5.1337 -4.9625 0
M  V30 34 H -4.3716 3.48 2.2192 0
M  V30 35 H -1.374 2.786 6.1147 0
M  V30 36 H -4.4328 5.0517 4.128 0
M  V30 37 H -2.9392 4.6977 6.0796 0
M  V30 38 H 2.1314 -1.9128 4.4007 0
M  V30 39 H 1.5282 -2.0565 2.7407 0
M  V30 40 H 2.6317 -0.736 3.1813 0
M  V30 41 H 0.9854 -0.2337 1.191 0
M  V30 42 H 2.1036 2.3787 0.1961 0
M  V30 43 H 3.1335 1.0406 -1.5485 0
M  V30 44 H 3.5519 -1.3906 -2.8589 0
M  V30 45 H 2.5017 -2.766 -2.5009 0
M  V30 46 H 0.6319 -1.2919 -5.3622 0
M  V30 47 H 2.2374 -2.0071 -5.1397 0
M  V30 48 H -2.0737 0.2015 -4.3387 0
M  V30 49 H 0.3886 -5.7009 -4.3093 0
M  V30 50 H -1.2139 -4.8983 -4.4471 0
M  V30 51 H -0.5108 -5.7433 -5.8407 0
M  V30 END ATOM
M  V30 BEGIN BOND
M  V30 1 1 1 2
M  V30 2 2 2 3
M  V30 3 1 2 4
M  V30 4 1 3 5
M  V30 5 1 3 6
M  V30 6 2 4 7
M  V30 7 2 5 8
M  V30 8 1 5 9
M  V30 9 2 6 10
M  V30 10 1 8 11
M  V30 11 2 9 12
M  V30 12 1 9 13
M  V30 13 1 12 14
M  V30 14 2 13 15
M  V30 15 1 13 16
M  V30 16 1 16 17
M  V30 17 1 17 18
M  V30 18 1 17 19
M  V30 19 2 18 20
M  V30 20 1 18 21
M  V30 21 1 19 22
M  V30 22 1 21 23
M  V30 23 1 22 24
M  V30 24 2 23 25
M  V30 25 1 23 26
M  V30 26 1 25 27
M  V30 27 2 26 28
M  V30 28 1 26 29
M  V30 29 1 27 30
M  V30 30 1 30 31
M  V30 31 2 31 32
M  V30 32 1 31 33
M  V30 33 1 7 10
M  V30 34 1 11 12
M  V30 35 1 19 21
M  V30 36 1 24 25
M  V30 37 1 4 34
M  V30 38 1 6 35
M  V30 39 1 7 36
M  V30 40 1 10 37
M  V30 41 1 14 38
M  V30 42 1 14 39
M  V30 43 1 14 40
M  V30 44 1 16 41
M  V30 45 1 17 42
M  V30 46 1 19 43
M  V30 47 1 24 44
M  V30 48 1 24 45
M  V30 49 1 27 46
M  V30 50 1 27 47
M  V30 51 1 29 48
M  V30 52 1 33 49
M  V30 53 1 33 50
M  V30 54 1 33 51
M  V30 END BOND
M  V30 BEGIN COLLECTION
M  V30 MDLV30/STEABS ATOMS=(2 17 19)
M  V30 END COLLECTION
M  V30 END CTAB
M  END
>  <Column 1>
1042

>  <level_0>
1179

>  <index>
1179

>  <Unnamed: 0>
1179

>  <NO.>
1191

>  <Name>
cefoxazole

>  <IUPAC_name>
(6r-7r)-3-(acetyloxymethyl)-7-[[3-(2-chlorophenyl)-5-methyl-1-2-oxazole-4-carbonyl]amino]-8-oxo-5-thia-1-azabicyclo[4.2.0]oct-2-ene-2-carboxylic acid

>  <SMILES>
CC(=O)OCC1=C(C(=O)O)N2C(=O)[C@@H](NC(=O)c3c(-c4ccccc4Cl)noc3C)[C@H]2SC1

>  <CID>
65798

>  <logBB>


>  <BBB+/BBB->
BBB-

>  <Inchi>
InChI=1S/C21H18ClN3O7S/c1-9-14(15(24-32-9)12-5-3-4-6-13(12)22)18(27)23-16-19(28)25-17(21(29)30)11(7-31-10(2)26)8-33-20(16)25/h3-6-16-20H-7-8H2-1-2H3-(H-23-27)(H-29-30)/t16--20-/m1/s1

>  <threshold>
-1

>  <reference>
R1|R6|R27|R27|R30|R30|

>  <group>
B

>  <Class>
-1

>  <ABC>
25.85

>  <ABCGG>
21.06

>  <nAcid>
1

>  <nBase>
0

>  <nAromAtom>
11

>  <nAromBond>
11

>  <nAtom>
51

>  <nHeavyAtom>
33

>  <nSpiro>
0

>  <nBridgehead>
0

>  <nHetero>
12

>  <nN>
3

>  <nO>
7

>  <nF>
0

>  <BalabanJ>
1.4

>  <BertzCT>
1208.22

>  <nBonds>
54

>  <nBondsO>
36

>  <nBondsS>
38

>  <nBondsD>
5

>  <nBondsT>
0

>  <nBondsA>
11

>  <nBondsM>
16

>  <nBondsKS>
44

>  <nBondsKD>
10

>  <RNCG>
0.14

>  <RPCG>
0.1

>  <FCSP3>
0.29

>  <SZ>
42.33

>  <Sm>
40.95

>  <Sv>
35.43

>  <Sse>
53.14

>  <Sp>
36.57

>  <Si>
57.15

>  <MZ>
0.83

>  <Mm>
0.8

>  <Mv>
0.69

>  <Mse>
1.04

>  <Mp>
0.72

>  <Mi>
1.12

>  <NsCH3>
2

>  <NdCH2>
0

>  <NssCH2>
2

>  <NtCH>
0

>  <NdsCH>
0

>  <NaaCH>
4

>  <NsssCH>
2

>  <NddC>
0

>  <NtsC>
0

>  <NdssC>
6

>  <NaasC>
5

>  <NaaaC>
0

>  <NssssC>
0

>  <NsNH3>
0

>  <NsNH2>
0

>  <NssNH2>
0

>  <NdNH>
0

>  <NssNH>
1

>  <NaaNH>
0

>  <NtN>
0

>  <NsssNH>
0

>  <NdsN>
0

>  <NaaN>
1

>  <NsssN>
1

>  <NddsN>
0

>  <NaasN>
0

>  <NssssN>
0

>  <NsOH>
1

>  <NdO>
4

>  <NssO>
1

>  <NaaO>
1

>  <NsF>
0

>  <NsSiH3>
0

>  <NssSiH2>
0

>  <NsssSiH>
0

>  <NssssSi>
0

>  <NsPH2>
0

>  <NssPH>
0

>  <NsssP>
0

>  <NdsssP>
0

>  <NsssssP>
0

>  <NsSH>
0

>  <NdS>
0

>  <NssS>
1

>  <NaaS>
0

>  <NdssS>
0

>  <NddssS>
0

>  <NsCl>
1

>  <NsBr>
0

>  <NsI>
0

>  <fragCpx>
240.12

>  <fMF>
0.41

>  <nHBAcc>
8

>  <nHBDon>
2

>  <Kier1>
26.07

>  <Kier2>
10.95

>  <Lipinski>
1

>  <GhoseFilter>
0

>  <FilterItLogS>
-4.35

>  <VMcGowan>
319.93

>  <LabuteASA>
196.42

>  <PEOE_VSA1>
19.68

>  <PEOE_VSA2>
19.28

>  <PEOE_VSA3>
4.79

>  <PEOE_VSA4>
0

>  <PEOE_VSA5>
11.76

>  <PEOE_VSA6>
34.96

>  <PEOE_VSA7>
12.99

>  <PEOE_VSA8>
23.81

>  <PEOE_VSA9>
5.02

>  <PEOE_VSA10>
40.74

>  <PEOE_VSA11>
0

>  <PEOE_VSA12>
0

>  <PEOE_VSA13>
11.81

>  <SMR_VSA1>
33.54

>  <SMR_VSA2>
0

>  <SMR_VSA3>
15.37

>  <SMR_VSA4>
0

>  <SMR_VSA5>
25.26

>  <SMR_VSA6>
12.36

>  <SMR_VSA7>
51.88

>  <SMR_VSA8>
0

>  <SMR_VSA9>
11.26

>  <SlogP_VSA1>
5.32

>  <SlogP_VSA2>
62.69

>  <SlogP_VSA3>
19.12

>  <SlogP_VSA4>
6.92

>  <SlogP_VSA5>
23.04

>  <SlogP_VSA6>
40.06

>  <SlogP_VSA7>
5.02

>  <SlogP_VSA8>
11.26

>  <SlogP_VSA9>
0

>  <SlogP_VSA10>
0

>  <SlogP_VSA11>
0

>  <EState_VSA1>
35.17

>  <EState_VSA2>
35.07

>  <EState_VSA3>
16.16

>  <EState_VSA4>
4.9

>  <EState_VSA5>
18.69

>  <EState_VSA6>
31.19

>  <EState_VSA7>
0

>  <EState_VSA8>
10.47

>  <EState_VSA9>
20.86

>  <EState_VSA10>
24.28

>  <VSA_EState1>
10.12

>  <VSA_EState2>
49.95

>  <VSA_EState3>
16.02

>  <VSA_EState4>
0.97

>  <VSA_EState5>
-2.56

>  <VSA_EState6>
5.89

>  <VSA_EState7>
0

>  <VSA_EState8>
2.56

>  <VSA_EState9>
0

>  <apol>
61.07

>  <bpol>
30.25

>  <nRing>
4

>  <nHRing>
3

>  <naRing>
2

>  <naHRing>
1

>  <nARing 2>
2

>  <nAHRing 2>
2

>  <nFRing>
1

>  <nFHRing>
1

>  <nFaRing>
0

>  <nFaHRing>
0

>  <nFARing 2>
1

>  <nFAHRing 2>
1

>  <nRot>
6

>  <SLogP>
2.22

>  <SMR>
117.33

>  <TopoPSA(NO)>
139.04

>  <TopoPSA>
164.34

>  <JGI1>
0.18

>  <JGI2>
0.09

>  <JGI3>
0.07

>  <JGI4>
0.04

>  <JGI5>
0.03

>  <Diameter>
16

>  <Radius>
8

>  <TMWC10>
148.57

>  <TSRW10>
83.88

>  <MW>
491.06

>  <AMW>
9.63

>  <WPath>
3297

>  <WPol>
55

>  <Zagreb1>
178

>  <Zagreb2>
216

>  <mZagreb2>
7.17

>  <yes>


>  <nAR-cont>
1

>  <nHA-cont>
0.61399562

>  <MWHBN>
0.451266111

>  <MWHBN-cont>
0

>  <TPSA-cont>
0

>  <pka_cont>
0.97

>  <yes.1>


>  <BBB_SCORE>
2.09899562

>  <MMFF94 Energy>
-15.502

$$$$
Compound 872
Actelion Java MolfileCreator 2.0

  0  0  0  0  0  0              0 V3000
M  V30 BEGIN CTAB
M  V30 COUNTS 66 68 0 0 0
M  V30 BEGIN ATOM
M  V30 1 O -2.874 0.4785 -2.2348 0
M  V30 2 C -2.116 1.4245 -2.0873 0
M  V30 3 O -0.7963 1.3237 -1.7713 0
M  V30 4 C -2.4806 2.8839 -2.2555 0
M  V30 5 C -0.2885 -0.008 -1.6318 0 CFG=1
M  V30 6 C -3.9264 3.2233 -1.8337 0
M  V30 7 C 1.1563 0.0423 -2.0708 0
M  V30 8 C -0.2081 -0.3952 -0.1681 0 CFG=1
M  V30 9 O -4.7909 2.5589 -2.7913 0
M  V30 10 C -4.1009 4.7467 -1.958 0
M  V30 11 C -4.1883 2.7648 -0.3906 0
M  V30 12 C 1.9875 -0.1678 -1.039 0
M  V30 13 O -0.9113 -1.5994 0.1789 0
M  V30 14 C 1.2386 -0.3257 0.2696 0 CFG=2
M  V30 15 C -1.3843 -0.3877 0.7821 0
M  V30 16 C -6.1428 2.603 -2.6676 0
M  V30 17 C 3.4207 -0.3269 -0.9992 0
M  V30 18 C 1.8222 -1.5399 1.002 0 CFG=1
M  V30 19 O -6.7707 3.2092 -1.8127 0
M  V30 20 C -6.7746 1.7914 -3.7574 0
M  V30 21 C 3.945 -0.8858 0.1078 0
M  V30 22 C 4.2349 0.164 -2.1747 0
M  V30 23 O 3.2497 -1.3784 1.1881 0
M  V30 24 O 1.202 -1.6138 2.2974 0
M  V30 25 O 5.6385 0.0103 -1.9276 0
M  V30 26 C 1.2054 -2.8528 2.8578 0
M  V30 27 C 6.4227 0.4381 -2.9525 0
M  V30 28 O 1.6568 -3.8659 2.3449 0
M  V30 29 C 0.5178 -2.7907 4.2046 0
M  V30 30 O 6.0184 0.9201 -4.0009 0
M  V30 31 C 7.8673 0.2351 -2.613 0
M  V30 32 C 0.8483 -3.9901 5.1059 0
M  V30 33 C 2.2972 -3.9381 5.5971 0
M  V30 34 C -0.1031 -4.0236 6.3034 0
M  V30 35 H -2.3198 3.1258 -3.3132 0
M  V30 36 H -1.7808 3.4828 -1.6583 0
M  V30 37 H -0.83 -0.7449 -2.2368 0
M  V30 38 H 1.44 0.1658 -3.1059 0
M  V30 39 H -3.3778 5.2845 -1.3352 0
M  V30 40 H -3.9727 5.0684 -2.9978 0
M  V30 41 H -5.1014 5.0699 -1.6542 0
M  V30 42 H -5.1176 3.1856 0.0065 0
M  V30 43 H -3.3819 3.0825 0.2793 0
M  V30 44 H -4.2916 1.6769 -0.3265 0
M  V30 45 H 1.3792 0.5806 0.875 0
M  V30 46 H -2.3423 -0.0136 0.4448 0
M  V30 47 H -1.1993 -0.2458 1.8397 0
M  V30 48 H 1.6423 -2.4588 0.4259 0
M  V30 49 H -6.5197 2.2166 -4.7313 0
M  V30 50 H -6.4379 0.7539 -3.6896 0
M  V30 51 H -7.8621 1.8118 -3.6409 0
M  V30 52 H 5.0086 -1.0084 0.278 0
M  V30 53 H 3.9668 -0.4146 -3.0673 0
M  V30 54 H 4.0194 1.2265 -2.3448 0
M  V30 55 H 0.8072 -1.8605 4.7086 0
M  V30 56 H -0.56 -2.7527 4.0068 0
M  V30 57 H 8.124 0.8159 -1.7234 0
M  V30 58 H 8.0638 -0.8273 -2.4495 0
M  V30 59 H 8.4871 0.5801 -3.4455 0
M  V30 60 H 0.7114 -4.9205 4.5407 0
M  V30 61 H 3.0028 -3.9599 4.7608 0
M  V30 62 H 2.488 -3.0282 6.1766 0
M  V30 63 H 2.519 -4.798 6.2382 0
M  V30 64 H -1.1435 -4.1064 5.9714 0
M  V30 65 H -0.0118 -3.1159 6.9099 0
M  V30 66 H 0.1104 -4.8841 6.9464 0
M  V30 END ATOM
M  V30 BEGIN BOND
M  V30 1 2 1 2
M  V30 2 1 2 3
M  V30 3 1 2 4
M  V30 4 1 3 5
M  V30 5 1 4 6
M  V30 6 1 5 7
M  V30 7 1 5 8
M  V30 8 1 6 9
M  V30 9 1 6 10
M  V30 10 1 6 11
M  V30 11 2 7 12
M  V30 12 1 8 13
M  V30 13 1 8 14
M  V30 14 1 8 15
M  V30 15 1 9 16
M  V30 16 1 12 17
M  V30 17 1 14 18
M  V30 18 2 16 19
M  V30 19 1 16 20
M  V30 20 2 17 21
M  V30 21 1 17 22
M  V30 22 1 18 23
M  V30 23 1 18 24
M  V30 24 1 22 25
M  V30 25 1 24 26
M  V30 26 1 25 27
M  V30 27 2 26 28
M  V30 28 1 26 29
M  V30 29 2 27 30
M  V30 30 1 27 31
M  V30 31 1 29 32
M  V30 32 1 32 33
M  V30 33 1 32 34
M  V30 34 1 12 14
M  V30 35 1 13 15
M  V30 36 1 21 23
M  V30 37 1 4 35
M  V30 38 1 4 36
M  V30 39 1 5 37
M  V30 40 1 7 38
M  V30 41 1 10 39
M  V30 42 1 10 40
M  V30 43 1 10 41
M  V30 44 1 11 42
M  V30 45 1 11 43
M  V30 46 1 11 44
M  V30 47 1 14 45
M  V30 48 1 15 46
M  V30 49 1 15 47
M  V30 50 1 18 48
M  V30 51 1 20 49
M  V30 52 1 20 50
M  V30 53 1 20 51
M  V30 54 1 21 52
M  V30 55 1 22 53
M  V30 56 1 22 54
M  V30 57 1 29 55
M  V30 58 1 29 56
M  V30 59 1 31 57
M  V30 60 1 31 58
M  V30 61 1 31 59
M  V30 62 1 32 60
M  V30 63 1 33 61
M  V30 64 1 33 62
M  V30 65 1 33 63
M  V30 66 1 34 64
M  V30 67 1 34 65
M  V30 68 1 34 66
M  V30 END BOND
M  V30 BEGIN COLLECTION
M  V30 MDLV30/STEABS ATOMS=(4 5 8 14 18)
M  V30 END COLLECTION
M  V30 END CTAB
M  END
>  <Column 1>
1044

>  <level_0>
1181

>  <index>
1181

>  <Unnamed: 0>
1181

>  <NO.>
1193

>  <Name>
acevaltrate

>  <IUPAC_name>
[(1s-6s-7r-7as)-4-(acetyloxymethyl)-1-(3-methylbutanoyloxy)spiro[6-7a-dihydro-1h-cyclopenta[c]pyran-7-2'-oxirane]-6-yl] 3-acetyloxy-3-methylbutanoate

>  <SMILES>
CC(=O)OCC1=CO[C@@H](OC(=O)CC(C)C)[C@H]2C1=C[C@H](OC(=O)CC(C)(C)OC(C)=O)[C@]21CO1

>  <CID>
65717

>  <logBB>


>  <BBB+/BBB->
BBB+

>  <Inchi>
InChI=1S/C24H32O10/c1-13(2)7-19(27)33-22-21-17(16(11-30-22)10-29-14(3)25)8-18(24(21)12-31-24)32-20(28)9-23(5-6)34-15(4)26/h8-11-13-18-21-22H-7-9-10-12H2-1-6H3/t18--21+-22--24+/m0/s1

>  <threshold>
-1

>  <reference>
R1|R27|R30|

>  <group>
B

>  <Class>
1

>  <ABC>
26.4

>  <ABCGG>
21.78

>  <nAcid>
0

>  <nBase>
0

>  <nAromAtom>
0

>  <nAromBond>
0

>  <nAtom>
66

>  <nHeavyAtom>
34

>  <nSpiro>
1

>  <nBridgehead>
0

>  <nHetero>
10

>  <nN>
0

>  <nO>
10

>  <nF>
0

>  <BalabanJ>
1.73

>  <BertzCT>
908.71

>  <nBonds>
68

>  <nBondsO>
36

>  <nBondsS>
62

>  <nBondsD>
6

>  <nBondsT>
0

>  <nBondsA>
0

>  <nBondsM>
6

>  <nBondsKS>
62

>  <nBondsKD>
6

>  <RNCG>
0.12

>  <RPCG>
0.08

>  <FCSP3>
0.67

>  <SZ>
42.67

>  <Sm>
40.01

>  <Sv>
39.82

>  <Sse>
67.51

>  <Sp>
41.58

>  <Si>
74.74

>  <MZ>
0.65

>  <Mm>
0.61

>  <Mv>
0.6

>  <Mse>
1.02

>  <Mp>
0.63

>  <Mi>
1.13

>  <NsCH3>
6

>  <NdCH2>
0

>  <NssCH2>
4

>  <NtCH>
0

>  <NdsCH>
2

>  <NaaCH>
0

>  <NsssCH>
4

>  <NddC>
0

>  <NtsC>
0

>  <NdssC>
6

>  <NaasC>
0

>  <NaaaC>
0

>  <NssssC>
2

>  <NsNH3>
0

>  <NsNH2>
0

>  <NssNH2>
0

>  <NdNH>
0

>  <NssNH>
0

>  <NaaNH>
0

>  <NtN>
0

>  <NsssNH>
0

>  <NdsN>
0

>  <NaaN>
0

>  <NsssN>
0

>  <NddsN>
0

>  <NaasN>
0

>  <NssssN>
0

>  <NsOH>
0

>  <NdO>
4

>  <NssO>
6

>  <NaaO>
0

>  <NsF>
0

>  <NsSiH3>
0

>  <NssSiH2>
0

>  <NsssSiH>
0

>  <NssssSi>
0

>  <NsPH2>
0

>  <NssPH>
0

>  <NsssP>
0

>  <NdsssP>
0

>  <NsssssP>
0

>  <NsSH>
0

>  <NdS>
0

>  <NssS>
0

>  <NaaS>
0

>  <NdssS>
0

>  <NddssS>
0

>  <NsCl>
0

>  <NsBr>
0

>  <NsI>
0

>  <fragCpx>
174.1

>  <fMF>
0.17

>  <nHBAcc>
10

>  <nHBDon>
0

>  <Kier1>
28.57

>  <Kier2>
11.59

>  <Lipinski>
1

>  <GhoseFilter>
0

>  <FilterItLogS>
-2.89

>  <VMcGowan>
349.34

>  <LabuteASA>
198.06

>  <PEOE_VSA1>
28.42

>  <PEOE_VSA2>
19.18

>  <PEOE_VSA3>
0

>  <PEOE_VSA4>
0

>  <PEOE_VSA5>
0

>  <PEOE_VSA6>
13.85

>  <PEOE_VSA7>
31.41

>  <PEOE_VSA8>
25.84

>  <PEOE_VSA9>
25.21

>  <PEOE_VSA10>
17.81

>  <PEOE_VSA11>
6.1

>  <PEOE_VSA12>
0

>  <PEOE_VSA13>
6.29

>  <SMR_VSA1>
47.6

>  <SMR_VSA2>
0

>  <SMR_VSA3>
0

>  <SMR_VSA4>
11.84

>  <SMR_VSA5>
77.98

>  <SMR_VSA6>
13.21

>  <SMR_VSA7>
23.48

>  <SMR_VSA8>
0

>  <SMR_VSA9>
0

>  <SlogP_VSA1>
0

>  <SlogP_VSA2>
60.69

>  <SlogP_VSA3>
47.6

>  <SlogP_VSA4>
11.84

>  <SlogP_VSA5>
54.38

>  <SlogP_VSA6>
23.48

>  <SlogP_VSA7>
0

>  <SlogP_VSA8>
0

>  <SlogP_VSA9>
0

>  <SlogP_VSA10>
0

>  <SlogP_VSA11>
0

>  <EState_VSA1>
53.39

>  <EState_VSA2>
31.97

>  <EState_VSA3>
11.15

>  <EState_VSA4>
0

>  <EState_VSA5>
20.11

>  <EState_VSA6>
19.92

>  <EState_VSA7>
13.85

>  <EState_VSA8>
0

>  <EState_VSA9>
28.42

>  <EState_VSA10>
19.18

>  <VSA_EState1>
33.16

>  <VSA_EState2>
47.7

>  <VSA_EState3>
0

>  <VSA_EState4>
-0.78

>  <VSA_EState5>
-2.44

>  <VSA_EState6>
0

>  <VSA_EState7>
1.39

>  <VSA_EState8>
9.8

>  <VSA_EState9>
0

>  <apol>
69.44

>  <bpol>
45.99

>  <nRing>
3

>  <nHRing>
2

>  <naRing>
0

>  <naHRing>
0

>  <nARing 2>
3

>  <nAHRing 2>
2

>  <nFRing>
1

>  <nFHRing>
1

>  <nFaRing>
0

>  <nFaHRing>
0

>  <nFARing 2>
1

>  <nFAHRing 2>
1

>  <nRot>
9

>  <SLogP>
2.35

>  <SMR>
115.73

>  <TopoPSA(NO)>
126.96

>  <TopoPSA>
126.96

>  <JGI1>
0.32

>  <JGI2>
0.07

>  <JGI3>
0.07

>  <JGI4>
0.03

>  <JGI5>
0.03

>  <Diameter>
15

>  <Radius>
8

>  <TMWC10>
149.65

>  <TSRW10>
91.29

>  <MW>
480.2

>  <AMW>
7.28

>  <WPath>
3546

>  <WPol>
52

>  <Zagreb1>
180

>  <Zagreb2>
211

>  <mZagreb2>
7.25

>  <yes>


>  <nAR-cont>
0.691115

>  <nHA-cont>
0.568589513

>  <MWHBN>
0.456340404

>  <MWHBN-cont>
0

>  <TPSA-cont>
0

>  <pka_cont>
0.97

>  <yes.1>


>  <BBB_SCORE>
1.744704513

>  <MMFF94 Energy>
6.3938

$$$$
Compound 873
Actelion Java MolfileCreator 2.0

  0  0  0  0  0  0              0 V3000
M  V30 BEGIN CTAB
M  V30 COUNTS 60 62 0 0 0
M  V30 BEGIN ATOM
M  V30 1 O -3.7487 -0.4779 3.1098 0
M  V30 2 C -2.6318 -0.2351 3.5458 0
M  V30 3 O -1.4548 -0.5541 2.9479 0
M  V30 4 C -2.383 0.478 4.8524 0
M  V30 5 C -1.596 -1.2639 1.7052 0 CFG=2
M  V30 6 C -1.8671 1.9081 4.6552 0
M  V30 7 O -1.7908 -2.6699 2.0041 0
M  V30 8 C -0.3115 -1.068 0.8891 0 CFG=1
M  V30 9 C -2.9149 2.7996 3.9855 0
M  V30 10 C -1.4566 2.5062 6.0015 0
M  V30 11 C -1.5559 -3.5411 0.9659 0
M  V30 12 C -0.4295 -1.9171 -0.3621 0
M  V30 13 C -0.0245 0.3118 0.3402 0 CFG=2
M  V30 14 C -0.9529 -3.25 -0.2009 0
M  V30 15 C -0.0795 -1.2393 -1.4652 0
M  V30 16 O -0.9516 1.3445 0.711 0
M  V30 17 C 0.2602 0.196 -1.1437 0 CFG=2
M  V30 18 C 0.3927 1.4903 1.1887 0
M  V30 19 C -0.7714 -4.2776 -1.2871 0
M  V30 20 O 1.6614 0.345 -1.397 0
M  V30 21 O -1.6452 -3.9518 -2.3746 0
M  V30 22 C 2.05 1.5586 -1.8715 0
M  V30 23 C -1.5466 -4.8018 -3.4298 0
M  V30 24 O 1.3139 2.5177 -2.0461 0
M  V30 25 C 3.5454 1.5505 -2.1025 0
M  V30 26 O -0.7933 -5.7623 -3.4986 0
M  V30 27 C -2.4981 -4.3904 -4.511 0
M  V30 28 C 4.018 2.6831 -3.0268 0
M  V30 29 C 5.5417 2.8062 -2.9678 0
M  V30 30 C 3.573 2.4478 -4.4725 0
M  V30 31 H -1.6697 -0.123 5.4298 0
M  V30 32 H -3.3187 0.4771 5.4251 0
M  V30 33 H -2.4665 -0.8968 1.1421 0
M  V30 34 H -0.9803 1.888 4.0115 0
M  V30 35 H 0.5578 -1.4037 1.4712 0
M  V30 36 H -3.1673 2.4318 2.9858 0
M  V30 37 H -3.8369 2.8419 4.5753 0
M  V30 38 H -2.5387 3.8222 3.8732 0
M  V30 39 H -0.6756 1.901 6.4739 0
M  V30 40 H -2.3074 2.5595 6.6895 0
M  V30 41 H -1.0608 3.5193 5.873 0
M  V30 42 H -1.9331 -4.5247 1.2222 0
M  V30 43 H -0.1033 -1.6163 -2.477 0
M  V30 44 H -0.3659 0.8642 -1.7469 0
M  V30 45 H 0.9871 2.2811 0.749 0
M  V30 46 H 0.5791 1.3272 2.2425 0
M  V30 47 H 0.2719 -4.2832 -1.6271 0
M  V30 48 H -1.0204 -5.2797 -0.9156 0
M  V30 49 H 4.0171 1.646 -1.1173 0
M  V30 50 H 3.8334 0.5821 -2.529 0
M  V30 51 H -3.5238 -4.4251 -4.1352 0
M  V30 52 H -2.2496 -3.385 -4.8602 0
M  V30 53 H -2.4118 -5.0834 -5.3527 0
M  V30 54 H 3.5896 3.6347 -2.6872 0
M  V30 55 H 5.8754 3.0201 -1.9469 0
M  V30 56 H 6.0286 1.882 -3.2974 0
M  V30 57 H 5.8915 3.6215 -3.61 0
M  V30 58 H 2.4823 2.4021 -4.5515 0
M  V30 59 H 3.9799 1.51 -4.8659 0
M  V30 60 H 3.9166 3.2618 -5.1199 0
M  V30 END ATOM
M  V30 BEGIN BOND
M  V30 1 2 1 2
M  V30 2 1 2 3
M  V30 3 1 2 4
M  V30 4 1 3 5
M  V30 5 1 4 6
M  V30 6 1 5 7
M  V30 7 1 5 8
M  V30 8 1 6 9
M  V30 9 1 6 10
M  V30 10 1 7 11
M  V30 11 1 8 12
M  V30 12 1 8 13
M  V30 13 2 11 14
M  V30 14 2 12 15
M  V30 15 1 13 16
M  V30 16 1 13 17
M  V30 17 1 13 18
M  V30 18 1 14 19
M  V30 19 1 17 20
M  V30 20 1 19 21
M  V30 21 1 20 22
M  V30 22 1 21 23
M  V30 23 2 22 24
M  V30 24 1 22 25
M  V30 25 2 23 26
M  V30 26 1 23 27
M  V30 27 1 25 28
M  V30 28 1 28 29
M  V30 29 1 28 30
M  V30 30 1 12 14
M  V30 31 1 15 17
M  V30 32 1 16 18
M  V30 33 1 4 31
M  V30 34 1 4 32
M  V30 35 1 5 33
M  V30 36 1 6 34
M  V30 37 1 8 35
M  V30 38 1 9 36
M  V30 39 1 9 37
M  V30 40 1 9 38
M  V30 41 1 10 39
M  V30 42 1 10 40
M  V30 43 1 10 41
M  V30 44 1 11 42
M  V30 45 1 15 43
M  V30 46 1 17 44
M  V30 47 1 18 45
M  V30 48 1 18 46
M  V30 49 1 19 47
M  V30 50 1 19 48
M  V30 51 1 25 49
M  V30 52 1 25 50
M  V30 53 1 27 51
M  V30 54 1 27 52
M  V30 55 1 27 53
M  V30 56 1 28 54
M  V30 57 1 29 55
M  V30 58 1 29 56
M  V30 59 1 29 57
M  V30 60 1 30 58
M  V30 61 1 30 59
M  V30 62 1 30 60
M  V30 END BOND
M  V30 BEGIN COLLECTION
M  V30 MDLV30/STEABS ATOMS=(4 5 8 13 17)
M  V30 END COLLECTION
M  V30 END CTAB
M  END
>  <Column 1>
1045

>  <level_0>
1182

>  <index>
1182

>  <Unnamed: 0>
1182

>  <NO.>
1194

>  <Name>
valtrate

>  <IUPAC_name>
[(1s-6s-7r-7as)-4-(acetyloxymethyl)-1-(3-methylbutanoyloxy)spiro[6-7a-dihydro-1h-cyclopenta[c]pyran-7-2'-oxirane]-6-yl] 3-methylbutanoate

>  <SMILES>
CC(=O)OCC1=CO[C@@H](OC(=O)CC(C)C)[C@H]2C1=C[C@H](OC(=O)CC(C)C)[C@]21CO1

>  <CID>
442436

>  <logBB>


>  <BBB+/BBB->
BBB+

>  <Inchi>
InChI=1S/C22H30O8/c1-12(2)6-18(24)29-17-8-16-15(9-26-14(5)23)10-27-21(20(16)22(17)11-28-22)30-19(25)7-13(3)4/h8-10-12-13-17-20-21H-6-7-9-11H2-1-5H3/t17--20+-21--22+/m0/s1

>  <threshold>
-1

>  <reference>
R1|R6|R27|R30|

>  <group>
B

>  <Class>
1

>  <ABC>
23.26

>  <ABCGG>
19.31

>  <nAcid>
0

>  <nBase>
0

>  <nAromAtom>
0

>  <nAromBond>
0

>  <nAtom>
60

>  <nHeavyAtom>
30

>  <nSpiro>
1

>  <nBridgehead>
0

>  <nHetero>
8

>  <nN>
0

>  <nO>
8

>  <nF>
0

>  <BalabanJ>
1.74

>  <BertzCT>
759.1

>  <nBonds>
62

>  <nBondsO>
32

>  <nBondsS>
57

>  <nBondsD>
5

>  <nBondsT>
0

>  <nBondsA>
0

>  <nBondsM>
5

>  <nBondsKS>
57

>  <nBondsKD>
5

>  <RNCG>
0.14

>  <RPCG>
0.09

>  <FCSP3>
0.68

>  <SZ>
37.67

>  <Sm>
35.17

>  <Sv>
35.85

>  <Sse>
60.96

>  <Sp>
37.82

>  <Si>
67.9

>  <MZ>
0.63

>  <Mm>
0.59

>  <Mv>
0.6

>  <Mse>
1.02

>  <Mp>
0.63

>  <Mi>
1.13

>  <NsCH3>
5

>  <NdCH2>
0

>  <NssCH2>
4

>  <NtCH>
0

>  <NdsCH>
2

>  <NaaCH>
0

>  <NsssCH>
5

>  <NddC>
0

>  <NtsC>
0

>  <NdssC>
5

>  <NaasC>
0

>  <NaaaC>
0

>  <NssssC>
1

>  <NsNH3>
0

>  <NsNH2>
0

>  <NssNH2>
0

>  <NdNH>
0

>  <NssNH>
0

>  <NaaNH>
0

>  <NtN>
0

>  <NsssNH>
0

>  <NdsN>
0

>  <NaaN>
0

>  <NsssN>
0

>  <NddsN>
0

>  <NaasN>
0

>  <NssssN>
0

>  <NsOH>
0

>  <NdO>
3

>  <NssO>
5

>  <NaaO>
0

>  <NsF>
0

>  <NsSiH3>
0

>  <NssSiH2>
0

>  <NsssSiH>
0

>  <NssssSi>
0

>  <NsPH2>
0

>  <NssPH>
0

>  <NsssP>
0

>  <NdsssP>
0

>  <NsssssP>
0

>  <NsSH>
0

>  <NdS>
0

>  <NssS>
0

>  <NaaS>
0

>  <NdssS>
0

>  <NddssS>
0

>  <NsCl>
0

>  <NsBr>
0

>  <NsI>
0

>  <fragCpx>
154.08

>  <fMF>
0.18

>  <nHBAcc>
8

>  <nHBDon>
0

>  <Kier1>
24.64

>  <Kier2>
10.29

>  <Lipinski>
1

>  <GhoseFilter>
1

>  <FilterItLogS>
-2.87

>  <VMcGowan>
313.72

>  <LabuteASA>
176.06

>  <PEOE_VSA1>
23.68

>  <PEOE_VSA2>
14.38

>  <PEOE_VSA3>
0

>  <PEOE_VSA4>
0

>  <PEOE_VSA5>
0

>  <PEOE_VSA6>
27.69

>  <PEOE_VSA7>
23.48

>  <PEOE_VSA8>
25.34

>  <PEOE_VSA9>
18.79

>  <PEOE_VSA10>
12.21

>  <PEOE_VSA11>
6.1

>  <PEOE_VSA12>
0

>  <PEOE_VSA13>
6.29

>  <SMR_VSA1>
38.07

>  <SMR_VSA2>
0

>  <SMR_VSA3>
0

>  <SMR_VSA4>
17.75

>  <SMR_VSA5>
65.46

>  <SMR_VSA6>
13.21

>  <SMR_VSA7>
23.48

>  <SMR_VSA8>
0

>  <SMR_VSA9>
0

>  <SlogP_VSA1>
0

>  <SlogP_VSA2>
49.12

>  <SlogP_VSA3>
38.07

>  <SlogP_VSA4>
17.75

>  <SlogP_VSA5>
47.46

>  <SlogP_VSA6>
23.48

>  <SlogP_VSA7>
0

>  <SlogP_VSA8>
0

>  <SlogP_VSA9>
0

>  <SlogP_VSA10>
0

>  <SlogP_VSA11>
0

>  <EState_VSA1>
29.88

>  <EState_VSA2>
36.8

>  <EState_VSA3>
18.6

>  <EState_VSA4>
5.57

>  <EState_VSA5>
13.19

>  <EState_VSA6>
6.08

>  <EState_VSA7>
27.69

>  <EState_VSA8>
0

>  <EState_VSA9>
23.68

>  <EState_VSA10>
14.38

>  <VSA_EState1>
27.95

>  <VSA_EState2>
35.85

>  <VSA_EState3>
0

>  <VSA_EState4>
0.55

>  <VSA_EState5>
-1.28

>  <VSA_EState6>
0

>  <VSA_EState7>
2.26

>  <VSA_EState8>
9.41

>  <VSA_EState9>
0

>  <apol>
63.16

>  <bpol>
41.38

>  <nRing>
3

>  <nHRing>
2

>  <naRing>
0

>  <naHRing>
0

>  <nARing 2>
3

>  <nAHRing 2>
2

>  <nFRing>
1

>  <nFHRing>
1

>  <nFaRing>
0

>  <nFaHRing>
0

>  <nFARing 2>
1

>  <nFAHRing 2>
1

>  <nRot>
8

>  <SLogP>
2.66

>  <SMR>
104.73

>  <TopoPSA(NO)>
100.66

>  <TopoPSA>
100.66

>  <JGI1>
0.28

>  <JGI2>
0.07

>  <JGI3>
0.06

>  <JGI4>
0.04

>  <JGI5>
0.03

>  <Diameter>
13

>  <Radius>
7

>  <TMWC10>
140.67

>  <TSRW10>
86.64

>  <MW>
422.19

>  <AMW>
7.04

>  <WPath>
2467

>  <WPol>
46

>  <Zagreb1>
158

>  <Zagreb2>
187

>  <mZagreb2>
6.5

>  <yes>


>  <nAR-cont>
0.691115

>  <nHA-cont>
0.74523694

>  <MWHBN>
0.389346268

>  <MWHBN-cont>
0.51803927

>  <TPSA-cont>
0.297330694

>  <pka_cont>
0.97

>  <yes.1>


>  <BBB_SCORE>
3.293072233

>  <MMFF94 Energy>
11.417

$$$$
Compound 874
Actelion Java MolfileCreator 2.0

  0  0  0  0  0  0              0 V3000
M  V30 BEGIN CTAB
M  V30 COUNTS 58 61 0 0 0
M  V30 BEGIN ATOM
M  V30 1 Cl -0.4054 -4.4664 -5.6871 0
M  V30 2 C -1.1785 -3.0446 -5.1006 0
M  V30 3 C -1.6893 -3.0194 -3.8011 0
M  V30 4 C -1.2945 -1.9351 -5.9249 0
M  V30 5 C -2.3238 -1.8728 -3.2821 0
M  V30 6 C -1.9437 -0.7996 -5.4471 0
M  V30 7 N -2.8253 -1.8532 -1.9523 0
M  V30 8 C -2.4701 -0.766 -4.1433 0
M  V30 9 C -3.8206 -0.9542 -1.4822 0
M  V30 10 C -1.9234 -2.4126 -0.914 0
M  V30 11 S -3.2869 0.7399 -3.6571 0
M  V30 12 C -4.1145 0.245 -2.1597 0
M  V30 13 C -4.5827 -1.2498 -0.3333 0
M  V30 14 C -0.8034 -1.421 -0.5636 0
M  V30 15 C -5.0853 1.1297 -1.6573 0
M  V30 16 C -5.554 -0.3709 0.156 0
M  V30 17 C 0.0836 -1.9813 0.5542 0
M  V30 18 C -5.7988 0.8259 -0.5011 0
M  V30 19 N 1.2624 -1.1451 0.8288 0
M  V30 20 C 0.9021 0.1614 1.4175 0
M  V30 21 C 2.1774 -1.8442 1.7558 0
M  V30 22 C 2.139 1.0122 1.7992 0
M  V30 23 C 3.4191 -0.9964 2.1078 0
M  V30 24 N 3.0621 0.3057 2.7105 0
M  V30 25 C 4.2885 1.085 2.9834 0
M  V30 26 C 4.0586 2.3979 3.7513 0
M  V30 27 O 3.6954 3.4424 2.8347 0
M  V30 28 C 3.4606 4.6448 3.4253 0
M  V30 29 O 3.5574 4.8819 4.6208 0
M  V30 30 C 3.0657 5.6536 2.3909 0
M  V30 31 H -1.6142 -3.9253 -3.2083 0
M  V30 32 H -0.8976 -1.9485 -6.9359 0
M  V30 33 H -2.0446 0.0634 -6.1024 0
M  V30 34 H -1.4816 -3.363 -1.2302 0
M  V30 35 H -2.4657 -2.6758 -3.0E-4 0
M  V30 36 H -4.4607 -2.1954 0.1866 0
M  V30 37 H -1.2488 -0.4687 -0.2549 0
M  V30 38 H -0.1935 -1.2175 -1.4524 0
M  V30 39 H -5.2973 2.0629 -2.175 0
M  V30 40 H -6.1239 -0.6316 1.0443 0
M  V30 41 H -0.5117 -2.1271 1.465 0
M  V30 42 H 0.4272 -2.9745 0.2369 0
M  V30 43 H -6.5523 1.5141 -0.1275 0
M  V30 44 H 0.3175 0.7483 0.7009 0
M  V30 45 H 0.2794 0.0191 2.3112 0
M  V30 46 H 1.6535 -2.1163 2.6823 0
M  V30 47 H 2.5248 -2.7752 1.2917 0
M  V30 48 H 2.661 1.3136 0.8812 0
M  V30 49 H 1.7626 1.9207 2.2813 0
M  V30 50 H 4.0208 -0.8494 1.2005 0
M  V30 51 H 4.0303 -1.5697 2.8155 0
M  V30 52 H 4.8277 1.291 2.0499 0
M  V30 53 H 4.9391 0.4648 3.613 0
M  V30 54 H 3.2804 2.2708 4.5137 0
M  V30 55 H 4.9959 2.683 4.2444 0
M  V30 56 H 3.8814 5.7909 1.6768 0
M  V30 57 H 2.1574 5.3243 1.8799 0
M  V30 58 H 2.8626 6.6118 2.8779 0
M  V30 END ATOM
M  V30 BEGIN BOND
M  V30 1 1 1 2
M  V30 2 2 2 3
M  V30 3 1 2 4
M  V30 4 1 3 5
M  V30 5 2 4 6
M  V30 6 1 5 7
M  V30 7 2 5 8
M  V30 8 1 7 9
M  V30 9 1 7 10
M  V30 10 1 8 11
M  V30 11 2 9 12
M  V30 12 1 9 13
M  V30 13 1 10 14
M  V30 14 1 12 15
M  V30 15 2 13 16
M  V30 16 1 14 17
M  V30 17 2 15 18
M  V30 18 1 17 19
M  V30 19 1 19 20
M  V30 20 1 19 21
M  V30 21 1 20 22
M  V30 22 1 21 23
M  V30 23 1 22 24
M  V30 24 1 24 25
M  V30 25 1 25 26
M  V30 26 1 26 27
M  V30 27 1 27 28
M  V30 28 2 28 29
M  V30 29 1 28 30
M  V30 30 1 6 8
M  V30 31 1 11 12
M  V30 32 1 16 18
M  V30 33 1 23 24
M  V30 34 1 3 31
M  V30 35 1 4 32
M  V30 36 1 6 33
M  V30 37 1 10 34
M  V30 38 1 10 35
M  V30 39 1 13 36
M  V30 40 1 14 37
M  V30 41 1 14 38
M  V30 42 1 15 39
M  V30 43 1 16 40
M  V30 44 1 17 41
M  V30 45 1 17 42
M  V30 46 1 18 43
M  V30 47 1 20 44
M  V30 48 1 20 45
M  V30 49 1 21 46
M  V30 50 1 21 47
M  V30 51 1 22 48
M  V30 52 1 22 49
M  V30 53 1 23 50
M  V30 54 1 23 51
M  V30 55 1 25 52
M  V30 56 1 25 53
M  V30 57 1 26 54
M  V30 58 1 26 55
M  V30 59 1 30 56
M  V30 60 1 30 57
M  V30 61 1 30 58
M  V30 END BOND
M  V30 END CTAB
M  END
>  <Column 1>
1046

>  <level_0>
1183

>  <index>
1183

>  <Unnamed: 0>
1183

>  <NO.>
1195

>  <Name>
thiopropazate

>  <IUPAC_name>
2-[4-[3-(2-chlorophenothiazin-10-yl)propyl]piperazin-1-yl]ethyl acetate

>  <SMILES>
CC(=O)OCCN1CCN(CCCN2c3ccccc3Sc3ccc(Cl)cc32)CC1

>  <CID>
6762

>  <logBB>


>  <BBB+/BBB->
BBB+

>  <Inchi>
InChI=1S/C23H28ClN3O2S/c1-18(28)29-16-15-26-13-11-25(12-14-26)9-4-10-27-20-5-2-3-6-22(20)30-23-8-7-19(24)17-21(23)27/h2-3-5-8-17H-4-9-16H2-1H3

>  <threshold>
-1

>  <reference>
R1|R13|R19|R6|R14|R23|R24|R27|R27|R27|R30|R30|

>  <group>
B

>  <Class>
-1

>  <ABC>
23.5

>  <ABCGG>
16.43

>  <nAcid>
0

>  <nBase>
2

>  <nAromAtom>
12

>  <nAromBond>
12

>  <nAtom>
58

>  <nHeavyAtom>
30

>  <nSpiro>
0

>  <nBridgehead>
0

>  <nHetero>
7

>  <nN>
3

>  <nO>
2

>  <nF>
0

>  <BalabanJ>
1.22

>  <BertzCT>
886.5

>  <nBonds>
61

>  <nBondsO>
33

>  <nBondsS>
48

>  <nBondsD>
1

>  <nBondsT>
0

>  <nBondsA>
12

>  <nBondsM>
13

>  <nBondsKS>
54

>  <nBondsKD>
7

>  <RNCG>
0.22

>  <RPCG>
0.14

>  <FCSP3>
0.43

>  <SZ>
39.33

>  <Sm>
37.13

>  <Sv>
36.57

>  <Sse>
57.92

>  <Sp>
40.16

>  <Si>
65.18

>  <MZ>
0.68

>  <Mm>
0.64

>  <Mv>
0.63

>  <Mse>
1

>  <Mp>
0.69

>  <Mi>
1.12

>  <NsCH3>
1

>  <NdCH2>
0

>  <NssCH2>
9

>  <NtCH>
0

>  <NdsCH>
0

>  <NaaCH>
7

>  <NsssCH>
0

>  <NddC>
0

>  <NtsC>
0

>  <NdssC>
1

>  <NaasC>
5

>  <NaaaC>
0

>  <NssssC>
0

>  <NsNH3>
0

>  <NsNH2>
0

>  <NssNH2>
0

>  <NdNH>
0

>  <NssNH>
0

>  <NaaNH>
0

>  <NtN>
0

>  <NsssNH>
0

>  <NdsN>
0

>  <NaaN>
0

>  <NsssN>
3

>  <NddsN>
0

>  <NaasN>
0

>  <NssssN>
0

>  <NsOH>
0

>  <NdO>
1

>  <NssO>
1

>  <NaaO>
0

>  <NsF>
0

>  <NsSiH3>
0

>  <NssSiH2>
0

>  <NsssSiH>
0

>  <NssssSi>
0

>  <NsPH2>
0

>  <NssPH>
0

>  <NsssP>
0

>  <NdsssP>
0

>  <NsssssP>
0

>  <NsSH>
0

>  <NdS>
0

>  <NssS>
1

>  <NaaS>
0

>  <NdssS>
0

>  <NddssS>
0

>  <NsCl>
1

>  <NsBr>
0

>  <NsI>
0

>  <fragCpx>
219.07

>  <fMF>
0.4

>  <nHBAcc>
6

>  <nHBDon>
0

>  <Kier1>
23.17

>  <Kier2>
11.23

>  <Lipinski>
1

>  <GhoseFilter>
1

>  <FilterItLogS>
-5.67

>  <VMcGowan>
331.66

>  <LabuteASA>
187.47

>  <PEOE_VSA1>
14.54

>  <PEOE_VSA2>
9.69

>  <PEOE_VSA3>
0

>  <PEOE_VSA4>
0

>  <PEOE_VSA5>
0

>  <PEOE_VSA6>
35.5

>  <PEOE_VSA7>
43.3

>  <PEOE_VSA8>
61.01

>  <PEOE_VSA9>
11.37

>  <PEOE_VSA10>
6.61

>  <PEOE_VSA11>
0

>  <PEOE_VSA12>
0

>  <PEOE_VSA13>
0

>  <SMR_VSA1>
9.53

>  <SMR_VSA2>
0

>  <SMR_VSA3>
9.8

>  <SMR_VSA4>
0

>  <SMR_VSA5>
23.14

>  <SMR_VSA6>
57.32

>  <SMR_VSA7>
47.49

>  <SMR_VSA8>
0

>  <SMR_VSA9>
0

>  <SlogP_VSA1>
4.9

>  <SlogP_VSA2>
68.19

>  <SlogP_VSA3>
9.53

>  <SlogP_VSA4>
0

>  <SlogP_VSA5>
13.34

>  <SlogP_VSA6>
52.26

>  <SlogP_VSA7>
5.02

>  <SlogP_VSA8>
0

>  <SlogP_VSA9>
0

>  <SlogP_VSA10>
11.37

>  <SlogP_VSA11>
0

>  <EState_VSA1>
0

>  <EState_VSA2>
5.97

>  <EState_VSA3>
6.61

>  <EState_VSA4>
57.26

>  <EState_VSA5>
28.09

>  <EState_VSA6>
0

>  <EState_VSA7>
17.83

>  <EState_VSA8>
51.1

>  <EState_VSA9>
16.34

>  <EState_VSA10>
4.79

>  <VSA_EState1>
5.06

>  <VSA_EState2>
20.78

>  <VSA_EState3>
0.78

>  <VSA_EState4>
2.48

>  <VSA_EState5>
-0.2

>  <VSA_EState6>
14.79

>  <VSA_EState7>
1.1

>  <VSA_EState8>
9.02

>  <VSA_EState9>
0

>  <apol>
67.06

>  <bpol>
38.79

>  <nRing>
4

>  <nHRing>
2

>  <naRing>
2

>  <naHRing>
0

>  <nARing 2>
2

>  <nAHRing 2>
2

>  <nFRing>
1

>  <nFHRing>
1

>  <nFaRing>
0

>  <nFaHRing>
0

>  <nFARing 2>
1

>  <nFAHRing 2>
1

>  <nRot>
7

>  <SLogP>
4.51

>  <SMR>
123.15

>  <TopoPSA(NO)>
36.02

>  <TopoPSA>
61.32

>  <JGI1>
0.17

>  <JGI2>
0.06

>  <JGI3>
0.03

>  <JGI4>
0.04

>  <JGI5>
0.02

>  <Diameter>
16

>  <Radius>
8

>  <TMWC10>
139.71

>  <TSRW10>
65.63

>  <MW>
445.16

>  <AMW>
7.68

>  <WPath>
2862

>  <WPol>
46

>  <Zagreb1>
156

>  <Zagreb2>
181

>  <mZagreb2>
6.61

>  <yes>


>  <nAR-cont>
1

>  <nHA-cont>
0.74523694

>  <MWHBN>
0.284376159

>  <MWHBN-cont>
0.884765991

>  <TPSA-cont>
0.571948323

>  <pka_cont>
0.97

>  <yes.1>


>  <BBB_SCORE>
4.701282571

>  <MMFF94 Energy>
135.49

$$$$
Compound 875
Actelion Java MolfileCreator 2.0

  0  0  0  0  0  0              0 V3000
M  V30 BEGIN CTAB
M  V30 COUNTS 50 52 0 0 0
M  V30 BEGIN ATOM
M  V30 1 S -1.7845 -2.9214 0.7297 0
M  V30 2 C -2.0362 -1.7523 2.1612 0
M  V30 3 C -0.9792 -1.6668 -0.3483 0
M  V30 4 C -1.2538 -0.4593 1.8321 0
M  V30 5 C -3.5445 -1.4619 2.2461 0
M  V30 6 C -1.5976 -2.4633 3.4461 0
M  V30 7 N -1.1421 -0.4173 0.3887 0
M  V30 8 C -1.8819 -1.058 -1.4617 0
M  V30 9 C 0.1531 -0.4093 2.4307 0
M  V30 10 C -2.0357 0.1313 -0.4681 0
M  V30 11 N -1.21 -0.7022 -2.7414 0
M  V30 12 O 1.1585 -0.8848 1.9196 0
M  V30 13 O 0.1125 0.2115 3.6415 0
M  V30 14 O -2.7117 1.1281 -0.3765 0
M  V30 15 C -0.5809 -1.6496 -3.5165 0
M  V30 16 C 1.3785 0.3589 4.2888 0
M  V30 17 O -0.56 -2.8386 -3.2109 0
M  V30 18 C 0.0408 -1.1242 -4.7981 0
M  V30 19 O 2.057 1.5378 3.8532 0
M  V30 20 C 0.9989 0.022 -4.5751 0
M  V30 21 C 1.6806 2.6763 4.4893 0
M  V30 22 C 0.7448 1.2832 -5.1316 0
M  V30 23 C 2.1554 -0.1615 -3.8036 0
M  V30 24 O 0.8531 2.7539 5.3856 0
M  V30 25 C 2.4344 3.8456 3.9332 0
M  V30 26 C 1.6252 2.3429 -4.9088 0
M  V30 27 C 3.0327 0.9003 -3.5819 0
M  V30 28 C 2.7668 2.1521 -4.1328 0
M  V30 29 H 0.0622 -1.874 -0.6091 0
M  V30 30 H -1.7976 0.4367 2.1562 0
M  V30 31 H -3.7551 -0.7703 3.0704 0
M  V30 32 H -3.9343 -1.0031 1.3311 0
M  V30 33 H -4.1236 -2.3739 2.4338 0
M  V30 34 H -1.7131 -1.803 4.3133 0
M  V30 35 H -0.5513 -2.7861 3.4085 0
M  V30 36 H -2.2059 -3.3551 3.6399 0
M  V30 37 H -2.8274 -1.5789 -1.6498 0
M  V30 38 H -1.1564 0.2706 -3.0278 0
M  V30 39 H 1.2105 0.3708 5.3724 0
M  V30 40 H 2.0305 -0.5024 4.102 0
M  V30 41 H -0.7762 -0.8252 -5.4655 0
M  V30 42 H 0.5761 -1.9429 -5.2933 0
M  V30 43 H -0.1373 1.4522 -5.7454 0
M  V30 44 H 2.3806 -1.1337 -3.3677 0
M  V30 45 H 3.5061 3.7069 4.0954 0
M  V30 46 H 2.2166 3.9541 2.8678 0
M  V30 47 H 2.119 4.758 4.4474 0
M  V30 48 H 1.4228 3.3186 -5.3435 0
M  V30 49 H 3.9254 0.7496 -2.98 0
M  V30 50 H 3.4524 2.9778 -3.9611 0
M  V30 END ATOM
M  V30 BEGIN BOND
M  V30 1 1 1 2
M  V30 2 1 1 3
M  V30 3 1 2 4
M  V30 4 1 2 5
M  V30 5 1 2 6
M  V30 6 1 3 7
M  V30 7 1 3 8
M  V30 8 1 4 9
M  V30 9 1 7 10
M  V30 10 1 8 11
M  V30 11 2 9 12
M  V30 12 1 9 13
M  V30 13 2 10 14
M  V30 14 1 11 15
M  V30 15 1 13 16
M  V30 16 2 15 17
M  V30 17 1 15 18
M  V30 18 1 16 19
M  V30 19 1 18 20
M  V30 20 1 19 21
M  V30 21 2 20 22
M  V30 22 1 20 23
M  V30 23 2 21 24
M  V30 24 1 21 25
M  V30 25 1 22 26
M  V30 26 2 23 27
M  V30 27 2 26 28
M  V30 28 1 4 7
M  V30 29 1 8 10
M  V30 30 1 27 28
M  V30 31 1 3 29
M  V30 32 1 4 30
M  V30 33 1 5 31
M  V30 34 1 5 32
M  V30 35 1 5 33
M  V30 36 1 6 34
M  V30 37 1 6 35
M  V30 38 1 6 36
M  V30 39 1 8 37
M  V30 40 1 11 38
M  V30 41 1 16 39
M  V30 42 1 16 40
M  V30 43 1 18 41
M  V30 44 1 18 42
M  V30 45 1 22 43
M  V30 46 1 23 44
M  V30 47 1 25 45
M  V30 48 1 25 46
M  V30 49 1 25 47
M  V30 50 1 26 48
M  V30 51 1 27 49
M  V30 52 1 28 50
M  V30 END BOND
M  V30 END CTAB
M  END
>  <Column 1>
1047

>  <level_0>
1184

>  <index>
1184

>  <Unnamed: 0>
1184

>  <NO.>
1196

>  <Name>
schembl33896

>  <IUPAC_name>
acetyloxymethyl 3-3-dimethyl-7-oxo-6-[(2-phenylacetyl)amino]-4-thia-1-azabicyclo[3.2.0]heptane-2-carboxylate

>  <SMILES>
CC(=O)OCOC(=O)C1N2C(=O)C(NC(=O)Cc3ccccc3)C2SC1(C)C

>  <CID>
13795

>  <logBB>


>  <BBB+/BBB->
BBB-

>  <Inchi>
InChI=1S/C19H22N2O6S/c1-11(22)26-10-27-18(25)15-19(2-3)28-17-14(16(24)21(15)17)20-13(23)9-12-7-5-4-6-8-12/h4-8-14-15-17H-9-10H2-1-3H3-(H-20-23)

>  <threshold>
-1

>  <reference>
R1|R19|R27|R27|R30|

>  <group>
B

>  <Class>
1

>  <ABC>
21.77

>  <ABCGG>
17.8

>  <nAcid>
0

>  <nBase>
0

>  <nAromAtom>
6

>  <nAromBond>
6

>  <nAtom>
50

>  <nHeavyAtom>
28

>  <nSpiro>
0

>  <nBridgehead>
0

>  <nHetero>
9

>  <nN>
2

>  <nO>
6

>  <nF>
0

>  <BalabanJ>
1.53

>  <BertzCT>
796.87

>  <nBonds>
52

>  <nBondsO>
30

>  <nBondsS>
42

>  <nBondsD>
4

>  <nBondsT>
0

>  <nBondsA>
6

>  <nBondsM>
10

>  <nBondsKS>
45

>  <nBondsKD>
7

>  <RNCG>
0.14

>  <RPCG>
0.11

>  <FCSP3>
0.47

>  <SZ>
35.67

>  <Sm>
33.84

>  <Sv>
31.95

>  <Sse>
51.15

>  <Sp>
33.72

>  <Si>
56.33

>  <MZ>
0.71

>  <Mm>
0.68

>  <Mv>
0.64

>  <Mse>
1.02

>  <Mp>
0.67

>  <Mi>
1.13

>  <NsCH3>
3

>  <NdCH2>
0

>  <NssCH2>
2

>  <NtCH>
0

>  <NdsCH>
0

>  <NaaCH>
5

>  <NsssCH>
3

>  <NddC>
0

>  <NtsC>
0

>  <NdssC>
4

>  <NaasC>
1

>  <NaaaC>
0

>  <NssssC>
1

>  <NsNH3>
0

>  <NsNH2>
0

>  <NssNH2>
0

>  <NdNH>
0

>  <NssNH>
1

>  <NaaNH>
0

>  <NtN>
0

>  <NsssNH>
0

>  <NdsN>
0

>  <NaaN>
0

>  <NsssN>
1

>  <NddsN>
0

>  <NaasN>
0

>  <NssssN>
0

>  <NsOH>
0

>  <NdO>
4

>  <NssO>
2

>  <NaaO>
0

>  <NsF>
0

>  <NsSiH3>
0

>  <NssSiH2>
0

>  <NsssSiH>
0

>  <NssssSi>
0

>  <NsPH2>
0

>  <NssPH>
0

>  <NsssP>
0

>  <NdsssP>
0

>  <NsssssP>
0

>  <NsSH>
0

>  <NdS>
0

>  <NssS>
1

>  <NaaS>
0

>  <NdssS>
0

>  <NddssS>
0

>  <NsCl>
0

>  <NsBr>
0

>  <NsI>
0

>  <fragCpx>
144.09

>  <fMF>
0.32

>  <nHBAcc>
7

>  <nHBDon>
1

>  <Kier1>
22.68

>  <Kier2>
9.43

>  <Lipinski>
1

>  <GhoseFilter>
1

>  <FilterItLogS>
-2.92

>  <VMcGowan>
287.42

>  <LabuteASA>
166.47

>  <PEOE_VSA1>
19.69

>  <PEOE_VSA2>
14.38

>  <PEOE_VSA3>
4.79

>  <PEOE_VSA4>
0

>  <PEOE_VSA5>
11.76

>  <PEOE_VSA6>
30.33

>  <PEOE_VSA7>
19.41

>  <PEOE_VSA8>
11.67

>  <PEOE_VSA9>
6.42

>  <PEOE_VSA10>
17.46

>  <PEOE_VSA11>
0

>  <PEOE_VSA12>
18.61

>  <PEOE_VSA13>
0

>  <SMR_VSA1>
28.65

>  <SMR_VSA2>
0

>  <SMR_VSA3>
10.22

>  <SMR_VSA4>
0

>  <SMR_VSA5>
49.4

>  <SMR_VSA6>
6.79

>  <SMR_VSA7>
35.9

>  <SMR_VSA8>
0

>  <SMR_VSA9>
0

>  <SlogP_VSA1>
5.32

>  <SlogP_VSA2>
57.65

>  <SlogP_VSA3>
35.07

>  <SlogP_VSA4>
0

>  <SlogP_VSA5>
26.33

>  <SlogP_VSA6>
30.33

>  <SlogP_VSA7>
0

>  <SlogP_VSA8>
0

>  <SlogP_VSA9>
0

>  <SlogP_VSA10>
0

>  <SlogP_VSA11>
0

>  <EState_VSA1>
35.56

>  <EState_VSA2>
23.61

>  <EState_VSA3>
0

>  <EState_VSA4>
5.56

>  <EState_VSA5>
23.59

>  <EState_VSA6>
0

>  <EState_VSA7>
44.18

>  <EState_VSA8>
10.05

>  <EState_VSA9>
4.74

>  <EState_VSA10>
19.18

>  <VSA_EState1>
9.02

>  <VSA_EState2>
49.61

>  <VSA_EState3>
2.43

>  <VSA_EState4>
0.86

>  <VSA_EState5>
-1.77

>  <VSA_EState6>
7.76

>  <VSA_EState7>
0.18

>  <VSA_EState8>
4.39

>  <VSA_EState9>
0

>  <apol>
56.31

>  <bpol>
33.75

>  <nRing>
3

>  <nHRing>
2

>  <naRing>
1

>  <naHRing>
0

>  <nARing 2>
2

>  <nAHRing 2>
2

>  <nFRing>
1

>  <nFHRing>
1

>  <nFaRing>
0

>  <nFaHRing>
0

>  <nFARing 2>
1

>  <nFAHRing 2>
1

>  <nRot>
6

>  <SLogP>
0.84

>  <SMR>
100.89

>  <TopoPSA(NO)>
102.01

>  <TopoPSA>
127.31

>  <JGI1>
0.23

>  <JGI2>
0.08

>  <JGI3>
0.09

>  <JGI4>
0.06

>  <JGI5>
0.03

>  <Diameter>
16

>  <Radius>
8

>  <TMWC10>
135.75

>  <TSRW10>
78.83

>  <MW>
406.12

>  <AMW>
8.12

>  <WPath>
2252

>  <WPol>
41

>  <Zagreb1>
148

>  <Zagreb2>
175

>  <mZagreb2>
6.04

>  <yes>


>  <nAR-cont>
1

>  <nHA-cont>
0.82432561

>  <MWHBN>
0.396974672

>  <MWHBN-cont>
0.487974374

>  <TPSA-cont>
0

>  <pka_cont>
0.97

>  <yes.1>


>  <BBB_SCORE>
3.041287171

>  <MMFF94 Energy>
32.013

$$$$
Compound 876
Actelion Java MolfileCreator 2.0

  0  0  0  0  0  0              0 V3000
M  V30 BEGIN CTAB
M  V30 COUNTS 62 65 0 0 0
M  V30 BEGIN ATOM
M  V30 1 F 2.2629 0.8885 0.0 0
M  V30 2 C 1.4215 1.1767 1.0661 0 CFG=2
M  V30 3 C 2.2441 2.129 2.0292 0 CFG=2
M  V30 4 C 1.0444 -0.219 1.6565 0 CFG=1
M  V30 5 C 0.1851 1.907 0.442 0 CFG=2
M  V30 6 C 2.5762 3.4135 1.2455 0
M  V30 7 C 3.5224 1.4429 2.5117 0
M  V30 8 C 1.4783 2.5444 3.307 0
M  V30 9 O 0.3813 -0.1203 2.913 0
M  V30 10 C 0.1983 -1.085 0.6931 0
M  V30 11 C -0.5145 0.9541 -0.539 0 CFG=1
M  V30 12 C 0.6117 3.2021 -0.2746 0
M  V30 13 C 3.8274 3.8667 1.0499 0
M  V30 14 C 1.4008 4.1352 0.6376 0
M  V30 15 C 4.7665 1.8983 2.313 0
M  V30 16 C -1.0319 -0.3484 0.1206 0 CFG=1
M  V30 17 C -1.7244 1.4602 -1.3175 0
M  V30 18 C 5.0079 3.1534 1.5775 0
M  V30 19 C -1.7149 -1.0201 -1.1228 0 CFG=1
M  V30 20 C -2.0663 -0.0793 1.2461 0
M  V30 21 C -2.4178 0.1794 -1.8244 0
M  V30 22 O 6.1414 3.5865 1.4122 0
M  V30 23 O -0.6927 -1.4779 -2.0108 0
M  V30 24 C -2.75 -2.1344 -0.7905 0
M  V30 25 O -3.808 -1.8803 -0.2033 0
M  V30 26 C -2.4644 -3.5729 -1.2294 0 CFG=1
M  V30 27 O -2.2548 -3.5817 -2.6514 0
M  V30 28 C -1.2762 -4.1635 -0.4847 0
M  V30 29 C -2.4936 -4.7713 -3.2707 0
M  V30 30 O -2.8571 -5.7986 -2.719 0
M  V30 31 C -2.2407 -4.6412 -4.7414 0
M  V30 32 H 1.97 -0.778 1.8373 0
M  V30 33 H -0.5145 2.1913 1.2341 0
M  V30 34 H 3.407 0.5253 3.0844 0
M  V30 35 H 1.4243 1.7354 4.0434 0
M  V30 36 H 1.9794 3.3804 3.8133 0
M  V30 37 H 0.4536 2.8665 3.0997 0
M  V30 38 H 0.2306 -1.024 3.2433 0
M  V30 39 H -0.1307 -1.994 1.2099 0
M  V30 40 H 0.8576 -1.4057 -0.1224 0
M  V30 41 H 0.2407 0.6905 -1.2968 0
M  V30 42 H 1.2178 2.9584 -1.1572 0
M  V30 43 H -0.2728 3.7376 -0.6392 0
M  V30 44 H 4.0461 4.7647 0.4834 0
M  V30 45 H 0.7522 4.5222 1.4321 0
M  V30 46 H 1.7254 5.007 0.0565 0
M  V30 47 H 5.6431 1.3825 2.6853 0
M  V30 48 H -2.403 2.0348 -0.6769 0
M  V30 49 H -1.4337 2.106 -2.1525 0
M  V30 50 H -1.7091 0.6198 2.0042 0
M  V30 51 H -3.0002 0.3465 0.8655 0
M  V30 52 H -2.3174 -1.0091 1.7691 0
M  V30 53 H -2.3235 0.114 -2.9148 0
M  V30 54 H -3.4877 0.2373 -1.5957 0
M  V30 55 H -1.1211 -1.7806 -2.833 0
M  V30 56 H -3.3683 -4.1482 -0.9875 0
M  V30 57 H -0.3319 -3.7111 -0.8012 0
M  V30 58 H -1.3816 -4.0314 0.5966 0
M  V30 59 H -1.1845 -5.2351 -0.6895 0
M  V30 60 H -2.9093 -3.8888 -5.1672 0
M  V30 61 H -1.1961 -4.3706 -4.9148 0
M  V30 62 H -2.4387 -5.5998 -5.2294 0
M  V30 END ATOM
M  V30 BEGIN BOND
M  V30 1 1 1 2
M  V30 2 1 2 3
M  V30 3 1 2 4
M  V30 4 1 2 5
M  V30 5 1 3 6
M  V30 6 1 3 7
M  V30 7 1 3 8
M  V30 8 1 4 9
M  V30 9 1 4 10
M  V30 10 1 5 11
M  V30 11 1 5 12
M  V30 12 2 6 13
M  V30 13 1 6 14
M  V30 14 2 7 15
M  V30 15 1 10 16
M  V30 16 1 11 17
M  V30 17 1 13 18
M  V30 18 1 16 19
M  V30 19 1 16 20
M  V30 20 1 17 21
M  V30 21 2 18 22
M  V30 22 1 19 23
M  V30 23 1 19 24
M  V30 24 2 24 25
M  V30 25 1 24 26
M  V30 26 1 26 27
M  V30 27 1 26 28
M  V30 28 1 27 29
M  V30 29 2 29 30
M  V30 30 1 29 31
M  V30 31 1 11 16
M  V30 32 1 12 14
M  V30 33 1 15 18
M  V30 34 1 19 21
M  V30 35 1 4 32
M  V30 36 1 5 33
M  V30 37 1 7 34
M  V30 38 1 8 35
M  V30 39 1 8 36
M  V30 40 1 8 37
M  V30 41 1 9 38
M  V30 42 1 10 39
M  V30 43 1 10 40
M  V30 44 1 11 41
M  V30 45 1 12 42
M  V30 46 1 12 43
M  V30 47 1 13 44
M  V30 48 1 14 45
M  V30 49 1 14 46
M  V30 50 1 15 47
M  V30 51 1 17 48
M  V30 52 1 17 49
M  V30 53 1 20 50
M  V30 54 1 20 51
M  V30 55 1 20 52
M  V30 56 1 21 53
M  V30 57 1 21 54
M  V30 58 1 23 55
M  V30 59 1 26 56
M  V30 60 1 28 57
M  V30 61 1 28 58
M  V30 62 1 28 59
M  V30 63 1 31 60
M  V30 64 1 31 61
M  V30 65 1 31 62
M  V30 END BOND
M  V30 BEGIN COLLECTION
M  V30 MDLV30/STEABS ATOMS=(8 2 3 4 5 11 16 19 26)
M  V30 END COLLECTION
M  V30 END CTAB
M  END
>  <Column 1>
1048

>  <level_0>
1185

>  <index>
1185

>  <Unnamed: 0>
1185

>  <NO.>
1197

>  <Name>
fluperolone acetate

>  <IUPAC_name>
[(2s)-1-[(8s-9r-10s-11s-13s-14s-17r)-9-fluoro-11-17-dihydroxy-10-13-dimethyl-3-oxo-6-7-8-11-12-14-15-16-octahydrocyclopenta[a]phenanthren-17-yl]-1-oxopropan-2-yl] acetate

>  <SMILES>
CC(=O)O[C@@H](C)C(=O)[C@@]1(O)CC[C@H]2[C@@H]3CCC4=CC(=O)C=C[C@]4(C)[C@@]3(F)[C@@H](O)C[C@@]21C

>  <CID>
66257

>  <logBB>


>  <BBB+/BBB->
BBB+

>  <Inchi>
InChI=1S/C24H31FO6/c1-13(31-14(2)26)20(29)23(30)10-8-17-18-6-5-15-11-16(27)7-9-21(15-3)24(18-25)19(28)12-22(17-23)4/h7-9-11-13-17-19-28-30H-5-6-8-10-12H2-1-4H3/t13--17--18--19--21--22--23--24-/m0/s1

>  <threshold>
-1

>  <reference>
R1|R6|R27|R30|

>  <group>
B

>  <Class>
-1

>  <ABC>
24.76

>  <ABCGG>
20.55

>  <nAcid>
0

>  <nBase>
0

>  <nAromAtom>
0

>  <nAromBond>
0

>  <nAtom>
62

>  <nHeavyAtom>
31

>  <nSpiro>
0

>  <nBridgehead>
0

>  <nHetero>
7

>  <nN>
0

>  <nO>
6

>  <nF>
1

>  <BalabanJ>
1.67

>  <BertzCT>
909.75

>  <nBonds>
65

>  <nBondsO>
34

>  <nBondsS>
60

>  <nBondsD>
5

>  <nBondsT>
0

>  <nBondsA>
0

>  <nBondsM>
5

>  <nBondsKS>
60

>  <nBondsKD>
5

>  <RNCG>
0.17

>  <RPCG>
0.11

>  <FCSP3>
0.71

>  <SZ>
38.67

>  <Sm>
36.18

>  <Sv>
37.33

>  <Sse>
62.7

>  <Sp>
39.59

>  <Si>
70.24

>  <MZ>
0.62

>  <Mm>
0.58

>  <Mv>
0.6

>  <Mse>
1.01

>  <Mp>
0.64

>  <Mi>
1.13

>  <NsCH3>
4

>  <NdCH2>
0

>  <NssCH2>
5

>  <NtCH>
0

>  <NdsCH>
3

>  <NaaCH>
0

>  <NsssCH>
4

>  <NddC>
0

>  <NtsC>
0

>  <NdssC>
4

>  <NaasC>
0

>  <NaaaC>
0

>  <NssssC>
4

>  <NsNH3>
0

>  <NsNH2>
0

>  <NssNH2>
0

>  <NdNH>
0

>  <NssNH>
0

>  <NaaNH>
0

>  <NtN>
0

>  <NsssNH>
0

>  <NdsN>
0

>  <NaaN>
0

>  <NsssN>
0

>  <NddsN>
0

>  <NaasN>
0

>  <NssssN>
0

>  <NsOH>
2

>  <NdO>
3

>  <NssO>
1

>  <NaaO>
0

>  <NsF>
1

>  <NsSiH3>
0

>  <NssSiH2>
0

>  <NsssSiH>
0

>  <NssssSi>
0

>  <NsPH2>
0

>  <NssPH>
0

>  <NsssP>
0

>  <NdsssP>
0

>  <NsssssP>
0

>  <NsSH>
0

>  <NdS>
0

>  <NssS>
0

>  <NaaS>
0

>  <NdssS>
0

>  <NddssS>
0

>  <NsCl>
0

>  <NsBr>
0

>  <NsI>
0

>  <fragCpx>
226.07

>  <fMF>
0.27

>  <nHBAcc>
6

>  <nHBDon>
2

>  <Kier1>
24.13

>  <Kier2>
7.77

>  <Lipinski>
1

>  <GhoseFilter>
1

>  <FilterItLogS>
-3.29

>  <VMcGowan>
321.06

>  <LabuteASA>
181.08

>  <PEOE_VSA1>
14.95

>  <PEOE_VSA2>
14.38

>  <PEOE_VSA3>
4.39

>  <PEOE_VSA4>
0

>  <PEOE_VSA5>
0

>  <PEOE_VSA6>
18.57

>  <PEOE_VSA7>
64.02

>  <PEOE_VSA8>
23.67

>  <PEOE_VSA9>
6.1

>  <PEOE_VSA10>
5.6

>  <PEOE_VSA11>
17.56

>  <PEOE_VSA12>
5.78

>  <PEOE_VSA13>
0

>  <SMR_VSA1>
33.72

>  <SMR_VSA2>
0

>  <SMR_VSA3>
0

>  <SMR_VSA4>
22.67

>  <SMR_VSA5>
83.28

>  <SMR_VSA6>
0

>  <SMR_VSA7>
23.8

>  <SMR_VSA8>
0

>  <SMR_VSA9>
0

>  <SlogP_VSA1>
0

>  <SlogP_VSA2>
51.23

>  <SlogP_VSA3>
19.12

>  <SlogP_VSA4>
22.67

>  <SlogP_VSA5>
59.8

>  <SlogP_VSA6>
23.8

>  <SlogP_VSA7>
0

>  <SlogP_VSA8>
0

>  <SlogP_VSA9>
0

>  <SlogP_VSA10>
4.39

>  <SlogP_VSA11>
0

>  <EState_VSA1>
51.98

>  <EState_VSA2>
24.54

>  <EState_VSA3>
24.84

>  <EState_VSA4>
0

>  <EState_VSA5>
26

>  <EState_VSA6>
19.92

>  <EState_VSA7>
0

>  <EState_VSA8>
0

>  <EState_VSA9>
4.74

>  <EState_VSA10>
24.6

>  <VSA_EState1>
21.99

>  <VSA_EState2>
36.39

>  <VSA_EState3>
22.79

>  <VSA_EState4>
-5.29

>  <VSA_EState5>
-2.3

>  <VSA_EState6>
0

>  <VSA_EState7>
3.31

>  <VSA_EState8>
6.11

>  <VSA_EState9>
0

>  <apol>
66.12

>  <bpol>
36.55

>  <nRing>
4

>  <nHRing>
0

>  <naRing>
0

>  <naHRing>
0

>  <nARing 2>
4

>  <nAHRing 2>
0

>  <nFRing>
1

>  <nFHRing>
0

>  <nFaRing>
0

>  <nFaHRing>
0

>  <nFARing 2>
1

>  <nFAHRing 2>
0

>  <nRot>
3

>  <SLogP>
2.61

>  <SMR>
109.54

>  <TopoPSA(NO)>
100.9

>  <TopoPSA>
100.9

>  <JGI1>
0.32

>  <JGI2>
0.16

>  <JGI3>
0.08

>  <JGI4>
0.06

>  <JGI5>
0.04

>  <Diameter>
14

>  <Radius>
7

>  <TMWC10>
146.91

>  <TSRW10>
83.08

>  <MW>
434.21

>  <AMW>
7

>  <WPath>
2357

>  <WPol>
72

>  <Zagreb1>
182

>  <Zagreb2>
234

>  <mZagreb2>
6.39

>  <yes>


>  <nAR-cont>
0.199399

>  <nHA-cont>
0.702745138

>  <MWHBN>
0.383919416

>  <MWHBN-cont>
0.539406772

>  <TPSA-cont>
0.295655345

>  <pka_cont>
0.97

>  <yes.1>


>  <BBB_SCORE>
2.787564985

>  <MMFF94 Energy>
154.71

$$$$
Compound 877
Actelion Java MolfileCreator 2.0

  0  0  0  0  0  0              0 V3000
M  V30 BEGIN CTAB
M  V30 COUNTS 62 64 0 0 0
M  V30 BEGIN ATOM
M  V30 1 O 4.545 0.6369 -0.1592 0
M  V30 2 C 3.4377 1.0973 -0.3978 0
M  V30 3 O 2.2499 0.5272 -0.0756 0
M  V30 4 C 3.2102 2.4133 -1.1014 0
M  V30 5 C 2.3325 -0.7796 0.5287 0 CFG=2
M  V30 6 C 2.6122 3.4804 -0.1757 0
M  V30 7 O 2.4282 -1.7889 -0.4856 0
M  V30 8 C 1.1107 -0.9352 1.4371 0 CFG=2
M  V30 9 C 3.6004 3.8912 0.918 0
M  V30 10 C 2.1963 4.7061 -0.9903 0
M  V30 11 C 1.2606 -2.1553 -1.0883 0
M  V30 12 C 1.1067 -2.1308 2.3676 0 CFG=2
M  V30 13 C -0.1955 -1.0871 0.6138 0 CFG=1
M  V30 14 C 0.0211 -1.8597 -0.6694 0
M  V30 15 O 2.1783 -3.0728 2.1955 0
M  V30 16 C -0.2644 -2.7513 2.3859 0 CFG=2
M  V30 17 C 2.1636 -2.3581 3.4327 0
M  V30 18 C -1.1494 -1.7624 1.6126 0
M  V30 19 C -1.1817 -2.269 -1.4813 0
M  V30 20 O -0.7742 -3.0524 3.6998 0
M  V30 21 O -1.9906 -1.1088 -1.6949 0
M  V30 22 C -0.8474 -2.0653 4.6313 0
M  V30 23 C -3.1231 -1.3508 -2.4069 0
M  V30 24 O -0.4904 -0.9058 4.4795 0
M  V30 25 C -1.4266 -2.6084 5.9019 0
M  V30 26 O -3.475 -2.4458 -2.8231 0
M  V30 27 C -3.907 -0.0767 -2.6041 0
M  V30 28 C -3.1812 0.9283 -3.5076 0
M  V30 29 C -3.0725 0.4136 -4.9445 0
M  V30 30 C -3.9119 2.2717 -3.4884 0
M  V30 31 H 2.5526 2.2201 -1.9581 0
M  V30 32 H 4.1679 2.7507 -1.5162 0
M  V30 33 H 3.2377 -0.8474 1.1437 0
M  V30 34 H 1.7151 3.0795 0.3127 0
M  V30 35 H 1.0137 -0.0368 2.063 0
M  V30 36 H 3.8597 3.0408 1.5568 0
M  V30 37 H 4.5263 4.2888 0.4888 0
M  V30 38 H 3.1669 4.6651 1.5609 0
M  V30 39 H 1.4558 4.4347 -1.7502 0
M  V30 40 H 3.0556 5.1562 -1.4991 0
M  V30 41 H 1.747 5.4685 -0.3449 0
M  V30 42 H 1.4769 -2.7412 -1.9748 0
M  V30 43 H -0.5794 -0.0946 0.3448 0
M  V30 44 H -0.2368 -3.7022 1.8399 0
M  V30 45 H 2.9175 -1.596 3.5881 0
M  V30 46 H 1.9137 -2.9194 4.3238 0
M  V30 47 H -2.0043 -2.2696 1.1556 0
M  V30 48 H -1.5787 -1.0002 2.2723 0
M  V30 49 H -0.8774 -2.6774 -2.4531 0
M  V30 50 H -1.7524 -3.0349 -0.9441 0
M  V30 51 H -2.427 -3.0064 5.7134 0
M  V30 52 H -0.7721 -3.3853 6.3048 0
M  V30 53 H -1.5069 -1.8025 6.6373 0
M  V30 54 H -4.0978 0.35 -1.6117 0
M  V30 55 H -4.8863 -0.3383 -3.0235 0
M  V30 56 H -2.1642 1.0919 -3.1294 0
M  V30 57 H -2.4944 -0.5149 -4.9895 0
M  V30 58 H -4.0616 0.2192 -5.3733 0
M  V30 59 H -2.5668 1.1473 -5.5815 0
M  V30 60 H -3.96 2.6736 -2.4707 0
M  V30 61 H -4.9365 2.173 -3.8632 0
M  V30 62 H -3.3921 3.0065 -4.1124 0
M  V30 END ATOM
M  V30 BEGIN BOND
M  V30 1 2 1 2
M  V30 2 1 2 3
M  V30 3 1 2 4
M  V30 4 1 3 5
M  V30 5 1 4 6
M  V30 6 1 5 7
M  V30 7 1 5 8
M  V30 8 1 6 9
M  V30 9 1 6 10
M  V30 10 1 7 11
M  V30 11 1 8 12
M  V30 12 1 8 13
M  V30 13 2 11 14
M  V30 14 1 12 15
M  V30 15 1 12 16
M  V30 16 1 12 17
M  V30 17 1 13 18
M  V30 18 1 14 19
M  V30 19 1 16 20
M  V30 20 1 19 21
M  V30 21 1 20 22
M  V30 22 1 21 23
M  V30 23 2 22 24
M  V30 24 1 22 25
M  V30 25 2 23 26
M  V30 26 1 23 27
M  V30 27 1 27 28
M  V30 28 1 28 29
M  V30 29 1 28 30
M  V30 30 1 13 14
M  V30 31 1 15 17
M  V30 32 1 16 18
M  V30 33 1 4 31
M  V30 34 1 4 32
M  V30 35 1 5 33
M  V30 36 1 6 34
M  V30 37 1 8 35
M  V30 38 1 9 36
M  V30 39 1 9 37
M  V30 40 1 9 38
M  V30 41 1 10 39
M  V30 42 1 10 40
M  V30 43 1 10 41
M  V30 44 1 11 42
M  V30 45 1 13 43
M  V30 46 1 16 44
M  V30 47 1 17 45
M  V30 48 1 17 46
M  V30 49 1 18 47
M  V30 50 1 18 48
M  V30 51 1 19 49
M  V30 52 1 19 50
M  V30 53 1 25 51
M  V30 54 1 25 52
M  V30 55 1 25 53
M  V30 56 1 27 54
M  V30 57 1 27 55
M  V30 58 1 28 56
M  V30 59 1 29 57
M  V30 60 1 29 58
M  V30 61 1 29 59
M  V30 62 1 30 60
M  V30 63 1 30 61
M  V30 64 1 30 62
M  V30 END BOND
M  V30 BEGIN COLLECTION
M  V30 MDLV30/STEABS ATOMS=(5 5 8 12 13 16)
M  V30 END COLLECTION
M  V30 END CTAB
M  END
>  <Column 1>
1050

>  <level_0>
1188

>  <index>
1188

>  <Unnamed: 0>
1188

>  <NO.>
1200

>  <Name>
didrovaltrate

>  <IUPAC_name>
[(1s-4as-6s-7r-7as)-6-acetyloxy-1-(3-methylbutanoyloxy)spiro[4a-5-6-7a-tetrahydro-1h-cyclopenta[c]pyran-7-2'-oxirane]-4-yl]methyl 3-methylbutanoate

>  <SMILES>
CC(=O)O[C@H]1C[C@@H]2C(COC(=O)CC(C)C)=CO[C@@H](OC(=O)CC(C)C)[C@@H]2[C@@]12CO2

>  <CID>
65689

>  <logBB>


>  <BBB+/BBB->
BBB+

>  <Inchi>
InChI=1S/C22H32O8/c1-12(2)6-18(24)26-9-15-10-27-21(30-19(25)7-13(3)4)20-16(15)8-17(29-14(5)23)22(20)11-28-22/h10-12-13-16-17-20-21H-6-9-11H2-1-5H3/t16--17+-20--21+-22-/m1/s1

>  <threshold>
-1

>  <reference>
R1|R27|R30|

>  <group>
B

>  <Class>
-1

>  <ABC>
23.26

>  <ABCGG>
19.25

>  <nAcid>
0

>  <nBase>
0

>  <nAromAtom>
0

>  <nAromBond>
0

>  <nAtom>
62

>  <nHeavyAtom>
30

>  <nSpiro>
1

>  <nBridgehead>
0

>  <nHetero>
8

>  <nN>
0

>  <nO>
8

>  <nF>
0

>  <BalabanJ>
1.71

>  <BertzCT>
705.93

>  <nBonds>
64

>  <nBondsO>
32

>  <nBondsS>
60

>  <nBondsD>
4

>  <nBondsT>
0

>  <nBondsA>
0

>  <nBondsM>
4

>  <nBondsKS>
60

>  <nBondsKD>
4

>  <RNCG>
0.14

>  <RPCG>
0.09

>  <FCSP3>
0.77

>  <SZ>
38

>  <Sm>
35.34

>  <Sv>
36.39

>  <Sse>
62.85

>  <Sp>
38.62

>  <Si>
70.32

>  <MZ>
0.61

>  <Mm>
0.57

>  <Mv>
0.59

>  <Mse>
1.01

>  <Mp>
0.62

>  <Mi>
1.13

>  <NsCH3>
5

>  <NdCH2>
0

>  <NssCH2>
5

>  <NtCH>
0

>  <NdsCH>
1

>  <NaaCH>
0

>  <NsssCH>
6

>  <NddC>
0

>  <NtsC>
0

>  <NdssC>
4

>  <NaasC>
0

>  <NaaaC>
0

>  <NssssC>
1

>  <NsNH3>
0

>  <NsNH2>
0

>  <NssNH2>
0

>  <NdNH>
0

>  <NssNH>
0

>  <NaaNH>
0

>  <NtN>
0

>  <NsssNH>
0

>  <NdsN>
0

>  <NaaN>
0

>  <NsssN>
0

>  <NddsN>
0

>  <NaasN>
0

>  <NssssN>
0

>  <NsOH>
0

>  <NdO>
3

>  <NssO>
5

>  <NaaO>
0

>  <NsF>
0

>  <NsSiH3>
0

>  <NssSiH2>
0

>  <NsssSiH>
0

>  <NssssSi>
0

>  <NsPH2>
0

>  <NssPH>
0

>  <NsssP>
0

>  <NdsssP>
0

>  <NsssssP>
0

>  <NsSH>
0

>  <NdS>
0

>  <NssS>
0

>  <NaaS>
0

>  <NdssS>
0

>  <NddssS>
0

>  <NsCl>
0

>  <NsBr>
0

>  <NsI>
0

>  <fragCpx>
154.08

>  <fMF>
0.18

>  <nHBAcc>
8

>  <nHBDon>
0

>  <Kier1>
24.64

>  <Kier2>
10.29

>  <Lipinski>
1

>  <GhoseFilter>
1

>  <FilterItLogS>
-2.88

>  <VMcGowan>
318.02

>  <LabuteASA>
176.75

>  <PEOE_VSA1>
23.68

>  <PEOE_VSA2>
14.38

>  <PEOE_VSA3>
0

>  <PEOE_VSA4>
0

>  <PEOE_VSA5>
0

>  <PEOE_VSA6>
27.69

>  <PEOE_VSA7>
18.26

>  <PEOE_VSA8>
31.26

>  <PEOE_VSA9>
18.79

>  <PEOE_VSA10>
18.31

>  <PEOE_VSA11>
0

>  <PEOE_VSA12>
6.29

>  <PEOE_VSA13>
0

>  <SMR_VSA1>
38.07

>  <SMR_VSA2>
0

>  <SMR_VSA3>
0

>  <SMR_VSA4>
23.67

>  <SMR_VSA5>
71.88

>  <SMR_VSA6>
13.21

>  <SMR_VSA7>
11.84

>  <SMR_VSA8>
0

>  <SMR_VSA9>
0

>  <SlogP_VSA1>
0

>  <SlogP_VSA2>
49.12

>  <SlogP_VSA3>
38.07

>  <SlogP_VSA4>
23.67

>  <SlogP_VSA5>
53.88

>  <SlogP_VSA6>
11.84

>  <SlogP_VSA7>
0

>  <SlogP_VSA8>
0

>  <SlogP_VSA9>
0

>  <SlogP_VSA10>
0

>  <SlogP_VSA11>
0

>  <EState_VSA1>
23.96

>  <EState_VSA2>
48.64

>  <EState_VSA3>
19.45

>  <EState_VSA4>
5.57

>  <EState_VSA5>
13.19

>  <EState_VSA6>
0

>  <EState_VSA7>
27.69

>  <EState_VSA8>
0

>  <EState_VSA9>
23.68

>  <EState_VSA10>
14.38

>  <VSA_EState1>
28.16

>  <VSA_EState2>
35.9

>  <VSA_EState3>
0

>  <VSA_EState4>
0.04

>  <VSA_EState5>
-1.13

>  <VSA_EState6>
0

>  <VSA_EState7>
1.33

>  <VSA_EState8>
9.62

>  <VSA_EState9>
0

>  <apol>
64.49

>  <bpol>
43.39

>  <nRing>
3

>  <nHRing>
2

>  <naRing>
0

>  <naHRing>
0

>  <nARing 2>
3

>  <nAHRing 2>
2

>  <nFRing>
1

>  <nFHRing>
1

>  <nFaRing>
0

>  <nFaHRing>
0

>  <nFARing 2>
1

>  <nFAHRing 2>
1

>  <nRot>
8

>  <SLogP>
2.74

>  <SMR>
104.75

>  <TopoPSA(NO)>
100.66

>  <TopoPSA>
100.66

>  <JGI1>
0.28

>  <JGI2>
0.07

>  <JGI3>
0.06

>  <JGI4>
0.04

>  <JGI5>
0.03

>  <Diameter>
14

>  <Radius>
7

>  <TMWC10>
140.64

>  <TSRW10>
86.64

>  <MW>
424.21

>  <AMW>
6.84

>  <WPath>
2512

>  <WPol>
46

>  <Zagreb1>
158

>  <Zagreb2>
187

>  <mZagreb2>
6.5

>  <yes>


>  <nAR-cont>
0.691115

>  <nHA-cont>
0.74523694

>  <MWHBN>
0.388418168

>  <MWHBN-cont>
0.521696078

>  <TPSA-cont>
0.297330694

>  <pka_cont>
0.97

>  <yes.1>


>  <BBB_SCORE>
3.298557444

>  <MMFF94 Energy>
-6.6699

$$$$
Compound 878
Actelion Java MolfileCreator 2.0

  0  0  0  0  0  0              0 V3000
M  V30 BEGIN CTAB
M  V30 COUNTS 61 64 0 0 0
M  V30 BEGIN ATOM
M  V30 1 F -0.4038 1.7779 0.4038 0
M  V30 2 C 0.2156 1.2194 -0.7059 0 CFG=2
M  V30 3 C 1.0462 2.3875 -1.3775 0 CFG=2
M  V30 4 C -0.9585 0.6415 -1.5591 0 CFG=1
M  V30 5 C 1.1348 0.0906 -0.1399 0 CFG=2
M  V30 6 C 2.0985 2.8732 -0.3497 0
M  V30 7 C 0.1174 3.524 -1.8016 0
M  V30 8 C 1.7978 1.9649 -2.662 0
M  V30 9 O -0.6158 0.2857 -2.8939 0
M  V30 10 C -1.7056 -0.5321 -0.8835 0
M  V30 11 C 0.2595 -0.9427 0.5904 0 CFG=1
M  V30 12 C 2.1947 0.6672 0.8181 0
M  V30 13 C 2.1566 4.1515 0.0727 0
M  V30 14 C 3.0302 1.7849 0.1763 0 CFG=2
M  V30 15 C 0.1905 4.7882 -1.3682 0
M  V30 16 C -0.7844 -1.6353 -0.3169 0 CFG=1
M  V30 17 C 0.9347 -2.1102 1.2974 0
M  V30 18 C 1.2242 5.1948 -0.4027 0
M  V30 19 C 4.1096 2.2399 1.1685 0
M  V30 20 C -1.4476 -2.6147 0.7305 0 CFG=1
M  V30 21 C -0.1379 -2.4537 -1.4687 0
M  V30 22 C -0.2046 -3.1225 1.5345 0
M  V30 23 O 1.3103 6.352 -0.0116 0
M  V30 24 O -2.2718 -1.8195 1.6169 0
M  V30 25 C -2.2285 -3.7624 0.0312 0
M  V30 26 C -2.971 -2.4495 2.5984 0
M  V30 27 O -1.7325 -4.8759 -0.1596 0
M  V30 28 C -3.5868 -3.4436 -0.5447 0
M  V30 29 O -3.0206 -3.6573 2.7654 0
M  V30 30 C -3.6949 -1.4431 3.4384 0
M  V30 31 H -1.7115 1.432 -1.6618 0
M  V30 32 H 1.67 -0.3962 -0.9606 0
M  V30 33 H -0.6538 3.2891 -2.5336 0
M  V30 34 H 1.1301 1.8699 -3.5251 0
M  V30 35 H 2.3209 1.0107 -2.5517 0
M  V30 36 H 2.5506 2.7133 -2.9429 0
M  V30 37 H 0.1859 -0.2582 -2.9016 0
M  V30 38 H -2.4131 -0.97 -1.5968 0
M  V30 39 H -2.3065 -0.1027 -0.0723 0
M  V30 40 H -0.2734 -0.3855 1.3776 0
M  V30 41 H 1.7065 1.0463 1.7266 0
M  V30 42 H 2.867 -0.1385 1.1383 0
M  V30 43 H 2.8748 4.5108 0.7998 0
M  V30 44 H 3.5722 1.3641 -0.6799 0
M  V30 45 H -0.4873 5.5624 -1.7063 0
M  V30 46 H 1.7207 -2.5558 0.6775 0
M  V30 47 H 1.3934 -1.8076 2.2445 0
M  V30 48 H 4.7514 1.3974 1.4496 0
M  V30 49 H 4.7555 3.0059 0.7258 0
M  V30 50 H 3.672 2.6426 2.0887 0
M  V30 51 H -0.8938 -2.7573 -2.2017 0
M  V30 52 H 0.3466 -3.3686 -1.1125 0
M  V30 53 H 0.6355 -1.9083 -2.008 0
M  V30 54 H 0.1328 -4.1145 1.2172 0
M  V30 55 H -0.4095 -3.1832 2.6086 0
M  V30 56 H -4.2097 -4.3419 -0.5115 0
M  V30 57 H -4.0915 -2.6641 0.0283 0
M  V30 58 H -3.4735 -3.1174 -1.5808 0
M  V30 59 H -2.9797 -0.741 3.8744 0
M  V30 60 H -4.4314 -0.9138 2.8287 0
M  V30 61 H -4.2155 -1.9569 4.2515 0
M  V30 END ATOM
M  V30 BEGIN BOND
M  V30 1 1 1 2
M  V30 2 1 2 3
M  V30 3 1 2 4
M  V30 4 1 2 5
M  V30 5 1 3 6
M  V30 6 1 3 7
M  V30 7 1 3 8
M  V30 8 1 4 9
M  V30 9 1 4 10
M  V30 10 1 5 11
M  V30 11 1 5 12
M  V30 12 2 6 13
M  V30 13 1 6 14
M  V30 14 2 7 15
M  V30 15 1 10 16
M  V30 16 1 11 17
M  V30 17 1 13 18
M  V30 18 1 14 19
M  V30 19 1 16 20
M  V30 20 1 16 21
M  V30 21 1 17 22
M  V30 22 2 18 23
M  V30 23 1 20 24
M  V30 24 1 20 25
M  V30 25 1 24 26
M  V30 26 2 25 27
M  V30 27 1 25 28
M  V30 28 2 26 29
M  V30 29 1 26 30
M  V30 30 1 11 16
M  V30 31 1 12 14
M  V30 32 1 15 18
M  V30 33 1 20 22
M  V30 34 1 4 31
M  V30 35 1 5 32
M  V30 36 1 7 33
M  V30 37 1 8 34
M  V30 38 1 8 35
M  V30 39 1 8 36
M  V30 40 1 9 37
M  V30 41 1 10 38
M  V30 42 1 10 39
M  V30 43 1 11 40
M  V30 44 1 12 41
M  V30 45 1 12 42
M  V30 46 1 13 43
M  V30 47 1 14 44
M  V30 48 1 15 45
M  V30 49 1 17 46
M  V30 50 1 17 47
M  V30 51 1 19 48
M  V30 52 1 19 49
M  V30 53 1 19 50
M  V30 54 1 21 51
M  V30 55 1 21 52
M  V30 56 1 21 53
M  V30 57 1 22 54
M  V30 58 1 22 55
M  V30 59 1 28 56
M  V30 60 1 28 57
M  V30 61 1 28 58
M  V30 62 1 30 59
M  V30 63 1 30 60
M  V30 64 1 30 61
M  V30 END BOND
M  V30 BEGIN COLLECTION
M  V30 MDLV30/STEABS ATOMS=(8 2 3 4 5 11 14 16 20)
M  V30 END COLLECTION
M  V30 END CTAB
M  END
>  <Column 1>
1052

>  <level_0>
1190

>  <index>
1190

>  <Unnamed: 0>
1190

>  <NO.>
1202

>  <Name>
fluorometholone acetate

>  <IUPAC_name>
[(6s-8s-9r-10s-11s-13s-14s-17r)-17-acetyl-9-fluoro-11-hydroxy-6-10-13-trimethyl-3-oxo-6-7-8-11-12-14-15-16-octahydrocyclopenta[a]phenanthren-17-yl] acetate

>  <SMILES>
CC(=O)O[C@]1(C(C)=O)CC[C@H]2[C@@H]3C[C@H](C)C4=CC(=O)C=C[C@]4(C)[C@@]3(F)[C@@H](O)C[C@@]21C

>  <CID>
240767

>  <logBB>


>  <BBB+/BBB->
BBB+

>  <Inchi>
InChI=1S/C24H31FO5/c1-13-10-19-17-7-9-23(14(2)26-30-15(3)27)22(17-5)12-20(29)24(19-25)21(4)8-6-16(28)11-18(13)21/h6-8-11-13-17-19-20-29H-7-9-10-12H2-1-5H3/t13--17--19--20--21--22--23--24-/m0/s1

>  <threshold>
-1

>  <reference>
R1|R27|R30|

>  <group>
B

>  <Class>
1

>  <ABC>
24

>  <ABCGG>
20.29

>  <nAcid>
0

>  <nBase>
0

>  <nAromAtom>
0

>  <nAromBond>
0

>  <nAtom>
61

>  <nHeavyAtom>
30

>  <nSpiro>
0

>  <nBridgehead>
0

>  <nHetero>
6

>  <nN>
0

>  <nO>
5

>  <nF>
1

>  <BalabanJ>
1.78

>  <BertzCT>
892.03

>  <nBonds>
64

>  <nBondsO>
33

>  <nBondsS>
59

>  <nBondsD>
5

>  <nBondsT>
0

>  <nBondsA>
0

>  <nBondsM>
5

>  <nBondsKS>
59

>  <nBondsKD>
5

>  <RNCG>
0.19

>  <RPCG>
0.13

>  <FCSP3>
0.71

>  <SZ>
37.33

>  <Sm>
34.84

>  <Sv>
36.62

>  <Sse>
61.37

>  <Sp>
39.11

>  <Si>
69.03

>  <MZ>
0.61

>  <Mm>
0.57

>  <Mv>
0.6

>  <Mse>
1.01

>  <Mp>
0.64

>  <Mi>
1.13

>  <NsCH3>
5

>  <NdCH2>
0

>  <NssCH2>
4

>  <NtCH>
0

>  <NdsCH>
3

>  <NaaCH>
0

>  <NsssCH>
4

>  <NddC>
0

>  <NtsC>
0

>  <NdssC>
4

>  <NaasC>
0

>  <NaaaC>
0

>  <NssssC>
4

>  <NsNH3>
0

>  <NsNH2>
0

>  <NssNH2>
0

>  <NdNH>
0

>  <NssNH>
0

>  <NaaNH>
0

>  <NtN>
0

>  <NsssNH>
0

>  <NdsN>
0

>  <NaaN>
0

>  <NsssN>
0

>  <NddsN>
0

>  <NaasN>
0

>  <NssssN>
0

>  <NsOH>
1

>  <NdO>
3

>  <NssO>
1

>  <NaaO>
0

>  <NsF>
1

>  <NsSiH3>
0

>  <NssSiH2>
0

>  <NsssSiH>
0

>  <NssssSi>
0

>  <NsPH2>
0

>  <NssPH>
0

>  <NsssP>
0

>  <NdsssP>
0

>  <NsssssP>
0

>  <NsSH>
0

>  <NdS>
0

>  <NssS>
0

>  <NaaS>
0

>  <NdssS>
0

>  <NddssS>
0

>  <NsCl>
0

>  <NsBr>
0

>  <NsI>
0

>  <fragCpx>
219.06

>  <fMF>
0.28

>  <nHBAcc>
5

>  <nHBDon>
1

>  <Kier1>
23.17

>  <Kier2>
7.25

>  <Lipinski>
1

>  <GhoseFilter>
1

>  <FilterItLogS>
-3.98

>  <VMcGowan>
315.19

>  <LabuteASA>
176.29

>  <PEOE_VSA1>
9.84

>  <PEOE_VSA2>
14.38

>  <PEOE_VSA3>
4.39

>  <PEOE_VSA4>
0

>  <PEOE_VSA5>
0

>  <PEOE_VSA6>
25.5

>  <PEOE_VSA7>
63.52

>  <PEOE_VSA8>
23.67

>  <PEOE_VSA9>
6.1

>  <PEOE_VSA10>
0

>  <PEOE_VSA11>
22.84

>  <PEOE_VSA12>
0

>  <PEOE_VSA13>
0

>  <SMR_VSA1>
28.62

>  <SMR_VSA2>
0

>  <SMR_VSA3>
0

>  <SMR_VSA4>
28.58

>  <SMR_VSA5>
77.68

>  <SMR_VSA6>
0

>  <SMR_VSA7>
23.8

>  <SMR_VSA8>
0

>  <SMR_VSA9>
0

>  <SlogP_VSA1>
0

>  <SlogP_VSA2>
40.02

>  <SlogP_VSA3>
19.12

>  <SlogP_VSA4>
28.58

>  <SlogP_VSA5>
60.3

>  <SlogP_VSA6>
23.8

>  <SlogP_VSA7>
0

>  <SlogP_VSA8>
0

>  <SlogP_VSA9>
0

>  <SlogP_VSA10>
4.39

>  <SlogP_VSA11>
0

>  <EState_VSA1>
40.09

>  <EState_VSA2>
29.82

>  <EState_VSA3>
19.26

>  <EState_VSA4>
5.57

>  <EState_VSA5>
26

>  <EState_VSA6>
13

>  <EState_VSA7>
13.85

>  <EState_VSA8>
0

>  <EState_VSA9>
4.74

>  <EState_VSA10>
19.49

>  <VSA_EState1>
22.78

>  <VSA_EState2>
36.72

>  <VSA_EState3>
11.31

>  <VSA_EState4>
-4.52

>  <VSA_EState5>
-1.72

>  <VSA_EState6>
0

>  <VSA_EState7>
4.58

>  <VSA_EState8>
8.34

>  <VSA_EState9>
0

>  <apol>
65.32

>  <bpol>
36.55

>  <nRing>
4

>  <nHRing>
0

>  <naRing>
0

>  <naHRing>
0

>  <nARing 2>
4

>  <nAHRing 2>
0

>  <nFRing>
1

>  <nFHRing>
0

>  <nFaRing>
0

>  <nFaHRing>
0

>  <nFARing 2>
1

>  <nFAHRing 2>
0

>  <nRot>
2

>  <SLogP>
3.49

>  <SMR>
108.08

>  <TopoPSA(NO)>
80.67

>  <TopoPSA>
80.67

>  <JGI1>
0.33

>  <JGI2>
0.15

>  <JGI3>
0.08

>  <JGI4>
0.07

>  <JGI5>
0.04

>  <Diameter>
12

>  <Radius>
6

>  <TMWC10>
145.09

>  <TSRW10>
82.06

>  <MW>
418.22

>  <AMW>
6.86

>  <WPath>
2015

>  <WPol>
72

>  <Zagreb1>
178

>  <Zagreb2>
231

>  <mZagreb2>
6.18

>  <yes>


>  <nAR-cont>
0.199399

>  <nHA-cont>
0.74523694

>  <MWHBN>
0.293392394

>  <MWHBN-cont>
0.860020694

>  <TPSA-cont>
0.436873307

>  <pka_cont>
0.97

>  <yes.1>


>  <BBB_SCORE>
3.593413594

>  <MMFF94 Energy>
140.52

$$$$
Compound 879
Actelion Java MolfileCreator 2.0

  0  0  0  0  0  0              0 V3000
M  V30 BEGIN CTAB
M  V30 COUNTS 50 54 0 0 0
M  V30 BEGIN ATOM
M  V30 1 O 2.5959 2.1899 -2.0276 0
M  V30 2 C 3.0838 1.1736 -2.5039 0
M  V30 3 O 2.4317 -0.0078 -2.8276 0
M  V30 4 C 4.5326 1.032 -2.8665 0
M  V30 5 C 1.1024 -0.0211 -2.4251 0
M  V30 6 C 0.755 -0.2887 -1.1189 0
M  V30 7 C 0.0912 0.1789 -3.3719 0
M  V30 8 O 1.5929 -0.4402 -0.0483 0
M  V30 9 C -0.5715 -0.3851 -0.7687 0
M  V30 10 C -1.2612 0.1647 -2.9773 0
M  V30 11 C 0.7068 -0.3153 1.1253 0 CFG=2
M  V30 12 C -1.6047 -0.105 -1.6494 0
M  V30 13 C -0.7132 -0.7306 0.6781 0 CFG=1
M  V30 14 C 0.7917 1.1059 1.7683 0 CFG=1
M  V30 15 C -3.0087 -0.004 -1.109 0
M  V30 16 C -1.9023 0.0501 1.2522 0 CFG=2
M  V30 17 C -0.9662 -2.243 0.8425 0
M  V30 18 O 1.968 1.8208 1.3602 0
M  V30 19 C -0.3944 2.0052 1.512 0
M  V30 20 C -3.1524 -0.3712 0.4121 0 CFG=2
M  V30 21 C -1.6331 1.5353 1.2956 0
M  V30 22 C -2.3069 -2.6858 0.2361 0
M  V30 23 C 3.1319 1.3724 1.8961 0
M  V30 24 N -3.4518 -1.8229 0.5656 0
M  V30 25 O 3.2355 0.468 2.7138 0
M  V30 26 C 4.2874 2.143 1.3366 0
M  V30 27 C -4.0118 -2.1487 1.8764 0
M  V30 28 H 4.9687 0.1873 -2.3272 0
M  V30 29 H 4.633 0.8949 -3.9458 0
M  V30 30 H 5.0686 1.9403 -2.5762 0
M  V30 31 H 0.3482 0.3819 -4.4074 0
M  V30 32 H -2.0343 0.3831 -3.7101 0
M  V30 33 H 1.0953 -1.0306 1.8616 0
M  V30 34 H 0.815 0.9902 2.862 0
M  V30 35 H -3.3309 1.0385 -1.2325 0
M  V30 36 H -3.6865 -0.6182 -1.7147 0
M  V30 37 H -2.0648 -0.2409 2.2986 0
M  V30 38 H -0.9574 -2.4915 1.9118 0
M  V30 39 H -0.1622 -2.8306 0.3807 0
M  V30 40 H -0.2271 3.0781 1.5639 0
M  V30 41 H -4.0314 0.1822 0.7708 0
M  V30 42 H -2.463 2.2266 1.1751 0
M  V30 43 H -2.5118 -3.7233 0.5305 0
M  V30 44 H -2.2115 -2.7313 -0.8554 0
M  V30 45 H 4.4321 1.8816 0.2865 0
M  V30 46 H 4.1087 3.216 1.4451 0
M  V30 47 H 5.1941 1.8904 1.8937 0
M  V30 48 H -4.3694 -3.1846 1.8872 0
M  V30 49 H -4.8836 -1.5214 2.0929 0
M  V30 50 H -3.2931 -2.0342 2.6935 0
M  V30 END ATOM
M  V30 BEGIN BOND
M  V30 1 2 1 2
M  V30 2 1 2 3
M  V30 3 1 2 4
M  V30 4 1 3 5
M  V30 5 2 5 6
M  V30 6 1 5 7
M  V30 7 1 6 8
M  V30 8 1 6 9
M  V30 9 2 7 10
M  V30 10 1 8 11
M  V30 11 2 9 12
M  V30 12 1 9 13
M  V30 13 1 11 14
M  V30 14 1 12 15
M  V30 15 1 13 16
M  V30 16 1 13 17
M  V30 17 1 14 18
M  V30 18 1 14 19
M  V30 19 1 15 20
M  V30 20 1 16 21
M  V30 21 1 17 22
M  V30 22 1 18 23
M  V30 23 1 20 24
M  V30 24 2 23 25
M  V30 25 1 23 26
M  V30 26 1 24 27
M  V30 27 1 10 12
M  V30 28 1 11 13
M  V30 29 1 16 20
M  V30 30 2 19 21
M  V30 31 1 22 24
M  V30 32 1 4 28
M  V30 33 1 4 29
M  V30 34 1 4 30
M  V30 35 1 7 31
M  V30 36 1 10 32
M  V30 37 1 11 33
M  V30 38 1 14 34
M  V30 39 1 15 35
M  V30 40 1 15 36
M  V30 41 1 16 37
M  V30 42 1 17 38
M  V30 43 1 17 39
M  V30 44 1 19 40
M  V30 45 1 20 41
M  V30 46 1 21 42
M  V30 47 1 22 43
M  V30 48 1 22 44
M  V30 49 1 26 45
M  V30 50 1 26 46
M  V30 51 1 26 47
M  V30 52 1 27 48
M  V30 53 1 27 49
M  V30 54 1 27 50
M  V30 END BOND
M  V30 BEGIN COLLECTION
M  V30 MDLV30/STEABS ATOMS=(5 11 13 14 16 20)
M  V30 END COLLECTION
M  V30 END CTAB
M  END
>  <Column 1>
1053

>  <level_0>
1191

>  <index>
1191

>  <Unnamed: 0>
1191

>  <NO.>
1203

>  <Name>
diacetylmorphine

>  <IUPAC_name>
[(4r-4ar-7s-7ar-12bs)-9-acetyloxy-3-methyl-2-4-4a-7-7a-13-hexahydro-1h-4-12-methanobenzofuro[3-2-e]isoquinolin-7-yl] acetate

>  <SMILES>
CC(=O)Oc1ccc2c3c1O[C@H]1[C@@H](OC(C)=O)C=C[C@H]4[C@@H](C2)N(C)CC[C@]314

>  <CID>
5462328

>  <logBB>


>  <BBB+/BBB->
BBB+

>  <Inchi>
InChI=1S/C21H23NO5/c1-11(23)25-16-6-4-13-10-15-14-5-7-17(26-12(2)24)20-21(14-8-9-22(15)3)18(13)19(16)27-20/h4-7-14-15-17-20H-8-10H2-1-3H3/t14--15+-17--20--21-/m0/s1

>  <threshold>
-1

>  <reference>
R1|R6|R27|R30|

>  <group>
B

>  <Class>
1

>  <ABC>
22.04

>  <ABCGG>
16.57

>  <nAcid>
0

>  <nBase>
1

>  <nAromAtom>
6

>  <nAromBond>
6

>  <nAtom>
50

>  <nHeavyAtom>
27

>  <nSpiro>
1

>  <nBridgehead>
2

>  <nHetero>
6

>  <nN>
1

>  <nO>
5

>  <nF>
0

>  <BalabanJ>
1.54

>  <BertzCT>
877.57

>  <nBonds>
54

>  <nBondsO>
31

>  <nBondsS>
45

>  <nBondsD>
3

>  <nBondsT>
0

>  <nBondsA>
6

>  <nBondsM>
9

>  <nBondsKS>
48

>  <nBondsKD>
6

>  <RNCG>
0.2

>  <RPCG>
0.13

>  <FCSP3>
0.52

>  <SZ>
32.67

>  <Sm>
30.76

>  <Sv>
31.56

>  <Sse>
50.53

>  <Sp>
33.24

>  <Si>
56.11

>  <MZ>
0.65

>  <Mm>
0.62

>  <Mv>
0.63

>  <Mse>
1.01

>  <Mp>
0.66

>  <Mi>
1.12

>  <NsCH3>
3

>  <NdCH2>
0

>  <NssCH2>
3

>  <NtCH>
0

>  <NdsCH>
2

>  <NaaCH>
2

>  <NsssCH>
4

>  <NddC>
0

>  <NtsC>
0

>  <NdssC>
2

>  <NaasC>
4

>  <NaaaC>
0

>  <NssssC>
1

>  <NsNH3>
0

>  <NsNH2>
0

>  <NssNH2>
0

>  <NdNH>
0

>  <NssNH>
0

>  <NaaNH>
0

>  <NtN>
0

>  <NsssNH>
0

>  <NdsN>
0

>  <NaaN>
0

>  <NsssN>
1

>  <NddsN>
0

>  <NaasN>
0

>  <NssssN>
0

>  <NsOH>
0

>  <NdO>
2

>  <NssO>
3

>  <NaaO>
0

>  <NsF>
0

>  <NsSiH3>
0

>  <NssSiH2>
0

>  <NsssSiH>
0

>  <NssssSi>
0

>  <NsPH2>
0

>  <NssPH>
0

>  <NsssP>
0

>  <NdsssP>
0

>  <NsssssP>
0

>  <NsSH>
0

>  <NdS>
0

>  <NssS>
0

>  <NaaS>
0

>  <NdssS>
0

>  <NddssS>
0

>  <NsCl>
0

>  <NsBr>
0

>  <NsI>
0

>  <fragCpx>
259.06

>  <fMF>
0.36

>  <nHBAcc>
6

>  <nHBDon>
0

>  <Kier1>
18.99

>  <Kier2>
6.77

>  <Lipinski>
1

>  <GhoseFilter>
1

>  <FilterItLogS>
-3.02

>  <VMcGowan>
265.98

>  <LabuteASA>
157.62

>  <PEOE_VSA1>
19.11

>  <PEOE_VSA2>
9.59

>  <PEOE_VSA3>
0

>  <PEOE_VSA4>
0

>  <PEOE_VSA5>
0

>  <PEOE_VSA6>
12.14

>  <PEOE_VSA7>
44.14

>  <PEOE_VSA8>
36.79

>  <PEOE_VSA9>
0

>  <PEOE_VSA10>
6.1

>  <PEOE_VSA11>
17.6

>  <PEOE_VSA12>
0

>  <PEOE_VSA13>
0

>  <SMR_VSA1>
23.8

>  <SMR_VSA2>
0

>  <SMR_VSA3>
4.9

>  <SMR_VSA4>
5.92

>  <SMR_VSA5>
50.35

>  <SMR_VSA6>
13.59

>  <SMR_VSA7>
35.41

>  <SMR_VSA8>
0

>  <SMR_VSA9>
11.5

>  <SlogP_VSA1>
9.47

>  <SlogP_VSA2>
48.68

>  <SlogP_VSA3>
26.16

>  <SlogP_VSA4>
5.92

>  <SlogP_VSA5>
31.4

>  <SlogP_VSA6>
24.28

>  <SlogP_VSA7>
0

>  <SlogP_VSA8>
0

>  <SlogP_VSA9>
0

>  <SlogP_VSA10>
0

>  <SlogP_VSA11>
11.5

>  <EState_VSA1>
6.1

>  <EState_VSA2>
29.38

>  <EState_VSA3>
17.54

>  <EState_VSA4>
24.95

>  <EState_VSA5>
19.41

>  <EState_VSA6>
0

>  <EState_VSA7>
12.14

>  <EState_VSA8>
24.09

>  <EState_VSA9>
14.21

>  <EState_VSA10>
9.59

>  <VSA_EState1>
17.49

>  <VSA_EState2>
25.69

>  <VSA_EState3>
0

>  <VSA_EState4>
2.15

>  <VSA_EState5>
0.71

>  <VSA_EState6>
4.28

>  <VSA_EState7>
5.31

>  <VSA_EState8>
3.77

>  <VSA_EState9>
2.17

>  <apol>
55.52

>  <bpol>
31.73

>  <nRing>
5

>  <nHRing>
2

>  <naRing>
1

>  <naHRing>
0

>  <nARing 2>
4

>  <nAHRing 2>
2

>  <nFRing>
1

>  <nFHRing>
1

>  <nFaRing>
0

>  <nFaHRing>
0

>  <nFARing 2>
1

>  <nFAHRing 2>
1

>  <nRot>
2

>  <SLogP>
1.99

>  <SMR>
96.77

>  <TopoPSA(NO)>
65.07

>  <TopoPSA>
65.07

>  <JGI1>
0.23

>  <JGI2>
0.09

>  <JGI3>
0.05

>  <JGI4>
0.05

>  <JGI5>
0.03

>  <Diameter>
10

>  <Radius>
6

>  <TMWC10>
138.57

>  <TSRW10>
78.27

>  <MW>
369.16

>  <AMW>
7.38

>  <WPath>
1548

>  <WPol>
57

>  <Zagreb1>
160

>  <Zagreb2>
203

>  <mZagreb2>
5.63

>  <yes>


>  <nAR-cont>
0.199399

>  <nHA-cont>
0.860070871

>  <MWHBN>
0.312279828

>  <MWHBN-cont>
0.802566503

>  <TPSA-cont>
0.545770994

>  <pka_cont>
0.97

>  <yes.1>


>  <BBB_SCORE>
3.839861614

>  <MMFF94 Energy>
100.11

$$$$
Compound 880
Actelion Java MolfileCreator 2.0

  0  0  0  0  0  0              0 V3000
M  V30 BEGIN CTAB
M  V30 COUNTS 56 59 0 0 0
M  V30 BEGIN ATOM
M  V30 1 F 0.8083 -0.7274 -1.6171 0
M  V30 2 C -0.0536 -1.0245 -0.5701 0 CFG=2
M  V30 3 C 0.062 -2.5856 -0.3313 0 CFG=2
M  V30 4 C -1.447 -0.516 -1.0592 0 CFG=1
M  V30 5 C 0.4716 -0.2079 0.6542 0 CFG=2
M  V30 6 C 1.5284 -2.8979 0.062 0
M  V30 7 C -0.3475 -3.3498 -1.5912 0
M  V30 8 C -0.8586 -3.1185 0.7923 0
M  V30 9 O -2.5126 -0.9382 -0.2166 0
M  V30 10 C -1.5023 1.0206 -1.2384 0
M  V30 11 C 0.4131 1.2925 0.3231 0 CFG=1
M  V30 12 C 1.9089 -0.6224 1.0209 0
M  V30 13 C 2.2995 -3.7497 -0.6418 0
M  V30 14 C 2.0409 -2.1308 1.2784 0 CFG=2
M  V30 15 C 0.4349 -4.1912 -2.2773 0
M  V30 16 C -1.0111 1.8016 -9.0E-4 0 CFG=1
M  V30 17 C 0.9177 2.2876 1.3639 0
M  V30 18 C 1.8168 -4.456 -1.8463 0
M  V30 19 C 3.4782 -2.4425 1.7184 0
M  V30 20 C -0.7091 3.3267 -0.2015 0 CFG=1
M  V30 21 C -2.0063 1.6131 1.1784 0
M  V30 22 C 0.3004 3.6361 0.9419 0
M  V30 23 O 2.5355 -5.2346 -2.4602 0
M  V30 24 O 0.0095 3.5666 -1.4159 0
M  V30 25 C -1.9574 4.2428 -0.1162 0
M  V30 26 O -2.4024 4.6672 0.9521 0
M  V30 27 C -2.6638 4.5749 -1.4069 0
M  V30 28 H -1.6434 -0.9448 -2.0488 0
M  V30 29 H -0.1562 -0.4086 1.5281 0
M  V30 30 H -1.3687 -3.2172 -1.942 0
M  V30 31 H -0.8294 -2.5005 1.6942 0
M  V30 32 H -0.5687 -4.1349 1.0904 0
M  V30 33 H -1.9064 -3.1826 0.4789 0
M  V30 34 H -3.3511 -0.6553 -0.6231 0
M  V30 35 H -0.8819 1.2623 -2.1089 0
M  V30 36 H -2.5263 1.3274 -1.482 0
M  V30 37 H 1.0477 1.4371 -0.566 0
M  V30 38 H 2.5978 -0.3214 0.2197 0
M  V30 39 H 2.2223 -0.0804 1.922 0
M  V30 40 H 3.3301 -3.9706 -0.3923 0
M  V30 41 H 1.405 -2.3937 2.1334 0
M  V30 42 H 0.0946 -4.7188 -3.1597 0
M  V30 43 H 2.011 2.3441 1.3798 0
M  V30 44 H 0.5866 2.0156 2.3727 0
M  V30 45 H 4.2069 -2.1746 0.9454 0
M  V30 46 H 3.597 -3.5052 1.9561 0
M  V30 47 H 3.7334 -1.8776 2.6222 0
M  V30 48 H -2.0397 0.5902 1.5569 0
M  V30 49 H -3.0248 1.8733 0.8675 0
M  V30 50 H -1.7621 2.2421 2.0405 0
M  V30 51 H -0.1674 4.1005 1.8165 0
M  V30 52 H 1.0903 4.3158 0.6005 0
M  V30 53 H -0.5157 3.2703 -2.1758 0
M  V30 54 H -3.5827 5.1272 -1.1893 0
M  V30 55 H -2.0211 5.201 -2.0301 0
M  V30 56 H -2.9304 3.6576 -1.9354 0
M  V30 END ATOM
M  V30 BEGIN BOND
M  V30 1 1 1 2
M  V30 2 1 2 3
M  V30 3 1 2 4
M  V30 4 1 2 5
M  V30 5 1 3 6
M  V30 6 1 3 7
M  V30 7 1 3 8
M  V30 8 1 4 9
M  V30 9 1 4 10
M  V30 10 1 5 11
M  V30 11 1 5 12
M  V30 12 2 6 13
M  V30 13 1 6 14
M  V30 14 2 7 15
M  V30 15 1 10 16
M  V30 16 1 11 17
M  V30 17 1 13 18
M  V30 18 1 14 19
M  V30 19 1 16 20
M  V30 20 1 16 21
M  V30 21 1 17 22
M  V30 22 2 18 23
M  V30 23 1 20 24
M  V30 24 1 20 25
M  V30 25 2 25 26
M  V30 26 1 25 27
M  V30 27 1 11 16
M  V30 28 1 12 14
M  V30 29 1 15 18
M  V30 30 1 20 22
M  V30 31 1 4 28
M  V30 32 1 5 29
M  V30 33 1 7 30
M  V30 34 1 8 31
M  V30 35 1 8 32
M  V30 36 1 8 33
M  V30 37 1 9 34
M  V30 38 1 10 35
M  V30 39 1 10 36
M  V30 40 1 11 37
M  V30 41 1 12 38
M  V30 42 1 12 39
M  V30 43 1 13 40
M  V30 44 1 14 41
M  V30 45 1 15 42
M  V30 46 1 17 43
M  V30 47 1 17 44
M  V30 48 1 19 45
M  V30 49 1 19 46
M  V30 50 1 19 47
M  V30 51 1 21 48
M  V30 52 1 21 49
M  V30 53 1 21 50
M  V30 54 1 22 51
M  V30 55 1 22 52
M  V30 56 1 24 53
M  V30 57 1 27 54
M  V30 58 1 27 55
M  V30 59 1 27 56
M  V30 END BOND
M  V30 BEGIN COLLECTION
M  V30 MDLV30/STEABS ATOMS=(8 2 3 4 5 11 14 16 20)
M  V30 END COLLECTION
M  V30 END CTAB
M  END
>  <Column 1>
1054

>  <level_0>
1192

>  <index>
1192

>  <Unnamed: 0>
1192

>  <NO.>
1204

>  <Name>
fluorometholone

>  <IUPAC_name>
(6s-8s-9r-10s-11s-13s-14s-17r)-17-acetyl-9-fluoro-11-17-dihydroxy-6-10-13-trimethyl-6-7-8-11-12-14-15-16-octahydrocyclopenta[a]phenanthren-3-one

>  <SMILES>
CC(=O)[C@@]1(O)CC[C@H]2[C@@H]3C[C@H](C)C4=CC(=O)C=C[C@]4(C)[C@@]3(F)[C@@H](O)C[C@@]21C

>  <CID>
9878

>  <logBB>


>  <BBB+/BBB->
BBB+

>  <Inchi>
InChI=1S/C22H29FO4/c1-12-9-17-15-6-8-21(27-13(2)24)20(15-4)11-18(26)22(17-23)19(3)7-5-14(25)10-16(12)19/h5-7-10-12-15-17-18-26-27H-6-8-9-11H2-1-4H3/t12--15--17--18--19--20--21--22-/m0/s1

>  <threshold>
-1

>  <reference>
R1|R6|R27|R30|

>  <group>
B

>  <Class>
1

>  <ABC>
21.82

>  <ABCGG>
18.49

>  <nAcid>
0

>  <nBase>
0

>  <nAromAtom>
0

>  <nAromBond>
0

>  <nAtom>
56

>  <nHeavyAtom>
27

>  <nSpiro>
0

>  <nBridgehead>
0

>  <nHetero>
5

>  <nN>
0

>  <nO>
4

>  <nF>
1

>  <BalabanJ>
1.79

>  <BertzCT>
787.18

>  <nBonds>
59

>  <nBondsO>
30

>  <nBondsS>
55

>  <nBondsD>
4

>  <nBondsT>
0

>  <nBondsA>
0

>  <nBondsM>
4

>  <nBondsKS>
55

>  <nBondsKD>
4

>  <RNCG>
0.19

>  <RPCG>
0.1

>  <FCSP3>
0.73

>  <SZ>
33.67

>  <Sm>
31.34

>  <Sv>
33.36

>  <Sse>
56.15

>  <Sp>
35.83

>  <Si>
63.41

>  <MZ>
0.6

>  <Mm>
0.56

>  <Mv>
0.6

>  <Mse>
1

>  <Mp>
0.64

>  <Mi>
1.13

>  <NsCH3>
4

>  <NdCH2>
0

>  <NssCH2>
4

>  <NtCH>
0

>  <NdsCH>
3

>  <NaaCH>
0

>  <NsssCH>
4

>  <NddC>
0

>  <NtsC>
0

>  <NdssC>
3

>  <NaasC>
0

>  <NaaaC>
0

>  <NssssC>
4

>  <NsNH3>
0

>  <NsNH2>
0

>  <NssNH2>
0

>  <NdNH>
0

>  <NssNH>
0

>  <NaaNH>
0

>  <NtN>
0

>  <NsssNH>
0

>  <NdsN>
0

>  <NaaN>
0

>  <NsssN>
0

>  <NddsN>
0

>  <NaasN>
0

>  <NssssN>
0

>  <NsOH>
2

>  <NdO>
2

>  <NssO>
0

>  <NaaO>
0

>  <NsF>
1

>  <NsSiH3>
0

>  <NssSiH2>
0

>  <NsssSiH>
0

>  <NssssSi>
0

>  <NsPH2>
0

>  <NssPH>
0

>  <NsssP>
0

>  <NdsssP>
0

>  <NsssssP>
0

>  <NsSH>
0

>  <NdS>
0

>  <NssS>
0

>  <NaaS>
0

>  <NdssS>
0

>  <NddssS>
0

>  <NsCl>
0

>  <NsBr>
0

>  <NsI>
0

>  <fragCpx>
198.05

>  <fMF>
0.3

>  <nHBAcc>
4

>  <nHBDon>
2

>  <Kier1>
20.28

>  <Kier2>
6.01

>  <Lipinski>
1

>  <GhoseFilter>
1

>  <FilterItLogS>
-3.37

>  <VMcGowan>
285.44

>  <LabuteASA>
159.08

>  <PEOE_VSA1>
10.21

>  <PEOE_VSA2>
9.59

>  <PEOE_VSA3>
4.39

>  <PEOE_VSA4>
0

>  <PEOE_VSA5>
0

>  <PEOE_VSA6>
25.5

>  <PEOE_VSA7>
63.52

>  <PEOE_VSA8>
16.75

>  <PEOE_VSA9>
6.1

>  <PEOE_VSA10>
5.6

>  <PEOE_VSA11>
17.24

>  <PEOE_VSA12>
0

>  <PEOE_VSA13>
0

>  <SMR_VSA1>
24.19

>  <SMR_VSA2>
0

>  <SMR_VSA3>
0

>  <SMR_VSA4>
28.58

>  <SMR_VSA5>
70.75

>  <SMR_VSA6>
0

>  <SMR_VSA7>
23.8

>  <SMR_VSA8>
0

>  <SMR_VSA9>
0

>  <SlogP_VSA1>
0

>  <SlogP_VSA2>
39.15

>  <SlogP_VSA3>
9.59

>  <SlogP_VSA4>
28.58

>  <SlogP_VSA5>
53.38

>  <SlogP_VSA6>
23.8

>  <SlogP_VSA7>
0

>  <SlogP_VSA8>
0

>  <SlogP_VSA9>
0

>  <SlogP_VSA10>
4.39

>  <SlogP_VSA11>
0

>  <EState_VSA1>
34.12

>  <EState_VSA2>
29.82

>  <EState_VSA3>
19.26

>  <EState_VSA4>
5.57

>  <EState_VSA5>
19.08

>  <EState_VSA6>
13

>  <EState_VSA7>
13.85

>  <EState_VSA8>
0

>  <EState_VSA9>
0

>  <EState_VSA10>
19.8

>  <VSA_EState1>
16.87

>  <VSA_EState2>
24.21

>  <VSA_EState3>
22.26

>  <VSA_EState4>
-4.59

>  <VSA_EState5>
-1.11

>  <VSA_EState6>
0

>  <VSA_EState7>
4.68

>  <VSA_EState8>
7.01

>  <VSA_EState9>
0

>  <apol>
59.84

>  <bpol>
31.94

>  <nRing>
4

>  <nHRing>
0

>  <naRing>
0

>  <naHRing>
0

>  <nARing 2>
4

>  <nAHRing 2>
0

>  <nFRing>
1

>  <nFHRing>
0

>  <nFaRing>
0

>  <nFaHRing>
0

>  <nFARing 2>
1

>  <nFAHRing 2>
0

>  <nRot>
1

>  <SLogP>
2.92

>  <SMR>
98.53

>  <TopoPSA(NO)>
74.6

>  <TopoPSA>
74.6

>  <JGI1>
0.33

>  <JGI2>
0.16

>  <JGI3>
0.08

>  <JGI4>
0.07

>  <JGI5>
0.04

>  <Diameter>
11

>  <Radius>
6

>  <TMWC10>
138.44

>  <TSRW10>
78.71

>  <MW>
376.2

>  <AMW>
6.72

>  <WPath>
1489

>  <WPol>
67

>  <Zagreb1>
164

>  <Zagreb2>
215

>  <mZagreb2>
5.47

>  <yes>


>  <nAR-cont>
0.199399

>  <nHA-cont>
0.860070871

>  <MWHBN>
0.309344112

>  <MWHBN-cont>
0.811952594

>  <TPSA-cont>
0.479245676

>  <pka_cont>
0.97

>  <yes.1>


>  <BBB_SCORE>
3.720890114

>  <MMFF94 Energy>
158.44

$$$$
Compound 881
Actelion Java MolfileCreator 2.0

  0  0  0  0  0  0              0 V3000
M  V30 BEGIN CTAB
M  V30 COUNTS 56 59 0 0 0
M  V30 BEGIN ATOM
M  V30 1 F 1.8598 0.7274 0.97 0
M  V30 2 C 0.5427 0.5041 1.3475 0 CFG=2
M  V30 3 C 0.332 1.3024 2.7002 0 CFG=2
M  V30 4 C 0.4217 -1.0485 1.4549 0 CFG=1
M  V30 5 C -0.3324 1.0826 0.1858 0 CFG=2
M  V30 6 C 0.556 2.7971 2.4015 0
M  V30 7 C 1.3011 0.8142 3.7774 0
M  V30 8 C -1.0836 1.1521 3.3046 0
M  V30 9 O -0.7981 -1.461 2.0631 0
M  V30 10 C 0.5905 -1.7701 0.0973 0
M  V30 11 C -0.0147 0.318 -1.1091 0 CFG=1
M  V30 12 C -0.077 2.5903 -7.0E-4 0
M  V30 13 C 1.4666 3.5577 3.0354 0
M  V30 14 C -0.2799 3.3773 1.2897 0
M  V30 15 C 2.2071 1.5759 4.405 0
M  V30 16 C -0.3091 -1.1981 -1.0218 0 CFG=1
M  V30 17 C -0.7247 0.7324 -2.3917 0
M  V30 18 C 2.3458 3.0092 4.0876 0
M  V30 19 C 0.0466 -1.6389 -2.4883 0 CFG=1
M  V30 20 C -1.7995 -1.5126 -0.7194 0
M  V30 21 C -0.4041 -0.4199 -3.3775 0 CFG=1
M  V30 22 O 3.1562 3.7158 4.6739 0
M  V30 23 O 1.4819 -1.7039 -2.6054 0
M  V30 24 C -0.5181 -3.0402 -2.8508 0
M  V30 25 C -1.5515 -0.6183 -4.3599 0
M  V30 26 O -1.6631 -3.2184 -3.2696 0
M  V30 27 C 0.3852 -4.2318 -2.6348 0
M  V30 28 H 1.2297 -1.4143 2.0992 0
M  V30 29 H -1.3929 0.962 0.4282 0
M  V30 30 H 1.2285 -0.2298 4.0738 0
M  V30 31 H -1.2589 1.8999 4.0898 0
M  V30 32 H -1.2336 0.1765 3.7791 0
M  V30 33 H -1.876 1.2796 2.5613 0
M  V30 34 H -0.7761 -2.431 2.1475 0
M  V30 35 H 0.3822 -2.839 0.2231 0
M  V30 36 H 1.6461 -1.6847 -0.1877 0
M  V30 37 H 1.0622 0.4582 -1.2964 0
M  V30 38 H 0.9445 2.7532 -0.369 0
M  V30 39 H -0.7541 2.9937 -0.7628 0
M  V30 40 H 1.6225 4.6051 2.8035 0
M  V30 41 H -1.3379 3.3645 1.576 0
M  V30 42 H -0.0258 4.4286 1.1068 0
M  V30 43 H 2.8655 1.1871 5.1721 0
M  V30 44 H -1.8026 0.847 -2.2302 0
M  V30 45 H -0.3484 1.686 -2.7778 0
M  V30 46 H -2.4624 -1.2436 -1.5463 0
M  V30 47 H -2.1839 -0.9865 0.1561 0
M  V30 48 H -1.9373 -2.5838 -0.5318 0
M  V30 49 H 0.4561 -0.0889 -3.9766 0
M  V30 50 H 1.7071 -1.749 -3.552 0
M  V30 51 H -2.4845 -0.8905 -3.8582 0
M  V30 52 H -1.307 -1.3895 -5.0972 0
M  V30 53 H -1.7405 0.3091 -4.9124 0
M  V30 54 H -0.1879 -5.1534 -2.7734 0
M  V30 55 H 1.1992 -4.2153 -3.3634 0
M  V30 56 H 0.784 -4.2276 -1.619 0
M  V30 END ATOM
M  V30 BEGIN BOND
M  V30 1 1 1 2
M  V30 2 1 2 3
M  V30 3 1 2 4
M  V30 4 1 2 5
M  V30 5 1 3 6
M  V30 6 1 3 7
M  V30 7 1 3 8
M  V30 8 1 4 9
M  V30 9 1 4 10
M  V30 10 1 5 11
M  V30 11 1 5 12
M  V30 12 2 6 13
M  V30 13 1 6 14
M  V30 14 2 7 15
M  V30 15 1 10 16
M  V30 16 1 11 17
M  V30 17 1 13 18
M  V30 18 1 16 19
M  V30 19 1 16 20
M  V30 20 1 17 21
M  V30 21 2 18 22
M  V30 22 1 19 23
M  V30 23 1 19 24
M  V30 24 1 21 25
M  V30 25 2 24 26
M  V30 26 1 24 27
M  V30 27 1 11 16
M  V30 28 1 12 14
M  V30 29 1 15 18
M  V30 30 1 19 21
M  V30 31 1 4 28
M  V30 32 1 5 29
M  V30 33 1 7 30
M  V30 34 1 8 31
M  V30 35 1 8 32
M  V30 36 1 8 33
M  V30 37 1 9 34
M  V30 38 1 10 35
M  V30 39 1 10 36
M  V30 40 1 11 37
M  V30 41 1 12 38
M  V30 42 1 12 39
M  V30 43 1 13 40
M  V30 44 1 14 41
M  V30 45 1 14 42
M  V30 46 1 15 43
M  V30 47 1 17 44
M  V30 48 1 17 45
M  V30 49 1 20 46
M  V30 50 1 20 47
M  V30 51 1 20 48
M  V30 52 1 21 49
M  V30 53 1 23 50
M  V30 54 1 25 51
M  V30 55 1 25 52
M  V30 56 1 25 53
M  V30 57 1 27 54
M  V30 58 1 27 55
M  V30 59 1 27 56
M  V30 END BOND
M  V30 BEGIN COLLECTION
M  V30 MDLV30/STEABS ATOMS=(8 2 3 4 5 11 16 19 21)
M  V30 END COLLECTION
M  V30 END CTAB
M  END
>  <Column 1>
1055

>  <level_0>
1193

>  <index>
1193

>  <Unnamed: 0>
1193

>  <NO.>
1205

>  <Name>
doxibetasol

>  <IUPAC_name>
(8s-9r-10s-11s-13s-14s-16s-17r)-17-acetyl-9-fluoro-11-17-dihydroxy-10-13-16-trimethyl-6-7-8-11-12-14-15-16-octahydrocyclopenta[a]phenanthren-3-one

>  <SMILES>
CC(=O)[C@@]1(O)[C@@H](C)C[C@H]2[C@@H]3CCC4=CC(=O)C=C[C@]4(C)[C@@]3(F)[C@@H](O)C[C@@]21C

>  <CID>
71106

>  <logBB>


>  <BBB+/BBB->
BBB+

>  <Inchi>
InChI=1S/C22H29FO4/c1-12-9-17-16-6-5-14-10-15(25)7-8-19(14-3)21(16-23)18(26)11-20(17-4)22(12-27)13(2)24/h7-8-10-12-16-18-26-27H-5-6-9-11H2-1-4H3/t12--16--17--18--19--20--21--22-/m0/s1

>  <threshold>
-1

>  <reference>
R1|R27|R30|

>  <group>
B

>  <Class>
1

>  <ABC>
21.8

>  <ABCGG>
18.32

>  <nAcid>
0

>  <nBase>
0

>  <nAromAtom>
0

>  <nAromBond>
0

>  <nAtom>
56

>  <nHeavyAtom>
27

>  <nSpiro>
0

>  <nBridgehead>
0

>  <nHetero>
5

>  <nN>
0

>  <nO>
4

>  <nF>
1

>  <BalabanJ>
1.78

>  <BertzCT>
787.18

>  <nBonds>
59

>  <nBondsO>
30

>  <nBondsS>
55

>  <nBondsD>
4

>  <nBondsT>
0

>  <nBondsA>
0

>  <nBondsM>
4

>  <nBondsKS>
55

>  <nBondsKD>
4

>  <RNCG>
0.19

>  <RPCG>
0.1

>  <FCSP3>
0.73

>  <SZ>
33.67

>  <Sm>
31.34

>  <Sv>
33.36

>  <Sse>
56.15

>  <Sp>
35.83

>  <Si>
63.41

>  <MZ>
0.6

>  <Mm>
0.56

>  <Mv>
0.6

>  <Mse>
1

>  <Mp>
0.64

>  <Mi>
1.13

>  <NsCH3>
4

>  <NdCH2>
0

>  <NssCH2>
4

>  <NtCH>
0

>  <NdsCH>
3

>  <NaaCH>
0

>  <NsssCH>
4

>  <NddC>
0

>  <NtsC>
0

>  <NdssC>
3

>  <NaasC>
0

>  <NaaaC>
0

>  <NssssC>
4

>  <NsNH3>
0

>  <NsNH2>
0

>  <NssNH2>
0

>  <NdNH>
0

>  <NssNH>
0

>  <NaaNH>
0

>  <NtN>
0

>  <NsssNH>
0

>  <NdsN>
0

>  <NaaN>
0

>  <NsssN>
0

>  <NddsN>
0

>  <NaasN>
0

>  <NssssN>
0

>  <NsOH>
2

>  <NdO>
2

>  <NssO>
0

>  <NaaO>
0

>  <NsF>
1

>  <NsSiH3>
0

>  <NssSiH2>
0

>  <NsssSiH>
0

>  <NssssSi>
0

>  <NsPH2>
0

>  <NssPH>
0

>  <NsssP>
0

>  <NdsssP>
0

>  <NsssssP>
0

>  <NsSH>
0

>  <NdS>
0

>  <NssS>
0

>  <NaaS>
0

>  <NdssS>
0

>  <NddssS>
0

>  <NsCl>
0

>  <NsBr>
0

>  <NsI>
0

>  <fragCpx>
198.05

>  <fMF>
0.3

>  <nHBAcc>
4

>  <nHBDon>
2

>  <Kier1>
20.28

>  <Kier2>
6.01

>  <Lipinski>
1

>  <GhoseFilter>
1

>  <FilterItLogS>
-3.37

>  <VMcGowan>
285.44

>  <LabuteASA>
159.08

>  <PEOE_VSA1>
10.21

>  <PEOE_VSA2>
9.59

>  <PEOE_VSA3>
4.39

>  <PEOE_VSA4>
0

>  <PEOE_VSA5>
0

>  <PEOE_VSA6>
25.5

>  <PEOE_VSA7>
63.52

>  <PEOE_VSA8>
16.75

>  <PEOE_VSA9>
6.1

>  <PEOE_VSA10>
5.6

>  <PEOE_VSA11>
17.24

>  <PEOE_VSA12>
0

>  <PEOE_VSA13>
0

>  <SMR_VSA1>
24.19

>  <SMR_VSA2>
0

>  <SMR_VSA3>
0

>  <SMR_VSA4>
28.58

>  <SMR_VSA5>
70.75

>  <SMR_VSA6>
0

>  <SMR_VSA7>
23.8

>  <SMR_VSA8>
0

>  <SMR_VSA9>
0

>  <SlogP_VSA1>
0

>  <SlogP_VSA2>
39.15

>  <SlogP_VSA3>
9.59

>  <SlogP_VSA4>
28.58

>  <SlogP_VSA5>
53.38

>  <SlogP_VSA6>
23.8

>  <SlogP_VSA7>
0

>  <SlogP_VSA8>
0

>  <SlogP_VSA9>
0

>  <SlogP_VSA10>
4.39

>  <SlogP_VSA11>
0

>  <EState_VSA1>
34.12

>  <EState_VSA2>
29.82

>  <EState_VSA3>
19.26

>  <EState_VSA4>
5.57

>  <EState_VSA5>
19.08

>  <EState_VSA6>
13

>  <EState_VSA7>
13.85

>  <EState_VSA8>
0

>  <EState_VSA9>
0

>  <EState_VSA10>
19.8

>  <VSA_EState1>
16.83

>  <VSA_EState2>
24.25

>  <VSA_EState3>
22.46

>  <VSA_EState4>
-4.62

>  <VSA_EState5>
-1.39

>  <VSA_EState6>
0

>  <VSA_EState7>
4.93

>  <VSA_EState8>
6.87

>  <VSA_EState9>
0

>  <apol>
59.84

>  <bpol>
31.94

>  <nRing>
4

>  <nHRing>
0

>  <naRing>
0

>  <naHRing>
0

>  <nARing 2>
4

>  <nAHRing 2>
0

>  <nFRing>
1

>  <nFHRing>
0

>  <nFaRing>
0

>  <nFaHRing>
0

>  <nFARing 2>
1

>  <nFAHRing 2>
0

>  <nRot>
1

>  <SLogP>
2.92

>  <SMR>
98.53

>  <TopoPSA(NO)>
74.6

>  <TopoPSA>
74.6

>  <JGI1>
0.33

>  <JGI2>
0.16

>  <JGI3>
0.08

>  <JGI4>
0.06

>  <JGI5>
0.04

>  <Diameter>
11

>  <Radius>
6

>  <TMWC10>
138.51

>  <TSRW10>
78.98

>  <MW>
376.2

>  <AMW>
6.72

>  <WPath>
1497

>  <WPol>
68

>  <Zagreb1>
164

>  <Zagreb2>
216

>  <mZagreb2>
5.49

>  <yes>


>  <nAR-cont>
0.199399

>  <nHA-cont>
0.860070871

>  <MWHBN>
0.309344112

>  <MWHBN-cont>
0.811952594

>  <TPSA-cont>
0.479245676

>  <pka_cont>
0.97

>  <yes.1>


>  <BBB_SCORE>
3.720890114

>  <MMFF94 Energy>
159.87

$$$$
Compound 882
Actelion Java MolfileCreator 2.0

  0  0  0  0  0  0              0 V3000
M  V30 BEGIN CTAB
M  V30 COUNTS 54 57 0 0 0
M  V30 BEGIN ATOM
M  V30 1 F 0.4049 1.2961 1.5392 0
M  V30 2 C 0.7287 1.112 0.2025 0 CFG=2
M  V30 3 C 2.0662 1.9259 -0.0414 0 CFG=2
M  V30 4 C -0.5233 1.621 -0.5798 0 CFG=1
M  V30 5 C 0.9442 -0.4294 0.0306 0 CFG=2
M  V30 6 C 3.1563 1.3172 0.8611 0
M  V30 7 C 1.8669 3.4085 0.2743 0
M  V30 8 C 2.579 1.8687 -1.4992 0
M  V30 9 O -0.2848 1.7303 -1.9796 0
M  V30 10 C -1.7862 0.7604 -0.3425 0
M  V30 11 C -0.3677 -1.1584 0.3618 0 CFG=1
M  V30 12 C 2.0848 -0.9322 0.9351 0
M  V30 13 C 3.8482 2.0211 1.7749 0
M  V30 14 C 3.3832 -0.1648 0.7103 0
M  V30 15 C 2.5583 4.1044 1.1866 0
M  V30 16 C -1.5476 -0.7494 -0.5542 0 CFG=1
M  V30 17 C -0.388 -2.687 0.3237 0
M  V30 18 C 3.6116 3.4622 1.9941 0
M  V30 19 C -2.6512 -1.6983 0.0063 0 CFG=1
M  V30 20 C -1.29 -1.0545 -2.0539 0
M  V30 21 C -1.8862 -3.0448 0.2302 0 CFG=2
M  V30 22 O 4.2645 4.0986 2.8115 0
M  V30 23 O -3.1014 -1.2291 1.2866 0
M  V30 24 C -3.8635 -1.8944 -0.9238 0
M  V30 25 O -2.3325 -3.6386 1.4573 0
M  V30 26 O -3.8785 -2.7419 -1.8199 0
M  V30 27 C -5.0433 -0.9751 -0.7292 0
M  V30 28 H -0.7668 2.6292 -0.2246 0
M  V30 29 H 1.2291 -0.6484 -1.003 0
M  V30 30 H 1.1208 3.9444 -0.3081 0
M  V30 31 H 3.6129 2.2324 -1.5683 0
M  V30 32 H 2.5701 0.8552 -1.9104 0
M  V30 33 H 1.9917 2.501 -2.1735 0
M  V30 34 H -1.0756 2.129 -2.3852 0
M  V30 35 H -2.5916 1.099 -1.0049 0
M  V30 36 H -2.1233 0.9467 0.6845 0
M  V30 37 H -0.6176 -0.8833 1.3994 0
M  V30 38 H 1.7903 -0.8474 1.9896 0
M  V30 39 H 2.2722 -1.9957 0.746 0
M  V30 40 H 4.6026 1.5756 2.4132 0
M  V30 41 H 3.7786 -0.3791 -0.2891 0
M  V30 42 H 4.136 -0.5272 1.4209 0
M  V30 43 H 2.3894 5.1589 1.3672 0
M  V30 44 H 0.0907 -3.121 1.2074 0
M  V30 45 H 0.1419 -3.052 -0.5632 0
M  V30 46 H -2.0993 -0.6506 -2.6731 0
M  V30 47 H -1.2314 -2.1279 -2.2601 0
M  V30 48 H -0.3587 -0.6259 -2.428 0
M  V30 49 H -2.0422 -3.7732 -0.5717 0
M  V30 50 H -3.1756 -2.0405 1.8373 0
M  V30 51 H -1.8592 -4.486 1.5495 0
M  V30 52 H -5.7676 -1.1358 -1.5329 0
M  V30 53 H -5.5279 -1.1924 0.2256 0
M  V30 54 H -4.7189 0.0665 -0.7617 0
M  V30 END ATOM
M  V30 BEGIN BOND
M  V30 1 1 1 2
M  V30 2 1 2 3
M  V30 3 1 2 4
M  V30 4 1 2 5
M  V30 5 1 3 6
M  V30 6 1 3 7
M  V30 7 1 3 8
M  V30 8 1 4 9
M  V30 9 1 4 10
M  V30 10 1 5 11
M  V30 11 1 5 12
M  V30 12 2 6 13
M  V30 13 1 6 14
M  V30 14 2 7 15
M  V30 15 1 10 16
M  V30 16 1 11 17
M  V30 17 1 13 18
M  V30 18 1 16 19
M  V30 19 1 16 20
M  V30 20 1 17 21
M  V30 21 2 18 22
M  V30 22 1 19 23
M  V30 23 1 19 24
M  V30 24 1 21 25
M  V30 25 2 24 26
M  V30 26 1 24 27
M  V30 27 1 11 16
M  V30 28 1 12 14
M  V30 29 1 15 18
M  V30 30 1 19 21
M  V30 31 1 4 28
M  V30 32 1 5 29
M  V30 33 1 7 30
M  V30 34 1 8 31
M  V30 35 1 8 32
M  V30 36 1 8 33
M  V30 37 1 9 34
M  V30 38 1 10 35
M  V30 39 1 10 36
M  V30 40 1 11 37
M  V30 41 1 12 38
M  V30 42 1 12 39
M  V30 43 1 13 40
M  V30 44 1 14 41
M  V30 45 1 14 42
M  V30 46 1 15 43
M  V30 47 1 17 44
M  V30 48 1 17 45
M  V30 49 1 20 46
M  V30 50 1 20 47
M  V30 51 1 20 48
M  V30 52 1 21 49
M  V30 53 1 23 50
M  V30 54 1 25 51
M  V30 55 1 27 52
M  V30 56 1 27 53
M  V30 57 1 27 54
M  V30 END BOND
M  V30 BEGIN COLLECTION
M  V30 MDLV30/STEABS ATOMS=(8 2 3 4 5 11 16 19 21)
M  V30 END COLLECTION
M  V30 END CTAB
M  END
>  <Column 1>
1056

>  <level_0>
1194

>  <index>
1194

>  <Unnamed: 0>
1194

>  <NO.>
1206

>  <Name>
descinolone(descinolone-acetonide)

>  <IUPAC_name>
(8s-9r-10s-11s-13s-14s-16r-17s)-17-acetyl-9-fluoro-11-16-17-trihydroxy-10-13-dimethyl-6-7-8-11-12-14-15-16-octahydrocyclopenta[a]phenanthren-3-one

>  <SMILES>
CC(=O)[C@@]1(O)[C@H](O)C[C@H]2[C@@H]3CCC4=CC(=O)C=C[C@]4(C)[C@@]3(F)[C@@H](O)C[C@@]21C

>  <CID>
250822

>  <logBB>


>  <BBB+/BBB->
BBB+

>  <Inchi>
InChI=1S/C21H27FO5/c1-11(23)21(27)16(25)9-15-14-5-4-12-8-13(24)6-7-18(12-2)20(14-22)17(26)10-19(15-21)3/h6-8-14-17-25-27H-4-5-9-10H2-1-3H3/t14--15--16+-17--18--19--20--21+/m0/s1

>  <threshold>
-1

>  <reference>
R1|R6|R27|R30|

>  <group>
B

>  <Class>
1

>  <ABC>
21.8

>  <ABCGG>
18.32

>  <nAcid>
0

>  <nBase>
0

>  <nAromAtom>
0

>  <nAromBond>
0

>  <nAtom>
54

>  <nHeavyAtom>
27

>  <nSpiro>
0

>  <nBridgehead>
0

>  <nHetero>
6

>  <nN>
0

>  <nO>
5

>  <nF>
1

>  <BalabanJ>
1.78

>  <BertzCT>
789.44

>  <nBonds>
57

>  <nBondsO>
30

>  <nBondsS>
53

>  <nBondsD>
4

>  <nBondsT>
0

>  <nBondsA>
0

>  <nBondsM>
4

>  <nBondsKS>
53

>  <nBondsKD>
4

>  <RNCG>
0.16

>  <RPCG>
0.09

>  <FCSP3>
0.71

>  <SZ>
33.67

>  <Sm>
31.51

>  <Sv>
32.54

>  <Sse>
54.6

>  <Sp>
34.52

>  <Si>
61.2

>  <MZ>
0.62

>  <Mm>
0.58

>  <Mv>
0.6

>  <Mse>
1.01

>  <Mp>
0.64

>  <Mi>
1.13

>  <NsCH3>
3

>  <NdCH2>
0

>  <NssCH2>
4

>  <NtCH>
0

>  <NdsCH>
3

>  <NaaCH>
0

>  <NsssCH>
4

>  <NddC>
0

>  <NtsC>
0

>  <NdssC>
3

>  <NaasC>
0

>  <NaaaC>
0

>  <NssssC>
4

>  <NsNH3>
0

>  <NsNH2>
0

>  <NssNH2>
0

>  <NdNH>
0

>  <NssNH>
0

>  <NaaNH>
0

>  <NtN>
0

>  <NsssNH>
0

>  <NdsN>
0

>  <NaaN>
0

>  <NsssN>
0

>  <NddsN>
0

>  <NaasN>
0

>  <NssssN>
0

>  <NsOH>
3

>  <NdO>
2

>  <NssO>
0

>  <NaaO>
0

>  <NsF>
1

>  <NsSiH3>
0

>  <NssSiH2>
0

>  <NsssSiH>
0

>  <NssssSi>
0

>  <NsPH2>
0

>  <NssPH>
0

>  <NsssP>
0

>  <NdsssP>
0

>  <NsssssP>
0

>  <NsSH>
0

>  <NdS>
0

>  <NssS>
0

>  <NaaS>
0

>  <NdssS>
0

>  <NddssS>
0

>  <NsCl>
0

>  <NsBr>
0

>  <NsI>
0

>  <fragCpx>
198.06

>  <fMF>
0.31

>  <nHBAcc>
5

>  <nHBDon>
3

>  <Kier1>
20.28

>  <Kier2>
6.01

>  <Lipinski>
1

>  <GhoseFilter>
1

>  <FilterItLogS>
-2.4

>  <VMcGowan>
277.22

>  <LabuteASA>
157.51

>  <PEOE_VSA1>
15.32

>  <PEOE_VSA2>
9.59

>  <PEOE_VSA3>
4.39

>  <PEOE_VSA4>
0

>  <PEOE_VSA5>
0

>  <PEOE_VSA6>
18.57

>  <PEOE_VSA7>
57.6

>  <PEOE_VSA8>
16.75

>  <PEOE_VSA9>
12.21

>  <PEOE_VSA10>
0

>  <PEOE_VSA11>
22.84

>  <PEOE_VSA12>
0

>  <PEOE_VSA13>
0

>  <SMR_VSA1>
29.3

>  <SMR_VSA2>
0

>  <SMR_VSA3>
0

>  <SMR_VSA4>
22.67

>  <SMR_VSA5>
69.93

>  <SMR_VSA6>
0

>  <SMR_VSA7>
23.8

>  <SMR_VSA8>
0

>  <SMR_VSA9>
0

>  <SlogP_VSA1>
0

>  <SlogP_VSA2>
50.36

>  <SlogP_VSA3>
9.59

>  <SlogP_VSA4>
22.67

>  <SlogP_VSA5>
46.45

>  <SlogP_VSA6>
23.8

>  <SlogP_VSA7>
0

>  <SlogP_VSA8>
0

>  <SlogP_VSA9>
0

>  <SlogP_VSA10>
4.39

>  <SlogP_VSA11>
0

>  <EState_VSA1>
51.93

>  <EState_VSA2>
18.62

>  <EState_VSA3>
18.41

>  <EState_VSA4>
0

>  <EState_VSA5>
19.08

>  <EState_VSA6>
19.92

>  <EState_VSA7>
0

>  <EState_VSA8>
0

>  <EState_VSA9>
0

>  <EState_VSA10>
24.91

>  <VSA_EState1>
16.74

>  <VSA_EState2>
24.06

>  <VSA_EState3>
32.69

>  <VSA_EState4>
-5.57

>  <VSA_EState5>
-1.81

>  <VSA_EState6>
0

>  <VSA_EState7>
2.57

>  <VSA_EState8>
4.63

>  <VSA_EState9>
0

>  <apol>
57.64

>  <bpol>
29.94

>  <nRing>
4

>  <nHRing>
0

>  <naRing>
0

>  <naHRing>
0

>  <nARing 2>
4

>  <nAHRing 2>
0

>  <nFRing>
1

>  <nFHRing>
0

>  <nFaRing>
0

>  <nFaHRing>
0

>  <nFARing 2>
1

>  <nFAHRing 2>
0

>  <nRot>
1

>  <SLogP>
1.65

>  <SMR>
95.38

>  <TopoPSA(NO)>
94.83

>  <TopoPSA>
94.83

>  <JGI1>
0.33

>  <JGI2>
0.16

>  <JGI3>
0.08

>  <JGI4>
0.06

>  <JGI5>
0.04

>  <Diameter>
11

>  <Radius>
6

>  <TMWC10>
138.51

>  <TSRW10>
78.98

>  <MW>
378.18

>  <AMW>
7

>  <WPath>
1497

>  <WPol>
68

>  <Zagreb1>
164

>  <Zagreb2>
216

>  <mZagreb2>
5.49

>  <yes>


>  <nAR-cont>
0.199399

>  <nHA-cont>
0.860070871

>  <MWHBN>
0.411377664

>  <MWHBN-cont>
0.431439326

>  <TPSA-cont>
0.338027714

>  <pka_cont>
0.97

>  <yes.1>


>  <BBB_SCORE>
2.867684289

>  <MMFF94 Energy>
165.39

$$$$
Compound 883
Actelion Java MolfileCreator 2.0

  0  0  0  0  0  0              0 V3000
M  V30 BEGIN CTAB
M  V30 COUNTS 55 58 0 0 0
M  V30 BEGIN ATOM
M  V30 1 O -0.5633 -4.675 -4.5943 0
M  V30 2 C -0.2385 -4.0149 -3.6105 0
M  V30 3 C 0.3413 -2.6654 -3.7979 0
M  V30 4 C -0.3228 -4.56 -2.21 0
M  V30 5 C 0.6839 -1.8888 -2.7544 0
M  V30 6 C -0.5993 -3.4394 -1.2181 0
M  V30 7 C 0.4249 -2.2677 -1.2898 0 CFG=2
M  V30 8 C 1.388 -0.576 -3.0032 0
M  V30 9 C -0.1833 -1.0295 -0.5246 0 CFG=2
M  V30 10 C 1.7616 -2.7321 -0.6691 0
M  V30 11 C 0.7277 0.5779 -2.2601 0
M  V30 12 C 0.6237 0.2848 -0.7572 0 CFG=1
M  V30 13 C -0.4392 -1.2873 0.9839 0
M  V30 14 C -0.0678 1.4328 -0.0096 0 CFG=1
M  V30 15 C -1.0222 -0.0703 1.7247 0
M  V30 16 C -0.1708 1.1943 1.5185 0 CFG=2
M  V30 17 C 0.5257 2.8371 -0.1238 0
M  V30 18 C -0.8209 2.5418 1.9493 0 CFG=1
M  V30 19 C 1.2097 1.0048 2.2024 0
M  V30 20 C -0.0579 3.5982 1.0844 0 CFG=2
M  V30 21 O -2.2031 2.5721 1.5592 0
M  V30 22 C -0.6995 2.8608 3.4512 0
M  V30 23 O -0.9844 4.5992 0.6393 0
M  V30 24 O 0.2849 3.4317 3.9276 0
M  V30 25 C -1.8262 2.4138 4.3487 0
M  V30 26 H 0.5194 -2.3793 -4.8288 0
M  V30 27 H -1.1423 -5.2861 -2.1687 0
M  V30 28 H 0.6096 -5.0847 -1.9802 0
M  V30 29 H -0.6257 -3.8692 -0.2097 0
M  V30 30 H -1.609 -3.0535 -1.4175 0
M  V30 31 H 2.4334 -0.6676 -2.6838 0
M  V30 32 H 1.4136 -0.3358 -4.0732 0
M  V30 33 H -1.1782 -0.8515 -0.9649 0
M  V30 34 H 1.6151 -3.1674 0.3248 0
M  V30 35 H 2.2454 -3.4998 -1.2842 0
M  V30 36 H 2.4781 -1.9114 -0.5658 0
M  V30 37 H 1.3182 1.4859 -2.4286 0
M  V30 38 H -0.2696 0.7649 -2.6787 0
M  V30 39 H 1.6427 0.1671 -0.3736 0
M  V30 40 H 0.4852 -1.5982 1.4801 0
M  V30 41 H -1.1453 -2.116 1.1065 0
M  V30 42 H -1.0871 1.4997 -0.4243 0
M  V30 43 H -1.1045 -0.3072 2.7916 0
M  V30 44 H -2.0455 0.0884 1.3631 0
M  V30 45 H 0.2701 3.3081 -1.0784 0
M  V30 46 H 1.6182 2.7956 -0.0488 0
M  V30 47 H 1.7803 0.1705 1.787 0
M  V30 48 H 1.8456 1.8916 2.1189 0
M  V30 49 H 1.0841 0.7938 3.2707 0
M  V30 50 H 0.7484 4.1032 1.6259 0
M  V30 51 H -2.3444 3.4846 1.2212 0
M  V30 52 H -0.4672 5.2602 0.1432 0
M  V30 53 H -1.5514 2.5871 5.3932 0
M  V30 54 H -2.7275 2.9895 4.1251 0
M  V30 55 H -2.0145 1.3472 4.2151 0
M  V30 END ATOM
M  V30 BEGIN BOND
M  V30 1 2 1 2
M  V30 2 1 2 3
M  V30 3 1 2 4
M  V30 4 2 3 5
M  V30 5 1 4 6
M  V30 6 1 5 7
M  V30 7 1 5 8
M  V30 8 1 7 9
M  V30 9 1 7 10
M  V30 10 1 8 11
M  V30 11 1 9 12
M  V30 12 1 9 13
M  V30 13 1 12 14
M  V30 14 1 13 15
M  V30 15 1 14 16
M  V30 16 1 14 17
M  V30 17 1 16 18
M  V30 18 1 16 19
M  V30 19 1 17 20
M  V30 20 1 18 21
M  V30 21 1 18 22
M  V30 22 1 20 23
M  V30 23 2 22 24
M  V30 24 1 22 25
M  V30 25 1 6 7
M  V30 26 1 11 12
M  V30 27 1 15 16
M  V30 28 1 18 20
M  V30 29 1 3 26
M  V30 30 1 4 27
M  V30 31 1 4 28
M  V30 32 1 6 29
M  V30 33 1 6 30
M  V30 34 1 8 31
M  V30 35 1 8 32
M  V30 36 1 9 33
M  V30 37 1 10 34
M  V30 38 1 10 35
M  V30 39 1 10 36
M  V30 40 1 11 37
M  V30 41 1 11 38
M  V30 42 1 12 39
M  V30 43 1 13 40
M  V30 44 1 13 41
M  V30 45 1 14 42
M  V30 46 1 15 43
M  V30 47 1 15 44
M  V30 48 1 17 45
M  V30 49 1 17 46
M  V30 50 1 19 47
M  V30 51 1 19 48
M  V30 52 1 19 49
M  V30 53 1 20 50
M  V30 54 1 21 51
M  V30 55 1 23 52
M  V30 56 1 25 53
M  V30 57 1 25 54
M  V30 58 1 25 55
M  V30 END BOND
M  V30 BEGIN COLLECTION
M  V30 MDLV30/STEABS ATOMS=(7 7 9 12 14 16 18 20)
M  V30 END COLLECTION
M  V30 END CTAB
M  END
>  <Column 1>
1057

>  <level_0>
1195

>  <index>
1195

>  <Unnamed: 0>
1195

>  <NO.>
1207

>  <Name>
algestone

>  <IUPAC_name>
(8r-9s-10r-13s-14s-16r-17s)-17-acetyl-16-17-dihydroxy-10-13-dimethyl-2-6-7-8-9-11-12-14-15-16-decahydro-1h-cyclopenta[a]phenanthren-3-one

>  <SMILES>
CC(=O)[C@@]1(O)[C@H](O)C[C@H]2[C@@H]3CCC4=CC(=O)CC[C@]4(C)[C@H]3CC[C@@]21C

>  <CID>
11687

>  <logBB>


>  <BBB+/BBB->
BBB+

>  <Inchi>
InChI=1S/C21H30O4/c1-12(22)21(25)18(24)11-17-15-5-4-13-10-14(23)6-8-19(13-2)16(15)7-9-20(17-21)3/h10-15-18-24-25H-4-9-11H2-1-3H3/t15--16+-17+-18--19+-20+-21-/m1/s1

>  <threshold>
-1

>  <reference>
R1|R6|R27|R30|

>  <group>
B

>  <Class>
1

>  <ABC>
20.23

>  <ABCGG>
16.5

>  <nAcid>
0

>  <nBase>
0

>  <nAromAtom>
0

>  <nAromBond>
0

>  <nAtom>
55

>  <nHeavyAtom>
25

>  <nSpiro>
0

>  <nBridgehead>
0

>  <nHetero>
4

>  <nN>
0

>  <nO>
4

>  <nF>
0

>  <BalabanJ>
1.66

>  <BertzCT>
666.81

>  <nBonds>
58

>  <nBondsO>
28

>  <nBondsS>
55

>  <nBondsD>
3

>  <nBondsT>
0

>  <nBondsA>
0

>  <nBondsM>
3

>  <nBondsKS>
55

>  <nBondsKD>
3

>  <RNCG>
0.21

>  <RPCG>
0.11

>  <FCSP3>
0.81

>  <SZ>
31.33

>  <Sm>
28.85

>  <Sv>
31.99

>  <Sse>
54.64

>  <Sp>
34.9

>  <Si>
62.07

>  <MZ>
0.57

>  <Mm>
0.52

>  <Mv>
0.58

>  <Mse>
0.99

>  <Mp>
0.63

>  <Mi>
1.13

>  <NsCH3>
3

>  <NdCH2>
0

>  <NssCH2>
7

>  <NtCH>
0

>  <NdsCH>
1

>  <NaaCH>
0

>  <NsssCH>
4

>  <NddC>
0

>  <NtsC>
0

>  <NdssC>
3

>  <NaasC>
0

>  <NaaaC>
0

>  <NssssC>
3

>  <NsNH3>
0

>  <NsNH2>
0

>  <NssNH2>
0

>  <NdNH>
0

>  <NssNH>
0

>  <NaaNH>
0

>  <NtN>
0

>  <NsssNH>
0

>  <NdsN>
0

>  <NaaN>
0

>  <NsssN>
0

>  <NddsN>
0

>  <NaasN>
0

>  <NssssN>
0

>  <NsOH>
2

>  <NdO>
2

>  <NssO>
0

>  <NaaO>
0

>  <NsF>
0

>  <NsSiH3>
0

>  <NssSiH2>
0

>  <NsssSiH>
0

>  <NssssSi>
0

>  <NsPH2>
0

>  <NssPH>
0

>  <NsssP>
0

>  <NdsssP>
0

>  <NsssssP>
0

>  <NsSH>
0

>  <NdS>
0

>  <NssS>
0

>  <NaaS>
0

>  <NdssS>
0

>  <NddssS>
0

>  <NsCl>
0

>  <NsBr>
0

>  <NsI>
0

>  <fragCpx>
184.04

>  <fMF>
0.31

>  <nHBAcc>
4

>  <nHBDon>
2

>  <Kier1>
18.37

>  <Kier2>
5.75

>  <Lipinski>
1

>  <GhoseFilter>
1

>  <FilterItLogS>
-3.2

>  <VMcGowan>
273.89

>  <LabuteASA>
149.24

>  <PEOE_VSA1>
10.21

>  <PEOE_VSA2>
9.59

>  <PEOE_VSA3>
0

>  <PEOE_VSA4>
0

>  <PEOE_VSA5>
0

>  <PEOE_VSA6>
19.42

>  <PEOE_VSA7>
74.69

>  <PEOE_VSA8>
11.84

>  <PEOE_VSA9>
6.1

>  <PEOE_VSA10>
0

>  <PEOE_VSA11>
17.17

>  <PEOE_VSA12>
0

>  <PEOE_VSA13>
0

>  <SMR_VSA1>
19.8

>  <SMR_VSA2>
0

>  <SMR_VSA3>
0

>  <SMR_VSA4>
28.58

>  <SMR_VSA5>
77.42

>  <SMR_VSA6>
0

>  <SMR_VSA7>
11.65

>  <SMR_VSA8>
0

>  <SMR_VSA9>
0

>  <SlogP_VSA1>
0

>  <SlogP_VSA2>
33.48

>  <SlogP_VSA3>
9.59

>  <SlogP_VSA4>
28.58

>  <SlogP_VSA5>
65.72

>  <SlogP_VSA6>
11.65

>  <SlogP_VSA7>
0

>  <SlogP_VSA8>
0

>  <SlogP_VSA9>
0

>  <SlogP_VSA10>
0

>  <SlogP_VSA11>
0

>  <EState_VSA1>
17.12

>  <EState_VSA2>
22.9

>  <EState_VSA3>
24.68

>  <EState_VSA4>
32.1

>  <EState_VSA5>
12.5

>  <EState_VSA6>
0

>  <EState_VSA7>
13

>  <EState_VSA8>
6.92

>  <EState_VSA9>
0

>  <EState_VSA10>
19.8

>  <VSA_EState1>
0

>  <VSA_EState2>
24.15

>  <VSA_EState3>
21.77

>  <VSA_EState4>
-0.77

>  <VSA_EState5>
1.03

>  <VSA_EState6>
0

>  <VSA_EState7>
6.66

>  <VSA_EState8>
5.75

>  <VSA_EState9>
0

>  <apol>
58.28

>  <bpol>
31.83

>  <nRing>
4

>  <nHRing>
0

>  <naRing>
0

>  <naHRing>
0

>  <nARing 2>
4

>  <nAHRing 2>
0

>  <nFRing>
1

>  <nFHRing>
0

>  <nFaRing>
0

>  <nFaHRing>
0

>  <nFARing 2>
1

>  <nFAHRing 2>
0

>  <nRot>
1

>  <SLogP>
2.81

>  <SMR>
93.73

>  <TopoPSA(NO)>
74.6

>  <TopoPSA>
74.6

>  <JGI1>
0.3

>  <JGI2>
0.15

>  <JGI3>
0.08

>  <JGI4>
0.05

>  <JGI5>
0.04

>  <Diameter>
11

>  <Radius>
6

>  <TMWC10>
133.01

>  <TSRW10>
76.34

>  <MW>
346.21

>  <AMW>
6.29

>  <WPath>
1283

>  <WPol>
58

>  <Zagreb1>
150

>  <Zagreb2>
194

>  <mZagreb2>
5.12

>  <yes>


>  <nAR-cont>
0.199399

>  <nHA-cont>
0.921834225

>  <MWHBN>
0.322464156

>  <MWHBN-cont>
0.76884812

>  <TPSA-cont>
0.479245676

>  <pka_cont>
0.97

>  <yes.1>


>  <BBB_SCORE>
3.717996758

>  <MMFF94 Energy>
116.69

$$$$
Compound 884
Actelion Java MolfileCreator 2.0

  0  0  0  0  0  0              0 V3000
M  V30 BEGIN CTAB
M  V30 COUNTS 57 60 0 0 0
M  V30 BEGIN ATOM
M  V30 1 O -4.5661 -0.2399 -3.363 0
M  V30 2 C -4.1609 -0.7113 -2.3004 0
M  V30 3 C -2.6952 -1.0714 -2.066 0 CFG=2
M  V30 4 C -5.1138 -0.9221 -1.1518 0
M  V30 5 C -1.8899 -0.075 -1.196 0 CFG=2
M  V30 6 C -1.875 -1.1719 -3.378 0
M  V30 7 C -0.455 -0.5344 -1.5426 0 CFG=1
M  V30 8 C -2.0652 -0.2339 0.3213 0
M  V30 9 C -2.2016 1.3852 -1.6112 0
M  V30 10 C -0.4693 -0.6371 -3.0618 0
M  V30 11 C 0.6298 0.3168 -0.8717 0 CFG=1
M  V30 12 C -0.9973 0.5461 1.1101 0
M  V30 13 C 0.4559 0.2194 0.6772 0 CFG=2
M  V30 14 C 2.0345 -0.124 -1.3031 0
M  V30 15 C 1.5614 1.0347 1.4481 0 CFG=2
M  V30 16 C 3.1299 0.6323 -0.5576 0
M  V30 17 C 2.9787 0.5688 0.9713 0 CFG=2
M  V30 18 C 1.471 0.8467 2.9911 0
M  V30 19 C 1.41 2.5571 1.193 0
M  V30 20 C 3.3479 -0.8393 1.484 0
M  V30 21 C 1.817 -0.5585 3.4661 0
M  V30 22 C 3.2095 -0.9614 2.9983 0 CFG=1
M  V30 23 O 3.4771 -2.3017 3.3969 0
M  V30 24 H -2.6867 -2.068 -1.6025 0
M  V30 25 H -4.8424 -1.8232 -0.5963 0
M  V30 26 H -5.0944 -0.0528 -0.4919 0
M  V30 27 H -6.1268 -1.0568 -1.5415 0
M  V30 28 H -1.8225 -2.2186 -3.6999 0
M  V30 29 H -2.3075 -0.606 -4.2095 0
M  V30 30 H -0.3223 -1.5642 -1.1699 0
M  V30 31 H -1.9992 -1.2941 0.598 0
M  V30 32 H -3.0569 0.1062 0.6382 0
M  V30 33 H -3.2151 1.667 -1.3036 0
M  V30 34 H -2.1414 1.5335 -2.694 0
M  V30 35 H -1.5243 2.1104 -1.1529 0
M  V30 36 H -0.3146 0.3401 -3.5322 0
M  V30 37 H 0.3053 -1.3124 -3.4384 0
M  V30 38 H 0.5073 1.3567 -1.1911 0
M  V30 39 H -1.1344 0.3034 2.1693 0
M  V30 40 H -1.1939 1.6181 1.0115 0
M  V30 41 H 0.5957 -0.8402 0.9318 0
M  V30 42 H 2.165 0.0475 -2.3782 0
M  V30 43 H 2.1548 -1.2026 -1.1483 0
M  V30 44 H 3.1243 1.6796 -0.8826 0
M  V30 45 H 4.1081 0.234 -0.8536 0
M  V30 46 H 3.7245 1.257 1.3953 0
M  V30 47 H 0.4796 1.124 3.3652 0
M  V30 48 H 2.1687 1.5437 3.4768 0
M  V30 49 H 2.235 3.1127 1.6547 0
M  V30 50 H 1.4086 2.8151 0.1315 0
M  V30 51 H 0.4841 2.9474 1.6282 0
M  V30 52 H 2.7377 -1.6128 1.0036 0
M  V30 53 H 4.3816 -1.0788 1.2023 0
M  V30 54 H 1.775 -0.6013 4.5615 0
M  V30 55 H 1.0701 -1.2826 3.1198 0
M  V30 56 H 3.9579 -0.3253 3.4848 0
M  V30 57 H 2.8215 -2.8792 2.9704 0
M  V30 END ATOM
M  V30 BEGIN BOND
M  V30 1 2 1 2
M  V30 2 1 2 3
M  V30 3 1 2 4
M  V30 4 1 3 5
M  V30 5 1 3 6
M  V30 6 1 5 7
M  V30 7 1 5 8
M  V30 8 1 5 9
M  V30 9 1 6 10
M  V30 10 1 7 11
M  V30 11 1 8 12
M  V30 12 1 11 13
M  V30 13 1 11 14
M  V30 14 1 13 15
M  V30 15 1 14 16
M  V30 16 1 15 17
M  V30 17 1 15 18
M  V30 18 1 15 19
M  V30 19 1 17 20
M  V30 20 1 18 21
M  V30 21 1 20 22
M  V30 22 1 22 23
M  V30 23 1 7 10
M  V30 24 1 12 13
M  V30 25 1 16 17
M  V30 26 1 21 22
M  V30 27 1 3 24
M  V30 28 1 4 25
M  V30 29 1 4 26
M  V30 30 1 4 27
M  V30 31 1 6 28
M  V30 32 1 6 29
M  V30 33 1 7 30
M  V30 34 1 8 31
M  V30 35 1 8 32
M  V30 36 1 9 33
M  V30 37 1 9 34
M  V30 38 1 9 35
M  V30 39 1 10 36
M  V30 40 1 10 37
M  V30 41 1 11 38
M  V30 42 1 12 39
M  V30 43 1 12 40
M  V30 44 1 13 41
M  V30 45 1 14 42
M  V30 46 1 14 43
M  V30 47 1 16 44
M  V30 48 1 16 45
M  V30 49 1 17 46
M  V30 50 1 18 47
M  V30 51 1 18 48
M  V30 52 1 19 49
M  V30 53 1 19 50
M  V30 54 1 19 51
M  V30 55 1 20 52
M  V30 56 1 20 53
M  V30 57 1 21 54
M  V30 58 1 21 55
M  V30 59 1 22 56
M  V30 60 1 23 57
M  V30 END BOND
M  V30 BEGIN COLLECTION
M  V30 MDLV30/STEABS ATOMS=(8 3 5 7 11 13 15 17 22)
M  V30 END COLLECTION
M  V30 END CTAB
M  END
>  <Column 1>
1058

>  <level_0>
1196

>  <index>
1196

>  <Unnamed: 0>
1196

>  <NO.>
1208

>  <Name>
pregnanolone

>  <IUPAC_name>
1-[(3r-5r-8r-9s-10s-13s-14s-17s)-3-hydroxy-10-13-dimethyl-2-3-4-5-6-7-8-9-11-12-14-15-16-17-tetradecahydro-1h-cyclopenta[a]phenanthren-17-yl]ethanone

>  <SMILES>
CC(=O)[C@H]1CC[C@H]2[C@@H]3CC[C@@H]4C[C@H](O)CC[C@]4(C)[C@H]3CC[C@]12C

>  <CID>
31402

>  <logBB>


>  <BBB+/BBB->
BBB+

>  <Inchi>
InChI=1S/C21H34O2/c1-13(22)17-6-7-18-16-5-4-14-12-15(23)8-10-20(14-2)19(16)9-11-21(17-18)3/h14-19-23H-4-12H2-1-3H3/t14--15--16+-17--18+-19+-20+-21-/m1/s1

>  <threshold>
-1

>  <reference>
R1|R27|R30|

>  <group>
B

>  <Class>
1

>  <ABC>
18.66

>  <ABCGG>
14.99

>  <nAcid>
0

>  <nBase>
0

>  <nAromAtom>
0

>  <nAromBond>
0

>  <nAtom>
57

>  <nHeavyAtom>
23

>  <nSpiro>
0

>  <nBridgehead>
0

>  <nHetero>
2

>  <nN>
0

>  <nO>
2

>  <nF>
0

>  <BalabanJ>
1.6

>  <BertzCT>
500.07

>  <nBonds>
60

>  <nBondsO>
26

>  <nBondsS>
59

>  <nBondsD>
1

>  <nBondsT>
0

>  <nBondsA>
0

>  <nBondsM>
1

>  <nBondsKS>
59

>  <nBondsKD>
1

>  <RNCG>
0.29

>  <RPCG>
0.15

>  <FCSP3>
0.95

>  <SZ>
29.33

>  <Sm>
26.52

>  <Sv>
31.64

>  <Sse>
55.75

>  <Sp>
35.54

>  <Si>
64.48

>  <MZ>
0.51

>  <Mm>
0.47

>  <Mv>
0.56

>  <Mse>
0.98

>  <Mp>
0.62

>  <Mi>
1.13

>  <NsCH3>
3

>  <NdCH2>
0

>  <NssCH2>
9

>  <NtCH>
0

>  <NdsCH>
0

>  <NaaCH>
0

>  <NsssCH>
6

>  <NddC>
0

>  <NtsC>
0

>  <NdssC>
1

>  <NaasC>
0

>  <NaaaC>
0

>  <NssssC>
2

>  <NsNH3>
0

>  <NsNH2>
0

>  <NssNH2>
0

>  <NdNH>
0

>  <NssNH>
0

>  <NaaNH>
0

>  <NtN>
0

>  <NsssNH>
0

>  <NdsN>
0

>  <NaaN>
0

>  <NsssN>
0

>  <NddsN>
0

>  <NaasN>
0

>  <NssssN>
0

>  <NsOH>
1

>  <NdO>
1

>  <NssO>
0

>  <NaaO>
0

>  <NsF>
0

>  <NsSiH3>
0

>  <NssSiH2>
0

>  <NsssSiH>
0

>  <NssssSi>
0

>  <NsPH2>
0

>  <NssPH>
0

>  <NsssP>
0

>  <NdsssP>
0

>  <NsssssP>
0

>  <NsSH>
0

>  <NdS>
0

>  <NssS>
0

>  <NaaS>
0

>  <NdssS>
0

>  <NddssS>
0

>  <NsCl>
0

>  <NsBr>
0

>  <NsI>
0

>  <fragCpx>
170.02

>  <fMF>
0.3

>  <nHBAcc>
2

>  <nHBDon>
1

>  <Kier1>
16.47

>  <Kier2>
5.5

>  <Lipinski>
1

>  <GhoseFilter>
1

>  <FilterItLogS>
-3.7

>  <VMcGowan>
270.75

>  <LabuteASA>
140.97

>  <PEOE_VSA1>
5.11

>  <PEOE_VSA2>
4.79

>  <PEOE_VSA3>
0

>  <PEOE_VSA4>
0

>  <PEOE_VSA5>
0

>  <PEOE_VSA6>
13.85

>  <PEOE_VSA7>
99.21

>  <PEOE_VSA8>
5.92

>  <PEOE_VSA9>
6.1

>  <PEOE_VSA10>
5.78

>  <PEOE_VSA11>
0

>  <PEOE_VSA12>
0

>  <PEOE_VSA13>
0

>  <SMR_VSA1>
9.9

>  <SMR_VSA2>
0

>  <SMR_VSA3>
0

>  <SMR_VSA4>
40.42

>  <SMR_VSA5>
84.66

>  <SMR_VSA6>
0

>  <SMR_VSA7>
0

>  <SMR_VSA8>
0

>  <SMR_VSA9>
0

>  <SlogP_VSA1>
0

>  <SlogP_VSA2>
16.99

>  <SlogP_VSA3>
4.79

>  <SlogP_VSA4>
40.42

>  <SlogP_VSA5>
78.56

>  <SlogP_VSA6>
0

>  <SlogP_VSA7>
0

>  <SlogP_VSA8>
0

>  <SlogP_VSA9>
0

>  <SlogP_VSA10>
0

>  <SlogP_VSA11>
0

>  <EState_VSA1>
0

>  <EState_VSA2>
11.52

>  <EState_VSA3>
17.12

>  <EState_VSA4>
42.93

>  <EState_VSA5>
38.52

>  <EState_VSA6>
0

>  <EState_VSA7>
6.92

>  <EState_VSA8>
13.85

>  <EState_VSA9>
0

>  <EState_VSA10>
9.9

>  <VSA_EState1>
0

>  <VSA_EState2>
12.17

>  <VSA_EState3>
10.11

>  <VSA_EState4>
0.74

>  <VSA_EState5>
3.97

>  <VSA_EState6>
0

>  <VSA_EState7>
10.88

>  <VSA_EState8>
6.8

>  <VSA_EState9>
0

>  <apol>
59.34

>  <bpol>
34.98

>  <nRing>
4

>  <nHRing>
0

>  <naRing>
0

>  <naHRing>
0

>  <nARing 2>
4

>  <nAHRing 2>
0

>  <nFRing>
1

>  <nFHRing>
0

>  <nFaRing>
0

>  <nFaHRing>
0

>  <nFARing 2>
1

>  <nFAHRing 2>
0

>  <nRot>
1

>  <SLogP>
4.6

>  <SMR>
91.9

>  <TopoPSA(NO)>
37.3

>  <TopoPSA>
37.3

>  <JGI1>
0.27

>  <JGI2>
0.13

>  <JGI3>
0.07

>  <JGI4>
0.06

>  <JGI5>
0.03

>  <Diameter>
11

>  <Radius>
6

>  <TMWC10>
127.44

>  <TSRW10>
73.11

>  <MW>
318.26

>  <AMW>
5.58

>  <WPath>
1052

>  <WPol>
48

>  <Zagreb1>
136

>  <Zagreb2>
172

>  <mZagreb2>
4.75

>  <yes>


>  <nAR-cont>
0.199399

>  <nHA-cont>
0.967789328

>  <MWHBN>
0.168162914

>  <MWHBN-cont>
0.971009464

>  <TPSA-cont>
0.739622838

>  <pka_cont>
0.97

>  <yes.1>


>  <BBB_SCORE>
4.587948199

>  <MMFF94 Energy>
76.996

$$$$
Compound 885
Actelion Java MolfileCreator 2.0

  0  0  0  0  0  0              0 V3000
M  V30 BEGIN CTAB
M  V30 COUNTS 56 59 0 0 0
M  V30 BEGIN ATOM
M  V30 1 O -1.9282 1.7674 0.1605 0
M  V30 2 C -0.7927 1.3157 0.2938 0
M  V30 3 C -0.176 0.2495 -0.6372 0 CFG=2
M  V30 4 C 0.1165 1.8786 1.3811 0
M  V30 5 C -1.1175 -0.3309 -1.7522 0 CFG=2
M  V30 6 C 0.4901 -0.8736 0.2177 0 CFG=2
M  V30 7 C 0.7015 0.7351 2.2139 0 CFG=1
M  V30 8 C -0.2562 -1.3148 -2.6141 0 CFG=2
M  V30 9 C -1.6119 0.7965 -2.7054 0
M  V30 10 C -2.3435 -1.0421 -1.1247 0
M  V30 11 C 1.4313 -0.2241 1.2428 0 CFG=1
M  V30 12 C 1.2388 -1.88 -0.6668 0
M  V30 13 C 1.8867 1.1253 3.1306 0 CFG=1
M  V30 14 C -0.4316 0.0641 3.0314 0
M  V30 15 C -1.0156 -1.8739 -3.8298 0
M  V30 16 C 0.3599 -2.4432 -1.7798 0
M  V30 17 C -2.3544 0.2763 -3.9433 0
M  V30 18 C 2.2314 -1.1304 2.1691 0
M  V30 19 C 1.5099 1.772 4.4629 0
M  V30 20 C 2.682 -0.1941 3.3004 0
M  V30 21 C -1.5454 -0.7544 -4.7255 0 CFG=1
M  V30 22 O 1.5253 1.1522 5.5262 0
M  V30 23 C 1.07 3.2133 4.429 0
M  V30 24 O -0.4338 -0.1103 -5.3491 0
M  V30 25 H 0.63 0.7901 -1.1582 0
M  V30 26 H -0.4673 2.5645 2.0033 0
M  V30 27 H 0.8995 2.4674 0.8895 0
M  V30 28 H -0.2812 -1.4305 0.76 0
M  V30 29 H 0.5906 -0.7379 -3.0175 0
M  V30 30 H -2.2835 1.4868 -2.1854 0
M  V30 31 H -0.7537 1.3959 -3.0369 0
M  V30 32 H -2.0602 -1.8216 -0.4132 0
M  V30 33 H -2.975 -1.5239 -1.8761 0
M  V30 34 H -2.9868 -0.3374 -0.589 0
M  V30 35 H 2.1717 0.3594 0.67 0
M  V30 36 H 2.1175 -1.3976 -1.1142 0
M  V30 37 H 1.6126 -2.7122 -0.0591 0
M  V30 38 H 2.5455 1.8352 2.6108 0
M  V30 39 H -0.0679 -0.7611 3.6513 0
M  V30 40 H -1.2275 -0.3342 2.395 0
M  V30 41 H -0.9073 0.788 3.703 0
M  V30 42 H -0.3319 -2.5035 -4.4135 0
M  V30 43 H -1.8409 -2.5177 -3.5066 0
M  V30 44 H -0.4188 -3.0867 -1.3554 0
M  V30 45 H 0.9761 -3.0858 -2.4206 0
M  V30 46 H -3.3137 -0.1601 -3.6438 0
M  V30 47 H -2.5858 1.1327 -4.5886 0
M  V30 48 H 1.6148 -1.9441 2.5666 0
M  V30 49 H 3.0905 -1.5831 1.6638 0
M  V30 50 H 3.7562 0.0109 3.2223 0
M  V30 51 H 2.5223 -0.6806 4.2682 0
M  V30 52 H -2.1592 -1.1853 -5.5241 0
M  V30 53 H 1.6576 3.7699 3.6948 0
M  V30 54 H 0.0081 3.2696 4.1824 0
M  V30 55 H 1.2369 3.6664 5.4105 0
M  V30 56 H -0.7898 0.5707 -5.9455 0
M  V30 END ATOM
M  V30 BEGIN BOND
M  V30 1 2 1 2
M  V30 2 1 2 3
M  V30 3 1 2 4
M  V30 4 1 3 5
M  V30 5 1 3 6
M  V30 6 1 4 7
M  V30 7 1 5 8
M  V30 8 1 5 9
M  V30 9 1 5 10
M  V30 10 1 6 11
M  V30 11 1 6 12
M  V30 12 1 7 13
M  V30 13 1 7 14
M  V30 14 1 8 15
M  V30 15 1 8 16
M  V30 16 1 9 17
M  V30 17 1 11 18
M  V30 18 1 13 19
M  V30 19 1 13 20
M  V30 20 1 15 21
M  V30 21 2 19 22
M  V30 22 1 19 23
M  V30 23 1 21 24
M  V30 24 1 7 11
M  V30 25 1 12 16
M  V30 26 1 17 21
M  V30 27 1 18 20
M  V30 28 1 3 25
M  V30 29 1 4 26
M  V30 30 1 4 27
M  V30 31 1 6 28
M  V30 32 1 8 29
M  V30 33 1 9 30
M  V30 34 1 9 31
M  V30 35 1 10 32
M  V30 36 1 10 33
M  V30 37 1 10 34
M  V30 38 1 11 35
M  V30 39 1 12 36
M  V30 40 1 12 37
M  V30 41 1 13 38
M  V30 42 1 14 39
M  V30 43 1 14 40
M  V30 44 1 14 41
M  V30 45 1 15 42
M  V30 46 1 15 43
M  V30 47 1 16 44
M  V30 48 1 16 45
M  V30 49 1 17 46
M  V30 50 1 17 47
M  V30 51 1 18 48
M  V30 52 1 18 49
M  V30 53 1 20 50
M  V30 54 1 20 51
M  V30 55 1 21 52
M  V30 56 1 23 53
M  V30 57 1 23 54
M  V30 58 1 23 55
M  V30 59 1 24 56
M  V30 END BOND
M  V30 BEGIN COLLECTION
M  V30 MDLV30/STEABS ATOMS=(8 3 5 6 7 8 11 13 21)
M  V30 END COLLECTION
M  V30 END CTAB
M  END
>  <Column 1>
1059

>  <level_0>
1197

>  <index>
1197

>  <Unnamed: 0>
1197

>  <NO.>
1209

>  <Name>
alphaxalone

>  <IUPAC_name>
(3r-5s-8s-9s-10s-13s-14s-17s)-17-acetyl-3-hydroxy-10-13-dimethyl-1-2-3-4-5-6-7-8-9-12-14-15-16-17-tetradecahydrocyclopenta[a]phenanthren-11-one

>  <SMILES>
CC(=O)[C@H]1CC[C@H]2[C@@H]3CC[C@H]4C[C@H](O)CC[C@]4(C)[C@H]3C(=O)C[C@]12C

>  <CID>
104845

>  <logBB>


>  <BBB+/BBB->
BBB+

>  <Inchi>
InChI=1S/C21H32O3/c1-12(22)16-6-7-17-15-5-4-13-10-14(23)8-9-20(13-2)19(15)18(24)11-21(16-17)3/h13-17-19-23H-4-11H2-1-3H3/t13--14+-15--16+-17--19+-20--21+/m0/s1

>  <threshold>
-1

>  <reference>
R1|R6|R27|R30|

>  <group>
B

>  <Class>
1

>  <ABC>
19.44

>  <ABCGG>
15.89

>  <nAcid>
0

>  <nBase>
0

>  <nAromAtom>
0

>  <nAromBond>
0

>  <nAtom>
56

>  <nHeavyAtom>
24

>  <nSpiro>
0

>  <nBridgehead>
0

>  <nHetero>
3

>  <nN>
0

>  <nO>
3

>  <nF>
0

>  <BalabanJ>
1.66

>  <BertzCT>
569.43

>  <nBonds>
59

>  <nBondsO>
27

>  <nBondsS>
57

>  <nBondsD>
2

>  <nBondsT>
0

>  <nBondsA>
0

>  <nBondsM>
2

>  <nBondsKS>
57

>  <nBondsKD>
2

>  <RNCG>
0.26

>  <RPCG>
0.14

>  <FCSP3>
0.9

>  <SZ>
30.33

>  <Sm>
27.68

>  <Sv>
31.81

>  <Sse>
55.2

>  <Sp>
35.22

>  <Si>
63.27

>  <MZ>
0.54

>  <Mm>
0.49

>  <Mv>
0.57

>  <Mse>
0.99

>  <Mp>
0.63

>  <Mi>
1.13

>  <NsCH3>
3

>  <NdCH2>
0

>  <NssCH2>
8

>  <NtCH>
0

>  <NdsCH>
0

>  <NaaCH>
0

>  <NsssCH>
6

>  <NddC>
0

>  <NtsC>
0

>  <NdssC>
2

>  <NaasC>
0

>  <NaaaC>
0

>  <NssssC>
2

>  <NsNH3>
0

>  <NsNH2>
0

>  <NssNH2>
0

>  <NdNH>
0

>  <NssNH>
0

>  <NaaNH>
0

>  <NtN>
0

>  <NsssNH>
0

>  <NdsN>
0

>  <NaaN>
0

>  <NsssN>
0

>  <NddsN>
0

>  <NaasN>
0

>  <NssssN>
0

>  <NsOH>
1

>  <NdO>
2

>  <NssO>
0

>  <NaaO>
0

>  <NsF>
0

>  <NsSiH3>
0

>  <NssSiH2>
0

>  <NsssSiH>
0

>  <NssssSi>
0

>  <NsPH2>
0

>  <NssPH>
0

>  <NsssP>
0

>  <NdsssP>
0

>  <NsssssP>
0

>  <NsSH>
0

>  <NdS>
0

>  <NssS>
0

>  <NaaS>
0

>  <NdssS>
0

>  <NddssS>
0

>  <NsCl>
0

>  <NsBr>
0

>  <NsI>
0

>  <fragCpx>
177.03

>  <fMF>
0.3

>  <nHBAcc>
3

>  <nHBDon>
1

>  <Kier1>
17.42

>  <Kier2>
5.75

>  <Lipinski>
1

>  <GhoseFilter>
1

>  <FilterItLogS>
-3.59

>  <VMcGowan>
272.32

>  <LabuteASA>
145.13

>  <PEOE_VSA1>
5.11

>  <PEOE_VSA2>
9.59

>  <PEOE_VSA3>
0

>  <PEOE_VSA4>
0

>  <PEOE_VSA5>
0

>  <PEOE_VSA6>
13.85

>  <PEOE_VSA7>
80.45

>  <PEOE_VSA8>
18.26

>  <PEOE_VSA9>
6.1

>  <PEOE_VSA10>
11.57

>  <PEOE_VSA11>
0

>  <PEOE_VSA12>
0

>  <PEOE_VSA13>
0

>  <SMR_VSA1>
14.7

>  <SMR_VSA2>
0

>  <SMR_VSA3>
0

>  <SMR_VSA4>
40.42

>  <SMR_VSA5>
78.24

>  <SMR_VSA6>
0

>  <SMR_VSA7>
0

>  <SMR_VSA8>
0

>  <SMR_VSA9>
0

>  <SlogP_VSA1>
0

>  <SlogP_VSA2>
22.78

>  <SlogP_VSA3>
9.59

>  <SlogP_VSA4>
40.42

>  <SlogP_VSA5>
72.14

>  <SlogP_VSA6>
0

>  <SlogP_VSA7>
0

>  <SlogP_VSA8>
0

>  <SlogP_VSA9>
0

>  <SlogP_VSA10>
0

>  <SlogP_VSA11>
0

>  <EState_VSA1>
0

>  <EState_VSA2>
34.55

>  <EState_VSA3>
29.96

>  <EState_VSA4>
44.95

>  <EState_VSA5>
0

>  <EState_VSA6>
6.92

>  <EState_VSA7>
0

>  <EState_VSA8>
13.85

>  <EState_VSA9>
0

>  <EState_VSA10>
14.7

>  <VSA_EState1>
0

>  <VSA_EState2>
25.47

>  <VSA_EState3>
10.09

>  <VSA_EState4>
-0.02

>  <VSA_EState5>
2.48

>  <VSA_EState6>
0

>  <VSA_EState7>
7.53

>  <VSA_EState8>
6.28

>  <VSA_EState9>
0

>  <apol>
58.81

>  <bpol>
33.84

>  <nRing>
4

>  <nHRing>
0

>  <naRing>
0

>  <naHRing>
0

>  <nARing 2>
4

>  <nAHRing 2>
0

>  <nFRing>
1

>  <nFHRing>
0

>  <nFaRing>
0

>  <nFaHRing>
0

>  <nFARing 2>
1

>  <nFAHRing 2>
0

>  <nRot>
1

>  <SLogP>
3.77

>  <SMR>
92.29

>  <TopoPSA(NO)>
54.37

>  <TopoPSA>
54.37

>  <JGI1>
0.28

>  <JGI2>
0.12

>  <JGI3>
0.07

>  <JGI4>
0.06

>  <JGI5>
0.04

>  <Diameter>
11

>  <Radius>
6

>  <TMWC10>
130.07

>  <TSRW10>
74.36

>  <MW>
332.24

>  <AMW>
5.93

>  <WPath>
1149

>  <WPol>
51

>  <Zagreb1>
142

>  <Zagreb2>
180

>  <mZagreb2>
4.94

>  <yes>


>  <nAR-cont>
0.199399

>  <nHA-cont>
0.94700071

>  <MWHBN>
0.219449215

>  <MWHBN-cont>
0.995302829

>  <TPSA-cont>
0.620463638

>  <pka_cont>
0.97

>  <yes.1>


>  <BBB_SCORE>
4.365281229

>  <MMFF94 Energy>
77.861

$$$$
Compound 886
Actelion Java MolfileCreator 2.0

  0  0  0  0  0  0              0 V3000
M  V30 BEGIN CTAB
M  V30 COUNTS 60 63 0 0 0
M  V30 BEGIN ATOM
M  V30 1 O 1.3587 -5.8446 1.4387 0
M  V30 2 C 0.3896 -5.2401 0.9792 0
M  V30 3 C -0.0342 -3.8615 1.4824 0 CFG=2
M  V30 4 C -0.4113 -5.8372 -0.1491 0
M  V30 5 C 0.3432 -2.6687 0.5696 0 CFG=2
M  V30 6 C 0.588 -3.4955 2.8549 0
M  V30 7 C 0.147 -1.5077 1.5723 0 CFG=1
M  V30 8 C -0.6052 -2.4172 -0.6125 0
M  V30 9 C 1.7974 -2.8168 0.0544 0
M  V30 10 C 0.8752 -1.986 2.8211 0
M  V30 11 C 0.5095 -0.1374 0.9874 0 CFG=1
M  V30 12 C -0.3651 -1.0415 -1.2613 0
M  V30 13 C -0.4045 0.1327 -0.2502 0 CFG=2
M  V30 14 C 0.371 0.9765 2.0351 0
M  V30 15 C -0.1351 1.5488 -0.8838 0 CFG=2
M  V30 16 C 0.5946 2.3657 1.4423 0
M  V30 17 C -0.3322 2.6097 0.2447 0 CFG=1
M  V30 18 C -1.1707 1.8534 -2.0015 0
M  V30 19 C 1.2851 1.6136 -1.5019 0
M  V30 20 C -0.2136 4.0576 -0.2632 0
M  V30 21 C -1.1038 3.2929 -2.5295 0
M  V30 22 C -1.178 4.3562 -1.4239 0 CFG=1
M  V30 23 O -2.5169 4.4133 -0.9191 0
M  V30 24 C -0.887 5.7422 -2.005 0
M  V30 25 H -1.1239 -3.8988 1.6216 0
M  V30 26 H -1.4687 -5.5848 -0.0368 0
M  V30 27 H -0.0352 -5.467 -1.1046 0
M  V30 28 H -0.3186 -6.9266 -0.1222 0
M  V30 29 H -0.1225 -3.7316 3.6559 0
M  V30 30 H 1.5097 -4.0425 3.0778 0
M  V30 31 H -0.9215 -1.4617 1.8427 0
M  V30 32 H -0.4911 -3.1931 -1.377 0
M  V30 33 H -1.6483 -2.4672 -0.2742 0
M  V30 34 H 2.1667 -1.9139 -0.4386 0
M  V30 35 H 2.5031 -3.052 0.8575 0
M  V30 36 H 1.8664 -3.6255 -0.6818 0
M  V30 37 H 0.5103 -1.4926 3.7277 0
M  V30 38 H 1.9529 -1.8006 2.7538 0
M  V30 39 H 1.5583 -0.1549 0.6748 0
M  V30 40 H -1.1359 -0.8996 -2.0268 0
M  V30 41 H 0.593 -1.0596 -1.7894 0
M  V30 42 H -1.4395 0.1554 0.1275 0
M  V30 43 H -0.6283 0.9376 2.4875 0
M  V30 44 H 1.0899 0.8209 2.848 0
M  V30 45 H 0.4005 3.1139 2.2208 0
M  V30 46 H 1.645 2.4856 1.1539 0
M  V30 47 H -1.3569 2.4953 0.6288 0
M  V30 48 H -1.0256 1.1781 -2.8531 0
M  V30 49 H -2.1838 1.6585 -1.6269 0
M  V30 50 H 1.5351 2.613 -1.8688 0
M  V30 51 H 2.0684 1.3404 -0.7909 0
M  V30 52 H 1.375 0.9392 -2.36 0
M  V30 53 H -0.4367 4.7361 0.5711 0
M  V30 54 H 0.8199 4.2639 -0.565 0
M  V30 55 H -0.1815 3.4188 -3.1089 0
M  V30 56 H -1.9353 3.4325 -3.2324 0
M  V30 57 H -2.7704 3.5328 -0.5991 0
M  V30 58 H -0.9937 6.5174 -1.2372 0
M  V30 59 H -1.6024 5.9908 -2.7975 0
M  V30 60 H 0.1242 5.8033 -2.4201 0
M  V30 END ATOM
M  V30 BEGIN BOND
M  V30 1 2 1 2
M  V30 2 1 2 3
M  V30 3 1 2 4
M  V30 4 1 3 5
M  V30 5 1 3 6
M  V30 6 1 5 7
M  V30 7 1 5 8
M  V30 8 1 5 9
M  V30 9 1 6 10
M  V30 10 1 7 11
M  V30 11 1 8 12
M  V30 12 1 11 13
M  V30 13 1 11 14
M  V30 14 1 13 15
M  V30 15 1 14 16
M  V30 16 1 15 17
M  V30 17 1 15 18
M  V30 18 1 15 19
M  V30 19 1 17 20
M  V30 20 1 18 21
M  V30 21 1 20 22
M  V30 22 1 22 23
M  V30 23 1 22 24
M  V30 24 1 7 10
M  V30 25 1 12 13
M  V30 26 1 16 17
M  V30 27 1 21 22
M  V30 28 1 3 25
M  V30 29 1 4 26
M  V30 30 1 4 27
M  V30 31 1 4 28
M  V30 32 1 6 29
M  V30 33 1 6 30
M  V30 34 1 7 31
M  V30 35 1 8 32
M  V30 36 1 8 33
M  V30 37 1 9 34
M  V30 38 1 9 35
M  V30 39 1 9 36
M  V30 40 1 10 37
M  V30 41 1 10 38
M  V30 42 1 11 39
M  V30 43 1 12 40
M  V30 44 1 12 41
M  V30 45 1 13 42
M  V30 46 1 14 43
M  V30 47 1 14 44
M  V30 48 1 16 45
M  V30 49 1 16 46
M  V30 50 1 17 47
M  V30 51 1 18 48
M  V30 52 1 18 49
M  V30 53 1 19 50
M  V30 54 1 19 51
M  V30 55 1 19 52
M  V30 56 1 20 53
M  V30 57 1 20 54
M  V30 58 1 21 55
M  V30 59 1 21 56
M  V30 60 1 23 57
M  V30 61 1 24 58
M  V30 62 1 24 59
M  V30 63 1 24 60
M  V30 END BOND
M  V30 BEGIN COLLECTION
M  V30 MDLV30/STEABS ATOMS=(8 3 5 7 11 13 15 17 22)
M  V30 END COLLECTION
M  V30 END CTAB
M  END
>  <Column 1>
1060

>  <level_0>
1198

>  <index>
1198

>  <Unnamed: 0>
1198

>  <NO.>
1210

>  <Name>
ganaxolone

>  <IUPAC_name>
1-[(3r-5s-8r-9s-10s-13s-14s-17s)-3-hydroxy-3-10-13-trimethyl-1-2-4-5-6-7-8-9-11-12-14-15-16-17-tetradecahydrocyclopenta[a]phenanthren-17-yl]ethanone

>  <SMILES>
CC(=O)[C@H]1CC[C@H]2[C@@H]3CC[C@H]4C[C@](C)(O)CC[C@]4(C)[C@H]3CC[C@]12C

>  <CID>
6918305

>  <logBB>


>  <BBB+/BBB->
BBB+

>  <Inchi>
InChI=1S/C22H36O2/c1-14(23)17-7-8-18-16-6-5-15-13-20(2-24)11-12-21(15-3)19(16)9-10-22(17-18)4/h15-19-24H-5-13H2-1-4H3/t15--16--17+-18--19--20+-21--22+/m0/s1

>  <threshold>
-1

>  <reference>
R1|R27|R30|

>  <group>
B

>  <Class>
1

>  <ABC>
19.58

>  <ABCGG>
15.66

>  <nAcid>
0

>  <nBase>
0

>  <nAromAtom>
0

>  <nAromBond>
0

>  <nAtom>
60

>  <nHeavyAtom>
24

>  <nSpiro>
0

>  <nBridgehead>
0

>  <nHetero>
2

>  <nN>
0

>  <nO>
2

>  <nF>
0

>  <BalabanJ>
1.6

>  <BertzCT>
538.09

>  <nBonds>
63

>  <nBondsO>
27

>  <nBondsS>
62

>  <nBondsD>
1

>  <nBondsT>
0

>  <nBondsA>
0

>  <nBondsM>
1

>  <nBondsKS>
62

>  <nBondsKD>
1

>  <RNCG>
0.28

>  <RPCG>
0.15

>  <FCSP3>
0.95

>  <SZ>
30.67

>  <Sm>
27.69

>  <Sv>
33.18

>  <Sse>
58.64

>  <Sp>
37.33

>  <Si>
67.89

>  <MZ>
0.51

>  <Mm>
0.46

>  <Mv>
0.55

>  <Mse>
0.98

>  <Mp>
0.62

>  <Mi>
1.13

>  <NsCH3>
4

>  <NdCH2>
0

>  <NssCH2>
9

>  <NtCH>
0

>  <NdsCH>
0

>  <NaaCH>
0

>  <NsssCH>
5

>  <NddC>
0

>  <NtsC>
0

>  <NdssC>
1

>  <NaasC>
0

>  <NaaaC>
0

>  <NssssC>
3

>  <NsNH3>
0

>  <NsNH2>
0

>  <NssNH2>
0

>  <NdNH>
0

>  <NssNH>
0

>  <NaaNH>
0

>  <NtN>
0

>  <NsssNH>
0

>  <NdsN>
0

>  <NaaN>
0

>  <NsssN>
0

>  <NddsN>
0

>  <NaasN>
0

>  <NssssN>
0

>  <NsOH>
1

>  <NdO>
1

>  <NssO>
0

>  <NaaO>
0

>  <NsF>
0

>  <NsSiH3>
0

>  <NssSiH2>
0

>  <NsssSiH>
0

>  <NssssSi>
0

>  <NsPH2>
0

>  <NssPH>
0

>  <NsssP>
0

>  <NdsssP>
0

>  <NsssssP>
0

>  <NsSH>
0

>  <NdS>
0

>  <NssS>
0

>  <NaaS>
0

>  <NdssS>
0

>  <NddssS>
0

>  <NsCl>
0

>  <NsBr>
0

>  <NsI>
0

>  <fragCpx>
177.02

>  <fMF>
0.28

>  <nHBAcc>
2

>  <nHBDon>
1

>  <Kier1>
17.42

>  <Kier2>
5.5

>  <Lipinski>
1

>  <GhoseFilter>
1

>  <FilterItLogS>
-4.3

>  <VMcGowan>
284.84

>  <LabuteASA>
147.34

>  <PEOE_VSA1>
5.11

>  <PEOE_VSA2>
4.79

>  <PEOE_VSA3>
0

>  <PEOE_VSA4>
0

>  <PEOE_VSA5>
0

>  <PEOE_VSA6>
13.85

>  <PEOE_VSA7>
106.14

>  <PEOE_VSA8>
5.92

>  <PEOE_VSA9>
5.6

>  <PEOE_VSA10>
5.78

>  <PEOE_VSA11>
0

>  <PEOE_VSA12>
0

>  <PEOE_VSA13>
0

>  <SMR_VSA1>
9.9

>  <SMR_VSA2>
0

>  <SMR_VSA3>
0

>  <SMR_VSA4>
40.42

>  <SMR_VSA5>
91.08

>  <SMR_VSA6>
0

>  <SMR_VSA7>
0

>  <SMR_VSA8>
0

>  <SMR_VSA9>
0

>  <SlogP_VSA1>
0

>  <SlogP_VSA2>
16.49

>  <SlogP_VSA3>
4.79

>  <SlogP_VSA4>
40.42

>  <SlogP_VSA5>
85.48

>  <SlogP_VSA6>
0

>  <SlogP_VSA7>
0

>  <SlogP_VSA8>
0

>  <SlogP_VSA9>
0

>  <SlogP_VSA10>
0

>  <SlogP_VSA11>
0

>  <EState_VSA1>
5.6

>  <EState_VSA2>
5.41

>  <EState_VSA3>
23.03

>  <EState_VSA4>
37.02

>  <EState_VSA5>
38.52

>  <EState_VSA6>
0

>  <EState_VSA7>
13.85

>  <EState_VSA8>
13.85

>  <EState_VSA9>
0

>  <EState_VSA10>
9.9

>  <VSA_EState1>
0

>  <VSA_EState2>
12.2

>  <VSA_EState3>
10.57

>  <VSA_EState4>
0.27

>  <VSA_EState5>
3.89

>  <VSA_EState6>
0

>  <VSA_EState7>
10.79

>  <VSA_EState8>
8.85

>  <VSA_EState9>
0

>  <apol>
62.35

>  <bpol>
36.98

>  <nRing>
4

>  <nHRing>
0

>  <naRing>
0

>  <naHRing>
0

>  <nARing 2>
4

>  <nAHRing 2>
0

>  <nFRing>
1

>  <nFHRing>
0

>  <nFaRing>
0

>  <nFaHRing>
0

>  <nFARing 2>
1

>  <nFAHRing 2>
0

>  <nRot>
1

>  <SLogP>
4.99

>  <SMR>
96.52

>  <TopoPSA(NO)>
37.3

>  <TopoPSA>
37.3

>  <JGI1>
0.31

>  <JGI2>
0.13

>  <JGI3>
0.07

>  <JGI4>
0.06

>  <JGI5>
0.03

>  <Diameter>
11

>  <Radius>
6

>  <TMWC10>
130.01

>  <TSRW10>
74.43

>  <MW>
332.27

>  <AMW>
5.54

>  <WPath>
1189

>  <WPol>
50

>  <Zagreb1>
144

>  <Zagreb2>
181

>  <mZagreb2>
4.83

>  <yes>


>  <nAR-cont>
0.199399

>  <nHA-cont>
0.94700071

>  <MWHBN>
0.164579481

>  <MWHBN-cont>
0.964758752

>  <TPSA-cont>
0.739622838

>  <pka_cont>
0.97

>  <yes.1>


>  <BBB_SCORE>
4.557783514

>  <MMFF94 Energy>
84.443

$$$$
Compound 887
Actelion Java MolfileCreator 2.0

  0  0  0  0  0  0              0 V3000
M  V30 BEGIN CTAB
M  V30 COUNTS 55 59 0 0 0
M  V30 BEGIN ATOM
M  V30 1 O 1.2872 -5.2374 1.5287 0
M  V30 2 C 0.4108 -4.4081 1.7738 0
M  V30 3 C 0.6959 -2.9101 1.8644 0 CFG=2
M  V30 4 C -1.0163 -4.8508 1.9713 0
M  V30 5 C 0.2168 -2.0591 0.6626 0 CFG=2
M  V30 6 C 2.2074 -2.5825 1.9756 0
M  V30 7 C 1.0256 -0.768 0.9243 0 CFG=1
M  V30 8 C -1.2704 -1.674 0.6783 0
M  V30 9 C 0.5682 -2.7602 -0.6739 0
M  V30 10 C 2.4347 -1.2774 1.1961 0
M  V30 11 C 0.8244 0.304 -0.1545 0 CFG=1
M  V30 12 C -1.5855 -0.5722 -0.3488 0
M  V30 13 C -0.6857 0.6837 -0.2059 0 CFG=2
M  V30 14 C 1.6648 1.5552 0.1442 0
M  V30 15 C -0.985 1.799 -1.271 0 CFG=2
M  V30 16 C 1.4639 2.6373 -0.9073 0 CFG=2
M  V30 17 C 0.0105 2.9724 -1.1185 0
M  V30 18 C -2.3641 2.4732 -0.9674 0
M  V30 19 C -0.9778 1.2647 -2.7112 0
M  V30 20 O 2.0218 2.2006 -2.1424 0
M  V30 21 C -0.6677 4.0425 -0.3111 0
M  V30 22 C -0.2909 4.3341 -1.7361 0
M  V30 23 C -2.0551 3.5931 0.0369 0
M  V30 24 H 0.2192 -2.5563 2.7896 0
M  V30 25 H -1.5029 -4.2306 2.7281 0
M  V30 26 H -1.5572 -4.7852 1.0255 0
M  V30 27 H -1.0289 -5.8863 2.3231 0
M  V30 28 H 2.4794 -2.4512 3.0295 0
M  V30 29 H 2.8561 -3.3688 1.5764 0
M  V30 30 H 0.6742 -0.3284 1.8734 0
M  V30 31 H -1.5571 -1.3166 1.6758 0
M  V30 32 H -1.9016 -2.5437 0.468 0
M  V30 33 H 0.4291 -2.1115 -1.5425 0
M  V30 34 H 1.605 -3.11 -0.702 0
M  V30 35 H -0.071 -3.6364 -0.8309 0
M  V30 36 H 3.0269 -0.5662 1.7807 0
M  V30 37 H 2.9772 -1.4744 0.265 0
M  V30 38 H 1.1408 -0.0943 -1.1243 0
M  V30 39 H -1.4921 -0.995 -1.3539 0
M  V30 40 H -2.6388 -0.2966 -0.2316 0
M  V30 41 H -0.9228 1.1096 0.7811 0
M  V30 42 H 1.3979 1.9518 1.1321 0
M  V30 43 H 2.7262 1.2824 0.1739 0
M  V30 44 H 2.027 3.5272 -0.6013 0
M  V30 45 H -3.1248 1.789 -0.584 0
M  V30 46 H -2.7779 2.9211 -1.8805 0
M  V30 47 H -1.8299 0.6035 -2.8989 0
M  V30 48 H -1.0401 2.0814 -3.4392 0
M  V30 49 H -0.0628 0.709 -2.9354 0
M  V30 50 H 1.7986 2.8771 -2.8037 0
M  V30 51 H -0.1449 4.544 0.4902 0
M  V30 52 H 0.5272 5.028 -1.9017 0
M  V30 53 H -1.0709 4.419 -2.4838 0
M  V30 54 H -2.7789 4.41 -0.0382 0
M  V30 55 H -2.0748 3.2067 1.0616 0
M  V30 END ATOM
M  V30 BEGIN BOND
M  V30 1 2 1 2
M  V30 2 1 2 3
M  V30 3 1 2 4
M  V30 4 1 3 5
M  V30 5 1 3 6
M  V30 6 1 5 7
M  V30 7 1 5 8
M  V30 8 1 5 9
M  V30 9 1 6 10
M  V30 10 1 7 11
M  V30 11 1 8 12
M  V30 12 1 11 13
M  V30 13 1 11 14
M  V30 14 1 13 15
M  V30 15 1 14 16
M  V30 16 1 15 17
M  V30 17 1 15 18
M  V30 18 1 15 19
M  V30 19 1 16 20
M  V30 20 1 17 21
M  V30 21 1 17 22
M  V30 22 1 18 23
M  V30 23 1 7 10
M  V30 24 1 12 13
M  V30 25 1 16 17
M  V30 26 1 21 22
M  V30 27 1 21 23
M  V30 28 1 3 24
M  V30 29 1 4 25
M  V30 30 1 4 26
M  V30 31 1 4 27
M  V30 32 1 6 28
M  V30 33 1 6 29
M  V30 34 1 7 30
M  V30 35 1 8 31
M  V30 36 1 8 32
M  V30 37 1 9 33
M  V30 38 1 9 34
M  V30 39 1 9 35
M  V30 40 1 10 36
M  V30 41 1 10 37
M  V30 42 1 11 38
M  V30 43 1 12 39
M  V30 44 1 12 40
M  V30 45 1 13 41
M  V30 46 1 14 42
M  V30 47 1 14 43
M  V30 48 1 16 44
M  V30 49 1 18 45
M  V30 50 1 18 46
M  V30 51 1 19 47
M  V30 52 1 19 48
M  V30 53 1 19 49
M  V30 54 1 20 50
M  V30 55 1 21 51
M  V30 56 1 22 52
M  V30 57 1 22 53
M  V30 58 1 23 54
M  V30 59 1 23 55
M  V30 END BOND
M  V30 BEGIN COLLECTION
M  V30 MDLV30/STEABS ATOMS=(7 3 5 7 11 13 15 16)
M  V30 END COLLECTION
M  V30 END CTAB
M  END
>  <Column 1>
1061

>  <level_0>
1199

>  <index>
1199

>  <Unnamed: 0>
1199

>  <NO.>
1211

>  <Name>
schembl1554894

>  <IUPAC_name>
1-[(1s-2r-8r-10s-11s-14s-15s)-8-hydroxy-2-15-dimethyl-14-pentacyclo[8.7.0.02-7.05-7.011-15]heptadecanyl]ethanone

>  <SMILES>
CC(=O)[C@H]1CC[C@H]2[C@@H]3C[C@@H](O)C45CC4CC[C@]5(C)[C@H]3CC[C@]12C

>  <CID>
205953

>  <logBB>


>  <BBB+/BBB->
BBB+

>  <Inchi>
InChI=1S/C21H32O2/c1-12(22)15-4-5-16-14-10-18(23)21-11-13(21)6-9-20(21-3)17(14)7-8-19(15-16)2/h13-18-23H-4-11H2-1-3H3/t13?-14--15+-16--17--18+-19+-20+-21?/m0/s1

>  <threshold>
-1

>  <reference>
R1|R27|R30|

>  <group>
B

>  <Class>
1

>  <ABC>
19.21

>  <ABCGG>
16.96

>  <nAcid>
0

>  <nBase>
0

>  <nAromAtom>
0

>  <nAromBond>
0

>  <nAtom>
55

>  <nHeavyAtom>
23

>  <nSpiro>
1

>  <nBridgehead>
0

>  <nHetero>
2

>  <nN>
0

>  <nO>
2

>  <nF>
0

>  <BalabanJ>
1.51

>  <BertzCT>
570.19

>  <nBonds>
59

>  <nBondsO>
27

>  <nBondsS>
58

>  <nBondsD>
1

>  <nBondsT>
0

>  <nBondsA>
0

>  <nBondsM>
1

>  <nBondsKS>
58

>  <nBondsKD>
1

>  <RNCG>
0.29

>  <RPCG>
0.16

>  <FCSP3>
0.95

>  <SZ>
29

>  <Sm>
26.35

>  <Sv>
31.1

>  <Sse>
53.87

>  <Sp>
34.74

>  <Si>
62.06

>  <MZ>
0.53

>  <Mm>
0.48

>  <Mv>
0.57

>  <Mse>
0.98

>  <Mp>
0.63

>  <Mi>
1.13

>  <NsCH3>
3

>  <NdCH2>
0

>  <NssCH2>
8

>  <NtCH>
0

>  <NdsCH>
0

>  <NaaCH>
0

>  <NsssCH>
6

>  <NddC>
0

>  <NtsC>
0

>  <NdssC>
1

>  <NaasC>
0

>  <NaaaC>
0

>  <NssssC>
3

>  <NsNH3>
0

>  <NsNH2>
0

>  <NssNH2>
0

>  <NdNH>
0

>  <NssNH>
0

>  <NaaNH>
0

>  <NtN>
0

>  <NsssNH>
0

>  <NdsN>
0

>  <NaaN>
0

>  <NsssN>
0

>  <NddsN>
0

>  <NaasN>
0

>  <NssssN>
0

>  <NsOH>
1

>  <NdO>
1

>  <NssO>
0

>  <NaaO>
0

>  <NsF>
0

>  <NsSiH3>
0

>  <NssSiH2>
0

>  <NsssSiH>
0

>  <NssssSi>
0

>  <NsPH2>
0

>  <NssPH>
0

>  <NsssP>
0

>  <NdsssP>
0

>  <NsssssP>
0

>  <NsSH>
0

>  <NdS>
0

>  <NssS>
0

>  <NaaS>
0

>  <NdssS>
0

>  <NddssS>
0

>  <NsCl>
0

>  <NsBr>
0

>  <NsI>
0

>  <fragCpx>
223.02

>  <fMF>
0.31

>  <nHBAcc>
2

>  <nHBDon>
1

>  <Kier1>
15.27

>  <Kier2>
4.39

>  <Lipinski>
1

>  <GhoseFilter>
1

>  <FilterItLogS>
-3.69

>  <VMcGowan>
259.89

>  <LabuteASA>
139.96

>  <PEOE_VSA1>
5.11

>  <PEOE_VSA2>
4.79

>  <PEOE_VSA3>
0

>  <PEOE_VSA4>
0

>  <PEOE_VSA5>
0

>  <PEOE_VSA6>
13.85

>  <PEOE_VSA7>
92.79

>  <PEOE_VSA8>
11.33

>  <PEOE_VSA9>
6.1

>  <PEOE_VSA10>
5.78

>  <PEOE_VSA11>
0

>  <PEOE_VSA12>
0

>  <PEOE_VSA13>
0

>  <SMR_VSA1>
9.9

>  <SMR_VSA2>
0

>  <SMR_VSA3>
0

>  <SMR_VSA4>
45.83

>  <SMR_VSA5>
78.24

>  <SMR_VSA6>
0

>  <SMR_VSA7>
0

>  <SMR_VSA8>
0

>  <SMR_VSA9>
0

>  <SlogP_VSA1>
0

>  <SlogP_VSA2>
16.99

>  <SlogP_VSA3>
4.79

>  <SlogP_VSA4>
45.83

>  <SlogP_VSA5>
72.14

>  <SlogP_VSA6>
0

>  <SlogP_VSA7>
0

>  <SlogP_VSA8>
0

>  <SlogP_VSA9>
0

>  <SlogP_VSA10>
0

>  <SlogP_VSA11>
0

>  <EState_VSA1>
0

>  <EState_VSA2>
17.44

>  <EState_VSA3>
28.45

>  <EState_VSA4>
24.68

>  <EState_VSA5>
38.52

>  <EState_VSA6>
0

>  <EState_VSA7>
6.92

>  <EState_VSA8>
13.85

>  <EState_VSA9>
0

>  <EState_VSA10>
9.9

>  <VSA_EState1>
0

>  <VSA_EState2>
12.18

>  <VSA_EState3>
11.1

>  <VSA_EState4>
0.89

>  <VSA_EState5>
3.68

>  <VSA_EState6>
0

>  <VSA_EState7>
9.83

>  <VSA_EState8>
6.74

>  <VSA_EState9>
0

>  <apol>
58.01

>  <bpol>
32.97

>  <nRing>
5

>  <nHRing>
0

>  <naRing>
0

>  <naHRing>
0

>  <nARing 2>
5

>  <nAHRing 2>
0

>  <nFRing>
1

>  <nFHRing>
0

>  <nFaRing>
0

>  <nFaHRing>
0

>  <nFARing 2>
1

>  <nFAHRing 2>
0

>  <nRot>
1

>  <SLogP>
4.21

>  <SMR>
89.72

>  <TopoPSA(NO)>
37.3

>  <TopoPSA>
37.3

>  <JGI1>
0.28

>  <JGI2>
0.14

>  <JGI3>
0.08

>  <JGI4>
0.06

>  <JGI5>
0.04

>  <Diameter>
9

>  <Radius>
5

>  <TMWC10>
131.05

>  <TSRW10>
81.52

>  <MW>
316.24

>  <AMW>
5.75

>  <WPath>
995

>  <WPol>
51

>  <Zagreb1>
148

>  <Zagreb2>
198

>  <mZagreb2>
4.6

>  <yes>


>  <nAR-cont>
0

>  <nHA-cont>
0.967789328

>  <MWHBN>
0.168699134

>  <MWHBN-cont>
0.971889507

>  <TPSA-cont>
0.739622838

>  <pka_cont>
0.97

>  <yes.1>


>  <BBB_SCORE>
4.389869265

>  <MMFF94 Energy>
86.69

$$$$
Compound 888
Actelion Java MolfileCreator 2.0

  0  0  0  0  0  0              0 V3000
M  V30 BEGIN CTAB
M  V30 COUNTS 57 60 0 0 0
M  V30 BEGIN ATOM
M  V30 1 O -1.5263 3.9398 4.5842 0
M  V30 2 C -1.557 3.033 3.7562 0
M  V30 3 C -1.4057 3.3515 2.3167 0
M  V30 4 C -1.8331 1.6051 4.1344 0
M  V30 5 C -1.3592 2.3969 1.3666 0
M  V30 6 C -1.0478 0.6762 3.2248 0
M  V30 7 C -1.3392 0.8881 1.7077 0 CFG=2
M  V30 8 C -1.377 2.727 -0.1269 0 CFG=2
M  V30 9 C -0.1763 0.1862 0.896 0 CFG=1
M  V30 10 C -2.746 0.3288 1.3929 0
M  V30 11 C -0.2115 2.0375 -0.8439 0
M  V30 12 C -1.3734 4.2195 -0.4894 0
M  V30 13 C 0.0051 -1.3387 1.1665 0 CFG=1
M  V30 14 C -0.216 0.5164 -0.6272 0 CFG=1
M  V30 15 O -1.2032 -2.0457 0.9295 0
M  V30 16 C 1.1409 -1.9815 0.3393 0
M  V30 17 C 1.0051 -0.1246 -1.3023 0 CFG=1
M  V30 18 C 1.0517 -1.6617 -1.1652 0 CFG=1
M  V30 19 C 1.2325 0.108 -2.7902 0
M  V30 20 C 2.3443 -1.9493 -1.9739 0 CFG=2
M  V30 21 C -0.1521 -2.3862 -1.8186 0
M  V30 22 C 2.2647 -0.9655 -3.1708 0
M  V30 23 C 2.5495 -3.4017 -2.4024 0
M  V30 24 O 2.3687 -3.7846 -3.5581 0
M  V30 25 C 2.9598 -4.3831 -1.3347 0
M  V30 26 H -1.4059 4.4139 2.1033 0
M  V30 27 H -2.9107 1.4232 4.0762 0
M  V30 28 H -1.5147 1.4504 5.1712 0
M  V30 29 H 0.0218 0.8394 3.4183 0
M  V30 30 H -1.2602 -0.3589 3.518 0
M  V30 31 H -2.3128 2.3222 -0.5356 0
M  V30 32 H 0.7584 0.6438 1.2621 0
M  V30 33 H -2.9213 -0.6365 1.8778 0
M  V30 34 H -3.5348 0.9996 1.7555 0
M  V30 35 H -2.9105 0.1955 0.3195 0
M  V30 36 H -0.2788 2.2492 -1.9183 0
M  V30 37 H 0.7409 2.4622 -0.4988 0
M  V30 38 H -1.4159 4.352 -1.5765 0
M  V30 39 H -2.2462 4.7317 -0.0697 0
M  V30 40 H -0.4681 4.7207 -0.1296 0
M  V30 41 H 0.2504 -1.4863 2.2242 0
M  V30 42 H -1.134 0.1182 -1.0715 0
M  V30 43 H -1.0641 -2.9762 1.1765 0
M  V30 44 H 2.0984 -1.6161 0.7329 0
M  V30 45 H 1.1305 -3.0664 0.4912 0
M  V30 46 H 1.8931 0.291 -0.7956 0
M  V30 47 H 1.6126 1.1126 -3.001 0
M  V30 48 H 0.3079 -0.0248 -3.363 0
M  V30 49 H 3.2285 -1.669 -1.3841 0
M  V30 50 H -1.1175 -1.9988 -1.4873 0
M  V30 51 H -0.1468 -2.3018 -2.9104 0
M  V30 52 H -0.1349 -3.4561 -1.5816 0
M  V30 53 H 1.9739 -1.4418 -4.1126 0
M  V30 54 H 3.2474 -0.5084 -3.3365 0
M  V30 55 H 3.6413 -3.9068 -0.6255 0
M  V30 56 H 2.0744 -4.7544 -0.8152 0
M  V30 57 H 3.4856 -5.2231 -1.7975 0
M  V30 END ATOM
M  V30 BEGIN BOND
M  V30 1 2 1 2
M  V30 2 1 2 3
M  V30 3 1 2 4
M  V30 4 2 3 5
M  V30 5 1 4 6
M  V30 6 1 5 7
M  V30 7 1 5 8
M  V30 8 1 7 9
M  V30 9 1 7 10
M  V30 10 1 8 11
M  V30 11 1 8 12
M  V30 12 1 9 13
M  V30 13 1 9 14
M  V30 14 1 13 15
M  V30 15 1 13 16
M  V30 16 1 14 17
M  V30 17 1 16 18
M  V30 18 1 17 19
M  V30 19 1 18 20
M  V30 20 1 18 21
M  V30 21 1 19 22
M  V30 22 1 20 23
M  V30 23 2 23 24
M  V30 24 1 23 25
M  V30 25 1 6 7
M  V30 26 1 11 14
M  V30 27 1 17 18
M  V30 28 1 20 22
M  V30 29 1 3 26
M  V30 30 1 4 27
M  V30 31 1 4 28
M  V30 32 1 6 29
M  V30 33 1 6 30
M  V30 34 1 8 31
M  V30 35 1 9 32
M  V30 36 1 10 33
M  V30 37 1 10 34
M  V30 38 1 10 35
M  V30 39 1 11 36
M  V30 40 1 11 37
M  V30 41 1 12 38
M  V30 42 1 12 39
M  V30 43 1 12 40
M  V30 44 1 13 41
M  V30 45 1 14 42
M  V30 46 1 15 43
M  V30 47 1 16 44
M  V30 48 1 16 45
M  V30 49 1 17 46
M  V30 50 1 19 47
M  V30 51 1 19 48
M  V30 52 1 20 49
M  V30 53 1 21 50
M  V30 54 1 21 51
M  V30 55 1 21 52
M  V30 56 1 22 53
M  V30 57 1 22 54
M  V30 58 1 25 55
M  V30 59 1 25 56
M  V30 60 1 25 57
M  V30 END BOND
M  V30 BEGIN COLLECTION
M  V30 MDLV30/STEABS ATOMS=(8 7 8 9 13 14 17 18 20)
M  V30 END COLLECTION
M  V30 END CTAB
M  END
>  <Column 1>
1062

>  <level_0>
1200

>  <index>
1200

>  <Unnamed: 0>
1200

>  <NO.>
1212

>  <Name>
medrysone

>  <IUPAC_name>
(6s-8s-9s-10r-11s-13s-14s-17s)-17-acetyl-11-hydroxy-6-10-13-trimethyl-1-2-6-7-8-9-11-12-14-15-16-17-dodecahydrocyclopenta[a]phenanthren-3-one

>  <SMILES>
CC(=O)[C@H]1CC[C@H]2[C@@H]3C[C@H](C)C4=CC(=O)CC[C@]4(C)[C@H]3[C@@H](O)C[C@]12C

>  <CID>
247839

>  <logBB>


>  <BBB+/BBB->
BBB+

>  <Inchi>
InChI=1S/C22H32O3/c1-12-9-15-17-6-5-16(13(2)23)22(17-4)11-19(25)20(15)21(3)8-7-14(24)10-18(12)21/h10-12-15-17-19-20-25H-5-9-11H2-1-4H3/t12--15--16+-17--19--20+-21--22+/m0/s1

>  <threshold>
-1

>  <reference>
R1|R6|R27|R30|

>  <group>
B

>  <Class>
-1

>  <ABC>
20.22

>  <ABCGG>
16.73

>  <nAcid>
0

>  <nBase>
0

>  <nAromAtom>
0

>  <nAromBond>
0

>  <nAtom>
57

>  <nHeavyAtom>
25

>  <nSpiro>
0

>  <nBridgehead>
0

>  <nHetero>
3

>  <nN>
0

>  <nO>
3

>  <nF>
0

>  <BalabanJ>
1.69

>  <BertzCT>
649.66

>  <nBonds>
60

>  <nBondsO>
28

>  <nBondsS>
57

>  <nBondsD>
3

>  <nBondsT>
0

>  <nBondsA>
0

>  <nBondsM>
3

>  <nBondsKS>
57

>  <nBondsKD>
3

>  <RNCG>
0.25

>  <RPCG>
0.14

>  <FCSP3>
0.82

>  <SZ>
31.33

>  <Sm>
28.68

>  <Sv>
32.81

>  <Sse>
56.2

>  <Sp>
36.22

>  <Si>
64.27

>  <MZ>
0.55

>  <Mm>
0.5

>  <Mv>
0.58

>  <Mse>
0.99

>  <Mp>
0.64

>  <Mi>
1.13

>  <NsCH3>
4

>  <NdCH2>
0

>  <NssCH2>
6

>  <NtCH>
0

>  <NdsCH>
1

>  <NaaCH>
0

>  <NsssCH>
6

>  <NddC>
0

>  <NtsC>
0

>  <NdssC>
3

>  <NaasC>
0

>  <NaaaC>
0

>  <NssssC>
2

>  <NsNH3>
0

>  <NsNH2>
0

>  <NssNH2>
0

>  <NdNH>
0

>  <NssNH>
0

>  <NaaNH>
0

>  <NtN>
0

>  <NsssNH>
0

>  <NdsN>
0

>  <NaaN>
0

>  <NsssN>
0

>  <NddsN>
0

>  <NaasN>
0

>  <NssssN>
0

>  <NsOH>
1

>  <NdO>
2

>  <NssO>
0

>  <NaaO>
0

>  <NsF>
0

>  <NsSiH3>
0

>  <NssSiH2>
0

>  <NsssSiH>
0

>  <NssssSi>
0

>  <NsPH2>
0

>  <NssPH>
0

>  <NsssP>
0

>  <NdsssP>
0

>  <NsssssP>
0

>  <NsSH>
0

>  <NdS>
0

>  <NssS>
0

>  <NaaS>
0

>  <NdssS>
0

>  <NddssS>
0

>  <NsCl>
0

>  <NsBr>
0

>  <NsI>
0

>  <fragCpx>
184.03

>  <fMF>
0.3

>  <nHBAcc>
3

>  <nHBDon>
1

>  <Kier1>
18.37

>  <Kier2>
6

>  <Lipinski>
1

>  <GhoseFilter>
1

>  <FilterItLogS>
-3.72

>  <VMcGowan>
282.11

>  <LabuteASA>
150.81

>  <PEOE_VSA1>
5.11

>  <PEOE_VSA2>
9.59

>  <PEOE_VSA3>
0

>  <PEOE_VSA4>
0

>  <PEOE_VSA5>
0

>  <PEOE_VSA6>
26.34

>  <PEOE_VSA7>
79.61

>  <PEOE_VSA8>
12.34

>  <PEOE_VSA9>
6.1

>  <PEOE_VSA10>
5.78

>  <PEOE_VSA11>
5.78

>  <PEOE_VSA12>
0

>  <PEOE_VSA13>
0

>  <SMR_VSA1>
14.7

>  <SMR_VSA2>
0

>  <SMR_VSA3>
0

>  <SMR_VSA4>
40.42

>  <SMR_VSA5>
72.32

>  <SMR_VSA6>
0

>  <SMR_VSA7>
11.65

>  <SMR_VSA8>
0

>  <SMR_VSA9>
0

>  <SlogP_VSA1>
0

>  <SlogP_VSA2>
22.78

>  <SlogP_VSA3>
9.59

>  <SlogP_VSA4>
40.42

>  <SlogP_VSA5>
66.22

>  <SlogP_VSA6>
11.65

>  <SlogP_VSA7>
0

>  <SlogP_VSA8>
0

>  <SlogP_VSA9>
0

>  <SlogP_VSA10>
0

>  <SlogP_VSA11>
0

>  <EState_VSA1>
0

>  <EState_VSA2>
34.55

>  <EState_VSA3>
29.96

>  <EState_VSA4>
32.1

>  <EState_VSA5>
5.57

>  <EState_VSA6>
6.92

>  <EState_VSA7>
6.08

>  <EState_VSA8>
20.77

>  <EState_VSA9>
0

>  <EState_VSA10>
14.7

>  <VSA_EState1>
0

>  <VSA_EState2>
24.26

>  <VSA_EState3>
11.25

>  <VSA_EState4>
1.19

>  <VSA_EState5>
2.33

>  <VSA_EState6>
0

>  <VSA_EState7>
6.93

>  <VSA_EState8>
8.55

>  <VSA_EState9>
0

>  <apol>
60.48

>  <bpol>
33.84

>  <nRing>
4

>  <nHRing>
0

>  <naRing>
0

>  <naHRing>
0

>  <nARing 2>
4

>  <nAHRing 2>
0

>  <nFRing>
1

>  <nFHRing>
0

>  <nFaRing>
0

>  <nFaHRing>
0

>  <nFARing 2>
1

>  <nFAHRing 2>
0

>  <nRot>
1

>  <SLogP>
3.94

>  <SMR>
96.82

>  <TopoPSA(NO)>
54.37

>  <TopoPSA>
54.37

>  <JGI1>
0.29

>  <JGI2>
0.12

>  <JGI3>
0.08

>  <JGI4>
0.06

>  <JGI5>
0.04

>  <Diameter>
11

>  <Radius>
6

>  <TMWC10>
132.59

>  <TSRW10>
75.59

>  <MW>
344.24

>  <AMW>
6.04

>  <WPath>
1261

>  <WPol>
54

>  <Zagreb1>
148

>  <Zagreb2>
188

>  <mZagreb2>
5.14

>  <yes>


>  <nAR-cont>
0.199399

>  <nHA-cont>
0.921834225

>  <MWHBN>
0.215590354

>  <MWHBN-cont>
0.997367786

>  <TPSA-cont>
0.620463638

>  <pka_cont>
0.97

>  <yes.1>


>  <BBB_SCORE>
4.34321218

>  <MMFF94 Energy>
87.499

$$$$
Compound 889
Actelion Java MolfileCreator 2.0

  0  0  0  0  0  0              0 V3000
M  V30 BEGIN CTAB
M  V30 COUNTS 60 64 0 0 0
M  V30 BEGIN ATOM
M  V30 1 O -2.4284 -2.4284 -1.5374 0
M  V30 2 C -1.434 -2.8059 -0.9236 0
M  V30 3 C -0.3509 -1.8458 -0.6197 0
M  V30 4 C -1.3141 -4.2091 -0.4899 0
M  V30 5 C -0.4697 -0.4955 -0.9893 0
M  V30 6 C 0.7968 -2.2786 0.0404 0
M  V30 7 C -0.1696 -4.6396 0.1744 0
M  V30 8 C -2.3537 -5.1109 -0.7496 0
M  V30 9 O -1.5508 -0.0401 -1.7027 0
M  V30 10 C 0.5267 0.4432 -0.6616 0
M  V30 11 C 0.9275 -3.6942 0.4446 0
M  V30 12 C 1.834 -1.3667 0.2945 0
M  V30 13 C -0.0571 -5.9744 0.5832 0
M  V30 14 C -2.2414 -6.4409 -0.341 0
M  V30 15 C 1.7209 -0.0156 -0.072 0
M  V30 16 C 0.3143 1.9231 -0.9511 0 CFG=1
M  V30 17 O 1.9544 -4.0726 1.0018 0
M  V30 18 O 3.0054 -1.75 0.899 0
M  V30 19 C -1.0943 -6.8722 0.3247 0
M  V30 20 C 2.8688 0.9405 0.1748 0
M  V30 21 O -0.8451 2.4788 -0.2992 0
M  V30 22 C 1.5218 2.8451 -0.6785 0
M  V30 23 C 2.8687 2.1226 -0.8119 0 CFG=1
M  V30 24 C -0.9125 2.3083 1.118 0 CFG=2
M  V30 25 N 3.9337 3.0882 -0.4367 0
M  V30 26 C 3.1259 1.7072 -2.2881 0
M  V30 27 O -1.6758 1.1614 1.4865 0
M  V30 28 C -1.5064 3.5736 1.7305 0
M  V30 29 O 2.6376 2.3417 -3.2278 0
M  V30 30 C 4.0706 0.5628 -2.5645 0
M  V30 31 C -3.0495 1.2333 1.0852 0
M  V30 32 C -2.9619 3.7341 1.3093 0 CFG=1
M  V30 33 C -3.7606 2.469 1.6336 0 CFG=2
M  V30 34 O -3.5478 4.8371 2.0166 0
M  V30 35 O -3.9071 2.3611 3.0587 0
M  V30 36 H -3.2532 -4.783 -1.2682 0
M  V30 37 H -2.1856 -0.7813 -1.827 0
M  V30 38 H 0.8343 -6.32 1.1037 0
M  V30 39 H -3.05 -7.1409 -0.5416 0
M  V30 40 H 0.1108 1.9968 -2.0278 0
M  V30 41 H 2.9401 -2.7038 1.137 0
M  V30 42 H -1.0077 -7.9089 0.6436 0
M  V30 43 H 2.7796 1.3047 1.2077 0
M  V30 44 H 3.8266 0.4108 0.1086 0
M  V30 45 H 1.456 3.7073 -1.3575 0
M  V30 46 H 1.4486 3.2906 0.3224 0
M  V30 47 H 0.0859 2.1701 1.5452 0
M  V30 48 H 3.9219 3.8674 -1.0999 0
M  V30 49 H 4.8538 2.6565 -0.5177 0
M  V30 50 H -0.9386 4.459 1.4206 0
M  V30 51 H -1.4459 3.5256 2.8251 0
M  V30 52 H 3.6142 -0.3848 -2.2731 0
M  V30 53 H 5.0121 0.7161 -2.0319 0
M  V30 54 H 4.288 0.5243 -3.6362 0
M  V30 55 H -3.1081 1.2146 -0.0074 0
M  V30 56 H -3.5326 0.3255 1.4615 0
M  V30 57 H -3.0297 3.9482 0.2362 0
M  V30 58 H -4.7746 2.5416 1.2259 0
M  V30 59 H -3.0638 5.6376 1.7449 0
M  V30 60 H -4.1 3.2742 3.3542 0
M  V30 END ATOM
M  V30 BEGIN BOND
M  V30 1 2 1 2
M  V30 2 1 2 3
M  V30 3 1 2 4
M  V30 4 2 3 5
M  V30 5 1 3 6
M  V30 6 2 4 7
M  V30 7 1 4 8
M  V30 8 1 5 9
M  V30 9 1 5 10
M  V30 10 1 6 11
M  V30 11 2 6 12
M  V30 12 1 7 13
M  V30 13 2 8 14
M  V30 14 2 10 15
M  V30 15 1 10 16
M  V30 16 2 11 17
M  V30 17 1 12 18
M  V30 18 2 13 19
M  V30 19 1 15 20
M  V30 20 1 16 21
M  V30 21 1 16 22
M  V30 22 1 20 23
M  V30 23 1 21 24
M  V30 24 1 23 25
M  V30 25 1 23 26
M  V30 26 1 24 27
M  V30 27 1 24 28
M  V30 28 2 26 29
M  V30 29 1 26 30
M  V30 30 1 27 31
M  V30 31 1 28 32
M  V30 32 1 31 33
M  V30 33 1 32 34
M  V30 34 1 33 35
M  V30 35 1 7 11
M  V30 36 1 12 15
M  V30 37 1 14 19
M  V30 38 1 22 23
M  V30 39 1 32 33
M  V30 40 1 8 36
M  V30 41 1 9 37
M  V30 42 1 13 38
M  V30 43 1 14 39
M  V30 44 1 16 40
M  V30 45 1 18 41
M  V30 46 1 19 42
M  V30 47 1 20 43
M  V30 48 1 20 44
M  V30 49 1 22 45
M  V30 50 1 22 46
M  V30 51 1 24 47
M  V30 52 1 25 48
M  V30 53 1 25 49
M  V30 54 1 28 50
M  V30 55 1 28 51
M  V30 56 1 30 52
M  V30 57 1 30 53
M  V30 58 1 30 54
M  V30 59 1 31 55
M  V30 60 1 31 56
M  V30 61 1 32 57
M  V30 62 1 33 58
M  V30 63 1 34 59
M  V30 64 1 35 60
M  V30 END BOND
M  V30 BEGIN COLLECTION
M  V30 MDLV30/STEABS ATOMS=(5 16 23 24 32 33)
M  V30 END COLLECTION
M  V30 END CTAB
M  END
>  <Column 1>
1063

>  <level_0>
1201

>  <index>
1201

>  <Unnamed: 0>
1201

>  <NO.>
1213

>  <Name>
amrubicin

>  <IUPAC_name>
(7s-9s)-9-acetyl-9-amino-7-[(2s-4s-5r)-4-5-dihydroxyoxan-2-yl]oxy-6-11-dihydroxy-8-10-dihydro-7h-tetracene-5-12-dione

>  <SMILES>
CC(=O)[C@]1(N)Cc2c(O)c3c(c(O)c2[C@@H](O[C@H]2C[C@H](O)[C@H](O)CO2)C1)C(=O)c1ccccc1C3=O

>  <CID>
3035016

>  <logBB>


>  <BBB+/BBB->
BBB-

>  <Inchi>
InChI=1S/C25H25NO9/c1-10(27)25(26)7-13-18(16(8-25)35-17-6-14(28)15(29)9-34-17)24(33)20-19(23(13)32)21(30)11-4-2-3-5-12(11)22(20)31/h2-5-14-17-28-29-32-33H-6-9-26H2-1H3/t14--15+-16--17--25-/m0/s1

>  <threshold>
-1

>  <reference>
R1|R6|R23|R27|R30|

>  <group>
B

>  <Class>
-1

>  <ABC>
28.02

>  <ABCGG>
21.51

>  <nAcid>
0

>  <nBase>
1

>  <nAromAtom>
12

>  <nAromBond>
12

>  <nAtom>
60

>  <nHeavyAtom>
35

>  <nSpiro>
0

>  <nBridgehead>
0

>  <nHetero>
10

>  <nN>
1

>  <nO>
9

>  <nF>
0

>  <BalabanJ>
1.46

>  <BertzCT>
1272.07

>  <nBonds>
64

>  <nBondsO>
39

>  <nBondsS>
49

>  <nBondsD>
3

>  <nBondsT>
0

>  <nBondsA>
12

>  <nBondsM>
15

>  <nBondsKS>
55

>  <nBondsKD>
9

>  <RNCG>
0.13

>  <RPCG>
0.08

>  <FCSP3>
0.4

>  <SZ>
42.33

>  <Sm>
40.25

>  <Sv>
38.96

>  <Sse>
61.74

>  <Sp>
39.96

>  <Si>
67.37

>  <MZ>
0.71

>  <Mm>
0.67

>  <Mv>
0.65

>  <Mse>
1.03

>  <Mp>
0.67

>  <Mi>
1.12

>  <NsCH3>
1

>  <NdCH2>
0

>  <NssCH2>
4

>  <NtCH>
0

>  <NdsCH>
0

>  <NaaCH>
4

>  <NsssCH>
4

>  <NddC>
0

>  <NtsC>
0

>  <NdssC>
3

>  <NaasC>
8

>  <NaaaC>
0

>  <NssssC>
1

>  <NsNH3>
0

>  <NsNH2>
1

>  <NssNH2>
0

>  <NdNH>
0

>  <NssNH>
0

>  <NaaNH>
0

>  <NtN>
0

>  <NsssNH>
0

>  <NdsN>
0

>  <NaaN>
0

>  <NsssN>
0

>  <NddsN>
0

>  <NaasN>
0

>  <NssssN>
0

>  <NsOH>
4

>  <NdO>
3

>  <NssO>
2

>  <NaaO>
0

>  <NsF>
0

>  <NsSiH3>
0

>  <NssSiH2>
0

>  <NsssSiH>
0

>  <NssssSi>
0

>  <NsPH2>
0

>  <NssPH>
0

>  <NsssP>
0

>  <NdsssP>
0

>  <NsssssP>
0

>  <NsSH>
0

>  <NdS>
0

>  <NssS>
0

>  <NaaS>
0

>  <NdssS>
0

>  <NddssS>
0

>  <NsCl>
0

>  <NsBr>
0

>  <NsI>
0

>  <fragCpx>
331.1

>  <fMF>
0.42

>  <nHBAcc>
10

>  <nHBDon>
5

>  <Kier1>
26.6

>  <Kier2>
9.95

>  <Lipinski>
1

>  <GhoseFilter>
0

>  <FilterItLogS>
-3.2

>  <VMcGowan>
332.92

>  <LabuteASA>
199.44

>  <PEOE_VSA1>
35.63

>  <PEOE_VSA2>
14.38

>  <PEOE_VSA3>
0

>  <PEOE_VSA4>
0

>  <PEOE_VSA5>
0

>  <PEOE_VSA6>
24.27

>  <PEOE_VSA7>
6.92

>  <PEOE_VSA8>
41.52

>  <PEOE_VSA9>
35.48

>  <PEOE_VSA10>
23.39

>  <PEOE_VSA11>
17.86

>  <PEOE_VSA12>
0

>  <PEOE_VSA13>
0

>  <SMR_VSA1>
44.28

>  <SMR_VSA2>
0

>  <SMR_VSA3>
0

>  <SMR_VSA4>
5.73

>  <SMR_VSA5>
56.33

>  <SMR_VSA6>
6.61

>  <SMR_VSA7>
57.65

>  <SMR_VSA8>
0

>  <SMR_VSA9>
11.5

>  <SlogP_VSA1>
5.73

>  <SlogP_VSA2>
68.42

>  <SlogP_VSA3>
20.69

>  <SlogP_VSA4>
0

>  <SlogP_VSA5>
68.84

>  <SlogP_VSA6>
24.27

>  <SlogP_VSA7>
0

>  <SlogP_VSA8>
0

>  <SlogP_VSA9>
0

>  <SlogP_VSA10>
0

>  <SlogP_VSA11>
11.5

>  <EState_VSA1>
58.99

>  <EState_VSA2>
59.25

>  <EState_VSA3>
0

>  <EState_VSA4>
0

>  <EState_VSA5>
19.06

>  <EState_VSA6>
12.13

>  <EState_VSA7>
0

>  <EState_VSA8>
0

>  <EState_VSA9>
15.21

>  <EState_VSA10>
34.81

>  <VSA_EState1>
11.44

>  <VSA_EState2>
39.02

>  <VSA_EState3>
42.26

>  <VSA_EState4>
4.47

>  <VSA_EState5>
-2.74

>  <VSA_EState6>
6.1

>  <VSA_EState7>
-4.74

>  <VSA_EState8>
1.09

>  <VSA_EState9>
0

>  <apol>
66.74

>  <bpol>
30.59

>  <nRing>
5

>  <nHRing>
1

>  <naRing>
2

>  <naHRing>
0

>  <nARing 2>
3

>  <nAHRing 2>
1

>  <nFRing>
1

>  <nFHRing>
0

>  <nFaRing>
0

>  <nFaHRing>
0

>  <nFARing 2>
1

>  <nFAHRing 2>
0

>  <nRot>
3

>  <SLogP>
0.63

>  <SMR>
119.2

>  <TopoPSA(NO)>
176.61

>  <TopoPSA>
176.61

>  <JGI1>
0.22

>  <JGI2>
0.09

>  <JGI3>
0.06

>  <JGI4>
0.06

>  <JGI5>
0.03

>  <Diameter>
14

>  <Radius>
7

>  <TMWC10>
155.38

>  <TSRW10>
72.54

>  <MW>
483.15

>  <AMW>
8.05

>  <WPath>
3288

>  <WPol>
73

>  <Zagreb1>
200

>  <Zagreb2>
249

>  <mZagreb2>
7.36

>  <yes>


>  <nAR-cont>
0.691115

>  <nHA-cont>
0.523063577

>  <MWHBN>
0.682417676

>  <MWHBN-cont>
0

>  <TPSA-cont>
0

>  <pka_cont>
0.97

>  <yes.1>


>  <BBB_SCORE>
1.699178577

>  <MMFF94 Energy>
124.3

$$$$
Compound 890
Actelion Java MolfileCreator 2.0

  0  0  0  0  0  0              0 V3000
M  V30 BEGIN CTAB
M  V30 COUNTS 35 35 0 0 0
M  V30 BEGIN ATOM
M  V30 1 Cl 1.1349 -2.0273 -5.5217 0
M  V30 2 C 0.7626 -0.2909 -5.4934 0
M  V30 3 Cl -0.8586 0.0136 -6.1517 0
M  V30 4 C 0.8395 0.2082 -4.0488 0
M  V30 5 O 1.7382 0.9595 -3.6682 0
M  V30 6 N -0.126 -0.2619 -3.1884 0
M  V30 7 C -0.3338 0.1507 -1.7798 0
M  V30 8 C 0.9446 0.0317 -0.8893 0
M  V30 9 C -1.5068 -0.6947 -1.235 0
M  V30 10 O 1.8197 1.1455 -1.0969 0
M  V30 11 C 0.6655 0.0 0.6017 0
M  V30 12 O -2.5769 -0.696 -2.1882 0
M  V30 13 C 0.7838 -1.1996 1.3177 0
M  V30 14 C 0.2648 1.1572 1.2888 0
M  V30 15 C 0.5009 -1.2404 2.6857 0
M  V30 16 C -0.0135 1.1196 2.6589 0
M  V30 17 C 0.1033 -0.0816 3.3648 0
M  V30 18 C -0.1856 -0.1776 4.826 0
M  V30 19 O -0.2353 -1.2798 5.3687 0
M  V30 20 C -0.4235 1.0878 5.6075 0
M  V30 21 H 1.4945 0.2392 -6.1089 0
M  V30 22 H -0.9287 -0.7355 -3.6029 0
M  V30 23 H -0.6442 1.2018 -1.8418 0
M  V30 24 H 1.5074 -0.8664 -1.1721 0
M  V30 25 H -1.8942 -0.2881 -0.2964 0
M  V30 26 H -1.2033 -1.7363 -1.0852 0
M  V30 27 H 1.9854 1.1965 -2.063 0
M  V30 28 H -3.328 -1.1526 -1.7677 0
M  V30 29 H 1.1024 -2.1133 0.8198 0
M  V30 30 H 0.1855 2.1034 0.7545 0
M  V30 31 H 0.6009 -2.1822 3.223 0
M  V30 32 H -0.3168 2.0415 3.1463 0
M  V30 33 H 0.3997 1.791 5.4575 0
M  V30 34 H -1.377 1.5356 5.3164 0
M  V30 35 H -0.4652 0.8479 6.6746 0
M  V30 END ATOM
M  V30 BEGIN BOND
M  V30 1 1 1 2
M  V30 2 1 2 3
M  V30 3 1 2 4
M  V30 4 2 4 5
M  V30 5 1 4 6
M  V30 6 1 6 7
M  V30 7 1 7 8
M  V30 8 1 7 9
M  V30 9 1 8 10
M  V30 10 1 8 11
M  V30 11 1 9 12
M  V30 12 2 11 13
M  V30 13 1 11 14
M  V30 14 1 13 15
M  V30 15 2 14 16
M  V30 16 2 15 17
M  V30 17 1 17 18
M  V30 18 2 18 19
M  V30 19 1 18 20
M  V30 20 1 16 17
M  V30 21 1 2 21
M  V30 22 1 6 22
M  V30 23 1 7 23
M  V30 24 1 8 24
M  V30 25 1 9 25
M  V30 26 1 9 26
M  V30 27 1 10 27
M  V30 28 1 12 28
M  V30 29 1 13 29
M  V30 30 1 14 30
M  V30 31 1 15 31
M  V30 32 1 16 32
M  V30 33 1 20 33
M  V30 34 1 20 34
M  V30 35 1 20 35
M  V30 END BOND
M  V30 END CTAB
M  END
>  <Column 1>
1065

>  <level_0>
1203

>  <index>
1203

>  <Unnamed: 0>
1203

>  <NO.>
1215

>  <Name>
cetophenicol/cetofenicol

>  <IUPAC_name>
n-[1-(4-acetylphenyl)-1-3-dihydroxypropan-2-yl]-2-2-dichloroacetamide

>  <SMILES>
CC(=O)c1ccc(C(O)C(CO)NC(=O)C(Cl)Cl)cc1

>  <CID>
312234

>  <logBB>


>  <BBB+/BBB->
BBB+

>  <Inchi>
InChI=1S/C13H15Cl2NO4/c1-7(18)8-2-4-9(5-3-8)11(19)10(6-17)16-13(20)12(14)15/h2-5-10-12-17-19H-6H2-1H3-(H-16-20)

>  <threshold>
-1

>  <reference>
R1|R19|R27|R27|R30|

>  <group>
B

>  <Class>
1

>  <ABC>
14.64

>  <ABCGG>
13.29

>  <nAcid>
0

>  <nBase>
0

>  <nAromAtom>
6

>  <nAromBond>
6

>  <nAtom>
35

>  <nHeavyAtom>
20

>  <nSpiro>
0

>  <nBridgehead>
0

>  <nHetero>
7

>  <nN>
1

>  <nO>
4

>  <nF>
0

>  <BalabanJ>
2.49

>  <BertzCT>
475.76

>  <nBonds>
35

>  <nBondsO>
20

>  <nBondsS>
27

>  <nBondsD>
2

>  <nBondsT>
0

>  <nBondsA>
6

>  <nBondsM>
8

>  <nBondsKS>
30

>  <nBondsKD>
5

>  <RNCG>
0.19

>  <RPCG>
0.12

>  <FCSP3>
0.38

>  <SZ>
27.67

>  <Sm>
26.66

>  <Sv>
22.86

>  <Sse>
36.18

>  <Sp>
24.18

>  <Si>
39.55

>  <MZ>
0.79

>  <Mm>
0.76

>  <Mv>
0.65

>  <Mse>
1.03

>  <Mp>
0.69

>  <Mi>
1.13

>  <NsCH3>
1

>  <NdCH2>
0

>  <NssCH2>
1

>  <NtCH>
0

>  <NdsCH>
0

>  <NaaCH>
4

>  <NsssCH>
3

>  <NddC>
0

>  <NtsC>
0

>  <NdssC>
2

>  <NaasC>
2

>  <NaaaC>
0

>  <NssssC>
0

>  <NsNH3>
0

>  <NsNH2>
0

>  <NssNH2>
0

>  <NdNH>
0

>  <NssNH>
1

>  <NaaNH>
0

>  <NtN>
0

>  <NsssNH>
0

>  <NdsN>
0

>  <NaaN>
0

>  <NsssN>
0

>  <NddsN>
0

>  <NaasN>
0

>  <NssssN>
0

>  <NsOH>
2

>  <NdO>
2

>  <NssO>
0

>  <NaaO>
0

>  <NsF>
0

>  <NsSiH3>
0

>  <NssSiH2>
0

>  <NsssSiH>
0

>  <NssssSi>
0

>  <NsPH2>
0

>  <NssPH>
0

>  <NsssP>
0

>  <NdsssP>
0

>  <NsssssP>
0

>  <NsSH>
0

>  <NdS>
0

>  <NssS>
0

>  <NaaS>
0

>  <NdssS>
0

>  <NddssS>
0

>  <NsCl>
2

>  <NsBr>
0

>  <NsI>
0

>  <fragCpx>
20.07

>  <fMF>
0.17

>  <nHBAcc>
4

>  <nHBDon>
3

>  <Kier1>
18.05

>  <Kier2>
8.44

>  <Lipinski>
1

>  <GhoseFilter>
1

>  <FilterItLogS>
-2.74

>  <VMcGowan>
219.61

>  <LabuteASA>
126.05

>  <PEOE_VSA1>
15.53

>  <PEOE_VSA2>
9.59

>  <PEOE_VSA3>
0

>  <PEOE_VSA4>
0

>  <PEOE_VSA5>
0

>  <PEOE_VSA6>
47.47

>  <PEOE_VSA7>
12.49

>  <PEOE_VSA8>
5.56

>  <PEOE_VSA9>
12.65

>  <PEOE_VSA10>
6.1

>  <PEOE_VSA11>
10.62

>  <PEOE_VSA12>
0

>  <PEOE_VSA13>
5.91

>  <SMR_VSA1>
19.8

>  <SMR_VSA2>
0

>  <SMR_VSA3>
5.32

>  <SMR_VSA4>
0

>  <SMR_VSA5>
23.91

>  <SMR_VSA6>
6.61

>  <SMR_VSA7>
35.39

>  <SMR_VSA8>
0

>  <SMR_VSA9>
0

>  <SlogP_VSA1>
5.32

>  <SlogP_VSA2>
39.39

>  <SlogP_VSA3>
4.79

>  <SlogP_VSA4>
0

>  <SlogP_VSA5>
28.95

>  <SlogP_VSA6>
24.27

>  <SlogP_VSA7>
0

>  <SlogP_VSA8>
0

>  <SlogP_VSA9>
0

>  <SlogP_VSA10>
0

>  <SlogP_VSA11>
0

>  <EState_VSA1>
29.5

>  <EState_VSA2>
5.78

>  <EState_VSA3>
11.13

>  <EState_VSA4>
0

>  <EState_VSA5>
6.92

>  <EState_VSA6>
24.27

>  <EState_VSA7>
0

>  <EState_VSA8>
5.32

>  <EState_VSA9>
23.2

>  <EState_VSA10>
19.8

>  <VSA_EState1>
0

>  <VSA_EState2>
21.22

>  <VSA_EState3>
21.64

>  <VSA_EState4>
0.96

>  <VSA_EState5>
-0.79

>  <VSA_EState6>
5.28

>  <VSA_EState7>
-1.14

>  <VSA_EState8>
0.95

>  <VSA_EState9>
0

>  <apol>
40.38

>  <bpol>
18.37

>  <nRing>
1

>  <nHRing>
0

>  <naRing>
1

>  <naHRing>
0

>  <nARing 2>
0

>  <nAHRing 2>
0

>  <nFRing>
0

>  <nFHRing>
0

>  <nFaRing>
0

>  <nFaHRing>
0

>  <nFARing 2>
0

>  <nFAHRing 2>
0

>  <nRot>
6

>  <SLogP>
1.2

>  <SMR>
75.92

>  <TopoPSA(NO)>
86.63

>  <TopoPSA>
86.63

>  <JGI1>
0.25

>  <JGI2>
0.12

>  <JGI3>
0.05

>  <JGI4>
0.04

>  <JGI5>
0.03

>  <Diameter>
11

>  <Radius>
6

>  <TMWC10>
110.94

>  <TSRW10>
52.86

>  <MW>
319.04

>  <AMW>
9.12

>  <WPath>
880

>  <WPol>
29

>  <Zagreb1>
94

>  <Zagreb2>
106

>  <mZagreb2>
4.61

>  <yes>


>  <nAR-cont>
0.336376

>  <nHA-cont>
0.999629945

>  <MWHBN>
0.391900188

>  <MWHBN-cont>
0.507973774

>  <TPSA-cont>
0.395268806

>  <pka_cont>
0.97

>  <yes.1>


>  <BBB_SCORE>
3.373504217

>  <MMFF94 Energy>
109.83

$$$$
Compound 891
Actelion Java MolfileCreator 2.0

  0  0  0  0  0  0              0 V3000
M  V30 BEGIN CTAB
M  V30 COUNTS 45 47 0 0 0
M  V30 BEGIN ATOM
M  V30 1 S 3.141 -1.0461 -1.3682 0
M  V30 2 C 1.5259 -1.7795 -1.2155 0
M  V30 3 C 3.269 -0.1239 0.1498 0
M  V30 4 C 0.5718 -1.3472 -0.2725 0
M  V30 5 C 1.221 -2.8105 -2.1188 0
M  V30 6 C 2.161 0.1459 0.9776 0
M  V30 7 C 4.5516 0.3411 0.4918 0
M  V30 8 N 0.8542 -0.2876 0.6325 0
M  V30 9 C -0.671 -2.02 -0.2497 0
M  V30 10 C -0.0202 -3.4416 -2.0884 0
M  V30 11 C 2.4182 0.8228 2.1877 0
M  V30 12 C 4.7644 1.0438 1.6737 0
M  V30 13 C -0.2783 0.6072 1.0036 0
M  V30 14 C -0.9746 -3.0525 -1.1496 0
M  V30 15 C 3.6976 1.2738 2.5294 0
M  V30 16 C -0.8683 1.3911 -0.2159 0 CFG=1
M  V30 17 C -2.2916 -3.7578 -1.1409 0
M  V30 18 N -2.2081 1.9452 0.1239 0
M  V30 19 C 0.1372 2.4292 -0.7388 0
M  V30 20 O -2.495 -4.6827 -1.9249 0
M  V30 21 C -3.3534 -3.3174 -0.167 0
M  V30 22 C -2.993 2.2509 -1.0743 0
M  V30 23 C -2.1734 3.1074 1.0115 0
M  V30 24 H 1.9549 -3.1331 -2.8549 0
M  V30 25 H 5.3988 0.1444 -0.1618 0
M  V30 26 H -1.4079 -1.7456 0.496 0
M  V30 27 H -0.2324 -4.2402 -2.797 0
M  V30 28 H 1.6302 0.9809 2.9185 0
M  V30 29 H 5.7613 1.3902 1.9319 0
M  V30 30 H -1.064 0.0186 1.492 0
M  V30 31 H 0.0035 1.3429 1.7619 0
M  V30 32 H 3.8562 1.7932 3.4711 0
M  V30 33 H -1.0259 0.6686 -1.0254 0
M  V30 34 H -0.2804 3.0177 -1.5613 0
M  V30 35 H 0.4568 3.1199 0.0484 0
M  V30 36 H 1.0328 1.9366 -1.1304 0
M  V30 37 H -3.0206 -3.4917 0.8593 0
M  V30 38 H -3.6019 -2.2646 -0.3252 0
M  V30 39 H -4.2609 -3.9057 -0.3351 0
M  V30 40 H -2.5619 3.0657 -1.6651 0
M  V30 41 H -4.0144 2.5367 -0.7977 0
M  V30 42 H -3.0843 1.3672 -1.7154 0
M  V30 43 H -1.6302 2.8898 1.9361 0
M  V30 44 H -3.1909 3.38 1.3149 0
M  V30 45 H -1.7201 3.9856 0.5394 0
M  V30 END ATOM
M  V30 BEGIN BOND
M  V30 1 1 1 2
M  V30 2 1 1 3
M  V30 3 2 2 4
M  V30 4 1 2 5
M  V30 5 2 3 6
M  V30 6 1 3 7
M  V30 7 1 4 8
M  V30 8 1 4 9
M  V30 9 2 5 10
M  V30 10 1 6 11
M  V30 11 2 7 12
M  V30 12 1 8 13
M  V30 13 2 9 14
M  V30 14 2 11 15
M  V30 15 1 13 16
M  V30 16 1 14 17
M  V30 17 1 16 18
M  V30 18 1 16 19
M  V30 19 2 17 20
M  V30 20 1 17 21
M  V30 21 1 18 22
M  V30 22 1 18 23
M  V30 23 1 6 8
M  V30 24 1 10 14
M  V30 25 1 12 15
M  V30 26 1 5 24
M  V30 27 1 7 25
M  V30 28 1 9 26
M  V30 29 1 10 27
M  V30 30 1 11 28
M  V30 31 1 12 29
M  V30 32 1 13 30
M  V30 33 1 13 31
M  V30 34 1 15 32
M  V30 35 1 16 33
M  V30 36 1 19 34
M  V30 37 1 19 35
M  V30 38 1 19 36
M  V30 39 1 21 37
M  V30 40 1 21 38
M  V30 41 1 21 39
M  V30 42 1 22 40
M  V30 43 1 22 41
M  V30 44 1 22 42
M  V30 45 1 23 43
M  V30 46 1 23 44
M  V30 47 1 23 45
M  V30 END BOND
M  V30 BEGIN COLLECTION
M  V30 MDLV30/STERAC1 ATOMS=(1 16)
M  V30 END COLLECTION
M  V30 END CTAB
M  END
>  <Column 1>
1066

>  <level_0>
1204

>  <index>
1204

>  <Unnamed: 0>
1204

>  <NO.>
1216

>  <Name>
aceprometazine

>  <IUPAC_name>
1-[10-[2-(dimethylamino)propyl]phenothiazin-2-yl]ethanone

>  <SMILES>
CC(=O)c1ccc2c(c1)N(CC(C)N(C)C)c1ccccc1S2

>  <CID>
26035

>  <logBB>


>  <BBB+/BBB->
BBB+

>  <Inchi>
InChI=1S/C19H22N2OS/c1-13(20(3)4)12-21-16-7-5-6-8-18(16)23-19-10-9-15(14(2)22)11-17(19)21/h5-11-13H-12H2-1-4H3

>  <threshold>
-1

>  <reference>
R1|R19|R6|R27|R27|R30|

>  <group>
B

>  <Class>
1

>  <ABC>
17.98

>  <ABCGG>
14.59

>  <nAcid>
0

>  <nBase>
1

>  <nAromAtom>
12

>  <nAromBond>
12

>  <nAtom>
45

>  <nHeavyAtom>
23

>  <nSpiro>
0

>  <nBridgehead>
0

>  <nHetero>
4

>  <nN>
2

>  <nO>
1

>  <nF>
0

>  <BalabanJ>
1.78

>  <BertzCT>
741.9

>  <nBonds>
47

>  <nBondsO>
25

>  <nBondsS>
34

>  <nBondsD>
1

>  <nBondsT>
0

>  <nBondsA>
12

>  <nBondsM>
13

>  <nBondsKS>
40

>  <nBondsKD>
7

>  <RNCG>
0.24

>  <RPCG>
0.11

>  <FCSP3>
0.32

>  <SZ>
29

>  <Sm>
27.18

>  <Sv>
28.38

>  <Sse>
44.5

>  <Sp>
31.32

>  <Si>
50.28

>  <MZ>
0.64

>  <Mm>
0.6

>  <Mv>
0.63

>  <Mse>
0.99

>  <Mp>
0.7

>  <Mi>
1.12

>  <NsCH3>
4

>  <NdCH2>
0

>  <NssCH2>
1

>  <NtCH>
0

>  <NdsCH>
0

>  <NaaCH>
7

>  <NsssCH>
1

>  <NddC>
0

>  <NtsC>
0

>  <NdssC>
1

>  <NaasC>
5

>  <NaaaC>
0

>  <NssssC>
0

>  <NsNH3>
0

>  <NsNH2>
0

>  <NssNH2>
0

>  <NdNH>
0

>  <NssNH>
0

>  <NaaNH>
0

>  <NtN>
0

>  <NsssNH>
0

>  <NdsN>
0

>  <NaaN>
0

>  <NsssN>
2

>  <NddsN>
0

>  <NaasN>
0

>  <NssssN>
0

>  <NsOH>
0

>  <NdO>
1

>  <NssO>
0

>  <NaaO>
0

>  <NsF>
0

>  <NsSiH3>
0

>  <NssSiH2>
0

>  <NsssSiH>
0

>  <NssssSi>
0

>  <NsPH2>
0

>  <NssPH>
0

>  <NsssP>
0

>  <NdsssP>
0

>  <NsssssP>
0

>  <NsSH>
0

>  <NdS>
0

>  <NssS>
1

>  <NaaS>
0

>  <NdssS>
0

>  <NddssS>
0

>  <NsCl>
0

>  <NsBr>
0

>  <NsI>
0

>  <fragCpx>
119.04

>  <fMF>
0.31

>  <nHBAcc>
4

>  <nHBDon>
0

>  <Kier1>
17.81

>  <Kier2>
7.49

>  <Lipinski>
1

>  <GhoseFilter>
1

>  <FilterItLogS>
-4.56

>  <VMcGowan>
258.07

>  <LabuteASA>
141.84

>  <PEOE_VSA1>
9.8

>  <PEOE_VSA2>
4.79

>  <PEOE_VSA3>
0

>  <PEOE_VSA4>
0

>  <PEOE_VSA5>
0

>  <PEOE_VSA6>
29.96

>  <PEOE_VSA7>
52.21

>  <PEOE_VSA8>
27.94

>  <PEOE_VSA9>
11.37

>  <PEOE_VSA10>
0

>  <PEOE_VSA11>
5.78

>  <PEOE_VSA12>
0

>  <PEOE_VSA13>
0

>  <SMR_VSA1>
4.79

>  <SMR_VSA2>
0

>  <SMR_VSA3>
4.9

>  <SMR_VSA4>
0

>  <SMR_VSA5>
29.68

>  <SMR_VSA6>
25.54

>  <SMR_VSA7>
48.03

>  <SMR_VSA8>
0

>  <SMR_VSA9>
0

>  <SlogP_VSA1>
4.9

>  <SlogP_VSA2>
37.37

>  <SlogP_VSA3>
0

>  <SlogP_VSA4>
0

>  <SlogP_VSA5>
24.21

>  <SlogP_VSA6>
52.26

>  <SlogP_VSA7>
0

>  <SlogP_VSA8>
0

>  <SlogP_VSA9>
0

>  <SlogP_VSA10>
11.37

>  <SlogP_VSA11>
0

>  <EState_VSA1>
0

>  <EState_VSA2>
5.78

>  <EState_VSA3>
6.04

>  <EState_VSA4>
17.8

>  <EState_VSA5>
15.48

>  <EState_VSA6>
18.69

>  <EState_VSA7>
12.13

>  <EState_VSA8>
61.15

>  <EState_VSA9>
0

>  <EState_VSA10>
4.79

>  <VSA_EState1>
0

>  <VSA_EState2>
18.82

>  <VSA_EState3>
0

>  <VSA_EState4>
3.13

>  <VSA_EState5>
0.11

>  <VSA_EState6>
14.91

>  <VSA_EState7>
0

>  <VSA_EState8>
4.73

>  <VSA_EState9>
4.2

>  <apol>
52.3

>  <bpol>
28.82

>  <nRing>
3

>  <nHRing>
1

>  <naRing>
2

>  <naHRing>
0

>  <nARing 2>
1

>  <nAHRing 2>
1

>  <nFRing>
1

>  <nFHRing>
1

>  <nFaRing>
0

>  <nFaHRing>
0

>  <nFARing 2>
1

>  <nFAHRing 2>
1

>  <nRot>
4

>  <SLogP>
4.44

>  <SMR>
97.17

>  <TopoPSA(NO)>
23.55

>  <TopoPSA>
48.85

>  <JGI1>
0.2

>  <JGI2>
0.09

>  <JGI3>
0.04

>  <JGI4>
0.05

>  <JGI5>
0.03

>  <Diameter>
9

>  <Radius>
5

>  <TMWC10>
123.39

>  <TSRW10>
57.65

>  <MW>
326.15

>  <AMW>
7.25

>  <WPath>
1100

>  <WPol>
39

>  <Zagreb1>
122

>  <Zagreb2>
145

>  <mZagreb2>
5

>  <yes>


>  <nAR-cont>
0.816016

>  <nHA-cont>
0.967789328

>  <MWHBN>
0.22148856

>  <MWHBN-cont>
0.993979413

>  <TPSA-cont>
0.658996666

>  <pka_cont>
0.97

>  <yes.1>


>  <BBB_SCORE>
5.077767779

>  <MMFF94 Energy>
113.54

$$$$
Compound 892
Actelion Java MolfileCreator 2.0

  0  0  0  0  0  0              0 V3000
M  V30 BEGIN CTAB
M  V30 COUNTS 45 47 0 0 0
M  V30 BEGIN ATOM
M  V30 1 S 1.4481 -2.8172 -2.5755 0
M  V30 2 C -0.1369 -2.4669 -1.8568 0
M  V30 3 C 2.4858 -1.5783 -1.8378 0
M  V30 4 C -0.4006 -1.344 -1.0487 0
M  V30 5 C -1.1501 -3.3988 -2.1585 0
M  V30 6 C 1.9998 -0.528 -1.0327 0
M  V30 7 C 3.8611 -1.7011 -2.123 0
M  V30 8 N 0.6107 -0.3865 -0.7429 0
M  V30 9 C -1.7201 -1.2342 -0.5501 0
M  V30 10 C -2.4414 -3.2528 -1.6589 0
M  V30 11 C 2.9731 0.3626 -0.524 0
M  V30 12 C 4.7849 -0.7986 -1.6107 0
M  V30 13 C 0.1723 0.8947 -0.1303 0
M  V30 14 C -2.7326 -2.1659 -0.8444 0
M  V30 15 C 4.3389 0.2347 -0.8061 0
M  V30 16 C 0.1708 0.8119 1.4035 0
M  V30 17 C -4.0906 -1.9502 -0.2592 0
M  V30 18 C -0.4666 2.0488 2.0473 0
M  V30 19 O -4.2911 -0.9952 0.489 0
M  V30 20 C -5.1946 -2.9171 -0.599 0
M  V30 21 N 0.2201 3.3085 1.7161 0
M  V30 22 C 1.5024 3.427 2.4163 0
M  V30 23 C -0.632 4.4498 2.0671 0
M  V30 24 H -0.9297 -4.2573 -2.7914 0
M  V30 25 H 4.2198 -2.5131 -2.7526 0
M  V30 26 H -1.9994 -0.4143 0.1049 0
M  V30 27 H -3.185 -3.9999 -1.9166 0
M  V30 28 H 2.7035 1.1896 0.1242 0
M  V30 29 H 5.8416 -0.9061 -1.8372 0
M  V30 30 H -0.8192 1.1835 -0.5018 0
M  V30 31 H 0.7926 1.7301 -0.4771 0
M  V30 32 H 5.0463 0.9479 -0.3907 0
M  V30 33 H 1.1851 0.6574 1.7854 0
M  V30 34 H -0.394 -0.0679 1.7334 0
M  V30 35 H -1.5053 2.0954 1.6932 0
M  V30 36 H -0.5183 1.9091 3.135 0
M  V30 37 H -5.3654 -2.9344 -1.6784 0
M  V30 38 H -4.9519 -3.9149 -0.225 0
M  V30 39 H -6.1207 -2.5887 -0.1166 0
M  V30 40 H 2.1947 2.6353 2.116 0
M  V30 41 H 1.3845 3.3889 3.5054 0
M  V30 42 H 1.993 4.3726 2.1581 0
M  V30 43 H -0.8674 4.4766 3.1373 0
M  V30 44 H -1.5726 4.4148 1.5062 0
M  V30 45 H -0.1443 5.3929 1.796 0
M  V30 END ATOM
M  V30 BEGIN BOND
M  V30 1 1 1 2
M  V30 2 1 1 3
M  V30 3 2 2 4
M  V30 4 1 2 5
M  V30 5 2 3 6
M  V30 6 1 3 7
M  V30 7 1 4 8
M  V30 8 1 4 9
M  V30 9 2 5 10
M  V30 10 1 6 11
M  V30 11 2 7 12
M  V30 12 1 8 13
M  V30 13 2 9 14
M  V30 14 2 11 15
M  V30 15 1 13 16
M  V30 16 1 14 17
M  V30 17 1 16 18
M  V30 18 2 17 19
M  V30 19 1 17 20
M  V30 20 1 18 21
M  V30 21 1 21 22
M  V30 22 1 21 23
M  V30 23 1 6 8
M  V30 24 1 10 14
M  V30 25 1 12 15
M  V30 26 1 5 24
M  V30 27 1 7 25
M  V30 28 1 9 26
M  V30 29 1 10 27
M  V30 30 1 11 28
M  V30 31 1 12 29
M  V30 32 1 13 30
M  V30 33 1 13 31
M  V30 34 1 15 32
M  V30 35 1 16 33
M  V30 36 1 16 34
M  V30 37 1 18 35
M  V30 38 1 18 36
M  V30 39 1 20 37
M  V30 40 1 20 38
M  V30 41 1 20 39
M  V30 42 1 22 40
M  V30 43 1 22 41
M  V30 44 1 22 42
M  V30 45 1 23 43
M  V30 46 1 23 44
M  V30 47 1 23 45
M  V30 END BOND
M  V30 END CTAB
M  END
>  <Column 1>
1067

>  <level_0>
1205

>  <index>
1205

>  <Unnamed: 0>
1205

>  <NO.>
1217

>  <Name>
acepromazine

>  <IUPAC_name>
1-[10-[3-(dimethylamino)propyl]phenothiazin-2-yl]ethanone

>  <SMILES>
CC(=O)c1ccc2c(c1)N(CCCN(C)C)c1ccccc1S2

>  <CID>
6077

>  <logBB>


>  <BBB+/BBB->
BBB+

>  <Inchi>
InChI=1S/C19H22N2OS/c1-14(22)15-9-10-19-17(13-15)21(12-6-11-20(2)3)16-7-4-5-8-18(16)23-19/h4-5-7-10-13H-6-11-12H2-1-3H3

>  <threshold>
-1

>  <reference>
R1|R13|R19|R6|R24|R27|R27|R27|R30|R30|

>  <group>
B

>  <Class>
1

>  <ABC>
17.91

>  <ABCGG>
14.14

>  <nAcid>
0

>  <nBase>
1

>  <nAromAtom>
12

>  <nAromBond>
12

>  <nAtom>
45

>  <nHeavyAtom>
23

>  <nSpiro>
0

>  <nBridgehead>
0

>  <nHetero>
4

>  <nN>
2

>  <nO>
1

>  <nF>
0

>  <BalabanJ>
1.7

>  <BertzCT>
727.06

>  <nBonds>
47

>  <nBondsO>
25

>  <nBondsS>
34

>  <nBondsD>
1

>  <nBondsT>
0

>  <nBondsA>
12

>  <nBondsM>
13

>  <nBondsKS>
40

>  <nBondsKD>
7

>  <RNCG>
0.24

>  <RPCG>
0.11

>  <FCSP3>
0.32

>  <SZ>
29

>  <Sm>
27.18

>  <Sv>
28.38

>  <Sse>
44.5

>  <Sp>
31.32

>  <Si>
50.28

>  <MZ>
0.64

>  <Mm>
0.6

>  <Mv>
0.63

>  <Mse>
0.99

>  <Mp>
0.7

>  <Mi>
1.12

>  <NsCH3>
3

>  <NdCH2>
0

>  <NssCH2>
3

>  <NtCH>
0

>  <NdsCH>
0

>  <NaaCH>
7

>  <NsssCH>
0

>  <NddC>
0

>  <NtsC>
0

>  <NdssC>
1

>  <NaasC>
5

>  <NaaaC>
0

>  <NssssC>
0

>  <NsNH3>
0

>  <NsNH2>
0

>  <NssNH2>
0

>  <NdNH>
0

>  <NssNH>
0

>  <NaaNH>
0

>  <NtN>
0

>  <NsssNH>
0

>  <NdsN>
0

>  <NaaN>
0

>  <NsssN>
2

>  <NddsN>
0

>  <NaasN>
0

>  <NssssN>
0

>  <NsOH>
0

>  <NdO>
1

>  <NssO>
0

>  <NaaO>
0

>  <NsF>
0

>  <NsSiH3>
0

>  <NssSiH2>
0

>  <NsssSiH>
0

>  <NssssSi>
0

>  <NsPH2>
0

>  <NssPH>
0

>  <NsssP>
0

>  <NdsssP>
0

>  <NsssssP>
0

>  <NsSH>
0

>  <NdS>
0

>  <NssS>
1

>  <NaaS>
0

>  <NdssS>
0

>  <NddssS>
0

>  <NsCl>
0

>  <NsBr>
0

>  <NsI>
0

>  <fragCpx>
119.04

>  <fMF>
0.31

>  <nHBAcc>
4

>  <nHBDon>
0

>  <Kier1>
17.81

>  <Kier2>
7.92

>  <Lipinski>
1

>  <GhoseFilter>
1

>  <FilterItLogS>
-4.93

>  <VMcGowan>
258.07

>  <LabuteASA>
141.84

>  <PEOE_VSA1>
9.8

>  <PEOE_VSA2>
4.79

>  <PEOE_VSA3>
0

>  <PEOE_VSA4>
0

>  <PEOE_VSA5>
0

>  <PEOE_VSA6>
29.96

>  <PEOE_VSA7>
58.25

>  <PEOE_VSA8>
21.9

>  <PEOE_VSA9>
11.37

>  <PEOE_VSA10>
0

>  <PEOE_VSA11>
5.78

>  <PEOE_VSA12>
0

>  <PEOE_VSA13>
0

>  <SMR_VSA1>
4.79

>  <SMR_VSA2>
0

>  <SMR_VSA3>
4.9

>  <SMR_VSA4>
0

>  <SMR_VSA5>
23.14

>  <SMR_VSA6>
32.08

>  <SMR_VSA7>
48.03

>  <SMR_VSA8>
0

>  <SMR_VSA9>
0

>  <SlogP_VSA1>
4.9

>  <SlogP_VSA2>
37.87

>  <SlogP_VSA3>
0

>  <SlogP_VSA4>
0

>  <SlogP_VSA5>
23.7

>  <SlogP_VSA6>
52.26

>  <SlogP_VSA7>
0

>  <SlogP_VSA8>
0

>  <SlogP_VSA9>
0

>  <SlogP_VSA10>
11.37

>  <SlogP_VSA11>
0

>  <EState_VSA1>
0

>  <EState_VSA2>
5.78

>  <EState_VSA3>
0

>  <EState_VSA4>
30.76

>  <EState_VSA5>
15.48

>  <EState_VSA6>
18.69

>  <EState_VSA7>
12.13

>  <EState_VSA8>
54.23

>  <EState_VSA9>
0

>  <EState_VSA10>
4.79

>  <VSA_EState1>
0

>  <VSA_EState2>
18.82

>  <VSA_EState3>
0

>  <VSA_EState4>
3.17

>  <VSA_EState5>
0.12

>  <VSA_EState6>
14.54

>  <VSA_EState7>
1.08

>  <VSA_EState8>
3.62

>  <VSA_EState9>
4.2

>  <apol>
52.3

>  <bpol>
28.82

>  <nRing>
3

>  <nHRing>
1

>  <naRing>
2

>  <naHRing>
0

>  <nARing 2>
1

>  <nAHRing 2>
1

>  <nFRing>
1

>  <nFHRing>
1

>  <nFaRing>
0

>  <nFaHRing>
0

>  <nFARing 2>
1

>  <nFAHRing 2>
1

>  <nRot>
5

>  <SLogP>
4.44

>  <SMR>
97.19

>  <TopoPSA(NO)>
23.55

>  <TopoPSA>
48.85

>  <JGI1>
0.18

>  <JGI2>
0.08

>  <JGI3>
0.04

>  <JGI4>
0.04

>  <JGI5>
0.02

>  <Diameter>
10

>  <Radius>
5

>  <TMWC10>
122.97

>  <TSRW10>
57.49

>  <MW>
326.15

>  <AMW>
7.25

>  <WPath>
1154

>  <WPol>
37

>  <Zagreb1>
120

>  <Zagreb2>
141

>  <mZagreb2>
5.06

>  <yes>


>  <nAR-cont>
0.816016

>  <nHA-cont>
0.967789328

>  <MWHBN>
0.22148856

>  <MWHBN-cont>
0.993979413

>  <TPSA-cont>
0.658996666

>  <pka_cont>
0.97

>  <yes.1>


>  <BBB_SCORE>
5.077767779

>  <MMFF94 Energy>
83.671

$$$$
Compound 893
Actelion Java MolfileCreator 2.0

  0  0  0  0  0  0              0 V3000
M  V30 BEGIN CTAB
M  V30 COUNTS 59 62 0 0 0
M  V30 BEGIN ATOM
M  V30 1 S -2.494 0.2411 -3.3802 0
M  V30 2 C -2.9923 0.3855 -1.6768 0
M  V30 3 C -1.9709 -1.4596 -3.4644 0
M  V30 4 C -2.6493 -0.5626 -0.6938 0
M  V30 5 C -3.7354 1.53 -1.339 0
M  V30 6 C -1.735 -2.2457 -2.3187 0
M  V30 7 C -1.791 -1.9949 -4.7523 0
M  V30 8 N -1.8784 -1.7125 -1.011 0
M  V30 9 C -3.1231 -0.3324 0.6148 0
M  V30 10 C -4.1735 1.7438 -0.0326 0
M  V30 11 C -1.396 -3.5979 -2.5306 0
M  V30 12 C -1.4146 -3.3231 -4.9269 0
M  V30 13 C -0.9392 -2.2041 0.0279 0
M  V30 14 C -3.8743 0.8061 0.9521 0
M  V30 15 C -1.2294 -4.1292 -3.8138 0
M  V30 16 C 0.151 -1.1796 0.3879 0
M  V30 17 C -4.3219 0.9691 2.3677 0
M  V30 18 C 1.1112 -0.9112 -0.7802 0
M  V30 19 O -3.9345 0.18 3.2271 0
M  V30 20 C -5.2395 2.1118 2.7168 0
M  V30 21 N 2.2324 0.0029 -0.5115 0
M  V30 22 C 3.1619 -0.5 0.5054 0
M  V30 23 C 1.7959 1.3743 -0.2336 0
M  V30 24 C 4.3993 0.3965 0.5846 0
M  V30 25 C 2.9953 2.3246 -0.1384 0
M  V30 26 C 4.0401 1.8575 0.8915 0
M  V30 27 C 3.5368 2.1126 2.3322 0
M  V30 28 C 4.5489 1.773 3.4227 0
M  V30 29 O 4.5394 0.3766 3.6828 0
M  V30 30 H -3.981 2.266 -2.1029 0
M  V30 31 H -1.955 -1.3757 -5.6318 0
M  V30 32 H -2.9297 -1.0572 1.4013 0
M  V30 33 H -4.7431 2.6429 0.1811 0
M  V30 34 H -1.2903 -4.2846 -1.6957 0
M  V30 35 H -1.2854 -3.7278 -5.9268 0
M  V30 36 H -0.4241 -3.1253 -0.2603 0
M  V30 37 H -1.4918 -2.4862 0.9313 0
M  V30 38 H -0.9644 -5.1762 -3.9369 0
M  V30 39 H 0.7095 -1.5884 1.2378 0
M  V30 40 H -0.3001 -0.2444 0.7328 0
M  V30 41 H 1.524 -1.8658 -1.131 0
M  V30 42 H 0.5517 -0.5101 -1.6332 0
M  V30 43 H -4.7155 3.0641 2.6026 0
M  V30 44 H -6.1384 2.0833 2.0955 0
M  V30 45 H -5.5526 2.0145 3.7612 0
M  V30 46 H 3.4922 -1.5104 0.236 0
M  V30 47 H 2.6875 -0.5657 1.4908 0
M  V30 48 H 1.1486 1.7292 -1.0449 0
M  V30 49 H 1.2097 1.4294 0.6905 0
M  V30 50 H 5.1093 -0.0031 1.3143 0
M  V30 51 H 4.9212 0.3603 -0.3818 0
M  V30 52 H 2.6463 3.336 0.1017 0
M  V30 53 H 3.4749 2.3892 -1.1244 0
M  V30 54 H 4.9441 2.465 0.7514 0
M  V30 55 H 3.2998 3.1809 2.4178 0
M  V30 56 H 2.6083 1.5622 2.5192 0
M  V30 57 H 5.5607 2.0822 3.1428 0
M  V30 58 H 4.2722 2.2826 4.3515 0
M  V30 59 H 5.1839 0.2156 4.3933 0
M  V30 END ATOM
M  V30 BEGIN BOND
M  V30 1 1 1 2
M  V30 2 1 1 3
M  V30 3 2 2 4
M  V30 4 1 2 5
M  V30 5 2 3 6
M  V30 6 1 3 7
M  V30 7 1 4 8
M  V30 8 1 4 9
M  V30 9 2 5 10
M  V30 10 1 6 11
M  V30 11 2 7 12
M  V30 12 1 8 13
M  V30 13 2 9 14
M  V30 14 2 11 15
M  V30 15 1 13 16
M  V30 16 1 14 17
M  V30 17 1 16 18
M  V30 18 2 17 19
M  V30 19 1 17 20
M  V30 20 1 18 21
M  V30 21 1 21 22
M  V30 22 1 21 23
M  V30 23 1 22 24
M  V30 24 1 23 25
M  V30 25 1 24 26
M  V30 26 1 26 27
M  V30 27 1 27 28
M  V30 28 1 28 29
M  V30 29 1 6 8
M  V30 30 1 10 14
M  V30 31 1 12 15
M  V30 32 1 25 26
M  V30 33 1 5 30
M  V30 34 1 7 31
M  V30 35 1 9 32
M  V30 36 1 10 33
M  V30 37 1 11 34
M  V30 38 1 12 35
M  V30 39 1 13 36
M  V30 40 1 13 37
M  V30 41 1 15 38
M  V30 42 1 16 39
M  V30 43 1 16 40
M  V30 44 1 18 41
M  V30 45 1 18 42
M  V30 46 1 20 43
M  V30 47 1 20 44
M  V30 48 1 20 45
M  V30 49 1 22 46
M  V30 50 1 22 47
M  V30 51 1 23 48
M  V30 52 1 23 49
M  V30 53 1 24 50
M  V30 54 1 24 51
M  V30 55 1 25 52
M  V30 56 1 25 53
M  V30 57 1 26 54
M  V30 58 1 27 55
M  V30 59 1 27 56
M  V30 60 1 28 57
M  V30 61 1 28 58
M  V30 62 1 29 59
M  V30 END BOND
M  V30 END CTAB
M  END
>  <Column 1>
1068

>  <level_0>
1206

>  <index>
1206

>  <Unnamed: 0>
1206

>  <NO.>
1218

>  <Name>
piperacetazine

>  <IUPAC_name>
1-[10-[3-[4-(2-hydroxyethyl)piperidin-1-yl]propyl]phenothiazin-2-yl]ethanone

>  <SMILES>
CC(=O)c1ccc2c(c1)N(CCCN1CCC(CCO)CC1)c1ccccc1S2

>  <CID>
19675

>  <logBB>


>  <BBB+/BBB->
BBB+

>  <Inchi>
InChI=1S/C24H30N2O2S/c1-18(28)20-7-8-24-22(17-20)26(21-5-2-3-6-23(21)29-24)13-4-12-25-14-9-19(10-15-25)11-16-27/h2-3-5-8-17-19-27H-4-9-16H2-1H3

>  <threshold>
-1

>  <reference>
R1|R13|R19|R6|R14|R23|R24|R27|R27|R27|R30|R30|

>  <group>
B

>  <Class>
1

>  <ABC>
22.64

>  <ABCGG>
16.37

>  <nAcid>
0

>  <nBase>
1

>  <nAromAtom>
12

>  <nAromBond>
12

>  <nAtom>
59

>  <nHeavyAtom>
29

>  <nSpiro>
0

>  <nBridgehead>
0

>  <nHetero>
5

>  <nN>
2

>  <nO>
2

>  <nF>
0

>  <BalabanJ>
1.33

>  <BertzCT>
861.71

>  <nBonds>
62

>  <nBondsO>
32

>  <nBondsS>
49

>  <nBondsD>
1

>  <nBondsT>
0

>  <nBondsA>
12

>  <nBondsM>
13

>  <nBondsKS>
55

>  <nBondsKD>
7

>  <RNCG>
0.21

>  <RPCG>
0.11

>  <FCSP3>
0.46

>  <SZ>
36.67

>  <Sm>
34.18

>  <Sv>
36.26

>  <Sse>
58.38

>  <Sp>
39.99

>  <Si>
66.15

>  <MZ>
0.62

>  <Mm>
0.58

>  <Mv>
0.61

>  <Mse>
0.99

>  <Mp>
0.68

>  <Mi>
1.12

>  <NsCH3>
1

>  <NdCH2>
0

>  <NssCH2>
9

>  <NtCH>
0

>  <NdsCH>
0

>  <NaaCH>
7

>  <NsssCH>
1

>  <NddC>
0

>  <NtsC>
0

>  <NdssC>
1

>  <NaasC>
5

>  <NaaaC>
0

>  <NssssC>
0

>  <NsNH3>
0

>  <NsNH2>
0

>  <NssNH2>
0

>  <NdNH>
0

>  <NssNH>
0

>  <NaaNH>
0

>  <NtN>
0

>  <NsssNH>
0

>  <NdsN>
0

>  <NaaN>
0

>  <NsssN>
2

>  <NddsN>
0

>  <NaasN>
0

>  <NssssN>
0

>  <NsOH>
1

>  <NdO>
1

>  <NssO>
0

>  <NaaO>
0

>  <NsF>
0

>  <NsSiH3>
0

>  <NssSiH2>
0

>  <NsssSiH>
0

>  <NssssSi>
0

>  <NsPH2>
0

>  <NssPH>
0

>  <NsssP>
0

>  <NdsssP>
0

>  <NsssssP>
0

>  <NsSH>
0

>  <NdS>
0

>  <NssS>
1

>  <NaaS>
0

>  <NdssS>
0

>  <NddssS>
0

>  <NsCl>
0

>  <NsBr>
0

>  <NsI>
0

>  <fragCpx>
212.05

>  <fMF>
0.39

>  <nHBAcc>
5

>  <nHBDon>
1

>  <Kier1>
22.2

>  <Kier2>
10.54

>  <Lipinski>
1

>  <GhoseFilter>
1

>  <FilterItLogS>
-5.49

>  <VMcGowan>
323.53

>  <LabuteASA>
177.45

>  <PEOE_VSA1>
14.91

>  <PEOE_VSA2>
4.79

>  <PEOE_VSA3>
0

>  <PEOE_VSA4>
0

>  <PEOE_VSA5>
0

>  <PEOE_VSA6>
29.96

>  <PEOE_VSA7>
82.42

>  <PEOE_VSA8>
28.51

>  <PEOE_VSA9>
11.37

>  <PEOE_VSA10>
0

>  <PEOE_VSA11>
5.78

>  <PEOE_VSA12>
0

>  <PEOE_VSA13>
0

>  <SMR_VSA1>
9.9

>  <SMR_VSA2>
0

>  <SMR_VSA3>
4.9

>  <SMR_VSA4>
5.92

>  <SMR_VSA5>
42.4

>  <SMR_VSA6>
37.69

>  <SMR_VSA7>
48.03

>  <SMR_VSA8>
0

>  <SMR_VSA9>
0

>  <SlogP_VSA1>
4.9

>  <SlogP_VSA2>
48.58

>  <SlogP_VSA3>
0

>  <SlogP_VSA4>
5.92

>  <SlogP_VSA5>
42.97

>  <SlogP_VSA6>
52.26

>  <SlogP_VSA7>
0

>  <SlogP_VSA8>
0

>  <SlogP_VSA9>
0

>  <SlogP_VSA10>
11.37

>  <SlogP_VSA11>
0

>  <EState_VSA1>
0

>  <EState_VSA2>
5.78

>  <EState_VSA3>
12.52

>  <EState_VSA4>
50.27

>  <EState_VSA5>
28.32

>  <EState_VSA6>
18.69

>  <EState_VSA7>
6.07

>  <EState_VSA8>
46.2

>  <EState_VSA9>
5.11

>  <EState_VSA10>
4.79

>  <VSA_EState1>
0

>  <VSA_EState2>
19.38

>  <VSA_EState3>
9.14

>  <VSA_EState4>
3.18

>  <VSA_EState5>
0.81

>  <VSA_EState6>
14.64

>  <VSA_EState7>
4.45

>  <VSA_EState8>
6.28

>  <VSA_EState9>
0

>  <apol>
66.79

>  <bpol>
36.84

>  <nRing>
4

>  <nHRing>
2

>  <naRing>
2

>  <naHRing>
0

>  <nARing 2>
2

>  <nAHRing 2>
2

>  <nFRing>
1

>  <nFHRing>
1

>  <nFaRing>
0

>  <nFaHRing>
0

>  <nFARing 2>
1

>  <nFAHRing 2>
1

>  <nRot>
7

>  <SLogP>
4.98

>  <SMR>
119.5

>  <TopoPSA(NO)>
43.78

>  <TopoPSA>
69.08

>  <JGI1>
0.16

>  <JGI2>
0.07

>  <JGI3>
0.03

>  <JGI4>
0.04

>  <JGI5>
0.02

>  <Diameter>
15

>  <Radius>
8

>  <TMWC10>
137.84

>  <TSRW10>
64.6

>  <MW>
410.2

>  <AMW>
6.95

>  <WPath>
2410

>  <WPol>
47

>  <Zagreb1>
152

>  <Zagreb2>
179

>  <mZagreb2>
6.47

>  <yes>


>  <nAR-cont>
1

>  <nHA-cont>
0.785905698

>  <MWHBN>
0.296246633

>  <MWHBN-cont>
0.851805955

>  <TPSA-cont>
0.517778704

>  <pka_cont>
0.97

>  <yes.1>


>  <BBB_SCORE>
4.584172039

>  <MMFF94 Energy>
90.771

$$$$
Compound 894
Actelion Java MolfileCreator 2.0

  0  0  0  0  0  0              0 V3000
M  V30 BEGIN CTAB
M  V30 COUNTS 58 61 0 0 0
M  V30 BEGIN ATOM
M  V30 1 S -2.013 2.8191 -4.3521 0
M  V30 2 C -2.6261 2.9541 -2.6915 0
M  V30 3 C -0.5607 1.8178 -4.1444 0
M  V30 4 C -2.0919 2.2449 -1.5984 0
M  V30 5 C -3.7185 3.8292 -2.5259 0
M  V30 6 C -0.2016 1.2024 -2.928 0
M  V30 7 C 0.2278 1.658 -5.3023 0
M  V30 8 N -0.9939 1.3483 -1.7514 0
M  V30 9 C -2.6998 2.4878 -0.3442 0
M  V30 10 C -4.2993 4.0354 -1.2775 0
M  V30 11 C 0.9935 0.447 -2.9462 0
M  V30 12 C 1.3913 0.8992 -5.2805 0
M  V30 13 C -0.6909 0.4429 -0.6126 0
M  V30 14 C -3.7868 3.365 -0.174 0
M  V30 15 C 1.7765 0.2945 -4.0972 0
M  V30 16 C 0.3185 1.0766 0.3563 0
M  V30 17 C -4.3488 3.5445 1.1988 0
M  V30 18 C 0.4947 0.2435 1.631 0
M  V30 19 O -3.86 2.9317 2.1461 0
M  V30 20 C -5.5126 4.4807 1.3955 0
M  V30 21 N 0.9711 -1.1245 1.377 0
M  V30 22 C 0.8013 -1.9547 2.5905 0
M  V30 23 C 2.4014 -1.1486 0.9995 0
M  V30 24 C 1.3286 -3.3968 2.4029 0
M  V30 25 C 2.9285 -2.5883 0.8011 0
M  V30 26 N 2.7467 -3.4294 2.0005 0
M  V30 27 C 3.2294 -4.8006 1.7392 0
M  V30 28 C 3.3248 -5.7024 2.9829 0
M  V30 29 O 4.3325 -5.2371 3.8754 0
M  V30 30 H -4.1238 4.3634 -3.3842 0
M  V30 31 H -0.0668 2.1337 -6.2358 0
M  V30 32 H -2.3291 2.0046 0.5549 0
M  V30 33 H -5.1368 4.7213 -1.2017 0
M  V30 34 H 1.3681 -0.0448 -2.0552 0
M  V30 35 H 1.9903 0.7868 -6.1794 0
M  V30 36 H -0.334 -0.5309 -0.969 0
M  V30 37 H -1.6106 0.1636 -0.0827 0
M  V30 38 H 2.6872 -0.2973 -4.0579 0
M  V30 39 H -0.0184 2.0773 0.6517 0
M  V30 40 H 1.2832 1.2356 -0.1361 0
M  V30 41 H 1.1662 0.7697 2.3217 0
M  V30 42 H -0.4848 0.201 2.1257 0
M  V30 43 H -5.2323 5.4985 1.1125 0
M  V30 44 H -6.3762 4.1381 0.8198 0
M  V30 45 H -5.7926 4.4883 2.4536 0
M  V30 46 H -0.2646 -2.0166 2.8419 0
M  V30 47 H 1.3128 -1.4938 3.4466 0
M  V30 48 H 2.5504 -0.6114 0.0573 0
M  V30 49 H 3.011 -0.6455 1.7622 0
M  V30 50 H 1.1954 -3.9176 3.3569 0
M  V30 51 H 0.7057 -3.9102 1.6582 0
M  V30 52 H 3.996 -2.5255 0.5575 0
M  V30 53 H 2.4217 -3.0377 -0.0637 0
M  V30 54 H 4.2404 -4.7344 1.317 0
M  V30 55 H 2.5931 -5.2894 0.9908 0
M  V30 56 H 2.3735 -5.7663 3.5185 0
M  V30 57 H 3.6025 -6.7152 2.6726 0
M  V30 58 H 4.2526 -5.7555 4.6927 0
M  V30 END ATOM
M  V30 BEGIN BOND
M  V30 1 1 1 2
M  V30 2 1 1 3
M  V30 3 2 2 4
M  V30 4 1 2 5
M  V30 5 2 3 6
M  V30 6 1 3 7
M  V30 7 1 4 8
M  V30 8 1 4 9
M  V30 9 2 5 10
M  V30 10 1 6 11
M  V30 11 2 7 12
M  V30 12 1 8 13
M  V30 13 2 9 14
M  V30 14 2 11 15
M  V30 15 1 13 16
M  V30 16 1 14 17
M  V30 17 1 16 18
M  V30 18 2 17 19
M  V30 19 1 17 20
M  V30 20 1 18 21
M  V30 21 1 21 22
M  V30 22 1 21 23
M  V30 23 1 22 24
M  V30 24 1 23 25
M  V30 25 1 24 26
M  V30 26 1 26 27
M  V30 27 1 27 28
M  V30 28 1 28 29
M  V30 29 1 6 8
M  V30 30 1 10 14
M  V30 31 1 12 15
M  V30 32 1 25 26
M  V30 33 1 5 30
M  V30 34 1 7 31
M  V30 35 1 9 32
M  V30 36 1 10 33
M  V30 37 1 11 34
M  V30 38 1 12 35
M  V30 39 1 13 36
M  V30 40 1 13 37
M  V30 41 1 15 38
M  V30 42 1 16 39
M  V30 43 1 16 40
M  V30 44 1 18 41
M  V30 45 1 18 42
M  V30 46 1 20 43
M  V30 47 1 20 44
M  V30 48 1 20 45
M  V30 49 1 22 46
M  V30 50 1 22 47
M  V30 51 1 23 48
M  V30 52 1 23 49
M  V30 53 1 24 50
M  V30 54 1 24 51
M  V30 55 1 25 52
M  V30 56 1 25 53
M  V30 57 1 27 54
M  V30 58 1 27 55
M  V30 59 1 28 56
M  V30 60 1 28 57
M  V30 61 1 29 58
M  V30 END BOND
M  V30 END CTAB
M  END
>  <Column 1>
1069

>  <level_0>
1207

>  <index>
1207

>  <Unnamed: 0>
1207

>  <NO.>
1219

>  <Name>
acetophenazine

>  <IUPAC_name>
1-[10-[3-[4-(2-hydroxyethyl)piperazin-1-yl]propyl]phenothiazin-2-yl]ethanone

>  <SMILES>
CC(=O)c1ccc2c(c1)N(CCCN1CCN(CCO)CC1)c1ccccc1S2

>  <CID>
17676

>  <logBB>


>  <BBB+/BBB->
BBB+

>  <Inchi>
InChI=1S/C23H29N3O2S/c1-18(28)19-7-8-23-21(17-19)26(20-5-2-3-6-22(20)29-23)10-4-9-24-11-13-25(14-12-24)15-16-27/h2-3-5-8-17-27H-4-9-16H2-1H3

>  <threshold>
-1

>  <reference>
R1|R13|R19|R6|R14|R23|R24|R27|R27|R27|R30|R30|

>  <group>
B

>  <Class>
1

>  <ABC>
22.64

>  <ABCGG>
16.37

>  <nAcid>
0

>  <nBase>
2

>  <nAromAtom>
12

>  <nAromBond>
12

>  <nAtom>
58

>  <nHeavyAtom>
29

>  <nSpiro>
0

>  <nBridgehead>
0

>  <nHetero>
6

>  <nN>
3

>  <nO>
2

>  <nF>
0

>  <BalabanJ>
1.33

>  <BertzCT>
864.95

>  <nBonds>
61

>  <nBondsO>
32

>  <nBondsS>
48

>  <nBondsD>
1

>  <nBondsT>
0

>  <nBondsA>
12

>  <nBondsM>
13

>  <nBondsKS>
54

>  <nBondsKD>
7

>  <RNCG>
0.19

>  <RPCG>
0.1

>  <FCSP3>
0.43

>  <SZ>
36.67

>  <Sm>
34.27

>  <Sv>
35.75

>  <Sse>
57.6

>  <Sp>
39.25

>  <Si>
65.23

>  <MZ>
0.63

>  <Mm>
0.59

>  <Mv>
0.62

>  <Mse>
0.99

>  <Mp>
0.68

>  <Mi>
1.12

>  <NsCH3>
1

>  <NdCH2>
0

>  <NssCH2>
9

>  <NtCH>
0

>  <NdsCH>
0

>  <NaaCH>
7

>  <NsssCH>
0

>  <NddC>
0

>  <NtsC>
0

>  <NdssC>
1

>  <NaasC>
5

>  <NaaaC>
0

>  <NssssC>
0

>  <NsNH3>
0

>  <NsNH2>
0

>  <NssNH2>
0

>  <NdNH>
0

>  <NssNH>
0

>  <NaaNH>
0

>  <NtN>
0

>  <NsssNH>
0

>  <NdsN>
0

>  <NaaN>
0

>  <NsssN>
3

>  <NddsN>
0

>  <NaasN>
0

>  <NssssN>
0

>  <NsOH>
1

>  <NdO>
1

>  <NssO>
0

>  <NaaO>
0

>  <NsF>
0

>  <NsSiH3>
0

>  <NssSiH2>
0

>  <NsssSiH>
0

>  <NssssSi>
0

>  <NsPH2>
0

>  <NssPH>
0

>  <NsssP>
0

>  <NdsssP>
0

>  <NsssssP>
0

>  <NsSH>
0

>  <NdS>
0

>  <NssS>
1

>  <NaaS>
0

>  <NdssS>
0

>  <NddssS>
0

>  <NsCl>
0

>  <NsBr>
0

>  <NsI>
0

>  <fragCpx>
212.06

>  <fMF>
0.4

>  <nHBAcc>
6

>  <nHBDon>
1

>  <Kier1>
22.2

>  <Kier2>
10.54

>  <Lipinski>
1

>  <GhoseFilter>
1

>  <FilterItLogS>
-4.77

>  <VMcGowan>
319.42

>  <LabuteASA>
176.85

>  <PEOE_VSA1>
14.91

>  <PEOE_VSA2>
9.69

>  <PEOE_VSA3>
0

>  <PEOE_VSA4>
0

>  <PEOE_VSA5>
0

>  <PEOE_VSA6>
29.96

>  <PEOE_VSA7>
44.15

>  <PEOE_VSA8>
54.62

>  <PEOE_VSA9>
17.98

>  <PEOE_VSA10>
0

>  <PEOE_VSA11>
5.78

>  <PEOE_VSA12>
0

>  <PEOE_VSA13>
0

>  <SMR_VSA1>
9.9

>  <SMR_VSA2>
0

>  <SMR_VSA3>
9.8

>  <SMR_VSA4>
0

>  <SMR_VSA5>
23.14

>  <SMR_VSA6>
57.32

>  <SMR_VSA7>
48.03

>  <SMR_VSA8>
0

>  <SMR_VSA9>
0

>  <SlogP_VSA1>
4.9

>  <SlogP_VSA2>
73.11

>  <SlogP_VSA3>
0

>  <SlogP_VSA4>
0

>  <SlogP_VSA5>
23.7

>  <SlogP_VSA6>
52.26

>  <SlogP_VSA7>
0

>  <SlogP_VSA8>
0

>  <SlogP_VSA9>
0

>  <SlogP_VSA10>
11.37

>  <SlogP_VSA11>
0

>  <EState_VSA1>
0

>  <EState_VSA2>
12.39

>  <EState_VSA3>
0

>  <EState_VSA4>
63.48

>  <EState_VSA5>
15.48

>  <EState_VSA6>
18.69

>  <EState_VSA7>
12.13

>  <EState_VSA8>
45.03

>  <EState_VSA9>
5.11

>  <EState_VSA10>
4.79

>  <VSA_EState1>
0

>  <VSA_EState2>
21.64

>  <VSA_EState3>
9.1

>  <VSA_EState4>
3.15

>  <VSA_EState5>
0.11

>  <VSA_EState6>
14.6

>  <VSA_EState7>
1.07

>  <VSA_EState8>
8.87

>  <VSA_EState9>
0

>  <apol>
65.55

>  <bpol>
37.55

>  <nRing>
4

>  <nHRing>
2

>  <naRing>
2

>  <naHRing>
0

>  <nARing 2>
2

>  <nAHRing 2>
2

>  <nFRing>
1

>  <nFHRing>
1

>  <nFaRing>
0

>  <nFaHRing>
0

>  <nFARing 2>
1

>  <nFAHRing 2>
1

>  <nRot>
7

>  <SLogP>
3.49

>  <SMR>
118.6

>  <TopoPSA(NO)>
47.02

>  <TopoPSA>
72.32

>  <JGI1>
0.16

>  <JGI2>
0.07

>  <JGI3>
0.03

>  <JGI4>
0.04

>  <JGI5>
0.02

>  <Diameter>
15

>  <Radius>
8

>  <TMWC10>
137.84

>  <TSRW10>
64.6

>  <MW>
411.2

>  <AMW>
7.09

>  <WPath>
2410

>  <WPol>
47

>  <Zagreb1>
152

>  <Zagreb2>
179

>  <mZagreb2>
6.47

>  <yes>


>  <nAR-cont>
1

>  <nHA-cont>
0.785905698

>  <MWHBN>
0.345200556

>  <MWHBN-cont>
0.688084008

>  <TPSA-cont>
0.495161492

>  <pka_cont>
0.97

>  <yes.1>


>  <BBB_SCORE>
4.293354694

>  <MMFF94 Energy>
168.11

$$$$
Compound 895
Actelion Java MolfileCreator 2.0

  0  0  0  0  0  0              0 V3000
M  V30 BEGIN CTAB
M  V30 COUNTS 28 28 0 0 0
M  V30 BEGIN ATOM
M  V30 1 O 2.1111 -0.6251 0.7033 0
M  V30 2 C 0.9115 -0.4548 0.4717 0
M  V30 3 C 0.0976 0.3305 1.4563 0
M  V30 4 C 0.2341 -1.0415 -0.7855 0 CFG=1
M  V30 5 C 0.6967 0.6867 2.6744 0
M  V30 6 C -1.2259 0.7171 1.214 0
M  V30 7 N -0.0525 0.0431 -1.7576 0
M  V30 8 C 1.063 -2.2126 -1.3322 0
M  V30 9 C -0.0161 1.409 3.6339 0
M  V30 10 C -1.9374 1.4412 2.1758 0
M  V30 11 C -0.95 -0.3971 -2.8248 0
M  V30 12 C 1.1501 0.6547 -2.327 0
M  V30 13 C -1.3338 1.7846 3.3842 0
M  V30 14 H -0.7152 -1.4749 -0.4428 0
M  V30 15 H 1.7264 0.4018 2.8833 0
M  V30 16 H -1.7248 0.4835 0.2785 0
M  V30 17 H 0.5641 -2.7025 -2.1736 0
M  V30 18 H 1.2056 -2.9699 -0.5525 0
M  V30 19 H 2.0609 -1.9001 -1.6565 0
M  V30 20 H 0.4598 1.6788 4.5733 0
M  V30 21 H -2.9632 1.7426 1.9775 0
M  V30 22 H -0.4887 -1.1363 -3.4879 0
M  V30 23 H -1.2603 0.4577 -3.4364 0
M  V30 24 H -1.8667 -0.8283 -2.4079 0
M  V30 25 H 1.8164 1.0359 -1.5468 0
M  V30 26 H 0.8752 1.5209 -2.94 0
M  V30 27 H 1.7148 -0.0361 -2.9618 0
M  V30 28 H -1.8888 2.3496 4.1291 0
M  V30 END ATOM
M  V30 BEGIN BOND
M  V30 1 2 1 2
M  V30 2 1 2 3
M  V30 3 1 2 4
M  V30 4 2 3 5
M  V30 5 1 3 6
M  V30 6 1 4 7
M  V30 7 1 4 8
M  V30 8 1 5 9
M  V30 9 2 6 10
M  V30 10 1 7 11
M  V30 11 1 7 12
M  V30 12 2 9 13
M  V30 13 1 10 13
M  V30 14 1 4 14
M  V30 15 1 5 15
M  V30 16 1 6 16
M  V30 17 1 8 17
M  V30 18 1 8 18
M  V30 19 1 8 19
M  V30 20 1 9 20
M  V30 21 1 10 21
M  V30 22 1 11 22
M  V30 23 1 11 23
M  V30 24 1 11 24
M  V30 25 1 12 25
M  V30 26 1 12 26
M  V30 27 1 12 27
M  V30 28 1 13 28
M  V30 END BOND
M  V30 BEGIN COLLECTION
M  V30 MDLV30/STERAC1 ATOMS=(1 4)
M  V30 END COLLECTION
M  V30 END CTAB
M  END
>  <Column 1>
1070

>  <level_0>
1208

>  <index>
1208

>  <Unnamed: 0>
1208

>  <NO.>
1220

>  <Name>
metamfepramone

>  <IUPAC_name>
2-(dimethylamino)-1-phenylpropan-1-one

>  <SMILES>
CC(C(=O)c1ccccc1)N(C)C

>  <CID>
71872

>  <logBB>


>  <BBB+/BBB->
BBB+

>  <Inchi>
InChI=1S/C11H15NO/c1-9(12(2)3)11(13)10-7-5-4-6-8-10/h4-9H-1-3H3

>  <threshold>
-1

>  <reference>
R1|R19|R6|R27|R27|R30|

>  <group>
B

>  <Class>
-1

>  <ABC>
9.51

>  <ABCGG>
9.1

>  <nAcid>
0

>  <nBase>
1

>  <nAromAtom>
6

>  <nAromBond>
6

>  <nAtom>
28

>  <nHeavyAtom>
13

>  <nSpiro>
0

>  <nBridgehead>
0

>  <nHetero>
2

>  <nN>
1

>  <nO>
1

>  <nF>
0

>  <BalabanJ>
2.4

>  <BertzCT>
279.4

>  <nBonds>
28

>  <nBondsO>
13

>  <nBondsS>
21

>  <nBondsD>
1

>  <nBondsT>
0

>  <nBondsA>
6

>  <nBondsM>
7

>  <nBondsKS>
24

>  <nBondsKD>
4

>  <RNCG>
0.32

>  <RPCG>
0.19

>  <FCSP3>
0.36

>  <SZ>
16

>  <Sm>
14.76

>  <Sv>
16.54

>  <Sse>
27.65

>  <Sp>
18.13

>  <Si>
31.61

>  <MZ>
0.57

>  <Mm>
0.53

>  <Mv>
0.59

>  <Mse>
0.99

>  <Mp>
0.65

>  <Mi>
1.13

>  <NsCH3>
3

>  <NdCH2>
0

>  <NssCH2>
0

>  <NtCH>
0

>  <NdsCH>
0

>  <NaaCH>
5

>  <NsssCH>
1

>  <NddC>
0

>  <NtsC>
0

>  <NdssC>
1

>  <NaasC>
1

>  <NaaaC>
0

>  <NssssC>
0

>  <NsNH3>
0

>  <NsNH2>
0

>  <NssNH2>
0

>  <NdNH>
0

>  <NssNH>
0

>  <NaaNH>
0

>  <NtN>
0

>  <NsssNH>
0

>  <NdsN>
0

>  <NaaN>
0

>  <NsssN>
1

>  <NddsN>
0

>  <NaasN>
0

>  <NssssN>
0

>  <NsOH>
0

>  <NdO>
1

>  <NssO>
0

>  <NaaO>
0

>  <NsF>
0

>  <NsSiH3>
0

>  <NssSiH2>
0

>  <NsssSiH>
0

>  <NssssSi>
0

>  <NsPH2>
0

>  <NssPH>
0

>  <NsssP>
0

>  <NdsssP>
0

>  <NsssssP>
0

>  <NsSH>
0

>  <NdS>
0

>  <NssS>
0

>  <NaaS>
0

>  <NdssS>
0

>  <NddssS>
0

>  <NsCl>
0

>  <NsBr>
0

>  <NsI>
0

>  <fragCpx>
13.02

>  <fMF>
0.21

>  <nHBAcc>
2

>  <nHBDon>
0

>  <Kier1>
11.08

>  <Kier2>
5.02

>  <Lipinski>
1

>  <GhoseFilter>
1

>  <FilterItLogS>
-2.13

>  <VMcGowan>
153.64

>  <LabuteASA>
79.18

>  <PEOE_VSA1>
0

>  <PEOE_VSA2>
9.69

>  <PEOE_VSA3>
0

>  <PEOE_VSA4>
0

>  <PEOE_VSA5>
0

>  <PEOE_VSA6>
30.33

>  <PEOE_VSA7>
21.02

>  <PEOE_VSA8>
5.56

>  <PEOE_VSA9>
6.04

>  <PEOE_VSA10>
0

>  <PEOE_VSA11>
5.78

>  <PEOE_VSA12>
0

>  <PEOE_VSA13>
0

>  <SMR_VSA1>
4.79

>  <SMR_VSA2>
0

>  <SMR_VSA3>
4.9

>  <SMR_VSA4>
0

>  <SMR_VSA5>
12.97

>  <SMR_VSA6>
14.1

>  <SMR_VSA7>
35.9

>  <SMR_VSA8>
0

>  <SMR_VSA9>
0

>  <SlogP_VSA1>
0

>  <SlogP_VSA2>
30.82

>  <SlogP_VSA3>
0

>  <SlogP_VSA4>
0

>  <SlogP_VSA5>
17.28

>  <SlogP_VSA6>
30.33

>  <SlogP_VSA7>
0

>  <SlogP_VSA8>
0

>  <SlogP_VSA9>
0

>  <SlogP_VSA10>
0

>  <SlogP_VSA11>
0

>  <EState_VSA1>
0

>  <EState_VSA2>
11.83

>  <EState_VSA3>
0

>  <EState_VSA4>
5.56

>  <EState_VSA5>
0

>  <EState_VSA6>
0

>  <EState_VSA7>
56.25

>  <EState_VSA8>
0

>  <EState_VSA9>
0

>  <EState_VSA10>
4.79

>  <VSA_EState1>
0

>  <VSA_EState2>
13.66

>  <VSA_EState3>
0

>  <VSA_EState4>
0.78

>  <VSA_EState5>
0.17

>  <VSA_EState6>
9.33

>  <VSA_EState7>
0

>  <VSA_EState8>
1.91

>  <VSA_EState9>
3.82

>  <apol>
30.27

>  <bpol>
17.63

>  <nRing>
1

>  <nHRing>
0

>  <naRing>
1

>  <naHRing>
0

>  <nARing 2>
0

>  <nAHRing 2>
0

>  <nFRing>
0

>  <nFHRing>
0

>  <nFaRing>
0

>  <nFaHRing>
0

>  <nFARing 2>
0

>  <nFAHRing 2>
0

>  <nRot>
3

>  <SLogP>
1.82

>  <SMR>
53.92

>  <TopoPSA(NO)>
20.31

>  <TopoPSA>
20.31

>  <JGI1>
0.19

>  <JGI2>
0.1

>  <JGI3>
0.06

>  <JGI4>
0.04

>  <JGI5>
0.03

>  <Diameter>
7

>  <Radius>
4

>  <TMWC10>
92.4

>  <TSRW10>
43.58

>  <MW>
177.12

>  <AMW>
6.33

>  <WPath>
250

>  <WPol>
17

>  <Zagreb1>
60

>  <Zagreb2>
67

>  <mZagreb2>
3

>  <yes>


>  <nAR-cont>
0.336376

>  <nHA-cont>
0.841215992

>  <MWHBN>
0.150278272

>  <MWHBN-cont>
0.933235015

>  <TPSA-cont>
0.858223588

>  <pka_cont>
0.97

>  <yes.1>


>  <BBB_SCORE>
4.77889169

>  <MMFF94 Energy>
75.343

$$$$
Compound 896
Actelion Java MolfileCreator 2.0

  0  0  0  0  0  0              0 V3000
M  V30 BEGIN CTAB
M  V30 COUNTS 30 29 0 0 0
M  V30 BEGIN ATOM
M  V30 1 O 0.6166 -2.3912 0.2312 0
M  V30 2 C 0.4344 -1.3167 0.7986 0
M  V30 3 N 0.086 -0.1772 0.1041 0
M  V30 4 C 0.5755 -1.1396 2.3229 0
M  V30 5 C -0.08 -0.2026 -1.3332 0
M  V30 6 C 0.9648 -2.4853 2.9594 0
M  V30 7 C 1.6746 -0.112 2.6313 0
M  V30 8 C -0.7612 -0.6789 2.9229 0
M  V30 9 C -0.4638 1.1665 -1.8766 0
M  V30 10 C -0.6373 1.1324 -3.3922 0
M  V30 11 C -1.0164 2.4841 -3.9312 0
M  V30 12 O -1.1806 3.5136 -3.3 0
M  V30 13 O -1.1721 2.4649 -5.269 0
M  V30 14 H -0.0567 0.6917 0.6014 0
M  V30 15 H -0.8509 -0.9449 -1.5703 0
M  V30 16 H 0.8621 -0.5461 -1.7753 0
M  V30 17 H 1.9158 -2.8541 2.5578 0
M  V30 18 H 1.074 -2.3955 4.0461 0
M  V30 19 H 0.2064 -3.252 2.7624 0
M  V30 20 H 2.6195 -0.3924 2.152 0
M  V30 21 H 1.4125 0.8888 2.2716 0
M  V30 22 H 1.853 -0.035 3.7099 0
M  V30 23 H -1.5703 -1.3676 2.6534 0
M  V30 24 H -1.0495 0.3158 2.5663 0
M  V30 25 H -0.7088 -0.6313 4.0165 0
M  V30 26 H 0.3046 1.9017 -1.6045 0
M  V30 27 H -1.3932 1.5064 -1.4013 0
M  V30 28 H 0.3 0.8239 -3.8677 0
M  V30 29 H -1.4267 0.422 -3.6611 0
M  V30 30 H -1.4141 3.3871 -5.4974 0
M  V30 END ATOM
M  V30 BEGIN BOND
M  V30 1 2 1 2
M  V30 2 1 2 3
M  V30 3 1 2 4
M  V30 4 1 3 5
M  V30 5 1 4 6
M  V30 6 1 4 7
M  V30 7 1 4 8
M  V30 8 1 5 9
M  V30 9 1 9 10
M  V30 10 1 10 11
M  V30 11 2 11 12
M  V30 12 1 11 13
M  V30 13 1 3 14
M  V30 14 1 5 15
M  V30 15 1 5 16
M  V30 16 1 6 17
M  V30 17 1 6 18
M  V30 18 1 6 19
M  V30 19 1 7 20
M  V30 20 1 7 21
M  V30 21 1 7 22
M  V30 22 1 8 23
M  V30 23 1 8 24
M  V30 24 1 8 25
M  V30 25 1 9 26
M  V30 26 1 9 27
M  V30 27 1 10 28
M  V30 28 1 10 29
M  V30 29 1 13 30
M  V30 END BOND
M  V30 END CTAB
M  END
>  <Column 1>
1072

>  <level_0>
1210

>  <index>
1210

>  <Unnamed: 0>
1210

>  <NO.>
1222

>  <Name>
pivagabine

>  <IUPAC_name>
4-(2-2-dimethylpropanoylamino)butanoic acid

>  <SMILES>
CC(C)(C)C(=O)NCCCC(=O)O

>  <CID>
68888

>  <logBB>


>  <BBB+/BBB->
BBB+

>  <Inchi>
InChI=1S/C9H17NO3/c1-9(2-3)8(13)10-6-4-5-7(11)12/h4-6H2-1-3H3-(H-10-13)(H-11-12)

>  <threshold>
-1

>  <reference>
R1|R13|R19|R6|R24|R27|R27|R27|R30|R30|

>  <group>
B

>  <Class>
1

>  <ABC>
9.23

>  <ABCGG>
9

>  <nAcid>
1

>  <nBase>
0

>  <nAromAtom>
0

>  <nAromBond>
0

>  <nAtom>
30

>  <nHeavyAtom>
13

>  <nSpiro>
0

>  <nBridgehead>
0

>  <nHetero>
4

>  <nN>
1

>  <nO>
3

>  <nF>
0

>  <BalabanJ>
3.43

>  <BertzCT>
193.53

>  <nBonds>
29

>  <nBondsO>
12

>  <nBondsS>
27

>  <nBondsD>
2

>  <nBondsT>
0

>  <nBondsA>
0

>  <nBondsM>
2

>  <nBondsKS>
27

>  <nBondsKD>
2

>  <RNCG>
0.31

>  <RPCG>
0.2

>  <FCSP3>
0.78

>  <SZ>
17

>  <Sm>
15.59

>  <Sv>
16.51

>  <Sse>
30.2

>  <Sp>
17.89

>  <Si>
34.45

>  <MZ>
0.57

>  <Mm>
0.52

>  <Mv>
0.55

>  <Mse>
1.01

>  <Mp>
0.6

>  <Mi>
1.15

>  <NsCH3>
3

>  <NdCH2>
0

>  <NssCH2>
3

>  <NtCH>
0

>  <NdsCH>
0

>  <NaaCH>
0

>  <NsssCH>
0

>  <NddC>
0

>  <NtsC>
0

>  <NdssC>
2

>  <NaasC>
0

>  <NaaaC>
0

>  <NssssC>
1

>  <NsNH3>
0

>  <NsNH2>
0

>  <NssNH2>
0

>  <NdNH>
0

>  <NssNH>
1

>  <NaaNH>
0

>  <NtN>
0

>  <NsssNH>
0

>  <NdsN>
0

>  <NaaN>
0

>  <NsssN>
0

>  <NddsN>
0

>  <NaasN>
0

>  <NssssN>
0

>  <NsOH>
1

>  <NdO>
2

>  <NssO>
0

>  <NaaO>
0

>  <NsF>
0

>  <NsSiH3>
0

>  <NssSiH2>
0

>  <NsssSiH>
0

>  <NssssSi>
0

>  <NsPH2>
0

>  <NssPH>
0

>  <NsssP>
0

>  <NdsssP>
0

>  <NsssssP>
0

>  <NsSH>
0

>  <NdS>
0

>  <NssS>
0

>  <NaaS>
0

>  <NdssS>
0

>  <NddssS>
0

>  <NsCl>
0

>  <NsBr>
0

>  <NsI>
0

>  <fragCpx>
12.04

>  <fMF>
0

>  <nHBAcc>
2

>  <nHBDon>
2

>  <Kier1>
13

>  <Kier2>
5.67

>  <Lipinski>
1

>  <GhoseFilter>
1

>  <FilterItLogS>
-1.68

>  <VMcGowan>
156.66

>  <LabuteASA>
78.33

>  <PEOE_VSA1>
10.42

>  <PEOE_VSA2>
9.59

>  <PEOE_VSA3>
0

>  <PEOE_VSA4>
0

>  <PEOE_VSA5>
0

>  <PEOE_VSA6>
20.77

>  <PEOE_VSA7>
6.42

>  <PEOE_VSA8>
18.38

>  <PEOE_VSA9>
0

>  <PEOE_VSA10>
0

>  <PEOE_VSA11>
0

>  <PEOE_VSA12>
5.91

>  <PEOE_VSA13>
0

>  <SMR_VSA1>
14.7

>  <SMR_VSA2>
0

>  <SMR_VSA3>
5.32

>  <SMR_VSA4>
5.41

>  <SMR_VSA5>
33.61

>  <SMR_VSA6>
6.54

>  <SMR_VSA7>
0

>  <SMR_VSA8>
0

>  <SMR_VSA9>
0

>  <SlogP_VSA1>
5.32

>  <SlogP_VSA2>
23.53

>  <SlogP_VSA3>
9.59

>  <SlogP_VSA4>
5.41

>  <SlogP_VSA5>
33.61

>  <SlogP_VSA6>
0

>  <SlogP_VSA7>
0

>  <SlogP_VSA8>
0

>  <SlogP_VSA9>
0

>  <SlogP_VSA10>
0

>  <SlogP_VSA11>
0

>  <EState_VSA1>
11.38

>  <EState_VSA2>
12.33

>  <EState_VSA3>
12.97

>  <EState_VSA4>
0

>  <EState_VSA5>
0

>  <EState_VSA6>
0

>  <EState_VSA7>
20.77

>  <EState_VSA8>
5.32

>  <EState_VSA9>
5.11

>  <EState_VSA10>
9.59

>  <VSA_EState1>
0

>  <VSA_EState2>
21.38

>  <VSA_EState3>
11

>  <VSA_EState4>
-0.4

>  <VSA_EState5>
-0.87

>  <VSA_EState6>
0

>  <VSA_EState7>
0.58

>  <VSA_EState8>
5.89

>  <VSA_EState9>
0

>  <apol>
29.87

>  <bpol>
19.36

>  <nRing>
0

>  <nHRing>
0

>  <naRing>
0

>  <naHRing>
0

>  <nARing 2>
0

>  <nAHRing 2>
0

>  <nFRing>
0

>  <nFHRing>
0

>  <nFaRing>
0

>  <nFaHRing>
0

>  <nFARing 2>
0

>  <nFAHRing 2>
0

>  <nRot>
4

>  <SLogP>
1.01

>  <SMR>
49.33

>  <TopoPSA(NO)>
66.4

>  <TopoPSA>
66.4

>  <JGI1>
0.38

>  <JGI2>
0.11

>  <JGI3>
0.05

>  <JGI4>
0.04

>  <JGI5>
0.03

>  <Diameter>
8

>  <Radius>
4

>  <TMWC10>
88.92

>  <TSRW10>
42.91

>  <MW>
187.12

>  <AMW>
6.24

>  <WPath>
298

>  <WPol>
13

>  <Zagreb1>
56

>  <Zagreb2>
57

>  <mZagreb2>
2.92

>  <yes>


>  <nAR-cont>
0.336376

>  <nHA-cont>
0.841215992

>  <MWHBN>
0.292415162

>  <MWHBN-cont>
0.862792238

>  <TPSA-cont>
0.536486768

>  <pka_cont>
0.97

>  <yes.1>


>  <BBB_SCORE>
4.029753886

>  <MMFF94 Energy>
-42.312

$$$$
Compound 897
Actelion Java MolfileCreator 2.0

  0  0  0  0  0  0              0 V3000
M  V30 BEGIN CTAB
M  V30 COUNTS 45 47 0 0 0
M  V30 BEGIN ATOM
M  V30 1 Cl -4.0381 -3.6337 2.7446 0
M  V30 2 C -3.3533 -2.1448 2.224 0
M  V30 3 C -2.5754 -2.1081 1.0691 0
M  V30 4 C -3.5884 -0.9833 2.9545 0
M  V30 5 C -2.0243 -0.8924 0.6338 0
M  V30 6 C -3.0247 0.2245 2.5381 0
M  V30 7 C -1.2624 -0.8763 -0.6519 0
M  V30 8 C -2.2218 0.273 1.3925 0
M  V30 9 N -0.1311 -0.2794 -0.828 0
M  V30 10 C -1.8389 -1.5991 -1.831 0
M  V30 11 N -1.6648 1.5141 1.0625 0
M  V30 12 C 0.4761 0.4707 0.2827 0 CFG=2
M  V30 13 C -3.2182 -1.6083 -2.0759 0
M  V30 14 C -0.9725 -2.2492 -2.7181 0
M  V30 15 C -0.4142 1.7242 0.5297 0
M  V30 16 O 1.8199 0.8802 0.006 0
M  V30 17 C -3.725 -2.2903 -3.1841 0
M  V30 18 C -1.4838 -2.9291 -3.8244 0
M  V30 19 O -0.0504 2.8822 0.3091 0
M  V30 20 C 2.4964 1.3439 1.0914 0
M  V30 21 C -2.8591 -2.9529 -4.0539 0
M  V30 22 O 2.063 1.3172 2.2373 0
M  V30 23 C 3.8703 1.8846 0.6894 0
M  V30 24 C 4.5984 2.4114 1.9362 0
M  V30 25 C 4.7003 0.756 0.0643 0
M  V30 26 C 3.6937 3.0364 -0.309 0
M  V30 27 H -2.4037 -3.0259 0.5111 0
M  V30 28 H -4.1984 -1.0119 3.8545 0
M  V30 29 H -3.1977 1.1189 3.1334 0
M  V30 30 H -2.1544 2.3668 1.3049 0
M  V30 31 H 0.492 -0.1639 1.1784 0
M  V30 32 H -3.9089 -1.0764 -1.4276 0
M  V30 33 H 0.1022 -2.2266 -2.5514 0
M  V30 34 H -4.7953 -2.2973 -3.376 0
M  V30 35 H -0.8079 -3.4338 -4.5101 0
M  V30 36 H -3.2553 -3.4791 -4.919 0
M  V30 37 H 4.7383 1.618 2.6796 0
M  V30 38 H 5.5872 2.8089 1.6815 0
M  V30 39 H 4.0292 3.2145 2.419 0
M  V30 40 H 4.7875 -0.0946 0.75 0
M  V30 41 H 4.2432 0.3826 -0.8589 0
M  V30 42 H 5.7118 1.0973 -0.182 0
M  V30 43 H 3.0559 3.8244 0.1078 0
M  V30 44 H 3.2233 2.6968 -1.2386 0
M  V30 45 H 4.6582 3.4851 -0.5716 0
M  V30 END ATOM
M  V30 BEGIN BOND
M  V30 1 1 1 2
M  V30 2 2 2 3
M  V30 3 1 2 4
M  V30 4 1 3 5
M  V30 5 2 4 6
M  V30 6 1 5 7
M  V30 7 2 5 8
M  V30 8 2 7 9
M  V30 9 1 7 10
M  V30 10 1 8 11
M  V30 11 1 9 12
M  V30 12 2 10 13
M  V30 13 1 10 14
M  V30 14 1 11 15
M  V30 15 1 12 16
M  V30 16 1 13 17
M  V30 17 2 14 18
M  V30 18 2 15 19
M  V30 19 1 16 20
M  V30 20 2 17 21
M  V30 21 2 20 22
M  V30 22 1 20 23
M  V30 23 1 23 24
M  V30 24 1 23 25
M  V30 25 1 23 26
M  V30 26 1 6 8
M  V30 27 1 12 15
M  V30 28 1 18 21
M  V30 29 1 3 27
M  V30 30 1 4 28
M  V30 31 1 6 29
M  V30 32 1 11 30
M  V30 33 1 12 31
M  V30 34 1 13 32
M  V30 35 1 14 33
M  V30 36 1 17 34
M  V30 37 1 18 35
M  V30 38 1 21 36
M  V30 39 1 24 37
M  V30 40 1 24 38
M  V30 41 1 24 39
M  V30 42 1 25 40
M  V30 43 1 25 41
M  V30 44 1 25 42
M  V30 45 1 26 43
M  V30 46 1 26 44
M  V30 47 1 26 45
M  V30 END BOND
M  V30 BEGIN COLLECTION
M  V30 MDLV30/STERAC1 ATOMS=(1 12)
M  V30 END COLLECTION
M  V30 END CTAB
M  END
>  <Column 1>
1073

>  <level_0>
1211

>  <index>
1211

>  <Unnamed: 0>
1211

>  <NO.>
1223

>  <Name>
pivoxazepam

>  <IUPAC_name>
(7-chloro-2-oxo-5-phenyl-1-3-dihydro-1-4-benzodiazepin-3-yl) 2-2-dimethylpropanoate

>  <SMILES>
CC(C)(C)C(=O)OC1N=C(c2ccccc2)c2cc(Cl)ccc2NC1=O

>  <CID>
68722

>  <logBB>


>  <BBB+/BBB->
BBB+

>  <Inchi>
InChI=1S/C20H19ClN2O3/c1-20(2-3)19(25)26-18-17(24)22-15-10-9-13(21)11-14(15)16(23-18)12-7-5-4-6-8-12/h4-11-18H-1-3H3-(H-22-24)

>  <threshold>
-1

>  <reference>
R1|R19|R6|R27|R27|R30|

>  <group>
B

>  <Class>
-1

>  <ABC>
20.38

>  <ABCGG>
16.77

>  <nAcid>
0

>  <nBase>
0

>  <nAromAtom>
12

>  <nAromBond>
12

>  <nAtom>
45

>  <nHeavyAtom>
26

>  <nSpiro>
0

>  <nBridgehead>
0

>  <nHetero>
6

>  <nN>
2

>  <nO>
3

>  <nF>
0

>  <BalabanJ>
1.79

>  <BertzCT>
885.67

>  <nBonds>
47

>  <nBondsO>
28

>  <nBondsS>
32

>  <nBondsD>
3

>  <nBondsT>
0

>  <nBondsA>
12

>  <nBondsM>
15

>  <nBondsKS>
38

>  <nBondsKD>
9

>  <RNCG>
0.2

>  <RPCG>
0.15

>  <FCSP3>
0.25

>  <SZ>
32.33

>  <Sm>
30.87

>  <Sv>
29.9

>  <Sse>
45.52

>  <Sp>
31.65

>  <Si>
50.31

>  <MZ>
0.72

>  <Mm>
0.69

>  <Mv>
0.66

>  <Mse>
1.01

>  <Mp>
0.7

>  <Mi>
1.12

>  <NsCH3>
3

>  <NdCH2>
0

>  <NssCH2>
0

>  <NtCH>
0

>  <NdsCH>
0

>  <NaaCH>
8

>  <NsssCH>
1

>  <NddC>
0

>  <NtsC>
0

>  <NdssC>
3

>  <NaasC>
4

>  <NaaaC>
0

>  <NssssC>
1

>  <NsNH3>
0

>  <NsNH2>
0

>  <NssNH2>
0

>  <NdNH>
0

>  <NssNH>
1

>  <NaaNH>
0

>  <NtN>
0

>  <NsssNH>
0

>  <NdsN>
1

>  <NaaN>
0

>  <NsssN>
0

>  <NddsN>
0

>  <NaasN>
0

>  <NssssN>
0

>  <NsOH>
0

>  <NdO>
2

>  <NssO>
1

>  <NaaO>
0

>  <NsF>
0

>  <NsSiH3>
0

>  <NssSiH2>
0

>  <NsssSiH>
0

>  <NssssSi>
0

>  <NsPH2>
0

>  <NssPH>
0

>  <NsssP>
0

>  <NdsssP>
0

>  <NsssssP>
0

>  <NsSH>
0

>  <NdS>
0

>  <NssS>
0

>  <NaaS>
0

>  <NdssS>
0

>  <NddssS>
0

>  <NsCl>
1

>  <NsBr>
0

>  <NsI>
0

>  <fragCpx>
134.06

>  <fMF>
0.38

>  <nHBAcc>
4

>  <nHBDon>
1

>  <Kier1>
20.73

>  <Kier2>
8.57

>  <Lipinski>
1

>  <GhoseFilter>
1

>  <FilterItLogS>
-5.74

>  <VMcGowan>
271.19

>  <LabuteASA>
156.59

>  <PEOE_VSA1>
10.05

>  <PEOE_VSA2>
9.59

>  <PEOE_VSA3>
4.99

>  <PEOE_VSA4>
0

>  <PEOE_VSA5>
0

>  <PEOE_VSA6>
41.93

>  <PEOE_VSA7>
38.97

>  <PEOE_VSA8>
16.15

>  <PEOE_VSA9>
16.81

>  <PEOE_VSA10>
0

>  <PEOE_VSA11>
0

>  <PEOE_VSA12>
0

>  <PEOE_VSA13>
12.14

>  <SMR_VSA1>
14.33

>  <SMR_VSA2>
0

>  <SMR_VSA3>
0

>  <SMR_VSA4>
10.41

>  <SMR_VSA5>
27

>  <SMR_VSA6>
5.32

>  <SMR_VSA7>
64.68

>  <SMR_VSA8>
0

>  <SMR_VSA9>
0

>  <SlogP_VSA1>
5.32

>  <SlogP_VSA2>
23.82

>  <SlogP_VSA3>
14.33

>  <SlogP_VSA4>
5.41

>  <SlogP_VSA5>
31.9

>  <SlogP_VSA6>
53.52

>  <SlogP_VSA7>
5.02

>  <SlogP_VSA8>
0

>  <SlogP_VSA9>
0

>  <SlogP_VSA10>
5.69

>  <SlogP_VSA11>
0

>  <EState_VSA1>
23.52

>  <EState_VSA2>
0

>  <EState_VSA3>
21.99

>  <EState_VSA4>
5.56

>  <EState_VSA5>
0

>  <EState_VSA6>
38.97

>  <EState_VSA7>
30.33

>  <EState_VSA8>
10.31

>  <EState_VSA9>
16.34

>  <EState_VSA10>
9.59

>  <VSA_EState1>
5.39

>  <VSA_EState2>
29.31

>  <VSA_EState3>
3.29

>  <VSA_EState4>
1.82

>  <VSA_EState5>
-1

>  <VSA_EState6>
14.52

>  <VSA_EState7>
-1.27

>  <VSA_EState8>
5.17

>  <VSA_EState9>
0

>  <apol>
52.86

>  <bpol>
24.75

>  <nRing>
3

>  <nHRing>
1

>  <naRing>
2

>  <naHRing>
0

>  <nARing 2>
1

>  <nAHRing 2>
1

>  <nFRing>
1

>  <nFHRing>
1

>  <nFaRing>
0

>  <nFaHRing>
0

>  <nFARing 2>
1

>  <nFAHRing 2>
1

>  <nRot>
2

>  <SLogP>
4.04

>  <SMR>
101.5

>  <TopoPSA(NO)>
67.76

>  <TopoPSA>
67.76

>  <JGI1>
0.25

>  <JGI2>
0.09

>  <JGI3>
0.04

>  <JGI4>
0.05

>  <JGI5>
0.02

>  <Diameter>
10

>  <Radius>
5

>  <TMWC10>
130.02

>  <TSRW10>
69.19

>  <MW>
370.11

>  <AMW>
8.22

>  <WPath>
1539

>  <WPol>
45

>  <Zagreb1>
138

>  <Zagreb2>
161

>  <mZagreb2>
5.53

>  <yes>


>  <nAR-cont>
0.816016

>  <nHA-cont>
0.892715677

>  <MWHBN>
0.259898992

>  <MWHBN-cont>
0.941617706

>  <TPSA-cont>
0.526993124

>  <pka_cont>
0.97

>  <yes.1>


>  <BBB_SCORE>
4.660144483

>  <MMFF94 Energy>
95.699

$$$$
Compound 898
Actelion Java MolfileCreator 2.0

  0  0  0  0  0  0              0 V3000
M  V30 BEGIN CTAB
M  V30 COUNTS 63 65 0 0 0
M  V30 BEGIN ATOM
M  V30 1 S -2.1697 -2.0893 2.0088 0
M  V30 2 C -1.593 -0.3569 2.3738 0
M  V30 3 C -2.3305 -1.814 0.1871 0 CFG=1
M  V30 4 C -2.0754 0.4552 1.1587 0
M  V30 5 C -2.2733 0.1103 3.6659 0
M  V30 6 C -0.0736 -0.3901 2.5766 0
M  V30 7 N -1.9546 -0.4027 -0.0109 0
M  V30 8 C -1.1504 -2.2127 -0.7351 0 CFG=1
M  V30 9 C -1.4968 1.8718 1.0781 0
M  V30 10 C -0.8141 -0.6953 -0.6967 0
M  V30 11 N -0.1691 -3.1119 -0.1101 0
M  V30 12 O -0.3569 2.1681 0.7555 0
M  V30 13 O -2.4434 2.7739 1.473 0
M  V30 14 O 0.1003 8.0E-4 -1.0699 0
M  V30 15 C 0.9937 -3.0918 -0.6698 0
M  V30 16 C -2.0203 4.1398 1.3837 0
M  V30 17 N 2.0878 -3.8198 -0.2678 0
M  V30 18 O -2.0548 4.5801 0.029 0
M  V30 19 C 1.9794 -4.7125 0.8844 0
M  V30 20 C 3.3836 -3.6253 -0.9047 0
M  V30 21 C -1.5796 5.8436 -0.1384 0
M  V30 22 C 2.9942 -5.8546 0.9099 0
M  V30 23 C 3.6073 -4.6897 -1.975 0
M  V30 24 O -1.2447 6.5782 0.782 0
M  V30 25 C -1.5374 6.2208 -1.6209 0
M  V30 26 C 3.0656 -6.6527 -0.3919 0
M  V30 27 C 4.0258 -6.0484 -1.4163 0
M  V30 28 C -0.9555 7.635 -1.7734 0
M  V30 29 C -0.6428 5.229 -2.3768 0
M  V30 30 C -2.9612 6.1999 -2.1918 0
M  V30 31 H -3.3242 -2.042 -0.2106 0
M  V30 32 H -3.1656 0.59 1.2409 0
M  V30 33 H -2.0025 -0.524 4.5181 0
M  V30 34 H -3.3661 0.1057 3.5784 0
M  V30 35 H -1.9714 1.1339 3.9156 0
M  V30 36 H 0.2042 -1.0625 3.3974 0
M  V30 37 H 0.3081 0.6018 2.8421 0
M  V30 38 H 0.468 -0.72 1.6859 0
M  V30 39 H -1.4645 -2.5567 -1.7279 0
M  V30 40 H 1.203 -2.4587 -1.5525 0
M  V30 41 H -2.7376 4.7261 1.9688 0
M  V30 42 H -1.0244 4.2637 1.829 0
M  V30 43 H 2.0809 -4.1218 1.8027 0
M  V30 44 H 0.9792 -5.1636 0.9082 0
M  V30 45 H 3.4171 -2.6369 -1.3803 0
M  V30 46 H 4.1942 -3.6212 -0.167 0
M  V30 47 H 3.9882 -5.4815 1.1834 0
M  V30 48 H 2.6996 -6.5357 1.7187 0
M  V30 49 H 2.7053 -4.8083 -2.5883 0
M  V30 50 H 4.4016 -4.3457 -2.6488 0
M  V30 51 H 2.0675 -6.779 -0.8274 0
M  V30 52 H 3.4321 -7.659 -0.153 0
M  V30 53 H 5.0243 -5.9623 -0.9695 0
M  V30 54 H 4.1258 -6.7483 -2.2551 0
M  V30 55 H 0.0594 7.693 -1.3637 0
M  V30 56 H -0.9091 7.9348 -2.8263 0
M  V30 57 H -1.5649 8.3752 -1.2419 0
M  V30 58 H 0.3612 5.1922 -1.939 0
M  V30 59 H -1.0485 4.2116 -2.3429 0
M  V30 60 H -0.5426 5.5094 -3.4312 0
M  V30 61 H -3.6219 6.8676 -1.6268 0
M  V30 62 H -3.3992 5.1964 -2.1466 0
M  V30 63 H -2.9732 6.5192 -3.2398 0
M  V30 END ATOM
M  V30 BEGIN BOND
M  V30 1 1 1 2
M  V30 2 1 1 3
M  V30 3 1 2 4
M  V30 4 1 2 5
M  V30 5 1 2 6
M  V30 6 1 3 7
M  V30 7 1 3 8
M  V30 8 1 4 9
M  V30 9 1 7 10
M  V30 10 1 8 11
M  V30 11 2 9 12
M  V30 12 1 9 13
M  V30 13 2 10 14
M  V30 14 2 11 15
M  V30 15 1 13 16
M  V30 16 1 15 17
M  V30 17 1 16 18
M  V30 18 1 17 19
M  V30 19 1 17 20
M  V30 20 1 18 21
M  V30 21 1 19 22
M  V30 22 1 20 23
M  V30 23 2 21 24
M  V30 24 1 21 25
M  V30 25 1 22 26
M  V30 26 1 23 27
M  V30 27 1 25 28
M  V30 28 1 25 29
M  V30 29 1 25 30
M  V30 30 1 4 7
M  V30 31 1 8 10
M  V30 32 1 26 27
M  V30 33 1 3 31
M  V30 34 1 4 32
M  V30 35 1 5 33
M  V30 36 1 5 34
M  V30 37 1 5 35
M  V30 38 1 6 36
M  V30 39 1 6 37
M  V30 40 1 6 38
M  V30 41 1 8 39
M  V30 42 1 15 40
M  V30 43 1 16 41
M  V30 44 1 16 42
M  V30 45 1 19 43
M  V30 46 1 19 44
M  V30 47 1 20 45
M  V30 48 1 20 46
M  V30 49 1 22 47
M  V30 50 1 22 48
M  V30 51 1 23 49
M  V30 52 1 23 50
M  V30 53 1 26 51
M  V30 54 1 26 52
M  V30 55 1 27 53
M  V30 56 1 27 54
M  V30 57 1 28 55
M  V30 58 1 28 56
M  V30 59 1 28 57
M  V30 60 1 29 58
M  V30 61 1 29 59
M  V30 62 1 29 60
M  V30 63 1 30 61
M  V30 64 1 30 62
M  V30 65 1 30 63
M  V30 END BOND
M  V30 BEGIN COLLECTION
M  V30 MDLV30/STEABS ATOMS=(2 3 8)
M  V30 END COLLECTION
M  V30 END CTAB
M  END
>  <Column 1>
1074

>  <level_0>
1212

>  <index>
1212

>  <Unnamed: 0>
1212

>  <NO.>
1224

>  <Name>
amdinocillinpivoxil

>  <IUPAC_name>
2-2-dimethylpropanoyloxymethyl (5r-6r)-6-(azepan-1-ylmethylideneamino)-3-3-dimethyl-7-oxo-4-thia-1-azabicyclo[3.2.0]heptane-2-carboxylate

>  <SMILES>
CC(C)(C)C(=O)OCOC(=O)C1N2C(=O)[C@@H](N=CN3CCCCCC3)[C@H]2SC1(C)C

>  <CID>
36272

>  <logBB>


>  <BBB+/BBB->
BBB-

>  <Inchi>
InChI=1S/C21H33N3O5S/c1-20(2-3)19(27)29-13-28-18(26)15-21(4-5)30-17-14(16(25)24(15)17)22-12-23-10-8-6-7-9-11-23/h12-14-15-17H-6-11-13H2-1-5H3/t14--15?-17-/m1/s1

>  <threshold>
-1

>  <reference>
R1|R27|R30|

>  <group>
B

>  <Class>
-1

>  <ABC>
23.38

>  <ABCGG>
19.05

>  <nAcid>
0

>  <nBase>
2

>  <nAromAtom>
0

>  <nAromBond>
0

>  <nAtom>
63

>  <nHeavyAtom>
30

>  <nSpiro>
0

>  <nBridgehead>
0

>  <nHetero>
9

>  <nN>
3

>  <nO>
5

>  <nF>
0

>  <BalabanJ>
1.51

>  <BertzCT>
709.92

>  <nBonds>
65

>  <nBondsO>
32

>  <nBondsS>
61

>  <nBondsD>
4

>  <nBondsT>
0

>  <nBondsA>
0

>  <nBondsM>
4

>  <nBondsKS>
61

>  <nBondsKD>
4

>  <RNCG>
0.14

>  <RPCG>
0.11

>  <FCSP3>
0.81

>  <SZ>
39.33

>  <Sm>
36.6

>  <Sv>
36.98

>  <Sse>
63.37

>  <Sp>
40.29

>  <Si>
71.69

>  <MZ>
0.62

>  <Mm>
0.58

>  <Mv>
0.59

>  <Mse>
1.01

>  <Mp>
0.64

>  <Mi>
1.14

>  <NsCH3>
5

>  <NdCH2>
0

>  <NssCH2>
7

>  <NtCH>
0

>  <NdsCH>
1

>  <NaaCH>
0

>  <NsssCH>
3

>  <NddC>
0

>  <NtsC>
0

>  <NdssC>
3

>  <NaasC>
0

>  <NaaaC>
0

>  <NssssC>
2

>  <NsNH3>
0

>  <NsNH2>
0

>  <NssNH2>
0

>  <NdNH>
0

>  <NssNH>
0

>  <NaaNH>
0

>  <NtN>
0

>  <NsssNH>
0

>  <NdsN>
1

>  <NaaN>
0

>  <NsssN>
2

>  <NddsN>
0

>  <NaasN>
0

>  <NssssN>
0

>  <NsOH>
0

>  <NdO>
3

>  <NssO>
2

>  <NaaO>
0

>  <NsF>
0

>  <NsSiH3>
0

>  <NssSiH2>
0

>  <NsssSiH>
0

>  <NssssSi>
0

>  <NsPH2>
0

>  <NssPH>
0

>  <NsssP>
0

>  <NdsssP>
0

>  <NsssssP>
0

>  <NsSH>
0

>  <NdS>
0

>  <NssS>
1

>  <NaaS>
0

>  <NdssS>
0

>  <NddssS>
0

>  <NsCl>
0

>  <NsBr>
0

>  <NsI>
0

>  <fragCpx>
154.09

>  <fMF>
0.25

>  <nHBAcc>
7

>  <nHBDon>
0

>  <Kier1>
24.64

>  <Kier2>
9.87

>  <Lipinski>
1

>  <GhoseFilter>
1

>  <FilterItLogS>
-2.64

>  <VMcGowan>
332.61

>  <LabuteASA>
182.27

>  <PEOE_VSA1>
19.27

>  <PEOE_VSA2>
14.58

>  <PEOE_VSA3>
4.79

>  <PEOE_VSA4>
0

>  <PEOE_VSA5>
11.76

>  <PEOE_VSA6>
12.84

>  <PEOE_VSA7>
47.46

>  <PEOE_VSA8>
17.84

>  <PEOE_VSA9>
11.75

>  <PEOE_VSA10>
11.42

>  <PEOE_VSA11>
6.04

>  <PEOE_VSA12>
6.79

>  <PEOE_VSA13>
5.91

>  <SMR_VSA1>
23.86

>  <SMR_VSA2>
0

>  <SMR_VSA3>
9.8

>  <SMR_VSA4>
10.41

>  <SMR_VSA5>
82.51

>  <SMR_VSA6>
19.88

>  <SMR_VSA7>
0

>  <SMR_VSA8>
0

>  <SMR_VSA9>
0

>  <SlogP_VSA1>
0

>  <SlogP_VSA2>
76.07

>  <SlogP_VSA3>
23.86

>  <SlogP_VSA4>
5.41

>  <SlogP_VSA5>
60.3

>  <SlogP_VSA6>
4.99

>  <SlogP_VSA7>
0

>  <SlogP_VSA8>
0

>  <SlogP_VSA9>
0

>  <SlogP_VSA10>
0

>  <SlogP_VSA11>
0

>  <EState_VSA1>
40.98

>  <EState_VSA2>
11.28

>  <EState_VSA3>
0

>  <EState_VSA4>
25.93

>  <EState_VSA5>
12.84

>  <EState_VSA6>
37.43

>  <EState_VSA7>
20.19

>  <EState_VSA8>
9.89

>  <EState_VSA9>
9.47

>  <EState_VSA10>
14.38

>  <VSA_EState1>
9.71

>  <VSA_EState2>
45.65

>  <VSA_EState3>
-0.18

>  <VSA_EState4>
-0.67

>  <VSA_EState5>
-1.16

>  <VSA_EState6>
-1.19

>  <VSA_EState7>
6.59

>  <VSA_EState8>
10.52

>  <VSA_EState9>
0

>  <apol>
67.28

>  <bpol>
46.2

>  <nRing>
3

>  <nHRing>
3

>  <naRing>
0

>  <naHRing>
0

>  <nARing 2>
3

>  <nAHRing 2>
3

>  <nFRing>
1

>  <nFHRing>
1

>  <nFaRing>
0

>  <nFaHRing>
0

>  <nFARing 2>
1

>  <nFAHRing 2>
1

>  <nRot>
5

>  <SLogP>
2.41

>  <SMR>
114.92

>  <TopoPSA(NO)>
88.51

>  <TopoPSA>
113.81

>  <JGI1>
0.25

>  <JGI2>
0.1

>  <JGI3>
0.07

>  <JGI4>
0.05

>  <JGI5>
0.03

>  <Diameter>
16

>  <Radius>
8

>  <TMWC10>
140.29

>  <TSRW10>
81.37

>  <MW>
439.21

>  <AMW>
6.97

>  <WPath>
2772

>  <WPol>
48

>  <Zagreb1>
160

>  <Zagreb2>
189

>  <mZagreb2>
6.38

>  <yes>


>  <nAR-cont>
0.691115

>  <nHA-cont>
0.74523694

>  <MWHBN>
0.334011893

>  <MWHBN-cont>
0.728671789

>  <TPSA-cont>
0.205535528

>  <pka_cont>
0.97

>  <yes.1>


>  <BBB_SCORE>
3.42543068

>  <MMFF94 Energy>
33.591

$$$$
Compound 899
Actelion Java MolfileCreator 2.0

  0  0  0  0  0  0              0 V3000
M  V30 BEGIN CTAB
M  V30 COUNTS 61 63 0 0 0
M  V30 BEGIN ATOM
M  V30 1 S 0.1609 2.0944 0.5635 0
M  V30 2 C 0.9113 0.4625 1.0457 0
M  V30 3 C -0.9005 1.3936 -0.768 0 CFG=1
M  V30 4 C 0.5175 -0.5509 -0.0525 0 CFG=1
M  V30 5 C 2.42 0.6598 1.2296 0
M  V30 6 C 0.297 0.0659 2.3995 0
M  V30 7 N -0.7098 -0.0507 -0.6403 0
M  V30 8 C -2.4069 1.1535 -0.4589 0 CFG=1
M  V30 9 C 1.5575 -0.7049 -1.1636 0
M  V30 10 C -1.9637 -0.3101 -0.1974 0
M  V30 11 N -3.004 1.8527 0.7082 0
M  V30 12 O 1.6413 0.0033 -2.1586 0
M  V30 13 O 2.4016 -1.7289 -0.861 0
M  V30 14 O -2.4312 -1.2905 0.3324 0
M  V30 15 C -3.2619 3.2081 0.6739 0
M  V30 16 C 3.3869 -2.0105 -1.8576 0
M  V30 17 O -3.0158 3.8917 -0.3205 0
M  V30 18 C -3.8548 3.7855 1.987 0 CFG=2
M  V30 19 O 2.862 -2.8337 -2.8995 0
M  V30 20 N -4.66 4.9831 1.6911 0
M  V30 21 C -2.7753 4.088 3.0098 0
M  V30 22 C 2.8227 -4.1632 -2.6146 0
M  V30 23 C -1.6259 4.8195 2.6711 0
M  V30 24 C -2.9308 3.6579 4.3378 0
M  V30 25 O 3.2325 -4.6607 -1.5742 0
M  V30 26 C 2.1912 -4.9484 -3.7674 0
M  V30 27 C -0.6464 5.089 3.6283 0
M  V30 28 C -1.9509 3.9316 5.2939 0
M  V30 29 C 2.1733 -6.4452 -3.4191 0
M  V30 30 C 0.7495 -4.4672 -3.9798 0
M  V30 31 C 3.0183 -4.7423 -5.0431 0
M  V30 32 C -0.808 4.6437 4.9381 0
M  V30 33 H -0.6848 1.7693 -1.7722 0
M  V30 34 H 0.3132 -1.5435 0.3677 0
M  V30 35 H 2.9048 -0.2867 1.4945 0
M  V30 36 H 2.9052 1.0421 0.3247 0
M  V30 37 H 2.6375 1.3682 2.0382 0
M  V30 38 H -0.7927 -0.0312 2.3548 0
M  V30 39 H 0.6952 -0.8999 2.7317 0
M  V30 40 H 0.5316 0.7984 3.1814 0
M  V30 41 H -3.0597 1.2302 -1.3374 0
M  V30 42 H -3.1889 1.3406 1.5639 0
M  V30 43 H 3.7749 -1.0888 -2.3074 0
M  V30 44 H 4.2462 -2.4851 -1.3689 0
M  V30 45 H -4.5379 3.0283 2.3918 0
M  V30 46 H -4.7575 5.5335 2.5424 0
M  V30 47 H -4.1218 5.5594 1.0396 0
M  V30 48 H -1.4771 5.1788 1.6536 0
M  V30 49 H -3.82 3.1084 4.6402 0
M  V30 50 H 0.2438 5.6466 3.3483 0
M  V30 51 H -2.0808 3.5918 6.3184 0
M  V30 52 H 1.5959 -6.6341 -2.5066 0
M  V30 53 H 1.7257 -7.0362 -4.226 0
M  V30 54 H 3.1872 -6.8255 -3.2487 0
M  V30 55 H 0.1637 -4.5594 -3.0578 0
M  V30 56 H 0.7155 -3.4139 -4.2808 0
M  V30 57 H 0.2474 -5.0503 -4.7598 0
M  V30 58 H 4.064 -5.03 -4.8848 0
M  V30 59 H 3.0152 -3.6938 -5.3617 0
M  V30 60 H 2.6243 -5.3404 -5.8722 0
M  V30 61 H -0.0446 4.8562 5.682 0
M  V30 END ATOM
M  V30 BEGIN BOND
M  V30 1 1 1 2
M  V30 2 1 1 3
M  V30 3 1 2 4
M  V30 4 1 2 5
M  V30 5 1 2 6
M  V30 6 1 3 7
M  V30 7 1 3 8
M  V30 8 1 4 9
M  V30 9 1 7 10
M  V30 10 1 8 11
M  V30 11 2 9 12
M  V30 12 1 9 13
M  V30 13 2 10 14
M  V30 14 1 11 15
M  V30 15 1 13 16
M  V30 16 2 15 17
M  V30 17 1 15 18
M  V30 18 1 16 19
M  V30 19 1 18 20
M  V30 20 1 18 21
M  V30 21 1 19 22
M  V30 22 2 21 23
M  V30 23 1 21 24
M  V30 24 2 22 25
M  V30 25 1 22 26
M  V30 26 1 23 27
M  V30 27 2 24 28
M  V30 28 1 26 29
M  V30 29 1 26 30
M  V30 30 1 26 31
M  V30 31 2 27 32
M  V30 32 1 4 7
M  V30 33 1 8 10
M  V30 34 1 28 32
M  V30 35 1 3 33
M  V30 36 1 4 34
M  V30 37 1 5 35
M  V30 38 1 5 36
M  V30 39 1 5 37
M  V30 40 1 6 38
M  V30 41 1 6 39
M  V30 42 1 6 40
M  V30 43 1 8 41
M  V30 44 1 11 42
M  V30 45 1 16 43
M  V30 46 1 16 44
M  V30 47 1 18 45
M  V30 48 1 20 46
M  V30 49 1 20 47
M  V30 50 1 23 48
M  V30 51 1 24 49
M  V30 52 1 27 50
M  V30 53 1 28 51
M  V30 54 1 29 52
M  V30 55 1 29 53
M  V30 56 1 29 54
M  V30 57 1 30 55
M  V30 58 1 30 56
M  V30 59 1 30 57
M  V30 60 1 31 58
M  V30 61 1 31 59
M  V30 62 1 31 60
M  V30 63 1 32 61
M  V30 END BOND
M  V30 BEGIN COLLECTION
M  V30 MDLV30/STEABS ATOMS=(4 3 4 8 18)
M  V30 END COLLECTION
M  V30 END CTAB
M  END
>  <Column 1>
1075

>  <level_0>
1213

>  <index>
1213

>  <Unnamed: 0>
1213

>  <NO.>
1225

>  <Name>
pivampicillin

>  <IUPAC_name>
2-2-dimethylpropanoyloxymethyl (2s-5r-6r)-6-[[(2r)-2-amino-2-phenylacetyl]amino]-3-3-dimethyl-7-oxo-4-thia-1-azabicyclo[3.2.0]heptane-2-carboxylate

>  <SMILES>
CC(C)(C)C(=O)OCOC(=O)[C@@H]1N2C(=O)[C@@H](NC(=O)[C@H](N)c3ccccc3)[C@H]2SC1(C)C

>  <CID>
33478

>  <logBB>


>  <BBB+/BBB->
BBB-

>  <Inchi>
InChI=1S/C22H29N3O6S/c1-21(2-3)20(29)31-11-30-19(28)15-22(4-5)32-18-14(17(27)25(15)18)24-16(26)13(23)12-9-7-6-8-10-12/h6-10-13-15-18H-11-23H2-1-5H3-(H-24-26)/t13--14--15+-18-/m1/s1

>  <threshold>
-1

>  <reference>
R1|R6|R27|R30|

>  <group>
B

>  <Class>
1

>  <ABC>
24.94

>  <ABCGG>
20.61

>  <nAcid>
0

>  <nBase>
1

>  <nAromAtom>
6

>  <nAromBond>
6

>  <nAtom>
61

>  <nHeavyAtom>
32

>  <nSpiro>
0

>  <nBridgehead>
0

>  <nHetero>
10

>  <nN>
3

>  <nO>
6

>  <nF>
0

>  <BalabanJ>
1.55

>  <BertzCT>
913.99

>  <nBonds>
63

>  <nBondsO>
34

>  <nBondsS>
53

>  <nBondsD>
4

>  <nBondsT>
0

>  <nBondsA>
6

>  <nBondsM>
10

>  <nBondsKS>
56

>  <nBondsKD>
7

>  <RNCG>
0.12

>  <RPCG>
0.09

>  <FCSP3>
0.55

>  <SZ>
41

>  <Sm>
38.59

>  <Sv>
37.61

>  <Sse>
61.92

>  <Sp>
40.17

>  <Si>
69.07

>  <MZ>
0.67

>  <Mm>
0.63

>  <Mv>
0.62

>  <Mse>
1.02

>  <Mp>
0.66

>  <Mi>
1.13

>  <NsCH3>
5

>  <NdCH2>
0

>  <NssCH2>
1

>  <NtCH>
0

>  <NdsCH>
0

>  <NaaCH>
5

>  <NsssCH>
4

>  <NddC>
0

>  <NtsC>
0

>  <NdssC>
4

>  <NaasC>
1

>  <NaaaC>
0

>  <NssssC>
2

>  <NsNH3>
0

>  <NsNH2>
1

>  <NssNH2>
0

>  <NdNH>
0

>  <NssNH>
1

>  <NaaNH>
0

>  <NtN>
0

>  <NsssNH>
0

>  <NdsN>
0

>  <NaaN>
0

>  <NsssN>
1

>  <NddsN>
0

>  <NaasN>
0

>  <NssssN>
0

>  <NsOH>
0

>  <NdO>
4

>  <NssO>
2

>  <NaaO>
0

>  <NsF>
0

>  <NsSiH3>
0

>  <NssSiH2>
0

>  <NsssSiH>
0

>  <NssssSi>
0

>  <NsPH2>
0

>  <NssPH>
0

>  <NsssP>
0

>  <NdsssP>
0

>  <NsssssP>
0

>  <NsSH>
0

>  <NdS>
0

>  <NssS>
1

>  <NaaS>
0

>  <NdssS>
0

>  <NddssS>
0

>  <NsCl>
0

>  <NsBr>
0

>  <NsI>
0

>  <fragCpx>
164.1

>  <fMF>
0.26

>  <nHBAcc>
8

>  <nHBDon>
2

>  <Kier1>
26.6

>  <Kier2>
10.32

>  <Lipinski>
1

>  <GhoseFilter>
1

>  <FilterItLogS>
-2.97

>  <VMcGowan>
339.67

>  <LabuteASA>
190.9

>  <PEOE_VSA1>
25.42

>  <PEOE_VSA2>
14.38

>  <PEOE_VSA3>
4.79

>  <PEOE_VSA4>
0

>  <PEOE_VSA5>
11.76

>  <PEOE_VSA6>
30.33

>  <PEOE_VSA7>
40.18

>  <PEOE_VSA8>
4.75

>  <PEOE_VSA9>
5.41

>  <PEOE_VSA10>
23.5

>  <PEOE_VSA11>
0

>  <PEOE_VSA12>
18.61

>  <PEOE_VSA13>
0

>  <SMR_VSA1>
28.65

>  <SMR_VSA2>
0

>  <SMR_VSA3>
10.22

>  <SMR_VSA4>
11.15

>  <SMR_VSA5>
62.87

>  <SMR_VSA6>
6.79

>  <SMR_VSA7>
35.9

>  <SMR_VSA8>
0

>  <SMR_VSA9>
0

>  <SlogP_VSA1>
11.05

>  <SlogP_VSA2>
57.65

>  <SlogP_VSA3>
28.65

>  <SlogP_VSA4>
5.41

>  <SlogP_VSA5>
46.22

>  <SlogP_VSA6>
30.33

>  <SlogP_VSA7>
0

>  <SlogP_VSA8>
0

>  <SlogP_VSA9>
0

>  <SlogP_VSA10>
0

>  <SlogP_VSA11>
0

>  <EState_VSA1>
58.3

>  <EState_VSA2>
5.91

>  <EState_VSA3>
5.56

>  <EState_VSA4>
0

>  <EState_VSA5>
16.66

>  <EState_VSA6>
45.04

>  <EState_VSA7>
19.91

>  <EState_VSA8>
5.32

>  <EState_VSA9>
15.21

>  <EState_VSA10>
19.18

>  <VSA_EState1>
9.47

>  <VSA_EState2>
51.39

>  <VSA_EState3>
2.29

>  <VSA_EState4>
5.94

>  <VSA_EState5>
-2

>  <VSA_EState6>
6.31

>  <VSA_EState7>
0

>  <VSA_EState8>
8.2

>  <VSA_EState9>
0

>  <apol>
67.09

>  <bpol>
40.21

>  <nRing>
3

>  <nHRing>
2

>  <naRing>
1

>  <naHRing>
0

>  <nARing 2>
2

>  <nAHRing 2>
2

>  <nFRing>
1

>  <nFHRing>
1

>  <nFaRing>
0

>  <nFaHRing>
0

>  <nFARing 2>
1

>  <nFAHRing 2>
1

>  <nRot>
6

>  <SLogP>
1.32

>  <SMR>
117.9

>  <TopoPSA(NO)>
128.03

>  <TopoPSA>
153.33

>  <JGI1>
0.26

>  <JGI2>
0.11

>  <JGI3>
0.08

>  <JGI4>
0.05

>  <JGI5>
0.03

>  <Diameter>
17

>  <Radius>
9

>  <TMWC10>
145.12

>  <TSRW10>
83.63

>  <MW>
463.18

>  <AMW>
7.59

>  <WPath>
3260

>  <WPol>
51

>  <Zagreb1>
172

>  <Zagreb2>
205

>  <mZagreb2>
6.76

>  <yes>


>  <nAR-cont>
1

>  <nHA-cont>
0.658856097

>  <MWHBN>
0.464649101

>  <MWHBN-cont>
0

>  <TPSA-cont>
0

>  <pka_cont>
0.97

>  <yes.1>


>  <BBB_SCORE>
2.143856097

>  <MMFF94 Energy>
79.661

$$$$
Compound 900
Actelion Java MolfileCreator 2.0

  0  0  0  0  0  0              0 V3000
M  V30 BEGIN CTAB
M  V30 COUNTS 70 73 0 0 0
M  V30 BEGIN ATOM
M  V30 1 S -1.1323 -3.0757 4.0484 0
M  V30 2 C -2.0734 -3.9557 2.8304 0
M  V30 3 C -0.4087 -1.7855 2.9912 0
M  V30 4 O -1.7835 -3.8496 1.6408 0
M  V30 5 C -3.2342 -4.8246 3.3477 0
M  V30 6 C -1.4753 -1.0775 2.1699 0
M  V30 7 C -2.7198 -5.9179 4.2954 0
M  V30 8 C -4.2861 -3.9547 4.0523 0
M  V30 9 C -3.9078 -5.5107 2.1424 0
M  V30 10 O -2.5352 -0.7066 2.6834 0
M  V30 11 C -1.1509 -0.8184 0.6787 0 CFG=2
M  V30 12 O -0.5383 -1.9794 0.1072 0
M  V30 13 C -0.2389 0.4273 0.4434 0 CFG=2
M  V30 14 C -2.4153 -0.5066 -0.1693 0
M  V30 15 C -0.4883 0.6546 -1.065 0 CFG=1
M  V30 16 C 1.277 0.1973 0.6246 0
M  V30 17 C -0.7239 1.6086 1.327 0
M  V30 18 C -2.0052 0.5725 -1.1913 0
M  V30 19 C 0.2335 1.8858 -1.632 0 CFG=1
M  V30 20 C 2.1419 1.334 0.0384 0 CFG=1
M  V30 21 C 1.7718 1.7036 -1.4299 0 CFG=2
M  V30 22 C -0.0909 2.0567 -3.1248 0
M  V30 23 O 2.0613 2.4668 0.8913 0
M  V30 24 C 2.6184 2.8778 -2.0691 0 CFG=2
M  V30 25 C 0.6731 3.2185 -3.7413 0
M  V30 26 C 2.1609 3.0939 -3.5202 0
M  V30 27 C 4.1193 2.4616 -2.0432 0
M  V30 28 C 2.4603 4.2297 -1.3373 0
M  V30 29 C 3.0036 3.2119 -4.5617 0
M  V30 30 C 5.0012 3.291 -2.9646 0
M  V30 31 C 4.472 3.2437 -4.3733 0
M  V30 32 O 5.2074 3.3036 -5.3552 0
M  V30 33 H 0.3472 -2.2473 2.3528 0
M  V30 34 H 0.0916 -1.0401 3.6163 0
M  V30 35 H -2.3313 -5.501 5.2307 0
M  V30 36 H -3.5192 -6.6184 4.5624 0
M  V30 37 H -1.9097 -6.492 3.8312 0
M  V30 38 H -3.9039 -3.5222 4.9831 0
M  V30 39 H -4.603 -3.1237 3.4116 0
M  V30 40 H -5.176 -4.5403 4.3097 0
M  V30 41 H -4.2974 -4.7726 1.4316 0
M  V30 42 H -4.7456 -6.1421 2.4592 0
M  V30 43 H -3.1983 -6.1461 1.5998 0
M  V30 44 H -1.1237 -2.7473 0.2963 0
M  V30 45 H -2.7698 -1.4007 -0.6954 0
M  V30 46 H -3.2524 -0.1278 0.4261 0
M  V30 47 H -0.0922 -0.2121 -1.6193 0
M  V30 48 H 1.5036 0.0741 1.6903 0
M  V30 49 H 1.5779 -0.7331 0.1282 0
M  V30 50 H -1.8142 1.709 1.3306 0
M  V30 51 H -0.4119 1.4652 2.3679 0
M  V30 52 H -0.3335 2.576 1.0066 0
M  V30 53 H -2.3195 0.2953 -2.2027 0
M  V30 54 H -2.48 1.5298 -0.9484 0
M  V30 55 H -0.1063 2.7872 -1.112 0
M  V30 56 H 3.1846 0.9983 0.0658 0
M  V30 57 H 2.0284 0.8022 -2.0119 0
M  V30 58 H 0.1466 1.1334 -3.6693 0
M  V30 59 H -1.1644 2.2347 -3.2583 0
M  V30 60 H 2.4219 2.2149 1.759 0
M  V30 61 H 0.3243 4.1617 -3.3031 0
M  V30 62 H 0.4337 3.2702 -4.8105 0
M  V30 63 H 4.2119 1.4091 -2.3459 0
M  V30 64 H 4.5199 2.5264 -1.0244 0
M  V30 65 H 1.4152 4.4563 -1.1054 0
M  V30 66 H 2.8386 5.0619 -1.9438 0
M  V30 67 H 3.0244 4.2565 -0.3999 0
M  V30 68 H 2.6641 3.355 -5.5816 0
M  V30 69 H 6.0155 2.8772 -2.96 0
M  V30 70 H 5.0568 4.3358 -2.6432 0
M  V30 END ATOM
M  V30 BEGIN BOND
M  V30 1 1 1 2
M  V30 2 1 1 3
M  V30 3 2 2 4
M  V30 4 1 2 5
M  V30 5 1 3 6
M  V30 6 1 5 7
M  V30 7 1 5 8
M  V30 8 1 5 9
M  V30 9 2 6 10
M  V30 10 1 6 11
M  V30 11 1 11 12
M  V30 12 1 11 13
M  V30 13 1 11 14
M  V30 14 1 13 15
M  V30 15 1 13 16
M  V30 16 1 13 17
M  V30 17 1 14 18
M  V30 18 1 15 19
M  V30 19 1 16 20
M  V30 20 1 19 21
M  V30 21 1 19 22
M  V30 22 1 20 23
M  V30 23 1 21 24
M  V30 24 1 22 25
M  V30 25 1 24 26
M  V30 26 1 24 27
M  V30 27 1 24 28
M  V30 28 2 26 29
M  V30 29 1 27 30
M  V30 30 1 29 31
M  V30 31 2 31 32
M  V30 32 1 15 18
M  V30 33 1 20 21
M  V30 34 1 25 26
M  V30 35 1 30 31
M  V30 36 1 3 33
M  V30 37 1 3 34
M  V30 38 1 7 35
M  V30 39 1 7 36
M  V30 40 1 7 37
M  V30 41 1 8 38
M  V30 42 1 8 39
M  V30 43 1 8 40
M  V30 44 1 9 41
M  V30 45 1 9 42
M  V30 46 1 9 43
M  V30 47 1 12 44
M  V30 48 1 14 45
M  V30 49 1 14 46
M  V30 50 1 15 47
M  V30 51 1 16 48
M  V30 52 1 16 49
M  V30 53 1 17 50
M  V30 54 1 17 51
M  V30 55 1 17 52
M  V30 56 1 18 53
M  V30 57 1 18 54
M  V30 58 1 19 55
M  V30 59 1 20 56
M  V30 60 1 21 57
M  V30 61 1 22 58
M  V30 62 1 22 59
M  V30 63 1 23 60
M  V30 64 1 25 61
M  V30 65 1 25 62
M  V30 66 1 27 63
M  V30 67 1 27 64
M  V30 68 1 28 65
M  V30 69 1 28 66
M  V30 70 1 28 67
M  V30 71 1 29 68
M  V30 72 1 30 69
M  V30 73 1 30 70
M  V30 END BOND
M  V30 BEGIN COLLECTION
M  V30 MDLV30/STEABS ATOMS=(7 11 13 15 19 20 21 24)
M  V30 END COLLECTION
M  V30 END CTAB
M  END
>  <Column 1>
1076

>  <level_0>
1214

>  <index>
1214

>  <Unnamed: 0>
1214

>  <NO.>
1226

>  <Name>
tixocortol-pivalate

>  <IUPAC_name>
s-[2-[(8s-9s-10r-11s-13s-14s-17r)-11-17-dihydroxy-10-13-dimethyl-3-oxo-2-6-7-8-9-11-12-14-15-16-decahydro-1h-cyclopenta[a]phenanthren-17-yl]-2-oxoethyl] 2-2-dimethylpropanethioate

>  <SMILES>
CC(C)(C)C(=O)SCC(=O)[C@@]1(O)CC[C@H]2[C@@H]3CCC4=CC(=O)CC[C@]4(C)[C@H]3[C@@H](O)C[C@@]21C

>  <CID>
15052414

>  <logBB>


>  <BBB+/BBB->
BBB+

>  <Inchi>
InChI=1S/C26H38O5S/c1-23(2-3)22(30)32-14-20(29)26(31)11-9-18-17-7-6-15-12-16(27)8-10-24(15-4)21(17)19(28)13-25(18-26)5/h12-17-19-21-28-31H-6-11-13-14H2-1-5H3/t17--18--19--21+-24--25--26-/m0/s1

>  <threshold>
-1

>  <reference>
R1|R27|R30|

>  <group>
B

>  <Class>
1

>  <ABC>
25.62

>  <ABCGG>
20.7

>  <nAcid>
0

>  <nBase>
0

>  <nAromAtom>
0

>  <nAromBond>
0

>  <nAtom>
70

>  <nHeavyAtom>
32

>  <nSpiro>
0

>  <nBridgehead>
0

>  <nHetero>
6

>  <nN>
0

>  <nO>
5

>  <nF>
0

>  <BalabanJ>
1.55

>  <BertzCT>
871.93

>  <nBonds>
73

>  <nBondsO>
35

>  <nBondsS>
69

>  <nBondsD>
4

>  <nBondsT>
0

>  <nBondsA>
0

>  <nBondsM>
4

>  <nBondsKS>
69

>  <nBondsKD>
4

>  <RNCG>
0.17

>  <RPCG>
0.09

>  <FCSP3>
0.81

>  <SZ>
41.67

>  <Sm>
38.52

>  <Sv>
41.06

>  <Sse>
69.6

>  <Sp>
45.31

>  <Si>
78.86

>  <MZ>
0.6

>  <Mm>
0.55

>  <Mv>
0.59

>  <Mse>
0.99

>  <Mp>
0.65

>  <Mi>
1.13

>  <NsCH3>
5

>  <NdCH2>
0

>  <NssCH2>
8

>  <NtCH>
0

>  <NdsCH>
1

>  <NaaCH>
0

>  <NsssCH>
4

>  <NddC>
0

>  <NtsC>
0

>  <NdssC>
4

>  <NaasC>
0

>  <NaaaC>
0

>  <NssssC>
4

>  <NsNH3>
0

>  <NsNH2>
0

>  <NssNH2>
0

>  <NdNH>
0

>  <NssNH>
0

>  <NaaNH>
0

>  <NtN>
0

>  <NsssNH>
0

>  <NdsN>
0

>  <NaaN>
0

>  <NsssN>
0

>  <NddsN>
0

>  <NaasN>
0

>  <NssssN>
0

>  <NsOH>
2

>  <NdO>
3

>  <NssO>
0

>  <NaaO>
0

>  <NsF>
0

>  <NsSiH3>
0

>  <NssSiH2>
0

>  <NsssSiH>
0

>  <NssssSi>
0

>  <NsPH2>
0

>  <NssPH>
0

>  <NsssP>
0

>  <NdsssP>
0

>  <NsssssP>
0

>  <NsSH>
0

>  <NdS>
0

>  <NssS>
1

>  <NaaS>
0

>  <NdssS>
0

>  <NddssS>
0

>  <NsCl>
0

>  <NsBr>
0

>  <NsI>
0

>  <fragCpx>
233.06

>  <fMF>
0.24

>  <nHBAcc>
6

>  <nHBDon>
2

>  <Kier1>
25.1

>  <Kier2>
8.29

>  <Lipinski>
1

>  <GhoseFilter>
1

>  <FilterItLogS>
-4.39

>  <VMcGowan>
362.26

>  <LabuteASA>
195.35

>  <PEOE_VSA1>
10.21

>  <PEOE_VSA2>
14.38

>  <PEOE_VSA3>
0

>  <PEOE_VSA4>
0

>  <PEOE_VSA5>
0

>  <PEOE_VSA6>
51.95

>  <PEOE_VSA7>
67.77

>  <PEOE_VSA8>
17.25

>  <PEOE_VSA9>
11.86

>  <PEOE_VSA10>
5.6

>  <PEOE_VSA11>
16.68

>  <PEOE_VSA12>
0

>  <PEOE_VSA13>
0

>  <SMR_VSA1>
24.6

>  <SMR_VSA2>
0

>  <SMR_VSA3>
0

>  <SMR_VSA4>
34

>  <SMR_VSA5>
91.27

>  <SMR_VSA6>
5.75

>  <SMR_VSA7>
11.65

>  <SMR_VSA8>
0

>  <SMR_VSA9>
0

>  <SlogP_VSA1>
0

>  <SlogP_VSA2>
44.35

>  <SlogP_VSA3>
14.38

>  <SlogP_VSA4>
34

>  <SlogP_VSA5>
79.56

>  <SlogP_VSA6>
11.65

>  <SlogP_VSA7>
0

>  <SlogP_VSA8>
0

>  <SlogP_VSA9>
0

>  <SlogP_VSA10>
0

>  <SlogP_VSA11>
0

>  <EState_VSA1>
22.54

>  <EState_VSA2>
45.6

>  <EState_VSA3>
19.26

>  <EState_VSA4>
37.45

>  <EState_VSA5>
5.57

>  <EState_VSA6>
0

>  <EState_VSA7>
33.77

>  <EState_VSA8>
6.92

>  <EState_VSA9>
0

>  <EState_VSA10>
24.6

>  <VSA_EState1>
0

>  <VSA_EState2>
37.68

>  <VSA_EState3>
23.11

>  <VSA_EState4>
-1.74

>  <VSA_EState5>
0.33

>  <VSA_EState6>
0

>  <VSA_EState7>
5.78

>  <VSA_EState8>
9.68

>  <VSA_EState9>
0

>  <apol>
75.67

>  <bpol>
43.19

>  <nRing>
4

>  <nHRing>
0

>  <naRing>
0

>  <naHRing>
0

>  <nARing 2>
4

>  <nAHRing 2>
0

>  <nFRing>
1

>  <nFHRing>
0

>  <nFaRing>
0

>  <nFaHRing>
0

>  <nFARing 2>
1

>  <nFAHRing 2>
0

>  <nRot>
3

>  <SLogP>
4.1

>  <SMR>
124.98

>  <TopoPSA(NO)>
91.67

>  <TopoPSA>
116.97

>  <JGI1>
0.33

>  <JGI2>
0.14

>  <JGI3>
0.07

>  <JGI4>
0.06

>  <JGI5>
0.04

>  <Diameter>
15

>  <Radius>
8

>  <TMWC10>
148.3

>  <TSRW10>
83.98

>  <MW>
462.24

>  <AMW>
6.6

>  <WPath>
2777

>  <WPol>
68

>  <Zagreb1>
186

>  <Zagreb2>
233

>  <mZagreb2>
6.52

>  <yes>


>  <nAR-cont>
0.199399

>  <nHA-cont>
0.658856097

>  <MWHBN>
0.372097048

>  <MWHBN-cont>
0.585708533

>  <TPSA-cont>
0.183476766

>  <pka_cont>
0.97

>  <yes.1>


>  <BBB_SCORE>
2.588771428

>  <MMFF94 Energy>
113.97

$$$$
Compound 901
Actelion Java MolfileCreator 2.0

  0  0  0  0  0  0              0 V3000
M  V30 BEGIN CTAB
M  V30 COUNTS 35 36 0 0 0
M  V30 BEGIN ATOM
M  V30 1 O -4.1083 1.6575 -3.08 0
M  V30 2 C -3.2835 1.4794 -2.0129 0
M  V30 3 C -5.1296 2.4929 -2.4961 0
M  V30 4 C -3.7383 2.1215 -0.8863 0
M  V30 5 C -2.1154 0.7448 -2.012 0
M  V30 6 O -4.9053 2.7849 -1.1012 0
M  V30 7 C -3.0525 2.0621 0.3058 0
M  V30 8 C -1.3782 0.6716 -0.8203 0
M  V30 9 C -1.8633 1.3241 0.336 0
M  V30 10 C -0.1501 -0.1357 -0.801 0
M  V30 11 C 0.9451 0.1718 -0.0862 0
M  V30 12 C 2.2038 -0.6493 -0.079 0 CFG=1
M  V30 13 O 3.253 0.2562 -0.4157 0
M  V30 14 C 2.5111 -1.3689 1.2707 0
M  V30 15 C 3.812 -2.1882 1.1314 0
M  V30 16 C 1.3706 -2.3394 1.6348 0
M  V30 17 C 2.7039 -0.3683 2.4276 0
M  V30 18 H -5.169 3.4379 -3.0502 0
M  V30 19 H -6.0964 1.9862 -2.5967 0
M  V30 20 H -1.7837 0.2508 -2.9187 0
M  V30 21 H -3.4238 2.5657 1.1909 0
M  V30 22 H -1.319 1.2532 1.2752 0
M  V30 23 H -0.1582 -1.0225 -1.4306 0
M  V30 24 H 0.9732 1.0804 0.5102 0
M  V30 25 H 2.1536 -1.3957 -0.8829 0
M  V30 26 H 3.9828 -0.2705 -0.78 0
M  V30 27 H 3.7414 -2.9012 0.3024 0
M  V30 28 H 4.6788 -1.544 0.9491 0
M  V30 29 H 4.0188 -2.7604 2.0433 0
M  V30 30 H 1.6122 -2.9116 2.538 0
M  V30 31 H 1.1907 -3.0567 0.8263 0
M  V30 32 H 0.4325 -1.8088 1.8303 0
M  V30 33 H 3.5076 0.3442 2.2128 0
M  V30 34 H 1.7908 0.2029 2.6254 0
M  V30 35 H 2.9663 -0.8887 3.3562 0
M  V30 END ATOM
M  V30 BEGIN BOND
M  V30 1 1 1 2
M  V30 2 1 1 3
M  V30 3 2 2 4
M  V30 4 1 2 5
M  V30 5 1 3 6
M  V30 6 1 4 7
M  V30 7 2 5 8
M  V30 8 2 7 9
M  V30 9 1 8 10
M  V30 10 2 10 11
M  V30 11 1 11 12
M  V30 12 1 12 13
M  V30 13 1 12 14
M  V30 14 1 14 15
M  V30 15 1 14 16
M  V30 16 1 14 17
M  V30 17 1 4 6
M  V30 18 1 8 9
M  V30 19 1 3 18
M  V30 20 1 3 19
M  V30 21 1 5 20
M  V30 22 1 7 21
M  V30 23 1 9 22
M  V30 24 1 10 23
M  V30 25 1 11 24
M  V30 26 1 12 25
M  V30 27 1 13 26
M  V30 28 1 15 27
M  V30 29 1 15 28
M  V30 30 1 15 29
M  V30 31 1 16 30
M  V30 32 1 16 31
M  V30 33 1 16 32
M  V30 34 1 17 33
M  V30 35 1 17 34
M  V30 36 1 17 35
M  V30 END BOND
M  V30 BEGIN COLLECTION
M  V30 MDLV30/STERAC1 ATOMS=(1 12)
M  V30 END COLLECTION
M  V30 END CTAB
M  END
>  <Column 1>
1077

>  <level_0>
1215

>  <index>
1215

>  <Unnamed: 0>
1215

>  <NO.>
1227

>  <Name>
stiripentol

>  <IUPAC_name>
(e)-1-(1-3-benzodioxol-5-yl)-4-4-dimethylpent-1-en-3-ol

>  <SMILES>
CC(C)(C)C(O)/C=C/c1ccc2c(c1)OCO2

>  <CID>
5311454

>  <logBB>


>  <BBB+/BBB->
BBB+

>  <Inchi>
InChI=1S/C14H18O3/c1-14(2-3)13(15)7-5-10-4-6-11-12(8-10)17-9-16-11/h4-8-13-15H-9H2-1-3H3/b7-5+

>  <threshold>
-1

>  <reference>
R1|R7|R6|R14|R23|R27|R29|R30|

>  <group>
B

>  <Class>
1

>  <ABC>
13.21

>  <ABCGG>
11.62

>  <nAcid>
0

>  <nBase>
0

>  <nAromAtom>
6

>  <nAromBond>
6

>  <nAtom>
35

>  <nHeavyAtom>
17

>  <nSpiro>
0

>  <nBridgehead>
0

>  <nHetero>
3

>  <nN>
0

>  <nO>
3

>  <nF>
0

>  <BalabanJ>
1.73

>  <BertzCT>
429.58

>  <nBonds>
36

>  <nBondsO>
18

>  <nBondsS>
29

>  <nBondsD>
1

>  <nBondsT>
0

>  <nBondsA>
6

>  <nBondsM>
7

>  <nBondsKS>
32

>  <nBondsKD>
4

>  <RNCG>
0.27

>  <RPCG>
0.14

>  <FCSP3>
0.43

>  <SZ>
21

>  <Sm>
19.51

>  <Sv>
21.02

>  <Sse>
34.98

>  <Sp>
22.63

>  <Si>
39.37

>  <MZ>
0.6

>  <Mm>
0.56

>  <Mv>
0.6

>  <Mse>
1

>  <Mp>
0.65

>  <Mi>
1.12

>  <NsCH3>
3

>  <NdCH2>
0

>  <NssCH2>
1

>  <NtCH>
0

>  <NdsCH>
2

>  <NaaCH>
3

>  <NsssCH>
1

>  <NddC>
0

>  <NtsC>
0

>  <NdssC>
0

>  <NaasC>
3

>  <NaaaC>
0

>  <NssssC>
1

>  <NsNH3>
0

>  <NsNH2>
0

>  <NssNH2>
0

>  <NdNH>
0

>  <NssNH>
0

>  <NaaNH>
0

>  <NtN>
0

>  <NsssNH>
0

>  <NdsN>
0

>  <NaaN>
0

>  <NsssN>
0

>  <NddsN>
0

>  <NaasN>
0

>  <NssssN>
0

>  <NsOH>
1

>  <NdO>
0

>  <NssO>
2

>  <NaaO>
0

>  <NsF>
0

>  <NsSiH3>
0

>  <NssSiH2>
0

>  <NsssSiH>
0

>  <NssssSi>
0

>  <NsPH2>
0

>  <NssPH>
0

>  <NsssP>
0

>  <NdsssP>
0

>  <NsssssP>
0

>  <NsSH>
0

>  <NdS>
0

>  <NssS>
0

>  <NaaS>
0

>  <NdssS>
0

>  <NddssS>
0

>  <NsCl>
0

>  <NsBr>
0

>  <NsI>
0

>  <fragCpx>
52.03

>  <fMF>
0.26

>  <nHBAcc>
3

>  <nHBDon>
1

>  <Kier1>
13.43

>  <Kier2>
5.33

>  <Lipinski>
1

>  <GhoseFilter>
1

>  <FilterItLogS>
-2.48

>  <VMcGowan>
186.81

>  <LabuteASA>
101.68

>  <PEOE_VSA1>
14.58

>  <PEOE_VSA2>
0

>  <PEOE_VSA3>
0

>  <PEOE_VSA4>
0

>  <PEOE_VSA5>
0

>  <PEOE_VSA6>
38.99

>  <PEOE_VSA7>
23.11

>  <PEOE_VSA8>
0

>  <PEOE_VSA9>
6.1

>  <PEOE_VSA10>
0

>  <PEOE_VSA11>
11.5

>  <PEOE_VSA12>
6.79

>  <PEOE_VSA13>
0

>  <SMR_VSA1>
14.58

>  <SMR_VSA2>
0

>  <SMR_VSA3>
0

>  <SMR_VSA4>
5.41

>  <SMR_VSA5>
26.88

>  <SMR_VSA6>
6.79

>  <SMR_VSA7>
29.84

>  <SMR_VSA8>
0

>  <SMR_VSA9>
11.5

>  <SlogP_VSA1>
9.47

>  <SlogP_VSA2>
18

>  <SlogP_VSA3>
0

>  <SlogP_VSA4>
5.41

>  <SlogP_VSA5>
26.33

>  <SlogP_VSA6>
24.28

>  <SlogP_VSA7>
0

>  <SlogP_VSA8>
6.08

>  <SlogP_VSA9>
0

>  <SlogP_VSA10>
0

>  <SlogP_VSA11>
11.5

>  <EState_VSA1>
6.1

>  <EState_VSA2>
12.21

>  <EState_VSA3>
0

>  <EState_VSA4>
17.06

>  <EState_VSA5>
0

>  <EState_VSA6>
6.08

>  <EState_VSA7>
45.05

>  <EState_VSA8>
0

>  <EState_VSA9>
9.47

>  <EState_VSA10>
5.11

>  <VSA_EState1>
10.53

>  <VSA_EState2>
0

>  <VSA_EState3>
9.9

>  <VSA_EState4>
0.85

>  <VSA_EState5>
1.54

>  <VSA_EState6>
5.74

>  <VSA_EState7>
3.24

>  <VSA_EState8>
6.29

>  <VSA_EState9>
0

>  <apol>
37.79

>  <bpol>
21.53

>  <nRing>
2

>  <nHRing>
1

>  <naRing>
1

>  <naHRing>
0

>  <nARing 2>
1

>  <nAHRing 2>
1

>  <nFRing>
1

>  <nFHRing>
1

>  <nFaRing>
0

>  <nFaHRing>
0

>  <nFARing 2>
1

>  <nFAHRing 2>
1

>  <nRot>
2

>  <SLogP>
2.84

>  <SMR>
67.06

>  <TopoPSA(NO)>
38.69

>  <TopoPSA>
38.69

>  <JGI1>
0.28

>  <JGI2>
0.09

>  <JGI3>
0.03

>  <JGI4>
0.04

>  <JGI5>
0.03

>  <Diameter>
9

>  <Radius>
5

>  <TMWC10>
105.85

>  <TSRW10>
63.28

>  <MW>
234.13

>  <AMW>
6.69

>  <WPath>
563

>  <WPol>
22

>  <Zagreb1>
88

>  <Zagreb2>
100

>  <mZagreb2>
3.61

>  <yes>


>  <nAR-cont>
0.816016

>  <nHA-cont>
0.976740822

>  <MWHBN>
0.261415575

>  <MWHBN-cont>
0.938575034

>  <TPSA-cont>
0.729919775

>  <pka_cont>
0.97

>  <yes.1>


>  <BBB_SCORE>
5.145458923

>  <MMFF94 Energy>
27.612

$$$$
Compound 902
Actelion Java MolfileCreator 2.0

  0  0  0  0  0  0              0 V3000
M  V30 BEGIN CTAB
M  V30 COUNTS 71 74 0 0 0
M  V30 BEGIN ATOM
M  V30 1 O 7.7147 2.968 -0.9618 0
M  V30 2 C 6.5466 2.7576 -1.2627 0
M  V30 3 C 6.1821 1.732 -2.2603 0
M  V30 4 C 5.4455 3.5125 -0.6367 0
M  V30 5 C 4.9024 1.4949 -2.5998 0
M  V30 6 C 4.1705 3.279 -0.9745 0
M  V30 7 C 3.7059 2.2547 -2.0054 0 CFG=2
M  V30 8 C 4.5635 0.3971 -3.5745 0
M  V30 9 C 2.7675 1.1837 -1.3262 0 CFG=1
M  V30 10 C 3.034 3.0597 -3.1403 0
M  V30 11 C 3.6448 -0.625 -2.9162 0
M  V30 12 C 1.5194 1.7472 -0.5859 0 CFG=1
M  V30 13 C 2.3869 0.0224 -2.3074 0 CFG=1
M  V30 14 O 0.729 2.5527 -1.4488 0
M  V30 15 C 0.6298 0.6506 0.0394 0
M  V30 16 C 1.5609 -1.021 -1.5393 0 CFG=1
M  V30 17 C 0.2378 -0.4684 -0.9523 0 CFG=1
M  V30 18 C 1.1296 -2.2846 -2.2711 0
M  V30 19 C -0.3425 -1.7797 -0.3298 0 CFG=1
M  V30 20 C -0.7339 0.0639 -2.0396 0
M  V30 21 C 0.0014 -2.8619 -1.3973 0
M  V30 22 O 0.3679 -2.106 0.8722 0
M  V30 23 C -1.8487 -1.758 0.0216 0
M  V30 24 O -2.644 -2.547 -0.4957 0
M  V30 25 C -2.2985 -0.741 1.0654 0
M  V30 26 O -3.6042 -1.0606 1.5487 0
M  V30 27 C -4.1197 -0.1294 2.393 0
M  V30 28 O -3.5507 0.9007 2.7285 0
M  V30 29 C -5.4888 -0.5464 2.8766 0
M  V30 30 C -5.4884 -1.313 4.217 0
M  V30 31 C -4.684 -2.6191 4.1102 0
M  V30 32 C -6.9467 -1.6639 4.5693 0
M  V30 33 C -4.9078 -0.4488 5.3488 0
M  V30 34 H 7.0143 1.1789 -2.6801 0
M  V30 35 H 5.7283 4.2645 0.0896 0
M  V30 36 H 3.4043 3.8918 -0.5043 0
M  V30 37 H 5.4665 -0.1141 -3.9297 0
M  V30 38 H 4.0833 0.8213 -4.4636 0
M  V30 39 H 3.3714 0.7132 -0.5312 0
M  V30 40 H 2.4807 2.4238 -3.8377 0
M  V30 41 H 2.335 3.8127 -2.7601 0
M  V30 42 H 3.7803 3.6085 -3.7298 0
M  V30 43 H 4.2007 -1.1613 -2.1355 0
M  V30 44 H 3.3573 -1.3708 -3.6664 0
M  V30 45 H 1.8527 2.3972 0.2308 0
M  V30 46 H 1.794 0.4215 -3.1364 0
M  V30 47 H 0.0396 2.9798 -0.9101 0
M  V30 48 H 1.1795 0.2241 0.8875 0
M  V30 49 H -0.2708 1.1166 0.4517 0
M  V30 50 H 2.198 -1.3582 -0.7049 0
M  V30 51 H 1.9513 -3.0003 -2.3761 0
M  V30 52 H 0.7575 -2.0584 -3.2768 0
M  V30 53 H -1.151 -0.7382 -2.6571 0
M  V30 54 H -0.2644 0.7656 -2.7312 0
M  V30 55 H -1.5817 0.5859 -1.5839 0
M  V30 56 H -0.8475 -3.1064 -2.0447 0
M  V30 57 H 0.3342 -3.796 -0.9303 0
M  V30 58 H 0.1706 -3.0358 1.0917 0
M  V30 59 H -1.5973 -0.7584 1.9055 0
M  V30 60 H -2.3205 0.2436 0.5914 0
M  V30 61 H -6.0928 0.3673 2.9534 0
M  V30 62 H -5.9657 -1.1436 2.0882 0
M  V30 63 H -4.7618 -3.2061 5.0326 0
M  V30 64 H -5.0509 -3.2429 3.2876 0
M  V30 65 H -3.6198 -2.4259 3.9384 0
M  V30 66 H -7.4007 -2.2923 3.7948 0
M  V30 67 H -7.0067 -2.2101 5.5175 0
M  V30 68 H -7.5587 -0.76 4.6676 0
M  V30 69 H -4.9927 -0.9575 6.316 0
M  V30 70 H -3.8464 -0.2323 5.1892 0
M  V30 71 H -5.4384 0.5066 5.4286 0
M  V30 END ATOM
M  V30 BEGIN BOND
M  V30 1 2 1 2
M  V30 2 1 2 3
M  V30 3 1 2 4
M  V30 4 2 3 5
M  V30 5 2 4 6
M  V30 6 1 5 7
M  V30 7 1 5 8
M  V30 8 1 7 9
M  V30 9 1 7 10
M  V30 10 1 8 11
M  V30 11 1 9 12
M  V30 12 1 9 13
M  V30 13 1 12 14
M  V30 14 1 12 15
M  V30 15 1 13 16
M  V30 16 1 15 17
M  V30 17 1 16 18
M  V30 18 1 17 19
M  V30 19 1 17 20
M  V30 20 1 18 21
M  V30 21 1 19 22
M  V30 22 1 19 23
M  V30 23 2 23 24
M  V30 24 1 23 25
M  V30 25 1 25 26
M  V30 26 1 26 27
M  V30 27 2 27 28
M  V30 28 1 27 29
M  V30 29 1 29 30
M  V30 30 1 30 31
M  V30 31 1 30 32
M  V30 32 1 30 33
M  V30 33 1 6 7
M  V30 34 1 11 13
M  V30 35 1 16 17
M  V30 36 1 19 21
M  V30 37 1 3 34
M  V30 38 1 4 35
M  V30 39 1 6 36
M  V30 40 1 8 37
M  V30 41 1 8 38
M  V30 42 1 9 39
M  V30 43 1 10 40
M  V30 44 1 10 41
M  V30 45 1 10 42
M  V30 46 1 11 43
M  V30 47 1 11 44
M  V30 48 1 12 45
M  V30 49 1 13 46
M  V30 50 1 14 47
M  V30 51 1 15 48
M  V30 52 1 15 49
M  V30 53 1 16 50
M  V30 54 1 18 51
M  V30 55 1 18 52
M  V30 56 1 20 53
M  V30 57 1 20 54
M  V30 58 1 20 55
M  V30 59 1 21 56
M  V30 60 1 21 57
M  V30 61 1 22 58
M  V30 62 1 25 59
M  V30 63 1 25 60
M  V30 64 1 29 61
M  V30 65 1 29 62
M  V30 66 1 31 63
M  V30 67 1 31 64
M  V30 68 1 31 65
M  V30 69 1 32 66
M  V30 70 1 32 67
M  V30 71 1 32 68
M  V30 72 1 33 69
M  V30 73 1 33 70
M  V30 74 1 33 71
M  V30 END BOND
M  V30 BEGIN COLLECTION
M  V30 MDLV30/STEABS ATOMS=(7 7 9 12 13 16 17 19)
M  V30 END COLLECTION
M  V30 END CTAB
M  END
>  <Column 1>
1078

>  <level_0>
1216

>  <index>
1216

>  <Unnamed: 0>
1216

>  <NO.>
1228

>  <Name>
prednisolone-tebutate

>  <IUPAC_name>
[2-[(8s-9s-10r-11s-13s-14s-17r)-11-17-dihydroxy-10-13-dimethyl-3-oxo-7-8-9-11-12-14-15-16-octahydro-6h-cyclopenta[a]phenanthren-17-yl]-2-oxoethyl] 3-3-dimethylbutanoate

>  <SMILES>
CC(C)(C)CC(=O)OCC(=O)[C@@]1(O)CC[C@H]2[C@@H]3CCC4=CC(=O)C=C[C@]4(C)[C@H]3[C@@H](O)C[C@@]21C

>  <CID>
93055

>  <logBB>


>  <BBB+/BBB->
BBB+

>  <Inchi>
InChI=1S/C27H38O6/c1-24(2-3)14-22(31)33-15-21(30)27(32)11-9-19-18-7-6-16-12-17(28)8-10-25(16-4)23(18)20(29)13-26(19-27)5/h8-10-12-18-20-23-29-32H-6-7-9-11-13-15H2-1-5H3/t18--19--20--23+-25--26--27-/m0/s1

>  <threshold>
-1

>  <reference>
R1|R6|R27|R30|

>  <group>
B

>  <Class>
1

>  <ABC>
26.38

>  <ABCGG>
21.06

>  <nAcid>
0

>  <nBase>
0

>  <nAromAtom>
0

>  <nAromBond>
0

>  <nAtom>
71

>  <nHeavyAtom>
33

>  <nSpiro>
0

>  <nBridgehead>
0

>  <nHetero>
6

>  <nN>
0

>  <nO>
6

>  <nF>
0

>  <BalabanJ>
1.51

>  <BertzCT>
925.39

>  <nBonds>
74

>  <nBondsO>
36

>  <nBondsS>
69

>  <nBondsD>
5

>  <nBondsT>
0

>  <nBondsA>
0

>  <nBondsM>
5

>  <nBondsKS>
69

>  <nBondsKD>
5

>  <RNCG>
0.17

>  <RPCG>
0.11

>  <FCSP3>
0.74

>  <SZ>
41.33

>  <Sm>
38.18

>  <Sv>
41.58

>  <Sse>
70.85

>  <Sp>
45.05

>  <Si>
80.15

>  <MZ>
0.58

>  <Mm>
0.54

>  <Mv>
0.59

>  <Mse>
1

>  <Mp>
0.63

>  <Mi>
1.13

>  <NsCH3>
5

>  <NdCH2>
0

>  <NssCH2>
7

>  <NtCH>
0

>  <NdsCH>
3

>  <NaaCH>
0

>  <NsssCH>
4

>  <NddC>
0

>  <NtsC>
0

>  <NdssC>
4

>  <NaasC>
0

>  <NaaaC>
0

>  <NssssC>
4

>  <NsNH3>
0

>  <NsNH2>
0

>  <NssNH2>
0

>  <NdNH>
0

>  <NssNH>
0

>  <NaaNH>
0

>  <NtN>
0

>  <NsssNH>
0

>  <NdsN>
0

>  <NaaN>
0

>  <NsssN>
0

>  <NddsN>
0

>  <NaasN>
0

>  <NssssN>
0

>  <NsOH>
2

>  <NdO>
3

>  <NssO>
1

>  <NaaO>
0

>  <NsF>
0

>  <NsSiH3>
0

>  <NssSiH2>
0

>  <NsssSiH>
0

>  <NssssSi>
0

>  <NsPH2>
0

>  <NssPH>
0

>  <NsssP>
0

>  <NdsssP>
0

>  <NsssssP>
0

>  <NsSH>
0

>  <NdS>
0

>  <NssS>
0

>  <NaaS>
0

>  <NdssS>
0

>  <NddssS>
0

>  <NsCl>
0

>  <NsBr>
0

>  <NsI>
0

>  <fragCpx>
240.06

>  <fMF>
0.24

>  <nHBAcc>
6

>  <nHBDon>
2

>  <Kier1>
26.07

>  <Kier2>
8.83

>  <Lipinski>
1

>  <GhoseFilter>
0

>  <FilterItLogS>
-3.96

>  <VMcGowan>
361.57

>  <LabuteASA>
196.01

>  <PEOE_VSA1>
14.95

>  <PEOE_VSA2>
14.38

>  <PEOE_VSA3>
0

>  <PEOE_VSA4>
0

>  <PEOE_VSA5>
0

>  <PEOE_VSA6>
46.27

>  <PEOE_VSA7>
61.51

>  <PEOE_VSA8>
16.75

>  <PEOE_VSA9>
12.52

>  <PEOE_VSA10>
5.6

>  <PEOE_VSA11>
12.39

>  <PEOE_VSA12>
5.78

>  <PEOE_VSA13>
0

>  <SMR_VSA1>
29.33

>  <SMR_VSA2>
0

>  <SMR_VSA3>
0

>  <SMR_VSA4>
34

>  <SMR_VSA5>
84.85

>  <SMR_VSA6>
6.61

>  <SMR_VSA7>
23.8

>  <SMR_VSA8>
0

>  <SMR_VSA9>
0

>  <SlogP_VSA1>
0

>  <SlogP_VSA2>
46.06

>  <SlogP_VSA3>
19.12

>  <SlogP_VSA4>
34

>  <SlogP_VSA5>
73.14

>  <SlogP_VSA6>
23.8

>  <SlogP_VSA7>
0

>  <SlogP_VSA8>
0

>  <SlogP_VSA9>
0

>  <SlogP_VSA10>
0

>  <SlogP_VSA11>
0

>  <EState_VSA1>
35.48

>  <EState_VSA2>
40.79

>  <EState_VSA3>
19.26

>  <EState_VSA4>
18.41

>  <EState_VSA5>
0

>  <EState_VSA6>
12.15

>  <EState_VSA7>
33.77

>  <EState_VSA8>
6.92

>  <EState_VSA9>
4.74

>  <EState_VSA10>
24.6

>  <VSA_EState1>
5.25

>  <VSA_EState2>
37.32

>  <VSA_EState3>
23.07

>  <VSA_EState4>
-1.96

>  <VSA_EState5>
-0.74

>  <VSA_EState6>
0

>  <VSA_EState7>
7.7

>  <VSA_EState8>
9.37

>  <VSA_EState9>
0

>  <apol>
75.24

>  <bpol>
42.46

>  <nRing>
4

>  <nHRing>
0

>  <naRing>
0

>  <naHRing>
0

>  <nARing 2>
4

>  <nAHRing 2>
0

>  <nFRing>
1

>  <nFHRing>
0

>  <nFaRing>
0

>  <nFaHRing>
0

>  <nFARing 2>
1

>  <nFAHRing 2>
0

>  <nRot>
4

>  <SLogP>
3.54

>  <SMR>
122.99

>  <TopoPSA(NO)>
100.9

>  <TopoPSA>
100.9

>  <JGI1>
0.33

>  <JGI2>
0.13

>  <JGI3>
0.08

>  <JGI4>
0.05

>  <JGI5>
0.03

>  <Diameter>
16

>  <Radius>
8

>  <TMWC10>
150.33

>  <TSRW10>
85.02

>  <MW>
458.27

>  <AMW>
6.45

>  <WPath>
3111

>  <WPol>
67

>  <Zagreb1>
190

>  <Zagreb2>
235

>  <mZagreb2>
6.73

>  <yes>


>  <nAR-cont>
0.199399

>  <nHA-cont>
0.61399562

>  <MWHBN>
0.373705314

>  <MWHBN-cont>
0.579439256

>  <TPSA-cont>
0.295655345

>  <pka_cont>
0.97

>  <yes.1>


>  <BBB_SCORE>
2.758864193

>  <MMFF94 Energy>
123.02

$$$$
Compound 903
Actelion Java MolfileCreator 2.0

  0  0  0  0  0  0              0 V3000
M  V30 BEGIN CTAB
M  V30 COUNTS 79 83 0 0 0
M  V30 BEGIN ATOM
M  V30 1 F -2.5803 -2.5803 0.4834 0
M  V30 2 C -2.0227 -1.9654 1.596 0 CFG=2
M  V30 3 C -2.9264 -2.3807 2.8288 0 CFG=2
M  V30 4 C -2.0195 -0.4449 1.2415 0 CFG=1
M  V30 5 C -0.5726 -2.5439 1.7131 0 CFG=2
M  V30 6 C -2.8473 -3.9123 2.9717 0
M  V30 7 C -4.3722 -1.9297 2.6203 0
M  V30 8 C -2.4784 -1.7597 4.1721 0
M  V30 9 O -1.6909 0.3752 2.3578 0
M  V30 10 C -1.0839 -0.0914 0.0606 0
M  V30 11 C 0.21 -2.1742 0.4444 0 CFG=1
M  V30 12 C -0.6005 -4.0717 1.9047 0
M  V30 13 C -3.9212 -4.7216 2.9437 0
M  V30 14 C -1.4608 -4.4909 3.0918 0
M  V30 15 C -5.4382 -2.7404 2.5922 0
M  V30 16 C 0.3468 -0.6486 0.2209 0 CFG=1
M  V30 17 C 1.6384 -2.6877 0.2815 0
M  V30 18 C -5.2901 -4.1971 2.7659 0
M  V30 19 C 1.239 -0.6415 -1.0634 0 CFG=1
M  V30 20 C 1.0876 0.072 1.379 0
M  V30 21 C 2.218 -1.8097 -0.8462 0 CFG=2
M  V30 22 O -6.2629 -4.9407 2.7636 0
M  V30 23 O 0.4841 -1.0171 -2.2185 0
M  V30 24 C 1.9642 0.6926 -1.3204 0
M  V30 25 O 2.2497 -2.5493 -2.0658 0
M  V30 26 C 1.2441 -2.0087 -2.9161 0
M  V30 27 O 3.0963 0.9096 -0.8803 0
M  V30 28 C 1.1879 1.749 -2.1001 0
M  V30 29 C 0.3076 -3.1258 -3.3577 0
M  V30 30 C 1.9212 -1.371 -4.126 0
M  V30 31 O 1.9616 2.9442 -2.2171 0
M  V30 32 C 1.2585 4.0258 -2.6404 0
M  V30 33 O 0.068 4.0202 -2.9224 0
M  V30 34 C 2.1439 5.2484 -2.6953 0
M  V30 35 C 2.136 6.1013 -1.4079 0
M  V30 36 C 0.7261 6.6371 -1.1082 0
M  V30 37 C 3.0795 7.3004 -1.6214 0
M  V30 38 C 2.6398 5.2925 -0.2007 0
M  V30 39 H -3.0312 -0.1604 0.9296 0
M  V30 40 H -0.0732 -2.1158 2.5878 0
M  V30 41 H -4.5494 -0.8619 2.5132 0
M  V30 42 H -2.9715 -2.2543 5.0196 0
M  V30 43 H -2.7392 -0.6988 4.2491 0
M  V30 44 H -1.4005 -1.8442 4.3377 0
M  V30 45 H -1.8372 1.3031 2.0993 0
M  V30 46 H -1.5384 -0.4888 -0.8551 0
M  V30 47 H -1.0446 0.9975 -0.0516 0
M  V30 48 H -0.3605 -2.5991 -0.3947 0
M  V30 49 H 0.4169 -4.4479 2.0624 0
M  V30 50 H -0.9773 -4.5555 0.9939 0
M  V30 51 H -3.8482 -5.7996 3.031 0
M  V30 52 H -0.9994 -4.1564 4.0281 0
M  V30 53 H -1.4887 -5.5864 3.1393 0
M  V30 54 H -6.4476 -2.3729 2.4538 0
M  V30 55 H 1.6628 -3.7531 0.0311 0
M  V30 56 H 2.2041 -2.5399 1.2081 0
M  V30 57 H 0.6577 -0.1313 2.3612 0
M  V30 58 H 2.1414 -0.2177 1.4441 0
M  V30 59 H 1.0594 1.1585 1.2371 0
M  V30 60 H 3.2425 -1.521 -0.5942 0
M  V30 61 H 0.9794 1.3687 -3.1041 0
M  V30 62 H 0.2598 1.9555 -1.5617 0
M  V30 63 H -0.1631 -3.6026 -2.4914 0
M  V30 64 H 0.8497 -3.9096 -3.897 0
M  V30 65 H -0.4978 -2.7423 -3.9925 0
M  V30 66 H 1.1892 -0.8909 -4.7837 0
M  V30 67 H 2.4885 -2.1121 -4.6989 0
M  V30 68 H 2.634 -0.5997 -3.8147 0
M  V30 69 H 3.1639 4.9243 -2.9404 0
M  V30 70 H 1.814 5.8443 -3.5564 0
M  V30 71 H 0.7374 7.3163 -0.2479 0
M  V30 72 H 0.3238 7.1914 -1.9634 0
M  V30 73 H 0.027 5.8279 -0.8725 0
M  V30 74 H 2.7528 7.9152 -2.4676 0
M  V30 75 H 3.1109 7.9447 -0.7354 0
M  V30 76 H 4.1031 6.967 -1.8259 0
M  V30 77 H 2.7238 5.9256 0.69 0
M  V30 78 H 1.9591 4.4717 0.0492 0
M  V30 79 H 3.6283 4.8632 -0.3975 0
M  V30 END ATOM
M  V30 BEGIN BOND
M  V30 1 1 1 2
M  V30 2 1 2 3
M  V30 3 1 2 4
M  V30 4 1 2 5
M  V30 5 1 3 6
M  V30 6 1 3 7
M  V30 7 1 3 8
M  V30 8 1 4 9
M  V30 9 1 4 10
M  V30 10 1 5 11
M  V30 11 1 5 12
M  V30 12 2 6 13
M  V30 13 1 6 14
M  V30 14 2 7 15
M  V30 15 1 10 16
M  V30 16 1 11 17
M  V30 17 1 13 18
M  V30 18 1 16 19
M  V30 19 1 16 20
M  V30 20 1 17 21
M  V30 21 2 18 22
M  V30 22 1 19 23
M  V30 23 1 19 24
M  V30 24 1 21 25
M  V30 25 1 23 26
M  V30 26 2 24 27
M  V30 27 1 24 28
M  V30 28 1 26 29
M  V30 29 1 26 30
M  V30 30 1 28 31
M  V30 31 1 31 32
M  V30 32 2 32 33
M  V30 33 1 32 34
M  V30 34 1 34 35
M  V30 35 1 35 36
M  V30 36 1 35 37
M  V30 37 1 35 38
M  V30 38 1 11 16
M  V30 39 1 12 14
M  V30 40 1 15 18
M  V30 41 1 19 21
M  V30 42 1 25 26
M  V30 43 1 4 39
M  V30 44 1 5 40
M  V30 45 1 7 41
M  V30 46 1 8 42
M  V30 47 1 8 43
M  V30 48 1 8 44
M  V30 49 1 9 45
M  V30 50 1 10 46
M  V30 51 1 10 47
M  V30 52 1 11 48
M  V30 53 1 12 49
M  V30 54 1 12 50
M  V30 55 1 13 51
M  V30 56 1 14 52
M  V30 57 1 14 53
M  V30 58 1 15 54
M  V30 59 1 17 55
M  V30 60 1 17 56
M  V30 61 1 20 57
M  V30 62 1 20 58
M  V30 63 1 20 59
M  V30 64 1 21 60
M  V30 65 1 28 61
M  V30 66 1 28 62
M  V30 67 1 29 63
M  V30 68 1 29 64
M  V30 69 1 29 65
M  V30 70 1 30 66
M  V30 71 1 30 67
M  V30 72 1 30 68
M  V30 73 1 34 69
M  V30 74 1 34 70
M  V30 75 1 36 71
M  V30 76 1 36 72
M  V30 77 1 36 73
M  V30 78 1 37 74
M  V30 79 1 37 75
M  V30 80 1 37 76
M  V30 81 1 38 77
M  V30 82 1 38 78
M  V30 83 1 38 79
M  V30 END BOND
M  V30 BEGIN COLLECTION
M  V30 MDLV30/STEABS ATOMS=(8 2 3 4 5 11 16 19 21)
M  V30 END COLLECTION
M  V30 END CTAB
M  END
>  <Column 1>
1079

>  <level_0>
1217

>  <index>
1217

>  <Unnamed: 0>
1217

>  <NO.>
1229

>  <Name>
triamcinolone-hexacetonide

>  <IUPAC_name>
[2-[(1s-2s-4r-8s-9s-11s-12r-13s)-12-fluoro-11-hydroxy-6-6-9-13-tetramethyl-16-oxo-5-7-dioxapentacyclo[10.8.0.02-9.04-8.013-18]icosa-14-17-dien-8-yl]-2-oxoethyl] 3-3-dimethylbutanoate

>  <SMILES>
CC(C)(C)CC(=O)OCC(=O)[C@@]12OC(C)(C)O[C@@H]1C[C@H]1[C@@H]3CCC4=CC(=O)C=C[C@]4(C)[C@@]3(F)[C@@H](O)C[C@@]12C

>  <CID>
21826

>  <logBB>


>  <BBB+/BBB->
BBB+

>  <Inchi>
InChI=1S/C30H41FO7/c1-25(2-3)15-24(35)36-16-22(34)30-23(37-26(4-5)38-30)13-20-19-9-8-17-12-18(32)10-11-27(17-6)29(19-31)21(33)14-28(20-30)7/h10-12-19-21-23-33H-8-9-13-16H2-1-7H3/t19--20--21--23+-27--28--29--30+/m0/s1

>  <threshold>
-1

>  <reference>
R1|R6|R27|R30|

>  <group>
B

>  <Class>
-1

>  <ABC>
30.81

>  <ABCGG>
24.51

>  <nAcid>
0

>  <nBase>
0

>  <nAromAtom>
0

>  <nAromBond>
0

>  <nAtom>
79

>  <nHeavyAtom>
38

>  <nSpiro>
0

>  <nBridgehead>
0

>  <nHetero>
8

>  <nN>
0

>  <nO>
7

>  <nF>
1

>  <BalabanJ>
1.47

>  <BertzCT>
1133.91

>  <nBonds>
83

>  <nBondsO>
42

>  <nBondsS>
78

>  <nBondsD>
5

>  <nBondsT>
0

>  <nBondsA>
0

>  <nBondsM>
5

>  <nBondsKS>
78

>  <nBondsKD>
5

>  <RNCG>
0.14

>  <RPCG>
0.1

>  <FCSP3>
0.77

>  <SZ>
47.67

>  <Sm>
44.35

>  <Sv>
46.76

>  <Sse>
79.47

>  <Sp>
50.07

>  <Si>
89.53

>  <MZ>
0.6

>  <Mm>
0.56

>  <Mv>
0.59

>  <Mse>
1.01

>  <Mp>
0.63

>  <Mi>
1.13

>  <NsCH3>
7

>  <NdCH2>
0

>  <NssCH2>
6

>  <NtCH>
0

>  <NdsCH>
3

>  <NaaCH>
0

>  <NsssCH>
4

>  <NddC>
0

>  <NtsC>
0

>  <NdssC>
4

>  <NaasC>
0

>  <NaaaC>
0

>  <NssssC>
6

>  <NsNH3>
0

>  <NsNH2>
0

>  <NssNH2>
0

>  <NdNH>
0

>  <NssNH>
0

>  <NaaNH>
0

>  <NtN>
0

>  <NsssNH>
0

>  <NdsN>
0

>  <NaaN>
0

>  <NsssN>
0

>  <NddsN>
0

>  <NaasN>
0

>  <NssssN>
0

>  <NsOH>
1

>  <NdO>
3

>  <NssO>
3

>  <NaaO>
0

>  <NsF>
1

>  <NsSiH3>
0

>  <NssSiH2>
0

>  <NsssSiH>
0

>  <NssssSi>
0

>  <NsPH2>
0

>  <NssPH>
0

>  <NsssP>
0

>  <NdsssP>
0

>  <NsssssP>
0

>  <NsSH>
0

>  <NdS>
0

>  <NssS>
0

>  <NaaS>
0

>  <NdssS>
0

>  <NddssS>
0

>  <NsCl>
0

>  <NsBr>
0

>  <NsI>
0

>  <fragCpx>
358.08

>  <fMF>
0.25

>  <nHBAcc>
7

>  <nHBDon>
1

>  <Kier1>
29.49

>  <Kier2>
9.25

>  <Lipinski>
0

>  <GhoseFilter>
0

>  <FilterItLogS>
-5.24

>  <VMcGowan>
400.61

>  <LabuteASA>
223.7

>  <PEOE_VSA1>
19.32

>  <PEOE_VSA2>
14.38

>  <PEOE_VSA3>
4.39

>  <PEOE_VSA4>
0

>  <PEOE_VSA5>
0

>  <PEOE_VSA6>
39.34

>  <PEOE_VSA7>
69.94

>  <PEOE_VSA8>
16.75

>  <PEOE_VSA9>
18.63

>  <PEOE_VSA10>
0

>  <PEOE_VSA11>
29.45

>  <PEOE_VSA12>
5.78

>  <PEOE_VSA13>
0

>  <SMR_VSA1>
38.09

>  <SMR_VSA2>
0

>  <SMR_VSA3>
0

>  <SMR_VSA4>
28.08

>  <SMR_VSA5>
109.84

>  <SMR_VSA6>
6.61

>  <SMR_VSA7>
23.8

>  <SMR_VSA8>
0

>  <SMR_VSA9>
0

>  <SlogP_VSA1>
0

>  <SlogP_VSA2>
58.51

>  <SlogP_VSA3>
28.59

>  <SlogP_VSA4>
28.08

>  <SlogP_VSA5>
80.57

>  <SlogP_VSA6>
23.8

>  <SlogP_VSA7>
0

>  <SlogP_VSA8>
0

>  <SlogP_VSA9>
0

>  <SlogP_VSA10>
4.39

>  <SlogP_VSA11>
0

>  <EState_VSA1>
64.37

>  <EState_VSA2>
29.96

>  <EState_VSA3>
24.84

>  <EState_VSA4>
0

>  <EState_VSA5>
12.15

>  <EState_VSA6>
26.85

>  <EState_VSA7>
27.69

>  <EState_VSA8>
0

>  <EState_VSA9>
14.21

>  <EState_VSA10>
19.49

>  <VSA_EState1>
35.62

>  <VSA_EState2>
38.57

>  <VSA_EState3>
11.62

>  <VSA_EState4>
-5.17

>  <VSA_EState5>
-3.02

>  <VSA_EState6>
0

>  <VSA_EState7>
3.96

>  <VSA_EState8>
12.42

>  <VSA_EState9>
0

>  <apol>
83.61

>  <bpol>
50.06

>  <nRing>
5

>  <nHRing>
1

>  <naRing>
0

>  <naHRing>
0

>  <nARing 2>
5

>  <nAHRing 2>
1

>  <nFRing>
1

>  <nFHRing>
1

>  <nFaRing>
0

>  <nFaHRing>
0

>  <nFARing 2>
1

>  <nFAHRing 2>
1

>  <nRot>
4

>  <SLogP>
4.41

>  <SMR>
136.54

>  <TopoPSA(NO)>
99.13

>  <TopoPSA>
99.13

>  <JGI1>
0.37

>  <JGI2>
0.13

>  <JGI3>
0.09

>  <JGI4>
0.06

>  <JGI5>
0.04

>  <Diameter>
16

>  <Radius>
8

>  <TMWC10>
164.08

>  <TSRW10>
93.32

>  <MW>
532.28

>  <AMW>
6.74

>  <WPath>
4181

>  <WPol>
84

>  <Zagreb1>
228

>  <Zagreb2>
289

>  <mZagreb2>
7.57

>  <yes>


>  <nAR-cont>
0

>  <nHA-cont>
0.390024847

>  <MWHBN>
0.346752749

>  <MWHBN-cont>
0.68234197

>  <TPSA-cont>
0.308011044

>  <pka_cont>
0.97

>  <yes.1>


>  <BBB_SCORE>
2.51455989

>  <MMFF94 Energy>
163.46

$$$$
Compound 904
Actelion Java MolfileCreator 2.0

  0  0  0  0  0  0              0 V3000
M  V30 BEGIN CTAB
M  V30 COUNTS 40 40 0 0 0
M  V30 BEGIN ATOM
M  V30 1 O 4.9699 -0.7752 -0.5426 0
M  V30 2 C 4.7927 -1.1945 -1.6778 0
M  V30 3 N 3.6621 -1.1113 -2.4373 0
M  V30 4 N 5.8068 -1.8322 -2.3233 0
M  V30 5 C 2.4236 -0.5301 -2.1018 0
M  V30 6 C 1.4255 -0.5575 -3.0857 0
M  V30 7 C 2.1403 0.0564 -0.8672 0
M  V30 8 O 1.7159 -1.142 -4.2938 0
M  V30 9 C 0.1682 -0.0088 -2.8524 0
M  V30 10 C 0.8748 0.6153 -0.6084 0
M  V30 11 C -0.102 0.5774 -1.6156 0
M  V30 12 C 0.5945 1.25 0.7409 0 CFG=1
M  V30 13 O 0.1893 2.6174 0.5718 0
M  V30 14 C -0.4536 0.4972 1.6058 0
M  V30 15 N -1.8355 0.7367 1.152 0
M  V30 16 C -2.9071 0.2453 2.0319 0
M  V30 17 C -2.7677 -1.2555 2.3315 0
M  V30 18 C -4.2219 0.4678 1.2605 0
M  V30 19 C -2.9754 1.0399 3.3468 0
M  V30 20 H 3.6887 -1.5011 -3.3699 0
M  V30 21 H 5.7256 -2.2075 -3.2533 0
M  V30 22 H 6.6786 -1.9322 -1.8226 0
M  V30 23 H 2.8957 0.0862 -0.0872 0
M  V30 24 H 0.9181 -1.0973 -4.8478 0
M  V30 25 H -0.6099 -0.0284 -3.6083 0
M  V30 26 H -1.0883 1.0015 -1.4337 0
M  V30 27 H 1.5285 1.2856 1.315 0
M  V30 28 H 0.6294 2.9374 -0.2344 0
M  V30 29 H -0.2215 -0.5729 1.6078 0
M  V30 30 H -0.3457 0.8748 2.6281 0
M  V30 31 H -1.9278 1.7481 1.0153 0
M  V30 32 H -1.8926 -1.4686 2.9549 0
M  V30 33 H -3.6454 -1.6301 2.8711 0
M  V30 34 H -2.6762 -1.8391 1.4082 0
M  V30 35 H -4.2264 -0.0808 0.3111 0
M  V30 36 H -5.085 0.1243 1.8426 0
M  V30 37 H -4.3809 1.529 1.0338 0
M  V30 38 H -2.1013 0.8613 3.9814 0
M  V30 39 H -3.0409 2.1179 3.1593 0
M  V30 40 H -3.859 0.7548 3.9298 0
M  V30 END ATOM
M  V30 BEGIN BOND
M  V30 1 2 1 2
M  V30 2 1 2 3
M  V30 3 1 2 4
M  V30 4 1 3 5
M  V30 5 2 5 6
M  V30 6 1 5 7
M  V30 7 1 6 8
M  V30 8 1 6 9
M  V30 9 2 7 10
M  V30 10 2 9 11
M  V30 11 1 10 12
M  V30 12 1 12 13
M  V30 13 1 12 14
M  V30 14 1 14 15
M  V30 15 1 15 16
M  V30 16 1 16 17
M  V30 17 1 16 18
M  V30 18 1 16 19
M  V30 19 1 10 11
M  V30 20 1 3 20
M  V30 21 1 4 21
M  V30 22 1 4 22
M  V30 23 1 7 23
M  V30 24 1 8 24
M  V30 25 1 9 25
M  V30 26 1 11 26
M  V30 27 1 12 27
M  V30 28 1 13 28
M  V30 29 1 14 29
M  V30 30 1 14 30
M  V30 31 1 15 31
M  V30 32 1 17 32
M  V30 33 1 17 33
M  V30 34 1 17 34
M  V30 35 1 18 35
M  V30 36 1 18 36
M  V30 37 1 18 37
M  V30 38 1 19 38
M  V30 39 1 19 39
M  V30 40 1 19 40
M  V30 END BOND
M  V30 BEGIN COLLECTION
M  V30 MDLV30/STERAC1 ATOMS=(1 12)
M  V30 END COLLECTION
M  V30 END CTAB
M  END
>  <Column 1>
1080

>  <level_0>
1218

>  <index>
1218

>  <Unnamed: 0>
1218

>  <NO.>
1230

>  <Name>
carbuterol

>  <IUPAC_name>
[5-[2-(tert-butylamino)-1-hydroxyethyl]-2-hydroxyphenyl]urea

>  <SMILES>
CC(C)(C)NCC(O)c1ccc(O)c(NC(N)=O)c1

>  <CID>
36976

>  <logBB>


>  <BBB+/BBB->
BBB-

>  <Inchi>
InChI=1S/C13H21N3O3/c1-13(2-3)15-7-11(18)8-4-5-10(17)9(6-8)16-12(14)19/h4-6-11-15-17-18H-7H2-1-3H3-(H3-14-16-19)

>  <threshold>
-1

>  <reference>
R1|R19|R6|R27|R27|R30|

>  <group>
B

>  <Class>
1

>  <ABC>
14.27

>  <ABCGG>
12.68

>  <nAcid>
0

>  <nBase>
1

>  <nAromAtom>
6

>  <nAromBond>
6

>  <nAtom>
40

>  <nHeavyAtom>
19

>  <nSpiro>
0

>  <nBridgehead>
0

>  <nHetero>
6

>  <nN>
3

>  <nO>
3

>  <nF>
0

>  <BalabanJ>
2.45

>  <BertzCT>
454.94

>  <nBonds>
40

>  <nBondsO>
19

>  <nBondsS>
33

>  <nBondsD>
1

>  <nBondsT>
0

>  <nBondsA>
6

>  <nBondsM>
7

>  <nBondsKS>
36

>  <nBondsKD>
4

>  <RNCG>
0.21

>  <RPCG>
0.13

>  <FCSP3>
0.46

>  <SZ>
24

>  <Sm>
22.26

>  <Sv>
23.11

>  <Sse>
40.3

>  <Sp>
24.8

>  <Si>
45.86

>  <MZ>
0.6

>  <Mm>
0.56

>  <Mv>
0.58

>  <Mse>
1.01

>  <Mp>
0.62

>  <Mi>
1.15

>  <NsCH3>
3

>  <NdCH2>
0

>  <NssCH2>
1

>  <NtCH>
0

>  <NdsCH>
0

>  <NaaCH>
3

>  <NsssCH>
1

>  <NddC>
0

>  <NtsC>
0

>  <NdssC>
1

>  <NaasC>
3

>  <NaaaC>
0

>  <NssssC>
1

>  <NsNH3>
0

>  <NsNH2>
1

>  <NssNH2>
0

>  <NdNH>
0

>  <NssNH>
2

>  <NaaNH>
0

>  <NtN>
0

>  <NsssNH>
0

>  <NdsN>
0

>  <NaaN>
0

>  <NsssN>
0

>  <NddsN>
0

>  <NaasN>
0

>  <NssssN>
0

>  <NsOH>
2

>  <NdO>
1

>  <NssO>
0

>  <NaaO>
0

>  <NsF>
0

>  <NsSiH3>
0

>  <NssSiH2>
0

>  <NsssSiH>
0

>  <NssssSi>
0

>  <NsPH2>
0

>  <NssPH>
0

>  <NsssP>
0

>  <NdsssP>
0

>  <NsssssP>
0

>  <NsSH>
0

>  <NdS>
0

>  <NssS>
0

>  <NaaS>
0

>  <NdssS>
0

>  <NddssS>
0

>  <NsCl>
0

>  <NsBr>
0

>  <NsI>
0

>  <fragCpx>
19.06

>  <fMF>
0.15

>  <nHBAcc>
4

>  <nHBDon>
5

>  <Kier1>
17.05

>  <Kier2>
7.14

>  <Lipinski>
1

>  <GhoseFilter>
1

>  <FilterItLogS>
-2.15

>  <VMcGowan>
213.52

>  <LabuteASA>
112.18

>  <PEOE_VSA1>
26.58

>  <PEOE_VSA2>
0

>  <PEOE_VSA3>
4.79

>  <PEOE_VSA4>
0

>  <PEOE_VSA5>
0

>  <PEOE_VSA6>
6.07

>  <PEOE_VSA7>
38.47

>  <PEOE_VSA8>
12.08

>  <PEOE_VSA9>
11.79

>  <PEOE_VSA10>
5.75

>  <PEOE_VSA11>
0

>  <PEOE_VSA12>
0

>  <PEOE_VSA13>
0

>  <SMR_VSA1>
15.01

>  <SMR_VSA2>
0

>  <SMR_VSA3>
5.32

>  <SMR_VSA4>
5.73

>  <SMR_VSA5>
32.41

>  <SMR_VSA6>
11.86

>  <SMR_VSA7>
23.76

>  <SMR_VSA8>
0

>  <SMR_VSA9>
5.75

>  <SlogP_VSA1>
16.37

>  <SlogP_VSA2>
28.33

>  <SlogP_VSA3>
0

>  <SlogP_VSA4>
0

>  <SlogP_VSA5>
32.44

>  <SlogP_VSA6>
18.2

>  <SlogP_VSA7>
0

>  <SlogP_VSA8>
0

>  <SlogP_VSA9>
0

>  <SlogP_VSA10>
10.48

>  <SlogP_VSA11>
5.75

>  <EState_VSA1>
12.14

>  <EState_VSA2>
16.98

>  <EState_VSA3>
12.11

>  <EState_VSA4>
0

>  <EState_VSA5>
12.13

>  <EState_VSA6>
6.07

>  <EState_VSA7>
20.77

>  <EState_VSA8>
10.63

>  <EState_VSA9>
5.73

>  <EState_VSA10>
15.01

>  <VSA_EState1>
0

>  <VSA_EState2>
10.78

>  <VSA_EState3>
25.07

>  <VSA_EState4>
5.66

>  <VSA_EState5>
-0.1

>  <VSA_EState6>
3.72

>  <VSA_EState7>
-0.74

>  <VSA_EState8>
6.36

>  <VSA_EState9>
0

>  <apol>
41.42

>  <bpol>
22.51

>  <nRing>
1

>  <nHRing>
0

>  <naRing>
1

>  <naHRing>
0

>  <nARing 2>
0

>  <nAHRing 2>
0

>  <nFRing>
0

>  <nFHRing>
0

>  <nFaRing>
0

>  <nFaHRing>
0

>  <nFARing 2>
0

>  <nFAHRing 2>
0

>  <nRot>
4

>  <SLogP>
1.3

>  <SMR>
74.03

>  <TopoPSA(NO)>
107.61

>  <TopoPSA>
107.61

>  <JGI1>
0.34

>  <JGI2>
0.09

>  <JGI3>
0.05

>  <JGI4>
0.06

>  <JGI5>
0.03

>  <Diameter>
10

>  <Radius>
5

>  <TMWC10>
108.54

>  <TSRW10>
51.75

>  <MW>
267.16

>  <AMW>
6.68

>  <WPath>
766

>  <WPol>
24

>  <Zagreb1>
92

>  <Zagreb2>
100

>  <mZagreb2>
4.1

>  <yes>


>  <nAR-cont>
0.336376

>  <nHA-cont>
0.998649058

>  <MWHBN>
0.550626098

>  <MWHBN-cont>
0

>  <TPSA-cont>
0.248815378

>  <pka_cont>
0.97

>  <yes.1>


>  <BBB_SCORE>
2.317655814

>  <MMFF94 Energy>
-32.158

$$$$
Compound 905
Actelion Java MolfileCreator 2.0

  0  0  0  0  0  0              0 V3000
M  V30 BEGIN CTAB
M  V30 COUNTS 33 33 0 0 0
M  V30 BEGIN ATOM
M  V30 1 F -2.0352 -2.0352 1.5652 0
M  V30 2 C -1.8005 -2.2565 0.2633 0
M  V30 3 C -0.4997 -2.1312 -0.2372 0
M  V30 4 C -2.8707 -2.6022 -0.5577 0
M  V30 5 C -0.2948 -2.3721 -1.6042 0
M  V30 6 C 0.6199 -1.7377 0.7011 0 CFG=1
M  V30 7 C -2.6518 -2.8341 -1.9133 0
M  V30 8 C -1.364 -2.7203 -2.4354 0
M  V30 9 O 1.8995 -1.9441 0.0835 0
M  V30 10 C 0.5326 -0.2608 1.178 0
M  V30 11 N 0.9594 0.651 0.0951 0
M  V30 12 C 0.9161 2.0912 0.4174 0
M  V30 13 C -0.5235 2.5802 0.649 0
M  V30 14 C 1.4851 2.8179 -0.8165 0
M  V30 15 C 1.7917 2.4409 1.6313 0
M  V30 16 H -3.8659 -2.6904 -0.1338 0
M  V30 17 H 0.7034 -2.2984 -2.0315 0
M  V30 18 H 0.588 -2.402 1.5729 0
M  V30 19 H -3.4804 -3.1081 -2.5611 0
M  V30 20 H -1.1871 -2.9083 -3.4919 0
M  V30 21 H 2.2146 -1.0418 -0.1324 0
M  V30 22 H -0.4755 -0.0294 1.5332 0
M  V30 23 H 1.2293 -0.1551 2.0166 0
M  V30 24 H 0.3609 0.4801 -0.7179 0
M  V30 25 H -0.9577 2.1604 1.5625 0
M  V30 26 H -0.5538 3.6714 0.7509 0
M  V30 27 H -1.1766 2.311 -0.1891 0
M  V30 28 H 0.8862 2.6178 -1.7132 0
M  V30 29 H 1.4961 3.9038 -0.6658 0
M  V30 30 H 2.5149 2.5044 -1.0255 0
M  V30 31 H 1.3828 2.035 2.5628 0
M  V30 32 H 2.8107 2.0552 1.5115 0
M  V30 33 H 1.865 3.5272 1.7609 0
M  V30 END ATOM
M  V30 BEGIN BOND
M  V30 1 1 1 2
M  V30 2 2 2 3
M  V30 3 1 2 4
M  V30 4 1 3 5
M  V30 5 1 3 6
M  V30 6 2 4 7
M  V30 7 2 5 8
M  V30 8 1 6 9
M  V30 9 1 6 10
M  V30 10 1 10 11
M  V30 11 1 11 12
M  V30 12 1 12 13
M  V30 13 1 12 14
M  V30 14 1 12 15
M  V30 15 1 7 8
M  V30 16 1 4 16
M  V30 17 1 5 17
M  V30 18 1 6 18
M  V30 19 1 7 19
M  V30 20 1 8 20
M  V30 21 1 9 21
M  V30 22 1 10 22
M  V30 23 1 10 23
M  V30 24 1 11 24
M  V30 25 1 13 25
M  V30 26 1 13 26
M  V30 27 1 13 27
M  V30 28 1 14 28
M  V30 29 1 14 29
M  V30 30 1 14 30
M  V30 31 1 15 31
M  V30 32 1 15 32
M  V30 33 1 15 33
M  V30 END BOND
M  V30 BEGIN COLLECTION
M  V30 MDLV30/STERAC1 ATOMS=(1 6)
M  V30 END COLLECTION
M  V30 END CTAB
M  END
>  <Column 1>
1081

>  <level_0>
1219

>  <index>
1219

>  <Unnamed: 0>
1219

>  <NO.>
1231

>  <Name>
flerobuterol

>  <IUPAC_name>
2-(tert-butylamino)-1-(2-fluorophenyl)ethanol

>  <SMILES>
CC(C)(C)NCC(O)c1ccccc1F

>  <CID>
71254

>  <logBB>


>  <BBB+/BBB->
BBB+

>  <Inchi>
InChI=1S/C12H18FNO/c1-12(2-3)14-8-11(15)9-6-4-5-7-10(9)13/h4-7-11-14-15H-8H2-1-3H3

>  <threshold>
-1

>  <reference>
R1|R19|R6|R27|R27|R30|

>  <group>
B

>  <Class>
1

>  <ABC>
11.22

>  <ABCGG>
10.33

>  <nAcid>
0

>  <nBase>
1

>  <nAromAtom>
6

>  <nAromBond>
6

>  <nAtom>
33

>  <nHeavyAtom>
15

>  <nSpiro>
0

>  <nBridgehead>
0

>  <nHetero>
3

>  <nN>
1

>  <nO>
1

>  <nF>
1

>  <BalabanJ>
2.35

>  <BertzCT>
319.64

>  <nBonds>
33

>  <nBondsO>
15

>  <nBondsS>
27

>  <nBondsD>
0

>  <nBondsT>
0

>  <nBondsA>
6

>  <nBondsM>
6

>  <nBondsKS>
30

>  <nBondsKD>
3

>  <RNCG>
0.31

>  <RPCG>
0.17

>  <FCSP3>
0.5

>  <SZ>
19

>  <Sm>
17.59

>  <Sv>
19

>  <Sse>
32.94

>  <Sp>
20.66

>  <Si>
37.79

>  <MZ>
0.58

>  <Mm>
0.53

>  <Mv>
0.58

>  <Mse>
1

>  <Mp>
0.63

>  <Mi>
1.15

>  <NsCH3>
3

>  <NdCH2>
0

>  <NssCH2>
1

>  <NtCH>
0

>  <NdsCH>
0

>  <NaaCH>
4

>  <NsssCH>
1

>  <NddC>
0

>  <NtsC>
0

>  <NdssC>
0

>  <NaasC>
2

>  <NaaaC>
0

>  <NssssC>
1

>  <NsNH3>
0

>  <NsNH2>
0

>  <NssNH2>
0

>  <NdNH>
0

>  <NssNH>
1

>  <NaaNH>
0

>  <NtN>
0

>  <NsssNH>
0

>  <NdsN>
0

>  <NaaN>
0

>  <NsssN>
0

>  <NddsN>
0

>  <NaasN>
0

>  <NssssN>
0

>  <NsOH>
1

>  <NdO>
0

>  <NssO>
0

>  <NaaO>
0

>  <NsF>
1

>  <NsSiH3>
0

>  <NssSiH2>
0

>  <NsssSiH>
0

>  <NssssSi>
0

>  <NsPH2>
0

>  <NssPH>
0

>  <NsssP>
0

>  <NdsssP>
0

>  <NsssssP>
0

>  <NsSH>
0

>  <NdS>
0

>  <NssS>
0

>  <NaaS>
0

>  <NdssS>
0

>  <NddssS>
0

>  <NsCl>
0

>  <NsBr>
0

>  <NsI>
0

>  <fragCpx>
15.03

>  <fMF>
0.18

>  <nHBAcc>
2

>  <nHBDon>
2

>  <Kier1>
13.07

>  <Kier2>
5.37

>  <Lipinski>
1

>  <GhoseFilter>
1

>  <FilterItLogS>
-3.22

>  <VMcGowan>
173.79

>  <LabuteASA>
90.13

>  <PEOE_VSA1>
10.42

>  <PEOE_VSA2>
0

>  <PEOE_VSA3>
4.39

>  <PEOE_VSA4>
0

>  <PEOE_VSA5>
0

>  <PEOE_VSA6>
18.2

>  <PEOE_VSA7>
26.84

>  <PEOE_VSA8>
17.65

>  <PEOE_VSA9>
6.1

>  <PEOE_VSA10>
5.82

>  <PEOE_VSA11>
0

>  <PEOE_VSA12>
0

>  <PEOE_VSA13>
0

>  <SMR_VSA1>
9.5

>  <SMR_VSA2>
0

>  <SMR_VSA3>
5.32

>  <SMR_VSA4>
0

>  <SMR_VSA5>
32.41

>  <SMR_VSA6>
6.54

>  <SMR_VSA7>
35.65

>  <SMR_VSA8>
0

>  <SMR_VSA9>
0

>  <SlogP_VSA1>
5.32

>  <SlogP_VSA2>
17.19

>  <SlogP_VSA3>
0

>  <SlogP_VSA4>
5.82

>  <SlogP_VSA5>
32.44

>  <SlogP_VSA6>
24.27

>  <SlogP_VSA7>
0

>  <SlogP_VSA8>
0

>  <SlogP_VSA9>
0

>  <SlogP_VSA10>
4.39

>  <SlogP_VSA11>
0

>  <EState_VSA1>
6.1

>  <EState_VSA2>
11.36

>  <EState_VSA3>
12.11

>  <EState_VSA4>
0

>  <EState_VSA5>
6.07

>  <EState_VSA6>
18.2

>  <EState_VSA7>
20.77

>  <EState_VSA8>
5.32

>  <EState_VSA9>
0

>  <EState_VSA10>
9.5

>  <VSA_EState1>
13.27

>  <VSA_EState2>
0

>  <VSA_EState3>
12.89

>  <VSA_EState4>
0.26

>  <VSA_EState5>
-0.36

>  <VSA_EState6>
6.29

>  <VSA_EState7>
-0.8

>  <VSA_EState8>
6.35

>  <VSA_EState9>
0

>  <apol>
34.5

>  <bpol>
19.74

>  <nRing>
1

>  <nHRing>
0

>  <naRing>
1

>  <naHRing>
0

>  <nARing 2>
0

>  <nAHRing 2>
0

>  <nFRing>
0

>  <nFHRing>
0

>  <nFaRing>
0

>  <nFaHRing>
0

>  <nFARing 2>
0

>  <nFAHRing 2>
0

>  <nRot>
3

>  <SLogP>
2.25

>  <SMR>
59.12

>  <TopoPSA(NO)>
32.26

>  <TopoPSA>
32.26

>  <JGI1>
0.3

>  <JGI2>
0.1

>  <JGI3>
0.06

>  <JGI4>
0.05

>  <JGI5>
0.03

>  <Diameter>
8

>  <Radius>
4

>  <TMWC10>
98

>  <TSRW10>
46.54

>  <MW>
211.14

>  <AMW>
6.4

>  <WPath>
390

>  <WPol>
18

>  <Zagreb1>
72

>  <Zagreb2>
78

>  <mZagreb2>
3.26

>  <yes>


>  <nAR-cont>
0.336376

>  <nHA-cont>
0.92539861

>  <MWHBN>
0.275280046

>  <MWHBN-cont>
0.907749044

>  <TPSA-cont>
0.774805168

>  <pka_cont>
0.97

>  <yes.1>


>  <BBB_SCORE>
4.658008511

>  <MMFF94 Energy>
46.165

$$$$
Compound 906
Actelion Java MolfileCreator 2.0

  0  0  0  0  0  0              0 V3000
M  V30 BEGIN CTAB
M  V30 COUNTS 58 62 0 0 0
M  V30 BEGIN ATOM
M  V30 1 O 1.5248 -1.3642 3.3731 0
M  V30 2 C 1.9384 -1.2738 1.9945 0 CFG=2
M  V30 3 C 3.5263 -1.344 2.0094 0
M  V30 4 C 1.4083 0.0638 1.4291 0
M  V30 5 C 1.302 -2.4531 1.2286 0
M  V30 6 C 4.1236 -0.1844 2.8441 0
M  V30 7 C 4.1497 -1.2683 0.5988 0
M  V30 8 C 4.0142 -2.661 2.6621 0
M  V30 9 C -0.1295 0.1026 1.2558 0 CFG=2
M  V30 10 C -0.2152 -2.324 1.0891 0
M  V30 11 N -0.6631 -1.0547 0.5222 0
M  V30 12 C -0.5559 1.4383 0.6462 0
M  V30 13 C -0.3888 -0.9386 -0.9149 0
M  V30 14 C -1.004 1.554 -0.6957 0
M  V30 15 C -0.477 2.5852 1.4576 0
M  V30 16 C -1.0791 0.2969 -1.5568 0 CFG=2
M  V30 17 C -1.3832 2.8267 -1.1953 0
M  V30 18 C -0.826 3.833 0.9624 0
M  V30 19 C -2.4969 0.0486 -2.0711 0
M  V30 20 C -1.2745 3.9492 -0.3473 0
M  V30 21 C -1.9709 3.1219 -2.5681 0
M  V30 22 C -2.9962 0.8765 -3.0998 0
M  V30 23 C -3.3371 -0.9423 -1.5406 0
M  V30 24 C -2.1555 2.0186 -3.6138 0
M  V30 25 C -4.2874 0.6675 -3.606 0
M  V30 26 C -4.6221 -1.1405 -2.0494 0
M  V30 27 C -5.0936 -0.3425 -3.0865 0
M  V30 28 H 0.5556 -1.3496 3.4264 0
M  V30 29 H 1.8797 0.2858 0.4659 0
M  V30 30 H 1.6906 0.8762 2.1102 0
M  V30 31 H 1.4966 -3.3951 1.7543 0
M  V30 32 H 1.7332 -2.5448 0.2271 0
M  V30 33 H 3.7265 -0.1723 3.8646 0
M  V30 34 H 5.2136 -0.2757 2.9216 0
M  V30 35 H 3.9202 0.7896 2.3879 0
M  V30 36 H 3.9045 -0.3322 0.0892 0
M  V30 37 H 5.244 -1.3187 0.6551 0
M  V30 38 H 3.8296 -2.0979 -0.0378 0
M  V30 39 H 5.1079 -2.6803 2.7395 0
M  V30 40 H 3.6161 -2.7841 3.6748 0
M  V30 41 H 3.7238 -3.5367 2.0731 0
M  V30 42 H -0.5919 0.0694 2.2522 0
M  V30 43 H -0.5975 -3.159 0.4885 0
M  V30 44 H -0.6858 -2.4509 2.0721 0
M  V30 45 H 0.6928 -0.8597 -1.0873 0
M  V30 46 H -0.701 -1.8478 -1.445 0
M  V30 47 H -0.1401 2.5063 2.4892 0
M  V30 48 H -0.4431 0.4831 -2.4323 0
M  V30 49 H -0.7622 4.7118 1.5977 0
M  V30 50 H -1.5656 4.9338 -0.7106 0
M  V30 51 H -2.9579 3.5751 -2.395 0
M  V30 52 H -1.346 3.8985 -3.0298 0
M  V30 53 H -3.0095 -1.5674 -0.7138 0
M  V30 54 H -1.1902 1.6494 -3.9773 0
M  V30 55 H -2.636 2.4601 -4.4969 0
M  V30 56 H -4.6792 1.3014 -4.3979 0
M  V30 57 H -5.2568 -1.9147 -1.6268 0
M  V30 58 H -6.0955 -0.4951 -3.478 0
M  V30 END ATOM
M  V30 BEGIN BOND
M  V30 1 1 1 2
M  V30 2 1 2 3
M  V30 3 1 2 4
M  V30 4 1 2 5
M  V30 5 1 3 6
M  V30 6 1 3 7
M  V30 7 1 3 8
M  V30 8 1 4 9
M  V30 9 1 5 10
M  V30 10 1 9 11
M  V30 11 1 9 12
M  V30 12 1 11 13
M  V30 13 2 12 14
M  V30 14 1 12 15
M  V30 15 1 13 16
M  V30 16 1 14 17
M  V30 17 2 15 18
M  V30 18 1 16 19
M  V30 19 2 17 20
M  V30 20 1 17 21
M  V30 21 2 19 22
M  V30 22 1 19 23
M  V30 23 1 21 24
M  V30 24 1 22 25
M  V30 25 2 23 26
M  V30 26 2 25 27
M  V30 27 1 10 11
M  V30 28 1 14 16
M  V30 29 1 18 20
M  V30 30 1 22 24
M  V30 31 1 26 27
M  V30 32 1 1 28
M  V30 33 1 4 29
M  V30 34 1 4 30
M  V30 35 1 5 31
M  V30 36 1 5 32
M  V30 37 1 6 33
M  V30 38 1 6 34
M  V30 39 1 6 35
M  V30 40 1 7 36
M  V30 41 1 7 37
M  V30 42 1 7 38
M  V30 43 1 8 39
M  V30 44 1 8 40
M  V30 45 1 8 41
M  V30 46 1 9 42
M  V30 47 1 10 43
M  V30 48 1 10 44
M  V30 49 1 13 45
M  V30 50 1 13 46
M  V30 51 1 15 47
M  V30 52 1 16 48
M  V30 53 1 18 49
M  V30 54 1 20 50
M  V30 55 1 21 51
M  V30 56 1 21 52
M  V30 57 1 23 53
M  V30 58 1 24 54
M  V30 59 1 24 55
M  V30 60 1 25 56
M  V30 61 1 26 57
M  V30 62 1 27 58
M  V30 END BOND
M  V30 BEGIN COLLECTION
M  V30 MDLV30/STEABS ATOMS=(3 2 9 16)
M  V30 END COLLECTION
M  V30 END CTAB
M  END
>  <Column 1>
1082

>  <level_0>
1220

>  <index>
1220

>  <Unnamed: 0>
1220

>  <NO.>
1232

>  <Name>
butaclamol

>  <IUPAC_name>
(1s-6s-8s)-6-tert-butyl-3-azapentacyclo[11.8.1.03-8.09-22.016-21]docosa-9-11-13(22)-16-18-20-hexaen-6-ol

>  <SMILES>
CC(C)(C)[C@]1(O)CCN2C[C@H]3c4ccccc4CCc4cccc(c43)[C@@H]2C1

>  <CID>
37459

>  <logBB>


>  <BBB+/BBB->
BBB+

>  <Inchi>
InChI=1S/C25H31NO/c1-24(2-3)25(27)13-14-26-16-21-19-9-5-4-7-17(19)11-12-18-8-6-10-20(23(18)21)22(26)15-25/h4-10-21-22-27H-11-16H2-1-3H3/t21--22--25-/m0/s1

>  <threshold>
-1

>  <reference>
R1|R6|R27|R30|

>  <group>
B

>  <Class>
-1

>  <ABC>
22.18

>  <ABCGG>
16.37

>  <nAcid>
0

>  <nBase>
1

>  <nAromAtom>
12

>  <nAromBond>
12

>  <nAtom>
58

>  <nHeavyAtom>
27

>  <nSpiro>
0

>  <nBridgehead>
0

>  <nHetero>
2

>  <nN>
1

>  <nO>
1

>  <nF>
0

>  <BalabanJ>
1.46

>  <BertzCT>
880.13

>  <nBonds>
62

>  <nBondsO>
31

>  <nBondsS>
50

>  <nBondsD>
0

>  <nBondsT>
0

>  <nBondsA>
12

>  <nBondsM>
12

>  <nBondsKS>
56

>  <nBondsKD>
6

>  <RNCG>
0.25

>  <RPCG>
0.14

>  <FCSP3>
0.52

>  <SZ>
32.67

>  <Sm>
30.1

>  <Sv>
34.87

>  <Sse>
56.76

>  <Sp>
38.52

>  <Si>
64.94

>  <MZ>
0.56

>  <Mm>
0.52

>  <Mv>
0.6

>  <Mse>
0.98

>  <Mp>
0.66

>  <Mi>
1.12

>  <NsCH3>
3

>  <NdCH2>
0

>  <NssCH2>
6

>  <NtCH>
0

>  <NdsCH>
0

>  <NaaCH>
7

>  <NsssCH>
2

>  <NddC>
0

>  <NtsC>
0

>  <NdssC>
0

>  <NaasC>
5

>  <NaaaC>
0

>  <NssssC>
2

>  <NsNH3>
0

>  <NsNH2>
0

>  <NssNH2>
0

>  <NdNH>
0

>  <NssNH>
0

>  <NaaNH>
0

>  <NtN>
0

>  <NsssNH>
0

>  <NdsN>
0

>  <NaaN>
0

>  <NsssN>
1

>  <NddsN>
0

>  <NaasN>
0

>  <NssssN>
0

>  <NsOH>
1

>  <NdO>
0

>  <NssO>
0

>  <NaaO>
0

>  <NsF>
0

>  <NsSiH3>
0

>  <NssSiH2>
0

>  <NsssSiH>
0

>  <NssssSi>
0

>  <NsPH2>
0

>  <NssPH>
0

>  <NsssP>
0

>  <NdsssP>
0

>  <NsssssP>
0

>  <NsSH>
0

>  <NdS>
0

>  <NssS>
0

>  <NaaS>
0

>  <NdssS>
0

>  <NddssS>
0

>  <NsCl>
0

>  <NsBr>
0

>  <NsI>
0

>  <fragCpx>
259.02

>  <fMF>
0.38

>  <nHBAcc>
2

>  <nHBDon>
1

>  <Kier1>
18.99

>  <Kier2>
6.77

>  <Lipinski>
1

>  <GhoseFilter>
1

>  <FilterItLogS>
-5.8

>  <VMcGowan>
298.86

>  <LabuteASA>
162.77

>  <PEOE_VSA1>
5.11

>  <PEOE_VSA2>
4.9

>  <PEOE_VSA3>
0

>  <PEOE_VSA4>
0

>  <PEOE_VSA5>
0

>  <PEOE_VSA6>
63.24

>  <PEOE_VSA7>
58.92

>  <PEOE_VSA8>
25.05

>  <PEOE_VSA9>
5.6

>  <PEOE_VSA10>
0

>  <PEOE_VSA11>
0

>  <PEOE_VSA12>
0

>  <PEOE_VSA13>
0

>  <SMR_VSA1>
5.11

>  <SMR_VSA2>
0

>  <SMR_VSA3>
4.9

>  <SMR_VSA4>
5.41

>  <SMR_VSA5>
64.02

>  <SMR_VSA6>
13.09

>  <SMR_VSA7>
70.28

>  <SMR_VSA8>
0

>  <SMR_VSA9>
0

>  <SlogP_VSA1>
0

>  <SlogP_VSA2>
28.7

>  <SlogP_VSA3>
12.84

>  <SlogP_VSA4>
5.41

>  <SlogP_VSA5>
73.39

>  <SlogP_VSA6>
42.46

>  <SlogP_VSA7>
0

>  <SlogP_VSA8>
0

>  <SlogP_VSA9>
0

>  <SlogP_VSA10>
0

>  <SlogP_VSA11>
0

>  <EState_VSA1>
5.6

>  <EState_VSA2>
5.41

>  <EState_VSA3>
11.96

>  <EState_VSA4>
38.77

>  <EState_VSA5>
22.25

>  <EState_VSA6>
5.56

>  <EState_VSA7>
0

>  <EState_VSA8>
68.14

>  <EState_VSA9>
0

>  <EState_VSA10>
5.11

>  <VSA_EState1>
0

>  <VSA_EState2>
2.65

>  <VSA_EState3>
11.47

>  <VSA_EState4>
6.94

>  <VSA_EState5>
0.48

>  <VSA_EState6>
16.33

>  <VSA_EState7>
3.99

>  <VSA_EState8>
8.65

>  <VSA_EState9>
0

>  <apol>
64.32

>  <bpol>
32.81

>  <nRing>
5

>  <nHRing>
2

>  <naRing>
2

>  <naHRing>
0

>  <nARing 2>
3

>  <nAHRing 2>
2

>  <nFRing>
1

>  <nFHRing>
1

>  <nFaRing>
0

>  <nFaHRing>
0

>  <nFARing 2>
1

>  <nFAHRing 2>
1

>  <nRot>
0

>  <SLogP>
4.84

>  <SMR>
110.09

>  <TopoPSA(NO)>
23.47

>  <TopoPSA>
23.47

>  <JGI1>
0.21

>  <JGI2>
0.1

>  <JGI3>
0.04

>  <JGI4>
0.05

>  <JGI5>
0.03

>  <Diameter>
11

>  <Radius>
6

>  <TMWC10>
137.33

>  <TSRW10>
71.52

>  <MW>
361.24

>  <AMW>
6.23

>  <WPath>
1588

>  <WPol>
58

>  <Zagreb1>
160

>  <Zagreb2>
199

>  <mZagreb2>
5.51

>  <yes>


>  <nAR-cont>
0.691115

>  <nHA-cont>
0.860070871

>  <MWHBN>
0.157842277

>  <MWHBN-cont>
0.95123812

>  <TPSA-cont>
0.836164826

>  <pka_cont>
0.97

>  <yes.1>


>  <BBB_SCORE>
5.135372702

>  <MMFF94 Energy>
130.39

$$$$
Compound 907
Actelion Java MolfileCreator 2.0

  0  0  0  0  0  0              0 V3000
M  V30 BEGIN CTAB
M  V30 COUNTS 29 29 0 0 0
M  V30 BEGIN ATOM
M  V30 1 Cl 4.7802 -2.2286 -0.6363 0
M  V30 2 C 3.1596 -1.6572 -0.559 0
M  V30 3 C 2.8015 -0.4955 -1.2351 0
M  V30 4 C 2.212 -2.3561 0.1796 0
M  V30 5 C 1.4841 -0.0285 -1.1717 0
M  V30 6 C 0.8964 -1.8869 0.2415 0
M  V30 7 C 0.5032 -0.714 -0.4317 0
M  V30 8 C -0.9397 -0.2048 -0.3417 0 CFG=1
M  V30 9 O -1.7909 -1.3077 0.0558 0
M  V30 10 C -1.1502 0.9278 0.7404 0
M  V30 11 C -1.482 0.1963 -1.7286 0
M  V30 12 O -2.5807 1.1431 0.8437 0
M  V30 13 C -0.5121 2.2742 0.3815 0
M  V30 14 C -0.6843 0.4978 2.1418 0
M  V30 15 H 3.5396 0.052 -1.815 0
M  V30 16 H 2.4829 -3.2661 0.7076 0
M  V30 17 H 1.2411 0.8831 -1.7123 0
M  V30 18 H 0.1699 -2.4534 0.8228 0
M  V30 19 H -2.6293 -0.8786 0.3231 0
M  V30 20 H -2.5492 0.442 -1.6811 0
M  V30 21 H -1.3958 -0.6411 -2.4322 0
M  V30 22 H -0.9599 1.0517 -2.1655 0
M  V30 23 H -2.7283 1.8354 1.5131 0
M  V30 24 H -0.9021 2.6655 -0.5631 0
M  V30 25 H 0.5773 2.2123 0.3189 0
M  V30 26 H -0.7581 3.0303 1.1371 0
M  V30 27 H -1.1682 -0.4341 2.4538 0
M  V30 28 H -0.9642 1.2479 2.8912 0
M  V30 29 H 0.4005 0.3654 2.1916 0
M  V30 END ATOM
M  V30 BEGIN BOND
M  V30 1 1 1 2
M  V30 2 2 2 3
M  V30 3 1 2 4
M  V30 4 1 3 5
M  V30 5 2 4 6
M  V30 6 2 5 7
M  V30 7 1 7 8
M  V30 8 1 8 9
M  V30 9 1 8 10
M  V30 10 1 8 11
M  V30 11 1 10 12
M  V30 12 1 10 13
M  V30 13 1 10 14
M  V30 14 1 6 7
M  V30 15 1 3 15
M  V30 16 1 4 16
M  V30 17 1 5 17
M  V30 18 1 6 18
M  V30 19 1 9 19
M  V30 20 1 11 20
M  V30 21 1 11 21
M  V30 22 1 11 22
M  V30 23 1 12 23
M  V30 24 1 13 24
M  V30 25 1 13 25
M  V30 26 1 13 26
M  V30 27 1 14 27
M  V30 28 1 14 28
M  V30 29 1 14 29
M  V30 END BOND
M  V30 BEGIN COLLECTION
M  V30 MDLV30/STERAC1 ATOMS=(1 8)
M  V30 END COLLECTION
M  V30 END CTAB
M  END
>  <Column 1>
1087

>  <level_0>
1225

>  <index>
1225

>  <Unnamed: 0>
1225

>  <NO.>
1237

>  <Name>
phenaglycodol

>  <IUPAC_name>
2-(4-chlorophenyl)-3-methylbutane-2-3-diol

>  <SMILES>
CC(C)(O)C(C)(O)c1ccc(Cl)cc1

>  <CID>
6617

>  <logBB>


>  <BBB+/BBB->
BBB+

>  <Inchi>
InChI=1S/C11H15ClO2/c1-10(2-13)11(3-14)8-4-6-9(12)7-5-8/h4-7-13-14H-1-3H3

>  <threshold>
-1

>  <reference>
R1|R13|R19|R6|R27|R27|R30|

>  <group>
B

>  <Class>
1

>  <ABC>
10.65

>  <ABCGG>
10.09

>  <nAcid>
0

>  <nBase>
0

>  <nAromAtom>
6

>  <nAromBond>
6

>  <nAtom>
29

>  <nHeavyAtom>
14

>  <nSpiro>
0

>  <nBridgehead>
0

>  <nHetero>
3

>  <nN>
0

>  <nO>
2

>  <nF>
0

>  <BalabanJ>
2.65

>  <BertzCT>
309.05

>  <nBonds>
29

>  <nBondsO>
14

>  <nBondsS>
23

>  <nBondsD>
0

>  <nBondsT>
0

>  <nBondsA>
6

>  <nBondsM>
6

>  <nBondsKS>
26

>  <nBondsKD>
3

>  <RNCG>
0.33

>  <RPCG>
0.18

>  <FCSP3>
0.45

>  <SZ>
19

>  <Sm>
17.87

>  <Sv>
17.58

>  <Sse>
29.09

>  <Sp>
19.26

>  <Si>
32.69

>  <MZ>
0.66

>  <Mm>
0.62

>  <Mv>
0.61

>  <Mse>
1

>  <Mp>
0.66

>  <Mi>
1.13

>  <NsCH3>
3

>  <NdCH2>
0

>  <NssCH2>
0

>  <NtCH>
0

>  <NdsCH>
0

>  <NaaCH>
4

>  <NsssCH>
0

>  <NddC>
0

>  <NtsC>
0

>  <NdssC>
0

>  <NaasC>
2

>  <NaaaC>
0

>  <NssssC>
2

>  <NsNH3>
0

>  <NsNH2>
0

>  <NssNH2>
0

>  <NdNH>
0

>  <NssNH>
0

>  <NaaNH>
0

>  <NtN>
0

>  <NsssNH>
0

>  <NdsN>
0

>  <NaaN>
0

>  <NsssN>
0

>  <NddsN>
0

>  <NaasN>
0

>  <NssssN>
0

>  <NsOH>
2

>  <NdO>
0

>  <NssO>
0

>  <NaaO>
0

>  <NsF>
0

>  <NsSiH3>
0

>  <NssSiH2>
0

>  <NsssSiH>
0

>  <NssssSi>
0

>  <NsPH2>
0

>  <NssPH>
0

>  <NsssP>
0

>  <NdsssP>
0

>  <NsssssP>
0

>  <NsSH>
0

>  <NdS>
0

>  <NssS>
0

>  <NaaS>
0

>  <NdssS>
0

>  <NddssS>
0

>  <NsCl>
1

>  <NsBr>
0

>  <NsI>
0

>  <fragCpx>
14.03

>  <fMF>
0.21

>  <nHBAcc>
2

>  <nHBDon>
2

>  <Kier1>
12.07

>  <Kier2>
3.87

>  <Lipinski>
1

>  <GhoseFilter>
1

>  <FilterItLogS>
-2.52

>  <VMcGowan>
166.07

>  <LabuteASA>
89.15

>  <PEOE_VSA1>
10.21

>  <PEOE_VSA2>
0

>  <PEOE_VSA3>
0

>  <PEOE_VSA4>
0

>  <PEOE_VSA5>
0

>  <PEOE_VSA6>
23.73

>  <PEOE_VSA7>
38.47

>  <PEOE_VSA8>
5.02

>  <PEOE_VSA9>
5.6

>  <PEOE_VSA10>
5.6

>  <PEOE_VSA11>
0

>  <PEOE_VSA12>
0

>  <PEOE_VSA13>
0

>  <SMR_VSA1>
10.21

>  <SMR_VSA2>
0

>  <SMR_VSA3>
0

>  <SMR_VSA4>
0

>  <SMR_VSA5>
31.97

>  <SMR_VSA6>
0

>  <SMR_VSA7>
34.85

>  <SMR_VSA8>
0

>  <SMR_VSA9>
0

>  <SlogP_VSA1>
0

>  <SlogP_VSA2>
15.81

>  <SlogP_VSA3>
5.6

>  <SlogP_VSA4>
0

>  <SlogP_VSA5>
26.33

>  <SlogP_VSA6>
24.27

>  <SlogP_VSA7>
5.02

>  <SlogP_VSA8>
0

>  <SlogP_VSA9>
0

>  <SlogP_VSA10>
0

>  <SlogP_VSA11>
0

>  <EState_VSA1>
11.2

>  <EState_VSA2>
0

>  <EState_VSA3>
10.59

>  <EState_VSA4>
0

>  <EState_VSA5>
0

>  <EState_VSA6>
45.04

>  <EState_VSA7>
0

>  <EState_VSA8>
0

>  <EState_VSA9>
11.6

>  <EState_VSA10>
10.21

>  <VSA_EState1>
0

>  <VSA_EState2>
0

>  <VSA_EState3>
20.52

>  <VSA_EState4>
-1.83

>  <VSA_EState5>
0

>  <VSA_EState6>
6.8

>  <VSA_EState7>
0

>  <VSA_EState8>
4.72

>  <VSA_EState9>
0

>  <apol>
32.16

>  <bpol>
15.56

>  <nRing>
1

>  <nHRing>
0

>  <naRing>
1

>  <naHRing>
0

>  <nARing 2>
0

>  <nAHRing 2>
0

>  <nFRing>
0

>  <nFHRing>
0

>  <nFaRing>
0

>  <nFaHRing>
0

>  <nFARing 2>
0

>  <nFAHRing 2>
0

>  <nRot>
2

>  <SLogP>
2.32

>  <SMR>
57.32

>  <TopoPSA(NO)>
40.46

>  <TopoPSA>
40.46

>  <JGI1>
0.39

>  <JGI2>
0.15

>  <JGI3>
0.06

>  <JGI4>
0.05

>  <JGI5>
0.04

>  <Diameter>
7

>  <Radius>
4

>  <TMWC10>
98

>  <TSRW10>
46.25

>  <MW>
214.08

>  <AMW>
7.38

>  <WPath>
287

>  <WPol>
22

>  <Zagreb1>
72

>  <Zagreb2>
83

>  <mZagreb2>
2.9

>  <yes>


>  <nAR-cont>
0.336376

>  <nHA-cont>
0.887625254

>  <MWHBN>
0.273383276

>  <MWHBN-cont>
0.912275384

>  <TPSA-cont>
0.717564076

>  <pka_cont>
0.97

>  <yes.1>


>  <BBB_SCORE>
4.512542482

>  <MMFF94 Energy>
65.802

$$$$
Compound 908
Actelion Java MolfileCreator 2.0

  0  0  0  0  0  0              0 V3000
M  V30 BEGIN CTAB
M  V30 COUNTS 29 29 0 0 0
M  V30 BEGIN ATOM
M  V30 1 Cl 1.6714 -2.9464 -2.9464 0
M  V30 2 C 0.6561 -2.5755 -1.6062 0
M  V30 3 C 0.4347 -1.2415 -1.2527 0
M  V30 4 C 0.0602 -3.6074 -0.8892 0
M  V30 5 C -0.3758 -0.907 -0.1532 0
M  V30 6 C -0.7753 -3.3025 0.1806 0
M  V30 7 C -0.9973 -1.9688 0.537 0
M  V30 8 C -0.6534 0.5584 0.2397 0 CFG=1
M  V30 9 O -1.1288 0.5808 1.6033 0
M  V30 10 C 0.588 1.5534 0.1602 0
M  V30 11 C -1.826 1.0455 -0.6304 0
M  V30 12 O 0.9875 1.7782 -1.201 0
M  V30 13 C 1.809 1.0192 0.9312 0
M  V30 14 C 0.242 2.9405 0.7414 0
M  V30 15 H 0.8964 -0.4655 -1.8569 0
M  V30 16 H 0.2295 -4.6436 -1.1673 0
M  V30 17 H -1.266 -4.1005 0.7325 0
M  V30 18 H -1.6868 -1.7668 1.356 0
M  V30 19 H -0.5013 0.0597 2.1327 0
M  V30 20 H -1.5557 1.1047 -1.69 0
M  V30 21 H -2.1897 2.0259 -0.3066 0
M  V30 22 H -2.6872 0.3711 -0.5424 0
M  V30 23 H 1.7238 2.4147 -1.199 0
M  V30 24 H 2.1867 0.0875 0.4997 0
M  V30 25 H 2.6438 1.7282 0.8735 0
M  V30 26 H 1.5843 0.8492 1.9886 0
M  V30 27 H -0.5371 3.4375 0.1549 0
M  V30 28 H 1.1119 3.6073 0.697 0
M  V30 29 H -0.0819 2.8841 1.7852 0
M  V30 END ATOM
M  V30 BEGIN BOND
M  V30 1 1 1 2
M  V30 2 2 2 3
M  V30 3 1 2 4
M  V30 4 1 3 5
M  V30 5 2 4 6
M  V30 6 2 5 7
M  V30 7 1 5 8
M  V30 8 1 8 9
M  V30 9 1 8 10
M  V30 10 1 8 11
M  V30 11 1 10 12
M  V30 12 1 10 13
M  V30 13 1 10 14
M  V30 14 1 6 7
M  V30 15 1 3 15
M  V30 16 1 4 16
M  V30 17 1 6 17
M  V30 18 1 7 18
M  V30 19 1 9 19
M  V30 20 1 11 20
M  V30 21 1 11 21
M  V30 22 1 11 22
M  V30 23 1 12 23
M  V30 24 1 13 24
M  V30 25 1 13 25
M  V30 26 1 13 26
M  V30 27 1 14 27
M  V30 28 1 14 28
M  V30 29 1 14 29
M  V30 END BOND
M  V30 BEGIN COLLECTION
M  V30 MDLV30/STERAC1 ATOMS=(1 8)
M  V30 END COLLECTION
M  V30 END CTAB
M  END
>  <Column 1>
1088

>  <level_0>
1226

>  <index>
1226

>  <Unnamed: 0>
1226

>  <NO.>
1238

>  <Name>
metaglycodol

>  <IUPAC_name>
2-(3-chlorophenyl)-3-methylbutane-2-3-diol

>  <SMILES>
CC(C)(O)C(C)(O)c1cccc(Cl)c1

>  <CID>
26369

>  <logBB>


>  <BBB+/BBB->
BBB+

>  <Inchi>
InChI=1S/C11H15ClO2/c1-10(2-13)11(3-14)8-5-4-6-9(12)7-8/h4-7-13-14H-1-3H3

>  <threshold>
-1

>  <reference>
R1|R13|R19|R6|R27|R27|R30|

>  <group>
B

>  <Class>
1

>  <ABC>
10.65

>  <ABCGG>
10.2

>  <nAcid>
0

>  <nBase>
0

>  <nAromAtom>
6

>  <nAromBond>
6

>  <nAtom>
29

>  <nHeavyAtom>
14

>  <nSpiro>
0

>  <nBridgehead>
0

>  <nHetero>
3

>  <nN>
0

>  <nO>
2

>  <nF>
0

>  <BalabanJ>
2.71

>  <BertzCT>
326.3

>  <nBonds>
29

>  <nBondsO>
14

>  <nBondsS>
23

>  <nBondsD>
0

>  <nBondsT>
0

>  <nBondsA>
6

>  <nBondsM>
6

>  <nBondsKS>
26

>  <nBondsKD>
3

>  <RNCG>
0.33

>  <RPCG>
0.18

>  <FCSP3>
0.45

>  <SZ>
19

>  <Sm>
17.87

>  <Sv>
17.58

>  <Sse>
29.09

>  <Sp>
19.26

>  <Si>
32.69

>  <MZ>
0.66

>  <Mm>
0.62

>  <Mv>
0.61

>  <Mse>
1

>  <Mp>
0.66

>  <Mi>
1.13

>  <NsCH3>
3

>  <NdCH2>
0

>  <NssCH2>
0

>  <NtCH>
0

>  <NdsCH>
0

>  <NaaCH>
4

>  <NsssCH>
0

>  <NddC>
0

>  <NtsC>
0

>  <NdssC>
0

>  <NaasC>
2

>  <NaaaC>
0

>  <NssssC>
2

>  <NsNH3>
0

>  <NsNH2>
0

>  <NssNH2>
0

>  <NdNH>
0

>  <NssNH>
0

>  <NaaNH>
0

>  <NtN>
0

>  <NsssNH>
0

>  <NdsN>
0

>  <NaaN>
0

>  <NsssN>
0

>  <NddsN>
0

>  <NaasN>
0

>  <NssssN>
0

>  <NsOH>
2

>  <NdO>
0

>  <NssO>
0

>  <NaaO>
0

>  <NsF>
0

>  <NsSiH3>
0

>  <NssSiH2>
0

>  <NsssSiH>
0

>  <NssssSi>
0

>  <NsPH2>
0

>  <NssPH>
0

>  <NsssP>
0

>  <NdsssP>
0

>  <NsssssP>
0

>  <NsSH>
0

>  <NdS>
0

>  <NssS>
0

>  <NaaS>
0

>  <NdssS>
0

>  <NddssS>
0

>  <NsCl>
1

>  <NsBr>
0

>  <NsI>
0

>  <fragCpx>
14.03

>  <fMF>
0.21

>  <nHBAcc>
2

>  <nHBDon>
2

>  <Kier1>
12.07

>  <Kier2>
3.87

>  <Lipinski>
1

>  <GhoseFilter>
1

>  <FilterItLogS>
-2.52

>  <VMcGowan>
166.07

>  <LabuteASA>
89.15

>  <PEOE_VSA1>
10.21

>  <PEOE_VSA2>
0

>  <PEOE_VSA3>
0

>  <PEOE_VSA4>
0

>  <PEOE_VSA5>
0

>  <PEOE_VSA6>
23.73

>  <PEOE_VSA7>
38.47

>  <PEOE_VSA8>
5.02

>  <PEOE_VSA9>
5.6

>  <PEOE_VSA10>
5.6

>  <PEOE_VSA11>
0

>  <PEOE_VSA12>
0

>  <PEOE_VSA13>
0

>  <SMR_VSA1>
10.21

>  <SMR_VSA2>
0

>  <SMR_VSA3>
0

>  <SMR_VSA4>
0

>  <SMR_VSA5>
31.97

>  <SMR_VSA6>
0

>  <SMR_VSA7>
34.85

>  <SMR_VSA8>
0

>  <SMR_VSA9>
0

>  <SlogP_VSA1>
0

>  <SlogP_VSA2>
15.81

>  <SlogP_VSA3>
5.6

>  <SlogP_VSA4>
0

>  <SlogP_VSA5>
26.33

>  <SlogP_VSA6>
24.27

>  <SlogP_VSA7>
5.02

>  <SlogP_VSA8>
0

>  <SlogP_VSA9>
0

>  <SlogP_VSA10>
0

>  <SlogP_VSA11>
0

>  <EState_VSA1>
11.2

>  <EState_VSA2>
0

>  <EState_VSA3>
10.59

>  <EState_VSA4>
0

>  <EState_VSA5>
0

>  <EState_VSA6>
45.04

>  <EState_VSA7>
0

>  <EState_VSA8>
0

>  <EState_VSA9>
11.6

>  <EState_VSA10>
10.21

>  <VSA_EState1>
0

>  <VSA_EState2>
0

>  <VSA_EState3>
20.48

>  <VSA_EState4>
-1.91

>  <VSA_EState5>
0

>  <VSA_EState6>
6.87

>  <VSA_EState7>
0

>  <VSA_EState8>
4.69

>  <VSA_EState9>
0

>  <apol>
32.16

>  <bpol>
15.56

>  <nRing>
1

>  <nHRing>
0

>  <naRing>
1

>  <naHRing>
0

>  <nARing 2>
0

>  <nAHRing 2>
0

>  <nFRing>
0

>  <nFHRing>
0

>  <nFaRing>
0

>  <nFaHRing>
0

>  <nFARing 2>
0

>  <nFAHRing 2>
0

>  <nRot>
2

>  <SLogP>
2.32

>  <SMR>
57.32

>  <TopoPSA(NO)>
40.46

>  <TopoPSA>
40.46

>  <JGI1>
0.39

>  <JGI2>
0.14

>  <JGI3>
0.06

>  <JGI4>
0.06

>  <JGI5>
0.04

>  <Diameter>
6

>  <Radius>
3

>  <TMWC10>
98.08

>  <TSRW10>
46.26

>  <MW>
214.08

>  <AMW>
7.38

>  <WPath>
280

>  <WPol>
22

>  <Zagreb1>
72

>  <Zagreb2>
83

>  <mZagreb2>
2.9

>  <yes>


>  <nAR-cont>
0.336376

>  <nHA-cont>
0.887625254

>  <MWHBN>
0.273383276

>  <MWHBN-cont>
0.912275384

>  <TPSA-cont>
0.717564076

>  <pka_cont>
0.97

>  <yes.1>


>  <BBB_SCORE>
4.512542482

>  <MMFF94 Energy>
69.821

$$$$
Compound 909
Actelion Java MolfileCreator 2.0

  0  0  0  0  0  0              0 V3000
M  V30 BEGIN CTAB
M  V30 COUNTS 32 32 0 0 0
M  V30 BEGIN ATOM
M  V30 1 Cl 3.8099 1.9035 3.1742 0
M  V30 2 C 2.7929 1.3991 1.8822 0
M  V30 3 C 2.9098 0.1119 1.37 0
M  V30 4 C 1.8557 2.2815 1.3528 0
M  V30 5 C 2.0799 -0.2933 0.3215 0
M  V30 6 C 1.0253 1.8744 0.3025 0
M  V30 7 C 1.1187 0.5782 -0.2316 0
M  V30 8 C 0.2328 0.0888 -1.3745 0 CFG=1
M  V30 9 O 1.1262 -0.5 -2.3506 0
M  V30 10 C -0.7351 -1.0529 -0.9696 0
M  V30 11 C -0.4896 1.198 -2.159 0
M  V30 12 C -1.757 -0.8409 0.1741 0
M  V30 13 O -2.326 0.4645 0.1278 0
M  V30 14 C -1.1553 -1.0825 1.5651 0
M  V30 15 C -2.9225 -1.8248 -0.0163 0
M  V30 16 H 3.6414 -0.5807 1.7775 0
M  V30 17 H 1.7657 3.2895 1.7503 0
M  V30 18 H 2.1865 -1.3046 -0.0705 0
M  V30 19 H 0.308 2.5948 -0.0836 0
M  V30 20 H 1.8746 0.1129 -2.459 0
M  V30 21 H -0.1572 -1.9642 -0.7561 0
M  V30 22 H -1.2915 -1.3139 -1.8829 0
M  V30 23 H -1.0305 0.7774 -3.0153 0
M  V30 24 H -1.2026 1.7667 -1.5582 0
M  V30 25 H 0.2315 1.9097 -2.5805 0
M  V30 26 H -1.8381 1.0353 0.7461 0
M  V30 27 H -1.935 -1.0342 2.3351 0
M  V30 28 H -0.4306 -0.313 1.8406 0
M  V30 29 H -0.6714 -2.0622 1.6321 0
M  V30 30 H -3.6799 -1.6915 0.7651 0
M  V30 31 H -2.5809 -2.8649 0.0051 0
M  V30 32 H -3.4348 -1.6452 -0.9687 0
M  V30 END ATOM
M  V30 BEGIN BOND
M  V30 1 1 1 2
M  V30 2 2 2 3
M  V30 3 1 2 4
M  V30 4 1 3 5
M  V30 5 2 4 6
M  V30 6 2 5 7
M  V30 7 1 7 8
M  V30 8 1 8 9
M  V30 9 1 8 10
M  V30 10 1 8 11
M  V30 11 1 10 12
M  V30 12 1 12 13
M  V30 13 1 12 14
M  V30 14 1 12 15
M  V30 15 1 6 7
M  V30 16 1 3 16
M  V30 17 1 4 17
M  V30 18 1 5 18
M  V30 19 1 6 19
M  V30 20 1 9 20
M  V30 21 1 10 21
M  V30 22 1 10 22
M  V30 23 1 11 23
M  V30 24 1 11 24
M  V30 25 1 11 25
M  V30 26 1 13 26
M  V30 27 1 14 27
M  V30 28 1 14 28
M  V30 29 1 14 29
M  V30 30 1 15 30
M  V30 31 1 15 31
M  V30 32 1 15 32
M  V30 END BOND
M  V30 BEGIN COLLECTION
M  V30 MDLV30/STERAC1 ATOMS=(1 8)
M  V30 END COLLECTION
M  V30 END CTAB
M  END
>  <Column 1>
1089

>  <level_0>
1227

>  <index>
1227

>  <Unnamed: 0>
1227

>  <NO.>
1239

>  <Name>
fenpentadiol

>  <IUPAC_name>
2-(4-chlorophenyl)-4-methylpentane-2-4-diol

>  <SMILES>
CC(C)(O)CC(C)(O)c1ccc(Cl)cc1

>  <CID>
85896

>  <logBB>


>  <BBB+/BBB->
BBB+

>  <Inchi>
InChI=1S/C12H17ClO2/c1-11(2-14)8-12(3-15)9-4-6-10(13)7-5-9/h4-7-14-15H-8H2-1-3H3

>  <threshold>
-1

>  <reference>
R1|R13|R19|R6|R27|R27|R30|

>  <group>
B

>  <Class>
-1

>  <ABC>
11.45

>  <ABCGG>
10.58

>  <nAcid>
0

>  <nBase>
0

>  <nAromAtom>
6

>  <nAromBond>
6

>  <nAtom>
32

>  <nHeavyAtom>
15

>  <nSpiro>
0

>  <nBridgehead>
0

>  <nHetero>
3

>  <nN>
0

>  <nO>
2

>  <nF>
0

>  <BalabanJ>
2.54

>  <BertzCT>
322.47

>  <nBonds>
32

>  <nBondsO>
15

>  <nBondsS>
26

>  <nBondsD>
0

>  <nBondsT>
0

>  <nBondsA>
6

>  <nBondsM>
6

>  <nBondsKS>
29

>  <nBondsKD>
3

>  <RNCG>
0.33

>  <RPCG>
0.18

>  <FCSP3>
0.5

>  <SZ>
20.33

>  <Sm>
19.04

>  <Sv>
19.13

>  <Sse>
31.97

>  <Sp>
21.05

>  <Si>
36.1

>  <MZ>
0.64

>  <Mm>
0.6

>  <Mv>
0.6

>  <Mse>
1

>  <Mp>
0.66

>  <Mi>
1.13

>  <NsCH3>
3

>  <NdCH2>
0

>  <NssCH2>
1

>  <NtCH>
0

>  <NdsCH>
0

>  <NaaCH>
4

>  <NsssCH>
0

>  <NddC>
0

>  <NtsC>
0

>  <NdssC>
0

>  <NaasC>
2

>  <NaaaC>
0

>  <NssssC>
2

>  <NsNH3>
0

>  <NsNH2>
0

>  <NssNH2>
0

>  <NdNH>
0

>  <NssNH>
0

>  <NaaNH>
0

>  <NtN>
0

>  <NsssNH>
0

>  <NdsN>
0

>  <NaaN>
0

>  <NsssN>
0

>  <NddsN>
0

>  <NaasN>
0

>  <NssssN>
0

>  <NsOH>
2

>  <NdO>
0

>  <NssO>
0

>  <NaaO>
0

>  <NsF>
0

>  <NsSiH3>
0

>  <NssSiH2>
0

>  <NsssSiH>
0

>  <NssssSi>
0

>  <NsPH2>
0

>  <NssPH>
0

>  <NsssP>
0

>  <NdsssP>
0

>  <NsssssP>
0

>  <NsSH>
0

>  <NdS>
0

>  <NssS>
0

>  <NaaS>
0

>  <NdssS>
0

>  <NddssS>
0

>  <NsCl>
1

>  <NsBr>
0

>  <NsI>
0

>  <fragCpx>
15.03

>  <fMF>
0.19

>  <nHBAcc>
2

>  <nHBDon>
2

>  <Kier1>
13.07

>  <Kier2>
4.47

>  <Lipinski>
1

>  <GhoseFilter>
1

>  <FilterItLogS>
-2.93

>  <VMcGowan>
180.16

>  <LabuteASA>
95.51

>  <PEOE_VSA1>
10.21

>  <PEOE_VSA2>
0

>  <PEOE_VSA3>
0

>  <PEOE_VSA4>
0

>  <PEOE_VSA5>
0

>  <PEOE_VSA6>
23.73

>  <PEOE_VSA7>
38.47

>  <PEOE_VSA8>
11.44

>  <PEOE_VSA9>
11.2

>  <PEOE_VSA10>
0

>  <PEOE_VSA11>
0

>  <PEOE_VSA12>
0

>  <PEOE_VSA13>
0

>  <SMR_VSA1>
10.21

>  <SMR_VSA2>
0

>  <SMR_VSA3>
0

>  <SMR_VSA4>
0

>  <SMR_VSA5>
38.39

>  <SMR_VSA6>
0

>  <SMR_VSA7>
34.85

>  <SMR_VSA8>
0

>  <SMR_VSA9>
0

>  <SlogP_VSA1>
0

>  <SlogP_VSA2>
15.81

>  <SlogP_VSA3>
5.6

>  <SlogP_VSA4>
0

>  <SlogP_VSA5>
32.76

>  <SlogP_VSA6>
24.27

>  <SlogP_VSA7>
5.02

>  <SlogP_VSA8>
0

>  <SlogP_VSA9>
0

>  <SlogP_VSA10>
0

>  <SlogP_VSA11>
0

>  <EState_VSA1>
11.2

>  <EState_VSA2>
6.42

>  <EState_VSA3>
5.02

>  <EState_VSA4>
5.56

>  <EState_VSA5>
0

>  <EState_VSA6>
45.04

>  <EState_VSA7>
0

>  <EState_VSA8>
0

>  <EState_VSA9>
11.6

>  <EState_VSA10>
10.21

>  <VSA_EState1>
0

>  <VSA_EState2>
0

>  <VSA_EState3>
20.53

>  <VSA_EState4>
-1.18

>  <VSA_EState5>
0

>  <VSA_EState6>
7.01

>  <VSA_EState7>
0.28

>  <VSA_EState8>
5.04

>  <VSA_EState9>
0

>  <apol>
35.16

>  <bpol>
17.56

>  <nRing>
1

>  <nHRing>
0

>  <naRing>
1

>  <naHRing>
0

>  <nARing 2>
0

>  <nAHRing 2>
0

>  <nFRing>
0

>  <nFHRing>
0

>  <nFaRing>
0

>  <nFaHRing>
0

>  <nFARing 2>
0

>  <nFAHRing 2>
0

>  <nRot>
3

>  <SLogP>
2.71

>  <SMR>
61.94

>  <TopoPSA(NO)>
40.46

>  <TopoPSA>
40.46

>  <JGI1>
0.43

>  <JGI2>
0.1

>  <JGI3>
0.09

>  <JGI4>
0.04

>  <JGI5>
0.05

>  <Diameter>
8

>  <Radius>
4

>  <TMWC10>
99.58

>  <TSRW10>
47.14

>  <MW>
228.09

>  <AMW>
7.13

>  <WPath>
366

>  <WPol>
19

>  <Zagreb1>
76

>  <Zagreb2>
83

>  <mZagreb2>
3.08

>  <yes>


>  <nAR-cont>
0.336376

>  <nHA-cont>
0.92539861

>  <MWHBN>
0.264854203

>  <MWHBN-cont>
0.931429137

>  <TPSA-cont>
0.717564076

>  <pka_cont>
0.97

>  <yes.1>


>  <BBB_SCORE>
4.579046467

>  <MMFF94 Energy>
45.712

$$$$
Compound 910
Actelion Java MolfileCreator 2.0

  0  0  0  0  0  0              0 V3000
M  V30 BEGIN CTAB
M  V30 COUNTS 65 68 0 0 0
M  V30 BEGIN ATOM
M  V30 1 Cl 3.9895 -8.5636 -2.3597 0
M  V30 2 C 3.7133 -6.9467 -1.8408 0
M  V30 3 C 4.5999 -5.9381 -2.2159 0
M  V30 4 C 2.5958 -6.6514 -1.0603 0
M  V30 5 C 4.3734 -4.6262 -1.7952 0
M  V30 6 C 2.3709 -5.3387 -0.6402 0
M  V30 7 C 3.2798 -4.3378 -0.9791 0
M  V30 8 O 3.0333 -3.0428 -0.6275 0
M  V30 9 C 3.5536 -2.6097 0.6531 0
M  V30 10 C 3.1899 -1.1034 0.7221 0
M  V30 11 C 2.8486 -3.2926 1.8334 0
M  V30 12 C 5.0767 -2.7556 0.7668 0
M  V30 13 O 3.9509 -0.2386 1.1519 0
M  V30 14 N 1.9093 -0.812 0.3116 0
M  V30 15 C 1.3441 0.5217 0.3842 0 CFG=2
M  V30 16 C 0.7186 0.7584 1.7473 0
M  V30 17 C 0.3284 0.7013 -0.7683 0
M  V30 18 C -0.5099 0.1794 2.1033 0
M  V30 19 C 1.3942 1.5392 2.6988 0
M  V30 20 O -0.1319 -0.2433 -1.4117 0
M  V30 21 N -0.0383 2.0061 -1.0256 0
M  V30 22 C -1.0648 0.4078 3.3637 0
M  V30 23 C 0.8392 1.7626 3.9599 0
M  V30 24 C -0.9848 2.3378 -2.1225 0 CFG=2
M  V30 25 C -0.3923 1.2018 4.2899 0
M  V30 26 C -1.4435 3.8184 -2.1888 0
M  V30 27 C -2.4906 2.0332 -1.9061 0 CFG=2
M  V30 28 O -0.9152 4.9046 -2.1505 0
M  V30 29 N -2.7494 3.4581 -2.1119 0
M  V30 30 S -3.1187 1.774 -0.1987 0
M  V30 31 C -3.7357 4.1458 -1.2956 0 CFG=2
M  V30 32 C -4.4342 3.076 -0.4328 0
M  V30 33 C -4.6804 4.9607 -2.1656 0
M  V30 34 C -5.6427 2.4066 -1.1007 0
M  V30 35 C -4.8278 3.623 0.9408 0
M  V30 36 O -5.0096 4.7287 -3.3179 0
M  V30 37 O -5.2192 6.0085 -1.5069 0
M  V30 38 H 5.4593 -6.1634 -2.8413 0
M  V30 39 H 1.8927 -7.4334 -0.7867 0
M  V30 40 H 5.0475 -3.8334 -2.1076 0
M  V30 41 H 1.4835 -5.104 -0.0598 0
M  V30 42 H 3.0873 -2.7954 2.7805 0
M  V30 43 H 1.7597 -3.2777 1.711 0
M  V30 44 H 3.1482 -4.3417 1.9262 0
M  V30 45 H 5.3826 -3.807 0.7739 0
M  V30 46 H 5.4579 -2.2997 1.6874 0
M  V30 47 H 5.5789 -2.2756 -0.0806 0
M  V30 48 H 1.3705 -1.5296 -0.1652 0
M  V30 49 H 2.1478 1.2493 0.2111 0
M  V30 50 H -1.0499 -0.4528 1.4005 0
M  V30 51 H 2.3697 1.9651 2.4681 0
M  V30 52 H 0.3177 2.7437 -0.4246 0
M  V30 53 H -2.0222 -0.0374 3.6223 0
M  V30 54 H 1.3737 2.3676 4.688 0
M  V30 55 H -0.5974 1.9913 -3.0889 0
M  V30 56 H -0.8233 1.375 5.2724 0
M  V30 57 H -2.9548 1.4031 -2.6705 0
M  V30 58 H -3.1814 4.8563 -0.6664 0
M  V30 59 H -5.4058 2.0205 -2.0983 0
M  V30 60 H -6.0223 1.5718 -0.4996 0
M  V30 61 H -6.4707 3.116 -1.2133 0
M  V30 62 H -5.2507 2.8404 1.5816 0
M  V30 63 H -5.5861 4.4079 0.8429 0
M  V30 64 H -3.9715 4.0609 1.4669 0
M  V30 65 H -5.7804 6.4513 -2.1798 0
M  V30 END ATOM
M  V30 BEGIN BOND
M  V30 1 1 1 2
M  V30 2 2 2 3
M  V30 3 1 2 4
M  V30 4 1 3 5
M  V30 5 2 4 6
M  V30 6 2 5 7
M  V30 7 1 7 8
M  V30 8 1 8 9
M  V30 9 1 9 10
M  V30 10 1 9 11
M  V30 11 1 9 12
M  V30 12 2 10 13
M  V30 13 1 10 14
M  V30 14 1 14 15
M  V30 15 1 15 16
M  V30 16 1 15 17
M  V30 17 2 16 18
M  V30 18 1 16 19
M  V30 19 2 17 20
M  V30 20 1 17 21
M  V30 21 1 18 22
M  V30 22 2 19 23
M  V30 23 1 21 24
M  V30 24 2 22 25
M  V30 25 1 24 26
M  V30 26 1 24 27
M  V30 27 2 26 28
M  V30 28 1 26 29
M  V30 29 1 27 30
M  V30 30 1 29 31
M  V30 31 1 30 32
M  V30 32 1 31 33
M  V30 33 1 32 34
M  V30 34 1 32 35
M  V30 35 2 33 36
M  V30 36 1 33 37
M  V30 37 1 6 7
M  V30 38 1 23 25
M  V30 39 1 27 29
M  V30 40 1 31 32
M  V30 41 1 3 38
M  V30 42 1 4 39
M  V30 43 1 5 40
M  V30 44 1 6 41
M  V30 45 1 11 42
M  V30 46 1 11 43
M  V30 47 1 11 44
M  V30 48 1 12 45
M  V30 49 1 12 46
M  V30 50 1 12 47
M  V30 51 1 14 48
M  V30 52 1 15 49
M  V30 53 1 18 50
M  V30 54 1 19 51
M  V30 55 1 21 52
M  V30 56 1 22 53
M  V30 57 1 23 54
M  V30 58 1 24 55
M  V30 59 1 25 56
M  V30 60 1 27 57
M  V30 61 1 31 58
M  V30 62 1 34 59
M  V30 63 1 34 60
M  V30 64 1 34 61
M  V30 65 1 35 62
M  V30 66 1 35 63
M  V30 67 1 35 64
M  V30 68 1 37 65
M  V30 END BOND
M  V30 BEGIN COLLECTION
M  V30 MDLV30/STEABS ATOMS=(4 15 24 27 31)
M  V30 END COLLECTION
M  V30 END CTAB
M  END
>  <Column 1>
1090

>  <level_0>
1228

>  <index>
1228

>  <Unnamed: 0>
1228

>  <NO.>
1240

>  <Name>
fibracillin

>  <IUPAC_name>
(2s-5r-6r)-6-[[(2r)-2-[[2-(4-chlorophenoxy)-2-methylpropanoyl]amino]-2-phenylacetyl]amino]-3-3-dimethyl-7-oxo-4-thia-1-azabicyclo[3.2.0]heptane-2-carboxylic acid

>  <SMILES>
CC(C)(Oc1ccc(Cl)cc1)C(=O)N[C@@H](C(=O)N[C@@H]1C(=O)N2[C@@H](C(=O)O)C(C)(C)S[C@H]12)c1ccccc1

>  <CID>
68683

>  <logBB>


>  <BBB+/BBB->
BBB-

>  <Inchi>
InChI=1S/C26H28ClN3O6S/c1-25(2-36-16-12-10-15(27)11-13-16)24(35)29-17(14-8-6-5-7-9-14)20(31)28-18-21(32)30-19(23(33)34)26(3-4)37-22(18)30/h5-13-17-19-22H-1-4H3-(H-28-31)(H-29-35)(H-33-34)/t17--18--19+-22-/m1/s1

>  <threshold>
-1

>  <reference>
R1|R27|R30|

>  <group>
B

>  <Class>
-1

>  <ABC>
29.13

>  <ABCGG>
23.73

>  <nAcid>
1

>  <nBase>
0

>  <nAromAtom>
12

>  <nAromBond>
12

>  <nAtom>
65

>  <nHeavyAtom>
37

>  <nSpiro>
0

>  <nBridgehead>
0

>  <nHetero>
11

>  <nN>
3

>  <nO>
6

>  <nF>
0

>  <BalabanJ>
1.42

>  <BertzCT>
1220.58

>  <nBonds>
68

>  <nBondsO>
40

>  <nBondsS>
52

>  <nBondsD>
4

>  <nBondsT>
0

>  <nBondsA>
12

>  <nBondsM>
16

>  <nBondsKS>
58

>  <nBondsKD>
10

>  <RNCG>
0.13

>  <RPCG>
0.09

>  <FCSP3>
0.38

>  <SZ>
47.67

>  <Sm>
45.46

>  <Sv>
42.43

>  <Sse>
66.25

>  <Sp>
45.08

>  <Si>
73.01

>  <MZ>
0.73

>  <Mm>
0.7

>  <Mv>
0.65

>  <Mse>
1.02

>  <Mp>
0.69

>  <Mi>
1.12

>  <NsCH3>
4

>  <NdCH2>
0

>  <NssCH2>
0

>  <NtCH>
0

>  <NdsCH>
0

>  <NaaCH>
9

>  <NsssCH>
4

>  <NddC>
0

>  <NtsC>
0

>  <NdssC>
4

>  <NaasC>
3

>  <NaaaC>
0

>  <NssssC>
2

>  <NsNH3>
0

>  <NsNH2>
0

>  <NssNH2>
0

>  <NdNH>
0

>  <NssNH>
2

>  <NaaNH>
0

>  <NtN>
0

>  <NsssNH>
0

>  <NdsN>
0

>  <NaaN>
0

>  <NsssN>
1

>  <NddsN>
0

>  <NaasN>
0

>  <NssssN>
0

>  <NsOH>
1

>  <NdO>
4

>  <NssO>
1

>  <NaaO>
0

>  <NsF>
0

>  <NsSiH3>
0

>  <NssSiH2>
0

>  <NsssSiH>
0

>  <NssssSi>
0

>  <NsPH2>
0

>  <NssPH>
0

>  <NsssP>
0

>  <NdsssP>
0

>  <NsssssP>
0

>  <NsSH>
0

>  <NdS>
0

>  <NssS>
1

>  <NaaS>
0

>  <NdssS>
0

>  <NddssS>
0

>  <NsCl>
1

>  <NsBr>
0

>  <NsI>
0

>  <fragCpx>
268.11

>  <fMF>
0.4

>  <nHBAcc>
6

>  <nHBDon>
3

>  <Kier1>
29.97

>  <Kier2>
11.85

>  <Lipinski>
0

>  <GhoseFilter>
0

>  <FilterItLogS>
-4.71

>  <VMcGowan>
384.51

>  <LabuteASA>
223.43

>  <PEOE_VSA1>
25.38

>  <PEOE_VSA2>
14.38

>  <PEOE_VSA3>
4.79

>  <PEOE_VSA4>
0

>  <PEOE_VSA5>
11.76

>  <PEOE_VSA6>
41.93

>  <PEOE_VSA7>
57.52

>  <PEOE_VSA8>
9.77

>  <PEOE_VSA9>
0

>  <PEOE_VSA10>
29.25

>  <PEOE_VSA11>
5.6

>  <PEOE_VSA12>
11.81

>  <PEOE_VSA13>
5.91

>  <SMR_VSA1>
29.02

>  <SMR_VSA2>
0

>  <SMR_VSA3>
15.53

>  <SMR_VSA4>
0

>  <SMR_VSA5>
61.54

>  <SMR_VSA6>
0

>  <SMR_VSA7>
65.18

>  <SMR_VSA8>
0

>  <SMR_VSA9>
5.75

>  <SlogP_VSA1>
15.37

>  <SlogP_VSA2>
61.5

>  <SlogP_VSA3>
19.18

>  <SlogP_VSA4>
0

>  <SlogP_VSA5>
39.3

>  <SlogP_VSA6>
54.6

>  <SlogP_VSA7>
5.02

>  <SlogP_VSA8>
0

>  <SlogP_VSA9>
0

>  <SlogP_VSA10>
0

>  <SlogP_VSA11>
5.75

>  <EState_VSA1>
57.54

>  <EState_VSA2>
0

>  <EState_VSA3>
16.34

>  <EState_VSA4>
0

>  <EState_VSA5>
16.66

>  <EState_VSA6>
82.29

>  <EState_VSA7>
0

>  <EState_VSA8>
10.63

>  <EState_VSA9>
16.34

>  <EState_VSA10>
24.28

>  <VSA_EState1>
5.14

>  <VSA_EState2>
52.64

>  <VSA_EState3>
15.12

>  <VSA_EState4>
-0.83

>  <VSA_EState5>
-2.25

>  <VSA_EState6>
12.2

>  <VSA_EState7>
0

>  <VSA_EState8>
6.68

>  <VSA_EState9>
0

>  <apol>
75.28

>  <bpol>
39.12

>  <nRing>
4

>  <nHRing>
2

>  <naRing>
2

>  <naHRing>
0

>  <nARing 2>
2

>  <nAHRing 2>
2

>  <nFRing>
1

>  <nFHRing>
1

>  <nFaRing>
0

>  <nFaHRing>
0

>  <nFARing 2>
1

>  <nFAHRing 2>
1

>  <nRot>
8

>  <SLogP>
2.99

>  <SMR>
139.14

>  <TopoPSA(NO)>
125.04

>  <TopoPSA>
150.34

>  <JGI1>
0.26

>  <JGI2>
0.1

>  <JGI3>
0.07

>  <JGI4>
0.06

>  <JGI5>
0.03

>  <Diameter>
17

>  <Radius>
9

>  <TMWC10>
157.6

>  <TSRW10>
89.39

>  <MW>
545.14

>  <AMW>
8.39

>  <WPath>
4479

>  <WPol>
61

>  <Zagreb1>
202

>  <Zagreb2>
242

>  <mZagreb2>
7.81

>  <yes>


>  <nAR-cont>
1

>  <nHA-cont>
0.433355441

>  <MWHBN>
0.385468137

>  <MWHBN-cont>
0.533313202

>  <TPSA-cont>
0

>  <pka_cont>
0.97

>  <yes.1>


>  <BBB_SCORE>
2.718325244

>  <MMFF94 Energy>
114.69

$$$$
Compound 911
Actelion Java MolfileCreator 2.0

  0  0  0  0  0  0              0 V3000
M  V30 BEGIN CTAB
M  V30 COUNTS 25 25 0 0 0
M  V30 BEGIN ATOM
M  V30 1 Cl 0.3997 2.0 -4.8855 0
M  V30 2 C 0.4247 1.1983 -3.3643 0
M  V30 3 C 1.1142 -3.0E-4 -3.2228 0
M  V30 4 C -0.2449 1.7524 -2.2763 0
M  V30 5 C 1.1279 -0.6432 -1.9826 0
M  V30 6 C -0.2283 1.1037 -1.0347 0
M  V30 7 C 0.4565 -0.1004 -0.8801 0
M  V30 8 O 0.5682 -0.8496 0.2527 0
M  V30 9 C -0.1107 -0.523 1.467 0
M  V30 10 C -1.6309 -0.2928 1.3677 0
M  V30 11 C 0.0679 -1.7648 2.3627 0
M  V30 12 C 0.5913 0.6482 2.1721 0
M  V30 13 O -2.2605 0.6327 1.8582 0
M  V30 14 O -2.2766 -1.2398 0.6543 0
M  V30 15 H 1.6402 -0.4404 -4.065 0
M  V30 16 H -0.7825 2.6913 -2.3834 0
M  V30 17 H 1.6668 -1.5821 -1.874 0
M  V30 18 H -0.7606 1.5828 -0.2212 0
M  V30 19 H 1.1299 -1.9756 2.5347 0
M  V30 20 H -0.3488 -2.6586 1.8832 0
M  V30 21 H -0.4252 -1.6419 3.3335 0
M  V30 22 H 0.4706 1.5905 1.6307 0
M  V30 23 H 0.1937 0.8059 3.1811 0
M  V30 24 H 1.6698 0.4687 2.2471 0
M  V30 25 H -3.214 -0.9555 0.6546 0
M  V30 END ATOM
M  V30 BEGIN BOND
M  V30 1 1 1 2
M  V30 2 2 2 3
M  V30 3 1 2 4
M  V30 4 1 3 5
M  V30 5 2 4 6
M  V30 6 2 5 7
M  V30 7 1 7 8
M  V30 8 1 8 9
M  V30 9 1 9 10
M  V30 10 1 9 11
M  V30 11 1 9 12
M  V30 12 2 10 13
M  V30 13 1 10 14
M  V30 14 1 6 7
M  V30 15 1 3 15
M  V30 16 1 4 16
M  V30 17 1 5 17
M  V30 18 1 6 18
M  V30 19 1 11 19
M  V30 20 1 11 20
M  V30 21 1 11 21
M  V30 22 1 12 22
M  V30 23 1 12 23
M  V30 24 1 12 24
M  V30 25 1 14 25
M  V30 END BOND
M  V30 END CTAB
M  END
>  <Column 1>
1091

>  <level_0>
1229

>  <index>
1229

>  <Unnamed: 0>
1229

>  <NO.>
1241

>  <Name>
clofibric acid

>  <IUPAC_name>
2-(4-chlorophenoxy)-2-methylpropanoic acid

>  <SMILES>
CC(C)(Oc1ccc(Cl)cc1)C(=O)O

>  <CID>
2797

>  <logBB>


>  <BBB+/BBB->
BBB-

>  <Inchi>
InChI=1S/C10H11ClO3/c1-10(2-9(12)13)14-8-5-3-7(11)4-6-8/h3-6H-1-2H3-(H-12-13)

>  <threshold>
-1

>  <reference>
R1|R7|R13|R27|R29|R30|

>  <group>
B

>  <Class>
-1

>  <ABC>
10.48

>  <ABCGG>
9.69

>  <nAcid>
1

>  <nBase>
0

>  <nAromAtom>
6

>  <nAromBond>
6

>  <nAtom>
25

>  <nHeavyAtom>
14

>  <nSpiro>
0

>  <nBridgehead>
0

>  <nHetero>
4

>  <nN>
0

>  <nO>
3

>  <nF>
0

>  <BalabanJ>
2.37

>  <BertzCT>
329.73

>  <nBonds>
25

>  <nBondsO>
14

>  <nBondsS>
18

>  <nBondsD>
1

>  <nBondsT>
0

>  <nBondsA>
6

>  <nBondsM>
7

>  <nBondsKS>
21

>  <nBondsKD>
4

>  <RNCG>
0.33

>  <RPCG>
0.24

>  <FCSP3>
0.3

>  <SZ>
18.67

>  <Sm>
17.87

>  <Sv>
16.22

>  <Sse>
25.64

>  <Sp>
17.14

>  <Si>
28.06

>  <MZ>
0.75

>  <Mm>
0.71

>  <Mv>
0.65

>  <Mse>
1.03

>  <Mp>
0.69

>  <Mi>
1.12

>  <NsCH3>
2

>  <NdCH2>
0

>  <NssCH2>
0

>  <NtCH>
0

>  <NdsCH>
0

>  <NaaCH>
4

>  <NsssCH>
0

>  <NddC>
0

>  <NtsC>
0

>  <NdssC>
1

>  <NaasC>
2

>  <NaaaC>
0

>  <NssssC>
1

>  <NsNH3>
0

>  <NsNH2>
0

>  <NssNH2>
0

>  <NdNH>
0

>  <NssNH>
0

>  <NaaNH>
0

>  <NtN>
0

>  <NsssNH>
0

>  <NdsN>
0

>  <NaaN>
0

>  <NsssN>
0

>  <NddsN>
0

>  <NaasN>
0

>  <NssssN>
0

>  <NsOH>
1

>  <NdO>
1

>  <NssO>
1

>  <NaaO>
0

>  <NsF>
0

>  <NsSiH3>
0

>  <NssSiH2>
0

>  <NsssSiH>
0

>  <NssssSi>
0

>  <NsPH2>
0

>  <NssPH>
0

>  <NsssP>
0

>  <NdsssP>
0

>  <NsssssP>
0

>  <NsSH>
0

>  <NdS>
0

>  <NssS>
0

>  <NaaS>
0

>  <NdssS>
0

>  <NddssS>
0

>  <NsCl>
1

>  <NsBr>
0

>  <NsI>
0

>  <fragCpx>
14.04

>  <fMF>
0.24

>  <nHBAcc>
2

>  <nHBDon>
1

>  <Kier1>
12.07

>  <Kier2>
4.68

>  <Lipinski>
1

>  <GhoseFilter>
1

>  <FilterItLogS>
-2.35

>  <VMcGowan>
153.55

>  <LabuteASA>
87.26

>  <PEOE_VSA1>
9.84

>  <PEOE_VSA2>
0

>  <PEOE_VSA3>
4.79

>  <PEOE_VSA4>
0

>  <PEOE_VSA5>
0

>  <PEOE_VSA6>
11.6

>  <PEOE_VSA7>
38.11

>  <PEOE_VSA8>
5.02

>  <PEOE_VSA9>
0

>  <PEOE_VSA10>
5.75

>  <PEOE_VSA11>
5.6

>  <PEOE_VSA12>
0

>  <PEOE_VSA13>
0

>  <SMR_VSA1>
14.64

>  <SMR_VSA2>
0

>  <SMR_VSA3>
0

>  <SMR_VSA4>
0

>  <SMR_VSA5>
19.45

>  <SMR_VSA6>
0

>  <SMR_VSA7>
29.29

>  <SMR_VSA8>
0

>  <SMR_VSA9>
5.75

>  <SlogP_VSA1>
4.74

>  <SlogP_VSA2>
16.68

>  <SlogP_VSA3>
4.79

>  <SlogP_VSA4>
0

>  <SlogP_VSA5>
13.85

>  <SlogP_VSA6>
24.27

>  <SlogP_VSA7>
5.02

>  <SlogP_VSA8>
0

>  <SlogP_VSA9>
0

>  <SlogP_VSA10>
0

>  <SlogP_VSA11>
5.75

>  <EState_VSA1>
11.57

>  <EState_VSA2>
0

>  <EState_VSA3>
10.77

>  <EState_VSA4>
0

>  <EState_VSA5>
13.85

>  <EState_VSA6>
24.27

>  <EState_VSA7>
0

>  <EState_VSA8>
0

>  <EState_VSA9>
21.44

>  <EState_VSA10>
4.79

>  <VSA_EState1>
5.26

>  <VSA_EState2>
10.74

>  <VSA_EState3>
9.39

>  <VSA_EState4>
-1.23

>  <VSA_EState5>
-0.52

>  <VSA_EState6>
6.56

>  <VSA_EState7>
0

>  <VSA_EState8>
2.98

>  <VSA_EState9>
0

>  <apol>
28.62

>  <bpol>
14.15

>  <nRing>
1

>  <nHRing>
0

>  <naRing>
1

>  <naHRing>
0

>  <nARing 2>
0

>  <nAHRing 2>
0

>  <nFRing>
0

>  <nFHRing>
0

>  <nFaRing>
0

>  <nFaHRing>
0

>  <nFARing 2>
0

>  <nFAHRing 2>
0

>  <nRot>
3

>  <SLogP>
2.58

>  <SMR>
53.79

>  <TopoPSA(NO)>
46.53

>  <TopoPSA>
46.53

>  <JGI1>
0.36

>  <JGI2>
0.11

>  <JGI3>
0.04

>  <JGI4>
0.07

>  <JGI5>
0.03

>  <Diameter>
8

>  <Radius>
4

>  <TMWC10>
95.83

>  <TSRW10>
45.41

>  <MW>
214.04

>  <AMW>
8.56

>  <WPath>
315

>  <WPol>
18

>  <Zagreb1>
68

>  <Zagreb2>
75

>  <mZagreb2>
3.04

>  <yes>


>  <nAR-cont>
0.336376

>  <nHA-cont>
0.887625254

>  <MWHBN>
0.205056615

>  <MWHBN-cont>
0.999986778

>  <TPSA-cont>
0.675191707

>  <pka_cont>
0.97

>  <yes.1>


>  <BBB_SCORE>
4.559364834

>  <MMFF94 Energy>
36.412

$$$$
Compound 912
Actelion Java MolfileCreator 2.0

  0  0  0  0  0  0              0 V3000
M  V30 BEGIN CTAB
M  V30 COUNTS 48 50 0 0 0
M  V30 BEGIN ATOM
M  V30 1 S -1.2956 -1.0526 -1.3766 0
M  V30 2 C -1.8132 -0.481 -3.0758 0
M  V30 3 C 0.2203 -1.8451 -2.0565 0 CFG=1
M  V30 4 C -0.4797 -0.1116 -3.7557 0 CFG=1
M  V30 5 C -2.5739 -1.6327 -3.7466 0
M  V30 6 C -2.7284 0.7356 -2.9231 0
M  V30 7 N 0.5441 -0.9672 -3.1807 0
M  V30 8 C 1.6008 -1.4771 -1.4498 0 CFG=1
M  V30 9 C -0.4964 -0.2363 -5.2715 0
M  V30 10 C 1.7091 -0.5076 -2.6567 0
M  V30 11 N 1.6092 -0.8469 -0.109 0
M  V30 12 O -0.1811 -1.2097 -5.9373 0
M  V30 13 O -0.9779 0.8692 -5.8783 0
M  V30 14 O 2.4146 0.4169 -2.9854 0
M  V30 15 C 1.363 -1.5771 1.0356 0
M  V30 16 O 1.1984 -2.7951 0.9962 0
M  V30 17 C 1.3885 -0.7478 2.3445 0
M  V30 18 O 0.845 0.5404 1.9653 0
M  V30 19 C 2.8584 -0.6225 2.7617 0
M  V30 20 C 0.5727 -1.4953 3.4085 0
M  V30 21 C 0.4439 1.3561 2.9819 0
M  V30 22 C -0.9158 1.4282 3.2815 0
M  V30 23 C 1.3524 2.1901 3.6283 0
M  V30 24 C -1.361 2.293 4.2812 0
M  V30 25 C 0.9062 3.0555 4.6282 0
M  V30 26 C -0.4486 3.1016 4.9592 0
M  V30 27 H 0.1022 -2.8911 -2.3542 0
M  V30 28 H -0.193 0.9227 -3.5194 0
M  V30 29 H -1.9441 -2.5169 -3.8943 0
M  V30 30 H -3.4454 -1.9368 -3.1545 0
M  V30 31 H -2.9509 -1.3321 -4.7309 0
M  V30 32 H -3.6406 0.4881 -2.3677 0
M  V30 33 H -3.0376 1.1138 -3.9039 0
M  V30 34 H -2.2294 1.559 -2.3988 0
M  V30 35 H 2.3423 -2.2834 -1.5104 0
M  V30 36 H 1.6546 0.1641 -0.0059 0
M  V30 37 H -0.9124 0.6633 -6.8357 0
M  V30 38 H 3.348 -1.602 2.8005 0
M  V30 39 H 3.4165 0.0083 2.0606 0
M  V30 40 H 2.9554 -0.1663 3.7522 0
M  V30 41 H 0.5804 -0.9702 4.3697 0
M  V30 42 H 0.9677 -2.5022 3.5844 0
M  V30 43 H -0.4738 -1.5957 3.0991 0
M  V30 44 H -1.6276 0.8114 2.7398 0
M  V30 45 H 2.4023 2.1847 3.3534 0
M  V30 46 H -2.4189 2.3422 4.5255 0
M  V30 47 H 1.6126 3.7027 5.1416 0
M  V30 48 H -0.7956 3.7789 5.7357 0
M  V30 END ATOM
M  V30 BEGIN BOND
M  V30 1 1 1 2
M  V30 2 1 1 3
M  V30 3 1 2 4
M  V30 4 1 2 5
M  V30 5 1 2 6
M  V30 6 1 3 7
M  V30 7 1 3 8
M  V30 8 1 4 9
M  V30 9 1 7 10
M  V30 10 1 8 11
M  V30 11 2 9 12
M  V30 12 1 9 13
M  V30 13 2 10 14
M  V30 14 1 11 15
M  V30 15 2 15 16
M  V30 16 1 15 17
M  V30 17 1 17 18
M  V30 18 1 17 19
M  V30 19 1 17 20
M  V30 20 1 18 21
M  V30 21 2 21 22
M  V30 22 1 21 23
M  V30 23 1 22 24
M  V30 24 2 23 25
M  V30 25 2 24 26
M  V30 26 1 4 7
M  V30 27 1 8 10
M  V30 28 1 25 26
M  V30 29 1 3 27
M  V30 30 1 4 28
M  V30 31 1 5 29
M  V30 32 1 5 30
M  V30 33 1 5 31
M  V30 34 1 6 32
M  V30 35 1 6 33
M  V30 36 1 6 34
M  V30 37 1 8 35
M  V30 38 1 11 36
M  V30 39 1 13 37
M  V30 40 1 19 38
M  V30 41 1 19 39
M  V30 42 1 19 40
M  V30 43 1 20 41
M  V30 44 1 20 42
M  V30 45 1 20 43
M  V30 46 1 22 44
M  V30 47 1 23 45
M  V30 48 1 24 46
M  V30 49 1 25 47
M  V30 50 1 26 48
M  V30 END BOND
M  V30 BEGIN COLLECTION
M  V30 MDLV30/STEABS ATOMS=(3 3 4 8)
M  V30 END COLLECTION
M  V30 END CTAB
M  END
>  <Column 1>
1092

>  <level_0>
1230

>  <index>
1230

>  <Unnamed: 0>
1230

>  <NO.>
1242

>  <Name>
isopropicillin

>  <IUPAC_name>
(2s-5r-6r)-3-3-dimethyl-6-[(2-methyl-2-phenoxypropanoyl)amino]-7-oxo-4-thia-1-azabicyclo[3.2.0]heptane-2-carboxylic acid

>  <SMILES>
CC(C)(Oc1ccccc1)C(=O)N[C@@H]1C(=O)N2[C@@H](C(=O)O)C(C)(C)S[C@H]12

>  <CID>
3038477

>  <logBB>


>  <BBB+/BBB->
BBB-

>  <Inchi>
InChI=1S/C18H22N2O5S/c1-17(2-25-10-8-6-5-7-9-10)16(24)19-11-13(21)20-12(15(22)23)18(3-4)26-14(11)20/h5-9-11-12-14H-1-4H3-(H-19-24)(H-22-23)/t11--12+-14-/m1/s1

>  <threshold>
-1

>  <reference>
R1|R6|R24|R27|R27|R30|R30|

>  <group>
B

>  <Class>
1

>  <ABC>
20.51

>  <ABCGG>
17.58

>  <nAcid>
1

>  <nBase>
0

>  <nAromAtom>
6

>  <nAromBond>
6

>  <nAtom>
48

>  <nHeavyAtom>
26

>  <nSpiro>
0

>  <nBridgehead>
0

>  <nHetero>
8

>  <nN>
2

>  <nO>
5

>  <nF>
0

>  <BalabanJ>
1.6

>  <BertzCT>
749.21

>  <nBonds>
50

>  <nBondsO>
28

>  <nBondsS>
41

>  <nBondsD>
3

>  <nBondsT>
0

>  <nBondsA>
6

>  <nBondsM>
9

>  <nBondsKS>
44

>  <nBondsKD>
6

>  <RNCG>
0.17

>  <RPCG>
0.11

>  <FCSP3>
0.5

>  <SZ>
33.33

>  <Sm>
31.51

>  <Sv>
30.24

>  <Sse>
48.82

>  <Sp>
32.24

>  <Si>
54.12

>  <MZ>
0.69

>  <Mm>
0.66

>  <Mv>
0.63

>  <Mse>
1.02

>  <Mp>
0.67

>  <Mi>
1.13

>  <NsCH3>
4

>  <NdCH2>
0

>  <NssCH2>
0

>  <NtCH>
0

>  <NdsCH>
0

>  <NaaCH>
5

>  <NsssCH>
3

>  <NddC>
0

>  <NtsC>
0

>  <NdssC>
3

>  <NaasC>
1

>  <NaaaC>
0

>  <NssssC>
2

>  <NsNH3>
0

>  <NsNH2>
0

>  <NssNH2>
0

>  <NdNH>
0

>  <NssNH>
1

>  <NaaNH>
0

>  <NtN>
0

>  <NsssNH>
0

>  <NdsN>
0

>  <NaaN>
0

>  <NsssN>
1

>  <NddsN>
0

>  <NaasN>
0

>  <NssssN>
0

>  <NsOH>
1

>  <NdO>
3

>  <NssO>
1

>  <NaaO>
0

>  <NsF>
0

>  <NsSiH3>
0

>  <NssSiH2>
0

>  <NsssSiH>
0

>  <NssssSi>
0

>  <NsPH2>
0

>  <NssPH>
0

>  <NsssP>
0

>  <NdsssP>
0

>  <NsssssP>
0

>  <NsSH>
0

>  <NdS>
0

>  <NssS>
1

>  <NaaS>
0

>  <NdssS>
0

>  <NddssS>
0

>  <NsCl>
0

>  <NsBr>
0

>  <NsI>
0

>  <fragCpx>
134.08

>  <fMF>
0.35

>  <nHBAcc>
5

>  <nHBDon>
2

>  <Kier1>
20.73

>  <Kier2>
7.44

>  <Lipinski>
1

>  <GhoseFilter>
1

>  <FilterItLogS>
-2.31

>  <VMcGowan>
271.76

>  <LabuteASA>
155.62

>  <PEOE_VSA1>
20.06

>  <PEOE_VSA2>
9.59

>  <PEOE_VSA3>
4.79

>  <PEOE_VSA4>
0

>  <PEOE_VSA5>
11.76

>  <PEOE_VSA6>
18.2

>  <PEOE_VSA7>
39.83

>  <PEOE_VSA8>
4.75

>  <PEOE_VSA9>
0

>  <PEOE_VSA10>
23.21

>  <PEOE_VSA11>
5.6

>  <PEOE_VSA12>
5.91

>  <PEOE_VSA13>
5.91

>  <SMR_VSA1>
24.23

>  <SMR_VSA2>
0

>  <SMR_VSA3>
10.22

>  <SMR_VSA4>
0

>  <SMR_VSA5>
55.5

>  <SMR_VSA6>
0

>  <SMR_VSA7>
30.33

>  <SMR_VSA8>
0

>  <SMR_VSA9>
5.75

>  <SlogP_VSA1>
10.05

>  <SlogP_VSA2>
55.6

>  <SlogP_VSA3>
14.38

>  <SlogP_VSA4>
0

>  <SlogP_VSA5>
27.69

>  <SlogP_VSA6>
30.33

>  <SlogP_VSA7>
0

>  <SlogP_VSA8>
0

>  <SlogP_VSA9>
0

>  <SlogP_VSA10>
0

>  <SlogP_VSA11>
5.75

>  <EState_VSA1>
34.31

>  <EState_VSA2>
11.28

>  <EState_VSA3>
5.75

>  <EState_VSA4>
0

>  <EState_VSA5>
16.66

>  <EState_VSA6>
51.96

>  <EState_VSA7>
6.07

>  <EState_VSA8>
5.32

>  <EState_VSA9>
4.74

>  <EState_VSA10>
19.49

>  <VSA_EState1>
5.12

>  <VSA_EState2>
37.99

>  <VSA_EState3>
11.78

>  <VSA_EState4>
-1.17

>  <VSA_EState5>
-1.27

>  <VSA_EState6>
7.32

>  <VSA_EState7>
0

>  <VSA_EState8>
6.84

>  <VSA_EState9>
0

>  <apol>
53.84

>  <bpol>
31.15

>  <nRing>
3

>  <nHRing>
2

>  <naRing>
1

>  <naHRing>
0

>  <nARing 2>
2

>  <nAHRing 2>
2

>  <nFRing>
1

>  <nFHRing>
1

>  <nFaRing>
0

>  <nFaHRing>
0

>  <nFARing 2>
1

>  <nFAHRing 2>
1

>  <nRot>
5

>  <SLogP>
1.48

>  <SMR>
96.81

>  <TopoPSA(NO)>
95.94

>  <TopoPSA>
121.24

>  <JGI1>
0.29

>  <JGI2>
0.1

>  <JGI3>
0.09

>  <JGI4>
0.06

>  <JGI5>
0.03

>  <Diameter>
13

>  <Radius>
7

>  <TMWC10>
132.05

>  <TSRW10>
76.93

>  <MW>
378.12

>  <AMW>
7.88

>  <WPath>
1715

>  <WPol>
42

>  <Zagreb1>
144

>  <Zagreb2>
174

>  <mZagreb2>
5.42

>  <yes>


>  <nAR-cont>
1

>  <nHA-cont>
0.892715677

>  <MWHBN>
0.359984014

>  <MWHBN-cont>
0.632482226

>  <TPSA-cont>
0

>  <pka_cont>
0.97

>  <yes.1>


>  <BBB_SCORE>
3.326439016

>  <MMFF94 Energy>
75.692

$$$$
Compound 913
Actelion Java MolfileCreator 2.0

  0  0  0  0  0  0              0 V3000
M  V30 BEGIN CTAB
M  V30 COUNTS 51 55 0 0 0
M  V30 BEGIN ATOM
M  V30 1 O 4.2867 -0.0807 -3.153 0
M  V30 2 C 3.2079 -0.4257 -2.6644 0
M  V30 3 C 2.0413 0.559 -2.4564 0 CFG=2
M  V30 4 C 2.9641 -1.8825 -2.3436 0
M  V30 5 O 2.5791 1.8837 -2.143 0
M  V30 6 C 1.0996 0.1815 -1.3047 0 CFG=2
M  V30 7 C 2.3088 -2.0391 -0.9759 0
M  V30 8 C 2.6114 1.9004 -0.7683 0
M  V30 9 C 1.8305 0.9005 -0.2249 0
M  V30 10 C 0.9668 -1.301 -0.9397 0 CFG=2
M  V30 11 C -0.3033 0.813 -1.4617 0
M  V30 12 C 3.3261 2.7392 0.0547 0
M  V30 13 C 1.7853 0.6122 1.1264 0
M  V30 14 O 0.1301 -1.9592 -1.9139 0
M  V30 15 C 0.2388 -1.3507 0.4489 0 CFG=1
M  V30 16 C -1.2025 0.5443 -0.2417 0
M  V30 17 O 4.0727 3.7429 -0.477 0
M  V30 18 C 3.2748 2.5158 1.4367 0
M  V30 19 C 2.5209 1.4457 1.9696 0
M  V30 20 C 1.036 -0.613 1.5816 0
M  V30 21 N -1.1573 -0.8641 0.1989 0
M  V30 22 C -2.0393 -1.0912 1.3543 0
M  V30 23 C -3.4811 -1.1171 0.9304 0
M  V30 24 C -4.4887 -0.3149 1.3294 0
M  V30 25 C -5.8833 -0.5175 0.7954 0
M  V30 26 C -4.3608 0.8307 2.2944 0
M  V30 27 H 1.5044 0.6203 -3.4102 0
M  V30 28 H 3.9269 -2.4054 -2.3427 0
M  V30 29 H 2.3534 -2.3142 -3.1431 0
M  V30 30 H 2.1491 -3.1085 -0.791 0
M  V30 31 H 2.9926 -1.6773 -0.2005 0
M  V30 32 H -0.2417 1.898 -1.6182 0
M  V30 33 H -0.788 0.4059 -2.3588 0
M  V30 34 H -0.7866 -1.8491 -1.5768 0
M  V30 35 H 0.1463 -2.4076 0.7343 0
M  V30 36 H -2.2249 0.8157 -0.5307 0
M  V30 37 H -0.9281 1.219 0.5786 0
M  V30 38 H 4.5718 4.178 0.231 0
M  V30 39 H 3.8329 3.1509 2.1192 0
M  V30 40 H 2.5301 1.2722 3.0436 0
M  V30 41 H 0.3811 -0.3537 2.4195 0
M  V30 42 H 1.7793 -1.3191 1.9746 0
M  V30 43 H -1.846 -0.3704 2.153 0
M  V30 44 H -1.8365 -2.0812 1.7832 0
M  V30 45 H -3.7068 -1.9096 0.2169 0
M  V30 46 H -6.578 -0.7174 1.6177 0
M  V30 47 H -5.9442 -1.359 0.0974 0
M  V30 48 H -6.2201 0.379 0.2647 0
M  V30 49 H -3.3361 1.0136 2.6232 0
M  V30 50 H -4.7173 1.7554 1.828 0
M  V30 51 H -4.9663 0.6397 3.1865 0
M  V30 END ATOM
M  V30 BEGIN BOND
M  V30 1 2 1 2
M  V30 2 1 2 3
M  V30 3 1 2 4
M  V30 4 1 3 5
M  V30 5 1 3 6
M  V30 6 1 4 7
M  V30 7 1 5 8
M  V30 8 1 6 9
M  V30 9 1 6 10
M  V30 10 1 6 11
M  V30 11 1 8 12
M  V30 12 1 9 13
M  V30 13 1 10 14
M  V30 14 1 10 15
M  V30 15 1 11 16
M  V30 16 1 12 17
M  V30 17 2 12 18
M  V30 18 2 13 19
M  V30 19 1 13 20
M  V30 20 1 15 21
M  V30 21 1 21 22
M  V30 22 1 22 23
M  V30 23 2 23 24
M  V30 24 1 24 25
M  V30 25 1 24 26
M  V30 26 1 7 10
M  V30 27 2 8 9
M  V30 28 1 15 20
M  V30 29 1 16 21
M  V30 30 1 18 19
M  V30 31 1 3 27
M  V30 32 1 4 28
M  V30 33 1 4 29
M  V30 34 1 7 30
M  V30 35 1 7 31
M  V30 36 1 11 32
M  V30 37 1 11 33
M  V30 38 1 14 34
M  V30 39 1 15 35
M  V30 40 1 16 36
M  V30 41 1 16 37
M  V30 42 1 17 38
M  V30 43 1 18 39
M  V30 44 1 19 40
M  V30 45 1 20 41
M  V30 46 1 20 42
M  V30 47 1 22 43
M  V30 48 1 22 44
M  V30 49 1 23 45
M  V30 50 1 25 46
M  V30 51 1 25 47
M  V30 52 1 25 48
M  V30 53 1 26 49
M  V30 54 1 26 50
M  V30 55 1 26 51
M  V30 END BOND
M  V30 BEGIN COLLECTION
M  V30 MDLV30/STEABS ATOMS=(4 3 6 10 15)
M  V30 END COLLECTION
M  V30 END CTAB
M  END
>  <Column 1>
1093

>  <level_0>
1232

>  <index>
1232

>  <Unnamed: 0>
1232

>  <NO.>
1244

>  <Name>
nalmexone

>  <IUPAC_name>
(4r-4as-7ar-12bs)-4a-9-dihydroxy-3-(3-methylbut-2-enyl)-2-4-5-6-7a-13-hexahydro-1h-4-12-methanobenzofuro[3-2-e]isoquinolin-7-one

>  <SMILES>
CC(C)=CCN1CC[C@]23c4c5ccc(O)c4O[C@H]2C(=O)CC[C@@]3(O)[C@H]1C5

>  <CID>
5360516

>  <logBB>


>  <BBB+/BBB->
BBB+

>  <Inchi>
InChI=1S/C21H25NO4/c1-12(2)6-9-22-10-8-20-17-13-3-4-14(23)18(17)26-19(20)15(24)5-7-21(20-25)16(22)11-13/h3-4-6-16-19-23-25H-5-7-11H2-1-2H3/t16--19+-20+-21-/m1/s1

>  <threshold>
-1

>  <reference>
R1|R6|R27|R30|

>  <group>
B

>  <Class>
1

>  <ABC>
21.33

>  <ABCGG>
16.22

>  <nAcid>
0

>  <nBase>
1

>  <nAromAtom>
6

>  <nAromBond>
6

>  <nAtom>
51

>  <nHeavyAtom>
26

>  <nSpiro>
1

>  <nBridgehead>
2

>  <nHetero>
5

>  <nN>
1

>  <nO>
4

>  <nF>
0

>  <BalabanJ>
1.56

>  <BertzCT>
842.66

>  <nBonds>
55

>  <nBondsO>
30

>  <nBondsS>
47

>  <nBondsD>
2

>  <nBondsT>
0

>  <nBondsA>
6

>  <nBondsM>
8

>  <nBondsKS>
50

>  <nBondsKD>
5

>  <RNCG>
0.21

>  <RPCG>
0.12

>  <FCSP3>
0.57

>  <SZ>
31.67

>  <Sm>
29.59

>  <Sv>
31.39

>  <Sse>
51.08

>  <Sp>
33.56

>  <Si>
57.32

>  <MZ>
0.62

>  <Mm>
0.58

>  <Mv>
0.62

>  <Mse>
1

>  <Mp>
0.66

>  <Mi>
1.12

>  <NsCH3>
2

>  <NdCH2>
0

>  <NssCH2>
6

>  <NtCH>
0

>  <NdsCH>
1

>  <NaaCH>
2

>  <NsssCH>
2

>  <NddC>
0

>  <NtsC>
0

>  <NdssC>
2

>  <NaasC>
4

>  <NaaaC>
0

>  <NssssC>
2

>  <NsNH3>
0

>  <NsNH2>
0

>  <NssNH2>
0

>  <NdNH>
0

>  <NssNH>
0

>  <NaaNH>
0

>  <NtN>
0

>  <NsssNH>
0

>  <NdsN>
0

>  <NaaN>
0

>  <NsssN>
1

>  <NddsN>
0

>  <NaasN>
0

>  <NssssN>
0

>  <NsOH>
2

>  <NdO>
1

>  <NssO>
1

>  <NaaO>
0

>  <NsF>
0

>  <NsSiH3>
0

>  <NssSiH2>
0

>  <NsssSiH>
0

>  <NssssSi>
0

>  <NsPH2>
0

>  <NssPH>
0

>  <NsssP>
0

>  <NdsssP>
0

>  <NsssssP>
0

>  <NsSH>
0

>  <NdS>
0

>  <NssS>
0

>  <NaaS>
0

>  <NdssS>
0

>  <NddssS>
0

>  <NsCl>
0

>  <NsBr>
0

>  <NsI>
0

>  <fragCpx>
250.05

>  <fMF>
0.35

>  <nHBAcc>
5

>  <nHBDon>
2

>  <Kier1>
18.06

>  <Kier2>
6

>  <Lipinski>
1

>  <GhoseFilter>
1

>  <FilterItLogS>
-3.41

>  <VMcGowan>
264.41

>  <LabuteASA>
152.82

>  <PEOE_VSA1>
14.95

>  <PEOE_VSA2>
9.69

>  <PEOE_VSA3>
0

>  <PEOE_VSA4>
0

>  <PEOE_VSA5>
0

>  <PEOE_VSA6>
17.72

>  <PEOE_VSA7>
44.74

>  <PEOE_VSA8>
31.12

>  <PEOE_VSA9>
11.02

>  <PEOE_VSA10>
0

>  <PEOE_VSA11>
23.39

>  <PEOE_VSA12>
0

>  <PEOE_VSA13>
0

>  <SMR_VSA1>
19.74

>  <SMR_VSA2>
0

>  <SMR_VSA3>
4.9

>  <SMR_VSA4>
0

>  <SMR_VSA5>
62.69

>  <SMR_VSA6>
13.09

>  <SMR_VSA7>
34.91

>  <SMR_VSA8>
0

>  <SMR_VSA9>
11.5

>  <SlogP_VSA1>
4.74

>  <SlogP_VSA2>
51.73

>  <SlogP_VSA3>
16.63

>  <SlogP_VSA4>
0

>  <SlogP_VSA5>
44.24

>  <SlogP_VSA6>
23.78

>  <SlogP_VSA7>
0

>  <SlogP_VSA8>
0

>  <SlogP_VSA9>
0

>  <SlogP_VSA10>
0

>  <SlogP_VSA11>
11.5

>  <EState_VSA1>
17.12

>  <EState_VSA2>
17.57

>  <EState_VSA3>
25.01

>  <EState_VSA4>
30.64

>  <EState_VSA5>
5.57

>  <EState_VSA6>
6.07

>  <EState_VSA7>
6.07

>  <EState_VSA8>
24.82

>  <EState_VSA9>
4.74

>  <EState_VSA10>
15.01

>  <VSA_EState1>
6.03

>  <VSA_EState2>
15.09

>  <VSA_EState3>
22.32

>  <VSA_EState4>
1.56

>  <VSA_EState5>
0.56

>  <VSA_EState6>
3.57

>  <VSA_EState7>
3.74

>  <VSA_EState8>
5.81

>  <VSA_EState9>
0

>  <apol>
56.05

>  <bpol>
29.39

>  <nRing>
5

>  <nHRing>
2

>  <naRing>
1

>  <naHRing>
0

>  <nARing 2>
4

>  <nAHRing 2>
2

>  <nFRing>
1

>  <nFHRing>
1

>  <nFaRing>
0

>  <nFaHRing>
0

>  <nFARing 2>
1

>  <nFAHRing 2>
1

>  <nRot>
2

>  <SLogP>
2.08

>  <SMR>
96.5

>  <TopoPSA(NO)>
70

>  <TopoPSA>
70

>  <JGI1>
0.23

>  <JGI2>
0.12

>  <JGI3>
0.06

>  <JGI4>
0.06

>  <JGI5>
0.03

>  <Diameter>
11

>  <Radius>
6

>  <TMWC10>
137.09

>  <TSRW10>
77.46

>  <MW>
355.18

>  <AMW>
6.96

>  <WPath>
1379

>  <WPol>
60

>  <Zagreb1>
158

>  <Zagreb2>
205

>  <mZagreb2>
5.37

>  <yes>


>  <nAR-cont>
0.199399

>  <nHA-cont>
0.892715677

>  <MWHBN>
0.371427272

>  <MWHBN-cont>
0.58831599

>  <TPSA-cont>
0.511356533

>  <pka_cont>
0.97

>  <yes.1>


>  <BBB_SCORE>
3.482301728

>  <MMFF94 Energy>
97.487

$$$$
Compound 914
Actelion Java MolfileCreator 2.0

  0  0  0  0  0  0              0 V3000
M  V30 BEGIN CTAB
M  V30 COUNTS 83 88 0 0 0
M  V30 BEGIN ATOM
M  V30 1 O -6.6229 -2.5805 3.065 0
M  V30 2 C -5.8453 -2.4797 2.1248 0
M  V30 3 C -5.9288 -1.3506 1.1761 0
M  V30 4 C -4.7813 -3.4751 1.8977 0
M  V30 5 C -5.0844 -1.2328 0.1359 0
M  V30 6 C -3.9405 -3.3604 0.8612 0
M  V30 7 C -3.9711 -2.2437 -0.1752 0 CFG=2
M  V30 8 C -5.1599 -0.0349 -0.7751 0
M  V30 9 C -2.6078 -1.4503 -0.1608 0 CFG=1
M  V30 10 C -4.3018 -2.9167 -1.5255 0
M  V30 11 C -3.8364 0.7201 -0.761 0
M  V30 12 C -1.3156 -2.2983 -0.3661 0 CFG=1
M  V30 13 C -2.6346 -0.1857 -1.0887 0 CFG=1
M  V30 14 O -1.3477 -3.1115 -1.53 0
M  V30 15 C -0.0122 -1.4681 -0.3659 0
M  V30 16 C -1.3184 0.5831 -0.8947 0 CFG=1
M  V30 17 C -0.0547 -0.2246 -1.2777 0 CFG=1
M  V30 18 C -1.1177 1.9147 -1.6162 0
M  V30 19 C 1.0392 0.8562 -1.0047 0 CFG=1
M  V30 20 C -0.0192 -0.6332 -2.7737 0
M  V30 21 C 0.4016 2.1657 -1.5028 0 CFG=2
M  V30 22 O 1.208 1.0668 0.3986 0
M  V30 23 C 2.3997 0.571 -1.6647 0
M  V30 24 O 0.6505 3.1461 -0.4968 0
M  V30 25 C 1.287 2.4809 0.5889 0 CFG=1
M  V30 26 O 2.6546 0.9514 -2.8104 0
M  V30 27 C 3.3982 -0.2317 -0.8374 0
M  V30 28 C 0.6278 2.8723 1.9202 0
M  V30 29 O 4.5401 -0.5701 -1.625 0
M  V30 30 C 1.2699 2.1258 3.1017 0
M  V30 31 C 0.6764 4.3935 2.141 0
M  V30 32 C 5.4895 -1.2714 -0.9476 0
M  V30 33 C 0.6587 2.54 4.4383 0
M  V30 34 C 0.0683 4.7949 3.4829 0
M  V30 35 O 5.4026 -1.5974 0.228 0
M  V30 36 C 6.6546 -1.5913 -1.8654 0
M  V30 37 C 0.7192 4.0496 4.6425 0
M  V30 38 C 7.8982 -1.9491 -1.0559 0
M  V30 39 C 6.2722 -2.7265 -2.8076 0
M  V30 40 H -6.7038 -0.6235 1.3911 0
M  V30 41 H -4.7312 -4.2972 2.6013 0
M  V30 42 H -3.1951 -4.1429 0.7278 0
M  V30 43 H -5.9618 0.6487 -0.4702 0
M  V30 44 H -5.403 -0.3546 -1.7947 0
M  V30 45 H -2.5082 -1.053 0.8646 0
M  V30 46 H -3.6995 -3.8142 -1.7025 0
M  V30 47 H -5.3498 -3.2435 -1.5578 0
M  V30 48 H -4.1497 -2.2468 -2.3772 0
M  V30 49 H -3.6953 1.1807 0.2261 0
M  V30 50 H -3.8934 1.5415 -1.4851 0
M  V30 51 H -1.2254 -2.9993 0.4713 0
M  V30 52 H -2.7346 -0.4964 -2.1333 0
M  V30 53 H -1.7901 -2.6356 -2.2491 0
M  V30 54 H 0.8257 -2.1109 -0.6595 0
M  V30 55 H 0.1754 -1.1582 0.6697 0
M  V30 56 H -1.2702 0.8162 0.1816 0
M  V30 57 H -1.4122 1.826 -2.6678 0
M  V30 58 H -1.7056 2.7185 -1.1612 0
M  V30 59 H 0.8004 -1.3358 -2.9629 0
M  V30 60 H 0.1346 0.2244 -3.4371 0
M  V30 61 H -0.9379 -1.1065 -3.1179 0
M  V30 62 H 0.7867 2.5417 -2.4553 0
M  V30 63 H 2.346 2.7663 0.5864 0
M  V30 64 H 3.7107 0.386 0.0112 0
M  V30 65 H 2.9125 -1.1491 -0.4945 0
M  V30 66 H -0.4298 2.5762 1.8738 0
M  V30 67 H 2.3492 2.324 3.1216 0
M  V30 68 H 1.1479 1.0432 2.9795 0
M  V30 69 H 1.7169 4.7401 2.0987 0
M  V30 70 H 0.1361 4.9115 1.34 0
M  V30 71 H -0.3857 2.2071 4.4799 0
M  V30 72 H 1.1866 2.0363 5.2559 0
M  V30 73 H -1.0084 4.5854 3.4721 0
M  V30 74 H 0.1815 5.8751 3.6296 0
M  V30 75 H 6.8827 -0.6881 -2.445 0
M  V30 76 H 1.7656 4.3643 4.7386 0
M  V30 77 H 0.2179 4.3156 5.58 0
M  V30 78 H 8.7549 -2.1226 -1.7153 0
M  V30 79 H 8.1602 -1.1389 -0.3665 0
M  V30 80 H 7.741 -2.8538 -0.4581 0
M  V30 81 H 5.4036 -2.4556 -3.4177 0
M  V30 82 H 6.011 -3.6335 -2.2508 0
M  V30 83 H 7.0976 -2.9667 -3.4856 0
M  V30 END ATOM
M  V30 BEGIN BOND
M  V30 1 2 1 2
M  V30 2 1 2 3
M  V30 3 1 2 4
M  V30 4 2 3 5
M  V30 5 2 4 6
M  V30 6 1 5 7
M  V30 7 1 5 8
M  V30 8 1 7 9
M  V30 9 1 7 10
M  V30 10 1 8 11
M  V30 11 1 9 12
M  V30 12 1 9 13
M  V30 13 1 12 14
M  V30 14 1 12 15
M  V30 15 1 13 16
M  V30 16 1 15 17
M  V30 17 1 16 18
M  V30 18 1 17 19
M  V30 19 1 17 20
M  V30 20 1 18 21
M  V30 21 1 19 22
M  V30 22 1 19 23
M  V30 23 1 21 24
M  V30 24 1 22 25
M  V30 25 2 23 26
M  V30 26 1 23 27
M  V30 27 1 25 28
M  V30 28 1 27 29
M  V30 29 1 28 30
M  V30 30 1 28 31
M  V30 31 1 29 32
M  V30 32 1 30 33
M  V30 33 1 31 34
M  V30 34 2 32 35
M  V30 35 1 32 36
M  V30 36 1 33 37
M  V30 37 1 36 38
M  V30 38 1 36 39
M  V30 39 1 6 7
M  V30 40 1 11 13
M  V30 41 1 16 17
M  V30 42 1 19 21
M  V30 43 1 24 25
M  V30 44 1 34 37
M  V30 45 1 3 40
M  V30 46 1 4 41
M  V30 47 1 6 42
M  V30 48 1 8 43
M  V30 49 1 8 44
M  V30 50 1 9 45
M  V30 51 1 10 46
M  V30 52 1 10 47
M  V30 53 1 10 48
M  V30 54 1 11 49
M  V30 55 1 11 50
M  V30 56 1 12 51
M  V30 57 1 13 52
M  V30 58 1 14 53
M  V30 59 1 15 54
M  V30 60 1 15 55
M  V30 61 1 16 56
M  V30 62 1 18 57
M  V30 63 1 18 58
M  V30 64 1 20 59
M  V30 65 1 20 60
M  V30 66 1 20 61
M  V30 67 1 21 62
M  V30 68 1 25 63
M  V30 69 1 27 64
M  V30 70 1 27 65
M  V30 71 1 28 66
M  V30 72 1 30 67
M  V30 73 1 30 68
M  V30 74 1 31 69
M  V30 75 1 31 70
M  V30 76 1 33 71
M  V30 77 1 33 72
M  V30 78 1 34 73
M  V30 79 1 34 74
M  V30 80 1 36 75
M  V30 81 1 37 76
M  V30 82 1 37 77
M  V30 83 1 38 78
M  V30 84 1 38 79
M  V30 85 1 38 80
M  V30 86 1 39 81
M  V30 87 1 39 82
M  V30 88 1 39 83
M  V30 END BOND
M  V30 BEGIN COLLECTION
M  V30 MDLV30/STEABS ATOMS=(9 7 9 12 13 16 17 19 21 25)
M  V30 END COLLECTION
M  V30 END CTAB
M  END
>  <Column 1>
1094

>  <level_0>
1233

>  <index>
1233

>  <Unnamed: 0>
1233

>  <NO.>
1245

>  <Name>
ciclesonide

>  <IUPAC_name>
[2-[(1s-2s-4r-6r-8s-9s-11s-12s-13r)-6-cyclohexyl-11-hydroxy-9-13-dimethyl-16-oxo-5-7-dioxapentacyclo[10.8.0.02-9.04-8.013-18]icosa-14-17-dien-8-yl]-2-oxoethyl] 2-methylpropanoate

>  <SMILES>
CC(C)C(=O)OCC(=O)[C@@]12O[C@H](C3CCCCC3)O[C@@H]1C[C@H]1[C@@H]3CCC4=CC(=O)C=C[C@]4(C)[C@H]3[C@@H](O)C[C@@]12C

>  <CID>
6918155

>  <logBB>


>  <BBB+/BBB->
BBB+

>  <Inchi>
InChI=1S/C32H44O7/c1-18(2)28(36)37-17-25(35)32-26(38-29(39-32)19-8-6-5-7-9-19)15-23-22-11-10-20-14-21(33)12-13-30(20-3)27(22)24(34)16-31(23-32)4/h12-14-18-19-22-24-26-27-29-34H-5-11-15-17H2-1-4H3/t22--23--24--26+-27+-29+-30--31--32+/m0/s1

>  <threshold>
-1

>  <reference>
R1|R6|R27|R30|

>  <group>
B

>  <Class>
-1

>  <ABC>
31.48

>  <ABCGG>
23.72

>  <nAcid>
0

>  <nBase>
0

>  <nAromAtom>
0

>  <nAromBond>
0

>  <nAtom>
83

>  <nHeavyAtom>
39

>  <nSpiro>
0

>  <nBridgehead>
0

>  <nHetero>
7

>  <nN>
0

>  <nO>
7

>  <nF>
0

>  <BalabanJ>
1.32

>  <BertzCT>
1101.8

>  <nBonds>
88

>  <nBondsO>
44

>  <nBondsS>
83

>  <nBondsD>
5

>  <nBondsT>
0

>  <nBondsA>
0

>  <nBondsM>
5

>  <nBondsKS>
83

>  <nBondsKD>
5

>  <RNCG>
0.14

>  <RPCG>
0.1

>  <FCSP3>
0.78

>  <SZ>
48.67

>  <Sm>
45.02

>  <Sv>
48.92

>  <Sse>
82.85

>  <Sp>
52.93

>  <Si>
93.6

>  <MZ>
0.59

>  <Mm>
0.54

>  <Mv>
0.59

>  <Mse>
1

>  <Mp>
0.64

>  <Mi>
1.13

>  <NsCH3>
4

>  <NdCH2>
0

>  <NssCH2>
10

>  <NtCH>
0

>  <NdsCH>
3

>  <NaaCH>
0

>  <NsssCH>
8

>  <NddC>
0

>  <NtsC>
0

>  <NdssC>
4

>  <NaasC>
0

>  <NaaaC>
0

>  <NssssC>
3

>  <NsNH3>
0

>  <NsNH2>
0

>  <NssNH2>
0

>  <NdNH>
0

>  <NssNH>
0

>  <NaaNH>
0

>  <NtN>
0

>  <NsssNH>
0

>  <NdsN>
0

>  <NaaN>
0

>  <NsssN>
0

>  <NddsN>
0

>  <NaasN>
0

>  <NssssN>
0

>  <NsOH>
1

>  <NdO>
3

>  <NssO>
3

>  <NaaO>
0

>  <NsF>
0

>  <NsSiH3>
0

>  <NssSiH2>
0

>  <NsssSiH>
0

>  <NssssSi>
0

>  <NsPH2>
0

>  <NssPH>
0

>  <NsssP>
0

>  <NdsssP>
0

>  <NsssssP>
0

>  <NsSH>
0

>  <NdS>
0

>  <NssS>
0

>  <NaaS>
0

>  <NdssS>
0

>  <NddssS>
0

>  <NsCl>
0

>  <NsBr>
0

>  <NsI>
0

>  <fragCpx>
454.07

>  <fMF>
0.31

>  <nHBAcc>
7

>  <nHBDon>
1

>  <Kier1>
29.09

>  <Kier2>
10.62

>  <Lipinski>
0

>  <GhoseFilter>
0

>  <FilterItLogS>
-4.38

>  <VMcGowan>
416.17

>  <LabuteASA>
231.26

>  <PEOE_VSA1>
19.32

>  <PEOE_VSA2>
14.38

>  <PEOE_VSA3>
0

>  <PEOE_VSA4>
0

>  <PEOE_VSA5>
0

>  <PEOE_VSA6>
58.61

>  <PEOE_VSA7>
62.51

>  <PEOE_VSA8>
22.67

>  <PEOE_VSA9>
18.13

>  <PEOE_VSA10>
0

>  <PEOE_VSA11>
24.28

>  <PEOE_VSA12>
5.78

>  <PEOE_VSA13>
0

>  <SMR_VSA1>
33.7

>  <SMR_VSA2>
0

>  <SMR_VSA3>
0

>  <SMR_VSA4>
40.42

>  <SMR_VSA5>
109.58

>  <SMR_VSA6>
6.61

>  <SMR_VSA7>
23.8

>  <SMR_VSA8>
0

>  <SMR_VSA9>
0

>  <SlogP_VSA1>
0

>  <SlogP_VSA2>
53.35

>  <SlogP_VSA3>
28.59

>  <SlogP_VSA4>
40.42

>  <SlogP_VSA5>
85.48

>  <SlogP_VSA6>
23.8

>  <SlogP_VSA7>
0

>  <SlogP_VSA8>
0

>  <SlogP_VSA9>
0

>  <SlogP_VSA10>
0

>  <SlogP_VSA11>
0

>  <EState_VSA1>
35.48

>  <EState_VSA2>
53.18

>  <EState_VSA3>
12.84

>  <EState_VSA4>
44.1

>  <EState_VSA5>
6.42

>  <EState_VSA6>
26

>  <EState_VSA7>
6.08

>  <EState_VSA8>
13.85

>  <EState_VSA9>
14.21

>  <EState_VSA10>
19.49

>  <VSA_EState1>
19.04

>  <VSA_EState2>
38.74

>  <VSA_EState3>
11.87

>  <VSA_EState4>
-1.19

>  <VSA_EState5>
-0.47

>  <VSA_EState6>
0

>  <VSA_EState7>
12.16

>  <VSA_EState8>
7.44

>  <VSA_EState9>
0

>  <apol>
88.39

>  <bpol>
51.95

>  <nRing>
6

>  <nHRing>
1

>  <naRing>
0

>  <naHRing>
0

>  <nARing 2>
6

>  <nAHRing 2>
1

>  <nFRing>
1

>  <nFHRing>
1

>  <nFaRing>
0

>  <nFaHRing>
0

>  <nFARing 2>
1

>  <nFAHRing 2>
1

>  <nRot>
5

>  <SLogP>
4.7

>  <SMR>
143.24

>  <TopoPSA(NO)>
99.13

>  <TopoPSA>
99.13

>  <JGI1>
0.25

>  <JGI2>
0.12

>  <JGI3>
0.07

>  <JGI4>
0.05

>  <JGI5>
0.03

>  <Diameter>
15

>  <Radius>
8

>  <TMWC10>
166.56

>  <TSRW10>
94

>  <MW>
540.31

>  <AMW>
6.51

>  <WPath>
4484

>  <WPol>
83

>  <Zagreb1>
228

>  <Zagreb2>
289

>  <mZagreb2>
8.16

>  <yes>


>  <nAR-cont>
0

>  <nHA-cont>
0.348277641

>  <MWHBN>
0.344166412

>  <MWHBN-cont>
0.691895573

>  <TPSA-cont>
0.308011044

>  <pka_cont>
0.97

>  <yes.1>


>  <BBB_SCORE>
2.487143089

>  <MMFF94 Energy>
119.3

$$$$
Compound 915
Actelion Java MolfileCreator 2.0

  0  0  0  0  0  0              0 V3000
M  V30 BEGIN CTAB
M  V30 COUNTS 66 69 0 0 0
M  V30 BEGIN ATOM
M  V30 1 S -0.7271 -0.7271 2.1017 0
M  V30 2 C -1.0594 -1.1349 0.3084 0
M  V30 3 C -1.5323 0.9231 2.029 0 CFG=1
M  V30 4 C -1.4851 0.1909 -0.3793 0 CFG=1
M  V30 5 C 0.1983 -1.8065 -0.2535 0
M  V30 6 C -2.2108 -2.1558 0.279 0
M  V30 7 N -2.0669 1.0006 0.6784 0
M  V30 8 C -2.9893 1.0242 2.559 0 CFG=1
M  V30 9 C -0.3398 0.9082 -1.1073 0
M  V30 10 C -3.3755 0.9915 1.0455 0
M  V30 11 N -3.4737 -0.1259 3.3662 0
M  V30 12 O 0.185 0.4696 -2.1261 0
M  V30 13 O 0.0304 2.0701 -0.4376 0
M  V30 14 O -4.3668 0.8503 0.3703 0
M  V30 15 C -4.6965 -0.1079 3.9977 0
M  V30 16 C 1.1046 2.7411 -1.0232 0
M  V30 17 O -5.3947 0.9007 4.0563 0
M  V30 18 C -5.0862 -1.4076 4.6816 0
M  V30 19 C 2.408 2.3128 -0.7729 0
M  V30 20 C 0.8454 3.8749 -1.7878 0
M  V30 21 C -4.9072 -2.6302 3.8107 0
M  V30 22 C 3.4845 3.0184 -1.3256 0
M  V30 23 C 1.9131 4.573 -2.3472 0
M  V30 24 C -5.6493 -2.7715 2.6291 0
M  V30 25 C -3.9908 -3.6306 4.1629 0
M  V30 26 C 3.2244 4.1438 -2.1235 0
M  V30 27 C 4.8984 2.5469 -1.1076 0
M  V30 28 C -5.4711 -3.8882 1.8121 0
M  V30 29 C -3.8149 -4.7463 3.3432 0
M  V30 30 O 5.1643 1.4319 -1.9654 0
M  V30 31 C -4.5537 -4.8743 2.1684 0
M  V30 32 C 5.7526 1.733 -3.1565 0
M  V30 33 O 6.1119 2.8492 -3.5056 0
M  V30 34 C 5.9121 0.4694 -3.982 0
M  V30 35 C 6.0488 0.8067 -5.4642 0
M  V30 36 C 7.1179 -0.3193 -3.4864 0
M  V30 37 H -0.8826 1.7642 2.2874 0
M  V30 38 H -2.2612 0.0129 -1.1344 0
M  V30 39 H 1.0858 -1.1695 -0.1678 0
M  V30 40 H 0.4223 -2.7437 0.2707 0
M  V30 41 H 0.0635 -2.0599 -1.3111 0
M  V30 42 H -1.9485 -3.0782 0.8105 0
M  V30 43 H -3.1299 -1.7659 0.7268 0
M  V30 44 H -2.448 -2.4343 -0.7544 0
M  V30 45 H -3.2097 1.9859 3.0368 0
M  V30 46 H -2.9522 -0.9985 3.3487 0
M  V30 47 H -6.1374 -1.3437 4.9872 0
M  V30 48 H -4.4888 -1.4917 5.5971 0
M  V30 49 H 2.5844 1.4299 -0.1652 0
M  V30 50 H -0.1739 4.2076 -1.9571 0
M  V30 51 H 1.7279 5.4491 -2.9637 0
M  V30 52 H -6.3683 -2.0082 2.3335 0
M  V30 53 H -3.4084 -3.5524 5.0785 0
M  V30 54 H 4.0474 4.6894 -2.584 0
M  V30 55 H 5.6245 3.3592 -1.2349 0
M  V30 56 H 5.0136 2.2015 -0.0735 0
M  V30 57 H -6.0501 -3.9875 0.8973 0
M  V30 58 H -3.1041 -5.5197 3.6231 0
M  V30 59 H -4.4184 -5.7453 1.5324 0
M  V30 60 H 5.0011 -0.1297 -3.8606 0
M  V30 61 H 6.101 -0.1056 -6.0672 0
M  V30 62 H 5.1905 1.3932 -5.8103 0
M  V30 63 H 6.952 1.3953 -5.6602 0
M  V30 64 H 7.0024 -0.5914 -2.4316 0
M  V30 65 H 8.0394 0.2669 -3.5743 0
M  V30 66 H 7.2437 -1.243 -4.0606 0
M  V30 END ATOM
M  V30 BEGIN BOND
M  V30 1 1 1 2
M  V30 2 1 1 3
M  V30 3 1 2 4
M  V30 4 1 2 5
M  V30 5 1 2 6
M  V30 6 1 3 7
M  V30 7 1 3 8
M  V30 8 1 4 9
M  V30 9 1 7 10
M  V30 10 1 8 11
M  V30 11 2 9 12
M  V30 12 1 9 13
M  V30 13 2 10 14
M  V30 14 1 11 15
M  V30 15 1 13 16
M  V30 16 2 15 17
M  V30 17 1 15 18
M  V30 18 2 16 19
M  V30 19 1 16 20
M  V30 20 1 18 21
M  V30 21 1 19 22
M  V30 22 2 20 23
M  V30 23 2 21 24
M  V30 24 1 21 25
M  V30 25 2 22 26
M  V30 26 1 22 27
M  V30 27 1 24 28
M  V30 28 2 25 29
M  V30 29 1 27 30
M  V30 30 2 28 31
M  V30 31 1 30 32
M  V30 32 2 32 33
M  V30 33 1 32 34
M  V30 34 1 34 35
M  V30 35 1 34 36
M  V30 36 1 4 7
M  V30 37 1 8 10
M  V30 38 1 23 26
M  V30 39 1 29 31
M  V30 40 1 3 37
M  V30 41 1 4 38
M  V30 42 1 5 39
M  V30 43 1 5 40
M  V30 44 1 5 41
M  V30 45 1 6 42
M  V30 46 1 6 43
M  V30 47 1 6 44
M  V30 48 1 8 45
M  V30 49 1 11 46
M  V30 50 1 18 47
M  V30 51 1 18 48
M  V30 52 1 19 49
M  V30 53 1 20 50
M  V30 54 1 23 51
M  V30 55 1 24 52
M  V30 56 1 25 53
M  V30 57 1 26 54
M  V30 58 1 27 55
M  V30 59 1 27 56
M  V30 60 1 28 57
M  V30 61 1 29 58
M  V30 62 1 31 59
M  V30 63 1 34 60
M  V30 64 1 35 61
M  V30 65 1 35 62
M  V30 66 1 35 63
M  V30 67 1 36 64
M  V30 68 1 36 65
M  V30 69 1 36 66
M  V30 END BOND
M  V30 BEGIN COLLECTION
M  V30 MDLV30/STEABS ATOMS=(3 3 4 8)
M  V30 END COLLECTION
M  V30 END CTAB
M  END
>  <Column 1>
1095

>  <level_0>
1234

>  <index>
1234

>  <Unnamed: 0>
1234

>  <NO.>
1246

>  <Name>
tobicillin

>  <IUPAC_name>
[3-(2-methylpropanoyloxymethyl)phenyl] (2s-5r-6r)-3-3-dimethyl-7-oxo-6-[(2-phenylacetyl)amino]-4-thia-1-azabicyclo[3.2.0]heptane-2-carboxylate

>  <SMILES>
CC(C)C(=O)OCc1cccc(OC(=O)[C@@H]2N3C(=O)[C@@H](NC(=O)Cc4ccccc4)[C@H]3SC2(C)C)c1

>  <CID>
216265

>  <logBB>


>  <BBB+/BBB->
BBB-

>  <Inchi>
InChI=1S/C27H30N2O6S/c1-16(2)25(32)34-15-18-11-8-12-19(13-18)35-26(33)22-27(3-4)36-24-21(23(31)29(22)24)28-20(30)14-17-9-6-5-7-10-17/h5-13-16-21-22-24H-14-15H2-1-4H3-(H-28-30)/t21--22+-24-/m1/s1

>  <threshold>
-1

>  <reference>
R1|R6|R27|R30|

>  <group>
B

>  <Class>
1

>  <ABC>
28.21

>  <ABCGG>
21.59

>  <nAcid>
0

>  <nBase>
0

>  <nAromAtom>
12

>  <nAromBond>
12

>  <nAtom>
66

>  <nHeavyAtom>
36

>  <nSpiro>
0

>  <nBridgehead>
0

>  <nHetero>
9

>  <nN>
2

>  <nO>
6

>  <nF>
0

>  <BalabanJ>
1.28

>  <BertzCT>
1165.86

>  <nBonds>
69

>  <nBondsO>
39

>  <nBondsS>
53

>  <nBondsD>
4

>  <nBondsT>
0

>  <nBondsA>
12

>  <nBondsM>
16

>  <nBondsKS>
59

>  <nBondsKD>
10

>  <RNCG>
0.14

>  <RPCG>
0.1

>  <FCSP3>
0.41

>  <SZ>
45

>  <Sm>
42.51

>  <Sv>
42.12

>  <Sse>
66.7

>  <Sp>
44.91

>  <Si>
73.99

>  <MZ>
0.68

>  <Mm>
0.64

>  <Mv>
0.64

>  <Mse>
1.01

>  <Mp>
0.68

>  <Mi>
1.12

>  <NsCH3>
4

>  <NdCH2>
0

>  <NssCH2>
2

>  <NtCH>
0

>  <NdsCH>
0

>  <NaaCH>
9

>  <NsssCH>
4

>  <NddC>
0

>  <NtsC>
0

>  <NdssC>
4

>  <NaasC>
3

>  <NaaaC>
0

>  <NssssC>
1

>  <NsNH3>
0

>  <NsNH2>
0

>  <NssNH2>
0

>  <NdNH>
0

>  <NssNH>
1

>  <NaaNH>
0

>  <NtN>
0

>  <NsssNH>
0

>  <NdsN>
0

>  <NaaN>
0

>  <NsssN>
1

>  <NddsN>
0

>  <NaasN>
0

>  <NssssN>
0

>  <NsOH>
0

>  <NdO>
4

>  <NssO>
2

>  <NaaO>
0

>  <NsF>
0

>  <NsSiH3>
0

>  <NssSiH2>
0

>  <NsssSiH>
0

>  <NssssSi>
0

>  <NsPH2>
0

>  <NssPH>
0

>  <NsssP>
0

>  <NdsssP>
0

>  <NsssssP>
0

>  <NsSH>
0

>  <NdS>
0

>  <NssS>
1

>  <NaaS>
0

>  <NdssS>
0

>  <NddssS>
0

>  <NsCl>
0

>  <NsBr>
0

>  <NsI>
0

>  <fragCpx>
261.09

>  <fMF>
0.36

>  <nHBAcc>
7

>  <nHBDon>
1

>  <Kier1>
28.99

>  <Kier2>
12.45

>  <Lipinski>
0

>  <GhoseFilter>
0

>  <FilterItLogS>
-5.16

>  <VMcGowan>
376.38

>  <LabuteASA>
214.26

>  <PEOE_VSA1>
19.69

>  <PEOE_VSA2>
14.38

>  <PEOE_VSA3>
4.79

>  <PEOE_VSA4>
0

>  <PEOE_VSA5>
11.76

>  <PEOE_VSA6>
56.31

>  <PEOE_VSA7>
37.11

>  <PEOE_VSA8>
4.75

>  <PEOE_VSA9>
12.34

>  <PEOE_VSA10>
29.81

>  <PEOE_VSA11>
0

>  <PEOE_VSA12>
11.81

>  <PEOE_VSA13>
0

>  <SMR_VSA1>
28.65

>  <SMR_VSA2>
0

>  <SMR_VSA3>
10.22

>  <SMR_VSA4>
5.92

>  <SMR_VSA5>
62.93

>  <SMR_VSA6>
0

>  <SMR_VSA7>
65.72

>  <SMR_VSA8>
0

>  <SMR_VSA9>
5.75

>  <SlogP_VSA1>
10.05

>  <SlogP_VSA2>
50.86

>  <SlogP_VSA3>
36.94

>  <SlogP_VSA4>
5.92

>  <SlogP_VSA5>
38.82

>  <SlogP_VSA6>
54.6

>  <SlogP_VSA7>
0

>  <SlogP_VSA8>
0

>  <SlogP_VSA9>
0

>  <SlogP_VSA10>
0

>  <SlogP_VSA11>
5.75

>  <EState_VSA1>
22.8

>  <EState_VSA2>
42.1

>  <EState_VSA3>
11.31

>  <EState_VSA4>
5.56

>  <EState_VSA5>
16.66

>  <EState_VSA6>
38.11

>  <EState_VSA7>
44.18

>  <EState_VSA8>
5.32

>  <EState_VSA9>
9.47

>  <EState_VSA10>
19.18

>  <VSA_EState1>
10.29

>  <VSA_EState2>
51.95

>  <VSA_EState3>
2.49

>  <VSA_EState4>
1.55

>  <VSA_EState5>
-1.32

>  <VSA_EState6>
14.61

>  <VSA_EState7>
0.18

>  <VSA_EState8>
7.36

>  <VSA_EState9>
0

>  <apol>
75.01

>  <bpol>
41.78

>  <nRing>
4

>  <nHRing>
2

>  <naRing>
2

>  <naHRing>
0

>  <nARing 2>
2

>  <nAHRing 2>
2

>  <nFRing>
1

>  <nFHRing>
1

>  <nFaRing>
0

>  <nFaHRing>
0

>  <nFARing 2>
1

>  <nFAHRing 2>
1

>  <nRot>
8

>  <SLogP>
3.08

>  <SMR>
134.88

>  <TopoPSA(NO)>
102.01

>  <TopoPSA>
127.31

>  <JGI1>
0.23

>  <JGI2>
0.08

>  <JGI3>
0.07

>  <JGI4>
0.05

>  <JGI5>
0.03

>  <Diameter>
20

>  <Radius>
10

>  <TMWC10>
154.75

>  <TSRW10>
88

>  <MW>
510.18

>  <AMW>
7.73

>  <WPath>
4636

>  <WPol>
55

>  <Zagreb1>
192

>  <Zagreb2>
227

>  <mZagreb2>
7.74

>  <yes>


>  <nAR-cont>
1

>  <nHA-cont>
0.477843619

>  <MWHBN>
0.354183457

>  <MWHBN-cont>
0.654527538

>  <TPSA-cont>
0

>  <pka_cont>
0.97

>  <yes.1>


>  <BBB_SCORE>
2.944634925

>  <MMFF94 Energy>
88.505

$$$$
Compound 916
Actelion Java MolfileCreator 2.0

  0  0  0  0  0  0              0 V3000
M  V30 BEGIN CTAB
M  V30 COUNTS 22 21 0 0 0
M  V30 BEGIN ATOM
M  V30 1 Br -1.3396 -0.0787 -2.1283 0
M  V30 2 C -0.514 -0.6261 -0.4222 0 CFG=2
M  V30 3 C -0.0237 0.6447 0.2787 0
M  V30 4 C 0.5045 -1.7525 -0.6693 0
M  V30 5 O 1.1347 0.7918 0.6509 0
M  V30 6 N -1.0332 1.5796 0.4653 0
M  V30 7 C 1.7567 -1.342 -1.4524 0
M  V30 8 C 0.9109 -2.4188 0.6498 0
M  V30 9 C -0.9618 2.6728 1.2832 0
M  V30 10 O -0.1595 2.8713 2.1824 0
M  V30 11 N -1.9691 3.5627 1.0619 0
M  V30 12 H -1.359 -1.0192 0.1567 0
M  V30 13 H 0.0028 -2.5278 -1.2654 0
M  V30 14 H -1.8922 1.4492 -0.0426 0
M  V30 15 H 1.506 -0.8717 -2.4072 0
M  V30 16 H 2.3921 -0.6528 -0.8896 0
M  V30 17 H 2.3643 -2.2257 -1.6788 0
M  V30 18 H 1.5468 -3.2906 0.4613 0
M  V30 19 H 0.0289 -2.7657 1.1987 0
M  V30 20 H 1.4674 -1.7352 1.2983 0
M  V30 21 H -2.5767 3.5471 0.259 0
M  V30 22 H -1.9802 4.3816 1.6578 0
M  V30 END ATOM
M  V30 BEGIN BOND
M  V30 1 1 1 2
M  V30 2 1 2 3
M  V30 3 1 2 4
M  V30 4 2 3 5
M  V30 5 1 3 6
M  V30 6 1 4 7
M  V30 7 1 4 8
M  V30 8 1 6 9
M  V30 9 2 9 10
M  V30 10 1 9 11
M  V30 11 1 2 12
M  V30 12 1 4 13
M  V30 13 1 6 14
M  V30 14 1 7 15
M  V30 15 1 7 16
M  V30 16 1 7 17
M  V30 17 1 8 18
M  V30 18 1 8 19
M  V30 19 1 8 20
M  V30 20 1 11 21
M  V30 21 1 11 22
M  V30 END BOND
M  V30 BEGIN COLLECTION
M  V30 MDLV30/STERAC1 ATOMS=(1 2)
M  V30 END COLLECTION
M  V30 END CTAB
M  END
>  <Column 1>
1096

>  <level_0>
1235

>  <index>
1235

>  <Unnamed: 0>
1235

>  <NO.>
1247

>  <Name>
bromisoval

>  <IUPAC_name>
2-bromo-n-carbamoyl-3-methylbutanamide

>  <SMILES>
CC(C)C(Br)C(=O)NC(N)=O

>  <CID>
2447

>  <logBB>


>  <BBB+/BBB->
BBB+

>  <Inchi>
InChI=1S/C6H11BrN2O2/c1-3(2)4(7)5(10)9-6(8)11/h3-4H-1-2H3-(H3-8-9-10-11)

>  <threshold>
-1

>  <reference>
R1|R19|R6|R27|R27|R30|

>  <group>
B

>  <Class>
1

>  <ABC>
7.65

>  <ABCGG>
8.03

>  <nAcid>
0

>  <nBase>
0

>  <nAromAtom>
0

>  <nAromBond>
0

>  <nAtom>
22

>  <nHeavyAtom>
11

>  <nSpiro>
0

>  <nBridgehead>
0

>  <nHetero>
5

>  <nN>
2

>  <nO>
2

>  <nF>
0

>  <BalabanJ>
3.73

>  <BertzCT>
169.97

>  <nBonds>
21

>  <nBondsO>
10

>  <nBondsS>
19

>  <nBondsD>
2

>  <nBondsT>
0

>  <nBondsA>
0

>  <nBondsM>
2

>  <nBondsKS>
19

>  <nBondsKD>
2

>  <RNCG>
0.26

>  <RPCG>
0.23

>  <FCSP3>
0.67

>  <SZ>
18.67

>  <Sm>
18.57

>  <Sv>
13.21

>  <Sse>
22.54

>  <Sp>
14.5

>  <Si>
25.33

>  <MZ>
0.85

>  <Mm>
0.84

>  <Mv>
0.6

>  <Mse>
1.02

>  <Mp>
0.66

>  <Mi>
1.15

>  <NsCH3>
2

>  <NdCH2>
0

>  <NssCH2>
0

>  <NtCH>
0

>  <NdsCH>
0

>  <NaaCH>
0

>  <NsssCH>
2

>  <NddC>
0

>  <NtsC>
0

>  <NdssC>
2

>  <NaasC>
0

>  <NaaaC>
0

>  <NssssC>
0

>  <NsNH3>
0

>  <NsNH2>
1

>  <NssNH2>
0

>  <NdNH>
0

>  <NssNH>
1

>  <NaaNH>
0

>  <NtN>
0

>  <NsssNH>
0

>  <NdsN>
0

>  <NaaN>
0

>  <NsssN>
0

>  <NddsN>
0

>  <NaasN>
0

>  <NssssN>
0

>  <NsOH>
0

>  <NdO>
2

>  <NssO>
0

>  <NaaO>
0

>  <NsF>
0

>  <NsSiH3>
0

>  <NssSiH2>
0

>  <NsssSiH>
0

>  <NssssSi>
0

>  <NsPH2>
0

>  <NssPH>
0

>  <NsssP>
0

>  <NdsssP>
0

>  <NsssssP>
0

>  <NsSH>
0

>  <NdS>
0

>  <NssS>
0

>  <NaaS>
0

>  <NdssS>
0

>  <NddssS>
0

>  <NsCl>
0

>  <NsBr>
1

>  <NsI>
0

>  <fragCpx>
10.05

>  <fMF>
0

>  <nHBAcc>
2

>  <nHBDon>
2

>  <Kier1>
11

>  <Kier2>
4.79

>  <Lipinski>
1

>  <GhoseFilter>
1

>  <FilterItLogS>
-1.2

>  <VMcGowan>
136

>  <LabuteASA>
73.64

>  <PEOE_VSA1>
5.73

>  <PEOE_VSA2>
10.11

>  <PEOE_VSA3>
4.79

>  <PEOE_VSA4>
0

>  <PEOE_VSA5>
0

>  <PEOE_VSA6>
29.78

>  <PEOE_VSA7>
5.92

>  <PEOE_VSA8>
0

>  <PEOE_VSA9>
4.83

>  <PEOE_VSA10>
0

>  <PEOE_VSA11>
0

>  <PEOE_VSA12>
5.91

>  <PEOE_VSA13>
0

>  <SMR_VSA1>
9.59

>  <SMR_VSA2>
0

>  <SMR_VSA3>
5.32

>  <SMR_VSA4>
11.65

>  <SMR_VSA5>
18.67

>  <SMR_VSA6>
0

>  <SMR_VSA7>
0

>  <SMR_VSA8>
0

>  <SMR_VSA9>
0

>  <SlogP_VSA1>
11.05

>  <SlogP_VSA2>
16.77

>  <SlogP_VSA3>
4.79

>  <SlogP_VSA4>
5.92

>  <SlogP_VSA5>
13.85

>  <SlogP_VSA6>
0

>  <SlogP_VSA7>
0

>  <SlogP_VSA8>
0

>  <SlogP_VSA9>
0

>  <SlogP_VSA10>
4.79

>  <SlogP_VSA11>
0

>  <EState_VSA1>
11.94

>  <EState_VSA2>
10.75

>  <EState_VSA3>
0

>  <EState_VSA4>
0

>  <EState_VSA5>
0

>  <EState_VSA6>
0

>  <EState_VSA7>
19.16

>  <EState_VSA8>
15.93

>  <EState_VSA9>
5.73

>  <EState_VSA10>
9.59

>  <VSA_EState1>
0

>  <VSA_EState2>
20.78

>  <VSA_EState3>
1.98

>  <VSA_EState4>
4.74

>  <VSA_EState5>
-0.26

>  <VSA_EState6>
-0.82

>  <VSA_EState7>
0

>  <VSA_EState8>
3.72

>  <VSA_EState9>
0

>  <apol>
24.21

>  <bpol>
14.15

>  <nRing>
0

>  <nHRing>
0

>  <naRing>
0

>  <naHRing>
0

>  <nARing 2>
0

>  <nAHRing 2>
0

>  <nFRing>
0

>  <nFHRing>
0

>  <nFaRing>
0

>  <nFaHRing>
0

>  <nFARing 2>
0

>  <nFAHRing 2>
0

>  <nRot>
2

>  <SLogP>
0.6

>  <SMR>
45.28

>  <TopoPSA(NO)>
72.19

>  <TopoPSA>
72.19

>  <JGI1>
0.35

>  <JGI2>
0.12

>  <JGI3>
0.07

>  <JGI4>
0.03

>  <JGI5>
0.04

>  <Diameter>
6

>  <Radius>
3

>  <TMWC10>
83.44

>  <TSRW10>
39.88

>  <MW>
222

>  <AMW>
10.09

>  <WPath>
166

>  <WPol>
12

>  <Zagreb1>
46

>  <Zagreb2>
48

>  <mZagreb2>
2.56

>  <yes>


>  <nAR-cont>
0.336376

>  <nHA-cont>
0.720786536

>  <MWHBN>
0.268462422

>  <MWHBN-cont>
0.923570145

>  <TPSA-cont>
0.496068973

>  <pka_cont>
0.97

>  <yes.1>


>  <BBB_SCORE>
3.919655698

>  <MMFF94 Energy>
-76.124

$$$$
Compound 917
Actelion Java MolfileCreator 2.0

  0  0  0  0  0  0              0 V3000
M  V30 BEGIN CTAB
M  V30 COUNTS 47 47 0 0 0
M  V30 BEGIN ATOM
M  V30 1 F -2.1922 -4.4666 5.0948 0
M  V30 2 C -1.8325 -3.3563 4.4371 0
M  V30 3 C -2.3946 -2.1366 4.7961 0
M  V30 4 C -0.9063 -3.4415 3.4053 0
M  V30 5 C -2.0232 -0.9776 4.1122 0
M  V30 6 C -0.533 -2.2846 2.7206 0
M  V30 7 C -1.0841 -1.0401 3.0706 0
M  V30 8 C -0.6802 0.2082 2.317 0
M  V30 9 N -1.2232 0.1822 0.9579 0
M  V30 10 C -1.0286 1.444 0.2177 0 CFG=2
M  V30 11 C -1.892 1.4296 -1.0885 0
M  V30 12 C 0.4754 1.7134 -0.0468 0
M  V30 13 C -3.3983 1.3394 -0.7887 0
M  V30 14 C -1.6573 2.6715 -1.9602 0
M  V30 15 C 1.1833 0.6319 -0.8738 0
M  V30 16 C 2.6618 0.9754 -1.077 0
M  V30 17 C 3.448 -0.126 -1.7926 0
M  V30 18 C 2.9879 -0.3657 -3.2299 0
M  V30 19 C 3.8779 -1.3505 -3.9398 0
M  V30 20 O 4.8183 -1.9726 -3.4776 0
M  V30 21 O 3.5206 -1.5087 -5.2299 0
M  V30 22 H -3.1184 -2.0969 5.6038 0
M  V30 23 H -0.4845 -4.4046 3.1376 0
M  V30 24 H -2.47 -0.0274 4.3961 0
M  V30 25 H 0.1834 -2.3499 1.9038 0
M  V30 26 H 0.4144 0.2508 2.3098 0
M  V30 27 H -1.038 1.093 2.8577 0
M  V30 28 H -2.2168 -0.0273 1.0334 0
M  V30 29 H -1.4035 2.2708 0.8374 0
M  V30 30 H -1.6267 0.5489 -1.6877 0
M  V30 31 H 0.9999 1.8309 0.9095 0
M  V30 32 H 0.5939 2.6849 -0.5409 0
M  V30 33 H -3.6682 0.3812 -0.3358 0
M  V30 34 H -3.7153 2.1414 -0.1133 0
M  V30 35 H -3.985 1.4244 -1.7103 0
M  V30 36 H -0.645 2.687 -2.3743 0
M  V30 37 H -2.3439 2.6863 -2.814 0
M  V30 38 H -1.812 3.592 -1.3871 0
M  V30 39 H 0.6937 0.5352 -1.8476 0
M  V30 40 H 1.1053 -0.338 -0.3697 0
M  V30 41 H 3.1284 1.1473 -0.099 0
M  V30 42 H 2.7497 1.9137 -1.6383 0
M  V30 43 H 3.3799 -1.06 -1.2208 0
M  V30 44 H 4.5088 0.1557 -1.7945 0
M  V30 45 H 1.9699 -0.768 -3.2432 0
M  V30 46 H 3.0099 0.5772 -3.7872 0
M  V30 47 H 4.1605 -2.1674 -5.5727 0
M  V30 END ATOM
M  V30 BEGIN BOND
M  V30 1 1 1 2
M  V30 2 2 2 3
M  V30 3 1 2 4
M  V30 4 1 3 5
M  V30 5 2 4 6
M  V30 6 2 5 7
M  V30 7 1 7 8
M  V30 8 1 8 9
M  V30 9 1 9 10
M  V30 10 1 10 11
M  V30 11 1 10 12
M  V30 12 1 11 13
M  V30 13 1 11 14
M  V30 14 1 12 15
M  V30 15 1 15 16
M  V30 16 1 16 17
M  V30 17 1 17 18
M  V30 18 1 18 19
M  V30 19 2 19 20
M  V30 20 1 19 21
M  V30 21 1 6 7
M  V30 22 1 3 22
M  V30 23 1 4 23
M  V30 24 1 5 24
M  V30 25 1 6 25
M  V30 26 1 8 26
M  V30 27 1 8 27
M  V30 28 1 9 28
M  V30 29 1 10 29
M  V30 30 1 11 30
M  V30 31 1 12 31
M  V30 32 1 12 32
M  V30 33 1 13 33
M  V30 34 1 13 34
M  V30 35 1 13 35
M  V30 36 1 14 36
M  V30 37 1 14 37
M  V30 38 1 14 38
M  V30 39 1 15 39
M  V30 40 1 15 40
M  V30 41 1 16 41
M  V30 42 1 16 42
M  V30 43 1 17 43
M  V30 44 1 17 44
M  V30 45 1 18 45
M  V30 46 1 18 46
M  V30 47 1 21 47
M  V30 END BOND
M  V30 BEGIN COLLECTION
M  V30 MDLV30/STERAC1 ATOMS=(1 10)
M  V30 END COLLECTION
M  V30 END CTAB
M  END
>  <Column 1>
1097

>  <level_0>
1236

>  <index>
1236

>  <Unnamed: 0>
1236

>  <NO.>
1248

>  <Name>
zafuleptine

>  <IUPAC_name>
7-[(4-fluorophenyl)methylamino]-8-methylnonanoic acid

>  <SMILES>
CC(C)C(CCCCCC(=O)O)NCc1ccc(F)cc1

>  <CID>
68789

>  <logBB>


>  <BBB+/BBB->
BBB+

>  <Inchi>
InChI=1S/C17H26FNO2/c1-13(2)16(6-4-3-5-7-17(20)21)19-12-14-8-10-15(18)11-9-14/h8-11-13-16-19H-3-7-12H2-1-2H3-(H-20-21)

>  <threshold>
-1

>  <reference>
R1|R19|R6|R27|R27|R30|

>  <group>
B

>  <Class>
1

>  <ABC>
15.36

>  <ABCGG>
12.86

>  <nAcid>
1

>  <nBase>
1

>  <nAromAtom>
6

>  <nAromBond>
6

>  <nAtom>
47

>  <nHeavyAtom>
21

>  <nSpiro>
0

>  <nBridgehead>
0

>  <nHetero>
4

>  <nN>
1

>  <nO>
2

>  <nF>
1

>  <BalabanJ>
2.14

>  <BertzCT>
417.3

>  <nBonds>
47

>  <nBondsO>
21

>  <nBondsS>
40

>  <nBondsD>
1

>  <nBondsT>
0

>  <nBondsA>
6

>  <nBondsM>
7

>  <nBondsKS>
43

>  <nBondsKD>
4

>  <RNCG>
0.27

>  <RPCG>
0.17

>  <FCSP3>
0.59

>  <SZ>
26.67

>  <Sm>
24.59

>  <Sv>
26.88

>  <Sse>
46.82

>  <Sp>
29.33

>  <Si>
53.66

>  <MZ>
0.57

>  <Mm>
0.52

>  <Mv>
0.57

>  <Mse>
1

>  <Mp>
0.62

>  <Mi>
1.14

>  <NsCH3>
2

>  <NdCH2>
0

>  <NssCH2>
6

>  <NtCH>
0

>  <NdsCH>
0

>  <NaaCH>
4

>  <NsssCH>
2

>  <NddC>
0

>  <NtsC>
0

>  <NdssC>
1

>  <NaasC>
2

>  <NaaaC>
0

>  <NssssC>
0

>  <NsNH3>
0

>  <NsNH2>
0

>  <NssNH2>
0

>  <NdNH>
0

>  <NssNH>
1

>  <NaaNH>
0

>  <NtN>
0

>  <NsssNH>
0

>  <NdsN>
0

>  <NaaN>
0

>  <NsssN>
0

>  <NddsN>
0

>  <NaasN>
0

>  <NssssN>
0

>  <NsOH>
1

>  <NdO>
1

>  <NssO>
0

>  <NaaO>
0

>  <NsF>
1

>  <NsSiH3>
0

>  <NssSiH2>
0

>  <NsssSiH>
0

>  <NssssSi>
0

>  <NsPH2>
0

>  <NssPH>
0

>  <NsssP>
0

>  <NdsssP>
0

>  <NsssssP>
0

>  <NsSH>
0

>  <NdS>
0

>  <NssS>
0

>  <NaaS>
0

>  <NdssS>
0

>  <NddssS>
0

>  <NsCl>
0

>  <NsBr>
0

>  <NsI>
0

>  <fragCpx>
21.04

>  <fMF>
0.13

>  <nHBAcc>
2

>  <nHBDon>
2

>  <Kier1>
19.05

>  <Kier2>
10.68

>  <Lipinski>
1

>  <GhoseFilter>
1

>  <FilterItLogS>
-4.79

>  <VMcGowan>
245.81

>  <LabuteASA>
126.12

>  <PEOE_VSA1>
10.42

>  <PEOE_VSA2>
4.79

>  <PEOE_VSA3>
4.39

>  <PEOE_VSA4>
0

>  <PEOE_VSA5>
0

>  <PEOE_VSA6>
38.82

>  <PEOE_VSA7>
36.46

>  <PEOE_VSA8>
19.01

>  <PEOE_VSA9>
0

>  <PEOE_VSA10>
5.82

>  <PEOE_VSA11>
0

>  <PEOE_VSA12>
0

>  <PEOE_VSA13>
0

>  <SMR_VSA1>
14.29

>  <SMR_VSA2>
0

>  <SMR_VSA3>
5.32

>  <SMR_VSA4>
5.92

>  <SMR_VSA5>
58.54

>  <SMR_VSA6>
0

>  <SMR_VSA7>
35.65

>  <SMR_VSA8>
0

>  <SMR_VSA9>
0

>  <SlogP_VSA1>
5.32

>  <SlogP_VSA2>
17.12

>  <SlogP_VSA3>
11.34

>  <SlogP_VSA4>
11.74

>  <SlogP_VSA5>
51.52

>  <SlogP_VSA6>
24.27

>  <SlogP_VSA7>
0

>  <SlogP_VSA8>
0

>  <SlogP_VSA9>
0

>  <SlogP_VSA10>
4.39

>  <SlogP_VSA11>
0

>  <EState_VSA1>
5.97

>  <EState_VSA2>
12.24

>  <EState_VSA3>
11.96

>  <EState_VSA4>
37.79

>  <EState_VSA5>
12.13

>  <EState_VSA6>
12.13

>  <EState_VSA7>
0

>  <EState_VSA8>
19.16

>  <EState_VSA9>
5.11

>  <EState_VSA10>
9.18

>  <VSA_EState1>
12.85

>  <VSA_EState2>
10.45

>  <VSA_EState3>
12.12

>  <VSA_EState4>
1.08

>  <VSA_EState5>
-0.41

>  <VSA_EState6>
6.96

>  <VSA_EState7>
4.03

>  <VSA_EState8>
5.09

>  <VSA_EState9>
0

>  <apol>
48.99

>  <bpol>
28.63

>  <nRing>
1

>  <nHRing>
0

>  <naRing>
1

>  <naHRing>
0

>  <nARing 2>
0

>  <nAHRing 2>
0

>  <nFRing>
0

>  <nFHRing>
0

>  <nFaRing>
0

>  <nFaHRing>
0

>  <nFARing 2>
0

>  <nFAHRing 2>
0

>  <nRot>
10

>  <SLogP>
3.98

>  <SMR>
82.59

>  <TopoPSA(NO)>
49.33

>  <TopoPSA>
49.33

>  <JGI1>
0.21

>  <JGI2>
0.08

>  <JGI3>
0.03

>  <JGI4>
0.04

>  <JGI5>
0.03

>  <Diameter>
14

>  <Radius>
7

>  <TMWC10>
111.05

>  <TSRW10>
53.31

>  <MW>
295.19

>  <AMW>
6.28

>  <WPath>
1162

>  <WPol>
24

>  <Zagreb1>
94

>  <Zagreb2>
100

>  <mZagreb2>
4.86

>  <yes>


>  <nAR-cont>
0.336376

>  <nHA-cont>
0.994529749

>  <MWHBN>
0.232814042

>  <MWHBN-cont>
0.983805347

>  <TPSA-cont>
0.655645968

>  <pka_cont>
0.97

>  <yes.1>


>  <BBB_SCORE>
4.602905706

>  <MMFF94 Energy>
-4.488

$$$$
Compound 918
Actelion Java MolfileCreator 2.0

  0  0  0  0  0  0              0 V3000
M  V30 BEGIN CTAB
M  V30 COUNTS 31 31 0 0 0
M  V30 BEGIN ATOM
M  V30 1 O 1.7123 0.3889 1.2451 0
M  V30 2 C 0.3269 0.6914 1.0975 0 CFG=2
M  V30 3 C -0.3542 -0.2815 0.097 0
M  V30 4 C 0.1502 2.1937 0.7603 0
M  V30 5 C 0.5486 -0.7276 -1.0705 0
M  V30 6 C -0.8513 -1.538 0.8461 0
M  V30 7 C 0.7378 3.0636 1.8804 0
M  V30 8 C 0.7658 2.6198 -0.5719 0
M  V30 9 C -0.1808 -1.684 -2.0133 0
M  V30 10 C -1.5736 -2.5105 -0.0842 0
M  V30 11 C -0.7048 -2.9079 -1.2712 0
M  V30 12 H 1.7809 -0.5236 1.5727 0
M  V30 13 H -0.1277 0.5462 2.0864 0
M  V30 14 H -1.2444 0.2156 -0.312 0
M  V30 15 H -0.926 2.4059 0.714 0
M  V30 16 H 1.4437 -1.2333 -0.6874 0
M  V30 17 H 0.8989 0.13 -1.6493 0
M  V30 18 H -0.0058 -2.0509 1.3214 0
M  V30 19 H -1.5388 -1.2458 1.6493 0
M  V30 20 H 1.8243 2.9482 1.9535 0
M  V30 21 H 0.3005 2.7999 2.8492 0
M  V30 22 H 0.5246 4.1228 1.7002 0
M  V30 23 H 0.717 3.7077 -0.6932 0
M  V30 24 H 0.2162 2.1874 -1.4125 0
M  V30 25 H 1.8163 2.3221 -0.6471 0
M  V30 26 H 0.4986 -2.0026 -2.8118 0
M  V30 27 H -1.0154 -1.1589 -2.4937 0
M  V30 28 H -1.8657 -3.4066 0.4748 0
M  V30 29 H -2.4986 -2.0464 -0.4481 0
M  V30 30 H -1.2813 -3.5384 -1.9574 0
M  V30 31 H 0.1411 -3.5102 -0.9181 0
M  V30 END ATOM
M  V30 BEGIN BOND
M  V30 1 1 1 2
M  V30 2 1 2 3
M  V30 3 1 2 4
M  V30 4 1 3 5
M  V30 5 1 3 6
M  V30 6 1 4 7
M  V30 7 1 4 8
M  V30 8 1 5 9
M  V30 9 1 6 10
M  V30 10 1 9 11
M  V30 11 1 10 11
M  V30 12 1 1 12
M  V30 13 1 2 13
M  V30 14 1 3 14
M  V30 15 1 4 15
M  V30 16 1 5 16
M  V30 17 1 5 17
M  V30 18 1 6 18
M  V30 19 1 6 19
M  V30 20 1 7 20
M  V30 21 1 7 21
M  V30 22 1 7 22
M  V30 23 1 8 23
M  V30 24 1 8 24
M  V30 25 1 8 25
M  V30 26 1 9 26
M  V30 27 1 9 27
M  V30 28 1 10 28
M  V30 29 1 10 29
M  V30 30 1 11 30
M  V30 31 1 11 31
M  V30 END BOND
M  V30 BEGIN COLLECTION
M  V30 MDLV30/STERAC1 ATOMS=(1 2)
M  V30 END COLLECTION
M  V30 END CTAB
M  END
>  <Column 1>
1098

>  <level_0>
1237

>  <index>
1237

>  <Unnamed: 0>
1237

>  <NO.>
1249

>  <Name>
cimepanol

>  <IUPAC_name>
1-cyclohexyl-2-methylpropan-1-ol

>  <SMILES>
CC(C)C(O)C1CCCCC1

>  <CID>
65765

>  <logBB>


>  <BBB+/BBB->
BBB+

>  <Inchi>
InChI=1S/C10H20O/c1-8(2)10(11)9-6-4-3-5-7-9/h8-11H-3-7H2-1-2H3

>  <threshold>
-1

>  <reference>
R1|R19|R6|R27|R27|R30|

>  <group>
B

>  <Class>
1

>  <ABC>
8.03

>  <ABCGG>
7.68

>  <nAcid>
0

>  <nBase>
0

>  <nAromAtom>
0

>  <nAromBond>
0

>  <nAtom>
31

>  <nHeavyAtom>
11

>  <nSpiro>
0

>  <nBridgehead>
0

>  <nHetero>
1

>  <nN>
0

>  <nO>
1

>  <nF>
0

>  <BalabanJ>
2.32

>  <BertzCT>
103.44

>  <nBonds>
31

>  <nBondsO>
11

>  <nBondsS>
31

>  <nBondsD>
0

>  <nBondsT>
0

>  <nBondsA>
0

>  <nBondsM>
0

>  <nBondsKS>
31

>  <nBondsKD>
0

>  <RNCG>
0.49

>  <RPCG>
0.26

>  <FCSP3>
1

>  <SZ>
14.67

>  <Sm>
13.01

>  <Sv>
16.13

>  <Sse>
30.21

>  <Sp>
18.47

>  <Si>
35.36

>  <MZ>
0.47

>  <Mm>
0.42

>  <Mv>
0.52

>  <Mse>
0.97

>  <Mp>
0.6

>  <Mi>
1.14

>  <NsCH3>
2

>  <NdCH2>
0

>  <NssCH2>
5

>  <NtCH>
0

>  <NdsCH>
0

>  <NaaCH>
0

>  <NsssCH>
3

>  <NddC>
0

>  <NtsC>
0

>  <NdssC>
0

>  <NaasC>
0

>  <NaaaC>
0

>  <NssssC>
0

>  <NsNH3>
0

>  <NsNH2>
0

>  <NssNH2>
0

>  <NdNH>
0

>  <NssNH>
0

>  <NaaNH>
0

>  <NtN>
0

>  <NsssNH>
0

>  <NdsN>
0

>  <NaaN>
0

>  <NsssN>
0

>  <NddsN>
0

>  <NaasN>
0

>  <NssssN>
0

>  <NsOH>
1

>  <NdO>
0

>  <NssO>
0

>  <NaaO>
0

>  <NsF>
0

>  <NsSiH3>
0

>  <NssSiH2>
0

>  <NsssSiH>
0

>  <NssssSi>
0

>  <NsPH2>
0

>  <NssPH>
0

>  <NsssP>
0

>  <NdsssP>
0

>  <NsssssP>
0

>  <NsSH>
0

>  <NdS>
0

>  <NssS>
0

>  <NaaS>
0

>  <NdssS>
0

>  <NddssS>
0

>  <NsCl>
0

>  <NsBr>
0

>  <NsI>
0

>  <fragCpx>
11.01

>  <fMF>
0.19

>  <nHBAcc>
1

>  <nHBDon>
1

>  <Kier1>
9.09

>  <Kier2>
4.13

>  <Lipinski>
1

>  <GhoseFilter>
0

>  <FilterItLogS>
-1.6

>  <VMcGowan>
146.77

>  <LabuteASA>
69.81

>  <PEOE_VSA1>
5.11

>  <PEOE_VSA2>
0

>  <PEOE_VSA3>
0

>  <PEOE_VSA4>
0

>  <PEOE_VSA5>
0

>  <PEOE_VSA6>
33.11

>  <PEOE_VSA7>
24.68

>  <PEOE_VSA8>
0

>  <PEOE_VSA9>
6.1

>  <PEOE_VSA10>
0

>  <PEOE_VSA11>
0

>  <PEOE_VSA12>
0

>  <PEOE_VSA13>
0

>  <SMR_VSA1>
5.11

>  <SMR_VSA2>
0

>  <SMR_VSA3>
0

>  <SMR_VSA4>
11.84

>  <SMR_VSA5>
52.06

>  <SMR_VSA6>
0

>  <SMR_VSA7>
0

>  <SMR_VSA8>
0

>  <SMR_VSA9>
0

>  <SlogP_VSA1>
0

>  <SlogP_VSA2>
11.21

>  <SlogP_VSA3>
0

>  <SlogP_VSA4>
11.84

>  <SlogP_VSA5>
45.95

>  <SlogP_VSA6>
0

>  <SlogP_VSA7>
0

>  <SlogP_VSA8>
0

>  <SlogP_VSA9>
0

>  <SlogP_VSA10>
0

>  <SlogP_VSA11>
0

>  <EState_VSA1>
0

>  <EState_VSA2>
6.1

>  <EState_VSA3>
11.84

>  <EState_VSA4>
0

>  <EState_VSA5>
32.1

>  <EState_VSA6>
0

>  <EState_VSA7>
0

>  <EState_VSA8>
13.85

>  <EState_VSA9>
0

>  <EState_VSA10>
5.11

>  <VSA_EState1>
0

>  <VSA_EState2>
0

>  <VSA_EState3>
9.75

>  <VSA_EState4>
0

>  <VSA_EState5>
1.04

>  <VSA_EState6>
0

>  <VSA_EState7>
6.48

>  <VSA_EState8>
4.22

>  <VSA_EState9>
0

>  <apol>
30.84

>  <bpol>
20.06

>  <nRing>
1

>  <nHRing>
0

>  <naRing>
0

>  <naHRing>
0

>  <nARing 2>
1

>  <nAHRing 2>
0

>  <nFRing>
0

>  <nFHRing>
0

>  <nFaRing>
0

>  <nFaHRing>
0

>  <nFARing 2>
0

>  <nFAHRing 2>
0

>  <nRot>
2

>  <SLogP>
2.58

>  <SMR>
47.42

>  <TopoPSA(NO)>
20.23

>  <TopoPSA>
20.23

>  <JGI1>
0.18

>  <JGI2>
0.1

>  <JGI3>
0.05

>  <JGI4>
0.04

>  <JGI5>
0.03

>  <Diameter>
6

>  <Radius>
3

>  <TMWC10>
86.23

>  <TSRW10>
40.57

>  <MW>
156.15

>  <AMW>
5.04

>  <WPath>
156

>  <WPol>
13

>  <Zagreb1>
50

>  <Zagreb2>
55

>  <mZagreb2>
2.56

>  <yes>


>  <nAR-cont>
0.816016

>  <nHA-cont>
0.720786536

>  <MWHBN>
0.160051225

>  <MWHBN-cont>
0.955928609

>  <TPSA-cont>
0.858782038

>  <pka_cont>
0.97

>  <yes.1>


>  <BBB_SCORE>
5.173259525

>  <MMFF94 Energy>
16.472

$$$$
Compound 919
Actelion Java MolfileCreator 2.0

  0  0  0  0  0  0              0 V3000
M  V30 BEGIN CTAB
M  V30 COUNTS 33 33 0 0 0
M  V30 BEGIN ATOM
M  V30 1 O -0.7034 0.938 0.0781 0
M  V30 2 C -0.0763 -0.3586 -0.0578 0
M  V30 3 C 0.0937 1.8406 -0.709 0 CFG=2
M  V30 4 O 1.1241 -0.2092 -0.838 0
M  V30 5 C 0.264 -0.9059 1.3741 0
M  V30 6 C -1.075 -1.2885 -0.8207 0
M  V30 7 C 1.4427 1.1786 -0.7829 0
M  V30 8 C 0.1188 3.215 -0.0573 0
M  V30 9 C 1.5399 -1.7593 1.4186 0
M  V30 10 C 0.3913 0.1908 2.4446 0
M  V30 11 C -1.482 -0.7162 -2.188 0
M  V30 12 C -0.5614 -2.7151 -1.0329 0
M  V30 13 O -1.2015 3.7557 -0.0248 0
M  V30 14 H -0.3739 1.8988 -1.698 0
M  V30 15 H -0.5749 -1.5333 1.7032 0
M  V30 16 H -1.9983 -1.3477 -0.2281 0
M  V30 17 H 2.0557 1.3586 0.1058 0
M  V30 18 H 2.0147 1.4731 -1.6669 0
M  V30 19 H 0.7582 3.9065 -0.6134 0
M  V30 20 H 0.4718 3.1594 0.9773 0
M  V30 21 H 1.5339 -2.5596 0.6763 0
M  V30 22 H 1.6505 -2.2289 2.4024 0
M  V30 23 H 2.4329 -1.1489 1.245 0
M  V30 24 H -0.5398 0.7575 2.5469 0
M  V30 25 H 0.6039 -0.2513 3.4246 0
M  V30 26 H 1.2004 0.8902 2.2156 0
M  V30 27 H -2.1772 -1.3907 -2.7003 0
M  V30 28 H -1.9968 0.243 -2.079 0
M  V30 29 H -0.6139 -0.5734 -2.8395 0
M  V30 30 H -1.2668 -3.298 -1.6357 0
M  V30 31 H -0.4564 -3.2442 -0.0817 0
M  V30 32 H 0.4034 -2.7232 -1.5498 0
M  V30 33 H -1.7718 3.0409 0.3196 0
M  V30 END ATOM
M  V30 BEGIN BOND
M  V30 1 1 1 2
M  V30 2 1 1 3
M  V30 3 1 2 4
M  V30 4 1 2 5
M  V30 5 1 2 6
M  V30 6 1 3 7
M  V30 7 1 3 8
M  V30 8 1 5 9
M  V30 9 1 5 10
M  V30 10 1 6 11
M  V30 11 1 6 12
M  V30 12 1 8 13
M  V30 13 1 4 7
M  V30 14 1 3 14
M  V30 15 1 5 15
M  V30 16 1 6 16
M  V30 17 1 7 17
M  V30 18 1 7 18
M  V30 19 1 8 19
M  V30 20 1 8 20
M  V30 21 1 9 21
M  V30 22 1 9 22
M  V30 23 1 9 23
M  V30 24 1 10 24
M  V30 25 1 10 25
M  V30 26 1 10 26
M  V30 27 1 11 27
M  V30 28 1 11 28
M  V30 29 1 11 29
M  V30 30 1 12 30
M  V30 31 1 12 31
M  V30 32 1 12 32
M  V30 33 1 13 33
M  V30 END BOND
M  V30 BEGIN COLLECTION
M  V30 MDLV30/STERAC1 ATOMS=(1 3)
M  V30 END COLLECTION
M  V30 END CTAB
M  END
>  <Column 1>
1099

>  <level_0>
1238

>  <index>
1238

>  <Unnamed: 0>
1238

>  <NO.>
1250

>  <Name>
promoxolane

>  <IUPAC_name>
[2-2-di(propan-2-yl)-1-3-dioxolan-4-yl]methanol

>  <SMILES>
CC(C)C1(C(C)C)OCC(CO)O1

>  <CID>
10105

>  <logBB>


>  <BBB+/BBB->
BBB+

>  <Inchi>
InChI=1S/C10H20O3/c1-7(2)10(8(3)4)12-6-9(5-11)13-10/h7-9-11H-5-6H2-1-4H3

>  <threshold>
-1

>  <reference>
R1|R19|R6|R27|R27|R30|

>  <group>
B

>  <Class>
-1

>  <ABC>
9.51

>  <ABCGG>
9.8

>  <nAcid>
0

>  <nBase>
0

>  <nAromAtom>
0

>  <nAromBond>
0

>  <nAtom>
33

>  <nHeavyAtom>
13

>  <nSpiro>
0

>  <nBridgehead>
0

>  <nHetero>
3

>  <nN>
0

>  <nO>
3

>  <nF>
0

>  <BalabanJ>
2.72

>  <BertzCT>
157.55

>  <nBonds>
33

>  <nBondsO>
13

>  <nBondsS>
33

>  <nBondsD>
0

>  <nBondsT>
0

>  <nBondsA>
0

>  <nBondsM>
0

>  <nBondsKS>
33

>  <nBondsKD>
0

>  <RNCG>
0.3

>  <RPCG>
0.16

>  <FCSP3>
1

>  <SZ>
17.33

>  <Sm>
15.67

>  <Sv>
17.56

>  <Sse>
32.87

>  <Sp>
19.43

>  <Si>
37.78

>  <MZ>
0.53

>  <Mm>
0.47

>  <Mv>
0.53

>  <Mse>
1

>  <Mp>
0.59

>  <Mi>
1.14

>  <NsCH3>
4

>  <NdCH2>
0

>  <NssCH2>
2

>  <NtCH>
0

>  <NdsCH>
0

>  <NaaCH>
0

>  <NsssCH>
3

>  <NddC>
0

>  <NtsC>
0

>  <NdssC>
0

>  <NaasC>
0

>  <NaaaC>
0

>  <NssssC>
1

>  <NsNH3>
0

>  <NsNH2>
0

>  <NssNH2>
0

>  <NdNH>
0

>  <NssNH>
0

>  <NaaNH>
0

>  <NtN>
0

>  <NsssNH>
0

>  <NdsN>
0

>  <NaaN>
0

>  <NsssN>
0

>  <NddsN>
0

>  <NaasN>
0

>  <NssssN>
0

>  <NsOH>
1

>  <NdO>
0

>  <NssO>
2

>  <NaaO>
0

>  <NsF>
0

>  <NsSiH3>
0

>  <NssSiH2>
0

>  <NsssSiH>
0

>  <NssssSi>
0

>  <NsPH2>
0

>  <NssPH>
0

>  <NsssP>
0

>  <NdsssP>
0

>  <NsssssP>
0

>  <NsSH>
0

>  <NdS>
0

>  <NssS>
0

>  <NaaS>
0

>  <NdssS>
0

>  <NddssS>
0

>  <NsCl>
0

>  <NsBr>
0

>  <NsI>
0

>  <fragCpx>
13.03

>  <fMF>
0.15

>  <nHBAcc>
3

>  <nHBDon>
1

>  <Kier1>
11.08

>  <Kier2>
4.02

>  <Lipinski>
1

>  <GhoseFilter>
1

>  <FilterItLogS>
-1.43

>  <VMcGowan>
158.51

>  <LabuteASA>
80.04

>  <PEOE_VSA1>
14.58

>  <PEOE_VSA2>
0

>  <PEOE_VSA3>
0

>  <PEOE_VSA4>
0

>  <PEOE_VSA5>
0

>  <PEOE_VSA6>
27.69

>  <PEOE_VSA7>
0

>  <PEOE_VSA8>
11.84

>  <PEOE_VSA9>
13.21

>  <PEOE_VSA10>
6.1

>  <PEOE_VSA11>
5.79

>  <PEOE_VSA12>
0

>  <PEOE_VSA13>
0

>  <SMR_VSA1>
14.58

>  <SMR_VSA2>
0

>  <SMR_VSA3>
0

>  <SMR_VSA4>
11.84

>  <SMR_VSA5>
39.59

>  <SMR_VSA6>
13.21

>  <SMR_VSA7>
0

>  <SMR_VSA8>
0

>  <SMR_VSA9>
0

>  <SlogP_VSA1>
0

>  <SlogP_VSA2>
30.21

>  <SlogP_VSA3>
9.47

>  <SlogP_VSA4>
11.84

>  <SlogP_VSA5>
27.69

>  <SlogP_VSA6>
0

>  <SlogP_VSA7>
0

>  <SlogP_VSA8>
0

>  <SlogP_VSA9>
0

>  <SlogP_VSA10>
0

>  <SlogP_VSA11>
0

>  <EState_VSA1>
5.79

>  <EState_VSA2>
12.71

>  <EState_VSA3>
18.44

>  <EState_VSA4>
0

>  <EState_VSA5>
0

>  <EState_VSA6>
0

>  <EState_VSA7>
0

>  <EState_VSA8>
27.69

>  <EState_VSA9>
14.58

>  <EState_VSA10>
0

>  <VSA_EState1>
11.43

>  <VSA_EState2>
0

>  <VSA_EState3>
8.96

>  <VSA_EState4>
0

>  <VSA_EState5>
0.13

>  <VSA_EState6>
0

>  <VSA_EState7>
-0.15

>  <VSA_EState8>
8.88

>  <VSA_EState9>
0

>  <apol>
32.44

>  <bpol>
23.54

>  <nRing>
1

>  <nHRing>
1

>  <naRing>
0

>  <naHRing>
0

>  <nARing 2>
1

>  <nAHRing 2>
1

>  <nFRing>
0

>  <nFHRing>
0

>  <nFaRing>
0

>  <nFaHRing>
0

>  <nFARing 2>
0

>  <nFAHRing 2>
0

>  <nRot>
3

>  <SLogP>
1.4

>  <SMR>
50.32

>  <TopoPSA(NO)>
38.69

>  <TopoPSA>
38.69

>  <JGI1>
0.35

>  <JGI2>
0.13

>  <JGI3>
0.07

>  <JGI4>
0.06

>  <JGI5>
0.04

>  <Diameter>
6

>  <Radius>
3

>  <TMWC10>
95.5

>  <TSRW10>
58.51

>  <MW>
188.14

>  <AMW>
5.7

>  <WPath>
229

>  <WPol>
20

>  <Zagreb1>
64

>  <Zagreb2>
76

>  <mZagreb2>
3

>  <yes>


>  <nAR-cont>
0.816016

>  <nHA-cont>
0.841215992

>  <MWHBN>
0.291621421

>  <MWHBN-cont>
0.86502774

>  <TPSA-cont>
0.729919775

>  <pka_cont>
0.97

>  <yes.1>


>  <BBB_SCORE>
4.899613153

>  <MMFF94 Energy>
48.091

$$$$
Compound 920
Actelion Java MolfileCreator 2.0

  0  0  0  0  0  0              0 V3000
M  V30 BEGIN CTAB
M  V30 COUNTS 45 46 0 0 0
M  V30 BEGIN ATOM
M  V30 1 Cl 1.7549 5.112 1.8348 0
M  V30 2 C 1.1828 3.5029 1.6379 0
M  V30 3 C 2.0072 2.4299 1.9418 0
M  V30 4 C -0.1051 3.2736 1.1787 0
M  V30 5 C 1.5347 1.1212 1.7773 0
M  V30 6 C -0.5637 1.9594 1.0204 0
M  V30 7 C 0.236 0.8294 1.2966 0
M  V30 8 C -0.3283 -0.715 1.1351 0
M  V30 9 C -0.7568 -1.115 -0.339 0 CFG=1
M  V30 10 C 0.5532 -1.875 1.777 0
M  V30 11 C -1.3603 -1.118 2.2788 0
M  V30 12 N -1.8397 -0.2817 -0.9524 0
M  V30 13 C 0.5069 -1.3558 -1.2397 0
M  V30 14 C -0.1742 -1.6363 3.1066 0
M  V30 15 C -3.0999 -0.3474 -0.1947 0
M  V30 16 C -2.1604 -0.7101 -2.3251 0
M  V30 17 C 1.4817 -0.2082 -1.5804 0
M  V30 18 C 2.6441 -0.7661 -2.4159 0
M  V30 19 C 0.8682 0.9748 -2.3228 0
M  V30 20 H 3.0169 2.5954 2.3069 0
M  V30 21 H -0.7634 4.1035 0.9376 0
M  V30 22 H 2.215 0.3118 2.0292 0
M  V30 23 H -1.5774 1.8241 0.6553 0
M  V30 24 H -1.1945 -2.1229 -0.2538 0
M  V30 25 H 1.6372 -1.7455 1.7945 0
M  V30 26 H 0.3545 -2.8772 1.373 0
M  V30 27 H -2.0668 -1.9105 2.0041 0
M  V30 28 H -1.9157 -0.3034 2.7528 0
M  V30 29 H 1.1035 -2.1404 -0.7546 0
M  V30 30 H 0.1879 -1.8289 -2.1774 0
M  V30 31 H -0.3694 -2.5284 3.7073 0
M  V30 32 H 0.2916 -0.8785 3.7459 0
M  V30 33 H -3.4577 -1.3762 -0.0739 0
M  V30 34 H -3.8858 0.2255 -0.7022 0
M  V30 35 H -3.0128 0.1141 0.7893 0
M  V30 36 H -1.3278 -0.5603 -3.0138 0
M  V30 37 H -2.9792 -0.1072 -2.7364 0
M  V30 38 H -2.46 -1.7639 -2.3658 0
M  V30 39 H 1.9297 0.1608 -0.6571 0
M  V30 40 H 3.156 -1.5738 -1.8819 0
M  V30 41 H 2.2908 -1.1623 -3.3741 0
M  V30 42 H 3.3842 0.0142 -2.6237 0
M  V30 43 H 0.0474 1.4308 -1.7674 0
M  V30 44 H 0.5001 0.681 -3.3105 0
M  V30 45 H 1.6202 1.7571 -2.4777 0
M  V30 END ATOM
M  V30 BEGIN BOND
M  V30 1 1 1 2
M  V30 2 2 2 3
M  V30 3 1 2 4
M  V30 4 1 3 5
M  V30 5 2 4 6
M  V30 6 2 5 7
M  V30 7 1 7 8
M  V30 8 1 8 9
M  V30 9 1 8 10
M  V30 10 1 8 11
M  V30 11 1 9 12
M  V30 12 1 9 13
M  V30 13 1 10 14
M  V30 14 1 12 15
M  V30 15 1 12 16
M  V30 16 1 13 17
M  V30 17 1 17 18
M  V30 18 1 17 19
M  V30 19 1 6 7
M  V30 20 1 11 14
M  V30 21 1 3 20
M  V30 22 1 4 21
M  V30 23 1 5 22
M  V30 24 1 6 23
M  V30 25 1 9 24
M  V30 26 1 10 25
M  V30 27 1 10 26
M  V30 28 1 11 27
M  V30 29 1 11 28
M  V30 30 1 13 29
M  V30 31 1 13 30
M  V30 32 1 14 31
M  V30 33 1 14 32
M  V30 34 1 15 33
M  V30 35 1 15 34
M  V30 36 1 15 35
M  V30 37 1 16 36
M  V30 38 1 16 37
M  V30 39 1 16 38
M  V30 40 1 17 39
M  V30 41 1 18 40
M  V30 42 1 18 41
M  V30 43 1 18 42
M  V30 44 1 19 43
M  V30 45 1 19 44
M  V30 46 1 19 45
M  V30 END BOND
M  V30 BEGIN COLLECTION
M  V30 MDLV30/STERAC1 ATOMS=(1 9)
M  V30 END COLLECTION
M  V30 END CTAB
M  END
>  <Column 1>
1101

>  <level_0>
1240

>  <index>
1240

>  <Unnamed: 0>
1240

>  <NO.>
1252

>  <Name>
sibutramine

>  <IUPAC_name>
1-[1-(4-chlorophenyl)cyclobutyl]-n-n-3-trimethylbutan-1-amine

>  <SMILES>
CC(C)CC(N(C)C)C1(c2ccc(Cl)cc2)CCC1

>  <CID>
5210

>  <logBB>


>  <BBB+/BBB->
BBB+

>  <Inchi>
InChI=1S/C17H26ClN/c1-13(2)12-16(19(3)4)17(10-5-11-17)14-6-8-15(18)9-7-14/h6-9-13-16H-5-10-12H2-1-4H3

>  <threshold>
-1

>  <reference>
R1|R19|R6|R14|R15|R23|R27|R27|R30|

>  <group>
B

>  <Class>
-1

>  <ABC>
14.53

>  <ABCGG>
13.49

>  <nAcid>
0

>  <nBase>
1

>  <nAromAtom>
6

>  <nAromBond>
6

>  <nAtom>
45

>  <nHeavyAtom>
19

>  <nSpiro>
0

>  <nBridgehead>
0

>  <nHetero>
2

>  <nN>
1

>  <nO>
0

>  <nF>
0

>  <BalabanJ>
2.1

>  <BertzCT>
403.78

>  <nBonds>
46

>  <nBondsO>
20

>  <nBondsS>
40

>  <nBondsD>
0

>  <nBondsT>
0

>  <nBondsA>
6

>  <nBondsM>
6

>  <nBondsKS>
43

>  <nBondsKD>
3

>  <RNCG>
0.31

>  <RPCG>
0.06

>  <FCSP3>
0.65

>  <SZ>
25.33

>  <Sm>
23.3

>  <Sv>
25.89

>  <Sse>
43.97

>  <Sp>
29.35

>  <Si>
50.84

>  <MZ>
0.56

>  <Mm>
0.52

>  <Mv>
0.58

>  <Mse>
0.98

>  <Mp>
0.65

>  <Mi>
1.13

>  <NsCH3>
4

>  <NdCH2>
0

>  <NssCH2>
4

>  <NtCH>
0

>  <NdsCH>
0

>  <NaaCH>
4

>  <NsssCH>
2

>  <NddC>
0

>  <NtsC>
0

>  <NdssC>
0

>  <NaasC>
2

>  <NaaaC>
0

>  <NssssC>
1

>  <NsNH3>
0

>  <NsNH2>
0

>  <NssNH2>
0

>  <NdNH>
0

>  <NssNH>
0

>  <NaaNH>
0

>  <NtN>
0

>  <NsssNH>
0

>  <NdsN>
0

>  <NaaN>
0

>  <NsssN>
1

>  <NddsN>
0

>  <NaasN>
0

>  <NssssN>
0

>  <NsOH>
0

>  <NdO>
0

>  <NssO>
0

>  <NaaO>
0

>  <NsF>
0

>  <NsSiH3>
0

>  <NssSiH2>
0

>  <NsssSiH>
0

>  <NssssSi>
0

>  <NsPH2>
0

>  <NssPH>
0

>  <NsssP>
0

>  <NdsssP>
0

>  <NsssssP>
0

>  <NsSH>
0

>  <NdS>
0

>  <NssS>
0

>  <NaaS>
0

>  <NdssS>
0

>  <NddssS>
0

>  <NsCl>
1

>  <NsBr>
0

>  <NsI>
0

>  <fragCpx>
58.02

>  <fMF>
0.22

>  <nHBAcc>
1

>  <nHBDon>
0

>  <Kier1>
15.39

>  <Kier2>
6.19

>  <Lipinski>
1

>  <GhoseFilter>
1

>  <FilterItLogS>
-4.89

>  <VMcGowan>
237.99

>  <LabuteASA>
122.5

>  <PEOE_VSA1>
4.9

>  <PEOE_VSA2>
0

>  <PEOE_VSA3>
0

>  <PEOE_VSA4>
0

>  <PEOE_VSA5>
0

>  <PEOE_VSA6>
44

>  <PEOE_VSA7>
56.97

>  <PEOE_VSA8>
16.48

>  <PEOE_VSA9>
0

>  <PEOE_VSA10>
0

>  <PEOE_VSA11>
0

>  <PEOE_VSA12>
0

>  <PEOE_VSA13>
0

>  <SMR_VSA1>
0

>  <SMR_VSA2>
0

>  <SMR_VSA3>
4.9

>  <SMR_VSA4>
5.92

>  <SMR_VSA5>
50.99

>  <SMR_VSA6>
14.1

>  <SMR_VSA7>
34.85

>  <SMR_VSA8>
0

>  <SMR_VSA9>
0

>  <SlogP_VSA1>
0

>  <SlogP_VSA2>
25.04

>  <SlogP_VSA3>
5.41

>  <SlogP_VSA4>
5.92

>  <SlogP_VSA5>
45.09

>  <SlogP_VSA6>
24.27

>  <SlogP_VSA7>
5.02

>  <SlogP_VSA8>
0

>  <SlogP_VSA9>
0

>  <SlogP_VSA10>
0

>  <SlogP_VSA11>
0

>  <EState_VSA1>
0

>  <EState_VSA2>
0

>  <EState_VSA3>
11.46

>  <EState_VSA4>
10.94

>  <EState_VSA5>
31.25

>  <EState_VSA6>
0

>  <EState_VSA7>
12.13

>  <EState_VSA8>
44.98

>  <EState_VSA9>
11.6

>  <EState_VSA10>
0

>  <VSA_EState1>
0

>  <VSA_EState2>
2.42

>  <VSA_EState3>
0.84

>  <VSA_EState4>
1.82

>  <VSA_EState5>
0.73

>  <VSA_EState6>
9.18

>  <VSA_EState7>
5.23

>  <VSA_EState8>
4.65

>  <VSA_EState9>
4.45

>  <apol>
49.01

>  <bpol>
28.3

>  <nRing>
2

>  <nHRing>
0

>  <naRing>
1

>  <naHRing>
0

>  <nARing 2>
1

>  <nAHRing 2>
0

>  <nFRing>
0

>  <nFHRing>
0

>  <nFaRing>
0

>  <nFaHRing>
0

>  <nFARing 2>
0

>  <nFAHRing 2>
0

>  <nRot>
5

>  <SLogP>
4.74

>  <SMR>
83.91

>  <TopoPSA(NO)>
3.24

>  <TopoPSA>
3.24

>  <JGI1>
0.28

>  <JGI2>
0.11

>  <JGI3>
0.06

>  <JGI4>
0.05

>  <JGI5>
0.03

>  <Diameter>
9

>  <Radius>
5

>  <TMWC10>
112.74

>  <TSRW10>
53.05

>  <MW>
279.18

>  <AMW>
6.2

>  <WPath>
666

>  <WPol>
29

>  <Zagreb1>
98

>  <Zagreb2>
116

>  <mZagreb2>
4.19

>  <yes>


>  <nAR-cont>
0.816016

>  <nHA-cont>
0.998649058

>  <MWHBN>
0.059849131

>  <MWHBN-cont>
0.452398424

>  <TPSA-cont>
0.977382788

>  <pka_cont>
0.97

>  <yes.1>


>  <BBB_SCORE>
4.93302827

>  <MMFF94 Energy>
71.695

$$$$
Compound 921
Actelion Java MolfileCreator 2.0

  0  0  0  0  0  0              0 V3000
M  V30 BEGIN CTAB
M  V30 COUNTS 53 55 0 0 0
M  V30 BEGIN ATOM
M  V30 1 S 1.5382 -2.1053 -0.5665 0
M  V30 2 C 1.0713 -3.8955 -0.3174 0
M  V30 3 C 0.4922 -2.0016 -2.0799 0 CFG=1
M  V30 4 C -0.4105 -3.9454 -0.7418 0 CFG=1
M  V30 5 C 2.0112 -4.7501 -1.1779 0
M  V30 6 C 1.2495 -4.244 1.1616 0
M  V30 7 N -0.6016 -2.9154 -1.7489 0
M  V30 8 C -0.5662 -0.8714 -2.1848 0 CFG=1
M  V30 9 C -0.8648 -5.2999 -1.2632 0
M  V30 10 C -1.5568 -1.9531 -1.6801 0
M  V30 11 N -0.3959 0.3101 -1.3031 0
M  V30 12 O -0.8699 -5.6825 -2.4222 0
M  V30 13 O -1.2369 -6.1388 -0.2732 0
M  V30 14 O -2.6762 -1.9765 -1.2247 0
M  V30 15 C 0.5693 1.2599 -1.5624 0
M  V30 16 O 1.3353 1.1721 -2.5182 0
M  V30 17 C 0.6684 2.373 -0.5072 0
M  V30 18 O -0.6278 2.6904 0.0239 0
M  V30 19 C 1.555 1.8766 0.6457 0
M  V30 20 C -1.4129 3.4588 -0.7904 0
M  V30 21 C 2.1526 3.0034 1.5147 0
M  V30 22 O -1.0779 3.8413 -1.9031 0
M  V30 23 C -2.6701 3.7246 -0.1325 0
M  V30 24 C 1.0934 3.8484 2.2224 0
M  V30 25 C 3.1047 2.4001 2.5517 0
M  V30 26 O -3.6136 4.4592 -0.8021 0
M  V30 27 C -3.1697 3.3774 1.1118 0
M  V30 28 C -4.6954 4.5712 0.0088 0
M  V30 29 C -4.4734 3.923 1.1994 0
M  V30 30 H 0.9983 -2.2617 -3.0139 0
M  V30 31 H -1.0676 -3.6863 0.1001 0
M  V30 32 H 1.8968 -4.5458 -2.2481 0
M  V30 33 H 1.8173 -5.8182 -1.0269 0
M  V30 34 H 3.062 -4.5799 -0.9146 0
M  V30 35 H 0.6291 -3.6123 1.808 0
M  V30 36 H 0.9637 -5.2845 1.3518 0
M  V30 37 H 2.2918 -4.1293 1.481 0
M  V30 38 H -0.7903 -0.5647 -3.2141 0
M  V30 39 H -0.988 0.4318 -0.4879 0
M  V30 40 H -1.52 -6.9523 -0.7441 0
M  V30 41 H 1.122 3.2559 -0.975 0
M  V30 42 H 2.3871 1.2919 0.2319 0
M  V30 43 H 0.9788 1.1963 1.2872 0
M  V30 44 H 2.7415 3.6666 0.8684 0
M  V30 45 H 0.5137 4.4386 1.507 0
M  V30 46 H 0.4019 3.2222 2.7959 0
M  V30 47 H 1.5599 4.5574 2.9151 0
M  V30 48 H 3.9 1.8268 2.064 0
M  V30 49 H 2.5735 1.7299 3.2361 0
M  V30 50 H 3.5805 3.186 3.148 0
M  V30 51 H -2.6509 2.7997 1.8646 0
M  V30 52 H -5.5267 5.1314 -0.397 0
M  V30 53 H -5.1664 3.8533 2.0264 0
M  V30 END ATOM
M  V30 BEGIN BOND
M  V30 1 1 1 2
M  V30 2 1 1 3
M  V30 3 1 2 4
M  V30 4 1 2 5
M  V30 5 1 2 6
M  V30 6 1 3 7
M  V30 7 1 3 8
M  V30 8 1 4 9
M  V30 9 1 7 10
M  V30 10 1 8 11
M  V30 11 2 9 12
M  V30 12 1 9 13
M  V30 13 2 10 14
M  V30 14 1 11 15
M  V30 15 2 15 16
M  V30 16 1 15 17
M  V30 17 1 17 18
M  V30 18 1 17 19
M  V30 19 1 18 20
M  V30 20 1 19 21
M  V30 21 2 20 22
M  V30 22 1 20 23
M  V30 23 1 21 24
M  V30 24 1 21 25
M  V30 25 1 23 26
M  V30 26 2 23 27
M  V30 27 1 26 28
M  V30 28 1 27 29
M  V30 29 1 4 7
M  V30 30 1 8 10
M  V30 31 2 28 29
M  V30 32 1 3 30
M  V30 33 1 4 31
M  V30 34 1 5 32
M  V30 35 1 5 33
M  V30 36 1 5 34
M  V30 37 1 6 35
M  V30 38 1 6 36
M  V30 39 1 6 37
M  V30 40 1 8 38
M  V30 41 1 11 39
M  V30 42 1 13 40
M  V30 43 1 17 41
M  V30 44 1 19 42
M  V30 45 1 19 43
M  V30 46 1 21 44
M  V30 47 1 24 45
M  V30 48 1 24 46
M  V30 49 1 24 47
M  V30 50 1 25 48
M  V30 51 1 25 49
M  V30 52 1 25 50
M  V30 53 1 27 51
M  V30 54 1 28 52
M  V30 55 1 29 53
M  V30 END BOND
M  V30 BEGIN COLLECTION
M  V30 MDLV30/STEABS ATOMS=(3 3 4 8)
M  V30 END COLLECTION
M  V30 END CTAB
M  END
>  <Column 1>
1102

>  <level_0>
1241

>  <index>
1241

>  <Unnamed: 0>
1241

>  <NO.>
1253

>  <Name>
furbucillin

>  <IUPAC_name>
(2s-5r-6r)-6-[[2-(furan-2-carbonyloxy)-4-methylpentanoyl]amino]-3-3-dimethyl-7-oxo-4-thia-1-azabicyclo[3.2.0]heptane-2-carboxylic acid

>  <SMILES>
CC(C)CC(OC(=O)c1ccco1)C(=O)N[C@@H]1C(=O)N2[C@@H](C(=O)O)C(C)(C)S[C@H]12

>  <CID>
216269

>  <logBB>


>  <BBB+/BBB->
BBB-

>  <Inchi>
InChI=1S/C19H24N2O7S/c1-9(2)8-11(28-18(26)10-6-5-7-27-10)14(22)20-12-15(23)21-13(17(24)25)19(3-4)29-16(12)21/h5-7-9-11-13-16H-8H2-1-4H3-(H-20-22)(H-24-25)/t11?-12--13+-16-/m1/s1

>  <threshold>
-1

>  <reference>
R1|R27|R30|

>  <group>
B

>  <Class>
-1

>  <ABC>
22.62

>  <ABCGG>
19.98

>  <nAcid>
1

>  <nBase>
0

>  <nAromAtom>
5

>  <nAromBond>
5

>  <nAtom>
53

>  <nHeavyAtom>
29

>  <nSpiro>
0

>  <nBridgehead>
0

>  <nHetero>
10

>  <nN>
2

>  <nO>
7

>  <nF>
0

>  <BalabanJ>
1.63

>  <BertzCT>
820.53

>  <nBonds>
55

>  <nBondsO>
31

>  <nBondsS>
46

>  <nBondsD>
4

>  <nBondsT>
0

>  <nBondsA>
5

>  <nBondsM>
9

>  <nBondsKS>
49

>  <nBondsKD>
6

>  <RNCG>
0.14

>  <RPCG>
0.11

>  <FCSP3>
0.58

>  <SZ>
37.33

>  <Sm>
35.34

>  <Sv>
33.21

>  <Sse>
54.37

>  <Sp>
35

>  <Si>
59.95

>  <MZ>
0.7

>  <Mm>
0.67

>  <Mv>
0.63

>  <Mse>
1.03

>  <Mp>
0.66

>  <Mi>
1.13

>  <NsCH3>
4

>  <NdCH2>
0

>  <NssCH2>
1

>  <NtCH>
0

>  <NdsCH>
0

>  <NaaCH>
3

>  <NsssCH>
5

>  <NddC>
0

>  <NtsC>
0

>  <NdssC>
4

>  <NaasC>
1

>  <NaaaC>
0

>  <NssssC>
1

>  <NsNH3>
0

>  <NsNH2>
0

>  <NssNH2>
0

>  <NdNH>
0

>  <NssNH>
1

>  <NaaNH>
0

>  <NtN>
0

>  <NsssNH>
0

>  <NdsN>
0

>  <NaaN>
0

>  <NsssN>
1

>  <NddsN>
0

>  <NaasN>
0

>  <NssssN>
0

>  <NsOH>
1

>  <NdO>
4

>  <NssO>
1

>  <NaaO>
1

>  <NsF>
0

>  <NsSiH3>
0

>  <NssSiH2>
0

>  <NsssSiH>
0

>  <NssssSi>
0

>  <NsPH2>
0

>  <NssPH>
0

>  <NsssP>
0

>  <NdsssP>
0

>  <NsssssP>
0

>  <NsSH>
0

>  <NdS>
0

>  <NssS>
1

>  <NaaS>
0

>  <NdssS>
0

>  <NddssS>
0

>  <NsCl>
0

>  <NsBr>
0

>  <NsI>
0

>  <fragCpx>
149.1

>  <fMF>
0.32

>  <nHBAcc>
7

>  <nHBDon>
2

>  <Kier1>
23.66

>  <Kier2>
9.24

>  <Lipinski>
1

>  <GhoseFilter>
1

>  <FilterItLogS>
-2.19

>  <VMcGowan>
297.59

>  <LabuteASA>
171.67

>  <PEOE_VSA1>
24.48

>  <PEOE_VSA2>
9.59

>  <PEOE_VSA3>
9.59

>  <PEOE_VSA4>
0

>  <PEOE_VSA5>
11.76

>  <PEOE_VSA6>
13.85

>  <PEOE_VSA7>
38.32

>  <PEOE_VSA8>
4.75

>  <PEOE_VSA9>
6.26

>  <PEOE_VSA10>
17.46

>  <PEOE_VSA11>
6.1

>  <PEOE_VSA12>
11.67

>  <PEOE_VSA13>
5.91

>  <SMR_VSA1>
33.44

>  <SMR_VSA2>
0

>  <SMR_VSA3>
10.22

>  <SMR_VSA4>
5.92

>  <SMR_VSA5>
62.42

>  <SMR_VSA6>
0

>  <SMR_VSA7>
24.16

>  <SMR_VSA8>
0

>  <SMR_VSA9>
0

>  <SlogP_VSA1>
5.32

>  <SlogP_VSA2>
62.07

>  <SlogP_VSA3>
19.12

>  <SlogP_VSA4>
5.92

>  <SlogP_VSA5>
44.67

>  <SlogP_VSA6>
22.81

>  <SlogP_VSA7>
0

>  <SlogP_VSA8>
0

>  <SlogP_VSA9>
0

>  <SlogP_VSA10>
0

>  <SlogP_VSA11>
0

>  <EState_VSA1>
52.06

>  <EState_VSA2>
18.1

>  <EState_VSA3>
0

>  <EState_VSA4>
0

>  <EState_VSA5>
35.06

>  <EState_VSA6>
13.85

>  <EState_VSA7>
13.85

>  <EState_VSA8>
5.32

>  <EState_VSA9>
9.15

>  <EState_VSA10>
24.28

>  <VSA_EState1>
9.63

>  <VSA_EState2>
50.39

>  <VSA_EState3>
11.64

>  <VSA_EState4>
0

>  <VSA_EState5>
-2.84

>  <VSA_EState6>
1.16

>  <VSA_EState7>
0.5

>  <VSA_EState8>
7.27

>  <VSA_EState9>
0

>  <apol>
58.45

>  <bpol>
35.76

>  <nRing>
3

>  <nHRing>
3

>  <naRing>
1

>  <naHRing>
1

>  <nARing 2>
2

>  <nAHRing 2>
2

>  <nFRing>
1

>  <nFHRing>
1

>  <nFaRing>
0

>  <nFaHRing>
0

>  <nFARing 2>
1

>  <nFAHRing 2>
1

>  <nRot>
7

>  <SLogP>
1.48

>  <SMR>
103.03

>  <TopoPSA(NO)>
126.15

>  <TopoPSA>
151.45

>  <JGI1>
0.26

>  <JGI2>
0.09

>  <JGI3>
0.09

>  <JGI4>
0.06

>  <JGI5>
0.03

>  <Diameter>
13

>  <Radius>
7

>  <TMWC10>
138.44

>  <TSRW10>
81.48

>  <MW>
424.13

>  <AMW>
8

>  <WPath>
2308

>  <WPol>
44

>  <Zagreb1>
156

>  <Zagreb2>
187

>  <mZagreb2>
6.18

>  <yes>


>  <nAR-cont>
1

>  <nHA-cont>
0.785905698

>  <MWHBN>
0.437011648

>  <MWHBN-cont>
0.333372858

>  <TPSA-cont>
0

>  <pka_cont>
0.97

>  <yes.1>


>  <BBB_SCORE>
2.770964985

>  <MMFF94 Energy>
57.231

$$$$
Compound 922
Actelion Java MolfileCreator 2.0

  0  0  0  0  0  0              0 V3000
M  V30 BEGIN CTAB
M  V30 COUNTS 38 39 0 0 0
M  V30 BEGIN ATOM
M  V30 1 O -2.7532 -0.4715 -0.3929 0
M  V30 2 C -3.5729 -1.5615 -0.259 0
M  V30 3 C -1.3629 -0.8328 -0.281 0 CFG=2
M  V30 4 C -3.1423 -2.7849 0.2613 0
M  V30 5 C -4.8972 -1.4027 -0.6639 0
M  V30 6 C -1.1596 -1.7698 0.9087 0
M  V30 7 C -0.5622 0.4728 -0.1311 0
M  V30 8 O -1.866 -3.0032 0.7098 0
M  V30 9 C -4.025 -3.8611 0.3354 0
M  V30 10 C -5.785 -2.4765 -0.5771 0
M  V30 11 N 0.8892 0.2554 -0.1293 0
M  V30 12 C -5.3478 -3.7064 -0.0828 0
M  V30 13 C 1.6085 1.5168 0.0715 0
M  V30 14 C 3.1177 1.2525 0.0544 0
M  V30 15 C 3.9604 2.502 0.3743 0
M  V30 16 C 5.4377 2.1168 0.4854 0
M  V30 17 C 3.7925 3.6044 -0.6723 0
M  V30 18 H -1.0769 -1.3332 -1.2168 0
M  V30 19 H -5.2345 -0.4474 -1.0559 0
M  V30 20 H -1.5134 -1.3186 1.8448 0
M  V30 21 H -0.1031 -2.0258 1.0355 0
M  V30 22 H -0.8377 1.1499 -0.9501 0
M  V30 23 H -0.8723 0.972 0.7964 0
M  V30 24 H -3.6851 -4.8149 0.7287 0
M  V30 25 H -6.8163 -2.355 -0.8984 0
M  V30 26 H 1.1734 -0.1524 -1.0213 0
M  V30 27 H -6.0379 -4.5438 -0.0188 0
M  V30 28 H 1.3409 2.2231 -0.7215 0
M  V30 29 H 1.3278 1.9573 1.0353 0
M  V30 30 H 3.3493 0.4746 0.7945 0
M  V30 31 H 3.411 0.8511 -0.9246 0
M  V30 32 H 3.6437 2.9006 1.3466 0
M  V30 33 H 5.5852 1.3582 1.2613 0
M  V30 34 H 5.8155 1.7133 -0.4602 0
M  V30 35 H 6.0481 2.9865 0.751 0
M  V30 36 H 2.7694 3.9919 -0.6829 0
M  V30 37 H 4.03 3.2378 -1.6766 0
M  V30 38 H 4.4553 4.4493 -0.4558 0
M  V30 END ATOM
M  V30 BEGIN BOND
M  V30 1 1 1 2
M  V30 2 1 1 3
M  V30 3 2 2 4
M  V30 4 1 2 5
M  V30 5 1 3 6
M  V30 6 1 3 7
M  V30 7 1 4 8
M  V30 8 1 4 9
M  V30 9 2 5 10
M  V30 10 1 7 11
M  V30 11 2 9 12
M  V30 12 1 11 13
M  V30 13 1 13 14
M  V30 14 1 14 15
M  V30 15 1 15 16
M  V30 16 1 15 17
M  V30 17 1 6 8
M  V30 18 1 10 12
M  V30 19 1 3 18
M  V30 20 1 5 19
M  V30 21 1 6 20
M  V30 22 1 6 21
M  V30 23 1 7 22
M  V30 24 1 7 23
M  V30 25 1 9 24
M  V30 26 1 10 25
M  V30 27 1 11 26
M  V30 28 1 12 27
M  V30 29 1 13 28
M  V30 30 1 13 29
M  V30 31 1 14 30
M  V30 32 1 14 31
M  V30 33 1 15 32
M  V30 34 1 16 33
M  V30 35 1 16 34
M  V30 36 1 16 35
M  V30 37 1 17 36
M  V30 38 1 17 37
M  V30 39 1 17 38
M  V30 END BOND
M  V30 BEGIN COLLECTION
M  V30 MDLV30/STERAC1 ATOMS=(1 3)
M  V30 END COLLECTION
M  V30 END CTAB
M  END
>  <Column 1>
1105

>  <level_0>
1244

>  <index>
1244

>  <Unnamed: 0>
1244

>  <NO.>
1256

>  <Name>
pentamoxane

>  <IUPAC_name>
n-(2-3-dihydro-1-4-benzodioxin-3-ylmethyl)-3-methylbutan-1-amine

>  <SMILES>
CC(C)CCNCC1COc2ccccc2O1

>  <CID>
3083868

>  <logBB>


>  <BBB+/BBB->
BBB+

>  <Inchi>
InChI=1S/C14H21NO2/c1-11(2)7-8-15-9-12-10-16-13-5-3-4-6-14(13)17-12/h3-6-11-12-15H-7-10H2-1-2H3

>  <threshold>
-1

>  <reference>
R1|R19|R6|R27|R27|R30|

>  <group>
B

>  <Class>
1

>  <ABC>
12.91

>  <ABCGG>
10.25

>  <nAcid>
0

>  <nBase>
1

>  <nAromAtom>
6

>  <nAromBond>
6

>  <nAtom>
38

>  <nHeavyAtom>
17

>  <nSpiro>
0

>  <nBridgehead>
0

>  <nHetero>
3

>  <nN>
1

>  <nO>
2

>  <nF>
0

>  <BalabanJ>
1.62

>  <BertzCT>
351.83

>  <nBonds>
39

>  <nBondsO>
18

>  <nBondsS>
33

>  <nBondsD>
0

>  <nBondsT>
0

>  <nBondsA>
6

>  <nBondsM>
6

>  <nBondsKS>
36

>  <nBondsKD>
3

>  <RNCG>
0.3

>  <RPCG>
0.1

>  <FCSP3>
0.57

>  <SZ>
21.33

>  <Sm>
19.59

>  <Sv>
21.88

>  <Sse>
37.65

>  <Sp>
24

>  <Si>
43.07

>  <MZ>
0.56

>  <Mm>
0.52

>  <Mv>
0.58

>  <Mse>
0.99

>  <Mp>
0.63

>  <Mi>
1.13

>  <NsCH3>
2

>  <NdCH2>
0

>  <NssCH2>
4

>  <NtCH>
0

>  <NdsCH>
0

>  <NaaCH>
4

>  <NsssCH>
2

>  <NddC>
0

>  <NtsC>
0

>  <NdssC>
0

>  <NaasC>
2

>  <NaaaC>
0

>  <NssssC>
0

>  <NsNH3>
0

>  <NsNH2>
0

>  <NssNH2>
0

>  <NdNH>
0

>  <NssNH>
1

>  <NaaNH>
0

>  <NtN>
0

>  <NsssNH>
0

>  <NdsN>
0

>  <NaaN>
0

>  <NsssN>
0

>  <NddsN>
0

>  <NaasN>
0

>  <NssssN>
0

>  <NsOH>
0

>  <NdO>
0

>  <NssO>
2

>  <NaaO>
0

>  <NsF>
0

>  <NsSiH3>
0

>  <NssSiH2>
0

>  <NsssSiH>
0

>  <NssssSi>
0

>  <NsPH2>
0

>  <NssPH>
0

>  <NsssP>
0

>  <NdsssP>
0

>  <NsssssP>
0

>  <NsSH>
0

>  <NdS>
0

>  <NssS>
0

>  <NaaS>
0

>  <NdssS>
0

>  <NddssS>
0

>  <NsCl>
0

>  <NsBr>
0

>  <NsI>
0

>  <fragCpx>
52.03

>  <fMF>
0.26

>  <nHBAcc>
3

>  <nHBDon>
1

>  <Kier1>
13.43

>  <Kier2>
6.81

>  <Lipinski>
1

>  <GhoseFilter>
1

>  <FilterItLogS>
-3.69

>  <VMcGowan>
195.22

>  <LabuteASA>
103.12

>  <PEOE_VSA1>
14.79

>  <PEOE_VSA2>
0

>  <PEOE_VSA3>
0

>  <PEOE_VSA4>
0

>  <PEOE_VSA5>
0

>  <PEOE_VSA6>
25.98

>  <PEOE_VSA7>
31.02

>  <PEOE_VSA8>
6.54

>  <PEOE_VSA9>
0

>  <PEOE_VSA10>
12.71

>  <PEOE_VSA11>
11.5

>  <PEOE_VSA12>
0

>  <PEOE_VSA13>
0

>  <SMR_VSA1>
9.47

>  <SMR_VSA2>
0

>  <SMR_VSA3>
5.32

>  <SMR_VSA4>
5.92

>  <SMR_VSA5>
26.37

>  <SMR_VSA6>
19.7

>  <SMR_VSA7>
24.27

>  <SMR_VSA8>
0

>  <SMR_VSA9>
11.5

>  <SlogP_VSA1>
14.79

>  <SlogP_VSA2>
25.8

>  <SlogP_VSA3>
0

>  <SlogP_VSA4>
5.92

>  <SlogP_VSA5>
20.27

>  <SlogP_VSA6>
24.27

>  <SlogP_VSA7>
0

>  <SlogP_VSA8>
0

>  <SlogP_VSA9>
0

>  <SlogP_VSA10>
0

>  <SlogP_VSA11>
11.5

>  <EState_VSA1>
0

>  <EState_VSA2>
6.1

>  <EState_VSA3>
6.61

>  <EState_VSA4>
30.51

>  <EState_VSA5>
6.42

>  <EState_VSA6>
0

>  <EState_VSA7>
24.27

>  <EState_VSA8>
19.16

>  <EState_VSA9>
9.47

>  <EState_VSA10>
0

>  <VSA_EState1>
11.5

>  <VSA_EState2>
0

>  <VSA_EState3>
3.41

>  <VSA_EState4>
0

>  <VSA_EState5>
2.45

>  <VSA_EState6>
7.83

>  <VSA_EState7>
1.32

>  <VSA_EState8>
6.99

>  <VSA_EState9>
0

>  <apol>
40.09

>  <bpol>
25.11

>  <nRing>
2

>  <nHRing>
1

>  <naRing>
1

>  <naHRing>
0

>  <nARing 2>
1

>  <nAHRing 2>
1

>  <nFRing>
1

>  <nFHRing>
1

>  <nFaRing>
0

>  <nFaHRing>
0

>  <nFARing 2>
1

>  <nFAHRing 2>
1

>  <nRot>
5

>  <SLogP>
2.46

>  <SMR>
68.68

>  <TopoPSA(NO)>
30.49

>  <TopoPSA>
30.49

>  <JGI1>
0.17

>  <JGI2>
0.06

>  <JGI3>
0.03

>  <JGI4>
0.04

>  <JGI5>
0.01

>  <Diameter>
11

>  <Radius>
6

>  <TMWC10>
104.33

>  <TSRW10>
49.07

>  <MW>
235.16

>  <AMW>
6.19

>  <WPath>
606

>  <WPol>
21

>  <Zagreb1>
82

>  <Zagreb2>
91

>  <mZagreb2>
3.86

>  <yes>


>  <nAR-cont>
0.816016

>  <nHA-cont>
0.976740822

>  <MWHBN>
0.260842447

>  <MWHBN-cont>
0.939732804

>  <TPSA-cont>
0.787160867

>  <pka_cont>
0.97

>  <yes.1>


>  <BBB_SCORE>
5.261677761

>  <MMFF94 Energy>
61.349

$$$$
Compound 923
Actelion Java MolfileCreator 2.0

  0  0  0  0  0  0              0 V3000
M  V30 BEGIN CTAB
M  V30 COUNTS 46 47 0 0 0
M  V30 BEGIN ATOM
M  V30 1 O 0.0 -0.0784 -0.6277 0
M  V30 2 C -0.4102 1.0345 0.1849 0 CFG=2
M  V30 3 C 1.321 0.0647 -1.1545 0
M  V30 4 C 0.2577 1.0386 1.551 0
M  V30 5 C -1.9698 1.0904 0.2674 0
M  V30 6 C 1.6368 -1.1932 -1.9604 0
M  V30 7 C 0.472 -0.1515 2.2621 0
M  V30 8 C 0.6668 2.2502 2.1305 0
M  V30 9 N -2.6618 0.0766 1.1014 0
M  V30 10 C 3.0313 -1.2344 -2.6075 0
M  V30 11 C 1.0878 -0.1335 3.5143 0
M  V30 12 C 1.2835 2.2671 3.3834 0
M  V30 13 C -2.6739 -1.2614 0.4931 0
M  V30 14 C -4.0895 0.3974 1.2541 0
M  V30 15 C 3.2307 -0.1145 -3.6284 0
M  V30 16 C 4.1531 -1.2171 -1.5692 0
M  V30 17 C 1.4949 1.0755 4.0739 0
M  V30 18 C -3.8509 -1.2746 -0.4715 0
M  V30 19 C -4.7838 -0.1814 0.0301 0
M  V30 20 H -0.1073 1.9465 -0.3491 0
M  V30 21 H 2.0376 0.185 -0.3369 0
M  V30 22 H 1.3534 0.9513 -1.7958 0
M  V30 23 H -2.3662 1.0771 -0.756 0
M  V30 24 H -2.2126 2.0763 0.6877 0
M  V30 25 H 0.8725 -1.3124 -2.74 0
M  V30 26 H 1.5149 -2.0684 -1.3082 0
M  V30 27 H 0.1496 -1.1001 1.8382 0
M  V30 28 H 0.5063 3.1914 1.6101 0
M  V30 29 H 3.102 -2.1871 -3.1489 0
M  V30 30 H 1.2429 -1.0639 4.0535 0
M  V30 31 H 1.5953 3.211 3.8227 0
M  V30 32 H -1.7414 -1.5634 0.0133 0
M  V30 33 H -2.8539 -1.9953 1.2896 0
M  V30 34 H -4.4629 -0.1028 2.1567 0
M  V30 35 H -4.2911 1.4663 1.3843 0
M  V30 36 H 2.4231 -0.1128 -4.3679 0
M  V30 37 H 3.2611 0.8704 -3.1518 0
M  V30 38 H 4.175 -0.2503 -4.1666 0
M  V30 39 H 4.0082 -2.0075 -0.8253 0
M  V30 40 H 4.2079 -0.2582 -1.044 0
M  V30 41 H 5.1227 -1.3858 -2.05 0
M  V30 42 H 1.9711 1.089 5.0504 0
M  V30 43 H -4.3446 -2.2515 -0.4884 0
M  V30 44 H -3.5223 -1.0455 -1.4917 0
M  V30 45 H -5.7737 -0.5764 0.2799 0
M  V30 46 H -4.9122 0.5835 -0.7441 0
M  V30 END ATOM
M  V30 BEGIN BOND
M  V30 1 1 1 2
M  V30 2 1 1 3
M  V30 3 1 2 4
M  V30 4 1 2 5
M  V30 5 1 3 6
M  V30 6 2 4 7
M  V30 7 1 4 8
M  V30 8 1 5 9
M  V30 9 1 6 10
M  V30 10 1 7 11
M  V30 11 2 8 12
M  V30 12 1 9 13
M  V30 13 1 9 14
M  V30 14 1 10 15
M  V30 15 1 10 16
M  V30 16 2 11 17
M  V30 17 1 13 18
M  V30 18 1 14 19
M  V30 19 1 12 17
M  V30 20 1 18 19
M  V30 21 1 2 20
M  V30 22 1 3 21
M  V30 23 1 3 22
M  V30 24 1 5 23
M  V30 25 1 5 24
M  V30 26 1 6 25
M  V30 27 1 6 26
M  V30 28 1 7 27
M  V30 29 1 8 28
M  V30 30 1 10 29
M  V30 31 1 11 30
M  V30 32 1 12 31
M  V30 33 1 13 32
M  V30 34 1 13 33
M  V30 35 1 14 34
M  V30 36 1 14 35
M  V30 37 1 15 36
M  V30 38 1 15 37
M  V30 39 1 15 38
M  V30 40 1 16 39
M  V30 41 1 16 40
M  V30 42 1 16 41
M  V30 43 1 17 42
M  V30 44 1 18 43
M  V30 45 1 18 44
M  V30 46 1 19 45
M  V30 47 1 19 46
M  V30 END BOND
M  V30 BEGIN COLLECTION
M  V30 MDLV30/STERAC1 ATOMS=(1 2)
M  V30 END COLLECTION
M  V30 END CTAB
M  END
>  <Column 1>
1106

>  <level_0>
1245

>  <index>
1245

>  <Unnamed: 0>
1245

>  <NO.>
1257

>  <Name>
amixetrine

>  <IUPAC_name>
1-[2-(3-methylbutoxy)-2-phenylethyl]pyrrolidine

>  <SMILES>
CC(C)CCOC(CN1CCCC1)c1ccccc1

>  <CID>
71911

>  <logBB>


>  <BBB+/BBB->
BBB+

>  <Inchi>
InChI=1S/C17H27NO/c1-15(2)10-13-19-17(14-18-11-6-7-12-18)16-8-4-3-5-9-16/h3-5-8-9-15-17H-6-7-10-14H2-1-2H3

>  <threshold>
-1

>  <reference>
R1|R19|R6|R27|R27|R30|

>  <group>
B

>  <Class>
-1

>  <ABC>
14.32

>  <ABCGG>
12.56

>  <nAcid>
0

>  <nBase>
1

>  <nAromAtom>
6

>  <nAromBond>
6

>  <nAtom>
46

>  <nHeavyAtom>
19

>  <nSpiro>
0

>  <nBridgehead>
0

>  <nHetero>
2

>  <nN>
1

>  <nO>
1

>  <nF>
0

>  <BalabanJ>
1.79

>  <BertzCT>
343.54

>  <nBonds>
47

>  <nBondsO>
20

>  <nBondsS>
41

>  <nBondsD>
0

>  <nBondsT>
0

>  <nBondsA>
6

>  <nBondsM>
6

>  <nBondsKS>
44

>  <nBondsKD>
3

>  <RNCG>
0.29

>  <RPCG>
0.07

>  <FCSP3>
0.65

>  <SZ>
24

>  <Sm>
21.76

>  <Sv>
25.79

>  <Sse>
44.98

>  <Sp>
28.92

>  <Si>
52.11

>  <MZ>
0.52

>  <Mm>
0.47

>  <Mv>
0.56

>  <Mse>
0.98

>  <Mp>
0.63

>  <Mi>
1.13

>  <NsCH3>
2

>  <NdCH2>
0

>  <NssCH2>
7

>  <NtCH>
0

>  <NdsCH>
0

>  <NaaCH>
5

>  <NsssCH>
2

>  <NddC>
0

>  <NtsC>
0

>  <NdssC>
0

>  <NaasC>
1

>  <NaaaC>
0

>  <NssssC>
0

>  <NsNH3>
0

>  <NsNH2>
0

>  <NssNH2>
0

>  <NdNH>
0

>  <NssNH>
0

>  <NaaNH>
0

>  <NtN>
0

>  <NsssNH>
0

>  <NdsN>
0

>  <NaaN>
0

>  <NsssN>
1

>  <NddsN>
0

>  <NaasN>
0

>  <NssssN>
0

>  <NsOH>
0

>  <NdO>
0

>  <NssO>
1

>  <NaaO>
0

>  <NsF>
0

>  <NsSiH3>
0

>  <NssSiH2>
0

>  <NsssSiH>
0

>  <NssssSi>
0

>  <NsPH2>
0

>  <NssPH>
0

>  <NsssP>
0

>  <NdsssP>
0

>  <NsssssP>
0

>  <NsSH>
0

>  <NdS>
0

>  <NssS>
0

>  <NaaS>
0

>  <NdssS>
0

>  <NddssS>
0

>  <NsCl>
0

>  <NsBr>
0

>  <NsI>
0

>  <fragCpx>
58.02

>  <fMF>
0.28

>  <nHBAcc>
2

>  <nHBDon>
0

>  <Kier1>
15.39

>  <Kier2>
8.32

>  <Lipinski>
1

>  <GhoseFilter>
1

>  <FilterItLogS>
-3.91

>  <VMcGowan>
231.62

>  <LabuteASA>
117.31

>  <PEOE_VSA1>
9.64

>  <PEOE_VSA2>
0

>  <PEOE_VSA3>
0

>  <PEOE_VSA4>
0

>  <PEOE_VSA5>
0

>  <PEOE_VSA6>
44.18

>  <PEOE_VSA7>
43.83

>  <PEOE_VSA8>
13.15

>  <PEOE_VSA9>
6.1

>  <PEOE_VSA10>
0

>  <PEOE_VSA11>
0

>  <PEOE_VSA12>
0

>  <PEOE_VSA13>
0

>  <SMR_VSA1>
4.74

>  <SMR_VSA2>
0

>  <SMR_VSA3>
4.9

>  <SMR_VSA4>
5.92

>  <SMR_VSA5>
39.21

>  <SMR_VSA6>
26.24

>  <SMR_VSA7>
35.9

>  <SMR_VSA8>
0

>  <SMR_VSA9>
0

>  <SlogP_VSA1>
0

>  <SlogP_VSA2>
31.14

>  <SlogP_VSA3>
4.74

>  <SlogP_VSA4>
5.92

>  <SlogP_VSA5>
44.78

>  <SlogP_VSA6>
30.33

>  <SlogP_VSA7>
0

>  <SlogP_VSA8>
0

>  <SlogP_VSA9>
0

>  <SlogP_VSA10>
0

>  <SlogP_VSA11>
0

>  <EState_VSA1>
0

>  <EState_VSA2>
6.1

>  <EState_VSA3>
5.92

>  <EState_VSA4>
19.57

>  <EState_VSA5>
31.49

>  <EState_VSA6>
0

>  <EState_VSA7>
0

>  <EState_VSA8>
49.08

>  <EState_VSA9>
4.74

>  <EState_VSA10>
0

>  <VSA_EState1>
6.16

>  <VSA_EState2>
2.53

>  <VSA_EState3>
0

>  <VSA_EState4>
1.32

>  <VSA_EState5>
0.71

>  <VSA_EState6>
10.67

>  <VSA_EState7>
4.06

>  <VSA_EState8>
8.88

>  <VSA_EState9>
0

>  <apol>
48.3

>  <bpol>
30.53

>  <nRing>
2

>  <nHRing>
1

>  <naRing>
1

>  <naHRing>
0

>  <nARing 2>
1

>  <nAHRing 2>
1

>  <nFRing>
0

>  <nFHRing>
0

>  <nFaRing>
0

>  <nFaHRing>
0

>  <nFARing 2>
0

>  <nFAHRing 2>
0

>  <nRot>
7

>  <SLogP>
3.89

>  <SMR>
80.26

>  <TopoPSA(NO)>
12.47

>  <TopoPSA>
12.47

>  <JGI1>
0.15

>  <JGI2>
0.05

>  <JGI3>
0.04

>  <JGI4>
0.02

>  <JGI5>
0.02

>  <Diameter>
9

>  <Radius>
5

>  <TMWC10>
108.79

>  <TSRW10>
64.33

>  <MW>
261.21

>  <AMW>
5.68

>  <WPath>
761

>  <WPol>
21

>  <Zagreb1>
90

>  <Zagreb2>
99

>  <mZagreb2>
4.36

>  <yes>


>  <nAR-cont>
0.816016

>  <nHA-cont>
0.998649058

>  <MWHBN>
0.123747119

>  <MWHBN-cont>
0.845113285

>  <TPSA-cont>
0.912951657

>  <pka_cont>
0.97

>  <yes.1>


>  <BBB_SCORE>
5.393238299

>  <MMFF94 Energy>
75.672

$$$$
Compound 924
Actelion Java MolfileCreator 2.0

  0  0  0  0  0  0              0 V3000
M  V30 BEGIN CTAB
M  V30 COUNTS 61 63 0 0 0
M  V30 BEGIN ATOM
M  V30 1 O 0.3149 1.8908 -2.2062 0
M  V30 2 C 0.3863 1.3743 -0.8723 0
M  V30 3 C 1.6074 2.1717 -2.7395 0
M  V30 4 C -1.0237 0.9913 -0.3599 0 CFG=1
M  V30 5 C 1.4582 2.6638 -4.1837 0
M  V30 6 N -1.7511 -0.0658 -1.102 0
M  V30 7 C -1.0055 0.738 1.1841 0
M  V30 8 C 2.8118 3.0971 -4.7422 0
M  V30 9 C 0.8344 1.5872 -5.0751 0
M  V30 10 C -2.5785 0.4414 -2.197 0
M  V30 11 C -0.9313 -1.1134 -1.709 0
M  V30 12 N -0.1511 -0.3734 1.6602 0
M  V30 13 C -2.9537 -0.8144 -2.9761 0
M  V30 14 C -1.964 -1.8799 -2.5186 0
M  V30 15 C -0.6409 -1.6685 1.8361 0
M  V30 16 C 1.2136 -0.0113 2.076 0
M  V30 17 C -1.9689 -2.0243 1.5391 0
M  V30 18 C 0.1632 -2.7165 2.3247 0
M  V30 19 C 1.4185 0.1021 3.5762 0
M  V30 20 C -2.4634 -3.3253 1.7136 0
M  V30 21 C -0.3196 -4.0209 2.5075 0
M  V30 22 C 0.3667 0.342 4.4726 0
M  V30 23 C 2.7251 0.0231 4.0883 0
M  V30 24 C -1.637 -4.3264 2.2008 0
M  V30 25 C 0.6097 0.4756 5.8416 0
M  V30 26 C 2.9679 0.1586 5.4569 0
M  V30 27 C 1.9094 0.3835 6.3333 0
M  V30 28 H 1.0647 0.5142 -0.8407 0
M  V30 29 H 0.8039 2.1627 -0.2349 0
M  V30 30 H 2.2252 1.2661 -2.7071 0
M  V30 31 H 2.0848 2.9444 -2.1254 0
M  V30 32 H -1.6327 1.9021 -0.4653 0
M  V30 33 H 0.7816 3.5279 -4.1901 0
M  V30 34 H -0.6578 1.6669 1.6592 0
M  V30 35 H -2.0313 0.6407 1.5599 0
M  V30 36 H 3.5199 2.2617 -4.7619 0
M  V30 37 H 3.2464 3.8958 -4.1319 0
M  V30 38 H 2.7075 3.4771 -5.7639 0
M  V30 39 H 1.4497 0.6813 -5.0922 0
M  V30 40 H -0.1646 1.3108 -4.723 0
M  V30 41 H 0.7336 1.9474 -6.1045 0
M  V30 42 H -2.0302 1.1279 -2.8515 0
M  V30 43 H -3.4705 0.9577 -1.8272 0
M  V30 44 H -0.4356 -1.7607 -0.9828 0
M  V30 45 H -0.1731 -0.715 -2.393 0
M  V30 46 H -2.8787 -0.64 -4.0546 0
M  V30 47 H -3.979 -1.1317 -2.7552 0
M  V30 48 H -1.5147 -2.4124 -3.3623 0
M  V30 49 H -2.477 -2.6167 -1.8884 0
M  V30 50 H 1.9326 -0.7171 1.6413 0
M  V30 51 H 1.4868 0.9653 1.6587 0
M  V30 52 H -2.6671 -1.2971 1.1365 0
M  V30 53 H 1.2017 -2.5497 2.5915 0
M  V30 54 H -3.4969 -3.5444 1.46 0
M  V30 55 H 0.3428 -4.7907 2.8933 0
M  V30 56 H -0.6574 0.4096 4.1132 0
M  V30 57 H 3.5661 -0.148 3.4199 0
M  V30 58 H -2.0158 -5.3343 2.3389 0
M  V30 59 H -0.2196 0.6475 6.5227 0
M  V30 60 H 3.9829 0.0885 5.8388 0
M  V30 61 H 2.0958 0.4858 7.399 0
M  V30 END ATOM
M  V30 BEGIN BOND
M  V30 1 1 1 2
M  V30 2 1 1 3
M  V30 3 1 2 4
M  V30 4 1 3 5
M  V30 5 1 4 6
M  V30 6 1 4 7
M  V30 7 1 5 8
M  V30 8 1 5 9
M  V30 9 1 6 10
M  V30 10 1 6 11
M  V30 11 1 7 12
M  V30 12 1 10 13
M  V30 13 1 11 14
M  V30 14 1 12 15
M  V30 15 1 12 16
M  V30 16 2 15 17
M  V30 17 1 15 18
M  V30 18 1 16 19
M  V30 19 1 17 20
M  V30 20 2 18 21
M  V30 21 2 19 22
M  V30 22 1 19 23
M  V30 23 2 20 24
M  V30 24 1 22 25
M  V30 25 2 23 26
M  V30 26 2 25 27
M  V30 27 1 13 14
M  V30 28 1 21 24
M  V30 29 1 26 27
M  V30 30 1 2 28
M  V30 31 1 2 29
M  V30 32 1 3 30
M  V30 33 1 3 31
M  V30 34 1 4 32
M  V30 35 1 5 33
M  V30 36 1 7 34
M  V30 37 1 7 35
M  V30 38 1 8 36
M  V30 39 1 8 37
M  V30 40 1 8 38
M  V30 41 1 9 39
M  V30 42 1 9 40
M  V30 43 1 9 41
M  V30 44 1 10 42
M  V30 45 1 10 43
M  V30 46 1 11 44
M  V30 47 1 11 45
M  V30 48 1 13 46
M  V30 49 1 13 47
M  V30 50 1 14 48
M  V30 51 1 14 49
M  V30 52 1 16 50
M  V30 53 1 16 51
M  V30 54 1 17 52
M  V30 55 1 18 53
M  V30 56 1 20 54
M  V30 57 1 21 55
M  V30 58 1 22 56
M  V30 59 1 23 57
M  V30 60 1 24 58
M  V30 61 1 25 59
M  V30 62 1 26 60
M  V30 63 1 27 61
M  V30 END BOND
M  V30 BEGIN COLLECTION
M  V30 MDLV30/STERAC1 ATOMS=(1 4)
M  V30 END COLLECTION
M  V30 END CTAB
M  END
>  <Column 1>
1107

>  <level_0>
1246

>  <index>
1246

>  <Unnamed: 0>
1246

>  <NO.>
1258

>  <Name>
bepridil

>  <IUPAC_name>
n-benzyl-n-[3-(2-methylpropoxy)-2-pyrrolidin-1-ylpropyl]aniline

>  <SMILES>
CC(C)COCC(CN(Cc1ccccc1)c1ccccc1)N1CCCC1

>  <CID>
2351

>  <logBB>


>  <BBB+/BBB->
BBB-

>  <Inchi>
InChI=1S/C24H34N2O/c1-21(2)19-27-20-24(25-15-9-10-16-25)18-26(23-13-7-4-8-14-23)17-22-11-5-3-6-12-22/h3-8-11-14-21-24H-9-10-15-20H2-1-2H3

>  <threshold>
-1

>  <reference>
R1|R19|R6|R14|R15|R23|R27|R27|R30|

>  <group>
B

>  <Class>
1

>  <ABC>
20.64

>  <ABCGG>
17.13

>  <nAcid>
0

>  <nBase>
1

>  <nAromAtom>
12

>  <nAromBond>
12

>  <nAtom>
61

>  <nHeavyAtom>
27

>  <nSpiro>
0

>  <nBridgehead>
0

>  <nHetero>
3

>  <nN>
2

>  <nO>
1

>  <nF>
0

>  <BalabanJ>
1.61

>  <BertzCT>
637.95

>  <nBonds>
63

>  <nBondsO>
29

>  <nBondsS>
51

>  <nBondsD>
0

>  <nBondsT>
0

>  <nBondsA>
12

>  <nBondsM>
12

>  <nBondsKS>
57

>  <nBondsKD>
6

>  <RNCG>
0.2

>  <RPCG>
0.03

>  <FCSP3>
0.5

>  <SZ>
33.33

>  <Sm>
30.52

>  <Sv>
35.44

>  <Sse>
59.75

>  <Sp>
39.37

>  <Si>
68.85

>  <MZ>
0.55

>  <Mm>
0.5

>  <Mv>
0.58

>  <Mse>
0.98

>  <Mp>
0.65

>  <Mi>
1.13

>  <NsCH3>
2

>  <NdCH2>
0

>  <NssCH2>
8

>  <NtCH>
0

>  <NdsCH>
0

>  <NaaCH>
10

>  <NsssCH>
2

>  <NddC>
0

>  <NtsC>
0

>  <NdssC>
0

>  <NaasC>
2

>  <NaaaC>
0

>  <NssssC>
0

>  <NsNH3>
0

>  <NsNH2>
0

>  <NssNH2>
0

>  <NdNH>
0

>  <NssNH>
0

>  <NaaNH>
0

>  <NtN>
0

>  <NsssNH>
0

>  <NdsN>
0

>  <NaaN>
0

>  <NsssN>
2

>  <NddsN>
0

>  <NaasN>
0

>  <NssssN>
0

>  <NsOH>
0

>  <NdO>
0

>  <NssO>
1

>  <NaaO>
0

>  <NsF>
0

>  <NsSiH3>
0

>  <NssSiH2>
0

>  <NsssSiH>
0

>  <NssssSi>
0

>  <NsPH2>
0

>  <NssPH>
0

>  <NsssP>
0

>  <NdsssP>
0

>  <NsssssP>
0

>  <NsSH>
0

>  <NdS>
0

>  <NssS>
0

>  <NaaS>
0

>  <NdssS>
0

>  <NddssS>
0

>  <NsCl>
0

>  <NsBr>
0

>  <NsI>
0

>  <fragCpx>
139.03

>  <fMF>
0.34

>  <nHBAcc>
3

>  <nHBDon>
0

>  <Kier1>
21.7

>  <Kier2>
11.87

>  <Lipinski>
1

>  <GhoseFilter>
1

>  <FilterItLogS>
-5.36

>  <VMcGowan>
316.47

>  <LabuteASA>
164.5

>  <PEOE_VSA1>
9.64

>  <PEOE_VSA2>
4.9

>  <PEOE_VSA3>
0

>  <PEOE_VSA4>
0

>  <PEOE_VSA5>
0

>  <PEOE_VSA6>
62.38

>  <PEOE_VSA7>
49.55

>  <PEOE_VSA8>
25.38

>  <PEOE_VSA9>
12.65

>  <PEOE_VSA10>
0

>  <PEOE_VSA11>
0

>  <PEOE_VSA12>
0

>  <PEOE_VSA13>
0

>  <SMR_VSA1>
4.74

>  <SMR_VSA2>
0

>  <SMR_VSA3>
4.9

>  <SMR_VSA4>
5.92

>  <SMR_VSA5>
39.28

>  <SMR_VSA6>
37.75

>  <SMR_VSA7>
66.23

>  <SMR_VSA8>
0

>  <SMR_VSA9>
0

>  <SlogP_VSA1>
4.9

>  <SlogP_VSA2>
43.79

>  <SlogP_VSA3>
11.28

>  <SlogP_VSA4>
5.92

>  <SlogP_VSA5>
32.25

>  <SlogP_VSA6>
60.66

>  <SlogP_VSA7>
0

>  <SlogP_VSA8>
0

>  <SlogP_VSA9>
0

>  <SlogP_VSA10>
5.69

>  <SlogP_VSA11>
0

>  <EState_VSA1>
0

>  <EState_VSA2>
0

>  <EState_VSA3>
11.96

>  <EState_VSA4>
26.3

>  <EState_VSA5>
37.18

>  <EState_VSA6>
0

>  <EState_VSA7>
0

>  <EState_VSA8>
84.31

>  <EState_VSA9>
4.74

>  <EState_VSA10>
0

>  <VSA_EState1>
6.09

>  <VSA_EState2>
5.14

>  <VSA_EState3>
0

>  <VSA_EState4>
2.64

>  <VSA_EState5>
0.58

>  <VSA_EState6>
22.02

>  <VSA_EState7>
2.62

>  <VSA_EState8>
10.42

>  <VSA_EState9>
0

>  <apol>
65.75

>  <bpol>
39.27

>  <nRing>
3

>  <nHRing>
1

>  <naRing>
2

>  <naHRing>
0

>  <nARing 2>
1

>  <nAHRing 2>
1

>  <nFRing>
0

>  <nFHRing>
0

>  <nFaRing>
0

>  <nFaHRing>
0

>  <nFARing 2>
0

>  <nFAHRing 2>
0

>  <nRot>
10

>  <SLogP>
4.83

>  <SMR>
114.19

>  <TopoPSA(NO)>
15.71

>  <TopoPSA>
15.71

>  <JGI1>
0.14

>  <JGI2>
0.05

>  <JGI3>
0.03

>  <JGI4>
0.02

>  <JGI5>
0.02

>  <Diameter>
12

>  <Radius>
6

>  <TMWC10>
129.86

>  <TSRW10>
74.44

>  <MW>
366.27

>  <AMW>
6

>  <WPath>
1895

>  <WPol>
34

>  <Zagreb1>
132

>  <Zagreb2>
148

>  <mZagreb2>
6.14

>  <yes>


>  <nAR-cont>
0.816016

>  <nHA-cont>
0.860070871

>  <MWHBN>
0.156754703

>  <MWHBN-cont>
0.948835449

>  <TPSA-cont>
0.890334445

>  <pka_cont>
0.97

>  <yes.1>


>  <BBB_SCORE>
5.365008935

>  <MMFF94 Energy>
107.51

$$$$
Compound 925
Actelion Java MolfileCreator 2.0

  0  0  0  0  0  0              0 V3000
M  V30 BEGIN CTAB
M  V30 COUNTS 46 46 0 0 0
M  V30 BEGIN ATOM
M  V30 1 O -0.9335 2.1013 -3.1923 0
M  V30 2 C -0.9375 0.9602 -3.6261 0
M  V30 3 N 0.1807 0.189 -3.8864 0
M  V30 4 C -2.1551 0.1031 -3.8674 0
M  V30 5 C -0.154 -1.1823 -4.1658 0
M  V30 6 C 1.5359 0.6219 -3.591 0
M  V30 7 C -1.5927 -1.0871 -4.639 0
M  V30 8 C 1.845 0.3719 -2.1155 0
M  V30 9 O 2.523 -0.5784 -1.7361 0
M  V30 10 N 1.2393 1.2728 -1.2648 0
M  V30 11 C 1.3673 1.1951 0.1784 0
M  V30 12 C 0.3929 0.1653 0.7868 0
M  V30 13 N 0.4619 0.0722 2.2564 0
M  V30 14 C -0.1001 1.2444 2.9577 0
M  V30 15 C 0.0768 -1.2461 2.8017 0
M  V30 16 C -1.6244 1.2584 3.1041 0
M  V30 17 C 0.5678 1.4188 4.3294 0
M  V30 18 C -1.1196 -1.9363 2.13 0
M  V30 19 C 1.3015 -2.1707 2.7504 0
M  V30 20 H -2.5639 -0.2067 -2.9007 0
M  V30 21 H -2.9103 0.6444 -4.442 0
M  V30 22 H 0.5088 -1.5959 -4.9305 0
M  V30 23 H -0.0696 -1.7607 -3.2399 0
M  V30 24 H 2.2434 0.0784 -4.2237 0
M  V30 25 H 1.6259 1.6943 -3.7953 0
M  V30 26 H -1.6163 -0.867 -5.7137 0
M  V30 27 H -2.1573 -2.0087 -4.4725 0
M  V30 28 H 0.5985 1.9566 -1.6668 0
M  V30 29 H 1.1784 2.205 0.5515 0
M  V30 30 H 2.4005 0.9263 0.4262 0
M  V30 31 H -0.6312 0.3808 0.4573 0
M  V30 32 H 0.656 -0.7999 0.3381 0
M  V30 33 H 0.1663 2.15 2.4021 0
M  V30 34 H -0.1696 -1.1491 3.8651 0
M  V30 35 H -2.1201 1.1637 2.133 0
M  V30 36 H -1.9533 2.2073 3.5433 0
M  V30 37 H -1.9832 0.4583 3.7592 0
M  V30 38 H 0.2755 2.3766 4.775 0
M  V30 39 H 0.2886 0.6318 5.0366 0
M  V30 40 H 1.6594 1.4226 4.2347 0
M  V30 41 H -2.0042 -1.2943 2.1108 0
M  V30 42 H -1.3892 -2.8419 2.6855 0
M  V30 43 H -0.9007 -2.2441 1.1025 0
M  V30 44 H 1.0814 -3.1261 3.2397 0
M  V30 45 H 1.6129 -2.3878 1.7233 0
M  V30 46 H 2.1522 -1.7217 3.2757 0
M  V30 END ATOM
M  V30 BEGIN BOND
M  V30 1 2 1 2
M  V30 2 1 2 3
M  V30 3 1 2 4
M  V30 4 1 3 5
M  V30 5 1 3 6
M  V30 6 1 4 7
M  V30 7 1 6 8
M  V30 8 2 8 9
M  V30 9 1 8 10
M  V30 10 1 10 11
M  V30 11 1 11 12
M  V30 12 1 12 13
M  V30 13 1 13 14
M  V30 14 1 13 15
M  V30 15 1 14 16
M  V30 16 1 14 17
M  V30 17 1 15 18
M  V30 18 1 15 19
M  V30 19 1 5 7
M  V30 20 1 4 20
M  V30 21 1 4 21
M  V30 22 1 5 22
M  V30 23 1 5 23
M  V30 24 1 6 24
M  V30 25 1 6 25
M  V30 26 1 7 26
M  V30 27 1 7 27
M  V30 28 1 10 28
M  V30 29 1 11 29
M  V30 30 1 11 30
M  V30 31 1 12 31
M  V30 32 1 12 32
M  V30 33 1 14 33
M  V30 34 1 15 34
M  V30 35 1 16 35
M  V30 36 1 16 36
M  V30 37 1 16 37
M  V30 38 1 17 38
M  V30 39 1 17 39
M  V30 40 1 17 40
M  V30 41 1 18 41
M  V30 42 1 18 42
M  V30 43 1 18 43
M  V30 44 1 19 44
M  V30 45 1 19 45
M  V30 46 1 19 46
M  V30 END BOND
M  V30 END CTAB
M  END
>  <Column 1>
1108

>  <level_0>
1248

>  <index>
1248

>  <Unnamed: 0>
1248

>  <NO.>
1260

>  <Name>
pramiracetam

>  <IUPAC_name>
n-[2-[di(propan-2-yl)amino]ethyl]-2-(2-oxopyrrolidin-1-yl)acetamide

>  <SMILES>
CC(C)N(CCNC(=O)CN1CCCC1=O)C(C)C

>  <CID>
51712

>  <logBB>


>  <BBB+/BBB->
BBB+

>  <Inchi>
InChI=1S/C14H27N3O2/c1-11(2)17(12(3)4)9-7-15-13(18)10-16-8-5-6-14(16)19/h11-12H-5-10H2-1-4H3-(H-15-18)

>  <threshold>
-1

>  <reference>
R1|R13|R19|R6|R24|R27|R27|R27|R30|R30|

>  <group>
B

>  <Class>
-1

>  <ABC>
13.97

>  <ABCGG>
13.12

>  <nAcid>
0

>  <nBase>
1

>  <nAromAtom>
0

>  <nAromBond>
0

>  <nAtom>
46

>  <nHeavyAtom>
19

>  <nSpiro>
0

>  <nBridgehead>
0

>  <nHetero>
5

>  <nN>
3

>  <nO>
2

>  <nF>
0

>  <BalabanJ>
2.2

>  <BertzCT>
307.81

>  <nBonds>
46

>  <nBondsO>
19

>  <nBondsS>
44

>  <nBondsD>
2

>  <nBondsT>
0

>  <nBondsA>
0

>  <nBondsM>
2

>  <nBondsKS>
44

>  <nBondsKD>
2

>  <RNCG>
0.2

>  <RPCG>
0.14

>  <FCSP3>
0.86

>  <SZ>
24.67

>  <Sm>
22.43

>  <Sv>
25.02

>  <Sse>
45.64

>  <Sp>
27.72

>  <Si>
52.9

>  <MZ>
0.54

>  <Mm>
0.49

>  <Mv>
0.54

>  <Mse>
0.99

>  <Mp>
0.6

>  <Mi>
1.15

>  <NsCH3>
4

>  <NdCH2>
0

>  <NssCH2>
6

>  <NtCH>
0

>  <NdsCH>
0

>  <NaaCH>
0

>  <NsssCH>
2

>  <NddC>
0

>  <NtsC>
0

>  <NdssC>
2

>  <NaasC>
0

>  <NaaaC>
0

>  <NssssC>
0

>  <NsNH3>
0

>  <NsNH2>
0

>  <NssNH2>
0

>  <NdNH>
0

>  <NssNH>
1

>  <NaaNH>
0

>  <NtN>
0

>  <NsssNH>
0

>  <NdsN>
0

>  <NaaN>
0

>  <NsssN>
2

>  <NddsN>
0

>  <NaasN>
0

>  <NssssN>
0

>  <NsOH>
0

>  <NdO>
2

>  <NssO>
0

>  <NaaO>
0

>  <NsF>
0

>  <NsSiH3>
0

>  <NssSiH2>
0

>  <NsssSiH>
0

>  <NssssSi>
0

>  <NsPH2>
0

>  <NssPH>
0

>  <NsssP>
0

>  <NdsssP>
0

>  <NsssssP>
0

>  <NsSH>
0

>  <NdS>
0

>  <NssS>
0

>  <NaaS>
0

>  <NdssS>
0

>  <NddssS>
0

>  <NsCl>
0

>  <NsBr>
0

>  <NsI>
0

>  <fragCpx>
19.05

>  <fMF>
0.11

>  <nHBAcc>
3

>  <nHBDon>
1

>  <Kier1>
17.05

>  <Kier2>
8.32

>  <Lipinski>
1

>  <GhoseFilter>
1

>  <FilterItLogS>
-2.41

>  <VMcGowan>
230.34

>  <LabuteASA>
115.87

>  <PEOE_VSA1>
10.22

>  <PEOE_VSA2>
14.49

>  <PEOE_VSA3>
0

>  <PEOE_VSA4>
0

>  <PEOE_VSA5>
0

>  <PEOE_VSA6>
0

>  <PEOE_VSA7>
34.12

>  <PEOE_VSA8>
38.14

>  <PEOE_VSA9>
6.54

>  <PEOE_VSA10>
0

>  <PEOE_VSA11>
0

>  <PEOE_VSA12>
11.81

>  <PEOE_VSA13>
0

>  <SMR_VSA1>
9.59

>  <SMR_VSA2>
0

>  <SMR_VSA3>
15.12

>  <SMR_VSA4>
0

>  <SMR_VSA5>
52.62

>  <SMR_VSA6>
26.18

>  <SMR_VSA7>
0

>  <SMR_VSA8>
0

>  <SMR_VSA9>
0

>  <SlogP_VSA1>
5.32

>  <SlogP_VSA2>
59.88

>  <SlogP_VSA3>
9.59

>  <SlogP_VSA4>
0

>  <SlogP_VSA5>
40.54

>  <SlogP_VSA6>
0

>  <SlogP_VSA7>
0

>  <SlogP_VSA8>
0

>  <SlogP_VSA9>
0

>  <SlogP_VSA10>
0

>  <SlogP_VSA11>
0

>  <EState_VSA1>
0

>  <EState_VSA2>
18.36

>  <EState_VSA3>
25.05

>  <EState_VSA4>
19.51

>  <EState_VSA5>
0

>  <EState_VSA6>
4.9

>  <EState_VSA7>
0

>  <EState_VSA8>
37.91

>  <EState_VSA9>
0

>  <EState_VSA10>
9.59

>  <VSA_EState1>
0

>  <VSA_EState2>
27.12

>  <VSA_EState3>
2.9

>  <VSA_EState4>
0

>  <VSA_EState5>
0.05

>  <VSA_EState6>
0.94

>  <VSA_EState7>
1.46

>  <VSA_EState8>
11.04

>  <VSA_EState9>
0

>  <apol>
46.29

>  <bpol>
32.81

>  <nRing>
1

>  <nHRing>
1

>  <naRing>
0

>  <naHRing>
0

>  <nARing 2>
1

>  <nAHRing 2>
1

>  <nFRing>
0

>  <nFHRing>
0

>  <nFaRing>
0

>  <nFaHRing>
0

>  <nFARing 2>
0

>  <nFAHRing 2>
0

>  <nRot>
7

>  <SLogP>
0.84

>  <SMR>
75.8

>  <TopoPSA(NO)>
52.65

>  <TopoPSA>
52.65

>  <JGI1>
0.24

>  <JGI2>
0.1

>  <JGI3>
0.07

>  <JGI4>
0.03

>  <JGI5>
0.02

>  <Diameter>
10

>  <Radius>
5

>  <TMWC10>
107.57

>  <TSRW10>
64.74

>  <MW>
269.21

>  <AMW>
5.85

>  <WPath>
830

>  <WPol>
23

>  <Zagreb1>
88

>  <Zagreb2>
97

>  <mZagreb2>
4.33

>  <yes>


>  <nAR-cont>
0.816016

>  <nHA-cont>
0.998649058

>  <MWHBN>
0.243789164

>  <MWHBN-cont>
0.969599266

>  <TPSA-cont>
0.632470306

>  <pka_cont>
0.97

>  <yes.1>


>  <BBB_SCORE>
5.01900457

>  <MMFF94 Energy>
14.61

$$$$
Compound 926
Actelion Java MolfileCreator 2.0

  0  0  0  0  0  0              0 V3000
M  V30 BEGIN CTAB
M  V30 COUNTS 67 71 0 0 0
M  V30 BEGIN ATOM
M  V30 1 Cl 4.3749 -7.4622 -0.7281 0
M  V30 2 C 3.2922 -7.1682 -2.0444 0
M  V30 3 C 2.1714 -6.3159 -1.9467 0
M  V30 4 C 3.5805 -7.8512 -3.234 0
M  V30 5 C 1.3475 -6.2006 -3.0902 0
M  V30 6 C 1.8062 -5.5461 -0.6655 0 CFG=2
M  V30 7 C 2.755 -7.7035 -4.3419 0
M  V30 8 C 1.6369 -6.8832 -4.2749 0
M  V30 9 O 0.7874 -4.56 -0.9762 0
M  V30 10 O 2.9758 -4.8589 -0.1969 0
M  V30 11 C 1.2365 -6.5219 0.3853 0
M  V30 12 Cl 3.1125 -8.5459 -5.7974 0
M  V30 13 C 1.4747 -3.3013 -0.9804 0 CFG=2
M  V30 14 C 2.5877 -3.5032 0.0149 0
M  V30 15 N 0.6395 -5.8507 1.5223 0
M  V30 16 C 0.5409 -2.1537 -0.6191 0
M  V30 17 N 1.3027 -5.7101 2.6847 0
M  V30 18 C -0.6222 -5.348 1.6206 0
M  V30 19 O 1.2761 -0.9335 -0.6695 0
M  V30 20 C 0.3934 -5.0812 3.4336 0
M  V30 21 N -0.7991 -4.8338 2.8152 0
M  V30 22 C 0.5967 0.2126 -0.3675 0
M  V30 23 C -0.7354 0.3029 0.0204 0
M  V30 24 C 1.3467 1.3814 -0.4622 0
M  V30 25 C -1.3057 1.5541 0.3048 0
M  V30 26 C 0.7688 2.6254 -0.1795 0
M  V30 27 C -0.5742 2.7462 0.2034 0
M  V30 28 N -1.1237 3.9913 0.4873 0
M  V30 29 C -2.3509 4.0992 1.2936 0
M  V30 30 C -0.9527 5.0696 -0.5054 0
M  V30 31 C -2.5135 5.5206 1.8813 0
M  V30 32 C -1.159 6.4626 0.1371 0
M  V30 33 N -2.4488 6.5791 0.8499 0
M  V30 34 C -2.7347 7.9169 1.4017 0
M  V30 35 C -1.6384 8.5275 2.2827 0
M  V30 36 C -3.0984 8.8892 0.2719 0
M  V30 37 H 4.4507 -8.5008 -3.2929 0
M  V30 38 H 0.4606 -5.5678 -3.0761 0
M  V30 39 H 0.9855 -6.7668 -5.1379 0
M  V30 40 H 0.4377 -7.1356 -0.0504 0
M  V30 41 H 1.9992 -7.1984 0.7829 0
M  V30 42 H 1.8954 -3.1499 -1.9824 0
M  V30 43 H 2.2505 -3.4007 1.0513 0
M  V30 44 H 3.4382 -2.8354 -0.1467 0
M  V30 45 H 0.1266 -2.3198 0.3834 0
M  V30 46 H -0.289 -2.1324 -1.3365 0
M  V30 47 H -1.3423 -5.3731 0.8147 0
M  V30 48 H 0.6037 -4.7964 4.4567 0
M  V30 49 H -1.3684 -0.5724 0.1167 0
M  V30 50 H 2.3936 1.3323 -0.7494 0
M  V30 51 H -2.3537 1.5733 0.5903 0
M  V30 52 H 1.4035 3.5057 -0.2312 0
M  V30 53 H -3.2232 3.8571 0.6734 0
M  V30 54 H -2.3231 3.3961 2.1351 0
M  V30 55 H 0.0432 5.0615 -0.9602 0
M  V30 56 H -1.6796 4.9268 -1.3154 0
M  V30 57 H -1.7359 5.6749 2.6399 0
M  V30 58 H -3.4825 5.5606 2.3933 0
M  V30 59 H -1.0986 7.2056 -0.665 0
M  V30 60 H -0.3224 6.6486 0.8225 0
M  V30 61 H -3.6398 7.8335 2.0185 0
M  V30 62 H -1.377 7.8707 3.1176 0
M  V30 63 H -1.9838 9.4743 2.7133 0
M  V30 64 H -0.7278 8.7429 1.7144 0
M  V30 65 H -3.4755 9.831 0.6864 0
M  V30 66 H -2.238 9.13 -0.3603 0
M  V30 67 H -3.887 8.4736 -0.3651 0
M  V30 END ATOM
M  V30 BEGIN BOND
M  V30 1 1 1 2
M  V30 2 2 2 3
M  V30 3 1 2 4
M  V30 4 1 3 5
M  V30 5 1 3 6
M  V30 6 2 4 7
M  V30 7 2 5 8
M  V30 8 1 6 9
M  V30 9 1 6 10
M  V30 10 1 6 11
M  V30 11 1 7 12
M  V30 12 1 9 13
M  V30 13 1 10 14
M  V30 14 1 11 15
M  V30 15 1 13 16
M  V30 16 1 15 17
M  V30 17 1 15 18
M  V30 18 1 16 19
M  V30 19 2 17 20
M  V30 20 2 18 21
M  V30 21 1 19 22
M  V30 22 2 22 23
M  V30 23 1 22 24
M  V30 24 1 23 25
M  V30 25 2 24 26
M  V30 26 2 25 27
M  V30 27 1 27 28
M  V30 28 1 28 29
M  V30 29 1 28 30
M  V30 30 1 29 31
M  V30 31 1 30 32
M  V30 32 1 31 33
M  V30 33 1 33 34
M  V30 34 1 34 35
M  V30 35 1 34 36
M  V30 36 1 7 8
M  V30 37 1 13 14
M  V30 38 1 20 21
M  V30 39 1 26 27
M  V30 40 1 32 33
M  V30 41 1 4 37
M  V30 42 1 5 38
M  V30 43 1 8 39
M  V30 44 1 11 40
M  V30 45 1 11 41
M  V30 46 1 13 42
M  V30 47 1 14 43
M  V30 48 1 14 44
M  V30 49 1 16 45
M  V30 50 1 16 46
M  V30 51 1 18 47
M  V30 52 1 20 48
M  V30 53 1 23 49
M  V30 54 1 24 50
M  V30 55 1 25 51
M  V30 56 1 26 52
M  V30 57 1 29 53
M  V30 58 1 29 54
M  V30 59 1 30 55
M  V30 60 1 30 56
M  V30 61 1 31 57
M  V30 62 1 31 58
M  V30 63 1 32 59
M  V30 64 1 32 60
M  V30 65 1 34 61
M  V30 66 1 35 62
M  V30 67 1 35 63
M  V30 68 1 35 64
M  V30 69 1 36 65
M  V30 70 1 36 66
M  V30 71 1 36 67
M  V30 END BOND
M  V30 BEGIN COLLECTION
M  V30 MDLV30/STEABS ATOMS=(2 6 13)
M  V30 END COLLECTION
M  V30 END CTAB
M  END
>  <Column 1>
1109

>  <level_0>
1249

>  <index>
1249

>  <Unnamed: 0>
1249

>  <NO.>
1261

>  <Name>
terconazole

>  <IUPAC_name>
1-[4-[[(2r-4s)-2-(2-4-dichlorophenyl)-2-(1-2-4-triazol-1-ylmethyl)-1-3-dioxolan-4-yl]methoxy]phenyl]-4-propan-2-ylpiperazine

>  <SMILES>
CC(C)N1CCN(c2ccc(OC[C@H]3CO[C@](Cn4cncn4)(c4ccc(Cl)cc4Cl)O3)cc2)CC1

>  <CID>
441383

>  <logBB>


>  <BBB+/BBB->
BBB-

>  <Inchi>
InChI=1S/C26H31Cl2N5O3/c1-19(2)31-9-11-32(12-10-31)21-4-6-22(7-5-21)34-14-23-15-35-26(36-23-16-33-18-29-17-30-33)24-8-3-20(27)13-25(24)28/h3-8-13-17-19-23H-9-12-14-16H2-1-2H3/t23--26-/m0/s1

>  <threshold>
-1

>  <reference>
R1|R15|R27|R30|

>  <group>
B

>  <Class>
1

>  <ABC>
28.54

>  <ABCGG>
20.78

>  <nAcid>
0

>  <nBase>
1

>  <nAromAtom>
17

>  <nAromBond>
17

>  <nAtom>
67

>  <nHeavyAtom>
36

>  <nSpiro>
0

>  <nBridgehead>
0

>  <nHetero>
10

>  <nN>
5

>  <nO>
3

>  <nF>
0

>  <BalabanJ>
1.09

>  <BertzCT>
1136.99

>  <nBonds>
71

>  <nBondsO>
40

>  <nBondsS>
54

>  <nBondsD>
0

>  <nBondsT>
0

>  <nBondsA>
17

>  <nBondsM>
17

>  <nBondsKS>
63

>  <nBondsKD>
8

>  <RNCG>
0.17

>  <RPCG>
0.07

>  <FCSP3>
0.46

>  <SZ>
46.67

>  <Sm>
44.33

>  <Sv>
42.51

>  <Sse>
67.6

>  <Sp>
45.72

>  <Si>
75.82

>  <MZ>
0.7

>  <Mm>
0.66

>  <Mv>
0.63

>  <Mse>
1.01

>  <Mp>
0.68

>  <Mi>
1.13

>  <NsCH3>
2

>  <NdCH2>
0

>  <NssCH2>
7

>  <NtCH>
0

>  <NdsCH>
0

>  <NaaCH>
9

>  <NsssCH>
2

>  <NddC>
0

>  <NtsC>
0

>  <NdssC>
0

>  <NaasC>
5

>  <NaaaC>
0

>  <NssssC>
1

>  <NsNH3>
0

>  <NsNH2>
0

>  <NssNH2>
0

>  <NdNH>
0

>  <NssNH>
0

>  <NaaNH>
0

>  <NtN>
0

>  <NsssNH>
0

>  <NdsN>
0

>  <NaaN>
2

>  <NsssN>
2

>  <NddsN>
0

>  <NaasN>
1

>  <NssssN>
0

>  <NsOH>
0

>  <NdO>
0

>  <NssO>
3

>  <NaaO>
0

>  <NsF>
0

>  <NsSiH3>
0

>  <NssSiH2>
0

>  <NsssSiH>
0

>  <NssssSi>
0

>  <NsPH2>
0

>  <NssPH>
0

>  <NsssP>
0

>  <NdsssP>
0

>  <NsssssP>
0

>  <NsSH>
0

>  <NdS>
0

>  <NssS>
0

>  <NaaS>
0

>  <NdssS>
0

>  <NddssS>
0

>  <NsCl>
2

>  <NsBr>
0

>  <NsI>
0

>  <fragCpx>
340.1

>  <fMF>
0.46

>  <nHBAcc>
8

>  <nHBDon>
0

>  <Kier1>
27.56

>  <Kier2>
12.45

>  <Lipinski>
0

>  <GhoseFilter>
0

>  <FilterItLogS>
-5.95

>  <VMcGowan>
380.49

>  <LabuteASA>
221.21

>  <PEOE_VSA1>
19.11

>  <PEOE_VSA2>
4.9

>  <PEOE_VSA3>
9.67

>  <PEOE_VSA4>
5.1

>  <PEOE_VSA5>
0

>  <PEOE_VSA6>
29.27

>  <PEOE_VSA7>
50.25

>  <PEOE_VSA8>
48.49

>  <PEOE_VSA9>
11.63

>  <PEOE_VSA10>
37.66

>  <PEOE_VSA11>
0

>  <PEOE_VSA12>
5.79

>  <PEOE_VSA13>
0

>  <SMR_VSA1>
14.21

>  <SMR_VSA2>
0

>  <SMR_VSA3>
19.66

>  <SMR_VSA4>
0

>  <SMR_VSA5>
38.33

>  <SMR_VSA6>
44.29

>  <SMR_VSA7>
70.73

>  <SMR_VSA8>
0

>  <SMR_VSA9>
5.75

>  <SlogP_VSA1>
9.64

>  <SlogP_VSA2>
71.2

>  <SlogP_VSA3>
21.81

>  <SlogP_VSA4>
0

>  <SlogP_VSA5>
19.41

>  <SlogP_VSA6>
55.12

>  <SlogP_VSA7>
10.05

>  <SlogP_VSA8>
0

>  <SlogP_VSA9>
0

>  <SlogP_VSA10>
5.69

>  <SlogP_VSA11>
5.75

>  <EState_VSA1>
5.79

>  <EState_VSA2>
6.1

>  <EState_VSA3>
41.41

>  <EState_VSA4>
31.93

>  <EState_VSA5>
12.01

>  <EState_VSA6>
23.14

>  <EState_VSA7>
18.2

>  <EState_VSA8>
45.86

>  <EState_VSA9>
37.41

>  <EState_VSA10>
0

>  <VSA_EState1>
20.37

>  <VSA_EState2>
8.96

>  <VSA_EState3>
5.22

>  <VSA_EState4>
1.91

>  <VSA_EState5>
-0.33

>  <VSA_EState6>
14.14

>  <VSA_EState7>
2.8

>  <VSA_EState8>
9.74

>  <VSA_EState9>
0

>  <apol>
76.36

>  <bpol>
43.6

>  <nRing>
5

>  <nHRing>
3

>  <naRing>
3

>  <naHRing>
1

>  <nARing 2>
2

>  <nAHRing 2>
2

>  <nFRing>
0

>  <nFHRing>
0

>  <nFaRing>
0

>  <nFaHRing>
0

>  <nFARing 2>
0

>  <nFAHRing 2>
0

>  <nRot>
8

>  <SLogP>
4.46

>  <SMR>
139.85

>  <TopoPSA(NO)>
64.88

>  <TopoPSA>
64.88

>  <JGI1>
0.21

>  <JGI2>
0.08

>  <JGI3>
0.05

>  <JGI4>
0.03

>  <JGI5>
0.03

>  <Diameter>
19

>  <Radius>
10

>  <TMWC10>
155.18

>  <TSRW10>
88.39

>  <MW>
531.18

>  <AMW>
7.93

>  <WPath>
4692

>  <WPol>
56

>  <Zagreb1>
194

>  <Zagreb2>
229

>  <mZagreb2>
7.79

>  <yes>


>  <nAR-cont>
1

>  <nHA-cont>
0.477843619

>  <MWHBN>
0.347111602

>  <MWHBN-cont>
0.681010935

>  <TPSA-cont>
0.547097312

>  <pka_cont>
0.97

>  <yes.1>


>  <BBB_SCORE>
4.078554646

>  <MMFF94 Energy>
147.32

$$$$
Compound 927
Actelion Java MolfileCreator 2.0

  0  0  0  0  0  0              0 V3000
M  V30 BEGIN CTAB
M  V30 COUNTS 37 38 0 0 0
M  V30 BEGIN ATOM
M  V30 1 F -4.813 -4.09 0.8009 0
M  V30 2 C -4.4132 -3.4869 -0.3537 0
M  V30 3 F -5.5579 -3.0993 -0.9839 0
M  V30 4 F -3.8801 -4.4748 -1.1249 0
M  V30 5 C -3.4466 -2.3512 -0.1291 0
M  V30 6 C -2.5722 -2.3643 0.9665 0
M  V30 7 C -3.3809 -1.2808 -1.0328 0
M  V30 8 C -1.6635 -1.3214 1.1625 0
M  V30 9 C -2.472 -0.2379 -0.8354 0
M  V30 10 C -1.6064 -0.2426 0.2682 0
M  V30 11 C -0.6056 0.8844 0.4505 0 CFG=1
M  V30 12 O -0.4263 1.1403 1.8572 0
M  V30 13 C 0.7517 0.5326 -0.2163 0
M  V30 14 C 0.5071 2.2101 2.0503 0
M  V30 15 N 1.7461 1.6114 -0.0187 0
M  V30 16 C 1.8736 1.881 1.4278 0
M  V30 17 C 3.0506 1.3847 -0.6685 0
M  V30 18 C 3.7344 0.0498 -0.3508 0
M  V30 19 C 2.923 1.5573 -2.1876 0
M  V30 20 H -2.5969 -3.1875 1.6792 0
M  V30 21 H -4.0431 -1.2532 -1.8973 0
M  V30 22 H -0.9993 -1.3489 2.025 0
M  V30 23 H -2.4443 0.5817 -1.5512 0
M  V30 24 H -1.0215 1.7965 3.0E-4 0
M  V30 25 H 0.5826 0.3618 -1.2851 0
M  V30 26 H 1.1257 -0.4042 0.216 0
M  V30 27 H 0.6199 2.3571 3.1293 0
M  V30 28 H 0.0912 3.135 1.6323 0
M  V30 29 H 2.5446 2.731 1.5961 0
M  V30 30 H 2.2922 1.0085 1.9434 0
M  V30 31 H 3.727 2.1846 -0.3377 0
M  V30 32 H 3.866 -0.0919 0.7259 0
M  V30 33 H 4.7317 0.0195 -0.8042 0
M  V30 34 H 3.1728 -0.8031 -0.7455 0
M  V30 35 H 3.9139 1.5596 -2.6553 0
M  V30 36 H 2.3439 0.7507 -2.6487 0
M  V30 37 H 2.4422 2.5102 -2.4357 0
M  V30 END ATOM
M  V30 BEGIN BOND
M  V30 1 1 1 2
M  V30 2 1 2 3
M  V30 3 1 2 4
M  V30 4 1 2 5
M  V30 5 2 5 6
M  V30 6 1 5 7
M  V30 7 1 6 8
M  V30 8 2 7 9
M  V30 9 2 8 10
M  V30 10 1 10 11
M  V30 11 1 11 12
M  V30 12 1 11 13
M  V30 13 1 12 14
M  V30 14 1 13 15
M  V30 15 1 14 16
M  V30 16 1 15 17
M  V30 17 1 17 18
M  V30 18 1 17 19
M  V30 19 1 9 10
M  V30 20 1 15 16
M  V30 21 1 6 20
M  V30 22 1 7 21
M  V30 23 1 8 22
M  V30 24 1 9 23
M  V30 25 1 11 24
M  V30 26 1 13 25
M  V30 27 1 13 26
M  V30 28 1 14 27
M  V30 29 1 14 28
M  V30 30 1 16 29
M  V30 31 1 16 30
M  V30 32 1 17 31
M  V30 33 1 18 32
M  V30 34 1 18 33
M  V30 35 1 18 34
M  V30 36 1 19 35
M  V30 37 1 19 36
M  V30 38 1 19 37
M  V30 END BOND
M  V30 BEGIN COLLECTION
M  V30 MDLV30/STERAC1 ATOMS=(1 11)
M  V30 END COLLECTION
M  V30 END CTAB
M  END
>  <Column 1>
1110

>  <level_0>
1250

>  <index>
1250

>  <Unnamed: 0>
1250

>  <NO.>
1262

>  <Name>
oxaflozane

>  <IUPAC_name>
4-propan-2-yl-2-[4-(trifluoromethyl)phenyl]morpholine

>  <SMILES>
CC(C)N1CCOC(c2ccc(C(F)(F)F)cc2)C1

>  <CID>
71915

>  <logBB>


>  <BBB+/BBB->
BBB+

>  <Inchi>
InChI=1S/C14H18F3NO/c1-10(2)18-7-8-19-13(9-18)11-3-5-12(6-4-11)14(15-16)17/h3-6-10-13H-7-9H2-1-2H3

>  <threshold>
-1

>  <reference>
R1|R27|R30|

>  <group>
B

>  <Class>
-1

>  <ABC>
14.7

>  <ABCGG>
12.18

>  <nAcid>
0

>  <nBase>
1

>  <nAromAtom>
6

>  <nAromBond>
6

>  <nAtom>
37

>  <nHeavyAtom>
19

>  <nSpiro>
0

>  <nBridgehead>
0

>  <nHetero>
5

>  <nN>
1

>  <nO>
1

>  <nF>
3

>  <BalabanJ>
1.84

>  <BertzCT>
413.69

>  <nBonds>
38

>  <nBondsO>
20

>  <nBondsS>
32

>  <nBondsD>
0

>  <nBondsT>
0

>  <nBondsA>
6

>  <nBondsM>
6

>  <nBondsKS>
35

>  <nBondsKD>
3

>  <RNCG>
0.25

>  <RPCG>
0.28

>  <FCSP3>
0.57

>  <SZ>
24

>  <Sm>
22.75

>  <Sv>
22.29

>  <Sse>
37.85

>  <Sp>
23.33

>  <Si>
42.88

>  <MZ>
0.65

>  <Mm>
0.61

>  <Mv>
0.6

>  <Mse>
1.02

>  <Mp>
0.63

>  <Mi>
1.16

>  <NsCH3>
2

>  <NdCH2>
0

>  <NssCH2>
3

>  <NtCH>
0

>  <NdsCH>
0

>  <NaaCH>
4

>  <NsssCH>
2

>  <NddC>
0

>  <NtsC>
0

>  <NdssC>
0

>  <NaasC>
2

>  <NaaaC>
0

>  <NssssC>
1

>  <NsNH3>
0

>  <NsNH2>
0

>  <NssNH2>
0

>  <NdNH>
0

>  <NssNH>
0

>  <NaaNH>
0

>  <NtN>
0

>  <NsssNH>
0

>  <NdsN>
0

>  <NaaN>
0

>  <NsssN>
1

>  <NddsN>
0

>  <NaasN>
0

>  <NssssN>
0

>  <NsOH>
0

>  <NdO>
0

>  <NssO>
1

>  <NaaO>
0

>  <NsF>
3

>  <NsSiH3>
0

>  <NssSiH2>
0

>  <NsssSiH>
0

>  <NssssSi>
0

>  <NsPH2>
0

>  <NssPH>
0

>  <NsssP>
0

>  <NdsssP>
0

>  <NsssssP>
0

>  <NsSH>
0

>  <NdS>
0

>  <NssS>
0

>  <NaaS>
0

>  <NdssS>
0

>  <NddssS>
0

>  <NsCl>
0

>  <NsBr>
0

>  <NsI>
0

>  <fragCpx>
58.05

>  <fMF>
0.32

>  <nHBAcc>
2

>  <nHBDon>
0

>  <Kier1>
15.39

>  <Kier2>
6.19

>  <Lipinski>
1

>  <GhoseFilter>
1

>  <FilterItLogS>
-3.46

>  <VMcGowan>
194.63

>  <LabuteASA>
110.72

>  <PEOE_VSA1>
4.74

>  <PEOE_VSA2>
4.9

>  <PEOE_VSA3>
0

>  <PEOE_VSA4>
13.17

>  <PEOE_VSA5>
0

>  <PEOE_VSA6>
12.13

>  <PEOE_VSA7>
31.54

>  <PEOE_VSA8>
19.13

>  <PEOE_VSA9>
18.27

>  <PEOE_VSA10>
0

>  <PEOE_VSA11>
0

>  <PEOE_VSA12>
0

>  <PEOE_VSA13>
0

>  <SMR_VSA1>
17.91

>  <SMR_VSA2>
0

>  <SMR_VSA3>
4.9

>  <SMR_VSA4>
0

>  <SMR_VSA5>
32.17

>  <SMR_VSA6>
19.7

>  <SMR_VSA7>
35.39

>  <SMR_VSA8>
0

>  <SMR_VSA9>
0

>  <SlogP_VSA1>
0

>  <SlogP_VSA2>
30.64

>  <SlogP_VSA3>
10.91

>  <SlogP_VSA4>
0

>  <SlogP_VSA5>
31.08

>  <SlogP_VSA6>
24.27

>  <SlogP_VSA7>
0

>  <SlogP_VSA8>
0

>  <SlogP_VSA9>
0

>  <SlogP_VSA10>
13.17

>  <SlogP_VSA11>
0

>  <EState_VSA1>
11.74

>  <EState_VSA2>
6.1

>  <EState_VSA3>
12.65

>  <EState_VSA4>
30.79

>  <EState_VSA5>
12.13

>  <EState_VSA6>
0

>  <EState_VSA7>
0

>  <EState_VSA8>
18.75

>  <EState_VSA9>
4.74

>  <EState_VSA10>
13.17

>  <VSA_EState1>
43.12

>  <VSA_EState2>
2.27

>  <VSA_EState3>
0

>  <VSA_EState4>
0.19

>  <VSA_EState5>
0

>  <VSA_EState6>
5.68

>  <VSA_EState7>
-4.42

>  <VSA_EState8>
6.42

>  <VSA_EState9>
0

>  <apol>
38.96

>  <bpol>
24.84

>  <nRing>
2

>  <nHRing>
1

>  <naRing>
1

>  <naHRing>
0

>  <nARing 2>
1

>  <nAHRing 2>
1

>  <nFRing>
0

>  <nFHRing>
0

>  <nFaRing>
0

>  <nFaHRing>
0

>  <nFARing 2>
0

>  <nFAHRing 2>
0

>  <nRot>
2

>  <SLogP>
3.49

>  <SMR>
66.85

>  <TopoPSA(NO)>
12.47

>  <TopoPSA>
12.47

>  <JGI1>
0.28

>  <JGI2>
0.1

>  <JGI3>
0.04

>  <JGI4>
0.03

>  <JGI5>
0.05

>  <Diameter>
10

>  <Radius>
5

>  <TMWC10>
111.11

>  <TSRW10>
52.38

>  <MW>
273.13

>  <AMW>
7.38

>  <WPath>
744

>  <WPol>
28

>  <Zagreb1>
98

>  <Zagreb2>
112

>  <mZagreb2>
4.06

>  <yes>


>  <nAR-cont>
0.816016

>  <nHA-cont>
0.998649058

>  <MWHBN>
0.121016696

>  <MWHBN-cont>
0.833729609

>  <TPSA-cont>
0.912951657

>  <pka_cont>
0.97

>  <yes.1>


>  <BBB_SCORE>
5.376162784

>  <MMFF94 Energy>
121.29

$$$$
Compound 928
Actelion Java MolfileCreator 2.0

  0  0  0  0  0  0              0 V3000
M  V30 BEGIN CTAB
M  V30 COUNTS 52 53 0 0 0
M  V30 BEGIN ATOM
M  V30 1 F -7.9954 -0.3946 -4.2686 0
M  V30 2 C -7.1585 -0.0767 -3.2729 0
M  V30 3 C -7.6178 -0.0851 -1.9622 0
M  V30 4 C -5.8414 0.2573 -3.5663 0
M  V30 5 C -6.743 0.247 -0.9254 0
M  V30 6 C -4.9622 0.5907 -2.5312 0
M  V30 7 C -5.4086 0.5872 -1.2015 0
M  V30 8 C -4.5122 0.936 -0.0551 0
M  V30 9 O -4.971 0.929 1.0856 0
M  V30 10 C -3.0653 1.2932 -0.3473 0
M  V30 11 C -2.2732 1.574 0.9316 0
M  V30 12 C -0.8409 2.0464 0.6505 0
M  V30 13 N -0.058 1.1377 -0.2069 0
M  V30 14 C 0.2438 -0.131 0.4785 0
M  V30 15 C 1.1904 1.8007 -0.6228 0
M  V30 16 C 1.0177 -1.0822 -0.4358 0
M  V30 17 C 1.9974 0.9189 -1.5755 0
M  V30 18 C 2.3037 -0.4431 -0.957 0
M  V30 19 O 3.2395 -0.2378 0.1223 0
M  V30 20 C 3.9871 -1.3117 0.4742 0
M  V30 21 O 3.9287 -2.417 -0.0399 0
M  V30 22 N 4.8049 -0.9582 1.5026 0
M  V30 23 C 5.7022 -1.8896 2.1594 0
M  V30 24 C 6.9252 -1.1533 2.6952 0
M  V30 25 C 4.9755 -2.6263 3.2814 0
M  V30 26 H -8.6499 -0.3488 -1.7532 0
M  V30 27 H -5.5069 0.2559 -4.5993 0
M  V30 28 H -7.1069 0.2391 0.1009 0
M  V30 29 H -3.939 0.8473 -2.7901 0
M  V30 30 H -2.6086 0.4543 -0.8831 0
M  V30 31 H -3.0518 2.1847 -0.9842 0
M  V30 32 H -2.7815 2.3561 1.5105 0
M  V30 33 H -2.269 0.6846 1.5726 0
M  V30 34 H -0.9203 3.0233 0.155 0
M  V30 35 H -0.3248 2.222 1.6034 0
M  V30 36 H 0.8107 0.0472 1.4015 0
M  V30 37 H -0.6829 -0.6411 0.7621 0
M  V30 38 H 1.8003 2.0696 0.2496 0
M  V30 39 H 0.9551 2.7332 -1.1508 0
M  V30 40 H 0.3827 -1.366 -1.2847 0
M  V30 41 H 1.2408 -1.9981 0.1226 0
M  V30 42 H 1.4359 0.7807 -2.508 0
M  V30 43 H 2.9318 1.4346 -1.8266 0
M  V30 44 H 2.7632 -1.0772 -1.7253 0
M  V30 45 H 4.6995 -0.0139 1.8459 0
M  V30 46 H 6.0331 -2.6264 1.4177 0
M  V30 47 H 6.6423 -0.3979 3.4369 0
M  V30 48 H 7.4525 -0.638 1.8851 0
M  V30 49 H 7.626 -1.8497 3.167 0
M  V30 50 H 5.6409 -3.3427 3.7738 0
M  V30 51 H 4.6038 -1.9273 4.039 0
M  V30 52 H 4.1131 -3.1785 2.8926 0
M  V30 END ATOM
M  V30 BEGIN BOND
M  V30 1 1 1 2
M  V30 2 2 2 3
M  V30 3 1 2 4
M  V30 4 1 3 5
M  V30 5 2 4 6
M  V30 6 2 5 7
M  V30 7 1 7 8
M  V30 8 2 8 9
M  V30 9 1 8 10
M  V30 10 1 10 11
M  V30 11 1 11 12
M  V30 12 1 12 13
M  V30 13 1 13 14
M  V30 14 1 13 15
M  V30 15 1 14 16
M  V30 16 1 15 17
M  V30 17 1 16 18
M  V30 18 1 18 19
M  V30 19 1 19 20
M  V30 20 2 20 21
M  V30 21 1 20 22
M  V30 22 1 22 23
M  V30 23 1 23 24
M  V30 24 1 23 25
M  V30 25 1 6 7
M  V30 26 1 17 18
M  V30 27 1 3 26
M  V30 28 1 4 27
M  V30 29 1 5 28
M  V30 30 1 6 29
M  V30 31 1 10 30
M  V30 32 1 10 31
M  V30 33 1 11 32
M  V30 34 1 11 33
M  V30 35 1 12 34
M  V30 36 1 12 35
M  V30 37 1 14 36
M  V30 38 1 14 37
M  V30 39 1 15 38
M  V30 40 1 15 39
M  V30 41 1 16 40
M  V30 42 1 16 41
M  V30 43 1 17 42
M  V30 44 1 17 43
M  V30 45 1 18 44
M  V30 46 1 22 45
M  V30 47 1 23 46
M  V30 48 1 24 47
M  V30 49 1 24 48
M  V30 50 1 24 49
M  V30 51 1 25 50
M  V30 52 1 25 51
M  V30 53 1 25 52
M  V30 END BOND
M  V30 END CTAB
M  END
>  <Column 1>
1112

>  <level_0>
1252

>  <index>
1252

>  <Unnamed: 0>
1252

>  <NO.>
1264

>  <Name>
carperone

>  <IUPAC_name>
[1-[4-(4-fluorophenyl)-4-oxobutyl]piperidin-4-yl] n-propan-2-ylcarbamate

>  <SMILES>
CC(C)NC(=O)OC1CCN(CCCC(=O)c2ccc(F)cc2)CC1

>  <CID>
30429

>  <logBB>


>  <BBB+/BBB->
BBB+

>  <Inchi>
InChI=1S/C19H27FN2O3/c1-14(2)21-19(24)25-17-9-12-22(13-10-17)11-3-4-18(23)15-5-7-16(20)8-6-15/h5-8-14-17H-3-4-9-13H2-1-2H3-(H-21-24)

>  <threshold>
-1

>  <reference>
R1|R13|R19|R6|R24|R27|R27|R27|R30|R30|

>  <group>
B

>  <Class>
-1

>  <ABC>
18.89

>  <ABCGG>
14.36

>  <nAcid>
0

>  <nBase>
1

>  <nAromAtom>
6

>  <nAromBond>
6

>  <nAtom>
52

>  <nHeavyAtom>
25

>  <nSpiro>
0

>  <nBridgehead>
0

>  <nHetero>
6

>  <nN>
2

>  <nO>
3

>  <nF>
1

>  <BalabanJ>
1.55

>  <BertzCT>
566.54

>  <nBonds>
53

>  <nBondsO>
26

>  <nBondsS>
45

>  <nBondsD>
2

>  <nBondsT>
0

>  <nBondsA>
6

>  <nBondsM>
8

>  <nBondsKS>
48

>  <nBondsKD>
5

>  <RNCG>
0.22

>  <RPCG>
0.2

>  <FCSP3>
0.58

>  <SZ>
31.33

>  <Sm>
29.18

>  <Sv>
30.62

>  <Sse>
52.26

>  <Sp>
32.87

>  <Si>
59.36

>  <MZ>
0.6

>  <Mm>
0.56

>  <Mv>
0.59

>  <Mse>
1.01

>  <Mp>
0.63

>  <Mi>
1.14

>  <NsCH3>
2

>  <NdCH2>
0

>  <NssCH2>
7

>  <NtCH>
0

>  <NdsCH>
0

>  <NaaCH>
4

>  <NsssCH>
2

>  <NddC>
0

>  <NtsC>
0

>  <NdssC>
2

>  <NaasC>
2

>  <NaaaC>
0

>  <NssssC>
0

>  <NsNH3>
0

>  <NsNH2>
0

>  <NssNH2>
0

>  <NdNH>
0

>  <NssNH>
1

>  <NaaNH>
0

>  <NtN>
0

>  <NsssNH>
0

>  <NdsN>
0

>  <NaaN>
0

>  <NsssN>
1

>  <NddsN>
0

>  <NaasN>
0

>  <NssssN>
0

>  <NsOH>
0

>  <NdO>
2

>  <NssO>
1

>  <NaaO>
0

>  <NsF>
1

>  <NsSiH3>
0

>  <NssSiH2>
0

>  <NsssSiH>
0

>  <NssssSi>
0

>  <NsPH2>
0

>  <NssPH>
0

>  <NsssP>
0

>  <NdsssP>
0

>  <NsssssP>
0

>  <NsSH>
0

>  <NdS>
0

>  <NssS>
0

>  <NaaS>
0

>  <NdssS>
0

>  <NddssS>
0

>  <NsCl>
0

>  <NsBr>
0

>  <NsI>
0

>  <fragCpx>
76.06

>  <fMF>
0.31

>  <nHBAcc>
4

>  <nHBDon>
1

>  <Kier1>
21.3

>  <Kier2>
10.98

>  <Lipinski>
1

>  <GhoseFilter>
1

>  <FilterItLogS>
-4.25

>  <VMcGowan>
274.68

>  <LabuteASA>
148.08

>  <PEOE_VSA1>
14.95

>  <PEOE_VSA2>
4.79

>  <PEOE_VSA3>
9.18

>  <PEOE_VSA4>
0

>  <PEOE_VSA5>
0

>  <PEOE_VSA6>
0

>  <PEOE_VSA7>
63.92

>  <PEOE_VSA8>
31.12

>  <PEOE_VSA9>
0

>  <PEOE_VSA10>
11.92

>  <PEOE_VSA11>
5.78

>  <PEOE_VSA12>
0

>  <PEOE_VSA13>
0

>  <SMR_VSA1>
18.72

>  <SMR_VSA2>
0

>  <SMR_VSA3>
10.22

>  <SMR_VSA4>
0

>  <SMR_VSA5>
51.68

>  <SMR_VSA6>
19.63

>  <SMR_VSA7>
35.65

>  <SMR_VSA8>
0

>  <SMR_VSA9>
0

>  <SlogP_VSA1>
5.32

>  <SlogP_VSA2>
48.56

>  <SlogP_VSA3>
4.74

>  <SlogP_VSA4>
5.82

>  <SlogP_VSA5>
49.89

>  <SlogP_VSA6>
24.27

>  <SlogP_VSA7>
0

>  <SlogP_VSA8>
0

>  <SlogP_VSA9>
0

>  <SlogP_VSA10>
9.18

>  <SlogP_VSA11>
0

>  <EState_VSA1>
0

>  <EState_VSA2>
29.84

>  <EState_VSA3>
11.98

>  <EState_VSA4>
38.9

>  <EState_VSA5>
24.27

>  <EState_VSA6>
0

>  <EState_VSA7>
13.85

>  <EState_VSA8>
10.22

>  <EState_VSA9>
4.74

>  <EState_VSA10>
13.98

>  <VSA_EState1>
18.26

>  <VSA_EState2>
25.94

>  <VSA_EState3>
2.73

>  <VSA_EState4>
0.56

>  <VSA_EState5>
-0.28

>  <VSA_EState6>
5.76

>  <VSA_EState7>
2.48

>  <VSA_EState8>
6.38

>  <VSA_EState9>
0

>  <apol>
54.9

>  <bpol>
33.95

>  <nRing>
2

>  <nHRing>
1

>  <naRing>
1

>  <naHRing>
0

>  <nARing 2>
1

>  <nAHRing 2>
1

>  <nFRing>
0

>  <nFHRing>
0

>  <nFaRing>
0

>  <nFaHRing>
0

>  <nFARing 2>
0

>  <nFAHRing 2>
0

>  <nRot>
7

>  <SLogP>
3.39

>  <SMR>
94.18

>  <TopoPSA(NO)>
58.64

>  <TopoPSA>
58.64

>  <JGI1>
0.23

>  <JGI2>
0.07

>  <JGI3>
0.04

>  <JGI4>
0.03

>  <JGI5>
0.03

>  <Diameter>
17

>  <Radius>
9

>  <TMWC10>
123.33

>  <TSRW10>
58.83

>  <MW>
350.2

>  <AMW>
6.73

>  <WPath>
1942

>  <WPol>
32

>  <Zagreb1>
120

>  <Zagreb2>
132

>  <mZagreb2>
5.61

>  <yes>


>  <nAR-cont>
0.816016

>  <nHA-cont>
0.921834225

>  <MWHBN>
0.267184914

>  <MWHBN-cont>
0.926394258

>  <TPSA-cont>
0.590656387

>  <pka_cont>
0.97

>  <yes.1>


>  <BBB_SCORE>
4.793754386

>  <MMFF94 Energy>
-36.807

$$$$
Compound 929
Actelion Java MolfileCreator 2.0

  0  0  0  0  0  0              0 V3000
M  V30 BEGIN CTAB
M  V30 COUNTS 32 32 0 0 0
M  V30 BEGIN ATOM
M  V30 1 O -0.7776 -2.9574 -3.1133 0
M  V30 2 C -1.2073 -2.4756 -1.9082 0
M  V30 3 C -2.5742 -2.35 -1.6685 0
M  V30 4 C -0.2836 -2.1124 -0.9276 0
M  V30 5 O -3.4631 -2.7078 -2.6426 0
M  V30 6 C -3.0271 -1.8678 -0.4438 0
M  V30 7 C -0.7205 -1.6172 0.3123 0
M  V30 8 C -2.1037 -1.5049 0.5412 0
M  V30 9 C 0.2545 -1.1875 1.3939 0 CFG=1
M  V30 10 O 1.5666 -1.7026 1.1339 0
M  V30 11 C 0.3458 0.3541 1.5552 0
M  V30 12 N 1.1304 0.9458 0.4485 0
M  V30 13 C 1.1991 2.4134 0.5268 0
M  V30 14 C 2.1131 2.8829 1.6595 0
M  V30 15 C 1.7269 2.9415 -0.81 0
M  V30 16 H 0.1824 -3.0866 -3.0724 0
M  V30 17 H 0.781 -2.2139 -1.1197 0
M  V30 18 H -4.3646 -2.5977 -2.305 0
M  V30 19 H -4.0883 -1.7688 -0.2382 0
M  V30 20 H -2.473 -1.1332 1.4953 0
M  V30 21 H -0.0698 -1.6315 2.3426 0
M  V30 22 H 2.0801 -0.9248 0.8317 0
M  V30 23 H -0.653 0.8007 1.6151 0
M  V30 24 H 0.8699 0.5503 2.4968 0
M  V30 25 H 0.6679 0.6897 -0.429 0
M  V30 26 H 0.1942 2.8282 0.6747 0
M  V30 27 H 3.1137 2.4446 1.5739 0
M  V30 28 H 1.709 2.6192 2.6418 0
M  V30 29 H 2.2236 3.9729 1.6392 0
M  V30 30 H 1.0694 2.6496 -1.6366 0
M  V30 31 H 2.7317 2.5604 -1.0249 0
M  V30 32 H 1.7771 4.0359 -0.801 0
M  V30 END ATOM
M  V30 BEGIN BOND
M  V30 1 1 1 2
M  V30 2 2 2 3
M  V30 3 1 2 4
M  V30 4 1 3 5
M  V30 5 1 3 6
M  V30 6 2 4 7
M  V30 7 2 6 8
M  V30 8 1 7 9
M  V30 9 1 9 10
M  V30 10 1 9 11
M  V30 11 1 11 12
M  V30 12 1 12 13
M  V30 13 1 13 14
M  V30 14 1 13 15
M  V30 15 1 7 8
M  V30 16 1 1 16
M  V30 17 1 4 17
M  V30 18 1 5 18
M  V30 19 1 6 19
M  V30 20 1 8 20
M  V30 21 1 9 21
M  V30 22 1 10 22
M  V30 23 1 11 23
M  V30 24 1 11 24
M  V30 25 1 12 25
M  V30 26 1 13 26
M  V30 27 1 14 27
M  V30 28 1 14 28
M  V30 29 1 14 29
M  V30 30 1 15 30
M  V30 31 1 15 31
M  V30 32 1 15 32
M  V30 END BOND
M  V30 BEGIN COLLECTION
M  V30 MDLV30/STERAC1 ATOMS=(1 9)
M  V30 END COLLECTION
M  V30 END CTAB
M  END
>  <Column 1>
1113

>  <level_0>
1253

>  <index>
1253

>  <Unnamed: 0>
1253

>  <NO.>
1265

>  <Name>
isoproterenol hydrochloride

>  <IUPAC_name>
4-[1-hydroxy-2-(propan-2-ylamino)ethyl]benzene-1-2-diol

>  <SMILES>
CC(C)NCC(O)c1ccc(O)c(O)c1

>  <CID>
3779

>  <logBB>


>  <BBB+/BBB->
BBB-

>  <Inchi>
InChI=1S/C11H17NO3/c1-7(2)12-6-11(15)8-3-4-9(13)10(14)5-8/h3-5-7-11-15H-6H2-1-2H3

>  <threshold>
-1

>  <reference>
R1|R14|R27|R30|

>  <group>
B

>  <Class>
1

>  <ABC>
11.07

>  <ABCGG>
10.08

>  <nAcid>
0

>  <nBase>
1

>  <nAromAtom>
6

>  <nAromBond>
6

>  <nAtom>
32

>  <nHeavyAtom>
15

>  <nSpiro>
0

>  <nBridgehead>
0

>  <nHetero>
4

>  <nN>
1

>  <nO>
3

>  <nF>
0

>  <BalabanJ>
2.3

>  <BertzCT>
325.61

>  <nBonds>
32

>  <nBondsO>
15

>  <nBondsS>
26

>  <nBondsD>
0

>  <nBondsT>
0

>  <nBondsA>
6

>  <nBondsM>
6

>  <nBondsKS>
29

>  <nBondsKD>
3

>  <RNCG>
0.27

>  <RPCG>
0.15

>  <FCSP3>
0.45

>  <SZ>
19

>  <Sm>
17.59

>  <Sv>
18.51

>  <Sse>
32.2

>  <Sp>
19.89

>  <Si>
36.45

>  <MZ>
0.59

>  <Mm>
0.55

>  <Mv>
0.58

>  <Mse>
1.01

>  <Mp>
0.62

>  <Mi>
1.14

>  <NsCH3>
2

>  <NdCH2>
0

>  <NssCH2>
1

>  <NtCH>
0

>  <NdsCH>
0

>  <NaaCH>
3

>  <NsssCH>
2

>  <NddC>
0

>  <NtsC>
0

>  <NdssC>
0

>  <NaasC>
3

>  <NaaaC>
0

>  <NssssC>
0

>  <NsNH3>
0

>  <NsNH2>
0

>  <NssNH2>
0

>  <NdNH>
0

>  <NssNH>
1

>  <NaaNH>
0

>  <NtN>
0

>  <NsssNH>
0

>  <NdsN>
0

>  <NaaN>
0

>  <NsssN>
0

>  <NddsN>
0

>  <NaasN>
0

>  <NssssN>
0

>  <NsOH>
3

>  <NdO>
0

>  <NssO>
0

>  <NaaO>
0

>  <NsF>
0

>  <NsSiH3>
0

>  <NssSiH2>
0

>  <NsssSiH>
0

>  <NssssSi>
0

>  <NsPH2>
0

>  <NssPH>
0

>  <NsssP>
0

>  <NdsssP>
0

>  <NsssssP>
0

>  <NsSH>
0

>  <NdS>
0

>  <NssS>
0

>  <NaaS>
0

>  <NdssS>
0

>  <NddssS>
0

>  <NsCl>
0

>  <NsBr>
0

>  <NsI>
0

>  <fragCpx>
15.04

>  <fMF>
0.19

>  <nHBAcc>
4

>  <nHBDon>
4

>  <Kier1>
13.07

>  <Kier2>
5.92

>  <Lipinski>
1

>  <GhoseFilter>
1

>  <FilterItLogS>
-1.55

>  <VMcGowan>
169.68

>  <LabuteASA>
89.19

>  <PEOE_VSA1>
20.64

>  <PEOE_VSA2>
0

>  <PEOE_VSA3>
0

>  <PEOE_VSA4>
0

>  <PEOE_VSA5>
0

>  <PEOE_VSA6>
19.91

>  <PEOE_VSA7>
17.7

>  <PEOE_VSA8>
12.59

>  <PEOE_VSA9>
6.1

>  <PEOE_VSA10>
0

>  <PEOE_VSA11>
11.5

>  <PEOE_VSA12>
0

>  <PEOE_VSA13>
0

>  <SMR_VSA1>
15.32

>  <SMR_VSA2>
0

>  <SMR_VSA3>
5.32

>  <SMR_VSA4>
0

>  <SMR_VSA5>
25.99

>  <SMR_VSA6>
6.54

>  <SMR_VSA7>
23.76

>  <SMR_VSA8>
0

>  <SMR_VSA9>
11.5

>  <SlogP_VSA1>
5.32

>  <SlogP_VSA2>
27.91

>  <SlogP_VSA3>
0

>  <SlogP_VSA4>
0

>  <SlogP_VSA5>
25.51

>  <SlogP_VSA6>
18.2

>  <SlogP_VSA7>
0

>  <SlogP_VSA8>
0

>  <SlogP_VSA9>
0

>  <SlogP_VSA10>
0

>  <SlogP_VSA11>
11.5

>  <EState_VSA1>
6.1

>  <EState_VSA2>
11.5

>  <EState_VSA3>
18.15

>  <EState_VSA4>
0

>  <EState_VSA5>
12.13

>  <EState_VSA6>
6.07

>  <EState_VSA7>
13.85

>  <EState_VSA8>
5.32

>  <EState_VSA9>
5.11

>  <EState_VSA10>
10.21

>  <VSA_EState1>
0

>  <VSA_EState2>
0

>  <VSA_EState3>
31.15

>  <VSA_EState4>
0.58

>  <VSA_EState5>
-0.39

>  <VSA_EState6>
4.61

>  <VSA_EState7>
-0.68

>  <VSA_EState8>
4.39

>  <VSA_EState9>
0

>  <apol>
33.21

>  <bpol>
17.62

>  <nRing>
1

>  <nHRing>
0

>  <naRing>
1

>  <naHRing>
0

>  <nARing 2>
0

>  <nAHRing 2>
0

>  <nFRing>
0

>  <nFHRing>
0

>  <nFaRing>
0

>  <nFaHRing>
0

>  <nFARing 2>
0

>  <nFAHRing 2>
0

>  <nRot>
4

>  <SLogP>
1.13

>  <SMR>
57.87

>  <TopoPSA(NO)>
72.72

>  <TopoPSA>
72.72

>  <JGI1>
0.27

>  <JGI2>
0.11

>  <JGI3>
0.04

>  <JGI4>
0.06

>  <JGI5>
0.03

>  <Diameter>
9

>  <Radius>
5

>  <TMWC10>
97.71

>  <TSRW10>
46.29

>  <MW>
211.12

>  <AMW>
6.6

>  <WPath>
400

>  <WPol>
19

>  <Zagreb1>
70

>  <Zagreb2>
77

>  <mZagreb2>
3.39

>  <yes>


>  <nAR-cont>
0.336376

>  <nHA-cont>
0.92539861

>  <MWHBN>
0.55058617

>  <MWHBN-cont>
0

>  <TPSA-cont>
0.492369244

>  <pka_cont>
0.97

>  <yes.1>


>  <BBB_SCORE>
2.731513098

>  <MMFF94 Energy>
43.946

$$$$
Compound 930
Actelion Java MolfileCreator 2.0

  0  0  0  0  0  0              0 V3000
M  V30 BEGIN CTAB
M  V30 COUNTS 31 31 0 0 0
M  V30 BEGIN ATOM
M  V30 1 Cl -1.8206 -2.93 6.1052 0
M  V30 2 C -1.2383 -2.3177 4.6073 0
M  V30 3 C 0.1323 -2.1762 4.4018 0
M  V30 4 C -2.1376 -1.9654 3.6055 0
M  V30 5 C 0.6107 -1.6781 3.1843 0
M  V30 6 C -1.658 -1.4685 2.3913 0
M  V30 7 C -0.2843 -1.3218 2.1735 0
M  V30 8 O 0.0469 -0.8255 0.9435 0
M  V30 9 C 1.4343 -0.6496 0.6694 0
M  V30 10 C 1.6601 -0.0862 -0.7314 0
M  V30 11 O 2.7772 0.2228 -1.146 0
M  V30 12 N 0.5061 0.031 -1.4906 0
M  V30 13 N 0.57 0.5057 -2.8174 0
M  V30 14 C 0.1474 1.9147 -2.9046 0
M  V30 15 C 0.5435 2.4615 -4.277 0
M  V30 16 C -1.3633 2.045 -2.7063 0
M  V30 17 H 0.8352 -2.4513 5.1841 0
M  V30 18 H -3.2077 -2.0736 3.7599 0
M  V30 19 H 1.6851 -1.5834 3.0638 0
M  V30 20 H -2.3634 -1.194 1.6104 0
M  V30 21 H 1.9554 -1.6129 0.7135 0
M  V30 22 H 1.8719 0.0657 1.3756 0
M  V30 23 H -0.382 -0.2791 -1.0983 0
M  V30 24 H 1.5583 0.4499 -3.101 0
M  V30 25 H 0.6657 2.5095 -2.1416 0
M  V30 26 H 0.2521 3.5132 -4.3726 0
M  V30 27 H 1.6276 2.4047 -4.4255 0
M  V30 28 H 0.0606 1.9039 -5.0875 0
M  V30 29 H -1.6665 1.7149 -1.707 0
M  V30 30 H -1.6774 3.089 -2.8149 0
M  V30 31 H -1.9169 1.4507 -3.442 0
M  V30 END ATOM
M  V30 BEGIN BOND
M  V30 1 1 1 2
M  V30 2 2 2 3
M  V30 3 1 2 4
M  V30 4 1 3 5
M  V30 5 2 4 6
M  V30 6 2 5 7
M  V30 7 1 7 8
M  V30 8 1 8 9
M  V30 9 1 9 10
M  V30 10 2 10 11
M  V30 11 1 10 12
M  V30 12 1 12 13
M  V30 13 1 13 14
M  V30 14 1 14 15
M  V30 15 1 14 16
M  V30 16 1 6 7
M  V30 17 1 3 17
M  V30 18 1 4 18
M  V30 19 1 5 19
M  V30 20 1 6 20
M  V30 21 1 9 21
M  V30 22 1 9 22
M  V30 23 1 12 23
M  V30 24 1 13 24
M  V30 25 1 14 25
M  V30 26 1 15 26
M  V30 27 1 15 27
M  V30 28 1 15 28
M  V30 29 1 16 29
M  V30 30 1 16 30
M  V30 31 1 16 31
M  V30 END BOND
M  V30 END CTAB
M  END
>  <Column 1>
1114

>  <level_0>
1254

>  <index>
1254

>  <Unnamed: 0>
1254

>  <NO.>
1266

>  <Name>
iproclozide

>  <IUPAC_name>
2-(4-chlorophenoxy)-n'-propan-2-ylacetohydrazide

>  <SMILES>
CC(C)NNC(=O)COc1ccc(Cl)cc1

>  <CID>
19063

>  <logBB>


>  <BBB+/BBB->
BBB+

>  <Inchi>
InChI=1S/C11H15ClN2O2/c1-8(2)13-14-11(15)7-16-10-5-3-9(12)4-6-10/h3-6-8-13H-7H2-1-2H3-(H-14-15)

>  <threshold>
-1

>  <reference>
R1|R13|R19|R6|R24|R27|R27|R27|R30|R30|

>  <group>
B

>  <Class>
1

>  <ABC>
11.75

>  <ABCGG>
10.16

>  <nAcid>
0

>  <nBase>
0

>  <nAromAtom>
6

>  <nAromBond>
6

>  <nAtom>
31

>  <nHeavyAtom>
16

>  <nSpiro>
0

>  <nBridgehead>
0

>  <nHetero>
5

>  <nN>
2

>  <nO>
2

>  <nF>
0

>  <BalabanJ>
2.05

>  <BertzCT>
338.34

>  <nBonds>
31

>  <nBondsO>
16

>  <nBondsS>
24

>  <nBondsD>
1

>  <nBondsT>
0

>  <nBondsA>
6

>  <nBondsM>
7

>  <nBondsKS>
27

>  <nBondsKD>
4

>  <RNCG>
0.31

>  <RPCG>
0.17

>  <FCSP3>
0.36

>  <SZ>
21.33

>  <Sm>
20.21

>  <Sv>
19.1

>  <Sse>
31.41

>  <Sp>
20.57

>  <Si>
35.27

>  <MZ>
0.69

>  <Mm>
0.65

>  <Mv>
0.62

>  <Mse>
1.01

>  <Mp>
0.66

>  <Mi>
1.14

>  <NsCH3>
2

>  <NdCH2>
0

>  <NssCH2>
1

>  <NtCH>
0

>  <NdsCH>
0

>  <NaaCH>
4

>  <NsssCH>
1

>  <NddC>
0

>  <NtsC>
0

>  <NdssC>
1

>  <NaasC>
2

>  <NaaaC>
0

>  <NssssC>
0

>  <NsNH3>
0

>  <NsNH2>
0

>  <NssNH2>
0

>  <NdNH>
0

>  <NssNH>
2

>  <NaaNH>
0

>  <NtN>
0

>  <NsssNH>
0

>  <NdsN>
0

>  <NaaN>
0

>  <NsssN>
0

>  <NddsN>
0

>  <NaasN>
0

>  <NssssN>
0

>  <NsOH>
0

>  <NdO>
1

>  <NssO>
1

>  <NaaO>
0

>  <NsF>
0

>  <NsSiH3>
0

>  <NssSiH2>
0

>  <NsssSiH>
0

>  <NssssSi>
0

>  <NsPH2>
0

>  <NssPH>
0

>  <NsssP>
0

>  <NdsssP>
0

>  <NsssssP>
0

>  <NsSH>
0

>  <NdS>
0

>  <NssS>
0

>  <NaaS>
0

>  <NdssS>
0

>  <NddssS>
0

>  <NsCl>
1

>  <NsBr>
0

>  <NsI>
0

>  <fragCpx>
16.05

>  <fMF>
0.19

>  <nHBAcc>
3

>  <nHBDon>
2

>  <Kier1>
14.06

>  <Kier2>
7.35

>  <Lipinski>
1

>  <GhoseFilter>
1

>  <FilterItLogS>
-3.43

>  <VMcGowan>
181.73

>  <LabuteASA>
99.9

>  <PEOE_VSA1>
4.74

>  <PEOE_VSA2>
10.22

>  <PEOE_VSA3>
5.43

>  <PEOE_VSA4>
0

>  <PEOE_VSA5>
0

>  <PEOE_VSA6>
11.6

>  <PEOE_VSA7>
38.11

>  <PEOE_VSA8>
11.06

>  <PEOE_VSA9>
0

>  <PEOE_VSA10>
5.75

>  <PEOE_VSA11>
6.61

>  <PEOE_VSA12>
0

>  <PEOE_VSA13>
5.91

>  <SMR_VSA1>
9.53

>  <SMR_VSA2>
0

>  <SMR_VSA3>
10.85

>  <SMR_VSA4>
0

>  <SMR_VSA5>
19.89

>  <SMR_VSA6>
6.61

>  <SMR_VSA7>
29.29

>  <SMR_VSA8>
0

>  <SMR_VSA9>
5.75

>  <SlogP_VSA1>
15.59

>  <SlogP_VSA2>
18.56

>  <SlogP_VSA3>
4.79

>  <SlogP_VSA4>
0

>  <SlogP_VSA5>
13.85

>  <SlogP_VSA6>
24.27

>  <SlogP_VSA7>
5.02

>  <SlogP_VSA8>
0

>  <SlogP_VSA9>
0

>  <SlogP_VSA10>
0

>  <SlogP_VSA11>
5.75

>  <EState_VSA1>
0

>  <EState_VSA2>
18.56

>  <EState_VSA3>
10.77

>  <EState_VSA4>
0

>  <EState_VSA5>
0

>  <EState_VSA6>
24.27

>  <EState_VSA7>
13.85

>  <EState_VSA8>
10.85

>  <EState_VSA9>
16.34

>  <EState_VSA10>
4.79

>  <VSA_EState1>
5.24

>  <VSA_EState2>
11.26

>  <VSA_EState3>
0.64

>  <VSA_EState4>
5.31

>  <VSA_EState5>
0.4

>  <VSA_EState6>
7.04

>  <VSA_EState7>
0

>  <VSA_EState8>
3.84

>  <VSA_EState9>
0

>  <apol>
34.36

>  <bpol>
18.16

>  <nRing>
1

>  <nHRing>
0

>  <naRing>
1

>  <naHRing>
0

>  <nARing 2>
0

>  <nAHRing 2>
0

>  <nFRing>
0

>  <nFHRing>
0

>  <nFaRing>
0

>  <nFaHRing>
0

>  <nFARing 2>
0

>  <nFAHRing 2>
0

>  <nRot>
5

>  <SLogP>
1.75

>  <SMR>
63.36

>  <TopoPSA(NO)>
50.36

>  <TopoPSA>
50.36

>  <JGI1>
0.25

>  <JGI2>
0.08

>  <JGI3>
0.02

>  <JGI4>
0.06

>  <JGI5>
0.02

>  <Diameter>
11

>  <Radius>
6

>  <TMWC10>
98.51

>  <TSRW10>
46.98

>  <MW>
242.08

>  <AMW>
7.81

>  <WPath>
536

>  <WPol>
17

>  <Zagreb1>
72

>  <Zagreb2>
76

>  <mZagreb2>
3.67

>  <yes>


>  <nAR-cont>
0.336376

>  <nHA-cont>
0.954961865

>  <MWHBN>
0.32135906

>  <MWHBN-cont>
0.772589299

>  <TPSA-cont>
0.648455928

>  <pka_cont>
0.97

>  <yes.1>


>  <BBB_SCORE>
4.23213367

>  <MMFF94 Energy>
73.112

$$$$
Compound 931
Actelion Java MolfileCreator 2.0

  0  0  0  0  0  0              0 V3000
M  V30 BEGIN CTAB
M  V30 COUNTS 26 26 0 0 0
M  V30 BEGIN ATOM
M  V30 1 O -0.5445 -1.4008 1.1672 0
M  V30 2 C -0.0908 -0.2799 0.9497 0
M  V30 3 N 0.8839 -0.0278 -0.0069 0
M  V30 4 C -0.5601 0.8844 1.7444 0
M  V30 5 N 1.3895 -1.1002 -0.7716 0
M  V30 6 C -0.5313 2.1876 1.2467 0
M  V30 7 C -1.0744 0.6448 3.0194 0
M  V30 8 C 0.9773 -1.0128 -2.1811 0
M  V30 9 C -0.9999 3.2012 2.0644 0
M  V30 10 C -1.5157 1.7266 3.7571 0
M  V30 11 C 1.8053 -2.0222 -2.9766 0
M  V30 12 C -0.5145 -1.2961 -2.368 0
M  V30 13 N -1.4827 2.9996 3.3084 0
M  V30 14 H 1.343 0.8742 -0.0817 0
M  V30 15 H 1.0107 -1.9681 -0.3649 0
M  V30 16 H -0.1877 2.4245 0.2477 0
M  V30 17 H -1.1276 -0.3593 3.4278 0
M  V30 18 H 1.2053 -0.0116 -2.5679 0
M  V30 19 H -1.007 4.2352 1.7299 0
M  V30 20 H -1.9208 1.5964 4.7568 0
M  V30 21 H 1.5602 -1.968 -4.0428 0
M  V30 22 H 2.8771 -1.819 -2.8733 0
M  V30 23 H 1.6211 -3.0493 -2.6413 0
M  V30 24 H -1.1303 -0.5462 -1.8607 0
M  V30 25 H -0.7802 -1.2726 -3.4304 0
M  V30 26 H -0.7884 -2.2822 -1.9766 0
M  V30 END ATOM
M  V30 BEGIN BOND
M  V30 1 2 1 2
M  V30 2 1 2 3
M  V30 3 1 2 4
M  V30 4 1 3 5
M  V30 5 2 4 6
M  V30 6 1 4 7
M  V30 7 1 5 8
M  V30 8 1 6 9
M  V30 9 2 7 10
M  V30 10 1 8 11
M  V30 11 1 8 12
M  V30 12 2 9 13
M  V30 13 1 10 13
M  V30 14 1 3 14
M  V30 15 1 5 15
M  V30 16 1 6 16
M  V30 17 1 7 17
M  V30 18 1 8 18
M  V30 19 1 9 19
M  V30 20 1 10 20
M  V30 21 1 11 21
M  V30 22 1 11 22
M  V30 23 1 11 23
M  V30 24 1 12 24
M  V30 25 1 12 25
M  V30 26 1 12 26
M  V30 END BOND
M  V30 END CTAB
M  END
>  <Column 1>
1115

>  <level_0>
1255

>  <index>
1255

>  <Unnamed: 0>
1255

>  <NO.>
1267

>  <Name>
iproniazid

>  <IUPAC_name>
n'-propan-2-ylpyridine-4-carbohydrazide

>  <SMILES>
CC(C)NNC(=O)c1ccncc1

>  <CID>
3748

>  <logBB>


>  <BBB+/BBB->
BBB+

>  <Inchi>
InChI=1S/C9H13N3O/c1-7(2)11-12-9(13)8-3-5-10-6-4-8/h3-7-11H-1-2H3-(H-12-13)

>  <threshold>
-1

>  <reference>
R1|R13|R19|R6|R24|R26|R27|R27|R27|R30|R30|

>  <group>
B

>  <Class>
1

>  <ABC>
9.48

>  <ABCGG>
8.7

>  <nAcid>
0

>  <nBase>
0

>  <nAromAtom>
6

>  <nAromBond>
6

>  <nAtom>
26

>  <nHeavyAtom>
13

>  <nSpiro>
0

>  <nBridgehead>
0

>  <nHetero>
4

>  <nN>
3

>  <nO>
1

>  <nF>
0

>  <BalabanJ>
2.17

>  <BertzCT>
271.45

>  <nBonds>
26

>  <nBondsO>
13

>  <nBondsS>
19

>  <nBondsD>
1

>  <nBondsT>
0

>  <nBondsA>
6

>  <nBondsM>
7

>  <nBondsKS>
22

>  <nBondsKD>
4

>  <RNCG>
0.24

>  <RPCG>
0.22

>  <FCSP3>
0.33

>  <SZ>
16

>  <Sm>
14.92

>  <Sv>
15.51

>  <Sse>
26.09

>  <Sp>
16.65

>  <Si>
29.78

>  <MZ>
0.62

>  <Mm>
0.57

>  <Mv>
0.6

>  <Mse>
1

>  <Mp>
0.64

>  <Mi>
1.15

>  <NsCH3>
2

>  <NdCH2>
0

>  <NssCH2>
0

>  <NtCH>
0

>  <NdsCH>
0

>  <NaaCH>
4

>  <NsssCH>
1

>  <NddC>
0

>  <NtsC>
0

>  <NdssC>
1

>  <NaasC>
1

>  <NaaaC>
0

>  <NssssC>
0

>  <NsNH3>
0

>  <NsNH2>
0

>  <NssNH2>
0

>  <NdNH>
0

>  <NssNH>
2

>  <NaaNH>
0

>  <NtN>
0

>  <NsssNH>
0

>  <NdsN>
0

>  <NaaN>
1

>  <NsssN>
0

>  <NddsN>
0

>  <NaasN>
0

>  <NssssN>
0

>  <NsOH>
0

>  <NdO>
1

>  <NssO>
0

>  <NaaO>
0

>  <NsF>
0

>  <NsSiH3>
0

>  <NssSiH2>
0

>  <NsssSiH>
0

>  <NssssSi>
0

>  <NsPH2>
0

>  <NssPH>
0

>  <NsssP>
0

>  <NdsssP>
0

>  <NsssssP>
0

>  <NsSH>
0

>  <NdS>
0

>  <NssS>
0

>  <NaaS>
0

>  <NdssS>
0

>  <NddssS>
0

>  <NsCl>
0

>  <NsBr>
0

>  <NsI>
0

>  <fragCpx>
13.04

>  <fMF>
0.23

>  <nHBAcc>
3

>  <nHBDon>
2

>  <Kier1>
11.08

>  <Kier2>
5.67

>  <Lipinski>
1

>  <GhoseFilter>
1

>  <FilterItLogS>
-2.29

>  <VMcGowan>
145.42

>  <LabuteASA>
77.34

>  <PEOE_VSA1>
0

>  <PEOE_VSA2>
15.2

>  <PEOE_VSA3>
5.43

>  <PEOE_VSA4>
0

>  <PEOE_VSA5>
0

>  <PEOE_VSA6>
0

>  <PEOE_VSA7>
25.98

>  <PEOE_VSA8>
24

>  <PEOE_VSA9>
0

>  <PEOE_VSA10>
0

>  <PEOE_VSA11>
0

>  <PEOE_VSA12>
0

>  <PEOE_VSA13>
5.91

>  <SMR_VSA1>
4.79

>  <SMR_VSA2>
0

>  <SMR_VSA3>
15.84

>  <SMR_VSA4>
0

>  <SMR_VSA5>
19.89

>  <SMR_VSA6>
0

>  <SMR_VSA7>
30.09

>  <SMR_VSA8>
0

>  <SMR_VSA9>
0

>  <SlogP_VSA1>
10.85

>  <SlogP_VSA2>
16.93

>  <SlogP_VSA3>
0

>  <SlogP_VSA4>
0

>  <SlogP_VSA5>
24.21

>  <SlogP_VSA6>
24.53

>  <SlogP_VSA7>
0

>  <SlogP_VSA8>
0

>  <SlogP_VSA9>
0

>  <SlogP_VSA10>
0

>  <SlogP_VSA11>
0

>  <EState_VSA1>
0

>  <EState_VSA2>
11.95

>  <EState_VSA3>
5.56

>  <EState_VSA4>
0

>  <EState_VSA5>
0

>  <EState_VSA6>
24.53

>  <EState_VSA7>
13.85

>  <EState_VSA8>
15.84

>  <EState_VSA9>
0

>  <EState_VSA10>
4.79

>  <VSA_EState1>
0

>  <VSA_EState2>
15.17

>  <VSA_EState3>
0

>  <VSA_EState4>
6.01

>  <VSA_EState5>
-0.14

>  <VSA_EState6>
3.56

>  <VSA_EState7>
3.18

>  <VSA_EState8>
3.9

>  <VSA_EState9>
0

>  <apol>
27.8

>  <bpol>
15.05

>  <nRing>
1

>  <nHRing>
1

>  <naRing>
1

>  <naHRing>
1

>  <nARing 2>
0

>  <nAHRing 2>
0

>  <nFRing>
0

>  <nFHRing>
0

>  <nFaRing>
0

>  <nFaHRing>
0

>  <nFARing 2>
0

>  <nFAHRing 2>
0

>  <nRot>
3

>  <SLogP>
0.72

>  <SMR>
49.97

>  <TopoPSA(NO)>
54.02

>  <TopoPSA>
54.02

>  <JGI1>
0.19

>  <JGI2>
0.08

>  <JGI3>
0.04

>  <JGI4>
0.03

>  <JGI5>
0.03

>  <Diameter>
8

>  <Radius>
4

>  <TMWC10>
90.88

>  <TSRW10>
43.02

>  <MW>
179.11

>  <AMW>
6.89

>  <WPath>
274

>  <WPol>
14

>  <Zagreb1>
58

>  <Zagreb2>
62

>  <mZagreb2>
3.03

>  <yes>


>  <nAR-cont>
0.336376

>  <nHA-cont>
0.841215992

>  <MWHBN>
0.37360277

>  <MWHBN-cont>
0.579839324

>  <TPSA-cont>
0.622906856

>  <pka_cont>
0.97

>  <yes.1>


>  <BBB_SCORE>
3.778164689

>  <MMFF94 Energy>
44.394

$$$$
Compound 932
Actelion Java MolfileCreator 2.0

  0  0  0  0  0  0              0 V3000
M  V30 BEGIN CTAB
M  V30 COUNTS 36 37 0 0 0
M  V30 BEGIN ATOM
M  V30 1 S -1.3707 -1.1287 -1.2094 0
M  V30 2 O -1.4282 -2.3012 -2.0539 0
M  V30 3 O -0.4686 -0.0355 -1.488 0
M  V30 4 N -2.9388 -0.5362 -1.1923 0
M  V30 5 C -1.1352 -1.6748 0.4721 0
M  V30 6 C -3.3989 0.514 -0.2659 0
M  V30 7 C 0.2369 -2.3061 0.658 0
M  V30 8 C -2.5656 1.7849 -0.3584 0
M  V30 9 C -4.8567 0.8266 -0.6091 0
M  V30 10 N 1.334 -1.3564 0.5892 0
M  V30 11 C 1.4961 -0.3003 1.4448 0
M  V30 12 C 2.3593 -1.434 -0.3157 0
M  V30 13 O 0.7979 0.0285 2.3855 0
M  V30 14 C 2.7088 0.3976 1.0239 0
M  V30 15 O 2.5717 -2.2801 -1.1621 0
M  V30 16 C 3.2335 -0.2924 -0.0536 0
M  V30 17 C 3.3123 1.5314 1.5312 0
M  V30 18 C 4.393 0.111 -0.6855 0
M  V30 19 C 4.4874 1.962 0.9069 0
M  V30 20 C 5.0229 1.258 -0.1921 0
M  V30 21 H -3.6182 -1.2537 -1.4496 0
M  V30 22 H -1.9156 -2.4142 0.6781 0
M  V30 23 H -1.2739 -0.8145 1.1299 0
M  V30 24 H -3.3774 0.1241 0.7572 0
M  V30 25 H 0.2753 -2.7516 1.659 0
M  V30 26 H 0.4007 -3.1072 -0.0704 0
M  V30 27 H -1.5646 1.6353 0.0567 0
M  V30 28 H -2.458 2.1204 -1.3955 0
M  V30 29 H -3.0265 2.5967 0.2148 0
M  V30 30 H -5.2664 1.5814 0.0703 0
M  V30 31 H -4.9528 1.2008 -1.6346 0
M  V30 32 H -5.4784 -0.0716 -0.5257 0
M  V30 33 H 2.8891 2.0638 2.3765 0
M  V30 34 H 4.7919 -0.4402 -1.5306 0
M  V30 35 H 4.9962 2.8531 1.2706 0
M  V30 36 H 5.9376 1.6145 -0.6625 0
M  V30 END ATOM
M  V30 BEGIN BOND
M  V30 1 2 1 2
M  V30 2 2 1 3
M  V30 3 1 1 4
M  V30 4 1 1 5
M  V30 5 1 4 6
M  V30 6 1 5 7
M  V30 7 1 6 8
M  V30 8 1 6 9
M  V30 9 1 7 10
M  V30 10 1 10 11
M  V30 11 1 10 12
M  V30 12 2 11 13
M  V30 13 1 11 14
M  V30 14 2 12 15
M  V30 15 1 12 16
M  V30 16 1 14 17
M  V30 17 1 16 18
M  V30 18 2 17 19
M  V30 19 2 18 20
M  V30 20 2 14 16
M  V30 21 1 19 20
M  V30 22 1 4 21
M  V30 23 1 5 22
M  V30 24 1 5 23
M  V30 25 1 6 24
M  V30 26 1 7 25
M  V30 27 1 7 26
M  V30 28 1 8 27
M  V30 29 1 8 28
M  V30 30 1 8 29
M  V30 31 1 9 30
M  V30 32 1 9 31
M  V30 33 1 9 32
M  V30 34 1 17 33
M  V30 35 1 18 34
M  V30 36 1 19 35
M  V30 37 1 20 36
M  V30 END BOND
M  V30 END CTAB
M  END
>  <Column 1>
1116

>  <level_0>
1256

>  <index>
1256

>  <Unnamed: 0>
1256

>  <NO.>
1268

>  <Name>
taltrimide

>  <IUPAC_name>
2-(1-3-dioxoisoindol-2-yl)-n-propan-2-ylethanesulfonamide

>  <SMILES>
CC(C)NS(=O)(=O)CCN1C(=O)c2ccccc2C1=O

>  <CID>
71248

>  <logBB>


>  <BBB+/BBB->
BBB+

>  <Inchi>
InChI=1S/C13H16N2O4S/c1-9(2)14-20(18-19)8-7-15-12(16)10-5-3-4-6-11(10)13(15)17/h3-6-9-14H-7-8H2-1-2H3

>  <threshold>
-1

>  <reference>
R1|R7|R13|R19|R6|R24|R27|R27|R27|R29|R30|R30|

>  <group>
B

>  <Class>
1

>  <ABC>
15.4

>  <ABCGG>
13.72

>  <nAcid>
0

>  <nBase>
0

>  <nAromAtom>
6

>  <nAromBond>
6

>  <nAtom>
36

>  <nHeavyAtom>
20

>  <nSpiro>
0

>  <nBridgehead>
0

>  <nHetero>
7

>  <nN>
2

>  <nO>
4

>  <nF>
0

>  <BalabanJ>
1.92

>  <BertzCT>
617.09

>  <nBonds>
37

>  <nBondsO>
21

>  <nBondsS>
27

>  <nBondsD>
4

>  <nBondsT>
0

>  <nBondsA>
6

>  <nBondsM>
10

>  <nBondsKS>
30

>  <nBondsKD>
7

>  <RNCG>
0.15

>  <RPCG>
0.15

>  <FCSP3>
0.38

>  <SZ>
26

>  <Sm>
24.67

>  <Sv>
22.9

>  <Sse>
36.83

>  <Sp>
24.36

>  <Si>
40.66

>  <MZ>
0.72

>  <Mm>
0.69

>  <Mv>
0.64

>  <Mse>
1.02

>  <Mp>
0.68

>  <Mi>
1.13

>  <NsCH3>
2

>  <NdCH2>
0

>  <NssCH2>
2

>  <NtCH>
0

>  <NdsCH>
0

>  <NaaCH>
4

>  <NsssCH>
1

>  <NddC>
0

>  <NtsC>
0

>  <NdssC>
2

>  <NaasC>
2

>  <NaaaC>
0

>  <NssssC>
0

>  <NsNH3>
0

>  <NsNH2>
0

>  <NssNH2>
0

>  <NdNH>
0

>  <NssNH>
1

>  <NaaNH>
0

>  <NtN>
0

>  <NsssNH>
0

>  <NdsN>
0

>  <NaaN>
0

>  <NsssN>
1

>  <NddsN>
0

>  <NaasN>
0

>  <NssssN>
0

>  <NsOH>
0

>  <NdO>
4

>  <NssO>
0

>  <NaaO>
0

>  <NsF>
0

>  <NsSiH3>
0

>  <NssSiH2>
0

>  <NsssSiH>
0

>  <NssssSi>
0

>  <NsPH2>
0

>  <NssPH>
0

>  <NsssP>
0

>  <NdsssP>
0

>  <NsssssP>
0

>  <NsSH>
0

>  <NdS>
0

>  <NssS>
0

>  <NaaS>
0

>  <NdssS>
0

>  <NddssS>
1

>  <NsCl>
0

>  <NsBr>
0

>  <NsI>
0

>  <fragCpx>
61.07

>  <fMF>
0.25

>  <nHBAcc>
4

>  <nHBDon>
1

>  <Kier1>
16.37

>  <Kier2>
6.41

>  <Lipinski>
1

>  <GhoseFilter>
1

>  <FilterItLogS>
-3.06

>  <VMcGowan>
210.6

>  <LabuteASA>
117.37

>  <PEOE_VSA1>
0

>  <PEOE_VSA2>
14.49

>  <PEOE_VSA3>
13.14

>  <PEOE_VSA4>
0

>  <PEOE_VSA5>
0

>  <PEOE_VSA6>
12.13

>  <PEOE_VSA7>
25.98

>  <PEOE_VSA8>
12.59

>  <PEOE_VSA9>
16.88

>  <PEOE_VSA10>
0

>  <PEOE_VSA11>
0

>  <PEOE_VSA12>
10.02

>  <PEOE_VSA13>
11.81

>  <SMR_VSA1>
18.01

>  <SMR_VSA2>
0

>  <SMR_VSA3>
9.62

>  <SMR_VSA4>
0

>  <SMR_VSA5>
19.89

>  <SMR_VSA6>
12.3

>  <SMR_VSA7>
35.39

>  <SMR_VSA8>
0

>  <SMR_VSA9>
0

>  <SlogP_VSA1>
4.72

>  <SlogP_VSA2>
43.47

>  <SlogP_VSA3>
10.02

>  <SlogP_VSA4>
0

>  <SlogP_VSA5>
34.56

>  <SlogP_VSA6>
24.27

>  <SlogP_VSA7>
0

>  <SlogP_VSA8>
0

>  <SlogP_VSA9>
0

>  <SlogP_VSA10>
0

>  <SlogP_VSA11>
0

>  <EState_VSA1>
21.84

>  <EState_VSA2>
18.34

>  <EState_VSA3>
11.13

>  <EState_VSA4>
4.9

>  <EState_VSA5>
0

>  <EState_VSA6>
38.11

>  <EState_VSA7>
0

>  <EState_VSA8>
4.72

>  <EState_VSA9>
0

>  <EState_VSA10>
18.01

>  <VSA_EState1>
25.86

>  <VSA_EState2>
25.05

>  <VSA_EState3>
0

>  <VSA_EState4>
0.65

>  <VSA_EState5>
-1.17

>  <VSA_EState6>
6.25

>  <VSA_EState7>
0

>  <VSA_EState8>
3.27

>  <VSA_EState9>
-3.5

>  <apol>
40.69

>  <bpol>
26.72

>  <nRing>
2

>  <nHRing>
1

>  <naRing>
1

>  <naHRing>
0

>  <nARing 2>
1

>  <nAHRing 2>
1

>  <nFRing>
1

>  <nFHRing>
1

>  <nFaRing>
0

>  <nFaHRing>
0

>  <nFARing 2>
1

>  <nFAHRing 2>
1

>  <nRot>
5

>  <SLogP>
0.61

>  <SMR>
73.87

>  <TopoPSA(NO)>
83.55

>  <TopoPSA>
91.93

>  <JGI1>
0.26

>  <JGI2>
0.09

>  <JGI3>
0.1

>  <JGI4>
0.03

>  <JGI5>
0.04

>  <Diameter>
10

>  <Radius>
5

>  <TMWC10>
114.63

>  <TSRW10>
68.27

>  <MW>
296.08

>  <AMW>
8.22

>  <WPath>
830

>  <WPol>
30

>  <Zagreb1>
104

>  <Zagreb2>
121

>  <mZagreb2>
4.31

>  <yes>


>  <nAR-cont>
0.816016

>  <nHA-cont>
0.999629945

>  <MWHBN>
0.290579832

>  <MWHBN-cont>
0.867939818

>  <TPSA-cont>
0.358271515

>  <pka_cont>
0.97

>  <yes.1>


>  <BBB_SCORE>
4.319098702

>  <MMFF94 Energy>
-89.853

$$$$
Compound 933
Actelion Java MolfileCreator 2.0

  0  0  0  0  0  0              0 V3000
M  V30 BEGIN CTAB
M  V30 COUNTS 44 46 0 0 0
M  V30 BEGIN ATOM
M  V30 1 Cl 1.2191 -3.1721 -3.5793 0
M  V30 2 C 0.9662 -1.4898 -3.2689 0
M  V30 3 C 1.2763 -0.5036 -4.2069 0
M  V30 4 C 0.423 -1.1345 -2.0238 0
M  V30 5 Cl 1.9476 -0.8682 -5.7551 0
M  V30 6 C 1.0328 0.8333 -3.9001 0
M  V30 7 C 0.19 0.2085 -1.6831 0
M  V30 8 C 0.4917 1.1813 -2.6587 0
M  V30 9 C -0.4143 0.6549 -0.3417 0 CFG=2
M  V30 10 O 0.2477 1.8984 0.0031 0
M  V30 11 C -0.2378 -0.3359 0.8932 0 CFG=1
M  V30 12 C -1.933 0.9868 -0.5069 0
M  V30 13 N 0.7419 0.1297 1.9028 0
M  V30 14 C -1.621 -0.5198 1.5871 0
M  V30 15 C -2.4505 1.7096 0.7566 0
M  V30 16 C -2.7508 -0.3086 -0.6614 0
M  V30 17 C 2.1279 -0.2476 1.6038 0
M  V30 18 C -2.2235 0.8367 1.9948 0
M  V30 19 C -2.5774 -1.1906 0.5805 0
M  V30 20 C 3.0668 0.6874 2.3701 0
M  V30 21 C 2.3983 -1.6957 2.0154 0
M  V30 22 H 0.1689 -1.9408 -1.3419 0
M  V30 23 H 1.256 1.6146 -4.623 0
M  V30 24 H 0.2984 2.2357 -2.4557 0
M  V30 25 H 1.2025 1.7201 -0.0491 0
M  V30 26 H 0.0498 -1.3373 0.5707 0
M  V30 27 H -2.1009 1.6425 -1.3699 0
M  V30 28 H 0.6527 1.1493 1.9551 0
M  V30 29 H -1.5196 -1.1615 2.4709 0
M  V30 30 H -1.9596 2.6809 0.886 0
M  V30 31 H -3.5211 1.9252 0.6502 0
M  V30 32 H -2.4552 -0.8594 -1.5604 0
M  V30 33 H -3.8131 -0.0671 -0.7919 0
M  V30 34 H 2.3428 -0.13 0.5356 0
M  V30 35 H -1.5734 1.3572 2.7069 0
M  V30 36 H -3.1784 0.6812 2.512 0
M  V30 37 H -2.1925 -2.1744 0.287 0
M  V30 38 H -3.5535 -1.3666 1.0488 0
M  V30 39 H 2.9078 0.6207 3.4525 0
M  V30 40 H 2.9156 1.73 2.0687 0
M  V30 41 H 4.1133 0.4347 2.1682 0
M  V30 42 H 1.7921 -2.4026 1.4406 0
M  V30 43 H 2.1857 -1.8557 3.0786 0
M  V30 44 H 3.4488 -1.9542 1.8432 0
M  V30 END ATOM
M  V30 BEGIN BOND
M  V30 1 1 1 2
M  V30 2 2 2 3
M  V30 3 1 2 4
M  V30 4 1 3 5
M  V30 5 1 3 6
M  V30 6 2 4 7
M  V30 7 2 6 8
M  V30 8 1 7 9
M  V30 9 1 9 10
M  V30 10 1 9 11
M  V30 11 1 9 12
M  V30 12 1 11 13
M  V30 13 1 11 14
M  V30 14 1 12 15
M  V30 15 1 12 16
M  V30 16 1 13 17
M  V30 17 1 14 18
M  V30 18 1 14 19
M  V30 19 1 17 20
M  V30 20 1 17 21
M  V30 21 1 7 8
M  V30 22 1 15 18
M  V30 23 1 16 19
M  V30 24 1 4 22
M  V30 25 1 6 23
M  V30 26 1 8 24
M  V30 27 1 10 25
M  V30 28 1 11 26
M  V30 29 1 12 27
M  V30 30 1 13 28
M  V30 31 1 14 29
M  V30 32 1 15 30
M  V30 33 1 15 31
M  V30 34 1 16 32
M  V30 35 1 16 33
M  V30 36 1 17 34
M  V30 37 1 18 35
M  V30 38 1 18 36
M  V30 39 1 19 37
M  V30 40 1 19 38
M  V30 41 1 20 39
M  V30 42 1 20 40
M  V30 43 1 20 41
M  V30 44 1 21 42
M  V30 45 1 21 43
M  V30 46 1 21 44
M  V30 END BOND
M  V30 BEGIN COLLECTION
M  V30 MDLV30/STEABS ATOMS=(2 9 11)
M  V30 END COLLECTION
M  V30 END CTAB
M  END
>  <Column 1>
1117

>  <level_0>
1257

>  <index>
1257

>  <Unnamed: 0>
1257

>  <NO.>
1269

>  <Name>
zinc1150

>  <IUPAC_name>
(2s-3s)-2-(3-4-dichlorophenyl)-3-(propan-2-ylamino)bicyclo[2.2.2]octan-2-ol

>  <SMILES>
CC(C)N[C@H]1C2CCC(CC2)[C@]1(O)c1ccc(Cl)c(Cl)c1

>  <CID>
50538

>  <logBB>


>  <BBB+/BBB->
BBB+

>  <Inchi>
InChI=1S/C17H23Cl2NO/c1-10(2)20-16-11-3-5-12(6-4-11)17(16-21)13-7-8-14(18)15(19)9-13/h7-12-16-20-21H-3-6H2-1-2H3/t11?-12?-16--17-/m0/s1

>  <threshold>
-1

>  <reference>
R1|R27|R30|

>  <group>
B

>  <Class>
-1

>  <ABC>
16.59

>  <ABCGG>
14.06

>  <nAcid>
0

>  <nBase>
1

>  <nAromAtom>
6

>  <nAromBond>
6

>  <nAtom>
44

>  <nHeavyAtom>
21

>  <nSpiro>
0

>  <nBridgehead>
2

>  <nHetero>
4

>  <nN>
1

>  <nO>
1

>  <nF>
0

>  <BalabanJ>
1.84

>  <BertzCT>
525.52

>  <nBonds>
46

>  <nBondsO>
23

>  <nBondsS>
40

>  <nBondsD>
0

>  <nBondsT>
0

>  <nBondsA>
6

>  <nBondsM>
6

>  <nBondsKS>
43

>  <nBondsKD>
3

>  <RNCG>
0.29

>  <RPCG>
0.16

>  <FCSP3>
0.65

>  <SZ>
29

>  <Sm>
27.33

>  <Sv>
26.89

>  <Sse>
43.73

>  <Sp>
29.93

>  <Si>
49.58

>  <MZ>
0.66

>  <Mm>
0.62

>  <Mv>
0.61

>  <Mse>
0.99

>  <Mp>
0.68

>  <Mi>
1.13

>  <NsCH3>
2

>  <NdCH2>
0

>  <NssCH2>
4

>  <NtCH>
0

>  <NdsCH>
0

>  <NaaCH>
3

>  <NsssCH>
4

>  <NddC>
0

>  <NtsC>
0

>  <NdssC>
0

>  <NaasC>
3

>  <NaaaC>
0

>  <NssssC>
1

>  <NsNH3>
0

>  <NsNH2>
0

>  <NssNH2>
0

>  <NdNH>
0

>  <NssNH>
1

>  <NaaNH>
0

>  <NtN>
0

>  <NsssNH>
0

>  <NdsN>
0

>  <NaaN>
0

>  <NsssN>
0

>  <NddsN>
0

>  <NaasN>
0

>  <NssssN>
0

>  <NsOH>
1

>  <NdO>
0

>  <NssO>
0

>  <NaaO>
0

>  <NsF>
0

>  <NsSiH3>
0

>  <NssSiH2>
0

>  <NsssSiH>
0

>  <NssssSi>
0

>  <NsPH2>
0

>  <NssPH>
0

>  <NsssP>
0

>  <NdsssP>
0

>  <NsssssP>
0

>  <NsSH>
0

>  <NdS>
0

>  <NssS>
0

>  <NaaS>
0

>  <NdssS>
0

>  <NddssS>
0

>  <NsCl>
2

>  <NsBr>
0

>  <NsI>
0

>  <fragCpx>
109.04

>  <fMF>
0.32

>  <nHBAcc>
2

>  <nHBDon>
2

>  <Kier1>
15.88

>  <Kier2>
5.89

>  <Lipinski>
1

>  <GhoseFilter>
1

>  <FilterItLogS>
-4.96

>  <VMcGowan>
245.24

>  <LabuteASA>
136.38

>  <PEOE_VSA1>
10.42

>  <PEOE_VSA2>
0

>  <PEOE_VSA3>
0

>  <PEOE_VSA4>
0

>  <PEOE_VSA5>
0

>  <PEOE_VSA6>
43.12

>  <PEOE_VSA7>
55.22

>  <PEOE_VSA8>
12.08

>  <PEOE_VSA9>
10.05

>  <PEOE_VSA10>
5.6

>  <PEOE_VSA11>
0

>  <PEOE_VSA12>
0

>  <PEOE_VSA13>
0

>  <SMR_VSA1>
5.11

>  <SMR_VSA2>
0

>  <SMR_VSA3>
5.32

>  <SMR_VSA4>
11.84

>  <SMR_VSA5>
57.22

>  <SMR_VSA6>
0

>  <SMR_VSA7>
33.81

>  <SMR_VSA8>
0

>  <SMR_VSA9>
0

>  <SlogP_VSA1>
5.32

>  <SlogP_VSA2>
17.19

>  <SlogP_VSA3>
5.6

>  <SlogP_VSA4>
11.84

>  <SlogP_VSA5>
45.09

>  <SlogP_VSA6>
18.2

>  <SlogP_VSA7>
10.05

>  <SlogP_VSA8>
0

>  <SlogP_VSA9>
0

>  <SlogP_VSA10>
0

>  <SlogP_VSA11>
0

>  <EState_VSA1>
5.6

>  <EState_VSA2>
6.04

>  <EState_VSA3>
27.92

>  <EState_VSA4>
18.41

>  <EState_VSA5>
12.84

>  <EState_VSA6>
6.07

>  <EState_VSA7>
12.13

>  <EState_VSA8>
19.16

>  <EState_VSA9>
23.2

>  <EState_VSA10>
5.11

>  <VSA_EState1>
0

>  <VSA_EState2>
0

>  <VSA_EState3>
16.26

>  <VSA_EState4>
0.07

>  <VSA_EState5>
0.84

>  <VSA_EState6>
6.03

>  <VSA_EState7>
4.6

>  <VSA_EState8>
4.27

>  <VSA_EState9>
0

>  <apol>
49.99

>  <bpol>
24.66

>  <nRing>
4

>  <nHRing>
0

>  <naRing>
1

>  <naHRing>
0

>  <nARing 2>
3

>  <nAHRing 2>
0

>  <nFRing>
1

>  <nFHRing>
0

>  <nFaRing>
0

>  <nFaHRing>
0

>  <nFARing 2>
1

>  <nFAHRing 2>
0

>  <nRot>
3

>  <SLogP>
4.37

>  <SMR>
87.87

>  <TopoPSA(NO)>
32.26

>  <TopoPSA>
32.26

>  <JGI1>
0.26

>  <JGI2>
0.11

>  <JGI3>
0.06

>  <JGI4>
0.05

>  <JGI5>
0.03

>  <Diameter>
9

>  <Radius>
5

>  <TMWC10>
120.07

>  <TSRW10>
55.87

>  <MW>
327.12

>  <AMW>
7.43

>  <WPath>
826

>  <WPol>
38

>  <Zagreb1>
116

>  <Zagreb2>
142

>  <mZagreb2>
4.47

>  <yes>


>  <nAR-cont>
0.691115

>  <nHA-cont>
0.994529749

>  <MWHBN>
0.221159929

>  <MWHBN-cont>
0.994203408

>  <TPSA-cont>
0.774805168

>  <pka_cont>
0.97

>  <yes.1>


>  <BBB_SCORE>
5.211560197

>  <MMFF94 Energy>
90.81

$$$$
Compound 934
Actelion Java MolfileCreator 2.0

  0  0  0  0  0  0              0 V3000
M  V30 BEGIN CTAB
M  V30 COUNTS 60 63 0 0 0
M  V30 BEGIN ATOM
M  V30 1 S -2.8864 -3.6089 6.0205 0
M  V30 2 O -2.6091 -3.1403 7.3625 0
M  V30 3 O -3.3124 -2.699 4.9817 0
M  V30 4 N -1.4928 -4.4459 5.544 0
M  V30 5 C -4.0621 -4.9377 6.1506 0
M  V30 6 C -1.1736 -4.4328 4.1528 0
M  V30 7 C -0.3777 -3.4038 3.6369 0
M  V30 8 C -1.7115 -5.412 3.3205 0
M  V30 9 C -0.1086 -3.38 2.2549 0
M  V30 10 C -1.4472 -5.4102 1.9471 0
M  V30 11 C -0.6428 -4.3802 1.4472 0
M  V30 12 C 0.6408 -2.5163 1.4082 0
M  V30 13 N -0.2139 -4.1298 0.1664 0
M  V30 14 C 0.5291 -2.9686 0.1042 0
M  V30 15 C 1.0794 -2.5097 -1.156 0
M  V30 16 O 1.2798 -3.3171 -2.0645 0
M  V30 17 N 1.3606 -1.1608 -1.3339 0
M  V30 18 C 0.8489 -0.0578 -0.507 0
M  V30 19 C 2.1249 -0.7677 -2.5239 0
M  V30 20 C 0.5684 1.224 -1.3185 0
M  V30 21 C 2.7647 0.6217 -2.381 0
M  V30 22 N 1.7347 1.6345 -2.1176 0
M  V30 23 C 2.1853 2.9498 -1.9533 0
M  V30 24 N 3.4537 3.1226 -1.507 0
M  V30 25 C 1.3252 4.0501 -2.2447 0
M  V30 26 C 3.8774 4.38 -1.2706 0
M  V30 27 N 0.0574 3.8291 -2.7755 0
M  V30 28 C 1.8064 5.3286 -1.9477 0
M  V30 29 C 3.0968 5.5017 -1.4588 0
M  V30 30 C -0.9197 4.838 -3.1418 0
M  V30 31 C -0.6195 5.3774 -4.5375 0
M  V30 32 C -2.3083 4.1983 -3.1089 0
M  V30 33 H -0.7243 -4.1729 6.1604 0
M  V30 34 H -4.2403 -5.3583 5.1601 0
M  V30 35 H -3.6718 -5.6924 6.8359 0
M  V30 36 H -4.9921 -4.5242 6.5473 0
M  V30 37 H 0.0152 -2.6236 4.2804 0
M  V30 38 H -2.3301 -6.2028 3.7353 0
M  V30 39 H -1.8542 -6.1798 1.2991 0
M  V30 40 H 1.2091 -1.6568 1.7369 0
M  V30 41 H -0.4147 -4.7041 -0.6418 0
M  V30 42 H -0.0734 -0.3605 -0.0033 0
M  V30 43 H 1.6115 0.15 0.2524 0
M  V30 44 H 1.4264 -0.7782 -3.3699 0
M  V30 45 H 2.8976 -1.5187 -2.7233 0
M  V30 46 H 0.2457 2.0064 -0.6203 0
M  V30 47 H -0.2647 1.0272 -2.0041 0
M  V30 48 H 3.4908 0.5858 -1.5582 0
M  V30 49 H 3.3032 0.8661 -3.3042 0
M  V30 50 H 4.8968 4.4623 -0.9054 0
M  V30 51 H -0.037 2.9048 -3.1906 0
M  V30 52 H 1.1984 6.2105 -2.1157 0
M  V30 53 H 3.4844 6.4905 -1.2428 0
M  V30 54 H -0.9251 5.6595 -2.4166 0
M  V30 55 H -0.6192 4.5744 -5.2833 0
M  V30 56 H 0.3628 5.8595 -4.5748 0
M  V30 57 H -1.3674 6.1191 -4.837 0
M  V30 58 H -3.0815 4.931 -3.3629 0
M  V30 59 H -2.3829 3.3646 -3.8163 0
M  V30 60 H -2.5297 3.8043 -2.1106 0
M  V30 END ATOM
M  V30 BEGIN BOND
M  V30 1 2 1 2
M  V30 2 2 1 3
M  V30 3 1 1 4
M  V30 4 1 1 5
M  V30 5 1 4 6
M  V30 6 2 6 7
M  V30 7 1 6 8
M  V30 8 1 7 9
M  V30 9 2 8 10
M  V30 10 2 9 11
M  V30 11 1 9 12
M  V30 12 1 11 13
M  V30 13 2 12 14
M  V30 14 1 14 15
M  V30 15 2 15 16
M  V30 16 1 15 17
M  V30 17 1 17 18
M  V30 18 1 17 19
M  V30 19 1 18 20
M  V30 20 1 19 21
M  V30 21 1 20 22
M  V30 22 1 22 23
M  V30 23 2 23 24
M  V30 24 1 23 25
M  V30 25 1 24 26
M  V30 26 1 25 27
M  V30 27 2 25 28
M  V30 28 2 26 29
M  V30 29 1 27 30
M  V30 30 1 30 31
M  V30 31 1 30 32
M  V30 32 1 10 11
M  V30 33 1 13 14
M  V30 34 1 21 22
M  V30 35 1 28 29
M  V30 36 1 4 33
M  V30 37 1 5 34
M  V30 38 1 5 35
M  V30 39 1 5 36
M  V30 40 1 7 37
M  V30 41 1 8 38
M  V30 42 1 10 39
M  V30 43 1 12 40
M  V30 44 1 13 41
M  V30 45 1 18 42
M  V30 46 1 18 43
M  V30 47 1 19 44
M  V30 48 1 19 45
M  V30 49 1 20 46
M  V30 50 1 20 47
M  V30 51 1 21 48
M  V30 52 1 21 49
M  V30 53 1 26 50
M  V30 54 1 27 51
M  V30 55 1 28 52
M  V30 56 1 29 53
M  V30 57 1 30 54
M  V30 58 1 31 55
M  V30 59 1 31 56
M  V30 60 1 31 57
M  V30 61 1 32 58
M  V30 62 1 32 59
M  V30 63 1 32 60
M  V30 END BOND
M  V30 END CTAB
M  END
>  <Column 1>
1118

>  <level_0>
1258

>  <index>
1258

>  <Unnamed: 0>
1258

>  <NO.>
1270

>  <Name>
doxorubicin

>  <IUPAC_name>
n-[2-[4-[3-(propan-2-ylamino)pyridin-2-yl]piperazine-1-carbonyl]-1h-indol-5-yl]methanesulfonamide

>  <SMILES>
CC(C)Nc1cccnc1N1CCN(C(=O)c2cc3cc(NS(C)(=O)=O)ccc3[nH]2)CC1

>  <CID>
5625

>  <logBB>


>  <BBB+/BBB->
BBB-

>  <Inchi>
InChI=1S/C22H28N6O3S/c1-15(2)24-19-5-4-8-23-21(19)27-9-11-28(12-10-27)22(29)20-14-16-13-17(26-32(3-30)31)6-7-18(16)25-20/h4-8-13-15-24-26H-9-12H2-1-3H3

>  <threshold>
-1

>  <reference>
R1|R13|R19|R28|R9|R14|R15|R23|R24|R27|R27|R30|R36|

>  <group>
B

>  <Class>
1

>  <ABC>
25.35

>  <ABCGG>
18.65

>  <nAcid>
0

>  <nBase>
0

>  <nAromAtom>
15

>  <nAromBond>
16

>  <nAtom>
60

>  <nHeavyAtom>
32

>  <nSpiro>
0

>  <nBridgehead>
0

>  <nHetero>
10

>  <nN>
6

>  <nO>
3

>  <nF>
0

>  <BalabanJ>
1.25

>  <BertzCT>
1229.45

>  <nBonds>
63

>  <nBondsO>
35

>  <nBondsS>
44

>  <nBondsD>
3

>  <nBondsT>
0

>  <nBondsA>
16

>  <nBondsM>
19

>  <nBondsKS>
53

>  <nBondsKD>
10

>  <RNCG>
0.13

>  <RPCG>
0.09

>  <FCSP3>
0.36

>  <SZ>
40.33

>  <Sm>
38.01

>  <Sv>
37.46

>  <Sse>
60.48

>  <Sp>
40.31

>  <Si>
68.11

>  <MZ>
0.67

>  <Mm>
0.63

>  <Mv>
0.62

>  <Mse>
1.01

>  <Mp>
0.67

>  <Mi>
1.14

>  <NsCH3>
3

>  <NdCH2>
0

>  <NssCH2>
4

>  <NtCH>
0

>  <NdsCH>
0

>  <NaaCH>
7

>  <NsssCH>
1

>  <NddC>
0

>  <NtsC>
0

>  <NdssC>
1

>  <NaasC>
4

>  <NaaaC>
2

>  <NssssC>
0

>  <NsNH3>
0

>  <NsNH2>
0

>  <NssNH2>
0

>  <NdNH>
0

>  <NssNH>
2

>  <NaaNH>
1

>  <NtN>
0

>  <NsssNH>
0

>  <NdsN>
0

>  <NaaN>
1

>  <NsssN>
2

>  <NddsN>
0

>  <NaasN>
0

>  <NssssN>
0

>  <NsOH>
0

>  <NdO>
3

>  <NssO>
0

>  <NaaO>
0

>  <NsF>
0

>  <NsSiH3>
0

>  <NssSiH2>
0

>  <NsssSiH>
0

>  <NssssSi>
0

>  <NsPH2>
0

>  <NssPH>
0

>  <NsssP>
0

>  <NdsssP>
0

>  <NsssssP>
0

>  <NsSH>
0

>  <NdS>
0

>  <NssS>
0

>  <NaaS>
0

>  <NdssS>
0

>  <NddssS>
1

>  <NsCl>
0

>  <NsBr>
0

>  <NsI>
0

>  <fragCpx>
233.1

>  <fMF>
0.37

>  <nHBAcc>
6

>  <nHBDon>
3

>  <Kier1>
25.1

>  <Kier2>
10.73

>  <Lipinski>
1

>  <GhoseFilter>
1

>  <FilterItLogS>
-5.21

>  <VMcGowan>
336.84

>  <LabuteASA>
187.42

>  <PEOE_VSA1>
20.1

>  <PEOE_VSA2>
9.52

>  <PEOE_VSA3>
13.4

>  <PEOE_VSA4>
0

>  <PEOE_VSA5>
0

>  <PEOE_VSA6>
0

>  <PEOE_VSA7>
50.25

>  <PEOE_VSA8>
55.01

>  <PEOE_VSA9>
11.94

>  <PEOE_VSA10>
5.69

>  <PEOE_VSA11>
5.82

>  <PEOE_VSA12>
10.02

>  <PEOE_VSA13>
5.91

>  <SMR_VSA1>
13.21

>  <SMR_VSA2>
0

>  <SMR_VSA3>
14.87

>  <SMR_VSA4>
0

>  <SMR_VSA5>
19.89

>  <SMR_VSA6>
47.37

>  <SMR_VSA7>
48.29

>  <SMR_VSA8>
0

>  <SMR_VSA9>
0

>  <SlogP_VSA1>
14.94

>  <SlogP_VSA2>
67.67

>  <SlogP_VSA3>
10.02

>  <SlogP_VSA4>
0

>  <SlogP_VSA5>
24.34

>  <SlogP_VSA6>
42.6

>  <SlogP_VSA7>
0

>  <SlogP_VSA8>
10.9

>  <SlogP_VSA9>
0

>  <SlogP_VSA10>
17.19

>  <SlogP_VSA11>
0

>  <EState_VSA1>
10.02

>  <EState_VSA2>
5.91

>  <EState_VSA3>
43.6

>  <EState_VSA4>
28.66

>  <EState_VSA5>
0

>  <EState_VSA6>
30.46

>  <EState_VSA7>
17.03

>  <EState_VSA8>
38.75

>  <EState_VSA9>
0

>  <EState_VSA10>
13.21

>  <VSA_EState1>
25.39

>  <VSA_EState2>
24.8

>  <VSA_EState3>
4.21

>  <VSA_EState4>
2.73

>  <VSA_EState5>
0.84

>  <VSA_EState6>
11.16

>  <VSA_EState7>
2.89

>  <VSA_EState8>
6.75

>  <VSA_EState9>
-3.36

>  <apol>
67.32

>  <bpol>
41.88

>  <nRing>
4

>  <nHRing>
3

>  <naRing>
3

>  <naHRing>
2

>  <nARing 2>
1

>  <nAHRing 2>
1

>  <nFRing>
1

>  <nFHRing>
1

>  <nFaRing>
1

>  <nFaHRing>
1

>  <nFARing 2>
0

>  <nFAHRing 2>
0

>  <nRot>
6

>  <SLogP>
2.72

>  <SMR>
127.88

>  <TopoPSA(NO)>
110.43

>  <TopoPSA>
118.81

>  <JGI1>
0.24

>  <JGI2>
0.07

>  <JGI3>
0.06

>  <JGI4>
0.04

>  <JGI5>
0.03

>  <Diameter>
17

>  <Radius>
9

>  <TMWC10>
144.89

>  <TSRW10>
82.13

>  <MW>
456.19

>  <AMW>
7.6

>  <WPath>
3349

>  <WPol>
49

>  <Zagreb1>
172

>  <Zagreb2>
200

>  <mZagreb2>
6.76

>  <yes>


>  <nAR-cont>
0.816016

>  <nHA-cont>
0.658856097

>  <MWHBN>
0.421375838

>  <MWHBN-cont>
0.39265991

>  <TPSA-cont>
0.170632423

>  <pka_cont>
0.97

>  <yes.1>


>  <BBB_SCORE>
2.890126809

>  <MMFF94 Energy>
15.26

$$$$
Compound 935
Actelion Java MolfileCreator 2.0

  0  0  0  0  0  0              0 V3000
M  V30 BEGIN CTAB
M  V30 COUNTS 48 49 0 0 0
M  V30 BEGIN ATOM
M  V30 1 O 0.4696 -1.096 -0.0782 0
M  V30 2 C -0.0188 -0.1794 -1.0768 0
M  V30 3 C 0.7775 -0.4644 1.1661 0
M  V30 4 C -0.0896 -0.9637 -2.3953 0
M  V30 5 C -1.4018 0.3971 -0.7179 0
M  V30 6 N 1.6722 -1.3168 1.9276 0
M  V30 7 O -0.4706 -0.0993 -3.464 0
M  V30 8 O -1.2542 1.3474 0.3462 0
M  V30 9 C 2.0102 -1.1136 3.2372 0
M  V30 10 C 2.3446 -2.4288 1.4985 0
M  V30 11 C -0.5761 -0.7637 -4.727 0
M  V30 12 C -2.4954 1.9005 0.7954 0
M  V30 13 N 1.5916 -0.1342 4.0545 0
M  V30 14 C 2.8856 -2.1419 3.5403 0
M  V30 15 N 3.0881 -2.9552 2.452 0
M  V30 16 C -1.455 0.1091 -5.6159 0
M  V30 17 C 0.8005 -0.9434 -5.3582 0
M  V30 18 C -2.2533 2.4488 2.1973 0
M  V30 19 C -2.9577 3.0154 -0.1365 0
M  V30 20 C 2.1253 -0.2387 5.2821 0
M  V30 21 C 3.3759 -2.1532 4.8381 0
M  V30 22 N 2.9829 -1.1854 5.7077 0
M  V30 23 N 1.7663 0.7093 6.1952 0
M  V30 24 H 0.7018 0.6409 -1.1883 0
M  V30 25 H -0.1337 -0.3468 1.7596 0
M  V30 26 H 1.2962 0.4888 1.019 0
M  V30 27 H 0.8902 -1.4098 -2.5984 0
M  V30 28 H -0.8111 -1.7851 -2.3028 0
M  V30 29 H -1.8442 0.9009 -1.5818 0
M  V30 30 H -2.065 -0.4087 -0.383 0
M  V30 31 H 2.2567 -2.81 0.4888 0
M  V30 32 H -1.066 -1.7366 -4.5996 0
M  V30 33 H -3.2576 1.1142 0.8553 0
M  V30 34 H -1.5959 -0.3412 -6.6031 0
M  V30 35 H -2.4385 0.2526 -5.155 0
M  V30 36 H -1.0192 1.1065 -5.7428 0
M  V30 37 H 0.7216 -1.357 -6.3685 0
M  V30 38 H 1.4216 -1.6219 -4.7656 0
M  V30 39 H 1.3353 0.0113 -5.4088 0
M  V30 40 H -3.1655 2.8807 2.6201 0
M  V30 41 H -1.9047 1.6514 2.8628 0
M  V30 42 H -1.4709 3.216 2.1904 0
M  V30 43 H -3.8498 3.5144 0.255 0
M  V30 44 H -3.2004 2.6251 -1.1295 0
M  V30 45 H -2.1682 3.7622 -0.2749 0
M  V30 46 H 4.0664 -2.9011 5.2036 0
M  V30 47 H 2.1646 0.6436 7.1153 0
M  V30 48 H 1.134 1.4339 5.9074 0
M  V30 END ATOM
M  V30 BEGIN BOND
M  V30 1 1 1 2
M  V30 2 1 1 3
M  V30 3 1 2 4
M  V30 4 1 2 5
M  V30 5 1 3 6
M  V30 6 1 4 7
M  V30 7 1 5 8
M  V30 8 1 6 9
M  V30 9 1 6 10
M  V30 10 1 7 11
M  V30 11 1 8 12
M  V30 12 2 9 13
M  V30 13 1 9 14
M  V30 14 2 10 15
M  V30 15 1 11 16
M  V30 16 1 11 17
M  V30 17 1 12 18
M  V30 18 1 12 19
M  V30 19 1 13 20
M  V30 20 2 14 21
M  V30 21 2 20 22
M  V30 22 1 20 23
M  V30 23 1 14 15
M  V30 24 1 21 22
M  V30 25 1 2 24
M  V30 26 1 3 25
M  V30 27 1 3 26
M  V30 28 1 4 27
M  V30 29 1 4 28
M  V30 30 1 5 29
M  V30 31 1 5 30
M  V30 32 1 10 31
M  V30 33 1 11 32
M  V30 34 1 12 33
M  V30 35 1 16 34
M  V30 36 1 16 35
M  V30 37 1 16 36
M  V30 38 1 17 37
M  V30 39 1 17 38
M  V30 40 1 17 39
M  V30 41 1 18 40
M  V30 42 1 18 41
M  V30 43 1 18 42
M  V30 44 1 19 43
M  V30 45 1 19 44
M  V30 46 1 19 45
M  V30 47 1 21 46
M  V30 48 1 23 47
M  V30 49 1 23 48
M  V30 END BOND
M  V30 END CTAB
M  END
>  <Column 1>
1119

>  <level_0>
1259

>  <index>
1259

>  <Unnamed: 0>
1259

>  <NO.>
1271

>  <Name>
rociclovir

>  <IUPAC_name>
9-[1-3-di(propan-2-yloxy)propan-2-yloxymethyl]purin-2-amine

>  <SMILES>
CC(C)OCC(COC(C)C)OCn1cnc2cnc(N)nc21

>  <CID>
65905

>  <logBB>


>  <BBB+/BBB->
BBB+

>  <Inchi>
InChI=1S/C15H25N5O3/c1-10(2)21-6-12(7-22-11(3)4)23-9-20-8-18-13-5-17-15(16)19-14(13)20/h5-8-10-12H-6-7-9H2-1-4H3-(H2-16-17-19)

>  <threshold>
-1

>  <reference>
R1|R13|R19|R6|R27|R27|R27|R30|R30|

>  <group>
B

>  <Class>
1

>  <ABC>
17.44

>  <ABCGG>
14.82

>  <nAcid>
0

>  <nBase>
0

>  <nAromAtom>
9

>  <nAromBond>
10

>  <nAtom>
48

>  <nHeavyAtom>
23

>  <nSpiro>
0

>  <nBridgehead>
0

>  <nHetero>
8

>  <nN>
5

>  <nO>
3

>  <nF>
0

>  <BalabanJ>
1.79

>  <BertzCT>
602.18

>  <nBonds>
49

>  <nBondsO>
24

>  <nBondsS>
39

>  <nBondsD>
0

>  <nBondsT>
0

>  <nBondsA>
10

>  <nBondsM>
10

>  <nBondsKS>
45

>  <nBondsKD>
4

>  <RNCG>
0.15

>  <RPCG>
0.09

>  <FCSP3>
0.67

>  <SZ>
29

>  <Sm>
26.93

>  <Sv>
27.71

>  <Sse>
48.41

>  <Sp>
29.72

>  <Si>
55.27

>  <MZ>
0.6

>  <Mm>
0.56

>  <Mv>
0.58

>  <Mse>
1.01

>  <Mp>
0.62

>  <Mi>
1.15

>  <NsCH3>
4

>  <NdCH2>
0

>  <NssCH2>
3

>  <NtCH>
0

>  <NdsCH>
0

>  <NaaCH>
2

>  <NsssCH>
3

>  <NddC>
0

>  <NtsC>
0

>  <NdssC>
0

>  <NaasC>
1

>  <NaaaC>
2

>  <NssssC>
0

>  <NsNH3>
0

>  <NsNH2>
1

>  <NssNH2>
0

>  <NdNH>
0

>  <NssNH>
0

>  <NaaNH>
0

>  <NtN>
0

>  <NsssNH>
0

>  <NdsN>
0

>  <NaaN>
3

>  <NsssN>
0

>  <NddsN>
0

>  <NaasN>
1

>  <NssssN>
0

>  <NsOH>
0

>  <NdO>
0

>  <NssO>
3

>  <NaaO>
0

>  <NsF>
0

>  <NsSiH3>
0

>  <NssSiH2>
0

>  <NsssSiH>
0

>  <NssssSi>
0

>  <NsPH2>
0

>  <NssPH>
0

>  <NsssP>
0

>  <NdsssP>
0

>  <NsssssP>
0

>  <NsSH>
0

>  <NdS>
0

>  <NssS>
0

>  <NaaS>
0

>  <NdssS>
0

>  <NddssS>
0

>  <NsCl>
0

>  <NsBr>
0

>  <NsI>
0

>  <fragCpx>
70.08

>  <fMF>
0.19

>  <nHBAcc>
8

>  <nHBDon>
1

>  <Kier1>
19.33

>  <Kier2>
9.47

>  <Lipinski>
1

>  <GhoseFilter>
1

>  <FilterItLogS>
-2.79

>  <VMcGowan>
250.8

>  <LabuteASA>
135.52

>  <PEOE_VSA1>
19.94

>  <PEOE_VSA2>
4.57

>  <PEOE_VSA3>
9.97

>  <PEOE_VSA4>
4.98

>  <PEOE_VSA5>
0

>  <PEOE_VSA6>
0

>  <PEOE_VSA7>
27.69

>  <PEOE_VSA8>
0

>  <PEOE_VSA9>
37.95

>  <PEOE_VSA10>
18.35

>  <PEOE_VSA11>
5.65

>  <PEOE_VSA12>
5.95

>  <PEOE_VSA13>
0

>  <SMR_VSA1>
14.21

>  <SMR_VSA2>
0

>  <SMR_VSA3>
19.52

>  <SMR_VSA4>
0

>  <SMR_VSA5>
52.74

>  <SMR_VSA6>
18.95

>  <SMR_VSA7>
12.52

>  <SMR_VSA8>
0

>  <SMR_VSA9>
0

>  <SlogP_VSA1>
5.73

>  <SlogP_VSA2>
51.04

>  <SlogP_VSA3>
20.94

>  <SlogP_VSA4>
0

>  <SlogP_VSA5>
27.69

>  <SlogP_VSA6>
12.52

>  <SlogP_VSA7>
0

>  <SlogP_VSA8>
11.16

>  <SlogP_VSA9>
0

>  <SlogP_VSA10>
5.95

>  <SlogP_VSA11>
0

>  <EState_VSA1>
0

>  <EState_VSA2>
24.26

>  <EState_VSA3>
31.11

>  <EState_VSA4>
0

>  <EState_VSA5>
0

>  <EState_VSA6>
17.09

>  <EState_VSA7>
27.69

>  <EState_VSA8>
14.95

>  <EState_VSA9>
19.94

>  <EState_VSA10>
0

>  <VSA_EState1>
18.96

>  <VSA_EState2>
12.34

>  <VSA_EState3>
0

>  <VSA_EState4>
6.95

>  <VSA_EState5>
0.21

>  <VSA_EState6>
0

>  <VSA_EState7>
3.36

>  <VSA_EState8>
9.18

>  <VSA_EState9>
0

>  <apol>
49.63

>  <bpol>
34.85

>  <nRing>
2

>  <nHRing>
2

>  <naRing>
2

>  <naHRing>
2

>  <nARing 2>
0

>  <nAHRing 2>
0

>  <nFRing>
1

>  <nFHRing>
1

>  <nFaRing>
1

>  <nFaHRing>
1

>  <nFARing 2>
0

>  <nFAHRing 2>
0

>  <nRot>
9

>  <SLogP>
1.6

>  <SMR>
86.78

>  <TopoPSA(NO)>
97.31

>  <TopoPSA>
97.31

>  <JGI1>
0.23

>  <JGI2>
0.08

>  <JGI3>
0.03

>  <JGI4>
0.04

>  <JGI5>
0.02

>  <Diameter>
11

>  <Radius>
6

>  <TMWC10>
119.7

>  <TSRW10>
70.52

>  <MW>
323.2

>  <AMW>
6.73

>  <WPath>
1328

>  <WPol>
29

>  <Zagreb1>
112

>  <Zagreb2>
125

>  <mZagreb2>
5.14

>  <yes>


>  <nAR-cont>
0.336376

>  <nHA-cont>
0.967789328

>  <MWHBN>
0.500618429

>  <MWHBN-cont>
0

>  <TPSA-cont>
0.320715774

>  <pka_cont>
0.97

>  <yes.1>


>  <BBB_SCORE>
2.430596876

>  <MMFF94 Energy>
-7.8074

$$$$
Compound 936
Actelion Java MolfileCreator 2.0

  0  0  0  0  0  0              0 V3000
M  V30 BEGIN CTAB
M  V30 COUNTS 66 69 0 0 0
M  V30 BEGIN ATOM
M  V30 1 O 1.1097 -4.2855 3.173 0
M  V30 2 C 1.758 -3.9178 2.1956 0
M  V30 3 N 3.1196 -3.6279 2.236 0
M  V30 4 C 1.0296 -3.7807 0.9165 0
M  V30 5 C 3.9801 -3.4099 1.0714 0
M  V30 6 C 3.7904 -3.5748 3.532 0
M  V30 7 C 0.9739 -2.5466 0.2589 0
M  V30 8 C 0.3376 -4.8837 0.4115 0
M  V30 9 C 5.1708 -4.3682 1.0852 0
M  V30 10 C 4.9629 -4.5492 3.5843 0
M  V30 11 C 0.2457 -2.4137 -0.9337 0
M  V30 12 C -0.3793 -4.7622 -0.7776 0
M  V30 13 C 5.9187 -4.3173 2.4158 0
M  V30 14 C -0.4192 -3.5372 -1.4495 0
M  V30 15 C 0.1976 -1.0879 -1.6655 0
M  V30 16 N -0.175 0.042 -0.8003 0
M  V30 17 C 0.0265 1.3221 -1.5205 0
M  V30 18 C -1.5952 -0.0428 -0.3787 0
M  V30 19 C -0.3843 2.562 -0.6938 0
M  V30 20 C -2.0331 1.1548 0.4955 0
M  V30 21 N -1.7639 2.4243 -0.1929 0
M  V30 22 C -2.3829 3.6015 0.2291 0
M  V30 23 C -2.6416 4.668 -0.6596 0
M  V30 24 C -2.7742 3.7895 1.5652 0
M  V30 25 O -2.3398 4.5569 -1.9989 0
M  V30 26 C -3.198 5.8769 -0.2241 0
M  V30 27 C -3.3558 4.9866 2.002 0
M  V30 28 C -3.4877 4.1259 -2.7506 0
M  V30 29 C -3.5598 6.0335 1.1093 0
M  V30 30 C -3.8133 5.2118 -3.7723 0
M  V30 31 C -3.1381 2.8232 -3.4621 0
M  V30 32 H 4.3246 -2.3701 1.1095 0
M  V30 33 H 3.4379 -3.5499 0.1342 0
M  V30 34 H 4.1459 -2.5465 3.6699 0
M  V30 35 H 3.0954 -3.788 4.3503 0
M  V30 36 H 1.4801 -1.6822 0.6838 0
M  V30 37 H 0.3548 -5.8296 0.9473 0
M  V30 38 H 5.8535 -4.125 0.2637 0
M  V30 39 H 4.8125 -5.3916 0.9163 0
M  V30 40 H 5.4995 -4.4372 4.5327 0
M  V30 41 H 4.5851 -5.5784 3.5429 0
M  V30 42 H -0.9151 -5.6195 -1.1771 0
M  V30 43 H 6.4041 -3.34 2.5265 0
M  V30 44 H 6.7106 -5.0743 2.4269 0
M  V30 45 H -0.9874 -3.4622 -2.3745 0
M  V30 46 H -0.4787 -1.1523 -2.5282 0
M  V30 47 H 1.2052 -0.9263 -2.0715 0
M  V30 48 H 1.0863 1.4281 -1.7821 0
M  V30 49 H -0.5415 1.3186 -2.4601 0
M  V30 50 H -2.2479 -0.0949 -1.2608 0
M  V30 51 H -1.7632 -0.9545 0.2057 0
M  V30 52 H -0.2529 3.4466 -1.3253 0
M  V30 53 H 0.2966 2.6734 0.1601 0
M  V30 54 H -1.4944 1.122 1.451 0
M  V30 55 H -3.1054 1.0518 0.7025 0
M  V30 56 H -2.6026 3.0119 2.3038 0
M  V30 57 H -3.3526 6.6888 -0.9277 0
M  V30 58 H -3.634 5.1007 3.0466 0
M  V30 59 H -4.3692 3.9569 -2.1162 0
M  V30 60 H -3.998 6.9671 1.4508 0
M  V30 61 H -4.6593 4.9227 -4.4034 0
M  V30 62 H -4.0636 6.1519 -3.2701 0
M  V30 63 H -2.95 5.4186 -4.4144 0
M  V30 64 H -3.9479 2.5016 -4.1242 0
M  V30 65 H -2.9581 2.0256 -2.7355 0
M  V30 66 H -2.2206 2.9291 -4.0511 0
M  V30 END ATOM
M  V30 BEGIN BOND
M  V30 1 2 1 2
M  V30 2 1 2 3
M  V30 3 1 2 4
M  V30 4 1 3 5
M  V30 5 1 3 6
M  V30 6 2 4 7
M  V30 7 1 4 8
M  V30 8 1 5 9
M  V30 9 1 6 10
M  V30 10 1 7 11
M  V30 11 2 8 12
M  V30 12 1 9 13
M  V30 13 2 11 14
M  V30 14 1 11 15
M  V30 15 1 15 16
M  V30 16 1 16 17
M  V30 17 1 16 18
M  V30 18 1 17 19
M  V30 19 1 18 20
M  V30 20 1 19 21
M  V30 21 1 21 22
M  V30 22 2 22 23
M  V30 23 1 22 24
M  V30 24 1 23 25
M  V30 25 1 23 26
M  V30 26 2 24 27
M  V30 27 1 25 28
M  V30 28 2 26 29
M  V30 29 1 28 30
M  V30 30 1 28 31
M  V30 31 1 10 13
M  V30 32 1 12 14
M  V30 33 1 20 21
M  V30 34 1 27 29
M  V30 35 1 5 32
M  V30 36 1 5 33
M  V30 37 1 6 34
M  V30 38 1 6 35
M  V30 39 1 7 36
M  V30 40 1 8 37
M  V30 41 1 9 38
M  V30 42 1 9 39
M  V30 43 1 10 40
M  V30 44 1 10 41
M  V30 45 1 12 42
M  V30 46 1 13 43
M  V30 47 1 13 44
M  V30 48 1 14 45
M  V30 49 1 15 46
M  V30 50 1 15 47
M  V30 51 1 17 48
M  V30 52 1 17 49
M  V30 53 1 18 50
M  V30 54 1 18 51
M  V30 55 1 19 52
M  V30 56 1 19 53
M  V30 57 1 20 54
M  V30 58 1 20 55
M  V30 59 1 24 56
M  V30 60 1 26 57
M  V30 61 1 27 58
M  V30 62 1 28 59
M  V30 63 1 29 60
M  V30 64 1 30 61
M  V30 65 1 30 62
M  V30 66 1 30 63
M  V30 67 1 31 64
M  V30 68 1 31 65
M  V30 69 1 31 66
M  V30 END BOND
M  V30 END CTAB
M  END
>  <Column 1>
1120

>  <level_0>
1260

>  <index>
1260

>  <Unnamed: 0>
1260

>  <NO.>
1272

>  <Name>
mazapertine succinate

>  <IUPAC_name>
butanedioic acid;piperidin-1-yl-[3-[[4-(2-propan-2-yloxyphenyl)piperazin-1-yl]methyl]phenyl]methanone

>  <SMILES>
CC(C)Oc1ccccc1N1CCN(Cc2cccc(C(=O)N3CCCCC3)c2)CC1

>  <CID>
60820

>  <logBB>


>  <BBB+/BBB->
BBB+

>  <Inchi>
InChI=1S/C26H35N3O2/c1-21(2)31-25-12-5-4-11-24(25)28-17-15-27(16-18-28)20-22-9-8-10-23(19-22)26(30)29-13-6-3-7-14-29/h4-5-8-12-19-21H-3-6-7-13-18-20H2-1-2H3

>  <threshold>
-1

>  <reference>
R1|R13|R19|R6|R24|R27|R27|R27|R30|R30|

>  <group>
B

>  <Class>
1

>  <ABC>
24.21

>  <ABCGG>
17.41

>  <nAcid>
0

>  <nBase>
1

>  <nAromAtom>
12

>  <nAromBond>
12

>  <nAtom>
66

>  <nHeavyAtom>
31

>  <nSpiro>
0

>  <nBridgehead>
0

>  <nHetero>
5

>  <nN>
3

>  <nO>
2

>  <nF>
0

>  <BalabanJ>
1.22

>  <BertzCT>
868.46

>  <nBonds>
69

>  <nBondsO>
34

>  <nBondsS>
56

>  <nBondsD>
1

>  <nBondsT>
0

>  <nBondsA>
12

>  <nBondsM>
13

>  <nBondsKS>
62

>  <nBondsKD>
7

>  <RNCG>
0.21

>  <RPCG>
0.11

>  <FCSP3>
0.5

>  <SZ>
38

>  <Sm>
35.1

>  <Sv>
39.19

>  <Sse>
65.19

>  <Sp>
42.91

>  <Si>
74.56

>  <MZ>
0.58

>  <Mm>
0.53

>  <Mv>
0.59

>  <Mse>
0.99

>  <Mp>
0.65

>  <Mi>
1.13

>  <NsCH3>
2

>  <NdCH2>
0

>  <NssCH2>
10

>  <NtCH>
0

>  <NdsCH>
0

>  <NaaCH>
8

>  <NsssCH>
1

>  <NddC>
0

>  <NtsC>
0

>  <NdssC>
1

>  <NaasC>
4

>  <NaaaC>
0

>  <NssssC>
0

>  <NsNH3>
0

>  <NsNH2>
0

>  <NssNH2>
0

>  <NdNH>
0

>  <NssNH>
0

>  <NaaNH>
0

>  <NtN>
0

>  <NsssNH>
0

>  <NdsN>
0

>  <NaaN>
0

>  <NsssN>
3

>  <NddsN>
0

>  <NaasN>
0

>  <NssssN>
0

>  <NsOH>
0

>  <NdO>
1

>  <NssO>
1

>  <NaaO>
0

>  <NsF>
0

>  <NsSiH3>
0

>  <NssSiH2>
0

>  <NsssSiH>
0

>  <NssssSi>
0

>  <NsPH2>
0

>  <NssPH>
0

>  <NsssP>
0

>  <NdsssP>
0

>  <NsssssP>
0

>  <NsSH>
0

>  <NdS>
0

>  <NssS>
0

>  <NaaS>
0

>  <NdssS>
0

>  <NddssS>
0

>  <NsCl>
0

>  <NsBr>
0

>  <NsI>
0

>  <fragCpx>
226.05

>  <fMF>
0.39

>  <nHBAcc>
4

>  <nHBDon>
0

>  <Kier1>
24.13

>  <Kier2>
11.92

>  <Lipinski>
1

>  <GhoseFilter>
1

>  <FilterItLogS>
-5.03

>  <VMcGowan>
345.34

>  <LabuteASA>
186.14

>  <PEOE_VSA1>
14.54

>  <PEOE_VSA2>
9.69

>  <PEOE_VSA3>
0

>  <PEOE_VSA4>
0

>  <PEOE_VSA5>
0

>  <PEOE_VSA6>
24.27

>  <PEOE_VSA7>
62.94

>  <PEOE_VSA8>
51.38

>  <PEOE_VSA9>
11.79

>  <PEOE_VSA10>
5.75

>  <PEOE_VSA11>
0

>  <PEOE_VSA12>
0

>  <PEOE_VSA13>
5.91

>  <SMR_VSA1>
9.53

>  <SMR_VSA2>
0

>  <SMR_VSA3>
9.8

>  <SMR_VSA4>
0

>  <SMR_VSA5>
45.76

>  <SMR_VSA6>
44.17

>  <SMR_VSA7>
59.66

>  <SMR_VSA8>
0

>  <SMR_VSA9>
5.75

>  <SlogP_VSA1>
9.64

>  <SlogP_VSA2>
61.08

>  <SlogP_VSA3>
6.54

>  <SlogP_VSA4>
0

>  <SlogP_VSA5>
49.03

>  <SlogP_VSA6>
48.53

>  <SlogP_VSA7>
0

>  <SlogP_VSA8>
0

>  <SlogP_VSA9>
0

>  <SlogP_VSA10>
5.69

>  <SlogP_VSA11>
5.75

>  <EState_VSA1>
0

>  <EState_VSA2>
12.01

>  <EState_VSA3>
0

>  <EState_VSA4>
69.97

>  <EState_VSA5>
17.67

>  <EState_VSA6>
0

>  <EState_VSA7>
23.1

>  <EState_VSA8>
53.98

>  <EState_VSA9>
4.74

>  <EState_VSA10>
4.79

>  <VSA_EState1>
6.02

>  <VSA_EState2>
19.76

>  <VSA_EState3>
0

>  <VSA_EState4>
3.24

>  <VSA_EState5>
1.16

>  <VSA_EState6>
16.57

>  <VSA_EState7>
3.66

>  <VSA_EState8>
10.77

>  <VSA_EState9>
0

>  <apol>
71.66

>  <bpol>
42.85

>  <nRing>
4

>  <nHRing>
2

>  <naRing>
2

>  <naHRing>
0

>  <nARing 2>
2

>  <nAHRing 2>
2

>  <nFRing>
0

>  <nFHRing>
0

>  <nFaRing>
0

>  <nFaHRing>
0

>  <nFARing 2>
0

>  <nFAHRing 2>
0

>  <nRot>
6

>  <SLogP>
4.42

>  <SMR>
125.89

>  <TopoPSA(NO)>
36.02

>  <TopoPSA>
36.02

>  <JGI1>
0.16

>  <JGI2>
0.06

>  <JGI3>
0.04

>  <JGI4>
0.03

>  <JGI5>
0.02

>  <Diameter>
17

>  <Radius>
9

>  <TMWC10>
141.51

>  <TSRW10>
66.65

>  <MW>
421.27

>  <AMW>
6.38

>  <WPath>
3118

>  <WPol>
47

>  <Zagreb1>
160

>  <Zagreb2>
185

>  <mZagreb2>
6.86

>  <yes>


>  <nAR-cont>
1

>  <nHA-cont>
0.702745138

>  <MWHBN>
0.194885589

>  <MWHBN-cont>
0.998132341

>  <TPSA-cont>
0.748558033

>  <pka_cont>
0.97

>  <yes.1>


>  <BBB_SCORE>
5.182059715

>  <MMFF94 Energy>
140.11

$$$$
Compound 937
Actelion Java MolfileCreator 2.0

  0  0  0  0  0  0              0 V3000
M  V30 BEGIN CTAB
M  V30 COUNTS 49 50 0 0 0
M  V30 BEGIN ATOM
M  V30 1 Cl 4.5741 -2.0042 -5.0565 0
M  V30 2 C 3.1119 -2.0351 -4.1348 0
M  V30 3 C 1.8775 -2.3741 -4.6987 0
M  V30 4 C 3.1927 -1.7085 -2.7761 0
M  V30 5 Cl 1.7025 -2.7919 -6.3664 0
M  V30 6 C 0.7291 -2.3828 -3.9028 0
M  V30 7 C 2.0446 -1.7208 -1.9714 0
M  V30 8 C 0.8114 -2.0575 -2.5474 0
M  V30 9 C 2.1219 -1.3618 -0.5031 0
M  V30 10 C 1.5052 -0.0034 -0.1769 0
M  V30 11 O 1.4727 0.8958 -1.0193 0
M  V30 12 N 0.9853 0.1631 1.1071 0
M  V30 13 C 0.0646 1.2976 1.3821 0 CFG=1
M  V30 14 C 1.1819 -0.7964 2.1834 0
M  V30 15 C 0.7969 2.6747 1.3697 0
M  V30 16 C -1.1859 1.2617 0.4419 0
M  V30 17 C -0.1325 3.8279 1.767 0
M  V30 18 C 2.0076 2.6731 2.3131 0
M  V30 19 N -1.8653 -0.0493 0.4098 0
M  V30 20 C -2.847 -0.1228 -0.6742 0
M  V30 21 C -2.6305 -0.3339 1.6244 0
M  V30 22 C -3.6615 -1.3547 -0.3119 0
M  V30 23 C -3.5241 -1.4903 1.2007 0
M  V30 24 H 4.1538 -1.4344 -2.3463 0
M  V30 25 H -0.2365 -2.6361 -4.3329 0
M  V30 26 H -0.0953 -2.0532 -1.9434 0
M  V30 27 H 1.6103 -2.16 0.0457 0
M  V30 28 H 3.1644 -1.3469 -0.1647 0
M  V30 29 H -0.3117 1.1531 2.4045 0
M  V30 30 H 2.104 -1.3654 2.0465 0
M  V30 31 H 1.2541 -0.269 3.1391 0
M  V30 32 H 0.3312 -1.4824 2.2034 0
M  V30 33 H 1.1667 2.89 0.3611 0
M  V30 34 H -1.9028 2.0359 0.7398 0
M  V30 35 H -0.8675 1.5178 -0.5753 0
M  V30 36 H -0.6128 3.6365 2.7324 0
M  V30 37 H 0.4244 4.7678 1.8482 0
M  V30 38 H -0.9138 3.9876 1.0182 0
M  V30 39 H 2.7576 1.94 2.0004 0
M  V30 40 H 2.498 3.6526 2.3184 0
M  V30 41 H 1.7083 2.4406 3.3407 0
M  V30 42 H -2.3719 -0.2294 -1.6544 0
M  V30 43 H -3.4971 0.7613 -0.6934 0
M  V30 44 H -1.9943 -0.6139 2.4688 0
M  V30 45 H -3.2503 0.5206 1.9245 0
M  V30 46 H -3.2558 -2.2473 -0.8024 0
M  V30 47 H -4.7074 -1.2495 -0.6171 0
M  V30 48 H -3.0589 -2.4522 1.4459 0
M  V30 49 H -4.4967 -1.45 1.7014 0
M  V30 END ATOM
M  V30 BEGIN BOND
M  V30 1 1 1 2
M  V30 2 2 2 3
M  V30 3 1 2 4
M  V30 4 1 3 5
M  V30 5 1 3 6
M  V30 6 2 4 7
M  V30 7 2 6 8
M  V30 8 1 7 9
M  V30 9 1 9 10
M  V30 10 2 10 11
M  V30 11 1 10 12
M  V30 12 1 12 13
M  V30 13 1 12 14
M  V30 14 1 13 15
M  V30 15 1 13 16
M  V30 16 1 15 17
M  V30 17 1 15 18
M  V30 18 1 16 19
M  V30 19 1 19 20
M  V30 20 1 19 21
M  V30 21 1 20 22
M  V30 22 1 21 23
M  V30 23 1 7 8
M  V30 24 1 22 23
M  V30 25 1 4 24
M  V30 26 1 6 25
M  V30 27 1 8 26
M  V30 28 1 9 27
M  V30 29 1 9 28
M  V30 30 1 13 29
M  V30 31 1 14 30
M  V30 32 1 14 31
M  V30 33 1 14 32
M  V30 34 1 15 33
M  V30 35 1 16 34
M  V30 36 1 16 35
M  V30 37 1 17 36
M  V30 38 1 17 37
M  V30 39 1 17 38
M  V30 40 1 18 39
M  V30 41 1 18 40
M  V30 42 1 18 41
M  V30 43 1 20 42
M  V30 44 1 20 43
M  V30 45 1 21 44
M  V30 46 1 21 45
M  V30 47 1 22 46
M  V30 48 1 22 47
M  V30 49 1 23 48
M  V30 50 1 23 49
M  V30 END BOND
M  V30 BEGIN COLLECTION
M  V30 MDLV30/STEABS ATOMS=(1 13)
M  V30 END COLLECTION
M  V30 END CTAB
M  END
>  <Column 1>
1121

>  <level_0>
1261

>  <index>
1261

>  <Unnamed: 0>
1261

>  <NO.>
1273

>  <Name>
chembl56653

>  <IUPAC_name>
2-(3-4-dichlorophenyl)-n-methyl-n-[(2s)-3-methyl-1-pyrrolidin-1-ylbutan-2-yl]acetamide

>  <SMILES>
CC(C)[C@@H](CN1CCCC1)N(C)C(=O)Cc1ccc(Cl)c(Cl)c1

>  <CID>
3081078

>  <logBB>


>  <BBB+/BBB->
BBB+

>  <Inchi>
InChI=1S/C18H26Cl2N2O/c1-13(2)17(12-22-8-4-5-9-22)21(3)18(23)11-14-6-7-15(19)16(20)10-14/h6-7-10-13-17H-4-5-8-9-11-12H2-1-3H3/t17-/m1/s1

>  <threshold>
-1

>  <reference>
R1|R13|R27|R30|

>  <group>
B

>  <Class>
1

>  <ABC>
17.47

>  <ABCGG>
15.54

>  <nAcid>
0

>  <nBase>
1

>  <nAromAtom>
6

>  <nAromBond>
6

>  <nAtom>
49

>  <nHeavyAtom>
23

>  <nSpiro>
0

>  <nBridgehead>
0

>  <nHetero>
5

>  <nN>
2

>  <nO>
1

>  <nF>
0

>  <BalabanJ>
1.86

>  <BertzCT>
541.82

>  <nBonds>
50

>  <nBondsO>
24

>  <nBondsS>
43

>  <nBondsD>
1

>  <nBondsT>
0

>  <nBondsA>
6

>  <nBondsM>
7

>  <nBondsKS>
46

>  <nBondsKD>
4

>  <RNCG>
0.23

>  <RPCG>
0.15

>  <FCSP3>
0.61

>  <SZ>
31.67

>  <Sm>
29.75

>  <Sv>
29.46

>  <Sse>
48.73

>  <Sp>
32.79

>  <Si>
55.49

>  <MZ>
0.65

>  <Mm>
0.61

>  <Mv>
0.6

>  <Mse>
0.99

>  <Mp>
0.67

>  <Mi>
1.13

>  <NsCH3>
3

>  <NdCH2>
0

>  <NssCH2>
6

>  <NtCH>
0

>  <NdsCH>
0

>  <NaaCH>
3

>  <NsssCH>
2

>  <NddC>
0

>  <NtsC>
0

>  <NdssC>
1

>  <NaasC>
3

>  <NaaaC>
0

>  <NssssC>
0

>  <NsNH3>
0

>  <NsNH2>
0

>  <NssNH2>
0

>  <NdNH>
0

>  <NssNH>
0

>  <NaaNH>
0

>  <NtN>
0

>  <NsssNH>
0

>  <NdsN>
0

>  <NaaN>
0

>  <NsssN>
2

>  <NddsN>
0

>  <NaasN>
0

>  <NssssN>
0

>  <NsOH>
0

>  <NdO>
1

>  <NssO>
0

>  <NaaO>
0

>  <NsF>
0

>  <NsSiH3>
0

>  <NssSiH2>
0

>  <NsssSiH>
0

>  <NssssSi>
0

>  <NsPH2>
0

>  <NssPH>
0

>  <NsssP>
0

>  <NdsssP>
0

>  <NsssssP>
0

>  <NsSH>
0

>  <NdS>
0

>  <NssS>
0

>  <NaaS>
0

>  <NdssS>
0

>  <NddssS>
0

>  <NsCl>
2

>  <NsBr>
0

>  <NsI>
0

>  <fragCpx>
70.05

>  <fMF>
0.33

>  <nHBAcc>
2

>  <nHBDon>
0

>  <Kier1>
19.33

>  <Kier2>
8.91

>  <Lipinski>
1

>  <GhoseFilter>
1

>  <FilterItLogS>
-4.93

>  <VMcGowan>
275.87

>  <LabuteASA>
149.09

>  <PEOE_VSA1>
9.8

>  <PEOE_VSA2>
4.79

>  <PEOE_VSA3>
0

>  <PEOE_VSA4>
0

>  <PEOE_VSA5>
0

>  <PEOE_VSA6>
43.12

>  <PEOE_VSA7>
49.55

>  <PEOE_VSA8>
19.63

>  <PEOE_VSA9>
16.47

>  <PEOE_VSA10>
0

>  <PEOE_VSA11>
0

>  <PEOE_VSA12>
5.91

>  <PEOE_VSA13>
0

>  <SMR_VSA1>
4.79

>  <SMR_VSA2>
0

>  <SMR_VSA3>
9.8

>  <SMR_VSA4>
5.92

>  <SMR_VSA5>
39.15

>  <SMR_VSA6>
26.68

>  <SMR_VSA7>
33.81

>  <SMR_VSA8>
0

>  <SMR_VSA9>
0

>  <SlogP_VSA1>
0

>  <SlogP_VSA2>
48.43

>  <SlogP_VSA3>
11.22

>  <SlogP_VSA4>
5.92

>  <SlogP_VSA5>
32.25

>  <SlogP_VSA6>
18.2

>  <SlogP_VSA7>
10.05

>  <SlogP_VSA8>
0

>  <SlogP_VSA9>
0

>  <SlogP_VSA10>
0

>  <SlogP_VSA11>
0

>  <EState_VSA1>
0

>  <EState_VSA2>
11.95

>  <EState_VSA3>
22.38

>  <EState_VSA4>
25.2

>  <EState_VSA5>
12.84

>  <EState_VSA6>
12.13

>  <EState_VSA7>
18.01

>  <EState_VSA8>
18.75

>  <EState_VSA9>
23.2

>  <EState_VSA10>
4.79

>  <VSA_EState1>
0

>  <VSA_EState2>
17.03

>  <VSA_EState3>
1.02

>  <VSA_EState4>
0.9

>  <VSA_EState5>
0.56

>  <VSA_EState6>
5.63

>  <VSA_EState7>
2.9

>  <VSA_EState8>
7.63

>  <VSA_EState9>
1.92

>  <apol>
54.76

>  <bpol>
31.39

>  <nRing>
2

>  <nHRing>
1

>  <naRing>
1

>  <naHRing>
0

>  <nARing 2>
1

>  <nAHRing 2>
1

>  <nFRing>
0

>  <nFHRing>
0

>  <nFaRing>
0

>  <nFaHRing>
0

>  <nFARing 2>
0

>  <nFAHRing 2>
0

>  <nRot>
6

>  <SLogP>
4.11

>  <SMR>
97.24

>  <TopoPSA(NO)>
23.55

>  <TopoPSA>
23.55

>  <JGI1>
0.23

>  <JGI2>
0.09

>  <JGI3>
0.06

>  <JGI4>
0.05

>  <JGI5>
0.03

>  <Diameter>
12

>  <Radius>
6

>  <TMWC10>
120.01

>  <TSRW10>
69.93

>  <MW>
356.14

>  <AMW>
7.27

>  <WPath>
1271

>  <WPol>
32

>  <Zagreb1>
114

>  <Zagreb2>
130

>  <mZagreb2>
5.11

>  <yes>


>  <nAR-cont>
0.816016

>  <nHA-cont>
0.967789328

>  <MWHBN>
0.105978951

>  <MWHBN-cont>
0.762855306

>  <TPSA-cont>
0.835606376

>  <pka_cont>
0.97

>  <yes.1>


>  <BBB_SCORE>
5.08430104

>  <MMFF94 Energy>
67.928

$$$$
Compound 938
Actelion Java MolfileCreator 2.0

  0  0  0  0  0  0              0 V3000
M  V30 BEGIN CTAB
M  V30 COUNTS 55 59 0 0 0
M  V30 BEGIN ATOM
M  V30 1 O 1.6876 -1.5268 -3.2969 0
M  V30 2 C 2.3466 -0.6684 -2.3528 0 CFG=1
M  V30 3 C 3.5633 0.0277 -3.0532 0
M  V30 4 C 1.3074 0.3763 -1.8894 0
M  V30 5 C 2.7988 -1.5194 -1.1545 0
M  V30 6 C 4.672 -0.9498 -3.4732 0
M  V30 7 C 3.1561 0.8423 -4.2907 0
M  V30 8 C 0.1683 -0.2311 -1.0332 0 CFG=1
M  V30 9 C 1.6215 -2.0262 -0.326 0
M  V30 10 N 0.8024 -0.8996 0.1241 0
M  V30 11 C -0.8701 0.8243 -0.6106 0
M  V30 12 C -0.2484 -1.3546 1.0386 0
M  V30 13 C -1.3599 0.9228 0.7266 0
M  V30 14 C -1.3781 1.6933 -1.5969 0
M  V30 15 C -0.9262 -0.1474 1.7402 0 CFG=1
M  V30 16 C -2.1703 2.0369 1.0708 0
M  V30 17 C -2.252 2.719 -1.2721 0
M  V30 18 C -2.0141 -0.601 2.7304 0
M  V30 19 C -2.619 2.9034 0.0511 0
M  V30 20 C -2.6323 2.4297 2.4635 0
M  V30 21 C -2.4675 0.3023 3.7128 0
M  V30 22 C -2.5658 -1.8961 2.7344 0
M  V30 23 C -2.0154 1.7366 3.6729 0
M  V30 24 C -3.4081 -0.0993 4.6768 0
M  V30 25 C -3.5049 -2.2873 3.6938 0
M  V30 26 C -3.9196 -1.3921 4.6704 0
M  V30 27 H 2.3129 -2.219 -3.5693 0
M  V30 28 H 4.0115 0.7274 -2.3345 0
M  V30 29 H 1.8064 1.1735 -1.321 0
M  V30 30 H 0.8725 0.8393 -2.7802 0
M  V30 31 H 3.3603 -2.3978 -1.4934 0
M  V30 32 H 3.4642 -0.9308 -0.5095 0
M  V30 33 H 5.0913 -1.4776 -2.6118 0
M  V30 34 H 5.5012 -0.4101 -3.9447 0
M  V30 35 H 4.3108 -1.6912 -4.1924 0
M  V30 36 H 2.6517 0.2183 -5.0356 0
M  V30 37 H 2.4915 1.6699 -4.0266 0
M  V30 38 H 4.0362 1.2867 -4.7689 0
M  V30 39 H -0.3823 -0.9693 -1.6349 0
M  V30 40 H 2.0311 -2.5607 0.5401 0
M  V30 41 H 1.0303 -2.7521 -0.8995 0
M  V30 42 H -0.9749 -1.962 0.4823 0
M  V30 43 H 0.188 -1.9988 1.8141 0
M  V30 44 H -1.095 1.5797 -2.6401 0
M  V30 45 H -0.1235 0.3102 2.3374 0
M  V30 46 H -2.6252 3.3867 -2.043 0
M  V30 47 H -3.2726 3.7392 0.2967 0
M  V30 48 H -2.4237 3.5022 2.5827 0
M  V30 49 H -3.7249 2.315 2.4966 0
M  V30 50 H -2.2824 -2.6406 1.997 0
M  V30 51 H -0.9225 1.8094 3.6761 0
M  V30 52 H -2.3464 2.2536 4.5828 0
M  V30 53 H -3.761 0.6036 5.4279 0
M  V30 54 H -3.9106 -3.2955 3.6742 0
M  V30 55 H -4.6504 -1.6945 5.4151 0
M  V30 END ATOM
M  V30 BEGIN BOND
M  V30 1 1 1 2
M  V30 2 1 2 3
M  V30 3 1 2 4
M  V30 4 1 2 5
M  V30 5 1 3 6
M  V30 6 1 3 7
M  V30 7 1 4 8
M  V30 8 1 5 9
M  V30 9 1 8 10
M  V30 10 1 8 11
M  V30 11 1 10 12
M  V30 12 2 11 13
M  V30 13 1 11 14
M  V30 14 1 12 15
M  V30 15 1 13 16
M  V30 16 2 14 17
M  V30 17 1 15 18
M  V30 18 2 16 19
M  V30 19 1 16 20
M  V30 20 2 18 21
M  V30 21 1 18 22
M  V30 22 1 20 23
M  V30 23 1 21 24
M  V30 24 2 22 25
M  V30 25 2 24 26
M  V30 26 1 9 10
M  V30 27 1 13 15
M  V30 28 1 17 19
M  V30 29 1 21 23
M  V30 30 1 25 26
M  V30 31 1 1 27
M  V30 32 1 3 28
M  V30 33 1 4 29
M  V30 34 1 4 30
M  V30 35 1 5 31
M  V30 36 1 5 32
M  V30 37 1 6 33
M  V30 38 1 6 34
M  V30 39 1 6 35
M  V30 40 1 7 36
M  V30 41 1 7 37
M  V30 42 1 7 38
M  V30 43 1 8 39
M  V30 44 1 9 40
M  V30 45 1 9 41
M  V30 46 1 12 42
M  V30 47 1 12 43
M  V30 48 1 14 44
M  V30 49 1 15 45
M  V30 50 1 17 46
M  V30 51 1 19 47
M  V30 52 1 20 48
M  V30 53 1 20 49
M  V30 54 1 22 50
M  V30 55 1 23 51
M  V30 56 1 23 52
M  V30 57 1 24 53
M  V30 58 1 25 54
M  V30 59 1 26 55
M  V30 END BOND
M  V30 BEGIN COLLECTION
M  V30 MDLV30/STEABS ATOMS=(3 2 8 15)
M  V30 END COLLECTION
M  V30 END CTAB
M  END
>  <Column 1>
1122

>  <level_0>
1262

>  <index>
1262

>  <Unnamed: 0>
1262

>  <NO.>
1274

>  <Name>
dexclamol

>  <IUPAC_name>
(1r-6r-8r)-6-propan-2-yl-3-azapentacyclo[11.8.1.03-8.09-22.016-21]docosa-9-11-13(22)-16-18-20-hexaen-6-ol

>  <SMILES>
CC(C)[C@@]1(O)CCN2C[C@@H]3c4ccccc4CCc4cccc(c43)[C@H]2C1

>  <CID>
91267

>  <logBB>


>  <BBB+/BBB->
BBB+

>  <Inchi>
InChI=1S/C24H29NO/c1-16(2)24(26)12-13-25-15-21-19-8-4-3-6-17(19)10-11-18-7-5-9-20(23(18)21)22(25)14-24/h3-9-16-21-22-26H-10-15H2-1-2H3/t21--22--24-/m1/s1

>  <threshold>
-1

>  <reference>
R1|R6|R27|R30|

>  <group>
B

>  <Class>
1

>  <ABC>
21.25

>  <ABCGG>
15.61

>  <nAcid>
0

>  <nBase>
1

>  <nAromAtom>
12

>  <nAromBond>
12

>  <nAtom>
55

>  <nHeavyAtom>
26

>  <nSpiro>
0

>  <nBridgehead>
0

>  <nHetero>
2

>  <nN>
1

>  <nO>
1

>  <nF>
0

>  <BalabanJ>
1.46

>  <BertzCT>
841.85

>  <nBonds>
59

>  <nBondsO>
30

>  <nBondsS>
47

>  <nBondsD>
0

>  <nBondsT>
0

>  <nBondsA>
12

>  <nBondsM>
12

>  <nBondsKS>
53

>  <nBondsKD>
6

>  <RNCG>
0.26

>  <RPCG>
0.14

>  <FCSP3>
0.5

>  <SZ>
31.33

>  <Sm>
28.93

>  <Sv>
33.33

>  <Sse>
53.87

>  <Sp>
36.72

>  <Si>
61.52

>  <MZ>
0.57

>  <Mm>
0.53

>  <Mv>
0.61

>  <Mse>
0.98

>  <Mp>
0.67

>  <Mi>
1.12

>  <NsCH3>
2

>  <NdCH2>
0

>  <NssCH2>
6

>  <NtCH>
0

>  <NdsCH>
0

>  <NaaCH>
7

>  <NsssCH>
3

>  <NddC>
0

>  <NtsC>
0

>  <NdssC>
0

>  <NaasC>
5

>  <NaaaC>
0

>  <NssssC>
1

>  <NsNH3>
0

>  <NsNH2>
0

>  <NssNH2>
0

>  <NdNH>
0

>  <NssNH>
0

>  <NaaNH>
0

>  <NtN>
0

>  <NsssNH>
0

>  <NdsN>
0

>  <NaaN>
0

>  <NsssN>
1

>  <NddsN>
0

>  <NaasN>
0

>  <NssssN>
0

>  <NsOH>
1

>  <NdO>
0

>  <NssO>
0

>  <NaaO>
0

>  <NsF>
0

>  <NsSiH3>
0

>  <NssSiH2>
0

>  <NsssSiH>
0

>  <NssssSi>
0

>  <NsPH2>
0

>  <NssPH>
0

>  <NsssP>
0

>  <NdsssP>
0

>  <NsssssP>
0

>  <NsSH>
0

>  <NdS>
0

>  <NssS>
0

>  <NaaS>
0

>  <NdssS>
0

>  <NddssS>
0

>  <NsCl>
0

>  <NsBr>
0

>  <NsI>
0

>  <fragCpx>
250.02

>  <fMF>
0.4

>  <nHBAcc>
2

>  <nHBDon>
1

>  <Kier1>
18.06

>  <Kier2>
6.81

>  <Lipinski>
1

>  <GhoseFilter>
1

>  <FilterItLogS>
-5.42

>  <VMcGowan>
284.77

>  <LabuteASA>
156.4

>  <PEOE_VSA1>
5.11

>  <PEOE_VSA2>
4.9

>  <PEOE_VSA3>
0

>  <PEOE_VSA4>
0

>  <PEOE_VSA5>
0

>  <PEOE_VSA6>
56.31

>  <PEOE_VSA7>
59.42

>  <PEOE_VSA8>
25.05

>  <PEOE_VSA9>
5.6

>  <PEOE_VSA10>
0

>  <PEOE_VSA11>
0

>  <PEOE_VSA12>
0

>  <PEOE_VSA13>
0

>  <SMR_VSA1>
5.11

>  <SMR_VSA2>
0

>  <SMR_VSA3>
4.9

>  <SMR_VSA4>
5.92

>  <SMR_VSA5>
57.09

>  <SMR_VSA6>
13.09

>  <SMR_VSA7>
70.28

>  <SMR_VSA8>
0

>  <SMR_VSA9>
0

>  <SlogP_VSA1>
0

>  <SlogP_VSA2>
28.7

>  <SlogP_VSA3>
12.84

>  <SlogP_VSA4>
5.92

>  <SlogP_VSA5>
66.47

>  <SlogP_VSA6>
42.46

>  <SlogP_VSA7>
0

>  <SlogP_VSA8>
0

>  <SlogP_VSA9>
0

>  <SlogP_VSA10>
0

>  <SlogP_VSA11>
0

>  <EState_VSA1>
5.6

>  <EState_VSA2>
0

>  <EState_VSA3>
17.88

>  <EState_VSA4>
38.77

>  <EState_VSA5>
22.25

>  <EState_VSA6>
5.56

>  <EState_VSA7>
0

>  <EState_VSA8>
61.21

>  <EState_VSA9>
0

>  <EState_VSA10>
5.11

>  <VSA_EState1>
0

>  <VSA_EState2>
2.65

>  <VSA_EState3>
11.21

>  <VSA_EState4>
7.11

>  <VSA_EState5>
0.8

>  <VSA_EState6>
16.34

>  <VSA_EState7>
4.04

>  <VSA_EState8>
6.44

>  <VSA_EState9>
0

>  <apol>
61.32

>  <bpol>
30.8

>  <nRing>
5

>  <nHRing>
2

>  <naRing>
2

>  <naHRing>
0

>  <nARing 2>
3

>  <nAHRing 2>
2

>  <nFRing>
1

>  <nFHRing>
1

>  <nFaRing>
0

>  <nFaHRing>
0

>  <nFARing 2>
1

>  <nFAHRing 2>
1

>  <nRot>
1

>  <SLogP>
4.45

>  <SMR>
105.47

>  <TopoPSA(NO)>
23.47

>  <TopoPSA>
23.47

>  <JGI1>
0.18

>  <JGI2>
0.09

>  <JGI3>
0.04

>  <JGI4>
0.05

>  <JGI5>
0.03

>  <Diameter>
11

>  <Radius>
6

>  <TMWC10>
134.72

>  <TSRW10>
70.17

>  <MW>
347.22

>  <AMW>
6.31

>  <WPath>
1433

>  <WPol>
55

>  <Zagreb1>
152

>  <Zagreb2>
189

>  <mZagreb2>
5.44

>  <yes>


>  <nAR-cont>
0.691115

>  <nHA-cont>
0.892715677

>  <MWHBN>
0.16099741

>  <MWHBN-cont>
0.957860514

>  <TPSA-cont>
0.836164826

>  <pka_cont>
0.97

>  <yes.1>


>  <BBB_SCORE>
5.1779511

>  <MMFF94 Energy>
115.43

$$$$
Compound 939
Actelion Java MolfileCreator 2.0

  0  0  0  0  0  0              0 V3000
M  V30 BEGIN CTAB
M  V30 COUNTS 57 59 0 0 0
M  V30 BEGIN ATOM
M  V30 1 O 0.3171 2.6985 1.5866 0
M  V30 2 C -0.6207 2.1358 1.0334 0
M  V30 3 O -0.4629 1.1145 0.1379 0
M  V30 4 C -2.0927 2.4474 1.2887 0
M  V30 5 C 0.8964 0.7223 -0.0806 0
M  V30 6 C -2.8134 2.7644 -7.0E-4 0
M  V30 7 C -2.7425 1.3048 2.0338 0
M  V30 8 C 0.8859 -0.4936 -1.0153 0
M  V30 9 C -3.6885 1.8246 -0.5532 0
M  V30 10 C -2.5905 3.9745 -0.6758 0
M  V30 11 C -3.6193 0.4496 1.3605 0
M  V30 12 C -2.4473 1.0603 3.3841 0
M  V30 13 N 2.181 -1.3929 -0.9427 0 CHG=1
M  V30 14 O -3.9719 0.6187 0.0428 0
M  V30 15 C -4.322 2.0794 -1.77 0
M  V30 16 C -3.2324 4.231 -1.888 0
M  V30 17 C -4.1832 -0.6441 2.0182 0
M  V30 18 C -3.0198 -0.0286 4.0425 0
M  V30 19 C 3.4473 -0.4659 -1.2098 0
M  V30 20 C 2.2869 -2.1089 0.4849 0
M  V30 21 C 2.0063 -2.4439 -2.0543 0
M  V30 22 C -4.0953 3.2833 -2.4362 0
M  V30 23 C -3.8848 -0.882 3.3596 0
M  V30 24 C 4.7851 -1.1886 -1.0614 0
M  V30 25 C 3.3946 0.2086 -2.587 0
M  V30 26 C 0.916 -2.4136 1.111 0
M  V30 27 C 3.0544 -3.4411 0.4304 0
M  V30 28 H -2.1476 3.3408 1.9255 0
M  V30 29 H 1.3617 0.4864 0.8812 0
M  V30 30 H 1.4353 1.5538 -0.5481 0
M  V30 31 H 0.0226 -1.1428 -0.8335 0
M  V30 32 H 0.7685 -0.16 -2.0523 0
M  V30 33 H -1.9225 4.7276 -0.2615 0
M  V30 34 H -1.7755 1.7181 3.9333 0
M  V30 35 H -5.0059 1.3477 -2.1924 0
M  V30 36 H -3.0662 5.1744 -2.4036 0
M  V30 37 H -4.8704 -1.3016 1.4916 0
M  V30 38 H -2.7989 -0.2076 5.0927 0
M  V30 39 H 3.4114 0.3082 -0.436 0
M  V30 40 H 2.8187 -1.3994 1.1285 0
M  V30 41 H 1.7748 -1.9356 -2.9938 0
M  V30 42 H 1.1716 -3.0957 -1.7821 0
M  V30 43 H 2.9275 -3.0181 -2.1615 0
M  V30 44 H -4.6012 3.4877 -3.377 0
M  V30 45 H -4.3387 -1.7246 3.8762 0
M  V30 46 H 5.6088 -0.5122 -1.3204 0
M  V30 47 H 4.9682 -1.4894 -0.0267 0
M  V30 48 H 4.8703 -2.0565 -1.7201 0
M  V30 49 H 3.4504 -0.5171 -3.4037 0
M  V30 50 H 2.5037 0.8247 -2.7254 0
M  V30 51 H 4.2508 0.8837 -2.7035 0
M  V30 52 H 0.3613 -1.5109 1.3771 0
M  V30 53 H 0.2938 -3.0292 0.4534 0
M  V30 54 H 1.0447 -2.9692 2.0478 0
M  V30 55 H 2.4663 -4.2266 -0.0573 0
M  V30 56 H 4.0154 -3.3897 -0.0771 0
M  V30 57 H 3.2579 -3.7892 1.4502 0
M  V30 END ATOM
M  V30 BEGIN BOND
M  V30 1 2 1 2
M  V30 2 1 2 3
M  V30 3 1 2 4
M  V30 4 1 3 5
M  V30 5 1 4 6
M  V30 6 1 4 7
M  V30 7 1 5 8
M  V30 8 2 6 9
M  V30 9 1 6 10
M  V30 10 2 7 11
M  V30 11 1 7 12
M  V30 12 1 8 13
M  V30 13 1 9 14
M  V30 14 1 9 15
M  V30 15 2 10 16
M  V30 16 1 11 17
M  V30 17 2 12 18
M  V30 18 1 13 19
M  V30 19 1 13 20
M  V30 20 1 13 21
M  V30 21 2 15 22
M  V30 22 2 17 23
M  V30 23 1 19 24
M  V30 24 1 19 25
M  V30 25 1 20 26
M  V30 26 1 20 27
M  V30 27 1 11 14
M  V30 28 1 16 22
M  V30 29 1 18 23
M  V30 30 1 4 28
M  V30 31 1 5 29
M  V30 32 1 5 30
M  V30 33 1 8 31
M  V30 34 1 8 32
M  V30 35 1 10 33
M  V30 36 1 12 34
M  V30 37 1 15 35
M  V30 38 1 16 36
M  V30 39 1 17 37
M  V30 40 1 18 38
M  V30 41 1 19 39
M  V30 42 1 20 40
M  V30 43 1 21 41
M  V30 44 1 21 42
M  V30 45 1 21 43
M  V30 46 1 22 44
M  V30 47 1 23 45
M  V30 48 1 24 46
M  V30 49 1 24 47
M  V30 50 1 24 48
M  V30 51 1 25 49
M  V30 52 1 25 50
M  V30 53 1 25 51
M  V30 54 1 26 52
M  V30 55 1 26 53
M  V30 56 1 26 54
M  V30 57 1 27 55
M  V30 58 1 27 56
M  V30 59 1 27 57
M  V30 END BOND
M  V30 END CTAB
M  END
>  <Column 1>
1125

>  <level_0>
1265

>  <index>
1265

>  <Unnamed: 0>
1265

>  <NO.>
1277

>  <Name>
propantheline

>  <IUPAC_name>
methyl-di(propan-2-yl)-[2-(9h-xanthene-9-carbonyloxy)ethyl]azanium;bromide

>  <SMILES>
CC(C)[N+](C)(CCOC(=O)C1c2ccccc2Oc2ccccc21)C(C)C

>  <CID>
4934

>  <logBB>


>  <BBB+/BBB->
BBB-

>  <Inchi>
InChI=1S/C23H30NO3/c1-16(2)24(5-17(3)4)14-15-26-23(25)22-18-10-6-8-12-20(18)27-21-13-9-7-11-19(21)22/h6-13-16-17-22H-14-15H2-1-5H3/q+1

>  <threshold>
-1

>  <reference>
R1|R13|R9|R23|R27|R27|R30|R36|

>  <group>
B

>  <Class>
-1

>  <ABC>
20.89

>  <ABCGG>
17.09

>  <nAcid>
0

>  <nBase>
1

>  <nAromAtom>
12

>  <nAromBond>
12

>  <nAtom>
57

>  <nHeavyAtom>
27

>  <nSpiro>
0

>  <nBridgehead>
0

>  <nHetero>
4

>  <nN>
1

>  <nO>
3

>  <nF>
0

>  <BalabanJ>
1.64

>  <BertzCT>
759.28

>  <nBonds>
59

>  <nBondsO>
29

>  <nBondsS>
46

>  <nBondsD>
1

>  <nBondsT>
0

>  <nBondsA>
12

>  <nBondsM>
13

>  <nBondsKS>
52

>  <nBondsKD>
7

>  <RNCG>
0.24

>  <RPCG>
0.11

>  <FCSP3>
0.43

>  <SZ>
33.17

>  <Sm>
30.68

>  <Sv>
34.03

>  <Sse>
56.47

>  <Sp>
37.08

>  <Si>
64.15

>  <MZ>
0.58

>  <Mm>
0.54

>  <Mv>
0.6

>  <Mse>
0.99

>  <Mp>
0.65

>  <Mi>
1.13

>  <NsCH3>
5

>  <NdCH2>
0

>  <NssCH2>
2

>  <NtCH>
0

>  <NdsCH>
0

>  <NaaCH>
8

>  <NsssCH>
3

>  <NddC>
0

>  <NtsC>
0

>  <NdssC>
1

>  <NaasC>
4

>  <NaaaC>
0

>  <NssssC>
0

>  <NsNH3>
0

>  <NsNH2>
0

>  <NssNH2>
0

>  <NdNH>
0

>  <NssNH>
0

>  <NaaNH>
0

>  <NtN>
0

>  <NsssNH>
0

>  <NdsN>
0

>  <NaaN>
0

>  <NsssN>
0

>  <NddsN>
0

>  <NaasN>
0

>  <NssssN>
1

>  <NsOH>
0

>  <NdO>
1

>  <NssO>
2

>  <NaaO>
0

>  <NsF>
0

>  <NsSiH3>
0

>  <NssSiH2>
0

>  <NsssSiH>
0

>  <NssssSi>
0

>  <NsPH2>
0

>  <NssPH>
0

>  <NsssP>
0

>  <NdsssP>
0

>  <NsssssP>
0

>  <NsSH>
0

>  <NdS>
0

>  <NssS>
0

>  <NaaS>
0

>  <NdssS>
0

>  <NddssS>
0

>  <NsCl>
0

>  <NsBr>
0

>  <NsI>
0

>  <fragCpx>
139.04

>  <fMF>
0.25

>  <nHBAcc>
3

>  <nHBDon>
0

>  <Kier1>
21.7

>  <Kier2>
9.21

>  <Lipinski>
1

>  <GhoseFilter>
1

>  <FilterItLogS>
-6.02

>  <VMcGowan>
301.99

>  <LabuteASA>
161.86

>  <PEOE_VSA1>
13.96

>  <PEOE_VSA2>
4.79

>  <PEOE_VSA3>
0

>  <PEOE_VSA4>
0

>  <PEOE_VSA5>
0

>  <PEOE_VSA6>
36.4

>  <PEOE_VSA7>
39.83

>  <PEOE_VSA8>
11.13

>  <PEOE_VSA9>
19.13

>  <PEOE_VSA10>
30.57

>  <PEOE_VSA11>
0

>  <PEOE_VSA12>
0

>  <PEOE_VSA13>
0

>  <SMR_VSA1>
18.75

>  <SMR_VSA2>
0

>  <SMR_VSA3>
0

>  <SMR_VSA4>
0

>  <SMR_VSA5>
45.7

>  <SMR_VSA6>
20.2

>  <SMR_VSA7>
59.66

>  <SMR_VSA8>
0

>  <SMR_VSA9>
11.5

>  <SlogP_VSA1>
4.74

>  <SlogP_VSA2>
42.74

>  <SlogP_VSA3>
9.53

>  <SlogP_VSA4>
0

>  <SlogP_VSA5>
44.74

>  <SlogP_VSA6>
48.53

>  <SlogP_VSA7>
0

>  <SlogP_VSA8>
0

>  <SlogP_VSA9>
0

>  <SlogP_VSA10>
0

>  <SlogP_VSA11>
11.5

>  <EState_VSA1>
5.92

>  <EState_VSA2>
5.97

>  <EState_VSA3>
18.69

>  <EState_VSA4>
33.65

>  <EState_VSA5>
0

>  <EState_VSA6>
0

>  <EState_VSA7>
48.53

>  <EState_VSA8>
34.74

>  <EState_VSA9>
9.47

>  <EState_VSA10>
4.79

>  <VSA_EState1>
12.62

>  <VSA_EState2>
13.06

>  <VSA_EState3>
0

>  <VSA_EState4>
1.73

>  <VSA_EState5>
0.8

>  <VSA_EState6>
16.32

>  <VSA_EState7>
0

>  <VSA_EState8>
10.07

>  <VSA_EState9>
2.22

>  <apol>
61.92

>  <bpol>
36.72

>  <nRing>
3

>  <nHRing>
1

>  <naRing>
2

>  <naHRing>
0

>  <nARing 2>
1

>  <nAHRing 2>
1

>  <nFRing>
1

>  <nFHRing>
1

>  <nFaRing>
0

>  <nFaHRing>
0

>  <nFARing 2>
1

>  <nFAHRing 2>
1

>  <nRot>
6

>  <SLogP>
4.73

>  <SMR>
107.08

>  <TopoPSA(NO)>
35.53

>  <TopoPSA>
35.53

>  <JGI1>
0.21

>  <JGI2>
0.1

>  <JGI3>
0.05

>  <JGI4>
0.04

>  <JGI5>
0.02

>  <Diameter>
11

>  <Radius>
6

>  <TMWC10>
132.75

>  <TSRW10>
62.51

>  <MW>
368.22

>  <AMW>
6.46

>  <WPath>
1850

>  <WPol>
48

>  <Zagreb1>
142

>  <Zagreb2>
170

>  <mZagreb2>
5.93

>  <yes>


>  <nAR-cont>
0.816016

>  <nHA-cont>
0.860070871

>  <MWHBN>
0.156339086

>  <MWHBN-cont>
0.94790092

>  <TPSA-cont>
0.751978537

>  <pka_cont>
0.97

>  <yes.1>


>  <BBB_SCORE>
5.086895326

>  <MMFF94 Energy>
124.06

$$$$
Compound 940
Actelion Java MolfileCreator 2.0

  0  0  0  0  0  0              0 V3000
M  V30 BEGIN CTAB
M  V30 COUNTS 54 56 0 0 0
M  V30 BEGIN ATOM
M  V30 1 O 1.351 -2.6239 -1.8282 0
M  V30 2 C 0.9747 -2.6456 -0.6622 0
M  V30 3 O 0.3726 -1.5845 -0.0484 0
M  V30 4 C 1.1837 -3.8191 0.2811 0
M  V30 5 C 0.0343 -0.4689 -0.8897 0
M  V30 6 C 0.049 -3.962 1.2945 0
M  V30 7 C 2.6105 -3.6882 0.8313 0
M  V30 8 C -1.1672 0.2398 -0.2529 0
M  V30 9 C 1.2511 0.447 -1.0655 0
M  V30 10 C -1.2194 -4.3609 0.8306 0
M  V30 11 C 0.201 -3.7039 2.6645 0
M  V30 12 O 3.0054 -4.8819 1.4979 0
M  V30 13 C -1.3546 1.6747 -0.7649 0
M  V30 14 C 0.8797 1.8779 -1.4881 0
M  V30 15 C -2.2989 -4.4866 1.7067 0
M  V30 16 C -0.881 -3.8313 3.54 0
M  V30 17 N -0.0844 2.5264 -0.4482 0 CHG=1
M  V30 18 C -1.415 1.694 -2.302 0
M  V30 19 C 0.0347 1.8588 -2.7696 0
M  V30 20 C -2.1298 -4.2191 3.0616 0
M  V30 21 C -0.3525 4.0714 -0.76 0
M  V30 22 C 0.3947 2.3973 1.0045 0
M  V30 23 C -1.2862 4.7097 0.2748 0
M  V30 24 C 0.9461 4.8771 -0.8636 0
M  V30 25 H 1.1477 -4.733 -0.3289 0
M  V30 26 H -0.2863 -0.8421 -1.8715 0
M  V30 27 H 3.3195 -3.5218 0.0118 0
M  V30 28 H 2.7095 -2.8447 1.5231 0
M  V30 29 H -1.1033 0.2162 0.8411 0
M  V30 30 H -2.0693 -0.3453 -0.4779 0
M  V30 31 H 1.8711 0.4509 -0.1618 0
M  V30 32 H 1.907 0.0129 -1.8316 0
M  V30 33 H -1.3738 -4.5924 -0.2218 0
M  V30 34 H 1.1627 -3.4221 3.0839 0
M  V30 35 H 3.946 -4.7991 1.7336 0
M  V30 36 H -2.2271 2.1387 -0.2995 0
M  V30 37 H 1.7848 2.4826 -1.5722 0
M  V30 38 H -3.268 -4.8092 1.3341 0
M  V30 39 H -0.7434 -3.6448 4.6024 0
M  V30 40 H -2.0241 2.5323 -2.6585 0
M  V30 41 H -1.8748 0.7887 -2.713 0
M  V30 42 H 0.3338 1.0608 -3.4574 0
M  V30 43 H 0.1456 2.801 -3.3185 0
M  V30 44 H -2.9652 -4.3317 3.748 0
M  V30 45 H -0.8533 4.1199 -1.7298 0
M  V30 46 H 1.2803 3.0195 1.1398 0
M  V30 47 H -0.4169 2.7057 1.667 0
M  V30 48 H 0.654 1.3671 1.2441 0
M  V30 49 H -1.5869 5.7074 -0.066 0
M  V30 50 H -0.7963 4.8455 1.2442 0
M  V30 51 H -2.2039 4.1368 0.4253 0
M  V30 52 H 1.5559 4.5641 -1.7148 0
M  V30 53 H 0.7147 5.9361 -1.0287 0
M  V30 54 H 1.5545 4.8213 0.0421 0
M  V30 END ATOM
M  V30 BEGIN BOND
M  V30 1 2 1 2
M  V30 2 1 2 3
M  V30 3 1 2 4
M  V30 4 1 3 5
M  V30 5 1 4 6
M  V30 6 1 4 7
M  V30 7 1 5 8
M  V30 8 1 5 9
M  V30 9 2 6 10
M  V30 10 1 6 11
M  V30 11 1 7 12
M  V30 12 1 8 13
M  V30 13 1 9 14
M  V30 14 1 10 15
M  V30 15 2 11 16
M  V30 16 1 13 17
M  V30 17 1 13 18
M  V30 18 1 14 19
M  V30 19 2 15 20
M  V30 20 1 17 21
M  V30 21 1 17 22
M  V30 22 1 21 23
M  V30 23 1 21 24
M  V30 24 1 14 17
M  V30 25 1 16 20
M  V30 26 1 18 19
M  V30 27 1 4 25
M  V30 28 1 5 26
M  V30 29 1 7 27
M  V30 30 1 7 28
M  V30 31 1 8 29
M  V30 32 1 8 30
M  V30 33 1 9 31
M  V30 34 1 9 32
M  V30 35 1 10 33
M  V30 36 1 11 34
M  V30 37 1 12 35
M  V30 38 1 13 36
M  V30 39 1 14 37
M  V30 40 1 15 38
M  V30 41 1 16 39
M  V30 42 1 18 40
M  V30 43 1 18 41
M  V30 44 1 19 42
M  V30 45 1 19 43
M  V30 46 1 20 44
M  V30 47 1 21 45
M  V30 48 1 22 46
M  V30 49 1 22 47
M  V30 50 1 22 48
M  V30 51 1 23 49
M  V30 52 1 23 50
M  V30 53 1 23 51
M  V30 54 1 24 52
M  V30 55 1 24 53
M  V30 56 1 24 54
M  V30 END BOND
M  V30 END CTAB
M  END
>  <Column 1>
1126

>  <level_0>
1266

>  <index>
1266

>  <Unnamed: 0>
1266

>  <NO.>
1278

>  <Name>
skb-f

>  <IUPAC_name>
(8-methyl-8-propan-2-yl-8-azoniabicyclo[3.2.1]octan-3-yl) 3-hydroxy-2-phenylpropanoate;bromide

>  <SMILES>
CC(C)[N+]1(C)C2CCC1CC(OC(=O)C(CO)c1ccccc1)C2

>  <CID>
3746

>  <logBB>


>  <BBB+/BBB->
BBB-

>  <Inchi>
InChI=1S/C20H30NO3/c1-14(2)21(3)16-9-10-17(21)12-18(11-16)24-20(23)19(13-22)15-7-5-4-6-8-15/h4-8-14-16-19-22H-9-13H2-1-3H3/q+1

>  <threshold>
-1

>  <reference>
R1|R13|R28|R27|R30|R36|

>  <group>
B

>  <Class>
-1

>  <ABC>
18.61

>  <ABCGG>
15.96

>  <nAcid>
0

>  <nBase>
1

>  <nAromAtom>
6

>  <nAromBond>
6

>  <nAtom>
54

>  <nHeavyAtom>
24

>  <nSpiro>
0

>  <nBridgehead>
2

>  <nHetero>
4

>  <nN>
1

>  <nO>
3

>  <nF>
0

>  <BalabanJ>
1.58

>  <BertzCT>
557.51

>  <nBonds>
56

>  <nBondsO>
26

>  <nBondsS>
49

>  <nBondsD>
1

>  <nBondsT>
0

>  <nBondsA>
6

>  <nBondsM>
7

>  <nBondsKS>
52

>  <nBondsKD>
4

>  <RNCG>
0.26

>  <RPCG>
0.11

>  <FCSP3>
0.65

>  <SZ>
30.17

>  <Sm>
27.68

>  <Sv>
31.03

>  <Sse>
53.47

>  <Sp>
34.08

>  <Si>
61.15

>  <MZ>
0.56

>  <Mm>
0.51

>  <Mv>
0.57

>  <Mse>
0.99

>  <Mp>
0.63

>  <Mi>
1.13

>  <NsCH3>
3

>  <NdCH2>
0

>  <NssCH2>
5

>  <NtCH>
0

>  <NdsCH>
0

>  <NaaCH>
5

>  <NsssCH>
5

>  <NddC>
0

>  <NtsC>
0

>  <NdssC>
1

>  <NaasC>
1

>  <NaaaC>
0

>  <NssssC>
0

>  <NsNH3>
0

>  <NsNH2>
0

>  <NssNH2>
0

>  <NdNH>
0

>  <NssNH>
0

>  <NaaNH>
0

>  <NtN>
0

>  <NsssNH>
0

>  <NdsN>
0

>  <NaaN>
0

>  <NsssN>
0

>  <NddsN>
0

>  <NaasN>
0

>  <NssssN>
1

>  <NsOH>
1

>  <NdO>
1

>  <NssO>
1

>  <NaaO>
0

>  <NsF>
0

>  <NsSiH3>
0

>  <NssSiH2>
0

>  <NsssSiH>
0

>  <NssssSi>
0

>  <NsPH2>
0

>  <NssPH>
0

>  <NsssP>
0

>  <NdsssP>
0

>  <NsssssP>
0

>  <NsSH>
0

>  <NdS>
0

>  <NssS>
0

>  <NaaS>
0

>  <NdssS>
0

>  <NddssS>
0

>  <NsCl>
0

>  <NsBr>
0

>  <NsI>
0

>  <fragCpx>
124.04

>  <fMF>
0.31

>  <nHBAcc>
3

>  <nHBDon>
1

>  <Kier1>
18.78

>  <Kier2>
7.71

>  <Lipinski>
1

>  <GhoseFilter>
1

>  <FilterItLogS>
-3.69

>  <VMcGowan>
272.62

>  <LabuteASA>
144.57

>  <PEOE_VSA1>
14.33

>  <PEOE_VSA2>
4.79

>  <PEOE_VSA3>
0

>  <PEOE_VSA4>
0

>  <PEOE_VSA5>
0

>  <PEOE_VSA6>
30.33

>  <PEOE_VSA7>
19.41

>  <PEOE_VSA8>
25.68

>  <PEOE_VSA9>
31.78

>  <PEOE_VSA10>
12.02

>  <PEOE_VSA11>
0

>  <PEOE_VSA12>
0

>  <PEOE_VSA13>
0

>  <SMR_VSA1>
19.12

>  <SMR_VSA2>
0

>  <SMR_VSA3>
0

>  <SMR_VSA4>
0

>  <SMR_VSA5>
69.68

>  <SMR_VSA6>
13.65

>  <SMR_VSA7>
35.9

>  <SMR_VSA8>
0

>  <SMR_VSA9>
0

>  <SlogP_VSA1>
0

>  <SlogP_VSA2>
53.44

>  <SlogP_VSA3>
9.53

>  <SlogP_VSA4>
0

>  <SlogP_VSA5>
51.01

>  <SlogP_VSA6>
30.33

>  <SlogP_VSA7>
0

>  <SlogP_VSA8>
0

>  <SlogP_VSA9>
0

>  <SlogP_VSA10>
0

>  <SlogP_VSA11>
0

>  <EState_VSA1>
5.92

>  <EState_VSA2>
18.68

>  <EState_VSA3>
18.13

>  <EState_VSA4>
22.89

>  <EState_VSA5>
12.84

>  <EState_VSA6>
0

>  <EState_VSA7>
30.33

>  <EState_VSA8>
20.9

>  <EState_VSA9>
4.74

>  <EState_VSA10>
9.9

>  <VSA_EState1>
6.96

>  <VSA_EState2>
12.58

>  <VSA_EState3>
9.65

>  <VSA_EState4>
0.83

>  <VSA_EState5>
-0.86

>  <VSA_EState6>
11.21

>  <VSA_EState7>
4.36

>  <VSA_EState8>
4.39

>  <VSA_EState9>
2.37

>  <apol>
56.91

>  <bpol>
34.98

>  <nRing>
3

>  <nHRing>
2

>  <naRing>
1

>  <naHRing>
0

>  <nARing 2>
2

>  <nAHRing 2>
2

>  <nFRing>
1

>  <nFHRing>
1

>  <nFaRing>
0

>  <nFaHRing>
0

>  <nFARing 2>
1

>  <nFAHRing 2>
1

>  <nRot>
5

>  <SLogP>
2.85

>  <SMR>
93.51

>  <TopoPSA(NO)>
46.53

>  <TopoPSA>
46.53

>  <JGI1>
0.23

>  <JGI2>
0.1

>  <JGI3>
0.06

>  <JGI4>
0.04

>  <JGI5>
0.03

>  <Diameter>
12

>  <Radius>
6

>  <TMWC10>
126.2

>  <TSRW10>
73.55

>  <MW>
332.22

>  <AMW>
6.15

>  <WPath>
1371

>  <WPol>
42

>  <Zagreb1>
128

>  <Zagreb2>
155

>  <mZagreb2>
5.31

>  <yes>


>  <nAR-cont>
1

>  <nHA-cont>
0.94700071

>  <MWHBN>
0.219455821

>  <MWHBN-cont>
0.995298799

>  <TPSA-cont>
0.675191707

>  <pka_cont>
0.97

>  <yes.1>


>  <BBB_SCORE>
5.275332322

>  <MMFF94 Energy>
82.315

$$$$
Compound 941
Actelion Java MolfileCreator 2.0

  0  0  0  0  0  0              0 V3000
M  V30 BEGIN CTAB
M  V30 COUNTS 34 35 0 0 0
M  V30 BEGIN ATOM
M  V30 1 O 0.1572 -0.6291 -0.1572 0
M  V30 2 C 0.1574 -0.682 1.2124 0
M  V30 3 C 0.4247 -1.8343 -0.8656 0
M  V30 4 C -0.1111 0.5297 1.8839 0
M  V30 5 C 0.4037 -1.8451 1.9532 0
M  V30 6 C 0.3776 -1.5609 -2.358 0
M  V30 7 C -0.1237 0.534 3.2926 0
M  V30 8 C -0.3851 1.8207 1.1203 0
M  V30 9 C 0.3864 -1.8179 3.349 0
M  V30 10 N 0.5907 -2.5085 -3.2365 0
M  V30 11 N 0.1134 -0.3256 -2.8689 0
M  V30 12 C 0.1229 -0.6297 4.0186 0
M  V30 13 C -1.7937 2.3525 1.4024 0
M  V30 14 C 0.6715 2.8876 1.4226 0
M  V30 15 C 0.4539 -1.8287 -4.5627 0
M  V30 16 C 0.1305 -0.3498 -4.297 0
M  V30 17 H 1.4273 -2.2104 -0.6318 0
M  V30 18 H -0.3353 -2.5931 -0.6463 0
M  V30 19 H 0.6141 -2.7961 1.4749 0
M  V30 20 H -0.3276 1.4526 3.8384 0
M  V30 21 H -0.3355 1.6324 0.0419 0
M  V30 22 H 0.5792 -2.7277 3.9117 0
M  V30 23 H -0.0677 0.4868 -2.2951 0
M  V30 24 H 0.1089 -0.6066 5.1051 0
M  V30 25 H -1.9203 2.6496 2.449 0
M  V30 26 H -2.0041 3.2304 0.7818 0
M  V30 27 H -2.5505 1.5931 1.1762 0
M  V30 28 H 0.6471 3.2069 2.47 0
M  V30 29 H 1.6784 2.511 1.2108 0
M  V30 30 H 0.5087 3.7758 0.8024 0
M  V30 31 H -0.3457 -2.3081 -5.137 0
M  V30 32 H 1.3893 -1.9312 -5.1227 0
M  V30 33 H -0.8403 -0.07 -4.7159 0
M  V30 34 H 0.9044 0.3088 -4.7014 0
M  V30 END ATOM
M  V30 BEGIN BOND
M  V30 1 1 1 2
M  V30 2 1 1 3
M  V30 3 2 2 4
M  V30 4 1 2 5
M  V30 5 1 3 6
M  V30 6 1 4 7
M  V30 7 1 4 8
M  V30 8 2 5 9
M  V30 9 2 6 10
M  V30 10 1 6 11
M  V30 11 2 7 12
M  V30 12 1 8 13
M  V30 13 1 8 14
M  V30 14 1 10 15
M  V30 15 1 11 16
M  V30 16 1 9 12
M  V30 17 1 15 16
M  V30 18 1 3 17
M  V30 19 1 3 18
M  V30 20 1 5 19
M  V30 21 1 7 20
M  V30 22 1 8 21
M  V30 23 1 9 22
M  V30 24 1 11 23
M  V30 25 1 12 24
M  V30 26 1 13 25
M  V30 27 1 13 26
M  V30 28 1 13 27
M  V30 29 1 14 28
M  V30 30 1 14 29
M  V30 31 1 14 30
M  V30 32 1 15 31
M  V30 33 1 15 32
M  V30 34 1 16 33
M  V30 35 1 16 34
M  V30 END BOND
M  V30 END CTAB
M  END
>  <Column 1>
1127

>  <level_0>
1267

>  <index>
1267

>  <Unnamed: 0>
1267

>  <NO.>
1279

>  <Name>
fenoxazoline

>  <IUPAC_name>
2-[(2-propan-2-ylphenoxy)methyl]-4-5-dihydro-1h-imidazole

>  <SMILES>
CC(C)c1ccccc1OCC1=NCCN1

>  <CID>
71899

>  <logBB>


>  <BBB+/BBB->
BBB-

>  <Inchi>
InChI=1S/C13H18N2O/c1-10(2)11-5-3-4-6-12(11)16-9-13-14-7-8-15-13/h3-6-10H-7-9H2-1-2H3-(H-14-15)

>  <threshold>
-1

>  <reference>
R1|R13|R19|R6|R24|R27|R27|R27|R30|R30|

>  <group>
B

>  <Class>
-1

>  <ABC>
12.16

>  <ABCGG>
10.89

>  <nAcid>
0

>  <nBase>
2

>  <nAromAtom>
6

>  <nAromBond>
6

>  <nAtom>
34

>  <nHeavyAtom>
16

>  <nSpiro>
0

>  <nBridgehead>
0

>  <nHetero>
3

>  <nN>
2

>  <nO>
1

>  <nF>
0

>  <BalabanJ>
1.76

>  <BertzCT>
385.27

>  <nBonds>
35

>  <nBondsO>
17

>  <nBondsS>
28

>  <nBondsD>
1

>  <nBondsT>
0

>  <nBondsA>
6

>  <nBondsM>
7

>  <nBondsKS>
31

>  <nBondsKD>
4

>  <RNCG>
0.33

>  <RPCG>
0.11

>  <FCSP3>
0.46

>  <SZ>
19.67

>  <Sm>
18.18

>  <Sv>
20.11

>  <Sse>
33.65

>  <Sp>
21.98

>  <Si>
38.53

>  <MZ>
0.58

>  <Mm>
0.53

>  <Mv>
0.59

>  <Mse>
0.99

>  <Mp>
0.65

>  <Mi>
1.13

>  <NsCH3>
2

>  <NdCH2>
0

>  <NssCH2>
3

>  <NtCH>
0

>  <NdsCH>
0

>  <NaaCH>
4

>  <NsssCH>
1

>  <NddC>
0

>  <NtsC>
0

>  <NdssC>
1

>  <NaasC>
2

>  <NaaaC>
0

>  <NssssC>
0

>  <NsNH3>
0

>  <NsNH2>
0

>  <NssNH2>
0

>  <NdNH>
0

>  <NssNH>
1

>  <NaaNH>
0

>  <NtN>
0

>  <NsssNH>
0

>  <NdsN>
1

>  <NaaN>
0

>  <NsssN>
0

>  <NddsN>
0

>  <NaasN>
0

>  <NssssN>
0

>  <NsOH>
0

>  <NdO>
0

>  <NssO>
1

>  <NaaO>
0

>  <NsF>
0

>  <NsSiH3>
0

>  <NssSiH2>
0

>  <NsssSiH>
0

>  <NssssSi>
0

>  <NsPH2>
0

>  <NssPH>
0

>  <NsssP>
0

>  <NdsssP>
0

>  <NsssssP>
0

>  <NsSH>
0

>  <NdS>
0

>  <NssS>
0

>  <NaaS>
0

>  <NdssS>
0

>  <NddssS>
0

>  <NsCl>
0

>  <NsBr>
0

>  <NsI>
0

>  <fragCpx>
49.03

>  <fMF>
0.38

>  <nHBAcc>
3

>  <nHBDon>
1

>  <Kier1>
12.46

>  <Kier2>
6.07

>  <Lipinski>
1

>  <GhoseFilter>
1

>  <FilterItLogS>
-3.68

>  <VMcGowan>
180.94

>  <LabuteASA>
96.54

>  <PEOE_VSA1>
10.05

>  <PEOE_VSA2>
4.99

>  <PEOE_VSA3>
0

>  <PEOE_VSA4>
0

>  <PEOE_VSA5>
0

>  <PEOE_VSA6>
32.05

>  <PEOE_VSA7>
17.55

>  <PEOE_VSA8>
6.54

>  <PEOE_VSA9>
6.54

>  <PEOE_VSA10>
18.19

>  <PEOE_VSA11>
0

>  <PEOE_VSA12>
0

>  <PEOE_VSA13>
0

>  <SMR_VSA1>
4.74

>  <SMR_VSA2>
0

>  <SMR_VSA3>
5.32

>  <SMR_VSA4>
4.99

>  <SMR_VSA5>
19.77

>  <SMR_VSA6>
19.7

>  <SMR_VSA7>
29.83

>  <SMR_VSA8>
0

>  <SMR_VSA9>
5.75

>  <SlogP_VSA1>
10.05

>  <SlogP_VSA2>
25.53

>  <SlogP_VSA3>
0

>  <SlogP_VSA4>
0

>  <SlogP_VSA5>
25.33

>  <SlogP_VSA6>
29.26

>  <SlogP_VSA7>
0

>  <SlogP_VSA8>
0

>  <SlogP_VSA9>
0

>  <SlogP_VSA10>
0

>  <SlogP_VSA11>
5.75

>  <EState_VSA1>
0

>  <EState_VSA2>
0

>  <EState_VSA3>
12.52

>  <EState_VSA4>
24.67

>  <EState_VSA5>
5.56

>  <EState_VSA6>
0

>  <EState_VSA7>
18.2

>  <EState_VSA8>
30.22

>  <EState_VSA9>
4.74

>  <EState_VSA10>
0

>  <VSA_EState1>
5.79

>  <VSA_EState2>
4.31

>  <VSA_EState3>
3.2

>  <VSA_EState4>
1.25

>  <VSA_EState5>
2.4

>  <VSA_EState6>
8.19

>  <VSA_EState7>
0

>  <VSA_EState8>
6.69

>  <VSA_EState9>
0

>  <apol>
36.71

>  <bpol>
21.5

>  <nRing>
2

>  <nHRing>
1

>  <naRing>
1

>  <naHRing>
0

>  <nARing 2>
1

>  <nAHRing 2>
1

>  <nFRing>
0

>  <nFHRing>
0

>  <nFaRing>
0

>  <nFaHRing>
0

>  <nFARing 2>
0

>  <nFAHRing 2>
0

>  <nRot>
4

>  <SLogP>
2.19

>  <SMR>
66.33

>  <TopoPSA(NO)>
33.62

>  <TopoPSA>
33.62

>  <JGI1>
0.15

>  <JGI2>
0.07

>  <JGI3>
0.04

>  <JGI4>
0.03

>  <JGI5>
0.03

>  <Diameter>
8

>  <Radius>
4

>  <TMWC10>
102.05

>  <TSRW10>
60.88

>  <MW>
218.14

>  <AMW>
6.42

>  <WPath>
466

>  <WPol>
19

>  <Zagreb1>
78

>  <Zagreb2>
88

>  <mZagreb2>
3.64

>  <yes>


>  <nAR-cont>
0.816016

>  <nHA-cont>
0.954961865

>  <MWHBN>
0.270827236

>  <MWHBN-cont>
0.918223951

>  <TPSA-cont>
0.765311523

>  <pka_cont>
0.97

>  <yes.1>


>  <BBB_SCORE>
5.163936838

>  <MMFF94 Energy>
65.236

$$$$
Compound 942
Actelion Java MolfileCreator 2.0

  0  0  0  0  0  0              0 V3000
M  V30 BEGIN CTAB
M  V30 COUNTS 56 58 0 0 0
M  V30 BEGIN ATOM
M  V30 1 F -3.4904 3.3315 2.5375 0
M  V30 2 C -2.7791 2.2674 2.1429 0
M  V30 3 C -1.6965 1.8464 2.9083 0
M  V30 4 C -3.1362 1.5979 0.977 0
M  V30 5 C -0.9554 0.7352 2.5021 0
M  V30 6 C -2.4043 0.4794 0.5734 0
M  V30 7 C -1.3073 0.0498 1.3324 0
M  V30 8 C -0.5685 -1.135 0.937 0
M  V30 9 C -0.9033 -2.4876 1.2282 0
M  V30 10 C 0.6387 -1.1217 0.2527 0
M  V30 11 C 0.1114 -3.2937 0.707 0
M  V30 12 C -1.985 -3.0909 1.9081 0
M  V30 13 N 1.0345 -2.4501 0.0941 0
M  V30 14 C 1.4503 -0.0718 -0.2604 0
M  V30 15 C 0.0658 -4.6934 0.8551 0
M  V30 16 C -2.0322 -4.4786 2.0509 0
M  V30 17 C 2.2243 -2.9018 -0.6429 0
M  V30 18 C 0.9434 0.8369 -1.1076 0
M  V30 19 C -1.0163 -5.2679 1.5302 0
M  V30 20 C 3.2682 -3.5472 0.2692 0
M  V30 21 C 1.883 -3.7702 -1.8563 0
M  V30 22 C 1.7581 1.8954 -1.7883 0 CFG=1
M  V30 23 O 1.3029 1.9838 -3.1364 0
M  V30 24 C 1.7521 3.2958 -1.1582 0
M  V30 25 C 0.4062 3.9639 -0.8296 0 CFG=2
M  V30 26 O -0.0625 3.4735 0.4264 0
M  V30 27 C -0.6685 3.8379 -1.9031 0
M  V30 28 C -1.8369 4.7386 -1.6253 0
M  V30 29 O -2.9895 4.3795 -1.442 0
M  V30 30 O -1.5238 6.0477 -1.6544 0
M  V30 31 H -1.4342 2.3889 3.8107 0
M  V30 32 H -3.9802 1.9523 0.3926 0
M  V30 33 H -0.1117 0.4023 3.102 0
M  V30 34 H -2.6926 -0.0547 -0.3288 0
M  V30 35 H -2.7791 -2.4756 2.3229 0
M  V30 36 H 2.5036 -0.0453 0.0096 0
M  V30 37 H 0.8447 -5.3388 0.4661 0
M  V30 38 H -2.866 -4.9384 2.5749 0
M  V30 39 H 2.7015 -2.0096 -1.0597 0
M  V30 40 H -0.1065 0.7826 -1.3856 0
M  V30 41 H -1.06 -6.348 1.6495 0
M  V30 42 H 2.9339 -4.5045 0.6773 0
M  V30 43 H 4.1957 -3.7324 -0.2833 0
M  V30 44 H 3.5063 -2.8908 1.1136 0
M  V30 45 H 1.5064 -4.7572 -1.5775 0
M  V30 46 H 1.1239 -3.2863 -2.4809 0
M  V30 47 H 2.7746 -3.9265 -2.4735 0
M  V30 48 H 2.8046 1.5695 -1.8463 0
M  V30 49 H 1.3797 1.0936 -3.5224 0
M  V30 50 H 2.28 3.9641 -1.8521 0
M  V30 51 H 2.3468 3.2538 -0.236 0
M  V30 52 H 0.6188 5.0254 -0.6542 0
M  V30 53 H -0.3442 2.5478 0.3233 0
M  V30 54 H -1.0661 2.8192 -1.949 0
M  V30 55 H -0.2814 4.0981 -2.8941 0
M  V30 56 H -2.3713 6.4943 -1.4458 0
M  V30 END ATOM
M  V30 BEGIN BOND
M  V30 1 1 1 2
M  V30 2 2 2 3
M  V30 3 1 2 4
M  V30 4 1 3 5
M  V30 5 2 4 6
M  V30 6 2 5 7
M  V30 7 1 7 8
M  V30 8 1 8 9
M  V30 9 2 8 10
M  V30 10 2 9 11
M  V30 11 1 9 12
M  V30 12 1 10 13
M  V30 13 1 10 14
M  V30 14 1 11 15
M  V30 15 2 12 16
M  V30 16 1 13 17
M  V30 17 2 14 18
M  V30 18 2 15 19
M  V30 19 1 17 20
M  V30 20 1 17 21
M  V30 21 1 18 22
M  V30 22 1 22 23
M  V30 23 1 22 24
M  V30 24 1 24 25
M  V30 25 1 25 26
M  V30 26 1 25 27
M  V30 27 1 27 28
M  V30 28 2 28 29
M  V30 29 1 28 30
M  V30 30 1 6 7
M  V30 31 1 11 13
M  V30 32 1 16 19
M  V30 33 1 3 31
M  V30 34 1 4 32
M  V30 35 1 5 33
M  V30 36 1 6 34
M  V30 37 1 12 35
M  V30 38 1 14 36
M  V30 39 1 15 37
M  V30 40 1 16 38
M  V30 41 1 17 39
M  V30 42 1 18 40
M  V30 43 1 19 41
M  V30 44 1 20 42
M  V30 45 1 20 43
M  V30 46 1 20 44
M  V30 47 1 21 45
M  V30 48 1 21 46
M  V30 49 1 21 47
M  V30 50 1 22 48
M  V30 51 1 23 49
M  V30 52 1 24 50
M  V30 53 1 24 51
M  V30 54 1 25 52
M  V30 55 1 26 53
M  V30 56 1 27 54
M  V30 57 1 27 55
M  V30 58 1 30 56
M  V30 END BOND
M  V30 BEGIN COLLECTION
M  V30 MDLV30/STEABS ATOMS=(2 22 25)
M  V30 END COLLECTION
M  V30 END CTAB
M  END
>  <Column 1>
1128

>  <level_0>
1269

>  <index>
1269

>  <Unnamed: 0>
1269

>  <NO.>
1281

>  <Name>
fluvastatin

>  <IUPAC_name>
(e-3s-5s)-7-[3-(4-fluorophenyl)-1-propan-2-ylindol-2-yl]-3-5-dihydroxyhept-6-enoic acid

>  <SMILES>
CC(C)n1c(/C=C/[C@@H](O)C[C@H](O)CC(=O)O)c(-c2ccc(F)cc2)c2ccccc21

>  <CID>
6347538

>  <logBB>


>  <BBB+/BBB->
BBB+

>  <Inchi>
InChI=1S/C24H26FNO4/c1-15(2)26-21-6-4-3-5-20(21)24(16-7-9-17(25)10-8-16)22(26)12-11-18(27)13-19(28)14-23(29)30/h3-12-15-18-19-27-28H-13-14H2-1-2H3-(H-29-30)/b12-11+/t18--19+/m1/s1

>  <threshold>
-1

>  <reference>
R1|R13|R24|R27|R30|

>  <group>
B

>  <Class>
1

>  <ABC>
23.11

>  <ABCGG>
19.05

>  <nAcid>
1

>  <nBase>
0

>  <nAromAtom>
15

>  <nAromBond>
16

>  <nAtom>
56

>  <nHeavyAtom>
30

>  <nSpiro>
0

>  <nBridgehead>
0

>  <nHetero>
6

>  <nN>
1

>  <nO>
4

>  <nF>
1

>  <BalabanJ>
1.7

>  <BertzCT>
1053

>  <nBonds>
58

>  <nBondsO>
32

>  <nBondsS>
40

>  <nBondsD>
2

>  <nBondsT>
0

>  <nBondsA>
16

>  <nBondsM>
18

>  <nBondsKS>
49

>  <nBondsKD>
9

>  <RNCG>
0.18

>  <RPCG>
0.12

>  <FCSP3>
0.29

>  <SZ>
36.33

>  <Sm>
34.26

>  <Sv>
35.31

>  <Sse>
56.48

>  <Sp>
37.29

>  <Si>
63.07

>  <MZ>
0.65

>  <Mm>
0.61

>  <Mv>
0.63

>  <Mse>
1.01

>  <Mp>
0.67

>  <Mi>
1.13

>  <NsCH3>
2

>  <NdCH2>
0

>  <NssCH2>
2

>  <NtCH>
0

>  <NdsCH>
2

>  <NaaCH>
8

>  <NsssCH>
3

>  <NddC>
0

>  <NtsC>
0

>  <NdssC>
1

>  <NaasC>
4

>  <NaaaC>
2

>  <NssssC>
0

>  <NsNH3>
0

>  <NsNH2>
0

>  <NssNH2>
0

>  <NdNH>
0

>  <NssNH>
0

>  <NaaNH>
0

>  <NtN>
0

>  <NsssNH>
0

>  <NdsN>
0

>  <NaaN>
0

>  <NsssN>
0

>  <NddsN>
0

>  <NaasN>
1

>  <NssssN>
0

>  <NsOH>
3

>  <NdO>
1

>  <NssO>
0

>  <NaaO>
0

>  <NsF>
1

>  <NsSiH3>
0

>  <NssSiH2>
0

>  <NsssSiH>
0

>  <NssssSi>
0

>  <NsPH2>
0

>  <NssPH>
0

>  <NsssP>
0

>  <NdsssP>
0

>  <NsssssP>
0

>  <NsSH>
0

>  <NdS>
0

>  <NssS>
0

>  <NaaS>
0

>  <NdssS>
0

>  <NddssS>
0

>  <NsCl>
0

>  <NsBr>
0

>  <NsI>
0

>  <fragCpx>
154.06

>  <fMF>
0.27

>  <nHBAcc>
4

>  <nHBDon>
3

>  <Kier1>
24.64

>  <Kier2>
11.23

>  <Lipinski>
1

>  <GhoseFilter>
1

>  <FilterItLogS>
-4

>  <VMcGowan>
312.96

>  <LabuteASA>
174.26

>  <PEOE_VSA1>
19.89

>  <PEOE_VSA2>
4.79

>  <PEOE_VSA3>
4.39

>  <PEOE_VSA4>
0

>  <PEOE_VSA5>
0

>  <PEOE_VSA6>
36.41

>  <PEOE_VSA7>
43.69

>  <PEOE_VSA8>
34.62

>  <PEOE_VSA9>
18.63

>  <PEOE_VSA10>
5.82

>  <PEOE_VSA11>
0

>  <PEOE_VSA12>
0

>  <PEOE_VSA13>
0

>  <SMR_VSA1>
24.5

>  <SMR_VSA2>
0

>  <SMR_VSA3>
4.57

>  <SMR_VSA4>
0

>  <SMR_VSA5>
44.94

>  <SMR_VSA6>
0

>  <SMR_VSA7>
66.12

>  <SMR_VSA8>
0

>  <SMR_VSA9>
11.13

>  <SlogP_VSA1>
0

>  <SlogP_VSA2>
38.06

>  <SlogP_VSA3>
4.79

>  <SlogP_VSA4>
5.82

>  <SlogP_VSA5>
38.42

>  <SlogP_VSA6>
54.61

>  <SlogP_VSA7>
0

>  <SlogP_VSA8>
28.11

>  <SlogP_VSA9>
0

>  <SlogP_VSA10>
4.39

>  <SlogP_VSA11>
0

>  <EState_VSA1>
24.6

>  <EState_VSA2>
18.28

>  <EState_VSA3>
0

>  <EState_VSA4>
27.72

>  <EState_VSA5>
12.13

>  <EState_VSA6>
24.28

>  <EState_VSA7>
24.27

>  <EState_VSA8>
18.41

>  <EState_VSA9>
5.11

>  <EState_VSA10>
19.4

>  <VSA_EState1>
15.64

>  <VSA_EState2>
10.73

>  <VSA_EState3>
29.87

>  <VSA_EState4>
3.65

>  <VSA_EState5>
-1.43

>  <VSA_EState6>
14.36

>  <VSA_EState7>
0.73

>  <VSA_EState8>
4.12

>  <VSA_EState9>
0

>  <apol>
62.28

>  <bpol>
29.77

>  <nRing>
3

>  <nHRing>
1

>  <naRing>
3

>  <naHRing>
1

>  <nARing 2>
0

>  <nAHRing 2>
0

>  <nFRing>
1

>  <nFHRing>
1

>  <nFaRing>
1

>  <nFaHRing>
1

>  <nFARing 2>
0

>  <nFAHRing 2>
0

>  <nRot>
8

>  <SLogP>
4.63

>  <SMR>
115.63

>  <TopoPSA(NO)>
82.69

>  <TopoPSA>
82.69

>  <JGI1>
0.2

>  <JGI2>
0.07

>  <JGI3>
0.07

>  <JGI4>
0.04

>  <JGI5>
0.02

>  <Diameter>
14

>  <Radius>
7

>  <TMWC10>
139.41

>  <TSRW10>
80.18

>  <MW>
411.18

>  <AMW>
7.34

>  <WPath>
2476

>  <WPol>
47

>  <Zagreb1>
154

>  <Zagreb2>
180

>  <mZagreb2>
6.61

>  <yes>


>  <nAR-cont>
0.336376

>  <nHA-cont>
0.74523694

>  <MWHBN>
0.345208952

>  <MWHBN-cont>
0.688053019

>  <TPSA-cont>
0.422772453

>  <pka_cont>
0.97

>  <yes.1>


>  <BBB_SCORE>
3.444237373

>  <MMFF94 Energy>
24.236

$$$$
Compound 943
Actelion Java MolfileCreator 2.0

  0  0  0  0  0  0              0 V3000
M  V30 BEGIN CTAB
M  V30 COUNTS 42 46 0 0 0
M  V30 BEGIN ATOM
M  V30 1 O -1.1324 0.9706 0.8897 0
M  V30 2 C -0.8548 0.5605 -0.2325 0
M  V30 3 N -1.5171 1.0236 -1.3914 0
M  V30 4 C 0.2034 -0.3769 -0.4602 0
M  V30 5 C -1.2698 0.4224 -2.6806 0
M  V30 6 C -2.4851 2.1371 -1.2543 0
M  V30 7 N 0.5501 -0.804 -1.7128 0
M  V30 8 C 1.0892 -1.0081 0.3923 0
M  V30 9 C -0.1887 -0.4633 -2.8553 0
M  V30 10 C -2.0866 0.6585 -3.7971 0
M  V30 11 C -3.7877 1.6772 -0.5984 0
M  V30 12 C -1.9031 3.3693 -0.5455 0
M  V30 13 C 1.6568 -1.5999 -1.5852 0
M  V30 14 N 2.0094 -1.7464 -0.3282 0
M  V30 15 C 1.1583 -0.9857 1.8569 0
M  V30 16 C 0.1057 -1.0386 -4.1002 0
M  V30 17 C -1.8002 0.0858 -5.0426 0
M  V30 18 N 0.0961 -1.0702 2.6692 0
M  V30 19 N 2.3733 -0.9446 2.4968 0
M  V30 20 C -0.7008 -0.7506 -5.1965 0
M  V30 21 O 0.6683 -1.0554 3.9418 0
M  V30 22 C 2.0201 -0.9838 3.7603 0
M  V30 23 C 3.037 -0.9499 4.9353 0
M  V30 24 C 3.167 -2.1595 5.8249 0
M  V30 25 C 4.2704 -1.8134 4.8675 0
M  V30 26 H -2.736 2.517 -2.2468 0
M  V30 27 H -2.9819 1.2689 -3.7441 0
M  V30 28 H -3.6354 1.3541 0.436 0
M  V30 29 H -4.5232 2.4886 -0.5893 0
M  V30 30 H -4.2215 0.8349 -1.1479 0
M  V30 31 H -1.7787 3.2236 0.5307 0
M  V30 32 H -0.929 3.6368 -0.9687 0
M  V30 33 H -2.5723 4.2279 -0.6728 0
M  V30 34 H 2.1691 -2.0547 -2.4214 0
M  V30 35 H 0.9365 -1.7229 -4.2438 0
M  V30 36 H -2.4478 0.2907 -5.8926 0
M  V30 37 H -0.4861 -1.1948 -6.1657 0
M  V30 38 H 3.1386 0.0253 5.3971 0
M  V30 39 H 2.5641 -3.034 5.6058 0
M  V30 40 H 3.3394 -1.9937 6.882 0
M  V30 41 H 5.1914 -1.4091 5.2704 0
M  V30 42 H 4.4086 -2.4437 3.9954 0
M  V30 END ATOM
M  V30 BEGIN BOND
M  V30 1 2 1 2
M  V30 2 1 2 3
M  V30 3 1 2 4
M  V30 4 1 3 5
M  V30 5 1 3 6
M  V30 6 1 4 7
M  V30 7 2 4 8
M  V30 8 2 5 9
M  V30 9 1 5 10
M  V30 10 1 6 11
M  V30 11 1 6 12
M  V30 12 1 7 13
M  V30 13 1 8 14
M  V30 14 1 8 15
M  V30 15 1 9 16
M  V30 16 2 10 17
M  V30 17 2 15 18
M  V30 18 1 15 19
M  V30 19 2 16 20
M  V30 20 1 18 21
M  V30 21 2 19 22
M  V30 22 1 22 23
M  V30 23 1 23 24
M  V30 24 1 23 25
M  V30 25 1 7 9
M  V30 26 2 13 14
M  V30 27 1 17 20
M  V30 28 1 21 22
M  V30 29 1 24 25
M  V30 30 1 6 26
M  V30 31 1 10 27
M  V30 32 1 11 28
M  V30 33 1 11 29
M  V30 34 1 11 30
M  V30 35 1 12 31
M  V30 36 1 12 32
M  V30 37 1 12 33
M  V30 38 1 13 34
M  V30 39 1 16 35
M  V30 40 1 17 36
M  V30 41 1 20 37
M  V30 42 1 23 38
M  V30 43 1 24 39
M  V30 44 1 24 40
M  V30 45 1 25 41
M  V30 46 1 25 42
M  V30 END BOND
M  V30 END CTAB
M  END
>  <Column 1>
1129

>  <level_0>
1270

>  <index>
1270

>  <Unnamed: 0>
1270

>  <NO.>
1282

>  <Name>
panadiplon

>  <IUPAC_name>
3-(5-cyclopropyl-1-2-4-oxadiazol-3-yl)-5-propan-2-ylimidazo[1-5-a]quinoxalin-4-one

>  <SMILES>
CC(C)n1c(=O)c2c(-c3noc(C4CC4)n3)ncn2c2ccccc21

>  <CID>
3033821

>  <logBB>


>  <BBB+/BBB->
BBB+

>  <Inchi>
InChI=1S/C18H17N5O2/c1-10(2)23-13-6-4-3-5-12(13)22-9-19-14(15(22)18(23)24)16-20-17(25-21-16)11-7-8-11/h3-6-9-11H-7-8H2-1-2H3

>  <threshold>
-1

>  <reference>
R1|R13|R19|R6|R24|R27|R27|R27|R30|R30|

>  <group>
B

>  <Class>
1

>  <ABC>
20.43

>  <ABCGG>
16.77

>  <nAcid>
0

>  <nBase>
0

>  <nAromAtom>
18

>  <nAromBond>
20

>  <nAtom>
42

>  <nHeavyAtom>
25

>  <nSpiro>
0

>  <nBridgehead>
0

>  <nHetero>
7

>  <nN>
5

>  <nO>
2

>  <nF>
0

>  <BalabanJ>
1.38

>  <BertzCT>
1163.35

>  <nBonds>
46

>  <nBondsO>
29

>  <nBondsS>
25

>  <nBondsD>
1

>  <nBondsT>
0

>  <nBondsA>
20

>  <nBondsM>
21

>  <nBondsKS>
38

>  <nBondsKD>
8

>  <RNCG>
0.17

>  <RPCG>
0.14

>  <FCSP3>
0.33

>  <SZ>
29.33

>  <Sm>
27.92

>  <Sv>
27.82

>  <Sse>
42.52

>  <Sp>
29.04

>  <Si>
47.4

>  <MZ>
0.7

>  <Mm>
0.66

>  <Mv>
0.66

>  <Mse>
1.01

>  <Mp>
0.69

>  <Mi>
1.13

>  <NsCH3>
2

>  <NdCH2>
0

>  <NssCH2>
2

>  <NtCH>
0

>  <NdsCH>
0

>  <NaaCH>
5

>  <NsssCH>
2

>  <NddC>
0

>  <NtsC>
0

>  <NdssC>
0

>  <NaasC>
3

>  <NaaaC>
3

>  <NssssC>
0

>  <NsNH3>
0

>  <NsNH2>
0

>  <NssNH2>
0

>  <NdNH>
0

>  <NssNH>
0

>  <NaaNH>
0

>  <NtN>
0

>  <NsssNH>
0

>  <NdsN>
0

>  <NaaN>
3

>  <NsssN>
0

>  <NddsN>
0

>  <NaasN>
2

>  <NssssN>
0

>  <NsOH>
0

>  <NdO>
1

>  <NssO>
0

>  <NaaO>
1

>  <NsF>
0

>  <NsSiH3>
0

>  <NssSiH2>
0

>  <NsssSiH>
0

>  <NssssSi>
0

>  <NsPH2>
0

>  <NssPH>
0

>  <NsssP>
0

>  <NdsssP>
0

>  <NsssssP>
0

>  <NsSH>
0

>  <NdS>
0

>  <NssS>
0

>  <NaaS>
0

>  <NdssS>
0

>  <NddssS>
0

>  <NsCl>
0

>  <NsBr>
0

>  <NsI>
0

>  <fragCpx>
241.07

>  <fMF>
0.5

>  <nHBAcc>
7

>  <nHBDon>
0

>  <Kier1>
17.12

>  <Kier2>
6.56

>  <Lipinski>
1

>  <GhoseFilter>
1

>  <FilterItLogS>
-4.09

>  <VMcGowan>
237.42

>  <LabuteASA>
142.47

>  <PEOE_VSA1>
9.09

>  <PEOE_VSA2>
9.2

>  <PEOE_VSA3>
4.98

>  <PEOE_VSA4>
4.98

>  <PEOE_VSA5>
0

>  <PEOE_VSA6>
17.29

>  <PEOE_VSA7>
38.82

>  <PEOE_VSA8>
11.96

>  <PEOE_VSA9>
11.03

>  <PEOE_VSA10>
17.54

>  <PEOE_VSA11>
0

>  <PEOE_VSA12>
11.72

>  <PEOE_VSA13>
5.56

>  <SMR_VSA1>
4.52

>  <SMR_VSA2>
0

>  <SMR_VSA3>
24.09

>  <SMR_VSA4>
0

>  <SMR_VSA5>
38.65

>  <SMR_VSA6>
0

>  <SMR_VSA7>
46.84

>  <SMR_VSA8>
0

>  <SMR_VSA9>
11.52

>  <SlogP_VSA1>
5.56

>  <SlogP_VSA2>
24.09

>  <SlogP_VSA3>
0

>  <SlogP_VSA4>
0

>  <SlogP_VSA5>
44.54

>  <SlogP_VSA6>
39.91

>  <SlogP_VSA7>
0

>  <SlogP_VSA8>
28.07

>  <SlogP_VSA9>
0

>  <SlogP_VSA10>
0

>  <SlogP_VSA11>
0

>  <EState_VSA1>
0

>  <EState_VSA2>
11.6

>  <EState_VSA3>
28.84

>  <EState_VSA4>
23.88

>  <EState_VSA5>
0

>  <EState_VSA6>
10.89

>  <EState_VSA7>
42.51

>  <EState_VSA8>
15.12

>  <EState_VSA9>
4.52

>  <EState_VSA10>
4.79

>  <VSA_EState1>
8.96

>  <VSA_EState2>
22.1

>  <VSA_EState3>
4.06

>  <VSA_EState4>
2.66

>  <VSA_EState5>
1.39

>  <VSA_EState6>
7.85

>  <VSA_EState7>
3.82

>  <VSA_EState8>
4

>  <VSA_EState9>
0

>  <apol>
48.5

>  <bpol>
25.36

>  <nRing>
5

>  <nHRing>
3

>  <naRing>
4

>  <naHRing>
3

>  <nARing 2>
1

>  <nAHRing 2>
0

>  <nFRing>
1

>  <nFHRing>
1

>  <nFaRing>
1

>  <nFaHRing>
1

>  <nFARing 2>
0

>  <nFAHRing 2>
0

>  <nRot>
3

>  <SLogP>
3.16

>  <SMR>
92.61

>  <TopoPSA(NO)>
78.22

>  <TopoPSA>
78.22

>  <JGI1>
0.14

>  <JGI2>
0.07

>  <JGI3>
0.05

>  <JGI4>
0.04

>  <JGI5>
0.03

>  <Diameter>
11

>  <Radius>
6

>  <TMWC10>
132.47

>  <TSRW10>
80.97

>  <MW>
335.14

>  <AMW>
7.98

>  <WPath>
1365

>  <WPol>
45

>  <Zagreb1>
146

>  <Zagreb2>
183

>  <mZagreb2>
5.28

>  <yes>


>  <nAR-cont>
0.816016

>  <nHA-cont>
0.921834225

>  <MWHBN>
0.382370965

>  <MWHBN-cont>
0.545494601

>  <TPSA-cont>
0.453975828

>  <pka_cont>
0.97

>  <yes.1>


>  <BBB_SCORE>
3.949043782

>  <MMFF94 Energy>
49.059

$$$$
Compound 944
Actelion Java MolfileCreator 2.0

  0  0  0  0  0  0              0 V3000
M  V30 BEGIN CTAB
M  V30 COUNTS 64 68 0 0 0
M  V30 BEGIN ATOM
M  V30 1 O 2.871 -0.7171 0.5577 0
M  V30 2 C 2.1864 -0.2691 1.473 0
M  V30 3 N 2.7393 0.2139 2.6433 0
M  V30 4 C 0.6553 -0.2657 1.4584 0 CFG=1
M  V30 5 C 4.1814 0.2623 2.8554 0
M  V30 6 C 0.0691 1.1515 1.5554 0
M  V30 7 C 0.088 -1.0246 0.2534 0
M  V30 8 C 4.5565 1.4208 3.7886 0
M  V30 9 C 4.7025 -1.0772 3.3931 0
M  V30 10 N 0.1685 1.9108 0.3053 0
M  V30 11 C 0.1713 -0.2016 -1.0423 0
M  V30 12 C 4.1668 1.1649 5.2447 0
M  V30 13 C 4.2911 -1.3249 4.8438 0
M  V30 14 C -0.4761 1.2285 -0.8438 0
M  V30 15 C -0.2816 3.2888 0.4759 0
M  V30 16 C -0.4893 -0.9525 -2.181 0
M  V30 17 C 4.7056 -0.1695 5.7493 0
M  V30 18 C -2.0569 1.2174 -0.8131 0
M  V30 19 C -1.8061 -0.6127 -2.5104 0
M  V30 20 C 0.1058 -1.9885 -2.906 0
M  V30 21 C -2.6054 0.3869 -1.9256 0
M  V30 22 C -2.5149 -1.2476 -3.5154 0
M  V30 23 C -0.6026 -2.6371 -3.9245 0
M  V30 24 C -3.8162 0.356 -2.5756 0
M  V30 25 N -3.7566 -0.6359 -3.5414 0
M  V30 26 C -1.9237 -2.2828 -4.252 0
M  V30 27 C -4.8516 -0.976 -4.4501 0
M  V30 28 C -6.0763 -1.4865 -3.6903 0
M  V30 29 C -5.2087 0.1955 -5.3653 0
M  V30 30 H 2.1296 0.4718 3.4063 0
M  V30 31 H 0.3556 -0.8169 2.3612 0
M  V30 32 H 4.647 0.4458 1.8793 0
M  V30 33 H -0.9791 1.0782 1.8722 0
M  V30 34 H 0.5838 1.706 2.3491 0
M  V30 35 H -0.9597 -1.279 0.4642 0
M  V30 36 H 0.6095 -1.9821 0.1269 0
M  V30 37 H 5.6421 1.5749 3.7402 0
M  V30 38 H 4.0889 2.3517 3.4457 0
M  V30 39 H 5.7983 -1.0809 3.3328 0
M  V30 40 H 4.3492 -1.907 2.7698 0
M  V30 41 H 1.224 -0.0486 -1.3146 0
M  V30 42 H 4.551 1.9764 5.8734 0
M  V30 43 H 3.0752 1.18 5.3464 0
M  V30 44 H 3.2051 -1.4661 4.9027 0
M  V30 45 H 4.7509 -2.2532 5.201 0
M  V30 46 H -0.1981 1.7989 -1.744 0
M  V30 47 H -1.3185 3.3535 0.8224 0
M  V30 48 H 0.3494 3.8054 1.2079 0
M  V30 49 H -0.191 3.8478 -0.4617 0
M  V30 50 H 4.3448 -0.3512 6.768 0
M  V30 51 H 5.8003 -0.1232 5.8025 0
M  V30 52 H -2.4396 2.2401 -0.9053 0
M  V30 53 H -2.4217 0.8094 0.1359 0
M  V30 54 H 1.125 -2.293 -2.6789 0
M  V30 55 H -0.1176 -3.4386 -4.4779 0
M  V30 56 H -4.7103 0.9499 -2.4406 0
M  V30 57 H -2.4501 -2.8005 -5.0454 0
M  V30 58 H -4.4965 -1.7934 -5.087 0
M  V30 59 H -6.5169 -0.7073 -3.059 0
M  V30 60 H -6.8483 -1.8278 -4.388 0
M  V30 61 H -5.8106 -2.3291 -3.0426 0
M  V30 62 H -5.614 1.0427 -4.8014 0
M  V30 63 H -4.3259 0.5493 -5.909 0
M  V30 64 H -5.9604 -0.106 -6.1023 0
M  V30 END ATOM
M  V30 BEGIN BOND
M  V30 1 2 1 2
M  V30 2 1 2 3
M  V30 3 1 2 4
M  V30 4 1 3 5
M  V30 5 1 4 6
M  V30 6 1 4 7
M  V30 7 1 5 8
M  V30 8 1 5 9
M  V30 9 1 6 10
M  V30 10 1 7 11
M  V30 11 1 8 12
M  V30 12 1 9 13
M  V30 13 1 10 14
M  V30 14 1 10 15
M  V30 15 1 11 16
M  V30 16 1 12 17
M  V30 17 1 14 18
M  V30 18 2 16 19
M  V30 19 1 16 20
M  V30 20 1 18 21
M  V30 21 1 19 22
M  V30 22 2 20 23
M  V30 23 2 21 24
M  V30 24 1 22 25
M  V30 25 2 22 26
M  V30 26 1 25 27
M  V30 27 1 27 28
M  V30 28 1 27 29
M  V30 29 1 11 14
M  V30 30 1 13 17
M  V30 31 1 19 21
M  V30 32 1 23 26
M  V30 33 1 24 25
M  V30 34 1 3 30
M  V30 35 1 4 31
M  V30 36 1 5 32
M  V30 37 1 6 33
M  V30 38 1 6 34
M  V30 39 1 7 35
M  V30 40 1 7 36
M  V30 41 1 8 37
M  V30 42 1 8 38
M  V30 43 1 9 39
M  V30 44 1 9 40
M  V30 45 1 11 41
M  V30 46 1 12 42
M  V30 47 1 12 43
M  V30 48 1 13 44
M  V30 49 1 13 45
M  V30 50 1 14 46
M  V30 51 1 15 47
M  V30 52 1 15 48
M  V30 53 1 15 49
M  V30 54 1 17 50
M  V30 55 1 17 51
M  V30 56 1 18 52
M  V30 57 1 18 53
M  V30 58 1 20 54
M  V30 59 1 23 55
M  V30 60 1 24 56
M  V30 61 1 26 57
M  V30 62 1 27 58
M  V30 63 1 28 59
M  V30 64 1 28 60
M  V30 65 1 28 61
M  V30 66 1 29 62
M  V30 67 1 29 63
M  V30 68 1 29 64
M  V30 END BOND
M  V30 BEGIN COLLECTION
M  V30 MDLV30/STEABS ATOMS=(1 4)
M  V30 END COLLECTION
M  V30 END CTAB
M  END
>  <Column 1>
1130

>  <level_0>
1271

>  <index>
1271

>  <Unnamed: 0>
1271

>  <NO.>
1283

>  <Name>
amesergide

>  <IUPAC_name>
(9r)-n-cyclohexyl-7-methyl-4-propan-2-yl-6-6a-8-9-10-10a-hexahydroindolo[4-3-fg]quinoline-9-carboxamide

>  <SMILES>
CC(C)n1cc2c3c(cccc31)C1C[C@@H](C(=O)NC3CCCCC3)CN(C)C1C2

>  <CID>
60740

>  <logBB>


>  <BBB+/BBB->
BBB+

>  <Inchi>
InChI=1S/C25H35N3O/c1-16(2)28-15-17-13-23-21(20-10-7-11-22(28)24(17)20)12-18(14-27(23)3)25(29)26-19-8-5-4-6-9-19/h7-10-11-15-16-18-19-21-23H-4-6-8-9-12-14H2-1-3H3-(H-26-29)/t18--21?-23?/m1/s1

>  <threshold>
-1

>  <reference>
R1|R27|R30|

>  <group>
B

>  <Class>
1

>  <ABC>
23.41

>  <ABCGG>
17.36

>  <nAcid>
0

>  <nBase>
1

>  <nAromAtom>
9

>  <nAromBond>
10

>  <nAtom>
64

>  <nHeavyAtom>
29

>  <nSpiro>
0

>  <nBridgehead>
0

>  <nHetero>
4

>  <nN>
3

>  <nO>
1

>  <nF>
0

>  <BalabanJ>
1.3

>  <BertzCT>
908.17

>  <nBonds>
68

>  <nBondsO>
33

>  <nBondsS>
57

>  <nBondsD>
1

>  <nBondsT>
0

>  <nBondsA>
10

>  <nBondsM>
11

>  <nBondsKS>
63

>  <nBondsKD>
5

>  <RNCG>
0.19

>  <RPCG>
0.12

>  <FCSP3>
0.64

>  <SZ>
35.67

>  <Sm>
32.77

>  <Sv>
37.47

>  <Sse>
62.86

>  <Sp>
41.43

>  <Si>
72.35

>  <MZ>
0.56

>  <Mm>
0.51

>  <Mv>
0.59

>  <Mse>
0.98

>  <Mp>
0.65

>  <Mi>
1.13

>  <NsCH3>
3

>  <NdCH2>
0

>  <NssCH2>
8

>  <NtCH>
0

>  <NdsCH>
0

>  <NaaCH>
4

>  <NsssCH>
5

>  <NddC>
0

>  <NtsC>
0

>  <NdssC>
1

>  <NaasC>
2

>  <NaaaC>
2

>  <NssssC>
0

>  <NsNH3>
0

>  <NsNH2>
0

>  <NssNH2>
0

>  <NdNH>
0

>  <NssNH>
1

>  <NaaNH>
0

>  <NtN>
0

>  <NsssNH>
0

>  <NdsN>
0

>  <NaaN>
0

>  <NsssN>
1

>  <NddsN>
0

>  <NaasN>
1

>  <NssssN>
0

>  <NsOH>
0

>  <NdO>
1

>  <NssO>
0

>  <NaaO>
0

>  <NsF>
0

>  <NsSiH3>
0

>  <NssSiH2>
0

>  <NsssSiH>
0

>  <NssssSi>
0

>  <NsPH2>
0

>  <NssPH>
0

>  <NsssP>
0

>  <NdsssP>
0

>  <NsssssP>
0

>  <NsSH>
0

>  <NdS>
0

>  <NssS>
0

>  <NaaS>
0

>  <NdssS>
0

>  <NddssS>
0

>  <NsCl>
0

>  <NsBr>
0

>  <NsI>
0

>  <fragCpx>
277.04

>  <fMF>
0.38

>  <nHBAcc>
3

>  <nHBDon>
1

>  <Kier1>
20.88

>  <Kier2>
8.5

>  <Lipinski>
1

>  <GhoseFilter>
1

>  <FilterItLogS>
-4.73

>  <VMcGowan>
323.12

>  <LabuteASA>
174.19

>  <PEOE_VSA1>
14.78

>  <PEOE_VSA2>
4.79

>  <PEOE_VSA3>
0

>  <PEOE_VSA4>
0

>  <PEOE_VSA5>
0

>  <PEOE_VSA6>
31.4

>  <PEOE_VSA7>
63.77

>  <PEOE_VSA8>
47.69

>  <PEOE_VSA9>
5.92

>  <PEOE_VSA10>
0

>  <PEOE_VSA11>
0

>  <PEOE_VSA12>
5.91

>  <PEOE_VSA13>
0

>  <SMR_VSA1>
4.79

>  <SMR_VSA2>
0

>  <SMR_VSA3>
14.78

>  <SMR_VSA4>
5.92

>  <SMR_VSA5>
82.84

>  <SMR_VSA6>
13.59

>  <SMR_VSA7>
35.52

>  <SMR_VSA8>
0

>  <SMR_VSA9>
0

>  <SlogP_VSA1>
5.32

>  <SlogP_VSA2>
41.05

>  <SlogP_VSA3>
11.22

>  <SlogP_VSA4>
5.92

>  <SlogP_VSA5>
75.46

>  <SlogP_VSA6>
24.4

>  <SlogP_VSA7>
0

>  <SlogP_VSA8>
10.9

>  <SlogP_VSA9>
0

>  <SlogP_VSA10>
0

>  <SlogP_VSA11>
0

>  <EState_VSA1>
0

>  <EState_VSA2>
5.92

>  <EState_VSA3>
29.95

>  <EState_VSA4>
32.23

>  <EState_VSA5>
41.29

>  <EState_VSA6>
0

>  <EState_VSA7>
0

>  <EState_VSA8>
60.07

>  <EState_VSA9>
0

>  <EState_VSA10>
4.79

>  <VSA_EState1>
2.43

>  <VSA_EState2>
15.59

>  <VSA_EState3>
4.86

>  <VSA_EState4>
4.32

>  <VSA_EState5>
0.85

>  <VSA_EState6>
8.18

>  <VSA_EState7>
10.63

>  <VSA_EState8>
5.41

>  <VSA_EState9>
2.22

>  <apol>
69.19

>  <bpol>
39.97

>  <nRing>
5

>  <nHRing>
2

>  <naRing>
2

>  <naHRing>
1

>  <nARing 2>
3

>  <nAHRing 2>
1

>  <nFRing>
1

>  <nFHRing>
1

>  <nFaRing>
0

>  <nFaHRing>
0

>  <nFARing 2>
1

>  <nFAHRing 2>
1

>  <nRot>
3

>  <SLogP>
4.63

>  <SMR>
118.31

>  <TopoPSA(NO)>
37.27

>  <TopoPSA>
37.27

>  <JGI1>
0.17

>  <JGI2>
0.07

>  <JGI3>
0.05

>  <JGI4>
0.05

>  <JGI5>
0.02

>  <Diameter>
14

>  <Radius>
7

>  <TMWC10>
141.04

>  <TSRW10>
79.61

>  <MW>
393.28

>  <AMW>
6.14

>  <WPath>
2177

>  <WPol>
53

>  <Zagreb1>
164

>  <Zagreb2>
201

>  <mZagreb2>
6.17

>  <yes>


>  <nAR-cont>
0.691115

>  <nHA-cont>
0.785905698

>  <MWHBN>
0.201701469

>  <MWHBN-cont>
0.999862786

>  <TPSA-cont>
0.739832257

>  <pka_cont>
0.97

>  <yes.1>


>  <BBB_SCORE>
4.941479391

>  <MMFF94 Energy>
47.154

$$$$
Compound 945
Actelion Java MolfileCreator 2.0

  0  0  0  0  0  0              0 V3000
M  V30 BEGIN CTAB
M  V30 COUNTS 49 50 0 0 0
M  V30 BEGIN ATOM
M  V30 1 Cl -2.8904 -4.1771 -2.4885 0
M  V30 2 C -1.5861 -3.1805 -1.9754 0
M  V30 3 C -1.7657 -1.801 -1.889 0
M  V30 4 C -0.3606 -3.7603 -1.6504 0
M  V30 5 C -0.7009 -0.9893 -1.4749 0
M  V30 6 C 0.6999 -2.9555 -1.2303 0
M  V30 7 C 0.5338 -1.5684 -1.1322 0
M  V30 8 C -0.923 0.4716 -1.3615 0
M  V30 9 N 1.6471 -0.7929 -0.7422 0
M  V30 10 O -0.6384 1.0412 -0.315 0
M  V30 11 C -1.4931 1.2248 -2.5017 0
M  V30 12 C 2.0111 -0.5717 0.5902 0
M  V30 13 C 2.5178 -0.3027 -1.7976 0
M  V30 14 C -2.3984 2.2588 -2.2607 0
M  V30 15 C -1.1207 0.9255 -3.8197 0
M  V30 16 O 3.0739 -0.0086 0.8671 0
M  V30 17 C 1.0486 -1.1082 1.6766 0
M  V30 18 F -2.8027 2.5514 -1.0166 0
M  V30 19 C -2.9384 2.9883 -3.3174 0
M  V30 20 C -1.6622 1.6582 -4.8794 0
M  V30 21 N 1.2963 -0.5169 3.0171 0
M  V30 22 C -2.5701 2.6882 -4.6286 0
M  V30 23 C 0.9931 0.9364 3.064 0 CFG=2
M  V30 24 C 0.624 -1.3106 4.0437 0
M  V30 25 C 1.7117 1.6465 4.2338 0
M  V30 26 C -0.5093 1.2628 3.1367 0
M  V30 27 C 3.1782 1.5682 4.1571 0
M  V30 28 N 4.3396 1.5654 4.1735 0
M  V30 29 H -2.7347 -1.3681 -2.126 0
M  V30 30 H -0.2244 -4.8372 -1.721 0
M  V30 31 H 1.6558 -3.4138 -0.9832 0
M  V30 32 H 1.9586 -0.1517 -2.7259 0
M  V30 33 H 2.9748 0.6476 -1.5051 0
M  V30 34 H 3.3123 -1.0371 -1.9621 0
M  V30 35 H -0.4004 0.1415 -4.0378 0
M  V30 36 H 0.0056 -0.9632 1.3846 0
M  V30 37 H 1.2373 -2.1886 1.7206 0
M  V30 38 H -3.6455 3.7861 -3.1094 0
M  V30 39 H -1.3709 1.4316 -5.9031 0
M  V30 40 H -2.9885 3.2594 -5.4544 0
M  V30 41 H 1.3718 1.4074 2.1483 0
M  V30 42 H 0.8114 -0.9158 5.0467 0
M  V30 43 H 1.015 -2.3346 4.0452 0
M  V30 44 H -0.4588 -1.3679 3.8887 0
M  V30 45 H 1.43 2.7077 4.2325 0
M  V30 46 H 1.375 1.2491 5.1982 0
M  V30 47 H -0.9447 0.969 4.0978 0
M  V30 48 H -0.6677 2.3413 3.0232 0
M  V30 49 H -1.0752 0.7696 2.3417 0
M  V30 END ATOM
M  V30 BEGIN BOND
M  V30 1 1 1 2
M  V30 2 2 2 3
M  V30 3 1 2 4
M  V30 4 1 3 5
M  V30 5 2 4 6
M  V30 6 2 5 7
M  V30 7 1 5 8
M  V30 8 1 7 9
M  V30 9 2 8 10
M  V30 10 1 8 11
M  V30 11 1 9 12
M  V30 12 1 9 13
M  V30 13 2 11 14
M  V30 14 1 11 15
M  V30 15 2 12 16
M  V30 16 1 12 17
M  V30 17 1 14 18
M  V30 18 1 14 19
M  V30 19 2 15 20
M  V30 20 1 17 21
M  V30 21 2 19 22
M  V30 22 1 21 23
M  V30 23 1 21 24
M  V30 24 1 23 25
M  V30 25 1 23 26
M  V30 26 1 25 27
M  V30 27 3 27 28
M  V30 28 1 6 7
M  V30 29 1 20 22
M  V30 30 1 3 29
M  V30 31 1 4 30
M  V30 32 1 6 31
M  V30 33 1 13 32
M  V30 34 1 13 33
M  V30 35 1 13 34
M  V30 36 1 15 35
M  V30 37 1 17 36
M  V30 38 1 17 37
M  V30 39 1 19 38
M  V30 40 1 20 39
M  V30 41 1 22 40
M  V30 42 1 23 41
M  V30 43 1 24 42
M  V30 44 1 24 43
M  V30 45 1 24 44
M  V30 46 1 25 45
M  V30 47 1 25 46
M  V30 48 1 26 47
M  V30 49 1 26 48
M  V30 50 1 26 49
M  V30 END BOND
M  V30 BEGIN COLLECTION
M  V30 MDLV30/STERAC1 ATOMS=(1 23)
M  V30 END COLLECTION
M  V30 END CTAB
M  END
>  <Column 1>
1131

>  <level_0>
1272

>  <index>
1272

>  <Unnamed: 0>
1272

>  <NO.>
1284

>  <Name>
alozafone

>  <IUPAC_name>
n-[4-chloro-2-(2-fluorobenzoyl)phenyl]-2-[1-cyanopropan-2-yl(methyl)amino]-n-methylacetamide

>  <SMILES>
CC(CC#N)N(C)CC(=O)N(C)c1ccc(Cl)cc1C(=O)c1ccccc1F

>  <CID>
172288

>  <logBB>


>  <BBB+/BBB->
BBB+

>  <Inchi>
InChI=1S/C21H21ClFN3O2/c1-14(10-11-24)25(2)13-20(27)26(3)19-9-8-15(22)12-17(19)21(28)16-6-4-5-7-18(16)23/h4-9-12-14H-10-13H2-1-3H3

>  <threshold>
-1

>  <reference>
R1|R19|R6|R27|R27|R30|

>  <group>
B

>  <Class>
1

>  <ABC>
20.99

>  <ABCGG>
18.21

>  <nAcid>
0

>  <nBase>
1

>  <nAromAtom>
12

>  <nAromBond>
12

>  <nAtom>
49

>  <nHeavyAtom>
28

>  <nSpiro>
0

>  <nBridgehead>
0

>  <nHetero>
7

>  <nN>
3

>  <nO>
2

>  <nF>
1

>  <BalabanJ>
2.04

>  <BertzCT>
926.11

>  <nBonds>
50

>  <nBondsO>
29

>  <nBondsS>
35

>  <nBondsD>
2

>  <nBondsT>
1

>  <nBondsA>
12

>  <nBondsM>
15

>  <nBondsKS>
41

>  <nBondsKD>
8

>  <RNCG>
0.16

>  <RPCG>
0.12

>  <FCSP3>
0.29

>  <SZ>
35

>  <Sm>
33.46

>  <Sv>
32.13

>  <Sse>
49.7

>  <Sp>
33.96

>  <Si>
55.35

>  <MZ>
0.71

>  <Mm>
0.68

>  <Mv>
0.66

>  <Mse>
1.01

>  <Mp>
0.69

>  <Mi>
1.13

>  <NsCH3>
3

>  <NdCH2>
0

>  <NssCH2>
2

>  <NtCH>
0

>  <NdsCH>
0

>  <NaaCH>
7

>  <NsssCH>
1

>  <NddC>
0

>  <NtsC>
1

>  <NdssC>
2

>  <NaasC>
5

>  <NaaaC>
0

>  <NssssC>
0

>  <NsNH3>
0

>  <NsNH2>
0

>  <NssNH2>
0

>  <NdNH>
0

>  <NssNH>
0

>  <NaaNH>
0

>  <NtN>
1

>  <NsssNH>
0

>  <NdsN>
0

>  <NaaN>
0

>  <NsssN>
2

>  <NddsN>
0

>  <NaasN>
0

>  <NssssN>
0

>  <NsOH>
0

>  <NdO>
2

>  <NssO>
0

>  <NaaO>
0

>  <NsF>
1

>  <NsSiH3>
0

>  <NssSiH2>
0

>  <NsssSiH>
0

>  <NssssSi>
0

>  <NsPH2>
0

>  <NssPH>
0

>  <NsssP>
0

>  <NdsssP>
0

>  <NsssssP>
0

>  <NsSH>
0

>  <NdS>
0

>  <NssS>
0

>  <NaaS>
0

>  <NdssS>
0

>  <NddssS>
0

>  <NsCl>
1

>  <NsBr>
0

>  <NsI>
0

>  <fragCpx>
85.07

>  <fMF>
0.27

>  <nHBAcc>
4

>  <nHBDon>
0

>  <Kier1>
24.27

>  <Kier2>
11.41

>  <Lipinski>
1

>  <GhoseFilter>
1

>  <FilterItLogS>
-5.35

>  <VMcGowan>
297.71

>  <LabuteASA>
168.48

>  <PEOE_VSA1>
4.9

>  <PEOE_VSA2>
14.49

>  <PEOE_VSA3>
4.39

>  <PEOE_VSA4>
5.26

>  <PEOE_VSA5>
0

>  <PEOE_VSA6>
23.73

>  <PEOE_VSA7>
44.3

>  <PEOE_VSA8>
23.68

>  <PEOE_VSA9>
30.29

>  <PEOE_VSA10>
5.82

>  <PEOE_VSA11>
5.78

>  <PEOE_VSA12>
5.91

>  <PEOE_VSA13>
0

>  <SMR_VSA1>
13.98

>  <SMR_VSA2>
5.26

>  <SMR_VSA3>
4.9

>  <SMR_VSA4>
0

>  <SMR_VSA5>
19.39

>  <SMR_VSA6>
25.54

>  <SMR_VSA7>
64.43

>  <SMR_VSA8>
0

>  <SMR_VSA9>
6.07

>  <SlogP_VSA1>
4.9

>  <SlogP_VSA2>
43.27

>  <SlogP_VSA3>
4.79

>  <SlogP_VSA4>
17.15

>  <SlogP_VSA5>
29.27

>  <SlogP_VSA6>
42.46

>  <SlogP_VSA7>
5.02

>  <SlogP_VSA8>
0

>  <SlogP_VSA9>
0

>  <SlogP_VSA10>
10.08

>  <SlogP_VSA11>
0

>  <EState_VSA1>
11.6

>  <EState_VSA2>
29.62

>  <EState_VSA3>
17.13

>  <EState_VSA4>
0

>  <EState_VSA5>
29.17

>  <EState_VSA6>
37.19

>  <EState_VSA7>
6.92

>  <EState_VSA8>
6.07

>  <EState_VSA9>
16.86

>  <EState_VSA10>
13.98

>  <VSA_EState1>
14.08

>  <VSA_EState2>
28.72

>  <VSA_EState3>
9.12

>  <VSA_EState4>
0.39

>  <VSA_EState5>
-1.46

>  <VSA_EState6>
12.21

>  <VSA_EState7>
0.3

>  <VSA_EState8>
1.92

>  <VSA_EState9>
3.3

>  <apol>
56.71

>  <bpol>
28.42

>  <nRing>
2

>  <nHRing>
0

>  <naRing>
2

>  <naHRing>
0

>  <nARing 2>
0

>  <nAHRing 2>
0

>  <nFRing>
0

>  <nFHRing>
0

>  <nFaRing>
0

>  <nFaHRing>
0

>  <nFARing 2>
0

>  <nFAHRing 2>
0

>  <nRot>
7

>  <SLogP>
3.91

>  <SMR>
107.02

>  <TopoPSA(NO)>
64.41

>  <TopoPSA>
64.41

>  <JGI1>
0.21

>  <JGI2>
0.11

>  <JGI3>
0.06

>  <JGI4>
0.04

>  <JGI5>
0.03

>  <Diameter>
14

>  <Radius>
7

>  <TMWC10>
132.48

>  <TSRW10>
62.99

>  <MW>
401.13

>  <AMW>
8.19

>  <WPath>
2088

>  <WPol>
45

>  <Zagreb1>
138

>  <Zagreb2>
160

>  <mZagreb2>
6.36

>  <yes>


>  <nAR-cont>
0.336376

>  <nHA-cont>
0.82432561

>  <MWHBN>
0.199718097

>  <MWHBN-cont>
0.999565555

>  <TPSA-cont>
0.550378204

>  <pka_cont>
0.97

>  <yes.1>


>  <BBB_SCORE>
4.24580635

>  <MMFF94 Energy>
124.36

$$$$
Compound 946
Actelion Java MolfileCreator 2.0

  0  0  0  0  0  0              0 V3000
M  V30 BEGIN CTAB
M  V30 COUNTS 29 28 0 0 0
M  V30 BEGIN ATOM
M  V30 1 Cl 0.6529 -0.5713 -4.0043 0
M  V30 2 C 0.5612 -2.14 -3.1376 0
M  V30 3 Cl -0.8521 -3.0667 -3.7501 0
M  V30 4 Cl 2.0469 -3.0777 -3.5211 0
M  V30 5 C 0.4436 -1.9179 -1.5899 0
M  V30 6 O -0.6999 -1.1205 -1.2596 0
M  V30 7 O 0.3463 -3.1423 -0.8536 0
M  V30 8 C -0.6455 -0.5435 0.0578 0
M  V30 9 C 0.0214 0.8414 -0.0539 0
M  V30 10 C -2.0878 -0.4853 0.5486 0
M  V30 11 C 0.205 1.6433 1.2504 0
M  V30 12 O -1.0651 2.053 1.7552 0
M  V30 13 C 1.0158 2.9138 0.964 0
M  V30 14 C 0.8976 0.8321 2.3459 0
M  V30 15 H 1.3522 -1.4091 -1.2458 0
M  V30 16 H -0.3764 -3.6476 -1.2686 0
M  V30 17 H -0.0763 -1.1998 0.7256 0
M  V30 18 H -0.5639 1.4396 -0.7666 0
M  V30 19 H 1.0031 0.7125 -0.528 0
M  V30 20 H -2.1502 -0.199 1.6014 0
M  V30 21 H -2.6793 0.2181 -0.0475 0
M  V30 22 H -2.5653 -1.4659 0.44 0
M  V30 23 H -1.482 2.6367 1.0973 0
M  V30 24 H 1.0963 3.5371 1.8621 0
M  V30 25 H 0.5214 3.5303 0.2043 0
M  V30 26 H 2.0259 2.6778 0.6134 0
M  V30 27 H 1.0755 1.4512 3.2333 0
M  V30 28 H 1.8594 0.4349 2.0058 0
M  V30 29 H 0.272 -1.0E-4 2.6855 0
M  V30 END ATOM
M  V30 BEGIN BOND
M  V30 1 1 1 2
M  V30 2 1 2 3
M  V30 3 1 2 4
M  V30 4 1 2 5
M  V30 5 1 5 6
M  V30 6 1 5 7
M  V30 7 1 6 8
M  V30 8 1 8 9
M  V30 9 1 8 10
M  V30 10 1 9 11
M  V30 11 1 11 12
M  V30 12 1 11 13
M  V30 13 1 11 14
M  V30 14 1 5 15
M  V30 15 1 7 16
M  V30 16 1 8 17
M  V30 17 1 9 18
M  V30 18 1 9 19
M  V30 19 1 10 20
M  V30 20 1 10 21
M  V30 21 1 10 22
M  V30 22 1 12 23
M  V30 23 1 13 24
M  V30 24 1 13 25
M  V30 25 1 13 26
M  V30 26 1 14 27
M  V30 27 1 14 28
M  V30 28 1 14 29
M  V30 END BOND
M  V30 END CTAB
M  END
>  <Column 1>
1132

>  <level_0>
1273

>  <index>
1273

>  <Unnamed: 0>
1273

>  <NO.>
1285

>  <Name>
chloralodol

>  <IUPAC_name>
2-methyl-4-(2-2-2-trichloro-1-hydroxyethoxy)pentan-2-ol

>  <SMILES>
CC(CC(C)(C)O)OC(O)C(Cl)(Cl)Cl

>  <CID>
19094

>  <logBB>


>  <BBB+/BBB->
BBB+

>  <Inchi>
InChI=1S/C8H15Cl3O3/c1-5(4-7(2-3)13)14-6(12)8(9-10)11/h5-6-12-13H-4H2-1-3H3

>  <threshold>
-1

>  <reference>
R1|R19|R6|R27|R27|R30|

>  <group>
B

>  <Class>
1

>  <ABC>
10.3

>  <ABCGG>
10.29

>  <nAcid>
0

>  <nBase>
0

>  <nAromAtom>
0

>  <nAromBond>
0

>  <nAtom>
29

>  <nHeavyAtom>
14

>  <nSpiro>
0

>  <nBridgehead>
0

>  <nHetero>
6

>  <nN>
0

>  <nO>
3

>  <nF>
0

>  <BalabanJ>
4.01

>  <BertzCT>
173.65

>  <nBonds>
28

>  <nBondsO>
13

>  <nBondsS>
28

>  <nBondsD>
0

>  <nBondsT>
0

>  <nBondsA>
0

>  <nBondsM>
0

>  <nBondsKS>
28

>  <nBondsKD>
0

>  <RNCG>
0.27

>  <RPCG>
0.17

>  <FCSP3>
1

>  <SZ>
23

>  <Sm>
22.11

>  <Sv>
17.48

>  <Sse>
29.95

>  <Sp>
19.35

>  <Si>
33.2

>  <MZ>
0.79

>  <Mm>
0.76

>  <Mv>
0.6

>  <Mse>
1.03

>  <Mp>
0.67

>  <Mi>
1.14

>  <NsCH3>
3

>  <NdCH2>
0

>  <NssCH2>
1

>  <NtCH>
0

>  <NdsCH>
0

>  <NaaCH>
0

>  <NsssCH>
2

>  <NddC>
0

>  <NtsC>
0

>  <NdssC>
0

>  <NaasC>
0

>  <NaaaC>
0

>  <NssssC>
2

>  <NsNH3>
0

>  <NsNH2>
0

>  <NssNH2>
0

>  <NdNH>
0

>  <NssNH>
0

>  <NaaNH>
0

>  <NtN>
0

>  <NsssNH>
0

>  <NdsN>
0

>  <NaaN>
0

>  <NsssN>
0

>  <NddsN>
0

>  <NaasN>
0

>  <NssssN>
0

>  <NsOH>
2

>  <NdO>
0

>  <NssO>
1

>  <NaaO>
0

>  <NsF>
0

>  <NsSiH3>
0

>  <NssSiH2>
0

>  <NsssSiH>
0

>  <NssssSi>
0

>  <NsPH2>
0

>  <NssPH>
0

>  <NsssP>
0

>  <NdsssP>
0

>  <NsssssP>
0

>  <NsSH>
0

>  <NdS>
0

>  <NssS>
0

>  <NaaS>
0

>  <NdssS>
0

>  <NddssS>
0

>  <NsCl>
3

>  <NsBr>
0

>  <NsI>
0

>  <fragCpx>
13.06

>  <fMF>
0

>  <nHBAcc>
3

>  <nHBDon>
2

>  <Kier1>
14

>  <Kier2>
4.68

>  <Lipinski>
1

>  <GhoseFilter>
1

>  <FilterItLogS>
-2.08

>  <VMcGowan>
177.91

>  <LabuteASA>
98.91

>  <PEOE_VSA1>
14.95

>  <PEOE_VSA2>
0

>  <PEOE_VSA3>
0

>  <PEOE_VSA4>
0

>  <PEOE_VSA5>
0

>  <PEOE_VSA6>
34.8

>  <PEOE_VSA7>
20.77

>  <PEOE_VSA8>
6.42

>  <PEOE_VSA9>
11.71

>  <PEOE_VSA10>
0

>  <PEOE_VSA11>
0

>  <PEOE_VSA12>
10.08

>  <PEOE_VSA13>
0

>  <SMR_VSA1>
14.95

>  <SMR_VSA2>
0

>  <SMR_VSA3>
0

>  <SMR_VSA4>
0

>  <SMR_VSA5>
48.98

>  <SMR_VSA6>
0

>  <SMR_VSA7>
0

>  <SMR_VSA8>
0

>  <SMR_VSA9>
0

>  <SlogP_VSA1>
0

>  <SlogP_VSA2>
32

>  <SlogP_VSA3>
4.74

>  <SlogP_VSA4>
0

>  <SlogP_VSA5>
27.19

>  <SlogP_VSA6>
0

>  <SlogP_VSA7>
0

>  <SlogP_VSA8>
0

>  <SlogP_VSA9>
0

>  <SlogP_VSA10>
0

>  <SlogP_VSA11>
0

>  <EState_VSA1>
21.79

>  <EState_VSA2>
0

>  <EState_VSA3>
6.42

>  <EState_VSA4>
0

>  <EState_VSA5>
0

>  <EState_VSA6>
20.77

>  <EState_VSA7>
0

>  <EState_VSA8>
0

>  <EState_VSA9>
39.54

>  <EState_VSA10>
10.21

>  <VSA_EState1>
3.12

>  <VSA_EState2>
0

>  <VSA_EState3>
18.7

>  <VSA_EState4>
-0.88

>  <VSA_EState5>
0

>  <VSA_EState6>
0

>  <VSA_EState7>
-1.56

>  <VSA_EState8>
4.95

>  <VSA_EState9>
0

>  <apol>
32.31

>  <bpol>
18.31

>  <nRing>
0

>  <nHRing>
0

>  <naRing>
0

>  <naHRing>
0

>  <nARing 2>
0

>  <nAHRing 2>
0

>  <nFRing>
0

>  <nFHRing>
0

>  <nFaRing>
0

>  <nFaHRing>
0

>  <nFARing 2>
0

>  <nFAHRing 2>
0

>  <nRot>
4

>  <SLogP>
2.24

>  <SMR>
57.76

>  <TopoPSA(NO)>
49.69

>  <TopoPSA>
49.69

>  <JGI1>
0.54

>  <JGI2>
0.1

>  <JGI3>
0.08

>  <JGI4>
0.05

>  <JGI5>
0.03

>  <Diameter>
7

>  <Radius>
4

>  <TMWC10>
93.76

>  <TSRW10>
45.13

>  <MW>
264.01

>  <AMW>
9.1

>  <WPath>
326

>  <WPol>
15

>  <Zagreb1>
66

>  <Zagreb2>
68

>  <mZagreb2>
2.88

>  <yes>


>  <nAR-cont>
0.336376

>  <nHA-cont>
0.887625254

>  <MWHBN>
0.307722899

>  <MWHBN-cont>
0.817067949

>  <TPSA-cont>
0.653132944

>  <pka_cont>
0.97

>  <yes.1>


>  <BBB_SCORE>
4.240869066

>  <MMFF94 Energy>
73.515

$$$$
Compound 947
Actelion Java MolfileCreator 2.0

  0  0  0  0  0  0              0 V3000
M  V30 BEGIN CTAB
M  V30 COUNTS 49 51 0 0 0
M  V30 BEGIN ATOM
M  V30 1 N -1.7416 2.217 -2.2962 0
M  V30 2 C -2.2219 1.1107 -1.4543 0
M  V30 3 C -1.918 1.9917 -3.7249 0
M  V30 4 C -0.3648 2.5995 -1.9893 0
M  V30 5 C -1.5664 -0.2827 -1.6604 0 CFG=2
M  V30 6 C -1.3573 -1.0213 -0.311 0
M  V30 7 C -2.433 -1.1605 -2.5751 0
M  V30 8 C -0.2062 -0.4424 0.5688 0
M  V30 9 C -0.3117 -0.8701 2.0349 0
M  V30 10 C 1.2315 -0.6127 0.0683 0
M  V30 11 C 0.2223 -0.0183 3.0267 0
M  V30 12 C -0.8751 -2.0936 2.4302 0
M  V30 13 C 2.3058 0.105 0.6535 0
M  V30 14 C 1.5255 -1.4974 -0.9909 0
M  V30 15 C 0.1412 -0.3794 4.3792 0
M  V30 16 C 0.9157 1.259 2.622 0
M  V30 17 C -0.9486 -2.4438 3.7797 0
M  V30 18 C 3.6042 -0.05 0.1155 0
M  V30 19 C 2.2312 1.0097 1.8766 0
M  V30 20 C 2.818 -1.638 -1.4988 0
M  V30 21 C -0.4478 -1.5851 4.7531 0
M  V30 22 C 3.858 -0.9054 -0.952 0
M  V30 23 H -2.1274 1.4325 -0.4105 0
M  V30 24 H -3.3074 1.0241 -1.5994 0
M  V30 25 H -2.9584 1.7355 -3.9524 0
M  V30 26 H -1.2677 1.1995 -4.1103 0
M  V30 27 H -1.696 2.9079 -4.2839 0
M  V30 28 H 0.363 1.8295 -2.2641 0
M  V30 29 H -0.2508 2.8173 -0.9216 0
M  V30 30 H -0.0988 3.5192 -2.5226 0
M  V30 31 H -0.5958 -0.1717 -2.1512 0
M  V30 32 H -2.3037 -0.9631 0.2456 0
M  V30 33 H -1.188 -2.0896 -0.4936 0
M  V30 34 H -2.598 -0.6936 -3.5494 0
M  V30 35 H -3.412 -1.3557 -2.1239 0
M  V30 36 H -1.948 -2.1263 -2.7543 0
M  V30 37 H -0.3909 0.635 0.5367 0
M  V30 38 H -1.2597 -2.7963 1.6965 0
M  V30 39 H 0.7498 -2.1015 -1.4523 0
M  V30 40 H 0.5484 0.2711 5.1494 0
M  V30 41 H 0.2387 1.8882 2.0331 0
M  V30 42 H 1.1379 1.8563 3.5163 0
M  V30 43 H -1.3927 -3.3924 4.0696 0
M  V30 44 H 4.4398 0.4952 0.5522 0
M  V30 45 H 2.6244 1.992 1.5812 0
M  V30 46 H 2.9394 0.5968 2.6099 0
M  V30 47 H 3.0067 -2.3233 -2.3207 0
M  V30 48 H -0.5032 -1.8609 5.8026 0
M  V30 49 H 4.8668 -1.0105 -1.3401 0
M  V30 END ATOM
M  V30 BEGIN BOND
M  V30 1 1 1 2
M  V30 2 1 1 3
M  V30 3 1 1 4
M  V30 4 1 2 5
M  V30 5 1 5 6
M  V30 6 1 5 7
M  V30 7 1 6 8
M  V30 8 1 8 9
M  V30 9 1 8 10
M  V30 10 2 9 11
M  V30 11 1 9 12
M  V30 12 2 10 13
M  V30 13 1 10 14
M  V30 14 1 11 15
M  V30 15 1 11 16
M  V30 16 2 12 17
M  V30 17 1 13 18
M  V30 18 1 13 19
M  V30 19 2 14 20
M  V30 20 2 15 21
M  V30 21 2 18 22
M  V30 22 1 16 19
M  V30 23 1 17 21
M  V30 24 1 20 22
M  V30 25 1 2 23
M  V30 26 1 2 24
M  V30 27 1 3 25
M  V30 28 1 3 26
M  V30 29 1 3 27
M  V30 30 1 4 28
M  V30 31 1 4 29
M  V30 32 1 4 30
M  V30 33 1 5 31
M  V30 34 1 6 32
M  V30 35 1 6 33
M  V30 36 1 7 34
M  V30 37 1 7 35
M  V30 38 1 7 36
M  V30 39 1 8 37
M  V30 40 1 12 38
M  V30 41 1 14 39
M  V30 42 1 15 40
M  V30 43 1 16 41
M  V30 44 1 16 42
M  V30 45 1 17 43
M  V30 46 1 18 44
M  V30 47 1 19 45
M  V30 48 1 19 46
M  V30 49 1 20 47
M  V30 50 1 21 48
M  V30 51 1 22 49
M  V30 END BOND
M  V30 BEGIN COLLECTION
M  V30 MDLV30/STERAC1 ATOMS=(1 5)
M  V30 END COLLECTION
M  V30 END CTAB
M  END
>  <Column 1>
1133

>  <level_0>
1274

>  <index>
1274

>  <Unnamed: 0>
1274

>  <NO.>
1286

>  <Name>
butriptyline

>  <IUPAC_name>
n-n-2-trimethyl-3-(2-tricyclo[9.4.0.03-8]pentadeca-1(15)-3-5-7-11-13-hexaenyl)propan-1-amine

>  <SMILES>
CC(CC1c2ccccc2CCc2ccccc21)CN(C)C

>  <CID>
21772

>  <logBB>


>  <BBB+/BBB->
BBB+

>  <Inchi>
InChI=1S/C21H27N/c1-16(15-22(2)3)14-21-19-10-6-4-8-17(19)12-13-18-9-5-7-11-20(18)21/h4-11-16-21H-12-15H2-1-3H3

>  <threshold>
-1

>  <reference>
R1|R13|R19|R6|R27|R27|R30|

>  <group>
B

>  <Class>
1

>  <ABC>
17.14

>  <ABCGG>
14.01

>  <nAcid>
0

>  <nBase>
1

>  <nAromAtom>
12

>  <nAromBond>
12

>  <nAtom>
49

>  <nHeavyAtom>
22

>  <nSpiro>
0

>  <nBridgehead>
0

>  <nHetero>
1

>  <nN>
1

>  <nO>
0

>  <nF>
0

>  <BalabanJ>
1.75

>  <BertzCT>
581.81

>  <nBonds>
51

>  <nBondsO>
24

>  <nBondsS>
39

>  <nBondsD>
0

>  <nBondsT>
0

>  <nBondsA>
12

>  <nBondsM>
12

>  <nBondsKS>
45

>  <nBondsKD>
6

>  <RNCG>
0.27

>  <RPCG>
0.05

>  <FCSP3>
0.43

>  <SZ>
26.67

>  <Sm>
24.43

>  <Sv>
29.07

>  <Sse>
47.65

>  <Sp>
32.44

>  <Si>
54.9

>  <MZ>
0.54

>  <Mm>
0.5

>  <Mv>
0.59

>  <Mse>
0.97

>  <Mp>
0.66

>  <Mi>
1.12

>  <NsCH3>
3

>  <NdCH2>
0

>  <NssCH2>
4

>  <NtCH>
0

>  <NdsCH>
0

>  <NaaCH>
8

>  <NsssCH>
2

>  <NddC>
0

>  <NtsC>
0

>  <NdssC>
0

>  <NaasC>
4

>  <NaaaC>
0

>  <NssssC>
0

>  <NsNH3>
0

>  <NsNH2>
0

>  <NssNH2>
0

>  <NdNH>
0

>  <NssNH>
0

>  <NaaNH>
0

>  <NtN>
0

>  <NsssNH>
0

>  <NdsN>
0

>  <NaaN>
0

>  <NsssN>
1

>  <NddsN>
0

>  <NaasN>
0

>  <NssssN>
0

>  <NsOH>
0

>  <NdO>
0

>  <NssO>
0

>  <NaaO>
0

>  <NsF>
0

>  <NsSiH3>
0

>  <NssSiH2>
0

>  <NsssSiH>
0

>  <NssssSi>
0

>  <NsPH2>
0

>  <NssPH>
0

>  <NsssP>
0

>  <NdsssP>
0

>  <NsssssP>
0

>  <NsSH>
0

>  <NdS>
0

>  <NssS>
0

>  <NaaS>
0

>  <NdssS>
0

>  <NddssS>
0

>  <NsCl>
0

>  <NsBr>
0

>  <NsI>
0

>  <fragCpx>
114.01

>  <fMF>
0.31

>  <nHBAcc>
1

>  <nHBDon>
0

>  <Kier1>
16.84

>  <Kier2>
7.71

>  <Lipinski>
1

>  <GhoseFilter>
1

>  <FilterItLogS>
-5.65

>  <VMcGowan>
258.35

>  <LabuteASA>
134.53

>  <PEOE_VSA1>
4.9

>  <PEOE_VSA2>
0

>  <PEOE_VSA3>
0

>  <PEOE_VSA4>
0

>  <PEOE_VSA5>
0

>  <PEOE_VSA6>
55.45

>  <PEOE_VSA7>
61.53

>  <PEOE_VSA8>
12.46

>  <PEOE_VSA9>
0

>  <PEOE_VSA10>
0

>  <PEOE_VSA11>
0

>  <PEOE_VSA12>
0

>  <PEOE_VSA13>
0

>  <SMR_VSA1>
0

>  <SMR_VSA2>
0

>  <SMR_VSA3>
4.9

>  <SMR_VSA4>
5.92

>  <SMR_VSA5>
32.1

>  <SMR_VSA6>
20.64

>  <SMR_VSA7>
70.78

>  <SMR_VSA8>
0

>  <SMR_VSA9>
0

>  <SlogP_VSA1>
0

>  <SlogP_VSA2>
25.54

>  <SlogP_VSA3>
12.84

>  <SlogP_VSA4>
5.92

>  <SlogP_VSA5>
41.52

>  <SlogP_VSA6>
48.53

>  <SlogP_VSA7>
0

>  <SlogP_VSA8>
0

>  <SlogP_VSA9>
0

>  <SlogP_VSA10>
0

>  <SlogP_VSA11>
0

>  <EState_VSA1>
0

>  <EState_VSA2>
0

>  <EState_VSA3>
11.84

>  <EState_VSA4>
6.54

>  <EState_VSA5>
19.26

>  <EState_VSA6>
22.25

>  <EState_VSA7>
0

>  <EState_VSA8>
74.45

>  <EState_VSA9>
0

>  <EState_VSA10>
0

>  <VSA_EState1>
0

>  <VSA_EState2>
2.3

>  <VSA_EState3>
0

>  <VSA_EState4>
6.19

>  <VSA_EState5>
1.24

>  <VSA_EState6>
18.14

>  <VSA_EState7>
3.57

>  <VSA_EState8>
3.54

>  <VSA_EState9>
4.34

>  <apol>
54.17

>  <bpol>
28.8

>  <nRing>
3

>  <nHRing>
0

>  <naRing>
2

>  <naHRing>
0

>  <nARing 2>
1

>  <nAHRing 2>
0

>  <nFRing>
1

>  <nFHRing>
0

>  <nFaRing>
0

>  <nFaHRing>
0

>  <nFARing 2>
1

>  <nFAHRing 2>
0

>  <nRot>
4

>  <SLogP>
4.5

>  <SMR>
94.47

>  <TopoPSA(NO)>
3.24

>  <TopoPSA>
3.24

>  <JGI1>
0.17

>  <JGI2>
0.07

>  <JGI3>
0.04

>  <JGI4>
0.03

>  <JGI5>
0.02

>  <Diameter>
9

>  <Radius>
5

>  <TMWC10>
120.17

>  <TSRW10>
64.11

>  <MW>
293.21

>  <AMW>
5.98

>  <WPath>
979

>  <WPol>
37

>  <Zagreb1>
114

>  <Zagreb2>
133

>  <mZagreb2>
4.86

>  <yes>


>  <nAR-cont>
0.816016

>  <nHA-cont>
0.983774276

>  <MWHBN>
0.058399699

>  <MWHBN-cont>
0.440209866

>  <TPSA-cont>
0.977382788

>  <pka_cont>
0.97

>  <yes.1>


>  <BBB_SCORE>
4.899870651

>  <MMFF94 Energy>
90.563

$$$$
Compound 948
Actelion Java MolfileCreator 2.0

  0  0  0  0  0  0              0 V3000
M  V30 BEGIN CTAB
M  V30 COUNTS 51 53 0 0 0
M  V30 BEGIN ATOM
M  V30 1 F 2.6997 1.7462 -8.675 0
M  V30 2 C 2.353 1.5247 -7.4005 0
M  V30 3 C 1.6829 0.3593 -7.0638 0
M  V30 4 C 2.6716 2.4601 -6.4295 0
M  V30 5 C 1.3235 0.1294 -5.7308 0
M  V30 6 C 2.3068 2.2229 -5.1001 0
M  V30 7 C 1.6176 1.0578 -4.7173 0
M  V30 8 N 1.2748 0.8461 -3.386 0
M  V30 9 C 0.543 1.9152 -2.6809 0
M  V30 10 C 0.9767 -0.5101 -2.9 0
M  V30 11 C 0.6657 1.7633 -1.1456 0
M  V30 12 C 1.1013 -0.5884 -1.3617 0
M  V30 13 N 0.2761 0.4205 -0.653 0
M  V30 14 C 0.4597 0.2863 0.8028 0
M  V30 15 C -0.5243 1.1526 1.6058 0
M  V30 16 C -0.5669 0.8376 3.1132 0 CFG=1
M  V30 17 N -1.2367 -0.4347 3.3684 0
M  V30 18 C 0.8163 0.8675 3.7638 0
M  V30 19 C -1.806 -0.7223 4.5934 0
M  V30 20 O -1.8293 0.067 5.5311 0
M  V30 21 C -2.4442 -2.0506 4.7397 0
M  V30 22 C -2.0098 -3.1694 4.0419 0
M  V30 23 C -3.5022 -2.2134 5.6367 0
M  V30 24 N -2.574 -4.398 4.1524 0
M  V30 25 C -4.0973 -3.4652 5.7772 0
M  V30 26 C -3.6058 -4.5155 5.0179 0
M  V30 27 H 1.4399 -0.3642 -7.8347 0
M  V30 28 H 3.2076 3.3624 -6.7039 0
M  V30 29 H 0.7853 -0.7864 -5.5048 0
M  V30 30 H 2.5999 2.9537 -4.351 0
M  V30 31 H -0.5151 1.8733 -2.9704 0
M  V30 32 H 0.91 2.9131 -2.9434 0
M  V30 33 H 1.6802 -1.2364 -3.3254 0
M  V30 34 H -0.0382 -0.7982 -3.2017 0
M  V30 35 H 0.025 2.5288 -0.6948 0
M  V30 36 H 1.7004 1.9857 -0.8514 0
M  V30 37 H 2.1582 -0.4697 -1.0858 0
M  V30 38 H 0.794 -1.5945 -1.0511 0
M  V30 39 H 1.4928 0.5286 1.0821 0
M  V30 40 H 0.2924 -0.7626 1.0756 0
M  V30 41 H -0.2519 2.2089 1.491 0
M  V30 42 H -1.5353 1.0384 1.1927 0
M  V30 43 H -1.1772 1.616 3.5896 0
M  V30 44 H -1.3534 -1.0758 2.5953 0
M  V30 45 H 1.4372 0.0286 3.4324 0
M  V30 46 H 0.7372 0.7943 4.8539 0
M  V30 47 H 1.338 1.8012 3.5301 0
M  V30 48 H -1.161 -3.1329 3.3667 0
M  V30 49 H -3.8611 -1.3694 6.2216 0
M  V30 50 H -4.9228 -3.6165 6.4643 0
M  V30 51 H -4.0382 -5.5097 5.0921 0
M  V30 END ATOM
M  V30 BEGIN BOND
M  V30 1 1 1 2
M  V30 2 2 2 3
M  V30 3 1 2 4
M  V30 4 1 3 5
M  V30 5 2 4 6
M  V30 6 2 5 7
M  V30 7 1 7 8
M  V30 8 1 8 9
M  V30 9 1 8 10
M  V30 10 1 9 11
M  V30 11 1 10 12
M  V30 12 1 11 13
M  V30 13 1 13 14
M  V30 14 1 14 15
M  V30 15 1 15 16
M  V30 16 1 16 17
M  V30 17 1 16 18
M  V30 18 1 17 19
M  V30 19 2 19 20
M  V30 20 1 19 21
M  V30 21 2 21 22
M  V30 22 1 21 23
M  V30 23 1 22 24
M  V30 24 2 23 25
M  V30 25 2 24 26
M  V30 26 1 6 7
M  V30 27 1 12 13
M  V30 28 1 25 26
M  V30 29 1 3 27
M  V30 30 1 4 28
M  V30 31 1 5 29
M  V30 32 1 6 30
M  V30 33 1 9 31
M  V30 34 1 9 32
M  V30 35 1 10 33
M  V30 36 1 10 34
M  V30 37 1 11 35
M  V30 38 1 11 36
M  V30 39 1 12 37
M  V30 40 1 12 38
M  V30 41 1 14 39
M  V30 42 1 14 40
M  V30 43 1 15 41
M  V30 44 1 15 42
M  V30 45 1 16 43
M  V30 46 1 17 44
M  V30 47 1 18 45
M  V30 48 1 18 46
M  V30 49 1 18 47
M  V30 50 1 22 48
M  V30 51 1 23 49
M  V30 52 1 25 50
M  V30 53 1 26 51
M  V30 END BOND
M  V30 BEGIN COLLECTION
M  V30 MDLV30/STERAC1 ATOMS=(1 16)
M  V30 END COLLECTION
M  V30 END CTAB
M  END
>  <Column 1>
1134

>  <level_0>
1275

>  <index>
1275

>  <Unnamed: 0>
1275

>  <NO.>
1287

>  <Name>
niaprazine

>  <IUPAC_name>
n-[4-[4-(4-fluorophenyl)piperazin-1-yl]butan-2-yl]pyridine-3-carboxamide

>  <SMILES>
CC(CCN1CCN(c2ccc(F)cc2)CC1)NC(=O)c1cccnc1

>  <CID>
71919

>  <logBB>


>  <BBB+/BBB->
BBB+

>  <Inchi>
InChI=1S/C20H25FN4O/c1-16(23-20(26)17-3-2-9-22-15-17)8-10-24-11-13-25(14-12-24)19-6-4-18(21)5-7-19/h2-7-9-15-16H-8-10-14H2-1H3-(H-23-26)

>  <threshold>
-1

>  <reference>
R1|R19|R6|R27|R27|R30|

>  <group>
B

>  <Class>
-1

>  <ABC>
20.05

>  <ABCGG>
14.75

>  <nAcid>
0

>  <nBase>
1

>  <nAromAtom>
12

>  <nAromBond>
12

>  <nAtom>
51

>  <nHeavyAtom>
26

>  <nSpiro>
0

>  <nBridgehead>
0

>  <nHetero>
6

>  <nN>
4

>  <nO>
1

>  <nF>
1

>  <BalabanJ>
1.29

>  <BertzCT>
699.51

>  <nBonds>
53

>  <nBondsO>
28

>  <nBondsS>
40

>  <nBondsD>
1

>  <nBondsT>
0

>  <nBondsA>
12

>  <nBondsM>
13

>  <nBondsKS>
46

>  <nBondsKD>
7

>  <RNCG>
0.18

>  <RPCG>
0.12

>  <FCSP3>
0.4

>  <SZ>
31.67

>  <Sm>
29.68

>  <Sv>
31.17

>  <Sse>
51.04

>  <Sp>
33.43

>  <Si>
58.11

>  <MZ>
0.62

>  <Mm>
0.58

>  <Mv>
0.61

>  <Mse>
1

>  <Mp>
0.66

>  <Mi>
1.14

>  <NsCH3>
1

>  <NdCH2>
0

>  <NssCH2>
6

>  <NtCH>
0

>  <NdsCH>
0

>  <NaaCH>
8

>  <NsssCH>
1

>  <NddC>
0

>  <NtsC>
0

>  <NdssC>
1

>  <NaasC>
3

>  <NaaaC>
0

>  <NssssC>
0

>  <NsNH3>
0

>  <NsNH2>
0

>  <NssNH2>
0

>  <NdNH>
0

>  <NssNH>
1

>  <NaaNH>
0

>  <NtN>
0

>  <NsssNH>
0

>  <NdsN>
0

>  <NaaN>
1

>  <NsssN>
2

>  <NddsN>
0

>  <NaasN>
0

>  <NssssN>
0

>  <NsOH>
0

>  <NdO>
1

>  <NssO>
0

>  <NaaO>
0

>  <NsF>
1

>  <NsSiH3>
0

>  <NssSiH2>
0

>  <NsssSiH>
0

>  <NssssSi>
0

>  <NsPH2>
0

>  <NssPH>
0

>  <NsssP>
0

>  <NdsssP>
0

>  <NsssssP>
0

>  <NsSH>
0

>  <NdS>
0

>  <NssS>
0

>  <NaaS>
0

>  <NdssS>
0

>  <NddssS>
0

>  <NsCl>
0

>  <NsBr>
0

>  <NsI>
0

>  <fragCpx>
134.06

>  <fMF>
0.45

>  <nHBAcc>
4

>  <nHBDon>
1

>  <Kier1>
20.73

>  <Kier2>
10.52

>  <Lipinski>
1

>  <GhoseFilter>
1

>  <FilterItLogS>
-4.59

>  <VMcGowan>
277.53

>  <LabuteASA>
153.38

>  <PEOE_VSA1>
10.22

>  <PEOE_VSA2>
14.68

>  <PEOE_VSA3>
4.39

>  <PEOE_VSA4>
0

>  <PEOE_VSA5>
0

>  <PEOE_VSA6>
0

>  <PEOE_VSA7>
49.74

>  <PEOE_VSA8>
56.85

>  <PEOE_VSA9>
5.56

>  <PEOE_VSA10>
5.82

>  <PEOE_VSA11>
0

>  <PEOE_VSA12>
0

>  <PEOE_VSA13>
5.91

>  <SMR_VSA1>
9.18

>  <SMR_VSA2>
0

>  <SMR_VSA3>
15.2

>  <SMR_VSA4>
0

>  <SMR_VSA5>
19.39

>  <SMR_VSA6>
37.62

>  <SMR_VSA7>
60.17

>  <SMR_VSA8>
0

>  <SMR_VSA9>
0

>  <SlogP_VSA1>
10.22

>  <SlogP_VSA2>
54.56

>  <SlogP_VSA3>
0

>  <SlogP_VSA4>
5.82

>  <SlogP_VSA5>
23.7

>  <SlogP_VSA6>
48.79

>  <SlogP_VSA7>
0

>  <SlogP_VSA8>
0

>  <SlogP_VSA9>
0

>  <SlogP_VSA10>
10.08

>  <SlogP_VSA11>
0

>  <EState_VSA1>
0

>  <EState_VSA2>
17.77

>  <EState_VSA3>
5.56

>  <EState_VSA4>
44.83

>  <EState_VSA5>
12.13

>  <EState_VSA6>
24.53

>  <EState_VSA7>
19.06

>  <EState_VSA8>
20.1

>  <EState_VSA9>
0

>  <EState_VSA10>
9.18

>  <VSA_EState1>
13.03

>  <VSA_EState2>
20.8

>  <VSA_EState3>
3.02

>  <VSA_EState4>
1.66

>  <VSA_EState5>
-0.28

>  <VSA_EState6>
10.33

>  <VSA_EState7>
4.14

>  <VSA_EState8>
6.79

>  <VSA_EState9>
0

>  <apol>
55.83

>  <bpol>
32.19

>  <nRing>
3

>  <nHRing>
2

>  <naRing>
2

>  <naHRing>
1

>  <nARing 2>
1

>  <nAHRing 2>
1

>  <nFRing>
0

>  <nFHRing>
0

>  <nFaRing>
0

>  <nFaHRing>
0

>  <nFARing 2>
0

>  <nFAHRing 2>
0

>  <nRot>
6

>  <SLogP>
2.55

>  <SMR>
100.84

>  <TopoPSA(NO)>
48.47

>  <TopoPSA>
48.47

>  <JGI1>
0.18

>  <JGI2>
0.08

>  <JGI3>
0.03

>  <JGI4>
0.03

>  <JGI5>
0.03

>  <Diameter>
17

>  <Radius>
9

>  <TMWC10>
127.72

>  <TSRW10>
60.42

>  <MW>
356.2

>  <AMW>
6.98

>  <WPath>
2078

>  <WPol>
36

>  <Zagreb1>
130

>  <Zagreb2>
147

>  <mZagreb2>
5.81

>  <yes>


>  <nAR-cont>
0.816016

>  <nHA-cont>
0.892715677

>  <MWHBN>
0.264925063

>  <MWHBN-cont>
0.93127832

>  <TPSA-cont>
0.661649302

>  <pka_cont>
0.97

>  <yes.1>


>  <BBB_SCORE>
4.913947761

>  <MMFF94 Energy>
106.14

$$$$
Compound 949
Actelion Java MolfileCreator 2.0

  0  0  0  0  0  0              0 V3000
M  V30 BEGIN CTAB
M  V30 COUNTS 47 48 0 0 0
M  V30 BEGIN ATOM
M  V30 1 O -0.7061 -4.4791 4.3216 0
M  V30 2 C -1.1936 -3.3626 3.7085 0
M  V30 3 C -0.7867 -2.1265 4.1936 0
M  V30 4 C -2.0677 -3.4513 2.6312 0
M  V30 5 C -1.2607 -0.9576 3.5945 0
M  V30 6 C -2.5416 -2.2808 2.0334 0
M  V30 7 C -2.1497 -1.019 2.5081 0
M  V30 8 C -2.6399 0.2639 1.8614 0
M  V30 9 O -3.9675 0.0781 1.3442 0
M  V30 10 C -1.6825 0.7943 0.737 0
M  V30 11 N -1.7344 -0.0953 -0.4397 0
M  V30 12 C -2.0728 2.2364 0.3802 0
M  V30 13 C -0.9755 0.2912 -1.6319 0
M  V30 14 C 0.5345 0.4111 -1.3412 0
M  V30 15 C -1.2633 -0.7673 -2.7043 0
M  V30 16 C 1.3627 0.7856 -2.5761 0
M  V30 17 C 2.7951 1.0977 -2.215 0
M  V30 18 C 3.2242 2.4252 -2.0854 0
M  V30 19 C 3.7094 0.0615 -1.9818 0
M  V30 20 C 4.5458 2.7102 -1.7382 0
M  V30 21 C 5.0302 0.3485 -1.6341 0
M  V30 22 C 5.4484 1.6724 -1.5134 0
M  V30 23 H -1.0695 -5.2571 3.8683 0
M  V30 24 H -0.1006 -2.0724 5.0337 0
M  V30 25 H -2.3894 -4.4109 2.2407 0
M  V30 26 H -0.9289 0.0024 3.9824 0
M  V30 27 H -3.2199 -2.3522 1.1856 0
M  V30 28 H -2.7268 1.0179 2.655 0
M  V30 29 H -4.3408 0.963 1.2036 0
M  V30 30 H -0.6651 0.8028 1.1453 0
M  V30 31 H -2.7142 -0.2812 -0.6634 0
M  V30 32 H -2.1455 2.8526 1.2831 0
M  V30 33 H -1.3233 2.7067 -0.2642 0
M  V30 34 H -3.0383 2.2807 -0.1352 0
M  V30 35 H -1.3503 1.2468 -2.0165 0
M  V30 36 H 0.909 -0.5315 -0.9201 0
M  V30 37 H 0.7002 1.1786 -0.575 0
M  V30 38 H -0.8505 -1.7434 -2.4255 0
M  V30 39 H -0.8379 -0.4797 -3.6708 0
M  V30 40 H -2.3417 -0.8884 -2.861 0
M  V30 41 H 1.3613 -0.0302 -3.3084 0
M  V30 42 H 0.915 1.6516 -3.0798 0
M  V30 43 H 2.5313 3.2463 -2.2532 0
M  V30 44 H 3.3953 -0.9762 -2.0673 0
M  V30 45 H 4.871 3.7427 -1.6414 0
M  V30 46 H 5.7318 -0.4617 -1.4552 0
M  V30 47 H 6.4767 1.8949 -1.2419 0
M  V30 END ATOM
M  V30 BEGIN BOND
M  V30 1 1 1 2
M  V30 2 2 2 3
M  V30 3 1 2 4
M  V30 4 1 3 5
M  V30 5 2 4 6
M  V30 6 2 5 7
M  V30 7 1 7 8
M  V30 8 1 8 9
M  V30 9 1 8 10
M  V30 10 1 10 11
M  V30 11 1 10 12
M  V30 12 1 11 13
M  V30 13 1 13 14
M  V30 14 1 13 15
M  V30 15 1 14 16
M  V30 16 1 16 17
M  V30 17 2 17 18
M  V30 18 1 17 19
M  V30 19 1 18 20
M  V30 20 2 19 21
M  V30 21 2 20 22
M  V30 22 1 6 7
M  V30 23 1 21 22
M  V30 24 1 1 23
M  V30 25 1 3 24
M  V30 26 1 4 25
M  V30 27 1 5 26
M  V30 28 1 6 27
M  V30 29 1 8 28
M  V30 30 1 9 29
M  V30 31 1 10 30
M  V30 32 1 11 31
M  V30 33 1 12 32
M  V30 34 1 12 33
M  V30 35 1 12 34
M  V30 36 1 13 35
M  V30 37 1 14 36
M  V30 38 1 14 37
M  V30 39 1 15 38
M  V30 40 1 15 39
M  V30 41 1 15 40
M  V30 42 1 16 41
M  V30 43 1 16 42
M  V30 44 1 18 43
M  V30 45 1 19 44
M  V30 46 1 20 45
M  V30 47 1 21 46
M  V30 48 1 22 47
M  V30 END BOND
M  V30 END CTAB
M  END
>  <Column 1>
1135

>  <level_0>
1276

>  <index>
1276

>  <Unnamed: 0>
1276

>  <NO.>
1288

>  <Name>
nylidrin

>  <IUPAC_name>
4-[1-hydroxy-2-(4-phenylbutan-2-ylamino)propyl]phenol

>  <SMILES>
CC(CCc1ccccc1)NC(C)C(O)c1ccc(O)cc1

>  <CID>
4567

>  <logBB>


>  <BBB+/BBB->
BBB-

>  <Inchi>
InChI=1S/C19H25NO2/c1-14(8-9-16-6-4-3-5-7-16)20-15(2)19(22)17-10-12-18(21)13-11-17/h3-7-10-15-19-22H-8-9H2-1-2H3

>  <threshold>
-1

>  <reference>
R1|R14|R27|R30|

>  <group>
B

>  <Class>
1

>  <ABC>
16.62

>  <ABCGG>
13.6

>  <nAcid>
0

>  <nBase>
1

>  <nAromAtom>
12

>  <nAromBond>
12

>  <nAtom>
47

>  <nHeavyAtom>
22

>  <nSpiro>
0

>  <nBridgehead>
0

>  <nHetero>
3

>  <nN>
1

>  <nO>
2

>  <nF>
0

>  <BalabanJ>
1.65

>  <BertzCT>
553.41

>  <nBonds>
48

>  <nBondsO>
23

>  <nBondsS>
36

>  <nBondsD>
0

>  <nBondsT>
0

>  <nBondsA>
12

>  <nBondsM>
12

>  <nBondsKS>
42

>  <nBondsKD>
6

>  <RNCG>
0.27

>  <RPCG>
0.16

>  <FCSP3>
0.37

>  <SZ>
27

>  <Sm>
24.93

>  <Sv>
27.96

>  <Sse>
46.42

>  <Sp>
30.6

>  <Si>
52.9

>  <MZ>
0.57

>  <Mm>
0.53

>  <Mv>
0.59

>  <Mse>
0.99

>  <Mp>
0.65

>  <Mi>
1.13

>  <NsCH3>
2

>  <NdCH2>
0

>  <NssCH2>
2

>  <NtCH>
0

>  <NdsCH>
0

>  <NaaCH>
9

>  <NsssCH>
3

>  <NddC>
0

>  <NtsC>
0

>  <NdssC>
0

>  <NaasC>
3

>  <NaaaC>
0

>  <NssssC>
0

>  <NsNH3>
0

>  <NsNH2>
0

>  <NssNH2>
0

>  <NdNH>
0

>  <NssNH>
1

>  <NaaNH>
0

>  <NtN>
0

>  <NsssNH>
0

>  <NdsN>
0

>  <NaaN>
0

>  <NsssN>
0

>  <NddsN>
0

>  <NaasN>
0

>  <NssssN>
0

>  <NsOH>
2

>  <NdO>
0

>  <NssO>
0

>  <NaaO>
0

>  <NsF>
0

>  <NsSiH3>
0

>  <NssSiH2>
0

>  <NsssSiH>
0

>  <NssssSi>
0

>  <NsPH2>
0

>  <NssPH>
0

>  <NsssP>
0

>  <NdsssP>
0

>  <NsssssP>
0

>  <NsSH>
0

>  <NdS>
0

>  <NssS>
0

>  <NaaS>
0

>  <NdssS>
0

>  <NddssS>
0

>  <NsCl>
0

>  <NsBr>
0

>  <NsI>
0

>  <fragCpx>
67.03

>  <fMF>
0.38

>  <nHBAcc>
3

>  <nHBDon>
3

>  <Kier1>
18.34

>  <Kier2>
9.33

>  <Lipinski>
1

>  <GhoseFilter>
1

>  <FilterItLogS>
-4.17

>  <VMcGowan>
252.77

>  <LabuteASA>
132.18

>  <PEOE_VSA1>
15.53

>  <PEOE_VSA2>
0

>  <PEOE_VSA3>
0

>  <PEOE_VSA4>
0

>  <PEOE_VSA5>
0

>  <PEOE_VSA6>
42.46

>  <PEOE_VSA7>
49.95

>  <PEOE_VSA8>
12.08

>  <PEOE_VSA9>
6.1

>  <PEOE_VSA10>
5.75

>  <PEOE_VSA11>
0

>  <PEOE_VSA12>
0

>  <PEOE_VSA13>
0

>  <SMR_VSA1>
10.21

>  <SMR_VSA2>
0

>  <SMR_VSA3>
5.32

>  <SMR_VSA4>
0

>  <SMR_VSA5>
44.88

>  <SMR_VSA6>
0

>  <SMR_VSA7>
65.72

>  <SMR_VSA8>
0

>  <SMR_VSA9>
5.75

>  <SlogP_VSA1>
5.32

>  <SlogP_VSA2>
22.3

>  <SlogP_VSA3>
6.42

>  <SlogP_VSA4>
0

>  <SlogP_VSA5>
37.5

>  <SlogP_VSA6>
54.6

>  <SlogP_VSA7>
0

>  <SlogP_VSA8>
0

>  <SlogP_VSA9>
0

>  <SlogP_VSA10>
0

>  <SlogP_VSA11>
5.75

>  <EState_VSA1>
6.1

>  <EState_VSA2>
11.79

>  <EState_VSA3>
6.04

>  <EState_VSA4>
18.41

>  <EState_VSA5>
5.56

>  <EState_VSA6>
24.27

>  <EState_VSA7>
12.99

>  <EState_VSA8>
36.51

>  <EState_VSA9>
0

>  <EState_VSA10>
10.21

>  <VSA_EState1>
0

>  <VSA_EState2>
0

>  <VSA_EState3>
23.12

>  <VSA_EState4>
2.15

>  <VSA_EState5>
0.22

>  <VSA_EState6>
17.42

>  <VSA_EState7>
1.47

>  <VSA_EState8>
4.12

>  <VSA_EState9>
0

>  <apol>
51.1

>  <bpol>
25.65

>  <nRing>
2

>  <nHRing>
0

>  <naRing>
2

>  <naHRing>
0

>  <nARing 2>
0

>  <nAHRing 2>
0

>  <nFRing>
0

>  <nFHRing>
0

>  <nFaRing>
0

>  <nFaHRing>
0

>  <nFARing 2>
0

>  <nFAHRing 2>
0

>  <nRot>
7

>  <SLogP>
3.43

>  <SMR>
89.89

>  <TopoPSA(NO)>
52.49

>  <TopoPSA>
52.49

>  <JGI1>
0.2

>  <JGI2>
0.08

>  <JGI3>
0.04

>  <JGI4>
0.04

>  <JGI5>
0.03

>  <Diameter>
14

>  <Radius>
7

>  <TMWC10>
116.41

>  <TSRW10>
55.29

>  <MW>
299.19

>  <AMW>
6.37

>  <WPath>
1247

>  <WPol>
29

>  <Zagreb1>
106

>  <Zagreb2>
118

>  <mZagreb2>
4.97

>  <yes>


>  <nAR-cont>
0.336376

>  <nHA-cont>
0.983774276

>  <MWHBN>
0.346878764

>  <MWHBN-cont>
0.681874711

>  <TPSA-cont>
0.633587206

>  <pka_cont>
0.97

>  <yes.1>


>  <BBB_SCORE>
4.095136754

>  <MMFF94 Energy>
67.553

$$$$
Compound 950
Actelion Java MolfileCreator 2.0

  0  0  0  0  0  0              0 V3000
M  V30 BEGIN CTAB
M  V30 COUNTS 45 47 0 0 0
M  V30 BEGIN ATOM
M  V30 1 S -0.0805 2.9849 -2.5811 0
M  V30 2 O -1.2264 2.7867 -3.452 0
M  V30 3 O 0.7313 4.1853 -2.6839 0
M  V30 4 C -0.6767 2.9215 -0.9451 0
M  V30 5 C 0.9877 1.6318 -2.8386 0
M  V30 6 C -0.2581 1.8972 -0.0924 0
M  V30 7 C -1.5682 3.943 -0.5638 0
M  V30 8 C 1.2343 0.7305 -1.7982 0
M  V30 9 C 1.5549 1.5237 -4.1236 0
M  V30 10 N 0.647 0.8721 -0.5072 0
M  V30 11 C -0.8061 1.9695 1.2093 0
M  V30 12 C -2.0804 3.9694 0.7226 0
M  V30 13 C 2.1079 -0.3228 -2.1487 0
M  V30 14 C 2.4103 0.4754 -4.4153 0
M  V30 15 C 1.029 -0.1224 0.5366 0
M  V30 16 C -1.6972 2.9791 1.6117 0
M  V30 17 C 2.6852 -0.4514 -3.4244 0
M  V30 18 C -0.0386 -1.2274 0.7529 0 CFG=2
M  V30 19 C 0.3026 -1.9826 2.0625 0
M  V30 20 C -0.1352 -2.1929 -0.4322 0
M  V30 21 N -0.6255 -3.0702 2.4151 0
M  V30 22 C -1.959 -2.5724 2.7604 0
M  V30 23 C -0.0876 -3.8535 3.5311 0
M  V30 24 H -1.8555 4.7138 -1.2772 0
M  V30 25 H 1.3214 2.2615 -4.8894 0
M  V30 26 H -0.5724 1.2383 1.9761 0
M  V30 27 H -2.7689 4.7528 1.0272 0
M  V30 28 H 2.3759 -1.1117 -1.4555 0
M  V30 29 H 2.8523 0.3804 -5.4029 0
M  V30 30 H 2.0072 -0.5782 0.3588 0
M  V30 31 H 1.2258 0.4061 1.4789 0
M  V30 32 H -2.0882 2.9813 2.6267 0
M  V30 33 H 3.3483 -1.2878 -3.6338 0
M  V30 34 H -1.0205 -0.7559 0.8624 0
M  V30 35 H 0.3659 -1.2654 2.8923 0
M  V30 36 H 1.3086 -2.4073 1.9412 0
M  V30 37 H 0.8091 -2.7222 -0.5934 0
M  V30 38 H -0.9136 -2.9451 -0.2676 0
M  V30 39 H -0.4019 -1.665 -1.3523 0
M  V30 40 H -2.4392 -2.0925 1.9023 0
M  V30 41 H -1.9303 -1.8564 3.5896 0
M  V30 42 H -2.6165 -3.4013 3.0469 0
M  V30 43 H 0.038 -3.2491 4.4368 0
M  V30 44 H 0.8834 -4.2861 3.2662 0
M  V30 45 H -0.7486 -4.6954 3.7658 0
M  V30 END ATOM
M  V30 BEGIN BOND
M  V30 1 2 1 2
M  V30 2 2 1 3
M  V30 3 1 1 4
M  V30 4 1 1 5
M  V30 5 2 4 6
M  V30 6 1 4 7
M  V30 7 2 5 8
M  V30 8 1 5 9
M  V30 9 1 6 10
M  V30 10 1 6 11
M  V30 11 2 7 12
M  V30 12 1 8 13
M  V30 13 2 9 14
M  V30 14 1 10 15
M  V30 15 2 11 16
M  V30 16 2 13 17
M  V30 17 1 15 18
M  V30 18 1 18 19
M  V30 19 1 18 20
M  V30 20 1 19 21
M  V30 21 1 21 22
M  V30 22 1 21 23
M  V30 23 1 8 10
M  V30 24 1 12 16
M  V30 25 1 14 17
M  V30 26 1 7 24
M  V30 27 1 9 25
M  V30 28 1 11 26
M  V30 29 1 12 27
M  V30 30 1 13 28
M  V30 31 1 14 29
M  V30 32 1 15 30
M  V30 33 1 15 31
M  V30 34 1 16 32
M  V30 35 1 17 33
M  V30 36 1 18 34
M  V30 37 1 19 35
M  V30 38 1 19 36
M  V30 39 1 20 37
M  V30 40 1 20 38
M  V30 41 1 20 39
M  V30 42 1 22 40
M  V30 43 1 22 41
M  V30 44 1 22 42
M  V30 45 1 23 43
M  V30 46 1 23 44
M  V30 47 1 23 45
M  V30 END BOND
M  V30 BEGIN COLLECTION
M  V30 MDLV30/STERAC1 ATOMS=(1 18)
M  V30 END COLLECTION
M  V30 END CTAB
M  END
>  <Column 1>
1136

>  <level_0>
1277

>  <index>
1277

>  <Unnamed: 0>
1277

>  <NO.>
1289

>  <Name>
oxomemazine

>  <IUPAC_name>
3-(5-5-dioxophenothiazin-10-yl)-n-n-2-trimethylpropan-1-amine

>  <SMILES>
CC(CN(C)C)CN1c2ccccc2S(=O)(=O)c2ccccc21

>  <CID>
19396

>  <logBB>


>  <BBB+/BBB->
BBB+

>  <Inchi>
InChI=1S/C18H22N2O2S/c1-14(12-19(2)3)13-20-15-8-4-6-10-17(15)23(21-22)18-11-7-5-9-16(18)20/h4-11-14H-12-13H2-1-3H3

>  <threshold>
-1

>  <reference>
R1|R19|R6|R27|R27|R30|

>  <group>
B

>  <Class>
1

>  <ABC>
18.04

>  <ABCGG>
14.89

>  <nAcid>
0

>  <nBase>
1

>  <nAromAtom>
12

>  <nAromBond>
12

>  <nAtom>
45

>  <nHeavyAtom>
23

>  <nSpiro>
0

>  <nBridgehead>
0

>  <nHetero>
5

>  <nN>
2

>  <nO>
2

>  <nF>
0

>  <BalabanJ>
1.82

>  <BertzCT>
761.78

>  <nBonds>
47

>  <nBondsO>
25

>  <nBondsS>
33

>  <nBondsD>
2

>  <nBondsT>
0

>  <nBondsA>
12

>  <nBondsM>
14

>  <nBondsKS>
39

>  <nBondsKD>
8

>  <RNCG>
0.21

>  <RPCG>
0.13

>  <FCSP3>
0.33

>  <SZ>
29.33

>  <Sm>
27.51

>  <Sv>
28.09

>  <Sse>
44.83

>  <Sp>
30.8

>  <Si>
50.49

>  <MZ>
0.65

>  <Mm>
0.61

>  <Mv>
0.62

>  <Mse>
1

>  <Mp>
0.68

>  <Mi>
1.12

>  <NsCH3>
3

>  <NdCH2>
0

>  <NssCH2>
2

>  <NtCH>
0

>  <NdsCH>
0

>  <NaaCH>
8

>  <NsssCH>
1

>  <NddC>
0

>  <NtsC>
0

>  <NdssC>
0

>  <NaasC>
4

>  <NaaaC>
0

>  <NssssC>
0

>  <NsNH3>
0

>  <NsNH2>
0

>  <NssNH2>
0

>  <NdNH>
0

>  <NssNH>
0

>  <NaaNH>
0

>  <NtN>
0

>  <NsssNH>
0

>  <NdsN>
0

>  <NaaN>
0

>  <NsssN>
2

>  <NddsN>
0

>  <NaasN>
0

>  <NssssN>
0

>  <NsOH>
0

>  <NdO>
2

>  <NssO>
0

>  <NaaO>
0

>  <NsF>
0

>  <NsSiH3>
0

>  <NssSiH2>
0

>  <NsssSiH>
0

>  <NssssSi>
0

>  <NsPH2>
0

>  <NssPH>
0

>  <NsssP>
0

>  <NdsssP>
0

>  <NsssssP>
0

>  <NsSH>
0

>  <NdS>
0

>  <NssS>
0

>  <NaaS>
0

>  <NdssS>
0

>  <NddssS>
1

>  <NsCl>
0

>  <NsBr>
0

>  <NsI>
0

>  <fragCpx>
119.05

>  <fMF>
0.31

>  <nHBAcc>
4

>  <nHBDon>
0

>  <Kier1>
17.81

>  <Kier2>
7.09

>  <Lipinski>
1

>  <GhoseFilter>
1

>  <FilterItLogS>
-4.29

>  <VMcGowan>
254.15

>  <LabuteASA>
137.82

>  <PEOE_VSA1>
9.8

>  <PEOE_VSA2>
0

>  <PEOE_VSA3>
8.42

>  <PEOE_VSA4>
0

>  <PEOE_VSA5>
0

>  <PEOE_VSA6>
31.19

>  <PEOE_VSA7>
44.28

>  <PEOE_VSA8>
13.09

>  <PEOE_VSA9>
21.17

>  <PEOE_VSA10>
0

>  <PEOE_VSA11>
0

>  <PEOE_VSA12>
9.84

>  <PEOE_VSA13>
0

>  <SMR_VSA1>
8.42

>  <SMR_VSA2>
0

>  <SMR_VSA3>
4.9

>  <SMR_VSA4>
5.92

>  <SMR_VSA5>
16.71

>  <SMR_VSA6>
32.08

>  <SMR_VSA7>
48.53

>  <SMR_VSA8>
0

>  <SMR_VSA9>
0

>  <SlogP_VSA1>
4.9

>  <SlogP_VSA2>
40.5

>  <SlogP_VSA3>
9.84

>  <SlogP_VSA4>
5.92

>  <SlogP_VSA5>
6.92

>  <SlogP_VSA6>
58.32

>  <SlogP_VSA7>
0

>  <SlogP_VSA8>
0

>  <SlogP_VSA9>
0

>  <SlogP_VSA10>
11.37

>  <SlogP_VSA11>
0

>  <EState_VSA1>
9.84

>  <EState_VSA2>
0

>  <EState_VSA3>
15.71

>  <EState_VSA4>
24.46

>  <EState_VSA5>
0

>  <EState_VSA6>
24.27

>  <EState_VSA7>
24.27

>  <EState_VSA8>
30.82

>  <EState_VSA9>
0

>  <EState_VSA10>
8.42

>  <VSA_EState1>
25.74

>  <VSA_EState2>
5.09

>  <VSA_EState3>
0

>  <VSA_EState4>
1.55

>  <VSA_EState5>
0.41

>  <VSA_EState6>
14.54

>  <VSA_EState7>
0

>  <VSA_EState8>
3.92

>  <VSA_EState9>
0.66

>  <apol>
51.43

>  <bpol>
32.15

>  <nRing>
3

>  <nHRing>
1

>  <naRing>
2

>  <naHRing>
0

>  <nARing 2>
1

>  <nAHRing 2>
1

>  <nFRing>
1

>  <nFHRing>
1

>  <nFaRing>
0

>  <nFaHRing>
0

>  <nFARing 2>
1

>  <nFAHRing 2>
1

>  <nRot>
4

>  <SLogP>
3.17

>  <SMR>
93.06

>  <TopoPSA(NO)>
40.62

>  <TopoPSA>
49

>  <JGI1>
0.22

>  <JGI2>
0.09

>  <JGI3>
0.07

>  <JGI4>
0.04

>  <JGI5>
0.03

>  <Diameter>
9

>  <Radius>
5

>  <TMWC10>
124.34

>  <TSRW10>
57.98

>  <MW>
330.14

>  <AMW>
7.34

>  <WPath>
1078

>  <WPol>
41

>  <Zagreb1>
124

>  <Zagreb2>
149

>  <mZagreb2>
4.94

>  <yes>


>  <nAR-cont>
0.816016

>  <nHA-cont>
0.967789328

>  <MWHBN>
0.22014606

>  <MWHBN-cont>
0.994868512

>  <TPSA-cont>
0.657949573

>  <pka_cont>
0.97

>  <yes.1>


>  <BBB_SCORE>
5.077007242

>  <MMFF94 Energy>
82.48

$$$$
Compound 951
Actelion Java MolfileCreator 2.0

  0  0  0  0  0  0              0 V3000
M  V30 BEGIN CTAB
M  V30 COUNTS 44 46 0 0 0
M  V30 BEGIN ATOM
M  V30 1 S 2.8227 -2.5805 0.0805 0
M  V30 2 C 2.5299 -1.066 0.9703 0
M  V30 3 C 1.1712 -3.2241 -0.0986 0
M  V30 4 C 1.2524 -0.4824 1.0926 0
M  V30 5 C 3.6596 -0.4449 1.5325 0
M  V30 6 C 0.0169 -2.4496 0.1358 0
M  V30 7 C 1.0661 -4.5683 -0.4996 0
M  V30 8 N 0.1047 -1.0832 0.5095 0
M  V30 9 C 1.1591 0.7137 1.8357 0
M  V30 10 C 3.5409 0.7484 2.2413 0
M  V30 11 C -1.225 -3.109 0.0294 0
M  V30 12 C -0.1774 -5.1773 -0.6363 0
M  V30 13 C -0.9641 -0.1686 0.0221 0
M  V30 14 C 2.2861 1.3287 2.3985 0
M  V30 15 C -1.3245 -4.4494 -0.3587 0
M  V30 16 C -0.4876 0.7459 -1.1351 0 CFG=2
M  V30 17 C 2.1442 2.5551 3.1271 0
M  V30 18 C -1.5816 1.7787 -1.4942 0
M  V30 19 C -0.1445 -0.0724 -2.3872 0
M  V30 20 N 2.0295 3.5539 3.7072 0
M  V30 21 N -1.9554 2.6631 -0.3753 0
M  V30 22 C -3.2122 3.356 -0.6803 0
M  V30 23 C -0.9128 3.657 -0.0963 0
M  V30 24 H 4.6445 -0.8951 1.4212 0
M  V30 25 H 1.9618 -5.1537 -0.6964 0
M  V30 26 H 0.1928 1.1841 2.0017 0
M  V30 27 H 4.4282 1.2106 2.6689 0
M  V30 28 H -2.1508 -2.6028 0.2875 0
M  V30 29 H -0.2462 -6.2188 -0.938 0
M  V30 30 H -1.8463 -0.7054 -0.3406 0
M  V30 31 H -1.3486 0.4173 0.8636 0
M  V30 32 H -2.301 -4.9218 -0.4305 0
M  V30 33 H 0.4232 1.2818 -0.8486 0
M  V30 34 H -2.4685 1.2156 -1.817 0
M  V30 35 H -1.2652 2.376 -2.3601 0
M  V30 36 H -0.995 -0.6822 -2.7105 0
M  V30 37 H 0.1327 0.5869 -3.2168 0
M  V30 38 H 0.7047 -0.7378 -2.207 0
M  V30 39 H -4.0228 2.6342 -0.8307 0
M  V30 40 H -3.1331 3.9803 -1.5778 0
M  V30 41 H -3.5155 3.9923 0.1589 0
M  V30 42 H -0.705 4.293 -0.9645 0
M  V30 43 H 0.0212 3.1801 0.213 0
M  V30 44 H -1.2136 4.3024 0.7371 0
M  V30 END ATOM
M  V30 BEGIN BOND
M  V30 1 1 1 2
M  V30 2 1 1 3
M  V30 3 2 2 4
M  V30 4 1 2 5
M  V30 5 2 3 6
M  V30 6 1 3 7
M  V30 7 1 4 8
M  V30 8 1 4 9
M  V30 9 2 5 10
M  V30 10 1 6 11
M  V30 11 2 7 12
M  V30 12 1 8 13
M  V30 13 2 9 14
M  V30 14 2 11 15
M  V30 15 1 13 16
M  V30 16 1 14 17
M  V30 17 1 16 18
M  V30 18 1 16 19
M  V30 19 3 17 20
M  V30 20 1 18 21
M  V30 21 1 21 22
M  V30 22 1 21 23
M  V30 23 1 6 8
M  V30 24 1 10 14
M  V30 25 1 12 15
M  V30 26 1 5 24
M  V30 27 1 7 25
M  V30 28 1 9 26
M  V30 29 1 10 27
M  V30 30 1 11 28
M  V30 31 1 12 29
M  V30 32 1 13 30
M  V30 33 1 13 31
M  V30 34 1 15 32
M  V30 35 1 16 33
M  V30 36 1 18 34
M  V30 37 1 18 35
M  V30 38 1 19 36
M  V30 39 1 19 37
M  V30 40 1 19 38
M  V30 41 1 22 39
M  V30 42 1 22 40
M  V30 43 1 22 41
M  V30 44 1 23 42
M  V30 45 1 23 43
M  V30 46 1 23 44
M  V30 END BOND
M  V30 BEGIN COLLECTION
M  V30 MDLV30/STERAC1 ATOMS=(1 16)
M  V30 END COLLECTION
M  V30 END CTAB
M  END
>  <Column 1>
1137

>  <level_0>
1278

>  <index>
1278

>  <Unnamed: 0>
1278

>  <NO.>
1290

>  <Name>
cyamemazine

>  <IUPAC_name>
10-[3-(dimethylamino)-2-methylpropyl]phenothiazine-2-carbonitrile

>  <SMILES>
CC(CN(C)C)CN1c2ccccc2Sc2ccc(C#N)cc21

>  <CID>
62865

>  <logBB>


>  <BBB+/BBB->
BBB+

>  <Inchi>
InChI=1S/C19H21N3S/c1-14(12-21(2)3)13-22-16-6-4-5-7-18(16)23-19-9-8-15(11-20)10-17(19)22/h4-10-14H-12-13H2-1-3H3

>  <threshold>
-1

>  <reference>
R1|R19|R6|R27|R27|R30|

>  <group>
B

>  <Class>
1

>  <ABC>
17.84

>  <ABCGG>
14.33

>  <nAcid>
0

>  <nBase>
1

>  <nAromAtom>
12

>  <nAromBond>
12

>  <nAtom>
44

>  <nHeavyAtom>
23

>  <nSpiro>
0

>  <nBridgehead>
0

>  <nHetero>
4

>  <nN>
3

>  <nO>
0

>  <nF>
0

>  <BalabanJ>
1.74

>  <BertzCT>
748.52

>  <nBonds>
46

>  <nBondsO>
25

>  <nBondsS>
33

>  <nBondsD>
0

>  <nBondsT>
1

>  <nBondsA>
12

>  <nBondsM>
13

>  <nBondsKS>
39

>  <nBondsKD>
6

>  <RNCG>
0.25

>  <RPCG>
0.07

>  <FCSP3>
0.32

>  <SZ>
28.67

>  <Sm>
26.93

>  <Sv>
28.15

>  <Sse>
43.39

>  <Sp>
31.1

>  <Si>
49.15

>  <MZ>
0.65

>  <Mm>
0.61

>  <Mv>
0.64

>  <Mse>
0.99

>  <Mp>
0.71

>  <Mi>
1.12

>  <NsCH3>
3

>  <NdCH2>
0

>  <NssCH2>
2

>  <NtCH>
0

>  <NdsCH>
0

>  <NaaCH>
7

>  <NsssCH>
1

>  <NddC>
0

>  <NtsC>
1

>  <NdssC>
0

>  <NaasC>
5

>  <NaaaC>
0

>  <NssssC>
0

>  <NsNH3>
0

>  <NsNH2>
0

>  <NssNH2>
0

>  <NdNH>
0

>  <NssNH>
0

>  <NaaNH>
0

>  <NtN>
1

>  <NsssNH>
0

>  <NdsN>
0

>  <NaaN>
0

>  <NsssN>
2

>  <NddsN>
0

>  <NaasN>
0

>  <NssssN>
0

>  <NsOH>
0

>  <NdO>
0

>  <NssO>
0

>  <NaaO>
0

>  <NsF>
0

>  <NsSiH3>
0

>  <NssSiH2>
0

>  <NsssSiH>
0

>  <NssssSi>
0

>  <NsPH2>
0

>  <NssPH>
0

>  <NsssP>
0

>  <NdsssP>
0

>  <NsssssP>
0

>  <NsSH>
0

>  <NdS>
0

>  <NssS>
1

>  <NaaS>
0

>  <NdssS>
0

>  <NddssS>
0

>  <NsCl>
0

>  <NsBr>
0

>  <NsI>
0

>  <fragCpx>
119.04

>  <fMF>
0.32

>  <nHBAcc>
4

>  <nHBDon>
0

>  <Kier1>
17.81

>  <Kier2>
7.92

>  <Lipinski>
1

>  <GhoseFilter>
1

>  <FilterItLogS>
-4.71

>  <VMcGowan>
257.88

>  <LabuteASA>
142.07

>  <PEOE_VSA1>
9.8

>  <PEOE_VSA2>
0

>  <PEOE_VSA3>
0

>  <PEOE_VSA4>
5.26

>  <PEOE_VSA5>
0

>  <PEOE_VSA6>
30.82

>  <PEOE_VSA7>
50.35

>  <PEOE_VSA8>
22.88

>  <PEOE_VSA9>
23.01

>  <PEOE_VSA10>
0

>  <PEOE_VSA11>
0

>  <PEOE_VSA12>
0

>  <PEOE_VSA13>
0

>  <SMR_VSA1>
0

>  <SMR_VSA2>
5.26

>  <SMR_VSA3>
4.9

>  <SMR_VSA4>
5.92

>  <SMR_VSA5>
16.71

>  <SMR_VSA6>
32.08

>  <SMR_VSA7>
48.03

>  <SMR_VSA8>
0

>  <SMR_VSA9>
6.07

>  <SlogP_VSA1>
4.9

>  <SlogP_VSA2>
32.08

>  <SlogP_VSA3>
0

>  <SlogP_VSA4>
17.25

>  <SlogP_VSA5>
12.49

>  <SlogP_VSA6>
52.26

>  <SlogP_VSA7>
0

>  <SlogP_VSA8>
0

>  <SlogP_VSA9>
0

>  <SlogP_VSA10>
11.37

>  <SlogP_VSA11>
0

>  <EState_VSA1>
0

>  <EState_VSA2>
0

>  <EState_VSA3>
11.48

>  <EState_VSA4>
18.78

>  <EState_VSA5>
15.48

>  <EState_VSA6>
11.76

>  <EState_VSA7>
12.13

>  <EState_VSA8>
67.22

>  <EState_VSA9>
0

>  <EState_VSA10>
5.26

>  <VSA_EState1>
0

>  <VSA_EState2>
7.1

>  <VSA_EState3>
9.24

>  <VSA_EState4>
3.11

>  <VSA_EState5>
0.53

>  <VSA_EState6>
16.76

>  <VSA_EState7>
0

>  <VSA_EState8>
4.26

>  <VSA_EState9>
4.22

>  <apol>
51.93

>  <bpol>
27.52

>  <nRing>
3

>  <nHRing>
1

>  <naRing>
2

>  <naHRing>
0

>  <nARing 2>
1

>  <nAHRing 2>
1

>  <nFRing>
1

>  <nFHRing>
1

>  <nFaRing>
0

>  <nFaHRing>
0

>  <nFARing 2>
1

>  <nFAHRing 2>
1

>  <nRot>
4

>  <SLogP>
4.36

>  <SMR>
96.45

>  <TopoPSA(NO)>
30.27

>  <TopoPSA>
55.57

>  <JGI1>
0.2

>  <JGI2>
0.06

>  <JGI3>
0.04

>  <JGI4>
0.04

>  <JGI5>
0.02

>  <Diameter>
10

>  <Radius>
5

>  <TMWC10>
123.02

>  <TSRW10>
57.49

>  <MW>
323.15

>  <AMW>
7.34

>  <WPath>
1130

>  <WPol>
37

>  <Zagreb1>
120

>  <Zagreb2>
141

>  <mZagreb2>
5.11

>  <yes>


>  <nAR-cont>
0.816016

>  <nHA-cont>
0.967789328

>  <MWHBN>
0.222514292

>  <MWHBN-cont>
0.993253907

>  <TPSA-cont>
0.612086893

>  <pka_cont>
0.97

>  <yes.1>


>  <BBB_SCORE>
4.982859975

>  <MMFF94 Energy>
84.005

$$$$
Compound 952
Actelion Java MolfileCreator 2.0

  0  0  0  0  0  0              0 V3000
M  V30 BEGIN CTAB
M  V30 COUNTS 43 45 0 0 0
M  V30 BEGIN ATOM
M  V30 1 S -0.2407 1.6057 -2.6505 0
M  V30 2 C -1.6085 1.6808 -1.5113 0
M  V30 3 C 1.1506 1.8536 -1.5655 0
M  V30 4 C -1.447 1.5929 -0.1139 0
M  V30 5 C -2.8875 1.8231 -2.0786 0
M  V30 6 C 1.0591 1.7376 -0.1639 0
M  V30 7 C 2.3799 2.1478 -2.1817 0
M  V30 8 N -0.1682 1.4151 0.4745 0
M  V30 9 C -2.608 1.7345 0.6738 0
M  V30 10 C -4.0187 1.9189 -1.2738 0
M  V30 11 C 2.2348 1.9761 0.5781 0
M  V30 12 C 3.5273 2.3571 -1.4224 0
M  V30 13 C -0.0914 0.5784 1.6987 0
M  V30 14 C -3.8769 1.8869 0.1053 0
M  V30 15 C 3.4527 2.2776 -0.0397 0
M  V30 16 C 0.5115 -0.8259 1.4383 0 CFG=2
M  V30 17 C -0.3975 -1.651 0.4973 0
M  V30 18 C 0.7137 -1.536 2.784 0
M  V30 19 N 0.0662 -3.0332 0.2557 0
M  V30 20 C 1.2941 -3.0547 -0.5449 0
M  V30 21 C -0.98 -3.7915 -0.4372 0
M  V30 22 H -3.0057 1.872 -3.159 0
M  V30 23 H 2.4462 2.2217 -3.2651 0
M  V30 24 H -2.5461 1.7694 1.7577 0
M  V30 25 H -5.0008 2.0376 -1.7231 0
M  V30 26 H 2.225 1.9519 1.6632 0
M  V30 27 H 4.47 2.5901 -1.9096 0
M  V30 28 H 0.4868 1.1049 2.4672 0
M  V30 29 H -1.0681 0.4265 2.1694 0
M  V30 30 H -4.749 1.992 0.7457 0
M  V30 31 H 4.3382 2.4549 0.5652 0
M  V30 32 H 1.4983 -0.7124 0.978 0
M  V30 33 H -0.5163 -1.1356 -0.4629 0
M  V30 34 H -1.3947 -1.692 0.9567 0
M  V30 35 H -0.2435 -1.7179 3.2844 0
M  V30 36 H 1.2192 -2.4982 2.6561 0
M  V30 37 H 1.3349 -0.9296 3.452 0
M  V30 38 H 2.1274 -2.5929 -0.0067 0
M  V30 39 H 1.1719 -2.5409 -1.5053 0
M  V30 40 H 1.6018 -4.0873 -0.7461 0
M  V30 41 H -1.2308 -3.3564 -1.4116 0
M  V30 42 H -1.8921 -3.832 0.1687 0
M  V30 43 H -0.6645 -4.8294 -0.5927 0
M  V30 END ATOM
M  V30 BEGIN BOND
M  V30 1 1 1 2
M  V30 2 1 1 3
M  V30 3 2 2 4
M  V30 4 1 2 5
M  V30 5 2 3 6
M  V30 6 1 3 7
M  V30 7 1 4 8
M  V30 8 1 4 9
M  V30 9 2 5 10
M  V30 10 1 6 11
M  V30 11 2 7 12
M  V30 12 1 8 13
M  V30 13 2 9 14
M  V30 14 2 11 15
M  V30 15 1 13 16
M  V30 16 1 16 17
M  V30 17 1 16 18
M  V30 18 1 17 19
M  V30 19 1 19 20
M  V30 20 1 19 21
M  V30 21 1 6 8
M  V30 22 1 10 14
M  V30 23 1 12 15
M  V30 24 1 5 22
M  V30 25 1 7 23
M  V30 26 1 9 24
M  V30 27 1 10 25
M  V30 28 1 11 26
M  V30 29 1 12 27
M  V30 30 1 13 28
M  V30 31 1 13 29
M  V30 32 1 14 30
M  V30 33 1 15 31
M  V30 34 1 16 32
M  V30 35 1 17 33
M  V30 36 1 17 34
M  V30 37 1 18 35
M  V30 38 1 18 36
M  V30 39 1 18 37
M  V30 40 1 20 38
M  V30 41 1 20 39
M  V30 42 1 20 40
M  V30 43 1 21 41
M  V30 44 1 21 42
M  V30 45 1 21 43
M  V30 END BOND
M  V30 BEGIN COLLECTION
M  V30 MDLV30/STERAC1 ATOMS=(1 16)
M  V30 END COLLECTION
M  V30 END CTAB
M  END
>  <Column 1>
1139

>  <level_0>
1280

>  <index>
1280

>  <Unnamed: 0>
1280

>  <NO.>
1292

>  <Name>
alimemazine

>  <IUPAC_name>
n-n-2-trimethyl-3-phenothiazin-10-ylpropan-1-amine

>  <SMILES>
CC(CN(C)C)CN1c2ccccc2Sc2ccccc21

>  <CID>
5574

>  <logBB>


>  <BBB+/BBB->
BBB+

>  <Inchi>
InChI=1S/C18H22N2S/c1-14(12-19(2)3)13-20-15-8-4-6-10-17(15)21-18-11-7-5-9-16(18)20/h4-11-14H-12-13H2-1-3H3

>  <threshold>
-1

>  <reference>
R1|R19|R6|R14|R23|R26|R27|R27|R30|

>  <group>
B

>  <Class>
-1

>  <ABC>
16.43

>  <ABCGG>
13.21

>  <nAcid>
0

>  <nBase>
1

>  <nAromAtom>
12

>  <nAromBond>
12

>  <nAtom>
43

>  <nHeavyAtom>
21

>  <nSpiro>
0

>  <nBridgehead>
0

>  <nHetero>
3

>  <nN>
2

>  <nO>
0

>  <nF>
0

>  <BalabanJ>
1.71

>  <BertzCT>
578.62

>  <nBonds>
45

>  <nBondsO>
23

>  <nBondsS>
33

>  <nBondsD>
0

>  <nBondsT>
0

>  <nBondsA>
12

>  <nBondsM>
12

>  <nBondsKS>
39

>  <nBondsKD>
6

>  <RNCG>
0.27

>  <RPCG>
0.05

>  <FCSP3>
0.33

>  <SZ>
26.67

>  <Sm>
24.85

>  <Sv>
26.66

>  <Sse>
42.17

>  <Sp>
29.84

>  <Si>
48.07

>  <MZ>
0.62

>  <Mm>
0.58

>  <Mv>
0.62

>  <Mse>
0.98

>  <Mp>
0.69

>  <Mi>
1.12

>  <NsCH3>
3

>  <NdCH2>
0

>  <NssCH2>
2

>  <NtCH>
0

>  <NdsCH>
0

>  <NaaCH>
8

>  <NsssCH>
1

>  <NddC>
0

>  <NtsC>
0

>  <NdssC>
0

>  <NaasC>
4

>  <NaaaC>
0

>  <NssssC>
0

>  <NsNH3>
0

>  <NsNH2>
0

>  <NssNH2>
0

>  <NdNH>
0

>  <NssNH>
0

>  <NaaNH>
0

>  <NtN>
0

>  <NsssNH>
0

>  <NdsN>
0

>  <NaaN>
0

>  <NsssN>
2

>  <NddsN>
0

>  <NaasN>
0

>  <NssssN>
0

>  <NsOH>
0

>  <NdO>
0

>  <NssO>
0

>  <NaaO>
0

>  <NsF>
0

>  <NsSiH3>
0

>  <NssSiH2>
0

>  <NsssSiH>
0

>  <NssssSi>
0

>  <NsPH2>
0

>  <NssPH>
0

>  <NsssP>
0

>  <NdsssP>
0

>  <NsssssP>
0

>  <NsSH>
0

>  <NdS>
0

>  <NssS>
1

>  <NaaS>
0

>  <NdssS>
0

>  <NddssS>
0

>  <NsCl>
0

>  <NsBr>
0

>  <NsI>
0

>  <fragCpx>
109.03

>  <fMF>
0.33

>  <nHBAcc>
3

>  <nHBDon>
0

>  <Kier1>
15.88

>  <Kier2>
7.05

>  <Lipinski>
1

>  <GhoseFilter>
1

>  <FilterItLogS>
-4.49

>  <VMcGowan>
242.41

>  <LabuteASA>
131.32

>  <PEOE_VSA1>
9.8

>  <PEOE_VSA2>
0

>  <PEOE_VSA3>
0

>  <PEOE_VSA4>
0

>  <PEOE_VSA5>
0

>  <PEOE_VSA6>
42.95

>  <PEOE_VSA7>
44.28

>  <PEOE_VSA8>
22.88

>  <PEOE_VSA9>
11.37

>  <PEOE_VSA10>
0

>  <PEOE_VSA11>
0

>  <PEOE_VSA12>
0

>  <PEOE_VSA13>
0

>  <SMR_VSA1>
0

>  <SMR_VSA2>
0

>  <SMR_VSA3>
4.9

>  <SMR_VSA4>
5.92

>  <SMR_VSA5>
16.71

>  <SMR_VSA6>
32.08

>  <SMR_VSA7>
48.53

>  <SMR_VSA8>
0

>  <SMR_VSA9>
0

>  <SlogP_VSA1>
4.9

>  <SlogP_VSA2>
32.08

>  <SlogP_VSA3>
0

>  <SlogP_VSA4>
5.92

>  <SlogP_VSA5>
6.92

>  <SlogP_VSA6>
58.32

>  <SlogP_VSA7>
0

>  <SlogP_VSA8>
0

>  <SlogP_VSA9>
0

>  <SlogP_VSA10>
11.37

>  <SlogP_VSA11>
0

>  <EState_VSA1>
0

>  <EState_VSA2>
0

>  <EState_VSA3>
5.92

>  <EState_VSA4>
13.09

>  <EState_VSA5>
21.17

>  <EState_VSA6>
0

>  <EState_VSA7>
11.76

>  <EState_VSA8>
79.35

>  <EState_VSA9>
0

>  <EState_VSA10>
0

>  <VSA_EState1>
0

>  <VSA_EState2>
7.46

>  <VSA_EState3>
0

>  <VSA_EState4>
2.68

>  <VSA_EState5>
0.62

>  <VSA_EState6>
17.44

>  <VSA_EState7>
0

>  <VSA_EState8>
4.48

>  <VSA_EState9>
4.29

>  <apol>
49.83

>  <bpol>
27.95

>  <nRing>
3

>  <nHRing>
1

>  <naRing>
2

>  <naHRing>
0

>  <nARing 2>
1

>  <nAHRing 2>
1

>  <nFRing>
1

>  <nFHRing>
1

>  <nFaRing>
0

>  <nFaHRing>
0

>  <nFARing 2>
1

>  <nFAHRing 2>
1

>  <nRot>
4

>  <SLogP>
4.49

>  <SMR>
91.73

>  <TopoPSA(NO)>
6.48

>  <TopoPSA>
31.78

>  <JGI1>
0.17

>  <JGI2>
0.06

>  <JGI3>
0.05

>  <JGI4>
0.04

>  <JGI5>
0.02

>  <Diameter>
9

>  <Radius>
5

>  <TMWC10>
118.14

>  <TSRW10>
55.04

>  <MW>
298.15

>  <AMW>
6.93

>  <WPath>
880

>  <WPol>
33

>  <Zagreb1>
110

>  <Zagreb2>
129

>  <mZagreb2>
4.61

>  <yes>


>  <nAR-cont>
0.816016

>  <nHA-cont>
0.994529749

>  <MWHBN>
0.173741612

>  <MWHBN-cont>
0.979470502

>  <TPSA-cont>
0.778155866

>  <pka_cont>
0.97

>  <yes.1>


>  <BBB_SCORE>
5.321063235

>  <MMFF94 Energy>
76.648

$$$$
Compound 953
Actelion Java MolfileCreator 2.0

  0  0  0  0  0  0              0 V3000
M  V30 BEGIN CTAB
M  V30 COUNTS 46 47 0 0 0
M  V30 BEGIN ATOM
M  V30 1 Cl 5.0948 2.4653 -3.9786 0
M  V30 2 C 3.9919 1.6792 -2.9175 0
M  V30 3 C 2.8547 1.0643 -3.4319 0
M  V30 4 C 4.2433 1.6587 -1.5491 0
M  V30 5 C 1.9581 0.4256 -2.5698 0
M  V30 6 C 3.3474 1.0194 -0.6873 0
M  V30 7 C 2.1815 0.3974 -1.1799 0
M  V30 8 C 1.2022 -0.3266 -0.2167 0
M  V30 9 O -0.0189 -0.5747 -0.9548 0
M  V30 10 C 0.8631 0.5717 0.9888 0
M  V30 11 C 1.8822 -1.6714 0.1284 0
M  V30 12 C -1.0505 -1.3273 -0.2946 0
M  V30 13 C 1.1398 0.2059 2.3173 0
M  V30 14 C 0.2441 1.8191 0.7674 0
M  V30 15 C -2.3661 -0.5143 -0.394 0
M  V30 16 C -1.1837 -2.6713 -1.009 0
M  V30 17 C 0.8077 1.0524 3.3796 0
M  V30 18 C -0.0864 2.6634 1.8287 0
M  V30 19 N -3.5455 -1.1414 0.2376 0
M  V30 20 C 0.1954 2.2789 3.1355 0
M  V30 21 C -4.7597 -0.4193 -0.153 0
M  V30 22 C -3.428 -1.1484 1.6982 0
M  V30 23 H 2.6569 1.0751 -4.5003 0
M  V30 24 H 5.1312 2.1369 -1.1446 0
M  V30 25 H 1.0784 -0.0528 -2.9966 0
M  V30 26 H 3.565 1.0162 0.3793 0
M  V30 27 H 1.2728 -2.2889 0.7965 0
M  V30 28 H 2.0454 -2.2682 -0.7774 0
M  V30 29 H 2.8556 -1.5319 0.6132 0
M  V30 30 H -0.8021 -1.4989 0.7563 0
M  V30 31 H 1.6165 -0.741 2.555 0
M  V30 32 H 0.0132 2.1352 -0.2493 0
M  V30 33 H -2.5674 -0.3602 -1.4638 0
M  V30 34 H -2.2074 0.4929 0.0115 0
M  V30 35 H -1.4355 -2.5281 -2.0658 0
M  V30 36 H -0.2381 -3.2212 -0.9884 0
M  V30 37 H -1.9514 -3.2994 -0.5476 0
M  V30 38 H 1.0295 0.7527 4.401 0
M  V30 39 H -0.5628 3.6204 1.6318 0
M  V30 40 H -0.06 2.9352 3.9632 0
M  V30 41 H -4.8928 -0.4491 -1.2402 0
M  V30 42 H -4.7384 0.6296 0.1645 0
M  V30 43 H -5.6469 -0.894 0.2812 0
M  V30 44 H -3.2934 -0.1409 2.1085 0
M  V30 45 H -2.5903 -1.7718 2.0255 0
M  V30 46 H -4.3245 -1.5857 2.1528 0
M  V30 END ATOM
M  V30 BEGIN BOND
M  V30 1 1 1 2
M  V30 2 2 2 3
M  V30 3 1 2 4
M  V30 4 1 3 5
M  V30 5 2 4 6
M  V30 6 2 5 7
M  V30 7 1 7 8
M  V30 8 1 8 9
M  V30 9 1 8 10
M  V30 10 1 8 11
M  V30 11 1 9 12
M  V30 12 2 10 13
M  V30 13 1 10 14
M  V30 14 1 12 15
M  V30 15 1 12 16
M  V30 16 1 13 17
M  V30 17 2 14 18
M  V30 18 1 15 19
M  V30 19 2 17 20
M  V30 20 1 19 21
M  V30 21 1 19 22
M  V30 22 1 6 7
M  V30 23 1 18 20
M  V30 24 1 3 23
M  V30 25 1 4 24
M  V30 26 1 5 25
M  V30 27 1 6 26
M  V30 28 1 11 27
M  V30 29 1 11 28
M  V30 30 1 11 29
M  V30 31 1 12 30
M  V30 32 1 13 31
M  V30 33 1 14 32
M  V30 34 1 15 33
M  V30 35 1 15 34
M  V30 36 1 16 35
M  V30 37 1 16 36
M  V30 38 1 16 37
M  V30 39 1 17 38
M  V30 40 1 18 39
M  V30 41 1 20 40
M  V30 42 1 21 41
M  V30 43 1 21 42
M  V30 44 1 21 43
M  V30 45 1 22 44
M  V30 46 1 22 45
M  V30 47 1 22 46
M  V30 END BOND
M  V30 END CTAB
M  END
>  <Column 1>
1140

>  <level_0>
1281

>  <index>
1281

>  <Unnamed: 0>
1281

>  <NO.>
1293

>  <Name>
mecloxamine

>  <IUPAC_name>
2-[1-(4-chlorophenyl)-1-phenylethoxy]-n-n-dimethylpropan-1-amine

>  <SMILES>
CC(CN(C)C)OC(C)(c1ccccc1)c1ccc(Cl)cc1

>  <CID>
3045406

>  <logBB>


>  <BBB+/BBB->
BBB-

>  <Inchi>
InChI=1S/C19H24ClNO/c1-15(14-21(3)4)22-19(2-16-8-6-5-7-9-16)17-10-12-18(20)13-11-17/h5-13-15H-14H2-1-4H3

>  <threshold>
-1

>  <reference>
R1|R19|R6|R27|R27|R30|

>  <group>
B

>  <Class>
1

>  <ABC>
16.74

>  <ABCGG>
14.5

>  <nAcid>
0

>  <nBase>
1

>  <nAromAtom>
12

>  <nAromBond>
12

>  <nAtom>
46

>  <nHeavyAtom>
22

>  <nSpiro>
0

>  <nBridgehead>
0

>  <nHetero>
3

>  <nN>
1

>  <nO>
1

>  <nF>
0

>  <BalabanJ>
2.08

>  <BertzCT>
582.14

>  <nBonds>
47

>  <nBondsO>
23

>  <nBondsS>
35

>  <nBondsD>
0

>  <nBondsT>
0

>  <nBondsA>
12

>  <nBondsM>
12

>  <nBondsKS>
41

>  <nBondsKD>
6

>  <RNCG>
0.27

>  <RPCG>
0.09

>  <FCSP3>
0.37

>  <SZ>
28.33

>  <Sm>
26.46

>  <Sv>
28.07

>  <Sse>
45.41

>  <Sp>
31.03

>  <Si>
51.64

>  <MZ>
0.62

>  <Mm>
0.58

>  <Mv>
0.61

>  <Mse>
0.99

>  <Mp>
0.67

>  <Mi>
1.12

>  <NsCH3>
4

>  <NdCH2>
0

>  <NssCH2>
1

>  <NtCH>
0

>  <NdsCH>
0

>  <NaaCH>
9

>  <NsssCH>
1

>  <NddC>
0

>  <NtsC>
0

>  <NdssC>
0

>  <NaasC>
3

>  <NaaaC>
0

>  <NssssC>
1

>  <NsNH3>
0

>  <NsNH2>
0

>  <NssNH2>
0

>  <NdNH>
0

>  <NssNH>
0

>  <NaaNH>
0

>  <NtN>
0

>  <NsssNH>
0

>  <NdsN>
0

>  <NaaN>
0

>  <NsssN>
1

>  <NddsN>
0

>  <NaasN>
0

>  <NssssN>
0

>  <NsOH>
0

>  <NdO>
0

>  <NssO>
1

>  <NaaO>
0

>  <NsF>
0

>  <NsSiH3>
0

>  <NssSiH2>
0

>  <NsssSiH>
0

>  <NssssSi>
0

>  <NsPH2>
0

>  <NssPH>
0

>  <NsssP>
0

>  <NdsssP>
0

>  <NsssssP>
0

>  <NsSH>
0

>  <NdS>
0

>  <NssS>
0

>  <NaaS>
0

>  <NdssS>
0

>  <NddssS>
0

>  <NsCl>
1

>  <NsBr>
0

>  <NsI>
0

>  <fragCpx>
67.03

>  <fMF>
0.28

>  <nHBAcc>
2

>  <nHBDon>
0

>  <Kier1>
18.34

>  <Kier2>
8.2

>  <Lipinski>
1

>  <GhoseFilter>
1

>  <FilterItLogS>
-5.28

>  <VMcGowan>
259.14

>  <LabuteASA>
138.22

>  <PEOE_VSA1>
9.64

>  <PEOE_VSA2>
0

>  <PEOE_VSA3>
0

>  <PEOE_VSA4>
0

>  <PEOE_VSA5>
0

>  <PEOE_VSA6>
54.07

>  <PEOE_VSA7>
51.2

>  <PEOE_VSA8>
11.57

>  <PEOE_VSA9>
6.1

>  <PEOE_VSA10>
5.6

>  <PEOE_VSA11>
0

>  <PEOE_VSA12>
0

>  <PEOE_VSA13>
0

>  <SMR_VSA1>
4.74

>  <SMR_VSA2>
0

>  <SMR_VSA3>
4.9

>  <SMR_VSA4>
0

>  <SMR_VSA5>
25.55

>  <SMR_VSA6>
20.64

>  <SMR_VSA7>
70.75

>  <SMR_VSA8>
0

>  <SMR_VSA9>
0

>  <SlogP_VSA1>
0

>  <SlogP_VSA2>
31.64

>  <SlogP_VSA3>
10.34

>  <SlogP_VSA4>
0

>  <SlogP_VSA5>
24.97

>  <SlogP_VSA6>
54.6

>  <SlogP_VSA7>
5.02

>  <SlogP_VSA8>
0

>  <SlogP_VSA9>
0

>  <SlogP_VSA10>
0

>  <SlogP_VSA11>
0

>  <EState_VSA1>
5.6

>  <EState_VSA2>
6.1

>  <EState_VSA3>
0

>  <EState_VSA4>
22.69

>  <EState_VSA5>
0

>  <EState_VSA6>
0

>  <EState_VSA7>
42.46

>  <EState_VSA8>
44.98

>  <EState_VSA9>
16.34

>  <EState_VSA10>
0

>  <VSA_EState1>
6.48

>  <VSA_EState2>
2.14

>  <VSA_EState3>
0.74

>  <VSA_EState4>
1.75

>  <VSA_EState5>
0

>  <VSA_EState6>
18.24

>  <VSA_EState7>
0.11

>  <VSA_EState8>
5.1

>  <VSA_EState9>
4.12

>  <apol>
51.82

>  <bpol>
28.03

>  <nRing>
2

>  <nHRing>
0

>  <naRing>
2

>  <naHRing>
0

>  <nARing 2>
0

>  <nAHRing 2>
0

>  <nFRing>
0

>  <nFHRing>
0

>  <nFaRing>
0

>  <nFaHRing>
0

>  <nFARing 2>
0

>  <nFAHRing 2>
0

>  <nRot>
6

>  <SLogP>
4.57

>  <SMR>
93.45

>  <TopoPSA(NO)>
12.47

>  <TopoPSA>
12.47

>  <JGI1>
0.26

>  <JGI2>
0.1

>  <JGI3>
0.06

>  <JGI4>
0.03

>  <JGI5>
0.03

>  <Diameter>
10

>  <Radius>
5

>  <TMWC10>
118.59

>  <TSRW10>
55.95

>  <MW>
317.15

>  <AMW>
6.89

>  <WPath>
1023

>  <WPol>
33

>  <Zagreb1>
110

>  <Zagreb2>
126

>  <mZagreb2>
4.88

>  <yes>


>  <nAR-cont>
0.336376

>  <nHA-cont>
0.983774276

>  <MWHBN>
0.112304624

>  <MWHBN-cont>
0.794379064

>  <TPSA-cont>
0.912951657

>  <pka_cont>
0.97

>  <yes.1>


>  <BBB_SCORE>
4.822622185

>  <MMFF94 Energy>
96.462

$$$$
Compound 954
Actelion Java MolfileCreator 2.0

  0  0  0  0  0  0              0 V3000
M  V30 BEGIN CTAB
M  V30 COUNTS 42 44 0 0 0
M  V30 BEGIN ATOM
M  V30 1 O 2.5357 -0.9503 -0.5542 0
M  V30 2 C 1.4743 -0.4194 -0.9082 0
M  V30 3 N 0.9259 0.6405 -0.1856 0
M  V30 4 C 0.8449 -1.0001 -2.1143 0
M  V30 5 C -0.1083 1.5144 -0.6288 0
M  V30 6 C 1.3854 0.8007 1.2116 0
M  V30 7 C -0.5225 -1.0278 -2.3472 0
M  V30 8 C 1.6719 -1.7472 -2.9744 0
M  V30 9 C -1.2935 1.0451 -1.2102 0
M  V30 10 C 0.0261 2.8946 -0.3789 0
M  V30 11 C 0.3183 0.3661 2.2654 0 CFG=1
M  V30 12 N -1.0699 -1.779 -3.3432 0
M  V30 13 N -1.4624 -0.2619 -1.6756 0
M  V30 14 C 1.1251 -2.4883 -4.0141 0
M  V30 15 C -2.3429 1.957 -1.4446 0
M  V30 16 C -1.0138 3.7875 -0.6388 0
M  V30 17 N -0.1632 -1.02 2.0596 0
M  V30 18 C 0.8559 0.6497 3.6762 0
M  V30 19 C -0.2458 -2.4825 -4.1481 0
M  V30 20 C -2.2098 3.3143 -1.1557 0
M  V30 21 C -1.4478 -1.2691 2.7078 0
M  V30 22 C 0.8017 -2.0596 2.4066 0
M  V30 23 H 1.6753 1.8428 1.3828 0
M  V30 24 H 2.3047 0.2283 1.3771 0
M  V30 25 H 2.7475 -1.7746 -2.8107 0
M  V30 26 H 0.9534 3.2974 0.019 0
M  V30 27 H -0.5412 1.0339 2.1171 0
M  V30 28 H -2.3913 -0.5195 -1.9818 0
M  V30 29 H 1.7516 -3.0727 -4.6777 0
M  V30 30 H -3.2716 1.612 -1.8942 0
M  V30 31 H -0.887 4.8471 -0.4328 0
M  V30 32 H 1.7748 0.0916 3.8831 0
M  V30 33 H 1.0883 1.715 3.7855 0
M  V30 34 H 0.1202 0.4003 4.4469 0
M  V30 35 H -0.7372 -3.057 -4.9277 0
M  V30 36 H -3.029 3.9985 -1.3597 0
M  V30 37 H -1.3807 -1.2374 3.8003 0
M  V30 38 H -1.8366 -2.2527 2.4207 0
M  V30 39 H -2.1961 -0.5369 2.3848 0
M  V30 40 H 1.7612 -1.9095 1.9046 0
M  V30 41 H 0.4352 -3.0383 2.0764 0
M  V30 42 H 0.9829 -2.1182 3.4853 0
M  V30 END ATOM
M  V30 BEGIN BOND
M  V30 1 2 1 2
M  V30 2 1 2 3
M  V30 3 1 2 4
M  V30 4 1 3 5
M  V30 5 1 3 6
M  V30 6 2 4 7
M  V30 7 1 4 8
M  V30 8 2 5 9
M  V30 9 1 5 10
M  V30 10 1 6 11
M  V30 11 1 7 12
M  V30 12 1 7 13
M  V30 13 2 8 14
M  V30 14 1 9 15
M  V30 15 2 10 16
M  V30 16 1 11 17
M  V30 17 1 11 18
M  V30 18 2 12 19
M  V30 19 2 15 20
M  V30 20 1 17 21
M  V30 21 1 17 22
M  V30 22 1 9 13
M  V30 23 1 14 19
M  V30 24 1 16 20
M  V30 25 1 6 23
M  V30 26 1 6 24
M  V30 27 1 8 25
M  V30 28 1 10 26
M  V30 29 1 11 27
M  V30 30 1 13 28
M  V30 31 1 14 29
M  V30 32 1 15 30
M  V30 33 1 16 31
M  V30 34 1 18 32
M  V30 35 1 18 33
M  V30 36 1 18 34
M  V30 37 1 19 35
M  V30 38 1 20 36
M  V30 39 1 21 37
M  V30 40 1 21 38
M  V30 41 1 21 39
M  V30 42 1 22 40
M  V30 43 1 22 41
M  V30 44 1 22 42
M  V30 END BOND
M  V30 BEGIN COLLECTION
M  V30 MDLV30/STERAC1 ATOMS=(1 11)
M  V30 END COLLECTION
M  V30 END CTAB
M  END
>  <Column 1>
1141

>  <level_0>
1282

>  <index>
1282

>  <Unnamed: 0>
1282

>  <NO.>
1294

>  <Name>
propizepine

>  <IUPAC_name>
6-[2-(dimethylamino)propyl]-11h-pyrido[3-2-c][1-5]benzodiazepin-5-one

>  <SMILES>
CC(CN1C(=O)c2cccnc2Nc2ccccc21)N(C)C

>  <CID>
112029

>  <logBB>


>  <BBB+/BBB->
BBB+

>  <Inchi>
InChI=1S/C17H20N4O/c1-12(20(2)3)11-21-15-9-5-4-8-14(15)19-16-13(17(21)22)7-6-10-18-16/h4-10-12H-11H2-1-3H3-(H-18-19)

>  <threshold>
-1

>  <reference>
R1|R19|R6|R27|R27|R30|

>  <group>
B

>  <Class>
1

>  <ABC>
17.17

>  <ABCGG>
14.23

>  <nAcid>
0

>  <nBase>
1

>  <nAromAtom>
12

>  <nAromBond>
12

>  <nAtom>
42

>  <nHeavyAtom>
22

>  <nSpiro>
0

>  <nBridgehead>
0

>  <nHetero>
5

>  <nN>
4

>  <nO>
1

>  <nF>
0

>  <BalabanJ>
1.82

>  <BertzCT>
698.56

>  <nBonds>
44

>  <nBondsO>
24

>  <nBondsS>
31

>  <nBondsD>
1

>  <nBondsT>
0

>  <nBondsA>
12

>  <nBondsM>
13

>  <nBondsKS>
37

>  <nBondsKD>
7

>  <RNCG>
0.19

>  <RPCG>
0.14

>  <FCSP3>
0.29

>  <SZ>
26.33

>  <Sm>
24.68

>  <Sv>
26.16

>  <Sse>
41.86

>  <Sp>
28.1

>  <Si>
47.53

>  <MZ>
0.63

>  <Mm>
0.59

>  <Mv>
0.62

>  <Mse>
1

>  <Mp>
0.67

>  <Mi>
1.13

>  <NsCH3>
3

>  <NdCH2>
0

>  <NssCH2>
1

>  <NtCH>
0

>  <NdsCH>
0

>  <NaaCH>
7

>  <NsssCH>
1

>  <NddC>
0

>  <NtsC>
0

>  <NdssC>
1

>  <NaasC>
4

>  <NaaaC>
0

>  <NssssC>
0

>  <NsNH3>
0

>  <NsNH2>
0

>  <NssNH2>
0

>  <NdNH>
0

>  <NssNH>
1

>  <NaaNH>
0

>  <NtN>
0

>  <NsssNH>
0

>  <NdsN>
0

>  <NaaN>
1

>  <NsssN>
2

>  <NddsN>
0

>  <NaasN>
0

>  <NssssN>
0

>  <NsOH>
0

>  <NdO>
1

>  <NssO>
0

>  <NaaO>
0

>  <NsF>
0

>  <NsSiH3>
0

>  <NssSiH2>
0

>  <NsssSiH>
0

>  <NssssSi>
0

>  <NsPH2>
0

>  <NssPH>
0

>  <NsssP>
0

>  <NdsssP>
0

>  <NsssssP>
0

>  <NsSH>
0

>  <NdS>
0

>  <NssS>
0

>  <NaaS>
0

>  <NdssS>
0

>  <NddssS>
0

>  <NsCl>
0

>  <NsBr>
0

>  <NsI>
0

>  <fragCpx>
114.05

>  <fMF>
0.36

>  <nHBAcc>
4

>  <nHBDon>
1

>  <Kier1>
16.84

>  <Kier2>
7.27

>  <Lipinski>
1

>  <GhoseFilter>
1

>  <FilterItLogS>
-3.97

>  <VMcGowan>
233.5

>  <LabuteASA>
130.12

>  <PEOE_VSA1>
15.12

>  <PEOE_VSA2>
4.79

>  <PEOE_VSA3>
4.98

>  <PEOE_VSA4>
0

>  <PEOE_VSA5>
0

>  <PEOE_VSA6>
12.13

>  <PEOE_VSA7>
45.28

>  <PEOE_VSA8>
18.78

>  <PEOE_VSA9>
16.94

>  <PEOE_VSA10>
5.82

>  <PEOE_VSA11>
0

>  <PEOE_VSA12>
0

>  <PEOE_VSA13>
5.91

>  <SMR_VSA1>
4.79

>  <SMR_VSA2>
0

>  <SMR_VSA3>
9.88

>  <SMR_VSA4>
0

>  <SMR_VSA5>
12.97

>  <SMR_VSA6>
30.86

>  <SMR_VSA7>
48.16

>  <SMR_VSA8>
0

>  <SMR_VSA9>
0

>  <SlogP_VSA1>
10.22

>  <SlogP_VSA2>
42.47

>  <SlogP_VSA3>
0

>  <SlogP_VSA4>
0

>  <SlogP_VSA5>
17.28

>  <SlogP_VSA6>
42.6

>  <SlogP_VSA7>
0

>  <SlogP_VSA8>
0

>  <SlogP_VSA9>
0

>  <SlogP_VSA10>
17.19

>  <SlogP_VSA11>
0

>  <EState_VSA1>
0

>  <EState_VSA2>
11.95

>  <EState_VSA3>
17.93

>  <EState_VSA4>
11.37

>  <EState_VSA5>
0

>  <EState_VSA6>
12.26

>  <EState_VSA7>
49.33

>  <EState_VSA8>
22.12

>  <EState_VSA9>
0

>  <EState_VSA10>
4.79

>  <VSA_EState1>
0

>  <VSA_EState2>
21.24

>  <VSA_EState3>
3.28

>  <VSA_EState4>
2.39

>  <VSA_EState5>
0.59

>  <VSA_EState6>
11.7

>  <VSA_EState7>
1.69

>  <VSA_EState8>
2.73

>  <VSA_EState9>
4.04

>  <apol>
46.93

>  <bpol>
26.06

>  <nRing>
3

>  <nHRing>
2

>  <naRing>
2

>  <naHRing>
1

>  <nARing 2>
1

>  <nAHRing 2>
1

>  <nFRing>
1

>  <nFHRing>
1

>  <nFaRing>
0

>  <nFaHRing>
0

>  <nFARing 2>
1

>  <nFAHRing 2>
1

>  <nRot>
3

>  <SLogP>
2.74

>  <SMR>
88.79

>  <TopoPSA(NO)>
48.47

>  <TopoPSA>
48.47

>  <JGI1>
0.17

>  <JGI2>
0.08

>  <JGI3>
0.04

>  <JGI4>
0.05

>  <JGI5>
0.02

>  <Diameter>
9

>  <Radius>
5

>  <TMWC10>
120.77

>  <TSRW10>
64.42

>  <MW>
296.16

>  <AMW>
7.05

>  <WPath>
942

>  <WPol>
40

>  <Zagreb1>
116

>  <Zagreb2>
138

>  <mZagreb2>
4.83

>  <yes>


>  <nAR-cont>
0.816016

>  <nHA-cont>
0.983774276

>  <MWHBN>
0.290540583

>  <MWHBN-cont>
0.868049072

>  <TPSA-cont>
0.661649302

>  <pka_cont>
0.97

>  <yes.1>


>  <BBB_SCORE>
4.910162487

>  <MMFF94 Energy>
74.815

$$$$
Compound 955
Actelion Java MolfileCreator 2.0

  0  0  0  0  0  0              0 V3000
M  V30 BEGIN CTAB
M  V30 COUNTS 63 66 0 0 0
M  V30 BEGIN ATOM
M  V30 1 S 1.3628 -2.5665 2.7271 0
M  V30 2 C 2.1974 -3.3627 1.3695 0
M  V30 3 C 2.3457 -1.0973 2.9483 0
M  V30 4 C 3.1421 -2.7026 0.5585 0
M  V30 5 C 1.8572 -4.7054 1.1272 0
M  V30 6 C 3.2679 -0.6406 1.9858 0
M  V30 7 C 2.1375 -0.3783 4.1389 0
M  V30 8 N 3.4718 -1.338 0.7652 0
M  V30 9 C 3.7766 -3.4708 -0.4389 0
M  V30 10 C 2.4726 -5.4247 0.1075 0
M  V30 11 C 3.9946 0.5278 2.2959 0
M  V30 12 C 2.8553 0.7835 4.4064 0
M  V30 13 C 3.7569 -0.5172 -0.4383 0
M  V30 14 C 3.4431 -4.8095 -0.6687 0
M  V30 15 C 3.7903 1.2333 3.4862 0
M  V30 16 C 2.5951 0.4403 -0.8086 0 CFG=2
M  V30 17 C 1.3359 -0.3546 -1.2257 0
M  V30 18 C 3.0617 1.3762 -1.9322 0
M  V30 19 N 0.2055 0.489 -1.661 0
M  V30 20 C -0.844 -0.3546 -2.2738 0
M  V30 21 C -0.3959 1.2215 -0.5253 0
M  V30 22 C -2.0774 0.468 -2.7062 0
M  V30 23 C -1.6423 2.041 -0.9412 0
M  V30 24 N -2.6813 1.2154 -1.5846 0
M  V30 25 C -3.8256 2.0165 -2.0631 0
M  V30 26 C -4.6702 2.6747 -0.9557 0
M  V30 27 O -5.2958 1.6729 -0.1499 0
M  V30 28 C -6.0484 2.249 0.9227 0
M  V30 29 C -6.6714 1.1096 1.7213 0
M  V30 30 O -7.5212 0.3395 0.8722 0
M  V30 31 H 1.1124 -5.2024 1.7455 0
M  V30 32 H 1.4131 -0.7289 4.8711 0
M  V30 33 H 4.5794 -3.0522 -1.0389 0
M  V30 34 H 2.2074 -6.4642 -0.0645 0
M  V30 35 H 4.7568 0.9065 1.6225 0
M  V30 36 H 2.6906 1.3262 5.3331 0
M  V30 37 H 4.6828 0.0495 -0.2847 0
M  V30 38 H 3.9701 -1.124 -1.3242 0
M  V30 39 H 3.9533 -5.3695 -1.4482 0
M  V30 40 H 4.3696 2.1299 3.6913 0
M  V30 41 H 2.3562 1.0659 0.0574 0
M  V30 42 H 1.0104 -1.0084 -0.4085 0
M  V30 43 H 1.6224 -1.0118 -2.0578 0
M  V30 44 H 3.2818 0.8175 -2.848 0
M  V30 45 H 2.302 2.1287 -2.1665 0
M  V30 46 H 3.9694 1.9132 -1.6367 0
M  V30 47 H -0.4388 -0.8492 -3.1648 0
M  V30 48 H -1.1624 -1.143 -1.5781 0
M  V30 49 H -0.678 0.5261 0.277 0
M  V30 50 H 0.3302 1.9264 -0.1065 0
M  V30 51 H -1.7843 1.155 -3.5117 0
M  V30 52 H -2.8176 -0.2259 -3.1225 0
M  V30 53 H -1.3266 2.8508 -1.6126 0
M  V30 54 H -2.0416 2.505 -0.033 0
M  V30 55 H -4.4976 1.3515 -2.621 0
M  V30 56 H -3.4824 2.793 -2.7583 0
M  V30 57 H -4.0624 3.3375 -0.3312 0
M  V30 58 H -5.4535 3.2803 -1.427 0
M  V30 59 H -6.8342 2.8851 0.5004 0
M  V30 60 H -5.3909 2.8449 1.5642 0
M  V30 61 H -5.9 0.439 2.1126 0
M  V30 62 H -7.2675 1.4935 2.5536 0
M  V30 63 H -6.9757 0.1504 0.0827 0
M  V30 END ATOM
M  V30 BEGIN BOND
M  V30 1 1 1 2
M  V30 2 1 1 3
M  V30 3 2 2 4
M  V30 4 1 2 5
M  V30 5 2 3 6
M  V30 6 1 3 7
M  V30 7 1 4 8
M  V30 8 1 4 9
M  V30 9 2 5 10
M  V30 10 1 6 11
M  V30 11 2 7 12
M  V30 12 1 8 13
M  V30 13 2 9 14
M  V30 14 2 11 15
M  V30 15 1 13 16
M  V30 16 1 16 17
M  V30 17 1 16 18
M  V30 18 1 17 19
M  V30 19 1 19 20
M  V30 20 1 19 21
M  V30 21 1 20 22
M  V30 22 1 21 23
M  V30 23 1 22 24
M  V30 24 1 24 25
M  V30 25 1 25 26
M  V30 26 1 26 27
M  V30 27 1 27 28
M  V30 28 1 28 29
M  V30 29 1 29 30
M  V30 30 1 6 8
M  V30 31 1 10 14
M  V30 32 1 12 15
M  V30 33 1 23 24
M  V30 34 1 5 31
M  V30 35 1 7 32
M  V30 36 1 9 33
M  V30 37 1 10 34
M  V30 38 1 11 35
M  V30 39 1 12 36
M  V30 40 1 13 37
M  V30 41 1 13 38
M  V30 42 1 14 39
M  V30 43 1 15 40
M  V30 44 1 16 41
M  V30 45 1 17 42
M  V30 46 1 17 43
M  V30 47 1 18 44
M  V30 48 1 18 45
M  V30 49 1 18 46
M  V30 50 1 20 47
M  V30 51 1 20 48
M  V30 52 1 21 49
M  V30 53 1 21 50
M  V30 54 1 22 51
M  V30 55 1 22 52
M  V30 56 1 23 53
M  V30 57 1 23 54
M  V30 58 1 25 55
M  V30 59 1 25 56
M  V30 60 1 26 57
M  V30 61 1 26 58
M  V30 62 1 28 59
M  V30 63 1 28 60
M  V30 64 1 29 61
M  V30 65 1 29 62
M  V30 66 1 30 63
M  V30 END BOND
M  V30 BEGIN COLLECTION
M  V30 MDLV30/STERAC1 ATOMS=(1 16)
M  V30 END COLLECTION
M  V30 END CTAB
M  END
>  <Column 1>
1142

>  <level_0>
1283

>  <index>
1283

>  <Unnamed: 0>
1283

>  <NO.>
1295

>  <Name>
dixyrazine

>  <IUPAC_name>
2-[2-[4-(2-methyl-3-phenothiazin-10-ylpropyl)piperazin-1-yl]ethoxy]ethanol

>  <SMILES>
CC(CN1CCN(CCOCCO)CC1)CN1c2ccccc2Sc2ccccc21

>  <CID>
17182

>  <logBB>


>  <BBB+/BBB->
BBB+

>  <Inchi>
InChI=1S/C24H33N3O2S/c1-20(18-26-12-10-25(11-13-26)14-16-29-17-15-28)19-27-21-6-2-4-8-23(21)30-24-9-5-3-7-22(24)27/h2-9-20-28H-10-19H2-1H3

>  <threshold>
-1

>  <reference>
R1|R27|R30|

>  <group>
B

>  <Class>
1

>  <ABC>
23.28

>  <ABCGG>
16.46

>  <nAcid>
0

>  <nBase>
2

>  <nAromAtom>
12

>  <nAromBond>
12

>  <nAtom>
63

>  <nHeavyAtom>
30

>  <nSpiro>
0

>  <nBridgehead>
0

>  <nHetero>
6

>  <nN>
3

>  <nO>
2

>  <nF>
0

>  <BalabanJ>
1.24

>  <BertzCT>
765.04

>  <nBonds>
66

>  <nBondsO>
33

>  <nBondsS>
54

>  <nBondsD>
0

>  <nBondsT>
0

>  <nBondsA>
12

>  <nBondsM>
12

>  <nBondsKS>
60

>  <nBondsKD>
6

>  <RNCG>
0.17

>  <RPCG>
0.09

>  <FCSP3>
0.5

>  <SZ>
38.33

>  <Sm>
35.6

>  <Sv>
37.83

>  <Sse>
62.38

>  <Sp>
41.85

>  <Si>
71.06

>  <MZ>
0.61

>  <Mm>
0.57

>  <Mv>
0.6

>  <Mse>
0.99

>  <Mp>
0.66

>  <Mi>
1.13

>  <NsCH3>
1

>  <NdCH2>
0

>  <NssCH2>
10

>  <NtCH>
0

>  <NdsCH>
0

>  <NaaCH>
8

>  <NsssCH>
1

>  <NddC>
0

>  <NtsC>
0

>  <NdssC>
0

>  <NaasC>
4

>  <NaaaC>
0

>  <NssssC>
0

>  <NsNH3>
0

>  <NsNH2>
0

>  <NssNH2>
0

>  <NdNH>
0

>  <NssNH>
0

>  <NaaNH>
0

>  <NtN>
0

>  <NsssNH>
0

>  <NdsN>
0

>  <NaaN>
0

>  <NsssN>
3

>  <NddsN>
0

>  <NaasN>
0

>  <NssssN>
0

>  <NsOH>
1

>  <NdO>
0

>  <NssO>
1

>  <NaaO>
0

>  <NsF>
0

>  <NsSiH3>
0

>  <NssSiH2>
0

>  <NsssSiH>
0

>  <NssssSi>
0

>  <NsPH2>
0

>  <NssPH>
0

>  <NsssP>
0

>  <NdsssP>
0

>  <NsssssP>
0

>  <NsSH>
0

>  <NdS>
0

>  <NssS>
1

>  <NaaS>
0

>  <NdssS>
0

>  <NddssS>
0

>  <NsCl>
0

>  <NsBr>
0

>  <NsI>
0

>  <fragCpx>
219.06

>  <fMF>
0.37

>  <nHBAcc>
6

>  <nHBDon>
1

>  <Kier1>
23.17

>  <Kier2>
11.74

>  <Lipinski>
1

>  <GhoseFilter>
1

>  <FilterItLogS>
-4.85

>  <VMcGowan>
337.81

>  <LabuteASA>
184.17

>  <PEOE_VSA1>
19.64

>  <PEOE_VSA2>
4.9

>  <PEOE_VSA3>
0

>  <PEOE_VSA4>
0

>  <PEOE_VSA5>
0

>  <PEOE_VSA6>
42.95

>  <PEOE_VSA7>
30.18

>  <PEOE_VSA8>
55.6

>  <PEOE_VSA9>
31.2

>  <PEOE_VSA10>
0

>  <PEOE_VSA11>
0

>  <PEOE_VSA12>
0

>  <PEOE_VSA13>
0

>  <SMR_VSA1>
9.84

>  <SMR_VSA2>
0

>  <SMR_VSA3>
9.8

>  <SMR_VSA4>
5.92

>  <SMR_VSA5>
16.71

>  <SMR_VSA6>
70.53

>  <SMR_VSA7>
48.53

>  <SMR_VSA8>
0

>  <SMR_VSA9>
0

>  <SlogP_VSA1>
4.9

>  <SlogP_VSA2>
80.54

>  <SlogP_VSA3>
4.74

>  <SlogP_VSA4>
5.92

>  <SlogP_VSA5>
6.92

>  <SlogP_VSA6>
58.32

>  <SlogP_VSA7>
0

>  <SlogP_VSA8>
0

>  <SlogP_VSA9>
0

>  <SlogP_VSA10>
11.37

>  <SlogP_VSA11>
0

>  <EState_VSA1>
0

>  <EState_VSA2>
6.61

>  <EState_VSA3>
19.13

>  <EState_VSA4>
45.81

>  <EState_VSA5>
21.17

>  <EState_VSA6>
0

>  <EState_VSA7>
11.76

>  <EState_VSA8>
70.15

>  <EState_VSA9>
9.84

>  <EState_VSA10>
0

>  <VSA_EState1>
5.41

>  <VSA_EState2>
10.28

>  <VSA_EState3>
8.8

>  <VSA_EState4>
2.67

>  <VSA_EState5>
0.58

>  <VSA_EState6>
17.54

>  <VSA_EState7>
0

>  <VSA_EState8>
11.19

>  <VSA_EState9>
0

>  <apol>
69.89

>  <bpol>
42.43

>  <nRing>
4

>  <nHRing>
2

>  <naRing>
2

>  <naHRing>
0

>  <nARing 2>
2

>  <nAHRing 2>
2

>  <nFRing>
1

>  <nFHRing>
1

>  <nFaRing>
0

>  <nFaHRing>
0

>  <nFARing 2>
1

>  <nFAHRing 2>
1

>  <nRot>
9

>  <SLogP>
3.55

>  <SMR>
123.96

>  <TopoPSA(NO)>
39.18

>  <TopoPSA>
64.48

>  <JGI1>
0.14

>  <JGI2>
0.06

>  <JGI3>
0.03

>  <JGI4>
0.04

>  <JGI5>
0.02

>  <Diameter>
17

>  <Radius>
9

>  <TMWC10>
139.62

>  <TSRW10>
65.55

>  <MW>
427.23

>  <AMW>
6.78

>  <WPath>
2828

>  <WPol>
46

>  <Zagreb1>
154

>  <Zagreb2>
179

>  <mZagreb2>
6.78

>  <yes>


>  <nAR-cont>
1

>  <nHA-cont>
0.74523694

>  <MWHBN>
0.338662546

>  <MWHBN-cont>
0.711981443

>  <TPSA-cont>
0.54988956

>  <pka_cont>
0.97

>  <yes.1>


>  <BBB_SCORE>
4.397988225

>  <MMFF94 Energy>
179.6

$$$$
Compound 956
Actelion Java MolfileCreator 2.0

  0  0  0  0  0  0              0 V3000
M  V30 BEGIN CTAB
M  V30 COUNTS 61 64 0 0 0
M  V30 BEGIN ATOM
M  V30 1 O 2.0769 1.1179 0.1596 0
M  V30 2 C 1.0566 1.149 -0.5388 0
M  V30 3 N 0.7686 2.321 -1.2261 0
M  V30 4 C 0.0709 -0.0997 -0.6147 0
M  V30 5 C -0.3744 2.6454 -2.0742 0
M  V30 6 C 1.6637 3.4643 -1.1184 0
M  V30 7 C -1.2302 0.1766 0.2433 0
M  V30 8 C -0.219 -0.4081 -2.1309 0
M  V30 9 C 0.7618 -1.3947 0.0747 0 CFG=2
M  V30 10 C -0.366 4.1663 -2.1416 0
M  V30 11 C 1.1213 4.4869 -2.106 0
M  V30 12 C -1.4338 1.3782 0.9506 0
M  V30 13 C -2.2073 -0.831 0.4185 0
M  V30 14 C -1.5073 -0.6018 -2.663 0
M  V30 15 C 0.8505 -0.4434 -3.0556 0
M  V30 16 C 1.0753 -1.2023 1.5969 0
M  V30 17 C 2.0332 -1.9393 -0.609 0
M  V30 18 C -2.569 1.5778 1.745 0
M  V30 19 C -3.3422 -0.6315 1.21 0
M  V30 20 C -1.7107 -0.8612 -4.0246 0
M  V30 21 C 0.65 -0.7029 -4.415 0
M  V30 22 N 1.2343 -2.4892 2.3136 0
M  V30 23 C -3.5248 0.5765 1.8703 0
M  V30 24 C -0.6327 -0.9191 -4.8989 0
M  V30 25 C 2.0014 -2.315 3.5695 0
M  V30 26 C -0.0639 -3.1131 2.6606 0
M  V30 27 C 1.2151 -1.619 4.6927 0
M  V30 28 C -0.8155 -2.425 3.8157 0
M  V30 29 O 0.0022 -2.3237 4.9884 0
M  V30 30 H -1.3137 2.2511 -1.6866 0
M  V30 31 H -0.1878 2.2325 -3.07 0
M  V30 32 H 2.6957 3.1729 -1.3373 0
M  V30 33 H 1.6125 3.8371 -0.089 0
M  V30 34 H 0.0409 -2.216 -0.0198 0
M  V30 35 H -0.8657 4.5519 -3.0343 0
M  V30 36 H -0.8599 4.587 -1.2572 0
M  V30 37 H 1.5606 4.3217 -3.0971 0
M  V30 38 H 1.3316 5.5167 -1.8049 0
M  V30 39 H -0.7096 2.1885 0.9245 0
M  V30 40 H -2.0989 -1.7984 -0.0696 0
M  V30 41 H -2.4003 -0.531 -2.0513 0
M  V30 42 H 1.8724 -0.2525 -2.7307 0
M  V30 43 H 0.3358 -0.5767 2.1 0
M  V30 44 H 2.025 -0.6612 1.6739 0
M  V30 45 H 2.4826 -2.749 -0.0236 0
M  V30 46 H 1.8058 -2.378 -1.5841 0
M  V30 47 H 2.7984 -1.1685 -0.7333 0
M  V30 48 H -2.6972 2.5182 2.2762 0
M  V30 49 H -4.0787 -1.4244 1.3131 0
M  V30 50 H -2.7204 -1.0106 -4.3998 0
M  V30 51 H 1.5001 -0.7301 -5.092 0
M  V30 52 H -4.4032 0.7342 2.4906 0
M  V30 53 H -0.7933 -1.1209 -5.9542 0
M  V30 54 H 2.2873 -3.3164 3.9169 0
M  V30 55 H 2.9409 -1.7832 3.3786 0
M  V30 56 H 0.1496 -4.1469 2.9629 0
M  V30 57 H -0.7161 -3.1903 1.7855 0
M  V30 58 H 0.9777 -0.5793 4.4393 0
M  V30 59 H 1.8164 -1.6052 5.6075 0
M  V30 60 H -1.6965 -3.018 4.0824 0
M  V30 61 H -1.1682 -1.4259 3.5387 0
M  V30 END ATOM
M  V30 BEGIN BOND
M  V30 1 2 1 2
M  V30 2 1 2 3
M  V30 3 1 2 4
M  V30 4 1 3 5
M  V30 5 1 3 6
M  V30 6 1 4 7
M  V30 7 1 4 8
M  V30 8 1 4 9
M  V30 9 1 5 10
M  V30 10 1 6 11
M  V30 11 2 7 12
M  V30 12 1 7 13
M  V30 13 2 8 14
M  V30 14 1 8 15
M  V30 15 1 9 16
M  V30 16 1 9 17
M  V30 17 1 12 18
M  V30 18 2 13 19
M  V30 19 1 14 20
M  V30 20 2 15 21
M  V30 21 1 16 22
M  V30 22 2 18 23
M  V30 23 2 20 24
M  V30 24 1 22 25
M  V30 25 1 22 26
M  V30 26 1 25 27
M  V30 27 1 26 28
M  V30 28 1 27 29
M  V30 29 1 10 11
M  V30 30 1 19 23
M  V30 31 1 21 24
M  V30 32 1 28 29
M  V30 33 1 5 30
M  V30 34 1 5 31
M  V30 35 1 6 32
M  V30 36 1 6 33
M  V30 37 1 9 34
M  V30 38 1 10 35
M  V30 39 1 10 36
M  V30 40 1 11 37
M  V30 41 1 11 38
M  V30 42 1 12 39
M  V30 43 1 13 40
M  V30 44 1 14 41
M  V30 45 1 15 42
M  V30 46 1 16 43
M  V30 47 1 16 44
M  V30 48 1 17 45
M  V30 49 1 17 46
M  V30 50 1 17 47
M  V30 51 1 18 48
M  V30 52 1 19 49
M  V30 53 1 20 50
M  V30 54 1 21 51
M  V30 55 1 23 52
M  V30 56 1 24 53
M  V30 57 1 25 54
M  V30 58 1 25 55
M  V30 59 1 26 56
M  V30 60 1 26 57
M  V30 61 1 27 58
M  V30 62 1 27 59
M  V30 63 1 28 60
M  V30 64 1 28 61
M  V30 END BOND
M  V30 BEGIN COLLECTION
M  V30 MDLV30/STERAC1 ATOMS=(1 9)
M  V30 END COLLECTION
M  V30 END CTAB
M  END
>  <Column 1>
1143

>  <level_0>
1284

>  <index>
1284

>  <Unnamed: 0>
1284

>  <NO.>
1296

>  <Name>
dextromoramide (levomoramide and racemoramide)

>  <IUPAC_name>
3-methyl-4-morpholin-4-yl-2-2-diphenyl-1-pyrrolidin-1-ylbutan-1-one

>  <SMILES>
CC(CN1CCOCC1)C(C(=O)N1CCCC1)(c1ccccc1)c1ccccc1

>  <CID>
9648

>  <logBB>


>  <BBB+/BBB->
BBB+

>  <Inchi>
InChI=1S/C25H32N2O2/c1-21(20-26-16-18-29-19-17-26)25(22-10-4-2-5-11-22-23-12-6-3-7-13-23)24(28)27-14-8-9-15-27/h2-7-10-13-21H-8-9-14-20H2-1H3

>  <threshold>
-1

>  <reference>
R1|R13|R19|R6|R14|R23|R27|R27|R30|

>  <group>
B

>  <Class>
1

>  <ABC>
22.56

>  <ABCGG>
19.12

>  <nAcid>
0

>  <nBase>
1

>  <nAromAtom>
12

>  <nAromBond>
12

>  <nAtom>
61

>  <nHeavyAtom>
29

>  <nSpiro>
0

>  <nBridgehead>
0

>  <nHetero>
4

>  <nN>
2

>  <nO>
2

>  <nF>
0

>  <BalabanJ>
1.66

>  <BertzCT>
741.49

>  <nBonds>
64

>  <nBondsO>
32

>  <nBondsS>
51

>  <nBondsD>
1

>  <nBondsT>
0

>  <nBondsA>
12

>  <nBondsM>
13

>  <nBondsKS>
57

>  <nBondsKD>
7

>  <RNCG>
0.18

>  <RPCG>
0.11

>  <FCSP3>
0.48

>  <SZ>
35.33

>  <Sm>
32.68

>  <Sv>
36.61

>  <Sse>
60.19

>  <Sp>
40.05

>  <Si>
68.64

>  <MZ>
0.58

>  <Mm>
0.54

>  <Mv>
0.6

>  <Mse>
0.99

>  <Mp>
0.66

>  <Mi>
1.13

>  <NsCH3>
1

>  <NdCH2>
0

>  <NssCH2>
9

>  <NtCH>
0

>  <NdsCH>
0

>  <NaaCH>
10

>  <NsssCH>
1

>  <NddC>
0

>  <NtsC>
0

>  <NdssC>
1

>  <NaasC>
2

>  <NaaaC>
0

>  <NssssC>
1

>  <NsNH3>
0

>  <NsNH2>
0

>  <NssNH2>
0

>  <NdNH>
0

>  <NssNH>
0

>  <NaaNH>
0

>  <NtN>
0

>  <NsssNH>
0

>  <NdsN>
0

>  <NaaN>
0

>  <NsssN>
2

>  <NddsN>
0

>  <NaasN>
0

>  <NssssN>
0

>  <NsOH>
0

>  <NdO>
1

>  <NssO>
1

>  <NaaO>
0

>  <NsF>
0

>  <NsSiH3>
0

>  <NssSiH2>
0

>  <NsssSiH>
0

>  <NssssSi>
0

>  <NsPH2>
0

>  <NssPH>
0

>  <NsssP>
0

>  <NdsssP>
0

>  <NsssssP>
0

>  <NsSH>
0

>  <NdS>
0

>  <NssS>
0

>  <NaaS>
0

>  <NdssS>
0

>  <NddssS>
0

>  <NsCl>
0

>  <NsBr>
0

>  <NsI>
0

>  <fragCpx>
212.04

>  <fMF>
0.44

>  <nHBAcc>
3

>  <nHBDon>
0

>  <Kier1>
22.2

>  <Kier2>
10.54

>  <Lipinski>
1

>  <GhoseFilter>
1

>  <FilterItLogS>
-4.8

>  <VMcGowan>
321.27

>  <LabuteASA>
174.02

>  <PEOE_VSA1>
9.64

>  <PEOE_VSA2>
9.69

>  <PEOE_VSA3>
0

>  <PEOE_VSA4>
0

>  <PEOE_VSA5>
0

>  <PEOE_VSA6>
67.59

>  <PEOE_VSA7>
29.89

>  <PEOE_VSA8>
32.72

>  <PEOE_VSA9>
13.21

>  <PEOE_VSA10>
5.41

>  <PEOE_VSA11>
0

>  <PEOE_VSA12>
5.91

>  <PEOE_VSA13>
0

>  <SMR_VSA1>
9.53

>  <SMR_VSA2>
0

>  <SMR_VSA3>
9.8

>  <SMR_VSA4>
5.92

>  <SMR_VSA5>
25.18

>  <SMR_VSA6>
45.94

>  <SMR_VSA7>
71.79

>  <SMR_VSA8>
0

>  <SMR_VSA9>
0

>  <SlogP_VSA1>
0

>  <SlogP_VSA2>
61.64

>  <SlogP_VSA3>
14.95

>  <SlogP_VSA4>
5.92

>  <SlogP_VSA5>
30.89

>  <SlogP_VSA6>
60.66

>  <SlogP_VSA7>
0

>  <SlogP_VSA8>
0

>  <SlogP_VSA9>
0

>  <SlogP_VSA10>
0

>  <SlogP_VSA11>
0

>  <EState_VSA1>
5.41

>  <EState_VSA2>
11.83

>  <EState_VSA3>
0

>  <EState_VSA4>
69.91

>  <EState_VSA5>
0

>  <EState_VSA6>
0

>  <EState_VSA7>
12.13

>  <EState_VSA8>
65.25

>  <EState_VSA9>
4.74

>  <EState_VSA10>
4.79

>  <VSA_EState1>
5.55

>  <VSA_EState2>
18.78

>  <VSA_EState3>
0

>  <VSA_EState4>
1.53

>  <VSA_EState5>
0.4

>  <VSA_EState6>
20.86

>  <VSA_EState7>
2.2

>  <VSA_EState8>
8.28

>  <VSA_EState9>
0

>  <apol>
66.89

>  <bpol>
38.13

>  <nRing>
4

>  <nHRing>
2

>  <naRing>
2

>  <naHRing>
0

>  <nARing 2>
2

>  <nAHRing 2>
2

>  <nFRing>
0

>  <nFHRing>
0

>  <nFaRing>
0

>  <nFaHRing>
0

>  <nFARing 2>
0

>  <nFAHRing 2>
0

>  <nRot>
6

>  <SLogP>
3.56

>  <SMR>
115.9

>  <TopoPSA(NO)>
32.78

>  <TopoPSA>
32.78

>  <JGI1>
0.14

>  <JGI2>
0.08

>  <JGI3>
0.06

>  <JGI4>
0.03

>  <JGI5>
0.02

>  <Diameter>
10

>  <Radius>
5

>  <TMWC10>
138.83

>  <TSRW10>
77.91

>  <MW>
392.25

>  <AMW>
6.43

>  <WPath>
1939

>  <WPol>
49

>  <Zagreb1>
152

>  <Zagreb2>
183

>  <mZagreb2>
6.53

>  <yes>


>  <nAR-cont>
1

>  <nHA-cont>
0.785905698

>  <MWHBN>
0.151474588

>  <MWHBN-cont>
0.936284873

>  <TPSA-cont>
0.771175245

>  <pka_cont>
0.97

>  <yes.1>


>  <BBB_SCORE>
5.217683497

>  <MMFF94 Energy>
166.13

$$$$
Compound 957
Actelion Java MolfileCreator 2.0

  0  0  0  0  0  0              0 V3000
M  V30 BEGIN CTAB
M  V30 COUNTS 87 92 0 0 0
M  V30 BEGIN ATOM
M  V30 1 F -0.0806 -2.3422 4.4457 0
M  V30 2 C -1.1365 -2.8027 3.6711 0 CFG=2
M  V30 3 C -1.6598 -4.1204 4.3775 0 CFG=2
M  V30 4 C -0.5219 -2.9959 2.2488 0 CFG=1
M  V30 5 C -2.2073 -1.6605 3.6983 0 CFG=2
M  V30 6 C -2.1595 -3.7314 5.7819 0
M  V30 7 C -0.5495 -5.1673 4.4679 0
M  V30 8 C -2.8302 -4.8069 3.636 0
M  V30 9 O -1.399 -3.6837 1.363 0
M  V30 10 C -0.0727 -1.6701 1.5888 0
M  V30 11 C -1.5969 -0.3958 3.076 0 CFG=1
M  V30 12 C -2.6805 -1.3805 5.137 0
M  V30 13 C -1.6894 -4.2746 6.9191 0
M  V30 14 C -3.1944 -2.6366 5.8324 0
M  V30 15 C -0.0843 -5.7043 5.6037 0
M  V30 16 C -1.1633 -0.577 1.6008 0 CFG=1
M  V30 17 C -2.4236 0.8873 3.0489 0
M  V30 18 C -0.6322 -5.3055 6.9134 0
M  V30 19 C -0.6866 0.8763 1.2769 0 CFG=1
M  V30 20 C -2.3386 -0.9644 0.664 0
M  V30 21 C -1.6872 1.7762 2.026 0 CFG=2
M  V30 22 O -0.2274 -5.81 7.9532 0
M  V30 23 O 0.5731 1.1525 1.8947 0
M  V30 24 C -0.6188 1.1997 -0.2279 0
M  V30 25 O -0.9175 2.7629 2.712 0
M  V30 26 C 0.4544 2.4216 2.545 0
M  V30 27 O -1.5705 1.7117 -0.8235 0
M  V30 28 C 0.6574 0.7899 -0.9558 0
M  V30 29 C 1.1178 2.3354 3.9133 0
M  V30 30 C 1.1256 3.4948 1.6922 0
M  V30 31 O 0.6423 1.2774 -2.2989 0
M  V30 32 C 1.5649 0.7047 -3.1174 0
M  V30 33 O 2.3359 -0.1838 -2.7797 0
M  V30 34 C 1.4775 1.2997 -4.5057 0
M  V30 35 C 2.8154 1.0898 -5.2223 0
M  V30 36 C 0.3162 0.6569 -5.2587 0
M  V30 37 N 2.8881 1.7816 -6.4979 0
M  V30 38 C 3.1097 3.142 -6.5652 0
M  V30 39 O 3.269 3.8438 -5.5727 0
M  V30 40 C 3.1777 3.7385 -7.9272 0
M  V30 41 C 2.4673 3.2046 -9.0104 0
M  V30 42 C 3.9585 4.8868 -8.11 0
M  V30 43 C 2.5612 3.803 -10.2695 0
M  V30 44 C 4.0503 5.4806 -9.3698 0
M  V30 45 C 3.355 4.936 -10.4488 0
M  V30 46 H 0.3783 -3.6144 2.3426 0
M  V30 47 H -3.0861 -1.9635 3.1207 0
M  V30 48 H -0.1235 -5.5221 3.5322 0
M  V30 49 H -3.6102 -4.1019 3.3336 0
M  V30 50 H -3.3115 -5.5621 4.2718 0
M  V30 51 H -2.5007 -5.3362 2.7357 0
M  V30 52 H -0.9036 -3.8822 0.548 0
M  V30 53 H 0.8161 -1.3158 2.1254 0
M  V30 54 H 0.2386 -1.8694 0.5579 0
M  V30 55 H -0.7036 -0.1659 3.6763 0
M  V30 56 H -1.8579 -0.9507 5.7239 0
M  V30 57 H -3.4838 -0.6342 5.1286 0
M  V30 58 H -2.0409 -3.9798 7.9014 0
M  V30 59 H -3.4591 -2.3852 6.8668 0
M  V30 60 H -4.1198 -2.9791 5.3552 0
M  V30 61 H 0.697 -6.4541 5.6176 0
M  V30 62 H -2.4833 1.3552 4.0369 0
M  V30 63 H -3.4429 0.6767 2.7067 0
M  V30 64 H -2.897 -1.8369 1.0074 0
M  V30 65 H -3.0716 -0.1576 0.5592 0
M  V30 66 H -1.9692 -1.1974 -0.3412 0
M  V30 67 H -2.4187 2.2902 1.3956 0
M  V30 68 H 1.5214 1.2232 -0.4445 0
M  V30 69 H 0.7079 -0.3018 -0.9492 0
M  V30 70 H 2.1708 2.0474 3.8278 0
M  V30 71 H 0.6258 1.5798 4.5352 0
M  V30 72 H 1.0467 3.2868 4.4511 0
M  V30 73 H 1.076 4.4753 2.178 0
M  V30 74 H 0.6244 3.5968 0.7236 0
M  V30 75 H 2.1726 3.2451 1.4915 0
M  V30 76 H 1.2929 2.3758 -4.3994 0
M  V30 77 H 3.6446 1.444 -4.5974 0
M  V30 78 H 2.9907 0.0268 -5.4248 0
M  V30 79 H 0.4664 -0.4223 -5.373 0
M  V30 80 H -0.6266 0.7996 -4.7194 0
M  V30 81 H 0.1995 1.0939 -6.2555 0
M  V30 82 H 2.8773 1.2293 -7.3443 0
M  V30 83 H 1.8149 2.3456 -8.8879 0
M  V30 84 H 4.4983 5.3194 -7.2696 0
M  V30 85 H 2.0067 3.3926 -11.1101 0
M  V30 86 H 4.6606 6.37 -9.5068 0
M  V30 87 H 3.4239 5.4022 -11.4288 0
M  V30 END ATOM
M  V30 BEGIN BOND
M  V30 1 1 1 2
M  V30 2 1 2 3
M  V30 3 1 2 4
M  V30 4 1 2 5
M  V30 5 1 3 6
M  V30 6 1 3 7
M  V30 7 1 3 8
M  V30 8 1 4 9
M  V30 9 1 4 10
M  V30 10 1 5 11
M  V30 11 1 5 12
M  V30 12 2 6 13
M  V30 13 1 6 14
M  V30 14 2 7 15
M  V30 15 1 10 16
M  V30 16 1 11 17
M  V30 17 1 13 18
M  V30 18 1 16 19
M  V30 19 1 16 20
M  V30 20 1 17 21
M  V30 21 2 18 22
M  V30 22 1 19 23
M  V30 23 1 19 24
M  V30 24 1 21 25
M  V30 25 1 23 26
M  V30 26 2 24 27
M  V30 27 1 24 28
M  V30 28 1 26 29
M  V30 29 1 26 30
M  V30 30 1 28 31
M  V30 31 1 31 32
M  V30 32 2 32 33
M  V30 33 1 32 34
M  V30 34 1 34 35
M  V30 35 1 34 36
M  V30 36 1 35 37
M  V30 37 1 37 38
M  V30 38 2 38 39
M  V30 39 1 38 40
M  V30 40 2 40 41
M  V30 41 1 40 42
M  V30 42 1 41 43
M  V30 43 2 42 44
M  V30 44 2 43 45
M  V30 45 1 11 16
M  V30 46 1 12 14
M  V30 47 1 15 18
M  V30 48 1 19 21
M  V30 49 1 25 26
M  V30 50 1 44 45
M  V30 51 1 4 46
M  V30 52 1 5 47
M  V30 53 1 7 48
M  V30 54 1 8 49
M  V30 55 1 8 50
M  V30 56 1 8 51
M  V30 57 1 9 52
M  V30 58 1 10 53
M  V30 59 1 10 54
M  V30 60 1 11 55
M  V30 61 1 12 56
M  V30 62 1 12 57
M  V30 63 1 13 58
M  V30 64 1 14 59
M  V30 65 1 14 60
M  V30 66 1 15 61
M  V30 67 1 17 62
M  V30 68 1 17 63
M  V30 69 1 20 64
M  V30 70 1 20 65
M  V30 71 1 20 66
M  V30 72 1 21 67
M  V30 73 1 28 68
M  V30 74 1 28 69
M  V30 75 1 29 70
M  V30 76 1 29 71
M  V30 77 1 29 72
M  V30 78 1 30 73
M  V30 79 1 30 74
M  V30 80 1 30 75
M  V30 81 1 34 76
M  V30 82 1 35 77
M  V30 83 1 35 78
M  V30 84 1 36 79
M  V30 85 1 36 80
M  V30 86 1 36 81
M  V30 87 1 37 82
M  V30 88 1 41 83
M  V30 89 1 42 84
M  V30 90 1 43 85
M  V30 91 1 44 86
M  V30 92 1 45 87
M  V30 END BOND
M  V30 BEGIN COLLECTION
M  V30 MDLV30/STEABS ATOMS=(8 2 3 4 5 11 16 19 21)
M  V30 END COLLECTION
M  V30 END CTAB
M  END
>  <Column 1>
1144

>  <level_0>
1285

>  <index>
1285

>  <Unnamed: 0>
1285

>  <NO.>
1297

>  <Name>
triamcinolone benetonide

>  <IUPAC_name>
[2-[(1s-2s-4r-8s-9s-11s-12r-13s)-12-fluoro-11-hydroxy-6-6-9-13-tetramethyl-16-oxo-5-7-dioxapentacyclo[10.8.0.02-9.04-8.013-18]icosa-14-17-dien-8-yl]-2-oxoethyl] 3-benzamido-2-methylpropanoate

>  <SMILES>
CC(CNC(=O)c1ccccc1)C(=O)OCC(=O)[C@@]12OC(C)(C)O[C@@H]1C[C@H]1[C@@H]3CCC4=CC(=O)C=C[C@]4(C)[C@@]3(F)[C@@H](O)C[C@@]12C

>  <CID>
62963

>  <logBB>


>  <BBB+/BBB->
BBB+

>  <Inchi>
InChI=1S/C35H42FNO8/c1-20(18-37-29(41)21-9-7-6-8-10-21)30(42)43-19-27(40)35-28(44-31(2-3)45-35)16-25-24-12-11-22-15-23(38)13-14-32(22-4)34(24-36)26(39)17-33(25-35)5/h6-10-13-15-20-24-26-28-39H-11-12-16-19H2-1-5H3-(H-37-41)/t20?-24--25--26--28+-32--33--34--35+/m0/s1

>  <threshold>
-1

>  <reference>
R1|R6|R27|R30|

>  <group>
B

>  <Class>
-1

>  <ABC>
36.13

>  <ABCGG>
27.45

>  <nAcid>
0

>  <nBase>
0

>  <nAromAtom>
6

>  <nAromBond>
6

>  <nAtom>
87

>  <nHeavyAtom>
45

>  <nSpiro>
0

>  <nBridgehead>
0

>  <nHetero>
10

>  <nN>
1

>  <nO>
8

>  <nF>
1

>  <BalabanJ>
1.18

>  <BertzCT>
1489.24

>  <nBonds>
92

>  <nBondsO>
50

>  <nBondsS>
80

>  <nBondsD>
6

>  <nBondsT>
0

>  <nBondsA>
6

>  <nBondsM>
12

>  <nBondsKS>
83

>  <nBondsKD>
9

>  <RNCG>
0.12

>  <RPCG>
0.08

>  <FCSP3>
0.6

>  <SZ>
55.33

>  <Sm>
51.93

>  <Sv>
53.5

>  <Sse>
87.91

>  <Sp>
56.6

>  <Si>
98.23

>  <MZ>
0.64

>  <Mm>
0.6

>  <Mv>
0.61

>  <Mse>
1.01

>  <Mp>
0.65

>  <Mi>
1.13

>  <NsCH3>
5

>  <NdCH2>
0

>  <NssCH2>
6

>  <NtCH>
0

>  <NdsCH>
3

>  <NaaCH>
5

>  <NsssCH>
5

>  <NddC>
0

>  <NtsC>
0

>  <NdssC>
5

>  <NaasC>
1

>  <NaaaC>
0

>  <NssssC>
5

>  <NsNH3>
0

>  <NsNH2>
0

>  <NssNH2>
0

>  <NdNH>
0

>  <NssNH>
1

>  <NaaNH>
0

>  <NtN>
0

>  <NsssNH>
0

>  <NdsN>
0

>  <NaaN>
0

>  <NsssN>
0

>  <NddsN>
0

>  <NaasN>
0

>  <NssssN>
0

>  <NsOH>
1

>  <NdO>
4

>  <NssO>
3

>  <NaaO>
0

>  <NsF>
1

>  <NsSiH3>
0

>  <NssSiH2>
0

>  <NsssSiH>
0

>  <NssssSi>
0

>  <NsPH2>
0

>  <NssPH>
0

>  <NsssP>
0

>  <NdsssP>
0

>  <NsssssP>
0

>  <NsSH>
0

>  <NdS>
0

>  <NssS>
0

>  <NaaS>
0

>  <NdssS>
0

>  <NddssS>
0

>  <NsCl>
0

>  <NsBr>
0

>  <NsI>
0

>  <fragCpx>
520.1

>  <fMF>
0.39

>  <nHBAcc>
8

>  <nHBDon>
2

>  <Kier1>
34.85

>  <Kier2>
12.4

>  <Lipinski>
0

>  <GhoseFilter>
0

>  <FilterItLogS>
-6.1

>  <VMcGowan>
458.85

>  <LabuteASA>
262.1

>  <PEOE_VSA1>
24.63

>  <PEOE_VSA2>
19.18

>  <PEOE_VSA3>
4.39

>  <PEOE_VSA4>
0

>  <PEOE_VSA5>
0

>  <PEOE_VSA6>
43.7

>  <PEOE_VSA7>
76.66

>  <PEOE_VSA8>
28.86

>  <PEOE_VSA9>
18.13

>  <PEOE_VSA10>
0

>  <PEOE_VSA11>
29.45

>  <PEOE_VSA12>
5.78

>  <PEOE_VSA13>
5.91

>  <SMR_VSA1>
42.89

>  <SMR_VSA2>
0

>  <SMR_VSA3>
5.32

>  <SMR_VSA4>
28.58

>  <SMR_VSA5>
89.57

>  <SMR_VSA6>
13.15

>  <SMR_VSA7>
59.7

>  <SMR_VSA8>
0

>  <SMR_VSA9>
0

>  <SlogP_VSA1>
5.32

>  <SlogP_VSA2>
70.97

>  <SlogP_VSA3>
28.59

>  <SlogP_VSA4>
28.58

>  <SlogP_VSA5>
70.66

>  <SlogP_VSA6>
54.13

>  <SlogP_VSA7>
0

>  <SlogP_VSA8>
0

>  <SlogP_VSA9>
0

>  <SlogP_VSA10>
4.39

>  <SlogP_VSA11>
0

>  <EState_VSA1>
70.29

>  <EState_VSA2>
30.57

>  <EState_VSA3>
30.4

>  <EState_VSA4>
0

>  <EState_VSA5>
12.15

>  <EState_VSA6>
64.1

>  <EState_VSA7>
6.92

>  <EState_VSA8>
5.32

>  <EState_VSA9>
14.21

>  <EState_VSA10>
24.28

>  <VSA_EState1>
35.89

>  <VSA_EState2>
51.77

>  <VSA_EState3>
14.43

>  <VSA_EState4>
-4.71

>  <VSA_EState5>
-4.56

>  <VSA_EState6>
8.61

>  <VSA_EState7>
3.42

>  <VSA_EState8>
8.05

>  <VSA_EState9>
0

>  <apol>
94.53

>  <bpol>
52.5

>  <nRing>
6

>  <nHRing>
1

>  <naRing>
1

>  <naHRing>
0

>  <nARing 2>
5

>  <nAHRing 2>
1

>  <nFRing>
1

>  <nFHRing>
1

>  <nFaRing>
0

>  <nFaHRing>
0

>  <nFARing 2>
1

>  <nFAHRing 2>
1

>  <nRot>
7

>  <SLogP>
4.04

>  <SMR>
160.41

>  <TopoPSA(NO)>
128.23

>  <TopoPSA>
128.23

>  <JGI1>
0.29

>  <JGI2>
0.13

>  <JGI3>
0.08

>  <JGI4>
0.06

>  <JGI5>
0.04

>  <Diameter>
21

>  <Radius>
11

>  <TMWC10>
179.87

>  <TSRW10>
100.87

>  <MW>
623.29

>  <AMW>
7.16

>  <WPath>
7389

>  <WPol>
97

>  <Zagreb1>
262

>  <Zagreb2>
331

>  <mZagreb2>
9.33

>  <yes>


>  <nAR-cont>
0

>  <nHA-cont>
0.154890577

>  <MWHBN>
0.400548325

>  <MWHBN-cont>
0.47390291

>  <TPSA-cont>
0

>  <pka_cont>
0.97

>  <yes.1>


>  <BBB_SCORE>
1.350744942

>  <MMFF94 Energy>
158.43

$$$$
Compound 958
Actelion Java MolfileCreator 2.0

  0  0  0  0  0  0              0 V3000
M  V30 BEGIN CTAB
M  V30 COUNTS 43 44 0 0 0
M  V30 BEGIN ATOM
M  V30 1 Cl 3.5013 4.0592 -1.113 0
M  V30 2 C 2.8383 3.0204 0.177 0
M  V30 3 C 1.8876 1.9738 -0.419 0
M  V30 4 N 1.3376 1.058 0.6018 0
M  V30 5 C 0.9056 -0.2555 0.0452 0 CFG=2
M  V30 6 C 0.2564 1.7081 1.374 0
M  V30 7 C 0.0073 -0.1998 -1.2169 0
M  V30 8 C 2.143 -1.1352 -0.2065 0
M  V30 9 C -0.0795 0.9917 2.6656 0
M  V30 10 O -0.4847 -1.5139 -1.4971 0
M  V30 11 C -1.3968 0.5958 2.9396 0
M  V30 12 C 0.9166 0.7364 3.6205 0
M  V30 13 C -1.3063 -1.6556 -2.5809 0
M  V30 14 C -1.7076 -0.0492 4.1383 0
M  V30 15 C 0.6038 0.0914 4.8179 0
M  V30 16 C -1.7032 -0.6396 -3.4515 0
M  V30 17 C -1.7654 -2.9578 -2.7968 0
M  V30 18 C -0.708 -0.301 5.0763 0
M  V30 19 C -2.5514 -0.9272 -4.5259 0
M  V30 20 C -2.6121 -3.2459 -3.8685 0
M  V30 21 C -3.0055 -2.2285 -4.7342 0
M  V30 22 H 2.3365 3.6809 0.8882 0
M  V30 23 H 3.6827 2.5407 0.6817 0
M  V30 24 H 1.0769 2.4653 -0.9729 0
M  V30 25 H 2.4687 1.4083 -1.1566 0
M  V30 26 H 0.3467 -0.8031 0.8151 0
M  V30 27 H 0.5491 2.722 1.672 0
M  V30 28 H -0.6421 1.8302 0.7568 0
M  V30 29 H 0.5859 0.1665 -2.0734 0
M  V30 30 H -0.8431 0.4662 -1.0328 0
M  V30 31 H 1.8461 -2.1657 -0.4305 0
M  V30 32 H 2.7448 -0.7764 -1.0472 0
M  V30 33 H 2.7836 -1.17 0.682 0
M  V30 34 H -2.1901 0.7815 2.2193 0
M  V30 35 H 1.9451 1.0325 3.4254 0
M  V30 36 H -2.7304 -0.3572 4.3397 0
M  V30 37 H 1.3849 -0.1071 5.5469 0
M  V30 38 H -1.3721 0.3854 -3.3262 0
M  V30 39 H -1.4601 -3.7547 -2.123 0
M  V30 40 H -0.9509 -0.8052 6.0079 0
M  V30 41 H -2.8574 -0.1328 -5.2021 0
M  V30 42 H -2.9618 -4.2627 -4.0254 0
M  V30 43 H -3.6641 -2.4491 -5.5702 0
M  V30 END ATOM
M  V30 BEGIN BOND
M  V30 1 1 1 2
M  V30 2 1 2 3
M  V30 3 1 3 4
M  V30 4 1 4 5
M  V30 5 1 4 6
M  V30 6 1 5 7
M  V30 7 1 5 8
M  V30 8 1 6 9
M  V30 9 1 7 10
M  V30 10 2 9 11
M  V30 11 1 9 12
M  V30 12 1 10 13
M  V30 13 1 11 14
M  V30 14 2 12 15
M  V30 15 2 13 16
M  V30 16 1 13 17
M  V30 17 2 14 18
M  V30 18 1 16 19
M  V30 19 2 17 20
M  V30 20 2 19 21
M  V30 21 1 15 18
M  V30 22 1 20 21
M  V30 23 1 2 22
M  V30 24 1 2 23
M  V30 25 1 3 24
M  V30 26 1 3 25
M  V30 27 1 5 26
M  V30 28 1 6 27
M  V30 29 1 6 28
M  V30 30 1 7 29
M  V30 31 1 7 30
M  V30 32 1 8 31
M  V30 33 1 8 32
M  V30 34 1 8 33
M  V30 35 1 11 34
M  V30 36 1 12 35
M  V30 37 1 14 36
M  V30 38 1 15 37
M  V30 39 1 16 38
M  V30 40 1 17 39
M  V30 41 1 18 40
M  V30 42 1 19 41
M  V30 43 1 20 42
M  V30 44 1 21 43
M  V30 END BOND
M  V30 BEGIN COLLECTION
M  V30 MDLV30/STERAC1 ATOMS=(1 5)
M  V30 END COLLECTION
M  V30 END CTAB
M  END
>  <Column 1>
1145

>  <level_0>
1286

>  <index>
1286

>  <Unnamed: 0>
1286

>  <NO.>
1298

>  <Name>
phenoxybenzamine

>  <IUPAC_name>
n-benzyl-n-(2-chloroethyl)-1-phenoxypropan-2-amine

>  <SMILES>
CC(COc1ccccc1)N(CCCl)Cc1ccccc1

>  <CID>
4768

>  <logBB>


>  <BBB+/BBB->
BBB-

>  <Inchi>
InChI=1S/C18H22ClNO/c1-16(15-21-18-10-6-3-7-11-18)20(13-12-19)14-17-8-4-2-5-9-17/h2-11-16H-12-15H2-1H3

>  <threshold>
-1

>  <reference>
R1|R14|R23|R27|R30|

>  <group>
B

>  <Class>
1

>  <ABC>
15.63

>  <ABCGG>
13.01

>  <nAcid>
0

>  <nBase>
1

>  <nAromAtom>
12

>  <nAromBond>
12

>  <nAtom>
43

>  <nHeavyAtom>
21

>  <nSpiro>
0

>  <nBridgehead>
0

>  <nHetero>
3

>  <nN>
1

>  <nO>
1

>  <nF>
0

>  <BalabanJ>
1.72

>  <BertzCT>
503.14

>  <nBonds>
44

>  <nBondsO>
22

>  <nBondsS>
32

>  <nBondsD>
0

>  <nBondsT>
0

>  <nBondsA>
12

>  <nBondsM>
12

>  <nBondsKS>
38

>  <nBondsKD>
6

>  <RNCG>
0.33

>  <RPCG>
0.08

>  <FCSP3>
0.33

>  <SZ>
27

>  <Sm>
25.3

>  <Sv>
26.52

>  <Sse>
42.53

>  <Sp>
29.23

>  <Si>
48.22

>  <MZ>
0.63

>  <Mm>
0.59

>  <Mv>
0.62

>  <Mse>
0.99

>  <Mp>
0.68

>  <Mi>
1.12

>  <NsCH3>
1

>  <NdCH2>
0

>  <NssCH2>
4

>  <NtCH>
0

>  <NdsCH>
0

>  <NaaCH>
10

>  <NsssCH>
1

>  <NddC>
0

>  <NtsC>
0

>  <NdssC>
0

>  <NaasC>
2

>  <NaaaC>
0

>  <NssssC>
0

>  <NsNH3>
0

>  <NsNH2>
0

>  <NssNH2>
0

>  <NdNH>
0

>  <NssNH>
0

>  <NaaNH>
0

>  <NtN>
0

>  <NsssNH>
0

>  <NdsN>
0

>  <NaaN>
0

>  <NsssN>
1

>  <NddsN>
0

>  <NaasN>
0

>  <NssssN>
0

>  <NsOH>
0

>  <NdO>
0

>  <NssO>
1

>  <NaaO>
0

>  <NsF>
0

>  <NsSiH3>
0

>  <NssSiH2>
0

>  <NsssSiH>
0

>  <NssssSi>
0

>  <NsPH2>
0

>  <NssPH>
0

>  <NsssP>
0

>  <NdsssP>
0

>  <NsssssP>
0

>  <NsSH>
0

>  <NdS>
0

>  <NssS>
0

>  <NaaS>
0

>  <NdssS>
0

>  <NddssS>
0

>  <NsCl>
1

>  <NsBr>
0

>  <NsI>
0

>  <fragCpx>
64.03

>  <fMF>
0.4

>  <nHBAcc>
2

>  <nHBDon>
0

>  <Kier1>
17.36

>  <Kier2>
9.9

>  <Lipinski>
1

>  <GhoseFilter>
1

>  <FilterItLogS>
-5.14

>  <VMcGowan>
245.05

>  <LabuteASA>
131.85

>  <PEOE_VSA1>
4.74

>  <PEOE_VSA2>
4.9

>  <PEOE_VSA3>
0

>  <PEOE_VSA4>
0

>  <PEOE_VSA5>
11.6

>  <PEOE_VSA6>
48.53

>  <PEOE_VSA7>
24.62

>  <PEOE_VSA8>
25.01

>  <PEOE_VSA9>
0

>  <PEOE_VSA10>
12.36

>  <PEOE_VSA11>
0

>  <PEOE_VSA12>
0

>  <PEOE_VSA13>
0

>  <SMR_VSA1>
4.74

>  <SMR_VSA2>
0

>  <SMR_VSA3>
4.9

>  <SMR_VSA4>
0

>  <SMR_VSA5>
19.51

>  <SMR_VSA6>
19.03

>  <SMR_VSA7>
66.23

>  <SMR_VSA8>
0

>  <SMR_VSA9>
5.75

>  <SlogP_VSA1>
4.74

>  <SlogP_VSA2>
29.97

>  <SlogP_VSA3>
6.54

>  <SlogP_VSA4>
0

>  <SlogP_VSA5>
12.49

>  <SlogP_VSA6>
60.66

>  <SlogP_VSA7>
0

>  <SlogP_VSA8>
0

>  <SlogP_VSA9>
0

>  <SlogP_VSA10>
0

>  <SlogP_VSA11>
5.75

>  <EState_VSA1>
0

>  <EState_VSA2>
0

>  <EState_VSA3>
18.53

>  <EState_VSA4>
18.84

>  <EState_VSA5>
5.56

>  <EState_VSA6>
0

>  <EState_VSA7>
36.4

>  <EState_VSA8>
36.09

>  <EState_VSA9>
16.34

>  <EState_VSA10>
0

>  <VSA_EState1>
5.85

>  <VSA_EState2>
2.35

>  <VSA_EState3>
0

>  <VSA_EState4>
1.3

>  <VSA_EState5>
1.54

>  <VSA_EState6>
20.7

>  <VSA_EState7>
0

>  <VSA_EState8>
4.59

>  <VSA_EState9>
0

>  <apol>
48.81

>  <bpol>
26.03

>  <nRing>
2

>  <nHRing>
0

>  <naRing>
2

>  <naHRing>
0

>  <nARing 2>
0

>  <nAHRing 2>
0

>  <nFRing>
0

>  <nFHRing>
0

>  <nFaRing>
0

>  <nFaHRing>
0

>  <nFARing 2>
0

>  <nFAHRing 2>
0

>  <nRot>
8

>  <SLogP>
4.19

>  <SMR>
88.97

>  <TopoPSA(NO)>
12.47

>  <TopoPSA>
12.47

>  <JGI1>
0.14

>  <JGI2>
0.06

>  <JGI3>
0.03

>  <JGI4>
0.03

>  <JGI5>
0.02

>  <Diameter>
12

>  <Radius>
6

>  <TMWC10>
113.3

>  <TSRW10>
53.73

>  <MW>
303.14

>  <AMW>
7.05

>  <WPath>
1046

>  <WPol>
26

>  <Zagreb1>
98

>  <Zagreb2>
108

>  <mZagreb2>
4.94

>  <yes>


>  <nAR-cont>
0.336376

>  <nHA-cont>
0.994529749

>  <MWHBN>
0.114870463

>  <MWHBN-cont>
0.806452629

>  <TPSA-cont>
0.912951657

>  <pka_cont>
0.97

>  <yes.1>


>  <BBB_SCORE>
4.851488006

>  <MMFF94 Energy>
79.898

$$$$
Compound 959
Actelion Java MolfileCreator 2.0

  0  0  0  0  0  0              0 V3000
M  V30 BEGIN CTAB
M  V30 COUNTS 26 26 0 0 0
M  V30 BEGIN ATOM
M  V30 1 O 0.3877 -0.2326 0.2326 0
M  V30 2 C 1.0998 0.8715 -0.1449 0
M  V30 3 C -1.0366 -0.1556 0.1452 0
M  V30 4 C 0.5675 2.0932 -0.5593 0
M  V30 5 C 2.4874 0.7154 -0.0894 0
M  V30 6 C -1.6872 -1.4864 0.5954 0 CFG=1
M  V30 7 C 1.418 3.1452 -0.9154 0
M  V30 8 C 3.3372 1.7643 -0.4447 0
M  V30 9 N -1.3836 -2.6237 -0.3014 0
M  V30 10 C -1.2254 -1.8574 2.0099 0
M  V30 11 C 2.801 2.9811 -0.8584 0
M  V30 12 N -2.0844 -2.5249 -1.557 0
M  V30 13 H -1.397 0.6409 0.8091 0
M  V30 14 H -1.3412 0.0779 -0.8822 0
M  V30 15 H -0.5019 2.2624 -0.6159 0
M  V30 16 H 2.908 -0.2345 0.2313 0
M  V30 17 H -2.7753 -1.3419 0.6352 0
M  V30 18 H 0.9988 4.095 -1.238 0
M  V30 19 H 4.4143 1.6285 -0.3986 0
M  V30 20 H -1.6035 -3.5064 0.1714 0
M  V30 21 H -1.762 -2.7394 2.3777 0
M  V30 22 H -0.1529 -2.0792 2.0455 0
M  V30 23 H -1.4242 -1.0371 2.7083 0
M  V30 24 H 3.4595 3.7999 -1.1362 0
M  V30 25 H -3.0596 -2.2335 -1.4666 0
M  V30 26 H -1.6231 -1.8696 -2.1936 0
M  V30 END ATOM
M  V30 BEGIN BOND
M  V30 1 1 1 2
M  V30 2 1 1 3
M  V30 3 2 2 4
M  V30 4 1 2 5
M  V30 5 1 3 6
M  V30 6 1 4 7
M  V30 7 2 5 8
M  V30 8 1 6 9
M  V30 9 1 6 10
M  V30 10 2 7 11
M  V30 11 1 9 12
M  V30 12 1 8 11
M  V30 13 1 3 13
M  V30 14 1 3 14
M  V30 15 1 4 15
M  V30 16 1 5 16
M  V30 17 1 6 17
M  V30 18 1 7 18
M  V30 19 1 8 19
M  V30 20 1 9 20
M  V30 21 1 10 21
M  V30 22 1 10 22
M  V30 23 1 10 23
M  V30 24 1 11 24
M  V30 25 1 12 25
M  V30 26 1 12 26
M  V30 END BOND
M  V30 BEGIN COLLECTION
M  V30 MDLV30/STERAC1 ATOMS=(1 6)
M  V30 END COLLECTION
M  V30 END CTAB
M  END
>  <Column 1>
1146

>  <level_0>
1287

>  <index>
1287

>  <Unnamed: 0>
1287

>  <NO.>
1299

>  <Name>
phenoxypropazine

>  <IUPAC_name>
1-phenoxypropan-2-ylhydrazine

>  <SMILES>
CC(COc1ccccc1)NN

>  <CID>
71467

>  <logBB>


>  <BBB+/BBB->
BBB+

>  <Inchi>
InChI=1S/C9H14N2O/c1-8(11-10)7-12-9-5-3-2-4-6-9/h2-6-8-11H-7-10H2-1H3

>  <threshold>
-1

>  <reference>
R1|R19|R6|R27|R27|R30|

>  <group>
B

>  <Class>
-1

>  <ABC>
8.59

>  <ABCGG>
7.89

>  <nAcid>
0

>  <nBase>
0

>  <nAromAtom>
6

>  <nAromBond>
6

>  <nAtom>
26

>  <nHeavyAtom>
12

>  <nSpiro>
0

>  <nBridgehead>
0

>  <nHetero>
3

>  <nN>
2

>  <nO>
1

>  <nF>
0

>  <BalabanJ>
2.05

>  <BertzCT>
213.03

>  <nBonds>
26

>  <nBondsO>
12

>  <nBondsS>
20

>  <nBondsD>
0

>  <nBondsT>
0

>  <nBondsA>
6

>  <nBondsM>
6

>  <nBondsKS>
23

>  <nBondsKD>
3

>  <RNCG>
0.38

>  <RPCG>
0.11

>  <FCSP3>
0.33

>  <SZ>
15

>  <Sm>
13.84

>  <Sv>
15.02

>  <Sse>
25.87

>  <Sp>
16.39

>  <Si>
29.7

>  <MZ>
0.58

>  <Mm>
0.53

>  <Mv>
0.58

>  <Mse>
1

>  <Mp>
0.63

>  <Mi>
1.14

>  <NsCH3>
1

>  <NdCH2>
0

>  <NssCH2>
1

>  <NtCH>
0

>  <NdsCH>
0

>  <NaaCH>
5

>  <NsssCH>
1

>  <NddC>
0

>  <NtsC>
0

>  <NdssC>
0

>  <NaasC>
1

>  <NaaaC>
0

>  <NssssC>
0

>  <NsNH3>
0

>  <NsNH2>
1

>  <NssNH2>
0

>  <NdNH>
0

>  <NssNH>
1

>  <NaaNH>
0

>  <NtN>
0

>  <NsssNH>
0

>  <NdsN>
0

>  <NaaN>
0

>  <NsssN>
0

>  <NddsN>
0

>  <NaasN>
0

>  <NssssN>
0

>  <NsOH>
0

>  <NdO>
0

>  <NssO>
1

>  <NaaO>
0

>  <NsF>
0

>  <NsSiH3>
0

>  <NssSiH2>
0

>  <NsssSiH>
0

>  <NssssSi>
0

>  <NsPH2>
0

>  <NssPH>
0

>  <NsssP>
0

>  <NdsssP>
0

>  <NsssssP>
0

>  <NsSH>
0

>  <NdS>
0

>  <NssS>
0

>  <NaaS>
0

>  <NdssS>
0

>  <NddssS>
0

>  <NsCl>
0

>  <NsBr>
0

>  <NsI>
0

>  <fragCpx>
12.03

>  <fMF>
0.23

>  <nHBAcc>
3

>  <nHBDon>
2

>  <Kier1>
10.08

>  <Kier2>
5.61

>  <Lipinski>
1

>  <GhoseFilter>
1

>  <FilterItLogS>
-1.91

>  <VMcGowan>
139.74

>  <LabuteASA>
72.5

>  <PEOE_VSA1>
4.74

>  <PEOE_VSA2>
11.27

>  <PEOE_VSA3>
0

>  <PEOE_VSA4>
0

>  <PEOE_VSA5>
0

>  <PEOE_VSA6>
18.2

>  <PEOE_VSA7>
19.06

>  <PEOE_VSA8>
0

>  <PEOE_VSA9>
6.04

>  <PEOE_VSA10>
12.36

>  <PEOE_VSA11>
0

>  <PEOE_VSA12>
0

>  <PEOE_VSA13>
0

>  <SMR_VSA1>
4.74

>  <SMR_VSA2>
0

>  <SMR_VSA3>
5.43

>  <SMR_VSA4>
5.84

>  <SMR_VSA5>
12.97

>  <SMR_VSA6>
6.61

>  <SMR_VSA7>
30.33

>  <SMR_VSA8>
0

>  <SMR_VSA9>
5.75

>  <SlogP_VSA1>
16.01

>  <SlogP_VSA2>
12.65

>  <SlogP_VSA3>
0

>  <SlogP_VSA4>
0

>  <SlogP_VSA5>
6.92

>  <SlogP_VSA6>
30.33

>  <SlogP_VSA7>
0

>  <SlogP_VSA8>
0

>  <SlogP_VSA9>
0

>  <SlogP_VSA10>
0

>  <SlogP_VSA11>
5.75

>  <EState_VSA1>
0

>  <EState_VSA2>
6.04

>  <EState_VSA3>
6.61

>  <EState_VSA4>
5.75

>  <EState_VSA5>
0

>  <EState_VSA6>
0

>  <EState_VSA7>
37.26

>  <EState_VSA8>
5.43

>  <EState_VSA9>
10.58

>  <EState_VSA10>
0

>  <VSA_EState1>
5.42

>  <VSA_EState2>
0

>  <VSA_EState3>
0

>  <VSA_EState4>
2.61

>  <VSA_EState5>
6.08

>  <VSA_EState6>
9.85

>  <VSA_EState7>
0

>  <VSA_EState8>
2.55

>  <VSA_EState9>
0

>  <apol>
27.37

>  <bpol>
14.64

>  <nRing>
1

>  <nHRing>
0

>  <naRing>
1

>  <naHRing>
0

>  <nARing 2>
0

>  <nAHRing 2>
0

>  <nFRing>
0

>  <nFHRing>
0

>  <nFaRing>
0

>  <nFaHRing>
0

>  <nFARing 2>
0

>  <nFAHRing 2>
0

>  <nRot>
4

>  <SLogP>
0.92

>  <SMR>
48.72

>  <TopoPSA(NO)>
47.28

>  <TopoPSA>
47.28

>  <JGI1>
0.17

>  <JGI2>
0.06

>  <JGI3>
0.02

>  <JGI4>
0.04

>  <JGI5>
0.03

>  <Diameter>
8

>  <Radius>
4

>  <TMWC10>
87.15

>  <TSRW10>
41.28

>  <MW>
166.11

>  <AMW>
6.39

>  <WPath>
226

>  <WPol>
12

>  <Zagreb1>
52

>  <Zagreb2>
55

>  <mZagreb2>
2.92

>  <yes>


>  <nAR-cont>
0.336376

>  <nHA-cont>
0.785745021

>  <MWHBN>
0.387946748

>  <MWHBN-cont>
0.523553221

>  <TPSA-cont>
0.669956241

>  <pka_cont>
0.97

>  <yes.1>


>  <BBB_SCORE>
3.732363334

>  <MMFF94 Energy>
84.085

$$$$
Compound 960
Actelion Java MolfileCreator 2.0

  0  0  0  0  0  0              0 V3000
M  V30 BEGIN CTAB
M  V30 COUNTS 28 27 0 0 0
M  V30 BEGIN ATOM
M  V30 1 O -1.9883 -1.6057 0.1528 0
M  V30 2 C -1.4817 -1.9412 1.2108 0
M  V30 3 O -0.4886 -1.272 1.8398 0
M  V30 4 N -1.8198 -3.044 1.9053 0
M  V30 5 C -0.0967 -0.0238 1.224 0 CFG=2
M  V30 6 C 0.7391 -0.2876 -0.0556 0
M  V30 7 C 0.716 0.7263 2.2774 0
M  V30 8 N 0.448 0.6611 -1.2485 0 CHG=1
M  V30 9 C -0.9646 0.4331 -1.7926 0
M  V30 10 C 1.4371 0.3203 -2.3671 0
M  V30 11 C 0.6253 2.1236 -0.8789 0
M  V30 12 H -2.5581 -3.6448 1.5659 0
M  V30 13 H -1.3718 -3.2599 2.7841 0
M  V30 14 H -1.0024 0.5575 1.0228 0
M  V30 15 H 0.5887 -1.3054 -0.4338 0
M  V30 16 H 1.8094 -0.1821 0.161 0
M  V30 17 H 1.051 1.7025 1.9186 0
M  V30 18 H 1.593 0.1446 2.5828 0
M  V30 19 H 0.1152 0.8788 3.181 0
M  V30 20 H -1.0907 1.0577 -2.6825 0
M  V30 21 H -1.0674 -0.6219 -2.0589 0
M  V30 22 H -1.692 0.7296 -1.0346 0
M  V30 23 H 1.3039 -0.7308 -2.6394 0
M  V30 24 H 1.2287 0.9665 -3.2251 0
M  V30 25 H 2.4511 0.496 -1.9962 0
M  V30 26 H 0.5026 2.7275 -1.7832 0
M  V30 27 H -0.1362 2.3999 -0.1456 0
M  V30 28 H 1.6295 2.2563 -0.4669 0
M  V30 END ATOM
M  V30 BEGIN BOND
M  V30 1 2 1 2
M  V30 2 1 2 3
M  V30 3 1 2 4
M  V30 4 1 3 5
M  V30 5 1 5 6
M  V30 6 1 5 7
M  V30 7 1 6 8
M  V30 8 1 8 9
M  V30 9 1 8 10
M  V30 10 1 8 11
M  V30 11 1 4 12
M  V30 12 1 4 13
M  V30 13 1 5 14
M  V30 14 1 6 15
M  V30 15 1 6 16
M  V30 16 1 7 17
M  V30 17 1 7 18
M  V30 18 1 7 19
M  V30 19 1 9 20
M  V30 20 1 9 21
M  V30 21 1 9 22
M  V30 22 1 10 23
M  V30 23 1 10 24
M  V30 24 1 10 25
M  V30 25 1 11 26
M  V30 26 1 11 27
M  V30 27 1 11 28
M  V30 END BOND
M  V30 BEGIN COLLECTION
M  V30 MDLV30/STERAC1 ATOMS=(1 5)
M  V30 END COLLECTION
M  V30 END CTAB
M  END
>  <Column 1>
1147

>  <level_0>
1288

>  <index>
1288

>  <Unnamed: 0>
1288

>  <NO.>
1300

>  <Name>
gr94839_f

>  <IUPAC_name>
2-carbamoyloxypropyl(trimethyl)azanium;chloride

>  <SMILES>
CC(C[N+](C)(C)C)OC(N)=O

>  <CID>
2370

>  <logBB>


>  <BBB+/BBB->
BBB-

>  <Inchi>
InChI=1S/C7H16N2O2/c1-6(11-7(8)10)5-9(2-3)4/h6H-5H2-1-4H3-(H--8-10)/p+1

>  <threshold>
-1

>  <reference>
R1|R13|R28|R14|R23|R27|R30|R36|

>  <group>
B

>  <Class>
-1

>  <ABC>
7.88

>  <ABCGG>
7.99

>  <nAcid>
0

>  <nBase>
1

>  <nAromAtom>
0

>  <nAromBond>
0

>  <nAtom>
28

>  <nHeavyAtom>
11

>  <nSpiro>
0

>  <nBridgehead>
0

>  <nHetero>
4

>  <nN>
2

>  <nO>
2

>  <nF>
0

>  <BalabanJ>
3.61

>  <BertzCT>
139.87

>  <nBonds>
27

>  <nBondsO>
10

>  <nBondsS>
26

>  <nBondsD>
1

>  <nBondsT>
0

>  <nBondsA>
0

>  <nBondsM>
1

>  <nBondsKS>
26

>  <nBondsKD>
1

>  <RNCG>
0.33

>  <RPCG>
0.17

>  <FCSP3>
0.86

>  <SZ>
14.83

>  <Sm>
13.42

>  <Sv>
14.55

>  <Sse>
28.03

>  <Sp>
16.07

>  <Si>
32.53

>  <MZ>
0.53

>  <Mm>
0.48

>  <Mv>
0.52

>  <Mse>
1

>  <Mp>
0.57

>  <Mi>
1.16

>  <NsCH3>
4

>  <NdCH2>
0

>  <NssCH2>
1

>  <NtCH>
0

>  <NdsCH>
0

>  <NaaCH>
0

>  <NsssCH>
1

>  <NddC>
0

>  <NtsC>
0

>  <NdssC>
1

>  <NaasC>
0

>  <NaaaC>
0

>  <NssssC>
0

>  <NsNH3>
0

>  <NsNH2>
1

>  <NssNH2>
0

>  <NdNH>
0

>  <NssNH>
0

>  <NaaNH>
0

>  <NtN>
0

>  <NsssNH>
0

>  <NdsN>
0

>  <NaaN>
0

>  <NsssN>
0

>  <NddsN>
0

>  <NaasN>
0

>  <NssssN>
1

>  <NsOH>
0

>  <NdO>
1

>  <NssO>
1

>  <NaaO>
0

>  <NsF>
0

>  <NsSiH3>
0

>  <NssSiH2>
0

>  <NsssSiH>
0

>  <NssssSi>
0

>  <NsPH2>
0

>  <NssPH>
0

>  <NsssP>
0

>  <NdsssP>
0

>  <NsssssP>
0

>  <NsSH>
0

>  <NdS>
0

>  <NssS>
0

>  <NaaS>
0

>  <NdssS>
0

>  <NddssS>
0

>  <NsCl>
0

>  <NsBr>
0

>  <NsI>
0

>  <fragCpx>
10.04

>  <fMF>
0

>  <nHBAcc>
2

>  <nHBDon>
1

>  <Kier1>
11

>  <Kier2>
4.13

>  <Lipinski>
1

>  <GhoseFilter>
1

>  <FilterItLogS>
-1.26

>  <VMcGowan>
139.04

>  <LabuteASA>
67.51

>  <PEOE_VSA1>
14.95

>  <PEOE_VSA2>
0

>  <PEOE_VSA3>
4.79

>  <PEOE_VSA4>
0

>  <PEOE_VSA5>
0

>  <PEOE_VSA6>
0

>  <PEOE_VSA7>
6.92

>  <PEOE_VSA8>
0

>  <PEOE_VSA9>
21.14

>  <PEOE_VSA10>
12.65

>  <PEOE_VSA11>
0

>  <PEOE_VSA12>
0

>  <PEOE_VSA13>
0

>  <SMR_VSA1>
14.01

>  <SMR_VSA2>
0

>  <SMR_VSA3>
0

>  <SMR_VSA4>
5.73

>  <SMR_VSA5>
13.03

>  <SMR_VSA6>
27.69

>  <SMR_VSA7>
0

>  <SMR_VSA8>
0

>  <SMR_VSA9>
0

>  <SlogP_VSA1>
5.73

>  <SlogP_VSA2>
44.37

>  <SlogP_VSA3>
4.74

>  <SlogP_VSA4>
0

>  <SlogP_VSA5>
6.92

>  <SlogP_VSA6>
0

>  <SlogP_VSA7>
0

>  <SlogP_VSA8>
0

>  <SlogP_VSA9>
0

>  <SlogP_VSA10>
4.79

>  <SlogP_VSA11>
0

>  <EState_VSA1>
6.09

>  <EState_VSA2>
6.1

>  <EState_VSA3>
0

>  <EState_VSA4>
11.03

>  <EState_VSA5>
0

>  <EState_VSA6>
0

>  <EState_VSA7>
28.07

>  <EState_VSA8>
0

>  <EState_VSA9>
10.47

>  <EState_VSA10>
4.79

>  <VSA_EState1>
5.51

>  <VSA_EState2>
10.29

>  <VSA_EState3>
0

>  <VSA_EState4>
4.84

>  <VSA_EState5>
0

>  <VSA_EState6>
0

>  <VSA_EState7>
-0.82

>  <VSA_EState8>
2.59

>  <VSA_EState9>
6.09

>  <apol>
26.83

>  <bpol>
21.37

>  <nRing>
0

>  <nHRing>
0

>  <naRing>
0

>  <naHRing>
0

>  <nARing 2>
0

>  <nAHRing 2>
0

>  <nFRing>
0

>  <nFHRing>
0

>  <nFaRing>
0

>  <nFaHRing>
0

>  <nFARing 2>
0

>  <nFAHRing 2>
0

>  <nRot>
3

>  <SLogP>
0.18

>  <SMR>
43.03

>  <TopoPSA(NO)>
52.32

>  <TopoPSA>
52.32

>  <JGI1>
0.5

>  <JGI2>
0.06

>  <JGI3>
0.13

>  <JGI4>
0.02

>  <JGI5>
0.07

>  <Diameter>
6

>  <Radius>
3

>  <TMWC10>
83.49

>  <TSRW10>
40.08

>  <MW>
161.13

>  <AMW>
5.75

>  <WPath>
170

>  <WPol>
9

>  <Zagreb1>
48

>  <Zagreb2>
47

>  <mZagreb2>
2.38

>  <yes>


>  <nAR-cont>
0.336376

>  <nHA-cont>
0.720786536

>  <MWHBN>
0.236337725

>  <MWHBN-cont>
0.979696216

>  <TPSA-cont>
0.634773911

>  <pka_cont>
0.97

>  <yes.1>


>  <BBB_SCORE>
4.281254683

>  <MMFF94 Energy>
-41.148

$$$$
Compound 961
Actelion Java MolfileCreator 2.0

  0  0  0  0  0  0              0 V3000
M  V30 BEGIN CTAB
M  V30 COUNTS 43 44 0 0 0
M  V30 BEGIN ATOM
M  V30 1 O 0.0 6.2967 -1.3354 0
M  V30 2 C 0.5826 5.0632 -1.3758 0
M  V30 3 C 1.9611 4.9149 -1.4911 0
M  V30 4 C -0.2563 3.9546 -1.2921 0
M  V30 5 C 2.4927 3.6295 -1.5208 0
M  V30 6 C 0.2782 2.6577 -1.3279 0
M  V30 7 O 3.8368 3.4188 -1.6257 0
M  V30 8 C 1.6691 2.5094 -1.439 0
M  V30 9 C -0.636 1.4615 -1.2034 0
M  V30 10 O -0.1364 0.3667 -1.9793 0
M  V30 11 C -0.7834 1.0046 0.2681 0
M  V30 12 N -1.596 -0.2283 0.3248 0
M  V30 13 C -1.6841 -0.7861 1.6873 0
M  V30 14 C -0.3872 -1.474 2.1897 0
M  V30 15 C -2.8802 -1.7456 1.7395 0
M  V30 16 C 0.1016 -2.6548 1.3801 0
M  V30 17 C -0.2492 -3.9641 1.7436 0
M  V30 18 C 0.9173 -2.4607 0.2565 0
M  V30 19 C 0.1993 -5.0555 0.9956 0
M  V30 20 C 1.365 -3.5503 -0.492 0
M  V30 21 C 1.0032 -4.8377 -0.118 0
M  V30 22 O 1.4624 -5.874 -0.876 0
M  V30 23 H 0.6889 6.9725 -1.443 0
M  V30 24 H 2.6079 5.7816 -1.5526 0
M  V30 25 H -1.3289 4.1093 -1.2025 0
M  V30 26 H 4.2837 4.2736 -1.732 0
M  V30 27 H 2.1129 1.5164 -1.4708 0
M  V30 28 H -1.6211 1.7085 -1.6182 0
M  V30 29 H -0.545 -0.4253 -1.5729 0
M  V30 30 H 0.2139 0.8068 0.6754 0
M  V30 31 H -1.245 1.7983 0.8675 0
M  V30 32 H -2.5365 -0.0124 -0.0107 0
M  V30 33 H -1.9146 0.0306 2.3849 0
M  V30 34 H 0.4255 -0.74 2.2597 0
M  V30 35 H -0.5459 -1.8036 3.226 0
M  V30 36 H -2.9735 -2.197 2.7331 0
M  V30 37 H -3.8155 -1.2119 1.5341 0
M  V30 38 H -2.7926 -2.5523 1.0038 0
M  V30 39 H -0.8778 -4.1417 2.6131 0
M  V30 40 H 1.2101 -1.458 -0.0459 0
M  V30 41 H -0.087 -6.058 1.2958 0
M  V30 42 H 1.9933 -3.3914 -1.3637 0
M  V30 43 H 1.1252 -6.7029 -0.5001 0
M  V30 END ATOM
M  V30 BEGIN BOND
M  V30 1 1 1 2
M  V30 2 2 2 3
M  V30 3 1 2 4
M  V30 4 1 3 5
M  V30 5 2 4 6
M  V30 6 1 5 7
M  V30 7 2 5 8
M  V30 8 1 6 9
M  V30 9 1 9 10
M  V30 10 1 9 11
M  V30 11 1 11 12
M  V30 12 1 12 13
M  V30 13 1 13 14
M  V30 14 1 13 15
M  V30 15 1 14 16
M  V30 16 2 16 17
M  V30 17 1 16 18
M  V30 18 1 17 19
M  V30 19 2 18 20
M  V30 20 2 19 21
M  V30 21 1 21 22
M  V30 22 1 6 8
M  V30 23 1 20 21
M  V30 24 1 1 23
M  V30 25 1 3 24
M  V30 26 1 4 25
M  V30 27 1 7 26
M  V30 28 1 8 27
M  V30 29 1 9 28
M  V30 30 1 10 29
M  V30 31 1 11 30
M  V30 32 1 11 31
M  V30 33 1 12 32
M  V30 34 1 13 33
M  V30 35 1 14 34
M  V30 36 1 14 35
M  V30 37 1 15 36
M  V30 38 1 15 37
M  V30 39 1 15 38
M  V30 40 1 17 39
M  V30 41 1 18 40
M  V30 42 1 19 41
M  V30 43 1 20 42
M  V30 44 1 22 43
M  V30 END BOND
M  V30 END CTAB
M  END
>  <Column 1>
1148

>  <level_0>
1289

>  <index>
1289

>  <Unnamed: 0>
1289

>  <NO.>
1301

>  <Name>
fenoterol

>  <IUPAC_name>
5-[1-hydroxy-2-[1-(4-hydroxyphenyl)propan-2-ylamino]ethyl]benzene-1-3-diol

>  <SMILES>
CC(Cc1ccc(O)cc1)NCC(O)c1cc(O)cc(O)c1

>  <CID>
3343

>  <logBB>


>  <BBB+/BBB->
BBB-

>  <Inchi>
InChI=1S/C17H21NO4/c1-11(6-12-2-4-14(19)5-3-12)18-10-17(22)13-7-15(20)9-16(21)8-13/h2-5-7-9-11-17-22H-6-10H2-1H3

>  <threshold>
-1

>  <reference>
R1|R14|R27|R30|

>  <group>
B

>  <Class>
1

>  <ABC>
16.77

>  <ABCGG>
13.62

>  <nAcid>
0

>  <nBase>
1

>  <nAromAtom>
12

>  <nAromBond>
12

>  <nAtom>
43

>  <nHeavyAtom>
22

>  <nSpiro>
0

>  <nBridgehead>
0

>  <nHetero>
5

>  <nN>
1

>  <nO>
4

>  <nF>
0

>  <BalabanJ>
1.65

>  <BertzCT>
592.31

>  <nBonds>
44

>  <nBondsO>
23

>  <nBondsS>
32

>  <nBondsD>
0

>  <nBondsT>
0

>  <nBondsA>
12

>  <nBondsM>
12

>  <nBondsKS>
38

>  <nBondsKD>
6

>  <RNCG>
0.2

>  <RPCG>
0.12

>  <FCSP3>
0.29

>  <SZ>
27

>  <Sm>
25.26

>  <Sv>
26.31

>  <Sse>
43.31

>  <Sp>
27.96

>  <Si>
48.49

>  <MZ>
0.63

>  <Mm>
0.59

>  <Mv>
0.61

>  <Mse>
1.01

>  <Mp>
0.65

>  <Mi>
1.13

>  <NsCH3>
1

>  <NdCH2>
0

>  <NssCH2>
2

>  <NtCH>
0

>  <NdsCH>
0

>  <NaaCH>
7

>  <NsssCH>
2

>  <NddC>
0

>  <NtsC>
0

>  <NdssC>
0

>  <NaasC>
5

>  <NaaaC>
0

>  <NssssC>
0

>  <NsNH3>
0

>  <NsNH2>
0

>  <NssNH2>
0

>  <NdNH>
0

>  <NssNH>
1

>  <NaaNH>
0

>  <NtN>
0

>  <NsssNH>
0

>  <NdsN>
0

>  <NaaN>
0

>  <NsssN>
0

>  <NddsN>
0

>  <NaasN>
0

>  <NssssN>
0

>  <NsOH>
4

>  <NdO>
0

>  <NssO>
0

>  <NaaO>
0

>  <NsF>
0

>  <NsSiH3>
0

>  <NssSiH2>
0

>  <NsssSiH>
0

>  <NssssSi>
0

>  <NsPH2>
0

>  <NssPH>
0

>  <NsssP>
0

>  <NdsssP>
0

>  <NsssssP>
0

>  <NsSH>
0

>  <NdS>
0

>  <NssS>
0

>  <NaaS>
0

>  <NdssS>
0

>  <NddssS>
0

>  <NsCl>
0

>  <NsBr>
0

>  <NsI>
0

>  <fragCpx>
67.05

>  <fMF>
0.4

>  <nHBAcc>
5

>  <nHBDon>
5

>  <Kier1>
18.34

>  <Kier2>
8.74

>  <Lipinski>
1

>  <GhoseFilter>
1

>  <FilterItLogS>
-2.89

>  <VMcGowan>
236.33

>  <LabuteASA>
129.04

>  <PEOE_VSA1>
25.74

>  <PEOE_VSA2>
0

>  <PEOE_VSA3>
0

>  <PEOE_VSA4>
0

>  <PEOE_VSA5>
0

>  <PEOE_VSA6>
12.13

>  <PEOE_VSA7>
48.74

>  <PEOE_VSA8>
18.65

>  <PEOE_VSA9>
6.1

>  <PEOE_VSA10>
17.25

>  <PEOE_VSA11>
0

>  <PEOE_VSA12>
0

>  <PEOE_VSA13>
0

>  <SMR_VSA1>
20.43

>  <SMR_VSA2>
0

>  <SMR_VSA3>
5.32

>  <SMR_VSA4>
0

>  <SMR_VSA5>
25.49

>  <SMR_VSA6>
6.54

>  <SMR_VSA7>
53.59

>  <SMR_VSA8>
0

>  <SMR_VSA9>
17.25

>  <SlogP_VSA1>
5.32

>  <SlogP_VSA2>
33.01

>  <SlogP_VSA3>
6.42

>  <SlogP_VSA4>
0

>  <SlogP_VSA5>
24.15

>  <SlogP_VSA6>
42.46

>  <SlogP_VSA7>
0

>  <SlogP_VSA8>
0

>  <SlogP_VSA9>
0

>  <SlogP_VSA10>
0

>  <SlogP_VSA11>
17.25

>  <EState_VSA1>
6.1

>  <EState_VSA2>
23.29

>  <EState_VSA3>
12.11

>  <EState_VSA4>
11.98

>  <EState_VSA5>
18.2

>  <EState_VSA6>
12.13

>  <EState_VSA7>
19.06

>  <EState_VSA8>
5.32

>  <EState_VSA9>
0

>  <EState_VSA10>
20.43

>  <VSA_EState1>
0

>  <VSA_EState2>
0

>  <VSA_EState3>
41.41

>  <VSA_EState4>
1.55

>  <VSA_EState5>
0.08

>  <VSA_EState6>
11.21

>  <VSA_EState7>
-0.06

>  <VSA_EState8>
2.31

>  <VSA_EState9>
0

>  <apol>
46.7

>  <bpol>
21.64

>  <nRing>
2

>  <nHRing>
0

>  <naRing>
2

>  <naHRing>
0

>  <nARing 2>
0

>  <nAHRing 2>
0

>  <nFRing>
0

>  <nFHRing>
0

>  <nFaRing>
0

>  <nFaHRing>
0

>  <nFARing 2>
0

>  <nFAHRing 2>
0

>  <nRot>
6

>  <SLogP>
2.06

>  <SMR>
84.01

>  <TopoPSA(NO)>
92.95

>  <TopoPSA>
92.95

>  <JGI1>
0.26

>  <JGI2>
0.07

>  <JGI3>
0.05

>  <JGI4>
0.05

>  <JGI5>
0.02

>  <Diameter>
13

>  <Radius>
7

>  <TMWC10>
116.83

>  <TSRW10>
55.46

>  <MW>
303.15

>  <AMW>
7.05

>  <WPath>
1240

>  <WPol>
29

>  <Zagreb1>
108

>  <Zagreb2>
120

>  <mZagreb2>
4.86

>  <yes>


>  <nAR-cont>
0.336376

>  <nHA-cont>
0.983774276

>  <MWHBN>
0.574342843

>  <MWHBN-cont>
0

>  <TPSA-cont>
0.351151282

>  <pka_cont>
0.97

>  <yes.1>


>  <BBB_SCORE>
2.507452839

>  <MMFF94 Energy>
48.493

$$$$
Compound 962
Actelion Java MolfileCreator 2.0

  0  0  0  0  0  0              0 V3000
M  V30 BEGIN CTAB
M  V30 COUNTS 40 41 0 0 0
M  V30 BEGIN ATOM
M  V30 1 O -2.2856 0.6301 -0.5513 0
M  V30 2 C -1.2838 0.8805 -1.2118 0
M  V30 3 N -0.061 0.2706 -1.0532 0
M  V30 4 C -1.285 1.9239 -2.3356 0
M  V30 5 C 0.2668 -0.7505 -0.0481 0 CFG=2
M  V30 6 N 0.0787 2.4505 -2.5691 0
M  V30 7 C -0.5369 -2.0434 -0.3351 0
M  V30 8 C 0.0542 -0.1902 1.4042 0
M  V30 9 C 1.759 -1.1278 -0.2283 0
M  V30 10 C -0.6367 -2.5275 -1.6575 0
M  V30 11 C -1.1632 -2.7947 0.6741 0
M  V30 12 C 0.7167 1.1364 1.7345 0
M  V30 13 C -1.3323 -3.7018 -1.9556 0
M  V30 14 C -1.8602 -3.9706 0.3751 0
M  V30 15 C 2.0398 1.1873 2.1945 0
M  V30 16 C 0.002 2.3365 1.6074 0
M  V30 17 C -1.9443 -4.4239 -0.9375 0
M  V30 18 C 2.6419 2.4113 2.4922 0
M  V30 19 C 0.6038 3.5597 1.9066 0
M  V30 20 C 1.9253 3.5971 2.3448 0
M  V30 21 H 0.6755 0.6508 -1.6425 0
M  V30 22 H -1.6567 1.4469 -3.247 0
M  V30 23 H -1.9517 2.7447 -2.0546 0
M  V30 24 H 0.3702 2.9475 -1.723 0
M  V30 25 H 0.0218 3.1639 -3.2964 0
M  V30 26 H 0.4114 -0.9235 2.1409 0
M  V30 27 H -1.0195 -0.0835 1.6105 0
M  V30 28 H 2.4116 -0.2517 -0.1539 0
M  V30 29 H 1.9559 -1.5625 -1.2159 0
M  V30 30 H 2.0792 -1.8604 0.5216 0
M  V30 31 H -0.1708 -1.9816 -2.4753 0
M  V30 32 H -1.1337 -2.4854 1.7147 0
M  V30 33 H -1.3978 -4.047 -2.9836 0
M  V30 34 H -2.343 -4.5295 1.1728 0
M  V30 35 H 2.6122 0.2724 2.3288 0
M  V30 36 H -1.0379 2.3221 1.2859 0
M  V30 37 H -2.4902 -5.3347 -1.1661 0
M  V30 38 H 3.6691 2.4384 2.8461 0
M  V30 39 H 0.0364 4.4813 1.8082 0
M  V30 40 H 2.3931 4.5486 2.583 0
M  V30 END ATOM
M  V30 BEGIN BOND
M  V30 1 2 1 2
M  V30 2 1 2 3
M  V30 3 1 2 4
M  V30 4 1 3 5
M  V30 5 1 4 6
M  V30 6 1 5 7
M  V30 7 1 5 8
M  V30 8 1 5 9
M  V30 9 2 7 10
M  V30 10 1 7 11
M  V30 11 1 8 12
M  V30 12 1 10 13
M  V30 13 2 11 14
M  V30 14 2 12 15
M  V30 15 1 12 16
M  V30 16 2 13 17
M  V30 17 1 15 18
M  V30 18 2 16 19
M  V30 19 2 18 20
M  V30 20 1 14 17
M  V30 21 1 19 20
M  V30 22 1 3 21
M  V30 23 1 4 22
M  V30 24 1 4 23
M  V30 25 1 6 24
M  V30 26 1 6 25
M  V30 27 1 8 26
M  V30 28 1 8 27
M  V30 29 1 9 28
M  V30 30 1 9 29
M  V30 31 1 9 30
M  V30 32 1 10 31
M  V30 33 1 11 32
M  V30 34 1 13 33
M  V30 35 1 14 34
M  V30 36 1 15 35
M  V30 37 1 16 36
M  V30 38 1 17 37
M  V30 39 1 18 38
M  V30 40 1 19 39
M  V30 41 1 20 40
M  V30 END BOND
M  V30 BEGIN COLLECTION
M  V30 MDLV30/STERAC1 ATOMS=(1 5)
M  V30 END COLLECTION
M  V30 END CTAB
M  END
>  <Column 1>
1149

>  <level_0>
1290

>  <index>
1290

>  <Unnamed: 0>
1290

>  <NO.>
1302

>  <Name>
remacemide

>  <IUPAC_name>
2-amino-n-(1-2-diphenylpropan-2-yl)acetamide

>  <SMILES>
CC(Cc1ccccc1)(NC(=O)CN)c1ccccc1

>  <CID>
60511

>  <logBB>


>  <BBB+/BBB->
BBB+

>  <Inchi>
InChI=1S/C17H20N2O/c1-17(19-16(20)13-18-15-10-6-3-7-11-15)12-14-8-4-2-5-9-14/h2-11H-12-13-18H2-1H3-(H-19-20)

>  <threshold>
-1

>  <reference>
R1|R7|R13|R19|R6|R27|R27|R29|R30|

>  <group>
B

>  <Class>
1

>  <ABC>
15.06

>  <ABCGG>
13.15

>  <nAcid>
0

>  <nBase>
1

>  <nAromAtom>
12

>  <nAromBond>
12

>  <nAtom>
40

>  <nHeavyAtom>
20

>  <nSpiro>
0

>  <nBridgehead>
0

>  <nHetero>
3

>  <nN>
2

>  <nO>
1

>  <nF>
0

>  <BalabanJ>
2

>  <BertzCT>
553.72

>  <nBonds>
41

>  <nBondsO>
21

>  <nBondsS>
28

>  <nBondsD>
1

>  <nBondsT>
0

>  <nBondsA>
12

>  <nBondsM>
13

>  <nBondsKS>
34

>  <nBondsKD>
7

>  <RNCG>
0.21

>  <RPCG>
0.14

>  <FCSP3>
0.24

>  <SZ>
24

>  <Sm>
22.34

>  <Sv>
24.65

>  <Sse>
39.54

>  <Sp>
26.78

>  <Si>
44.94

>  <MZ>
0.6

>  <Mm>
0.56

>  <Mv>
0.62

>  <Mse>
0.99

>  <Mp>
0.67

>  <Mi>
1.12

>  <NsCH3>
1

>  <NdCH2>
0

>  <NssCH2>
2

>  <NtCH>
0

>  <NdsCH>
0

>  <NaaCH>
10

>  <NsssCH>
0

>  <NddC>
0

>  <NtsC>
0

>  <NdssC>
1

>  <NaasC>
2

>  <NaaaC>
0

>  <NssssC>
1

>  <NsNH3>
0

>  <NsNH2>
1

>  <NssNH2>
0

>  <NdNH>
0

>  <NssNH>
1

>  <NaaNH>
0

>  <NtN>
0

>  <NsssNH>
0

>  <NdsN>
0

>  <NaaN>
0

>  <NsssN>
0

>  <NddsN>
0

>  <NaasN>
0

>  <NssssN>
0

>  <NsOH>
0

>  <NdO>
1

>  <NssO>
0

>  <NaaO>
0

>  <NsF>
0

>  <NsSiH3>
0

>  <NssSiH2>
0

>  <NsssSiH>
0

>  <NssssSi>
0

>  <NsPH2>
0

>  <NssPH>
0

>  <NsssP>
0

>  <NdsssP>
0

>  <NsssssP>
0

>  <NsSH>
0

>  <NdS>
0

>  <NssS>
0

>  <NaaS>
0

>  <NdssS>
0

>  <NddssS>
0

>  <NsCl>
0

>  <NsBr>
0

>  <NsI>
0

>  <fragCpx>
61.03

>  <fMF>
0.35

>  <nHBAcc>
2

>  <nHBDon>
2

>  <Kier1>
16.37

>  <Kier2>
7.85

>  <Lipinski>
1

>  <GhoseFilter>
1

>  <FilterItLogS>
-4.29

>  <VMcGowan>
224.4

>  <LabuteASA>
119.36

>  <PEOE_VSA1>
11.05

>  <PEOE_VSA2>
4.79

>  <PEOE_VSA3>
0

>  <PEOE_VSA4>
0

>  <PEOE_VSA5>
0

>  <PEOE_VSA6>
60.66

>  <PEOE_VSA7>
24.47

>  <PEOE_VSA8>
0

>  <PEOE_VSA9>
12.08

>  <PEOE_VSA10>
0

>  <PEOE_VSA11>
0

>  <PEOE_VSA12>
5.91

>  <PEOE_VSA13>
0

>  <SMR_VSA1>
4.79

>  <SMR_VSA2>
0

>  <SMR_VSA3>
5.32

>  <SMR_VSA4>
5.73

>  <SMR_VSA5>
18.88

>  <SMR_VSA6>
6.54

>  <SMR_VSA7>
71.79

>  <SMR_VSA8>
0

>  <SMR_VSA9>
0

>  <SlogP_VSA1>
11.05

>  <SlogP_VSA2>
12.45

>  <SlogP_VSA3>
16.75

>  <SlogP_VSA4>
0

>  <SlogP_VSA5>
18.05

>  <SlogP_VSA6>
60.66

>  <SlogP_VSA7>
0

>  <SlogP_VSA8>
0

>  <SlogP_VSA9>
0

>  <SlogP_VSA10>
0

>  <SlogP_VSA11>
0

>  <EState_VSA1>
5.54

>  <EState_VSA2>
12.45

>  <EState_VSA3>
0

>  <EState_VSA4>
11.98

>  <EState_VSA5>
5.56

>  <EState_VSA6>
0

>  <EState_VSA7>
55.45

>  <EState_VSA8>
17.45

>  <EState_VSA9>
5.73

>  <EState_VSA10>
4.79

>  <VSA_EState1>
0

>  <VSA_EState2>
11.75

>  <VSA_EState3>
3.04

>  <VSA_EState4>
7.23

>  <VSA_EState5>
-0.15

>  <VSA_EState6>
20.11

>  <VSA_EState7>
0.73

>  <VSA_EState8>
2.03

>  <VSA_EState9>
0

>  <apol>
44.73

>  <bpol>
20.93

>  <nRing>
2

>  <nHRing>
0

>  <naRing>
2

>  <naHRing>
0

>  <nARing 2>
0

>  <nAHRing 2>
0

>  <nFRing>
0

>  <nFHRing>
0

>  <nFaRing>
0

>  <nFaHRing>
0

>  <nFARing 2>
0

>  <nFAHRing 2>
0

>  <nRot>
5

>  <SLogP>
2.22

>  <SMR>
81.14

>  <TopoPSA(NO)>
55.12

>  <TopoPSA>
55.12

>  <JGI1>
0.21

>  <JGI2>
0.08

>  <JGI3>
0.05

>  <JGI4>
0.03

>  <JGI5>
0.02

>  <Diameter>
9

>  <Radius>
5

>  <TMWC10>
112.98

>  <TSRW10>
53.23

>  <MW>
268.16

>  <AMW>
6.7

>  <WPath>
797

>  <WPol>
28

>  <Zagreb1>
98

>  <Zagreb2>
111

>  <mZagreb2>
4.58

>  <yes>


>  <nAR-cont>
0.336376

>  <nHA-cont>
0.999629945

>  <MWHBN>
0.244265984

>  <MWHBN-cont>
0.968889698

>  <TPSA-cont>
0.615228173

>  <pka_cont>
0.97

>  <yes.1>


>  <BBB_SCORE>
4.504796837

>  <MMFF94 Energy>
77.778

$$$$
Compound 963
Actelion Java MolfileCreator 2.0

  0  0  0  0  0  0              0 V3000
M  V30 BEGIN CTAB
M  V30 COUNTS 29 29 0 0 0
M  V30 BEGIN ATOM
M  V30 1 N -1.1637 -2.2509 -0.2326 0
M  V30 2 C -0.6751 -0.9544 0.3 0 CFG=2
M  V30 3 C -0.108 -3.1817 -0.6276 0
M  V30 4 C -2.1168 -2.0691 -1.328 0
M  V30 5 C 0.3528 -0.2173 -0.5983 0
M  V30 6 C -0.1205 -1.1706 1.7186 0
M  V30 7 C 0.6123 1.2133 -0.1803 0
M  V30 8 C -0.3478 2.2071 -0.4167 0
M  V30 9 C 1.8128 1.5657 0.4512 0
M  V30 10 C -0.1123 3.5263 -0.0266 0
M  V30 11 C 2.0463 2.8856 0.8407 0
M  V30 12 C 1.0841 3.8652 0.6022 0
M  V30 13 H -1.5542 -0.3081 0.4302 0
M  V30 14 H 0.4628 -2.8276 -1.4928 0
M  V30 15 H -0.5414 -4.154 -0.8894 0
M  V30 16 H 0.5887 -3.3727 0.194 0
M  V30 17 H -2.9478 -1.4255 -1.0186 0
M  V30 18 H -2.5607 -3.0305 -1.6106 0
M  V30 19 H -1.6558 -1.6338 -2.2206 0
M  V30 20 H 1.3028 -0.7668 -0.6178 0
M  V30 21 H 0.004 -0.1905 -1.6381 0
M  V30 22 H 0.8401 -1.6954 1.7102 0
M  V30 23 H 0.0277 -0.2134 2.2297 0
M  V30 24 H -0.8219 -1.751 2.3291 0
M  V30 25 H -1.2862 1.9586 -0.9077 0
M  V30 26 H 2.5733 0.8135 0.6477 0
M  V30 27 H -0.8628 4.2899 -0.2134 0
M  V30 28 H 2.9794 3.1494 1.3314 0
M  V30 29 H 1.2668 4.8924 0.9062 0
M  V30 END ATOM
M  V30 BEGIN BOND
M  V30 1 1 1 2
M  V30 2 1 1 3
M  V30 3 1 1 4
M  V30 4 1 2 5
M  V30 5 1 2 6
M  V30 6 1 5 7
M  V30 7 2 7 8
M  V30 8 1 7 9
M  V30 9 1 8 10
M  V30 10 2 9 11
M  V30 11 2 10 12
M  V30 12 1 11 12
M  V30 13 1 2 13
M  V30 14 1 3 14
M  V30 15 1 3 15
M  V30 16 1 3 16
M  V30 17 1 4 17
M  V30 18 1 4 18
M  V30 19 1 4 19
M  V30 20 1 5 20
M  V30 21 1 5 21
M  V30 22 1 6 22
M  V30 23 1 6 23
M  V30 24 1 6 24
M  V30 25 1 8 25
M  V30 26 1 9 26
M  V30 27 1 10 27
M  V30 28 1 11 28
M  V30 29 1 12 29
M  V30 END BOND
M  V30 BEGIN COLLECTION
M  V30 MDLV30/STERAC1 ATOMS=(1 2)
M  V30 END COLLECTION
M  V30 END CTAB
M  END
>  <Column 1>
1150

>  <level_0>
1291

>  <index>
1291

>  <Unnamed: 0>
1291

>  <NO.>
1303

>  <Name>
dimethylamphetamine

>  <IUPAC_name>
n-n-dimethyl-1-phenylpropan-2-amine

>  <SMILES>
CC(Cc1ccccc1)N(C)C

>  <CID>
20006

>  <logBB>


>  <BBB+/BBB->
BBB+

>  <Inchi>
InChI=1S/C11H17N/c1-10(12(2)3)9-11-7-5-4-6-8-11/h4-8-10H-9H2-1-3H3

>  <threshold>
-1

>  <reference>
R1|R19|R27|R27|R30|

>  <group>
B

>  <Class>
1

>  <ABC>
8.77

>  <ABCGG>
8.18

>  <nAcid>
0

>  <nBase>
1

>  <nAromAtom>
6

>  <nAromBond>
6

>  <nAtom>
29

>  <nHeavyAtom>
12

>  <nSpiro>
0

>  <nBridgehead>
0

>  <nHetero>
1

>  <nN>
1

>  <nO>
0

>  <nF>
0

>  <BalabanJ>
2.2

>  <BertzCT>
215.71

>  <nBonds>
29

>  <nBondsO>
12

>  <nBondsS>
23

>  <nBondsD>
0

>  <nBondsT>
0

>  <nBondsA>
6

>  <nBondsM>
6

>  <nBondsKS>
26

>  <nBondsKD>
3

>  <RNCG>
0.41

>  <RPCG>
0.08

>  <FCSP3>
0.45

>  <SZ>
15

>  <Sm>
13.59

>  <Sv>
16.36

>  <Sse>
28.21

>  <Sp>
18.45

>  <Si>
32.82

>  <MZ>
0.52

>  <Mm>
0.47

>  <Mv>
0.56

>  <Mse>
0.97

>  <Mp>
0.64

>  <Mi>
1.13

>  <NsCH3>
3

>  <NdCH2>
0

>  <NssCH2>
1

>  <NtCH>
0

>  <NdsCH>
0

>  <NaaCH>
5

>  <NsssCH>
1

>  <NddC>
0

>  <NtsC>
0

>  <NdssC>
0

>  <NaasC>
1

>  <NaaaC>
0

>  <NssssC>
0

>  <NsNH3>
0

>  <NsNH2>
0

>  <NssNH2>
0

>  <NdNH>
0

>  <NssNH>
0

>  <NaaNH>
0

>  <NtN>
0

>  <NsssNH>
0

>  <NdsN>
0

>  <NaaN>
0

>  <NsssN>
1

>  <NddsN>
0

>  <NaasN>
0

>  <NssssN>
0

>  <NsOH>
0

>  <NdO>
0

>  <NssO>
0

>  <NaaO>
0

>  <NsF>
0

>  <NsSiH3>
0

>  <NssSiH2>
0

>  <NsssSiH>
0

>  <NssssSi>
0

>  <NsPH2>
0

>  <NssPH>
0

>  <NsssP>
0

>  <NdsssP>
0

>  <NsssssP>
0

>  <NsSH>
0

>  <NdS>
0

>  <NssS>
0

>  <NaaS>
0

>  <NdssS>
0

>  <NddssS>
0

>  <NsCl>
0

>  <NsBr>
0

>  <NsI>
0

>  <fragCpx>
12.01

>  <fMF>
0.21

>  <nHBAcc>
1

>  <nHBDon>
0

>  <Kier1>
10.08

>  <Kier2>
4.89

>  <Lipinski>
1

>  <GhoseFilter>
1

>  <FilterItLogS>
-2.58

>  <VMcGowan>
152.07

>  <LabuteASA>
75.02

>  <PEOE_VSA1>
4.9

>  <PEOE_VSA2>
0

>  <PEOE_VSA3>
0

>  <PEOE_VSA4>
0

>  <PEOE_VSA5>
0

>  <PEOE_VSA6>
30.33

>  <PEOE_VSA7>
33

>  <PEOE_VSA8>
6.04

>  <PEOE_VSA9>
0

>  <PEOE_VSA10>
0

>  <PEOE_VSA11>
0

>  <PEOE_VSA12>
0

>  <PEOE_VSA13>
0

>  <SMR_VSA1>
0

>  <SMR_VSA2>
0

>  <SMR_VSA3>
4.9

>  <SMR_VSA4>
0

>  <SMR_VSA5>
19.39

>  <SMR_VSA6>
14.1

>  <SMR_VSA7>
35.9

>  <SMR_VSA8>
0

>  <SMR_VSA9>
0

>  <SlogP_VSA1>
0

>  <SlogP_VSA2>
25.04

>  <SlogP_VSA3>
6.42

>  <SlogP_VSA4>
0

>  <SlogP_VSA5>
12.49

>  <SlogP_VSA6>
30.33

>  <SlogP_VSA7>
0

>  <SlogP_VSA8>
0

>  <SlogP_VSA9>
0

>  <SlogP_VSA10>
0

>  <SlogP_VSA11>
0

>  <EState_VSA1>
0

>  <EState_VSA2>
0

>  <EState_VSA3>
6.04

>  <EState_VSA4>
6.42

>  <EState_VSA5>
5.56

>  <EState_VSA6>
0

>  <EState_VSA7>
0

>  <EState_VSA8>
56.25

>  <EState_VSA9>
0

>  <EState_VSA10>
0

>  <VSA_EState1>
0

>  <VSA_EState2>
2.24

>  <VSA_EState3>
0

>  <VSA_EState4>
1.42

>  <VSA_EState5>
0

>  <VSA_EState6>
11.23

>  <VSA_EState7>
1.13

>  <VSA_EState8>
2.24

>  <VSA_EState9>
4.24

>  <apol>
30.81

>  <bpol>
18.76

>  <nRing>
1

>  <nHRing>
0

>  <naRing>
1

>  <naHRing>
0

>  <nARing 2>
0

>  <nAHRing 2>
0

>  <nFRing>
0

>  <nFHRing>
0

>  <nFaRing>
0

>  <nFaHRing>
0

>  <nFARing 2>
0

>  <nFAHRing 2>
0

>  <nRot>
3

>  <SLogP>
2.18

>  <SMR>
53.3

>  <TopoPSA(NO)>
3.24

>  <TopoPSA>
3.24

>  <JGI1>
0.21

>  <JGI2>
0.07

>  <JGI3>
0.03

>  <JGI4>
0.05

>  <JGI5>
0.03

>  <Diameter>
7

>  <Radius>
4

>  <TMWC10>
88.24

>  <TSRW10>
41.71

>  <MW>
163.14

>  <AMW>
5.63

>  <WPath>
212

>  <WPol>
13

>  <Zagreb1>
54

>  <Zagreb2>
58

>  <mZagreb2>
2.78

>  <yes>


>  <nAR-cont>
0.336376

>  <nHA-cont>
0.785745021

>  <MWHBN>
0.07829243

>  <MWHBN-cont>
0.59416807

>  <TPSA-cont>
0.977382788

>  <pka_cont>
0.97

>  <yes.1>


>  <BBB_SCORE>
4.453138702

>  <MMFF94 Energy>
40.344

$$$$
Compound 964
Actelion Java MolfileCreator 2.0

  0  0  0  0  0  0              0 V3000
M  V30 BEGIN CTAB
M  V30 COUNTS 39 40 0 0 0
M  V30 BEGIN ATOM
M  V30 1 N 0.5495 -0.3139 0.8636 0
M  V30 2 C 0.4114 0.8943 1.7101 0 CFG=2
M  V30 3 C -0.4764 -1.3244 1.1735 0
M  V30 4 C 1.8903 -0.8989 0.8541 0
M  V30 5 C 1.0419 2.1492 1.0465 0
M  V30 6 C 0.9629 0.7276 3.1341 0
M  V30 7 C -0.6683 -2.3348 0.0607 0
M  V30 8 C 0.3016 2.6185 -0.1872 0
M  V30 9 C -1.0325 -1.9093 -1.2262 0
M  V30 10 C -0.5064 -3.7065 0.3005 0
M  V30 11 C -0.7044 3.5895 -0.0872 0
M  V30 12 C 0.5956 2.0745 -1.4444 0
M  V30 13 C -1.2239 -2.835 -2.2523 0
M  V30 14 C -0.6988 -4.6315 -0.7276 0
M  V30 15 C -1.3948 4.0132 -1.2242 0
M  V30 16 C -0.0963 2.4976 -2.58 0
M  V30 17 C -1.0571 -4.1957 -2.0025 0
M  V30 18 C -1.0901 3.4681 -2.4701 0
M  V30 19 H -0.6599 1.1177 1.8127 0
M  V30 20 H -0.2481 -1.8331 2.1188 0
M  V30 21 H -1.4554 -0.8465 1.3131 0
M  V30 22 H 2.655 -0.1491 0.63 0
M  V30 23 H 1.9815 -1.6556 0.0674 0
M  V30 24 H 2.1458 -1.3747 1.8073 0
M  V30 25 H 1.0497 2.9756 1.7706 0
M  V30 26 H 2.0975 1.9858 0.7982 0
M  V30 27 H 2.0532 0.6271 3.1416 0
M  V30 28 H 0.7112 1.6032 3.7432 0
M  V30 29 H 0.5311 -0.1462 3.6321 0
M  V30 30 H -1.1589 -0.8467 -1.4283 0
M  V30 31 H -0.2274 -4.0629 1.2889 0
M  V30 32 H -0.9575 4.0217 0.8778 0
M  V30 33 H 1.3585 1.3051 -1.5406 0
M  V30 34 H -1.5016 -2.492 -3.2451 0
M  V30 35 H -0.5693 -5.6929 -0.5338 0
M  V30 36 H -2.1723 4.7673 -1.1372 0
M  V30 37 H 0.1383 2.065 -3.5486 0
M  V30 38 H -1.2059 -4.9165 -2.8018 0
M  V30 39 H -1.6294 3.7964 -3.3543 0
M  V30 END ATOM
M  V30 BEGIN BOND
M  V30 1 1 1 2
M  V30 2 1 1 3
M  V30 3 1 1 4
M  V30 4 1 2 5
M  V30 5 1 2 6
M  V30 6 1 3 7
M  V30 7 1 5 8
M  V30 8 2 7 9
M  V30 9 1 7 10
M  V30 10 2 8 11
M  V30 11 1 8 12
M  V30 12 1 9 13
M  V30 13 2 10 14
M  V30 14 1 11 15
M  V30 15 2 12 16
M  V30 16 2 13 17
M  V30 17 2 15 18
M  V30 18 1 14 17
M  V30 19 1 16 18
M  V30 20 1 2 19
M  V30 21 1 3 20
M  V30 22 1 3 21
M  V30 23 1 4 22
M  V30 24 1 4 23
M  V30 25 1 4 24
M  V30 26 1 5 25
M  V30 27 1 5 26
M  V30 28 1 6 27
M  V30 29 1 6 28
M  V30 30 1 6 29
M  V30 31 1 9 30
M  V30 32 1 10 31
M  V30 33 1 11 32
M  V30 34 1 12 33
M  V30 35 1 13 34
M  V30 36 1 14 35
M  V30 37 1 15 36
M  V30 38 1 16 37
M  V30 39 1 17 38
M  V30 40 1 18 39
M  V30 END BOND
M  V30 BEGIN COLLECTION
M  V30 MDLV30/STERAC1 ATOMS=(1 2)
M  V30 END COLLECTION
M  V30 END CTAB
M  END
>  <Column 1>
1151

>  <level_0>
1292

>  <index>
1292

>  <Unnamed: 0>
1292

>  <NO.>
1304

>  <Name>
benzphetamine(benzfetamine)

>  <IUPAC_name>
n-benzyl-n-methyl-1-phenylpropan-2-amine

>  <SMILES>
CC(Cc1ccccc1)N(C)Cc1ccccc1

>  <CID>
2341

>  <logBB>


>  <BBB+/BBB->
BBB+

>  <Inchi>
InChI=1S/C17H21N/c1-15(13-16-9-5-3-6-10-16)18(2)14-17-11-7-4-8-12-17/h3-12-15H-13-14H2-1-2H3

>  <threshold>
-1

>  <reference>
R1|R19|R6|R14|R23|R27|R27|R30|

>  <group>
B

>  <Class>
1

>  <ABC>
13.61

>  <ABCGG>
11.39

>  <nAcid>
0

>  <nBase>
1

>  <nAromAtom>
12

>  <nAromBond>
12

>  <nAtom>
39

>  <nHeavyAtom>
18

>  <nSpiro>
0

>  <nBridgehead>
0

>  <nHetero>
1

>  <nN>
1

>  <nO>
0

>  <nF>
0

>  <BalabanJ>
1.68

>  <BertzCT>
404.05

>  <nBonds>
40

>  <nBondsO>
19

>  <nBondsS>
28

>  <nBondsD>
0

>  <nBondsT>
0

>  <nBondsA>
12

>  <nBondsM>
12

>  <nBondsKS>
34

>  <nBondsKD>
6

>  <RNCG>
0.28

>  <RPCG>
0.06

>  <FCSP3>
0.29

>  <SZ>
21.67

>  <Sm>
19.93

>  <Sv>
23.45

>  <Sse>
37.99

>  <Sp>
26.04

>  <Si>
43.65

>  <MZ>
0.56

>  <Mm>
0.51

>  <Mv>
0.6

>  <Mse>
0.97

>  <Mp>
0.67

>  <Mi>
1.12

>  <NsCH3>
2

>  <NdCH2>
0

>  <NssCH2>
2

>  <NtCH>
0

>  <NdsCH>
0

>  <NaaCH>
10

>  <NsssCH>
1

>  <NddC>
0

>  <NtsC>
0

>  <NdssC>
0

>  <NaasC>
2

>  <NaaaC>
0

>  <NssssC>
0

>  <NsNH3>
0

>  <NsNH2>
0

>  <NssNH2>
0

>  <NdNH>
0

>  <NssNH>
0

>  <NaaNH>
0

>  <NtN>
0

>  <NsssNH>
0

>  <NdsN>
0

>  <NaaN>
0

>  <NsssN>
1

>  <NddsN>
0

>  <NaasN>
0

>  <NssssN>
0

>  <NsOH>
0

>  <NdO>
0

>  <NssO>
0

>  <NaaO>
0

>  <NsF>
0

>  <NsSiH3>
0

>  <NssSiH2>
0

>  <NsssSiH>
0

>  <NssssSi>
0

>  <NsPH2>
0

>  <NssPH>
0

>  <NsssP>
0

>  <NdsssP>
0

>  <NsssssP>
0

>  <NsSH>
0

>  <NdS>
0

>  <NssS>
0

>  <NaaS>
0

>  <NdssS>
0

>  <NddssS>
0

>  <NsCl>
0

>  <NsBr>
0

>  <NsI>
0

>  <fragCpx>
55.01

>  <fMF>
0.41

>  <nHBAcc>
1

>  <nHBDon>
0

>  <Kier1>
14.41

>  <Kier2>
7.56

>  <Lipinski>
1

>  <GhoseFilter>
1

>  <FilterItLogS>
-4.38

>  <VMcGowan>
212.85

>  <LabuteASA>
110.07

>  <PEOE_VSA1>
0

>  <PEOE_VSA2>
4.9

>  <PEOE_VSA3>
0

>  <PEOE_VSA4>
0

>  <PEOE_VSA5>
0

>  <PEOE_VSA6>
60.66

>  <PEOE_VSA7>
31.52

>  <PEOE_VSA8>
12.59

>  <PEOE_VSA9>
0

>  <PEOE_VSA10>
0

>  <PEOE_VSA11>
0

>  <PEOE_VSA12>
0

>  <PEOE_VSA13>
0

>  <SMR_VSA1>
0

>  <SMR_VSA2>
0

>  <SMR_VSA3>
4.9

>  <SMR_VSA4>
0

>  <SMR_VSA5>
25.93

>  <SMR_VSA6>
7.05

>  <SMR_VSA7>
71.79

>  <SMR_VSA8>
0

>  <SMR_VSA9>
0

>  <SlogP_VSA1>
0

>  <SlogP_VSA2>
17.99

>  <SlogP_VSA3>
12.97

>  <SlogP_VSA4>
0

>  <SlogP_VSA5>
18.05

>  <SlogP_VSA6>
60.66

>  <SlogP_VSA7>
0

>  <SlogP_VSA8>
0

>  <SlogP_VSA9>
0

>  <SlogP_VSA10>
0

>  <SlogP_VSA11>
0

>  <EState_VSA1>
0

>  <EState_VSA2>
0

>  <EState_VSA3>
6.04

>  <EState_VSA4>
12.97

>  <EState_VSA5>
11.13

>  <EState_VSA6>
0

>  <EState_VSA7>
0

>  <EState_VSA8>
79.53

>  <EState_VSA9>
0

>  <EState_VSA10>
0

>  <VSA_EState1>
0

>  <VSA_EState2>
2.41

>  <VSA_EState3>
0

>  <VSA_EState4>
2.78

>  <VSA_EState5>
0

>  <VSA_EState6>
21.89

>  <VSA_EState7>
1.1

>  <VSA_EState8>
3.3

>  <VSA_EState9>
2.2

>  <apol>
43.49

>  <bpol>
22.78

>  <nRing>
2

>  <nHRing>
0

>  <naRing>
2

>  <naHRing>
0

>  <nARing 2>
0

>  <nAHRing 2>
0

>  <nFRing>
0

>  <nFHRing>
0

>  <nFaRing>
0

>  <nFaHRing>
0

>  <nFARing 2>
0

>  <nFAHRing 2>
0

>  <nRot>
5

>  <SLogP>
3.75

>  <SMR>
77.52

>  <TopoPSA(NO)>
3.24

>  <TopoPSA>
3.24

>  <JGI1>
0.16

>  <JGI2>
0.06

>  <JGI3>
0.03

>  <JGI4>
0.05

>  <JGI5>
0.02

>  <Diameter>
11

>  <Radius>
6

>  <TMWC10>
106.19

>  <TSRW10>
50.15

>  <MW>
239.17

>  <AMW>
6.13

>  <WPath>
683

>  <WPol>
22

>  <Zagreb1>
86

>  <Zagreb2>
95

>  <mZagreb2>
4.11

>  <yes>


>  <nAR-cont>
0.336376

>  <nHA-cont>
0.991161285

>  <MWHBN>
0.06466163

>  <MWHBN-cont>
0.491758098

>  <TPSA-cont>
0.977382788

>  <pka_cont>
0.97

>  <yes.1>


>  <BBB_SCORE>
4.504940008

>  <MMFF94 Energy>
60.85

$$$$
Compound 965
Actelion Java MolfileCreator 2.0

  0  0  0  0  0  0              0 V3000
M  V30 BEGIN CTAB
M  V30 COUNTS 36 37 0 0 0
M  V30 BEGIN ATOM
M  V30 1 O -2.517 -2.2808 1.8873 0
M  V30 2 C -2.6554 -1.0135 1.3968 0
M  V30 3 C -2.8838 -2.2444 3.1935 0
M  V30 4 C -3.1273 -0.1778 2.3895 0
M  V30 5 C -2.3155 -0.8087 -0.0417 0
M  V30 6 C -3.2678 -0.9739 3.5514 0
M  V30 7 N -0.9051 -0.4947 -0.3269 0
M  V30 8 C -0.4629 0.8226 0.1759 0 CFG=2
M  V30 9 C -0.0219 -1.6192 -0.0326 0
M  V30 10 C 0.149 1.6801 -0.9677 0
M  V30 11 C 0.4356 0.808 1.4215 0
M  V30 12 C 1.4663 1.2269 -1.5524 0
M  V30 13 C 2.6804 1.7019 -1.0379 0
M  V30 14 C 1.4929 0.3309 -2.6297 0
M  V30 15 C 3.8944 1.2836 -1.5856 0
M  V30 16 C 2.707 -0.0869 -3.1763 0
M  V30 17 C 3.9075 0.3893 -2.654 0
M  V30 18 H -2.8195 -3.1849 3.7223 0
M  V30 19 H -3.3389 0.8767 2.2843 0
M  V30 20 H -2.6046 -1.7041 -0.6076 0
M  V30 21 H -2.9479 -0.0085 -0.448 0
M  V30 22 H -3.6089 -0.6627 4.5285 0
M  V30 23 H -1.3569 1.391 0.4699 0
M  V30 24 H 0.9987 -1.4264 -0.3754 0
M  V30 25 H -0.355 -2.5158 -0.5677 0
M  V30 26 H 0.0226 -1.8618 1.034 0
M  V30 27 H -0.5834 1.762 -1.7833 0
M  V30 28 H 0.2702 2.7107 -0.6053 0
M  V30 29 H 1.3948 0.313 1.2436 0
M  V30 30 H 0.6492 1.8322 1.7472 0
M  V30 31 H -0.0555 0.2999 2.2575 0
M  V30 32 H 2.6883 2.4018 -0.2059 0
M  V30 33 H 0.5616 -0.0542 -3.0399 0
M  V30 34 H 4.8303 1.6565 -1.1783 0
M  V30 35 H 2.714 -0.7858 -4.0082 0
M  V30 36 H 4.8526 0.0635 -3.0794 0
M  V30 END ATOM
M  V30 BEGIN BOND
M  V30 1 1 1 2
M  V30 2 1 1 3
M  V30 3 2 2 4
M  V30 4 1 2 5
M  V30 5 2 3 6
M  V30 6 1 5 7
M  V30 7 1 7 8
M  V30 8 1 7 9
M  V30 9 1 8 10
M  V30 10 1 8 11
M  V30 11 1 10 12
M  V30 12 2 12 13
M  V30 13 1 12 14
M  V30 14 1 13 15
M  V30 15 2 14 16
M  V30 16 2 15 17
M  V30 17 1 4 6
M  V30 18 1 16 17
M  V30 19 1 3 18
M  V30 20 1 4 19
M  V30 21 1 5 20
M  V30 22 1 5 21
M  V30 23 1 6 22
M  V30 24 1 8 23
M  V30 25 1 9 24
M  V30 26 1 9 25
M  V30 27 1 9 26
M  V30 28 1 10 27
M  V30 29 1 10 28
M  V30 30 1 11 29
M  V30 31 1 11 30
M  V30 32 1 11 31
M  V30 33 1 13 32
M  V30 34 1 14 33
M  V30 35 1 15 34
M  V30 36 1 16 35
M  V30 37 1 17 36
M  V30 END BOND
M  V30 BEGIN COLLECTION
M  V30 MDLV30/STERAC1 ATOMS=(1 8)
M  V30 END COLLECTION
M  V30 END CTAB
M  END
>  <Column 1>
1152

>  <level_0>
1293

>  <index>
1293

>  <Unnamed: 0>
1293

>  <NO.>
1305

>  <Name>
furfenorex

>  <IUPAC_name>
n-(furan-2-ylmethyl)-n-methyl-1-phenylpropan-2-amine

>  <SMILES>
CC(Cc1ccccc1)N(C)Cc1ccco1

>  <CID>
26762

>  <logBB>


>  <BBB+/BBB->
BBB+

>  <Inchi>
InChI=1S/C15H19NO/c1-13(11-14-7-4-3-5-8-14)16(2)12-15-9-6-10-17-15/h3-10-13H-11-12H2-1-2H3

>  <threshold>
-1

>  <reference>
R1|R19|R6|R27|R27|R30|

>  <group>
B

>  <Class>
1

>  <ABC>
12.91

>  <ABCGG>
11.43

>  <nAcid>
0

>  <nBase>
1

>  <nAromAtom>
11

>  <nAromBond>
11

>  <nAtom>
36

>  <nHeavyAtom>
17

>  <nSpiro>
0

>  <nBridgehead>
0

>  <nHetero>
2

>  <nN>
1

>  <nO>
1

>  <nF>
0

>  <BalabanJ>
1.68

>  <BertzCT>
421.45

>  <nBonds>
37

>  <nBondsO>
18

>  <nBondsS>
26

>  <nBondsD>
0

>  <nBondsT>
0

>  <nBondsA>
11

>  <nBondsM>
11

>  <nBondsKS>
32

>  <nBondsKD>
5

>  <RNCG>
0.38

>  <RPCG>
0.1

>  <FCSP3>
0.33

>  <SZ>
20.67

>  <Sm>
19.09

>  <Sv>
21.62

>  <Sse>
35.43

>  <Sp>
23.73

>  <Si>
40.45

>  <MZ>
0.57

>  <Mm>
0.53

>  <Mv>
0.6

>  <Mse>
0.98

>  <Mp>
0.66

>  <Mi>
1.12

>  <NsCH3>
2

>  <NdCH2>
0

>  <NssCH2>
2

>  <NtCH>
0

>  <NdsCH>
0

>  <NaaCH>
8

>  <NsssCH>
1

>  <NddC>
0

>  <NtsC>
0

>  <NdssC>
0

>  <NaasC>
2

>  <NaaaC>
0

>  <NssssC>
0

>  <NsNH3>
0

>  <NsNH2>
0

>  <NssNH2>
0

>  <NdNH>
0

>  <NssNH>
0

>  <NaaNH>
0

>  <NtN>
0

>  <NsssNH>
0

>  <NdsN>
0

>  <NaaN>
0

>  <NsssN>
1

>  <NddsN>
0

>  <NaasN>
0

>  <NssssN>
0

>  <NsOH>
0

>  <NdO>
0

>  <NssO>
0

>  <NaaO>
1

>  <NsF>
0

>  <NsSiH3>
0

>  <NssSiH2>
0

>  <NsssSiH>
0

>  <NssssSi>
0

>  <NsPH2>
0

>  <NssPH>
0

>  <NsssP>
0

>  <NdsssP>
0

>  <NsssssP>
0

>  <NsSH>
0

>  <NdS>
0

>  <NssS>
0

>  <NaaS>
0

>  <NdssS>
0

>  <NddssS>
0

>  <NsCl>
0

>  <NsBr>
0

>  <NsI>
0

>  <fragCpx>
52.02

>  <fMF>
0.42

>  <nHBAcc>
2

>  <nHBDon>
0

>  <Kier1>
13.43

>  <Kier2>
6.81

>  <Lipinski>
1

>  <GhoseFilter>
1

>  <FilterItLogS>
-3.89

>  <VMcGowan>
194.84

>  <LabuteASA>
102.87

>  <PEOE_VSA1>
4.42

>  <PEOE_VSA2>
4.9

>  <PEOE_VSA3>
0

>  <PEOE_VSA4>
0

>  <PEOE_VSA5>
0

>  <PEOE_VSA6>
30.33

>  <PEOE_VSA7>
38.09

>  <PEOE_VSA8>
6.04

>  <PEOE_VSA9>
12.81

>  <PEOE_VSA10>
5.76

>  <PEOE_VSA11>
0

>  <PEOE_VSA12>
0

>  <PEOE_VSA13>
0

>  <SMR_VSA1>
4.42

>  <SMR_VSA2>
0

>  <SMR_VSA3>
4.9

>  <SMR_VSA4>
0

>  <SMR_VSA5>
25.93

>  <SMR_VSA6>
7.05

>  <SMR_VSA7>
60.05

>  <SMR_VSA8>
0

>  <SMR_VSA9>
0

>  <SlogP_VSA1>
0

>  <SlogP_VSA2>
17.99

>  <SlogP_VSA3>
12.97

>  <SlogP_VSA4>
0

>  <SlogP_VSA5>
18.25

>  <SlogP_VSA6>
53.14

>  <SlogP_VSA7>
0

>  <SlogP_VSA8>
0

>  <SlogP_VSA9>
0

>  <SlogP_VSA10>
0

>  <SlogP_VSA11>
0

>  <EState_VSA1>
0

>  <EState_VSA2>
0

>  <EState_VSA3>
6.04

>  <EState_VSA4>
18.73

>  <EState_VSA5>
5.56

>  <EState_VSA6>
6.26

>  <EState_VSA7>
12.13

>  <EState_VSA8>
49.2

>  <EState_VSA9>
4.42

>  <EState_VSA10>
0

>  <VSA_EState1>
5.36

>  <VSA_EState2>
2.31

>  <VSA_EState3>
0

>  <VSA_EState4>
1.38

>  <VSA_EState5>
1.02

>  <VSA_EState6>
15.05

>  <VSA_EState7>
2.79

>  <VSA_EState8>
3.11

>  <VSA_EState9>
2.14

>  <apol>
39.62

>  <bpol>
22.51

>  <nRing>
2

>  <nHRing>
1

>  <naRing>
2

>  <naHRing>
1

>  <nARing 2>
0

>  <nAHRing 2>
0

>  <nFRing>
0

>  <nFHRing>
0

>  <nFaRing>
0

>  <nFaHRing>
0

>  <nFARing 2>
0

>  <nFAHRing 2>
0

>  <nRot>
5

>  <SLogP>
3.34

>  <SMR>
69.78

>  <TopoPSA(NO)>
16.38

>  <TopoPSA>
16.38

>  <JGI1>
0.17

>  <JGI2>
0.06

>  <JGI3>
0.04

>  <JGI4>
0.04

>  <JGI5>
0.02

>  <Diameter>
10

>  <Radius>
5

>  <TMWC10>
103.92

>  <TSRW10>
61.94

>  <MW>
229.15

>  <AMW>
6.37

>  <WPath>
579

>  <WPol>
19

>  <Zagreb1>
82

>  <Zagreb2>
91

>  <mZagreb2>
3.86

>  <yes>


>  <nAR-cont>
0.336376

>  <nHA-cont>
0.976740822

>  <MWHBN>
0.132120456

>  <MWHBN-cont>
0.877267289

>  <TPSA-cont>
0.885657429

>  <pka_cont>
0.97

>  <yes.1>


>  <BBB_SCORE>
4.885332613

>  <MMFF94 Energy>
53.283

$$$$
Compound 966
Actelion Java MolfileCreator 2.0

  0  0  0  0  0  0              0 V3000
M  V30 BEGIN CTAB
M  V30 COUNTS 37 38 0 0 0
M  V30 BEGIN ATOM
M  V30 1 N 0.8699 -2.6114 -1.8195 0
M  V30 2 C 0.9905 -1.4791 -1.5828 0
M  V30 3 C 1.2053 -0.037 -1.2753 0
M  V30 4 N 0.7976 0.3606 0.089 0
M  V30 5 C 0.474 0.8381 -2.2905 0
M  V30 6 C 1.5245 -0.3068 1.1805 0
M  V30 7 C 1.1946 1.5849 -3.2377 0
M  V30 8 C -0.931 0.911 -2.3034 0
M  V30 9 C 0.7362 -0.1433 2.5046 0
M  V30 10 C 2.9269 0.287 1.3538 0
M  V30 11 C 0.5269 2.3833 -4.1689 0
M  V30 12 C -1.5943 1.71 -3.2355 0
M  V30 13 C -0.5886 -0.8721 2.516 0
M  V30 14 C -0.8652 2.4456 -4.1672 0
M  V30 15 C -0.6362 -2.258 2.7198 0
M  V30 16 C -1.7864 -0.1759 2.3037 0
M  V30 17 C -1.8585 -2.9321 2.7165 0
M  V30 18 C -3.0077 -0.8515 2.3018 0
M  V30 19 C -3.0437 -2.229 2.5089 0
M  V30 20 H 2.2777 0.1665 -1.383 0
M  V30 21 H 0.8823 1.3721 0.1758 0
M  V30 22 H 1.6236 -1.3798 0.9789 0
M  V30 23 H 2.2816 1.5502 -3.263 0
M  V30 24 H -1.5153 0.3413 -1.5808 0
M  V30 25 H 1.3366 -0.5241 3.3421 0
M  V30 26 H 0.5757 0.9214 2.7229 0
M  V30 27 H 2.8848 1.3647 1.5485 0
M  V30 28 H 3.4427 -0.1842 2.1977 0
M  V30 29 H 3.5468 0.1257 0.4666 0
M  V30 30 H 1.093 2.9555 -4.8999 0
M  V30 31 H -2.6805 1.7549 -3.2352 0
M  V30 32 H -1.3832 3.0653 -4.8947 0
M  V30 33 H 0.2792 -2.8233 2.8763 0
M  V30 34 H -1.773 0.8969 2.1279 0
M  V30 35 H -1.8849 -4.0077 2.8698 0
M  V30 36 H -3.9307 -0.3034 2.1328 0
M  V30 37 H -3.994 -2.7557 2.5023 0
M  V30 END ATOM
M  V30 BEGIN BOND
M  V30 1 3 1 2
M  V30 2 1 2 3
M  V30 3 1 3 4
M  V30 4 1 3 5
M  V30 5 1 4 6
M  V30 6 2 5 7
M  V30 7 1 5 8
M  V30 8 1 6 9
M  V30 9 1 6 10
M  V30 10 1 7 11
M  V30 11 2 8 12
M  V30 12 1 9 13
M  V30 13 2 11 14
M  V30 14 2 13 15
M  V30 15 1 13 16
M  V30 16 1 15 17
M  V30 17 2 16 18
M  V30 18 2 17 19
M  V30 19 1 12 14
M  V30 20 1 18 19
M  V30 21 1 3 20
M  V30 22 1 4 21
M  V30 23 1 6 22
M  V30 24 1 7 23
M  V30 25 1 8 24
M  V30 26 1 9 25
M  V30 27 1 9 26
M  V30 28 1 10 27
M  V30 29 1 10 28
M  V30 30 1 10 29
M  V30 31 1 11 30
M  V30 32 1 12 31
M  V30 33 1 14 32
M  V30 34 1 15 33
M  V30 35 1 16 34
M  V30 36 1 17 35
M  V30 37 1 18 36
M  V30 38 1 19 37
M  V30 END BOND
M  V30 END CTAB
M  END
>  <Column 1>
1153

>  <level_0>
1294

>  <index>
1294

>  <Unnamed: 0>
1294

>  <NO.>
1306

>  <Name>
amfetaminil

>  <IUPAC_name>
2-phenyl-2-(1-phenylpropan-2-ylamino)acetonitrile

>  <SMILES>
CC(Cc1ccccc1)NC(C#N)c1ccccc1

>  <CID>
28615

>  <logBB>


>  <BBB+/BBB->
BBB+

>  <Inchi>
InChI=1S/C17H18N2/c1-14(12-15-8-4-2-5-9-15)19-17(13-18)16-10-6-3-7-11-16/h2-11-14-17-19H-12H2-1H3

>  <threshold>
-1

>  <reference>
R1|R19|R6|R27|R27|R30|

>  <group>
B

>  <Class>
1

>  <ABC>
14.21

>  <ABCGG>
12.04

>  <nAcid>
0

>  <nBase>
1

>  <nAromAtom>
12

>  <nAromBond>
12

>  <nAtom>
37

>  <nHeavyAtom>
19

>  <nSpiro>
0

>  <nBridgehead>
0

>  <nHetero>
2

>  <nN>
2

>  <nO>
0

>  <nF>
0

>  <BalabanJ>
1.73

>  <BertzCT>
528.19

>  <nBonds>
38

>  <nBondsO>
20

>  <nBondsS>
25

>  <nBondsD>
0

>  <nBondsT>
1

>  <nBondsA>
12

>  <nBondsM>
13

>  <nBondsKS>
31

>  <nBondsKD>
6

>  <RNCG>
0.24

>  <RPCG>
0.1

>  <FCSP3>
0.24

>  <SZ>
22.33

>  <Sm>
20.84

>  <Sv>
23.39

>  <Sse>
36.32

>  <Sp>
25.5

>  <Si>
41.32

>  <MZ>
0.6

>  <Mm>
0.56

>  <Mv>
0.63

>  <Mse>
0.98

>  <Mp>
0.69

>  <Mi>
1.12

>  <NsCH3>
1

>  <NdCH2>
0

>  <NssCH2>
1

>  <NtCH>
0

>  <NdsCH>
0

>  <NaaCH>
10

>  <NsssCH>
2

>  <NddC>
0

>  <NtsC>
1

>  <NdssC>
0

>  <NaasC>
2

>  <NaaaC>
0

>  <NssssC>
0

>  <NsNH3>
0

>  <NsNH2>
0

>  <NssNH2>
0

>  <NdNH>
0

>  <NssNH>
1

>  <NaaNH>
0

>  <NtN>
1

>  <NsssNH>
0

>  <NdsN>
0

>  <NaaN>
0

>  <NsssN>
0

>  <NddsN>
0

>  <NaasN>
0

>  <NssssN>
0

>  <NsOH>
0

>  <NdO>
0

>  <NssO>
0

>  <NaaO>
0

>  <NsF>
0

>  <NsSiH3>
0

>  <NssSiH2>
0

>  <NsssSiH>
0

>  <NssssSi>
0

>  <NsPH2>
0

>  <NssPH>
0

>  <NsssP>
0

>  <NdsssP>
0

>  <NsssssP>
0

>  <NsSH>
0

>  <NdS>
0

>  <NssS>
0

>  <NaaS>
0

>  <NdssS>
0

>  <NddssS>
0

>  <NsCl>
0

>  <NsBr>
0

>  <NsI>
0

>  <fragCpx>
58.02

>  <fMF>
0.43

>  <nHBAcc>
2

>  <nHBDon>
1

>  <Kier1>
15.39

>  <Kier2>
8.32

>  <Lipinski>
1

>  <GhoseFilter>
1

>  <FilterItLogS>
-4.43

>  <VMcGowan>
214.23

>  <LabuteASA>
114.26

>  <PEOE_VSA1>
0

>  <PEOE_VSA2>
5.32

>  <PEOE_VSA3>
0

>  <PEOE_VSA4>
5.26

>  <PEOE_VSA5>
0

>  <PEOE_VSA6>
60.66

>  <PEOE_VSA7>
24.47

>  <PEOE_VSA8>
6.04

>  <PEOE_VSA9>
6.07

>  <PEOE_VSA10>
6.04

>  <PEOE_VSA11>
0

>  <PEOE_VSA12>
0

>  <PEOE_VSA13>
0

>  <SMR_VSA1>
0

>  <SMR_VSA2>
5.26

>  <SMR_VSA3>
5.32

>  <SMR_VSA4>
0

>  <SMR_VSA5>
25.43

>  <SMR_VSA6>
0

>  <SMR_VSA7>
71.79

>  <SMR_VSA8>
0

>  <SMR_VSA9>
6.07

>  <SlogP_VSA1>
5.32

>  <SlogP_VSA2>
6.04

>  <SlogP_VSA3>
6.42

>  <SlogP_VSA4>
11.33

>  <SlogP_VSA5>
24.09

>  <SlogP_VSA6>
60.66

>  <SlogP_VSA7>
0

>  <SlogP_VSA8>
0

>  <SlogP_VSA9>
0

>  <SlogP_VSA10>
0

>  <SlogP_VSA11>
0

>  <EState_VSA1>
0

>  <EState_VSA2>
12.08

>  <EState_VSA3>
0

>  <EState_VSA4>
11.98

>  <EState_VSA5>
5.56

>  <EState_VSA6>
0

>  <EState_VSA7>
48.53

>  <EState_VSA8>
30.44

>  <EState_VSA9>
0

>  <EState_VSA10>
5.26

>  <VSA_EState1>
0

>  <VSA_EState2>
0

>  <VSA_EState3>
12.65

>  <VSA_EState4>
2.3

>  <VSA_EState5>
0

>  <VSA_EState6>
22.51

>  <VSA_EState7>
0.92

>  <VSA_EState8>
2.11

>  <VSA_EState9>
0

>  <apol>
42.59

>  <bpol>
19.2

>  <nRing>
2

>  <nHRing>
0

>  <naRing>
2

>  <naHRing>
0

>  <nARing 2>
0

>  <nAHRing 2>
0

>  <nFRing>
0

>  <nFHRing>
0

>  <nFaRing>
0

>  <nFaHRing>
0

>  <nFARing 2>
0

>  <nFAHRing 2>
0

>  <nRot>
5

>  <SLogP>
3.47

>  <SMR>
77.54

>  <TopoPSA(NO)>
35.82

>  <TopoPSA>
35.82

>  <JGI1>
0.15

>  <JGI2>
0.05

>  <JGI3>
0.04

>  <JGI4>
0.03

>  <JGI5>
0.02

>  <Diameter>
11

>  <Radius>
6

>  <TMWC10>
108.85

>  <TSRW10>
51.41

>  <MW>
250.15

>  <AMW>
6.76

>  <WPath>
778

>  <WPol>
24

>  <Zagreb1>
90

>  <Zagreb2>
100

>  <mZagreb2>
4.44

>  <yes>


>  <nAR-cont>
0.336376

>  <nHA-cont>
0.998649058

>  <MWHBN>
0.189679764

>  <MWHBN-cont>
0.995440287

>  <TPSA-cont>
0.749954157

>  <pka_cont>
0.97

>  <yes.1>


>  <BBB_SCORE>
4.813093803

>  <MMFF94 Energy>
90.133

$$$$
Compound 967
Actelion Java MolfileCreator 2.0

  0  0  0  0  0  0              0 V3000
M  V30 BEGIN CTAB
M  V30 COUNTS 48 50 0 0 0
M  V30 BEGIN ATOM
M  V30 1 O -6.2482 -1.184 0.8681 0
M  V30 2 C -5.2175 -0.9471 0.2308 0
M  V30 3 N -4.7522 0.3748 0.0723 0
M  V30 4 N -4.4664 -1.9622 -0.3604 0
M  V30 5 C -3.602 0.7557 -0.6246 0
M  V30 6 C -5.5472 1.4128 0.6987 0
M  V30 7 C -3.328 -1.6376 -1.0577 0
M  V30 8 C -4.8736 -3.3501 -0.2402 0
M  V30 9 O -3.2145 1.9149 -0.741 0
M  V30 10 C -2.91 -0.348 -1.1931 0
M  V30 11 N -2.4946 -2.5139 -1.6829 0
M  V30 12 N -1.7656 -0.4252 -1.9365 0
M  V30 13 C -1.5476 -1.7542 -2.1962 0
M  V30 14 C -0.9437 0.6728 -2.4046 0
M  V30 15 C 0.0693 1.1564 -1.3592 0
M  V30 16 N 1.1696 0.1926 -1.19 0
M  V30 17 C 2.0724 0.5521 -0.0742 0 CFG=2
M  V30 18 C 3.4263 -0.1762 -0.2734 0
M  V30 19 C 1.4363 0.1568 1.2644 0
M  V30 20 C 4.5086 0.2615 0.6866 0
M  V30 21 C 5.111 1.5205 0.5551 0
M  V30 22 C 4.9246 -0.5848 1.7231 0
M  V30 23 C 6.1065 1.9252 1.4456 0
M  V30 24 C 5.92 -0.1779 2.6128 0
M  V30 25 C 6.5102 1.0766 2.4743 0
M  V30 26 H -5.5969 1.2206 1.7756 0
M  V30 27 H -6.565 1.373 0.2967 0
M  V30 28 H -5.1395 2.4132 0.5348 0
M  V30 29 H -4.0803 -3.9129 0.2616 0
M  V30 30 H -5.039 -3.762 -1.2407 0
M  V30 31 H -5.7955 -3.4561 0.3373 0
M  V30 32 H -0.6915 -2.1069 -2.7569 0
M  V30 33 H -1.616 1.4893 -2.6893 0
M  V30 34 H -0.4393 0.3489 -3.3231 0
M  V30 35 H -0.4494 1.3355 -0.4125 0
M  V30 36 H 0.4867 2.1135 -1.6939 0
M  V30 37 H 1.7078 0.1587 -2.0566 0
M  V30 38 H 2.2517 1.6348 -0.0849 0
M  V30 39 H 3.2817 -1.2628 -0.2035 0
M  V30 40 H 3.8026 0.0056 -1.2897 0
M  V30 41 H 0.4841 0.6687 1.4331 0
M  V30 42 H 1.25 -0.9219 1.3129 0
M  V30 43 H 2.0856 0.4238 2.1043 0
M  V30 44 H 4.8105 2.1938 -0.2441 0
M  V30 45 H 4.4726 -1.5665 1.8473 0
M  V30 46 H 6.5684 2.9029 1.3363 0
M  V30 47 H 6.2345 -0.8408 3.4146 0
M  V30 48 H 7.2853 1.3921 3.1674 0
M  V30 END ATOM
M  V30 BEGIN BOND
M  V30 1 2 1 2
M  V30 2 1 2 3
M  V30 3 1 2 4
M  V30 4 1 3 5
M  V30 5 1 3 6
M  V30 6 1 4 7
M  V30 7 1 4 8
M  V30 8 2 5 9
M  V30 9 1 5 10
M  V30 10 1 7 11
M  V30 11 1 10 12
M  V30 12 2 11 13
M  V30 13 1 12 14
M  V30 14 1 14 15
M  V30 15 1 15 16
M  V30 16 1 16 17
M  V30 17 1 17 18
M  V30 18 1 17 19
M  V30 19 1 18 20
M  V30 20 2 20 21
M  V30 21 1 20 22
M  V30 22 1 21 23
M  V30 23 2 22 24
M  V30 24 2 23 25
M  V30 25 2 7 10
M  V30 26 1 12 13
M  V30 27 1 24 25
M  V30 28 1 6 26
M  V30 29 1 6 27
M  V30 30 1 6 28
M  V30 31 1 8 29
M  V30 32 1 8 30
M  V30 33 1 8 31
M  V30 34 1 13 32
M  V30 35 1 14 33
M  V30 36 1 14 34
M  V30 37 1 15 35
M  V30 38 1 15 36
M  V30 39 1 16 37
M  V30 40 1 17 38
M  V30 41 1 18 39
M  V30 42 1 18 40
M  V30 43 1 19 41
M  V30 44 1 19 42
M  V30 45 1 19 43
M  V30 46 1 21 44
M  V30 47 1 22 45
M  V30 48 1 23 46
M  V30 49 1 24 47
M  V30 50 1 25 48
M  V30 END BOND
M  V30 BEGIN COLLECTION
M  V30 MDLV30/STERAC1 ATOMS=(1 17)
M  V30 END COLLECTION
M  V30 END CTAB
M  END
>  <Column 1>
1155

>  <level_0>
1296

>  <index>
1296

>  <Unnamed: 0>
1296

>  <NO.>
1308

>  <Name>
fenethylline

>  <IUPAC_name>
1-3-dimethyl-7-[2-(1-phenylpropan-2-ylamino)ethyl]purine-2-6-dione;hydron;chloride

>  <SMILES>
CC(Cc1ccccc1)NCCn1cnc2c1c(=O)n(C)c(=O)n2C

>  <CID>
19527

>  <logBB>


>  <BBB+/BBB->
BBB+

>  <Inchi>
InChI=1S/C18H23N5O2/c1-13(11-14-7-5-4-6-8-14)19-9-10-23-12-20-16-15(23)17(24)22(3)18(25)21(16)2/h4-8-12-13-19H-9-11H2-1-3H3

>  <threshold>
-1

>  <reference>
R1|R19|R6|R27|R27|R30|

>  <group>
B

>  <Class>
1

>  <ABC>
19.36

>  <ABCGG>
15.85

>  <nAcid>
0

>  <nBase>
1

>  <nAromAtom>
15

>  <nAromBond>
16

>  <nAtom>
48

>  <nHeavyAtom>
25

>  <nSpiro>
0

>  <nBridgehead>
0

>  <nHetero>
7

>  <nN>
5

>  <nO>
2

>  <nF>
0

>  <BalabanJ>
1.44

>  <BertzCT>
984.35

>  <nBonds>
50

>  <nBondsO>
27

>  <nBondsS>
32

>  <nBondsD>
2

>  <nBondsT>
0

>  <nBondsA>
16

>  <nBondsM>
18

>  <nBondsKS>
43

>  <nBondsKD>
7

>  <RNCG>
0.14

>  <RPCG>
0.14

>  <FCSP3>
0.39

>  <SZ>
30.33

>  <Sm>
28.43

>  <Sv>
29.45

>  <Sse>
48.19

>  <Sp>
31.44

>  <Si>
54.65

>  <MZ>
0.63

>  <Mm>
0.59

>  <Mv>
0.61

>  <Mse>
1

>  <Mp>
0.65

>  <Mi>
1.14

>  <NsCH3>
3

>  <NdCH2>
0

>  <NssCH2>
3

>  <NtCH>
0

>  <NdsCH>
0

>  <NaaCH>
6

>  <NsssCH>
1

>  <NddC>
0

>  <NtsC>
0

>  <NdssC>
0

>  <NaasC>
1

>  <NaaaC>
2

>  <NssssC>
0

>  <NsNH3>
0

>  <NsNH2>
0

>  <NssNH2>
0

>  <NdNH>
0

>  <NssNH>
1

>  <NaaNH>
0

>  <NtN>
0

>  <NsssNH>
0

>  <NdsN>
0

>  <NaaN>
1

>  <NsssN>
0

>  <NddsN>
0

>  <NaasN>
3

>  <NssssN>
0

>  <NsOH>
0

>  <NdO>
2

>  <NssO>
0

>  <NaaO>
0

>  <NsF>
0

>  <NsSiH3>
0

>  <NssSiH2>
0

>  <NsssSiH>
0

>  <NssssSi>
0

>  <NsPH2>
0

>  <NssPH>
0

>  <NsssP>
0

>  <NdsssP>
0

>  <NsssssP>
0

>  <NsSH>
0

>  <NdS>
0

>  <NssS>
0

>  <NaaS>
0

>  <NdssS>
0

>  <NddssS>
0

>  <NsCl>
0

>  <NsBr>
0

>  <NsI>
0

>  <fragCpx>
129.07

>  <fMF>
0.42

>  <nHBAcc>
7

>  <nHBDon>
1

>  <Kier1>
19.75

>  <Kier2>
8.79

>  <Lipinski>
1

>  <GhoseFilter>
1

>  <FilterItLogS>
-3.56

>  <VMcGowan>
263.44

>  <LabuteASA>
145.1

>  <PEOE_VSA1>
9.88

>  <PEOE_VSA2>
13.93

>  <PEOE_VSA3>
9.78

>  <PEOE_VSA4>
0

>  <PEOE_VSA5>
0

>  <PEOE_VSA6>
30.33

>  <PEOE_VSA7>
18.91

>  <PEOE_VSA8>
33.23

>  <PEOE_VSA9>
6.33

>  <PEOE_VSA10>
0

>  <PEOE_VSA11>
11.16

>  <PEOE_VSA12>
0

>  <PEOE_VSA13>
5.56

>  <SMR_VSA1>
0

>  <SMR_VSA2>
0

>  <SMR_VSA3>
24

>  <SMR_VSA4>
14.1

>  <SMR_VSA5>
25.93

>  <SMR_VSA6>
6.54

>  <SMR_VSA7>
63.06

>  <SMR_VSA8>
0

>  <SMR_VSA9>
0

>  <SlogP_VSA1>
16.57

>  <SlogP_VSA2>
31.27

>  <SlogP_VSA3>
27.06

>  <SlogP_VSA4>
0

>  <SlogP_VSA5>
12.49

>  <SlogP_VSA6>
46.25

>  <SlogP_VSA7>
0

>  <SlogP_VSA8>
11.16

>  <SlogP_VSA9>
0

>  <SlogP_VSA10>
0

>  <SlogP_VSA11>
0

>  <EState_VSA1>
0

>  <EState_VSA2>
11.25

>  <EState_VSA3>
30.3

>  <EState_VSA4>
10.99

>  <EState_VSA5>
17.18

>  <EState_VSA6>
17.94

>  <EState_VSA7>
18.2

>  <EState_VSA8>
29.36

>  <EState_VSA9>
0

>  <EState_VSA10>
9.59

>  <VSA_EState1>
4.32

>  <VSA_EState2>
28.57

>  <VSA_EState3>
3.47

>  <VSA_EState4>
1.5

>  <VSA_EState5>
0

>  <VSA_EState6>
10.65

>  <VSA_EState7>
2.57

>  <VSA_EState8>
3.47

>  <VSA_EState9>
3.11

>  <apol>
52.5

>  <bpol>
31.65

>  <nRing>
3

>  <nHRing>
2

>  <naRing>
3

>  <naHRing>
2

>  <nARing 2>
0

>  <nAHRing 2>
0

>  <nFRing>
1

>  <nFHRing>
1

>  <nFaRing>
1

>  <nFaHRing>
1

>  <nFARing 2>
0

>  <nFAHRing 2>
0

>  <nRot>
6

>  <SLogP>
0.65

>  <SMR>
97.83

>  <TopoPSA(NO)>
73.85

>  <TopoPSA>
73.85

>  <JGI1>
0.17

>  <JGI2>
0.08

>  <JGI3>
0.05

>  <JGI4>
0.05

>  <JGI5>
0.03

>  <Diameter>
14

>  <Radius>
7

>  <TMWC10>
127.59

>  <TSRW10>
73.81

>  <MW>
341.19

>  <AMW>
7.11

>  <WPath>
1685

>  <WPol>
40

>  <Zagreb1>
130

>  <Zagreb2>
154

>  <mZagreb2>
5.53

>  <yes>


>  <nAR-cont>
0.336376

>  <nHA-cont>
0.921834225

>  <MWHBN>
0.433103646

>  <MWHBN-cont>
0.3479988

>  <TPSA-cont>
0.484481142

>  <pka_cont>
0.97

>  <yes.1>


>  <BBB_SCORE>
3.234170709

>  <MMFF94 Energy>
-79.253

$$$$
Compound 968
Actelion Java MolfileCreator 2.0

  0  0  0  0  0  0              0 V3000
M  V30 BEGIN CTAB
M  V30 COUNTS 25 25 0 0 0
M  V30 BEGIN ATOM
M  V30 1 N -1.395 1.2399 -1.0848 0
M  V30 2 N -0.9508 2.016 -2.213 0
M  V30 3 C -0.5085 1.4135 0.085 0 CFG=2
M  V30 4 C -0.629 0.1878 1.0223 0
M  V30 5 C -0.8944 2.6849 0.8515 0
M  V30 6 C 0.1606 -1.0122 0.549 0
M  V30 7 C -0.3603 -1.8696 -0.4288 0
M  V30 8 C 1.4349 -1.275 1.0714 0
M  V30 9 C 0.3741 -2.9714 -0.8702 0
M  V30 10 C 2.1678 -2.3782 0.6299 0
M  V30 11 C 1.637 -3.2265 -0.3398 0
M  V30 12 H -2.3662 1.4478 -0.832 0
M  V30 13 H -0.7355 2.9875 -1.979 0
M  V30 14 H -0.097 1.6182 -2.616 0
M  V30 15 H 0.5372 1.5044 -0.239 0
M  V30 16 H -0.2732 0.4553 2.0267 0
M  V30 17 H -1.6808 -0.0984 1.1598 0
M  V30 18 H -1.9249 2.6331 1.2212 0
M  V30 19 H -0.2358 2.8277 1.7154 0
M  V30 20 H -0.804 3.5771 0.2231 0
M  V30 21 H -1.3404 -1.6759 -0.8603 0
M  V30 22 H 1.8656 -0.6225 1.8272 0
M  V30 23 H -0.0399 -3.627 -1.6315 0
M  V30 24 H 3.1538 -2.5751 1.0423 0
M  V30 25 H 2.208 -4.0841 -0.6847 0
M  V30 END ATOM
M  V30 BEGIN BOND
M  V30 1 1 1 2
M  V30 2 1 1 3
M  V30 3 1 3 4
M  V30 4 1 3 5
M  V30 5 1 4 6
M  V30 6 2 6 7
M  V30 7 1 6 8
M  V30 8 1 7 9
M  V30 9 2 8 10
M  V30 10 2 9 11
M  V30 11 1 10 11
M  V30 12 1 1 12
M  V30 13 1 2 13
M  V30 14 1 2 14
M  V30 15 1 3 15
M  V30 16 1 4 16
M  V30 17 1 4 17
M  V30 18 1 5 18
M  V30 19 1 5 19
M  V30 20 1 5 20
M  V30 21 1 7 21
M  V30 22 1 8 22
M  V30 23 1 9 23
M  V30 24 1 10 24
M  V30 25 1 11 25
M  V30 END BOND
M  V30 BEGIN COLLECTION
M  V30 MDLV30/STERAC1 ATOMS=(1 3)
M  V30 END COLLECTION
M  V30 END CTAB
M  END
>  <Column 1>
1156

>  <level_0>
1297

>  <index>
1297

>  <Unnamed: 0>
1297

>  <NO.>
1309

>  <Name>
pheniprazine

>  <IUPAC_name>
1-phenylpropan-2-ylhydrazine

>  <SMILES>
CC(Cc1ccccc1)NN

>  <CID>
5929

>  <logBB>


>  <BBB+/BBB->
BBB+

>  <Inchi>
InChI=1S/C9H14N2/c1-8(11-10)7-9-5-3-2-4-6-9/h2-6-8-11H-7-10H2-1H3

>  <threshold>
-1

>  <reference>
R1|R19|R6|R27|R27|R30|

>  <group>
B

>  <Class>
-1

>  <ABC>
7.89

>  <ABCGG>
7.39

>  <nAcid>
0

>  <nBase>
0

>  <nAromAtom>
6

>  <nAromBond>
6

>  <nAtom>
25

>  <nHeavyAtom>
11

>  <nSpiro>
0

>  <nBridgehead>
0

>  <nHetero>
2

>  <nN>
2

>  <nO>
0

>  <nF>
0

>  <BalabanJ>
2.13

>  <BertzCT>
195.98

>  <nBonds>
25

>  <nBondsO>
11

>  <nBondsS>
19

>  <nBondsD>
0

>  <nBondsT>
0

>  <nBondsA>
6

>  <nBondsM>
6

>  <nBondsKS>
22

>  <nBondsKD>
3

>  <RNCG>
0.29

>  <RPCG>
0.15

>  <FCSP3>
0.33

>  <SZ>
13.67

>  <Sm>
12.51

>  <Sv>
14.31

>  <Sse>
24.54

>  <Sp>
15.91

>  <Si>
28.49

>  <MZ>
0.55

>  <Mm>
0.5

>  <Mv>
0.57

>  <Mse>
0.98

>  <Mp>
0.64

>  <Mi>
1.14

>  <NsCH3>
1

>  <NdCH2>
0

>  <NssCH2>
1

>  <NtCH>
0

>  <NdsCH>
0

>  <NaaCH>
5

>  <NsssCH>
1

>  <NddC>
0

>  <NtsC>
0

>  <NdssC>
0

>  <NaasC>
1

>  <NaaaC>
0

>  <NssssC>
0

>  <NsNH3>
0

>  <NsNH2>
1

>  <NssNH2>
0

>  <NdNH>
0

>  <NssNH>
1

>  <NaaNH>
0

>  <NtN>
0

>  <NsssNH>
0

>  <NdsN>
0

>  <NaaN>
0

>  <NsssN>
0

>  <NddsN>
0

>  <NaasN>
0

>  <NssssN>
0

>  <NsOH>
0

>  <NdO>
0

>  <NssO>
0

>  <NaaO>
0

>  <NsF>
0

>  <NsSiH3>
0

>  <NssSiH2>
0

>  <NsssSiH>
0

>  <NssssSi>
0

>  <NsPH2>
0

>  <NssPH>
0

>  <NsssP>
0

>  <NdsssP>
0

>  <NsssssP>
0

>  <NsSH>
0

>  <NdS>
0

>  <NssS>
0

>  <NaaS>
0

>  <NdssS>
0

>  <NddssS>
0

>  <NsCl>
0

>  <NsBr>
0

>  <NsI>
0

>  <fragCpx>
11.02

>  <fMF>
0.24

>  <nHBAcc>
2

>  <nHBDon>
2

>  <Kier1>
9.09

>  <Kier2>
4.79

>  <Lipinski>
1

>  <GhoseFilter>
0

>  <FilterItLogS>
-2.15

>  <VMcGowan>
133.87

>  <LabuteASA>
67.39

>  <PEOE_VSA1>
0

>  <PEOE_VSA2>
11.27

>  <PEOE_VSA3>
0

>  <PEOE_VSA4>
0

>  <PEOE_VSA5>
0

>  <PEOE_VSA6>
30.33

>  <PEOE_VSA7>
18.91

>  <PEOE_VSA8>
6.04

>  <PEOE_VSA9>
0

>  <PEOE_VSA10>
0

>  <PEOE_VSA11>
0

>  <PEOE_VSA12>
0

>  <PEOE_VSA13>
0

>  <SMR_VSA1>
0

>  <SMR_VSA2>
0

>  <SMR_VSA3>
5.43

>  <SMR_VSA4>
5.84

>  <SMR_VSA5>
19.39

>  <SMR_VSA6>
0

>  <SMR_VSA7>
35.9

>  <SMR_VSA8>
0

>  <SMR_VSA9>
0

>  <SlogP_VSA1>
11.27

>  <SlogP_VSA2>
6.04

>  <SlogP_VSA3>
6.42

>  <SlogP_VSA4>
0

>  <SlogP_VSA5>
12.49

>  <SlogP_VSA6>
30.33

>  <SlogP_VSA7>
0

>  <SlogP_VSA8>
0

>  <SlogP_VSA9>
0

>  <SlogP_VSA10>
0

>  <SlogP_VSA11>
0

>  <EState_VSA1>
0

>  <EState_VSA2>
0

>  <EState_VSA3>
6.04

>  <EState_VSA4>
6.42

>  <EState_VSA5>
5.56

>  <EState_VSA6>
0

>  <EState_VSA7>
18.2

>  <EState_VSA8>
24.48

>  <EState_VSA9>
5.84

>  <EState_VSA10>
0

>  <VSA_EState1>
0

>  <VSA_EState2>
0

>  <VSA_EState3>
0

>  <VSA_EState4>
4.03

>  <VSA_EState5>
5.27

>  <VSA_EState6>
10.65

>  <VSA_EState7>
0.98

>  <VSA_EState8>
2.06

>  <VSA_EState9>
0

>  <apol>
26.57

>  <bpol>
12.9

>  <nRing>
1

>  <nHRing>
0

>  <naRing>
1

>  <naHRing>
0

>  <nARing 2>
0

>  <nAHRing 2>
0

>  <nFRing>
0

>  <nFHRing>
0

>  <nFaRing>
0

>  <nFaHRing>
0

>  <nFARing 2>
0

>  <nFAHRing 2>
0

>  <nRot>
3

>  <SLogP>
1.08

>  <SMR>
46.93

>  <TopoPSA(NO)>
38.05

>  <TopoPSA>
38.05

>  <JGI1>
0.18

>  <JGI2>
0.05

>  <JGI3>
0.04

>  <JGI4>
0.04

>  <JGI5>
0.02

>  <Diameter>
7

>  <Radius>
4

>  <TMWC10>
84.75

>  <TSRW10>
39.98

>  <MW>
150.12

>  <AMW>
6

>  <WPath>
168

>  <WPol>
11

>  <Zagreb1>
48

>  <Zagreb2>
51

>  <mZagreb2>
2.67

>  <yes>


>  <nAR-cont>
0.336376

>  <nHA-cont>
0.720786536

>  <MWHBN>
0.326468071

>  <MWHBN-cont>
0.755136007

>  <TPSA-cont>
0.734387372

>  <pka_cont>
0.97

>  <yes.1>


>  <BBB_SCORE>
4.143641291

>  <MMFF94 Energy>
76.02

$$$$
Compound 969
Actelion Java MolfileCreator 2.0

  0  0  0  0  0  0              0 V3000
M  V30 BEGIN CTAB
M  V30 COUNTS 24 24 0 0 0
M  V30 BEGIN ATOM
M  V30 1 O -0.7016 -1.6377 1.3256 0
M  V30 2 N -1.5722 -1.9132 0.1921 0
M  V30 3 C -1.9119 -0.6158 -0.4272 0 CFG=2
M  V30 4 C -0.7887 -0.0263 -1.3183 0
M  V30 5 C -2.4836 0.3905 0.5772 0
M  V30 6 C 0.5455 0.2757 -0.6761 0
M  V30 7 C 0.7467 1.4578 0.0478 0
M  V30 8 C 1.6131 -0.6248 -0.8105 0
M  V30 9 C 1.9836 1.7265 0.637 0
M  V30 10 C 2.8493 -0.3549 -0.2217 0
M  V30 11 C 3.0335 0.8201 0.5036 0
M  V30 12 H 0.1429 -2.0424 1.0467 0
M  V30 13 H -2.4001 -2.2866 0.6637 0
M  V30 14 H -2.7347 -0.8398 -1.1199 0
M  V30 15 H -0.6189 -0.7176 -2.156 0
M  V30 16 H -1.1558 0.8948 -1.7917 0
M  V30 17 H -1.7573 0.679 1.343 0
M  V30 18 H -3.3575 -0.0284 1.0888 0
M  V30 19 H -2.8099 1.3016 0.0639 0
M  V30 20 H -0.0591 2.1793 0.1581 0
M  V30 21 H 1.4827 -1.5453 -1.3758 0
M  V30 22 H 2.1274 2.6453 1.1994 0
M  V30 23 H 3.6691 -1.0596 -0.3324 0
M  V30 24 H 3.9959 1.0321 0.9614 0
M  V30 END ATOM
M  V30 BEGIN BOND
M  V30 1 1 1 2
M  V30 2 1 2 3
M  V30 3 1 3 4
M  V30 4 1 3 5
M  V30 5 1 4 6
M  V30 6 2 6 7
M  V30 7 1 6 8
M  V30 8 1 7 9
M  V30 9 2 8 10
M  V30 10 2 9 11
M  V30 11 1 10 11
M  V30 12 1 1 12
M  V30 13 1 2 13
M  V30 14 1 3 14
M  V30 15 1 4 15
M  V30 16 1 4 16
M  V30 17 1 5 17
M  V30 18 1 5 18
M  V30 19 1 5 19
M  V30 20 1 7 20
M  V30 21 1 8 21
M  V30 22 1 9 22
M  V30 23 1 10 23
M  V30 24 1 11 24
M  V30 END BOND
M  V30 BEGIN COLLECTION
M  V30 MDLV30/STERAC1 ATOMS=(1 3)
M  V30 END COLLECTION
M  V30 END CTAB
M  END
>  <Column 1>
1157

>  <level_0>
1298

>  <index>
1298

>  <Unnamed: 0>
1298

>  <NO.>
1310

>  <Name>
n-(1-phenylpropan-2-yl)hydroxylamine

>  <IUPAC_name>
n-(1-phenylpropan-2-yl)hydroxylamine

>  <SMILES>
CC(Cc1ccccc1)NO

>  <CID>
65546

>  <logBB>


>  <BBB+/BBB->
BBB-

>  <Inchi>
InChI=1S/C9H13NO/c1-8(10-11)7-9-5-3-2-4-6-9/h2-6-8-10-11H-7H2-1H3

>  <threshold>
-1

>  <reference>
R1|R27|R30|

>  <group>
B

>  <Class>
1

>  <ABC>
7.89

>  <ABCGG>
7.39

>  <nAcid>
0

>  <nBase>
0

>  <nAromAtom>
6

>  <nAromBond>
6

>  <nAtom>
24

>  <nHeavyAtom>
11

>  <nSpiro>
0

>  <nBridgehead>
0

>  <nHetero>
2

>  <nN>
1

>  <nO>
1

>  <nF>
0

>  <BalabanJ>
2.13

>  <BertzCT>
197.98

>  <nBonds>
24

>  <nBondsO>
11

>  <nBondsS>
18

>  <nBondsD>
0

>  <nBondsT>
0

>  <nBondsA>
6

>  <nBondsM>
6

>  <nBondsKS>
21

>  <nBondsKD>
3

>  <RNCG>
0.34

>  <RPCG>
0.26

>  <FCSP3>
0.33

>  <SZ>
13.67

>  <Sm>
12.59

>  <Sv>
13.99

>  <Sse>
23.76

>  <Sp>
15.33

>  <Si>
27.2

>  <MZ>
0.57

>  <Mm>
0.52

>  <Mv>
0.58

>  <Mse>
0.99

>  <Mp>
0.64

>  <Mi>
1.13

>  <NsCH3>
1

>  <NdCH2>
0

>  <NssCH2>
1

>  <NtCH>
0

>  <NdsCH>
0

>  <NaaCH>
5

>  <NsssCH>
1

>  <NddC>
0

>  <NtsC>
0

>  <NdssC>
0

>  <NaasC>
1

>  <NaaaC>
0

>  <NssssC>
0

>  <NsNH3>
0

>  <NsNH2>
0

>  <NssNH2>
0

>  <NdNH>
0

>  <NssNH>
1

>  <NaaNH>
0

>  <NtN>
0

>  <NsssNH>
0

>  <NdsN>
0

>  <NaaN>
0

>  <NsssN>
0

>  <NddsN>
0

>  <NaasN>
0

>  <NssssN>
0

>  <NsOH>
1

>  <NdO>
0

>  <NssO>
0

>  <NaaO>
0

>  <NsF>
0

>  <NsSiH3>
0

>  <NssSiH2>
0

>  <NsssSiH>
0

>  <NssssSi>
0

>  <NsPH2>
0

>  <NssPH>
0

>  <NsssP>
0

>  <NdsssP>
0

>  <NsssssP>
0

>  <NsSH>
0

>  <NdS>
0

>  <NssS>
0

>  <NaaS>
0

>  <NdssS>
0

>  <NddssS>
0

>  <NsCl>
0

>  <NsBr>
0

>  <NsI>
0

>  <fragCpx>
11.02

>  <fMF>
0.25

>  <nHBAcc>
2

>  <nHBDon>
2

>  <Kier1>
9.09

>  <Kier2>
4.79

>  <Lipinski>
1

>  <GhoseFilter>
0

>  <FilterItLogS>
-1.94

>  <VMcGowan>
129.76

>  <LabuteASA>
66.82

>  <PEOE_VSA1>
5.21

>  <PEOE_VSA2>
0

>  <PEOE_VSA3>
5.48

>  <PEOE_VSA4>
0

>  <PEOE_VSA5>
0

>  <PEOE_VSA6>
30.33

>  <PEOE_VSA7>
18.91

>  <PEOE_VSA8>
6.04

>  <PEOE_VSA9>
0

>  <PEOE_VSA10>
0

>  <PEOE_VSA11>
0

>  <PEOE_VSA12>
0

>  <PEOE_VSA13>
0

>  <SMR_VSA1>
5.21

>  <SMR_VSA2>
0

>  <SMR_VSA3>
5.48

>  <SMR_VSA4>
0

>  <SMR_VSA5>
19.39

>  <SMR_VSA6>
0

>  <SMR_VSA7>
35.9

>  <SMR_VSA8>
0

>  <SMR_VSA9>
0

>  <SlogP_VSA1>
5.48

>  <SlogP_VSA2>
11.25

>  <SlogP_VSA3>
6.42

>  <SlogP_VSA4>
0

>  <SlogP_VSA5>
12.49

>  <SlogP_VSA6>
30.33

>  <SlogP_VSA7>
0

>  <SlogP_VSA8>
0

>  <SlogP_VSA9>
0

>  <SlogP_VSA10>
0

>  <SlogP_VSA11>
0

>  <EState_VSA1>
0

>  <EState_VSA2>
6.04

>  <EState_VSA3>
0

>  <EState_VSA4>
6.42

>  <EState_VSA5>
5.56

>  <EState_VSA6>
0

>  <EState_VSA7>
37.26

>  <EState_VSA8>
5.48

>  <EState_VSA9>
5.21

>  <EState_VSA10>
0

>  <VSA_EState1>
0

>  <VSA_EState2>
0

>  <VSA_EState3>
8.55

>  <VSA_EState4>
3.45

>  <VSA_EState5>
0

>  <VSA_EState6>
10.21

>  <VSA_EState7>
0.86

>  <VSA_EState8>
1.94

>  <VSA_EState9>
0

>  <apol>
25.6

>  <bpol>
12.47

>  <nRing>
1

>  <nHRing>
0

>  <naRing>
1

>  <naHRing>
0

>  <nARing 2>
0

>  <nAHRing 2>
0

>  <nFRing>
0

>  <nFHRing>
0

>  <nFaRing>
0

>  <nFaHRing>
0

>  <nFARing 2>
0

>  <nFAHRing 2>
0

>  <nRot>
3

>  <SLogP>
1.6

>  <SMR>
44.53

>  <TopoPSA(NO)>
32.26

>  <TopoPSA>
32.26

>  <JGI1>
0.18

>  <JGI2>
0.05

>  <JGI3>
0.04

>  <JGI4>
0.04

>  <JGI5>
0.02

>  <Diameter>
7

>  <Radius>
4

>  <TMWC10>
84.75

>  <TSRW10>
39.98

>  <MW>
151.1

>  <AMW>
6.3

>  <WPath>
168

>  <WPol>
11

>  <Zagreb1>
48

>  <Zagreb2>
51

>  <mZagreb2>
2.67

>  <yes>


>  <nAR-cont>
0.336376

>  <nHA-cont>
0.720786536

>  <MWHBN>
0.32540765

>  <MWHBN-cont>
0.758791138

>  <TPSA-cont>
0.774805168

>  <pka_cont>
0.97

>  <yes.1>


>  <BBB_SCORE>
4.229959578

>  <MMFF94 Energy>
54.442

$$$$
Compound 970
Actelion Java MolfileCreator 2.0

  0  0  0  0  0  0              0 V3000
M  V30 BEGIN CTAB
M  V30 COUNTS 40 41 0 0 0
M  V30 BEGIN ATOM
M  V30 1 O -1.0263 -2.4487 0.2367 0 CHG=-1
M  V30 2 N -1.373 -1.2531 0.8457 0 CHG=1
M  V30 3 C -0.871 -0.0607 -0.0134 0
M  V30 4 C -0.7962 -1.2256 2.2644 0
M  V30 5 C -2.8765 -1.2516 0.9572 0
M  V30 6 C -1.3052 -0.1893 -1.496 0
M  V30 7 C -1.2621 1.3123 0.5509 0
M  V30 8 C 0.7004 -1.0729 2.4138 0
M  V30 9 C -0.5398 0.727 -2.4258 0
M  V30 10 C 1.5774 -2.0309 1.8864 0
M  V30 11 C 1.2391 0.0192 3.1117 0
M  V30 12 C -1.1567 1.8474 -2.9985 0
M  V30 13 C 0.8044 0.464 -2.7237 0
M  V30 14 C 2.9582 -1.8921 2.0344 0
M  V30 15 C 2.6209 0.1566 3.2601 0
M  V30 16 C -0.4388 2.6924 -3.8466 0
M  V30 17 C 1.52 1.3101 -3.5714 0
M  V30 18 C 3.4798 -0.7977 2.7199 0
M  V30 19 C 0.8989 2.4247 -4.1314 0
M  V30 20 H 0.2196 -0.155 0.0279 0
M  V30 21 H -1.3219 -0.4225 2.7931 0
M  V30 22 H -1.1042 -2.1726 2.727 0
M  V30 23 H -3.2977 -1.3345 -0.0465 0
M  V30 24 H -3.1958 -0.334 1.4544 0
M  V30 25 H -3.161 -2.127 1.5491 0
M  V30 26 H -1.1678 -1.2142 -1.861 0
M  V30 27 H -2.3793 0.0121 -1.5927 0
M  V30 28 H -2.3308 1.5101 0.4193 0
M  V30 29 H -1.0372 1.4078 1.615 0
M  V30 30 H -0.7146 2.1116 0.0407 0
M  V30 31 H 1.1844 -2.8908 1.3441 0
M  V30 32 H 0.5895 0.7742 3.5482 0
M  V30 33 H -2.2004 2.0701 -2.7903 0
M  V30 34 H 1.2992 -0.4076 -2.298 0
M  V30 35 H 3.6235 -2.6405 1.6117 0
M  V30 36 H 3.0284 1.008 3.7992 0
M  V30 37 H -0.9242 3.5588 -4.2882 0
M  V30 38 H 2.5614 1.0961 -3.7968 0
M  V30 39 H 4.5551 -0.6911 2.8344 0
M  V30 40 H 1.4564 3.0815 -4.7938 0
M  V30 END ATOM
M  V30 BEGIN BOND
M  V30 1 1 1 2
M  V30 2 1 2 3
M  V30 3 1 2 4
M  V30 4 1 2 5
M  V30 5 1 3 6
M  V30 6 1 3 7
M  V30 7 1 4 8
M  V30 8 1 6 9
M  V30 9 2 8 10
M  V30 10 1 8 11
M  V30 11 2 9 12
M  V30 12 1 9 13
M  V30 13 1 10 14
M  V30 14 2 11 15
M  V30 15 1 12 16
M  V30 16 2 13 17
M  V30 17 2 14 18
M  V30 18 2 16 19
M  V30 19 1 15 18
M  V30 20 1 17 19
M  V30 21 1 3 20
M  V30 22 1 4 21
M  V30 23 1 4 22
M  V30 24 1 5 23
M  V30 25 1 5 24
M  V30 26 1 5 25
M  V30 27 1 6 26
M  V30 28 1 6 27
M  V30 29 1 7 28
M  V30 30 1 7 29
M  V30 31 1 7 30
M  V30 32 1 10 31
M  V30 33 1 11 32
M  V30 34 1 12 33
M  V30 35 1 13 34
M  V30 36 1 14 35
M  V30 37 1 15 36
M  V30 38 1 16 37
M  V30 39 1 17 38
M  V30 40 1 18 39
M  V30 41 1 19 40
M  V30 END BOND
M  V30 END CTAB
M  END
>  <Column 1>
1158

>  <level_0>
1299

>  <index>
1299

>  <Unnamed: 0>
1299

>  <NO.>
1311

>  <Name>
oxifentorex

>  <IUPAC_name>
n-benzyl-n-methyl-1-phenylpropan-2-amine oxide

>  <SMILES>
CC(Cc1ccccc1)[N+](C)([O-])Cc1ccccc1

>  <CID>
176171

>  <logBB>


>  <BBB+/BBB->
BBB+

>  <Inchi>
InChI=1S/C17H21NO/c1-15(13-16-9-5-3-6-10-16)18(2-19)14-17-11-7-4-8-12-17/h3-12-15H-13-14H2-1-2H3

>  <threshold>
-1

>  <reference>
R1|R19|R6|R27|R27|R30|

>  <group>
B

>  <Class>
1

>  <ABC>
14.51

>  <ABCGG>
12.32

>  <nAcid>
0

>  <nBase>
1

>  <nAromAtom>
12

>  <nAromBond>
12

>  <nAtom>
40

>  <nHeavyAtom>
19

>  <nSpiro>
0

>  <nBridgehead>
0

>  <nHetero>
2

>  <nN>
1

>  <nO>
1

>  <nF>
0

>  <BalabanJ>
1.79

>  <BertzCT>
493.19

>  <nBonds>
41

>  <nBondsO>
20

>  <nBondsS>
29

>  <nBondsD>
0

>  <nBondsT>
0

>  <nBondsA>
12

>  <nBondsM>
12

>  <nBondsKS>
35

>  <nBondsKD>
6

>  <RNCG>
0.39

>  <RPCG>
0.06

>  <FCSP3>
0.29

>  <SZ>
23

>  <Sm>
21.26

>  <Sv>
24.16

>  <Sse>
39.32

>  <Sp>
26.52

>  <Si>
44.86

>  <MZ>
0.58

>  <Mm>
0.53

>  <Mv>
0.6

>  <Mse>
0.98

>  <Mp>
0.66

>  <Mi>
1.12

>  <NsCH3>
2

>  <NdCH2>
0

>  <NssCH2>
2

>  <NtCH>
0

>  <NdsCH>
0

>  <NaaCH>
10

>  <NsssCH>
1

>  <NddC>
0

>  <NtsC>
0

>  <NdssC>
0

>  <NaasC>
2

>  <NaaaC>
0

>  <NssssC>
0

>  <NsNH3>
0

>  <NsNH2>
0

>  <NssNH2>
0

>  <NdNH>
0

>  <NssNH>
0

>  <NaaNH>
0

>  <NtN>
0

>  <NsssNH>
0

>  <NdsN>
0

>  <NaaN>
0

>  <NsssN>
0

>  <NddsN>
0

>  <NaasN>
0

>  <NssssN>
1

>  <NsOH>
0

>  <NdO>
0

>  <NssO>
0

>  <NaaO>
0

>  <NsF>
0

>  <NsSiH3>
0

>  <NssSiH2>
0

>  <NsssSiH>
0

>  <NssssSi>
0

>  <NsPH2>
0

>  <NssPH>
0

>  <NsssP>
0

>  <NdsssP>
0

>  <NsssssP>
0

>  <NsSH>
0

>  <NdS>
0

>  <NssS>
0

>  <NaaS>
0

>  <NdssS>
0

>  <NddssS>
0

>  <NsCl>
0

>  <NsBr>
0

>  <NsI>
0

>  <fragCpx>
58.02

>  <fMF>
0.4

>  <nHBAcc>
1

>  <nHBDon>
0

>  <Kier1>
15.39

>  <Kier2>
7.14

>  <Lipinski>
1

>  <GhoseFilter>
1

>  <FilterItLogS>
-5.14

>  <VMcGowan>
218.72

>  <LabuteASA>
115.03

>  <PEOE_VSA1>
9.85

>  <PEOE_VSA2>
0

>  <PEOE_VSA3>
0

>  <PEOE_VSA4>
0

>  <PEOE_VSA5>
0

>  <PEOE_VSA6>
60.66

>  <PEOE_VSA7>
12.49

>  <PEOE_VSA8>
11.98

>  <PEOE_VSA9>
13.09

>  <PEOE_VSA10>
6.54

>  <PEOE_VSA11>
0

>  <PEOE_VSA12>
0

>  <PEOE_VSA13>
0

>  <SMR_VSA1>
4.65

>  <SMR_VSA2>
0

>  <SMR_VSA3>
0

>  <SMR_VSA4>
0

>  <SMR_VSA5>
25.93

>  <SMR_VSA6>
7.05

>  <SMR_VSA7>
77

>  <SMR_VSA8>
0

>  <SMR_VSA9>
0

>  <SlogP_VSA1>
0

>  <SlogP_VSA2>
17.74

>  <SlogP_VSA3>
12.97

>  <SlogP_VSA4>
5.21

>  <SlogP_VSA5>
18.05

>  <SlogP_VSA6>
60.66

>  <SlogP_VSA7>
0

>  <SlogP_VSA8>
0

>  <SlogP_VSA9>
0

>  <SlogP_VSA10>
0

>  <SlogP_VSA11>
0

>  <EState_VSA1>
0

>  <EState_VSA2>
10.69

>  <EState_VSA3>
6.54

>  <EState_VSA4>
11.98

>  <EState_VSA5>
5.56

>  <EState_VSA6>
7.05

>  <EState_VSA7>
55.45

>  <EState_VSA8>
12.13

>  <EState_VSA9>
0

>  <EState_VSA10>
5.21

>  <VSA_EState1>
-0.24

>  <VSA_EState2>
0

>  <VSA_EState3>
12.71

>  <VSA_EState4>
2.32

>  <VSA_EState5>
0

>  <VSA_EState6>
20.24

>  <VSA_EState7>
0.81

>  <VSA_EState8>
2.55

>  <VSA_EState9>
1.76

>  <apol>
44.29

>  <bpol>
23.08

>  <nRing>
2

>  <nHRing>
0

>  <naRing>
2

>  <naHRing>
0

>  <nARing 2>
0

>  <nAHRing 2>
0

>  <nFRing>
0

>  <nFHRing>
0

>  <nFaRing>
0

>  <nFaHRing>
0

>  <nFARing 2>
0

>  <nFAHRing 2>
0

>  <nRot>
5

>  <SLogP>
3.76

>  <SMR>
79.31

>  <TopoPSA(NO)>
23.06

>  <TopoPSA>
23.06

>  <JGI1>
0.23

>  <JGI2>
0.07

>  <JGI3>
0.05

>  <JGI4>
0.06

>  <JGI5>
0.02

>  <Diameter>
11

>  <Radius>
6

>  <TMWC10>
109.88

>  <TSRW10>
51.92

>  <MW>
255.16

>  <AMW>
6.38

>  <WPath>
756

>  <WPol>
25

>  <Zagreb1>
94

>  <Zagreb2>
105

>  <mZagreb2>
4.21

>  <yes>


>  <nAR-cont>
0.336376

>  <nHA-cont>
0.998649058

>  <MWHBN>
0.062602792

>  <MWHBN-cont>
0.475127476

>  <TPSA-cont>
0.839026881

>  <pka_cont>
0.97

>  <yes.1>


>  <BBB_SCORE>
4.210770034

>  <MMFF94 Energy>
74.253

$$$$
Compound 971
Actelion Java MolfileCreator 2.0

  0  0  0  0  0  0              0 V3000
M  V30 BEGIN CTAB
M  V30 COUNTS 43 45 0 0 0
M  V30 BEGIN ATOM
M  V30 1 O -0.475 -2.2975 -0.0791 0
M  V30 2 C 0.4612 -2.9359 0.3911 0
M  V30 3 N 0.5079 -4.2995 0.5839 0
M  V30 4 N 1.6359 -2.3197 0.7857 0
M  V30 5 C -0.535 -5.2201 0.3439 0
M  V30 6 C 1.7789 -0.9599 0.6622 0
M  V30 7 C -1.8774 -4.8533 0.2256 0
M  V30 8 C -0.1911 -6.5755 0.259 0
M  V30 9 O 2.8102 -0.3712 1.3575 0
M  V30 10 C 1.1056 0.0245 -0.028 0
M  V30 11 C -2.859 -5.8252 0.0075 0
M  V30 12 C -1.1728 -7.5454 0.0407 0
M  V30 13 N 2.7877 1.0154 1.1175 0
M  V30 14 N 1.7655 1.1876 0.2995 0 CHG=1
M  V30 15 C -2.5071 -7.1694 -0.0867 0
M  V30 16 C 1.3996 2.5272 -0.18 0 CFG=2
M  V30 17 C 0.0262 2.9392 0.3819 0
M  V30 18 C 1.4659 2.5897 -1.7076 0
M  V30 19 C -0.2889 4.3971 0.1723 0
M  V30 20 C 0.3084 5.3765 0.979 0
M  V30 21 C -1.1719 4.7956 -0.8411 0
M  V30 22 C 0.0338 6.7284 0.7678 0
M  V30 23 C -1.4433 6.1486 -1.0488 0
M  V30 24 C -0.8392 7.1139 -0.2466 0
M  V30 25 H 1.3933 -4.7113 0.8404 0
M  V30 26 H 2.3536 -2.8451 1.266 0
M  V30 27 H -2.1984 -3.82 0.3099 0
M  V30 28 H 0.8413 -6.9009 0.3529 0
M  V30 29 H 0.2478 -0.0444 -0.6807 0
M  V30 30 H -3.902 -5.5307 -0.085 0
M  V30 31 H -0.8971 -8.5951 -0.0295 0
M  V30 32 H -3.273 -7.9227 -0.2559 0
M  V30 33 H 2.1631 3.2173 0.2061 0
M  V30 34 H -0.7654 2.3184 -0.057 0
M  V30 35 H -0.0079 2.7298 1.4597 0
M  V30 36 H 1.3637 3.6176 -2.069 0
M  V30 37 H 2.4273 2.2049 -2.0645 0
M  V30 38 H 0.6763 1.9871 -2.1685 0
M  V30 39 H 0.9833 5.1061 1.7884 0
M  V30 40 H -1.6656 4.0646 -1.4782 0
M  V30 41 H 0.4937 7.4858 1.3993 0
M  V30 42 H -2.1326 6.4537 -1.8334 0
M  V30 43 H -1.0566 8.1679 -0.4066 0
M  V30 END ATOM
M  V30 BEGIN BOND
M  V30 1 2 1 2
M  V30 2 1 2 3
M  V30 3 1 2 4
M  V30 4 1 3 5
M  V30 5 1 4 6
M  V30 6 2 5 7
M  V30 7 1 5 8
M  V30 8 1 6 9
M  V30 9 2 6 10
M  V30 10 1 7 11
M  V30 11 2 8 12
M  V30 12 1 9 13
M  V30 13 1 10 14
M  V30 14 2 11 15
M  V30 15 1 14 16
M  V30 16 1 16 17
M  V30 17 1 16 18
M  V30 18 1 17 19
M  V30 19 2 19 20
M  V30 20 1 19 21
M  V30 21 1 20 22
M  V30 22 2 21 23
M  V30 23 2 22 24
M  V30 24 1 12 15
M  V30 25 2 13 14
M  V30 26 1 23 24
M  V30 27 1 3 25
M  V30 28 1 4 26
M  V30 29 1 7 27
M  V30 30 1 8 28
M  V30 31 1 10 29
M  V30 32 1 11 30
M  V30 33 1 12 31
M  V30 34 1 15 32
M  V30 35 1 16 33
M  V30 36 1 17 34
M  V30 37 1 17 35
M  V30 38 1 18 36
M  V30 39 1 18 37
M  V30 40 1 18 38
M  V30 41 1 20 39
M  V30 42 1 21 40
M  V30 43 1 22 41
M  V30 44 1 23 42
M  V30 45 1 24 43
M  V30 END BOND
M  V30 BEGIN COLLECTION
M  V30 MDLV30/STERAC1 ATOMS=(1 16)
M  V30 END COLLECTION
M  V30 END CTAB
M  END
>  <Column 1>
1159

>  <level_0>
1300

>  <index>
1300

>  <Unnamed: 0>
1300

>  <NO.>
1312

>  <Name>
mesocarb

>  <IUPAC_name>
n-phenyl-n'-[3-(1-phenylpropan-2-yl)oxadiazol-3-ium-5-yl]carbamimidate

>  <SMILES>
CC(Cc1ccccc1)[n+]1cc(NC(=O)Nc2ccccc2)on1

>  <CID>
71933

>  <logBB>


>  <BBB+/BBB->
BBB+

>  <Inchi>
InChI=1S/C18H18N4O2/c1-14(12-15-8-4-2-5-9-15)22-13-17(24-21-22)20-18(23)19-16-10-6-3-7-11-16/h2-11-13-14H-12H2-1H3-(H--19-20-21-23)/p+1

>  <threshold>
-1

>  <reference>
R1|R6|R27|R30|

>  <group>
B

>  <Class>
1

>  <ABC>
18.56

>  <ABCGG>
14.62

>  <nAcid>
0

>  <nBase>
1

>  <nAromAtom>
17

>  <nAromBond>
17

>  <nAtom>
43

>  <nHeavyAtom>
24

>  <nSpiro>
0

>  <nBridgehead>
0

>  <nHetero>
6

>  <nN>
4

>  <nO>
2

>  <nF>
0

>  <BalabanJ>
1.34

>  <BertzCT>
787.05

>  <nBonds>
45

>  <nBondsO>
26

>  <nBondsS>
27

>  <nBondsD>
1

>  <nBondsT>
0

>  <nBondsA>
17

>  <nBondsM>
18

>  <nBondsKS>
36

>  <nBondsKD>
9

>  <RNCG>
0.17

>  <RPCG>
0.12

>  <FCSP3>
0.17

>  <SZ>
28.5

>  <Sm>
26.92

>  <Sv>
27.61

>  <Sse>
43.25

>  <Sp>
29.18

>  <Si>
48.53

>  <MZ>
0.66

>  <Mm>
0.63

>  <Mv>
0.64

>  <Mse>
1.01

>  <Mp>
0.68

>  <Mi>
1.13

>  <NsCH3>
1

>  <NdCH2>
0

>  <NssCH2>
1

>  <NtCH>
0

>  <NdsCH>
0

>  <NaaCH>
11

>  <NsssCH>
1

>  <NddC>
0

>  <NtsC>
0

>  <NdssC>
1

>  <NaasC>
3

>  <NaaaC>
0

>  <NssssC>
0

>  <NsNH3>
0

>  <NsNH2>
0

>  <NssNH2>
0

>  <NdNH>
0

>  <NssNH>
2

>  <NaaNH>
0

>  <NtN>
0

>  <NsssNH>
0

>  <NdsN>
0

>  <NaaN>
1

>  <NsssN>
0

>  <NddsN>
0

>  <NaasN>
1

>  <NssssN>
0

>  <NsOH>
0

>  <NdO>
1

>  <NssO>
0

>  <NaaO>
1

>  <NsF>
0

>  <NsSiH3>
0

>  <NssSiH2>
0

>  <NsssSiH>
0

>  <NssssSi>
0

>  <NsPH2>
0

>  <NssPH>
0

>  <NsssP>
0

>  <NdsssP>
0

>  <NsssssP>
0

>  <NsSH>
0

>  <NdS>
0

>  <NssS>
0

>  <NaaS>
0

>  <NdssS>
0

>  <NddssS>
0

>  <NsCl>
0

>  <NsBr>
0

>  <NsI>
0

>  <fragCpx>
124.06

>  <fMF>
0.51

>  <nHBAcc>
3

>  <nHBDon>
2

>  <Kier1>
18.78

>  <Kier2>
9.63

>  <Lipinski>
1

>  <GhoseFilter>
1

>  <FilterItLogS>
-4.28

>  <VMcGowan>
247.01

>  <LabuteASA>
139.63

>  <PEOE_VSA1>
5.32

>  <PEOE_VSA2>
9.84

>  <PEOE_VSA3>
4.79

>  <PEOE_VSA4>
0

>  <PEOE_VSA5>
0

>  <PEOE_VSA6>
48.53

>  <PEOE_VSA7>
22.38

>  <PEOE_VSA8>
19.03

>  <PEOE_VSA9>
0

>  <PEOE_VSA10>
0

>  <PEOE_VSA11>
6.04

>  <PEOE_VSA12>
5.27

>  <PEOE_VSA13>
6.2

>  <SMR_VSA1>
14

>  <SMR_VSA2>
0

>  <SMR_VSA3>
5.27

>  <SMR_VSA4>
0

>  <SMR_VSA5>
19.39

>  <SMR_VSA6>
10.63

>  <SMR_VSA7>
72.42

>  <SMR_VSA8>
0

>  <SMR_VSA9>
0

>  <SlogP_VSA1>
15.32

>  <SlogP_VSA2>
11.3

>  <SlogP_VSA3>
6.42

>  <SlogP_VSA4>
0

>  <SlogP_VSA5>
18.53

>  <SlogP_VSA6>
71.38

>  <SlogP_VSA7>
0

>  <SlogP_VSA8>
0

>  <SlogP_VSA9>
0

>  <SlogP_VSA10>
16.37

>  <SlogP_VSA11>
0

>  <EState_VSA1>
0

>  <EState_VSA2>
12.07

>  <EState_VSA3>
11.57

>  <EState_VSA4>
6.42

>  <EState_VSA5>
5.56

>  <EState_VSA6>
10.88

>  <EState_VSA7>
55.45

>  <EState_VSA8>
28.04

>  <EState_VSA9>
4.52

>  <EState_VSA10>
4.79

>  <VSA_EState1>
6.87

>  <VSA_EState2>
11.93

>  <VSA_EState3>
9.32

>  <VSA_EState4>
1.93

>  <VSA_EState5>
0.29

>  <VSA_EState6>
19.1

>  <VSA_EState7>
2.51

>  <VSA_EState8>
2.04

>  <VSA_EState9>
0

>  <apol>
48.73

>  <bpol>
23.37

>  <nRing>
3

>  <nHRing>
1

>  <naRing>
3

>  <naHRing>
1

>  <nARing 2>
0

>  <nAHRing 2>
0

>  <nFRing>
0

>  <nFHRing>
0

>  <nFaRing>
0

>  <nFaHRing>
0

>  <nFARing 2>
0

>  <nFAHRing 2>
0

>  <nRot>
5

>  <SLogP>
3.41

>  <SMR>
90.64

>  <TopoPSA(NO)>
71.04

>  <TopoPSA>
71.04

>  <JGI1>
0.17

>  <JGI2>
0.05

>  <JGI3>
0.04

>  <JGI4>
0.04

>  <JGI5>
0.02

>  <Diameter>
15

>  <Radius>
8

>  <TMWC10>
122.96

>  <TSRW10>
71.44

>  <MW>
323.15

>  <AMW>
7.52

>  <WPath>
1597

>  <WPol>
30

>  <Zagreb1>
120

>  <Zagreb2>
135

>  <mZagreb2>
5.36

>  <yes>


>  <nAR-cont>
0.336376

>  <nHA-cont>
0.94700071

>  <MWHBN>
0.278142865

>  <MWHBN-cont>
0.900740275

>  <TPSA-cont>
0.504096687

>  <pka_cont>
0.97

>  <yes.1>


>  <BBB_SCORE>
4.127680496

>  <MMFF94 Energy>
-8.4991

$$$$
Compound 972
Actelion Java MolfileCreator 2.0

  0  0  0  0  0  0              0 V3000
M  V30 BEGIN CTAB
M  V30 COUNTS 35 35 0 0 0
M  V30 BEGIN ATOM
M  V30 1 Cl 3.889 -2.2208 3.8095 0
M  V30 2 C 2.6025 -2.1052 2.6728 0
M  V30 3 C 2.617 -2.8981 1.5279 0
M  V30 4 C 1.5523 -1.22 2.9035 0
M  V30 5 C 1.5731 -2.8042 0.6046 0
M  V30 6 C 0.5086 -1.1262 1.9804 0
M  V30 7 C 0.5099 -1.9149 0.8206 0
M  V30 8 C -0.6186 -1.8072 -0.185 0
M  V30 9 C -0.5271 -0.6087 -1.1751 0
M  V30 10 O -0.644 0.5949 -0.3666 0
M  V30 11 C -1.7249 -0.7106 -2.1346 0
M  V30 12 C 0.7975 -0.643 -1.9507 0
M  V30 13 C -0.593 1.8327 -0.9271 0
M  V30 14 O -0.4643 2.0752 -2.1204 0
M  V30 15 C -0.6921 2.9105 0.1657 0 CFG=1
M  V30 16 N -0.5576 4.2623 -0.4256 0
M  V30 17 C -2.0239 2.8196 0.8992 0
M  V30 18 H 3.4356 -3.5897 1.3481 0
M  V30 19 H 1.539 -0.6023 3.7975 0
M  V30 20 H 1.5979 -3.4293 -0.2854 0
M  V30 21 H -0.3077 -0.4329 2.1723 0
M  V30 22 H -0.6787 -2.7494 -0.7464 0
M  V30 23 H -1.5569 -1.7391 0.3837 0
M  V30 24 H -1.7341 -1.6714 -2.6604 0
M  V30 25 H -2.6692 -0.6021 -1.589 0
M  V30 26 H -1.7115 0.0776 -2.8932 0
M  V30 27 H 0.8025 0.0733 -2.7782 0
M  V30 28 H 0.9794 -1.6326 -2.3833 0
M  V30 29 H 1.6427 -0.3749 -1.3078 0
M  V30 30 H 0.1403 2.7635 0.8624 0
M  V30 31 H -1.2851 4.3722 -1.1363 0
M  V30 32 H 0.3112 4.2827 -0.9652 0
M  V30 33 H -2.1247 1.8564 1.4112 0
M  V30 34 H -2.8694 2.9111 0.2076 0
M  V30 35 H -2.113 3.6067 1.6561 0
M  V30 END ATOM
M  V30 BEGIN BOND
M  V30 1 1 1 2
M  V30 2 2 2 3
M  V30 3 1 2 4
M  V30 4 1 3 5
M  V30 5 2 4 6
M  V30 6 2 5 7
M  V30 7 1 7 8
M  V30 8 1 8 9
M  V30 9 1 9 10
M  V30 10 1 9 11
M  V30 11 1 9 12
M  V30 12 1 10 13
M  V30 13 2 13 14
M  V30 14 1 13 15
M  V30 15 1 15 16
M  V30 16 1 15 17
M  V30 17 1 6 7
M  V30 18 1 3 18
M  V30 19 1 4 19
M  V30 20 1 5 20
M  V30 21 1 6 21
M  V30 22 1 8 22
M  V30 23 1 8 23
M  V30 24 1 11 24
M  V30 25 1 11 25
M  V30 26 1 11 26
M  V30 27 1 12 27
M  V30 28 1 12 28
M  V30 29 1 12 29
M  V30 30 1 15 30
M  V30 31 1 16 31
M  V30 32 1 16 32
M  V30 33 1 17 33
M  V30 34 1 17 34
M  V30 35 1 17 35
M  V30 END BOND
M  V30 BEGIN COLLECTION
M  V30 MDLV30/STERAC1 ATOMS=(1 15)
M  V30 END COLLECTION
M  V30 END CTAB
M  END
>  <Column 1>
1160

>  <level_0>
1301

>  <index>
1301

>  <Unnamed: 0>
1301

>  <NO.>
1313

>  <Name>
alaproclate

>  <IUPAC_name>
[1-(4-chlorophenyl)-2-methylpropan-2-yl] 2-aminopropanoate

>  <SMILES>
CC(N)C(=O)OC(C)(C)Cc1ccc(Cl)cc1

>  <CID>
2081

>  <logBB>


>  <BBB+/BBB->
BBB+

>  <Inchi>
InChI=1S/C13H18ClNO2/c1-9(15)12(16)17-13(2-3)8-10-4-6-11(14)7-5-10/h4-7-9H-8-15H2-1-3H3

>  <threshold>
-1

>  <reference>
R1|R19|R6|R27|R27|R30|

>  <group>
B

>  <Class>
1

>  <ABC>
12.74

>  <ABCGG>
11.53

>  <nAcid>
0

>  <nBase>
1

>  <nAromAtom>
6

>  <nAromBond>
6

>  <nAtom>
35

>  <nHeavyAtom>
17

>  <nSpiro>
0

>  <nBridgehead>
0

>  <nHetero>
4

>  <nN>
1

>  <nO>
2

>  <nF>
0

>  <BalabanJ>
2.38

>  <BertzCT>
384.91

>  <nBonds>
35

>  <nBondsO>
17

>  <nBondsS>
28

>  <nBondsD>
1

>  <nBondsT>
0

>  <nBondsA>
6

>  <nBondsM>
7

>  <nBondsKS>
31

>  <nBondsKD>
4

>  <RNCG>
0.32

>  <RPCG>
0.22

>  <FCSP3>
0.46

>  <SZ>
22.67

>  <Sm>
21.29

>  <Sv>
21.15

>  <Sse>
35.08

>  <Sp>
23.11

>  <Si>
39.6

>  <MZ>
0.65

>  <Mm>
0.61

>  <Mv>
0.6

>  <Mse>
1

>  <Mp>
0.66

>  <Mi>
1.13

>  <NsCH3>
3

>  <NdCH2>
0

>  <NssCH2>
1

>  <NtCH>
0

>  <NdsCH>
0

>  <NaaCH>
4

>  <NsssCH>
1

>  <NddC>
0

>  <NtsC>
0

>  <NdssC>
1

>  <NaasC>
2

>  <NaaaC>
0

>  <NssssC>
1

>  <NsNH3>
0

>  <NsNH2>
1

>  <NssNH2>
0

>  <NdNH>
0

>  <NssNH>
0

>  <NaaNH>
0

>  <NtN>
0

>  <NsssNH>
0

>  <NdsN>
0

>  <NaaN>
0

>  <NsssN>
0

>  <NddsN>
0

>  <NaasN>
0

>  <NssssN>
0

>  <NsOH>
0

>  <NdO>
1

>  <NssO>
1

>  <NaaO>
0

>  <NsF>
0

>  <NsSiH3>
0

>  <NssSiH2>
0

>  <NsssSiH>
0

>  <NssssSi>
0

>  <NsPH2>
0

>  <NssPH>
0

>  <NsssP>
0

>  <NdsssP>
0

>  <NsssssP>
0

>  <NsSH>
0

>  <NdS>
0

>  <NssS>
0

>  <NaaS>
0

>  <NdssS>
0

>  <NddssS>
0

>  <NsCl>
1

>  <NsBr>
0

>  <NsI>
0

>  <fragCpx>
17.04

>  <fMF>
0.17

>  <nHBAcc>
3

>  <nHBDon>
1

>  <Kier1>
15.06

>  <Kier2>
6.25

>  <Lipinski>
1

>  <GhoseFilter>
1

>  <FilterItLogS>
-3.41

>  <VMcGowan>
199.93

>  <LabuteASA>
106.9

>  <PEOE_VSA1>
10.47

>  <PEOE_VSA2>
4.79

>  <PEOE_VSA3>
0

>  <PEOE_VSA4>
0

>  <PEOE_VSA5>
0

>  <PEOE_VSA6>
23.73

>  <PEOE_VSA7>
38.47

>  <PEOE_VSA8>
11.44

>  <PEOE_VSA9>
0

>  <PEOE_VSA10>
11.64

>  <PEOE_VSA11>
0

>  <PEOE_VSA12>
0

>  <PEOE_VSA13>
0

>  <SMR_VSA1>
9.53

>  <SMR_VSA2>
0

>  <SMR_VSA3>
0

>  <SMR_VSA4>
5.73

>  <SMR_VSA5>
38.83

>  <SMR_VSA6>
0

>  <SMR_VSA7>
34.85

>  <SMR_VSA8>
0

>  <SMR_VSA9>
0

>  <SlogP_VSA1>
5.73

>  <SlogP_VSA2>
17.61

>  <SlogP_VSA3>
15.95

>  <SlogP_VSA4>
0

>  <SlogP_VSA5>
26.33

>  <SlogP_VSA6>
24.27

>  <SlogP_VSA7>
5.02

>  <SlogP_VSA8>
0

>  <SlogP_VSA9>
0

>  <SlogP_VSA10>
0

>  <SlogP_VSA11>
0

>  <EState_VSA1>
11.64

>  <EState_VSA2>
5.97

>  <EState_VSA3>
11.44

>  <EState_VSA4>
5.56

>  <EState_VSA5>
0

>  <EState_VSA6>
6.92

>  <EState_VSA7>
38.11

>  <EState_VSA8>
0

>  <EState_VSA9>
22.07

>  <EState_VSA10>
4.79

>  <VSA_EState1>
5.34

>  <VSA_EState2>
11.43

>  <VSA_EState3>
0.69

>  <VSA_EState4>
5.96

>  <VSA_EState5>
-0.39

>  <VSA_EState6>
6.88

>  <VSA_EState7>
0.63

>  <VSA_EState8>
5.34

>  <VSA_EState9>
0

>  <apol>
38.6

>  <bpol>
20.6

>  <nRing>
1

>  <nHRing>
0

>  <naRing>
1

>  <naHRing>
0

>  <nARing 2>
0

>  <nAHRing 2>
0

>  <nFRing>
0

>  <nFHRing>
0

>  <nFaRing>
0

>  <nFaHRing>
0

>  <nFARing 2>
0

>  <nFAHRing 2>
0

>  <nRot>
4

>  <SLogP>
2.55

>  <SMR>
68.98

>  <TopoPSA(NO)>
52.32

>  <TopoPSA>
52.32

>  <JGI1>
0.35

>  <JGI2>
0.09

>  <JGI3>
0.07

>  <JGI4>
0.06

>  <JGI5>
0.02

>  <Diameter>
10

>  <Radius>
5

>  <TMWC10>
103.32

>  <TSRW10>
49.17

>  <MW>
255.1

>  <AMW>
7.29

>  <WPath>
562

>  <WPol>
21

>  <Zagreb1>
82

>  <Zagreb2>
89

>  <mZagreb2>
3.69

>  <yes>


>  <nAR-cont>
0.336376

>  <nHA-cont>
0.976740822

>  <MWHBN>
0.250440615

>  <MWHBN-cont>
0.959033074

>  <TPSA-cont>
0.634773911

>  <pka_cont>
0.97

>  <yes.1>


>  <BBB_SCORE>
4.506214255

>  <MMFF94 Energy>
73.589

$$$$
Compound 973
Actelion Java MolfileCreator 2.0

  0  0  0  0  0  0              0 V3000
M  V30 BEGIN CTAB
M  V30 COUNTS 49 51 0 0 0
M  V30 BEGIN ATOM
M  V30 1 O -1.4223 -4.0339 -0.869 0
M  V30 2 C -1.4909 -2.8025 -0.9462 0
M  V30 3 N -0.5113 -2.0611 -1.6356 0
M  V30 4 N -2.5461 -2.0903 -0.3755 0
M  V30 5 C -0.5327 -0.6774 -1.8443 0
M  V30 6 C 0.5871 -2.8069 -2.2143 0
M  V30 7 C -2.5803 -0.7225 -0.5024 0
M  V30 8 C -3.5863 -2.7774 0.3659 0
M  V30 9 O 0.288 -0.0786 -2.5382 0
M  V30 10 C -1.6311 -0.0388 -1.2016 0
M  V30 11 N -3.5281 0.105 0.0216 0
M  V30 12 N -1.9883 1.2758 -1.0821 0
M  V30 13 C -3.1421 1.3114 -0.3404 0
M  V30 14 C -1.2959 2.4345 -1.6114 0
M  V30 15 C -0.2127 2.9794 -0.6659 0
M  V30 16 N 0.8328 1.9943 -0.4265 0
M  V30 17 C 1.7999 2.3247 0.6242 0
M  V30 18 C 2.6071 1.0525 1.0649 0
M  V30 19 C 2.762 3.4228 0.1498 0
M  V30 20 O 3.4301 1.358 2.195 0
M  V30 21 C 1.7878 -0.1687 1.447 0
M  V30 22 C 2.2802 -1.4503 1.1452 0
M  V30 23 C 0.5612 -0.0726 2.1215 0
M  V30 24 C 1.5545 -2.5957 1.4803 0
M  V30 25 C -0.1679 -1.2182 2.4498 0
M  V30 26 C 0.3273 -2.4787 2.1272 0
M  V30 27 H 0.2484 -3.2304 -3.1652 0
M  V30 28 H 0.8878 -3.6276 -1.5559 0
M  V30 29 H 1.4571 -2.1704 -2.3994 0
M  V30 30 H -4.5558 -2.5641 -0.0954 0
M  V30 31 H -3.5849 -2.4167 1.3996 0
M  V30 32 H -3.4347 -3.8598 0.3752 0
M  V30 33 H -3.6514 2.234 -0.0925 0
M  V30 34 H -2.0509 3.2103 -1.7883 0
M  V30 35 H -0.8801 2.1699 -2.5893 0
M  V30 36 H -0.6828 3.2624 0.2837 0
M  V30 37 H 0.2112 3.8846 -1.1133 0
M  V30 38 H 1.2774 1.679 -1.2916 0
M  V30 39 H 1.2727 2.7117 1.5059 0
M  V30 40 H 3.2727 0.7681 0.238 0
M  V30 41 H 2.2263 4.3411 -0.1116 0
M  V30 42 H 3.4764 3.6876 0.9361 0
M  V30 43 H 3.3318 3.1007 -0.7288 0
M  V30 44 H 4.2394 1.7733 1.8571 0
M  V30 45 H 3.2405 -1.5633 0.6476 0
M  V30 46 H 0.1539 0.897 2.3938 0
M  V30 47 H 1.9459 -3.5797 1.2368 0
M  V30 48 H -1.1252 -1.1225 2.9558 0
M  V30 49 H -0.2421 -3.3692 2.3798 0
M  V30 END ATOM
M  V30 BEGIN BOND
M  V30 1 2 1 2
M  V30 2 1 2 3
M  V30 3 1 2 4
M  V30 4 1 3 5
M  V30 5 1 3 6
M  V30 6 1 4 7
M  V30 7 1 4 8
M  V30 8 2 5 9
M  V30 9 1 5 10
M  V30 10 1 7 11
M  V30 11 1 10 12
M  V30 12 2 11 13
M  V30 13 1 12 14
M  V30 14 1 14 15
M  V30 15 1 15 16
M  V30 16 1 16 17
M  V30 17 1 17 18
M  V30 18 1 17 19
M  V30 19 1 18 20
M  V30 20 1 18 21
M  V30 21 2 21 22
M  V30 22 1 21 23
M  V30 23 1 22 24
M  V30 24 2 23 25
M  V30 25 2 24 26
M  V30 26 2 7 10
M  V30 27 1 12 13
M  V30 28 1 25 26
M  V30 29 1 6 27
M  V30 30 1 6 28
M  V30 31 1 6 29
M  V30 32 1 8 30
M  V30 33 1 8 31
M  V30 34 1 8 32
M  V30 35 1 13 33
M  V30 36 1 14 34
M  V30 37 1 14 35
M  V30 38 1 15 36
M  V30 39 1 15 37
M  V30 40 1 16 38
M  V30 41 1 17 39
M  V30 42 1 18 40
M  V30 43 1 19 41
M  V30 44 1 19 42
M  V30 45 1 19 43
M  V30 46 1 20 44
M  V30 47 1 22 45
M  V30 48 1 23 46
M  V30 49 1 24 47
M  V30 50 1 25 48
M  V30 51 1 26 49
M  V30 END BOND
M  V30 END CTAB
M  END
>  <Column 1>
1161

>  <level_0>
1302

>  <index>
1302

>  <Unnamed: 0>
1302

>  <NO.>
1314

>  <Name>
cafedrine

>  <IUPAC_name>
7-[2-[(1-hydroxy-1-phenylpropan-2-yl)amino]ethyl]-1-3-dimethylpurine-2-6-dione

>  <SMILES>
CC(NCCn1cnc2c1c(=O)n(C)c(=O)n2C)C(O)c1ccccc1

>  <CID>
71740

>  <logBB>


>  <BBB+/BBB->
BBB+

>  <Inchi>
InChI=1S/C18H23N5O3/c1-12(15(24)13-7-5-4-6-8-13)19-9-10-23-11-20-16-14(23)17(25)22(3)18(26)21(16)2/h4-8-11-12-15-19-24H-9-10H2-1-3H3

>  <threshold>
-1

>  <reference>
R1|R19|R6|R27|R27|R30|

>  <group>
B

>  <Class>
1

>  <ABC>
20.09

>  <ABCGG>
16.75

>  <nAcid>
0

>  <nBase>
1

>  <nAromAtom>
15

>  <nAromBond>
16

>  <nAtom>
49

>  <nHeavyAtom>
26

>  <nSpiro>
0

>  <nBridgehead>
0

>  <nHetero>
8

>  <nN>
5

>  <nO>
3

>  <nF>
0

>  <BalabanJ>
1.47

>  <BertzCT>
1018.97

>  <nBonds>
51

>  <nBondsO>
28

>  <nBondsS>
33

>  <nBondsD>
2

>  <nBondsT>
0

>  <nBondsA>
16

>  <nBondsM>
18

>  <nBondsKS>
44

>  <nBondsKD>
7

>  <RNCG>
0.15

>  <RPCG>
0.12

>  <FCSP3>
0.39

>  <SZ>
31.67

>  <Sm>
29.76

>  <Sv>
30.17

>  <Sse>
49.52

>  <Sp>
31.92

>  <Si>
55.86

>  <MZ>
0.65

>  <Mm>
0.61

>  <Mv>
0.62

>  <Mse>
1.01

>  <Mp>
0.65

>  <Mi>
1.14

>  <NsCH3>
3

>  <NdCH2>
0

>  <NssCH2>
2

>  <NtCH>
0

>  <NdsCH>
0

>  <NaaCH>
6

>  <NsssCH>
2

>  <NddC>
0

>  <NtsC>
0

>  <NdssC>
0

>  <NaasC>
1

>  <NaaaC>
2

>  <NssssC>
0

>  <NsNH3>
0

>  <NsNH2>
0

>  <NssNH2>
0

>  <NdNH>
0

>  <NssNH>
1

>  <NaaNH>
0

>  <NtN>
0

>  <NsssNH>
0

>  <NdsN>
0

>  <NaaN>
1

>  <NsssN>
0

>  <NddsN>
0

>  <NaasN>
3

>  <NssssN>
0

>  <NsOH>
1

>  <NdO>
2

>  <NssO>
0

>  <NaaO>
0

>  <NsF>
0

>  <NsSiH3>
0

>  <NssSiH2>
0

>  <NsssSiH>
0

>  <NssssSi>
0

>  <NsPH2>
0

>  <NssPH>
0

>  <NsssP>
0

>  <NdsssP>
0

>  <NsssssP>
0

>  <NsSH>
0

>  <NdS>
0

>  <NssS>
0

>  <NaaS>
0

>  <NdssS>
0

>  <NddssS>
0

>  <NsCl>
0

>  <NsBr>
0

>  <NsI>
0

>  <fragCpx>
134.08

>  <fMF>
0.41

>  <nHBAcc>
8

>  <nHBDon>
2

>  <Kier1>
20.73

>  <Kier2>
9

>  <Lipinski>
1

>  <GhoseFilter>
1

>  <FilterItLogS>
-2.61

>  <VMcGowan>
269.31

>  <LabuteASA>
149.89

>  <PEOE_VSA1>
14.99

>  <PEOE_VSA2>
13.93

>  <PEOE_VSA3>
9.78

>  <PEOE_VSA4>
0

>  <PEOE_VSA5>
0

>  <PEOE_VSA6>
30.33

>  <PEOE_VSA7>
12.49

>  <PEOE_VSA8>
33.23

>  <PEOE_VSA9>
12.43

>  <PEOE_VSA10>
0

>  <PEOE_VSA11>
11.16

>  <PEOE_VSA12>
0

>  <PEOE_VSA13>
5.56

>  <SMR_VSA1>
5.11

>  <SMR_VSA2>
0

>  <SMR_VSA3>
24

>  <SMR_VSA4>
14.1

>  <SMR_VSA5>
25.61

>  <SMR_VSA6>
6.54

>  <SMR_VSA7>
63.06

>  <SMR_VSA8>
0

>  <SMR_VSA9>
0

>  <SlogP_VSA1>
16.57

>  <SlogP_VSA2>
36.38

>  <SlogP_VSA3>
20.64

>  <SlogP_VSA4>
0

>  <SlogP_VSA5>
18.59

>  <SlogP_VSA6>
46.25

>  <SlogP_VSA7>
0

>  <SlogP_VSA8>
11.16

>  <SlogP_VSA9>
0

>  <SlogP_VSA10>
0

>  <SlogP_VSA11>
0

>  <EState_VSA1>
11.79

>  <EState_VSA2>
11.6

>  <EState_VSA3>
24.25

>  <EState_VSA4>
10.13

>  <EState_VSA5>
11.61

>  <EState_VSA6>
17.94

>  <EState_VSA7>
37.26

>  <EState_VSA8>
10.3

>  <EState_VSA9>
0

>  <EState_VSA10>
14.7

>  <VSA_EState1>
4.17

>  <VSA_EState2>
28.56

>  <VSA_EState3>
13.66

>  <VSA_EState4>
0.86

>  <VSA_EState5>
0

>  <VSA_EState6>
9.31

>  <VSA_EState7>
0.94

>  <VSA_EState8>
2.95

>  <VSA_EState9>
3.05

>  <apol>
53.3

>  <bpol>
31.65

>  <nRing>
3

>  <nHRing>
2

>  <naRing>
3

>  <naHRing>
2

>  <nARing 2>
0

>  <nAHRing 2>
0

>  <nFRing>
1

>  <nFHRing>
1

>  <nFaRing>
1

>  <nFaHRing>
1

>  <nFARing 2>
0

>  <nFAHRing 2>
0

>  <nRot>
6

>  <SLogP>
0.15

>  <SMR>
99.08

>  <TopoPSA(NO)>
94.08

>  <TopoPSA>
94.08

>  <JGI1>
0.16

>  <JGI2>
0.1

>  <JGI3>
0.06

>  <JGI4>
0.05

>  <JGI5>
0.03

>  <Diameter>
14

>  <Radius>
7

>  <TMWC10>
130.2

>  <TSRW10>
75.12

>  <MW>
357.18

>  <AMW>
7.29

>  <WPath>
1836

>  <WPol>
44

>  <Zagreb1>
136

>  <Zagreb2>
163

>  <mZagreb2>
5.75

>  <yes>


>  <nAR-cont>
0.336376

>  <nHA-cont>
0.892715677

>  <MWHBN>
0.529122749

>  <MWHBN-cont>
0

>  <TPSA-cont>
0.34326318

>  <pka_cont>
0.97

>  <yes.1>


>  <BBB_SCORE>
2.400618037

>  <MMFF94 Energy>
-53.624

$$$$
Compound 974
Actelion Java MolfileCreator 2.0

  0  0  0  0  0  0              0 V3000
M  V30 BEGIN CTAB
M  V30 COUNTS 22 22 0 0 0
M  V30 BEGIN ATOM
M  V30 1 N -1.628 0.4649 -1.5504 0
M  V30 2 N -2.2316 1.5405 -0.7837 0
M  V30 3 C -1.0566 -0.5827 -0.6722 0 CFG=2
M  V30 4 C 0.0947 -0.0825 0.1884 0
M  V30 5 C -0.5919 -1.7568 -1.5406 0
M  V30 6 C 1.1567 0.6515 -0.3647 0
M  V30 7 C 0.1206 -0.3681 1.5627 0
M  V30 8 C 2.211 1.0943 0.4354 0
M  V30 9 C 1.1768 0.0747 2.3617 0
M  V30 10 C 2.2205 0.8058 1.7982 0
M  V30 11 H -2.3133 0.0385 -2.1809 0
M  V30 12 H -2.8315 1.1986 -0.0288 0
M  V30 13 H -1.5036 2.0988 -0.3238 0
M  V30 14 H -1.8589 -0.9567 -0.0216 0
M  V30 15 H -1.4275 -2.1754 -2.1128 0
M  V30 16 H 0.1854 -1.4574 -2.2531 0
M  V30 17 H -0.18 -2.5615 -0.9209 0
M  V30 18 H 1.1577 0.8886 -1.4271 0
M  V30 19 H -0.6822 -0.9405 2.0214 0
M  V30 20 H 3.0233 1.665 -0.0065 0
M  V30 21 H 1.1859 -0.152 3.4245 0
M  V30 22 H 3.042 1.1502 2.4206 0
M  V30 END ATOM
M  V30 BEGIN BOND
M  V30 1 1 1 2
M  V30 2 1 1 3
M  V30 3 1 3 4
M  V30 4 1 3 5
M  V30 5 2 4 6
M  V30 6 1 4 7
M  V30 7 1 6 8
M  V30 8 2 7 9
M  V30 9 2 8 10
M  V30 10 1 9 10
M  V30 11 1 1 11
M  V30 12 1 2 12
M  V30 13 1 2 13
M  V30 14 1 3 14
M  V30 15 1 5 15
M  V30 16 1 5 16
M  V30 17 1 5 17
M  V30 18 1 6 18
M  V30 19 1 7 19
M  V30 20 1 8 20
M  V30 21 1 9 21
M  V30 22 1 10 22
M  V30 END BOND
M  V30 BEGIN COLLECTION
M  V30 MDLV30/STERAC1 ATOMS=(1 3)
M  V30 END COLLECTION
M  V30 END CTAB
M  END
>  <Column 1>
1162

>  <level_0>
1303

>  <index>
1303

>  <Unnamed: 0>
1303

>  <NO.>
1315

>  <Name>
mebanazine

>  <IUPAC_name>
1-phenylethylhydrazine

>  <SMILES>
CC(NN)c1ccccc1

>  <CID>
6179

>  <logBB>


>  <BBB+/BBB->
BBB+

>  <Inchi>
InChI=1S/C8H12N2/c1-7(10-9)8-5-3-2-4-6-8/h2-7-10H-9H2-1H3

>  <threshold>
-1

>  <reference>
R1|R19|R6|R27|R27|R30|

>  <group>
B

>  <Class>
1

>  <ABC>
7.14

>  <ABCGG>
6.87

>  <nAcid>
0

>  <nBase>
0

>  <nAromAtom>
6

>  <nAromBond>
6

>  <nAtom>
22

>  <nHeavyAtom>
10

>  <nSpiro>
0

>  <nBridgehead>
0

>  <nHetero>
2

>  <nN>
2

>  <nO>
0

>  <nF>
0

>  <BalabanJ>
2.24

>  <BertzCT>
183.71

>  <nBonds>
22

>  <nBondsO>
10

>  <nBondsS>
16

>  <nBondsD>
0

>  <nBondsT>
0

>  <nBondsA>
6

>  <nBondsM>
6

>  <nBondsKS>
19

>  <nBondsKD>
3

>  <RNCG>
0.3

>  <RPCG>
0.16

>  <FCSP3>
0.25

>  <SZ>
12.33

>  <Sm>
11.34

>  <Sv>
12.77

>  <Sse>
21.65

>  <Sp>
14.11

>  <Si>
25.07

>  <MZ>
0.56

>  <Mm>
0.52

>  <Mv>
0.58

>  <Mse>
0.98

>  <Mp>
0.64

>  <Mi>
1.14

>  <NsCH3>
1

>  <NdCH2>
0

>  <NssCH2>
0

>  <NtCH>
0

>  <NdsCH>
0

>  <NaaCH>
5

>  <NsssCH>
1

>  <NddC>
0

>  <NtsC>
0

>  <NdssC>
0

>  <NaasC>
1

>  <NaaaC>
0

>  <NssssC>
0

>  <NsNH3>
0

>  <NsNH2>
1

>  <NssNH2>
0

>  <NdNH>
0

>  <NssNH>
1

>  <NaaNH>
0

>  <NtN>
0

>  <NsssNH>
0

>  <NdsN>
0

>  <NaaN>
0

>  <NsssN>
0

>  <NddsN>
0

>  <NaasN>
0

>  <NssssN>
0

>  <NsOH>
0

>  <NdO>
0

>  <NssO>
0

>  <NaaO>
0

>  <NsF>
0

>  <NsSiH3>
0

>  <NssSiH2>
0

>  <NsssSiH>
0

>  <NssssSi>
0

>  <NsPH2>
0

>  <NssPH>
0

>  <NsssP>
0

>  <NdsssP>
0

>  <NsssssP>
0

>  <NsSH>
0

>  <NdS>
0

>  <NssS>
0

>  <NaaS>
0

>  <NdssS>
0

>  <NddssS>
0

>  <NsCl>
0

>  <NsBr>
0

>  <NsI>
0

>  <fragCpx>
10.02

>  <fMF>
0.27

>  <nHBAcc>
2

>  <nHBDon>
2

>  <Kier1>
8.1

>  <Kier2>
4

>  <Lipinski>
1

>  <GhoseFilter>
0

>  <FilterItLogS>
-1.74

>  <VMcGowan>
119.78

>  <LabuteASA>
61.02

>  <PEOE_VSA1>
0

>  <PEOE_VSA2>
11.27

>  <PEOE_VSA3>
0

>  <PEOE_VSA4>
0

>  <PEOE_VSA5>
0

>  <PEOE_VSA6>
30.33

>  <PEOE_VSA7>
12.49

>  <PEOE_VSA8>
6.04

>  <PEOE_VSA9>
0

>  <PEOE_VSA10>
0

>  <PEOE_VSA11>
0

>  <PEOE_VSA12>
0

>  <PEOE_VSA13>
0

>  <SMR_VSA1>
0

>  <SMR_VSA2>
0

>  <SMR_VSA3>
5.43

>  <SMR_VSA4>
5.84

>  <SMR_VSA5>
12.97

>  <SMR_VSA6>
0

>  <SMR_VSA7>
35.9

>  <SMR_VSA8>
0

>  <SMR_VSA9>
0

>  <SlogP_VSA1>
11.27

>  <SlogP_VSA2>
0

>  <SlogP_VSA3>
0

>  <SlogP_VSA4>
0

>  <SlogP_VSA5>
18.53

>  <SlogP_VSA6>
30.33

>  <SlogP_VSA7>
0

>  <SlogP_VSA8>
0

>  <SlogP_VSA9>
0

>  <SlogP_VSA10>
0

>  <SlogP_VSA11>
0

>  <EState_VSA1>
0

>  <EState_VSA2>
6.04

>  <EState_VSA3>
0

>  <EState_VSA4>
0

>  <EState_VSA5>
5.56

>  <EState_VSA6>
0

>  <EState_VSA7>
37.26

>  <EState_VSA8>
5.43

>  <EState_VSA9>
5.84

>  <EState_VSA10>
0

>  <VSA_EState1>
0

>  <VSA_EState2>
0

>  <VSA_EState3>
0

>  <VSA_EState4>
3.89

>  <VSA_EState5>
5.25

>  <VSA_EState6>
10.33

>  <VSA_EState7>
0

>  <VSA_EState8>
2.02

>  <VSA_EState9>
0

>  <apol>
23.56

>  <bpol>
10.9

>  <nRing>
1

>  <nHRing>
0

>  <naRing>
1

>  <naHRing>
0

>  <nARing 2>
0

>  <nAHRing 2>
0

>  <nFRing>
0

>  <nFHRing>
0

>  <nFaRing>
0

>  <nFaHRing>
0

>  <nFARing 2>
0

>  <nFAHRing 2>
0

>  <nRot>
2

>  <SLogP>
1.21

>  <SMR>
42.18

>  <TopoPSA(NO)>
38.05

>  <TopoPSA>
38.05

>  <JGI1>
0.15

>  <JGI2>
0.09

>  <JGI3>
0.04

>  <JGI4>
0.03

>  <JGI5>
0.04

>  <Diameter>
6

>  <Radius>
3

>  <TMWC10>
82.56

>  <TSRW10>
38.79

>  <MW>
136.1

>  <AMW>
6.19

>  <WPath>
121

>  <WPol>
11

>  <Zagreb1>
44

>  <Zagreb2>
48

>  <mZagreb2>
2.44

>  <yes>


>  <nAR-cont>
0.336376

>  <nHA-cont>
0.645914733

>  <MWHBN>
0.342871138

>  <MWHBN-cont>
0.696653304

>  <TPSA-cont>
0.734387372

>  <pka_cont>
0.97

>  <yes.1>


>  <BBB_SCORE>
3.981045434

>  <MMFF94 Energy>
71.748

$$$$
Compound 975
Actelion Java MolfileCreator 2.0

  0  0  0  0  0  0              0 V3000
M  V30 BEGIN CTAB
M  V30 COUNTS 34 35 0 0 0
M  V30 BEGIN ATOM
M  V30 1 O -0.6306 1.7349 -2.4453 0
M  V30 2 C -0.6225 1.5858 -1.2255 0
M  V30 3 N 0.4498 1.0358 -0.5397 0
M  V30 4 C -1.7825 2.0164 -0.3988 0
M  V30 5 N 1.5676 0.5521 -1.2625 0
M  V30 6 C -2.5934 3.0511 -0.8827 0
M  V30 7 C -2.0982 1.4015 0.8206 0
M  V30 8 C 1.4965 -0.9166 -1.4239 0 CFG=2
M  V30 9 C -3.694 3.4858 -0.1423 0
M  V30 10 C -3.2015 1.8398 1.5575 0
M  V30 11 C 1.5313 -1.6458 -0.0873 0
M  V30 12 C 2.6452 -1.3766 -2.326 0
M  V30 13 C -3.9945 2.8827 1.0784 0
M  V30 14 C 2.5674 -1.4323 0.8366 0
M  V30 15 C 0.5077 -2.5465 0.247 0
M  V30 16 C 2.5794 -2.1025 2.061 0
M  V30 17 C 0.5216 -3.2163 1.4722 0
M  V30 18 C 1.5569 -2.9942 2.3781 0
M  V30 19 H 0.4824 0.9904 0.4749 0
M  V30 20 H 1.5099 0.9712 -2.2005 0
M  V30 21 H -2.3668 3.5223 -1.8373 0
M  V30 22 H -1.5187 0.5647 1.2006 0
M  V30 23 H 0.5591 -1.1606 -1.9424 0
M  V30 24 H -4.3177 4.2923 -0.5203 0
M  V30 25 H -3.4491 1.3616 2.5025 0
M  V30 26 H 3.6259 -1.1263 -1.9049 0
M  V30 27 H 2.577 -0.9079 -3.3143 0
M  V30 28 H 2.6153 -2.4625 -2.4711 0
M  V30 29 H -4.8541 3.2202 1.6529 0
M  V30 30 H 3.368 -0.7325 0.6042 0
M  V30 31 H -0.3087 -2.7329 -0.4474 0
M  V30 32 H 3.388 -1.9281 2.7661 0
M  V30 33 H -0.2745 -3.9143 1.7181 0
M  V30 34 H 1.5686 -3.5181 3.3303 0
M  V30 END ATOM
M  V30 BEGIN BOND
M  V30 1 2 1 2
M  V30 2 1 2 3
M  V30 3 1 2 4
M  V30 4 1 3 5
M  V30 5 2 4 6
M  V30 6 1 4 7
M  V30 7 1 5 8
M  V30 8 1 6 9
M  V30 9 2 7 10
M  V30 10 1 8 11
M  V30 11 1 8 12
M  V30 12 2 9 13
M  V30 13 2 11 14
M  V30 14 1 11 15
M  V30 15 1 14 16
M  V30 16 2 15 17
M  V30 17 2 16 18
M  V30 18 1 10 13
M  V30 19 1 17 18
M  V30 20 1 3 19
M  V30 21 1 5 20
M  V30 22 1 6 21
M  V30 23 1 7 22
M  V30 24 1 8 23
M  V30 25 1 9 24
M  V30 26 1 10 25
M  V30 27 1 12 26
M  V30 28 1 12 27
M  V30 29 1 12 28
M  V30 30 1 13 29
M  V30 31 1 14 30
M  V30 32 1 15 31
M  V30 33 1 16 32
M  V30 34 1 17 33
M  V30 35 1 18 34
M  V30 END BOND
M  V30 BEGIN COLLECTION
M  V30 MDLV30/STERAC1 ATOMS=(1 8)
M  V30 END COLLECTION
M  V30 END CTAB
M  END
>  <Column 1>
1163

>  <level_0>
1304

>  <index>
1304

>  <Unnamed: 0>
1304

>  <NO.>
1316

>  <Name>
benmoxin

>  <IUPAC_name>
n'-(1-phenylethyl)benzohydrazide

>  <SMILES>
CC(NNC(=O)c1ccccc1)c1ccccc1

>  <CID>
71671

>  <logBB>


>  <BBB+/BBB->
BBB+

>  <Inchi>
InChI=1S/C15H16N2O/c1-12(13-8-4-2-5-9-13)16-17-15(18)14-10-6-3-7-11-14/h2-12-16H-1H3-(H-17-18)

>  <threshold>
-1

>  <reference>
R1|R19|R6|R27|R27|R30|

>  <group>
B

>  <Class>
1

>  <ABC>
13.57

>  <ABCGG>
11.38

>  <nAcid>
0

>  <nBase>
0

>  <nAromAtom>
12

>  <nAromBond>
12

>  <nAtom>
34

>  <nHeavyAtom>
18

>  <nSpiro>
0

>  <nBridgehead>
0

>  <nHetero>
3

>  <nN>
2

>  <nO>
1

>  <nF>
0

>  <BalabanJ>
1.66

>  <BertzCT>
496.42

>  <nBonds>
35

>  <nBondsO>
19

>  <nBondsS>
22

>  <nBondsD>
1

>  <nBondsT>
0

>  <nBondsA>
12

>  <nBondsM>
13

>  <nBondsKS>
28

>  <nBondsKD>
7

>  <RNCG>
0.2

>  <RPCG>
0.18

>  <FCSP3>
0.13

>  <SZ>
21.33

>  <Sm>
20.01

>  <Sv>
21.57

>  <Sse>
33.76

>  <Sp>
23.19

>  <Si>
38.11

>  <MZ>
0.63

>  <Mm>
0.59

>  <Mv>
0.63

>  <Mse>
0.99

>  <Mp>
0.68

>  <Mi>
1.12

>  <NsCH3>
1

>  <NdCH2>
0

>  <NssCH2>
0

>  <NtCH>
0

>  <NdsCH>
0

>  <NaaCH>
10

>  <NsssCH>
1

>  <NddC>
0

>  <NtsC>
0

>  <NdssC>
1

>  <NaasC>
2

>  <NaaaC>
0

>  <NssssC>
0

>  <NsNH3>
0

>  <NsNH2>
0

>  <NssNH2>
0

>  <NdNH>
0

>  <NssNH>
2

>  <NaaNH>
0

>  <NtN>
0

>  <NsssNH>
0

>  <NdsN>
0

>  <NaaN>
0

>  <NsssN>
0

>  <NddsN>
0

>  <NaasN>
0

>  <NssssN>
0

>  <NsOH>
0

>  <NdO>
1

>  <NssO>
0

>  <NaaO>
0

>  <NsF>
0

>  <NsSiH3>
0

>  <NssSiH2>
0

>  <NsssSiH>
0

>  <NssssSi>
0

>  <NsPH2>
0

>  <NssPH>
0

>  <NsssP>
0

>  <NdsssP>
0

>  <NsssssP>
0

>  <NsSH>
0

>  <NdS>
0

>  <NssS>
0

>  <NaaS>
0

>  <NdssS>
0

>  <NddssS>
0

>  <NsCl>
0

>  <NsBr>
0

>  <NsI>
0

>  <fragCpx>
55.03

>  <fMF>
0.47

>  <nHBAcc>
2

>  <nHBDon>
2

>  <Kier1>
14.41

>  <Kier2>
7.56

>  <Lipinski>
1

>  <GhoseFilter>
1

>  <FilterItLogS>
-3.9

>  <VMcGowan>
196.22

>  <LabuteASA>
106.81

>  <PEOE_VSA1>
0

>  <PEOE_VSA2>
10.22

>  <PEOE_VSA3>
5.43

>  <PEOE_VSA4>
0

>  <PEOE_VSA5>
0

>  <PEOE_VSA6>
48.53

>  <PEOE_VSA7>
24.62

>  <PEOE_VSA8>
11.61

>  <PEOE_VSA9>
0

>  <PEOE_VSA10>
0

>  <PEOE_VSA11>
0

>  <PEOE_VSA12>
0

>  <PEOE_VSA13>
5.91

>  <SMR_VSA1>
4.79

>  <SMR_VSA2>
0

>  <SMR_VSA3>
10.85

>  <SMR_VSA4>
0

>  <SMR_VSA5>
12.97

>  <SMR_VSA6>
0

>  <SMR_VSA7>
71.79

>  <SMR_VSA8>
0

>  <SMR_VSA9>
0

>  <SlogP_VSA1>
10.85

>  <SlogP_VSA2>
5.91

>  <SlogP_VSA3>
0

>  <SlogP_VSA4>
0

>  <SlogP_VSA5>
28.89

>  <SlogP_VSA6>
60.66

>  <SlogP_VSA7>
0

>  <SlogP_VSA8>
0

>  <SlogP_VSA9>
0

>  <SlogP_VSA10>
0

>  <SlogP_VSA11>
0

>  <EState_VSA1>
0

>  <EState_VSA2>
11.95

>  <EState_VSA3>
5.56

>  <EState_VSA4>
5.56

>  <EState_VSA5>
0

>  <EState_VSA6>
12.13

>  <EState_VSA7>
55.45

>  <EState_VSA8>
10.85

>  <EState_VSA9>
0

>  <EState_VSA10>
4.79

>  <VSA_EState1>
0

>  <VSA_EState2>
11.81

>  <VSA_EState3>
0

>  <VSA_EState4>
7.48

>  <VSA_EState5>
-0.13

>  <VSA_EState6>
19.17

>  <VSA_EState7>
0

>  <VSA_EState8>
2

>  <VSA_EState9>
0

>  <apol>
38.72

>  <bpol>
16.92

>  <nRing>
2

>  <nHRing>
0

>  <naRing>
2

>  <naHRing>
0

>  <nARing 2>
0

>  <nAHRing 2>
0

>  <nFRing>
0

>  <nFHRing>
0

>  <nFaRing>
0

>  <nFaHRing>
0

>  <nFARing 2>
0

>  <nFAHRing 2>
0

>  <nRot>
4

>  <SLogP>
2.68

>  <SMR>
71.9

>  <TopoPSA(NO)>
41.13

>  <TopoPSA>
41.13

>  <JGI1>
0.13

>  <JGI2>
0.08

>  <JGI3>
0.04

>  <JGI4>
0.02

>  <JGI5>
0.03

>  <Diameter>
11

>  <Radius>
6

>  <TMWC10>
106.36

>  <TSRW10>
50.23

>  <MW>
240.13

>  <AMW>
7.06

>  <WPath>
689

>  <WPol>
23

>  <Zagreb1>
86

>  <Zagreb2>
96

>  <mZagreb2>
4.14

>  <yes>


>  <nAR-cont>
0.336376

>  <nHA-cont>
0.991161285

>  <MWHBN>
0.258128989

>  <MWHBN-cont>
0.945082999

>  <TPSA-cont>
0.71288706

>  <pka_cont>
0.97

>  <yes.1>


>  <BBB_SCORE>
4.655935903

>  <MMFF94 Energy>
88.806

$$$$
Compound 976
Actelion Java MolfileCreator 2.0

  0  0  0  0  0  0              0 V3000
M  V30 BEGIN CTAB
M  V30 COUNTS 30 29 0 0 0
M  V30 BEGIN ATOM
M  V30 1 O -0.1534 3.3043 -1.4589 0
M  V30 2 C 0.9758 2.8511 -1.3756 0
M  V30 3 O 1.3207 1.5961 -1.014 0
M  V30 4 N 2.0875 3.5696 -1.6451 0
M  V30 5 C 0.2334 0.6962 -0.6941 0
M  V30 6 C 0.7637 -0.3309 0.345 0
M  V30 7 C -0.2732 0.0662 -1.9911 0
M  V30 8 C -0.3566 -1.2622 0.8724 0
M  V30 9 C 1.9623 -1.1291 -0.1886 0
M  V30 10 O -1.4396 -0.4308 1.342 0
M  V30 11 C 0.1045 -2.1337 2.0417 0
M  V30 12 C -2.6797 -0.9623 1.2648 0
M  V30 13 O -2.9709 -2.0741 0.8571 0
M  V30 14 N -3.5881 -0.067 1.7084 0
M  V30 15 H 1.9916 4.5314 -1.9323 0
M  V30 16 H 2.9955 3.1411 -1.561 0
M  V30 17 H -0.579 1.2695 -0.2309 0
M  V30 18 H 1.1359 0.2667 1.1901 0
M  V30 19 H -0.6407 0.8397 -2.6743 0
M  V30 20 H -1.0921 -0.6351 -1.8116 0
M  V30 21 H 0.53 -0.4521 -2.5243 0
M  V30 22 H -0.6991 -1.9109 0.0569 0
M  V30 23 H 1.6535 -1.8568 -0.9458 0
M  V30 24 H 2.7166 -0.473 -0.6345 0
M  V30 25 H 2.4601 -1.6765 0.6179 0
M  V30 26 H 0.5003 -1.516 2.8555 0
M  V30 27 H -0.7346 -2.6996 2.4602 0
M  V30 28 H 0.8718 -2.8506 1.7378 0
M  V30 29 H -4.5652 -0.3164 1.7062 0
M  V30 30 H -3.2879 0.843 2.0211 0
M  V30 END ATOM
M  V30 BEGIN BOND
M  V30 1 2 1 2
M  V30 2 1 2 3
M  V30 3 1 2 4
M  V30 4 1 3 5
M  V30 5 1 5 6
M  V30 6 1 5 7
M  V30 7 1 6 8
M  V30 8 1 6 9
M  V30 9 1 8 10
M  V30 10 1 8 11
M  V30 11 1 10 12
M  V30 12 2 12 13
M  V30 13 1 12 14
M  V30 14 1 4 15
M  V30 15 1 4 16
M  V30 16 1 5 17
M  V30 17 1 6 18
M  V30 18 1 7 19
M  V30 19 1 7 20
M  V30 20 1 7 21
M  V30 21 1 8 22
M  V30 22 1 9 23
M  V30 23 1 9 24
M  V30 24 1 9 25
M  V30 25 1 11 26
M  V30 26 1 11 27
M  V30 27 1 11 28
M  V30 28 1 14 29
M  V30 29 1 14 30
M  V30 END BOND
M  V30 END CTAB
M  END
>  <Column 1>
1165

>  <level_0>
1306

>  <index>
1306

>  <Unnamed: 0>
1306

>  <NO.>
1318

>  <Name>
pentabamate

>  <IUPAC_name>
(4-carbamoyloxy-3-methylpentan-2-yl) carbamate

>  <SMILES>
CC(OC(N)=O)C(C)C(C)OC(N)=O

>  <CID>
3047822

>  <logBB>


>  <BBB+/BBB->
BBB+

>  <Inchi>
InChI=1S/C8H16N2O4/c1-4(5(2)13-7(9)11)6(3)14-8(10)12/h4-6H-1-3H3-(H2-9-11)(H2-10-12)

>  <threshold>
-1

>  <reference>
R1|R19|R6|R27|R27|R30|

>  <group>
B

>  <Class>
1

>  <ABC>
9.88

>  <ABCGG>
10.03

>  <nAcid>
0

>  <nBase>
0

>  <nAromAtom>
0

>  <nAromBond>
0

>  <nAtom>
30

>  <nHeavyAtom>
14

>  <nSpiro>
0

>  <nBridgehead>
0

>  <nHetero>
6

>  <nN>
2

>  <nO>
4

>  <nF>
0

>  <BalabanJ>
3.96

>  <BertzCT>
197.39

>  <nBonds>
29

>  <nBondsO>
13

>  <nBondsS>
27

>  <nBondsD>
2

>  <nBondsT>
0

>  <nBondsA>
0

>  <nBondsM>
2

>  <nBondsKS>
27

>  <nBondsKD>
2

>  <RNCG>
0.21

>  <RPCG>
0.19

>  <FCSP3>
0.75

>  <SZ>
18.33

>  <Sm>
17

>  <Sv>
16.71

>  <Sse>
30.75

>  <Sp>
17.63

>  <Si>
34.74

>  <MZ>
0.61

>  <Mm>
0.57

>  <Mv>
0.56

>  <Mse>
1.03

>  <Mp>
0.59

>  <Mi>
1.16

>  <NsCH3>
3

>  <NdCH2>
0

>  <NssCH2>
0

>  <NtCH>
0

>  <NdsCH>
0

>  <NaaCH>
0

>  <NsssCH>
3

>  <NddC>
0

>  <NtsC>
0

>  <NdssC>
2

>  <NaasC>
0

>  <NaaaC>
0

>  <NssssC>
0

>  <NsNH3>
0

>  <NsNH2>
2

>  <NssNH2>
0

>  <NdNH>
0

>  <NssNH>
0

>  <NaaNH>
0

>  <NtN>
0

>  <NsssNH>
0

>  <NdsN>
0

>  <NaaN>
0

>  <NsssN>
0

>  <NddsN>
0

>  <NaasN>
0

>  <NssssN>
0

>  <NsOH>
0

>  <NdO>
2

>  <NssO>
2

>  <NaaO>
0

>  <NsF>
0

>  <NsSiH3>
0

>  <NssSiH2>
0

>  <NsssSiH>
0

>  <NssssSi>
0

>  <NsPH2>
0

>  <NssPH>
0

>  <NsssP>
0

>  <NdsssP>
0

>  <NsssssP>
0

>  <NsSH>
0

>  <NdS>
0

>  <NssS>
0

>  <NaaS>
0

>  <NdssS>
0

>  <NddssS>
0

>  <NsCl>
0

>  <NsBr>
0

>  <NsI>
0

>  <fragCpx>
13.06

>  <fMF>
0

>  <nHBAcc>
4

>  <nHBDon>
2

>  <Kier1>
14

>  <Kier2>
6.48

>  <Lipinski>
1

>  <GhoseFilter>
1

>  <FilterItLogS>
0.15

>  <VMcGowan>
158.42

>  <LabuteASA>
82.52

>  <PEOE_VSA1>
20.94

>  <PEOE_VSA2>
0

>  <PEOE_VSA3>
9.59

>  <PEOE_VSA4>
0

>  <PEOE_VSA5>
0

>  <PEOE_VSA6>
6.92

>  <PEOE_VSA7>
13.85

>  <PEOE_VSA8>
5.92

>  <PEOE_VSA9>
0

>  <PEOE_VSA10>
12.21

>  <PEOE_VSA11>
0

>  <PEOE_VSA12>
0

>  <PEOE_VSA13>
0

>  <SMR_VSA1>
19.06

>  <SMR_VSA2>
0

>  <SMR_VSA3>
0

>  <SMR_VSA4>
17.39

>  <SMR_VSA5>
32.98

>  <SMR_VSA6>
0

>  <SMR_VSA7>
0

>  <SMR_VSA8>
0

>  <SMR_VSA9>
0

>  <SlogP_VSA1>
11.47

>  <SlogP_VSA2>
24.39

>  <SlogP_VSA3>
9.47

>  <SlogP_VSA4>
5.92

>  <SlogP_VSA5>
20.77

>  <SlogP_VSA6>
0

>  <SlogP_VSA7>
0

>  <SlogP_VSA8>
0

>  <SlogP_VSA9>
0

>  <SlogP_VSA10>
9.59

>  <SlogP_VSA11>
0

>  <EState_VSA1>
24.39

>  <EState_VSA2>
5.92

>  <EState_VSA3>
0

>  <EState_VSA4>
0

>  <EState_VSA5>
0

>  <EState_VSA6>
20.77

>  <EState_VSA7>
0

>  <EState_VSA8>
0

>  <EState_VSA9>
20.94

>  <EState_VSA10>
9.59

>  <VSA_EState1>
9.44

>  <VSA_EState2>
20.85

>  <VSA_EState3>
0

>  <VSA_EState4>
9.68

>  <VSA_EState5>
-0.17

>  <VSA_EState6>
0

>  <VSA_EState7>
-2.56

>  <VSA_EState8>
5.09

>  <VSA_EState9>
0

>  <apol>
29.44

>  <bpol>
20.12

>  <nRing>
0

>  <nHRing>
0

>  <naRing>
0

>  <naHRing>
0

>  <nARing 2>
0

>  <nAHRing 2>
0

>  <nFRing>
0

>  <nFHRing>
0

>  <nFaRing>
0

>  <nFaHRing>
0

>  <nFARing 2>
0

>  <nFAHRing 2>
0

>  <nRot>
4

>  <SLogP>
0.59

>  <SMR>
49.42

>  <TopoPSA(NO)>
104.64

>  <TopoPSA>
104.64

>  <JGI1>
0.35

>  <JGI2>
0.1

>  <JGI3>
0.08

>  <JGI4>
0.04

>  <JGI5>
0.03

>  <Diameter>
8

>  <Radius>
4

>  <TMWC10>
92.26

>  <TSRW10>
44.2

>  <MW>
204.11

>  <AMW>
6.8

>  <WPath>
333

>  <WPol>
16

>  <Zagreb1>
60

>  <Zagreb2>
63

>  <mZagreb2>
3.22

>  <yes>


>  <nAR-cont>
0.336376

>  <nHA-cont>
0.887625254

>  <MWHBN>
0.419970813

>  <MWHBN-cont>
0.39807619

>  <TPSA-cont>
0.269547822

>  <pka_cont>
0.97

>  <yes.1>


>  <BBB_SCORE>
2.845211184

>  <MMFF94 Energy>
-135.43

$$$$
Compound 977
Actelion Java MolfileCreator 2.0

  0  0  0  0  0  0              0 V3000
M  V30 BEGIN CTAB
M  V30 COUNTS 31 32 0 0 0
M  V30 BEGIN ATOM
M  V30 1 O 0.3153 -0.473 0.9462 0
M  V30 2 C -0.3621 -0.1604 -0.2085 0
M  V30 3 C -0.0693 0.1592 2.1661 0 CFG=2
M  V30 4 C -0.0717 -0.9737 -1.3353 0
M  V30 5 C -1.2688 0.8982 -0.3261 0
M  V30 6 C 0.5548 1.5619 2.3236 0
M  V30 7 C 0.4487 -0.7199 3.3016 0
M  V30 8 C -0.7175 -0.7032 -2.5669 0
M  V30 9 C 0.8378 -2.0537 -1.2891 0
M  V30 10 C -1.8993 1.1541 -1.5425 0
M  V30 11 N -0.059 2.4157 3.0919 0
M  V30 12 N 1.7198 1.8321 1.66 0
M  V30 13 C -1.6271 0.3594 -2.6532 0
M  V30 14 C -0.4421 -1.4994 -3.6914 0
M  V30 15 C 1.1019 -2.8364 -2.4149 0
M  V30 16 O 0.6347 3.6371 3.1294 0
M  V30 17 C 0.4617 -2.5586 -3.616 0
M  V30 18 H -1.1607 0.2163 2.2612 0
M  V30 19 H -1.5021 1.5553 0.5055 0
M  V30 20 H 0.1918 -0.3031 4.2807 0
M  V30 21 H 0.0272 -1.7282 3.2275 0
M  V30 22 H 1.5384 -0.8266 3.251 0
M  V30 23 H 1.3492 -2.2946 -0.359 0
M  V30 24 H -2.6021 1.9795 -1.6252 0
M  V30 25 H 2.1051 2.763 1.747 0
M  V30 26 H 2.107 1.1764 0.9936 0
M  V30 27 H -2.1309 0.5795 -3.592 0
M  V30 28 H -0.9339 -1.2986 -4.6408 0
M  V30 29 H 1.8056 -3.6617 -2.3484 0
M  V30 30 H 0.0898 4.1631 3.7437 0
M  V30 31 H 0.6631 -3.1655 -4.4946 0
M  V30 END ATOM
M  V30 BEGIN BOND
M  V30 1 1 1 2
M  V30 2 1 1 3
M  V30 3 1 2 4
M  V30 4 2 2 5
M  V30 5 1 3 6
M  V30 6 1 3 7
M  V30 7 1 4 8
M  V30 8 2 4 9
M  V30 9 1 5 10
M  V30 10 2 6 11
M  V30 11 1 6 12
M  V30 12 1 8 13
M  V30 13 2 8 14
M  V30 14 1 9 15
M  V30 15 1 11 16
M  V30 16 1 14 17
M  V30 17 2 10 13
M  V30 18 2 15 17
M  V30 19 1 3 18
M  V30 20 1 5 19
M  V30 21 1 7 20
M  V30 22 1 7 21
M  V30 23 1 7 22
M  V30 24 1 9 23
M  V30 25 1 10 24
M  V30 26 1 12 25
M  V30 27 1 12 26
M  V30 28 1 13 27
M  V30 29 1 14 28
M  V30 30 1 15 29
M  V30 31 1 16 30
M  V30 32 1 17 31
M  V30 END BOND
M  V30 BEGIN COLLECTION
M  V30 MDLV30/STERAC1 ATOMS=(1 3)
M  V30 END COLLECTION
M  V30 END CTAB
M  END
>  <Column 1>
1166

>  <level_0>
1307

>  <index>
1307

>  <Unnamed: 0>
1307

>  <NO.>
1319

>  <Name>
schembl11806329

>  <IUPAC_name>
n'-hydroxy-2-naphthalen-1-yloxypropanimidamide

>  <SMILES>
CC(Oc1cccc2ccccc12)C(N)=NO

>  <CID>
5746201

>  <logBB>


>  <BBB+/BBB->
BBB+

>  <Inchi>
InChI=1S/C13H14N2O2/c1-9(13(14)15-16)17-12-8-4-6-10-5-2-3-7-11(10)12/h2-9-16H-1H3-(H2-14-15)

>  <threshold>
-1

>  <reference>
R1|R19|R6|R27|R27|R30|

>  <group>
B

>  <Class>
-1

>  <ABC>
12.83

>  <ABCGG>
11.1

>  <nAcid>
0

>  <nBase>
2

>  <nAromAtom>
10

>  <nAromBond>
11

>  <nAtom>
31

>  <nHeavyAtom>
17

>  <nSpiro>
0

>  <nBridgehead>
0

>  <nHetero>
4

>  <nN>
2

>  <nO>
2

>  <nF>
0

>  <BalabanJ>
1.9

>  <BertzCT>
546.62

>  <nBonds>
32

>  <nBondsO>
18

>  <nBondsS>
20

>  <nBondsD>
1

>  <nBondsT>
0

>  <nBondsA>
11

>  <nBondsM>
12

>  <nBondsKS>
26

>  <nBondsKD>
6

>  <RNCG>
0.28

>  <RPCG>
0.19

>  <FCSP3>
0.15

>  <SZ>
20.33

>  <Sm>
19.17

>  <Sv>
19.74

>  <Sse>
31.2

>  <Sp>
20.87

>  <Si>
34.91

>  <MZ>
0.66

>  <Mm>
0.62

>  <Mv>
0.64

>  <Mse>
1.01

>  <Mp>
0.67

>  <Mi>
1.13

>  <NsCH3>
1

>  <NdCH2>
0

>  <NssCH2>
0

>  <NtCH>
0

>  <NdsCH>
0

>  <NaaCH>
7

>  <NsssCH>
1

>  <NddC>
0

>  <NtsC>
0

>  <NdssC>
1

>  <NaasC>
1

>  <NaaaC>
2

>  <NssssC>
0

>  <NsNH3>
0

>  <NsNH2>
1

>  <NssNH2>
0

>  <NdNH>
0

>  <NssNH>
0

>  <NaaNH>
0

>  <NtN>
0

>  <NsssNH>
0

>  <NdsN>
1

>  <NaaN>
0

>  <NsssN>
0

>  <NddsN>
0

>  <NaasN>
0

>  <NssssN>
0

>  <NsOH>
1

>  <NdO>
0

>  <NssO>
1

>  <NaaO>
0

>  <NsF>
0

>  <NsSiH3>
0

>  <NssSiH2>
0

>  <NsssSiH>
0

>  <NssssSi>
0

>  <NsPH2>
0

>  <NssPH>
0

>  <NsssP>
0

>  <NdsssP>
0

>  <NsssssP>
0

>  <NsSH>
0

>  <NdS>
0

>  <NssS>
0

>  <NaaS>
0

>  <NdssS>
0

>  <NddssS>
0

>  <NsCl>
0

>  <NsBr>
0

>  <NsI>
0

>  <fragCpx>
52.04

>  <fMF>
0.32

>  <nHBAcc>
3

>  <nHBDon>
2

>  <Kier1>
13.43

>  <Kier2>
6.25

>  <Lipinski>
1

>  <GhoseFilter>
1

>  <FilterItLogS>
-2.36

>  <VMcGowan>
178.21

>  <LabuteASA>
99.3

>  <PEOE_VSA1>
15.68

>  <PEOE_VSA2>
0

>  <PEOE_VSA3>
0

>  <PEOE_VSA4>
0

>  <PEOE_VSA5>
0

>  <PEOE_VSA6>
41.55

>  <PEOE_VSA7>
18.38

>  <PEOE_VSA8>
5.39

>  <PEOE_VSA9>
0

>  <PEOE_VSA10>
5.75

>  <PEOE_VSA11>
11.94

>  <PEOE_VSA12>
0

>  <PEOE_VSA13>
0

>  <SMR_VSA1>
9.94

>  <SMR_VSA2>
0

>  <SMR_VSA3>
0

>  <SMR_VSA4>
10.89

>  <SMR_VSA5>
13.03

>  <SMR_VSA6>
0

>  <SMR_VSA7>
42.46

>  <SMR_VSA8>
0

>  <SMR_VSA9>
5.75

>  <SlogP_VSA1>
10.47

>  <SlogP_VSA2>
17.15

>  <SlogP_VSA3>
0

>  <SlogP_VSA4>
0

>  <SlogP_VSA5>
6.92

>  <SlogP_VSA6>
47.62

>  <SlogP_VSA7>
0

>  <SlogP_VSA8>
10.77

>  <SlogP_VSA9>
0

>  <SlogP_VSA10>
0

>  <SlogP_VSA11>
5.75

>  <EState_VSA1>
6.1

>  <EState_VSA2>
5.84

>  <EState_VSA3>
0

>  <EState_VSA4>
16.52

>  <EState_VSA5>
0

>  <EState_VSA6>
6.92

>  <EState_VSA7>
42.46

>  <EState_VSA8>
5.16

>  <EState_VSA9>
15.68

>  <EState_VSA10>
0

>  <VSA_EState1>
5.66

>  <VSA_EState2>
0

>  <VSA_EState3>
13.61

>  <VSA_EState4>
5.48

>  <VSA_EState5>
0.78

>  <VSA_EState6>
13.69

>  <VSA_EState7>
-0.47

>  <VSA_EState8>
1.73

>  <VSA_EState9>
0

>  <apol>
34.85

>  <bpol>
15.21

>  <nRing>
2

>  <nHRing>
0

>  <naRing>
2

>  <naHRing>
0

>  <nARing 2>
0

>  <nAHRing 2>
0

>  <nFRing>
1

>  <nFHRing>
0

>  <nFaRing>
1

>  <nFaHRing>
0

>  <nFARing 2>
0

>  <nFAHRing 2>
0

>  <nRot>
3

>  <SLogP>
2.35

>  <SMR>
67.45

>  <TopoPSA(NO)>
67.84

>  <TopoPSA>
67.84

>  <JGI1>
0.17

>  <JGI2>
0.09

>  <JGI3>
0.04

>  <JGI4>
0.04

>  <JGI5>
0.03

>  <Diameter>
9

>  <Radius>
5

>  <TMWC10>
105.61

>  <TSRW10>
49.5

>  <MW>
230.11

>  <AMW>
7.42

>  <WPath>
522

>  <WPol>
25

>  <Zagreb1>
84

>  <Zagreb2>
97

>  <mZagreb2>
3.92

>  <yes>


>  <nAR-cont>
0.336376

>  <nHA-cont>
0.976740822

>  <MWHBN>
0.329611426

>  <MWHBN-cont>
0.744205142

>  <TPSA-cont>
0.526434674

>  <pka_cont>
0.97

>  <yes.1>


>  <BBB_SCORE>
3.967293883

>  <MMFF94 Energy>
58.918

$$$$
Compound 978
Actelion Java MolfileCreator 2.0

  0  0  0  0  0  0              0 V3000
M  V30 BEGIN CTAB
M  V30 COUNTS 45 47 0 0 0
M  V30 BEGIN ATOM
M  V30 1 S -2.1917 0.0 -1.4607 0
M  V30 2 C -2.0827 -1.7449 -2.1034 0
M  V30 3 C -0.8875 0.6591 -2.5852 0
M  V30 4 C -1.2065 -1.7006 -3.3754 0
M  V30 5 C -1.4075 -2.5875 -1.0076 0
M  V30 6 C -3.506 -2.27 -2.3209 0
M  V30 7 N -0.3562 -0.5356 -3.2386 0
M  V30 8 C 0.5349 0.8875 -1.9976 0
M  V30 9 C -1.9956 -1.5613 -4.673 0
M  V30 10 C 0.8465 -0.5018 -2.614 0
M  V30 11 N 0.664 0.9819 -0.5252 0
M  V30 12 O -2.4014 -0.5322 -5.1895 0
M  V30 13 O -2.2701 -2.7547 -5.2423 0
M  V30 14 O 1.709 -1.3416 -2.5106 0
M  V30 15 C 0.2912 2.1124 0.166 0
M  V30 16 O -0.1494 3.1118 -0.398 0
M  V30 17 C 0.3995 1.9996 1.6932 0
M  V30 18 O 1.3838 1.0067 2.0005 0
M  V30 19 C -0.958 1.5706 2.2372 0
M  V30 20 C 2.0801 1.105 3.1715 0
M  V30 21 C 1.833 2.0019 4.2107 0
M  V30 22 C 3.125 0.1851 3.3005 0
M  V30 23 C 2.6298 1.9828 5.3604 0
M  V30 24 C 3.921 0.1653 4.4469 0
M  V30 25 C 3.6732 1.0668 5.4781 0
M  V30 26 H -1.2308 1.4212 -3.2905 0
M  V30 27 H -0.5652 -2.5866 -3.4578 0
M  V30 28 H -0.4049 -2.2255 -0.7571 0
M  V30 29 H -1.3039 -3.6286 -1.3351 0
M  V30 30 H -1.9966 -2.597 -0.0827 0
M  V30 31 H -3.4852 -3.289 -2.7236 0
M  V30 32 H -4.0688 -2.3083 -1.3802 0
M  V30 33 H -4.0797 -1.6473 -3.0163 0
M  V30 34 H 1.0989 1.6868 -2.4945 0
M  V30 35 H 1.0612 0.2202 0.0191 0
M  V30 36 H -2.7647 -2.5221 -6.0576 0
M  V30 37 H 0.6965 2.9936 2.0471 0
M  V30 38 H -1.744 2.2734 1.9426 0
M  V30 39 H -1.2326 0.577 1.865 0
M  V30 40 H -0.9461 1.5032 3.3291 0
M  V30 41 H 1.0263 2.7256 4.1709 0
M  V30 42 H 3.3252 -0.5222 2.4995 0
M  V30 43 H 2.4328 2.6846 6.1672 0
M  V30 44 H 4.732 -0.5528 4.5327 0
M  V30 45 H 4.2902 1.055 6.3727 0
M  V30 END ATOM
M  V30 BEGIN BOND
M  V30 1 1 1 2
M  V30 2 1 1 3
M  V30 3 1 2 4
M  V30 4 1 2 5
M  V30 5 1 2 6
M  V30 6 1 3 7
M  V30 7 1 3 8
M  V30 8 1 4 9
M  V30 9 1 7 10
M  V30 10 1 8 11
M  V30 11 2 9 12
M  V30 12 1 9 13
M  V30 13 2 10 14
M  V30 14 1 11 15
M  V30 15 2 15 16
M  V30 16 1 15 17
M  V30 17 1 17 18
M  V30 18 1 17 19
M  V30 19 1 18 20
M  V30 20 2 20 21
M  V30 21 1 20 22
M  V30 22 1 21 23
M  V30 23 2 22 24
M  V30 24 2 23 25
M  V30 25 1 4 7
M  V30 26 1 8 10
M  V30 27 1 24 25
M  V30 28 1 3 26
M  V30 29 1 4 27
M  V30 30 1 5 28
M  V30 31 1 5 29
M  V30 32 1 5 30
M  V30 33 1 6 31
M  V30 34 1 6 32
M  V30 35 1 6 33
M  V30 36 1 8 34
M  V30 37 1 11 35
M  V30 38 1 13 36
M  V30 39 1 17 37
M  V30 40 1 19 38
M  V30 41 1 19 39
M  V30 42 1 19 40
M  V30 43 1 21 41
M  V30 44 1 22 42
M  V30 45 1 23 43
M  V30 46 1 24 44
M  V30 47 1 25 45
M  V30 END BOND
M  V30 END CTAB
M  END
>  <Column 1>
1167

>  <level_0>
1308

>  <index>
1308

>  <Unnamed: 0>
1308

>  <NO.>
1320

>  <Name>
3-3-dimethyl-7-oxo-6-[(2-phenoxypropanoyl)amino]-4-thia-1-azabicyclo[3.2.0]heptane-2-carboxylic acid

>  <IUPAC_name>
3-3-dimethyl-7-oxo-6-(2-phenoxypropanoylamino)-4-thia-1-azabicyclo[3.2.0]heptane-2-carboxylic acid

>  <SMILES>
CC(Oc1ccccc1)C(=O)NC1C(=O)N2C1SC(C)(C)C2C(=O)O

>  <CID>
4759

>  <logBB>


>  <BBB+/BBB->
BBB-

>  <Inchi>
InChI=1S/C17H20N2O5S/c1-9(24-10-7-5-4-6-8-10)13(20)18-11-14(21)19-12(16(22)23)17(2-3)25-15(11)19/h4-9-11-12-15H-1-3H3-(H-18-20)(H-22-23)

>  <threshold>
-1

>  <reference>
R1|R19|R27|R27|R30|

>  <group>
B

>  <Class>
1

>  <ABC>
19.61

>  <ABCGG>
16.65

>  <nAcid>
1

>  <nBase>
0

>  <nAromAtom>
6

>  <nAromBond>
6

>  <nAtom>
45

>  <nHeavyAtom>
25

>  <nSpiro>
0

>  <nBridgehead>
0

>  <nHetero>
8

>  <nN>
2

>  <nO>
5

>  <nF>
0

>  <BalabanJ>
1.55

>  <BertzCT>
708.25

>  <nBonds>
47

>  <nBondsO>
27

>  <nBondsS>
38

>  <nBondsD>
3

>  <nBondsT>
0

>  <nBondsA>
6

>  <nBondsM>
9

>  <nBondsKS>
41

>  <nBondsKD>
6

>  <RNCG>
0.17

>  <RPCG>
0.11

>  <FCSP3>
0.47

>  <SZ>
32

>  <Sm>
30.34

>  <Sv>
28.7

>  <Sse>
45.93

>  <Sp>
30.44

>  <Si>
50.7

>  <MZ>
0.71

>  <Mm>
0.67

>  <Mv>
0.64

>  <Mse>
1.02

>  <Mp>
0.68

>  <Mi>
1.13

>  <NsCH3>
3

>  <NdCH2>
0

>  <NssCH2>
0

>  <NtCH>
0

>  <NdsCH>
0

>  <NaaCH>
5

>  <NsssCH>
4

>  <NddC>
0

>  <NtsC>
0

>  <NdssC>
3

>  <NaasC>
1

>  <NaaaC>
0

>  <NssssC>
1

>  <NsNH3>
0

>  <NsNH2>
0

>  <NssNH2>
0

>  <NdNH>
0

>  <NssNH>
1

>  <NaaNH>
0

>  <NtN>
0

>  <NsssNH>
0

>  <NdsN>
0

>  <NaaN>
0

>  <NsssN>
1

>  <NddsN>
0

>  <NaasN>
0

>  <NssssN>
0

>  <NsOH>
1

>  <NdO>
3

>  <NssO>
1

>  <NaaO>
0

>  <NsF>
0

>  <NsSiH3>
0

>  <NssSiH2>
0

>  <NsssSiH>
0

>  <NssssSi>
0

>  <NsPH2>
0

>  <NssPH>
0

>  <NsssP>
0

>  <NdsssP>
0

>  <NsssssP>
0

>  <NsSH>
0

>  <NdS>
0

>  <NssS>
1

>  <NaaS>
0

>  <NdssS>
0

>  <NddssS>
0

>  <NsCl>
0

>  <NsBr>
0

>  <NsI>
0

>  <fragCpx>
129.08

>  <fMF>
0.38

>  <nHBAcc>
5

>  <nHBDon>
2

>  <Kier1>
19.75

>  <Kier2>
7.55

>  <Lipinski>
1

>  <GhoseFilter>
1

>  <FilterItLogS>
-1.93

>  <VMcGowan>
257.67

>  <LabuteASA>
149.26

>  <PEOE_VSA1>
20.06

>  <PEOE_VSA2>
9.59

>  <PEOE_VSA3>
4.79

>  <PEOE_VSA4>
0

>  <PEOE_VSA5>
11.76

>  <PEOE_VSA6>
18.2

>  <PEOE_VSA7>
32.9

>  <PEOE_VSA8>
4.75

>  <PEOE_VSA9>
0

>  <PEOE_VSA10>
23.21

>  <PEOE_VSA11>
6.1

>  <PEOE_VSA12>
5.91

>  <PEOE_VSA13>
5.91

>  <SMR_VSA1>
24.23

>  <SMR_VSA2>
0

>  <SMR_VSA3>
10.22

>  <SMR_VSA4>
0

>  <SMR_VSA5>
49.08

>  <SMR_VSA6>
0

>  <SMR_VSA7>
30.33

>  <SMR_VSA8>
0

>  <SMR_VSA9>
5.75

>  <SlogP_VSA1>
10.05

>  <SlogP_VSA2>
56.1

>  <SlogP_VSA3>
14.38

>  <SlogP_VSA4>
0

>  <SlogP_VSA5>
20.77

>  <SlogP_VSA6>
30.33

>  <SlogP_VSA7>
0

>  <SlogP_VSA8>
0

>  <SlogP_VSA9>
0

>  <SlogP_VSA10>
0

>  <SlogP_VSA11>
5.75

>  <EState_VSA1>
34.81

>  <EState_VSA2>
11.28

>  <EState_VSA3>
5.75

>  <EState_VSA4>
0

>  <EState_VSA5>
16.66

>  <EState_VSA6>
45.04

>  <EState_VSA7>
6.07

>  <EState_VSA8>
5.32

>  <EState_VSA9>
4.74

>  <EState_VSA10>
19.49

>  <VSA_EState1>
4.94

>  <VSA_EState2>
37.51

>  <VSA_EState3>
11.72

>  <VSA_EState4>
0

>  <VSA_EState5>
-1.23

>  <VSA_EState6>
7.33

>  <VSA_EState7>
-0.76

>  <VSA_EState8>
5.19

>  <VSA_EState9>
0

>  <apol>
50.84

>  <bpol>
29.14

>  <nRing>
3

>  <nHRing>
2

>  <naRing>
1

>  <naHRing>
0

>  <nARing 2>
2

>  <nAHRing 2>
2

>  <nFRing>
1

>  <nFHRing>
1

>  <nFaRing>
0

>  <nFaHRing>
0

>  <nFARing 2>
1

>  <nFAHRing 2>
1

>  <nRot>
5

>  <SLogP>
1.09

>  <SMR>
92.19

>  <TopoPSA(NO)>
95.94

>  <TopoPSA>
121.24

>  <JGI1>
0.24

>  <JGI2>
0.09

>  <JGI3>
0.09

>  <JGI4>
0.06

>  <JGI5>
0.03

>  <Diameter>
13

>  <Radius>
7

>  <TMWC10>
129.37

>  <TSRW10>
75.57

>  <MW>
364.11

>  <AMW>
8.09

>  <WPath>
1587

>  <WPol>
39

>  <Zagreb1>
136

>  <Zagreb2>
164

>  <mZagreb2>
5.32

>  <yes>


>  <nAR-cont>
1

>  <nHA-cont>
0.921834225

>  <MWHBN>
0.366844267

>  <MWHBN-cont>
0.606097402

>  <TPSA-cont>
0

>  <pka_cont>
0.97

>  <yes.1>


>  <BBB_SCORE>
3.315980328

>  <MMFF94 Energy>
64.445

$$$$
Compound 979
Actelion Java MolfileCreator 2.0

  0  0  0  0  0  0              0 V3000
M  V30 BEGIN CTAB
M  V30 COUNTS 27 29 0 0 0
M  V30 BEGIN ATOM
M  V30 1 Cl -4.6511 0.4073 -0.3258 0
M  V30 2 C -3.0913 0.9132 -0.8534 0
M  V30 3 C -1.9671 0.5613 -0.0929 0
M  V30 4 C -2.976 1.6655 -2.0259 0
M  V30 5 C -0.7046 0.9897 -0.5411 0
M  V30 6 C -1.7251 2.0947 -2.4843 0
M  V30 7 C -0.6282 1.7306 -1.7077 0
M  V30 8 C 0.6508 0.8758 -0.1186 0
M  V30 9 O 0.6696 2.0366 -1.9622 0
M  V30 10 N 1.4753 1.5061 -0.9708 0
M  V30 11 C 1.1758 0.1751 1.1033 0 CFG=1
M  V30 12 N 0.9838 -1.2691 0.9781 0
M  V30 13 C 2.627 0.5029 1.4606 0
M  V30 14 C 0.2982 -2.0534 1.8646 0
M  V30 15 C 1.456 -2.088 -0.0124 0
M  V30 16 N 0.2882 -3.3107 1.486 0
M  V30 17 C 1.0074 -3.3445 0.3197 0
M  V30 18 H -2.0752 -0.0316 0.8099 0
M  V30 19 H -3.8662 1.9229 -2.5966 0
M  V30 20 H -1.6113 2.6762 -3.3915 0
M  V30 21 H 0.5537 0.4936 1.9516 0
M  V30 22 H 2.758 1.5792 1.6189 0
M  V30 23 H 3.323 0.1929 0.6726 0
M  V30 24 H 2.926 -0.0106 2.3815 0
M  V30 25 H -0.1718 -1.6668 2.76 0
M  V30 26 H 2.0448 -1.725 -0.8443 0
M  V30 27 H 1.1654 -4.2708 -0.2174 0
M  V30 END ATOM
M  V30 BEGIN BOND
M  V30 1 1 1 2
M  V30 2 2 2 3
M  V30 3 1 2 4
M  V30 4 1 3 5
M  V30 5 2 4 6
M  V30 6 2 5 7
M  V30 7 1 5 8
M  V30 8 1 7 9
M  V30 9 2 8 10
M  V30 10 1 8 11
M  V30 11 1 11 12
M  V30 12 1 11 13
M  V30 13 1 12 14
M  V30 14 1 12 15
M  V30 15 2 14 16
M  V30 16 2 15 17
M  V30 17 1 6 7
M  V30 18 1 9 10
M  V30 19 1 16 17
M  V30 20 1 3 18
M  V30 21 1 4 19
M  V30 22 1 6 20
M  V30 23 1 11 21
M  V30 24 1 13 22
M  V30 25 1 13 23
M  V30 26 1 13 24
M  V30 27 1 14 25
M  V30 28 1 15 26
M  V30 29 1 17 27
M  V30 END BOND
M  V30 BEGIN COLLECTION
M  V30 MDLV30/STERAC1 ATOMS=(1 11)
M  V30 END COLLECTION
M  V30 END CTAB
M  END
>  <Column 1>
1168

>  <level_0>
1309

>  <index>
1309

>  <Unnamed: 0>
1309

>  <NO.>
1321

>  <Name>
zoniclezole

>  <IUPAC_name>
5-chloro-3-(1-imidazol-1-ylethyl)-1-2-benzoxazole

>  <SMILES>
CC(c1noc2ccc(Cl)cc12)n1ccnc1

>  <CID>
60745

>  <logBB>


>  <BBB+/BBB->
BBB+

>  <Inchi>
InChI=1S/C12H10ClN3O/c1-8(16-5-4-14-7-16)12-10-6-9(13)2-3-11(10)17-15-12/h2-8H-1H3

>  <threshold>
-1

>  <reference>
R1|R19|R6|R27|R27|R30|

>  <group>
B

>  <Class>
-1

>  <ABC>
13.49

>  <ABCGG>
12.1

>  <nAcid>
0

>  <nBase>
0

>  <nAromAtom>
14

>  <nAromBond>
15

>  <nAtom>
27

>  <nHeavyAtom>
17

>  <nSpiro>
0

>  <nBridgehead>
0

>  <nHetero>
5

>  <nN>
3

>  <nO>
1

>  <nF>
0

>  <BalabanJ>
1.66

>  <BertzCT>
644.88

>  <nBonds>
29

>  <nBondsO>
19

>  <nBondsS>
14

>  <nBondsD>
0

>  <nBondsT>
0

>  <nBondsA>
15

>  <nBondsM>
15

>  <nBondsKS>
23

>  <nBondsKD>
6

>  <RNCG>
0.29

>  <RPCG>
0.14

>  <FCSP3>
0.17

>  <SZ>
21.33

>  <Sm>
20.62

>  <Sv>
18.79

>  <Sse>
27.52

>  <Sp>
19.75

>  <Si>
30.31

>  <MZ>
0.79

>  <Mm>
0.76

>  <Mv>
0.7

>  <Mse>
1.02

>  <Mp>
0.73

>  <Mi>
1.12

>  <NsCH3>
1

>  <NdCH2>
0

>  <NssCH2>
0

>  <NtCH>
0

>  <NdsCH>
0

>  <NaaCH>
6

>  <NsssCH>
1

>  <NddC>
0

>  <NtsC>
0

>  <NdssC>
0

>  <NaasC>
2

>  <NaaaC>
2

>  <NssssC>
0

>  <NsNH3>
0

>  <NsNH2>
0

>  <NssNH2>
0

>  <NdNH>
0

>  <NssNH>
0

>  <NaaNH>
0

>  <NtN>
0

>  <NsssNH>
0

>  <NdsN>
0

>  <NaaN>
2

>  <NsssN>
0

>  <NddsN>
0

>  <NaasN>
1

>  <NssssN>
0

>  <NsOH>
0

>  <NdO>
0

>  <NssO>
0

>  <NaaO>
1

>  <NsF>
0

>  <NsSiH3>
0

>  <NssSiH2>
0

>  <NsssSiH>
0

>  <NssssSi>
0

>  <NsPH2>
0

>  <NssPH>
0

>  <NsssP>
0

>  <NdsssP>
0

>  <NsssssP>
0

>  <NsSH>
0

>  <NdS>
0

>  <NssS>
0

>  <NaaS>
0

>  <NdssS>
0

>  <NddssS>
0

>  <NsCl>
1

>  <NsBr>
0

>  <NsI>
0

>  <fragCpx>
89.05

>  <fMF>
0.56

>  <nHBAcc>
4

>  <nHBDon>
0

>  <Kier1>
12.06

>  <Kier2>
4.94

>  <Lipinski>
1

>  <GhoseFilter>
1

>  <FilterItLogS>
-3.59

>  <VMcGowan>
169.61

>  <LabuteASA>
102.81

>  <PEOE_VSA1>
9.09

>  <PEOE_VSA2>
0

>  <PEOE_VSA3>
4.98

>  <PEOE_VSA4>
0

>  <PEOE_VSA5>
0

>  <PEOE_VSA6>
16.76

>  <PEOE_VSA7>
25.12

>  <PEOE_VSA8>
22.8

>  <PEOE_VSA9>
12.37

>  <PEOE_VSA10>
5.69

>  <PEOE_VSA11>
5.58

>  <PEOE_VSA12>
0

>  <PEOE_VSA13>
0

>  <SMR_VSA1>
4.52

>  <SMR_VSA2>
0

>  <SMR_VSA3>
14.71

>  <SMR_VSA4>
0

>  <SMR_VSA5>
12.97

>  <SMR_VSA6>
0

>  <SMR_VSA7>
47.64

>  <SMR_VSA8>
0

>  <SMR_VSA9>
0

>  <SlogP_VSA1>
0

>  <SlogP_VSA2>
14.71

>  <SlogP_VSA3>
0

>  <SlogP_VSA4>
0

>  <SlogP_VSA5>
18.66

>  <SlogP_VSA6>
41.44

>  <SlogP_VSA7>
5.02

>  <SlogP_VSA8>
10.97

>  <SlogP_VSA9>
0

>  <SlogP_VSA10>
0

>  <SlogP_VSA11>
0

>  <EState_VSA1>
0

>  <EState_VSA2>
6.04

>  <EState_VSA3>
5.02

>  <EState_VSA4>
16.66

>  <EState_VSA5>
0

>  <EState_VSA6>
18.59

>  <EState_VSA7>
29.82

>  <EState_VSA8>
10.14

>  <EState_VSA9>
16.12

>  <EState_VSA10>
0

>  <VSA_EState1>
7.25

>  <VSA_EState2>
4.03

>  <VSA_EState3>
5.73

>  <VSA_EState4>
1.61

>  <VSA_EState5>
0

>  <VSA_EState6>
5.56

>  <VSA_EState7>
5.4

>  <VSA_EState8>
2.04

>  <VSA_EState9>
0

>  <apol>
32.99

>  <bpol>
15.13

>  <nRing>
3

>  <nHRing>
2

>  <naRing>
3

>  <naHRing>
2

>  <nARing 2>
0

>  <nAHRing 2>
0

>  <nFRing>
1

>  <nFHRing>
1

>  <nFaRing>
1

>  <nFaHRing>
1

>  <nFARing 2>
0

>  <nFAHRing 2>
0

>  <nRot>
2

>  <SLogP>
3.29

>  <SMR>
65.06

>  <TopoPSA(NO)>
43.85

>  <TopoPSA>
43.85

>  <JGI1>
0.16

>  <JGI2>
0.08

>  <JGI3>
0.05

>  <JGI4>
0.04

>  <JGI5>
0.02

>  <Diameter>
8

>  <Radius>
4

>  <TMWC10>
108.65

>  <TSRW10>
65.66

>  <MW>
247.05

>  <AMW>
9.15

>  <WPath>
495

>  <WPol>
24

>  <Zagreb1>
92

>  <Zagreb2>
110

>  <mZagreb2>
3.69

>  <yes>


>  <nAR-cont>
0.336376

>  <nHA-cont>
0.976740822

>  <MWHBN>
0.254488149

>  <MWHBN-cont>
0.951915374

>  <TPSA-cont>
0.693899771

>  <pka_cont>
0.97

>  <yes.1>


>  <BBB_SCORE>
4.613789425

>  <MMFF94 Energy>
30.116

$$$$
Compound 980
Actelion Java MolfileCreator 2.0

  0  0  0  0  0  0              0 V3000
M  V30 BEGIN CTAB
M  V30 COUNTS 32 32 0 0 0
M  V30 BEGIN ATOM
M  V30 1 O -0.6265 0.6265 -4.1565 0
M  V30 2 C -0.5258 0.1798 -3.0188 0
M  V30 3 N -1.4709 0.422 -2.0755 0
M  V30 4 N 0.5227 -0.5981 -2.6508 0
M  V30 5 C -1.4625 -0.0073 -0.7777 0
M  V30 6 C 0.7239 -1.1765 -1.4293 0
M  V30 7 O -2.4147 0.269 -0.0465 0
M  V30 8 C -0.2326 -0.7884 -0.3026 0
M  V30 9 O 1.6617 -1.9619 -1.2828 0
M  V30 10 C 0.6108 0.1083 0.662 0
M  V30 11 C -0.7607 -2.0909 0.3702 0
M  V30 12 C 0.7156 1.4491 0.4979 0
M  V30 13 C 1.3315 -0.6161 1.779 0
M  V30 14 C -1.6022 -2.9807 -0.5457 0
M  V30 15 C 1.5157 2.4299 1.314 0
M  V30 16 C 0.6477 3.1302 2.3467 0
M  V30 17 H -2.2698 0.9691 -2.3647 0
M  V30 18 H 1.1972 -0.8176 -3.3702 0
M  V30 19 H -1.3662 -1.8393 1.2508 0
M  V30 20 H 0.0745 -2.7055 0.7282 0
M  V30 21 H 0.1823 1.9383 -0.3158 0
M  V30 22 H 0.6121 -1.0835 2.4589 0
M  V30 23 H 1.9902 -1.3899 1.3728 0
M  V30 24 H 1.9538 0.0335 2.3973 0
M  V30 25 H -2.514 -2.4758 -0.8777 0
M  V30 26 H -1.9049 -3.8846 -0.0067 0
M  V30 27 H -1.0386 -3.2945 -1.4294 0
M  V30 28 H 2.3753 1.9623 1.8015 0
M  V30 29 H 1.938 3.1776 0.6313 0
M  V30 30 H 1.2389 3.8662 2.9012 0
M  V30 31 H -0.1876 3.6567 1.8725 0
M  V30 32 H 0.2358 2.4154 3.0671 0
M  V30 END ATOM
M  V30 BEGIN BOND
M  V30 1 2 1 2
M  V30 2 1 2 3
M  V30 3 1 2 4
M  V30 4 1 3 5
M  V30 5 1 4 6
M  V30 6 2 5 7
M  V30 7 1 5 8
M  V30 8 2 6 9
M  V30 9 1 8 10
M  V30 10 1 8 11
M  V30 11 2 10 12
M  V30 12 1 10 13
M  V30 13 1 11 14
M  V30 14 1 12 15
M  V30 15 1 15 16
M  V30 16 1 6 8
M  V30 17 1 3 17
M  V30 18 1 4 18
M  V30 19 1 11 19
M  V30 20 1 11 20
M  V30 21 1 12 21
M  V30 22 1 13 22
M  V30 23 1 13 23
M  V30 24 1 13 24
M  V30 25 1 14 25
M  V30 26 1 14 26
M  V30 27 1 14 27
M  V30 28 1 15 28
M  V30 29 1 15 29
M  V30 30 1 16 30
M  V30 31 1 16 31
M  V30 32 1 16 32
M  V30 END BOND
M  V30 END CTAB
M  END
>  <Column 1>
1170

>  <level_0>
1311

>  <index>
1311

>  <Unnamed: 0>
1311

>  <NO.>
1323

>  <Name>
vinbarbital

>  <IUPAC_name>
5-ethyl-5-[(e)-pent-2-en-2-yl]-1-3-diazinane-2-4-6-trione

>  <SMILES>
CC/C=C(\C)C1(CC)C(=O)NC(=O)NC1=O

>  <CID>
5284636

>  <logBB>


>  <BBB+/BBB->
BBB+

>  <Inchi>
InChI=1S/C11H16N2O3/c1-4-6-7(3)11(5-2)8(14)12-10(16)13-9(11)15/h6H-4-5H2-1-3H3-(H2-12-13-14-15-16)/b7-6+

>  <threshold>
-1

>  <reference>
R1|R13|R24|R27|R30|

>  <group>
B

>  <Class>
1

>  <ABC>
11.57

>  <ABCGG>
11.41

>  <nAcid>
0

>  <nBase>
0

>  <nAromAtom>
0

>  <nAromBond>
0

>  <nAtom>
32

>  <nHeavyAtom>
16

>  <nSpiro>
0

>  <nBridgehead>
0

>  <nHetero>
5

>  <nN>
2

>  <nO>
3

>  <nF>
0

>  <BalabanJ>
2.9

>  <BertzCT>
351.43

>  <nBonds>
32

>  <nBondsO>
16

>  <nBondsS>
28

>  <nBondsD>
4

>  <nBondsT>
0

>  <nBondsA>
0

>  <nBondsM>
4

>  <nBondsKS>
28

>  <nBondsKD>
4

>  <RNCG>
0.16

>  <RPCG>
0.19

>  <FCSP3>
0.55

>  <SZ>
20

>  <Sm>
18.67

>  <Sv>
18.99

>  <Sse>
32.42

>  <Sp>
20.15

>  <Si>
36.53

>  <MZ>
0.63

>  <Mm>
0.58

>  <Mv>
0.59

>  <Mse>
1.01

>  <Mp>
0.63

>  <Mi>
1.14

>  <NsCH3>
3

>  <NdCH2>
0

>  <NssCH2>
2

>  <NtCH>
0

>  <NdsCH>
1

>  <NaaCH>
0

>  <NsssCH>
0

>  <NddC>
0

>  <NtsC>
0

>  <NdssC>
4

>  <NaasC>
0

>  <NaaaC>
0

>  <NssssC>
1

>  <NsNH3>
0

>  <NsNH2>
0

>  <NssNH2>
0

>  <NdNH>
0

>  <NssNH>
2

>  <NaaNH>
0

>  <NtN>
0

>  <NsssNH>
0

>  <NdsN>
0

>  <NaaN>
0

>  <NsssN>
0

>  <NddsN>
0

>  <NaasN>
0

>  <NssssN>
0

>  <NsOH>
0

>  <NdO>
3

>  <NssO>
0

>  <NaaO>
0

>  <NsF>
0

>  <NsSiH3>
0

>  <NssSiH2>
0

>  <NsssSiH>
0

>  <NssssSi>
0

>  <NsPH2>
0

>  <NssPH>
0

>  <NsssP>
0

>  <NdsssP>
0

>  <NsssssP>
0

>  <NsSH>
0

>  <NdS>
0

>  <NssS>
0

>  <NaaS>
0

>  <NdssS>
0

>  <NddssS>
0

>  <NsCl>
0

>  <NsBr>
0

>  <NsI>
0

>  <fragCpx>
16.05

>  <fMF>
0.19

>  <nHBAcc>
3

>  <nHBDon>
2

>  <Kier1>
14.06

>  <Kier2>
5.56

>  <Lipinski>
1

>  <GhoseFilter>
1

>  <FilterItLogS>
-2.82

>  <VMcGowan>
175.36

>  <LabuteASA>
94.28

>  <PEOE_VSA1>
0

>  <PEOE_VSA2>
20.22

>  <PEOE_VSA3>
4.79

>  <PEOE_VSA4>
0

>  <PEOE_VSA5>
0

>  <PEOE_VSA6>
25.5

>  <PEOE_VSA7>
19.77

>  <PEOE_VSA8>
0

>  <PEOE_VSA9>
0

>  <PEOE_VSA10>
5.41

>  <PEOE_VSA11>
0

>  <PEOE_VSA12>
11.81

>  <PEOE_VSA13>
0

>  <SMR_VSA1>
14.38

>  <SMR_VSA2>
0

>  <SMR_VSA3>
10.63

>  <SMR_VSA4>
5.41

>  <SMR_VSA5>
33.61

>  <SMR_VSA6>
0

>  <SMR_VSA7>
11.65

>  <SMR_VSA8>
0

>  <SMR_VSA9>
0

>  <SlogP_VSA1>
10.63

>  <SlogP_VSA2>
17.85

>  <SlogP_VSA3>
9.59

>  <SlogP_VSA4>
5.41

>  <SlogP_VSA5>
33.61

>  <SlogP_VSA6>
11.65

>  <SlogP_VSA7>
0

>  <SlogP_VSA8>
0

>  <SlogP_VSA9>
0

>  <SlogP_VSA10>
4.79

>  <SlogP_VSA11>
0

>  <EState_VSA1>
23.26

>  <EState_VSA2>
0

>  <EState_VSA3>
11.99

>  <EState_VSA4>
6.42

>  <EState_VSA5>
0

>  <EState_VSA6>
13.85

>  <EState_VSA7>
13

>  <EState_VSA8>
10.63

>  <EState_VSA9>
0

>  <EState_VSA10>
14.38

>  <VSA_EState1>
0

>  <VSA_EState2>
34.69

>  <VSA_EState3>
4.28

>  <VSA_EState4>
-0.55

>  <VSA_EState5>
-1.07

>  <VSA_EState6>
-0.75

>  <VSA_EState7>
2.9

>  <VSA_EState8>
5.42

>  <VSA_EState9>
0

>  <apol>
33.64

>  <bpol>
19.8

>  <nRing>
1

>  <nHRing>
1

>  <naRing>
0

>  <naHRing>
0

>  <nARing 2>
1

>  <nAHRing 2>
1

>  <nFRing>
0

>  <nFHRing>
0

>  <nFaRing>
0

>  <nFaHRing>
0

>  <nFARing 2>
0

>  <nFAHRing 2>
0

>  <nRot>
3

>  <SLogP>
1.11

>  <SMR>
58.45

>  <TopoPSA(NO)>
75.27

>  <TopoPSA>
75.27

>  <JGI1>
0.31

>  <JGI2>
0.14

>  <JGI3>
0.09

>  <JGI4>
0.04

>  <JGI5>
0.04

>  <Diameter>
8

>  <Radius>
4

>  <TMWC10>
103.73

>  <TSRW10>
48.75

>  <MW>
224.12

>  <AMW>
7

>  <WPath>
398

>  <WPol>
29

>  <Zagreb1>
78

>  <Zagreb2>
94

>  <mZagreb2>
3.79

>  <yes>


>  <nAR-cont>
0.816016

>  <nHA-cont>
0.954961865

>  <MWHBN>
0.333987104

>  <MWHBN-cont>
0.728760017

>  <TPSA-cont>
0.47456866

>  <pka_cont>
0.97

>  <yes.1>


>  <BBB_SCORE>
4.298255211

>  <MMFF94 Energy>
-81.617

$$$$
Compound 981
Actelion Java MolfileCreator 2.0

  0  0  0  0  0  0              0 V3000
M  V30 BEGIN CTAB
M  V30 COUNTS 55 57 0 0 0
M  V30 BEGIN ATOM
M  V30 1 O 2.2975 2.3768 1.1879 0
M  V30 2 C 3.1334 1.4718 1.192 0
M  V30 3 N 3.5302 0.7892 0.0441 0
M  V30 4 C 3.823 1.0969 2.4842 0
M  V30 5 C 4.4491 -0.2565 -0.0012 0
M  V30 6 C 2.8741 1.1554 -1.21 0
M  V30 7 C 4.27 -0.3638 2.5284 0
M  V30 8 O 4.7484 -0.8506 -1.0382 0
M  V30 9 C 5.1353 -0.6215 1.2954 0
M  V30 10 C 1.6142 0.3164 -1.4423 0
M  V30 11 C 3.0611 -1.3171 2.5726 0
M  V30 12 C 5.1135 -0.5958 3.7949 0
M  V30 13 C 0.9037 0.7288 -2.7336 0
M  V30 14 C -0.3189 -0.1446 -3.0512 0
M  V30 15 N -1.32 -0.2015 -1.9754 0
M  V30 16 C -1.9972 1.1002 -1.7717 0
M  V30 17 C -2.3535 -1.214 -2.297 0
M  V30 18 C -3.0825 1.0618 -0.6709 0
M  V30 19 C -3.4458 -1.3424 -1.2129 0
M  V30 20 N -4.0195 -0.04 -0.8817 0
M  V30 21 C -5.1994 -0.0236 -0.1629 0
M  V30 22 N -5.589 1.1227 0.4231 0
M  V30 23 N -5.9289 -1.1512 -0.0828 0
M  V30 24 C -6.7481 1.1198 1.108 0
M  V30 25 C -7.0815 -1.1091 0.6119 0
M  V30 26 C -7.548 0.0159 1.2382 0
M  V30 27 H 3.135 1.3084 3.3122 0
M  V30 28 H 4.6819 1.7716 2.5927 0
M  V30 29 H 2.6133 2.2202 -1.1906 0
M  V30 30 H 3.573 1.0138 -2.0427 0
M  V30 31 H 5.4189 -1.6801 1.2454 0
M  V30 32 H 6.0627 -0.0363 1.3397 0
M  V30 33 H 0.9389 0.4328 -0.5862 0
M  V30 34 H 1.8807 -0.7465 -1.4899 0
M  V30 35 H 2.4481 -1.1307 3.4619 0
M  V30 36 H 3.3884 -2.3624 2.6088 0
M  V30 37 H 2.4103 -1.2086 1.699 0
M  V30 38 H 5.471 -1.6303 3.8475 0
M  V30 39 H 5.9913 0.0599 3.8156 0
M  V30 40 H 4.5295 -0.3967 4.7007 0
M  V30 41 H 0.6155 1.7849 -2.6795 0
M  V30 42 H 1.6068 0.6469 -3.5722 0
M  V30 43 H -0.7732 0.2038 -3.9879 0
M  V30 44 H 0.0528 -1.1598 -3.2434 0
M  V30 45 H -2.4593 1.4327 -2.7112 0
M  V30 46 H -1.2687 1.8642 -1.4793 0
M  V30 47 H -2.8334 -0.9681 -3.2544 0
M  V30 48 H -1.8804 -2.1966 -2.4143 0
M  V30 49 H -3.5925 2.033 -0.6879 0
M  V30 50 H -2.6025 0.9509 0.31 0
M  V30 51 H -4.206 -2.031 -1.6017 0
M  V30 52 H -3.0137 -1.7929 -0.31 0
M  V30 53 H -7.0181 2.0685 1.5617 0
M  V30 54 H -7.6335 -2.0432 0.6464 0
M  V30 55 H -8.4756 0.0318 1.7909 0
M  V30 END ATOM
M  V30 BEGIN BOND
M  V30 1 2 1 2
M  V30 2 1 2 3
M  V30 3 1 2 4
M  V30 4 1 3 5
M  V30 5 1 3 6
M  V30 6 1 4 7
M  V30 7 2 5 8
M  V30 8 1 5 9
M  V30 9 1 6 10
M  V30 10 1 7 11
M  V30 11 1 7 12
M  V30 12 1 10 13
M  V30 13 1 13 14
M  V30 14 1 14 15
M  V30 15 1 15 16
M  V30 16 1 15 17
M  V30 17 1 16 18
M  V30 18 1 17 19
M  V30 19 1 18 20
M  V30 20 1 20 21
M  V30 21 2 21 22
M  V30 22 1 21 23
M  V30 23 1 22 24
M  V30 24 2 23 25
M  V30 25 2 24 26
M  V30 26 1 7 9
M  V30 27 1 19 20
M  V30 28 1 25 26
M  V30 29 1 4 27
M  V30 30 1 4 28
M  V30 31 1 6 29
M  V30 32 1 6 30
M  V30 33 1 9 31
M  V30 34 1 9 32
M  V30 35 1 10 33
M  V30 36 1 10 34
M  V30 37 1 11 35
M  V30 38 1 11 36
M  V30 39 1 11 37
M  V30 40 1 12 38
M  V30 41 1 12 39
M  V30 42 1 12 40
M  V30 43 1 13 41
M  V30 44 1 13 42
M  V30 45 1 14 43
M  V30 46 1 14 44
M  V30 47 1 16 45
M  V30 48 1 16 46
M  V30 49 1 17 47
M  V30 50 1 17 48
M  V30 51 1 18 49
M  V30 52 1 18 50
M  V30 53 1 19 51
M  V30 54 1 19 52
M  V30 55 1 24 53
M  V30 56 1 25 54
M  V30 57 1 26 55
M  V30 END BOND
M  V30 END CTAB
M  END
>  <Column 1>
1171

>  <level_0>
1312

>  <index>
1312

>  <Unnamed: 0>
1312

>  <NO.>
1324

>  <Name>
gepirone

>  <IUPAC_name>
4-4-dimethyl-1-[4-(4-pyrimidin-2-ylpiperazin-1-yl)butyl]piperidine-2-6-dione;hydron;chloride

>  <SMILES>
CC1(C)CC(=O)N(CCCCN2CCN(c3ncccn3)CC2)C(=O)C1

>  <CID>
55191

>  <logBB>


>  <BBB+/BBB->
BBB+

>  <Inchi>
InChI=1S/C19H29N5O2/c1-19(2)14-16(25)24(17(26)15-19)9-4-3-8-22-10-12-23(13-11-22)18-20-6-5-7-21-18/h5-7H-3-4-8-15H2-1-2H3

>  <threshold>
-1

>  <reference>
R1|R13|R19|R6|R24|R27|R27|R27|R30|R30|

>  <group>
B

>  <Class>
1

>  <ABC>
20.21

>  <ABCGG>
14.93

>  <nAcid>
0

>  <nBase>
1

>  <nAromAtom>
6

>  <nAromBond>
6

>  <nAtom>
55

>  <nHeavyAtom>
26

>  <nSpiro>
0

>  <nBridgehead>
0

>  <nHetero>
7

>  <nN>
5

>  <nO>
2

>  <nF>
0

>  <BalabanJ>
1.3

>  <BertzCT>
606.08

>  <nBonds>
57

>  <nBondsO>
28

>  <nBondsS>
49

>  <nBondsD>
2

>  <nBondsT>
0

>  <nBondsA>
6

>  <nBondsM>
8

>  <nBondsKS>
52

>  <nBondsKD>
5

>  <RNCG>
0.16

>  <RPCG>
0.11

>  <FCSP3>
0.68

>  <SZ>
32.33

>  <Sm>
29.93

>  <Sv>
32.08

>  <Sse>
54.85

>  <Sp>
34.83

>  <Si>
62.89

>  <MZ>
0.59

>  <Mm>
0.54

>  <Mv>
0.58

>  <Mse>
1

>  <Mp>
0.63

>  <Mi>
1.14

>  <NsCH3>
2

>  <NdCH2>
0

>  <NssCH2>
10

>  <NtCH>
0

>  <NdsCH>
0

>  <NaaCH>
3

>  <NsssCH>
0

>  <NddC>
0

>  <NtsC>
0

>  <NdssC>
2

>  <NaasC>
1

>  <NaaaC>
0

>  <NssssC>
1

>  <NsNH3>
0

>  <NsNH2>
0

>  <NssNH2>
0

>  <NdNH>
0

>  <NssNH>
0

>  <NaaNH>
0

>  <NtN>
0

>  <NsssNH>
0

>  <NdsN>
0

>  <NaaN>
2

>  <NsssN>
3

>  <NddsN>
0

>  <NaasN>
0

>  <NssssN>
0

>  <NsOH>
0

>  <NdO>
2

>  <NssO>
0

>  <NaaO>
0

>  <NsF>
0

>  <NsSiH3>
0

>  <NssSiH2>
0

>  <NsssSiH>
0

>  <NssssSi>
0

>  <NsPH2>
0

>  <NssPH>
0

>  <NsssP>
0

>  <NdsssP>
0

>  <NsssssP>
0

>  <NsSH>
0

>  <NdS>
0

>  <NssS>
0

>  <NaaS>
0

>  <NdssS>
0

>  <NddssS>
0

>  <NsCl>
0

>  <NsBr>
0

>  <NsI>
0

>  <fragCpx>
134.07

>  <fMF>
0.4

>  <nHBAcc>
6

>  <nHBDon>
0

>  <Kier1>
20.73

>  <Kier2>
9.47

>  <Lipinski>
1

>  <GhoseFilter>
1

>  <FilterItLogS>
-3.82

>  <VMcGowan>
286.13

>  <LabuteASA>
154.94

>  <PEOE_VSA1>
4.9

>  <PEOE_VSA2>
19.39

>  <PEOE_VSA3>
9.97

>  <PEOE_VSA4>
0

>  <PEOE_VSA5>
0

>  <PEOE_VSA6>
13.85

>  <PEOE_VSA7>
30.87

>  <PEOE_VSA8>
57.96

>  <PEOE_VSA9>
0

>  <PEOE_VSA10>
0

>  <PEOE_VSA11>
0

>  <PEOE_VSA12>
17.76

>  <PEOE_VSA13>
0

>  <SMR_VSA1>
9.59

>  <SMR_VSA2>
0

>  <SMR_VSA3>
19.77

>  <SMR_VSA4>
5.41

>  <SMR_VSA5>
39.53

>  <SMR_VSA6>
44.17

>  <SMR_VSA7>
18.46

>  <SMR_VSA8>
0

>  <SMR_VSA9>
0

>  <SlogP_VSA1>
4.9

>  <SlogP_VSA2>
70.85

>  <SlogP_VSA3>
9.59

>  <SlogP_VSA4>
5.41

>  <SlogP_VSA5>
39.53

>  <SlogP_VSA6>
18.46

>  <SlogP_VSA7>
0

>  <SlogP_VSA8>
0

>  <SlogP_VSA9>
0

>  <SlogP_VSA10>
5.95

>  <SlogP_VSA11>
0

>  <EState_VSA1>
0

>  <EState_VSA2>
17.23

>  <EState_VSA3>
19.39

>  <EState_VSA4>
51.51

>  <EState_VSA5>
4.9

>  <EState_VSA6>
12.39

>  <EState_VSA7>
19.91

>  <EState_VSA8>
19.77

>  <EState_VSA9>
0

>  <EState_VSA10>
9.59

>  <VSA_EState1>
0

>  <VSA_EState2>
39.05

>  <VSA_EState3>
0

>  <VSA_EState4>
-0.19

>  <VSA_EState5>
0.78

>  <VSA_EState6>
1.83

>  <VSA_EState7>
6.38

>  <VSA_EState8>
9.39

>  <VSA_EState9>
0

>  <apol>
58.17

>  <bpol>
38.24

>  <nRing>
3

>  <nHRing>
3

>  <naRing>
1

>  <naHRing>
1

>  <nARing 2>
2

>  <nAHRing 2>
2

>  <nFRing>
0

>  <nFHRing>
0

>  <nFaRing>
0

>  <nFaHRing>
0

>  <nFARing 2>
0

>  <nFAHRing 2>
0

>  <nRot>
6

>  <SLogP>
1.55

>  <SMR>
99.65

>  <TopoPSA(NO)>
69.64

>  <TopoPSA>
69.64

>  <JGI1>
0.21

>  <JGI2>
0.08

>  <JGI3>
0.05

>  <JGI4>
0.03

>  <JGI5>
0.02

>  <Diameter>
16

>  <Radius>
8

>  <TMWC10>
128.75

>  <TSRW10>
60.85

>  <MW>
359.23

>  <AMW>
6.53

>  <WPath>
2061

>  <WPol>
38

>  <Zagreb1>
134

>  <Zagreb2>
153

>  <mZagreb2>
5.67

>  <yes>


>  <nAR-cont>
1

>  <nHA-cont>
0.892715677

>  <MWHBN>
0.316566498

>  <MWHBN-cont>
0.788586302

>  <TPSA-cont>
0.513869556

>  <pka_cont>
0.97

>  <yes.1>


>  <BBB_SCORE>
4.588334243

>  <MMFF94 Energy>
-28.362

$$$$
Compound 982
Actelion Java MolfileCreator 2.0

  0  0  0  0  0  0              0 V3000
M  V30 BEGIN CTAB
M  V30 COUNTS 53 55 0 0 0
M  V30 BEGIN ATOM
M  V30 1 Cl -2.3392 -5.3298 1.2094 0
M  V30 2 C -2.8628 -3.8103 1.8437 0
M  V30 3 C -4.2127 -3.5066 2.0415 0
M  V30 4 C -1.8821 -2.8639 2.163 0
M  V30 5 Cl -5.4803 -4.6194 1.6686 0
M  V30 6 C -4.5737 -2.2617 2.5633 0
M  V30 7 C -2.2369 -1.6015 2.6661 0
M  V30 8 C -3.5929 -1.3182 2.8791 0
M  V30 9 C -1.1814 -0.5768 3.0219 0
M  V30 10 C -0.1115 -0.3854 1.9527 0
M  V30 11 O 0.9092 -1.0761 2.0032 0
M  V30 12 N -0.3218 0.5704 0.9602 0
M  V30 13 C 0.6961 0.8179 -0.0904 0 CFG=2
M  V30 14 C -1.6544 1.0203 0.5634 0
M  V30 15 C 0.337 -0.0875 -1.2852 0
M  V30 16 C 2.1823 0.7203 0.3667 0
M  V30 17 C -2.1253 0.1837 -0.6317 0
M  V30 18 C -1.1091 0.17 -1.8058 0
M  V30 19 N 3.1147 1.6102 -0.3553 0
M  V30 20 C -1.1722 1.5057 -2.5739 0
M  V30 21 C -1.4924 -0.9544 -2.7861 0
M  V30 22 C 4.4308 1.6268 0.2936 0
M  V30 23 C 3.3849 1.2217 -1.7389 0
M  V30 24 C 5.2971 2.3243 -0.7375 0
M  V30 25 C 4.7065 1.9048 -2.0757 0
M  V30 26 H -0.832 -3.1153 2.0153 0
M  V30 27 H -5.621 -2.0203 2.7301 0
M  V30 28 H -3.8992 -0.3584 3.2919 0
M  V30 29 H -1.6257 0.3925 3.2726 0
M  V30 30 H -0.6794 -0.9115 3.9392 0
M  V30 31 H 0.5527 1.8672 -0.3791 0
M  V30 32 H -2.3775 0.9347 1.3743 0
M  V30 33 H -1.5983 2.0836 0.306 0
M  V30 34 H 1.0412 0.0374 -2.111 0
M  V30 35 H 0.4218 -1.1356 -0.9666 0
M  V30 36 H 2.5323 -0.3183 0.3168 0
M  V30 37 H 2.22 1.0272 1.4202 0
M  V30 38 H -2.2835 -0.8471 -0.2905 0
M  V30 39 H -3.1013 0.5501 -0.9726 0
M  V30 40 H -2.1702 1.6669 -2.9973 0
M  V30 41 H -0.9486 2.3665 -1.9377 0
M  V30 42 H -0.4568 1.5149 -3.404 0
M  V30 43 H -2.5057 -0.8099 -3.1775 0
M  V30 44 H -1.4622 -1.9345 -2.2973 0
M  V30 45 H -0.8049 -0.987 -3.6386 0
M  V30 46 H 4.4177 2.1745 1.2413 0
M  V30 47 H 4.8059 0.6117 0.4765 0
M  V30 48 H 2.5983 1.5627 -2.4181 0
M  V30 49 H 3.4999 0.1359 -1.8434 0
M  V30 50 H 5.2238 3.413 -0.6259 0
M  V30 51 H 6.3518 2.0472 -0.6472 0
M  V30 52 H 5.3744 1.2166 -2.6046 0
M  V30 53 H 4.5533 2.7822 -2.7138 0
M  V30 END ATOM
M  V30 BEGIN BOND
M  V30 1 1 1 2
M  V30 2 2 2 3
M  V30 3 1 2 4
M  V30 4 1 3 5
M  V30 5 1 3 6
M  V30 6 2 4 7
M  V30 7 2 6 8
M  V30 8 1 7 9
M  V30 9 1 9 10
M  V30 10 2 10 11
M  V30 11 1 10 12
M  V30 12 1 12 13
M  V30 13 1 12 14
M  V30 14 1 13 15
M  V30 15 1 13 16
M  V30 16 1 14 17
M  V30 17 1 15 18
M  V30 18 1 16 19
M  V30 19 1 18 20
M  V30 20 1 18 21
M  V30 21 1 19 22
M  V30 22 1 19 23
M  V30 23 1 22 24
M  V30 24 1 23 25
M  V30 25 1 7 8
M  V30 26 1 17 18
M  V30 27 1 24 25
M  V30 28 1 4 26
M  V30 29 1 6 27
M  V30 30 1 8 28
M  V30 31 1 9 29
M  V30 32 1 9 30
M  V30 33 1 13 31
M  V30 34 1 14 32
M  V30 35 1 14 33
M  V30 36 1 15 34
M  V30 37 1 15 35
M  V30 38 1 16 36
M  V30 39 1 16 37
M  V30 40 1 17 38
M  V30 41 1 17 39
M  V30 42 1 20 40
M  V30 43 1 20 41
M  V30 44 1 20 42
M  V30 45 1 21 43
M  V30 46 1 21 44
M  V30 47 1 21 45
M  V30 48 1 22 46
M  V30 49 1 22 47
M  V30 50 1 23 48
M  V30 51 1 23 49
M  V30 52 1 24 50
M  V30 53 1 24 51
M  V30 54 1 25 52
M  V30 55 1 25 53
M  V30 END BOND
M  V30 BEGIN COLLECTION
M  V30 MDLV30/STEABS ATOMS=(1 13)
M  V30 END COLLECTION
M  V30 END CTAB
M  END
>  <Column 1>
1172

>  <level_0>
1313

>  <index>
1313

>  <Unnamed: 0>
1313

>  <NO.>
1325

>  <Name>
brl-53087

>  <IUPAC_name>
2-(3-4-dichlorophenyl)-1-[(2r)-4-4-dimethyl-2-(pyrrolidin-1-ylmethyl)piperidin-1-yl]ethanone

>  <SMILES>
CC1(C)CCN(C(=O)Cc2ccc(Cl)c(Cl)c2)[C@@H](CN2CCCC2)C1

>  <CID>
44310254

>  <logBB>


>  <BBB+/BBB->
BBB+

>  <Inchi>
InChI=1S/C20H28Cl2N2O/c1-20(2)7-10-24(16(13-20)14-23-8-3-4-9-23)19(25)12-15-5-6-17(21)18(22)11-15/h5-6-11-16H-3-4-7-10-12-14H2-1-2H3/t16-/m1/s1

>  <threshold>
-1

>  <reference>
R1|R28|R9|R24|R27|R30|

>  <group>
B

>  <Class>
1

>  <ABC>
19.62

>  <ABCGG>
16.21

>  <nAcid>
0

>  <nBase>
1

>  <nAromAtom>
6

>  <nAromBond>
6

>  <nAtom>
53

>  <nHeavyAtom>
25

>  <nSpiro>
0

>  <nBridgehead>
0

>  <nHetero>
5

>  <nN>
2

>  <nO>
1

>  <nF>
0

>  <BalabanJ>
1.58

>  <BertzCT>
626.12

>  <nBonds>
55

>  <nBondsO>
27

>  <nBondsS>
48

>  <nBondsD>
1

>  <nBondsT>
0

>  <nBondsA>
6

>  <nBondsM>
7

>  <nBondsKS>
51

>  <nBondsKD>
4

>  <RNCG>
0.22

>  <RPCG>
0.15

>  <FCSP3>
0.65

>  <SZ>
34

>  <Sm>
31.92

>  <Sv>
32

>  <Sse>
52.62

>  <Sp>
35.59

>  <Si>
59.91

>  <MZ>
0.64

>  <Mm>
0.6

>  <Mv>
0.6

>  <Mse>
0.99

>  <Mp>
0.67

>  <Mi>
1.13

>  <NsCH3>
2

>  <NdCH2>
0

>  <NssCH2>
9

>  <NtCH>
0

>  <NdsCH>
0

>  <NaaCH>
3

>  <NsssCH>
1

>  <NddC>
0

>  <NtsC>
0

>  <NdssC>
1

>  <NaasC>
3

>  <NaaaC>
0

>  <NssssC>
1

>  <NsNH3>
0

>  <NsNH2>
0

>  <NssNH2>
0

>  <NdNH>
0

>  <NssNH>
0

>  <NaaNH>
0

>  <NtN>
0

>  <NsssNH>
0

>  <NdsN>
0

>  <NaaN>
0

>  <NsssN>
2

>  <NddsN>
0

>  <NaasN>
0

>  <NssssN>
0

>  <NsOH>
0

>  <NdO>
1

>  <NssO>
0

>  <NaaO>
0

>  <NsF>
0

>  <NsSiH3>
0

>  <NssSiH2>
0

>  <NsssSiH>
0

>  <NssssSi>
0

>  <NsPH2>
0

>  <NssPH>
0

>  <NsssP>
0

>  <NdsssP>
0

>  <NsssssP>
0

>  <NsSH>
0

>  <NdS>
0

>  <NssS>
0

>  <NaaS>
0

>  <NdssS>
0

>  <NddssS>
0

>  <NsCl>
2

>  <NsBr>
0

>  <NsI>
0

>  <fragCpx>
129.05

>  <fMF>
0.38

>  <nHBAcc>
2

>  <nHBDon>
0

>  <Kier1>
19.75

>  <Kier2>
8.35

>  <Lipinski>
1

>  <GhoseFilter>
1

>  <FilterItLogS>
-5.57

>  <VMcGowan>
293.19

>  <LabuteASA>
160.82

>  <PEOE_VSA1>
9.8

>  <PEOE_VSA2>
4.79

>  <PEOE_VSA3>
0

>  <PEOE_VSA4>
0

>  <PEOE_VSA5>
0

>  <PEOE_VSA6>
43.12

>  <PEOE_VSA7>
61.88

>  <PEOE_VSA8>
19.13

>  <PEOE_VSA9>
16.47

>  <PEOE_VSA10>
0

>  <PEOE_VSA11>
0

>  <PEOE_VSA12>
5.91

>  <PEOE_VSA13>
0

>  <SMR_VSA1>
4.79

>  <SMR_VSA2>
0

>  <SMR_VSA3>
9.8

>  <SMR_VSA4>
5.41

>  <SMR_VSA5>
51.99

>  <SMR_VSA6>
26.18

>  <SMR_VSA7>
33.81

>  <SMR_VSA8>
0

>  <SMR_VSA9>
0

>  <SlogP_VSA1>
0

>  <SlogP_VSA2>
47.93

>  <SlogP_VSA3>
11.22

>  <SlogP_VSA4>
5.41

>  <SlogP_VSA5>
45.09

>  <SlogP_VSA6>
18.2

>  <SlogP_VSA7>
10.05

>  <SlogP_VSA8>
0

>  <SlogP_VSA9>
0

>  <SlogP_VSA10>
0

>  <SlogP_VSA11>
0

>  <EState_VSA1>
0

>  <EState_VSA2>
5.91

>  <EState_VSA3>
27.92

>  <EState_VSA4>
31.49

>  <EState_VSA5>
25.93

>  <EState_VSA6>
6.07

>  <EState_VSA7>
12.13

>  <EState_VSA8>
23.65

>  <EState_VSA9>
23.2

>  <EState_VSA10>
4.79

>  <VSA_EState1>
0

>  <VSA_EState2>
17.63

>  <VSA_EState3>
1.05

>  <VSA_EState4>
1.24

>  <VSA_EState5>
0.21

>  <VSA_EState6>
5.8

>  <VSA_EState7>
5.11

>  <VSA_EState8>
8.86

>  <VSA_EState9>
0

>  <apol>
59.43

>  <bpol>
33.4

>  <nRing>
3

>  <nHRing>
2

>  <naRing>
1

>  <naHRing>
0

>  <nARing 2>
2

>  <nAHRing 2>
2

>  <nFRing>
0

>  <nFHRing>
0

>  <nFaRing>
0

>  <nFaHRing>
0

>  <nFARing 2>
0

>  <nFAHRing 2>
0

>  <nRot>
4

>  <SLogP>
4.65

>  <SMR>
104.36

>  <TopoPSA(NO)>
23.55

>  <TopoPSA>
23.55

>  <JGI1>
0.26

>  <JGI2>
0.08

>  <JGI3>
0.06

>  <JGI4>
0.05

>  <JGI5>
0.03

>  <Diameter>
12

>  <Radius>
6

>  <TMWC10>
127.06

>  <TSRW10>
72.9

>  <MW>
382.16

>  <AMW>
7.21

>  <WPath>
1541

>  <WPol>
36

>  <Zagreb1>
132

>  <Zagreb2>
152

>  <mZagreb2>
5.33

>  <yes>


>  <nAR-cont>
1

>  <nHA-cont>
0.921834225

>  <MWHBN>
0.102307479

>  <MWHBN-cont>
0.743394172

>  <TPSA-cont>
0.835606376

>  <pka_cont>
0.97

>  <yes.1>


>  <BBB_SCORE>
5.193138236

>  <MMFF94 Energy>
81.763

$$$$
Compound 983
Actelion Java MolfileCreator 2.0

  0  0  0  0  0  0              0 V3000
M  V30 BEGIN CTAB
M  V30 COUNTS 43 45 0 0 0
M  V30 BEGIN ATOM
M  V30 1 Cl -2.7236 1.6815 -4.6496 0
M  V30 2 C -2.8314 0.1851 -3.8046 0
M  V30 3 C -2.3144 0.078 -2.5123 0
M  V30 4 C -3.427 -0.9103 -4.4242 0
M  V30 5 C -2.3895 -1.1355 -1.818 0
M  V30 6 C -3.5045 -2.1239 -3.746 0
M  V30 7 N -1.8494 -1.2614 -0.5185 0
M  V30 8 C -2.9858 -2.2357 -2.4522 0
M  V30 9 C -1.7336 -0.2267 0.4333 0
M  V30 10 C -1.4077 -2.5184 0.0406 0
M  V30 11 O -2.1247 0.9252 0.336 0
M  V30 12 N -1.0793 -0.764 1.5456 0
M  V30 13 C -0.6876 -2.1336 1.3247 0
M  V30 14 C -0.7304 -0.0133 2.7423 0
M  V30 15 C 0.7761 0.2778 2.904 0
M  V30 16 N 1.2531 1.3858 2.0675 0
M  V30 17 C 1.5081 0.9623 0.6704 0
M  V30 18 C 2.7072 1.6001 2.2589 0
M  V30 19 C 2.8383 1.7656 0.7192 0
M  V30 20 C 4.0338 1.0469 0.1049 0
M  V30 21 C 2.7297 3.2076 0.2211 0
M  V30 22 H -1.8463 0.9487 -2.0602 0
M  V30 23 H -3.8304 -0.8232 -5.4293 0
M  V30 24 H -3.9716 -2.9829 -4.2212 0
M  V30 25 H -3.0744 -3.1937 -1.9483 0
M  V30 26 H -2.2859 -3.1333 0.2674 0
M  V30 27 H -0.7493 -3.0523 -0.6517 0
M  V30 28 H -0.9826 -2.7603 2.1712 0
M  V30 29 H 0.3981 -2.1769 1.1971 0
M  V30 30 H -1.0735 -0.6093 3.5962 0
M  V30 31 H -1.2958 0.9257 2.7576 0
M  V30 32 H 0.9272 0.5751 3.9502 0
M  V30 33 H 1.3601 -0.6395 2.7562 0
M  V30 34 H 0.7725 1.3229 -0.0554 0
M  V30 35 H 1.6445 -0.1153 0.5155 0
M  V30 36 H 3.261 0.7458 2.6705 0
M  V30 37 H 2.9574 2.4845 2.8541 0
M  V30 38 H 3.951 1.015 -0.9867 0
M  V30 39 H 4.9689 1.5568 0.3601 0
M  V30 40 H 4.1116 0.014 0.4616 0
M  V30 41 H 2.6128 3.2342 -0.8676 0
M  V30 42 H 1.8715 3.7294 0.6589 0
M  V30 43 H 3.6297 3.7761 0.4794 0
M  V30 END ATOM
M  V30 BEGIN BOND
M  V30 1 1 1 2
M  V30 2 2 2 3
M  V30 3 1 2 4
M  V30 4 1 3 5
M  V30 5 2 4 6
M  V30 6 1 5 7
M  V30 7 2 5 8
M  V30 8 1 7 9
M  V30 9 1 7 10
M  V30 10 2 9 11
M  V30 11 1 9 12
M  V30 12 1 10 13
M  V30 13 1 12 14
M  V30 14 1 14 15
M  V30 15 1 15 16
M  V30 16 1 16 17
M  V30 17 1 16 18
M  V30 18 1 17 19
M  V30 19 1 19 20
M  V30 20 1 19 21
M  V30 21 1 6 8
M  V30 22 1 12 13
M  V30 23 1 18 19
M  V30 24 1 3 22
M  V30 25 1 4 23
M  V30 26 1 6 24
M  V30 27 1 8 25
M  V30 28 1 10 26
M  V30 29 1 10 27
M  V30 30 1 13 28
M  V30 31 1 13 29
M  V30 32 1 14 30
M  V30 33 1 14 31
M  V30 34 1 15 32
M  V30 35 1 15 33
M  V30 36 1 17 34
M  V30 37 1 17 35
M  V30 38 1 18 36
M  V30 39 1 18 37
M  V30 40 1 20 38
M  V30 41 1 20 39
M  V30 42 1 20 40
M  V30 43 1 21 41
M  V30 44 1 21 42
M  V30 45 1 21 43
M  V30 END BOND
M  V30 END CTAB
M  END
>  <Column 1>
1173

>  <level_0>
1314

>  <index>
1314

>  <Unnamed: 0>
1314

>  <NO.>
1326

>  <Name>
zetidoline

>  <IUPAC_name>
1-(3-chlorophenyl)-3-[2-(3-3-dimethylazetidin-1-yl)ethyl]imidazolidin-2-one

>  <SMILES>
CC1(C)CN(CCN2CCN(c3cccc(Cl)c3)C2=O)C1

>  <CID>
72155

>  <logBB>


>  <BBB+/BBB->
BBB+

>  <Inchi>
InChI=1S/C16H22ClN3O/c1-16(2)11-18(12-16)6-7-19-8-9-20(15(19)21)14-5-3-4-13(17)10-14/h3-5-10H-6-9-11-12H2-1-2H3

>  <threshold>
-1

>  <reference>
R1|R13|R19|R6|R24|R27|R27|R27|R30|R30|

>  <group>
B

>  <Class>
1

>  <ABC>
16.68

>  <ABCGG>
13.78

>  <nAcid>
0

>  <nBase>
1

>  <nAromAtom>
6

>  <nAromBond>
6

>  <nAtom>
43

>  <nHeavyAtom>
21

>  <nSpiro>
0

>  <nBridgehead>
0

>  <nHetero>
5

>  <nN>
3

>  <nO>
1

>  <nF>
0

>  <BalabanJ>
1.44

>  <BertzCT>
538.08

>  <nBonds>
45

>  <nBondsO>
23

>  <nBondsS>
38

>  <nBondsD>
1

>  <nBondsT>
0

>  <nBondsA>
6

>  <nBondsM>
7

>  <nBondsKS>
41

>  <nBondsKD>
4

>  <RNCG>
0.21

>  <RPCG>
0.21

>  <FCSP3>
0.56

>  <SZ>
27.33

>  <Sm>
25.63

>  <Sv>
26.04

>  <Sse>
42.85

>  <Sp>
28.55

>  <Si>
48.8

>  <MZ>
0.64

>  <Mm>
0.6

>  <Mv>
0.61

>  <Mse>
1

>  <Mp>
0.66

>  <Mi>
1.13

>  <NsCH3>
2

>  <NdCH2>
0

>  <NssCH2>
6

>  <NtCH>
0

>  <NdsCH>
0

>  <NaaCH>
4

>  <NsssCH>
0

>  <NddC>
0

>  <NtsC>
0

>  <NdssC>
1

>  <NaasC>
2

>  <NaaaC>
0

>  <NssssC>
1

>  <NsNH3>
0

>  <NsNH2>
0

>  <NssNH2>
0

>  <NdNH>
0

>  <NssNH>
0

>  <NaaNH>
0

>  <NtN>
0

>  <NsssNH>
0

>  <NdsN>
0

>  <NaaN>
0

>  <NsssN>
3

>  <NddsN>
0

>  <NaasN>
0

>  <NssssN>
0

>  <NsOH>
0

>  <NdO>
1

>  <NssO>
0

>  <NaaO>
0

>  <NsF>
0

>  <NsSiH3>
0

>  <NssSiH2>
0

>  <NsssSiH>
0

>  <NssssSi>
0

>  <NsPH2>
0

>  <NssPH>
0

>  <NsssP>
0

>  <NdsssP>
0

>  <NsssssP>
0

>  <NsSH>
0

>  <NdS>
0

>  <NssS>
0

>  <NaaS>
0

>  <NdssS>
0

>  <NddssS>
0

>  <NsCl>
1

>  <NsBr>
0

>  <NsI>
0

>  <fragCpx>
109.05

>  <fMF>
0.4

>  <nHBAcc>
2

>  <nHBDon>
0

>  <Kier1>
15.88

>  <Kier2>
6.25

>  <Lipinski>
1

>  <GhoseFilter>
1

>  <FilterItLogS>
-3.52

>  <VMcGowan>
234.57

>  <LabuteASA>
130.81

>  <PEOE_VSA1>
9.8

>  <PEOE_VSA2>
4.9

>  <PEOE_VSA3>
4.79

>  <PEOE_VSA4>
0

>  <PEOE_VSA5>
0

>  <PEOE_VSA6>
31.51

>  <PEOE_VSA7>
23.61

>  <PEOE_VSA8>
49.98

>  <PEOE_VSA9>
0

>  <PEOE_VSA10>
0

>  <PEOE_VSA11>
0

>  <PEOE_VSA12>
0

>  <PEOE_VSA13>
0

>  <SMR_VSA1>
4.79

>  <SMR_VSA2>
0

>  <SMR_VSA3>
9.8

>  <SMR_VSA4>
5.41

>  <SMR_VSA5>
13.85

>  <SMR_VSA6>
44.17

>  <SMR_VSA7>
29.29

>  <SMR_VSA8>
0

>  <SMR_VSA9>
0

>  <SlogP_VSA1>
4.9

>  <SlogP_VSA2>
55.1

>  <SlogP_VSA3>
0

>  <SlogP_VSA4>
5.41

>  <SlogP_VSA5>
13.85

>  <SlogP_VSA6>
24.27

>  <SlogP_VSA7>
5.02

>  <SlogP_VSA8>
0

>  <SlogP_VSA9>
0

>  <SlogP_VSA10>
10.48

>  <SlogP_VSA11>
0

>  <EState_VSA1>
0

>  <EState_VSA2>
6.03

>  <EState_VSA3>
10.44

>  <EState_VSA4>
44.96

>  <EState_VSA5>
0

>  <EState_VSA6>
0

>  <EState_VSA7>
34.07

>  <EState_VSA8>
18.75

>  <EState_VSA9>
11.6

>  <EState_VSA10>
4.79

>  <VSA_EState1>
0

>  <VSA_EState2>
18.61

>  <VSA_EState3>
0.67

>  <VSA_EState4>
1.34

>  <VSA_EState5>
0

>  <VSA_EState6>
7.59

>  <VSA_EState7>
0

>  <VSA_EState8>
10.15

>  <VSA_EState9>
0

>  <apol>
47.67

>  <bpol>
28.58

>  <nRing>
3

>  <nHRing>
2

>  <naRing>
1

>  <naHRing>
0

>  <nARing 2>
2

>  <nAHRing 2>
2

>  <nFRing>
0

>  <nFHRing>
0

>  <nFaRing>
0

>  <nFaHRing>
0

>  <nFARing 2>
0

>  <nFAHRing 2>
0

>  <nRot>
4

>  <SLogP>
2.92

>  <SMR>
85.99

>  <TopoPSA(NO)>
26.79

>  <TopoPSA>
26.79

>  <JGI1>
0.26

>  <JGI2>
0.08

>  <JGI3>
0.08

>  <JGI4>
0.04

>  <JGI5>
0.02

>  <Diameter>
12

>  <Radius>
6

>  <TMWC10>
118.22

>  <TSRW10>
69.48

>  <MW>
307.15

>  <AMW>
7.14

>  <WPath>
1034

>  <WPol>
27

>  <Zagreb1>
114

>  <Zagreb2>
133

>  <mZagreb2>
4.42

>  <yes>


>  <nAR-cont>
1

>  <nHA-cont>
0.994529749

>  <MWHBN>
0.114118153

>  <MWHBN-cont>
0.802954873

>  <TPSA-cont>
0.812989164

>  <pka_cont>
0.97

>  <yes.1>


>  <BBB_SCORE>
5.309940388

>  <MMFF94 Energy>
19.742

$$$$
Compound 984
Actelion Java MolfileCreator 2.0

  0  0  0  0  0  0              0 V3000
M  V30 BEGIN CTAB
M  V30 COUNTS 31 32 0 0 0
M  V30 BEGIN ATOM
M  V30 1 O 0.3159 -1.8969 2.8465 0
M  V30 2 C 0.6355 -0.792 2.4412 0
M  V30 3 N 1.8757 -0.2308 2.5868 0
M  V30 4 C -0.2238 0.2265 1.7122 0 CFG=1
M  V30 5 C 1.9181 1.0904 2.0653 0
M  V30 6 O 0.7028 1.2586 1.3251 0
M  V30 7 C -0.8986 -0.3866 0.5198 0
M  V30 8 C 3.0887 1.2754 1.1083 0
M  V30 9 C 1.9498 2.1262 3.1863 0
M  V30 10 C -0.7302 -0.0182 -0.7616 0
M  V30 11 C -1.4134 -0.6526 -1.8968 0
M  V30 12 C -1.6283 -2.0354 -1.9622 0
M  V30 13 C -1.8138 0.1438 -2.9774 0
M  V30 14 C -2.255 -2.6056 -3.0734 0
M  V30 15 C -2.4411 -0.426 -4.0882 0
M  V30 16 C -2.6637 -1.8004 -4.1345 0
M  V30 17 H 2.6273 -0.7121 3.0601 0
M  V30 18 H -0.9538 0.6522 2.4077 0
M  V30 19 H -1.5838 -1.197 0.7625 0
M  V30 20 H 3.0318 0.5593 0.2801 0
M  V30 21 H 3.0746 2.2748 0.6594 0
M  V30 22 H 4.0491 1.1314 1.6145 0
M  V30 23 H 1.0807 2.021 3.8463 0
M  V30 24 H 2.8521 2.0265 3.7988 0
M  V30 25 H 1.9121 3.1431 2.7799 0
M  V30 26 H -0.0694 0.8092 -1.0109 0
M  V30 27 H -1.3003 -2.6857 -1.1547 0
M  V30 28 H -1.6482 1.2186 -2.959 0
M  V30 29 H -2.4183 -3.6794 -3.1106 0
M  V30 30 H -2.7541 0.2039 -4.9164 0
M  V30 31 H -3.1505 -2.2445 -4.9986 0
M  V30 END ATOM
M  V30 BEGIN BOND
M  V30 1 2 1 2
M  V30 2 1 2 3
M  V30 3 1 2 4
M  V30 4 1 3 5
M  V30 5 1 4 6
M  V30 6 1 4 7
M  V30 7 1 5 8
M  V30 8 1 5 9
M  V30 9 2 7 10
M  V30 10 1 10 11
M  V30 11 2 11 12
M  V30 12 1 11 13
M  V30 13 1 12 14
M  V30 14 2 13 15
M  V30 15 2 14 16
M  V30 16 1 5 6
M  V30 17 1 15 16
M  V30 18 1 3 17
M  V30 19 1 4 18
M  V30 20 1 7 19
M  V30 21 1 8 20
M  V30 22 1 8 21
M  V30 23 1 8 22
M  V30 24 1 9 23
M  V30 25 1 9 24
M  V30 26 1 9 25
M  V30 27 1 10 26
M  V30 28 1 12 27
M  V30 29 1 13 28
M  V30 30 1 14 29
M  V30 31 1 15 30
M  V30 32 1 16 31
M  V30 END BOND
M  V30 BEGIN COLLECTION
M  V30 MDLV30/STERAC1 ATOMS=(1 4)
M  V30 END COLLECTION
M  V30 END CTAB
M  END
>  <Column 1>
1174

>  <level_0>
1315

>  <index>
1315

>  <Unnamed: 0>
1315

>  <NO.>
1327

>  <Name>
methastyridone

>  <IUPAC_name>
2-2-dimethyl-5-[(e)-2-phenylethenyl]-1-3-oxazolidin-4-one

>  <SMILES>
CC1(C)NC(=O)C(/C=C/c2ccccc2)O1

>  <CID>
6083100

>  <logBB>


>  <BBB+/BBB->
BBB+

>  <Inchi>
InChI=1S/C13H15NO2/c1-13(2)14-12(15)11(16-13)9-8-10-6-4-3-5-7-10/h3-9-11H-1-2H3-(H-14-15)/b9-8+

>  <threshold>
-1

>  <reference>
R1|R27|R30|

>  <group>
B

>  <Class>
1

>  <ABC>
12.41

>  <ABCGG>
10.8

>  <nAcid>
0

>  <nBase>
0

>  <nAromAtom>
6

>  <nAromBond>
6

>  <nAtom>
31

>  <nHeavyAtom>
16

>  <nSpiro>
0

>  <nBridgehead>
0

>  <nHetero>
3

>  <nN>
1

>  <nO>
2

>  <nF>
0

>  <BalabanJ>
1.73

>  <BertzCT>
409.2

>  <nBonds>
32

>  <nBondsO>
17

>  <nBondsS>
24

>  <nBondsD>
2

>  <nBondsT>
0

>  <nBondsA>
6

>  <nBondsM>
8

>  <nBondsKS>
27

>  <nBondsKD>
5

>  <RNCG>
0.24

>  <RPCG>
0.18

>  <FCSP3>
0.31

>  <SZ>
19.33

>  <Sm>
18.09

>  <Sv>
19.25

>  <Sse>
30.98

>  <Sp>
20.61

>  <Si>
34.82

>  <MZ>
0.62

>  <Mm>
0.58

>  <Mv>
0.62

>  <Mse>
1

>  <Mp>
0.66

>  <Mi>
1.12

>  <NsCH3>
2

>  <NdCH2>
0

>  <NssCH2>
0

>  <NtCH>
0

>  <NdsCH>
2

>  <NaaCH>
5

>  <NsssCH>
1

>  <NddC>
0

>  <NtsC>
0

>  <NdssC>
1

>  <NaasC>
1

>  <NaaaC>
0

>  <NssssC>
1

>  <NsNH3>
0

>  <NsNH2>
0

>  <NssNH2>
0

>  <NdNH>
0

>  <NssNH>
1

>  <NaaNH>
0

>  <NtN>
0

>  <NsssNH>
0

>  <NdsN>
0

>  <NaaN>
0

>  <NsssN>
0

>  <NddsN>
0

>  <NaasN>
0

>  <NssssN>
0

>  <NsOH>
0

>  <NdO>
1

>  <NssO>
1

>  <NaaO>
0

>  <NsF>
0

>  <NsSiH3>
0

>  <NssSiH2>
0

>  <NsssSiH>
0

>  <NssssSi>
0

>  <NsPH2>
0

>  <NssPH>
0

>  <NsssP>
0

>  <NdsssP>
0

>  <NsssssP>
0

>  <NsSH>
0

>  <NdS>
0

>  <NssS>
0

>  <NaaS>
0

>  <NdssS>
0

>  <NddssS>
0

>  <NsCl>
0

>  <NsBr>
0

>  <NsI>
0

>  <fragCpx>
49.03

>  <fMF>
0.42

>  <nHBAcc>
2

>  <nHBDon>
1

>  <Kier1>
12.46

>  <Kier2>
5.1

>  <Lipinski>
1

>  <GhoseFilter>
1

>  <FilterItLogS>
-2.78

>  <VMcGowan>
172.53

>  <LabuteASA>
95.12

>  <PEOE_VSA1>
10.05

>  <PEOE_VSA2>
4.79

>  <PEOE_VSA3>
0

>  <PEOE_VSA4>
0

>  <PEOE_VSA5>
0

>  <PEOE_VSA6>
36.41

>  <PEOE_VSA7>
25.49

>  <PEOE_VSA8>
0

>  <PEOE_VSA9>
0

>  <PEOE_VSA10>
5.72

>  <PEOE_VSA11>
6.1

>  <PEOE_VSA12>
0

>  <PEOE_VSA13>
5.91

>  <SMR_VSA1>
9.53

>  <SMR_VSA2>
0

>  <SMR_VSA3>
5.32

>  <SMR_VSA4>
0

>  <SMR_VSA5>
25.68

>  <SMR_VSA6>
0

>  <SMR_VSA7>
41.97

>  <SMR_VSA8>
0

>  <SMR_VSA9>
0

>  <SlogP_VSA1>
5.32

>  <SlogP_VSA2>
17.74

>  <SlogP_VSA3>
9.53

>  <SlogP_VSA4>
0

>  <SlogP_VSA5>
19.41

>  <SlogP_VSA6>
36.41

>  <SlogP_VSA7>
0

>  <SlogP_VSA8>
6.08

>  <SlogP_VSA9>
0

>  <SlogP_VSA10>
0

>  <SlogP_VSA11>
0

>  <EState_VSA1>
11.83

>  <EState_VSA2>
5.91

>  <EState_VSA3>
0

>  <EState_VSA4>
5.56

>  <EState_VSA5>
0

>  <EState_VSA6>
6.08

>  <EState_VSA7>
50.26

>  <EState_VSA8>
5.32

>  <EState_VSA9>
4.74

>  <EState_VSA10>
4.79

>  <VSA_EState1>
5.54

>  <VSA_EState2>
11.52

>  <VSA_EState3>
2.77

>  <VSA_EState4>
0.49

>  <VSA_EState5>
-0.09

>  <VSA_EState6>
9.83

>  <VSA_EState7>
3.18

>  <VSA_EState8>
3.67

>  <VSA_EState9>
0

>  <apol>
34.42

>  <bpol>
18.22

>  <nRing>
2

>  <nHRing>
1

>  <naRing>
1

>  <naHRing>
0

>  <nARing 2>
1

>  <nAHRing 2>
1

>  <nFRing>
0

>  <nFHRing>
0

>  <nFaRing>
0

>  <nFaHRing>
0

>  <nFARing 2>
0

>  <nFAHRing 2>
0

>  <nRot>
2

>  <SLogP>
1.95

>  <SMR>
62.57

>  <TopoPSA(NO)>
38.33

>  <TopoPSA>
38.33

>  <JGI1>
0.26

>  <JGI2>
0.07

>  <JGI3>
0.08

>  <JGI4>
0.03

>  <JGI5>
0.03

>  <Diameter>
9

>  <Radius>
5

>  <TMWC10>
103.16

>  <TSRW10>
62.47

>  <MW>
217.11

>  <AMW>
7

>  <WPath>
474

>  <WPol>
19

>  <Zagreb1>
82

>  <Zagreb2>
92

>  <mZagreb2>
3.44

>  <yes>


>  <nAR-cont>
0.816016

>  <nHA-cont>
0.954961865

>  <MWHBN>
0.203601672

>  <MWHBN-cont>
0.999991084

>  <TPSA-cont>
0.732432798

>  <pka_cont>
0.97

>  <yes.1>


>  <BBB_SCORE>
5.220830087

>  <MMFF94 Energy>
21.883

$$$$
Compound 985
Actelion Java MolfileCreator 2.0

  0  0  0  0  0  0              0 V3000
M  V30 BEGIN CTAB
M  V30 COUNTS 16 16 0 0 0
M  V30 BEGIN ATOM
M  V30 1 O 0.6269 1.6464 2.6667 0
M  V30 2 C 0.5659 1.021 1.6226 0
M  V30 3 O -0.5902 0.5511 1.0767 0
M  V30 4 N 1.6128 0.6965 0.8493 0
M  V30 5 C -0.2855 -0.1359 -0.1501 0
M  V30 6 C 1.2157 0.0035 -0.2367 0
M  V30 7 C -0.6978 -1.5942 -0.0251 0
M  V30 8 C -0.9732 0.5722 -1.3069 0
M  V30 9 O 1.9457 -0.4233 -1.1151 0
M  V30 10 H 2.5637 0.943 1.0616 0
M  V30 11 H -0.455 -2.1598 -0.9306 0
M  V30 12 H -1.7733 -1.68 0.165 0
M  V30 13 H -0.1901 -2.0752 0.8189 0
M  V30 14 H -0.6598 1.6209 -1.3678 0
M  V30 15 H -2.0601 0.5766 -1.1701 0
M  V30 16 H -0.7416 0.0955 -2.2649 0
M  V30 END ATOM
M  V30 BEGIN BOND
M  V30 1 2 1 2
M  V30 2 1 2 3
M  V30 3 1 2 4
M  V30 4 1 3 5
M  V30 5 1 4 6
M  V30 6 1 5 7
M  V30 7 1 5 8
M  V30 8 2 6 9
M  V30 9 1 5 6
M  V30 10 1 4 10
M  V30 11 1 7 11
M  V30 12 1 7 12
M  V30 13 1 7 13
M  V30 14 1 8 14
M  V30 15 1 8 15
M  V30 16 1 8 16
M  V30 END BOND
M  V30 END CTAB
M  END
>  <Column 1>
1175

>  <level_0>
1316

>  <index>
1316

>  <Unnamed: 0>
1316

>  <NO.>
1328

>  <Name>
dimethadione

>  <IUPAC_name>
5-5-dimethyl-1-3-oxazolidine-2-4-dione

>  <SMILES>
CC1(C)OC(=O)NC1=O

>  <CID>
3081

>  <logBB>


>  <BBB+/BBB->
BBB+

>  <Inchi>
InChI=1S/C5H7NO3/c1-5(2)3(7)6-4(8)9-5/h1-2H3-(H-6-7-8)

>  <threshold>
-1

>  <reference>
R1|R13|R19|R6|R24|R27|R27|R27|R30|R30|

>  <group>
B

>  <Class>
1

>  <ABC>
6.84

>  <ABCGG>
6.96

>  <nAcid>
0

>  <nBase>
0

>  <nAromAtom>
0

>  <nAromBond>
0

>  <nAtom>
16

>  <nHeavyAtom>
9

>  <nSpiro>
0

>  <nBridgehead>
0

>  <nHetero>
4

>  <nN>
1

>  <nO>
3

>  <nF>
0

>  <BalabanJ>
2.58

>  <BertzCT>
173.04

>  <nBonds>
16

>  <nBondsO>
9

>  <nBondsS>
14

>  <nBondsD>
2

>  <nBondsT>
0

>  <nBondsA>
0

>  <nBondsM>
2

>  <nBondsKS>
14

>  <nBondsKD>
2

>  <RNCG>
0.36

>  <RPCG>
0.34

>  <FCSP3>
0.6

>  <SZ>
11.33

>  <Sm>
10.75

>  <Sv>
9.8

>  <Sse>
16.76

>  <Sp>
9.89

>  <Si>
18.37

>  <MZ>
0.71

>  <Mm>
0.67

>  <Mv>
0.61

>  <Mse>
1.05

>  <Mp>
0.62

>  <Mi>
1.15

>  <NsCH3>
2

>  <NdCH2>
0

>  <NssCH2>
0

>  <NtCH>
0

>  <NdsCH>
0

>  <NaaCH>
0

>  <NsssCH>
0

>  <NddC>
0

>  <NtsC>
0

>  <NdssC>
2

>  <NaasC>
0

>  <NaaaC>
0

>  <NssssC>
1

>  <NsNH3>
0

>  <NsNH2>
0

>  <NssNH2>
0

>  <NdNH>
0

>  <NssNH>
1

>  <NaaNH>
0

>  <NtN>
0

>  <NsssNH>
0

>  <NdsN>
0

>  <NaaN>
0

>  <NsssN>
0

>  <NddsN>
0

>  <NaasN>
0

>  <NssssN>
0

>  <NsOH>
0

>  <NdO>
2

>  <NssO>
1

>  <NaaO>
0

>  <NsF>
0

>  <NsSiH3>
0

>  <NssSiH2>
0

>  <NsssSiH>
0

>  <NssssSi>
0

>  <NsPH2>
0

>  <NssPH>
0

>  <NsssP>
0

>  <NdsssP>
0

>  <NsssssP>
0

>  <NsSH>
0

>  <NdS>
0

>  <NssS>
0

>  <NaaS>
0

>  <NdssS>
0

>  <NddssS>
0

>  <NsCl>
0

>  <NsBr>
0

>  <NsI>
0

>  <fragCpx>
9.04

>  <fMF>
0.31

>  <nHBAcc>
3

>  <nHBDon>
1

>  <Kier1>
7.11

>  <Kier2>
2

>  <Lipinski>
1

>  <GhoseFilter>
0

>  <FilterItLogS>
-1

>  <VMcGowan>
89.44

>  <LabuteASA>
52.18

>  <PEOE_VSA1>
4.74

>  <PEOE_VSA2>
10.11

>  <PEOE_VSA3>
4.79

>  <PEOE_VSA4>
0

>  <PEOE_VSA5>
0

>  <PEOE_VSA6>
0

>  <PEOE_VSA7>
13.85

>  <PEOE_VSA8>
0

>  <PEOE_VSA9>
0

>  <PEOE_VSA10>
0

>  <PEOE_VSA11>
5.6

>  <PEOE_VSA12>
0

>  <PEOE_VSA13>
5.91

>  <SMR_VSA1>
14.33

>  <SMR_VSA2>
0

>  <SMR_VSA3>
5.32

>  <SMR_VSA4>
0

>  <SMR_VSA5>
19.45

>  <SMR_VSA6>
0

>  <SMR_VSA7>
0

>  <SMR_VSA8>
0

>  <SMR_VSA9>
0

>  <SlogP_VSA1>
5.32

>  <SlogP_VSA2>
17.6

>  <SlogP_VSA3>
9.53

>  <SlogP_VSA4>
0

>  <SlogP_VSA5>
13.85

>  <SlogP_VSA6>
0

>  <SlogP_VSA7>
0

>  <SlogP_VSA8>
0

>  <SlogP_VSA9>
0

>  <SlogP_VSA10>
4.79

>  <SlogP_VSA11>
0

>  <EState_VSA1>
11.69

>  <EState_VSA2>
5.91

>  <EState_VSA3>
0

>  <EState_VSA4>
0

>  <EState_VSA5>
13.85

>  <EState_VSA6>
0

>  <EState_VSA7>
5.32

>  <EState_VSA8>
4.74

>  <EState_VSA9>
0

>  <EState_VSA10>
9.59

>  <VSA_EState1>
4.56

>  <VSA_EState2>
20.96

>  <VSA_EState3>
2.01

>  <VSA_EState4>
-0.98

>  <VSA_EState5>
-0.38

>  <VSA_EState6>
0

>  <VSA_EState7>
-0.66

>  <VSA_EState8>
3.07

>  <VSA_EState9>
0

>  <apol>
16.52

>  <bpol>
11.06

>  <nRing>
1

>  <nHRing>
1

>  <naRing>
0

>  <naHRing>
0

>  <nARing 2>
1

>  <nAHRing 2>
1

>  <nFRing>
0

>  <nFHRing>
0

>  <nFaRing>
0

>  <nFaHRing>
0

>  <nFARing 2>
0

>  <nFAHRing 2>
0

>  <nRot>
0

>  <SLogP>
0.03

>  <SMR>
28.7

>  <TopoPSA(NO)>
55.4

>  <TopoPSA>
55.4

>  <JGI1>
0.44

>  <JGI2>
0.13

>  <JGI3>
0.13

>  <JGI4>
0

>  <JGI5>
0

>  <Diameter>
4

>  <Radius>
3

>  <TMWC10>
83.49

>  <TSRW10>
52.89

>  <MW>
129.04

>  <AMW>
8.07

>  <WPath>
79

>  <WPol>
10

>  <Zagreb1>
46

>  <Zagreb2>
52

>  <mZagreb2>
1.88

>  <yes>


>  <nAR-cont>
0.816016

>  <nHA-cont>
0.56070381

>  <MWHBN>
0.352125774

>  <MWHBN-cont>
0.662280962

>  <TPSA-cont>
0.613273599

>  <pka_cont>
0.97

>  <yes.1>


>  <BBB_SCORE>
4.08168845

>  <MMFF94 Energy>
-54.767

$$$$
Compound 986
Actelion Java MolfileCreator 2.0

  0  0  0  0  0  0              0 V3000
M  V30 BEGIN CTAB
M  V30 COUNTS 24 25 0 0 0
M  V30 BEGIN ATOM
M  V30 1 Br 4.1478 -0.8122 -1.4624 0
M  V30 2 C 2.2647 -0.6662 -1.3794 0
M  V30 3 C 1.6618 -0.1311 -0.2389 0
M  V30 4 C 1.491 -1.1014 -2.4523 0
M  V30 5 C 0.2638 -0.014 -0.1655 0
M  V30 6 C 0.1018 -1.002 -2.3826 0
M  V30 7 C -0.4965 -0.4596 -1.2436 0
M  V30 8 C -0.4624 0.5061 1.0555 0
M  V30 9 N -1.8784 -0.3663 -1.1717 0
M  V30 10 O -1.8296 0.8971 0.7749 0
M  V30 11 C 0.1931 1.7713 1.6286 0
M  V30 12 C -0.5197 -0.582 2.1371 0
M  V30 13 C -2.5603 0.31 -0.2028 0
M  V30 14 O -3.7816 0.4115 -0.2464 0
M  V30 15 H 2.286 0.1814 0.5942 0
M  V30 16 H 1.9571 -1.5205 -3.3401 0
M  V30 17 H -0.4991 -1.3456 -3.2202 0
M  V30 18 H -2.4593 -0.7523 -1.9032 0
M  V30 19 H 0.2581 2.5556 0.8647 0
M  V30 20 H 1.2001 1.5874 2.0162 0
M  V30 21 H -0.4095 2.1852 2.4462 0
M  V30 22 H -1.0393 -1.4757 1.7712 0
M  V30 23 H -1.0824 -0.2338 3.0112 0
M  V30 24 H 0.4797 -0.8843 2.468 0
M  V30 END ATOM
M  V30 BEGIN BOND
M  V30 1 1 1 2
M  V30 2 2 2 3
M  V30 3 1 2 4
M  V30 4 1 3 5
M  V30 5 2 4 6
M  V30 6 2 5 7
M  V30 7 1 5 8
M  V30 8 1 7 9
M  V30 9 1 8 10
M  V30 10 1 8 11
M  V30 11 1 8 12
M  V30 12 1 9 13
M  V30 13 2 13 14
M  V30 14 1 6 7
M  V30 15 1 10 13
M  V30 16 1 3 15
M  V30 17 1 4 16
M  V30 18 1 6 17
M  V30 19 1 9 18
M  V30 20 1 11 19
M  V30 21 1 11 20
M  V30 22 1 11 21
M  V30 23 1 12 22
M  V30 24 1 12 23
M  V30 25 1 12 24
M  V30 END BOND
M  V30 END CTAB
M  END
>  <Column 1>
1176

>  <level_0>
1317

>  <index>
1317

>  <Unnamed: 0>
1317

>  <NO.>
1329

>  <Name>
brofoxine

>  <IUPAC_name>
6-bromo-4-4-dimethyl-1h-3-1-benzoxazin-2-one

>  <SMILES>
CC1(C)OC(=O)Nc2ccc(Br)cc21

>  <CID>
30630

>  <logBB>


>  <BBB+/BBB->
BBB+

>  <Inchi>
InChI=1S/C10H10BrNO2/c1-10(2)7-5-6(11)3-4-8(7)12-9(13)14-10/h3-5H-1-2H3-(H-12-13)

>  <threshold>
-1

>  <reference>
R1|R13|R19|R6|R24|R27|R27|R27|R30|R30|

>  <group>
B

>  <Class>
1

>  <ABC>
11.04

>  <ABCGG>
9.63

>  <nAcid>
0

>  <nBase>
0

>  <nAromAtom>
6

>  <nAromBond>
6

>  <nAtom>
24

>  <nHeavyAtom>
14

>  <nSpiro>
0

>  <nBridgehead>
0

>  <nHetero>
4

>  <nN>
1

>  <nO>
2

>  <nF>
0

>  <BalabanJ>
2.13

>  <BertzCT>
401.11

>  <nBonds>
25

>  <nBondsO>
15

>  <nBondsS>
18

>  <nBondsD>
1

>  <nBondsT>
0

>  <nBondsA>
6

>  <nBondsM>
7

>  <nBondsKS>
21

>  <nBondsKD>
4

>  <RNCG>
0.38

>  <RPCG>
0.35

>  <FCSP3>
0.3

>  <SZ>
21.33

>  <Sm>
21.32

>  <Sv>
16.19

>  <Sse>
24.44

>  <Sp>
17.44

>  <Si>
26.84

>  <MZ>
0.89

>  <Mm>
0.89

>  <Mv>
0.67

>  <Mse>
1.02

>  <Mp>
0.73

>  <Mi>
1.12

>  <NsCH3>
2

>  <NdCH2>
0

>  <NssCH2>
0

>  <NtCH>
0

>  <NdsCH>
0

>  <NaaCH>
3

>  <NsssCH>
0

>  <NddC>
0

>  <NtsC>
0

>  <NdssC>
1

>  <NaasC>
3

>  <NaaaC>
0

>  <NssssC>
1

>  <NsNH3>
0

>  <NsNH2>
0

>  <NssNH2>
0

>  <NdNH>
0

>  <NssNH>
1

>  <NaaNH>
0

>  <NtN>
0

>  <NsssNH>
0

>  <NdsN>
0

>  <NaaN>
0

>  <NsssN>
0

>  <NddsN>
0

>  <NaasN>
0

>  <NssssN>
0

>  <NsOH>
0

>  <NdO>
1

>  <NssO>
1

>  <NaaO>
0

>  <NsF>
0

>  <NsSiH3>
0

>  <NssSiH2>
0

>  <NsssSiH>
0

>  <NssssSi>
0

>  <NsPH2>
0

>  <NssPH>
0

>  <NsssP>
0

>  <NdsssP>
0

>  <NsssssP>
0

>  <NsSH>
0

>  <NdS>
0

>  <NssS>
0

>  <NaaS>
0

>  <NdssS>
0

>  <NddssS>
0

>  <NsCl>
0

>  <NsBr>
1

>  <NsI>
0

>  <fragCpx>
43.04

>  <fMF>
0.42

>  <nHBAcc>
2

>  <nHBDon>
1

>  <Kier1>
10.52

>  <Kier2>
3.54

>  <Lipinski>
1

>  <GhoseFilter>
1

>  <FilterItLogS>
-3.79

>  <VMcGowan>
152.06

>  <LabuteASA>
90.58

>  <PEOE_VSA1>
4.74

>  <PEOE_VSA2>
5.32

>  <PEOE_VSA3>
4.79

>  <PEOE_VSA4>
0

>  <PEOE_VSA5>
0

>  <PEOE_VSA6>
15.93

>  <PEOE_VSA7>
32.05

>  <PEOE_VSA8>
10.04

>  <PEOE_VSA9>
5.69

>  <PEOE_VSA10>
5.6

>  <PEOE_VSA11>
0

>  <PEOE_VSA12>
0

>  <PEOE_VSA13>
0

>  <SMR_VSA1>
9.53

>  <SMR_VSA2>
0

>  <SMR_VSA3>
0

>  <SMR_VSA4>
0

>  <SMR_VSA5>
19.45

>  <SMR_VSA6>
5.32

>  <SMR_VSA7>
28.24

>  <SMR_VSA8>
0

>  <SMR_VSA9>
0

>  <SlogP_VSA1>
5.32

>  <SlogP_VSA2>
6.09

>  <SlogP_VSA3>
10.34

>  <SlogP_VSA4>
0

>  <SlogP_VSA5>
19.41

>  <SlogP_VSA6>
22.67

>  <SlogP_VSA7>
0

>  <SlogP_VSA8>
0

>  <SlogP_VSA9>
0

>  <SlogP_VSA10>
10.48

>  <SlogP_VSA11>
0

>  <EState_VSA1>
11.69

>  <EState_VSA2>
0

>  <EState_VSA3>
0

>  <EState_VSA4>
15.72

>  <EState_VSA5>
0

>  <EState_VSA6>
0

>  <EState_VSA7>
32.05

>  <EState_VSA8>
21.25

>  <EState_VSA9>
4.74

>  <EState_VSA10>
4.79

>  <VSA_EState1>
6.16

>  <VSA_EState2>
11.18

>  <VSA_EState3>
2.66

>  <VSA_EState4>
1.22

>  <VSA_EState5>
0

>  <VSA_EState6>
5.71

>  <VSA_EState7>
-0.4

>  <VSA_EState8>
3.74

>  <VSA_EState9>
0

>  <apol>
29.12

>  <bpol>
14.59

>  <nRing>
2

>  <nHRing>
1

>  <naRing>
1

>  <naHRing>
0

>  <nARing 2>
1

>  <nAHRing 2>
1

>  <nFRing>
1

>  <nFHRing>
1

>  <nFaRing>
0

>  <nFaHRing>
0

>  <nFARing 2>
1

>  <nFAHRing 2>
1

>  <nRot>
0

>  <SLogP>
3.25

>  <SMR>
57.27

>  <TopoPSA(NO)>
38.33

>  <TopoPSA>
38.33

>  <JGI1>
0.33

>  <JGI2>
0.1

>  <JGI3>
0.07

>  <JGI4>
0.07

>  <JGI5>
0.02

>  <Diameter>
7

>  <Radius>
4

>  <TMWC10>
100.09

>  <TSRW10>
46.5

>  <MW>
254.99

>  <AMW>
10.62

>  <WPath>
268

>  <WPol>
22

>  <Zagreb1>
76

>  <Zagreb2>
89

>  <mZagreb2>
2.9

>  <yes>


>  <nAR-cont>
0.816016

>  <nHA-cont>
0.887625254

>  <MWHBN>
0.187870971

>  <MWHBN-cont>
0.994220597

>  <TPSA-cont>
0.732432798

>  <pka_cont>
0.97

>  <yes.1>


>  <BBB_SCORE>
5.144837746

>  <MMFF94 Energy>
-32.849

$$$$
Compound 987
Actelion Java MolfileCreator 2.0

  0  0  0  0  0  0              0 V3000
M  V30 BEGIN CTAB
M  V30 COUNTS 61 65 0 0 0
M  V30 BEGIN ATOM
M  V30 1 Cl -2.0655 0.9084 -1.6522 0
M  V30 2 C -1.3908 1.3905 -0.0167 0 CFG=2
M  V30 3 C -2.367 2.4908 0.7136 0
M  V30 4 C 0.0809 1.8802 -0.2434 0
M  V30 5 C -1.3563 0.0915 0.8735 0
M  V30 6 C -3.3492 1.7728 1.6748 0
M  V30 7 C -1.5979 3.5651 1.5017 0
M  V30 8 C -3.2179 3.3205 -0.285 0
M  V30 9 Cl 0.215 3.2456 -1.4158 0
M  V30 10 C 1.0409 0.7755 -0.7136 0
M  V30 11 C -0.2845 -0.9854 0.5562 0
M  V30 12 C -2.7604 -0.5541 1.0469 0
M  V30 13 C -3.6277 2.185 2.9259 0
M  V30 14 C -3.8974 0.459 1.2002 0 CFG=2
M  V30 15 C -1.8625 3.9597 2.7552 0
M  V30 16 C 1.1333 -0.437 0.248 0
M  V30 17 C -0.5506 -1.9516 -0.597 0
M  V30 18 C -2.9477 3.342 3.5346 0
M  V30 19 F -4.5239 0.6135 0.0057 0
M  V30 20 C 1.8656 -1.6663 -0.4363 0 CFG=1
M  V30 21 C 1.8024 0.0173 1.5658 0
M  V30 22 C 0.7739 -2.6943 -0.7296 0 CFG=2
M  V30 23 O -3.2393 3.7377 4.6546 0
M  V30 24 O 2.3983 -1.33 -1.7191 0
M  V30 25 C 2.9744 -2.2897 0.4275 0
M  V30 26 O 0.9651 -3.1596 -2.0564 0
M  V30 27 C 1.9525 -2.3231 -2.6509 0
M  V30 28 O 2.742 -3.1256 1.3071 0
M  V30 29 C 4.3996 -1.7971 0.1953 0
M  V30 30 C 1.3558 -1.626 -3.8672 0
M  V30 31 C 3.1363 -3.1929 -3.0603 0
M  V30 32 O 5.2302 -2.0834 1.3123 0
M  V30 33 H 0.4812 2.2813 0.6908 0
M  V30 34 H -1.0704 0.4495 1.8759 0
M  V30 35 H -0.8422 4.1421 0.9733 0
M  V30 36 H -3.8046 4.0912 0.2335 0
M  V30 37 H -2.595 3.8406 -1.0199 0
M  V30 38 H -3.9454 2.7149 -0.8337 0
M  V30 39 H 0.7296 0.4468 -1.7109 0
M  V30 40 H 2.0475 1.1981 -0.84 0
M  V30 41 H -0.2152 -1.6139 1.4591 0
M  V30 42 H -3.0016 -1.2119 0.2056 0
M  V30 43 H -2.7254 -1.1891 1.942 0
M  V30 44 H -4.3108 1.6591 3.5849 0
M  V30 45 H -4.6513 0.0533 1.8839 0
M  V30 46 H -1.327 4.7702 3.2362 0
M  V30 47 H -0.8059 -1.4553 -1.5343 0
M  V30 48 H -1.3591 -2.656 -0.3763 0
M  V30 49 H 2.8062 0.414 1.3843 0
M  V30 50 H 1.8829 -0.803 2.2865 0
M  V30 51 H 1.2334 0.8029 2.0716 0
M  V30 52 H 0.7742 -3.5544 -0.0519 0
M  V30 53 H 4.815 -2.295 -0.6834 0
M  V30 54 H 4.4049 -0.7157 0.0411 0
M  V30 55 H 1.0053 -2.351 -4.6093 0
M  V30 56 H 2.0812 -0.9525 -4.3354 0
M  V30 57 H 0.4898 -1.0194 -3.5816 0
M  V30 58 H 2.8407 -3.9419 -3.8027 0
M  V30 59 H 3.5304 -3.7418 -2.198 0
M  V30 60 H 3.9544 -2.5879 -3.4646 0
M  V30 61 H 4.9185 -2.9365 1.6752 0
M  V30 END ATOM
M  V30 BEGIN BOND
M  V30 1 1 1 2
M  V30 2 1 2 3
M  V30 3 1 2 4
M  V30 4 1 2 5
M  V30 5 1 3 6
M  V30 6 1 3 7
M  V30 7 1 3 8
M  V30 8 1 4 9
M  V30 9 1 4 10
M  V30 10 1 5 11
M  V30 11 1 5 12
M  V30 12 2 6 13
M  V30 13 1 6 14
M  V30 14 2 7 15
M  V30 15 1 10 16
M  V30 16 1 11 17
M  V30 17 1 13 18
M  V30 18 1 14 19
M  V30 19 1 16 20
M  V30 20 1 16 21
M  V30 21 1 17 22
M  V30 22 2 18 23
M  V30 23 1 20 24
M  V30 24 1 20 25
M  V30 25 1 22 26
M  V30 26 1 24 27
M  V30 27 2 25 28
M  V30 28 1 25 29
M  V30 29 1 27 30
M  V30 30 1 27 31
M  V30 31 1 29 32
M  V30 32 1 11 16
M  V30 33 1 12 14
M  V30 34 1 15 18
M  V30 35 1 20 22
M  V30 36 1 26 27
M  V30 37 1 4 33
M  V30 38 1 5 34
M  V30 39 1 7 35
M  V30 40 1 8 36
M  V30 41 1 8 37
M  V30 42 1 8 38
M  V30 43 1 10 39
M  V30 44 1 10 40
M  V30 45 1 11 41
M  V30 46 1 12 42
M  V30 47 1 12 43
M  V30 48 1 13 44
M  V30 49 1 14 45
M  V30 50 1 15 46
M  V30 51 1 17 47
M  V30 52 1 17 48
M  V30 53 1 21 49
M  V30 54 1 21 50
M  V30 55 1 21 51
M  V30 56 1 22 52
M  V30 57 1 29 53
M  V30 58 1 29 54
M  V30 59 1 30 55
M  V30 60 1 30 56
M  V30 61 1 30 57
M  V30 62 1 31 58
M  V30 63 1 31 59
M  V30 64 1 31 60
M  V30 65 1 32 61
M  V30 END BOND
M  V30 BEGIN COLLECTION
M  V30 MDLV30/STEABS ATOMS=(4 2 14 20 22)
M  V30 END COLLECTION
M  V30 END CTAB
M  END
>  <Column 1>
1177

>  <level_0>
1318

>  <index>
1318

>  <Unnamed: 0>
1318

>  <NO.>
1330

>  <Name>
schembl25227

>  <IUPAC_name>
(4r-8s-12r-19s)-11-12-dichloro-19-fluoro-8-(2-hydroxyacetyl)-6-6-9-13-tetramethyl-5-7-dioxapentacyclo[10.8.0.02-9.04-8.013-18]icosa-14-17-dien-16-one

>  <SMILES>
CC1(C)O[C@@H]2CC3C4C[C@H](F)C5=CC(=O)C=CC5(C)[C@@]4(Cl)C(Cl)CC3(C)[C@]2(C(=O)CO)O1

>  <CID>
19406

>  <logBB>


>  <BBB+/BBB->
BBB+

>  <Inchi>
InChI=1S/C24H29Cl2FO5/c1-20(2)31-19-9-13-14-8-16(27)15-7-12(29)5-6-21(15-3)23(14-26)17(25)10-22(13-4)24(19-32-20)18(30)11-28/h5-7-13-14-16-17-19-28H-8-11H2-1-4H3/t13?-14?-16--17?-19+-21?-22?-23--24+/m0/s1

>  <threshold>
-1

>  <reference>
R1|R27|R30|

>  <group>
B

>  <Class>
1

>  <ABC>
26.05

>  <ABCGG>
21.42

>  <nAcid>
0

>  <nBase>
0

>  <nAromAtom>
0

>  <nAromBond>
0

>  <nAtom>
61

>  <nHeavyAtom>
32

>  <nSpiro>
0

>  <nBridgehead>
0

>  <nHetero>
8

>  <nN>
0

>  <nO>
5

>  <nF>
1

>  <BalabanJ>
1.61

>  <BertzCT>
964.04

>  <nBonds>
65

>  <nBondsO>
36

>  <nBondsS>
61

>  <nBondsD>
4

>  <nBondsT>
0

>  <nBondsA>
0

>  <nBondsM>
4

>  <nBondsKS>
61

>  <nBondsKD>
4

>  <RNCG>
0.16

>  <RPCG>
0.09

>  <FCSP3>
0.75

>  <SZ>
42.67

>  <Sm>
40.58

>  <Sv>
38.26

>  <Sse>
62.01

>  <Sp>
40.92

>  <Si>
68.92

>  <MZ>
0.7

>  <Mm>
0.67

>  <Mv>
0.63

>  <Mse>
1.02

>  <Mp>
0.67

>  <Mi>
1.13

>  <NsCH3>
4

>  <NdCH2>
0

>  <NssCH2>
4

>  <NtCH>
0

>  <NdsCH>
3

>  <NaaCH>
0

>  <NsssCH>
5

>  <NddC>
0

>  <NtsC>
0

>  <NdssC>
3

>  <NaasC>
0

>  <NaaaC>
0

>  <NssssC>
5

>  <NsNH3>
0

>  <NsNH2>
0

>  <NssNH2>
0

>  <NdNH>
0

>  <NssNH>
0

>  <NaaNH>
0

>  <NtN>
0

>  <NsssNH>
0

>  <NdsN>
0

>  <NaaN>
0

>  <NsssN>
0

>  <NddsN>
0

>  <NaasN>
0

>  <NssssN>
0

>  <NsOH>
1

>  <NdO>
2

>  <NssO>
2

>  <NaaO>
0

>  <NsF>
1

>  <NsSiH3>
0

>  <NssSiH2>
0

>  <NsssSiH>
0

>  <NssssSi>
0

>  <NsPH2>
0

>  <NssPH>
0

>  <NsssP>
0

>  <NdsssP>
0

>  <NsssssP>
0

>  <NsSH>
0

>  <NdS>
0

>  <NssS>
0

>  <NaaS>
0

>  <NdssS>
0

>  <NddssS>
0

>  <NsCl>
2

>  <NsBr>
0

>  <NsI>
0

>  <fragCpx>
304.08

>  <fMF>
0.33

>  <nHBAcc>
5

>  <nHBDon>
1

>  <Kier1>
23.73

>  <Kier2>
7.03

>  <Lipinski>
1

>  <GhoseFilter>
0

>  <FilterItLogS>
-4.99

>  <VMcGowan>
333.11

>  <LabuteASA>
196.84

>  <PEOE_VSA1>
14.58

>  <PEOE_VSA2>
9.59

>  <PEOE_VSA3>
4.39

>  <PEOE_VSA4>
0

>  <PEOE_VSA5>
23.2

>  <PEOE_VSA6>
19.92

>  <PEOE_VSA7>
62.67

>  <PEOE_VSA8>
10.83

>  <PEOE_VSA9>
16.36

>  <PEOE_VSA10>
12.78

>  <PEOE_VSA11>
22.95

>  <PEOE_VSA12>
0

>  <PEOE_VSA13>
0

>  <SMR_VSA1>
28.56

>  <SMR_VSA2>
0

>  <SMR_VSA3>
0

>  <SMR_VSA4>
22.67

>  <SMR_VSA5>
80.87

>  <SMR_VSA6>
6.61

>  <SMR_VSA7>
23.8

>  <SMR_VSA8>
0

>  <SMR_VSA9>
0

>  <SlogP_VSA1>
0

>  <SlogP_VSA2>
57.19

>  <SlogP_VSA3>
19.06

>  <SlogP_VSA4>
22.67

>  <SlogP_VSA5>
46.96

>  <SlogP_VSA6>
23.8

>  <SlogP_VSA7>
0

>  <SlogP_VSA8>
0

>  <SlogP_VSA9>
0

>  <SlogP_VSA10>
4.39

>  <SlogP_VSA11>
0

>  <EState_VSA1>
57.14

>  <EState_VSA2>
24.04

>  <EState_VSA3>
18.41

>  <EState_VSA4>
0

>  <EState_VSA5>
12.15

>  <EState_VSA6>
19.92

>  <EState_VSA7>
13.85

>  <EState_VSA8>
0

>  <EState_VSA9>
32.68

>  <EState_VSA10>
14.7

>  <VSA_EState1>
28.09

>  <VSA_EState2>
24.22

>  <VSA_EState3>
9.24

>  <VSA_EState4>
-2.74

>  <VSA_EState5>
-2.28

>  <VSA_EState6>
0

>  <VSA_EState7>
3.47

>  <VSA_EState8>
6.63

>  <VSA_EState9>
0

>  <apol>
68.34

>  <bpol>
36.43

>  <nRing>
5

>  <nHRing>
1

>  <naRing>
0

>  <naHRing>
0

>  <nARing 2>
5

>  <nAHRing 2>
1

>  <nFRing>
1

>  <nFHRing>
1

>  <nFaRing>
0

>  <nFaHRing>
0

>  <nFARing 2>
1

>  <nFAHRing 2>
1

>  <nRot>
2

>  <SLogP>
3.88

>  <SMR>
117.26

>  <TopoPSA(NO)>
72.83

>  <TopoPSA>
72.83

>  <JGI1>
0.35

>  <JGI2>
0.14

>  <JGI3>
0.09

>  <JGI4>
0.07

>  <JGI5>
0.04

>  <Diameter>
12

>  <Radius>
6

>  <TMWC10>
151.56

>  <TSRW10>
86.81

>  <MW>
486.14

>  <AMW>
7.97

>  <WPath>
2351

>  <WPol>
79

>  <Zagreb1>
198

>  <Zagreb2>
260

>  <mZagreb2>
6.47

>  <yes>


>  <nAR-cont>
0

>  <nHA-cont>
0.658856097

>  <MWHBN>
0.272126335

>  <MWHBN-cont>
0.915222468

>  <TPSA-cont>
0.491601375

>  <pka_cont>
0.97

>  <yes.1>


>  <BBB_SCORE>
3.49989255

>  <MMFF94 Energy>
170.79

$$$$
Compound 988
Actelion Java MolfileCreator 2.0

  0  0  0  0  0  0              0 V3000
M  V30 BEGIN CTAB
M  V30 COUNTS 60 64 0 0 0
M  V30 BEGIN ATOM
M  V30 1 Cl -0.0828 -2.2384 -0.2485 0
M  V30 2 C -1.4886 -1.1077 0.2092 0 CFG=2
M  V30 3 C -2.6291 -2.0603 0.8366 0
M  V30 4 C -1.8547 -0.3502 -1.109 0 CFG=1
M  V30 5 C -0.953 -0.095 1.2797 0
M  V30 6 C -2.0724 -2.6935 2.128 0
M  V30 7 C -3.0696 -3.135 -0.1589 0
M  V30 8 C -3.9425 -1.353 1.2583 0
M  V30 9 Cl -3.3384 0.6471 -1.0289 0
M  V30 10 C -0.6993 0.5311 -1.6247 0
M  V30 11 C 0.1242 0.9224 0.8076 0
M  V30 12 C -0.5152 -0.7896 2.5882 0
M  V30 13 C -1.9978 -4.0215 2.3318 0
M  V30 14 C -1.5788 -1.7164 3.164 0 CFG=2
M  V30 15 C -2.9924 -4.4556 0.0556 0
M  V30 16 C -0.0597 1.532 -0.6189 0
M  V30 17 C 1.5944 0.5134 0.8784 0
M  V30 18 C -2.4539 -4.9952 1.3195 0
M  V30 19 F -1.0291 -2.3584 4.2337 0
M  V30 20 C 1.4163 1.9302 -1.067 0 CFG=1
M  V30 21 C -0.9569 2.7845 -0.4549 0
M  V30 22 C 2.2952 1.6523 0.1412 0 CFG=2
M  V30 23 O -2.3952 -6.2009 1.521 0
M  V30 24 O 1.9561 1.0123 -2.0384 0
M  V30 25 C 1.523 3.3434 -1.6838 0
M  V30 26 O 3.562 1.2543 -0.3636 0
M  V30 27 C 3.333 0.8069 -1.7057 0
M  V30 28 O 1.0476 3.5782 -2.7997 0
M  V30 29 C 2.2162 4.4263 -0.882 0
M  V30 30 C 3.6592 -0.6778 -1.8271 0
M  V30 31 C 4.2248 1.607 -2.6522 0
M  V30 32 F 2.1549 5.6481 -1.4836 0
M  V30 33 H -2.074 -1.0842 -1.8926 0
M  V30 34 H -1.8129 0.5326 1.5521 0
M  V30 35 H -3.4943 -2.8029 -1.1044 0
M  V30 36 H -3.7696 -0.3958 1.7582 0
M  V30 37 H -4.5191 -1.9724 1.9598 0
M  V30 38 H -4.618 -1.1782 0.4147 0
M  V30 39 H -1.0168 1.0757 -2.5247 0
M  V30 40 H 0.0602 -0.1668 -1.9896 0
M  V30 41 H 0.0507 1.7521 1.5312 0
M  V30 42 H -0.268 -0.0335 3.3446 0
M  V30 43 H 0.4075 -1.364 2.4422 0
M  V30 44 H -1.5944 -4.452 3.2426 0
M  V30 45 H -2.4172 -1.1305 3.5543 0
M  V30 46 H -3.3222 -5.1854 -0.6742 0
M  V30 47 H 1.7948 -0.45 0.4146 0
M  V30 48 H 1.96 0.447 1.9089 0
M  V30 49 H -1.8645 2.5706 0.115 0
M  V30 50 H -0.4449 3.5749 0.1044 0
M  V30 51 H -1.2573 3.197 -1.4236 0
M  V30 52 H 2.4207 2.4985 0.8221 0
M  V30 53 H 3.2721 4.177 -0.7581 0
M  V30 54 H 1.7353 4.5302 0.0928 0
M  V30 55 H 3.506 -1.033 -2.8517 0
M  V30 56 H 4.692 -0.8828 -1.5263 0
M  V30 57 H 3.0123 -1.2827 -1.1857 0
M  V30 58 H 4.0462 2.682 -2.558 0
M  V30 59 H 5.2844 1.4444 -2.4274 0
M  V30 60 H 4.0339 1.3393 -3.6967 0
M  V30 END ATOM
M  V30 BEGIN BOND
M  V30 1 1 1 2
M  V30 2 1 2 3
M  V30 3 1 2 4
M  V30 4 1 2 5
M  V30 5 1 3 6
M  V30 6 1 3 7
M  V30 7 1 3 8
M  V30 8 1 4 9
M  V30 9 1 4 10
M  V30 10 1 5 11
M  V30 11 1 5 12
M  V30 12 2 6 13
M  V30 13 1 6 14
M  V30 14 2 7 15
M  V30 15 1 10 16
M  V30 16 1 11 17
M  V30 17 1 13 18
M  V30 18 1 14 19
M  V30 19 1 16 20
M  V30 20 1 16 21
M  V30 21 1 17 22
M  V30 22 2 18 23
M  V30 23 1 20 24
M  V30 24 1 20 25
M  V30 25 1 22 26
M  V30 26 1 24 27
M  V30 27 2 25 28
M  V30 28 1 25 29
M  V30 29 1 27 30
M  V30 30 1 27 31
M  V30 31 1 29 32
M  V30 32 1 11 16
M  V30 33 1 12 14
M  V30 34 1 15 18
M  V30 35 1 20 22
M  V30 36 1 26 27
M  V30 37 1 4 33
M  V30 38 1 5 34
M  V30 39 1 7 35
M  V30 40 1 8 36
M  V30 41 1 8 37
M  V30 42 1 8 38
M  V30 43 1 10 39
M  V30 44 1 10 40
M  V30 45 1 11 41
M  V30 46 1 12 42
M  V30 47 1 12 43
M  V30 48 1 13 44
M  V30 49 1 14 45
M  V30 50 1 15 46
M  V30 51 1 17 47
M  V30 52 1 17 48
M  V30 53 1 21 49
M  V30 54 1 21 50
M  V30 55 1 21 51
M  V30 56 1 22 52
M  V30 57 1 29 53
M  V30 58 1 29 54
M  V30 59 1 30 55
M  V30 60 1 30 56
M  V30 61 1 30 57
M  V30 62 1 31 58
M  V30 63 1 31 59
M  V30 64 1 31 60
M  V30 END BOND
M  V30 BEGIN COLLECTION
M  V30 MDLV30/STEABS ATOMS=(5 2 4 14 20 22)
M  V30 END COLLECTION
M  V30 END CTAB
M  END
>  <Column 1>
1178

>  <level_0>
1319

>  <index>
1319

>  <Unnamed: 0>
1319

>  <NO.>
1331

>  <Name>
tralonide

>  <IUPAC_name>
(4r-8s-11s-12r-19s)-11-12-dichloro-19-fluoro-8-(2-fluoroacetyl)-6-6-9-13-tetramethyl-5-7-dioxapentacyclo[10.8.0.02-9.04-8.013-18]icosa-14-17-dien-16-one

>  <SMILES>
CC1(C)O[C@@H]2CC3C4C[C@H](F)C5=CC(=O)C=CC5(C)[C@@]4(Cl)[C@@H](Cl)CC3(C)[C@]2(C(=O)CF)O1

>  <CID>
30606

>  <logBB>


>  <BBB+/BBB->
BBB+

>  <Inchi>
InChI=1S/C24H28Cl2F2O4/c1-20(2)31-19-9-13-14-8-16(28)15-7-12(29)5-6-21(15-3)23(14-26)17(25)10-22(13-4)24(19-32-20)18(30)11-27/h5-7-13-14-16-17-19H-8-11H2-1-4H3/t13?-14?-16--17--19+-21?-22?-23--24+/m0/s1

>  <threshold>
-1

>  <reference>
R1|R27|R30|

>  <group>
B

>  <Class>
1

>  <ABC>
26.05

>  <ABCGG>
21.42

>  <nAcid>
0

>  <nBase>
0

>  <nAromAtom>
0

>  <nAromBond>
0

>  <nAtom>
60

>  <nHeavyAtom>
32

>  <nSpiro>
0

>  <nBridgehead>
0

>  <nHetero>
8

>  <nN>
0

>  <nO>
4

>  <nF>
2

>  <BalabanJ>
1.61

>  <BertzCT>
965.65

>  <nBonds>
64

>  <nBondsO>
36

>  <nBondsS>
60

>  <nBondsD>
4

>  <nBondsT>
0

>  <nBondsA>
0

>  <nBondsM>
4

>  <nBondsKS>
60

>  <nBondsKD>
4

>  <RNCG>
0.15

>  <RPCG>
0.09

>  <FCSP3>
0.75

>  <SZ>
42.67

>  <Sm>
40.74

>  <Sv>
37.92

>  <Sse>
61.2

>  <Sp>
40.38

>  <Si>
68.05

>  <MZ>
0.71

>  <Mm>
0.68

>  <Mv>
0.63

>  <Mse>
1.02

>  <Mp>
0.67

>  <Mi>
1.13

>  <NsCH3>
4

>  <NdCH2>
0

>  <NssCH2>
4

>  <NtCH>
0

>  <NdsCH>
3

>  <NaaCH>
0

>  <NsssCH>
5

>  <NddC>
0

>  <NtsC>
0

>  <NdssC>
3

>  <NaasC>
0

>  <NaaaC>
0

>  <NssssC>
5

>  <NsNH3>
0

>  <NsNH2>
0

>  <NssNH2>
0

>  <NdNH>
0

>  <NssNH>
0

>  <NaaNH>
0

>  <NtN>
0

>  <NsssNH>
0

>  <NdsN>
0

>  <NaaN>
0

>  <NsssN>
0

>  <NddsN>
0

>  <NaasN>
0

>  <NssssN>
0

>  <NsOH>
0

>  <NdO>
2

>  <NssO>
2

>  <NaaO>
0

>  <NsF>
2

>  <NsSiH3>
0

>  <NssSiH2>
0

>  <NsssSiH>
0

>  <NssssSi>
0

>  <NsPH2>
0

>  <NssPH>
0

>  <NsssP>
0

>  <NdsssP>
0

>  <NsssssP>
0

>  <NsSH>
0

>  <NdS>
0

>  <NssS>
0

>  <NaaS>
0

>  <NdssS>
0

>  <NddssS>
0

>  <NsCl>
2

>  <NsBr>
0

>  <NsI>
0

>  <fragCpx>
304.08

>  <fMF>
0.33

>  <nHBAcc>
4

>  <nHBDon>
0

>  <Kier1>
23.73

>  <Kier2>
7.03

>  <Lipinski>
1

>  <GhoseFilter>
0

>  <FilterItLogS>
-5.84

>  <VMcGowan>
329

>  <LabuteASA>
196.21

>  <PEOE_VSA1>
9.47

>  <PEOE_VSA2>
9.59

>  <PEOE_VSA3>
8.78

>  <PEOE_VSA4>
0

>  <PEOE_VSA5>
23.2

>  <PEOE_VSA6>
19.92

>  <PEOE_VSA7>
62.67

>  <PEOE_VSA8>
10.83

>  <PEOE_VSA9>
16.36

>  <PEOE_VSA10>
6.17

>  <PEOE_VSA11>
29.63

>  <PEOE_VSA12>
0

>  <PEOE_VSA13>
0

>  <SMR_VSA1>
27.84

>  <SMR_VSA2>
0

>  <SMR_VSA3>
0

>  <SMR_VSA4>
22.67

>  <SMR_VSA5>
80.87

>  <SMR_VSA6>
6.67

>  <SMR_VSA7>
23.8

>  <SMR_VSA8>
0

>  <SMR_VSA9>
0

>  <SlogP_VSA1>
0

>  <SlogP_VSA2>
52.16

>  <SlogP_VSA3>
19.06

>  <SlogP_VSA4>
22.67

>  <SlogP_VSA5>
46.96

>  <SlogP_VSA6>
23.8

>  <SlogP_VSA7>
0

>  <SlogP_VSA8>
0

>  <SlogP_VSA9>
0

>  <SlogP_VSA10>
8.78

>  <SlogP_VSA11>
0

>  <EState_VSA1>
63.12

>  <EState_VSA2>
24.54

>  <EState_VSA3>
11.99

>  <EState_VSA4>
0

>  <EState_VSA5>
12.15

>  <EState_VSA6>
19.92

>  <EState_VSA7>
13.85

>  <EState_VSA8>
0

>  <EState_VSA9>
32.68

>  <EState_VSA10>
13.98

>  <VSA_EState1>
41.82

>  <VSA_EState2>
24.05

>  <VSA_EState3>
-0.68

>  <VSA_EState4>
-2.99

>  <VSA_EState5>
-2.67

>  <VSA_EState6>
0

>  <VSA_EState7>
3.17

>  <VSA_EState8>
5.97

>  <VSA_EState9>
0

>  <apol>
67.43

>  <bpol>
36.54

>  <nRing>
5

>  <nHRing>
1

>  <naRing>
0

>  <naHRing>
0

>  <nARing 2>
5

>  <nAHRing 2>
1

>  <nFRing>
1

>  <nFHRing>
1

>  <nFaRing>
0

>  <nFaHRing>
0

>  <nFARing 2>
1

>  <nFAHRing 2>
1

>  <nRot>
2

>  <SLogP>
4.86

>  <SMR>
116.15

>  <TopoPSA(NO)>
52.6

>  <TopoPSA>
52.6

>  <JGI1>
0.35

>  <JGI2>
0.14

>  <JGI3>
0.09

>  <JGI4>
0.07

>  <JGI5>
0.04

>  <Diameter>
12

>  <Radius>
6

>  <TMWC10>
151.56

>  <TSRW10>
86.81

>  <MW>
488.13

>  <AMW>
8.14

>  <WPath>
2351

>  <WPol>
79

>  <Zagreb1>
198

>  <Zagreb2>
260

>  <mZagreb2>
6.47

>  <yes>


>  <nAR-cont>
0

>  <nHA-cont>
0.658856097

>  <MWHBN>
0.181047379

>  <MWHBN-cont>
0.988269253

>  <TPSA-cont>
0.632819337

>  <pka_cont>
0.97

>  <yes.1>


>  <BBB_SCORE>
3.891898651

>  <MMFF94 Energy>
162.67

$$$$
Compound 989
Actelion Java MolfileCreator 2.0

  0  0  0  0  0  0              0 V3000
M  V30 BEGIN CTAB
M  V30 COUNTS 62 66 0 0 0
M  V30 BEGIN ATOM
M  V30 1 F 3.0023 3.8149 1.9466 0
M  V30 2 C 2.0334 2.8806 2.1661 0 CFG=2
M  V30 3 C 2.6029 1.6305 2.7838 0
M  V30 4 C 1.3983 2.5514 0.8233 0
M  V30 5 C 3.9168 1.5305 3.0564 0
M  V30 6 C 1.5961 0.497 3.0183 0
M  V30 7 C 0.343 1.4331 0.9202 0 CFG=2
M  V30 8 C 4.5083 0.295 3.6059 0
M  V30 9 C 2.29 -0.7456 3.565 0
M  V30 10 C 0.9177 0.1678 1.6278 0 CFG=2
M  V30 11 C 0.6115 0.9552 4.1176 0
M  V30 12 C -0.2527 1.1363 -0.4798 0
M  V30 13 O 5.7034 0.2142 3.8571 0
M  V30 14 C 3.5989 -0.8435 3.8333 0
M  V30 15 C -0.1275 -0.9762 1.644 0 CFG=1
M  V30 16 C -1.2789 -0.0207 -0.5157 0 CFG=2
M  V30 17 C 0.7771 0.7422 -1.5576 0
M  V30 18 O -1.1697 -0.7904 2.5877 0
M  V30 19 C -0.7232 -1.2523 0.2556 0
M  V30 20 C -1.3947 -0.3075 -2.0578 0 CFG=1
M  V30 21 C -2.6333 0.4044 0.0846 0
M  V30 22 C -0.0117 0.0011 -2.6342 0 CFG=2
M  V30 23 O -1.6396 -1.6854 -2.3529 0
M  V30 24 C -2.4354 0.567 -2.7821 0
M  V30 25 O 0.5745 -1.2686 -2.9206 0
M  V30 26 C -0.5288 -2.1484 -3.1319 0
M  V30 27 O -2.2177 1.7481 -3.0751 0
M  V30 28 C -3.7793 -0.0713 -3.1188 0
M  V30 29 C -0.1501 -3.5549 -2.6879 0
M  V30 30 C -0.9128 -2.15 -4.6127 0
M  V30 31 O -4.7441 0.9107 -3.4734 0
M  V30 32 H 1.3026 3.3419 2.8377 0
M  V30 33 H 2.1964 2.2727 0.1236 0
M  V30 34 H 0.9458 3.4612 0.4094 0
M  V30 35 H 4.6159 2.34 2.873 0
M  V30 36 H -0.4774 1.8229 1.536 0
M  V30 37 H 1.6658 -1.6105 3.785 0
M  V30 38 H 1.7336 -0.1982 0.9853 0
M  V30 39 H 1.1474 1.3871 4.9734 0
M  V30 40 H -0.0897 1.7167 3.7629 0
M  V30 41 H 0.0197 0.1253 4.5192 0
M  V30 42 H -0.7462 2.0571 -0.8239 0
M  V30 43 H 4.0459 -1.7439 4.2372 0
M  V30 44 H 0.3731 -1.9023 1.9476 0
M  V30 45 H 1.5822 0.1136 -1.1653 0
M  V30 46 H 1.2451 1.6388 -1.9794 0
M  V30 47 H -1.4446 0.1385 2.6009 0
M  V30 48 H 0.0827 -1.7098 -0.327 0
M  V30 49 H -1.5138 -2.0088 0.3436 0
M  V30 50 H -2.556 0.7247 1.1232 0
M  V30 51 H -3.067 1.2609 -0.4417 0
M  V30 52 H -3.3551 -0.418 0.0424 0
M  V30 53 H -0.0309 0.5795 -3.5648 0
M  V30 54 H -3.6506 -0.7504 -3.9653 0
M  V30 55 H -4.1617 -0.6219 -2.2567 0
M  V30 56 H 0.7083 -3.932 -3.2538 0
M  V30 57 H 0.1334 -3.5697 -1.6307 0
M  V30 58 H -0.9902 -4.2478 -2.804 0
M  V30 59 H -1.187 -1.1465 -4.9555 0
M  V30 60 H -1.7773 -2.7972 -4.7951 0
M  V30 61 H -0.0762 -2.4824 -5.2363 0
M  V30 62 H -4.2481 1.6585 -3.8628 0
M  V30 END ATOM
M  V30 BEGIN BOND
M  V30 1 1 1 2
M  V30 2 1 2 3
M  V30 3 1 2 4
M  V30 4 2 3 5
M  V30 5 1 3 6
M  V30 6 1 4 7
M  V30 7 1 5 8
M  V30 8 1 6 9
M  V30 9 1 6 10
M  V30 10 1 6 11
M  V30 11 1 7 12
M  V30 12 2 8 13
M  V30 13 1 8 14
M  V30 14 1 10 15
M  V30 15 1 12 16
M  V30 16 1 12 17
M  V30 17 1 15 18
M  V30 18 1 15 19
M  V30 19 1 16 20
M  V30 20 1 16 21
M  V30 21 1 17 22
M  V30 22 1 20 23
M  V30 23 1 20 24
M  V30 24 1 22 25
M  V30 25 1 23 26
M  V30 26 2 24 27
M  V30 27 1 24 28
M  V30 28 1 26 29
M  V30 29 1 26 30
M  V30 30 1 28 31
M  V30 31 1 7 10
M  V30 32 2 9 14
M  V30 33 1 16 19
M  V30 34 1 20 22
M  V30 35 1 25 26
M  V30 36 1 2 32
M  V30 37 1 4 33
M  V30 38 1 4 34
M  V30 39 1 5 35
M  V30 40 1 7 36
M  V30 41 1 9 37
M  V30 42 1 10 38
M  V30 43 1 11 39
M  V30 44 1 11 40
M  V30 45 1 11 41
M  V30 46 1 12 42
M  V30 47 1 14 43
M  V30 48 1 15 44
M  V30 49 1 17 45
M  V30 50 1 17 46
M  V30 51 1 18 47
M  V30 52 1 19 48
M  V30 53 1 19 49
M  V30 54 1 21 50
M  V30 55 1 21 51
M  V30 56 1 21 52
M  V30 57 1 22 53
M  V30 58 1 28 54
M  V30 59 1 28 55
M  V30 60 1 29 56
M  V30 61 1 29 57
M  V30 62 1 29 58
M  V30 63 1 30 59
M  V30 64 1 30 60
M  V30 65 1 30 61
M  V30 66 1 31 62
M  V30 END BOND
M  V30 BEGIN COLLECTION
M  V30 MDLV30/STEABS ATOMS=(7 2 7 10 15 16 20 22)
M  V30 END COLLECTION
M  V30 END CTAB
M  END
>  <Column 1>
1179

>  <level_0>
1320

>  <index>
1320

>  <Unnamed: 0>
1320

>  <NO.>
1332

>  <Name>
77326-96-6

>  <IUPAC_name>
(1s-4r-8s-9s-11s-12s-19s)-19-fluoro-11-hydroxy-8-(2-hydroxyacetyl)-6-6-9-13-tetramethyl-5-7-dioxapentacyclo[10.8.0.02-9.04-8.013-18]icosa-14-17-dien-16-one;hydrate

>  <SMILES>
CC1(C)O[C@@H]2CC3[C@@H]4C[C@H](F)C5=CC(=O)C=CC5(C)[C@H]4[C@@H](O)C[C@]3(C)[C@]2(C(=O)CO)O1

>  <CID>
53656

>  <logBB>


>  <BBB+/BBB->
BBB+

>  <Inchi>
InChI=1S/C24H31FO6/c1-21(2)30-19-9-14-13-8-16(25)15-7-12(27)5-6-22(15-3)20(13)17(28)10-23(14-4)24(19-31-21)18(29)11-26/h5-7-13-14-16-17-19-20-26-28H-8-11H2-1-4H3/t13--14?-16--17--19+-20+-22?-23--24+/m0/s1

>  <threshold>
-1

>  <reference>
R1|R27|R30|

>  <group>
B

>  <Class>
1

>  <ABC>
25.26

>  <ABCGG>
20.5

>  <nAcid>
0

>  <nBase>
0

>  <nAromAtom>
0

>  <nAromBond>
0

>  <nAtom>
62

>  <nHeavyAtom>
31

>  <nSpiro>
0

>  <nBridgehead>
0

>  <nHetero>
7

>  <nN>
0

>  <nO>
6

>  <nF>
1

>  <BalabanJ>
1.56

>  <BertzCT>
909.75

>  <nBonds>
66

>  <nBondsO>
35

>  <nBondsS>
62

>  <nBondsD>
4

>  <nBondsT>
0

>  <nBondsA>
0

>  <nBondsM>
4

>  <nBondsKS>
62

>  <nBondsKD>
4

>  <RNCG>
0.15

>  <RPCG>
0.08

>  <FCSP3>
0.75

>  <SZ>
38.67

>  <Sm>
36.18

>  <Sv>
37.33

>  <Sse>
62.7

>  <Sp>
39.59

>  <Si>
70.24

>  <MZ>
0.62

>  <Mm>
0.58

>  <Mv>
0.6

>  <Mse>
1.01

>  <Mp>
0.64

>  <Mi>
1.13

>  <NsCH3>
4

>  <NdCH2>
0

>  <NssCH2>
4

>  <NtCH>
0

>  <NdsCH>
3

>  <NaaCH>
0

>  <NsssCH>
6

>  <NddC>
0

>  <NtsC>
0

>  <NdssC>
3

>  <NaasC>
0

>  <NaaaC>
0

>  <NssssC>
4

>  <NsNH3>
0

>  <NsNH2>
0

>  <NssNH2>
0

>  <NdNH>
0

>  <NssNH>
0

>  <NaaNH>
0

>  <NtN>
0

>  <NsssNH>
0

>  <NdsN>
0

>  <NaaN>
0

>  <NsssN>
0

>  <NddsN>
0

>  <NaasN>
0

>  <NssssN>
0

>  <NsOH>
2

>  <NdO>
2

>  <NssO>
2

>  <NaaO>
0

>  <NsF>
1

>  <NsSiH3>
0

>  <NssSiH2>
0

>  <NsssSiH>
0

>  <NssssSi>
0

>  <NsPH2>
0

>  <NssPH>
0

>  <NsssP>
0

>  <NdsssP>
0

>  <NsssssP>
0

>  <NsSH>
0

>  <NdS>
0

>  <NssS>
0

>  <NaaS>
0

>  <NdssS>
0

>  <NddssS>
0

>  <NsCl>
0

>  <NsBr>
0

>  <NsI>
0

>  <fragCpx>
295.07

>  <fMF>
0.32

>  <nHBAcc>
6

>  <nHBDon>
2

>  <Kier1>
22.78

>  <Kier2>
7.01

>  <Lipinski>
1

>  <GhoseFilter>
1

>  <FilterItLogS>
-3.01

>  <VMcGowan>
314.5

>  <LabuteASA>
181.03

>  <PEOE_VSA1>
19.69

>  <PEOE_VSA2>
9.59

>  <PEOE_VSA3>
4.39

>  <PEOE_VSA4>
0

>  <PEOE_VSA5>
0

>  <PEOE_VSA6>
19.92

>  <PEOE_VSA7>
62.67

>  <PEOE_VSA8>
16.75

>  <PEOE_VSA9>
12.21

>  <PEOE_VSA10>
12.78

>  <PEOE_VSA11>
22.95

>  <PEOE_VSA12>
0

>  <PEOE_VSA13>
0

>  <SMR_VSA1>
33.67

>  <SMR_VSA2>
0

>  <SMR_VSA3>
0

>  <SMR_VSA4>
28.58

>  <SMR_VSA5>
76.73

>  <SMR_VSA6>
6.61

>  <SMR_VSA7>
23.8

>  <SMR_VSA8>
0

>  <SMR_VSA9>
0

>  <SlogP_VSA1>
0

>  <SlogP_VSA2>
58.15

>  <SlogP_VSA3>
19.06

>  <SlogP_VSA4>
28.58

>  <SlogP_VSA5>
46.96

>  <SlogP_VSA6>
23.8

>  <SlogP_VSA7>
0

>  <SlogP_VSA8>
0

>  <SlogP_VSA9>
0

>  <SlogP_VSA10>
4.39

>  <SlogP_VSA11>
0

>  <EState_VSA1>
52.99

>  <EState_VSA2>
36.38

>  <EState_VSA3>
11.99

>  <EState_VSA4>
0

>  <EState_VSA5>
12.15

>  <EState_VSA6>
19.92

>  <EState_VSA7>
13.85

>  <EState_VSA8>
0

>  <EState_VSA9>
9.47

>  <EState_VSA10>
19.8

>  <VSA_EState1>
27.87

>  <VSA_EState2>
25.09

>  <VSA_EState3>
21.27

>  <VSA_EState4>
-2.5

>  <VSA_EState5>
-2.28

>  <VSA_EState6>
0

>  <VSA_EState7>
2.9

>  <VSA_EState8>
6.65

>  <VSA_EState9>
0

>  <apol>
66.12

>  <bpol>
37.42

>  <nRing>
5

>  <nHRing>
1

>  <naRing>
0

>  <naHRing>
0

>  <nARing 2>
5

>  <nAHRing 2>
1

>  <nFRing>
1

>  <nFHRing>
1

>  <nFaRing>
0

>  <nFaHRing>
0

>  <nFARing 2>
1

>  <nFAHRing 2>
1

>  <nRot>
2

>  <SLogP>
2.27

>  <SMR>
108.53

>  <TopoPSA(NO)>
93.06

>  <TopoPSA>
93.06

>  <JGI1>
0.33

>  <JGI2>
0.12

>  <JGI3>
0.09

>  <JGI4>
0.06

>  <JGI5>
0.04

>  <Diameter>
12

>  <Radius>
6

>  <TMWC10>
148.79

>  <TSRW10>
85.46

>  <MW>
434.21

>  <AMW>
7

>  <WPath>
2209

>  <WPol>
72

>  <Zagreb1>
190

>  <Zagreb2>
246

>  <mZagreb2>
6.3

>  <yes>


>  <nAR-cont>
0

>  <nHA-cont>
0.702745138

>  <MWHBN>
0.383919416

>  <MWHBN-cont>
0.539406772

>  <TPSA-cont>
0.350383413

>  <pka_cont>
0.97

>  <yes.1>


>  <BBB_SCORE>
2.697622122

>  <MMFF94 Energy>
133.25

$$$$
Compound 990
Actelion Java MolfileCreator 2.0

  0  0  0  0  0  0              0 V3000
M  V30 BEGIN CTAB
M  V30 COUNTS 62 66 0 0 0
M  V30 BEGIN ATOM
M  V30 1 O -0.7274 1.6171 6.8865 0
M  V30 2 C -0.1847 1.4221 5.8064 0
M  V30 3 C 0.0658 0.0547 5.3084 0
M  V30 4 C 0.2387 2.5405 4.9453 0
M  V30 5 C 0.6865 -0.1722 4.1369 0
M  V30 6 C 0.8601 2.3151 3.7803 0
M  V30 7 C 1.2009 0.9415 3.2139 0
M  V30 8 C 0.8715 -1.5801 3.6376 0
M  V30 9 C 0.539 0.7487 1.7875 0 CFG=1
M  V30 10 C 2.7459 0.8612 3.1791 0
M  V30 11 C 0.19 -1.7428 2.2867 0
M  V30 12 C 1.0523 1.7516 0.715 0
M  V30 13 C 0.6668 -0.7019 1.2555 0
M  V30 14 O 0.3207 2.9734 0.8313 0
M  V30 15 C 0.9534 1.2527 -0.7387 0
M  V30 16 C -0.0936 -0.9295 -0.0829 0 CFG=1
M  V30 17 C -0.2415 0.308 -1.0184 0
M  V30 18 C 0.6639 -1.9659 -0.9343 0
M  V30 19 C -0.233 -0.3097 -2.4754 0 CFG=1
M  V30 20 C -1.571 1.0532 -0.7644 0
M  V30 21 C 0.1065 -1.7911 -2.3285 0 CFG=2
M  V30 22 O -1.5304 -0.2959 -3.0945 0
M  V30 23 C 0.7393 0.3773 -3.4405 0
M  V30 24 O -1.1334 -2.4878 -2.4449 0
M  V30 25 C -1.9551 -1.6516 -3.2492 0
M  V30 26 O 1.9108 0.0087 -3.5765 0
M  V30 27 C 0.2144 1.5775 -4.2211 0
M  V30 28 C -3.3992 -1.7871 -2.789 0
M  V30 29 C -1.8178 -2.0468 -4.7185 0
M  V30 30 O 1.2826 2.3565 -4.7437 0
M  V30 31 H -0.299 -0.7424 5.946 0
M  V30 32 H 0.0238 3.5385 5.3069 0
M  V30 33 H 1.1553 3.1834 3.1951 0
M  V30 34 H 1.9392 -1.8129 3.5561 0
M  V30 35 H 0.4513 -2.3118 4.3385 0
M  V30 36 H -0.5334 0.9362 1.9432 0
M  V30 37 H 3.1981 1.7436 2.7127 0
M  V30 38 H 3.1617 0.8014 4.1936 0
M  V30 39 H 3.1077 -0.0144 2.6318 0
M  V30 40 H 0.3819 -2.7556 1.9131 0
M  V30 41 H -0.8968 -1.6577 2.4209 0
M  V30 42 H 2.1002 2.0089 0.8906 0
M  V30 43 H 1.7357 -0.8871 1.0836 0
M  V30 44 H 0.7081 3.6181 0.2133 0
M  V30 45 H 0.9126 2.1166 -1.4129 0
M  V30 46 H 1.8867 0.72 -0.9636 0
M  V30 47 H -1.0978 -1.3254 0.1244 0
M  V30 48 H 1.7395 -1.7546 -0.9445 0
M  V30 49 H 0.5108 -2.9793 -0.5497 0
M  V30 50 H -2.4343 0.3929 -0.8904 0
M  V30 51 H -1.6843 1.8916 -1.4604 0
M  V30 52 H -1.6573 1.4586 0.2442 0
M  V30 53 H 0.7897 -2.1903 -3.0853 0
M  V30 54 H -0.4002 1.2228 -5.0526 0
M  V30 55 H -0.3797 2.2201 -3.5676 0
M  V30 56 H -4.0583 -1.1048 -3.3358 0
M  V30 57 H -3.7608 -2.8135 -2.9115 0
M  V30 58 H -3.489 -1.5438 -1.7246 0
M  V30 59 H -2.4372 -1.4092 -5.3584 0
M  V30 60 H -0.7834 -1.9346 -5.0621 0
M  V30 61 H -2.0974 -3.094 -4.8744 0
M  V30 62 H 1.9925 1.7264 -4.9785 0
M  V30 END ATOM
M  V30 BEGIN BOND
M  V30 1 2 1 2
M  V30 2 1 2 3
M  V30 3 1 2 4
M  V30 4 2 3 5
M  V30 5 2 4 6
M  V30 6 1 5 7
M  V30 7 1 5 8
M  V30 8 1 7 9
M  V30 9 1 7 10
M  V30 10 1 8 11
M  V30 11 1 9 12
M  V30 12 1 9 13
M  V30 13 1 12 14
M  V30 14 1 12 15
M  V30 15 1 13 16
M  V30 16 1 15 17
M  V30 17 1 16 18
M  V30 18 1 17 19
M  V30 19 1 17 20
M  V30 20 1 18 21
M  V30 21 1 19 22
M  V30 22 1 19 23
M  V30 23 1 21 24
M  V30 24 1 22 25
M  V30 25 2 23 26
M  V30 26 1 23 27
M  V30 27 1 25 28
M  V30 28 1 25 29
M  V30 29 1 27 30
M  V30 30 1 6 7
M  V30 31 1 11 13
M  V30 32 1 16 17
M  V30 33 1 19 21
M  V30 34 1 24 25
M  V30 35 1 3 31
M  V30 36 1 4 32
M  V30 37 1 6 33
M  V30 38 1 8 34
M  V30 39 1 8 35
M  V30 40 1 9 36
M  V30 41 1 10 37
M  V30 42 1 10 38
M  V30 43 1 10 39
M  V30 44 1 11 40
M  V30 45 1 11 41
M  V30 46 1 12 42
M  V30 47 1 13 43
M  V30 48 1 14 44
M  V30 49 1 15 45
M  V30 50 1 15 46
M  V30 51 1 16 47
M  V30 52 1 18 48
M  V30 53 1 18 49
M  V30 54 1 20 50
M  V30 55 1 20 51
M  V30 56 1 20 52
M  V30 57 1 21 53
M  V30 58 1 27 54
M  V30 59 1 27 55
M  V30 60 1 28 56
M  V30 61 1 28 57
M  V30 62 1 28 58
M  V30 63 1 29 59
M  V30 64 1 29 60
M  V30 65 1 29 61
M  V30 66 1 30 62
M  V30 END BOND
M  V30 BEGIN COLLECTION
M  V30 MDLV30/STEABS ATOMS=(4 9 16 19 21)
M  V30 END COLLECTION
M  V30 END CTAB
M  END
>  <Column 1>
1180

>  <level_0>
1321

>  <index>
1321

>  <Unnamed: 0>
1321

>  <NO.>
1333

>  <Name>
desonide

>  <IUPAC_name>
(2s-4r-8s-12s)-11-hydroxy-8-(2-hydroxyacetyl)-6-6-9-13-tetramethyl-5-7-dioxapentacyclo[10.8.0.02-9.04-8.013-18]icosa-14-17-dien-16-one

>  <SMILES>
CC1(C)O[C@@H]2C[C@H]3C4CCC5=CC(=O)C=CC5(C)[C@H]4C(O)CC3(C)[C@]2(C(=O)CO)O1

>  <CID>
12536

>  <logBB>


>  <BBB+/BBB->
BBB+

>  <Inchi>
InChI=1S/C24H32O6/c1-21(2)29-19-10-16-15-6-5-13-9-14(26)7-8-22(13-3)20(15)17(27)11-23(16-4)24(19-30-21)18(28)12-25/h7-9-15-17-19-20-25-27H-5-6-10-12H2-1-4H3/t15?-16--17?-19+-20+-22?-23?-24+/m0/s1

>  <threshold>
-1

>  <reference>
R1|R27|R30|

>  <group>
B

>  <Class>
1

>  <ABC>
24.48

>  <ABCGG>
19.67

>  <nAcid>
0

>  <nBase>
0

>  <nAromAtom>
0

>  <nAromBond>
0

>  <nAtom>
62

>  <nHeavyAtom>
30

>  <nSpiro>
0

>  <nBridgehead>
0

>  <nHetero>
6

>  <nN>
0

>  <nO>
6

>  <nF>
0

>  <BalabanJ>
1.54

>  <BertzCT>
872.92

>  <nBonds>
66

>  <nBondsO>
34

>  <nBondsS>
62

>  <nBondsD>
4

>  <nBondsT>
0

>  <nBondsA>
0

>  <nBondsM>
4

>  <nBondsKS>
62

>  <nBondsKD>
4

>  <RNCG>
0.16

>  <RPCG>
0.08

>  <FCSP3>
0.75

>  <SZ>
37.33

>  <Sm>
34.68

>  <Sv>
36.96

>  <Sse>
62.19

>  <Sp>
39.66

>  <Si>
69.9

>  <MZ>
0.6

>  <Mm>
0.56

>  <Mv>
0.6

>  <Mse>
1

>  <Mp>
0.64

>  <Mi>
1.13

>  <NsCH3>
4

>  <NdCH2>
0

>  <NssCH2>
5

>  <NtCH>
0

>  <NdsCH>
3

>  <NaaCH>
0

>  <NsssCH>
5

>  <NddC>
0

>  <NtsC>
0

>  <NdssC>
3

>  <NaasC>
0

>  <NaaaC>
0

>  <NssssC>
4

>  <NsNH3>
0

>  <NsNH2>
0

>  <NssNH2>
0

>  <NdNH>
0

>  <NssNH>
0

>  <NaaNH>
0

>  <NtN>
0

>  <NsssNH>
0

>  <NdsN>
0

>  <NaaN>
0

>  <NsssN>
0

>  <NddsN>
0

>  <NaasN>
0

>  <NssssN>
0

>  <NsOH>
2

>  <NdO>
2

>  <NssO>
2

>  <NaaO>
0

>  <NsF>
0

>  <NsSiH3>
0

>  <NssSiH2>
0

>  <NsssSiH>
0

>  <NssssSi>
0

>  <NsPH2>
0

>  <NssPH>
0

>  <NsssP>
0

>  <NdsssP>
0

>  <NsssssP>
0

>  <NsSH>
0

>  <NdS>
0

>  <NssS>
0

>  <NaaS>
0

>  <NdssS>
0

>  <NddssS>
0

>  <NsCl>
0

>  <NsBr>
0

>  <NsI>
0

>  <fragCpx>
286.06

>  <fMF>
0.32

>  <nHBAcc>
6

>  <nHBDon>
2

>  <Kier1>
21.83

>  <Kier2>
6.76

>  <Lipinski>
1

>  <GhoseFilter>
1

>  <FilterItLogS>
-2.98

>  <VMcGowan>
312.74

>  <LabuteASA>
176.86

>  <PEOE_VSA1>
19.69

>  <PEOE_VSA2>
9.59

>  <PEOE_VSA3>
0

>  <PEOE_VSA4>
0

>  <PEOE_VSA5>
0

>  <PEOE_VSA6>
25.5

>  <PEOE_VSA7>
63.52

>  <PEOE_VSA8>
16.75

>  <PEOE_VSA9>
12.21

>  <PEOE_VSA10>
6.61

>  <PEOE_VSA11>
22.95

>  <PEOE_VSA12>
0

>  <PEOE_VSA13>
0

>  <SMR_VSA1>
29.28

>  <SMR_VSA2>
0

>  <SMR_VSA3>
0

>  <SMR_VSA4>
28.58

>  <SMR_VSA5>
76.97

>  <SMR_VSA6>
6.61

>  <SMR_VSA7>
23.8

>  <SMR_VSA8>
0

>  <SMR_VSA9>
0

>  <SlogP_VSA1>
0

>  <SlogP_VSA2>
51.98

>  <SlogP_VSA3>
19.06

>  <SlogP_VSA4>
28.58

>  <SlogP_VSA5>
53.38

>  <SlogP_VSA6>
23.8

>  <SlogP_VSA7>
0

>  <SlogP_VSA8>
0

>  <SlogP_VSA9>
0

>  <SlogP_VSA10>
0

>  <SlogP_VSA11>
0

>  <EState_VSA1>
35.62

>  <EState_VSA2>
34.74

>  <EState_VSA3>
12.84

>  <EState_VSA4>
18.41

>  <EState_VSA5>
0

>  <EState_VSA6>
26

>  <EState_VSA7>
13

>  <EState_VSA8>
6.92

>  <EState_VSA9>
9.47

>  <EState_VSA10>
19.8

>  <VSA_EState1>
12.56

>  <VSA_EState2>
25.12

>  <VSA_EState3>
21.32

>  <VSA_EState4>
-1.12

>  <VSA_EState5>
-0.95

>  <VSA_EState6>
0

>  <VSA_EState7>
7.04

>  <VSA_EState8>
7.19

>  <VSA_EState9>
0

>  <apol>
66.23

>  <bpol>
37.31

>  <nRing>
5

>  <nHRing>
1

>  <naRing>
0

>  <naHRing>
0

>  <nARing 2>
5

>  <nAHRing 2>
1

>  <nFRing>
1

>  <nFHRing>
1

>  <nFaRing>
0

>  <nFaHRing>
0

>  <nFARing 2>
1

>  <nFAHRing 2>
1

>  <nRot>
2

>  <SLogP>
2.33

>  <SMR>
108.25

>  <TopoPSA(NO)>
93.06

>  <TopoPSA>
93.06

>  <JGI1>
0.32

>  <JGI2>
0.12

>  <JGI3>
0.09

>  <JGI4>
0.06

>  <JGI5>
0.04

>  <Diameter>
12

>  <Radius>
6

>  <TMWC10>
146.43

>  <TSRW10>
84.29

>  <MW>
416.22

>  <AMW>
6.71

>  <WPath>
2048

>  <WPol>
69

>  <Zagreb1>
184

>  <Zagreb2>
238

>  <mZagreb2>
6.1

>  <yes>


>  <nAR-cont>
0

>  <nHA-cont>
0.74523694

>  <MWHBN>
0.392128596

>  <MWHBN-cont>
0.507073461

>  <TPSA-cont>
0.350383413

>  <pka_cont>
0.97

>  <yes.1>


>  <BBB_SCORE>
2.691613957

>  <MMFF94 Energy>
137.23

$$$$
Compound 991
Actelion Java MolfileCreator 2.0

  0  0  0  0  0  0              0 V3000
M  V30 BEGIN CTAB
M  V30 COUNTS 66 70 0 0 0
M  V30 BEGIN ATOM
M  V30 1 F -1.4563 1.2944 -0.3234 0
M  V30 2 C -0.7379 0.5138 -1.2161 0 CFG=2
M  V30 3 C -1.0507 1.1117 -2.6463 0
M  V30 4 C -1.2464 -0.9397 -0.9556 0 CFG=1
M  V30 5 C 0.7629 0.7002 -0.8245 0
M  V30 6 C -0.6251 2.6196 -2.6262 0
M  V30 7 C -2.5814 1.075 -2.9227 0
M  V30 8 C -0.3235 0.3399 -3.7763 0
M  V30 9 O -0.795 -1.862 -1.9404 0
M  V30 10 C -0.8747 -1.4748 0.4476 0
M  V30 11 C 0.9653 0.1863 0.6092 0 CFG=1
M  V30 12 C 1.1906 2.1738 -0.9317 0
M  V30 13 C -0.9797 3.3767 -3.9104 0
M  V30 14 C 0.8592 2.791 -2.2864 0
M  V30 15 C -2.9955 1.7981 -4.2014 0
M  V30 16 C 0.6215 -1.3116 0.7881 0
M  V30 17 C 2.3444 0.3152 1.2533 0
M  V30 18 C -2.4432 3.2027 -4.2449 0
M  V30 19 C 1.0109 -1.4994 2.2894 0 CFG=1
M  V30 20 C 1.4885 -2.2439 -0.1006 0
M  V30 21 C 2.2861 -0.6556 2.4515 0 CFG=2
M  V30 22 O -3.125 4.146 -4.6449 0
M  V30 23 O 0.0587 -0.8804 3.1598 0
M  V30 24 C 1.2127 -2.9646 2.7017 0
M  V30 25 O 2.1377 0.0773 3.666 0
M  V30 26 C 0.7968 -0.1038 4.1094 0
M  V30 27 O 2.3087 -3.5314 2.6467 0
M  V30 28 C -0.0163 -3.7304 3.1777 0
M  V30 29 C 0.1288 1.2569 4.2603 0
M  V30 30 C 0.8244 -0.8344 5.4489 0
M  V30 31 O 0.2014 -5.1341 3.1332 0
M  V30 32 H -2.3415 -0.9347 -1.0077 0
M  V30 33 H 1.3991 0.1279 -1.5057 0
M  V30 34 H -1.1957 3.1104 -1.8224 0
M  V30 35 H -3.1135 1.5351 -2.0795 0
M  V30 36 H -2.9358 0.0396 -2.9864 0
M  V30 37 H -0.7907 -0.6306 -3.9662 0
M  V30 38 H -0.3554 0.8711 -4.7315 0
M  V30 39 H 0.7315 0.163 -3.5551 0
M  V30 40 H -1.2532 -2.708 -1.7886 0
M  V30 41 H -1.485 -0.9367 1.1834 0
M  V30 42 H -1.1532 -2.5324 0.516 0
M  V30 43 H 0.2817 0.7764 1.2378 0
M  V30 44 H 2.2696 2.2641 -0.7605 0
M  V30 45 H 0.6992 2.7613 -0.1452 0
M  V30 46 H -0.7882 4.4472 -3.7693 0
M  V30 47 H -0.3833 3.0498 -4.7672 0
M  V30 48 H 1.4895 2.3439 -3.0637 0
M  V30 49 H 1.1136 3.8576 -2.2574 0
M  V30 50 H -2.6496 1.2651 -5.0926 0
M  V30 51 H -4.0889 1.8493 -4.2501 0
M  V30 52 H 2.5556 1.344 1.5625 0
M  V30 53 H 3.1232 0.0023 0.5491 0
M  V30 54 H 2.542 -2.244 0.1977 0
M  V30 55 H 1.134 -3.2789 -0.0334 0
M  V30 56 H 1.4742 -1.9706 -1.157 0
M  V30 57 H 3.2179 -1.2261 2.5063 0
M  V30 58 H -0.239 -3.4462 4.2091 0
M  V30 59 H -0.8749 -3.5065 2.544 0
M  V30 60 H -0.9158 1.155 4.5723 0
M  V30 61 H 0.6613 1.8835 4.9836 0
M  V30 62 H 0.1304 1.7988 3.3089 0
M  V30 63 H -0.1881 -1.0536 5.8032 0
M  V30 64 H 1.3537 -1.7893 5.3623 0
M  V30 65 H 1.3529 -0.2491 6.2089 0
M  V30 66 H 1.1524 -5.2691 3.3197 0
M  V30 END ATOM
M  V30 BEGIN BOND
M  V30 1 1 1 2
M  V30 2 1 2 3
M  V30 3 1 2 4
M  V30 4 1 2 5
M  V30 5 1 3 6
M  V30 6 1 3 7
M  V30 7 1 3 8
M  V30 8 1 4 9
M  V30 9 1 4 10
M  V30 10 1 5 11
M  V30 11 1 5 12
M  V30 12 1 6 13
M  V30 13 1 6 14
M  V30 14 1 7 15
M  V30 15 1 10 16
M  V30 16 1 11 17
M  V30 17 1 13 18
M  V30 18 1 16 19
M  V30 19 1 16 20
M  V30 20 1 17 21
M  V30 21 2 18 22
M  V30 22 1 19 23
M  V30 23 1 19 24
M  V30 24 1 21 25
M  V30 25 1 23 26
M  V30 26 2 24 27
M  V30 27 1 24 28
M  V30 28 1 26 29
M  V30 29 1 26 30
M  V30 30 1 28 31
M  V30 31 1 11 16
M  V30 32 1 12 14
M  V30 33 1 15 18
M  V30 34 1 19 21
M  V30 35 1 25 26
M  V30 36 1 4 32
M  V30 37 1 5 33
M  V30 38 1 6 34
M  V30 39 1 7 35
M  V30 40 1 7 36
M  V30 41 1 8 37
M  V30 42 1 8 38
M  V30 43 1 8 39
M  V30 44 1 9 40
M  V30 45 1 10 41
M  V30 46 1 10 42
M  V30 47 1 11 43
M  V30 48 1 12 44
M  V30 49 1 12 45
M  V30 50 1 13 46
M  V30 51 1 13 47
M  V30 52 1 14 48
M  V30 53 1 14 49
M  V30 54 1 15 50
M  V30 55 1 15 51
M  V30 56 1 17 52
M  V30 57 1 17 53
M  V30 58 1 20 54
M  V30 59 1 20 55
M  V30 60 1 20 56
M  V30 61 1 21 57
M  V30 62 1 28 58
M  V30 63 1 28 59
M  V30 64 1 29 60
M  V30 65 1 29 61
M  V30 66 1 29 62
M  V30 67 1 30 63
M  V30 68 1 30 64
M  V30 69 1 30 65
M  V30 70 1 31 66
M  V30 END BOND
M  V30 BEGIN COLLECTION
M  V30 MDLV30/STEABS ATOMS=(5 2 4 11 19 21)
M  V30 END COLLECTION
M  V30 END CTAB
M  END
>  <Column 1>
1181

>  <level_0>
1322

>  <index>
1322

>  <Unnamed: 0>
1322

>  <NO.>
1334

>  <Name>
drocinonide

>  <IUPAC_name>
(2s-4r-8s-11s-12r)-12-fluoro-11-hydroxy-8-(2-hydroxyacetyl)-6-6-9-13-tetramethyl-5-7-dioxapentacyclo[10.8.0.02-9.04-8.013-18]icosan-16-one

>  <SMILES>
CC1(C)O[C@@H]2C[C@H]3C4CCC5CC(=O)CCC5(C)[C@@]4(F)[C@@H](O)CC3(C)[C@]2(C(=O)CO)O1

>  <CID>
16890

>  <logBB>


>  <BBB+/BBB->
BBB+

>  <Inchi>
InChI=1S/C24H35FO6/c1-20(2)30-19-10-16-15-6-5-13-9-14(27)7-8-21(13-3)23(15-25)17(28)11-22(16-4)24(19-31-20)18(29)12-26/h13-15-17-19-26-28H-5-12H2-1-4H3/t13?-15?-16--17--19+-21?-22?-23--24+/m0/s1

>  <threshold>
-1

>  <reference>
R1|R27|R30|

>  <group>
B

>  <Class>
1

>  <ABC>
25.27

>  <ABCGG>
20.59

>  <nAcid>
0

>  <nBase>
0

>  <nAromAtom>
0

>  <nAromBond>
0

>  <nAtom>
66

>  <nHeavyAtom>
31

>  <nSpiro>
0

>  <nBridgehead>
0

>  <nHetero>
7

>  <nN>
0

>  <nO>
6

>  <nF>
1

>  <BalabanJ>
1.59

>  <BertzCT>
828.89

>  <nBonds>
70

>  <nBondsO>
35

>  <nBondsS>
68

>  <nBondsD>
2

>  <nBondsT>
0

>  <nBondsA>
0

>  <nBondsM>
2

>  <nBondsKS>
68

>  <nBondsKD>
2

>  <RNCG>
0.15

>  <RPCG>
0.08

>  <FCSP3>
0.92

>  <SZ>
39.33

>  <Sm>
36.51

>  <Sv>
38.42

>  <Sse>
66.48

>  <Sp>
41.19

>  <Si>
75.07

>  <MZ>
0.6

>  <Mm>
0.55

>  <Mv>
0.58

>  <Mse>
1.01

>  <Mp>
0.62

>  <Mi>
1.14

>  <NsCH3>
4

>  <NdCH2>
0

>  <NssCH2>
8

>  <NtCH>
0

>  <NdsCH>
0

>  <NaaCH>
0

>  <NsssCH>
5

>  <NddC>
0

>  <NtsC>
0

>  <NdssC>
2

>  <NaasC>
0

>  <NaaaC>
0

>  <NssssC>
5

>  <NsNH3>
0

>  <NsNH2>
0

>  <NssNH2>
0

>  <NdNH>
0

>  <NssNH>
0

>  <NaaNH>
0

>  <NtN>
0

>  <NsssNH>
0

>  <NdsN>
0

>  <NaaN>
0

>  <NsssN>
0

>  <NddsN>
0

>  <NaasN>
0

>  <NssssN>
0

>  <NsOH>
2

>  <NdO>
2

>  <NssO>
2

>  <NaaO>
0

>  <NsF>
1

>  <NsSiH3>
0

>  <NssSiH2>
0

>  <NsssSiH>
0

>  <NssssSi>
0

>  <NsPH2>
0

>  <NssPH>
0

>  <NsssP>
0

>  <NdsssP>
0

>  <NsssssP>
0

>  <NsSH>
0

>  <NdS>
0

>  <NssS>
0

>  <NaaS>
0

>  <NdssS>
0

>  <NddssS>
0

>  <NsCl>
0

>  <NsBr>
0

>  <NsI>
0

>  <fragCpx>
295.07

>  <fMF>
0.3

>  <nHBAcc>
6

>  <nHBDon>
2

>  <Kier1>
22.78

>  <Kier2>
6.78

>  <Lipinski>
1

>  <GhoseFilter>
1

>  <FilterItLogS>
-3.95

>  <VMcGowan>
323.1

>  <LabuteASA>
182.41

>  <PEOE_VSA1>
19.69

>  <PEOE_VSA2>
9.59

>  <PEOE_VSA3>
4.39

>  <PEOE_VSA4>
0

>  <PEOE_VSA5>
0

>  <PEOE_VSA6>
13.85

>  <PEOE_VSA7>
63.71

>  <PEOE_VSA8>
23.67

>  <PEOE_VSA9>
12.21

>  <PEOE_VSA10>
18.06

>  <PEOE_VSA11>
17.17

>  <PEOE_VSA12>
0

>  <PEOE_VSA13>
0

>  <SMR_VSA1>
33.67

>  <SMR_VSA2>
0

>  <SMR_VSA3>
0

>  <SMR_VSA4>
28.58

>  <SMR_VSA5>
101.91

>  <SMR_VSA6>
6.61

>  <SMR_VSA7>
0

>  <SMR_VSA8>
0

>  <SMR_VSA9>
0

>  <SlogP_VSA1>
0

>  <SlogP_VSA2>
57.65

>  <SlogP_VSA3>
19.06

>  <SlogP_VSA4>
28.58

>  <SlogP_VSA5>
72.64

>  <SlogP_VSA6>
0

>  <SlogP_VSA7>
0

>  <SlogP_VSA8>
0

>  <SlogP_VSA9>
0

>  <SlogP_VSA10>
4.39

>  <SlogP_VSA11>
0

>  <EState_VSA1>
58.4

>  <EState_VSA2>
24.04

>  <EState_VSA3>
32.1

>  <EState_VSA4>
6.42

>  <EState_VSA5>
0

>  <EState_VSA6>
13.85

>  <EState_VSA7>
13.85

>  <EState_VSA8>
0

>  <EState_VSA9>
9.47

>  <EState_VSA10>
19.8

>  <VSA_EState1>
29.65

>  <VSA_EState2>
25.28

>  <VSA_EState3>
21.26

>  <VSA_EState4>
-4.83

>  <VSA_EState5>
-1.98

>  <VSA_EState6>
0

>  <VSA_EState7>
1.21

>  <VSA_EState8>
6.65

>  <VSA_EState9>
0

>  <apol>
68.79

>  <bpol>
41.43

>  <nRing>
5

>  <nHRing>
1

>  <naRing>
0

>  <naHRing>
0

>  <nARing 2>
5

>  <nAHRing 2>
1

>  <nFRing>
1

>  <nFHRing>
1

>  <nFaRing>
0

>  <nFaHRing>
0

>  <nFARing 2>
1

>  <nFAHRing 2>
1

>  <nRot>
2

>  <SLogP>
2.72

>  <SMR>
108.72

>  <TopoPSA(NO)>
93.06

>  <TopoPSA>
93.06

>  <JGI1>
0.34

>  <JGI2>
0.14

>  <JGI3>
0.09

>  <JGI4>
0.06

>  <JGI5>
0.04

>  <Diameter>
12

>  <Radius>
6

>  <TMWC10>
149.22

>  <TSRW10>
85.65

>  <MW>
438.24

>  <AMW>
6.64

>  <WPath>
2185

>  <WPol>
76

>  <Zagreb1>
192

>  <Zagreb2>
252

>  <mZagreb2>
6.28

>  <yes>


>  <nAR-cont>
0

>  <nHA-cont>
0.702745138

>  <MWHBN>
0.382150102

>  <MWHBN-cont>
0.54636251

>  <TPSA-cont>
0.350383413

>  <pka_cont>
0.97

>  <yes.1>


>  <BBB_SCORE>
2.708055729

>  <MMFF94 Energy>
152.7

$$$$
Compound 992
Actelion Java MolfileCreator 2.0

  0  0  0  0  0  0              0 V3000
M  V30 BEGIN CTAB
M  V30 COUNTS 71 76 0 0 0
M  V30 BEGIN ATOM
M  V30 1 F -0.4068 2.2801 -1.8726 0
M  V30 2 C -0.9009 2.4751 -0.5909 0 CFG=2
M  V30 3 C -1.4382 3.9654 -0.5557 0 CFG=2
M  V30 4 C 0.308 2.1625 0.3473 0 CFG=1
M  V30 5 C -2.0543 1.4284 -0.4362 0
M  V30 6 C -2.5581 4.0862 -1.6044 0
M  V30 7 C -0.3107 4.9534 -0.8465 0
M  V30 8 C -2.029 4.3853 0.8104 0
M  V30 9 O 0.1576 2.6226 1.6858 0
M  V30 10 C 0.7477 0.6787 0.3483 0
M  V30 11 C -1.4611 0.0187 -0.5872 0 CFG=1
M  V30 12 C -3.1523 1.6654 -1.4884 0
M  V30 13 C -2.5399 4.9747 -2.6147 0
M  V30 14 C -3.6828 3.0932 -1.4689 0 CFG=2
M  V30 15 C -0.298 5.835 -1.855 0
M  V30 16 C -0.4073 -0.3345 0.4887 0 CFG=1
M  V30 17 C -2.3951 -1.1895 -0.5755 0
M  V30 18 C -1.4228 5.9206 -2.8051 0
M  V30 19 F -4.5831 3.2142 -2.4852 0
M  V30 20 C -0.0797 -1.8083 0.0699 0 CFG=1
M  V30 21 C -0.9836 -0.3206 1.9295 0
M  V30 22 C -1.4455 -2.3857 -0.3462 0 CFG=2
M  V30 23 O -1.4287 6.7435 -3.7111 0
M  V30 24 O 0.7003 -1.8468 -1.1273 0
M  V30 25 C 0.6032 -2.6353 1.1751 0
M  V30 26 O -1.2403 -3.0783 -1.5756 0
M  V30 27 C 0.0899 -2.8018 -2.0014 0
M  V30 28 O -0.0541 -3.2824 1.9947 0
M  V30 29 C 2.1264 -2.5714 1.2309 0
M  V30 30 C 0.0558 -2.227 -3.4115 0
M  V30 31 C 0.8886 -4.1018 -1.9751 0
M  V30 32 O 2.6114 -3.2889 2.3656 0
M  V30 33 C 3.9623 -3.269 2.4845 0
M  V30 34 O 4.7344 -2.6989 1.7272 0
M  V30 35 C 4.4106 -4.0371 3.6732 0
M  V30 36 C 5.7058 -4.816 3.6319 0
M  V30 37 C 5.6101 -3.5758 4.4698 0
M  V30 38 H 1.173 2.7127 -0.0419 0
M  V30 39 H -2.5183 1.5307 0.549 0
M  V30 40 H 0.5393 4.9549 -0.1659 0
M  V30 41 H -2.6042 5.3168 0.7222 0
M  V30 42 H -1.2546 4.5803 1.5595 0
M  V30 43 H -2.7043 3.6326 1.2273 0
M  V30 44 H -0.6472 2.2609 2.0837 0
M  V30 45 H 1.2743 0.4977 -0.597 0
M  V30 46 H 1.478 0.521 1.1501 0
M  V30 47 H -0.9696 0.0075 -1.5713 0
M  V30 48 H -3.9928 0.9809 -1.3226 0
M  V30 49 H -2.7753 1.4336 -2.4935 0
M  V30 50 H -3.3316 5.0364 -3.3542 0
M  V30 51 H -4.2359 3.2795 -0.5425 0
M  V30 52 H 0.5212 6.5252 -2.0161 0
M  V30 53 H -3.1117 -1.1087 0.2493 0
M  V30 54 H -2.9569 -1.2801 -1.5106 0
M  V30 55 H -1.6679 -1.1557 2.113 0
M  V30 56 H -0.1786 -0.3967 2.6692 0
M  V30 57 H -1.5552 0.577 2.1619 0
M  V30 58 H -1.8967 -3.0805 0.3682 0
M  V30 59 H 2.5265 -3.0243 0.3186 0
M  V30 60 H 2.4287 -1.5241 1.31 0
M  V30 61 H 1.0617 -1.9738 -3.7624 0
M  V30 62 H -0.5377 -1.3071 -3.4418 0
M  V30 63 H -0.406 -2.9269 -4.1156 0
M  V30 64 H 1.9374 -3.9291 -2.2375 0
M  V30 65 H 0.4631 -4.842 -2.661 0
M  V30 66 H 0.8719 -4.5517 -0.9766 0
M  V30 67 H 3.602 -4.4855 4.2439 0
M  V30 68 H 6.3079 -4.7712 2.7306 0
M  V30 69 H 5.7374 -5.7733 4.1388 0
M  V30 70 H 5.577 -3.6892 5.5471 0
M  V30 71 H 6.1481 -2.6962 4.1325 0
M  V30 END ATOM
M  V30 BEGIN BOND
M  V30 1 1 1 2
M  V30 2 1 2 3
M  V30 3 1 2 4
M  V30 4 1 2 5
M  V30 5 1 3 6
M  V30 6 1 3 7
M  V30 7 1 3 8
M  V30 8 1 4 9
M  V30 9 1 4 10
M  V30 10 1 5 11
M  V30 11 1 5 12
M  V30 12 2 6 13
M  V30 13 1 6 14
M  V30 14 2 7 15
M  V30 15 1 10 16
M  V30 16 1 11 17
M  V30 17 1 13 18
M  V30 18 1 14 19
M  V30 19 1 16 20
M  V30 20 1 16 21
M  V30 21 1 17 22
M  V30 22 2 18 23
M  V30 23 1 20 24
M  V30 24 1 20 25
M  V30 25 1 22 26
M  V30 26 1 24 27
M  V30 27 2 25 28
M  V30 28 1 25 29
M  V30 29 1 27 30
M  V30 30 1 27 31
M  V30 31 1 29 32
M  V30 32 1 32 33
M  V30 33 2 33 34
M  V30 34 1 33 35
M  V30 35 1 35 36
M  V30 36 1 35 37
M  V30 37 1 11 16
M  V30 38 1 12 14
M  V30 39 1 15 18
M  V30 40 1 20 22
M  V30 41 1 26 27
M  V30 42 1 36 37
M  V30 43 1 4 38
M  V30 44 1 5 39
M  V30 45 1 7 40
M  V30 46 1 8 41
M  V30 47 1 8 42
M  V30 48 1 8 43
M  V30 49 1 9 44
M  V30 50 1 10 45
M  V30 51 1 10 46
M  V30 52 1 11 47
M  V30 53 1 12 48
M  V30 54 1 12 49
M  V30 55 1 13 50
M  V30 56 1 14 51
M  V30 57 1 15 52
M  V30 58 1 17 53
M  V30 59 1 17 54
M  V30 60 1 21 55
M  V30 61 1 21 56
M  V30 62 1 21 57
M  V30 63 1 22 58
M  V30 64 1 29 59
M  V30 65 1 29 60
M  V30 66 1 30 61
M  V30 67 1 30 62
M  V30 68 1 30 63
M  V30 69 1 31 64
M  V30 70 1 31 65
M  V30 71 1 31 66
M  V30 72 1 35 67
M  V30 73 1 36 68
M  V30 74 1 36 69
M  V30 75 1 37 70
M  V30 76 1 37 71
M  V30 END BOND
M  V30 BEGIN COLLECTION
M  V30 MDLV30/STEABS ATOMS=(8 2 3 4 11 14 16 20 22)
M  V30 END COLLECTION
M  V30 END CTAB
M  END
>  <Column 1>
1183

>  <level_0>
1324

>  <index>
1324

>  <Unnamed: 0>
1324

>  <NO.>
1336

>  <Name>
ciprocinonida

>  <IUPAC_name>
[2-[(2s-4r-8s-9s-11s-12r-13s-19s)-12-19-difluoro-11-hydroxy-6-6-9-13-tetramethyl-16-oxo-5-7-dioxapentacyclo[10.8.0.02-9.04-8.013-18]icosa-14-17-dien-8-yl]-2-oxoethyl] cyclopropanecarboxylate

>  <SMILES>
CC1(C)O[C@@H]2C[C@H]3C4C[C@H](F)C5=CC(=O)C=C[C@]5(C)[C@@]4(F)[C@@H](O)C[C@]3(C)[C@]2(C(=O)COC(=O)C2CC2)O1

>  <CID>
42768

>  <logBB>


>  <BBB+/BBB->
BBB+

>  <Inchi>
InChI=1S/C28H34F2O7/c1-24(2)36-22-11-16-17-10-19(29)18-9-15(31)7-8-25(18-3)27(17-30)20(32)12-26(16-4)28(22-37-24)21(33)13-35-23(34)14-5-6-14/h7-9-14-16-17-19-20-22-32H-5-6-10-13H2-1-4H3/t16--17?-19--20--22+-25--26--27--28+/m0/s1

>  <threshold>
-1

>  <reference>
R1|R6|R27|R30|

>  <group>
B

>  <Class>
1

>  <ABC>
30.36

>  <ABCGG>
24.2

>  <nAcid>
0

>  <nBase>
0

>  <nAromAtom>
0

>  <nAromBond>
0

>  <nAtom>
71

>  <nHeavyAtom>
37

>  <nSpiro>
0

>  <nBridgehead>
0

>  <nHetero>
9

>  <nN>
0

>  <nO>
7

>  <nF>
2

>  <BalabanJ>
1.37

>  <BertzCT>
1143.35

>  <nBonds>
76

>  <nBondsO>
42

>  <nBondsS>
71

>  <nBondsD>
5

>  <nBondsT>
0

>  <nBondsA>
0

>  <nBondsM>
5

>  <nBondsKS>
71

>  <nBondsKD>
5

>  <RNCG>
0.14

>  <RPCG>
0.1

>  <FCSP3>
0.75

>  <SZ>
46

>  <Sm>
43.34

>  <Sv>
43.51

>  <Sse>
72.32

>  <Sp>
45.6

>  <Si>
80.62

>  <MZ>
0.65

>  <Mm>
0.61

>  <Mv>
0.61

>  <Mse>
1.02

>  <Mp>
0.64

>  <Mi>
1.14

>  <NsCH3>
4

>  <NdCH2>
0

>  <NssCH2>
6

>  <NtCH>
0

>  <NdsCH>
3

>  <NaaCH>
0

>  <NsssCH>
6

>  <NddC>
0

>  <NtsC>
0

>  <NdssC>
4

>  <NaasC>
0

>  <NaaaC>
0

>  <NssssC>
5

>  <NsNH3>
0

>  <NsNH2>
0

>  <NssNH2>
0

>  <NdNH>
0

>  <NssNH>
0

>  <NaaNH>
0

>  <NtN>
0

>  <NsssNH>
0

>  <NdsN>
0

>  <NaaN>
0

>  <NsssN>
0

>  <NddsN>
0

>  <NaasN>
0

>  <NssssN>
0

>  <NsOH>
1

>  <NdO>
3

>  <NssO>
3

>  <NaaO>
0

>  <NsF>
2

>  <NsSiH3>
0

>  <NssSiH2>
0

>  <NsssSiH>
0

>  <NssssSi>
0

>  <NsPH2>
0

>  <NssPH>
0

>  <NsssP>
0

>  <NdsssP>
0

>  <NsssssP>
0

>  <NsSH>
0

>  <NdS>
0

>  <NssS>
0

>  <NaaS>
0

>  <NdssS>
0

>  <NddssS>
0

>  <NsCl>
0

>  <NsBr>
0

>  <NsI>
0

>  <fragCpx>
432.09

>  <fMF>
0.38

>  <nHBAcc>
7

>  <nHBDon>
1

>  <Kier1>
27.18

>  <Kier2>
8.51

>  <Lipinski>
0

>  <GhoseFilter>
0

>  <FilterItLogS>
-4.28

>  <VMcGowan>
363.33

>  <LabuteASA>
214.13

>  <PEOE_VSA1>
19.32

>  <PEOE_VSA2>
14.38

>  <PEOE_VSA3>
8.78

>  <PEOE_VSA4>
0

>  <PEOE_VSA5>
0

>  <PEOE_VSA6>
13

>  <PEOE_VSA7>
76.52

>  <PEOE_VSA8>
16.75

>  <PEOE_VSA9>
18.13

>  <PEOE_VSA10>
6.17

>  <PEOE_VSA11>
29.45

>  <PEOE_VSA12>
5.78

>  <PEOE_VSA13>
0

>  <SMR_VSA1>
42.48

>  <SMR_VSA2>
0

>  <SMR_VSA3>
0

>  <SMR_VSA4>
28.58

>  <SMR_VSA5>
95.24

>  <SMR_VSA6>
6.61

>  <SMR_VSA7>
23.8

>  <SMR_VSA8>
0

>  <SMR_VSA9>
0

>  <SlogP_VSA1>
0

>  <SlogP_VSA2>
64.69

>  <SlogP_VSA3>
28.59

>  <SlogP_VSA4>
28.58

>  <SlogP_VSA5>
59.8

>  <SlogP_VSA6>
23.8

>  <SlogP_VSA7>
0

>  <SlogP_VSA8>
0

>  <SlogP_VSA9>
0

>  <SlogP_VSA10>
8.78

>  <SlogP_VSA11>
0

>  <EState_VSA1>
82.25

>  <EState_VSA2>
30.75

>  <EState_VSA3>
0

>  <EState_VSA4>
18.92

>  <EState_VSA5>
19.08

>  <EState_VSA6>
20.77

>  <EState_VSA7>
0

>  <EState_VSA8>
0

>  <EState_VSA9>
14.21

>  <EState_VSA10>
19.49

>  <VSA_EState1>
50.94

>  <VSA_EState2>
38.12

>  <VSA_EState3>
11.54

>  <VSA_EState4>
-6.43

>  <VSA_EState5>
-4.16

>  <VSA_EState6>
0

>  <VSA_EState7>
1.2

>  <VSA_EState8>
6.2

>  <VSA_EState9>
0

>  <apol>
76.16

>  <bpol>
44.15

>  <nRing>
6

>  <nHRing>
1

>  <naRing>
0

>  <naHRing>
0

>  <nARing 2>
6

>  <nAHRing 2>
1

>  <nFRing>
1

>  <nFHRing>
1

>  <nFaRing>
0

>  <nFaHRing>
0

>  <nFARing 2>
1

>  <nFAHRing 2>
1

>  <nRot>
4

>  <SLogP>
3.33

>  <SMR>
125.47

>  <TopoPSA(NO)>
99.13

>  <TopoPSA>
99.13

>  <JGI1>
0.32

>  <JGI2>
0.14

>  <JGI3>
0.08

>  <JGI4>
0.06

>  <JGI5>
0.04

>  <Diameter>
15

>  <Radius>
8

>  <TMWC10>
163.41

>  <TSRW10>
96.36

>  <MW>
520.23

>  <AMW>
7.33

>  <WPath>
3715

>  <WPol>
86

>  <Zagreb1>
228

>  <Zagreb2>
296

>  <mZagreb2>
7.42

>  <yes>


>  <nAR-cont>
0

>  <nHA-cont>
0.433355441

>  <MWHBN>
0.350745648

>  <MWHBN-cont>
0.667460073

>  <TPSA-cont>
0.308011044

>  <pka_cont>
0.97

>  <yes.1>


>  <BBB_SCORE>
2.535567638

>  <MMFF94 Energy>
175.4

$$$$
Compound 993
Actelion Java MolfileCreator 2.0

  0  0  0  0  0  0              0 V3000
M  V30 BEGIN CTAB
M  V30 COUNTS 62 66 0 0 0
M  V30 BEGIN ATOM
M  V30 1 F 0.2432 -0.73 2.0287 0
M  V30 2 C -0.9844 -0.2352 1.61 0 CFG=2
M  V30 3 C -1.8385 -0.0169 2.9256 0 CFG=2
M  V30 4 C -1.5235 -1.3163 0.6192 0 CFG=1
M  V30 5 C -0.6582 1.1136 0.8849 0 CFG=2
M  V30 6 C -1.1075 1.0267 3.7896 0
M  V30 7 C -2.0093 -1.3304 3.6855 0
M  V30 8 C -3.2675 0.513 2.6654 0
M  V30 9 O -2.905 -1.199 0.2952 0
M  V30 10 C -0.6971 -1.4488 -0.6826 0
M  V30 11 C 0.2595 0.8169 -0.3119 0 CFG=1
M  V30 12 C 0.0192 2.1084 1.8468 0
M  V30 13 C -0.7121 0.801 5.0553 0
M  V30 14 C -0.7943 2.3381 3.116 0
M  V30 15 C -1.6124 -1.5505 4.9459 0
M  V30 16 C -0.3775 -0.1082 -1.3753 0 CFG=1
M  V30 17 C 0.8094 1.978 -1.138 0
M  V30 18 C -0.9478 -0.4923 5.729 0
M  V30 19 C 0.7788 -0.14 -2.4296 0 CFG=1
M  V30 20 C -1.6514 0.4962 -2.0236 0
M  V30 21 C 1.3183 1.3016 -2.4296 0 CFG=2
M  V30 22 O -0.6058 -0.6772 6.8899 0
M  V30 23 O 1.8802 -0.9322 -1.9776 0
M  V30 24 C 0.3391 -0.6087 -3.8245 0
M  V30 25 O 2.7407 1.2063 -2.3973 0
M  V30 26 C 3.0692 -0.1631 -2.1853 0
M  V30 27 O -0.041 0.1731 -4.7021 0
M  V30 28 C 0.3687 -2.1079 -4.0996 0
M  V30 29 C 3.9551 -0.2815 -0.9518 0
M  V30 30 C 3.8017 -0.6829 -3.419 0
M  V30 31 O -0.3648 -2.4318 -5.2732 0
M  V30 32 H -1.4312 -2.2906 1.1137 0
M  V30 33 H -1.5844 1.5785 0.5341 0
M  V30 34 H -2.5143 -2.1436 3.1667 0
M  V30 35 H -3.7277 0.8801 3.5925 0
M  V30 36 H -3.2862 1.3414 1.9511 0
M  V30 37 H -3.9385 -0.2638 2.2841 0
M  V30 38 H -3.1171 -0.2876 0.0451 0
M  V30 39 H 0.2405 -1.9552 -0.4216 0
M  V30 40 H -1.2275 -2.1076 -1.3798 0
M  V30 41 H 1.1389 0.307 0.1086 0
M  V30 42 H 0.1632 3.0731 1.3461 0
M  V30 43 H 1.0185 1.7431 2.1184 0
M  V30 44 H -0.1857 1.5399 5.6488 0
M  V30 45 H -0.2315 3.0039 3.7817 0
M  V30 46 H -1.726 2.863 2.8757 0
M  V30 47 H -1.7651 -2.4978 5.4484 0
M  V30 48 H 0.0104 2.6907 -1.3711 0
M  V30 49 H 1.6046 2.5142 -0.6103 0
M  V30 50 H -1.4236 1.3429 -2.6799 0
M  V30 51 H -2.1673 -0.253 -2.6348 0
M  V30 52 H -2.3709 0.8758 -1.2993 0
M  V30 53 H 1.0339 1.9059 -3.2961 0
M  V30 54 H 1.404 -2.4273 -4.2404 0
M  V30 55 H -0.0743 -2.6556 -3.2673 0
M  V30 56 H 3.4449 0.1144 -0.0673 0
M  V30 57 H 4.8798 0.2931 -1.0692 0
M  V30 58 H 4.2045 -1.3264 -0.7399 0
M  V30 59 H 4.022 -1.7517 -3.3294 0
M  V30 60 H 4.7356 -0.1355 -3.5853 0
M  V30 61 H 3.1937 -0.5496 -4.3202 0
M  V30 62 H -0.3008 -1.6531 -5.8619 0
M  V30 END ATOM
M  V30 BEGIN BOND
M  V30 1 1 1 2
M  V30 2 1 2 3
M  V30 3 1 2 4
M  V30 4 1 2 5
M  V30 5 1 3 6
M  V30 6 1 3 7
M  V30 7 1 3 8
M  V30 8 1 4 9
M  V30 9 1 4 10
M  V30 10 1 5 11
M  V30 11 1 5 12
M  V30 12 2 6 13
M  V30 13 1 6 14
M  V30 14 2 7 15
M  V30 15 1 10 16
M  V30 16 1 11 17
M  V30 17 1 13 18
M  V30 18 1 16 19
M  V30 19 1 16 20
M  V30 20 1 17 21
M  V30 21 2 18 22
M  V30 22 1 19 23
M  V30 23 1 19 24
M  V30 24 1 21 25
M  V30 25 1 23 26
M  V30 26 2 24 27
M  V30 27 1 24 28
M  V30 28 1 26 29
M  V30 29 1 26 30
M  V30 30 1 28 31
M  V30 31 1 11 16
M  V30 32 1 12 14
M  V30 33 1 15 18
M  V30 34 1 19 21
M  V30 35 1 25 26
M  V30 36 1 4 32
M  V30 37 1 5 33
M  V30 38 1 7 34
M  V30 39 1 8 35
M  V30 40 1 8 36
M  V30 41 1 8 37
M  V30 42 1 9 38
M  V30 43 1 10 39
M  V30 44 1 10 40
M  V30 45 1 11 41
M  V30 46 1 12 42
M  V30 47 1 12 43
M  V30 48 1 13 44
M  V30 49 1 14 45
M  V30 50 1 14 46
M  V30 51 1 15 47
M  V30 52 1 17 48
M  V30 53 1 17 49
M  V30 54 1 20 50
M  V30 55 1 20 51
M  V30 56 1 20 52
M  V30 57 1 21 53
M  V30 58 1 28 54
M  V30 59 1 28 55
M  V30 60 1 29 56
M  V30 61 1 29 57
M  V30 62 1 29 58
M  V30 63 1 30 59
M  V30 64 1 30 60
M  V30 65 1 30 61
M  V30 66 1 31 62
M  V30 END BOND
M  V30 BEGIN COLLECTION
M  V30 MDLV30/STEABS ATOMS=(8 2 3 4 5 11 16 19 21)
M  V30 END COLLECTION
M  V30 END CTAB
M  END
>  <Column 1>
1184

>  <level_0>
1325

>  <index>
1325

>  <Unnamed: 0>
1325

>  <NO.>
1337

>  <Name>
triamcinolone acetonide

>  <IUPAC_name>
(1s-2s-4r-8s-9s-11s-12r-13s)-12-fluoro-11-hydroxy-8-(2-hydroxyacetyl)-6-6-9-13-tetramethyl-5-7-dioxapentacyclo[10.8.0.02-9.04-8.013-18]icosa-14-17-dien-16-one

>  <SMILES>
CC1(C)O[C@@H]2C[C@H]3[C@@H]4CCC5=CC(=O)C=C[C@]5(C)[C@@]4(F)[C@@H](O)C[C@]3(C)[C@]2(C(=O)CO)O1

>  <CID>
6436

>  <logBB>


>  <BBB+/BBB->
BBB+

>  <Inchi>
InChI=1S/C24H31FO6/c1-20(2)30-19-10-16-15-6-5-13-9-14(27)7-8-21(13-3)23(15-25)17(28)11-22(16-4)24(19-31-20)18(29)12-26/h7-9-15-17-19-26-28H-5-6-10-12H2-1-4H3/t15--16--17--19+-21--22--23--24+/m0/s1

>  <threshold>
-1

>  <reference>
R1|R6|R27|R30|

>  <group>
B

>  <Class>
1

>  <ABC>
25.27

>  <ABCGG>
20.59

>  <nAcid>
0

>  <nBase>
0

>  <nAromAtom>
0

>  <nAromBond>
0

>  <nAtom>
62

>  <nHeavyAtom>
31

>  <nSpiro>
0

>  <nBridgehead>
0

>  <nHetero>
7

>  <nN>
0

>  <nO>
6

>  <nF>
1

>  <BalabanJ>
1.59

>  <BertzCT>
925.03

>  <nBonds>
66

>  <nBondsO>
35

>  <nBondsS>
62

>  <nBondsD>
4

>  <nBondsT>
0

>  <nBondsA>
0

>  <nBondsM>
4

>  <nBondsKS>
62

>  <nBondsKD>
4

>  <RNCG>
0.14

>  <RPCG>
0.08

>  <FCSP3>
0.75

>  <SZ>
38.67

>  <Sm>
36.18

>  <Sv>
37.33

>  <Sse>
62.7

>  <Sp>
39.59

>  <Si>
70.24

>  <MZ>
0.62

>  <Mm>
0.58

>  <Mv>
0.6

>  <Mse>
1.01

>  <Mp>
0.64

>  <Mi>
1.13

>  <NsCH3>
4

>  <NdCH2>
0

>  <NssCH2>
5

>  <NtCH>
0

>  <NdsCH>
3

>  <NaaCH>
0

>  <NsssCH>
4

>  <NddC>
0

>  <NtsC>
0

>  <NdssC>
3

>  <NaasC>
0

>  <NaaaC>
0

>  <NssssC>
5

>  <NsNH3>
0

>  <NsNH2>
0

>  <NssNH2>
0

>  <NdNH>
0

>  <NssNH>
0

>  <NaaNH>
0

>  <NtN>
0

>  <NsssNH>
0

>  <NdsN>
0

>  <NaaN>
0

>  <NsssN>
0

>  <NddsN>
0

>  <NaasN>
0

>  <NssssN>
0

>  <NsOH>
2

>  <NdO>
2

>  <NssO>
2

>  <NaaO>
0

>  <NsF>
1

>  <NsSiH3>
0

>  <NssSiH2>
0

>  <NsssSiH>
0

>  <NssssSi>
0

>  <NsPH2>
0

>  <NssPH>
0

>  <NsssP>
0

>  <NdsssP>
0

>  <NsssssP>
0

>  <NsSH>
0

>  <NdS>
0

>  <NssS>
0

>  <NaaS>
0

>  <NdssS>
0

>  <NddssS>
0

>  <NsCl>
0

>  <NsBr>
0

>  <NsI>
0

>  <fragCpx>
295.07

>  <fMF>
0.32

>  <nHBAcc>
6

>  <nHBDon>
2

>  <Kier1>
22.78

>  <Kier2>
6.78

>  <Lipinski>
1

>  <GhoseFilter>
1

>  <FilterItLogS>
-3.46

>  <VMcGowan>
314.5

>  <LabuteASA>
181.03

>  <PEOE_VSA1>
19.69

>  <PEOE_VSA2>
9.59

>  <PEOE_VSA3>
4.39

>  <PEOE_VSA4>
0

>  <PEOE_VSA5>
0

>  <PEOE_VSA6>
18.57

>  <PEOE_VSA7>
64.52

>  <PEOE_VSA8>
16.75

>  <PEOE_VSA9>
12.21

>  <PEOE_VSA10>
6.61

>  <PEOE_VSA11>
28.62

>  <PEOE_VSA12>
0

>  <PEOE_VSA13>
0

>  <SMR_VSA1>
33.67

>  <SMR_VSA2>
0

>  <SMR_VSA3>
0

>  <SMR_VSA4>
22.67

>  <SMR_VSA5>
82.64

>  <SMR_VSA6>
6.61

>  <SMR_VSA7>
23.8

>  <SMR_VSA8>
0

>  <SMR_VSA9>
0

>  <SlogP_VSA1>
0

>  <SlogP_VSA2>
57.65

>  <SlogP_VSA3>
19.06

>  <SlogP_VSA4>
22.67

>  <SlogP_VSA5>
53.38

>  <SlogP_VSA6>
23.8

>  <SlogP_VSA7>
0

>  <SlogP_VSA8>
0

>  <SlogP_VSA9>
0

>  <SlogP_VSA10>
4.39

>  <SlogP_VSA11>
0

>  <EState_VSA1>
58.4

>  <EState_VSA2>
18.12

>  <EState_VSA3>
19.26

>  <EState_VSA4>
5.57

>  <EState_VSA5>
12.15

>  <EState_VSA6>
26.85

>  <EState_VSA7>
6.92

>  <EState_VSA8>
0

>  <EState_VSA9>
9.47

>  <EState_VSA10>
19.8

>  <VSA_EState1>
29.51

>  <VSA_EState2>
25.09

>  <VSA_EState3>
21.18

>  <VSA_EState4>
-4.66

>  <VSA_EState5>
-2.46

>  <VSA_EState6>
0

>  <VSA_EState7>
4

>  <VSA_EState8>
6.41

>  <VSA_EState9>
0

>  <apol>
66.12

>  <bpol>
37.42

>  <nRing>
5

>  <nHRing>
1

>  <naRing>
0

>  <naHRing>
0

>  <nARing 2>
5

>  <nAHRing 2>
1

>  <nFRing>
1

>  <nFHRing>
1

>  <nFaRing>
0

>  <nFaHRing>
0

>  <nFARing 2>
1

>  <nFAHRing 2>
1

>  <nRot>
2

>  <SLogP>
2.42

>  <SMR>
108.6

>  <TopoPSA(NO)>
93.06

>  <TopoPSA>
93.06

>  <JGI1>
0.34

>  <JGI2>
0.14

>  <JGI3>
0.09

>  <JGI4>
0.06

>  <JGI5>
0.04

>  <Diameter>
12

>  <Radius>
6

>  <TMWC10>
149.22

>  <TSRW10>
85.65

>  <MW>
434.21

>  <AMW>
7

>  <WPath>
2185

>  <WPol>
76

>  <Zagreb1>
192

>  <Zagreb2>
252

>  <mZagreb2>
6.28

>  <yes>


>  <nAR-cont>
0

>  <nHA-cont>
0.702745138

>  <MWHBN>
0.383919416

>  <MWHBN-cont>
0.539406772

>  <TPSA-cont>
0.350383413

>  <pka_cont>
0.97

>  <yes.1>


>  <BBB_SCORE>
2.697622122

>  <MMFF94 Energy>
176.39

$$$$
Compound 994
Actelion Java MolfileCreator 2.0

  0  0  0  0  0  0              0 V3000
M  V30 BEGIN CTAB
M  V30 COUNTS 63 67 0 0 0
M  V30 BEGIN ATOM
M  V30 1 Cl -0.1631 5.3958 1.306 0
M  V30 2 C -0.8089 4.057 2.2717 0
M  V30 3 C -1.8524 3.3082 1.4703 0
M  V30 4 O -2.8286 3.8856 0.9838 0
M  V30 5 C -1.6332 1.7985 1.2808 0 CFG=2
M  V30 6 O -1.1905 1.2233 2.5149 0
M  V30 7 C -0.6738 1.4366 0.1004 0 CFG=2
M  V30 8 C -2.9289 1.0348 0.9508 0 CFG=2
M  V30 9 C -2.3276 0.6032 3.1238 0
M  V30 10 C -1.0353 -0.0571 -0.0824 0 CFG=1
M  V30 11 C 0.8349 1.5109 0.4117 0
M  V30 12 C -1.0274 2.3045 -1.1369 0
M  V30 13 O -3.3637 0.4236 2.1641 0
M  V30 14 C -2.5629 -0.053 -0.0831 0
M  V30 15 C -1.9122 -0.7551 3.6734 0
M  V30 16 C -2.8491 1.497 4.2458 0
M  V30 17 C -0.2844 -0.7383 -1.2371 0 CFG=1
M  V30 18 C 1.7353 0.7646 -0.6019 0 CFG=1
M  V30 19 C 1.2542 -0.6829 -0.93 0 CFG=1
M  V30 20 C -0.7761 -2.1901 -1.4254 0
M  V30 21 O 1.9664 1.5895 -1.7375 0
M  V30 22 F 1.4174 -1.3783 0.2574 0
M  V30 23 C 2.0939 -1.4657 -2.0134 0 CFG=2
M  V30 24 C 0.0548 -2.9776 -2.4393 0
M  V30 25 C 1.5117 -2.8895 -2.0605 0
M  V30 26 C 3.6168 -1.5206 -1.6913 0
M  V30 27 C 1.9941 -0.8398 -3.429 0
M  V30 28 C 2.1743 -3.9924 -1.6695 0
M  V30 29 C 4.001 -2.5371 -0.6291 0
M  V30 30 C 3.5085 -3.9031 -1.0314 0
M  V30 31 O 4.1302 -4.9319 -0.78 0
M  V30 32 H 0.0277 3.4142 2.5499 0
M  V30 33 H -1.2696 4.4533 3.1807 0
M  V30 34 H -3.7473 1.648 0.5619 0
M  V30 35 H -0.738 -0.6011 0.8266 0
M  V30 36 H 1.0231 1.069 1.3984 0
M  V30 37 H 1.1489 2.5595 0.4733 0
M  V30 38 H -0.5896 3.3047 -1.0484 0
M  V30 39 H -2.1078 2.4389 -1.2573 0
M  V30 40 H -0.6787 1.8829 -2.0788 0
M  V30 41 H -2.9416 0.2221 -1.0739 0
M  V30 42 H -2.974 -1.0325 0.1816 0
M  V30 43 H -2.7553 -1.2663 4.1501 0
M  V30 44 H -1.094 -0.6595 4.3948 0
M  V30 45 H -1.5582 -1.4075 2.868 0
M  V30 46 H -2.0658 1.7093 4.981 0
M  V30 47 H -3.7043 1.0377 4.7532 0
M  V30 48 H -3.1948 2.4591 3.8525 0
M  V30 49 H -0.494 -0.2074 -2.1698 0
M  V30 50 H 2.7099 0.6826 -0.1065 0
M  V30 51 H -0.7538 -2.7139 -0.4601 0
M  V30 52 H -1.8218 -2.1888 -1.7555 0
M  V30 53 H 1.2121 1.5468 -2.344 0
M  V30 54 H -0.1032 -2.59 -3.4514 0
M  V30 55 H -0.294 -4.0175 -2.4531 0
M  V30 56 H 3.9984 -0.5332 -1.4117 0
M  V30 57 H 4.164 -1.7922 -2.6069 0
M  V30 58 H 2.6184 0.0545 -3.5221 0
M  V30 59 H 0.9754 -0.5581 -3.7072 0
M  V30 60 H 2.3494 -1.5437 -4.1925 0
M  V30 61 H 1.7407 -4.986 -1.6976 0
M  V30 62 H 5.0929 -2.5738 -0.5449 0
M  V30 63 H 3.5942 -2.2838 0.3538 0
M  V30 END ATOM
M  V30 BEGIN BOND
M  V30 1 1 1 2
M  V30 2 1 2 3
M  V30 3 2 3 4
M  V30 4 1 3 5
M  V30 5 1 5 6
M  V30 6 1 5 7
M  V30 7 1 5 8
M  V30 8 1 6 9
M  V30 9 1 7 10
M  V30 10 1 7 11
M  V30 11 1 7 12
M  V30 12 1 8 13
M  V30 13 1 8 14
M  V30 14 1 9 15
M  V30 15 1 9 16
M  V30 16 1 10 17
M  V30 17 1 11 18
M  V30 18 1 17 19
M  V30 19 1 17 20
M  V30 20 1 18 21
M  V30 21 1 19 22
M  V30 22 1 19 23
M  V30 23 1 20 24
M  V30 24 1 23 25
M  V30 25 1 23 26
M  V30 26 1 23 27
M  V30 27 2 25 28
M  V30 28 1 26 29
M  V30 29 1 28 30
M  V30 30 2 30 31
M  V30 31 1 9 13
M  V30 32 1 10 14
M  V30 33 1 18 19
M  V30 34 1 24 25
M  V30 35 1 29 30
M  V30 36 1 2 32
M  V30 37 1 2 33
M  V30 38 1 8 34
M  V30 39 1 10 35
M  V30 40 1 11 36
M  V30 41 1 11 37
M  V30 42 1 12 38
M  V30 43 1 12 39
M  V30 44 1 12 40
M  V30 45 1 14 41
M  V30 46 1 14 42
M  V30 47 1 15 43
M  V30 48 1 15 44
M  V30 49 1 15 45
M  V30 50 1 16 46
M  V30 51 1 16 47
M  V30 52 1 16 48
M  V30 53 1 17 49
M  V30 54 1 18 50
M  V30 55 1 20 51
M  V30 56 1 20 52
M  V30 57 1 21 53
M  V30 58 1 24 54
M  V30 59 1 24 55
M  V30 60 1 26 56
M  V30 61 1 26 57
M  V30 62 1 27 58
M  V30 63 1 27 59
M  V30 64 1 27 60
M  V30 65 1 28 61
M  V30 66 1 29 62
M  V30 67 1 29 63
M  V30 END BOND
M  V30 BEGIN COLLECTION
M  V30 MDLV30/STEABS ATOMS=(8 5 7 8 10 17 18 19 23)
M  V30 END COLLECTION
M  V30 END CTAB
M  END
>  <Column 1>
1186

>  <level_0>
1327

>  <index>
1327

>  <Unnamed: 0>
1327

>  <NO.>
1339

>  <Name>
halcinonide

>  <IUPAC_name>
(1s-2s-4r-8s-9s-11s-12r-13s)-8-(2-chloroacetyl)-12-fluoro-11-hydroxy-6-6-9-13-tetramethyl-5-7-dioxapentacyclo[10.8.0.02-9.04-8.013-18]icos-17-en-16-one

>  <SMILES>
CC1(C)O[C@@H]2C[C@H]3[C@@H]4CCC5=CC(=O)CC[C@]5(C)[C@@]4(F)[C@@H](O)C[C@]3(C)[C@]2(C(=O)CCl)O1

>  <CID>
443943

>  <logBB>


>  <BBB+/BBB->
BBB+

>  <Inchi>
InChI=1S/C24H32ClFO5/c1-20(2)30-19-10-16-15-6-5-13-9-14(27)7-8-21(13-3)23(15-26)17(28)11-22(16-4)24(19-31-20)18(29)12-25/h9-15-17-19-28H-5-8-10-12H2-1-4H3/t15--16--17--19+-21--22--23--24+/m0/s1

>  <threshold>
-1

>  <reference>
R1|R27|R30|

>  <group>
B

>  <Class>
1

>  <ABC>
25.27

>  <ABCGG>
20.59

>  <nAcid>
0

>  <nBase>
0

>  <nAromAtom>
0

>  <nAromBond>
0

>  <nAtom>
63

>  <nHeavyAtom>
31

>  <nSpiro>
0

>  <nBridgehead>
0

>  <nHetero>
7

>  <nN>
0

>  <nO>
5

>  <nF>
1

>  <BalabanJ>
1.59

>  <BertzCT>
887.2

>  <nBonds>
67

>  <nBondsO>
35

>  <nBondsS>
64

>  <nBondsD>
3

>  <nBondsT>
0

>  <nBondsA>
0

>  <nBondsM>
3

>  <nBondsKS>
64

>  <nBondsKD>
3

>  <RNCG>
0.16

>  <RPCG>
0.09

>  <FCSP3>
0.83

>  <SZ>
40.33

>  <Sm>
37.88

>  <Sv>
37.98

>  <Sse>
63.58

>  <Sp>
40.82

>  <Si>
71.39

>  <MZ>
0.64

>  <Mm>
0.6

>  <Mv>
0.6

>  <Mse>
1.01

>  <Mp>
0.65

>  <Mi>
1.13

>  <NsCH3>
4

>  <NdCH2>
0

>  <NssCH2>
7

>  <NtCH>
0

>  <NdsCH>
1

>  <NaaCH>
0

>  <NsssCH>
4

>  <NddC>
0

>  <NtsC>
0

>  <NdssC>
3

>  <NaasC>
0

>  <NaaaC>
0

>  <NssssC>
5

>  <NsNH3>
0

>  <NsNH2>
0

>  <NssNH2>
0

>  <NdNH>
0

>  <NssNH>
0

>  <NaaNH>
0

>  <NtN>
0

>  <NsssNH>
0

>  <NdsN>
0

>  <NaaN>
0

>  <NsssN>
0

>  <NddsN>
0

>  <NaasN>
0

>  <NssssN>
0

>  <NsOH>
1

>  <NdO>
2

>  <NssO>
2

>  <NaaO>
0

>  <NsF>
1

>  <NsSiH3>
0

>  <NssSiH2>
0

>  <NsssSiH>
0

>  <NssssSi>
0

>  <NsPH2>
0

>  <NssPH>
0

>  <NsssP>
0

>  <NdsssP>
0

>  <NsssssP>
0

>  <NsSH>
0

>  <NdS>
0

>  <NssS>
0

>  <NaaS>
0

>  <NdssS>
0

>  <NddssS>
0

>  <NsCl>
1

>  <NsBr>
0

>  <NsI>
0

>  <fragCpx>
295.07

>  <fMF>
0.32

>  <nHBAcc>
5

>  <nHBDon>
1

>  <Kier1>
22.78

>  <Kier2>
6.78

>  <Lipinski>
1

>  <GhoseFilter>
1

>  <FilterItLogS>
-5.1

>  <VMcGowan>
325.17

>  <LabuteASA>
187.23

>  <PEOE_VSA1>
14.58

>  <PEOE_VSA2>
9.59

>  <PEOE_VSA3>
4.39

>  <PEOE_VSA4>
0

>  <PEOE_VSA5>
11.6

>  <PEOE_VSA6>
19.42

>  <PEOE_VSA7>
57.95

>  <PEOE_VSA8>
23.17

>  <PEOE_VSA9>
18.09

>  <PEOE_VSA10>
5.67

>  <PEOE_VSA11>
22.95

>  <PEOE_VSA12>
0

>  <PEOE_VSA13>
0

>  <SMR_VSA1>
28.56

>  <SMR_VSA2>
0

>  <SMR_VSA3>
0

>  <SMR_VSA4>
22.67

>  <SMR_VSA5>
95.48

>  <SMR_VSA6>
5.88

>  <SMR_VSA7>
11.65

>  <SMR_VSA8>
0

>  <SMR_VSA9>
0

>  <SlogP_VSA1>
0

>  <SlogP_VSA2>
51.82

>  <SlogP_VSA3>
19.06

>  <SlogP_VSA4>
22.67

>  <SlogP_VSA5>
66.22

>  <SlogP_VSA6>
11.65

>  <SlogP_VSA7>
0

>  <SlogP_VSA8>
0

>  <SlogP_VSA9>
0

>  <SlogP_VSA10>
4.39

>  <SlogP_VSA11>
0

>  <EState_VSA1>
46.01

>  <EState_VSA2>
29.79

>  <EState_VSA3>
32.1

>  <EState_VSA4>
5.57

>  <EState_VSA5>
0

>  <EState_VSA6>
19.92

>  <EState_VSA7>
13.85

>  <EState_VSA8>
0

>  <EState_VSA9>
21.07

>  <EState_VSA10>
14.7

>  <VSA_EState1>
29.74

>  <VSA_EState2>
25.32

>  <VSA_EState3>
11.44

>  <VSA_EState4>
-4

>  <VSA_EState5>
-2.02

>  <VSA_EState6>
0

>  <VSA_EState7>
2.28

>  <VSA_EState8>
7.38

>  <VSA_EState9>
0

>  <apol>
68.16

>  <bpol>
38.93

>  <nRing>
5

>  <nHRing>
1

>  <naRing>
0

>  <naHRing>
0

>  <nARing 2>
5

>  <nAHRing 2>
1

>  <nFRing>
1

>  <nFHRing>
1

>  <nFaRing>
0

>  <nFaHRing>
0

>  <nFARing 2>
1

>  <nFAHRing 2>
1

>  <nRot>
2

>  <SLogP>
3.89

>  <SMR>
112.33

>  <TopoPSA(NO)>
72.83

>  <TopoPSA>
72.83

>  <JGI1>
0.34

>  <JGI2>
0.14

>  <JGI3>
0.09

>  <JGI4>
0.06

>  <JGI5>
0.04

>  <Diameter>
12

>  <Radius>
6

>  <TMWC10>
149.22

>  <TSRW10>
85.65

>  <MW>
454.19

>  <AMW>
7.21

>  <WPath>
2185

>  <WPol>
76

>  <Zagreb1>
192

>  <Zagreb2>
252

>  <mZagreb2>
6.28

>  <yes>


>  <nAR-cont>
0

>  <nHA-cont>
0.702745138

>  <MWHBN>
0.281535047

>  <MWHBN-cont>
0.892166127

>  <TPSA-cont>
0.491601375

>  <pka_cont>
0.97

>  <yes.1>


>  <BBB_SCORE>
3.509197078

>  <MMFF94 Energy>
157.95

$$$$
Compound 995
Actelion Java MolfileCreator 2.0

  0  0  0  0  0  0              0 V3000
M  V30 BEGIN CTAB
M  V30 COUNTS 62 66 0 0 0
M  V30 BEGIN ATOM
M  V30 1 F -0.5695 1.1393 -1.7907 0
M  V30 2 C -1.2945 0.0418 -1.3512 0 CFG=2
M  V30 3 C -2.2522 -0.3593 -2.549 0 CFG=2
M  V30 4 C -2.005 0.5319 -0.0502 0 CFG=1
M  V30 5 C -0.2319 -1.07 -1.0553 0 CFG=2
M  V30 6 C -1.3678 -0.7391 -3.7506 0
M  V30 7 C -3.1861 0.7969 -2.907 0
M  V30 8 C -3.1714 -1.5641 -2.2402 0
M  V30 9 O -2.9703 -0.4026 0.4194 0
M  V30 10 C -1.0212 0.8692 1.0958 0
M  V30 11 C 0.712 -0.5693 0.048 0 CFG=1
M  V30 12 C 0.5611 -1.4227 -2.3252 0
M  V30 13 C -1.4426 -0.1384 -4.9524 0
M  V30 14 C -0.3444 -1.8127 -3.4857 0 CFG=2
M  V30 15 C -3.2549 1.3914 -4.1055 0
M  V30 16 C -0.0044 -0.2553 1.3829 0 CFG=1
M  V30 17 C 1.8879 -1.4468 0.4733 0
M  V30 18 C -2.3942 0.957 -5.2214 0
M  V30 19 F 0.4482 -2.0268 -4.5745 0
M  V30 20 C 1.2264 0.1362 2.263 0 CFG=1
M  V30 21 C -0.717 -1.4917 1.9955 0
M  V30 22 C 2.3219 -0.8525 1.8306 0 CFG=2
M  V30 23 O -2.4699 1.484 -6.3237 0
M  V30 24 O 1.7407 1.4213 1.9015 0
M  V30 25 C 0.949 0.0936 3.7725 0
M  V30 26 O 3.5165 -0.0909 1.6682 0
M  V30 27 C 3.1591 1.2844 1.7611 0
M  V30 28 O 1.1353 -0.9161 4.4589 0
M  V30 29 C 0.3998 1.3616 4.4162 0
M  V30 30 C 3.6019 2.0059 0.4946 0
M  V30 31 C 3.8493 1.8827 2.9837 0
M  V30 32 O -0.217 1.0791 5.665 0
M  V30 33 H -2.5459 1.4581 -0.2762 0
M  V30 34 H -0.7341 -1.9828 -0.7203 0
M  V30 35 H -3.8673 1.1458 -2.1336 0
M  V30 36 H -3.6344 -1.9524 -3.1572 0
M  V30 37 H -2.6347 -2.3972 -1.7772 0
M  V30 38 H -3.9991 -1.2978 -1.574 0
M  V30 39 H -3.4417 0.0043 1.1694 0
M  V30 40 H -1.5897 1.0901 2.0065 0
M  V30 41 H -0.4912 1.7896 0.8209 0
M  V30 42 H 1.154 0.3618 -0.3365 0
M  V30 43 H 1.1951 -0.5783 -2.6276 0
M  V30 44 H 1.249 -2.2535 -2.1272 0
M  V30 45 H -0.7994 -0.4101 -5.7829 0
M  V30 46 H -0.8446 -2.7637 -3.2754 0
M  V30 47 H -3.9429 2.2012 -4.3171 0
M  V30 48 H 2.6966 -1.4305 -0.2643 0
M  V30 49 H 1.561 -2.4849 0.6006 0
M  V30 50 H -1.3097 -1.2004 2.8706 0
M  V30 51 H -0.0102 -2.2598 2.3265 0
M  V30 52 H -1.3975 -1.9875 1.3012 0
M  V30 53 H 2.5237 -1.6624 2.538 0
M  V30 54 H 1.2204 2.0635 4.5837 0
M  V30 55 H -0.3492 1.8235 3.7721 0
M  V30 56 H 3.1316 1.5634 -0.3897 0
M  V30 57 H 3.3159 3.0628 0.518 0
M  V30 58 H 4.6848 1.9287 0.3508 0
M  V30 59 H 3.5549 2.9265 3.1356 0
M  V30 60 H 3.5815 1.3326 3.8923 0
M  V30 61 H 4.9392 1.8258 2.8911 0
M  V30 62 H 0.2953 0.3473 6.0641 0
M  V30 END ATOM
M  V30 BEGIN BOND
M  V30 1 1 1 2
M  V30 2 1 2 3
M  V30 3 1 2 4
M  V30 4 1 2 5
M  V30 5 1 3 6
M  V30 6 1 3 7
M  V30 7 1 3 8
M  V30 8 1 4 9
M  V30 9 1 4 10
M  V30 10 1 5 11
M  V30 11 1 5 12
M  V30 12 2 6 13
M  V30 13 1 6 14
M  V30 14 2 7 15
M  V30 15 1 10 16
M  V30 16 1 11 17
M  V30 17 1 13 18
M  V30 18 1 14 19
M  V30 19 1 16 20
M  V30 20 1 16 21
M  V30 21 1 17 22
M  V30 22 2 18 23
M  V30 23 1 20 24
M  V30 24 1 20 25
M  V30 25 1 22 26
M  V30 26 1 24 27
M  V30 27 2 25 28
M  V30 28 1 25 29
M  V30 29 1 27 30
M  V30 30 1 27 31
M  V30 31 1 29 32
M  V30 32 1 11 16
M  V30 33 1 12 14
M  V30 34 1 15 18
M  V30 35 1 20 22
M  V30 36 1 26 27
M  V30 37 1 4 33
M  V30 38 1 5 34
M  V30 39 1 7 35
M  V30 40 1 8 36
M  V30 41 1 8 37
M  V30 42 1 8 38
M  V30 43 1 9 39
M  V30 44 1 10 40
M  V30 45 1 10 41
M  V30 46 1 11 42
M  V30 47 1 12 43
M  V30 48 1 12 44
M  V30 49 1 13 45
M  V30 50 1 14 46
M  V30 51 1 15 47
M  V30 52 1 17 48
M  V30 53 1 17 49
M  V30 54 1 21 50
M  V30 55 1 21 51
M  V30 56 1 21 52
M  V30 57 1 22 53
M  V30 58 1 29 54
M  V30 59 1 29 55
M  V30 60 1 30 56
M  V30 61 1 30 57
M  V30 62 1 30 58
M  V30 63 1 31 59
M  V30 64 1 31 60
M  V30 65 1 31 61
M  V30 66 1 32 62
M  V30 END BOND
M  V30 BEGIN COLLECTION
M  V30 MDLV30/STEABS ATOMS=(9 2 3 4 5 11 14 16 20 22)
M  V30 END COLLECTION
M  V30 END CTAB
M  END
>  <Column 1>
1187

>  <level_0>
1328

>  <index>
1328

>  <Unnamed: 0>
1328

>  <NO.>
1340

>  <Name>
fluocinolone-acetonide

>  <IUPAC_name>
(1s-2s-4r-8s-9s-11s-12r-13s-19s)-12-19-difluoro-11-hydroxy-8-(2-hydroxyacetyl)-6-6-9-13-tetramethyl-5-7-dioxapentacyclo[10.8.0.02-9.04-8.013-18]icosa-14-17-dien-16-one

>  <SMILES>
CC1(C)O[C@@H]2C[C@H]3[C@@H]4C[C@H](F)C5=CC(=O)C=C[C@]5(C)[C@@]4(F)[C@@H](O)C[C@]3(C)[C@]2(C(=O)CO)O1

>  <CID>
6215

>  <logBB>


>  <BBB+/BBB->
BBB+

>  <Inchi>
InChI=1S/C24H30F2O6/c1-20(2)31-19-9-13-14-8-16(25)15-7-12(28)5-6-21(15-3)23(14-26)17(29)10-22(13-4)24(19-32-20)18(30)11-27/h5-7-13-14-16-17-19-27-29H-8-11H2-1-4H3/t13--14--16--17--19+-21--22--23--24+/m0/s1

>  <threshold>
-1

>  <reference>
R1|R27|R30|

>  <group>
B

>  <Class>
1

>  <ABC>
26.05

>  <ABCGG>
21.42

>  <nAcid>
0

>  <nBase>
0

>  <nAromAtom>
0

>  <nAromBond>
0

>  <nAtom>
62

>  <nHeavyAtom>
32

>  <nSpiro>
0

>  <nBridgehead>
0

>  <nHetero>
8

>  <nN>
0

>  <nO>
6

>  <nF>
2

>  <BalabanJ>
1.61

>  <BertzCT>
960.14

>  <nBonds>
66

>  <nBondsO>
36

>  <nBondsS>
62

>  <nBondsD>
4

>  <nBondsT>
0

>  <nBondsA>
0

>  <nBondsM>
4

>  <nBondsKS>
62

>  <nBondsKD>
4

>  <RNCG>
0.14

>  <RPCG>
0.07

>  <FCSP3>
0.75

>  <SZ>
40

>  <Sm>
37.67

>  <Sv>
37.71

>  <Sse>
63.21

>  <Sp>
39.53

>  <Si>
70.58

>  <MZ>
0.65

>  <Mm>
0.61

>  <Mv>
0.61

>  <Mse>
1.02

>  <Mp>
0.64

>  <Mi>
1.14

>  <NsCH3>
4

>  <NdCH2>
0

>  <NssCH2>
4

>  <NtCH>
0

>  <NdsCH>
3

>  <NaaCH>
0

>  <NsssCH>
5

>  <NddC>
0

>  <NtsC>
0

>  <NdssC>
3

>  <NaasC>
0

>  <NaaaC>
0

>  <NssssC>
5

>  <NsNH3>
0

>  <NsNH2>
0

>  <NssNH2>
0

>  <NdNH>
0

>  <NssNH>
0

>  <NaaNH>
0

>  <NtN>
0

>  <NsssNH>
0

>  <NdsN>
0

>  <NaaN>
0

>  <NsssN>
0

>  <NddsN>
0

>  <NaasN>
0

>  <NssssN>
0

>  <NsOH>
2

>  <NdO>
2

>  <NssO>
2

>  <NaaO>
0

>  <NsF>
2

>  <NsSiH3>
0

>  <NssSiH2>
0

>  <NsssSiH>
0

>  <NssssSi>
0

>  <NsPH2>
0

>  <NssPH>
0

>  <NsssP>
0

>  <NdsssP>
0

>  <NsssssP>
0

>  <NsSH>
0

>  <NdS>
0

>  <NssS>
0

>  <NaaS>
0

>  <NdssS>
0

>  <NddssS>
0

>  <NsCl>
0

>  <NsBr>
0

>  <NsI>
0

>  <fragCpx>
304.08

>  <fMF>
0.32

>  <nHBAcc>
6

>  <nHBDon>
2

>  <Kier1>
23.73

>  <Kier2>
7.03

>  <Lipinski>
1

>  <GhoseFilter>
1

>  <FilterItLogS>
-3.49

>  <VMcGowan>
316.26

>  <LabuteASA>
185.19

>  <PEOE_VSA1>
19.69

>  <PEOE_VSA2>
9.59

>  <PEOE_VSA3>
8.78

>  <PEOE_VSA4>
0

>  <PEOE_VSA5>
0

>  <PEOE_VSA6>
13

>  <PEOE_VSA7>
63.68

>  <PEOE_VSA8>
16.75

>  <PEOE_VSA9>
12.21

>  <PEOE_VSA10>
12.78

>  <PEOE_VSA11>
28.62

>  <PEOE_VSA12>
0

>  <PEOE_VSA13>
0

>  <SMR_VSA1>
38.06

>  <SMR_VSA2>
0

>  <SMR_VSA3>
0

>  <SMR_VSA4>
22.67

>  <SMR_VSA5>
82.39

>  <SMR_VSA6>
6.61

>  <SMR_VSA7>
23.8

>  <SMR_VSA8>
0

>  <SMR_VSA9>
0

>  <SlogP_VSA1>
0

>  <SlogP_VSA2>
63.82

>  <SlogP_VSA3>
19.06

>  <SlogP_VSA4>
22.67

>  <SlogP_VSA5>
46.96

>  <SlogP_VSA6>
23.8

>  <SlogP_VSA7>
0

>  <SlogP_VSA8>
0

>  <SlogP_VSA9>
0

>  <SlogP_VSA10>
8.78

>  <SlogP_VSA11>
0

>  <EState_VSA1>
76.28

>  <EState_VSA2>
24.84

>  <EState_VSA3>
0

>  <EState_VSA4>
6.08

>  <EState_VSA5>
19.08

>  <EState_VSA6>
20.77

>  <EState_VSA7>
0

>  <EState_VSA8>
0

>  <EState_VSA9>
9.47

>  <EState_VSA10>
19.8

>  <VSA_EState1>
44.83

>  <VSA_EState2>
25.06

>  <VSA_EState3>
21.13

>  <VSA_EState4>
-6.3

>  <VSA_EState5>
-3.53

>  <VSA_EState6>
0

>  <VSA_EState7>
-0.15

>  <VSA_EState8>
5.87

>  <VSA_EState9>
0

>  <apol>
66.01

>  <bpol>
37.53

>  <nRing>
5

>  <nHRing>
1

>  <naRing>
0

>  <naHRing>
0

>  <nARing 2>
5

>  <nAHRing 2>
1

>  <nFRing>
1

>  <nFHRing>
1

>  <nFaRing>
0

>  <nFaHRing>
0

>  <nFARing 2>
1

>  <nFAHRing 2>
1

>  <nRot>
2

>  <SLogP>
2.37

>  <SMR>
108.88

>  <TopoPSA(NO)>
93.06

>  <TopoPSA>
93.06

>  <JGI1>
0.35

>  <JGI2>
0.14

>  <JGI3>
0.09

>  <JGI4>
0.07

>  <JGI5>
0.04

>  <Diameter>
12

>  <Radius>
6

>  <TMWC10>
151.56

>  <TSRW10>
86.81

>  <MW>
452.2

>  <AMW>
7.29

>  <WPath>
2351

>  <WPol>
79

>  <Zagreb1>
198

>  <Zagreb2>
260

>  <mZagreb2>
6.47

>  <yes>


>  <nAR-cont>
0

>  <nHA-cont>
0.658856097

>  <MWHBN>
0.376205125

>  <MWHBN-cont>
0.569673265

>  <TPSA-cont>
0.350383413

>  <pka_cont>
0.97

>  <yes.1>


>  <BBB_SCORE>
2.699132821

>  <MMFF94 Energy>
164.59

$$$$
Compound 996
Actelion Java MolfileCreator 2.0

  0  0  0  0  0  0              0 V3000
M  V30 BEGIN CTAB
M  V30 COUNTS 64 68 0 0 0
M  V30 BEGIN ATOM
M  V30 1 F -2.1061 -0.5666 -4.5403 0
M  V30 2 C -2.3104 -0.5396 -3.1918 0 CFG=2
M  V30 3 C -2.7505 0.8273 -2.7289 0
M  V30 4 C -0.9859 -0.8901 -2.5179 0
M  V30 5 C -2.792 1.8634 -3.5861 0
M  V30 6 C -2.9881 0.9489 -1.2164 0 CFG=1
M  V30 7 C -1.0234 -0.7425 -0.9836 0 CFG=2
M  V30 8 C -2.9458 3.2545 -3.1021 0
M  V30 9 C -1.5888 0.6599 -0.5507 0 CFG=2
M  V30 10 C -3.5508 2.3597 -0.8784 0
M  V30 11 C -4.0942 -0.0488 -0.7865 0
M  V30 12 C 0.3804 -0.9006 -0.3845 0 CFG=1
M  V30 13 O -3.0496 4.1736 -3.9093 0
M  V30 14 C -2.8558 3.4908 -1.616 0
M  V30 15 C -1.507 0.8753 0.9871 0 CFG=1
M  V30 16 C 0.4054 -0.8547 1.1622 0 CFG=2
M  V30 17 C 1.1907 -2.151 -0.7179 0
M  V30 18 O -2.5102 0.1254 1.6534 0
M  V30 19 C -0.1237 0.5322 1.5849 0
M  V30 20 C 1.9251 -1.1169 1.4124 0 CFG=1
M  V30 21 C -0.4365 -1.9822 1.8188 0
M  V30 22 C 2.3008 -2.1679 0.354 0 CFG=2
M  V30 23 O 2.7152 0.0281 1.0746 0
M  V30 24 C 2.2519 -1.5711 2.8424 0
M  V30 25 O 3.5356 -1.7441 -0.2206 0
M  V30 26 C 3.8053 -0.4354 0.2704 0
M  V30 27 O 2.2957 -2.7598 3.1744 0
M  V30 28 C 2.512 -0.4823 3.877 0
M  V30 29 C 3.9862 0.5143 -0.9065 0
M  V30 30 C 5.0755 -0.4853 1.1146 0
M  V30 31 O 2.3946 -0.988 5.1999 0
M  V30 32 H -3.0742 -1.2924 -2.9775 0
M  V30 33 H -0.7137 -1.916 -2.7938 0
M  V30 34 H -0.1944 -0.2531 -2.9361 0
M  V30 35 H -2.6094 1.7541 -4.6503 0
M  V30 36 H -1.6712 -1.5365 -0.6011 0
M  V30 37 H -0.8879 1.4007 -0.9692 0
M  V30 38 H -4.6154 2.3959 -1.1551 0
M  V30 39 H -3.5269 2.5498 0.1994 0
M  V30 40 H -3.7645 -1.0905 -0.7886 0
M  V30 41 H -4.4708 0.1719 0.2175 0
M  V30 42 H -4.9579 0.0131 -1.461 0
M  V30 43 H 0.9628 -0.0487 -0.7671 0
M  V30 44 H -1.8031 3.5805 -1.3312 0
M  V30 45 H -3.357 4.4367 -1.3833 0
M  V30 46 H -1.7022 1.9302 1.2093 0
M  V30 47 H 0.5637 -3.0452 -0.6292 0
M  V30 48 H 1.5949 -2.1158 -1.7346 0
M  V30 49 H -2.4941 0.3695 2.5959 0
M  V30 50 H 0.5784 1.3119 1.265 0
M  V30 51 H -0.181 0.5849 2.6781 0
M  V30 52 H -0.0135 -2.9764 1.6415 0
M  V30 53 H -0.4869 -1.8426 2.9049 0
M  V30 54 H -1.4647 -2.0228 1.4558 0
M  V30 55 H 2.4293 -3.186 0.7333 0
M  V30 56 H 3.5245 -0.0943 3.7424 0
M  V30 57 H 1.7926 0.3294 3.7662 0
M  V30 58 H 4.8129 0.1969 -1.5506 0
M  V30 59 H 4.1672 1.5394 -0.5666 0
M  V30 60 H 3.0865 0.5351 -1.5306 0
M  V30 61 H 5.2898 0.4878 1.5683 0
M  V30 62 H 5.9366 -0.8011 0.5162 0
M  V30 63 H 4.9757 -1.2104 1.9294 0
M  V30 64 H 2.6868 -1.9211 5.1635 0
M  V30 END ATOM
M  V30 BEGIN BOND
M  V30 1 1 1 2
M  V30 2 1 2 3
M  V30 3 1 2 4
M  V30 4 2 3 5
M  V30 5 1 3 6
M  V30 6 1 4 7
M  V30 7 1 5 8
M  V30 8 1 6 9
M  V30 9 1 6 10
M  V30 10 1 6 11
M  V30 11 1 7 12
M  V30 12 2 8 13
M  V30 13 1 8 14
M  V30 14 1 9 15
M  V30 15 1 12 16
M  V30 16 1 12 17
M  V30 17 1 15 18
M  V30 18 1 15 19
M  V30 19 1 16 20
M  V30 20 1 16 21
M  V30 21 1 17 22
M  V30 22 1 20 23
M  V30 23 1 20 24
M  V30 24 1 22 25
M  V30 25 1 23 26
M  V30 26 2 24 27
M  V30 27 1 24 28
M  V30 28 1 26 29
M  V30 29 1 26 30
M  V30 30 1 28 31
M  V30 31 1 7 9
M  V30 32 1 10 14
M  V30 33 1 16 19
M  V30 34 1 20 22
M  V30 35 1 25 26
M  V30 36 1 2 32
M  V30 37 1 4 33
M  V30 38 1 4 34
M  V30 39 1 5 35
M  V30 40 1 7 36
M  V30 41 1 9 37
M  V30 42 1 10 38
M  V30 43 1 10 39
M  V30 44 1 11 40
M  V30 45 1 11 41
M  V30 46 1 11 42
M  V30 47 1 12 43
M  V30 48 1 14 44
M  V30 49 1 14 45
M  V30 50 1 15 46
M  V30 51 1 17 47
M  V30 52 1 17 48
M  V30 53 1 18 49
M  V30 54 1 19 50
M  V30 55 1 19 51
M  V30 56 1 21 52
M  V30 57 1 21 53
M  V30 58 1 21 54
M  V30 59 1 22 55
M  V30 60 1 28 56
M  V30 61 1 28 57
M  V30 62 1 29 58
M  V30 63 1 29 59
M  V30 64 1 29 60
M  V30 65 1 30 61
M  V30 66 1 30 62
M  V30 67 1 30 63
M  V30 68 1 31 64
M  V30 END BOND
M  V30 BEGIN COLLECTION
M  V30 MDLV30/STEABS ATOMS=(9 2 6 7 9 12 15 16 20 22)
M  V30 END COLLECTION
M  V30 END CTAB
M  END
>  <Column 1>
1188

>  <level_0>
1329

>  <index>
1329

>  <Unnamed: 0>
1329

>  <NO.>
1341

>  <Name>
flurandrenolide

>  <IUPAC_name>
(1s-2s-4r-8s-9s-11s-12s-13r-19s)-19-fluoro-11-hydroxy-8-(2-hydroxyacetyl)-6-6-9-13-tetramethyl-5-7-dioxapentacyclo[10.8.0.02-9.04-8.013-18]icos-17-en-16-one

>  <SMILES>
CC1(C)O[C@@H]2C[C@H]3[C@@H]4C[C@H](F)C5=CC(=O)CC[C@]5(C)[C@H]4[C@@H](O)C[C@]3(C)[C@]2(C(=O)CO)O1

>  <CID>
15209

>  <logBB>


>  <BBB+/BBB->
BBB+

>  <Inchi>
InChI=1S/C24H33FO6/c1-21(2)30-19-9-14-13-8-16(25)15-7-12(27)5-6-22(15-3)20(13)17(28)10-23(14-4)24(19-31-21)18(29)11-26/h7-13-14-16-17-19-20-26-28H-5-6-8-11H2-1-4H3/t13--14--16--17--19+-20+-22--23--24+/m0/s1

>  <threshold>
-1

>  <reference>
R1|R27|R30|

>  <group>
B

>  <Class>
-1

>  <ABC>
25.26

>  <ABCGG>
20.5

>  <nAcid>
0

>  <nBase>
0

>  <nAromAtom>
0

>  <nAromBond>
0

>  <nAtom>
64

>  <nHeavyAtom>
31

>  <nSpiro>
0

>  <nBridgehead>
0

>  <nHetero>
7

>  <nN>
0

>  <nO>
6

>  <nF>
1

>  <BalabanJ>
1.56

>  <BertzCT>
868.13

>  <nBonds>
68

>  <nBondsO>
35

>  <nBondsS>
65

>  <nBondsD>
3

>  <nBondsT>
0

>  <nBondsA>
0

>  <nBondsM>
3

>  <nBondsKS>
65

>  <nBondsKD>
3

>  <RNCG>
0.15

>  <RPCG>
0.08

>  <FCSP3>
0.83

>  <SZ>
39

>  <Sm>
36.34

>  <Sv>
37.88

>  <Sse>
64.59

>  <Sp>
40.39

>  <Si>
72.66

>  <MZ>
0.61

>  <Mm>
0.57

>  <Mv>
0.59

>  <Mse>
1.01

>  <Mp>
0.63

>  <Mi>
1.14

>  <NsCH3>
4

>  <NdCH2>
0

>  <NssCH2>
6

>  <NtCH>
0

>  <NdsCH>
1

>  <NaaCH>
0

>  <NsssCH>
6

>  <NddC>
0

>  <NtsC>
0

>  <NdssC>
3

>  <NaasC>
0

>  <NaaaC>
0

>  <NssssC>
4

>  <NsNH3>
0

>  <NsNH2>
0

>  <NssNH2>
0

>  <NdNH>
0

>  <NssNH>
0

>  <NaaNH>
0

>  <NtN>
0

>  <NsssNH>
0

>  <NdsN>
0

>  <NaaN>
0

>  <NsssN>
0

>  <NddsN>
0

>  <NaasN>
0

>  <NssssN>
0

>  <NsOH>
2

>  <NdO>
2

>  <NssO>
2

>  <NaaO>
0

>  <NsF>
1

>  <NsSiH3>
0

>  <NssSiH2>
0

>  <NsssSiH>
0

>  <NssssSi>
0

>  <NsPH2>
0

>  <NssPH>
0

>  <NsssP>
0

>  <NdsssP>
0

>  <NsssssP>
0

>  <NsSH>
0

>  <NdS>
0

>  <NssS>
0

>  <NaaS>
0

>  <NdssS>
0

>  <NddssS>
0

>  <NsCl>
0

>  <NsBr>
0

>  <NsI>
0

>  <fragCpx>
295.07

>  <fMF>
0.31

>  <nHBAcc>
6

>  <nHBDon>
2

>  <Kier1>
22.78

>  <Kier2>
7.01

>  <Lipinski>
1

>  <GhoseFilter>
1

>  <FilterItLogS>
-3.48

>  <VMcGowan>
318.8

>  <LabuteASA>
181.72

>  <PEOE_VSA1>
19.69

>  <PEOE_VSA2>
9.59

>  <PEOE_VSA3>
4.39

>  <PEOE_VSA4>
0

>  <PEOE_VSA5>
0

>  <PEOE_VSA6>
13.85

>  <PEOE_VSA7>
74.35

>  <PEOE_VSA8>
11.84

>  <PEOE_VSA9>
12.21

>  <PEOE_VSA10>
12.78

>  <PEOE_VSA11>
22.95

>  <PEOE_VSA12>
0

>  <PEOE_VSA13>
0

>  <SMR_VSA1>
33.67

>  <SMR_VSA2>
0

>  <SMR_VSA3>
0

>  <SMR_VSA4>
28.58

>  <SMR_VSA5>
89.57

>  <SMR_VSA6>
6.61

>  <SMR_VSA7>
11.65

>  <SMR_VSA8>
0

>  <SMR_VSA9>
0

>  <SlogP_VSA1>
0

>  <SlogP_VSA2>
58.15

>  <SlogP_VSA3>
19.06

>  <SlogP_VSA4>
28.58

>  <SlogP_VSA5>
59.8

>  <SlogP_VSA6>
11.65

>  <SlogP_VSA7>
0

>  <SlogP_VSA8>
0

>  <SlogP_VSA9>
0

>  <SlogP_VSA10>
4.39

>  <SlogP_VSA11>
0

>  <EState_VSA1>
52.99

>  <EState_VSA2>
29.96

>  <EState_VSA3>
31.26

>  <EState_VSA4>
0

>  <EState_VSA5>
6.08

>  <EState_VSA6>
13.85

>  <EState_VSA7>
13.85

>  <EState_VSA8>
0

>  <EState_VSA9>
9.47

>  <EState_VSA10>
19.8

>  <VSA_EState1>
27.93

>  <VSA_EState2>
25.19

>  <VSA_EState3>
21.31

>  <VSA_EState4>
-2.19

>  <VSA_EState5>
-1.9

>  <VSA_EState6>
0

>  <VSA_EState7>
0.87

>  <VSA_EState8>
6.78

>  <VSA_EState9>
0

>  <apol>
67.45

>  <bpol>
39.43

>  <nRing>
5

>  <nHRing>
1

>  <naRing>
0

>  <naHRing>
0

>  <nARing 2>
5

>  <nAHRing 2>
1

>  <nFRing>
1

>  <nFHRing>
1

>  <nFaRing>
0

>  <nFaHRing>
0

>  <nFARing 2>
1

>  <nFAHRing 2>
1

>  <nRot>
2

>  <SLogP>
2.5

>  <SMR>
108.62

>  <TopoPSA(NO)>
93.06

>  <TopoPSA>
93.06

>  <JGI1>
0.33

>  <JGI2>
0.12

>  <JGI3>
0.09

>  <JGI4>
0.06

>  <JGI5>
0.04

>  <Diameter>
12

>  <Radius>
6

>  <TMWC10>
148.79

>  <TSRW10>
85.46

>  <MW>
436.23

>  <AMW>
6.82

>  <WPath>
2209

>  <WPol>
72

>  <Zagreb1>
190

>  <Zagreb2>
246

>  <mZagreb2>
6.3

>  <yes>


>  <nAR-cont>
0

>  <nHA-cont>
0.702745138

>  <MWHBN>
0.383029499

>  <MWHBN-cont>
0.54290616

>  <TPSA-cont>
0.350383413

>  <pka_cont>
0.97

>  <yes.1>


>  <BBB_SCORE>
2.702871204

>  <MMFF94 Energy>
129.76

$$$$
Compound 997
Actelion Java MolfileCreator 2.0

  0  0  0  0  0  0              0 V3000
M  V30 BEGIN CTAB
M  V30 COUNTS 42 44 0 0 0
M  V30 BEGIN ATOM
M  V30 1 S -1.0734 -0.9908 2.3958 0
M  V30 2 C -2.7479 -0.2282 2.0205 0
M  V30 3 C -0.1186 0.5669 2.0855 0
M  V30 4 C -2.4991 1.2921 2.1098 0
M  V30 5 C -3.1848 -0.7645 0.6512 0
M  V30 6 C -3.7192 -0.712 3.1047 0
M  V30 7 N -1.1429 1.5174 1.6391 0
M  V30 8 C 0.5495 0.7303 0.6946 0
M  V30 9 C -3.5119 2.2609 1.5006 0
M  V30 10 C -0.7521 1.482 0.3335 0
M  V30 11 N 0.8227 -0.5021 -0.081 0
M  V30 12 O -3.3091 3.4321 1.2163 0
M  V30 13 O -4.7618 1.7717 1.3992 0
M  V30 14 O -1.3258 1.7926 -0.6839 0
M  V30 15 C 1.8855 -1.3208 0.2202 0
M  V30 16 O 2.6404 -1.0833 1.1619 0
M  V30 17 C 2.0098 -2.5831 -0.616 0
M  V30 18 S 1.6005 -2.32 -2.3773 0
M  V30 19 C 2.7918 -1.0646 -2.8161 0
M  V30 20 C 4.1612 -1.2308 -2.5898 0
M  V30 21 C 2.3366 0.1109 -3.423 0
M  V30 22 C 5.0611 -0.2224 -2.9426 0
M  V30 23 C 3.2368 1.1186 -3.7749 0
M  V30 24 C 4.5985 0.9527 -3.5315 0
M  V30 25 H 0.4639 0.9266 2.9381 0
M  V30 26 H -2.4731 1.5761 3.1727 0
M  V30 27 H -3.2599 -1.859 0.661 0
M  V30 28 H -2.4948 -0.4975 -0.1529 0
M  V30 29 H -4.1739 -0.3923 0.3683 0
M  V30 30 H -4.7248 -0.3104 2.9425 0
M  V30 31 H -3.8083 -1.8048 3.1094 0
M  V30 32 H -3.4024 -0.3988 4.1065 0
M  V30 33 H 1.4181 1.4009 0.6896 0
M  V30 34 H 0.2583 -0.736 -0.8933 0
M  V30 35 H -5.2682 2.522 1.0175 0
M  V30 36 H 3.0237 -2.982 -0.5228 0
M  V30 37 H 1.3142 -3.3246 -0.2106 0
M  V30 38 H 4.5485 -2.1444 -2.1473 0
M  V30 39 H 1.2777 0.2578 -3.6242 0
M  V30 40 H 6.1244 -0.3561 -2.7603 0
M  V30 41 H 2.874 2.0318 -4.24 0
M  V30 42 H 5.2996 1.7368 -3.8058 0
M  V30 END ATOM
M  V30 BEGIN BOND
M  V30 1 1 1 2
M  V30 2 1 1 3
M  V30 3 1 2 4
M  V30 4 1 2 5
M  V30 5 1 2 6
M  V30 6 1 3 7
M  V30 7 1 3 8
M  V30 8 1 4 9
M  V30 9 1 7 10
M  V30 10 1 8 11
M  V30 11 2 9 12
M  V30 12 1 9 13
M  V30 13 2 10 14
M  V30 14 1 11 15
M  V30 15 2 15 16
M  V30 16 1 15 17
M  V30 17 1 17 18
M  V30 18 1 18 19
M  V30 19 2 19 20
M  V30 20 1 19 21
M  V30 21 1 20 22
M  V30 22 2 21 23
M  V30 23 2 22 24
M  V30 24 1 4 7
M  V30 25 1 8 10
M  V30 26 1 23 24
M  V30 27 1 3 25
M  V30 28 1 4 26
M  V30 29 1 5 27
M  V30 30 1 5 28
M  V30 31 1 5 29
M  V30 32 1 6 30
M  V30 33 1 6 31
M  V30 34 1 6 32
M  V30 35 1 8 33
M  V30 36 1 11 34
M  V30 37 1 13 35
M  V30 38 1 17 36
M  V30 39 1 17 37
M  V30 40 1 20 38
M  V30 41 1 21 39
M  V30 42 1 22 40
M  V30 43 1 23 41
M  V30 44 1 24 42
M  V30 END BOND
M  V30 END CTAB
M  END
>  <Column 1>
1190

>  <level_0>
1331

>  <index>
1331

>  <Unnamed: 0>
1331

>  <NO.>
1343

>  <Name>
thiphencillin

>  <IUPAC_name>
3-3-dimethyl-7-oxo-6-[(2-phenylsulfanylacetyl)amino]-4-thia-1-azabicyclo[3.2.0]heptane-2-carboxylic acid

>  <SMILES>
CC1(C)SC2C(NC(=O)CSc3ccccc3)C(=O)N2C1C(=O)O

>  <CID>
20943

>  <logBB>


>  <BBB+/BBB->
BBB-

>  <Inchi>
InChI=1S/C16H18N2O4S2/c1-16(2)12(15(21)22)18-13(20)11(14(18)24-16)17-10(19)8-23-9-6-4-3-5-7-9/h3-7-11-12-14H-8H2-1-2H3-(H-17-19)(H-21-22)

>  <threshold>
-1

>  <reference>
R1|R19|R27|R27|R30|

>  <group>
B

>  <Class>
-1

>  <ABC>
18.84

>  <ABCGG>
15.73

>  <nAcid>
1

>  <nBase>
0

>  <nAromAtom>
6

>  <nAromBond>
6

>  <nAtom>
42

>  <nHeavyAtom>
24

>  <nSpiro>
0

>  <nBridgehead>
0

>  <nHetero>
8

>  <nN>
2

>  <nO>
4

>  <nF>
0

>  <BalabanJ>
1.5

>  <BertzCT>
679.91

>  <nBonds>
44

>  <nBondsO>
26

>  <nBondsS>
35

>  <nBondsD>
3

>  <nBondsT>
0

>  <nBondsA>
6

>  <nBondsM>
9

>  <nBondsKS>
38

>  <nBondsKD>
6

>  <RNCG>
0.19

>  <RPCG>
0.13

>  <FCSP3>
0.44

>  <SZ>
32

>  <Sm>
30.51

>  <Sv>
27.63

>  <Sse>
42.79

>  <Sp>
29.9

>  <Si>
47

>  <MZ>
0.76

>  <Mm>
0.73

>  <Mv>
0.66

>  <Mse>
1.02

>  <Mp>
0.71

>  <Mi>
1.12

>  <NsCH3>
2

>  <NdCH2>
0

>  <NssCH2>
1

>  <NtCH>
0

>  <NdsCH>
0

>  <NaaCH>
5

>  <NsssCH>
3

>  <NddC>
0

>  <NtsC>
0

>  <NdssC>
3

>  <NaasC>
1

>  <NaaaC>
0

>  <NssssC>
1

>  <NsNH3>
0

>  <NsNH2>
0

>  <NssNH2>
0

>  <NdNH>
0

>  <NssNH>
1

>  <NaaNH>
0

>  <NtN>
0

>  <NsssNH>
0

>  <NdsN>
0

>  <NaaN>
0

>  <NsssN>
1

>  <NddsN>
0

>  <NaasN>
0

>  <NssssN>
0

>  <NsOH>
1

>  <NdO>
3

>  <NssO>
0

>  <NaaO>
0

>  <NsF>
0

>  <NsSiH3>
0

>  <NssSiH2>
0

>  <NsssSiH>
0

>  <NssssSi>
0

>  <NsPH2>
0

>  <NssPH>
0

>  <NsssP>
0

>  <NdsssP>
0

>  <NsssssP>
0

>  <NsSH>
0

>  <NdS>
0

>  <NssS>
2

>  <NaaS>
0

>  <NdssS>
0

>  <NddssS>
0

>  <NsCl>
0

>  <NsBr>
0

>  <NsI>
0

>  <fragCpx>
124.08

>  <fMF>
0.4

>  <nHBAcc>
5

>  <nHBDon>
2

>  <Kier1>
18.78

>  <Kier2>
7.32

>  <Lipinski>
1

>  <GhoseFilter>
1

>  <FilterItLogS>
-2.27

>  <VMcGowan>
254.06

>  <LabuteASA>
147.9

>  <PEOE_VSA1>
15.32

>  <PEOE_VSA2>
9.59

>  <PEOE_VSA3>
4.79

>  <PEOE_VSA4>
0

>  <PEOE_VSA5>
23.52

>  <PEOE_VSA6>
18.2

>  <PEOE_VSA7>
25.98

>  <PEOE_VSA8>
9.64

>  <PEOE_VSA9>
5.75

>  <PEOE_VSA10>
17.46

>  <PEOE_VSA11>
0

>  <PEOE_VSA12>
11.81

>  <PEOE_VSA13>
0

>  <SMR_VSA1>
19.49

>  <SMR_VSA2>
0

>  <SMR_VSA3>
10.22

>  <SMR_VSA4>
0

>  <SMR_VSA5>
40.95

>  <SMR_VSA6>
5.75

>  <SMR_VSA7>
30.33

>  <SMR_VSA8>
0

>  <SMR_VSA9>
0

>  <SlogP_VSA1>
5.32

>  <SlogP_VSA2>
55.75

>  <SlogP_VSA3>
14.38

>  <SlogP_VSA4>
0

>  <SlogP_VSA5>
13.85

>  <SlogP_VSA6>
35.23

>  <SlogP_VSA7>
0

>  <SlogP_VSA8>
0

>  <SlogP_VSA9>
0

>  <SlogP_VSA10>
0

>  <SlogP_VSA11>
0

>  <EState_VSA1>
22.8

>  <EState_VSA2>
22.94

>  <EState_VSA3>
0

>  <EState_VSA4>
4.9

>  <EState_VSA5>
28.42

>  <EState_VSA6>
0

>  <EState_VSA7>
44.18

>  <EState_VSA8>
5.32

>  <EState_VSA9>
0

>  <EState_VSA10>
19.49

>  <VSA_EState1>
-0.58

>  <VSA_EState2>
38.19

>  <VSA_EState3>
11.8

>  <VSA_EState4>
0

>  <VSA_EState5>
-1.33

>  <VSA_EState6>
8.05

>  <VSA_EState7>
0

>  <VSA_EState8>
3.62

>  <VSA_EState9>
0

>  <apol>
49.93

>  <bpol>
27.86

>  <nRing>
3

>  <nHRing>
2

>  <naRing>
1

>  <naHRing>
0

>  <nARing 2>
2

>  <nAHRing 2>
2

>  <nFRing>
1

>  <nFHRing>
1

>  <nFaRing>
0

>  <nFaHRing>
0

>  <nFARing 2>
1

>  <nFAHRing 2>
1

>  <nRot>
5

>  <SLogP>
1.41

>  <SMR>
92.82

>  <TopoPSA(NO)>
86.71

>  <TopoPSA>
137.31

>  <JGI1>
0.23

>  <JGI2>
0.08

>  <JGI3>
0.09

>  <JGI4>
0.06

>  <JGI5>
0.03

>  <Diameter>
13

>  <Radius>
7

>  <TMWC10>
126.9

>  <TSRW10>
74.34

>  <MW>
366.07

>  <AMW>
8.72

>  <WPath>
1461

>  <WPol>
36

>  <Zagreb1>
130

>  <Zagreb2>
156

>  <mZagreb2>
5.13

>  <yes>


>  <nAR-cont>
1

>  <nHA-cont>
0.94700071

>  <MWHBN>
0.365860876

>  <MWHBN-cont>
0.609897834

>  <TPSA-cont>
0

>  <pka_cont>
0.97

>  <yes.1>


>  <BBB_SCORE>
3.34684746

>  <MMFF94 Energy>
56.228

$$$$
Compound 998
Actelion Java MolfileCreator 2.0

  0  0  0  0  0  0              0 V3000
M  V30 BEGIN CTAB
M  V30 COUNTS 41 43 0 0 0
M  V30 BEGIN ATOM
M  V30 1 S 1.7918 -0.6512 -1.4658 0
M  V30 2 C 0.646 -0.3973 -2.9134 0
M  V30 3 C 0.8213 -2.046 -0.746 0
M  V30 4 C -0.3397 -1.5874 -2.9219 0
M  V30 5 C -0.1021 0.9246 -2.669 0
M  V30 6 C 1.4945 -0.2552 -4.1817 0
M  V30 7 N -0.3928 -2.0766 -1.5594 0
M  V30 8 C -0.0894 -1.7406 0.4784 0
M  V30 9 C 0.0826 -2.742 -3.8241 0
M  V30 10 C -1.2142 -1.6166 -0.5833 0
M  V30 11 N 0.2042 -0.5127 1.2598 0
M  V30 12 O 0.8381 -3.661 -3.5505 0
M  V30 13 O -0.4507 -2.6534 -5.0615 0
M  V30 14 O -2.3339 -1.1659 -0.6383 0
M  V30 15 C 1.2551 -0.4695 2.1473 0
M  V30 16 O 1.9756 -1.4445 2.351 0
M  V30 17 C 1.5164 0.8809 2.7907 0
M  V30 18 C 0.2791 1.5625 3.3253 0
M  V30 19 C -0.1831 2.7547 2.7505 0
M  V30 20 C -0.4289 1.0039 4.3986 0
M  V30 21 C -1.3376 3.3704 3.2356 0
M  V30 22 C -1.583 1.622 4.881 0
M  V30 23 C -2.0378 2.8034 4.2988 0
M  V30 24 H 1.3463 -3.0047 -0.7138 0
M  V30 25 H -1.35 -1.276 -3.2145 0
M  V30 26 H 0.586 1.7769 -2.6199 0
M  V30 27 H -0.8045 1.1235 -3.4869 0
M  V30 28 H -0.6817 0.9136 -1.7399 0
M  V30 29 H 0.8554 -0.127 -5.0627 0
M  V30 30 H 2.1339 -1.1275 -4.3565 0
M  V30 31 H 2.1502 0.6225 -4.1308 0
M  V30 32 H -0.2517 -2.6004 1.1406 0
M  V30 33 H -0.389 0.3054 1.1624 0
M  V30 34 H -0.1103 -3.4485 -5.5256 0
M  V30 35 H 2.0127 1.511 2.0429 0
M  V30 36 H 2.2265 0.7447 3.6152 0
M  V30 37 H 0.3519 3.2155 1.9229 0
M  V30 38 H -0.0867 0.0818 4.8652 0
M  V30 39 H -1.691 4.295 2.7862 0
M  V30 40 H -2.1276 1.1816 5.7124 0
M  V30 41 H -2.9367 3.2841 4.6764 0
M  V30 END ATOM
M  V30 BEGIN BOND
M  V30 1 1 1 2
M  V30 2 1 1 3
M  V30 3 1 2 4
M  V30 4 1 2 5
M  V30 5 1 2 6
M  V30 6 1 3 7
M  V30 7 1 3 8
M  V30 8 1 4 9
M  V30 9 1 7 10
M  V30 10 1 8 11
M  V30 11 2 9 12
M  V30 12 1 9 13
M  V30 13 2 10 14
M  V30 14 1 11 15
M  V30 15 2 15 16
M  V30 16 1 15 17
M  V30 17 1 17 18
M  V30 18 2 18 19
M  V30 19 1 18 20
M  V30 20 1 19 21
M  V30 21 2 20 22
M  V30 22 2 21 23
M  V30 23 1 4 7
M  V30 24 1 8 10
M  V30 25 1 22 23
M  V30 26 1 3 24
M  V30 27 1 4 25
M  V30 28 1 5 26
M  V30 29 1 5 27
M  V30 30 1 5 28
M  V30 31 1 6 29
M  V30 32 1 6 30
M  V30 33 1 6 31
M  V30 34 1 8 32
M  V30 35 1 11 33
M  V30 36 1 13 34
M  V30 37 1 17 35
M  V30 38 1 17 36
M  V30 39 1 19 37
M  V30 40 1 20 38
M  V30 41 1 21 39
M  V30 42 1 22 40
M  V30 43 1 23 41
M  V30 END BOND
M  V30 END CTAB
M  END
>  <Column 1>
1191

>  <level_0>
1332

>  <index>
1332

>  <Unnamed: 0>
1332

>  <NO.>
1344

>  <Name>
penicillin

>  <IUPAC_name>
3-3-dimethyl-7-oxo-6-[(2-phenylacetyl)amino]-4-thia-1-azabicyclo[3.2.0]heptane-2-carboxylic acid

>  <SMILES>
CC1(C)SC2C(NC(=O)Cc3ccccc3)C(=O)N2C1C(=O)O

>  <CID>
2349

>  <logBB>


>  <BBB+/BBB->
BBB-

>  <Inchi>
InChI=1S/C16H18N2O4S/c1-16(2)12(15(21)22)18-13(20)11(14(18)23-16)17-10(19)8-9-6-4-3-5-7-9/h3-7-11-12-14H-8H2-1-2H3-(H-17-19)(H-21-22)

>  <threshold>
-1

>  <reference>
R1|R19|R27|R27|R30|

>  <group>
B

>  <Class>
-1

>  <ABC>
18.13

>  <ABCGG>
15.37

>  <nAcid>
1

>  <nBase>
0

>  <nAromAtom>
6

>  <nAromBond>
6

>  <nAtom>
41

>  <nHeavyAtom>
23

>  <nSpiro>
0

>  <nBridgehead>
0

>  <nHetero>
7

>  <nN>
2

>  <nO>
4

>  <nF>
0

>  <BalabanJ>
1.56

>  <BertzCT>
661.3

>  <nBonds>
43

>  <nBondsO>
25

>  <nBondsS>
34

>  <nBondsD>
3

>  <nBondsT>
0

>  <nBondsA>
6

>  <nBondsM>
9

>  <nBondsKS>
37

>  <nBondsKD>
6

>  <RNCG>
0.19

>  <RPCG>
0.13

>  <FCSP3>
0.44

>  <SZ>
29.33

>  <Sm>
27.84

>  <Sv>
26.44

>  <Sse>
41.72

>  <Sp>
28.16

>  <Si>
46.08

>  <MZ>
0.72

>  <Mm>
0.68

>  <Mv>
0.64

>  <Mse>
1.02

>  <Mp>
0.69

>  <Mi>
1.12

>  <NsCH3>
2

>  <NdCH2>
0

>  <NssCH2>
1

>  <NtCH>
0

>  <NdsCH>
0

>  <NaaCH>
5

>  <NsssCH>
3

>  <NddC>
0

>  <NtsC>
0

>  <NdssC>
3

>  <NaasC>
1

>  <NaaaC>
0

>  <NssssC>
1

>  <NsNH3>
0

>  <NsNH2>
0

>  <NssNH2>
0

>  <NdNH>
0

>  <NssNH>
1

>  <NaaNH>
0

>  <NtN>
0

>  <NsssNH>
0

>  <NdsN>
0

>  <NaaN>
0

>  <NsssN>
1

>  <NddsN>
0

>  <NaasN>
0

>  <NssssN>
0

>  <NsOH>
1

>  <NdO>
3

>  <NssO>
0

>  <NaaO>
0

>  <NsF>
0

>  <NsSiH3>
0

>  <NssSiH2>
0

>  <NsssSiH>
0

>  <NssssSi>
0

>  <NsPH2>
0

>  <NssPH>
0

>  <NsssP>
0

>  <NdsssP>
0

>  <NsssssP>
0

>  <NsSH>
0

>  <NdS>
0

>  <NssS>
1

>  <NaaS>
0

>  <NdssS>
0

>  <NddssS>
0

>  <NsCl>
0

>  <NsBr>
0

>  <NsI>
0

>  <fragCpx>
119.07

>  <fMF>
0.39

>  <nHBAcc>
4

>  <nHBDon>
2

>  <Kier1>
17.81

>  <Kier2>
6.72

>  <Lipinski>
1

>  <GhoseFilter>
1

>  <FilterItLogS>
-2.18

>  <VMcGowan>
237.71

>  <LabuteASA>
137.78

>  <PEOE_VSA1>
15.32

>  <PEOE_VSA2>
9.59

>  <PEOE_VSA3>
4.79

>  <PEOE_VSA4>
0

>  <PEOE_VSA5>
11.76

>  <PEOE_VSA6>
30.33

>  <PEOE_VSA7>
19.41

>  <PEOE_VSA8>
4.75

>  <PEOE_VSA9>
6.42

>  <PEOE_VSA10>
17.46

>  <PEOE_VSA11>
0

>  <PEOE_VSA12>
11.81

>  <PEOE_VSA13>
0

>  <SMR_VSA1>
19.49

>  <SMR_VSA2>
0

>  <SMR_VSA3>
10.22

>  <SMR_VSA4>
0

>  <SMR_VSA5>
42.47

>  <SMR_VSA6>
0

>  <SMR_VSA7>
35.9

>  <SMR_VSA8>
0

>  <SMR_VSA9>
0

>  <SlogP_VSA1>
5.32

>  <SlogP_VSA2>
49.99

>  <SlogP_VSA3>
20.8

>  <SlogP_VSA4>
0

>  <SlogP_VSA5>
19.41

>  <SlogP_VSA6>
30.33

>  <SlogP_VSA7>
0

>  <SlogP_VSA8>
0

>  <SlogP_VSA9>
0

>  <SlogP_VSA10>
0

>  <SlogP_VSA11>
0

>  <EState_VSA1>
22.8

>  <EState_VSA2>
23.61

>  <EState_VSA3>
0

>  <EState_VSA4>
5.56

>  <EState_VSA5>
16.66

>  <EState_VSA6>
0

>  <EState_VSA7>
44.18

>  <EState_VSA8>
5.32

>  <EState_VSA9>
0

>  <EState_VSA10>
19.49

>  <VSA_EState1>
-0.58

>  <VSA_EState2>
37.19

>  <VSA_EState3>
11.79

>  <VSA_EState4>
0.87

>  <VSA_EState5>
-1.55

>  <VSA_EState6>
7.78

>  <VSA_EState7>
0.2

>  <VSA_EState8>
3.62

>  <VSA_EState9>
0

>  <apol>
47.03

>  <bpol>
25.4

>  <nRing>
3

>  <nHRing>
2

>  <naRing>
1

>  <naHRing>
0

>  <nARing 2>
2

>  <nAHRing 2>
2

>  <nFRing>
1

>  <nFHRing>
1

>  <nFaRing>
0

>  <nFaHRing>
0

>  <nFARing 2>
1

>  <nFAHRing 2>
1

>  <nRot>
4

>  <SLogP>
0.86

>  <SMR>
85.8

>  <TopoPSA(NO)>
86.71

>  <TopoPSA>
112.01

>  <JGI1>
0.24

>  <JGI2>
0.08

>  <JGI3>
0.1

>  <JGI4>
0.06

>  <JGI5>
0.02

>  <Diameter>
12

>  <Radius>
6

>  <TMWC10>
124.8

>  <TSRW10>
73.24

>  <MW>
334.1

>  <AMW>
8.15

>  <WPath>
1247

>  <WPol>
35

>  <Zagreb1>
126

>  <Zagreb2>
152

>  <mZagreb2>
4.88

>  <yes>


>  <nAR-cont>
1

>  <nHA-cont>
0.967789328

>  <MWHBN>
0.328256257

>  <MWHBN-cont>
0.748935053

>  <TPSA-cont>
0.218100646

>  <pka_cont>
0.97

>  <yes.1>


>  <BBB_SCORE>
4.012393199

>  <MMFF94 Energy>
52.491

$$$$
Compound 999
Actelion Java MolfileCreator 2.0

  0  0  0  0  0  0              0 V3000
M  V30 BEGIN CTAB
M  V30 COUNTS 51 54 0 0 0
M  V30 BEGIN ATOM
M  V30 1 S 1.2186 -0.6497 3.1706 0
M  V30 2 C 1.4423 -2.5037 3.118 0
M  V30 3 C 0.4477 -0.6574 1.5038 0 CFG=1
M  V30 4 C 0.174 -3.0021 2.3943 0 CFG=1
M  V30 5 C 2.7546 -2.797 2.3784 0
M  V30 6 C 1.5189 -3.0265 4.5539 0
M  V30 7 N -0.2449 -1.9432 1.4918 0
M  V30 8 C -0.9414 0.027 1.3648 0 CFG=2
M  V30 9 C 0.3567 -4.3102 1.6401 0
M  V30 10 C -1.4947 -1.4173 1.4618 0
M  V30 11 N -1.1262 0.8033 0.1089 0
M  V30 12 O 0.6515 -4.452 0.464 0
M  V30 13 O 0.2142 -5.3917 2.4355 0
M  V30 14 O -2.5752 -1.9413 1.601 0
M  V30 15 C -0.3794 1.9531 -0.115 0
M  V30 16 C -2.1873 0.6434 -0.8525 0
M  V30 17 O 0.5323 2.3498 0.5938 0
M  V30 18 C -0.9621 2.6258 -1.3414 0
M  V30 19 N -1.8633 1.6106 -1.9093 0
M  V30 20 C -2.2003 -0.7235 -1.5435 0
M  V30 21 C -3.5569 0.9738 -0.2478 0
M  V30 22 C 0.0749 3.0936 -2.3352 0
M  V30 23 C 0.3683 4.4623 -2.4503 0
M  V30 24 C 0.7852 2.1853 -3.1399 0
M  V30 25 C 1.3338 4.9096 -3.3545 0
M  V30 26 C 1.7517 2.6324 -4.0444 0
M  V30 27 C 2.0161 3.9934 -4.144 0
M  V30 28 O 2.9504 4.4742 -5.0129 0
M  V30 29 H 1.1411 -0.5503 0.6642 0
M  V30 30 H -0.6504 -3.1515 3.1057 0
M  V30 31 H 2.7303 -2.4573 1.3371 0
M  V30 32 H 3.6082 -2.3141 2.869 0
M  V30 33 H 2.9649 -3.8726 2.3661 0
M  V30 34 H 1.6301 -4.1166 4.5642 0
M  V30 35 H 0.6147 -2.7858 5.1251 0
M  V30 36 H 2.3772 -2.6069 5.0915 0
M  V30 37 H -1.2471 0.634 2.2271 0
M  V30 38 H 0.3374 -6.1528 1.8281 0
M  V30 39 H -1.5673 3.4696 -0.9854 0
M  V30 40 H -2.6934 2.053 -2.2935 0
M  V30 41 H -1.1975 -1.0127 -1.8802 0
M  V30 42 H -2.8604 -0.7197 -2.42 0
M  V30 43 H -2.5696 -1.5166 -0.8903 0
M  V30 44 H -3.5707 1.9776 0.1935 0
M  V30 45 H -3.8195 0.2703 0.549 0
M  V30 46 H -4.3502 0.9277 -1.0028 0
M  V30 47 H -0.1476 5.1934 -1.8316 0
M  V30 48 H 0.5832 1.1182 -3.0668 0
M  V30 49 H 1.5563 5.9696 -3.4379 0
M  V30 50 H 2.281 1.9082 -4.6548 0
M  V30 51 H 3.3574 3.722 -5.4726 0
M  V30 END ATOM
M  V30 BEGIN BOND
M  V30 1 1 1 2
M  V30 2 1 1 3
M  V30 3 1 2 4
M  V30 4 1 2 5
M  V30 5 1 2 6
M  V30 6 1 3 7
M  V30 7 1 3 8
M  V30 8 1 4 9
M  V30 9 1 7 10
M  V30 10 1 8 11
M  V30 11 2 9 12
M  V30 12 1 9 13
M  V30 13 2 10 14
M  V30 14 1 11 15
M  V30 15 1 11 16
M  V30 16 2 15 17
M  V30 17 1 15 18
M  V30 18 1 16 19
M  V30 19 1 16 20
M  V30 20 1 16 21
M  V30 21 1 18 22
M  V30 22 2 22 23
M  V30 23 1 22 24
M  V30 24 1 23 25
M  V30 25 2 24 26
M  V30 26 2 25 27
M  V30 27 1 27 28
M  V30 28 1 4 7
M  V30 29 1 8 10
M  V30 30 1 18 19
M  V30 31 1 26 27
M  V30 32 1 3 29
M  V30 33 1 4 30
M  V30 34 1 5 31
M  V30 35 1 5 32
M  V30 36 1 5 33
M  V30 37 1 6 34
M  V30 38 1 6 35
M  V30 39 1 6 36
M  V30 40 1 8 37
M  V30 41 1 13 38
M  V30 42 1 18 39
M  V30 43 1 19 40
M  V30 44 1 20 41
M  V30 45 1 20 42
M  V30 46 1 20 43
M  V30 47 1 21 44
M  V30 48 1 21 45
M  V30 49 1 21 46
M  V30 50 1 23 47
M  V30 51 1 24 48
M  V30 52 1 25 49
M  V30 53 1 26 50
M  V30 54 1 28 51
M  V30 END BOND
M  V30 BEGIN COLLECTION
M  V30 MDLV30/STEABS ATOMS=(3 3 4 8)
M  V30 END COLLECTION
M  V30 END CTAB
M  END
>  <Column 1>
1193

>  <level_0>
1334

>  <index>
1334

>  <Unnamed: 0>
1334

>  <NO.>
1346

>  <Name>
oxetacillin

>  <IUPAC_name>
(2s-5r-6r)-6-[4-(4-hydroxyphenyl)-2-2-dimethyl-5-oxoimidazolidin-1-ium-1-yl]-3-3-dimethyl-7-oxo-4-thia-1-azabicyclo[3.2.0]heptane-2-carboxylic acid

>  <SMILES>
CC1(C)S[C@@H]2[C@@H](N3C(=O)C(c4ccc(O)cc4)NC3(C)C)C(=O)N2[C@H]1C(=O)O

>  <CID>


>  <logBB>


>  <BBB+/BBB->
BBB-

>  <Inchi>
InChI=1S/C19H23N3O5S/c1-18(2)13(17(26)27)21-15(25)12(16(21)28-18)22-14(24)11(20-19(22-3)4)9-5-7-10(23)8-6-9/h5-8-11-13-16-20-23H-1-4H3-(H-26-27)/t11?-12--13--16+/m0/s1

>  <threshold>
-1

>  <reference>
R1|R27|R30|

>  <group>
B

>  <Class>
-1

>  <ABC>
22.58

>  <ABCGG>
19.14

>  <nAcid>
1

>  <nBase>
1

>  <nAromAtom>
6

>  <nAromBond>
6

>  <nAtom>
51

>  <nHeavyAtom>
28

>  <nSpiro>
0

>  <nBridgehead>
0

>  <nHetero>
9

>  <nN>
3

>  <nO>
5

>  <nF>
0

>  <BalabanJ>
1.54

>  <BertzCT>
868.83

>  <nBonds>
54

>  <nBondsO>
31

>  <nBondsS>
45

>  <nBondsD>
3

>  <nBondsT>
0

>  <nBondsA>
6

>  <nBondsM>
9

>  <nBondsKS>
48

>  <nBondsKD>
6

>  <RNCG>
0.16

>  <RPCG>
0.1

>  <FCSP3>
0.53

>  <SZ>
35.67

>  <Sm>
33.76

>  <Sv>
32.27

>  <Sse>
51.93

>  <Sp>
34.3

>  <Si>
57.62

>  <MZ>
0.7

>  <Mm>
0.66

>  <Mv>
0.63

>  <Mse>
1.02

>  <Mp>
0.67

>  <Mi>
1.13

>  <NsCH3>
4

>  <NdCH2>
0

>  <NssCH2>
0

>  <NtCH>
0

>  <NdsCH>
0

>  <NaaCH>
4

>  <NsssCH>
4

>  <NddC>
0

>  <NtsC>
0

>  <NdssC>
3

>  <NaasC>
2

>  <NaaaC>
0

>  <NssssC>
2

>  <NsNH3>
0

>  <NsNH2>
0

>  <NssNH2>
0

>  <NdNH>
0

>  <NssNH>
1

>  <NaaNH>
0

>  <NtN>
0

>  <NsssNH>
0

>  <NdsN>
0

>  <NaaN>
0

>  <NsssN>
2

>  <NddsN>
0

>  <NaasN>
0

>  <NssssN>
0

>  <NsOH>
2

>  <NdO>
3

>  <NssO>
0

>  <NaaO>
0

>  <NsF>
0

>  <NsSiH3>
0

>  <NssSiH2>
0

>  <NsssSiH>
0

>  <NssssSi>
0

>  <NsPH2>
0

>  <NssPH>
0

>  <NsssP>
0

>  <NdsssP>
0

>  <NsssssP>
0

>  <NsSH>
0

>  <NdS>
0

>  <NssS>
1

>  <NaaS>
0

>  <NdssS>
0

>  <NddssS>
0

>  <NsCl>
0

>  <NsBr>
0

>  <NsI>
0

>  <fragCpx>
205.09

>  <fMF>
0.35

>  <nHBAcc>
6

>  <nHBDon>
3

>  <Kier1>
21.24

>  <Kier2>
7.02

>  <Lipinski>
1

>  <GhoseFilter>
1

>  <FilterItLogS>
-1.94

>  <VMcGowan>
284.97

>  <LabuteASA>
166.42

>  <PEOE_VSA1>
20.01

>  <PEOE_VSA2>
14.91

>  <PEOE_VSA3>
4.79

>  <PEOE_VSA4>
0

>  <PEOE_VSA5>
11.76

>  <PEOE_VSA6>
12.13

>  <PEOE_VSA7>
45.39

>  <PEOE_VSA8>
4.75

>  <PEOE_VSA9>
5.66

>  <PEOE_VSA10>
29.25

>  <PEOE_VSA11>
0

>  <PEOE_VSA12>
11.81

>  <PEOE_VSA13>
0

>  <SMR_VSA1>
24.6

>  <SMR_VSA2>
0

>  <SMR_VSA3>
15.12

>  <SMR_VSA4>
0

>  <SMR_VSA5>
61.6

>  <SMR_VSA6>
0

>  <SMR_VSA7>
29.83

>  <SMR_VSA8>
0

>  <SMR_VSA9>
5.75

>  <SlogP_VSA1>
5.32

>  <SlogP_VSA2>
65.66

>  <SlogP_VSA3>
14.38

>  <SlogP_VSA4>
0

>  <SlogP_VSA5>
39.3

>  <SlogP_VSA6>
24.27

>  <SlogP_VSA7>
0

>  <SlogP_VSA8>
0

>  <SlogP_VSA9>
0

>  <SlogP_VSA10>
0

>  <SlogP_VSA11>
5.75

>  <EState_VSA1>
34.5

>  <EState_VSA2>
22.94

>  <EState_VSA3>
5.56

>  <EState_VSA4>
0

>  <EState_VSA5>
28.79

>  <EState_VSA6>
17.03

>  <EState_VSA7>
27.69

>  <EState_VSA8>
5.32

>  <EState_VSA9>
0

>  <EState_VSA10>
24.6

>  <VSA_EState1>
-0.64

>  <VSA_EState2>
40.88

>  <VSA_EState3>
21.97

>  <VSA_EState4>
-0.08

>  <VSA_EState5>
-1.48

>  <VSA_EState6>
4.14

>  <VSA_EState7>
0

>  <VSA_EState8>
7.29

>  <VSA_EState9>
0

>  <apol>
57.28

>  <bpol>
32.13

>  <nRing>
4

>  <nHRing>
3

>  <naRing>
1

>  <naHRing>
0

>  <nARing 2>
3

>  <nAHRing 2>
3

>  <nFRing>
1

>  <nFHRing>
1

>  <nFaRing>
0

>  <nFaHRing>
0

>  <nFARing 2>
1

>  <nFAHRing 2>
1

>  <nRot>
3

>  <SLogP>
1.12

>  <SMR>
102.42

>  <TopoPSA(NO)>
110.18

>  <TopoPSA>
135.48

>  <JGI1>
0.27

>  <JGI2>
0.1

>  <JGI3>
0.1

>  <JGI4>
0.06

>  <JGI5>
0.03

>  <Diameter>
13

>  <Radius>
7

>  <TMWC10>
139.34

>  <TSRW10>
81.6

>  <MW>
405.14

>  <AMW>
7.94

>  <WPath>
1906

>  <WPol>
51

>  <Zagreb1>
164

>  <Zagreb2>
205

>  <mZagreb2>
5.69

>  <yes>


>  <nAR-cont>
0.691115

>  <nHA-cont>
0.82432561

>  <MWHBN>
0.447136319

>  <MWHBN-cont>
0.296211903

>  <TPSA-cont>
0

>  <pka_cont>
0.97

>  <yes.1>


>  <BBB_SCORE>
2.444758465

>  <MMFF94 Energy>
40.991

$$$$
Compound 1000
Actelion Java MolfileCreator 2.0

  0  0  0  0  0  0              0 V3000
M  V30 BEGIN CTAB
M  V30 COUNTS 50 53 0 0 0
M  V30 BEGIN ATOM
M  V30 1 S -1.545 -1.3009 0.4064 0
M  V30 2 C -0.7648 -2.9824 0.6329 0
M  V30 3 C -0.9585 -0.7349 2.0381 0 CFG=1
M  V30 4 C 0.5017 -2.7144 1.4741 0 CFG=1
M  V30 5 C -1.8045 -3.8712 1.3308 0
M  V30 6 C -0.4242 -3.5443 -0.7486 0
M  V30 7 N 0.205 -1.5671 2.3157 0
M  V30 8 C -0.0325 0.5032 2.1456 0 CFG=1
M  V30 9 C 0.9797 -3.9353 2.2534 0
M  V30 10 C 1.0705 -0.5351 2.4977 0
M  V30 11 N 0.17 1.3459 0.9377 0
M  V30 12 O 1.3287 -4.999 1.7617 0
M  V30 13 O 0.9597 -3.7981 3.5952 0
M  V30 14 O 2.2523 -0.5191 2.7494 0
M  V30 15 C 0.9406 0.977 -0.163 0
M  V30 16 C -0.3214 2.693 0.8247 0
M  V30 17 O 1.5501 -0.0705 -0.3086 0
M  V30 18 C 0.8963 2.1519 -1.1272 0 CFG=2
M  V30 19 N -0.1761 3.0132 -0.5938 0
M  V30 20 C -1.8068 2.8109 1.1794 0
M  V30 21 C 0.5114 3.6633 1.6746 0
M  V30 22 C 0.641 1.7629 -2.5639 0
M  V30 23 C -0.5641 1.1539 -2.9518 0
M  V30 24 C 1.6196 1.9954 -3.5428 0
M  V30 25 C -0.7848 0.7908 -4.2813 0
M  V30 26 C 1.3968 1.6318 -4.8727 0
M  V30 27 C 0.1952 1.0306 -5.2413 0
M  V30 28 H -1.7119 -0.8055 2.8299 0
M  V30 29 H 1.3462 -2.4289 0.8331 0
M  V30 30 H -1.4399 -4.8992 1.4344 0
M  V30 31 H -2.0497 -3.5088 2.3358 0
M  V30 32 H -2.7371 -3.9265 0.7563 0
M  V30 33 H 0.0458 -4.5302 -0.6631 0
M  V30 34 H -1.3205 -3.6653 -1.3682 0
M  V30 35 H 0.274 -2.8961 -1.2909 0
M  V30 36 H -0.2651 1.1243 3.0205 0
M  V30 37 H 1.3378 -4.6364 3.9316 0
M  V30 38 H 1.8555 2.6766 -1.0289 0
M  V30 39 H 0.052 3.99 -0.752 0
M  V30 40 H -1.9864 2.5827 2.2358 0
M  V30 41 H -2.1827 3.8243 0.995 0
M  V30 42 H -2.4161 2.1149 0.5903 0
M  V30 43 H 0.4184 3.4326 2.7419 0
M  V30 44 H 0.1871 4.7006 1.5313 0
M  V30 45 H 1.5778 3.607 1.4263 0
M  V30 46 H -1.3397 0.9577 -2.2136 0
M  V30 47 H 2.5687 2.4549 -3.2764 0
M  V30 48 H -1.7213 0.3177 -4.5643 0
M  V30 49 H 2.1642 1.8131 -5.6206 0
M  V30 50 H 0.0243 0.7446 -6.2755 0
M  V30 END ATOM
M  V30 BEGIN BOND
M  V30 1 1 1 2
M  V30 2 1 1 3
M  V30 3 1 2 4
M  V30 4 1 2 5
M  V30 5 1 2 6
M  V30 6 1 3 7
M  V30 7 1 3 8
M  V30 8 1 4 9
M  V30 9 1 7 10
M  V30 10 1 8 11
M  V30 11 2 9 12
M  V30 12 1 9 13
M  V30 13 2 10 14
M  V30 14 1 11 15
M  V30 15 1 11 16
M  V30 16 2 15 17
M  V30 17 1 15 18
M  V30 18 1 16 19
M  V30 19 1 16 20
M  V30 20 1 16 21
M  V30 21 1 18 22
M  V30 22 2 22 23
M  V30 23 1 22 24
M  V30 24 1 23 25
M  V30 25 2 24 26
M  V30 26 2 25 27
M  V30 27 1 4 7
M  V30 28 1 8 10
M  V30 29 1 18 19
M  V30 30 1 26 27
M  V30 31 1 3 28
M  V30 32 1 4 29
M  V30 33 1 5 30
M  V30 34 1 5 31
M  V30 35 1 5 32
M  V30 36 1 6 33
M  V30 37 1 6 34
M  V30 38 1 6 35
M  V30 39 1 8 36
M  V30 40 1 13 37
M  V30 41 1 18 38
M  V30 42 1 19 39
M  V30 43 1 20 40
M  V30 44 1 20 41
M  V30 45 1 20 42
M  V30 46 1 21 43
M  V30 47 1 21 44
M  V30 48 1 21 45
M  V30 49 1 23 46
M  V30 50 1 24 47
M  V30 51 1 25 48
M  V30 52 1 26 49
M  V30 53 1 27 50
M  V30 END BOND
M  V30 BEGIN COLLECTION
M  V30 MDLV30/STEABS ATOMS=(4 3 4 8 18)
M  V30 END COLLECTION
M  V30 END CTAB
M  END
>  <Column 1>
1194

>  <level_0>
1335

>  <index>
1335

>  <Unnamed: 0>
1335

>  <NO.>
1347

>  <Name>
hetacillin

>  <IUPAC_name>
(2s-5r-6r)-6-[(4r)-2-2-dimethyl-5-oxo-4-phenylimidazolidin-1-yl]-3-3-dimethyl-7-oxo-4-thia-1-azabicyclo[3.2.0]heptane-2-carboxylic acid

>  <SMILES>
CC1(C)S[C@@H]2[C@H](N3C(=O)[C@@H](c4ccccc4)NC3(C)C)C(=O)N2[C@H]1C(=O)O

>  <CID>
443387

>  <logBB>


>  <BBB+/BBB->
BBB-

>  <Inchi>
InChI=1S/C19H23N3O4S/c1-18(2)13(17(25)26)21-15(24)12(16(21)27-18)22-14(23)11(20-19(22-3)4)10-8-6-5-7-9-10/h5-9-11-13-16-20H-1-4H3-(H-25-26)/t11--12--13+-16-/m1/s1

>  <threshold>
-1

>  <reference>
R1|R6|R27|R30|

>  <group>
B

>  <Class>
-1

>  <ABC>
21.76

>  <ABCGG>
18.66

>  <nAcid>
1

>  <nBase>
1

>  <nAromAtom>
6

>  <nAromBond>
6

>  <nAtom>
50

>  <nHeavyAtom>
27

>  <nSpiro>
0

>  <nBridgehead>
0

>  <nHetero>
8

>  <nN>
3

>  <nO>
4

>  <nF>
0

>  <BalabanJ>
1.56

>  <BertzCT>
825.5

>  <nBonds>
53

>  <nBondsO>
30

>  <nBondsS>
44

>  <nBondsD>
3

>  <nBondsT>
0

>  <nBondsA>
6

>  <nBondsM>
9

>  <nBondsKS>
47

>  <nBondsKD>
6

>  <RNCG>
0.17

>  <RPCG>
0.12

>  <FCSP3>
0.53

>  <SZ>
34.33

>  <Sm>
32.43

>  <Sv>
31.55

>  <Sse>
50.6

>  <Sp>
33.82

>  <Si>
56.41

>  <MZ>
0.69

>  <Mm>
0.65

>  <Mv>
0.63

>  <Mse>
1.01

>  <Mp>
0.68

>  <Mi>
1.13

>  <NsCH3>
4

>  <NdCH2>
0

>  <NssCH2>
0

>  <NtCH>
0

>  <NdsCH>
0

>  <NaaCH>
5

>  <NsssCH>
4

>  <NddC>
0

>  <NtsC>
0

>  <NdssC>
3

>  <NaasC>
1

>  <NaaaC>
0

>  <NssssC>
2

>  <NsNH3>
0

>  <NsNH2>
0

>  <NssNH2>
0

>  <NdNH>
0

>  <NssNH>
1

>  <NaaNH>
0

>  <NtN>
0

>  <NsssNH>
0

>  <NdsN>
0

>  <NaaN>
0

>  <NsssN>
2

>  <NddsN>
0

>  <NaasN>
0

>  <NssssN>
0

>  <NsOH>
1

>  <NdO>
3

>  <NssO>
0

>  <NaaO>
0

>  <NsF>
0

>  <NsSiH3>
0

>  <NssSiH2>
0

>  <NsssSiH>
0

>  <NssssSi>
0

>  <NsPH2>
0

>  <NssPH>
0

>  <NsssP>
0

>  <NdsssP>
0

>  <NsssssP>
0

>  <NsSH>
0

>  <NdS>
0

>  <NssS>
1

>  <NaaS>
0

>  <NdssS>
0

>  <NddssS>
0

>  <NsCl>
0

>  <NsBr>
0

>  <NsI>
0

>  <fragCpx>
198.08

>  <fMF>
0.36

>  <nHBAcc>
5

>  <nHBDon>
2

>  <Kier1>
20.28

>  <Kier2>
6.77

>  <Lipinski>
1

>  <GhoseFilter>
1

>  <FilterItLogS>
-2.37

>  <VMcGowan>
279.1

>  <LabuteASA>
161.63

>  <PEOE_VSA1>
14.91

>  <PEOE_VSA2>
14.91

>  <PEOE_VSA3>
4.79

>  <PEOE_VSA4>
0

>  <PEOE_VSA5>
11.76

>  <PEOE_VSA6>
30.33

>  <PEOE_VSA7>
33.26

>  <PEOE_VSA8>
4.75

>  <PEOE_VSA9>
5.66

>  <PEOE_VSA10>
23.5

>  <PEOE_VSA11>
0

>  <PEOE_VSA12>
11.81

>  <PEOE_VSA13>
0

>  <SMR_VSA1>
19.49

>  <SMR_VSA2>
0

>  <SMR_VSA3>
15.12

>  <SMR_VSA4>
0

>  <SMR_VSA5>
61.6

>  <SMR_VSA6>
0

>  <SMR_VSA7>
35.9

>  <SMR_VSA8>
0

>  <SMR_VSA9>
0

>  <SlogP_VSA1>
5.32

>  <SlogP_VSA2>
60.56

>  <SlogP_VSA3>
14.38

>  <SlogP_VSA4>
0

>  <SlogP_VSA5>
39.3

>  <SlogP_VSA6>
30.33

>  <SlogP_VSA7>
0

>  <SlogP_VSA8>
0

>  <SlogP_VSA9>
0

>  <SlogP_VSA10>
0

>  <SlogP_VSA11>
0

>  <EState_VSA1>
34.5

>  <EState_VSA2>
17.19

>  <EState_VSA3>
0

>  <EState_VSA4>
5.56

>  <EState_VSA5>
16.66

>  <EState_VSA6>
4.9

>  <EState_VSA7>
58.03

>  <EState_VSA8>
5.32

>  <EState_VSA9>
0

>  <EState_VSA10>
19.49

>  <VSA_EState1>
-0.61

>  <VSA_EState2>
40.92

>  <VSA_EState3>
12.58

>  <VSA_EState4>
0.14

>  <VSA_EState5>
-1.45

>  <VSA_EState6>
7.37

>  <VSA_EState7>
0

>  <VSA_EState8>
7.43

>  <VSA_EState9>
0

>  <apol>
56.47

>  <bpol>
32.13

>  <nRing>
4

>  <nHRing>
3

>  <naRing>
1

>  <naHRing>
0

>  <nARing 2>
3

>  <nAHRing 2>
3

>  <nFRing>
1

>  <nFHRing>
1

>  <nFaRing>
0

>  <nFaHRing>
0

>  <nFARing 2>
1

>  <nFAHRing 2>
1

>  <nRot>
3

>  <SLogP>
1.41

>  <SMR>
100.76

>  <TopoPSA(NO)>
89.95

>  <TopoPSA>
115.25

>  <JGI1>
0.25

>  <JGI2>
0.09

>  <JGI3>
0.1

>  <JGI4>
0.06

>  <JGI5>
0.03

>  <Diameter>
12

>  <Radius>
6

>  <TMWC10>
137.08

>  <TSRW10>
80.44

>  <MW>
389.14

>  <AMW>
7.78

>  <WPath>
1697

>  <WPol>
49

>  <Zagreb1>
158

>  <Zagreb2>
198

>  <mZagreb2>
5.53

>  <yes>


>  <nAR-cont>
0.691115

>  <nHA-cont>
0.860070871

>  <MWHBN>
0.35485024

>  <MWHBN-cont>
0.652007215

>  <TPSA-cont>
0.195483434

>  <pka_cont>
0.97

>  <yes.1>


>  <BBB_SCORE>
3.405163561

>  <MMFF94 Energy>
50.363

$$$$
Compound 1001
Actelion Java MolfileCreator 2.0

  0  0  0  0  0  0              0 V3000
M  V30 BEGIN CTAB
M  V30 COUNTS 45 47 0 0 0
M  V30 BEGIN ATOM
M  V30 1 S 1.6994 2.4284 -0.6471 0
M  V30 2 C 3.2211 1.3762 -0.4715 0
M  V30 3 C 1.0675 1.5307 -2.1243 0 CFG=1
M  V30 4 C 3.3771 0.6029 -1.7995 0 CFG=1
M  V30 5 C 4.4029 2.2867 -0.1198 0
M  V30 6 C 2.9799 0.4088 0.7001 0
M  V30 7 N 2.0426 0.4626 -2.3454 0
M  V30 8 C -0.0159 0.4273 -1.941 0 CFG=1
M  V30 9 C 4.238 1.3121 -2.8398 0
M  V30 10 C 1.1895 -0.5569 -2.0765 0
M  V30 11 N -0.6824 0.44 -0.6297 0
M  V30 12 O 3.8851 2.1537 -3.6511 0
M  V30 13 O 5.5352 0.9394 -2.7795 0
M  V30 14 O 1.4014 -1.7373 -1.9208 0
M  V30 15 C -1.2662 -0.6705 -0.3276 0
M  V30 16 N -1.9444 -0.9269 0.8398 0
M  V30 17 C -2.0505 0.1167 1.8582 0
M  V30 18 C -2.4719 -2.2561 1.1174 0
M  V30 19 C -3.2439 -0.0249 2.8021 0
M  V30 20 C -3.9481 -2.3256 0.7375 0
M  V30 21 C -4.5815 -0.2219 2.0887 0
M  V30 22 C -4.8807 -1.6853 1.7641 0
M  V30 23 H 0.9291 2.1637 -3.0061 0
M  V30 24 H 3.792 -0.3994 -1.6379 0
M  V30 25 H 4.253 2.7858 0.8452 0
M  V30 26 H 4.5648 3.0706 -0.868 0
M  V30 27 H 5.3285 1.7053 -0.0401 0
M  V30 28 H 2.8244 0.9462 1.6433 0
M  V30 29 H 3.8483 -0.2452 0.8406 0
M  V30 30 H 2.111 -0.238 0.542 0
M  V30 31 H -0.7229 0.362 -2.7766 0
M  V30 32 H 5.964 1.458 -3.4937 0
M  V30 33 H -1.2619 -1.5348 -1.0182 0
M  V30 34 H -1.1265 0.1325 2.4483 0
M  V30 35 H -2.1323 1.0981 1.3736 0
M  V30 36 H -1.9225 -3.0013 0.5287 0
M  V30 37 H -2.3133 -2.5376 2.1648 0
M  V30 38 H -3.0728 -0.8339 3.522 0
M  V30 39 H -3.3008 0.8954 3.3975 0
M  V30 40 H -4.1112 -1.8627 -0.2436 0
M  V30 41 H -4.2337 -3.38 0.638 0
M  V30 42 H -4.6342 0.3919 1.1819 0
M  V30 43 H -5.377 0.1353 2.7547 0
M  V30 44 H -4.8558 -2.2737 2.6901 0
M  V30 45 H -5.9079 -1.7551 1.3855 0
M  V30 END ATOM
M  V30 BEGIN BOND
M  V30 1 1 1 2
M  V30 2 1 1 3
M  V30 3 1 2 4
M  V30 4 1 2 5
M  V30 5 1 2 6
M  V30 6 1 3 7
M  V30 7 1 3 8
M  V30 8 1 4 9
M  V30 9 1 7 10
M  V30 10 1 8 11
M  V30 11 2 9 12
M  V30 12 1 9 13
M  V30 13 2 10 14
M  V30 14 2 11 15
M  V30 15 1 15 16
M  V30 16 1 16 17
M  V30 17 1 16 18
M  V30 18 1 17 19
M  V30 19 1 18 20
M  V30 20 1 19 21
M  V30 21 1 20 22
M  V30 22 1 4 7
M  V30 23 1 8 10
M  V30 24 1 21 22
M  V30 25 1 3 23
M  V30 26 1 4 24
M  V30 27 1 5 25
M  V30 28 1 5 26
M  V30 29 1 5 27
M  V30 30 1 6 28
M  V30 31 1 6 29
M  V30 32 1 6 30
M  V30 33 1 8 31
M  V30 34 1 13 32
M  V30 35 1 15 33
M  V30 36 1 17 34
M  V30 37 1 17 35
M  V30 38 1 18 36
M  V30 39 1 18 37
M  V30 40 1 19 38
M  V30 41 1 19 39
M  V30 42 1 20 40
M  V30 43 1 20 41
M  V30 44 1 21 42
M  V30 45 1 21 43
M  V30 46 1 22 44
M  V30 47 1 22 45
M  V30 END BOND
M  V30 BEGIN COLLECTION
M  V30 MDLV30/STEABS ATOMS=(3 3 4 8)
M  V30 END COLLECTION
M  V30 END CTAB
M  END
>  <Column 1>
1195

>  <level_0>
1336

>  <index>
1336

>  <Unnamed: 0>
1336

>  <NO.>
1348

>  <Name>
mecillinam

>  <IUPAC_name>
(2s-5r-6r)-6-(azepan-1-ylmethylideneamino)-3-3-dimethyl-7-oxo-4-thia-1-azabicyclo[3.2.0]heptane-2-carboxylic acid

>  <SMILES>
CC1(C)S[C@@H]2[C@H](N=CN3CCCCCC3)C(=O)N2[C@H]1C(=O)O

>  <CID>
36273

>  <logBB>


>  <BBB+/BBB->
BBB-

>  <Inchi>
InChI=1S/C15H23N3O3S/c1-15(2)11(14(20)21)18-12(19)10(13(18)22-15)16-9-17-7-5-3-4-6-8-17/h9-11-13H-3-8H2-1-2H3-(H-20-21)/t10--11+-13-/m1/s1

>  <threshold>
-1

>  <reference>
R1|R6|R27|R27|R30|R30|

>  <group>
B

>  <Class>
-1

>  <ABC>
17.31

>  <ABCGG>
14.68

>  <nAcid>
1

>  <nBase>
2

>  <nAromAtom>
0

>  <nAromBond>
0

>  <nAtom>
45

>  <nHeavyAtom>
22

>  <nSpiro>
0

>  <nBridgehead>
0

>  <nHetero>
7

>  <nN>
3

>  <nO>
3

>  <nF>
0

>  <BalabanJ>
1.56

>  <BertzCT>
500.26

>  <nBonds>
47

>  <nBondsO>
24

>  <nBondsS>
44

>  <nBondsD>
3

>  <nBondsT>
0

>  <nBondsA>
0

>  <nBondsM>
3

>  <nBondsKS>
44

>  <nBondsKD>
3

>  <RNCG>
0.21

>  <RPCG>
0.14

>  <FCSP3>
0.8

>  <SZ>
29

>  <Sm>
27.09

>  <Sv>
26.84

>  <Sse>
45.27

>  <Sp>
29.34

>  <Si>
51.2

>  <MZ>
0.64

>  <Mm>
0.6

>  <Mv>
0.6

>  <Mse>
1.01

>  <Mp>
0.65

>  <Mi>
1.14

>  <NsCH3>
2

>  <NdCH2>
0

>  <NssCH2>
6

>  <NtCH>
0

>  <NdsCH>
1

>  <NaaCH>
0

>  <NsssCH>
3

>  <NddC>
0

>  <NtsC>
0

>  <NdssC>
2

>  <NaasC>
0

>  <NaaaC>
0

>  <NssssC>
1

>  <NsNH3>
0

>  <NsNH2>
0

>  <NssNH2>
0

>  <NdNH>
0

>  <NssNH>
0

>  <NaaNH>
0

>  <NtN>
0

>  <NsssNH>
0

>  <NdsN>
1

>  <NaaN>
0

>  <NsssN>
2

>  <NddsN>
0

>  <NaasN>
0

>  <NssssN>
0

>  <NsOH>
1

>  <NdO>
2

>  <NssO>
0

>  <NaaO>
0

>  <NsF>
0

>  <NsSiH3>
0

>  <NssSiH2>
0

>  <NsssSiH>
0

>  <NssssSi>
0

>  <NsPH2>
0

>  <NssPH>
0

>  <NsssP>
0

>  <NdsssP>
0

>  <NsssssP>
0

>  <NsSH>
0

>  <NdS>
0

>  <NssS>
1

>  <NaaS>
0

>  <NdssS>
0

>  <NddssS>
0

>  <NsCl>
0

>  <NsBr>
0

>  <NsI>
0

>  <fragCpx>
114.07

>  <fMF>
0.36

>  <nHBAcc>
4

>  <nHBDon>
1

>  <Kier1>
16.84

>  <Kier2>
6.48

>  <Lipinski>
1

>  <GhoseFilter>
1

>  <FilterItLogS>
-1.12

>  <VMcGowan>
240.63

>  <LabuteASA>
134.49

>  <PEOE_VSA1>
14.91

>  <PEOE_VSA2>
9.79

>  <PEOE_VSA3>
4.79

>  <PEOE_VSA4>
0

>  <PEOE_VSA5>
11.76

>  <PEOE_VSA6>
12.84

>  <PEOE_VSA7>
26.69

>  <PEOE_VSA8>
17.84

>  <PEOE_VSA9>
6.34

>  <PEOE_VSA10>
11.42

>  <PEOE_VSA11>
6.04

>  <PEOE_VSA12>
0

>  <PEOE_VSA13>
5.91

>  <SMR_VSA1>
14.7

>  <SMR_VSA2>
0

>  <SMR_VSA3>
9.8

>  <SMR_VSA4>
4.99

>  <SMR_VSA5>
61.74

>  <SMR_VSA6>
13.09

>  <SMR_VSA7>
0

>  <SMR_VSA8>
0

>  <SMR_VSA9>
0

>  <SlogP_VSA1>
0

>  <SlogP_VSA2>
68.42

>  <SlogP_VSA3>
9.59

>  <SlogP_VSA4>
0

>  <SlogP_VSA5>
39.53

>  <SlogP_VSA6>
4.99

>  <SlogP_VSA7>
0

>  <SlogP_VSA8>
0

>  <SlogP_VSA9>
0

>  <SlogP_VSA10>
0

>  <SlogP_VSA11>
0

>  <EState_VSA1>
22.8

>  <EState_VSA2>
11.28

>  <EState_VSA3>
0

>  <EState_VSA4>
13.09

>  <EState_VSA5>
30.58

>  <EState_VSA6>
11.76

>  <EState_VSA7>
20.19

>  <EState_VSA8>
9.89

>  <EState_VSA9>
0

>  <EState_VSA10>
14.7

>  <VSA_EState1>
-0.47

>  <VSA_EState2>
31.91

>  <VSA_EState3>
9.25

>  <VSA_EState4>
0

>  <VSA_EState5>
-1.08

>  <VSA_EState6>
-1.17

>  <VSA_EState7>
6.67

>  <VSA_EState8>
5.76

>  <VSA_EState9>
0

>  <apol>
48.99

>  <bpol>
31.83

>  <nRing>
3

>  <nHRing>
3

>  <naRing>
0

>  <naHRing>
0

>  <nARing 2>
3

>  <nAHRing 2>
3

>  <nFRing>
1

>  <nFHRing>
1

>  <nFaRing>
0

>  <nFaHRing>
0

>  <nFARing 2>
1

>  <nFAHRing 2>
1

>  <nRot>
3

>  <SLogP>
1.41

>  <SMR>
86.05

>  <TopoPSA(NO)>
73.21

>  <TopoPSA>
98.51

>  <JGI1>
0.21

>  <JGI2>
0.08

>  <JGI3>
0.09

>  <JGI4>
0.05

>  <JGI5>
0.03

>  <Diameter>
11

>  <Radius>
6

>  <TMWC10>
122.34

>  <TSRW10>
72.13

>  <MW>
325.15

>  <AMW>
7.23

>  <WPath>
1095

>  <WPol>
36

>  <Zagreb1>
120

>  <Zagreb2>
145

>  <mZagreb2>
4.71

>  <yes>


>  <nAR-cont>
0.691115

>  <nHA-cont>
0.983774276

>  <MWHBN>
0.277286116

>  <MWHBN-cont>
0.902859864

>  <TPSA-cont>
0.312339029

>  <pka_cont>
0.97

>  <yes.1>


>  <BBB_SCORE>
4.138857129

>  <MMFF94 Energy>
38.353

$$$$
Compound 1002
Actelion Java MolfileCreator 2.0

  0  0  0  0  0  0              0 V3000
M  V30 BEGIN CTAB
M  V30 COUNTS 61 65 0 0 0
M  V30 BEGIN ATOM
M  V30 1 S 2.2021 2.7737 -0.326 0
M  V30 2 C 3.8975 3.2638 0.2801 0
M  V30 3 C 2.7723 2.2898 -2.0081 0 CFG=1
M  V30 4 C 4.837 3.2616 -0.9539 0 CFG=1
M  V30 5 C 3.7627 4.604 1.0111 0
M  V30 6 C 4.3376 2.1948 1.2965 0
M  V30 7 N 4.227 2.3471 -1.9014 0
M  V30 8 C 2.9246 0.7722 -2.3144 0 CFG=1
M  V30 9 C 5.0627 4.6414 -1.5783 0
M  V30 10 C 4.4144 1.0059 -1.9524 0
M  V30 11 N 2.1849 -0.1806 -1.4424 0
M  V30 12 O 5.6671 5.566 -1.054 0
M  V30 13 O 4.5181 4.8155 -2.8001 0
M  V30 14 O 5.3685 0.3234 -1.6623 0
M  V30 15 C 0.8325 -0.3996 -1.6286 0
M  V30 16 O 0.2231 0.1303 -2.5556 0
M  V30 17 C 0.2015 -1.3787 -0.645 0
M  V30 18 C 0.1705 -2.7814 -1.2455 0
M  V30 19 C -1.1423 -0.8867 -0.1326 0
M  V30 20 C 0.8393 -3.8386 -0.6079 0
M  V30 21 C -0.531 -3.0439 -2.434 0
M  V30 22 O -1.4763 0.2902 -0.0659 0
M  V30 23 O -1.8838 -1.9626 0.3641 0
M  V30 24 C 0.809 -5.1247 -1.1497 0
M  V30 25 C -0.5578 -4.3309 -2.9721 0
M  V30 26 C -3.1529 -1.6931 0.9009 0
M  V30 27 C 0.1117 -5.3702 -2.3307 0
M  V30 28 C -3.321 -0.8143 1.9718 0
M  V30 29 C -4.2263 -2.4251 0.3708 0
M  V30 30 C -4.6028 -0.6489 2.4682 0
M  V30 31 C -5.5108 -2.2584 0.8919 0
M  V30 32 C -5.6848 -1.361 1.9337 0
M  V30 33 C -5.044 0.2112 3.6108 0
M  V30 34 C -6.9474 -1.0403 2.6716 0
M  V30 35 C -6.5597 0.2706 3.3713 0
M  V30 36 H 2.3702 2.8952 -2.8252 0
M  V30 37 H 5.8303 2.872 -0.6988 0
M  V30 38 H 4.7363 4.9434 1.3827 0
M  V30 39 H 3.1013 4.5229 1.8827 0
M  V30 40 H 3.3528 5.3907 0.3675 0
M  V30 41 H 3.6603 2.1504 2.1579 0
M  V30 42 H 5.3375 2.4244 1.6835 0
M  V30 43 H 4.3816 1.1918 0.8595 0
M  V30 44 H 2.8032 0.5143 -3.3742 0
M  V30 45 H 2.6831 -0.6777 -0.7124 0
M  V30 46 H 4.7548 5.7348 -3.0458 0
M  V30 47 H 0.8386 -1.4012 0.2509 0
M  V30 48 H 1.3852 -3.6767 0.319 0
M  V30 49 H -1.0613 -2.2467 -2.9548 0
M  V30 50 H 1.3281 -5.9383 -0.6489 0
M  V30 51 H -1.1018 -4.5214 -3.8941 0
M  V30 52 H 0.0892 -6.3722 -2.7512 0
M  V30 53 H -2.4839 -0.2723 2.3966 0
M  V30 54 H -4.0568 -3.1248 -0.4427 0
M  V30 55 H -6.3473 -2.8209 0.4904 0
M  V30 56 H -4.5963 1.2086 3.5822 0
M  V30 57 H -4.8123 -0.2783 4.5623 0
M  V30 58 H -7.1682 -1.8275 3.3999 0
M  V30 59 H -7.7999 -0.8979 2.0016 0
M  V30 60 H -6.7849 1.1141 2.7035 0
M  V30 61 H -7.1229 0.4334 4.2957 0
M  V30 END ATOM
M  V30 BEGIN BOND
M  V30 1 1 1 2
M  V30 2 1 1 3
M  V30 3 1 2 4
M  V30 4 1 2 5
M  V30 5 1 2 6
M  V30 6 1 3 7
M  V30 7 1 3 8
M  V30 8 1 4 9
M  V30 9 1 7 10
M  V30 10 1 8 11
M  V30 11 2 9 12
M  V30 12 1 9 13
M  V30 13 2 10 14
M  V30 14 1 11 15
M  V30 15 2 15 16
M  V30 16 1 15 17
M  V30 17 1 17 18
M  V30 18 1 17 19
M  V30 19 2 18 20
M  V30 20 1 18 21
M  V30 21 2 19 22
M  V30 22 1 19 23
M  V30 23 1 20 24
M  V30 24 2 21 25
M  V30 25 1 23 26
M  V30 26 2 24 27
M  V30 27 2 26 28
M  V30 28 1 26 29
M  V30 29 1 28 30
M  V30 30 2 29 31
M  V30 31 2 30 32
M  V30 32 1 30 33
M  V30 33 1 32 34
M  V30 34 1 33 35
M  V30 35 1 4 7
M  V30 36 1 8 10
M  V30 37 1 25 27
M  V30 38 1 31 32
M  V30 39 1 34 35
M  V30 40 1 3 36
M  V30 41 1 4 37
M  V30 42 1 5 38
M  V30 43 1 5 39
M  V30 44 1 5 40
M  V30 45 1 6 41
M  V30 46 1 6 42
M  V30 47 1 6 43
M  V30 48 1 8 44
M  V30 49 1 11 45
M  V30 50 1 13 46
M  V30 51 1 17 47
M  V30 52 1 20 48
M  V30 53 1 21 49
M  V30 54 1 24 50
M  V30 55 1 25 51
M  V30 56 1 27 52
M  V30 57 1 28 53
M  V30 58 1 29 54
M  V30 59 1 31 55
M  V30 60 1 33 56
M  V30 61 1 33 57
M  V30 62 1 34 58
M  V30 63 1 34 59
M  V30 64 1 35 60
M  V30 65 1 35 61
M  V30 END BOND
M  V30 BEGIN COLLECTION
M  V30 MDLV30/STEABS ATOMS=(3 3 4 8)
M  V30 END COLLECTION
M  V30 END CTAB
M  END
>  <Column 1>
1196

>  <level_0>
1337

>  <index>
1337

>  <Unnamed: 0>
1337

>  <NO.>
1349

>  <Name>
carindacillin

>  <IUPAC_name>
(2s-5r-6r)-6-[[3-(2-3-dihydro-1h-inden-5-yloxy)-3-oxo-2-phenylpropanoyl]amino]-3-3-dimethyl-7-oxo-4-thia-1-azabicyclo[3.2.0]heptane-2-carboxylic acid

>  <SMILES>
CC1(C)S[C@@H]2[C@H](NC(=O)C(C(=O)Oc3ccc4c(c3)CCC4)c3ccccc3)C(=O)N2[C@H]1C(=O)O

>  <CID>
93184

>  <logBB>


>  <BBB+/BBB->
BBB-

>  <Inchi>
InChI=1S/C26H26N2O6S/c1-26(2)20(24(31)32)28-22(30)19(23(28)35-26)27-21(29)18(15-7-4-3-5-8-15)25(33)34-17-12-11-14-9-6-10-16(14)13-17/h3-5-7-8-11-13-18-20-23H-6-9-10H2-1-2H3-(H-27-29)(H-31-32)/t18?-19--20+-23-/m1/s1

>  <threshold>
-1

>  <reference>
R1|R6|R27|R30|

>  <group>
B

>  <Class>
-1

>  <ABC>
27.98

>  <ABCGG>
22.59

>  <nAcid>
1

>  <nBase>
0

>  <nAromAtom>
12

>  <nAromBond>
12

>  <nAtom>
61

>  <nHeavyAtom>
35

>  <nSpiro>
0

>  <nBridgehead>
0

>  <nHetero>
9

>  <nN>
2

>  <nO>
6

>  <nF>
0

>  <BalabanJ>
1.25

>  <BertzCT>
1213.58

>  <nBonds>
65

>  <nBondsO>
39

>  <nBondsS>
49

>  <nBondsD>
4

>  <nBondsT>
0

>  <nBondsA>
12

>  <nBondsM>
16

>  <nBondsKS>
55

>  <nBondsKD>
10

>  <RNCG>
0.14

>  <RPCG>
0.1

>  <FCSP3>
0.38

>  <SZ>
43.33

>  <Sm>
41.18

>  <Sv>
40.04

>  <Sse>
61.93

>  <Sp>
42.32

>  <Si>
68.16

>  <MZ>
0.71

>  <Mm>
0.68

>  <Mv>
0.66

>  <Mse>
1.02

>  <Mp>
0.69

>  <Mi>
1.12

>  <NsCH3>
2

>  <NdCH2>
0

>  <NssCH2>
3

>  <NtCH>
0

>  <NdsCH>
0

>  <NaaCH>
8

>  <NsssCH>
4

>  <NddC>
0

>  <NtsC>
0

>  <NdssC>
4

>  <NaasC>
4

>  <NaaaC>
0

>  <NssssC>
1

>  <NsNH3>
0

>  <NsNH2>
0

>  <NssNH2>
0

>  <NdNH>
0

>  <NssNH>
1

>  <NaaNH>
0

>  <NtN>
0

>  <NsssNH>
0

>  <NdsN>
0

>  <NaaN>
0

>  <NsssN>
1

>  <NddsN>
0

>  <NaasN>
0

>  <NssssN>
0

>  <NsOH>
1

>  <NdO>
4

>  <NssO>
1

>  <NaaO>
0

>  <NsF>
0

>  <NsSiH3>
0

>  <NssSiH2>
0

>  <NsssSiH>
0

>  <NssssSi>
0

>  <NsPH2>
0

>  <NssPH>
0

>  <NsssP>
0

>  <NdsssP>
0

>  <NsssssP>
0

>  <NsSH>
0

>  <NdS>
0

>  <NssS>
1

>  <NaaS>
0

>  <NdssS>
0

>  <NddssS>
0

>  <NsCl>
0

>  <NsBr>
0

>  <NsI>
0

>  <fragCpx>
331.09

>  <fMF>
0.44

>  <nHBAcc>
6

>  <nHBDon>
2

>  <Kier1>
26.6

>  <Kier2>
10.64

>  <Lipinski>
1

>  <GhoseFilter>
0

>  <FilterItLogS>
-4.26

>  <VMcGowan>
351.43

>  <LabuteASA>
206.57

>  <PEOE_VSA1>
20.06

>  <PEOE_VSA2>
14.38

>  <PEOE_VSA3>
4.79

>  <PEOE_VSA4>
0

>  <PEOE_VSA5>
11.76

>  <PEOE_VSA6>
36.4

>  <PEOE_VSA7>
61.93

>  <PEOE_VSA8>
4.75

>  <PEOE_VSA9>
0

>  <PEOE_VSA10>
23.21

>  <PEOE_VSA11>
5.92

>  <PEOE_VSA12>
11.81

>  <PEOE_VSA13>
0

>  <SMR_VSA1>
29.02

>  <SMR_VSA2>
0

>  <SMR_VSA3>
10.22

>  <SMR_VSA4>
0

>  <SMR_VSA5>
61.23

>  <SMR_VSA6>
0

>  <SMR_VSA7>
65.22

>  <SMR_VSA8>
0

>  <SMR_VSA9>
5.75

>  <SlogP_VSA1>
10.05

>  <SlogP_VSA2>
55.96

>  <SlogP_VSA3>
32.02

>  <SlogP_VSA4>
0

>  <SlogP_VSA5>
42.88

>  <SlogP_VSA6>
48.53

>  <SlogP_VSA7>
0

>  <SlogP_VSA8>
0

>  <SlogP_VSA9>
0

>  <SlogP_VSA10>
0

>  <SlogP_VSA11>
5.75

>  <EState_VSA1>
51.88

>  <EState_VSA2>
0

>  <EState_VSA3>
11.31

>  <EState_VSA4>
24.83

>  <EState_VSA5>
22.23

>  <EState_VSA6>
50.25

>  <EState_VSA7>
12.13

>  <EState_VSA8>
5.32

>  <EState_VSA9>
4.74

>  <EState_VSA10>
24.28

>  <VSA_EState1>
4.92

>  <VSA_EState2>
52.49

>  <VSA_EState3>
11.8

>  <VSA_EState4>
2.83

>  <VSA_EState5>
-3.83

>  <VSA_EState6>
12.19

>  <VSA_EState7>
2.99

>  <VSA_EState8>
3.53

>  <VSA_EState9>
0

>  <apol>
70.67

>  <bpol>
36.03

>  <nRing>
5

>  <nHRing>
2

>  <naRing>
2

>  <naHRing>
0

>  <nARing 2>
3

>  <nAHRing 2>
2

>  <nFRing>
2

>  <nFHRing>
1

>  <nFaRing>
0

>  <nFaHRing>
0

>  <nFARing 2>
2

>  <nFAHRing 2>
1

>  <nRot>
6

>  <SLogP>
2.5

>  <SMR>
128.94

>  <TopoPSA(NO)>
113.01

>  <TopoPSA>
138.31

>  <JGI1>
0.21

>  <JGI2>
0.08

>  <JGI3>
0.08

>  <JGI4>
0.04

>  <JGI5>
0.02

>  <Diameter>
15

>  <Radius>
8

>  <TMWC10>
154.63

>  <TSRW10>
88.77

>  <MW>
494.15

>  <AMW>
8.1

>  <WPath>
3780

>  <WPol>
58

>  <Zagreb1>
196

>  <Zagreb2>
239

>  <mZagreb2>
7.4

>  <yes>


>  <nAR-cont>
0.691115

>  <nHA-cont>
0.523063577

>  <MWHBN>
0.359882383

>  <MWHBN-cont>
0.632870712

>  <TPSA-cont>
0

>  <pka_cont>
0.97

>  <yes.1>


>  <BBB_SCORE>
2.648484645

>  <MMFF94 Energy>
93.813

$$$$
Compound 1003
Actelion Java MolfileCreator 2.0

  0  0  0  0  0  0              0 V3000
M  V30 BEGIN CTAB
M  V30 COUNTS 54 57 0 0 0
M  V30 BEGIN ATOM
M  V30 1 S 0.0 -2.7727 1.3041 0
M  V30 2 C -0.2539 -4.4482 0.5231 0
M  V30 3 C 1.7916 -2.679 0.892 0 CFG=1
M  V30 4 C 1.1518 -5.0 0.1696 0 CFG=1
M  V30 5 C -1.0762 -5.2979 1.4979 0
M  V30 6 C -1.0847 -4.2274 -0.7537 0
M  V30 7 N 1.9985 -3.8309 0.0198 0
M  V30 8 C 2.2147 -1.7833 -0.3074 0 CFG=1
M  V30 9 C 1.7257 -5.9743 1.2019 0
M  V30 10 C 2.1699 -3.1074 -1.1132 0
M  V30 11 N 1.2627 -0.7247 -0.7418 0
M  V30 12 O 1.2896 -7.0913 1.4408 0
M  V30 13 O 2.788 -5.5165 1.896 0
M  V30 14 O 2.1346 -3.43 -2.2771 0
M  V30 15 C 1.1642 0.4631 -0.0415 0
M  V30 16 O 1.903 0.7045 0.911 0
M  V30 17 C 0.1284 1.4416 -0.5837 0
M  V30 18 C 0.79 2.4348 -1.5351 0
M  V30 19 C -0.6853 2.0844 0.5277 0
M  V30 20 C 0.3674 2.5228 -2.8712 0
M  V30 21 C 1.8201 3.2824 -1.0944 0
M  V30 22 O -0.9002 1.574 1.6207 0
M  V30 23 O -1.2519 3.279 0.0737 0
M  V30 24 C 0.9648 3.4338 -3.7441 0
M  V30 25 C 2.4147 4.1908 -1.9708 0
M  V30 26 C -2.0555 4.004 0.9653 0
M  V30 27 C 1.9876 4.2661 -3.2945 0
M  V30 28 C -1.7186 5.3403 1.1747 0
M  V30 29 C -3.1934 3.4485 1.5477 0
M  V30 30 C -2.5142 6.1238 2.0098 0
M  V30 31 C -3.9847 4.2367 2.3836 0
M  V30 32 C -3.6445 5.5714 2.6159 0
M  V30 33 H 2.4645 -2.6574 1.7537 0
M  V30 34 H 1.1413 -5.5353 -0.7878 0
M  V30 35 H -0.5851 -5.4086 2.4713 0
M  V30 36 H -1.2485 -6.3002 1.0894 0
M  V30 37 H -2.0636 -4.8568 1.6829 0
M  V30 38 H -0.5887 -3.5624 -1.4683 0
M  V30 39 H -1.2597 -5.1812 -1.2651 0
M  V30 40 H -2.0679 -3.7964 -0.5289 0
M  V30 41 H 3.2368 -1.3901 -0.2348 0
M  V30 42 H 0.6901 -0.8769 -1.5647 0
M  V30 43 H 3.023 -6.253 2.4991 0
M  V30 44 H -0.6088 0.8578 -1.1532 0
M  V30 45 H -0.4338 1.8903 -3.2471 0
M  V30 46 H 2.1724 3.241 -0.0638 0
M  V30 47 H 0.6308 3.4969 -4.7769 0
M  V30 48 H 3.2133 4.8396 -1.6192 0
M  V30 49 H 2.4518 4.9748 -3.9755 0
M  V30 50 H -0.8436 5.7677 0.6939 0
M  V30 51 H -3.4635 2.4127 1.3673 0
M  V30 52 H -2.2557 7.1643 2.1881 0
M  V30 53 H -4.8662 3.8106 2.8558 0
M  V30 54 H -4.2627 6.1821 3.2694 0
M  V30 END ATOM
M  V30 BEGIN BOND
M  V30 1 1 1 2
M  V30 2 1 1 3
M  V30 3 1 2 4
M  V30 4 1 2 5
M  V30 5 1 2 6
M  V30 6 1 3 7
M  V30 7 1 3 8
M  V30 8 1 4 9
M  V30 9 1 7 10
M  V30 10 1 8 11
M  V30 11 2 9 12
M  V30 12 1 9 13
M  V30 13 2 10 14
M  V30 14 1 11 15
M  V30 15 2 15 16
M  V30 16 1 15 17
M  V30 17 1 17 18
M  V30 18 1 17 19
M  V30 19 2 18 20
M  V30 20 1 18 21
M  V30 21 2 19 22
M  V30 22 1 19 23
M  V30 23 1 20 24
M  V30 24 2 21 25
M  V30 25 1 23 26
M  V30 26 2 24 27
M  V30 27 2 26 28
M  V30 28 1 26 29
M  V30 29 1 28 30
M  V30 30 2 29 31
M  V30 31 2 30 32
M  V30 32 1 4 7
M  V30 33 1 8 10
M  V30 34 1 25 27
M  V30 35 1 31 32
M  V30 36 1 3 33
M  V30 37 1 4 34
M  V30 38 1 5 35
M  V30 39 1 5 36
M  V30 40 1 5 37
M  V30 41 1 6 38
M  V30 42 1 6 39
M  V30 43 1 6 40
M  V30 44 1 8 41
M  V30 45 1 11 42
M  V30 46 1 13 43
M  V30 47 1 17 44
M  V30 48 1 20 45
M  V30 49 1 21 46
M  V30 50 1 24 47
M  V30 51 1 25 48
M  V30 52 1 27 49
M  V30 53 1 28 50
M  V30 54 1 29 51
M  V30 55 1 30 52
M  V30 56 1 31 53
M  V30 57 1 32 54
M  V30 END BOND
M  V30 BEGIN COLLECTION
M  V30 MDLV30/STEABS ATOMS=(3 3 4 8)
M  V30 END COLLECTION
M  V30 END CTAB
M  END
>  <Column 1>
1197

>  <level_0>
1338

>  <index>
1338

>  <Unnamed: 0>
1338

>  <NO.>
1350

>  <Name>
carfecillin

>  <IUPAC_name>
(2s-5r-6r)-3-3-dimethyl-7-oxo-6-[(3-oxo-3-phenoxy-2-phenylpropanoyl)amino]-4-thia-1-azabicyclo[3.2.0]heptane-2-carboxylic acid

>  <SMILES>
CC1(C)S[C@@H]2[C@H](NC(=O)C(C(=O)Oc3ccccc3)c3ccccc3)C(=O)N2[C@H]1C(=O)O

>  <CID>
33672

>  <logBB>


>  <BBB+/BBB->
BBB-

>  <Inchi>
InChI=1S/C23H22N2O6S/c1-23(2)17(21(28)29)25-19(27)16(20(25)32-23)24-18(26)15(13-9-5-3-6-10-13)22(30)31-14-11-7-4-8-12-14/h3-12-15-17-20H-1-2H3-(H-24-26)(H-28-29)/t15?-16--17+-20-/m1/s1

>  <threshold>
-1

>  <reference>
R1|R6|R27|R30|

>  <group>
B

>  <Class>
-1

>  <ABC>
25.19

>  <ABCGG>
20.73

>  <nAcid>
1

>  <nBase>
0

>  <nAromAtom>
12

>  <nAromBond>
12

>  <nAtom>
54

>  <nHeavyAtom>
32

>  <nSpiro>
0

>  <nBridgehead>
0

>  <nHetero>
9

>  <nN>
2

>  <nO>
6

>  <nF>
0

>  <BalabanJ>
1.43

>  <BertzCT>
1058.67

>  <nBonds>
57

>  <nBondsO>
35

>  <nBondsS>
41

>  <nBondsD>
4

>  <nBondsT>
0

>  <nBondsA>
12

>  <nBondsM>
16

>  <nBondsKS>
47

>  <nBondsKD>
10

>  <RNCG>
0.14

>  <RPCG>
0.1

>  <FCSP3>
0.3

>  <SZ>
39.67

>  <Sm>
37.84

>  <Sv>
35.95

>  <Sse>
55.15

>  <Sp>
37.72

>  <Si>
60.33

>  <MZ>
0.73

>  <Mm>
0.7

>  <Mv>
0.67

>  <Mse>
1.02

>  <Mp>
0.7

>  <Mi>
1.12

>  <NsCH3>
2

>  <NdCH2>
0

>  <NssCH2>
0

>  <NtCH>
0

>  <NdsCH>
0

>  <NaaCH>
10

>  <NsssCH>
4

>  <NddC>
0

>  <NtsC>
0

>  <NdssC>
4

>  <NaasC>
2

>  <NaaaC>
0

>  <NssssC>
1

>  <NsNH3>
0

>  <NsNH2>
0

>  <NssNH2>
0

>  <NdNH>
0

>  <NssNH>
1

>  <NaaNH>
0

>  <NtN>
0

>  <NsssNH>
0

>  <NdsN>
0

>  <NaaN>
0

>  <NsssN>
1

>  <NddsN>
0

>  <NaasN>
0

>  <NssssN>
0

>  <NsOH>
1

>  <NdO>
4

>  <NssO>
1

>  <NaaO>
0

>  <NsF>
0

>  <NsSiH3>
0

>  <NssSiH2>
0

>  <NsssSiH>
0

>  <NssssSi>
0

>  <NsPH2>
0

>  <NssPH>
0

>  <NsssP>
0

>  <NdsssP>
0

>  <NsssssP>
0

>  <NsSH>
0

>  <NdS>
0

>  <NssS>
1

>  <NaaS>
0

>  <NdssS>
0

>  <NddssS>
0

>  <NsCl>
0

>  <NsBr>
0

>  <NsI>
0

>  <fragCpx>
233.09

>  <fMF>
0.44

>  <nHBAcc>
6

>  <nHBDon>
2

>  <Kier1>
25.1

>  <Kier2>
10.32

>  <Lipinski>
1

>  <GhoseFilter>
1

>  <FilterItLogS>
-3.17

>  <VMcGowan>
320.02

>  <LabuteASA>
188.48

>  <PEOE_VSA1>
20.06

>  <PEOE_VSA2>
14.38

>  <PEOE_VSA3>
4.79

>  <PEOE_VSA4>
0

>  <PEOE_VSA5>
11.76

>  <PEOE_VSA6>
48.53

>  <PEOE_VSA7>
31.54

>  <PEOE_VSA8>
4.75

>  <PEOE_VSA9>
0

>  <PEOE_VSA10>
23.21

>  <PEOE_VSA11>
5.92

>  <PEOE_VSA12>
11.81

>  <PEOE_VSA13>
0

>  <SMR_VSA1>
29.02

>  <SMR_VSA2>
0

>  <SMR_VSA3>
10.22

>  <SMR_VSA4>
0

>  <SMR_VSA5>
41.97

>  <SMR_VSA6>
0

>  <SMR_VSA7>
66.23

>  <SMR_VSA8>
0

>  <SMR_VSA9>
5.75

>  <SlogP_VSA1>
10.05

>  <SlogP_VSA2>
55.96

>  <SlogP_VSA3>
19.18

>  <SlogP_VSA4>
0

>  <SlogP_VSA5>
25.33

>  <SlogP_VSA6>
60.66

>  <SlogP_VSA7>
0

>  <SlogP_VSA8>
0

>  <SlogP_VSA9>
0

>  <SlogP_VSA10>
0

>  <SlogP_VSA11>
5.75

>  <EState_VSA1>
51.88

>  <EState_VSA2>
0

>  <EState_VSA3>
11.31

>  <EState_VSA4>
0

>  <EState_VSA5>
16.66

>  <EState_VSA6>
74.51

>  <EState_VSA7>
0

>  <EState_VSA8>
5.32

>  <EState_VSA9>
4.74

>  <EState_VSA10>
24.28

>  <VSA_EState1>
4.69

>  <VSA_EState2>
51.81

>  <VSA_EState3>
11.7

>  <VSA_EState4>
0.43

>  <VSA_EState5>
-3.99

>  <VSA_EState6>
14.96

>  <VSA_EState7>
0

>  <VSA_EState8>
3.51

>  <VSA_EState9>
0

>  <apol>
62.99

>  <bpol>
32.02

>  <nRing>
4

>  <nHRing>
2

>  <naRing>
2

>  <naHRing>
0

>  <nARing 2>
2

>  <nAHRing 2>
2

>  <nFRing>
1

>  <nFHRing>
1

>  <nFaRing>
0

>  <nFaHRing>
0

>  <nFARing 2>
1

>  <nFAHRing 2>
1

>  <nRot>
6

>  <SLogP>
2.01

>  <SMR>
116.92

>  <TopoPSA(NO)>
113.01

>  <TopoPSA>
138.31

>  <JGI1>
0.2

>  <JGI2>
0.08

>  <JGI3>
0.09

>  <JGI4>
0.05

>  <JGI5>
0.02

>  <Diameter>
14

>  <Radius>
7

>  <TMWC10>
146.43

>  <TSRW10>
83.68

>  <MW>
454.12

>  <AMW>
8.41

>  <WPath>
2932

>  <WPol>
52

>  <Zagreb1>
174

>  <Zagreb2>
210

>  <mZagreb2>
6.88

>  <yes>


>  <nAR-cont>
1

>  <nHA-cont>
0.658856097

>  <MWHBN>
0.375408993

>  <MWHBN-cont>
0.572786157

>  <TPSA-cont>
0

>  <pka_cont>
0.97

>  <yes.1>


>  <BBB_SCORE>
3.003035332

>  <MMFF94 Energy>
87.564

$$$$
Compound 1004
Actelion Java MolfileCreator 2.0

  0  0  0  0  0  0              0 V3000
M  V30 BEGIN CTAB
M  V30 COUNTS 52 55 0 0 0
M  V30 BEGIN ATOM
M  V30 1 S -0.1626 2.3608 0.244 0
M  V30 2 C -1.5841 3.1529 -0.6688 0
M  V30 3 C -1.1759 1.8573 1.6981 0 CFG=1
M  V30 4 C -2.7673 3.2415 0.3298 0 CFG=1
M  V30 5 C -1.0905 4.489 -1.2341 0
M  V30 6 C -1.9361 2.2251 -1.8455 0
M  V30 7 N -2.5398 2.1785 1.291 0
M  V30 8 C -1.6283 0.371 1.7958 0 CFG=1
M  V30 9 C -2.9069 4.5989 1.0246 0
M  V30 10 C -2.9488 0.8922 1.1705 0
M  V30 11 N -0.8819 -0.6294 0.9901 0
M  V30 12 O -3.222 5.6459 0.4774 0
M  V30 13 O -2.6322 4.5997 2.3454 0
M  V30 14 O -3.9173 0.4132 0.6296 0
M  V30 15 C 0.4053 -1.0015 1.3367 0
M  V30 16 O 0.9466 -0.5481 2.3442 0
M  V30 17 C 1.0905 -1.9636 0.333 0
M  V30 18 O 2.4662 -2.206 0.6391 0
M  V30 19 C 0.3859 -3.3142 0.3169 0
M  V30 20 C 3.3094 -1.4883 -0.1636 0
M  V30 21 C -0.2093 -3.7927 -0.8609 0
M  V30 22 C 0.3218 -4.1027 1.4772 0
M  V30 23 C 3.3909 -0.0983 -0.0896 0
M  V30 24 C 4.1372 -2.2002 -1.0291 0
M  V30 25 C -0.8678 -5.0234 -0.8709 0
M  V30 26 C -0.3371 -5.3323 1.4632 0
M  V30 27 C 4.2772 0.5855 -0.9223 0
M  V30 28 C 5.023 -1.5146 -1.8602 0
M  V30 29 C -0.9339 -5.7904 0.2907 0
M  V30 30 C 5.0887 -0.1215 -1.8105 0
M  V30 31 H -0.8839 2.3201 2.645 0
M  V30 32 H -3.7256 3.0493 -0.1684 0
M  V30 33 H -1.8949 5.0037 -1.7719 0
M  V30 34 H -0.7215 5.162 -0.452 0
M  V30 35 H -0.2713 4.3456 -1.9493 0
M  V30 36 H -2.2253 1.2211 -1.5185 0
M  V30 37 H -2.7773 2.6352 -2.4167 0
M  V30 38 H -1.0957 2.116 -2.5415 0
M  V30 39 H -1.7776 0.0156 2.8231 0
M  V30 40 H -1.3282 -1.0742 0.1944 0
M  V30 41 H -2.7742 5.5288 2.6248 0
M  V30 42 H 0.9809 -1.5069 -0.6628 0
M  V30 43 H -0.1592 -3.2167 -1.7826 0
M  V30 44 H 0.7939 -3.7623 2.3983 0
M  V30 45 H 2.7891 0.4591 0.6226 0
M  V30 46 H 4.0896 -3.2852 -1.0572 0
M  V30 47 H -1.3254 -5.3883 -1.7871 0
M  V30 48 H -0.3796 -5.9347 2.3671 0
M  V30 49 H 4.3431 1.6692 -0.8683 0
M  V30 50 H 5.6664 -2.0662 -2.5403 0
M  V30 51 H -1.4443 -6.7501 0.2807 0
M  V30 52 H 5.7829 0.4128 -2.454 0
M  V30 END ATOM
M  V30 BEGIN BOND
M  V30 1 1 1 2
M  V30 2 1 1 3
M  V30 3 1 2 4
M  V30 4 1 2 5
M  V30 5 1 2 6
M  V30 6 1 3 7
M  V30 7 1 3 8
M  V30 8 1 4 9
M  V30 9 1 7 10
M  V30 10 1 8 11
M  V30 11 2 9 12
M  V30 12 1 9 13
M  V30 13 2 10 14
M  V30 14 1 11 15
M  V30 15 2 15 16
M  V30 16 1 15 17
M  V30 17 1 17 18
M  V30 18 1 17 19
M  V30 19 1 18 20
M  V30 20 2 19 21
M  V30 21 1 19 22
M  V30 22 2 20 23
M  V30 23 1 20 24
M  V30 24 1 21 25
M  V30 25 2 22 26
M  V30 26 1 23 27
M  V30 27 2 24 28
M  V30 28 2 25 29
M  V30 29 2 27 30
M  V30 30 1 4 7
M  V30 31 1 8 10
M  V30 32 1 26 29
M  V30 33 1 28 30
M  V30 34 1 3 31
M  V30 35 1 4 32
M  V30 36 1 5 33
M  V30 37 1 5 34
M  V30 38 1 5 35
M  V30 39 1 6 36
M  V30 40 1 6 37
M  V30 41 1 6 38
M  V30 42 1 8 39
M  V30 43 1 11 40
M  V30 44 1 13 41
M  V30 45 1 17 42
M  V30 46 1 21 43
M  V30 47 1 22 44
M  V30 48 1 23 45
M  V30 49 1 24 46
M  V30 50 1 25 47
M  V30 51 1 26 48
M  V30 52 1 27 49
M  V30 53 1 28 50
M  V30 54 1 29 51
M  V30 55 1 30 52
M  V30 END BOND
M  V30 BEGIN COLLECTION
M  V30 MDLV30/STEABS ATOMS=(3 3 4 8)
M  V30 END COLLECTION
M  V30 END CTAB
M  END
>  <Column 1>
1198

>  <level_0>
1339

>  <index>
1339

>  <Unnamed: 0>
1339

>  <NO.>
1351

>  <Name>
fenbenicillin

>  <IUPAC_name>
(2s-5r-6r)-3-3-dimethyl-7-oxo-6-[(2-phenoxy-2-phenylacetyl)amino]-4-thia-1-azabicyclo[3.2.0]heptane-2-carboxylic acid

>  <SMILES>
CC1(C)S[C@@H]2[C@H](NC(=O)C(Oc3ccccc3)c3ccccc3)C(=O)N2[C@H]1C(=O)O

>  <CID>
71107

>  <logBB>


>  <BBB+/BBB->
BBB-

>  <Inchi>
InChI=1S/C22H22N2O5S/c1-22(2)17(21(27)28)24-19(26)15(20(24)30-22)23-18(25)16(13-9-5-3-6-10-13)29-14-11-7-4-8-12-14/h3-12-15-17-20H-1-2H3-(H-23-25)(H-27-28)/t15--16?-17+-20-/m1/s1

>  <threshold>
-1

>  <reference>
R1|R6|R27|R30|

>  <group>
B

>  <Class>
-1

>  <ABC>
23.7

>  <ABCGG>
19.42

>  <nAcid>
1

>  <nBase>
0

>  <nAromAtom>
12

>  <nAromBond>
12

>  <nAtom>
52

>  <nHeavyAtom>
30

>  <nSpiro>
0

>  <nBridgehead>
0

>  <nHetero>
8

>  <nN>
2

>  <nO>
5

>  <nF>
0

>  <BalabanJ>
1.42

>  <BertzCT>
966.01

>  <nBonds>
55

>  <nBondsO>
33

>  <nBondsS>
40

>  <nBondsD>
3

>  <nBondsT>
0

>  <nBondsA>
12

>  <nBondsM>
15

>  <nBondsKS>
46

>  <nBondsKD>
9

>  <RNCG>
0.15

>  <RPCG>
0.1

>  <FCSP3>
0.32

>  <SZ>
37.33

>  <Sm>
35.51

>  <Sv>
34.24

>  <Sse>
52.82

>  <Sp>
36.24

>  <Si>
58.12

>  <MZ>
0.72

>  <Mm>
0.68

>  <Mv>
0.66

>  <Mse>
1.02

>  <Mp>
0.7

>  <Mi>
1.12

>  <NsCH3>
2

>  <NdCH2>
0

>  <NssCH2>
0

>  <NtCH>
0

>  <NdsCH>
0

>  <NaaCH>
10

>  <NsssCH>
4

>  <NddC>
0

>  <NtsC>
0

>  <NdssC>
3

>  <NaasC>
2

>  <NaaaC>
0

>  <NssssC>
1

>  <NsNH3>
0

>  <NsNH2>
0

>  <NssNH2>
0

>  <NdNH>
0

>  <NssNH>
1

>  <NaaNH>
0

>  <NtN>
0

>  <NsssNH>
0

>  <NdsN>
0

>  <NaaN>
0

>  <NsssN>
1

>  <NddsN>
0

>  <NaasN>
0

>  <NssssN>
0

>  <NsOH>
1

>  <NdO>
3

>  <NssO>
1

>  <NaaO>
0

>  <NsF>
0

>  <NsSiH3>
0

>  <NssSiH2>
0

>  <NsssSiH>
0

>  <NssssSi>
0

>  <NsPH2>
0

>  <NssPH>
0

>  <NsssP>
0

>  <NdsssP>
0

>  <NsssssP>
0

>  <NsSH>
0

>  <NdS>
0

>  <NssS>
1

>  <NaaS>
0

>  <NdssS>
0

>  <NddssS>
0

>  <NsCl>
0

>  <NsBr>
0

>  <NsI>
0

>  <fragCpx>
219.08

>  <fMF>
0.44

>  <nHBAcc>
5

>  <nHBDon>
2

>  <Kier1>
23.17

>  <Kier2>
9.47

>  <Lipinski>
1

>  <GhoseFilter>
1

>  <FilterItLogS>
-3.25

>  <VMcGowan>
304.36

>  <LabuteASA>
177.95

>  <PEOE_VSA1>
20.06

>  <PEOE_VSA2>
9.59

>  <PEOE_VSA3>
4.79

>  <PEOE_VSA4>
0

>  <PEOE_VSA5>
11.76

>  <PEOE_VSA6>
48.53

>  <PEOE_VSA7>
25.98

>  <PEOE_VSA8>
10.31

>  <PEOE_VSA9>
0

>  <PEOE_VSA10>
23.21

>  <PEOE_VSA11>
0

>  <PEOE_VSA12>
12.01

>  <PEOE_VSA13>
5.91

>  <SMR_VSA1>
24.23

>  <SMR_VSA2>
0

>  <SMR_VSA3>
10.22

>  <SMR_VSA4>
0

>  <SMR_VSA5>
42.16

>  <SMR_VSA6>
0

>  <SMR_VSA7>
66.23

>  <SMR_VSA8>
0

>  <SMR_VSA9>
5.75

>  <SlogP_VSA1>
10.05

>  <SlogP_VSA2>
49.99

>  <SlogP_VSA3>
14.38

>  <SlogP_VSA4>
0

>  <SlogP_VSA5>
25.51

>  <SlogP_VSA6>
60.66

>  <SlogP_VSA7>
0

>  <SlogP_VSA8>
0

>  <SlogP_VSA9>
0

>  <SlogP_VSA10>
0

>  <SlogP_VSA11>
5.75

>  <EState_VSA1>
40.19

>  <EState_VSA2>
5.91

>  <EState_VSA3>
11.31

>  <EState_VSA4>
0

>  <EState_VSA5>
16.66

>  <EState_VSA6>
38.11

>  <EState_VSA7>
36.4

>  <EState_VSA8>
5.32

>  <EState_VSA9>
4.74

>  <EState_VSA10>
19.49

>  <VSA_EState1>
5.29

>  <VSA_EState2>
38.84

>  <VSA_EState3>
11.92

>  <VSA_EState4>
0.66

>  <VSA_EState5>
-1.33

>  <VSA_EState6>
16.33

>  <VSA_EState7>
-0.94

>  <VSA_EState8>
3.6

>  <VSA_EState9>
0

>  <apol>
60.52

>  <bpol>
31.15

>  <nRing>
4

>  <nHRing>
2

>  <naRing>
2

>  <naHRing>
0

>  <nARing 2>
2

>  <nAHRing 2>
2

>  <nFRing>
1

>  <nFHRing>
1

>  <nFaRing>
0

>  <nFaHRing>
0

>  <nFARing 2>
1

>  <nFAHRing 2>
1

>  <nRot>
6

>  <SLogP>
2.44

>  <SMR>
111.91

>  <TopoPSA(NO)>
95.94

>  <TopoPSA>
121.24

>  <JGI1>
0.2

>  <JGI2>
0.08

>  <JGI3>
0.08

>  <JGI4>
0.05

>  <JGI5>
0.02

>  <Diameter>
13

>  <Radius>
7

>  <TMWC10>
141.92

>  <TSRW10>
81.41

>  <MW>
426.12

>  <AMW>
8.19

>  <WPath>
2460

>  <WPol>
48

>  <Zagreb1>
164

>  <Zagreb2>
198

>  <mZagreb2>
6.43

>  <yes>


>  <nAR-cont>
1

>  <nHA-cont>
0.74523694

>  <MWHBN>
0.339103351

>  <MWHBN-cont>
0.710385665

>  <TPSA-cont>
0

>  <pka_cont>
0.97

>  <yes.1>


>  <BBB_SCORE>
3.295815437

>  <MMFF94 Energy>
109.03

$$$$
Compound 1005
Actelion Java MolfileCreator 2.0

  0  0  0  0  0  0              0 V3000
M  V30 BEGIN CTAB
M  V30 COUNTS 45 47 0 0 0
M  V30 BEGIN ATOM
M  V30 1 S 1.9044 -4.2264 0.5793 0
M  V30 2 O 2.3466 -4.7187 1.8697 0
M  V30 3 O 2.7113 -4.4517 -0.5996 0
M  V30 4 O 0.4466 -4.8846 0.3475 0
M  V30 5 C 1.4995 -2.4841 0.7236 0
M  V30 6 C 0.4607 -2.2708 1.8131 0
M  V30 7 C 1.128 -1.9156 -0.6264 0
M  V30 8 C 0.8809 -2.0588 3.1381 0
M  V30 9 C -0.9181 -2.2925 1.5474 0
M  V30 10 O 0.4062 -2.4702 -1.4506 0
M  V30 11 N 1.6166 -0.6404 -0.8649 0
M  V30 12 C -0.0493 -1.8648 4.1606 0
M  V30 13 C -1.8458 -2.0946 2.5717 0
M  V30 14 C 1.2989 0.0698 -2.1366 0 CFG=2
M  V30 15 C -1.412 -1.88 3.8768 0
M  V30 16 C 1.7078 1.5651 -2.1845 0
M  V30 17 C -0.1454 0.6174 -2.3258 0 CFG=2
M  V30 18 O 2.6806 2.2192 -1.8916 0
M  V30 19 N 0.449 1.936 -2.5205 0
M  V30 20 S -1.1943 0.8344 -0.8298 0
M  V30 21 C -0.2522 3.1139 -2.0432 0 CFG=2
M  V30 22 C -0.9351 2.6779 -0.7209 0
M  V30 23 C -1.2162 3.6543 -3.103 0
M  V30 24 C -2.2928 3.3256 -0.4292 0
M  V30 25 C -0.0054 2.9314 0.4794 0
M  V30 26 O -1.8448 4.6997 -3.0218 0
M  V30 27 O -1.3699 2.8729 -4.1917 0
M  V30 28 H 0.1572 -5.305 1.1855 0
M  V30 29 H 2.4413 -2.0121 1.0355 0
M  V30 30 H 1.9398 -2.0534 3.3933 0
M  V30 31 H -1.2959 -2.4631 0.539 0
M  V30 32 H 2.1645 -0.1609 -0.1575 0
M  V30 33 H 0.2899 -1.7047 5.1813 0
M  V30 34 H -2.91 -2.1065 2.3474 0
M  V30 35 H 1.6837 -0.4852 -3.0011 0
M  V30 36 H -2.1365 -1.727 4.6728 0
M  V30 37 H -0.6734 0.2447 -3.2079 0
M  V30 38 H 0.4893 3.903 -1.8682 0
M  V30 39 H -2.1977 4.4158 -0.3687 0
M  V30 40 H -3.0396 3.093 -1.1965 0
M  V30 41 H -2.7017 2.9887 0.5313 0
M  V30 42 H 0.9628 2.4314 0.3756 0
M  V30 43 H -0.4542 2.5887 1.4196 0
M  V30 44 H 0.1932 4.0041 0.5887 0
M  V30 45 H -2.0028 3.363 -4.758 0
M  V30 END ATOM
M  V30 BEGIN BOND
M  V30 1 2 1 2
M  V30 2 2 1 3
M  V30 3 1 1 4
M  V30 4 1 1 5
M  V30 5 1 5 6
M  V30 6 1 5 7
M  V30 7 2 6 8
M  V30 8 1 6 9
M  V30 9 2 7 10
M  V30 10 1 7 11
M  V30 11 1 8 12
M  V30 12 2 9 13
M  V30 13 1 11 14
M  V30 14 2 12 15
M  V30 15 1 14 16
M  V30 16 1 14 17
M  V30 17 2 16 18
M  V30 18 1 16 19
M  V30 19 1 17 20
M  V30 20 1 19 21
M  V30 21 1 20 22
M  V30 22 1 21 23
M  V30 23 1 22 24
M  V30 24 1 22 25
M  V30 25 2 23 26
M  V30 26 1 23 27
M  V30 27 1 13 15
M  V30 28 1 17 19
M  V30 29 1 21 22
M  V30 30 1 4 28
M  V30 31 1 5 29
M  V30 32 1 8 30
M  V30 33 1 9 31
M  V30 34 1 11 32
M  V30 35 1 12 33
M  V30 36 1 13 34
M  V30 37 1 14 35
M  V30 38 1 15 36
M  V30 39 1 17 37
M  V30 40 1 21 38
M  V30 41 1 24 39
M  V30 42 1 24 40
M  V30 43 1 24 41
M  V30 44 1 25 42
M  V30 45 1 25 43
M  V30 46 1 25 44
M  V30 47 1 27 45
M  V30 END BOND
M  V30 BEGIN COLLECTION
M  V30 MDLV30/STEABS ATOMS=(3 14 17 21)
M  V30 END COLLECTION
M  V30 END CTAB
M  END
>  <Column 1>
1199

>  <level_0>
1340

>  <index>
1340

>  <Unnamed: 0>
1340

>  <NO.>
1352

>  <Name>
sulbenicillin

>  <IUPAC_name>
(2s-5r-6r)-3-3-dimethyl-7-oxo-6-[(2-phenyl-2-sulfoacetyl)amino]-4-thia-1-azabicyclo[3.2.0]heptane-2-carboxylic acid

>  <SMILES>
CC1(C)S[C@@H]2[C@H](NC(=O)C(c3ccccc3)S(=O)(=O)O)C(=O)N2[C@H]1C(=O)O

>  <CID>
39031

>  <logBB>


>  <BBB+/BBB->
BBB-

>  <Inchi>
InChI=1S/C16H18N2O7S2/c1-16(2)11(15(21)22)18-13(20)9(14(18)26-16)17-12(19)10(27(23-24)25)8-6-4-3-5-7-8/h3-7-9-11-14H-1-2H3-(H-17-19)(H-21-22)(H-23-24-25)/t9--10?-11+-14-/m1/s1

>  <threshold>
-1

>  <reference>
R1|R27|R30|

>  <group>
B

>  <Class>
-1

>  <ABC>
21.29

>  <ABCGG>
18.61

>  <nAcid>
2

>  <nBase>
0

>  <nAromAtom>
6

>  <nAromBond>
6

>  <nAtom>
45

>  <nHeavyAtom>
27

>  <nSpiro>
0

>  <nBridgehead>
0

>  <nHetero>
11

>  <nN>
2

>  <nO>
7

>  <nF>
0

>  <BalabanJ>
1.71

>  <BertzCT>
900.6

>  <nBonds>
47

>  <nBondsO>
29

>  <nBondsS>
36

>  <nBondsD>
5

>  <nBondsT>
0

>  <nBondsA>
6

>  <nBondsM>
11

>  <nBondsKS>
39

>  <nBondsKD>
8

>  <RNCG>
0.15

>  <RPCG>
0.1

>  <FCSP3>
0.44

>  <SZ>
36

>  <Sm>
34.51

>  <Sv>
29.77

>  <Sse>
46.79

>  <Sp>
31.34

>  <Si>
50.62

>  <MZ>
0.8

>  <Mm>
0.77

>  <Mv>
0.66

>  <Mse>
1.04

>  <Mp>
0.7

>  <Mi>
1.13

>  <NsCH3>
2

>  <NdCH2>
0

>  <NssCH2>
0

>  <NtCH>
0

>  <NdsCH>
0

>  <NaaCH>
5

>  <NsssCH>
4

>  <NddC>
0

>  <NtsC>
0

>  <NdssC>
3

>  <NaasC>
1

>  <NaaaC>
0

>  <NssssC>
1

>  <NsNH3>
0

>  <NsNH2>
0

>  <NssNH2>
0

>  <NdNH>
0

>  <NssNH>
1

>  <NaaNH>
0

>  <NtN>
0

>  <NsssNH>
0

>  <NdsN>
0

>  <NaaN>
0

>  <NsssN>
1

>  <NddsN>
0

>  <NaasN>
0

>  <NssssN>
0

>  <NsOH>
2

>  <NdO>
5

>  <NssO>
0

>  <NaaO>
0

>  <NsF>
0

>  <NsSiH3>
0

>  <NssSiH2>
0

>  <NsssSiH>
0

>  <NssssSi>
0

>  <NsPH2>
0

>  <NssPH>
0

>  <NsssP>
0

>  <NdsssP>
0

>  <NsssssP>
0

>  <NsSH>
0

>  <NdS>
0

>  <NssS>
1

>  <NaaS>
0

>  <NdssS>
0

>  <NddssS>
1

>  <NsCl>
0

>  <NsBr>
0

>  <NsI>
0

>  <fragCpx>
139.11

>  <fMF>
0.36

>  <nHBAcc>
6

>  <nHBDon>
3

>  <Kier1>
21.7

>  <Kier2>
7.68

>  <Lipinski>
1

>  <GhoseFilter>
1

>  <FilterItLogS>
-1.11

>  <VMcGowan>
271.67

>  <LabuteASA>
159.41

>  <PEOE_VSA1>
15.32

>  <PEOE_VSA2>
14.14

>  <PEOE_VSA3>
4.79

>  <PEOE_VSA4>
8.42

>  <PEOE_VSA5>
11.76

>  <PEOE_VSA6>
30.33

>  <PEOE_VSA7>
19.41

>  <PEOE_VSA8>
4.75

>  <PEOE_VSA9>
0

>  <PEOE_VSA10>
17.46

>  <PEOE_VSA11>
5.25

>  <PEOE_VSA12>
11.81

>  <PEOE_VSA13>
10.12

>  <SMR_VSA1>
32.46

>  <SMR_VSA2>
0

>  <SMR_VSA3>
10.22

>  <SMR_VSA4>
0

>  <SMR_VSA5>
41.3

>  <SMR_VSA6>
0

>  <SMR_VSA7>
35.9

>  <SMR_VSA8>
0

>  <SMR_VSA9>
0

>  <SlogP_VSA1>
5.32

>  <SlogP_VSA2>
62.97

>  <SlogP_VSA3>
24.5

>  <SlogP_VSA4>
0

>  <SlogP_VSA5>
24.66

>  <SlogP_VSA6>
30.33

>  <SlogP_VSA7>
0

>  <SlogP_VSA8>
0

>  <SlogP_VSA9>
0

>  <SlogP_VSA10>
0

>  <SlogP_VSA11>
0

>  <EState_VSA1>
55.36

>  <EState_VSA2>
5.56

>  <EState_VSA3>
0

>  <EState_VSA4>
0

>  <EState_VSA5>
40.93

>  <EState_VSA6>
19.91

>  <EState_VSA7>
0

>  <EState_VSA8>
5.32

>  <EState_VSA9>
0

>  <EState_VSA10>
32.46

>  <VSA_EState1>
32.18

>  <VSA_EState2>
37.65

>  <VSA_EState3>
9.26

>  <VSA_EState4>
0.06

>  <VSA_EState5>
-2.78

>  <VSA_EState6>
5.31

>  <VSA_EState7>
0

>  <VSA_EState8>
3.37

>  <VSA_EState9>
-4.77

>  <apol>
52.34

>  <bpol>
32.06

>  <nRing>
3

>  <nHRing>
2

>  <naRing>
1

>  <naHRing>
0

>  <nARing 2>
2

>  <nAHRing 2>
2

>  <nFRing>
1

>  <nFHRing>
1

>  <nFaRing>
0

>  <nFaHRing>
0

>  <nFARing 2>
1

>  <nFAHRing 2>
1

>  <nRot>
5

>  <SLogP>
0.25

>  <SMR>
96.39

>  <TopoPSA(NO)>
141.08

>  <TopoPSA>
174.76

>  <JGI1>
0.28

>  <JGI2>
0.1

>  <JGI3>
0.11

>  <JGI4>
0.05

>  <JGI5>
0.03

>  <Diameter>
12

>  <Radius>
6

>  <TMWC10>
134.62

>  <TSRW10>
78.16

>  <MW>
414.06

>  <AMW>
9.2

>  <WPath>
1797

>  <WPol>
45

>  <Zagreb1>
150

>  <Zagreb2>
182

>  <mZagreb2>
5.6

>  <yes>


>  <nAR-cont>
1

>  <nHA-cont>
0.860070871

>  <MWHBN>
0.442293819

>  <MWHBN-cont>
0.31384516

>  <TPSA-cont>
0

>  <pka_cont>
0.97

>  <yes.1>


>  <BBB_SCORE>
2.815838611

>  <MMFF94 Energy>
24.264

$$$$
Compound 1006
Actelion Java MolfileCreator 2.0

  0  0  0  0  0  0              0 V3000
M  V30 BEGIN CTAB
M  V30 COUNTS 46 48 0 0 0
M  V30 BEGIN ATOM
M  V30 1 S 1.0534 -2.1078 0.6482 0
M  V30 2 C 2.0449 -2.2901 2.2251 0
M  V30 3 C -0.487 -1.8044 1.6106 0 CFG=1
M  V30 4 C 1.4108 -1.2562 3.1798 0 CFG=1
M  V30 5 C 1.9191 -3.7478 2.6878 0
M  V30 6 C 3.5072 -1.9581 1.9218 0
M  V30 7 N 0.0162 -1.1223 2.7953 0
M  V30 8 C -1.3012 -0.5263 1.2811 0 CFG=1
M  V30 9 C 1.5313 -1.6121 4.6536 0
M  V30 10 C -0.5935 0.0654 2.5402 0
M  V30 11 N -0.9757 0.143 -0.0085 0
M  V30 12 O 0.7383 -2.2525 5.3255 0
M  V30 13 O 2.695 -1.1945 5.1947 0
M  V30 14 O -0.4347 1.1481 3.0522 0
M  V30 15 C -1.844 1.0305 -0.612 0
M  V30 16 O -2.9558 1.2646 -0.1457 0
M  V30 17 C -1.2799 1.7273 -1.8903 0
M  V30 18 N -0.0989 2.5356 -1.4967 0
M  V30 19 C -2.3534 2.6642 -2.4867 0
M  V30 20 C -0.8633 0.676 -2.9407 0
M  V30 21 C -1.9456 3.2787 -3.8257 0
M  V30 22 C -0.4686 1.2875 -4.2866 0
M  V30 23 C -1.5556 2.2047 -4.8344 0
M  V30 24 H -1.0754 -2.6959 1.8455 0
M  V30 25 H 1.8693 -0.2665 3.0458 0
M  V30 26 H 0.8863 -4.018 2.9348 0
M  V30 27 H 2.5271 -3.929 3.5817 0
M  V30 28 H 2.2732 -4.4449 1.919 0
M  V30 29 H 4.1177 -2.0338 2.8286 0
M  V30 30 H 3.6227 -0.9389 1.5351 0
M  V30 31 H 3.9334 -2.6474 1.1837 0
M  V30 32 H -2.38 -0.6592 1.4233 0
M  V30 33 H -0.0763 -0.0369 -0.4411 0
M  V30 34 H 2.6302 -1.46 6.1378 0
M  V30 35 H -0.4065 3.2638 -0.8474 0
M  V30 36 H 0.5656 1.9693 -0.975 0
M  V30 37 H -2.5984 3.4689 -1.7807 0
M  V30 38 H -3.2862 2.1022 -2.6333 0
M  V30 39 H -1.6957 -0.0232 -3.0991 0
M  V30 40 H -0.0259 0.0652 -2.5815 0
M  V30 41 H -1.1083 3.9719 -3.6815 0
M  V30 42 H -2.7781 3.8697 -4.2245 0
M  V30 43 H -0.2705 0.4853 -5.0067 0
M  V30 44 H 0.4663 1.8506 -4.179 0
M  V30 45 H -2.4396 1.6082 -5.0919 0
M  V30 46 H -1.2089 2.6764 -5.7607 0
M  V30 END ATOM
M  V30 BEGIN BOND
M  V30 1 1 1 2
M  V30 2 1 1 3
M  V30 3 1 2 4
M  V30 4 1 2 5
M  V30 5 1 2 6
M  V30 6 1 3 7
M  V30 7 1 3 8
M  V30 8 1 4 9
M  V30 9 1 7 10
M  V30 10 1 8 11
M  V30 11 2 9 12
M  V30 12 1 9 13
M  V30 13 2 10 14
M  V30 14 1 11 15
M  V30 15 2 15 16
M  V30 16 1 15 17
M  V30 17 1 17 18
M  V30 18 1 17 19
M  V30 19 1 17 20
M  V30 20 1 19 21
M  V30 21 1 20 22
M  V30 22 1 21 23
M  V30 23 1 4 7
M  V30 24 1 8 10
M  V30 25 1 22 23
M  V30 26 1 3 24
M  V30 27 1 4 25
M  V30 28 1 5 26
M  V30 29 1 5 27
M  V30 30 1 5 28
M  V30 31 1 6 29
M  V30 32 1 6 30
M  V30 33 1 6 31
M  V30 34 1 8 32
M  V30 35 1 11 33
M  V30 36 1 13 34
M  V30 37 1 18 35
M  V30 38 1 18 36
M  V30 39 1 19 37
M  V30 40 1 19 38
M  V30 41 1 20 39
M  V30 42 1 20 40
M  V30 43 1 21 41
M  V30 44 1 21 42
M  V30 45 1 22 43
M  V30 46 1 22 44
M  V30 47 1 23 45
M  V30 48 1 23 46
M  V30 END BOND
M  V30 BEGIN COLLECTION
M  V30 MDLV30/STEABS ATOMS=(3 3 4 8)
M  V30 END COLLECTION
M  V30 END CTAB
M  END
>  <Column 1>
1200

>  <level_0>
1341

>  <index>
1341

>  <Unnamed: 0>
1341

>  <NO.>
1353

>  <Name>
cyclacillin

>  <IUPAC_name>
(2s-5r-6r)-6-[(1-aminocyclohexanecarbonyl)amino]-3-3-dimethyl-7-oxo-4-thia-1-azabicyclo[3.2.0]heptane-2-carboxylic acid

>  <SMILES>
CC1(C)S[C@@H]2[C@H](NC(=O)C3(N)CCCCC3)C(=O)N2[C@H]1C(=O)O

>  <CID>
19003

>  <logBB>


>  <BBB+/BBB->
BBB-

>  <Inchi>
InChI=1S/C15H23N3O4S/c1-14(2)9(12(20)21)18-10(19)8(11(18)23-14)17-13(22)15(16)6-4-3-5-7-15/h8-9-11H-3-7-16H2-1-2H3-(H-17-22)(H-20-21)/t8--9+-11-/m1/s1

>  <threshold>
-1

>  <reference>
R1|R6|R27|R27|R30|R30|

>  <group>
B

>  <Class>
-1

>  <ABC>
18.23

>  <ABCGG>
15.9

>  <nAcid>
1

>  <nBase>
1

>  <nAromAtom>
0

>  <nAromBond>
0

>  <nAtom>
46

>  <nHeavyAtom>
23

>  <nSpiro>
0

>  <nBridgehead>
0

>  <nHetero>
8

>  <nN>
3

>  <nO>
4

>  <nF>
0

>  <BalabanJ>
1.67

>  <BertzCT>
558.93

>  <nBonds>
48

>  <nBondsO>
25

>  <nBondsS>
45

>  <nBondsD>
3

>  <nBondsT>
0

>  <nBondsA>
0

>  <nBondsM>
3

>  <nBondsKS>
45

>  <nBondsKD>
3

>  <RNCG>
0.18

>  <RPCG>
0.12

>  <FCSP3>
0.8

>  <SZ>
30.33

>  <Sm>
28.43

>  <Sv>
27.55

>  <Sse>
46.6

>  <Sp>
29.82

>  <Si>
52.41

>  <MZ>
0.66

>  <Mm>
0.62

>  <Mv>
0.6

>  <Mse>
1.01

>  <Mp>
0.65

>  <Mi>
1.14

>  <NsCH3>
2

>  <NdCH2>
0

>  <NssCH2>
5

>  <NtCH>
0

>  <NdsCH>
0

>  <NaaCH>
0

>  <NsssCH>
3

>  <NddC>
0

>  <NtsC>
0

>  <NdssC>
3

>  <NaasC>
0

>  <NaaaC>
0

>  <NssssC>
2

>  <NsNH3>
0

>  <NsNH2>
1

>  <NssNH2>
0

>  <NdNH>
0

>  <NssNH>
1

>  <NaaNH>
0

>  <NtN>
0

>  <NsssNH>
0

>  <NdsN>
0

>  <NaaN>
0

>  <NsssN>
1

>  <NddsN>
0

>  <NaasN>
0

>  <NssssN>
0

>  <NsOH>
1

>  <NdO>
3

>  <NssO>
0

>  <NaaO>
0

>  <NsF>
0

>  <NsSiH3>
0

>  <NssSiH2>
0

>  <NsssSiH>
0

>  <NssssSi>
0

>  <NsPH2>
0

>  <NssPH>
0

>  <NsssP>
0

>  <NdsssP>
0

>  <NsssssP>
0

>  <NsSH>
0

>  <NdS>
0

>  <NssS>
1

>  <NaaS>
0

>  <NdssS>
0

>  <NddssS>
0

>  <NsCl>
0

>  <NsBr>
0

>  <NsI>
0

>  <fragCpx>
119.08

>  <fMF>
0.33

>  <nHBAcc>
5

>  <nHBDon>
3

>  <Kier1>
17.81

>  <Kier2>
6.06

>  <Lipinski>
1

>  <GhoseFilter>
1

>  <FilterItLogS>
-1.31

>  <VMcGowan>
246.5

>  <LabuteASA>
138.88

>  <PEOE_VSA1>
21.06

>  <PEOE_VSA2>
9.59

>  <PEOE_VSA3>
4.79

>  <PEOE_VSA4>
0

>  <PEOE_VSA5>
11.76

>  <PEOE_VSA6>
19.26

>  <PEOE_VSA7>
26.69

>  <PEOE_VSA8>
4.75

>  <PEOE_VSA9>
5.54

>  <PEOE_VSA10>
17.46

>  <PEOE_VSA11>
0

>  <PEOE_VSA12>
11.81

>  <PEOE_VSA13>
0

>  <SMR_VSA1>
19.49

>  <SMR_VSA2>
0

>  <SMR_VSA3>
10.22

>  <SMR_VSA4>
5.73

>  <SMR_VSA5>
73.7

>  <SMR_VSA6>
0

>  <SMR_VSA7>
0

>  <SMR_VSA8>
0

>  <SMR_VSA9>
0

>  <SlogP_VSA1>
11.05

>  <SlogP_VSA2>
55.53

>  <SlogP_VSA3>
14.38

>  <SlogP_VSA4>
0

>  <SlogP_VSA5>
45.95

>  <SlogP_VSA6>
0

>  <SlogP_VSA7>
0

>  <SlogP_VSA8>
0

>  <SlogP_VSA9>
0

>  <SlogP_VSA10>
0

>  <SlogP_VSA11>
0

>  <EState_VSA1>
28.34

>  <EState_VSA2>
17.19

>  <EState_VSA3>
12.84

>  <EState_VSA4>
19.26

>  <EState_VSA5>
16.66

>  <EState_VSA6>
0

>  <EState_VSA7>
13.85

>  <EState_VSA8>
5.32

>  <EState_VSA9>
5.73

>  <EState_VSA10>
19.49

>  <VSA_EState1>
-0.59

>  <VSA_EState2>
37.71

>  <VSA_EState3>
11.84

>  <VSA_EState4>
5.3

>  <VSA_EState5>
-1.62

>  <VSA_EState6>
-1.53

>  <VSA_EState7>
4.17

>  <VSA_EState8>
3.62

>  <VSA_EState9>
0

>  <apol>
49.79

>  <bpol>
29.85

>  <nRing>
3

>  <nHRing>
2

>  <naRing>
0

>  <naHRing>
0

>  <nARing 2>
3

>  <nAHRing 2>
2

>  <nFRing>
1

>  <nFHRing>
1

>  <nFaRing>
0

>  <nFaHRing>
0

>  <nFARing 2>
1

>  <nFAHRing 2>
1

>  <nRot>
3

>  <SLogP>
0.28

>  <SMR>
85.66

>  <TopoPSA(NO)>
112.73

>  <TopoPSA>
138.03

>  <JGI1>
0.28

>  <JGI2>
0.11

>  <JGI3>
0.09

>  <JGI4>
0.06

>  <JGI5>
0.04

>  <Diameter>
11

>  <Radius>
6

>  <TMWC10>
125.57

>  <TSRW10>
73.58

>  <MW>
341.14

>  <AMW>
7.42

>  <WPath>
1167

>  <WPol>
39

>  <Zagreb1>
130

>  <Zagreb2>
160

>  <mZagreb2>
4.79

>  <yes>


>  <nAR-cont>
0.691115

>  <nHA-cont>
0.967789328

>  <MWHBN>
0.433135385

>  <MWHBN-cont>
0.347879449

>  <TPSA-cont>
0

>  <pka_cont>
0.97

>  <yes.1>


>  <BBB_SCORE>
2.665723501

>  <MMFF94 Energy>
62.084

$$$$
Compound 1007
Actelion Java MolfileCreator 2.0

  0  0  0  0  0  0              0 V3000
M  V30 BEGIN CTAB
M  V30 COUNTS 54 58 0 0 0
M  V30 BEGIN ATOM
M  V30 1 S 2.3726 -0.8176 0.5723 0
M  V30 2 C 4.0907 -0.8528 -0.16 0
M  V30 3 C 2.5758 0.9452 1.062 0 CFG=1
M  V30 4 C 4.2409 0.5444 -0.8017 0 CFG=1
M  V30 5 C 5.0782 -1.1355 0.9809 0
M  V30 6 C 4.1496 -1.9711 -1.2025 0
M  V30 7 N 3.427 1.4561 -0.0121 0
M  V30 8 C 1.5049 1.9778 0.6205 0 CFG=1
M  V30 9 C 5.6906 0.9902 -0.9569 0
M  V30 10 C 2.4854 2.2791 -0.5416 0
M  V30 11 N 0.1709 1.4514 0.2263 0
M  V30 12 O 6.5456 0.3978 -1.5989 0
M  V30 13 O 6.0107 2.1201 -0.2955 0
M  V30 14 O 2.4374 2.8556 -1.603 0
M  V30 15 C -0.7221 1.017 1.1789 0
M  V30 16 O -0.4576 1.0935 2.3768 0
M  V30 17 C -2.0346 0.4286 0.6433 0
M  V30 18 C -1.7505 -0.8267 -0.2173 0
M  V30 19 C -2.7987 1.4657 -0.2134 0
M  V30 20 C -2.9453 0.0107 1.8263 0
M  V30 21 C -3.071 -1.4328 -0.7405 0
M  V30 22 C -4.1178 0.8682 -0.7325 0 CFG=1
M  V30 23 C -4.2652 -0.5872 1.3153 0 CFG=2
M  V30 24 N -2.7991 -2.6127 -1.5578 0
M  V30 25 C -3.8093 -0.3739 -1.5877 0
M  V30 26 C -3.9591 -1.8263 0.4579 0
M  V30 27 C -4.9962 0.4583 0.4594 0
M  V30 28 H 3.0013 1.1057 2.0569 0
M  V30 29 H 3.8209 0.549 -1.8174 0
M  V30 30 H 5.0908 -0.3341 1.7281 0
M  V30 31 H 6.1003 -1.2407 0.6004 0
M  V30 32 H 4.8374 -2.0727 1.4971 0
M  V30 33 H 3.415 -1.8223 -2.0025 0
M  V30 34 H 5.1385 -2.0132 -1.6723 0
M  V30 35 H 3.9618 -2.9529 -0.7523 0
M  V30 36 H 1.4052 2.8356 1.2977 0
M  V30 37 H -0.0657 1.3846 -0.7565 0
M  V30 38 H 6.9501 2.285 -0.5206 0
M  V30 39 H -1.198 -1.5665 0.3787 0
M  V30 40 H -1.0987 -0.573 -1.064 0
M  V30 41 H -2.1942 1.7932 -1.0681 0
M  V30 42 H -3.0029 2.3671 0.3793 0
M  V30 43 H -2.4312 -0.7226 2.4618 0
M  V30 44 H -3.1574 0.8774 2.4666 0
M  V30 45 H -4.6452 1.6123 -1.34 0
M  V30 46 H -4.8947 -0.8735 2.1654 0
M  V30 47 H -2.3034 -3.3133 -1.0063 0
M  V30 48 H -2.1824 -2.3735 -2.333 0
M  V30 49 H -4.7462 -0.786 -1.986 0
M  V30 50 H -3.201 -0.0809 -2.4537 0
M  V30 51 H -4.8999 -2.2729 0.1095 0
M  V30 52 H -3.4596 -2.5852 1.0749 0
M  V30 53 H -5.9487 0.0494 0.1004 0
M  V30 54 H -5.2371 1.3389 1.0678 0
M  V30 END ATOM
M  V30 BEGIN BOND
M  V30 1 1 1 2
M  V30 2 1 1 3
M  V30 3 1 2 4
M  V30 4 1 2 5
M  V30 5 1 2 6
M  V30 6 1 3 7
M  V30 7 1 3 8
M  V30 8 1 4 9
M  V30 9 1 7 10
M  V30 10 1 8 11
M  V30 11 2 9 12
M  V30 12 1 9 13
M  V30 13 2 10 14
M  V30 14 1 11 15
M  V30 15 2 15 16
M  V30 16 1 15 17
M  V30 17 1 17 18
M  V30 18 1 17 19
M  V30 19 1 17 20
M  V30 20 1 18 21
M  V30 21 1 19 22
M  V30 22 1 20 23
M  V30 23 1 21 24
M  V30 24 1 21 25
M  V30 25 1 21 26
M  V30 26 1 22 27
M  V30 27 1 4 7
M  V30 28 1 8 10
M  V30 29 1 22 25
M  V30 30 1 23 26
M  V30 31 1 23 27
M  V30 32 1 3 28
M  V30 33 1 4 29
M  V30 34 1 5 30
M  V30 35 1 5 31
M  V30 36 1 5 32
M  V30 37 1 6 33
M  V30 38 1 6 34
M  V30 39 1 6 35
M  V30 40 1 8 36
M  V30 41 1 11 37
M  V30 42 1 13 38
M  V30 43 1 18 39
M  V30 44 1 18 40
M  V30 45 1 19 41
M  V30 46 1 19 42
M  V30 47 1 20 43
M  V30 48 1 20 44
M  V30 49 1 22 45
M  V30 50 1 23 46
M  V30 51 1 24 47
M  V30 52 1 24 48
M  V30 53 1 25 49
M  V30 54 1 25 50
M  V30 55 1 26 51
M  V30 56 1 26 52
M  V30 57 1 27 53
M  V30 58 1 27 54
M  V30 END BOND
M  V30 BEGIN COLLECTION
M  V30 MDLV30/STEABS ATOMS=(5 3 4 8 22 23)
M  V30 END COLLECTION
M  V30 END CTAB
M  END
>  <Column 1>
1201

>  <level_0>
1342

>  <index>
1342

>  <Unnamed: 0>
1342

>  <NO.>
1354

>  <Name>
amantocillin

>  <IUPAC_name>
(2s-5r-6r)-6-[[(5s-7r)-3-aminoadamantane-1-carbonyl]amino]-3-3-dimethyl-7-oxo-4-thia-1-azabicyclo[3.2.0]heptane-2-carboxylic acid

>  <SMILES>
CC1(C)S[C@@H]2[C@H](NC(=O)C34C[C@@H]5C[C@@H](CC(N)(C5)C3)C4)C(=O)N2[C@H]1C(=O)O

>  <CID>
168908

>  <logBB>


>  <BBB+/BBB->
BBB-

>  <Inchi>
InChI=1S/C19H27N3O4S/c1-17(2)12(15(24)25)22-13(23)11(14(22)27-17)21-16(26)18-4-9-3-10(5-18)7-19(20-6-9)8-18/h9-12-14H-3-8-20H2-1-2H3-(H-21-26)(H-24-25)/t9--10+-11--12+-14--18?-19?/m1/s1

>  <threshold>
-1

>  <reference>
R1|R24|R27|R30|

>  <group>
B

>  <Class>
-1

>  <ABC>
22.47

>  <ABCGG>
17.97

>  <nAcid>
1

>  <nBase>
1

>  <nAromAtom>
0

>  <nAromBond>
0

>  <nAtom>
54

>  <nHeavyAtom>
27

>  <nSpiro>
0

>  <nBridgehead>
4

>  <nHetero>
8

>  <nN>
3

>  <nO>
4

>  <nF>
0

>  <BalabanJ>
1.32

>  <BertzCT>
739.24

>  <nBonds>
58

>  <nBondsO>
31

>  <nBondsS>
55

>  <nBondsD>
3

>  <nBondsT>
0

>  <nBondsA>
0

>  <nBondsM>
3

>  <nBondsKS>
55

>  <nBondsKD>
3

>  <RNCG>
0.17

>  <RPCG>
0.12

>  <FCSP3>
0.84

>  <SZ>
35

>  <Sm>
32.76

>  <Sv>
32.63

>  <Sse>
54.37

>  <Sp>
35.41

>  <Si>
61.24

>  <MZ>
0.65

>  <Mm>
0.61

>  <Mv>
0.6

>  <Mse>
1.01

>  <Mp>
0.66

>  <Mi>
1.13

>  <NsCH3>
2

>  <NdCH2>
0

>  <NssCH2>
6

>  <NtCH>
0

>  <NdsCH>
0

>  <NaaCH>
0

>  <NsssCH>
5

>  <NddC>
0

>  <NtsC>
0

>  <NdssC>
3

>  <NaasC>
0

>  <NaaaC>
0

>  <NssssC>
3

>  <NsNH3>
0

>  <NsNH2>
1

>  <NssNH2>
0

>  <NdNH>
0

>  <NssNH>
1

>  <NaaNH>
0

>  <NtN>
0

>  <NsssNH>
0

>  <NdsN>
0

>  <NaaN>
0

>  <NsssN>
1

>  <NddsN>
0

>  <NaasN>
0

>  <NssssN>
0

>  <NsOH>
1

>  <NdO>
3

>  <NssO>
0

>  <NaaO>
0

>  <NsF>
0

>  <NsSiH3>
0

>  <NssSiH2>
0

>  <NsssSiH>
0

>  <NssssSi>
0

>  <NsPH2>
0

>  <NssPH>
0

>  <NsssP>
0

>  <NdsssP>
0

>  <NsssssP>
0

>  <NsSH>
0

>  <NdS>
0

>  <NssS>
1

>  <NaaS>
0

>  <NdssS>
0

>  <NddssS>
0

>  <NsCl>
0

>  <NsBr>
0

>  <NsI>
0

>  <fragCpx>
259.08

>  <fMF>
0.35

>  <nHBAcc>
5

>  <nHBDon>
3

>  <Kier1>
18.99

>  <Kier2>
5.78

>  <Lipinski>
1

>  <GhoseFilter>
1

>  <FilterItLogS>
-1.9

>  <VMcGowan>
281.14

>  <LabuteASA>
162.33

>  <PEOE_VSA1>
21.06

>  <PEOE_VSA2>
9.59

>  <PEOE_VSA3>
4.79

>  <PEOE_VSA4>
0

>  <PEOE_VSA5>
11.76

>  <PEOE_VSA6>
0

>  <PEOE_VSA7>
64.21

>  <PEOE_VSA8>
10.29

>  <PEOE_VSA9>
5.41

>  <PEOE_VSA10>
17.46

>  <PEOE_VSA11>
0

>  <PEOE_VSA12>
11.81

>  <PEOE_VSA13>
0

>  <SMR_VSA1>
19.49

>  <SMR_VSA2>
0

>  <SMR_VSA3>
10.22

>  <SMR_VSA4>
22.98

>  <SMR_VSA5>
80.12

>  <SMR_VSA6>
0

>  <SMR_VSA7>
0

>  <SMR_VSA8>
0

>  <SMR_VSA9>
0

>  <SlogP_VSA1>
11.05

>  <SlogP_VSA2>
55.53

>  <SlogP_VSA3>
14.38

>  <SlogP_VSA4>
17.25

>  <SlogP_VSA5>
52.37

>  <SlogP_VSA6>
0

>  <SlogP_VSA7>
0

>  <SlogP_VSA8>
0

>  <SlogP_VSA9>
0

>  <SlogP_VSA10>
0

>  <SlogP_VSA11>
0

>  <EState_VSA1>
28.22

>  <EState_VSA2>
22.73

>  <EState_VSA3>
18.26

>  <EState_VSA4>
25.68

>  <EState_VSA5>
23.08

>  <EState_VSA6>
0

>  <EState_VSA7>
13.85

>  <EState_VSA8>
5.32

>  <EState_VSA9>
5.73

>  <EState_VSA10>
19.49

>  <VSA_EState1>
-0.58

>  <VSA_EState2>
39.04

>  <VSA_EState3>
12.25

>  <VSA_EState4>
5.93

>  <VSA_EState5>
-0.26

>  <VSA_EState6>
-1.46

>  <VSA_EState7>
5.67

>  <VSA_EState8>
3.69

>  <VSA_EState9>
0

>  <apol>
59.14

>  <bpol>
33.86

>  <nRing>
6

>  <nHRing>
2

>  <naRing>
0

>  <naHRing>
0

>  <nARing 2>
6

>  <nAHRing 2>
2

>  <nFRing>
2

>  <nFHRing>
1

>  <nFaRing>
0

>  <nFaHRing>
0

>  <nFARing 2>
2

>  <nFAHRing 2>
1

>  <nRot>
3

>  <SLogP>
0.92

>  <SMR>
99.69

>  <TopoPSA(NO)>
112.73

>  <TopoPSA>
138.03

>  <JGI1>
0.34

>  <JGI2>
0.08

>  <JGI3>
0.1

>  <JGI4>
0.06

>  <JGI5>
0.03

>  <Diameter>
11

>  <Radius>
6

>  <TMWC10>
138.76

>  <TSRW10>
79.09

>  <MW>
393.17

>  <AMW>
7.28

>  <WPath>
1745

>  <WPol>
50

>  <Zagreb1>
168

>  <Zagreb2>
212

>  <mZagreb2>
5.29

>  <yes>


>  <nAR-cont>
0

>  <nHA-cont>
0.860070871

>  <MWHBN>
0.403459365

>  <MWHBN-cont>
0.462456485

>  <TPSA-cont>
0

>  <pka_cont>
0.97

>  <yes.1>


>  <BBB_SCORE>
2.038755599

>  <MMFF94 Energy>
35.914

$$$$
Compound 1008
Actelion Java MolfileCreator 2.0

  0  0  0  0  0  0              0 V3000
M  V30 BEGIN CTAB
M  V30 COUNTS 42 44 0 0 0
M  V30 BEGIN ATOM
M  V30 1 S -0.3255 -1.8731 -1.0583 0
M  V30 2 C -1.1907 -2.4741 0.4858 0
M  V30 3 C -1.8394 -1.1179 -1.7847 0 CFG=1
M  V30 4 C -2.7149 -2.343 0.2252 0 CFG=1
M  V30 5 C -0.6886 -3.8909 0.7831 0
M  V30 6 C -0.7545 -1.5498 1.6371 0
M  V30 7 N -2.846 -1.2741 -0.7473 0
M  V30 8 C -2.0024 0.421 -1.636 0 CFG=1
M  V30 9 C -3.3808 -3.629 -0.2714 0
M  V30 10 C -2.9647 0.0481 -0.4646 0
M  V30 11 N -0.7851 1.1743 -1.2505 0
M  V30 12 O -3.5367 -4.647 0.3876 0
M  V30 13 O -3.792 -3.6049 -1.5564 0
M  V30 14 O -3.5102 0.5988 0.462 0
M  V30 15 C -0.7063 2.5458 -1.3028 0
M  V30 16 O -1.6063 3.252 -1.7492 0
M  V30 17 C 0.5975 3.1268 -0.7572 0
M  V30 18 O 1.4813 2.0801 -0.3607 0
M  V30 19 C 2.689 2.4516 0.1606 0
M  V30 20 C 3.1364 3.7605 0.3458 0
M  V30 21 C 3.5168 1.3869 0.5277 0
M  V30 22 C 4.4011 3.9979 0.8938 0
M  V30 23 C 4.779 1.6236 1.0744 0
M  V30 24 C 5.2213 2.9313 1.2577 0
M  V30 25 H -2.1418 -1.5298 -2.7516 0
M  V30 26 H -3.2517 -2.0463 1.1348 0
M  V30 27 H -0.8676 -4.5805 -0.0492 0
M  V30 28 H 0.3895 -3.9017 0.9847 0
M  V30 29 H -1.1825 -4.2986 1.6726 0
M  V30 30 H -1.0178 -0.5019 1.4604 0
M  V30 31 H -1.2387 -1.8519 2.5734 0
M  V30 32 H 0.3283 -1.5937 1.8043 0
M  V30 33 H -2.5231 0.8829 -2.4831 0
M  V30 34 H 0.0269 0.6872 -0.8739 0
M  V30 35 H -4.1993 -4.4858 -1.6971 0
M  V30 36 H 1.0481 3.7229 -1.5588 0
M  V30 37 H 0.3353 3.7528 0.1033 0
M  V30 38 H 2.5313 4.6201 0.0772 0
M  V30 39 H 3.1779 0.3635 0.3866 0
M  V30 40 H 4.7462 5.0191 1.037 0
M  V30 41 H 5.4145 0.7882 1.356 0
M  V30 42 H 6.2036 3.1198 1.6833 0
M  V30 END ATOM
M  V30 BEGIN BOND
M  V30 1 1 1 2
M  V30 2 1 1 3
M  V30 3 1 2 4
M  V30 4 1 2 5
M  V30 5 1 2 6
M  V30 6 1 3 7
M  V30 7 1 3 8
M  V30 8 1 4 9
M  V30 9 1 7 10
M  V30 10 1 8 11
M  V30 11 2 9 12
M  V30 12 1 9 13
M  V30 13 2 10 14
M  V30 14 1 11 15
M  V30 15 2 15 16
M  V30 16 1 15 17
M  V30 17 1 17 18
M  V30 18 1 18 19
M  V30 19 2 19 20
M  V30 20 1 19 21
M  V30 21 1 20 22
M  V30 22 2 21 23
M  V30 23 2 22 24
M  V30 24 1 4 7
M  V30 25 1 8 10
M  V30 26 1 23 24
M  V30 27 1 3 25
M  V30 28 1 4 26
M  V30 29 1 5 27
M  V30 30 1 5 28
M  V30 31 1 5 29
M  V30 32 1 6 30
M  V30 33 1 6 31
M  V30 34 1 6 32
M  V30 35 1 8 33
M  V30 36 1 11 34
M  V30 37 1 13 35
M  V30 38 1 17 36
M  V30 39 1 17 37
M  V30 40 1 20 38
M  V30 41 1 21 39
M  V30 42 1 22 40
M  V30 43 1 23 41
M  V30 44 1 24 42
M  V30 END BOND
M  V30 BEGIN COLLECTION
M  V30 MDLV30/STEABS ATOMS=(3 3 4 8)
M  V30 END COLLECTION
M  V30 END CTAB
M  END
>  <Column 1>
1203

>  <level_0>
1344

>  <index>
1344

>  <Unnamed: 0>
1344

>  <NO.>
1356

>  <Name>
phenoxymethylpenicillin

>  <IUPAC_name>
(2s-5r-6r)-3-3-dimethyl-7-oxo-6-[(2-phenoxyacetyl)amino]-4-thia-1-azabicyclo[3.2.0]heptane-2-carboxylate

>  <SMILES>
CC1(C)S[C@@H]2[C@H](NC(=O)COc3ccccc3)C(=O)N2[C@H]1C(=O)O

>  <CID>
6869

>  <logBB>


>  <BBB+/BBB->
BBB-

>  <Inchi>
InChI=1S/C16H18N2O5S/c1-16(2)12(15(21)22)18-13(20)11(14(18)24-16)17-10(19)8-23-9-6-4-3-5-7-9/h3-7-11-12-14H-8H2-1-2H3-(H-17-19)(H-21-22)/t11--12+-14-/m1/s1

>  <threshold>
-1

>  <reference>
R1|R9|R27|R30|R36|

>  <group>
B

>  <Class>
-1

>  <ABC>
18.84

>  <ABCGG>
15.73

>  <nAcid>
1

>  <nBase>
0

>  <nAromAtom>
6

>  <nAromBond>
6

>  <nAtom>
42

>  <nHeavyAtom>
24

>  <nSpiro>
0

>  <nBridgehead>
0

>  <nHetero>
8

>  <nN>
2

>  <nO>
5

>  <nF>
0

>  <BalabanJ>
1.5

>  <BertzCT>
678.31

>  <nBonds>
44

>  <nBondsO>
26

>  <nBondsS>
35

>  <nBondsD>
3

>  <nBondsT>
0

>  <nBondsA>
6

>  <nBondsM>
9

>  <nBondsKS>
38

>  <nBondsKD>
6

>  <RNCG>
0.17

>  <RPCG>
0.12

>  <FCSP3>
0.44

>  <SZ>
30.67

>  <Sm>
29.17

>  <Sv>
27.15

>  <Sse>
43.05

>  <Sp>
28.64

>  <Si>
47.29

>  <MZ>
0.73

>  <Mm>
0.69

>  <Mv>
0.65

>  <Mse>
1.02

>  <Mp>
0.68

>  <Mi>
1.13

>  <NsCH3>
2

>  <NdCH2>
0

>  <NssCH2>
1

>  <NtCH>
0

>  <NdsCH>
0

>  <NaaCH>
5

>  <NsssCH>
3

>  <NddC>
0

>  <NtsC>
0

>  <NdssC>
3

>  <NaasC>
1

>  <NaaaC>
0

>  <NssssC>
1

>  <NsNH3>
0

>  <NsNH2>
0

>  <NssNH2>
0

>  <NdNH>
0

>  <NssNH>
1

>  <NaaNH>
0

>  <NtN>
0

>  <NsssNH>
0

>  <NdsN>
0

>  <NaaN>
0

>  <NsssN>
1

>  <NddsN>
0

>  <NaasN>
0

>  <NssssN>
0

>  <NsOH>
1

>  <NdO>
3

>  <NssO>
1

>  <NaaO>
0

>  <NsF>
0

>  <NsSiH3>
0

>  <NssSiH2>
0

>  <NsssSiH>
0

>  <NssssSi>
0

>  <NsPH2>
0

>  <NssPH>
0

>  <NsssP>
0

>  <NdsssP>
0

>  <NsssssP>
0

>  <NsSH>
0

>  <NdS>
0

>  <NssS>
1

>  <NaaS>
0

>  <NdssS>
0

>  <NddssS>
0

>  <NsCl>
0

>  <NsBr>
0

>  <NsI>
0

>  <fragCpx>
124.08

>  <fMF>
0.4

>  <nHBAcc>
5

>  <nHBDon>
2

>  <Kier1>
18.78

>  <Kier2>
7.32

>  <Lipinski>
1

>  <GhoseFilter>
1

>  <FilterItLogS>
-1.91

>  <VMcGowan>
243.58

>  <LabuteASA>
142.89

>  <PEOE_VSA1>
20.06

>  <PEOE_VSA2>
9.59

>  <PEOE_VSA3>
4.79

>  <PEOE_VSA4>
0

>  <PEOE_VSA5>
11.76

>  <PEOE_VSA6>
18.2

>  <PEOE_VSA7>
25.98

>  <PEOE_VSA8>
4.75

>  <PEOE_VSA9>
0

>  <PEOE_VSA10>
23.21

>  <PEOE_VSA11>
6.61

>  <PEOE_VSA12>
5.91

>  <PEOE_VSA13>
5.91

>  <SMR_VSA1>
24.23

>  <SMR_VSA2>
0

>  <SMR_VSA3>
10.22

>  <SMR_VSA4>
0

>  <SMR_VSA5>
36.05

>  <SMR_VSA6>
6.61

>  <SMR_VSA7>
30.33

>  <SMR_VSA8>
0

>  <SMR_VSA9>
5.75

>  <SlogP_VSA1>
10.05

>  <SlogP_VSA2>
56.6

>  <SlogP_VSA3>
14.38

>  <SlogP_VSA4>
0

>  <SlogP_VSA5>
13.85

>  <SlogP_VSA6>
30.33

>  <SlogP_VSA7>
0

>  <SlogP_VSA8>
0

>  <SlogP_VSA9>
0

>  <SlogP_VSA10>
0

>  <SlogP_VSA11>
5.75

>  <EState_VSA1>
28.71

>  <EState_VSA2>
17.89

>  <EState_VSA3>
5.75

>  <EState_VSA4>
0

>  <EState_VSA5>
16.66

>  <EState_VSA6>
38.11

>  <EState_VSA7>
6.07

>  <EState_VSA8>
5.32

>  <EState_VSA9>
4.74

>  <EState_VSA10>
19.49

>  <VSA_EState1>
4.74

>  <VSA_EState2>
37.02

>  <VSA_EState3>
11.64

>  <VSA_EState4>
0

>  <VSA_EState5>
-1.23

>  <VSA_EState6>
7.31

>  <VSA_EState7>
0

>  <VSA_EState8>
3.38

>  <VSA_EState9>
0

>  <apol>
47.83

>  <bpol>
27.14

>  <nRing>
3

>  <nHRing>
2

>  <naRing>
1

>  <naHRing>
0

>  <nARing 2>
2

>  <nAHRing 2>
2

>  <nFRing>
1

>  <nFHRing>
1

>  <nFaRing>
0

>  <nFaHRing>
0

>  <nFARing 2>
1

>  <nFAHRing 2>
1

>  <nRot>
5

>  <SLogP>
0.7

>  <SMR>
87.6

>  <TopoPSA(NO)>
95.94

>  <TopoPSA>
121.24

>  <JGI1>
0.23

>  <JGI2>
0.08

>  <JGI3>
0.09

>  <JGI4>
0.06

>  <JGI5>
0.03

>  <Diameter>
13

>  <Radius>
7

>  <TMWC10>
126.9

>  <TSRW10>
74.34

>  <MW>
350.09

>  <AMW>
8.34

>  <WPath>
1461

>  <WPol>
36

>  <Zagreb1>
130

>  <Zagreb2>
156

>  <mZagreb2>
5.13

>  <yes>


>  <nAR-cont>
1

>  <nHA-cont>
0.94700071

>  <MWHBN>
0.374117641

>  <MWHBN-cont>
0.577830144

>  <TPSA-cont>
0

>  <pka_cont>
0.97

>  <yes.1>


>  <BBB_SCORE>
3.298745925

>  <MMFF94 Energy>
60.075

$$$$
Compound 1009
Actelion Java MolfileCreator 2.0

  0  0  0  0  0  0              0 V3000
M  V30 BEGIN CTAB
M  V30 COUNTS 52 55 0 0 0
M  V30 BEGIN ATOM
M  V30 1 S -2.4445 1.0587 -0.4071 0
M  V30 2 C -3.0639 -0.3364 -1.4672 0
M  V30 3 C -2.6094 0.138 1.1766 0 CFG=1
M  V30 4 C -3.7014 -1.3679 -0.5095 0 CFG=1
M  V30 5 C -4.0193 0.2391 -2.5183 0
M  V30 6 C -1.8437 -0.9373 -2.1867 0
M  V30 7 N -3.0349 -1.1997 0.7669 0
M  V30 8 C -1.3397 -0.5227 1.7868 0 CFG=1
M  V30 9 C -5.1988 -1.1765 -0.29 0
M  V30 10 C -1.8954 -1.825 1.1493 0
M  V30 11 N -0.0136 -0.0984 1.2834 0
M  V30 12 O -5.745 -0.4418 0.5178 0
M  V30 13 O -5.9449 -1.9115 -1.1432 0
M  V30 14 O -1.481 -2.9344 0.9077 0
M  V30 15 C 0.5187 1.1416 1.562 0
M  V30 16 O -0.0375 1.9524 2.2998 0
M  V30 17 C 1.8886 1.412 0.8978 0 CFG=1
M  V30 18 N 2.8154 0.3391 1.3423 0
M  V30 19 C 1.7568 1.483 -0.6198 0
M  V30 20 C 3.3078 0.5518 2.5174 0
M  V30 21 C 2.3719 0.5486 -1.4698 0
M  V30 22 C 0.9878 2.5079 -1.1983 0
M  V30 23 C 4.2203 -0.3832 3.1086 0
M  V30 24 C 2.216 0.6291 -2.8565 0
M  V30 25 C 0.8285 2.5863 -2.5832 0
M  V30 26 O 4.709 -0.1023 4.3534 0
M  V30 27 C 4.7435 -1.5817 2.6644 0
M  V30 28 C 1.4427 1.6478 -3.4009 0
M  V30 29 C 5.5389 -1.1211 4.6966 0
M  V30 30 C 5.5945 -2.0569 3.691 0
M  V30 31 O 1.2607 1.7596 -4.7473 0
M  V30 32 H -3.2863 0.5979 1.9027 0
M  V30 33 H -3.5344 -2.3963 -0.8526 0
M  V30 34 H -3.5062 0.9415 -3.1865 0
M  V30 35 H -4.43 -0.5597 -3.1463 0
M  V30 36 H -4.8618 0.7766 -2.0686 0
M  V30 37 H -1.3597 -0.2043 -2.8432 0
M  V30 38 H -2.1488 -1.7818 -2.8159 0
M  V30 39 H -1.0845 -1.3096 -1.4912 0
M  V30 40 H -1.3464 -0.5693 2.8829 0
M  V30 41 H 0.5513 -0.7215 0.7125 0
M  V30 42 H -6.87 -1.7001 -0.8922 0
M  V30 43 H 2.2528 2.3921 1.2367 0
M  V30 44 H 3.0548 1.4444 3.1191 0
M  V30 45 H 2.9819 -0.2533 -1.0587 0
M  V30 46 H 0.4914 3.2478 -0.5716 0
M  V30 47 H 2.7027 -0.1076 -3.4873 0
M  V30 48 H 0.2229 3.3759 -3.0189 0
M  V30 49 H 4.529 -2.0482 1.7126 0
M  V30 50 H 6.0053 -1.037 5.6687 0
M  V30 51 H 6.1757 -2.9683 3.6982 0
M  V30 52 H 1.7742 1.0624 -5.1866 0
M  V30 END ATOM
M  V30 BEGIN BOND
M  V30 1 1 1 2
M  V30 2 1 1 3
M  V30 3 1 2 4
M  V30 4 1 2 5
M  V30 5 1 2 6
M  V30 6 1 3 7
M  V30 7 1 3 8
M  V30 8 1 4 9
M  V30 9 1 7 10
M  V30 10 1 8 11
M  V30 11 2 9 12
M  V30 12 1 9 13
M  V30 13 2 10 14
M  V30 14 1 11 15
M  V30 15 2 15 16
M  V30 16 1 15 17
M  V30 17 1 17 18
M  V30 18 1 17 19
M  V30 19 2 18 20
M  V30 20 2 19 21
M  V30 21 1 19 22
M  V30 22 1 20 23
M  V30 23 1 21 24
M  V30 24 2 22 25
M  V30 25 1 23 26
M  V30 26 2 23 27
M  V30 27 2 24 28
M  V30 28 1 26 29
M  V30 29 1 27 30
M  V30 30 1 28 31
M  V30 31 1 4 7
M  V30 32 1 8 10
M  V30 33 1 25 28
M  V30 34 2 29 30
M  V30 35 1 3 32
M  V30 36 1 4 33
M  V30 37 1 5 34
M  V30 38 1 5 35
M  V30 39 1 5 36
M  V30 40 1 6 37
M  V30 41 1 6 38
M  V30 42 1 6 39
M  V30 43 1 8 40
M  V30 44 1 11 41
M  V30 45 1 13 42
M  V30 46 1 17 43
M  V30 47 1 20 44
M  V30 48 1 21 45
M  V30 49 1 22 46
M  V30 50 1 24 47
M  V30 51 1 25 48
M  V30 52 1 27 49
M  V30 53 1 29 50
M  V30 54 1 30 51
M  V30 55 1 31 52
M  V30 END BOND
M  V30 BEGIN COLLECTION
M  V30 MDLV30/STEABS ATOMS=(4 3 4 8 17)
M  V30 END COLLECTION
M  V30 END CTAB
M  END
>  <Column 1>
1204

>  <level_0>
1346

>  <index>
1346

>  <Unnamed: 0>
1346

>  <NO.>
1358

>  <Name>
fumoxicillin

>  <IUPAC_name>
(2s-5r-6r)-6-[[(2s)-2-(furan-2-ylmethylideneamino)-2-(4-hydroxyphenyl)acetyl]amino]-3-3-dimethyl-7-oxo-4-thia-1-azabicyclo[3.2.0]heptane-2-carboxylic acid

>  <SMILES>
CC1(C)S[C@@H]2[C@H](NC(=O)[C@@H](N=Cc3ccco3)c3ccc(O)cc3)C(=O)N2[C@H]1C(=O)O

>  <CID>
72000

>  <logBB>


>  <BBB+/BBB->
BBB-

>  <Inchi>
InChI=1S/C21H21N3O6S/c1-21(2)16(20(28)29)24-18(27)15(19(24)31-21)23-17(26)14(11-5-7-12(25)8-6-11)22-10-13-4-3-9-30-13/h3-10-14-16-19-25H-1-2H3-(H-23-26)(H-28-29)/t14--15+-16--19+/m0/s1

>  <threshold>
-1

>  <reference>
R1|R27|R27|R30|R30|

>  <group>
B

>  <Class>
-1

>  <ABC>
24.52

>  <ABCGG>
20.42

>  <nAcid>
1

>  <nBase>
0

>  <nAromAtom>
11

>  <nAromBond>
11

>  <nAtom>
52

>  <nHeavyAtom>
31

>  <nSpiro>
0

>  <nBridgehead>
0

>  <nHetero>
10

>  <nN>
3

>  <nO>
6

>  <nF>
0

>  <BalabanJ>
1.4

>  <BertzCT>
1033.89

>  <nBonds>
55

>  <nBondsO>
34

>  <nBondsS>
40

>  <nBondsD>
4

>  <nBondsT>
0

>  <nBondsA>
11

>  <nBondsM>
15

>  <nBondsKS>
46

>  <nBondsKD>
9

>  <RNCG>
0.14

>  <RPCG>
0.09

>  <FCSP3>
0.33

>  <SZ>
38.67

>  <Sm>
36.92

>  <Sv>
34.44

>  <Sse>
53.37

>  <Sp>
35.98

>  <Si>
58.41

>  <MZ>
0.74

>  <Mm>
0.71

>  <Mv>
0.66

>  <Mse>
1.03

>  <Mp>
0.69

>  <Mi>
1.12

>  <NsCH3>
2

>  <NdCH2>
0

>  <NssCH2>
0

>  <NtCH>
0

>  <NdsCH>
1

>  <NaaCH>
7

>  <NsssCH>
4

>  <NddC>
0

>  <NtsC>
0

>  <NdssC>
3

>  <NaasC>
3

>  <NaaaC>
0

>  <NssssC>
1

>  <NsNH3>
0

>  <NsNH2>
0

>  <NssNH2>
0

>  <NdNH>
0

>  <NssNH>
1

>  <NaaNH>
0

>  <NtN>
0

>  <NsssNH>
0

>  <NdsN>
1

>  <NaaN>
0

>  <NsssN>
1

>  <NddsN>
0

>  <NaasN>
0

>  <NssssN>
0

>  <NsOH>
2

>  <NdO>
3

>  <NssO>
0

>  <NaaO>
1

>  <NsF>
0

>  <NsSiH3>
0

>  <NssSiH2>
0

>  <NsssSiH>
0

>  <NssssSi>
0

>  <NsPH2>
0

>  <NssPH>
0

>  <NsssP>
0

>  <NdsssP>
0

>  <NsssssP>
0

>  <NsSH>
0

>  <NdS>
0

>  <NssS>
1

>  <NaaS>
0

>  <NdssS>
0

>  <NddssS>
0

>  <NsCl>
0

>  <NsBr>
0

>  <NsI>
0

>  <fragCpx>
226.1

>  <fMF>
0.44

>  <nHBAcc>
7

>  <nHBDon>
3

>  <Kier1>
24.13

>  <Kier2>
9.7

>  <Lipinski>
1

>  <GhoseFilter>
1

>  <FilterItLogS>
-2.68

>  <VMcGowan>
306.12

>  <LabuteASA>
181.69

>  <PEOE_VSA1>
24.85

>  <PEOE_VSA2>
14.58

>  <PEOE_VSA3>
4.79

>  <PEOE_VSA4>
0

>  <PEOE_VSA5>
11.76

>  <PEOE_VSA6>
12.13

>  <PEOE_VSA7>
43.68

>  <PEOE_VSA8>
4.75

>  <PEOE_VSA9>
12.48

>  <PEOE_VSA10>
28.97

>  <PEOE_VSA11>
6.04

>  <PEOE_VSA12>
11.81

>  <PEOE_VSA13>
0

>  <SMR_VSA1>
29.01

>  <SMR_VSA2>
0

>  <SMR_VSA3>
10.22

>  <SMR_VSA4>
4.99

>  <SMR_VSA5>
42.09

>  <SMR_VSA6>
0

>  <SMR_VSA7>
53.99

>  <SMR_VSA8>
0

>  <SMR_VSA9>
5.75

>  <SlogP_VSA1>
5.32

>  <SlogP_VSA2>
61.32

>  <SlogP_VSA3>
14.38

>  <SlogP_VSA4>
0

>  <SlogP_VSA5>
31.21

>  <SlogP_VSA6>
52.07

>  <SlogP_VSA7>
0

>  <SlogP_VSA8>
0

>  <SlogP_VSA9>
0

>  <SlogP_VSA10>
0

>  <SlogP_VSA11>
5.75

>  <EState_VSA1>
46.03

>  <EState_VSA2>
5.75

>  <EState_VSA3>
11.32

>  <EState_VSA4>
0

>  <EState_VSA5>
41.27

>  <EState_VSA6>
38.11

>  <EState_VSA7>
0

>  <EState_VSA8>
10.31

>  <EState_VSA9>
4.42

>  <EState_VSA10>
24.6

>  <VSA_EState1>
4.54

>  <VSA_EState2>
43.06

>  <VSA_EState3>
21.36

>  <VSA_EState4>
0.52

>  <VSA_EState5>
-1.5

>  <VSA_EState6>
6.64

>  <VSA_EState7>
2.9

>  <VSA_EState8>
3.54

>  <VSA_EState9>
0

>  <apol>
60.08

>  <bpol>
31.29

>  <nRing>
4

>  <nHRing>
3

>  <naRing>
2

>  <naHRing>
1

>  <nARing 2>
2

>  <nAHRing 2>
2

>  <nFRing>
1

>  <nFHRing>
1

>  <nFaRing>
0

>  <nFaHRing>
0

>  <nFARing 2>
1

>  <nFAHRing 2>
1

>  <nRot>
6

>  <SLogP>
1.78

>  <SMR>
112.81

>  <TopoPSA(NO)>
132.44

>  <TopoPSA>
157.74

>  <JGI1>
0.22

>  <JGI2>
0.09

>  <JGI3>
0.08

>  <JGI4>
0.05

>  <JGI5>
0.03

>  <Diameter>
13

>  <Radius>
7

>  <TMWC10>
144.16

>  <TSRW10>
83.89

>  <MW>
443.12

>  <AMW>
8.52

>  <WPath>
2746

>  <WPol>
48

>  <Zagreb1>
170

>  <Zagreb2>
205

>  <mZagreb2>
6.6

>  <yes>


>  <nAR-cont>
1

>  <nHA-cont>
0.702745138

>  <MWHBN>
0.475050002

>  <MWHBN-cont>
0

>  <TPSA-cont>
0

>  <pka_cont>
0.97

>  <yes.1>


>  <BBB_SCORE>
2.187745138

>  <MMFF94 Energy>
91.962

$$$$
Compound 1010
Actelion Java MolfileCreator 2.0

  0  0  0  0  0  0              0 V3000
M  V30 BEGIN CTAB
M  V30 COUNTS 45 47 0 0 0
M  V30 BEGIN ATOM
M  V30 1 S 0.2435 -2.4371 -2.0306 0
M  V30 2 C 0.1807 -3.6528 -0.6158 0
M  V30 3 C -1.4793 -1.8324 -1.7774 0 CFG=1
M  V30 4 C -1.2959 -3.7422 -0.1661 0 CFG=1
M  V30 5 C 0.7896 -4.9773 -1.0886 0
M  V30 6 C 1.0579 -3.0797 0.5107 0
M  V30 7 N -1.9074 -2.4851 -0.5465 0
M  V30 8 C -1.6511 -0.4706 -1.0481 0 CFG=1
M  V30 9 C -2.0814 -4.8682 -0.8302 0
M  V30 10 C -1.9307 -1.3552 0.206 0
M  V30 11 N -0.4519 0.3912 -0.9634 0
M  V30 12 O -2.6319 -4.8464 -1.9198 0
M  V30 13 O -2.0952 -5.9971 -0.0893 0
M  V30 14 O -1.9951 -1.2209 1.4051 0
M  V30 15 C -0.5075 1.7445 -0.6956 0
M  V30 16 O -1.569 2.3556 -0.6194 0
M  V30 17 C 0.9096 2.3984 -0.5752 0 CFG=2
M  V30 18 N 1.8963 1.3426 -0.2219 0
M  V30 19 C 0.9279 3.5816 0.3783 0
M  V30 20 C 1.4271 3.5654 1.6349 0
M  V30 21 C 0.3508 4.8601 -0.2141 0
M  V30 22 C 1.4602 4.7569 2.5532 0
M  V30 23 C 0.4267 6.057 0.6917 0
M  V30 24 C 0.9232 6.011 1.9361 0
M  V30 25 H -2.1569 -2.0042 -2.6185 0
M  V30 26 H -1.3841 -3.855 0.9213 0
M  V30 27 H 0.7462 -5.729 -0.2922 0
M  V30 28 H 1.8452 -4.8597 -1.362 0
M  V30 29 H 0.272 -5.3868 -1.9632 0
M  V30 30 H 1.0513 -3.7493 1.3788 0
M  V30 31 H 0.7123 -2.0994 0.8557 0
M  V30 32 H 2.1023 -2.97 0.1951 0
M  V30 33 H -2.5384 0.0822 -1.3789 0
M  V30 34 H 0.4902 0.0033 -1.0235 0
M  V30 35 H -2.6348 -6.6244 -0.6173 0
M  V30 36 H 1.1777 2.7418 -1.582 0
M  V30 37 H 2.8047 1.7975 -0.125 0
M  V30 38 H 1.6568 0.9938 0.7068 0
M  V30 39 H 1.8346 2.6581 2.0682 0
M  V30 40 H -0.6997 4.7089 -0.4816 0
M  V30 41 H 0.8952 5.1009 -1.1352 0
M  V30 42 H 2.4969 4.9323 2.8626 0
M  V30 43 H 0.8815 4.5264 3.4548 0
M  V30 44 H 0.0424 6.9951 0.3005 0
M  V30 45 H 0.9396 6.9115 2.5437 0
M  V30 END ATOM
M  V30 BEGIN BOND
M  V30 1 1 1 2
M  V30 2 1 1 3
M  V30 3 1 2 4
M  V30 4 1 2 5
M  V30 5 1 2 6
M  V30 6 1 3 7
M  V30 7 1 3 8
M  V30 8 1 4 9
M  V30 9 1 7 10
M  V30 10 1 8 11
M  V30 11 2 9 12
M  V30 12 1 9 13
M  V30 13 2 10 14
M  V30 14 1 11 15
M  V30 15 2 15 16
M  V30 16 1 15 17
M  V30 17 1 17 18
M  V30 18 1 17 19
M  V30 19 2 19 20
M  V30 20 1 19 21
M  V30 21 1 20 22
M  V30 22 1 21 23
M  V30 23 1 22 24
M  V30 24 1 4 7
M  V30 25 1 8 10
M  V30 26 2 23 24
M  V30 27 1 3 25
M  V30 28 1 4 26
M  V30 29 1 5 27
M  V30 30 1 5 28
M  V30 31 1 5 29
M  V30 32 1 6 30
M  V30 33 1 6 31
M  V30 34 1 6 32
M  V30 35 1 8 33
M  V30 36 1 11 34
M  V30 37 1 13 35
M  V30 38 1 17 36
M  V30 39 1 18 37
M  V30 40 1 18 38
M  V30 41 1 20 39
M  V30 42 1 21 40
M  V30 43 1 21 41
M  V30 44 1 22 42
M  V30 45 1 22 43
M  V30 46 1 23 44
M  V30 47 1 24 45
M  V30 END BOND
M  V30 BEGIN COLLECTION
M  V30 MDLV30/STEABS ATOMS=(4 3 4 8 17)
M  V30 END COLLECTION
M  V30 END CTAB
M  END
>  <Column 1>
1205

>  <level_0>
1347

>  <index>
1347

>  <Unnamed: 0>
1347

>  <NO.>
1359

>  <Name>
epicillin

>  <IUPAC_name>
(2s-5r-6r)-6-[[(2r)-2-amino-2-cyclohexa-1-4-dien-1-ylacetyl]amino]-3-3-dimethyl-7-oxo-4-thia-1-azabicyclo[3.2.0]heptane-2-carboxylic acid

>  <SMILES>
CC1(C)S[C@@H]2[C@H](NC(=O)[C@H](N)C3=CCC=CC3)C(=O)N2[C@H]1C(=O)O

>  <CID>
71392

>  <logBB>


>  <BBB+/BBB->
BBB-

>  <Inchi>
InChI=1S/C16H21N3O4S/c1-16(2)11(15(22)23)19-13(21)10(14(19)24-16)18-12(20)9(17)8-6-4-3-5-7-8/h3-4-7-9-11-14H-5-6-17H2-1-2H3-(H-18-20)(H-22-23)/t9--10--11+-14-/m1/s1

>  <threshold>
-1

>  <reference>
R1|R6|R27|R27|R30|R30|

>  <group>
B

>  <Class>
-1

>  <ABC>
18.86

>  <ABCGG>
16.28

>  <nAcid>
1

>  <nBase>
1

>  <nAromAtom>
0

>  <nAromBond>
0

>  <nAtom>
45

>  <nHeavyAtom>
24

>  <nSpiro>
0

>  <nBridgehead>
0

>  <nHetero>
8

>  <nN>
3

>  <nO>
4

>  <nF>
0

>  <BalabanJ>
1.61

>  <BertzCT>
657.71

>  <nBonds>
47

>  <nBondsO>
26

>  <nBondsS>
42

>  <nBondsD>
5

>  <nBondsT>
0

>  <nBondsA>
0

>  <nBondsM>
5

>  <nBondsKS>
42

>  <nBondsKD>
5

>  <RNCG>
0.17

>  <RPCG>
0.12

>  <FCSP3>
0.56

>  <SZ>
31

>  <Sm>
29.26

>  <Sv>
28.01

>  <Sse>
45.71

>  <Sp>
30.02

>  <Si>
50.99

>  <MZ>
0.69

>  <Mm>
0.65

>  <Mv>
0.62

>  <Mse>
1.02

>  <Mp>
0.67

>  <Mi>
1.13

>  <NsCH3>
2

>  <NdCH2>
0

>  <NssCH2>
2

>  <NtCH>
0

>  <NdsCH>
3

>  <NaaCH>
0

>  <NsssCH>
4

>  <NddC>
0

>  <NtsC>
0

>  <NdssC>
4

>  <NaasC>
0

>  <NaaaC>
0

>  <NssssC>
1

>  <NsNH3>
0

>  <NsNH2>
1

>  <NssNH2>
0

>  <NdNH>
0

>  <NssNH>
1

>  <NaaNH>
0

>  <NtN>
0

>  <NsssNH>
0

>  <NdsN>
0

>  <NaaN>
0

>  <NsssN>
1

>  <NddsN>
0

>  <NaasN>
0

>  <NssssN>
0

>  <NsOH>
1

>  <NdO>
3

>  <NssO>
0

>  <NaaO>
0

>  <NsF>
0

>  <NsSiH3>
0

>  <NssSiH2>
0

>  <NsssSiH>
0

>  <NssssSi>
0

>  <NsPH2>
0

>  <NssPH>
0

>  <NsssP>
0

>  <NdsssP>
0

>  <NsssssP>
0

>  <NsSH>
0

>  <NdS>
0

>  <NssS>
1

>  <NaaS>
0

>  <NdssS>
0

>  <NddssS>
0

>  <NsCl>
0

>  <NsBr>
0

>  <NsI>
0

>  <fragCpx>
124.08

>  <fMF>
0.36

>  <nHBAcc>
5

>  <nHBDon>
3

>  <Kier1>
18.78

>  <Kier2>
6.96

>  <Lipinski>
1

>  <GhoseFilter>
1

>  <FilterItLogS>
-0.64

>  <VMcGowan>
251.99

>  <LabuteASA>
143.87

>  <PEOE_VSA1>
21.06

>  <PEOE_VSA2>
9.59

>  <PEOE_VSA3>
4.79

>  <PEOE_VSA4>
0

>  <PEOE_VSA5>
11.76

>  <PEOE_VSA6>
18.23

>  <PEOE_VSA7>
32.26

>  <PEOE_VSA8>
4.75

>  <PEOE_VSA9>
0

>  <PEOE_VSA10>
23.5

>  <PEOE_VSA11>
0

>  <PEOE_VSA12>
11.81

>  <PEOE_VSA13>
0

>  <SMR_VSA1>
19.49

>  <SMR_VSA2>
0

>  <SMR_VSA3>
10.22

>  <SMR_VSA4>
5.73

>  <SMR_VSA5>
54.94

>  <SMR_VSA6>
0

>  <SMR_VSA7>
23.8

>  <SMR_VSA8>
0

>  <SMR_VSA9>
0

>  <SlogP_VSA1>
11.05

>  <SlogP_VSA2>
56.04

>  <SlogP_VSA3>
14.38

>  <SlogP_VSA4>
0

>  <SlogP_VSA5>
26.69

>  <SlogP_VSA6>
23.8

>  <SlogP_VSA7>
0

>  <SlogP_VSA8>
0

>  <SlogP_VSA9>
0

>  <SlogP_VSA10>
0

>  <SlogP_VSA11>
0

>  <EState_VSA1>
34.75

>  <EState_VSA2>
11.28

>  <EState_VSA3>
6.42

>  <EState_VSA4>
11.99

>  <EState_VSA5>
16.66

>  <EState_VSA6>
13.85

>  <EState_VSA7>
18.23

>  <EState_VSA8>
5.32

>  <EState_VSA9>
5.73

>  <EState_VSA10>
19.49

>  <VSA_EState1>
-0.61

>  <VSA_EState2>
37.53

>  <VSA_EState3>
11.73

>  <VSA_EState4>
6.83

>  <VSA_EState5>
-1.78

>  <VSA_EState6>
-2.38

>  <VSA_EState7>
7.27

>  <VSA_EState8>
3.59

>  <VSA_EState9>
0

>  <apol>
50.13

>  <bpol>
27.84

>  <nRing>
3

>  <nHRing>
2

>  <naRing>
0

>  <naHRing>
0

>  <nARing 2>
3

>  <nAHRing 2>
2

>  <nFRing>
1

>  <nFHRing>
1

>  <nFaRing>
0

>  <nFaHRing>
0

>  <nFARing 2>
1

>  <nFAHRing 2>
1

>  <nRot>
4

>  <SLogP>
0.22

>  <SMR>
90.09

>  <TopoPSA(NO)>
112.73

>  <TopoPSA>
138.03

>  <JGI1>
0.23

>  <JGI2>
0.1

>  <JGI3>
0.09

>  <JGI4>
0.06

>  <JGI5>
0.03

>  <Diameter>
12

>  <Radius>
6

>  <TMWC10>
127.35

>  <TSRW10>
74.51

>  <MW>
351.13

>  <AMW>
7.8

>  <WPath>
1365

>  <WPol>
39

>  <Zagreb1>
132

>  <Zagreb2>
161

>  <mZagreb2>
5.1

>  <yes>


>  <nAR-cont>
0.691115

>  <nHA-cont>
0.94700071

>  <MWHBN>
0.426929356

>  <MWHBN-cont>
0.371380331

>  <TPSA-cont>
0

>  <pka_cont>
0.97

>  <yes.1>


>  <BBB_SCORE>
2.680186207

>  <MMFF94 Energy>
71.507

$$$$
Compound 1011
Actelion Java MolfileCreator 2.0

  0  0  0  0  0  0              0 V3000
M  V30 BEGIN CTAB
M  V30 COUNTS 44 46 0 0 0
M  V30 BEGIN ATOM
M  V30 1 S 0.0811 -1.2983 -0.1622 0
M  V30 2 C 0.7448 -2.5065 1.094 0
M  V30 3 C -1.6218 -1.4609 0.5139 0 CFG=1
M  V30 4 C -0.064 -2.185 2.3668 0 CFG=1
M  V30 5 C 0.5312 -3.9224 0.5427 0
M  V30 6 C 2.2384 -2.2366 1.2876 0
M  V30 7 N -1.3603 -1.6885 1.9358 0
M  V30 8 C -2.3971 -0.1807 0.9248 0 CFG=1
M  V30 9 C -0.227 -3.3616 3.3167 0
M  V30 10 C -1.9034 -0.5177 2.3562 0
M  V30 11 N -1.933 1.1178 0.3715 0
M  V30 12 O -1.144 -4.1667 3.3466 0
M  V30 13 O 0.8222 -3.5019 4.1543 0
M  V30 14 O -1.8371 0.0527 3.4198 0
M  V30 15 C -2.1494 1.4417 -0.952 0
M  V30 16 O -2.7369 0.677 -1.7189 0
M  V30 17 C -1.5801 2.818 -1.3873 0 CFG=2
M  V30 18 N -2.4343 3.3985 -2.4381 0
M  V30 19 C -0.1368 2.7223 -1.8479 0
M  V30 20 C 0.2865 1.7294 -2.7466 0
M  V30 21 C 0.8014 3.67 -1.4025 0
M  V30 22 C 1.6167 1.6709 -3.1661 0
M  V30 23 C 2.1321 3.6127 -1.8252 0
M  V30 24 C 2.5284 2.61 -2.7025 0
M  V30 25 O 3.8159 2.5163 -3.1401 0
M  V30 26 H -2.2276 -2.2513 0.0611 0
M  V30 27 H 0.4086 -1.3727 2.9367 0
M  V30 28 H -0.5297 -4.1623 0.4114 0
M  V30 29 H 1.0272 -4.0548 -0.4261 0
M  V30 30 H 0.9544 -4.6739 1.219 0
M  V30 31 H 2.4275 -1.213 1.6313 0
M  V30 32 H 2.8 -2.3877 0.3585 0
M  V30 33 H 2.6609 -2.9152 2.0371 0
M  V30 34 H -3.487 -0.2746 0.8397 0
M  V30 35 H -1.415 1.7613 0.9597 0
M  V30 36 H 0.5802 -4.2721 4.7127 0
M  V30 37 H -1.6394 3.4838 -0.5173 0
M  V30 38 H -1.9072 4.1142 -2.9348 0
M  V30 39 H -2.621 2.6601 -3.1211 0
M  V30 40 H -0.4132 0.9858 -3.1251 0
M  V30 41 H 0.5001 4.4656 -0.7236 0
M  V30 42 H 1.9378 0.8931 -3.8531 0
M  V30 43 H 2.837 4.3549 -1.4643 0
M  V30 44 H 4.3333 3.2339 -2.7402 0
M  V30 END ATOM
M  V30 BEGIN BOND
M  V30 1 1 1 2
M  V30 2 1 1 3
M  V30 3 1 2 4
M  V30 4 1 2 5
M  V30 5 1 2 6
M  V30 6 1 3 7
M  V30 7 1 3 8
M  V30 8 1 4 9
M  V30 9 1 7 10
M  V30 10 1 8 11
M  V30 11 2 9 12
M  V30 12 1 9 13
M  V30 13 2 10 14
M  V30 14 1 11 15
M  V30 15 2 15 16
M  V30 16 1 15 17
M  V30 17 1 17 18
M  V30 18 1 17 19
M  V30 19 2 19 20
M  V30 20 1 19 21
M  V30 21 1 20 22
M  V30 22 2 21 23
M  V30 23 2 22 24
M  V30 24 1 24 25
M  V30 25 1 4 7
M  V30 26 1 8 10
M  V30 27 1 23 24
M  V30 28 1 3 26
M  V30 29 1 4 27
M  V30 30 1 5 28
M  V30 31 1 5 29
M  V30 32 1 5 30
M  V30 33 1 6 31
M  V30 34 1 6 32
M  V30 35 1 6 33
M  V30 36 1 8 34
M  V30 37 1 11 35
M  V30 38 1 13 36
M  V30 39 1 17 37
M  V30 40 1 18 38
M  V30 41 1 18 39
M  V30 42 1 20 40
M  V30 43 1 21 41
M  V30 44 1 22 42
M  V30 45 1 23 43
M  V30 46 1 25 44
M  V30 END BOND
M  V30 BEGIN COLLECTION
M  V30 MDLV30/STEABS ATOMS=(4 3 4 8 17)
M  V30 END COLLECTION
M  V30 END CTAB
M  END
>  <Column 1>
1206

>  <level_0>
1348

>  <index>
1348

>  <Unnamed: 0>
1348

>  <NO.>
1360

>  <Name>
amoxicillin

>  <IUPAC_name>
(2s-5r-6r)-6-[[(2r)-2-amino-2-(4-hydroxyphenyl)acetyl]amino]-3-3-dimethyl-7-oxo-4-thia-1-azabicyclo[3.2.0]heptane-2-carboxylic acid;trihydrate

>  <SMILES>
CC1(C)S[C@@H]2[C@H](NC(=O)[C@H](N)c3ccc(O)cc3)C(=O)N2[C@H]1C(=O)O

>  <CID>
33613

>  <logBB>


>  <BBB+/BBB->
BBB-

>  <Inchi>
InChI=1S/C16H19N3O5S/c1-16(2)11(15(23)24)19-13(22)10(14(19)25-16)18-12(21)9(17)7-3-5-8(20)6-4-7/h3-6-9-11-14-20H-17H2-1-2H3-(H-18-21)(H-23-24)/t9--10--11+-14-/m1/s1

>  <threshold>
-1

>  <reference>
R1|R6|R15|R27|R27|R30|R30|R50|

>  <group>
B

>  <Class>
-1

>  <ABC>
19.68

>  <ABCGG>
16.78

>  <nAcid>
1

>  <nBase>
1

>  <nAromAtom>
6

>  <nAromBond>
6

>  <nAtom>
44

>  <nHeavyAtom>
25

>  <nSpiro>
0

>  <nBridgehead>
0

>  <nHetero>
9

>  <nN>
3

>  <nO>
5

>  <nF>
0

>  <BalabanJ>
1.59

>  <BertzCT>
735.79

>  <nBonds>
46

>  <nBondsO>
27

>  <nBondsS>
37

>  <nBondsD>
3

>  <nBondsT>
0

>  <nBondsA>
6

>  <nBondsM>
9

>  <nBondsKS>
40

>  <nBondsKD>
6

>  <RNCG>
0.16

>  <RPCG>
0.1

>  <FCSP3>
0.44

>  <SZ>
32

>  <Sm>
30.42

>  <Sv>
28.18

>  <Sse>
45.15

>  <Sp>
29.7

>  <Si>
49.78

>  <MZ>
0.73

>  <Mm>
0.69

>  <Mv>
0.64

>  <Mse>
1.03

>  <Mp>
0.68

>  <Mi>
1.13

>  <NsCH3>
2

>  <NdCH2>
0

>  <NssCH2>
0

>  <NtCH>
0

>  <NdsCH>
0

>  <NaaCH>
4

>  <NsssCH>
4

>  <NddC>
0

>  <NtsC>
0

>  <NdssC>
3

>  <NaasC>
2

>  <NaaaC>
0

>  <NssssC>
1

>  <NsNH3>
0

>  <NsNH2>
1

>  <NssNH2>
0

>  <NdNH>
0

>  <NssNH>
1

>  <NaaNH>
0

>  <NtN>
0

>  <NsssNH>
0

>  <NdsN>
0

>  <NaaN>
0

>  <NsssN>
1

>  <NddsN>
0

>  <NaasN>
0

>  <NssssN>
0

>  <NsOH>
2

>  <NdO>
3

>  <NssO>
0

>  <NaaO>
0

>  <NsF>
0

>  <NsSiH3>
0

>  <NssSiH2>
0

>  <NsssSiH>
0

>  <NssssSi>
0

>  <NsPH2>
0

>  <NssPH>
0

>  <NsssP>
0

>  <NdsssP>
0

>  <NsssssP>
0

>  <NsSH>
0

>  <NdS>
0

>  <NssS>
1

>  <NaaS>
0

>  <NdssS>
0

>  <NddssS>
0

>  <NsCl>
0

>  <NsBr>
0

>  <NsI>
0

>  <fragCpx>
129.09

>  <fMF>
0.36

>  <nHBAcc>
6

>  <nHBDon>
4

>  <Kier1>
19.75

>  <Kier2>
7.2

>  <Lipinski>
1

>  <GhoseFilter>
1

>  <FilterItLogS>
-1.02

>  <VMcGowan>
253.56

>  <LabuteASA>
147.91

>  <PEOE_VSA1>
26.16

>  <PEOE_VSA2>
9.59

>  <PEOE_VSA3>
4.79

>  <PEOE_VSA4>
0

>  <PEOE_VSA5>
11.76

>  <PEOE_VSA6>
12.13

>  <PEOE_VSA7>
31.54

>  <PEOE_VSA8>
4.75

>  <PEOE_VSA9>
0

>  <PEOE_VSA10>
29.25

>  <PEOE_VSA11>
0

>  <PEOE_VSA12>
11.81

>  <PEOE_VSA13>
0

>  <SMR_VSA1>
24.6

>  <SMR_VSA2>
0

>  <SMR_VSA3>
10.22

>  <SMR_VSA4>
5.73

>  <SMR_VSA5>
42.09

>  <SMR_VSA6>
0

>  <SMR_VSA7>
29.83

>  <SMR_VSA8>
0

>  <SMR_VSA9>
5.75

>  <SlogP_VSA1>
11.05

>  <SlogP_VSA2>
55.1

>  <SlogP_VSA3>
14.38

>  <SlogP_VSA4>
0

>  <SlogP_VSA5>
25.45

>  <SlogP_VSA6>
24.27

>  <SlogP_VSA7>
0

>  <SlogP_VSA8>
0

>  <SlogP_VSA9>
0

>  <SlogP_VSA10>
0

>  <SlogP_VSA11>
5.75

>  <EState_VSA1>
46.03

>  <EState_VSA2>
5.75

>  <EState_VSA3>
5.56

>  <EState_VSA4>
0

>  <EState_VSA5>
40.93

>  <EState_VSA6>
13.85

>  <EState_VSA7>
0

>  <EState_VSA8>
5.32

>  <EState_VSA9>
5.73

>  <EState_VSA10>
24.6

>  <VSA_EState1>
-0.65

>  <VSA_EState2>
37.47

>  <VSA_EState3>
20.86

>  <VSA_EState4>
6.41

>  <VSA_EState5>
-1.94

>  <VSA_EState6>
3.21

>  <VSA_EState7>
0

>  <VSA_EState8>
3.53

>  <VSA_EState9>
0

>  <apol>
49.6

>  <bpol>
25.83

>  <nRing>
3

>  <nHRing>
2

>  <naRing>
1

>  <naHRing>
0

>  <nARing 2>
2

>  <nAHRing 2>
2

>  <nFRing>
1

>  <nFHRing>
1

>  <nFaRing>
0

>  <nFaHRing>
0

>  <nFARing 2>
1

>  <nFAHRing 2>
1

>  <nRot>
4

>  <SLogP>
0.02

>  <SMR>
90.69

>  <TopoPSA(NO)>
132.96

>  <TopoPSA>
158.26

>  <JGI1>
0.26

>  <JGI2>
0.11

>  <JGI3>
0.09

>  <JGI4>
0.06

>  <JGI5>
0.03

>  <Diameter>
13

>  <Radius>
7

>  <TMWC10>
129.7

>  <TSRW10>
75.71

>  <MW>
365.1

>  <AMW>
8.3

>  <WPath>
1551

>  <WPol>
41

>  <Zagreb1>
138

>  <Zagreb2>
168

>  <mZagreb2>
5.26

>  <yes>


>  <nAR-cont>
1

>  <nHA-cont>
0.921834225

>  <MWHBN>
0.523352235

>  <MWHBN-cont>
0

>  <TPSA-cont>
0

>  <pka_cont>
0.97

>  <yes.1>


>  <BBB_SCORE>
2.406834225

>  <MMFF94 Energy>
78.182

$$$$
Compound 1012
Actelion Java MolfileCreator 2.0

  0  0  0  0  0  0              0 V3000
M  V30 BEGIN CTAB
M  V30 COUNTS 43 45 0 0 0
M  V30 BEGIN ATOM
M  V30 1 S -0.406 -0.9746 -1.0559 0
M  V30 2 C -0.0168 -2.4691 -0.0187 0
M  V30 3 C -2.145 -0.8243 -0.4688 0 CFG=1
M  V30 4 C -1.3601 -2.9804 0.5484 0 CFG=1
M  V30 5 C 0.7398 -3.4787 -0.8884 0
M  V30 6 C 0.9113 -2.0013 1.1156 0
M  V30 7 N -2.2452 -1.8334 0.5851 0
M  V30 8 C -2.4648 0.2434 0.6172 0 CFG=1
M  V30 9 C -2.0233 -4.0636 -0.2959 0
M  V30 10 C -2.3502 -0.9473 1.6049 0
M  V30 11 N -1.4867 1.3411 0.8312 0
M  V30 12 O -2.7517 -3.9103 -1.2634 0
M  V30 13 O -1.6958 -5.3091 0.1106 0
M  V30 14 O -2.23 -1.0919 2.7988 0
M  V30 15 C -1.3502 2.3646 -0.0841 0
M  V30 16 O -2.0322 2.4161 -1.1083 0
M  V30 17 C -0.2621 3.4113 0.2756 0 CFG=2
M  V30 18 N -0.5971 4.7124 -0.3286 0
M  V30 19 C 1.1233 2.9531 -0.1398 0
M  V30 20 C 1.3775 2.4546 -1.4274 0
M  V30 21 C 2.1927 3.0532 0.7649 0
M  V30 22 C 2.6605 2.0417 -1.7898 0
M  V30 23 C 3.4757 2.6423 0.3987 0
M  V30 24 C 3.7082 2.1338 -0.8768 0
M  V30 25 H -2.9039 -0.9389 -1.2479 0
M  V30 26 H -1.2498 -3.3624 1.5707 0
M  V30 27 H 1.6971 -3.0721 -1.2362 0
M  V30 28 H 0.1712 -3.774 -1.7772 0
M  V30 29 H 0.9654 -4.3874 -0.3187 0
M  V30 30 H 0.4532 -1.2293 1.7426 0
M  V30 31 H 1.1672 -2.8417 1.7714 0
M  V30 32 H 1.8533 -1.5958 0.7273 0
M  V30 33 H -3.4887 0.6349 0.5694 0
M  V30 34 H -0.8747 1.3218 1.6397 0
M  V30 35 H -2.188 -5.897 -0.5022 0
M  V30 36 H -0.2904 3.5434 1.3645 0
M  V30 37 H 0.2475 5.2786 -0.381 0
M  V30 38 H -0.8817 4.5356 -1.295 0
M  V30 39 H 0.5746 2.3734 -2.159 0
M  V30 40 H 2.0358 3.4562 1.7634 0
M  V30 41 H 2.8395 1.6465 -2.7865 0
M  V30 42 H 4.2955 2.7222 1.1081 0
M  V30 43 H 4.7065 1.8129 -1.1619 0
M  V30 END ATOM
M  V30 BEGIN BOND
M  V30 1 1 1 2
M  V30 2 1 1 3
M  V30 3 1 2 4
M  V30 4 1 2 5
M  V30 5 1 2 6
M  V30 6 1 3 7
M  V30 7 1 3 8
M  V30 8 1 4 9
M  V30 9 1 7 10
M  V30 10 1 8 11
M  V30 11 2 9 12
M  V30 12 1 9 13
M  V30 13 2 10 14
M  V30 14 1 11 15
M  V30 15 2 15 16
M  V30 16 1 15 17
M  V30 17 1 17 18
M  V30 18 1 17 19
M  V30 19 2 19 20
M  V30 20 1 19 21
M  V30 21 1 20 22
M  V30 22 2 21 23
M  V30 23 2 22 24
M  V30 24 1 4 7
M  V30 25 1 8 10
M  V30 26 1 23 24
M  V30 27 1 3 25
M  V30 28 1 4 26
M  V30 29 1 5 27
M  V30 30 1 5 28
M  V30 31 1 5 29
M  V30 32 1 6 30
M  V30 33 1 6 31
M  V30 34 1 6 32
M  V30 35 1 8 33
M  V30 36 1 11 34
M  V30 37 1 13 35
M  V30 38 1 17 36
M  V30 39 1 18 37
M  V30 40 1 18 38
M  V30 41 1 20 39
M  V30 42 1 21 40
M  V30 43 1 22 41
M  V30 44 1 23 42
M  V30 45 1 24 43
M  V30 END BOND
M  V30 BEGIN COLLECTION
M  V30 MDLV30/STEABS ATOMS=(4 3 4 8 17)
M  V30 END COLLECTION
M  V30 END CTAB
M  END
>  <Column 1>
1207

>  <level_0>
1349

>  <index>
1349

>  <Unnamed: 0>
1349

>  <NO.>
1361

>  <Name>
ampicillin

>  <IUPAC_name>
(2s-5r-6r)-6-[[(2r)-2-amino-2-phenylacetyl]amino]-3-3-dimethyl-7-oxo-4-thia-1-azabicyclo[3.2.0]heptane-2-carboxylic acid

>  <SMILES>
CC1(C)S[C@@H]2[C@H](NC(=O)[C@H](N)c3ccccc3)C(=O)N2[C@H]1C(=O)O

>  <CID>
6249

>  <logBB>


>  <BBB+/BBB->
BBB-

>  <Inchi>
InChI=1S/C16H19N3O4S/c1-16(2)11(15(22)23)19-13(21)10(14(19)24-16)18-12(20)9(17)8-6-4-3-5-7-8/h3-7-9-11-14H-17H2-1-2H3-(H-18-20)(H-22-23)/t9--10--11+-14-/m1/s1

>  <threshold>
-1

>  <reference>
R1|R7|R6|R15|R27|R27|R29|R30|R30|

>  <group>
B

>  <Class>
-1

>  <ABC>
18.86

>  <ABCGG>
16.28

>  <nAcid>
1

>  <nBase>
1

>  <nAromAtom>
6

>  <nAromBond>
6

>  <nAtom>
43

>  <nHeavyAtom>
24

>  <nSpiro>
0

>  <nBridgehead>
0

>  <nHetero>
8

>  <nN>
3

>  <nO>
4

>  <nF>
0

>  <BalabanJ>
1.61

>  <BertzCT>
693.82

>  <nBonds>
45

>  <nBondsO>
26

>  <nBondsS>
36

>  <nBondsD>
3

>  <nBondsT>
0

>  <nBondsA>
6

>  <nBondsM>
9

>  <nBondsKS>
39

>  <nBondsKD>
6

>  <RNCG>
0.17

>  <RPCG>
0.12

>  <FCSP3>
0.44

>  <SZ>
30.67

>  <Sm>
29.09

>  <Sv>
27.47

>  <Sse>
43.82

>  <Sp>
29.22

>  <Si>
48.58

>  <MZ>
0.71

>  <Mm>
0.68

>  <Mv>
0.64

>  <Mse>
1.02

>  <Mp>
0.68

>  <Mi>
1.13

>  <NsCH3>
2

>  <NdCH2>
0

>  <NssCH2>
0

>  <NtCH>
0

>  <NdsCH>
0

>  <NaaCH>
5

>  <NsssCH>
4

>  <NddC>
0

>  <NtsC>
0

>  <NdssC>
3

>  <NaasC>
1

>  <NaaaC>
0

>  <NssssC>
1

>  <NsNH3>
0

>  <NsNH2>
1

>  <NssNH2>
0

>  <NdNH>
0

>  <NssNH>
1

>  <NaaNH>
0

>  <NtN>
0

>  <NsssNH>
0

>  <NdsN>
0

>  <NaaN>
0

>  <NsssN>
1

>  <NddsN>
0

>  <NaasN>
0

>  <NssssN>
0

>  <NsOH>
1

>  <NdO>
3

>  <NssO>
0

>  <NaaO>
0

>  <NsF>
0

>  <NsSiH3>
0

>  <NssSiH2>
0

>  <NsssSiH>
0

>  <NssssSi>
0

>  <NsPH2>
0

>  <NssPH>
0

>  <NsssP>
0

>  <NdsssP>
0

>  <NsssssP>
0

>  <NsSH>
0

>  <NdS>
0

>  <NssS>
1

>  <NaaS>
0

>  <NdssS>
0

>  <NddssS>
0

>  <NsCl>
0

>  <NsBr>
0

>  <NsI>
0

>  <fragCpx>
124.08

>  <fMF>
0.37

>  <nHBAcc>
5

>  <nHBDon>
3

>  <Kier1>
18.78

>  <Kier2>
6.96

>  <Lipinski>
1

>  <GhoseFilter>
1

>  <FilterItLogS>
-1.45

>  <VMcGowan>
247.69

>  <LabuteASA>
143.12

>  <PEOE_VSA1>
21.06

>  <PEOE_VSA2>
9.59

>  <PEOE_VSA3>
4.79

>  <PEOE_VSA4>
0

>  <PEOE_VSA5>
11.76

>  <PEOE_VSA6>
30.33

>  <PEOE_VSA7>
19.41

>  <PEOE_VSA8>
4.75

>  <PEOE_VSA9>
0

>  <PEOE_VSA10>
23.5

>  <PEOE_VSA11>
0

>  <PEOE_VSA12>
11.81

>  <PEOE_VSA13>
0

>  <SMR_VSA1>
19.49

>  <SMR_VSA2>
0

>  <SMR_VSA3>
10.22

>  <SMR_VSA4>
5.73

>  <SMR_VSA5>
42.09

>  <SMR_VSA6>
0

>  <SMR_VSA7>
35.9

>  <SMR_VSA8>
0

>  <SMR_VSA9>
0

>  <SlogP_VSA1>
11.05

>  <SlogP_VSA2>
49.99

>  <SlogP_VSA3>
14.38

>  <SlogP_VSA4>
0

>  <SlogP_VSA5>
25.45

>  <SlogP_VSA6>
30.33

>  <SlogP_VSA7>
0

>  <SlogP_VSA8>
0

>  <SlogP_VSA9>
0

>  <SlogP_VSA10>
0

>  <SlogP_VSA11>
0

>  <EState_VSA1>
34.75

>  <EState_VSA2>
11.28

>  <EState_VSA3>
5.56

>  <EState_VSA4>
0

>  <EState_VSA5>
16.66

>  <EState_VSA6>
38.11

>  <EState_VSA7>
6.07

>  <EState_VSA8>
5.32

>  <EState_VSA9>
5.73

>  <EState_VSA10>
19.49

>  <VSA_EState1>
-0.62

>  <VSA_EState2>
37.46

>  <VSA_EState3>
11.67

>  <VSA_EState4>
6.59

>  <VSA_EState5>
-1.86

>  <VSA_EState6>
6.38

>  <VSA_EState7>
0

>  <VSA_EState8>
3.58

>  <VSA_EState9>
0

>  <apol>
48.8

>  <bpol>
25.83

>  <nRing>
3

>  <nHRing>
2

>  <naRing>
1

>  <naHRing>
0

>  <nARing 2>
2

>  <nAHRing 2>
2

>  <nFRing>
1

>  <nFHRing>
1

>  <nFaRing>
0

>  <nFaHRing>
0

>  <nFARing 2>
1

>  <nFAHRing 2>
1

>  <nRot>
4

>  <SLogP>
0.32

>  <SMR>
89.03

>  <TopoPSA(NO)>
112.73

>  <TopoPSA>
138.03

>  <JGI1>
0.23

>  <JGI2>
0.1

>  <JGI3>
0.09

>  <JGI4>
0.06

>  <JGI5>
0.03

>  <Diameter>
12

>  <Radius>
6

>  <TMWC10>
127.35

>  <TSRW10>
74.51

>  <MW>
349.11

>  <AMW>
8.12

>  <WPath>
1365

>  <WPol>
39

>  <Zagreb1>
132

>  <Zagreb2>
161

>  <mZagreb2>
5.1

>  <yes>


>  <nAR-cont>
1

>  <nHA-cont>
0.94700071

>  <MWHBN>
0.428162712

>  <MWHBN-cont>
0.366684901

>  <TPSA-cont>
0

>  <pka_cont>
0.97

>  <yes.1>


>  <BBB_SCORE>
2.982028061

>  <MMFF94 Energy>
89.386

$$$$
Compound 1013
Actelion Java MolfileCreator 2.0

  0  0  0  0  0  0              0 V3000
M  V30 BEGIN CTAB
M  V30 COUNTS 57 61 0 0 0
M  V30 BEGIN ATOM
M  V30 1 S -1.5518 0.7348 -0.7348 0
M  V30 2 C -1.8284 -1.0356 -0.2171 0
M  V30 3 C -0.0879 0.8789 0.3634 0 CFG=1
M  V30 4 C -0.3974 -1.5986 -0.0689 0 CFG=1
M  V30 5 C -2.6379 -1.0182 1.0874 0
M  V30 6 C -2.6148 -1.7435 -1.3223 0
M  V30 7 N 0.4483 -0.4828 0.3331 0
M  V30 8 C 1.2632 1.3604 -0.2272 0 CFG=1
M  V30 9 C -0.3138 -2.8126 0.8571 0
M  V30 10 C 1.6019 -0.1499 -0.3028 0
M  V30 11 N 1.234 2.0844 -1.5233 0
M  V30 12 O -0.963 -3.8369 0.6814 0
M  V30 13 O 0.5291 -2.6042 1.8998 0
M  V30 14 O 2.4386 -0.8378 -0.8377 0
M  V30 15 C 0.7589 3.3779 -1.6004 0
M  V30 16 C 0.7033 -3.734 2.7449 0
M  V30 17 O 0.3441 3.9747 -0.6049 0
M  V30 18 C 0.7719 3.9928 -3.0249 0 CFG=2
M  V30 19 O 1.7002 -4.6366 2.2288 0
M  V30 20 C 1.2885 -3.2736 4.027 0
M  V30 21 N 0.9983 5.4462 -2.9368 0
M  V30 22 C -0.5004 3.6829 -3.7915 0
M  V30 23 C 2.768 -4.7549 3.0692 0
M  V30 24 C 2.5088 -3.8877 4.2082 0
M  V30 25 C 0.7996 -2.3898 4.9763 0
M  V30 26 C -1.7697 3.8654 -3.219 0
M  V30 27 C -0.422 3.2361 -5.1208 0
M  V30 28 O 3.7453 -5.4571 2.9075 0
M  V30 29 C 3.3002 -3.6639 5.3213 0
M  V30 30 C 1.5774 -2.1425 6.1127 0
M  V30 31 C -2.9266 3.5831 -3.9476 0
M  V30 32 C -1.5806 2.9569 -5.8481 0
M  V30 33 C 2.8206 -2.7757 6.2849 0
M  V30 34 C -2.8319 3.1275 -5.2604 0
M  V30 35 H -0.3032 1.226 1.3785 0
M  V30 36 H -0.0181 -1.9448 -1.0408 0
M  V30 37 H -2.8979 -2.0343 1.4042 0
M  V30 38 H -2.0869 -0.5525 1.9122 0
M  V30 39 H -3.5835 -0.476 0.9661 0
M  V30 40 H -2.7884 -2.7944 -1.066 0
M  V30 41 H -2.08 -1.7258 -2.279 0
M  V30 42 H -3.597 -1.2818 -1.4779 0
M  V30 43 H 1.9026 1.882 0.4962 0
M  V30 44 H 1.5325 1.6169 -2.3725 0
M  V30 45 H -0.2285 -4.2824 2.9309 0
M  V30 46 H 1.6302 3.5634 -3.5563 0
M  V30 47 H 0.7122 5.8765 -3.8146 0
M  V30 48 H 0.3637 5.8114 -2.2227 0
M  V30 49 H -0.1591 -1.8963 4.8473 0
M  V30 50 H -1.8706 4.2232 -2.1952 0
M  V30 51 H 0.5443 3.1045 -5.6034 0
M  V30 52 H 4.2582 -4.1618 5.4354 0
M  V30 53 H 1.2189 -1.4515 6.8738 0
M  V30 54 H -3.9023 3.7191 -3.4877 0
M  V30 55 H -1.5073 2.6084 -6.8752 0
M  V30 56 H 3.4123 -2.5705 7.1747 0
M  V30 57 H -3.7339 2.909 -5.826 0
M  V30 END ATOM
M  V30 BEGIN BOND
M  V30 1 1 1 2
M  V30 2 1 1 3
M  V30 3 1 2 4
M  V30 4 1 2 5
M  V30 5 1 2 6
M  V30 6 1 3 7
M  V30 7 1 3 8
M  V30 8 1 4 9
M  V30 9 1 7 10
M  V30 10 1 8 11
M  V30 11 2 9 12
M  V30 12 1 9 13
M  V30 13 2 10 14
M  V30 14 1 11 15
M  V30 15 1 13 16
M  V30 16 2 15 17
M  V30 17 1 15 18
M  V30 18 1 16 19
M  V30 19 1 16 20
M  V30 20 1 18 21
M  V30 21 1 18 22
M  V30 22 1 19 23
M  V30 23 2 20 24
M  V30 24 1 20 25
M  V30 25 2 22 26
M  V30 26 1 22 27
M  V30 27 2 23 28
M  V30 28 1 24 29
M  V30 29 2 25 30
M  V30 30 1 26 31
M  V30 31 2 27 32
M  V30 32 2 29 33
M  V30 33 2 31 34
M  V30 34 1 4 7
M  V30 35 1 8 10
M  V30 36 1 23 24
M  V30 37 1 30 33
M  V30 38 1 32 34
M  V30 39 1 3 35
M  V30 40 1 4 36
M  V30 41 1 5 37
M  V30 42 1 5 38
M  V30 43 1 5 39
M  V30 44 1 6 40
M  V30 45 1 6 41
M  V30 46 1 6 42
M  V30 47 1 8 43
M  V30 48 1 11 44
M  V30 49 1 16 45
M  V30 50 1 18 46
M  V30 51 1 21 47
M  V30 52 1 21 48
M  V30 53 1 25 49
M  V30 54 1 26 50
M  V30 55 1 27 51
M  V30 56 1 29 52
M  V30 57 1 30 53
M  V30 58 1 31 54
M  V30 59 1 32 55
M  V30 60 1 33 56
M  V30 61 1 34 57
M  V30 END BOND
M  V30 BEGIN COLLECTION
M  V30 MDLV30/STEABS ATOMS=(4 3 4 8 18)
M  V30 END COLLECTION
M  V30 END CTAB
M  END
>  <Column 1>
1209

>  <level_0>
1351

>  <index>
1351

>  <Unnamed: 0>
1351

>  <NO.>
1363

>  <Name>
talampicillin

>  <IUPAC_name>
(3-oxo-1h-2-benzofuran-1-yl) (2s-5r-6r)-6-[[(2r)-2-amino-2-phenylacetyl]amino]-3-3-dimethyl-7-oxo-4-thia-1-azabicyclo[3.2.0]heptane-2-carboxylate

>  <SMILES>
CC1(C)S[C@@H]2[C@H](NC(=O)[C@H](N)c3ccccc3)C(=O)N2[C@H]1C(=O)OC1OC(=O)c2ccccc21

>  <CID>
71447

>  <logBB>


>  <BBB+/BBB->
BBB-

>  <Inchi>
InChI=1S/C24H23N3O6S/c1-24(2)17(22(31)33-23-14-11-7-6-10-13(14)21(30)32-23)27-19(29)16(20(27)34-24)26-18(28)15(25)12-8-4-3-5-9-12/h3-11-15-17-20-23H-25H2-1-2H3-(H-26-28)/t15--16--17+-20--23?/m1/s1

>  <threshold>
-1

>  <reference>
R1|R6|R27|R30|

>  <group>
B

>  <Class>
-1

>  <ABC>
27.23

>  <ABCGG>
21.55

>  <nAcid>
0

>  <nBase>
1

>  <nAromAtom>
12

>  <nAromBond>
12

>  <nAtom>
57

>  <nHeavyAtom>
34

>  <nSpiro>
0

>  <nBridgehead>
0

>  <nHetero>
10

>  <nN>
3

>  <nO>
6

>  <nF>
0

>  <BalabanJ>
1.21

>  <BertzCT>
1186.24

>  <nBonds>
61

>  <nBondsO>
38

>  <nBondsS>
45

>  <nBondsD>
4

>  <nBondsT>
0

>  <nBondsA>
12

>  <nBondsM>
16

>  <nBondsKS>
51

>  <nBondsKD>
10

>  <RNCG>
0.12

>  <RPCG>
0.09

>  <FCSP3>
0.33

>  <SZ>
42

>  <Sm>
40.09

>  <Sv>
37.98

>  <Sse>
58.26

>  <Sp>
39.78

>  <Si>
63.82

>  <MZ>
0.74

>  <Mm>
0.7

>  <Mv>
0.67

>  <Mse>
1.02

>  <Mp>
0.7

>  <Mi>
1.12

>  <NsCH3>
2

>  <NdCH2>
0

>  <NssCH2>
0

>  <NtCH>
0

>  <NdsCH>
0

>  <NaaCH>
9

>  <NsssCH>
5

>  <NddC>
0

>  <NtsC>
0

>  <NdssC>
4

>  <NaasC>
3

>  <NaaaC>
0

>  <NssssC>
1

>  <NsNH3>
0

>  <NsNH2>
1

>  <NssNH2>
0

>  <NdNH>
0

>  <NssNH>
1

>  <NaaNH>
0

>  <NtN>
0

>  <NsssNH>
0

>  <NdsN>
0

>  <NaaN>
0

>  <NsssN>
1

>  <NddsN>
0

>  <NaasN>
0

>  <NssssN>
0

>  <NsOH>
0

>  <NdO>
4

>  <NssO>
2

>  <NaaO>
0

>  <NsF>
0

>  <NsSiH3>
0

>  <NssSiH2>
0

>  <NsssSiH>
0

>  <NssssSi>
0

>  <NsPH2>
0

>  <NssPH>
0

>  <NsssP>
0

>  <NdsssP>
0

>  <NsssssP>
0

>  <NsSH>
0

>  <NdS>
0

>  <NssS>
1

>  <NaaS>
0

>  <NdssS>
0

>  <NddssS>
0

>  <NsCl>
0

>  <NsBr>
0

>  <NsI>
0

>  <fragCpx>
322.1

>  <fMF>
0.47

>  <nHBAcc>
8

>  <nHBDon>
2

>  <Kier1>
25.64

>  <Kier2>
10.05

>  <Lipinski>
1

>  <GhoseFilter>
0

>  <FilterItLogS>
-3.51

>  <VMcGowan>
333.23

>  <LabuteASA>
199.5

>  <PEOE_VSA1>
25.42

>  <PEOE_VSA2>
9.59

>  <PEOE_VSA3>
9.59

>  <PEOE_VSA4>
0

>  <PEOE_VSA5>
11.76

>  <PEOE_VSA6>
48.53

>  <PEOE_VSA7>
25.48

>  <PEOE_VSA8>
10.31

>  <PEOE_VSA9>
5.56

>  <PEOE_VSA10>
23.5

>  <PEOE_VSA11>
0

>  <PEOE_VSA12>
11.81

>  <PEOE_VSA13>
6.29

>  <SMR_VSA1>
28.65

>  <SMR_VSA2>
0

>  <SMR_VSA3>
10.22

>  <SMR_VSA4>
5.73

>  <SMR_VSA5>
48.38

>  <SMR_VSA6>
0

>  <SMR_VSA7>
71.29

>  <SMR_VSA8>
0

>  <SMR_VSA9>
0

>  <SlogP_VSA1>
11.05

>  <SlogP_VSA2>
50.86

>  <SlogP_VSA3>
23.86

>  <SlogP_VSA4>
0

>  <SlogP_VSA5>
47.66

>  <SlogP_VSA6>
54.6

>  <SlogP_VSA7>
0

>  <SlogP_VSA8>
0

>  <SlogP_VSA9>
0

>  <SlogP_VSA10>
0

>  <SlogP_VSA11>
0

>  <EState_VSA1>
52.38

>  <EState_VSA2>
5.91

>  <EState_VSA3>
16.69

>  <EState_VSA4>
0

>  <EState_VSA5>
16.66

>  <EState_VSA6>
48.53

>  <EState_VSA7>
19.91

>  <EState_VSA8>
5.32

>  <EState_VSA9>
15.21

>  <EState_VSA10>
19.18

>  <VSA_EState1>
10.07

>  <VSA_EState2>
52.32

>  <VSA_EState3>
2.29

>  <VSA_EState4>
7.51

>  <VSA_EState5>
-2.09

>  <VSA_EState6>
12.93

>  <VSA_EState7>
-1.16

>  <VSA_EState8>
3.66

>  <VSA_EState9>
0

>  <apol>
66.43

>  <bpol>
34.19

>  <nRing>
5

>  <nHRing>
3

>  <naRing>
2

>  <naHRing>
0

>  <nARing 2>
3

>  <nAHRing 2>
3

>  <nFRing>
2

>  <nFHRing>
2

>  <nFaRing>
0

>  <nFaHRing>
0

>  <nFARing 2>
2

>  <nFAHRing 2>
2

>  <nRot>
5

>  <SLogP>
1.65

>  <SMR>
122.08

>  <TopoPSA(NO)>
128.03

>  <TopoPSA>
153.33

>  <JGI1>
0.2

>  <JGI2>
0.09

>  <JGI3>
0.08

>  <JGI4>
0.04

>  <JGI5>
0.03

>  <Diameter>
17

>  <Radius>
9

>  <TMWC10>
152.69

>  <TSRW10>
87.97

>  <MW>
481.13

>  <AMW>
8.44

>  <WPath>
3635

>  <WPol>
58

>  <Zagreb1>
192

>  <Zagreb2>
236

>  <mZagreb2>
7.18

>  <yes>


>  <nAR-cont>
0.691115

>  <nHA-cont>
0.568589513

>  <MWHBN>
0.455899149

>  <MWHBN-cont>
0

>  <TPSA-cont>
0

>  <pka_cont>
0.97

>  <yes.1>


>  <BBB_SCORE>
1.744704513

>  <MMFF94 Energy>
96.964

$$$$
Compound 1014
Actelion Java MolfileCreator 2.0

  0  0  0  0  0  0              0 V3000
M  V30 BEGIN CTAB
M  V30 COUNTS 70 74 0 0 0
M  V30 BEGIN ATOM
M  V30 1 S -3.6413 1.8598 -1.698 0
M  V30 2 C -4.4168 3.5498 -1.7627 0
M  V30 3 C -2.0501 2.3883 -2.4556 0 CFG=1
M  V30 4 C -3.5139 4.4172 -2.6681 0 CFG=1
M  V30 5 C -5.8625 3.4023 -2.2496 0
M  V30 6 C -4.4341 4.0945 -0.3236 0
M  V30 7 N -2.1873 3.8383 -2.5865 0
M  V30 8 C -0.8376 2.6543 -1.5176 0 CFG=1
M  V30 9 C -3.9328 4.4348 -4.1347 0
M  V30 10 C -1.2482 4.1445 -1.6592 0
M  V30 11 N -0.8822 2.1186 -0.1316 0
M  V30 12 O -3.6409 3.6253 -5.0008 0
M  V30 13 O -4.7451 5.4732 -4.4283 0
M  V30 14 O -1.0 5.183 -1.0931 0
M  V30 15 C -0.7221 0.7736 0.1277 0
M  V30 16 O -0.5546 -0.0521 -0.7714 0
M  V30 17 C -0.7767 0.3868 1.6254 0 CFG=2
M  V30 18 N -0.2998 -0.9765 1.7698 0
M  V30 19 C -2.172 0.5374 2.2051 0
M  V30 20 C 0.3328 -1.4148 2.9061 0
M  V30 21 C -3.298 0.0034 1.5583 0
M  V30 22 C -2.3521 1.2009 3.4292 0
M  V30 23 O 0.5403 -0.6969 3.8811 0
M  V30 24 C 0.7658 -2.8681 2.8562 0
M  V30 25 C -4.5735 0.1635 2.1026 0
M  V30 26 C -3.6281 1.3559 3.9738 0
M  V30 27 C 2.0269 -3.0665 2.0506 0
M  V30 28 C -4.7386 0.8428 3.3075 0
M  V30 29 C 3.254 -2.5944 2.5363 0
M  V30 30 C 1.9875 -3.6997 0.8008 0
M  V30 31 C 4.4222 -2.7585 1.7883 0
M  V30 32 C 3.1571 -3.8652 0.0519 0
M  V30 33 C 4.3817 -3.4028 0.5471 0
M  V30 34 C 5.649 -3.5748 -0.2384 0
M  V30 35 N 6.5947 -2.7163 -0.0366 0
M  V30 36 N 5.7489 -4.6351 -1.1085 0
M  V30 37 C 7.8317 -2.8555 -0.8085 0
M  V30 38 C 6.9259 -4.8627 -1.9073 0
M  V30 39 C 8.1266 -4.3001 -1.1744 0
M  V30 40 H -1.8067 1.8935 -3.4003 0
M  V30 41 H -3.4603 5.454 -2.3138 0
M  V30 42 H -5.9263 2.9185 -3.2306 0
M  V30 43 H -6.3459 4.383 -2.3286 0
M  V30 44 H -6.4625 2.8038 -1.5532 0
M  V30 45 H -4.8707 5.1 -0.3006 0
M  V30 46 H -3.432 4.1668 0.1118 0
M  V30 47 H -5.0381 3.4647 0.3408 0
M  V30 48 H 0.136 2.4546 -1.9823 0
M  V30 49 H -1.0693 2.7461 0.6451 0
M  V30 50 H -4.9274 5.3708 -5.3874 0
M  V30 51 H -0.0792 1.0545 2.1481 0
M  V30 52 H -0.3514 -1.5678 0.9476 0
M  V30 53 H -3.1934 -0.538 0.6195 0
M  V30 54 H -1.4935 1.5869 3.9773 0
M  V30 55 H -0.0554 -3.4685 2.4459 0
M  V30 56 H 0.9242 -3.2246 3.8812 0
M  V30 57 H -5.4377 -0.2457 1.5855 0
M  V30 58 H -3.753 1.8688 4.9243 0
M  V30 59 H -5.7314 0.9617 3.7335 0
M  V30 60 H 3.3079 -2.0867 3.4985 0
M  V30 61 H 1.0458 -4.0613 0.3932 0
M  V30 62 H 5.3661 -2.3825 2.1773 0
M  V30 63 H 3.0907 -4.328 -0.9275 0
M  V30 64 H 5.0227 -5.338 -1.1412 0
M  V30 65 H 7.7648 -2.2322 -1.708 0
M  V30 66 H 8.6602 -2.4633 -0.2087 0
M  V30 67 H 7.0558 -5.9348 -2.0867 0
M  V30 68 H 6.8046 -4.3749 -2.8809 0
M  V30 69 H 8.3152 -4.8812 -0.2628 0
M  V30 70 H 9.0236 -4.3639 -1.799 0
M  V30 END ATOM
M  V30 BEGIN BOND
M  V30 1 1 1 2
M  V30 2 1 1 3
M  V30 3 1 2 4
M  V30 4 1 2 5
M  V30 5 1 2 6
M  V30 6 1 3 7
M  V30 7 1 3 8
M  V30 8 1 4 9
M  V30 9 1 7 10
M  V30 10 1 8 11
M  V30 11 2 9 12
M  V30 12 1 9 13
M  V30 13 2 10 14
M  V30 14 1 11 15
M  V30 15 2 15 16
M  V30 16 1 15 17
M  V30 17 1 17 18
M  V30 18 1 17 19
M  V30 19 1 18 20
M  V30 20 2 19 21
M  V30 21 1 19 22
M  V30 22 2 20 23
M  V30 23 1 20 24
M  V30 24 1 21 25
M  V30 25 2 22 26
M  V30 26 1 24 27
M  V30 27 2 25 28
M  V30 28 2 27 29
M  V30 29 1 27 30
M  V30 30 1 29 31
M  V30 31 2 30 32
M  V30 32 2 31 33
M  V30 33 1 33 34
M  V30 34 2 34 35
M  V30 35 1 34 36
M  V30 36 1 35 37
M  V30 37 1 36 38
M  V30 38 1 37 39
M  V30 39 1 4 7
M  V30 40 1 8 10
M  V30 41 1 26 28
M  V30 42 1 32 33
M  V30 43 1 38 39
M  V30 44 1 3 40
M  V30 45 1 4 41
M  V30 46 1 5 42
M  V30 47 1 5 43
M  V30 48 1 5 44
M  V30 49 1 6 45
M  V30 50 1 6 46
M  V30 51 1 6 47
M  V30 52 1 8 48
M  V30 53 1 11 49
M  V30 54 1 13 50
M  V30 55 1 17 51
M  V30 56 1 18 52
M  V30 57 1 21 53
M  V30 58 1 22 54
M  V30 59 1 24 55
M  V30 60 1 24 56
M  V30 61 1 25 57
M  V30 62 1 26 58
M  V30 63 1 28 59
M  V30 64 1 29 60
M  V30 65 1 30 61
M  V30 66 1 31 62
M  V30 67 1 32 63
M  V30 68 1 36 64
M  V30 69 1 37 65
M  V30 70 1 37 66
M  V30 71 1 38 67
M  V30 72 1 38 68
M  V30 73 1 39 69
M  V30 74 1 39 70
M  V30 END BOND
M  V30 BEGIN COLLECTION
M  V30 MDLV30/STEABS ATOMS=(4 3 4 8 17)
M  V30 END COLLECTION
M  V30 END CTAB
M  END
>  <Column 1>
1210

>  <level_0>
1352

>  <index>
1352

>  <Unnamed: 0>
1352

>  <NO.>
1364

>  <Name>
rotamicillin

>  <IUPAC_name>
(2s-5r-6r)-3-3-dimethyl-7-oxo-6-[[(2r)-2-phenyl-2-[[2-[4-(1-4-5-6-tetrahydropyrimidin-2-yl)phenyl]acetyl]amino]acetyl]amino]-4-thia-1-azabicyclo[3.2.0]heptane-2-carboxylic acid

>  <SMILES>
CC1(C)S[C@@H]2[C@H](NC(=O)[C@H](NC(=O)Cc3ccc(C4=NCCCN4)cc3)c3ccccc3)C(=O)N2[C@H]1C(=O)O

>  <CID>
3058737

>  <logBB>


>  <BBB+/BBB->
BBB-

>  <Inchi>
InChI=1S/C28H31N5O5S/c1-28(2)22(27(37)38)33-25(36)21(26(33)39-28)32-24(35)20(17-7-4-3-5-8-17)31-19(34)15-16-9-11-18(12-10-16)23-29-13-6-14-30-23/h3-5-7-12-20-22-26H-6-13-15H2-1-2H3-(H-29-30)(H-31-34)(H-32-35)(H-37-38)/t20--21--22+-26-/m1/s1

>  <threshold>
-1

>  <reference>
R1|R6|R27|R30|

>  <group>
B

>  <Class>
-1

>  <ABC>
30.84

>  <ABCGG>
23.31

>  <nAcid>
1

>  <nBase>
2

>  <nAromAtom>
12

>  <nAromBond>
12

>  <nAtom>
70

>  <nHeavyAtom>
39

>  <nSpiro>
0

>  <nBridgehead>
0

>  <nHetero>
11

>  <nN>
5

>  <nO>
5

>  <nF>
0

>  <BalabanJ>
1.16

>  <BertzCT>
1313.38

>  <nBonds>
74

>  <nBondsO>
43

>  <nBondsS>
57

>  <nBondsD>
5

>  <nBondsT>
0

>  <nBondsA>
12

>  <nBondsM>
17

>  <nBondsKS>
63

>  <nBondsKD>
11

>  <RNCG>
0.12

>  <RPCG>
0.08

>  <FCSP3>
0.39

>  <SZ>
48.33

>  <Sm>
45.76

>  <Sv>
44.95

>  <Sse>
70.81

>  <Sp>
47.81

>  <Si>
78.86

>  <MZ>
0.69

>  <Mm>
0.65

>  <Mv>
0.64

>  <Mse>
1.01

>  <Mp>
0.68

>  <Mi>
1.13

>  <NsCH3>
2

>  <NdCH2>
0

>  <NssCH2>
4

>  <NtCH>
0

>  <NdsCH>
0

>  <NaaCH>
9

>  <NsssCH>
4

>  <NddC>
0

>  <NtsC>
0

>  <NdssC>
5

>  <NaasC>
3

>  <NaaaC>
0

>  <NssssC>
1

>  <NsNH3>
0

>  <NsNH2>
0

>  <NssNH2>
0

>  <NdNH>
0

>  <NssNH>
3

>  <NaaNH>
0

>  <NtN>
0

>  <NsssNH>
0

>  <NdsN>
1

>  <NaaN>
0

>  <NsssN>
1

>  <NddsN>
0

>  <NaasN>
0

>  <NssssN>
0

>  <NsOH>
1

>  <NdO>
4

>  <NssO>
0

>  <NaaO>
0

>  <NsF>
0

>  <NsSiH3>
0

>  <NssSiH2>
0

>  <NsssSiH>
0

>  <NssssSi>
0

>  <NsPH2>
0

>  <NssPH>
0

>  <NsssP>
0

>  <NdsssP>
0

>  <NsssssP>
0

>  <NsSH>
0

>  <NdS>
0

>  <NssS>
1

>  <NaaS>
0

>  <NdssS>
0

>  <NddssS>
0

>  <NsCl>
0

>  <NsBr>
0

>  <NsI>
0

>  <fragCpx>
367.11

>  <fMF>
0.44

>  <nHBAcc>
7

>  <nHBDon>
4

>  <Kier1>
30.46

>  <Kier2>
13.11

>  <Lipinski>
0

>  <GhoseFilter>
0

>  <FilterItLogS>
-5.13

>  <VMcGowan>
399.38

>  <LabuteASA>
230.18

>  <PEOE_VSA1>
25.96

>  <PEOE_VSA2>
19.38

>  <PEOE_VSA3>
4.79

>  <PEOE_VSA4>
0

>  <PEOE_VSA5>
11.76

>  <PEOE_VSA6>
54.6

>  <PEOE_VSA7>
31.4

>  <PEOE_VSA8>
23.4

>  <PEOE_VSA9>
6.42

>  <PEOE_VSA10>
29.34

>  <PEOE_VSA11>
0

>  <PEOE_VSA12>
17.72

>  <PEOE_VSA13>
0

>  <SMR_VSA1>
24.28

>  <SMR_VSA2>
0

>  <SMR_VSA3>
20.85

>  <SMR_VSA4>
4.99

>  <SMR_VSA5>
54.94

>  <SMR_VSA6>
13.09

>  <SMR_VSA7>
71.29

>  <SMR_VSA8>
0

>  <SMR_VSA9>
0

>  <SlogP_VSA1>
15.95

>  <SlogP_VSA2>
74.83

>  <SlogP_VSA3>
25.6

>  <SlogP_VSA4>
0

>  <SlogP_VSA5>
43

>  <SlogP_VSA6>
59.59

>  <SlogP_VSA7>
0

>  <SlogP_VSA8>
0

>  <SlogP_VSA9>
0

>  <SlogP_VSA10>
0

>  <SlogP_VSA11>
0

>  <EState_VSA1>
46.03

>  <EState_VSA2>
12.33

>  <EState_VSA3>
5.56

>  <EState_VSA4>
36.47

>  <EState_VSA5>
16.66

>  <EState_VSA6>
38.11

>  <EState_VSA7>
30.33

>  <EState_VSA8>
20.94

>  <EState_VSA9>
0

>  <EState_VSA10>
24.28

>  <VSA_EState1>
-0.7

>  <VSA_EState2>
56.95

>  <VSA_EState3>
18.03

>  <VSA_EState4>
2.32

>  <VSA_EState5>
-1.53

>  <VSA_EState6>
13.54

>  <VSA_EState7>
1.07

>  <VSA_EState8>
5.23

>  <VSA_EState9>
0

>  <apol>
79.84

>  <bpol>
41.59

>  <nRing>
5

>  <nHRing>
3

>  <naRing>
2

>  <naHRing>
0

>  <nARing 2>
3

>  <nAHRing 2>
3

>  <nFRing>
1

>  <nFHRing>
1

>  <nFaRing>
0

>  <nFaHRing>
0

>  <nFARing 2>
1

>  <nFAHRing 2>
1

>  <nRot>
8

>  <SLogP>
1.46

>  <SMR>
147.15

>  <TopoPSA(NO)>
140.2

>  <TopoPSA>
165.5

>  <JGI1>
0.2

>  <JGI2>
0.08

>  <JGI3>
0.07

>  <JGI4>
0.04

>  <JGI5>
0.02

>  <Diameter>
19

>  <Radius>
10

>  <TMWC10>
162.81

>  <TSRW10>
91.53

>  <MW>
549.2

>  <AMW>
7.85

>  <WPath>
5527

>  <WPol>
63

>  <Zagreb1>
212

>  <Zagreb2>
254

>  <mZagreb2>
8.38

>  <yes>


>  <nAR-cont>
0.691115

>  <nHA-cont>
0.348277641

>  <MWHBN>
0.46938307

>  <MWHBN-cont>
0

>  <TPSA-cont>
0

>  <pka_cont>
0.97

>  <yes.1>


>  <BBB_SCORE>
1.524392641

>  <MMFF94 Energy>
68.033

$$$$
Compound 1015
Actelion Java MolfileCreator 2.0

  0  0  0  0  0  0              0 V3000
M  V30 BEGIN CTAB
M  V30 COUNTS 45 48 0 0 0
M  V30 BEGIN ATOM
M  V30 1 S 1.1487 1.2308 -1.4771 0
M  V30 2 C 0.8809 1.3678 -3.3189 0
M  V30 3 C -0.3176 2.2921 -1.1419 0 CFG=1
M  V30 4 C -0.6541 1.3554 -3.4636 0 CFG=1
M  V30 5 C 1.5564 2.6604 -3.7963 0
M  V30 6 C 1.5244 0.1565 -3.9967 0
M  V30 7 N -1.2017 1.9472 -2.2549 0
M  V30 8 C -1.4217 1.7729 -0.183 0 CFG=1
M  V30 9 C -1.1704 2.0781 -4.6983 0
M  V30 10 C -2.1546 1.3592 -1.487 0
M  V30 11 N -1.0646 0.6703 0.7383 0
M  V30 12 O -1.5055 3.2488 -4.7844 0
M  V30 13 O -1.1782 1.2913 -5.7951 0
M  V30 14 O -3.0954 0.6628 -1.7882 0
M  V30 15 C -0.2657 0.8739 1.8455 0
M  V30 16 O 0.1493 1.982 2.1571 0
M  V30 17 C 0.0171 -0.3638 2.6309 0
M  V30 18 N -0.6913 -1.4704 2.2395 0
M  V30 19 C 0.8917 -0.4004 3.6986 0
M  V30 20 C -0.5029 -2.5911 2.9639 0
M  V30 21 N 1.0816 -1.5292 4.4424 0
M  V30 22 C 1.6998 0.7644 4.0925 0
M  V30 23 C 0.3839 -2.6187 4.0723 0
M  V30 24 C -1.1938 -3.7473 2.6248 0
M  V30 25 O 1.6019 1.4018 5.1234 0
M  V30 26 O 2.6536 1.0087 3.1725 0
M  V30 27 C 0.5347 -3.7998 4.7866 0
M  V30 28 C -1.0325 -4.9282 3.3508 0
M  V30 29 C -0.1656 -4.9544 4.4355 0
M  V30 30 H -0.1092 3.3643 -1.0806 0
M  V30 31 H -1.0348 0.3255 -3.5087 0
M  V30 32 H 1.4776 2.7645 -4.8845 0
M  V30 33 H 1.1073 3.5544 -3.3496 0
M  V30 34 H 2.6262 2.6668 -3.5555 0
M  V30 35 H 2.6064 0.1242 -3.8236 0
M  V30 36 H 1.0985 -0.787 -3.6365 0
M  V30 37 H 1.3693 0.1912 -5.0808 0
M  V30 38 H -1.9585 2.5692 0.3478 0
M  V30 39 H -1.3893 -0.2817 0.5763 0
M  V30 40 H -1.547 1.8675 -6.499 0
M  V30 41 H -1.8756 -3.7304 1.7775 0
M  V30 42 H 3.1055 1.8128 3.5054 0
M  V30 43 H 1.2134 -3.8211 5.6365 0
M  V30 44 H -1.5844 -5.8217 3.0683 0
M  V30 45 H -0.032 -5.8681 5.0099 0
M  V30 END ATOM
M  V30 BEGIN BOND
M  V30 1 1 1 2
M  V30 2 1 1 3
M  V30 3 1 2 4
M  V30 4 1 2 5
M  V30 5 1 2 6
M  V30 6 1 3 7
M  V30 7 1 3 8
M  V30 8 1 4 9
M  V30 9 1 7 10
M  V30 10 1 8 11
M  V30 11 2 9 12
M  V30 12 1 9 13
M  V30 13 2 10 14
M  V30 14 1 11 15
M  V30 15 2 15 16
M  V30 16 1 15 17
M  V30 17 2 17 18
M  V30 18 1 17 19
M  V30 19 1 18 20
M  V30 20 2 19 21
M  V30 21 1 19 22
M  V30 22 1 20 23
M  V30 23 2 20 24
M  V30 24 2 22 25
M  V30 25 1 22 26
M  V30 26 2 23 27
M  V30 27 1 24 28
M  V30 28 1 27 29
M  V30 29 1 4 7
M  V30 30 1 8 10
M  V30 31 1 21 23
M  V30 32 2 28 29
M  V30 33 1 3 30
M  V30 34 1 4 31
M  V30 35 1 5 32
M  V30 36 1 5 33
M  V30 37 1 5 34
M  V30 38 1 6 35
M  V30 39 1 6 36
M  V30 40 1 6 37
M  V30 41 1 8 38
M  V30 42 1 11 39
M  V30 43 1 13 40
M  V30 44 1 24 41
M  V30 45 1 26 42
M  V30 46 1 27 43
M  V30 47 1 28 44
M  V30 48 1 29 45
M  V30 END BOND
M  V30 BEGIN COLLECTION
M  V30 MDLV30/STEABS ATOMS=(3 3 4 8)
M  V30 END COLLECTION
M  V30 END CTAB
M  END
>  <Column 1>
1215

>  <level_0>
1357

>  <index>
1357

>  <Unnamed: 0>
1357

>  <NO.>
1369

>  <Name>
quinacillin

>  <IUPAC_name>
(2s-5r-6r)-6-[(3-carboxyquinoxaline-2-carbonyl)amino]-3-3-dimethyl-7-oxo-4-thia-1-azabicyclo[3.2.0]heptane-2-carboxylic acid

>  <SMILES>
CC1(C)S[C@@H]2[C@H](NC(=O)c3nc4ccccc4nc3C(=O)O)C(=O)N2[C@H]1C(=O)O

>  <CID>
92894

>  <logBB>


>  <BBB+/BBB->
BBB-

>  <Inchi>
InChI=1S/C18H16N4O6S/c1-18(2)12(17(27)28)22-14(24)11(15(22)29-18)21-13(23)9-10(16(25)26)20-8-6-4-3-5-7(8)19-9/h3-6-11-12-15H-1-2H3-(H-21-23)(H-25-26)(H-27-28)/t11--12+-15-/m1/s1

>  <threshold>
-1

>  <reference>
R1|R6|R27|R27|R30|R30|

>  <group>
B

>  <Class>
-1

>  <ABC>
23.14

>  <ABCGG>
18.88

>  <nAcid>
2

>  <nBase>
0

>  <nAromAtom>
10

>  <nAromBond>
11

>  <nAtom>
45

>  <nHeavyAtom>
29

>  <nSpiro>
0

>  <nBridgehead>
0

>  <nHetero>
11

>  <nN>
4

>  <nO>
6

>  <nF>
0

>  <BalabanJ>
1.44

>  <BertzCT>
1087.21

>  <nBonds>
48

>  <nBondsO>
32

>  <nBondsS>
33

>  <nBondsD>
4

>  <nBondsT>
0

>  <nBondsA>
11

>  <nBondsM>
15

>  <nBondsKS>
39

>  <nBondsKD>
9

>  <RNCG>
0.14

>  <RPCG>
0.1

>  <FCSP3>
0.33

>  <SZ>
36

>  <Sm>
34.67

>  <Sv>
30.84

>  <Sse>
46.82

>  <Sp>
31.64

>  <Si>
50.66

>  <MZ>
0.8

>  <Mm>
0.77

>  <Mv>
0.69

>  <Mse>
1.04

>  <Mp>
0.7

>  <Mi>
1.13

>  <NsCH3>
2

>  <NdCH2>
0

>  <NssCH2>
0

>  <NtCH>
0

>  <NdsCH>
0

>  <NaaCH>
4

>  <NsssCH>
3

>  <NddC>
0

>  <NtsC>
0

>  <NdssC>
4

>  <NaasC>
2

>  <NaaaC>
2

>  <NssssC>
1

>  <NsNH3>
0

>  <NsNH2>
0

>  <NssNH2>
0

>  <NdNH>
0

>  <NssNH>
1

>  <NaaNH>
0

>  <NtN>
0

>  <NsssNH>
0

>  <NdsN>
0

>  <NaaN>
2

>  <NsssN>
1

>  <NddsN>
0

>  <NaasN>
0

>  <NssssN>
0

>  <NsOH>
2

>  <NdO>
4

>  <NssO>
0

>  <NaaO>
0

>  <NsF>
0

>  <NsSiH3>
0

>  <NssSiH2>
0

>  <NsssSiH>
0

>  <NssssSi>
0

>  <NsPH2>
0

>  <NssPH>
0

>  <NsssP>
0

>  <NdsssP>
0

>  <NsssssP>
0

>  <NsSH>
0

>  <NdS>
0

>  <NssS>
1

>  <NaaS>
0

>  <NdssS>
0

>  <NddssS>
0

>  <NsCl>
0

>  <NsBr>
0

>  <NsI>
0

>  <fragCpx>
212.11

>  <fMF>
0.42

>  <nHBAcc>
7

>  <nHBDon>
3

>  <Kier1>
22.2

>  <Kier2>
8.16

>  <Lipinski>
1

>  <GhoseFilter>
1

>  <FilterItLogS>
-2.17

>  <VMcGowan>
273.83

>  <LabuteASA>
167.86

>  <PEOE_VSA1>
20.43

>  <PEOE_VSA2>
9.59

>  <PEOE_VSA3>
19.56

>  <PEOE_VSA4>
0

>  <PEOE_VSA5>
11.76

>  <PEOE_VSA6>
12.13

>  <PEOE_VSA7>
25.98

>  <PEOE_VSA8>
4.75

>  <PEOE_VSA9>
11.03

>  <PEOE_VSA10>
17.46

>  <PEOE_VSA11>
11.39

>  <PEOE_VSA12>
5.91

>  <PEOE_VSA13>
5.91

>  <SMR_VSA1>
29.39

>  <SMR_VSA2>
0

>  <SMR_VSA3>
20.18

>  <SMR_VSA4>
0

>  <SMR_VSA5>
36.05

>  <SMR_VSA6>
0

>  <SMR_VSA7>
35.65

>  <SMR_VSA8>
0

>  <SMR_VSA9>
0

>  <SlogP_VSA1>
5.32

>  <SlogP_VSA2>
71.04

>  <SlogP_VSA3>
9.59

>  <SlogP_VSA4>
0

>  <SlogP_VSA5>
34.82

>  <SlogP_VSA6>
24.27

>  <SlogP_VSA7>
0

>  <SlogP_VSA8>
11.03

>  <SlogP_VSA9>
0

>  <SlogP_VSA10>
0

>  <SlogP_VSA11>
0

>  <EState_VSA1>
57.35

>  <EState_VSA2>
0

>  <EState_VSA3>
11.03

>  <EState_VSA4>
0

>  <EState_VSA5>
16.66

>  <EState_VSA6>
38.11

>  <EState_VSA7>
0

>  <EState_VSA8>
15.28

>  <EState_VSA9>
0

>  <EState_VSA10>
29.39

>  <VSA_EState1>
-0.74

>  <VSA_EState2>
57.75

>  <VSA_EState3>
20.82

>  <VSA_EState4>
-0.26

>  <VSA_EState5>
-3.91

>  <VSA_EState6>
4.54

>  <VSA_EState7>
0

>  <VSA_EState8>
3.44

>  <VSA_EState9>
0

>  <apol>
52.84

>  <bpol>
26.54

>  <nRing>
4

>  <nHRing>
3

>  <naRing>
2

>  <naHRing>
1

>  <nARing 2>
2

>  <nAHRing 2>
2

>  <nFRing>
2

>  <nFHRing>
2

>  <nFaRing>
1

>  <nFaHRing>
1

>  <nFARing 2>
1

>  <nFAHRing 2>
1

>  <nRot>
4

>  <SLogP>
0.57

>  <SMR>
101.48

>  <TopoPSA(NO)>
149.79

>  <TopoPSA>
175.09

>  <JGI1>
0.23

>  <JGI2>
0.09

>  <JGI3>
0.08

>  <JGI4>
0.06

>  <JGI5>
0.03

>  <Diameter>
13

>  <Radius>
7

>  <TMWC10>
140.51

>  <TSRW10>
80.58

>  <MW>
416.08

>  <AMW>
9.25

>  <WPath>
2211

>  <WPol>
51

>  <Zagreb1>
164

>  <Zagreb2>
202

>  <mZagreb2>
6.07

>  <yes>


>  <nAR-cont>
1

>  <nHA-cont>
0.785905698

>  <MWHBN>
0.490243201

>  <MWHBN-cont>
0

>  <TPSA-cont>
0

>  <pka_cont>
0.97

>  <yes.1>


>  <BBB_SCORE>
2.270905698

>  <MMFF94 Energy>
133.31

$$$$
Compound 1016
Actelion Java MolfileCreator 2.0

  0  0  0  0  0  0              0 V3000
M  V30 BEGIN CTAB
M  V30 COUNTS 41 43 0 0 0
M  V30 BEGIN ATOM
M  V30 1 O -0.5586 0.6384 1.5167 0
M  V30 2 C -9.0E-4 0.5408 0.4303 0
M  V30 3 N 0.8489 -0.4646 0.0709 0
M  V30 4 C -0.2064 1.4731 -0.7589 0 CFG=1
M  V30 5 C 1.3937 -0.2847 -1.1628 0
M  V30 6 C 1.1964 -1.566 0.934 0
M  V30 7 C -0.0357 2.971 -0.4918 0
M  V30 8 C 0.8667 0.9882 -1.7501 0
M  V30 9 C -1.6212 1.1719 -1.293 0
M  V30 10 O 2.2242 -0.9904 -1.7168 0
M  V30 11 N 0.372 -2.7344 0.5994 0
M  V30 12 C 0.2691 3.4935 0.7748 0
M  V30 13 C -0.1665 3.8847 -1.5582 0
M  V30 14 C -1.0003 -2.6174 1.1423 0
M  V30 15 C 0.9926 -3.9587 1.1522 0
M  V30 16 C 0.4299 4.8696 0.969 0
M  V30 17 C -0.0046 5.2586 -1.3635 0
M  V30 18 C -1.8197 -3.8929 0.8837 0
M  V30 19 C 0.1288 -5.1996 0.8824 0
M  V30 20 C 0.2933 5.7512 -0.0982 0
M  V30 21 O -1.1795 -5.0451 1.4458 0
M  V30 22 H 1.0884 -1.2771 1.9866 0
M  V30 23 H 2.2549 -1.7915 0.7548 0
M  V30 24 H 0.4644 0.7946 -2.7497 0
M  V30 25 H 1.7122 1.681 -1.8372 0
M  V30 26 H -2.388 1.5195 -0.5899 0
M  V30 27 H -1.8116 1.6577 -2.2561 0
M  V30 28 H -1.7762 0.0953 -1.4343 0
M  V30 29 H 0.3832 2.8528 1.6461 0
M  V30 30 H -0.3941 3.5345 -2.5634 0
M  V30 31 H -1.5277 -1.7808 0.6735 0
M  V30 32 H -0.9619 -2.4365 2.2245 0
M  V30 33 H 1.978 -4.1155 0.6985 0
M  V30 34 H 1.1304 -3.8499 2.2363 0
M  V30 35 H 0.66 5.251 1.9611 0
M  V30 36 H -0.1119 5.9429 -2.2014 0
M  V30 37 H -2.8049 -3.8007 1.3523 0
M  V30 38 H -1.9763 -4.0531 -0.1899 0
M  V30 39 H 0.041 -5.3992 -0.1924 0
M  V30 40 H 0.5872 -6.0782 1.3474 0
M  V30 41 H 0.4178 6.8195 0.0572 0
M  V30 END ATOM
M  V30 BEGIN BOND
M  V30 1 2 1 2
M  V30 2 1 2 3
M  V30 3 1 2 4
M  V30 4 1 3 5
M  V30 5 1 3 6
M  V30 6 1 4 7
M  V30 7 1 4 8
M  V30 8 1 4 9
M  V30 9 2 5 10
M  V30 10 1 6 11
M  V30 11 2 7 12
M  V30 12 1 7 13
M  V30 13 1 11 14
M  V30 14 1 11 15
M  V30 15 1 12 16
M  V30 16 2 13 17
M  V30 17 1 14 18
M  V30 18 1 15 19
M  V30 19 2 16 20
M  V30 20 1 18 21
M  V30 21 1 5 8
M  V30 22 1 17 20
M  V30 23 1 19 21
M  V30 24 1 6 22
M  V30 25 1 6 23
M  V30 26 1 8 24
M  V30 27 1 8 25
M  V30 28 1 9 26
M  V30 29 1 9 27
M  V30 30 1 9 28
M  V30 31 1 12 29
M  V30 32 1 13 30
M  V30 33 1 14 31
M  V30 34 1 14 32
M  V30 35 1 15 33
M  V30 36 1 15 34
M  V30 37 1 16 35
M  V30 38 1 17 36
M  V30 39 1 18 37
M  V30 40 1 18 38
M  V30 41 1 19 39
M  V30 42 1 19 40
M  V30 43 1 20 41
M  V30 END BOND
M  V30 BEGIN COLLECTION
M  V30 MDLV30/STERAC1 ATOMS=(1 4)
M  V30 END COLLECTION
M  V30 END CTAB
M  END
>  <Column 1>
1217

>  <level_0>
1359

>  <index>
1359

>  <Unnamed: 0>
1359

>  <NO.>
1371

>  <Name>
morsuximide

>  <IUPAC_name>
3-methyl-1-(morpholin-4-ylmethyl)-3-phenylpyrrolidine-2-5-dione

>  <SMILES>
CC1(c2ccccc2)CC(=O)N(CN2CCOCC2)C1=O

>  <CID>
71165

>  <logBB>


>  <BBB+/BBB->
BBB+

>  <Inchi>
InChI=1S/C16H20N2O3/c1-16(13-5-3-2-4-6-13)11-14(19)18(15(16)20)12-17-7-9-21-10-8-17/h2-6H-7-12H2-1H3

>  <threshold>
-1

>  <reference>
R1|R13|R19|R6|R27|R27|R30|

>  <group>
B

>  <Class>
1

>  <ABC>
16.44

>  <ABCGG>
13.91

>  <nAcid>
0

>  <nBase>
1

>  <nAromAtom>
6

>  <nAromBond>
6

>  <nAtom>
41

>  <nHeavyAtom>
21

>  <nSpiro>
0

>  <nBridgehead>
0

>  <nHetero>
5

>  <nN>
2

>  <nO>
3

>  <nF>
0

>  <BalabanJ>
1.65

>  <BertzCT>
539.71

>  <nBonds>
43

>  <nBondsO>
23

>  <nBondsS>
35

>  <nBondsD>
2

>  <nBondsT>
0

>  <nBondsA>
6

>  <nBondsM>
8

>  <nBondsKS>
38

>  <nBondsKD>
5

>  <RNCG>
0.2

>  <RPCG>
0.13

>  <FCSP3>
0.5

>  <SZ>
25.67

>  <Sm>
24.01

>  <Sv>
25.08

>  <Sse>
41.2

>  <Sp>
26.74

>  <Si>
46.36

>  <MZ>
0.63

>  <Mm>
0.59

>  <Mv>
0.61

>  <Mse>
1

>  <Mp>
0.65

>  <Mi>
1.13

>  <NsCH3>
1

>  <NdCH2>
0

>  <NssCH2>
6

>  <NtCH>
0

>  <NdsCH>
0

>  <NaaCH>
5

>  <NsssCH>
0

>  <NddC>
0

>  <NtsC>
0

>  <NdssC>
2

>  <NaasC>
1

>  <NaaaC>
0

>  <NssssC>
1

>  <NsNH3>
0

>  <NsNH2>
0

>  <NssNH2>
0

>  <NdNH>
0

>  <NssNH>
0

>  <NaaNH>
0

>  <NtN>
0

>  <NsssNH>
0

>  <NdsN>
0

>  <NaaN>
0

>  <NsssN>
2

>  <NddsN>
0

>  <NaasN>
0

>  <NssssN>
0

>  <NsOH>
0

>  <NdO>
2

>  <NssO>
1

>  <NaaO>
0

>  <NsF>
0

>  <NsSiH3>
0

>  <NssSiH2>
0

>  <NsssSiH>
0

>  <NssssSi>
0

>  <NsPH2>
0

>  <NssPH>
0

>  <NsssP>
0

>  <NdsssP>
0

>  <NsssssP>
0

>  <NsSH>
0

>  <NdS>
0

>  <NssS>
0

>  <NaaS>
0

>  <NdssS>
0

>  <NddssS>
0

>  <NsCl>
0

>  <NsBr>
0

>  <NsI>
0

>  <fragCpx>
109.05

>  <fMF>
0.44

>  <nHBAcc>
4

>  <nHBDon>
0

>  <Kier1>
15.88

>  <Kier2>
6.63

>  <Lipinski>
1

>  <GhoseFilter>
1

>  <FilterItLogS>
-2.82

>  <VMcGowan>
219.79

>  <LabuteASA>
124.03

>  <PEOE_VSA1>
4.74

>  <PEOE_VSA2>
19.39

>  <PEOE_VSA3>
0

>  <PEOE_VSA4>
0

>  <PEOE_VSA5>
0

>  <PEOE_VSA6>
30.33

>  <PEOE_VSA7>
12.49

>  <PEOE_VSA8>
19.51

>  <PEOE_VSA9>
25.3

>  <PEOE_VSA10>
0

>  <PEOE_VSA11>
0

>  <PEOE_VSA12>
11.81

>  <PEOE_VSA13>
0

>  <SMR_VSA1>
14.33

>  <SMR_VSA2>
0

>  <SMR_VSA3>
9.8

>  <SMR_VSA4>
0

>  <SMR_VSA5>
18.76

>  <SMR_VSA6>
32.97

>  <SMR_VSA7>
35.9

>  <SMR_VSA8>
0

>  <SMR_VSA9>
0

>  <SlogP_VSA1>
0

>  <SlogP_VSA2>
54.59

>  <SlogP_VSA3>
19.74

>  <SlogP_VSA4>
0

>  <SlogP_VSA5>
18.91

>  <SlogP_VSA6>
30.33

>  <SlogP_VSA7>
0

>  <SlogP_VSA8>
0

>  <SlogP_VSA9>
0

>  <SlogP_VSA10>
0

>  <SlogP_VSA11>
0

>  <EState_VSA1>
5.41

>  <EState_VSA2>
18.24

>  <EState_VSA3>
19.88

>  <EState_VSA4>
18.65

>  <EState_VSA5>
4.9

>  <EState_VSA6>
0

>  <EState_VSA7>
37.26

>  <EState_VSA8>
4.9

>  <EState_VSA9>
4.74

>  <EState_VSA10>
9.59

>  <VSA_EState1>
5.3

>  <VSA_EState2>
28.55

>  <VSA_EState3>
0

>  <VSA_EState4>
0.18

>  <VSA_EState5>
-0.18

>  <VSA_EState6>
9.57

>  <VSA_EState7>
0.25

>  <VSA_EState8>
5.09

>  <VSA_EState9>
0

>  <apol>
44.66

>  <bpol>
26.96

>  <nRing>
3

>  <nHRing>
2

>  <naRing>
1

>  <naHRing>
0

>  <nARing 2>
2

>  <nAHRing 2>
2

>  <nFRing>
0

>  <nFHRing>
0

>  <nFaRing>
0

>  <nFaHRing>
0

>  <nFARing 2>
0

>  <nFAHRing 2>
0

>  <nRot>
3

>  <SLogP>
0.99

>  <SMR>
77.52

>  <TopoPSA(NO)>
49.85

>  <TopoPSA>
49.85

>  <JGI1>
0.2

>  <JGI2>
0.09

>  <JGI3>
0.07

>  <JGI4>
0.04

>  <JGI5>
0.03

>  <Diameter>
11

>  <Radius>
6

>  <TMWC10>
118.81

>  <TSRW10>
69.78

>  <MW>
288.15

>  <AMW>
7.03

>  <WPath>
908

>  <WPol>
34

>  <Zagreb1>
112

>  <Zagreb2>
134

>  <mZagreb2>
4.6

>  <yes>


>  <nAR-cont>
1

>  <nHA-cont>
0.994529749

>  <MWHBN>
0.235640904

>  <MWHBN-cont>
0.980543308

>  <TPSA-cont>
0.652016045

>  <pka_cont>
0.97

>  <yes.1>


>  <BBB_SCORE>
5.254376801

>  <MMFF94 Energy>
27.36

$$$$
Compound 1017
Actelion Java MolfileCreator 2.0

  0  0  0  0  0  0              0 V3000
M  V30 BEGIN CTAB
M  V30 COUNTS 57 60 0 0 0
M  V30 BEGIN ATOM
M  V30 1 O -1.5268 1.9289 1.1248 0
M  V30 2 C -1.044 0.8608 0.7511 0
M  V30 3 C 0.2859 0.7662 -0.0135 0 CFG=2
M  V30 4 C -1.7679 -0.4316 1.0659 0
M  V30 5 C 0.4317 1.8106 -1.1821 0
M  V30 6 C 0.4932 -0.6994 -0.4921 0
M  V30 7 C -0.8064 -1.4837 1.6373 0
M  V30 8 C 1.8127 1.5615 -1.8724 0 CFG=2
M  V30 9 C 0.4537 3.2709 -0.6389 0
M  V30 10 C -0.7507 1.6657 -2.1736 0
M  V30 11 C 0.4387 -1.6777 0.7077 0 CFG=1
M  V30 12 C 1.8084 -0.8731 -1.267 0
M  V30 13 C -1.4853 -2.8843 1.6777 0
M  V30 14 C -0.3198 -1.0395 3.036 0
M  V30 15 C 2.1357 2.5894 -2.9709 0
M  V30 16 C 1.9561 0.1329 -2.4011 0
M  V30 17 C 0.8071 4.3252 -1.6967 0
M  V30 18 C 0.4072 -3.1497 0.2686 0
M  V30 19 C -2.2213 -3.2449 2.9648 0
M  V30 20 C -0.3451 -3.8564 1.3787 0
M  V30 21 C 2.1093 4.017 -2.4278 0 CFG=1
M  V30 22 O -1.723 -3.9599 3.8379 0
M  V30 23 C -3.6183 -2.6638 3.1551 0
M  V30 24 O 3.2095 4.1808 -1.5334 0
M  V30 25 O -4.317 -3.3265 4.1979 0
M  V30 26 H 1.0636 0.9795 0.7347 0
M  V30 27 H -2.2454 -0.775 0.1406 0
M  V30 28 H -2.5725 -0.2131 1.7765 0
M  V30 29 H -0.3232 -0.9656 -1.1763 0
M  V30 30 H 2.5874 1.6802 -1.0988 0
M  V30 31 H 1.1755 3.3423 0.1851 0
M  V30 32 H -0.5192 3.5511 -0.2242 0
M  V30 33 H -1.7023 1.9136 -1.6906 0
M  V30 34 H -0.8454 0.6511 -2.5688 0
M  V30 35 H -0.6562 2.3298 -3.0369 0
M  V30 36 H 1.3523 -1.5362 1.3031 0
M  V30 37 H 2.6581 -0.7646 -0.5805 0
M  V30 38 H 1.8724 -1.8835 -1.6865 0
M  V30 39 H -2.2121 -2.9784 0.8588 0
M  V30 40 H -1.1587 -0.8389 3.7107 0
M  V30 41 H 0.31 -1.8053 3.502 0
M  V30 42 H 0.2755 -0.1214 2.9803 0
M  V30 43 H 3.1367 2.3787 -3.3686 0
M  V30 44 H 1.4349 2.493 -3.8075 0
M  V30 45 H 2.9442 0.0014 -2.8587 0
M  V30 46 H 1.2214 -0.0721 -3.1876 0
M  V30 47 H 0.8835 5.2988 -1.1973 0
M  V30 48 H -0.0093 4.4077 -2.4228 0
M  V30 49 H -0.1329 -3.2682 -0.6784 0
M  V30 50 H 1.4127 -3.5611 0.136 0
M  V30 51 H 0.3057 -4.0039 2.2487 0
M  V30 52 H -0.7121 -4.8388 1.0649 0
M  V30 53 H 2.2537 4.7248 -3.2514 0
M  V30 54 H -3.5373 -1.6057 3.4125 0
M  V30 55 H -4.194 -2.7801 2.2336 0
M  V30 56 H 3.1843 5.0952 -1.2025 0
M  V30 57 H -3.6332 -3.6745 4.8061 0
M  V30 END ATOM
M  V30 BEGIN BOND
M  V30 1 2 1 2
M  V30 2 1 2 3
M  V30 3 1 2 4
M  V30 4 1 3 5
M  V30 5 1 3 6
M  V30 6 1 4 7
M  V30 7 1 5 8
M  V30 8 1 5 9
M  V30 9 1 5 10
M  V30 10 1 6 11
M  V30 11 1 6 12
M  V30 12 1 7 13
M  V30 13 1 7 14
M  V30 14 1 8 15
M  V30 15 1 8 16
M  V30 16 1 9 17
M  V30 17 1 11 18
M  V30 18 1 13 19
M  V30 19 1 13 20
M  V30 20 1 15 21
M  V30 21 2 19 22
M  V30 22 1 19 23
M  V30 23 1 21 24
M  V30 24 1 23 25
M  V30 25 1 7 11
M  V30 26 1 12 16
M  V30 27 1 17 21
M  V30 28 1 18 20
M  V30 29 1 3 26
M  V30 30 1 4 27
M  V30 31 1 4 28
M  V30 32 1 6 29
M  V30 33 1 8 30
M  V30 34 1 9 31
M  V30 35 1 9 32
M  V30 36 1 10 33
M  V30 37 1 10 34
M  V30 38 1 10 35
M  V30 39 1 11 36
M  V30 40 1 12 37
M  V30 41 1 12 38
M  V30 42 1 13 39
M  V30 43 1 14 40
M  V30 44 1 14 41
M  V30 45 1 14 42
M  V30 46 1 15 43
M  V30 47 1 15 44
M  V30 48 1 16 45
M  V30 49 1 16 46
M  V30 50 1 17 47
M  V30 51 1 17 48
M  V30 52 1 18 49
M  V30 53 1 18 50
M  V30 54 1 20 51
M  V30 55 1 20 52
M  V30 56 1 21 53
M  V30 57 1 23 54
M  V30 58 1 23 55
M  V30 59 1 24 56
M  V30 60 1 25 57
M  V30 END BOND
M  V30 BEGIN COLLECTION
M  V30 MDLV30/STEABS ATOMS=(4 3 8 11 21)
M  V30 END COLLECTION
M  V30 END CTAB
M  END
>  <Column 1>
1218

>  <level_0>
1361

>  <index>
1361

>  <Unnamed: 0>
1361

>  <NO.>
1373

>  <Name>
alfadolonum [inn-latin]

>  <IUPAC_name>
(3r-5s-9s-14s)-3-hydroxy-17-(2-hydroxyacetyl)-10-13-dimethyl-1-2-3-4-5-6-7-8-9-12-14-15-16-17-tetradecahydrocyclopenta[a]phenanthren-11-one

>  <SMILES>
CC12CC(=O)[C@H]3C(CC[C@H]4C[C@H](O)CCC43C)[C@@H]1CCC2C(=O)CO

>  <CID>
71680

>  <logBB>


>  <BBB+/BBB->
BBB+

>  <Inchi>
InChI=1S/C21H32O4/c1-20-8-7-13(23)9-12(20)3-4-14-15-5-6-16(18(25)11-22)21(15-2)10-17(24)19(14)20/h12-16-19-22-23H-3-11H2-1-2H3/t12--13+-14?-15--16?-19+-20?-21?/m0/s1

>  <threshold>
-1

>  <reference>
R1|R27|R30|

>  <group>
B

>  <Class>
1

>  <ABC>
20.04

>  <ABCGG>
16.39

>  <nAcid>
0

>  <nBase>
0

>  <nAromAtom>
0

>  <nAromBond>
0

>  <nAtom>
57

>  <nHeavyAtom>
25

>  <nSpiro>
0

>  <nBridgehead>
0

>  <nHetero>
4

>  <nN>
0

>  <nO>
4

>  <nF>
0

>  <BalabanJ>
1.64

>  <BertzCT>
586.45

>  <nBonds>
60

>  <nBondsO>
28

>  <nBondsS>
58

>  <nBondsD>
2

>  <nBondsT>
0

>  <nBondsA>
0

>  <nBondsM>
2

>  <nBondsKS>
58

>  <nBondsKD>
2

>  <RNCG>
0.21

>  <RPCG>
0.11

>  <FCSP3>
0.9

>  <SZ>
31.67

>  <Sm>
29.01

>  <Sv>
32.53

>  <Sse>
56.53

>  <Sp>
35.7

>  <Si>
64.48

>  <MZ>
0.56

>  <Mm>
0.51

>  <Mv>
0.57

>  <Mse>
0.99

>  <Mp>
0.63

>  <Mi>
1.13

>  <NsCH3>
2

>  <NdCH2>
0

>  <NssCH2>
9

>  <NtCH>
0

>  <NdsCH>
0

>  <NaaCH>
0

>  <NsssCH>
6

>  <NddC>
0

>  <NtsC>
0

>  <NdssC>
2

>  <NaasC>
0

>  <NaaaC>
0

>  <NssssC>
2

>  <NsNH3>
0

>  <NsNH2>
0

>  <NssNH2>
0

>  <NdNH>
0

>  <NssNH>
0

>  <NaaNH>
0

>  <NtN>
0

>  <NsssNH>
0

>  <NdsN>
0

>  <NaaN>
0

>  <NsssN>
0

>  <NddsN>
0

>  <NaasN>
0

>  <NssssN>
0

>  <NsOH>
2

>  <NdO>
2

>  <NssO>
0

>  <NaaO>
0

>  <NsF>
0

>  <NsSiH3>
0

>  <NssSiH2>
0

>  <NsssSiH>
0

>  <NssssSi>
0

>  <NsPH2>
0

>  <NssPH>
0

>  <NsssP>
0

>  <NdsssP>
0

>  <NsssssP>
0

>  <NsSH>
0

>  <NdS>
0

>  <NssS>
0

>  <NaaS>
0

>  <NdssS>
0

>  <NddssS>
0

>  <NsCl>
0

>  <NsBr>
0

>  <NsI>
0

>  <fragCpx>
184.04

>  <fMF>
0.3

>  <nHBAcc>
4

>  <nHBDon>
2

>  <Kier1>
18.37

>  <Kier2>
6.27

>  <Lipinski>
1

>  <GhoseFilter>
1

>  <FilterItLogS>
-3.02

>  <VMcGowan>
278.19

>  <LabuteASA>
149.93

>  <PEOE_VSA1>
10.21

>  <PEOE_VSA2>
9.59

>  <PEOE_VSA3>
0

>  <PEOE_VSA4>
0

>  <PEOE_VSA5>
0

>  <PEOE_VSA6>
13.85

>  <PEOE_VSA7>
73.53

>  <PEOE_VSA8>
18.26

>  <PEOE_VSA9>
6.1

>  <PEOE_VSA10>
12.39

>  <PEOE_VSA11>
5.78

>  <PEOE_VSA12>
0

>  <PEOE_VSA13>
0

>  <SMR_VSA1>
19.8

>  <SMR_VSA2>
0

>  <SMR_VSA3>
0

>  <SMR_VSA4>
40.42

>  <SMR_VSA5>
71.32

>  <SMR_VSA6>
6.61

>  <SMR_VSA7>
0

>  <SMR_VSA8>
0

>  <SMR_VSA9>
0

>  <SlogP_VSA1>
0

>  <SlogP_VSA2>
34.49

>  <SlogP_VSA3>
9.59

>  <SlogP_VSA4>
40.42

>  <SlogP_VSA5>
65.21

>  <SlogP_VSA6>
0

>  <SlogP_VSA7>
0

>  <SlogP_VSA8>
0

>  <SlogP_VSA9>
0

>  <SlogP_VSA10>
0

>  <SlogP_VSA11>
0

>  <EState_VSA1>
6.61

>  <EState_VSA2>
34.55

>  <EState_VSA3>
29.96

>  <EState_VSA4>
44.95

>  <EState_VSA5>
0

>  <EState_VSA6>
0

>  <EState_VSA7>
0

>  <EState_VSA8>
13.85

>  <EState_VSA9>
0

>  <EState_VSA10>
19.8

>  <VSA_EState1>
0

>  <VSA_EState2>
25.62

>  <VSA_EState3>
19.45

>  <VSA_EState4>
-0.23

>  <VSA_EState5>
1.52

>  <VSA_EState6>
0

>  <VSA_EState7>
6.93

>  <VSA_EState8>
4.04

>  <VSA_EState9>
0

>  <apol>
59.62

>  <bpol>
33.84

>  <nRing>
4

>  <nHRing>
0

>  <naRing>
0

>  <naHRing>
0

>  <nARing 2>
4

>  <nAHRing 2>
0

>  <nFRing>
1

>  <nFHRing>
0

>  <nFaRing>
0

>  <nFaHRing>
0

>  <nFARing 2>
1

>  <nFAHRing 2>
0

>  <nRot>
2

>  <SLogP>
2.75

>  <SMR>
93.71

>  <TopoPSA(NO)>
74.6

>  <TopoPSA>
74.6

>  <JGI1>
0.27

>  <JGI2>
0.12

>  <JGI3>
0.07

>  <JGI4>
0.06

>  <JGI5>
0.03

>  <Diameter>
12

>  <Radius>
6

>  <TMWC10>
132.27

>  <TSRW10>
75.48

>  <MW>
348.23

>  <AMW>
6.11

>  <WPath>
1305

>  <WPol>
53

>  <Zagreb1>
146

>  <Zagreb2>
185

>  <mZagreb2>
5.28

>  <yes>


>  <nAR-cont>
0.199399

>  <nHA-cont>
0.921834225

>  <MWHBN>
0.321527526

>  <MWHBN-cont>
0.772020219

>  <TPSA-cont>
0.479245676

>  <pka_cont>
0.97

>  <yes.1>


>  <BBB_SCORE>
3.722754906

>  <MMFF94 Energy>
95.036

$$$$
Compound 1018
Actelion Java MolfileCreator 2.0

  0  0  0  0  0  0              0 V3000
M  V30 BEGIN CTAB
M  V30 COUNTS 53 56 0 0 0
M  V30 BEGIN ATOM
M  V30 1 Cl -2.3075 1.0708 0.906 0
M  V30 2 C -0.7118 0.2206 1.2753 0 CFG=2
M  V30 3 C -0.8268 -0.4269 2.7493 0
M  V30 4 C 0.4495 1.2751 1.0612 0
M  V30 5 C -0.5203 -0.9465 0.2049 0
M  V30 6 C -1.8903 -1.5521 2.7133 0
M  V30 7 C -1.1663 0.5741 3.8568 0
M  V30 8 C 0.5174 -1.0517 3.2037 0
M  V30 9 Cl 0.3031 2.7913 2.021 0
M  V30 10 C 0.6387 1.7299 -0.4124 0
M  V30 11 C -0.3695 -0.3892 -1.2211 0
M  V30 12 C -1.6202 -2.0197 0.2789 0
M  V30 13 C -2.974 -1.5862 3.5109 0
M  V30 14 C -1.7121 -2.626 1.6727 0
M  V30 15 C -2.2478 0.5328 4.647 0
M  V30 16 C 0.8458 0.5525 -1.3774 0
M  V30 17 C -0.1967 -1.3752 -2.3745 0
M  V30 18 C -3.2423 -0.5443 4.52 0
M  V30 19 C 0.7559 0.8557 -2.9116 0 CFG=1
M  V30 20 C 2.2046 -0.1314 -1.0466 0
M  V30 21 C 0.4117 -0.5362 -3.5162 0
M  V30 22 O -4.2363 -0.5862 5.2328 0
M  V30 23 O -0.3613 1.6896 -3.2287 0
M  V30 24 C 2.0553 1.4261 -3.5262 0
M  V30 25 O 2.991 0.7125 -3.9016 0
M  V30 26 C 2.1702 2.9413 -3.634 0
M  V30 27 O 3.5126 3.35 -3.8485 0
M  V30 28 H 1.3885 0.8339 1.4039 0
M  V30 29 H 0.411 -1.4708 0.4429 0
M  V30 30 H -0.4545 1.3666 4.0666 0
M  V30 31 H 0.9184 -1.776 2.4899 0
M  V30 32 H 0.4048 -1.5822 4.1586 0
M  V30 33 H 1.2894 -0.2887 3.3562 0
M  V30 34 H -0.2341 2.3223 -0.7084 0
M  V30 35 H 1.5003 2.4069 -0.4811 0
M  V30 36 H -1.2881 0.1696 -1.4503 0
M  V30 37 H -1.4038 -2.8299 -0.4272 0
M  V30 38 H -2.5911 -1.6056 -0.0181 0
M  V30 39 H -3.7224 -2.369 3.4548 0
M  V30 40 H -2.5416 -3.3438 1.6896 0
M  V30 41 H -0.808 -3.2055 1.8925 0
M  V30 42 H -2.4298 1.2664 5.4233 0
M  V30 43 H -1.1509 -1.818 -2.6785 0
M  V30 44 H 0.4765 -2.1966 -2.1048 0
M  V30 45 H 2.4365 -0.9596 -1.7231 0
M  V30 46 H 2.2475 -0.5382 -0.0337 0
M  V30 47 H 3.0263 0.5901 -1.1229 0
M  V30 48 H -0.3099 -0.4458 -4.3369 0
M  V30 49 H 1.2864 -1.0619 -3.9135 0
M  V30 50 H -0.3493 2.5022 -2.6974 0
M  V30 51 H 1.5594 3.2862 -4.4724 0
M  V30 52 H 1.8259 3.4072 -2.7082 0
M  V30 53 H 3.9339 2.6399 -4.3738 0
M  V30 END ATOM
M  V30 BEGIN BOND
M  V30 1 1 1 2
M  V30 2 1 2 3
M  V30 3 1 2 4
M  V30 4 1 2 5
M  V30 5 1 3 6
M  V30 6 1 3 7
M  V30 7 1 3 8
M  V30 8 1 4 9
M  V30 9 1 4 10
M  V30 10 1 5 11
M  V30 11 1 5 12
M  V30 12 2 6 13
M  V30 13 1 6 14
M  V30 14 2 7 15
M  V30 15 1 10 16
M  V30 16 1 11 17
M  V30 17 1 13 18
M  V30 18 1 16 19
M  V30 19 1 16 20
M  V30 20 1 17 21
M  V30 21 2 18 22
M  V30 22 1 19 23
M  V30 23 1 19 24
M  V30 24 2 24 25
M  V30 25 1 24 26
M  V30 26 1 26 27
M  V30 27 1 11 16
M  V30 28 1 12 14
M  V30 29 1 15 18
M  V30 30 1 19 21
M  V30 31 1 4 28
M  V30 32 1 5 29
M  V30 33 1 7 30
M  V30 34 1 8 31
M  V30 35 1 8 32
M  V30 36 1 8 33
M  V30 37 1 10 34
M  V30 38 1 10 35
M  V30 39 1 11 36
M  V30 40 1 12 37
M  V30 41 1 12 38
M  V30 42 1 13 39
M  V30 43 1 14 40
M  V30 44 1 14 41
M  V30 45 1 15 42
M  V30 46 1 17 43
M  V30 47 1 17 44
M  V30 48 1 20 45
M  V30 49 1 20 46
M  V30 50 1 20 47
M  V30 51 1 21 48
M  V30 52 1 21 49
M  V30 53 1 23 50
M  V30 54 1 26 51
M  V30 55 1 26 52
M  V30 56 1 27 53
M  V30 END BOND
M  V30 BEGIN COLLECTION
M  V30 MDLV30/STEABS ATOMS=(2 2 19)
M  V30 END COLLECTION
M  V30 END CTAB
M  END
>  <Column 1>
1219

>  <level_0>
1362

>  <index>
1362

>  <Unnamed: 0>
1362

>  <NO.>
1374

>  <Name>
schembl1649910

>  <IUPAC_name>
(9r-17r)-9-11-dichloro-17-hydroxy-17-(2-hydroxyacetyl)-10-13-dimethyl-6-7-8-11-12-14-15-16-octahydrocyclopenta[a]phenanthren-3-one

>  <SMILES>
CC12CC(Cl)[C@@]3(Cl)C(CCC4=CC(=O)C=CC43C)C1CC[C@]2(O)C(=O)CO

>  <CID>
23441

>  <logBB>


>  <BBB+/BBB->
BBB+

>  <Inchi>
InChI=1S/C21H26Cl2O4/c1-18-7-5-13(25)9-12(18)3-4-15-14-6-8-20(27-17(26)11-24)19(14-2)10-16(22)21(15-18)23/h5-7-9-14-16-24-27H-3-4-6-8-10-11H2-1-2H3/t14?-15?-16?-18?-19?-20--21-/m0/s1

>  <threshold>
-1

>  <reference>
R1|R27|R30|

>  <group>
B

>  <Class>
1

>  <ABC>
21.64

>  <ABCGG>
18.18

>  <nAcid>
0

>  <nBase>
0

>  <nAromAtom>
0

>  <nAromBond>
0

>  <nAtom>
53

>  <nHeavyAtom>
27

>  <nSpiro>
0

>  <nBridgehead>
0

>  <nHetero>
6

>  <nN>
0

>  <nO>
4

>  <nF>
0

>  <BalabanJ>
1.74

>  <BertzCT>
776.14

>  <nBonds>
56

>  <nBondsO>
30

>  <nBondsS>
52

>  <nBondsD>
4

>  <nBondsT>
0

>  <nBondsA>
0

>  <nBondsM>
4

>  <nBondsKS>
52

>  <nBondsKD>
4

>  <RNCG>
0.19

>  <RPCG>
0.1

>  <FCSP3>
0.71

>  <SZ>
36.33

>  <Sm>
34.41

>  <Sv>
33.08

>  <Sse>
53.4

>  <Sp>
35.91

>  <Si>
59.54

>  <MZ>
0.69

>  <Mm>
0.65

>  <Mv>
0.62

>  <Mse>
1.01

>  <Mp>
0.68

>  <Mi>
1.12

>  <NsCH3>
2

>  <NdCH2>
0

>  <NssCH2>
6

>  <NtCH>
0

>  <NdsCH>
3

>  <NaaCH>
0

>  <NsssCH>
3

>  <NddC>
0

>  <NtsC>
0

>  <NdssC>
3

>  <NaasC>
0

>  <NaaaC>
0

>  <NssssC>
4

>  <NsNH3>
0

>  <NsNH2>
0

>  <NssNH2>
0

>  <NdNH>
0

>  <NssNH>
0

>  <NaaNH>
0

>  <NtN>
0

>  <NsssNH>
0

>  <NdsN>
0

>  <NaaN>
0

>  <NsssN>
0

>  <NddsN>
0

>  <NaasN>
0

>  <NssssN>
0

>  <NsOH>
2

>  <NdO>
2

>  <NssO>
0

>  <NaaO>
0

>  <NsF>
0

>  <NsSiH3>
0

>  <NssSiH2>
0

>  <NsssSiH>
0

>  <NssssSi>
0

>  <NsPH2>
0

>  <NssPH>
0

>  <NsssP>
0

>  <NdsssP>
0

>  <NsssssP>
0

>  <NsSH>
0

>  <NdS>
0

>  <NssS>
0

>  <NaaS>
0

>  <NdssS>
0

>  <NddssS>
0

>  <NsCl>
2

>  <NsBr>
0

>  <NsI>
0

>  <fragCpx>
198.06

>  <fMF>
0.32

>  <nHBAcc>
4

>  <nHBDon>
2

>  <Kier1>
20.28

>  <Kier2>
6.25

>  <Lipinski>
1

>  <GhoseFilter>
1

>  <FilterItLogS>
-4.15

>  <VMcGowan>
294.07

>  <LabuteASA>
169.15

>  <PEOE_VSA1>
10.21

>  <PEOE_VSA2>
9.59

>  <PEOE_VSA3>
0

>  <PEOE_VSA4>
0

>  <PEOE_VSA5>
23.2

>  <PEOE_VSA6>
25.5

>  <PEOE_VSA7>
56.09

>  <PEOE_VSA8>
10.83

>  <PEOE_VSA9>
10.25

>  <PEOE_VSA10>
12.21

>  <PEOE_VSA11>
11.57

>  <PEOE_VSA12>
0

>  <PEOE_VSA13>
0

>  <SMR_VSA1>
19.8

>  <SMR_VSA2>
0

>  <SMR_VSA3>
0

>  <SMR_VSA4>
22.67

>  <SMR_VSA5>
61.8

>  <SMR_VSA6>
6.61

>  <SMR_VSA7>
23.8

>  <SMR_VSA8>
0

>  <SMR_VSA9>
0

>  <SlogP_VSA1>
0

>  <SlogP_VSA2>
44.24

>  <SlogP_VSA3>
9.59

>  <SlogP_VSA4>
22.67

>  <SlogP_VSA5>
45.95

>  <SlogP_VSA6>
23.8

>  <SlogP_VSA7>
0

>  <SlogP_VSA8>
0

>  <SlogP_VSA9>
0

>  <SlogP_VSA10>
0

>  <SlogP_VSA11>
0

>  <EState_VSA1>
39.07

>  <EState_VSA2>
17.62

>  <EState_VSA3>
19.26

>  <EState_VSA4>
18.41

>  <EState_VSA5>
0

>  <EState_VSA6>
12.15

>  <EState_VSA7>
13

>  <EState_VSA8>
6.92

>  <EState_VSA9>
23.2

>  <EState_VSA10>
19.8

>  <VSA_EState1>
0

>  <VSA_EState2>
23.55

>  <VSA_EState3>
20.19

>  <VSA_EState4>
-1.78

>  <VSA_EState5>
-0.49

>  <VSA_EState6>
0

>  <VSA_EState7>
8.11

>  <VSA_EState8>
3.31

>  <VSA_EState9>
0

>  <apol>
59.97

>  <bpol>
28.84

>  <nRing>
4

>  <nHRing>
0

>  <naRing>
0

>  <naHRing>
0

>  <nARing 2>
4

>  <nAHRing 2>
0

>  <nFRing>
1

>  <nFHRing>
0

>  <nFaRing>
0

>  <nFaHRing>
0

>  <nFARing 2>
1

>  <nFAHRing 2>
0

>  <nRot>
2

>  <SLogP>
3.17

>  <SMR>
103.78

>  <TopoPSA(NO)>
74.6

>  <TopoPSA>
74.6

>  <JGI1>
0.32

>  <JGI2>
0.17

>  <JGI3>
0.08

>  <JGI4>
0.06

>  <JGI5>
0.04

>  <Diameter>
12

>  <Radius>
6

>  <TMWC10>
138.19

>  <TSRW10>
78.62

>  <MW>
412.12

>  <AMW>
7.78

>  <WPath>
1533

>  <WPol>
66

>  <Zagreb1>
162

>  <Zagreb2>
212

>  <mZagreb2>
5.61

>  <yes>


>  <nAR-cont>
0.199399

>  <nHA-cont>
0.860070871

>  <MWHBN>
0.295555744

>  <MWHBN-cont>
0.853810588

>  <TPSA-cont>
0.479245676

>  <pka_cont>
0.97

>  <yes.1>


>  <BBB_SCORE>
3.783677105

>  <MMFF94 Energy>
163.18

$$$$
Compound 1019
Actelion Java MolfileCreator 2.0

  0  0  0  0  0  0              0 V3000
M  V30 BEGIN CTAB
M  V30 COUNTS 34 36 0 0 0
M  V30 BEGIN ATOM
M  V30 1 N 0.1595 3.0338 0.1595 0
M  V30 2 C 0.0918 1.5753 0.2436 0
M  V30 3 C 1.3502 0.9603 -0.4044 0
M  V30 4 C -1.1615 1.0534 -0.4922 0
M  V30 5 C 0.0243 1.1453 1.7232 0
M  V30 6 C 1.3058 -0.5834 -0.3134 0
M  V30 7 C -1.2379 -0.489 -0.4019 0
M  V30 8 C -0.0363 -0.3876 1.8244 0
M  V30 9 C 0.0372 -1.0872 -1.0406 0
M  V30 10 C 1.2192 -0.9908 1.1749 0
M  V30 11 C 2.5587 -1.1874 -0.9549 0
M  V30 12 C -1.2852 -0.8976 1.0879 0
M  V30 13 C -2.4845 -1.0006 -1.1303 0
M  V30 14 H 0.176 3.3241 -0.8175 0
M  V30 15 H -0.6829 3.4434 0.5618 0
M  V30 16 H 1.424 1.2687 -1.4565 0
M  V30 17 H 2.2543 1.3364 0.0944 0
M  V30 18 H -2.0679 1.4964 -0.0565 0
M  V30 19 H -1.1386 1.3639 -1.5459 0
M  V30 20 H 0.901 1.515 2.2716 0
M  V30 21 H -0.8583 1.58 2.2112 0
M  V30 22 H -0.084 -0.6848 2.8782 0
M  V30 23 H -0.0048 -2.1841 -1.0005 0
M  V30 24 H 0.0843 -0.8165 -2.1042 0
M  V30 25 H 2.1126 -0.6505 1.7143 0
M  V30 26 H 1.1931 -2.0842 1.2683 0
M  V30 27 H 2.543 -2.2814 -0.8988 0
M  V30 28 H 2.6354 -0.9081 -2.0115 0
M  V30 29 H 3.4674 -0.8402 -0.4508 0
M  V30 30 H -2.1862 -0.4904 1.5648 0
M  V30 31 H -1.347 -1.9897 1.1803 0
M  V30 32 H -3.3979 -0.5858 -0.6896 0
M  V30 33 H -2.467 -0.7193 -2.189 0
M  V30 34 H -2.5537 -2.0927 -1.0759 0
M  V30 END ATOM
M  V30 BEGIN BOND
M  V30 1 1 1 2
M  V30 2 1 2 3
M  V30 3 1 2 4
M  V30 4 1 2 5
M  V30 5 1 3 6
M  V30 6 1 4 7
M  V30 7 1 5 8
M  V30 8 1 6 9
M  V30 9 1 6 10
M  V30 10 1 6 11
M  V30 11 1 7 12
M  V30 12 1 7 13
M  V30 13 1 7 9
M  V30 14 1 8 10
M  V30 15 1 8 12
M  V30 16 1 1 14
M  V30 17 1 1 15
M  V30 18 1 3 16
M  V30 19 1 3 17
M  V30 20 1 4 18
M  V30 21 1 4 19
M  V30 22 1 5 20
M  V30 23 1 5 21
M  V30 24 1 8 22
M  V30 25 1 9 23
M  V30 26 1 9 24
M  V30 27 1 10 25
M  V30 28 1 10 26
M  V30 29 1 11 27
M  V30 30 1 11 28
M  V30 31 1 11 29
M  V30 32 1 12 30
M  V30 33 1 12 31
M  V30 34 1 13 32
M  V30 35 1 13 33
M  V30 36 1 13 34
M  V30 END BOND
M  V30 END CTAB
M  END
>  <Column 1>
1220

>  <level_0>
1363

>  <index>
1363

>  <Unnamed: 0>
1363

>  <NO.>
1375

>  <Name>
memantine

>  <IUPAC_name>
3-5-dimethyladamantan-1-amine

>  <SMILES>
CC12CC3CC(C)(C1)CC(N)(C3)C2

>  <CID>
4054

>  <logBB>


>  <BBB+/BBB->
BBB+

>  <Inchi>
InChI=1S/C12H21N/c1-10-3-9-4-11(2-6-10)8-12(13-5-9)7-10/h9H-3-8-13H2-1-2H3

>  <threshold>
-1

>  <reference>
R1|R13|R19|R6|R14|R27|R27|R30|

>  <group>
B

>  <Class>
1

>  <ABC>
11.08

>  <ABCGG>
9.25

>  <nAcid>
0

>  <nBase>
1

>  <nAromAtom>
0

>  <nAromBond>
0

>  <nAtom>
34

>  <nHeavyAtom>
13

>  <nSpiro>
0

>  <nBridgehead>
4

>  <nHetero>
1

>  <nN>
1

>  <nO>
0

>  <nF>
0

>  <BalabanJ>
2.03

>  <BertzCT>
207.06

>  <nBonds>
36

>  <nBondsO>
15

>  <nBondsS>
36

>  <nBondsD>
0

>  <nBondsT>
0

>  <nBondsA>
0

>  <nBondsM>
0

>  <nBondsKS>
36

>  <nBondsKD>
0

>  <RNCG>
0.42

>  <RPCG>
0.16

>  <FCSP3>
1

>  <SZ>
16.67

>  <Sm>
14.93

>  <Sv>
18.45

>  <Sse>
32.99

>  <Sp>
21.04

>  <Si>
38.65

>  <MZ>
0.49

>  <Mm>
0.44

>  <Mv>
0.54

>  <Mse>
0.97

>  <Mp>
0.62

>  <Mi>
1.14

>  <NsCH3>
2

>  <NdCH2>
0

>  <NssCH2>
6

>  <NtCH>
0

>  <NdsCH>
0

>  <NaaCH>
0

>  <NsssCH>
1

>  <NddC>
0

>  <NtsC>
0

>  <NdssC>
0

>  <NaasC>
0

>  <NaaaC>
0

>  <NssssC>
3

>  <NsNH3>
0

>  <NsNH2>
1

>  <NssNH2>
0

>  <NdNH>
0

>  <NssNH>
0

>  <NaaNH>
0

>  <NtN>
0

>  <NsssNH>
0

>  <NdsN>
0

>  <NaaN>
0

>  <NsssN>
0

>  <NddsN>
0

>  <NaasN>
0

>  <NssssN>
0

>  <NsOH>
0

>  <NdO>
0

>  <NssO>
0

>  <NaaO>
0

>  <NsF>
0

>  <NsSiH3>
0

>  <NssSiH2>
0

>  <NsssSiH>
0

>  <NssssSi>
0

>  <NsPH2>
0

>  <NssPH>
0

>  <NsssP>
0

>  <NdsssP>
0

>  <NsssssP>
0

>  <NsSH>
0

>  <NdS>
0

>  <NssS>
0

>  <NaaS>
0

>  <NdssS>
0

>  <NddssS>
0

>  <NsCl>
0

>  <NsBr>
0

>  <NsI>
0

>  <fragCpx>
69.01

>  <fMF>
0.29

>  <nHBAcc>
1

>  <nHBDon>
1

>  <Kier1>
8.32

>  <Kier2>
1.99

>  <Lipinski>
1

>  <GhoseFilter>
1

>  <FilterItLogS>
-2.8

>  <VMcGowan>
157.34

>  <LabuteASA>
81.08

>  <PEOE_VSA1>
5.73

>  <PEOE_VSA2>
0

>  <PEOE_VSA3>
0

>  <PEOE_VSA4>
0

>  <PEOE_VSA5>
0

>  <PEOE_VSA6>
13.85

>  <PEOE_VSA7>
55.27

>  <PEOE_VSA8>
5.54

>  <PEOE_VSA9>
0

>  <PEOE_VSA10>
0

>  <PEOE_VSA11>
0

>  <PEOE_VSA12>
0

>  <PEOE_VSA13>
0

>  <SMR_VSA1>
0

>  <SMR_VSA2>
0

>  <SMR_VSA3>
0

>  <SMR_VSA4>
22.48

>  <SMR_VSA5>
57.91

>  <SMR_VSA6>
0

>  <SMR_VSA7>
0

>  <SMR_VSA8>
0

>  <SMR_VSA9>
0

>  <SlogP_VSA1>
5.73

>  <SlogP_VSA2>
5.54

>  <SlogP_VSA3>
0

>  <SlogP_VSA4>
16.75

>  <SlogP_VSA5>
52.37

>  <SlogP_VSA6>
0

>  <SlogP_VSA7>
0

>  <SlogP_VSA8>
0

>  <SlogP_VSA9>
0

>  <SlogP_VSA10>
0

>  <SlogP_VSA11>
0

>  <EState_VSA1>
0

>  <EState_VSA2>
5.54

>  <EState_VSA3>
10.83

>  <EState_VSA4>
5.92

>  <EState_VSA5>
38.52

>  <EState_VSA6>
0

>  <EState_VSA7>
0

>  <EState_VSA8>
13.85

>  <EState_VSA9>
5.73

>  <EState_VSA10>
0

>  <VSA_EState1>
0

>  <VSA_EState2>
0

>  <VSA_EState3>
0

>  <VSA_EState4>
7.92

>  <VSA_EState5>
0.95

>  <VSA_EState6>
0

>  <VSA_EState7>
8.27

>  <VSA_EState8>
4.94

>  <VSA_EState9>
0

>  <apol>
35.14

>  <bpol>
20.5

>  <nRing>
4

>  <nHRing>
0

>  <naRing>
0

>  <naHRing>
0

>  <nARing 2>
4

>  <nAHRing 2>
0

>  <nFRing>
1

>  <nFHRing>
0

>  <nFaRing>
0

>  <nFaHRing>
0

>  <nFARing 2>
1

>  <nFAHRing 2>
0

>  <nRot>
0

>  <SLogP>
2.69

>  <SMR>
54.32

>  <TopoPSA(NO)>
26.02

>  <TopoPSA>
26.02

>  <JGI1>
0.5

>  <JGI2>
0.05

>  <JGI3>
0.13

>  <JGI4>
0.07

>  <JGI5>
0

>  <Diameter>
4

>  <Radius>
3

>  <TMWC10>
102.09

>  <TSRW10>
46.75

>  <MW>
179.17

>  <AMW>
5.27

>  <WPath>
192

>  <WPol>
21

>  <Zagreb1>
84

>  <Zagreb2>
102

>  <mZagreb2>
2.38

>  <yes>


>  <nAR-cont>
0.199399

>  <nHA-cont>
0.841215992

>  <MWHBN>
0.149416084

>  <MWHBN-cont>
0.930989236

>  <TPSA-cont>
0.818364243

>  <pka_cont>
0.97

>  <yes.1>


>  <BBB_SCORE>
4.558827331

>  <MMFF94 Energy>
33.288

$$$$
Compound 1020
Actelion Java MolfileCreator 2.0

  0  0  0  0  0  0              0 V3000
M  V30 BEGIN CTAB
M  V30 COUNTS 55 58 0 0 0
M  V30 BEGIN ATOM
M  V30 1 O -5.2386 0.0804 3.7051 0
M  V30 2 C -4.116 0.3079 3.2614 0
M  V30 3 C -3.0819 -0.7503 3.3166 0
M  V30 4 C -3.7153 1.6604 2.7357 0
M  V30 5 C -1.8509 -0.5659 2.8067 0
M  V30 6 C -2.6823 1.5147 1.6275 0
M  V30 7 C -1.4238 0.6945 2.0436 0
M  V30 8 C -0.796 -1.6287 3.0017 0
M  V30 9 C -0.6464 0.2854 0.7298 0
M  V30 10 C -0.5567 1.5566 2.9896 0
M  V30 11 C -0.1342 -2.0092 1.6848 0
M  V30 12 C 0.4536 -0.7783 0.9785 0
M  V30 13 C -0.0548 1.4871 -0.0341 0
M  V30 14 C 1.2171 -1.1822 -0.3027 0
M  V30 15 C 0.6249 1.0603 -1.3363 0
M  V30 16 C 1.7458 0.011 -1.1379 0
M  V30 17 C 0.4214 -2.0252 -1.3158 0
M  V30 18 C 2.1342 -0.7058 -2.4689 0
M  V30 19 C 2.9586 0.6669 -0.4477 0
M  V30 20 C 1.0065 -1.718 -2.7019 0
M  V30 21 O 3.3299 -1.4863 -2.2692 0
M  V30 22 C 2.4501 0.2471 -3.6353 0
M  V30 23 O 3.5799 0.7464 -3.7407 0
M  V30 24 C 1.3829 0.5511 -4.6767 0
M  V30 25 O 1.7695 1.6314 -5.5157 0
M  V30 26 H -3.3725 -1.6526 3.8439 0
M  V30 27 H -3.3374 2.2637 3.5672 0
M  V30 28 H -4.6065 2.1546 2.333 0
M  V30 29 H -2.3968 2.5172 1.2872 0
M  V30 30 H -3.1712 1.0252 0.7734 0
M  V30 31 H -1.2206 -2.5319 3.4571 0
M  V30 32 H -0.0385 -1.2578 3.703 0
M  V30 33 H -1.3887 -0.1769 0.0624 0
M  V30 34 H -1.0518 1.7183 3.9545 0
M  V30 35 H -0.3587 2.5465 2.5646 0
M  V30 36 H 0.4104 1.0914 3.2039 0
M  V30 37 H -0.8728 -2.5057 1.0433 0
M  V30 38 H 0.6595 -2.7401 1.8813 0
M  V30 39 H 1.1986 -0.3401 1.6561 0
M  V30 40 H 0.6622 2.0293 0.5901 0
M  V30 41 H -0.8456 2.2006 -0.2895 0
M  V30 42 H 2.073 -1.7962 0.0161 0
M  V30 43 H -0.1568 0.6711 -1.9989 0
M  V30 44 H 1.0297 1.9515 -1.832 0
M  V30 45 H 0.507 -3.0929 -1.0843 0
M  V30 46 H -0.6461 -1.7821 -1.3128 0
M  V30 47 H 3.7543 -0.0571 -0.2433 0
M  V30 48 H 3.3823 1.4612 -1.0714 0
M  V30 49 H 2.6935 1.114 0.5149 0
M  V30 50 H 1.3734 -2.6385 -3.1705 0
M  V30 51 H 0.2046 -1.3305 -3.3372 0
M  V30 52 H 4.085 -0.8725 -2.3814 0
M  V30 53 H 1.2349 -0.3328 -5.3024 0
M  V30 54 H 0.4448 0.8305 -4.1962 0
M  V30 55 H 2.7483 1.633 -5.5307 0
M  V30 END ATOM
M  V30 BEGIN BOND
M  V30 1 2 1 2
M  V30 2 1 2 3
M  V30 3 1 2 4
M  V30 4 2 3 5
M  V30 5 1 4 6
M  V30 6 1 5 7
M  V30 7 1 5 8
M  V30 8 1 7 9
M  V30 9 1 7 10
M  V30 10 1 8 11
M  V30 11 1 9 12
M  V30 12 1 9 13
M  V30 13 1 12 14
M  V30 14 1 13 15
M  V30 15 1 14 16
M  V30 16 1 14 17
M  V30 17 1 16 18
M  V30 18 1 16 19
M  V30 19 1 17 20
M  V30 20 1 18 21
M  V30 21 1 18 22
M  V30 22 2 22 23
M  V30 23 1 22 24
M  V30 24 1 24 25
M  V30 25 1 6 7
M  V30 26 1 11 12
M  V30 27 1 15 16
M  V30 28 1 18 20
M  V30 29 1 3 26
M  V30 30 1 4 27
M  V30 31 1 4 28
M  V30 32 1 6 29
M  V30 33 1 6 30
M  V30 34 1 8 31
M  V30 35 1 8 32
M  V30 36 1 9 33
M  V30 37 1 10 34
M  V30 38 1 10 35
M  V30 39 1 10 36
M  V30 40 1 11 37
M  V30 41 1 11 38
M  V30 42 1 12 39
M  V30 43 1 13 40
M  V30 44 1 13 41
M  V30 45 1 14 42
M  V30 46 1 15 43
M  V30 47 1 15 44
M  V30 48 1 17 45
M  V30 49 1 17 46
M  V30 50 1 19 47
M  V30 51 1 19 48
M  V30 52 1 19 49
M  V30 53 1 20 50
M  V30 54 1 20 51
M  V30 55 1 21 52
M  V30 56 1 24 53
M  V30 57 1 24 54
M  V30 58 1 25 55
M  V30 END BOND
M  V30 END CTAB
M  END
>  <Column 1>
1221

>  <level_0>
1364

>  <index>
1364

>  <Unnamed: 0>
1364

>  <NO.>
1376

>  <Name>
cortexolone(cortodoxonecortifen)

>  <IUPAC_name>
17-hydroxy-17-(2-hydroxyacetyl)-10-13-dimethyl-2-6-7-8-9-11-12-14-15-16-decahydro-1h-cyclopenta[a]phenanthren-3-one

>  <SMILES>
CC12CCC(=O)C=C1CCC1C2CCC2(C)C1CCC2(O)C(=O)CO

>  <CID>
227112

>  <logBB>


>  <BBB+/BBB->
BBB+

>  <Inchi>
InChI=1S/C21H30O4/c1-19-8-5-14(23)11-13(19)3-4-15-16(19)6-9-20(2)17(15)7-10-21(20-25)18(24)12-22/h11-15-17-22-25H-3-10-12H2-1-2H3

>  <threshold>
-1

>  <reference>
R1|R19|R27|R27|R30|

>  <group>
B

>  <Class>
1

>  <ABC>
20.07

>  <ABCGG>
16.35

>  <nAcid>
0

>  <nBase>
0

>  <nAromAtom>
0

>  <nAromBond>
0

>  <nAtom>
55

>  <nHeavyAtom>
25

>  <nSpiro>
0

>  <nBridgehead>
0

>  <nHetero>
4

>  <nN>
0

>  <nO>
4

>  <nF>
0

>  <BalabanJ>
1.62

>  <BertzCT>
652.28

>  <nBonds>
58

>  <nBondsO>
28

>  <nBondsS>
55

>  <nBondsD>
3

>  <nBondsT>
0

>  <nBondsA>
0

>  <nBondsM>
3

>  <nBondsKS>
55

>  <nBondsKD>
3

>  <RNCG>
0.2

>  <RPCG>
0.11

>  <FCSP3>
0.81

>  <SZ>
31.33

>  <Sm>
28.85

>  <Sv>
31.99

>  <Sse>
54.64

>  <Sp>
34.9

>  <Si>
62.07

>  <MZ>
0.57

>  <Mm>
0.52

>  <Mv>
0.58

>  <Mse>
0.99

>  <Mp>
0.63

>  <Mi>
1.13

>  <NsCH3>
2

>  <NdCH2>
0

>  <NssCH2>
9

>  <NtCH>
0

>  <NdsCH>
1

>  <NaaCH>
0

>  <NsssCH>
3

>  <NddC>
0

>  <NtsC>
0

>  <NdssC>
3

>  <NaasC>
0

>  <NaaaC>
0

>  <NssssC>
3

>  <NsNH3>
0

>  <NsNH2>
0

>  <NssNH2>
0

>  <NdNH>
0

>  <NssNH>
0

>  <NaaNH>
0

>  <NtN>
0

>  <NsssNH>
0

>  <NdsN>
0

>  <NaaN>
0

>  <NsssN>
0

>  <NddsN>
0

>  <NaasN>
0

>  <NssssN>
0

>  <NsOH>
2

>  <NdO>
2

>  <NssO>
0

>  <NaaO>
0

>  <NsF>
0

>  <NsSiH3>
0

>  <NssSiH2>
0

>  <NsssSiH>
0

>  <NssssSi>
0

>  <NsPH2>
0

>  <NssPH>
0

>  <NsssP>
0

>  <NdsssP>
0

>  <NsssssP>
0

>  <NsSH>
0

>  <NdS>
0

>  <NssS>
0

>  <NaaS>
0

>  <NdssS>
0

>  <NddssS>
0

>  <NsCl>
0

>  <NsBr>
0

>  <NsI>
0

>  <fragCpx>
184.04

>  <fMF>
0.31

>  <nHBAcc>
4

>  <nHBDon>
2

>  <Kier1>
18.37

>  <Kier2>
6

>  <Lipinski>
1

>  <GhoseFilter>
1

>  <FilterItLogS>
-3.45

>  <VMcGowan>
273.89

>  <LabuteASA>
149.24

>  <PEOE_VSA1>
10.21

>  <PEOE_VSA2>
9.59

>  <PEOE_VSA3>
0

>  <PEOE_VSA4>
0

>  <PEOE_VSA5>
0

>  <PEOE_VSA6>
19.42

>  <PEOE_VSA7>
74.19

>  <PEOE_VSA8>
11.84

>  <PEOE_VSA9>
0

>  <PEOE_VSA10>
12.21

>  <PEOE_VSA11>
11.57

>  <PEOE_VSA12>
0

>  <PEOE_VSA13>
0

>  <SMR_VSA1>
19.8

>  <SMR_VSA2>
0

>  <SMR_VSA3>
0

>  <SMR_VSA4>
28.58

>  <SMR_VSA5>
70.82

>  <SMR_VSA6>
6.61

>  <SMR_VSA7>
11.65

>  <SMR_VSA8>
0

>  <SMR_VSA9>
0

>  <SlogP_VSA1>
0

>  <SlogP_VSA2>
33.99

>  <SlogP_VSA3>
9.59

>  <SlogP_VSA4>
28.58

>  <SlogP_VSA5>
65.21

>  <SlogP_VSA6>
11.65

>  <SlogP_VSA7>
0

>  <SlogP_VSA8>
0

>  <SlogP_VSA9>
0

>  <SlogP_VSA10>
0

>  <SlogP_VSA11>
0

>  <EState_VSA1>
23.41

>  <EState_VSA2>
11.2

>  <EState_VSA3>
30.6

>  <EState_VSA4>
38.52

>  <EState_VSA5>
5.57

>  <EState_VSA6>
0

>  <EState_VSA7>
6.08

>  <EState_VSA8>
13.85

>  <EState_VSA9>
0

>  <EState_VSA10>
19.8

>  <VSA_EState1>
0

>  <VSA_EState2>
24.21

>  <VSA_EState3>
20.54

>  <VSA_EState4>
-0.33

>  <VSA_EState5>
1.26

>  <VSA_EState6>
0

>  <VSA_EState7>
8.72

>  <VSA_EState8>
3.84

>  <VSA_EState9>
0

>  <apol>
58.28

>  <bpol>
31.83

>  <nRing>
4

>  <nHRing>
0

>  <naRing>
0

>  <naHRing>
0

>  <nARing 2>
4

>  <nAHRing 2>
0

>  <nFRing>
1

>  <nFHRing>
0

>  <nFaRing>
0

>  <nFaHRing>
0

>  <nFARing 2>
1

>  <nFAHRing 2>
0

>  <nRot>
2

>  <SLogP>
2.81

>  <SMR>
93.75

>  <TopoPSA(NO)>
74.6

>  <TopoPSA>
74.6

>  <JGI1>
0.29

>  <JGI2>
0.15

>  <JGI3>
0.07

>  <JGI4>
0.06

>  <JGI5>
0.03

>  <Diameter>
12

>  <Radius>
6

>  <TMWC10>
132.63

>  <TSRW10>
75.96

>  <MW>
346.21

>  <AMW>
6.29

>  <WPath>
1316

>  <WPol>
56

>  <Zagreb1>
148

>  <Zagreb2>
190

>  <mZagreb2>
5.24

>  <yes>


>  <nAR-cont>
0.199399

>  <nHA-cont>
0.921834225

>  <MWHBN>
0.322464156

>  <MWHBN-cont>
0.76884812

>  <TPSA-cont>
0.479245676

>  <pka_cont>
0.97

>  <yes.1>


>  <BBB_SCORE>
3.717996758

>  <MMFF94 Energy>
115.46

$$$$
Compound 1021
Actelion Java MolfileCreator 2.0

  0  0  0  0  0  0              0 V3000
M  V30 BEGIN CTAB
M  V30 COUNTS 27 28 0 0 0
M  V30 BEGIN ATOM
M  V30 1 O 1.9124 1.5137 -1.5935 0
M  V30 2 C 0.9112 1.1006 -1.0295 0
M  V30 3 C 0.7306 -0.2913 -0.4155 0
M  V30 4 C -0.3714 1.8884 -0.8512 0
M  V30 5 C -0.2142 0.0574 0.7673 0
M  V30 6 C -0.192 -1.0076 -1.4283 0
M  V30 7 C 2.0185 -1.0134 -0.1011 0
M  V30 8 C -1.2198 0.7899 -0.1642 0
M  V30 9 C -0.8164 -1.1579 1.4987 0
M  V30 10 C 0.4165 0.9542 1.852 0
M  V30 11 C -1.5416 -0.2795 -1.2389 0
M  V30 12 H -0.7808 2.1997 -1.8147 0
M  V30 13 H -0.203 2.7505 -0.2022 0
M  V30 14 H -0.2936 -2.0768 -1.2139 0
M  V30 15 H 0.1641 -0.9059 -2.46 0
M  V30 16 H 2.6546 -0.4231 0.5666 0
M  V30 17 H 2.595 -1.1986 -1.014 0
M  V30 18 H 1.8279 -1.9798 0.3758 0
M  V30 19 H -2.1123 1.1856 0.3264 0
M  V30 20 H -1.2587 -1.9074 0.8388 0
M  V30 21 H -0.0499 -1.6748 2.0873 0
M  V30 22 H -1.6042 -0.8345 2.1888 0
M  V30 23 H 0.9855 1.7998 1.4562 0
M  V30 24 H -0.3598 1.3617 2.5094 0
M  V30 25 H 1.1123 0.3797 2.4743 0
M  V30 26 H -2.3125 -0.9755 -0.8919 0
M  V30 27 H -1.898 0.1624 -2.1753 0
M  V30 END ATOM
M  V30 BEGIN BOND
M  V30 1 2 1 2
M  V30 2 1 2 3
M  V30 3 1 2 4
M  V30 4 1 3 5
M  V30 5 1 3 6
M  V30 6 1 3 7
M  V30 7 1 4 8
M  V30 8 1 5 9
M  V30 9 1 5 10
M  V30 10 1 6 11
M  V30 11 1 5 8
M  V30 12 1 8 11
M  V30 13 1 4 12
M  V30 14 1 4 13
M  V30 15 1 6 14
M  V30 16 1 6 15
M  V30 17 1 7 16
M  V30 18 1 7 17
M  V30 19 1 7 18
M  V30 20 1 8 19
M  V30 21 1 9 20
M  V30 22 1 9 21
M  V30 23 1 9 22
M  V30 24 1 10 23
M  V30 25 1 10 24
M  V30 26 1 10 25
M  V30 27 1 11 26
M  V30 28 1 11 27
M  V30 END BOND
M  V30 END CTAB
M  END
>  <Column 1>
1222

>  <level_0>
1365

>  <index>
1365

>  <Unnamed: 0>
1365

>  <NO.>
1377

>  <Name>
camphor

>  <IUPAC_name>
1-7-7-trimethylbicyclo[2.2.1]heptan-2-one

>  <SMILES>
CC12CCC(CC1=O)C2(C)C

>  <CID>
2537

>  <logBB>


>  <BBB+/BBB->
BBB+

>  <Inchi>
InChI=1S/C10H16O/c1-9(2)7-4-5-10(9-3)8(11)6-7/h7H-4-6H2-1-3H3

>  <threshold>
-1

>  <reference>
R1|R13|R19|R27|R27|R30|

>  <group>
B

>  <Class>
1

>  <ABC>
8.85

>  <ABCGG>
8.94

>  <nAcid>
0

>  <nBase>
0

>  <nAromAtom>
0

>  <nAromBond>
0

>  <nAtom>
27

>  <nHeavyAtom>
11

>  <nSpiro>
0

>  <nBridgehead>
2

>  <nHetero>
1

>  <nN>
0

>  <nO>
1

>  <nF>
0

>  <BalabanJ>
2.4

>  <BertzCT>
216.91

>  <nBonds>
28

>  <nBondsO>
12

>  <nBondsS>
27

>  <nBondsD>
1

>  <nBondsT>
0

>  <nBondsA>
0

>  <nBondsM>
1

>  <nBondsKS>
27

>  <nBondsKD>
1

>  <RNCG>
0.49

>  <RPCG>
0.23

>  <FCSP3>
0.9

>  <SZ>
14

>  <Sm>
12.67

>  <Sv>
15.05

>  <Sse>
26.43

>  <Sp>
16.87

>  <Si>
30.53

>  <MZ>
0.52

>  <Mm>
0.47

>  <Mv>
0.56

>  <Mse>
0.98

>  <Mp>
0.62

>  <Mi>
1.13

>  <NsCH3>
3

>  <NdCH2>
0

>  <NssCH2>
3

>  <NtCH>
0

>  <NdsCH>
0

>  <NaaCH>
0

>  <NsssCH>
1

>  <NddC>
0

>  <NtsC>
0

>  <NdssC>
1

>  <NaasC>
0

>  <NaaaC>
0

>  <NssssC>
2

>  <NsNH3>
0

>  <NsNH2>
0

>  <NssNH2>
0

>  <NdNH>
0

>  <NssNH>
0

>  <NaaNH>
0

>  <NtN>
0

>  <NsssNH>
0

>  <NdsN>
0

>  <NaaN>
0

>  <NsssN>
0

>  <NddsN>
0

>  <NaasN>
0

>  <NssssN>
0

>  <NsOH>
0

>  <NdO>
1

>  <NssO>
0

>  <NaaO>
0

>  <NsF>
0

>  <NsSiH3>
0

>  <NssSiH2>
0

>  <NsssSiH>
0

>  <NssssSi>
0

>  <NsPH2>
0

>  <NssPH>
0

>  <NsssP>
0

>  <NdsssP>
0

>  <NsssssP>
0

>  <NsSH>
0

>  <NdS>
0

>  <NssS>
0

>  <NaaS>
0

>  <NdssS>
0

>  <NddssS>
0

>  <NsCl>
0

>  <NsBr>
0

>  <NsI>
0

>  <fragCpx>
34.01

>  <fMF>
0.26

>  <nHBAcc>
1

>  <nHBDon>
0

>  <Kier1>
7.64

>  <Kier2>
1.84

>  <Lipinski>
1

>  <GhoseFilter>
0

>  <FilterItLogS>
-2.6

>  <VMcGowan>
131.61

>  <LabuteASA>
68.17

>  <PEOE_VSA1>
0

>  <PEOE_VSA2>
4.79

>  <PEOE_VSA3>
0

>  <PEOE_VSA4>
0

>  <PEOE_VSA5>
0

>  <PEOE_VSA6>
20.77

>  <PEOE_VSA7>
24.17

>  <PEOE_VSA8>
11.84

>  <PEOE_VSA9>
0

>  <PEOE_VSA10>
5.78

>  <PEOE_VSA11>
0

>  <PEOE_VSA12>
0

>  <PEOE_VSA13>
0

>  <SMR_VSA1>
4.79

>  <SMR_VSA2>
0

>  <SMR_VSA3>
0

>  <SMR_VSA4>
16.75

>  <SMR_VSA5>
40.03

>  <SMR_VSA6>
0

>  <SMR_VSA7>
0

>  <SMR_VSA8>
0

>  <SMR_VSA9>
0

>  <SlogP_VSA1>
0

>  <SlogP_VSA2>
5.78

>  <SlogP_VSA3>
4.79

>  <SlogP_VSA4>
16.75

>  <SlogP_VSA5>
40.03

>  <SlogP_VSA6>
0

>  <SlogP_VSA7>
0

>  <SlogP_VSA8>
0

>  <SlogP_VSA9>
0

>  <SlogP_VSA10>
0

>  <SlogP_VSA11>
0

>  <EState_VSA1>
0

>  <EState_VSA2>
10.83

>  <EState_VSA3>
11.7

>  <EState_VSA4>
12.84

>  <EState_VSA5>
6.42

>  <EState_VSA6>
0

>  <EState_VSA7>
0

>  <EState_VSA8>
20.77

>  <EState_VSA9>
0

>  <EState_VSA10>
4.79

>  <VSA_EState1>
0

>  <VSA_EState2>
11.57

>  <VSA_EState3>
0

>  <VSA_EState4>
0.31

>  <VSA_EState5>
1.19

>  <VSA_EState6>
0

>  <VSA_EState7>
3.25

>  <VSA_EState8>
6.67

>  <VSA_EState9>
0

>  <apol>
28.17

>  <bpol>
16.92

>  <nRing>
2

>  <nHRing>
0

>  <naRing>
0

>  <naHRing>
0

>  <nARing 2>
2

>  <nAHRing 2>
0

>  <nFRing>
1

>  <nFHRing>
0

>  <nFaRing>
0

>  <nFaHRing>
0

>  <nFARing 2>
1

>  <nFAHRing 2>
0

>  <nRot>
0

>  <SLogP>
2.4

>  <SMR>
44.24

>  <TopoPSA(NO)>
17.07

>  <TopoPSA>
17.07

>  <JGI1>
0.38

>  <JGI2>
0.18

>  <JGI3>
0.1

>  <JGI4>
0.04

>  <JGI5>
0

>  <Diameter>
4

>  <Radius>
2

>  <TMWC10>
95.29

>  <TSRW10>
60.18

>  <MW>
152.12

>  <AMW>
5.63

>  <WPath>
123

>  <WPol>
19

>  <Zagreb1>
66

>  <Zagreb2>
85

>  <mZagreb2>
2.19

>  <yes>


>  <nAR-cont>
1

>  <nHA-cont>
0.720786536

>  <MWHBN>
0.081078712

>  <MWHBN-cont>
0.61348713

>  <TPSA-cont>
0.8808408

>  <pka_cont>
0.97

>  <yes.1>


>  <BBB_SCORE>
4.887698831

>  <MMFF94 Energy>
45.556

$$$$
Compound 1022
Actelion Java MolfileCreator 2.0

  0  0  0  0  0  0              0 V3000
M  V30 BEGIN CTAB
M  V30 COUNTS 41 43 0 0 0
M  V30 BEGIN ATOM
M  V30 1 O 3.023 -3.74 1.3515 0
M  V30 2 C 2.3217 -2.5758 1.466 0
M  V30 3 C 1.8294 -1.9108 0.3452 0
M  V30 4 C 2.1092 -2.0744 2.7382 0
M  V30 5 C 1.1093 -0.7042 0.4778 0
M  V30 6 C 1.3876 -0.8944 2.8943 0
M  V30 7 C 0.8719 -0.206 1.7798 0
M  V30 8 C 0.5315 0.0039 -0.7671 0
M  V30 9 C 0.131 1.0855 2.0515 0
M  V30 10 C 0.1992 1.5051 -0.4388 0
M  V30 11 C -0.7174 -0.8339 -1.2023 0
M  V30 12 C 1.5357 -0.0207 -1.9568 0
M  V30 13 C -0.63 1.6668 0.8481 0
M  V30 14 N 1.4059 2.3585 -0.296 0
M  V30 15 C -1.7153 -0.1486 -2.1412 0
M  V30 16 C -2.075 1.1239 0.8133 0
M  V30 17 C -3.0001 0.3201 -1.4541 0
M  V30 18 C -2.8704 1.466 -0.4485 0
M  V30 19 H 3.0898 -3.9708 0.411 0
M  V30 20 H 1.9951 -2.3413 -0.6367 0
M  V30 21 H 2.4992 -2.5989 3.6051 0
M  V30 22 H 1.2264 -0.5065 3.8984 0
M  V30 23 H -0.5607 0.9403 2.8914 0
M  V30 24 H 0.8747 1.8202 2.3888 0
M  V30 25 H -0.3418 1.9561 -1.274 0
M  V30 26 H -1.2467 -1.2453 -0.3354 0
M  V30 27 H -0.3567 -1.7356 -1.7198 0
M  V30 28 H 2.5331 0.3193 -1.6555 0
M  V30 29 H 1.6626 -1.0243 -2.3775 0
M  V30 30 H 1.1906 0.6196 -2.7765 0
M  V30 31 H -0.7454 2.746 1.0354 0
M  V30 32 H 1.8786 2.4402 -1.1947 0
M  V30 33 H 2.0738 1.8947 0.3225 0
M  V30 34 H -2.0194 -0.8913 -2.8915 0
M  V30 35 H -1.2594 0.6647 -2.7136 0
M  V30 36 H -2.1166 0.0525 1.03 0
M  V30 37 H -2.5994 1.5886 1.6614 0
M  V30 38 H -3.696 0.6453 -2.2385 0
M  V30 39 H -3.4818 -0.5361 -0.9647 0
M  V30 40 H -3.892 1.7183 -0.1331 0
M  V30 41 H -2.4865 2.3687 -0.9358 0
M  V30 END ATOM
M  V30 BEGIN BOND
M  V30 1 1 1 2
M  V30 2 2 2 3
M  V30 3 1 2 4
M  V30 4 1 3 5
M  V30 5 2 4 6
M  V30 6 2 5 7
M  V30 7 1 5 8
M  V30 8 1 7 9
M  V30 9 1 8 10
M  V30 10 1 8 11
M  V30 11 1 8 12
M  V30 12 1 9 13
M  V30 13 1 10 14
M  V30 14 1 11 15
M  V30 15 1 13 16
M  V30 16 1 15 17
M  V30 17 1 16 18
M  V30 18 1 6 7
M  V30 19 1 10 13
M  V30 20 1 17 18
M  V30 21 1 1 19
M  V30 22 1 3 20
M  V30 23 1 4 21
M  V30 24 1 6 22
M  V30 25 1 9 23
M  V30 26 1 9 24
M  V30 27 1 10 25
M  V30 28 1 11 26
M  V30 29 1 11 27
M  V30 30 1 12 28
M  V30 31 1 12 29
M  V30 32 1 12 30
M  V30 33 1 13 31
M  V30 34 1 14 32
M  V30 35 1 14 33
M  V30 36 1 15 34
M  V30 37 1 15 35
M  V30 38 1 16 36
M  V30 39 1 16 37
M  V30 40 1 17 38
M  V30 41 1 17 39
M  V30 42 1 18 40
M  V30 43 1 18 41
M  V30 END BOND
M  V30 END CTAB
M  END
>  <Column 1>
1223

>  <level_0>
1366

>  <index>
1366

>  <Unnamed: 0>
1366

>  <NO.>
1378

>  <Name>
dezocine

>  <IUPAC_name>
15-amino-1-methyltricyclo[7.5.1.02-7]pentadeca-2(7)-3-5-trien-4-ol

>  <SMILES>
CC12CCCCCC(Cc3ccc(O)cc31)C2N

>  <CID>
4630917

>  <logBB>


>  <BBB+/BBB->
BBB+

>  <Inchi>
InChI=1S/C16H23NO/c1-16-8-4-2-3-5-12(15(16)17)9-11-6-7-13(18)10-14(11)16/h6-7-10-12-15-18H-2-5-8-9-17H2-1H3

>  <threshold>
-1

>  <reference>
R1|R19|R27|R27|R30|

>  <group>
B

>  <Class>
1

>  <ABC>
14.32

>  <ABCGG>
11.31

>  <nAcid>
0

>  <nBase>
1

>  <nAromAtom>
6

>  <nAromBond>
6

>  <nAtom>
41

>  <nHeavyAtom>
18

>  <nSpiro>
0

>  <nBridgehead>
2

>  <nHetero>
2

>  <nN>
1

>  <nO>
1

>  <nF>
0

>  <BalabanJ>
1.88

>  <BertzCT>
456.41

>  <nBonds>
43

>  <nBondsO>
20

>  <nBondsS>
37

>  <nBondsD>
0

>  <nBondsT>
0

>  <nBondsA>
6

>  <nBondsM>
6

>  <nBondsKS>
40

>  <nBondsKD>
3

>  <RNCG>
0.38

>  <RPCG>
0.22

>  <FCSP3>
0.63

>  <SZ>
22.33

>  <Sm>
20.43

>  <Sv>
23.7

>  <Sse>
40.2

>  <Sp>
26.32

>  <Si>
46.28

>  <MZ>
0.54

>  <Mm>
0.5

>  <Mv>
0.58

>  <Mse>
0.98

>  <Mp>
0.64

>  <Mi>
1.13

>  <NsCH3>
1

>  <NdCH2>
0

>  <NssCH2>
6

>  <NtCH>
0

>  <NdsCH>
0

>  <NaaCH>
3

>  <NsssCH>
2

>  <NddC>
0

>  <NtsC>
0

>  <NdssC>
0

>  <NaasC>
3

>  <NaaaC>
0

>  <NssssC>
1

>  <NsNH3>
0

>  <NsNH2>
1

>  <NssNH2>
0

>  <NdNH>
0

>  <NssNH>
0

>  <NaaNH>
0

>  <NtN>
0

>  <NsssNH>
0

>  <NdsN>
0

>  <NaaN>
0

>  <NsssN>
0

>  <NddsN>
0

>  <NaasN>
0

>  <NssssN>
0

>  <NsOH>
1

>  <NdO>
0

>  <NssO>
0

>  <NaaO>
0

>  <NsF>
0

>  <NsSiH3>
0

>  <NssSiH2>
0

>  <NsssSiH>
0

>  <NssssSi>
0

>  <NsPH2>
0

>  <NssPH>
0

>  <NsssP>
0

>  <NdsssP>
0

>  <NsssssP>
0

>  <NsSH>
0

>  <NdS>
0

>  <NssS>
0

>  <NaaS>
0

>  <NdssS>
0

>  <NddssS>
0

>  <NsCl>
0

>  <NsBr>
0

>  <NsI>
0

>  <fragCpx>
94.02

>  <fMF>
0.37

>  <nHBAcc>
2

>  <nHBDon>
2

>  <Kier1>
13.01

>  <Kier2>
4.84

>  <Lipinski>
1

>  <GhoseFilter>
1

>  <FilterItLogS>
-3.43

>  <VMcGowan>
206.67

>  <LabuteASA>
109.2

>  <PEOE_VSA1>
10.84

>  <PEOE_VSA2>
0

>  <PEOE_VSA3>
0

>  <PEOE_VSA4>
0

>  <PEOE_VSA5>
0

>  <PEOE_VSA6>
32.25

>  <PEOE_VSA7>
48.44

>  <PEOE_VSA8>
11.46

>  <PEOE_VSA9>
0

>  <PEOE_VSA10>
5.75

>  <PEOE_VSA11>
0

>  <PEOE_VSA12>
0

>  <PEOE_VSA13>
0

>  <SMR_VSA1>
5.11

>  <SMR_VSA2>
0

>  <SMR_VSA3>
0

>  <SMR_VSA4>
11.65

>  <SMR_VSA5>
56.91

>  <SMR_VSA6>
0

>  <SMR_VSA7>
29.33

>  <SMR_VSA8>
0

>  <SMR_VSA9>
5.75

>  <SlogP_VSA1>
5.73

>  <SlogP_VSA2>
11.15

>  <SlogP_VSA3>
11.84

>  <SlogP_VSA4>
5.92

>  <SlogP_VSA5>
50.15

>  <SlogP_VSA6>
18.2

>  <SlogP_VSA7>
0

>  <SlogP_VSA8>
0

>  <SlogP_VSA9>
0

>  <SlogP_VSA10>
0

>  <SlogP_VSA11>
5.75

>  <EState_VSA1>
0

>  <EState_VSA2>
11.46

>  <EState_VSA3>
11.67

>  <EState_VSA4>
12.84

>  <EState_VSA5>
36.81

>  <EState_VSA6>
0

>  <EState_VSA7>
12.13

>  <EState_VSA8>
12.99

>  <EState_VSA9>
5.73

>  <EState_VSA10>
5.11

>  <VSA_EState1>
0

>  <VSA_EState2>
0

>  <VSA_EState3>
9.77

>  <VSA_EState4>
9.33

>  <VSA_EState5>
1

>  <VSA_EState6>
6.11

>  <VSA_EState7>
7.41

>  <VSA_EState8>
2.3

>  <VSA_EState9>
0

>  <apol>
43.96

>  <bpol>
22.5

>  <nRing>
3

>  <nHRing>
0

>  <naRing>
1

>  <naHRing>
0

>  <nARing 2>
2

>  <nAHRing 2>
0

>  <nFRing>
1

>  <nFHRing>
0

>  <nFaRing>
0

>  <nFaHRing>
0

>  <nFARing 2>
1

>  <nFAHRing 2>
0

>  <nRot>
0

>  <SLogP>
3.11

>  <SMR>
73.71

>  <TopoPSA(NO)>
46.25

>  <TopoPSA>
46.25

>  <JGI1>
0.23

>  <JGI2>
0.1

>  <JGI3>
0.06

>  <JGI4>
0.06

>  <JGI5>
0.03

>  <Diameter>
8

>  <Radius>
4

>  <TMWC10>
112.44

>  <TSRW10>
51.96

>  <MW>
245.18

>  <AMW>
5.98

>  <WPath>
513

>  <WPol>
36

>  <Zagreb1>
100

>  <Zagreb2>
122

>  <mZagreb2>
3.85

>  <yes>


>  <nAR-cont>
1

>  <nHA-cont>
0.991161285

>  <MWHBN>
0.255456802

>  <MWHBN-cont>
0.950136875

>  <TPSA-cont>
0.67714628

>  <pka_cont>
0.97

>  <yes.1>


>  <BBB_SCORE>
5.255659158

>  <MMFF94 Energy>
61.728

$$$$
Compound 1023
Actelion Java MolfileCreator 2.0

  0  0  0  0  0  0              0 V3000
M  V30 BEGIN CTAB
M  V30 COUNTS 69 74 0 0 0
M  V30 BEGIN ATOM
M  V30 1 F 1.7882 1.0564 -0.1624 0
M  V30 2 C 2.0715 -0.2659 0.1497 0 CFG=2
M  V30 3 C 3.5511 -0.2773 0.714 0
M  V30 4 C 1.8512 -1.036 -1.1904 0 CFG=1
M  V30 5 C 1.027 -0.6768 1.2432 0
M  V30 6 C 3.5712 0.5883 1.988 0
M  V30 7 C 4.5339 0.2633 -0.3245 0
M  V30 8 C 4.0668 -1.6848 1.0928 0
M  V30 9 O 2.3128 -2.381 -1.1284 0
M  V30 10 C 0.3792 -1.0229 -1.6688 0
M  V30 11 C -0.3832 -0.556 0.6491 0 CFG=1
M  V30 12 C 1.16 0.2099 2.4953 0
M  V30 13 C 4.3717 1.6565 2.1527 0
M  V30 14 C 2.5777 0.2098 3.0567 0
M  V30 15 C 5.3284 1.3285 -0.1554 0
M  V30 16 C -0.6211 -1.4633 -0.5807 0
M  V30 17 C -1.5957 -0.8318 1.5384 0
M  V30 18 C 5.3124 2.0967 1.1032 0
M  V30 19 C -2.1242 -1.1464 -0.859 0 CFG=1
M  V30 20 C -0.4514 -2.9734 -0.2625 0
M  V30 21 C -2.7489 -1.0721 0.5384 0 CFG=2
M  V30 22 O 6.0505 3.0593 1.2706 0
M  V30 23 O -2.296 0.162 -1.4082 0
M  V30 24 C -2.8245 -2.1687 -1.7632 0
M  V30 25 O -3.644 0.0328 0.5058 0
M  V30 26 C -3.2647 0.8542 -0.602 0 CFG=1
M  V30 27 O -3.3915 -3.1741 -1.3239 0
M  V30 28 C -2.7822 -1.914 -3.2654 0
M  V30 29 C -2.6942 2.1798 -0.1136 0
M  V30 30 C -4.5094 1.1024 -1.4524 0
M  V30 31 O -3.0736 -3.0963 -3.9977 0
M  V30 32 C -1.7355 2.8792 -0.8674 0
M  V30 33 C -3.1312 2.7511 1.0945 0
M  V30 34 C -1.2147 4.0938 -0.4164 0
M  V30 35 C -2.6123 3.9673 1.5431 0
M  V30 36 C -1.6523 4.6364 0.7889 0
M  V30 37 H 2.4343 -0.5398 -1.9749 0
M  V30 38 H 1.2042 -1.7107 1.5547 0
M  V30 39 H 4.6107 -0.2778 -1.2648 0
M  V30 40 H 4.3196 -2.2869 0.2137 0
M  V30 41 H 4.986 -1.6205 1.6902 0
M  V30 42 H 3.3434 -2.2553 1.6825 0
M  V30 43 H 2.2378 -2.7651 -2.0206 0
M  V30 44 H 0.1441 -0.004 -2.0007 0
M  V30 45 H 0.2767 -1.6734 -2.545 0
M  V30 46 H -0.4756 0.4913 0.3313 0
M  V30 47 H 0.4753 -0.1402 3.2768 0
M  V30 48 H 0.8638 1.2402 2.2568 0
M  V30 49 H 4.3624 2.2661 3.0492 0
M  V30 50 H 2.622 0.9028 3.9059 0
M  V30 51 H 2.8238 -0.78 3.4576 0
M  V30 52 H 6.0194 1.668 -0.917 0
M  V30 53 H -1.8016 -0.0014 2.2209 0
M  V30 54 H -1.4255 -1.7322 2.1393 0
M  V30 55 H -0.5115 -3.5695 -1.1803 0
M  V30 56 H 0.503 -3.2111 0.21 0
M  V30 57 H -1.2251 -3.3477 0.4158 0
M  V30 58 H -3.3121 -1.9593 0.8431 0
M  V30 59 H -3.5254 -1.1541 -3.52 0
M  V30 60 H -1.791 -1.5718 -3.5656 0
M  V30 61 H -5.288 1.6249 -0.8854 0
M  V30 62 H -4.2746 1.6857 -2.3495 0
M  V30 63 H -4.9416 0.1527 -1.7875 0
M  V30 64 H -3.7175 -3.5997 -3.4597 0
M  V30 65 H -1.3765 2.4744 -1.8113 0
M  V30 66 H -3.8807 2.2438 1.6997 0
M  V30 67 H -0.4636 4.6141 -1.0053 0
M  V30 68 H -2.9573 4.3907 2.4829 0
M  V30 69 H -1.2447 5.5809 1.1398 0
M  V30 END ATOM
M  V30 BEGIN BOND
M  V30 1 1 1 2
M  V30 2 1 2 3
M  V30 3 1 2 4
M  V30 4 1 2 5
M  V30 5 1 3 6
M  V30 6 1 3 7
M  V30 7 1 3 8
M  V30 8 1 4 9
M  V30 9 1 4 10
M  V30 10 1 5 11
M  V30 11 1 5 12
M  V30 12 2 6 13
M  V30 13 1 6 14
M  V30 14 2 7 15
M  V30 15 1 10 16
M  V30 16 1 11 17
M  V30 17 1 13 18
M  V30 18 1 16 19
M  V30 19 1 16 20
M  V30 20 1 17 21
M  V30 21 2 18 22
M  V30 22 1 19 23
M  V30 23 1 19 24
M  V30 24 1 21 25
M  V30 25 1 23 26
M  V30 26 2 24 27
M  V30 27 1 24 28
M  V30 28 1 26 29
M  V30 29 1 26 30
M  V30 30 1 28 31
M  V30 31 2 29 32
M  V30 32 1 29 33
M  V30 33 1 32 34
M  V30 34 2 33 35
M  V30 35 2 34 36
M  V30 36 1 11 16
M  V30 37 1 12 14
M  V30 38 1 15 18
M  V30 39 1 19 21
M  V30 40 1 25 26
M  V30 41 1 35 36
M  V30 42 1 4 37
M  V30 43 1 5 38
M  V30 44 1 7 39
M  V30 45 1 8 40
M  V30 46 1 8 41
M  V30 47 1 8 42
M  V30 48 1 9 43
M  V30 49 1 10 44
M  V30 50 1 10 45
M  V30 51 1 11 46
M  V30 52 1 12 47
M  V30 53 1 12 48
M  V30 54 1 13 49
M  V30 55 1 14 50
M  V30 56 1 14 51
M  V30 57 1 15 52
M  V30 58 1 17 53
M  V30 59 1 17 54
M  V30 60 1 20 55
M  V30 61 1 20 56
M  V30 62 1 20 57
M  V30 63 1 21 58
M  V30 64 1 28 59
M  V30 65 1 28 60
M  V30 66 1 30 61
M  V30 67 1 30 62
M  V30 68 1 30 63
M  V30 69 1 31 64
M  V30 70 1 32 65
M  V30 71 1 33 66
M  V30 72 1 34 67
M  V30 73 1 35 68
M  V30 74 1 36 69
M  V30 END BOND
M  V30 BEGIN COLLECTION
M  V30 MDLV30/STEABS ATOMS=(6 2 4 11 19 21 26)
M  V30 END COLLECTION
M  V30 END CTAB
M  END
>  <Column 1>
1224

>  <level_0>
1367

>  <index>
1367

>  <Unnamed: 0>
1367

>  <NO.>
1379

>  <Name>
amcinafide

>  <IUPAC_name>
(2s-4r-6r-8s-11s-12r)-12-fluoro-11-hydroxy-8-(2-hydroxyacetyl)-6-9-13-trimethyl-6-phenyl-5-7-dioxapentacyclo[10.8.0.02-9.04-8.013-18]icosa-14-17-dien-16-one

>  <SMILES>
CC12C[C@H](O)[C@@]3(F)C(CCC4=CC(=O)C=CC43C)[C@@H]1C[C@H]1O[C@@](C)(c3ccccc3)O[C@]12C(=O)CO

>  <CID>
23747

>  <logBB>


>  <BBB+/BBB->
BBB+

>  <Inchi>
InChI=1S/C29H33FO6/c1-25-12-11-19(32)13-18(25)9-10-20-21-14-24-29(23(34)16-31-26(21-2)15-22(33)28(20-25)30)36-27(3-35-24)17-7-5-4-6-8-17/h4-8-11-13-20-22-24-31-33H-9-10-14-16H2-1-3H3/t20?-21--22--24+-25?-26?-27+-28--29+/m0/s1

>  <threshold>
-1

>  <reference>
R1|R27|R30|

>  <group>
B

>  <Class>
-1

>  <ABC>
29.29

>  <ABCGG>
22.68

>  <nAcid>
0

>  <nBase>
0

>  <nAromAtom>
6

>  <nAromBond>
6

>  <nAtom>
69

>  <nHeavyAtom>
36

>  <nSpiro>
0

>  <nBridgehead>
0

>  <nHetero>
7

>  <nN>
0

>  <nO>
6

>  <nF>
1

>  <BalabanJ>
1.39

>  <BertzCT>
1195.4

>  <nBonds>
74

>  <nBondsO>
41

>  <nBondsS>
64

>  <nBondsD>
4

>  <nBondsT>
0

>  <nBondsA>
6

>  <nBondsM>
10

>  <nBondsKS>
67

>  <nBondsKD>
7

>  <RNCG>
0.13

>  <RPCG>
0.07

>  <FCSP3>
0.59

>  <SZ>
44

>  <Sm>
41.34

>  <Sv>
42.88

>  <Sse>
69.59

>  <Sp>
45.39

>  <Si>
77.66

>  <MZ>
0.64

>  <Mm>
0.6

>  <Mv>
0.62

>  <Mse>
1.01

>  <Mp>
0.66

>  <Mi>
1.13

>  <NsCH3>
3

>  <NdCH2>
0

>  <NssCH2>
5

>  <NtCH>
0

>  <NdsCH>
3

>  <NaaCH>
5

>  <NsssCH>
4

>  <NddC>
0

>  <NtsC>
0

>  <NdssC>
3

>  <NaasC>
1

>  <NaaaC>
0

>  <NssssC>
5

>  <NsNH3>
0

>  <NsNH2>
0

>  <NssNH2>
0

>  <NdNH>
0

>  <NssNH>
0

>  <NaaNH>
0

>  <NtN>
0

>  <NsssNH>
0

>  <NdsN>
0

>  <NaaN>
0

>  <NsssN>
0

>  <NddsN>
0

>  <NaasN>
0

>  <NssssN>
0

>  <NsOH>
2

>  <NdO>
2

>  <NssO>
2

>  <NaaO>
0

>  <NsF>
1

>  <NsSiH3>
0

>  <NssSiH2>
0

>  <NsssSiH>
0

>  <NssssSi>
0

>  <NsPH2>
0

>  <NssPH>
0

>  <NsssP>
0

>  <NdsssP>
0

>  <NsssssP>
0

>  <NsSH>
0

>  <NdS>
0

>  <NssS>
0

>  <NaaS>
0

>  <NdssS>
0

>  <NddssS>
0

>  <NsCl>
0

>  <NsBr>
0

>  <NsI>
0

>  <fragCpx>
421.07

>  <fMF>
0.38

>  <nHBAcc>
6

>  <nHBDon>
2

>  <Kier1>
26.23

>  <Kier2>
8.5

>  <Lipinski>
1

>  <GhoseFilter>
0

>  <FilterItLogS>
-4.77

>  <VMcGowan>
361.19

>  <LabuteASA>
209.72

>  <PEOE_VSA1>
19.69

>  <PEOE_VSA2>
9.59

>  <PEOE_VSA3>
4.39

>  <PEOE_VSA4>
0

>  <PEOE_VSA5>
0

>  <PEOE_VSA6>
48.9

>  <PEOE_VSA7>
57.6

>  <PEOE_VSA8>
22.31

>  <PEOE_VSA9>
12.21

>  <PEOE_VSA10>
6.61

>  <PEOE_VSA11>
28.62

>  <PEOE_VSA12>
0

>  <PEOE_VSA13>
0

>  <SMR_VSA1>
33.67

>  <SMR_VSA2>
0

>  <SMR_VSA3>
0

>  <SMR_VSA4>
22.67

>  <SMR_VSA5>
75.72

>  <SMR_VSA6>
6.61

>  <SMR_VSA7>
59.7

>  <SMR_VSA8>
0

>  <SMR_VSA9>
0

>  <SlogP_VSA1>
0

>  <SlogP_VSA2>
51.86

>  <SlogP_VSA3>
24.85

>  <SlogP_VSA4>
22.67

>  <SlogP_VSA5>
52.02

>  <SlogP_VSA6>
54.13

>  <SlogP_VSA7>
0

>  <SlogP_VSA8>
0

>  <SlogP_VSA9>
0

>  <SlogP_VSA10>
4.39

>  <SlogP_VSA11>
0

>  <EState_VSA1>
58.4

>  <EState_VSA2>
18.12

>  <EState_VSA3>
24.84

>  <EState_VSA4>
5.56

>  <EState_VSA5>
12.15

>  <EState_VSA6>
19.92

>  <EState_VSA7>
37.26

>  <EState_VSA8>
0

>  <EState_VSA9>
9.47

>  <EState_VSA10>
19.8

>  <VSA_EState1>
30.55

>  <VSA_EState2>
25.64

>  <VSA_EState3>
21.67

>  <VSA_EState4>
-4.15

>  <VSA_EState5>
-2.78

>  <VSA_EState6>
9.35

>  <VSA_EState7>
3.77

>  <VSA_EState8>
4.7

>  <VSA_EState9>
0

>  <apol>
75.8

>  <bpol>
39.43

>  <nRing>
6

>  <nHRing>
1

>  <naRing>
1

>  <naHRing>
0

>  <nARing 2>
5

>  <nAHRing 2>
1

>  <nFRing>
1

>  <nFHRing>
1

>  <nFaRing>
0

>  <nFaHRing>
0

>  <nFARing 2>
1

>  <nFAHRing 2>
1

>  <nRot>
3

>  <SLogP>
3.56

>  <SMR>
128.31

>  <TopoPSA(NO)>
93.06

>  <TopoPSA>
93.06

>  <JGI1>
0.29

>  <JGI2>
0.14

>  <JGI3>
0.08

>  <JGI4>
0.06

>  <JGI5>
0.04

>  <Diameter>
15

>  <Radius>
8

>  <TMWC10>
161.24

>  <TSRW10>
91.27

>  <MW>
496.23

>  <AMW>
7.19

>  <WPath>
3397

>  <WPol>
87

>  <Zagreb1>
220

>  <Zagreb2>
288

>  <mZagreb2>
7.44

>  <yes>


>  <nAR-cont>
0

>  <nHA-cont>
0.477843619

>  <MWHBN>
0.359127348

>  <MWHBN-cont>
0.635754455

>  <TPSA-cont>
0.350383413

>  <pka_cont>
0.97

>  <yes.1>


>  <BBB_SCORE>
2.617242127

>  <MMFF94 Energy>
189.86

$$$$
Compound 1024
Actelion Java MolfileCreator 2.0

  0  0  0  0  0  0              0 V3000
M  V30 BEGIN CTAB
M  V30 COUNTS 51 54 0 0 0
M  V30 BEGIN ATOM
M  V30 1 S 1.7016 2.5126 -3.4054 0
M  V30 2 C 2.8961 2.0156 -2.1313 0 CFG=1
M  V30 3 C 2.3989 4.1884 -3.5606 0
M  V30 4 N 2.6992 2.889 -0.9979 0
M  V30 5 C 2.5309 0.836 -1.1773 0 CFG=1
M  V30 6 C 2.5894 4.8952 -2.2313 0
M  V30 7 C 2.6759 4.2433 -1.0489 0
M  V30 8 C 2.455 1.9414 -0.0736 0
M  V30 9 N 1.2683 0.0958 -1.4372 0
M  V30 10 C 2.6435 6.3971 -2.3624 0
M  V30 11 C 2.729 4.9651 0.2473 0
M  V30 12 O 2.1859 1.9918 1.1027 0
M  V30 13 C 1.221 -0.9267 -2.358 0
M  V30 14 O 3.6564 4.9456 1.0359 0
M  V30 15 O 1.5991 5.6559 0.4824 0
M  V30 16 O 2.2138 -1.2899 -2.9847 0
M  V30 17 C -0.1541 -1.5278 -2.584 0
M  V30 18 C -0.8064 -2.0362 -1.3198 0
M  V30 19 C -2.0078 -1.4772 -0.8643 0
M  V30 20 C -0.2214 -3.0819 -0.591 0
M  V30 21 C -2.6038 -1.9448 0.3096 0
M  V30 22 C -0.8165 -3.5483 0.5849 0
M  V30 23 C -2.0062 -2.974 1.0458 0
M  V30 24 C -2.6581 -3.4536 2.3094 0
M  V30 25 N -3.9393 -3.3097 2.4084 0
M  V30 26 N -1.8695 -4.0114 3.2884 0
M  V30 27 C -4.5884 -3.7532 3.6448 0
M  V30 28 C -2.4169 -4.5021 4.5278 0
M  V30 29 C -3.8567 -4.914 4.2968 0
M  V30 30 H 3.937 1.9868 -2.4747 0
M  V30 31 H 3.3552 4.1362 -4.0921 0
M  V30 32 H 1.7003 4.7549 -4.1856 0
M  V30 33 H 3.3629 0.1435 -0.9965 0
M  V30 34 H 0.4237 0.3316 -0.9252 0
M  V30 35 H 3.3708 6.6785 -3.1318 0
M  V30 36 H 1.6629 6.7859 -2.6558 0
M  V30 37 H 2.949 6.9039 -1.443 0
M  V30 38 H 1.7324 6.0095 1.3864 0
M  V30 39 H -0.065 -2.3571 -3.2957 0
M  V30 40 H -0.7765 -0.762 -3.0625 0
M  V30 41 H -2.4968 -0.678 -1.4176 0
M  V30 42 H 0.7002 -3.5464 -0.9387 0
M  V30 43 H -3.5378 -1.5037 0.652 0
M  V30 44 H -0.3566 -4.3782 1.1125 0
M  V30 45 H -0.8618 -3.9475 3.2232 0
M  V30 46 H -4.6655 -2.9042 4.3344 0
M  V30 47 H -5.611 -4.0653 3.4062 0
M  V30 48 H -1.8285 -5.3532 4.885 0
M  V30 49 H -2.3592 -3.7147 5.2878 0
M  V30 50 H -3.8945 -5.7914 3.639 0
M  V30 51 H -4.3349 -5.1888 5.2428 0
M  V30 END ATOM
M  V30 BEGIN BOND
M  V30 1 1 1 2
M  V30 2 1 1 3
M  V30 3 1 2 4
M  V30 4 1 2 5
M  V30 5 1 3 6
M  V30 6 1 4 7
M  V30 7 1 4 8
M  V30 8 1 5 9
M  V30 9 1 6 10
M  V30 10 1 7 11
M  V30 11 2 8 12
M  V30 12 1 9 13
M  V30 13 2 11 14
M  V30 14 1 11 15
M  V30 15 2 13 16
M  V30 16 1 13 17
M  V30 17 1 17 18
M  V30 18 2 18 19
M  V30 19 1 18 20
M  V30 20 1 19 21
M  V30 21 2 20 22
M  V30 22 2 21 23
M  V30 23 1 23 24
M  V30 24 2 24 25
M  V30 25 1 24 26
M  V30 26 1 25 27
M  V30 27 1 26 28
M  V30 28 1 27 29
M  V30 29 1 5 8
M  V30 30 2 6 7
M  V30 31 1 22 23
M  V30 32 1 28 29
M  V30 33 1 2 30
M  V30 34 1 3 31
M  V30 35 1 3 32
M  V30 36 1 5 33
M  V30 37 1 9 34
M  V30 38 1 10 35
M  V30 39 1 10 36
M  V30 40 1 10 37
M  V30 41 1 15 38
M  V30 42 1 17 39
M  V30 43 1 17 40
M  V30 44 1 19 41
M  V30 45 1 20 42
M  V30 46 1 21 43
M  V30 47 1 22 44
M  V30 48 1 26 45
M  V30 49 1 27 46
M  V30 50 1 27 47
M  V30 51 1 28 48
M  V30 52 1 28 49
M  V30 53 1 29 50
M  V30 54 1 29 51
M  V30 END BOND
M  V30 BEGIN COLLECTION
M  V30 MDLV30/STEABS ATOMS=(2 2 5)
M  V30 END COLLECTION
M  V30 END CTAB
M  END
>  <Column 1>
1225

>  <level_0>
1368

>  <index>
1368

>  <Unnamed: 0>
1368

>  <NO.>
1380

>  <Name>
cefrotil

>  <IUPAC_name>
(6r-7r)-3-methyl-8-oxo-7-[[2-[4-(1-4-5-6-tetrahydropyrimidin-2-yl)phenyl]acetyl]amino]-5-thia-1-azabicyclo[4.2.0]oct-2-ene-2-carboxylic acid

>  <SMILES>
CC1=C(C(=O)O)N2C(=O)[C@@H](NC(=O)Cc3ccc(C4=NCCCN4)cc3)[C@H]2SC1

>  <CID>
68692

>  <logBB>


>  <BBB+/BBB->
BBB-

>  <Inchi>
InChI=1S/C20H22N4O4S/c1-11-10-29-19-15(18(26)24(19)16(11)20(27)28)23-14(25)9-12-3-5-13(6-4-12)17-21-7-2-8-22-17/h3-6-15-19H-2-7-10H2-1H3-(H-21-22)(H-23-25)(H-27-28)/t15--19-/m1/s1

>  <threshold>
-1

>  <reference>
R1|R6|R27|R27|R30|R30|

>  <group>
B

>  <Class>
-1

>  <ABC>
22.85

>  <ABCGG>
17.03

>  <nAcid>
1

>  <nBase>
2

>  <nAromAtom>
6

>  <nAromBond>
6

>  <nAtom>
51

>  <nHeavyAtom>
29

>  <nSpiro>
0

>  <nBridgehead>
0

>  <nHetero>
9

>  <nN>
4

>  <nO>
4

>  <nF>
0

>  <BalabanJ>
1.22

>  <BertzCT>
924.91

>  <nBonds>
54

>  <nBondsO>
32

>  <nBondsS>
43

>  <nBondsD>
5

>  <nBondsT>
0

>  <nBondsA>
6

>  <nBondsM>
11

>  <nBondsKS>
46

>  <nBondsKD>
8

>  <RNCG>
0.16

>  <RPCG>
0.12

>  <FCSP3>
0.4

>  <SZ>
36.33

>  <Sm>
34.51

>  <Sv>
33.04

>  <Sse>
51.82

>  <Sp>
35.08

>  <Si>
57.49

>  <MZ>
0.71

>  <Mm>
0.68

>  <Mv>
0.65

>  <Mse>
1.02

>  <Mp>
0.69

>  <Mi>
1.13

>  <NsCH3>
1

>  <NdCH2>
0

>  <NssCH2>
5

>  <NtCH>
0

>  <NdsCH>
0

>  <NaaCH>
4

>  <NsssCH>
2

>  <NddC>
0

>  <NtsC>
0

>  <NdssC>
6

>  <NaasC>
2

>  <NaaaC>
0

>  <NssssC>
0

>  <NsNH3>
0

>  <NsNH2>
0

>  <NssNH2>
0

>  <NdNH>
0

>  <NssNH>
2

>  <NaaNH>
0

>  <NtN>
0

>  <NsssNH>
0

>  <NdsN>
1

>  <NaaN>
0

>  <NsssN>
1

>  <NddsN>
0

>  <NaasN>
0

>  <NssssN>
0

>  <NsOH>
1

>  <NdO>
3

>  <NssO>
0

>  <NaaO>
0

>  <NsF>
0

>  <NsSiH3>
0

>  <NssSiH2>
0

>  <NsssSiH>
0

>  <NssssSi>
0

>  <NsPH2>
0

>  <NssPH>
0

>  <NsssP>
0

>  <NdsssP>
0

>  <NsssssP>
0

>  <NsSH>
0

>  <NdS>
0

>  <NssS>
1

>  <NaaS>
0

>  <NdssS>
0

>  <NddssS>
0

>  <NsCl>
0

>  <NsBr>
0

>  <NsI>
0

>  <fragCpx>
212.09

>  <fMF>
0.45

>  <nHBAcc>
6

>  <nHBDon>
3

>  <Kier1>
22.2

>  <Kier2>
9.65

>  <Lipinski>
1

>  <GhoseFilter>
1

>  <FilterItLogS>
-3.57

>  <VMcGowan>
294.57

>  <LabuteASA>
171.99

>  <PEOE_VSA1>
15.74

>  <PEOE_VSA2>
19.48

>  <PEOE_VSA3>
4.79

>  <PEOE_VSA4>
0

>  <PEOE_VSA5>
11.76

>  <PEOE_VSA6>
24.27

>  <PEOE_VSA7>
24.48

>  <PEOE_VSA8>
24.41

>  <PEOE_VSA9>
6.42

>  <PEOE_VSA10>
22.95

>  <PEOE_VSA11>
0

>  <PEOE_VSA12>
5.91

>  <PEOE_VSA13>
5.91

>  <SMR_VSA1>
19.49

>  <SMR_VSA2>
0

>  <SMR_VSA3>
15.53

>  <SMR_VSA4>
4.99

>  <SMR_VSA5>
31.18

>  <SMR_VSA6>
18.84

>  <SMR_VSA7>
46.66

>  <SMR_VSA8>
0

>  <SMR_VSA9>
0

>  <SlogP_VSA1>
10.63

>  <SlogP_VSA2>
63.88

>  <SlogP_VSA3>
20.8

>  <SlogP_VSA4>
0

>  <SlogP_VSA5>
24.47

>  <SlogP_VSA6>
40.53

>  <SlogP_VSA7>
0

>  <SlogP_VSA8>
0

>  <SlogP_VSA9>
0

>  <SlogP_VSA10>
0

>  <SlogP_VSA11>
0

>  <EState_VSA1>
12.01

>  <EState_VSA2>
29.31

>  <EState_VSA3>
11.33

>  <EState_VSA4>
36.47

>  <EState_VSA5>
16.66

>  <EState_VSA6>
6.92

>  <EState_VSA7>
24.27

>  <EState_VSA8>
15.63

>  <EState_VSA9>
0

>  <EState_VSA10>
19.49

>  <VSA_EState1>
0

>  <VSA_EState2>
42.08

>  <VSA_EState3>
15.03

>  <VSA_EState4>
2.53

>  <VSA_EState5>
-0.33

>  <VSA_EState6>
6.94

>  <VSA_EState7>
1.18

>  <VSA_EState8>
3.44

>  <VSA_EState9>
0

>  <apol>
58.58

>  <bpol>
31.12

>  <nRing>
4

>  <nHRing>
3

>  <naRing>
1

>  <naHRing>
0

>  <nARing 2>
3

>  <nAHRing 2>
3

>  <nFRing>
1

>  <nFHRing>
1

>  <nFaRing>
0

>  <nFaHRing>
0

>  <nFARing 2>
1

>  <nFAHRing 2>
1

>  <nRot>
5

>  <SLogP>
0.73

>  <SMR>
109.53

>  <TopoPSA(NO)>
111.1

>  <TopoPSA>
136.4

>  <JGI1>
0.17

>  <JGI2>
0.08

>  <JGI3>
0.07

>  <JGI4>
0.04

>  <JGI5>
0.03

>  <Diameter>
16

>  <Radius>
8

>  <TMWC10>
138.8

>  <TSRW10>
65.26

>  <MW>
414.14

>  <AMW>
8.12

>  <WPath>
2584

>  <WPol>
46

>  <Zagreb1>
156

>  <Zagreb2>
187

>  <mZagreb2>
6.31

>  <yes>


>  <nAR-cont>
0.691115

>  <nHA-cont>
0.785905698

>  <MWHBN>
0.442251098

>  <MWHBN-cont>
0.314001909

>  <TPSA-cont>
0

>  <pka_cont>
0.97

>  <yes.1>


>  <BBB_SCORE>
2.433023562

>  <MMFF94 Energy>
6.6693

$$$$
Compound 1025
Actelion Java MolfileCreator 2.0

  0  0  0  0  0  0              0 V3000
M  V30 BEGIN CTAB
M  V30 COUNTS 43 45 0 0 0
M  V30 BEGIN ATOM
M  V30 1 S -2.5965 -2.028 -0.4864 0
M  V30 2 C -1.1722 -2.0459 -1.6087 0 CFG=1
M  V30 3 C -3.8093 -1.9851 -1.844 0
M  V30 4 N -1.2125 -0.8367 -2.3919 0
M  V30 5 C 0.1969 -1.5498 -1.0536 0 CFG=1
M  V30 6 C -3.5107 -0.944 -2.9071 0
M  V30 7 C -2.2852 -0.404 -3.1016 0
M  V30 8 C 0.0196 -0.379 -2.0896 0
M  V30 9 N 0.2429 -1.1247 0.3635 0
M  V30 10 C -4.7314 -0.5598 -3.7077 0
M  V30 11 C -2.0731 0.7155 -4.0593 0
M  V30 12 O 0.6291 0.6051 -2.4352 0
M  V30 13 C 1.4208 -0.9568 1.0611 0
M  V30 14 O -2.7184 1.7457 -4.1298 0
M  V30 15 O -1.0718 0.435 -4.9132 0
M  V30 16 O 2.514 -1.2606 0.5927 0
M  V30 17 C 1.2089 -0.3856 2.4969 0 CFG=2
M  V30 18 N -0.1481 0.2027 2.6229 0
M  V30 19 C 2.2664 0.6204 2.8945 0
M  V30 20 C 2.9799 0.4676 4.0309 0
M  V30 21 C 2.5106 1.7926 1.9602 0
M  V30 22 C 4.0509 1.4154 4.4932 0
M  V30 23 C 3.5635 2.7531 2.4409 0
M  V30 24 C 4.2552 2.5844 3.5775 0
M  V30 25 H -1.0902 -2.9511 -2.2222 0
M  V30 26 H -4.7796 -1.7745 -1.3814 0
M  V30 27 H -3.8688 -2.9766 -2.306 0
M  V30 28 H 1.0239 -2.223 -1.3082 0
M  V30 29 H -0.6036 -0.8726 0.8761 0
M  V30 30 H -4.4989 -0.0018 -4.6182 0
M  V30 31 H -5.409 0.0442 -3.0957 0
M  V30 32 H -5.267 -1.4607 -4.0274 0
M  V30 33 H -0.9567 1.2609 -5.4261 0
M  V30 34 H 1.2394 -1.2601 3.1594 0
M  V30 35 H -0.2589 0.4996 3.5939 0
M  V30 36 H -0.1799 1.0635 2.0759 0
M  V30 37 H 2.7996 -0.3865 4.6793 0
M  V30 38 H 1.5809 2.3576 1.8294 0
M  V30 39 H 2.8164 1.4249 0.9747 0
M  V30 40 H 4.9947 0.8666 4.5863 0
M  V30 41 H 3.7858 1.7882 5.4891 0
M  V30 42 H 3.7643 3.6167 1.8123 0
M  V30 43 H 5.0091 3.3129 3.8624 0
M  V30 END ATOM
M  V30 BEGIN BOND
M  V30 1 1 1 2
M  V30 2 1 1 3
M  V30 3 1 2 4
M  V30 4 1 2 5
M  V30 5 1 3 6
M  V30 6 1 4 7
M  V30 7 1 4 8
M  V30 8 1 5 9
M  V30 9 1 6 10
M  V30 10 1 7 11
M  V30 11 2 8 12
M  V30 12 1 9 13
M  V30 13 2 11 14
M  V30 14 1 11 15
M  V30 15 2 13 16
M  V30 16 1 13 17
M  V30 17 1 17 18
M  V30 18 1 17 19
M  V30 19 2 19 20
M  V30 20 1 19 21
M  V30 21 1 20 22
M  V30 22 1 21 23
M  V30 23 1 22 24
M  V30 24 1 5 8
M  V30 25 2 6 7
M  V30 26 2 23 24
M  V30 27 1 2 25
M  V30 28 1 3 26
M  V30 29 1 3 27
M  V30 30 1 5 28
M  V30 31 1 9 29
M  V30 32 1 10 30
M  V30 33 1 10 31
M  V30 34 1 10 32
M  V30 35 1 15 33
M  V30 36 1 17 34
M  V30 37 1 18 35
M  V30 38 1 18 36
M  V30 39 1 20 37
M  V30 40 1 21 38
M  V30 41 1 21 39
M  V30 42 1 22 40
M  V30 43 1 22 41
M  V30 44 1 23 42
M  V30 45 1 24 43
M  V30 END BOND
M  V30 BEGIN COLLECTION
M  V30 MDLV30/STEABS ATOMS=(3 2 5 17)
M  V30 END COLLECTION
M  V30 END CTAB
M  END
>  <Column 1>
1226

>  <level_0>
1369

>  <index>
1369

>  <Unnamed: 0>
1369

>  <NO.>
1381

>  <Name>
cephradine (cefradine)

>  <IUPAC_name>
(6r-7r)-7-[[(2r)-2-amino-2-cyclohexa-1-4-dien-1-ylacetyl]amino]-3-methyl-8-oxo-5-thia-1-azabicyclo[4.2.0]oct-2-ene-2-carboxylic acid

>  <SMILES>
CC1=C(C(=O)O)N2C(=O)[C@@H](NC(=O)[C@H](N)C3=CCC=CC3)[C@H]2SC1

>  <CID>
38103

>  <logBB>


>  <BBB+/BBB->
BBB-

>  <Inchi>
InChI=1S/C16H19N3O4S/c1-8-7-24-15-11(14(21)19(15)12(8)16(22)23)18-13(20)10(17)9-5-3-2-4-6-9/h2-3-6-10-11-15H-4-5-7-17H2-1H3-(H-18-20)(H-22-23)/t10--11--15-/m1/s1

>  <threshold>
-1

>  <reference>
R1|R6|R27|R27|R30|R30|

>  <group>
B

>  <Class>
-1

>  <ABC>
18.68

>  <ABCGG>
15.57

>  <nAcid>
1

>  <nBase>
1

>  <nAromAtom>
0

>  <nAromBond>
0

>  <nAtom>
43

>  <nHeavyAtom>
24

>  <nSpiro>
0

>  <nBridgehead>
0

>  <nHetero>
8

>  <nN>
3

>  <nO>
4

>  <nF>
0

>  <BalabanJ>
1.58

>  <BertzCT>
697.44

>  <nBonds>
45

>  <nBondsO>
26

>  <nBondsS>
39

>  <nBondsD>
6

>  <nBondsT>
0

>  <nBondsA>
0

>  <nBondsM>
6

>  <nBondsKS>
39

>  <nBondsKD>
6

>  <RNCG>
0.17

>  <RPCG>
0.13

>  <FCSP3>
0.44

>  <SZ>
30.67

>  <Sm>
29.09

>  <Sv>
27.47

>  <Sse>
43.82

>  <Sp>
29.22

>  <Si>
48.58

>  <MZ>
0.71

>  <Mm>
0.68

>  <Mv>
0.64

>  <Mse>
1.02

>  <Mp>
0.68

>  <Mi>
1.13

>  <NsCH3>
1

>  <NdCH2>
0

>  <NssCH2>
3

>  <NtCH>
0

>  <NdsCH>
3

>  <NaaCH>
0

>  <NsssCH>
3

>  <NddC>
0

>  <NtsC>
0

>  <NdssC>
6

>  <NaasC>
0

>  <NaaaC>
0

>  <NssssC>
0

>  <NsNH3>
0

>  <NsNH2>
1

>  <NssNH2>
0

>  <NdNH>
0

>  <NssNH>
1

>  <NaaNH>
0

>  <NtN>
0

>  <NsssNH>
0

>  <NdsN>
0

>  <NaaN>
0

>  <NsssN>
1

>  <NddsN>
0

>  <NaasN>
0

>  <NssssN>
0

>  <NsOH>
1

>  <NdO>
3

>  <NssO>
0

>  <NaaO>
0

>  <NsF>
0

>  <NsSiH3>
0

>  <NssSiH2>
0

>  <NsssSiH>
0

>  <NssssSi>
0

>  <NsPH2>
0

>  <NssPH>
0

>  <NsssP>
0

>  <NdsssP>
0

>  <NsssssP>
0

>  <NsSH>
0

>  <NdS>
0

>  <NssS>
1

>  <NaaS>
0

>  <NdssS>
0

>  <NddssS>
0

>  <NsCl>
0

>  <NsBr>
0

>  <NsI>
0

>  <fragCpx>
124.08

>  <fMF>
0.4

>  <nHBAcc>
5

>  <nHBDon>
3

>  <Kier1>
18.78

>  <Kier2>
7.71

>  <Lipinski>
1

>  <GhoseFilter>
1

>  <FilterItLogS>
-0.75

>  <VMcGowan>
247.69

>  <LabuteASA>
143.18

>  <PEOE_VSA1>
16.16

>  <PEOE_VSA2>
14.49

>  <PEOE_VSA3>
4.79

>  <PEOE_VSA4>
0

>  <PEOE_VSA5>
11.76

>  <PEOE_VSA6>
18.23

>  <PEOE_VSA7>
30.91

>  <PEOE_VSA8>
5.75

>  <PEOE_VSA9>
0

>  <PEOE_VSA10>
23.15

>  <PEOE_VSA11>
0

>  <PEOE_VSA12>
5.91

>  <PEOE_VSA13>
5.91

>  <SMR_VSA1>
19.49

>  <SMR_VSA2>
0

>  <SMR_VSA3>
10.22

>  <SMR_VSA4>
5.73

>  <SMR_VSA5>
37.22

>  <SMR_VSA6>
5.75

>  <SMR_VSA7>
35.07

>  <SMR_VSA8>
0

>  <SMR_VSA9>
0

>  <SlogP_VSA1>
11.05

>  <SlogP_VSA2>
51

>  <SlogP_VSA3>
14.38

>  <SlogP_VSA4>
0

>  <SlogP_VSA5>
19.77

>  <SlogP_VSA6>
35.07

>  <SlogP_VSA7>
0

>  <SlogP_VSA8>
0

>  <SlogP_VSA9>
0

>  <SlogP_VSA10>
0

>  <SlogP_VSA11>
0

>  <EState_VSA1>
29.87

>  <EState_VSA2>
11.07

>  <EState_VSA3>
17.75

>  <EState_VSA4>
11.99

>  <EState_VSA5>
16.66

>  <EState_VSA6>
6.92

>  <EState_VSA7>
18.23

>  <EState_VSA8>
5.32

>  <EState_VSA9>
5.73

>  <EState_VSA10>
19.49

>  <VSA_EState1>
0

>  <VSA_EState2>
37.28

>  <VSA_EState3>
11.59

>  <VSA_EState4>
7.49

>  <VSA_EState5>
-1.41

>  <VSA_EState6>
-1.52

>  <VSA_EState7>
7.26

>  <VSA_EState8>
1.7

>  <VSA_EState9>
0

>  <apol>
48.8

>  <bpol>
25.83

>  <nRing>
3

>  <nHRing>
2

>  <naRing>
0

>  <naHRing>
0

>  <nARing 2>
3

>  <nAHRing 2>
2

>  <nFRing>
1

>  <nFHRing>
1

>  <nFaRing>
0

>  <nFaHRing>
0

>  <nFARing 2>
1

>  <nFAHRing 2>
1

>  <nRot>
4

>  <SLogP>
0.35

>  <SMR>
89.79

>  <TopoPSA(NO)>
112.73

>  <TopoPSA>
138.03

>  <JGI1>
0.17

>  <JGI2>
0.09

>  <JGI3>
0.08

>  <JGI4>
0.05

>  <JGI5>
0.04

>  <Diameter>
12

>  <Radius>
6

>  <TMWC10>
126.39

>  <TSRW10>
59.44

>  <MW>
349.11

>  <AMW>
8.12

>  <WPath>
1383

>  <WPol>
39

>  <Zagreb1>
128

>  <Zagreb2>
155

>  <mZagreb2>
5.25

>  <yes>


>  <nAR-cont>
0.691115

>  <nHA-cont>
0.94700071

>  <MWHBN>
0.428162712

>  <MWHBN-cont>
0.366684901

>  <TPSA-cont>
0

>  <pka_cont>
0.97

>  <yes.1>


>  <BBB_SCORE>
2.673143061

>  <MMFF94 Energy>
49.417

$$$$
Compound 1026
Actelion Java MolfileCreator 2.0

  0  0  0  0  0  0              0 V3000
M  V30 BEGIN CTAB
M  V30 COUNTS 42 44 0 0 0
M  V30 BEGIN ATOM
M  V30 1 Cl 0.738 -2.5437 -4.2696 0
M  V30 2 C -0.2616 -2.8567 -2.8979 0
M  V30 3 C -1.6422 -3.0244 -3.0255 0
M  V30 4 C 0.3382 -2.9431 -1.6385 0
M  V30 5 O -2.232 -2.9428 -4.2569 0
M  V30 6 C -2.423 -3.2801 -1.8994 0
M  V30 7 C -0.4361 -3.1839 -0.4898 0
M  V30 8 C -1.8216 -3.3625 -0.6399 0
M  V30 9 C 0.194 -3.2858 0.8884 0 CFG=1
M  V30 10 N 0.921 -4.5561 1.0468 0
M  V30 11 C 1.1503 -2.0987 1.1774 0
M  V30 12 O 2.341 -2.0981 0.8601 0
M  V30 13 N 0.5617 -1.0136 1.7939 0
M  V30 14 C 1.3401 0.2282 2.0521 0 CFG=2
M  V30 15 C 0.5415 1.4029 2.7054 0
M  V30 16 C 1.5504 1.2216 0.8656 0 CFG=2
M  V30 17 O -0.0975 1.5723 3.7165 0
M  V30 18 N 0.7304 2.1536 1.6043 0
M  V30 19 S 0.702 0.8961 -0.7064 0
M  V30 20 C 0.2583 3.3307 1.1246 0
M  V30 21 C 0.7984 2.6332 -1.2442 0
M  V30 22 C 0.3201 3.6209 -0.1955 0
M  V30 23 C -0.3402 4.2653 2.1111 0
M  V30 24 C -0.1048 4.9445 -0.7811 0
M  V30 25 O 0.2425 4.7827 3.0467 0
M  V30 26 O -1.6473 4.4766 1.8744 0
M  V30 27 H 1.4162 -2.812 -1.5559 0
M  V30 28 H -3.1893 -3.0744 -4.1669 0
M  V30 29 H -3.4971 -3.4195 -1.9814 0
M  V30 30 H -2.4472 -3.57 0.227 0
M  V30 31 H -0.5944 -3.2668 1.6509 0
M  V30 32 H 0.4073 -5.299 0.5771 0
M  V30 33 H 1.8123 -4.4668 0.5525 0
M  V30 34 H -0.4242 -1.0499 2.0277 0
M  V30 35 H 2.2595 0.0058 2.6085 0
M  V30 36 H 2.5897 1.5542 0.7594 0
M  V30 37 H 1.8288 2.8687 -1.5319 0
M  V30 38 H 0.1748 2.7124 -2.1411 0
M  V30 39 H 0.6781 5.3275 -1.4448 0
M  V30 40 H -1.0226 4.8216 -1.3651 0
M  V30 41 H -0.2811 5.7173 -0.0279 0
M  V30 42 H -1.9259 5.0377 2.6279 0
M  V30 END ATOM
M  V30 BEGIN BOND
M  V30 1 1 1 2
M  V30 2 2 2 3
M  V30 3 1 2 4
M  V30 4 1 3 5
M  V30 5 1 3 6
M  V30 6 2 4 7
M  V30 7 2 6 8
M  V30 8 1 7 9
M  V30 9 1 9 10
M  V30 10 1 9 11
M  V30 11 2 11 12
M  V30 12 1 11 13
M  V30 13 1 13 14
M  V30 14 1 14 15
M  V30 15 1 14 16
M  V30 16 2 15 17
M  V30 17 1 15 18
M  V30 18 1 16 19
M  V30 19 1 18 20
M  V30 20 1 19 21
M  V30 21 2 20 22
M  V30 22 1 20 23
M  V30 23 1 22 24
M  V30 24 2 23 25
M  V30 25 1 23 26
M  V30 26 1 7 8
M  V30 27 1 16 18
M  V30 28 1 21 22
M  V30 29 1 4 27
M  V30 30 1 5 28
M  V30 31 1 6 29
M  V30 32 1 8 30
M  V30 33 1 9 31
M  V30 34 1 10 32
M  V30 35 1 10 33
M  V30 36 1 13 34
M  V30 37 1 14 35
M  V30 38 1 16 36
M  V30 39 1 21 37
M  V30 40 1 21 38
M  V30 41 1 24 39
M  V30 42 1 24 40
M  V30 43 1 24 41
M  V30 44 1 26 42
M  V30 END BOND
M  V30 BEGIN COLLECTION
M  V30 MDLV30/STEABS ATOMS=(3 9 14 16)
M  V30 END COLLECTION
M  V30 END CTAB
M  END
>  <Column 1>
1227

>  <level_0>
1370

>  <index>
1370

>  <Unnamed: 0>
1370

>  <NO.>
1382

>  <Name>
cefedrolor

>  <IUPAC_name>
(6r-7r)-7-[[(2r)-2-amino-2-(3-chloro-4-hydroxyphenyl)acetyl]amino]-3-methyl-8-oxo-5-thia-1-azabicyclo[4.2.0]oct-2-ene-2-carboxylic acid

>  <SMILES>
CC1=C(C(=O)O)N2C(=O)[C@@H](NC(=O)[C@H](N)c3ccc(O)c(Cl)c3)[C@H]2SC1

>  <CID>
193953

>  <logBB>


>  <BBB+/BBB->
BBB-

>  <Inchi>
InChI=1S/C16H16ClN3O5S/c1-6-5-26-15-11(14(23)20(15)12(6)16(24)25)19-13(22)10(18)7-2-3-9(21)8(17)4-7/h2-4-10-11-15-21H-5-18H2-1H3-(H-19-22)(H-24-25)/t10--11--15-/m1/s1

>  <threshold>
-1

>  <reference>
R1|R6|R27|R27|R30|R30|

>  <group>
B

>  <Class>
-1

>  <ABC>
20.27

>  <ABCGG>
16.79

>  <nAcid>
1

>  <nBase>
1

>  <nAromAtom>
6

>  <nAromBond>
6

>  <nAtom>
42

>  <nHeavyAtom>
26

>  <nSpiro>
0

>  <nBridgehead>
0

>  <nHetero>
10

>  <nN>
3

>  <nO>
5

>  <nF>
0

>  <BalabanJ>
1.57

>  <BertzCT>
843.17

>  <nBonds>
44

>  <nBondsO>
28

>  <nBondsS>
34

>  <nBondsD>
4

>  <nBondsT>
0

>  <nBondsA>
6

>  <nBondsM>
10

>  <nBondsKS>
37

>  <nBondsKD>
7

>  <RNCG>
0.16

>  <RPCG>
0.11

>  <FCSP3>
0.31

>  <SZ>
34.33

>  <Sm>
33.12

>  <Sv>
28.46

>  <Sse>
43.59

>  <Sp>
29.81

>  <Si>
47.31

>  <MZ>
0.82

>  <Mm>
0.79

>  <Mv>
0.68

>  <Mse>
1.04

>  <Mp>
0.71

>  <Mi>
1.13

>  <NsCH3>
1

>  <NdCH2>
0

>  <NssCH2>
1

>  <NtCH>
0

>  <NdsCH>
0

>  <NaaCH>
3

>  <NsssCH>
3

>  <NddC>
0

>  <NtsC>
0

>  <NdssC>
5

>  <NaasC>
3

>  <NaaaC>
0

>  <NssssC>
0

>  <NsNH3>
0

>  <NsNH2>
1

>  <NssNH2>
0

>  <NdNH>
0

>  <NssNH>
1

>  <NaaNH>
0

>  <NtN>
0

>  <NsssNH>
0

>  <NdsN>
0

>  <NaaN>
0

>  <NsssN>
1

>  <NddsN>
0

>  <NaasN>
0

>  <NssssN>
0

>  <NsOH>
2

>  <NdO>
3

>  <NssO>
0

>  <NaaO>
0

>  <NsF>
0

>  <NsSiH3>
0

>  <NssSiH2>
0

>  <NsssSiH>
0

>  <NssssSi>
0

>  <NsPH2>
0

>  <NssPH>
0

>  <NsssP>
0

>  <NdsssP>
0

>  <NsssssP>
0

>  <NsSH>
0

>  <NdS>
0

>  <NssS>
1

>  <NaaS>
0

>  <NdssS>
0

>  <NddssS>
0

>  <NsCl>
1

>  <NsBr>
0

>  <NsI>
0

>  <fragCpx>
134.1

>  <fMF>
0.4

>  <nHBAcc>
6

>  <nHBDon>
4

>  <Kier1>
20.73

>  <Kier2>
8.16

>  <Lipinski>
1

>  <GhoseFilter>
1

>  <FilterItLogS>
-1.86

>  <VMcGowan>
261.5

>  <LabuteASA>
157.53

>  <PEOE_VSA1>
21.26

>  <PEOE_VSA2>
14.49

>  <PEOE_VSA3>
4.79

>  <PEOE_VSA4>
0

>  <PEOE_VSA5>
11.76

>  <PEOE_VSA6>
17.67

>  <PEOE_VSA7>
30.19

>  <PEOE_VSA8>
5.75

>  <PEOE_VSA9>
5.02

>  <PEOE_VSA10>
28.9

>  <PEOE_VSA11>
0

>  <PEOE_VSA12>
5.91

>  <PEOE_VSA13>
5.91

>  <SMR_VSA1>
24.6

>  <SMR_VSA2>
0

>  <SMR_VSA3>
10.22

>  <SMR_VSA4>
5.73

>  <SMR_VSA5>
24.38

>  <SMR_VSA6>
5.75

>  <SMR_VSA7>
40.06

>  <SMR_VSA8>
0

>  <SMR_VSA9>
5.75

>  <SlogP_VSA1>
11.05

>  <SlogP_VSA2>
50.07

>  <SlogP_VSA3>
14.38

>  <SlogP_VSA4>
0

>  <SlogP_VSA5>
18.53

>  <SlogP_VSA6>
29.47

>  <SlogP_VSA7>
5.02

>  <SlogP_VSA8>
0

>  <SlogP_VSA9>
0

>  <SlogP_VSA10>
0

>  <SlogP_VSA11>
5.75

>  <EState_VSA1>
35.24

>  <EState_VSA2>
16.47

>  <EState_VSA3>
16.89

>  <EState_VSA4>
0

>  <EState_VSA5>
34.86

>  <EState_VSA6>
6.92

>  <EState_VSA7>
0

>  <EState_VSA8>
5.32

>  <EState_VSA9>
17.33

>  <EState_VSA10>
24.6

>  <VSA_EState1>
0

>  <VSA_EState2>
37.32

>  <VSA_EState3>
20.9

>  <VSA_EState4>
6.87

>  <VSA_EState5>
-1.91

>  <VSA_EState6>
2.24

>  <VSA_EState7>
0

>  <VSA_EState8>
1.66

>  <VSA_EState9>
0

>  <apol>
49.78

>  <bpol>
23.34

>  <nRing>
3

>  <nHRing>
2

>  <naRing>
1

>  <naHRing>
0

>  <nARing 2>
2

>  <nAHRing 2>
2

>  <nFRing>
1

>  <nFHRing>
1

>  <nFaRing>
0

>  <nFaHRing>
0

>  <nFARing 2>
1

>  <nFAHRing 2>
1

>  <nRot>
4

>  <SLogP>
0.8

>  <SMR>
95.4

>  <TopoPSA(NO)>
132.96

>  <TopoPSA>
158.26

>  <JGI1>
0.21

>  <JGI2>
0.11

>  <JGI3>
0.08

>  <JGI4>
0.05

>  <JGI5>
0.04

>  <Diameter>
13

>  <Radius>
7

>  <TMWC10>
131.25

>  <TSRW10>
61.88

>  <MW>
397.05

>  <AMW>
9.45

>  <WPath>
1742

>  <WPol>
44

>  <Zagreb1>
140

>  <Zagreb2>
170

>  <mZagreb2>
5.61

>  <yes>


>  <nAR-cont>
1

>  <nHA-cont>
0.892715677

>  <MWHBN>
0.501854011

>  <MWHBN-cont>
0

>  <TPSA-cont>
0

>  <pka_cont>
0.97

>  <yes.1>


>  <BBB_SCORE>
2.377715677

>  <MMFF94 Energy>
74.864

$$$$
Compound 1027
Actelion Java MolfileCreator 2.0

  0  0  0  0  0  0              0 V3000
M  V30 BEGIN CTAB
M  V30 COUNTS 42 44 0 0 0
M  V30 BEGIN ATOM
M  V30 1 S -1.0539 -0.081 0.9728 0
M  V30 2 C -1.827 -1.0793 -0.33 0 CFG=1
M  V30 3 C -2.6473 0.5274 1.6059 0
M  V30 4 N -2.5416 -0.1696 -1.1952 0
M  V30 5 C -0.9778 -1.4675 -1.58 0 CFG=1
M  V30 6 C -3.5647 1.0739 0.5272 0
M  V30 7 C -3.4481 0.7533 -0.7823 0
M  V30 8 C -1.9135 -0.4781 -2.3458 0
M  V30 9 N 0.4677 -1.1177 -1.5829 0
M  V30 10 C -4.5977 2.0317 1.0683 0
M  V30 11 C -4.267 1.4321 -1.8245 0
M  V30 12 O -1.9995 -0.0519 -3.4732 0
M  V30 13 C 1.3877 -1.9095 -0.9263 0
M  V30 14 O -4.4553 2.6295 -1.9395 0
M  V30 15 O -4.8437 0.5356 -2.6461 0
M  V30 16 O 1.0529 -2.9378 -0.335 0
M  V30 17 C 2.8498 -1.3935 -0.9795 0 CFG=2
M  V30 18 N 3.773 -2.5375 -1.0834 0
M  V30 19 C 3.1925 -0.5208 0.2145 0
M  V30 20 C 2.9139 -0.9284 1.5298 0
M  V30 21 C 3.8381 0.7119 0.0161 0
M  V30 22 C 3.2513 -0.1151 2.6131 0
M  V30 23 C 4.1768 1.5252 1.1011 0
M  V30 24 C 3.8775 1.104 2.3916 0
M  V30 25 O 4.1897 1.8653 3.4785 0
M  V30 26 H -2.4523 -1.9006 0.0394 0
M  V30 27 H -2.41 1.3176 2.3262 0
M  V30 28 H -3.1542 -0.2774 2.1491 0
M  V30 29 H -1.1305 -2.5029 -1.9102 0
M  V30 30 H 0.7819 -0.2644 -2.0314 0
M  V30 31 H -4.1262 2.9811 1.3411 0
M  V30 32 H -5.0653 1.6094 1.9649 0
M  V30 33 H -5.4109 2.2375 0.3678 0
M  V30 34 H -5.283 1.0855 -3.3265 0
M  V30 35 H 2.9589 -0.8074 -1.9003 0
M  V30 36 H 4.7081 -2.2301 -0.8223 0
M  V30 37 H 3.4927 -3.2204 -0.3754 0
M  V30 38 H 2.4249 -1.8815 1.7248 0
M  V30 39 H 4.0858 1.0485 -0.9886 0
M  V30 40 H 3.0243 -0.434 3.6265 0
M  V30 41 H 4.6718 2.474 0.9201 0
M  V30 42 H 4.6081 2.6862 3.1726 0
M  V30 END ATOM
M  V30 BEGIN BOND
M  V30 1 1 1 2
M  V30 2 1 1 3
M  V30 3 1 2 4
M  V30 4 1 2 5
M  V30 5 1 3 6
M  V30 6 1 4 7
M  V30 7 1 4 8
M  V30 8 1 5 9
M  V30 9 1 6 10
M  V30 10 1 7 11
M  V30 11 2 8 12
M  V30 12 1 9 13
M  V30 13 2 11 14
M  V30 14 1 11 15
M  V30 15 2 13 16
M  V30 16 1 13 17
M  V30 17 1 17 18
M  V30 18 1 17 19
M  V30 19 2 19 20
M  V30 20 1 19 21
M  V30 21 1 20 22
M  V30 22 2 21 23
M  V30 23 2 22 24
M  V30 24 1 24 25
M  V30 25 1 5 8
M  V30 26 2 6 7
M  V30 27 1 23 24
M  V30 28 1 2 26
M  V30 29 1 3 27
M  V30 30 1 3 28
M  V30 31 1 5 29
M  V30 32 1 9 30
M  V30 33 1 10 31
M  V30 34 1 10 32
M  V30 35 1 10 33
M  V30 36 1 15 34
M  V30 37 1 17 35
M  V30 38 1 18 36
M  V30 39 1 18 37
M  V30 40 1 20 38
M  V30 41 1 21 39
M  V30 42 1 22 40
M  V30 43 1 23 41
M  V30 44 1 25 42
M  V30 END BOND
M  V30 BEGIN COLLECTION
M  V30 MDLV30/STEABS ATOMS=(3 2 5 17)
M  V30 END COLLECTION
M  V30 END CTAB
M  END
>  <Column 1>
1228

>  <level_0>
1371

>  <index>
1371

>  <Unnamed: 0>
1371

>  <NO.>
1383

>  <Name>
cefadroxil

>  <IUPAC_name>
(6r-7r)-7-[[(2r)-2-amino-2-(4-hydroxyphenyl)acetyl]amino]-3-methyl-8-oxo-5-thia-1-azabicyclo[4.2.0]oct-2-ene-2-carboxylic acid

>  <SMILES>
CC1=C(C(=O)O)N2C(=O)[C@@H](NC(=O)[C@H](N)c3ccc(O)cc3)[C@H]2SC1

>  <CID>
47965

>  <logBB>


>  <BBB+/BBB->
BBB-

>  <Inchi>
InChI=1S/C16H17N3O5S/c1-7-6-25-15-11(14(22)19(15)12(7)16(23)24)18-13(21)10(17)8-2-4-9(20)5-3-8/h2-5-10-11-15-20H-6-17H2-1H3-(H-18-21)(H-23-24)/t10--11--15-/m1/s1

>  <threshold>
-1

>  <reference>
R1|R6|R15|R27|R27|R30|R30|

>  <group>
B

>  <Class>
-1

>  <ABC>
19.49

>  <ABCGG>
16.06

>  <nAcid>
1

>  <nBase>
1

>  <nAromAtom>
6

>  <nAromBond>
6

>  <nAtom>
42

>  <nHeavyAtom>
25

>  <nSpiro>
0

>  <nBridgehead>
0

>  <nHetero>
9

>  <nN>
3

>  <nO>
5

>  <nF>
0

>  <BalabanJ>
1.56

>  <BertzCT>
776.48

>  <nBonds>
44

>  <nBondsO>
27

>  <nBondsS>
34

>  <nBondsD>
4

>  <nBondsT>
0

>  <nBondsA>
6

>  <nBondsM>
10

>  <nBondsKS>
37

>  <nBondsKD>
7

>  <RNCG>
0.16

>  <RPCG>
0.11

>  <FCSP3>
0.31

>  <SZ>
31.67

>  <Sm>
30.25

>  <Sv>
27.64

>  <Sse>
43.27

>  <Sp>
28.9

>  <Si>
47.37

>  <MZ>
0.75

>  <Mm>
0.72

>  <Mv>
0.66

>  <Mse>
1.03

>  <Mp>
0.69

>  <Mi>
1.13

>  <NsCH3>
1

>  <NdCH2>
0

>  <NssCH2>
1

>  <NtCH>
0

>  <NdsCH>
0

>  <NaaCH>
4

>  <NsssCH>
3

>  <NddC>
0

>  <NtsC>
0

>  <NdssC>
5

>  <NaasC>
2

>  <NaaaC>
0

>  <NssssC>
0

>  <NsNH3>
0

>  <NsNH2>
1

>  <NssNH2>
0

>  <NdNH>
0

>  <NssNH>
1

>  <NaaNH>
0

>  <NtN>
0

>  <NsssNH>
0

>  <NdsN>
0

>  <NaaN>
0

>  <NsssN>
1

>  <NddsN>
0

>  <NaasN>
0

>  <NssssN>
0

>  <NsOH>
2

>  <NdO>
3

>  <NssO>
0

>  <NaaO>
0

>  <NsF>
0

>  <NsSiH3>
0

>  <NssSiH2>
0

>  <NsssSiH>
0

>  <NssssSi>
0

>  <NsPH2>
0

>  <NssPH>
0

>  <NsssP>
0

>  <NdsssP>
0

>  <NsssssP>
0

>  <NsSH>
0

>  <NdS>
0

>  <NssS>
1

>  <NaaS>
0

>  <NdssS>
0

>  <NddssS>
0

>  <NsCl>
0

>  <NsBr>
0

>  <NsI>
0

>  <fragCpx>
129.09

>  <fMF>
0.4

>  <nHBAcc>
6

>  <nHBDon>
4

>  <Kier1>
19.75

>  <Kier2>
7.94

>  <Lipinski>
1

>  <GhoseFilter>
1

>  <FilterItLogS>
-1.12

>  <VMcGowan>
249.26

>  <LabuteASA>
147.23

>  <PEOE_VSA1>
21.26

>  <PEOE_VSA2>
14.49

>  <PEOE_VSA3>
4.79

>  <PEOE_VSA4>
0

>  <PEOE_VSA5>
11.76

>  <PEOE_VSA6>
12.13

>  <PEOE_VSA7>
30.19

>  <PEOE_VSA8>
5.75

>  <PEOE_VSA9>
0

>  <PEOE_VSA10>
28.9

>  <PEOE_VSA11>
0

>  <PEOE_VSA12>
5.91

>  <PEOE_VSA13>
5.91

>  <SMR_VSA1>
24.6

>  <SMR_VSA2>
0

>  <SMR_VSA3>
10.22

>  <SMR_VSA4>
5.73

>  <SMR_VSA5>
24.38

>  <SMR_VSA6>
5.75

>  <SMR_VSA7>
41.1

>  <SMR_VSA8>
0

>  <SMR_VSA9>
5.75

>  <SlogP_VSA1>
11.05

>  <SlogP_VSA2>
50.07

>  <SlogP_VSA3>
14.38

>  <SlogP_VSA4>
0

>  <SlogP_VSA5>
18.53

>  <SlogP_VSA6>
35.54

>  <SlogP_VSA7>
0

>  <SlogP_VSA8>
0

>  <SlogP_VSA9>
0

>  <SlogP_VSA10>
0

>  <SlogP_VSA11>
5.75

>  <EState_VSA1>
35.24

>  <EState_VSA2>
11.45

>  <EState_VSA3>
16.89

>  <EState_VSA4>
0

>  <EState_VSA5>
40.93

>  <EState_VSA6>
6.92

>  <EState_VSA7>
0

>  <EState_VSA8>
5.32

>  <EState_VSA9>
5.73

>  <EState_VSA10>
24.6

>  <VSA_EState1>
0

>  <VSA_EState2>
37.22

>  <VSA_EState3>
20.72

>  <VSA_EState4>
7

>  <VSA_EState5>
-1.61

>  <VSA_EState6>
4.09

>  <VSA_EState7>
0

>  <VSA_EState8>
1.67

>  <VSA_EState9>
0

>  <apol>
48.27

>  <bpol>
23.83

>  <nRing>
3

>  <nHRing>
2

>  <naRing>
1

>  <naHRing>
0

>  <nARing 2>
2

>  <nAHRing 2>
2

>  <nFRing>
1

>  <nFHRing>
1

>  <nFaRing>
0

>  <nFaHRing>
0

>  <nFARing 2>
1

>  <nFAHRing 2>
1

>  <nRot>
4

>  <SLogP>
0.15

>  <SMR>
90.39

>  <TopoPSA(NO)>
132.96

>  <TopoPSA>
158.26

>  <JGI1>
0.2

>  <JGI2>
0.1

>  <JGI3>
0.08

>  <JGI4>
0.05

>  <JGI5>
0.04

>  <Diameter>
13

>  <Radius>
7

>  <TMWC10>
128.78

>  <TSRW10>
60.65

>  <MW>
363.09

>  <AMW>
8.64

>  <WPath>
1570

>  <WPol>
41

>  <Zagreb1>
134

>  <Zagreb2>
162

>  <mZagreb2>
5.42

>  <yes>


>  <nAR-cont>
1

>  <nHA-cont>
0.921834225

>  <MWHBN>
0.524798827

>  <MWHBN-cont>
0

>  <TPSA-cont>
0

>  <pka_cont>
0.97

>  <yes.1>


>  <BBB_SCORE>
2.406834225

>  <MMFF94 Energy>
57.272

$$$$
Compound 1028
Actelion Java MolfileCreator 2.0

  0  0  0  0  0  0              0 V3000
M  V30 BEGIN CTAB
M  V30 COUNTS 41 43 0 0 0
M  V30 BEGIN ATOM
M  V30 1 S 0.4058 1.5428 -2.7621 0
M  V30 2 C 1.4125 1.9372 -1.3065 0 CFG=1
M  V30 3 C -0.0604 3.2792 -3.0506 0
M  V30 4 N 0.549 2.5397 -0.3223 0
M  V30 5 C 1.6713 0.8008 -0.2721 0 CFG=1
M  V30 6 C -0.5489 4.0029 -1.8093 0
M  V30 7 C -0.2713 3.5967 -0.5486 0
M  V30 8 C 0.8081 1.6928 0.6949 0
M  V30 9 N 1.0973 -0.5314 -0.5659 0
M  V30 10 C -1.3957 5.2101 -2.1322 0
M  V30 11 C -0.8904 4.2558 0.6337 0
M  V30 12 O 0.4098 1.6439 1.8344 0
M  V30 13 C 1.4696 -1.676 0.1082 0
M  V30 14 O -2.0724 4.4985 0.7965 0
M  V30 15 O 0.0468 4.6162 1.5293 0
M  V30 16 O 2.3942 -1.6906 0.9159 0
M  V30 17 C 0.6331 -2.9235 -0.2862 0 CFG=2
M  V30 18 N -0.5877 -2.5088 -1.0324 0
M  V30 19 C 0.2434 -3.8025 0.8863 0
M  V30 20 C -0.2297 -3.2571 2.0915 0
M  V30 21 C 0.2923 -5.2002 0.7558 0
M  V30 22 C -0.6231 -4.088 3.1423 0
M  V30 23 C -0.1029 -6.0285 1.808 0
M  V30 24 C -0.5595 -5.4722 3.0006 0
M  V30 25 H 2.3028 2.5402 -1.5212 0
M  V30 26 H 0.7937 3.8159 -3.4773 0
M  V30 27 H -0.8537 3.2619 -3.8056 0
M  V30 28 H 2.7231 0.7373 0.0304 0
M  V30 29 H 0.3395 -0.6534 -1.2399 0
M  V30 30 H -0.9051 5.8151 -2.9029 0
M  V30 31 H -2.3726 4.8947 -2.5125 0
M  V30 32 H -1.5557 5.8728 -1.278 0
M  V30 33 H -0.4677 4.9467 2.2938 0
M  V30 34 H 1.2709 -3.4874 -0.9786 0
M  V30 35 H -1.0499 -3.3629 -1.3491 0
M  V30 36 H -1.2378 -2.1102 -0.3502 0
M  V30 37 H -0.2848 -2.1785 2.2308 0
M  V30 38 H 0.6432 -5.6551 -0.1679 0
M  V30 39 H -0.9749 -3.652 4.0742 0
M  V30 40 H -0.0526 -7.1087 1.6978 0
M  V30 41 H -0.8629 -6.1167 3.8214 0
M  V30 END ATOM
M  V30 BEGIN BOND
M  V30 1 1 1 2
M  V30 2 1 1 3
M  V30 3 1 2 4
M  V30 4 1 2 5
M  V30 5 1 3 6
M  V30 6 1 4 7
M  V30 7 1 4 8
M  V30 8 1 5 9
M  V30 9 1 6 10
M  V30 10 1 7 11
M  V30 11 2 8 12
M  V30 12 1 9 13
M  V30 13 2 11 14
M  V30 14 1 11 15
M  V30 15 2 13 16
M  V30 16 1 13 17
M  V30 17 1 17 18
M  V30 18 1 17 19
M  V30 19 2 19 20
M  V30 20 1 19 21
M  V30 21 1 20 22
M  V30 22 2 21 23
M  V30 23 2 22 24
M  V30 24 1 5 8
M  V30 25 2 6 7
M  V30 26 1 23 24
M  V30 27 1 2 25
M  V30 28 1 3 26
M  V30 29 1 3 27
M  V30 30 1 5 28
M  V30 31 1 9 29
M  V30 32 1 10 30
M  V30 33 1 10 31
M  V30 34 1 10 32
M  V30 35 1 15 33
M  V30 36 1 17 34
M  V30 37 1 18 35
M  V30 38 1 18 36
M  V30 39 1 20 37
M  V30 40 1 21 38
M  V30 41 1 22 39
M  V30 42 1 23 40
M  V30 43 1 24 41
M  V30 END BOND
M  V30 BEGIN COLLECTION
M  V30 MDLV30/STEABS ATOMS=(3 2 5 17)
M  V30 END COLLECTION
M  V30 END CTAB
M  END
>  <Column 1>
1230

>  <level_0>
1373

>  <index>
1373

>  <Unnamed: 0>
1373

>  <NO.>
1385

>  <Name>
cephalexin

>  <IUPAC_name>
(6r-7r)-7-[[(2r)-2-amino-2-phenylacetyl]amino]-3-methyl-8-oxo-5-thia-1-azabicyclo[4.2.0]oct-2-ene-2-carboxylic acid

>  <SMILES>
CC1=C(C(=O)O)N2C(=O)[C@@H](NC(=O)[C@H](N)c3ccccc3)[C@H]2SC1

>  <CID>
27447

>  <logBB>


>  <BBB+/BBB->
BBB-

>  <Inchi>
InChI=1S/C16H17N3O4S/c1-8-7-24-15-11(14(21)19(15)12(8)16(22)23)18-13(20)10(17)9-5-3-2-4-6-9/h2-6-10-11-15H-7-17H2-1H3-(H-18-20)(H-22-23)/t10--11--15-/m1/s1

>  <threshold>
-1

>  <reference>
R1|R7|R6|R15|R27|R29|R30|

>  <group>
B

>  <Class>
-1

>  <ABC>
18.68

>  <ABCGG>
15.57

>  <nAcid>
1

>  <nBase>
1

>  <nAromAtom>
6

>  <nAromBond>
6

>  <nAtom>
41

>  <nHeavyAtom>
24

>  <nSpiro>
0

>  <nBridgehead>
0

>  <nHetero>
8

>  <nN>
3

>  <nO>
4

>  <nF>
0

>  <BalabanJ>
1.58

>  <BertzCT>
734.1

>  <nBonds>
43

>  <nBondsO>
26

>  <nBondsS>
33

>  <nBondsD>
4

>  <nBondsT>
0

>  <nBondsA>
6

>  <nBondsM>
10

>  <nBondsKS>
36

>  <nBondsKD>
7

>  <RNCG>
0.17

>  <RPCG>
0.13

>  <FCSP3>
0.31

>  <SZ>
30.33

>  <Sm>
28.92

>  <Sv>
26.93

>  <Sse>
41.94

>  <Sp>
28.42

>  <Si>
46.16

>  <MZ>
0.74

>  <Mm>
0.71

>  <Mv>
0.66

>  <Mse>
1.02

>  <Mp>
0.69

>  <Mi>
1.13

>  <NsCH3>
1

>  <NdCH2>
0

>  <NssCH2>
1

>  <NtCH>
0

>  <NdsCH>
0

>  <NaaCH>
5

>  <NsssCH>
3

>  <NddC>
0

>  <NtsC>
0

>  <NdssC>
5

>  <NaasC>
1

>  <NaaaC>
0

>  <NssssC>
0

>  <NsNH3>
0

>  <NsNH2>
1

>  <NssNH2>
0

>  <NdNH>
0

>  <NssNH>
1

>  <NaaNH>
0

>  <NtN>
0

>  <NsssNH>
0

>  <NdsN>
0

>  <NaaN>
0

>  <NsssN>
1

>  <NddsN>
0

>  <NaasN>
0

>  <NssssN>
0

>  <NsOH>
1

>  <NdO>
3

>  <NssO>
0

>  <NaaO>
0

>  <NsF>
0

>  <NsSiH3>
0

>  <NssSiH2>
0

>  <NsssSiH>
0

>  <NssssSi>
0

>  <NsPH2>
0

>  <NssPH>
0

>  <NsssP>
0

>  <NdsssP>
0

>  <NsssssP>
0

>  <NsSH>
0

>  <NdS>
0

>  <NssS>
1

>  <NaaS>
0

>  <NdssS>
0

>  <NddssS>
0

>  <NsCl>
0

>  <NsBr>
0

>  <NsI>
0

>  <fragCpx>
124.08

>  <fMF>
0.41

>  <nHBAcc>
5

>  <nHBDon>
3

>  <Kier1>
18.78

>  <Kier2>
7.71

>  <Lipinski>
1

>  <GhoseFilter>
1

>  <FilterItLogS>
-1.56

>  <VMcGowan>
243.39

>  <LabuteASA>
142.43

>  <PEOE_VSA1>
16.16

>  <PEOE_VSA2>
14.49

>  <PEOE_VSA3>
4.79

>  <PEOE_VSA4>
0

>  <PEOE_VSA5>
11.76

>  <PEOE_VSA6>
30.33

>  <PEOE_VSA7>
18.06

>  <PEOE_VSA8>
5.75

>  <PEOE_VSA9>
0

>  <PEOE_VSA10>
23.15

>  <PEOE_VSA11>
0

>  <PEOE_VSA12>
5.91

>  <PEOE_VSA13>
5.91

>  <SMR_VSA1>
19.49

>  <SMR_VSA2>
0

>  <SMR_VSA3>
10.22

>  <SMR_VSA4>
5.73

>  <SMR_VSA5>
24.38

>  <SMR_VSA6>
5.75

>  <SMR_VSA7>
47.17

>  <SMR_VSA8>
0

>  <SMR_VSA9>
0

>  <SlogP_VSA1>
11.05

>  <SlogP_VSA2>
44.96

>  <SlogP_VSA3>
14.38

>  <SlogP_VSA4>
0

>  <SlogP_VSA5>
18.53

>  <SlogP_VSA6>
41.6

>  <SlogP_VSA7>
0

>  <SlogP_VSA8>
0

>  <SlogP_VSA9>
0

>  <SlogP_VSA10>
0

>  <SlogP_VSA11>
0

>  <EState_VSA1>
35.24

>  <EState_VSA2>
5.7

>  <EState_VSA3>
16.89

>  <EState_VSA4>
0

>  <EState_VSA5>
16.66

>  <EState_VSA6>
31.19

>  <EState_VSA7>
6.07

>  <EState_VSA8>
5.32

>  <EState_VSA9>
5.73

>  <EState_VSA10>
19.49

>  <VSA_EState1>
0

>  <VSA_EState2>
37.21

>  <VSA_EState3>
11.53

>  <VSA_EState4>
7.24

>  <VSA_EState5>
-1.5

>  <VSA_EState6>
7.23

>  <VSA_EState7>
0

>  <VSA_EState8>
1.69

>  <VSA_EState9>
0

>  <apol>
47.46

>  <bpol>
23.83

>  <nRing>
3

>  <nHRing>
2

>  <naRing>
1

>  <naHRing>
0

>  <nARing 2>
2

>  <nAHRing 2>
2

>  <nFRing>
1

>  <nFHRing>
1

>  <nFaRing>
0

>  <nFaHRing>
0

>  <nFARing 2>
1

>  <nFAHRing 2>
1

>  <nRot>
4

>  <SLogP>
0.44

>  <SMR>
88.73

>  <TopoPSA(NO)>
112.73

>  <TopoPSA>
138.03

>  <JGI1>
0.17

>  <JGI2>
0.09

>  <JGI3>
0.08

>  <JGI4>
0.05

>  <JGI5>
0.04

>  <Diameter>
12

>  <Radius>
6

>  <TMWC10>
126.39

>  <TSRW10>
59.44

>  <MW>
347.09

>  <AMW>
8.47

>  <WPath>
1383

>  <WPol>
39

>  <Zagreb1>
128

>  <Zagreb2>
155

>  <mZagreb2>
5.25

>  <yes>


>  <nAR-cont>
1

>  <nHA-cont>
0.94700071

>  <MWHBN>
0.429406819

>  <MWHBN-cont>
0.361960669

>  <TPSA-cont>
0

>  <pka_cont>
0.97

>  <yes.1>


>  <BBB_SCORE>
2.974941713

>  <MMFF94 Energy>
64.825

$$$$
Compound 1029
Actelion Java MolfileCreator 2.0

  0  0  0  0  0  0              0 V3000
M  V30 BEGIN CTAB
M  V30 COUNTS 73 75 0 0 0
M  V30 BEGIN ATOM
M  V30 1 O 3.4129 -1.5863 0.1585 0
M  V30 2 C 3.2531 -0.4383 0.5446 0
M  V30 3 O 2.7656 0.599 -0.1904 0
M  V30 4 C 3.7774 0.0949 1.8301 0
M  V30 5 C 2.6365 0.3963 -1.6247 0
M  V30 6 N 3.2363 1.1021 2.6028 0
M  V30 7 C 5.0053 -0.2342 2.2582 0
M  V30 8 C 1.1594 0.6589 -2.0471 0
M  V30 9 C 3.6691 1.3406 -2.3088 0
M  V30 10 C 1.9534 1.6274 2.6241 0
M  V30 11 C 4.2616 1.6193 3.5064 0
M  V30 12 C 5.3921 0.5904 3.4457 0
M  V30 13 C 0.2496 -0.4576 -1.5657 0
M  V30 14 C 0.6334 2.0129 -1.5617 0
M  V30 15 C 5.1015 1.0033 -1.868 0
M  V30 16 C 3.5992 1.2941 -3.8375 0
M  V30 17 O 1.7376 2.7741 3.0209 0
M  V30 18 C 0.8428 0.7338 2.3023 0
M  V30 19 C -0.8898 -0.8899 -2.1333 0
M  V30 20 N 0.9034 -0.6497 2.2732 0
M  V30 21 C -0.4613 1.1221 2.0916 0
M  V30 22 C -1.477 -0.3206 -3.3705 0
M  V30 23 C -0.3412 -1.0295 2.0667 0
M  V30 24 O -1.2214 0.0082 1.9112 0
M  V30 25 O -0.7964 -0.0182 -4.3442 0
M  V30 26 N -2.8248 -0.1247 -3.3949 0
M  V30 27 C -0.8679 -2.4029 1.9097 0
M  V30 28 C -3.814 -0.3856 -2.3724 0
M  V30 29 C -2.0455 -2.6248 2.8287 0
M  V30 30 C -3.7828 0.7203 -1.3658 0
M  V30 31 O -1.8929 -3.2218 3.9019 0
M  V30 32 C -3.4089 -2.0396 2.4927 0
M  V30 33 C -4.5008 0.7806 -0.2321 0
M  V30 34 C -3.7157 -1.9321 1.0025 0
M  V30 35 C -5.4492 -0.2111 0.2363 0
M  V30 36 O -3.6491 -3.2311 0.4201 0
M  V30 37 C -5.1028 -1.3974 0.7717 0
M  V30 38 C -6.8905 0.2153 0.1359 0
M  V30 39 H 2.8924 -0.6356 -1.9 0
M  V30 40 H 5.6518 -0.9614 1.7865 0
M  V30 41 H 1.1311 0.6568 -3.1386 0
M  V30 42 H 3.4822 2.3719 -1.984 0
M  V30 43 H 3.8563 1.742 4.5166 0
M  V30 44 H 4.5835 2.6009 3.1383 0
M  V30 45 H 5.4222 -0.029 4.3478 0
M  V30 46 H 6.3637 1.0747 3.3132 0
M  V30 47 H 0.5731 -0.9664 -0.6603 0
M  V30 48 H 1.2174 2.8359 -1.9852 0
M  V30 49 H 0.6699 2.1021 -0.4726 0
M  V30 50 H -0.4066 2.1663 -1.8708 0
M  V30 51 H 5.349 -0.0399 -2.0908 0
M  V30 52 H 5.2384 1.1678 -0.7952 0
M  V30 53 H 5.8284 1.6407 -2.3833 0
M  V30 54 H 2.6672 1.7292 -4.2098 0
M  V30 55 H 3.6733 0.2656 -4.2062 0
M  V30 56 H 4.4156 1.8722 -4.2844 0
M  V30 57 H -1.4309 -1.7106 -1.6796 0
M  V30 58 H -0.9707 2.0741 2.0542 0
M  V30 59 H -3.1456 0.2779 -4.2667 0
M  V30 60 H -1.1318 -2.6142 0.8718 0
M  V30 61 H -0.0905 -3.1279 2.178 0
M  V30 62 H -4.7862 -0.4125 -2.875 0
M  V30 63 H -3.6165 -1.3611 -1.9243 0
M  V30 64 H -3.1398 1.5711 -1.5883 0
M  V30 65 H -3.4753 -1.0557 2.9715 0
M  V30 66 H -4.1489 -2.6963 2.9698 0
M  V30 67 H -4.4256 1.6767 0.3844 0
M  V30 68 H -2.9674 -1.3181 0.499 0
M  V30 69 H -4.1474 -3.2094 -0.4154 0
M  V30 70 H -5.8994 -2.0553 1.1213 0
M  V30 71 H -7.5733 -0.5484 0.5237 0
M  V30 72 H -7.1638 0.4009 -0.9087 0
M  V30 73 H -7.0631 1.133 0.7091 0
M  V30 END ATOM
M  V30 BEGIN BOND
M  V30 1 2 1 2
M  V30 2 1 2 3
M  V30 3 1 2 4
M  V30 4 1 3 5
M  V30 5 1 4 6
M  V30 6 2 4 7
M  V30 7 1 5 8
M  V30 8 1 5 9
M  V30 9 1 6 10
M  V30 10 1 6 11
M  V30 11 1 7 12
M  V30 12 1 8 13
M  V30 13 1 8 14
M  V30 14 1 9 15
M  V30 15 1 9 16
M  V30 16 2 10 17
M  V30 17 1 10 18
M  V30 18 2 13 19
M  V30 19 1 18 20
M  V30 20 2 18 21
M  V30 21 1 19 22
M  V30 22 2 20 23
M  V30 23 1 21 24
M  V30 24 2 22 25
M  V30 25 1 22 26
M  V30 26 1 23 27
M  V30 27 1 26 28
M  V30 28 1 27 29
M  V30 29 1 28 30
M  V30 30 2 29 31
M  V30 31 1 29 32
M  V30 32 2 30 33
M  V30 33 1 32 34
M  V30 34 1 33 35
M  V30 35 1 34 36
M  V30 36 1 34 37
M  V30 37 1 35 38
M  V30 38 1 11 12
M  V30 39 1 23 24
M  V30 40 2 35 37
M  V30 41 1 5 39
M  V30 42 1 7 40
M  V30 43 1 8 41
M  V30 44 1 9 42
M  V30 45 1 11 43
M  V30 46 1 11 44
M  V30 47 1 12 45
M  V30 48 1 12 46
M  V30 49 1 13 47
M  V30 50 1 14 48
M  V30 51 1 14 49
M  V30 52 1 14 50
M  V30 53 1 15 51
M  V30 54 1 15 52
M  V30 55 1 15 53
M  V30 56 1 16 54
M  V30 57 1 16 55
M  V30 58 1 16 56
M  V30 59 1 19 57
M  V30 60 1 21 58
M  V30 61 1 26 59
M  V30 62 1 27 60
M  V30 63 1 27 61
M  V30 64 1 28 62
M  V30 65 1 28 63
M  V30 66 1 30 64
M  V30 67 1 32 65
M  V30 68 1 32 66
M  V30 69 1 33 67
M  V30 70 1 34 68
M  V30 71 1 36 69
M  V30 72 1 37 70
M  V30 73 1 38 71
M  V30 74 1 38 72
M  V30 75 1 38 73
M  V30 END BOND
M  V30 END CTAB
M  END
>  <Column 1>
1231

>  <level_0>
1374

>  <index>
1374

>  <Unnamed: 0>
1374

>  <NO.>
1386

>  <Name>
virginiamycin-factor-m1

>  <IUPAC_name>
(12z-17z-19z)-21-hydroxy-11-19-dimethyl-10-propan-2-yl-9-26-dioxa-3-15-28-triazatricyclo[23.2.1.03-7]octacosa-1(27)-6-12-17-19-25(28)-hexaene-2-8-14-23-tetrone

>  <SMILES>
CC1=C/C(O)CC(=O)Cc2nc(co2)C(=O)N2CCC=C2C(=O)OC(C(C)C)C(C)/C=C\C(=O)NC/C=C\1

>  <CID>


>  <logBB>


>  <BBB+/BBB->
BBB-

>  <Inchi>
InChI=1S/C28H35N3O7/c1-17(2)26-19(4)9-10-24(34)29-11-5-7-18(3)13-20(32)14-21(33)15-25-30-22(16-37-25)27(35)31-12-6-8-23(31)28(36)38-26/h5-7-10-13-16-17-19-20-26-32H-6-11-12-14-15H2-1-4H3-(H-29-34)/b7-5--10-9--18-13-

>  <threshold>
-1

>  <reference>
R1|R27|R30|

>  <group>
B

>  <Class>
1

>  <ABC>
29.03

>  <ABCGG>
21.53

>  <nAcid>
0

>  <nBase>
0

>  <nAromAtom>
5

>  <nAromBond>
5

>  <nAtom>
73

>  <nHeavyAtom>
38

>  <nSpiro>
0

>  <nBridgehead>
2

>  <nHetero>
10

>  <nN>
3

>  <nO>
7

>  <nF>
0

>  <BalabanJ>
1.68

>  <BertzCT>
1174.8

>  <nBonds>
75

>  <nBondsO>
40

>  <nBondsS>
62

>  <nBondsD>
8

>  <nBondsT>
0

>  <nBondsA>
5

>  <nBondsM>
13

>  <nBondsKS>
65

>  <nBondsKD>
10

>  <RNCG>
0.12

>  <RPCG>
0.09

>  <FCSP3>
0.46

>  <SZ>
46.67

>  <Sm>
43.76

>  <Sv>
44.76

>  <Sse>
73.84

>  <Sp>
47.31

>  <Si>
82.61

>  <MZ>
0.64

>  <Mm>
0.6

>  <Mv>
0.61

>  <Mse>
1.01

>  <Mp>
0.65

>  <Mi>
1.13

>  <NsCH3>
4

>  <NdCH2>
0

>  <NssCH2>
5

>  <NtCH>
0

>  <NdsCH>
6

>  <NaaCH>
1

>  <NsssCH>
4

>  <NddC>
0

>  <NtsC>
0

>  <NdssC>
6

>  <NaasC>
2

>  <NaaaC>
0

>  <NssssC>
0

>  <NsNH3>
0

>  <NsNH2>
0

>  <NssNH2>
0

>  <NdNH>
0

>  <NssNH>
1

>  <NaaNH>
0

>  <NtN>
0

>  <NsssNH>
0

>  <NdsN>
0

>  <NaaN>
1

>  <NsssN>
1

>  <NddsN>
0

>  <NaasN>
0

>  <NssssN>
0

>  <NsOH>
1

>  <NdO>
4

>  <NssO>
1

>  <NaaO>
1

>  <NsF>
0

>  <NsSiH3>
0

>  <NssSiH2>
0

>  <NsssSiH>
0

>  <NssssSi>
0

>  <NsPH2>
0

>  <NssPH>
0

>  <NsssP>
0

>  <NdsssP>
0

>  <NsssssP>
0

>  <NsSH>
0

>  <NdS>
0

>  <NssS>
0

>  <NaaS>
0

>  <NdssS>
0

>  <NddssS>
0

>  <NsCl>
0

>  <NsBr>
0

>  <NsI>
0

>  <fragCpx>
194.1

>  <fMF>
0.38

>  <nHBAcc>
8

>  <nHBDon>
2

>  <Kier1>
32.51

>  <Kier2>
15.85

>  <Lipinski>
0

>  <GhoseFilter>
0

>  <FilterItLogS>
-4.03

>  <VMcGowan>
400.83

>  <LabuteASA>
221.66

>  <PEOE_VSA1>
24.48

>  <PEOE_VSA2>
14.38

>  <PEOE_VSA3>
9.78

>  <PEOE_VSA4>
0

>  <PEOE_VSA5>
0

>  <PEOE_VSA6>
56.72

>  <PEOE_VSA7>
25.34

>  <PEOE_VSA8>
25.43

>  <PEOE_VSA9>
12.52

>  <PEOE_VSA10>
23.85

>  <PEOE_VSA11>
5.69

>  <PEOE_VSA12>
11.8

>  <PEOE_VSA13>
5.91

>  <SMR_VSA1>
33.44

>  <SMR_VSA2>
0

>  <SMR_VSA3>
15.2

>  <SMR_VSA4>
11.84

>  <SMR_VSA5>
59.17

>  <SMR_VSA6>
13.09

>  <SMR_VSA7>
65.57

>  <SMR_VSA8>
0

>  <SMR_VSA9>
0

>  <SlogP_VSA1>
5.32

>  <SlogP_VSA2>
63.85

>  <SlogP_VSA3>
25.54

>  <SlogP_VSA4>
11.84

>  <SlogP_VSA5>
56.92

>  <SlogP_VSA6>
58.41

>  <SlogP_VSA7>
0

>  <SlogP_VSA8>
0

>  <SlogP_VSA9>
0

>  <SlogP_VSA10>
0

>  <SlogP_VSA11>
0

>  <EState_VSA1>
24.08

>  <EState_VSA2>
66.74

>  <EState_VSA3>
6.42

>  <EState_VSA4>
11.84

>  <EState_VSA5>
10.98

>  <EState_VSA6>
37.3

>  <EState_VSA7>
20.77

>  <EState_VSA8>
10.3

>  <EState_VSA9>
9.15

>  <EState_VSA10>
24.28

>  <VSA_EState1>
11.14

>  <VSA_EState2>
56.32

>  <VSA_EState3>
12.99

>  <VSA_EState4>
0.81

>  <VSA_EState5>
-2.07

>  <VSA_EState6>
0

>  <VSA_EState7>
9.48

>  <VSA_EState8>
8

>  <VSA_EState9>
0

>  <apol>
79.01

>  <bpol>
45.48

>  <nRing>
3

>  <nHRing>
3

>  <naRing>
1

>  <naHRing>
1

>  <nARing 2>
2

>  <nAHRing 2>
2

>  <nFRing>
1

>  <nFHRing>
1

>  <nFaRing>
0

>  <nFaHRing>
0

>  <nFARing 2>
1

>  <nFAHRing 2>
1

>  <nRot>
1

>  <SLogP>
2.66

>  <SMR>
138.5

>  <TopoPSA(NO)>
139.04

>  <TopoPSA>
139.04

>  <JGI1>
0.23

>  <JGI2>
0.08

>  <JGI3>
0.06

>  <JGI4>
0.03

>  <JGI5>
0.02

>  <Diameter>
14

>  <Radius>
11

>  <TMWC10>
155.88

>  <TSRW10>
89.88

>  <MW>
525.25

>  <AMW>
7.2

>  <WPath>
4665

>  <WPol>
57

>  <Zagreb1>
190

>  <Zagreb2>
217

>  <mZagreb2>
8.42

>  <yes>


>  <nAR-cont>
1

>  <nHA-cont>
0.390024847

>  <MWHBN>
0.436331904

>  <MWHBN-cont>
0.335906426

>  <TPSA-cont>
0

>  <pka_cont>
0.97

>  <yes.1>


>  <BBB_SCORE>
2.378884485

>  <MMFF94 Energy>
50.228

$$$$
Compound 1030
Actelion Java MolfileCreator 2.0

  0  0  0  0  0  0              0 V3000
M  V30 BEGIN CTAB
M  V30 COUNTS 43 46 0 0 0
M  V30 BEGIN ATOM
M  V30 1 Cl 2.0351 -4.8896 -1.1393 0
M  V30 2 C 2.0706 -3.2311 -0.6847 0
M  V30 3 C 0.9368 -2.4383 -0.8636 0
M  V30 4 C 3.2275 -2.6903 -0.1412 0
M  V30 5 C 0.9294 -1.0729 -0.4932 0
M  V30 6 C 3.2522 -1.3443 0.2201 0
M  V30 7 C 2.1184 -0.532 0.0471 0
M  V30 8 C -0.3493 -0.2103 -0.6617 0 CFG=2
M  V30 9 N 2.2174 0.8395 0.3905 0
M  V30 10 O -1.3857 -1.0911 -1.1773 0
M  V30 11 N -0.1192 0.8664 -1.6376 0
M  V30 12 C -0.8658 0.2674 0.7248 0
M  V30 13 C 1.8369 1.8648 -0.4739 0
M  V30 14 C 2.7527 1.1871 1.699 0
M  V30 15 C -2.4996 -0.4767 -1.7026 0
M  V30 16 C -1.1717 1.4539 -2.2971 0
M  V30 17 C 1.2196 1.4348 -1.8048 0
M  V30 18 C -1.06 1.623 1.049 0
M  V30 19 C -1.1762 -0.6898 1.7157 0
M  V30 20 O 1.97 3.0569 -0.1915 0
M  V30 21 C -2.4645 0.7622 -2.199 0
M  V30 22 C -3.7393 -1.3101 -1.6638 0
M  V30 23 O -1.0947 2.4741 -2.9729 0
M  V30 24 C -1.5225 2.004 2.312 0
M  V30 25 C -1.6403 -0.3069 2.976 0
M  V30 26 C -1.8103 1.0408 3.2743 0
M  V30 27 H 0.05 -2.9008 -1.2932 0
M  V30 28 H 4.1141 -3.3038 -0.005 0
M  V30 29 H 4.176 -0.9308 0.6186 0
M  V30 30 H 2.3518 2.1472 2.0382 0
M  V30 31 H 2.4857 0.4232 2.4363 0
M  V30 32 H 3.8408 1.2747 1.6244 0
M  V30 33 H 1.1939 2.3131 -2.4588 0
M  V30 34 H 1.8588 0.7018 -2.3091 0
M  V30 35 H -0.8513 2.4142 0.3317 0
M  V30 36 H -1.0628 -1.7522 1.5061 0
M  V30 37 H -3.3243 1.2615 -2.6258 0
M  V30 38 H -4.6013 -0.7852 -2.0883 0
M  V30 39 H -3.5921 -2.2331 -2.2333 0
M  V30 40 H -3.9826 -1.5768 -0.6302 0
M  V30 41 H -1.6576 3.0588 2.5407 0
M  V30 42 H -1.872 -1.0622 3.7226 0
M  V30 43 H -2.1717 1.3419 4.2541 0
M  V30 END ATOM
M  V30 BEGIN BOND
M  V30 1 1 1 2
M  V30 2 2 2 3
M  V30 3 1 2 4
M  V30 4 1 3 5
M  V30 5 2 4 6
M  V30 6 2 5 7
M  V30 7 1 5 8
M  V30 8 1 7 9
M  V30 9 1 8 10
M  V30 10 1 8 11
M  V30 11 1 8 12
M  V30 12 1 9 13
M  V30 13 1 9 14
M  V30 14 1 10 15
M  V30 15 1 11 16
M  V30 16 1 11 17
M  V30 17 2 12 18
M  V30 18 1 12 19
M  V30 19 2 13 20
M  V30 20 2 15 21
M  V30 21 1 15 22
M  V30 22 2 16 23
M  V30 23 1 18 24
M  V30 24 2 19 25
M  V30 25 2 24 26
M  V30 26 1 6 7
M  V30 27 1 13 17
M  V30 28 1 16 21
M  V30 29 1 25 26
M  V30 30 1 3 27
M  V30 31 1 4 28
M  V30 32 1 6 29
M  V30 33 1 14 30
M  V30 34 1 14 31
M  V30 35 1 14 32
M  V30 36 1 17 33
M  V30 37 1 17 34
M  V30 38 1 18 35
M  V30 39 1 19 36
M  V30 40 1 21 37
M  V30 41 1 22 38
M  V30 42 1 22 39
M  V30 43 1 22 40
M  V30 44 1 24 41
M  V30 45 1 25 42
M  V30 46 1 26 43
M  V30 END BOND
M  V30 BEGIN COLLECTION
M  V30 MDLV30/STERAC1 ATOMS=(1 8)
M  V30 END COLLECTION
M  V30 END CTAB
M  END
>  <Column 1>
1232

>  <level_0>
1375

>  <index>
1375

>  <Unnamed: 0>
1375

>  <NO.>
1387

>  <Name>
ketazolam

>  <IUPAC_name>
11-chloro-2-8-dimethyl-12b-phenyl-6h-[1-3]oxazino[3-2-d][1-4]benzodiazepine-4-7-dione

>  <SMILES>
CC1=CC(=O)N2CC(=O)N(C)c3ccc(Cl)cc3C2(c2ccccc2)O1

>  <CID>
33746

>  <logBB>


>  <BBB+/BBB->
BBB+

>  <Inchi>
InChI=1S/C20H17ClN2O3/c1-13-10-18(24)23-12-19(25)22(2)17-9-8-15(21)11-16(17)20(23-26-13)14-6-4-3-5-7-14/h3-11H-12H2-1-2H3

>  <threshold>
-1

>  <reference>
R1|R13|R19|R6|R14|R23|R27|R27|R30|

>  <group>
B

>  <Class>
1

>  <ABC>
20.71

>  <ABCGG>
16.97

>  <nAcid>
0

>  <nBase>
0

>  <nAromAtom>
12

>  <nAromBond>
12

>  <nAtom>
43

>  <nHeavyAtom>
26

>  <nSpiro>
0

>  <nBridgehead>
0

>  <nHetero>
6

>  <nN>
2

>  <nO>
3

>  <nF>
0

>  <BalabanJ>
1.81

>  <BertzCT>
941.33

>  <nBonds>
46

>  <nBondsO>
29

>  <nBondsS>
31

>  <nBondsD>
3

>  <nBondsT>
0

>  <nBondsA>
12

>  <nBondsM>
15

>  <nBondsKS>
37

>  <nBondsKD>
9

>  <RNCG>
0.22

>  <RPCG>
0.12

>  <FCSP3>
0.2

>  <SZ>
32

>  <Sm>
30.71

>  <Sv>
29.36

>  <Sse>
43.63

>  <Sp>
30.85

>  <Si>
47.89

>  <MZ>
0.74

>  <Mm>
0.71

>  <Mv>
0.68

>  <Mse>
1.01

>  <Mp>
0.72

>  <Mi>
1.11

>  <NsCH3>
2

>  <NdCH2>
0

>  <NssCH2>
1

>  <NtCH>
0

>  <NdsCH>
1

>  <NaaCH>
8

>  <NsssCH>
0

>  <NddC>
0

>  <NtsC>
0

>  <NdssC>
3

>  <NaasC>
4

>  <NaaaC>
0

>  <NssssC>
1

>  <NsNH3>
0

>  <NsNH2>
0

>  <NssNH2>
0

>  <NdNH>
0

>  <NssNH>
0

>  <NaaNH>
0

>  <NtN>
0

>  <NsssNH>
0

>  <NdsN>
0

>  <NaaN>
0

>  <NsssN>
2

>  <NddsN>
0

>  <NaasN>
0

>  <NssssN>
0

>  <NsOH>
0

>  <NdO>
2

>  <NssO>
1

>  <NaaO>
0

>  <NsF>
0

>  <NsSiH3>
0

>  <NssSiH2>
0

>  <NsssSiH>
0

>  <NssssSi>
0

>  <NsPH2>
0

>  <NssPH>
0

>  <NsssP>
0

>  <NdsssP>
0

>  <NsssssP>
0

>  <NsSH>
0

>  <NdS>
0

>  <NssS>
0

>  <NaaS>
0

>  <NdssS>
0

>  <NddssS>
0

>  <NsCl>
1

>  <NsBr>
0

>  <NsI>
0

>  <fragCpx>
191.06

>  <fMF>
0.49

>  <nHBAcc>
3

>  <nHBDon>
0

>  <Kier1>
19.32

>  <Kier2>
7.44

>  <Lipinski>
1

>  <GhoseFilter>
1

>  <FilterItLogS>
-4.63

>  <VMcGowan>
260.33

>  <LabuteASA>
155.97

>  <PEOE_VSA1>
9.64

>  <PEOE_VSA2>
14.49

>  <PEOE_VSA3>
0

>  <PEOE_VSA4>
0

>  <PEOE_VSA5>
0

>  <PEOE_VSA6>
41.93

>  <PEOE_VSA7>
25.12

>  <PEOE_VSA8>
29.27

>  <PEOE_VSA9>
5.69

>  <PEOE_VSA10>
12.3

>  <PEOE_VSA11>
0

>  <PEOE_VSA12>
11.63

>  <PEOE_VSA13>
5.91

>  <SMR_VSA1>
14.33

>  <SMR_VSA2>
0

>  <SMR_VSA3>
4.9

>  <SMR_VSA4>
0

>  <SMR_VSA5>
12.65

>  <SMR_VSA6>
18.49

>  <SMR_VSA7>
76.52

>  <SMR_VSA8>
0

>  <SMR_VSA9>
0

>  <SlogP_VSA1>
4.9

>  <SlogP_VSA2>
30.31

>  <SlogP_VSA3>
20.05

>  <SlogP_VSA4>
0

>  <SlogP_VSA5>
18.05

>  <SlogP_VSA6>
60.37

>  <SlogP_VSA7>
5.02

>  <SlogP_VSA8>
0

>  <SlogP_VSA9>
0

>  <SlogP_VSA10>
5.69

>  <SlogP_VSA11>
0

>  <EState_VSA1>
5.72

>  <EState_VSA2>
18.36

>  <EState_VSA3>
22.03

>  <EState_VSA4>
5.56

>  <EState_VSA5>
10.98

>  <EState_VSA6>
37.07

>  <EState_VSA7>
30.33

>  <EState_VSA8>
0

>  <EState_VSA9>
16.34

>  <EState_VSA10>
9.59

>  <VSA_EState1>
6.32

>  <VSA_EState2>
28.63

>  <VSA_EState3>
0.5

>  <VSA_EState4>
0.82

>  <VSA_EState5>
0.02

>  <VSA_EState6>
14.7

>  <VSA_EState7>
1.41

>  <VSA_EState8>
1.64

>  <VSA_EState9>
1.69

>  <apol>
51.52

>  <bpol>
24.46

>  <nRing>
4

>  <nHRing>
2

>  <naRing>
2

>  <naHRing>
0

>  <nARing 2>
2

>  <nAHRing 2>
2

>  <nFRing>
1

>  <nFHRing>
1

>  <nFaRing>
0

>  <nFaHRing>
0

>  <nFARing 2>
1

>  <nFAHRing 2>
1

>  <nRot>
1

>  <SLogP>
3.28

>  <SMR>
98.64

>  <TopoPSA(NO)>
49.85

>  <TopoPSA>
49.85

>  <JGI1>
0.22

>  <JGI2>
0.1

>  <JGI3>
0.06

>  <JGI4>
0.05

>  <JGI5>
0.03

>  <Diameter>
8

>  <Radius>
4

>  <TMWC10>
133.71

>  <TSRW10>
70.14

>  <MW>
368.09

>  <AMW>
8.56

>  <WPath>
1314

>  <WPol>
55

>  <Zagreb1>
146

>  <Zagreb2>
181

>  <mZagreb2>
5.57

>  <yes>


>  <nAR-cont>
1

>  <nHA-cont>
0.892715677

>  <MWHBN>
0.156366691

>  <MWHBN-cont>
0.947963272

>  <TPSA-cont>
0.652016045

>  <pka_cont>
0.97

>  <yes.1>


>  <BBB_SCORE>
5.103692675

>  <MMFF94 Energy>
28.591

$$$$
Compound 1031
Actelion Java MolfileCreator 2.0

  0  0  0  0  0  0              0 V3000
M  V30 BEGIN CTAB
M  V30 COUNTS 42 46 0 0 0
M  V30 BEGIN ATOM
M  V30 1 O 1.1329 2.1859 -1.052 0
M  V30 2 C 1.7644 1.1559 -0.399 0
M  V30 3 C -0.2583 1.719 -1.1842 0
M  V30 4 C 3.1198 0.949 -0.301 0
M  V30 5 C 0.8862 0.2448 0.14 0
M  V30 6 C -0.4651 1.1681 -2.5879 0
M  V30 7 C -0.5145 0.7051 -0.0484 0
M  V30 8 O 4.0111 1.8389 -0.814 0
M  V30 9 C 3.5767 -0.2183 0.3126 0
M  V30 10 C 1.2861 -0.9592 0.6909 0
M  V30 11 C -0.8341 -0.1064 -2.8199 0
M  V30 12 C -0.2276 2.1362 -3.7124 0
M  V30 13 C -1.3955 -0.5015 -0.3761 0
M  V30 14 C -1.0264 1.3845 1.2379 0
M  V30 15 C 2.6619 -1.182 0.7912 0
M  V30 16 C 0.2302 -1.9813 1.0319 0
M  V30 17 C -1.0785 -1.128 -1.7442 0
M  V30 18 C -1.2547 -1.4963 0.8165 0
M  V30 19 C -1.1852 0.3958 2.4018 0
M  V30 20 N -1.8781 -0.831 1.9907 0
M  V30 21 C -2.0758 -1.7303 3.1241 0
M  V30 22 H -0.9073 2.5963 -1.066 0
M  V30 23 H 3.4721 2.5443 -1.2196 0
M  V30 24 H 4.6451 -0.4015 0.3881 0
M  V30 25 H -0.9426 -0.46 -3.8434 0
M  V30 26 H 0.8136 2.473 -3.7174 0
M  V30 27 H -0.8769 3.0109 -3.603 0
M  V30 28 H -0.4362 1.6896 -4.6903 0
M  V30 29 H -2.442 -0.1619 -0.4323 0
M  V30 30 H -2.0035 1.8418 1.031 0
M  V30 31 H -0.3619 2.1996 1.5527 0
M  V30 32 H 3.0403 -2.1089 1.2152 0
M  V30 33 H 0.3911 -2.8449 0.3731 0
M  V30 34 H 0.3872 -2.3413 2.0533 0
M  V30 35 H -1.9294 -1.7538 -2.041 0
M  V30 36 H -0.2103 -1.7942 -1.7052 0
M  V30 37 H -1.8625 -2.3817 0.5865 0
M  V30 38 H -1.7628 0.8971 3.1888 0
M  V30 39 H -0.205 0.169 2.8389 0
M  V30 40 H -1.1371 -2.0301 3.6004 0
M  V30 41 H -2.6973 -1.2462 3.8859 0
M  V30 42 H -2.6124 -2.6339 2.815 0
M  V30 END ATOM
M  V30 BEGIN BOND
M  V30 1 1 1 2
M  V30 2 1 1 3
M  V30 3 2 2 4
M  V30 4 1 2 5
M  V30 5 1 3 6
M  V30 6 1 3 7
M  V30 7 1 4 8
M  V30 8 1 4 9
M  V30 9 2 5 10
M  V30 10 2 6 11
M  V30 11 1 6 12
M  V30 12 1 7 13
M  V30 13 1 7 14
M  V30 14 2 9 15
M  V30 15 1 10 16
M  V30 16 1 11 17
M  V30 17 1 13 18
M  V30 18 1 14 19
M  V30 19 1 18 20
M  V30 20 1 20 21
M  V30 21 1 5 7
M  V30 22 1 10 15
M  V30 23 1 13 17
M  V30 24 1 16 18
M  V30 25 1 19 20
M  V30 26 1 3 22
M  V30 27 1 8 23
M  V30 28 1 9 24
M  V30 29 1 11 25
M  V30 30 1 12 26
M  V30 31 1 12 27
M  V30 32 1 12 28
M  V30 33 1 13 29
M  V30 34 1 14 30
M  V30 35 1 14 31
M  V30 36 1 15 32
M  V30 37 1 16 33
M  V30 38 1 16 34
M  V30 39 1 17 35
M  V30 40 1 17 36
M  V30 41 1 18 37
M  V30 42 1 19 38
M  V30 43 1 19 39
M  V30 44 1 21 40
M  V30 45 1 21 41
M  V30 46 1 21 42
M  V30 END BOND
M  V30 END CTAB
M  END
>  <Column 1>
1233

>  <level_0>
1376

>  <index>
1376

>  <Unnamed: 0>
1376

>  <NO.>
1388

>  <Name>
morphinan-3-ol;6-7-didehydro-4-5-epoxy-6-17-dimethyl-;(5.alpha.)-

>  <IUPAC_name>
3-7-dimethyl-2-4-4a-5-7a-13-hexahydro-1h-4-12-methanobenzofuro[3-2-e]isoquinolin-9-ol

>  <SMILES>
CC1=CCC2C3Cc4ccc(O)c5c4C2(CCN3C)C1O5

>  <CID>
519207

>  <logBB>


>  <BBB+/BBB->
BBB+

>  <Inchi>
InChI=1S/C18H21NO2/c1-10-3-5-12-13-9-11-4-6-14(20)16-15(11)18(12-17(10)21-16)7-8-19(13)2/h3-4-6-12-13-17-20H-5-7-9H2-1-2H3

>  <threshold>
-1

>  <reference>
R1|R27|R30|

>  <group>
B

>  <Class>
1

>  <ABC>
17.58

>  <ABCGG>
13.51

>  <nAcid>
0

>  <nBase>
1

>  <nAromAtom>
6

>  <nAromBond>
6

>  <nAtom>
42

>  <nHeavyAtom>
21

>  <nSpiro>
1

>  <nBridgehead>
2

>  <nHetero>
3

>  <nN>
1

>  <nO>
2

>  <nF>
0

>  <BalabanJ>
1.65

>  <BertzCT>
680.04

>  <nBonds>
46

>  <nBondsO>
25

>  <nBondsS>
39

>  <nBondsD>
1

>  <nBondsT>
0

>  <nBondsA>
6

>  <nBondsM>
7

>  <nBondsKS>
42

>  <nBondsKD>
4

>  <RNCG>
0.31

>  <RPCG>
0.18

>  <FCSP3>
0.56

>  <SZ>
25.33

>  <Sm>
23.59

>  <Sv>
25.88

>  <Sse>
41.65

>  <Sp>
28

>  <Si>
47.07

>  <MZ>
0.6

>  <Mm>
0.56

>  <Mv>
0.62

>  <Mse>
0.99

>  <Mp>
0.67

>  <Mi>
1.12

>  <NsCH3>
2

>  <NdCH2>
0

>  <NssCH2>
4

>  <NtCH>
0

>  <NdsCH>
1

>  <NaaCH>
2

>  <NsssCH>
3

>  <NddC>
0

>  <NtsC>
0

>  <NdssC>
1

>  <NaasC>
4

>  <NaaaC>
0

>  <NssssC>
1

>  <NsNH3>
0

>  <NsNH2>
0

>  <NssNH2>
0

>  <NdNH>
0

>  <NssNH>
0

>  <NaaNH>
0

>  <NtN>
0

>  <NsssNH>
0

>  <NdsN>
0

>  <NaaN>
0

>  <NsssN>
1

>  <NddsN>
0

>  <NaasN>
0

>  <NssssN>
0

>  <NsOH>
1

>  <NdO>
0

>  <NssO>
1

>  <NaaO>
0

>  <NsF>
0

>  <NsSiH3>
0

>  <NssSiH2>
0

>  <NsssSiH>
0

>  <NssssSi>
0

>  <NsPH2>
0

>  <NssPH>
0

>  <NsssP>
0

>  <NdsssP>
0

>  <NsssssP>
0

>  <NsSH>
0

>  <NdS>
0

>  <NssS>
0

>  <NaaS>
0

>  <NdssS>
0

>  <NddssS>
0

>  <NsCl>
0

>  <NsBr>
0

>  <NsI>
0

>  <fragCpx>
205.03

>  <fMF>
0.43

>  <nHBAcc>
3

>  <nHBDon>
1

>  <Kier1>
13.44

>  <Kier2>
4.3

>  <Lipinski>
1

>  <GhoseFilter>
1

>  <FilterItLogS>
-3.18

>  <VMcGowan>
214.7

>  <LabuteASA>
124.77

>  <PEOE_VSA1>
14.74

>  <PEOE_VSA2>
0

>  <PEOE_VSA3>
0

>  <PEOE_VSA4>
0

>  <PEOE_VSA5>
0

>  <PEOE_VSA6>
12.14

>  <PEOE_VSA7>
62.9

>  <PEOE_VSA8>
17.02

>  <PEOE_VSA9>
0

>  <PEOE_VSA10>
6.1

>  <PEOE_VSA11>
11.5

>  <PEOE_VSA12>
0

>  <PEOE_VSA13>
0

>  <SMR_VSA1>
9.84

>  <SMR_VSA2>
0

>  <SMR_VSA3>
4.9

>  <SMR_VSA4>
5.92

>  <SMR_VSA5>
43.75

>  <SMR_VSA6>
13.59

>  <SMR_VSA7>
34.91

>  <SMR_VSA8>
0

>  <SMR_VSA9>
11.5

>  <SlogP_VSA1>
4.74

>  <SlogP_VSA2>
35.74

>  <SlogP_VSA3>
11.84

>  <SlogP_VSA4>
5.92

>  <SlogP_VSA5>
30.89

>  <SlogP_VSA6>
23.78

>  <SlogP_VSA7>
0

>  <SlogP_VSA8>
0

>  <SlogP_VSA9>
0

>  <SlogP_VSA10>
0

>  <SlogP_VSA11>
11.5

>  <EState_VSA1>
0

>  <EState_VSA2>
11.52

>  <EState_VSA3>
17.71

>  <EState_VSA4>
31.56

>  <EState_VSA5>
16.7

>  <EState_VSA6>
0

>  <EState_VSA7>
6.07

>  <EState_VSA8>
31.01

>  <EState_VSA9>
4.74

>  <EState_VSA10>
5.11

>  <VSA_EState1>
6.32

>  <VSA_EState2>
2.54

>  <VSA_EState3>
10.29

>  <VSA_EState4>
4.19

>  <VSA_EState5>
1.72

>  <VSA_EState6>
4.55

>  <VSA_EState7>
5.89

>  <VSA_EState8>
3.32

>  <VSA_EState9>
2.26

>  <apol>
46.77

>  <bpol>
24.51

>  <nRing>
5

>  <nHRing>
2

>  <naRing>
1

>  <naHRing>
0

>  <nARing 2>
4

>  <nAHRing 2>
2

>  <nFRing>
1

>  <nFHRing>
1

>  <nFaRing>
0

>  <nFaHRing>
0

>  <nFARing 2>
1

>  <nFAHRing 2>
1

>  <nRot>
0

>  <SLogP>
2.62

>  <SMR>
80.8

>  <TopoPSA(NO)>
32.7

>  <TopoPSA>
32.7

>  <JGI1>
0.2

>  <JGI2>
0.1

>  <JGI3>
0.05

>  <JGI4>
0.06

>  <JGI5>
0.03

>  <Diameter>
8

>  <Radius>
4

>  <TMWC10>
125.38

>  <TSRW10>
71.52

>  <MW>
283.16

>  <AMW>
6.74

>  <WPath>
712

>  <WPol>
49

>  <Zagreb1>
132

>  <Zagreb2>
173

>  <mZagreb2>
4.29

>  <yes>


>  <nAR-cont>
0.199399

>  <nHA-cont>
0.994529749

>  <MWHBN>
0.237708132

>  <MWHBN-cont>
0.977981183

>  <TPSA-cont>
0.771733695

>  <pka_cont>
0.97

>  <yes.1>


>  <BBB_SCORE>
4.689367913

>  <MMFF94 Energy>
66.839

$$$$
Compound 1032
Actelion Java MolfileCreator 2.0

  0  0  0  0  0  0              0 V3000
M  V30 BEGIN CTAB
M  V30 COUNTS 88 94 0 0 0
M  V30 BEGIN ATOM
M  V30 1 S 6.6029 -3.9904 8.2383 0
M  V30 2 O 7.4029 -3.2537 7.2842 0
M  V30 3 O 6.8505 -5.3803 8.5421 0
M  V30 4 O 6.7232 -3.1512 9.6114 0
M  V30 5 C 4.9038 -3.8404 7.7653 0
M  V30 6 C 4.5742 -3.7273 6.4115 0
M  V30 7 C 3.9161 -3.8041 8.7532 0
M  V30 8 C 3.2315 -3.5867 6.0389 0
M  V30 9 C 2.5801 -3.6634 8.3808 0
M  V30 10 C 2.9129 -3.4743 4.5899 0
M  V30 11 C 2.237 -3.5551 7.0297 0
M  V30 12 O 3.7528 -3.4989 3.7047 0
M  V30 13 O 1.5807 -3.3372 4.4021 0
M  V30 14 C 1.1921 -3.2389 3.0328 0
M  V30 15 C -0.2761 -2.8495 2.9132 0
M  V30 16 O -0.9956 -2.7477 3.9107 0
M  V30 17 C -0.796 -2.5447 1.48 0 CFG=2
M  V30 18 O -0.137 -3.3734 0.518 0
M  V30 19 C -0.7132 -1.028 1.0788 0 CFG=2
M  V30 20 C -2.3358 -2.8353 1.3711 0 CFG=1
M  V30 21 C -1.6766 -1.0298 -0.1374 0 CFG=1
M  V30 22 C 0.6564 -0.5059 0.5849 0
M  V30 23 C -1.2147 -0.1402 2.2538 0
M  V30 24 C -2.899 -1.7992 0.3654 0
M  V30 25 C -2.6847 -4.2674 0.9716 0
M  V30 26 C -1.8792 0.3678 -0.751 0 CFG=2
M  V30 27 C 0.5777 0.8559 -0.1449 0 CFG=1
M  V30 28 C -2.8914 0.3629 -1.868 0
M  V30 29 C -0.5005 0.8725 -1.2624 0 CFG=2
M  V30 30 O 0.3678 1.8988 0.7914 0
M  V30 31 C -2.7781 1.0441 -3.0238 0
M  V30 32 C -0.6473 2.2032 -2.0848 0 CFG=2
M  V30 33 C -1.6305 1.9293 -3.29 0
M  V30 34 C -3.8816 0.9356 -4.0492 0
M  V30 35 C 0.7903 2.6569 -2.5588 0
M  V30 36 C -1.2654 3.3709 -1.2713 0
M  V30 37 C -1.451 2.5134 -4.5005 0
M  V30 38 C 0.7293 3.4629 -3.7982 0
M  V30 39 C -0.3335 3.3613 -4.6599 0
M  V30 40 C 1.6068 4.3652 -4.4078 0
M  V30 41 N -0.0861 4.2258 -5.7085 0
M  V30 42 N 1.1409 4.811 -5.5781 0
M  V30 43 C -0.9086 4.5546 -6.8113 0
M  V30 44 C -2.2649 4.8472 -6.6236 0
M  V30 45 C -0.3396 4.6201 -8.0886 0
M  V30 46 C -3.0569 5.1749 -7.7251 0
M  V30 47 C -1.1391 4.948 -9.1839 0
M  V30 48 C -2.4959 5.2205 -9.0024 0
M  V30 49 H 7.4907 -2.5474 9.5177 0
M  V30 50 H 5.3547 -3.7509 5.6522 0
M  V30 51 H 4.1781 -3.8924 9.8059 0
M  V30 52 H 1.8016 -3.6397 9.1409 0
M  V30 53 H 1.1862 -3.4475 6.7645 0
M  V30 54 H 1.3298 -4.2139 2.5543 0
M  V30 55 H 1.7879 -2.4706 2.5307 0
M  V30 56 H 0.7862 -3.1007 0.4002 0
M  V30 57 H -2.8323 -2.6486 2.3317 0
M  V30 58 H -1.237 -1.6553 -0.9318 0
M  V30 59 H 1.3464 -0.4282 1.4332 0
M  V30 60 H 1.0995 -1.214 -0.1233 0
M  V30 61 H -1.4325 0.8871 1.9583 0
M  V30 62 H -0.4593 -0.0897 3.0465 0
M  V30 63 H -2.1349 -0.5169 2.71 0
M  V30 64 H -3.602 -1.1289 0.8742 0
M  V30 65 H -3.4399 -2.274 -0.4601 0
M  V30 66 H -2.3367 -4.5065 -0.0385 0
M  V30 67 H -3.7703 -4.4128 0.9877 0
M  V30 68 H -2.24 -4.9841 1.6694 0
M  V30 69 H -2.2736 1.0411 0.0168 0
M  V30 70 H 1.5616 1.0371 -0.5915 0
M  V30 71 H -3.7919 -0.2231 -1.6961 0
M  V30 72 H -0.147 0.1192 -1.9882 0
M  V30 73 H 1.1188 1.911 1.4101 0
M  V30 74 H -4.2978 1.9226 -4.2794 0
M  V30 75 H -3.5094 0.4791 -4.9726 0
M  V30 76 H -4.7128 0.3137 -3.6978 0
M  V30 77 H 1.3061 3.2132 -1.7672 0
M  V30 78 H 1.4025 1.7736 -2.7848 0
M  V30 79 H -1.4252 4.2528 -1.9039 0
M  V30 80 H -0.6149 3.6941 -0.4546 0
M  V30 81 H -2.2388 3.1168 -0.8408 0
M  V30 82 H -2.1173 2.3412 -5.338 0
M  V30 83 H 2.5744 4.7094 -4.0657 0
M  V30 84 H -2.7106 4.8468 -5.6319 0
M  V30 85 H 0.7196 4.4189 -8.2349 0
M  V30 86 H -4.1103 5.406 -7.5874 0
M  V30 87 H -0.7021 4.9978 -10.1778 0
M  V30 88 H -3.1147 5.481 -9.8576 0
M  V30 END ATOM
M  V30 BEGIN BOND
M  V30 1 2 1 2
M  V30 2 2 1 3
M  V30 3 1 1 4
M  V30 4 1 1 5
M  V30 5 2 5 6
M  V30 6 1 5 7
M  V30 7 1 6 8
M  V30 8 2 7 9
M  V30 9 1 8 10
M  V30 10 2 8 11
M  V30 11 2 10 12
M  V30 12 1 10 13
M  V30 13 1 13 14
M  V30 14 1 14 15
M  V30 15 2 15 16
M  V30 16 1 15 17
M  V30 17 1 17 18
M  V30 18 1 17 19
M  V30 19 1 17 20
M  V30 20 1 19 21
M  V30 21 1 19 22
M  V30 22 1 19 23
M  V30 23 1 20 24
M  V30 24 1 20 25
M  V30 25 1 21 26
M  V30 26 1 22 27
M  V30 27 1 26 28
M  V30 28 1 26 29
M  V30 29 1 27 30
M  V30 30 2 28 31
M  V30 31 1 29 32
M  V30 32 1 31 33
M  V30 33 1 31 34
M  V30 34 1 32 35
M  V30 35 1 32 36
M  V30 36 2 33 37
M  V30 37 1 35 38
M  V30 38 1 37 39
M  V30 39 1 38 40
M  V30 40 1 39 41
M  V30 41 2 40 42
M  V30 42 1 41 43
M  V30 43 2 43 44
M  V30 44 1 43 45
M  V30 45 1 44 46
M  V30 46 2 45 47
M  V30 47 2 46 48
M  V30 48 1 9 11
M  V30 49 1 21 24
M  V30 50 1 27 29
M  V30 51 1 32 33
M  V30 52 2 38 39
M  V30 53 1 41 42
M  V30 54 1 47 48
M  V30 55 1 4 49
M  V30 56 1 6 50
M  V30 57 1 7 51
M  V30 58 1 9 52
M  V30 59 1 11 53
M  V30 60 1 14 54
M  V30 61 1 14 55
M  V30 62 1 18 56
M  V30 63 1 20 57
M  V30 64 1 21 58
M  V30 65 1 22 59
M  V30 66 1 22 60
M  V30 67 1 23 61
M  V30 68 1 23 62
M  V30 69 1 23 63
M  V30 70 1 24 64
M  V30 71 1 24 65
M  V30 72 1 25 66
M  V30 73 1 25 67
M  V30 74 1 25 68
M  V30 75 1 26 69
M  V30 76 1 27 70
M  V30 77 1 28 71
M  V30 78 1 29 72
M  V30 79 1 30 73
M  V30 80 1 34 74
M  V30 81 1 34 75
M  V30 82 1 34 76
M  V30 83 1 35 77
M  V30 84 1 35 78
M  V30 85 1 36 79
M  V30 86 1 36 80
M  V30 87 1 36 81
M  V30 88 1 37 82
M  V30 89 1 40 83
M  V30 90 1 44 84
M  V30 91 1 45 85
M  V30 92 1 46 86
M  V30 93 1 47 87
M  V30 94 1 48 88
M  V30 END BOND
M  V30 BEGIN COLLECTION
M  V30 MDLV30/STEABS ATOMS=(8 17 19 20 21 26 27 29 32)
M  V30 END COLLECTION
M  V30 END CTAB
M  END
>  <Column 1>
1234

>  <level_0>
1377

>  <index>
1377

>  <Unnamed: 0>
1377

>  <NO.>
1389

>  <Name>
cortisuzol

>  <IUPAC_name>
3-[2-[(1s-2r-13s-14s-16r-17r-18s-20s)-17-20-dihydroxy-2-11-16-18-tetramethyl-7-phenyl-6-7-diazapentacyclo[11.7.0.02-10.04-8.014-18]icosa-4(8)-5-9-11-tetraen-17-yl]-2-oxoethoxy]carbonylbenzenesulfonic acid

>  <SMILES>
CC1=C[C@H]2[C@@H]3C[C@@H](C)[C@](O)(C(=O)COC(=O)c4cccc(S(=O)(=O)O)c4)[C@@]3(C)C[C@H](O)[C@@H]2[C@@]2(C)Cc3cnn(-c4ccccc4)c3C=C12

>  <CID>
3037936

>  <logBB>


>  <BBB+/BBB->
BBB+

>  <Inchi>
InChI=1S/C37H40N2O8S/c1-21-13-27-29-14-22(2)37(43-32(41)20-47-34(42)23-9-8-12-26(15-23)48(44-45)46)36(29-4)18-31(40)33(27)35(3)17-24-19-38-39(30(24)16-28(21)35)25-10-6-5-7-11-25/h5-13-15-16-19-22-27-29-31-33-40-43H-14-17-18-20H2-1-4H3-(H-44-45-46)/t22--27+-29+-31+-33--35+-36+-37+/m1/s1

>  <threshold>
-1

>  <reference>
R1|R27|R30|

>  <group>
B

>  <Class>
1

>  <ABC>
38.9

>  <ABCGG>
28.49

>  <nAcid>
1

>  <nBase>
0

>  <nAromAtom>
17

>  <nAromBond>
17

>  <nAtom>
88

>  <nHeavyAtom>
48

>  <nSpiro>
0

>  <nBridgehead>
0

>  <nHetero>
11

>  <nN>
2

>  <nO>
8

>  <nF>
0

>  <BalabanJ>
1.06

>  <BertzCT>
2001.3

>  <nBonds>
94

>  <nBondsO>
54

>  <nBondsS>
71

>  <nBondsD>
6

>  <nBondsT>
0

>  <nBondsA>
17

>  <nBondsM>
23

>  <nBondsKS>
80

>  <nBondsKD>
14

>  <RNCG>
0.12

>  <RPCG>
0.09

>  <FCSP3>
0.43

>  <SZ>
59.33

>  <Sm>
56.01

>  <Sv>
56.26

>  <Sse>
88.81

>  <Sp>
59.87

>  <Si>
98.48

>  <MZ>
0.67

>  <Mm>
0.64

>  <Mv>
0.64

>  <Mse>
1.01

>  <Mp>
0.68

>  <Mi>
1.12

>  <NsCH3>
4

>  <NdCH2>
0

>  <NssCH2>
4

>  <NtCH>
0

>  <NdsCH>
2

>  <NaaCH>
10

>  <NsssCH>
5

>  <NddC>
0

>  <NtsC>
0

>  <NdssC>
4

>  <NaasC>
5

>  <NaaaC>
0

>  <NssssC>
3

>  <NsNH3>
0

>  <NsNH2>
0

>  <NssNH2>
0

>  <NdNH>
0

>  <NssNH>
0

>  <NaaNH>
0

>  <NtN>
0

>  <NsssNH>
0

>  <NdsN>
0

>  <NaaN>
1

>  <NsssN>
0

>  <NddsN>
0

>  <NaasN>
1

>  <NssssN>
0

>  <NsOH>
3

>  <NdO>
4

>  <NssO>
1

>  <NaaO>
0

>  <NsF>
0

>  <NsSiH3>
0

>  <NssSiH2>
0

>  <NsssSiH>
0

>  <NssssSi>
0

>  <NsPH2>
0

>  <NssPH>
0

>  <NsssP>
0

>  <NdsssP>
0

>  <NsssssP>
0

>  <NsSH>
0

>  <NdS>
0

>  <NssS>
0

>  <NaaS>
0

>  <NdssS>
0

>  <NddssS>
1

>  <NsCl>
0

>  <NsBr>
0

>  <NsI>
0

>  <fragCpx>
660.11

>  <fMF>
0.41

>  <nHBAcc>
9

>  <nHBDon>
3

>  <Kier1>
36.36

>  <Kier2>
13.14

>  <Lipinski>
0

>  <GhoseFilter>
0

>  <FilterItLogS>
-5.79

>  <VMcGowan>
487.84

>  <LabuteASA>
279.43

>  <PEOE_VSA1>
14.95

>  <PEOE_VSA2>
9.35

>  <PEOE_VSA3>
9.48

>  <PEOE_VSA4>
13.52

>  <PEOE_VSA5>
0

>  <PEOE_VSA6>
56.69

>  <PEOE_VSA7>
91.48

>  <PEOE_VSA8>
16.75

>  <PEOE_VSA9>
34.14

>  <PEOE_VSA10>
5.6

>  <PEOE_VSA11>
6.61

>  <PEOE_VSA12>
5.78

>  <PEOE_VSA13>
10.12

>  <SMR_VSA1>
37.51

>  <SMR_VSA2>
0

>  <SMR_VSA3>
9.78

>  <SMR_VSA4>
34.5

>  <SMR_VSA5>
63.56

>  <SMR_VSA6>
6.61

>  <SMR_VSA7>
94.84

>  <SMR_VSA8>
0

>  <SMR_VSA9>
5.69

>  <SlogP_VSA1>
0

>  <SlogP_VSA2>
63.03

>  <SlogP_VSA3>
26.07

>  <SlogP_VSA4>
34.5

>  <SlogP_VSA5>
62.15

>  <SlogP_VSA6>
82.91

>  <SlogP_VSA7>
0

>  <SlogP_VSA8>
11.76

>  <SlogP_VSA9>
0

>  <SlogP_VSA10>
0

>  <SlogP_VSA11>
0

>  <EState_VSA1>
61.83

>  <EState_VSA2>
29.74

>  <EState_VSA3>
12.84

>  <EState_VSA4>
34.65

>  <EState_VSA5>
17.71

>  <EState_VSA6>
0

>  <EState_VSA7>
55.06

>  <EState_VSA8>
26

>  <EState_VSA9>
9.84

>  <EState_VSA10>
32.77

>  <VSA_EState1>
39.67

>  <VSA_EState2>
26.24

>  <VSA_EState3>
29.09

>  <VSA_EState4>
1.94

>  <VSA_EState5>
-2.49

>  <VSA_EState6>
14.68

>  <VSA_EState7>
6.96

>  <VSA_EState8>
7.29

>  <VSA_EState9>
-4.55

>  <apol>
99.98

>  <bpol>
51.97

>  <nRing>
7

>  <nHRing>
1

>  <naRing>
3

>  <naHRing>
1

>  <nARing 2>
4

>  <nAHRing 2>
0

>  <nFRing>
1

>  <nFHRing>
1

>  <nFaRing>
0

>  <nFaHRing>
0

>  <nFARing 2>
1

>  <nFAHRing 2>
1

>  <nRot>
6

>  <SLogP>
4.84

>  <SMR>
176.59

>  <TopoPSA(NO)>
156.02

>  <TopoPSA>
164.4

>  <JGI1>
0.26

>  <JGI2>
0.12

>  <JGI3>
0.07

>  <JGI4>
0.05

>  <JGI5>
0.04

>  <Diameter>
22

>  <Radius>
11

>  <TMWC10>
187.06

>  <TSRW10>
103.85

>  <MW>
672.25

>  <AMW>
7.64

>  <WPath>
8906

>  <WPol>
102

>  <Zagreb1>
282

>  <Zagreb2>
355

>  <mZagreb2>
9.87

>  <yes>


>  <nAR-cont>
0.199399

>  <nHA-cont>
0

>  <MWHBN>
0.462823967

>  <MWHBN-cont>
0

>  <TPSA-cont>
0

>  <pka_cont>
0.97

>  <yes.1>


>  <BBB_SCORE>
0.684399

>  <MMFF94 Energy>
172.28

$$$$
Compound 1033
Actelion Java MolfileCreator 2.0

  0  0  0  0  0  0              0 V3000
M  V30 BEGIN CTAB
M  V30 COUNTS 23 24 0 0 0
M  V30 BEGIN ATOM
M  V30 1 O -1.112 0.3176 2.4636 0
M  V30 2 C -1.0814 -0.3065 1.4153 0
M  V30 3 N -0.288 -0.1513 0.2664 0
M  V30 4 C -1.966 -1.4772 1.1061 0
M  V30 5 N -0.5618 -1.0769 -0.7266 0
M  V30 6 C 0.7218 0.8158 0.0304 0
M  V30 7 C -1.508 -1.8339 -0.268 0
M  V30 8 C 1.4209 0.8228 -1.1883 0
M  V30 9 C 1.0581 1.7858 0.984 0
M  V30 10 C -2.1052 -2.9683 -1.0248 0
M  V30 11 C 2.421 1.766 -1.4453 0
M  V30 12 C 2.059 2.7308 0.7285 0
M  V30 13 C 2.7398 2.7207 -0.4852 0
M  V30 14 H -3.0164 -1.1803 1.0973 0
M  V30 15 H -1.7805 -2.2994 1.7997 0
M  V30 16 H 1.1934 0.0888 -1.9577 0
M  V30 17 H 0.5559 1.8348 1.9456 0
M  V30 18 H -3.1763 -2.7928 -1.1552 0
M  V30 19 H -1.9593 -3.8948 -0.4635 0
M  V30 20 H -1.6334 -3.0632 -2.0062 0
M  V30 21 H 2.9474 1.7507 -2.3959 0
M  V30 22 H 2.3031 3.4742 1.4834 0
M  V30 23 H 3.5164 3.4551 -0.6815 0
M  V30 END ATOM
M  V30 BEGIN BOND
M  V30 1 2 1 2
M  V30 2 1 2 3
M  V30 3 1 2 4
M  V30 4 1 3 5
M  V30 5 1 3 6
M  V30 6 1 4 7
M  V30 7 2 6 8
M  V30 8 1 6 9
M  V30 9 1 7 10
M  V30 10 1 8 11
M  V30 11 2 9 12
M  V30 12 2 11 13
M  V30 13 2 5 7
M  V30 14 1 12 13
M  V30 15 1 4 14
M  V30 16 1 4 15
M  V30 17 1 8 16
M  V30 18 1 9 17
M  V30 19 1 10 18
M  V30 20 1 10 19
M  V30 21 1 10 20
M  V30 22 1 11 21
M  V30 23 1 12 22
M  V30 24 1 13 23
M  V30 END BOND
M  V30 END CTAB
M  END
>  <Column 1>
1235

>  <level_0>
1378

>  <index>
1378

>  <Unnamed: 0>
1378

>  <NO.>
1390

>  <Name>
edaravone

>  <IUPAC_name>
5-methyl-2-phenyl-4h-pyrazol-3-one

>  <SMILES>
CC1=NN(c2ccccc2)C(=O)C1

>  <CID>
4021

>  <logBB>


>  <BBB+/BBB->
BBB+

>  <Inchi>
InChI=1S/C10H10N2O/c1-8-7-10(13)12(11-8)9-5-3-2-4-6-9/h2-6H-7H2-1H3

>  <threshold>
-1

>  <reference>
R1|R19|R6|R24|R27|R27|R27|R30|R30|

>  <group>
B

>  <Class>
1

>  <ABC>
10.04

>  <ABCGG>
9.17

>  <nAcid>
0

>  <nBase>
0

>  <nAromAtom>
6

>  <nAromBond>
6

>  <nAtom>
23

>  <nHeavyAtom>
13

>  <nSpiro>
0

>  <nBridgehead>
0

>  <nHetero>
3

>  <nN>
2

>  <nO>
1

>  <nF>
0

>  <BalabanJ>
1.91

>  <BertzCT>
356.45

>  <nBonds>
24

>  <nBondsO>
14

>  <nBondsS>
16

>  <nBondsD>
2

>  <nBondsT>
0

>  <nBondsA>
6

>  <nBondsM>
8

>  <nBondsKS>
19

>  <nBondsKD>
5

>  <RNCG>
0.29

>  <RPCG>
0.27

>  <FCSP3>
0.2

>  <SZ>
15.33

>  <Sm>
14.5

>  <Sv>
14.94

>  <Sse>
23.1

>  <Sp>
15.79

>  <Si>
25.87

>  <MZ>
0.67

>  <Mm>
0.63

>  <Mv>
0.65

>  <Mse>
1

>  <Mp>
0.69

>  <Mi>
1.12

>  <NsCH3>
1

>  <NdCH2>
0

>  <NssCH2>
1

>  <NtCH>
0

>  <NdsCH>
0

>  <NaaCH>
5

>  <NsssCH>
0

>  <NddC>
0

>  <NtsC>
0

>  <NdssC>
2

>  <NaasC>
1

>  <NaaaC>
0

>  <NssssC>
0

>  <NsNH3>
0

>  <NsNH2>
0

>  <NssNH2>
0

>  <NdNH>
0

>  <NssNH>
0

>  <NaaNH>
0

>  <NtN>
0

>  <NsssNH>
0

>  <NdsN>
1

>  <NaaN>
0

>  <NsssN>
1

>  <NddsN>
0

>  <NaasN>
0

>  <NssssN>
0

>  <NsOH>
0

>  <NdO>
1

>  <NssO>
0

>  <NaaO>
0

>  <NsF>
0

>  <NsSiH3>
0

>  <NssSiH2>
0

>  <NsssSiH>
0

>  <NssssSi>
0

>  <NsPH2>
0

>  <NssPH>
0

>  <NsssP>
0

>  <NdsssP>
0

>  <NsssssP>
0

>  <NsSH>
0

>  <NdS>
0

>  <NssS>
0

>  <NaaS>
0

>  <NdssS>
0

>  <NddssS>
0

>  <NsCl>
0

>  <NsBr>
0

>  <NsI>
0

>  <fragCpx>
40.03

>  <fMF>
0.48

>  <nHBAcc>
2

>  <nHBDon>
0

>  <Kier1>
9.55

>  <Kier2>
4.02

>  <Lipinski>
1

>  <GhoseFilter>
1

>  <FilterItLogS>
-2.11

>  <VMcGowan>
134.37

>  <LabuteASA>
76.67

>  <PEOE_VSA1>
0

>  <PEOE_VSA2>
4.79

>  <PEOE_VSA3>
5.01

>  <PEOE_VSA4>
5.1

>  <PEOE_VSA5>
0

>  <PEOE_VSA6>
18.2

>  <PEOE_VSA7>
19.06

>  <PEOE_VSA8>
5.71

>  <PEOE_VSA9>
12.11

>  <PEOE_VSA10>
0

>  <PEOE_VSA11>
0

>  <PEOE_VSA12>
0

>  <PEOE_VSA13>
5.91

>  <SMR_VSA1>
4.79

>  <SMR_VSA2>
0

>  <SMR_VSA3>
0

>  <SMR_VSA4>
5.1

>  <SMR_VSA5>
13.34

>  <SMR_VSA6>
5.01

>  <SMR_VSA7>
30.33

>  <SMR_VSA8>
0

>  <SMR_VSA9>
0

>  <SlogP_VSA1>
5.01

>  <SlogP_VSA2>
11.62

>  <SlogP_VSA3>
4.79

>  <SlogP_VSA4>
0

>  <SlogP_VSA5>
13.34

>  <SlogP_VSA6>
35.43

>  <SlogP_VSA7>
0

>  <SlogP_VSA8>
0

>  <SlogP_VSA9>
0

>  <SlogP_VSA10>
5.69

>  <SlogP_VSA11>
0

>  <EState_VSA1>
0

>  <EState_VSA2>
5.91

>  <EState_VSA3>
6.42

>  <EState_VSA4>
11.4

>  <EState_VSA5>
5.01

>  <EState_VSA6>
0

>  <EState_VSA7>
37.26

>  <EState_VSA8>
5.1

>  <EState_VSA9>
0

>  <EState_VSA10>
4.79

>  <VSA_EState1>
0

>  <VSA_EState2>
11.4

>  <VSA_EState3>
5.59

>  <VSA_EState4>
1.71

>  <VSA_EState5>
0.05

>  <VSA_EState6>
9.46

>  <VSA_EState7>
0.44

>  <VSA_EState8>
1.86

>  <VSA_EState9>
0

>  <apol>
26.37

>  <bpol>
12.61

>  <nRing>
2

>  <nHRing>
1

>  <naRing>
1

>  <naHRing>
0

>  <nARing 2>
1

>  <nAHRing 2>
1

>  <nFRing>
0

>  <nFHRing>
0

>  <nFaRing>
0

>  <nFaHRing>
0

>  <nFARing 2>
0

>  <nFAHRing 2>
0

>  <nRot>
1

>  <SLogP>
1.8

>  <SMR>
51.65

>  <TopoPSA(NO)>
32.67

>  <TopoPSA>
32.67

>  <JGI1>
0.18

>  <JGI2>
0.07

>  <JGI3>
0.07

>  <JGI4>
0.03

>  <JGI5>
0.03

>  <Diameter>
7

>  <Radius>
4

>  <TMWC10>
95.54

>  <TSRW10>
58.06

>  <MW>
174.08

>  <AMW>
7.57

>  <WPath>
239

>  <WPol>
16

>  <Zagreb1>
66

>  <Zagreb2>
76

>  <mZagreb2>
2.89

>  <yes>


>  <nAR-cont>
0.816016

>  <nHA-cont>
0.841215992

>  <MWHBN>
0.151584766

>  <MWHBN-cont>
0.936561899

>  <TPSA-cont>
0.771943113

>  <pka_cont>
0.97

>  <yes.1>


>  <BBB_SCORE>
5.090961066

>  <MMFF94 Energy>
41.945

$$$$
Compound 1034
Actelion Java MolfileCreator 2.0

  0  0  0  0  0  0              0 V3000
M  V30 BEGIN CTAB
M  V30 COUNTS 37 39 0 0 0
M  V30 BEGIN ATOM
M  V30 1 N -0.6352 0.9529 -2.2247 0
M  V30 2 C -1.333 -0.0985 -1.9456 0
M  V30 3 C 0.4594 1.4312 -1.5034 0
M  V30 4 N -1.194 -1.0562 -0.9427 0
M  V30 5 C -2.5172 -0.269 -2.9008 0
M  V30 6 C 1.4554 0.626 -0.9455 0
M  V30 7 C 0.5915 2.823 -1.4113 0
M  V30 8 C 0.0812 -1.3884 -0.2814 0 CFG=1
M  V30 9 C -2.3043 -1.9434 -0.5905 0
M  V30 10 C 2.554 1.2167 -0.2953 0
M  V30 11 C 1.3306 -0.8681 -1.0094 0
M  V30 12 C 1.6788 3.4097 -0.762 0
M  V30 13 C 0.0707 -1.0544 1.2098 0
M  V30 14 C 2.6625 2.6032 -0.2024 0
M  V30 15 C 0.7428 -1.8935 2.1156 0
M  V30 16 C -0.5717 0.0892 1.7111 0
M  V30 17 C 0.7609 -1.6015 3.4812 0
M  V30 18 C -0.5511 0.3806 3.0762 0
M  V30 19 C 0.1133 -0.4652 3.9607 0
M  V30 20 H -2.5515 -1.2942 -3.2789 0
M  V30 21 H -2.4256 0.4066 -3.7573 0
M  V30 22 H -3.4481 -0.0356 -2.3765 0
M  V30 23 H -0.1696 3.4554 -1.8618 0
M  V30 24 H 0.1616 -2.4842 -0.3486 0
M  V30 25 H -2.4541 -2.6943 -1.3728 0
M  V30 26 H -3.2294 -1.3733 -0.4566 0
M  V30 27 H -2.1269 -2.4802 0.3478 0
M  V30 28 H 3.326 0.5965 0.1538 0
M  V30 29 H 1.3212 -1.1797 -2.0622 0
M  V30 30 H 2.2234 -1.3314 -0.5689 0
M  V30 31 H 1.7553 4.4914 -0.7012 0
M  V30 32 H 3.512 3.0509 0.3058 0
M  V30 33 H 1.2601 -2.7829 1.7628 0
M  V30 34 H -1.0871 0.7688 1.0344 0
M  V30 35 H 1.2836 -2.2589 4.1711 0
M  V30 36 H -1.0499 1.2731 3.4449 0
M  V30 37 H 0.1303 -0.2352 5.0228 0
M  V30 END ATOM
M  V30 BEGIN BOND
M  V30 1 2 1 2
M  V30 2 1 1 3
M  V30 3 1 2 4
M  V30 4 1 2 5
M  V30 5 2 3 6
M  V30 6 1 3 7
M  V30 7 1 4 8
M  V30 8 1 4 9
M  V30 9 1 6 10
M  V30 10 1 6 11
M  V30 11 2 7 12
M  V30 12 1 8 13
M  V30 13 2 10 14
M  V30 14 2 13 15
M  V30 15 1 13 16
M  V30 16 1 15 17
M  V30 17 2 16 18
M  V30 18 2 17 19
M  V30 19 1 8 11
M  V30 20 1 12 14
M  V30 21 1 18 19
M  V30 22 1 5 20
M  V30 23 1 5 21
M  V30 24 1 5 22
M  V30 25 1 7 23
M  V30 26 1 8 24
M  V30 27 1 9 25
M  V30 28 1 9 26
M  V30 29 1 9 27
M  V30 30 1 10 28
M  V30 31 1 11 29
M  V30 32 1 11 30
M  V30 33 1 12 31
M  V30 34 1 14 32
M  V30 35 1 15 33
M  V30 36 1 16 34
M  V30 37 1 17 35
M  V30 38 1 18 36
M  V30 39 1 19 37
M  V30 END BOND
M  V30 BEGIN COLLECTION
M  V30 MDLV30/STERAC1 ATOMS=(1 8)
M  V30 END COLLECTION
M  V30 END CTAB
M  END
>  <Column 1>
1236

>  <level_0>
1379

>  <index>
1379

>  <Unnamed: 0>
1379

>  <NO.>
1391

>  <Name>
dazepinil

>  <IUPAC_name>
2-3-dimethyl-4-phenyl-4-5-dihydro-1-3-benzodiazepine

>  <SMILES>
CC1=Nc2ccccc2CC(c2ccccc2)N1C

>  <CID>
53432

>  <logBB>


>  <BBB+/BBB->
BBB+

>  <Inchi>
InChI=1S/C17H18N2/c1-13-18-16-11-7-6-10-15(16)12-17(19(13)2)14-8-4-3-5-9-14/h3-11-17H-12H2-1-2H3

>  <threshold>
-1

>  <reference>
R1|R19|R6|R27|R27|R30|

>  <group>
B

>  <Class>
1

>  <ABC>
14.91

>  <ABCGG>
12.21

>  <nAcid>
0

>  <nBase>
2

>  <nAromAtom>
12

>  <nAromBond>
12

>  <nAtom>
37

>  <nHeavyAtom>
19

>  <nSpiro>
0

>  <nBridgehead>
0

>  <nHetero>
2

>  <nN>
2

>  <nO>
0

>  <nF>
0

>  <BalabanJ>
1.73

>  <BertzCT>
601.67

>  <nBonds>
39

>  <nBondsO>
21

>  <nBondsS>
26

>  <nBondsD>
1

>  <nBondsT>
0

>  <nBondsA>
12

>  <nBondsM>
13

>  <nBondsKS>
32

>  <nBondsKD>
7

>  <RNCG>
0.31

>  <RPCG>
0.09

>  <FCSP3>
0.24

>  <SZ>
22.33

>  <Sm>
20.84

>  <Sv>
23.39

>  <Sse>
36.32

>  <Sp>
25.5

>  <Si>
41.32

>  <MZ>
0.6

>  <Mm>
0.56

>  <Mv>
0.63

>  <Mse>
0.98

>  <Mp>
0.69

>  <Mi>
1.12

>  <NsCH3>
2

>  <NdCH2>
0

>  <NssCH2>
1

>  <NtCH>
0

>  <NdsCH>
0

>  <NaaCH>
9

>  <NsssCH>
1

>  <NddC>
0

>  <NtsC>
0

>  <NdssC>
1

>  <NaasC>
3

>  <NaaaC>
0

>  <NssssC>
0

>  <NsNH3>
0

>  <NsNH2>
0

>  <NssNH2>
0

>  <NdNH>
0

>  <NssNH>
0

>  <NaaNH>
0

>  <NtN>
0

>  <NsssNH>
0

>  <NdsN>
1

>  <NaaN>
0

>  <NsssN>
1

>  <NddsN>
0

>  <NaasN>
0

>  <NssssN>
0

>  <NsOH>
0

>  <NdO>
0

>  <NssO>
0

>  <NaaO>
0

>  <NsF>
0

>  <NsSiH3>
0

>  <NssSiH2>
0

>  <NsssSiH>
0

>  <NssssSi>
0

>  <NsPH2>
0

>  <NssPH>
0

>  <NsssP>
0

>  <NdsssP>
0

>  <NsssssP>
0

>  <NsSH>
0

>  <NdS>
0

>  <NssS>
0

>  <NaaS>
0

>  <NdssS>
0

>  <NddssS>
0

>  <NsCl>
0

>  <NsBr>
0

>  <NsI>
0

>  <fragCpx>
99.02

>  <fMF>
0.46

>  <nHBAcc>
2

>  <nHBDon>
0

>  <Kier1>
13.96

>  <Kier2>
6.19

>  <Lipinski>
1

>  <GhoseFilter>
1

>  <FilterItLogS>
-4.3

>  <VMcGowan>
207.67

>  <LabuteASA>
113.96

>  <PEOE_VSA1>
4.9

>  <PEOE_VSA2>
0

>  <PEOE_VSA3>
4.99

>  <PEOE_VSA4>
0

>  <PEOE_VSA5>
0

>  <PEOE_VSA6>
48.53

>  <PEOE_VSA7>
30.54

>  <PEOE_VSA8>
7.05

>  <PEOE_VSA9>
11.73

>  <PEOE_VSA10>
5.84

>  <PEOE_VSA11>
0

>  <PEOE_VSA12>
0

>  <PEOE_VSA13>
0

>  <SMR_VSA1>
0

>  <SMR_VSA2>
0

>  <SMR_VSA3>
4.9

>  <SMR_VSA4>
4.99

>  <SMR_VSA5>
19.39

>  <SMR_VSA6>
7.05

>  <SMR_VSA7>
65.72

>  <SMR_VSA8>
0

>  <SMR_VSA9>
0

>  <SlogP_VSA1>
0

>  <SlogP_VSA2>
17.78

>  <SlogP_VSA3>
6.42

>  <SlogP_VSA4>
0

>  <SlogP_VSA5>
24.09

>  <SlogP_VSA6>
59.59

>  <SlogP_VSA7>
0

>  <SlogP_VSA8>
0

>  <SlogP_VSA9>
0

>  <SlogP_VSA10>
5.69

>  <SlogP_VSA11>
0

>  <EState_VSA1>
0

>  <EState_VSA2>
0

>  <EState_VSA3>
6.04

>  <EState_VSA4>
17.94

>  <EState_VSA5>
11.13

>  <EState_VSA6>
0

>  <EState_VSA7>
0

>  <EState_VSA8>
73.47

>  <EState_VSA9>
4.99

>  <EState_VSA10>
0

>  <VSA_EState1>
0

>  <VSA_EState2>
7.01

>  <VSA_EState3>
0

>  <VSA_EState4>
3.77

>  <VSA_EState5>
1.07

>  <VSA_EState6>
19.45

>  <VSA_EState7>
1

>  <VSA_EState8>
2.08

>  <VSA_EState9>
2.13

>  <apol>
42.59

>  <bpol>
20.91

>  <nRing>
3

>  <nHRing>
1

>  <naRing>
2

>  <naHRing>
0

>  <nARing 2>
1

>  <nAHRing 2>
1

>  <nFRing>
1

>  <nFHRing>
1

>  <nFaRing>
0

>  <nFaHRing>
0

>  <nFARing 2>
1

>  <nFAHRing 2>
1

>  <nRot>
1

>  <SLogP>
3.97

>  <SMR>
79.86

>  <TopoPSA(NO)>
15.6

>  <TopoPSA>
15.6

>  <JGI1>
0.14

>  <JGI2>
0.08

>  <JGI3>
0.04

>  <JGI4>
0.05

>  <JGI5>
0.02

>  <Diameter>
9

>  <Radius>
5

>  <TMWC10>
112.91

>  <TSRW10>
60.49

>  <MW>
250.15

>  <AMW>
6.76

>  <WPath>
645

>  <WPol>
33

>  <Zagreb1>
100

>  <Zagreb2>
118

>  <mZagreb2>
4.19

>  <yes>


>  <nAR-cont>
0.816016

>  <nHA-cont>
0.998649058

>  <MWHBN>
0.126453176

>  <MWHBN-cont>
0.855956198

>  <TPSA-cont>
0.891102313

>  <pka_cont>
0.97

>  <yes.1>


>  <BBB_SCORE>
5.36580398

>  <MMFF94 Energy>
40.066

$$$$
Compound 1035
Actelion Java MolfileCreator 2.0

  0  0  0  0  0  0              0 V3000
M  V30 BEGIN CTAB
M  V30 COUNTS 38 40 0 0 0
M  V30 BEGIN ATOM
M  V30 1 O -3.8241 -1.1938 -2.5481 0
M  V30 2 C -2.7282 -1.235 -1.7367 0
M  V30 3 C -2.1581 -0.0695 -1.2275 0
M  V30 4 C -2.196 -2.4781 -1.4372 0
M  V30 5 C -1.0309 -0.1308 -0.386 0
M  V30 6 C -1.0714 -2.561 -0.6216 0
M  V30 7 C -0.4749 -1.3993 -0.101 0
M  V30 8 C -0.3657 1.1453 0.1607 0
M  V30 9 C 0.7413 -1.5632 0.7851 0
M  V30 10 C 0.4141 0.8502 1.4775 0
M  V30 11 C 0.6675 1.6354 -0.8898 0
M  V30 12 C -1.3779 2.2864 0.4088 0
M  V30 13 C 1.4557 -0.2492 1.1807 0
M  V30 14 C -0.4759 0.4996 2.681 0
M  V30 15 C 1.8423 0.6688 -1.0759 0
M  V30 16 N 2.4369 0.2899 0.2084 0
M  V30 17 C 3.5925 -0.5814 0.0145 0
M  V30 18 H -4.0921 -0.2672 -2.6587 0
M  V30 19 H -2.5895 0.8887 -1.4961 0
M  V30 20 H -2.6511 -3.3782 -1.8393 0
M  V30 21 H -0.656 -3.5401 -0.393 0
M  V30 22 H 0.4038 -2.057 1.7068 0
M  V30 23 H 1.4441 -2.2582 0.313 0
M  V30 24 H 0.9603 1.76 1.7715 0
M  V30 25 H 1.0683 2.6092 -0.5749 0
M  V30 26 H 0.1862 1.8013 -1.8626 0
M  V30 27 H -2.2336 1.9492 1.0044 0
M  V30 28 H -0.906 3.1214 0.9399 0
M  V30 29 H -1.771 2.6957 -0.5286 0
M  V30 30 H 2.0119 -0.4429 2.1082 0
M  V30 31 H 0.1387 0.2035 3.538 0
M  V30 32 H -1.0648 1.3676 2.9949 0
M  V30 33 H -1.1746 -0.3152 2.4719 0
M  V30 34 H 2.596 1.1765 -1.6913 0
M  V30 35 H 1.5263 -0.2125 -1.6467 0
M  V30 36 H 4.3663 -0.0599 -0.5601 0
M  V30 37 H 3.3448 -1.5043 -0.5194 0
M  V30 38 H 4.0464 -0.8469 0.9755 0
M  V30 END ATOM
M  V30 BEGIN BOND
M  V30 1 1 1 2
M  V30 2 2 2 3
M  V30 3 1 2 4
M  V30 4 1 3 5
M  V30 5 2 4 6
M  V30 6 2 5 7
M  V30 7 1 5 8
M  V30 8 1 7 9
M  V30 9 1 8 10
M  V30 10 1 8 11
M  V30 11 1 8 12
M  V30 12 1 9 13
M  V30 13 1 10 14
M  V30 14 1 11 15
M  V30 15 1 13 16
M  V30 16 1 16 17
M  V30 17 1 6 7
M  V30 18 1 10 13
M  V30 19 1 15 16
M  V30 20 1 1 18
M  V30 21 1 3 19
M  V30 22 1 4 20
M  V30 23 1 6 21
M  V30 24 1 9 22
M  V30 25 1 9 23
M  V30 26 1 10 24
M  V30 27 1 11 25
M  V30 28 1 11 26
M  V30 29 1 12 27
M  V30 30 1 12 28
M  V30 31 1 12 29
M  V30 32 1 13 30
M  V30 33 1 14 31
M  V30 34 1 14 32
M  V30 35 1 14 33
M  V30 36 1 15 34
M  V30 37 1 15 35
M  V30 38 1 17 36
M  V30 39 1 17 37
M  V30 40 1 17 38
M  V30 END BOND
M  V30 END CTAB
M  END
>  <Column 1>
1237

>  <level_0>
1380

>  <index>
1380

>  <Unnamed: 0>
1380

>  <NO.>
1392

>  <Name>
metazocine

>  <IUPAC_name>
1-10-13-trimethyl-10-azatricyclo[7.3.1.02-7]trideca-2(7)-3-5-trien-4-ol

>  <SMILES>
CC1C2Cc3ccc(O)cc3C1(C)CCN2C

>  <CID>
62518

>  <logBB>


>  <BBB+/BBB->
BBB+

>  <Inchi>
InChI=1S/C15H21NO/c1-10-14-8-11-4-5-12(17)9-13(11)15(10-2)6-7-16(14)3/h4-5-9-10-14-17H-6-8H2-1-3H3

>  <threshold>
-1

>  <reference>
R1|R19|R6|R27|R27|R30|

>  <group>
B

>  <Class>
1

>  <ABC>
13.68

>  <ABCGG>
11.29

>  <nAcid>
0

>  <nBase>
1

>  <nAromAtom>
6

>  <nAromBond>
6

>  <nAtom>
38

>  <nHeavyAtom>
17

>  <nSpiro>
0

>  <nBridgehead>
2

>  <nHetero>
2

>  <nN>
1

>  <nO>
1

>  <nF>
0

>  <BalabanJ>
1.9

>  <BertzCT>
456.24

>  <nBonds>
40

>  <nBondsO>
19

>  <nBondsS>
34

>  <nBondsD>
0

>  <nBondsT>
0

>  <nBondsA>
6

>  <nBondsM>
6

>  <nBondsKS>
37

>  <nBondsKD>
3

>  <RNCG>
0.43

>  <RPCG>
0.25

>  <FCSP3>
0.6

>  <SZ>
21

>  <Sm>
19.26

>  <Sv>
22.16

>  <Sse>
37.32

>  <Sp>
24.52

>  <Si>
42.86

>  <MZ>
0.55

>  <Mm>
0.51

>  <Mv>
0.58

>  <Mse>
0.98

>  <Mp>
0.65

>  <Mi>
1.13

>  <NsCH3>
3

>  <NdCH2>
0

>  <NssCH2>
3

>  <NtCH>
0

>  <NdsCH>
0

>  <NaaCH>
3

>  <NsssCH>
2

>  <NddC>
0

>  <NtsC>
0

>  <NdssC>
0

>  <NaasC>
3

>  <NaaaC>
0

>  <NssssC>
1

>  <NsNH3>
0

>  <NsNH2>
0

>  <NssNH2>
0

>  <NdNH>
0

>  <NssNH>
0

>  <NaaNH>
0

>  <NtN>
0

>  <NsssNH>
0

>  <NdsN>
0

>  <NaaN>
0

>  <NsssN>
1

>  <NddsN>
0

>  <NaasN>
0

>  <NssssN>
0

>  <NsOH>
1

>  <NdO>
0

>  <NssO>
0

>  <NaaO>
0

>  <NsF>
0

>  <NsSiH3>
0

>  <NssSiH2>
0

>  <NsssSiH>
0

>  <NssssSi>
0

>  <NsPH2>
0

>  <NssPH>
0

>  <NsssP>
0

>  <NdsssP>
0

>  <NsssssP>
0

>  <NsSH>
0

>  <NdS>
0

>  <NssS>
0

>  <NaaS>
0

>  <NdssS>
0

>  <NddssS>
0

>  <NsCl>
0

>  <NsBr>
0

>  <NsI>
0

>  <fragCpx>
89.02

>  <fMF>
0.34

>  <nHBAcc>
2

>  <nHBDon>
1

>  <Kier1>
12.06

>  <Kier2>
4

>  <Lipinski>
1

>  <GhoseFilter>
1

>  <FilterItLogS>
-3.06

>  <VMcGowan>
192.58

>  <LabuteASA>
103.26

>  <PEOE_VSA1>
10.01

>  <PEOE_VSA2>
0

>  <PEOE_VSA3>
0

>  <PEOE_VSA4>
0

>  <PEOE_VSA5>
0

>  <PEOE_VSA6>
19.91

>  <PEOE_VSA7>
61.03

>  <PEOE_VSA8>
6.04

>  <PEOE_VSA9>
0

>  <PEOE_VSA10>
5.75

>  <PEOE_VSA11>
0

>  <PEOE_VSA12>
0

>  <PEOE_VSA13>
0

>  <SMR_VSA1>
5.11

>  <SMR_VSA2>
0

>  <SMR_VSA3>
4.9

>  <SMR_VSA4>
5.92

>  <SMR_VSA5>
38.15

>  <SMR_VSA6>
13.59

>  <SMR_VSA7>
29.33

>  <SMR_VSA8>
0

>  <SMR_VSA9>
5.75

>  <SlogP_VSA1>
0

>  <SlogP_VSA2>
29.64

>  <SlogP_VSA3>
11.84

>  <SlogP_VSA4>
5.92

>  <SlogP_VSA5>
31.4

>  <SlogP_VSA6>
18.2

>  <SlogP_VSA7>
0

>  <SlogP_VSA8>
0

>  <SlogP_VSA9>
0

>  <SlogP_VSA10>
0

>  <SlogP_VSA11>
5.75

>  <EState_VSA1>
0

>  <EState_VSA2>
5.41

>  <EState_VSA3>
17.71

>  <EState_VSA4>
6.42

>  <EState_VSA5>
24.09

>  <EState_VSA6>
0

>  <EState_VSA7>
12.13

>  <EState_VSA8>
31.86

>  <EState_VSA9>
0

>  <EState_VSA10>
5.11

>  <VSA_EState1>
0

>  <VSA_EState2>
2.5

>  <VSA_EState3>
9.73

>  <VSA_EState4>
3.05

>  <VSA_EState5>
1.07

>  <VSA_EState6>
6.59

>  <VSA_EState7>
2.32

>  <VSA_EState8>
5.91

>  <VSA_EState9>
2.24

>  <apol>
40.95

>  <bpol>
22.78

>  <nRing>
3

>  <nHRing>
1

>  <naRing>
1

>  <naHRing>
0

>  <nARing 2>
2

>  <nAHRing 2>
1

>  <nFRing>
1

>  <nFHRing>
1

>  <nFaRing>
0

>  <nFaHRing>
0

>  <nFARing 2>
1

>  <nFAHRing 2>
1

>  <nRot>
0

>  <SLogP>
2.55

>  <SMR>
69.36

>  <TopoPSA(NO)>
23.47

>  <TopoPSA>
23.47

>  <JGI1>
0.26

>  <JGI2>
0.12

>  <JGI3>
0.06

>  <JGI4>
0.07

>  <JGI5>
0.03

>  <Diameter>
8

>  <Radius>
4

>  <TMWC10>
110.88

>  <TSRW10>
51.13

>  <MW>
231.16

>  <AMW>
6.08

>  <WPath>
436

>  <WPol>
34

>  <Zagreb1>
98

>  <Zagreb2>
122

>  <mZagreb2>
3.54

>  <yes>


>  <nAR-cont>
1

>  <nHA-cont>
0.976740822

>  <MWHBN>
0.197317185

>  <MWHBN-cont>
0.998980113

>  <TPSA-cont>
0.836164826

>  <pka_cont>
0.97

>  <yes.1>


>  <BBB_SCORE>
5.632540643

>  <MMFF94 Energy>
45.688

$$$$
Compound 1036
Actelion Java MolfileCreator 2.0

  0  0  0  0  0  0              0 V3000
M  V30 BEGIN CTAB
M  V30 COUNTS 45 48 0 0 0
M  V30 BEGIN ATOM
M  V30 1 O 1.357 -3.5952 -4.1553 0
M  V30 2 C 1.4198 -2.5599 -3.2689 0
M  V30 3 C 0.6692 -2.6623 -2.1005 0
M  V30 4 C 2.1987 -1.4415 -3.5209 0
M  V30 5 C 0.6867 -1.6386 -1.135 0
M  V30 6 C 2.2151 -0.406 -2.5902 0
M  V30 7 C 1.458 -0.4861 -1.4067 0
M  V30 8 C -0.1657 -1.7214 0.1519 0
M  V30 9 C 1.5256 0.6786 -0.445 0
M  V30 10 C 0.4934 -0.8408 1.2595 0
M  V30 11 C -1.5733 -1.1667 -0.1741 0
M  V30 12 C -0.3045 -3.1765 0.6539 0
M  V30 13 C 0.5399 0.6153 0.7436 0
M  V30 14 C -0.1767 -0.9033 2.643 0
M  V30 15 C -1.5651 0.3315 -0.4973 0
M  V30 16 N -0.8357 1.1164 0.5071 0
M  V30 17 C -0.9291 2.5485 0.1978 0
M  V30 18 C -0.4359 3.3959 1.3356 0
M  V30 19 C -1.2149 4.6089 1.7842 0
M  V30 20 C -1.1511 3.393 2.6645 0
M  V30 21 H 1.9307 -3.3889 -4.9108 0
M  V30 22 H 0.0651 -3.5546 -1.9702 0
M  V30 23 H 2.7882 -1.3538 -4.4271 0
M  V30 24 H 2.8209 0.4755 -2.7897 0
M  V30 25 H 2.5441 0.6879 -0.0322 0
M  V30 26 H 1.412 1.6182 -0.9957 0
M  V30 27 H 1.5277 -1.1846 1.4131 0
M  V30 28 H -2.0165 -1.7075 -1.0207 0
M  V30 29 H -2.2473 -1.3376 0.6752 0
M  V30 30 H -0.8957 -3.237 1.5732 0
M  V30 31 H 0.6769 -3.6214 0.8529 0
M  V30 32 H -0.8252 -3.8164 -0.0659 0
M  V30 33 H 0.9798 1.2214 1.5455 0
M  V30 34 H 0.291 -0.1852 3.3261 0
M  V30 35 H -0.0536 -1.891 3.0971 0
M  V30 36 H -1.2455 -0.6753 2.6072 0
M  V30 37 H -1.1614 0.503 -1.5024 0
M  V30 38 H -2.6113 0.6617 -0.5303 0
M  V30 39 H -0.3895 2.8098 -0.719 0
M  V30 40 H -1.9812 2.8029 0.0138 0
M  V30 41 H 0.6445 3.4822 1.3413 0
M  V30 42 H -2.1607 4.8336 1.3045 0
M  V30 43 H -0.656 5.4856 2.0909 0
M  V30 44 H -2.0421 2.7826 2.7631 0
M  V30 45 H -0.5454 3.4388 3.5618 0
M  V30 END ATOM
M  V30 BEGIN BOND
M  V30 1 1 1 2
M  V30 2 2 2 3
M  V30 3 1 2 4
M  V30 4 1 3 5
M  V30 5 2 4 6
M  V30 6 2 5 7
M  V30 7 1 5 8
M  V30 8 1 7 9
M  V30 9 1 8 10
M  V30 10 1 8 11
M  V30 11 1 8 12
M  V30 12 1 9 13
M  V30 13 1 10 14
M  V30 14 1 11 15
M  V30 15 1 13 16
M  V30 16 1 16 17
M  V30 17 1 17 18
M  V30 18 1 18 19
M  V30 19 1 18 20
M  V30 20 1 6 7
M  V30 21 1 10 13
M  V30 22 1 15 16
M  V30 23 1 19 20
M  V30 24 1 1 21
M  V30 25 1 3 22
M  V30 26 1 4 23
M  V30 27 1 6 24
M  V30 28 1 9 25
M  V30 29 1 9 26
M  V30 30 1 10 27
M  V30 31 1 11 28
M  V30 32 1 11 29
M  V30 33 1 12 30
M  V30 34 1 12 31
M  V30 35 1 12 32
M  V30 36 1 13 33
M  V30 37 1 14 34
M  V30 38 1 14 35
M  V30 39 1 14 36
M  V30 40 1 15 37
M  V30 41 1 15 38
M  V30 42 1 17 39
M  V30 43 1 17 40
M  V30 44 1 18 41
M  V30 45 1 19 42
M  V30 46 1 19 43
M  V30 47 1 20 44
M  V30 48 1 20 45
M  V30 END BOND
M  V30 END CTAB
M  END
>  <Column 1>
1238

>  <level_0>
1381

>  <index>
1381

>  <Unnamed: 0>
1381

>  <NO.>
1393

>  <Name>
ribavirin

>  <IUPAC_name>
10-(cyclopropylmethyl)-1-13-dimethyl-10-azatricyclo[7.3.1.02-7]trideca-2(7)-3-5-trien-4-ol

>  <SMILES>
CC1C2Cc3ccc(O)cc3C1(C)CCN2CC1CC1

>  <CID>
19143

>  <logBB>


>  <BBB+/BBB->
BBB+

>  <Inchi>
InChI=1S/C18H25NO/c1-12-17-9-14-5-6-15(20)10-16(14)18(12-2)7-8-19(17)11-13-3-4-13/h5-6-10-12-13-17-20H-3-4-7-9-11H2-1-2H3

>  <threshold>
-1

>  <reference>
R1|R19|R19|R28|R6|R27|R27|R30|R36|

>  <group>
B

>  <Class>
1

>  <ABC>
16.4

>  <ABCGG>
12.86

>  <nAcid>
0

>  <nBase>
1

>  <nAromAtom>
6

>  <nAromBond>
6

>  <nAtom>
45

>  <nHeavyAtom>
20

>  <nSpiro>
0

>  <nBridgehead>
2

>  <nHetero>
2

>  <nN>
1

>  <nO>
1

>  <nF>
0

>  <BalabanJ>
1.56

>  <BertzCT>
536.22

>  <nBonds>
48

>  <nBondsO>
23

>  <nBondsS>
42

>  <nBondsD>
0

>  <nBondsT>
0

>  <nBondsA>
6

>  <nBondsM>
6

>  <nBondsKS>
45

>  <nBondsKD>
3

>  <RNCG>
0.4

>  <RPCG>
0.23

>  <FCSP3>
0.67

>  <SZ>
24.67

>  <Sm>
22.6

>  <Sv>
26.25

>  <Sse>
44.09

>  <Sp>
29.12

>  <Si>
50.69

>  <MZ>
0.55

>  <Mm>
0.5

>  <Mv>
0.58

>  <Mse>
0.98

>  <Mp>
0.65

>  <Mi>
1.13

>  <NsCH3>
2

>  <NdCH2>
0

>  <NssCH2>
6

>  <NtCH>
0

>  <NdsCH>
0

>  <NaaCH>
3

>  <NsssCH>
3

>  <NddC>
0

>  <NtsC>
0

>  <NdssC>
0

>  <NaasC>
3

>  <NaaaC>
0

>  <NssssC>
1

>  <NsNH3>
0

>  <NsNH2>
0

>  <NssNH2>
0

>  <NdNH>
0

>  <NssNH>
0

>  <NaaNH>
0

>  <NtN>
0

>  <NsssNH>
0

>  <NdsN>
0

>  <NaaN>
0

>  <NsssN>
1

>  <NddsN>
0

>  <NaasN>
0

>  <NssssN>
0

>  <NsOH>
1

>  <NdO>
0

>  <NssO>
0

>  <NaaO>
0

>  <NsF>
0

>  <NsSiH3>
0

>  <NssSiH2>
0

>  <NsssSiH>
0

>  <NssssSi>
0

>  <NsPH2>
0

>  <NssPH>
0

>  <NsssP>
0

>  <NdsssP>
0

>  <NsssssP>
0

>  <NsSH>
0

>  <NdS>
0

>  <NssS>
0

>  <NaaS>
0

>  <NdssS>
0

>  <NddssS>
0

>  <NsCl>
0

>  <NsBr>
0

>  <NsI>
0

>  <fragCpx>
149.02

>  <fMF>
0.38

>  <nHBAcc>
2

>  <nHBDon>
1

>  <Kier1>
13.65

>  <Kier2>
4.75

>  <Lipinski>
1

>  <GhoseFilter>
1

>  <FilterItLogS>
-3.67

>  <VMcGowan>
223.99

>  <LabuteASA>
121.35

>  <PEOE_VSA1>
5.11

>  <PEOE_VSA2>
4.9

>  <PEOE_VSA3>
0

>  <PEOE_VSA4>
0

>  <PEOE_VSA5>
0

>  <PEOE_VSA6>
19.91

>  <PEOE_VSA7>
72.74

>  <PEOE_VSA8>
12.59

>  <PEOE_VSA9>
0

>  <PEOE_VSA10>
5.75

>  <PEOE_VSA11>
0

>  <PEOE_VSA12>
0

>  <PEOE_VSA13>
0

>  <SMR_VSA1>
5.11

>  <SMR_VSA2>
0

>  <SMR_VSA3>
4.9

>  <SMR_VSA4>
11.84

>  <SMR_VSA5>
50.99

>  <SMR_VSA6>
13.09

>  <SMR_VSA7>
29.33

>  <SMR_VSA8>
0

>  <SMR_VSA9>
5.75

>  <SlogP_VSA1>
0

>  <SlogP_VSA2>
29.14

>  <SlogP_VSA3>
11.84

>  <SlogP_VSA4>
11.84

>  <SlogP_VSA5>
44.24

>  <SlogP_VSA6>
18.2

>  <SlogP_VSA7>
0

>  <SlogP_VSA8>
0

>  <SlogP_VSA9>
0

>  <SlogP_VSA10>
0

>  <SlogP_VSA11>
5.75

>  <EState_VSA1>
0

>  <EState_VSA2>
5.41

>  <EState_VSA3>
17.71

>  <EState_VSA4>
5.92

>  <EState_VSA5>
49.9

>  <EState_VSA6>
0

>  <EState_VSA7>
12.13

>  <EState_VSA8>
24.81

>  <EState_VSA9>
0

>  <EState_VSA10>
5.11

>  <VSA_EState1>
0

>  <VSA_EState2>
2.76

>  <VSA_EState3>
9.85

>  <VSA_EState4>
3.12

>  <VSA_EState5>
2.09

>  <VSA_EState6>
6.74

>  <VSA_EState7>
5.28

>  <VSA_EState8>
7.39

>  <VSA_EState9>
0

>  <apol>
48.63

>  <bpol>
26.79

>  <nRing>
4

>  <nHRing>
1

>  <naRing>
1

>  <naHRing>
0

>  <nARing 2>
3

>  <nAHRing 2>
1

>  <nFRing>
1

>  <nFHRing>
1

>  <nFaRing>
0

>  <nFaHRing>
0

>  <nFARing 2>
1

>  <nFAHRing 2>
1

>  <nRot>
2

>  <SLogP>
3.33

>  <SMR>
81.03

>  <TopoPSA(NO)>
23.47

>  <TopoPSA>
23.47

>  <JGI1>
0.24

>  <JGI2>
0.11

>  <JGI3>
0.05

>  <JGI4>
0.06

>  <JGI5>
0.03

>  <Diameter>
10

>  <Radius>
5

>  <TMWC10>
119.5

>  <TSRW10>
73.14

>  <MW>
271.19

>  <AMW>
6.03

>  <WPath>
728

>  <WPol>
38

>  <Zagreb1>
118

>  <Zagreb2>
147

>  <mZagreb2>
4.13

>  <yes>


>  <nAR-cont>
0.691115

>  <nHA-cont>
0.999629945

>  <MWHBN>
0.182173172

>  <MWHBN-cont>
0.989399945

>  <TPSA-cont>
0.836164826

>  <pka_cont>
0.97

>  <yes.1>


>  <BBB_SCORE>
5.332174513

>  <MMFF94 Energy>
59.218

$$$$
Compound 1037
Actelion Java MolfileCreator 2.0

  0  0  0  0  0  0              0 V3000
M  V30 BEGIN CTAB
M  V30 COUNTS 51 54 0 0 0
M  V30 BEGIN ATOM
M  V30 1 O -4.634 2.3149 3.5139 0
M  V30 2 C -3.8665 1.9446 2.4485 0
M  V30 3 C -2.557 2.4016 2.3035 0
M  V30 4 C -4.4315 1.0928 1.5148 0
M  V30 5 C -1.7781 2.0171 1.1943 0
M  V30 6 C -3.6749 0.6821 0.4222 0
M  V30 7 C -2.35 1.125 0.258 0
M  V30 8 C -0.3125 2.4839 1.0278 0
M  V30 9 C -1.5896 0.6348 -0.9534 0
M  V30 10 C 0.0642 2.4598 -0.487 0
M  V30 11 C 0.5918 1.4912 1.798 0
M  V30 12 C -0.0955 3.9046 1.5975 0
M  V30 13 C -0.09 1.0076 -0.9884 0
M  V30 14 C 1.46 3.0069 -0.8321 0
M  V30 15 C 0.5996 0.0845 1.1862 0
M  V30 16 N 0.8433 0.1091 -0.2617 0
M  V30 17 C 0.8744 -1.2472 -0.842 0
M  V30 18 C 2.149 -2.0258 -0.4722 0
M  V30 19 C 2.2079 -3.3595 -1.1802 0
M  V30 20 C 1.5838 -4.4858 -0.6267 0
M  V30 21 C 2.8617 -3.4805 -2.4137 0
M  V30 22 C 1.6214 -5.7124 -1.2914 0
M  V30 23 C 2.8981 -4.7082 -3.0766 0
M  V30 24 C 2.2788 -5.8235 -2.5153 0
M  V30 25 H -4.1191 2.9212 4.0707 0
M  V30 26 H -2.1448 3.0501 3.0682 0
M  V30 27 H -5.4527 0.7453 1.639 0
M  V30 28 H -4.1213 0.0075 -0.3052 0
M  V30 29 H -1.7232 -0.4472 -1.0598 0
M  V30 30 H -2.0668 1.0908 -1.8323 0
M  V30 31 H -0.649 3.0922 -1.0376 0
M  V30 32 H 1.6228 1.8678 1.8206 0
M  V30 33 H 0.2782 1.4166 2.8479 0
M  V30 34 H -0.2791 3.9526 2.676 0
M  V30 35 H 0.9368 4.2442 1.4667 0
M  V30 36 H -0.7554 4.6313 1.1099 0
M  V30 37 H 0.2131 0.9898 -2.0448 0
M  V30 38 H 1.6742 2.8605 -1.8969 0
M  V30 39 H 1.5185 4.0841 -0.6481 0
M  V30 40 H 2.2582 2.5203 -0.265 0
M  V30 41 H 1.3943 -0.4747 1.6925 0
M  V30 42 H -0.3359 -0.4369 1.4218 0
M  V30 43 H 0.8442 -1.1698 -1.9373 0
M  V30 44 H -0.013 -1.822 -0.5477 0
M  V30 45 H 3.0386 -1.437 -0.7311 0
M  V30 46 H 2.2061 -2.2035 0.608 0
M  V30 47 H 1.0652 -4.4136 0.3268 0
M  V30 48 H 3.3468 -2.6176 -2.865 0
M  V30 49 H 1.1375 -6.5817 -0.8539 0
M  V30 50 H 3.4098 -4.7939 -4.0316 0
M  V30 51 H 2.3081 -6.7791 -3.0319 0
M  V30 END ATOM
M  V30 BEGIN BOND
M  V30 1 1 1 2
M  V30 2 2 2 3
M  V30 3 1 2 4
M  V30 4 1 3 5
M  V30 5 2 4 6
M  V30 6 2 5 7
M  V30 7 1 5 8
M  V30 8 1 7 9
M  V30 9 1 8 10
M  V30 10 1 8 11
M  V30 11 1 8 12
M  V30 12 1 9 13
M  V30 13 1 10 14
M  V30 14 1 11 15
M  V30 15 1 13 16
M  V30 16 1 16 17
M  V30 17 1 17 18
M  V30 18 1 18 19
M  V30 19 2 19 20
M  V30 20 1 19 21
M  V30 21 1 20 22
M  V30 22 2 21 23
M  V30 23 2 22 24
M  V30 24 1 6 7
M  V30 25 1 10 13
M  V30 26 1 15 16
M  V30 27 1 23 24
M  V30 28 1 1 25
M  V30 29 1 3 26
M  V30 30 1 4 27
M  V30 31 1 6 28
M  V30 32 1 9 29
M  V30 33 1 9 30
M  V30 34 1 10 31
M  V30 35 1 11 32
M  V30 36 1 11 33
M  V30 37 1 12 34
M  V30 38 1 12 35
M  V30 39 1 12 36
M  V30 40 1 13 37
M  V30 41 1 14 38
M  V30 42 1 14 39
M  V30 43 1 14 40
M  V30 44 1 15 41
M  V30 45 1 15 42
M  V30 46 1 17 43
M  V30 47 1 17 44
M  V30 48 1 18 45
M  V30 49 1 18 46
M  V30 50 1 20 47
M  V30 51 1 21 48
M  V30 52 1 22 49
M  V30 53 1 23 50
M  V30 54 1 24 51
M  V30 END BOND
M  V30 END CTAB
M  END
>  <Column 1>
1239

>  <level_0>
1382

>  <index>
1382

>  <Unnamed: 0>
1382

>  <NO.>
1394

>  <Name>
phenazocine

>  <IUPAC_name>
1-13-dimethyl-10-(2-phenylethyl)-10-azatricyclo[7.3.1.02-7]trideca-2(7)-3-5-trien-4-ol

>  <SMILES>
CC1C2Cc3ccc(O)cc3C1(C)CCN2CCc1ccccc1

>  <CID>
14707

>  <logBB>


>  <BBB+/BBB->
BBB+

>  <Inchi>
InChI=1S/C22H27NO/c1-16-21-14-18-8-9-19(24)15-20(18)22(16-2)11-13-23(21)12-10-17-6-4-3-5-7-17/h3-9-15-16-21-24H-10-14H2-1-2H3

>  <threshold>
-1

>  <reference>
R1|R19|R6|R14|R23|R27|R27|R30|

>  <group>
B

>  <Class>
1

>  <ABC>
19.23

>  <ABCGG>
14.28

>  <nAcid>
0

>  <nBase>
1

>  <nAromAtom>
12

>  <nAromBond>
12

>  <nAtom>
51

>  <nHeavyAtom>
24

>  <nSpiro>
0

>  <nBridgehead>
2

>  <nHetero>
2

>  <nN>
1

>  <nO>
1

>  <nF>
0

>  <BalabanJ>
1.42

>  <BertzCT>
726

>  <nBonds>
54

>  <nBondsO>
27

>  <nBondsS>
42

>  <nBondsD>
0

>  <nBondsT>
0

>  <nBondsA>
12

>  <nBondsM>
12

>  <nBondsKS>
48

>  <nBondsKD>
6

>  <RNCG>
0.33

>  <RPCG>
0.19

>  <FCSP3>
0.45

>  <SZ>
29

>  <Sm>
26.76

>  <Sv>
30.79

>  <Sse>
49.98

>  <Sp>
33.92

>  <Si>
57.11

>  <MZ>
0.57

>  <Mm>
0.52

>  <Mv>
0.6

>  <Mse>
0.98

>  <Mp>
0.67

>  <Mi>
1.12

>  <NsCH3>
2

>  <NdCH2>
0

>  <NssCH2>
5

>  <NtCH>
0

>  <NdsCH>
0

>  <NaaCH>
8

>  <NsssCH>
2

>  <NddC>
0

>  <NtsC>
0

>  <NdssC>
0

>  <NaasC>
4

>  <NaaaC>
0

>  <NssssC>
1

>  <NsNH3>
0

>  <NsNH2>
0

>  <NssNH2>
0

>  <NdNH>
0

>  <NssNH>
0

>  <NaaNH>
0

>  <NtN>
0

>  <NsssNH>
0

>  <NdsN>
0

>  <NaaN>
0

>  <NsssN>
1

>  <NddsN>
0

>  <NaasN>
0

>  <NssssN>
0

>  <NsOH>
1

>  <NdO>
0

>  <NssO>
0

>  <NaaO>
0

>  <NsF>
0

>  <NsSiH3>
0

>  <NssSiH2>
0

>  <NsssSiH>
0

>  <NssssSi>
0

>  <NsPH2>
0

>  <NssPH>
0

>  <NsssP>
0

>  <NdsssP>
0

>  <NsssssP>
0

>  <NsSH>
0

>  <NdS>
0

>  <NssS>
0

>  <NaaS>
0

>  <NdssS>
0

>  <NddssS>
0

>  <NsCl>
0

>  <NsBr>
0

>  <NsI>
0

>  <fragCpx>
177.02

>  <fMF>
0.41

>  <nHBAcc>
2

>  <nHBDon>
1

>  <Kier1>
17.42

>  <Kier2>
6.96

>  <Lipinski>
1

>  <GhoseFilter>
1

>  <FilterItLogS>
-5.21

>  <VMcGowan>
267.45

>  <LabuteASA>
144.68

>  <PEOE_VSA1>
5.11

>  <PEOE_VSA2>
4.9

>  <PEOE_VSA3>
0

>  <PEOE_VSA4>
0

>  <PEOE_VSA5>
0

>  <PEOE_VSA6>
50.25

>  <PEOE_VSA7>
65.96

>  <PEOE_VSA8>
12.59

>  <PEOE_VSA9>
0

>  <PEOE_VSA10>
5.75

>  <PEOE_VSA11>
0

>  <PEOE_VSA12>
0

>  <PEOE_VSA13>
0

>  <SMR_VSA1>
5.11

>  <SMR_VSA2>
0

>  <SMR_VSA3>
4.9

>  <SMR_VSA4>
5.92

>  <SMR_VSA5>
44.57

>  <SMR_VSA6>
13.09

>  <SMR_VSA7>
65.22

>  <SMR_VSA8>
0

>  <SMR_VSA9>
5.75

>  <SlogP_VSA1>
0

>  <SlogP_VSA2>
29.14

>  <SlogP_VSA3>
18.26

>  <SlogP_VSA4>
5.92

>  <SlogP_VSA5>
36.96

>  <SlogP_VSA6>
48.53

>  <SlogP_VSA7>
0

>  <SlogP_VSA8>
0

>  <SlogP_VSA9>
0

>  <SlogP_VSA10>
0

>  <SlogP_VSA11>
5.75

>  <EState_VSA1>
0

>  <EState_VSA2>
5.41

>  <EState_VSA3>
17.71

>  <EState_VSA4>
25.93

>  <EState_VSA5>
23.11

>  <EState_VSA6>
0

>  <EState_VSA7>
12.13

>  <EState_VSA8>
55.15

>  <EState_VSA9>
0

>  <EState_VSA10>
5.11

>  <VSA_EState1>
0

>  <VSA_EState2>
2.7

>  <VSA_EState3>
9.94

>  <VSA_EState4>
4.44

>  <VSA_EState5>
1.03

>  <VSA_EState6>
17.44

>  <VSA_EState7>
3.42

>  <VSA_EState8>
7.11

>  <VSA_EState9>
0

>  <apol>
56.65

>  <bpol>
28.8

>  <nRing>
4

>  <nHRing>
1

>  <naRing>
2

>  <naHRing>
0

>  <nARing 2>
2

>  <nAHRing 2>
1

>  <nFRing>
1

>  <nFHRing>
1

>  <nFaRing>
0

>  <nFaHRing>
0

>  <nFARing 2>
1

>  <nFAHRing 2>
1

>  <nRot>
3

>  <SLogP>
4.16

>  <SMR>
98.45

>  <TopoPSA(NO)>
23.47

>  <TopoPSA>
23.47

>  <JGI1>
0.2

>  <JGI2>
0.09

>  <JGI3>
0.04

>  <JGI4>
0.05

>  <JGI5>
0.03

>  <Diameter>
13

>  <Radius>
7

>  <TMWC10>
127.95

>  <TSRW10>
59.41

>  <MW>
321.21

>  <AMW>
6.3

>  <WPath>
1328

>  <WPol>
44

>  <Zagreb1>
134

>  <Zagreb2>
163

>  <mZagreb2>
5.13

>  <yes>


>  <nAR-cont>
1

>  <nHA-cont>
0.94700071

>  <MWHBN>
0.167388927

>  <MWHBN-cont>
0.969713914

>  <TPSA-cont>
0.836164826

>  <pka_cont>
0.97

>  <yes.1>


>  <BBB_SCORE>
5.558901232

>  <MMFF94 Energy>
75.859

$$$$
Compound 1038
Actelion Java MolfileCreator 2.0

  0  0  0  0  0  0              0 V3000
M  V30 BEGIN CTAB
M  V30 COUNTS 41 42 0 0 0
M  V30 BEGIN ATOM
M  V30 1 O -3.4034 2.7696 2.2152 0
M  V30 2 C -2.6517 3.0998 1.3166 0
M  V30 3 N -2.7987 2.7582 -0.0088 0
M  V30 4 C -1.3838 3.9013 1.4558 0
M  V30 5 C -1.6804 3.1811 -0.8172 0
M  V30 6 C -1.0783 4.3066 0.0144 0
M  V30 7 C -0.6353 2.0926 -1.1047 0
M  V30 8 O 0.4114 2.3043 -1.7049 0
M  V30 9 O -1.0272 0.8798 -0.6254 0
M  V30 10 C -0.1047 -0.212 -0.8078 0
M  V30 11 C 0.9488 -0.1825 0.3058 0
M  V30 12 C -0.919 -1.5058 -0.7485 0
M  V30 13 C 1.8808 -1.4129 0.3019 0
M  V30 14 C -0.0263 -2.7487 -0.8108 0
M  V30 15 C 1.039 -2.7105 0.2967 0
M  V30 16 C 2.8262 -1.3724 -0.9139 0
M  V30 17 C 2.7481 -1.386 1.5751 0
M  V30 18 C -0.8692 -4.0193 -0.6992 0
M  V30 19 H -3.5416 2.1381 -0.3064 0
M  V30 20 H -1.5355 4.7703 2.1003 0
M  V30 21 H -0.6007 3.2565 1.8661 0
M  V30 22 H -2.0674 3.5326 -1.7788 0
M  V30 23 H -0.0085 4.4674 -0.1486 0
M  V30 24 H -1.5969 5.2475 -0.2104 0
M  V30 25 H 0.3631 -0.1375 -1.7968 0
M  V30 26 H 1.5387 0.7401 0.2341 0
M  V30 27 H 0.4301 -0.1118 1.2726 0
M  V30 28 H -1.5234 -1.5164 0.169 0
M  V30 29 H -1.6423 -1.5154 -1.574 0
M  V30 30 H 0.4731 -2.7718 -1.787 0
M  V30 31 H 0.5374 -2.8151 1.2691 0
M  V30 32 H 1.6993 -3.5821 0.1989 0
M  V30 33 H 3.441 -0.4651 -0.9015 0
M  V30 34 H 3.5062 -2.232 -0.9099 0
M  V30 35 H 2.288 -1.3873 -1.8657 0
M  V30 36 H 2.1288 -1.4107 2.4789 0
M  V30 37 H 3.4235 -2.2481 1.6119 0
M  V30 38 H 3.3607 -0.4783 1.6176 0
M  V30 39 H -1.4043 -4.0612 0.2555 0
M  V30 40 H -1.61 -4.0653 -1.5044 0
M  V30 41 H -0.238 -4.9111 -0.7734 0
M  V30 END ATOM
M  V30 BEGIN BOND
M  V30 1 2 1 2
M  V30 2 1 2 3
M  V30 3 1 2 4
M  V30 4 1 3 5
M  V30 5 1 4 6
M  V30 6 1 5 7
M  V30 7 2 7 8
M  V30 8 1 7 9
M  V30 9 1 9 10
M  V30 10 1 10 11
M  V30 11 1 10 12
M  V30 12 1 11 13
M  V30 13 1 12 14
M  V30 14 1 13 15
M  V30 15 1 13 16
M  V30 16 1 13 17
M  V30 17 1 14 18
M  V30 18 1 5 6
M  V30 19 1 14 15
M  V30 20 1 3 19
M  V30 21 1 4 20
M  V30 22 1 4 21
M  V30 23 1 5 22
M  V30 24 1 6 23
M  V30 25 1 6 24
M  V30 26 1 10 25
M  V30 27 1 11 26
M  V30 28 1 11 27
M  V30 29 1 12 28
M  V30 30 1 12 29
M  V30 31 1 14 30
M  V30 32 1 15 31
M  V30 33 1 15 32
M  V30 34 1 16 33
M  V30 35 1 16 34
M  V30 36 1 16 35
M  V30 37 1 17 36
M  V30 38 1 17 37
M  V30 39 1 17 38
M  V30 40 1 18 39
M  V30 41 1 18 40
M  V30 42 1 18 41
M  V30 END BOND
M  V30 END CTAB
M  END
>  <Column 1>
1240

>  <level_0>
1383

>  <index>
1383

>  <Unnamed: 0>
1383

>  <NO.>
1395

>  <Name>
crilvastatin

>  <IUPAC_name>
(3-3-5-trimethylcyclohexyl) 5-oxopyrrolidine-2-carboxylate

>  <SMILES>
CC1CC(OC(=O)C2CCC(=O)N2)CC(C)(C)C1

>  <CID>
60724

>  <logBB>


>  <BBB+/BBB->
BBB+

>  <Inchi>
InChI=1S/C14H23NO3/c1-9-6-10(8-14(2-3)7-9)18-13(17)11-4-5-12(16)15-11/h9-11H-4-8H2-1-3H3-(H-15-16)

>  <threshold>
-1

>  <reference>
R1|R19|R27|R27|R30|

>  <group>
B

>  <Class>
1

>  <ABC>
14.04

>  <ABCGG>
12.42

>  <nAcid>
0

>  <nBase>
0

>  <nAromAtom>
0

>  <nAromBond>
0

>  <nAtom>
41

>  <nHeavyAtom>
18

>  <nSpiro>
0

>  <nBridgehead>
0

>  <nHetero>
4

>  <nN>
1

>  <nO>
3

>  <nF>
0

>  <BalabanJ>
1.85

>  <BertzCT>
350.95

>  <nBonds>
42

>  <nBondsO>
19

>  <nBondsS>
40

>  <nBondsD>
2

>  <nBondsT>
0

>  <nBondsA>
0

>  <nBondsM>
2

>  <nBondsKS>
40

>  <nBondsKD>
2

>  <RNCG>
0.28

>  <RPCG>
0.2

>  <FCSP3>
0.86

>  <SZ>
23

>  <Sm>
21.09

>  <Sv>
23.13

>  <Sse>
40.87

>  <Sp>
25.28

>  <Si>
46.69

>  <MZ>
0.56

>  <Mm>
0.51

>  <Mv>
0.56

>  <Mse>
1

>  <Mp>
0.62

>  <Mi>
1.14

>  <NsCH3>
3

>  <NdCH2>
0

>  <NssCH2>
5

>  <NtCH>
0

>  <NdsCH>
0

>  <NaaCH>
0

>  <NsssCH>
3

>  <NddC>
0

>  <NtsC>
0

>  <NdssC>
2

>  <NaasC>
0

>  <NaaaC>
0

>  <NssssC>
1

>  <NsNH3>
0

>  <NsNH2>
0

>  <NssNH2>
0

>  <NdNH>
0

>  <NssNH>
1

>  <NaaNH>
0

>  <NtN>
0

>  <NsssNH>
0

>  <NdsN>
0

>  <NaaN>
0

>  <NsssN>
0

>  <NddsN>
0

>  <NaasN>
0

>  <NssssN>
0

>  <NsOH>
0

>  <NdO>
2

>  <NssO>
1

>  <NaaO>
0

>  <NsF>
0

>  <NsSiH3>
0

>  <NssSiH2>
0

>  <NsssSiH>
0

>  <NssssSi>
0

>  <NsPH2>
0

>  <NssPH>
0

>  <NsssP>
0

>  <NdsssP>
0

>  <NsssssP>
0

>  <NsSH>
0

>  <NdS>
0

>  <NssS>
0

>  <NaaS>
0

>  <NdssS>
0

>  <NddssS>
0

>  <NsCl>
0

>  <NsBr>
0

>  <NsI>
0

>  <fragCpx>
55.04

>  <fMF>
0.32

>  <nHBAcc>
3

>  <nHBDon>
1

>  <Kier1>
14.41

>  <Kier2>
5.55

>  <Lipinski>
1

>  <GhoseFilter>
1

>  <FilterItLogS>
-2.75

>  <VMcGowan>
205.39

>  <LabuteASA>
108.46

>  <PEOE_VSA1>
10.05

>  <PEOE_VSA2>
4.79

>  <PEOE_VSA3>
4.79

>  <PEOE_VSA4>
0

>  <PEOE_VSA5>
0

>  <PEOE_VSA6>
20.77

>  <PEOE_VSA7>
37.02

>  <PEOE_VSA8>
6.42

>  <PEOE_VSA9>
0

>  <PEOE_VSA10>
12.15

>  <PEOE_VSA11>
0

>  <PEOE_VSA12>
5.91

>  <PEOE_VSA13>
0

>  <SMR_VSA1>
14.33

>  <SMR_VSA2>
0

>  <SMR_VSA3>
5.32

>  <SMR_VSA4>
11.33

>  <SMR_VSA5>
65.02

>  <SMR_VSA6>
0

>  <SMR_VSA7>
0

>  <SMR_VSA8>
0

>  <SMR_VSA9>
0

>  <SlogP_VSA1>
5.32

>  <SlogP_VSA2>
24.02

>  <SlogP_VSA3>
14.33

>  <SlogP_VSA4>
11.33

>  <SlogP_VSA5>
52.88

>  <SlogP_VSA6>
0

>  <SlogP_VSA7>
0

>  <SlogP_VSA8>
0

>  <SlogP_VSA9>
0

>  <SlogP_VSA10>
0

>  <SlogP_VSA11>
0

>  <EState_VSA1>
6.04

>  <EState_VSA2>
23.4

>  <EState_VSA3>
18.76

>  <EState_VSA4>
12.84

>  <EState_VSA5>
6.42

>  <EState_VSA6>
0

>  <EState_VSA7>
0

>  <EState_VSA8>
26.09

>  <EState_VSA9>
4.74

>  <EState_VSA10>
9.59

>  <VSA_EState1>
5.58

>  <VSA_EState2>
23.03

>  <VSA_EState3>
2.66

>  <VSA_EState4>
0.24

>  <VSA_EState5>
0.29

>  <VSA_EState6>
-0.42

>  <VSA_EState7>
4.06

>  <VSA_EState8>
6.65

>  <VSA_EState9>
0

>  <apol>
42.22

>  <bpol>
27.12

>  <nRing>
2

>  <nHRing>
1

>  <naRing>
0

>  <naHRing>
0

>  <nARing 2>
2

>  <nAHRing 2>
1

>  <nFRing>
0

>  <nFHRing>
0

>  <nFaRing>
0

>  <nFaHRing>
0

>  <nFARing 2>
0

>  <nFAHRing 2>
0

>  <nRot>
2

>  <SLogP>
2.02

>  <SMR>
67.84

>  <TopoPSA(NO)>
55.4

>  <TopoPSA>
55.4

>  <JGI1>
0.34

>  <JGI2>
0.07

>  <JGI3>
0.09

>  <JGI4>
0.05

>  <JGI5>
0.02

>  <Diameter>
9

>  <Radius>
5

>  <TMWC10>
108.7

>  <TSRW10>
64.6

>  <MW>
253.17

>  <AMW>
6.17

>  <WPath>
628

>  <WPol>
23

>  <Zagreb1>
94

>  <Zagreb2>
106

>  <mZagreb2>
3.78

>  <yes>


>  <nAR-cont>
1

>  <nHA-cont>
0.991161285

>  <MWHBN>
0.251393399

>  <MWHBN-cont>
0.957403591

>  <TPSA-cont>
0.613273599

>  <pka_cont>
0.97

>  <yes.1>


>  <BBB_SCORE>
5.138813869

>  <MMFF94 Energy>
21.785

$$$$
Compound 1039
Actelion Java MolfileCreator 2.0

  0  0  0  0  0  0              0 V3000
M  V30 BEGIN CTAB
M  V30 COUNTS 57 60 0 0 0
M  V30 BEGIN ATOM
M  V30 1 F 1.8724 0.5695 0.3254 0
M  V30 2 C 1.3379 -0.7033 0.3559 0
M  V30 3 C 2.3479 -1.5909 1.2029 0 CFG=2
M  V30 4 C 1.1645 -1.1428 -1.1196 0
M  V30 5 C -0.0491 -0.5631 1.0392 0
M  V30 6 C 2.3777 -1.0531 2.6431 0
M  V30 7 C 3.7486 -1.5457 0.5842 0
M  V30 8 C 1.9706 -3.0898 1.251 0
M  V30 9 O 0.6504 -2.4618 -1.2368 0
M  V30 10 C 0.2676 -0.1608 -1.8785 0
M  V30 11 C -1.0613 0.3202 0.2636 0
M  V30 12 C 0.0958 -0.0668 2.491 0
M  V30 13 C 3.4988 -0.6541 3.272 0
M  V30 14 C 1.0376 -0.9321 3.3109 0
M  V30 15 C 4.8606 -1.1437 1.2137 0
M  V30 16 C -1.146 0.0807 -1.2735 0
M  V30 17 C -0.9053 1.839 0.3805 0
M  V30 18 C 4.8178 -0.6841 2.6133 0
M  V30 19 F 0.4714 -2.1531 3.4906 0
M  V30 20 F 1.1367 -0.386 4.5539 0
M  V30 21 C -1.7933 1.4314 -1.8413 0
M  V30 22 C -2.04 -1.1562 -1.5173 0
M  V30 23 C -1.9747 2.34 -0.5948 0
M  V30 24 O 5.8324 -0.3326 3.2 0
M  V30 25 O -0.8984 2.0744 -2.764 0
M  V30 26 C -3.0847 1.1987 -2.6733 0
M  V30 27 C -1.8846 3.8438 -0.8307 0
M  V30 28 O -3.0508 0.7811 -3.839 0
M  V30 29 C -4.4423 1.467 -2.033 0
M  V30 30 O -5.5079 1.0194 -2.8614 0
M  V30 31 H 2.1383 -1.1309 -1.6201 0
M  V30 32 H -0.4966 -1.5648 1.0847 0
M  V30 33 H 3.8572 -1.9022 -0.4378 0
M  V30 34 H 0.9093 -3.2522 1.459 0
M  V30 35 H 2.5362 -3.6165 2.0308 0
M  V30 36 H 2.1976 -3.6036 0.3099 0
M  V30 37 H 0.559 -2.6642 -2.1864 0
M  V30 38 H 0.1549 -0.4945 -2.9181 0
M  V30 39 H 0.8323 0.7775 -1.9103 0
M  V30 40 H -2.0463 0.0882 0.7003 0
M  V30 41 H 0.4658 0.9654 2.5147 0
M  V30 42 H -0.8889 -0.0574 2.974 0
M  V30 43 H 3.4973 -0.2687 4.2867 0
M  V30 44 H 5.8342 -1.1475 0.7385 0
M  V30 45 H -1.1091 2.2022 1.3928 0
M  V30 46 H 0.095 2.1738 0.0879 0
M  V30 47 H -3.0669 -0.9861 -1.1777 0
M  V30 48 H -1.6915 -2.0343 -0.9678 0
M  V30 49 H -2.0717 -1.4226 -2.5789 0
M  V30 50 H -2.9432 2.1456 -0.1201 0
M  V30 51 H -0.1914 2.5295 -2.2783 0
M  V30 52 H -2.5936 4.1612 -1.6014 0
M  V30 53 H -2.1272 4.3847 0.0905 0
M  V30 54 H -0.8819 4.16 -1.1336 0
M  V30 55 H -4.521 0.9321 -1.0843 0
M  V30 56 H -4.5632 2.5415 -1.8773 0
M  V30 57 H -5.1293 0.9244 -3.7607 0
M  V30 END ATOM
M  V30 BEGIN BOND
M  V30 1 1 1 2
M  V30 2 1 2 3
M  V30 3 1 2 4
M  V30 4 1 2 5
M  V30 5 1 3 6
M  V30 6 1 3 7
M  V30 7 1 3 8
M  V30 8 1 4 9
M  V30 9 1 4 10
M  V30 10 1 5 11
M  V30 11 1 5 12
M  V30 12 2 6 13
M  V30 13 1 6 14
M  V30 14 2 7 15
M  V30 15 1 10 16
M  V30 16 1 11 17
M  V30 17 1 13 18
M  V30 18 1 14 19
M  V30 19 1 14 20
M  V30 20 1 16 21
M  V30 21 1 16 22
M  V30 22 1 17 23
M  V30 23 2 18 24
M  V30 24 1 21 25
M  V30 25 1 21 26
M  V30 26 1 23 27
M  V30 27 2 26 28
M  V30 28 1 26 29
M  V30 29 1 29 30
M  V30 30 1 11 16
M  V30 31 1 12 14
M  V30 32 1 15 18
M  V30 33 1 21 23
M  V30 34 1 4 31
M  V30 35 1 5 32
M  V30 36 1 7 33
M  V30 37 1 8 34
M  V30 38 1 8 35
M  V30 39 1 8 36
M  V30 40 1 9 37
M  V30 41 1 10 38
M  V30 42 1 10 39
M  V30 43 1 11 40
M  V30 44 1 12 41
M  V30 45 1 12 42
M  V30 46 1 13 43
M  V30 47 1 15 44
M  V30 48 1 17 45
M  V30 49 1 17 46
M  V30 50 1 22 47
M  V30 51 1 22 48
M  V30 52 1 22 49
M  V30 53 1 23 50
M  V30 54 1 25 51
M  V30 55 1 27 52
M  V30 56 1 27 53
M  V30 57 1 27 54
M  V30 58 1 29 55
M  V30 59 1 29 56
M  V30 60 1 30 57
M  V30 END BOND
M  V30 BEGIN COLLECTION
M  V30 MDLV30/STEABS ATOMS=(1 3)
M  V30 END COLLECTION
M  V30 END CTAB
M  END
>  <Column 1>
1241

>  <level_0>
1384

>  <index>
1384

>  <Unnamed: 0>
1384

>  <NO.>
1396

>  <Name>
cormetasone

>  <IUPAC_name>


>  <SMILES>
CC1CC2C3CC(F)(F)C4=CC(=O)C=C[C@]4(C)C3(F)C(O)CC2(C)C1(O)C(=O)CO

>  <CID>


>  <logBB>


>  <BBB+/BBB->
BBB+

>  <Inchi>
InChI=1S/C22H27F3O5/c1-11-6-13-14-8-20(23-24)15-7-12(27)4-5-18(15-2)21(14-25)16(28)9-19(13-3)22(11-30)17(29)10-26/h4-5-7-11-13-14-16-26-28-30H-6-8-10H2-1-3H3/t11?-13?-14?-16?-18--19?-21?-22?/m0/s1

>  <threshold>
-1

>  <reference>
R1|R19|R27|R30|

>  <group>
B

>  <Class>
1

>  <ABC>
24.06

>  <ABCGG>
20.57

>  <nAcid>
0

>  <nBase>
0

>  <nAromAtom>
0

>  <nAromBond>
0

>  <nAtom>
57

>  <nHeavyAtom>
30

>  <nSpiro>
0

>  <nBridgehead>
0

>  <nHetero>
8

>  <nN>
0

>  <nO>
5

>  <nF>
3

>  <BalabanJ>
1.84

>  <BertzCT>
884

>  <nBonds>
60

>  <nBondsO>
33

>  <nBondsS>
56

>  <nBondsD>
4

>  <nBondsT>
0

>  <nBondsA>
0

>  <nBondsM>
4

>  <nBondsKS>
56

>  <nBondsKD>
4

>  <RNCG>
0.14

>  <RPCG>
0.1

>  <FCSP3>
0.73

>  <SZ>
37.67

>  <Sm>
35.67

>  <Sv>
34.83

>  <Sse>
58.51

>  <Sp>
36.18

>  <Si>
65.3

>  <MZ>
0.66

>  <Mm>
0.63

>  <Mv>
0.61

>  <Mse>
1.03

>  <Mp>
0.63

>  <Mi>
1.15

>  <NsCH3>
3

>  <NdCH2>
0

>  <NssCH2>
4

>  <NtCH>
0

>  <NdsCH>
3

>  <NaaCH>
0

>  <NsssCH>
4

>  <NddC>
0

>  <NtsC>
0

>  <NdssC>
3

>  <NaasC>
0

>  <NaaaC>
0

>  <NssssC>
5

>  <NsNH3>
0

>  <NsNH2>
0

>  <NssNH2>
0

>  <NdNH>
0

>  <NssNH>
0

>  <NaaNH>
0

>  <NtN>
0

>  <NsssNH>
0

>  <NdsN>
0

>  <NaaN>
0

>  <NsssN>
0

>  <NddsN>
0

>  <NaasN>
0

>  <NssssN>
0

>  <NsOH>
3

>  <NdO>
2

>  <NssO>
0

>  <NaaO>
0

>  <NsF>
3

>  <NsSiH3>
0

>  <NssSiH2>
0

>  <NsssSiH>
0

>  <NssssSi>
0

>  <NsPH2>
0

>  <NssPH>
0

>  <NsssP>
0

>  <NdsssP>
0

>  <NsssssP>
0

>  <NsSH>
0

>  <NdS>
0

>  <NssS>
0

>  <NaaS>
0

>  <NdssS>
0

>  <NddssS>
0

>  <NsCl>
0

>  <NsBr>
0

>  <NsI>
0

>  <fragCpx>
219.08

>  <fMF>
0.3

>  <nHBAcc>
5

>  <nHBDon>
3

>  <Kier1>
23.17

>  <Kier2>
6.76

>  <Lipinski>
1

>  <GhoseFilter>
1

>  <FilterItLogS>
-3.31

>  <VMcGowan>
294.83

>  <LabuteASA>
172.2

>  <PEOE_VSA1>
15.32

>  <PEOE_VSA2>
9.59

>  <PEOE_VSA3>
13.17

>  <PEOE_VSA4>
0

>  <PEOE_VSA5>
0

>  <PEOE_VSA6>
19.92

>  <PEOE_VSA7>
43.75

>  <PEOE_VSA8>
23.33

>  <PEOE_VSA9>
11.52

>  <PEOE_VSA10>
12.21

>  <PEOE_VSA11>
17.24

>  <PEOE_VSA12>
0

>  <PEOE_VSA13>
5.92

>  <SMR_VSA1>
38.08

>  <SMR_VSA2>
0

>  <SMR_VSA3>
0

>  <SMR_VSA4>
28.58

>  <SMR_VSA5>
63.33

>  <SMR_VSA6>
6.61

>  <SMR_VSA7>
23.8

>  <SMR_VSA8>
0

>  <SMR_VSA9>
0

>  <SlogP_VSA1>
0

>  <SlogP_VSA2>
56.79

>  <SlogP_VSA3>
9.59

>  <SlogP_VSA4>
28.58

>  <SlogP_VSA5>
40.03

>  <SlogP_VSA6>
23.8

>  <SlogP_VSA7>
0

>  <SlogP_VSA8>
0

>  <SlogP_VSA9>
0

>  <SlogP_VSA10>
13.17

>  <SlogP_VSA11>
0

>  <EState_VSA1>
82.05

>  <EState_VSA2>
12.84

>  <EState_VSA3>
0

>  <EState_VSA4>
18.23

>  <EState_VSA5>
13.85

>  <EState_VSA6>
6.92

>  <EState_VSA7>
0

>  <EState_VSA8>
0

>  <EState_VSA9>
0

>  <EState_VSA10>
24.91

>  <VSA_EState1>
47.37

>  <VSA_EState2>
24.31

>  <VSA_EState3>
31.79

>  <VSA_EState4>
-8.49

>  <VSA_EState5>
-7.88

>  <VSA_EState6>
0

>  <VSA_EState7>
0.03

>  <VSA_EState8>
3.44

>  <VSA_EState9>
0

>  <apol>
60.42

>  <bpol>
32.16

>  <nRing>
4

>  <nHRing>
0

>  <naRing>
0

>  <naHRing>
0

>  <nARing 2>
4

>  <nAHRing 2>
0

>  <nFRing>
1

>  <nFHRing>
0

>  <nFaRing>
0

>  <nFaHRing>
0

>  <nFARing 2>
1

>  <nFAHRing 2>
0

>  <nRot>
2

>  <SLogP>
2.14

>  <SMR>
100.27

>  <TopoPSA(NO)>
94.83

>  <TopoPSA>
94.83

>  <JGI1>
0.36

>  <JGI2>
0.16

>  <JGI3>
0.09

>  <JGI4>
0.06

>  <JGI5>
0.04

>  <Diameter>
12

>  <Radius>
6

>  <TMWC10>
145.64

>  <TSRW10>
82.52

>  <MW>
428.18

>  <AMW>
7.51

>  <WPath>
1952

>  <WPol>
76

>  <Zagreb1>
182

>  <Zagreb2>
239

>  <mZagreb2>
6.11

>  <yes>


>  <nAR-cont>
0.199399

>  <nHA-cont>
0.74523694

>  <MWHBN>
0.386613307

>  <MWHBN-cont>
0.528804909

>  <TPSA-cont>
0.338027714

>  <pka_cont>
0.97

>  <yes.1>


>  <BBB_SCORE>
2.898898731

>  <MMFF94 Energy>
169.49

$$$$
Compound 1040
Actelion Java MolfileCreator 2.0

  0  0  0  0  0  0              0 V3000
M  V30 BEGIN CTAB
M  V30 COUNTS 56 59 0 0 0
M  V30 BEGIN ATOM
M  V30 1 Cl 1.882 -5.4077 -2.865 0
M  V30 2 C 0.2096 -4.8397 -2.7315 0
M  V30 3 C 0.2012 -3.343 -2.5192 0
M  V30 4 O -0.0294 -2.5851 -3.4687 0
M  V30 5 C 0.5479 -2.7947 -1.0995 0
M  V30 6 O 0.4981 -3.882 -0.1836 0
M  V30 7 C -0.4262 -1.6574 -0.6109 0
M  V30 8 C 1.9482 -2.1104 -1.2196 0
M  V30 9 C 0.2006 -0.3861 -1.2164 0
M  V30 10 C -0.4359 -1.5429 0.937 0
M  V30 11 C -1.8782 -1.8825 -1.0806 0
M  V30 12 C 1.7067 -0.6025 -1.0111 0
M  V30 13 C 3.0528 -2.6329 -0.3065 0
M  V30 14 C -0.3817 0.9333 -0.6601 0
M  V30 15 C -1.0745 -0.2565 1.4802 0
M  V30 16 C -0.4279 1.0279 0.8966 0
M  V30 17 C 0.3461 2.1418 -1.27 0
M  V30 18 O -0.935 -0.3209 2.9025 0
M  V30 19 F 0.8768 1.0254 1.3424 0
M  V30 20 C -1.0669 2.4054 1.3801 0
M  V30 21 C -0.2862 3.4593 -0.8463 0
M  V30 22 C -0.3385 3.5555 0.6563 0
M  V30 23 C -0.9791 2.5936 2.8949 0
M  V30 24 C -2.5764 2.4888 1.0492 0
M  V30 25 F 0.4563 4.4666 -1.3872 0
M  V30 26 C 0.2808 4.5678 1.2917 0
M  V30 27 C -0.3599 3.6024 3.5219 0
M  V30 28 C 0.3167 4.6676 2.7625 0
M  V30 29 O 0.8786 5.5954 3.3291 0
M  V30 30 H -0.3058 -5.072 -3.6681 0
M  V30 31 H -0.3081 -5.365 -1.9258 0
M  V30 32 H 1.0763 -3.7027 0.5765 0
M  V30 33 H 2.3216 -2.2265 -2.2464 0
M  V30 34 H 0.0203 -0.3772 -2.3001 0
M  V30 35 H -0.9612 -2.4031 1.3749 0
M  V30 36 H 0.5837 -1.612 1.3373 0
M  V30 37 H -1.9773 -1.8333 -2.1684 0
M  V30 38 H -2.5643 -1.1269 -0.6871 0
M  V30 39 H -2.2445 -2.8617 -0.7527 0
M  V30 40 H 2.2927 -0.0159 -1.7275 0
M  V30 41 H 2.0329 -0.2999 -0.0127 0
M  V30 42 H 2.8181 -2.4751 0.7508 0
M  V30 43 H 3.223 -3.7016 -0.4676 0
M  V30 44 H 3.9942 -2.1123 -0.5133 0
M  V30 45 H -1.4178 0.9697 -1.0217 0
M  V30 46 H -2.1475 -0.2686 1.2718 0
M  V30 47 H 1.4051 2.1444 -0.9821 0
M  V30 48 H 0.3338 2.0804 -2.3652 0
M  V30 49 H 0.0056 -0.1448 3.1021 0
M  V30 50 H -1.2924 3.5563 -1.2661 0
M  V30 51 H -1.4973 1.8706 3.522 0
M  V30 52 H -2.983 3.477 1.3015 0
M  V30 53 H -2.7913 2.3203 -0.0096 0
M  V30 54 H -3.1576 1.7527 1.6166 0
M  V30 55 H 0.8064 5.3563 0.7626 0
M  V30 56 H -0.3423 3.6947 4.6013 0
M  V30 END ATOM
M  V30 BEGIN BOND
M  V30 1 1 1 2
M  V30 2 1 2 3
M  V30 3 2 3 4
M  V30 4 1 3 5
M  V30 5 1 5 6
M  V30 6 1 5 7
M  V30 7 1 5 8
M  V30 8 1 7 9
M  V30 9 1 7 10
M  V30 10 1 7 11
M  V30 11 1 8 12
M  V30 12 1 8 13
M  V30 13 1 9 14
M  V30 14 1 10 15
M  V30 15 1 14 16
M  V30 16 1 14 17
M  V30 17 1 15 18
M  V30 18 1 16 19
M  V30 19 1 16 20
M  V30 20 1 17 21
M  V30 21 1 20 22
M  V30 22 1 20 23
M  V30 23 1 20 24
M  V30 24 1 21 25
M  V30 25 2 22 26
M  V30 26 2 23 27
M  V30 27 1 26 28
M  V30 28 2 28 29
M  V30 29 1 9 12
M  V30 30 1 15 16
M  V30 31 1 21 22
M  V30 32 1 27 28
M  V30 33 1 2 30
M  V30 34 1 2 31
M  V30 35 1 6 32
M  V30 36 1 8 33
M  V30 37 1 9 34
M  V30 38 1 10 35
M  V30 39 1 10 36
M  V30 40 1 11 37
M  V30 41 1 11 38
M  V30 42 1 11 39
M  V30 43 1 12 40
M  V30 44 1 12 41
M  V30 45 1 13 42
M  V30 46 1 13 43
M  V30 47 1 13 44
M  V30 48 1 14 45
M  V30 49 1 15 46
M  V30 50 1 17 47
M  V30 51 1 17 48
M  V30 52 1 18 49
M  V30 53 1 21 50
M  V30 54 1 23 51
M  V30 55 1 24 52
M  V30 56 1 24 53
M  V30 57 1 24 54
M  V30 58 1 26 55
M  V30 59 1 27 56
M  V30 END BOND
M  V30 END CTAB
M  END
>  <Column 1>
1242

>  <level_0>
1385

>  <index>
1385

>  <Unnamed: 0>
1385

>  <NO.>
1397

>  <Name>
ft-0778082

>  <IUPAC_name>
17-(2-chloroacetyl)-6-9-difluoro-11-17-dihydroxy-10-13-16-trimethyl-6-7-8-11-12-14-15-16-octahydrocyclopenta[a]phenanthren-3-one

>  <SMILES>
CC1CC2C3CC(F)C4=CC(=O)C=CC4(C)C3(F)C(O)CC2(C)C1(O)C(=O)CCl

>  <CID>
78383862

>  <logBB>


>  <BBB+/BBB->
BBB+

>  <Inchi>
InChI=1S/C22H27ClF2O4/c1-11-6-13-14-8-16(24)15-7-12(26)4-5-19(15-2)21(14-25)17(27)9-20(13-3)22(11-29)18(28)10-23/h4-5-7-11-13-14-16-17-27-29H-6-8-10H2-1-3H3

>  <threshold>
-1

>  <reference>
R1|R19|R27|R27|R30|

>  <group>
B

>  <Class>
1

>  <ABC>
23.17

>  <ABCGG>
19.7

>  <nAcid>
0

>  <nBase>
0

>  <nAromAtom>
0

>  <nAromBond>
0

>  <nAtom>
56

>  <nHeavyAtom>
29

>  <nSpiro>
0

>  <nBridgehead>
0

>  <nHetero>
7

>  <nN>
0

>  <nO>
4

>  <nF>
2

>  <BalabanJ>
1.8

>  <BertzCT>
842.67

>  <nBonds>
59

>  <nBondsO>
32

>  <nBondsS>
55

>  <nBondsD>
4

>  <nBondsT>
0

>  <nBondsA>
0

>  <nBondsM>
4

>  <nBondsKS>
55

>  <nBondsKD>
4

>  <RNCG>
0.17

>  <RPCG>
0.09

>  <FCSP3>
0.73

>  <SZ>
37.67

>  <Sm>
35.71

>  <Sv>
34.56

>  <Sse>
56.99

>  <Sp>
36.67

>  <Si>
63.69

>  <MZ>
0.67

>  <Mm>
0.64

>  <Mv>
0.62

>  <Mse>
1.02

>  <Mp>
0.65

>  <Mi>
1.14

>  <NsCH3>
3

>  <NdCH2>
0

>  <NssCH2>
4

>  <NtCH>
0

>  <NdsCH>
3

>  <NaaCH>
0

>  <NsssCH>
5

>  <NddC>
0

>  <NtsC>
0

>  <NdssC>
3

>  <NaasC>
0

>  <NaaaC>
0

>  <NssssC>
4

>  <NsNH3>
0

>  <NsNH2>
0

>  <NssNH2>
0

>  <NdNH>
0

>  <NssNH>
0

>  <NaaNH>
0

>  <NtN>
0

>  <NsssNH>
0

>  <NdsN>
0

>  <NaaN>
0

>  <NsssN>
0

>  <NddsN>
0

>  <NaasN>
0

>  <NssssN>
0

>  <NsOH>
2

>  <NdO>
2

>  <NssO>
0

>  <NaaO>
0

>  <NsF>
2

>  <NsSiH3>
0

>  <NssSiH2>
0

>  <NsssSiH>
0

>  <NssssSi>
0

>  <NsPH2>
0

>  <NssPH>
0

>  <NsssP>
0

>  <NdsssP>
0

>  <NsssssP>
0

>  <NsSH>
0

>  <NdS>
0

>  <NssS>
0

>  <NaaS>
0

>  <NdssS>
0

>  <NddssS>
0

>  <NsCl>
1

>  <NsBr>
0

>  <NsI>
0

>  <fragCpx>
212.07

>  <fMF>
0.3

>  <nHBAcc>
4

>  <nHBDon>
2

>  <Kier1>
22.2

>  <Kier2>
6.75

>  <Lipinski>
1

>  <GhoseFilter>
1

>  <FilterItLogS>
-4

>  <VMcGowan>
299.44

>  <LabuteASA>
173.55

>  <PEOE_VSA1>
10.21

>  <PEOE_VSA2>
9.59

>  <PEOE_VSA3>
8.78

>  <PEOE_VSA4>
0

>  <PEOE_VSA5>
11.6

>  <PEOE_VSA6>
19.92

>  <PEOE_VSA7>
55.75

>  <PEOE_VSA8>
16.75

>  <PEOE_VSA9>
11.98

>  <PEOE_VSA10>
11.77

>  <PEOE_VSA11>
17.24

>  <PEOE_VSA12>
0

>  <PEOE_VSA13>
0

>  <SMR_VSA1>
28.58

>  <SMR_VSA2>
0

>  <SMR_VSA3>
0

>  <SMR_VSA4>
28.58

>  <SMR_VSA5>
63.58

>  <SMR_VSA6>
5.88

>  <SMR_VSA7>
23.8

>  <SMR_VSA8>
0

>  <SMR_VSA9>
0

>  <SlogP_VSA1>
0

>  <SlogP_VSA2>
51.21

>  <SlogP_VSA3>
9.59

>  <SlogP_VSA4>
28.58

>  <SlogP_VSA5>
40.03

>  <SlogP_VSA6>
23.8

>  <SlogP_VSA7>
0

>  <SlogP_VSA8>
0

>  <SlogP_VSA9>
0

>  <SlogP_VSA10>
8.78

>  <SlogP_VSA11>
0

>  <EState_VSA1>
63.7

>  <EState_VSA2>
24.29

>  <EState_VSA3>
6.42

>  <EState_VSA4>
6.08

>  <EState_VSA5>
19.08

>  <EState_VSA6>
13.85

>  <EState_VSA7>
0

>  <EState_VSA8>
0

>  <EState_VSA9>
11.6

>  <EState_VSA10>
19.8

>  <VSA_EState1>
32.14

>  <VSA_EState2>
24.48

>  <VSA_EState3>
22.55

>  <VSA_EState4>
-6.54

>  <VSA_EState5>
-3.24

>  <VSA_EState6>
0

>  <VSA_EState7>
0.67

>  <VSA_EState8>
4.94

>  <VSA_EState9>
0

>  <apol>
61.25

>  <bpol>
31.56

>  <nRing>
4

>  <nHRing>
0

>  <naRing>
0

>  <naHRing>
0

>  <nARing 2>
4

>  <nAHRing 2>
0

>  <nFRing>
1

>  <nFHRing>
0

>  <nFaRing>
0

>  <nFaHRing>
0

>  <nFARing 2>
1

>  <nFAHRing 2>
0

>  <nRot>
2

>  <SLogP>
3.09

>  <SMR>
103.86

>  <TopoPSA(NO)>
74.6

>  <TopoPSA>
74.6

>  <JGI1>
0.33

>  <JGI2>
0.16

>  <JGI3>
0.08

>  <JGI4>
0.06

>  <JGI5>
0.04

>  <Diameter>
12

>  <Radius>
6

>  <TMWC10>
143.1

>  <TSRW10>
81.26

>  <MW>
428.16

>  <AMW>
7.65

>  <WPath>
1810

>  <WPol>
73

>  <Zagreb1>
174

>  <Zagreb2>
229

>  <mZagreb2>
6.01

>  <yes>


>  <nAR-cont>
0.199399

>  <nHA-cont>
0.785905698

>  <MWHBN>
0.289966752

>  <MWHBN-cont>
0.869642386

>  <TPSA-cont>
0.479245676

>  <pka_cont>
0.97

>  <yes.1>


>  <BBB_SCORE>
3.733259629

>  <MMFF94 Energy>
158.79

$$$$
Compound 1041
Actelion Java MolfileCreator 2.0

  0  0  0  0  0  0              0 V3000
M  V30 BEGIN CTAB
M  V30 COUNTS 57 60 0 0 0
M  V30 BEGIN ATOM
M  V30 1 S -4.2761 2.6298 1.5608 0
M  V30 2 C -3.1573 2.2311 0.2551 0
M  V30 3 C -5.4535 3.5389 0.5457 0
M  V30 4 O -2.7522 3.1098 -0.4956 0
M  V30 5 C -2.7046 0.7442 0.2071 0
M  V30 6 F -6.0198 2.6899 -0.3508 0
M  V30 7 O -3.6554 -0.1626 0.7797 0
M  V30 8 C -1.2992 0.4966 0.8636 0
M  V30 9 C -2.4786 0.3026 -1.263 0
M  V30 10 C -0.9177 -0.8744 0.2517 0
M  V30 11 C -0.2488 1.5603 0.472 0
M  V30 12 C -1.3825 0.4005 2.4008 0
M  V30 13 C -1.4318 -0.825 -1.2003 0
M  V30 14 C -3.7436 -0.1248 -2.0032 0
M  V30 15 C 0.5621 -1.2798 0.4413 0
M  V30 16 C 1.2035 1.1526 0.7545 0
M  V30 17 C 1.5924 -0.1757 0.0498 0
M  V30 18 C 0.8536 -2.6096 -0.2722 0
M  V30 19 O 2.0141 2.2481 0.3259 0
M  V30 20 F 1.4486 0.0521 -1.3008 0
M  V30 21 C 3.0931 -0.6641 0.2731 0
M  V30 22 C 2.2695 -3.0966 -0.0077 0
M  V30 23 C 3.2648 -2.0386 -0.4046 0
M  V30 24 C 4.1214 0.326 -0.2755 0
M  V30 25 C 3.43 -0.8091 1.7766 0
M  V30 26 F 2.4501 -4.2475 -0.7157 0
M  V30 27 C 4.1931 -2.302 -1.343 0
M  V30 28 C 5.0421 0.059 -1.211 0
M  V30 29 C 5.1468 -1.2804 -1.8133 0
M  V30 30 O 5.9926 -1.5343 -2.6605 0
M  V30 31 H -4.9832 4.3644 0.0048 0
M  V30 32 H -6.2502 3.9401 1.1773 0
M  V30 33 H -4.0202 0.2557 1.5817 0
M  V30 34 H -2.0385 1.1254 -1.8411 0
M  V30 35 H -1.5145 -1.6502 0.7565 0
M  V30 36 H -0.455 2.5028 0.9974 0
M  V30 37 H -0.3237 1.8154 -0.592 0
M  V30 38 H -2.0937 -0.3655 2.7268 0
M  V30 39 H -1.695 1.3543 2.8378 0
M  V30 40 H -0.4196 0.1386 2.8494 0
M  V30 41 H -0.6368 -0.6134 -1.9211 0
M  V30 42 H -1.857 -1.7969 -1.4773 0
M  V30 43 H -4.4842 0.6814 -2.0036 0
M  V30 44 H -3.5103 -0.3675 -3.0454 0
M  V30 45 H -4.2028 -1.0112 -1.5538 0
M  V30 46 H 0.6803 -1.4673 1.5169 0
M  V30 47 H 1.3499 1.0619 1.8346 0
M  V30 48 H 0.7062 -2.5146 -1.3553 0
M  V30 49 H 0.1467 -3.3806 0.0586 0
M  V30 50 H 1.9381 2.2933 -0.6477 0
M  V30 51 H 2.3965 -3.3594 1.0471 0
M  V30 52 H 4.1392 1.3244 0.1564 0
M  V30 53 H 3.4294 0.1608 2.2877 0
M  V30 54 H 4.4284 -1.2428 1.9192 0
M  V30 55 H 2.7253 -1.4531 2.3105 0
M  V30 56 H 4.2821 -3.2716 -1.8222 0
M  V30 57 H 5.7575 0.7979 -1.5517 0
M  V30 END ATOM
M  V30 BEGIN BOND
M  V30 1 1 1 2
M  V30 2 1 1 3
M  V30 3 2 2 4
M  V30 4 1 2 5
M  V30 5 1 3 6
M  V30 6 1 5 7
M  V30 7 1 5 8
M  V30 8 1 5 9
M  V30 9 1 8 10
M  V30 10 1 8 11
M  V30 11 1 8 12
M  V30 12 1 9 13
M  V30 13 1 9 14
M  V30 14 1 10 15
M  V30 15 1 11 16
M  V30 16 1 15 17
M  V30 17 1 15 18
M  V30 18 1 16 19
M  V30 19 1 17 20
M  V30 20 1 17 21
M  V30 21 1 18 22
M  V30 22 1 21 23
M  V30 23 1 21 24
M  V30 24 1 21 25
M  V30 25 1 22 26
M  V30 26 2 23 27
M  V30 27 2 24 28
M  V30 28 1 27 29
M  V30 29 2 29 30
M  V30 30 1 10 13
M  V30 31 1 16 17
M  V30 32 1 22 23
M  V30 33 1 28 29
M  V30 34 1 3 31
M  V30 35 1 3 32
M  V30 36 1 7 33
M  V30 37 1 9 34
M  V30 38 1 10 35
M  V30 39 1 11 36
M  V30 40 1 11 37
M  V30 41 1 12 38
M  V30 42 1 12 39
M  V30 43 1 12 40
M  V30 44 1 13 41
M  V30 45 1 13 42
M  V30 46 1 14 43
M  V30 47 1 14 44
M  V30 48 1 14 45
M  V30 49 1 15 46
M  V30 50 1 16 47
M  V30 51 1 18 48
M  V30 52 1 18 49
M  V30 53 1 19 50
M  V30 54 1 22 51
M  V30 55 1 24 52
M  V30 56 1 25 53
M  V30 57 1 25 54
M  V30 58 1 25 55
M  V30 59 1 27 56
M  V30 60 1 28 57
M  V30 END BOND
M  V30 END CTAB
M  END
>  <Column 1>
1243

>  <level_0>
1386

>  <index>
1386

>  <Unnamed: 0>
1386

>  <NO.>
1398

>  <Name>
90566-53-3

>  <IUPAC_name>
s-(fluoromethyl) 6-9-difluoro-11-17-dihydroxy-10-13-16-trimethyl-3-oxo-6-7-8-11-12-14-15-16-octahydrocyclopenta[a]phenanthrene-17-carbothioate

>  <SMILES>
CC1CC2C3CC(F)C4=CC(=O)C=CC4(C)C3(F)C(O)CC2(C)C1(O)C(=O)SCF

>  <CID>
4659387

>  <logBB>


>  <BBB+/BBB->
BBB+

>  <Inchi>
InChI=1S/C22H27F3O4S/c1-11-6-13-14-8-16(24)15-7-12(26)4-5-19(15-2)21(14-25)17(27)9-20(13-3)22(11-29)18(28)30-10-23/h4-5-7-11-13-14-16-17-27-29H-6-8-10H2-1-3H3

>  <threshold>
-1

>  <reference>
R1|R19|R27|R27|R30|

>  <group>
B

>  <Class>
1

>  <ABC>
23.88

>  <ABCGG>
20.16

>  <nAcid>
0

>  <nBase>
0

>  <nAromAtom>
0

>  <nAromBond>
0

>  <nAtom>
57

>  <nHeavyAtom>
30

>  <nSpiro>
0

>  <nBridgehead>
0

>  <nHetero>
8

>  <nN>
0

>  <nO>
4

>  <nF>
3

>  <BalabanJ>
1.78

>  <BertzCT>
861.32

>  <nBonds>
60

>  <nBondsO>
33

>  <nBondsS>
56

>  <nBondsD>
4

>  <nBondsT>
0

>  <nBondsA>
0

>  <nBondsM>
4

>  <nBondsKS>
56

>  <nBondsKD>
4

>  <RNCG>
0.16

>  <RPCG>
0.09

>  <FCSP3>
0.73

>  <SZ>
39

>  <Sm>
37.01

>  <Sv>
35.3

>  <Sse>
58.26

>  <Sp>
37.44

>  <Si>
65.01

>  <MZ>
0.68

>  <Mm>
0.65

>  <Mv>
0.62

>  <Mse>
1.02

>  <Mp>
0.66

>  <Mi>
1.14

>  <NsCH3>
3

>  <NdCH2>
0

>  <NssCH2>
4

>  <NtCH>
0

>  <NdsCH>
3

>  <NaaCH>
0

>  <NsssCH>
5

>  <NddC>
0

>  <NtsC>
0

>  <NdssC>
3

>  <NaasC>
0

>  <NaaaC>
0

>  <NssssC>
4

>  <NsNH3>
0

>  <NsNH2>
0

>  <NssNH2>
0

>  <NdNH>
0

>  <NssNH>
0

>  <NaaNH>
0

>  <NtN>
0

>  <NsssNH>
0

>  <NdsN>
0

>  <NaaN>
0

>  <NsssN>
0

>  <NddsN>
0

>  <NaasN>
0

>  <NssssN>
0

>  <NsOH>
2

>  <NdO>
2

>  <NssO>
0

>  <NaaO>
0

>  <NsF>
3

>  <NsSiH3>
0

>  <NssSiH2>
0

>  <NsssSiH>
0

>  <NssssSi>
0

>  <NsPH2>
0

>  <NssPH>
0

>  <NsssP>
0

>  <NdsssP>
0

>  <NsssssP>
0

>  <NsSH>
0

>  <NdS>
0

>  <NssS>
1

>  <NaaS>
0

>  <NdssS>
0

>  <NddssS>
0

>  <NsCl>
0

>  <NsBr>
0

>  <NsI>
0

>  <fragCpx>
219.08

>  <fMF>
0.3

>  <nHBAcc>
5

>  <nHBDon>
2

>  <Kier1>
23.17

>  <Kier2>
7.25

>  <Lipinski>
1

>  <GhoseFilter>
1

>  <FilterItLogS>
-3.76

>  <VMcGowan>
305.31

>  <LabuteASA>
177.53

>  <PEOE_VSA1>
10.21

>  <PEOE_VSA2>
9.59

>  <PEOE_VSA3>
13.17

>  <PEOE_VSA4>
0

>  <PEOE_VSA5>
0

>  <PEOE_VSA6>
31.69

>  <PEOE_VSA7>
55.75

>  <PEOE_VSA8>
16.75

>  <PEOE_VSA9>
6.1

>  <PEOE_VSA10>
17.78

>  <PEOE_VSA11>
11.45

>  <PEOE_VSA12>
5.12

>  <PEOE_VSA13>
0

>  <SMR_VSA1>
32.97

>  <SMR_VSA2>
0

>  <SMR_VSA3>
0

>  <SMR_VSA4>
28.58

>  <SMR_VSA5>
63.58

>  <SMR_VSA6>
6.01

>  <SMR_VSA7>
23.8

>  <SMR_VSA8>
0

>  <SMR_VSA9>
0

>  <SlogP_VSA1>
0

>  <SlogP_VSA2>
50.66

>  <SlogP_VSA3>
9.59

>  <SlogP_VSA4>
28.58

>  <SlogP_VSA5>
40.03

>  <SlogP_VSA6>
23.8

>  <SlogP_VSA7>
0

>  <SlogP_VSA8>
0

>  <SlogP_VSA9>
0

>  <SlogP_VSA10>
13.17

>  <SlogP_VSA11>
0

>  <EState_VSA1>
69.03

>  <EState_VSA2>
24.84

>  <EState_VSA3>
11.76

>  <EState_VSA4>
6.08

>  <EState_VSA5>
19.08

>  <EState_VSA6>
13.85

>  <EState_VSA7>
0

>  <EState_VSA8>
0

>  <EState_VSA9>
0

>  <EState_VSA10>
24.19

>  <VSA_EState1>
45.09

>  <VSA_EState2>
24.57

>  <VSA_EState3>
21.85

>  <VSA_EState4>
-6.91

>  <VSA_EState5>
-2.57

>  <VSA_EState6>
-0.99

>  <VSA_EState7>
0.31

>  <VSA_EState8>
4.79

>  <VSA_EState9>
0

>  <apol>
62.52

>  <bpol>
34.62

>  <nRing>
4

>  <nHRing>
0

>  <naRing>
0

>  <naHRing>
0

>  <nARing 2>
4

>  <nAHRing 2>
0

>  <nFRing>
1

>  <nFHRing>
0

>  <nFaRing>
0

>  <nFaHRing>
0

>  <nFARing 2>
1

>  <nFAHRing 2>
0

>  <nRot>
2

>  <SLogP>
3.47

>  <SMR>
106.7

>  <TopoPSA(NO)>
74.6

>  <TopoPSA>
99.9

>  <JGI1>
0.32

>  <JGI2>
0.16

>  <JGI3>
0.08

>  <JGI4>
0.06

>  <JGI5>
0.04

>  <Diameter>
13

>  <Radius>
7

>  <TMWC10>
145.21

>  <TSRW10>
82.34

>  <MW>
444.16

>  <AMW>
7.79

>  <WPath>
2021

>  <WPol>
74

>  <Zagreb1>
178

>  <Zagreb2>
233

>  <mZagreb2>
6.26

>  <yes>


>  <nAR-cont>
0.199399

>  <nHA-cont>
0.74523694

>  <MWHBN>
0.332145458

>  <MWHBN-cont>
0.735292089

>  <TPSA-cont>
0.302635966

>  <pka_cont>
0.97

>  <yes.1>


>  <BBB_SCORE>
3.137846004

>  <MMFF94 Energy>
130.88

$$$$
Compound 1042
Actelion Java MolfileCreator 2.0

  0  0  0  0  0  0              0 V3000
M  V30 BEGIN CTAB
M  V30 COUNTS 56 59 0 0 0
M  V30 BEGIN ATOM
M  V30 1 Cl 5.3901 2.529 -2.3657 0
M  V30 2 C 3.7769 2.3956 -3.0914 0
M  V30 3 C 2.7427 2.4085 -1.9909 0
M  V30 4 O 2.0447 3.4113 -1.8068 0
M  V30 5 C 2.5839 1.122 -1.1191 0 CFG=2
M  V30 6 O 3.5597 0.152 -1.4843 0
M  V30 7 C 1.1549 0.4767 -1.2671 0
M  V30 8 C 2.688 1.5459 0.379 0
M  V30 9 C 0.3207 1.2368 -0.2181 0
M  V30 10 C 1.1748 -1.0385 -0.928 0
M  V30 11 C 0.5838 0.6451 -2.6918 0
M  V30 12 C 1.2785 1.3692 0.9745 0
M  V30 13 C 3.7385 0.8176 1.2147 0
M  V30 14 C -1.0562 0.5953 0.0845 0
M  V30 15 C -0.2159 -1.6562 -0.712 0
M  V30 16 C -1.0057 -0.9316 0.4214 0 CFG=1
M  V30 17 C -1.7874 1.3952 1.1749 0
M  V30 18 O -0.0373 -3.0504 -0.4548 0
M  V30 19 F -0.269 -1.0586 1.5772 0
M  V30 20 C -2.4508 -1.5201 0.742 0
M  V30 21 C -3.2017 0.8766 1.3909 0
M  V30 22 C -3.1607 -0.5855 1.7464 0
M  V30 23 C -2.3912 -2.9417 1.3043 0
M  V30 24 C -3.3226 -1.6119 -0.5325 0
M  V30 25 C -3.6812 -0.9965 2.9174 0
M  V30 26 C -2.9075 -3.3459 2.4725 0
M  V30 27 C -3.6116 -2.4032 3.3566 0
M  V30 28 O -4.1194 -2.7687 4.4092 0
M  V30 29 H 3.6228 3.2537 -3.7517 0
M  V30 30 H 3.7039 1.4812 -3.6853 0
M  V30 31 H 4.4406 0.479 -1.2199 0
M  V30 32 H 2.9319 2.6148 0.4451 0
M  V30 33 H 0.1232 2.253 -0.5877 0
M  V30 34 H 1.6859 -1.5896 -1.7295 0
M  V30 35 H 1.7759 -1.2328 -0.0306 0
M  V30 36 H -0.3959 0.1734 -2.8073 0
M  V30 37 H 1.2539 0.1977 -3.4342 0
M  V30 38 H 0.4402 1.6969 -2.9581 0
M  V30 39 H 1.253 0.4921 1.625 0
M  V30 40 H 1.0135 2.2311 1.5976 0
M  V30 41 H 4.7479 1.0384 0.8535 0
M  V30 42 H 3.5945 -0.2669 1.1939 0
M  V30 43 H 3.6877 1.1412 2.2602 0
M  V30 44 H -1.6448 0.7064 -0.8363 0
M  V30 45 H -0.7847 -1.5971 -1.6443 0
M  V30 46 H -1.8376 2.4535 0.8906 0
M  V30 47 H -1.2345 1.3462 2.1215 0
M  V30 48 H 0.6338 -3.3953 -1.0687 0
M  V30 49 H -3.6792 1.4688 2.1813 0
M  V30 50 H -3.8063 1.0263 0.4892 0
M  V30 51 H -1.9081 -3.702 0.6967 0
M  V30 52 H -4.3515 -1.9085 -0.29 0
M  V30 53 H -2.9356 -2.3584 -1.2359 0
M  V30 54 H -3.3833 -0.6616 -1.0713 0
M  V30 55 H -4.1632 -0.3225 3.6166 0
M  V30 56 H -2.8404 -4.3715 2.8133 0
M  V30 END ATOM
M  V30 BEGIN BOND
M  V30 1 1 1 2
M  V30 2 1 2 3
M  V30 3 2 3 4
M  V30 4 1 3 5
M  V30 5 1 5 6
M  V30 6 1 5 7
M  V30 7 1 5 8
M  V30 8 1 7 9
M  V30 9 1 7 10
M  V30 10 1 7 11
M  V30 11 1 8 12
M  V30 12 1 8 13
M  V30 13 1 9 14
M  V30 14 1 10 15
M  V30 15 1 14 16
M  V30 16 1 14 17
M  V30 17 1 15 18
M  V30 18 1 16 19
M  V30 19 1 16 20
M  V30 20 1 17 21
M  V30 21 1 20 22
M  V30 22 1 20 23
M  V30 23 1 20 24
M  V30 24 2 22 25
M  V30 25 2 23 26
M  V30 26 1 25 27
M  V30 27 2 27 28
M  V30 28 1 9 12
M  V30 29 1 15 16
M  V30 30 1 21 22
M  V30 31 1 26 27
M  V30 32 1 2 29
M  V30 33 1 2 30
M  V30 34 1 6 31
M  V30 35 1 8 32
M  V30 36 1 9 33
M  V30 37 1 10 34
M  V30 38 1 10 35
M  V30 39 1 11 36
M  V30 40 1 11 37
M  V30 41 1 11 38
M  V30 42 1 12 39
M  V30 43 1 12 40
M  V30 44 1 13 41
M  V30 45 1 13 42
M  V30 46 1 13 43
M  V30 47 1 14 44
M  V30 48 1 15 45
M  V30 49 1 17 46
M  V30 50 1 17 47
M  V30 51 1 18 48
M  V30 52 1 21 49
M  V30 53 1 21 50
M  V30 54 1 23 51
M  V30 55 1 24 52
M  V30 56 1 24 53
M  V30 57 1 24 54
M  V30 58 1 25 55
M  V30 59 1 26 56
M  V30 END BOND
M  V30 BEGIN COLLECTION
M  V30 MDLV30/STEABS ATOMS=(2 5 16)
M  V30 END COLLECTION
M  V30 END CTAB
M  END
>  <Column 1>
1244

>  <level_0>
1387

>  <index>
1387

>  <Unnamed: 0>
1387

>  <NO.>
1399

>  <Name>
clobetasol

>  <IUPAC_name>
(9r-17r)-17-(2-chloroacetyl)-9-fluoro-11-17-dihydroxy-10-13-16-trimethyl-6-7-8-11-12-14-15-16-octahydrocyclopenta[a]phenanthren-3-one

>  <SMILES>
CC1CC2C3CCC4=CC(=O)C=CC4(C)[C@@]3(F)C(O)CC2(C)[C@@]1(O)C(=O)CCl

>  <CID>
32797

>  <logBB>


>  <BBB+/BBB->
BBB+

>  <Inchi>
InChI=1S/C22H28ClFO4/c1-12-8-16-15-5-4-13-9-14(25)6-7-19(13-2)21(15-24)17(26)10-20(16-3)22(12-28)18(27)11-23/h6-7-9-12-15-17-26-28H-4-5-8-10-11H2-1-3H3/t12?-15?-16?-17?-19?-20?-21--22-/m0/s1

>  <threshold>
-1

>  <reference>
R1|R27|R30|

>  <group>
B

>  <Class>
1

>  <ABC>
22.39

>  <ABCGG>
18.86

>  <nAcid>
0

>  <nBase>
0

>  <nAromAtom>
0

>  <nAromBond>
0

>  <nAtom>
56

>  <nHeavyAtom>
28

>  <nSpiro>
0

>  <nBridgehead>
0

>  <nHetero>
6

>  <nN>
0

>  <nO>
4

>  <nF>
1

>  <BalabanJ>
1.77

>  <BertzCT>
808.36

>  <nBonds>
59

>  <nBondsO>
31

>  <nBondsS>
55

>  <nBondsD>
4

>  <nBondsT>
0

>  <nBondsA>
0

>  <nBondsM>
4

>  <nBondsKS>
55

>  <nBondsKD>
4

>  <RNCG>
0.18

>  <RPCG>
0.1

>  <FCSP3>
0.73

>  <SZ>
36.33

>  <Sm>
34.21

>  <Sv>
34.18

>  <Sse>
56.47

>  <Sp>
36.74

>  <Si>
63.35

>  <MZ>
0.65

>  <Mm>
0.61

>  <Mv>
0.61

>  <Mse>
1.01

>  <Mp>
0.66

>  <Mi>
1.13

>  <NsCH3>
3

>  <NdCH2>
0

>  <NssCH2>
5

>  <NtCH>
0

>  <NdsCH>
3

>  <NaaCH>
0

>  <NsssCH>
4

>  <NddC>
0

>  <NtsC>
0

>  <NdssC>
3

>  <NaasC>
0

>  <NaaaC>
0

>  <NssssC>
4

>  <NsNH3>
0

>  <NsNH2>
0

>  <NssNH2>
0

>  <NdNH>
0

>  <NssNH>
0

>  <NaaNH>
0

>  <NtN>
0

>  <NsssNH>
0

>  <NdsN>
0

>  <NaaN>
0

>  <NsssN>
0

>  <NddsN>
0

>  <NaasN>
0

>  <NssssN>
0

>  <NsOH>
2

>  <NdO>
2

>  <NssO>
0

>  <NaaO>
0

>  <NsF>
1

>  <NsSiH3>
0

>  <NssSiH2>
0

>  <NsssSiH>
0

>  <NssssSi>
0

>  <NsPH2>
0

>  <NssPH>
0

>  <NsssP>
0

>  <NdsssP>
0

>  <NsssssP>
0

>  <NsSH>
0

>  <NdS>
0

>  <NssS>
0

>  <NaaS>
0

>  <NdssS>
0

>  <NddssS>
0

>  <NsCl>
1

>  <NsBr>
0

>  <NsI>
0

>  <fragCpx>
205.06

>  <fMF>
0.3

>  <nHBAcc>
4

>  <nHBDon>
2

>  <Kier1>
21.24

>  <Kier2>
6.5

>  <Lipinski>
1

>  <GhoseFilter>
1

>  <FilterItLogS>
-3.97

>  <VMcGowan>
297.68

>  <LabuteASA>
169.38

>  <PEOE_VSA1>
10.21

>  <PEOE_VSA2>
9.59

>  <PEOE_VSA3>
4.39

>  <PEOE_VSA4>
0

>  <PEOE_VSA5>
11.6

>  <PEOE_VSA6>
25.5

>  <PEOE_VSA7>
56.59

>  <PEOE_VSA8>
16.75

>  <PEOE_VSA9>
11.98

>  <PEOE_VSA10>
5.6

>  <PEOE_VSA11>
17.24

>  <PEOE_VSA12>
0

>  <PEOE_VSA13>
0

>  <SMR_VSA1>
24.19

>  <SMR_VSA2>
0

>  <SMR_VSA3>
0

>  <SMR_VSA4>
28.58

>  <SMR_VSA5>
63.83

>  <SMR_VSA6>
5.88

>  <SMR_VSA7>
23.8

>  <SMR_VSA8>
0

>  <SMR_VSA9>
0

>  <SlogP_VSA1>
0

>  <SlogP_VSA2>
45.03

>  <SlogP_VSA3>
9.59

>  <SlogP_VSA4>
28.58

>  <SlogP_VSA5>
46.45

>  <SlogP_VSA6>
23.8

>  <SlogP_VSA7>
0

>  <SlogP_VSA8>
0

>  <SlogP_VSA9>
0

>  <SlogP_VSA10>
4.39

>  <SlogP_VSA11>
0

>  <EState_VSA1>
39.9

>  <EState_VSA2>
29.92

>  <EState_VSA3>
19.26

>  <EState_VSA4>
5.57

>  <EState_VSA5>
12.15

>  <EState_VSA6>
13

>  <EState_VSA7>
13.85

>  <EState_VSA8>
0

>  <EState_VSA9>
11.6

>  <EState_VSA10>
19.8

>  <VSA_EState1>
16.88

>  <VSA_EState2>
24.51

>  <VSA_EState3>
22.61

>  <VSA_EState4>
-4.9

>  <VSA_EState5>
-2.03

>  <VSA_EState6>
0

>  <VSA_EState7>
4.69

>  <VSA_EState8>
5.38

>  <VSA_EState9>
0

>  <apol>
61.36

>  <bpol>
31.45

>  <nRing>
4

>  <nHRing>
0

>  <naRing>
0

>  <naHRing>
0

>  <nARing 2>
4

>  <nAHRing 2>
0

>  <nFRing>
1

>  <nFHRing>
0

>  <nFaRing>
0

>  <nFaHRing>
0

>  <nFARing 2>
1

>  <nFAHRing 2>
0

>  <nRot>
2

>  <SLogP>
3.14

>  <SMR>
103.58

>  <TopoPSA(NO)>
74.6

>  <TopoPSA>
74.6

>  <JGI1>
0.32

>  <JGI2>
0.16

>  <JGI3>
0.08

>  <JGI4>
0.06

>  <JGI5>
0.04

>  <Diameter>
12

>  <Radius>
6

>  <TMWC10>
140.69

>  <TSRW10>
80.08

>  <MW>
410.17

>  <AMW>
7.32

>  <WPath>
1670

>  <WPol>
70

>  <Zagreb1>
168

>  <Zagreb2>
221

>  <mZagreb2>
5.82

>  <yes>


>  <nAR-cont>
0.199399

>  <nHA-cont>
0.82432561

>  <MWHBN>
0.296257466

>  <MWHBN-cont>
0.85177444

>  <TPSA-cont>
0.479245676

>  <pka_cont>
0.97

>  <yes.1>


>  <BBB_SCORE>
3.744877622

>  <MMFF94 Energy>
164.54

$$$$
Compound 1043
Actelion Java MolfileCreator 2.0

  0  0  0  0  0  0              0 V3000
M  V30 BEGIN CTAB
M  V30 COUNTS 42 45 0 0 0
M  V30 BEGIN ATOM
M  V30 1 O -0.4803 -0.6405 1.5217 0
M  V30 2 C 0.2136 -1.507 0.7185 0
M  V30 3 C -0.4974 0.7298 1.103 0
M  V30 4 C 0.6384 -1.2116 -0.5863 0
M  V30 5 C 0.4676 -2.7532 1.2828 0
M  V30 6 O 0.775 1.3157 1.3863 0
M  V30 7 C -0.8053 0.8288 -0.3904 0
M  V30 8 C -1.5925 1.4683 1.9017 0
M  V30 9 C 1.3941 -2.1754 -1.3154 0
M  V30 10 C 0.3049 0.1374 -1.1797 0
M  V30 11 C 1.1797 -3.7119 0.5682 0
M  V30 12 C -0.9725 2.2854 -0.8242 0
M  V30 13 C -1.7524 2.9068 1.3847 0
M  V30 14 C -1.324 1.4822 3.4112 0
M  V30 15 C 1.6539 -3.4368 -0.7205 0
M  V30 16 C 1.9104 -1.9492 -2.6125 0
M  V30 17 N -2.0508 2.9259 -0.0554 0
M  V30 18 C 2.3869 -4.4097 -1.4204 0
M  V30 19 C 2.6401 -2.9257 -3.2955 0
M  V30 20 C -2.2555 4.301 -0.5148 0
M  V30 21 C 2.8763 -4.1569 -2.7001 0
M  V30 22 H 0.1155 -2.9776 2.2861 0
M  V30 23 H 1.0373 0.9207 2.2354 0
M  V30 24 H -1.7434 0.2881 -0.5909 0
M  V30 25 H -2.5426 0.9336 1.7576 0
M  V30 26 H -0.0405 0.0208 -2.2137 0
M  V30 27 H 1.2161 0.7482 -1.1935 0
M  V30 28 H 1.3688 -4.6768 1.033 0
M  V30 29 H -0.0299 2.8376 -0.7107 0
M  V30 30 H -1.2283 2.3026 -1.8913 0
M  V30 31 H -2.5812 3.3788 1.9282 0
M  V30 32 H -0.8507 3.4948 1.6034 0
M  V30 33 H -0.4187 2.0467 3.6574 0
M  V30 34 H -2.1599 1.9488 3.944 0
M  V30 35 H -1.2101 0.466 3.8019 0
M  V30 36 H 1.7561 -0.9967 -3.1133 0
M  V30 37 H 2.5855 -5.3792 -0.9683 0
M  V30 38 H 3.0227 -2.7192 -4.2915 0
M  V30 39 H -3.0884 4.7665 0.024 0
M  V30 40 H -2.523 4.3154 -1.5772 0
M  V30 41 H -1.3633 4.922 -0.3747 0
M  V30 42 H 3.4427 -4.9196 -3.2273 0
M  V30 END ATOM
M  V30 BEGIN BOND
M  V30 1 1 1 2
M  V30 2 1 1 3
M  V30 3 2 2 4
M  V30 4 1 2 5
M  V30 5 1 3 6
M  V30 6 1 3 7
M  V30 7 1 3 8
M  V30 8 1 4 9
M  V30 9 1 4 10
M  V30 10 2 5 11
M  V30 11 1 7 12
M  V30 12 1 8 13
M  V30 13 1 8 14
M  V30 14 1 9 15
M  V30 15 2 9 16
M  V30 16 1 12 17
M  V30 17 2 15 18
M  V30 18 1 16 19
M  V30 19 1 17 20
M  V30 20 1 18 21
M  V30 21 1 7 10
M  V30 22 1 11 15
M  V30 23 1 13 17
M  V30 24 2 19 21
M  V30 25 1 5 22
M  V30 26 1 6 23
M  V30 27 1 7 24
M  V30 28 1 8 25
M  V30 29 1 10 26
M  V30 30 1 10 27
M  V30 31 1 11 28
M  V30 32 1 12 29
M  V30 33 1 12 30
M  V30 34 1 13 31
M  V30 35 1 13 32
M  V30 36 1 14 33
M  V30 37 1 14 34
M  V30 38 1 14 35
M  V30 39 1 16 36
M  V30 40 1 18 37
M  V30 41 1 19 38
M  V30 42 1 20 39
M  V30 43 1 20 40
M  V30 44 1 20 41
M  V30 45 1 21 42
M  V30 END BOND
M  V30 END CTAB
M  END
>  <Column 1>
1245

>  <level_0>
1388

>  <index>
1388

>  <Unnamed: 0>
1388

>  <NO.>
1400

>  <Name>
naranol

>  <IUPAC_name>
13-15-dimethyl-11-oxa-15-azatetracyclo[8.8.0.02-7.012-17]octadeca-1(10)-2-4-6-8-pentaen-12-ol

>  <SMILES>
CC1CN(C)CC2Cc3c(ccc4ccccc34)OC12O

>  <CID>
31117

>  <logBB>


>  <BBB+/BBB->
BBB+

>  <Inchi>
InChI=1S/C18H21NO2/c1-12-10-19(2)11-14-9-16-15-6-4-3-5-13(15)7-8-17(16)21-18(12-14)20/h3-8-12-14-20H-9-11H2-1-2H3

>  <threshold>
-1

>  <reference>
R1|R19|R6|R27|R27|R30|

>  <group>
B

>  <Class>
1

>  <ABC>
17.1

>  <ABCGG>
13.01

>  <nAcid>
0

>  <nBase>
1

>  <nAromAtom>
10

>  <nAromBond>
11

>  <nAtom>
42

>  <nHeavyAtom>
21

>  <nSpiro>
0

>  <nBridgehead>
0

>  <nHetero>
3

>  <nN>
1

>  <nO>
2

>  <nF>
0

>  <BalabanJ>
1.57

>  <BertzCT>
698.68

>  <nBonds>
45

>  <nBondsO>
24

>  <nBondsS>
34

>  <nBondsD>
0

>  <nBondsT>
0

>  <nBondsA>
11

>  <nBondsM>
11

>  <nBondsKS>
40

>  <nBondsKD>
5

>  <RNCG>
0.3

>  <RPCG>
0.14

>  <FCSP3>
0.44

>  <SZ>
25.33

>  <Sm>
23.59

>  <Sv>
25.88

>  <Sse>
41.65

>  <Sp>
28

>  <Si>
47.07

>  <MZ>
0.6

>  <Mm>
0.56

>  <Mv>
0.62

>  <Mse>
0.99

>  <Mp>
0.67

>  <Mi>
1.12

>  <NsCH3>
2

>  <NdCH2>
0

>  <NssCH2>
3

>  <NtCH>
0

>  <NdsCH>
0

>  <NaaCH>
6

>  <NsssCH>
2

>  <NddC>
0

>  <NtsC>
0

>  <NdssC>
0

>  <NaasC>
2

>  <NaaaC>
2

>  <NssssC>
1

>  <NsNH3>
0

>  <NsNH2>
0

>  <NssNH2>
0

>  <NdNH>
0

>  <NssNH>
0

>  <NaaNH>
0

>  <NtN>
0

>  <NsssNH>
0

>  <NdsN>
0

>  <NaaN>
0

>  <NsssN>
1

>  <NddsN>
0

>  <NaasN>
0

>  <NssssN>
0

>  <NsOH>
1

>  <NdO>
0

>  <NssO>
1

>  <NaaO>
0

>  <NsF>
0

>  <NsSiH3>
0

>  <NssSiH2>
0

>  <NsssSiH>
0

>  <NssssSi>
0

>  <NsPH2>
0

>  <NssPH>
0

>  <NsssP>
0

>  <NdsssP>
0

>  <NsssssP>
0

>  <NsSH>
0

>  <NdS>
0

>  <NssS>
0

>  <NaaS>
0

>  <NdssS>
0

>  <NddssS>
0

>  <NsCl>
0

>  <NsBr>
0

>  <NsI>
0

>  <fragCpx>
156.03

>  <fMF>
0.43

>  <nHBAcc>
3

>  <nHBDon>
1

>  <Kier1>
14.58

>  <Kier2>
5.27

>  <Lipinski>
1

>  <GhoseFilter>
1

>  <FilterItLogS>
-3.62

>  <VMcGowan>
221.26

>  <LabuteASA>
124.69

>  <PEOE_VSA1>
14.74

>  <PEOE_VSA2>
0

>  <PEOE_VSA3>
0

>  <PEOE_VSA4>
0

>  <PEOE_VSA5>
0

>  <PEOE_VSA6>
37.26

>  <PEOE_VSA7>
30.31

>  <PEOE_VSA8>
30.49

>  <PEOE_VSA9>
0

>  <PEOE_VSA10>
5.75

>  <PEOE_VSA11>
0

>  <PEOE_VSA12>
5.79

>  <PEOE_VSA13>
0

>  <SMR_VSA1>
9.84

>  <SMR_VSA2>
0

>  <SMR_VSA3>
4.9

>  <SMR_VSA4>
11.84

>  <SMR_VSA5>
19.13

>  <SMR_VSA6>
20.14

>  <SMR_VSA7>
41.96

>  <SMR_VSA8>
0

>  <SMR_VSA9>
5.75

>  <SlogP_VSA1>
4.74

>  <SlogP_VSA2>
35.93

>  <SlogP_VSA3>
6.42

>  <SlogP_VSA4>
11.84

>  <SlogP_VSA5>
12.49

>  <SlogP_VSA6>
36.4

>  <SlogP_VSA7>
0

>  <SlogP_VSA8>
10.77

>  <SlogP_VSA9>
0

>  <SlogP_VSA10>
0

>  <SlogP_VSA11>
5.75

>  <EState_VSA1>
5.79

>  <EState_VSA2>
11.84

>  <EState_VSA3>
0

>  <EState_VSA4>
25.26

>  <EState_VSA5>
16.34

>  <EState_VSA6>
0

>  <EState_VSA7>
6.07

>  <EState_VSA8>
49.2

>  <EState_VSA9>
4.74

>  <EState_VSA10>
5.11

>  <VSA_EState1>
6.12

>  <VSA_EState2>
2.29

>  <VSA_EState3>
13.53

>  <VSA_EState4>
1.24

>  <VSA_EState5>
0.07

>  <VSA_EState6>
12.5

>  <VSA_EState7>
0.88

>  <VSA_EState8>
3.83

>  <VSA_EState9>
2.12

>  <apol>
46.77

>  <bpol>
24.51

>  <nRing>
4

>  <nHRing>
2

>  <naRing>
2

>  <naHRing>
0

>  <nARing 2>
2

>  <nAHRing 2>
2

>  <nFRing>
1

>  <nFHRing>
1

>  <nFaRing>
0

>  <nFaHRing>
0

>  <nFARing 2>
1

>  <nFAHRing 2>
1

>  <nRot>
0

>  <SLogP>
2.66

>  <SMR>
83.38

>  <TopoPSA(NO)>
32.7

>  <TopoPSA>
32.7

>  <JGI1>
0.23

>  <JGI2>
0.1

>  <JGI3>
0.05

>  <JGI4>
0.06

>  <JGI5>
0.02

>  <Diameter>
9

>  <Radius>
5

>  <TMWC10>
121.59

>  <TSRW10>
56.09

>  <MW>
283.16

>  <AMW>
6.74

>  <WPath>
822

>  <WPol>
41

>  <Zagreb1>
122

>  <Zagreb2>
151

>  <mZagreb2>
4.38

>  <yes>


>  <nAR-cont>
1

>  <nHA-cont>
0.994529749

>  <MWHBN>
0.237708132

>  <MWHBN-cont>
0.977981183

>  <TPSA-cont>
0.771733695

>  <pka_cont>
0.97

>  <yes.1>


>  <BBB_SCORE>
5.489968913

>  <MMFF94 Energy>
21.902

$$$$
Compound 1044
Actelion Java MolfileCreator 2.0

  0  0  0  0  0  0              0 V3000
M  V30 BEGIN CTAB
M  V30 COUNTS 51 54 0 0 0
M  V30 BEGIN ATOM
M  V30 1 N 2.063 -0.3964 1.1898 0
M  V30 2 C 2.9797 -1.2059 2.0212 0
M  V30 3 C 1.7976 0.8963 1.8543 0
M  V30 4 C 0.8352 -1.1512 0.9003 0
M  V30 5 C 4.2778 -0.4429 2.3972 0
M  V30 6 C 3.1018 1.6482 2.2417 0
M  V30 7 C -0.0555 -0.4721 -0.1449 0
M  V30 8 N 3.9954 0.8314 3.0879 0
M  V30 9 C 5.1605 -1.305 3.2985 0
M  V30 10 C 2.7695 2.9418 2.9845 0
M  V30 11 C -1.2192 -1.3826 -0.5317 0
M  V30 12 N -2.1199 -0.748 -1.4836 0
M  V30 13 C -1.9824 -0.8158 -2.8569 0
M  V30 14 C -3.2327 -0.0058 -1.1352 0
M  V30 15 C -3.0529 -0.1087 -3.4072 0
M  V30 16 C -1.0097 -1.4332 -3.662 0
M  V30 17 C -3.8379 0.4002 -2.3259 0
M  V30 18 C -3.7583 0.3454 0.1204 0
M  V30 19 C -3.1608 -0.0223 -4.8119 0
M  V30 20 C -1.1389 -1.3315 -5.0502 0
M  V30 21 C -5.0135 1.179 -2.2605 0
M  V30 22 C -4.923 1.118 0.1573 0
M  V30 23 C -2.2002 -0.6372 -5.6205 0
M  V30 24 C -5.5452 1.5298 -1.0159 0
M  V30 25 H 2.468 -1.5296 2.9384 0
M  V30 26 H 3.2603 -2.1113 1.4686 0
M  V30 27 H 1.2294 1.5487 1.1821 0
M  V30 28 H 1.1863 0.7381 2.7535 0
M  V30 29 H 0.2616 -1.3288 1.8195 0
M  V30 30 H 1.1157 -2.1365 0.5058 0
M  V30 31 H 4.8435 -0.2272 1.4811 0
M  V30 32 H 3.6415 1.9184 1.3244 0
M  V30 33 H -0.4527 0.4724 0.244 0
M  V30 34 H 0.5344 -0.2265 -1.0368 0
M  V30 35 H 3.5161 0.6278 3.9645 0
M  V30 36 H 6.094 -0.7869 3.5444 0
M  V30 37 H 4.6549 -1.5559 4.2378 0
M  V30 38 H 5.4237 -2.2427 2.7975 0
M  V30 39 H 3.6811 3.497 3.232 0
M  V30 40 H 2.1431 3.5924 2.3649 0
M  V30 41 H 2.2296 2.7439 3.9173 0
M  V30 42 H -1.8061 -1.6674 0.3485 0
M  V30 43 H -0.8591 -2.3154 -0.9795 0
M  V30 44 H -0.1731 -1.9736 -3.2314 0
M  V30 45 H -3.2829 0.0344 1.0445 0
M  V30 46 H -3.9844 0.5217 -5.2644 0
M  V30 47 H -0.3969 -1.8009 -5.6918 0
M  V30 48 H -5.5028 1.5071 -3.1727 0
M  V30 49 H -5.3473 1.4009 1.1178 0
M  V30 50 H -2.2841 -0.5679 -6.7019 0
M  V30 51 H -6.45 2.1303 -0.9683 0
M  V30 END ATOM
M  V30 BEGIN BOND
M  V30 1 1 1 2
M  V30 2 1 1 3
M  V30 3 1 1 4
M  V30 4 1 2 5
M  V30 5 1 3 6
M  V30 6 1 4 7
M  V30 7 1 5 8
M  V30 8 1 5 9
M  V30 9 1 6 10
M  V30 10 1 7 11
M  V30 11 1 11 12
M  V30 12 1 12 13
M  V30 13 1 12 14
M  V30 14 2 13 15
M  V30 15 1 13 16
M  V30 16 2 14 17
M  V30 17 1 14 18
M  V30 18 1 15 19
M  V30 19 2 16 20
M  V30 20 1 17 21
M  V30 21 2 18 22
M  V30 22 2 19 23
M  V30 23 2 21 24
M  V30 24 1 6 8
M  V30 25 1 15 17
M  V30 26 1 20 23
M  V30 27 1 22 24
M  V30 28 1 2 25
M  V30 29 1 2 26
M  V30 30 1 3 27
M  V30 31 1 3 28
M  V30 32 1 4 29
M  V30 33 1 4 30
M  V30 34 1 5 31
M  V30 35 1 6 32
M  V30 36 1 7 33
M  V30 37 1 7 34
M  V30 38 1 8 35
M  V30 39 1 9 36
M  V30 40 1 9 37
M  V30 41 1 9 38
M  V30 42 1 10 39
M  V30 43 1 10 40
M  V30 44 1 10 41
M  V30 45 1 11 42
M  V30 46 1 11 43
M  V30 47 1 16 44
M  V30 48 1 18 45
M  V30 49 1 19 46
M  V30 50 1 20 47
M  V30 51 1 21 48
M  V30 52 1 22 49
M  V30 53 1 23 50
M  V30 54 1 24 51
M  V30 END BOND
M  V30 END CTAB
M  END
>  <Column 1>
1246

>  <level_0>
1389

>  <index>
1389

>  <Unnamed: 0>
1389

>  <NO.>
1401

>  <Name>
9-[3-(3-5-dimethyl-1-piperazinyl)propyl]carbazole

>  <IUPAC_name>
9-[3-(3-5-dimethylpiperazin-1-yl)propyl]carbazole

>  <SMILES>
CC1CN(CCCn2c3ccccc3c3ccccc32)CC(C)N1

>  <CID>
5072

>  <logBB>


>  <BBB+/BBB->
BBB+

>  <Inchi>
InChI=1S/C21H27N3/c1-16-14-23(15-17(2)22-16)12-7-13-24-20-10-5-3-8-18(20)19-9-4-6-11-21(19)24/h3-6-8-11-16-17-22H-7-12-15H2-1-2H3

>  <threshold>
-1

>  <reference>
R1|R19|R27|R27|R30|

>  <group>
B

>  <Class>
1

>  <ABC>
19.11

>  <ABCGG>
14.63

>  <nAcid>
0

>  <nBase>
2

>  <nAromAtom>
13

>  <nAromBond>
15

>  <nAtom>
51

>  <nHeavyAtom>
24

>  <nSpiro>
0

>  <nBridgehead>
0

>  <nHetero>
3

>  <nN>
3

>  <nO>
0

>  <nF>
0

>  <BalabanJ>
1.33

>  <BertzCT>
772.09

>  <nBonds>
54

>  <nBondsO>
27

>  <nBondsS>
39

>  <nBondsD>
0

>  <nBondsT>
0

>  <nBondsA>
15

>  <nBondsM>
15

>  <nBondsKS>
48

>  <nBondsKD>
6

>  <RNCG>
0.23

>  <RPCG>
0.08

>  <FCSP3>
0.43

>  <SZ>
29

>  <Sm>
26.76

>  <Sv>
30.59

>  <Sse>
49.98

>  <Sp>
33.76

>  <Si>
57.48

>  <MZ>
0.57

>  <Mm>
0.52

>  <Mv>
0.6

>  <Mse>
0.98

>  <Mp>
0.66

>  <Mi>
1.13

>  <NsCH3>
2

>  <NdCH2>
0

>  <NssCH2>
5

>  <NtCH>
0

>  <NdsCH>
0

>  <NaaCH>
8

>  <NsssCH>
2

>  <NddC>
0

>  <NtsC>
0

>  <NdssC>
0

>  <NaasC>
0

>  <NaaaC>
4

>  <NssssC>
0

>  <NsNH3>
0

>  <NsNH2>
0

>  <NssNH2>
0

>  <NdNH>
0

>  <NssNH>
1

>  <NaaNH>
0

>  <NtN>
0

>  <NsssNH>
0

>  <NdsN>
0

>  <NaaN>
0

>  <NsssN>
1

>  <NddsN>
0

>  <NaasN>
1

>  <NssssN>
0

>  <NsOH>
0

>  <NdO>
0

>  <NssO>
0

>  <NaaO>
0

>  <NsF>
0

>  <NsSiH3>
0

>  <NssSiH2>
0

>  <NsssSiH>
0

>  <NssssSi>
0

>  <NsPH2>
0

>  <NssPH>
0

>  <NsssP>
0

>  <NdsssP>
0

>  <NsssssP>
0

>  <NsSH>
0

>  <NdS>
0

>  <NssS>
0

>  <NaaS>
0

>  <NdssS>
0

>  <NddssS>
0

>  <NsCl>
0

>  <NsBr>
0

>  <NsI>
0

>  <fragCpx>
177.03

>  <fMF>
0.43

>  <nHBAcc>
3

>  <nHBDon>
1

>  <Kier1>
17.42

>  <Kier2>
7.71

>  <Lipinski>
1

>  <GhoseFilter>
1

>  <FilterItLogS>
-4.93

>  <VMcGowan>
267.45

>  <LabuteASA>
143.8

>  <PEOE_VSA1>
14.78

>  <PEOE_VSA2>
0

>  <PEOE_VSA3>
0

>  <PEOE_VSA4>
0

>  <PEOE_VSA5>
0

>  <PEOE_VSA6>
36.4

>  <PEOE_VSA7>
38.95

>  <PEOE_VSA8>
53.52

>  <PEOE_VSA9>
0

>  <PEOE_VSA10>
0

>  <PEOE_VSA11>
0

>  <PEOE_VSA12>
0

>  <PEOE_VSA13>
0

>  <SMR_VSA1>
0

>  <SMR_VSA2>
0

>  <SMR_VSA3>
14.78

>  <SMR_VSA4>
0

>  <SMR_VSA5>
38.9

>  <SMR_VSA6>
19.63

>  <SMR_VSA7>
48.53

>  <SMR_VSA8>
0

>  <SMR_VSA9>
0

>  <SlogP_VSA1>
5.32

>  <SlogP_VSA2>
41.18

>  <SlogP_VSA3>
6.54

>  <SlogP_VSA4>
0

>  <SlogP_VSA5>
20.27

>  <SlogP_VSA6>
48.53

>  <SlogP_VSA7>
0

>  <SlogP_VSA8>
21.81

>  <SlogP_VSA9>
0

>  <SlogP_VSA10>
0

>  <SlogP_VSA11>
0

>  <EState_VSA1>
0

>  <EState_VSA2>
0

>  <EState_VSA3>
12.08

>  <EState_VSA4>
19.63

>  <EState_VSA5>
34.77

>  <EState_VSA6>
0

>  <EState_VSA7>
0

>  <EState_VSA8>
77.16

>  <EState_VSA9>
0

>  <EState_VSA10>
0

>  <VSA_EState1>
2.5

>  <VSA_EState2>
2.61

>  <VSA_EState3>
6.36

>  <VSA_EState4>
2.72

>  <VSA_EState5>
0

>  <VSA_EState6>
18.78

>  <VSA_EState7>
1.2

>  <VSA_EState8>
9.16

>  <VSA_EState9>
0

>  <apol>
56.37

>  <bpol>
31.08

>  <nRing>
4

>  <nHRing>
2

>  <naRing>
3

>  <naHRing>
1

>  <nARing 2>
1

>  <nAHRing 2>
1

>  <nFRing>
1

>  <nFHRing>
1

>  <nFaRing>
1

>  <nFaHRing>
1

>  <nFARing 2>
0

>  <nFAHRing 2>
0

>  <nRot>
4

>  <SLogP>
3.87

>  <SMR>
102.56

>  <TopoPSA(NO)>
20.2

>  <TopoPSA>
20.2

>  <JGI1>
0.15

>  <JGI2>
0.06

>  <JGI3>
0.07

>  <JGI4>
0.03

>  <JGI5>
0.02

>  <Diameter>
11

>  <Radius>
6

>  <TMWC10>
126.95

>  <TSRW10>
73.44

>  <MW>
321.22

>  <AMW>
6.3

>  <WPath>
1396

>  <WPol>
38

>  <Zagreb1>
130

>  <Zagreb2>
155

>  <mZagreb2>
5.22

>  <yes>


>  <nAR-cont>
0.816016

>  <nHA-cont>
0.94700071

>  <MWHBN>
0.223181762

>  <MWHBN-cont>
0.992760439

>  <TPSA-cont>
0.858991457

>  <pka_cont>
0.97

>  <yes.1>


>  <BBB_SCORE>
5.455140281

>  <MMFF94 Energy>
96.761

$$$$
Compound 1045
Actelion Java MolfileCreator 2.0

  0  0  0  0  0  0              0 V3000
M  V30 BEGIN CTAB
M  V30 COUNTS 40 43 0 0 0
M  V30 BEGIN ATOM
M  V30 1 Cl 0.0 2.8833 1.8116 0
M  V30 2 C -1.233 2.2587 0.7706 0
M  V30 3 C -1.0412 1.1801 -0.1205 0
M  V30 4 C -2.4685 2.9237 0.8509 0
M  V30 5 C -2.1438 0.8459 -0.9463 0
M  V30 6 C 0.2967 0.4048 -0.2491 0
M  V30 7 C -3.5362 2.5478 0.0427 0
M  V30 8 C -3.3711 1.5104 -0.8612 0
M  V30 9 O 1.2431 1.4125 -0.6941 0
M  V30 10 N 0.2518 -0.6211 -1.3292 0
M  V30 11 C 0.8008 -0.1762 1.0916 0
M  V30 12 C 1.6118 1.0815 -2.032 0
M  V30 13 C 1.4855 -0.4255 -2.0895 0
M  V30 14 C 0.0409 -2.0152 -0.9233 0
M  V30 15 C 0.0478 -1.1265 1.8101 0
M  V30 16 C 2.0177 0.2545 1.6642 0
M  V30 17 C 1.4193 -0.9367 -3.5203 0
M  V30 18 C -1.1938 -2.1698 -0.0315 0
M  V30 19 N -1.0896 -1.7282 1.2641 0
M  V30 20 C 0.4409 -1.5492 3.0853 0
M  V30 21 C 2.4199 -0.1914 2.9236 0
M  V30 22 O -2.2343 -2.6959 -0.4253 0
M  V30 23 C 1.6287 -1.08 3.6427 0
M  V30 24 Cl 3.899 0.371 3.5982 0
M  V30 25 H -2.5995 3.7506 1.5456 0
M  V30 26 H -2.0671 0.048 -1.6832 0
M  V30 27 H -4.4866 3.0698 0.112 0
M  V30 28 H -4.1929 1.2115 -1.5077 0
M  V30 29 H 2.6324 1.4262 -2.2217 0
M  V30 30 H 0.9299 1.5965 -2.7192 0
M  V30 31 H 2.3371 -0.8795 -1.5654 0
M  V30 32 H 0.9128 -2.4489 -0.4182 0
M  V30 33 H -0.1409 -2.63 -1.8128 0
M  V30 34 H 2.6421 0.9782 1.1434 0
M  V30 35 H 1.3506 -2.0286 -3.5496 0
M  V30 36 H 2.3183 -0.6447 -4.0734 0
M  V30 37 H 0.5525 -0.5301 -4.0532 0
M  V30 38 H -1.8851 -1.9316 1.8572 0
M  V30 39 H -0.1535 -2.2718 3.6391 0
M  V30 40 H 1.9372 -1.421 4.6273 0
M  V30 END ATOM
M  V30 BEGIN BOND
M  V30 1 1 1 2
M  V30 2 2 2 3
M  V30 3 1 2 4
M  V30 4 1 3 5
M  V30 5 1 3 6
M  V30 6 2 4 7
M  V30 7 2 5 8
M  V30 8 1 6 9
M  V30 9 1 6 10
M  V30 10 1 6 11
M  V30 11 1 9 12
M  V30 12 1 10 13
M  V30 13 1 10 14
M  V30 14 2 11 15
M  V30 15 1 11 16
M  V30 16 1 13 17
M  V30 17 1 14 18
M  V30 18 1 15 19
M  V30 19 1 15 20
M  V30 20 2 16 21
M  V30 21 2 18 22
M  V30 22 2 20 23
M  V30 23 1 21 24
M  V30 24 1 7 8
M  V30 25 1 12 13
M  V30 26 1 18 19
M  V30 27 1 21 23
M  V30 28 1 4 25
M  V30 29 1 5 26
M  V30 30 1 7 27
M  V30 31 1 8 28
M  V30 32 1 12 29
M  V30 33 1 12 30
M  V30 34 1 13 31
M  V30 35 1 14 32
M  V30 36 1 14 33
M  V30 37 1 16 34
M  V30 38 1 17 35
M  V30 39 1 17 36
M  V30 40 1 17 37
M  V30 41 1 19 38
M  V30 42 1 20 39
M  V30 43 1 23 40
M  V30 END BOND
M  V30 END CTAB
M  END
>  <Column 1>
1247

>  <level_0>
1390

>  <index>
1390

>  <Unnamed: 0>
1390

>  <NO.>
1402

>  <Name>
mexazolam

>  <IUPAC_name>
10-chloro-11b-(2-chlorophenyl)-3-methyl-2-3-5-7-tetrahydro-[1-3]oxazolo[3-2-d][1-4]benzodiazepin-6-one

>  <SMILES>
CC1COC2(c3ccccc3Cl)c3cc(Cl)ccc3NC(=O)CN12

>  <CID>
4177

>  <logBB>


>  <BBB+/BBB->
BBB+

>  <Inchi>
InChI=1S/C18H16Cl2N2O2/c1-11-10-24-18(13-4-2-3-5-15(13)20)14-8-12(19)6-7-16(14)21-17(23)9-22(11)18/h2-8-11H-9-10H2-1H3-(H-21-23)

>  <threshold>
-1

>  <reference>
R1|R19|R6|R27|R27|R30|

>  <group>
B

>  <Class>
-1

>  <ABC>
19.22

>  <ABCGG>
16.24

>  <nAcid>
0

>  <nBase>
1

>  <nAromAtom>
12

>  <nAromBond>
12

>  <nAtom>
40

>  <nHeavyAtom>
24

>  <nSpiro>
0

>  <nBridgehead>
0

>  <nHetero>
6

>  <nN>
2

>  <nO>
2

>  <nF>
0

>  <BalabanJ>
1.77

>  <BertzCT>
826.42

>  <nBonds>
43

>  <nBondsO>
27

>  <nBondsS>
30

>  <nBondsD>
1

>  <nBondsT>
0

>  <nBondsA>
12

>  <nBondsM>
13

>  <nBondsKS>
36

>  <nBondsKD>
7

>  <RNCG>
0.2

>  <RPCG>
0.14

>  <FCSP3>
0.28

>  <SZ>
31.33

>  <Sm>
30.24

>  <Sv>
27.46

>  <Sse>
40.62

>  <Sp>
29.28

>  <Si>
44.63

>  <MZ>
0.78

>  <Mm>
0.76

>  <Mv>
0.69

>  <Mse>
1.02

>  <Mp>
0.73

>  <Mi>
1.12

>  <NsCH3>
1

>  <NdCH2>
0

>  <NssCH2>
2

>  <NtCH>
0

>  <NdsCH>
0

>  <NaaCH>
7

>  <NsssCH>
1

>  <NddC>
0

>  <NtsC>
0

>  <NdssC>
1

>  <NaasC>
5

>  <NaaaC>
0

>  <NssssC>
1

>  <NsNH3>
0

>  <NsNH2>
0

>  <NssNH2>
0

>  <NdNH>
0

>  <NssNH>
1

>  <NaaNH>
0

>  <NtN>
0

>  <NsssNH>
0

>  <NdsN>
0

>  <NaaN>
0

>  <NsssN>
1

>  <NddsN>
0

>  <NaasN>
0

>  <NssssN>
0

>  <NsOH>
0

>  <NdO>
1

>  <NssO>
1

>  <NaaO>
0

>  <NsF>
0

>  <NsSiH3>
0

>  <NssSiH2>
0

>  <NsssSiH>
0

>  <NssssSi>
0

>  <NsPH2>
0

>  <NssPH>
0

>  <NsssP>
0

>  <NdsssP>
0

>  <NsssssP>
0

>  <NsSH>
0

>  <NdS>
0

>  <NssS>
0

>  <NaaS>
0

>  <NdssS>
0

>  <NddssS>
0

>  <NsCl>
2

>  <NsBr>
0

>  <NsI>
0

>  <fragCpx>
177.06

>  <fMF>
0.5

>  <nHBAcc>
3

>  <nHBDon>
1

>  <Kier1>
17.42

>  <Kier2>
6.62

>  <Lipinski>
1

>  <GhoseFilter>
1

>  <FilterItLogS>
-5.58

>  <VMcGowan>
247.12

>  <LabuteASA>
149.86

>  <PEOE_VSA1>
10.05

>  <PEOE_VSA2>
9.69

>  <PEOE_VSA3>
0

>  <PEOE_VSA4>
0

>  <PEOE_VSA5>
0

>  <PEOE_VSA6>
41.4

>  <PEOE_VSA7>
31.19

>  <PEOE_VSA8>
32.9

>  <PEOE_VSA9>
13.15

>  <PEOE_VSA10>
0

>  <PEOE_VSA11>
5.72

>  <PEOE_VSA12>
5.91

>  <PEOE_VSA13>
0

>  <SMR_VSA1>
9.53

>  <SMR_VSA2>
0

>  <SMR_VSA3>
4.9

>  <SMR_VSA4>
0

>  <SMR_VSA5>
18.69

>  <SMR_VSA6>
18.47

>  <SMR_VSA7>
63.64

>  <SMR_VSA8>
0

>  <SMR_VSA9>
0

>  <SlogP_VSA1>
5.32

>  <SlogP_VSA2>
30

>  <SlogP_VSA3>
15.26

>  <SlogP_VSA4>
0

>  <SlogP_VSA5>
18.05

>  <SlogP_VSA6>
42.46

>  <SlogP_VSA7>
10.05

>  <SlogP_VSA8>
0

>  <SlogP_VSA9>
0

>  <SlogP_VSA10>
5.69

>  <SlogP_VSA11>
0

>  <EState_VSA1>
5.72

>  <EState_VSA2>
18.49

>  <EState_VSA3>
22.34

>  <EState_VSA4>
11.13

>  <EState_VSA5>
0

>  <EState_VSA6>
6.07

>  <EState_VSA7>
48.22

>  <EState_VSA8>
5.32

>  <EState_VSA9>
27.94

>  <EState_VSA10>
4.79

>  <VSA_EState1>
6.32

>  <VSA_EState2>
14.45

>  <VSA_EState3>
4.13

>  <VSA_EState4>
1.38

>  <VSA_EState5>
-0.08

>  <VSA_EState6>
13.05

>  <VSA_EState7>
0

>  <VSA_EState8>
2.77

>  <VSA_EState9>
0

>  <apol>
48.89

>  <bpol>
21.96

>  <nRing>
4

>  <nHRing>
2

>  <naRing>
2

>  <naHRing>
0

>  <nARing 2>
2

>  <nAHRing 2>
2

>  <nFRing>
1

>  <nFHRing>
1

>  <nFaRing>
0

>  <nFaHRing>
0

>  <nFARing 2>
1

>  <nFAHRing 2>
1

>  <nRot>
1

>  <SLogP>
3.87

>  <SMR>
94.43

>  <TopoPSA(NO)>
41.57

>  <TopoPSA>
41.57

>  <JGI1>
0.22

>  <JGI2>
0.1

>  <JGI3>
0.06

>  <JGI4>
0.04

>  <JGI5>
0.03

>  <Diameter>
8

>  <Radius>
4

>  <TMWC10>
129.13

>  <TSRW10>
74.07

>  <MW>
362.06

>  <AMW>
9.05

>  <WPath>
1077

>  <WPol>
49

>  <Zagreb1>
136

>  <Zagreb2>
169

>  <mZagreb2>
5.13

>  <yes>


>  <nAR-cont>
1

>  <nHA-cont>
0.94700071

>  <MWHBN>
0.210217912

>  <MWHBN-cont>
0.999264955

>  <TPSA-cont>
0.709815587

>  <pka_cont>
0.97

>  <yes.1>


>  <BBB_SCORE>
5.350529315

>  <MMFF94 Energy>
63.033

$$$$
Compound 1046
Actelion Java MolfileCreator 2.0

  0  0  0  0  0  0              0 V3000
M  V30 BEGIN CTAB
M  V30 COUNTS 27 28 0 0 0
M  V30 BEGIN ATOM
M  V30 1 O -1.1122 2.4641 -3.6582 0
M  V30 2 C -0.8812 1.7977 -2.6531 0
M  V30 3 N 0.3919 1.7119 -2.1488 0
M  V30 4 C -1.9837 1.0832 -1.8474 0
M  V30 5 C 0.7383 0.8097 -1.0536 0
M  V30 6 O -1.5921 0.1535 -0.8421 0
M  V30 7 C -0.4715 0.6538 -0.0911 0
M  V30 8 C 1.2133 -0.5205 -1.6458 0
M  V30 9 C -0.177 -0.2268 1.1088 0
M  V30 10 C 0.621 0.2687 2.1538 0
M  V30 11 C -0.6677 -1.5377 1.2063 0
M  V30 12 C 0.9203 -0.5262 3.2621 0
M  V30 13 C -0.3674 -2.3315 2.3151 0
M  V30 14 C 0.4267 -1.8261 3.3418 0
M  V30 15 H 1.1123 2.1923 -2.6743 0
M  V30 16 H -2.6184 0.5449 -2.5587 0
M  V30 17 H -2.5957 1.8595 -1.3735 0
M  V30 18 H 1.5781 1.2763 -0.5255 0
M  V30 19 H -0.7621 1.64 0.3 0
M  V30 20 H 0.4137 -1.0296 -2.1947 0
M  V30 21 H 1.5818 -1.1965 -0.8683 0
M  V30 22 H 2.0351 -0.3532 -2.3515 0
M  V30 23 H 1.013 1.283 2.1152 0
M  V30 24 H -1.2905 -1.9519 0.4155 0
M  V30 25 H 1.5366 -0.1302 4.0653 0
M  V30 26 H -0.7566 -3.3446 2.3764 0
M  V30 27 H 0.6577 -2.4448 4.205 0
M  V30 END ATOM
M  V30 BEGIN BOND
M  V30 1 2 1 2
M  V30 2 1 2 3
M  V30 3 1 2 4
M  V30 4 1 3 5
M  V30 5 1 4 6
M  V30 6 1 5 7
M  V30 7 1 5 8
M  V30 8 1 7 9
M  V30 9 2 9 10
M  V30 10 1 9 11
M  V30 11 1 10 12
M  V30 12 2 11 13
M  V30 13 2 12 14
M  V30 14 1 6 7
M  V30 15 1 13 14
M  V30 16 1 3 15
M  V30 17 1 4 16
M  V30 18 1 4 17
M  V30 19 1 5 18
M  V30 20 1 7 19
M  V30 21 1 8 20
M  V30 22 1 8 21
M  V30 23 1 8 22
M  V30 24 1 10 23
M  V30 25 1 11 24
M  V30 26 1 12 25
M  V30 27 1 13 26
M  V30 28 1 14 27
M  V30 END BOND
M  V30 END CTAB
M  END
>  <Column 1>
1249

>  <level_0>
1392

>  <index>
1392

>  <Unnamed: 0>
1392

>  <NO.>
1404

>  <Name>
fenmetramide

>  <IUPAC_name>
5-methyl-6-phenylmorpholin-3-one

>  <SMILES>
CC1NC(=O)COC1c1ccccc1

>  <CID>
21789

>  <logBB>


>  <BBB+/BBB->
BBB+

>  <Inchi>
InChI=1S/C11H13NO2/c1-8-11(14-7-10(13)12-8)9-5-3-2-4-6-9/h2-6-8-11H-7H2-1H3-(H-12-13)

>  <threshold>
-1

>  <reference>
R1|R19|R6|R27|R27|R30|

>  <group>
B

>  <Class>
1

>  <ABC>
10.74

>  <ABCGG>
9.26

>  <nAcid>
0

>  <nBase>
0

>  <nAromAtom>
6

>  <nAromBond>
6

>  <nAtom>
27

>  <nHeavyAtom>
14

>  <nSpiro>
0

>  <nBridgehead>
0

>  <nHetero>
3

>  <nN>
1

>  <nO>
2

>  <nF>
0

>  <BalabanJ>
1.89

>  <BertzCT>
323.32

>  <nBonds>
28

>  <nBondsO>
15

>  <nBondsS>
21

>  <nBondsD>
1

>  <nBondsT>
0

>  <nBondsA>
6

>  <nBondsM>
7

>  <nBondsKS>
24

>  <nBondsKD>
4

>  <RNCG>
0.27

>  <RPCG>
0.18

>  <FCSP3>
0.36

>  <SZ>
17

>  <Sm>
15.92

>  <Sv>
16.71

>  <Sse>
27.1

>  <Sp>
17.81

>  <Si>
30.41

>  <MZ>
0.63

>  <Mm>
0.59

>  <Mv>
0.62

>  <Mse>
1

>  <Mp>
0.66

>  <Mi>
1.13

>  <NsCH3>
1

>  <NdCH2>
0

>  <NssCH2>
1

>  <NtCH>
0

>  <NdsCH>
0

>  <NaaCH>
5

>  <NsssCH>
2

>  <NddC>
0

>  <NtsC>
0

>  <NdssC>
1

>  <NaasC>
1

>  <NaaaC>
0

>  <NssssC>
0

>  <NsNH3>
0

>  <NsNH2>
0

>  <NssNH2>
0

>  <NdNH>
0

>  <NssNH>
1

>  <NaaNH>
0

>  <NtN>
0

>  <NsssNH>
0

>  <NdsN>
0

>  <NaaN>
0

>  <NsssN>
0

>  <NddsN>
0

>  <NaasN>
0

>  <NssssN>
0

>  <NsOH>
0

>  <NdO>
1

>  <NssO>
1

>  <NaaO>
0

>  <NsF>
0

>  <NsSiH3>
0

>  <NssSiH2>
0

>  <NsssSiH>
0

>  <NssssSi>
0

>  <NsPH2>
0

>  <NssPH>
0

>  <NsssP>
0

>  <NdsssP>
0

>  <NsssssP>
0

>  <NsSH>
0

>  <NdS>
0

>  <NssS>
0

>  <NaaS>
0

>  <NdssS>
0

>  <NddssS>
0

>  <NsCl>
0

>  <NsBr>
0

>  <NsI>
0

>  <fragCpx>
43.03

>  <fMF>
0.44

>  <nHBAcc>
2

>  <nHBDon>
1

>  <Kier1>
10.52

>  <Kier2>
4.68

>  <Lipinski>
1

>  <GhoseFilter>
1

>  <FilterItLogS>
-2.36

>  <VMcGowan>
148.65

>  <LabuteASA>
83.08

>  <PEOE_VSA1>
10.05

>  <PEOE_VSA2>
4.79

>  <PEOE_VSA3>
0

>  <PEOE_VSA4>
0

>  <PEOE_VSA5>
0

>  <PEOE_VSA6>
30.33

>  <PEOE_VSA7>
12.49

>  <PEOE_VSA8>
0

>  <PEOE_VSA9>
6.04

>  <PEOE_VSA10>
12.71

>  <PEOE_VSA11>
0

>  <PEOE_VSA12>
5.91

>  <PEOE_VSA13>
0

>  <SMR_VSA1>
9.53

>  <SMR_VSA2>
0

>  <SMR_VSA3>
5.32

>  <SMR_VSA4>
0

>  <SMR_VSA5>
19.07

>  <SMR_VSA6>
6.61

>  <SMR_VSA7>
35.9

>  <SMR_VSA8>
0

>  <SMR_VSA9>
0

>  <SlogP_VSA1>
5.32

>  <SlogP_VSA2>
18.56

>  <SlogP_VSA3>
9.53

>  <SlogP_VSA4>
0

>  <SlogP_VSA5>
18.59

>  <SlogP_VSA6>
30.33

>  <SlogP_VSA7>
0

>  <SlogP_VSA8>
0

>  <SlogP_VSA9>
0

>  <SlogP_VSA10>
0

>  <SlogP_VSA11>
0

>  <EState_VSA1>
0

>  <EState_VSA2>
24.66

>  <EState_VSA3>
0

>  <EState_VSA4>
5.56

>  <EState_VSA5>
0

>  <EState_VSA6>
0

>  <EState_VSA7>
37.26

>  <EState_VSA8>
5.32

>  <EState_VSA9>
4.74

>  <EState_VSA10>
4.79

>  <VSA_EState1>
5.48

>  <VSA_EState2>
11.01

>  <VSA_EState3>
2.86

>  <VSA_EState4>
1.11

>  <VSA_EState5>
-0.04

>  <VSA_EState6>
9.98

>  <VSA_EState7>
-0.02

>  <VSA_EState8>
2.11

>  <VSA_EState9>
0

>  <apol>
29.74

>  <bpol>
16.22

>  <nRing>
2

>  <nHRing>
1

>  <naRing>
1

>  <naHRing>
0

>  <nARing 2>
1

>  <nAHRing 2>
1

>  <nFRing>
0

>  <nFHRing>
0

>  <nFaRing>
0

>  <nFaHRing>
0

>  <nFARing 2>
0

>  <nFAHRing 2>
0

>  <nRot>
1

>  <SLogP>
1.26

>  <SMR>
52.74

>  <TopoPSA(NO)>
38.33

>  <TopoPSA>
38.33

>  <JGI1>
0.17

>  <JGI2>
0.08

>  <JGI3>
0.05

>  <JGI4>
0.03

>  <JGI5>
0.03

>  <Diameter>
8

>  <Radius>
4

>  <TMWC10>
97.68

>  <TSRW10>
45.55

>  <MW>
191.09

>  <AMW>
7.08

>  <WPath>
298

>  <WPol>
19

>  <Zagreb1>
70

>  <Zagreb2>
80

>  <mZagreb2>
3.14

>  <yes>


>  <nAR-cont>
0.816016

>  <nHA-cont>
0.887625254

>  <MWHBN>
0.217021257

>  <MWHBN-cont>
0.996669697

>  <TPSA-cont>
0.732432798

>  <pka_cont>
0.97

>  <yes.1>


>  <BBB_SCORE>
5.148511396

>  <MMFF94 Energy>
81.758

$$$$
Compound 1047
Actelion Java MolfileCreator 2.0

  0  0  0  0  0  0              0 V3000
M  V30 BEGIN CTAB
M  V30 COUNTS 28 29 0 0 0
M  V30 BEGIN ATOM
M  V30 1 O -1.5822 0.5535 0.87 0
M  V30 2 C -0.7287 -0.1297 -0.0737 0
M  V30 3 C -2.4815 -0.3685 1.4944 0
M  V30 4 C 0.1687 0.9174 -0.7079 0
M  V30 5 C 0.075 -1.2661 0.6394 0
M  V30 6 C -1.7119 -1.4588 2.2483 0
M  V30 7 C 0.3105 0.9758 -2.1032 0
M  V30 8 C 0.8865 1.8315 0.0795 0
M  V30 9 N -0.8223 -2.2117 1.3517 0
M  V30 10 C 0.9208 -2.0796 -0.342 0
M  V30 11 C 1.1523 1.9206 -2.6936 0
M  V30 12 C 1.727 2.7759 -0.5121 0
M  V30 13 C 1.8609 2.8189 -1.8981 0
M  V30 14 H -1.378 -0.5615 -0.8481 0
M  V30 15 H -3.1479 -0.7986 0.7369 0
M  V30 16 H -3.1006 0.1989 2.1966 0
M  V30 17 H 0.7449 -0.8218 1.3881 0
M  V30 18 H -1.1132 -1.0032 3.0464 0
M  V30 19 H -2.4191 -2.1516 2.7158 0
M  V30 20 H -0.2348 0.2836 -2.741 0
M  V30 21 H 0.7803 1.8167 1.1625 0
M  V30 22 H -0.2585 -2.8595 1.9019 0
M  V30 23 H 0.3022 -2.5234 -1.1301 0
M  V30 24 H 1.6848 -1.4574 -0.8188 0
M  V30 25 H 1.4466 -2.8925 0.172 0
M  V30 26 H 1.2529 1.9571 -3.7751 0
M  V30 27 H 2.2719 3.4814 0.1096 0
M  V30 28 H 2.513 3.5563 -2.3586 0
M  V30 END ATOM
M  V30 BEGIN BOND
M  V30 1 1 1 2
M  V30 2 1 1 3
M  V30 3 1 2 4
M  V30 4 1 2 5
M  V30 5 1 3 6
M  V30 6 2 4 7
M  V30 7 1 4 8
M  V30 8 1 5 9
M  V30 9 1 5 10
M  V30 10 1 7 11
M  V30 11 2 8 12
M  V30 12 2 11 13
M  V30 13 1 6 9
M  V30 14 1 12 13
M  V30 15 1 2 14
M  V30 16 1 3 15
M  V30 17 1 3 16
M  V30 18 1 5 17
M  V30 19 1 6 18
M  V30 20 1 6 19
M  V30 21 1 7 20
M  V30 22 1 8 21
M  V30 23 1 9 22
M  V30 24 1 10 23
M  V30 25 1 10 24
M  V30 26 1 10 25
M  V30 27 1 11 26
M  V30 28 1 12 27
M  V30 29 1 13 28
M  V30 END BOND
M  V30 END CTAB
M  END
>  <Column 1>
1250

>  <level_0>
1393

>  <index>
1393

>  <Unnamed: 0>
1393

>  <NO.>
1405

>  <Name>
phenmetrazine

>  <IUPAC_name>
3-methyl-2-phenylmorpholine

>  <SMILES>
CC1NCCOC1c1ccccc1

>  <CID>
4762

>  <logBB>


>  <BBB+/BBB->
BBB+

>  <Inchi>
InChI=1S/C11H15NO/c1-9-11(13-8-7-12-9)10-5-3-2-4-6-10/h2-6-9-11-12H-7-8H2-1H3

>  <threshold>
-1

>  <reference>
R1|R19|R6|R14|R23|R27|R27|R30|

>  <group>
B

>  <Class>
1

>  <ABC>
9.93

>  <ABCGG>
8.63

>  <nAcid>
0

>  <nBase>
1

>  <nAromAtom>
6

>  <nAromBond>
6

>  <nAtom>
28

>  <nHeavyAtom>
13

>  <nSpiro>
0

>  <nBridgehead>
0

>  <nHetero>
2

>  <nN>
1

>  <nO>
1

>  <nF>
0

>  <BalabanJ>
1.88

>  <BertzCT>
260.05

>  <nBonds>
29

>  <nBondsO>
14

>  <nBondsS>
23

>  <nBondsD>
0

>  <nBondsT>
0

>  <nBondsA>
6

>  <nBondsM>
6

>  <nBondsKS>
26

>  <nBondsKD>
3

>  <RNCG>
0.36

>  <RPCG>
0.12

>  <FCSP3>
0.45

>  <SZ>
16

>  <Sm>
14.76

>  <Sv>
16.54

>  <Sse>
27.65

>  <Sp>
18.13

>  <Si>
31.61

>  <MZ>
0.57

>  <Mm>
0.53

>  <Mv>
0.59

>  <Mse>
0.99

>  <Mp>
0.65

>  <Mi>
1.13

>  <NsCH3>
1

>  <NdCH2>
0

>  <NssCH2>
2

>  <NtCH>
0

>  <NdsCH>
0

>  <NaaCH>
5

>  <NsssCH>
2

>  <NddC>
0

>  <NtsC>
0

>  <NdssC>
0

>  <NaasC>
1

>  <NaaaC>
0

>  <NssssC>
0

>  <NsNH3>
0

>  <NsNH2>
0

>  <NssNH2>
0

>  <NdNH>
0

>  <NssNH>
1

>  <NaaNH>
0

>  <NtN>
0

>  <NsssNH>
0

>  <NdsN>
0

>  <NaaN>
0

>  <NsssN>
0

>  <NddsN>
0

>  <NaasN>
0

>  <NssssN>
0

>  <NsOH>
0

>  <NdO>
0

>  <NssO>
1

>  <NaaO>
0

>  <NsF>
0

>  <NsSiH3>
0

>  <NssSiH2>
0

>  <NsssSiH>
0

>  <NssssSi>
0

>  <NsPH2>
0

>  <NssPH>
0

>  <NsssP>
0

>  <NdsssP>
0

>  <NsssssP>
0

>  <NsSH>
0

>  <NdS>
0

>  <NssS>
0

>  <NaaS>
0

>  <NdssS>
0

>  <NddssS>
0

>  <NsCl>
0

>  <NsBr>
0

>  <NsI>
0

>  <fragCpx>
40.02

>  <fMF>
0.43

>  <nHBAcc>
2

>  <nHBDon>
1

>  <Kier1>
9.55

>  <Kier2>
4.48

>  <Lipinski>
1

>  <GhoseFilter>
1

>  <FilterItLogS>
-2.47

>  <VMcGowan>
147.08

>  <LabuteASA>
78.91

>  <PEOE_VSA1>
10.05

>  <PEOE_VSA2>
0

>  <PEOE_VSA3>
0

>  <PEOE_VSA4>
0

>  <PEOE_VSA5>
0

>  <PEOE_VSA6>
30.33

>  <PEOE_VSA7>
12.49

>  <PEOE_VSA8>
12.59

>  <PEOE_VSA9>
12.71

>  <PEOE_VSA10>
0

>  <PEOE_VSA11>
0

>  <PEOE_VSA12>
0

>  <PEOE_VSA13>
0

>  <SMR_VSA1>
4.74

>  <SMR_VSA2>
0

>  <SMR_VSA3>
5.32

>  <SMR_VSA4>
0

>  <SMR_VSA5>
19.07

>  <SMR_VSA6>
13.15

>  <SMR_VSA7>
35.9

>  <SMR_VSA8>
0

>  <SMR_VSA9>
0

>  <SlogP_VSA1>
5.32

>  <SlogP_VSA2>
19.19

>  <SlogP_VSA3>
4.74

>  <SlogP_VSA4>
0

>  <SlogP_VSA5>
18.59

>  <SlogP_VSA6>
30.33

>  <SlogP_VSA7>
0

>  <SlogP_VSA8>
0

>  <SlogP_VSA9>
0

>  <SlogP_VSA10>
0

>  <SlogP_VSA11>
0

>  <EState_VSA1>
0

>  <EState_VSA2>
6.1

>  <EState_VSA3>
6.04

>  <EState_VSA4>
13.15

>  <EState_VSA5>
5.56

>  <EState_VSA6>
0

>  <EState_VSA7>
6.07

>  <EState_VSA8>
36.51

>  <EState_VSA9>
4.74

>  <EState_VSA10>
0

>  <VSA_EState1>
5.71

>  <VSA_EState2>
0

>  <VSA_EState3>
3.41

>  <VSA_EState4>
1.27

>  <VSA_EState5>
0

>  <VSA_EState6>
10.79

>  <VSA_EState7>
0.22

>  <VSA_EState8>
3.94

>  <VSA_EState9>
0

>  <apol>
30.27

>  <bpol>
17.35

>  <nRing>
2

>  <nHRing>
1

>  <naRing>
1

>  <naHRing>
0

>  <nARing 2>
1

>  <nAHRing 2>
1

>  <nFRing>
0

>  <nFHRing>
0

>  <nFaRing>
0

>  <nFaHRing>
0

>  <nFARing 2>
0

>  <nFAHRing 2>
0

>  <nRot>
1

>  <SLogP>
1.74

>  <SMR>
52.6

>  <TopoPSA(NO)>
21.26

>  <TopoPSA>
21.26

>  <JGI1>
0.11

>  <JGI2>
0.07

>  <JGI3>
0.05

>  <JGI4>
0.03

>  <JGI5>
0.02

>  <Diameter>
7

>  <Radius>
4

>  <TMWC10>
94.59

>  <TSRW10>
44.03

>  <MW>
177.12

>  <AMW>
6.33

>  <WPath>
240

>  <WPol>
17

>  <Zagreb1>
64

>  <Zagreb2>
73

>  <mZagreb2>
2.97

>  <yes>


>  <nAR-cont>
0.816016

>  <nHA-cont>
0.841215992

>  <MWHBN>
0.225417409

>  <MWHBN-cont>
0.990985852

>  <TPSA-cont>
0.851591998

>  <pka_cont>
0.97

>  <yes.1>


>  <BBB_SCORE>
5.331894767

>  <MMFF94 Energy>
92.186

$$$$
Compound 1048
Actelion Java MolfileCreator 2.0

  0  0  0  0  0  0              0 V3000
M  V30 BEGIN CTAB
M  V30 COUNTS 21 21 0 0 0
M  V30 BEGIN ATOM
M  V30 1 O -0.4682 0.156 -1.249 0
M  V30 2 C 0.0238 1.2708 -0.5228 0
M  V30 3 C -1.1026 -0.746 -0.3568 0
M  V30 4 O 0.9278 0.8636 0.4916 0
M  V30 5 C 0.7714 2.173 -1.4892 0
M  V30 6 O -0.2107 -1.1747 0.6593 0
M  V30 7 C -1.5404 -1.9659 -1.1485 0
M  V30 8 C 0.2786 -0.0458 1.3654 0
M  V30 9 C 1.2943 -0.5291 2.3859 0
M  V30 10 H -0.8099 1.8343 -0.0831 0
M  V30 11 H -1.9885 -0.2758 0.0905 0
M  V30 12 H 1.1815 3.0464 -0.9724 0
M  V30 13 H 0.1165 2.5067 -2.3002 0
M  V30 14 H 1.6117 1.6376 -1.9455 0
M  V30 15 H -2.2246 -1.6847 -1.9552 0
M  V30 16 H -2.0281 -2.7 -0.4994 0
M  V30 17 H -0.676 -2.4581 -1.6084 0
M  V30 18 H -0.5433 0.4566 1.8925 0
M  V30 19 H 1.7111 0.3099 2.9518 0
M  V30 20 H 2.1292 -1.0363 1.8891 0
M  V30 21 H 0.8426 -1.245 3.0797 0
M  V30 END ATOM
M  V30 BEGIN BOND
M  V30 1 1 1 2
M  V30 2 1 1 3
M  V30 3 1 2 4
M  V30 4 1 2 5
M  V30 5 1 3 6
M  V30 6 1 3 7
M  V30 7 1 4 8
M  V30 8 1 8 9
M  V30 9 1 6 8
M  V30 10 1 2 10
M  V30 11 1 3 11
M  V30 12 1 5 12
M  V30 13 1 5 13
M  V30 14 1 5 14
M  V30 15 1 7 15
M  V30 16 1 7 16
M  V30 17 1 7 17
M  V30 18 1 8 18
M  V30 19 1 9 19
M  V30 20 1 9 20
M  V30 21 1 9 21
M  V30 END BOND
M  V30 END CTAB
M  END
>  <Column 1>
1251

>  <level_0>
1394

>  <index>
1394

>  <Unnamed: 0>
1394

>  <NO.>
1406

>  <Name>
paraldehyde

>  <IUPAC_name>
2-4-6-trimethyl-1-3-5-trioxane

>  <SMILES>
CC1OC(C)OC(C)O1

>  <CID>
31264

>  <logBB>


>  <BBB+/BBB->
BBB+

>  <Inchi>
InChI=1S/C6H12O3/c1-4-7-5(2)9-6(3)8-4/h4-6H-1-3H3

>  <threshold>
-1

>  <reference>
R1|R13|R19|R6|R14|R23|R24|R27|R27|R27|R30|R30|

>  <group>
B

>  <Class>
-1

>  <ABC>
6.69

>  <ABCGG>
6.36

>  <nAcid>
0

>  <nBase>
0

>  <nAromAtom>
0

>  <nAromBond>
0

>  <nAtom>
21

>  <nHeavyAtom>
9

>  <nSpiro>
0

>  <nBridgehead>
0

>  <nHetero>
3

>  <nN>
0

>  <nO>
3

>  <nF>
0

>  <BalabanJ>
2.34

>  <BertzCT>
69.28

>  <nBonds>
21

>  <nBondsO>
9

>  <nBondsS>
21

>  <nBondsD>
0

>  <nBondsT>
0

>  <nBondsA>
0

>  <nBondsM>
0

>  <nBondsKS>
21

>  <nBondsKD>
0

>  <RNCG>
0.32

>  <RPCG>
0.16

>  <FCSP3>
1

>  <SZ>
12

>  <Sm>
11

>  <Sv>
11.4

>  <Sse>
21.32

>  <Sp>
12.23

>  <Si>
24.12

>  <MZ>
0.57

>  <Mm>
0.52

>  <Mv>
0.54

>  <Mse>
1.02

>  <Mp>
0.58

>  <Mi>
1.15

>  <NsCH3>
3

>  <NdCH2>
0

>  <NssCH2>
0

>  <NtCH>
0

>  <NdsCH>
0

>  <NaaCH>
0

>  <NsssCH>
3

>  <NddC>
0

>  <NtsC>
0

>  <NdssC>
0

>  <NaasC>
0

>  <NaaaC>
0

>  <NssssC>
0

>  <NsNH3>
0

>  <NsNH2>
0

>  <NssNH2>
0

>  <NdNH>
0

>  <NssNH>
0

>  <NaaNH>
0

>  <NtN>
0

>  <NsssNH>
0

>  <NdsN>
0

>  <NaaN>
0

>  <NsssN>
0

>  <NddsN>
0

>  <NaasN>
0

>  <NssssN>
0

>  <NsOH>
0

>  <NdO>
0

>  <NssO>
3

>  <NaaO>
0

>  <NsF>
0

>  <NsSiH3>
0

>  <NssSiH2>
0

>  <NsssSiH>
0

>  <NssssSi>
0

>  <NsPH2>
0

>  <NssPH>
0

>  <NsssP>
0

>  <NdsssP>
0

>  <NsssssP>
0

>  <NsSH>
0

>  <NdS>
0

>  <NssS>
0

>  <NaaS>
0

>  <NdssS>
0

>  <NddssS>
0

>  <NsCl>
0

>  <NsBr>
0

>  <NsI>
0

>  <fragCpx>
9.03

>  <fMF>
0.29

>  <nHBAcc>
3

>  <nHBDon>
0

>  <Kier1>
7.11

>  <Kier2>
2.72

>  <Lipinski>
1

>  <GhoseFilter>
0

>  <FilterItLogS>
-0.37

>  <VMcGowan>
102.15

>  <LabuteASA>
54.9

>  <PEOE_VSA1>
14.21

>  <PEOE_VSA2>
0

>  <PEOE_VSA3>
0

>  <PEOE_VSA4>
0

>  <PEOE_VSA5>
0

>  <PEOE_VSA6>
0

>  <PEOE_VSA7>
20.77

>  <PEOE_VSA8>
0

>  <PEOE_VSA9>
0

>  <PEOE_VSA10>
0

>  <PEOE_VSA11>
18.87

>  <PEOE_VSA12>
0

>  <PEOE_VSA13>
0

>  <SMR_VSA1>
14.21

>  <SMR_VSA2>
0

>  <SMR_VSA3>
0

>  <SMR_VSA4>
0

>  <SMR_VSA5>
39.64

>  <SMR_VSA6>
0

>  <SMR_VSA7>
0

>  <SMR_VSA8>
0

>  <SMR_VSA9>
0

>  <SlogP_VSA1>
0

>  <SlogP_VSA2>
18.87

>  <SlogP_VSA3>
14.21

>  <SlogP_VSA4>
0

>  <SlogP_VSA5>
20.77

>  <SlogP_VSA6>
0

>  <SlogP_VSA7>
0

>  <SlogP_VSA8>
0

>  <SlogP_VSA9>
0

>  <SlogP_VSA10>
0

>  <SlogP_VSA11>
0

>  <EState_VSA1>
0

>  <EState_VSA2>
18.87

>  <EState_VSA3>
0

>  <EState_VSA4>
0

>  <EState_VSA5>
0

>  <EState_VSA6>
0

>  <EState_VSA7>
20.77

>  <EState_VSA8>
0

>  <EState_VSA9>
14.21

>  <EState_VSA10>
0

>  <VSA_EState1>
15.34

>  <VSA_EState2>
0

>  <VSA_EState3>
0

>  <VSA_EState4>
0

>  <VSA_EState5>
0

>  <VSA_EState6>
0

>  <VSA_EState7>
-0.41

>  <VSA_EState8>
5.57

>  <VSA_EState9>
0

>  <apol>
20.43

>  <bpol>
17.25

>  <nRing>
1

>  <nHRing>
1

>  <naRing>
0

>  <naHRing>
0

>  <nARing 2>
1

>  <nAHRing 2>
1

>  <nFRing>
0

>  <nFHRing>
0

>  <nFaRing>
0

>  <nFaHRing>
0

>  <nFARing 2>
0

>  <nFAHRing 2>
0

>  <nRot>
0

>  <SLogP>
1.09

>  <SMR>
31.64

>  <TopoPSA(NO)>
27.69

>  <TopoPSA>
27.69

>  <JGI1>
0.33

>  <JGI2>
0.06

>  <JGI3>
0.1

>  <JGI4>
0.06

>  <JGI5>
0

>  <Diameter>
4

>  <Radius>
3

>  <TMWC10>
80.48

>  <TSRW10>
37.74

>  <MW>
132.08

>  <AMW>
6.29

>  <WPath>
84

>  <WPol>
9

>  <Zagreb1>
42

>  <Zagreb2>
45

>  <mZagreb2>
2

>  <yes>


>  <nAR-cont>
0.816016

>  <nHA-cont>
0.56070381

>  <MWHBN>
0.261037394

>  <MWHBN-cont>
0.939340071

>  <TPSA-cont>
0.806706606

>  <pka_cont>
0.97

>  <yes.1>


>  <BBB_SCORE>
4.884143127

>  <MMFF94 Energy>
-71.849

$$$$
Compound 1049
Actelion Java MolfileCreator 2.0

  0  0  0  0  0  0              0 V3000
M  V30 BEGIN CTAB
M  V30 COUNTS 80 85 0 0 0
M  V30 BEGIN ATOM
M  V30 1 O 1.1277 -9.2922 -4.7591 0
M  V30 2 C 0.7838 -8.3682 -4.0299 0
M  V30 3 O 1.6295 -7.783 -3.1292 0
M  V30 4 C -0.5907 -7.8407 -4.0981 0
M  V30 5 C 1.1749 -6.7244 -2.3265 0
M  V30 6 C -0.9814 -6.8293 -3.3154 0
M  V30 7 C -0.0645 -6.2163 -2.3777 0
M  V30 8 C -0.6012 -5.0824 -1.5106 0 CFG=2
M  V30 9 C -0.3856 -3.6159 -2.0324 0 CFG=2
M  V30 10 C -0.0265 -5.0662 -0.0733 0
M  V30 11 C 0.9162 -3.1659 -1.3141 0 CFG=1
M  V30 12 C -1.5825 -2.7451 -1.5576 0
M  V30 13 C -0.2932 -3.5226 -3.5691 0
M  V30 14 C 0.7831 -3.7754 0.0902 0
M  V30 15 O 2.0569 -3.7953 -1.9122 0
M  V30 16 C 1.149 -1.6296 -1.3329 0 CFG=1
M  V30 17 C -1.3331 -1.2412 -1.6656 0
M  V30 18 C -0.0936 -0.8056 -0.8623 0 CFG=2
M  V30 19 C 2.425 -1.2383 -0.5517 0
M  V30 20 C 0.1739 0.7488 -0.8863 0 CFG=2
M  V30 21 C 2.6829 0.2666 -0.5656 0
M  V30 22 C 1.4513 0.9748 -0.0681 0
M  V30 23 C -1.0085 1.5758 -0.2878 0
M  V30 24 C 0.3624 1.2781 -2.3301 0
M  V30 25 C 1.4784 1.6659 1.0877 0
M  V30 26 C -1.0211 1.6023 1.2386 0
M  V30 27 C 0.2706 2.2259 1.7767 0 CFG=2
M  V30 28 O 0.2836 3.6315 1.5452 0
M  V30 29 C -0.2898 4.3981 2.6068 0
M  V30 30 O -0.9437 5.5208 2.0034 0
M  V30 31 C 0.8333 4.8659 3.564 0
M  V30 32 C -1.568 6.3788 2.9596 0
M  V30 33 O 1.3904 3.7697 4.3116 0
M  V30 34 C 0.3037 5.898 4.561 0
M  V30 35 C -0.5037 7.0025 3.8759 0
M  V30 36 C -2.3327 7.4492 2.1876 0
M  V30 37 O -0.5266 5.2134 5.5254 0
M  V30 38 O -1.1188 7.8052 4.8904 0
M  V30 39 H -1.2534 -8.3156 -4.8093 0
M  V30 40 H 1.9767 -6.3846 -1.6838 0
M  V30 41 H -1.9983 -6.4544 -3.3816 0
M  V30 42 H -1.681 -5.2654 -1.4039 0
M  V30 43 H 0.5816 -5.9442 0.1666 0
M  V30 44 H -0.8479 -5.0663 0.6547 0
M  V30 45 H -2.4781 -2.9999 -2.1393 0
M  V30 46 H -1.837 -2.9716 -0.5141 0
M  V30 47 H -0.0994 -2.4988 -3.9033 0
M  V30 48 H -1.2295 -3.8468 -4.0371 0
M  V30 49 H 0.5115 -4.139 -3.981 0
M  V30 50 H 1.7585 -4.0015 0.536 0
M  V30 51 H 0.252 -3.1143 0.7822 0
M  V30 52 H 2.2302 -3.371 -2.77 0
M  V30 53 H 1.3493 -1.3642 -2.3795 0
M  V30 54 H -2.2301 -0.7383 -1.2923 0
M  V30 55 H -1.2332 -0.9578 -2.718 0
M  V30 56 H -0.2867 -1.0736 0.1855 0
M  V30 57 H 3.2992 -1.7464 -0.9754 0
M  V30 58 H 2.3415 -1.5724 0.4901 0
M  V30 59 H 2.9428 0.6067 -1.5735 0
M  V30 60 H 3.554 0.4842 0.0641 0
M  V30 61 H -0.9436 2.6165 -0.637 0
M  V30 62 H -1.975 1.2166 -0.6522 0
M  V30 63 H 1.096 0.7097 -2.9073 0
M  V30 64 H 0.7032 2.321 -2.3226 0
M  V30 65 H -0.5799 1.2518 -2.8884 0
M  V30 66 H 2.4153 1.8 1.6238 0
M  V30 67 H -1.8904 2.1798 1.5737 0
M  V30 68 H -1.1383 0.5837 1.6266 0
M  V30 69 H 0.3516 2.0007 2.8464 0
M  V30 70 H -1.0426 3.8012 3.138 0
M  V30 71 H 1.6455 5.3066 2.9742 0
M  V30 72 H -2.3001 5.8055 3.5432 0
M  V30 73 H 0.7954 3.6573 5.0821 0
M  V30 74 H 1.127 6.3271 5.1433 0
M  V30 75 H 0.1708 7.6322 3.2825 0
M  V30 76 H -1.6555 8.0379 1.559 0
M  V30 77 H -3.0604 6.9841 1.5137 0
M  V30 78 H -2.8672 8.1272 2.8595 0
M  V30 79 H -1.0502 5.9181 5.9623 0
M  V30 80 H -0.4509 8.4444 5.1996 0
M  V30 END ATOM
M  V30 BEGIN BOND
M  V30 1 2 1 2
M  V30 2 1 2 3
M  V30 3 1 2 4
M  V30 4 1 3 5
M  V30 5 2 4 6
M  V30 6 2 5 7
M  V30 7 1 7 8
M  V30 8 1 8 9
M  V30 9 1 8 10
M  V30 10 1 9 11
M  V30 11 1 9 12
M  V30 12 1 9 13
M  V30 13 1 10 14
M  V30 14 1 11 15
M  V30 15 1 11 16
M  V30 16 1 12 17
M  V30 17 1 16 18
M  V30 18 1 16 19
M  V30 19 1 18 20
M  V30 20 1 19 21
M  V30 21 1 20 22
M  V30 22 1 20 23
M  V30 23 1 20 24
M  V30 24 2 22 25
M  V30 25 1 23 26
M  V30 26 1 25 27
M  V30 27 1 27 28
M  V30 28 1 28 29
M  V30 29 1 29 30
M  V30 30 1 29 31
M  V30 31 1 30 32
M  V30 32 1 31 33
M  V30 33 1 31 34
M  V30 34 1 32 35
M  V30 35 1 32 36
M  V30 36 1 34 37
M  V30 37 1 35 38
M  V30 38 1 6 7
M  V30 39 1 11 14
M  V30 40 1 17 18
M  V30 41 1 21 22
M  V30 42 1 26 27
M  V30 43 1 34 35
M  V30 44 1 4 39
M  V30 45 1 5 40
M  V30 46 1 6 41
M  V30 47 1 8 42
M  V30 48 1 10 43
M  V30 49 1 10 44
M  V30 50 1 12 45
M  V30 51 1 12 46
M  V30 52 1 13 47
M  V30 53 1 13 48
M  V30 54 1 13 49
M  V30 55 1 14 50
M  V30 56 1 14 51
M  V30 57 1 15 52
M  V30 58 1 16 53
M  V30 59 1 17 54
M  V30 60 1 17 55
M  V30 61 1 18 56
M  V30 62 1 19 57
M  V30 63 1 19 58
M  V30 64 1 21 59
M  V30 65 1 21 60
M  V30 66 1 23 61
M  V30 67 1 23 62
M  V30 68 1 24 63
M  V30 69 1 24 64
M  V30 70 1 24 65
M  V30 71 1 25 66
M  V30 72 1 26 67
M  V30 73 1 26 68
M  V30 74 1 27 69
M  V30 75 1 29 70
M  V30 76 1 31 71
M  V30 77 1 32 72
M  V30 78 1 33 73
M  V30 79 1 34 74
M  V30 80 1 35 75
M  V30 81 1 36 76
M  V30 82 1 36 77
M  V30 83 1 36 78
M  V30 84 1 37 79
M  V30 85 1 38 80
M  V30 END BOND
M  V30 BEGIN COLLECTION
M  V30 MDLV30/STEABS ATOMS=(7 8 9 11 16 18 20 27)
M  V30 END COLLECTION
M  V30 END CTAB
M  END
>  <Column 1>
1253

>  <level_0>
1396

>  <index>
1396

>  <Unnamed: 0>
1396

>  <NO.>
1408

>  <Name>
proscillaridin a

>  <IUPAC_name>
5-[(3s-8r-9s-10r-13r-14s-17r)-14-hydroxy-10-13-dimethyl-3-(3-4-5-trihydroxy-6-methyloxan-2-yl)oxy-1-2-3-6-7-8-9-11-12-15-16-17-dodecahydrocyclopenta[a]phenanthren-17-yl]pyran-2-one

>  <SMILES>
CC1OC(O[C@@H]2C=C3CC[C@@H]4[C@H](CC[C@]5(C)[C@@H](c6ccc(=O)oc6)CC[C@]45O)[C@@]3(C)CC2)C(O)C(O)C1O

>  <CID>
222154

>  <logBB>


>  <BBB+/BBB->
BBB-

>  <Inchi>
InChI=1S/C30H42O8/c1-16-24(32)25(33)26(34)27(37-16)38-19-8-11-28(2)18(14-19)5-6-22-21(28)9-12-29(3)20(10-13-30(22-29)35)17-4-7-23(31)36-15-17/h4-7-14-16-19-22-24-27-32-35H-5-6-8-13H2-1-3H3/t16?-19--20+-21--22+-24?-25?-26?-27?-28--29+-30-/m0/s1

>  <threshold>
-1

>  <reference>
R1|R27|R30|

>  <group>
B

>  <Class>
1

>  <ABC>
30.85

>  <ABCGG>
22.1

>  <nAcid>
0

>  <nBase>
0

>  <nAromAtom>
6

>  <nAromBond>
6

>  <nAtom>
80

>  <nHeavyAtom>
38

>  <nSpiro>
0

>  <nBridgehead>
0

>  <nHetero>
8

>  <nN>
0

>  <nO>
8

>  <nF>
0

>  <BalabanJ>
1.14

>  <BertzCT>
1126.81

>  <nBonds>
85

>  <nBondsO>
43

>  <nBondsS>
77

>  <nBondsD>
2

>  <nBondsT>
0

>  <nBondsA>
6

>  <nBondsM>
8

>  <nBondsKS>
81

>  <nBondsKD>
4

>  <RNCG>
0.12

>  <RPCG>
0.09

>  <FCSP3>
0.77

>  <SZ>
47.67

>  <Sm>
44.18

>  <Sv>
47.1

>  <Sse>
80.29

>  <Sp>
50.61

>  <Si>
90.4

>  <MZ>
0.6

>  <Mm>
0.55

>  <Mv>
0.59

>  <Mse>
1

>  <Mp>
0.63

>  <Mi>
1.13

>  <NsCH3>
3

>  <NdCH2>
0

>  <NssCH2>
8

>  <NtCH>
0

>  <NdsCH>
1

>  <NaaCH>
3

>  <NsssCH>
9

>  <NddC>
0

>  <NtsC>
0

>  <NdssC>
1

>  <NaasC>
1

>  <NaaaC>
0

>  <NssssC>
3

>  <NsNH3>
0

>  <NsNH2>
0

>  <NssNH2>
0

>  <NdNH>
0

>  <NssNH>
0

>  <NaaNH>
0

>  <NtN>
0

>  <NsssNH>
0

>  <NdsN>
0

>  <NaaN>
0

>  <NsssN>
0

>  <NddsN>
0

>  <NaasN>
0

>  <NssssN>
0

>  <NsOH>
4

>  <NdO>
1

>  <NssO>
2

>  <NaaO>
1

>  <NsF>
0

>  <NsSiH3>
0

>  <NssSiH2>
0

>  <NsssSiH>
0

>  <NssssSi>
0

>  <NsPH2>
0

>  <NssPH>
0

>  <NsssP>
0

>  <NdsssP>
0

>  <NsssssP>
0

>  <NsSH>
0

>  <NdS>
0

>  <NssS>
0

>  <NaaS>
0

>  <NdssS>
0

>  <NddssS>
0

>  <NsCl>
0

>  <NsBr>
0

>  <NsI>
0

>  <fragCpx>
443.08

>  <fMF>
0.38

>  <nHBAcc>
8

>  <nHBDon>
4

>  <Kier1>
28.14

>  <Kier2>
10.07

>  <Lipinski>
0

>  <GhoseFilter>
0

>  <FilterItLogS>
-3.36

>  <VMcGowan>
398.16

>  <LabuteASA>
223.21

>  <PEOE_VSA1>
34.32

>  <PEOE_VSA2>
0

>  <PEOE_VSA3>
4.79

>  <PEOE_VSA4>
0

>  <PEOE_VSA5>
0

>  <PEOE_VSA6>
25.5

>  <PEOE_VSA7>
93.09

>  <PEOE_VSA8>
11.48

>  <PEOE_VSA9>
24.07

>  <PEOE_VSA10>
18.31

>  <PEOE_VSA11>
6.29

>  <PEOE_VSA12>
0

>  <PEOE_VSA13>
0

>  <SMR_VSA1>
34.32

>  <SMR_VSA2>
0

>  <SMR_VSA3>
0

>  <SMR_VSA4>
22.67

>  <SMR_VSA5>
120.47

>  <SMR_VSA6>
0

>  <SMR_VSA7>
46.03

>  <SMR_VSA8>
0

>  <SMR_VSA9>
0

>  <SlogP_VSA1>
5.63

>  <SlogP_VSA2>
62.84

>  <SlogP_VSA3>
9.47

>  <SlogP_VSA4>
22.67

>  <SlogP_VSA5>
83.62

>  <SlogP_VSA6>
39.26

>  <SlogP_VSA7>
0

>  <SlogP_VSA8>
0

>  <SlogP_VSA9>
0

>  <SlogP_VSA10>
0

>  <SlogP_VSA11>
0

>  <EState_VSA1>
36.31

>  <EState_VSA2>
34.4

>  <EState_VSA3>
5.92

>  <EState_VSA4>
56.93

>  <EState_VSA5>
11.64

>  <EState_VSA6>
13.19

>  <EState_VSA7>
6.07

>  <EState_VSA8>
19.92

>  <EState_VSA9>
13.89

>  <EState_VSA10>
25.22

>  <VSA_EState1>
17.03

>  <VSA_EState2>
11.54

>  <VSA_EState3>
43

>  <VSA_EState4>
0.99

>  <VSA_EState5>
0.76

>  <VSA_EState6>
3.36

>  <VSA_EState7>
5.32

>  <VSA_EState8>
6.26

>  <VSA_EState9>
0

>  <apol>
84.52

>  <bpol>
48.21

>  <nRing>
6

>  <nHRing>
2

>  <naRing>
1

>  <naHRing>
1

>  <nARing 2>
5

>  <nAHRing 2>
1

>  <nFRing>
1

>  <nFHRing>
0

>  <nFaRing>
0

>  <nFaHRing>
0

>  <nFARing 2>
1

>  <nFAHRing 2>
0

>  <nRot>
3

>  <SLogP>
3.01

>  <SMR>
138.11

>  <TopoPSA(NO)>
129.59

>  <TopoPSA>
129.59

>  <JGI1>
0.26

>  <JGI2>
0.13

>  <JGI3>
0.06

>  <JGI4>
0.06

>  <JGI5>
0.03

>  <Diameter>
19

>  <Radius>
10

>  <TMWC10>
163.81

>  <TSRW10>
90.85

>  <MW>
530.29

>  <AMW>
6.63

>  <WPath>
4759

>  <WPol>
82

>  <Zagreb1>
224

>  <Zagreb2>
283

>  <mZagreb2>
7.85

>  <yes>


>  <nAR-cont>
0

>  <nHA-cont>
0.390024847

>  <MWHBN>
0.521104145

>  <MWHBN-cont>
0

>  <TPSA-cont>
0

>  <pka_cont>
0.97

>  <yes.1>


>  <BBB_SCORE>
0.875024847

>  <MMFF94 Energy>
184.39

$$$$
Compound 1050
Actelion Java MolfileCreator 2.0

  0  0  0  0  0  0              0 V3000
M  V30 BEGIN CTAB
M  V30 COUNTS 38 40 0 0 0
M  V30 BEGIN ATOM
M  V30 1 Cl 4.931 2.5844 -0.3227 0
M  V30 2 C 3.9079 1.7903 0.8126 0
M  V30 3 C 2.6136 1.4228 0.4353 0
M  V30 4 C 4.3811 1.5271 2.0963 0
M  V30 5 C 1.7823 0.7804 1.3514 0
M  V30 6 C 3.5505 0.8931 3.0165 0
M  V30 7 O 0.4984 0.3685 1.1338 0
M  V30 8 C 2.2566 0.5254 2.6429 0
M  V30 9 C -0.0358 0.4008 -0.2028 0
M  V30 10 C -1.0726 -0.7496 -0.333 0
M  V30 11 C -0.7091 1.7593 -0.4572 0
M  V30 12 O -1.5175 -0.8286 -1.7016 0
M  V30 13 N -0.4853 -2.0276 -0.0833 0
M  V30 14 C -2.2904 -0.5181 0.5782 0
M  V30 15 C -1.9194 1.981 0.4506 0
M  V30 16 C -1.7105 -2.2215 -2.0272 0
M  V30 17 C -0.8239 -2.9431 -1.0414 0
M  V30 18 C -2.9327 0.8472 0.3339 0
M  V30 19 C -1.3119 -2.4692 -3.4648 0
M  V30 20 O -0.4813 -4.1113 -1.0582 0
M  V30 21 H 2.2844 1.6614 -0.5693 0
M  V30 22 H 5.3885 1.8154 2.3842 0
M  V30 23 H 3.9065 0.6859 4.0225 0
M  V30 24 H 1.6107 0.0334 3.3672 0
M  V30 25 H 0.7469 0.2246 -0.9512 0
M  V30 26 H -1.025 1.8231 -1.5054 0
M  V30 27 H 1.0E-4 2.5763 -0.2856 0
M  V30 28 H 0.0935 -2.2535 0.7143 0
M  V30 29 H -1.9929 -0.5974 1.6317 0
M  V30 30 H -3.0513 -1.2903 0.4088 0
M  V30 31 H -1.5884 2.0692 1.4926 0
M  V30 32 H -2.4016 2.9306 0.1915 0
M  V30 33 H -2.7569 -2.4863 -1.844 0
M  V30 34 H -3.7442 1.0044 1.0536 0
M  V30 35 H -3.3878 0.8665 -0.6638 0
M  V30 36 H -1.4354 -3.5222 -3.7353 0
M  V30 37 H -0.2649 -2.1942 -3.6347 0
M  V30 38 H -1.9157 -1.8563 -4.1419 0
M  V30 END ATOM
M  V30 BEGIN BOND
M  V30 1 1 1 2
M  V30 2 2 2 3
M  V30 3 1 2 4
M  V30 4 1 3 5
M  V30 5 2 4 6
M  V30 6 1 5 7
M  V30 7 2 5 8
M  V30 8 1 7 9
M  V30 9 1 9 10
M  V30 10 1 9 11
M  V30 11 1 10 12
M  V30 12 1 10 13
M  V30 13 1 10 14
M  V30 14 1 11 15
M  V30 15 1 12 16
M  V30 16 1 13 17
M  V30 17 1 14 18
M  V30 18 1 16 19
M  V30 19 2 17 20
M  V30 20 1 6 8
M  V30 21 1 15 18
M  V30 22 1 16 17
M  V30 23 1 3 21
M  V30 24 1 4 22
M  V30 25 1 6 23
M  V30 26 1 8 24
M  V30 27 1 9 25
M  V30 28 1 11 26
M  V30 29 1 11 27
M  V30 30 1 13 28
M  V30 31 1 14 29
M  V30 32 1 14 30
M  V30 33 1 15 31
M  V30 34 1 15 32
M  V30 35 1 16 33
M  V30 36 1 18 34
M  V30 37 1 18 35
M  V30 38 1 19 36
M  V30 39 1 19 37
M  V30 40 1 19 38
M  V30 END BOND
M  V30 END CTAB
M  END
>  <Column 1>
1254

>  <level_0>
1397

>  <index>
1397

>  <Unnamed: 0>
1397

>  <NO.>
1409

>  <Name>
enilospirone

>  <IUPAC_name>
6-(3-chlorophenoxy)-2-methyl-1-oxa-4-azaspiro[4.5]decan-3-one

>  <SMILES>
CC1OC2(CCCCC2Oc2cccc(Cl)c2)NC1=O

>  <CID>
68794

>  <logBB>


>  <BBB+/BBB->
BBB+

>  <Inchi>
InChI=1S/C15H18ClNO3/c1-10-14(18)17-15(20-10)8-3-2-7-13(15)19-12-6-4-5-11(16)9-12/h4-6-9-10-13H-2-3-7-8H2-1H3-(H-17-18)

>  <threshold>
-1

>  <reference>
R1|R19|R27|R27|R30|

>  <group>
B

>  <Class>
1

>  <ABC>
15.78

>  <ABCGG>
13.26

>  <nAcid>
0

>  <nBase>
0

>  <nAromAtom>
6

>  <nAromBond>
6

>  <nAtom>
38

>  <nHeavyAtom>
20

>  <nSpiro>
1

>  <nBridgehead>
0

>  <nHetero>
5

>  <nN>
1

>  <nO>
3

>  <nF>
0

>  <BalabanJ>
1.66

>  <BertzCT>
521.6

>  <nBonds>
40

>  <nBondsO>
22

>  <nBondsS>
33

>  <nBondsD>
1

>  <nBondsT>
0

>  <nBondsA>
6

>  <nBondsM>
7

>  <nBondsKS>
36

>  <nBondsKD>
4

>  <RNCG>
0.28

>  <RPCG>
0.14

>  <FCSP3>
0.53

>  <SZ>
26

>  <Sm>
24.62

>  <Sv>
23.87

>  <Sse>
38.41

>  <Sp>
25.59

>  <Si>
42.81

>  <MZ>
0.68

>  <Mm>
0.65

>  <Mv>
0.63

>  <Mse>
1.01

>  <Mp>
0.67

>  <Mi>
1.13

>  <NsCH3>
1

>  <NdCH2>
0

>  <NssCH2>
4

>  <NtCH>
0

>  <NdsCH>
0

>  <NaaCH>
4

>  <NsssCH>
2

>  <NddC>
0

>  <NtsC>
0

>  <NdssC>
1

>  <NaasC>
2

>  <NaaaC>
0

>  <NssssC>
1

>  <NsNH3>
0

>  <NsNH2>
0

>  <NssNH2>
0

>  <NdNH>
0

>  <NssNH>
1

>  <NaaNH>
0

>  <NtN>
0

>  <NsssNH>
0

>  <NdsN>
0

>  <NaaN>
0

>  <NsssN>
0

>  <NddsN>
0

>  <NaasN>
0

>  <NssssN>
0

>  <NsOH>
0

>  <NdO>
1

>  <NssO>
2

>  <NaaO>
0

>  <NsF>
0

>  <NsSiH3>
0

>  <NssSiH2>
0

>  <NsssSiH>
0

>  <NssssSi>
0

>  <NsPH2>
0

>  <NssPH>
0

>  <NsssP>
0

>  <NdsssP>
0

>  <NsssssP>
0

>  <NsSH>
0

>  <NdS>
0

>  <NssS>
0

>  <NaaS>
0

>  <NdssS>
0

>  <NddssS>
0

>  <NsCl>
1

>  <NsBr>
0

>  <NsI>
0

>  <fragCpx>
104.05

>  <fMF>
0.45

>  <nHBAcc>
3

>  <nHBDon>
1

>  <Kier1>
14.92

>  <Kier2>
6.01

>  <Lipinski>
1

>  <GhoseFilter>
1

>  <FilterItLogS>
-3.95

>  <VMcGowan>
212.26

>  <LabuteASA>
122.95

>  <PEOE_VSA1>
14.79

>  <PEOE_VSA2>
4.79

>  <PEOE_VSA3>
0

>  <PEOE_VSA4>
0

>  <PEOE_VSA5>
0

>  <PEOE_VSA6>
17.67

>  <PEOE_VSA7>
50.81

>  <PEOE_VSA8>
5.02

>  <PEOE_VSA9>
0

>  <PEOE_VSA10>
17.96

>  <PEOE_VSA11>
5.72

>  <PEOE_VSA12>
0

>  <PEOE_VSA13>
5.91

>  <SMR_VSA1>
14.27

>  <SMR_VSA2>
0

>  <SMR_VSA3>
5.32

>  <SMR_VSA4>
0

>  <SMR_VSA5>
50.54

>  <SMR_VSA6>
0

>  <SMR_VSA7>
29.29

>  <SMR_VSA8>
0

>  <SMR_VSA9>
5.75

>  <SlogP_VSA1>
10.05

>  <SlogP_VSA2>
23.84

>  <SlogP_VSA3>
9.53

>  <SlogP_VSA4>
0

>  <SlogP_VSA5>
32.61

>  <SlogP_VSA6>
24.27

>  <SlogP_VSA7>
5.02

>  <SlogP_VSA8>
0

>  <SlogP_VSA9>
0

>  <SlogP_VSA10>
0

>  <SlogP_VSA11>
5.75

>  <EState_VSA1>
11.83

>  <EState_VSA2>
12.01

>  <EState_VSA3>
10.77

>  <EState_VSA4>
25.68

>  <EState_VSA5>
0

>  <EState_VSA6>
19.06

>  <EState_VSA7>
12.13

>  <EState_VSA8>
5.32

>  <EState_VSA9>
21.07

>  <EState_VSA10>
4.79

>  <VSA_EState1>
11.94

>  <VSA_EState2>
11.79

>  <VSA_EState3>
3.62

>  <VSA_EState4>
-0.68

>  <VSA_EState5>
0.65

>  <VSA_EState6>
7.31

>  <VSA_EState7>
3.15

>  <VSA_EState8>
1.77

>  <VSA_EState9>
0

>  <apol>
42.74

>  <bpol>
23.48

>  <nRing>
3

>  <nHRing>
1

>  <naRing>
1

>  <naHRing>
0

>  <nARing 2>
2

>  <nAHRing 2>
1

>  <nFRing>
0

>  <nFHRing>
0

>  <nFaRing>
0

>  <nFaHRing>
0

>  <nFARing 2>
0

>  <nFAHRing 2>
0

>  <nRot>
2

>  <SLogP>
2.89

>  <SMR>
75.76

>  <TopoPSA(NO)>
47.56

>  <TopoPSA>
47.56

>  <JGI1>
0.25

>  <JGI2>
0.08

>  <JGI3>
0.06

>  <JGI4>
0.05

>  <JGI5>
0.02

>  <Diameter>
9

>  <Radius>
5

>  <TMWC10>
116.31

>  <TSRW10>
68.3

>  <MW>
295.1

>  <AMW>
7.77

>  <WPath>
782

>  <WPol>
31

>  <Zagreb1>
108

>  <Zagreb2>
128

>  <mZagreb2>
4.32

>  <yes>


>  <nAR-cont>
1

>  <nHA-cont>
0.999629945

>  <MWHBN>
0.232849541

>  <MWHBN-cont>
0.983766131

>  <TPSA-cont>
0.668001667

>  <pka_cont>
0.97

>  <yes.1>


>  <BBB_SCORE>
5.296282476

>  <MMFF94 Energy>
37.968

$$$$
Compound 1051
Actelion Java MolfileCreator 2.0

  0  0  0  0  0  0              0 V3000
M  V30 BEGIN CTAB
M  V30 COUNTS 31 32 0 0 0
M  V30 BEGIN ATOM
M  V30 1 O -1.3393 0.9452 -1.1029 0
M  V30 2 C -1.7815 -0.3224 -0.8485 0
M  V30 3 C 0.0685 1.1651 -0.8891 0
M  V30 4 C -1.0616 -1.2605 -0.1056 0
M  V30 5 C -3.0449 -0.6394 -1.3483 0
M  V30 6 C 0.5329 0.5951 0.4793 0
M  V30 7 C 0.2696 2.6772 -0.9901 0
M  V30 8 C -1.6069 -2.5371 0.0947 0
M  V30 9 C 0.2943 -0.9285 0.4509 0
M  V30 10 C -3.5866 -1.9065 -1.1357 0
M  V30 11 N 1.9015 1.0093 0.8803 0
M  V30 12 C -2.8651 -2.8572 -0.4173 0
M  V30 13 C 2.1706 0.732 2.2911 0
M  V30 14 C 2.9722 0.4762 0.0415 0
M  V30 15 H 0.6092 0.6891 -1.7177 0
M  V30 16 H -3.6053 0.1034 -1.9097 0
M  V30 17 H -0.1624 1.0148 1.223 0
M  V30 18 H 1.3262 2.955 -0.9446 0
M  V30 19 H -0.2661 3.1963 -0.1875 0
M  V30 20 H -0.1408 3.053 -1.9341 0
M  V30 21 H -1.0553 -3.2872 0.6568 0
M  V30 22 H 1.0353 -1.4316 -0.1806 0
M  V30 23 H 0.3801 -1.3365 1.4648 0
M  V30 24 H -4.5687 -2.1503 -1.5315 0
M  V30 25 H -3.2834 -3.8469 -0.2531 0
M  V30 26 H 3.1239 1.1806 2.5925 0
M  V30 27 H 1.4022 1.1807 2.9304 0
M  V30 28 H 2.2185 -0.3406 2.5062 0
M  V30 29 H 3.094 -0.6065 0.1489 0
M  V30 30 H 2.8076 0.7049 -1.0156 0
M  V30 31 H 3.9265 0.9452 0.308 0
M  V30 END ATOM
M  V30 BEGIN BOND
M  V30 1 1 1 2
M  V30 2 1 1 3
M  V30 3 2 2 4
M  V30 4 1 2 5
M  V30 5 1 3 6
M  V30 6 1 3 7
M  V30 7 1 4 8
M  V30 8 1 4 9
M  V30 9 2 5 10
M  V30 10 1 6 11
M  V30 11 2 8 12
M  V30 12 1 11 13
M  V30 13 1 11 14
M  V30 14 1 6 9
M  V30 15 1 10 12
M  V30 16 1 3 15
M  V30 17 1 5 16
M  V30 18 1 6 17
M  V30 19 1 7 18
M  V30 20 1 7 19
M  V30 21 1 7 20
M  V30 22 1 8 21
M  V30 23 1 9 22
M  V30 24 1 9 23
M  V30 25 1 10 24
M  V30 26 1 12 25
M  V30 27 1 13 26
M  V30 28 1 13 27
M  V30 29 1 13 28
M  V30 30 1 14 29
M  V30 31 1 14 30
M  V30 32 1 14 31
M  V30 END BOND
M  V30 END CTAB
M  END
>  <Column 1>
1255

>  <level_0>
1398

>  <index>
1398

>  <Unnamed: 0>
1398

>  <NO.>
1410

>  <Name>
trebenzomine

>  <IUPAC_name>
n-n-2-trimethyl-3-4-dihydro-2h-chromen-3-amine

>  <SMILES>
CC1Oc2ccccc2CC1N(C)C

>  <CID>
32142

>  <logBB>


>  <BBB+/BBB->
BBB+

>  <Inchi>
InChI=1S/C12H17NO/c1-9-11(13(2)3)8-10-6-4-5-7-12(10)14-9/h4-7-9-11H-8H2-1-3H3

>  <threshold>
-1

>  <reference>
R1|R19|R6|R27|R27|R30|

>  <group>
B

>  <Class>
1

>  <ABC>
10.81

>  <ABCGG>
9.38

>  <nAcid>
0

>  <nBase>
1

>  <nAromAtom>
6

>  <nAromBond>
6

>  <nAtom>
31

>  <nHeavyAtom>
14

>  <nSpiro>
0

>  <nBridgehead>
0

>  <nHetero>
2

>  <nN>
1

>  <nO>
1

>  <nF>
0

>  <BalabanJ>
1.99

>  <BertzCT>
321.85

>  <nBonds>
32

>  <nBondsO>
15

>  <nBondsS>
26

>  <nBondsD>
0

>  <nBondsT>
0

>  <nBondsA>
6

>  <nBondsM>
6

>  <nBondsKS>
29

>  <nBondsKD>
3

>  <RNCG>
0.47

>  <RPCG>
0.12

>  <FCSP3>
0.5

>  <SZ>
17.33

>  <Sm>
15.92

>  <Sv>
18.08

>  <Sse>
30.54

>  <Sp>
19.93

>  <Si>
35.03

>  <MZ>
0.56

>  <Mm>
0.51

>  <Mv>
0.58

>  <Mse>
0.99

>  <Mp>
0.64

>  <Mi>
1.13

>  <NsCH3>
3

>  <NdCH2>
0

>  <NssCH2>
1

>  <NtCH>
0

>  <NdsCH>
0

>  <NaaCH>
4

>  <NsssCH>
2

>  <NddC>
0

>  <NtsC>
0

>  <NdssC>
0

>  <NaasC>
2

>  <NaaaC>
0

>  <NssssC>
0

>  <NsNH3>
0

>  <NsNH2>
0

>  <NssNH2>
0

>  <NdNH>
0

>  <NssNH>
0

>  <NaaNH>
0

>  <NtN>
0

>  <NsssNH>
0

>  <NdsN>
0

>  <NaaN>
0

>  <NsssN>
1

>  <NddsN>
0

>  <NaasN>
0

>  <NssssN>
0

>  <NsOH>
0

>  <NdO>
0

>  <NssO>
1

>  <NaaO>
0

>  <NsF>
0

>  <NsSiH3>
0

>  <NssSiH2>
0

>  <NsssSiH>
0

>  <NssssSi>
0

>  <NsPH2>
0

>  <NssPH>
0

>  <NsssP>
0

>  <NdsssP>
0

>  <NsssssP>
0

>  <NsSH>
0

>  <NdS>
0

>  <NssS>
0

>  <NaaS>
0

>  <NdssS>
0

>  <NddssS>
0

>  <NsCl>
0

>  <NsBr>
0

>  <NsI>
0

>  <fragCpx>
43.02

>  <fMF>
0.32

>  <nHBAcc>
2

>  <nHBDon>
0

>  <Kier1>
10.52

>  <Kier2>
4.24

>  <Lipinski>
1

>  <GhoseFilter>
1

>  <FilterItLogS>
-2.4

>  <VMcGowan>
161.17

>  <LabuteASA>
85.49

>  <PEOE_VSA1>
9.64

>  <PEOE_VSA2>
0

>  <PEOE_VSA3>
0

>  <PEOE_VSA4>
0

>  <PEOE_VSA5>
0

>  <PEOE_VSA6>
18.2

>  <PEOE_VSA7>
39.07

>  <PEOE_VSA8>
6.04

>  <PEOE_VSA9>
0

>  <PEOE_VSA10>
11.85

>  <PEOE_VSA11>
0

>  <PEOE_VSA12>
0

>  <PEOE_VSA13>
0

>  <SMR_VSA1>
4.74

>  <SMR_VSA2>
0

>  <SMR_VSA3>
4.9

>  <SMR_VSA4>
0

>  <SMR_VSA5>
25.49

>  <SMR_VSA6>
14.1

>  <SMR_VSA7>
29.83

>  <SMR_VSA8>
0

>  <SMR_VSA9>
5.75

>  <SlogP_VSA1>
4.74

>  <SlogP_VSA2>
31.14

>  <SlogP_VSA3>
6.42

>  <SlogP_VSA4>
0

>  <SlogP_VSA5>
12.49

>  <SlogP_VSA6>
24.27

>  <SlogP_VSA7>
0

>  <SlogP_VSA8>
0

>  <SlogP_VSA9>
0

>  <SlogP_VSA10>
0

>  <SlogP_VSA11>
5.75

>  <EState_VSA1>
0

>  <EState_VSA2>
6.1

>  <EState_VSA3>
6.04

>  <EState_VSA4>
12.17

>  <EState_VSA5>
5.56

>  <EState_VSA6>
0

>  <EState_VSA7>
6.07

>  <EState_VSA8>
44.12

>  <EState_VSA9>
4.74

>  <EState_VSA10>
0

>  <VSA_EState1>
5.86

>  <VSA_EState2>
2.24

>  <VSA_EState3>
0

>  <VSA_EState4>
1.32

>  <VSA_EState5>
1.05

>  <VSA_EState6>
8.8

>  <VSA_EState7>
1.37

>  <VSA_EState8>
2.14

>  <VSA_EState9>
4.22

>  <apol>
33.28

>  <bpol>
20.5

>  <nRing>
2

>  <nHRing>
1

>  <naRing>
1

>  <naHRing>
0

>  <nARing 2>
1

>  <nAHRing 2>
1

>  <nFRing>
1

>  <nFHRing>
1

>  <nFaRing>
0

>  <nFaHRing>
0

>  <nFARing 2>
1

>  <nFAHRing 2>
1

>  <nRot>
1

>  <SLogP>
1.94

>  <SMR>
57.71

>  <TopoPSA(NO)>
12.47

>  <TopoPSA>
12.47

>  <JGI1>
0.2

>  <JGI2>
0.08

>  <JGI3>
0.05

>  <JGI4>
0.06

>  <JGI5>
0.04

>  <Diameter>
7

>  <Radius>
4

>  <TMWC10>
98.74

>  <TSRW10>
45.92

>  <MW>
191.13

>  <AMW>
6.17

>  <WPath>
284

>  <WPol>
21

>  <Zagreb1>
72

>  <Zagreb2>
84

>  <mZagreb2>
3.08

>  <yes>


>  <nAR-cont>
0.816016

>  <nHA-cont>
0.887625254

>  <MWHBN>
0.144665698

>  <MWHBN-cont>
0.917891919

>  <TPSA-cont>
0.912951657

>  <pka_cont>
0.97

>  <yes.1>


>  <BBB_SCORE>
5.391382445

>  <MMFF94 Energy>
54.829

$$$$
Compound 1052
Actelion Java MolfileCreator 2.0

  0  0  0  0  0  0              0 V3000
M  V30 BEGIN CTAB
M  V30 COUNTS 44 47 0 0 0
M  V30 BEGIN ATOM
M  V30 1 O 1.5236 -1.2027 -2.3262 0
M  V30 2 C 0.6622 -0.9487 -1.4855 0
M  V30 3 C -0.7513 -0.7222 -1.9104 0
M  V30 4 C 0.9839 -0.8301 0.0092 0 CFG=1
M  V30 5 C -1.7573 -0.4323 -0.9598 0
M  V30 6 C -1.0508 -0.7846 -3.2791 0
M  V30 7 N 1.4129 0.5594 0.3139 0
M  V30 8 C -0.2139 -1.2883 0.8563 0
M  V30 9 C -3.058 -0.1777 -1.4355 0
M  V30 10 C -1.4156 -0.3585 0.5361 0 CFG=1
M  V30 11 C -2.349 -0.5487 -3.7224 0
M  V30 12 C 0.3158 1.5296 0.2023 0
M  V30 13 C 2.1294 0.6369 1.5932 0
M  V30 14 C -0.4918 -2.7917 0.6873 0
M  V30 15 C -3.3393 -0.2437 -2.8004 0
M  V30 16 C -0.9887 1.0947 0.8836 0
M  V30 17 C -2.6104 -0.7341 1.4419 0
M  V30 18 C 3.0158 1.851 1.6216 0
M  V30 19 O -4.5943 -0.0074 -3.2783 0
M  V30 20 C 4.4108 1.7672 2.1928 0
M  V30 21 C 4.2169 1.9445 0.7132 0
M  V30 22 H 1.8241 -1.5178 0.1775 0
M  V30 23 H -0.2706 -1.0085 -4.0041 0
M  V30 24 H 0.0479 -1.1641 1.9169 0
M  V30 25 H -3.8566 0.0787 -0.7469 0
M  V30 26 H -2.5828 -0.5939 -4.7824 0
M  V30 27 H 0.6091 2.5118 0.59 0
M  V30 28 H 0.1242 1.7167 -0.8612 0
M  V30 29 H 2.7627 -0.25 1.721 0
M  V30 30 H 1.4465 0.658 2.4503 0
M  V30 31 H 0.4192 -3.3702 0.8757 0
M  V30 32 H -1.2415 -3.1341 1.4076 0
M  V30 33 H -0.8484 -3.0513 -0.3131 0
M  V30 34 H -0.8611 1.1853 1.9708 0
M  V30 35 H -1.7815 1.8029 0.6085 0
M  V30 36 H -2.2958 -0.8305 2.4877 0
M  V30 37 H -3.0695 -1.6821 1.1405 0
M  V30 38 H -3.3942 0.0316 1.4207 0
M  V30 39 H 2.4631 2.7617 1.8206 0
M  V30 40 H -5.1863 0.1894 -2.5343 0
M  V30 41 H 4.7819 0.8096 2.5393 0
M  V30 42 H 4.7792 2.6152 2.7589 0
M  V30 43 H 4.4305 1.1047 0.0607 0
M  V30 44 H 4.4429 2.91 0.2759 0
M  V30 END ATOM
M  V30 BEGIN BOND
M  V30 1 2 1 2
M  V30 2 1 2 3
M  V30 3 1 2 4
M  V30 4 2 3 5
M  V30 5 1 3 6
M  V30 6 1 4 7
M  V30 7 1 4 8
M  V30 8 1 5 9
M  V30 9 1 5 10
M  V30 10 2 6 11
M  V30 11 1 7 12
M  V30 12 1 7 13
M  V30 13 1 8 14
M  V30 14 2 9 15
M  V30 15 1 10 16
M  V30 16 1 10 17
M  V30 17 1 13 18
M  V30 18 1 15 19
M  V30 19 1 18 20
M  V30 20 1 18 21
M  V30 21 1 8 10
M  V30 22 1 11 15
M  V30 23 1 12 16
M  V30 24 1 20 21
M  V30 25 1 4 22
M  V30 26 1 6 23
M  V30 27 1 8 24
M  V30 28 1 9 25
M  V30 29 1 11 26
M  V30 30 1 12 27
M  V30 31 1 12 28
M  V30 32 1 13 29
M  V30 33 1 13 30
M  V30 34 1 14 31
M  V30 35 1 14 32
M  V30 36 1 14 33
M  V30 37 1 16 34
M  V30 38 1 16 35
M  V30 39 1 17 36
M  V30 40 1 17 37
M  V30 41 1 17 38
M  V30 42 1 18 39
M  V30 43 1 19 40
M  V30 44 1 20 41
M  V30 45 1 20 42
M  V30 46 1 21 43
M  V30 47 1 21 44
M  V30 END BOND
M  V30 BEGIN COLLECTION
M  V30 MDLV30/STEABS ATOMS=(2 4 10)
M  V30 END COLLECTION
M  V30 END CTAB
M  END
>  <Column 1>
1256

>  <level_0>
1399

>  <index>
1399

>  <Unnamed: 0>
1399

>  <NO.>
1411

>  <Name>
ketazocine

>  <IUPAC_name>
(1r-9s)-10-(cyclopropylmethyl)-4-hydroxy-1-13-dimethyl-10-azatricyclo[7.3.1.02-7]trideca-2(7)-3-5-trien-8-one

>  <SMILES>
CC1[C@H]2C(=O)c3ccc(O)cc3[C@]1(C)CCN2CC1CC1

>  <CID>
71426

>  <logBB>


>  <BBB+/BBB->
BBB+

>  <Inchi>
InChI=1S/C18H23NO2/c1-11-16-17(21)14-6-5-13(20)9-15(14)18(11-2)7-8-19(16)10-12-3-4-12/h5-6-9-11-12-16-20H-3-4-7-8-10H2-1-2H3/t11?-16--18+/m0/s1

>  <threshold>
-1

>  <reference>
R1|R27|R30|

>  <group>
B

>  <Class>
1

>  <ABC>
17.13

>  <ABCGG>
13.73

>  <nAcid>
0

>  <nBase>
1

>  <nAromAtom>
6

>  <nAromBond>
6

>  <nAtom>
44

>  <nHeavyAtom>
21

>  <nSpiro>
0

>  <nBridgehead>
2

>  <nHetero>
3

>  <nN>
1

>  <nO>
2

>  <nF>
0

>  <BalabanJ>
1.62

>  <BertzCT>
607.24

>  <nBonds>
47

>  <nBondsO>
24

>  <nBondsS>
40

>  <nBondsD>
1

>  <nBondsT>
0

>  <nBondsA>
6

>  <nBondsM>
7

>  <nBondsKS>
43

>  <nBondsKD>
4

>  <RNCG>
0.34

>  <RPCG>
0.2

>  <FCSP3>
0.61

>  <SZ>
25.67

>  <Sm>
23.76

>  <Sv>
26.42

>  <Sse>
43.53

>  <Sp>
28.8

>  <Si>
49.49

>  <MZ>
0.58

>  <Mm>
0.54

>  <Mv>
0.6

>  <Mse>
0.99

>  <Mp>
0.65

>  <Mi>
1.12

>  <NsCH3>
2

>  <NdCH2>
0

>  <NssCH2>
5

>  <NtCH>
0

>  <NdsCH>
0

>  <NaaCH>
3

>  <NsssCH>
3

>  <NddC>
0

>  <NtsC>
0

>  <NdssC>
1

>  <NaasC>
3

>  <NaaaC>
0

>  <NssssC>
1

>  <NsNH3>
0

>  <NsNH2>
0

>  <NssNH2>
0

>  <NdNH>
0

>  <NssNH>
0

>  <NaaNH>
0

>  <NtN>
0

>  <NsssNH>
0

>  <NdsN>
0

>  <NaaN>
0

>  <NsssN>
1

>  <NddsN>
0

>  <NaasN>
0

>  <NssssN>
0

>  <NsOH>
1

>  <NdO>
1

>  <NssO>
0

>  <NaaO>
0

>  <NsF>
0

>  <NsSiH3>
0

>  <NssSiH2>
0

>  <NsssSiH>
0

>  <NssssSi>
0

>  <NsPH2>
0

>  <NssPH>
0

>  <NsssP>
0

>  <NdsssP>
0

>  <NsssssP>
0

>  <NsSH>
0

>  <NdS>
0

>  <NssS>
0

>  <NaaS>
0

>  <NdssS>
0

>  <NddssS>
0

>  <NsCl>
0

>  <NsBr>
0

>  <NsI>
0

>  <fragCpx>
156.03

>  <fMF>
0.39

>  <nHBAcc>
3

>  <nHBDon>
1

>  <Kier1>
14.58

>  <Kier2>
5

>  <Lipinski>
1

>  <GhoseFilter>
1

>  <FilterItLogS>
-3.56

>  <VMcGowan>
225.56

>  <LabuteASA>
125.51

>  <PEOE_VSA1>
5.11

>  <PEOE_VSA2>
9.69

>  <PEOE_VSA3>
0

>  <PEOE_VSA4>
0

>  <PEOE_VSA5>
0

>  <PEOE_VSA6>
13.85

>  <PEOE_VSA7>
66.82

>  <PEOE_VSA8>
12.11

>  <PEOE_VSA9>
6.04

>  <PEOE_VSA10>
5.75

>  <PEOE_VSA11>
5.78

>  <PEOE_VSA12>
0

>  <PEOE_VSA13>
0

>  <SMR_VSA1>
9.9

>  <SMR_VSA2>
0

>  <SMR_VSA3>
4.9

>  <SMR_VSA4>
11.84

>  <SMR_VSA5>
44.57

>  <SMR_VSA6>
13.09

>  <SMR_VSA7>
29.33

>  <SMR_VSA8>
0

>  <SMR_VSA9>
5.75

>  <SlogP_VSA1>
0

>  <SlogP_VSA2>
34.92

>  <SlogP_VSA3>
5.41

>  <SlogP_VSA4>
11.84

>  <SlogP_VSA5>
49.03

>  <SlogP_VSA6>
18.2

>  <SlogP_VSA7>
0

>  <SlogP_VSA8>
0

>  <SlogP_VSA9>
0

>  <SlogP_VSA10>
0

>  <SlogP_VSA11>
5.75

>  <EState_VSA1>
0

>  <EState_VSA2>
22.99

>  <EState_VSA3>
5.92

>  <EState_VSA4>
36.56

>  <EState_VSA5>
12.84

>  <EState_VSA6>
6.07

>  <EState_VSA7>
12.13

>  <EState_VSA8>
18.75

>  <EState_VSA9>
0

>  <EState_VSA10>
9.9

>  <VSA_EState1>
0

>  <VSA_EState2>
15.41

>  <VSA_EState3>
9.83

>  <VSA_EState4>
1.9

>  <VSA_EState5>
1.66

>  <VSA_EState6>
5.32

>  <VSA_EState7>
3.72

>  <VSA_EState8>
6.57

>  <VSA_EState9>
0

>  <apol>
48.1

>  <bpol>
25.65

>  <nRing>
4

>  <nHRing>
1

>  <naRing>
1

>  <naHRing>
0

>  <nARing 2>
3

>  <nAHRing 2>
1

>  <nFRing>
1

>  <nFHRing>
1

>  <nFaRing>
0

>  <nFaHRing>
0

>  <nFARing 2>
1

>  <nFAHRing 2>
1

>  <nRot>
2

>  <SLogP>
2.97

>  <SMR>
81.66

>  <TopoPSA(NO)>
40.54

>  <TopoPSA>
40.54

>  <JGI1>
0.23

>  <JGI2>
0.11

>  <JGI3>
0.06

>  <JGI4>
0.06

>  <JGI5>
0.03

>  <Diameter>
10

>  <Radius>
5

>  <TMWC10>
122.31

>  <TSRW10>
74.46

>  <MW>
285.17

>  <AMW>
6.48

>  <WPath>
807

>  <WPol>
42

>  <Zagreb1>
124

>  <Zagreb2>
156

>  <mZagreb2>
4.35

>  <yes>


>  <nAR-cont>
0.691115

>  <nHA-cont>
0.994529749

>  <MWHBN>
0.236868917

>  <MWHBN-cont>
0.979039148

>  <TPSA-cont>
0.717005626

>  <pka_cont>
0.97

>  <yes.1>


>  <BBB_SCORE>
5.073214724

>  <MMFF94 Energy>
91.665

$$$$
Compound 1053
Actelion Java MolfileCreator 2.0

  0  0  0  0  0  0              0 V3000
M  V30 BEGIN CTAB
M  V30 COUNTS 11 10 0 0 0
M  V30 BEGIN ATOM
M  V30 1 C -0.59 -0.0737 0.1474 0
M  V30 2 C 0.1025 1.2596 -0.0773 0
M  V30 3 C 0.3806 -1.2365 0.0305 0
M  V30 4 H -1.3946 -0.195 -0.586 0
M  V30 5 H -1.0512 -0.0821 1.1412 0
M  V30 6 H 0.8945 1.4198 0.6611 0
M  V30 7 H 0.5492 1.3063 -1.0755 0
M  V30 8 H -0.6161 2.0802 0.0119 0
M  V30 9 H 1.1814 -1.1552 0.7725 0
M  V30 10 H -0.141 -2.1842 0.1963 0
M  V30 11 H 0.8361 -1.2688 -0.9642 0
M  V30 END ATOM
M  V30 BEGIN BOND
M  V30 1 1 1 2
M  V30 2 1 1 3
M  V30 3 1 1 4
M  V30 4 1 1 5
M  V30 5 1 2 6
M  V30 6 1 2 7
M  V30 7 1 2 8
M  V30 8 1 3 9
M  V30 9 1 3 10
M  V30 10 1 3 11
M  V30 END BOND
M  V30 END CTAB
M  END
>  <Column 1>
1257

>  <level_0>
1400

>  <index>
1400

>  <Unnamed: 0>
1400

>  <NO.>
1412

>  <Name>
propanidid

>  <IUPAC_name>


>  <SMILES>
CCC

>  <CID>
6334

>  <logBB>


>  <BBB+/BBB->
BBB+

>  <Inchi>
InChI=1S/C3H8/c1-3-2/h3H2-1-2H3

>  <threshold>
-1

>  <reference>
R1|R13|R27|R30|

>  <group>
B

>  <Class>
1

>  <ABC>
1.41

>  <ABCGG>
1.41

>  <nAcid>
0

>  <nBase>
0

>  <nAromAtom>
0

>  <nAromBond>
0

>  <nAtom>
11

>  <nHeavyAtom>
3

>  <nSpiro>
0

>  <nBridgehead>
0

>  <nHetero>
0

>  <nN>
0

>  <nO>
0

>  <nF>
0

>  <BalabanJ>
1.63

>  <BertzCT>
0

>  <nBonds>
10

>  <nBondsO>
2

>  <nBondsS>
10

>  <nBondsD>
0

>  <nBondsT>
0

>  <nBondsA>
0

>  <nBondsM>
0

>  <nBondsKS>
10

>  <nBondsKD>
0

>  <RNCG>
0.34

>  <RPCG>
0.14

>  <FCSP3>
1

>  <SZ>
4.33

>  <Sm>
3.67

>  <Sv>
5.17

>  <Sse>
10.55

>  <Sp>
6.19

>  <Si>
12.66

>  <MZ>
0.39

>  <Mm>
0.33

>  <Mv>
0.47

>  <Mse>
0.96

>  <Mp>
0.56

>  <Mi>
1.15

>  <NsCH3>
2

>  <NdCH2>
0

>  <NssCH2>
1

>  <NtCH>
0

>  <NdsCH>
0

>  <NaaCH>
0

>  <NsssCH>
0

>  <NddC>
0

>  <NtsC>
0

>  <NdssC>
0

>  <NaasC>
0

>  <NaaaC>
0

>  <NssssC>
0

>  <NsNH3>
0

>  <NsNH2>
0

>  <NssNH2>
0

>  <NdNH>
0

>  <NssNH>
0

>  <NaaNH>
0

>  <NtN>
0

>  <NsssNH>
0

>  <NdsN>
0

>  <NaaN>
0

>  <NsssN>
0

>  <NddsN>
0

>  <NaasN>
0

>  <NssssN>
0

>  <NsOH>
0

>  <NdO>
0

>  <NssO>
0

>  <NaaO>
0

>  <NsF>
0

>  <NsSiH3>
0

>  <NssSiH2>
0

>  <NsssSiH>
0

>  <NssssSi>
0

>  <NsPH2>
0

>  <NssPH>
0

>  <NsssP>
0

>  <NdsssP>
0

>  <NsssssP>
0

>  <NsSH>
0

>  <NdS>
0

>  <NssS>
0

>  <NaaS>
0

>  <NdssS>
0

>  <NddssS>
0

>  <NsCl>
0

>  <NsBr>
0

>  <NsI>
0

>  <fragCpx>
2

>  <fMF>
0

>  <nHBAcc>
0

>  <nHBDon>
0

>  <Kier1>
3

>  <Kier2>
2

>  <Lipinski>
1

>  <GhoseFilter>
0

>  <FilterItLogS>
-0.82

>  <VMcGowan>
53.13

>  <LabuteASA>
21.47

>  <PEOE_VSA1>
0

>  <PEOE_VSA2>
0

>  <PEOE_VSA3>
0

>  <PEOE_VSA4>
0

>  <PEOE_VSA5>
0

>  <PEOE_VSA6>
20.27

>  <PEOE_VSA7>
0

>  <PEOE_VSA8>
0

>  <PEOE_VSA9>
0

>  <PEOE_VSA10>
0

>  <PEOE_VSA11>
0

>  <PEOE_VSA12>
0

>  <PEOE_VSA13>
0

>  <SMR_VSA1>
0

>  <SMR_VSA2>
0

>  <SMR_VSA3>
0

>  <SMR_VSA4>
0

>  <SMR_VSA5>
20.27

>  <SMR_VSA6>
0

>  <SMR_VSA7>
0

>  <SMR_VSA8>
0

>  <SMR_VSA9>
0

>  <SlogP_VSA1>
0

>  <SlogP_VSA2>
0

>  <SlogP_VSA3>
0

>  <SlogP_VSA4>
0

>  <SlogP_VSA5>
20.27

>  <SlogP_VSA6>
0

>  <SlogP_VSA7>
0

>  <SlogP_VSA8>
0

>  <SlogP_VSA9>
0

>  <SlogP_VSA10>
0

>  <SlogP_VSA11>
0

>  <EState_VSA1>
0

>  <EState_VSA2>
0

>  <EState_VSA3>
0

>  <EState_VSA4>
0

>  <EState_VSA5>
6.42

>  <EState_VSA6>
0

>  <EState_VSA7>
0

>  <EState_VSA8>
13.85

>  <EState_VSA9>
0

>  <EState_VSA10>
0

>  <VSA_EState1>
0

>  <VSA_EState2>
0

>  <VSA_EState3>
0

>  <VSA_EState4>
0

>  <VSA_EState5>
0

>  <VSA_EState6>
0

>  <VSA_EState7>
1.25

>  <VSA_EState8>
4.25

>  <VSA_EState9>
0

>  <apol>
10.34

>  <bpol>
8.03

>  <nRing>
0

>  <nHRing>
0

>  <naRing>
0

>  <naHRing>
0

>  <nARing 2>
0

>  <nAHRing 2>
0

>  <nFRing>
0

>  <nFHRing>
0

>  <nFaRing>
0

>  <nFaHRing>
0

>  <nFARing 2>
0

>  <nFAHRing 2>
0

>  <nRot>
0

>  <SLogP>
1.42

>  <SMR>
15.97

>  <TopoPSA(NO)>
0

>  <TopoPSA>
0

>  <JGI1>
0.25

>  <JGI2>
0

>  <JGI3>
0

>  <JGI4>
0

>  <JGI5>
0

>  <Diameter>
2

>  <Radius>
1

>  <TMWC10>
33.9

>  <TSRW10>
17.31

>  <MW>
44.06

>  <AMW>
4.01

>  <WPath>
4

>  <WPol>
0

>  <Zagreb1>
6

>  <Zagreb2>
4

>  <mZagreb2>
1

>  <yes>


>  <nAR-cont>
0.336376

>  <nHA-cont>
0

>  <MWHBN>
0

>  <MWHBN-cont>
0

>  <TPSA-cont>
0

>  <pka_cont>
0.97

>  <yes.1>


>  <BBB_SCORE>
0.821376

>  <MMFF94 Energy>
-4.8973

$$$$
Compound 1054
Actelion Java MolfileCreator 2.0

  0  0  0  0  0  0              0 V3000
M  V30 BEGIN CTAB
M  V30 COUNTS 47 48 0 0 0
M  V30 BEGIN ATOM
M  V30 1 O 2.2904 -0.8682 -0.3946 0
M  V30 2 C 1.3338 -0.3167 -0.9494 0
M  V30 3 C 0.1827 0.3926 -0.1473 0
M  V30 4 C 1.1959 -0.4085 -2.4712 0
M  V30 5 C 0.6113 1.013 1.2184 0
M  V30 6 C -0.4072 1.5469 -1.0156 0
M  V30 7 C -0.8506 -0.77 0.1041 0
M  V30 8 C 2.1168 -1.4571 -3.0746 0
M  V30 9 C 1.9515 1.2394 1.5774 0
M  V30 10 C -0.3784 1.448 2.1273 0
M  V30 11 C -1.7069 1.5195 -1.5519 0
M  V30 12 C 0.3886 2.6789 -1.2954 0
M  V30 13 C -0.3461 -1.9107 1.0139 0
M  V30 14 C 2.2876 1.8261 2.8024 0
M  V30 15 C -0.0424 2.0351 3.3501 0
M  V30 16 C -2.1859 2.5738 -2.3361 0
M  V30 17 C -0.0925 3.7305 -2.0781 0
M  V30 18 N -1.4105 -2.9007 1.2855 0
M  V30 19 C 1.2921 2.2188 3.6903 0
M  V30 20 C -1.38 3.6769 -2.5996 0
M  V30 21 C -1.0216 -3.7422 2.423 0
M  V30 22 C -1.677 -3.7516 0.1229 0
M  V30 23 H 1.4341 0.5655 -2.9075 0
M  V30 24 H 0.1647 -0.6717 -2.724 0
M  V30 25 H -1.1382 -1.1998 -0.8632 0
M  V30 26 H -1.776 -0.374 0.5422 0
M  V30 27 H 1.9691 -1.5151 -4.1573 0
M  V30 28 H 1.9185 -2.4456 -2.6475 0
M  V30 29 H 3.1678 -1.2138 -2.8872 0
M  V30 30 H 2.7719 0.9717 0.9169 0
M  V30 31 H -1.4349 1.3461 1.8882 0
M  V30 32 H -2.3814 0.6859 -1.3765 0
M  V30 33 H 1.3997 2.7566 -0.8989 0
M  V30 34 H 0.527 -2.4104 0.5804 0
M  V30 35 H -0.0256 -1.4757 1.967 0
M  V30 36 H 3.3333 1.9775 3.058 0
M  V30 37 H -0.8268 2.3537 4.0316 0
M  V30 38 H -3.1951 2.5332 -2.7389 0
M  V30 39 H 0.5388 4.5933 -2.2745 0
M  V30 40 H 1.5563 2.675 4.6401 0
M  V30 41 H -1.7573 4.496 -3.2059 0
M  V30 42 H -0.8801 -3.1332 3.3229 0
M  V30 43 H -0.0958 -4.2961 2.2298 0
M  V30 44 H -1.8134 -4.4623 2.6583 0
M  V30 45 H -0.7813 -4.2862 -0.2131 0
M  V30 46 H -2.0688 -3.1692 -0.7161 0
M  V30 47 H -2.4486 -4.4933 0.3599 0
M  V30 END ATOM
M  V30 BEGIN BOND
M  V30 1 2 1 2
M  V30 2 1 2 3
M  V30 3 1 2 4
M  V30 4 1 3 5
M  V30 5 1 3 6
M  V30 6 1 3 7
M  V30 7 1 4 8
M  V30 8 2 5 9
M  V30 9 1 5 10
M  V30 10 2 6 11
M  V30 11 1 6 12
M  V30 12 1 7 13
M  V30 13 1 9 14
M  V30 14 2 10 15
M  V30 15 1 11 16
M  V30 16 2 12 17
M  V30 17 1 13 18
M  V30 18 2 14 19
M  V30 19 2 16 20
M  V30 20 1 18 21
M  V30 21 1 18 22
M  V30 22 1 15 19
M  V30 23 1 17 20
M  V30 24 1 4 23
M  V30 25 1 4 24
M  V30 26 1 7 25
M  V30 27 1 7 26
M  V30 28 1 8 27
M  V30 29 1 8 28
M  V30 30 1 8 29
M  V30 31 1 9 30
M  V30 32 1 10 31
M  V30 33 1 11 32
M  V30 34 1 12 33
M  V30 35 1 13 34
M  V30 36 1 13 35
M  V30 37 1 14 36
M  V30 38 1 15 37
M  V30 39 1 16 38
M  V30 40 1 17 39
M  V30 41 1 19 40
M  V30 42 1 20 41
M  V30 43 1 21 42
M  V30 44 1 21 43
M  V30 45 1 21 44
M  V30 46 1 22 45
M  V30 47 1 22 46
M  V30 48 1 22 47
M  V30 END BOND
M  V30 END CTAB
M  END
>  <Column 1>
1258

>  <level_0>
1401

>  <index>
1401

>  <Unnamed: 0>
1401

>  <NO.>
1413

>  <Name>
normethadone

>  <IUPAC_name>
6-(dimethylamino)-4-4-diphenylhexan-3-one

>  <SMILES>
CCC(=O)C(CCN(C)C)(c1ccccc1)c1ccccc1

>  <CID>
10090

>  <logBB>


>  <BBB+/BBB->
BBB+

>  <Inchi>
InChI=1S/C20H25NO/c1-4-19(22)20(15-16-21(2)3-17-11-7-5-8-12-17)18-13-9-6-10-14-18/h5-14H-4-15-16H2-1-3H3

>  <threshold>
-1

>  <reference>
R1|R13|R19|R6|R24|R27|R27|R27|R30|R30|

>  <group>
B

>  <Class>
1

>  <ABC>
16.41

>  <ABCGG>
14.76

>  <nAcid>
0

>  <nBase>
1

>  <nAromAtom>
12

>  <nAromBond>
12

>  <nAtom>
47

>  <nHeavyAtom>
22

>  <nSpiro>
0

>  <nBridgehead>
0

>  <nHetero>
2

>  <nN>
1

>  <nO>
1

>  <nF>
0

>  <BalabanJ>
2.27

>  <BertzCT>
550.12

>  <nBonds>
48

>  <nBondsO>
23

>  <nBondsS>
35

>  <nBondsD>
1

>  <nBondsT>
0

>  <nBondsA>
12

>  <nBondsM>
13

>  <nBondsKS>
41

>  <nBondsKD>
7

>  <RNCG>
0.22

>  <RPCG>
0.11

>  <FCSP3>
0.35

>  <SZ>
26.67

>  <Sm>
24.6

>  <Sv>
28.25

>  <Sse>
46.09

>  <Sp>
31.12

>  <Si>
52.69

>  <MZ>
0.57

>  <Mm>
0.52

>  <Mv>
0.6

>  <Mse>
0.98

>  <Mp>
0.66

>  <Mi>
1.12

>  <NsCH3>
3

>  <NdCH2>
0

>  <NssCH2>
3

>  <NtCH>
0

>  <NdsCH>
0

>  <NaaCH>
10

>  <NsssCH>
0

>  <NddC>
0

>  <NtsC>
0

>  <NdssC>
1

>  <NaasC>
2

>  <NaaaC>
0

>  <NssssC>
1

>  <NsNH3>
0

>  <NsNH2>
0

>  <NssNH2>
0

>  <NdNH>
0

>  <NssNH>
0

>  <NaaNH>
0

>  <NtN>
0

>  <NsssNH>
0

>  <NdsN>
0

>  <NaaN>
0

>  <NsssN>
1

>  <NddsN>
0

>  <NaasN>
0

>  <NssssN>
0

>  <NsOH>
0

>  <NdO>
1

>  <NssO>
0

>  <NaaO>
0

>  <NsF>
0

>  <NsSiH3>
0

>  <NssSiH2>
0

>  <NsssSiH>
0

>  <NssssSi>
0

>  <NsPH2>
0

>  <NssPH>
0

>  <NsssP>
0

>  <NdsssP>
0

>  <NsssssP>
0

>  <NsSH>
0

>  <NdS>
0

>  <NssS>
0

>  <NaaS>
0

>  <NdssS>
0

>  <NddssS>
0

>  <NsCl>
0

>  <NsBr>
0

>  <NsI>
0

>  <fragCpx>
67.02

>  <fMF>
0.28

>  <nHBAcc>
2

>  <nHBDon>
0

>  <Kier1>
18.34

>  <Kier2>
8.74

>  <Lipinski>
1

>  <GhoseFilter>
1

>  <FilterItLogS>
-5.1

>  <VMcGowan>
256.69

>  <LabuteASA>
133.33

>  <PEOE_VSA1>
4.9

>  <PEOE_VSA2>
4.79

>  <PEOE_VSA3>
0

>  <PEOE_VSA4>
0

>  <PEOE_VSA5>
0

>  <PEOE_VSA6>
67.59

>  <PEOE_VSA7>
38.19

>  <PEOE_VSA8>
6.42

>  <PEOE_VSA9>
5.41

>  <PEOE_VSA10>
5.78

>  <PEOE_VSA11>
0

>  <PEOE_VSA12>
0

>  <PEOE_VSA13>
0

>  <SMR_VSA1>
4.79

>  <SMR_VSA2>
0

>  <SMR_VSA3>
4.9

>  <SMR_VSA4>
0

>  <SMR_VSA5>
25.18

>  <SMR_VSA6>
20.64

>  <SMR_VSA7>
71.79

>  <SMR_VSA8>
0

>  <SMR_VSA9>
0

>  <SlogP_VSA1>
0

>  <SlogP_VSA2>
31.32

>  <SlogP_VSA3>
10.21

>  <SlogP_VSA4>
0

>  <SlogP_VSA5>
30.89

>  <SlogP_VSA6>
60.66

>  <SlogP_VSA7>
0

>  <SlogP_VSA8>
0

>  <SlogP_VSA9>
0

>  <SlogP_VSA10>
0

>  <SlogP_VSA11>
0

>  <EState_VSA1>
5.41

>  <EState_VSA2>
5.78

>  <EState_VSA3>
6.42

>  <EState_VSA4>
24.09

>  <EState_VSA5>
0

>  <EState_VSA6>
0

>  <EState_VSA7>
43.32

>  <EState_VSA8>
43.26

>  <EState_VSA9>
0

>  <EState_VSA10>
4.79

>  <VSA_EState1>
0

>  <VSA_EState2>
15.17

>  <VSA_EState3>
0

>  <VSA_EState4>
1.63

>  <VSA_EState5>
0.28

>  <VSA_EState6>
20.4

>  <VSA_EState7>
1.33

>  <VSA_EState8>
2.83

>  <VSA_EState9>
4.11

>  <apol>
51.97

>  <bpol>
27.66

>  <nRing>
2

>  <nHRing>
0

>  <naRing>
2

>  <naHRing>
0

>  <nARing 2>
0

>  <nAHRing 2>
0

>  <nFRing>
0

>  <nFHRing>
0

>  <nFaRing>
0

>  <nFaHRing>
0

>  <nFARing 2>
0

>  <nFAHRing 2>
0

>  <nRot>
7

>  <SLogP>
3.9

>  <SMR>
92.13

>  <TopoPSA(NO)>
20.31

>  <TopoPSA>
20.31

>  <JGI1>
0.2

>  <JGI2>
0.1

>  <JGI3>
0.06

>  <JGI4>
0.02

>  <JGI5>
0.02

>  <Diameter>
8

>  <Radius>
4

>  <TMWC10>
119.2

>  <TSRW10>
56.03

>  <MW>
295.19

>  <AMW>
6.28

>  <WPath>
944

>  <WPol>
36

>  <Zagreb1>
108

>  <Zagreb2>
127

>  <mZagreb2>
5.13

>  <yes>


>  <nAR-cont>
0.336376

>  <nHA-cont>
0.983774276

>  <MWHBN>
0.116407021

>  <MWHBN-cont>
0.813488281

>  <TPSA-cont>
0.858223588

>  <pka_cont>
0.97

>  <yes.1>


>  <BBB_SCORE>
4.741829873

>  <MMFF94 Energy>
91.686

$$$$
Compound 1055
Actelion Java MolfileCreator 2.0

  0  0  0  0  0  0              0 V3000
M  V30 BEGIN CTAB
M  V30 COUNTS 50 51 0 0 0
M  V30 BEGIN ATOM
M  V30 1 O -1.4216 1.4216 -1.4216 0
M  V30 2 C -0.6707 0.4462 -1.5279 0
M  V30 3 C -0.1407 -0.357 -0.2684 0
M  V30 4 C -0.2623 -0.0482 -2.918 0
M  V30 5 C -0.6194 -1.8268 -0.5376 0
M  V30 6 C 1.4046 -0.2076 -0.1175 0
M  V30 7 C -0.8275 0.2693 1.042 0 CFG=2
M  V30 8 C -0.3452 1.0518 -3.9634 0
M  V30 9 C 0.224 -2.7947 -1.1212 0
M  V30 10 C -1.9624 -2.1988 -0.3219 0
M  V30 11 C 2.14 -1.0852 0.7051 0
M  V30 12 C 2.1135 0.8486 -0.7244 0
M  V30 13 C -0.3321 1.7135 1.3759 0
M  V30 14 C -0.692 -0.5966 2.3141 0
M  V30 15 C -0.2326 -4.0844 -1.4093 0
M  V30 16 C -2.4188 -3.4886 -0.6105 0
M  V30 17 C 3.5193 -0.9434 0.8754 0
M  V30 18 C 3.494 0.9899 -0.5534 0
M  V30 19 N -1.1216 2.3898 2.4307 0
M  V30 20 C -1.5521 -4.4334 -1.1467 0
M  V30 21 C 4.1971 0.0912 0.2413 0
M  V30 22 C -2.4326 2.8119 1.9259 0
M  V30 23 C -0.3924 3.5626 2.9232 0
M  V30 24 H -0.9275 -0.8696 -3.2022 0
M  V30 25 H 0.7635 -0.4246 -2.8922 0
M  V30 26 H -1.9008 0.3354 0.8313 0
M  V30 27 H -0.0095 0.6786 -4.9357 0
M  V30 28 H 0.283 1.9048 -3.6864 0
M  V30 29 H -1.3725 1.414 -4.0754 0
M  V30 30 H 1.2551 -2.5619 -1.3799 0
M  V30 31 H -2.6883 -1.4896 0.0697 0
M  V30 32 H 1.6428 -1.901 1.2283 0
M  V30 33 H 1.6077 1.6012 -1.3261 0
M  V30 34 H -0.2935 2.348 0.4844 0
M  V30 35 H 0.7011 1.6311 1.7371 0
M  V30 36 H -1.3902 -0.2513 3.0851 0
M  V30 37 H 0.3125 -0.5351 2.7431 0
M  V30 38 H -0.92 -1.6501 2.1389 0
M  V30 39 H 0.4443 -4.8129 -1.8484 0
M  V30 40 H -3.4573 -3.7497 -0.4212 0
M  V30 41 H 4.0608 -1.6398 1.5108 0
M  V30 42 H 4.0179 1.8127 -1.034 0
M  V30 43 H -1.9079 -5.435 -1.3723 0
M  V30 44 H 5.2692 0.2051 0.377 0
M  V30 45 H -3.0499 1.9533 1.6464 0
M  V30 46 H -2.3486 3.4772 1.0589 0
M  V30 47 H -2.9908 3.3399 2.7079 0
M  V30 48 H -0.2013 4.2948 2.1302 0
M  V30 49 H 0.568 3.2647 3.3583 0
M  V30 50 H -0.9541 4.0579 3.7234 0
M  V30 END ATOM
M  V30 BEGIN BOND
M  V30 1 2 1 2
M  V30 2 1 2 3
M  V30 3 1 2 4
M  V30 4 1 3 5
M  V30 5 1 3 6
M  V30 6 1 3 7
M  V30 7 1 4 8
M  V30 8 2 5 9
M  V30 9 1 5 10
M  V30 10 2 6 11
M  V30 11 1 6 12
M  V30 12 1 7 13
M  V30 13 1 7 14
M  V30 14 1 9 15
M  V30 15 2 10 16
M  V30 16 1 11 17
M  V30 17 2 12 18
M  V30 18 1 13 19
M  V30 19 2 15 20
M  V30 20 2 17 21
M  V30 21 1 19 22
M  V30 22 1 19 23
M  V30 23 1 16 20
M  V30 24 1 18 21
M  V30 25 1 4 24
M  V30 26 1 4 25
M  V30 27 1 7 26
M  V30 28 1 8 27
M  V30 29 1 8 28
M  V30 30 1 8 29
M  V30 31 1 9 30
M  V30 32 1 10 31
M  V30 33 1 11 32
M  V30 34 1 12 33
M  V30 35 1 13 34
M  V30 36 1 13 35
M  V30 37 1 14 36
M  V30 38 1 14 37
M  V30 39 1 14 38
M  V30 40 1 15 39
M  V30 41 1 16 40
M  V30 42 1 17 41
M  V30 43 1 18 42
M  V30 44 1 20 43
M  V30 45 1 21 44
M  V30 46 1 22 45
M  V30 47 1 22 46
M  V30 48 1 22 47
M  V30 49 1 23 48
M  V30 50 1 23 49
M  V30 51 1 23 50
M  V30 END BOND
M  V30 BEGIN COLLECTION
M  V30 MDLV30/STERAC1 ATOMS=(1 7)
M  V30 END COLLECTION
M  V30 END CTAB
M  END
>  <Column 1>
1259

>  <level_0>
1402

>  <index>
1402

>  <Unnamed: 0>
1402

>  <NO.>
1414

>  <Name>
isomethadone

>  <IUPAC_name>
6-(dimethylamino)-5-methyl-4-4-diphenylhexan-3-one

>  <SMILES>
CCC(=O)C(c1ccccc1)(c1ccccc1)C(C)CN(C)C

>  <CID>
10072

>  <logBB>


>  <BBB+/BBB->
BBB+

>  <Inchi>
InChI=1S/C21H27NO/c1-5-20(23)21(17(2)16-22(3)4-18-12-8-6-9-13-18)19-14-10-7-11-15-19/h6-15-17H-5-16H2-1-4H3

>  <threshold>
-1

>  <reference>
R1|R13|R19|R6|R27|R27|R30|

>  <group>
B

>  <Class>
1

>  <ABC>
17.16

>  <ABCGG>
15.7

>  <nAcid>
0

>  <nBase>
1

>  <nAromAtom>
12

>  <nAromBond>
12

>  <nAtom>
50

>  <nHeavyAtom>
23

>  <nSpiro>
0

>  <nBridgehead>
0

>  <nHetero>
2

>  <nN>
1

>  <nO>
1

>  <nF>
0

>  <BalabanJ>
2.37

>  <BertzCT>
579.3

>  <nBonds>
51

>  <nBondsO>
24

>  <nBondsS>
38

>  <nBondsD>
1

>  <nBondsT>
0

>  <nBondsA>
12

>  <nBondsM>
13

>  <nBondsKS>
44

>  <nBondsKD>
7

>  <RNCG>
0.22

>  <RPCG>
0.1

>  <FCSP3>
0.38

>  <SZ>
28

>  <Sm>
25.76

>  <Sv>
29.79

>  <Sse>
48.98

>  <Sp>
32.92

>  <Si>
56.11

>  <MZ>
0.56

>  <Mm>
0.52

>  <Mv>
0.6

>  <Mse>
0.98

>  <Mp>
0.66

>  <Mi>
1.12

>  <NsCH3>
4

>  <NdCH2>
0

>  <NssCH2>
2

>  <NtCH>
0

>  <NdsCH>
0

>  <NaaCH>
10

>  <NsssCH>
1

>  <NddC>
0

>  <NtsC>
0

>  <NdssC>
1

>  <NaasC>
2

>  <NaaaC>
0

>  <NssssC>
1

>  <NsNH3>
0

>  <NsNH2>
0

>  <NssNH2>
0

>  <NdNH>
0

>  <NssNH>
0

>  <NaaNH>
0

>  <NtN>
0

>  <NsssNH>
0

>  <NdsN>
0

>  <NaaN>
0

>  <NsssN>
1

>  <NddsN>
0

>  <NaasN>
0

>  <NssssN>
0

>  <NsOH>
0

>  <NdO>
1

>  <NssO>
0

>  <NaaO>
0

>  <NsF>
0

>  <NsSiH3>
0

>  <NssSiH2>
0

>  <NsssSiH>
0

>  <NssssSi>
0

>  <NsPH2>
0

>  <NssPH>
0

>  <NsssP>
0

>  <NdsssP>
0

>  <NsssssP>
0

>  <NsSH>
0

>  <NdS>
0

>  <NssS>
0

>  <NaaS>
0

>  <NdssS>
0

>  <NddssS>
0

>  <NsCl>
0

>  <NsBr>
0

>  <NsI>
0

>  <fragCpx>
70.02

>  <fMF>
0.26

>  <nHBAcc>
2

>  <nHBDon>
0

>  <Kier1>
19.33

>  <Kier2>
8.91

>  <Lipinski>
1

>  <GhoseFilter>
1

>  <FilterItLogS>
-5.13

>  <VMcGowan>
270.78

>  <LabuteASA>
139.69

>  <PEOE_VSA1>
4.9

>  <PEOE_VSA2>
4.79

>  <PEOE_VSA3>
0

>  <PEOE_VSA4>
0

>  <PEOE_VSA5>
0

>  <PEOE_VSA6>
74.51

>  <PEOE_VSA7>
31.14

>  <PEOE_VSA8>
12.97

>  <PEOE_VSA9>
5.41

>  <PEOE_VSA10>
5.78

>  <PEOE_VSA11>
0

>  <PEOE_VSA12>
0

>  <PEOE_VSA13>
0

>  <SMR_VSA1>
4.79

>  <SMR_VSA2>
0

>  <SMR_VSA3>
4.9

>  <SMR_VSA4>
5.92

>  <SMR_VSA5>
25.68

>  <SMR_VSA6>
20.64

>  <SMR_VSA7>
71.79

>  <SMR_VSA8>
0

>  <SMR_VSA9>
0

>  <SlogP_VSA1>
0

>  <SlogP_VSA2>
31.32

>  <SlogP_VSA3>
10.21

>  <SlogP_VSA4>
5.92

>  <SlogP_VSA5>
31.4

>  <SlogP_VSA6>
60.66

>  <SlogP_VSA7>
0

>  <SlogP_VSA8>
0

>  <SlogP_VSA9>
0

>  <SlogP_VSA10>
0

>  <SlogP_VSA11>
0

>  <EState_VSA1>
5.41

>  <EState_VSA2>
11.7

>  <EState_VSA3>
6.42

>  <EState_VSA4>
17.67

>  <EState_VSA5>
0

>  <EState_VSA6>
0

>  <EState_VSA7>
43.32

>  <EState_VSA8>
50.18

>  <EState_VSA9>
0

>  <EState_VSA10>
4.79

>  <VSA_EState1>
0

>  <VSA_EState2>
15.4

>  <VSA_EState3>
0

>  <VSA_EState4>
1.58

>  <VSA_EState5>
0.46

>  <VSA_EState6>
20.48

>  <VSA_EState7>
0.53

>  <VSA_EState8>
5.01

>  <VSA_EState9>
4.13

>  <apol>
54.98

>  <bpol>
29.66

>  <nRing>
2

>  <nHRing>
0

>  <naRing>
2

>  <naHRing>
0

>  <nARing 2>
0

>  <nAHRing 2>
0

>  <nFRing>
0

>  <nFHRing>
0

>  <nFaRing>
0

>  <nFaHRing>
0

>  <nFARing 2>
0

>  <nFAHRing 2>
0

>  <nRot>
7

>  <SLogP>
4.15

>  <SMR>
96.68

>  <TopoPSA(NO)>
20.31

>  <TopoPSA>
20.31

>  <JGI1>
0.21

>  <JGI2>
0.09

>  <JGI3>
0.08

>  <JGI4>
0.03

>  <JGI5>
0.02

>  <Diameter>
8

>  <Radius>
4

>  <TMWC10>
122.22

>  <TSRW10>
57.43

>  <MW>
309.21

>  <AMW>
6.18

>  <WPath>
1030

>  <WPol>
40

>  <Zagreb1>
114

>  <Zagreb2>
136

>  <mZagreb2>
5.33

>  <yes>


>  <nAR-cont>
0.336376

>  <nHA-cont>
0.967789328

>  <MWHBN>
0.113737383

>  <MWHBN-cont>
0.8011712

>  <TPSA-cont>
0.858223588

>  <pka_cont>
0.97

>  <yes.1>


>  <BBB_SCORE>
4.707369304

>  <MMFF94 Energy>
99.597

$$$$
Compound 1056
Actelion Java MolfileCreator 2.0

  0  0  0  0  0  0              0 V3000
M  V30 BEGIN CTAB
M  V30 COUNTS 61 63 0 0 0
M  V30 BEGIN ATOM
M  V30 1 F 4.7802 5.978 6.4575 0
M  V30 2 C 4.474 5.1067 5.4882 0
M  V30 3 C 4.7479 3.7572 5.6676 0
M  V30 4 C 3.8871 5.5668 4.3149 0
M  V30 5 C 4.4275 2.8508 4.6548 0
M  V30 6 C 3.5646 4.6625 3.2982 0
M  V30 7 C 3.8312 3.2957 3.4633 0
M  V30 8 C 3.5079 2.283 2.4104 0
M  V30 9 O 3.8623 1.1186 2.5778 0
M  V30 10 C 2.7591 2.7387 1.1677 0
M  V30 11 C 2.3717 1.5966 0.2228 0
M  V30 12 C 1.222 0.7427 0.7798 0
M  V30 13 N 0.8427 -0.3603 -0.1243 0
M  V30 14 C 0.1155 0.1234 -1.3093 0
M  V30 15 C 0.0228 -1.3404 0.6101 0
M  V30 16 C -0.2286 -1.043 -2.2408 0
M  V30 17 C -0.3449 -2.5296 -0.2788 0
M  V30 18 C -1.1307 -2.1004 -1.5473 0
M  V30 19 N -2.4666 -1.4637 -1.2177 0
M  V30 20 C -1.3018 -3.389 -2.4256 0
M  V30 21 C -3.2998 -2.2072 -0.2538 0
M  V30 22 C -3.2698 -1.0925 -2.4001 0
M  V30 23 O -2.3605 -4.0244 -2.4938 0
M  V30 24 C -0.1069 -3.9257 -3.1982 0
M  V30 25 C -4.5124 -1.3835 0.1936 0
M  V30 26 C -4.4736 -0.2294 -2.012 0
M  V30 27 C -0.1903 -3.5417 -4.6625 0
M  V30 28 C -5.3526 -0.9344 -0.9912 0
M  V30 29 H 5.2083 3.4175 6.5901 0
M  V30 30 H 3.6861 6.6277 4.1989 0
M  V30 31 H 4.6453 1.7936 4.7991 0
M  V30 32 H 3.1132 5.0523 2.3908 0
M  V30 33 H 1.8558 3.2813 1.4672 0
M  V30 34 H 3.4189 3.4227 0.6212 0
M  V30 35 H 2.0749 2.0502 -0.7288 0
M  V30 36 H 3.2423 0.9616 0.0181 0
M  V30 37 H 1.5523 0.3197 1.736 0
M  V30 38 H 0.3526 1.3753 1.0022 0
M  V30 39 H -0.7893 0.6754 -1.0261 0
M  V30 40 H 0.7437 0.8131 -1.8823 0
M  V30 41 H 0.596 -1.7299 1.4607 0
M  V30 42 H -0.8785 -0.869 1.0211 0
M  V30 43 H 0.7204 -1.4905 -2.56 0
M  V30 44 H -0.6709 -0.6616 -3.1658 0
M  V30 45 H -0.8871 -3.2859 0.2998 0
M  V30 46 H 0.5864 -3.0348 -0.5704 0
M  V30 47 H -2.7454 -2.4339 0.6603 0
M  V30 48 H -3.6492 -3.1593 -0.666 0
M  V30 49 H -2.6877 -0.5018 -3.1113 0
M  V30 50 H -3.6289 -1.9764 -2.9384 0
M  V30 51 H -0.1175 -5.018 -3.1008 0
M  V30 52 H 0.8355 -3.5982 -2.7553 0
M  V30 53 H -4.1699 -0.5042 0.7543 0
M  V30 54 H -5.1286 -1.977 0.8787 0
M  V30 55 H -5.0628 0.0055 -2.9057 0
M  V30 56 H -4.1234 0.7257 -1.6002 0
M  V30 57 H 0.649 -3.9718 -5.217 0
M  V30 58 H -0.1658 -2.4561 -4.7945 0
M  V30 59 H -1.1196 -3.9075 -5.1118 0
M  V30 60 H -5.8313 -1.8054 -1.4551 0
M  V30 61 H -6.153 -0.2661 -0.6555 0
M  V30 END ATOM
M  V30 BEGIN BOND
M  V30 1 1 1 2
M  V30 2 2 2 3
M  V30 3 1 2 4
M  V30 4 1 3 5
M  V30 5 2 4 6
M  V30 6 2 5 7
M  V30 7 1 7 8
M  V30 8 2 8 9
M  V30 9 1 8 10
M  V30 10 1 10 11
M  V30 11 1 11 12
M  V30 12 1 12 13
M  V30 13 1 13 14
M  V30 14 1 13 15
M  V30 15 1 14 16
M  V30 16 1 15 17
M  V30 17 1 16 18
M  V30 18 1 18 19
M  V30 19 1 18 20
M  V30 20 1 19 21
M  V30 21 1 19 22
M  V30 22 2 20 23
M  V30 23 1 20 24
M  V30 24 1 21 25
M  V30 25 1 22 26
M  V30 26 1 24 27
M  V30 27 1 25 28
M  V30 28 1 6 7
M  V30 29 1 17 18
M  V30 30 1 26 28
M  V30 31 1 3 29
M  V30 32 1 4 30
M  V30 33 1 5 31
M  V30 34 1 6 32
M  V30 35 1 10 33
M  V30 36 1 10 34
M  V30 37 1 11 35
M  V30 38 1 11 36
M  V30 39 1 12 37
M  V30 40 1 12 38
M  V30 41 1 14 39
M  V30 42 1 14 40
M  V30 43 1 15 41
M  V30 44 1 15 42
M  V30 45 1 16 43
M  V30 46 1 16 44
M  V30 47 1 17 45
M  V30 48 1 17 46
M  V30 49 1 21 47
M  V30 50 1 21 48
M  V30 51 1 22 49
M  V30 52 1 22 50
M  V30 53 1 24 51
M  V30 54 1 24 52
M  V30 55 1 25 53
M  V30 56 1 25 54
M  V30 57 1 26 55
M  V30 58 1 26 56
M  V30 59 1 27 57
M  V30 60 1 27 58
M  V30 61 1 27 59
M  V30 62 1 28 60
M  V30 63 1 28 61
M  V30 END BOND
M  V30 END CTAB
M  END
>  <Column 1>
1260

>  <level_0>
1403

>  <index>
1403

>  <Unnamed: 0>
1403

>  <NO.>
1415

>  <Name>
propyperone

>  <IUPAC_name>
1-(4-fluorophenyl)-4-(4-piperidin-1-yl-4-propanoylpiperidin-1-yl)butan-1-one

>  <SMILES>
CCC(=O)C1(N2CCCCC2)CCN(CCCC(=O)c2ccc(F)cc2)CC1

>  <CID>
19607

>  <logBB>


>  <BBB+/BBB->
BBB+

>  <Inchi>
InChI=1S/C23H33FN2O2/c1-2-22(28)23(26-15-4-3-5-16-26)12-17-25(18-13-23)14-6-7-21(27)19-8-10-20(24)11-9-19/h8-11H-2-7-12-18H2-1H3

>  <threshold>
-1

>  <reference>
R1|R13|R19|R6|R24|R27|R27|R27|R30|R30|

>  <group>
B

>  <Class>
1

>  <ABC>
21.38

>  <ABCGG>
16.37

>  <nAcid>
0

>  <nBase>
2

>  <nAromAtom>
6

>  <nAromBond>
6

>  <nAtom>
61

>  <nHeavyAtom>
28

>  <nSpiro>
0

>  <nBridgehead>
0

>  <nHetero>
5

>  <nN>
2

>  <nO>
2

>  <nF>
1

>  <BalabanJ>
1.42

>  <BertzCT>
659.68

>  <nBonds>
63

>  <nBondsO>
30

>  <nBondsS>
55

>  <nBondsD>
2

>  <nBondsT>
0

>  <nBondsA>
6

>  <nBondsM>
8

>  <nBondsKS>
58

>  <nBondsKD>
5

>  <RNCG>
0.17

>  <RPCG>
0.09

>  <FCSP3>
0.65

>  <SZ>
35

>  <Sm>
32.35

>  <Sv>
35.53

>  <Sse>
60.59

>  <Sp>
38.79

>  <Si>
69.4

>  <MZ>
0.57

>  <Mm>
0.53

>  <Mv>
0.58

>  <Mse>
0.99

>  <Mp>
0.64

>  <Mi>
1.14

>  <NsCH3>
1

>  <NdCH2>
0

>  <NssCH2>
13

>  <NtCH>
0

>  <NdsCH>
0

>  <NaaCH>
4

>  <NsssCH>
0

>  <NddC>
0

>  <NtsC>
0

>  <NdssC>
2

>  <NaasC>
2

>  <NaaaC>
0

>  <NssssC>
1

>  <NsNH3>
0

>  <NsNH2>
0

>  <NssNH2>
0

>  <NdNH>
0

>  <NssNH>
0

>  <NaaNH>
0

>  <NtN>
0

>  <NsssNH>
0

>  <NdsN>
0

>  <NaaN>
0

>  <NsssN>
2

>  <NddsN>
0

>  <NaasN>
0

>  <NssssN>
0

>  <NsOH>
0

>  <NdO>
2

>  <NssO>
0

>  <NaaO>
0

>  <NsF>
1

>  <NsSiH3>
0

>  <NssSiH2>
0

>  <NsssSiH>
0

>  <NssssSi>
0

>  <NsPH2>
0

>  <NssPH>
0

>  <NsssP>
0

>  <NdsssP>
0

>  <NsssssP>
0

>  <NsSH>
0

>  <NdS>
0

>  <NssS>
0

>  <NaaS>
0

>  <NdssS>
0

>  <NddssS>
0

>  <NsCl>
0

>  <NsBr>
0

>  <NsI>
0

>  <fragCpx>
144.05

>  <fMF>
0.36

>  <nHBAcc>
4

>  <nHBDon>
0

>  <Kier1>
22.68

>  <Kier2>
10.86

>  <Lipinski>
1

>  <GhoseFilter>
1

>  <FilterItLogS>
-5.34

>  <VMcGowan>
314.31

>  <LabuteASA>
167.63

>  <PEOE_VSA1>
4.9

>  <PEOE_VSA2>
14.49

>  <PEOE_VSA3>
4.39

>  <PEOE_VSA4>
0

>  <PEOE_VSA5>
0

>  <PEOE_VSA6>
13.34

>  <PEOE_VSA7>
76

>  <PEOE_VSA8>
31.49

>  <PEOE_VSA9>
5.54

>  <PEOE_VSA10>
5.82

>  <PEOE_VSA11>
11.57

>  <PEOE_VSA12>
0

>  <PEOE_VSA13>
0

>  <SMR_VSA1>
13.98

>  <SMR_VSA2>
0

>  <SMR_VSA3>
9.8

>  <SMR_VSA4>
0

>  <SMR_VSA5>
63.83

>  <SMR_VSA6>
32.72

>  <SMR_VSA7>
35.65

>  <SMR_VSA8>
0

>  <SMR_VSA9>
0

>  <SlogP_VSA1>
0

>  <SlogP_VSA2>
59.63

>  <SlogP_VSA3>
4.79

>  <SlogP_VSA4>
5.82

>  <SlogP_VSA5>
68.65

>  <SlogP_VSA6>
24.27

>  <SlogP_VSA7>
0

>  <SlogP_VSA8>
0

>  <SlogP_VSA9>
0

>  <SlogP_VSA10>
4.39

>  <SlogP_VSA11>
0

>  <EState_VSA1>
0

>  <EState_VSA2>
17.14

>  <EState_VSA3>
24.19

>  <EState_VSA4>
51.99

>  <EState_VSA5>
31.4

>  <EState_VSA6>
12.13

>  <EState_VSA7>
6.92

>  <EState_VSA8>
9.8

>  <EState_VSA9>
0

>  <EState_VSA10>
13.98

>  <VSA_EState1>
12.98

>  <VSA_EState2>
29.95

>  <VSA_EState3>
0

>  <VSA_EState4>
0.33

>  <VSA_EState5>
0.16

>  <VSA_EState6>
5.79

>  <VSA_EState7>
7.39

>  <VSA_EState8>
6.82

>  <VSA_EState9>
0

>  <apol>
64.78

>  <bpol>
39.37

>  <nRing>
3

>  <nHRing>
2

>  <naRing>
1

>  <naHRing>
0

>  <nARing 2>
2

>  <nAHRing 2>
2

>  <nFRing>
0

>  <nFHRing>
0

>  <nFaRing>
0

>  <nFaHRing>
0

>  <nFARing 2>
0

>  <nFAHRing 2>
0

>  <nRot>
8

>  <SLogP>
4.09

>  <SMR>
109.09

>  <TopoPSA(NO)>
40.62

>  <TopoPSA>
40.62

>  <JGI1>
0.2

>  <JGI2>
0.1

>  <JGI3>
0.04

>  <JGI4>
0.03

>  <JGI5>
0.03

>  <Diameter>
16

>  <Radius>
8

>  <TMWC10>
133.9

>  <TSRW10>
63.26

>  <MW>
388.25

>  <AMW>
6.36

>  <WPath>
2363

>  <WPol>
45

>  <Zagreb1>
142

>  <Zagreb2>
166

>  <mZagreb2>
6.36

>  <yes>


>  <nAR-cont>
1

>  <nHA-cont>
0.82432561

>  <MWHBN>
0.203003843

>  <MWHBN-cont>
0.999967134

>  <TPSA-cont>
0.716447176

>  <pka_cont>
0.97

>  <yes.1>


>  <BBB_SCORE>
5.242170664

>  <MMFF94 Energy>
71.815

$$$$
Compound 1057
Actelion Java MolfileCreator 2.0

  0  0  0  0  0  0              0 V3000
M  V30 BEGIN CTAB
M  V30 COUNTS 58 61 0 0 0
M  V30 BEGIN ATOM
M  V30 1 O -0.1606 6.1993 2.3314 0
M  V30 2 C 0.2712 5.161 1.8367 0
M  V30 3 C 0.2735 3.917 2.6435 0
M  V30 4 C 0.8836 5.1147 0.4616 0
M  V30 5 C 0.7326 2.7496 2.1547 0
M  V30 6 C 0.655 3.7397 -0.153 0
M  V30 7 C 1.1968 2.5595 0.7041 0
M  V30 8 C 0.8843 1.5757 3.086 0
M  V30 9 C 0.7854 1.1337 0.0981 0
M  V30 10 C 2.7494 2.6432 0.7054 0
M  V30 11 C 0.3351 0.3005 2.4721 0
M  V30 12 C -0.63 1.0121 -0.5257 0
M  V30 13 C 1.0189 -0.0103 1.1307 0
M  V30 14 O -0.7371 1.8796 -1.6588 0
M  V30 15 C -0.9193 -0.3889 -1.0875 0
M  V30 16 C 0.6301 -1.4148 0.6221 0
M  V30 17 C -0.7339 -1.5555 -0.0979 0
M  V30 18 C 1.6575 -1.9579 -0.3901 0
M  V30 19 C -0.5469 -2.9367 -0.8211 0
M  V30 20 C -1.915 -1.592 0.8908 0
M  V30 21 C 0.8982 -2.8877 -1.3356 0
M  V30 22 O -0.6107 -4.0127 0.1268 0
M  V30 23 C -1.5545 -3.2691 -1.9486 0
M  V30 24 O -2.6445 -2.6997 -2.0317 0
M  V30 25 C -1.1742 -4.3933 -2.9044 0
M  V30 26 C -2.3346 -4.8267 -3.7838 0
M  V30 27 H -0.0447 4.0394 3.6733 0
M  V30 28 H 0.3916 5.8707 -0.1605 0
M  V30 29 H 1.9444 5.3705 0.5314 0
M  V30 30 H 1.0906 3.7149 -1.1589 0
M  V30 31 H -0.4324 3.6509 -0.2572 0
M  V30 32 H 0.3735 1.756 4.0401 0
M  V30 33 H 1.9466 1.4431 3.3251 0
M  V30 34 H 1.4782 0.9712 -0.7406 0
M  V30 35 H 3.1139 3.5625 1.1769 0
M  V30 36 H 3.2123 1.8142 1.2495 0
M  V30 37 H 3.1411 2.6208 -0.3179 0
M  V30 38 H -0.7454 0.4092 2.3569 0
M  V30 39 H 0.4985 -0.5247 3.1758 0
M  V30 40 H -1.3933 1.3117 0.1996 0
M  V30 41 H 2.0962 -0.0576 1.3406 0
M  V30 42 H -1.6562 1.8346 -1.9782 0
M  V30 43 H -0.2888 -0.5324 -1.9751 0
M  V30 44 H -1.9438 -0.3882 -1.4817 0
M  V30 45 H 0.6517 -2.1037 1.4794 0
M  V30 46 H 2.4566 -2.4966 0.1316 0
M  V30 47 H 2.14 -1.1637 -0.9691 0
M  V30 48 H -1.6902 -2.2042 1.7707 0
M  V30 49 H -2.1942 -0.5977 1.2457 0
M  V30 50 H -2.813 -2.0072 0.4223 0
M  V30 51 H 1.3668 -3.8784 -1.3488 0
M  V30 52 H 0.9543 -2.4839 -2.3531 0
M  V30 53 H -1.5274 -4.0636 0.4539 0
M  V30 54 H -0.8344 -5.2507 -2.3145 0
M  V30 55 H -0.351 -4.0515 -3.5384 0
M  V30 56 H -2.0287 -5.646 -4.4413 0
M  V30 57 H -2.6846 -3.9993 -4.4097 0
M  V30 58 H -3.1796 -5.1704 -3.1781 0
M  V30 END ATOM
M  V30 BEGIN BOND
M  V30 1 2 1 2
M  V30 2 1 2 3
M  V30 3 1 2 4
M  V30 4 2 3 5
M  V30 5 1 4 6
M  V30 6 1 5 7
M  V30 7 1 5 8
M  V30 8 1 7 9
M  V30 9 1 7 10
M  V30 10 1 8 11
M  V30 11 1 9 12
M  V30 12 1 9 13
M  V30 13 1 12 14
M  V30 14 1 12 15
M  V30 15 1 13 16
M  V30 16 1 15 17
M  V30 17 1 16 18
M  V30 18 1 17 19
M  V30 19 1 17 20
M  V30 20 1 18 21
M  V30 21 1 19 22
M  V30 22 1 19 23
M  V30 23 2 23 24
M  V30 24 1 23 25
M  V30 25 1 25 26
M  V30 26 1 6 7
M  V30 27 1 11 13
M  V30 28 1 16 17
M  V30 29 1 19 21
M  V30 30 1 3 27
M  V30 31 1 4 28
M  V30 32 1 4 29
M  V30 33 1 6 30
M  V30 34 1 6 31
M  V30 35 1 8 32
M  V30 36 1 8 33
M  V30 37 1 9 34
M  V30 38 1 10 35
M  V30 39 1 10 36
M  V30 40 1 10 37
M  V30 41 1 11 38
M  V30 42 1 11 39
M  V30 43 1 12 40
M  V30 44 1 13 41
M  V30 45 1 14 42
M  V30 46 1 15 43
M  V30 47 1 15 44
M  V30 48 1 16 45
M  V30 49 1 18 46
M  V30 50 1 18 47
M  V30 51 1 20 48
M  V30 52 1 20 49
M  V30 53 1 20 50
M  V30 54 1 21 51
M  V30 55 1 21 52
M  V30 56 1 22 53
M  V30 57 1 25 54
M  V30 58 1 25 55
M  V30 59 1 26 56
M  V30 60 1 26 57
M  V30 61 1 26 58
M  V30 END BOND
M  V30 END CTAB
M  END
>  <Column 1>
1261

>  <level_0>
1404

>  <index>
1404

>  <Unnamed: 0>
1404

>  <NO.>
1416

>  <Name>
resocortol

>  <IUPAC_name>
11-17-dihydroxy-10-13-dimethyl-17-propanoyl-2-6-7-8-9-11-12-14-15-16-decahydro-1h-cyclopenta[a]phenanthren-3-one

>  <SMILES>
CCC(=O)C1(O)CCC2C3CCC4=CC(=O)CCC4(C)C3C(O)CC21C

>  <CID>
73656965

>  <logBB>


>  <BBB+/BBB->
BBB+

>  <Inchi>
InChI=1S/C22H32O4/c1-4-18(25)22(26)10-8-16-15-6-5-13-11-14(23)7-9-20(13-2)19(15)17(24)12-21(16-22)3/h11-15-17-19-24-26H-4-10-12H2-1-3H3

>  <threshold>
-1

>  <reference>
R1|R19|R27|R30|

>  <group>
B

>  <Class>
1

>  <ABC>
20.85

>  <ABCGG>
17.26

>  <nAcid>
0

>  <nBase>
0

>  <nAromAtom>
0

>  <nAromBond>
0

>  <nAtom>
58

>  <nHeavyAtom>
26

>  <nSpiro>
0

>  <nBridgehead>
0

>  <nHetero>
4

>  <nN>
0

>  <nO>
4

>  <nF>
0

>  <BalabanJ>
1.68

>  <BertzCT>
681.63

>  <nBonds>
61

>  <nBondsO>
29

>  <nBondsS>
58

>  <nBondsD>
3

>  <nBondsT>
0

>  <nBondsA>
0

>  <nBondsM>
3

>  <nBondsKS>
58

>  <nBondsKD>
3

>  <RNCG>
0.21

>  <RPCG>
0.11

>  <FCSP3>
0.82

>  <SZ>
32.67

>  <Sm>
30.01

>  <Sv>
33.53

>  <Sse>
57.53

>  <Sp>
36.7

>  <Si>
65.48

>  <MZ>
0.56

>  <Mm>
0.52

>  <Mv>
0.58

>  <Mse>
0.99

>  <Mp>
0.63

>  <Mi>
1.13

>  <NsCH3>
3

>  <NdCH2>
0

>  <NssCH2>
8

>  <NtCH>
0

>  <NdsCH>
1

>  <NaaCH>
0

>  <NsssCH>
4

>  <NddC>
0

>  <NtsC>
0

>  <NdssC>
3

>  <NaasC>
0

>  <NaaaC>
0

>  <NssssC>
3

>  <NsNH3>
0

>  <NsNH2>
0

>  <NssNH2>
0

>  <NdNH>
0

>  <NssNH>
0

>  <NaaNH>
0

>  <NtN>
0

>  <NsssNH>
0

>  <NdsN>
0

>  <NaaN>
0

>  <NsssN>
0

>  <NddsN>
0

>  <NaasN>
0

>  <NssssN>
0

>  <NsOH>
2

>  <NdO>
2

>  <NssO>
0

>  <NaaO>
0

>  <NsF>
0

>  <NsSiH3>
0

>  <NssSiH2>
0

>  <NsssSiH>
0

>  <NssssSi>
0

>  <NsPH2>
0

>  <NssPH>
0

>  <NsssP>
0

>  <NdsssP>
0

>  <NsssssP>
0

>  <NsSH>
0

>  <NdS>
0

>  <NssS>
0

>  <NaaS>
0

>  <NdssS>
0

>  <NddssS>
0

>  <NsCl>
0

>  <NsBr>
0

>  <NsI>
0

>  <fragCpx>
191.04

>  <fMF>
0.29

>  <nHBAcc>
4

>  <nHBDon>
2

>  <Kier1>
19.32

>  <Kier2>
6.25

>  <Lipinski>
1

>  <GhoseFilter>
1

>  <FilterItLogS>
-3.6

>  <VMcGowan>
287.98

>  <LabuteASA>
155.6

>  <PEOE_VSA1>
10.21

>  <PEOE_VSA2>
9.59

>  <PEOE_VSA3>
0

>  <PEOE_VSA4>
0

>  <PEOE_VSA5>
0

>  <PEOE_VSA6>
26.34

>  <PEOE_VSA7>
67.77

>  <PEOE_VSA8>
18.26

>  <PEOE_VSA9>
6.1

>  <PEOE_VSA10>
5.6

>  <PEOE_VSA11>
11.57

>  <PEOE_VSA12>
0

>  <PEOE_VSA13>
0

>  <SMR_VSA1>
19.8

>  <SMR_VSA2>
0

>  <SMR_VSA3>
0

>  <SMR_VSA4>
28.58

>  <SMR_VSA5>
83.84

>  <SMR_VSA6>
0

>  <SMR_VSA7>
11.65

>  <SMR_VSA8>
0

>  <SMR_VSA9>
0

>  <SlogP_VSA1>
0

>  <SlogP_VSA2>
33.48

>  <SlogP_VSA3>
9.59

>  <SlogP_VSA4>
28.58

>  <SlogP_VSA5>
72.14

>  <SlogP_VSA6>
11.65

>  <SlogP_VSA7>
0

>  <SlogP_VSA8>
0

>  <SlogP_VSA9>
0

>  <SlogP_VSA10>
0

>  <SlogP_VSA11>
0

>  <EState_VSA1>
17.12

>  <EState_VSA2>
28.82

>  <EState_VSA3>
31.6

>  <EState_VSA4>
25.68

>  <EState_VSA5>
5.57

>  <EState_VSA6>
0

>  <EState_VSA7>
19.92

>  <EState_VSA8>
6.92

>  <EState_VSA9>
0

>  <EState_VSA10>
19.8

>  <VSA_EState1>
0

>  <VSA_EState2>
24.53

>  <VSA_EState3>
22.58

>  <VSA_EState4>
-0.73

>  <VSA_EState5>
0.87

>  <VSA_EState6>
0

>  <VSA_EState7>
6.76

>  <VSA_EState8>
6.08

>  <VSA_EState9>
0

>  <apol>
61.29

>  <bpol>
33.84

>  <nRing>
4

>  <nHRing>
0

>  <naRing>
0

>  <naHRing>
0

>  <nARing 2>
4

>  <nAHRing 2>
0

>  <nFRing>
1

>  <nFHRing>
0

>  <nFaRing>
0

>  <nFaHRing>
0

>  <nFARing 2>
1

>  <nFAHRing 2>
0

>  <nRot>
2

>  <SLogP>
3.2

>  <SMR>
98.35

>  <TopoPSA(NO)>
74.6

>  <TopoPSA>
74.6

>  <JGI1>
0.29

>  <JGI2>
0.14

>  <JGI3>
0.07

>  <JGI4>
0.06

>  <JGI5>
0.04

>  <Diameter>
12

>  <Radius>
6

>  <TMWC10>
135.18

>  <TSRW10>
77.19

>  <MW>
360.23

>  <AMW>
6.21

>  <WPath>
1425

>  <WPol>
59

>  <Zagreb1>
154

>  <Zagreb2>
198

>  <mZagreb2>
5.44

>  <yes>


>  <nAR-cont>
0.199399

>  <nHA-cont>
0.892715677

>  <MWHBN>
0.316126797

>  <MWHBN-cont>
0.790034897

>  <TPSA-cont>
0.479245676

>  <pka_cont>
0.97

>  <yes.1>


>  <BBB_SCORE>
3.720658375

>  <MMFF94 Energy>
108.55

$$$$
Compound 1058
Actelion Java MolfileCreator 2.0

  0  0  0  0  0  0              0 V3000
M  V30 BEGIN CTAB
M  V30 COUNTS 39 40 0 0 0
M  V30 BEGIN ATOM
M  V30 1 O 0.316 1.6598 -2.5302 0
M  V30 2 C 0.8248 0.8503 -1.7498 0
M  V30 3 C 0.2441 0.6079 -0.3243 0
M  V30 4 C 2.0503 0.038 -2.1597 0
M  V30 5 C -0.4142 -0.7893 -0.3144 0
M  V30 6 C -0.8053 1.7201 -0.0305 0
M  V30 7 C 1.3987 0.817 0.694 0
M  V30 8 C 2.2982 0.0818 -3.658 0
M  V30 9 C -1.5224 -1.0396 -1.1495 0
M  V30 10 C 0.065 -1.8649 0.4526 0
M  V30 11 C -1.2302 1.7614 1.4354 0
M  V30 12 C 0.9285 0.9496 2.1471 0
M  V30 13 C -2.1341 -2.2907 -1.1821 0
M  V30 14 C -0.5554 -3.1197 0.4145 0
M  V30 15 N -0.0661 2.0128 2.2916 0
M  V30 16 O -3.2052 -2.4507 -2.0101 0
M  V30 17 C -1.662 -3.3348 -0.4012 0
M  V30 18 C -0.479 2.1479 3.6889 0
M  V30 19 H 1.9093 -1.0039 -1.8592 0
M  V30 20 H 2.9233 0.4395 -1.6361 0
M  V30 21 H -1.6986 1.6222 -0.6578 0
M  V30 22 H -0.38 2.7013 -0.2889 0
M  V30 23 H 1.9415 1.7372 0.4308 0
M  V30 24 H 2.1455 0.0168 0.6294 0
M  V30 25 H 3.166 -0.5317 -3.9183 0
M  V30 26 H 2.4913 1.1051 -3.9963 0
M  V30 27 H 1.4316 -0.2967 -4.21 0
M  V30 28 H -1.9189 -0.2618 -1.8006 0
M  V30 29 H 0.9345 -1.7665 1.0955 0
M  V30 30 H -1.9551 2.5764 1.5537 0
M  V30 31 H -1.7415 0.8317 1.7157 0
M  V30 32 H 1.8066 1.1847 2.7617 0
M  V30 33 H 0.5329 -0.0031 2.5165 0
M  V30 34 H -0.1668 -3.9324 1.0238 0
M  V30 35 H -3.5229 -3.3652 -1.9365 0
M  V30 36 H -2.131 -4.3129 -0.4199 0
M  V30 37 H 0.3831 2.3791 4.3241 0
M  V30 38 H -0.9545 1.2371 4.0705 0
M  V30 39 H -1.1839 2.979 3.8033 0
M  V30 END ATOM
M  V30 BEGIN BOND
M  V30 1 2 1 2
M  V30 2 1 2 3
M  V30 3 1 2 4
M  V30 4 1 3 5
M  V30 5 1 3 6
M  V30 6 1 3 7
M  V30 7 1 4 8
M  V30 8 2 5 9
M  V30 9 1 5 10
M  V30 10 1 6 11
M  V30 11 1 7 12
M  V30 12 1 9 13
M  V30 13 2 10 14
M  V30 14 1 11 15
M  V30 15 1 13 16
M  V30 16 2 13 17
M  V30 17 1 15 18
M  V30 18 1 12 15
M  V30 19 1 14 17
M  V30 20 1 4 19
M  V30 21 1 4 20
M  V30 22 1 6 21
M  V30 23 1 6 22
M  V30 24 1 7 23
M  V30 25 1 7 24
M  V30 26 1 8 25
M  V30 27 1 8 26
M  V30 28 1 8 27
M  V30 29 1 9 28
M  V30 30 1 10 29
M  V30 31 1 11 30
M  V30 32 1 11 31
M  V30 33 1 12 32
M  V30 34 1 12 33
M  V30 35 1 14 34
M  V30 36 1 16 35
M  V30 37 1 17 36
M  V30 38 1 18 37
M  V30 39 1 18 38
M  V30 40 1 18 39
M  V30 END BOND
M  V30 END CTAB
M  END
>  <Column 1>
1262

>  <level_0>
1405

>  <index>
1405

>  <Unnamed: 0>
1405

>  <NO.>
1417

>  <Name>
ketobemidone

>  <IUPAC_name>
1-[4-(3-hydroxyphenyl)-1-methylpiperidin-4-yl]propan-1-one

>  <SMILES>
CCC(=O)C1(c2cccc(O)c2)CCN(C)CC1

>  <CID>
10101

>  <logBB>


>  <BBB+/BBB->
BBB+

>  <Inchi>
InChI=1S/C15H21NO2/c1-3-14(18)15(7-9-16(2)10-8-15)12-5-4-6-13(17)11-12/h4-6-11-17H-3-7-10H2-1-2H3

>  <threshold>
-1

>  <reference>
R1|R13|R19|R6|R24|R27|R27|R27|R30|R30|

>  <group>
B

>  <Class>
1

>  <ABC>
13.64

>  <ABCGG>
12.12

>  <nAcid>
0

>  <nBase>
1

>  <nAromAtom>
6

>  <nAromBond>
6

>  <nAtom>
39

>  <nHeavyAtom>
18

>  <nSpiro>
0

>  <nBridgehead>
0

>  <nHetero>
3

>  <nN>
1

>  <nO>
2

>  <nF>
0

>  <BalabanJ>
2.13

>  <BertzCT>
433.87

>  <nBonds>
40

>  <nBondsO>
19

>  <nBondsS>
33

>  <nBondsD>
1

>  <nBondsT>
0

>  <nBondsA>
6

>  <nBondsM>
7

>  <nBondsKS>
36

>  <nBondsKD>
4

>  <RNCG>
0.36

>  <RPCG>
0.21

>  <FCSP3>
0.53

>  <SZ>
22.33

>  <Sm>
20.59

>  <Sv>
22.88

>  <Sse>
38.65

>  <Sp>
25

>  <Si>
44.07

>  <MZ>
0.57

>  <Mm>
0.53

>  <Mv>
0.59

>  <Mse>
0.99

>  <Mp>
0.64

>  <Mi>
1.13

>  <NsCH3>
2

>  <NdCH2>
0

>  <NssCH2>
5

>  <NtCH>
0

>  <NdsCH>
0

>  <NaaCH>
4

>  <NsssCH>
0

>  <NddC>
0

>  <NtsC>
0

>  <NdssC>
1

>  <NaasC>
2

>  <NaaaC>
0

>  <NssssC>
1

>  <NsNH3>
0

>  <NsNH2>
0

>  <NssNH2>
0

>  <NdNH>
0

>  <NssNH>
0

>  <NaaNH>
0

>  <NtN>
0

>  <NsssNH>
0

>  <NdsN>
0

>  <NaaN>
0

>  <NsssN>
1

>  <NddsN>
0

>  <NaasN>
0

>  <NssssN>
0

>  <NsOH>
1

>  <NdO>
1

>  <NssO>
0

>  <NaaO>
0

>  <NsF>
0

>  <NsSiH3>
0

>  <NssSiH2>
0

>  <NsssSiH>
0

>  <NssssSi>
0

>  <NsPH2>
0

>  <NssPH>
0

>  <NsssP>
0

>  <NdsssP>
0

>  <NsssssP>
0

>  <NsSH>
0

>  <NdS>
0

>  <NssS>
0

>  <NaaS>
0

>  <NdssS>
0

>  <NddssS>
0

>  <NsCl>
0

>  <NsBr>
0

>  <NsI>
0

>  <fragCpx>
55.03

>  <fMF>
0.31

>  <nHBAcc>
3

>  <nHBDon>
1

>  <Kier1>
14.41

>  <Kier2>
5.97

>  <Lipinski>
1

>  <GhoseFilter>
1

>  <FilterItLogS>
-3.06

>  <VMcGowan>
205.01

>  <LabuteASA>
108.43

>  <PEOE_VSA1>
10.01

>  <PEOE_VSA2>
4.79

>  <PEOE_VSA3>
0

>  <PEOE_VSA4>
0

>  <PEOE_VSA5>
0

>  <PEOE_VSA6>
19.06

>  <PEOE_VSA7>
50.68

>  <PEOE_VSA8>
6.42

>  <PEOE_VSA9>
5.41

>  <PEOE_VSA10>
11.53

>  <PEOE_VSA11>
0

>  <PEOE_VSA12>
0

>  <PEOE_VSA13>
0

>  <SMR_VSA1>
9.9

>  <SMR_VSA2>
0

>  <SMR_VSA3>
4.9

>  <SMR_VSA4>
0

>  <SMR_VSA5>
31.6

>  <SMR_VSA6>
20.14

>  <SMR_VSA7>
29.83

>  <SMR_VSA8>
0

>  <SMR_VSA9>
5.75

>  <SlogP_VSA1>
0

>  <SlogP_VSA2>
35.93

>  <SlogP_VSA3>
10.21

>  <SlogP_VSA4>
0

>  <SlogP_VSA5>
31.75

>  <SlogP_VSA6>
24.27

>  <SlogP_VSA7>
0

>  <SlogP_VSA8>
0

>  <SlogP_VSA9>
0

>  <SlogP_VSA10>
0

>  <SlogP_VSA11>
5.75

>  <EState_VSA1>
0

>  <EState_VSA2>
11.16

>  <EState_VSA3>
12.2

>  <EState_VSA4>
31.49

>  <EState_VSA5>
0

>  <EState_VSA6>
12.13

>  <EState_VSA7>
19.06

>  <EState_VSA8>
11.95

>  <EState_VSA9>
0

>  <EState_VSA10>
9.9

>  <VSA_EState1>
0

>  <VSA_EState2>
14.66

>  <VSA_EState3>
9.64

>  <VSA_EState4>
0.59

>  <VSA_EState5>
0.54

>  <VSA_EState6>
7.2

>  <VSA_EState7>
2.25

>  <VSA_EState8>
3.79

>  <VSA_EState9>
2.09

>  <apol>
41.76

>  <bpol>
23.65

>  <nRing>
2

>  <nHRing>
1

>  <naRing>
1

>  <naHRing>
0

>  <nARing 2>
1

>  <nAHRing 2>
1

>  <nFRing>
0

>  <nFHRing>
0

>  <nFaRing>
0

>  <nFaHRing>
0

>  <nFARing 2>
0

>  <nFAHRing 2>
0

>  <nRot>
3

>  <SLogP>
2.33

>  <SMR>
71.81

>  <TopoPSA(NO)>
40.54

>  <TopoPSA>
40.54

>  <JGI1>
0.26

>  <JGI2>
0.12

>  <JGI3>
0.05

>  <JGI4>
0.04

>  <JGI5>
0.04

>  <Diameter>
8

>  <Radius>
4

>  <TMWC10>
109.76

>  <TSRW10>
51.35

>  <MW>
247.16

>  <AMW>
6.34

>  <WPath>
558

>  <WPol>
30

>  <Zagreb1>
92

>  <Zagreb2>
109

>  <mZagreb2>
4.08

>  <yes>


>  <nAR-cont>
0.816016

>  <nHA-cont>
0.991161285

>  <MWHBN>
0.254431512

>  <MWHBN-cont>
0.952018474

>  <TPSA-cont>
0.717005626

>  <pka_cont>
0.97

>  <yes.1>


>  <BBB_SCORE>
5.154216248

>  <MMFF94 Energy>
28.573

$$$$
Compound 1059
Actelion Java MolfileCreator 2.0

  0  0  0  0  0  0              0 V3000
M  V30 BEGIN CTAB
M  V30 COUNTS 43 44 0 0 0
M  V30 BEGIN ATOM
M  V30 1 Cl 2.6545 -3.6211 1.4472 0
M  V30 2 C 1.217 -3.0818 0.6546 0
M  V30 3 C 0.503 -3.892 -0.2364 0
M  V30 4 C 0.7705 -1.7863 0.9279 0
M  V30 5 Cl 0.993 -5.5034 -0.6206 0
M  V30 6 C -0.6542 -3.4016 -0.8507 0
M  V30 7 C -0.3814 -1.2977 0.3056 0
M  V30 8 C -1.0971 -2.1052 -0.5808 0
M  V30 9 N -0.8198 0.0172 0.5757 0
M  V30 10 C -1.7211 0.3101 1.6041 0
M  V30 11 C -0.3727 1.1169 -0.2951 0 CFG=1
M  V30 12 O -2.1521 1.4506 1.7888 0
M  V30 13 C -2.158 -0.851 2.4924 0
M  V30 14 C 0.9603 0.9483 -1.0839 0 CFG=2
M  V30 15 C -1.3995 1.4537 -1.394 0
M  V30 16 C -3.119 -0.4144 3.5866 0
M  V30 17 N 2.2008 0.8849 -0.2881 0
M  V30 18 C 0.852 2.0896 -2.1056 0
M  V30 19 C -0.6011 2.0263 -2.5667 0
M  V30 20 C 3.3686 0.606 -1.1246 0
M  V30 21 C 2.4518 2.0445 0.5637 0
M  V30 22 H 1.3289 -1.1476 1.6087 0
M  V30 23 H -1.2157 -4.0258 -1.5422 0
M  V30 24 H -1.9998 -1.7361 -1.061 0
M  V30 25 H -0.2941 2.0137 0.3339 0
M  V30 26 H -1.273 -1.2957 2.959 0
M  V30 27 H -2.6501 -1.6087 1.8742 0
M  V30 28 H 0.8947 0.0066 -1.6481 0
M  V30 29 H -1.9573 0.5711 -1.7243 0
M  V30 30 H -2.1376 2.1761 -1.0276 0
M  V30 31 H -3.4076 -1.2709 4.2037 0
M  V30 32 H -4.0287 0.0215 3.1604 0
M  V30 33 H -2.6591 0.3365 4.2375 0
M  V30 34 H 1.5419 1.9737 -2.947 0
M  V30 35 H 1.0403 3.0653 -1.6438 0
M  V30 36 H -0.692 1.36 -3.4326 0
M  V30 37 H -0.9698 3.0111 -2.8707 0
M  V30 38 H 3.6064 1.4351 -1.7998 0
M  V30 39 H 3.2112 -0.2971 -1.7245 0
M  V30 40 H 4.2484 0.4123 -0.5005 0
M  V30 41 H 2.5916 2.9676 -0.0077 0
M  V30 42 H 1.6441 2.1954 1.286 0
M  V30 43 H 3.3561 1.8849 1.163 0
M  V30 END ATOM
M  V30 BEGIN BOND
M  V30 1 1 1 2
M  V30 2 2 2 3
M  V30 3 1 2 4
M  V30 4 1 3 5
M  V30 5 1 3 6
M  V30 6 2 4 7
M  V30 7 2 6 8
M  V30 8 1 7 9
M  V30 9 1 9 10
M  V30 10 1 9 11
M  V30 11 2 10 12
M  V30 12 1 10 13
M  V30 13 1 11 14
M  V30 14 1 11 15
M  V30 15 1 13 16
M  V30 16 1 14 17
M  V30 17 1 14 18
M  V30 18 1 15 19
M  V30 19 1 17 20
M  V30 20 1 17 21
M  V30 21 1 7 8
M  V30 22 1 18 19
M  V30 23 1 4 22
M  V30 24 1 6 23
M  V30 25 1 8 24
M  V30 26 1 11 25
M  V30 27 1 13 26
M  V30 28 1 13 27
M  V30 29 1 14 28
M  V30 30 1 15 29
M  V30 31 1 15 30
M  V30 32 1 16 31
M  V30 33 1 16 32
M  V30 34 1 16 33
M  V30 35 1 18 34
M  V30 36 1 18 35
M  V30 37 1 19 36
M  V30 38 1 19 37
M  V30 39 1 20 38
M  V30 40 1 20 39
M  V30 41 1 20 40
M  V30 42 1 21 41
M  V30 43 1 21 42
M  V30 44 1 21 43
M  V30 END BOND
M  V30 BEGIN COLLECTION
M  V30 MDLV30/STEABS ATOMS=(2 11 14)
M  V30 END COLLECTION
M  V30 END CTAB
M  END
>  <Column 1>
1263

>  <level_0>
1406

>  <index>
1406

>  <Unnamed: 0>
1406

>  <NO.>
1418

>  <Name>
eclanamine

>  <IUPAC_name>
n-(3-4-dichlorophenyl)-n-[(1r-2r)-2-(dimethylamino)cyclopentyl]propanamide

>  <SMILES>
CCC(=O)N(c1ccc(Cl)c(Cl)c1)[C@@H]1CCC[C@H]1N(C)C

>  <CID>
130380

>  <logBB>


>  <BBB+/BBB->
BBB+

>  <Inchi>
InChI=1S/C16H22Cl2N2O/c1-4-16(21)20(11-8-9-12(17)13(18)10-11)15-7-5-6-14(15)19(2)3/h8-10-14-15H-4-7H2-1-3H3/t14--15-/m1/s1

>  <threshold>
-1

>  <reference>
R1|R6|R27|R30|

>  <group>
B

>  <Class>
1

>  <ABC>
15.86

>  <ABCGG>
14.86

>  <nAcid>
0

>  <nBase>
1

>  <nAromAtom>
6

>  <nAromBond>
6

>  <nAtom>
43

>  <nHeavyAtom>
21

>  <nSpiro>
0

>  <nBridgehead>
0

>  <nHetero>
5

>  <nN>
2

>  <nO>
1

>  <nF>
0

>  <BalabanJ>
2.14

>  <BertzCT>
519

>  <nBonds>
44

>  <nBondsO>
22

>  <nBondsS>
37

>  <nBondsD>
1

>  <nBondsT>
0

>  <nBondsA>
6

>  <nBondsM>
7

>  <nBondsKS>
40

>  <nBondsKD>
4

>  <RNCG>
0.23

>  <RPCG>
0.17

>  <FCSP3>
0.56

>  <SZ>
29

>  <Sm>
27.41

>  <Sv>
26.37

>  <Sse>
42.95

>  <Sp>
29.19

>  <Si>
48.66

>  <MZ>
0.67

>  <Mm>
0.64

>  <Mv>
0.61

>  <Mse>
1

>  <Mp>
0.68

>  <Mi>
1.13

>  <NsCH3>
3

>  <NdCH2>
0

>  <NssCH2>
4

>  <NtCH>
0

>  <NdsCH>
0

>  <NaaCH>
3

>  <NsssCH>
2

>  <NddC>
0

>  <NtsC>
0

>  <NdssC>
1

>  <NaasC>
3

>  <NaaaC>
0

>  <NssssC>
0

>  <NsNH3>
0

>  <NsNH2>
0

>  <NssNH2>
0

>  <NdNH>
0

>  <NssNH>
0

>  <NaaNH>
0

>  <NtN>
0

>  <NsssNH>
0

>  <NdsN>
0

>  <NaaN>
0

>  <NsssN>
2

>  <NddsN>
0

>  <NaasN>
0

>  <NssssN>
0

>  <NsOH>
0

>  <NdO>
1

>  <NssO>
0

>  <NaaO>
0

>  <NsF>
0

>  <NsSiH3>
0

>  <NssSiH2>
0

>  <NsssSiH>
0

>  <NssssSi>
0

>  <NsPH2>
0

>  <NssPH>
0

>  <NsssP>
0

>  <NdsssP>
0

>  <NsssssP>
0

>  <NsSH>
0

>  <NdS>
0

>  <NssS>
0

>  <NaaS>
0

>  <NdssS>
0

>  <NddssS>
0

>  <NsCl>
2

>  <NsBr>
0

>  <NsI>
0

>  <fragCpx>
64.05

>  <fMF>
0.28

>  <nHBAcc>
2

>  <nHBDon>
0

>  <Kier1>
17.36

>  <Kier2>
7.51

>  <Lipinski>
1

>  <GhoseFilter>
1

>  <FilterItLogS>
-4.26

>  <VMcGowan>
247.69

>  <LabuteASA>
136.36

>  <PEOE_VSA1>
9.8

>  <PEOE_VSA2>
4.79

>  <PEOE_VSA3>
0

>  <PEOE_VSA4>
0

>  <PEOE_VSA5>
0

>  <PEOE_VSA6>
30.13

>  <PEOE_VSA7>
51.56

>  <PEOE_VSA8>
18.15

>  <PEOE_VSA9>
16.09

>  <PEOE_VSA10>
0

>  <PEOE_VSA11>
0

>  <PEOE_VSA12>
5.91

>  <PEOE_VSA13>
0

>  <SMR_VSA1>
4.79

>  <SMR_VSA2>
0

>  <SMR_VSA3>
4.9

>  <SMR_VSA4>
0

>  <SMR_VSA5>
44.69

>  <SMR_VSA6>
19

>  <SMR_VSA7>
28.24

>  <SMR_VSA8>
0

>  <SMR_VSA9>
0

>  <SlogP_VSA1>
4.9

>  <SlogP_VSA2>
36.99

>  <SlogP_VSA3>
4.79

>  <SlogP_VSA4>
0

>  <SlogP_VSA5>
32.61

>  <SlogP_VSA6>
18.2

>  <SlogP_VSA7>
10.05

>  <SlogP_VSA8>
0

>  <SlogP_VSA9>
0

>  <SlogP_VSA10>
5.69

>  <SlogP_VSA11>
0

>  <EState_VSA1>
0

>  <EState_VSA2>
11.95

>  <EState_VSA3>
22.51

>  <EState_VSA4>
24.95

>  <EState_VSA5>
0

>  <EState_VSA6>
12.13

>  <EState_VSA7>
17.89

>  <EState_VSA8>
19

>  <EState_VSA9>
23.2

>  <EState_VSA10>
4.79

>  <VSA_EState1>
0

>  <VSA_EState2>
16.63

>  <VSA_EState3>
1

>  <VSA_EState4>
0.84

>  <VSA_EState5>
0.13

>  <VSA_EState6>
6.02

>  <VSA_EState7>
3.76

>  <VSA_EState8>
1.9

>  <VSA_EState9>
4.15

>  <apol>
48.75

>  <bpol>
27.38

>  <nRing>
2

>  <nHRing>
0

>  <naRing>
1

>  <naHRing>
0

>  <nARing 2>
1

>  <nAHRing 2>
0

>  <nFRing>
0

>  <nFHRing>
0

>  <nFaRing>
0

>  <nFaHRing>
0

>  <nFARing 2>
0

>  <nFAHRing 2>
0

>  <nRot>
4

>  <SLogP>
4.22

>  <SMR>
89.35

>  <TopoPSA(NO)>
23.55

>  <TopoPSA>
23.55

>  <JGI1>
0.2

>  <JGI2>
0.1

>  <JGI3>
0.05

>  <JGI4>
0.04

>  <JGI5>
0.03

>  <Diameter>
9

>  <Radius>
5

>  <TMWC10>
116.73

>  <TSRW10>
68.36

>  <MW>
328.11

>  <AMW>
7.63

>  <WPath>
866

>  <WPol>
33

>  <Zagreb1>
106

>  <Zagreb2>
125

>  <mZagreb2>
4.75

>  <yes>


>  <nAR-cont>
0.816016

>  <nHA-cont>
0.994529749

>  <MWHBN>
0.110413013

>  <MWHBN-cont>
0.785215879

>  <TPSA-cont>
0.835606376

>  <pka_cont>
0.97

>  <yes.1>


>  <BBB_SCORE>
5.144582321

>  <MMFF94 Energy>
51.786

$$$$
Compound 1060
Actelion Java MolfileCreator 2.0

  0  0  0  0  0  0              0 V3000
M  V30 BEGIN CTAB
M  V30 COUNTS 55 56 0 0 0
M  V30 BEGIN ATOM
M  V30 1 O -0.4742 3.0062 0.158 0
M  V30 2 C 0.1985 2.1604 -0.4273 0
M  V30 3 O 1.379 2.4368 -1.0505 0
M  V30 4 C -0.151 0.6428 -0.4619 0
M  V30 5 C 1.7182 3.8234 -1.0746 0
M  V30 6 N -1.6369 0.593 -0.7412 0
M  V30 7 C 0.3141 0.1301 0.9349 0
M  V30 8 C 0.6565 -0.1419 -1.5314 0
M  V30 9 C -2.5261 0.1249 0.2553 0
M  V30 10 C -2.1195 1.1316 -1.941 0
M  V30 11 C 0.3678 -1.3921 1.0718 0
M  V30 12 C 0.5882 -1.6509 -1.3127 0
M  V30 13 C -2.9274 0.9711 1.2928 0
M  V30 14 C -3.0385 -1.174 0.1786 0
M  V30 15 O -1.366 1.6227 -2.7877 0
M  V30 16 C -3.6195 1.172 -2.1963 0
M  V30 17 N 1.096 -2.0744 -0.0018 0
M  V30 18 C -3.8208 0.5123 2.2613 0
M  V30 19 C -3.9313 -1.6301 1.1492 0
M  V30 20 C -4.1901 2.5277 -1.82 0
M  V30 21 C 2.5619 -1.956 0.0954 0
M  V30 22 C -4.32 -0.7879 2.1906 0
M  V30 23 C 3.1431 -2.7957 1.2297 0
M  V30 24 C 4.6444 -2.712 1.1949 0
M  V30 25 O 5.3723 -3.5587 0.6959 0
M  V30 26 O 5.0681 -1.5552 1.7769 0
M  V30 27 C 6.4874 -1.3941 1.78 0
M  V30 28 H 2.6451 3.935 -1.6438 0
M  V30 29 H 0.9351 4.4038 -1.5725 0
M  V30 30 H 1.8892 4.1916 -0.0584 0
M  V30 31 H 1.3245 0.5171 1.1318 0
M  V30 32 H -0.2959 0.547 1.7436 0
M  V30 33 H 0.3233 0.0725 -2.5499 0
M  V30 34 H 1.7122 0.1552 -1.5132 0
M  V30 35 H 0.7863 -1.6464 2.0517 0
M  V30 36 H -0.6434 -1.8038 1.1039 0
M  V30 37 H -0.4469 -1.9944 -1.4229 0
M  V30 38 H 1.1418 -2.1623 -2.1101 0
M  V30 39 H -2.553 1.9908 1.3515 0
M  V30 40 H -2.7465 -1.8368 -0.6311 0
M  V30 41 H -4.1595 0.3745 -1.6852 0
M  V30 42 H -3.7719 0.997 -3.2683 0
M  V30 43 H -4.1303 1.1714 3.0686 0
M  V30 44 H -4.3252 -2.6418 1.0925 0
M  V30 45 H -5.2591 2.5678 -2.0505 0
M  V30 46 H -3.6916 3.3299 -2.3743 0
M  V30 47 H -4.0626 2.7362 -0.7541 0
M  V30 48 H 2.878 -0.911 0.1974 0
M  V30 49 H 3.014 -2.3168 -0.8384 0
M  V30 50 H -5.0171 -1.1434 2.9457 0
M  V30 51 H 2.8023 -2.4716 2.2184 0
M  V30 52 H 2.8581 -3.8493 1.1257 0
M  V30 53 H 6.7194 -0.4456 2.2723 0
M  V30 54 H 6.964 -2.2024 2.3433 0
M  V30 55 H 6.8704 -1.3555 0.7556 0
M  V30 END ATOM
M  V30 BEGIN BOND
M  V30 1 2 1 2
M  V30 2 1 2 3
M  V30 3 1 2 4
M  V30 4 1 3 5
M  V30 5 1 4 6
M  V30 6 1 4 7
M  V30 7 1 4 8
M  V30 8 1 6 9
M  V30 9 1 6 10
M  V30 10 1 7 11
M  V30 11 1 8 12
M  V30 12 2 9 13
M  V30 13 1 9 14
M  V30 14 2 10 15
M  V30 15 1 10 16
M  V30 16 1 11 17
M  V30 17 1 13 18
M  V30 18 2 14 19
M  V30 19 1 16 20
M  V30 20 1 17 21
M  V30 21 2 18 22
M  V30 22 1 21 23
M  V30 23 1 23 24
M  V30 24 2 24 25
M  V30 25 1 24 26
M  V30 26 1 26 27
M  V30 27 1 12 17
M  V30 28 1 19 22
M  V30 29 1 5 28
M  V30 30 1 5 29
M  V30 31 1 5 30
M  V30 32 1 7 31
M  V30 33 1 7 32
M  V30 34 1 8 33
M  V30 35 1 8 34
M  V30 36 1 11 35
M  V30 37 1 11 36
M  V30 38 1 12 37
M  V30 39 1 12 38
M  V30 40 1 13 39
M  V30 41 1 14 40
M  V30 42 1 16 41
M  V30 43 1 16 42
M  V30 44 1 18 43
M  V30 45 1 19 44
M  V30 46 1 20 45
M  V30 47 1 20 46
M  V30 48 1 20 47
M  V30 49 1 21 48
M  V30 50 1 21 49
M  V30 51 1 22 50
M  V30 52 1 23 51
M  V30 53 1 23 52
M  V30 54 1 27 53
M  V30 55 1 27 54
M  V30 56 1 27 55
M  V30 END BOND
M  V30 END CTAB
M  END
>  <Column 1>
1264

>  <level_0>
1407

>  <index>
1407

>  <Unnamed: 0>
1407

>  <NO.>
1419

>  <Name>
remifentanil

>  <IUPAC_name>
methyl 1-(3-methoxy-3-oxopropyl)-4-(n-propanoylanilino)piperidine-4-carboxylate

>  <SMILES>
CCC(=O)N(c1ccccc1)C1(C(=O)OC)CCN(CCC(=O)OC)CC1

>  <CID>
60815

>  <logBB>


>  <BBB+/BBB->
BBB+

>  <Inchi>
InChI=1S/C20H28N2O5/c1-4-17(23)22(16-8-6-5-7-9-16)20(19(25)27-3)11-14-21(15-12-20)13-10-18(24)26-2/h5-9H-4-10-15H2-1-3H3

>  <threshold>
-1

>  <reference>
R1|R13|R19|R6|R14|R23|R24|R26|R27|R27|R27|R30|R30|R37|

>  <group>
B

>  <Class>
1

>  <ABC>
19.92

>  <ABCGG>
17.21

>  <nAcid>
0

>  <nBase>
1

>  <nAromAtom>
6

>  <nAromBond>
6

>  <nAtom>
55

>  <nHeavyAtom>
27

>  <nSpiro>
0

>  <nBridgehead>
0

>  <nHetero>
7

>  <nN>
2

>  <nO>
5

>  <nF>
0

>  <BalabanJ>
2.14

>  <BertzCT>
653.6

>  <nBonds>
56

>  <nBondsO>
28

>  <nBondsS>
47

>  <nBondsD>
3

>  <nBondsT>
0

>  <nBondsA>
6

>  <nBondsM>
9

>  <nBondsKS>
50

>  <nBondsKD>
6

>  <RNCG>
0.18

>  <RPCG>
0.13

>  <FCSP3>
0.55

>  <SZ>
33.67

>  <Sm>
31.34

>  <Sv>
32.68

>  <Sse>
55.41

>  <Sp>
34.9

>  <Si>
62.44

>  <MZ>
0.61

>  <Mm>
0.57

>  <Mv>
0.59

>  <Mse>
1.01

>  <Mp>
0.63

>  <Mi>
1.14

>  <NsCH3>
3

>  <NdCH2>
0

>  <NssCH2>
7

>  <NtCH>
0

>  <NdsCH>
0

>  <NaaCH>
5

>  <NsssCH>
0

>  <NddC>
0

>  <NtsC>
0

>  <NdssC>
3

>  <NaasC>
1

>  <NaaaC>
0

>  <NssssC>
1

>  <NsNH3>
0

>  <NsNH2>
0

>  <NssNH2>
0

>  <NdNH>
0

>  <NssNH>
0

>  <NaaNH>
0

>  <NtN>
0

>  <NsssNH>
0

>  <NdsN>
0

>  <NaaN>
0

>  <NsssN>
2

>  <NddsN>
0

>  <NaasN>
0

>  <NssssN>
0

>  <NsOH>
0

>  <NdO>
3

>  <NssO>
2

>  <NaaO>
0

>  <NsF>
0

>  <NsSiH3>
0

>  <NssSiH2>
0

>  <NsssSiH>
0

>  <NssssSi>
0

>  <NsPH2>
0

>  <NssPH>
0

>  <NsssP>
0

>  <NdsssP>
0

>  <NsssssP>
0

>  <NsSH>
0

>  <NdS>
0

>  <NssS>
0

>  <NaaS>
0

>  <NdssS>
0

>  <NddssS>
0

>  <NsCl>
0

>  <NsBr>
0

>  <NsI>
0

>  <fragCpx>
82.07

>  <fMF>
0.24

>  <nHBAcc>
6

>  <nHBDon>
0

>  <Kier1>
23.28

>  <Kier2>
11.25

>  <Lipinski>
1

>  <GhoseFilter>
1

>  <FilterItLogS>
-3.33

>  <VMcGowan>
294.45

>  <LabuteASA>
159.77

>  <PEOE_VSA1>
14.37

>  <PEOE_VSA2>
14.49

>  <PEOE_VSA3>
4.79

>  <PEOE_VSA4>
0

>  <PEOE_VSA5>
0

>  <PEOE_VSA6>
25.12

>  <PEOE_VSA7>
24.97

>  <PEOE_VSA8>
31.74

>  <PEOE_VSA9>
20.64

>  <PEOE_VSA10>
5.54

>  <PEOE_VSA11>
0

>  <PEOE_VSA12>
5.91

>  <PEOE_VSA13>
0

>  <SMR_VSA1>
23.86

>  <SMR_VSA2>
0

>  <SMR_VSA3>
4.9

>  <SMR_VSA4>
0

>  <SMR_VSA5>
38.15

>  <SMR_VSA6>
38.75

>  <SMR_VSA7>
30.33

>  <SMR_VSA8>
0

>  <SMR_VSA9>
0

>  <SlogP_VSA1>
4.9

>  <SlogP_VSA2>
62.14

>  <SlogP_VSA3>
23.86

>  <SlogP_VSA4>
0

>  <SlogP_VSA5>
32.61

>  <SlogP_VSA6>
30.33

>  <SlogP_VSA7>
0

>  <SlogP_VSA8>
0

>  <SlogP_VSA9>
0

>  <SlogP_VSA10>
5.69

>  <SlogP_VSA11>
0

>  <EState_VSA1>
11.51

>  <EState_VSA2>
11.88

>  <EState_VSA3>
51

>  <EState_VSA4>
0

>  <EState_VSA5>
14.22

>  <EState_VSA6>
11.82

>  <EState_VSA7>
30.33

>  <EState_VSA8>
9.64

>  <EState_VSA9>
4.74

>  <EState_VSA10>
14.38

>  <VSA_EState1>
9.8

>  <VSA_EState2>
40.75

>  <VSA_EState3>
0

>  <VSA_EState4>
-0.34

>  <VSA_EState5>
-0.78

>  <VSA_EState6>
9.24

>  <VSA_EState7>
1.49

>  <VSA_EState8>
3.53

>  <VSA_EState9>
2.72

>  <apol>
58.28

>  <bpol>
37.59

>  <nRing>
2

>  <nHRing>
1

>  <naRing>
1

>  <naHRing>
0

>  <nARing 2>
1

>  <nAHRing 2>
1

>  <nFRing>
0

>  <nFHRing>
0

>  <nFaRing>
0

>  <nFaHRing>
0

>  <nFARing 2>
0

>  <nFAHRing 2>
0

>  <nRot>
7

>  <SLogP>
2

>  <SMR>
101.27

>  <TopoPSA(NO)>
76.15

>  <TopoPSA>
76.15

>  <JGI1>
0.21

>  <JGI2>
0.11

>  <JGI3>
0.05

>  <JGI4>
0.04

>  <JGI5>
0.02

>  <Diameter>
13

>  <Radius>
7

>  <TMWC10>
130.88

>  <TSRW10>
61.97

>  <MW>
376.2

>  <AMW>
6.84

>  <WPath>
1822

>  <WPol>
45

>  <Zagreb1>
132

>  <Zagreb2>
155

>  <mZagreb2>
6.39

>  <yes>


>  <nAR-cont>
0.816016

>  <nHA-cont>
0.860070871

>  <MWHBN>
0.309344112

>  <MWHBN-cont>
0.811952594

>  <TPSA-cont>
0.468425714

>  <pka_cont>
0.97

>  <yes.1>


>  <BBB_SCORE>
4.315867189

>  <MMFF94 Energy>
26.354

$$$$
Compound 1061
Actelion Java MolfileCreator 2.0

  0  0  0  0  0  0              0 V3000
M  V30 BEGIN CTAB
M  V30 COUNTS 59 61 0 0 0
M  V30 BEGIN ATOM
M  V30 1 O 1.1102 2.7773 -0.5549 0
M  V30 2 C -0.0664 2.4286 -0.4972 0
M  V30 3 O -1.0906 3.2942 -0.2335 0
M  V30 4 C -0.5391 0.9424 -0.5661 0
M  V30 5 C -0.7004 4.6662 -0.1804 0
M  V30 6 N -2.0338 0.8926 -0.8132 0
M  V30 7 C -0.0578 0.3484 0.7976 0
M  V30 8 C 0.2565 0.2258 -1.692 0
M  V30 9 C -2.8986 0.3753 0.1812 0
M  V30 10 C -2.5478 1.4496 -1.9927 0
M  V30 11 C 0.0146 -1.1784 0.8401 0
M  V30 12 C 0.2217 -1.2936 -1.5545 0
M  V30 13 C -3.2891 1.1744 1.2598 0
M  V30 14 C -3.3991 -0.9253 0.0615 0
M  V30 15 O -1.8215 1.9728 -2.8439 0
M  V30 16 C -4.0539 1.4808 -2.2136 0
M  V30 17 N 0.7483 -1.7821 -0.2744 0
M  V30 18 C -4.1594 0.6665 2.2253 0
M  V30 19 C -4.2685 -1.4305 1.0292 0
M  V30 20 C -4.63 2.8165 -1.7775 0
M  V30 21 C 2.2142 -1.6299 -0.1855 0
M  V30 22 C -4.6462 -0.6354 2.111 0
M  V30 23 C 2.8412 -2.4684 0.9424 0
M  V30 24 C 4.3506 -2.403 0.9102 0
M  V30 25 C 5.091 -3.3969 0.2565 0
M  V30 26 C 5.0281 -1.332 1.5091 0
M  V30 27 C 6.4841 -3.3252 0.2109 0
M  V30 28 C 6.4212 -1.2622 1.4618 0
M  V30 29 C 7.1487 -2.2587 0.8139 0
M  V30 30 H -1.6021 5.2685 -0.0383 0
M  V30 31 H -0.0309 4.8389 0.6678 0
M  V30 32 H -0.2267 4.9703 -1.1191 0
M  V30 33 H 0.9508 0.7251 1.02 0
M  V30 34 H -0.6658 0.7122 1.6329 0
M  V30 35 H -0.1021 0.484 -2.6913 0
M  V30 36 H 1.3037 0.5547 -1.6844 0
M  V30 37 H 0.4362 -1.4892 1.8021 0
M  V30 38 H -0.9908 -1.6049 0.8477 0
M  V30 39 H -0.8086 -1.6497 -1.6745 0
M  V30 40 H 0.7762 -1.7493 -2.3845 0
M  V30 41 H -2.9257 2.1943 1.3537 0
M  V30 42 H -3.1139 -1.5521 -0.7792 0
M  V30 43 H -4.5742 0.6599 -1.7194 0
M  V30 44 H -4.2283 1.3416 -3.2875 0
M  V30 45 H -4.4612 1.2876 3.0652 0
M  V30 46 H -4.6518 -2.4439 0.939 0
M  V30 47 H -5.704 2.8535 -1.9847 0
M  V30 48 H -4.1507 3.6432 -2.3127 0
M  V30 49 H -4.4825 2.9887 -0.7077 0
M  V30 50 H 2.5054 -0.5785 -0.0741 0
M  V30 51 H 2.6591 -1.9711 -1.1302 0
M  V30 52 H -5.3246 -1.0297 2.8639 0
M  V30 53 H 2.5033 -2.1257 1.9273 0
M  V30 54 H 2.5194 -3.5144 0.8568 0
M  V30 55 H 4.5856 -4.2327 -0.2225 0
M  V30 56 H 4.4739 -0.5445 2.0149 0
M  V30 57 H 7.0507 -4.1012 -0.2969 0
M  V30 58 H 6.9388 -0.4285 1.9292 0
M  V30 59 H 8.2334 -2.2031 0.7768 0
M  V30 END ATOM
M  V30 BEGIN BOND
M  V30 1 2 1 2
M  V30 2 1 2 3
M  V30 3 1 2 4
M  V30 4 1 3 5
M  V30 5 1 4 6
M  V30 6 1 4 7
M  V30 7 1 4 8
M  V30 8 1 6 9
M  V30 9 1 6 10
M  V30 10 1 7 11
M  V30 11 1 8 12
M  V30 12 2 9 13
M  V30 13 1 9 14
M  V30 14 2 10 15
M  V30 15 1 10 16
M  V30 16 1 11 17
M  V30 17 1 13 18
M  V30 18 2 14 19
M  V30 19 1 16 20
M  V30 20 1 17 21
M  V30 21 2 18 22
M  V30 22 1 21 23
M  V30 23 1 23 24
M  V30 24 2 24 25
M  V30 25 1 24 26
M  V30 26 1 25 27
M  V30 27 2 26 28
M  V30 28 2 27 29
M  V30 29 1 12 17
M  V30 30 1 19 22
M  V30 31 1 28 29
M  V30 32 1 5 30
M  V30 33 1 5 31
M  V30 34 1 5 32
M  V30 35 1 7 33
M  V30 36 1 7 34
M  V30 37 1 8 35
M  V30 38 1 8 36
M  V30 39 1 11 37
M  V30 40 1 11 38
M  V30 41 1 12 39
M  V30 42 1 12 40
M  V30 43 1 13 41
M  V30 44 1 14 42
M  V30 45 1 16 43
M  V30 46 1 16 44
M  V30 47 1 18 45
M  V30 48 1 19 46
M  V30 49 1 20 47
M  V30 50 1 20 48
M  V30 51 1 20 49
M  V30 52 1 21 50
M  V30 53 1 21 51
M  V30 54 1 22 52
M  V30 55 1 23 53
M  V30 56 1 23 54
M  V30 57 1 25 55
M  V30 58 1 26 56
M  V30 59 1 27 57
M  V30 60 1 28 58
M  V30 61 1 29 59
M  V30 END BOND
M  V30 END CTAB
M  END
>  <Column 1>
1265

>  <level_0>
1408

>  <index>
1408

>  <Unnamed: 0>
1408

>  <NO.>
1420

>  <Name>
carfentanil

>  <IUPAC_name>
methyl 1-(2-phenylethyl)-4-(n-propanoylanilino)piperidine-4-carboxylate

>  <SMILES>
CCC(=O)N(c1ccccc1)C1(C(=O)OC)CCN(CCc2ccccc2)CC1

>  <CID>
62156

>  <logBB>


>  <BBB+/BBB->
BBB+

>  <Inchi>
InChI=1S/C24H30N2O3/c1-3-22(27)26(21-12-8-5-9-13-21)24(23(28)29-2)15-18-25(19-16-24)17-14-20-10-6-4-7-11-20/h4-13H-3-14-19H2-1-2H3

>  <threshold>
-1

>  <reference>
R1|R13|R19|R6|R24|R27|R27|R27|R30|R30|

>  <group>
B

>  <Class>
1

>  <ABC>
21.93

>  <ABCGG>
17.73

>  <nAcid>
0

>  <nBase>
1

>  <nAromAtom>
12

>  <nAromBond>
12

>  <nAtom>
59

>  <nHeavyAtom>
29

>  <nSpiro>
0

>  <nBridgehead>
0

>  <nHetero>
5

>  <nN>
2

>  <nO>
3

>  <nF>
0

>  <BalabanJ>
1.66

>  <BertzCT>
799.39

>  <nBonds>
61

>  <nBondsO>
31

>  <nBondsS>
47

>  <nBondsD>
2

>  <nBondsT>
0

>  <nBondsA>
12

>  <nBondsM>
14

>  <nBondsKS>
53

>  <nBondsKD>
8

>  <RNCG>
0.2

>  <RPCG>
0.15

>  <FCSP3>
0.42

>  <SZ>
35.33

>  <Sm>
32.85

>  <Sv>
35.79

>  <Sse>
58.64

>  <Sp>
38.74

>  <Si>
66.44

>  <MZ>
0.6

>  <Mm>
0.56

>  <Mv>
0.61

>  <Mse>
0.99

>  <Mp>
0.66

>  <Mi>
1.13

>  <NsCH3>
2

>  <NdCH2>
0

>  <NssCH2>
7

>  <NtCH>
0

>  <NdsCH>
0

>  <NaaCH>
10

>  <NsssCH>
0

>  <NddC>
0

>  <NtsC>
0

>  <NdssC>
2

>  <NaasC>
2

>  <NaaaC>
0

>  <NssssC>
1

>  <NsNH3>
0

>  <NsNH2>
0

>  <NssNH2>
0

>  <NdNH>
0

>  <NssNH>
0

>  <NaaNH>
0

>  <NtN>
0

>  <NsssNH>
0

>  <NdsN>
0

>  <NaaN>
0

>  <NsssN>
2

>  <NddsN>
0

>  <NaasN>
0

>  <NssssN>
0

>  <NsOH>
0

>  <NdO>
2

>  <NssO>
1

>  <NaaO>
0

>  <NsF>
0

>  <NsSiH3>
0

>  <NssSiH2>
0

>  <NsssSiH>
0

>  <NssssSi>
0

>  <NsPH2>
0

>  <NssPH>
0

>  <NsssP>
0

>  <NdsssP>
0

>  <NsssssP>
0

>  <NsSH>
0

>  <NdS>
0

>  <NssS>
0

>  <NaaS>
0

>  <NdssS>
0

>  <NddssS>
0

>  <NsCl>
0

>  <NsBr>
0

>  <NsI>
0

>  <fragCpx>
149.05

>  <fMF>
0.36

>  <nHBAcc>
4

>  <nHBDon>
0

>  <Kier1>
23.66

>  <Kier2>
11.57

>  <Lipinski>
1

>  <GhoseFilter>
1

>  <FilterItLogS>
-5

>  <VMcGowan>
319.61

>  <LabuteASA>
172.82

>  <PEOE_VSA1>
9.64

>  <PEOE_VSA2>
9.69

>  <PEOE_VSA3>
4.79

>  <PEOE_VSA4>
0

>  <PEOE_VSA5>
0

>  <PEOE_VSA6>
55.45

>  <PEOE_VSA7>
36.96

>  <PEOE_VSA8>
31.74

>  <PEOE_VSA9>
7.11

>  <PEOE_VSA10>
5.54

>  <PEOE_VSA11>
0

>  <PEOE_VSA12>
5.91

>  <PEOE_VSA13>
0

>  <SMR_VSA1>
14.33

>  <SMR_VSA2>
0

>  <SMR_VSA3>
4.9

>  <SMR_VSA4>
0

>  <SMR_VSA5>
38.15

>  <SMR_VSA6>
31.64

>  <SMR_VSA7>
66.23

>  <SMR_VSA8>
0

>  <SMR_VSA9>
0

>  <SlogP_VSA1>
4.9

>  <SlogP_VSA2>
49.06

>  <SlogP_VSA3>
20.75

>  <SlogP_VSA4>
0

>  <SlogP_VSA5>
31.75

>  <SlogP_VSA6>
60.66

>  <SlogP_VSA7>
0

>  <SlogP_VSA8>
0

>  <SlogP_VSA9>
0

>  <SlogP_VSA10>
5.69

>  <SlogP_VSA11>
0

>  <EState_VSA1>
5.54

>  <EState_VSA2>
11.88

>  <EState_VSA3>
19.26

>  <EState_VSA4>
31.74

>  <EState_VSA5>
12.67

>  <EState_VSA6>
4.9

>  <EState_VSA7>
43.32

>  <EState_VSA8>
29.17

>  <EState_VSA9>
4.74

>  <EState_VSA10>
9.59

>  <VSA_EState1>
5.2

>  <VSA_EState2>
29.97

>  <VSA_EState3>
0

>  <VSA_EState4>
1.11

>  <VSA_EState5>
-0.38

>  <VSA_EState6>
19.9

>  <VSA_EState7>
2.44

>  <VSA_EState8>
4.27

>  <VSA_EState9>
1.41

>  <apol>
64.69

>  <bpol>
36.99

>  <nRing>
3

>  <nHRing>
1

>  <naRing>
2

>  <naHRing>
0

>  <nARing 2>
1

>  <nAHRing 2>
1

>  <nFRing>
0

>  <nFHRing>
0

>  <nFaRing>
0

>  <nFaHRing>
0

>  <nFARing 2>
0

>  <nFAHRing 2>
0

>  <nRot>
7

>  <SLogP>
3.68

>  <SMR>
114.79

>  <TopoPSA(NO)>
49.85

>  <TopoPSA>
49.85

>  <JGI1>
0.18

>  <JGI2>
0.09

>  <JGI3>
0.05

>  <JGI4>
0.04

>  <JGI5>
0.02

>  <Diameter>
14

>  <Radius>
7

>  <TMWC10>
136.69

>  <TSRW10>
64.46

>  <MW>
394.23

>  <AMW>
6.68

>  <WPath>
2278

>  <WPol>
48

>  <Zagreb1>
146

>  <Zagreb2>
172

>  <mZagreb2>
6.72

>  <yes>


>  <nAR-cont>
0.816016

>  <nHA-cont>
0.785905698

>  <MWHBN>
0.201458296

>  <MWHBN-cont>
0.99983535

>  <TPSA-cont>
0.652016045

>  <pka_cont>
0.97

>  <yes.1>


>  <BBB_SCORE>
4.890706814

>  <MMFF94 Energy>
64.635

$$$$
Compound 1062
Actelion Java MolfileCreator 2.0

  0  0  0  0  0  0              0 V3000
M  V30 BEGIN CTAB
M  V30 COUNTS 62 64 0 0 0
M  V30 BEGIN ATOM
M  V30 1 O 3.2457 -3.7214 0.9491 0
M  V30 2 C 3.9189 -2.8254 0.4708 0
M  V30 3 N 3.8551 -2.2709 -0.7911 0
M  V30 4 N 4.9389 -2.11 1.0646 0
M  V30 5 N 4.8127 -1.3012 -0.9179 0
M  V30 6 C 2.9916 -2.6686 -1.8741 0
M  V30 7 N 5.4375 -1.1929 0.1823 0
M  V30 8 C 5.4089 -2.2251 2.4185 0
M  V30 9 C 2.2342 -1.5079 -2.5488 0
M  V30 10 C 4.7708 -1.1848 3.3225 0
M  V30 11 N 0.9558 -1.1169 -1.9105 0
M  V30 12 C 1.1615 -0.5138 -0.5886 0
M  V30 13 C 0.2448 -0.1713 -2.7829 0
M  V30 14 C -0.1647 -0.1104 0.0639 0
M  V30 15 C -1.1275 0.1919 -2.2217 0
M  V30 16 C -1.1029 0.7977 -0.7933 0
M  V30 17 N -2.5373 0.8421 -0.2522 0
M  V30 18 C -0.5634 2.2697 -0.8093 0
M  V30 19 C -2.8104 0.2162 0.99 0
M  V30 20 C -3.5473 1.5549 -0.9186 0
M  V30 21 O 0.8316 2.3732 -1.0866 0
M  V30 22 C -2.607 0.9157 2.183 0
M  V30 23 C -3.2945 -1.095 1.0155 0
M  V30 24 O -3.3393 2.1908 -1.9536 0
M  V30 25 C -4.9457 1.5273 -0.3011 0
M  V30 26 C 1.2642 3.727 -1.1268 0
M  V30 27 C -2.8861 0.2989 3.4028 0
M  V30 28 C -3.5709 -1.7076 2.2376 0
M  V30 29 C -5.9543 2.3284 -1.1099 0
M  V30 30 C -3.3671 -1.0108 3.4294 0
M  V30 31 H 3.6393 -3.1481 -2.6179 0
M  V30 32 H 2.2918 -3.4356 -1.5229 0
M  V30 33 H 6.4986 -2.117 2.4175 0
M  V30 34 H 5.1645 -3.2261 2.7899 0
M  V30 35 H 2.8891 -0.6361 -2.6742 0
M  V30 36 H 1.9942 -1.8646 -3.5596 0
M  V30 37 H 3.6805 -1.2884 3.3308 0
M  V30 38 H 5.0064 -0.1708 2.9826 0
M  V30 39 H 5.1346 -1.2957 4.3485 0
M  V30 40 H 1.6109 -1.251 0.0836 0
M  V30 41 H 1.8622 0.3252 -0.6326 0
M  V30 42 H 0.0796 -0.638 -3.7626 0
M  V30 43 H 0.8403 0.7303 -2.9675 0
M  V30 44 H -0.6761 -1.0539 0.292 0
M  V30 45 H 0.0489 0.3682 1.028 0
M  V30 46 H -1.6053 0.8748 -2.9321 0
M  V30 47 H -1.75 -0.7142 -2.2126 0
M  V30 48 H -1.1001 2.8683 -1.5523 0
M  V30 49 H -0.7478 2.7246 0.1725 0
M  V30 50 H -2.2341 1.9357 2.1692 0
M  V30 51 H -3.4467 -1.643 0.0893 0
M  V30 52 H -4.9017 1.944 0.7101 0
M  V30 53 H -5.2912 0.4902 -0.2446 0
M  V30 54 H 2.3381 3.7381 -1.3307 0
M  V30 55 H 1.0861 4.2155 -0.1639 0
M  V30 56 H 0.7514 4.2698 -1.9266 0
M  V30 57 H -2.7274 0.8376 4.3336 0
M  V30 58 H -3.9405 -2.7296 2.2613 0
M  V30 59 H -6.9414 2.283 -0.6394 0
M  V30 60 H -6.0427 1.9358 -2.1283 0
M  V30 61 H -5.6569 3.3801 -1.1789 0
M  V30 62 H -3.5808 -1.4914 4.3812 0
M  V30 END ATOM
M  V30 BEGIN BOND
M  V30 1 2 1 2
M  V30 2 1 2 3
M  V30 3 1 2 4
M  V30 4 1 3 5
M  V30 5 1 3 6
M  V30 6 1 4 7
M  V30 7 1 4 8
M  V30 8 1 6 9
M  V30 9 1 8 10
M  V30 10 1 9 11
M  V30 11 1 11 12
M  V30 12 1 11 13
M  V30 13 1 12 14
M  V30 14 1 13 15
M  V30 15 1 14 16
M  V30 16 1 16 17
M  V30 17 1 16 18
M  V30 18 1 17 19
M  V30 19 1 17 20
M  V30 20 1 18 21
M  V30 21 2 19 22
M  V30 22 1 19 23
M  V30 23 2 20 24
M  V30 24 1 20 25
M  V30 25 1 21 26
M  V30 26 1 22 27
M  V30 27 2 23 28
M  V30 28 1 25 29
M  V30 29 2 27 30
M  V30 30 2 5 7
M  V30 31 1 15 16
M  V30 32 1 28 30
M  V30 33 1 6 31
M  V30 34 1 6 32
M  V30 35 1 8 33
M  V30 36 1 8 34
M  V30 37 1 9 35
M  V30 38 1 9 36
M  V30 39 1 10 37
M  V30 40 1 10 38
M  V30 41 1 10 39
M  V30 42 1 12 40
M  V30 43 1 12 41
M  V30 44 1 13 42
M  V30 45 1 13 43
M  V30 46 1 14 44
M  V30 47 1 14 45
M  V30 48 1 15 46
M  V30 49 1 15 47
M  V30 50 1 18 48
M  V30 51 1 18 49
M  V30 52 1 22 50
M  V30 53 1 23 51
M  V30 54 1 25 52
M  V30 55 1 25 53
M  V30 56 1 26 54
M  V30 57 1 26 55
M  V30 58 1 26 56
M  V30 59 1 27 57
M  V30 60 1 28 58
M  V30 61 1 29 59
M  V30 62 1 29 60
M  V30 63 1 29 61
M  V30 64 1 30 62
M  V30 END BOND
M  V30 END CTAB
M  END
>  <Column 1>
1266

>  <level_0>
1409

>  <index>
1409

>  <Unnamed: 0>
1409

>  <NO.>
1421

>  <Name>
trimethoprim

>  <IUPAC_name>
n-[1-[2-(4-ethyl-5-oxotetrazol-1-yl)ethyl]-4-(methoxymethyl)piperidin-4-yl]-n-phenylpropanamide

>  <SMILES>
CCC(=O)N(c1ccccc1)C1(COC)CCN(CCn2nnn(CC)c2=O)CC1

>  <CID>
51263

>  <logBB>


>  <BBB+/BBB->
BBB+

>  <Inchi>
InChI=1S/C21H32N6O3/c1-4-19(28)27(18-9-7-6-8-10-18)21(17-30-3)11-13-24(14-12-21)15-16-26-20(29)25(5-2)22-23-26/h6-10H-4-5-11-17H2-1-3H3

>  <threshold>
-1

>  <reference>
R1|R13|R19|R6|R14|R15|R23|R24|R27|R27|R27|R30|R30|R36|

>  <group>
B

>  <Class>
1

>  <ABC>
22.62

>  <ABCGG>
18.7

>  <nAcid>
2

>  <nBase>
1

>  <nAromAtom>
11

>  <nAromBond>
11

>  <nAtom>
62

>  <nHeavyAtom>
30

>  <nSpiro>
0

>  <nBridgehead>
0

>  <nHetero>
9

>  <nN>
6

>  <nO>
3

>  <nF>
0

>  <BalabanJ>
1.59

>  <BertzCT>
870.37

>  <nBonds>
64

>  <nBondsO>
32

>  <nBondsS>
51

>  <nBondsD>
2

>  <nBondsT>
0

>  <nBondsA>
11

>  <nBondsM>
13

>  <nBondsKS>
58

>  <nBondsKD>
6

>  <RNCG>
0.16

>  <RPCG>
0.15

>  <FCSP3>
0.62

>  <SZ>
37.33

>  <Sm>
34.68

>  <Sv>
36.36

>  <Sse>
62.18

>  <Sp>
39.17

>  <Si>
71.02

>  <MZ>
0.6

>  <Mm>
0.56

>  <Mv>
0.59

>  <Mse>
1

>  <Mp>
0.63

>  <Mi>
1.15

>  <NsCH3>
3

>  <NdCH2>
0

>  <NssCH2>
9

>  <NtCH>
0

>  <NdsCH>
0

>  <NaaCH>
5

>  <NsssCH>
0

>  <NddC>
0

>  <NtsC>
0

>  <NdssC>
1

>  <NaasC>
1

>  <NaaaC>
0

>  <NssssC>
1

>  <NsNH3>
0

>  <NsNH2>
0

>  <NssNH2>
0

>  <NdNH>
0

>  <NssNH>
0

>  <NaaNH>
0

>  <NtN>
0

>  <NsssNH>
0

>  <NdsN>
0

>  <NaaN>
2

>  <NsssN>
2

>  <NddsN>
0

>  <NaasN>
2

>  <NssssN>
0

>  <NsOH>
0

>  <NdO>
2

>  <NssO>
1

>  <NaaO>
0

>  <NsF>
0

>  <NsSiH3>
0

>  <NssSiH2>
0

>  <NsssSiH>
0

>  <NssssSi>
0

>  <NsPH2>
0

>  <NssPH>
0

>  <NsssP>
0

>  <NdsssP>
0

>  <NsssssP>
0

>  <NsSH>
0

>  <NdS>
0

>  <NssS>
0

>  <NaaS>
0

>  <NdssS>
0

>  <NddssS>
0

>  <NsCl>
0

>  <NsBr>
0

>  <NsI>
0

>  <fragCpx>
154.09

>  <fMF>
0.32

>  <nHBAcc>
8

>  <nHBDon>
0

>  <Kier1>
24.64

>  <Kier2>
11.74

>  <Lipinski>
1

>  <GhoseFilter>
1

>  <FilterItLogS>
-3.34

>  <VMcGowan>
325.86

>  <LabuteASA>
176.74

>  <PEOE_VSA1>
14.54

>  <PEOE_VSA2>
4.79

>  <PEOE_VSA3>
4.79

>  <PEOE_VSA4>
9.36

>  <PEOE_VSA5>
0

>  <PEOE_VSA6>
25.12

>  <PEOE_VSA7>
42.32

>  <PEOE_VSA8>
45.4

>  <PEOE_VSA9>
18.69

>  <PEOE_VSA10>
0

>  <PEOE_VSA11>
0

>  <PEOE_VSA12>
5.91

>  <PEOE_VSA13>
0

>  <SMR_VSA1>
9.53

>  <SMR_VSA2>
0

>  <SMR_VSA3>
24.69

>  <SMR_VSA4>
0

>  <SMR_VSA5>
51.74

>  <SMR_VSA6>
38.25

>  <SMR_VSA7>
40.82

>  <SMR_VSA8>
0

>  <SMR_VSA9>
0

>  <SlogP_VSA1>
10.59

>  <SlogP_VSA2>
69.49

>  <SlogP_VSA3>
22.62

>  <SlogP_VSA4>
0

>  <SlogP_VSA5>
33.11

>  <SlogP_VSA6>
35.13

>  <SlogP_VSA7>
0

>  <SlogP_VSA8>
0

>  <SlogP_VSA9>
0

>  <SlogP_VSA10>
5.69

>  <SlogP_VSA11>
0

>  <EState_VSA1>
0

>  <EState_VSA2>
17.14

>  <EState_VSA3>
26.12

>  <EState_VSA4>
38.16

>  <EState_VSA5>
9.36

>  <EState_VSA6>
7.11

>  <EState_VSA7>
49.08

>  <EState_VSA8>
15.33

>  <EState_VSA9>
4.74

>  <EState_VSA10>
9.59

>  <VSA_EState1>
8.37

>  <VSA_EState2>
29.35

>  <VSA_EState3>
7.82

>  <VSA_EState4>
0.37

>  <VSA_EState5>
0.11

>  <VSA_EState6>
9.85

>  <VSA_EState7>
2.05

>  <VSA_EState8>
7.64

>  <VSA_EState9>
1.69

>  <apol>
65.41

>  <bpol>
41.27

>  <nRing>
3

>  <nHRing>
2

>  <naRing>
2

>  <naHRing>
1

>  <nARing 2>
1

>  <nAHRing 2>
1

>  <nFRing>
0

>  <nFHRing>
0

>  <nFaRing>
0

>  <nFaHRing>
0

>  <nFARing 2>
0

>  <nFAHRing 2>
0

>  <nRot>
9

>  <SLogP>
1.38

>  <SMR>
114.46

>  <TopoPSA(NO)>
85.49

>  <TopoPSA>
85.49

>  <JGI1>
0.19

>  <JGI2>
0.1

>  <JGI3>
0.06

>  <JGI4>
0.04

>  <JGI5>
0.02

>  <Diameter>
15

>  <Radius>
8

>  <TMWC10>
139.08

>  <TSRW10>
79.53

>  <MW>
416.25

>  <AMW>
6.71

>  <WPath>
2599

>  <WPol>
49

>  <Zagreb1>
152

>  <Zagreb2>
180

>  <mZagreb2>
6.99

>  <yes>


>  <nAR-cont>
0.816016

>  <nHA-cont>
0.74523694

>  <MWHBN>
0.392114465

>  <MWHBN-cont>
0.507129161

>  <TPSA-cont>
0.403226714

>  <pka_cont>
0.97

>  <yes.1>


>  <BBB_SCORE>
3.613400109

>  <MMFF94 Energy>
34.725

$$$$
Compound 1063
Actelion Java MolfileCreator 2.0

  0  0  0  0  0  0              0 V3000
M  V30 BEGIN CTAB
M  V30 COUNTS 62 64 0 0 0
M  V30 BEGIN ATOM
M  V30 1 O -0.5549 1.745 -1.9831 0
M  V30 2 C -0.0106 1.8752 -0.891 0
M  V30 3 O -0.1104 3.009 -0.1311 0
M  V30 4 C 0.9417 0.8157 -0.2266 0 CFG=2
M  V30 5 C -0.9193 4.0325 -0.7122 0
M  V30 6 N 2.3845 1.2092 -0.5446 0
M  V30 7 C 0.5636 -0.5818 -0.8316 0 CFG=2
M  V30 8 C 0.621 0.7968 1.2931 0
M  V30 9 C 2.6067 1.9443 -1.7433 0
M  V30 10 C 3.4842 0.7802 0.2129 0
M  V30 11 C -0.886 -0.9679 -0.4462 0
M  V30 12 C 1.5184 -1.7241 -0.4534 0
M  V30 13 C -0.8231 0.3738 1.5739 0
M  V30 14 C 2.7469 3.3352 -1.6838 0
M  V30 15 C 2.6986 1.2826 -2.9701 0
M  V30 16 O 3.38 0.0932 1.2285 0
M  V30 17 C 4.8739 1.2025 -0.2709 0
M  V30 18 N -1.105 -0.9522 1.0062 0
M  V30 19 C 2.9698 4.0625 -2.8526 0
M  V30 20 C 2.9211 2.0143 -4.1369 0
M  V30 21 C 5.9888 0.6517 0.6052 0
M  V30 22 C -2.4772 -1.3695 1.3662 0
M  V30 23 C 3.0553 3.4019 -4.078 0
M  V30 24 C -2.7523 -2.8615 1.1117 0
M  V30 25 C -4.1153 -3.2679 1.6225 0
M  V30 26 C -4.2666 -3.7631 2.9246 0
M  V30 27 C -5.2494 -3.1275 0.8112 0
M  V30 28 C -5.5283 -4.1197 3.4027 0
M  V30 29 C -6.5101 -3.4848 1.2915 0
M  V30 30 C -6.6493 -3.9811 2.5864 0
M  V30 31 H -0.9238 4.8876 -0.0307 0
M  V30 32 H -0.501 4.3562 -1.6703 0
M  V30 33 H -1.9489 3.6824 -0.8353 0
M  V30 34 H 0.5904 -0.5174 -1.9272 0
M  V30 35 H 1.2543 0.0883 1.8323 0
M  V30 36 H 0.8172 1.7739 1.7513 0
M  V30 37 H -1.0757 -1.9696 -0.8475 0
M  V30 38 H -1.6052 -0.306 -0.9435 0
M  V30 39 H 1.1717 -2.6701 -0.8848 0
M  V30 40 H 1.5917 -1.8668 0.6281 0
M  V30 41 H 2.5217 -1.5508 -0.8524 0
M  V30 42 H -0.9488 0.34 2.6636 0
M  V30 43 H -1.5327 1.1214 1.1989 0
M  V30 44 H 2.6796 3.8554 -0.7315 0
M  V30 45 H 2.6035 0.2024 -3.0282 0
M  V30 46 H 4.9379 2.2951 -0.2654 0
M  V30 47 H 5.0271 0.8399 -1.2921 0
M  V30 48 H 3.0752 5.1434 -2.8095 0
M  V30 49 H 2.9877 1.5025 -5.0936 0
M  V30 50 H 6.964 0.9728 0.2262 0
M  V30 51 H 5.9718 -0.4429 0.6212 0
M  V30 52 H 5.8901 1.0055 1.6368 0
M  V30 53 H -3.2178 -0.7508 0.8415 0
M  V30 54 H -2.6291 -1.1877 2.4391 0
M  V30 55 H 3.2261 3.969 -4.9899 0
M  V30 56 H -2.6989 -3.0989 0.0432 0
M  V30 57 H -1.9836 -3.475 1.5991 0
M  V30 58 H -3.4007 -3.8736 3.5738 0
M  V30 59 H -5.1565 -2.74 -0.2007 0
M  V30 60 H -5.6361 -4.5056 4.413 0
M  V30 61 H -7.3843 -3.3761 0.6549 0
M  V30 62 H -7.6312 -4.2598 2.9594 0
M  V30 END ATOM
M  V30 BEGIN BOND
M  V30 1 2 1 2
M  V30 2 1 2 3
M  V30 3 1 2 4
M  V30 4 1 3 5
M  V30 5 1 4 6
M  V30 6 1 4 7
M  V30 7 1 4 8
M  V30 8 1 6 9
M  V30 9 1 6 10
M  V30 10 1 7 11
M  V30 11 1 7 12
M  V30 12 1 8 13
M  V30 13 2 9 14
M  V30 14 1 9 15
M  V30 15 2 10 16
M  V30 16 1 10 17
M  V30 17 1 11 18
M  V30 18 1 14 19
M  V30 19 2 15 20
M  V30 20 1 17 21
M  V30 21 1 18 22
M  V30 22 2 19 23
M  V30 23 1 22 24
M  V30 24 1 24 25
M  V30 25 2 25 26
M  V30 26 1 25 27
M  V30 27 1 26 28
M  V30 28 2 27 29
M  V30 29 2 28 30
M  V30 30 1 13 18
M  V30 31 1 20 23
M  V30 32 1 29 30
M  V30 33 1 5 31
M  V30 34 1 5 32
M  V30 35 1 5 33
M  V30 36 1 7 34
M  V30 37 1 8 35
M  V30 38 1 8 36
M  V30 39 1 11 37
M  V30 40 1 11 38
M  V30 41 1 12 39
M  V30 42 1 12 40
M  V30 43 1 12 41
M  V30 44 1 13 42
M  V30 45 1 13 43
M  V30 46 1 14 44
M  V30 47 1 15 45
M  V30 48 1 17 46
M  V30 49 1 17 47
M  V30 50 1 19 48
M  V30 51 1 20 49
M  V30 52 1 21 50
M  V30 53 1 21 51
M  V30 54 1 21 52
M  V30 55 1 22 53
M  V30 56 1 22 54
M  V30 57 1 23 55
M  V30 58 1 24 56
M  V30 59 1 24 57
M  V30 60 1 26 58
M  V30 61 1 27 59
M  V30 62 1 28 60
M  V30 63 1 29 61
M  V30 64 1 30 62
M  V30 END BOND
M  V30 BEGIN COLLECTION
M  V30 MDLV30/STEABS ATOMS=(2 4 7)
M  V30 END COLLECTION
M  V30 END CTAB
M  END
>  <Column 1>
1267

>  <level_0>
1410

>  <index>
1410

>  <Unnamed: 0>
1410

>  <NO.>
1422

>  <Name>
lofentanil

>  <IUPAC_name>
methyl (3s-4r)-3-methyl-1-(2-phenylethyl)-4-(n-propanoylanilino)piperidine-4-carboxylate

>  <SMILES>
CCC(=O)N(c1ccccc1)[C@]1(C(=O)OC)CCN(CCc2ccccc2)C[C@@H]1C

>  <CID>
65499

>  <logBB>


>  <BBB+/BBB->
BBB+

>  <Inchi>
InChI=1S/C25H32N2O3/c1-4-23(28)27(22-13-9-6-10-14-22)25(24(29)30-3)16-18-26(19-20(25)2)17-15-21-11-7-5-8-12-21/h5-14-20H-4-15-19H2-1-3H3/t20--25+/m0/s1

>  <threshold>
-1

>  <reference>
R1|R24|R27|R27|R30|R30|

>  <group>
B

>  <Class>
1

>  <ABC>
22.69

>  <ABCGG>
18.67

>  <nAcid>
0

>  <nBase>
1

>  <nAromAtom>
12

>  <nAromBond>
12

>  <nAtom>
62

>  <nHeavyAtom>
30

>  <nSpiro>
0

>  <nBridgehead>
0

>  <nHetero>
5

>  <nN>
2

>  <nO>
3

>  <nF>
0

>  <BalabanJ>
1.73

>  <BertzCT>
839.99

>  <nBonds>
64

>  <nBondsO>
32

>  <nBondsS>
50

>  <nBondsD>
2

>  <nBondsT>
0

>  <nBondsA>
12

>  <nBondsM>
14

>  <nBondsKS>
56

>  <nBondsKD>
8

>  <RNCG>
0.2

>  <RPCG>
0.14

>  <FCSP3>
0.44

>  <SZ>
36.67

>  <Sm>
34.01

>  <Sv>
37.33

>  <Sse>
61.52

>  <Sp>
40.53

>  <Si>
69.85

>  <MZ>
0.59

>  <Mm>
0.55

>  <Mv>
0.6

>  <Mse>
0.99

>  <Mp>
0.65

>  <Mi>
1.13

>  <NsCH3>
3

>  <NdCH2>
0

>  <NssCH2>
6

>  <NtCH>
0

>  <NdsCH>
0

>  <NaaCH>
10

>  <NsssCH>
1

>  <NddC>
0

>  <NtsC>
0

>  <NdssC>
2

>  <NaasC>
2

>  <NaaaC>
0

>  <NssssC>
1

>  <NsNH3>
0

>  <NsNH2>
0

>  <NssNH2>
0

>  <NdNH>
0

>  <NssNH>
0

>  <NaaNH>
0

>  <NtN>
0

>  <NsssNH>
0

>  <NdsN>
0

>  <NaaN>
0

>  <NsssN>
2

>  <NddsN>
0

>  <NaasN>
0

>  <NssssN>
0

>  <NsOH>
0

>  <NdO>
2

>  <NssO>
1

>  <NaaO>
0

>  <NsF>
0

>  <NsSiH3>
0

>  <NssSiH2>
0

>  <NsssSiH>
0

>  <NssssSi>
0

>  <NsPH2>
0

>  <NssPH>
0

>  <NsssP>
0

>  <NdsssP>
0

>  <NsssssP>
0

>  <NsSH>
0

>  <NdS>
0

>  <NssS>
0

>  <NaaS>
0

>  <NdssS>
0

>  <NddssS>
0

>  <NsCl>
0

>  <NsBr>
0

>  <NsI>
0

>  <fragCpx>
154.05

>  <fMF>
0.34

>  <nHBAcc>
4

>  <nHBDon>
0

>  <Kier1>
24.64

>  <Kier2>
11.74

>  <Lipinski>
1

>  <GhoseFilter>
1

>  <FilterItLogS>
-5.15

>  <VMcGowan>
333.7

>  <LabuteASA>
179.18

>  <PEOE_VSA1>
9.64

>  <PEOE_VSA2>
9.69

>  <PEOE_VSA3>
4.79

>  <PEOE_VSA4>
0

>  <PEOE_VSA5>
0

>  <PEOE_VSA6>
62.38

>  <PEOE_VSA7>
30.54

>  <PEOE_VSA8>
37.66

>  <PEOE_VSA9>
7.11

>  <PEOE_VSA10>
5.54

>  <PEOE_VSA11>
0

>  <PEOE_VSA12>
5.91

>  <PEOE_VSA13>
0

>  <SMR_VSA1>
14.33

>  <SMR_VSA2>
0

>  <SMR_VSA3>
4.9

>  <SMR_VSA4>
5.92

>  <SMR_VSA5>
38.65

>  <SMR_VSA6>
31.64

>  <SMR_VSA7>
66.23

>  <SMR_VSA8>
0

>  <SMR_VSA9>
0

>  <SlogP_VSA1>
4.9

>  <SlogP_VSA2>
49.06

>  <SlogP_VSA3>
20.75

>  <SlogP_VSA4>
5.92

>  <SlogP_VSA5>
32.25

>  <SlogP_VSA6>
60.66

>  <SlogP_VSA7>
0

>  <SlogP_VSA8>
0

>  <SlogP_VSA9>
0

>  <SlogP_VSA10>
5.69

>  <SlogP_VSA11>
0

>  <EState_VSA1>
5.54

>  <EState_VSA2>
17.79

>  <EState_VSA3>
12.84

>  <EState_VSA4>
31.74

>  <EState_VSA5>
12.67

>  <EState_VSA6>
4.9

>  <EState_VSA7>
43.32

>  <EState_VSA8>
36.09

>  <EState_VSA9>
4.74

>  <EState_VSA10>
9.59

>  <VSA_EState1>
5.27

>  <VSA_EState2>
30.36

>  <VSA_EState3>
0

>  <VSA_EState4>
1.06

>  <VSA_EState5>
-0.45

>  <VSA_EState6>
19.94

>  <VSA_EState7>
1.85

>  <VSA_EState8>
6.31

>  <VSA_EState9>
1.41

>  <apol>
67.69

>  <bpol>
38.99

>  <nRing>
3

>  <nHRing>
1

>  <naRing>
2

>  <naHRing>
0

>  <nARing 2>
1

>  <nAHRing 2>
1

>  <nFRing>
0

>  <nFHRing>
0

>  <nFaRing>
0

>  <nFaHRing>
0

>  <nFARing 2>
0

>  <nFAHRing 2>
0

>  <nRot>
7

>  <SLogP>
3.93

>  <SMR>
119.33

>  <TopoPSA(NO)>
49.85

>  <TopoPSA>
49.85

>  <JGI1>
0.19

>  <JGI2>
0.09

>  <JGI3>
0.06

>  <JGI4>
0.05

>  <JGI5>
0.02

>  <Diameter>
14

>  <Radius>
7

>  <TMWC10>
139.49

>  <TSRW10>
65.77

>  <MW>
408.24

>  <AMW>
6.58

>  <WPath>
2419

>  <WPol>
52

>  <Zagreb1>
152

>  <Zagreb2>
181

>  <mZagreb2>
6.93

>  <yes>


>  <nAR-cont>
0.816016

>  <nHA-cont>
0.74523694

>  <MWHBN>
0.19797129

>  <MWHBN-cont>
0.999164261

>  <TPSA-cont>
0.652016045

>  <pka_cont>
0.97

>  <yes.1>


>  <BBB_SCORE>
4.849031421

>  <MMFF94 Energy>
69.891

$$$$
Compound 1064
Actelion Java MolfileCreator 2.0

  0  0  0  0  0  0              0 V3000
M  V30 BEGIN CTAB
M  V30 COUNTS 65 68 0 0 0
M  V30 BEGIN ATOM
M  V30 1 F -1.6753 -1.9148 -2.8733 0
M  V30 2 C -1.3507 -2.9845 -2.1325 0
M  V30 3 C -1.255 -2.8768 -0.7385 0
M  V30 4 C -1.1424 -4.1998 -2.7788 0
M  V30 5 N -1.4764 -1.621 -0.0824 0
M  V30 6 C -0.9857 -4.0307 0.0058 0
M  V30 7 C -0.8468 -5.3368 -2.03 0
M  V30 8 C -2.7951 -1.196 0.1469 0
M  V30 9 C -0.2508 -0.9272 0.5308 0
M  V30 10 C -0.7751 -5.253 -0.6392 0
M  V30 11 O -3.0812 -0.162 0.7518 0
M  V30 12 C -3.9243 -2.078 -0.3929 0
M  V30 13 C 0.0422 -1.5846 1.9162 0
M  V30 14 C 0.9838 -1.0114 -0.4326 0
M  V30 15 C -0.409 0.607 0.7822 0
M  V30 16 C -5.3016 -1.5809 0.0214 0
M  V30 17 C -0.8846 -1.4514 2.9706 0
M  V30 18 C 1.1989 -2.3455 2.1721 0
M  V30 19 C 0.8403 -0.1443 -1.6859 0
M  V30 20 C -0.561 1.4147 -0.5037 0
M  V30 21 C -0.6635 -2.0411 4.2181 0
M  V30 22 C 1.4198 -2.9356 3.4213 0
M  V30 23 N 0.6347 1.2661 -1.3444 0
M  V30 24 C 0.4897 -2.783 4.4437 0
M  V30 25 C 0.5507 2.0856 -2.5715 0
M  V30 26 C 0.6392 3.6074 -2.3482 0
M  V30 27 N 1.8457 3.9987 -1.6665 0
M  V30 28 N 3.0756 3.9801 -2.2652 0
M  V30 29 C 1.9747 4.3592 -0.3416 0
M  V30 30 N 3.9533 4.3159 -1.4103 0
M  V30 31 O 1.1081 4.5006 0.5037 0
M  V30 32 N 3.3364 4.5471 -0.2119 0
M  V30 33 C 4.0472 4.9719 0.9627 0
M  V30 34 C 4.3234 6.4648 0.9424 0
M  V30 35 H -1.221 -4.2527 -3.8601 0
M  V30 36 H -0.9542 -3.9997 1.0916 0
M  V30 37 H -0.6855 -6.2903 -2.527 0
M  V30 38 H -0.5619 -6.1432 -0.0512 0
M  V30 39 H -3.8018 -3.0989 -0.018 0
M  V30 40 H -3.8775 -2.0878 -1.4857 0
M  V30 41 H 1.8842 -0.6627 0.0947 0
M  V30 42 H 1.2022 -2.0412 -0.7366 0
M  V30 43 H -1.2284 0.8553 1.4615 0
M  V30 44 H 0.4857 0.9746 1.3096 0
M  V30 45 H -6.079 -2.2413 -0.3748 0
M  V30 46 H -5.4866 -0.5706 -0.358 0
M  V30 47 H -5.3982 -1.5545 1.1118 0
M  V30 48 H -1.8 -0.8782 2.8353 0
M  V30 49 H 1.954 -2.5069 1.4083 0
M  V30 50 H 0.0298 -0.5051 -2.3223 0
M  V30 51 H 1.7668 -0.247 -2.2646 0
M  V30 52 H -1.465 1.1172 -1.0482 0
M  V30 53 H -0.6923 2.4621 -0.2138 0
M  V30 54 H -1.395 -1.9142 5.0122 0
M  V30 55 H 2.3234 -3.5149 3.5935 0
M  V30 56 H 0.6641 -3.2385 5.4145 0
M  V30 57 H -0.3702 1.857 -3.1231 0
M  V30 58 H 1.3854 1.8128 -3.231 0
M  V30 59 H -0.2237 3.9665 -1.7783 0
M  V30 60 H 0.6247 4.1197 -3.3169 0
M  V30 61 H 4.9843 4.4088 1.0225 0
M  V30 62 H 3.4447 4.727 1.8441 0
M  V30 63 H 3.3904 7.0354 0.8863 0
M  V30 64 H 4.9348 6.7399 0.0768 0
M  V30 65 H 4.8569 6.7667 1.8488 0
M  V30 END ATOM
M  V30 BEGIN BOND
M  V30 1 1 1 2
M  V30 2 2 2 3
M  V30 3 1 2 4
M  V30 4 1 3 5
M  V30 5 1 3 6
M  V30 6 2 4 7
M  V30 7 1 5 8
M  V30 8 1 5 9
M  V30 9 2 6 10
M  V30 10 2 8 11
M  V30 11 1 8 12
M  V30 12 1 9 13
M  V30 13 1 9 14
M  V30 14 1 9 15
M  V30 15 1 12 16
M  V30 16 2 13 17
M  V30 17 1 13 18
M  V30 18 1 14 19
M  V30 19 1 15 20
M  V30 20 1 17 21
M  V30 21 2 18 22
M  V30 22 1 19 23
M  V30 23 2 21 24
M  V30 24 1 23 25
M  V30 25 1 25 26
M  V30 26 1 26 27
M  V30 27 1 27 28
M  V30 28 1 27 29
M  V30 29 2 28 30
M  V30 30 2 29 31
M  V30 31 1 29 32
M  V30 32 1 32 33
M  V30 33 1 33 34
M  V30 34 1 7 10
M  V30 35 1 20 23
M  V30 36 1 22 24
M  V30 37 1 30 32
M  V30 38 1 4 35
M  V30 39 1 6 36
M  V30 40 1 7 37
M  V30 41 1 10 38
M  V30 42 1 12 39
M  V30 43 1 12 40
M  V30 44 1 14 41
M  V30 45 1 14 42
M  V30 46 1 15 43
M  V30 47 1 15 44
M  V30 48 1 16 45
M  V30 49 1 16 46
M  V30 50 1 16 47
M  V30 51 1 17 48
M  V30 52 1 18 49
M  V30 53 1 19 50
M  V30 54 1 19 51
M  V30 55 1 20 52
M  V30 56 1 20 53
M  V30 57 1 21 54
M  V30 58 1 22 55
M  V30 59 1 24 56
M  V30 60 1 25 57
M  V30 61 1 25 58
M  V30 62 1 26 59
M  V30 63 1 26 60
M  V30 64 1 33 61
M  V30 65 1 33 62
M  V30 66 1 34 63
M  V30 67 1 34 64
M  V30 68 1 34 65
M  V30 END BOND
M  V30 END CTAB
M  END
>  <Column 1>
1268

>  <level_0>
1411

>  <index>
1411

>  <Unnamed: 0>
1411

>  <NO.>
1423

>  <Name>
trefentanil

>  <IUPAC_name>
n-[1-[2-(4-ethyl-5-oxotetrazol-1-yl)ethyl]-4-phenylpiperidin-4-yl]-n-(2-fluorophenyl)propanamide;hydron;chloride

>  <SMILES>
CCC(=O)N(c1ccccc1F)C1(c2ccccc2)CCN(CCn2nnn(CC)c2=O)CC1

>  <CID>
60728

>  <logBB>


>  <BBB+/BBB->
BBB+

>  <Inchi>
InChI=1S/C25H31FN6O2/c1-3-23(33)32(22-13-9-8-12-21(22)26)25(20-10-6-5-7-11-20)14-16-29(17-15-25)18-19-31-24(34)30(4-2)27-28-31/h5-13H-3-4-14-19H2-1-2H3

>  <threshold>
-1

>  <reference>
R1|R13|R19|R6|R24|R27|R27|R27|R30|R30|

>  <group>
B

>  <Class>
1

>  <ABC>
26.17

>  <ABCGG>
21.06

>  <nAcid>
2

>  <nBase>
1

>  <nAromAtom>
17

>  <nAromBond>
17

>  <nAtom>
65

>  <nHeavyAtom>
34

>  <nSpiro>
0

>  <nBridgehead>
0

>  <nHetero>
9

>  <nN>
6

>  <nO>
2

>  <nF>
1

>  <BalabanJ>
1.47

>  <BertzCT>
1167.4

>  <nBonds>
68

>  <nBondsO>
37

>  <nBondsS>
49

>  <nBondsD>
2

>  <nBondsT>
0

>  <nBondsA>
17

>  <nBondsM>
19

>  <nBondsKS>
59

>  <nBondsKD>
9

>  <RNCG>
0.12

>  <RPCG>
0.15

>  <FCSP3>
0.44

>  <SZ>
41.33

>  <Sm>
38.84

>  <Sv>
40.02

>  <Sse>
65.36

>  <Sp>
42.62

>  <Si>
74.15

>  <MZ>
0.64

>  <Mm>
0.6

>  <Mv>
0.62

>  <Mse>
1.01

>  <Mp>
0.66

>  <Mi>
1.14

>  <NsCH3>
2

>  <NdCH2>
0

>  <NssCH2>
8

>  <NtCH>
0

>  <NdsCH>
0

>  <NaaCH>
9

>  <NsssCH>
0

>  <NddC>
0

>  <NtsC>
0

>  <NdssC>
1

>  <NaasC>
3

>  <NaaaC>
0

>  <NssssC>
1

>  <NsNH3>
0

>  <NsNH2>
0

>  <NssNH2>
0

>  <NdNH>
0

>  <NssNH>
0

>  <NaaNH>
0

>  <NtN>
0

>  <NsssNH>
0

>  <NdsN>
0

>  <NaaN>
2

>  <NsssN>
2

>  <NddsN>
0

>  <NaasN>
2

>  <NssssN>
0

>  <NsOH>
0

>  <NdO>
2

>  <NssO>
0

>  <NaaO>
0

>  <NsF>
1

>  <NsSiH3>
0

>  <NssSiH2>
0

>  <NsssSiH>
0

>  <NssssSi>
0

>  <NsPH2>
0

>  <NssPH>
0

>  <NsssP>
0

>  <NdsssP>
0

>  <NsssssP>
0

>  <NsSH>
0

>  <NdS>
0

>  <NssS>
0

>  <NaaS>
0

>  <NdssS>
0

>  <NddssS>
0

>  <NsCl>
0

>  <NsBr>
0

>  <NsI>
0

>  <fragCpx>
247.09

>  <fMF>
0.4

>  <nHBAcc>
7

>  <nHBDon>
0

>  <Kier1>
27.05

>  <Kier2>
12.5

>  <Lipinski>
1

>  <GhoseFilter>
1

>  <FilterItLogS>
-4.95

>  <VMcGowan>
354.35

>  <LabuteASA>
198.12

>  <PEOE_VSA1>
4.9

>  <PEOE_VSA2>
9.69

>  <PEOE_VSA3>
9.18

>  <PEOE_VSA4>
9.36

>  <PEOE_VSA5>
0

>  <PEOE_VSA6>
49.39

>  <PEOE_VSA7>
47.89

>  <PEOE_VSA8>
32.6

>  <PEOE_VSA9>
17.77

>  <PEOE_VSA10>
5.82

>  <PEOE_VSA11>
0

>  <PEOE_VSA12>
5.91

>  <PEOE_VSA13>
0

>  <SMR_VSA1>
9.18

>  <SMR_VSA2>
0

>  <SMR_VSA3>
24.69

>  <SMR_VSA4>
0

>  <SMR_VSA5>
51.74

>  <SMR_VSA6>
24.53

>  <SMR_VSA7>
76.46

>  <SMR_VSA8>
0

>  <SMR_VSA9>
0

>  <SlogP_VSA1>
10.59

>  <SlogP_VSA2>
50.23

>  <SlogP_VSA3>
23.42

>  <SlogP_VSA4>
5.82

>  <SlogP_VSA5>
38.67

>  <SlogP_VSA6>
59.39

>  <SlogP_VSA7>
0

>  <SlogP_VSA8>
0

>  <SlogP_VSA9>
0

>  <SlogP_VSA10>
10.08

>  <SlogP_VSA11>
0

>  <EState_VSA1>
11.36

>  <EState_VSA2>
18.02

>  <EState_VSA3>
51.25

>  <EState_VSA4>
5.56

>  <EState_VSA5>
15.43

>  <EState_VSA6>
23.1

>  <EState_VSA7>
44.18

>  <EState_VSA8>
15.33

>  <EState_VSA9>
0

>  <EState_VSA10>
13.98

>  <VSA_EState1>
17.7

>  <VSA_EState2>
29.49

>  <VSA_EState3>
7.83

>  <VSA_EState4>
0.45

>  <VSA_EState5>
-0.51

>  <VSA_EState6>
16.41

>  <VSA_EState7>
1.57

>  <VSA_EState8>
6.65

>  <VSA_EState9>
0

>  <apol>
71.18

>  <bpol>
39.65

>  <nRing>
4

>  <nHRing>
2

>  <naRing>
3

>  <naHRing>
1

>  <nARing 2>
1

>  <nAHRing 2>
1

>  <nFRing>
0

>  <nFHRing>
0

>  <nFaRing>
0

>  <nFaHRing>
0

>  <nFARing 2>
0

>  <nFAHRing 2>
0

>  <nRot>
8

>  <SLogP>
3.03

>  <SMR>
127.93

>  <TopoPSA(NO)>
76.26

>  <TopoPSA>
76.26

>  <JGI1>
0.18

>  <JGI2>
0.1

>  <JGI3>
0.06

>  <JGI4>
0.04

>  <JGI5>
0.02

>  <Diameter>
15

>  <Radius>
8

>  <TMWC10>
150.05

>  <TSRW10>
84.45

>  <MW>
466.25

>  <AMW>
7.17

>  <WPath>
3432

>  <WPol>
59

>  <Zagreb1>
178

>  <Zagreb2>
214

>  <mZagreb2>
7.72

>  <yes>


>  <nAR-cont>
0.816016

>  <nHA-cont>
0.568589513

>  <MWHBN>
0.324181791

>  <MWHBN-cont>
0.762995561

>  <TPSA-cont>
0.467657845

>  <pka_cont>
0.97

>  <yes.1>


>  <BBB_SCORE>
3.949414545

>  <MMFF94 Energy>
47.731

$$$$
Compound 1065
Actelion Java MolfileCreator 2.0

  0  0  0  0  0  0              0 V3000
M  V30 BEGIN CTAB
M  V30 COUNTS 56 60 0 0 0
M  V30 BEGIN ATOM
M  V30 1 Cl -4.5469 2.2302 1.4863 0
M  V30 2 C -3.9584 2.2503 -0.1247 0
M  V30 3 N -2.6384 2.0142 -0.2367 0
M  V30 4 C -4.8107 2.488 -1.184 0
M  V30 5 C -2.1049 2.008 -1.4548 0
M  V30 6 C -4.2595 2.4774 -2.4555 0
M  V30 7 N -0.7999 1.7703 -1.5524 0
M  V30 8 C -2.8872 2.2299 -2.601 0
M  V30 9 C -0.196 1.6953 -2.7592 0
M  V30 10 C -2.2666 2.1893 -3.8518 0
M  V30 11 N 1.1775 1.3857 -2.7589 0
M  V30 12 C -0.9053 1.9147 -3.9304 0
M  V30 13 C 1.9579 1.0254 -3.8411 0
M  V30 14 C 1.9353 1.3964 -1.5301 0 CFG=1
M  V30 15 O 1.6257 0.8935 -5.0077 0
M  V30 16 C 3.3403 0.8181 -3.3334 0
M  V30 17 O 1.448 0.3685 -0.6743 0
M  V30 18 C 3.3186 1.0445 -2.0165 0
M  V30 19 S 4.627 0.4027 -4.3739 0
M  V30 20 C 1.2765 0.7621 0.613 0
M  V30 21 S 4.6632 0.966 -0.9319 0
M  V30 22 C 5.9095 -0.077 -3.1824 0
M  V30 23 O 1.766 1.7786 1.0917 0
M  V30 24 N 0.4825 -0.1119 1.3263 0
M  V30 25 C 6.075 0.9543 -2.0761 0
M  V30 26 C -0.2286 -1.2294 0.7007 0
M  V30 27 C 0.1779 0.1777 2.7235 0
M  V30 28 C -1.5032 -1.6146 1.4605 0
M  V30 29 C -0.1932 -1.0796 3.5186 0
M  V30 30 N -1.2438 -1.8837 2.8796 0
M  V30 31 C -1.9823 -2.8665 3.5237 0
M  V30 32 O -2.8715 -3.4965 2.9514 0
M  V30 33 C -1.6376 -3.1261 4.983 0
M  V30 34 C -2.3836 -4.3211 5.553 0
M  V30 35 H -5.8676 2.6713 -1.0288 0
M  V30 36 H -4.8924 2.6543 -3.3213 0
M  V30 37 H -2.8306 2.3578 -4.7659 0
M  V30 38 H -0.4377 1.8814 -4.9079 0
M  V30 39 H 1.9007 2.412 -1.114 0
M  V30 40 H 5.6827 -1.0697 -2.7773 0
M  V30 41 H 6.8492 -0.1647 -3.7377 0
M  V30 42 H 6.9644 0.7102 -1.4858 0
M  V30 43 H 6.2267 1.9611 -2.4819 0
M  V30 44 H -0.4778 -0.9881 -0.3374 0
M  V30 45 H 0.4703 -2.074 0.6889 0
M  V30 46 H -0.6641 0.881 2.7223 0
M  V30 47 H 1.0262 0.686 3.1948 0
M  V30 48 H -2.226 -0.7903 1.4253 0
M  V30 49 H -1.9705 -2.482 0.983 0
M  V30 50 H -0.5058 -0.7986 4.5286 0
M  V30 51 H 0.6838 -1.7313 3.6098 0
M  V30 52 H -1.8954 -2.2356 5.5659 0
M  V30 53 H -0.5608 -3.3041 5.0706 0
M  V30 54 H -2.1029 -4.4819 6.5984 0
M  V30 55 H -2.1524 -5.2325 4.9919 0
M  V30 56 H -3.4668 -4.1661 5.5108 0
M  V30 END ATOM
M  V30 BEGIN BOND
M  V30 1 1 1 2
M  V30 2 2 2 3
M  V30 3 1 2 4
M  V30 4 1 3 5
M  V30 5 2 4 6
M  V30 6 2 5 7
M  V30 7 1 5 8
M  V30 8 1 7 9
M  V30 9 2 8 10
M  V30 10 1 9 11
M  V30 11 2 9 12
M  V30 12 1 11 13
M  V30 13 1 11 14
M  V30 14 2 13 15
M  V30 15 1 13 16
M  V30 16 1 14 17
M  V30 17 1 14 18
M  V30 18 1 16 19
M  V30 19 1 17 20
M  V30 20 1 18 21
M  V30 21 1 19 22
M  V30 22 2 20 23
M  V30 23 1 20 24
M  V30 24 1 21 25
M  V30 25 1 24 26
M  V30 26 1 24 27
M  V30 27 1 26 28
M  V30 28 1 27 29
M  V30 29 1 28 30
M  V30 30 1 30 31
M  V30 31 2 31 32
M  V30 32 1 31 33
M  V30 33 1 33 34
M  V30 34 1 6 8
M  V30 35 1 10 12
M  V30 36 2 16 18
M  V30 37 1 22 25
M  V30 38 1 29 30
M  V30 39 1 4 35
M  V30 40 1 6 36
M  V30 41 1 10 37
M  V30 42 1 12 38
M  V30 43 1 14 39
M  V30 44 1 22 40
M  V30 45 1 22 41
M  V30 46 1 25 42
M  V30 47 1 25 43
M  V30 48 1 26 44
M  V30 49 1 26 45
M  V30 50 1 27 46
M  V30 51 1 27 47
M  V30 52 1 28 48
M  V30 53 1 28 49
M  V30 54 1 29 50
M  V30 55 1 29 51
M  V30 56 1 33 52
M  V30 57 1 33 53
M  V30 58 1 34 54
M  V30 59 1 34 55
M  V30 60 1 34 56
M  V30 END BOND
M  V30 BEGIN COLLECTION
M  V30 MDLV30/STERAC1 ATOMS=(1 14)
M  V30 END COLLECTION
M  V30 END CTAB
M  END
>  <Column 1>
1269

>  <level_0>
1412

>  <index>
1412

>  <Unnamed: 0>
1412

>  <NO.>
1424

>  <Name>
suproclone

>  <IUPAC_name>
[6-(7-chloro-1-8-naphthyridin-2-yl)-5-oxo-3-7-dihydro-2h-[1-4]dithiino[2-3-c]pyrrol-7-yl] 4-propanoylpiperazine-1-carboxylate

>  <SMILES>
CCC(=O)N1CCN(C(=O)OC2C3=C(SCCS3)C(=O)N2c2ccc3ccc(Cl)nc3n2)CC1

>  <CID>
53696

>  <logBB>


>  <BBB+/BBB->
BBB+

>  <Inchi>
InChI=1S/C22H22ClN5O4S2/c1-2-16(29)26-7-9-27(10-8-26)22(31)32-21-18-17(33-11-12-34-18)20(30)28(21)15-6-4-13-3-5-14(23)24-19(13)25-15/h3-6-21H-2-7-12H2-1H3

>  <threshold>
-1

>  <reference>
R1|R13|R19|R6|R27|R27|R30|

>  <group>
B

>  <Class>
1

>  <ABC>
26.94

>  <ABCGG>
20.11

>  <nAcid>
0

>  <nBase>
0

>  <nAromAtom>
10

>  <nAromBond>
11

>  <nAtom>
56

>  <nHeavyAtom>
34

>  <nSpiro>
0

>  <nBridgehead>
0

>  <nHetero>
12

>  <nN>
5

>  <nO>
4

>  <nF>
0

>  <BalabanJ>
1.27

>  <BertzCT>
1201.03

>  <nBonds>
60

>  <nBondsO>
38

>  <nBondsS>
45

>  <nBondsD>
4

>  <nBondsT>
0

>  <nBondsA>
11

>  <nBondsM>
15

>  <nBondsKS>
51

>  <nBondsKD>
9

>  <RNCG>
0.14

>  <RPCG>
0.14

>  <FCSP3>
0.41

>  <SZ>
45

>  <Sm>
43.3

>  <Sv>
38.07

>  <Sse>
57.32

>  <Sp>
40.78

>  <Si>
62.85

>  <MZ>
0.8

>  <Mm>
0.77

>  <Mv>
0.68

>  <Mse>
1.02

>  <Mp>
0.73

>  <Mi>
1.12

>  <NsCH3>
1

>  <NdCH2>
0

>  <NssCH2>
7

>  <NtCH>
0

>  <NdsCH>
0

>  <NaaCH>
4

>  <NsssCH>
1

>  <NddC>
0

>  <NtsC>
0

>  <NdssC>
5

>  <NaasC>
2

>  <NaaaC>
2

>  <NssssC>
0

>  <NsNH3>
0

>  <NsNH2>
0

>  <NssNH2>
0

>  <NdNH>
0

>  <NssNH>
0

>  <NaaNH>
0

>  <NtN>
0

>  <NsssNH>
0

>  <NdsN>
0

>  <NaaN>
2

>  <NsssN>
3

>  <NddsN>
0

>  <NaasN>
0

>  <NssssN>
0

>  <NsOH>
0

>  <NdO>
3

>  <NssO>
1

>  <NaaO>
0

>  <NsF>
0

>  <NsSiH3>
0

>  <NssSiH2>
0

>  <NsssSiH>
0

>  <NssssSi>
0

>  <NsPH2>
0

>  <NssPH>
0

>  <NsssP>
0

>  <NdsssP>
0

>  <NsssssP>
0

>  <NsSH>
0

>  <NdS>
0

>  <NssS>
2

>  <NaaS>
0

>  <NdssS>
0

>  <NddssS>
0

>  <NsCl>
1

>  <NsBr>
0

>  <NsI>
0

>  <fragCpx>
322.12

>  <fMF>
0.48

>  <nHBAcc>
8

>  <nHBDon>
0

>  <Kier1>
25.64

>  <Kier2>
11.17

>  <Lipinski>
0

>  <GhoseFilter>
0

>  <FilterItLogS>
-4.2

>  <VMcGowan>
346.16

>  <LabuteASA>
209.38

>  <PEOE_VSA1>
14.54

>  <PEOE_VSA2>
9.59

>  <PEOE_VSA3>
19.66

>  <PEOE_VSA4>
0

>  <PEOE_VSA5>
23.52

>  <PEOE_VSA6>
18.52

>  <PEOE_VSA7>
24.27

>  <PEOE_VSA8>
49.49

>  <PEOE_VSA9>
9.81

>  <PEOE_VSA10>
10.97

>  <PEOE_VSA11>
5.65

>  <PEOE_VSA12>
12.14

>  <PEOE_VSA13>
5.91

>  <SMR_VSA1>
19.12

>  <SMR_VSA2>
0

>  <SMR_VSA3>
19.77

>  <SMR_VSA4>
0

>  <SMR_VSA5>
19.57

>  <SMR_VSA6>
42.58

>  <SMR_VSA7>
39.23

>  <SMR_VSA8>
0

>  <SMR_VSA9>
0

>  <SlogP_VSA1>
4.9

>  <SlogP_VSA2>
81.59

>  <SlogP_VSA3>
14.33

>  <SlogP_VSA4>
0

>  <SlogP_VSA5>
13.34

>  <SlogP_VSA6>
34.08

>  <SlogP_VSA7>
5.15

>  <SlogP_VSA8>
11.03

>  <SlogP_VSA9>
0

>  <SlogP_VSA10>
10.61

>  <SlogP_VSA11>
0

>  <EState_VSA1>
12.32

>  <EState_VSA2>
11.81

>  <EState_VSA3>
54.12

>  <EState_VSA4>
21.8

>  <EState_VSA5>
28.42

>  <EState_VSA6>
21.93

>  <EState_VSA7>
19.06

>  <EState_VSA8>
9.97

>  <EState_VSA9>
16.34

>  <EState_VSA10>
14.38

>  <VSA_EState1>
5.93

>  <VSA_EState2>
53.28

>  <VSA_EState3>
1.09

>  <VSA_EState4>
0.41

>  <VSA_EState5>
1.8

>  <VSA_EState6>
7.02

>  <VSA_EState7>
-0.97

>  <VSA_EState8>
3.52

>  <VSA_EState9>
0

>  <apol>
68.1

>  <bpol>
39.25

>  <nRing>
5

>  <nHRing>
5

>  <naRing>
2

>  <naHRing>
2

>  <nARing 2>
3

>  <nAHRing 2>
3

>  <nFRing>
2

>  <nFHRing>
2

>  <nFaRing>
1

>  <nFaHRing>
1

>  <nFARing 2>
1

>  <nFAHRing 2>
1

>  <nRot>
3

>  <SLogP>
3.34

>  <SMR>
132.69

>  <TopoPSA(NO)>
95.94

>  <TopoPSA>
146.54

>  <JGI1>
0.17

>  <JGI2>
0.08

>  <JGI3>
0.05

>  <JGI4>
0.04

>  <JGI5>
0.03

>  <Diameter>
16

>  <Radius>
8

>  <TMWC10>
151.51

>  <TSRW10>
85.32

>  <MW>
519.08

>  <AMW>
9.27

>  <WPath>
3478

>  <WPol>
60

>  <Zagreb1>
186

>  <Zagreb2>
225

>  <mZagreb2>
7.42

>  <yes>


>  <nAR-cont>
0.691115

>  <nHA-cont>
0.568589513

>  <MWHBN>
0.351133964

>  <MWHBN-cont>
0.666004632

>  <TPSA-cont>
0

>  <pka_cont>
0.97

>  <yes.1>


>  <BBB_SCORE>
2.743711461

>  <MMFF94 Energy>
-43.848

$$$$
Compound 1066
Actelion Java MolfileCreator 2.0

  0  0  0  0  0  0              0 V3000
M  V30 BEGIN CTAB
M  V30 COUNTS 23 23 0 0 0
M  V30 BEGIN ATOM
M  V30 1 O -0.5441 -1.2441 1.7109 0
M  V30 2 C -1.1223 -1.0688 0.6451 0
M  V30 3 N -0.7014 -0.2613 -0.4002 0
M  V30 4 C -2.4426 -1.7502 0.3179 0
M  V30 5 C 0.4678 0.524 -0.4648 0
M  V30 6 C -2.9357 -2.6441 1.4414 0
M  V30 7 C 1.4131 0.6057 0.5607 0
M  V30 8 C 0.6775 1.2616 -1.6383 0
M  V30 9 C 2.5502 1.4099 0.4193 0
M  V30 10 C 1.8116 2.0649 -1.7817 0
M  V30 11 C 2.7392 2.133 -0.7519 0
M  V30 12 O 3.8317 2.9274 -0.93 0
M  V30 13 H -1.3002 -0.2279 -1.2156 0
M  V30 14 H -2.3094 -2.3459 -0.5923 0
M  V30 15 H -3.1906 -0.9763 0.1107 0
M  V30 16 H -3.8852 -3.1137 1.1663 0
M  V30 17 H -3.0918 -2.0702 2.3609 0
M  V30 18 H -2.2125 -3.4369 1.6594 0
M  V30 19 H 1.2965 0.0544 1.4885 0
M  V30 20 H -0.035 1.224 -2.4576 0
M  V30 21 H 3.2674 1.4536 1.233 0
M  V30 22 H 1.9692 2.6344 -2.6931 0
M  V30 23 H 4.3847 2.874 -0.1329 0
M  V30 END ATOM
M  V30 BEGIN BOND
M  V30 1 2 1 2
M  V30 2 1 2 3
M  V30 3 1 2 4
M  V30 4 1 3 5
M  V30 5 1 4 6
M  V30 6 2 5 7
M  V30 7 1 5 8
M  V30 8 1 7 9
M  V30 9 2 8 10
M  V30 10 2 9 11
M  V30 11 1 11 12
M  V30 12 1 10 11
M  V30 13 1 3 13
M  V30 14 1 4 14
M  V30 15 1 4 15
M  V30 16 1 6 16
M  V30 17 1 6 17
M  V30 18 1 6 18
M  V30 19 1 7 19
M  V30 20 1 8 20
M  V30 21 1 9 21
M  V30 22 1 10 22
M  V30 23 1 12 23
M  V30 END BOND
M  V30 END CTAB
M  END
>  <Column 1>
1270

>  <level_0>
1413

>  <index>
1413

>  <Unnamed: 0>
1413

>  <NO.>
1425

>  <Name>
parapropamol

>  <IUPAC_name>
n-(4-hydroxyphenyl)propanamide

>  <SMILES>
CCC(=O)Nc1ccc(O)cc1

>  <CID>
74325

>  <logBB>


>  <BBB+/BBB->
BBB+

>  <Inchi>
InChI=1S/C9H11NO2/c1-2-9(12)10-7-3-5-8(11)6-4-7/h3-6-11H-2H2-1H3-(H-10-12)

>  <threshold>
-1

>  <reference>
R1|R13|R19|R6|R24|R27|R27|R27|R30|R30|

>  <group>
B

>  <Class>
1

>  <ABC>
8.7

>  <ABCGG>
8.02

>  <nAcid>
0

>  <nBase>
0

>  <nAromAtom>
6

>  <nAromBond>
6

>  <nAtom>
23

>  <nHeavyAtom>
12

>  <nSpiro>
0

>  <nBridgehead>
0

>  <nHetero>
3

>  <nN>
1

>  <nO>
2

>  <nF>
0

>  <BalabanJ>
2.17

>  <BertzCT>
266.36

>  <nBonds>
23

>  <nBondsO>
12

>  <nBondsS>
16

>  <nBondsD>
1

>  <nBondsT>
0

>  <nBondsA>
6

>  <nBondsM>
7

>  <nBondsKS>
19

>  <nBondsKD>
4

>  <RNCG>
0.4

>  <RPCG>
0.23

>  <FCSP3>
0.22

>  <SZ>
14.67

>  <Sm>
13.75

>  <Sv>
14.17

>  <Sse>
23.21

>  <Sp>
15.01

>  <Si>
25.99

>  <MZ>
0.64

>  <Mm>
0.6

>  <Mv>
0.62

>  <Mse>
1.01

>  <Mp>
0.65

>  <Mi>
1.13

>  <NsCH3>
1

>  <NdCH2>
0

>  <NssCH2>
1

>  <NtCH>
0

>  <NdsCH>
0

>  <NaaCH>
4

>  <NsssCH>
0

>  <NddC>
0

>  <NtsC>
0

>  <NdssC>
1

>  <NaasC>
2

>  <NaaaC>
0

>  <NssssC>
0

>  <NsNH3>
0

>  <NsNH2>
0

>  <NssNH2>
0

>  <NdNH>
0

>  <NssNH>
1

>  <NaaNH>
0

>  <NtN>
0

>  <NsssNH>
0

>  <NdsN>
0

>  <NaaN>
0

>  <NsssN>
0

>  <NddsN>
0

>  <NaasN>
0

>  <NssssN>
0

>  <NsOH>
1

>  <NdO>
1

>  <NssO>
0

>  <NaaO>
0

>  <NsF>
0

>  <NsSiH3>
0

>  <NssSiH2>
0

>  <NsssSiH>
0

>  <NssssSi>
0

>  <NsPH2>
0

>  <NssPH>
0

>  <NsssP>
0

>  <NdsssP>
0

>  <NsssssP>
0

>  <NsSH>
0

>  <NdS>
0

>  <NssS>
0

>  <NaaS>
0

>  <NdssS>
0

>  <NddssS>
0

>  <NsCl>
0

>  <NsBr>
0

>  <NsI>
0

>  <fragCpx>
12.03

>  <fMF>
0.26

>  <nHBAcc>
2

>  <nHBDon>
2

>  <Kier1>
10.08

>  <Kier2>
4.89

>  <Lipinski>
1

>  <GhoseFilter>
1

>  <FilterItLogS>
-2

>  <VMcGowan>
131.33

>  <LabuteASA>
71.03

>  <PEOE_VSA1>
10.42

>  <PEOE_VSA2>
4.79

>  <PEOE_VSA3>
0

>  <PEOE_VSA4>
0

>  <PEOE_VSA5>
0

>  <PEOE_VSA6>
6.92

>  <PEOE_VSA7>
24.27

>  <PEOE_VSA8>
12.11

>  <PEOE_VSA9>
0

>  <PEOE_VSA10>
5.75

>  <PEOE_VSA11>
0

>  <PEOE_VSA12>
5.91

>  <PEOE_VSA13>
0

>  <SMR_VSA1>
9.9

>  <SMR_VSA2>
0

>  <SMR_VSA3>
0

>  <SMR_VSA4>
0

>  <SMR_VSA5>
13.34

>  <SMR_VSA6>
5.32

>  <SMR_VSA7>
24.27

>  <SMR_VSA8>
0

>  <SMR_VSA9>
5.75

>  <SlogP_VSA1>
5.32

>  <SlogP_VSA2>
11.01

>  <SlogP_VSA3>
4.79

>  <SlogP_VSA4>
0

>  <SlogP_VSA5>
13.34

>  <SlogP_VSA6>
24.27

>  <SlogP_VSA7>
0

>  <SlogP_VSA8>
0

>  <SlogP_VSA9>
0

>  <SlogP_VSA10>
5.69

>  <SlogP_VSA11>
5.75

>  <EState_VSA1>
0

>  <EState_VSA2>
11.66

>  <EState_VSA3>
12.11

>  <EState_VSA4>
0

>  <EState_VSA5>
12.13

>  <EState_VSA6>
19.06

>  <EState_VSA7>
0

>  <EState_VSA8>
5.32

>  <EState_VSA9>
5.11

>  <EState_VSA10>
4.79

>  <VSA_EState1>
0

>  <VSA_EState2>
10.89

>  <VSA_EState3>
11.6

>  <VSA_EState4>
0.71

>  <VSA_EState5>
0.17

>  <VSA_EState6>
6.38

>  <VSA_EState7>
0.46

>  <VSA_EState8>
1.79

>  <VSA_EState9>
0

>  <apol>
25.07

>  <bpol>
12.47

>  <nRing>
1

>  <nHRing>
0

>  <naRing>
1

>  <naHRing>
0

>  <nARing 2>
0

>  <nAHRing 2>
0

>  <nFRing>
0

>  <nFHRing>
0

>  <nFaRing>
0

>  <nFaHRing>
0

>  <nFARing 2>
0

>  <nFAHRing 2>
0

>  <nRot>
2

>  <SLogP>
1.74

>  <SMR>
47.03

>  <TopoPSA(NO)>
49.33

>  <TopoPSA>
49.33

>  <JGI1>
0.25

>  <JGI2>
0.07

>  <JGI3>
0.04

>  <JGI4>
0.06

>  <JGI5>
0.02

>  <Diameter>
8

>  <Radius>
4

>  <TMWC10>
88.38

>  <TSRW10>
41.74

>  <MW>
165.08

>  <AMW>
7.18

>  <WPath>
216

>  <WPol>
13

>  <Zagreb1>
54

>  <Zagreb2>
58

>  <mZagreb2>
2.83

>  <yes>


>  <nAR-cont>
0.336376

>  <nHA-cont>
0.785745021

>  <MWHBN>
0.311324114

>  <MWHBN-cont>
0.805639283

>  <TPSA-cont>
0.655645968

>  <pka_cont>
0.97

>  <yes.1>


>  <BBB_SCORE>
4.126871882

>  <MMFF94 Energy>
-13.538

$$$$
Compound 1067
Actelion Java MolfileCreator 2.0

  0  0  0  0  0  0              0 V3000
M  V30 BEGIN CTAB
M  V30 COUNTS 42 43 0 0 0
M  V30 BEGIN ATOM
M  V30 1 O 0.5526 2.449 0.7105 0
M  V30 2 C 0.0992 1.5793 1.4376 0
M  V30 3 O -0.1791 0.2948 1.0809 0
M  V30 4 C -0.2636 1.7673 2.8921 0
M  V30 5 C 0.1413 -0.1994 -0.2646 0
M  V30 6 C 0.0493 3.1699 3.3827 0
M  V30 7 C 1.6727 -0.1916 -0.4053 0
M  V30 8 C -0.397 -1.6726 -0.2785 0
M  V30 9 C -0.6449 0.6042 -1.3311 0
M  V30 10 C 2.3308 0.4212 -1.4838 0
M  V30 11 C 2.47 -0.8125 0.5783 0
M  V30 12 C -1.9316 -1.6764 -0.1079 0
M  V30 13 C 0.002 -2.4768 -1.5277 0
M  V30 14 C -2.1565 0.5062 -1.1241 0
M  V30 15 C 3.7257 0.4039 -1.5814 0
M  V30 16 C 3.863 -0.8299 0.4799 0
M  V30 17 N -2.6012 -0.8916 -1.1523 0
M  V30 18 C 4.4907 -0.2227 -0.6022 0
M  V30 19 C -4.0548 -0.9697 -1.0029 0
M  V30 20 H 0.3017 1.042 3.4869 0
M  V30 21 H -1.3347 1.5712 3.0098 0
M  V30 22 H -0.2201 3.2738 4.4383 0
M  V30 23 H -0.5082 3.9199 2.8117 0
M  V30 24 H 1.116 3.3942 3.2776 0
M  V30 25 H 0.0027 -2.2101 0.5925 0
M  V30 26 H -0.3727 1.6644 -1.324 0
M  V30 27 H -0.4049 0.2442 -2.3398 0
M  V30 28 H 1.7769 0.9331 -2.2659 0
M  V30 29 H 2.0057 -1.2876 1.4401 0
M  V30 30 H -2.1969 -1.299 0.8889 0
M  V30 31 H -2.2833 -2.7156 -0.1478 0
M  V30 32 H 1.0883 -2.582 -1.6059 0
M  V30 33 H -0.4126 -3.4898 -1.4752 0
M  V30 34 H -0.3609 -2.0215 -2.4536 0
M  V30 35 H -2.4435 0.9944 -0.1837 0
M  V30 36 H -2.6448 1.0619 -1.9343 0
M  V30 37 H 4.2136 0.8882 -2.4235 0
M  V30 38 H 4.4561 -1.3147 1.2507 0
M  V30 39 H 5.5744 -0.2312 -0.6802 0
M  V30 40 H -4.3955 -0.5602 -0.0449 0
M  V30 41 H -4.5545 -0.4221 -1.8097 0
M  V30 42 H -4.3933 -2.0094 -1.0738 0
M  V30 END ATOM
M  V30 BEGIN BOND
M  V30 1 2 1 2
M  V30 2 1 2 3
M  V30 3 1 2 4
M  V30 4 1 3 5
M  V30 5 1 4 6
M  V30 6 1 5 7
M  V30 7 1 5 8
M  V30 8 1 5 9
M  V30 9 2 7 10
M  V30 10 1 7 11
M  V30 11 1 8 12
M  V30 12 1 8 13
M  V30 13 1 9 14
M  V30 14 1 10 15
M  V30 15 2 11 16
M  V30 16 1 12 17
M  V30 17 2 15 18
M  V30 18 1 17 19
M  V30 19 1 14 17
M  V30 20 1 16 18
M  V30 21 1 4 20
M  V30 22 1 4 21
M  V30 23 1 6 22
M  V30 24 1 6 23
M  V30 25 1 6 24
M  V30 26 1 8 25
M  V30 27 1 9 26
M  V30 28 1 9 27
M  V30 29 1 10 28
M  V30 30 1 11 29
M  V30 31 1 12 30
M  V30 32 1 12 31
M  V30 33 1 13 32
M  V30 34 1 13 33
M  V30 35 1 13 34
M  V30 36 1 14 35
M  V30 37 1 14 36
M  V30 38 1 15 37
M  V30 39 1 16 38
M  V30 40 1 18 39
M  V30 41 1 19 40
M  V30 42 1 19 41
M  V30 43 1 19 42
M  V30 END BOND
M  V30 END CTAB
M  END
>  <Column 1>
1271

>  <level_0>
1414

>  <index>
1414

>  <Unnamed: 0>
1414

>  <NO.>
1426

>  <Name>
alphaprodine (betaprodine)

>  <IUPAC_name>
(1-3-dimethyl-4-phenylpiperidin-4-yl) propanoate

>  <SMILES>
CCC(=O)OC1(c2ccccc2)CCN(C)CC1C

>  <CID>
6471

>  <logBB>


>  <BBB+/BBB->
BBB+

>  <Inchi>
InChI=1S/C16H23NO2/c1-4-15(18)19-16(14-8-6-5-7-9-14)10-11-17(3)12-13(16)2/h5-9-13H-4-10-12H2-1-3H3

>  <threshold>
-1

>  <reference>
R1|R19|R6|R27|R27|R30|

>  <group>
B

>  <Class>
-1

>  <ABC>
14.35

>  <ABCGG>
12.77

>  <nAcid>
0

>  <nBase>
1

>  <nAromAtom>
6

>  <nAromBond>
6

>  <nAtom>
42

>  <nHeavyAtom>
19

>  <nSpiro>
0

>  <nBridgehead>
0

>  <nHetero>
3

>  <nN>
1

>  <nO>
2

>  <nF>
0

>  <BalabanJ>
2.15

>  <BertzCT>
431.63

>  <nBonds>
43

>  <nBondsO>
20

>  <nBondsS>
36

>  <nBondsD>
1

>  <nBondsT>
0

>  <nBondsA>
6

>  <nBondsM>
7

>  <nBondsKS>
39

>  <nBondsKD>
4

>  <RNCG>
0.32

>  <RPCG>
0.21

>  <FCSP3>
0.56

>  <SZ>
23.67

>  <Sm>
21.76

>  <Sv>
24.42

>  <Sse>
41.53

>  <Sp>
26.8

>  <Si>
47.49

>  <MZ>
0.56

>  <Mm>
0.52

>  <Mv>
0.58

>  <Mse>
0.99

>  <Mp>
0.64

>  <Mi>
1.13

>  <NsCH3>
3

>  <NdCH2>
0

>  <NssCH2>
4

>  <NtCH>
0

>  <NdsCH>
0

>  <NaaCH>
5

>  <NsssCH>
1

>  <NddC>
0

>  <NtsC>
0

>  <NdssC>
1

>  <NaasC>
1

>  <NaaaC>
0

>  <NssssC>
1

>  <NsNH3>
0

>  <NsNH2>
0

>  <NssNH2>
0

>  <NdNH>
0

>  <NssNH>
0

>  <NaaNH>
0

>  <NtN>
0

>  <NsssNH>
0

>  <NdsN>
0

>  <NaaN>
0

>  <NsssN>
1

>  <NddsN>
0

>  <NaasN>
0

>  <NssssN>
0

>  <NsOH>
0

>  <NdO>
1

>  <NssO>
1

>  <NaaO>
0

>  <NsF>
0

>  <NsSiH3>
0

>  <NssSiH2>
0

>  <NsssSiH>
0

>  <NssssSi>
0

>  <NsPH2>
0

>  <NssPH>
0

>  <NsssP>
0

>  <NdsssP>
0

>  <NsssssP>
0

>  <NsSH>
0

>  <NdS>
0

>  <NssS>
0

>  <NaaS>
0

>  <NdssS>
0

>  <NddssS>
0

>  <NsCl>
0

>  <NsBr>
0

>  <NsI>
0

>  <fragCpx>
58.03

>  <fMF>
0.29

>  <nHBAcc>
3

>  <nHBDon>
0

>  <Kier1>
15.39

>  <Kier2>
6.64

>  <Lipinski>
1

>  <GhoseFilter>
1

>  <FilterItLogS>
-3.38

>  <VMcGowan>
219.1

>  <LabuteASA>
115.11

>  <PEOE_VSA1>
9.64

>  <PEOE_VSA2>
4.79

>  <PEOE_VSA3>
0

>  <PEOE_VSA4>
0

>  <PEOE_VSA5>
0

>  <PEOE_VSA6>
44.18

>  <PEOE_VSA7>
12.61

>  <PEOE_VSA8>
31.85

>  <PEOE_VSA9>
0

>  <PEOE_VSA10>
5.6

>  <PEOE_VSA11>
0

>  <PEOE_VSA12>
0

>  <PEOE_VSA13>
0

>  <SMR_VSA1>
9.53

>  <SMR_VSA2>
0

>  <SMR_VSA3>
4.9

>  <SMR_VSA4>
5.92

>  <SMR_VSA5>
32.29

>  <SMR_VSA6>
20.14

>  <SMR_VSA7>
35.9

>  <SMR_VSA8>
0

>  <SMR_VSA9>
0

>  <SlogP_VSA1>
0

>  <SlogP_VSA2>
31.01

>  <SlogP_VSA3>
15.13

>  <SlogP_VSA4>
5.92

>  <SlogP_VSA5>
32.25

>  <SlogP_VSA6>
30.33

>  <SlogP_VSA7>
0

>  <SlogP_VSA8>
0

>  <SlogP_VSA9>
0

>  <SlogP_VSA10>
0

>  <SlogP_VSA11>
0

>  <EState_VSA1>
5.6

>  <EState_VSA2>
5.97

>  <EState_VSA3>
12.34

>  <EState_VSA4>
25.07

>  <EState_VSA5>
0

>  <EState_VSA6>
0

>  <EState_VSA7>
25.12

>  <EState_VSA8>
31

>  <EState_VSA9>
4.74

>  <EState_VSA10>
4.79

>  <VSA_EState1>
5.91

>  <VSA_EState2>
14.15

>  <VSA_EState3>
0

>  <VSA_EState4>
0.67

>  <VSA_EState5>
0.18

>  <VSA_EState6>
10.18

>  <VSA_EState7>
1.29

>  <VSA_EState8>
5.92

>  <VSA_EState9>
2.12

>  <apol>
44.76

>  <bpol>
27.39

>  <nRing>
2

>  <nHRing>
1

>  <naRing>
1

>  <naHRing>
0

>  <nARing 2>
1

>  <nAHRing 2>
1

>  <nFRing>
0

>  <nFHRing>
0

>  <nFaRing>
0

>  <nFaHRing>
0

>  <nFARing 2>
0

>  <nFAHRing 2>
0

>  <nRot>
3

>  <SLogP>
2.81

>  <SMR>
75.78

>  <TopoPSA(NO)>
29.54

>  <TopoPSA>
29.54

>  <JGI1>
0.25

>  <JGI2>
0.1

>  <JGI3>
0.05

>  <JGI4>
0.04

>  <JGI5>
0.02

>  <Diameter>
8

>  <Radius>
4

>  <TMWC10>
112.13

>  <TSRW10>
52.52

>  <MW>
261.17

>  <AMW>
6.22

>  <WPath>
648

>  <WPol>
31

>  <Zagreb1>
96

>  <Zagreb2>
113

>  <mZagreb2>
4.33

>  <yes>


>  <nAR-cont>
0.816016

>  <nHA-cont>
0.998649058

>  <MWHBN>
0.185634892

>  <MWHBN-cont>
0.992507008

>  <TPSA-cont>
0.793792457

>  <pka_cont>
0.97

>  <yes.1>


>  <BBB_SCORE>
5.376010483

>  <MMFF94 Energy>
21.833

$$$$
Compound 1068
Actelion Java MolfileCreator 2.0

  0  0  0  0  0  0              0 V3000
M  V30 BEGIN CTAB
M  V30 COUNTS 73 76 0 0 0
M  V30 BEGIN ATOM
M  V30 1 Cl 2.1874 -1.701 -1.701 0
M  V30 2 C 0.9309 -2.4266 -0.5298 0 CFG=2
M  V30 3 C 1.035 -4.0185 -0.6476 0 CFG=2
M  V30 4 C -0.4393 -1.8076 -0.9828 0 CFG=1
M  V30 5 C 1.295 -1.9584 0.9332 0 CFG=2
M  V30 6 C 2.4302 -4.4478 -0.1478 0
M  V30 7 C 0.7934 -4.4961 -2.0811 0
M  V30 8 C -0.0012 -4.7909 0.2082 0
M  V30 9 O -1.548 -2.4647 -0.3744 0
M  V30 10 C -0.5675 -0.2842 -0.7157 0
M  V30 11 C 1.19 -0.4275 1.0579 0 CFG=1
M  V30 12 C 2.6767 -2.4727 1.3851 0
M  V30 13 C 3.2972 -5.1602 -0.8896 0
M  V30 14 C 2.8088 -3.9872 1.2381 0
M  V30 15 C 1.6631 -5.2072 -2.8113 0
M  V30 16 C -0.2196 0.1288 0.7375 0 CFG=1
M  V30 17 C 1.5086 0.219 2.3987 0
M  V30 18 C 2.977 -5.5965 -2.2646 0
M  V30 19 C 0.023 1.6803 0.9888 0 CFG=1
M  V30 20 C -1.3139 -0.4078 1.7049 0
M  V30 21 C 1.0301 1.6823 2.2149 0 CFG=1
M  V30 22 O 3.7692 -6.2575 -2.9238 0
M  V30 23 O 0.7586 2.168 -0.1731 0
M  V30 24 C -1.3385 2.4281 1.1608 0
M  V30 25 C 0.5624 2.2674 3.5413 0
M  V30 26 C 1.1595 3.4706 -0.1955 0
M  V30 27 O -1.9227 2.4969 2.2456 0
M  V30 28 C -1.9838 2.9932 -0.1038 0
M  V30 29 O 0.8653 4.2947 0.6552 0
M  V30 30 C 1.9852 3.7246 -1.4318 0
M  V30 31 O -3.3959 3.1266 0.0694 0
M  V30 32 C 2.4803 5.1583 -1.4988 0
M  V30 33 C -4.0501 3.546 -1.0472 0
M  V30 34 O -3.5173 3.749 -2.1289 0
M  V30 35 C -5.5197 3.7065 -0.7428 0
M  V30 36 C -6.3025 4.1871 -1.952 0
M  V30 37 H -0.5634 -1.9624 -2.0617 0
M  V30 38 H 0.5728 -2.3993 1.6275 0
M  V30 39 H -0.168 -4.2556 -2.5298 0
M  V30 40 H 0.2701 -5.852 0.2935 0
M  V30 41 H -0.0855 -4.4052 1.2279 0
M  V30 42 H -1.0039 -4.7763 -0.2324 0
M  V30 43 H -2.3649 -2.1127 -0.7719 0
M  V30 44 H -1.5926 0.0322 -0.9436 0
M  V30 45 H 0.0806 0.2404 -1.4259 0
M  V30 46 H 1.9129 0.0025 0.3504 0
M  V30 47 H 3.4768 -1.9758 0.8231 0
M  V30 48 H 2.8412 -2.2177 2.439 0
M  V30 49 H 4.2796 -5.4473 -0.5323 0
M  V30 50 H 3.8377 -4.2759 1.4857 0
M  V30 51 H 2.1687 -4.4872 1.9747 0
M  V30 52 H 1.4472 -5.5334 -3.8213 0
M  V30 53 H 0.9905 -0.285 3.222 0
M  V30 54 H 2.5808 0.1899 2.6217 0
M  V30 55 H -1.2049 -0.0232 2.7223 0
M  V30 56 H -2.3128 -0.1186 1.3578 0
M  V30 57 H -1.315 -1.495 1.7973 0
M  V30 58 H 1.9258 2.2517 1.933 0
M  V30 59 H -0.274 1.7085 3.97 0
M  V30 60 H 1.3768 2.2384 4.2741 0
M  V30 61 H 0.268 3.3152 3.4265 0
M  V30 62 H -1.5559 3.9804 -0.3004 0
M  V30 63 H -1.7859 2.3157 -0.9386 0
M  V30 64 H 1.3676 3.5106 -2.3104 0
M  V30 65 H 2.8431 3.0442 -1.4211 0
M  V30 66 H 3.0781 5.3136 -2.4021 0
M  V30 67 H 3.1019 5.4006 -0.6303 0
M  V30 68 H 1.6423 5.8632 -1.5172 0
M  V30 69 H -5.6281 4.4316 0.0707 0
M  V30 70 H -5.9137 2.7385 -0.4158 0
M  V30 71 H -7.3623 4.2958 -1.7016 0
M  V30 72 H -6.2177 3.4782 -2.7823 0
M  V30 73 H -5.9316 5.1567 -2.3006 0
M  V30 END ATOM
M  V30 BEGIN BOND
M  V30 1 1 1 2
M  V30 2 1 2 3
M  V30 3 1 2 4
M  V30 4 1 2 5
M  V30 5 1 3 6
M  V30 6 1 3 7
M  V30 7 1 3 8
M  V30 8 1 4 9
M  V30 9 1 4 10
M  V30 10 1 5 11
M  V30 11 1 5 12
M  V30 12 2 6 13
M  V30 13 1 6 14
M  V30 14 2 7 15
M  V30 15 1 10 16
M  V30 16 1 11 17
M  V30 17 1 13 18
M  V30 18 1 16 19
M  V30 19 1 16 20
M  V30 20 1 17 21
M  V30 21 2 18 22
M  V30 22 1 19 23
M  V30 23 1 19 24
M  V30 24 1 21 25
M  V30 25 1 23 26
M  V30 26 2 24 27
M  V30 27 1 24 28
M  V30 28 2 26 29
M  V30 29 1 26 30
M  V30 30 1 28 31
M  V30 31 1 30 32
M  V30 32 1 31 33
M  V30 33 2 33 34
M  V30 34 1 33 35
M  V30 35 1 35 36
M  V30 36 1 11 16
M  V30 37 1 12 14
M  V30 38 1 15 18
M  V30 39 1 19 21
M  V30 40 1 4 37
M  V30 41 1 5 38
M  V30 42 1 7 39
M  V30 43 1 8 40
M  V30 44 1 8 41
M  V30 45 1 8 42
M  V30 46 1 9 43
M  V30 47 1 10 44
M  V30 48 1 10 45
M  V30 49 1 11 46
M  V30 50 1 12 47
M  V30 51 1 12 48
M  V30 52 1 13 49
M  V30 53 1 14 50
M  V30 54 1 14 51
M  V30 55 1 15 52
M  V30 56 1 17 53
M  V30 57 1 17 54
M  V30 58 1 20 55
M  V30 59 1 20 56
M  V30 60 1 20 57
M  V30 61 1 21 58
M  V30 62 1 25 59
M  V30 63 1 25 60
M  V30 64 1 25 61
M  V30 65 1 28 62
M  V30 66 1 28 63
M  V30 67 1 30 64
M  V30 68 1 30 65
M  V30 69 1 32 66
M  V30 70 1 32 67
M  V30 71 1 32 68
M  V30 72 1 35 69
M  V30 73 1 35 70
M  V30 74 1 36 71
M  V30 75 1 36 72
M  V30 76 1 36 73
M  V30 END BOND
M  V30 BEGIN COLLECTION
M  V30 MDLV30/STEABS ATOMS=(8 2 3 4 5 11 16 19 21)
M  V30 END COLLECTION
M  V30 END CTAB
M  END
>  <Column 1>
1273

>  <level_0>
1416

>  <index>
1416

>  <Unnamed: 0>
1416

>  <NO.>
1428

>  <Name>
beclomethasonedipropionate(beclometasone-dipropionate)

>  <IUPAC_name>
[2-[(8s-9r-10s-11s-13s-14s-16s-17r)-9-chloro-11-hydroxy-10-13-16-trimethyl-3-oxo-17-propanoyloxy-6-7-8-11-12-14-15-16-octahydrocyclopenta[a]phenanthren-17-yl]-2-oxoethyl] propanoate

>  <SMILES>
CCC(=O)OCC(=O)[C@@]1(OC(=O)CC)[C@@H](C)C[C@H]2[C@@H]3CCC4=CC(=O)C=C[C@]4(C)[C@@]3(Cl)[C@@H](O)C[C@@]21C

>  <CID>
21700

>  <logBB>


>  <BBB+/BBB->
BBB+

>  <Inchi>
InChI=1S/C28H37ClO7/c1-6-23(33)35-15-22(32)28(36-24(34)7-2)16(3)12-20-19-9-8-17-13-18(30)10-11-25(17-4)27(19-29)21(31)14-26(20-28)5/h10-11-13-16-19-21-31H-6-9-12-14-15H2-1-5H3/t16--19--20--21--25--26--27--28-/m0/s1

>  <threshold>
-1

>  <reference>
R1|R6|R27|R30|

>  <group>
B

>  <Class>
1

>  <ABC>
28.11

>  <ABCGG>
23.36

>  <nAcid>
0

>  <nBase>
0

>  <nAromAtom>
0

>  <nAromBond>
0

>  <nAtom>
73

>  <nHeavyAtom>
36

>  <nSpiro>
0

>  <nBridgehead>
0

>  <nHetero>
8

>  <nN>
0

>  <nO>
7

>  <nF>
0

>  <BalabanJ>
1.74

>  <BertzCT>
1048.5

>  <nBonds>
76

>  <nBondsO>
39

>  <nBondsS>
70

>  <nBondsD>
6

>  <nBondsT>
0

>  <nBondsA>
0

>  <nBondsM>
6

>  <nBondsKS>
70

>  <nBondsKD>
6

>  <RNCG>
0.15

>  <RPCG>
0.1

>  <FCSP3>
0.71

>  <SZ>
46.33

>  <Sm>
43.38

>  <Sv>
44.12

>  <Sse>
73.51

>  <Sp>
47.44

>  <Si>
82.3

>  <MZ>
0.63

>  <Mm>
0.59

>  <Mv>
0.6

>  <Mse>
1.01

>  <Mp>
0.65

>  <Mi>
1.13

>  <NsCH3>
5

>  <NdCH2>
0

>  <NssCH2>
7

>  <NtCH>
0

>  <NdsCH>
3

>  <NaaCH>
0

>  <NsssCH>
4

>  <NddC>
0

>  <NtsC>
0

>  <NdssC>
5

>  <NaasC>
0

>  <NaaaC>
0

>  <NssssC>
4

>  <NsNH3>
0

>  <NsNH2>
0

>  <NssNH2>
0

>  <NdNH>
0

>  <NssNH>
0

>  <NaaNH>
0

>  <NtN>
0

>  <NsssNH>
0

>  <NdsN>
0

>  <NaaN>
0

>  <NsssN>
0

>  <NddsN>
0

>  <NaasN>
0

>  <NssssN>
0

>  <NsOH>
1

>  <NdO>
4

>  <NssO>
2

>  <NaaO>
0

>  <NsF>
0

>  <NsSiH3>
0

>  <NssSiH2>
0

>  <NsssSiH>
0

>  <NssssSi>
0

>  <NsPH2>
0

>  <NssPH>
0

>  <NsssP>
0

>  <NdsssP>
0

>  <NsssssP>
0

>  <NsSH>
0

>  <NdS>
0

>  <NssS>
0

>  <NaaS>
0

>  <NdssS>
0

>  <NddssS>
0

>  <NsCl>
1

>  <NsBr>
0

>  <NsI>
0

>  <fragCpx>
261.08

>  <fMF>
0.23

>  <nHBAcc>
7

>  <nHBDon>
1

>  <Kier1>
28.99

>  <Kier2>
10.19

>  <Lipinski>
0

>  <GhoseFilter>
0

>  <FilterItLogS>
-5.12

>  <VMcGowan>
389.47

>  <LabuteASA>
217.16

>  <PEOE_VSA1>
14.58

>  <PEOE_VSA2>
19.18

>  <PEOE_VSA3>
0

>  <PEOE_VSA4>
0

>  <PEOE_VSA5>
11.6

>  <PEOE_VSA6>
46.27

>  <PEOE_VSA7>
49.67

>  <PEOE_VSA8>
29.59

>  <PEOE_VSA9>
10.98

>  <PEOE_VSA10>
0

>  <PEOE_VSA11>
17.99

>  <PEOE_VSA12>
5.78

>  <PEOE_VSA13>
0

>  <SMR_VSA1>
33.76

>  <SMR_VSA2>
0

>  <SMR_VSA3>
0

>  <SMR_VSA4>
28.58

>  <SMR_VSA5>
89.72

>  <SMR_VSA6>
6.61

>  <SMR_VSA7>
23.8

>  <SMR_VSA8>
0

>  <SMR_VSA9>
0

>  <SlogP_VSA1>
0

>  <SlogP_VSA2>
51.8

>  <SlogP_VSA3>
28.65

>  <SlogP_VSA4>
28.58

>  <SlogP_VSA5>
73.14

>  <SlogP_VSA6>
23.8

>  <SlogP_VSA7>
0

>  <SlogP_VSA8>
0

>  <SlogP_VSA9>
0

>  <SlogP_VSA10>
0

>  <SlogP_VSA11>
0

>  <EState_VSA1>
51.74

>  <EState_VSA2>
42.8

>  <EState_VSA3>
19.26

>  <EState_VSA4>
5.57

>  <EState_VSA5>
6.08

>  <EState_VSA6>
19.92

>  <EState_VSA7>
26.85

>  <EState_VSA8>
0

>  <EState_VSA9>
21.07

>  <EState_VSA10>
24.28

>  <VSA_EState1>
11.28

>  <VSA_EState2>
49.46

>  <VSA_EState3>
11.78

>  <VSA_EState4>
-2.27

>  <VSA_EState5>
-2.24

>  <VSA_EState6>
0

>  <VSA_EState7>
6.18

>  <VSA_EState8>
8.61

>  <VSA_EState9>
0

>  <apol>
79.23

>  <bpol>
44.57

>  <nRing>
4

>  <nHRing>
0

>  <naRing>
0

>  <naHRing>
0

>  <nARing 2>
4

>  <nAHRing 2>
0

>  <nFRing>
1

>  <nFHRing>
0

>  <nFaRing>
0

>  <nFaHRing>
0

>  <nFARing 2>
1

>  <nFAHRing 2>
0

>  <nRot>
6

>  <SLogP>
4.09

>  <SMR>
133.02

>  <TopoPSA(NO)>
106.97

>  <TopoPSA>
106.97

>  <JGI1>
0.31

>  <JGI2>
0.15

>  <JGI3>
0.08

>  <JGI4>
0.06

>  <JGI5>
0.04

>  <Diameter>
15

>  <Radius>
8

>  <TMWC10>
157.95

>  <TSRW10>
88.85

>  <MW>
520.22

>  <AMW>
7.13

>  <WPath>
3474

>  <WPol>
82

>  <Zagreb1>
204

>  <Zagreb2>
261

>  <mZagreb2>
7.78

>  <yes>


>  <nAR-cont>
0.199399

>  <nHA-cont>
0.477843619

>  <MWHBN>
0.350749019

>  <MWHBN-cont>
0.667447444

>  <TPSA-cont>
0.253282976

>  <pka_cont>
0.97

>  <yes.1>


>  <BBB_SCORE>
2.669979736

>  <MMFF94 Energy>
133.75

$$$$
Compound 1069
Actelion Java MolfileCreator 2.0

  0  0  0  0  0  0              0 V3000
M  V30 BEGIN CTAB
M  V30 COUNTS 73 76 0 0 0
M  V30 BEGIN ATOM
M  V30 1 F 0.7246 2.7398 0.6441 0
M  V30 2 C -0.6143 2.4394 0.854 0 CFG=2
M  V30 3 C -1.2535 3.7173 1.5381 0 CFG=2
M  V30 4 C -0.5944 1.1474 1.728 0 CFG=1
M  V30 5 C -1.2129 2.1726 -0.5669 0 CFG=2
M  V30 6 C -1.1268 4.8904 0.5484 0
M  V30 7 C -0.5471 4.0409 2.855 0
M  V30 8 C -2.7511 3.5574 1.8889 0
M  V30 9 O -1.8836 0.8018 2.2215 0
M  V30 10 C 0.02 -0.0695 0.9968 0
M  V30 11 C -0.4754 0.9834 -1.2044 0 CFG=1
M  V30 12 C -1.0931 3.4209 -1.4624 0
M  V30 13 C -0.4972 6.0444 0.8333 0
M  V30 14 C -1.7106 4.659 -0.8213 0
M  V30 15 C 0.0797 5.1917 3.1334 0
M  V30 16 C -0.5933 -0.3328 -0.4 0 CFG=1
M  V30 17 C -0.8701 0.5575 -2.6108 0
M  V30 18 C 0.1405 6.283 2.1436 0
M  V30 19 C 0.2163 -1.3231 -1.3446 0 CFG=1
M  V30 20 C -2.0642 -0.8113 -0.2439 0
M  V30 21 C -0.1493 -0.8011 -2.7963 0 CFG=1
M  V30 22 O 0.6973 7.3435 2.3985 0
M  V30 23 O 1.6291 -1.0299 -1.1268 0
M  V30 24 C -0.1207 -2.8091 -0.9964 0
M  V30 25 C -0.9489 -1.7131 -3.7181 0
M  V30 26 C 2.5587 -1.7012 -1.8637 0
M  V30 27 O -1.099 -3.3937 -1.47 0
M  V30 28 C 0.7592 -3.4934 0.0487 0
M  V30 29 O 2.2978 -2.6073 -2.6384 0
M  V30 30 C 3.9344 -1.169 -1.5493 0
M  V30 31 O 0.0535 -4.5669 0.6741 0
M  V30 32 C 5.012 -1.8685 -2.3582 0
M  V30 33 C 0.7468 -5.171 1.6768 0
M  V30 34 O 1.8516 -4.8201 2.0664 0
M  V30 35 C -0.0608 -6.3196 2.2301 0
M  V30 36 C 0.6687 -7.0418 3.3491 0
M  V30 37 H 0.0378 1.3307 2.6045 0
M  V30 38 H -2.2784 1.9379 -0.4797 0
M  V30 39 H -0.5815 3.285 3.6365 0
M  V30 40 H -2.908 2.9229 2.7679 0
M  V30 41 H -3.2058 4.5274 2.131 0
M  V30 42 H -3.3333 3.1286 1.068 0
M  V30 43 H -1.7819 0.0453 2.8266 0
M  V30 44 H 1.097 0.1159 0.9078 0
M  V30 45 H -0.0975 -0.9626 1.6213 0
M  V30 46 H 0.587 1.2709 -1.2565 0
M  V30 47 H -0.0368 3.6179 -1.6884 0
M  V30 48 H -1.592 3.2425 -2.4222 0
M  V30 49 H -0.4039 6.8556 0.1202 0
M  V30 50 H -2.7979 4.5427 -0.747 0
M  V30 51 H -1.5398 5.5205 -1.4784 0
M  V30 52 H 0.5562 5.3809 4.0875 0
M  V30 53 H -0.5343 1.2773 -3.3653 0
M  V30 54 H -1.9573 0.4643 -2.7104 0
M  V30 55 H -2.5023 -1.1432 -1.1889 0
M  V30 56 H -2.1249 -1.6544 0.4539 0
M  V30 57 H -2.7321 -0.0374 0.1383 0
M  V30 58 H 0.7807 -0.5703 -3.3324 0
M  V30 59 H -1.9462 -1.9293 -3.3248 0
M  V30 60 H -0.4223 -2.6567 -3.8907 0
M  V30 61 H -1.0858 -1.2352 -4.6949 0
M  V30 62 H 1.6444 -3.8952 -0.4523 0
M  V30 63 H 1.0469 -2.7612 0.8078 0
M  V30 64 H 4.1269 -1.3162 -0.4813 0
M  V30 65 H 3.9506 -0.0971 -1.7729 0
M  V30 66 H 5.9977 -1.4613 -2.113 0
M  V30 67 H 4.8444 -1.7375 -3.4324 0
M  V30 68 H 5.024 -2.9436 -2.1501 0
M  V30 69 H -0.2647 -7.0237 1.4165 0
M  V30 70 H -1.0093 -5.9253 2.6098 0
M  V30 71 H 0.0611 -7.8689 3.7289 0
M  V30 72 H 0.882 -6.363 4.1817 0
M  V30 73 H 1.622 -7.45 2.9976 0
M  V30 END ATOM
M  V30 BEGIN BOND
M  V30 1 1 1 2
M  V30 2 1 2 3
M  V30 3 1 2 4
M  V30 4 1 2 5
M  V30 5 1 3 6
M  V30 6 1 3 7
M  V30 7 1 3 8
M  V30 8 1 4 9
M  V30 9 1 4 10
M  V30 10 1 5 11
M  V30 11 1 5 12
M  V30 12 2 6 13
M  V30 13 1 6 14
M  V30 14 2 7 15
M  V30 15 1 10 16
M  V30 16 1 11 17
M  V30 17 1 13 18
M  V30 18 1 16 19
M  V30 19 1 16 20
M  V30 20 1 17 21
M  V30 21 2 18 22
M  V30 22 1 19 23
M  V30 23 1 19 24
M  V30 24 1 21 25
M  V30 25 1 23 26
M  V30 26 2 24 27
M  V30 27 1 24 28
M  V30 28 2 26 29
M  V30 29 1 26 30
M  V30 30 1 28 31
M  V30 31 1 30 32
M  V30 32 1 31 33
M  V30 33 2 33 34
M  V30 34 1 33 35
M  V30 35 1 35 36
M  V30 36 1 11 16
M  V30 37 1 12 14
M  V30 38 1 15 18
M  V30 39 1 19 21
M  V30 40 1 4 37
M  V30 41 1 5 38
M  V30 42 1 7 39
M  V30 43 1 8 40
M  V30 44 1 8 41
M  V30 45 1 8 42
M  V30 46 1 9 43
M  V30 47 1 10 44
M  V30 48 1 10 45
M  V30 49 1 11 46
M  V30 50 1 12 47
M  V30 51 1 12 48
M  V30 52 1 13 49
M  V30 53 1 14 50
M  V30 54 1 14 51
M  V30 55 1 15 52
M  V30 56 1 17 53
M  V30 57 1 17 54
M  V30 58 1 20 55
M  V30 59 1 20 56
M  V30 60 1 20 57
M  V30 61 1 21 58
M  V30 62 1 25 59
M  V30 63 1 25 60
M  V30 64 1 25 61
M  V30 65 1 28 62
M  V30 66 1 28 63
M  V30 67 1 30 64
M  V30 68 1 30 65
M  V30 69 1 32 66
M  V30 70 1 32 67
M  V30 71 1 32 68
M  V30 72 1 35 69
M  V30 73 1 35 70
M  V30 74 1 36 71
M  V30 75 1 36 72
M  V30 76 1 36 73
M  V30 END BOND
M  V30 BEGIN COLLECTION
M  V30 MDLV30/STEABS ATOMS=(8 2 3 4 5 11 16 19 21)
M  V30 END COLLECTION
M  V30 END CTAB
M  END
>  <Column 1>
1274

>  <level_0>
1417

>  <index>
1417

>  <Unnamed: 0>
1417

>  <NO.>
1429

>  <Name>
betamethasone-valerate

>  <IUPAC_name>
[2-[(8s-9r-10s-11s-13s-14s-16s-17r)-9-fluoro-11-hydroxy-10-13-16-trimethyl-3-oxo-17-propanoyloxy-6-7-8-11-12-14-15-16-octahydrocyclopenta[a]phenanthren-17-yl]-2-oxoethyl] propanoate

>  <SMILES>
CCC(=O)OCC(=O)[C@@]1(OC(=O)CC)[C@@H](C)C[C@H]2[C@@H]3CCC4=CC(=O)C=C[C@]4(C)[C@@]3(F)[C@@H](O)C[C@@]21C

>  <CID>
21800

>  <logBB>


>  <BBB+/BBB->
BBB+

>  <Inchi>
InChI=1S/C28H37FO7/c1-6-23(33)35-15-22(32)28(36-24(34)7-2)16(3)12-20-19-9-8-17-13-18(30)10-11-25(17-4)27(19-29)21(31)14-26(20-28)5/h10-11-13-16-19-21-31H-6-9-12-14-15H2-1-5H3/t16--19--20--21--25--26--27--28-/m0/s1

>  <threshold>
-1

>  <reference>
R1|R6|R27|R30|

>  <group>
B

>  <Class>
1

>  <ABC>
28.11

>  <ABCGG>
23.36

>  <nAcid>
0

>  <nBase>
0

>  <nAromAtom>
0

>  <nAromBond>
0

>  <nAtom>
73

>  <nHeavyAtom>
36

>  <nSpiro>
0

>  <nBridgehead>
0

>  <nHetero>
8

>  <nN>
0

>  <nO>
7

>  <nF>
1

>  <BalabanJ>
1.74

>  <BertzCT>
1048.5

>  <nBonds>
76

>  <nBondsO>
39

>  <nBondsS>
70

>  <nBondsD>
6

>  <nBondsT>
0

>  <nBondsA>
0

>  <nBondsM>
6

>  <nBondsKS>
70

>  <nBondsKD>
6

>  <RNCG>
0.14

>  <RPCG>
0.1

>  <FCSP3>
0.71

>  <SZ>
45

>  <Sm>
42.01

>  <Sv>
43.67

>  <Sse>
73.7

>  <Sp>
46.47

>  <Si>
82.7

>  <MZ>
0.62

>  <Mm>
0.58

>  <Mv>
0.6

>  <Mse>
1.01

>  <Mp>
0.64

>  <Mi>
1.13

>  <NsCH3>
5

>  <NdCH2>
0

>  <NssCH2>
7

>  <NtCH>
0

>  <NdsCH>
3

>  <NaaCH>
0

>  <NsssCH>
4

>  <NddC>
0

>  <NtsC>
0

>  <NdssC>
5

>  <NaasC>
0

>  <NaaaC>
0

>  <NssssC>
4

>  <NsNH3>
0

>  <NsNH2>
0

>  <NssNH2>
0

>  <NdNH>
0

>  <NssNH>
0

>  <NaaNH>
0

>  <NtN>
0

>  <NsssNH>
0

>  <NdsN>
0

>  <NaaN>
0

>  <NsssN>
0

>  <NddsN>
0

>  <NaasN>
0

>  <NssssN>
0

>  <NsOH>
1

>  <NdO>
4

>  <NssO>
2

>  <NaaO>
0

>  <NsF>
1

>  <NsSiH3>
0

>  <NssSiH2>
0

>  <NsssSiH>
0

>  <NssssSi>
0

>  <NsPH2>
0

>  <NssPH>
0

>  <NsssP>
0

>  <NdsssP>
0

>  <NsssssP>
0

>  <NsSH>
0

>  <NdS>
0

>  <NssS>
0

>  <NaaS>
0

>  <NdssS>
0

>  <NddssS>
0

>  <NsCl>
0

>  <NsBr>
0

>  <NsI>
0

>  <fragCpx>
261.08

>  <fMF>
0.23

>  <nHBAcc>
7

>  <nHBDon>
1

>  <Kier1>
28.99

>  <Kier2>
10.19

>  <Lipinski>
0

>  <GhoseFilter>
0

>  <FilterItLogS>
-4.8

>  <VMcGowan>
378.99

>  <LabuteASA>
211.02

>  <PEOE_VSA1>
14.58

>  <PEOE_VSA2>
19.18

>  <PEOE_VSA3>
4.39

>  <PEOE_VSA4>
0

>  <PEOE_VSA5>
0

>  <PEOE_VSA6>
39.34

>  <PEOE_VSA7>
50.68

>  <PEOE_VSA8>
35.51

>  <PEOE_VSA9>
6.1

>  <PEOE_VSA10>
0

>  <PEOE_VSA11>
23.66

>  <PEOE_VSA12>
5.78

>  <PEOE_VSA13>
0

>  <SMR_VSA1>
38.15

>  <SMR_VSA2>
0

>  <SMR_VSA3>
0

>  <SMR_VSA4>
28.58

>  <SMR_VSA5>
90.52

>  <SMR_VSA6>
6.61

>  <SMR_VSA7>
23.8

>  <SMR_VSA8>
0

>  <SMR_VSA9>
0

>  <SlogP_VSA1>
0

>  <SlogP_VSA2>
52.59

>  <SlogP_VSA3>
28.65

>  <SlogP_VSA4>
28.58

>  <SlogP_VSA5>
73.14

>  <SlogP_VSA6>
23.8

>  <SlogP_VSA7>
0

>  <SlogP_VSA8>
0

>  <SlogP_VSA9>
0

>  <SlogP_VSA10>
4.39

>  <SlogP_VSA11>
0

>  <EState_VSA1>
64.37

>  <EState_VSA2>
30.96

>  <EState_VSA3>
24.84

>  <EState_VSA4>
0

>  <EState_VSA5>
12.15

>  <EState_VSA6>
33.77

>  <EState_VSA7>
6.92

>  <EState_VSA8>
0

>  <EState_VSA9>
9.47

>  <EState_VSA10>
24.28

>  <VSA_EState1>
28.51

>  <VSA_EState2>
50.32

>  <VSA_EState3>
11.54

>  <VSA_EState4>
-5.26

>  <VSA_EState5>
-3.31

>  <VSA_EState6>
0

>  <VSA_EState7>
4.32

>  <VSA_EState8>
8.05

>  <VSA_EState9>
0

>  <apol>
77.6

>  <bpol>
45.18

>  <nRing>
4

>  <nHRing>
0

>  <naRing>
0

>  <naHRing>
0

>  <nARing 2>
4

>  <nAHRing 2>
0

>  <nFRing>
1

>  <nFHRing>
0

>  <nFaRing>
0

>  <nFaHRing>
0

>  <nFARing 2>
1

>  <nFAHRing 2>
0

>  <nRot>
6

>  <SLogP>
3.82

>  <SMR>
128.27

>  <TopoPSA(NO)>
106.97

>  <TopoPSA>
106.97

>  <JGI1>
0.31

>  <JGI2>
0.15

>  <JGI3>
0.08

>  <JGI4>
0.06

>  <JGI5>
0.04

>  <Diameter>
15

>  <Radius>
8

>  <TMWC10>
157.95

>  <TSRW10>
88.85

>  <MW>
504.25

>  <AMW>
6.91

>  <WPath>
3474

>  <WPol>
82

>  <Zagreb1>
204

>  <Zagreb2>
261

>  <mZagreb2>
7.78

>  <yes>


>  <nAR-cont>
0.199399

>  <nHA-cont>
0.477843619

>  <MWHBN>
0.356259975

>  <MWHBN-cont>
0.646666437

>  <TPSA-cont>
0.253282976

>  <pka_cont>
0.97

>  <yes.1>


>  <BBB_SCORE>
2.638808226

>  <MMFF94 Energy>
134.11

$$$$
Compound 1070
Actelion Java MolfileCreator 2.0

  0  0  0  0  0  0              0 V3000
M  V30 BEGIN CTAB
M  V30 COUNTS 73 76 0 0 0
M  V30 BEGIN ATOM
M  V30 1 Cl 0.7277 3.8858 -1.8605 0
M  V30 2 C 1.6894 2.5403 -2.5718 0 CFG=1
M  V30 3 C 1.2191 1.1421 -2.082 0 CFG=2
M  V30 4 C 1.6426 2.6452 -4.099 0
M  V30 5 C -0.1762 0.7412 -2.6836 0 CFG=1
M  V30 6 C 1.1574 1.0399 -0.5434 0 CFG=1
M  V30 7 C 0.2805 2.266 -4.6332 0
M  V30 8 C -0.2209 0.8644 -4.2603 0 CFG=2
M  V30 9 C -0.7092 -0.6013 -2.0951 0 CFG=1
M  V30 10 C 0.8093 -0.3674 0.0 0 CFG=2
M  V30 11 C 2.3895 1.4431 0.2562 0
M  V30 12 C -0.4393 3.1501 -5.3472 0
M  V30 13 C -1.6418 0.6405 -4.7625 0
M  V30 14 C 0.6652 -0.1583 -5.0066 0
M  V30 15 O -0.1412 -1.7567 -2.692 0
M  V30 16 C -0.5888 -0.7187 -0.5608 0
M  V30 17 C 0.8747 -0.0833 1.5634 0 CFG=1
M  V30 18 C 1.8525 -1.4486 -0.3927 0
M  V30 19 C 2.1908 0.7947 1.6512 0 CFG=2
M  V30 20 C -1.8008 2.84 -5.8292 0
M  V30 21 C -2.3588 1.5232 -5.4704 0
M  V30 22 O -0.2785 0.7333 1.8819 0
M  V30 23 C 1.0118 -1.4115 2.378 0
M  V30 24 C 2.2297 1.848 2.754 0
M  V30 25 O -2.4405 3.644 -6.4943 0
M  V30 26 C -0.6979 0.8825 3.1676 0
M  V30 27 O 2.0874 -1.7539 2.8791 0
M  V30 28 C -0.2155 -2.3159 2.451 0
M  V30 29 O -0.2229 0.301 4.1284 0
M  V30 30 C -1.8508 1.8554 3.2077 0
M  V30 31 O -0.119 -3.204 3.5641 0
M  V30 32 C -2.3395 2.0996 4.6243 0
M  V30 33 C -1.2417 -3.9396 3.7822 0
M  V30 34 O -2.2515 -3.888 3.0942 0
M  V30 35 C -1.042 -4.8206 4.9911 0
M  V30 36 C -2.2708 -5.66 5.2933 0
M  V30 37 H 2.7198 2.7131 -2.243 0
M  V30 38 H 1.967 0.4306 -2.4475 0
M  V30 39 H 1.9266 3.658 -4.4129 0
M  V30 40 H 2.3977 1.9803 -4.5347 0
M  V30 41 H -0.8852 1.4953 -2.3029 0
M  V30 42 H 0.3536 1.7212 -0.2267 0
M  V30 43 H -1.781 -0.6665 -2.3157 0
M  V30 44 H 3.3024 1.0533 -0.2093 0
M  V30 45 H 2.4944 2.5314 0.3138 0
M  V30 46 H -0.0797 4.1435 -5.5915 0
M  V30 47 H -2.0961 -0.3279 -4.5588 0
M  V30 48 H 1.6643 -0.2457 -4.5694 0
M  V30 49 H 0.7999 0.1277 -6.0582 0
M  V30 50 H 0.2242 -1.1607 -5.0235 0
M  V30 51 H 0.8071 -1.6255 -2.8365 0
M  V30 52 H -1.3423 -0.0492 -0.1282 0
M  V30 53 H -0.8661 -1.7342 -0.2603 0
M  V30 54 H 2.791 -1.3532 0.1615 0
M  V30 55 H 1.4661 -2.4537 -0.192 0
M  V30 56 H 2.1372 -1.4155 -1.4434 0
M  V30 57 H 3.0625 0.1493 1.8169 0
M  V30 58 H -3.3612 1.312 -5.8227 0
M  V30 59 H 3.1897 2.3762 2.7393 0
M  V30 60 H 2.1295 1.3868 3.7405 0
M  V30 61 H 1.4443 2.6001 2.6305 0
M  V30 62 H -1.1185 -1.7059 2.5375 0
M  V30 63 H -0.2486 -2.91 1.5335 0
M  V30 64 H -2.6688 1.448 2.6046 0
M  V30 65 H -1.5196 2.8033 2.7707 0
M  V30 66 H -3.1708 2.8111 4.6237 0
M  V30 67 H -1.5396 2.5074 5.2511 0
M  V30 68 H -2.6854 1.1692 5.0867 0
M  V30 69 H -0.8186 -4.1821 5.8523 0
M  V30 70 H -0.1888 -5.4803 4.8022 0
M  V30 71 H -2.0977 -6.2863 6.1737 0
M  V30 72 H -2.517 -6.3142 4.4505 0
M  V30 73 H -3.1416 -5.0257 5.4899 0
M  V30 END ATOM
M  V30 BEGIN BOND
M  V30 1 1 1 2
M  V30 2 1 2 3
M  V30 3 1 2 4
M  V30 4 1 3 5
M  V30 5 1 3 6
M  V30 6 1 4 7
M  V30 7 1 5 8
M  V30 8 1 5 9
M  V30 9 1 6 10
M  V30 10 1 6 11
M  V30 11 2 7 12
M  V30 12 1 8 13
M  V30 13 1 8 14
M  V30 14 1 9 15
M  V30 15 1 9 16
M  V30 16 1 10 17
M  V30 17 1 10 18
M  V30 18 1 11 19
M  V30 19 1 12 20
M  V30 20 2 13 21
M  V30 21 1 17 22
M  V30 22 1 17 23
M  V30 23 1 19 24
M  V30 24 2 20 25
M  V30 25 1 22 26
M  V30 26 2 23 27
M  V30 27 1 23 28
M  V30 28 2 26 29
M  V30 29 1 26 30
M  V30 30 1 28 31
M  V30 31 1 30 32
M  V30 32 1 31 33
M  V30 33 2 33 34
M  V30 34 1 33 35
M  V30 35 1 35 36
M  V30 36 1 7 8
M  V30 37 1 10 16
M  V30 38 1 17 19
M  V30 39 1 20 21
M  V30 40 1 2 37
M  V30 41 1 3 38
M  V30 42 1 4 39
M  V30 43 1 4 40
M  V30 44 1 5 41
M  V30 45 1 6 42
M  V30 46 1 9 43
M  V30 47 1 11 44
M  V30 48 1 11 45
M  V30 49 1 12 46
M  V30 50 1 13 47
M  V30 51 1 14 48
M  V30 52 1 14 49
M  V30 53 1 14 50
M  V30 54 1 15 51
M  V30 55 1 16 52
M  V30 56 1 16 53
M  V30 57 1 18 54
M  V30 58 1 18 55
M  V30 59 1 18 56
M  V30 60 1 19 57
M  V30 61 1 21 58
M  V30 62 1 24 59
M  V30 63 1 24 60
M  V30 64 1 24 61
M  V30 65 1 28 62
M  V30 66 1 28 63
M  V30 67 1 30 64
M  V30 68 1 30 65
M  V30 69 1 32 66
M  V30 70 1 32 67
M  V30 71 1 32 68
M  V30 72 1 35 69
M  V30 73 1 35 70
M  V30 74 1 36 71
M  V30 75 1 36 72
M  V30 76 1 36 73
M  V30 END BOND
M  V30 BEGIN COLLECTION
M  V30 MDLV30/STEABS ATOMS=(9 2 3 5 6 8 9 10 17 19)
M  V30 END COLLECTION
M  V30 END CTAB
M  END
>  <Column 1>
1275

>  <level_0>
1418

>  <index>
1418

>  <Unnamed: 0>
1418

>  <NO.>
1430

>  <Name>
alclometasone-dipropionate

>  <IUPAC_name>
[2-[(7r-8s-9s-10r-11s-13s-14s-16r-17r)-7-chloro-11-hydroxy-10-13-16-trimethyl-3-oxo-17-propanoyloxy-7-8-9-11-12-14-15-16-octahydro-6h-cyclopenta[a]phenanthren-17-yl]-2-oxoethyl] propanoate

>  <SMILES>
CCC(=O)OCC(=O)[C@@]1(OC(=O)CC)[C@H](C)C[C@H]2[C@H]3[C@H]([C@@H](O)C[C@@]21C)[C@@]1(C)C=CC(=O)C=C1C[C@H]3Cl

>  <CID>
636374

>  <logBB>


>  <BBB+/BBB->
BBB+

>  <Inchi>
InChI=1S/C28H37ClO7/c1-6-22(33)35-14-21(32)28(36-23(34)7-2)15(3)10-18-24-19(29)12-16-11-17(30)8-9-26(16-4)25(24)20(31)13-27(18-28)5/h8-9-11-15-18-20-24-25-31H-6-7-10-12-14H2-1-5H3/t15--18+-19--20+-24--25+-26+-27+-28+/m1/s1

>  <threshold>
-1

>  <reference>
R1|R6|R27|R30|

>  <group>
B

>  <Class>
1

>  <ABC>
28.1

>  <ABCGG>
23.3

>  <nAcid>
0

>  <nBase>
0

>  <nAromAtom>
0

>  <nAromBond>
0

>  <nAtom>
73

>  <nHeavyAtom>
36

>  <nSpiro>
0

>  <nBridgehead>
0

>  <nHetero>
8

>  <nN>
0

>  <nO>
7

>  <nF>
0

>  <BalabanJ>
1.74

>  <BertzCT>
1032.92

>  <nBonds>
76

>  <nBondsO>
39

>  <nBondsS>
70

>  <nBondsD>
6

>  <nBondsT>
0

>  <nBondsA>
0

>  <nBondsM>
6

>  <nBondsKS>
70

>  <nBondsKD>
6

>  <RNCG>
0.15

>  <RPCG>
0.1

>  <FCSP3>
0.71

>  <SZ>
46.33

>  <Sm>
43.38

>  <Sv>
44.12

>  <Sse>
73.51

>  <Sp>
47.44

>  <Si>
82.3

>  <MZ>
0.63

>  <Mm>
0.59

>  <Mv>
0.6

>  <Mse>
1.01

>  <Mp>
0.65

>  <Mi>
1.13

>  <NsCH3>
5

>  <NdCH2>
0

>  <NssCH2>
6

>  <NtCH>
0

>  <NdsCH>
3

>  <NaaCH>
0

>  <NsssCH>
6

>  <NddC>
0

>  <NtsC>
0

>  <NdssC>
5

>  <NaasC>
0

>  <NaaaC>
0

>  <NssssC>
3

>  <NsNH3>
0

>  <NsNH2>
0

>  <NssNH2>
0

>  <NdNH>
0

>  <NssNH>
0

>  <NaaNH>
0

>  <NtN>
0

>  <NsssNH>
0

>  <NdsN>
0

>  <NaaN>
0

>  <NsssN>
0

>  <NddsN>
0

>  <NaasN>
0

>  <NssssN>
0

>  <NsOH>
1

>  <NdO>
4

>  <NssO>
2

>  <NaaO>
0

>  <NsF>
0

>  <NsSiH3>
0

>  <NssSiH2>
0

>  <NsssSiH>
0

>  <NssssSi>
0

>  <NsPH2>
0

>  <NssPH>
0

>  <NsssP>
0

>  <NdsssP>
0

>  <NsssssP>
0

>  <NsSH>
0

>  <NdS>
0

>  <NssS>
0

>  <NaaS>
0

>  <NdssS>
0

>  <NddssS>
0

>  <NsCl>
1

>  <NsBr>
0

>  <NsI>
0

>  <fragCpx>
261.08

>  <fMF>
0.23

>  <nHBAcc>
7

>  <nHBDon>
1

>  <Kier1>
28.99

>  <Kier2>
10.53

>  <Lipinski>
0

>  <GhoseFilter>
0

>  <FilterItLogS>
-4.67

>  <VMcGowan>
389.47

>  <LabuteASA>
217.16

>  <PEOE_VSA1>
14.58

>  <PEOE_VSA2>
19.18

>  <PEOE_VSA3>
0

>  <PEOE_VSA4>
0

>  <PEOE_VSA5>
11.6

>  <PEOE_VSA6>
46.27

>  <PEOE_VSA7>
43.25

>  <PEOE_VSA8>
40.88

>  <PEOE_VSA9>
6.1

>  <PEOE_VSA10>
0

>  <PEOE_VSA11>
17.99

>  <PEOE_VSA12>
5.78

>  <PEOE_VSA13>
0

>  <SMR_VSA1>
33.76

>  <SMR_VSA2>
0

>  <SMR_VSA3>
0

>  <SMR_VSA4>
34.5

>  <SMR_VSA5>
83.8

>  <SMR_VSA6>
6.61

>  <SMR_VSA7>
23.8

>  <SMR_VSA8>
0

>  <SMR_VSA9>
0

>  <SlogP_VSA1>
0

>  <SlogP_VSA2>
52.3

>  <SlogP_VSA3>
28.65

>  <SlogP_VSA4>
34.5

>  <SlogP_VSA5>
66.72

>  <SlogP_VSA6>
23.8

>  <SlogP_VSA7>
0

>  <SlogP_VSA8>
0

>  <SlogP_VSA9>
0

>  <SlogP_VSA10>
0

>  <SlogP_VSA11>
0

>  <EState_VSA1>
46.86

>  <EState_VSA2>
54.09

>  <EState_VSA3>
12.84

>  <EState_VSA4>
5.57

>  <EState_VSA5>
0

>  <EState_VSA6>
26

>  <EState_VSA7>
26.85

>  <EState_VSA8>
0

>  <EState_VSA9>
21.07

>  <EState_VSA10>
24.28

>  <VSA_EState1>
11.28

>  <VSA_EState2>
50.55

>  <VSA_EState3>
11.35

>  <VSA_EState4>
-2.06

>  <VSA_EState5>
-2.44

>  <VSA_EState6>
0

>  <VSA_EState7>
5.79

>  <VSA_EState8>
8.69

>  <VSA_EState9>
0

>  <apol>
79.23

>  <bpol>
44.57

>  <nRing>
4

>  <nHRing>
0

>  <naRing>
0

>  <naHRing>
0

>  <nARing 2>
4

>  <nAHRing 2>
0

>  <nFRing>
1

>  <nFHRing>
0

>  <nFaRing>
0

>  <nFaHRing>
0

>  <nFARing 2>
1

>  <nFAHRing 2>
0

>  <nRot>
6

>  <SLogP>
3.94

>  <SMR>
132.95

>  <TopoPSA(NO)>
106.97

>  <TopoPSA>
106.97

>  <JGI1>
0.29

>  <JGI2>
0.13

>  <JGI3>
0.08

>  <JGI4>
0.06

>  <JGI5>
0.03

>  <Diameter>
15

>  <Radius>
8

>  <TMWC10>
157.52

>  <TSRW10>
88.65

>  <MW>
520.22

>  <AMW>
7.13

>  <WPath>
3486

>  <WPol>
78

>  <Zagreb1>
202

>  <Zagreb2>
255

>  <mZagreb2>
7.8

>  <yes>


>  <nAR-cont>
0.199399

>  <nHA-cont>
0.477843619

>  <MWHBN>
0.350749019

>  <MWHBN-cont>
0.667447444

>  <TPSA-cont>
0.253282976

>  <pka_cont>
0.97

>  <yes.1>


>  <BBB_SCORE>
2.669979736

>  <MMFF94 Energy>
109.84

$$$$
Compound 1071
Actelion Java MolfileCreator 2.0

  0  0  0  0  0  0              0 V3000
M  V30 BEGIN CTAB
M  V30 COUNTS 70 74 0 0 0
M  V30 BEGIN ATOM
M  V30 1 F -2.7602 -0.8923 1.5417 0
M  V30 2 C -2.0719 -0.6839 0.3629 0 CFG=2
M  V30 3 C -3.0316 -1.1449 -0.8254 0
M  V30 4 C -0.7525 -1.4848 0.4996 0
M  V30 5 C -1.7593 0.8459 0.303 0
M  V30 6 C -4.2632 -0.2204 -0.8384 0
M  V30 7 C -3.4731 -2.6046 -0.7045 0
M  V30 8 C -2.3228 -1.0496 -2.1984 0
M  V30 9 O -0.9837 -2.8788 0.7298 0
M  V30 10 C 0.1026 -1.0185 1.6805 0
M  V30 11 C -0.8818 1.3343 1.4888 0
M  V30 12 C -3.0749 1.6552 0.2644 0
M  V30 13 C -5.5332 -0.6557 -0.7395 0
M  V30 14 C -3.9704 1.2529 -0.8968 0 CFG=2
M  V30 15 C -4.7379 -3.0346 -0.6047 0
M  V30 16 C 0.3836 0.4885 1.7962 0
M  V30 17 C -0.2959 2.7393 1.2555 0
M  V30 18 C -5.8646 -2.0865 -0.6105 0
M  V30 19 F -5.1117 1.9948 -0.812 0
M  V30 20 C 1.4865 1.0798 0.8459 0 CFG=1
M  V30 21 C 0.7893 0.7229 3.2829 0
M  V30 22 C 1.06 2.5272 0.5849 0 CFG=2
M  V30 23 O -7.0227 -2.4717 -0.5196 0
M  V30 24 O 2.769 1.1717 1.4774 0
M  V30 25 C 1.6791 0.3314 -0.4841 0
M  V30 26 O 2.0394 3.3643 1.1941 0
M  V30 27 C 3.1801 2.5418 1.413 0
M  V30 28 O 0.9255 0.5264 -1.4431 0
M  V30 29 C 2.8188 -0.6822 -0.5529 0
M  V30 30 C 3.8338 2.9291 2.7321 0
M  V30 31 C 4.163 2.7266 0.2576 0
M  V30 32 O 2.6059 -1.5657 -1.6549 0
M  V30 33 C 3.6148 -2.4558 -1.8475 0
M  V30 34 O 4.628 -2.5239 -1.166 0
M  V30 35 C 3.3174 -3.3481 -3.0228 0
M  V30 36 C 3.5049 -2.6072 -4.3316 0
M  V30 37 H -0.1817 -1.4298 -0.4259 0
M  V30 38 H -1.2285 1.0612 -0.6272 0
M  V30 39 H -2.6998 -3.3688 -0.7498 0
M  V30 40 H -1.495 -1.7638 -2.2783 0
M  V30 41 H -1.9093 -0.0565 -2.3961 0
M  V30 42 H -3.0169 -1.2735 -3.0191 0
M  V30 43 H -1.6141 -2.9426 1.4748 0
M  V30 44 H 1.0421 -1.5846 1.6991 0
M  V30 45 H -0.4168 -1.3499 2.5928 0
M  V30 46 H -1.5284 1.3644 2.3767 0
M  V30 47 H -2.8816 2.7294 0.179 0
M  V30 48 H -3.6233 1.532 1.2083 0
M  V30 49 H -6.3838 0.0183 -0.7279 0
M  V30 50 H -3.5036 1.5114 -1.8523 0
M  V30 51 H -4.9928 -4.0856 -0.5385 0
M  V30 52 H -0.9279 3.3833 0.6389 0
M  V30 53 H -0.1779 3.2634 2.2121 0
M  V30 54 H -0.0192 0.4296 3.9633 0
M  V30 55 H 1.6712 0.1293 3.55 0
M  V30 56 H 1.0135 1.7719 3.4955 0
M  V30 57 H 1.0023 2.789 -0.477 0
M  V30 58 H 3.7545 -0.1306 -0.6901 0
M  V30 59 H 2.8434 -1.2647 0.3722 0
M  V30 60 H 4.6963 2.291 2.9513 0
M  V30 61 H 3.1289 2.8152 3.5625 0
M  V30 62 H 4.1529 3.9768 2.7259 0
M  V30 63 H 5.0325 2.0704 0.3689 0
M  V30 64 H 4.5026 3.7658 0.1907 0
M  V30 65 H 3.6951 2.4845 -0.7027 0
M  V30 66 H 2.2973 -3.736 -2.9284 0
M  V30 67 H 3.991 -4.2109 -2.9767 0
M  V30 68 H 3.3242 -3.2762 -5.1784 0
M  V30 69 H 4.5227 -2.212 -4.4159 0
M  V30 70 H 2.8131 -1.762 -4.4103 0
M  V30 END ATOM
M  V30 BEGIN BOND
M  V30 1 1 1 2
M  V30 2 1 2 3
M  V30 3 1 2 4
M  V30 4 1 2 5
M  V30 5 1 3 6
M  V30 6 1 3 7
M  V30 7 1 3 8
M  V30 8 1 4 9
M  V30 9 1 4 10
M  V30 10 1 5 11
M  V30 11 1 5 12
M  V30 12 2 6 13
M  V30 13 1 6 14
M  V30 14 2 7 15
M  V30 15 1 10 16
M  V30 16 1 11 17
M  V30 17 1 13 18
M  V30 18 1 14 19
M  V30 19 1 16 20
M  V30 20 1 16 21
M  V30 21 1 17 22
M  V30 22 2 18 23
M  V30 23 1 20 24
M  V30 24 1 20 25
M  V30 25 1 22 26
M  V30 26 1 24 27
M  V30 27 2 25 28
M  V30 28 1 25 29
M  V30 29 1 27 30
M  V30 30 1 27 31
M  V30 31 1 29 32
M  V30 32 1 32 33
M  V30 33 2 33 34
M  V30 34 1 33 35
M  V30 35 1 35 36
M  V30 36 1 11 16
M  V30 37 1 12 14
M  V30 38 1 15 18
M  V30 39 1 20 22
M  V30 40 1 26 27
M  V30 41 1 4 37
M  V30 42 1 5 38
M  V30 43 1 7 39
M  V30 44 1 8 40
M  V30 45 1 8 41
M  V30 46 1 8 42
M  V30 47 1 9 43
M  V30 48 1 10 44
M  V30 49 1 10 45
M  V30 50 1 11 46
M  V30 51 1 12 47
M  V30 52 1 12 48
M  V30 53 1 13 49
M  V30 54 1 14 50
M  V30 55 1 15 51
M  V30 56 1 17 52
M  V30 57 1 17 53
M  V30 58 1 21 54
M  V30 59 1 21 55
M  V30 60 1 21 56
M  V30 61 1 22 57
M  V30 62 1 29 58
M  V30 63 1 29 59
M  V30 64 1 30 60
M  V30 65 1 30 61
M  V30 66 1 30 62
M  V30 67 1 31 63
M  V30 68 1 31 64
M  V30 69 1 31 65
M  V30 70 1 35 66
M  V30 71 1 35 67
M  V30 72 1 36 68
M  V30 73 1 36 69
M  V30 74 1 36 70
M  V30 END BOND
M  V30 BEGIN COLLECTION
M  V30 MDLV30/STEABS ATOMS=(4 2 14 20 22)
M  V30 END COLLECTION
M  V30 END CTAB
M  END
>  <Column 1>
1276

>  <level_0>
1419

>  <index>
1419

>  <Unnamed: 0>
1419

>  <NO.>
1431

>  <Name>
akos024419646

>  <IUPAC_name>
[2-[(4r-8s-12r-19s)-12-19-difluoro-11-hydroxy-6-6-9-13-tetramethyl-16-oxo-5-7-dioxapentacyclo[10.8.0.02-9.04-8.013-18]icosa-14-17-dien-8-yl]-2-oxoethyl] propanoate

>  <SMILES>
CCC(=O)OCC(=O)[C@@]12OC(C)(C)O[C@@H]1CC1C3C[C@H](F)C4=CC(=O)C=CC4(C)[C@@]3(F)C(O)CC12C

>  <CID>
42761

>  <logBB>


>  <BBB+/BBB->
BBB+

>  <Inchi>
InChI=1S/C27H34F2O7/c1-6-22(33)34-13-20(32)27-21(35-23(2-3)36-27)11-15-16-10-18(28)17-9-14(30)7-8-24(17-4)26(16-29)19(31)12-25(15-27)5/h7-9-15-16-18-19-21-31H-6-10-13H2-1-5H3/t15?-16?-18--19?-21+-24?-25?-26--27+/m0/s1

>  <threshold>
-1

>  <reference>
R1|R27|R30|

>  <group>
B

>  <Class>
-1

>  <ABC>
28.99

>  <ABCGG>
23.5

>  <nAcid>
0

>  <nBase>
0

>  <nAromAtom>
0

>  <nAromBond>
0

>  <nAtom>
70

>  <nHeavyAtom>
36

>  <nSpiro>
0

>  <nBridgehead>
0

>  <nHetero>
9

>  <nN>
0

>  <nO>
7

>  <nF>
2

>  <BalabanJ>
1.55

>  <BertzCT>
1083.99

>  <nBonds>
74

>  <nBondsO>
40

>  <nBondsS>
69

>  <nBondsD>
5

>  <nBondsT>
0

>  <nBondsA>
0

>  <nBondsM>
5

>  <nBondsKS>
69

>  <nBondsKD>
5

>  <RNCG>
0.14

>  <RPCG>
0.1

>  <FCSP3>
0.74

>  <SZ>
45

>  <Sm>
42.34

>  <Sv>
42.51

>  <Sse>
71.32

>  <Sp>
44.6

>  <Si>
79.62

>  <MZ>
0.64

>  <Mm>
0.6

>  <Mv>
0.61

>  <Mse>
1.02

>  <Mp>
0.64

>  <Mi>
1.14

>  <NsCH3>
5

>  <NdCH2>
0

>  <NssCH2>
5

>  <NtCH>
0

>  <NdsCH>
3

>  <NaaCH>
0

>  <NsssCH>
5

>  <NddC>
0

>  <NtsC>
0

>  <NdssC>
4

>  <NaasC>
0

>  <NaaaC>
0

>  <NssssC>
5

>  <NsNH3>
0

>  <NsNH2>
0

>  <NssNH2>
0

>  <NdNH>
0

>  <NssNH>
0

>  <NaaNH>
0

>  <NtN>
0

>  <NsssNH>
0

>  <NdsN>
0

>  <NaaN>
0

>  <NsssN>
0

>  <NddsN>
0

>  <NaasN>
0

>  <NssssN>
0

>  <NsOH>
1

>  <NdO>
3

>  <NssO>
3

>  <NaaO>
0

>  <NsF>
2

>  <NsSiH3>
0

>  <NssSiH2>
0

>  <NsssSiH>
0

>  <NssssSi>
0

>  <NsPH2>
0

>  <NssPH>
0

>  <NsssP>
0

>  <NdsssP>
0

>  <NsssssP>
0

>  <NsSH>
0

>  <NdS>
0

>  <NssS>
0

>  <NaaS>
0

>  <NdssS>
0

>  <NddssS>
0

>  <NsCl>
0

>  <NsBr>
0

>  <NsI>
0

>  <fragCpx>
340.09

>  <fMF>
0.29

>  <nHBAcc>
7

>  <nHBDon>
1

>  <Kier1>
27.56

>  <Kier2>
8.75

>  <Lipinski>
0

>  <GhoseFilter>
0

>  <FilterItLogS>
-4.49

>  <VMcGowan>
360.1

>  <LabuteASA>
208.77

>  <PEOE_VSA1>
19.32

>  <PEOE_VSA2>
14.38

>  <PEOE_VSA3>
8.78

>  <PEOE_VSA4>
0

>  <PEOE_VSA5>
0

>  <PEOE_VSA6>
19.92

>  <PEOE_VSA7>
63.68

>  <PEOE_VSA8>
23.17

>  <PEOE_VSA9>
12.21

>  <PEOE_VSA10>
6.17

>  <PEOE_VSA11>
29.45

>  <PEOE_VSA12>
5.78

>  <PEOE_VSA13>
0

>  <SMR_VSA1>
42.48

>  <SMR_VSA2>
0

>  <SMR_VSA3>
0

>  <SMR_VSA4>
22.67

>  <SMR_VSA5>
95.74

>  <SMR_VSA6>
6.61

>  <SMR_VSA7>
23.8

>  <SMR_VSA8>
0

>  <SMR_VSA9>
0

>  <SlogP_VSA1>
0

>  <SlogP_VSA2>
64.69

>  <SlogP_VSA3>
28.59

>  <SlogP_VSA4>
22.67

>  <SlogP_VSA5>
60.3

>  <SlogP_VSA6>
23.8

>  <SlogP_VSA7>
0

>  <SlogP_VSA8>
0

>  <SlogP_VSA9>
0

>  <SlogP_VSA10>
8.78

>  <SlogP_VSA11>
0

>  <EState_VSA1>
82.25

>  <EState_VSA2>
31.26

>  <EState_VSA3>
0

>  <EState_VSA4>
6.08

>  <EState_VSA5>
19.08

>  <EState_VSA6>
27.69

>  <EState_VSA7>
0

>  <EState_VSA8>
0

>  <EState_VSA9>
14.21

>  <EState_VSA10>
19.49

>  <VSA_EState1>
50.6

>  <VSA_EState2>
37.58

>  <VSA_EState3>
11.5

>  <VSA_EState4>
-6.46

>  <VSA_EState5>
-4.13

>  <VSA_EState6>
0

>  <VSA_EState7>
-0.24

>  <VSA_EState8>
7.73

>  <VSA_EState9>
0

>  <apol>
74.49

>  <bpol>
44.15

>  <nRing>
5

>  <nHRing>
1

>  <naRing>
0

>  <naHRing>
0

>  <nARing 2>
5

>  <nAHRing 2>
1

>  <nFRing>
1

>  <nFHRing>
1

>  <nFaRing>
0

>  <nFaHRing>
0

>  <nFARing 2>
1

>  <nFAHRing 2>
1

>  <nRot>
4

>  <SLogP>
3.33

>  <SMR>
123.04

>  <TopoPSA(NO)>
99.13

>  <TopoPSA>
99.13

>  <JGI1>
0.34

>  <JGI2>
0.14

>  <JGI3>
0.08

>  <JGI4>
0.06

>  <JGI5>
0.04

>  <Diameter>
15

>  <Radius>
8

>  <TMWC10>
159.97

>  <TSRW10>
91.13

>  <MW>
508.23

>  <AMW>
7.26

>  <WPath>
3413

>  <WPol>
84

>  <Zagreb1>
216

>  <Zagreb2>
279

>  <mZagreb2>
7.39

>  <yes>


>  <nAR-cont>
0

>  <nHA-cont>
0.477843619

>  <MWHBN>
0.35486228

>  <MWHBN-cont>
0.65196167

>  <TPSA-cont>
0.308011044

>  <pka_cont>
0.97

>  <yes.1>


>  <BBB_SCORE>
2.556808211

>  <MMFF94 Energy>
144.58

$$$$
Compound 1072
Actelion Java MolfileCreator 2.0

  0  0  0  0  0  0              0 V3000
M  V30 BEGIN CTAB
M  V30 COUNTS 64 67 0 0 0
M  V30 BEGIN ATOM
M  V30 1 Cl -2.1146 1.2195 -5.5377 0
M  V30 2 C -1.926 0.6448 -3.8743 0
M  V30 3 C -1.4911 1.7775 -2.9628 0
M  V30 4 O -2.1254 2.8355 -2.944 0
M  V30 5 C -0.3444 1.4694 -1.9473 0 CFG=2
M  V30 6 O 0.6737 0.621 -2.5574 0
M  V30 7 C -0.9117 0.6675 -0.6997 0 CFG=2
M  V30 8 C 0.4141 2.6858 -1.2701 0 CFG=2
M  V30 9 C 1.3388 1.095 -3.6506 0
M  V30 10 C 0.2331 0.8787 0.3185 0 CFG=1
M  V30 11 C -1.0747 -0.8605 -0.888 0
M  V30 12 C -2.2576 1.2893 -0.2314 0
M  V30 13 C 0.4777 2.3781 0.2468 0
M  V30 14 C -0.1039 4.0985 -1.5063 0
M  V30 15 O 1.0985 2.1593 -4.195 0
M  V30 16 C 2.3867 0.0971 -4.0752 0
M  V30 17 C -0.0321 0.2472 1.6953 0 CFG=1
M  V30 18 C -1.294 -1.6294 0.4362 0 CFG=1
M  V30 19 C 3.1497 0.5631 -5.3022 0
M  V30 20 C -0.2223 -1.2957 1.5194 0 CFG=1
M  V30 21 C 1.1283 0.5562 2.6606 0
M  V30 22 O -2.6225 -1.4079 0.8944 0
M  V30 23 F 0.9705 -1.7599 0.9827 0
M  V30 24 C -0.4014 -2.0348 2.9088 0 CFG=2
M  V30 25 C 0.9683 -0.1423 4.0063 0
M  V30 26 C 0.7761 -1.624 3.8118 0
M  V30 27 C -0.4353 -3.5514 2.7187 0
M  V30 28 C -1.7105 -1.6714 3.6471 0
M  V30 29 C 1.6329 -2.4992 4.3675 0
M  V30 30 C 0.4212 -4.419 3.2736 0
M  V30 31 C 1.5138 -3.9546 4.1482 0
M  V30 32 O 2.2901 -4.7443 4.6704 0
M  V30 33 H -2.8849 0.2555 -3.5208 0
M  V30 34 H -1.2055 -0.1732 -3.8892 0
M  V30 35 H 1.4566 2.6848 -1.6155 0
M  V30 36 H 1.1449 0.3988 -0.0717 0
M  V30 37 H -0.1793 -1.2796 -1.3621 0
M  V30 38 H -1.913 -1.0593 -1.5655 0
M  V30 39 H -3.0769 0.9832 -0.8918 0
M  V30 40 H -2.541 0.9944 0.7803 0
M  V30 41 H -2.2387 2.3826 -0.2313 0
M  V30 42 H 1.4565 2.6531 0.6545 0
M  V30 43 H -0.2788 2.9341 0.8119 0
M  V30 44 H 0.5368 4.8258 -0.9946 0
M  V30 45 H -1.118 4.238 -1.1212 0
M  V30 46 H -0.0889 4.3499 -2.5712 0
M  V30 47 H 1.8904 -0.8536 -4.2956 0
M  V30 48 H 3.0853 -0.0461 -3.2443 0
M  V30 49 H -0.9379 0.6827 2.1286 0
M  V30 50 H -1.219 -2.6948 0.1902 0
M  V30 51 H 3.9017 -0.1785 -5.588 0
M  V30 52 H 3.6603 1.5126 -5.1104 0
M  V30 53 H 2.4748 0.7118 -6.1516 0
M  V30 54 H 1.1916 1.6365 2.8365 0
M  V30 55 H 2.0814 0.2549 2.2064 0
M  V30 56 H -3.2366 -1.7653 0.2284 0
M  V30 57 H 0.1121 0.2753 4.5485 0
M  V30 58 H 1.8515 0.068 4.6217 0
M  V30 59 H -1.2368 -3.9585 2.1065 0
M  V30 60 H -2.5884 -2.1482 3.1982 0
M  V30 61 H -1.8986 -0.5939 3.6674 0
M  V30 62 H -1.6823 -2.0107 4.6912 0
M  V30 63 H 2.4664 -2.193 4.9892 0
M  V30 64 H 0.35 -5.4888 3.1208 0
M  V30 END ATOM
M  V30 BEGIN BOND
M  V30 1 1 1 2
M  V30 2 1 2 3
M  V30 3 2 3 4
M  V30 4 1 3 5
M  V30 5 1 5 6
M  V30 6 1 5 7
M  V30 7 1 5 8
M  V30 8 1 6 9
M  V30 9 1 7 10
M  V30 10 1 7 11
M  V30 11 1 7 12
M  V30 12 1 8 13
M  V30 13 1 8 14
M  V30 14 2 9 15
M  V30 15 1 9 16
M  V30 16 1 10 17
M  V30 17 1 11 18
M  V30 18 1 16 19
M  V30 19 1 17 20
M  V30 20 1 17 21
M  V30 21 1 18 22
M  V30 22 1 20 23
M  V30 23 1 20 24
M  V30 24 1 21 25
M  V30 25 1 24 26
M  V30 26 1 24 27
M  V30 27 1 24 28
M  V30 28 2 26 29
M  V30 29 2 27 30
M  V30 30 1 29 31
M  V30 31 2 31 32
M  V30 32 1 10 13
M  V30 33 1 18 20
M  V30 34 1 25 26
M  V30 35 1 30 31
M  V30 36 1 2 33
M  V30 37 1 2 34
M  V30 38 1 8 35
M  V30 39 1 10 36
M  V30 40 1 11 37
M  V30 41 1 11 38
M  V30 42 1 12 39
M  V30 43 1 12 40
M  V30 44 1 12 41
M  V30 45 1 13 42
M  V30 46 1 13 43
M  V30 47 1 14 44
M  V30 48 1 14 45
M  V30 49 1 14 46
M  V30 50 1 16 47
M  V30 51 1 16 48
M  V30 52 1 17 49
M  V30 53 1 18 50
M  V30 54 1 19 51
M  V30 55 1 19 52
M  V30 56 1 19 53
M  V30 57 1 21 54
M  V30 58 1 21 55
M  V30 59 1 22 56
M  V30 60 1 25 57
M  V30 61 1 25 58
M  V30 62 1 27 59
M  V30 63 1 28 60
M  V30 64 1 28 61
M  V30 65 1 28 62
M  V30 66 1 29 63
M  V30 67 1 30 64
M  V30 END BOND
M  V30 BEGIN COLLECTION
M  V30 MDLV30/STEABS ATOMS=(8 5 7 8 10 17 18 20 24)
M  V30 END COLLECTION
M  V30 END CTAB
M  END
>  <Column 1>
1278

>  <level_0>
1422

>  <index>
1422

>  <Unnamed: 0>
1422

>  <NO.>
1434

>  <Name>
clobetasol-propionate

>  <IUPAC_name>
[(8s-9r-10s-11s-13s-14s-16s-17r)-17-(2-chloroacetyl)-9-fluoro-11-hydroxy-10-13-16-trimethyl-3-oxo-6-7-8-11-12-14-15-16-octahydrocyclopenta[a]phenanthren-17-yl] propanoate

>  <SMILES>
CCC(=O)O[C@]1(C(=O)CCl)[C@@H](C)C[C@H]2[C@@H]3CCC4=CC(=O)C=C[C@]4(C)[C@@]3(F)[C@@H](O)C[C@@]21C

>  <CID>
32798

>  <logBB>


>  <BBB+/BBB->
BBB+

>  <Inchi>
InChI=1S/C25H32ClFO5/c1-5-21(31)32-25(20(30)13-26)14(2)10-18-17-7-6-15-11-16(28)8-9-22(15-3)24(17-27)19(29)12-23(18-25)4/h8-9-11-14-17-19-29H-5-7-10-12-13H2-1-4H3/t14--17--18--19--22--23--24--25-/m0/s1

>  <threshold>
-1

>  <reference>
R1|R6|R27|R30|

>  <group>
B

>  <Class>
1

>  <ABC>
25.17

>  <ABCGG>
21.26

>  <nAcid>
0

>  <nBase>
0

>  <nAromAtom>
0

>  <nAromBond>
0

>  <nAtom>
64

>  <nHeavyAtom>
32

>  <nSpiro>
0

>  <nBridgehead>
0

>  <nHetero>
7

>  <nN>
0

>  <nO>
5

>  <nF>
1

>  <BalabanJ>
1.79

>  <BertzCT>
929.29

>  <nBonds>
67

>  <nBondsO>
35

>  <nBondsS>
62

>  <nBondsD>
5

>  <nBondsT>
0

>  <nBondsA>
0

>  <nBondsM>
5

>  <nBondsKS>
62

>  <nBondsKD>
5

>  <RNCG>
0.18

>  <RPCG>
0.12

>  <FCSP3>
0.72

>  <SZ>
41.33

>  <Sm>
38.88

>  <Sv>
38.98

>  <Sse>
64.58

>  <Sp>
41.82

>  <Si>
72.39

>  <MZ>
0.65

>  <Mm>
0.61

>  <Mv>
0.61

>  <Mse>
1.01

>  <Mp>
0.65

>  <Mi>
1.13

>  <NsCH3>
4

>  <NdCH2>
0

>  <NssCH2>
6

>  <NtCH>
0

>  <NdsCH>
3

>  <NaaCH>
0

>  <NsssCH>
4

>  <NddC>
0

>  <NtsC>
0

>  <NdssC>
4

>  <NaasC>
0

>  <NaaaC>
0

>  <NssssC>
4

>  <NsNH3>
0

>  <NsNH2>
0

>  <NssNH2>
0

>  <NdNH>
0

>  <NssNH>
0

>  <NaaNH>
0

>  <NtN>
0

>  <NsssNH>
0

>  <NdsN>
0

>  <NaaN>
0

>  <NsssN>
0

>  <NddsN>
0

>  <NaasN>
0

>  <NssssN>
0

>  <NsOH>
1

>  <NdO>
3

>  <NssO>
1

>  <NaaO>
0

>  <NsF>
1

>  <NsSiH3>
0

>  <NssSiH2>
0

>  <NsssSiH>
0

>  <NssssSi>
0

>  <NsPH2>
0

>  <NssPH>
0

>  <NsssP>
0

>  <NdsssP>
0

>  <NsssssP>
0

>  <NsSH>
0

>  <NdS>
0

>  <NssS>
0

>  <NaaS>
0

>  <NdssS>
0

>  <NddssS>
0

>  <NsCl>
1

>  <NsBr>
0

>  <NsI>
0

>  <fragCpx>
233.07

>  <fMF>
0.27

>  <nHBAcc>
5

>  <nHBDon>
1

>  <Kier1>
25.1

>  <Kier2>
8.29

>  <Lipinski>
1

>  <GhoseFilter>
1

>  <FilterItLogS>
-4.97

>  <VMcGowan>
341.52

>  <LabuteASA>
192.96

>  <PEOE_VSA1>
9.84

>  <PEOE_VSA2>
14.38

>  <PEOE_VSA3>
4.39

>  <PEOE_VSA4>
0

>  <PEOE_VSA5>
11.6

>  <PEOE_VSA6>
32.42

>  <PEOE_VSA7>
50.68

>  <PEOE_VSA8>
29.09

>  <PEOE_VSA9>
11.98

>  <PEOE_VSA10>
0

>  <PEOE_VSA11>
22.84

>  <PEOE_VSA12>
0

>  <PEOE_VSA13>
0

>  <SMR_VSA1>
28.62

>  <SMR_VSA2>
0

>  <SMR_VSA3>
0

>  <SMR_VSA4>
28.58

>  <SMR_VSA5>
77.17

>  <SMR_VSA6>
5.88

>  <SMR_VSA7>
23.8

>  <SMR_VSA8>
0

>  <SMR_VSA9>
0

>  <SlogP_VSA1>
0

>  <SlogP_VSA2>
45.9

>  <SlogP_VSA3>
19.12

>  <SlogP_VSA4>
28.58

>  <SlogP_VSA5>
59.8

>  <SlogP_VSA6>
23.8

>  <SlogP_VSA7>
0

>  <SlogP_VSA8>
0

>  <SlogP_VSA9>
0

>  <SlogP_VSA10>
4.39

>  <SlogP_VSA11>
0

>  <EState_VSA1>
40.09

>  <EState_VSA2>
42.12

>  <EState_VSA3>
24.84

>  <EState_VSA4>
0

>  <EState_VSA5>
12.15

>  <EState_VSA6>
19.92

>  <EState_VSA7>
13.85

>  <EState_VSA8>
0

>  <EState_VSA9>
16.34

>  <EState_VSA10>
19.49

>  <VSA_EState1>
23.1

>  <VSA_EState2>
37.7

>  <VSA_EState3>
11.4

>  <VSA_EState4>
-4.83

>  <VSA_EState5>
-2.57

>  <VSA_EState6>
0

>  <VSA_EState7>
4.67

>  <VSA_EState8>
7.13

>  <VSA_EState9>
0

>  <apol>
69.83

>  <bpol>
38.07

>  <nRing>
4

>  <nHRing>
0

>  <naRing>
0

>  <naHRing>
0

>  <nARing 2>
4

>  <nAHRing 2>
0

>  <nFRing>
1

>  <nFHRing>
0

>  <nFaRing>
0

>  <nFaHRing>
0

>  <nFARing 2>
1

>  <nFAHRing 2>
0

>  <nRot>
4

>  <SLogP>
4.1

>  <SMR>
117.74

>  <TopoPSA(NO)>
80.67

>  <TopoPSA>
80.67

>  <JGI1>
0.31

>  <JGI2>
0.15

>  <JGI3>
0.08

>  <JGI4>
0.06

>  <JGI5>
0.04

>  <Diameter>
13

>  <Radius>
7

>  <TMWC10>
149.49

>  <TSRW10>
84.51

>  <MW>
466.19

>  <AMW>
7.28

>  <WPath>
2420

>  <WPol>
77

>  <Zagreb1>
186

>  <Zagreb2>
242

>  <mZagreb2>
6.86

>  <yes>


>  <nAR-cont>
0.199399

>  <nHA-cont>
0.658856097

>  <MWHBN>
0.277887988

>  <MWHBN-cont>
0.901372797

>  <TPSA-cont>
0.436873307

>  <pka_cont>
0.97

>  <yes.1>


>  <BBB_SCORE>
3.569060906

>  <MMFF94 Energy>
150.29

$$$$
Compound 1073
Actelion Java MolfileCreator 2.0

  0  0  0  0  0  0              0 V3000
M  V30 BEGIN CTAB
M  V30 COUNTS 69 72 0 0 0
M  V30 BEGIN ATOM
M  V30 1 O 3.137 6.6852 1.7686 0
M  V30 2 C 2.6402 5.6737 1.2774 0
M  V30 3 C 3.3114 4.3684 1.4799 0
M  V30 4 C 1.3752 5.7241 0.4556 0
M  V30 5 C 2.8848 3.2482 0.8692 0
M  V30 6 C 0.7106 4.3543 0.3364 0
M  V30 7 C 1.6914 3.233 -0.0974 0 CFG=2
M  V30 8 C 3.531 1.9241 1.2139 0
M  V30 9 C 1.0133 1.8241 0.0286 0 CFG=1
M  V30 10 C 2.1993 3.5381 -1.5271 0
M  V30 11 C 3.415 0.8761 0.1118 0
M  V30 12 C -0.3931 1.6608 -0.6006 0 CFG=1
M  V30 13 C 1.9816 0.6834 -0.4277 0 CFG=1
M  V30 14 O -0.3614 1.9555 -1.9874 0
M  V30 15 C -0.9822 0.2492 -0.3628 0
M  V30 16 C 1.3374 -0.6529 -0.0297 0 CFG=1
M  V30 17 C -0.0231 -0.9068 -0.7396 0 CFG=1
M  V30 18 C 2.0981 -1.9493 -0.2707 0
M  V30 19 C -0.372 -2.3294 -0.1462 0 CFG=1
M  V30 20 C 0.1022 -0.9908 -2.2889 0
M  V30 21 C 1.018 -3.0473 -0.1943 0
M  V30 22 O -0.7515 -2.1383 1.2399 0
M  V30 23 C -1.4544 -3.0605 -0.9929 0
M  V30 24 C -1.0639 -3.231 1.9913 0
M  V30 25 O -1.1541 -3.7914 -1.9413 0
M  V30 26 C -2.912 -2.7806 -0.6394 0
M  V30 27 O -1.1392 -4.369 1.5582 0
M  V30 28 C -1.3237 -2.8062 3.4154 0
M  V30 29 O -3.7608 -3.0438 -1.757 0
M  V30 30 C -1.6567 -3.9875 4.3091 0
M  V30 31 C -5.0652 -2.7351 -1.5393 0
M  V30 32 O -5.5068 -2.2328 -0.5151 0
M  V30 33 C -5.8884 -3.0854 -2.74 0
M  V30 34 H 4.1455 4.3777 2.1732 0
M  V30 35 H 1.6211 6.1315 -0.5301 0
M  V30 36 H 0.6774 6.4152 0.9418 0
M  V30 37 H 0.268 4.0956 1.3087 0
M  V30 38 H -0.121 4.439 -0.373 0
M  V30 39 H 4.592 2.0665 1.4539 0
M  V30 40 H 3.0518 1.5316 2.1203 0
M  V30 41 H 0.8358 1.6731 1.1072 0
M  V30 42 H 2.8203 4.4411 -1.5537 0
M  V30 43 H 2.8185 2.7396 -1.9424 0
M  V30 44 H 1.3696 3.7072 -2.2201 0
M  V30 45 H 3.8418 -0.0651 0.4713 0
M  V30 46 H 4.0609 1.184 -0.7213 0
M  V30 47 H -1.0808 2.3798 -0.1413 0
M  V30 48 H 2.0734 0.7002 -1.5185 0
M  V30 49 H -1.2732 1.92 -2.3253 0
M  V30 50 H -1.9149 0.1516 -0.9301 0
M  V30 51 H -1.2479 0.1819 0.6989 0
M  V30 52 H 1.1704 -0.5974 1.0578 0
M  V30 53 H 2.8737 -2.1193 0.4827 0
M  V30 54 H 2.5854 -1.9549 -1.2519 0
M  V30 55 H 0.5873 -0.1205 -2.7329 0
M  V30 56 H 0.6796 -1.8597 -2.6191 0
M  V30 57 H -0.8883 -1.0675 -2.7522 0
M  V30 58 H 1.1251 -3.7089 -1.0603 0
M  V30 59 H 1.1972 -3.6585 0.6961 0
M  V30 60 H -3.1989 -3.4346 0.1891 0
M  V30 61 H -3.0123 -1.7325 -0.3467 0
M  V30 62 H -2.1602 -2.0995 3.4189 0
M  V30 63 H -0.4279 -2.3043 3.796 0
M  V30 64 H -1.8367 -3.6511 5.3348 0
M  V30 65 H -0.8358 -4.712 4.3251 0
M  V30 66 H -2.5542 -4.5066 3.9564 0
M  V30 67 H -5.5599 -2.4955 -3.5992 0
M  V30 68 H -5.8013 -4.1543 -2.9503 0
M  V30 69 H -6.9387 -2.8558 -2.5386 0
M  V30 END ATOM
M  V30 BEGIN BOND
M  V30 1 2 1 2
M  V30 2 1 2 3
M  V30 3 1 2 4
M  V30 4 2 3 5
M  V30 5 1 4 6
M  V30 6 1 5 7
M  V30 7 1 5 8
M  V30 8 1 7 9
M  V30 9 1 7 10
M  V30 10 1 8 11
M  V30 11 1 9 12
M  V30 12 1 9 13
M  V30 13 1 12 14
M  V30 14 1 12 15
M  V30 15 1 13 16
M  V30 16 1 15 17
M  V30 17 1 16 18
M  V30 18 1 17 19
M  V30 19 1 17 20
M  V30 20 1 18 21
M  V30 21 1 19 22
M  V30 22 1 19 23
M  V30 23 1 22 24
M  V30 24 2 23 25
M  V30 25 1 23 26
M  V30 26 2 24 27
M  V30 27 1 24 28
M  V30 28 1 26 29
M  V30 29 1 28 30
M  V30 30 1 29 31
M  V30 31 2 31 32
M  V30 32 1 31 33
M  V30 33 1 6 7
M  V30 34 1 11 13
M  V30 35 1 16 17
M  V30 36 1 19 21
M  V30 37 1 3 34
M  V30 38 1 4 35
M  V30 39 1 4 36
M  V30 40 1 6 37
M  V30 41 1 6 38
M  V30 42 1 8 39
M  V30 43 1 8 40
M  V30 44 1 9 41
M  V30 45 1 10 42
M  V30 46 1 10 43
M  V30 47 1 10 44
M  V30 48 1 11 45
M  V30 49 1 11 46
M  V30 50 1 12 47
M  V30 51 1 13 48
M  V30 52 1 14 49
M  V30 53 1 15 50
M  V30 54 1 15 51
M  V30 55 1 16 52
M  V30 56 1 18 53
M  V30 57 1 18 54
M  V30 58 1 20 55
M  V30 59 1 20 56
M  V30 60 1 20 57
M  V30 61 1 21 58
M  V30 62 1 21 59
M  V30 63 1 26 60
M  V30 64 1 26 61
M  V30 65 1 28 62
M  V30 66 1 28 63
M  V30 67 1 30 64
M  V30 68 1 30 65
M  V30 69 1 30 66
M  V30 70 1 33 67
M  V30 71 1 33 68
M  V30 72 1 33 69
M  V30 END BOND
M  V30 BEGIN COLLECTION
M  V30 MDLV30/STEABS ATOMS=(7 7 9 12 13 16 17 19)
M  V30 END COLLECTION
M  V30 END CTAB
M  END
>  <Column 1>
1279

>  <level_0>
1423

>  <index>
1423

>  <Unnamed: 0>
1423

>  <NO.>
1435

>  <Name>
hydrocortisone-aceponate

>  <IUPAC_name>
[(8s-9s-10r-11s-13s-14s-17r)-17-(2-acetyloxyacetyl)-11-hydroxy-10-13-dimethyl-3-oxo-2-6-7-8-9-11-12-14-15-16-decahydro-1h-cyclopenta[a]phenanthren-17-yl] propanoate

>  <SMILES>
CCC(=O)O[C@]1(C(=O)COC(C)=O)CC[C@H]2[C@@H]3CCC4=CC(=O)CC[C@]4(C)[C@H]3[C@@H](O)C[C@@]21C

>  <CID>
68921

>  <logBB>


>  <BBB+/BBB->
BBB+

>  <Inchi>
InChI=1S/C26H36O7/c1-5-22(31)33-26(21(30)14-32-15(2)27)11-9-19-18-7-6-16-12-17(28)8-10-24(16-3)23(18)20(29)13-25(19-26)4/h12-18-20-23-29H-5-11-13-14H2-1-4H3/t18--19--20--23+-24--25--26-/m0/s1

>  <threshold>
-1

>  <reference>
R1|R6|R27|R30|

>  <group>
B

>  <Class>
1

>  <ABC>
25.97

>  <ABCGG>
21.23

>  <nAcid>
0

>  <nBase>
0

>  <nAromAtom>
0

>  <nAromBond>
0

>  <nAtom>
69

>  <nHeavyAtom>
33

>  <nSpiro>
0

>  <nBridgehead>
0

>  <nHetero>
7

>  <nN>
0

>  <nO>
7

>  <nF>
0

>  <BalabanJ>
1.67

>  <BertzCT>
906.32

>  <nBonds>
72

>  <nBondsO>
36

>  <nBondsS>
67

>  <nBondsD>
5

>  <nBondsT>
0

>  <nBondsA>
0

>  <nBondsM>
5

>  <nBondsKS>
67

>  <nBondsKD>
5

>  <RNCG>
0.16

>  <RPCG>
0.11

>  <FCSP3>
0.77

>  <SZ>
41.33

>  <Sm>
38.35

>  <Sv>
40.76

>  <Sse>
69.3

>  <Sp>
43.74

>  <Si>
77.94

>  <MZ>
0.6

>  <Mm>
0.56

>  <Mv>
0.59

>  <Mse>
1

>  <Mp>
0.63

>  <Mi>
1.13

>  <NsCH3>
4

>  <NdCH2>
0

>  <NssCH2>
9

>  <NtCH>
0

>  <NdsCH>
1

>  <NaaCH>
0

>  <NsssCH>
4

>  <NddC>
0

>  <NtsC>
0

>  <NdssC>
5

>  <NaasC>
0

>  <NaaaC>
0

>  <NssssC>
3

>  <NsNH3>
0

>  <NsNH2>
0

>  <NssNH2>
0

>  <NdNH>
0

>  <NssNH>
0

>  <NaaNH>
0

>  <NtN>
0

>  <NsssNH>
0

>  <NdsN>
0

>  <NaaN>
0

>  <NsssN>
0

>  <NddsN>
0

>  <NaasN>
0

>  <NssssN>
0

>  <NsOH>
1

>  <NdO>
4

>  <NssO>
2

>  <NaaO>
0

>  <NsF>
0

>  <NsSiH3>
0

>  <NssSiH2>
0

>  <NsssSiH>
0

>  <NssssSi>
0

>  <NsPH2>
0

>  <NssPH>
0

>  <NsssP>
0

>  <NdsssP>
0

>  <NsssssP>
0

>  <NsSH>
0

>  <NdS>
0

>  <NssS>
0

>  <NaaS>
0

>  <NdssS>
0

>  <NddssS>
0

>  <NsCl>
0

>  <NsBr>
0

>  <NsI>
0

>  <fragCpx>
240.07

>  <fMF>
0.25

>  <nHBAcc>
7

>  <nHBDon>
1

>  <Kier1>
26.07

>  <Kier2>
9.47

>  <Lipinski>
1

>  <GhoseFilter>
1

>  <FilterItLogS>
-4.25

>  <VMcGowan>
353.35

>  <LabuteASA>
194.82

>  <PEOE_VSA1>
14.58

>  <PEOE_VSA2>
19.18

>  <PEOE_VSA3>
0

>  <PEOE_VSA4>
0

>  <PEOE_VSA5>
0

>  <PEOE_VSA6>
26.34

>  <PEOE_VSA7>
67.77

>  <PEOE_VSA8>
25.18

>  <PEOE_VSA9>
6.1

>  <PEOE_VSA10>
0

>  <PEOE_VSA11>
17.99

>  <PEOE_VSA12>
5.78

>  <PEOE_VSA13>
0

>  <SMR_VSA1>
33.76

>  <SMR_VSA2>
0

>  <SMR_VSA3>
0

>  <SMR_VSA4>
28.58

>  <SMR_VSA5>
90.77

>  <SMR_VSA6>
6.61

>  <SMR_VSA7>
11.65

>  <SMR_VSA8>
0

>  <SMR_VSA9>
0

>  <SlogP_VSA1>
0

>  <SlogP_VSA2>
46.92

>  <SlogP_VSA3>
28.65

>  <SlogP_VSA4>
28.58

>  <SlogP_VSA5>
79.06

>  <SlogP_VSA6>
11.65

>  <SlogP_VSA7>
0

>  <SlogP_VSA8>
0

>  <SlogP_VSA9>
0

>  <SlogP_VSA10>
0

>  <SlogP_VSA11>
0

>  <EState_VSA1>
41.45

>  <EState_VSA2>
35.37

>  <EState_VSA3>
25.68

>  <EState_VSA4>
24.84

>  <EState_VSA5>
6.92

>  <EState_VSA6>
13

>  <EState_VSA7>
6.92

>  <EState_VSA8>
6.92

>  <EState_VSA9>
9.47

>  <EState_VSA10>
24.28

>  <VSA_EState1>
10.97

>  <VSA_EState2>
49.44

>  <VSA_EState3>
11.56

>  <VSA_EState4>
-1.25

>  <VSA_EState5>
-1

>  <VSA_EState6>
0

>  <VSA_EState7>
5.55

>  <VSA_EState8>
6.64

>  <VSA_EState9>
0

>  <apol>
73.04

>  <bpol>
43.06

>  <nRing>
4

>  <nHRing>
0

>  <naRing>
0

>  <naHRing>
0

>  <nARing 2>
4

>  <nAHRing 2>
0

>  <nFRing>
1

>  <nFHRing>
0

>  <nFaRing>
0

>  <nFaHRing>
0

>  <nFARing 2>
1

>  <nFAHRing 2>
0

>  <nRot>
5

>  <SLogP>
3.31

>  <SMR>
118.85

>  <TopoPSA(NO)>
106.97

>  <TopoPSA>
106.97

>  <JGI1>
0.29

>  <JGI2>
0.13

>  <JGI3>
0.07

>  <JGI4>
0.06

>  <JGI5>
0.03

>  <Diameter>
14

>  <Radius>
7

>  <TMWC10>
150.48

>  <TSRW10>
84.95

>  <MW>
460.25

>  <AMW>
6.67

>  <WPath>
2829

>  <WPol>
69

>  <Zagreb1>
186

>  <Zagreb2>
233

>  <mZagreb2>
7.06

>  <yes>


>  <nAR-cont>
0.199399

>  <nHA-cont>
0.61399562

>  <MWHBN>
0.372900605

>  <MWHBN-cont>
0.58257756

>  <TPSA-cont>
0.253282976

>  <pka_cont>
0.97

>  <yes.1>


>  <BBB_SCORE>
2.678826911

>  <MMFF94 Energy>
92.062

$$$$
Compound 1074
Actelion Java MolfileCreator 2.0

  0  0  0  0  0  0              0 V3000
M  V30 BEGIN CTAB
M  V30 COUNTS 70 73 0 0 0
M  V30 BEGIN ATOM
M  V30 1 O -3.7004 0.8035 5.8773 0
M  V30 2 C -3.2659 1.1102 4.7745 0
M  V30 3 C -1.9859 1.8337 4.6272 0
M  V30 4 C -3.9935 0.767 3.5424 0
M  V30 5 C -1.4781 2.1779 3.4277 0
M  V30 6 C -3.504 1.1037 2.3433 0
M  V30 7 C -2.1975 1.8505 2.1002 0 CFG=2
M  V30 8 C -0.1333 2.8813 3.2696 0 CFG=2
M  V30 9 C -1.2204 0.9513 1.2502 0 CFG=1
M  V30 10 C -2.5929 3.1813 1.4207 0
M  V30 11 C 0.7989 1.9905 2.4374 0
M  V30 12 C 0.5779 3.2824 4.5694 0
M  V30 13 C -1.782 0.4101 -0.0989 0 CFG=1
M  V30 14 C 0.1939 1.5971 1.0764 0 CFG=1
M  V30 15 O -2.3141 1.4212 -0.9413 0
M  V30 16 C -0.7761 -0.4447 -0.9015 0
M  V30 17 C 1.1069 0.5889 0.3581 0 CFG=1
M  V30 18 C 0.6234 0.191 -1.056 0 CFG=1
M  V30 19 C 2.5691 0.9518 0.1382 0
M  V30 20 C 1.7894 -0.7942 -1.4738 0 CFG=1
M  V30 21 C 0.5664 1.3947 -2.0369 0
M  V30 22 C 3.0534 -0.0454 -0.9335 0
M  V30 23 O 1.6168 -2.0189 -0.7191 0
M  V30 24 C 1.8284 -1.0149 -3.014 0
M  V30 25 C 2.5182 -3.0239 -0.8849 0
M  V30 26 O 2.4896 -0.2841 -3.7577 0
M  V30 27 C 0.9607 -2.1383 -3.5728 0
M  V30 28 O 3.4455 -3.0042 -1.6785 0
M  V30 29 C 2.1877 -4.183 0.0153 0
M  V30 30 O 0.6027 -1.8689 -4.9279 0
M  V30 31 C 1.0109 -4.9685 -0.528 0
M  V30 32 C -0.1764 -2.831 -5.4867 0
M  V30 33 O -0.5823 -3.83 -4.9095 0
M  V30 34 C -0.478 -2.4896 -6.9131 0
M  V30 35 H -1.4942 2.0438 5.5694 0
M  V30 36 H -4.9362 0.2477 3.6642 0
M  V30 37 H -4.1019 0.8511 1.4686 0
M  V30 38 H -0.3018 3.8174 2.7229 0
M  V30 39 H -1.0513 0.0435 1.8555 0
M  V30 40 H -1.7367 3.7022 0.9823 0
M  V30 41 H -3.3288 3.0395 0.6216 0
M  V30 42 H -3.0549 3.8699 2.1406 0
M  V30 43 H 1.7446 2.5214 2.2714 0
M  V30 44 H 1.0452 1.0836 3.0069 0
M  V30 45 H -0.0477 3.9496 5.1722 0
M  V30 46 H 1.5063 3.8205 4.3474 0
M  V30 47 H 0.8405 2.4088 5.176 0
M  V30 48 H -2.627 -0.2524 0.1202 0
M  V30 49 H 0.1113 2.5117 0.4811 0
M  V30 50 H -1.7574 2.2133 -0.8946 0
M  V30 51 H -1.195 -0.6555 -1.8924 0
M  V30 52 H -0.6904 -1.4077 -0.3837 0
M  V30 53 H 1.1122 -0.3126 0.9924 0
M  V30 54 H 2.679 1.9819 -0.2187 0
M  V30 55 H 3.158 0.8568 1.0565 0
M  V30 56 H 0.0432 2.2604 -1.6329 0
M  V30 57 H 1.561 1.7596 -2.3126 0
M  V30 58 H 0.0582 1.1134 -2.9663 0
M  V30 59 H 3.5877 0.5053 -1.7145 0
M  V30 60 H 3.775 -0.7311 -0.4776 0
M  V30 61 H 1.5352 -3.0685 -3.5264 0
M  V30 62 H 0.0519 -2.2244 -2.9718 0
M  V30 63 H 1.983 -3.8071 1.0236 0
M  V30 64 H 3.0728 -4.8241 0.0886 0
M  V30 65 H 0.7981 -5.83 0.112 0
M  V30 66 H 1.2167 -5.3332 -1.5398 0
M  V30 67 H 0.1099 -4.3477 -0.5768 0
M  V30 68 H -1.0368 -1.5515 -6.9593 0
M  V30 69 H 0.4526 -2.412 -7.4805 0
M  V30 70 H -1.0888 -3.2826 -7.3539 0
M  V30 END ATOM
M  V30 BEGIN BOND
M  V30 1 2 1 2
M  V30 2 1 2 3
M  V30 3 1 2 4
M  V30 4 2 3 5
M  V30 5 2 4 6
M  V30 6 1 5 7
M  V30 7 1 5 8
M  V30 8 1 7 9
M  V30 9 1 7 10
M  V30 10 1 8 11
M  V30 11 1 8 12
M  V30 12 1 9 13
M  V30 13 1 9 14
M  V30 14 1 13 15
M  V30 15 1 13 16
M  V30 16 1 14 17
M  V30 17 1 16 18
M  V30 18 1 17 19
M  V30 19 1 18 20
M  V30 20 1 18 21
M  V30 21 1 19 22
M  V30 22 1 20 23
M  V30 23 1 20 24
M  V30 24 1 23 25
M  V30 25 2 24 26
M  V30 26 1 24 27
M  V30 27 2 25 28
M  V30 28 1 25 29
M  V30 29 1 27 30
M  V30 30 1 29 31
M  V30 31 1 30 32
M  V30 32 2 32 33
M  V30 33 1 32 34
M  V30 34 1 6 7
M  V30 35 1 11 14
M  V30 36 1 17 18
M  V30 37 1 20 22
M  V30 38 1 3 35
M  V30 39 1 4 36
M  V30 40 1 6 37
M  V30 41 1 8 38
M  V30 42 1 9 39
M  V30 43 1 10 40
M  V30 44 1 10 41
M  V30 45 1 10 42
M  V30 46 1 11 43
M  V30 47 1 11 44
M  V30 48 1 12 45
M  V30 49 1 12 46
M  V30 50 1 12 47
M  V30 51 1 13 48
M  V30 52 1 14 49
M  V30 53 1 15 50
M  V30 54 1 16 51
M  V30 55 1 16 52
M  V30 56 1 17 53
M  V30 57 1 19 54
M  V30 58 1 19 55
M  V30 59 1 21 56
M  V30 60 1 21 57
M  V30 61 1 21 58
M  V30 62 1 22 59
M  V30 63 1 22 60
M  V30 64 1 27 61
M  V30 65 1 27 62
M  V30 66 1 29 63
M  V30 67 1 29 64
M  V30 68 1 31 65
M  V30 69 1 31 66
M  V30 70 1 31 67
M  V30 71 1 34 68
M  V30 72 1 34 69
M  V30 73 1 34 70
M  V30 END BOND
M  V30 BEGIN COLLECTION
M  V30 MDLV30/STEABS ATOMS=(8 7 8 9 13 14 17 18 20)
M  V30 END COLLECTION
M  V30 END CTAB
M  END
>  <Column 1>
1280

>  <level_0>
1424

>  <index>
1424

>  <Unnamed: 0>
1424

>  <NO.>
1436

>  <Name>
methylprednisolone-aceponate

>  <IUPAC_name>
[(6s-8s-9s-10r-11s-13s-14s-17r)-17-(2-acetyloxyacetyl)-11-hydroxy-6-10-13-trimethyl-3-oxo-7-8-9-11-12-14-15-16-octahydro-6h-cyclopenta[a]phenanthren-17-yl] propanoate

>  <SMILES>
CCC(=O)O[C@]1(C(=O)COC(C)=O)CC[C@H]2[C@@H]3C[C@H](C)C4=CC(=O)C=C[C@]4(C)[C@H]3[C@@H](O)C[C@@]21C

>  <CID>
63019

>  <logBB>


>  <BBB+/BBB->
BBB+

>  <Inchi>
InChI=1S/C27H36O7/c1-6-23(32)34-27(22(31)14-33-16(3)28)10-8-19-18-11-15(2)20-12-17(29)7-9-25(20-4)24(18)21(30)13-26(19-27)5/h7-9-12-15-18-19-21-24-30H-6-8-10-11-13-14H2-1-5H3/t15--18--19--21--24+-25--26--27-/m0/s1

>  <threshold>
-1

>  <reference>
R1|R6|R27|R30|

>  <group>
B

>  <Class>
1

>  <ABC>
26.74

>  <ABCGG>
22.06

>  <nAcid>
0

>  <nBase>
0

>  <nAromAtom>
0

>  <nAromBond>
0

>  <nAtom>
70

>  <nHeavyAtom>
34

>  <nSpiro>
0

>  <nBridgehead>
0

>  <nHetero>
7

>  <nN>
0

>  <nO>
7

>  <nF>
0

>  <BalabanJ>
1.7

>  <BertzCT>
979.46

>  <nBonds>
73

>  <nBondsO>
37

>  <nBondsS>
67

>  <nBondsD>
6

>  <nBondsT>
0

>  <nBondsA>
0

>  <nBondsM>
6

>  <nBondsKS>
67

>  <nBondsKD>
6

>  <RNCG>
0.15

>  <RPCG>
0.1

>  <FCSP3>
0.7

>  <SZ>
42.33

>  <Sm>
39.35

>  <Sv>
41.76

>  <Sse>
70.3

>  <Sp>
44.74

>  <Si>
78.94

>  <MZ>
0.6

>  <Mm>
0.56

>  <Mv>
0.6

>  <Mse>
1

>  <Mp>
0.64

>  <Mi>
1.13

>  <NsCH3>
5

>  <NdCH2>
0

>  <NssCH2>
6

>  <NtCH>
0

>  <NdsCH>
3

>  <NaaCH>
0

>  <NsssCH>
5

>  <NddC>
0

>  <NtsC>
0

>  <NdssC>
5

>  <NaasC>
0

>  <NaaaC>
0

>  <NssssC>
3

>  <NsNH3>
0

>  <NsNH2>
0

>  <NssNH2>
0

>  <NdNH>
0

>  <NssNH>
0

>  <NaaNH>
0

>  <NtN>
0

>  <NsssNH>
0

>  <NdsN>
0

>  <NaaN>
0

>  <NsssN>
0

>  <NddsN>
0

>  <NaasN>
0

>  <NssssN>
0

>  <NsOH>
1

>  <NdO>
4

>  <NssO>
2

>  <NaaO>
0

>  <NsF>
0

>  <NsSiH3>
0

>  <NssSiH2>
0

>  <NsssSiH>
0

>  <NssssSi>
0

>  <NsPH2>
0

>  <NssPH>
0

>  <NsssP>
0

>  <NdsssP>
0

>  <NsssssP>
0

>  <NsSH>
0

>  <NdS>
0

>  <NssS>
0

>  <NaaS>
0

>  <NdssS>
0

>  <NddssS>
0

>  <NsCl>
0

>  <NsBr>
0

>  <NsI>
0

>  <fragCpx>
247.07

>  <fMF>
0.24

>  <nHBAcc>
7

>  <nHBDon>
1

>  <Kier1>
27.05

>  <Kier2>
9.71

>  <Lipinski>
1

>  <GhoseFilter>
1

>  <FilterItLogS>
-3.93

>  <VMcGowan>
363.14

>  <LabuteASA>
200.49

>  <PEOE_VSA1>
14.58

>  <PEOE_VSA2>
19.18

>  <PEOE_VSA3>
0

>  <PEOE_VSA4>
0

>  <PEOE_VSA5>
0

>  <PEOE_VSA6>
39.34

>  <PEOE_VSA7>
55.59

>  <PEOE_VSA8>
30.09

>  <PEOE_VSA9>
6.1

>  <PEOE_VSA10>
0

>  <PEOE_VSA11>
17.99

>  <PEOE_VSA12>
5.78

>  <PEOE_VSA13>
0

>  <SMR_VSA1>
33.76

>  <SMR_VSA2>
0

>  <SMR_VSA3>
0

>  <SMR_VSA4>
34.5

>  <SMR_VSA5>
78.43

>  <SMR_VSA6>
6.61

>  <SMR_VSA7>
23.8

>  <SMR_VSA8>
0

>  <SMR_VSA9>
0

>  <SlogP_VSA1>
0

>  <SlogP_VSA2>
46.92

>  <SlogP_VSA3>
28.65

>  <SlogP_VSA4>
34.5

>  <SlogP_VSA5>
66.72

>  <SlogP_VSA6>
23.8

>  <SlogP_VSA7>
0

>  <SlogP_VSA8>
0

>  <SlogP_VSA9>
0

>  <SlogP_VSA10>
0

>  <SlogP_VSA11>
0

>  <EState_VSA1>
46.86

>  <EState_VSA2>
35.88

>  <EState_VSA3>
19.26

>  <EState_VSA4>
11.99

>  <EState_VSA5>
6.92

>  <EState_VSA6>
19.08

>  <EState_VSA7>
13

>  <EState_VSA8>
13.85

>  <EState_VSA9>
9.47

>  <EState_VSA10>
24.28

>  <VSA_EState1>
10.99

>  <VSA_EState2>
49.63

>  <VSA_EState3>
11.61

>  <VSA_EState4>
-1.6

>  <VSA_EState5>
-1.29

>  <VSA_EState6>
0

>  <VSA_EState7>
6.77

>  <VSA_EState8>
8.65

>  <VSA_EState9>
0

>  <apol>
74.71

>  <bpol>
43.06

>  <nRing>
4

>  <nHRing>
0

>  <naRing>
0

>  <naHRing>
0

>  <nARing 2>
4

>  <nAHRing 2>
0

>  <nFRing>
1

>  <nFHRing>
0

>  <nFaRing>
0

>  <nFaHRing>
0

>  <nFARing 2>
1

>  <nFAHRing 2>
0

>  <nRot>
5

>  <SLogP>
3.34

>  <SMR>
123.31

>  <TopoPSA(NO)>
106.97

>  <TopoPSA>
106.97

>  <JGI1>
0.3

>  <JGI2>
0.13

>  <JGI3>
0.07

>  <JGI4>
0.06

>  <JGI5>
0.03

>  <Diameter>
14

>  <Radius>
7

>  <TMWC10>
152.88

>  <TSRW10>
86.13

>  <MW>
472.25

>  <AMW>
6.75

>  <WPath>
3025

>  <WPol>
72

>  <Zagreb1>
192

>  <Zagreb2>
241

>  <mZagreb2>
7.26

>  <yes>


>  <nAR-cont>
0.199399

>  <nHA-cont>
0.568589513

>  <MWHBN>
0.368132367

>  <MWHBN-cont>
0.601111018

>  <TPSA-cont>
0.253282976

>  <pka_cont>
0.97

>  <yes.1>


>  <BBB_SCORE>
2.661220991

>  <MMFF94 Energy>
97.734

$$$$
Compound 1075
Actelion Java MolfileCreator 2.0

  0  0  0  0  0  0              0 V3000
M  V30 BEGIN CTAB
M  V30 COUNTS 68 71 0 0 0
M  V30 BEGIN ATOM
M  V30 1 F -1.2087 1.6925 1.2893 0
M  V30 2 C -0.0288 2.0716 0.6632 0 CFG=2
M  V30 3 C 0.235 3.5742 1.0886 0 CFG=2
M  V30 4 C -0.2966 1.8383 -0.855 0 CFG=1
M  V30 5 C 1.0698 1.1035 1.2152 0 CFG=2
M  V30 6 C 0.4138 3.6017 2.6182 0
M  V30 7 C -0.9263 4.4729 0.6627 0
M  V30 8 C 1.503 4.1924 0.4553 0
M  V30 9 O 0.7339 2.3718 -1.6786 0
M  V30 10 C -0.5267 0.349 -1.202 0
M  V30 11 C 0.6976 -0.342 0.8429 0 CFG=1
M  V30 12 C 1.2154 1.2457 2.7427 0
M  V30 13 C -0.3444 4.3424 3.4463 0
M  V30 14 C 1.4753 2.686 3.1711 0
M  V30 15 C -1.6794 5.208 1.4917 0
M  V30 16 C 0.5878 -0.5903 -0.6817 0 CFG=1
M  V30 17 C 1.6132 -1.464 1.3052 0
M  V30 18 C -1.4352 5.2031 2.946 0
M  V30 19 C 0.2599 -2.1431 -0.7064 0 CFG=1
M  V30 20 C 1.9197 -0.3124 -1.4323 0
M  V30 21 C 1.095 -2.6986 0.5274 0 CFG=1
M  V30 22 O -2.11 5.8851 3.7071 0
M  V30 23 O -1.1446 -2.273 -0.3314 0
M  V30 24 C 0.5591 -2.7652 -2.1102 0
M  V30 25 C 2.2318 -3.6799 0.2723 0
M  V30 26 C -1.694 -3.5188 -0.28 0
M  V30 27 O 1.6564 -3.2508 -2.404 0
M  V30 28 C -0.5119 -2.6512 -3.1928 0
M  V30 29 O -1.1318 -4.5371 -0.6491 0
M  V30 30 C -3.0973 -3.4288 0.2663 0
M  V30 31 O -0.2952 -1.4983 -3.9961 0
M  V30 32 C -3.7488 -4.795 0.3862 0
M  V30 33 C -1.0998 -1.518 -5.1678 0
M  V30 34 H -1.2189 2.3623 -1.1313 0
M  V30 35 H 2.0387 1.356 0.7735 0
M  V30 36 H -1.1374 4.5392 -0.4023 0
M  V30 37 H 1.7763 5.1314 0.9551 0
M  V30 38 H 2.3726 3.532 0.521 0
M  V30 39 H 1.3615 4.4431 -0.6014 0
M  V30 40 H 0.5278 2.1463 -2.6041 0
M  V30 41 H -0.6235 0.2469 -2.2861 0
M  V30 42 H -1.4942 0.0612 -0.7731 0
M  V30 43 H -0.2843 -0.5366 1.3038 0
M  V30 44 H 2.0443 0.6233 3.0996 0
M  V30 45 H 0.3082 0.8772 3.2399 0
M  V30 46 H -0.2158 4.3395 4.5228 0
M  V30 47 H 2.463 3.0102 2.8234 0
M  V30 48 H 1.508 2.7292 4.2667 0
M  V30 49 H -2.4853 5.8411 1.1413 0
M  V30 50 H 2.662 -1.2437 1.0772 0
M  V30 51 H 1.5423 -1.6321 2.3855 0
M  V30 52 H 1.7676 -0.3368 -2.5169 0
M  V30 53 H 2.3538 0.6608 -1.1973 0
M  V30 54 H 2.6938 -1.0493 -1.2004 0
M  V30 55 H 0.4045 -3.2123 1.2105 0
M  V30 56 H 3.032 -3.2391 -0.3291 0
M  V30 57 H 1.867 -4.5847 -0.2234 0
M  V30 58 H 2.6803 -3.9922 1.2225 0
M  V30 59 H -0.4525 -3.5613 -3.8024 0
M  V30 60 H -1.5133 -2.6049 -2.7604 0
M  V30 61 H -3.6905 -2.7989 -0.4048 0
M  V30 62 H -3.0548 -2.9597 1.2551 0
M  V30 63 H -4.7618 -4.7004 0.7894 0
M  V30 64 H -3.1742 -5.4473 1.0523 0
M  V30 65 H -3.8132 -5.2868 -0.5899 0
M  V30 66 H -0.9142 -0.5975 -5.7278 0
M  V30 67 H -2.1609 -1.5587 -4.9029 0
M  V30 68 H -0.835 -2.3706 -5.8002 0
M  V30 END ATOM
M  V30 BEGIN BOND
M  V30 1 1 1 2
M  V30 2 1 2 3
M  V30 3 1 2 4
M  V30 4 1 2 5
M  V30 5 1 3 6
M  V30 6 1 3 7
M  V30 7 1 3 8
M  V30 8 1 4 9
M  V30 9 1 4 10
M  V30 10 1 5 11
M  V30 11 1 5 12
M  V30 12 2 6 13
M  V30 13 1 6 14
M  V30 14 2 7 15
M  V30 15 1 10 16
M  V30 16 1 11 17
M  V30 17 1 13 18
M  V30 18 1 16 19
M  V30 19 1 16 20
M  V30 20 1 17 21
M  V30 21 2 18 22
M  V30 22 1 19 23
M  V30 23 1 19 24
M  V30 24 1 21 25
M  V30 25 1 23 26
M  V30 26 2 24 27
M  V30 27 1 24 28
M  V30 28 2 26 29
M  V30 29 1 26 30
M  V30 30 1 28 31
M  V30 31 1 30 32
M  V30 32 1 31 33
M  V30 33 1 11 16
M  V30 34 1 12 14
M  V30 35 1 15 18
M  V30 36 1 19 21
M  V30 37 1 4 34
M  V30 38 1 5 35
M  V30 39 1 7 36
M  V30 40 1 8 37
M  V30 41 1 8 38
M  V30 42 1 8 39
M  V30 43 1 9 40
M  V30 44 1 10 41
M  V30 45 1 10 42
M  V30 46 1 11 43
M  V30 47 1 12 44
M  V30 48 1 12 45
M  V30 49 1 13 46
M  V30 50 1 14 47
M  V30 51 1 14 48
M  V30 52 1 15 49
M  V30 53 1 17 50
M  V30 54 1 17 51
M  V30 55 1 20 52
M  V30 56 1 20 53
M  V30 57 1 20 54
M  V30 58 1 21 55
M  V30 59 1 25 56
M  V30 60 1 25 57
M  V30 61 1 25 58
M  V30 62 1 28 59
M  V30 63 1 28 60
M  V30 64 1 30 61
M  V30 65 1 30 62
M  V30 66 1 32 63
M  V30 67 1 32 64
M  V30 68 1 32 65
M  V30 69 1 33 66
M  V30 70 1 33 67
M  V30 71 1 33 68
M  V30 END BOND
M  V30 BEGIN COLLECTION
M  V30 MDLV30/STEABS ATOMS=(8 2 3 4 5 11 16 19 21)
M  V30 END COLLECTION
M  V30 END CTAB
M  END
>  <Column 1>
1281

>  <level_0>
1425

>  <index>
1425

>  <Unnamed: 0>
1425

>  <NO.>
1437

>  <Name>
amelometasone

>  <IUPAC_name>
[(8s-9r-10s-11s-13s-14s-16s-17r)-9-fluoro-11-hydroxy-17-(2-methoxyacetyl)-10-13-16-trimethyl-3-oxo-6-7-8-11-12-14-15-16-octahydrocyclopenta[a]phenanthren-17-yl] propanoate

>  <SMILES>
CCC(=O)O[C@]1(C(=O)COC)[C@@H](C)C[C@H]2[C@@H]3CCC4=CC(=O)C=C[C@]4(C)[C@@]3(F)[C@@H](O)C[C@@]21C

>  <CID>
443880

>  <logBB>


>  <BBB+/BBB->
BBB+

>  <Inchi>
InChI=1S/C26H35FO6/c1-6-22(31)33-26(21(30)14-32-5)15(2)11-19-18-8-7-16-12-17(28)9-10-23(16-3)25(18-27)20(29)13-24(19-26)4/h9-10-12-15-18-20-29H-6-8-11-13-14H2-1-5H3/t15--18--19--20--23--24--25--26-/m0/s1

>  <threshold>
-1

>  <reference>
R1|R6|R27|R30|

>  <group>
B

>  <Class>
1

>  <ABC>
25.88

>  <ABCGG>
21.75

>  <nAcid>
0

>  <nBase>
0

>  <nAromAtom>
0

>  <nAromBond>
0

>  <nAtom>
68

>  <nHeavyAtom>
33

>  <nSpiro>
0

>  <nBridgehead>
0

>  <nHetero>
7

>  <nN>
0

>  <nO>
6

>  <nF>
1

>  <BalabanJ>
1.78

>  <BertzCT>
941.07

>  <nBonds>
71

>  <nBondsO>
36

>  <nBondsS>
66

>  <nBondsD>
5

>  <nBondsT>
0

>  <nBondsA>
0

>  <nBondsM>
5

>  <nBondsKS>
66

>  <nBondsKD>
5

>  <RNCG>
0.16

>  <RPCG>
0.11

>  <FCSP3>
0.73

>  <SZ>
41.33

>  <Sm>
38.51

>  <Sv>
40.42

>  <Sse>
68.48

>  <Sp>
43.19

>  <Si>
77.07

>  <MZ>
0.61

>  <Mm>
0.57

>  <Mv>
0.59

>  <Mse>
1.01

>  <Mp>
0.64

>  <Mi>
1.13

>  <NsCH3>
5

>  <NdCH2>
0

>  <NssCH2>
6

>  <NtCH>
0

>  <NdsCH>
3

>  <NaaCH>
0

>  <NsssCH>
4

>  <NddC>
0

>  <NtsC>
0

>  <NdssC>
4

>  <NaasC>
0

>  <NaaaC>
0

>  <NssssC>
4

>  <NsNH3>
0

>  <NsNH2>
0

>  <NssNH2>
0

>  <NdNH>
0

>  <NssNH>
0

>  <NaaNH>
0

>  <NtN>
0

>  <NsssNH>
0

>  <NdsN>
0

>  <NaaN>
0

>  <NsssN>
0

>  <NddsN>
0

>  <NaasN>
0

>  <NssssN>
0

>  <NsOH>
1

>  <NdO>
3

>  <NssO>
2

>  <NaaO>
0

>  <NsF>
1

>  <NsSiH3>
0

>  <NssSiH2>
0

>  <NsssSiH>
0

>  <NssssSi>
0

>  <NsPH2>
0

>  <NssPH>
0

>  <NsssP>
0

>  <NdsssP>
0

>  <NsssssP>
0

>  <NsSH>
0

>  <NdS>
0

>  <NssS>
0

>  <NaaS>
0

>  <NdssS>
0

>  <NddssS>
0

>  <NsCl>
0

>  <NsBr>
0

>  <NsI>
0

>  <fragCpx>
240.07

>  <fMF>
0.25

>  <nHBAcc>
6

>  <nHBDon>
1

>  <Kier1>
26.07

>  <Kier2>
8.83

>  <Lipinski>
1

>  <GhoseFilter>
1

>  <FilterItLogS>
-4.49

>  <VMcGowan>
349.24

>  <LabuteASA>
194.13

>  <PEOE_VSA1>
14.58

>  <PEOE_VSA2>
14.38

>  <PEOE_VSA3>
4.39

>  <PEOE_VSA4>
0

>  <PEOE_VSA5>
0

>  <PEOE_VSA6>
32.42

>  <PEOE_VSA7>
50.68

>  <PEOE_VSA8>
36.2

>  <PEOE_VSA9>
6.1

>  <PEOE_VSA10>
6.61

>  <PEOE_VSA11>
17.05

>  <PEOE_VSA12>
5.78

>  <PEOE_VSA13>
0

>  <SMR_VSA1>
33.35

>  <SMR_VSA2>
0

>  <SMR_VSA3>
0

>  <SMR_VSA4>
28.58

>  <SMR_VSA5>
77.17

>  <SMR_VSA6>
13.72

>  <SMR_VSA7>
23.8

>  <SMR_VSA8>
0

>  <SMR_VSA9>
0

>  <SlogP_VSA1>
0

>  <SlogP_VSA2>
53.73

>  <SlogP_VSA3>
23.86

>  <SlogP_VSA4>
28.58

>  <SlogP_VSA5>
59.8

>  <SlogP_VSA6>
23.8

>  <SlogP_VSA7>
0

>  <SlogP_VSA8>
0

>  <SlogP_VSA9>
0

>  <SlogP_VSA10>
4.39

>  <SlogP_VSA11>
0

>  <EState_VSA1>
40.09

>  <EState_VSA2>
42.85

>  <EState_VSA3>
24.84

>  <EState_VSA4>
0

>  <EState_VSA5>
19.26

>  <EState_VSA6>
19.92

>  <EState_VSA7>
13.85

>  <EState_VSA8>
0

>  <EState_VSA9>
9.47

>  <EState_VSA10>
19.49

>  <VSA_EState1>
28.39

>  <VSA_EState2>
38.06

>  <VSA_EState3>
11.46

>  <VSA_EState4>
-4.82

>  <VSA_EState5>
-2.18

>  <VSA_EState6>
0

>  <VSA_EState7>
4.71

>  <VSA_EState8>
6.96

>  <VSA_EState9>
1.42

>  <apol>
72.13

>  <bpol>
42.3

>  <nRing>
4

>  <nHRing>
0

>  <naRing>
0

>  <naHRing>
0

>  <nARing 2>
4

>  <nAHRing 2>
0

>  <nFRing>
1

>  <nFHRing>
0

>  <nFaRing>
0

>  <nFaHRing>
0

>  <nFARing 2>
1

>  <nFAHRing 2>
0

>  <nRot>
5

>  <SLogP>
3.51

>  <SMR>
118.9

>  <TopoPSA(NO)>
89.9

>  <TopoPSA>
89.9

>  <JGI1>
0.31

>  <JGI2>
0.15

>  <JGI3>
0.08

>  <JGI4>
0.06

>  <JGI5>
0.04

>  <Diameter>
13

>  <Radius>
7

>  <TMWC10>
151.6

>  <TSRW10>
85.58

>  <MW>
462.24

>  <AMW>
6.8

>  <WPath>
2649

>  <WPol>
78

>  <Zagreb1>
190

>  <Zagreb2>
246

>  <mZagreb2>
7.11

>  <yes>


>  <nAR-cont>
0.199399

>  <nHA-cont>
0.61399562

>  <MWHBN>
0.325584917

>  <MWHBN-cont>
0.758181286

>  <TPSA-cont>
0.372442175

>  <pka_cont>
0.97

>  <yes.1>


>  <BBB_SCORE>
3.180550899

>  <MMFF94 Energy>
163.49

$$$$
Compound 1076
Actelion Java MolfileCreator 2.0

  0  0  0  0  0  0              0 V3000
M  V30 BEGIN CTAB
M  V30 COUNTS 65 68 0 0 0
M  V30 BEGIN ATOM
M  V30 1 S 2.4496 1.4692 3.2672 0
M  V30 2 C 0.8894 2.1818 2.8044 0
M  V30 3 C 2.7809 2.4833 4.7258 0
M  V30 4 O 0.6586 3.362 3.0463 0
M  V30 5 C -0.0832 1.2476 2.0118 0 CFG=2
M  V30 6 O -0.2549 -0.0869 2.5486 0
M  V30 7 C 0.3837 1.0674 0.5001 0 CFG=2
M  V30 8 C -1.4944 1.9388 1.8007 0 CFG=1
M  V30 9 C -0.3654 -0.2784 3.8892 0
M  V30 10 C -0.9361 0.5577 -0.1286 0
M  V30 11 C 1.4486 -0.0263 0.2363 0
M  V30 12 C 0.8524 2.4252 -0.094 0
M  V30 13 C -1.9903 1.5252 0.3912 0
M  V30 14 C -2.563 1.6619 2.8529 0
M  V30 15 O -0.3423 0.6017 4.7356 0
M  V30 16 C -0.506 -1.745 4.1966 0
M  V30 17 C -0.8568 0.3135 -1.645 0
M  V30 18 C 1.5925 -0.414 -1.254 0 CFG=1
M  V30 19 C 0.8322 -2.4487 4.0962 0
M  V30 20 C 0.2339 -0.7709 -1.9287 0 CFG=1
M  V30 21 C -2.2252 -0.1293 -2.1924 0
M  V30 22 O 2.2838 0.6183 -1.9481 0
M  V30 23 F -0.1983 -1.9131 -1.2717 0
M  V30 24 C 0.3089 -1.1498 -3.4659 0
M  V30 25 C -2.1713 -0.4941 -3.6696 0 CFG=1
M  V30 26 C -1.1096 -1.5318 -3.9252 0
M  V30 27 C 1.2818 -2.3072 -3.692 0
M  V30 28 C 0.8043 0.001 -4.3722 0
M  V30 29 F -3.4072 -0.9451 -4.0288 0
M  V30 30 C -1.4233 -2.7203 -4.4725 0
M  V30 31 C 0.9631 -3.4889 -4.2364 0
M  V30 32 C -0.4142 -3.7771 -4.6776 0
M  V30 33 O -0.7044 -4.8488 -5.1931 0
M  V30 34 H 2.9262 3.5295 4.4433 0
M  V30 35 H 3.6939 2.1274 5.2105 0
M  V30 36 H 1.9573 2.4098 5.4412 0
M  V30 37 H -1.3717 3.0292 1.7761 0
M  V30 38 H -1.1829 -0.4176 0.32 0
M  V30 39 H 2.4231 0.3085 0.6061 0
M  V30 40 H 1.1959 -0.9384 0.7899 0
M  V30 41 H 0.1919 3.256 0.1706 0
M  V30 42 H 0.9025 2.4222 -1.1842 0
M  V30 43 H 1.8534 2.683 0.2689 0
M  V30 44 H -2.0658 2.4095 -0.2526 0
M  V30 45 H -2.9798 1.0557 0.4159 0
M  V30 46 H -2.8093 0.5978 2.9179 0
M  V30 47 H -3.4879 2.194 2.6024 0
M  V30 48 H -2.2462 2.0175 3.8372 0
M  V30 49 H -1.2396 -2.1866 3.5136 0
M  V30 50 H -0.9142 -1.8458 5.2083 0
M  V30 51 H -0.5904 1.2471 -2.1503 0
M  V30 52 H 2.2388 -1.2988 -1.281 0
M  V30 53 H 0.7279 -3.5066 4.3554 0
M  V30 54 H 1.5638 -1.9983 4.7753 0
M  V30 55 H 1.2379 -2.3837 3.0814 0
M  V30 56 H -2.6064 -0.9863 -1.6211 0
M  V30 57 H -2.9665 0.6678 -2.0599 0
M  V30 58 H 3.1464 0.7456 -1.5123 0
M  V30 59 H -1.979 0.397 -4.2756 0
M  V30 60 H 2.3209 -2.1467 -3.4126 0
M  V30 61 H 0.3122 0.9531 -4.1527 0
M  V30 62 H 0.6141 -0.2203 -5.4308 0
M  V30 63 H 1.884 0.1637 -4.2872 0
M  V30 64 H -2.4332 -2.9761 -4.7757 0
M  V30 65 H 1.6907 -4.2767 -4.3888 0
M  V30 END ATOM
M  V30 BEGIN BOND
M  V30 1 1 1 2
M  V30 2 1 1 3
M  V30 3 2 2 4
M  V30 4 1 2 5
M  V30 5 1 5 6
M  V30 6 1 5 7
M  V30 7 1 5 8
M  V30 8 1 6 9
M  V30 9 1 7 10
M  V30 10 1 7 11
M  V30 11 1 7 12
M  V30 12 1 8 13
M  V30 13 1 8 14
M  V30 14 2 9 15
M  V30 15 1 9 16
M  V30 16 1 10 17
M  V30 17 1 11 18
M  V30 18 1 16 19
M  V30 19 1 17 20
M  V30 20 1 17 21
M  V30 21 1 18 22
M  V30 22 1 20 23
M  V30 23 1 20 24
M  V30 24 1 21 25
M  V30 25 1 24 26
M  V30 26 1 24 27
M  V30 27 1 24 28
M  V30 28 1 25 29
M  V30 29 2 26 30
M  V30 30 2 27 31
M  V30 31 1 30 32
M  V30 32 2 32 33
M  V30 33 1 10 13
M  V30 34 1 18 20
M  V30 35 1 25 26
M  V30 36 1 31 32
M  V30 37 1 3 34
M  V30 38 1 3 35
M  V30 39 1 3 36
M  V30 40 1 8 37
M  V30 41 1 10 38
M  V30 42 1 11 39
M  V30 43 1 11 40
M  V30 44 1 12 41
M  V30 45 1 12 42
M  V30 46 1 12 43
M  V30 47 1 13 44
M  V30 48 1 13 45
M  V30 49 1 14 46
M  V30 50 1 14 47
M  V30 51 1 14 48
M  V30 52 1 16 49
M  V30 53 1 16 50
M  V30 54 1 17 51
M  V30 55 1 18 52
M  V30 56 1 19 53
M  V30 57 1 19 54
M  V30 58 1 19 55
M  V30 59 1 21 56
M  V30 60 1 21 57
M  V30 61 1 22 58
M  V30 62 1 25 59
M  V30 63 1 27 60
M  V30 64 1 28 61
M  V30 65 1 28 62
M  V30 66 1 28 63
M  V30 67 1 30 64
M  V30 68 1 31 65
M  V30 END BOND
M  V30 BEGIN COLLECTION
M  V30 MDLV30/STEABS ATOMS=(6 5 7 8 18 20 25)
M  V30 END COLLECTION
M  V30 END CTAB
M  END
>  <Column 1>
1282

>  <level_0>
1426

>  <index>
1426

>  <Unnamed: 0>
1426

>  <NO.>
1438

>  <Name>
schembl144284

>  <IUPAC_name>
[(6s-9r-11s-13s-16r-17r)-6-9-difluoro-11-hydroxy-10-13-16-trimethyl-17-methylsulfanylcarbonyl-3-oxo-6-7-8-11-12-14-15-16-octahydrocyclopenta[a]phenanthren-17-yl] propanoate

>  <SMILES>
CCC(=O)O[C@]1(C(=O)SC)[C@H](C)CC2C3C[C@H](F)C4=CC(=O)C=CC4(C)[C@@]3(F)[C@@H](O)C[C@@]21C

>  <CID>
51759

>  <logBB>


>  <BBB+/BBB->
BBB+

>  <Inchi>
InChI=1S/C25H32F2O5S/c1-6-20(30)32-25(21(31)33-5)13(2)9-15-16-11-18(26)17-10-14(28)7-8-22(17-3)24(16-27)19(29)12-23(15-25)4/h7-8-10-13-15-16-18-19-29H-6-9-11-12H2-1-5H3/t13--15?-16?-18+-19+-22?-23+-24+-25+/m1/s1

>  <threshold>
-1

>  <reference>
R1|R27|R30|

>  <group>
B

>  <Class>
1

>  <ABC>
25.95

>  <ABCGG>
22.1

>  <nAcid>
0

>  <nBase>
0

>  <nAromAtom>
0

>  <nAromBond>
0

>  <nAtom>
65

>  <nHeavyAtom>
33

>  <nSpiro>
0

>  <nBridgehead>
0

>  <nHetero>
8

>  <nN>
0

>  <nO>
5

>  <nF>
2

>  <BalabanJ>
1.82

>  <BertzCT>
964.44

>  <nBonds>
68

>  <nBondsO>
36

>  <nBondsS>
63

>  <nBondsD>
5

>  <nBondsT>
0

>  <nBondsA>
0

>  <nBondsM>
5

>  <nBondsKS>
63

>  <nBondsKD>
5

>  <RNCG>
0.17

>  <RPCG>
0.11

>  <FCSP3>
0.72

>  <SZ>
42.67

>  <Sm>
40.18

>  <Sv>
39.72

>  <Sse>
65.85

>  <Sp>
42.58

>  <Si>
73.71

>  <MZ>
0.66

>  <Mm>
0.62

>  <Mv>
0.61

>  <Mse>
1.01

>  <Mp>
0.66

>  <Mi>
1.13

>  <NsCH3>
5

>  <NdCH2>
0

>  <NssCH2>
4

>  <NtCH>
0

>  <NdsCH>
3

>  <NaaCH>
0

>  <NsssCH>
5

>  <NddC>
0

>  <NtsC>
0

>  <NdssC>
4

>  <NaasC>
0

>  <NaaaC>
0

>  <NssssC>
4

>  <NsNH3>
0

>  <NsNH2>
0

>  <NssNH2>
0

>  <NdNH>
0

>  <NssNH>
0

>  <NaaNH>
0

>  <NtN>
0

>  <NsssNH>
0

>  <NdsN>
0

>  <NaaN>
0

>  <NsssN>
0

>  <NddsN>
0

>  <NaasN>
0

>  <NssssN>
0

>  <NsOH>
1

>  <NdO>
3

>  <NssO>
1

>  <NaaO>
0

>  <NsF>
2

>  <NsSiH3>
0

>  <NssSiH2>
0

>  <NsssSiH>
0

>  <NssssSi>
0

>  <NsPH2>
0

>  <NssPH>
0

>  <NsssP>
0

>  <NdsssP>
0

>  <NsssssP>
0

>  <NsSH>
0

>  <NdS>
0

>  <NssS>
1

>  <NaaS>
0

>  <NdssS>
0

>  <NddssS>
0

>  <NsCl>
0

>  <NsBr>
0

>  <NsI>
0

>  <fragCpx>
240.08

>  <fMF>
0.26

>  <nHBAcc>
6

>  <nHBDon>
1

>  <Kier1>
26.07

>  <Kier2>
8.54

>  <Lipinski>
1

>  <GhoseFilter>
0

>  <FilterItLogS>
-4.48

>  <VMcGowan>
347.39

>  <LabuteASA>
196.94

>  <PEOE_VSA1>
9.84

>  <PEOE_VSA2>
14.38

>  <PEOE_VSA3>
8.78

>  <PEOE_VSA4>
0

>  <PEOE_VSA5>
0

>  <PEOE_VSA6>
38.61

>  <PEOE_VSA7>
56.09

>  <PEOE_VSA8>
29.09

>  <PEOE_VSA9>
6.1

>  <PEOE_VSA10>
6.17

>  <PEOE_VSA11>
17.05

>  <PEOE_VSA12>
5.12

>  <PEOE_VSA13>
0

>  <SMR_VSA1>
33.01

>  <SMR_VSA2>
0

>  <SMR_VSA3>
0

>  <SMR_VSA4>
28.58

>  <SMR_VSA5>
76.92

>  <SMR_VSA6>
6.26

>  <SMR_VSA7>
23.8

>  <SMR_VSA8>
0

>  <SMR_VSA9>
0

>  <SlogP_VSA1>
0

>  <SlogP_VSA2>
51.78

>  <SlogP_VSA3>
19.12

>  <SlogP_VSA4>
28.58

>  <SlogP_VSA5>
53.38

>  <SlogP_VSA6>
23.8

>  <SlogP_VSA7>
0

>  <SlogP_VSA8>
0

>  <SlogP_VSA9>
0

>  <SlogP_VSA10>
8.78

>  <SlogP_VSA11>
0

>  <EState_VSA1>
63.88

>  <EState_VSA2>
29.95

>  <EState_VSA3>
6.42

>  <EState_VSA4>
17.84

>  <EState_VSA5>
12.15

>  <EState_VSA6>
27.03

>  <EState_VSA7>
6.92

>  <EState_VSA8>
0

>  <EState_VSA9>
4.74

>  <EState_VSA10>
19.49

>  <VSA_EState1>
38.63

>  <VSA_EState2>
37.8

>  <VSA_EState3>
11.06

>  <VSA_EState4>
-6.25

>  <VSA_EState5>
-2.77

>  <VSA_EState6>
0

>  <VSA_EState7>
2.45

>  <VSA_EState8>
6.78

>  <VSA_EState9>
0

>  <apol>
71.11

>  <bpol>
41.13

>  <nRing>
4

>  <nHRing>
0

>  <naRing>
0

>  <naHRing>
0

>  <nARing 2>
4

>  <nAHRing 2>
0

>  <nFRing>
1

>  <nFHRing>
0

>  <nFaRing>
0

>  <nFaHRing>
0

>  <nFARing 2>
1

>  <nFAHRing 2>
0

>  <nRot>
3

>  <SLogP>
4.13

>  <SMR>
120.82

>  <TopoPSA(NO)>
80.67

>  <TopoPSA>
105.97

>  <JGI1>
0.32

>  <JGI2>
0.15

>  <JGI3>
0.08

>  <JGI4>
0.06

>  <JGI5>
0.04

>  <Diameter>
13

>  <Radius>
7

>  <TMWC10>
151.86

>  <TSRW10>
85.68

>  <MW>
482.19

>  <AMW>
7.42

>  <WPath>
2596

>  <WPol>
80

>  <Zagreb1>
192

>  <Zagreb2>
250

>  <mZagreb2>
7.06

>  <yes>


>  <nAR-cont>
0.199399

>  <nHA-cont>
0.61399562

>  <MWHBN>
0.318778439

>  <MWHBN-cont>
0.781249866

>  <TPSA-cont>
0.260263597

>  <pka_cont>
0.97

>  <yes.1>


>  <BBB_SCORE>
2.990796612

>  <MMFF94 Energy>
128.32

$$$$
Compound 1077
Actelion Java MolfileCreator 2.0

  0  0  0  0  0  0              0 V3000
M  V30 BEGIN CTAB
M  V30 COUNTS 65 68 0 0 0
M  V30 BEGIN ATOM
M  V30 1 Cl 3.2099 -5.3541 -3.6219 0
M  V30 2 C 3.2224 -3.5789 -3.5138 0
M  V30 3 S 1.8275 -3.0137 -2.5144 0
M  V30 4 C 2.2491 -1.2949 -2.5039 0
M  V30 5 O 2.7715 -0.7928 -3.4929 0
M  V30 6 C 1.85 -0.4937 -1.2217 0 CFG=2
M  V30 7 O 2.201 -1.111 0.0416 0
M  V30 8 C 0.2846 -0.2114 -1.1679 0 CFG=2
M  V30 9 C 2.4135 0.9869 -1.2785 0 CFG=1
M  V30 10 C 3.3959 -1.7456 0.1871 0
M  V30 11 C 0.257 0.9495 -0.1438 0 CFG=1
M  V30 12 C -0.5968 -1.3405 -0.5778 0
M  V30 13 C -0.2442 0.2048 -2.5689 0
M  V30 14 C 1.3394 1.9008 -0.6347 0
M  V30 15 C 3.7799 1.2271 -0.6453 0
M  V30 16 O 4.2392 -1.8575 -0.6885 0
M  V30 17 C 3.5075 -2.286 1.5914 0
M  V30 18 C -1.1464 1.519 0.1233 0
M  V30 19 C -2.0285 -0.8879 -0.2057 0 CFG=1
M  V30 20 C 4.811 -3.0327 1.8107 0
M  V30 21 C -2.0551 0.3821 0.6966 0 CFG=1
M  V30 22 C -1.0705 2.705 1.1009 0
M  V30 23 O -2.7948 -0.721 -1.3932 0
M  V30 24 F -1.4524 -0.0124 1.8814 0
M  V30 25 C -3.4949 0.9144 1.0916 0 CFG=2
M  V30 26 C -2.4462 3.2308 1.4877 0 CFG=1
M  V30 27 C -3.309 2.1211 2.0289 0
M  V30 28 C -4.3095 -0.1831 1.7763 0
M  V30 29 C -4.3438 1.3798 -0.1142 0
M  V30 30 F -2.266 4.2187 2.4104 0
M  V30 31 C -3.8242 2.1897 3.27 0
M  V30 32 C -4.8189 -0.1093 3.0131 0
M  V30 33 C -4.6218 1.0907 3.8474 0
M  V30 34 O -5.1019 1.1689 4.9707 0
M  V30 35 H 4.1736 -3.2796 -3.0668 0
M  V30 36 H 3.1559 -3.1854 -4.5314 0
M  V30 37 H 2.5043 1.3081 -2.324 0
M  V30 38 H 0.6159 0.5686 0.8255 0
M  V30 39 H -0.133 -1.7441 0.3301 0
M  V30 40 H -0.6667 -2.1674 -1.2918 0
M  V30 41 H -0.3444 -0.6692 -3.2215 0
M  V30 42 H 0.4159 0.9116 -3.0797 0
M  V30 43 H -1.223 0.6861 -2.5328 0
M  V30 44 H 1.7398 2.5031 0.1879 0
M  V30 45 H 0.9425 2.5962 -1.3838 0
M  V30 46 H 4.0667 2.2794 -0.7516 0
M  V30 47 H 4.5521 0.6328 -1.141 0
M  V30 48 H 3.7825 0.9973 0.4244 0
M  V30 49 H 2.6665 -2.9645 1.7695 0
M  V30 50 H 3.4462 -1.4463 2.2915 0
M  V30 51 H -1.571 1.895 -0.8126 0
M  V30 52 H -2.4809 -1.7188 0.3475 0
M  V30 53 H 4.864 -3.415 2.8346 0
M  V30 54 H 5.6722 -2.377 1.6448 0
M  V30 55 H 4.8987 -3.8804 1.1232 0
M  V30 56 H -0.524 2.4176 2.0092 0
M  V30 57 H -0.4973 3.5289 0.659 0
M  V30 58 H -2.8051 -1.5743 -1.8642 0
M  V30 59 H -2.9323 3.698 0.6252 0
M  V30 60 H -4.5141 -1.0842 1.2022 0
M  V30 61 H -4.7363 0.5398 -0.697 0
M  V30 62 H -3.7849 2.0215 -0.8014 0
M  V30 63 H -5.2198 1.9533 0.2174 0
M  V30 64 H -3.6688 3.0435 3.9214 0
M  V30 65 H -5.4019 -0.9092 3.4533 0
M  V30 END ATOM
M  V30 BEGIN BOND
M  V30 1 1 1 2
M  V30 2 1 2 3
M  V30 3 1 3 4
M  V30 4 2 4 5
M  V30 5 1 4 6
M  V30 6 1 6 7
M  V30 7 1 6 8
M  V30 8 1 6 9
M  V30 9 1 7 10
M  V30 10 1 8 11
M  V30 11 1 8 12
M  V30 12 1 8 13
M  V30 13 1 9 14
M  V30 14 1 9 15
M  V30 15 2 10 16
M  V30 16 1 10 17
M  V30 17 1 11 18
M  V30 18 1 12 19
M  V30 19 1 17 20
M  V30 20 1 18 21
M  V30 21 1 18 22
M  V30 22 1 19 23
M  V30 23 1 21 24
M  V30 24 1 21 25
M  V30 25 1 22 26
M  V30 26 1 25 27
M  V30 27 1 25 28
M  V30 28 1 25 29
M  V30 29 1 26 30
M  V30 30 2 27 31
M  V30 31 2 28 32
M  V30 32 1 31 33
M  V30 33 2 33 34
M  V30 34 1 11 14
M  V30 35 1 19 21
M  V30 36 1 26 27
M  V30 37 1 32 33
M  V30 38 1 2 35
M  V30 39 1 2 36
M  V30 40 1 9 37
M  V30 41 1 11 38
M  V30 42 1 12 39
M  V30 43 1 12 40
M  V30 44 1 13 41
M  V30 45 1 13 42
M  V30 46 1 13 43
M  V30 47 1 14 44
M  V30 48 1 14 45
M  V30 49 1 15 46
M  V30 50 1 15 47
M  V30 51 1 15 48
M  V30 52 1 17 49
M  V30 53 1 17 50
M  V30 54 1 18 51
M  V30 55 1 19 52
M  V30 56 1 20 53
M  V30 57 1 20 54
M  V30 58 1 20 55
M  V30 59 1 22 56
M  V30 60 1 22 57
M  V30 61 1 23 58
M  V30 62 1 26 59
M  V30 63 1 28 60
M  V30 64 1 29 61
M  V30 65 1 29 62
M  V30 66 1 29 63
M  V30 67 1 31 64
M  V30 68 1 32 65
M  V30 END BOND
M  V30 BEGIN COLLECTION
M  V30 MDLV30/STEABS ATOMS=(8 6 8 9 11 19 21 25 26)
M  V30 END COLLECTION
M  V30 END CTAB
M  END
>  <Column 1>
1283

>  <level_0>
1427

>  <index>
1427

>  <Unnamed: 0>
1427

>  <NO.>
1439

>  <Name>
schembl13773292

>  <IUPAC_name>
[(6s-9r-10s-11s-13s-14s-16r-17r)-17-(chloromethylsulfanylcarbonyl)-6-9-difluoro-11-hydroxy-10-13-16-trimethyl-3-oxo-6-7-8-11-12-14-15-16-octahydrocyclopenta[a]phenanthren-17-yl] propanoate

>  <SMILES>
CCC(=O)O[C@]1(C(=O)SCCl)[C@H](C)C[C@H]2C3C[C@H](F)C4=CC(=O)C=C[C@]4(C)[C@@]3(F)[C@@H](O)C[C@@]21C

>  <CID>
54581

>  <logBB>


>  <BBB+/BBB->
BBB+

>  <Inchi>
InChI=1S/C25H31ClF2O5S/c1-5-20(31)33-25(21(32)34-12-26)13(2)8-15-16-10-18(27)17-9-14(29)6-7-22(17-3)24(16-28)19(30)11-23(15-25)4/h6-7-9-13-15-16-18-19-30H-5-8-10-12H2-1-4H3/t13--15+-16?-18+-19+-22+-23+-24+-25+/m1/s1

>  <threshold>
-1

>  <reference>
R1|R27|R30|

>  <group>
B

>  <Class>
1

>  <ABC>
26.66

>  <ABCGG>
22.59

>  <nAcid>
0

>  <nBase>
0

>  <nAromAtom>
0

>  <nAromBond>
0

>  <nAtom>
65

>  <nHeavyAtom>
34

>  <nSpiro>
0

>  <nBridgehead>
0

>  <nHetero>
9

>  <nN>
0

>  <nO>
5

>  <nF>
2

>  <BalabanJ>
1.81

>  <BertzCT>
986.35

>  <nBonds>
68

>  <nBondsO>
37

>  <nBondsS>
63

>  <nBondsD>
5

>  <nBondsT>
0

>  <nBondsA>
0

>  <nBondsM>
5

>  <nBondsKS>
63

>  <nBondsKD>
5

>  <RNCG>
0.16

>  <RPCG>
0.11

>  <FCSP3>
0.72

>  <SZ>
45.33

>  <Sm>
43.05

>  <Sv>
40.54

>  <Sse>
66.17

>  <Sp>
43.49

>  <Si>
73.65

>  <MZ>
0.7

>  <Mm>
0.66

>  <Mv>
0.62

>  <Mse>
1.02

>  <Mp>
0.67

>  <Mi>
1.13

>  <NsCH3>
4

>  <NdCH2>
0

>  <NssCH2>
5

>  <NtCH>
0

>  <NdsCH>
3

>  <NaaCH>
0

>  <NsssCH>
5

>  <NddC>
0

>  <NtsC>
0

>  <NdssC>
4

>  <NaasC>
0

>  <NaaaC>
0

>  <NssssC>
4

>  <NsNH3>
0

>  <NsNH2>
0

>  <NssNH2>
0

>  <NdNH>
0

>  <NssNH>
0

>  <NaaNH>
0

>  <NtN>
0

>  <NsssNH>
0

>  <NdsN>
0

>  <NaaN>
0

>  <NsssN>
0

>  <NddsN>
0

>  <NaasN>
0

>  <NssssN>
0

>  <NsOH>
1

>  <NdO>
3

>  <NssO>
1

>  <NaaO>
0

>  <NsF>
2

>  <NsSiH3>
0

>  <NssSiH2>
0

>  <NsssSiH>
0

>  <NssssSi>
0

>  <NsPH2>
0

>  <NssPH>
0

>  <NsssP>
0

>  <NdsssP>
0

>  <NsssssP>
0

>  <NsSH>
0

>  <NdS>
0

>  <NssS>
1

>  <NaaS>
0

>  <NdssS>
0

>  <NddssS>
0

>  <NsCl>
1

>  <NsBr>
0

>  <NsI>
0

>  <fragCpx>
247.09

>  <fMF>
0.26

>  <nHBAcc>
6

>  <nHBDon>
1

>  <Kier1>
27.05

>  <Kier2>
9.08

>  <Lipinski>
0

>  <GhoseFilter>
0

>  <FilterItLogS>
-5.08

>  <VMcGowan>
359.63

>  <LabuteASA>
207.25

>  <PEOE_VSA1>
9.84

>  <PEOE_VSA2>
14.38

>  <PEOE_VSA3>
8.78

>  <PEOE_VSA4>
0

>  <PEOE_VSA5>
11.6

>  <PEOE_VSA6>
38.61

>  <PEOE_VSA7>
49.83

>  <PEOE_VSA8>
29.09

>  <PEOE_VSA9>
11.32

>  <PEOE_VSA10>
6.17

>  <PEOE_VSA11>
17.05

>  <PEOE_VSA12>
5.12

>  <PEOE_VSA13>
0

>  <SMR_VSA1>
33.01

>  <SMR_VSA2>
0

>  <SMR_VSA3>
0

>  <SMR_VSA4>
28.58

>  <SMR_VSA5>
76.92

>  <SMR_VSA6>
5.21

>  <SMR_VSA7>
23.8

>  <SMR_VSA8>
0

>  <SMR_VSA9>
0

>  <SlogP_VSA1>
0

>  <SlogP_VSA2>
50.73

>  <SlogP_VSA3>
19.12

>  <SlogP_VSA4>
28.58

>  <SlogP_VSA5>
53.38

>  <SlogP_VSA6>
23.8

>  <SlogP_VSA7>
0

>  <SlogP_VSA8>
0

>  <SlogP_VSA9>
0

>  <SlogP_VSA10>
8.78

>  <SlogP_VSA11>
0

>  <EState_VSA1>
69

>  <EState_VSA2>
30.05

>  <EState_VSA3>
6.42

>  <EState_VSA4>
17.84

>  <EState_VSA5>
19.08

>  <EState_VSA6>
20.77

>  <EState_VSA7>
0

>  <EState_VSA8>
0

>  <EState_VSA9>
16.34

>  <EState_VSA10>
19.49

>  <VSA_EState1>
38.72

>  <VSA_EState2>
38.02

>  <VSA_EState3>
10.95

>  <VSA_EState4>
-6.46

>  <VSA_EState5>
-2.95

>  <VSA_EState6>
0

>  <VSA_EState7>
0.61

>  <VSA_EState8>
6.69

>  <VSA_EState9>
0

>  <apol>
72.62

>  <bpol>
40.64

>  <nRing>
4

>  <nHRing>
0

>  <naRing>
0

>  <naHRing>
0

>  <nARing 2>
4

>  <nAHRing 2>
0

>  <nFRing>
1

>  <nFHRing>
0

>  <nFaRing>
0

>  <nFaHRing>
0

>  <nFARing 2>
1

>  <nFAHRing 2>
0

>  <nRot>
4

>  <SLogP>
4.7

>  <SMR>
125.61

>  <TopoPSA(NO)>
80.67

>  <TopoPSA>
105.97

>  <JGI1>
0.31

>  <JGI2>
0.15

>  <JGI3>
0.08

>  <JGI4>
0.06

>  <JGI5>
0.04

>  <Diameter>
13

>  <Radius>
7

>  <TMWC10>
153.97

>  <TSRW10>
86.75

>  <MW>
516.15

>  <AMW>
7.94

>  <WPath>
2835

>  <WPol>
81

>  <Zagreb1>
196

>  <Zagreb2>
254

>  <mZagreb2>
7.31

>  <yes>


>  <nAR-cont>
0.199399

>  <nHA-cont>
0.568589513

>  <MWHBN>
0.308113037

>  <MWHBN-cont>
0.815841458

>  <TPSA-cont>
0.260263597

>  <pka_cont>
0.97

>  <yes.1>


>  <BBB_SCORE>
2.997277892

>  <MMFF94 Energy>
112.16

$$$$
Compound 1078
Actelion Java MolfileCreator 2.0

  0  0  0  0  0  0              0 V3000
M  V30 BEGIN CTAB
M  V30 COUNTS 65 68 0 0 0
M  V30 BEGIN ATOM
M  V30 1 S 4.015 -0.0818 2.0469 0
M  V30 2 C 2.4875 0.3477 2.8285 0
M  V30 3 C 5.0075 -0.186 3.549 0
M  V30 4 O 2.4952 1.0524 3.8322 0
M  V30 5 C 1.1856 -0.1561 2.1241 0 CFG=2
M  V30 6 F 6.2595 -0.6056 3.2174 0
M  V30 7 O 1.1817 -1.5518 1.7344 0
M  V30 8 C 0.865 0.679 0.8077 0 CFG=2
M  V30 9 C -0.0957 0.1721 2.9978 0 CFG=1
M  V30 10 C 1.7126 -2.4965 2.5536 0
M  V30 11 C -0.6316 0.3255 0.6253 0 CFG=1
M  V30 12 C 1.5856 0.2249 -0.4865 0
M  V30 13 C 1.1038 2.1956 1.0502 0
M  V30 14 C -1.2325 0.5348 2.0084 0
M  V30 15 C -0.553 -0.8997 3.9809 0
M  V30 16 O 2.2232 -2.2779 3.6419 0
M  V30 17 C 1.6092 -3.8599 1.9227 0
M  V30 18 C -1.3007 1.0207 -0.5722 0 CFG=1
M  V30 19 C 0.9733 0.8076 -1.782 0 CFG=1
M  V30 20 C 0.1682 -4.3216 1.8281 0
M  V30 21 C -0.5663 0.5899 -1.8844 0 CFG=1
M  V30 22 C -2.7958 0.6619 -0.638 0
M  V30 23 O 1.3322 2.1799 -1.8986 0
M  V30 24 F -0.725 -0.7853 -1.9639 0
M  V30 25 C -1.2603 1.1883 -3.1778 0 CFG=2
M  V30 26 C -3.4785 1.2328 -1.8735 0 CFG=1
M  V30 27 C -2.7527 0.8149 -3.1255 0
M  V30 28 C -0.6081 0.6386 -4.4464 0
M  V30 29 C -1.1626 2.728 -3.2862 0
M  V30 30 F -4.7689 0.7913 -1.8731 0
M  V30 31 C -3.3832 0.1195 -4.0896 0
M  V30 32 C -1.2411 -0.0542 -5.4023 0
M  V30 33 C -2.6812 -0.3549 -5.2976 0
M  V30 34 O -3.2667 -0.9714 -6.1783 0
M  V30 35 H 4.5884 -0.9078 4.2545 0
M  V30 36 H 5.1018 0.7912 4.0294 0
M  V30 37 H 0.088 1.0724 3.5983 0
M  V30 38 H -0.7134 -0.7554 0.4286 0
M  V30 39 H 2.642 0.5088 -0.4413 0
M  V30 40 H 1.5544 -0.868 -0.5706 0
M  V30 41 H 2.1744 2.4278 1.0325 0
M  V30 42 H 0.6302 2.8302 0.2991 0
M  V30 43 H 0.7181 2.5383 2.0148 0
M  V30 44 H -2.1249 -0.0846 2.1498 0
M  V30 45 H -1.5349 1.5789 2.153 0
M  V30 46 H 0.2257 -1.1157 4.7174 0
M  V30 47 H -0.8349 -1.827 3.4742 0
M  V30 48 H -1.4327 -0.5537 4.5357 0
M  V30 49 H 2.1864 -4.5636 2.5325 0
M  V30 50 H 2.0811 -3.8285 0.9348 0
M  V30 51 H -1.231 2.106 -0.4486 0
M  V30 52 H 1.4563 0.2834 -2.6145 0
M  V30 53 H 0.1175 -5.3284 1.4027 0
M  V30 54 H -0.4225 -3.6531 1.1931 0
M  V30 55 H -0.3017 -4.3421 2.817 0
M  V30 56 H -2.9286 -0.4281 -0.6217 0
M  V30 57 H -3.3186 1.0369 0.2501 0
M  V30 58 H 2.3055 2.234 -1.9102 0
M  V30 59 H -3.5251 2.325 -1.8132 0
M  V30 60 H 0.4482 0.851 -4.5964 0
M  V30 61 H -1.849 3.1141 -4.0517 0
M  V30 62 H -1.4134 3.2341 -2.3493 0
M  V30 63 H -0.1624 3.0627 -3.5812 0
M  V30 64 H -4.4332 -0.1472 -4.0267 0
M  V30 65 H -0.7392 -0.4139 -6.2923 0
M  V30 END ATOM
M  V30 BEGIN BOND
M  V30 1 1 1 2
M  V30 2 1 1 3
M  V30 3 2 2 4
M  V30 4 1 2 5
M  V30 5 1 3 6
M  V30 6 1 5 7
M  V30 7 1 5 8
M  V30 8 1 5 9
M  V30 9 1 7 10
M  V30 10 1 8 11
M  V30 11 1 8 12
M  V30 12 1 8 13
M  V30 13 1 9 14
M  V30 14 1 9 15
M  V30 15 2 10 16
M  V30 16 1 10 17
M  V30 17 1 11 18
M  V30 18 1 12 19
M  V30 19 1 17 20
M  V30 20 1 18 21
M  V30 21 1 18 22
M  V30 22 1 19 23
M  V30 23 1 21 24
M  V30 24 1 21 25
M  V30 25 1 22 26
M  V30 26 1 25 27
M  V30 27 1 25 28
M  V30 28 1 25 29
M  V30 29 1 26 30
M  V30 30 2 27 31
M  V30 31 2 28 32
M  V30 32 1 31 33
M  V30 33 2 33 34
M  V30 34 1 11 14
M  V30 35 1 19 21
M  V30 36 1 26 27
M  V30 37 1 32 33
M  V30 38 1 3 35
M  V30 39 1 3 36
M  V30 40 1 9 37
M  V30 41 1 11 38
M  V30 42 1 12 39
M  V30 43 1 12 40
M  V30 44 1 13 41
M  V30 45 1 13 42
M  V30 46 1 13 43
M  V30 47 1 14 44
M  V30 48 1 14 45
M  V30 49 1 15 46
M  V30 50 1 15 47
M  V30 51 1 15 48
M  V30 52 1 17 49
M  V30 53 1 17 50
M  V30 54 1 18 51
M  V30 55 1 19 52
M  V30 56 1 20 53
M  V30 57 1 20 54
M  V30 58 1 20 55
M  V30 59 1 22 56
M  V30 60 1 22 57
M  V30 61 1 23 58
M  V30 62 1 26 59
M  V30 63 1 28 60
M  V30 64 1 29 61
M  V30 65 1 29 62
M  V30 66 1 29 63
M  V30 67 1 31 64
M  V30 68 1 32 65
M  V30 END BOND
M  V30 BEGIN COLLECTION
M  V30 MDLV30/STEABS ATOMS=(9 5 8 9 11 18 19 21 25 26)
M  V30 END COLLECTION
M  V30 END CTAB
M  END
>  <Column 1>
1284

>  <level_0>
1428

>  <index>
1428

>  <Unnamed: 0>
1428

>  <NO.>
1440

>  <Name>
fluticasone propionate

>  <IUPAC_name>
[(6s-8s-9r-10s-11s-13s-14s-16r-17r)-6-9-difluoro-17-(fluoromethylsulfanylcarbonyl)-11-hydroxy-10-13-16-trimethyl-3-oxo-6-7-8-11-12-14-15-16-octahydrocyclopenta[a]phenanthren-17-yl] propanoate

>  <SMILES>
CCC(=O)O[C@]1(C(=O)SCF)[C@H](C)C[C@H]2[C@@H]3C[C@H](F)C4=CC(=O)C=C[C@]4(C)[C@@]3(F)[C@@H](O)C[C@@]21C

>  <CID>
444036

>  <logBB>


>  <BBB+/BBB->
BBB+

>  <Inchi>
InChI=1S/C25H31F3O5S/c1-5-20(31)33-25(21(32)34-12-26)13(2)8-15-16-10-18(27)17-9-14(29)6-7-22(17-3)24(16-28)19(30)11-23(15-25)4/h6-7-9-13-15-16-18-19-30H-5-8-10-12H2-1-4H3/t13--15+-16+-18+-19+-22+-23+-24+-25+/m1/s1

>  <threshold>
-1

>  <reference>
R1|R6|R27|R30|

>  <group>
B

>  <Class>
1

>  <ABC>
26.66

>  <ABCGG>
22.59

>  <nAcid>
0

>  <nBase>
0

>  <nAromAtom>
0

>  <nAromBond>
0

>  <nAtom>
65

>  <nHeavyAtom>
34

>  <nSpiro>
0

>  <nBridgehead>
0

>  <nHetero>
9

>  <nN>
0

>  <nO>
5

>  <nF>
3

>  <BalabanJ>
1.81

>  <BertzCT>
983.6

>  <nBonds>
68

>  <nBondsO>
37

>  <nBondsS>
63

>  <nBondsD>
5

>  <nBondsT>
0

>  <nBondsA>
0

>  <nBondsM>
5

>  <nBondsKS>
63

>  <nBondsKD>
5

>  <RNCG>
0.16

>  <RPCG>
0.11

>  <FCSP3>
0.72

>  <SZ>
44

>  <Sm>
41.68

>  <Sv>
40.1

>  <Sse>
66.36

>  <Sp>
42.52

>  <Si>
74.05

>  <MZ>
0.68

>  <Mm>
0.64

>  <Mv>
0.62

>  <Mse>
1.02

>  <Mp>
0.65

>  <Mi>
1.14

>  <NsCH3>
4

>  <NdCH2>
0

>  <NssCH2>
5

>  <NtCH>
0

>  <NdsCH>
3

>  <NaaCH>
0

>  <NsssCH>
5

>  <NddC>
0

>  <NtsC>
0

>  <NdssC>
4

>  <NaasC>
0

>  <NaaaC>
0

>  <NssssC>
4

>  <NsNH3>
0

>  <NsNH2>
0

>  <NssNH2>
0

>  <NdNH>
0

>  <NssNH>
0

>  <NaaNH>
0

>  <NtN>
0

>  <NsssNH>
0

>  <NdsN>
0

>  <NaaN>
0

>  <NsssN>
0

>  <NddsN>
0

>  <NaasN>
0

>  <NssssN>
0

>  <NsOH>
1

>  <NdO>
3

>  <NssO>
1

>  <NaaO>
0

>  <NsF>
3

>  <NsSiH3>
0

>  <NssSiH2>
0

>  <NsssSiH>
0

>  <NssssSi>
0

>  <NsPH2>
0

>  <NssPH>
0

>  <NsssP>
0

>  <NdsssP>
0

>  <NsssssP>
0

>  <NsSH>
0

>  <NdS>
0

>  <NssS>
1

>  <NaaS>
0

>  <NdssS>
0

>  <NddssS>
0

>  <NsCl>
0

>  <NsBr>
0

>  <NsI>
0

>  <fragCpx>
247.09

>  <fMF>
0.26

>  <nHBAcc>
6

>  <nHBDon>
1

>  <Kier1>
27.05

>  <Kier2>
9.08

>  <Lipinski>
0

>  <GhoseFilter>
0

>  <FilterItLogS>
-4.76

>  <VMcGowan>
349.15

>  <LabuteASA>
201.11

>  <PEOE_VSA1>
9.84

>  <PEOE_VSA2>
14.38

>  <PEOE_VSA3>
13.17

>  <PEOE_VSA4>
0

>  <PEOE_VSA5>
0

>  <PEOE_VSA6>
26.85

>  <PEOE_VSA7>
61.59

>  <PEOE_VSA8>
29.09

>  <PEOE_VSA9>
6.1

>  <PEOE_VSA10>
12.18

>  <PEOE_VSA11>
17.05

>  <PEOE_VSA12>
5.12

>  <PEOE_VSA13>
0

>  <SMR_VSA1>
37.4

>  <SMR_VSA2>
0

>  <SMR_VSA3>
0

>  <SMR_VSA4>
28.58

>  <SMR_VSA5>
76.92

>  <SMR_VSA6>
6.01

>  <SMR_VSA7>
23.8

>  <SMR_VSA8>
0

>  <SMR_VSA9>
0

>  <SlogP_VSA1>
0

>  <SlogP_VSA2>
51.53

>  <SlogP_VSA3>
19.12

>  <SlogP_VSA4>
28.58

>  <SlogP_VSA5>
53.38

>  <SlogP_VSA6>
23.8

>  <SlogP_VSA7>
0

>  <SlogP_VSA8>
0

>  <SlogP_VSA9>
0

>  <SlogP_VSA10>
13.17

>  <SlogP_VSA11>
0

>  <EState_VSA1>
75

>  <EState_VSA2>
31.26

>  <EState_VSA3>
11.76

>  <EState_VSA4>
6.08

>  <EState_VSA5>
19.08

>  <EState_VSA6>
20.77

>  <EState_VSA7>
0

>  <EState_VSA8>
0

>  <EState_VSA9>
4.74

>  <EState_VSA10>
23.88

>  <VSA_EState1>
51.83

>  <VSA_EState2>
37.78

>  <VSA_EState3>
10.71

>  <VSA_EState4>
-6.84

>  <VSA_EState5>
-3.3

>  <VSA_EState6>
-1.02

>  <VSA_EState7>
0.16

>  <VSA_EState8>
6.45

>  <VSA_EState9>
0

>  <apol>
71

>  <bpol>
41.24

>  <nRing>
4

>  <nHRing>
0

>  <naRing>
0

>  <naHRing>
0

>  <nARing 2>
4

>  <nAHRing 2>
0

>  <nFRing>
1

>  <nFHRing>
0

>  <nFaRing>
0

>  <nFaHRing>
0

>  <nFARing 2>
1

>  <nFAHRing 2>
0

>  <nRot>
4

>  <SLogP>
4.43

>  <SMR>
120.87

>  <TopoPSA(NO)>
80.67

>  <TopoPSA>
105.97

>  <JGI1>
0.31

>  <JGI2>
0.15

>  <JGI3>
0.08

>  <JGI4>
0.06

>  <JGI5>
0.04

>  <Diameter>
13

>  <Radius>
7

>  <TMWC10>
153.97

>  <TSRW10>
86.75

>  <MW>
500.18

>  <AMW>
7.7

>  <WPath>
2835

>  <WPol>
81

>  <Zagreb1>
196

>  <Zagreb2>
254

>  <mZagreb2>
7.31

>  <yes>


>  <nAR-cont>
0.199399

>  <nHA-cont>
0.568589513

>  <MWHBN>
0.312993183

>  <MWHBN-cont>
0.800262308

>  <TPSA-cont>
0.260263597

>  <pka_cont>
0.97

>  <yes.1>


>  <BBB_SCORE>
2.973909168

>  <MMFF94 Energy>
110.39

$$$$
Compound 1079
Actelion Java MolfileCreator 2.0

  0  0  0  0  0  0              0 V3000
M  V30 BEGIN CTAB
M  V30 COUNTS 45 46 0 0 0
M  V30 BEGIN ATOM
M  V30 1 O 1.8936 1.8147 0.7886 0
M  V30 2 C 0.6929 1.9023 0.5897 0
M  V30 3 O -0.1308 0.902 0.1741 0
M  V30 4 C -0.1265 3.159 0.7688 0
M  V30 5 C 0.3647 -0.4475 -0.0925 0 CFG=1
M  V30 6 C 0.718 4.3303 1.2381 0
M  V30 7 C 0.7945 -1.1688 1.2018 0
M  V30 8 C -0.8287 -1.225 -0.7535 0 CFG=2
M  V30 9 C 1.4993 -0.3935 -1.1542 0
M  V30 10 C 1.5375 -2.3637 1.1571 0
M  V30 11 C 0.4118 -0.6973 2.4718 0
M  V30 12 C -1.2237 -0.5614 -2.0922 0
M  V30 13 C -2.0855 -1.4493 0.128 0
M  V30 14 C 1.0305 0.2523 -2.4561 0
M  V30 15 C 1.9077 -3.0358 2.3261 0
M  V30 16 C 0.7821 -1.3685 3.6411 0
M  V30 17 N -0.0885 -0.5073 -3.0235 0
M  V30 18 C -2.8662 -0.2174 0.5628 0
M  V30 19 C 1.5336 -2.5357 3.5683 0
M  V30 20 C -0.5008 0.0686 -4.3042 0
M  V30 21 H -0.9106 2.9591 1.5068 0
M  V30 22 H -0.5918 3.4084 -0.1907 0
M  V30 23 H 0.0977 5.2237 1.3587 0
M  V30 24 H 1.5099 4.5579 0.5168 0
M  V30 25 H 1.1939 4.1114 2.1998 0
M  V30 26 H -0.4684 -2.2374 -0.9952 0
M  V30 27 H 2.3759 0.1476 -0.7857 0
M  V30 28 H 1.8601 -1.401 -1.3953 0
M  V30 29 H 1.8341 -2.804 0.2087 0
M  V30 30 H -0.1905 0.2006 2.5754 0
M  V30 31 H -1.6237 0.4465 -1.9262 0
M  V30 32 H -2.0271 -1.1547 -2.5474 0
M  V30 33 H -1.8146 -2.0256 1.0198 0
M  V30 34 H -2.7754 -2.0952 -0.4316 0
M  V30 35 H 1.8721 0.2444 -3.1597 0
M  V30 36 H 0.759 1.3028 -2.2935 0
M  V30 37 H 2.4869 -3.9533 2.2623 0
M  V30 38 H 0.4797 -0.9768 4.6088 0
M  V30 39 H -3.7755 -0.5275 1.0894 0
M  V30 40 H -3.1763 0.3931 -0.2889 0
M  V30 41 H -2.2961 0.4061 1.2545 0
M  V30 42 H 1.8226 -3.0569 4.4766 0
M  V30 43 H 0.3325 0.0609 -5.0154 0
M  V30 44 H -1.302 -0.5278 -4.7543 0
M  V30 45 H -0.8555 1.1003 -4.199 0
M  V30 END ATOM
M  V30 BEGIN BOND
M  V30 1 2 1 2
M  V30 2 1 2 3
M  V30 3 1 2 4
M  V30 4 1 3 5
M  V30 5 1 4 6
M  V30 6 1 5 7
M  V30 7 1 5 8
M  V30 8 1 5 9
M  V30 9 2 7 10
M  V30 10 1 7 11
M  V30 11 1 8 12
M  V30 12 1 8 13
M  V30 13 1 9 14
M  V30 14 1 10 15
M  V30 15 2 11 16
M  V30 16 1 12 17
M  V30 17 1 13 18
M  V30 18 2 15 19
M  V30 19 1 17 20
M  V30 20 1 14 17
M  V30 21 1 16 19
M  V30 22 1 4 21
M  V30 23 1 4 22
M  V30 24 1 6 23
M  V30 25 1 6 24
M  V30 26 1 6 25
M  V30 27 1 8 26
M  V30 28 1 9 27
M  V30 29 1 9 28
M  V30 30 1 10 29
M  V30 31 1 11 30
M  V30 32 1 12 31
M  V30 33 1 12 32
M  V30 34 1 13 33
M  V30 35 1 13 34
M  V30 36 1 14 35
M  V30 37 1 14 36
M  V30 38 1 15 37
M  V30 39 1 16 38
M  V30 40 1 18 39
M  V30 41 1 18 40
M  V30 42 1 18 41
M  V30 43 1 19 42
M  V30 44 1 20 43
M  V30 45 1 20 44
M  V30 46 1 20 45
M  V30 END BOND
M  V30 BEGIN COLLECTION
M  V30 MDLV30/STEABS ATOMS=(2 5 8)
M  V30 END COLLECTION
M  V30 END CTAB
M  END
>  <Column 1>
1285

>  <level_0>
1429

>  <index>
1429

>  <Unnamed: 0>
1429

>  <NO.>
1441

>  <Name>
alphameprodine/betameprodine

>  <IUPAC_name>
[(3s-4r)-3-ethyl-1-methyl-4-phenylpiperidin-4-yl] propanoate

>  <SMILES>
CCC(=O)O[C@]1(c2ccccc2)CCN(C)C[C@@H]1CC

>  <CID>
61119

>  <logBB>


>  <BBB+/BBB->
BBB+

>  <Inchi>
InChI=1S/C17H25NO2/c1-4-14-13-18(3)12-11-17(14-20-16(19)5-2)15-9-7-6-8-10-15/h6-10-14H-4-5-11-13H2-1-3H3/t14--17+/m0/s1

>  <threshold>
-1

>  <reference>
R1|R6|R24|R27|R30|

>  <group>
B

>  <Class>
1

>  <ABC>
14.94

>  <ABCGG>
13.4

>  <nAcid>
0

>  <nBase>
1

>  <nAromAtom>
6

>  <nAromBond>
6

>  <nAtom>
45

>  <nHeavyAtom>
20

>  <nSpiro>
0

>  <nBridgehead>
0

>  <nHetero>
3

>  <nN>
1

>  <nO>
2

>  <nF>
0

>  <BalabanJ>
2.21

>  <BertzCT>
445.56

>  <nBonds>
46

>  <nBondsO>
21

>  <nBondsS>
39

>  <nBondsD>
1

>  <nBondsT>
0

>  <nBondsA>
6

>  <nBondsM>
7

>  <nBondsKS>
42

>  <nBondsKD>
4

>  <RNCG>
0.3

>  <RPCG>
0.2

>  <FCSP3>
0.59

>  <SZ>
25

>  <Sm>
22.93

>  <Sv>
25.96

>  <Sse>
44.42

>  <Sp>
28.6

>  <Si>
50.9

>  <MZ>
0.56

>  <Mm>
0.51

>  <Mv>
0.58

>  <Mse>
0.99

>  <Mp>
0.64

>  <Mi>
1.13

>  <NsCH3>
3

>  <NdCH2>
0

>  <NssCH2>
5

>  <NtCH>
0

>  <NdsCH>
0

>  <NaaCH>
5

>  <NsssCH>
1

>  <NddC>
0

>  <NtsC>
0

>  <NdssC>
1

>  <NaasC>
1

>  <NaaaC>
0

>  <NssssC>
1

>  <NsNH3>
0

>  <NsNH2>
0

>  <NssNH2>
0

>  <NdNH>
0

>  <NssNH>
0

>  <NaaNH>
0

>  <NtN>
0

>  <NsssNH>
0

>  <NdsN>
0

>  <NaaN>
0

>  <NsssN>
1

>  <NddsN>
0

>  <NaasN>
0

>  <NssssN>
0

>  <NsOH>
0

>  <NdO>
1

>  <NssO>
1

>  <NaaO>
0

>  <NsF>
0

>  <NsSiH3>
0

>  <NssSiH2>
0

>  <NsssSiH>
0

>  <NssssSi>
0

>  <NsPH2>
0

>  <NssPH>
0

>  <NsssP>
0

>  <NdsssP>
0

>  <NsssssP>
0

>  <NsSH>
0

>  <NdS>
0

>  <NssS>
0

>  <NaaS>
0

>  <NdssS>
0

>  <NddssS>
0

>  <NsCl>
0

>  <NsBr>
0

>  <NsI>
0

>  <fragCpx>
61.03

>  <fMF>
0.27

>  <nHBAcc>
3

>  <nHBDon>
0

>  <Kier1>
16.37

>  <Kier2>
7.32

>  <Lipinski>
1

>  <GhoseFilter>
1

>  <FilterItLogS>
-3.78

>  <VMcGowan>
233.19

>  <LabuteASA>
121.47

>  <PEOE_VSA1>
9.64

>  <PEOE_VSA2>
4.79

>  <PEOE_VSA3>
0

>  <PEOE_VSA4>
0

>  <PEOE_VSA5>
0

>  <PEOE_VSA6>
44.18

>  <PEOE_VSA7>
19.03

>  <PEOE_VSA8>
31.85

>  <PEOE_VSA9>
0

>  <PEOE_VSA10>
5.6

>  <PEOE_VSA11>
0

>  <PEOE_VSA12>
0

>  <PEOE_VSA13>
0

>  <SMR_VSA1>
9.53

>  <SMR_VSA2>
0

>  <SMR_VSA3>
4.9

>  <SMR_VSA4>
5.92

>  <SMR_VSA5>
38.71

>  <SMR_VSA6>
20.14

>  <SMR_VSA7>
35.9

>  <SMR_VSA8>
0

>  <SMR_VSA9>
0

>  <SlogP_VSA1>
0

>  <SlogP_VSA2>
31.01

>  <SlogP_VSA3>
15.13

>  <SlogP_VSA4>
5.92

>  <SlogP_VSA5>
38.67

>  <SlogP_VSA6>
30.33

>  <SlogP_VSA7>
0

>  <SlogP_VSA8>
0

>  <SlogP_VSA9>
0

>  <SlogP_VSA10>
0

>  <SlogP_VSA11>
0

>  <EState_VSA1>
5.6

>  <EState_VSA2>
5.97

>  <EState_VSA3>
12.34

>  <EState_VSA4>
31.49

>  <EState_VSA5>
0

>  <EState_VSA6>
0

>  <EState_VSA7>
25.12

>  <EState_VSA8>
31

>  <EState_VSA9>
4.74

>  <EState_VSA10>
4.79

>  <VSA_EState1>
6

>  <VSA_EState2>
14.29

>  <VSA_EState3>
0

>  <VSA_EState4>
0.69

>  <VSA_EState5>
0.25

>  <VSA_EState6>
10.26

>  <VSA_EState7>
2.31

>  <VSA_EState8>
5.98

>  <VSA_EState9>
2.14

>  <apol>
47.76

>  <bpol>
29.39

>  <nRing>
2

>  <nHRing>
1

>  <naRing>
1

>  <naHRing>
0

>  <nARing 2>
1

>  <nAHRing 2>
1

>  <nFRing>
0

>  <nFHRing>
0

>  <nFaRing>
0

>  <nFaHRing>
0

>  <nFARing 2>
0

>  <nFAHRing 2>
0

>  <nRot>
4

>  <SLogP>
3.2

>  <SMR>
80.4

>  <TopoPSA(NO)>
29.54

>  <TopoPSA>
29.54

>  <JGI1>
0.24

>  <JGI2>
0.1

>  <JGI3>
0.05

>  <JGI4>
0.04

>  <JGI5>
0.02

>  <Diameter>
8

>  <Radius>
4

>  <TMWC10>
114.63

>  <TSRW10>
53.72

>  <MW>
275.19

>  <AMW>
6.12

>  <WPath>
736

>  <WPol>
33

>  <Zagreb1>
100

>  <Zagreb2>
118

>  <mZagreb2>
4.67

>  <yes>


>  <nAR-cont>
0.816016

>  <nHA-cont>
0.999629945

>  <MWHBN>
0.180844344

>  <MWHBN-cont>
0.988059006

>  <TPSA-cont>
0.793792457

>  <pka_cont>
0.97

>  <yes.1>


>  <BBB_SCORE>
5.370319367

>  <MMFF94 Energy>
25.475

$$$$
Compound 1080
Actelion Java MolfileCreator 2.0

  0  0  0  0  0  0              0 V3000
M  V30 BEGIN CTAB
M  V30 COUNTS 48 50 0 0 0
M  V30 BEGIN ATOM
M  V30 1 S 1.8476 -2.4104 -2.2496 0
M  V30 2 C 0.3202 -2.2592 -1.3476 0
M  V30 3 C 2.999 -1.6027 -1.1574 0
M  V30 4 C 0.1539 -1.3783 -0.2604 0
M  V30 5 C -0.7502 -3.0488 -1.7965 0
M  V30 6 C 2.5916 -0.7936 -0.078 0
M  V30 7 C 4.364 -1.8053 -1.4284 0
M  V30 8 N 1.2191 -0.5519 0.1911 0
M  V30 9 C -1.1088 -1.3604 0.3749 0
M  V30 10 C -1.9906 -2.9946 -1.1652 0
M  V30 11 C 3.6083 -0.2763 0.7508 0
M  V30 12 C 5.3439 -1.2449 -0.6151 0
M  V30 13 C 0.8569 0.7945 0.7172 0
M  V30 14 C -2.1785 -2.1514 -0.0704 0
M  V30 15 C 4.9648 -0.4896 0.484 0
M  V30 16 C 0.1832 1.7136 -0.3558 0 CFG=1
M  V30 17 C -3.5233 -2.1263 0.5855 0
M  V30 18 N -0.5017 2.8607 0.3015 0
M  V30 19 C 1.1903 2.1117 -1.4463 0
M  V30 20 O -4.4069 -2.8706 0.1647 0
M  V30 21 C -3.751 -1.1766 1.7497 0
M  V30 22 C -1.5218 3.4569 -0.564 0
M  V30 23 C 0.4012 3.8972 0.8011 0
M  V30 24 C -5.1778 -1.2359 2.2716 0
M  V30 25 H -0.6233 -3.7184 -2.6451 0
M  V30 26 H 4.6704 -2.4164 -2.2747 0
M  V30 27 H -1.2527 -0.7302 1.2444 0
M  V30 28 H -2.804 -3.6185 -1.5309 0
M  V30 29 H 3.3662 0.2755 1.6545 0
M  V30 30 H 6.3952 -1.4159 -0.829 0
M  V30 31 H 0.1989 0.6819 1.5871 0
M  V30 32 H 1.7217 1.3329 1.1141 0
M  V30 33 H 5.7198 -0.0732 1.1459 0
M  V30 34 H -0.599 1.1244 -0.8486 0
M  V30 35 H 0.7452 2.7928 -2.1779 0
M  V30 36 H 2.078 2.5944 -1.0248 0
M  V30 37 H 1.5254 1.2308 -2.0028 0
M  V30 38 H -3.5416 -0.1539 1.4185 0
M  V30 39 H -3.0678 -1.4446 2.5623 0
M  V30 40 H -1.0953 3.9351 -1.4517 0
M  V30 41 H -2.0935 4.2129 -0.0137 0
M  V30 42 H -2.2454 2.7016 -0.8896 0
M  V30 43 H 1.1462 3.4833 1.4872 0
M  V30 44 H -0.1613 4.6408 1.3775 0
M  V30 45 H 0.9237 4.4253 -0.0035 0
M  V30 46 H -5.3075 -0.5386 3.105 0
M  V30 47 H -5.4258 -2.2418 2.6258 0
M  V30 48 H -5.8946 -0.9695 1.4879 0
M  V30 END ATOM
M  V30 BEGIN BOND
M  V30 1 1 1 2
M  V30 2 1 1 3
M  V30 3 2 2 4
M  V30 4 1 2 5
M  V30 5 2 3 6
M  V30 6 1 3 7
M  V30 7 1 4 8
M  V30 8 1 4 9
M  V30 9 2 5 10
M  V30 10 1 6 11
M  V30 11 2 7 12
M  V30 12 1 8 13
M  V30 13 2 9 14
M  V30 14 2 11 15
M  V30 15 1 13 16
M  V30 16 1 14 17
M  V30 17 1 16 18
M  V30 18 1 16 19
M  V30 19 2 17 20
M  V30 20 1 17 21
M  V30 21 1 18 22
M  V30 22 1 18 23
M  V30 23 1 21 24
M  V30 24 1 6 8
M  V30 25 1 10 14
M  V30 26 1 12 15
M  V30 27 1 5 25
M  V30 28 1 7 26
M  V30 29 1 9 27
M  V30 30 1 10 28
M  V30 31 1 11 29
M  V30 32 1 12 30
M  V30 33 1 13 31
M  V30 34 1 13 32
M  V30 35 1 15 33
M  V30 36 1 16 34
M  V30 37 1 19 35
M  V30 38 1 19 36
M  V30 39 1 19 37
M  V30 40 1 21 38
M  V30 41 1 21 39
M  V30 42 1 22 40
M  V30 43 1 22 41
M  V30 44 1 22 42
M  V30 45 1 23 43
M  V30 46 1 23 44
M  V30 47 1 23 45
M  V30 48 1 24 46
M  V30 49 1 24 47
M  V30 50 1 24 48
M  V30 END BOND
M  V30 BEGIN COLLECTION
M  V30 MDLV30/STERAC1 ATOMS=(1 16)
M  V30 END COLLECTION
M  V30 END CTAB
M  END
>  <Column 1>
1286

>  <level_0>
1430

>  <index>
1430

>  <Unnamed: 0>
1430

>  <NO.>
1442

>  <Name>
propiomazine

>  <IUPAC_name>
1-[10-[2-(dimethylamino)propyl]phenothiazin-2-yl]propan-1-one

>  <SMILES>
CCC(=O)c1ccc2c(c1)N(CC(C)N(C)C)c1ccccc1S2

>  <CID>
4940

>  <logBB>


>  <BBB+/BBB->
BBB+

>  <Inchi>
InChI=1S/C20H24N2OS/c1-5-18(23)15-10-11-20-17(12-15)22(13-14(2)21(3)4)16-8-6-7-9-19(16)24-20/h6-12-14H-5-13H2-1-4H3

>  <threshold>
-1

>  <reference>
R1|R19|R6|R27|R27|R30|

>  <group>
B

>  <Class>
1

>  <ABC>
18.58

>  <ABCGG>
15.09

>  <nAcid>
0

>  <nBase>
1

>  <nAromAtom>
12

>  <nAromBond>
12

>  <nAtom>
48

>  <nHeavyAtom>
24

>  <nSpiro>
0

>  <nBridgehead>
0

>  <nHetero>
4

>  <nN>
2

>  <nO>
1

>  <nF>
0

>  <BalabanJ>
1.77

>  <BertzCT>
757.05

>  <nBonds>
50

>  <nBondsO>
26

>  <nBondsS>
37

>  <nBondsD>
1

>  <nBondsT>
0

>  <nBondsA>
12

>  <nBondsM>
13

>  <nBondsKS>
43

>  <nBondsKD>
7

>  <RNCG>
0.23

>  <RPCG>
0.11

>  <FCSP3>
0.35

>  <SZ>
30.33

>  <Sm>
28.35

>  <Sv>
29.92

>  <Sse>
47.39

>  <Sp>
33.12

>  <Si>
53.69

>  <MZ>
0.63

>  <Mm>
0.59

>  <Mv>
0.62

>  <Mse>
0.99

>  <Mp>
0.69

>  <Mi>
1.12

>  <NsCH3>
4

>  <NdCH2>
0

>  <NssCH2>
2

>  <NtCH>
0

>  <NdsCH>
0

>  <NaaCH>
7

>  <NsssCH>
1

>  <NddC>
0

>  <NtsC>
0

>  <NdssC>
1

>  <NaasC>
5

>  <NaaaC>
0

>  <NssssC>
0

>  <NsNH3>
0

>  <NsNH2>
0

>  <NssNH2>
0

>  <NdNH>
0

>  <NssNH>
0

>  <NaaNH>
0

>  <NtN>
0

>  <NsssNH>
0

>  <NdsN>
0

>  <NaaN>
0

>  <NsssN>
2

>  <NddsN>
0

>  <NaasN>
0

>  <NssssN>
0

>  <NsOH>
0

>  <NdO>
1

>  <NssO>
0

>  <NaaO>
0

>  <NsF>
0

>  <NsSiH3>
0

>  <NssSiH2>
0

>  <NsssSiH>
0

>  <NssssSi>
0

>  <NsPH2>
0

>  <NssPH>
0

>  <NsssP>
0

>  <NdsssP>
0

>  <NsssssP>
0

>  <NsSH>
0

>  <NdS>
0

>  <NssS>
1

>  <NaaS>
0

>  <NdssS>
0

>  <NddssS>
0

>  <NsCl>
0

>  <NsBr>
0

>  <NsI>
0

>  <fragCpx>
124.04

>  <fMF>
0.29

>  <nHBAcc>
4

>  <nHBDon>
0

>  <Kier1>
18.78

>  <Kier2>
8.13

>  <Lipinski>
1

>  <GhoseFilter>
1

>  <FilterItLogS>
-4.95

>  <VMcGowan>
272.16

>  <LabuteASA>
148.21

>  <PEOE_VSA1>
9.8

>  <PEOE_VSA2>
4.79

>  <PEOE_VSA3>
0

>  <PEOE_VSA4>
0

>  <PEOE_VSA5>
0

>  <PEOE_VSA6>
36.88

>  <PEOE_VSA7>
45.28

>  <PEOE_VSA8>
34.36

>  <PEOE_VSA9>
11.37

>  <PEOE_VSA10>
0

>  <PEOE_VSA11>
5.78

>  <PEOE_VSA12>
0

>  <PEOE_VSA13>
0

>  <SMR_VSA1>
4.79

>  <SMR_VSA2>
0

>  <SMR_VSA3>
4.9

>  <SMR_VSA4>
0

>  <SMR_VSA5>
36.1

>  <SMR_VSA6>
25.54

>  <SMR_VSA7>
48.03

>  <SMR_VSA8>
0

>  <SMR_VSA9>
0

>  <SlogP_VSA1>
4.9

>  <SlogP_VSA2>
37.37

>  <SlogP_VSA3>
0

>  <SlogP_VSA4>
0

>  <SlogP_VSA5>
30.63

>  <SlogP_VSA6>
52.26

>  <SlogP_VSA7>
0

>  <SlogP_VSA8>
0

>  <SlogP_VSA9>
0

>  <SlogP_VSA10>
11.37

>  <SlogP_VSA11>
0

>  <EState_VSA1>
0

>  <EState_VSA2>
5.78

>  <EState_VSA3>
12.46

>  <EState_VSA4>
17.8

>  <EState_VSA5>
15.48

>  <EState_VSA6>
11.76

>  <EState_VSA7>
12.99

>  <EState_VSA8>
67.22

>  <EState_VSA9>
0

>  <EState_VSA10>
4.79

>  <VSA_EState1>
0

>  <VSA_EState2>
19.22

>  <VSA_EState3>
0

>  <VSA_EState4>
3.18

>  <VSA_EState5>
0.2

>  <VSA_EState6>
15.01

>  <VSA_EState7>
0.54

>  <VSA_EState8>
5.03

>  <VSA_EState9>
4.21

>  <apol>
55.31

>  <bpol>
30.82

>  <nRing>
3

>  <nHRing>
1

>  <naRing>
2

>  <naHRing>
0

>  <nARing 2>
1

>  <nAHRing 2>
1

>  <nFRing>
1

>  <nFHRing>
1

>  <nFaRing>
0

>  <nFaHRing>
0

>  <nFARing 2>
1

>  <nFAHRing 2>
1

>  <nRot>
5

>  <SLogP>
4.83

>  <SMR>
101.78

>  <TopoPSA(NO)>
23.55

>  <TopoPSA>
48.85

>  <JGI1>
0.19

>  <JGI2>
0.09

>  <JGI3>
0.03

>  <JGI4>
0.04

>  <JGI5>
0.03

>  <Diameter>
10

>  <Radius>
5

>  <TMWC10>
125.66

>  <TSRW10>
58.8

>  <MW>
340.16

>  <AMW>
7.09

>  <WPath>
1250

>  <WPol>
41

>  <Zagreb1>
126

>  <Zagreb2>
150

>  <mZagreb2>
5.33

>  <yes>


>  <nAR-cont>
0.816016

>  <nHA-cont>
0.94700071

>  <MWHBN>
0.216879433

>  <MWHBN-cont>
0.996742463

>  <TPSA-cont>
0.658996666

>  <pka_cont>
0.97

>  <yes.1>


>  <BBB_SCORE>
5.061123737

>  <MMFF94 Energy>
112.43

$$$$
Compound 1081
Actelion Java MolfileCreator 2.0

  0  0  0  0  0  0              0 V3000
M  V30 BEGIN CTAB
M  V30 COUNTS 61 64 0 0 0
M  V30 BEGIN ATOM
M  V30 1 S -4.5863 -1.527 -3.2168 0
M  V30 2 C -4.2672 -0.6787 -1.69 0
M  V30 3 C -2.9765 -1.5849 -3.9661 0
M  V30 4 C -3.0328 -0.0823 -1.3689 0
M  V30 5 C -5.3552 -0.6208 -0.7966 0
M  V30 6 C -1.8492 -0.9129 -3.4507 0
M  V30 7 C -2.8906 -2.3517 -5.1461 0
M  V30 8 N -1.925 -0.1239 -2.2653 0
M  V30 9 C -2.9558 0.5435 -0.1026 0
M  V30 10 C -5.2463 0.0131 0.4385 0
M  V30 11 C -0.644 -1.0818 -4.1709 0
M  V30 12 C -1.6894 -2.4828 -5.8318 0
M  V30 13 C -0.7903 0.7886 -1.9852 0
M  V30 14 C -4.038 0.5982 0.7958 0
M  V30 15 C -0.562 -1.8491 -5.3397 0
M  V30 16 C 0.2759 0.1225 -1.1032 0
M  V30 17 C -3.8383 1.2872 2.1093 0
M  V30 18 C 1.3975 1.1166 -0.7793 0
M  V30 19 O -2.7475 1.7983 2.3565 0
M  V30 20 C -4.9961 1.3306 3.0925 0
M  V30 21 N 2.5151 0.4978 -0.0488 0
M  V30 22 C -4.6308 2.0491 4.3817 0
M  V30 23 C 3.6662 1.4285 -4.0E-4 0
M  V30 24 C 2.1411 0.1387 1.3388 0
M  V30 25 C 4.8606 0.8513 0.7938 0
M  V30 26 C 3.3345 -0.4302 2.1447 0
M  V30 27 N 4.477 0.4964 2.1683 0
M  V30 28 C 5.602 0.0097 2.9776 0
M  V30 29 C 6.2944 -1.291 2.5404 0
M  V30 30 O 7.3604 -1.5883 3.4402 0
M  V30 31 H -6.3057 -1.0804 -1.0648 0
M  V30 32 H -3.7716 -2.858 -5.5361 0
M  V30 33 H -2.0299 1.0006 0.2338 0
M  V30 34 H -6.1136 0.0275 1.0907 0
M  V30 35 H 0.2862 -0.6333 -3.8382 0
M  V30 36 H -1.6368 -3.0798 -6.7377 0
M  V30 37 H -1.1424 1.72 -1.5227 0
M  V30 38 H -0.3402 1.1555 -2.9167 0
M  V30 39 H 0.3892 -1.949 -5.8561 0
M  V30 40 H 0.696 -0.7546 -1.608 0
M  V30 41 H -0.1829 -0.2496 -0.1821 0
M  V30 42 H 1.7758 1.5063 -1.7335 0
M  V30 43 H 0.993 1.9734 -0.2244 0
M  V30 44 H -5.2932 0.3046 3.3341 0
M  V30 45 H -5.8371 1.8532 2.6245 0
M  V30 46 H -5.4848 2.0609 5.0661 0
M  V30 47 H -4.3361 3.0853 4.1848 0
M  V30 48 H -3.7953 1.5523 4.8858 0
M  V30 49 H 4.009 1.6361 -1.0214 0
M  V30 50 H 3.367 2.3871 0.4455 0
M  V30 51 H 1.7373 1.0134 1.8664 0
M  V30 52 H 1.3605 -0.6294 1.3311 0
M  V30 53 H 5.2503 -0.0207 0.2543 0
M  V30 54 H 5.6546 1.6072 0.8158 0
M  V30 55 H 3.6197 -1.3947 1.7064 0
M  V30 56 H 2.9947 -0.6221 3.1695 0
M  V30 57 H 5.2629 -0.11 4.0155 0
M  V30 58 H 6.3597 0.8025 3.0402 0
M  V30 59 H 5.5992 -2.1351 2.556 0
M  V30 60 H 6.721 -1.1965 1.5379 0
M  V30 61 H 7.7646 -2.4182 3.1344 0
M  V30 END ATOM
M  V30 BEGIN BOND
M  V30 1 1 1 2
M  V30 2 1 1 3
M  V30 3 2 2 4
M  V30 4 1 2 5
M  V30 5 2 3 6
M  V30 6 1 3 7
M  V30 7 1 4 8
M  V30 8 1 4 9
M  V30 9 2 5 10
M  V30 10 1 6 11
M  V30 11 2 7 12
M  V30 12 1 8 13
M  V30 13 2 9 14
M  V30 14 2 11 15
M  V30 15 1 13 16
M  V30 16 1 14 17
M  V30 17 1 16 18
M  V30 18 2 17 19
M  V30 19 1 17 20
M  V30 20 1 18 21
M  V30 21 1 20 22
M  V30 22 1 21 23
M  V30 23 1 21 24
M  V30 24 1 23 25
M  V30 25 1 24 26
M  V30 26 1 25 27
M  V30 27 1 27 28
M  V30 28 1 28 29
M  V30 29 1 29 30
M  V30 30 1 6 8
M  V30 31 1 10 14
M  V30 32 1 12 15
M  V30 33 1 26 27
M  V30 34 1 5 31
M  V30 35 1 7 32
M  V30 36 1 9 33
M  V30 37 1 10 34
M  V30 38 1 11 35
M  V30 39 1 12 36
M  V30 40 1 13 37
M  V30 41 1 13 38
M  V30 42 1 15 39
M  V30 43 1 16 40
M  V30 44 1 16 41
M  V30 45 1 18 42
M  V30 46 1 18 43
M  V30 47 1 20 44
M  V30 48 1 20 45
M  V30 49 1 22 46
M  V30 50 1 22 47
M  V30 51 1 22 48
M  V30 52 1 23 49
M  V30 53 1 23 50
M  V30 54 1 24 51
M  V30 55 1 24 52
M  V30 56 1 25 53
M  V30 57 1 25 54
M  V30 58 1 26 55
M  V30 59 1 26 56
M  V30 60 1 28 57
M  V30 61 1 28 58
M  V30 62 1 29 59
M  V30 63 1 29 60
M  V30 64 1 30 61
M  V30 END BOND
M  V30 END CTAB
M  END
>  <Column 1>
1287

>  <level_0>
1431

>  <index>
1431

>  <Unnamed: 0>
1431

>  <NO.>
1443

>  <Name>
carphenazine

>  <IUPAC_name>
1-[10-[3-[4-(2-hydroxyethyl)piperazin-1-yl]propyl]phenothiazin-2-yl]propan-1-one

>  <SMILES>
CCC(=O)c1ccc2c(c1)N(CCCN1CCN(CCO)CC1)c1ccccc1S2

>  <CID>
18104

>  <logBB>


>  <BBB+/BBB->
BBB+

>  <Inchi>
InChI=1S/C24H31N3O2S/c1-2-22(29)19-8-9-24-21(18-19)27(20-6-3-4-7-23(20)30-24)11-5-10-25-12-14-26(15-13-25)16-17-28/h3-4-6-9-18-28H-2-5-10-17H2-1H3

>  <threshold>
-1

>  <reference>
R1|R1|R13|R19|R6|R14|R23|R24|R27|R27|R27|R27|R30|R30|R30|

>  <group>
B

>  <Class>
1

>  <ABC>
23.24

>  <ABCGG>
16.85

>  <nAcid>
0

>  <nBase>
2

>  <nAromAtom>
12

>  <nAromBond>
12

>  <nAtom>
61

>  <nHeavyAtom>
30

>  <nSpiro>
0

>  <nBridgehead>
0

>  <nHetero>
6

>  <nN>
3

>  <nO>
2

>  <nF>
0

>  <BalabanJ>
1.33

>  <BertzCT>
880.5

>  <nBonds>
64

>  <nBondsO>
33

>  <nBondsS>
51

>  <nBondsD>
1

>  <nBondsT>
0

>  <nBondsA>
12

>  <nBondsM>
13

>  <nBondsKS>
57

>  <nBondsKD>
7

>  <RNCG>
0.19

>  <RPCG>
0.1

>  <FCSP3>
0.46

>  <SZ>
38

>  <Sm>
35.43

>  <Sv>
37.29

>  <Sse>
60.49

>  <Sp>
41.05

>  <Si>
68.65

>  <MZ>
0.62

>  <Mm>
0.58

>  <Mv>
0.61

>  <Mse>
0.99

>  <Mp>
0.67

>  <Mi>
1.13

>  <NsCH3>
1

>  <NdCH2>
0

>  <NssCH2>
10

>  <NtCH>
0

>  <NdsCH>
0

>  <NaaCH>
7

>  <NsssCH>
0

>  <NddC>
0

>  <NtsC>
0

>  <NdssC>
1

>  <NaasC>
5

>  <NaaaC>
0

>  <NssssC>
0

>  <NsNH3>
0

>  <NsNH2>
0

>  <NssNH2>
0

>  <NdNH>
0

>  <NssNH>
0

>  <NaaNH>
0

>  <NtN>
0

>  <NsssNH>
0

>  <NdsN>
0

>  <NaaN>
0

>  <NsssN>
3

>  <NddsN>
0

>  <NaasN>
0

>  <NssssN>
0

>  <NsOH>
1

>  <NdO>
1

>  <NssO>
0

>  <NaaO>
0

>  <NsF>
0

>  <NsSiH3>
0

>  <NssSiH2>
0

>  <NsssSiH>
0

>  <NssssSi>
0

>  <NsPH2>
0

>  <NssPH>
0

>  <NsssP>
0

>  <NdsssP>
0

>  <NsssssP>
0

>  <NsSH>
0

>  <NdS>
0

>  <NssS>
1

>  <NaaS>
0

>  <NdssS>
0

>  <NddssS>
0

>  <NsCl>
0

>  <NsBr>
0

>  <NsI>
0

>  <fragCpx>
219.06

>  <fMF>
0.38

>  <nHBAcc>
6

>  <nHBDon>
1

>  <Kier1>
23.17

>  <Kier2>
11.23

>  <Lipinski>
1

>  <GhoseFilter>
1

>  <FilterItLogS>
-5.17

>  <VMcGowan>
333.51

>  <LabuteASA>
183.21

>  <PEOE_VSA1>
14.91

>  <PEOE_VSA2>
9.69

>  <PEOE_VSA3>
0

>  <PEOE_VSA4>
0

>  <PEOE_VSA5>
0

>  <PEOE_VSA6>
36.88

>  <PEOE_VSA7>
37.23

>  <PEOE_VSA8>
61.04

>  <PEOE_VSA9>
17.98

>  <PEOE_VSA10>
0

>  <PEOE_VSA11>
5.78

>  <PEOE_VSA12>
0

>  <PEOE_VSA13>
0

>  <SMR_VSA1>
9.9

>  <SMR_VSA2>
0

>  <SMR_VSA3>
9.8

>  <SMR_VSA4>
0

>  <SMR_VSA5>
29.56

>  <SMR_VSA6>
57.32

>  <SMR_VSA7>
48.03

>  <SMR_VSA8>
0

>  <SMR_VSA9>
0

>  <SlogP_VSA1>
4.9

>  <SlogP_VSA2>
73.11

>  <SlogP_VSA3>
0

>  <SlogP_VSA4>
0

>  <SlogP_VSA5>
30.12

>  <SlogP_VSA6>
52.26

>  <SlogP_VSA7>
0

>  <SlogP_VSA8>
0

>  <SlogP_VSA9>
0

>  <SlogP_VSA10>
11.37

>  <SlogP_VSA11>
0

>  <EState_VSA1>
0

>  <EState_VSA2>
12.39

>  <EState_VSA3>
6.42

>  <EState_VSA4>
63.48

>  <EState_VSA5>
15.48

>  <EState_VSA6>
11.76

>  <EState_VSA7>
12.99

>  <EState_VSA8>
51.1

>  <EState_VSA9>
5.11

>  <EState_VSA10>
4.79

>  <VSA_EState1>
0

>  <VSA_EState2>
22.04

>  <VSA_EState3>
9.12

>  <VSA_EState4>
3.2

>  <VSA_EState5>
0.2

>  <VSA_EState6>
14.71

>  <VSA_EState7>
1.61

>  <VSA_EState8>
9.16

>  <VSA_EState9>
0

>  <apol>
68.55

>  <bpol>
39.56

>  <nRing>
4

>  <nHRing>
2

>  <naRing>
2

>  <naHRing>
0

>  <nARing 2>
2

>  <nAHRing 2>
2

>  <nFRing>
1

>  <nFHRing>
1

>  <nFaRing>
0

>  <nFaHRing>
0

>  <nFARing 2>
1

>  <nFAHRing 2>
1

>  <nRot>
8

>  <SLogP>
3.88

>  <SMR>
123.22

>  <TopoPSA(NO)>
47.02

>  <TopoPSA>
72.32

>  <JGI1>
0.15

>  <JGI2>
0.07

>  <JGI3>
0.03

>  <JGI4>
0.04

>  <JGI5>
0.02

>  <Diameter>
16

>  <Radius>
8

>  <TMWC10>
140.07

>  <TSRW10>
65.73

>  <MW>
425.21

>  <AMW>
6.97

>  <WPath>
2645

>  <WPol>
49

>  <Zagreb1>
156

>  <Zagreb2>
184

>  <mZagreb2>
6.81

>  <yes>


>  <nAR-cont>
1

>  <nHA-cont>
0.74523694

>  <MWHBN>
0.339466017

>  <MWHBN-cont>
0.709071021

>  <TPSA-cont>
0.495161492

>  <pka_cont>
0.97

>  <yes.1>


>  <BBB_SCORE>
4.284166455

>  <MMFF94 Energy>
166.73

$$$$
Compound 1082
Actelion Java MolfileCreator 2.0

  0  0  0  0  0  0              0 V3000
M  V30 BEGIN CTAB
M  V30 COUNTS 24 23 0 0 0
M  V30 BEGIN ATOM
M  V30 1 Br 0.0 -0.3158 -2.766 0
M  V30 2 C 0.3004 -0.2045 -0.7511 0 CFG=2
M  V30 3 C 1.0313 -1.539 -0.4608 0
M  V30 4 C -1.1154 -0.1264 -0.1017 0
M  V30 5 C 1.2377 1.0138 -0.5791 0
M  V30 6 O 2.1595 -1.6128 0.0197 0
M  V30 7 N 0.353 -2.6948 -0.7339 0
M  V30 8 C -1.1326 -0.4876 1.3917 0
M  V30 9 C -1.8119 1.2297 -0.29 0
M  V30 10 C 1.5866 1.3977 0.8525 0
M  V30 11 H -1.7598 -0.8717 -0.5889 0
M  V30 12 H 2.1837 0.816 -1.1024 0
M  V30 13 H 0.8119 1.8979 -1.0713 0
M  V30 14 H -0.5318 -2.7107 -1.222 0
M  V30 15 H 0.823 -3.571 -0.5471 0
M  V30 16 H -0.5914 0.2361 2.004 0
M  V30 17 H -2.1644 -0.5139 1.7615 0
M  V30 18 H -0.7046 -1.4767 1.5772 0
M  V30 19 H -2.839 1.1852 0.0899 0
M  V30 20 H -1.8719 1.5147 -1.3441 0
M  V30 21 H -1.3009 2.0317 0.2504 0
M  V30 22 H 0.74 1.8658 1.3604 0
M  V30 23 H 2.3989 2.1327 0.8495 0
M  V30 24 H 1.9187 0.5388 1.4413 0
M  V30 END ATOM
M  V30 BEGIN BOND
M  V30 1 1 1 2
M  V30 2 1 2 3
M  V30 3 1 2 4
M  V30 4 1 2 5
M  V30 5 2 3 6
M  V30 6 1 3 7
M  V30 7 1 4 8
M  V30 8 1 4 9
M  V30 9 1 5 10
M  V30 10 1 4 11
M  V30 11 1 5 12
M  V30 12 1 5 13
M  V30 13 1 7 14
M  V30 14 1 7 15
M  V30 15 1 8 16
M  V30 16 1 8 17
M  V30 17 1 8 18
M  V30 18 1 9 19
M  V30 19 1 9 20
M  V30 20 1 9 21
M  V30 21 1 10 22
M  V30 22 1 10 23
M  V30 23 1 10 24
M  V30 END BOND
M  V30 BEGIN COLLECTION
M  V30 MDLV30/STERAC1 ATOMS=(1 2)
M  V30 END COLLECTION
M  V30 END CTAB
M  END
>  <Column 1>
1288

>  <level_0>
1432

>  <index>
1432

>  <Unnamed: 0>
1432

>  <NO.>
1444

>  <Name>
ibrotamide

>  <IUPAC_name>
2-bromo-2-ethyl-3-methylbutanamide

>  <SMILES>
CCC(Br)(C(N)=O)C(C)C

>  <CID>
216287

>  <logBB>


>  <BBB+/BBB->
BBB+

>  <Inchi>
InChI=1S/C7H14BrNO/c1-4-7(8-5(2)3)6(9)10/h5H-4H2-1-3H3-(H2-9-10)

>  <threshold>
-1

>  <reference>
R1|R13|R19|R6|R27|R27|R30|

>  <group>
B

>  <Class>
1

>  <ABC>
6.84

>  <ABCGG>
7.6

>  <nAcid>
0

>  <nBase>
0

>  <nAromAtom>
0

>  <nAromBond>
0

>  <nAtom>
24

>  <nHeavyAtom>
10

>  <nSpiro>
0

>  <nBridgehead>
0

>  <nHetero>
3

>  <nN>
1

>  <nO>
1

>  <nF>
0

>  <BalabanJ>
4.23

>  <BertzCT>
135.57

>  <nBonds>
23

>  <nBondsO>
9

>  <nBondsS>
22

>  <nBondsD>
1

>  <nBondsT>
0

>  <nBondsA>
0

>  <nBondsM>
1

>  <nBondsKS>
22

>  <nBondsKD>
1

>  <RNCG>
0.39

>  <RPCG>
0.24

>  <FCSP3>
0.86

>  <SZ>
17.67

>  <Sm>
17.33

>  <Sv>
13.55

>  <Sse>
23.88

>  <Sp>
15.56

>  <Si>
27.46

>  <MZ>
0.74

>  <Mm>
0.72

>  <Mv>
0.56

>  <Mse>
1

>  <Mp>
0.65

>  <Mi>
1.14

>  <NsCH3>
3

>  <NdCH2>
0

>  <NssCH2>
1

>  <NtCH>
0

>  <NdsCH>
0

>  <NaaCH>
0

>  <NsssCH>
1

>  <NddC>
0

>  <NtsC>
0

>  <NdssC>
1

>  <NaasC>
0

>  <NaaaC>
0

>  <NssssC>
1

>  <NsNH3>
0

>  <NsNH2>
1

>  <NssNH2>
0

>  <NdNH>
0

>  <NssNH>
0

>  <NaaNH>
0

>  <NtN>
0

>  <NsssNH>
0

>  <NdsN>
0

>  <NaaN>
0

>  <NsssN>
0

>  <NddsN>
0

>  <NaasN>
0

>  <NssssN>
0

>  <NsOH>
0

>  <NdO>
1

>  <NssO>
0

>  <NaaO>
0

>  <NsF>
0

>  <NsSiH3>
0

>  <NssSiH2>
0

>  <NsssSiH>
0

>  <NssssSi>
0

>  <NsPH2>
0

>  <NssPH>
0

>  <NsssP>
0

>  <NdsssP>
0

>  <NsssssP>
0

>  <NsSH>
0

>  <NdS>
0

>  <NssS>
0

>  <NaaS>
0

>  <NdssS>
0

>  <NddssS>
0

>  <NsCl>
0

>  <NsBr>
1

>  <NsI>
0

>  <fragCpx>
9.03

>  <fMF>
0

>  <nHBAcc>
1

>  <nHBDon>
1

>  <Kier1>
10

>  <Kier2>
3.41

>  <Lipinski>
1

>  <GhoseFilter>
1

>  <FilterItLogS>
-1.99

>  <VMcGowan>
138.54

>  <LabuteASA>
70.3

>  <PEOE_VSA1>
5.73

>  <PEOE_VSA2>
4.79

>  <PEOE_VSA3>
0

>  <PEOE_VSA4>
0

>  <PEOE_VSA5>
0

>  <PEOE_VSA6>
36.7

>  <PEOE_VSA7>
12.34

>  <PEOE_VSA8>
0

>  <PEOE_VSA9>
0

>  <PEOE_VSA10>
4.32

>  <PEOE_VSA11>
0

>  <PEOE_VSA12>
5.91

>  <PEOE_VSA13>
0

>  <SMR_VSA1>
4.79

>  <SMR_VSA2>
0

>  <SMR_VSA3>
0

>  <SMR_VSA4>
11.65

>  <SMR_VSA5>
31.52

>  <SMR_VSA6>
0

>  <SMR_VSA7>
0

>  <SMR_VSA8>
0

>  <SMR_VSA9>
0

>  <SlogP_VSA1>
5.73

>  <SlogP_VSA2>
10.23

>  <SlogP_VSA3>
4.79

>  <SlogP_VSA4>
5.92

>  <SlogP_VSA5>
27.19

>  <SlogP_VSA6>
0

>  <SlogP_VSA7>
0

>  <SlogP_VSA8>
0

>  <SlogP_VSA9>
0

>  <SlogP_VSA10>
0

>  <SlogP_VSA11>
0

>  <EState_VSA1>
4.32

>  <EState_VSA2>
11.83

>  <EState_VSA3>
0

>  <EState_VSA4>
6.42

>  <EState_VSA5>
0

>  <EState_VSA6>
0

>  <EState_VSA7>
20.77

>  <EState_VSA8>
15.93

>  <EState_VSA9>
5.73

>  <EState_VSA10>
4.79

>  <VSA_EState1>
-0.51

>  <VSA_EState2>
10.87

>  <VSA_EState3>
0

>  <VSA_EState4>
5.2

>  <VSA_EState5>
-0.03

>  <VSA_EState6>
0

>  <VSA_EState7>
0.74

>  <VSA_EState8>
5.89

>  <VSA_EState9>
0

>  <apol>
25.98

>  <bpol>
15.72

>  <nRing>
0

>  <nHRing>
0

>  <naRing>
0

>  <naHRing>
0

>  <nARing 2>
0

>  <nAHRing 2>
0

>  <nFRing>
0

>  <nFHRing>
0

>  <nFaRing>
0

>  <nFaHRing>
0

>  <nFARing 2>
0

>  <nFAHRing 2>
0

>  <nRot>
3

>  <SLogP>
1.67

>  <SMR>
45.98

>  <TopoPSA(NO)>
43.09

>  <TopoPSA>
43.09

>  <JGI1>
0.44

>  <JGI2>
0.19

>  <JGI3>
0.07

>  <JGI4>
0

>  <JGI5>
0

>  <Diameter>
4

>  <Radius>
2

>  <TMWC10>
83.31

>  <TSRW10>
39.63

>  <MW>
207.03

>  <AMW>
8.63

>  <WPath>
112

>  <WPol>
15

>  <Zagreb1>
44

>  <Zagreb2>
50

>  <mZagreb2>
2.38

>  <yes>


>  <nAR-cont>
0.336376

>  <nHA-cont>
0.645914733

>  <MWHBN>
0.138999537

>  <MWHBN-cont>
0.900642817

>  <TPSA-cont>
0.699205043

>  <pka_cont>
0.97

>  <yes.1>


>  <BBB_SCORE>
4.216665045

>  <MMFF94 Energy>
12.873

$$$$
Compound 1083
Actelion Java MolfileCreator 2.0

  0  0  0  0  0  0              0 V3000
M  V30 BEGIN CTAB
M  V30 COUNTS 30 29 0 0 0
M  V30 BEGIN ATOM
M  V30 1 Br 1.58 0.9478 2.1335 0
M  V30 2 C 0.4073 -0.5754 1.585 0
M  V30 3 C 0.6969 -0.7552 0.0762 0
M  V30 4 C 0.8537 -1.8234 2.377 0
M  V30 5 C -1.0495 -0.1364 1.8327 0
M  V30 6 O 1.1741 -1.7909 -0.3824 0
M  V30 7 N 0.4594 0.365 -0.6975 0
M  V30 8 C 0.5531 -1.8119 3.8727 0
M  V30 9 C -2.0815 -1.1917 1.45 0
M  V30 10 C 0.0364 0.3116 -2.0076 0
M  V30 11 O -0.5906 -0.6251 -2.481 0
M  V30 12 N 0.3956 1.4502 -2.6981 0
M  V30 13 C -0.2409 1.891 -3.8389 0
M  V30 14 O -1.4147 1.6803 -4.1204 0
M  V30 15 C 0.6108 2.8193 -4.6641 0
M  V30 16 H 1.933 -1.9802 2.2461 0
M  V30 17 H 0.3758 -2.7146 1.9495 0
M  V30 18 H -1.2807 0.7764 1.2686 0
M  V30 19 H -1.1956 0.1304 2.8868 0
M  V30 20 H 0.4475 1.2653 -0.2436 0
M  V30 21 H 0.9431 -2.7256 4.3337 0
M  V30 22 H -0.5223 -1.7831 4.0688 0
M  V30 23 H 1.0208 -0.9631 4.3788 0
M  V30 24 H -3.0912 -0.8056 1.6252 0
M  V30 25 H -2.0062 -1.4585 0.3915 0
M  V30 26 H -1.9686 -2.1024 2.0448 0
M  V30 27 H 1.2616 1.8869 -2.4273 0
M  V30 28 H 0.4992 3.8402 -4.2892 0
M  V30 29 H 0.2907 2.7747 -5.7087 0
M  V30 30 H 1.6645 2.53 -4.6131 0
M  V30 END ATOM
M  V30 BEGIN BOND
M  V30 1 1 1 2
M  V30 2 1 2 3
M  V30 3 1 2 4
M  V30 4 1 2 5
M  V30 5 2 3 6
M  V30 6 1 3 7
M  V30 7 1 4 8
M  V30 8 1 5 9
M  V30 9 1 7 10
M  V30 10 2 10 11
M  V30 11 1 10 12
M  V30 12 1 12 13
M  V30 13 2 13 14
M  V30 14 1 13 15
M  V30 15 1 4 16
M  V30 16 1 4 17
M  V30 17 1 5 18
M  V30 18 1 5 19
M  V30 19 1 7 20
M  V30 20 1 8 21
M  V30 21 1 8 22
M  V30 22 1 8 23
M  V30 23 1 9 24
M  V30 24 1 9 25
M  V30 25 1 9 26
M  V30 26 1 12 27
M  V30 27 1 15 28
M  V30 28 1 15 29
M  V30 29 1 15 30
M  V30 END BOND
M  V30 END CTAB
M  END
>  <Column 1>
1289

>  <level_0>
1433

>  <index>
1433

>  <Unnamed: 0>
1433

>  <NO.>
1445

>  <Name>
acecarbromal

>  <IUPAC_name>
n-(acetylcarbamoyl)-2-bromo-2-ethylbutanamide

>  <SMILES>
CCC(Br)(CC)C(=O)NC(=O)NC(C)=O

>  <CID>
6489

>  <logBB>


>  <BBB+/BBB->
BBB+

>  <Inchi>
InChI=1S/C9H15BrN2O3/c1-4-9(10-5-2)7(14)12-8(15)11-6(3)13/h4-5H2-1-3H3-(H2-11-12-13-14-15)

>  <threshold>
-1

>  <reference>
R1|R13|R19|R6|R24|R27|R27|R27|R30|R30|

>  <group>
B

>  <Class>
1

>  <ABC>
10.43

>  <ABCGG>
10.77

>  <nAcid>
0

>  <nBase>
0

>  <nAromAtom>
0

>  <nAromBond>
0

>  <nAtom>
30

>  <nHeavyAtom>
15

>  <nSpiro>
0

>  <nBridgehead>
0

>  <nHetero>
6

>  <nN>
2

>  <nO>
3

>  <nF>
0

>  <BalabanJ>
4.16

>  <BertzCT>
274.53

>  <nBonds>
29

>  <nBondsO>
14

>  <nBondsS>
26

>  <nBondsD>
3

>  <nBondsT>
0

>  <nBondsA>
0

>  <nBondsM>
3

>  <nBondsKS>
26

>  <nBondsKD>
3

>  <RNCG>
0.17

>  <RPCG>
0.2

>  <FCSP3>
0.67

>  <SZ>
23.67

>  <Sm>
23.24

>  <Sv>
18.01

>  <Sse>
30.65

>  <Sp>
19.57

>  <Si>
34.37

>  <MZ>
0.79

>  <Mm>
0.77

>  <Mv>
0.6

>  <Mse>
1.02

>  <Mp>
0.65

>  <Mi>
1.15

>  <NsCH3>
3

>  <NdCH2>
0

>  <NssCH2>
2

>  <NtCH>
0

>  <NdsCH>
0

>  <NaaCH>
0

>  <NsssCH>
0

>  <NddC>
0

>  <NtsC>
0

>  <NdssC>
3

>  <NaasC>
0

>  <NaaaC>
0

>  <NssssC>
1

>  <NsNH3>
0

>  <NsNH2>
0

>  <NssNH2>
0

>  <NdNH>
0

>  <NssNH>
2

>  <NaaNH>
0

>  <NtN>
0

>  <NsssNH>
0

>  <NdsN>
0

>  <NaaN>
0

>  <NsssN>
0

>  <NddsN>
0

>  <NaasN>
0

>  <NssssN>
0

>  <NsOH>
0

>  <NdO>
3

>  <NssO>
0

>  <NaaO>
0

>  <NsF>
0

>  <NsSiH3>
0

>  <NssSiH2>
0

>  <NsssSiH>
0

>  <NssssSi>
0

>  <NsPH2>
0

>  <NssPH>
0

>  <NsssP>
0

>  <NdsssP>
0

>  <NsssssP>
0

>  <NsSH>
0

>  <NdS>
0

>  <NssS>
0

>  <NaaS>
0

>  <NdssS>
0

>  <NddssS>
0

>  <NsCl>
0

>  <NsBr>
1

>  <NsI>
0

>  <fragCpx>
14.06

>  <fMF>
0

>  <nHBAcc>
3

>  <nHBDon>
2

>  <Kier1>
15

>  <Kier2>
6.55

>  <Lipinski>
1

>  <GhoseFilter>
1

>  <FilterItLogS>
-2.7

>  <VMcGowan>
179.84

>  <LabuteASA>
97.11

>  <PEOE_VSA1>
0

>  <PEOE_VSA2>
20.22

>  <PEOE_VSA3>
4.79

>  <PEOE_VSA4>
0

>  <PEOE_VSA5>
0

>  <PEOE_VSA6>
29.78

>  <PEOE_VSA7>
12.84

>  <PEOE_VSA8>
6.92

>  <PEOE_VSA9>
0

>  <PEOE_VSA10>
4.32

>  <PEOE_VSA11>
0

>  <PEOE_VSA12>
11.81

>  <PEOE_VSA13>
0

>  <SMR_VSA1>
14.38

>  <SMR_VSA2>
0

>  <SMR_VSA3>
10.63

>  <SMR_VSA4>
0

>  <SMR_VSA5>
37.94

>  <SMR_VSA6>
0

>  <SMR_VSA7>
0

>  <SMR_VSA8>
0

>  <SMR_VSA9>
0

>  <SlogP_VSA1>
10.63

>  <SlogP_VSA2>
22.17

>  <SlogP_VSA3>
9.59

>  <SlogP_VSA4>
0

>  <SlogP_VSA5>
33.61

>  <SlogP_VSA6>
0

>  <SlogP_VSA7>
0

>  <SlogP_VSA8>
0

>  <SlogP_VSA9>
0

>  <SlogP_VSA10>
4.79

>  <SlogP_VSA11>
0

>  <EState_VSA1>
22.17

>  <EState_VSA2>
0

>  <EState_VSA3>
12.84

>  <EState_VSA4>
0

>  <EState_VSA5>
6.92

>  <EState_VSA6>
0

>  <EState_VSA7>
19.16

>  <EState_VSA8>
21.25

>  <EState_VSA9>
0

>  <EState_VSA10>
14.38

>  <VSA_EState1>
-0.75

>  <VSA_EState2>
33.18

>  <VSA_EState3>
4.06

>  <VSA_EState4>
0

>  <VSA_EState5>
-0.94

>  <VSA_EState6>
-0.79

>  <VSA_EState7>
1.12

>  <VSA_EState8>
4.87

>  <VSA_EState9>
0

>  <apol>
32.69

>  <bpol>
20.17

>  <nRing>
0

>  <nHRing>
0

>  <naRing>
0

>  <naHRing>
0

>  <nARing 2>
0

>  <nAHRing 2>
0

>  <nFRing>
0

>  <nFHRing>
0

>  <nFaRing>
0

>  <nFaHRing>
0

>  <nFARing 2>
0

>  <nFAHRing 2>
0

>  <nRot>
3

>  <SLogP>
1.31

>  <SMR>
59.6

>  <TopoPSA(NO)>
75.27

>  <TopoPSA>
75.27

>  <JGI1>
0.39

>  <JGI2>
0.13

>  <JGI3>
0.07

>  <JGI4>
0.03

>  <JGI5>
0.03

>  <Diameter>
8

>  <Radius>
4

>  <TMWC10>
96.2

>  <TSRW10>
46.14

>  <MW>
278.03

>  <AMW>
9.27

>  <WPath>
394

>  <WPol>
20

>  <Zagreb1>
66

>  <Zagreb2>
72

>  <mZagreb2>
3.58

>  <yes>


>  <nAR-cont>
0.336376

>  <nHA-cont>
0.92539861

>  <MWHBN>
0.299863893

>  <MWHBN-cont>
0.841145206

>  <TPSA-cont>
0.47456866

>  <pka_cont>
0.97

>  <yes.1>


>  <BBB_SCORE>
3.95762974

>  <MMFF94 Energy>
-69.159

$$$$
Compound 1084
Actelion Java MolfileCreator 2.0

  0  0  0  0  0  0              0 V3000
M  V30 BEGIN CTAB
M  V30 COUNTS 25 24 0 0 0
M  V30 BEGIN ATOM
M  V30 1 Br -2.9968 0.7879 -0.7879 0
M  V30 2 C -1.1086 0.1173 -0.6521 0
M  V30 3 C -0.2876 1.2622 -0.0075 0
M  V30 4 C -1.1643 -1.2005 0.1544 0
M  V30 5 C -0.6619 -0.1016 -2.1179 0
M  V30 6 O -0.5648 2.4488 -0.1692 0
M  V30 7 N 0.8793 0.8462 0.6153 0
M  V30 8 C -1.6259 -1.0773 1.6064 0
M  V30 9 C 0.7298 -0.6938 -2.3053 0
M  V30 10 C 1.569 1.587 1.5345 0
M  V30 11 O 1.1583 2.5484 2.1656 0
M  V30 12 N 2.8136 1.0915 1.7812 0
M  V30 13 H -1.8259 -1.9151 -0.3528 0
M  V30 14 H -0.1762 -1.6736 0.1727 0
M  V30 15 H -0.6921 0.8533 -2.66 0
M  V30 16 H -1.3754 -0.7636 -2.6267 0
M  V30 17 H 1.2157 -0.0883 0.4728 0
M  V30 18 H -1.5647 -2.0561 2.0944 0
M  V30 19 H -2.6646 -0.7447 1.6821 0
M  V30 20 H -1.0008 -0.3864 2.1783 0
M  V30 21 H 1.5056 -0.0388 -1.9001 0
M  V30 22 H 0.8197 -1.6784 -1.8388 0
M  V30 23 H 0.9356 -0.8188 -3.3739 0
M  V30 24 H 3.2874 0.4274 1.1911 0
M  V30 25 H 3.3577 1.5871 2.4775 0
M  V30 END ATOM
M  V30 BEGIN BOND
M  V30 1 1 1 2
M  V30 2 1 2 3
M  V30 3 1 2 4
M  V30 4 1 2 5
M  V30 5 2 3 6
M  V30 6 1 3 7
M  V30 7 1 4 8
M  V30 8 1 5 9
M  V30 9 1 7 10
M  V30 10 2 10 11
M  V30 11 1 10 12
M  V30 12 1 4 13
M  V30 13 1 4 14
M  V30 14 1 5 15
M  V30 15 1 5 16
M  V30 16 1 7 17
M  V30 17 1 8 18
M  V30 18 1 8 19
M  V30 19 1 8 20
M  V30 20 1 9 21
M  V30 21 1 9 22
M  V30 22 1 9 23
M  V30 23 1 12 24
M  V30 24 1 12 25
M  V30 END BOND
M  V30 END CTAB
M  END
>  <Column 1>
1290

>  <level_0>
1434

>  <index>
1434

>  <Unnamed: 0>
1434

>  <NO.>
1446

>  <Name>
carbromal

>  <IUPAC_name>
2-bromo-n-carbamoyl-2-ethylbutanamide

>  <SMILES>
CCC(Br)(CC)C(=O)NC(N)=O

>  <CID>
6488

>  <logBB>


>  <BBB+/BBB->
BBB+

>  <Inchi>
InChI=1S/C7H13BrN2O2/c1-3-7(8-4-2)5(11)10-6(9)12/h3-4H2-1-2H3-(H3-9-10-11-12)

>  <threshold>
-1

>  <reference>
R1|R13|R19|R6|R24|R27|R27|R27|R30|R30|

>  <group>
B

>  <Class>
1

>  <ABC>
8.2

>  <ABCGG>
8.83

>  <nAcid>
0

>  <nBase>
0

>  <nAromAtom>
0

>  <nAromBond>
0

>  <nAtom>
25

>  <nHeavyAtom>
12

>  <nSpiro>
0

>  <nBridgehead>
0

>  <nHetero>
5

>  <nN>
2

>  <nO>
2

>  <nF>
0

>  <BalabanJ>
4.11

>  <BertzCT>
189.85

>  <nBonds>
24

>  <nBondsO>
11

>  <nBondsS>
22

>  <nBondsD>
2

>  <nBondsT>
0

>  <nBondsA>
0

>  <nBondsM>
2

>  <nBondsKS>
22

>  <nBondsKD>
2

>  <RNCG>
0.25

>  <RPCG>
0.22

>  <FCSP3>
0.71

>  <SZ>
20

>  <Sm>
19.74

>  <Sv>
14.76

>  <Sse>
25.43

>  <Sp>
16.29

>  <Si>
28.75

>  <MZ>
0.8

>  <Mm>
0.79

>  <Mv>
0.59

>  <Mse>
1.02

>  <Mp>
0.65

>  <Mi>
1.15

>  <NsCH3>
2

>  <NdCH2>
0

>  <NssCH2>
2

>  <NtCH>
0

>  <NdsCH>
0

>  <NaaCH>
0

>  <NsssCH>
0

>  <NddC>
0

>  <NtsC>
0

>  <NdssC>
2

>  <NaasC>
0

>  <NaaaC>
0

>  <NssssC>
1

>  <NsNH3>
0

>  <NsNH2>
1

>  <NssNH2>
0

>  <NdNH>
0

>  <NssNH>
1

>  <NaaNH>
0

>  <NtN>
0

>  <NsssNH>
0

>  <NdsN>
0

>  <NaaN>
0

>  <NsssN>
0

>  <NddsN>
0

>  <NaasN>
0

>  <NssssN>
0

>  <NsOH>
0

>  <NdO>
2

>  <NssO>
0

>  <NaaO>
0

>  <NsF>
0

>  <NsSiH3>
0

>  <NssSiH2>
0

>  <NsssSiH>
0

>  <NssssSi>
0

>  <NsPH2>
0

>  <NssPH>
0

>  <NsssP>
0

>  <NdsssP>
0

>  <NsssssP>
0

>  <NsSH>
0

>  <NdS>
0

>  <NssS>
0

>  <NaaS>
0

>  <NdssS>
0

>  <NddssS>
0

>  <NsCl>
0

>  <NsBr>
1

>  <NsI>
0

>  <fragCpx>
11.05

>  <fMF>
0

>  <nHBAcc>
2

>  <nHBDon>
2

>  <Kier1>
12

>  <Kier2>
4.89

>  <Lipinski>
1

>  <GhoseFilter>
1

>  <FilterItLogS>
-1.96

>  <VMcGowan>
150.09

>  <LabuteASA>
80.01

>  <PEOE_VSA1>
5.73

>  <PEOE_VSA2>
10.11

>  <PEOE_VSA3>
4.79

>  <PEOE_VSA4>
0

>  <PEOE_VSA5>
0

>  <PEOE_VSA6>
29.78

>  <PEOE_VSA7>
12.84

>  <PEOE_VSA8>
0

>  <PEOE_VSA9>
0

>  <PEOE_VSA10>
4.32

>  <PEOE_VSA11>
0

>  <PEOE_VSA12>
5.91

>  <PEOE_VSA13>
0

>  <SMR_VSA1>
9.59

>  <SMR_VSA2>
0

>  <SMR_VSA3>
5.32

>  <SMR_VSA4>
5.73

>  <SMR_VSA5>
31.01

>  <SMR_VSA6>
0

>  <SMR_VSA7>
0

>  <SMR_VSA8>
0

>  <SMR_VSA9>
0

>  <SlogP_VSA1>
11.05

>  <SlogP_VSA2>
16.26

>  <SlogP_VSA3>
4.79

>  <SlogP_VSA4>
0

>  <SlogP_VSA5>
26.69

>  <SlogP_VSA6>
0

>  <SlogP_VSA7>
0

>  <SlogP_VSA8>
0

>  <SlogP_VSA9>
0

>  <SlogP_VSA10>
4.79

>  <SlogP_VSA11>
0

>  <EState_VSA1>
10.36

>  <EState_VSA2>
5.91

>  <EState_VSA3>
12.84

>  <EState_VSA4>
0

>  <EState_VSA5>
0

>  <EState_VSA6>
0

>  <EState_VSA7>
19.16

>  <EState_VSA8>
15.93

>  <EState_VSA9>
5.73

>  <EState_VSA10>
9.59

>  <VSA_EState1>
-0.66

>  <VSA_EState2>
21.64

>  <VSA_EState3>
2.04

>  <VSA_EState4>
4.81

>  <VSA_EState5>
-0.38

>  <VSA_EState6>
-0.81

>  <VSA_EState7>
1.23

>  <VSA_EState8>
3.72

>  <VSA_EState9>
0

>  <apol>
27.21

>  <bpol>
16.16

>  <nRing>
0

>  <nHRing>
0

>  <naRing>
0

>  <naHRing>
0

>  <nARing 2>
0

>  <nAHRing 2>
0

>  <nFRing>
0

>  <nFHRing>
0

>  <nFaRing>
0

>  <nFaHRing>
0

>  <nFARing 2>
0

>  <nFAHRing 2>
0

>  <nRot>
3

>  <SLogP>
1.14

>  <SMR>
49.97

>  <TopoPSA(NO)>
72.19

>  <TopoPSA>
72.19

>  <JGI1>
0.41

>  <JGI2>
0.15

>  <JGI3>
0.06

>  <JGI4>
0.04

>  <JGI5>
0.03

>  <Diameter>
6

>  <Radius>
3

>  <TMWC10>
88.18

>  <TSRW10>
42.08

>  <MW>
236.02

>  <AMW>
9.44

>  <WPath>
201

>  <WPol>
16

>  <Zagreb1>
52

>  <Zagreb2>
57

>  <mZagreb2>
2.92

>  <yes>


>  <nAR-cont>
0.336376

>  <nHA-cont>
0.785745021

>  <MWHBN>
0.26036679

>  <MWHBN-cont>
0.940686374

>  <TPSA-cont>
0.496068973

>  <pka_cont>
0.97

>  <yes.1>


>  <BBB_SCORE>
4.010288527

>  <MMFF94 Energy>
-67.109

$$$$
Compound 1085
Actelion Java MolfileCreator 2.0

  0  0  0  0  0  0              0 V3000
M  V30 BEGIN CTAB
M  V30 COUNTS 29 29 0 0 0
M  V30 BEGIN ATOM
M  V30 1 O -1.9476 -1.5578 3.664 0
M  V30 2 C -1.1081 -0.7441 3.3107 0
M  V30 3 N -0.8327 -0.3361 2.0357 0
M  V30 4 N -0.3721 -0.0792 4.2451 0
M  V30 5 C -1.2289 -0.9894 0.8778 0
M  V30 6 O -1.6962 -2.1226 0.8321 0
M  V30 7 C -0.9986 -0.1405 -0.3875 0 CFG=1
M  V30 8 C 0.4647 0.2585 -0.5299 0
M  V30 9 C -1.536 -0.8563 -1.6426 0
M  V30 10 C 0.8192 1.6138 -0.6171 0
M  V30 11 C 1.4788 -0.7108 -0.5669 0
M  V30 12 C -1.5595 0.0334 -2.8791 0
M  V30 13 C 2.1586 1.9891 -0.7294 0
M  V30 14 C 2.8168 -0.3315 -0.678 0
M  V30 15 C 3.1564 1.0173 -0.7575 0
M  V30 16 H -0.2951 0.5084 1.94 0
M  V30 17 H 0.4312 0.4896 4.0328 0
M  V30 18 H -0.5502 -0.3235 5.2112 0
M  V30 19 H -1.6015 0.7671 -0.2385 0
M  V30 20 H -0.9488 -1.7573 -1.8589 0
M  V30 21 H -2.562 -1.1967 -1.4528 0
M  V30 22 H 0.0557 2.3893 -0.6113 0
M  V30 23 H 1.2347 -1.7711 -0.5101 0
M  V30 24 H -0.5499 0.3197 -3.1881 0
M  V30 25 H -2.138 0.9444 -2.6963 0
M  V30 26 H -2.0236 -0.4993 -3.7152 0
M  V30 27 H 2.4249 3.0407 -0.8047 0
M  V30 28 H 3.5945 -1.0908 -0.7083 0
M  V30 29 H 4.1992 1.3099 -0.851 0
M  V30 END ATOM
M  V30 BEGIN BOND
M  V30 1 2 1 2
M  V30 2 1 2 3
M  V30 3 1 2 4
M  V30 4 1 3 5
M  V30 5 2 5 6
M  V30 6 1 5 7
M  V30 7 1 7 8
M  V30 8 1 7 9
M  V30 9 2 8 10
M  V30 10 1 8 11
M  V30 11 1 9 12
M  V30 12 1 10 13
M  V30 13 2 11 14
M  V30 14 2 13 15
M  V30 15 1 14 15
M  V30 16 1 3 16
M  V30 17 1 4 17
M  V30 18 1 4 18
M  V30 19 1 7 19
M  V30 20 1 9 20
M  V30 21 1 9 21
M  V30 22 1 10 22
M  V30 23 1 11 23
M  V30 24 1 12 24
M  V30 25 1 12 25
M  V30 26 1 12 26
M  V30 27 1 13 27
M  V30 28 1 14 28
M  V30 29 1 15 29
M  V30 END BOND
M  V30 BEGIN COLLECTION
M  V30 MDLV30/STERAC1 ATOMS=(1 7)
M  V30 END COLLECTION
M  V30 END CTAB
M  END
>  <Column 1>
1291

>  <level_0>
1435

>  <index>
1435

>  <Unnamed: 0>
1435

>  <NO.>
1447

>  <Name>
pheneturide

>  <IUPAC_name>
n-carbamoyl-2-phenylbutanamide

>  <SMILES>
CCC(C(=O)NC(N)=O)c1ccccc1

>  <CID>
72060

>  <logBB>


>  <BBB+/BBB->
BBB+

>  <Inchi>
InChI=1S/C11H14N2O2/c1-2-9(10(14)13-11(12)15)8-6-4-3-5-7-8/h3-7-9H-2H2-1H3-(H3-12-13-14-15)

>  <threshold>
-1

>  <reference>
R1|R19|R6|R27|R27|R30|

>  <group>
B

>  <Class>
1

>  <ABC>
10.85

>  <ABCGG>
10.29

>  <nAcid>
0

>  <nBase>
0

>  <nAromAtom>
6

>  <nAromBond>
6

>  <nAtom>
29

>  <nHeavyAtom>
15

>  <nSpiro>
0

>  <nBridgehead>
0

>  <nHetero>
4

>  <nN>
2

>  <nO>
2

>  <nF>
0

>  <BalabanJ>
2.45

>  <BertzCT>
348.87

>  <nBonds>
29

>  <nBondsO>
15

>  <nBondsS>
21

>  <nBondsD>
2

>  <nBondsT>
0

>  <nBondsA>
6

>  <nBondsM>
8

>  <nBondsKS>
24

>  <nBondsKD>
5

>  <RNCG>
0.22

>  <RPCG>
0.2

>  <FCSP3>
0.27

>  <SZ>
18.33

>  <Sm>
17.17

>  <Sv>
17.74

>  <Sse>
29.2

>  <Sp>
18.87

>  <Si>
32.91

>  <MZ>
0.63

>  <Mm>
0.59

>  <Mv>
0.61

>  <Mse>
1.01

>  <Mp>
0.65

>  <Mi>
1.13

>  <NsCH3>
1

>  <NdCH2>
0

>  <NssCH2>
1

>  <NtCH>
0

>  <NdsCH>
0

>  <NaaCH>
5

>  <NsssCH>
1

>  <NddC>
0

>  <NtsC>
0

>  <NdssC>
2

>  <NaasC>
1

>  <NaaaC>
0

>  <NssssC>
0

>  <NsNH3>
0

>  <NsNH2>
1

>  <NssNH2>
0

>  <NdNH>
0

>  <NssNH>
1

>  <NaaNH>
0

>  <NtN>
0

>  <NsssNH>
0

>  <NdsN>
0

>  <NaaN>
0

>  <NsssN>
0

>  <NddsN>
0

>  <NaasN>
0

>  <NssssN>
0

>  <NsOH>
0

>  <NdO>
2

>  <NssO>
0

>  <NaaO>
0

>  <NsF>
0

>  <NsSiH3>
0

>  <NssSiH2>
0

>  <NsssSiH>
0

>  <NssssSi>
0

>  <NsPH2>
0

>  <NssPH>
0

>  <NsssP>
0

>  <NdsssP>
0

>  <NsssssP>
0

>  <NsSH>
0

>  <NdS>
0

>  <NssS>
0

>  <NaaS>
0

>  <NdssS>
0

>  <NddssS>
0

>  <NsCl>
0

>  <NsBr>
0

>  <NsI>
0

>  <fragCpx>
15.04

>  <fMF>
0.21

>  <nHBAcc>
2

>  <nHBDon>
2

>  <Kier1>
13.07

>  <Kier2>
6.55

>  <Lipinski>
1

>  <GhoseFilter>
1

>  <FilterItLogS>
-2.08

>  <VMcGowan>
165.19

>  <LabuteASA>
88.47

>  <PEOE_VSA1>
5.73

>  <PEOE_VSA2>
10.11

>  <PEOE_VSA3>
4.79

>  <PEOE_VSA4>
0

>  <PEOE_VSA5>
0

>  <PEOE_VSA6>
37.26

>  <PEOE_VSA7>
11.98

>  <PEOE_VSA8>
0

>  <PEOE_VSA9>
5.92

>  <PEOE_VSA10>
0

>  <PEOE_VSA11>
0

>  <PEOE_VSA12>
5.91

>  <PEOE_VSA13>
0

>  <SMR_VSA1>
9.59

>  <SMR_VSA2>
0

>  <SMR_VSA3>
5.32

>  <SMR_VSA4>
5.73

>  <SMR_VSA5>
19.26

>  <SMR_VSA6>
0

>  <SMR_VSA7>
35.9

>  <SMR_VSA8>
0

>  <SMR_VSA9>
0

>  <SlogP_VSA1>
11.05

>  <SlogP_VSA2>
11.94

>  <SlogP_VSA3>
4.79

>  <SlogP_VSA4>
0

>  <SlogP_VSA5>
24.83

>  <SlogP_VSA6>
30.33

>  <SlogP_VSA7>
0

>  <SlogP_VSA8>
0

>  <SlogP_VSA9>
0

>  <SlogP_VSA10>
4.79

>  <SlogP_VSA11>
0

>  <EState_VSA1>
6.03

>  <EState_VSA2>
11.83

>  <EState_VSA3>
6.42

>  <EState_VSA4>
5.56

>  <EState_VSA5>
0

>  <EState_VSA6>
0

>  <EState_VSA7>
37.26

>  <EState_VSA8>
5.32

>  <EState_VSA9>
5.73

>  <EState_VSA10>
9.59

>  <VSA_EState1>
0

>  <VSA_EState2>
22.12

>  <VSA_EState3>
2.09

>  <VSA_EState4>
5.78

>  <VSA_EState5>
-0.67

>  <VSA_EState6>
8.49

>  <VSA_EState7>
0.63

>  <VSA_EState8>
1.89

>  <VSA_EState9>
0

>  <apol>
31.51

>  <bpol>
15.78

>  <nRing>
1

>  <nHRing>
0

>  <naRing>
1

>  <naHRing>
0

>  <nARing 2>
0

>  <nAHRing 2>
0

>  <nFRing>
0

>  <nFHRing>
0

>  <nFaRing>
0

>  <nFaHRing>
0

>  <nFARing 2>
0

>  <nFAHRing 2>
0

>  <nRot>
3

>  <SLogP>
1.38

>  <SMR>
57.2

>  <TopoPSA(NO)>
72.19

>  <TopoPSA>
72.19

>  <JGI1>
0.2

>  <JGI2>
0.08

>  <JGI3>
0.06

>  <JGI4>
0.03

>  <JGI5>
0.03

>  <Diameter>
8

>  <Radius>
4

>  <TMWC10>
97.49

>  <TSRW10>
46.08

>  <MW>
206.11

>  <AMW>
7.11

>  <WPath>
378

>  <WPol>
19

>  <Zagreb1>
68

>  <Zagreb2>
75

>  <mZagreb2>
3.56

>  <yes>


>  <nAR-cont>
0.336376

>  <nHA-cont>
0.92539861

>  <MWHBN>
0.278618827

>  <MWHBN-cont>
0.899554675

>  <TPSA-cont>
0.496068973

>  <pka_cont>
0.97

>  <yes.1>


>  <BBB_SCORE>
4.088244569

>  <MMFF94 Energy>
-62.642

$$$$
Compound 1086
Actelion Java MolfileCreator 2.0

  0  0  0  0  0  0              0 V3000
M  V30 BEGIN CTAB
M  V30 COUNTS 56 58 0 0 0
M  V30 BEGIN ATOM
M  V30 1 O 0.0793 0.873 2.8594 0
M  V30 2 C -0.2564 -0.1644 2.3013 0
M  V30 3 O -1.2326 -0.2587 1.3564 0
M  V30 4 C 0.3593 -1.5358 2.5563 0
M  V30 5 C -1.844 0.988 0.9936 0
M  V30 6 C -0.2308 -2.1775 3.8024 0
M  V30 7 C 1.8954 -1.4421 2.6333 0
M  V30 8 C -2.6038 0.8133 -0.332 0
M  V30 9 C -0.9672 -3.3674 3.6949 0
M  V30 10 C -0.0633 -1.6028 5.0721 0
M  V30 11 C 2.5222 -1.057 1.2981 0
M  V30 12 N -1.7835 0.3589 -1.4697 0
M  V30 13 C -1.5168 -3.9687 4.8288 0
M  V30 14 C -0.6143 -2.2056 6.2042 0
M  V30 15 C -0.6028 1.2072 -1.8019 0
M  V30 16 C -2.6181 0.1344 -2.6671 0
M  V30 17 C -1.3398 -3.3884 6.0827 0
M  V30 18 C 0.1783 0.5506 -2.9935 0
M  V30 19 C -0.9632 2.6761 -2.096 0
M  V30 20 C -1.7951 -0.4062 -3.8469 0
M  V30 21 O -0.6785 0.4383 -4.1482 0
M  V30 22 C 1.4687 1.2728 -3.3484 0
M  V30 23 C 2.5802 1.1667 -2.4954 0
M  V30 24 C 1.5862 2.0601 -4.5038 0
M  V30 25 C 3.7722 1.8317 -2.7888 0
M  V30 26 C 2.779 2.7244 -4.7967 0
M  V30 27 C 3.8708 2.6109 -3.9391 0
M  V30 28 H 0.1221 -2.1693 1.6899 0
M  V30 29 H -1.0983 1.7863 0.9081 0
M  V30 30 H -2.5559 1.261 1.781 0
M  V30 31 H 2.2075 -0.7125 3.3908 0
M  V30 32 H 2.3083 -2.4113 2.9407 0
M  V30 33 H -3.3732 0.0497 -0.1573 0
M  V30 34 H -3.1313 1.7442 -0.5706 0
M  V30 35 H -1.1201 -3.8373 2.7256 0
M  V30 36 H 0.4929 -0.6742 5.1905 0
M  V30 37 H 2.2538 -1.7745 0.5164 0
M  V30 38 H 2.2 -0.0616 0.9776 0
M  V30 39 H 3.6133 -1.0439 1.3849 0
M  V30 40 H -2.0846 -4.8905 4.7329 0
M  V30 41 H -0.4785 -1.7488 7.1812 0
M  V30 42 H 0.0718 1.1996 -0.9373 0
M  V30 43 H -3.1076 1.0686 -2.9681 0
M  V30 44 H -3.4089 -0.5907 -2.4413 0
M  V30 45 H -1.7687 -3.8563 6.9648 0
M  V30 46 H 0.4703 -0.4718 -2.7104 0
M  V30 47 H -0.0592 3.2772 -2.2385 0
M  V30 48 H -1.5746 2.7813 -2.9974 0
M  V30 49 H -1.5031 3.136 -1.2628 0
M  V30 50 H -2.4233 -0.4545 -4.7421 0
M  V30 51 H -1.4351 -1.422 -3.6433 0
M  V30 52 H 2.5244 0.5604 -1.5941 0
M  V30 53 H 0.7441 2.1613 -5.1856 0
M  V30 54 H 4.6242 1.7404 -2.1202 0
M  V30 55 H 2.8538 3.3295 -5.6963 0
M  V30 56 H 4.7985 3.1278 -4.1689 0
M  V30 END ATOM
M  V30 BEGIN BOND
M  V30 1 2 1 2
M  V30 2 1 2 3
M  V30 3 1 2 4
M  V30 4 1 3 5
M  V30 5 1 4 6
M  V30 6 1 4 7
M  V30 7 1 5 8
M  V30 8 2 6 9
M  V30 9 1 6 10
M  V30 10 1 7 11
M  V30 11 1 8 12
M  V30 12 1 9 13
M  V30 13 2 10 14
M  V30 14 1 12 15
M  V30 15 1 12 16
M  V30 16 2 13 17
M  V30 17 1 15 18
M  V30 18 1 15 19
M  V30 19 1 16 20
M  V30 20 1 18 21
M  V30 21 1 18 22
M  V30 22 2 22 23
M  V30 23 1 22 24
M  V30 24 1 23 25
M  V30 25 2 24 26
M  V30 26 2 25 27
M  V30 27 1 14 17
M  V30 28 1 20 21
M  V30 29 1 26 27
M  V30 30 1 4 28
M  V30 31 1 5 29
M  V30 32 1 5 30
M  V30 33 1 7 31
M  V30 34 1 7 32
M  V30 35 1 8 33
M  V30 36 1 8 34
M  V30 37 1 9 35
M  V30 38 1 10 36
M  V30 39 1 11 37
M  V30 40 1 11 38
M  V30 41 1 11 39
M  V30 42 1 13 40
M  V30 43 1 14 41
M  V30 44 1 15 42
M  V30 45 1 16 43
M  V30 46 1 16 44
M  V30 47 1 17 45
M  V30 48 1 18 46
M  V30 49 1 19 47
M  V30 50 1 19 48
M  V30 51 1 19 49
M  V30 52 1 20 50
M  V30 53 1 20 51
M  V30 54 1 23 52
M  V30 55 1 24 53
M  V30 56 1 25 54
M  V30 57 1 26 55
M  V30 58 1 27 56
M  V30 END BOND
M  V30 END CTAB
M  END
>  <Column 1>
1292

>  <level_0>
1436

>  <index>
1436

>  <Unnamed: 0>
1436

>  <NO.>
1448

>  <Name>
fenbutrazate

>  <IUPAC_name>
2-(3-methyl-2-phenylmorpholin-4-yl)ethyl 2-phenylbutanoate

>  <SMILES>
CCC(C(=O)OCCN1CCOC(c2ccccc2)C1C)c1ccccc1

>  <CID>
20395

>  <logBB>


>  <BBB+/BBB->
BBB+

>  <Inchi>
InChI=1S/C23H29NO3/c1-3-21(19-10-6-4-7-11-19)23(25)27-17-15-24-14-16-26-22(18(24)2)20-12-8-5-9-13-20/h4-13-18-21-22H-3-14-17H2-1-2H3

>  <threshold>
-1

>  <reference>
R1|R19|R6|R27|R27|R30|

>  <group>
B

>  <Class>
1

>  <ABC>
20.52

>  <ABCGG>
16.23

>  <nAcid>
0

>  <nBase>
1

>  <nAromAtom>
12

>  <nAromBond>
12

>  <nAtom>
56

>  <nHeavyAtom>
27

>  <nSpiro>
0

>  <nBridgehead>
0

>  <nHetero>
4

>  <nN>
1

>  <nO>
3

>  <nF>
0

>  <BalabanJ>
1.43

>  <BertzCT>
704.08

>  <nBonds>
58

>  <nBondsO>
29

>  <nBondsS>
45

>  <nBondsD>
1

>  <nBondsT>
0

>  <nBondsA>
12

>  <nBondsM>
13

>  <nBondsKS>
51

>  <nBondsKD>
7

>  <RNCG>
0.21

>  <RPCG>
0.14

>  <FCSP3>
0.43

>  <SZ>
33

>  <Sm>
30.6

>  <Sv>
33.76

>  <Sse>
55.53

>  <Sp>
36.68

>  <Si>
62.94

>  <MZ>
0.59

>  <Mm>
0.55

>  <Mv>
0.6

>  <Mse>
0.99

>  <Mp>
0.65

>  <Mi>
1.12

>  <NsCH3>
2

>  <NdCH2>
0

>  <NssCH2>
5

>  <NtCH>
0

>  <NdsCH>
0

>  <NaaCH>
10

>  <NsssCH>
3

>  <NddC>
0

>  <NtsC>
0

>  <NdssC>
1

>  <NaasC>
2

>  <NaaaC>
0

>  <NssssC>
0

>  <NsNH3>
0

>  <NsNH2>
0

>  <NssNH2>
0

>  <NdNH>
0

>  <NssNH>
0

>  <NaaNH>
0

>  <NtN>
0

>  <NsssNH>
0

>  <NdsN>
0

>  <NaaN>
0

>  <NsssN>
1

>  <NddsN>
0

>  <NaasN>
0

>  <NssssN>
0

>  <NsOH>
0

>  <NdO>
1

>  <NssO>
2

>  <NaaO>
0

>  <NsF>
0

>  <NsSiH3>
0

>  <NssSiH2>
0

>  <NsssSiH>
0

>  <NssssSi>
0

>  <NsPH2>
0

>  <NssPH>
0

>  <NsssP>
0

>  <NdsssP>
0

>  <NsssssP>
0

>  <NsSH>
0

>  <NdS>
0

>  <NssS>
0

>  <NaaS>
0

>  <NdssS>
0

>  <NddssS>
0

>  <NsCl>
0

>  <NsBr>
0

>  <NsI>
0

>  <fragCpx>
139.04

>  <fMF>
0.41

>  <nHBAcc>
4

>  <nHBDon>
0

>  <Kier1>
21.7

>  <Kier2>
11.25

>  <Lipinski>
1

>  <GhoseFilter>
1

>  <FilterItLogS>
-4.8

>  <VMcGowan>
299.84

>  <LabuteASA>
161.65

>  <PEOE_VSA1>
9.47

>  <PEOE_VSA2>
9.69

>  <PEOE_VSA3>
0

>  <PEOE_VSA4>
0

>  <PEOE_VSA5>
0

>  <PEOE_VSA6>
67.59

>  <PEOE_VSA7>
24.47

>  <PEOE_VSA8>
19.13

>  <PEOE_VSA9>
18.63

>  <PEOE_VSA10>
6.61

>  <PEOE_VSA11>
0

>  <PEOE_VSA12>
0

>  <PEOE_VSA13>
0

>  <SMR_VSA1>
14.27

>  <SMR_VSA2>
0

>  <SMR_VSA3>
4.9

>  <SMR_VSA4>
0

>  <SMR_VSA5>
38.33

>  <SMR_VSA6>
26.3

>  <SMR_VSA7>
71.79

>  <SMR_VSA8>
0

>  <SMR_VSA9>
0

>  <SlogP_VSA1>
0

>  <SlogP_VSA2>
43.21

>  <SlogP_VSA3>
14.27

>  <SlogP_VSA4>
0

>  <SlogP_VSA5>
43.42

>  <SlogP_VSA6>
60.66

>  <SlogP_VSA7>
0

>  <SlogP_VSA8>
0

>  <SlogP_VSA9>
0

>  <SlogP_VSA10>
0

>  <SlogP_VSA11>
0

>  <EState_VSA1>
0

>  <EState_VSA2>
24.03

>  <EState_VSA3>
13.21

>  <EState_VSA4>
25.07

>  <EState_VSA5>
5.56

>  <EState_VSA6>
0

>  <EState_VSA7>
55.45

>  <EState_VSA8>
23.96

>  <EState_VSA9>
9.47

>  <EState_VSA10>
4.79

>  <VSA_EState1>
11.62

>  <VSA_EState2>
14.86

>  <VSA_EState3>
0

>  <VSA_EState4>
2.22

>  <VSA_EState5>
-0.32

>  <VSA_EState6>
20.43

>  <VSA_EState7>
0.8

>  <VSA_EState8>
6.89

>  <VSA_EState9>
0

>  <apol>
61.25

>  <bpol>
35.14

>  <nRing>
3

>  <nHRing>
1

>  <naRing>
2

>  <naHRing>
0

>  <nARing 2>
1

>  <nAHRing 2>
1

>  <nFRing>
0

>  <nFHRing>
0

>  <nFaRing>
0

>  <nFaHRing>
0

>  <nFARing 2>
0

>  <nFAHRing 2>
0

>  <nRot>
7

>  <SLogP>
4.19

>  <SMR>
106.6

>  <TopoPSA(NO)>
38.77

>  <TopoPSA>
38.77

>  <JGI1>
0.12

>  <JGI2>
0.08

>  <JGI3>
0.05

>  <JGI4>
0.03

>  <JGI5>
0.02

>  <Diameter>
15

>  <Radius>
8

>  <TMWC10>
130.68

>  <TSRW10>
61.74

>  <MW>
367.21

>  <AMW>
6.56

>  <WPath>
2098

>  <WPol>
41

>  <Zagreb1>
134

>  <Zagreb2>
155

>  <mZagreb2>
6.22

>  <yes>


>  <nAR-cont>
0.816016

>  <nHA-cont>
0.860070871

>  <MWHBN>
0.208738588

>  <MWHBN-cont>
0.999583506

>  <TPSA-cont>
0.729361325

>  <pka_cont>
0.97

>  <yes.1>


>  <BBB_SCORE>
5.11918478

>  <MMFF94 Energy>
145.35

$$$$
Compound 1087
Actelion Java MolfileCreator 2.0

  0  0  0  0  0  0              0 V3000
M  V30 BEGIN CTAB
M  V30 COUNTS 25 24 0 0 0
M  V30 BEGIN ATOM
M  V30 1 O 2.1397 0.7637 -1.6808 0
M  V30 2 C 1.0845 1.3664 -1.5877 0
M  V30 3 O -0.0313 0.9745 -0.9414 0
M  V30 4 N 0.8763 2.5768 -2.1509 0
M  V30 5 C -0.0899 -0.2996 -0.232 0
M  V30 6 C 0.9253 -0.3004 0.9373 0
M  V30 7 C -1.5597 -0.4053 0.2582 0
M  V30 8 C 0.1548 -1.4595 -1.2136 0
M  V30 9 C 0.8487 -1.5023 1.8695 0
M  V30 10 C -1.9926 0.6963 1.2208 0
M  V30 11 H 1.6229 3.0079 -2.6735 0
M  V30 12 H -0.0153 3.0335 -2.0444 0
M  V30 13 H 1.9465 -0.2562 0.5422 0
M  V30 14 H 0.8151 0.6204 1.5233 0
M  V30 15 H -1.7424 -1.3792 0.727 0
M  V30 16 H -2.226 -0.3488 -0.6131 0
M  V30 17 H -0.1117 -2.426 -0.7738 0
M  V30 18 H 1.2034 -1.5196 -1.5203 0
M  V30 19 H -0.4337 -1.3248 -2.1283 0
M  V30 20 H 1.0051 -2.4401 1.3292 0
M  V30 21 H 1.6286 -1.4278 2.6347 0
M  V30 22 H -0.1127 -1.5538 2.3875 0
M  V30 23 H -1.8451 1.6899 0.7871 0
M  V30 24 H -1.4439 0.645 2.1653 0
M  V30 25 H -3.0572 0.5889 1.4533 0
M  V30 END ATOM
M  V30 BEGIN BOND
M  V30 1 2 1 2
M  V30 2 1 2 3
M  V30 3 1 2 4
M  V30 4 1 3 5
M  V30 5 1 5 6
M  V30 6 1 5 7
M  V30 7 1 5 8
M  V30 8 1 6 9
M  V30 9 1 7 10
M  V30 10 1 4 11
M  V30 11 1 4 12
M  V30 12 1 6 13
M  V30 13 1 6 14
M  V30 14 1 7 15
M  V30 15 1 7 16
M  V30 16 1 8 17
M  V30 17 1 8 18
M  V30 18 1 8 19
M  V30 19 1 9 20
M  V30 20 1 9 21
M  V30 21 1 9 22
M  V30 22 1 10 23
M  V30 23 1 10 24
M  V30 24 1 10 25
M  V30 END BOND
M  V30 END CTAB
M  END
>  <Column 1>
1293

>  <level_0>
1438

>  <index>
1438

>  <Unnamed: 0>
1438

>  <NO.>
1450

>  <Name>
emylcamate

>  <IUPAC_name>
3-methylpentan-3-yl carbamate

>  <SMILES>
CCC(C)(CC)OC(N)=O

>  <CID>
6526

>  <logBB>


>  <BBB+/BBB->
BBB+

>  <Inchi>
InChI=1S/C7H15NO2/c1-4-7(3-5-2)10-6(8)9/h4-5H2-1-3H3-(H2-8-9)

>  <threshold>
-1

>  <reference>
R1|R13|R19|R6|R24|R27|R27|R30|R30|

>  <group>
B

>  <Class>
1

>  <ABC>
6.74

>  <ABCGG>
7.32

>  <nAcid>
0

>  <nBase>
0

>  <nAromAtom>
0

>  <nAromBond>
0

>  <nAtom>
25

>  <nHeavyAtom>
10

>  <nSpiro>
0

>  <nBridgehead>
0

>  <nHetero>
3

>  <nN>
1

>  <nO>
2

>  <nF>
0

>  <BalabanJ>
3.8

>  <BertzCT>
118.77

>  <nBonds>
24

>  <nBondsO>
9

>  <nBondsS>
23

>  <nBondsD>
1

>  <nBondsT>
0

>  <nBondsA>
0

>  <nBondsM>
1

>  <nBondsKS>
23

>  <nBondsKD>
1

>  <RNCG>
0.37

>  <RPCG>
0.34

>  <FCSP3>
0.86

>  <SZ>
13.33

>  <Sm>
12.09

>  <Sv>
13.25

>  <Sse>
24.98

>  <Sp>
14.61

>  <Si>
28.82

>  <MZ>
0.53

>  <Mm>
0.48

>  <Mv>
0.53

>  <Mse>
1

>  <Mp>
0.58

>  <Mi>
1.15

>  <NsCH3>
3

>  <NdCH2>
0

>  <NssCH2>
2

>  <NtCH>
0

>  <NdsCH>
0

>  <NaaCH>
0

>  <NsssCH>
0

>  <NddC>
0

>  <NtsC>
0

>  <NdssC>
1

>  <NaasC>
0

>  <NaaaC>
0

>  <NssssC>
1

>  <NsNH3>
0

>  <NsNH2>
1

>  <NssNH2>
0

>  <NdNH>
0

>  <NssNH>
0

>  <NaaNH>
0

>  <NtN>
0

>  <NsssNH>
0

>  <NdsN>
0

>  <NaaN>
0

>  <NsssN>
0

>  <NddsN>
0

>  <NaasN>
0

>  <NssssN>
0

>  <NsOH>
0

>  <NdO>
1

>  <NssO>
1

>  <NaaO>
0

>  <NsF>
0

>  <NsSiH3>
0

>  <NssSiH2>
0

>  <NsssSiH>
0

>  <NssssSi>
0

>  <NsPH2>
0

>  <NssPH>
0

>  <NsssP>
0

>  <NdsssP>
0

>  <NsssssP>
0

>  <NsSH>
0

>  <NdS>
0

>  <NssS>
0

>  <NaaS>
0

>  <NdssS>
0

>  <NddssS>
0

>  <NsCl>
0

>  <NsBr>
0

>  <NsI>
0

>  <fragCpx>
9.03

>  <fMF>
0

>  <nHBAcc>
2

>  <nHBDon>
1

>  <Kier1>
10

>  <Kier2>
4

>  <Lipinski>
1

>  <GhoseFilter>
0

>  <FilterItLogS>
-1.21

>  <VMcGowan>
126.91

>  <LabuteASA>
61.54

>  <PEOE_VSA1>
10.47

>  <PEOE_VSA2>
0

>  <PEOE_VSA3>
4.79

>  <PEOE_VSA4>
0

>  <PEOE_VSA5>
0

>  <PEOE_VSA6>
13.85

>  <PEOE_VSA7>
19.77

>  <PEOE_VSA8>
0

>  <PEOE_VSA9>
0

>  <PEOE_VSA10>
5.6

>  <PEOE_VSA11>
0

>  <PEOE_VSA12>
0

>  <PEOE_VSA13>
0

>  <SMR_VSA1>
9.53

>  <SMR_VSA2>
0

>  <SMR_VSA3>
0

>  <SMR_VSA4>
5.73

>  <SMR_VSA5>
39.21

>  <SMR_VSA6>
0

>  <SMR_VSA7>
0

>  <SMR_VSA8>
0

>  <SMR_VSA9>
0

>  <SlogP_VSA1>
5.73

>  <SlogP_VSA2>
11.69

>  <SlogP_VSA3>
4.74

>  <SlogP_VSA4>
0

>  <SlogP_VSA5>
33.61

>  <SlogP_VSA6>
0

>  <SlogP_VSA7>
0

>  <SlogP_VSA8>
0

>  <SlogP_VSA9>
0

>  <SlogP_VSA10>
4.79

>  <SlogP_VSA11>
0

>  <EState_VSA1>
6.09

>  <EState_VSA2>
5.6

>  <EState_VSA3>
0

>  <EState_VSA4>
12.84

>  <EState_VSA5>
0

>  <EState_VSA6>
0

>  <EState_VSA7>
20.77

>  <EState_VSA8>
0

>  <EState_VSA9>
10.47

>  <EState_VSA10>
4.79

>  <VSA_EState1>
4.88

>  <VSA_EState2>
10.33

>  <VSA_EState3>
0

>  <VSA_EState4>
4.5

>  <VSA_EState5>
0

>  <VSA_EState6>
0

>  <VSA_EState7>
0.91

>  <VSA_EState8>
5.8

>  <VSA_EState9>
0

>  <apol>
24.4

>  <bpol>
17.08

>  <nRing>
0

>  <nHRing>
0

>  <naRing>
0

>  <naHRing>
0

>  <nARing 2>
0

>  <nAHRing 2>
0

>  <nFRing>
0

>  <nFHRing>
0

>  <nFaRing>
0

>  <nFaHRing>
0

>  <nFARing 2>
0

>  <nFAHRing 2>
0

>  <nRot>
3

>  <SLogP>
1.66

>  <SMR>
39.66

>  <TopoPSA(NO)>
52.32

>  <TopoPSA>
52.32

>  <JGI1>
0.44

>  <JGI2>
0.11

>  <JGI3>
0.08

>  <JGI4>
0.04

>  <JGI5>
0

>  <Diameter>
5

>  <Radius>
3

>  <TMWC10>
81.27

>  <TSRW10>
38.8

>  <MW>
145.11

>  <AMW>
5.8

>  <WPath>
122

>  <WPol>
11

>  <Zagreb1>
42

>  <Zagreb2>
44

>  <mZagreb2>
2.46

>  <yes>


>  <nAR-cont>
0.336376

>  <nHA-cont>
0.645914733

>  <MWHBN>
0.249041993

>  <MWHBN-cont>
0.961373057

>  <TPSA-cont>
0.634773911

>  <pka_cont>
0.97

>  <yes.1>


>  <BBB_SCORE>
4.178898142

>  <MMFF94 Energy>
-59.739

$$$$
Compound 1088
Actelion Java MolfileCreator 2.0

  0  0  0  0  0  0              0 V3000
M  V30 BEGIN CTAB
M  V30 COUNTS 70 76 0 0 0
M  V30 BEGIN ATOM
M  V30 1 O -0.5658 2.6696 1.2937 0
M  V30 2 C -0.9086 1.763 2.2665 0
M  V30 3 C -0.2492 1.8911 0.0862 0
M  V30 4 C -1.0982 2.0315 3.6109 0
M  V30 5 C -0.9349 0.4698 1.7972 0
M  V30 6 C 1.2739 1.8707 -0.3259 0
M  V30 7 C -0.7038 0.4331 0.3285 0
M  V30 8 O -1.083 3.3449 3.9827 0
M  V30 9 C -1.257 0.9296 4.4687 0
M  V30 10 C -0.9514 -0.636 2.6304 0
M  V30 11 O 1.9291 3.1207 -0.5325 0
M  V30 12 C 2.0787 1.0695 0.6991 0
M  V30 13 C 1.4366 0.9961 -1.6598 0
M  V30 14 C 0.4277 -0.603 0.0834 0
M  V30 15 C -2.014 0.085 -0.4029 0
M  V30 16 C -1.2878 3.6271 5.3595 0
M  V30 17 C -1.1564 -0.3959 3.9874 0
M  V30 18 C -0.5679 -1.9844 2.0572 0
M  V30 19 C 1.6927 4.1294 0.437 0
M  V30 20 C 1.6854 -0.2034 0.8739 0
M  V30 21 C 0.9114 1.5975 -3.0089 0
M  V30 22 C 0.8716 -0.4607 -1.3968 0
M  V30 23 C -0.1792 -1.9807 0.5176 0
M  V30 24 C -2.4381 -1.3767 -0.2237 0
M  V30 25 O -0.5194 1.6741 -2.9541 0
M  V30 26 C 1.2449 0.6899 -4.2285 0
M  V30 27 C 1.4176 3.0202 -3.2871 0
M  V30 28 N -1.3128 -2.3094 -0.3897 0
M  V30 29 C 2.7244 0.4398 -4.4843 0
M  V30 30 C -1.7809 -3.6971 -0.3071 0
M  V30 31 C -0.7265 -4.6531 -0.7819 0
M  V30 32 C 0.1208 -5.4347 0.1928 0
M  V30 33 C -0.9355 -6.1378 -0.6103 0
M  V30 34 H -0.8255 2.3826 -0.7026 0
M  V30 35 H -1.4039 1.0638 5.5359 0
M  V30 36 H 2.9392 1.4959 1.1988 0
M  V30 37 H 2.5239 0.8951 -1.8021 0
M  V30 38 H -1.9052 0.2727 -1.4752 0
M  V30 39 H -2.8335 0.7349 -0.0679 0
M  V30 40 H -2.2696 3.2758 5.694 0
M  V30 41 H -1.2631 4.7139 5.4859 0
M  V30 42 H -0.486 3.203 5.9729 0
M  V30 43 H -1.1907 -1.2226 4.6931 0
M  V30 44 H 0.3186 -2.3272 2.608 0
M  V30 45 H -1.3592 -2.7082 2.2747 0
M  V30 46 H 1.8322 3.7586 1.4562 0
M  V30 47 H 0.6959 4.5581 0.3046 0
M  V30 48 H 2.4173 4.9314 0.2677 0
M  V30 49 H 2.1985 -0.8905 1.5357 0
M  V30 50 H 1.6573 -1.1925 -1.629 0
M  V30 51 H 0.0432 -0.6903 -2.0725 0
M  V30 52 H 0.6056 -2.7326 0.3747 0
M  V30 53 H -2.9259 -1.5107 0.7496 0
M  V30 54 H -3.2065 -1.5892 -0.9782 0
M  V30 55 H -0.8301 2.0746 -3.7853 0
M  V30 56 H 0.8091 1.1366 -5.133 0
M  V30 57 H 0.7324 -0.2748 -4.1354 0
M  V30 58 H 0.9184 3.7552 -2.6472 0
M  V30 59 H 1.1743 3.3269 -4.3117 0
M  V30 60 H 2.5012 3.1033 -3.1609 0
M  V30 61 H 2.8472 -0.1447 -5.4022 0
M  V30 62 H 3.2768 1.3748 -4.6122 0
M  V30 63 H 3.184 -0.1304 -3.6725 0
M  V30 64 H -2.6375 -3.8257 -0.9815 0
M  V30 65 H -2.1363 -3.9579 0.6959 0
M  V30 66 H -0.2772 -4.3324 -1.7164 0
M  V30 67 H -0.0522 -5.3045 1.2548 0
M  V30 68 H 1.1588 -5.6062 -0.0691 0
M  V30 69 H -1.8224 -6.4826 -0.0908 0
M  V30 70 H -0.6128 -6.7894 -1.4146 0
M  V30 END ATOM
M  V30 BEGIN BOND
M  V30 1 1 1 2
M  V30 2 1 1 3
M  V30 3 2 2 4
M  V30 4 1 2 5
M  V30 5 1 3 6
M  V30 6 1 3 7
M  V30 7 1 4 8
M  V30 8 1 4 9
M  V30 9 2 5 10
M  V30 10 1 6 11
M  V30 11 1 6 12
M  V30 12 1 6 13
M  V30 13 1 7 14
M  V30 14 1 7 15
M  V30 15 1 8 16
M  V30 16 2 9 17
M  V30 17 1 10 18
M  V30 18 1 11 19
M  V30 19 2 12 20
M  V30 20 1 13 21
M  V30 21 1 13 22
M  V30 22 1 14 23
M  V30 23 1 15 24
M  V30 24 1 21 25
M  V30 25 1 21 26
M  V30 26 1 21 27
M  V30 27 1 23 28
M  V30 28 1 26 29
M  V30 29 1 28 30
M  V30 30 1 30 31
M  V30 31 1 31 32
M  V30 32 1 31 33
M  V30 33 1 5 7
M  V30 34 1 10 17
M  V30 35 1 14 20
M  V30 36 1 14 22
M  V30 37 1 18 23
M  V30 38 1 24 28
M  V30 39 1 32 33
M  V30 40 1 3 34
M  V30 41 1 9 35
M  V30 42 1 12 36
M  V30 43 1 13 37
M  V30 44 1 15 38
M  V30 45 1 15 39
M  V30 46 1 16 40
M  V30 47 1 16 41
M  V30 48 1 16 42
M  V30 49 1 17 43
M  V30 50 1 18 44
M  V30 51 1 18 45
M  V30 52 1 19 46
M  V30 53 1 19 47
M  V30 54 1 19 48
M  V30 55 1 20 49
M  V30 56 1 22 50
M  V30 57 1 22 51
M  V30 58 1 23 52
M  V30 59 1 24 53
M  V30 60 1 24 54
M  V30 61 1 25 55
M  V30 62 1 26 56
M  V30 63 1 26 57
M  V30 64 1 27 58
M  V30 65 1 27 59
M  V30 66 1 27 60
M  V30 67 1 29 61
M  V30 68 1 29 62
M  V30 69 1 29 63
M  V30 70 1 30 64
M  V30 71 1 30 65
M  V30 72 1 31 66
M  V30 73 1 32 67
M  V30 74 1 32 68
M  V30 75 1 33 69
M  V30 76 1 33 70
M  V30 END BOND
M  V30 END CTAB
M  END
>  <Column 1>
1294

>  <level_0>
1439

>  <index>
1439

>  <Unnamed: 0>
1439

>  <NO.>
1451

>  <Name>
homprenorphine

>  <IUPAC_name>
2-[5-(cyclopropylmethyl)-11-15-dimethoxy-13-oxa-5-azahexacyclo[13.2.2.12-8.01-6.02-14.012-20]icosa-8(20)-9-11-18-tetraen-16-yl]butan-2-ol

>  <SMILES>
CCC(C)(O)C1CC23C=CC1(OC)C1Oc4c(OC)ccc5c4C12CCN(CC1CC1)C3C5

>  <CID>
3084250

>  <logBB>


>  <BBB+/BBB->
BBB+

>  <Inchi>
InChI=1S/C28H37NO4/c1-5-25(2-30)20-15-26-10-11-28(20-32-4)24-27(26)12-13-29(16-17-6-7-17)21(26)14-18-8-9-19(31-3)23(33-24)22(18)27/h8-11-17-20-21-24-30H-5-7-12-16H2-1-4H3

>  <threshold>
-1

>  <reference>
R1|R19|R6|R27|R27|R30|

>  <group>
B

>  <Class>
1

>  <ABC>
27.27

>  <ABCGG>
20.39

>  <nAcid>
0

>  <nBase>
1

>  <nAromAtom>
6

>  <nAromBond>
6

>  <nAtom>
70

>  <nHeavyAtom>
33

>  <nSpiro>
2

>  <nBridgehead>
4

>  <nHetero>
5

>  <nN>
1

>  <nO>
4

>  <nF>
0

>  <BalabanJ>
1.41

>  <BertzCT>
1046.58

>  <nBonds>
76

>  <nBondsO>
39

>  <nBondsS>
69

>  <nBondsD>
1

>  <nBondsT>
0

>  <nBondsA>
6

>  <nBondsM>
7

>  <nBondsKS>
72

>  <nBondsKD>
4

>  <RNCG>
0.19

>  <RPCG>
0.08

>  <FCSP3>
0.71

>  <SZ>
40.67

>  <Sm>
37.6

>  <Sv>
41.64

>  <Sse>
69.41

>  <Sp>
45.35

>  <Si>
78.81

>  <MZ>
0.58

>  <Mm>
0.54

>  <Mv>
0.59

>  <Mse>
0.99

>  <Mp>
0.65

>  <Mi>
1.13

>  <NsCH3>
4

>  <NdCH2>
0

>  <NssCH2>
8

>  <NtCH>
0

>  <NdsCH>
2

>  <NaaCH>
2

>  <NsssCH>
4

>  <NddC>
0

>  <NtsC>
0

>  <NdssC>
0

>  <NaasC>
4

>  <NaaaC>
0

>  <NssssC>
4

>  <NsNH3>
0

>  <NsNH2>
0

>  <NssNH2>
0

>  <NdNH>
0

>  <NssNH>
0

>  <NaaNH>
0

>  <NtN>
0

>  <NsssNH>
0

>  <NdsN>
0

>  <NaaN>
0

>  <NsssN>
1

>  <NddsN>
0

>  <NaasN>
0

>  <NssssN>
0

>  <NsOH>
1

>  <NdO>
0

>  <NssO>
3

>  <NaaO>
0

>  <NsF>
0

>  <NsSiH3>
0

>  <NssSiH2>
0

>  <NsssSiH>
0

>  <NssssSi>
0

>  <NsPH2>
0

>  <NssPH>
0

>  <NsssP>
0

>  <NdsssP>
0

>  <NsssssP>
0

>  <NsSH>
0

>  <NdS>
0

>  <NssS>
0

>  <NaaS>
0

>  <NdssS>
0

>  <NddssS>
0

>  <NsCl>
0

>  <NsBr>
0

>  <NsI>
0

>  <fragCpx>
465.05

>  <fMF>
0.34

>  <nHBAcc>
5

>  <nHBDon>
1

>  <Kier1>
22.22

>  <Kier2>
7.06

>  <Lipinski>
1

>  <GhoseFilter>
1

>  <FilterItLogS>
-5.08

>  <VMcGowan>
345.62

>  <LabuteASA>
196.63

>  <PEOE_VSA1>
19.32

>  <PEOE_VSA2>
4.9

>  <PEOE_VSA3>
0

>  <PEOE_VSA4>
0

>  <PEOE_VSA5>
0

>  <PEOE_VSA6>
25.14

>  <PEOE_VSA7>
69.54

>  <PEOE_VSA8>
36.59

>  <PEOE_VSA9>
18.13

>  <PEOE_VSA10>
11.71

>  <PEOE_VSA11>
11.5

>  <PEOE_VSA12>
0

>  <PEOE_VSA13>
0

>  <SMR_VSA1>
19.32

>  <SMR_VSA2>
0

>  <SMR_VSA3>
4.9

>  <SMR_VSA4>
17.25

>  <SMR_VSA5>
81.14

>  <SMR_VSA6>
27.31

>  <SMR_VSA7>
35.41

>  <SMR_VSA8>
0

>  <SMR_VSA9>
11.5

>  <SlogP_VSA1>
9.47

>  <SlogP_VSA2>
60.66

>  <SlogP_VSA3>
16.57

>  <SlogP_VSA4>
17.25

>  <SlogP_VSA5>
57.08

>  <SlogP_VSA6>
24.28

>  <SlogP_VSA7>
0

>  <SlogP_VSA8>
0

>  <SlogP_VSA9>
0

>  <SlogP_VSA10>
0

>  <SlogP_VSA11>
11.5

>  <EState_VSA1>
11.2

>  <EState_VSA2>
22.85

>  <EState_VSA3>
12.46

>  <EState_VSA4>
43.22

>  <EState_VSA5>
30.51

>  <EState_VSA6>
7.11

>  <EState_VSA7>
14.03

>  <EState_VSA8>
36.11

>  <EState_VSA9>
14.21

>  <EState_VSA10>
5.11

>  <VSA_EState1>
19.27

>  <VSA_EState2>
2.8

>  <VSA_EState3>
11.7

>  <VSA_EState4>
1.15

>  <VSA_EState5>
2.6

>  <VSA_EState6>
4.82

>  <VSA_EState7>
11.18

>  <VSA_EState8>
6.42

>  <VSA_EState9>
3.55

>  <apol>
75.74

>  <bpol>
44.04

>  <nRing>
8

>  <nHRing>
2

>  <naRing>
1

>  <naHRing>
0

>  <nARing 2>
7

>  <nAHRing 2>
2

>  <nFRing>
1

>  <nFHRing>
1

>  <nFaRing>
0

>  <nFaHRing>
0

>  <nFARing 2>
1

>  <nFAHRing 2>
1

>  <nRot>
6

>  <SLogP>
3.86

>  <SMR>
125.83

>  <TopoPSA(NO)>
51.16

>  <TopoPSA>
51.16

>  <JGI1>
0.26

>  <JGI2>
0.12

>  <JGI3>
0.05

>  <JGI4>
0.05

>  <JGI5>
0.04

>  <Diameter>
11

>  <Radius>
6

>  <TMWC10>
156.52

>  <TSRW10>
91.15

>  <MW>
451.27

>  <AMW>
6.45

>  <WPath>
2443

>  <WPol>
82

>  <Zagreb1>
210

>  <Zagreb2>
280

>  <mZagreb2>
6.92

>  <yes>


>  <nAR-cont>
0

>  <nHA-cont>
0.61399562

>  <MWHBN>
0.282444433

>  <MWHBN-cont>
0.889818917

>  <TPSA-cont>
0.642871432

>  <pka_cont>
0.97

>  <yes.1>


>  <BBB_SCORE>
3.719466859

>  <MMFF94 Energy>
185.69

$$$$
Compound 1089
Actelion Java MolfileCreator 2.0

  0  0  0  0  0  0              0 V3000
M  V30 BEGIN CTAB
M  V30 COUNTS 32 31 0 0 0
M  V30 BEGIN ATOM
M  V30 1 S -0.896 1.385 -0.733 0
M  V30 2 O -2.3418 1.506 -0.6106 0
M  V30 3 O -0.0829 2.5642 -0.4977 0
M  V30 4 C -0.3753 0.0725 0.4266 0
M  V30 5 C -0.5801 0.8304 -2.4083 0
M  V30 6 S 1.174 -0.6522 -0.1937 0
M  V30 7 C -0.1392 0.6813 1.8365 0
M  V30 8 C -1.4575 -1.0227 0.4786 0
M  V30 9 C -1.1524 1.8 -3.4271 0
M  V30 10 O 0.8374 -1.5503 -1.2847 0
M  V30 11 O 2.1454 0.4012 -0.4054 0
M  V30 12 C 1.8136 -1.678 1.1279 0
M  V30 13 C -1.3252 1.3971 2.4758 0
M  V30 14 C 3.0304 -2.4664 0.6792 0
M  V30 15 H -1.0459 -0.1504 -2.5295 0
M  V30 16 H 0.4992 0.7584 -2.5526 0
M  V30 17 H 0.1555 -0.1133 2.5309 0
M  V30 18 H 0.7037 1.3825 1.8017 0
M  V30 19 H -1.1751 -1.833 1.1576 0
M  V30 20 H -1.6307 -1.4658 -0.5076 0
M  V30 21 H -2.4225 -0.6351 0.8192 0
M  V30 22 H -0.9358 1.4548 -4.4425 0
M  V30 23 H -2.2384 1.8893 -3.3232 0
M  V30 24 H -0.7214 2.7989 -3.3058 0
M  V30 25 H 1.0226 -2.3615 1.4436 0
M  V30 26 H 2.0902 -1.0249 1.9591 0
M  V30 27 H -1.0484 1.7411 3.4783 0
M  V30 28 H -1.6283 2.279 1.9059 0
M  V30 29 H -2.1887 0.736 2.586 0
M  V30 30 H 3.4165 -3.0711 1.5054 0
M  V30 31 H 2.7832 -3.1391 -0.1479 0
M  V30 32 H 3.8297 -1.7994 0.3408 0
M  V30 END ATOM
M  V30 BEGIN BOND
M  V30 1 2 1 2
M  V30 2 2 1 3
M  V30 3 1 1 4
M  V30 4 1 1 5
M  V30 5 1 4 6
M  V30 6 1 4 7
M  V30 7 1 4 8
M  V30 8 1 5 9
M  V30 9 2 6 10
M  V30 10 2 6 11
M  V30 11 1 6 12
M  V30 12 1 7 13
M  V30 13 1 12 14
M  V30 14 1 5 15
M  V30 15 1 5 16
M  V30 16 1 7 17
M  V30 17 1 7 18
M  V30 18 1 8 19
M  V30 19 1 8 20
M  V30 20 1 8 21
M  V30 21 1 9 22
M  V30 22 1 9 23
M  V30 23 1 9 24
M  V30 24 1 12 25
M  V30 25 1 12 26
M  V30 26 1 13 27
M  V30 27 1 13 28
M  V30 28 1 13 29
M  V30 29 1 14 30
M  V30 30 1 14 31
M  V30 31 1 14 32
M  V30 END BOND
M  V30 END CTAB
M  END
>  <Column 1>
1295

>  <level_0>
1440

>  <index>
1440

>  <Unnamed: 0>
1440

>  <NO.>
1452

>  <Name>
sulfonethylmethane

>  <IUPAC_name>
2-2-bis(ethylsulfonyl)butane

>  <SMILES>
CCC(C)(S(=O)(=O)CC)S(=O)(=O)CC

>  <CID>
6433

>  <logBB>


>  <BBB+/BBB->
BBB+

>  <Inchi>
InChI=1S/C8H18O4S2/c1-5-8(4-13(9-10)6-2)14(11-12)7-3/h5-7H2-1-4H3

>  <threshold>
-1

>  <reference>
R1|R13|R19|R6|R24|R27|R27|R27|R30|R30|

>  <group>
B

>  <Class>
1

>  <ABC>
9.8

>  <ABCGG>
10.84

>  <nAcid>
0

>  <nBase>
0

>  <nAromAtom>
0

>  <nAromBond>
0

>  <nAtom>
32

>  <nHeavyAtom>
14

>  <nSpiro>
0

>  <nBridgehead>
0

>  <nHetero>
6

>  <nN>
0

>  <nO>
4

>  <nF>
0

>  <BalabanJ>
5.18

>  <BertzCT>
343.56

>  <nBonds>
31

>  <nBondsO>
13

>  <nBondsS>
27

>  <nBondsD>
4

>  <nBondsT>
0

>  <nBondsA>
0

>  <nBondsM>
4

>  <nBondsKS>
27

>  <nBondsKD>
4

>  <RNCG>
0.2

>  <RPCG>
0.15

>  <FCSP3>
1

>  <SZ>
21.67

>  <Sm>
20.18

>  <Sv>
18.11

>  <Sse>
32.47

>  <Sp>
20.58

>  <Si>
36.42

>  <MZ>
0.68

>  <Mm>
0.63

>  <Mv>
0.57

>  <Mse>
1.01

>  <Mp>
0.64

>  <Mi>
1.14

>  <NsCH3>
4

>  <NdCH2>
0

>  <NssCH2>
3

>  <NtCH>
0

>  <NdsCH>
0

>  <NaaCH>
0

>  <NsssCH>
0

>  <NddC>
0

>  <NtsC>
0

>  <NdssC>
0

>  <NaasC>
0

>  <NaaaC>
0

>  <NssssC>
1

>  <NsNH3>
0

>  <NsNH2>
0

>  <NssNH2>
0

>  <NdNH>
0

>  <NssNH>
0

>  <NaaNH>
0

>  <NtN>
0

>  <NsssNH>
0

>  <NdsN>
0

>  <NaaN>
0

>  <NsssN>
0

>  <NddsN>
0

>  <NaasN>
0

>  <NssssN>
0

>  <NsOH>
0

>  <NdO>
4

>  <NssO>
0

>  <NaaO>
0

>  <NsF>
0

>  <NsSiH3>
0

>  <NssSiH2>
0

>  <NsssSiH>
0

>  <NssssSi>
0

>  <NsPH2>
0

>  <NssPH>
0

>  <NsssP>
0

>  <NdsssP>
0

>  <NsssssP>
0

>  <NsSH>
0

>  <NdS>
0

>  <NssS>
0

>  <NaaS>
0

>  <NdssS>
0

>  <NddssS>
2

>  <NsCl>
0

>  <NsBr>
0

>  <NsI>
0

>  <fragCpx>
13.06

>  <fMF>
0

>  <nHBAcc>
4

>  <nHBDon>
0

>  <Kier1>
14

>  <Kier2>
4.24

>  <Lipinski>
1

>  <GhoseFilter>
1

>  <FilterItLogS>
-2.55

>  <VMcGowan>
179.76

>  <LabuteASA>
86.54

>  <PEOE_VSA1>
0

>  <PEOE_VSA2>
0

>  <PEOE_VSA3>
16.84

>  <PEOE_VSA4>
0

>  <PEOE_VSA5>
0

>  <PEOE_VSA6>
20.77

>  <PEOE_VSA7>
13.34

>  <PEOE_VSA8>
11.51

>  <PEOE_VSA9>
0

>  <PEOE_VSA10>
0

>  <PEOE_VSA11>
23.75

>  <PEOE_VSA12>
0

>  <PEOE_VSA13>
0

>  <SMR_VSA1>
16.84

>  <SMR_VSA2>
0

>  <SMR_VSA3>
0

>  <SMR_VSA4>
0

>  <SMR_VSA5>
38.19

>  <SMR_VSA6>
11.51

>  <SMR_VSA7>
0

>  <SMR_VSA8>
0

>  <SMR_VSA9>
0

>  <SlogP_VSA1>
0

>  <SlogP_VSA2>
32.42

>  <SlogP_VSA3>
19.67

>  <SlogP_VSA4>
0

>  <SlogP_VSA5>
34.12

>  <SlogP_VSA6>
0

>  <SlogP_VSA7>
0

>  <SlogP_VSA8>
0

>  <SlogP_VSA9>
0

>  <SlogP_VSA10>
0

>  <SlogP_VSA11>
0

>  <EState_VSA1>
23.75

>  <EState_VSA2>
17.93

>  <EState_VSA3>
0

>  <EState_VSA4>
0

>  <EState_VSA5>
20.77

>  <EState_VSA6>
6.92

>  <EState_VSA7>
0

>  <EState_VSA8>
0

>  <EState_VSA9>
0

>  <EState_VSA10>
16.84

>  <VSA_EState1>
45.09

>  <VSA_EState2>
0

>  <VSA_EState3>
0

>  <VSA_EState4>
0

>  <VSA_EState5>
-0.28

>  <VSA_EState6>
0

>  <VSA_EState7>
0.1

>  <VSA_EState8>
5.81

>  <VSA_EState9>
-7.14

>  <apol>
34.37

>  <bpol>
31.37

>  <nRing>
0

>  <nHRing>
0

>  <naRing>
0

>  <naHRing>
0

>  <nARing 2>
0

>  <nAHRing 2>
0

>  <nFRing>
0

>  <nFHRing>
0

>  <nFaRing>
0

>  <nFaHRing>
0

>  <nFARing 2>
0

>  <nFAHRing 2>
0

>  <nRot>
5

>  <SLogP>
0.98

>  <SMR>
57.62

>  <TopoPSA(NO)>
68.28

>  <TopoPSA>
85.04

>  <JGI1>
0.46

>  <JGI2>
0.21

>  <JGI3>
0.08

>  <JGI4>
0.03

>  <JGI5>
0.01

>  <Diameter>
6

>  <Radius>
3

>  <TMWC10>
97.77

>  <TSRW10>
46.42

>  <MW>
242.06

>  <AMW>
7.56

>  <WPath>
266

>  <WPol>
27

>  <Zagreb1>
68

>  <Zagreb2>
82

>  <mZagreb2>
3.25

>  <yes>


>  <nAR-cont>
0.336376

>  <nHA-cont>
0.887625254

>  <MWHBN>
0.257097869

>  <MWHBN-cont>
0.947058652

>  <TPSA-cont>
0.406367993

>  <pka_cont>
0.97

>  <yes.1>


>  <BBB_SCORE>
3.942325219

>  <MMFF94 Energy>
-51.909

$$$$
Compound 1090
Actelion Java MolfileCreator 2.0

  0  0  0  0  0  0              0 V3000
M  V30 BEGIN CTAB
M  V30 COUNTS 45 44 0 0 0
M  V30 BEGIN ATOM
M  V30 1 O 1.0032 -1.621 -2.1619 0
M  V30 2 C 1.1309 -0.4523 -1.8327 0
M  V30 3 O 0.4194 0.1735 -0.8645 0
M  V30 4 N 2.005 0.4359 -2.3786 0
M  V30 5 C -0.5402 -0.6626 -0.1999 0
M  V30 6 C 2.8907 0.1055 -3.4784 0
M  V30 7 C -1.269 0.1438 0.9135 0
M  V30 8 C 2.1856 0.3265 -4.8139 0
M  V30 9 C 4.1672 0.9353 -3.3934 0
M  V30 10 C -0.2403 0.8647 1.8791 0
M  V30 11 C -2.1988 -0.8255 1.6881 0
M  V30 12 C -2.1406 1.2098 0.199 0
M  V30 13 C 0.7942 -0.107 2.5028 0
M  V30 14 C -0.928 1.6857 2.9851 0
M  V30 15 O -3.1145 -1.4639 0.783 0
M  V30 16 C 1.8911 0.5867 3.3035 0
M  V30 17 C -3.9769 -2.3183 1.3768 0
M  V30 18 O -4.0407 -2.5718 2.5681 0
M  V30 19 N -4.7839 -2.8743 0.4479 0
M  V30 20 H 1.9527 1.3798 -2.0222 0
M  V30 21 H -0.0332 -1.5372 0.2248 0
M  V30 22 H -1.2596 -1.0249 -0.9456 0
M  V30 23 H 3.1558 -0.9553 -3.3973 0
M  V30 24 H 1.879 1.3718 -4.9322 0
M  V30 25 H 1.2837 -0.2907 -4.887 0
M  V30 26 H 2.8419 0.0655 -5.6503 0
M  V30 27 H 4.8586 0.6739 -4.2009 0
M  V30 28 H 3.9508 2.0073 -3.462 0
M  V30 29 H 4.6782 0.7628 -2.4399 0
M  V30 30 H 0.3246 1.5851 1.2711 0
M  V30 31 H -1.6094 -1.602 2.1887 0
M  V30 32 H -2.7799 -0.2796 2.4402 0
M  V30 33 H -2.7364 0.7668 -0.6073 0
M  V30 34 H -2.8481 1.685 0.8856 0
M  V30 35 H -1.5217 1.9961 -0.2468 0
M  V30 36 H 1.2941 -0.6775 1.7142 0
M  V30 37 H 0.2939 -0.8316 3.1545 0
M  V30 38 H -1.4023 1.04 3.7307 0
M  V30 39 H -0.2049 2.3194 3.5088 0
M  V30 40 H -1.6855 2.3637 2.5846 0
M  V30 41 H 1.5006 1.0314 4.2232 0
M  V30 42 H 2.3749 1.3702 2.7121 0
M  V30 43 H 2.6573 -0.1397 3.5935 0
M  V30 44 H -5.4819 -3.5408 0.7404 0
M  V30 45 H -4.6776 -2.6299 -0.5238 0
M  V30 END ATOM
M  V30 BEGIN BOND
M  V30 1 2 1 2
M  V30 2 1 2 3
M  V30 3 1 2 4
M  V30 4 1 3 5
M  V30 5 1 4 6
M  V30 6 1 5 7
M  V30 7 1 6 8
M  V30 8 1 6 9
M  V30 9 1 7 10
M  V30 10 1 7 11
M  V30 11 1 7 12
M  V30 12 1 10 13
M  V30 13 1 10 14
M  V30 14 1 11 15
M  V30 15 1 13 16
M  V30 16 1 15 17
M  V30 17 2 17 18
M  V30 18 1 17 19
M  V30 19 1 4 20
M  V30 20 1 5 21
M  V30 21 1 5 22
M  V30 22 1 6 23
M  V30 23 1 8 24
M  V30 24 1 8 25
M  V30 25 1 8 26
M  V30 26 1 9 27
M  V30 27 1 9 28
M  V30 28 1 9 29
M  V30 29 1 10 30
M  V30 30 1 11 31
M  V30 31 1 11 32
M  V30 32 1 12 33
M  V30 33 1 12 34
M  V30 34 1 12 35
M  V30 35 1 13 36
M  V30 36 1 13 37
M  V30 37 1 14 38
M  V30 38 1 14 39
M  V30 39 1 14 40
M  V30 40 1 16 41
M  V30 41 1 16 42
M  V30 42 1 16 43
M  V30 43 1 19 44
M  V30 44 1 19 45
M  V30 END BOND
M  V30 END CTAB
M  END
>  <Column 1>
1296

>  <level_0>
1441

>  <index>
1441

>  <Unnamed: 0>
1441

>  <NO.>
1453

>  <Name>
nisobamate

>  <IUPAC_name>
[2-(carbamoyloxymethyl)-2-3-dimethylpentyl] n-propan-2-ylcarbamate

>  <SMILES>
CCC(C)C(C)(COC(N)=O)COC(=O)NC(C)C

>  <CID>
31767

>  <logBB>


>  <BBB+/BBB->
BBB+

>  <Inchi>
InChI=1S/C13H26N2O4/c1-6-10(4)13(5-7-18-11(14)16)8-19-12(17)15-9(2)3/h9-10H-6-8H2-1-5H3-(H2-14-16)(H-15-17)

>  <threshold>
-1

>  <reference>
R1|R19|R6|R27|R27|R30|

>  <group>
B

>  <Class>
1

>  <ABC>
13.48

>  <ABCGG>
13.12

>  <nAcid>
0

>  <nBase>
0

>  <nAromAtom>
0

>  <nAromBond>
0

>  <nAtom>
45

>  <nHeavyAtom>
19

>  <nSpiro>
0

>  <nBridgehead>
0

>  <nHetero>
6

>  <nN>
2

>  <nO>
4

>  <nF>
0

>  <BalabanJ>
4.41

>  <BertzCT>
307.02

>  <nBonds>
44

>  <nBondsO>
18

>  <nBondsS>
42

>  <nBondsD>
2

>  <nBondsT>
0

>  <nBondsA>
0

>  <nBondsM>
2

>  <nBondsKS>
42

>  <nBondsKD>
2

>  <RNCG>
0.19

>  <RPCG>
0.17

>  <FCSP3>
0.85

>  <SZ>
25

>  <Sm>
22.84

>  <Sv>
24.42

>  <Sse>
45.19

>  <Sp>
26.62

>  <Si>
51.82

>  <MZ>
0.56

>  <Mm>
0.51

>  <Mv>
0.54

>  <Mse>
1

>  <Mp>
0.59

>  <Mi>
1.15

>  <NsCH3>
5

>  <NdCH2>
0

>  <NssCH2>
3

>  <NtCH>
0

>  <NdsCH>
0

>  <NaaCH>
0

>  <NsssCH>
2

>  <NddC>
0

>  <NtsC>
0

>  <NdssC>
2

>  <NaasC>
0

>  <NaaaC>
0

>  <NssssC>
1

>  <NsNH3>
0

>  <NsNH2>
1

>  <NssNH2>
0

>  <NdNH>
0

>  <NssNH>
1

>  <NaaNH>
0

>  <NtN>
0

>  <NsssNH>
0

>  <NdsN>
0

>  <NaaN>
0

>  <NsssN>
0

>  <NddsN>
0

>  <NaasN>
0

>  <NssssN>
0

>  <NsOH>
0

>  <NdO>
2

>  <NssO>
2

>  <NaaO>
0

>  <NsF>
0

>  <NsSiH3>
0

>  <NssSiH2>
0

>  <NsssSiH>
0

>  <NssssSi>
0

>  <NsPH2>
0

>  <NssPH>
0

>  <NsssP>
0

>  <NdsssP>
0

>  <NsssssP>
0

>  <NsSH>
0

>  <NdS>
0

>  <NssS>
0

>  <NaaS>
0

>  <NdssS>
0

>  <NddssS>
0

>  <NsCl>
0

>  <NsBr>
0

>  <NsI>
0

>  <fragCpx>
18.06

>  <fMF>
0

>  <nHBAcc>
4

>  <nHBDon>
2

>  <Kier1>
19

>  <Kier2>
9.03

>  <Lipinski>
1

>  <GhoseFilter>
1

>  <FilterItLogS>
-2.25

>  <VMcGowan>
228.87

>  <LabuteASA>
114.56

>  <PEOE_VSA1>
20.52

>  <PEOE_VSA2>
0

>  <PEOE_VSA3>
9.59

>  <PEOE_VSA4>
0

>  <PEOE_VSA5>
0

>  <PEOE_VSA6>
27.19

>  <PEOE_VSA7>
19.77

>  <PEOE_VSA8>
11.46

>  <PEOE_VSA9>
0

>  <PEOE_VSA10>
13.21

>  <PEOE_VSA11>
0

>  <PEOE_VSA12>
0

>  <PEOE_VSA13>
0

>  <SMR_VSA1>
19.06

>  <SMR_VSA2>
0

>  <SMR_VSA3>
5.32

>  <SMR_VSA4>
17.07

>  <SMR_VSA5>
47.08

>  <SMR_VSA6>
13.21

>  <SMR_VSA7>
0

>  <SMR_VSA8>
0

>  <SMR_VSA9>
0

>  <SlogP_VSA1>
11.05

>  <SlogP_VSA2>
31.44

>  <SlogP_VSA3>
9.47

>  <SlogP_VSA4>
11.33

>  <SlogP_VSA5>
41.04

>  <SlogP_VSA6>
0

>  <SlogP_VSA7>
0

>  <SlogP_VSA8>
0

>  <SlogP_VSA9>
0

>  <SlogP_VSA10>
9.59

>  <SlogP_VSA11>
0

>  <EState_VSA1>
17.6

>  <EState_VSA2>
25.17

>  <EState_VSA3>
0

>  <EState_VSA4>
6.42

>  <EState_VSA5>
0

>  <EState_VSA6>
0

>  <EState_VSA7>
34.62

>  <EState_VSA8>
5.32

>  <EState_VSA9>
15.21

>  <EState_VSA10>
9.59

>  <VSA_EState1>
10.06

>  <VSA_EState2>
22.2

>  <VSA_EState3>
2.64

>  <VSA_EState4>
4.54

>  <VSA_EState5>
0.22

>  <VSA_EState6>
0.02

>  <VSA_EState7>
-0.4

>  <VSA_EState8>
9.97

>  <VSA_EState9>
0

>  <apol>
44.45

>  <bpol>
31.29

>  <nRing>
0

>  <nHRing>
0

>  <naRing>
0

>  <naHRing>
0

>  <nARing 2>
0

>  <nAHRing 2>
0

>  <nFRing>
0

>  <nFHRing>
0

>  <nFaRing>
0

>  <nFaHRing>
0

>  <nFARing 2>
0

>  <nFAHRing 2>
0

>  <nRot>
7

>  <SLogP>
2.27

>  <SMR>
72.72

>  <TopoPSA(NO)>
90.65

>  <TopoPSA>
90.65

>  <JGI1>
0.36

>  <JGI2>
0.12

>  <JGI3>
0.06

>  <JGI4>
0.04

>  <JGI5>
0.03

>  <Diameter>
10

>  <Radius>
5

>  <TMWC10>
106.17

>  <TSRW10>
51.15

>  <MW>
274.19

>  <AMW>
6.09

>  <WPath>
774

>  <WPol>
24

>  <Zagreb1>
84

>  <Zagreb2>
90

>  <mZagreb2>
4.42

>  <yes>


>  <nAR-cont>
0.336376

>  <nHA-cont>
0.998649058

>  <MWHBN>
0.362347646

>  <MWHBN-cont>
0.623426575

>  <TPSA-cont>
0.36720671

>  <pka_cont>
0.97

>  <yes.1>


>  <BBB_SCORE>
3.48957834

>  <MMFF94 Energy>
-116.37

$$$$
Compound 1091
Actelion Java MolfileCreator 2.0

  0  0  0  0  0  0              0 V3000
M  V30 BEGIN CTAB
M  V30 COUNTS 36 35 0 0 0
M  V30 BEGIN ATOM
M  V30 1 O 2.0817 -3.4714 0.6935 0
M  V30 2 C 2.1483 -2.4792 1.3997 0
M  V30 3 O 1.5368 -1.2943 1.1829 0
M  V30 4 N 2.8672 -2.4205 2.5415 0
M  V30 5 C 0.737 -1.2502 -0.0091 0
M  V30 6 C 0.038 0.134 -0.1716 0
M  V30 7 C -1.1835 0.3012 0.8299 0 CFG=2
M  V30 8 C -0.5035 0.2006 -1.6328 0
M  V30 9 C 1.0887 1.2495 0.0259 0
M  V30 10 C -1.7936 1.7288 0.8099 0
M  V30 11 C -0.8634 -0.0979 2.2804 0
M  V30 12 O 0.5674 0.0416 -2.5778 0
M  V30 13 C -3.1738 1.8182 1.4534 0
M  V30 14 C 0.1761 0.0694 -3.871 0
M  V30 15 O -0.9627 0.2209 -4.2802 0
M  V30 16 N 1.2459 -0.1002 -4.6772 0
M  V30 17 H 3.3821 -3.2347 2.8391 0
M  V30 18 H 2.8816 -1.5708 3.083 0
M  V30 19 H -0.0188 -2.0454 0.0239 0
M  V30 20 H 1.4053 -1.4465 -0.8559 0
M  V30 21 H -1.9658 -0.3923 0.4894 0
M  V30 22 H -1.2395 -0.5978 -1.7916 0
M  V30 23 H -0.9816 1.1648 -1.831 0
M  V30 24 H 0.6964 2.2281 -0.2703 0
M  V30 25 H 1.4137 1.3239 1.0683 0
M  V30 26 H 1.9821 1.0648 -0.5814 0
M  V30 27 H -1.1238 2.4323 1.3188 0
M  V30 28 H -1.9024 2.0865 -0.2172 0
M  V30 29 H -0.0347 0.4878 2.6887 0
M  V30 30 H -0.6161 -1.1604 2.3554 0
M  V30 31 H -1.7249 0.0459 2.9388 0
M  V30 32 H -3.1334 1.6538 2.5333 0
M  V30 33 H -3.8608 1.0886 1.0138 0
M  V30 34 H -3.5949 2.8164 1.293 0
M  V30 35 H 1.1107 -0.107 -5.6765 0
M  V30 36 H 2.1624 -0.2282 -4.2784 0
M  V30 END ATOM
M  V30 BEGIN BOND
M  V30 1 2 1 2
M  V30 2 1 2 3
M  V30 3 1 2 4
M  V30 4 1 3 5
M  V30 5 1 5 6
M  V30 6 1 6 7
M  V30 7 1 6 8
M  V30 8 1 6 9
M  V30 9 1 7 10
M  V30 10 1 7 11
M  V30 11 1 8 12
M  V30 12 1 10 13
M  V30 13 1 12 14
M  V30 14 2 14 15
M  V30 15 1 14 16
M  V30 16 1 4 17
M  V30 17 1 4 18
M  V30 18 1 5 19
M  V30 19 1 5 20
M  V30 20 1 7 21
M  V30 21 1 8 22
M  V30 22 1 8 23
M  V30 23 1 9 24
M  V30 24 1 9 25
M  V30 25 1 9 26
M  V30 26 1 10 27
M  V30 27 1 10 28
M  V30 28 1 11 29
M  V30 29 1 11 30
M  V30 30 1 11 31
M  V30 31 1 13 32
M  V30 32 1 13 33
M  V30 33 1 13 34
M  V30 34 1 16 35
M  V30 35 1 16 36
M  V30 END BOND
M  V30 BEGIN COLLECTION
M  V30 MDLV30/STERAC1 ATOMS=(1 7)
M  V30 END COLLECTION
M  V30 END CTAB
M  END
>  <Column 1>
1297

>  <level_0>
1442

>  <index>
1442

>  <Unnamed: 0>
1442

>  <NO.>
1454

>  <Name>
mebutamate

>  <IUPAC_name>
[2-(carbamoyloxymethyl)-2-3-dimethylpentyl] carbamate

>  <SMILES>
CCC(C)C(C)(COC(N)=O)COC(N)=O

>  <CID>
6151

>  <logBB>


>  <BBB+/BBB->
BBB+

>  <Inchi>
InChI=1S/C10H20N2O4/c1-4-7(2)10(3-5-15-8(11)13)6-16-9(12)14/h7H-4-6H2-1-3H3-(H2-11-13)(H2-12-14)

>  <threshold>
-1

>  <reference>
R1|R19|R6|R27|R27|R30|

>  <group>
B

>  <Class>
1

>  <ABC>
11.25

>  <ABCGG>
11.3

>  <nAcid>
0

>  <nBase>
0

>  <nAromAtom>
0

>  <nAromBond>
0

>  <nAtom>
36

>  <nHeavyAtom>
16

>  <nSpiro>
0

>  <nBridgehead>
0

>  <nHetero>
6

>  <nN>
2

>  <nO>
4

>  <nF>
0

>  <BalabanJ>
4.35

>  <BertzCT>
237.2

>  <nBonds>
35

>  <nBondsO>
15

>  <nBondsS>
33

>  <nBondsD>
2

>  <nBondsT>
0

>  <nBondsA>
0

>  <nBondsM>
2

>  <nBondsKS>
33

>  <nBondsKD>
2

>  <RNCG>
0.2

>  <RPCG>
0.18

>  <FCSP3>
0.8

>  <SZ>
21

>  <Sm>
19.34

>  <Sv>
19.79

>  <Sse>
36.53

>  <Sp>
21.22

>  <Si>
41.57

>  <MZ>
0.58

>  <Mm>
0.54

>  <Mv>
0.55

>  <Mse>
1.01

>  <Mp>
0.59

>  <Mi>
1.15

>  <NsCH3>
3

>  <NdCH2>
0

>  <NssCH2>
3

>  <NtCH>
0

>  <NdsCH>
0

>  <NaaCH>
0

>  <NsssCH>
1

>  <NddC>
0

>  <NtsC>
0

>  <NdssC>
2

>  <NaasC>
0

>  <NaaaC>
0

>  <NssssC>
1

>  <NsNH3>
0

>  <NsNH2>
2

>  <NssNH2>
0

>  <NdNH>
0

>  <NssNH>
0

>  <NaaNH>
0

>  <NtN>
0

>  <NsssNH>
0

>  <NdsN>
0

>  <NaaN>
0

>  <NsssN>
0

>  <NddsN>
0

>  <NaasN>
0

>  <NssssN>
0

>  <NsOH>
0

>  <NdO>
2

>  <NssO>
2

>  <NaaO>
0

>  <NsF>
0

>  <NsSiH3>
0

>  <NssSiH2>
0

>  <NsssSiH>
0

>  <NssssSi>
0

>  <NsPH2>
0

>  <NssPH>
0

>  <NsssP>
0

>  <NdsssP>
0

>  <NsssssP>
0

>  <NsSH>
0

>  <NdS>
0

>  <NssS>
0

>  <NaaS>
0

>  <NdssS>
0

>  <NddssS>
0

>  <NsCl>
0

>  <NsBr>
0

>  <NsI>
0

>  <fragCpx>
15.06

>  <fMF>
0

>  <nHBAcc>
4

>  <nHBDon>
2

>  <Kier1>
16

>  <Kier2>
7.35

>  <Lipinski>
1

>  <GhoseFilter>
1

>  <FilterItLogS>
-1.02

>  <VMcGowan>
186.6

>  <LabuteASA>
95.25

>  <PEOE_VSA1>
20.94

>  <PEOE_VSA2>
0

>  <PEOE_VSA3>
9.59

>  <PEOE_VSA4>
0

>  <PEOE_VSA5>
0

>  <PEOE_VSA6>
27.19

>  <PEOE_VSA7>
5.92

>  <PEOE_VSA8>
5.41

>  <PEOE_VSA9>
0

>  <PEOE_VSA10>
13.21

>  <PEOE_VSA11>
0

>  <PEOE_VSA12>
0

>  <PEOE_VSA13>
0

>  <SMR_VSA1>
19.06

>  <SMR_VSA2>
0

>  <SMR_VSA3>
0

>  <SMR_VSA4>
22.8

>  <SMR_VSA5>
27.19

>  <SMR_VSA6>
13.21

>  <SMR_VSA7>
0

>  <SMR_VSA8>
0

>  <SMR_VSA9>
0

>  <SlogP_VSA1>
11.47

>  <SlogP_VSA2>
25.4

>  <SlogP_VSA3>
9.47

>  <SlogP_VSA4>
11.33

>  <SlogP_VSA5>
27.19

>  <SlogP_VSA6>
0

>  <SlogP_VSA7>
0

>  <SlogP_VSA8>
0

>  <SlogP_VSA9>
0

>  <SlogP_VSA10>
9.59

>  <SlogP_VSA11>
0

>  <EState_VSA1>
17.6

>  <EState_VSA2>
19.13

>  <EState_VSA3>
0

>  <EState_VSA4>
6.42

>  <EState_VSA5>
0

>  <EState_VSA6>
0

>  <EState_VSA7>
20.77

>  <EState_VSA8>
0

>  <EState_VSA9>
20.94

>  <EState_VSA10>
9.59

>  <VSA_EState1>
9.54

>  <VSA_EState2>
21.13

>  <VSA_EState3>
0

>  <VSA_EState4>
9.33

>  <VSA_EState5>
0.2

>  <VSA_EState6>
0

>  <VSA_EState7>
-0.82

>  <VSA_EState8>
6.04

>  <VSA_EState9>
0

>  <apol>
35.44

>  <bpol>
24.13

>  <nRing>
0

>  <nHRing>
0

>  <naRing>
0

>  <naHRing>
0

>  <nARing 2>
0

>  <nAHRing 2>
0

>  <nFRing>
0

>  <nFHRing>
0

>  <nFaRing>
0

>  <nFaHRing>
0

>  <nFARing 2>
0

>  <nFAHRing 2>
0

>  <nRot>
6

>  <SLogP>
1.23

>  <SMR>
58.63

>  <TopoPSA(NO)>
104.64

>  <TopoPSA>
104.64

>  <JGI1>
0.37

>  <JGI2>
0.13

>  <JGI3>
0.05

>  <JGI4>
0.05

>  <JGI5>
0.03

>  <Diameter>
8

>  <Radius>
4

>  <TMWC10>
98.63

>  <TSRW10>
47.31

>  <MW>
232.14

>  <AMW>
6.45

>  <WPath>
465

>  <WPol>
20

>  <Zagreb1>
70

>  <Zagreb2>
75

>  <mZagreb2>
3.75

>  <yes>


>  <nAR-cont>
0.336376

>  <nHA-cont>
0.954961865

>  <MWHBN>
0.393800497

>  <MWHBN-cont>
0.500483318

>  <TPSA-cont>
0.269547822

>  <pka_cont>
0.97

>  <yes.1>


>  <BBB_SCORE>
3.066158488

>  <MMFF94 Energy>
-122.1

$$$$
Compound 1092
Actelion Java MolfileCreator 2.0

  0  0  0  0  0  0              0 V3000
M  V30 BEGIN CTAB
M  V30 COUNTS 31 30 0 0 0
M  V30 BEGIN ATOM
M  V30 1 O 1.6871 1.3034 3.9145 0
M  V30 2 C 1.0789 0.3853 3.3755 0
M  V30 3 N 0.9811 0.3082 2.0156 0
M  V30 4 N 0.4801 -0.5875 4.0894 0
M  V30 5 C 0.3427 -0.6536 1.2471 0
M  V30 6 O -0.2627 -1.6146 1.7166 0
M  V30 7 C 0.447 -0.3837 -0.2604 0
M  V30 8 C -0.5337 0.7656 -0.6485 0
M  V30 9 C 0.2438 -1.675 -1.0767 0
M  V30 10 C -0.1426 1.3831 -2.0093 0
M  V30 11 C -2.0005 0.3155 -0.6352 0
M  V30 12 C 1.4035 -2.6523 -0.9143 0
M  V30 13 C -0.9026 2.6621 -2.3368 0
M  V30 14 H 1.4534 1.0703 1.5527 0
M  V30 15 H -0.0188 -1.3375 3.6187 0
M  V30 16 H 0.5271 -0.5697 5.0971 0
M  V30 17 H 1.4712 -0.0284 -0.4432 0
M  V30 18 H -0.4398 1.5601 0.1041 0
M  V30 19 H 0.1561 -1.4385 -2.1423 0
M  V30 20 H -0.6835 -2.1814 -0.7846 0
M  V30 21 H -0.3034 0.664 -2.82 0
M  V30 22 H 0.9283 1.6202 -2.0023 0
M  V30 23 H -2.2215 -0.3654 -1.4633 0
M  V30 24 H -2.2529 -0.1912 0.3015 0
M  V30 25 H -2.6742 1.174 -0.7225 0
M  V30 26 H 1.5118 -2.982 0.123 0
M  V30 27 H 2.3467 -2.1955 -1.2306 0
M  V30 28 H 1.2349 -3.5402 -1.532 0
M  V30 29 H -0.7968 3.3995 -1.5349 0
M  V30 30 H -1.9676 2.4685 -2.4936 0
M  V30 31 H -0.5096 3.1055 -3.2575 0
M  V30 END ATOM
M  V30 BEGIN BOND
M  V30 1 2 1 2
M  V30 2 1 2 3
M  V30 3 1 2 4
M  V30 4 1 3 5
M  V30 5 2 5 6
M  V30 6 1 5 7
M  V30 7 1 7 8
M  V30 8 1 7 9
M  V30 9 1 8 10
M  V30 10 1 8 11
M  V30 11 1 9 12
M  V30 12 1 10 13
M  V30 13 1 3 14
M  V30 14 1 4 15
M  V30 15 1 4 16
M  V30 16 1 7 17
M  V30 17 1 8 18
M  V30 18 1 9 19
M  V30 19 1 9 20
M  V30 20 1 10 21
M  V30 21 1 10 22
M  V30 22 1 11 23
M  V30 23 1 11 24
M  V30 24 1 11 25
M  V30 25 1 12 26
M  V30 26 1 12 27
M  V30 27 1 12 28
M  V30 28 1 13 29
M  V30 29 1 13 30
M  V30 30 1 13 31
M  V30 END BOND
M  V30 END CTAB
M  END
>  <Column 1>
1298

>  <level_0>
1443

>  <index>
1443

>  <Unnamed: 0>
1443

>  <NO.>
1455

>  <Name>
capuride

>  <IUPAC_name>
n-carbamoyl-2-ethyl-3-methylpentanamide

>  <SMILES>
CCC(C)C(CC)C(=O)NC(N)=O

>  <CID>
231285

>  <logBB>


>  <BBB+/BBB->
BBB+

>  <Inchi>
InChI=1S/C9H18N2O2/c1-4-6(3)7(5-2)8(12)11-9(10)13/h6-7H-4-5H2-1-3H3-(H3-10-11-12-13)

>  <threshold>
-1

>  <reference>
R1|R19|R6|R27|R27|R30|

>  <group>
B

>  <Class>
1

>  <ABC>
8.84

>  <ABCGG>
9.38

>  <nAcid>
0

>  <nBase>
0

>  <nAromAtom>
0

>  <nAromBond>
0

>  <nAtom>
31

>  <nHeavyAtom>
13

>  <nSpiro>
0

>  <nBridgehead>
0

>  <nHetero>
4

>  <nN>
2

>  <nO>
2

>  <nF>
0

>  <BalabanJ>
4.06

>  <BertzCT>
192.05

>  <nBonds>
30

>  <nBondsO>
12

>  <nBondsS>
28

>  <nBondsD>
2

>  <nBondsT>
0

>  <nBondsA>
0

>  <nBondsM>
2

>  <nBondsKS>
28

>  <nBondsKD>
2

>  <RNCG>
0.24

>  <RPCG>
0.22

>  <FCSP3>
0.78

>  <SZ>
17

>  <Sm>
15.51

>  <Sv>
16.82

>  <Sse>
30.98

>  <Sp>
18.46

>  <Si>
35.74

>  <MZ>
0.55

>  <Mm>
0.5

>  <Mv>
0.54

>  <Mse>
1

>  <Mp>
0.6

>  <Mi>
1.15

>  <NsCH3>
3

>  <NdCH2>
0

>  <NssCH2>
2

>  <NtCH>
0

>  <NdsCH>
0

>  <NaaCH>
0

>  <NsssCH>
2

>  <NddC>
0

>  <NtsC>
0

>  <NdssC>
2

>  <NaasC>
0

>  <NaaaC>
0

>  <NssssC>
0

>  <NsNH3>
0

>  <NsNH2>
1

>  <NssNH2>
0

>  <NdNH>
0

>  <NssNH>
1

>  <NaaNH>
0

>  <NtN>
0

>  <NsssNH>
0

>  <NdsN>
0

>  <NaaN>
0

>  <NsssN>
0

>  <NddsN>
0

>  <NaasN>
0

>  <NssssN>
0

>  <NsOH>
0

>  <NdO>
2

>  <NssO>
0

>  <NaaO>
0

>  <NsF>
0

>  <NsSiH3>
0

>  <NssSiH2>
0

>  <NsssSiH>
0

>  <NssssSi>
0

>  <NsPH2>
0

>  <NssPH>
0

>  <NsssP>
0

>  <NdsssP>
0

>  <NsssssP>
0

>  <NsSH>
0

>  <NdS>
0

>  <NssS>
0

>  <NaaS>
0

>  <NdssS>
0

>  <NddssS>
0

>  <NsCl>
0

>  <NsBr>
0

>  <NsI>
0

>  <fragCpx>
12.04

>  <fMF>
0

>  <nHBAcc>
2

>  <nHBDon>
2

>  <Kier1>
13

>  <Kier2>
6.45

>  <Lipinski>
1

>  <GhoseFilter>
1

>  <FilterItLogS>
-1.54

>  <VMcGowan>
160.77

>  <LabuteASA>
78.87

>  <PEOE_VSA1>
5.73

>  <PEOE_VSA2>
10.11

>  <PEOE_VSA3>
4.79

>  <PEOE_VSA4>
0

>  <PEOE_VSA5>
0

>  <PEOE_VSA6>
27.19

>  <PEOE_VSA7>
12.34

>  <PEOE_VSA8>
5.92

>  <PEOE_VSA9>
0

>  <PEOE_VSA10>
0

>  <PEOE_VSA11>
0

>  <PEOE_VSA12>
5.91

>  <PEOE_VSA13>
0

>  <SMR_VSA1>
9.59

>  <SMR_VSA2>
0

>  <SMR_VSA3>
5.32

>  <SMR_VSA4>
17.57

>  <SMR_VSA5>
33.61

>  <SMR_VSA6>
0

>  <SMR_VSA7>
0

>  <SMR_VSA8>
0

>  <SMR_VSA9>
0

>  <SlogP_VSA1>
11.05

>  <SlogP_VSA2>
11.94

>  <SlogP_VSA3>
4.79

>  <SlogP_VSA4>
11.84

>  <SlogP_VSA5>
33.61

>  <SlogP_VSA6>
0

>  <SlogP_VSA7>
0

>  <SlogP_VSA8>
0

>  <SlogP_VSA9>
0

>  <SlogP_VSA10>
4.79

>  <SlogP_VSA11>
0

>  <EState_VSA1>
6.03

>  <EState_VSA2>
17.74

>  <EState_VSA3>
0

>  <EState_VSA4>
12.84

>  <EState_VSA5>
0

>  <EState_VSA6>
0

>  <EState_VSA7>
20.77

>  <EState_VSA8>
5.32

>  <EState_VSA9>
5.73

>  <EState_VSA10>
9.59

>  <VSA_EState1>
0

>  <VSA_EState2>
21.8

>  <VSA_EState3>
2.11

>  <VSA_EState4>
4.86

>  <VSA_EState5>
-0.09

>  <VSA_EState6>
-0.77

>  <VSA_EState7>
1.65

>  <VSA_EState8>
5.94

>  <VSA_EState9>
0

>  <apol>
30.84

>  <bpol>
19.79

>  <nRing>
0

>  <nHRing>
0

>  <naRing>
0

>  <naHRing>
0

>  <nARing 2>
0

>  <nAHRing 2>
0

>  <nFRing>
0

>  <nFHRing>
0

>  <nFaRing>
0

>  <nFaHRing>
0

>  <nFARing 2>
0

>  <nFAHRing 2>
0

>  <nRot>
4

>  <SLogP>
1.25

>  <SMR>
50.96

>  <TopoPSA(NO)>
72.19

>  <TopoPSA>
72.19

>  <JGI1>
0.29

>  <JGI2>
0.12

>  <JGI3>
0.08

>  <JGI4>
0.03

>  <JGI5>
0.03

>  <Diameter>
7

>  <Radius>
4

>  <TMWC10>
89.63

>  <TSRW10>
42.77

>  <MW>
186.14

>  <AMW>
6

>  <WPath>
260

>  <WPol>
16

>  <Zagreb1>
54

>  <Zagreb2>
58

>  <mZagreb2>
3.22

>  <yes>


>  <nAR-cont>
0.336376

>  <nHA-cont>
0.841215992

>  <MWHBN>
0.293183913

>  <MWHBN-cont>
0.860613745

>  <TPSA-cont>
0.496068973

>  <pka_cont>
0.97

>  <yes.1>


>  <BBB_SCORE>
3.945650556

>  <MMFF94 Energy>
-100.98

$$$$
Compound 1093
Actelion Java MolfileCreator 2.0

  0  0  0  0  0  0              0 V3000
M  V30 BEGIN CTAB
M  V30 COUNTS 27 26 0 0 0
M  V30 BEGIN ATOM
M  V30 1 O -1.7599 1.9131 -0.6118 0
M  V30 2 C -1.5381 0.779 -1.0185 0
M  V30 3 N -2.1357 0.3207 -2.1568 0
M  V30 4 C -0.6443 -0.2395 -0.309 0
M  V30 5 C 0.4909 0.476 0.4863 0
M  V30 6 C -1.571 -1.1213 0.5602 0
M  V30 7 C 1.4335 1.2263 -0.4899 0
M  V30 8 C 1.2987 -0.4997 1.3527 0
M  V30 9 C -1.2364 -2.604 0.4542 0
M  V30 10 C 2.4569 2.1183 0.2013 0
M  V30 11 H -1.9986 -0.6115 -2.5191 0
M  V30 12 H -2.7475 0.9552 -2.6531 0
M  V30 13 H -0.1781 -0.8597 -1.0872 0
M  V30 14 H 0.0351 1.2163 1.1576 0
M  V30 15 H -1.5341 -0.8069 1.6095 0
M  V30 16 H -2.6197 -1.0056 0.2575 0
M  V30 17 H 1.9596 0.5052 -1.1276 0
M  V30 18 H 0.8486 1.8646 -1.161 0
M  V30 19 H 0.6694 -0.9995 2.0943 0
M  V30 20 H 2.0776 0.0182 1.9199 0
M  V30 21 H 1.7814 -1.266 0.7375 0
M  V30 22 H -1.3564 -2.9561 -0.5753 0
M  V30 23 H -0.2115 -2.8148 0.7696 0
M  V30 24 H -1.9106 -3.1876 1.0892 0
M  V30 25 H 3.2005 1.5335 0.7496 0
M  V30 26 H 1.9706 2.8082 0.8981 0
M  V30 27 H 2.9957 2.7138 -0.5428 0
M  V30 END ATOM
M  V30 BEGIN BOND
M  V30 1 2 1 2
M  V30 2 1 2 3
M  V30 3 1 2 4
M  V30 4 1 4 5
M  V30 5 1 4 6
M  V30 6 1 5 7
M  V30 7 1 5 8
M  V30 8 1 6 9
M  V30 9 1 7 10
M  V30 10 1 3 11
M  V30 11 1 3 12
M  V30 12 1 4 13
M  V30 13 1 5 14
M  V30 14 1 6 15
M  V30 15 1 6 16
M  V30 16 1 7 17
M  V30 17 1 7 18
M  V30 18 1 8 19
M  V30 19 1 8 20
M  V30 20 1 8 21
M  V30 21 1 9 22
M  V30 22 1 9 23
M  V30 23 1 9 24
M  V30 24 1 10 25
M  V30 25 1 10 26
M  V30 26 1 10 27
M  V30 END BOND
M  V30 END CTAB
M  END
>  <Column 1>
1299

>  <level_0>
1444

>  <index>
1444

>  <Unnamed: 0>
1444

>  <NO.>
1456

>  <Name>
valnoctamide

>  <IUPAC_name>
2-ethyl-3-methylpentanamide

>  <SMILES>
CCC(C)C(CC)C(N)=O

>  <CID>
20140

>  <logBB>


>  <BBB+/BBB->
BBB+

>  <Inchi>
InChI=1S/C8H17NO/c1-4-6(3)7(5-2)8(9)10/h6-7H-4-5H2-1-3H3-(H2-9-10)

>  <threshold>
-1

>  <reference>
R1|R19|R6|R27|R27|R30|

>  <group>
B

>  <Class>
-1

>  <ABC>
6.61

>  <ABCGG>
7.32

>  <nAcid>
0

>  <nBase>
0

>  <nAromAtom>
0

>  <nAromBond>
0

>  <nAtom>
27

>  <nHeavyAtom>
10

>  <nSpiro>
0

>  <nBridgehead>
0

>  <nHetero>
2

>  <nN>
1

>  <nO>
1

>  <nF>
0

>  <BalabanJ>
3.8

>  <BertzCT>
111.83

>  <nBonds>
26

>  <nBondsO>
9

>  <nBondsS>
25

>  <nBondsD>
1

>  <nBondsT>
0

>  <nBondsA>
0

>  <nBondsM>
1

>  <nBondsKS>
25

>  <nBondsKD>
1

>  <RNCG>
0.38

>  <RPCG>
0.23

>  <FCSP3>
0.88

>  <SZ>
13.33

>  <Sm>
11.92

>  <Sv>
14.08

>  <Sse>
26.54

>  <Sp>
15.93

>  <Si>
31.03

>  <MZ>
0.49

>  <Mm>
0.44

>  <Mv>
0.52

>  <Mse>
0.98

>  <Mp>
0.59

>  <Mi>
1.15

>  <NsCH3>
3

>  <NdCH2>
0

>  <NssCH2>
2

>  <NtCH>
0

>  <NdsCH>
0

>  <NaaCH>
0

>  <NsssCH>
2

>  <NddC>
0

>  <NtsC>
0

>  <NdssC>
1

>  <NaasC>
0

>  <NaaaC>
0

>  <NssssC>
0

>  <NsNH3>
0

>  <NsNH2>
1

>  <NssNH2>
0

>  <NdNH>
0

>  <NssNH>
0

>  <NaaNH>
0

>  <NtN>
0

>  <NsssNH>
0

>  <NdsN>
0

>  <NaaN>
0

>  <NsssN>
0

>  <NddsN>
0

>  <NaasN>
0

>  <NssssN>
0

>  <NsOH>
0

>  <NdO>
1

>  <NssO>
0

>  <NaaO>
0

>  <NsF>
0

>  <NsSiH3>
0

>  <NssSiH2>
0

>  <NsssSiH>
0

>  <NssssSi>
0

>  <NsPH2>
0

>  <NssPH>
0

>  <NsssP>
0

>  <NdsssP>
0

>  <NsssssP>
0

>  <NsSH>
0

>  <NdS>
0

>  <NssS>
0

>  <NaaS>
0

>  <NdssS>
0

>  <NddssS>
0

>  <NsCl>
0

>  <NsBr>
0

>  <NsI>
0

>  <fragCpx>
9.02

>  <fMF>
0

>  <nHBAcc>
1

>  <nHBDon>
1

>  <Kier1>
10

>  <Kier2>
4.76

>  <Lipinski>
1

>  <GhoseFilter>
0

>  <FilterItLogS>
-1.51

>  <VMcGowan>
135.13

>  <LabuteASA>
62.8

>  <PEOE_VSA1>
5.73

>  <PEOE_VSA2>
4.79

>  <PEOE_VSA3>
0

>  <PEOE_VSA4>
0

>  <PEOE_VSA5>
0

>  <PEOE_VSA6>
27.19

>  <PEOE_VSA7>
12.34

>  <PEOE_VSA8>
5.92

>  <PEOE_VSA9>
0

>  <PEOE_VSA10>
0

>  <PEOE_VSA11>
0

>  <PEOE_VSA12>
5.91

>  <PEOE_VSA13>
0

>  <SMR_VSA1>
4.79

>  <SMR_VSA2>
0

>  <SMR_VSA3>
0

>  <SMR_VSA4>
17.57

>  <SMR_VSA5>
33.61

>  <SMR_VSA6>
0

>  <SMR_VSA7>
0

>  <SMR_VSA8>
0

>  <SMR_VSA9>
0

>  <SlogP_VSA1>
5.73

>  <SlogP_VSA2>
5.91

>  <SlogP_VSA3>
4.79

>  <SlogP_VSA4>
11.84

>  <SlogP_VSA5>
33.61

>  <SlogP_VSA6>
0

>  <SlogP_VSA7>
0

>  <SlogP_VSA8>
0

>  <SlogP_VSA9>
0

>  <SlogP_VSA10>
0

>  <SlogP_VSA11>
0

>  <EState_VSA1>
0

>  <EState_VSA2>
11.83

>  <EState_VSA3>
5.92

>  <EState_VSA4>
12.84

>  <EState_VSA5>
0

>  <EState_VSA6>
0

>  <EState_VSA7>
6.92

>  <EState_VSA8>
13.85

>  <EState_VSA9>
5.73

>  <EState_VSA10>
4.79

>  <VSA_EState1>
0

>  <VSA_EState2>
10.75

>  <VSA_EState3>
0

>  <VSA_EState4>
5.18

>  <VSA_EState5>
0.35

>  <VSA_EState6>
0

>  <VSA_EState7>
1.89

>  <VSA_EState8>
6.15

>  <VSA_EState9>
0

>  <apol>
26.6

>  <bpol>
17.35

>  <nRing>
0

>  <nHRing>
0

>  <naRing>
0

>  <naHRing>
0

>  <nARing 2>
0

>  <nAHRing 2>
0

>  <nFRing>
0

>  <nFHRing>
0

>  <nFaRing>
0

>  <nFaHRing>
0

>  <nFARing 2>
0

>  <nFAHRing 2>
0

>  <nRot>
4

>  <SLogP>
1.54

>  <SMR>
42.43

>  <TopoPSA(NO)>
43.09

>  <TopoPSA>
43.09

>  <JGI1>
0.28

>  <JGI2>
0.14

>  <JGI3>
0.08

>  <JGI4>
0.02

>  <JGI5>
0

>  <Diameter>
5

>  <Radius>
3

>  <TMWC10>
80.5

>  <TSRW10>
38.31

>  <MW>
143.13

>  <AMW>
5.3

>  <WPath>
122

>  <WPol>
12

>  <Zagreb1>
40

>  <Zagreb2>
43

>  <mZagreb2>
2.56

>  <yes>


>  <nAR-cont>
0.336376

>  <nHA-cont>
0.645914733

>  <MWHBN>
0.167172432

>  <MWHBN-cont>
0.969346171

>  <TPSA-cont>
0.699205043

>  <pka_cont>
0.97

>  <yes.1>


>  <BBB_SCORE>
4.319720076

>  <MMFF94 Energy>
-15.462

$$$$
Compound 1094
Actelion Java MolfileCreator 2.0

  0  0  0  0  0  0              0 V3000
M  V30 BEGIN CTAB
M  V30 COUNTS 31 31 0 0 0
M  V30 BEGIN ATOM
M  V30 1 O 3.2124 -0.313 -2.5065 0
M  V30 2 C 2.3487 -0.0583 -1.6742 0
M  V30 3 N 2.4361 -0.508 -0.3977 0
M  V30 4 N 1.267 0.7005 -1.9806 0
M  V30 5 C 1.5379 -0.2944 0.6057 0
M  V30 6 C 0.2687 1.08 -1.1323 0
M  V30 7 O 1.7622 -0.751 1.7266 0
M  V30 8 C 0.2718 0.4876 0.2705 0
M  V30 9 O -0.5899 1.8673 -1.5277 0
M  V30 10 C -0.9387 -0.5203 0.4299 0 CFG=2
M  V30 11 C 0.1724 1.661 1.2899 0
M  V30 12 C -0.9109 -1.6436 -0.6413 0
M  V30 13 C -2.3197 0.1561 0.4628 0
M  V30 14 C 1.3823 2.5958 1.3034 0
M  V30 15 C -1.8945 -2.7769 -0.3739 0
M  V30 16 H 3.2561 -1.0505 -0.1646 0
M  V30 17 H 1.2274 1.0702 -2.9204 0
M  V30 18 H -0.8232 -1.0117 1.4071 0
M  V30 19 H -0.7034 2.2836 1.0722 0
M  V30 20 H 0.0338 1.2637 2.3035 0
M  V30 21 H -1.1196 -1.2277 -1.6339 0
M  V30 22 H 0.0881 -2.0896 -0.6871 0
M  V30 23 H -2.5685 0.6207 -0.4952 0
M  V30 24 H -3.1073 -0.5687 0.6909 0
M  V30 25 H -2.3827 0.9165 1.2456 0
M  V30 26 H 1.5538 3.0451 0.3208 0
M  V30 27 H 1.2127 3.4099 2.016 0
M  V30 28 H 2.2941 2.0758 1.6108 0
M  V30 29 H -2.9312 -2.4494 -0.4908 0
M  V30 30 H -1.7659 -3.1806 0.635 0
M  V30 31 H -1.7281 -3.5908 -1.0872 0
M  V30 END ATOM
M  V30 BEGIN BOND
M  V30 1 2 1 2
M  V30 2 1 2 3
M  V30 3 1 2 4
M  V30 4 1 3 5
M  V30 5 1 4 6
M  V30 6 2 5 7
M  V30 7 1 5 8
M  V30 8 2 6 9
M  V30 9 1 8 10
M  V30 10 1 8 11
M  V30 11 1 10 12
M  V30 12 1 10 13
M  V30 13 1 11 14
M  V30 14 1 12 15
M  V30 15 1 6 8
M  V30 16 1 3 16
M  V30 17 1 4 17
M  V30 18 1 10 18
M  V30 19 1 11 19
M  V30 20 1 11 20
M  V30 21 1 12 21
M  V30 22 1 12 22
M  V30 23 1 13 23
M  V30 24 1 13 24
M  V30 25 1 13 25
M  V30 26 1 14 26
M  V30 27 1 14 27
M  V30 28 1 14 28
M  V30 29 1 15 29
M  V30 30 1 15 30
M  V30 31 1 15 31
M  V30 END BOND
M  V30 BEGIN COLLECTION
M  V30 MDLV30/STERAC1 ATOMS=(1 10)
M  V30 END COLLECTION
M  V30 END CTAB
M  END
>  <Column 1>
1301

>  <level_0>
1446

>  <index>
1446

>  <Unnamed: 0>
1446

>  <NO.>
1458

>  <Name>
butobarbitone

>  <IUPAC_name>
5-butan-2-yl-5-ethyl-1-3-diazinane-2-4-6-trione

>  <SMILES>
CCC(C)C1(CC)C(=O)NC(=O)NC1=O

>  <CID>
2479

>  <logBB>


>  <BBB+/BBB->
BBB+

>  <Inchi>
InChI=1S/C10H16N2O3/c1-4-6(3)10(5-2)7(13)11-9(15)12-8(10)14/h6H-4-5H2-1-3H3-(H2-11-12-13-14-15)

>  <threshold>
-1

>  <reference>
R1|R13|R19|R6|R14|R27|R30|

>  <group>
B

>  <Class>
-1

>  <ABC>
10.86

>  <ABCGG>
10.87

>  <nAcid>
0

>  <nBase>
0

>  <nAromAtom>
0

>  <nAromBond>
0

>  <nAtom>
31

>  <nHeavyAtom>
15

>  <nSpiro>
0

>  <nBridgehead>
0

>  <nHetero>
5

>  <nN>
2

>  <nO>
3

>  <nF>
0

>  <BalabanJ>
2.94

>  <BertzCT>
291.79

>  <nBonds>
31

>  <nBondsO>
15

>  <nBondsS>
28

>  <nBondsD>
3

>  <nBondsT>
0

>  <nBondsA>
0

>  <nBondsM>
3

>  <nBondsKS>
28

>  <nBondsKD>
3

>  <RNCG>
0.17

>  <RPCG>
0.2

>  <FCSP3>
0.7

>  <SZ>
19

>  <Sm>
17.67

>  <Sv>
17.99

>  <Sse>
31.42

>  <Sp>
19.15

>  <Si>
35.53

>  <MZ>
0.61

>  <Mm>
0.57

>  <Mv>
0.58

>  <Mse>
1.01

>  <Mp>
0.62

>  <Mi>
1.15

>  <NsCH3>
3

>  <NdCH2>
0

>  <NssCH2>
2

>  <NtCH>
0

>  <NdsCH>
0

>  <NaaCH>
0

>  <NsssCH>
1

>  <NddC>
0

>  <NtsC>
0

>  <NdssC>
3

>  <NaasC>
0

>  <NaaaC>
0

>  <NssssC>
1

>  <NsNH3>
0

>  <NsNH2>
0

>  <NssNH2>
0

>  <NdNH>
0

>  <NssNH>
2

>  <NaaNH>
0

>  <NtN>
0

>  <NsssNH>
0

>  <NdsN>
0

>  <NaaN>
0

>  <NsssN>
0

>  <NddsN>
0

>  <NaasN>
0

>  <NssssN>
0

>  <NsOH>
0

>  <NdO>
3

>  <NssO>
0

>  <NaaO>
0

>  <NsF>
0

>  <NsSiH3>
0

>  <NssSiH2>
0

>  <NsssSiH>
0

>  <NssssSi>
0

>  <NsPH2>
0

>  <NssPH>
0

>  <NsssP>
0

>  <NdsssP>
0

>  <NsssssP>
0

>  <NsSH>
0

>  <NdS>
0

>  <NssS>
0

>  <NaaS>
0

>  <NdssS>
0

>  <NddssS>
0

>  <NsCl>
0

>  <NsBr>
0

>  <NsI>
0

>  <fragCpx>
15.05

>  <fMF>
0.19

>  <nHBAcc>
3

>  <nHBDon>
2

>  <Kier1>
13.07

>  <Kier2>
4.89

>  <Lipinski>
1

>  <GhoseFilter>
1

>  <FilterItLogS>
-2.77

>  <VMcGowan>
165.57

>  <LabuteASA>
88.6

>  <PEOE_VSA1>
0

>  <PEOE_VSA2>
20.22

>  <PEOE_VSA3>
4.79

>  <PEOE_VSA4>
0

>  <PEOE_VSA5>
0

>  <PEOE_VSA6>
27.19

>  <PEOE_VSA7>
12.34

>  <PEOE_VSA8>
0

>  <PEOE_VSA9>
0

>  <PEOE_VSA10>
5.41

>  <PEOE_VSA11>
0

>  <PEOE_VSA12>
11.81

>  <PEOE_VSA13>
0

>  <SMR_VSA1>
14.38

>  <SMR_VSA2>
0

>  <SMR_VSA3>
10.63

>  <SMR_VSA4>
11.33

>  <SMR_VSA5>
33.61

>  <SMR_VSA6>
0

>  <SMR_VSA7>
0

>  <SMR_VSA8>
0

>  <SMR_VSA9>
0

>  <SlogP_VSA1>
10.63

>  <SlogP_VSA2>
17.85

>  <SlogP_VSA3>
9.59

>  <SlogP_VSA4>
11.33

>  <SlogP_VSA5>
33.61

>  <SlogP_VSA6>
0

>  <SlogP_VSA7>
0

>  <SlogP_VSA8>
0

>  <SlogP_VSA9>
0

>  <SlogP_VSA10>
4.79

>  <SlogP_VSA11>
0

>  <EState_VSA1>
23.26

>  <EState_VSA2>
5.92

>  <EState_VSA3>
12.84

>  <EState_VSA4>
0

>  <EState_VSA5>
0

>  <EState_VSA6>
6.92

>  <EState_VSA7>
13.85

>  <EState_VSA8>
10.63

>  <EState_VSA9>
0

>  <EState_VSA10>
14.38

>  <VSA_EState1>
0

>  <VSA_EState2>
34.49

>  <VSA_EState3>
4.31

>  <VSA_EState4>
-1.09

>  <VSA_EState5>
-1.04

>  <VSA_EState6>
-0.72

>  <VSA_EState7>
1.11

>  <VSA_EState8>
5.54

>  <VSA_EState9>
0

>  <apol>
31.97

>  <bpol>
19.8

>  <nRing>
1

>  <nHRing>
1

>  <naRing>
0

>  <naHRing>
0

>  <nARing 2>
1

>  <nAHRing 2>
1

>  <nFRing>
0

>  <nFHRing>
0

>  <nFaRing>
0

>  <nFaHRing>
0

>  <nFARing 2>
0

>  <nFAHRing 2>
0

>  <nRot>
3

>  <SLogP>
0.79

>  <SMR>
53.86

>  <TopoPSA(NO)>
75.27

>  <TopoPSA>
75.27

>  <JGI1>
0.33

>  <JGI2>
0.14

>  <JGI3>
0.09

>  <JGI4>
0.04

>  <JGI5>
0.04

>  <Diameter>
7

>  <Radius>
4

>  <TMWC10>
101.39

>  <TSRW10>
47.56

>  <MW>
212.12

>  <AMW>
6.84

>  <WPath>
324

>  <WPol>
28

>  <Zagreb1>
74

>  <Zagreb2>
90

>  <mZagreb2>
3.54

>  <yes>


>  <nAR-cont>
0.816016

>  <nHA-cont>
0.92539861

>  <MWHBN>
0.343304262

>  <MWHBN-cont>
0.695064417

>  <TPSA-cont>
0.47456866

>  <pka_cont>
0.97

>  <yes.1>


>  <BBB_SCORE>
4.218148557

>  <MMFF94 Energy>
-120.9

$$$$
Compound 1095
Actelion Java MolfileCreator 2.0

  0  0  0  0  0  0              0 V3000
M  V30 BEGIN CTAB
M  V30 COUNTS 48 48 0 0 0
M  V30 BEGIN ATOM
M  V30 1 O 0.3899 -0.858 2.3415 0
M  V30 2 C 1.2339 -0.7811 1.456 0
M  V30 3 N 1.0399 -1.2491 0.1723 0
M  V30 4 C 2.6047 -0.1638 1.6502 0
M  V30 5 C -0.2349 -1.7957 -0.2652 0
M  V30 6 C 2.7956 0.3961 3.0545 0
M  V30 7 C -0.8846 -1.0126 -1.4652 0
M  V30 8 C 4.1644 1.0388 3.2158 0
M  V30 9 C -0.8837 0.5098 -1.1379 0
M  V30 10 C -2.375 -1.474 -1.6167 0
M  V30 11 C -0.0622 -1.3876 -2.7493 0
M  V30 12 O 4.2951 1.5243 4.5439 0
M  V30 13 C -1.4868 0.9699 0.0569 0
M  V30 14 C -0.2725 1.4751 -1.9549 0
M  V30 15 C -2.5907 -2.9703 -1.83 0
M  V30 16 C -0.7081 -1.0633 -4.0975 0
M  V30 17 C -1.4817 2.3221 0.4153 0
M  V30 18 C -0.2902 2.8316 -1.6167 0
M  V30 19 O -2.0228 2.8467 1.5574 0
M  V30 20 C -0.8991 3.2521 -0.4391 0
M  V30 21 C -2.2477 1.9289 2.6229 0
M  V30 22 H 1.7938 -1.1782 -0.4971 0
M  V30 23 H 2.727 0.6346 0.9085 0
M  V30 24 H 3.3585 -0.9331 1.4455 0
M  V30 25 H -0.9254 -1.8306 0.5852 0
M  V30 26 H -0.038 -2.8378 -0.5422 0
M  V30 27 H 2.6721 -0.3977 3.8022 0
M  V30 28 H 2.0161 1.1348 3.2814 0
M  V30 29 H 4.9616 0.3114 3.0325 0
M  V30 30 H 4.2842 1.8792 2.5246 0
M  V30 31 H -2.9496 -1.2006 -0.7226 0
M  V30 32 H -2.8508 -0.9263 -2.4403 0
M  V30 33 H 0.1374 -2.4673 -2.7529 0
M  V30 34 H 0.9285 -0.9178 -2.7094 0
M  V30 35 H 5.1677 1.9474 4.6123 0
M  V30 36 H -1.9504 0.2476 0.722 0
M  V30 37 H 0.2382 1.2098 -2.8742 0
M  V30 38 H -2.261 -3.5493 -0.9625 0
M  V30 39 H -3.6583 -3.172 -1.9687 0
M  V30 40 H -2.0685 -3.3448 -2.7133 0
M  V30 41 H 0.0226 -1.2105 -4.8997 0
M  V30 42 H -1.5511 -1.7274 -4.3081 0
M  V30 43 H -1.0712 -0.0353 -4.1602 0
M  V30 44 H 0.1783 3.5611 -2.272 0
M  V30 45 H -0.905 4.3064 -0.1757 0
M  V30 46 H -3.0913 1.2689 2.3974 0
M  V30 47 H -2.5104 2.5099 3.5124 0
M  V30 48 H -1.3449 1.3549 2.8556 0
M  V30 END ATOM
M  V30 BEGIN BOND
M  V30 1 2 1 2
M  V30 2 1 2 3
M  V30 3 1 2 4
M  V30 4 1 3 5
M  V30 5 1 4 6
M  V30 6 1 5 7
M  V30 7 1 6 8
M  V30 8 1 7 9
M  V30 9 1 7 10
M  V30 10 1 7 11
M  V30 11 1 8 12
M  V30 12 2 9 13
M  V30 13 1 9 14
M  V30 14 1 10 15
M  V30 15 1 11 16
M  V30 16 1 13 17
M  V30 17 2 14 18
M  V30 18 1 17 19
M  V30 19 2 17 20
M  V30 20 1 19 21
M  V30 21 1 18 20
M  V30 22 1 3 22
M  V30 23 1 4 23
M  V30 24 1 4 24
M  V30 25 1 5 25
M  V30 26 1 5 26
M  V30 27 1 6 27
M  V30 28 1 6 28
M  V30 29 1 8 29
M  V30 30 1 8 30
M  V30 31 1 10 31
M  V30 32 1 10 32
M  V30 33 1 11 33
M  V30 34 1 11 34
M  V30 35 1 12 35
M  V30 36 1 13 36
M  V30 37 1 14 37
M  V30 38 1 15 38
M  V30 39 1 15 39
M  V30 40 1 15 40
M  V30 41 1 16 41
M  V30 42 1 16 42
M  V30 43 1 16 43
M  V30 44 1 18 44
M  V30 45 1 20 45
M  V30 46 1 21 46
M  V30 47 1 21 47
M  V30 48 1 21 48
M  V30 END BOND
M  V30 END CTAB
M  END
>  <Column 1>
1302

>  <level_0>
1448

>  <index>
1448

>  <Unnamed: 0>
1448

>  <NO.>
1460

>  <Name>
embutramide

>  <IUPAC_name>
n-[2-ethyl-2-(3-methoxyphenyl)butyl]-4-hydroxybutanamide

>  <SMILES>
CCC(CC)(CNC(=O)CCCO)c1cccc(OC)c1

>  <CID>
27453

>  <logBB>


>  <BBB+/BBB->
BBB+

>  <Inchi>
InChI=1S/C17H27NO3/c1-4-17(5-2-13-18-16(20)10-7-11-19)14-8-6-9-15(12-14)21-3/h6-8-9-12-19H-4-5-7-10-11-13H2-1-3H3-(H-18-20)

>  <threshold>
-1

>  <reference>
R1|R13|R19|R6|R24|R27|R27|R27|R30|R30|

>  <group>
B

>  <Class>
1

>  <ABC>
14.9

>  <ABCGG>
13.71

>  <nAcid>
0

>  <nBase>
0

>  <nAromAtom>
6

>  <nAromBond>
6

>  <nAtom>
48

>  <nHeavyAtom>
21

>  <nSpiro>
0

>  <nBridgehead>
0

>  <nHetero>
4

>  <nN>
1

>  <nO>
3

>  <nF>
0

>  <BalabanJ>
2.59

>  <BertzCT>
441.42

>  <nBonds>
48

>  <nBondsO>
21

>  <nBondsS>
41

>  <nBondsD>
1

>  <nBondsT>
0

>  <nBondsA>
6

>  <nBondsM>
7

>  <nBondsKS>
44

>  <nBondsKD>
4

>  <RNCG>
0.25

>  <RPCG>
0.11

>  <FCSP3>
0.59

>  <SZ>
26.67

>  <Sm>
24.43

>  <Sv>
27.22

>  <Sse>
47.64

>  <Sp>
29.88

>  <Si>
54.53

>  <MZ>
0.56

>  <Mm>
0.51

>  <Mv>
0.57

>  <Mse>
0.99

>  <Mp>
0.62

>  <Mi>
1.14

>  <NsCH3>
3

>  <NdCH2>
0

>  <NssCH2>
6

>  <NtCH>
0

>  <NdsCH>
0

>  <NaaCH>
4

>  <NsssCH>
0

>  <NddC>
0

>  <NtsC>
0

>  <NdssC>
1

>  <NaasC>
2

>  <NaaaC>
0

>  <NssssC>
1

>  <NsNH3>
0

>  <NsNH2>
0

>  <NssNH2>
0

>  <NdNH>
0

>  <NssNH>
1

>  <NaaNH>
0

>  <NtN>
0

>  <NsssNH>
0

>  <NdsN>
0

>  <NaaN>
0

>  <NsssN>
0

>  <NddsN>
0

>  <NaasN>
0

>  <NssssN>
0

>  <NsOH>
1

>  <NdO>
1

>  <NssO>
1

>  <NaaO>
0

>  <NsF>
0

>  <NsSiH3>
0

>  <NssSiH2>
0

>  <NsssSiH>
0

>  <NssssSi>
0

>  <NsPH2>
0

>  <NssPH>
0

>  <NsssP>
0

>  <NdsssP>
0

>  <NsssssP>
0

>  <NsSH>
0

>  <NdS>
0

>  <NssS>
0

>  <NaaS>
0

>  <NdssS>
0

>  <NddssS>
0

>  <NsCl>
0

>  <NsBr>
0

>  <NsI>
0

>  <fragCpx>
21.04

>  <fMF>
0.13

>  <nHBAcc>
3

>  <nHBDon>
2

>  <Kier1>
19.05

>  <Kier2>
9.9

>  <Lipinski>
1

>  <GhoseFilter>
1

>  <FilterItLogS>
-4.59

>  <VMcGowan>
249.92

>  <LabuteASA>
127.06

>  <PEOE_VSA1>
15.16

>  <PEOE_VSA2>
4.79

>  <PEOE_VSA3>
0

>  <PEOE_VSA4>
0

>  <PEOE_VSA5>
0

>  <PEOE_VSA6>
25.98

>  <PEOE_VSA7>
36.96

>  <PEOE_VSA8>
24.99

>  <PEOE_VSA9>
7.11

>  <PEOE_VSA10>
5.75

>  <PEOE_VSA11>
0

>  <PEOE_VSA12>
5.91

>  <PEOE_VSA13>
0

>  <SMR_VSA1>
14.64

>  <SMR_VSA2>
0

>  <SMR_VSA3>
5.32

>  <SMR_VSA4>
0

>  <SMR_VSA5>
44.95

>  <SMR_VSA6>
20.26

>  <SMR_VSA7>
29.83

>  <SMR_VSA8>
0

>  <SMR_VSA9>
5.75

>  <SlogP_VSA1>
10.05

>  <SlogP_VSA2>
31.28

>  <SlogP_VSA3>
10.21

>  <SlogP_VSA4>
0

>  <SlogP_VSA5>
45.09

>  <SlogP_VSA6>
24.27

>  <SlogP_VSA7>
0

>  <SlogP_VSA8>
0

>  <SlogP_VSA9>
0

>  <SlogP_VSA10>
0

>  <SlogP_VSA11>
5.75

>  <EState_VSA1>
0

>  <EState_VSA2>
17.93

>  <EState_VSA3>
19.39

>  <EState_VSA4>
18.59

>  <EState_VSA5>
5.56

>  <EState_VSA6>
7.11

>  <EState_VSA7>
18.2

>  <EState_VSA8>
25.23

>  <EState_VSA9>
9.84

>  <EState_VSA10>
4.79

>  <VSA_EState1>
5.3

>  <VSA_EState2>
11.79

>  <VSA_EState3>
11.78

>  <VSA_EState4>
1.11

>  <VSA_EState5>
0.84

>  <VSA_EState6>
8.06

>  <VSA_EState7>
2.77

>  <VSA_EState8>
4.94

>  <VSA_EState9>
1.66

>  <apol>
49.9

>  <bpol>
30.26

>  <nRing>
1

>  <nHRing>
0

>  <naRing>
1

>  <naHRing>
0

>  <nARing 2>
0

>  <nAHRing 2>
0

>  <nFRing>
0

>  <nFHRing>
0

>  <nFaRing>
0

>  <nFaHRing>
0

>  <nFARing 2>
0

>  <nFAHRing 2>
0

>  <nRot>
9

>  <SLogP>
2.64

>  <SMR>
84.58

>  <TopoPSA(NO)>
58.56

>  <TopoPSA>
58.56

>  <JGI1>
0.24

>  <JGI2>
0.1

>  <JGI3>
0.04

>  <JGI4>
0.04

>  <JGI5>
0.03

>  <Diameter>
12

>  <Radius>
6

>  <TMWC10>
113.64

>  <TSRW10>
54.1

>  <MW>
293.2

>  <AMW>
6.11

>  <WPath>
984

>  <WPol>
31

>  <Zagreb1>
96

>  <Zagreb2>
109

>  <mZagreb2>
5.21

>  <yes>


>  <nAR-cont>
0.336376

>  <nHA-cont>
0.994529749

>  <MWHBN>
0.292003476

>  <MWHBN-cont>
0.863953473

>  <TPSA-cont>
0.591214836

>  <pka_cont>
0.97

>  <yes.1>


>  <BBB_SCORE>
4.294265632

>  <MMFF94 Energy>
26.997

$$$$
Compound 1096
Actelion Java MolfileCreator 2.0

  0  0  0  0  0  0              0 V3000
M  V30 BEGIN CTAB
M  V30 COUNTS 30 31 0 0 0
M  V30 BEGIN ATOM
M  V30 1 N -2.0347 2.0347 -0.4692 0
M  V30 2 C -0.735 2.305 -0.8254 0
M  V30 3 C -2.2167 0.6862 -0.3289 0
M  V30 4 C -0.0693 1.0814 -0.9107 0
M  V30 5 C -0.1078 3.5313 -1.0779 0
M  V30 6 C -1.0137 0.0538 -0.5824 0
M  V30 7 C 1.2937 1.088 -1.2742 0
M  V30 8 C 1.2437 3.508 -1.4318 0
M  V30 9 C -0.767 -1.4248 -0.5355 0
M  V30 10 C 1.9369 2.3048 -1.5302 0
M  V30 11 C -0.8736 -2.0315 0.8834 0 CFG=1
M  V30 12 N -0.827 -3.503 0.8275 0
M  V30 13 C 0.185 -1.5094 1.8761 0
M  V30 14 C 1.633 -1.8319 1.5287 0
M  V30 15 H -2.7493 2.7368 -0.3367 0
M  V30 16 H -3.1852 0.2889 -0.0548 0
M  V30 17 H -0.6464 4.4704 -1.0042 0
M  V30 18 H 1.8474 0.1583 -1.3584 0
M  V30 19 H 1.7599 4.4436 -1.6343 0
M  V30 20 H 0.2051 -1.6637 -0.9818 0
M  V30 21 H -1.5146 -1.9016 -1.185 0
M  V30 22 H 2.9876 2.3075 -1.8089 0
M  V30 23 H -1.8552 -1.7683 1.2984 0
M  V30 24 H 0.0392 -3.8038 0.3829 0
M  V30 25 H -1.5802 -3.842 0.2296 0
M  V30 26 H -0.0276 -1.9243 2.8704 0
M  V30 27 H 0.0836 -0.4223 1.9802 0
M  V30 28 H 1.9205 -1.4167 0.5602 0
M  V30 29 H 1.8127 -2.9108 1.5103 0
M  V30 30 H 2.2995 -1.4012 2.2836 0
M  V30 END ATOM
M  V30 BEGIN BOND
M  V30 1 1 1 2
M  V30 2 1 1 3
M  V30 3 2 2 4
M  V30 4 1 2 5
M  V30 5 2 3 6
M  V30 6 1 4 7
M  V30 7 2 5 8
M  V30 8 1 6 9
M  V30 9 2 7 10
M  V30 10 1 9 11
M  V30 11 1 11 12
M  V30 12 1 11 13
M  V30 13 1 13 14
M  V30 14 1 4 6
M  V30 15 1 8 10
M  V30 16 1 1 15
M  V30 17 1 3 16
M  V30 18 1 5 17
M  V30 19 1 7 18
M  V30 20 1 8 19
M  V30 21 1 9 20
M  V30 22 1 9 21
M  V30 23 1 10 22
M  V30 24 1 11 23
M  V30 25 1 12 24
M  V30 26 1 12 25
M  V30 27 1 13 26
M  V30 28 1 13 27
M  V30 29 1 14 28
M  V30 30 1 14 29
M  V30 31 1 14 30
M  V30 END BOND
M  V30 BEGIN COLLECTION
M  V30 MDLV30/STERAC1 ATOMS=(1 11)
M  V30 END COLLECTION
M  V30 END CTAB
M  END
>  <Column 1>
1303

>  <level_0>
1449

>  <index>
1449

>  <Unnamed: 0>
1449

>  <NO.>
1461

>  <Name>
etryptamine

>  <IUPAC_name>
1-(1h-indol-3-yl)butan-2-amine

>  <SMILES>
CCC(N)Cc1c[nH]c2ccccc12

>  <CID>
8367

>  <logBB>


>  <BBB+/BBB->
BBB+

>  <Inchi>
InChI=1S/C12H16N2/c1-2-10(13)7-9-8-14-12-6-4-3-5-11(9)12/h3-6-8-10-14H-2-7-13H2-1H3

>  <threshold>
-1

>  <reference>
R1|R19|R6|R27|R27|R30|

>  <group>
B

>  <Class>
1

>  <ABC>
10.64

>  <ABCGG>
9.7

>  <nAcid>
0

>  <nBase>
1

>  <nAromAtom>
9

>  <nAromBond>
10

>  <nAtom>
30

>  <nHeavyAtom>
14

>  <nSpiro>
0

>  <nBridgehead>
0

>  <nHetero>
2

>  <nN>
2

>  <nO>
0

>  <nF>
0

>  <BalabanJ>
1.87

>  <BertzCT>
416.93

>  <nBonds>
31

>  <nBondsO>
15

>  <nBondsS>
21

>  <nBondsD>
0

>  <nBondsT>
0

>  <nBondsA>
10

>  <nBondsM>
10

>  <nBondsKS>
27

>  <nBondsKD>
4

>  <RNCG>
0.35

>  <RPCG>
0.16

>  <FCSP3>
0.33

>  <SZ>
17

>  <Sm>
15.68

>  <Sv>
17.85

>  <Sse>
29.43

>  <Sp>
19.71

>  <Si>
33.9

>  <MZ>
0.57

>  <Mm>
0.52

>  <Mv>
0.6

>  <Mse>
0.98

>  <Mp>
0.66

>  <Mi>
1.13

>  <NsCH3>
1

>  <NdCH2>
0

>  <NssCH2>
2

>  <NtCH>
0

>  <NdsCH>
0

>  <NaaCH>
5

>  <NsssCH>
1

>  <NddC>
0

>  <NtsC>
0

>  <NdssC>
0

>  <NaasC>
1

>  <NaaaC>
2

>  <NssssC>
0

>  <NsNH3>
0

>  <NsNH2>
1

>  <NssNH2>
0

>  <NdNH>
0

>  <NssNH>
0

>  <NaaNH>
1

>  <NtN>
0

>  <NsssNH>
0

>  <NdsN>
0

>  <NaaN>
0

>  <NsssN>
0

>  <NddsN>
0

>  <NaasN>
0

>  <NssssN>
0

>  <NsOH>
0

>  <NdO>
0

>  <NssO>
0

>  <NaaO>
0

>  <NsF>
0

>  <NsSiH3>
0

>  <NssSiH2>
0

>  <NsssSiH>
0

>  <NssssSi>
0

>  <NsPH2>
0

>  <NssPH>
0

>  <NsssP>
0

>  <NdsssP>
0

>  <NsssssP>
0

>  <NsSH>
0

>  <NdS>
0

>  <NssS>
0

>  <NaaS>
0

>  <NdssS>
0

>  <NddssS>
0

>  <NsCl>
0

>  <NsBr>
0

>  <NsI>
0

>  <fragCpx>
43.02

>  <fMF>
0.3

>  <nHBAcc>
1

>  <nHBDon>
2

>  <Kier1>
10.52

>  <Kier2>
4.68

>  <Lipinski>
1

>  <GhoseFilter>
1

>  <FilterItLogS>
-3.41

>  <VMcGowan>
160.98

>  <LabuteASA>
84.12

>  <PEOE_VSA1>
10.72

>  <PEOE_VSA2>
0

>  <PEOE_VSA3>
0

>  <PEOE_VSA4>
0

>  <PEOE_VSA5>
0

>  <PEOE_VSA6>
25.12

>  <PEOE_VSA7>
24.47

>  <PEOE_VSA8>
23.14

>  <PEOE_VSA9>
0

>  <PEOE_VSA10>
0

>  <PEOE_VSA11>
0

>  <PEOE_VSA12>
0

>  <PEOE_VSA13>
0

>  <SMR_VSA1>
0

>  <SMR_VSA2>
0

>  <SMR_VSA3>
4.98

>  <SMR_VSA4>
5.73

>  <SMR_VSA5>
25.81

>  <SMR_VSA6>
0

>  <SMR_VSA7>
36.03

>  <SMR_VSA8>
0

>  <SMR_VSA9>
0

>  <SlogP_VSA1>
5.73

>  <SlogP_VSA2>
11.03

>  <SlogP_VSA3>
6.42

>  <SlogP_VSA4>
0

>  <SlogP_VSA5>
18.91

>  <SlogP_VSA6>
30.46

>  <SlogP_VSA7>
0

>  <SlogP_VSA8>
10.9

>  <SlogP_VSA9>
0

>  <SlogP_VSA10>
0

>  <SlogP_VSA11>
0

>  <EState_VSA1>
0

>  <EState_VSA2>
6.04

>  <EState_VSA3>
0

>  <EState_VSA4>
12.84

>  <EState_VSA5>
16.47

>  <EState_VSA6>
0

>  <EState_VSA7>
6.07

>  <EState_VSA8>
36.3

>  <EState_VSA9>
5.73

>  <EState_VSA10>
0

>  <VSA_EState1>
0

>  <VSA_EState2>
3.26

>  <VSA_EState3>
1.3

>  <VSA_EState4>
8.47

>  <VSA_EState5>
0

>  <VSA_EState6>
8.62

>  <VSA_EState7>
4.06

>  <VSA_EState8>
2.12

>  <VSA_EState9>
0

>  <apol>
32.91

>  <bpol>
16.05

>  <nRing>
2

>  <nHRing>
1

>  <naRing>
2

>  <naHRing>
1

>  <nARing 2>
0

>  <nAHRing 2>
0

>  <nFRing>
1

>  <nFHRing>
1

>  <nFaRing>
1

>  <nFaHRing>
1

>  <nFARing 2>
0

>  <nFAHRing 2>
0

>  <nRot>
3

>  <SLogP>
2.45

>  <SMR>
60.27

>  <TopoPSA(NO)>
41.81

>  <TopoPSA>
41.81

>  <JGI1>
0.17

>  <JGI2>
0.08

>  <JGI3>
0.05

>  <JGI4>
0.03

>  <JGI5>
0.03

>  <Diameter>
8

>  <Radius>
4

>  <TMWC10>
98.22

>  <TSRW10>
59.42

>  <MW>
188.13

>  <AMW>
6.27

>  <WPath>
304

>  <WPol>
18

>  <Zagreb1>
70

>  <Zagreb2>
81

>  <mZagreb2>
3.22

>  <yes>


>  <nAR-cont>
0.336376

>  <nHA-cont>
0.887625254

>  <MWHBN>
0.218721878

>  <MWHBN-cont>
0.995736228

>  <TPSA-cont>
0.708140238

>  <pka_cont>
0.97

>  <yes.1>


>  <BBB_SCORE>
4.618886072

>  <MMFF94 Energy>
28.544

$$$$
Compound 1097
Actelion Java MolfileCreator 2.0

  0  0  0  0  0  0              0 V3000
M  V30 BEGIN CTAB
M  V30 COUNTS 30 30 0 0 0
M  V30 BEGIN ATOM
M  V30 1 O -1.484 1.4059 -2.5786 0
M  V30 2 C -0.3538 1.1768 -2.9796 0
M  V30 3 O 0.7266 0.9497 -2.2035 0
M  V30 4 N -0.0157 1.1002 -4.2832 0
M  V30 5 C 0.5032 1.0416 -0.7836 0
M  V30 6 C -0.0849 -0.2513 -0.1419 0 CFG=2
M  V30 7 O -1.3458 -0.5958 -0.7388 0
M  V30 8 C -0.3106 0.004 1.3604 0
M  V30 9 C 0.8316 -1.4915 -0.3142 0
M  V30 10 C -1.5991 -0.0095 1.9232 0
M  V30 11 C 0.7735 0.273 2.2186 0
M  V30 12 C 0.9711 -2.028 -1.735 0
M  V30 13 C -1.7968 0.2371 3.2846 0
M  V30 14 C 0.5751 0.5197 3.5798 0
M  V30 15 C -0.7102 0.5027 4.1122 0
M  V30 16 H -0.7266 1.2358 -4.9859 0
M  V30 17 H 0.9344 0.8912 -4.5467 0
M  V30 18 H 1.4791 1.2764 -0.3434 0
M  V30 19 H -0.1406 1.9072 -0.5749 0
M  V30 20 H -1.6909 0.1895 -1.2102 0
M  V30 21 H 1.8353 -1.29 0.079 0
M  V30 22 H 0.4216 -2.3135 0.2895 0
M  V30 23 H -2.4705 -0.2211 1.3062 0
M  V30 24 H 1.7924 0.291 1.8385 0
M  V30 25 H 1.4976 -2.9884 -1.7155 0
M  V30 26 H -0.0014 -2.1937 -2.207 0
M  V30 27 H 1.5593 -1.3561 -2.3645 0
M  V30 28 H -2.8028 0.2176 3.6959 0
M  V30 29 H 1.4261 0.7229 4.2248 0
M  V30 30 H -0.8657 0.6923 5.1707 0
M  V30 END ATOM
M  V30 BEGIN BOND
M  V30 1 2 1 2
M  V30 2 1 2 3
M  V30 3 1 2 4
M  V30 4 1 3 5
M  V30 5 1 5 6
M  V30 6 1 6 7
M  V30 7 1 6 8
M  V30 8 1 6 9
M  V30 9 2 8 10
M  V30 10 1 8 11
M  V30 11 1 9 12
M  V30 12 1 10 13
M  V30 13 2 11 14
M  V30 14 2 13 15
M  V30 15 1 14 15
M  V30 16 1 4 16
M  V30 17 1 4 17
M  V30 18 1 5 18
M  V30 19 1 5 19
M  V30 20 1 7 20
M  V30 21 1 9 21
M  V30 22 1 9 22
M  V30 23 1 10 23
M  V30 24 1 11 24
M  V30 25 1 12 25
M  V30 26 1 12 26
M  V30 27 1 12 27
M  V30 28 1 13 28
M  V30 29 1 14 29
M  V30 30 1 15 30
M  V30 END BOND
M  V30 BEGIN COLLECTION
M  V30 MDLV30/STERAC1 ATOMS=(1 6)
M  V30 END COLLECTION
M  V30 END CTAB
M  END
>  <Column 1>
1304

>  <level_0>
1450

>  <index>
1450

>  <Unnamed: 0>
1450

>  <NO.>
1462

>  <Name>
hydroxyphenamate (oxyfenamate)

>  <IUPAC_name>
(2-hydroxy-2-phenylbutyl) carbamate

>  <SMILES>
CCC(O)(COC(N)=O)c1ccccc1

>  <CID>
5752

>  <logBB>


>  <BBB+/BBB->
BBB+

>  <Inchi>
InChI=1S/C11H15NO3/c1-2-11(14-8-15-10(12)13)9-6-4-3-5-7-9/h3-7-14H-2-8H2-1H3-(H2-12-13)

>  <threshold>
-1

>  <reference>
R1|R13|R19|R6|R27|R27|R30|

>  <group>
B

>  <Class>
1

>  <ABC>
10.92

>  <ABCGG>
10.31

>  <nAcid>
0

>  <nBase>
0

>  <nAromAtom>
6

>  <nAromBond>
6

>  <nAtom>
30

>  <nHeavyAtom>
15

>  <nSpiro>
0

>  <nBridgehead>
0

>  <nHetero>
4

>  <nN>
1

>  <nO>
3

>  <nF>
0

>  <BalabanJ>
2.49

>  <BertzCT>
325.86

>  <nBonds>
30

>  <nBondsO>
15

>  <nBondsS>
23

>  <nBondsD>
1

>  <nBondsT>
0

>  <nBondsA>
6

>  <nBondsM>
7

>  <nBondsKS>
26

>  <nBondsKD>
4

>  <RNCG>
0.25

>  <RPCG>
0.23

>  <FCSP3>
0.36

>  <SZ>
18.67

>  <Sm>
17.42

>  <Sv>
17.97

>  <Sse>
30.31

>  <Sp>
19.09

>  <Si>
34.03

>  <MZ>
0.62

>  <Mm>
0.58

>  <Mv>
0.6

>  <Mse>
1.01

>  <Mp>
0.64

>  <Mi>
1.13

>  <NsCH3>
1

>  <NdCH2>
0

>  <NssCH2>
2

>  <NtCH>
0

>  <NdsCH>
0

>  <NaaCH>
5

>  <NsssCH>
0

>  <NddC>
0

>  <NtsC>
0

>  <NdssC>
1

>  <NaasC>
1

>  <NaaaC>
0

>  <NssssC>
1

>  <NsNH3>
0

>  <NsNH2>
1

>  <NssNH2>
0

>  <NdNH>
0

>  <NssNH>
0

>  <NaaNH>
0

>  <NtN>
0

>  <NsssNH>
0

>  <NdsN>
0

>  <NaaN>
0

>  <NsssN>
0

>  <NddsN>
0

>  <NaasN>
0

>  <NssssN>
0

>  <NsOH>
1

>  <NdO>
1

>  <NssO>
1

>  <NaaO>
0

>  <NsF>
0

>  <NsSiH3>
0

>  <NssSiH2>
0

>  <NsssSiH>
0

>  <NssssSi>
0

>  <NsPH2>
0

>  <NssPH>
0

>  <NsssP>
0

>  <NdsssP>
0

>  <NsssssP>
0

>  <NsSH>
0

>  <NdS>
0

>  <NssS>
0

>  <NaaS>
0

>  <NdssS>
0

>  <NddssS>
0

>  <NsCl>
0

>  <NsBr>
0

>  <NsI>
0

>  <fragCpx>
15.04

>  <fMF>
0.2

>  <nHBAcc>
3

>  <nHBDon>
2

>  <Kier1>
13.07

>  <Kier2>
5.92

>  <Lipinski>
1

>  <GhoseFilter>
1

>  <FilterItLogS>
-1.65

>  <VMcGowan>
165.38

>  <LabuteASA>
88.67

>  <PEOE_VSA1>
15.58

>  <PEOE_VSA2>
0

>  <PEOE_VSA3>
4.79

>  <PEOE_VSA4>
0

>  <PEOE_VSA5>
0

>  <PEOE_VSA6>
37.26

>  <PEOE_VSA7>
11.98

>  <PEOE_VSA8>
0

>  <PEOE_VSA9>
0

>  <PEOE_VSA10>
12.21

>  <PEOE_VSA11>
0

>  <PEOE_VSA12>
0

>  <PEOE_VSA13>
0

>  <SMR_VSA1>
14.64

>  <SMR_VSA2>
0

>  <SMR_VSA3>
0

>  <SMR_VSA4>
5.73

>  <SMR_VSA5>
18.95

>  <SMR_VSA6>
6.61

>  <SMR_VSA7>
35.9

>  <SMR_VSA8>
0

>  <SMR_VSA9>
0

>  <SlogP_VSA1>
5.73

>  <SlogP_VSA2>
17.81

>  <SlogP_VSA3>
10.34

>  <SlogP_VSA4>
0

>  <SlogP_VSA5>
18.91

>  <SlogP_VSA6>
30.33

>  <SlogP_VSA7>
0

>  <SlogP_VSA8>
0

>  <SlogP_VSA9>
0

>  <SlogP_VSA10>
4.79

>  <SlogP_VSA11>
0

>  <EState_VSA1>
11.69

>  <EState_VSA2>
6.61

>  <EState_VSA3>
11.98

>  <EState_VSA4>
0

>  <EState_VSA5>
0

>  <EState_VSA6>
12.13

>  <EState_VSA7>
25.12

>  <EState_VSA8>
4.74

>  <EState_VSA9>
5.73

>  <EState_VSA10>
9.9

>  <VSA_EState1>
4.64

>  <VSA_EState2>
10.48

>  <VSA_EState3>
10.21

>  <VSA_EState4>
4.42

>  <VSA_EState5>
0

>  <VSA_EState6>
9.07

>  <VSA_EState7>
-0.43

>  <VSA_EState8>
1.69

>  <VSA_EState9>
0

>  <apol>
31.88

>  <bpol>
17.08

>  <nRing>
1

>  <nHRing>
0

>  <naRing>
1

>  <naHRing>
0

>  <nARing 2>
0

>  <nAHRing 2>
0

>  <nFRing>
0

>  <nFHRing>
0

>  <nFaRing>
0

>  <nFaHRing>
0

>  <nFARing 2>
0

>  <nFAHRing 2>
0

>  <nRot>
4

>  <SLogP>
1.38

>  <SMR>
56.17

>  <TopoPSA(NO)>
72.55

>  <TopoPSA>
72.55

>  <JGI1>
0.27

>  <JGI2>
0.11

>  <JGI3>
0.05

>  <JGI4>
0.03

>  <JGI5>
0.03

>  <Diameter>
8

>  <Radius>
4

>  <TMWC10>
98.41

>  <TSRW10>
46.54

>  <MW>
209.11

>  <AMW>
6.97

>  <WPath>
374

>  <WPol>
20

>  <Zagreb1>
70

>  <Zagreb2>
78

>  <mZagreb2>
3.5

>  <yes>


>  <nAR-cont>
0.336376

>  <nHA-cont>
0.92539861

>  <MWHBN>
0.345766253

>  <MWHBN-cont>
0.685994222

>  <TPSA-cont>
0.493555949

>  <pka_cont>
0.97

>  <yes.1>


>  <BBB_SCORE>
3.762877842

>  <MMFF94 Energy>
-24.336

$$$$
Compound 1098
Actelion Java MolfileCreator 2.0

  0  0  0  0  0  0              0 V3000
M  V30 BEGIN CTAB
M  V30 COUNTS 52 53 0 0 0
M  V30 BEGIN ATOM
M  V30 1 O -0.3145 -2.9916 -1.0226 0
M  V30 2 C -1.1005 -1.8767 -0.5695 0
M  V30 3 C -0.1901 -0.635 -0.0879 0
M  V30 4 C -2.1187 -2.4215 0.459 0
M  V30 5 C 0.4821 -1.0785 1.2522 0
M  V30 6 C 0.8621 -0.2437 -1.1773 0
M  V30 7 C -1.1878 0.5883 0.0677 0
M  V30 8 C -3.0466 -3.4679 -0.1529 0
M  V30 9 C 1.6139 -1.9231 1.2355 0
M  V30 10 C -0.0271 -0.7215 2.5141 0
M  V30 11 C 2.0514 0.4307 -0.8262 0
M  V30 12 C 0.6626 -0.5037 -2.5456 0
M  V30 13 C -0.6379 1.9732 0.5324 0
M  V30 14 C 2.2182 -2.3652 2.4147 0
M  V30 15 C 0.5773 -1.1646 3.6956 0
M  V30 16 C 3.0008 0.7979 -1.7845 0
M  V30 17 C 1.6123 -0.137 -3.5061 0
M  V30 18 N -0.0432 2.7608 -0.564 0
M  V30 19 C -1.7481 2.7349 1.282 0
M  V30 20 C 1.7 -1.9836 3.6461 0
M  V30 21 C 2.7822 0.5104 -3.1258 0
M  V30 22 C 0.8717 3.795 -0.0826 0
M  V30 23 C -0.9854 3.3252 -1.5255 0
M  V30 24 H 0.1102 -3.3824 -0.24 0
M  V30 25 H -1.6825 -1.5531 -1.4411 0
M  V30 26 H -1.5982 -2.901 1.2954 0
M  V30 27 H -2.7406 -1.6209 0.8667 0
M  V30 28 H -1.7206 0.7178 -0.8831 0
M  V30 29 H -1.9786 0.3064 0.7709 0
M  V30 30 H -3.6039 -3.0505 -0.9974 0
M  V30 31 H -3.7701 -3.8107 0.5937 0
M  V30 32 H -2.4893 -4.3417 -0.5039 0
M  V30 33 H 2.0503 -2.2394 0.2879 0
M  V30 34 H -0.9121 -0.1014 2.6162 0
M  V30 35 H 2.2466 0.6982 0.2101 0
M  V30 36 H -0.2316 -1.0056 -2.902 0
M  V30 37 H 0.1488 1.7742 1.2691 0
M  V30 38 H 3.0954 -3.0052 2.3664 0
M  V30 39 H 0.1646 -0.8706 4.6576 0
M  V30 40 H 3.9035 1.3181 -1.4778 0
M  V30 41 H 1.4315 -0.3603 -4.554 0
M  V30 42 H -1.4058 3.7141 1.6306 0
M  V30 43 H -2.6356 2.8809 0.6573 0
M  V30 44 H -2.0614 2.1746 2.1702 0
M  V30 45 H 2.1683 -2.3253 4.5651 0
M  V30 46 H 3.516 0.7969 -3.873 0
M  V30 47 H 1.6316 3.3695 0.5818 0
M  V30 48 H 1.4151 4.2445 -0.9215 0
M  V30 49 H 0.3543 4.597 0.4541 0
M  V30 50 H -1.6036 4.1183 -1.0909 0
M  V30 51 H -1.6475 2.5645 -1.9478 0
M  V30 52 H -0.4429 3.7556 -2.3754 0
M  V30 END ATOM
M  V30 BEGIN BOND
M  V30 1 1 1 2
M  V30 2 1 2 3
M  V30 3 1 2 4
M  V30 4 1 3 5
M  V30 5 1 3 6
M  V30 6 1 3 7
M  V30 7 1 4 8
M  V30 8 2 5 9
M  V30 9 1 5 10
M  V30 10 2 6 11
M  V30 11 1 6 12
M  V30 12 1 7 13
M  V30 13 1 9 14
M  V30 14 2 10 15
M  V30 15 1 11 16
M  V30 16 2 12 17
M  V30 17 1 13 18
M  V30 18 1 13 19
M  V30 19 2 14 20
M  V30 20 2 16 21
M  V30 21 1 18 22
M  V30 22 1 18 23
M  V30 23 1 15 20
M  V30 24 1 17 21
M  V30 25 1 1 24
M  V30 26 1 2 25
M  V30 27 1 4 26
M  V30 28 1 4 27
M  V30 29 1 7 28
M  V30 30 1 7 29
M  V30 31 1 8 30
M  V30 32 1 8 31
M  V30 33 1 8 32
M  V30 34 1 9 33
M  V30 35 1 10 34
M  V30 36 1 11 35
M  V30 37 1 12 36
M  V30 38 1 13 37
M  V30 39 1 14 38
M  V30 40 1 15 39
M  V30 41 1 16 40
M  V30 42 1 17 41
M  V30 43 1 19 42
M  V30 44 1 19 43
M  V30 45 1 19 44
M  V30 46 1 20 45
M  V30 47 1 21 46
M  V30 48 1 22 47
M  V30 49 1 22 48
M  V30 50 1 22 49
M  V30 51 1 23 50
M  V30 52 1 23 51
M  V30 53 1 23 52
M  V30 END BOND
M  V30 END CTAB
M  END
>  <Column 1>
1305

>  <level_0>
1451

>  <index>
1451

>  <Unnamed: 0>
1451

>  <NO.>
1463

>  <Name>
betamethadol

>  <IUPAC_name>
6-(dimethylamino)-4-4-diphenylheptan-3-ol

>  <SMILES>
CCC(O)C(CC(C)N(C)C)(c1ccccc1)c1ccccc1

>  <CID>
28397

>  <logBB>


>  <BBB+/BBB->
BBB+

>  <Inchi>
InChI=1S/C21H29NO/c1-5-20(23)21(16-17(2)22(3)4-18-12-8-6-9-13-18)19-14-10-7-11-15-19/h6-15-17-20-23H-5-16H2-1-4H3

>  <threshold>
-1

>  <reference>
R1|R19|R19|R27|R27|R30|

>  <group>
B

>  <Class>
1

>  <ABC>
17.18

>  <ABCGG>
15.65

>  <nAcid>
0

>  <nBase>
1

>  <nAromAtom>
12

>  <nAromBond>
12

>  <nAtom>
52

>  <nHeavyAtom>
23

>  <nSpiro>
0

>  <nBridgehead>
0

>  <nHetero>
2

>  <nN>
1

>  <nO>
1

>  <nF>
0

>  <BalabanJ>
2.33

>  <BertzCT>
539.81

>  <nBonds>
53

>  <nBondsO>
24

>  <nBondsS>
41

>  <nBondsD>
0

>  <nBondsT>
0

>  <nBondsA>
12

>  <nBondsM>
12

>  <nBondsKS>
47

>  <nBondsKD>
6

>  <RNCG>
0.25

>  <RPCG>
0.13

>  <FCSP3>
0.43

>  <SZ>
28.33

>  <Sm>
25.93

>  <Sv>
30.33

>  <Sse>
50.87

>  <Sp>
33.72

>  <Si>
58.52

>  <MZ>
0.54

>  <Mm>
0.5

>  <Mv>
0.58

>  <Mse>
0.98

>  <Mp>
0.65

>  <Mi>
1.13

>  <NsCH3>
4

>  <NdCH2>
0

>  <NssCH2>
2

>  <NtCH>
0

>  <NdsCH>
0

>  <NaaCH>
10

>  <NsssCH>
2

>  <NddC>
0

>  <NtsC>
0

>  <NdssC>
0

>  <NaasC>
2

>  <NaaaC>
0

>  <NssssC>
1

>  <NsNH3>
0

>  <NsNH2>
0

>  <NssNH2>
0

>  <NdNH>
0

>  <NssNH>
0

>  <NaaNH>
0

>  <NtN>
0

>  <NsssNH>
0

>  <NdsN>
0

>  <NaaN>
0

>  <NsssN>
1

>  <NddsN>
0

>  <NaasN>
0

>  <NssssN>
0

>  <NsOH>
1

>  <NdO>
0

>  <NssO>
0

>  <NaaO>
0

>  <NsF>
0

>  <NsSiH3>
0

>  <NssSiH2>
0

>  <NsssSiH>
0

>  <NssssSi>
0

>  <NsPH2>
0

>  <NssPH>
0

>  <NsssP>
0

>  <NdsssP>
0

>  <NsssssP>
0

>  <NsSH>
0

>  <NdS>
0

>  <NssS>
0

>  <NaaS>
0

>  <NdssS>
0

>  <NddssS>
0

>  <NsCl>
0

>  <NsBr>
0

>  <NsI>
0

>  <fragCpx>
70.02

>  <fMF>
0.25

>  <nHBAcc>
2

>  <nHBDon>
1

>  <Kier1>
19.33

>  <Kier2>
8.91

>  <Lipinski>
1

>  <GhoseFilter>
1

>  <FilterItLogS>
-4.65

>  <VMcGowan>
275.08

>  <LabuteASA>
140.33

>  <PEOE_VSA1>
10.01

>  <PEOE_VSA2>
0

>  <PEOE_VSA3>
0

>  <PEOE_VSA4>
0

>  <PEOE_VSA5>
0

>  <PEOE_VSA6>
67.59

>  <PEOE_VSA7>
44.99

>  <PEOE_VSA8>
11.46

>  <PEOE_VSA9>
6.1

>  <PEOE_VSA10>
0

>  <PEOE_VSA11>
0

>  <PEOE_VSA12>
0

>  <PEOE_VSA13>
0

>  <SMR_VSA1>
5.11

>  <SMR_VSA2>
0

>  <SMR_VSA3>
4.9

>  <SMR_VSA4>
0

>  <SMR_VSA5>
44.25

>  <SMR_VSA6>
14.1

>  <SMR_VSA7>
71.79

>  <SMR_VSA8>
0

>  <SMR_VSA9>
0

>  <SlogP_VSA1>
0

>  <SlogP_VSA2>
36.25

>  <SlogP_VSA3>
5.41

>  <SlogP_VSA4>
0

>  <SlogP_VSA5>
37.82

>  <SlogP_VSA6>
60.66

>  <SlogP_VSA7>
0

>  <SlogP_VSA8>
0

>  <SlogP_VSA9>
0

>  <SlogP_VSA10>
0

>  <SlogP_VSA11>
0

>  <EState_VSA1>
6.1

>  <EState_VSA2>
5.41

>  <EState_VSA3>
6.04

>  <EState_VSA4>
12.84

>  <EState_VSA5>
11.13

>  <EState_VSA6>
0

>  <EState_VSA7>
12.13

>  <EState_VSA8>
81.37

>  <EState_VSA9>
0

>  <EState_VSA10>
5.11

>  <VSA_EState1>
0

>  <VSA_EState2>
2.23

>  <VSA_EState3>
11.09

>  <VSA_EState4>
1.99

>  <VSA_EState5>
0

>  <VSA_EState6>
21.28

>  <VSA_EState7>
1.18

>  <VSA_EState8>
4.29

>  <VSA_EState9>
4.2

>  <apol>
56.31

>  <bpol>
30.8

>  <nRing>
2

>  <nHRing>
0

>  <naRing>
2

>  <naHRing>
0

>  <nARing 2>
0

>  <nAHRing 2>
0

>  <nFRing>
0

>  <nFHRing>
0

>  <nFaRing>
0

>  <nFaHRing>
0

>  <nFARing 2>
0

>  <nFAHRing 2>
0

>  <nRot>
7

>  <SLogP>
4.08

>  <SMR>
97.73

>  <TopoPSA(NO)>
23.47

>  <TopoPSA>
23.47

>  <JGI1>
0.21

>  <JGI2>
0.11

>  <JGI3>
0.05

>  <JGI4>
0.03

>  <JGI5>
0.02

>  <Diameter>
8

>  <Radius>
4

>  <TMWC10>
121.88

>  <TSRW10>
57.34

>  <MW>
311.22

>  <AMW>
5.99

>  <WPath>
1044

>  <WPol>
39

>  <Zagreb1>
114

>  <Zagreb2>
135

>  <mZagreb2>
5.32

>  <yes>


>  <nAR-cont>
0.336376

>  <nHA-cont>
0.967789328

>  <MWHBN>
0.170054256

>  <MWHBN-cont>
0.974049886

>  <TPSA-cont>
0.836164826

>  <pka_cont>
0.97

>  <yes.1>


>  <BBB_SCORE>
4.922569809

>  <MMFF94 Energy>
108.21

$$$$
Compound 1099
Actelion Java MolfileCreator 2.0

  0  0  0  0  0  0              0 V3000
M  V30 BEGIN CTAB
M  V30 COUNTS 57 58 0 0 0
M  V30 BEGIN ATOM
M  V30 1 O 0.0 -0.4727 4.1817 0
M  V30 2 C -0.6723 -1.1187 3.3915 0
M  V30 3 O -0.9688 -0.7533 2.1155 0
M  V30 4 C -1.2955 -2.446 3.6964 0
M  V30 5 C -0.4453 0.5224 1.6574 0
M  V30 6 C -0.1062 0.4531 0.0838 0
M  V30 7 C -1.3671 1.6792 2.118 0
M  V30 8 C -1.4687 0.2216 -0.6386 0
M  V30 9 C 0.6724 1.7239 -0.4064 0
M  V30 10 C 0.9211 -0.7583 -0.054 0
M  V30 11 C -2.829 1.3213 2.3583 0
M  V30 12 C -2.2512 1.3023 -1.0995 0
M  V30 13 C -2.0286 -1.0628 -0.7756 0
M  V30 14 C 0.6707 2.0972 -1.7686 0
M  V30 15 C 1.4676 2.5033 0.4562 0
M  V30 16 C 1.6333 -1.049 -1.4073 0
M  V30 17 C -3.4874 1.1049 -1.723 0
M  V30 18 C -3.2661 -1.263 -1.3975 0
M  V30 19 C 1.3836 3.2065 -2.2334 0
M  V30 20 C 2.1816 3.6148 -0.0078 0
M  V30 21 N 2.7635 -2.0125 -1.3016 0
M  V30 22 C 0.6971 -1.557 -2.5099 0
M  V30 23 C -3.9914 -0.1799 -1.8791 0
M  V30 24 C 2.1358 3.9694 -1.3505 0
M  V30 25 C 3.9684 -1.3941 -0.7468 0
M  V30 26 C 2.4561 -3.2552 -0.598 0
M  V30 27 H -2.3823 -2.3745 3.6049 0
M  V30 28 H -0.9006 -3.2051 3.0165 0
M  V30 29 H -1.05 -2.7349 4.7223 0
M  V30 30 H 0.5142 0.6626 2.1686 0
M  V30 31 H -1.2999 2.5328 1.4365 0
M  V30 32 H -0.9777 2.049 3.0763 0
M  V30 33 H 0.4483 -1.6841 0.2916 0
M  V30 34 H 1.7162 -0.5619 0.6793 0
M  V30 35 H -3.3971 2.2263 2.5983 0
M  V30 36 H -2.9362 0.6384 3.2067 0
M  V30 37 H -3.2946 0.8561 1.4882 0
M  V30 38 H -1.9158 2.3298 -0.9683 0
M  V30 39 H -1.5212 -1.9426 -0.3909 0
M  V30 40 H 0.1131 1.5185 -2.5025 0
M  V30 41 H 1.5691 2.2735 1.5126 0
M  V30 42 H 2.067 -0.1217 -1.793 0
M  V30 43 H -4.0583 1.9603 -2.0753 0
M  V30 44 H -3.6644 -2.2695 -1.4968 0
M  V30 45 H 1.3535 3.4655 -3.2886 0
M  V30 46 H 2.781 4.1996 0.6859 0
M  V30 47 H -0.0185 -0.7896 -2.8129 0
M  V30 48 H 1.2647 -1.8175 -3.4115 0
M  V30 49 H 0.1387 -2.4463 -2.2029 0
M  V30 50 H -4.9531 -0.3355 -2.36 0
M  V30 51 H 2.6933 4.8304 -1.7087 0
M  V30 52 H 4.8164 -2.0852 -0.8138 0
M  V30 53 H 4.2511 -0.5049 -1.3212 0
M  V30 54 H 3.8505 -1.1052 0.3025 0
M  V30 55 H 3.2848 -3.9642 -0.7077 0
M  V30 56 H 1.5754 -3.7503 -1.0183 0
M  V30 57 H 2.2901 -3.1024 0.4739 0
M  V30 END ATOM
M  V30 BEGIN BOND
M  V30 1 2 1 2
M  V30 2 1 2 3
M  V30 3 1 2 4
M  V30 4 1 3 5
M  V30 5 1 5 6
M  V30 6 1 5 7
M  V30 7 1 6 8
M  V30 8 1 6 9
M  V30 9 1 6 10
M  V30 10 1 7 11
M  V30 11 2 8 12
M  V30 12 1 8 13
M  V30 13 2 9 14
M  V30 14 1 9 15
M  V30 15 1 10 16
M  V30 16 1 12 17
M  V30 17 2 13 18
M  V30 18 1 14 19
M  V30 19 2 15 20
M  V30 20 1 16 21
M  V30 21 1 16 22
M  V30 22 2 17 23
M  V30 23 2 19 24
M  V30 24 1 21 25
M  V30 25 1 21 26
M  V30 26 1 18 23
M  V30 27 1 20 24
M  V30 28 1 4 27
M  V30 29 1 4 28
M  V30 30 1 4 29
M  V30 31 1 5 30
M  V30 32 1 7 31
M  V30 33 1 7 32
M  V30 34 1 10 33
M  V30 35 1 10 34
M  V30 36 1 11 35
M  V30 37 1 11 36
M  V30 38 1 11 37
M  V30 39 1 12 38
M  V30 40 1 13 39
M  V30 41 1 14 40
M  V30 42 1 15 41
M  V30 43 1 16 42
M  V30 44 1 17 43
M  V30 45 1 18 44
M  V30 46 1 19 45
M  V30 47 1 20 46
M  V30 48 1 22 47
M  V30 49 1 22 48
M  V30 50 1 22 49
M  V30 51 1 23 50
M  V30 52 1 24 51
M  V30 53 1 25 52
M  V30 54 1 25 53
M  V30 55 1 25 54
M  V30 56 1 26 55
M  V30 57 1 26 56
M  V30 58 1 26 57
M  V30 END BOND
M  V30 END CTAB
M  END
>  <Column 1>
1306

>  <level_0>
1452

>  <index>
1452

>  <Unnamed: 0>
1452

>  <NO.>
1464

>  <Name>
levacetylmethadol

>  <IUPAC_name>
[6-(dimethylamino)-4-4-diphenylheptan-3-yl] acetate

>  <SMILES>
CCC(OC(C)=O)C(CC(C)N(C)C)(c1ccccc1)c1ccccc1

>  <CID>
10517

>  <logBB>


>  <BBB+/BBB->
BBB+

>  <Inchi>
InChI=1S/C23H31NO2/c1-6-22(26-19(3)25)23(17-18(2)24(4)5-20-13-9-7-10-14-20)21-15-11-8-12-16-21/h7-16-18-22H-6-17H2-1-5H3

>  <threshold>
-1

>  <reference>
R1|R19|R6|R6|R27|R27|R30|R37|

>  <group>
B

>  <Class>
1

>  <ABC>
19.41

>  <ABCGG>
17.61

>  <nAcid>
0

>  <nBase>
1

>  <nAromAtom>
12

>  <nAromBond>
12

>  <nAtom>
57

>  <nHeavyAtom>
26

>  <nSpiro>
0

>  <nBridgehead>
0

>  <nHetero>
3

>  <nN>
1

>  <nO>
2

>  <nF>
0

>  <BalabanJ>
2.43

>  <BertzCT>
642.37

>  <nBonds>
58

>  <nBondsO>
27

>  <nBondsS>
45

>  <nBondsD>
1

>  <nBondsT>
0

>  <nBondsA>
12

>  <nBondsM>
13

>  <nBondsKS>
51

>  <nBondsKD>
7

>  <RNCG>
0.25

>  <RPCG>
0.16

>  <FCSP3>
0.43

>  <SZ>
32

>  <Sm>
29.43

>  <Sv>
33.59

>  <Sse>
56.09

>  <Sp>
37

>  <Si>
64.15

>  <MZ>
0.56

>  <Mm>
0.52

>  <Mv>
0.59

>  <Mse>
0.98

>  <Mp>
0.65

>  <Mi>
1.13

>  <NsCH3>
5

>  <NdCH2>
0

>  <NssCH2>
2

>  <NtCH>
0

>  <NdsCH>
0

>  <NaaCH>
10

>  <NsssCH>
2

>  <NddC>
0

>  <NtsC>
0

>  <NdssC>
1

>  <NaasC>
2

>  <NaaaC>
0

>  <NssssC>
1

>  <NsNH3>
0

>  <NsNH2>
0

>  <NssNH2>
0

>  <NdNH>
0

>  <NssNH>
0

>  <NaaNH>
0

>  <NtN>
0

>  <NsssNH>
0

>  <NdsN>
0

>  <NaaN>
0

>  <NsssN>
1

>  <NddsN>
0

>  <NaasN>
0

>  <NssssN>
0

>  <NsOH>
0

>  <NdO>
1

>  <NssO>
1

>  <NaaO>
0

>  <NsF>
0

>  <NsSiH3>
0

>  <NssSiH2>
0

>  <NsssSiH>
0

>  <NssssSi>
0

>  <NsPH2>
0

>  <NssPH>
0

>  <NsssP>
0

>  <NdsssP>
0

>  <NsssssP>
0

>  <NsSH>
0

>  <NdS>
0

>  <NssS>
0

>  <NaaS>
0

>  <NdssS>
0

>  <NddssS>
0

>  <NsCl>
0

>  <NsBr>
0

>  <NsI>
0

>  <fragCpx>
79.03

>  <fMF>
0.23

>  <nHBAcc>
3

>  <nHBDon>
0

>  <Kier1>
22.29

>  <Kier2>
10.52

>  <Lipinski>
1

>  <GhoseFilter>
1

>  <FilterItLogS>
-5.28

>  <VMcGowan>
304.83

>  <LabuteASA>
157.54

>  <PEOE_VSA1>
9.64

>  <PEOE_VSA2>
4.79

>  <PEOE_VSA3>
0

>  <PEOE_VSA4>
0

>  <PEOE_VSA5>
0

>  <PEOE_VSA6>
67.59

>  <PEOE_VSA7>
44.99

>  <PEOE_VSA8>
12.97

>  <PEOE_VSA9>
5.41

>  <PEOE_VSA10>
6.1

>  <PEOE_VSA11>
0

>  <PEOE_VSA12>
0

>  <PEOE_VSA13>
0

>  <SMR_VSA1>
9.53

>  <SMR_VSA2>
0

>  <SMR_VSA3>
4.9

>  <SMR_VSA4>
0

>  <SMR_VSA5>
51.17

>  <SMR_VSA6>
14.1

>  <SMR_VSA7>
71.79

>  <SMR_VSA8>
0

>  <SMR_VSA9>
0

>  <SlogP_VSA1>
0

>  <SlogP_VSA2>
37.11

>  <SlogP_VSA3>
14.95

>  <SlogP_VSA4>
0

>  <SlogP_VSA5>
44.74

>  <SlogP_VSA6>
60.66

>  <SlogP_VSA7>
0

>  <SlogP_VSA8>
0

>  <SlogP_VSA9>
0

>  <SlogP_VSA10>
0

>  <SlogP_VSA11>
0

>  <EState_VSA1>
5.41

>  <EState_VSA2>
12.07

>  <EState_VSA3>
6.04

>  <EState_VSA4>
12.84

>  <EState_VSA5>
18.05

>  <EState_VSA6>
0

>  <EState_VSA7>
12.13

>  <EState_VSA8>
81.37

>  <EState_VSA9>
4.74

>  <EState_VSA10>
4.79

>  <VSA_EState1>
5.9

>  <VSA_EState2>
14.13

>  <VSA_EState3>
0

>  <VSA_EState4>
1.98

>  <VSA_EState5>
-0.23

>  <VSA_EState6>
21.25

>  <VSA_EState7>
1.38

>  <VSA_EState8>
5.81

>  <VSA_EState9>
4.19

>  <apol>
61.78

>  <bpol>
35.41

>  <nRing>
2

>  <nHRing>
0

>  <naRing>
2

>  <naHRing>
0

>  <nARing 2>
0

>  <nAHRing 2>
0

>  <nFRing>
0

>  <nFHRing>
0

>  <nFaRing>
0

>  <nFaHRing>
0

>  <nFARing 2>
0

>  <nFAHRing 2>
0

>  <nRot>
8

>  <SLogP>
4.65

>  <SMR>
107.28

>  <TopoPSA(NO)>
29.54

>  <TopoPSA>
29.54

>  <JGI1>
0.22

>  <JGI2>
0.1

>  <JGI3>
0.06

>  <JGI4>
0.03

>  <JGI5>
0.02

>  <Diameter>
8

>  <Radius>
4

>  <TMWC10>
128.89

>  <TSRW10>
60.85

>  <MW>
353.24

>  <AMW>
6.2

>  <WPath>
1436

>  <WPol>
43

>  <Zagreb1>
128

>  <Zagreb2>
150

>  <mZagreb2>
5.99

>  <yes>


>  <nAR-cont>
0.336376

>  <nHA-cont>
0.892715677

>  <MWHBN>
0.159619636

>  <MWHBN-cont>
0.955032056

>  <TPSA-cont>
0.793792457

>  <pka_cont>
0.97

>  <yes.1>


>  <BBB_SCORE>
4.734224674

>  <MMFF94 Energy>
93.505

$$$$
Compound 1100
Actelion Java MolfileCreator 2.0

  0  0  0  0  0  0              0 V3000
M  V30 BEGIN CTAB
M  V30 COUNTS 32 32 0 0 0
M  V30 BEGIN ATOM
M  V30 1 O -1.7904 0.0777 -2.2579 0
M  V30 2 C -1.082 -0.9146 -2.2481 0
M  V30 3 O -0.3579 -1.3879 -1.2109 0
M  V30 4 N -0.9153 -1.7174 -3.3217 0
M  V30 5 C -0.4113 -0.6395 0.027 0 CFG=2
M  V30 6 C 1.0543 -0.3081 0.4301 0
M  V30 7 C -1.1291 -1.5173 1.0682 0
M  V30 8 C 1.7889 0.4967 -0.6646 0
M  V30 9 C 1.1841 0.4445 1.7669 0
M  V30 10 C -2.5434 -1.9007 0.648 0
M  V30 11 C 1.2958 1.9398 -0.7692 0
M  V30 12 C 0.6727 1.8817 1.6855 0
M  V30 13 C 1.3696 2.661 0.5736 0
M  V30 14 H -1.3957 -1.4941 -4.1795 0
M  V30 15 H -0.3174 -2.5257 -3.2557 0
M  V30 16 H -0.9804 0.2886 -0.0936 0
M  V30 17 H 1.5881 -1.2639 0.5265 0
M  V30 18 H -0.5594 -2.44 1.2317 0
M  V30 19 H -1.196 -0.9937 2.0269 0
M  V30 20 H 2.8613 0.5106 -0.4285 0
M  V30 21 H 1.7027 0.0061 -1.6401 0
M  V30 22 H 0.6752 -0.0865 2.5768 0
M  V30 23 H 2.2447 0.4688 2.0517 0
M  V30 24 H -3.0343 -2.4606 1.4507 0
M  V30 25 H -2.5394 -2.5352 -0.2432 0
M  V30 26 H -3.145 -1.0105 0.4389 0
M  V30 27 H 1.9021 2.4797 -1.5057 0
M  V30 28 H 0.2647 1.9586 -1.14 0
M  V30 29 H -0.4105 1.8865 1.5185 0
M  V30 30 H 0.8444 2.3851 2.6441 0
M  V30 31 H 0.9219 3.6573 0.4835 0
M  V30 32 H 2.4224 2.8103 0.8442 0
M  V30 END ATOM
M  V30 BEGIN BOND
M  V30 1 2 1 2
M  V30 2 1 2 3
M  V30 3 1 2 4
M  V30 4 1 3 5
M  V30 5 1 5 6
M  V30 6 1 5 7
M  V30 7 1 6 8
M  V30 8 1 6 9
M  V30 9 1 7 10
M  V30 10 1 8 11
M  V30 11 1 9 12
M  V30 12 1 11 13
M  V30 13 1 12 13
M  V30 14 1 4 14
M  V30 15 1 4 15
M  V30 16 1 5 16
M  V30 17 1 6 17
M  V30 18 1 7 18
M  V30 19 1 7 19
M  V30 20 1 8 20
M  V30 21 1 8 21
M  V30 22 1 9 22
M  V30 23 1 9 23
M  V30 24 1 10 24
M  V30 25 1 10 25
M  V30 26 1 10 26
M  V30 27 1 11 27
M  V30 28 1 11 28
M  V30 29 1 12 29
M  V30 30 1 12 30
M  V30 31 1 13 31
M  V30 32 1 13 32
M  V30 END BOND
M  V30 BEGIN COLLECTION
M  V30 MDLV30/STERAC1 ATOMS=(1 5)
M  V30 END COLLECTION
M  V30 END CTAB
M  END
>  <Column 1>
1307

>  <level_0>
1453

>  <index>
1453

>  <Unnamed: 0>
1453

>  <NO.>
1465

>  <Name>
procymate

>  <IUPAC_name>
1-cyclohexylpropyl carbamate

>  <SMILES>
CCC(OC(N)=O)C1CCCCC1

>  <CID>
3050432

>  <logBB>


>  <BBB+/BBB->
BBB+

>  <Inchi>
InChI=1S/C10H19NO2/c1-2-9(13-10(11)12)8-6-4-3-5-7-8/h8-9H-2-7H2-1H3-(H2-11-12)

>  <threshold>
-1

>  <reference>
R1|R19|R6|R27|R27|R30|

>  <group>
B

>  <Class>
-1

>  <ABC>
9.37

>  <ABCGG>
8.88

>  <nAcid>
0

>  <nBase>
0

>  <nAromAtom>
0

>  <nAromBond>
0

>  <nAtom>
32

>  <nHeavyAtom>
13

>  <nSpiro>
0

>  <nBridgehead>
0

>  <nHetero>
3

>  <nN>
1

>  <nO>
2

>  <nF>
0

>  <BalabanJ>
2.34

>  <BertzCT>
164.31

>  <nBonds>
32

>  <nBondsO>
13

>  <nBondsS>
31

>  <nBondsD>
1

>  <nBondsT>
0

>  <nBondsA>
0

>  <nBondsM>
1

>  <nBondsKS>
31

>  <nBondsKD>
1

>  <RNCG>
0.33

>  <RPCG>
0.3

>  <FCSP3>
0.9

>  <SZ>
17

>  <Sm>
15.42

>  <Sv>
17.33

>  <Sse>
31.76

>  <Sp>
19.21

>  <Si>
36.65

>  <MZ>
0.53

>  <Mm>
0.48

>  <Mv>
0.54

>  <Mse>
0.99

>  <Mp>
0.6

>  <Mi>
1.15

>  <NsCH3>
1

>  <NdCH2>
0

>  <NssCH2>
6

>  <NtCH>
0

>  <NdsCH>
0

>  <NaaCH>
0

>  <NsssCH>
2

>  <NddC>
0

>  <NtsC>
0

>  <NdssC>
1

>  <NaasC>
0

>  <NaaaC>
0

>  <NssssC>
0

>  <NsNH3>
0

>  <NsNH2>
1

>  <NssNH2>
0

>  <NdNH>
0

>  <NssNH>
0

>  <NaaNH>
0

>  <NtN>
0

>  <NsssNH>
0

>  <NdsN>
0

>  <NaaN>
0

>  <NsssN>
0

>  <NddsN>
0

>  <NaasN>
0

>  <NssssN>
0

>  <NsOH>
0

>  <NdO>
1

>  <NssO>
1

>  <NaaO>
0

>  <NsF>
0

>  <NsSiH3>
0

>  <NssSiH2>
0

>  <NsssSiH>
0

>  <NssssSi>
0

>  <NsPH2>
0

>  <NssPH>
0

>  <NsssP>
0

>  <NdsssP>
0

>  <NsssssP>
0

>  <NsSH>
0

>  <NdS>
0

>  <NssS>
0

>  <NaaS>
0

>  <NdssS>
0

>  <NddssS>
0

>  <NsCl>
0

>  <NsBr>
0

>  <NsI>
0

>  <fragCpx>
13.03

>  <fMF>
0.19

>  <nHBAcc>
2

>  <nHBDon>
1

>  <Kier1>
11.08

>  <Kier2>
5.67

>  <Lipinski>
1

>  <GhoseFilter>
1

>  <FilterItLogS>
-1.49

>  <VMcGowan>
158.32

>  <LabuteASA>
79.63

>  <PEOE_VSA1>
10.47

>  <PEOE_VSA2>
0

>  <PEOE_VSA3>
4.79

>  <PEOE_VSA4>
0

>  <PEOE_VSA5>
0

>  <PEOE_VSA6>
26.19

>  <PEOE_VSA7>
25.18

>  <PEOE_VSA8>
0

>  <PEOE_VSA9>
0

>  <PEOE_VSA10>
6.1

>  <PEOE_VSA11>
0

>  <PEOE_VSA12>
0

>  <PEOE_VSA13>
0

>  <SMR_VSA1>
9.53

>  <SMR_VSA2>
0

>  <SMR_VSA3>
0

>  <SMR_VSA4>
11.65

>  <SMR_VSA5>
51.55

>  <SMR_VSA6>
0

>  <SMR_VSA7>
0

>  <SMR_VSA8>
0

>  <SMR_VSA9>
0

>  <SlogP_VSA1>
5.73

>  <SlogP_VSA2>
12.2

>  <SlogP_VSA3>
4.74

>  <SlogP_VSA4>
5.92

>  <SlogP_VSA5>
45.45

>  <SlogP_VSA6>
0

>  <SlogP_VSA7>
0

>  <SlogP_VSA8>
0

>  <SlogP_VSA9>
0

>  <SlogP_VSA10>
4.79

>  <SlogP_VSA11>
0

>  <EState_VSA1>
6.09

>  <EState_VSA2>
6.1

>  <EState_VSA3>
5.92

>  <EState_VSA4>
6.42

>  <EState_VSA5>
32.1

>  <EState_VSA6>
0

>  <EState_VSA7>
6.92

>  <EState_VSA8>
0

>  <EState_VSA9>
10.47

>  <EState_VSA10>
4.79

>  <VSA_EState1>
5.08

>  <VSA_EState2>
10.61

>  <VSA_EState3>
0

>  <VSA_EState4>
5.01

>  <VSA_EState5>
0.55

>  <VSA_EState6>
0

>  <VSA_EState7>
6.54

>  <VSA_EState8>
2.04

>  <VSA_EState9>
0

>  <apol>
32.07

>  <bpol>
21.09

>  <nRing>
1

>  <nHRing>
0

>  <naRing>
0

>  <naHRing>
0

>  <nARing 2>
1

>  <nAHRing 2>
0

>  <nFRing>
0

>  <nFHRing>
0

>  <nFaRing>
0

>  <nFaHRing>
0

>  <nFARing 2>
0

>  <nFAHRing 2>
0

>  <nRot>
3

>  <SLogP>
2.44

>  <SMR>
51.32

>  <TopoPSA(NO)>
52.32

>  <TopoPSA>
52.32

>  <JGI1>
0.19

>  <JGI2>
0.07

>  <JGI3>
0.05

>  <JGI4>
0.04

>  <JGI5>
0.02

>  <Diameter>
7

>  <Radius>
4

>  <TMWC10>
91.51

>  <TSRW10>
43.15

>  <MW>
185.14

>  <AMW>
5.79

>  <WPath>
256

>  <WPol>
15

>  <Zagreb1>
58

>  <Zagreb2>
63

>  <mZagreb2>
3.11

>  <yes>


>  <nAR-cont>
0.816016

>  <nHA-cont>
0.841215992

>  <MWHBN>
0.220480977

>  <MWHBN-cont>
0.994653149

>  <TPSA-cont>
0.634773911

>  <pka_cont>
0.97

>  <yes.1>


>  <BBB_SCORE>
4.903759538

>  <MMFF94 Energy>
-63.049

$$$$
Compound 1101
Actelion Java MolfileCreator 2.0

  0  0  0  0  0  0              0 V3000
M  V30 BEGIN CTAB
M  V30 COUNTS 48 50 0 0 0
M  V30 BEGIN ATOM
M  V30 1 S 2.1874 2.1063 1.0527 0
M  V30 2 C 1.6376 2.2855 2.8385 0
M  V30 3 C 0.7458 1.0546 0.6765 0
M  V30 4 C 0.0892 2.4025 2.7416 0
M  V30 5 C 2.0378 1.013 3.6064 0
M  V30 6 C 2.3738 3.4794 3.4542 0
M  V30 7 N -0.2548 1.5629 1.6026 0
M  V30 8 C -0.2237 1.4475 -0.4714 0
M  V30 9 C -0.3315 3.8748 2.6032 0
M  V30 10 C -1.2471 1.6972 0.7005 0
M  V30 11 N -0.629 0.3616 -1.4008 0
M  V30 12 O -0.4125 4.6683 3.5312 0
M  V30 13 O -0.5174 4.3097 1.3414 0
M  V30 14 O -2.4084 2.0038 0.8225 0
M  V30 15 C 0.2839 -0.3979 -2.0963 0
M  V30 16 O 1.4963 -0.2252 -2.0077 0
M  V30 17 C -0.3359 -1.4703 -3.0081 0
M  V30 18 O -1.4696 -2.0812 -2.3805 0
M  V30 19 C -0.8498 -0.8274 -4.3041 0
M  V30 20 C -1.2539 -2.9539 -1.3492 0
M  V30 21 C 0.2653 -0.2868 -5.1858 0
M  V30 22 C -0.0149 -3.3569 -0.8492 0
M  V30 23 C -2.4208 -3.4544 -0.7645 0
M  V30 24 C 0.0511 -4.2478 0.2269 0
M  V30 25 C -2.3552 -4.3437 0.3091 0
M  V30 26 C -1.1168 -4.7402 0.8059 0
M  V30 27 H 0.9163 -0.0188 0.8119 0
M  V30 28 H -0.4266 1.9967 3.6187 0
M  V30 29 H 3.1222 0.8538 3.5863 0
M  V30 30 H 1.5606 0.1107 3.2093 0
M  V30 31 H 1.7394 1.0949 4.6583 0
M  V30 32 H 2.239 4.4019 2.8789 0
M  V30 33 H 3.4532 3.2947 3.514 0
M  V30 34 H 2.0222 3.6652 4.4756 0
M  V30 35 H 0.0256 2.3633 -1.0192 0
M  V30 36 H -1.6091 0.1005 -1.481 0
M  V30 37 H -0.7749 5.2505 1.4412 0
M  V30 38 H 0.4156 -2.2265 -3.2638 0
M  V30 39 H -1.5578 -0.0205 -4.0767 0
M  V30 40 H -1.4218 -1.5732 -4.8705 0
M  V30 41 H -0.1499 0.1017 -6.1211 0
M  V30 42 H 0.8035 0.5299 -4.6956 0
M  V30 43 H 0.9838 -1.0736 -5.436 0
M  V30 44 H 0.9237 -3.0042 -1.2644 0
M  V30 45 H -3.3919 -3.1496 -1.1475 0
M  V30 46 H 1.0192 -4.559 0.6123 0
M  V30 47 H -3.2699 -4.7256 0.7548 0
M  V30 48 H -1.0612 -5.4335 1.6412 0
M  V30 END ATOM
M  V30 BEGIN BOND
M  V30 1 1 1 2
M  V30 2 1 1 3
M  V30 3 1 2 4
M  V30 4 1 2 5
M  V30 5 1 2 6
M  V30 6 1 3 7
M  V30 7 1 3 8
M  V30 8 1 4 9
M  V30 9 1 7 10
M  V30 10 1 8 11
M  V30 11 2 9 12
M  V30 12 1 9 13
M  V30 13 2 10 14
M  V30 14 1 11 15
M  V30 15 2 15 16
M  V30 16 1 15 17
M  V30 17 1 17 18
M  V30 18 1 17 19
M  V30 19 1 18 20
M  V30 20 1 19 21
M  V30 21 2 20 22
M  V30 22 1 20 23
M  V30 23 1 22 24
M  V30 24 2 23 25
M  V30 25 2 24 26
M  V30 26 1 4 7
M  V30 27 1 8 10
M  V30 28 1 25 26
M  V30 29 1 3 27
M  V30 30 1 4 28
M  V30 31 1 5 29
M  V30 32 1 5 30
M  V30 33 1 5 31
M  V30 34 1 6 32
M  V30 35 1 6 33
M  V30 36 1 6 34
M  V30 37 1 8 35
M  V30 38 1 11 36
M  V30 39 1 13 37
M  V30 40 1 17 38
M  V30 41 1 19 39
M  V30 42 1 19 40
M  V30 43 1 21 41
M  V30 44 1 21 42
M  V30 45 1 21 43
M  V30 46 1 22 44
M  V30 47 1 23 45
M  V30 48 1 24 46
M  V30 49 1 25 47
M  V30 50 1 26 48
M  V30 END BOND
M  V30 END CTAB
M  END
>  <Column 1>
1308

>  <level_0>
1454

>  <index>
1454

>  <Unnamed: 0>
1454

>  <NO.>
1466

>  <Name>
mls006011441

>  <IUPAC_name>
3-3-dimethyl-7-oxo-6-(2-phenoxybutanoylamino)-4-thia-1-azabicyclo[3.2.0]heptane-2-carboxylic acid

>  <SMILES>
CCC(Oc1ccccc1)C(=O)NC1C(=O)N2C1SC(C)(C)C2C(=O)O

>  <CID>
65039

>  <logBB>


>  <BBB+/BBB->
BBB-

>  <Inchi>
InChI=1S/C18H22N2O5S/c1-4-11(25-10-8-6-5-7-9-10)14(21)19-12-15(22)20-13(17(23)24)18(2-3)26-16(12)20/h5-9-11-13-16H-4H2-1-3H3-(H-19-21)(H-23-24)

>  <threshold>
-1

>  <reference>
R1|R19|R14|R27|R27|R30|

>  <group>
B

>  <Class>
1

>  <ABC>
20.21

>  <ABCGG>
17.3

>  <nAcid>
1

>  <nBase>
0

>  <nAromAtom>
6

>  <nAromBond>
6

>  <nAtom>
48

>  <nHeavyAtom>
26

>  <nSpiro>
0

>  <nBridgehead>
0

>  <nHetero>
8

>  <nN>
2

>  <nO>
5

>  <nF>
0

>  <BalabanJ>
1.58

>  <BertzCT>
723.55

>  <nBonds>
50

>  <nBondsO>
28

>  <nBondsS>
41

>  <nBondsD>
3

>  <nBondsT>
0

>  <nBondsA>
6

>  <nBondsM>
9

>  <nBondsKS>
44

>  <nBondsKD>
6

>  <RNCG>
0.16

>  <RPCG>
0.11

>  <FCSP3>
0.5

>  <SZ>
33.33

>  <Sm>
31.51

>  <Sv>
30.24

>  <Sse>
48.82

>  <Sp>
32.24

>  <Si>
54.12

>  <MZ>
0.69

>  <Mm>
0.66

>  <Mv>
0.63

>  <Mse>
1.02

>  <Mp>
0.67

>  <Mi>
1.13

>  <NsCH3>
3

>  <NdCH2>
0

>  <NssCH2>
1

>  <NtCH>
0

>  <NdsCH>
0

>  <NaaCH>
5

>  <NsssCH>
4

>  <NddC>
0

>  <NtsC>
0

>  <NdssC>
3

>  <NaasC>
1

>  <NaaaC>
0

>  <NssssC>
1

>  <NsNH3>
0

>  <NsNH2>
0

>  <NssNH2>
0

>  <NdNH>
0

>  <NssNH>
1

>  <NaaNH>
0

>  <NtN>
0

>  <NsssNH>
0

>  <NdsN>
0

>  <NaaN>
0

>  <NsssN>
1

>  <NddsN>
0

>  <NaasN>
0

>  <NssssN>
0

>  <NsOH>
1

>  <NdO>
3

>  <NssO>
1

>  <NaaO>
0

>  <NsF>
0

>  <NsSiH3>
0

>  <NssSiH2>
0

>  <NsssSiH>
0

>  <NssssSi>
0

>  <NsPH2>
0

>  <NssPH>
0

>  <NsssP>
0

>  <NdsssP>
0

>  <NsssssP>
0

>  <NsSH>
0

>  <NdS>
0

>  <NssS>
1

>  <NaaS>
0

>  <NdssS>
0

>  <NddssS>
0

>  <NsCl>
0

>  <NsBr>
0

>  <NsI>
0

>  <fragCpx>
134.08

>  <fMF>
0.35

>  <nHBAcc>
5

>  <nHBDon>
2

>  <Kier1>
20.73

>  <Kier2>
8.16

>  <Lipinski>
1

>  <GhoseFilter>
1

>  <FilterItLogS>
-2.32

>  <VMcGowan>
271.76

>  <LabuteASA>
155.62

>  <PEOE_VSA1>
20.06

>  <PEOE_VSA2>
9.59

>  <PEOE_VSA3>
4.79

>  <PEOE_VSA4>
0

>  <PEOE_VSA5>
11.76

>  <PEOE_VSA6>
25.12

>  <PEOE_VSA7>
32.4

>  <PEOE_VSA8>
4.75

>  <PEOE_VSA9>
0

>  <PEOE_VSA10>
23.21

>  <PEOE_VSA11>
6.1

>  <PEOE_VSA12>
5.91

>  <PEOE_VSA13>
5.91

>  <SMR_VSA1>
24.23

>  <SMR_VSA2>
0

>  <SMR_VSA3>
10.22

>  <SMR_VSA4>
0

>  <SMR_VSA5>
55.5

>  <SMR_VSA6>
0

>  <SMR_VSA7>
30.33

>  <SMR_VSA8>
0

>  <SMR_VSA9>
5.75

>  <SlogP_VSA1>
10.05

>  <SlogP_VSA2>
56.1

>  <SlogP_VSA3>
14.38

>  <SlogP_VSA4>
0

>  <SlogP_VSA5>
27.19

>  <SlogP_VSA6>
30.33

>  <SlogP_VSA7>
0

>  <SlogP_VSA8>
0

>  <SlogP_VSA9>
0

>  <SlogP_VSA10>
0

>  <SlogP_VSA11>
5.75

>  <EState_VSA1>
28.9

>  <EState_VSA2>
17.19

>  <EState_VSA3>
12.17

>  <EState_VSA4>
0

>  <EState_VSA5>
16.66

>  <EState_VSA6>
25.98

>  <EState_VSA7>
25.12

>  <EState_VSA8>
5.32

>  <EState_VSA9>
4.74

>  <EState_VSA10>
19.49

>  <VSA_EState1>
5.09

>  <VSA_EState2>
37.89

>  <VSA_EState3>
11.81

>  <VSA_EState4>
0

>  <VSA_EState5>
-1.17

>  <VSA_EState6>
7.41

>  <VSA_EState7>
-0.26

>  <VSA_EState8>
5.43

>  <VSA_EState9>
0

>  <apol>
53.84

>  <bpol>
31.15

>  <nRing>
3

>  <nHRing>
2

>  <naRing>
1

>  <naHRing>
0

>  <nARing 2>
2

>  <nAHRing 2>
2

>  <nFRing>
1

>  <nFHRing>
1

>  <nFaRing>
0

>  <nFaHRing>
0

>  <nFARing 2>
1

>  <nFAHRing 2>
1

>  <nRot>
6

>  <SLogP>
1.48

>  <SMR>
96.81

>  <TopoPSA(NO)>
95.94

>  <TopoPSA>
121.24

>  <JGI1>
0.23

>  <JGI2>
0.09

>  <JGI3>
0.09

>  <JGI4>
0.06

>  <JGI5>
0.03

>  <Diameter>
13

>  <Radius>
7

>  <TMWC10>
131.61

>  <TSRW10>
76.7

>  <MW>
378.12

>  <AMW>
7.88

>  <WPath>
1738

>  <WPol>
41

>  <Zagreb1>
140

>  <Zagreb2>
169

>  <mZagreb2>
5.65

>  <yes>


>  <nAR-cont>
1

>  <nHA-cont>
0.892715677

>  <MWHBN>
0.359984014

>  <MWHBN-cont>
0.632482226

>  <TPSA-cont>
0

>  <pka_cont>
0.97

>  <yes.1>


>  <BBB_SCORE>
3.326439016

>  <MMFF94 Energy>
71.708

$$$$
Compound 1102
Actelion Java MolfileCreator 2.0

  0  0  0  0  0  0              0 V3000
M  V30 BEGIN CTAB
M  V30 COUNTS 24 24 0 0 0
M  V30 BEGIN ATOM
M  V30 1 O -3.1372 0.7052 -1.5676 0
M  V30 2 C -2.266 0.4105 -0.7539 0
M  V30 3 N -2.4192 0.6914 0.5768 0
M  V30 4 C -1.0113 -0.3303 -1.1503 0
M  V30 5 C -1.5445 0.4292 1.5962 0
M  V30 6 C 0.1831 -0.0565 -0.2144 0
M  V30 7 O -1.8159 0.7342 2.7547 0
M  V30 8 C -0.272 -0.3016 1.2347 0
M  V30 9 C 1.3201 -1.0455 -0.6017 0
M  V30 10 C 0.67 1.3971 -0.3921 0
M  V30 11 C 2.5962 -0.949 0.2261 0
M  V30 12 H -3.2728 1.1667 0.8353 0
M  V30 13 H -1.2647 -1.3981 -1.1506 0
M  V30 14 H -0.7601 -0.0501 -2.1805 0
M  V30 15 H 0.5023 0.0156 1.9425 0
M  V30 16 H -0.4604 -1.3692 1.4034 0
M  V30 17 H 0.9468 -2.0752 -0.5252 0
M  V30 18 H 1.5855 -0.8958 -1.6565 0
M  V30 19 H 1.4599 1.6468 0.3238 0
M  V30 20 H 1.0689 1.5551 -1.4004 0
M  V30 21 H -0.1341 2.125 -0.2432 0
M  V30 22 H 3.3184 -1.6955 -0.1209 0
M  V30 23 H 3.0689 0.032 0.129 0
M  V30 24 H 2.4069 -1.1439 1.2853 0
M  V30 END ATOM
M  V30 BEGIN BOND
M  V30 1 2 1 2
M  V30 2 1 2 3
M  V30 3 1 2 4
M  V30 4 1 3 5
M  V30 5 1 4 6
M  V30 6 2 5 7
M  V30 7 1 5 8
M  V30 8 1 6 9
M  V30 9 1 6 10
M  V30 10 1 9 11
M  V30 11 1 6 8
M  V30 12 1 3 12
M  V30 13 1 4 13
M  V30 14 1 4 14
M  V30 15 1 8 15
M  V30 16 1 8 16
M  V30 17 1 9 17
M  V30 18 1 9 18
M  V30 19 1 10 19
M  V30 20 1 10 20
M  V30 21 1 10 21
M  V30 22 1 11 22
M  V30 23 1 11 23
M  V30 24 1 11 24
M  V30 END BOND
M  V30 END CTAB
M  END
>  <Column 1>
1309

>  <level_0>
1455

>  <index>
1455

>  <Unnamed: 0>
1455

>  <NO.>
1467

>  <Name>
bemegride

>  <IUPAC_name>
4-ethyl-4-methylpiperidine-2-6-dione

>  <SMILES>
CCC1(C)CC(=O)NC(=O)C1

>  <CID>
2310

>  <logBB>


>  <BBB+/BBB->
BBB+

>  <Inchi>
InChI=1S/C8H13NO2/c1-3-8(2)4-6(10)9-7(11)5-8/h3-5H2-1-2H3-(H-9-10-11)

>  <threshold>
-1

>  <reference>
R1|R13|R19|R6|R24|R27|R27|R27|R30|R30|

>  <group>
B

>  <Class>
1

>  <ABC>
8.16

>  <ABCGG>
7.87

>  <nAcid>
0

>  <nBase>
0

>  <nAromAtom>
0

>  <nAromBond>
0

>  <nAtom>
24

>  <nHeavyAtom>
11

>  <nSpiro>
0

>  <nBridgehead>
0

>  <nHetero>
3

>  <nN>
1

>  <nO>
2

>  <nF>
0

>  <BalabanJ>
2.55

>  <BertzCT>
182.27

>  <nBonds>
24

>  <nBondsO>
11

>  <nBondsS>
22

>  <nBondsD>
2

>  <nBondsT>
0

>  <nBondsA>
0

>  <nBondsM>
2

>  <nBondsKS>
22

>  <nBondsKD>
2

>  <RNCG>
0.29

>  <RPCG>
0.22

>  <FCSP3>
0.75

>  <SZ>
14

>  <Sm>
12.92

>  <Sv>
13.71

>  <Sse>
24.1

>  <Sp>
14.81

>  <Si>
27.41

>  <MZ>
0.58

>  <Mm>
0.54

>  <Mv>
0.57

>  <Mse>
1

>  <Mp>
0.62

>  <Mi>
1.14

>  <NsCH3>
2

>  <NdCH2>
0

>  <NssCH2>
3

>  <NtCH>
0

>  <NdsCH>
0

>  <NaaCH>
0

>  <NsssCH>
0

>  <NddC>
0

>  <NtsC>
0

>  <NdssC>
2

>  <NaasC>
0

>  <NaaaC>
0

>  <NssssC>
1

>  <NsNH3>
0

>  <NsNH2>
0

>  <NssNH2>
0

>  <NdNH>
0

>  <NssNH>
1

>  <NaaNH>
0

>  <NtN>
0

>  <NsssNH>
0

>  <NdsN>
0

>  <NaaN>
0

>  <NsssN>
0

>  <NddsN>
0

>  <NaasN>
0

>  <NssssN>
0

>  <NsOH>
0

>  <NdO>
2

>  <NssO>
0

>  <NaaO>
0

>  <NsF>
0

>  <NsSiH3>
0

>  <NssSiH2>
0

>  <NsssSiH>
0

>  <NssssSi>
0

>  <NsPH2>
0

>  <NssPH>
0

>  <NsssP>
0

>  <NdsssP>
0

>  <NsssssP>
0

>  <NsSH>
0

>  <NdS>
0

>  <NssS>
0

>  <NaaS>
0

>  <NdssS>
0

>  <NddssS>
0

>  <NsCl>
0

>  <NsBr>
0

>  <NsI>
0

>  <fragCpx>
11.03

>  <fMF>
0.25

>  <nHBAcc>
2

>  <nHBDon>
1

>  <Kier1>
9.09

>  <Kier2>
3.16

>  <Lipinski>
1

>  <GhoseFilter>
0

>  <FilterItLogS>
-2.25

>  <VMcGowan>
125.84

>  <LabuteASA>
66.16

>  <PEOE_VSA1>
0

>  <PEOE_VSA2>
14.91

>  <PEOE_VSA3>
0

>  <PEOE_VSA4>
0

>  <PEOE_VSA5>
0

>  <PEOE_VSA6>
13.85

>  <PEOE_VSA7>
11.84

>  <PEOE_VSA8>
12.84

>  <PEOE_VSA9>
0

>  <PEOE_VSA10>
0

>  <PEOE_VSA11>
0

>  <PEOE_VSA12>
11.81

>  <PEOE_VSA13>
0

>  <SMR_VSA1>
9.59

>  <SMR_VSA2>
0

>  <SMR_VSA3>
5.32

>  <SMR_VSA4>
5.41

>  <SMR_VSA5>
33.11

>  <SMR_VSA6>
0

>  <SMR_VSA7>
0

>  <SMR_VSA8>
0

>  <SMR_VSA9>
0

>  <SlogP_VSA1>
5.32

>  <SlogP_VSA2>
11.81

>  <SlogP_VSA3>
9.59

>  <SlogP_VSA4>
5.41

>  <SlogP_VSA5>
33.11

>  <SlogP_VSA6>
0

>  <SlogP_VSA7>
0

>  <SlogP_VSA8>
0

>  <SlogP_VSA9>
0

>  <SlogP_VSA10>
0

>  <SlogP_VSA11>
0

>  <EState_VSA1>
0

>  <EState_VSA2>
17.23

>  <EState_VSA3>
12.84

>  <EState_VSA4>
6.42

>  <EState_VSA5>
0

>  <EState_VSA6>
0

>  <EState_VSA7>
13.85

>  <EState_VSA8>
5.32

>  <EState_VSA9>
0

>  <EState_VSA10>
9.59

>  <VSA_EState1>
0

>  <VSA_EState2>
21.83

>  <VSA_EState3>
2.29

>  <VSA_EState4>
-0.1

>  <VSA_EState5>
-0.27

>  <VSA_EState6>
0

>  <VSA_EState7>
1.84

>  <VSA_EState8>
3.98

>  <VSA_EState9>
0

>  <apol>
24.73

>  <bpol>
15.35

>  <nRing>
1

>  <nHRing>
1

>  <naRing>
0

>  <naHRing>
0

>  <nARing 2>
1

>  <nAHRing 2>
1

>  <nFRing>
0

>  <nFHRing>
0

>  <nFaRing>
0

>  <nFaHRing>
0

>  <nFARing 2>
0

>  <nFAHRing 2>
0

>  <nRot>
1

>  <SLogP>
0.84

>  <SMR>
40.78

>  <TopoPSA(NO)>
46.17

>  <TopoPSA>
46.17

>  <JGI1>
0.41

>  <JGI2>
0.08

>  <JGI3>
0.1

>  <JGI4>
0.06

>  <JGI5>
0.02

>  <Diameter>
5

>  <Radius>
3

>  <TMWC10>
88.44

>  <TSRW10>
41.5

>  <MW>
155.09

>  <AMW>
6.46

>  <WPath>
144

>  <WPol>
14

>  <Zagreb1>
54

>  <Zagreb2>
60

>  <mZagreb2>
2.46

>  <yes>


>  <nAR-cont>
0.816016

>  <nHA-cont>
0.720786536

>  <MWHBN>
0.240895871

>  <MWHBN-cont>
0.973742804

>  <TPSA-cont>
0.67770473

>  <pka_cont>
0.97

>  <yes.1>


>  <BBB_SCORE>
4.837826203

>  <MMFF94 Energy>
-35.187

$$$$
Compound 1103
Actelion Java MolfileCreator 2.0

  0  0  0  0  0  0              0 V3000
M  V30 BEGIN CTAB
M  V30 COUNTS 22 22 0 0 0
M  V30 BEGIN ATOM
M  V30 1 O -0.9388 -3.0537 -0.9388 0
M  V30 2 C -0.6578 -1.9435 -0.5166 0
M  V30 3 O 0.598 -1.5925 -0.1225 0
M  V30 4 N -1.5042 -0.9057 -0.3579 0
M  V30 5 C 0.6017 -0.2142 0.3048 0 CFG=2
M  V30 6 C -0.8581 0.1634 0.1656 0
M  V30 7 C -2.9119 -0.9625 -0.6584 0
M  V30 8 C 1.498 0.5684 -0.6627 0
M  V30 9 C 1.0438 -0.1682 1.7608 0
M  V30 10 O -1.3546 1.2348 0.4802 0
M  V30 11 C 1.7411 2.0233 -0.2892 0
M  V30 12 H -3.0531 -1.4004 -1.6508 0
M  V30 13 H -3.3619 0.0325 -0.6185 0
M  V30 14 H -3.3967 -1.6133 0.0755 0
M  V30 15 H 2.4672 0.0598 -0.7462 0
M  V30 16 H 1.0649 0.5333 -1.6712 0
M  V30 17 H 0.4336 -0.841 2.3752 0
M  V30 18 H 2.0808 -0.5061 1.8629 0
M  V30 19 H 0.9561 0.8363 2.1862 0
M  V30 20 H 2.3585 2.5053 -1.0544 0
M  V30 21 H 0.8048 2.5836 -0.2173 0
M  V30 22 H 2.2727 2.109 0.6629 0
M  V30 END ATOM
M  V30 BEGIN BOND
M  V30 1 2 1 2
M  V30 2 1 2 3
M  V30 3 1 2 4
M  V30 4 1 3 5
M  V30 5 1 4 6
M  V30 6 1 4 7
M  V30 7 1 5 8
M  V30 8 1 5 9
M  V30 9 2 6 10
M  V30 10 1 8 11
M  V30 11 1 5 6
M  V30 12 1 7 12
M  V30 13 1 7 13
M  V30 14 1 7 14
M  V30 15 1 8 15
M  V30 16 1 8 16
M  V30 17 1 9 17
M  V30 18 1 9 18
M  V30 19 1 9 19
M  V30 20 1 11 20
M  V30 21 1 11 21
M  V30 22 1 11 22
M  V30 END BOND
M  V30 BEGIN COLLECTION
M  V30 MDLV30/STERAC1 ATOMS=(1 5)
M  V30 END COLLECTION
M  V30 END CTAB
M  END
>  <Column 1>
1310

>  <level_0>
1456

>  <index>
1456

>  <Unnamed: 0>
1456

>  <NO.>
1468

>  <Name>
paramethadione

>  <IUPAC_name>
5-ethyl-3-5-dimethyl-1-3-oxazolidine-2-4-dione

>  <SMILES>
CCC1(C)OC(=O)N(C)C1=O

>  <CID>
8280

>  <logBB>


>  <BBB+/BBB->
BBB+

>  <Inchi>
InChI=1S/C7H11NO3/c1-4-7(2)5(9)8(3)6(10)11-7/h4H2-1-3H3

>  <threshold>
-1

>  <reference>
R1|R13|R19|R6|R14|R23|R27|R27|R30|

>  <group>
B

>  <Class>
1

>  <ABC>
8.12

>  <ABCGG>
8.48

>  <nAcid>
0

>  <nBase>
0

>  <nAromAtom>
0

>  <nAromBond>
0

>  <nAtom>
22

>  <nHeavyAtom>
11

>  <nSpiro>
0

>  <nBridgehead>
0

>  <nHetero>
4

>  <nN>
1

>  <nO>
3

>  <nF>
0

>  <BalabanJ>
2.73

>  <BertzCT>
213.73

>  <nBonds>
22

>  <nBondsO>
11

>  <nBondsS>
20

>  <nBondsD>
2

>  <nBondsT>
0

>  <nBondsA>
0

>  <nBondsM>
2

>  <nBondsKS>
20

>  <nBondsKD>
2

>  <RNCG>
0.34

>  <RPCG>
0.33

>  <FCSP3>
0.71

>  <SZ>
14

>  <Sm>
13.09

>  <Sv>
12.88

>  <Sse>
22.54

>  <Sp>
13.49

>  <Si>
25.2

>  <MZ>
0.64

>  <Mm>
0.59

>  <Mv>
0.59

>  <Mse>
1.02

>  <Mp>
0.61

>  <Mi>
1.15

>  <NsCH3>
3

>  <NdCH2>
0

>  <NssCH2>
1

>  <NtCH>
0

>  <NdsCH>
0

>  <NaaCH>
0

>  <NsssCH>
0

>  <NddC>
0

>  <NtsC>
0

>  <NdssC>
2

>  <NaasC>
0

>  <NaaaC>
0

>  <NssssC>
1

>  <NsNH3>
0

>  <NsNH2>
0

>  <NssNH2>
0

>  <NdNH>
0

>  <NssNH>
0

>  <NaaNH>
0

>  <NtN>
0

>  <NsssNH>
0

>  <NdsN>
0

>  <NaaN>
0

>  <NsssN>
1

>  <NddsN>
0

>  <NaasN>
0

>  <NssssN>
0

>  <NsOH>
0

>  <NdO>
2

>  <NssO>
1

>  <NaaO>
0

>  <NsF>
0

>  <NsSiH3>
0

>  <NssSiH2>
0

>  <NsssSiH>
0

>  <NssssSi>
0

>  <NsPH2>
0

>  <NssPH>
0

>  <NsssP>
0

>  <NdsssP>
0

>  <NsssssP>
0

>  <NsSH>
0

>  <NdS>
0

>  <NssS>
0

>  <NaaS>
0

>  <NdssS>
0

>  <NddssS>
0

>  <NsCl>
0

>  <NsBr>
0

>  <NsI>
0

>  <fragCpx>
11.04

>  <fMF>
0.23

>  <nHBAcc>
3

>  <nHBDon>
0

>  <Kier1>
9.09

>  <Kier2>
2.8

>  <Lipinski>
1

>  <GhoseFilter>
0

>  <FilterItLogS>
-1.11

>  <VMcGowan>
117.62

>  <LabuteASA>
65.12

>  <PEOE_VSA1>
4.74

>  <PEOE_VSA2>
4.79

>  <PEOE_VSA3>
9.69

>  <PEOE_VSA4>
0

>  <PEOE_VSA5>
0

>  <PEOE_VSA6>
6.92

>  <PEOE_VSA7>
13.34

>  <PEOE_VSA8>
7.05

>  <PEOE_VSA9>
0

>  <PEOE_VSA10>
0

>  <PEOE_VSA11>
5.6

>  <PEOE_VSA12>
0

>  <PEOE_VSA13>
5.91

>  <SMR_VSA1>
14.33

>  <SMR_VSA2>
0

>  <SMR_VSA3>
4.9

>  <SMR_VSA4>
0

>  <SMR_VSA5>
25.87

>  <SMR_VSA6>
7.05

>  <SMR_VSA7>
0

>  <SMR_VSA8>
0

>  <SMR_VSA9>
0

>  <SlogP_VSA1>
0

>  <SlogP_VSA2>
29.55

>  <SlogP_VSA3>
9.53

>  <SlogP_VSA4>
0

>  <SlogP_VSA5>
20.27

>  <SlogP_VSA6>
0

>  <SlogP_VSA7>
0

>  <SlogP_VSA8>
0

>  <SlogP_VSA9>
0

>  <SlogP_VSA10>
4.79

>  <SlogP_VSA11>
0

>  <EState_VSA1>
11.69

>  <EState_VSA2>
5.91

>  <EState_VSA3>
6.42

>  <EState_VSA4>
4.9

>  <EState_VSA5>
7.05

>  <EState_VSA6>
6.92

>  <EState_VSA7>
6.92

>  <EState_VSA8>
0

>  <EState_VSA9>
4.74

>  <EState_VSA10>
9.59

>  <VSA_EState1>
4.86

>  <VSA_EState2>
23.09

>  <VSA_EState3>
0

>  <VSA_EState4>
-0.92

>  <VSA_EState5>
-0.26

>  <VSA_EState6>
0

>  <VSA_EState7>
-0.04

>  <VSA_EState8>
3.43

>  <VSA_EState9>
1.42

>  <apol>
22.53

>  <bpol>
16.22

>  <nRing>
1

>  <nHRing>
1

>  <naRing>
0

>  <naHRing>
0

>  <nARing 2>
1

>  <nAHRing 2>
1

>  <nFRing>
0

>  <nFHRing>
0

>  <nFaRing>
0

>  <nFaHRing>
0

>  <nFARing 2>
0

>  <nFAHRing 2>
0

>  <nRot>
1

>  <SLogP>
0.76

>  <SMR>
37.95

>  <TopoPSA(NO)>
46.61

>  <TopoPSA>
46.61

>  <JGI1>
0.36

>  <JGI2>
0.16

>  <JGI3>
0.11

>  <JGI4>
0.04

>  <JGI5>
0

>  <Diameter>
5

>  <Radius>
3

>  <TMWC10>
90.46

>  <TSRW10>
56.45

>  <MW>
157.07

>  <AMW>
7.14

>  <WPath>
138

>  <WPol>
17

>  <Zagreb1>
56

>  <Zagreb2>
67

>  <mZagreb2>
2.47

>  <yes>


>  <nAR-cont>
0.816016

>  <nHA-cont>
0.720786536

>  <MWHBN>
0.239372708

>  <MWHBN-cont>
0.975811147

>  <TPSA-cont>
0.674633257

>  <pka_cont>
0.97

>  <yes.1>


>  <BBB_SCORE>
4.83478577

>  <MMFF94 Energy>
-45.655

$$$$
Compound 1104
Actelion Java MolfileCreator 2.0

  0  0  0  0  0  0              0 V3000
M  V30 BEGIN CTAB
M  V30 COUNTS 36 37 0 0 0
M  V30 BEGIN ATOM
M  V30 1 O 3.7274 -2.3779 1.2677 0
M  V30 2 C 2.8722 -1.7303 0.6738 0
M  V30 3 N 2.7114 -0.3999 0.8892 0
M  V30 4 N 2.0419 -2.3101 -0.2296 0
M  V30 5 C 1.8047 0.4269 0.2872 0
M  V30 6 C 1.0554 -1.698 -0.9513 0
M  V30 7 O 1.7957 1.6231 0.5803 0
M  V30 8 C 0.8521 -0.1988 -0.7315 0
M  V30 9 O 0.3848 -2.3662 -1.739 0
M  V30 10 C -0.5892 -0.0153 -0.1731 0
M  V30 11 C 1.1141 0.505 -2.097 0
M  V30 12 C -1.5562 0.6782 -0.8117 0
M  V30 13 C -0.8935 -0.6871 1.1586 0
M  V30 14 C 2.5308 0.3309 -2.6452 0
M  V30 15 C -2.9633 0.8838 -0.3274 0
M  V30 16 C -1.2722 0.2863 2.2768 0
M  V30 17 C -3.0558 1.6306 1.0007 0
M  V30 18 C -2.719 0.7711 2.2164 0
M  V30 19 H 3.3326 0.0275 1.5621 0
M  V30 20 H 2.1645 -3.301 -0.3855 0
M  V30 21 H 0.4197 0.1231 -2.8571 0
M  V30 22 H 0.927 1.5832 -2.007 0
M  V30 23 H -1.3562 1.149 -1.7711 0
M  V30 24 H -1.68 -1.4398 1.0179 0
M  V30 25 H -0.0201 -1.2511 1.5027 0
M  V30 26 H 3.2808 0.7489 -1.9674 0
M  V30 27 H 2.6233 0.8544 -3.6026 0
M  V30 28 H 2.7695 -0.722 -2.8209 0
M  V30 29 H -3.4887 1.4777 -1.0865 0
M  V30 30 H -3.4906 -0.0764 -0.2802 0
M  V30 31 H -1.1376 -0.2307 3.2355 0
M  V30 32 H -0.5889 1.1442 2.2901 0
M  V30 33 H -4.0862 1.989 1.1197 0
M  V30 34 H -2.4166 2.5223 0.9846 0
M  V30 35 H -2.9188 1.3626 3.1187 0
M  V30 36 H -3.3974 -0.0901 2.2572 0
M  V30 END ATOM
M  V30 BEGIN BOND
M  V30 1 2 1 2
M  V30 2 1 2 3
M  V30 3 1 2 4
M  V30 4 1 3 5
M  V30 5 1 4 6
M  V30 6 2 5 7
M  V30 7 1 5 8
M  V30 8 2 6 9
M  V30 9 1 8 10
M  V30 10 1 8 11
M  V30 11 2 10 12
M  V30 12 1 10 13
M  V30 13 1 11 14
M  V30 14 1 12 15
M  V30 15 1 13 16
M  V30 16 1 15 17
M  V30 17 1 16 18
M  V30 18 1 6 8
M  V30 19 1 17 18
M  V30 20 1 3 19
M  V30 21 1 4 20
M  V30 22 1 11 21
M  V30 23 1 11 22
M  V30 24 1 12 23
M  V30 25 1 13 24
M  V30 26 1 13 25
M  V30 27 1 14 26
M  V30 28 1 14 27
M  V30 29 1 14 28
M  V30 30 1 15 29
M  V30 31 1 15 30
M  V30 32 1 16 31
M  V30 33 1 16 32
M  V30 34 1 17 33
M  V30 35 1 17 34
M  V30 36 1 18 35
M  V30 37 1 18 36
M  V30 END BOND
M  V30 END CTAB
M  END
>  <Column 1>
1311

>  <level_0>
1457

>  <index>
1457

>  <Unnamed: 0>
1457

>  <NO.>
1469

>  <Name>
heptabarb

>  <IUPAC_name>
5-(cyclohepten-1-yl)-5-ethyl-1-3-diazinane-2-4-6-trione

>  <SMILES>
CCC1(C2=CCCCCC2)C(=O)NC(=O)NC1=O

>  <CID>
10518

>  <logBB>


>  <BBB+/BBB->
BBB+

>  <Inchi>
InChI=1S/C13H18N2O3/c1-2-13(9-7-5-3-4-6-8-9)10(16)14-12(18)15-11(13)17/h7H-2-6-8H2-1H3-(H2-14-15-16-17-18)

>  <threshold>
-1

>  <reference>
R1|R13|R19|R6|R24|R27|R27|R27|R30|R30|

>  <group>
B

>  <Class>
1

>  <ABC>
13.58

>  <ABCGG>
12.35

>  <nAcid>
0

>  <nBase>
0

>  <nAromAtom>
0

>  <nAromBond>
0

>  <nAtom>
36

>  <nHeavyAtom>
18

>  <nSpiro>
0

>  <nBridgehead>
0

>  <nHetero>
5

>  <nN>
2

>  <nO>
3

>  <nF>
0

>  <BalabanJ>
2.21

>  <BertzCT>
405.95

>  <nBonds>
37

>  <nBondsO>
19

>  <nBondsS>
33

>  <nBondsD>
4

>  <nBondsT>
0

>  <nBondsA>
0

>  <nBondsM>
4

>  <nBondsKS>
33

>  <nBondsKD>
4

>  <RNCG>
0.15

>  <RPCG>
0.18

>  <FCSP3>
0.62

>  <SZ>
22.33

>  <Sm>
20.84

>  <Sv>
21.54

>  <Sse>
36.31

>  <Sp>
22.95

>  <Si>
40.95

>  <MZ>
0.62

>  <Mm>
0.58

>  <Mv>
0.6

>  <Mse>
1.01

>  <Mp>
0.64

>  <Mi>
1.14

>  <NsCH3>
1

>  <NdCH2>
0

>  <NssCH2>
6

>  <NtCH>
0

>  <NdsCH>
1

>  <NaaCH>
0

>  <NsssCH>
0

>  <NddC>
0

>  <NtsC>
0

>  <NdssC>
4

>  <NaasC>
0

>  <NaaaC>
0

>  <NssssC>
1

>  <NsNH3>
0

>  <NsNH2>
0

>  <NssNH2>
0

>  <NdNH>
0

>  <NssNH>
2

>  <NaaNH>
0

>  <NtN>
0

>  <NsssNH>
0

>  <NdsN>
0

>  <NaaN>
0

>  <NsssN>
0

>  <NddsN>
0

>  <NaasN>
0

>  <NssssN>
0

>  <NsOH>
0

>  <NdO>
3

>  <NssO>
0

>  <NaaO>
0

>  <NsF>
0

>  <NsSiH3>
0

>  <NssSiH2>
0

>  <NsssSiH>
0

>  <NssssSi>
0

>  <NsPH2>
0

>  <NssPH>
0

>  <NsssP>
0

>  <NdsssP>
0

>  <NsssssP>
0

>  <NsSH>
0

>  <NdS>
0

>  <NssS>
0

>  <NaaS>
0

>  <NdssS>
0

>  <NddssS>
0

>  <NsCl>
0

>  <NsBr>
0

>  <NsI>
0

>  <fragCpx>
55.05

>  <fMF>
0.36

>  <nHBAcc>
3

>  <nHBDon>
2

>  <Kier1>
14.41

>  <Kier2>
5.97

>  <Lipinski>
1

>  <GhoseFilter>
1

>  <FilterItLogS>
-3.24

>  <VMcGowan>
192.68

>  <LabuteASA>
106

>  <PEOE_VSA1>
0

>  <PEOE_VSA2>
20.22

>  <PEOE_VSA3>
4.79

>  <PEOE_VSA4>
0

>  <PEOE_VSA5>
0

>  <PEOE_VSA6>
19.42

>  <PEOE_VSA7>
37.68

>  <PEOE_VSA8>
0

>  <PEOE_VSA9>
0

>  <PEOE_VSA10>
5.41

>  <PEOE_VSA11>
0

>  <PEOE_VSA12>
11.81

>  <PEOE_VSA13>
0

>  <SMR_VSA1>
14.38

>  <SMR_VSA2>
0

>  <SMR_VSA3>
10.63

>  <SMR_VSA4>
5.41

>  <SMR_VSA5>
45.45

>  <SMR_VSA6>
0

>  <SMR_VSA7>
11.65

>  <SMR_VSA8>
0

>  <SMR_VSA9>
0

>  <SlogP_VSA1>
10.63

>  <SlogP_VSA2>
17.85

>  <SlogP_VSA3>
9.59

>  <SlogP_VSA4>
5.41

>  <SlogP_VSA5>
45.45

>  <SlogP_VSA6>
11.65

>  <SlogP_VSA7>
0

>  <SlogP_VSA8>
0

>  <SlogP_VSA9>
0

>  <SlogP_VSA10>
4.79

>  <SlogP_VSA11>
0

>  <EState_VSA1>
23.26

>  <EState_VSA2>
0

>  <EState_VSA3>
6.42

>  <EState_VSA4>
37.68

>  <EState_VSA5>
0

>  <EState_VSA6>
6.92

>  <EState_VSA7>
6.08

>  <EState_VSA8>
10.63

>  <EState_VSA9>
0

>  <EState_VSA10>
14.38

>  <VSA_EState1>
0

>  <VSA_EState2>
35.45

>  <VSA_EState3>
4.44

>  <VSA_EState4>
-0.32

>  <VSA_EState5>
-0.96

>  <VSA_EState6>
-0.72

>  <VSA_EState7>
7.22

>  <VSA_EState8>
1.81

>  <VSA_EState9>
0

>  <apol>
38.32

>  <bpol>
21.8

>  <nRing>
2

>  <nHRing>
1

>  <naRing>
0

>  <naHRing>
0

>  <nARing 2>
2

>  <nAHRing 2>
1

>  <nFRing>
0

>  <nFHRing>
0

>  <nFaRing>
0

>  <nFaHRing>
0

>  <nFARing 2>
0

>  <nFAHRing 2>
0

>  <nRot>
2

>  <SLogP>
1.64

>  <SMR>
65.57

>  <TopoPSA(NO)>
75.27

>  <TopoPSA>
75.27

>  <JGI1>
0.24

>  <JGI2>
0.11

>  <JGI3>
0.07

>  <JGI4>
0.04

>  <JGI5>
0.03

>  <Diameter>
8

>  <Radius>
4

>  <TMWC10>
110.22

>  <TSRW10>
59.11

>  <MW>
250.13

>  <AMW>
6.95

>  <WPath>
537

>  <WPol>
35

>  <Zagreb1>
92

>  <Zagreb2>
111

>  <mZagreb2>
4.13

>  <yes>


>  <nAR-cont>
1

>  <nHA-cont>
0.991161285

>  <MWHBN>
0.316145579

>  <MWHBN-cont>
0.789973088

>  <TPSA-cont>
0.47456866

>  <pka_cont>
0.97

>  <yes.1>


>  <BBB_SCORE>
4.610258237

>  <MMFF94 Energy>
-78.126

$$$$
Compound 1105
Actelion Java MolfileCreator 2.0

  0  0  0  0  0  0              0 V3000
M  V30 BEGIN CTAB
M  V30 COUNTS 25 25 0 0 0
M  V30 BEGIN ATOM
M  V30 1 O 2.4326 -0.1568 0.7842 0
M  V30 2 C 1.5423 -0.3206 -0.0497 0
M  V30 3 N 1.8553 -0.8663 -1.2655 0
M  V30 4 C 0.0678 -0.0232 0.2308 0
M  V30 5 C 0.9918 -1.0453 -2.3041 0
M  V30 6 C -0.7872 0.0023 -1.0342 0
M  V30 7 C -0.4229 -1.2071 1.1167 0
M  V30 8 C -0.0436 1.3308 0.9748 0
M  V30 9 C -0.2785 -0.6495 -2.257 0
M  V30 10 O -1.9114 0.5026 -1.0777 0
M  V30 11 C -1.8057 -1.0553 1.7411 0
M  V30 12 C 0.5204 2.5196 0.1984 0
M  V30 13 H 2.8334 -1.1179 -1.3756 0
M  V30 14 H 1.4067 -1.5062 -3.1965 0
M  V30 15 H 0.2913 -1.3743 1.9343 0
M  V30 16 H -0.4183 -2.1323 0.5244 0
M  V30 17 H 0.4761 1.2713 1.9396 0
M  V30 18 H -1.0929 1.5579 1.1988 0
M  V30 19 H -0.9631 -0.7565 -3.0888 0
M  V30 20 H -2.0554 -1.9594 2.3068 0
M  V30 21 H -2.5822 -0.9178 0.9842 0
M  V30 22 H -1.8427 -0.2151 2.4404 0
M  V30 23 H 0.3856 3.4387 0.7784 0
M  V30 24 H 1.5909 2.406 0.0047 0
M  V30 25 H 0.0087 2.6532 -0.7592 0
M  V30 END ATOM
M  V30 BEGIN BOND
M  V30 1 2 1 2
M  V30 2 1 2 3
M  V30 3 1 2 4
M  V30 4 1 3 5
M  V30 5 1 4 6
M  V30 6 1 4 7
M  V30 7 1 4 8
M  V30 8 2 5 9
M  V30 9 2 6 10
M  V30 10 1 7 11
M  V30 11 1 8 12
M  V30 12 1 6 9
M  V30 13 1 3 13
M  V30 14 1 5 14
M  V30 15 1 7 15
M  V30 16 1 7 16
M  V30 17 1 8 17
M  V30 18 1 8 18
M  V30 19 1 9 19
M  V30 20 1 11 20
M  V30 21 1 11 21
M  V30 22 1 11 22
M  V30 23 1 12 23
M  V30 24 1 12 24
M  V30 25 1 12 25
M  V30 END BOND
M  V30 END CTAB
M  END
>  <Column 1>
1312

>  <level_0>
1458

>  <index>
1458

>  <Unnamed: 0>
1458

>  <NO.>
1470

>  <Name>
pyrithyldione

>  <IUPAC_name>
3-3-diethyl-1h-pyridine-2-4-dione

>  <SMILES>
CCC1(CC)C(=O)C=CNC1=O

>  <CID>
4994

>  <logBB>


>  <BBB+/BBB->
BBB+

>  <Inchi>
InChI=1S/C9H13NO2/c1-3-9(4-2)7(11)5-6-10-8(9)12/h5-6H-3-4H2-1-2H3-(H-10-12)

>  <threshold>
-1

>  <reference>
R1|R13|R19|R6|R24|R27|R27|R27|R30|R30|

>  <group>
B

>  <Class>
1

>  <ABC>
8.58

>  <ABCGG>
8.68

>  <nAcid>
0

>  <nBase>
0

>  <nAromAtom>
0

>  <nAromBond>
0

>  <nAtom>
25

>  <nHeavyAtom>
12

>  <nSpiro>
0

>  <nBridgehead>
0

>  <nHetero>
3

>  <nN>
1

>  <nO>
2

>  <nF>
0

>  <BalabanJ>
2.77

>  <BertzCT>
238.91

>  <nBonds>
25

>  <nBondsO>
12

>  <nBondsS>
22

>  <nBondsD>
3

>  <nBondsT>
0

>  <nBondsA>
0

>  <nBondsM>
3

>  <nBondsKS>
22

>  <nBondsKD>
3

>  <RNCG>
0.3

>  <RPCG>
0.22

>  <FCSP3>
0.56

>  <SZ>
15

>  <Sm>
13.92

>  <Sv>
14.71

>  <Sse>
25.1

>  <Sp>
15.81

>  <Si>
28.41

>  <MZ>
0.6

>  <Mm>
0.56

>  <Mv>
0.59

>  <Mse>
1

>  <Mp>
0.63

>  <Mi>
1.14

>  <NsCH3>
2

>  <NdCH2>
0

>  <NssCH2>
2

>  <NtCH>
0

>  <NdsCH>
2

>  <NaaCH>
0

>  <NsssCH>
0

>  <NddC>
0

>  <NtsC>
0

>  <NdssC>
2

>  <NaasC>
0

>  <NaaaC>
0

>  <NssssC>
1

>  <NsNH3>
0

>  <NsNH2>
0

>  <NssNH2>
0

>  <NdNH>
0

>  <NssNH>
1

>  <NaaNH>
0

>  <NtN>
0

>  <NsssNH>
0

>  <NdsN>
0

>  <NaaN>
0

>  <NsssN>
0

>  <NddsN>
0

>  <NaasN>
0

>  <NssssN>
0

>  <NsOH>
0

>  <NdO>
2

>  <NssO>
0

>  <NaaO>
0

>  <NsF>
0

>  <NsSiH3>
0

>  <NssSiH2>
0

>  <NsssSiH>
0

>  <NssssSi>
0

>  <NsPH2>
0

>  <NssPH>
0

>  <NsssP>
0

>  <NdsssP>
0

>  <NsssssP>
0

>  <NsSH>
0

>  <NdS>
0

>  <NssS>
0

>  <NaaS>
0

>  <NdssS>
0

>  <NddssS>
0

>  <NsCl>
0

>  <NsBr>
0

>  <NsI>
0

>  <fragCpx>
12.03

>  <fMF>
0.24

>  <nHBAcc>
2

>  <nHBDon>
1

>  <Kier1>
10.08

>  <Kier2>
3.81

>  <Lipinski>
1

>  <GhoseFilter>
1

>  <FilterItLogS>
-2.19

>  <VMcGowan>
135.63

>  <LabuteASA>
71.84

>  <PEOE_VSA1>
5.32

>  <PEOE_VSA2>
9.59

>  <PEOE_VSA3>
0

>  <PEOE_VSA4>
0

>  <PEOE_VSA5>
0

>  <PEOE_VSA6>
13.85

>  <PEOE_VSA7>
18.92

>  <PEOE_VSA8>
6.2

>  <PEOE_VSA9>
0

>  <PEOE_VSA10>
5.41

>  <PEOE_VSA11>
5.78

>  <PEOE_VSA12>
5.91

>  <PEOE_VSA13>
0

>  <SMR_VSA1>
9.59

>  <SMR_VSA2>
0

>  <SMR_VSA3>
5.32

>  <SMR_VSA4>
5.41

>  <SMR_VSA5>
26.69

>  <SMR_VSA6>
0

>  <SMR_VSA7>
12.28

>  <SMR_VSA8>
0

>  <SMR_VSA9>
0

>  <SlogP_VSA1>
5.32

>  <SlogP_VSA2>
11.69

>  <SlogP_VSA3>
9.59

>  <SlogP_VSA4>
5.41

>  <SlogP_VSA5>
26.69

>  <SlogP_VSA6>
12.28

>  <SlogP_VSA7>
0

>  <SlogP_VSA8>
0

>  <SlogP_VSA9>
0

>  <SlogP_VSA10>
0

>  <SlogP_VSA11>
0

>  <EState_VSA1>
5.41

>  <EState_VSA2>
11.69

>  <EState_VSA3>
12.84

>  <EState_VSA4>
0

>  <EState_VSA5>
12.28

>  <EState_VSA6>
0

>  <EState_VSA7>
13.85

>  <EState_VSA8>
5.32

>  <EState_VSA9>
0

>  <EState_VSA10>
9.59

>  <VSA_EState1>
0

>  <VSA_EState2>
22.85

>  <VSA_EState3>
2.56

>  <VSA_EState4>
-0.8

>  <VSA_EState5>
-0.24

>  <VSA_EState6>
0

>  <VSA_EState7>
3.99

>  <VSA_EState8>
3.72

>  <VSA_EState9>
0

>  <apol>
26.4

>  <bpol>
15.35

>  <nRing>
1

>  <nHRing>
1

>  <naRing>
0

>  <naHRing>
0

>  <nARing 2>
1

>  <nAHRing 2>
1

>  <nFRing>
0

>  <nFHRing>
0

>  <nFaRing>
0

>  <nFaHRing>
0

>  <nFARing 2>
0

>  <nFAHRing 2>
0

>  <nRot>
2

>  <SLogP>
1.01

>  <SMR>
45.3

>  <TopoPSA(NO)>
46.17

>  <TopoPSA>
46.17

>  <JGI1>
0.29

>  <JGI2>
0.16

>  <JGI3>
0.07

>  <JGI4>
0.04

>  <JGI5>
0.06

>  <Diameter>
5

>  <Radius>
3

>  <TMWC10>
92.45

>  <TSRW10>
43.29

>  <MW>
167.09

>  <AMW>
6.68

>  <WPath>
175

>  <WPol>
21

>  <Zagreb1>
58

>  <Zagreb2>
70

>  <mZagreb2>
2.92

>  <yes>


>  <nAR-cont>
0.816016

>  <nHA-cont>
0.785745021

>  <MWHBN>
0.23208444

>  <MWHBN-cont>
0.984601418

>  <TPSA-cont>
0.67770473

>  <pka_cont>
0.97

>  <yes.1>


>  <BBB_SCORE>
4.919072608

>  <MMFF94 Energy>
-5.7786

$$$$
Compound 1106
Actelion Java MolfileCreator 2.0

  0  0  0  0  0  0              0 V3000
M  V30 BEGIN CTAB
M  V30 COUNTS 28 28 0 0 0
M  V30 BEGIN ATOM
M  V30 1 O -1.9603 3.2165 -0.5485 0
M  V30 2 C -1.4533 2.0987 -0.4859 0
M  V30 3 N -1.4959 1.2916 0.6311 0
M  V30 4 N -0.8585 1.5714 -1.5931 0
M  V30 5 C -1.0136 -0.0092 0.6525 0
M  V30 6 C -2.2808 1.7468 1.7641 0
M  V30 7 C -0.2553 0.3508 -1.6952 0
M  V30 8 O -1.3943 -0.8303 1.4884 0
M  V30 9 C 0.0729 -0.3383 -0.3777 0
M  V30 10 O 0.0454 -0.0837 -2.8033 0
M  V30 11 C 1.411 0.2706 0.131 0
M  V30 12 C 0.138 -1.8789 -0.5799 0
M  V30 13 C 1.9133 -0.288 1.4589 0
M  V30 14 C 1.3534 -2.4247 -1.3263 0
M  V30 15 H -0.9596 2.1026 -2.4468 0
M  V30 16 H -2.2073 2.8326 1.877 0
M  V30 17 H -1.9442 1.2679 2.6885 0
M  V30 18 H -3.3278 1.4808 1.5865 0
M  V30 19 H 1.3125 1.3582 0.2478 0
M  V30 20 H 2.1924 0.1347 -0.6274 0
M  V30 21 H 0.1075 -2.3896 0.3908 0
M  V30 22 H -0.7655 -2.2055 -1.1124 0
M  V30 23 H 2.8694 0.1785 1.7183 0
M  V30 24 H 1.2135 -0.0755 2.2726 0
M  V30 25 H 2.0741 -1.3681 1.4161 0
M  V30 26 H 1.2571 -3.5101 -1.4375 0
M  V30 27 H 1.4526 -2.0029 -2.3286 0
M  V30 28 H 2.2829 -2.2377 -0.7821 0
M  V30 END ATOM
M  V30 BEGIN BOND
M  V30 1 2 1 2
M  V30 2 1 2 3
M  V30 3 1 2 4
M  V30 4 1 3 5
M  V30 5 1 3 6
M  V30 6 1 4 7
M  V30 7 2 5 8
M  V30 8 1 5 9
M  V30 9 2 7 10
M  V30 10 1 9 11
M  V30 11 1 9 12
M  V30 12 1 11 13
M  V30 13 1 12 14
M  V30 14 1 7 9
M  V30 15 1 4 15
M  V30 16 1 6 16
M  V30 17 1 6 17
M  V30 18 1 6 18
M  V30 19 1 11 19
M  V30 20 1 11 20
M  V30 21 1 12 21
M  V30 22 1 12 22
M  V30 23 1 13 23
M  V30 24 1 13 24
M  V30 25 1 13 25
M  V30 26 1 14 26
M  V30 27 1 14 27
M  V30 28 1 14 28
M  V30 END BOND
M  V30 END CTAB
M  END
>  <Column 1>
1313

>  <level_0>
1459

>  <index>
1459

>  <Unnamed: 0>
1459

>  <NO.>
1471

>  <Name>
metharbital

>  <IUPAC_name>
5-5-diethyl-1-methyl-1-3-diazinane-2-4-6-trione

>  <SMILES>
CCC1(CC)C(=O)NC(=O)N(C)C1=O

>  <CID>
4099

>  <logBB>


>  <BBB+/BBB->
BBB+

>  <Inchi>
InChI=1S/C9H14N2O3/c1-4-9(5-2)6(12)10-8(14)11(3)7(9)13/h4-5H2-1-3H3-(H-10-12-14)

>  <threshold>
-1

>  <reference>
R1|R13|R19|R6|R24|R27|R27|R27|R30|R30|

>  <group>
B

>  <Class>
1

>  <ABC>
10.13

>  <ABCGG>
10.24

>  <nAcid>
0

>  <nBase>
0

>  <nAromAtom>
0

>  <nAromBond>
0

>  <nAtom>
28

>  <nHeavyAtom>
14

>  <nSpiro>
0

>  <nBridgehead>
0

>  <nHetero>
5

>  <nN>
2

>  <nO>
3

>  <nF>
0

>  <BalabanJ>
2.93

>  <BertzCT>
294.43

>  <nBonds>
28

>  <nBondsO>
14

>  <nBondsS>
25

>  <nBondsD>
3

>  <nBondsT>
0

>  <nBondsA>
0

>  <nBondsM>
3

>  <nBondsKS>
25

>  <nBondsKD>
3

>  <RNCG>
0.18

>  <RPCG>
0.22

>  <FCSP3>
0.67

>  <SZ>
17.67

>  <Sm>
16.5

>  <Sv>
16.45

>  <Sse>
28.53

>  <Sp>
17.35

>  <Si>
32.12

>  <MZ>
0.63

>  <Mm>
0.59

>  <Mv>
0.59

>  <Mse>
1.02

>  <Mp>
0.62

>  <Mi>
1.15

>  <NsCH3>
3

>  <NdCH2>
0

>  <NssCH2>
2

>  <NtCH>
0

>  <NdsCH>
0

>  <NaaCH>
0

>  <NsssCH>
0

>  <NddC>
0

>  <NtsC>
0

>  <NdssC>
3

>  <NaasC>
0

>  <NaaaC>
0

>  <NssssC>
1

>  <NsNH3>
0

>  <NsNH2>
0

>  <NssNH2>
0

>  <NdNH>
0

>  <NssNH>
1

>  <NaaNH>
0

>  <NtN>
0

>  <NsssNH>
0

>  <NdsN>
0

>  <NaaN>
0

>  <NsssN>
1

>  <NddsN>
0

>  <NaasN>
0

>  <NssssN>
0

>  <NsOH>
0

>  <NdO>
3

>  <NssO>
0

>  <NaaO>
0

>  <NsF>
0

>  <NsSiH3>
0

>  <NssSiH2>
0

>  <NsssSiH>
0

>  <NssssSi>
0

>  <NsPH2>
0

>  <NssPH>
0

>  <NsssP>
0

>  <NdsssP>
0

>  <NsssssP>
0

>  <NsSH>
0

>  <NdS>
0

>  <NssS>
0

>  <NaaS>
0

>  <NdssS>
0

>  <NddssS>
0

>  <NsCl>
0

>  <NsBr>
0

>  <NsI>
0

>  <fragCpx>
14.05

>  <fMF>
0.21

>  <nHBAcc>
3

>  <nHBDon>
1

>  <Kier1>
12.07

>  <Kier2>
4.24

>  <Lipinski>
1

>  <GhoseFilter>
1

>  <FilterItLogS>
-2.01

>  <VMcGowan>
151.48

>  <LabuteASA>
82.45

>  <PEOE_VSA1>
0

>  <PEOE_VSA2>
19.81

>  <PEOE_VSA3>
4.79

>  <PEOE_VSA4>
0

>  <PEOE_VSA5>
0

>  <PEOE_VSA6>
13.85

>  <PEOE_VSA7>
12.84

>  <PEOE_VSA8>
7.05

>  <PEOE_VSA9>
0

>  <PEOE_VSA10>
5.41

>  <PEOE_VSA11>
0

>  <PEOE_VSA12>
11.81

>  <PEOE_VSA13>
0

>  <SMR_VSA1>
14.38

>  <SMR_VSA2>
0

>  <SMR_VSA3>
10.22

>  <SMR_VSA4>
5.41

>  <SMR_VSA5>
26.69

>  <SMR_VSA6>
7.05

>  <SMR_VSA7>
0

>  <SMR_VSA8>
0

>  <SMR_VSA9>
0

>  <SlogP_VSA1>
5.32

>  <SlogP_VSA2>
29.79

>  <SlogP_VSA3>
9.59

>  <SlogP_VSA4>
5.41

>  <SlogP_VSA5>
26.69

>  <SlogP_VSA6>
0

>  <SlogP_VSA7>
0

>  <SlogP_VSA8>
0

>  <SlogP_VSA9>
0

>  <SlogP_VSA10>
4.79

>  <SlogP_VSA11>
0

>  <EState_VSA1>
23.26

>  <EState_VSA2>
0

>  <EState_VSA3>
12.84

>  <EState_VSA4>
4.9

>  <EState_VSA5>
7.05

>  <EState_VSA6>
13.85

>  <EState_VSA7>
0

>  <EState_VSA8>
5.32

>  <EState_VSA9>
0

>  <EState_VSA10>
14.38

>  <VSA_EState1>
0

>  <VSA_EState2>
35.41

>  <VSA_EState3>
2.18

>  <VSA_EState4>
-1.05

>  <VSA_EState5>
-0.88

>  <VSA_EState6>
-0.64

>  <VSA_EState7>
0.82

>  <VSA_EState8>
3.54

>  <VSA_EState9>
1.38

>  <apol>
28.97

>  <bpol>
18.93

>  <nRing>
1

>  <nHRing>
1

>  <naRing>
0

>  <naHRing>
0

>  <nARing 2>
1

>  <nAHRing 2>
1

>  <nFRing>
0

>  <nFHRing>
0

>  <nFaRing>
0

>  <nFaHRing>
0

>  <nFARing 2>
0

>  <nFAHRing 2>
0

>  <nRot>
2

>  <SLogP>
0.5

>  <SMR>
49.32

>  <TopoPSA(NO)>
66.48

>  <TopoPSA>
66.48

>  <JGI1>
0.32

>  <JGI2>
0.16

>  <JGI3>
0.08

>  <JGI4>
0.06

>  <JGI5>
0.03

>  <Diameter>
6

>  <Radius>
3

>  <TMWC10>
98.93

>  <TSRW10>
46.35

>  <MW>
198.1

>  <AMW>
7.08

>  <WPath>
264

>  <WPol>
27

>  <Zagreb1>
70

>  <Zagreb2>
86

>  <mZagreb2>
3.31

>  <yes>


>  <nAR-cont>
0.816016

>  <nHA-cont>
0.887625254

>  <MWHBN>
0.284195864

>  <MWHBN-cont>
0.885241419

>  <TPSA-cont>
0.535928318

>  <pka_cont>
0.97

>  <yes.1>


>  <BBB_SCORE>
4.588360019

>  <MMFF94 Energy>
-113.28

$$$$
Compound 1107
Actelion Java MolfileCreator 2.0

  0  0  0  0  0  0              0 V3000
M  V30 BEGIN CTAB
M  V30 COUNTS 35 36 0 0 0
M  V30 BEGIN ATOM
M  V30 1 O -1.2687 -2.9358 -0.5549 0
M  V30 2 C -0.4625 -2.1246 -0.1013 0
M  V30 3 N -0.7132 -0.7811 0.1529 0
M  V30 4 N 0.7889 -2.5747 0.2135 0
M  V30 5 C -2.0686 -0.3154 0.1028 0
M  V30 6 C 0.2754 0.099 0.6021 0
M  V30 7 C 1.8668 -1.819 0.5687 0
M  V30 8 C -3.0998 -1.0355 0.7243 0
M  V30 9 C -2.3866 0.879 -0.5593 0
M  V30 10 O 0.0243 1.1709 1.1579 0
M  V30 11 C 1.7246 -0.3216 0.3256 0
M  V30 12 O 2.8942 -2.3676 0.9576 0
M  V30 13 C -4.4189 -0.5771 0.6736 0
M  V30 14 C -3.7061 1.3367 -0.6073 0
M  V30 15 C 2.1039 -0.1063 -1.1705 0
M  V30 16 C 2.7061 0.4011 1.2989 0
M  V30 17 C -4.7214 0.6076 0.0071 0
M  V30 18 C 1.5085 1.113 -1.8646 0
M  V30 19 C 3.0149 1.868 1.0242 0
M  V30 20 H 0.9186 -3.5769 0.1971 0
M  V30 21 H -2.8937 -1.9612 1.2561 0
M  V30 22 H -1.6153 1.4754 -1.0376 0
M  V30 23 H -5.2094 -1.1467 1.1558 0
M  V30 24 H -3.9391 2.2663 -1.1205 0
M  V30 25 H 3.1978 -0.0598 -1.256 0
M  V30 26 H 1.8136 -0.9802 -1.7694 0
M  V30 27 H 3.6733 -0.1179 1.3092 0
M  V30 28 H 2.3171 0.3176 2.323 0
M  V30 29 H -5.7475 0.9648 -0.0299 0
M  V30 30 H 0.4362 0.9841 -2.0311 0
M  V30 31 H 1.9716 1.2394 -2.8489 0
M  V30 32 H 1.6622 2.0371 -1.3052 0
M  V30 33 H 2.1148 2.486 0.9965 0
M  V30 34 H 3.5585 1.9918 0.0833 0
M  V30 35 H 3.6569 2.2627 1.8194 0
M  V30 END ATOM
M  V30 BEGIN BOND
M  V30 1 2 1 2
M  V30 2 1 2 3
M  V30 3 1 2 4
M  V30 4 1 3 5
M  V30 5 1 3 6
M  V30 6 1 4 7
M  V30 7 2 5 8
M  V30 8 1 5 9
M  V30 9 2 6 10
M  V30 10 1 6 11
M  V30 11 2 7 12
M  V30 12 1 8 13
M  V30 13 2 9 14
M  V30 14 1 11 15
M  V30 15 1 11 16
M  V30 16 2 13 17
M  V30 17 1 15 18
M  V30 18 1 16 19
M  V30 19 1 7 11
M  V30 20 1 14 17
M  V30 21 1 4 20
M  V30 22 1 8 21
M  V30 23 1 9 22
M  V30 24 1 13 23
M  V30 25 1 14 24
M  V30 26 1 15 25
M  V30 27 1 15 26
M  V30 28 1 16 27
M  V30 29 1 16 28
M  V30 30 1 17 29
M  V30 31 1 18 30
M  V30 32 1 18 31
M  V30 33 1 18 32
M  V30 34 1 19 33
M  V30 35 1 19 34
M  V30 36 1 19 35
M  V30 END BOND
M  V30 END CTAB
M  END
>  <Column 1>
1314

>  <level_0>
1460

>  <index>
1460

>  <Unnamed: 0>
1460

>  <NO.>
1472

>  <Name>
phetharbital

>  <IUPAC_name>
5-5-diethyl-1-phenyl-1-3-diazinane-2-4-6-trione

>  <SMILES>
CCC1(CC)C(=O)NC(=O)N(c2ccccc2)C1=O

>  <CID>
9650

>  <logBB>


>  <BBB+/BBB->
BBB+

>  <Inchi>
InChI=1S/C14H16N2O3/c1-3-14(4-2)11(17)15-13(19)16(12(14)18)10-8-6-5-7-9-10/h5-9H-3-4H2-1-2H3-(H-15-17-19)

>  <threshold>
-1

>  <reference>
R1|R13|R19|R6|R24|R27|R27|R27|R30|R30|

>  <group>
B

>  <Class>
1

>  <ABC>
14.23

>  <ABCGG>
13.04

>  <nAcid>
0

>  <nBase>
0

>  <nAromAtom>
6

>  <nAromBond>
6

>  <nAtom>
35

>  <nHeavyAtom>
19

>  <nSpiro>
0

>  <nBridgehead>
0

>  <nHetero>
5

>  <nN>
2

>  <nO>
3

>  <nF>
0

>  <BalabanJ>
2.21

>  <BertzCT>
520.75

>  <nBonds>
36

>  <nBondsO>
20

>  <nBondsS>
27

>  <nBondsD>
3

>  <nBondsT>
0

>  <nBondsA>
6

>  <nBondsM>
9

>  <nBondsKS>
30

>  <nBondsKD>
6

>  <RNCG>
0.16

>  <RPCG>
0.19

>  <FCSP3>
0.36

>  <SZ>
23

>  <Sm>
21.67

>  <Sv>
21.99

>  <Sse>
35.42

>  <Sp>
23.15

>  <Si>
39.53

>  <MZ>
0.66

>  <Mm>
0.62

>  <Mv>
0.63

>  <Mse>
1.01

>  <Mp>
0.66

>  <Mi>
1.13

>  <NsCH3>
2

>  <NdCH2>
0

>  <NssCH2>
2

>  <NtCH>
0

>  <NdsCH>
0

>  <NaaCH>
5

>  <NsssCH>
0

>  <NddC>
0

>  <NtsC>
0

>  <NdssC>
3

>  <NaasC>
1

>  <NaaaC>
0

>  <NssssC>
1

>  <NsNH3>
0

>  <NsNH2>
0

>  <NssNH2>
0

>  <NdNH>
0

>  <NssNH>
1

>  <NaaNH>
0

>  <NtN>
0

>  <NsssNH>
0

>  <NdsN>
0

>  <NaaN>
0

>  <NsssN>
1

>  <NddsN>
0

>  <NaasN>
0

>  <NssssN>
0

>  <NsOH>
0

>  <NdO>
3

>  <NssO>
0

>  <NaaO>
0

>  <NsF>
0

>  <NsSiH3>
0

>  <NssSiH2>
0

>  <NsssSiH>
0

>  <NssssSi>
0

>  <NsPH2>
0

>  <NssPH>
0

>  <NsssP>
0

>  <NdsssP>
0

>  <NsssssP>
0

>  <NsSH>
0

>  <NdS>
0

>  <NssS>
0

>  <NaaS>
0

>  <NdssS>
0

>  <NddssS>
0

>  <NsCl>
0

>  <NsBr>
0

>  <NsI>
0

>  <fragCpx>
58.05

>  <fMF>
0.34

>  <nHBAcc>
3

>  <nHBDon>
1

>  <Kier1>
15.39

>  <Kier2>
6.19

>  <Lipinski>
1

>  <GhoseFilter>
1

>  <FilterItLogS>
-3.38

>  <VMcGowan>
198.17

>  <LabuteASA>
111.14

>  <PEOE_VSA1>
0

>  <PEOE_VSA2>
14.91

>  <PEOE_VSA3>
9.69

>  <PEOE_VSA4>
0

>  <PEOE_VSA5>
0

>  <PEOE_VSA6>
32.05

>  <PEOE_VSA7>
24.97

>  <PEOE_VSA8>
0

>  <PEOE_VSA9>
5.69

>  <PEOE_VSA10>
5.41

>  <PEOE_VSA11>
0

>  <PEOE_VSA12>
5.91

>  <PEOE_VSA13>
5.91

>  <SMR_VSA1>
14.38

>  <SMR_VSA2>
0

>  <SMR_VSA3>
5.32

>  <SMR_VSA4>
5.41

>  <SMR_VSA5>
26.69

>  <SMR_VSA6>
4.9

>  <SMR_VSA7>
30.33

>  <SMR_VSA8>
0

>  <SMR_VSA9>
0

>  <SlogP_VSA1>
10.22

>  <SlogP_VSA2>
17.85

>  <SlogP_VSA3>
9.59

>  <SlogP_VSA4>
5.41

>  <SlogP_VSA5>
26.69

>  <SlogP_VSA6>
30.33

>  <SlogP_VSA7>
0

>  <SlogP_VSA8>
0

>  <SlogP_VSA9>
0

>  <SlogP_VSA10>
10.48

>  <SlogP_VSA11>
0

>  <EState_VSA1>
23.26

>  <EState_VSA2>
0

>  <EState_VSA3>
18.53

>  <EState_VSA4>
4.9

>  <EState_VSA5>
0

>  <EState_VSA6>
44.18

>  <EState_VSA7>
0

>  <EState_VSA8>
5.32

>  <EState_VSA9>
0

>  <EState_VSA10>
14.38

>  <VSA_EState1>
0

>  <VSA_EState2>
37.53

>  <VSA_EState3>
2.28

>  <VSA_EState4>
-0.67

>  <VSA_EState5>
-0.95

>  <VSA_EState6>
7.94

>  <VSA_EState7>
0.73

>  <VSA_EState8>
3.56

>  <VSA_EState9>
0

>  <apol>
38.65

>  <bpol>
20.94

>  <nRing>
2

>  <nHRing>
1

>  <naRing>
1

>  <naHRing>
0

>  <nARing 2>
1

>  <nAHRing 2>
1

>  <nFRing>
0

>  <nFHRing>
0

>  <nFaRing>
0

>  <nFaHRing>
0

>  <nFARing 2>
0

>  <nFAHRing 2>
0

>  <nRot>
3

>  <SLogP>
2.08

>  <SMR>
70.48

>  <TopoPSA(NO)>
66.48

>  <TopoPSA>
66.48

>  <JGI1>
0.23

>  <JGI2>
0.11

>  <JGI3>
0.07

>  <JGI4>
0.05

>  <JGI5>
0.03

>  <Diameter>
8

>  <Radius>
4

>  <TMWC10>
113.07

>  <TSRW10>
52.89

>  <MW>
260.12

>  <AMW>
7.43

>  <WPath>
628

>  <WPol>
36

>  <Zagreb1>
98

>  <Zagreb2>
120

>  <mZagreb2>
4.42

>  <yes>


>  <nAR-cont>
0.816016

>  <nHA-cont>
0.998649058

>  <MWHBN>
0.248012242

>  <MWHBN-cont>
0.963056056

>  <TPSA-cont>
0.535928318

>  <pka_cont>
0.97

>  <yes.1>


>  <BBB_SCORE>
4.816105779

>  <MMFF94 Energy>
-53.956

$$$$
Compound 1108
Actelion Java MolfileCreator 2.0

  0  0  0  0  0  0              0 V3000
M  V30 BEGIN CTAB
M  V30 COUNTS 28 28 0 0 0
M  V30 BEGIN ATOM
M  V30 1 O 1.8013 2.0364 -0.4696 0
M  V30 2 C 1.2571 0.963 -0.2122 0
M  V30 3 N 2.0262 -0.1218 0.0991 0
M  V30 4 C -0.252 0.7739 -0.2219 0
M  V30 5 C 1.5682 -1.3674 0.4046 0
M  V30 6 C -0.7287 -0.6316 0.1242 0
M  V30 7 C -0.8732 1.7685 0.7979 0
M  V30 8 C -0.7783 1.1363 -1.6385 0
M  V30 9 C 0.2719 -1.6865 0.4369 0
M  V30 10 O -1.9271 -0.9204 0.1525 0
M  V30 11 C -0.4503 1.5383 2.2468 0
M  V30 12 C -0.2554 0.2398 -2.758 0
M  V30 13 C -0.2438 -3.0494 0.7705 0
M  V30 14 H 3.0261 0.0569 0.0918 0
M  V30 15 H 2.3379 -2.103 0.6255 0
M  V30 16 H -1.9688 1.7138 0.752 0
M  V30 17 H -0.6045 2.7976 0.5257 0
M  V30 18 H -1.8752 1.0902 -1.6516 0
M  V30 19 H -0.5108 2.1731 -1.8813 0
M  V30 20 H -0.7511 0.5482 2.6018 0
M  V30 21 H -0.9276 2.281 2.8948 0
M  V30 22 H 0.6319 1.6377 2.3712 0
M  V30 23 H -0.5482 -0.8035 -2.6085 0
M  V30 24 H 0.8347 0.2867 -2.8357 0
M  V30 25 H -0.67 0.5653 -3.7178 0
M  V30 26 H -0.8884 -3.0105 1.6548 0
M  V30 27 H -0.8214 -3.4569 -0.0655 0
M  V30 28 H 0.5698 -3.7507 0.9842 0
M  V30 END ATOM
M  V30 BEGIN BOND
M  V30 1 2 1 2
M  V30 2 1 2 3
M  V30 3 1 2 4
M  V30 4 1 3 5
M  V30 5 1 4 6
M  V30 6 1 4 7
M  V30 7 1 4 8
M  V30 8 2 5 9
M  V30 9 2 6 10
M  V30 10 1 7 11
M  V30 11 1 8 12
M  V30 12 1 9 13
M  V30 13 1 6 9
M  V30 14 1 3 14
M  V30 15 1 5 15
M  V30 16 1 7 16
M  V30 17 1 7 17
M  V30 18 1 8 18
M  V30 19 1 8 19
M  V30 20 1 11 20
M  V30 21 1 11 21
M  V30 22 1 11 22
M  V30 23 1 12 23
M  V30 24 1 12 24
M  V30 25 1 12 25
M  V30 26 1 13 26
M  V30 27 1 13 27
M  V30 28 1 13 28
M  V30 END BOND
M  V30 END CTAB
M  END
>  <Column 1>
1315

>  <level_0>
1461

>  <index>
1461

>  <Unnamed: 0>
1461

>  <NO.>
1473

>  <Name>
ethypicone

>  <IUPAC_name>
3-3-diethyl-5-methyl-1h-pyridine-2-4-dione

>  <SMILES>
CCC1(CC)C(=O)NC=C(C)C1=O

>  <CID>
68842

>  <logBB>


>  <BBB+/BBB->
BBB+

>  <Inchi>
InChI=1S/C10H15NO2/c1-4-10(5-2)8(12)7(3)6-11-9(10)13/h6H-4-5H2-1-3H3-(H-11-13)

>  <threshold>
-1

>  <reference>
R1|R13|R19|R6|R24|R27|R27|R27|R30|R30|

>  <group>
B

>  <Class>
1

>  <ABC>
9.36

>  <ABCGG>
9.46

>  <nAcid>
0

>  <nBase>
0

>  <nAromAtom>
0

>  <nAromBond>
0

>  <nAtom>
28

>  <nHeavyAtom>
13

>  <nSpiro>
0

>  <nBridgehead>
0

>  <nHetero>
3

>  <nN>
1

>  <nO>
2

>  <nF>
0

>  <BalabanJ>
2.86

>  <BertzCT>
274.65

>  <nBonds>
28

>  <nBondsO>
13

>  <nBondsS>
25

>  <nBondsD>
3

>  <nBondsT>
0

>  <nBondsA>
0

>  <nBondsM>
3

>  <nBondsKS>
25

>  <nBondsKD>
3

>  <RNCG>
0.29

>  <RPCG>
0.21

>  <FCSP3>
0.6

>  <SZ>
16.33

>  <Sm>
15.09

>  <Sv>
16.25

>  <Sse>
27.98

>  <Sp>
17.61

>  <Si>
31.82

>  <MZ>
0.58

>  <Mm>
0.54

>  <Mv>
0.58

>  <Mse>
1

>  <Mp>
0.63

>  <Mi>
1.14

>  <NsCH3>
3

>  <NdCH2>
0

>  <NssCH2>
2

>  <NtCH>
0

>  <NdsCH>
1

>  <NaaCH>
0

>  <NsssCH>
0

>  <NddC>
0

>  <NtsC>
0

>  <NdssC>
3

>  <NaasC>
0

>  <NaaaC>
0

>  <NssssC>
1

>  <NsNH3>
0

>  <NsNH2>
0

>  <NssNH2>
0

>  <NdNH>
0

>  <NssNH>
1

>  <NaaNH>
0

>  <NtN>
0

>  <NsssNH>
0

>  <NdsN>
0

>  <NaaN>
0

>  <NsssN>
0

>  <NddsN>
0

>  <NaasN>
0

>  <NssssN>
0

>  <NsOH>
0

>  <NdO>
2

>  <NssO>
0

>  <NaaO>
0

>  <NsF>
0

>  <NsSiH3>
0

>  <NssSiH2>
0

>  <NsssSiH>
0

>  <NssssSi>
0

>  <NsPH2>
0

>  <NssPH>
0

>  <NsssP>
0

>  <NdsssP>
0

>  <NsssssP>
0

>  <NsSH>
0

>  <NdS>
0

>  <NssS>
0

>  <NaaS>
0

>  <NdssS>
0

>  <NddssS>
0

>  <NsCl>
0

>  <NsBr>
0

>  <NsI>
0

>  <fragCpx>
13.03

>  <fMF>
0.21

>  <nHBAcc>
2

>  <nHBDon>
1

>  <Kier1>
11.08

>  <Kier2>
4.02

>  <Lipinski>
1

>  <GhoseFilter>
1

>  <FilterItLogS>
-2.81

>  <VMcGowan>
149.72

>  <LabuteASA>
78.2

>  <PEOE_VSA1>
5.32

>  <PEOE_VSA2>
9.59

>  <PEOE_VSA3>
0

>  <PEOE_VSA4>
0

>  <PEOE_VSA5>
0

>  <PEOE_VSA6>
13.85

>  <PEOE_VSA7>
19.77

>  <PEOE_VSA8>
11.77

>  <PEOE_VSA9>
0

>  <PEOE_VSA10>
5.41

>  <PEOE_VSA11>
5.78

>  <PEOE_VSA12>
5.91

>  <PEOE_VSA13>
0

>  <SMR_VSA1>
9.59

>  <SMR_VSA2>
0

>  <SMR_VSA3>
5.32

>  <SMR_VSA4>
5.41

>  <SMR_VSA5>
33.61

>  <SMR_VSA6>
0

>  <SMR_VSA7>
11.77

>  <SMR_VSA8>
0

>  <SMR_VSA9>
0

>  <SlogP_VSA1>
5.32

>  <SlogP_VSA2>
11.69

>  <SlogP_VSA3>
9.59

>  <SlogP_VSA4>
5.41

>  <SlogP_VSA5>
33.61

>  <SlogP_VSA6>
11.77

>  <SlogP_VSA7>
0

>  <SlogP_VSA8>
0

>  <SlogP_VSA9>
0

>  <SlogP_VSA10>
0

>  <SlogP_VSA11>
0

>  <EState_VSA1>
5.41

>  <EState_VSA2>
11.69

>  <EState_VSA3>
18.41

>  <EState_VSA4>
0

>  <EState_VSA5>
6.2

>  <EState_VSA6>
6.92

>  <EState_VSA7>
13.85

>  <EState_VSA8>
5.32

>  <EState_VSA9>
0

>  <EState_VSA10>
9.59

>  <VSA_EState1>
0

>  <VSA_EState2>
23.35

>  <VSA_EState3>
2.63

>  <VSA_EState4>
-0.16

>  <VSA_EState5>
-0.19

>  <VSA_EState6>
0

>  <VSA_EState7>
2.63

>  <VSA_EState8>
5.49

>  <VSA_EState9>
0

>  <apol>
29.41

>  <bpol>
17.35

>  <nRing>
1

>  <nHRing>
1

>  <naRing>
0

>  <naHRing>
0

>  <nARing 2>
1

>  <nAHRing 2>
1

>  <nFRing>
0

>  <nFHRing>
0

>  <nFaRing>
0

>  <nFaHRing>
0

>  <nFARing 2>
0

>  <nFAHRing 2>
0

>  <nRot>
2

>  <SLogP>
1.4

>  <SMR>
49.92

>  <TopoPSA(NO)>
46.17

>  <TopoPSA>
46.17

>  <JGI1>
0.31

>  <JGI2>
0.16

>  <JGI3>
0.08

>  <JGI4>
0.05

>  <JGI5>
0.03

>  <Diameter>
5

>  <Radius>
3

>  <TMWC10>
95.77

>  <TSRW10>
44.85

>  <MW>
181.11

>  <AMW>
6.47

>  <WPath>
216

>  <WPol>
24

>  <Zagreb1>
64

>  <Zagreb2>
78

>  <mZagreb2>
3.11

>  <yes>


>  <nAR-cont>
0.816016

>  <nHA-cont>
0.841215992

>  <MWHBN>
0.222920516

>  <MWHBN-cont>
0.992955582

>  <TPSA-cont>
0.67770473

>  <pka_cont>
0.97

>  <yes.1>


>  <BBB_SCORE>
4.987074825

>  <MMFF94 Energy>
-6.1

$$$$
Compound 1109
Actelion Java MolfileCreator 2.0

  0  0  0  0  0  0              0 V3000
M  V30 BEGIN CTAB
M  V30 COUNTS 30 30 0 0 0
M  V30 BEGIN ATOM
M  V30 1 O -0.5485 2.1172 0.6269 0
M  V30 2 C -0.064 1.2058 -0.0382 0
M  V30 3 N 0.6207 1.5197 -1.1763 0
M  V30 4 C -0.1209 -0.2747 0.3621 0
M  V30 5 C 1.1707 0.5355 -2.0654 0
M  V30 6 C -0.1131 -1.2024 -0.8721 0
M  V30 7 C 1.1425 -0.6753 1.1764 0
M  V30 8 C -1.4585 -0.5533 1.1122 0
M  V30 9 C 0.2132 -0.6285 -2.2366 0 CFG=1
M  V30 10 O -0.35 -2.4116 -0.7734 0
M  V30 11 C 1.7354 0.3862 2.0975 0
M  V30 12 C -1.5533 -0.1023 2.5645 0
M  V30 13 C -1.0745 -0.2528 -2.9623 0
M  V30 14 H 0.6997 2.5111 -1.3802 0
M  V30 15 H 1.3808 1.0246 -3.0221 0
M  V30 16 H 2.1238 0.2043 -1.6384 0
M  V30 17 H 1.9453 -0.9808 0.4917 0
M  V30 18 H 0.9197 -1.5722 1.7693 0
M  V30 19 H -1.6767 -1.629 1.1078 0
M  V30 20 H -2.2821 -0.0875 0.5537 0
M  V30 21 H 0.7268 -1.4079 -2.8132 0
M  V30 22 H 2.5653 -0.0436 2.6686 0
M  V30 23 H 1.0082 0.7725 2.8141 0
M  V30 24 H 2.1388 1.228 1.5262 0
M  V30 25 H -0.8496 -0.6482 3.1993 0
M  V30 26 H -2.5587 -0.3085 2.948 0
M  V30 27 H -1.3759 0.9693 2.6791 0
M  V30 28 H -0.8563 0.171 -3.9479 0
M  V30 29 H -1.7049 -1.1371 -3.1071 0
M  V30 30 H -1.6682 0.4755 -2.3998 0
M  V30 END ATOM
M  V30 BEGIN BOND
M  V30 1 2 1 2
M  V30 2 1 2 3
M  V30 3 1 2 4
M  V30 4 1 3 5
M  V30 5 1 4 6
M  V30 6 1 4 7
M  V30 7 1 4 8
M  V30 8 1 5 9
M  V30 9 2 6 10
M  V30 10 1 7 11
M  V30 11 1 8 12
M  V30 12 1 9 13
M  V30 13 1 6 9
M  V30 14 1 3 14
M  V30 15 1 5 15
M  V30 16 1 5 16
M  V30 17 1 7 17
M  V30 18 1 7 18
M  V30 19 1 8 19
M  V30 20 1 8 20
M  V30 21 1 9 21
M  V30 22 1 11 22
M  V30 23 1 11 23
M  V30 24 1 11 24
M  V30 25 1 12 25
M  V30 26 1 12 26
M  V30 27 1 12 27
M  V30 28 1 13 28
M  V30 29 1 13 29
M  V30 30 1 13 30
M  V30 END BOND
M  V30 BEGIN COLLECTION
M  V30 MDLV30/STERAC1 ATOMS=(1 9)
M  V30 END COLLECTION
M  V30 END CTAB
M  END
>  <Column 1>
1316

>  <level_0>
1462

>  <index>
1462

>  <Unnamed: 0>
1462

>  <NO.>
1474

>  <Name>
methyprylon

>  <IUPAC_name>
3-3-diethyl-5-methylpiperidine-2-4-dione

>  <SMILES>
CCC1(CC)C(=O)NCC(C)C1=O

>  <CID>
4162

>  <logBB>


>  <BBB+/BBB->
BBB+

>  <Inchi>
InChI=1S/C10H17NO2/c1-4-10(5-2)8(12)7(3)6-11-9(10)13/h7H-4-6H2-1-3H3-(H-11-13)

>  <threshold>
-1

>  <reference>
R1|R19|R6|R27|R27|R30|

>  <group>
B

>  <Class>
1

>  <ABC>
9.36

>  <ABCGG>
9.46

>  <nAcid>
0

>  <nBase>
0

>  <nAromAtom>
0

>  <nAromBond>
0

>  <nAtom>
30

>  <nHeavyAtom>
13

>  <nSpiro>
0

>  <nBridgehead>
0

>  <nHetero>
3

>  <nN>
1

>  <nO>
2

>  <nF>
0

>  <BalabanJ>
2.86

>  <BertzCT>
231.08

>  <nBonds>
30

>  <nBondsO>
13

>  <nBondsS>
28

>  <nBondsD>
2

>  <nBondsT>
0

>  <nBondsA>
0

>  <nBondsM>
2

>  <nBondsKS>
28

>  <nBondsKD>
2

>  <RNCG>
0.3

>  <RPCG>
0.2

>  <FCSP3>
0.8

>  <SZ>
16.67

>  <Sm>
15.26

>  <Sv>
16.79

>  <Sse>
29.87

>  <Sp>
18.41

>  <Si>
34.24

>  <MZ>
0.56

>  <Mm>
0.51

>  <Mv>
0.56

>  <Mse>
1

>  <Mp>
0.61

>  <Mi>
1.14

>  <NsCH3>
3

>  <NdCH2>
0

>  <NssCH2>
3

>  <NtCH>
0

>  <NdsCH>
0

>  <NaaCH>
0

>  <NsssCH>
1

>  <NddC>
0

>  <NtsC>
0

>  <NdssC>
2

>  <NaasC>
0

>  <NaaaC>
0

>  <NssssC>
1

>  <NsNH3>
0

>  <NsNH2>
0

>  <NssNH2>
0

>  <NdNH>
0

>  <NssNH>
1

>  <NaaNH>
0

>  <NtN>
0

>  <NsssNH>
0

>  <NdsN>
0

>  <NaaN>
0

>  <NsssN>
0

>  <NddsN>
0

>  <NaasN>
0

>  <NssssN>
0

>  <NsOH>
0

>  <NdO>
2

>  <NssO>
0

>  <NaaO>
0

>  <NsF>
0

>  <NsSiH3>
0

>  <NssSiH2>
0

>  <NsssSiH>
0

>  <NssssSi>
0

>  <NsPH2>
0

>  <NssPH>
0

>  <NsssP>
0

>  <NdsssP>
0

>  <NsssssP>
0

>  <NsSH>
0

>  <NdS>
0

>  <NssS>
0

>  <NaaS>
0

>  <NdssS>
0

>  <NddssS>
0

>  <NsCl>
0

>  <NsBr>
0

>  <NsI>
0

>  <fragCpx>
13.03

>  <fMF>
0.2

>  <nHBAcc>
2

>  <nHBDon>
1

>  <Kier1>
11.08

>  <Kier2>
4.02

>  <Lipinski>
1

>  <GhoseFilter>
1

>  <FilterItLogS>
-2.83

>  <VMcGowan>
154.02

>  <LabuteASA>
78.89

>  <PEOE_VSA1>
5.32

>  <PEOE_VSA2>
9.59

>  <PEOE_VSA3>
0

>  <PEOE_VSA4>
0

>  <PEOE_VSA5>
0

>  <PEOE_VSA6>
20.77

>  <PEOE_VSA7>
12.84

>  <PEOE_VSA8>
12.46

>  <PEOE_VSA9>
0

>  <PEOE_VSA10>
5.41

>  <PEOE_VSA11>
5.78

>  <PEOE_VSA12>
5.91

>  <PEOE_VSA13>
0

>  <SMR_VSA1>
9.59

>  <SMR_VSA2>
0

>  <SMR_VSA3>
5.32

>  <SMR_VSA4>
11.33

>  <SMR_VSA5>
33.61

>  <SMR_VSA6>
6.54

>  <SMR_VSA7>
0

>  <SMR_VSA8>
0

>  <SMR_VSA9>
0

>  <SlogP_VSA1>
5.32

>  <SlogP_VSA2>
18.24

>  <SlogP_VSA3>
9.59

>  <SlogP_VSA4>
11.33

>  <SlogP_VSA5>
33.61

>  <SlogP_VSA6>
0

>  <SlogP_VSA7>
0

>  <SlogP_VSA8>
0

>  <SlogP_VSA9>
0

>  <SlogP_VSA10>
0

>  <SlogP_VSA11>
0

>  <EState_VSA1>
5.41

>  <EState_VSA2>
17.61

>  <EState_VSA3>
19.39

>  <EState_VSA4>
0

>  <EState_VSA5>
0

>  <EState_VSA6>
0

>  <EState_VSA7>
20.77

>  <EState_VSA8>
5.32

>  <EState_VSA9>
0

>  <EState_VSA10>
9.59

>  <VSA_EState1>
0

>  <VSA_EState2>
23.46

>  <VSA_EState3>
2.8

>  <VSA_EState4>
-0.74

>  <VSA_EState5>
0

>  <VSA_EState6>
0

>  <VSA_EState7>
1.22

>  <VSA_EState8>
6.18

>  <VSA_EState9>
0

>  <apol>
30.74

>  <bpol>
19.36

>  <nRing>
1

>  <nHRing>
1

>  <naRing>
0

>  <naHRing>
0

>  <nARing 2>
1

>  <nAHRing 2>
1

>  <nFRing>
0

>  <nFHRing>
0

>  <nFaRing>
0

>  <nFaHRing>
0

>  <nFARing 2>
0

>  <nFAHRing 2>
0

>  <nRot>
2

>  <SLogP>
1.13

>  <SMR>
50.2

>  <TopoPSA(NO)>
46.17

>  <TopoPSA>
46.17

>  <JGI1>
0.31

>  <JGI2>
0.16

>  <JGI3>
0.08

>  <JGI4>
0.05

>  <JGI5>
0.03

>  <Diameter>
5

>  <Radius>
3

>  <TMWC10>
95.77

>  <TSRW10>
44.85

>  <MW>
183.13

>  <AMW>
6.1

>  <WPath>
216

>  <WPol>
24

>  <Zagreb1>
64

>  <Zagreb2>
78

>  <mZagreb2>
3.11

>  <yes>


>  <nAR-cont>
0.816016

>  <nHA-cont>
0.841215992

>  <MWHBN>
0.221687654

>  <MWHBN-cont>
0.993841713

>  <TPSA-cont>
0.67770473

>  <pka_cont>
0.97

>  <yes.1>


>  <BBB_SCORE>
4.988404022

>  <MMFF94 Energy>
-15.346

$$$$
Compound 1110
Actelion Java MolfileCreator 2.0

  0  0  0  0  0  0              0 V3000
M  V30 BEGIN CTAB
M  V30 COUNTS 68 72 0 0 0
M  V30 BEGIN ATOM
M  V30 1 F 2.4278 1.2133 -2.1848 0
M  V30 2 C 2.2512 1.1507 -0.8129 0 CFG=2
M  V30 3 C 3.2842 2.1886 -0.1592 0
M  V30 4 C 2.4906 -0.3276 -0.4279 0 CFG=1
M  V30 5 C 0.769 1.5357 -0.5846 0
M  V30 6 C 2.6436 3.5825 -0.0939 0
M  V30 7 C 3.8492 1.8179 1.2105 0
M  V30 8 C 4.5328 2.2771 -1.0762 0
M  V30 9 O 2.3141 -0.5613 0.9579 0
M  V30 10 C 1.562 -1.2682 -1.1919 0
M  V30 11 C -0.2116 0.5771 -1.3291 0 CFG=1
M  V30 12 C 0.4673 2.9936 -1.0508 0
M  V30 13 C 2.7947 4.4404 0.9307 0
M  V30 14 C 1.6907 3.8929 -1.2045 0
M  V30 15 C 3.9864 2.6599 2.2448 0
M  V30 16 C 0.0424 -0.9522 -1.1616 0
M  V30 17 C -1.6509 0.7453 -0.8299 0
M  V30 18 C 3.5509 4.065 2.1415 0
M  V30 19 C -0.8323 -1.3485 0.1066 0 CFG=1
M  V30 20 C -0.5241 -1.6783 -2.4234 0
M  V30 21 C -1.7025 -0.1304 0.4132 0 CFG=2
M  V30 22 O 3.7718 4.8726 3.0341 0
M  V30 23 O -1.7903 -2.3813 -0.2065 0
M  V30 24 C -0.1113 -1.8446 1.3628 0
M  V30 25 O -3.0273 -0.5818 0.6504 0
M  V30 26 C -3.0771 -1.9607 0.2994 0
M  V30 27 O -0.0287 -1.1853 2.4047 0
M  V30 28 C 0.4911 -3.2402 1.326 0
M  V30 29 C -4.1031 -2.1957 -0.8267 0
M  V30 30 C -3.3533 -2.7999 1.5641 0
M  V30 31 O 1.7934 -3.1993 1.9047 0
M  V30 32 C -5.3302 -1.2935 -0.8087 0
M  V30 33 C -4.686 -2.55 2.2504 0
M  V30 34 H 3.5236 -0.5953 -0.6798 0
M  V30 35 H 0.579 1.4862 0.4957 0
M  V30 36 H 4.2478 0.8149 1.3398 0
M  V30 37 H 5.2822 2.973 -0.6773 0
M  V30 38 H 5.0178 1.2997 -1.184 0
M  V30 39 H 4.2812 2.631 -2.0824 0
M  V30 40 H 2.6033 -1.4753 1.1605 0
M  V30 41 H 1.7375 -2.3 -0.8774 0
M  V30 42 H 1.9032 -1.2318 -2.2366 0
M  V30 43 H -0.1717 0.8312 -2.3971 0
M  V30 44 H -0.0719 3.0049 -2.006 0
M  V30 45 H -0.2179 3.4463 -0.3211 0
M  V30 46 H 2.3205 5.4145 0.9626 0
M  V30 47 H 1.375 4.943 -1.1975 0
M  V30 48 H 2.1718 3.7286 -2.1751 0
M  V30 49 H 4.4399 2.3623 3.1822 0
M  V30 50 H -1.9234 1.7794 -0.5982 0
M  V30 51 H -2.3731 0.4061 -1.5819 0
M  V30 52 H -0.3915 -2.7633 -2.3431 0
M  V30 53 H -0.01 -1.3517 -3.3354 0
M  V30 54 H -1.5856 -1.4747 -2.5839 0
M  V30 55 H -1.3703 0.4523 1.278 0
M  V30 56 H -0.1428 -3.9189 1.904 0
M  V30 57 H 0.5682 -3.6236 0.308 0
M  V30 58 H -4.4109 -3.2486 -0.835 0
M  V30 59 H -3.614 -2.0394 -1.7954 0
M  V30 60 H -2.5705 -2.5939 2.3039 0
M  V30 61 H -3.2611 -3.8672 1.3272 0
M  V30 62 H 1.6621 -2.8152 2.7972 0
M  V30 63 H -5.9018 -1.3796 0.1165 0
M  V30 64 H -5.0491 -0.2438 -0.9408 0
M  V30 65 H -5.9973 -1.5596 -1.6353 0
M  V30 66 H -4.7104 -3.0674 3.2153 0
M  V30 67 H -5.5164 -2.9405 1.6562 0
M  V30 68 H -4.8494 -1.4848 2.4382 0
M  V30 END ATOM
M  V30 BEGIN BOND
M  V30 1 1 1 2
M  V30 2 1 2 3
M  V30 3 1 2 4
M  V30 4 1 2 5
M  V30 5 1 3 6
M  V30 6 1 3 7
M  V30 7 1 3 8
M  V30 8 1 4 9
M  V30 9 1 4 10
M  V30 10 1 5 11
M  V30 11 1 5 12
M  V30 12 2 6 13
M  V30 13 1 6 14
M  V30 14 2 7 15
M  V30 15 1 10 16
M  V30 16 1 11 17
M  V30 17 1 13 18
M  V30 18 1 16 19
M  V30 19 1 16 20
M  V30 20 1 17 21
M  V30 21 2 18 22
M  V30 22 1 19 23
M  V30 23 1 19 24
M  V30 24 1 21 25
M  V30 25 1 23 26
M  V30 26 2 24 27
M  V30 27 1 24 28
M  V30 28 1 26 29
M  V30 29 1 26 30
M  V30 30 1 28 31
M  V30 31 1 29 32
M  V30 32 1 30 33
M  V30 33 1 11 16
M  V30 34 1 12 14
M  V30 35 1 15 18
M  V30 36 1 19 21
M  V30 37 1 25 26
M  V30 38 1 4 34
M  V30 39 1 5 35
M  V30 40 1 7 36
M  V30 41 1 8 37
M  V30 42 1 8 38
M  V30 43 1 8 39
M  V30 44 1 9 40
M  V30 45 1 10 41
M  V30 46 1 10 42
M  V30 47 1 11 43
M  V30 48 1 12 44
M  V30 49 1 12 45
M  V30 50 1 13 46
M  V30 51 1 14 47
M  V30 52 1 14 48
M  V30 53 1 15 49
M  V30 54 1 17 50
M  V30 55 1 17 51
M  V30 56 1 20 52
M  V30 57 1 20 53
M  V30 58 1 20 54
M  V30 59 1 21 55
M  V30 60 1 28 56
M  V30 61 1 28 57
M  V30 62 1 29 58
M  V30 63 1 29 59
M  V30 64 1 30 60
M  V30 65 1 30 61
M  V30 66 1 31 62
M  V30 67 1 32 63
M  V30 68 1 32 64
M  V30 69 1 32 65
M  V30 70 1 33 66
M  V30 71 1 33 67
M  V30 72 1 33 68
M  V30 END BOND
M  V30 BEGIN COLLECTION
M  V30 MDLV30/STEABS ATOMS=(5 2 4 11 19 21)
M  V30 END COLLECTION
M  V30 END CTAB
M  END
>  <Column 1>
1317

>  <level_0>
1463

>  <index>
1463

>  <Unnamed: 0>
1463

>  <NO.>
1475

>  <Name>
amcinafal

>  <IUPAC_name>
(2s-4r-8s-11s-12r)-6-6-diethyl-12-fluoro-11-hydroxy-8-(2-hydroxyacetyl)-9-13-dimethyl-5-7-dioxapentacyclo[10.8.0.02-9.04-8.013-18]icosa-14-17-dien-16-one

>  <SMILES>
CCC1(CC)O[C@@H]2C[C@H]3C4CCC5=CC(=O)C=CC5(C)[C@@]4(F)[C@@H](O)CC3(C)[C@]2(C(=O)CO)O1

>  <CID>
19823

>  <logBB>


>  <BBB+/BBB->
BBB+

>  <Inchi>
InChI=1S/C26H35FO6/c1-5-24(6-2)32-21-12-18-17-8-7-15-11-16(29)9-10-22(15-3)25(17-27)19(30)13-23(18-4)26(21-33-24)20(31)14-28/h9-11-17-19-21-28-30H-5-8-12-14H2-1-4H3/t17?-18--19--21+-22?-23?-25--26+/m0/s1

>  <threshold>
-1

>  <reference>
R1|R27|R30|

>  <group>
B

>  <Class>
1

>  <ABC>
26.37

>  <ABCGG>
21.54

>  <nAcid>
0

>  <nBase>
0

>  <nAromAtom>
0

>  <nAromBond>
0

>  <nAtom>
68

>  <nHeavyAtom>
33

>  <nSpiro>
0

>  <nBridgehead>
0

>  <nHetero>
7

>  <nN>
0

>  <nO>
6

>  <nF>
1

>  <BalabanJ>
1.58

>  <BertzCT>
954.43

>  <nBonds>
72

>  <nBondsO>
37

>  <nBondsS>
68

>  <nBondsD>
4

>  <nBondsT>
0

>  <nBondsA>
0

>  <nBondsM>
4

>  <nBondsKS>
68

>  <nBondsKD>
4

>  <RNCG>
0.14

>  <RPCG>
0.08

>  <FCSP3>
0.77

>  <SZ>
41.33

>  <Sm>
38.51

>  <Sv>
40.42

>  <Sse>
68.48

>  <Sp>
43.19

>  <Si>
77.07

>  <MZ>
0.61

>  <Mm>
0.57

>  <Mv>
0.59

>  <Mse>
1.01

>  <Mp>
0.64

>  <Mi>
1.13

>  <NsCH3>
4

>  <NdCH2>
0

>  <NssCH2>
7

>  <NtCH>
0

>  <NdsCH>
3

>  <NaaCH>
0

>  <NsssCH>
4

>  <NddC>
0

>  <NtsC>
0

>  <NdssC>
3

>  <NaasC>
0

>  <NaaaC>
0

>  <NssssC>
5

>  <NsNH3>
0

>  <NsNH2>
0

>  <NssNH2>
0

>  <NdNH>
0

>  <NssNH>
0

>  <NaaNH>
0

>  <NtN>
0

>  <NsssNH>
0

>  <NdsN>
0

>  <NaaN>
0

>  <NsssN>
0

>  <NddsN>
0

>  <NaasN>
0

>  <NssssN>
0

>  <NsOH>
2

>  <NdO>
2

>  <NssO>
2

>  <NaaO>
0

>  <NsF>
1

>  <NsSiH3>
0

>  <NssSiH2>
0

>  <NsssSiH>
0

>  <NssssSi>
0

>  <NsPH2>
0

>  <NssPH>
0

>  <NsssP>
0

>  <NdsssP>
0

>  <NsssssP>
0

>  <NsSH>
0

>  <NdS>
0

>  <NssS>
0

>  <NaaS>
0

>  <NdssS>
0

>  <NddssS>
0

>  <NsCl>
0

>  <NsBr>
0

>  <NsI>
0

>  <fragCpx>
313.07

>  <fMF>
0.29

>  <nHBAcc>
6

>  <nHBDon>
2

>  <Kier1>
24.68

>  <Kier2>
7.75

>  <Lipinski>
1

>  <GhoseFilter>
1

>  <FilterItLogS>
-4.24

>  <VMcGowan>
342.68

>  <LabuteASA>
193.76

>  <PEOE_VSA1>
19.69

>  <PEOE_VSA2>
9.59

>  <PEOE_VSA3>
4.39

>  <PEOE_VSA4>
0

>  <PEOE_VSA5>
0

>  <PEOE_VSA6>
32.42

>  <PEOE_VSA7>
63.52

>  <PEOE_VSA8>
16.75

>  <PEOE_VSA9>
12.21

>  <PEOE_VSA10>
6.61

>  <PEOE_VSA11>
28.62

>  <PEOE_VSA12>
0

>  <PEOE_VSA13>
0

>  <SMR_VSA1>
33.67

>  <SMR_VSA2>
0

>  <SMR_VSA3>
0

>  <SMR_VSA4>
22.67

>  <SMR_VSA5>
95.48

>  <SMR_VSA6>
6.61

>  <SMR_VSA7>
23.8

>  <SMR_VSA8>
0

>  <SMR_VSA9>
0

>  <SlogP_VSA1>
0

>  <SlogP_VSA2>
57.65

>  <SlogP_VSA3>
19.06

>  <SlogP_VSA4>
22.67

>  <SlogP_VSA5>
66.22

>  <SlogP_VSA6>
23.8

>  <SlogP_VSA7>
0

>  <SlogP_VSA8>
0

>  <SlogP_VSA9>
0

>  <SlogP_VSA10>
4.39

>  <SlogP_VSA11>
0

>  <EState_VSA1>
58.4

>  <EState_VSA2>
18.12

>  <EState_VSA3>
32.1

>  <EState_VSA4>
5.57

>  <EState_VSA5>
12.15

>  <EState_VSA6>
13

>  <EState_VSA7>
20.77

>  <EState_VSA8>
0

>  <EState_VSA9>
9.47

>  <EState_VSA10>
19.8

>  <VSA_EState1>
30.24

>  <VSA_EState2>
25.38

>  <VSA_EState3>
21.44

>  <VSA_EState4>
-4.66

>  <VSA_EState5>
-2.35

>  <VSA_EState6>
0

>  <VSA_EState7>
5.15

>  <VSA_EState8>
6.87

>  <VSA_EState9>
0

>  <apol>
72.13

>  <bpol>
41.43

>  <nRing>
5

>  <nHRing>
1

>  <naRing>
0

>  <naHRing>
0

>  <nARing 2>
5

>  <nAHRing 2>
1

>  <nFRing>
1

>  <nFHRing>
1

>  <nFaRing>
0

>  <nFaHRing>
0

>  <nFARing 2>
1

>  <nFAHRing 2>
1

>  <nRot>
4

>  <SLogP>
3.2

>  <SMR>
117.83

>  <TopoPSA(NO)>
93.06

>  <TopoPSA>
93.06

>  <JGI1>
0.32

>  <JGI2>
0.14

>  <JGI3>
0.08

>  <JGI4>
0.06

>  <JGI5>
0.04

>  <Diameter>
13

>  <Radius>
7

>  <TMWC10>
153.59

>  <TSRW10>
87.86

>  <MW>
462.24

>  <AMW>
6.8

>  <WPath>
2617

>  <WPol>
82

>  <Zagreb1>
200

>  <Zagreb2>
264

>  <mZagreb2>
7.03

>  <yes>


>  <nAR-cont>
0

>  <nHA-cont>
0.61399562

>  <MWHBN>
0.372097048

>  <MWHBN-cont>
0.585708533

>  <TPSA-cont>
0.350383413

>  <pka_cont>
0.97

>  <yes.1>


>  <BBB_SCORE>
2.678325246

>  <MMFF94 Energy>
191.23

$$$$
Compound 1111
Actelion Java MolfileCreator 2.0

  0  0  0  0  0  0              0 V3000
M  V30 BEGIN CTAB
M  V30 COUNTS 41 43 0 0 0
M  V30 BEGIN ATOM
M  V30 1 O 1.5888 -0.9531 -2.4636 0
M  V30 2 C 0.7903 0.2318 -2.3273 0
M  V30 3 C -0.1375 0.0412 -1.1156 0
M  V30 4 C 1.7285 1.4259 -2.1054 0
M  V30 5 C -0.004 0.4363 -3.6376 0
M  V30 6 C 0.6342 0.0293 0.2241 0
M  V30 7 C 2.4091 1.3706 -0.7401 0
M  V30 8 C -0.9178 -0.7244 -4.015 0
M  V30 9 N 1.3975 1.3034 0.3175 0
M  V30 10 C -0.2884 -0.2036 1.4288 0
M  V30 11 C 2.0157 1.4327 1.6411 0
M  V30 12 C -0.1275 0.5417 2.613 0
M  V30 13 C -1.2557 -1.2266 1.4164 0
M  V30 14 C 0.9261 1.6146 2.6988 0
M  V30 15 C -0.9716 0.3178 3.7104 0
M  V30 16 C -2.0819 -1.4719 2.5236 0
M  V30 17 C -1.9466 -0.6762 3.6624 0
M  V30 18 C -3.1352 -2.5382 2.4611 0
M  V30 19 H 2.1151 -0.8676 -3.2774 0
M  V30 20 H -0.6671 -0.9095 -1.236 0
M  V30 21 H -0.8972 0.8348 -1.0951 0
M  V30 22 H 1.165 2.3651 -2.1852 0
M  V30 23 H 2.5061 1.4474 -2.8791 0
M  V30 24 H -0.6048 1.3518 -3.5723 0
M  V30 25 H 0.7026 0.5768 -4.4658 0
M  V30 26 H 1.3395 -0.8149 0.2269 0
M  V30 27 H 3.007 2.2839 -0.6294 0
M  V30 28 H 3.1045 0.5232 -0.6867 0
M  V30 29 H -1.7252 -0.8516 -3.288 0
M  V30 30 H -1.3803 -0.5322 -4.9888 0
M  V30 31 H -0.363 -1.6645 -4.0881 0
M  V30 32 H 2.6672 2.3147 1.677 0
M  V30 33 H 2.6399 0.559 1.8727 0
M  V30 34 H -1.369 -1.8587 0.539 0
M  V30 35 H 1.3933 1.6008 3.6908 0
M  V30 36 H 0.4394 2.5898 2.5704 0
M  V30 37 H -0.8681 0.918 4.6115 0
M  V30 38 H -2.5916 -0.8318 4.5238 0
M  V30 39 H -3.3556 -2.9307 3.4595 0
M  V30 40 H -4.0553 -2.1301 2.0314 0
M  V30 41 H -2.8003 -3.3815 1.8481 0
M  V30 END ATOM
M  V30 BEGIN BOND
M  V30 1 1 1 2
M  V30 2 1 2 3
M  V30 3 1 2 4
M  V30 4 1 2 5
M  V30 5 1 3 6
M  V30 6 1 4 7
M  V30 7 1 5 8
M  V30 8 1 6 9
M  V30 9 1 6 10
M  V30 10 1 9 11
M  V30 11 2 10 12
M  V30 12 1 10 13
M  V30 13 1 11 14
M  V30 14 1 12 15
M  V30 15 2 13 16
M  V30 16 2 15 17
M  V30 17 1 16 18
M  V30 18 1 7 9
M  V30 19 1 12 14
M  V30 20 1 16 17
M  V30 21 1 1 19
M  V30 22 1 3 20
M  V30 23 1 3 21
M  V30 24 1 4 22
M  V30 25 1 4 23
M  V30 26 1 5 24
M  V30 27 1 5 25
M  V30 28 1 6 26
M  V30 29 1 7 27
M  V30 30 1 7 28
M  V30 31 1 8 29
M  V30 32 1 8 30
M  V30 33 1 8 31
M  V30 34 1 11 32
M  V30 35 1 11 33
M  V30 36 1 13 34
M  V30 37 1 14 35
M  V30 38 1 14 36
M  V30 39 1 15 37
M  V30 40 1 17 38
M  V30 41 1 18 39
M  V30 42 1 18 40
M  V30 43 1 18 41
M  V30 END BOND
M  V30 END CTAB
M  END
>  <Column 1>
1318

>  <level_0>
1464

>  <index>
1464

>  <Unnamed: 0>
1464

>  <NO.>
1476

>  <Name>
tolquinzole

>  <IUPAC_name>
2-ethyl-10-methyl-1-3-4-6-7-11b-hexahydrobenzo[a]quinolizin-2-ol

>  <SMILES>
CCC1(O)CCN2CCc3ccc(C)cc3C2C1

>  <CID>
3083943

>  <logBB>


>  <BBB+/BBB->
BBB+

>  <Inchi>
InChI=1S/C16H23NO/c1-3-16(18)7-9-17-8-6-13-5-4-12(2)10-14(13)15(17)11-16/h4-5-10-15-18H-3-6-9-11H2-1-2H3

>  <threshold>
-1

>  <reference>
R1|R19|R6|R27|R27|R30|

>  <group>
B

>  <Class>
1

>  <ABC>
14.29

>  <ABCGG>
11.51

>  <nAcid>
0

>  <nBase>
1

>  <nAromAtom>
6

>  <nAromBond>
6

>  <nAtom>
41

>  <nHeavyAtom>
18

>  <nSpiro>
0

>  <nBridgehead>
0

>  <nHetero>
2

>  <nN>
1

>  <nO>
1

>  <nF>
0

>  <BalabanJ>
1.76

>  <BertzCT>
456.41

>  <nBonds>
43

>  <nBondsO>
20

>  <nBondsS>
37

>  <nBondsD>
0

>  <nBondsT>
0

>  <nBondsA>
6

>  <nBondsM>
6

>  <nBondsKS>
40

>  <nBondsKD>
3

>  <RNCG>
0.34

>  <RPCG>
0.19

>  <FCSP3>
0.63

>  <SZ>
22.33

>  <Sm>
20.43

>  <Sv>
23.7

>  <Sse>
40.2

>  <Sp>
26.32

>  <Si>
46.28

>  <MZ>
0.54

>  <Mm>
0.5

>  <Mv>
0.58

>  <Mse>
0.98

>  <Mp>
0.64

>  <Mi>
1.13

>  <NsCH3>
2

>  <NdCH2>
0

>  <NssCH2>
6

>  <NtCH>
0

>  <NdsCH>
0

>  <NaaCH>
3

>  <NsssCH>
1

>  <NddC>
0

>  <NtsC>
0

>  <NdssC>
0

>  <NaasC>
3

>  <NaaaC>
0

>  <NssssC>
1

>  <NsNH3>
0

>  <NsNH2>
0

>  <NssNH2>
0

>  <NdNH>
0

>  <NssNH>
0

>  <NaaNH>
0

>  <NtN>
0

>  <NsssNH>
0

>  <NdsN>
0

>  <NaaN>
0

>  <NsssN>
1

>  <NddsN>
0

>  <NaasN>
0

>  <NssssN>
0

>  <NsOH>
1

>  <NdO>
0

>  <NssO>
0

>  <NaaO>
0

>  <NsF>
0

>  <NsSiH3>
0

>  <NssSiH2>
0

>  <NsssSiH>
0

>  <NssssSi>
0

>  <NsPH2>
0

>  <NssPH>
0

>  <NsssP>
0

>  <NdsssP>
0

>  <NsssssP>
0

>  <NsSH>
0

>  <NdS>
0

>  <NssS>
0

>  <NaaS>
0

>  <NdssS>
0

>  <NddssS>
0

>  <NsCl>
0

>  <NsBr>
0

>  <NsI>
0

>  <fragCpx>
94.02

>  <fMF>
0.34

>  <nHBAcc>
2

>  <nHBDon>
1

>  <Kier1>
13.01

>  <Kier2>
4.84

>  <Lipinski>
1

>  <GhoseFilter>
1

>  <FilterItLogS>
-3.59

>  <VMcGowan>
206.67

>  <LabuteASA>
109.62

>  <PEOE_VSA1>
5.11

>  <PEOE_VSA2>
4.9

>  <PEOE_VSA3>
0

>  <PEOE_VSA4>
0

>  <PEOE_VSA5>
0

>  <PEOE_VSA6>
30.69

>  <PEOE_VSA7>
43.73

>  <PEOE_VSA8>
19.13

>  <PEOE_VSA9>
5.6

>  <PEOE_VSA10>
0

>  <PEOE_VSA11>
0

>  <PEOE_VSA12>
0

>  <PEOE_VSA13>
0

>  <SMR_VSA1>
5.11

>  <SMR_VSA2>
0

>  <SMR_VSA3>
4.9

>  <SMR_VSA4>
0

>  <SMR_VSA5>
51.17

>  <SMR_VSA6>
13.09

>  <SMR_VSA7>
34.89

>  <SMR_VSA8>
0

>  <SMR_VSA9>
0

>  <SlogP_VSA1>
0

>  <SlogP_VSA2>
28.7

>  <SlogP_VSA3>
6.42

>  <SlogP_VSA4>
6.92

>  <SlogP_VSA5>
48.92

>  <SlogP_VSA6>
18.2

>  <SlogP_VSA7>
0

>  <SlogP_VSA8>
0

>  <SlogP_VSA9>
0

>  <SlogP_VSA10>
0

>  <SlogP_VSA11>
0

>  <EState_VSA1>
5.6

>  <EState_VSA2>
0

>  <EState_VSA3>
6.04

>  <EState_VSA4>
38.77

>  <EState_VSA5>
16.69

>  <EState_VSA6>
0

>  <EState_VSA7>
0

>  <EState_VSA8>
36.95

>  <EState_VSA9>
0

>  <EState_VSA10>
5.11

>  <VSA_EState1>
0

>  <VSA_EState2>
2.56

>  <VSA_EState3>
10.59

>  <VSA_EState4>
3.84

>  <VSA_EState5>
0

>  <VSA_EState6>
7.26

>  <VSA_EState7>
3.87

>  <VSA_EState8>
6.46

>  <VSA_EState9>
0

>  <apol>
43.96

>  <bpol>
24.78

>  <nRing>
3

>  <nHRing>
2

>  <naRing>
1

>  <naHRing>
0

>  <nARing 2>
2

>  <nAHRing 2>
2

>  <nFRing>
1

>  <nFHRing>
1

>  <nFaRing>
0

>  <nFaHRing>
0

>  <nFARing 2>
1

>  <nFAHRing 2>
1

>  <nRot>
1

>  <SLogP>
2.83

>  <SMR>
73.67

>  <TopoPSA(NO)>
23.47

>  <TopoPSA>
23.47

>  <JGI1>
0.25

>  <JGI2>
0.09

>  <JGI3>
0.04

>  <JGI4>
0.07

>  <JGI5>
0.03

>  <Diameter>
8

>  <Radius>
4

>  <TMWC10>
111.92

>  <TSRW10>
51.88

>  <MW>
245.18

>  <AMW>
5.98

>  <WPath>
549

>  <WPol>
31

>  <Zagreb1>
100

>  <Zagreb2>
120

>  <mZagreb2>
3.88

>  <yes>


>  <nAR-cont>
1

>  <nHA-cont>
0.991161285

>  <MWHBN>
0.191592601

>  <MWHBN-cont>
0.996569744

>  <TPSA-cont>
0.836164826

>  <pka_cont>
0.97

>  <yes.1>


>  <BBB_SCORE>
5.643345553

>  <MMFF94 Energy>
48.289

$$$$
Compound 1112
Actelion Java MolfileCreator 2.0

  0  0  0  0  0  0              0 V3000
M  V30 BEGIN CTAB
M  V30 COUNTS 43 44 0 0 0
M  V30 BEGIN ATOM
M  V30 1 O 0.7134 2.6178 1.7446 0
M  V30 2 C 0.5772 1.9021 0.7509 0
M  V30 3 N -0.5655 1.9399 -0.0331 0
M  V30 4 N 1.6047 1.0955 0.2893 0
M  V30 5 C -0.754 1.1713 -1.1691 0
M  V30 6 C -1.5749 2.9261 0.2922 0
M  V30 7 C 1.5223 0.2892 -0.8349 0
M  V30 8 C 2.8814 1.1698 0.9646 0
M  V30 9 O -1.5843 1.4678 -2.0319 0
M  V30 10 C 0.102 -0.1037 -1.2507 0
M  V30 11 O -2.5095 2.3416 1.1979 0
M  V30 12 O 2.5253 -0.0916 -1.4405 0
M  V30 13 O 2.9562 0.0574 1.8547 0
M  V30 14 C -0.5234 -1.1872 -0.3388 0
M  V30 15 C 0.1015 -0.6061 -2.7311 0
M  V30 16 C -3.7364 1.9911 0.5753 0
M  V30 17 C 4.1713 0.0635 2.5902 0
M  V30 18 C 0.2412 -1.938 0.5711 0
M  V30 19 C -1.8998 -1.4775 -0.4335 0
M  V30 20 C 0.6954 -1.9933 -2.9778 0
M  V30 21 C -0.3534 -2.9128 1.3771 0
M  V30 22 C -2.4908 -2.4529 0.372 0
M  V30 23 C -1.718 -3.1672 1.281 0
M  V30 24 H -1.1206 3.7823 0.8015 0
M  V30 25 H -2.0704 3.3114 -0.6066 0
M  V30 26 H 3.7022 1.1115 0.2411 0
M  V30 27 H 2.9815 2.1035 1.5287 0
M  V30 28 H -0.9232 -0.6284 -3.1254 0
M  V30 29 H 0.6422 0.1175 -3.3563 0
M  V30 30 H -4.3907 1.5498 1.3321 0
M  V30 31 H -3.578 1.2541 -0.2153 0
M  V30 32 H -4.2275 2.8812 0.17 0
M  V30 33 H 4.1794 -0.8091 3.2486 0
M  V30 34 H 4.2429 0.9655 3.2057 0
M  V30 35 H 5.0293 -0.0012 1.9142 0
M  V30 36 H 1.315 -1.793 0.6745 0
M  V30 37 H -2.5331 -0.9495 -1.1454 0
M  V30 38 H 0.7179 -2.1959 -4.054 0
M  V30 39 H 0.0896 -2.7781 -2.515 0
M  V30 40 H 1.7179 -2.0843 -2.6048 0
M  V30 41 H 0.2554 -3.4761 2.0803 0
M  V30 42 H -3.5551 -2.6567 0.2861 0
M  V30 43 H -2.1761 -3.9262 1.9095 0
M  V30 END ATOM
M  V30 BEGIN BOND
M  V30 1 2 1 2
M  V30 2 1 2 3
M  V30 3 1 2 4
M  V30 4 1 3 5
M  V30 5 1 3 6
M  V30 6 1 4 7
M  V30 7 1 4 8
M  V30 8 2 5 9
M  V30 9 1 5 10
M  V30 10 1 6 11
M  V30 11 2 7 12
M  V30 12 1 8 13
M  V30 13 1 10 14
M  V30 14 1 10 15
M  V30 15 1 11 16
M  V30 16 1 13 17
M  V30 17 2 14 18
M  V30 18 1 14 19
M  V30 19 1 15 20
M  V30 20 1 18 21
M  V30 21 2 19 22
M  V30 22 2 21 23
M  V30 23 1 7 10
M  V30 24 1 22 23
M  V30 25 1 6 24
M  V30 26 1 6 25
M  V30 27 1 8 26
M  V30 28 1 8 27
M  V30 29 1 15 28
M  V30 30 1 15 29
M  V30 31 1 16 30
M  V30 32 1 16 31
M  V30 33 1 16 32
M  V30 34 1 17 33
M  V30 35 1 17 34
M  V30 36 1 17 35
M  V30 37 1 18 36
M  V30 38 1 19 37
M  V30 39 1 20 38
M  V30 40 1 20 39
M  V30 41 1 20 40
M  V30 42 1 21 41
M  V30 43 1 22 42
M  V30 44 1 23 43
M  V30 END BOND
M  V30 END CTAB
M  END
>  <Column 1>
1319

>  <level_0>
1465

>  <index>
1465

>  <Unnamed: 0>
1465

>  <NO.>
1477

>  <Name>
eterobarb

>  <IUPAC_name>
5-ethyl-1-3-bis(methoxymethyl)-5-phenyl-1-3-diazinane-2-4-6-trione

>  <SMILES>
CCC1(c2ccccc2)C(=O)N(COC)C(=O)N(COC)C1=O

>  <CID>
33925

>  <logBB>


>  <BBB+/BBB->
BBB+

>  <Inchi>
InChI=1S/C16H20N2O5/c1-4-16(12-8-6-5-7-9-12)13(19)17(10-22-2)15(21)18(11-23-3)14(16)20/h5-9H-4-10-11H2-1-3H3

>  <threshold>
-1

>  <reference>
R1|R13|R19|R6|R24|R27|R27|R27|R30|R30|

>  <group>
B

>  <Class>
1

>  <ABC>
16.95

>  <ABCGG>
15.65

>  <nAcid>
0

>  <nBase>
0

>  <nAromAtom>
6

>  <nAromBond>
6

>  <nAtom>
43

>  <nHeavyAtom>
23

>  <nSpiro>
0

>  <nBridgehead>
0

>  <nHetero>
7

>  <nN>
2

>  <nO>
5

>  <nF>
0

>  <BalabanJ>
2.38

>  <BertzCT>
573.75

>  <nBonds>
44

>  <nBondsO>
24

>  <nBondsS>
35

>  <nBondsD>
3

>  <nBondsT>
0

>  <nBondsA>
6

>  <nBondsM>
9

>  <nBondsKS>
38

>  <nBondsKD>
6

>  <RNCG>
0.15

>  <RPCG>
0.14

>  <FCSP3>
0.44

>  <SZ>
28.33

>  <Sm>
26.67

>  <Sv>
26.51

>  <Sse>
43.86

>  <Sp>
27.7

>  <Si>
48.78

>  <MZ>
0.66

>  <Mm>
0.62

>  <Mv>
0.62

>  <Mse>
1.02

>  <Mp>
0.64

>  <Mi>
1.13

>  <NsCH3>
3

>  <NdCH2>
0

>  <NssCH2>
3

>  <NtCH>
0

>  <NdsCH>
0

>  <NaaCH>
5

>  <NsssCH>
0

>  <NddC>
0

>  <NtsC>
0

>  <NdssC>
3

>  <NaasC>
1

>  <NaaaC>
0

>  <NssssC>
1

>  <NsNH3>
0

>  <NsNH2>
0

>  <NssNH2>
0

>  <NdNH>
0

>  <NssNH>
0

>  <NaaNH>
0

>  <NtN>
0

>  <NsssNH>
0

>  <NdsN>
0

>  <NaaN>
0

>  <NsssN>
2

>  <NddsN>
0

>  <NaasN>
0

>  <NssssN>
0

>  <NsOH>
0

>  <NdO>
3

>  <NssO>
2

>  <NaaO>
0

>  <NsF>
0

>  <NsSiH3>
0

>  <NssSiH2>
0

>  <NsssSiH>
0

>  <NssssSi>
0

>  <NsPH2>
0

>  <NssPH>
0

>  <NsssP>
0

>  <NdsssP>
0

>  <NsssssP>
0

>  <NsSH>
0

>  <NdS>
0

>  <NssS>
0

>  <NaaS>
0

>  <NdssS>
0

>  <NddssS>
0

>  <NsCl>
0

>  <NsBr>
0

>  <NsI>
0

>  <fragCpx>
70.07

>  <fMF>
0.28

>  <nHBAcc>
5

>  <nHBDon>
0

>  <Kier1>
19.33

>  <Kier2>
8.39

>  <Lipinski>
1

>  <GhoseFilter>
1

>  <FilterItLogS>
-2.91

>  <VMcGowan>
238.09

>  <LabuteASA>
134.31

>  <PEOE_VSA1>
9.47

>  <PEOE_VSA2>
9.59

>  <PEOE_VSA3>
14.59

>  <PEOE_VSA4>
0

>  <PEOE_VSA5>
0

>  <PEOE_VSA6>
37.26

>  <PEOE_VSA7>
11.98

>  <PEOE_VSA8>
14.22

>  <PEOE_VSA9>
0

>  <PEOE_VSA10>
13.46

>  <PEOE_VSA11>
5.41

>  <PEOE_VSA12>
0

>  <PEOE_VSA13>
11.81

>  <SMR_VSA1>
23.86

>  <SMR_VSA2>
0

>  <SMR_VSA3>
9.8

>  <SMR_VSA4>
0

>  <SMR_VSA5>
18.76

>  <SMR_VSA6>
27.68

>  <SMR_VSA7>
35.9

>  <SMR_VSA8>
0

>  <SMR_VSA9>
0

>  <SlogP_VSA1>
0

>  <SlogP_VSA2>
55.33

>  <SlogP_VSA3>
24.48

>  <SlogP_VSA4>
0

>  <SlogP_VSA5>
18.91

>  <SlogP_VSA6>
30.33

>  <SlogP_VSA7>
0

>  <SlogP_VSA8>
0

>  <SlogP_VSA9>
0

>  <SlogP_VSA10>
4.79

>  <SlogP_VSA11>
0

>  <EState_VSA1>
23.26

>  <EState_VSA2>
19.88

>  <EState_VSA3>
5.56

>  <EState_VSA4>
9.8

>  <EState_VSA5>
14.22

>  <EState_VSA6>
37.26

>  <EState_VSA7>
0

>  <EState_VSA8>
0

>  <EState_VSA9>
9.47

>  <EState_VSA10>
14.38

>  <VSA_EState1>
9.93

>  <VSA_EState2>
40.25

>  <VSA_EState3>
0

>  <VSA_EState4>
-0.9

>  <VSA_EState5>
-1.15

>  <VSA_EState6>
8.01

>  <VSA_EState7>
0.22

>  <VSA_EState8>
1.3

>  <VSA_EState9>
2.77

>  <apol>
46.27

>  <bpol>
29.56

>  <nRing>
2

>  <nHRing>
1

>  <naRing>
1

>  <naHRing>
0

>  <nARing 2>
1

>  <nAHRing 2>
1

>  <nFRing>
0

>  <nFHRing>
0

>  <nFaRing>
0

>  <nFaHRing>
0

>  <nFARing 2>
0

>  <nFAHRing 2>
0

>  <nRot>
6

>  <SLogP>
1.33

>  <SMR>
81.25

>  <TopoPSA(NO)>
76.15

>  <TopoPSA>
76.15

>  <JGI1>
0.19

>  <JGI2>
0.12

>  <JGI3>
0.08

>  <JGI4>
0.05

>  <JGI5>
0.03

>  <Diameter>
9

>  <Radius>
5

>  <TMWC10>
123.15

>  <TSRW10>
57.77

>  <MW>
320.14

>  <AMW>
7.45

>  <WPath>
1030

>  <WPol>
45

>  <Zagreb1>
116

>  <Zagreb2>
143

>  <mZagreb2>
5.49

>  <yes>


>  <nAR-cont>
0.816016

>  <nHA-cont>
0.967789328

>  <MWHBN>
0.279447375

>  <MWHBN-cont>
0.897477127

>  <TPSA-cont>
0.468425714

>  <pka_cont>
0.97

>  <yes.1>


>  <BBB_SCORE>
4.551872446

>  <MMFF94 Energy>
-87.429

$$$$
Compound 1113
Actelion Java MolfileCreator 2.0

  0  0  0  0  0  0              0 V3000
M  V30 BEGIN CTAB
M  V30 COUNTS 41 43 0 0 0
M  V30 BEGIN ATOM
M  V30 1 O 2.2459 -0.0801 2.808 0
M  V30 2 C 2.2026 0.1608 1.6031 0
M  V30 3 N 1.6675 -0.6762 0.6582 0
M  V30 4 N 2.6271 1.3791 1.1557 0
M  V30 5 C 1.3784 -0.2817 -0.6391 0
M  V30 6 C 1.6744 -2.0198 0.9541 0
M  V30 7 C 2.3208 1.9389 -0.0527 0
M  V30 8 O 1.2424 -1.0873 -1.5621 0
M  V30 9 C 1.202 1.2371 -0.847 0 CFG=2
M  V30 10 O 2.6976 -2.698 1.0065 0
M  V30 11 C 0.3402 -2.6676 1.0807 0
M  V30 12 O 2.8721 2.9829 -0.3949 0
M  V30 13 C -0.1857 1.7075 -0.3451 0
M  V30 14 C 1.388 1.6247 -2.3467 0
M  V30 15 C 0.1839 -3.9796 0.62 0
M  V30 16 C -0.7409 -2.0005 1.6714 0
M  V30 17 C -1.3059 0.8543 -0.393 0
M  V30 18 C -0.3858 3.0198 0.1231 0
M  V30 19 C 0.2708 1.2354 -3.3129 0
M  V30 20 C -1.0561 -4.6112 0.7222 0
M  V30 21 C -1.979 -2.6381 1.7723 0
M  V30 22 C -2.5576 1.2781 0.06 0
M  V30 23 C -1.6389 3.4407 0.5762 0
M  V30 24 C -2.1365 -3.9391 1.2942 0
M  V30 25 C -2.722 2.5681 0.5525 0
M  V30 26 H 3.1963 1.9252 1.7885 0
M  V30 27 H 2.3259 1.1852 -2.7128 0
M  V30 28 H 1.5124 2.7123 -2.4383 0
M  V30 29 H 1.0243 -4.5086 0.1745 0
M  V30 30 H -0.6341 -0.9989 2.08 0
M  V30 31 H -1.2375 -0.1511 -0.8076 0
M  V30 32 H 0.4234 3.749 0.1333 0
M  V30 33 H 0.5708 1.4818 -4.3373 0
M  V30 34 H 0.0449 0.1672 -3.2861 0
M  V30 35 H -0.6489 1.791 -3.1068 0
M  V30 36 H -1.1779 -5.6287 0.3583 0
M  V30 37 H -2.8194 -2.125 2.2344 0
M  V30 38 H -3.4088 0.6025 0.0131 0
M  V30 39 H -1.7706 4.4581 0.938 0
M  V30 40 H -3.1007 -4.4357 1.3769 0
M  V30 41 H -3.6975 2.9004 0.8988 0
M  V30 END ATOM
M  V30 BEGIN BOND
M  V30 1 2 1 2
M  V30 2 1 2 3
M  V30 3 1 2 4
M  V30 4 1 3 5
M  V30 5 1 3 6
M  V30 6 1 4 7
M  V30 7 2 5 8
M  V30 8 1 5 9
M  V30 9 2 6 10
M  V30 10 1 6 11
M  V30 11 2 7 12
M  V30 12 1 9 13
M  V30 13 1 9 14
M  V30 14 2 11 15
M  V30 15 1 11 16
M  V30 16 2 13 17
M  V30 17 1 13 18
M  V30 18 1 14 19
M  V30 19 1 15 20
M  V30 20 2 16 21
M  V30 21 1 17 22
M  V30 22 2 18 23
M  V30 23 2 20 24
M  V30 24 2 22 25
M  V30 25 1 7 9
M  V30 26 1 21 24
M  V30 27 1 23 25
M  V30 28 1 4 26
M  V30 29 1 14 27
M  V30 30 1 14 28
M  V30 31 1 15 29
M  V30 32 1 16 30
M  V30 33 1 17 31
M  V30 34 1 18 32
M  V30 35 1 19 33
M  V30 36 1 19 34
M  V30 37 1 19 35
M  V30 38 1 20 36
M  V30 39 1 21 37
M  V30 40 1 22 38
M  V30 41 1 23 39
M  V30 42 1 24 40
M  V30 43 1 25 41
M  V30 END BOND
M  V30 BEGIN COLLECTION
M  V30 MDLV30/STERAC1 ATOMS=(1 9)
M  V30 END COLLECTION
M  V30 END CTAB
M  END
>  <Column 1>
1320

>  <level_0>
1466

>  <index>
1466

>  <Unnamed: 0>
1466

>  <NO.>
1478

>  <Name>
benzobarbital

>  <IUPAC_name>
1-benzoyl-5-ethyl-5-phenyl-1-3-diazinane-2-4-6-trione

>  <SMILES>
CCC1(c2ccccc2)C(=O)NC(=O)N(C(=O)c2ccccc2)C1=O

>  <CID>
12938

>  <logBB>


>  <BBB+/BBB->
BBB+

>  <Inchi>
InChI=1S/C19H16N2O4/c1-2-19(14-11-7-4-8-12-14)16(23)20-18(25)21(17(19)24)15(22)13-9-5-3-6-10-13/h3-12H-2H2-1H3-(H-20-23-25)

>  <threshold>
-1

>  <reference>
R1|R13|R19|R6|R27|R27|R30|

>  <group>
B

>  <Class>
1

>  <ABC>
19.18

>  <ABCGG>
16.49

>  <nAcid>
0

>  <nBase>
0

>  <nAromAtom>
12

>  <nAromBond>
12

>  <nAtom>
41

>  <nHeavyAtom>
25

>  <nSpiro>
0

>  <nBridgehead>
0

>  <nHetero>
6

>  <nN>
2

>  <nO>
4

>  <nF>
0

>  <BalabanJ>
1.85

>  <BertzCT>
848.24

>  <nBonds>
43

>  <nBondsO>
27

>  <nBondsS>
27

>  <nBondsD>
4

>  <nBondsT>
0

>  <nBondsA>
12

>  <nBondsM>
16

>  <nBondsKS>
33

>  <nBondsKD>
10

>  <RNCG>
0.12

>  <RPCG>
0.15

>  <FCSP3>
0.16

>  <SZ>
29.33

>  <Sm>
28

>  <Sv>
27.71

>  <Sse>
41.75

>  <Sp>
28.63

>  <Si>
45.74

>  <MZ>
0.72

>  <Mm>
0.68

>  <Mv>
0.68

>  <Mse>
1.02

>  <Mp>
0.7

>  <Mi>
1.12

>  <NsCH3>
1

>  <NdCH2>
0

>  <NssCH2>
1

>  <NtCH>
0

>  <NdsCH>
0

>  <NaaCH>
10

>  <NsssCH>
0

>  <NddC>
0

>  <NtsC>
0

>  <NdssC>
4

>  <NaasC>
2

>  <NaaaC>
0

>  <NssssC>
1

>  <NsNH3>
0

>  <NsNH2>
0

>  <NssNH2>
0

>  <NdNH>
0

>  <NssNH>
1

>  <NaaNH>
0

>  <NtN>
0

>  <NsssNH>
0

>  <NdsN>
0

>  <NaaN>
0

>  <NsssN>
1

>  <NddsN>
0

>  <NaasN>
0

>  <NssssN>
0

>  <NsOH>
0

>  <NdO>
4

>  <NssO>
0

>  <NaaO>
0

>  <NsF>
0

>  <NsSiH3>
0

>  <NssSiH2>
0

>  <NsssSiH>
0

>  <NssssSi>
0

>  <NsPH2>
0

>  <NssPH>
0

>  <NsssP>
0

>  <NdsssP>
0

>  <NsssssP>
0

>  <NsSH>
0

>  <NdS>
0

>  <NssS>
0

>  <NaaS>
0

>  <NdssS>
0

>  <NddssS>
0

>  <NsCl>
0

>  <NsBr>
0

>  <NsI>
0

>  <fragCpx>
129.06

>  <fMF>
0.46

>  <nHBAcc>
4

>  <nHBDon>
1

>  <Kier1>
19.75

>  <Kier2>
8.35

>  <Lipinski>
1

>  <GhoseFilter>
1

>  <FilterItLogS>
-4.26

>  <VMcGowan>
246.43

>  <LabuteASA>
143.99

>  <PEOE_VSA1>
0

>  <PEOE_VSA2>
19.7

>  <PEOE_VSA3>
4.79

>  <PEOE_VSA4>
4.9

>  <PEOE_VSA5>
0

>  <PEOE_VSA6>
55.45

>  <PEOE_VSA7>
24.12

>  <PEOE_VSA8>
5.56

>  <PEOE_VSA9>
0

>  <PEOE_VSA10>
0

>  <PEOE_VSA11>
5.41

>  <PEOE_VSA12>
5.91

>  <PEOE_VSA13>
11.81

>  <SMR_VSA1>
19.18

>  <SMR_VSA2>
0

>  <SMR_VSA3>
10.22

>  <SMR_VSA4>
0

>  <SMR_VSA5>
18.76

>  <SMR_VSA6>
0

>  <SMR_VSA7>
71.79

>  <SMR_VSA8>
0

>  <SMR_VSA9>
0

>  <SlogP_VSA1>
5.32

>  <SlogP_VSA2>
28.65

>  <SlogP_VSA3>
15

>  <SlogP_VSA4>
0

>  <SlogP_VSA5>
29.27

>  <SlogP_VSA6>
60.66

>  <SlogP_VSA7>
0

>  <SlogP_VSA8>
0

>  <SlogP_VSA9>
0

>  <SlogP_VSA10>
4.79

>  <SlogP_VSA11>
0

>  <EState_VSA1>
29.17

>  <EState_VSA2>
11.98

>  <EState_VSA3>
10.46

>  <EState_VSA4>
0

>  <EState_VSA5>
12.13

>  <EState_VSA6>
55.45

>  <EState_VSA7>
0

>  <EState_VSA8>
5.32

>  <EState_VSA9>
0

>  <EState_VSA10>
19.18

>  <VSA_EState1>
0

>  <VSA_EState2>
51.15

>  <VSA_EState3>
2.16

>  <VSA_EState4>
-0.98

>  <VSA_EState5>
-2.3

>  <VSA_EState6>
15.43

>  <VSA_EState7>
0.12

>  <VSA_EState8>
1.67

>  <VSA_EState9>
0

>  <apol>
47.81

>  <bpol>
21.8

>  <nRing>
3

>  <nHRing>
1

>  <naRing>
2

>  <naHRing>
0

>  <nARing 2>
1

>  <nAHRing 2>
1

>  <nFRing>
0

>  <nFHRing>
0

>  <nFaRing>
0

>  <nFaHRing>
0

>  <nFARing 2>
0

>  <nFAHRing 2>
0

>  <nRot>
3

>  <SLogP>
2.25

>  <SMR>
89.57

>  <TopoPSA(NO)>
83.55

>  <TopoPSA>
83.55

>  <JGI1>
0.19

>  <JGI2>
0.1

>  <JGI3>
0.07

>  <JGI4>
0.04

>  <JGI5>
0.03

>  <Diameter>
11

>  <Radius>
6

>  <TMWC10>
128.97

>  <TSRW10>
60.34

>  <MW>
336.11

>  <AMW>
8.2

>  <WPath>
1338

>  <WPol>
48

>  <Zagreb1>
132

>  <Zagreb2>
162

>  <mZagreb2>
5.65

>  <yes>


>  <nAR-cont>
0.816016

>  <nHA-cont>
0.921834225

>  <MWHBN>
0.272727724

>  <MWHBN-cont>
0.913817673

>  <TPSA-cont>
0.416769119

>  <pka_cont>
0.97

>  <yes.1>


>  <BBB_SCORE>
4.427114971

>  <MMFF94 Energy>
-25.863

$$$$
Compound 1114
Actelion Java MolfileCreator 2.0

  0  0  0  0  0  0              0 V3000
M  V30 BEGIN CTAB
M  V30 COUNTS 32 33 0 0 0
M  V30 BEGIN ATOM
M  V30 1 O 0.5561 -3.3404 -1.9873 0
M  V30 2 C 0.2807 -2.3948 -1.2519 0
M  V30 3 N 1.1318 -1.8817 -0.299 0
M  V30 4 N -0.9462 -1.8178 -1.3561 0
M  V30 5 C 0.8102 -0.8579 0.5824 0
M  V30 6 C 2.4285 -2.5148 -0.1262 0
M  V30 7 C -1.4379 -0.7668 -0.642 0
M  V30 8 O 1.5562 -0.5638 1.5229 0
M  V30 9 C -0.4904 -0.0846 0.3347 0 CFG=2
M  V30 10 O -2.6006 -0.4058 -0.8271 0
M  V30 11 C -0.1182 1.3076 -0.2405 0
M  V30 12 C -1.2433 -0.0088 1.7036 0
M  V30 13 C -0.4106 2.5115 0.4235 0
M  V30 14 C 0.5471 1.3963 -1.4822 0
M  V30 15 C -1.6262 -1.3653 2.2985 0
M  V30 16 C -0.0559 3.7469 -0.1278 0
M  V30 17 C 0.9002 2.6319 -2.0308 0
M  V30 18 C 0.5983 3.8075 -1.3533 0
M  V30 19 H -1.5746 -2.2322 -2.0306 0
M  V30 20 H 2.3868 -3.1464 0.7671 0
M  V30 21 H 2.7049 -3.1309 -0.9857 0
M  V30 22 H 3.1985 -1.7512 0.0245 0
M  V30 23 H -2.1667 0.5758 1.5963 0
M  V30 24 H -0.6276 0.5129 2.4481 0
M  V30 25 H -0.9193 2.5263 1.3837 0
M  V30 26 H 0.8046 0.5053 -2.05 0
M  V30 27 H -2.1412 -1.2172 3.2536 0
M  V30 28 H -2.3036 -1.919 1.6419 0
M  V30 29 H -0.7466 -1.9862 2.4909 0
M  V30 30 H -0.2934 4.6645 0.4052 0
M  V30 31 H 1.4115 2.6755 -2.9892 0
M  V30 32 H 0.872 4.7693 -1.7784 0
M  V30 END ATOM
M  V30 BEGIN BOND
M  V30 1 2 1 2
M  V30 2 1 2 3
M  V30 3 1 2 4
M  V30 4 1 3 5
M  V30 5 1 3 6
M  V30 6 1 4 7
M  V30 7 2 5 8
M  V30 8 1 5 9
M  V30 9 2 7 10
M  V30 10 1 9 11
M  V30 11 1 9 12
M  V30 12 2 11 13
M  V30 13 1 11 14
M  V30 14 1 12 15
M  V30 15 1 13 16
M  V30 16 2 14 17
M  V30 17 2 16 18
M  V30 18 1 7 9
M  V30 19 1 17 18
M  V30 20 1 4 19
M  V30 21 1 6 20
M  V30 22 1 6 21
M  V30 23 1 6 22
M  V30 24 1 12 23
M  V30 25 1 12 24
M  V30 26 1 13 25
M  V30 27 1 14 26
M  V30 28 1 15 27
M  V30 29 1 15 28
M  V30 30 1 15 29
M  V30 31 1 16 30
M  V30 32 1 17 31
M  V30 33 1 18 32
M  V30 END BOND
M  V30 BEGIN COLLECTION
M  V30 MDLV30/STERAC1 ATOMS=(1 9)
M  V30 END COLLECTION
M  V30 END CTAB
M  END
>  <Column 1>
1321

>  <level_0>
1467

>  <index>
1467

>  <Unnamed: 0>
1467

>  <NO.>
1479

>  <Name>
mephobarbital(methylphenobarbital)

>  <IUPAC_name>
5-ethyl-1-methyl-5-phenyl-1-3-diazinane-2-4-6-trione

>  <SMILES>
CCC1(c2ccccc2)C(=O)NC(=O)N(C)C1=O

>  <CID>
8271

>  <logBB>


>  <BBB+/BBB->
BBB+

>  <Inchi>
InChI=1S/C13H14N2O3/c1-3-13(9-7-5-4-6-8-9)10(16)14-12(18)15(2)11(13)17/h4-8H-3H2-1-2H3-(H-14-16-18)

>  <threshold>
-1

>  <reference>
R1|R13|R19|R6|R14|R23|R27|R27|R30|

>  <group>
B

>  <Class>
1

>  <ABC>
13.61

>  <ABCGG>
12.53

>  <nAcid>
0

>  <nBase>
0

>  <nAromAtom>
6

>  <nAromBond>
6

>  <nAtom>
32

>  <nHeavyAtom>
18

>  <nSpiro>
0

>  <nBridgehead>
0

>  <nHetero>
5

>  <nN>
2

>  <nO>
3

>  <nF>
0

>  <BalabanJ>
2.27

>  <BertzCT>
512.23

>  <nBonds>
33

>  <nBondsO>
19

>  <nBondsS>
24

>  <nBondsD>
3

>  <nBondsT>
0

>  <nBondsA>
6

>  <nBondsM>
9

>  <nBondsKS>
27

>  <nBondsKD>
6

>  <RNCG>
0.16

>  <RPCG>
0.19

>  <FCSP3>
0.31

>  <SZ>
21.67

>  <Sm>
20.5

>  <Sv>
20.45

>  <Sse>
32.53

>  <Sp>
21.35

>  <Si>
36.12

>  <MZ>
0.68

>  <Mm>
0.64

>  <Mv>
0.64

>  <Mse>
1.02

>  <Mp>
0.67

>  <Mi>
1.13

>  <NsCH3>
2

>  <NdCH2>
0

>  <NssCH2>
1

>  <NtCH>
0

>  <NdsCH>
0

>  <NaaCH>
5

>  <NsssCH>
0

>  <NddC>
0

>  <NtsC>
0

>  <NdssC>
3

>  <NaasC>
1

>  <NaaaC>
0

>  <NssssC>
1

>  <NsNH3>
0

>  <NsNH2>
0

>  <NssNH2>
0

>  <NdNH>
0

>  <NssNH>
1

>  <NaaNH>
0

>  <NtN>
0

>  <NsssNH>
0

>  <NdsN>
0

>  <NaaN>
0

>  <NsssN>
1

>  <NddsN>
0

>  <NaasN>
0

>  <NssssN>
0

>  <NsOH>
0

>  <NdO>
3

>  <NssO>
0

>  <NaaO>
0

>  <NsF>
0

>  <NsSiH3>
0

>  <NssSiH2>
0

>  <NsssSiH>
0

>  <NssssSi>
0

>  <NsPH2>
0

>  <NssPH>
0

>  <NsssP>
0

>  <NdsssP>
0

>  <NsssssP>
0

>  <NsSH>
0

>  <NdS>
0

>  <NssS>
0

>  <NaaS>
0

>  <NdssS>
0

>  <NddssS>
0

>  <NsCl>
0

>  <NsBr>
0

>  <NsI>
0

>  <fragCpx>
55.05

>  <fMF>
0.38

>  <nHBAcc>
3

>  <nHBDon>
1

>  <Kier1>
14.41

>  <Kier2>
5.55

>  <Lipinski>
1

>  <GhoseFilter>
1

>  <FilterItLogS>
-2.98

>  <VMcGowan>
184.08

>  <LabuteASA>
104.77

>  <PEOE_VSA1>
0

>  <PEOE_VSA2>
19.81

>  <PEOE_VSA3>
4.79

>  <PEOE_VSA4>
0

>  <PEOE_VSA5>
0

>  <PEOE_VSA6>
37.26

>  <PEOE_VSA7>
11.98

>  <PEOE_VSA8>
7.05

>  <PEOE_VSA9>
0

>  <PEOE_VSA10>
0

>  <PEOE_VSA11>
5.41

>  <PEOE_VSA12>
5.91

>  <PEOE_VSA13>
5.91

>  <SMR_VSA1>
14.38

>  <SMR_VSA2>
0

>  <SMR_VSA3>
10.22

>  <SMR_VSA4>
0

>  <SMR_VSA5>
18.76

>  <SMR_VSA6>
7.05

>  <SMR_VSA7>
35.9

>  <SMR_VSA8>
0

>  <SMR_VSA9>
0

>  <SlogP_VSA1>
5.32

>  <SlogP_VSA2>
29.79

>  <SlogP_VSA3>
15

>  <SlogP_VSA4>
0

>  <SlogP_VSA5>
18.91

>  <SlogP_VSA6>
30.33

>  <SlogP_VSA7>
0

>  <SlogP_VSA8>
0

>  <SlogP_VSA9>
0

>  <SlogP_VSA10>
4.79

>  <SlogP_VSA11>
0

>  <EState_VSA1>
23.26

>  <EState_VSA2>
0

>  <EState_VSA3>
11.98

>  <EState_VSA4>
4.9

>  <EState_VSA5>
7.05

>  <EState_VSA6>
31.19

>  <EState_VSA7>
6.07

>  <EState_VSA8>
5.32

>  <EState_VSA9>
0

>  <EState_VSA10>
14.38

>  <VSA_EState1>
0

>  <VSA_EState2>
36.86

>  <VSA_EState3>
2.23

>  <VSA_EState4>
-0.7

>  <VSA_EState5>
-1.03

>  <VSA_EState6>
8.13

>  <VSA_EState7>
0.3

>  <VSA_EState8>
1.76

>  <VSA_EState9>
1.37

>  <apol>
35.65

>  <bpol>
18.93

>  <nRing>
2

>  <nHRing>
1

>  <naRing>
1

>  <naHRing>
0

>  <nARing 2>
1

>  <nAHRing 2>
1

>  <nFRing>
0

>  <nFHRing>
0

>  <nFaRing>
0

>  <nFaHRing>
0

>  <nFARing 2>
0

>  <nFAHRing 2>
0

>  <nRot>
2

>  <SLogP>
1.04

>  <SMR>
64.72

>  <TopoPSA(NO)>
66.48

>  <TopoPSA>
66.48

>  <JGI1>
0.24

>  <JGI2>
0.13

>  <JGI3>
0.07

>  <JGI4>
0.05

>  <JGI5>
0.03

>  <Diameter>
8

>  <Radius>
4

>  <TMWC10>
110.99

>  <TSRW10>
51.78

>  <MW>
246.1

>  <AMW>
7.69

>  <WPath>
526

>  <WPol>
35

>  <Zagreb1>
94

>  <Zagreb2>
116

>  <mZagreb2>
4.1

>  <yes>


>  <nAR-cont>
0.816016

>  <nHA-cont>
0.991161285

>  <MWHBN>
0.254978866

>  <MWHBN-cont>
0.951017977

>  <TPSA-cont>
0.535928318

>  <pka_cont>
0.97

>  <yes.1>


>  <BBB_SCORE>
4.790560887

>  <MMFF94 Energy>
-62.221

$$$$
Compound 1115
Actelion Java MolfileCreator 2.0

  0  0  0  0  0  0              0 V3000
M  V30 BEGIN CTAB
M  V30 COUNTS 30 31 0 0 0
M  V30 BEGIN ATOM
M  V30 1 O -1.3449 1.1075 3.2461 0
M  V30 2 C -1.2986 0.7103 2.0944 0
M  V30 3 N -0.2517 0.0398 1.4915 0
M  V30 4 N -2.2914 0.8659 1.1846 0
M  V30 5 C -0.536 -0.2928 0.0893 0 CFG=1
M  V30 6 C 0.9902 -0.2962 2.1545 0
M  V30 7 C -1.9585 0.3166 -0.0159 0
M  V30 8 C 0.4241 0.4387 -0.864 0
M  V30 9 C -0.641 -1.8262 -0.1232 0
M  V30 10 O -2.6908 0.3073 -0.9958 0
M  V30 11 C 0.6602 1.8215 -0.7083 0
M  V30 12 C 1.0916 -0.2151 -1.9145 0
M  V30 13 C -1.5737 -2.5646 0.8362 0
M  V30 14 C 1.5259 2.5135 -1.5589 0
M  V30 15 C 1.9578 0.479 -2.766 0
M  V30 16 C 2.1752 1.8414 -2.5879 0
M  V30 17 H -3.1641 1.3241 1.3809 0
M  V30 18 H 1.1254 -1.3804 2.139 0
M  V30 19 H 0.9748 0.0455 3.193 0
M  V30 20 H 1.8228 0.1843 1.6349 0
M  V30 21 H -0.9912 -2.0344 -1.1427 0
M  V30 22 H 0.3537 -2.2804 -0.0295 0
M  V30 23 H 0.1725 2.382 0.0874 0
M  V30 24 H 0.9538 -1.2765 -2.1034 0
M  V30 25 H -2.6054 -2.2112 0.749 0
M  V30 26 H -1.5717 -3.6345 0.6027 0
M  V30 27 H -1.2544 -2.4545 1.8766 0
M  V30 28 H 1.6903 3.5788 -1.4162 0
M  V30 29 H 2.4604 -0.0478 -3.5735 0
M  V30 30 H 2.8467 2.3785 -3.2523 0
M  V30 END ATOM
M  V30 BEGIN BOND
M  V30 1 2 1 2
M  V30 2 1 2 3
M  V30 3 1 2 4
M  V30 4 1 3 5
M  V30 5 1 3 6
M  V30 6 1 4 7
M  V30 7 1 5 8
M  V30 8 1 5 9
M  V30 9 2 7 10
M  V30 10 2 8 11
M  V30 11 1 8 12
M  V30 12 1 9 13
M  V30 13 1 11 14
M  V30 14 2 12 15
M  V30 15 2 14 16
M  V30 16 1 5 7
M  V30 17 1 15 16
M  V30 18 1 4 17
M  V30 19 1 6 18
M  V30 20 1 6 19
M  V30 21 1 6 20
M  V30 22 1 9 21
M  V30 23 1 9 22
M  V30 24 1 11 23
M  V30 25 1 12 24
M  V30 26 1 13 25
M  V30 27 1 13 26
M  V30 28 1 13 27
M  V30 29 1 14 28
M  V30 30 1 15 29
M  V30 31 1 16 30
M  V30 END BOND
M  V30 BEGIN COLLECTION
M  V30 MDLV30/STERAC1 ATOMS=(1 5)
M  V30 END COLLECTION
M  V30 END CTAB
M  END
>  <Column 1>
1322

>  <level_0>
1468

>  <index>
1468

>  <Unnamed: 0>
1468

>  <NO.>
1480

>  <Name>
methetoin

>  <IUPAC_name>
5-ethyl-1-methyl-5-phenylimidazolidine-2-4-dione

>  <SMILES>
CCC1(c2ccccc2)C(=O)NC(=O)N1C

>  <CID>
21908

>  <logBB>


>  <BBB+/BBB->
BBB+

>  <Inchi>
InChI=1S/C12H14N2O2/c1-3-12(9-7-5-4-6-8-9)10(15)13-11(16)14(12)2/h4-8H-3H2-1-2H3-(H-13-15-16)

>  <threshold>
-1

>  <reference>
R1|R13|R19|R6|R27|R27|R30|

>  <group>
B

>  <Class>
1

>  <ABC>
12.12

>  <ABCGG>
11.65

>  <nAcid>
0

>  <nBase>
0

>  <nAromAtom>
6

>  <nAromBond>
6

>  <nAtom>
30

>  <nHeavyAtom>
16

>  <nSpiro>
0

>  <nBridgehead>
0

>  <nHetero>
4

>  <nN>
2

>  <nO>
2

>  <nF>
0

>  <BalabanJ>
2.22

>  <BertzCT>
429.9

>  <nBonds>
31

>  <nBondsO>
17

>  <nBondsS>
23

>  <nBondsD>
2

>  <nBondsT>
0

>  <nBondsA>
6

>  <nBondsM>
8

>  <nBondsKS>
26

>  <nBondsKD>
5

>  <RNCG>
0.21

>  <RPCG>
0.22

>  <FCSP3>
0.33

>  <SZ>
19.33

>  <Sm>
18.17

>  <Sv>
18.74

>  <Sse>
30.2

>  <Sp>
19.87

>  <Si>
33.91

>  <MZ>
0.64

>  <Mm>
0.61

>  <Mv>
0.62

>  <Mse>
1.01

>  <Mp>
0.66

>  <Mi>
1.13

>  <NsCH3>
2

>  <NdCH2>
0

>  <NssCH2>
1

>  <NtCH>
0

>  <NdsCH>
0

>  <NaaCH>
5

>  <NsssCH>
0

>  <NddC>
0

>  <NtsC>
0

>  <NdssC>
2

>  <NaasC>
1

>  <NaaaC>
0

>  <NssssC>
1

>  <NsNH3>
0

>  <NsNH2>
0

>  <NssNH2>
0

>  <NdNH>
0

>  <NssNH>
1

>  <NaaNH>
0

>  <NtN>
0

>  <NsssNH>
0

>  <NdsN>
0

>  <NaaN>
0

>  <NsssN>
1

>  <NddsN>
0

>  <NaasN>
0

>  <NssssN>
0

>  <NsOH>
0

>  <NdO>
2

>  <NssO>
0

>  <NaaO>
0

>  <NsF>
0

>  <NsSiH3>
0

>  <NssSiH2>
0

>  <NsssSiH>
0

>  <NssssSi>
0

>  <NsPH2>
0

>  <NssPH>
0

>  <NsssP>
0

>  <NdsssP>
0

>  <NsssssP>
0

>  <NsSH>
0

>  <NdS>
0

>  <NssS>
0

>  <NaaS>
0

>  <NdssS>
0

>  <NddssS>
0

>  <NsCl>
0

>  <NsBr>
0

>  <NsI>
0

>  <fragCpx>
49.04

>  <fMF>
0.37

>  <nHBAcc>
2

>  <nHBDon>
1

>  <Kier1>
12.46

>  <Kier2>
4.7

>  <Lipinski>
1

>  <GhoseFilter>
1

>  <FilterItLogS>
-2.81

>  <VMcGowan>
168.42

>  <LabuteASA>
94.25

>  <PEOE_VSA1>
4.9

>  <PEOE_VSA2>
10.11

>  <PEOE_VSA3>
4.79

>  <PEOE_VSA4>
0

>  <PEOE_VSA5>
0

>  <PEOE_VSA6>
37.26

>  <PEOE_VSA7>
11.98

>  <PEOE_VSA8>
7.05

>  <PEOE_VSA9>
0

>  <PEOE_VSA10>
5.54

>  <PEOE_VSA11>
0

>  <PEOE_VSA12>
0

>  <PEOE_VSA13>
5.91

>  <SMR_VSA1>
9.59

>  <SMR_VSA2>
0

>  <SMR_VSA3>
10.22

>  <SMR_VSA4>
0

>  <SMR_VSA5>
18.88

>  <SMR_VSA6>
7.05

>  <SMR_VSA7>
35.9

>  <SMR_VSA8>
0

>  <SMR_VSA9>
0

>  <SlogP_VSA1>
5.32

>  <SlogP_VSA2>
23.89

>  <SlogP_VSA3>
10.33

>  <SlogP_VSA4>
0

>  <SlogP_VSA5>
18.91

>  <SlogP_VSA6>
30.33

>  <SlogP_VSA7>
0

>  <SlogP_VSA8>
0

>  <SlogP_VSA9>
0

>  <SlogP_VSA10>
4.79

>  <SlogP_VSA11>
0

>  <EState_VSA1>
5.54

>  <EState_VSA2>
11.94

>  <EState_VSA3>
6.42

>  <EState_VSA4>
5.56

>  <EState_VSA5>
4.9

>  <EState_VSA6>
7.05

>  <EState_VSA7>
37.26

>  <EState_VSA8>
5.32

>  <EState_VSA9>
0

>  <EState_VSA10>
9.59

>  <VSA_EState1>
0

>  <VSA_EState2>
24.98

>  <VSA_EState3>
2.35

>  <VSA_EState4>
0

>  <VSA_EState5>
-0.24

>  <VSA_EState6>
9.04

>  <VSA_EState7>
0.56

>  <VSA_EState8>
1.9

>  <VSA_EState9>
1.65

>  <apol>
33.18

>  <bpol>
18.06

>  <nRing>
2

>  <nHRing>
1

>  <naRing>
1

>  <naHRing>
0

>  <nARing 2>
1

>  <nAHRing 2>
1

>  <nFRing>
0

>  <nFHRing>
0

>  <nFaRing>
0

>  <nFaHRing>
0

>  <nFARing 2>
0

>  <nFAHRing 2>
0

>  <nRot>
2

>  <SLogP>
1.47

>  <SMR>
59.71

>  <TopoPSA(NO)>
49.41

>  <TopoPSA>
49.41

>  <JGI1>
0.24

>  <JGI2>
0.12

>  <JGI3>
0.09

>  <JGI4>
0.03

>  <JGI5>
0.02

>  <Diameter>
7

>  <Radius>
4

>  <TMWC10>
106.1

>  <TSRW10>
63.65

>  <MW>
218.11

>  <AMW>
7.27

>  <WPath>
383

>  <WPol>
29

>  <Zagreb1>
84

>  <Zagreb2>
104

>  <mZagreb2>
3.65

>  <yes>


>  <nAR-cont>
0.816016

>  <nHA-cont>
0.954961865

>  <MWHBN>
0.203134395

>  <MWHBN-cont>
0.999973647

>  <TPSA-cont>
0.655087518

>  <pka_cont>
0.97

>  <yes.1>


>  <BBB_SCORE>
5.066113371

>  <MMFF94 Energy>
-26.506

$$$$
Compound 1116
Actelion Java MolfileCreator 2.0

  0  0  0  0  0  0              0 V3000
M  V30 BEGIN CTAB
M  V30 COUNTS 31 32 0 0 0
M  V30 BEGIN ATOM
M  V30 1 O 1.9077 1.033 1.9873 0
M  V30 2 C 0.7277 0.924 1.6514 0
M  V30 3 N -0.1725 1.8769 2.0636 0
M  V30 4 C 0.1949 -0.22 0.7481 0 CFG=2
M  V30 5 C -1.5347 1.8756 1.9321 0
M  V30 6 C 0.2804 0.1844 -0.74 0
M  V30 7 C -1.2378 -0.5219 1.2599 0
M  V30 8 C 1.1161 -1.4579 0.9872 0
M  V30 9 O -2.2139 2.802 2.3664 0
M  V30 10 C -2.1424 0.7047 1.2094 0
M  V30 11 C -0.6867 -0.2074 -1.6834 0
M  V30 12 C 1.3823 0.9221 -1.2162 0
M  V30 13 C 0.6827 -2.7566 0.3148 0
M  V30 14 C -0.58 0.1584 -3.029 0
M  V30 15 C 1.4888 1.2874 -2.561 0
M  V30 16 C 0.5042 0.9107 -3.4666 0
M  V30 17 H 0.2163 2.651 2.5838 0
M  V30 18 H -1.1801 -0.8623 2.304 0
M  V30 19 H -1.7141 -1.3361 0.7041 0
M  V30 20 H 1.1892 -1.6487 2.0669 0
M  V30 21 H 2.1398 -1.2337 0.6577 0
M  V30 22 H -2.3575 1.0153 0.1829 0
M  V30 23 H -3.0981 0.4659 1.6898 0
M  V30 24 H -1.5412 -0.8163 -1.4013 0
M  V30 25 H 2.1909 1.2182 -0.5488 0
M  V30 26 H 1.4069 -3.5467 0.5402 0
M  V30 27 H -0.2912 -3.0961 0.6778 0
M  V30 28 H 0.6371 -2.656 -0.7727 0
M  V30 29 H -1.3438 -0.1526 -3.7376 0
M  V30 30 H 2.3483 1.8611 -2.8992 0
M  V30 31 H 0.588 1.1922 -4.5128 0
M  V30 END ATOM
M  V30 BEGIN BOND
M  V30 1 2 1 2
M  V30 2 1 2 3
M  V30 3 1 2 4
M  V30 4 1 3 5
M  V30 5 1 4 6
M  V30 6 1 4 7
M  V30 7 1 4 8
M  V30 8 2 5 9
M  V30 9 1 5 10
M  V30 10 2 6 11
M  V30 11 1 6 12
M  V30 12 1 8 13
M  V30 13 1 11 14
M  V30 14 2 12 15
M  V30 15 2 14 16
M  V30 16 1 7 10
M  V30 17 1 15 16
M  V30 18 1 3 17
M  V30 19 1 7 18
M  V30 20 1 7 19
M  V30 21 1 8 20
M  V30 22 1 8 21
M  V30 23 1 10 22
M  V30 24 1 10 23
M  V30 25 1 11 24
M  V30 26 1 12 25
M  V30 27 1 13 26
M  V30 28 1 13 27
M  V30 29 1 13 28
M  V30 30 1 14 29
M  V30 31 1 15 30
M  V30 32 1 16 31
M  V30 END BOND
M  V30 BEGIN COLLECTION
M  V30 MDLV30/STERAC1 ATOMS=(1 4)
M  V30 END COLLECTION
M  V30 END CTAB
M  END
>  <Column 1>
1323

>  <level_0>
1469

>  <index>
1469

>  <Unnamed: 0>
1469

>  <NO.>
1481

>  <Name>
piperacillin

>  <IUPAC_name>
3-ethyl-3-phenylpiperidine-2-6-dione

>  <SMILES>
CCC1(c2ccccc2)CCC(=O)NC1=O

>  <CID>
3487

>  <logBB>


>  <BBB+/BBB->
BBB+

>  <Inchi>
InChI=1S/C13H15NO2/c1-2-13(10-6-4-3-5-7-10)9-8-11(15)14-12(13)16/h3-7H-2-8-9H2-1H3-(H-14-15-16)

>  <threshold>
-1

>  <reference>
R1|R13|R19|R6|R27|R27|R30|R36|

>  <group>
B

>  <Class>
1

>  <ABC>
12.12

>  <ABCGG>
10.85

>  <nAcid>
0

>  <nBase>
0

>  <nAromAtom>
6

>  <nAromBond>
6

>  <nAtom>
31

>  <nHeavyAtom>
16

>  <nSpiro>
0

>  <nBridgehead>
0

>  <nHetero>
3

>  <nN>
1

>  <nO>
2

>  <nF>
0

>  <BalabanJ>
2.1

>  <BertzCT>
413.2

>  <nBonds>
32

>  <nBondsO>
17

>  <nBondsS>
24

>  <nBondsD>
2

>  <nBondsT>
0

>  <nBondsA>
6

>  <nBondsM>
8

>  <nBondsKS>
27

>  <nBondsKD>
5

>  <RNCG>
0.23

>  <RPCG>
0.18

>  <FCSP3>
0.38

>  <SZ>
19.33

>  <Sm>
18.09

>  <Sv>
19.25

>  <Sse>
30.98

>  <Sp>
20.61

>  <Si>
34.82

>  <MZ>
0.62

>  <Mm>
0.58

>  <Mv>
0.62

>  <Mse>
1

>  <Mp>
0.66

>  <Mi>
1.12

>  <NsCH3>
1

>  <NdCH2>
0

>  <NssCH2>
3

>  <NtCH>
0

>  <NdsCH>
0

>  <NaaCH>
5

>  <NsssCH>
0

>  <NddC>
0

>  <NtsC>
0

>  <NdssC>
2

>  <NaasC>
1

>  <NaaaC>
0

>  <NssssC>
1

>  <NsNH3>
0

>  <NsNH2>
0

>  <NssNH2>
0

>  <NdNH>
0

>  <NssNH>
1

>  <NaaNH>
0

>  <NtN>
0

>  <NsssNH>
0

>  <NdsN>
0

>  <NaaN>
0

>  <NsssN>
0

>  <NddsN>
0

>  <NaasN>
0

>  <NssssN>
0

>  <NsOH>
0

>  <NdO>
2

>  <NssO>
0

>  <NaaO>
0

>  <NsF>
0

>  <NsSiH3>
0

>  <NssSiH2>
0

>  <NsssSiH>
0

>  <NssssSi>
0

>  <NsPH2>
0

>  <NssPH>
0

>  <NsssP>
0

>  <NdsssP>
0

>  <NsssssP>
0

>  <NsSH>
0

>  <NdS>
0

>  <NssS>
0

>  <NaaS>
0

>  <NdssS>
0

>  <NddssS>
0

>  <NsCl>
0

>  <NsBr>
0

>  <NsI>
0

>  <fragCpx>
49.03

>  <fMF>
0.39

>  <nHBAcc>
2

>  <nHBDon>
1

>  <Kier1>
12.46

>  <Kier2>
5.1

>  <Lipinski>
1

>  <GhoseFilter>
1

>  <FilterItLogS>
-3.65

>  <VMcGowan>
172.53

>  <LabuteASA>
94.85

>  <PEOE_VSA1>
0

>  <PEOE_VSA2>
14.91

>  <PEOE_VSA3>
0

>  <PEOE_VSA4>
0

>  <PEOE_VSA5>
0

>  <PEOE_VSA6>
37.26

>  <PEOE_VSA7>
18.41

>  <PEOE_VSA8>
6.42

>  <PEOE_VSA9>
5.41

>  <PEOE_VSA10>
0

>  <PEOE_VSA11>
0

>  <PEOE_VSA12>
11.81

>  <PEOE_VSA13>
0

>  <SMR_VSA1>
9.59

>  <SMR_VSA2>
0

>  <SMR_VSA3>
5.32

>  <SMR_VSA4>
0

>  <SMR_VSA5>
31.6

>  <SMR_VSA6>
0

>  <SMR_VSA7>
35.9

>  <SMR_VSA8>
0

>  <SMR_VSA9>
0

>  <SlogP_VSA1>
5.32

>  <SlogP_VSA2>
11.81

>  <SlogP_VSA3>
15

>  <SlogP_VSA4>
0

>  <SlogP_VSA5>
31.75

>  <SlogP_VSA6>
30.33

>  <SlogP_VSA7>
0

>  <SlogP_VSA8>
0

>  <SlogP_VSA9>
0

>  <SlogP_VSA10>
0

>  <SlogP_VSA11>
0

>  <EState_VSA1>
5.41

>  <EState_VSA2>
11.81

>  <EState_VSA3>
12.84

>  <EState_VSA4>
11.98

>  <EState_VSA5>
0

>  <EState_VSA6>
0

>  <EState_VSA7>
37.26

>  <EState_VSA8>
5.32

>  <EState_VSA9>
0

>  <EState_VSA10>
9.59

>  <VSA_EState1>
0

>  <VSA_EState2>
23.2

>  <VSA_EState3>
2.44

>  <VSA_EState4>
0.48

>  <VSA_EState5>
-0.32

>  <VSA_EState6>
9.7

>  <VSA_EState7>
1.75

>  <VSA_EState8>
1.99

>  <VSA_EState9>
0

>  <apol>
34.42

>  <bpol>
17.35

>  <nRing>
2

>  <nHRing>
1

>  <naRing>
1

>  <naHRing>
0

>  <nARing 2>
1

>  <nAHRing 2>
1

>  <nFRing>
0

>  <nFHRing>
0

>  <nFaRing>
0

>  <nFaHRing>
0

>  <nFARing 2>
0

>  <nFAHRing 2>
0

>  <nRot>
2

>  <SLogP>
1.77

>  <SMR>
60.79

>  <TopoPSA(NO)>
46.17

>  <TopoPSA>
46.17

>  <JGI1>
0.24

>  <JGI2>
0.11

>  <JGI3>
0.06

>  <JGI4>
0.04

>  <JGI5>
0.03

>  <Diameter>
8

>  <Radius>
4

>  <TMWC10>
104.78

>  <TSRW10>
48.85

>  <MW>
217.11

>  <AMW>
7

>  <WPath>
401

>  <WPol>
27

>  <Zagreb1>
82

>  <Zagreb2>
98

>  <mZagreb2>
3.67

>  <yes>


>  <nAR-cont>
0.816016

>  <nHA-cont>
0.954961865

>  <MWHBN>
0.203601672

>  <MWHBN-cont>
0.999991084

>  <TPSA-cont>
0.67770473

>  <pka_cont>
0.97

>  <yes.1>


>  <BBB_SCORE>
5.111373951

>  <MMFF94 Energy>
1.5772

$$$$
Compound 1117
Actelion Java MolfileCreator 2.0

  0  0  0  0  0  0              0 V3000
M  V30 BEGIN CTAB
M  V30 COUNTS 30 31 0 0 0
M  V30 BEGIN ATOM
M  V30 1 O 0.6322 -0.4741 3.4811 0
M  V30 2 C 0.6879 -0.2394 2.2858 0
M  V30 3 N 1.716 -0.4918 1.4355 0
M  V30 4 N -0.3247 0.3672 1.5852 0
M  V30 5 C 1.4215 -0.0417 0.1765 0
M  V30 6 C 2.9687 -1.0961 1.8075 0
M  V30 7 C -0.0258 0.5214 0.176 0 CFG=1
M  V30 8 O 2.1819 -0.0702 -0.7843 0
M  V30 9 C -0.9487 -0.3214 -0.7118 0
M  V30 10 C -0.0541 2.0071 -0.2413 0
M  V30 11 C -2.0931 -0.9689 -0.2113 0
M  V30 12 C -0.6726 -0.4575 -2.0862 0
M  V30 13 C 0.8027 2.9358 0.6154 0
M  V30 14 C -2.9226 -1.7203 -1.0493 0
M  V30 15 C -1.502 -1.2087 -2.9224 0
M  V30 16 C -2.6276 -1.8394 -2.4036 0
M  V30 17 H -1.1799 0.6498 2.0424 0
M  V30 18 H 2.9123 -1.5304 2.8087 0
M  V30 19 H 3.2298 -1.8656 1.0755 0
M  V30 20 H 3.7443 -0.3247 1.7855 0
M  V30 21 H 0.2776 2.1148 -1.2815 0
M  V30 22 H -1.0885 2.3745 -0.2054 0
M  V30 23 H -2.3616 -0.9094 0.8403 0
M  V30 24 H 0.2046 0.0168 -2.5251 0
M  V30 25 H 1.8584 2.6504 0.5851 0
M  V30 26 H 0.7257 3.962 0.2411 0
M  V30 27 H 0.4723 2.9397 1.6585 0
M  V30 28 H -3.7999 -2.2158 -0.6405 0
M  V30 29 H -1.264 -1.3026 -3.979 0
M  V30 30 H -3.272 -2.4258 -3.053 0
M  V30 END ATOM
M  V30 BEGIN BOND
M  V30 1 2 1 2
M  V30 2 1 2 3
M  V30 3 1 2 4
M  V30 4 1 3 5
M  V30 5 1 3 6
M  V30 6 1 4 7
M  V30 7 2 5 8
M  V30 8 1 7 9
M  V30 9 1 7 10
M  V30 10 2 9 11
M  V30 11 1 9 12
M  V30 12 1 10 13
M  V30 13 1 11 14
M  V30 14 2 12 15
M  V30 15 2 14 16
M  V30 16 1 5 7
M  V30 17 1 15 16
M  V30 18 1 4 17
M  V30 19 1 6 18
M  V30 20 1 6 19
M  V30 21 1 6 20
M  V30 22 1 10 21
M  V30 23 1 10 22
M  V30 24 1 11 23
M  V30 25 1 12 24
M  V30 26 1 13 25
M  V30 27 1 13 26
M  V30 28 1 13 27
M  V30 29 1 14 28
M  V30 30 1 15 29
M  V30 31 1 16 30
M  V30 END BOND
M  V30 BEGIN COLLECTION
M  V30 MDLV30/STERAC1 ATOMS=(1 7)
M  V30 END COLLECTION
M  V30 END CTAB
M  END
>  <Column 1>
1324

>  <level_0>
1470

>  <index>
1470

>  <Unnamed: 0>
1470

>  <NO.>
1482

>  <Name>
mephenytoin

>  <IUPAC_name>
5-ethyl-3-methyl-5-phenylimidazolidine-2-4-dione

>  <SMILES>
CCC1(c2ccccc2)NC(=O)N(C)C1=O

>  <CID>
4060

>  <logBB>


>  <BBB+/BBB->
BBB+

>  <Inchi>
InChI=1S/C12H14N2O2/c1-3-12(9-7-5-4-6-8-9)10(15)14(2)11(16)13-12/h4-8H-3H2-1-2H3-(H-13-16)

>  <threshold>
-1

>  <reference>
R1|R13|R19|R6|R14|R23|R27|R27|R30|

>  <group>
B

>  <Class>
1

>  <ABC>
12.14

>  <ABCGG>
11.54

>  <nAcid>
0

>  <nBase>
0

>  <nAromAtom>
6

>  <nAromBond>
6

>  <nAtom>
30

>  <nHeavyAtom>
16

>  <nSpiro>
0

>  <nBridgehead>
0

>  <nHetero>
4

>  <nN>
2

>  <nO>
2

>  <nF>
0

>  <BalabanJ>
2.18

>  <BertzCT>
429.9

>  <nBonds>
31

>  <nBondsO>
17

>  <nBondsS>
23

>  <nBondsD>
2

>  <nBondsT>
0

>  <nBondsA>
6

>  <nBondsM>
8

>  <nBondsKS>
26

>  <nBondsKD>
5

>  <RNCG>
0.21

>  <RPCG>
0.22

>  <FCSP3>
0.33

>  <SZ>
19.33

>  <Sm>
18.17

>  <Sv>
18.74

>  <Sse>
30.2

>  <Sp>
19.87

>  <Si>
33.91

>  <MZ>
0.64

>  <Mm>
0.61

>  <Mv>
0.62

>  <Mse>
1.01

>  <Mp>
0.66

>  <Mi>
1.13

>  <NsCH3>
2

>  <NdCH2>
0

>  <NssCH2>
1

>  <NtCH>
0

>  <NdsCH>
0

>  <NaaCH>
5

>  <NsssCH>
0

>  <NddC>
0

>  <NtsC>
0

>  <NdssC>
2

>  <NaasC>
1

>  <NaaaC>
0

>  <NssssC>
1

>  <NsNH3>
0

>  <NsNH2>
0

>  <NssNH2>
0

>  <NdNH>
0

>  <NssNH>
1

>  <NaaNH>
0

>  <NtN>
0

>  <NsssNH>
0

>  <NdsN>
0

>  <NaaN>
0

>  <NsssN>
1

>  <NddsN>
0

>  <NaasN>
0

>  <NssssN>
0

>  <NsOH>
0

>  <NdO>
2

>  <NssO>
0

>  <NaaO>
0

>  <NsF>
0

>  <NsSiH3>
0

>  <NssSiH2>
0

>  <NsssSiH>
0

>  <NssssSi>
0

>  <NsPH2>
0

>  <NssPH>
0

>  <NsssP>
0

>  <NdsssP>
0

>  <NsssssP>
0

>  <NsSH>
0

>  <NdS>
0

>  <NssS>
0

>  <NaaS>
0

>  <NdssS>
0

>  <NddssS>
0

>  <NsCl>
0

>  <NsBr>
0

>  <NsI>
0

>  <fragCpx>
49.04

>  <fMF>
0.37

>  <nHBAcc>
2

>  <nHBDon>
1

>  <Kier1>
12.46

>  <Kier2>
4.7

>  <Lipinski>
1

>  <GhoseFilter>
1

>  <FilterItLogS>
-2.81

>  <VMcGowan>
168.42

>  <LabuteASA>
94.25

>  <PEOE_VSA1>
5.32

>  <PEOE_VSA2>
9.69

>  <PEOE_VSA3>
4.79

>  <PEOE_VSA4>
0

>  <PEOE_VSA5>
0

>  <PEOE_VSA6>
37.26

>  <PEOE_VSA7>
11.98

>  <PEOE_VSA8>
7.05

>  <PEOE_VSA9>
0

>  <PEOE_VSA10>
5.54

>  <PEOE_VSA11>
0

>  <PEOE_VSA12>
0

>  <PEOE_VSA13>
5.91

>  <SMR_VSA1>
9.59

>  <SMR_VSA2>
0

>  <SMR_VSA3>
10.22

>  <SMR_VSA4>
0

>  <SMR_VSA5>
18.88

>  <SMR_VSA6>
7.05

>  <SMR_VSA7>
35.9

>  <SMR_VSA8>
0

>  <SMR_VSA9>
0

>  <SlogP_VSA1>
5.32

>  <SlogP_VSA2>
23.89

>  <SlogP_VSA3>
10.33

>  <SlogP_VSA4>
0

>  <SlogP_VSA5>
18.91

>  <SlogP_VSA6>
30.33

>  <SlogP_VSA7>
0

>  <SlogP_VSA8>
0

>  <SlogP_VSA9>
0

>  <SlogP_VSA10>
4.79

>  <SlogP_VSA11>
0

>  <EState_VSA1>
5.54

>  <EState_VSA2>
11.94

>  <EState_VSA3>
6.42

>  <EState_VSA4>
10.46

>  <EState_VSA5>
7.05

>  <EState_VSA6>
0

>  <EState_VSA7>
37.26

>  <EState_VSA8>
5.32

>  <EState_VSA9>
0

>  <EState_VSA10>
9.59

>  <VSA_EState1>
0

>  <VSA_EState2>
24.77

>  <VSA_EState3>
2.77

>  <VSA_EState4>
-0.05

>  <VSA_EState5>
-0.19

>  <VSA_EState6>
9

>  <VSA_EState7>
0.55

>  <VSA_EState8>
1.89

>  <VSA_EState9>
1.5

>  <apol>
33.18

>  <bpol>
18.06

>  <nRing>
2

>  <nHRing>
1

>  <naRing>
1

>  <naHRing>
0

>  <nARing 2>
1

>  <nAHRing 2>
1

>  <nFRing>
0

>  <nFHRing>
0

>  <nFaRing>
0

>  <nFaHRing>
0

>  <nFARing 2>
0

>  <nFAHRing 2>
0

>  <nRot>
2

>  <SLogP>
1.47

>  <SMR>
59.71

>  <TopoPSA(NO)>
49.41

>  <TopoPSA>
49.41

>  <JGI1>
0.24

>  <JGI2>
0.12

>  <JGI3>
0.08

>  <JGI4>
0.04

>  <JGI5>
0.03

>  <Diameter>
7

>  <Radius>
4

>  <TMWC10>
105.86

>  <TSRW10>
63.57

>  <MW>
218.11

>  <AMW>
7.27

>  <WPath>
390

>  <WPol>
28

>  <Zagreb1>
84

>  <Zagreb2>
103

>  <mZagreb2>
3.64

>  <yes>


>  <nAR-cont>
0.816016

>  <nHA-cont>
0.954961865

>  <MWHBN>
0.203134395

>  <MWHBN-cont>
0.999973647

>  <TPSA-cont>
0.655087518

>  <pka_cont>
0.97

>  <yes.1>


>  <BBB_SCORE>
5.066113371

>  <MMFF94 Energy>
-26.443

$$$$
Compound 1118
Actelion Java MolfileCreator 2.0

  0  0  0  0  0  0              0 V3000
M  V30 BEGIN CTAB
M  V30 COUNTS 30 31 0 0 0
M  V30 BEGIN ATOM
M  V30 1 O 2.3066 -0.8744 -1.113 0
M  V30 2 C 1.9128 -0.1864 -0.1691 0
M  V30 3 N 2.8429 0.4596 0.6115 0
M  V30 4 C 0.4096 -0.0921 0.2733 0 CFG=1
M  V30 5 C 2.6136 1.1199 1.7901 0
M  V30 6 N 0.2267 1.0988 1.1536 0
M  V30 7 C -0.4655 0.0724 -0.9946 0
M  V30 8 C 0.098 -1.4055 1.0608 0
M  V30 9 O 3.5466 1.5698 2.4523 0
M  V30 10 C 1.1711 1.1763 2.2692 0
M  V30 11 C -0.9116 1.3417 -1.4173 0
M  V30 12 C -0.7991 -1.0265 -1.8094 0
M  V30 13 C -1.3105 -1.505 1.6396 0
M  V30 14 C -1.6904 1.497 -2.568 0
M  V30 15 C -1.5774 -0.8712 -2.961 0
M  V30 16 C -2.0287 0.3891 -3.3362 0
M  V30 17 H 3.8027 0.3945 0.3084 0
M  V30 18 H -0.7296 1.1127 1.5036 0
M  V30 19 H 0.2737 -2.2822 0.4258 0
M  V30 20 H 0.8138 -1.5324 1.8833 0
M  V30 21 H 1.0276 2.1365 2.7758 0
M  V30 22 H 1.0068 0.3829 3.0041 0
M  V30 23 H -0.6509 2.2382 -0.858 0
M  V30 24 H -0.4388 -2.0259 -1.5795 0
M  V30 25 H -1.4852 -0.7471 2.4087 0
M  V30 26 H -2.0774 -1.3994 0.8675 0
M  V30 27 H -1.4475 -2.4839 2.1111 0
M  V30 28 H -2.0234 2.4877 -2.8665 0
M  V30 29 H -1.818 -1.7378 -3.5716 0
M  V30 30 H -2.6283 0.5094 -4.2341 0
M  V30 END ATOM
M  V30 BEGIN BOND
M  V30 1 2 1 2
M  V30 2 1 2 3
M  V30 3 1 2 4
M  V30 4 1 3 5
M  V30 5 1 4 6
M  V30 6 1 4 7
M  V30 7 1 4 8
M  V30 8 2 5 9
M  V30 9 1 5 10
M  V30 10 2 7 11
M  V30 11 1 7 12
M  V30 12 1 8 13
M  V30 13 1 11 14
M  V30 14 2 12 15
M  V30 15 2 14 16
M  V30 16 1 6 10
M  V30 17 1 15 16
M  V30 18 1 3 17
M  V30 19 1 6 18
M  V30 20 1 8 19
M  V30 21 1 8 20
M  V30 22 1 10 21
M  V30 23 1 10 22
M  V30 24 1 11 23
M  V30 25 1 12 24
M  V30 26 1 13 25
M  V30 27 1 13 26
M  V30 28 1 13 27
M  V30 29 1 14 28
M  V30 30 1 15 29
M  V30 31 1 16 30
M  V30 END BOND
M  V30 BEGIN COLLECTION
M  V30 MDLV30/STERAC1 ATOMS=(1 4)
M  V30 END COLLECTION
M  V30 END CTAB
M  END
>  <Column 1>
1325

>  <level_0>
1471

>  <index>
1471

>  <Unnamed: 0>
1471

>  <NO.>
1483

>  <Name>
iminophenimide

>  <IUPAC_name>
3-ethyl-3-phenylpiperazine-2-6-dione

>  <SMILES>
CCC1(c2ccccc2)NCC(=O)NC1=O

>  <CID>
163317

>  <logBB>


>  <BBB+/BBB->
BBB+

>  <Inchi>
InChI=1S/C12H14N2O2/c1-2-12(9-6-4-3-5-7-9)11(16)14-10(15)8-13-12/h3-7-13H-2-8H2-1H3-(H-14-15-16)

>  <threshold>
-1

>  <reference>
R1|R13|R19|R6|R27|R27|R30|

>  <group>
B

>  <Class>
1

>  <ABC>
12.12

>  <ABCGG>
10.85

>  <nAcid>
0

>  <nBase>
1

>  <nAromAtom>
6

>  <nAromBond>
6

>  <nAtom>
30

>  <nHeavyAtom>
16

>  <nSpiro>
0

>  <nBridgehead>
0

>  <nHetero>
4

>  <nN>
2

>  <nO>
2

>  <nF>
0

>  <BalabanJ>
2.1

>  <BertzCT>
416.29

>  <nBonds>
31

>  <nBondsO>
17

>  <nBondsS>
23

>  <nBondsD>
2

>  <nBondsT>
0

>  <nBondsA>
6

>  <nBondsM>
8

>  <nBondsKS>
26

>  <nBondsKD>
5

>  <RNCG>
0.19

>  <RPCG>
0.16

>  <FCSP3>
0.33

>  <SZ>
19.33

>  <Sm>
18.17

>  <Sv>
18.74

>  <Sse>
30.2

>  <Sp>
19.87

>  <Si>
33.91

>  <MZ>
0.64

>  <Mm>
0.61

>  <Mv>
0.62

>  <Mse>
1.01

>  <Mp>
0.66

>  <Mi>
1.13

>  <NsCH3>
1

>  <NdCH2>
0

>  <NssCH2>
2

>  <NtCH>
0

>  <NdsCH>
0

>  <NaaCH>
5

>  <NsssCH>
0

>  <NddC>
0

>  <NtsC>
0

>  <NdssC>
2

>  <NaasC>
1

>  <NaaaC>
0

>  <NssssC>
1

>  <NsNH3>
0

>  <NsNH2>
0

>  <NssNH2>
0

>  <NdNH>
0

>  <NssNH>
2

>  <NaaNH>
0

>  <NtN>
0

>  <NsssNH>
0

>  <NdsN>
0

>  <NaaN>
0

>  <NsssN>
0

>  <NddsN>
0

>  <NaasN>
0

>  <NssssN>
0

>  <NsOH>
0

>  <NdO>
2

>  <NssO>
0

>  <NaaO>
0

>  <NsF>
0

>  <NsSiH3>
0

>  <NssSiH2>
0

>  <NsssSiH>
0

>  <NssssSi>
0

>  <NsPH2>
0

>  <NssPH>
0

>  <NsssP>
0

>  <NdsssP>
0

>  <NsssssP>
0

>  <NsSH>
0

>  <NdS>
0

>  <NssS>
0

>  <NaaS>
0

>  <NdssS>
0

>  <NddssS>
0

>  <NsCl>
0

>  <NsBr>
0

>  <NsI>
0

>  <fragCpx>
49.04

>  <fMF>
0.4

>  <nHBAcc>
3

>  <nHBDon>
2

>  <Kier1>
12.46

>  <Kier2>
5.1

>  <Lipinski>
1

>  <GhoseFilter>
1

>  <FilterItLogS>
-3.42

>  <VMcGowan>
168.42

>  <LabuteASA>
94.04

>  <PEOE_VSA1>
0

>  <PEOE_VSA2>
20.22

>  <PEOE_VSA3>
0

>  <PEOE_VSA4>
0

>  <PEOE_VSA5>
0

>  <PEOE_VSA6>
37.26

>  <PEOE_VSA7>
11.98

>  <PEOE_VSA8>
0

>  <PEOE_VSA9>
6.54

>  <PEOE_VSA10>
5.54

>  <PEOE_VSA11>
0

>  <PEOE_VSA12>
5.91

>  <PEOE_VSA13>
5.91

>  <SMR_VSA1>
9.59

>  <SMR_VSA2>
0

>  <SMR_VSA3>
10.63

>  <SMR_VSA4>
0

>  <SMR_VSA5>
18.88

>  <SMR_VSA6>
6.54

>  <SMR_VSA7>
35.9

>  <SMR_VSA8>
0

>  <SMR_VSA9>
0

>  <SlogP_VSA1>
10.63

>  <SlogP_VSA2>
18.36

>  <SlogP_VSA3>
15.13

>  <SlogP_VSA4>
0

>  <SlogP_VSA5>
18.91

>  <SlogP_VSA6>
30.33

>  <SlogP_VSA7>
0

>  <SlogP_VSA8>
0

>  <SlogP_VSA9>
0

>  <SlogP_VSA10>
0

>  <SlogP_VSA11>
0

>  <EState_VSA1>
5.54

>  <EState_VSA2>
18.36

>  <EState_VSA3>
6.42

>  <EState_VSA4>
5.56

>  <EState_VSA5>
0

>  <EState_VSA6>
0

>  <EState_VSA7>
37.26

>  <EState_VSA8>
10.63

>  <EState_VSA9>
0

>  <EState_VSA10>
9.59

>  <VSA_EState1>
0

>  <VSA_EState2>
23.08

>  <VSA_EState3>
5.42

>  <VSA_EState4>
0.12

>  <VSA_EState5>
-0.54

>  <VSA_EState6>
9.47

>  <VSA_EState7>
0.61

>  <VSA_EState8>
2.1

>  <VSA_EState9>
0

>  <apol>
33.18

>  <bpol>
16.92

>  <nRing>
2

>  <nHRing>
1

>  <naRing>
1

>  <naHRing>
0

>  <nARing 2>
1

>  <nAHRing 2>
1

>  <nFRing>
0

>  <nFHRing>
0

>  <nFaRing>
0

>  <nFaHRing>
0

>  <nFARing 2>
0

>  <nFAHRing 2>
0

>  <nRot>
2

>  <SLogP>
0.54

>  <SMR>
59.56

>  <TopoPSA(NO)>
58.2

>  <TopoPSA>
58.2

>  <JGI1>
0.24

>  <JGI2>
0.11

>  <JGI3>
0.06

>  <JGI4>
0.04

>  <JGI5>
0.03

>  <Diameter>
8

>  <Radius>
4

>  <TMWC10>
104.78

>  <TSRW10>
48.85

>  <MW>
218.11

>  <AMW>
7.27

>  <WPath>
401

>  <WPol>
27

>  <Zagreb1>
82

>  <Zagreb2>
98

>  <mZagreb2>
3.67

>  <yes>


>  <nAR-cont>
0.816016

>  <nHA-cont>
0.954961865

>  <MWHBN>
0.338557326

>  <MWHBN-cont>
0.712362014

>  <TPSA-cont>
0.59372786

>  <pka_cont>
0.97

>  <yes.1>


>  <BBB_SCORE>
4.511976606

>  <MMFF94 Energy>
87.936

$$$$
Compound 1119
Actelion Java MolfileCreator 2.0

  0  0  0  0  0  0              0 V3000
M  V30 BEGIN CTAB
M  V30 COUNTS 42 44 0 0 0
M  V30 BEGIN ATOM
M  V30 1 O 0.4767 0.6356 0.4767 0
M  V30 2 C 1.1812 -0.1691 1.4403 0
M  V30 3 C -0.9166 0.3323 0.6481 0
M  V30 4 O 0.2272 -0.9713 2.1606 0
M  V30 5 C 2.174 -1.0762 0.7119 0
M  V30 6 C 1.9367 0.7373 2.4277 0
M  V30 7 C -1.6665 0.3969 -0.6998 0
M  V30 8 C -0.9035 -1.0326 1.2935 0
M  V30 9 C 2.7528 -0.6856 -0.5082 0
M  V30 10 C 2.5611 -2.31 1.2642 0
M  V30 11 C 1.0302 1.6939 3.1948 0
M  V30 12 N -3.0784 -0.0111 -0.5633 0
M  V30 13 C -1.5689 1.8222 -1.2803 0
M  V30 14 C 3.6736 -1.5078 -1.1611 0
M  V30 15 C 3.4818 -3.1316 0.6107 0
M  V30 16 C -3.7914 0.0553 -1.8415 0
M  V30 17 C -2.3289 1.9509 -2.5964 0
M  V30 18 C 4.0362 -2.7307 -0.6021 0
M  V30 19 C -3.7609 1.4594 -2.4348 0
M  V30 20 H -1.3225 1.0718 1.3503 0
M  V30 21 H 2.4752 0.1237 3.161 0
M  V30 22 H 2.682 1.3376 1.8908 0
M  V30 23 H -1.1639 -0.2844 -1.4005 0
M  V30 24 H -1.8079 -1.2475 1.8691 0
M  V30 25 H -0.7416 -1.839 0.5692 0
M  V30 26 H 2.4875 0.2695 -0.9579 0
M  V30 27 H 2.1416 -2.6374 2.214 0
M  V30 28 H 0.2715 1.1521 3.7676 0
M  V30 29 H 0.5243 2.3898 2.5186 0
M  V30 30 H 1.6227 2.2866 3.8993 0
M  V30 31 H -3.1336 -0.9699 -0.2208 0
M  V30 32 H -0.5203 2.0936 -1.45 0
M  V30 33 H -1.972 2.5465 -0.5602 0
M  V30 34 H 4.1089 -1.1906 -2.105 0
M  V30 35 H 3.7666 -4.0834 1.0512 0
M  V30 36 H -4.8333 -0.2411 -1.6782 0
M  V30 37 H -3.3614 -0.6651 -2.5479 0
M  V30 38 H -2.325 2.9938 -2.9317 0
M  V30 39 H -1.8228 1.3612 -3.3704 0
M  V30 40 H 4.7536 -3.3696 -1.1099 0
M  V30 41 H -4.3144 2.148 -1.7839 0
M  V30 42 H -4.2657 1.4629 -3.4073 0
M  V30 END ATOM
M  V30 BEGIN BOND
M  V30 1 1 1 2
M  V30 2 1 1 3
M  V30 3 1 2 4
M  V30 4 1 2 5
M  V30 5 1 2 6
M  V30 6 1 3 7
M  V30 7 1 3 8
M  V30 8 2 5 9
M  V30 9 1 5 10
M  V30 10 1 6 11
M  V30 11 1 7 12
M  V30 12 1 7 13
M  V30 13 1 9 14
M  V30 14 2 10 15
M  V30 15 1 12 16
M  V30 16 1 13 17
M  V30 17 2 14 18
M  V30 18 1 16 19
M  V30 19 1 4 8
M  V30 20 1 15 18
M  V30 21 1 17 19
M  V30 22 1 3 20
M  V30 23 1 6 21
M  V30 24 1 6 22
M  V30 25 1 7 23
M  V30 26 1 8 24
M  V30 27 1 8 25
M  V30 28 1 9 26
M  V30 29 1 10 27
M  V30 30 1 11 28
M  V30 31 1 11 29
M  V30 32 1 11 30
M  V30 33 1 12 31
M  V30 34 1 13 32
M  V30 35 1 13 33
M  V30 36 1 14 34
M  V30 37 1 15 35
M  V30 38 1 16 36
M  V30 39 1 16 37
M  V30 40 1 17 38
M  V30 41 1 17 39
M  V30 42 1 18 40
M  V30 43 1 19 41
M  V30 44 1 19 42
M  V30 END BOND
M  V30 END CTAB
M  END
>  <Column 1>
1326

>  <level_0>
1472

>  <index>
1472

>  <Unnamed: 0>
1472

>  <NO.>
1484

>  <Name>
etoxadrol

>  <IUPAC_name>
2-(2-ethyl-2-phenyl-1-3-dioxolan-4-yl)piperidine

>  <SMILES>
CCC1(c2ccccc2)OCC(C2CCCCN2)O1

>  <CID>
19324

>  <logBB>


>  <BBB+/BBB->
BBB+

>  <Inchi>
InChI=1S/C16H23NO2/c1-2-16(13-8-4-3-5-9-13)18-12-15(19-16)14-10-6-7-11-17-14/h3-5-8-9-14-15-17H-2-6-7-10-12H2-1H3

>  <threshold>
-1

>  <reference>
R1|R19|R6|R27|R27|R30|

>  <group>
B

>  <Class>
1

>  <ABC>
14.75

>  <ABCGG>
12.51

>  <nAcid>
0

>  <nBase>
1

>  <nAromAtom>
6

>  <nAromBond>
6

>  <nAtom>
42

>  <nHeavyAtom>
19

>  <nSpiro>
0

>  <nBridgehead>
0

>  <nHetero>
3

>  <nN>
1

>  <nO>
2

>  <nF>
0

>  <BalabanJ>
1.63

>  <BertzCT>
402.47

>  <nBonds>
44

>  <nBondsO>
21

>  <nBondsS>
38

>  <nBondsD>
0

>  <nBondsT>
0

>  <nBondsA>
6

>  <nBondsM>
6

>  <nBondsKS>
41

>  <nBondsKD>
3

>  <RNCG>
0.23

>  <RPCG>
0.13

>  <FCSP3>
0.63

>  <SZ>
23.67

>  <Sm>
21.76

>  <Sv>
24.42

>  <Sse>
41.53

>  <Sp>
26.8

>  <Si>
47.49

>  <MZ>
0.56

>  <Mm>
0.52

>  <Mv>
0.58

>  <Mse>
0.99

>  <Mp>
0.64

>  <Mi>
1.13

>  <NsCH3>
1

>  <NdCH2>
0

>  <NssCH2>
6

>  <NtCH>
0

>  <NdsCH>
0

>  <NaaCH>
5

>  <NsssCH>
2

>  <NddC>
0

>  <NtsC>
0

>  <NdssC>
0

>  <NaasC>
1

>  <NaaaC>
0

>  <NssssC>
1

>  <NsNH3>
0

>  <NsNH2>
0

>  <NssNH2>
0

>  <NdNH>
0

>  <NssNH>
1

>  <NaaNH>
0

>  <NtN>
0

>  <NsssNH>
0

>  <NdsN>
0

>  <NaaN>
0

>  <NsssN>
0

>  <NddsN>
0

>  <NaasN>
0

>  <NssssN>
0

>  <NsOH>
0

>  <NdO>
0

>  <NssO>
2

>  <NaaO>
0

>  <NsF>
0

>  <NsSiH3>
0

>  <NssSiH2>
0

>  <NsssSiH>
0

>  <NssssSi>
0

>  <NsPH2>
0

>  <NssPH>
0

>  <NsssP>
0

>  <NdsssP>
0

>  <NsssssP>
0

>  <NsSH>
0

>  <NdS>
0

>  <NssS>
0

>  <NaaS>
0

>  <NdssS>
0

>  <NddssS>
0

>  <NsCl>
0

>  <NsBr>
0

>  <NsI>
0

>  <fragCpx>
99.03

>  <fMF>
0.4

>  <nHBAcc>
3

>  <nHBDon>
1

>  <Kier1>
13.96

>  <Kier2>
6.19

>  <Lipinski>
1

>  <GhoseFilter>
1

>  <FilterItLogS>
-3.71

>  <VMcGowan>
212.54

>  <LabuteASA>
114.85

>  <PEOE_VSA1>
14.79

>  <PEOE_VSA2>
0

>  <PEOE_VSA3>
0

>  <PEOE_VSA4>
0

>  <PEOE_VSA5>
0

>  <PEOE_VSA6>
43.68

>  <PEOE_VSA7>
19.39

>  <PEOE_VSA8>
18.03

>  <PEOE_VSA9>
6.61

>  <PEOE_VSA10>
6.1

>  <PEOE_VSA11>
5.79

>  <PEOE_VSA12>
0

>  <PEOE_VSA13>
0

>  <SMR_VSA1>
9.47

>  <SMR_VSA2>
0

>  <SMR_VSA3>
5.32

>  <SMR_VSA4>
0

>  <SMR_VSA5>
50.54

>  <SMR_VSA6>
13.15

>  <SMR_VSA7>
35.9

>  <SMR_VSA8>
0

>  <SMR_VSA9>
0

>  <SlogP_VSA1>
5.32

>  <SlogP_VSA2>
25.3

>  <SlogP_VSA3>
15.26

>  <SlogP_VSA4>
0

>  <SlogP_VSA5>
38.17

>  <SlogP_VSA6>
30.33

>  <SlogP_VSA7>
0

>  <SlogP_VSA8>
0

>  <SlogP_VSA9>
0

>  <SlogP_VSA10>
0

>  <SlogP_VSA11>
0

>  <EState_VSA1>
5.79

>  <EState_VSA2>
6.1

>  <EState_VSA3>
12.65

>  <EState_VSA4>
18.53

>  <EState_VSA5>
19.26

>  <EState_VSA6>
0

>  <EState_VSA7>
18.2

>  <EState_VSA8>
24.37

>  <EState_VSA9>
9.47

>  <EState_VSA10>
0

>  <VSA_EState1>
12.42

>  <VSA_EState2>
0

>  <VSA_EState3>
3.57

>  <VSA_EState4>
1.14

>  <VSA_EState5>
-0.54

>  <VSA_EState6>
10.77

>  <VSA_EState7>
4.8

>  <VSA_EState8>
3.93

>  <VSA_EState9>
0

>  <apol>
44.76

>  <bpol>
27.12

>  <nRing>
3

>  <nHRing>
2

>  <naRing>
1

>  <naHRing>
0

>  <nARing 2>
2

>  <nAHRing 2>
2

>  <nFRing>
0

>  <nFHRing>
0

>  <nFaRing>
0

>  <nFaHRing>
0

>  <nFARing 2>
0

>  <nFAHRing 2>
0

>  <nRot>
3

>  <SLogP>
2.81

>  <SMR>
74.88

>  <TopoPSA(NO)>
30.49

>  <TopoPSA>
30.49

>  <JGI1>
0.17

>  <JGI2>
0.08

>  <JGI3>
0.04

>  <JGI4>
0.03

>  <JGI5>
0.03

>  <Diameter>
10

>  <Radius>
5

>  <TMWC10>
113.4

>  <TSRW10>
66.57

>  <MW>
261.17

>  <AMW>
6.22

>  <WPath>
691

>  <WPol>
29

>  <Zagreb1>
100

>  <Zagreb2>
119

>  <mZagreb2>
4.32

>  <yes>


>  <nAR-cont>
1

>  <nHA-cont>
0.998649058

>  <MWHBN>
0.24751319

>  <MWHBN-cont>
0.963859457

>  <TPSA-cont>
0.787160867

>  <pka_cont>
0.97

>  <yes.1>


>  <BBB_SCORE>
5.503759977

>  <MMFF94 Energy>
54.656

$$$$
Compound 1120
Actelion Java MolfileCreator 2.0

  0  0  0  0  0  0              0 V3000
M  V30 BEGIN CTAB
M  V30 COUNTS 51 54 0 0 0
M  V30 BEGIN ATOM
M  V30 1 O -3.3509 -3.5906 2.6321 0
M  V30 2 C -2.851 -2.4146 2.154 0
M  V30 3 C -1.8929 -2.4819 1.1446 0
M  V30 4 C -3.2774 -1.1953 2.6524 0
M  V30 5 C -1.3268 -1.3183 0.591 0
M  V30 6 C -2.7315 -0.0283 2.1284 0
M  V30 7 C -1.7579 -0.0756 1.1113 0
M  V30 8 C -0.2228 -1.3821 -0.5092 0
M  V30 9 C -1.2458 1.243 0.5821 0
M  V30 10 C -0.2627 -0.0552 -1.3873 0
M  V30 11 C 1.1364 -1.429 0.2492 0
M  V30 12 C -0.4016 -2.6422 -1.4368 0
M  V30 13 C -0.0633 1.1434 -0.4041 0
M  V30 14 C 0.8592 0.0198 -2.4688 0
M  V30 15 C -1.5958 0.0835 -2.1732 0
M  V30 16 C 1.4619 -0.1477 1.0268 0
M  V30 17 C 0.3507 -3.916 -1.0486 0
M  V30 18 N 1.2829 1.0623 0.2187 0
M  V30 19 C 1.7016 2.25 0.9721 0
M  V30 20 C 1.7913 3.4635 0.0916 0
M  V30 21 C 2.9816 4.3883 0.1762 0
M  V30 22 C 2.7906 3.5236 -1.0375 0
M  V30 23 H -4.0061 -3.3898 3.3199 0
M  V30 24 H -1.6085 -3.4706 0.8058 0
M  V30 25 H -4.0242 -1.1316 3.4363 0
M  V30 26 H -3.0682 0.932 2.5141 0
M  V30 27 H -2.0825 1.7317 0.064 0
M  V30 28 H -0.9981 1.8997 1.4228 0
M  V30 29 H 1.9522 -1.6186 -0.4589 0
M  V30 30 H 1.1566 -2.2635 0.9622 0
M  V30 31 H -1.4684 -2.8773 -1.5457 0
M  V30 32 H -0.0643 -2.4208 -2.4525 0
M  V30 33 H -0.0865 2.0569 -1.012 0
M  V30 34 H 1.8609 -0.1507 -2.0664 0
M  V30 35 H 0.7072 -0.6985 -3.2795 0
M  V30 36 H 0.8698 1.0119 -2.9374 0
M  V30 37 H -1.6536 1.0619 -2.6647 0
M  V30 38 H -1.6771 -0.6764 -2.958 0
M  V30 39 H -2.4844 -0.0162 -1.5447 0
M  V30 40 H 0.8717 -0.0998 1.9499 0
M  V30 41 H 2.5098 -0.2222 1.3453 0
M  V30 42 H 0.0357 -4.7406 -1.6971 0
M  V30 43 H 0.1772 -4.2228 -0.0158 0
M  V30 44 H 1.429 -3.7917 -1.1896 0
M  V30 45 H 2.6959 2.0647 1.3993 0
M  V30 46 H 1.0423 2.4576 1.8218 0
M  V30 47 H 0.824 3.9281 -0.0618 0
M  V30 48 H 3.7945 4.1391 0.8484 0
M  V30 49 H 2.8051 5.4528 0.072 0
M  V30 50 H 3.4553 2.678 -1.1758 0
M  V30 51 H 2.4777 3.9955 -1.9614 0
M  V30 END ATOM
M  V30 BEGIN BOND
M  V30 1 1 1 2
M  V30 2 2 2 3
M  V30 3 1 2 4
M  V30 4 1 3 5
M  V30 5 2 4 6
M  V30 6 2 5 7
M  V30 7 1 5 8
M  V30 8 1 7 9
M  V30 9 1 8 10
M  V30 10 1 8 11
M  V30 11 1 8 12
M  V30 12 1 9 13
M  V30 13 1 10 14
M  V30 14 1 10 15
M  V30 15 1 11 16
M  V30 16 1 12 17
M  V30 17 1 13 18
M  V30 18 1 18 19
M  V30 19 1 19 20
M  V30 20 1 20 21
M  V30 21 1 20 22
M  V30 22 1 6 7
M  V30 23 1 10 13
M  V30 24 1 16 18
M  V30 25 1 21 22
M  V30 26 1 1 23
M  V30 27 1 3 24
M  V30 28 1 4 25
M  V30 29 1 6 26
M  V30 30 1 9 27
M  V30 31 1 9 28
M  V30 32 1 11 29
M  V30 33 1 11 30
M  V30 34 1 12 31
M  V30 35 1 12 32
M  V30 36 1 13 33
M  V30 37 1 14 34
M  V30 38 1 14 35
M  V30 39 1 14 36
M  V30 40 1 15 37
M  V30 41 1 15 38
M  V30 42 1 15 39
M  V30 43 1 16 40
M  V30 44 1 16 41
M  V30 45 1 17 42
M  V30 46 1 17 43
M  V30 47 1 17 44
M  V30 48 1 19 45
M  V30 49 1 19 46
M  V30 50 1 20 47
M  V30 51 1 21 48
M  V30 52 1 21 49
M  V30 53 1 22 50
M  V30 54 1 22 51
M  V30 END BOND
M  V30 END CTAB
M  END
>  <Column 1>
1327

>  <level_0>
1473

>  <index>
1473

>  <Unnamed: 0>
1473

>  <NO.>
1485

>  <Name>
gemazocine

>  <IUPAC_name>
10-(cyclopropylmethyl)-1-ethyl-13-13-dimethyl-10-azatricyclo[7.3.1.02-7]trideca-2(7)-3-5-trien-4-ol

>  <SMILES>
CCC12CCN(CC3CC3)C(Cc3ccc(O)cc31)C2(C)C

>  <CID>
219096

>  <logBB>


>  <BBB+/BBB->
BBB+

>  <Inchi>
InChI=1S/C20H29NO/c1-4-20-9-10-21(13-14-5-6-14)18(19(20-2)3)11-15-7-8-16(22)12-17(15)20/h7-8-12-14-18-22H-4-6-9-11-13H2-1-3H3

>  <threshold>
-1

>  <reference>
R1|R19|R6|R27|R27|R30|

>  <group>
B

>  <Class>
1

>  <ABC>
17.81

>  <ABCGG>
14.38

>  <nAcid>
0

>  <nBase>
1

>  <nAromAtom>
6

>  <nAromBond>
6

>  <nAtom>
51

>  <nHeavyAtom>
22

>  <nSpiro>
0

>  <nBridgehead>
2

>  <nHetero>
2

>  <nN>
1

>  <nO>
1

>  <nF>
0

>  <BalabanJ>
1.66

>  <BertzCT>
589.37

>  <nBonds>
54

>  <nBondsO>
25

>  <nBondsS>
48

>  <nBondsD>
0

>  <nBondsT>
0

>  <nBondsA>
6

>  <nBondsM>
6

>  <nBondsKS>
51

>  <nBondsKD>
3

>  <RNCG>
0.37

>  <RPCG>
0.21

>  <FCSP3>
0.7

>  <SZ>
27.33

>  <Sm>
24.93

>  <Sv>
29.33

>  <Sse>
49.87

>  <Sp>
32.72

>  <Si>
57.52

>  <MZ>
0.54

>  <Mm>
0.49

>  <Mv>
0.58

>  <Mse>
0.98

>  <Mp>
0.64

>  <Mi>
1.13

>  <NsCH3>
3

>  <NdCH2>
0

>  <NssCH2>
7

>  <NtCH>
0

>  <NdsCH>
0

>  <NaaCH>
3

>  <NsssCH>
2

>  <NddC>
0

>  <NtsC>
0

>  <NdssC>
0

>  <NaasC>
3

>  <NaaaC>
0

>  <NssssC>
2

>  <NsNH3>
0

>  <NsNH2>
0

>  <NssNH2>
0

>  <NdNH>
0

>  <NssNH>
0

>  <NaaNH>
0

>  <NtN>
0

>  <NsssNH>
0

>  <NdsN>
0

>  <NaaN>
0

>  <NsssN>
1

>  <NddsN>
0

>  <NaasN>
0

>  <NssssN>
0

>  <NsOH>
1

>  <NdO>
0

>  <NssO>
0

>  <NaaO>
0

>  <NsF>
0

>  <NsSiH3>
0

>  <NssSiH2>
0

>  <NsssSiH>
0

>  <NssssSi>
0

>  <NsPH2>
0

>  <NssPH>
0

>  <NsssP>
0

>  <NdsssP>
0

>  <NsssssP>
0

>  <NsSH>
0

>  <NdS>
0

>  <NssS>
0

>  <NaaS>
0

>  <NdssS>
0

>  <NddssS>
0

>  <NsCl>
0

>  <NsBr>
0

>  <NsI>
0

>  <fragCpx>
163.02

>  <fMF>
0.33

>  <nHBAcc>
2

>  <nHBDon>
1

>  <Kier1>
15.52

>  <Kier2>
5.25

>  <Lipinski>
1

>  <GhoseFilter>
1

>  <FilterItLogS>
-4.67

>  <VMcGowan>
252.17

>  <LabuteASA>
134.08

>  <PEOE_VSA1>
5.11

>  <PEOE_VSA2>
4.9

>  <PEOE_VSA3>
0

>  <PEOE_VSA4>
0

>  <PEOE_VSA5>
0

>  <PEOE_VSA6>
26.84

>  <PEOE_VSA7>
73.24

>  <PEOE_VSA8>
18

>  <PEOE_VSA9>
0

>  <PEOE_VSA10>
5.75

>  <PEOE_VSA11>
0

>  <PEOE_VSA12>
0

>  <PEOE_VSA13>
0

>  <SMR_VSA1>
5.11

>  <SMR_VSA2>
0

>  <SMR_VSA3>
4.9

>  <SMR_VSA4>
11.33

>  <SMR_VSA5>
64.33

>  <SMR_VSA6>
13.09

>  <SMR_VSA7>
29.33

>  <SMR_VSA8>
0

>  <SMR_VSA9>
5.75

>  <SlogP_VSA1>
0

>  <SlogP_VSA2>
29.14

>  <SlogP_VSA3>
11.84

>  <SlogP_VSA4>
11.33

>  <SlogP_VSA5>
57.58

>  <SlogP_VSA6>
18.2

>  <SlogP_VSA7>
0

>  <SlogP_VSA8>
0

>  <SlogP_VSA9>
0

>  <SlogP_VSA10>
0

>  <SlogP_VSA11>
5.75

>  <EState_VSA1>
0

>  <EState_VSA2>
10.83

>  <EState_VSA3>
11.79

>  <EState_VSA4>
12.34

>  <EState_VSA5>
49.9

>  <EState_VSA6>
0

>  <EState_VSA7>
6.07

>  <EState_VSA8>
37.8

>  <EState_VSA9>
0

>  <EState_VSA10>
5.11

>  <VSA_EState1>
0

>  <VSA_EState2>
2.79

>  <VSA_EState3>
10.03

>  <VSA_EState4>
3.41

>  <VSA_EState5>
1.4

>  <VSA_EState6>
6.77

>  <VSA_EState7>
6.43

>  <VSA_EState8>
9.84

>  <VSA_EState9>
0

>  <apol>
54.64

>  <bpol>
30.8

>  <nRing>
4

>  <nHRing>
1

>  <naRing>
1

>  <naHRing>
0

>  <nARing 2>
3

>  <nAHRing 2>
1

>  <nFRing>
1

>  <nFHRing>
1

>  <nFaRing>
0

>  <nFaHRing>
0

>  <nFARing 2>
1

>  <nFAHRing 2>
1

>  <nRot>
3

>  <SLogP>
4.11

>  <SMR>
90.26

>  <TopoPSA(NO)>
23.47

>  <TopoPSA>
23.47

>  <JGI1>
0.26

>  <JGI2>
0.13

>  <JGI3>
0.06

>  <JGI4>
0.06

>  <JGI5>
0.04

>  <Diameter>
10

>  <Radius>
5

>  <TMWC10>
125.15

>  <TSRW10>
75.85

>  <MW>
299.22

>  <AMW>
5.87

>  <WPath>
902

>  <WPol>
46

>  <Zagreb1>
130

>  <Zagreb2>
165

>  <mZagreb2>
4.62

>  <yes>


>  <nAR-cont>
0.691115

>  <nHA-cont>
0.983774276

>  <MWHBN>
0.173430687

>  <MWHBN-cont>
0.979039095

>  <TPSA-cont>
0.836164826

>  <pka_cont>
0.97

>  <yes.1>


>  <BBB_SCORE>
5.30077757

>  <MMFF94 Energy>
77.615

$$$$
Compound 1121
Actelion Java MolfileCreator 2.0

  0  0  0  0  0  0              0 V3000
M  V30 BEGIN CTAB
M  V30 COUNTS 54 57 0 0 0
M  V30 BEGIN ATOM
M  V30 1 O 3.2767 3.837 2.3168 0
M  V30 2 C 2.783 2.9576 1.3979 0
M  V30 3 C 1.4137 2.704 1.4157 0
M  V30 4 C 3.612 2.3333 0.4799 0
M  V30 5 C 0.8244 1.8174 0.494 0
M  V30 6 C 3.0583 1.4316 -0.4246 0
M  V30 7 C 1.6778 1.1554 -0.4183 0
M  V30 8 C -0.694 1.4971 0.5253 0
M  V30 9 C 1.1583 0.1568 -1.428 0
M  V30 10 C -1.1931 1.0022 -0.8974 0
M  V30 11 C -0.8388 0.3122 1.5396 0
M  V30 12 C -1.565 2.6583 1.1241 0
M  V30 13 C -0.3259 -0.2506 -1.2537 0
M  V30 14 C -2.6948 0.6021 -0.9134 0
M  V30 15 C -1.04 2.0617 -2.0241 0
M  V30 16 C -0.1981 -1.0013 1.0805 0
M  V30 17 C -1.5345 4.0127 0.4269 0
M  V30 18 N -0.575 -1.3545 -0.2888 0
M  V30 19 C 0.0095 -2.6335 -0.7301 0
M  V30 20 C -0.6475 -3.8373 -0.0384 0
M  V30 21 C -0.3449 -5.2109 -0.702 0
M  V30 22 C 0.0492 -4.4056 1.2322 0
M  V30 23 C 0.7877 -5.4021 0.3206 0
M  V30 24 H 4.2349 3.9176 2.1822 0
M  V30 25 H 0.823 3.2127 2.1713 0
M  V30 26 H 4.6793 2.5257 0.4568 0
M  V30 27 H 3.7094 0.9331 -1.1399 0
M  V30 28 H 1.8043 -0.728 -1.4264 0
M  V30 29 H 1.2775 0.6077 -2.4227 0
M  V30 30 H -1.9017 0.1251 1.742 0
M  V30 31 H -0.4037 0.5836 2.5117 0
M  V30 32 H -1.2735 2.8238 2.1699 0
M  V30 33 H -2.613 2.3405 1.1928 0
M  V30 34 H -0.6697 -0.617 -2.2318 0
M  V30 35 H -2.9707 0.1872 -1.8906 0
M  V30 36 H -3.3439 1.4672 -0.7416 0
M  V30 37 H -2.9504 -0.1524 -0.165 0
M  V30 38 H -1.8625 2.7812 -2.0253 0
M  V30 39 H -1.0648 1.5828 -3.0107 0
M  V30 40 H -0.1084 2.6303 -1.9614 0
M  V30 41 H 0.8911 -0.9584 1.1977 0
M  V30 42 H -0.5499 -1.7729 1.7738 0
M  V30 43 H -2.2344 4.0452 -0.4103 0
M  V30 44 H -0.5391 4.2856 0.069 0
M  V30 45 H -1.8599 4.7914 1.1261 0
M  V30 46 H -0.1767 -2.7429 -1.8062 0
M  V30 47 H 1.0974 -2.6517 -0.5955 0
M  V30 48 H -1.7275 -3.6798 0.0849 0
M  V30 49 H -1.1597 -5.9367 -0.5902 0
M  V30 50 H -0.0355 -5.1941 -1.7505 0
M  V30 51 H -0.646 -4.8841 1.9321 0
M  V30 52 H 0.6998 -3.7291 1.7917 0
M  V30 53 H 0.9031 -6.4135 0.7182 0
M  V30 54 H 1.763 -5.0441 -0.0279 0
M  V30 END ATOM
M  V30 BEGIN BOND
M  V30 1 1 1 2
M  V30 2 2 2 3
M  V30 3 1 2 4
M  V30 4 1 3 5
M  V30 5 2 4 6
M  V30 6 2 5 7
M  V30 7 1 5 8
M  V30 8 1 7 9
M  V30 9 1 8 10
M  V30 10 1 8 11
M  V30 11 1 8 12
M  V30 12 1 9 13
M  V30 13 1 10 14
M  V30 14 1 10 15
M  V30 15 1 11 16
M  V30 16 1 12 17
M  V30 17 1 13 18
M  V30 18 1 18 19
M  V30 19 1 19 20
M  V30 20 1 20 21
M  V30 21 1 20 22
M  V30 22 1 21 23
M  V30 23 1 6 7
M  V30 24 1 10 13
M  V30 25 1 16 18
M  V30 26 1 22 23
M  V30 27 1 1 24
M  V30 28 1 3 25
M  V30 29 1 4 26
M  V30 30 1 6 27
M  V30 31 1 9 28
M  V30 32 1 9 29
M  V30 33 1 11 30
M  V30 34 1 11 31
M  V30 35 1 12 32
M  V30 36 1 12 33
M  V30 37 1 13 34
M  V30 38 1 14 35
M  V30 39 1 14 36
M  V30 40 1 14 37
M  V30 41 1 15 38
M  V30 42 1 15 39
M  V30 43 1 15 40
M  V30 44 1 16 41
M  V30 45 1 16 42
M  V30 46 1 17 43
M  V30 47 1 17 44
M  V30 48 1 17 45
M  V30 49 1 19 46
M  V30 50 1 19 47
M  V30 51 1 20 48
M  V30 52 1 21 49
M  V30 53 1 21 50
M  V30 54 1 22 51
M  V30 55 1 22 52
M  V30 56 1 23 53
M  V30 57 1 23 54
M  V30 END BOND
M  V30 END CTAB
M  END
>  <Column 1>
1328

>  <level_0>
1474

>  <index>
1474

>  <Unnamed: 0>
1474

>  <NO.>
1486

>  <Name>
cogazocine

>  <IUPAC_name>
10-(cyclobutylmethyl)-1-ethyl-13-13-dimethyl-10-azatricyclo[7.3.1.02-7]trideca-2(7)-3-5-trien-4-ol

>  <SMILES>
CCC12CCN(CC3CCC3)C(Cc3ccc(O)cc31)C2(C)C

>  <CID>
198576

>  <logBB>


>  <BBB+/BBB->
BBB+

>  <Inchi>
InChI=1S/C21H31NO/c1-4-21-10-11-22(14-15-6-5-7-15)19(20(21-2)3)12-16-8-9-17(23)13-18(16)21/h8-9-13-15-19-23H-4-7-10-12-14H2-1-3H3

>  <threshold>
-1

>  <reference>
R1|R19|R6|R27|R27|R30|

>  <group>
B

>  <Class>
1

>  <ABC>
18.51

>  <ABCGG>
15.04

>  <nAcid>
0

>  <nBase>
1

>  <nAromAtom>
6

>  <nAromBond>
6

>  <nAtom>
54

>  <nHeavyAtom>
23

>  <nSpiro>
0

>  <nBridgehead>
2

>  <nHetero>
2

>  <nN>
1

>  <nO>
1

>  <nF>
0

>  <BalabanJ>
1.63

>  <BertzCT>
603.86

>  <nBonds>
57

>  <nBondsO>
26

>  <nBondsS>
51

>  <nBondsD>
0

>  <nBondsT>
0

>  <nBondsA>
6

>  <nBondsM>
6

>  <nBondsKS>
54

>  <nBondsKD>
3

>  <RNCG>
0.35

>  <RPCG>
0.2

>  <FCSP3>
0.71

>  <SZ>
28.67

>  <Sm>
26.1

>  <Sv>
30.87

>  <Sse>
52.76

>  <Sp>
34.52

>  <Si>
60.94

>  <MZ>
0.53

>  <Mm>
0.48

>  <Mv>
0.57

>  <Mse>
0.98

>  <Mp>
0.64

>  <Mi>
1.13

>  <NsCH3>
3

>  <NdCH2>
0

>  <NssCH2>
8

>  <NtCH>
0

>  <NdsCH>
0

>  <NaaCH>
3

>  <NsssCH>
2

>  <NddC>
0

>  <NtsC>
0

>  <NdssC>
0

>  <NaasC>
3

>  <NaaaC>
0

>  <NssssC>
2

>  <NsNH3>
0

>  <NsNH2>
0

>  <NssNH2>
0

>  <NdNH>
0

>  <NssNH>
0

>  <NaaNH>
0

>  <NtN>
0

>  <NsssNH>
0

>  <NdsN>
0

>  <NaaN>
0

>  <NsssN>
1

>  <NddsN>
0

>  <NaasN>
0

>  <NssssN>
0

>  <NsOH>
1

>  <NdO>
0

>  <NssO>
0

>  <NaaO>
0

>  <NsF>
0

>  <NsSiH3>
0

>  <NssSiH2>
0

>  <NsssSiH>
0

>  <NssssSi>
0

>  <NsPH2>
0

>  <NssPH>
0

>  <NsssP>
0

>  <NdsssP>
0

>  <NsssssP>
0

>  <NsSH>
0

>  <NdS>
0

>  <NssS>
0

>  <NaaS>
0

>  <NdssS>
0

>  <NddssS>
0

>  <NsCl>
0

>  <NsBr>
0

>  <NsI>
0

>  <fragCpx>
170.02

>  <fMF>
0.33

>  <nHBAcc>
2

>  <nHBDon>
1

>  <Kier1>
16.47

>  <Kier2>
5.77

>  <Lipinski>
1

>  <GhoseFilter>
1

>  <FilterItLogS>
-4.94

>  <VMcGowan>
266.26

>  <LabuteASA>
140.44

>  <PEOE_VSA1>
5.11

>  <PEOE_VSA2>
4.9

>  <PEOE_VSA3>
0

>  <PEOE_VSA4>
0

>  <PEOE_VSA5>
0

>  <PEOE_VSA6>
33.26

>  <PEOE_VSA7>
73.24

>  <PEOE_VSA8>
18

>  <PEOE_VSA9>
0

>  <PEOE_VSA10>
5.75

>  <PEOE_VSA11>
0

>  <PEOE_VSA12>
0

>  <PEOE_VSA13>
0

>  <SMR_VSA1>
5.11

>  <SMR_VSA2>
0

>  <SMR_VSA3>
4.9

>  <SMR_VSA4>
11.33

>  <SMR_VSA5>
70.75

>  <SMR_VSA6>
13.09

>  <SMR_VSA7>
29.33

>  <SMR_VSA8>
0

>  <SMR_VSA9>
5.75

>  <SlogP_VSA1>
0

>  <SlogP_VSA2>
29.14

>  <SlogP_VSA3>
11.84

>  <SlogP_VSA4>
11.33

>  <SlogP_VSA5>
64

>  <SlogP_VSA6>
18.2

>  <SlogP_VSA7>
0

>  <SlogP_VSA8>
0

>  <SlogP_VSA9>
0

>  <SlogP_VSA10>
0

>  <SlogP_VSA11>
5.75

>  <EState_VSA1>
0

>  <EState_VSA2>
10.83

>  <EState_VSA3>
11.79

>  <EState_VSA4>
12.34

>  <EState_VSA5>
56.32

>  <EState_VSA6>
0

>  <EState_VSA7>
6.07

>  <EState_VSA8>
37.8

>  <EState_VSA9>
0

>  <EState_VSA10>
5.11

>  <VSA_EState1>
0

>  <VSA_EState2>
2.81

>  <VSA_EState3>
10.07

>  <VSA_EState4>
3.4

>  <VSA_EState5>
1.38

>  <VSA_EState6>
6.78

>  <VSA_EState7>
7.87

>  <VSA_EState8>
9.86

>  <VSA_EState9>
0

>  <apol>
57.64

>  <bpol>
32.81

>  <nRing>
4

>  <nHRing>
1

>  <naRing>
1

>  <naHRing>
0

>  <nARing 2>
3

>  <nAHRing 2>
1

>  <nFRing>
1

>  <nFHRing>
1

>  <nFaRing>
0

>  <nFaHRing>
0

>  <nFARing 2>
1

>  <nFAHRing 2>
1

>  <nRot>
3

>  <SLogP>
4.5

>  <SMR>
94.88

>  <TopoPSA(NO)>
23.47

>  <TopoPSA>
23.47

>  <JGI1>
0.25

>  <JGI2>
0.12

>  <JGI3>
0.07

>  <JGI4>
0.06

>  <JGI5>
0.04

>  <Diameter>
11

>  <Radius>
6

>  <TMWC10>
127.26

>  <TSRW10>
58.94

>  <MW>
313.24

>  <AMW>
5.8

>  <WPath>
1042

>  <WPol>
47

>  <Zagreb1>
134

>  <Zagreb2>
169

>  <mZagreb2>
4.87

>  <yes>


>  <nAR-cont>
0.691115

>  <nHA-cont>
0.967789328

>  <MWHBN>
0.169505052

>  <MWHBN-cont>
0.973185297

>  <TPSA-cont>
0.836164826

>  <pka_cont>
0.97

>  <yes.1>


>  <BBB_SCORE>
5.276011925

>  <MMFF94 Energy>
80.546

$$$$
Compound 1122
Actelion Java MolfileCreator 2.0

  0  0  0  0  0  0              0 V3000
M  V30 BEGIN CTAB
M  V30 COUNTS 31 32 0 0 0
M  V30 BEGIN ATOM
M  V30 1 O 0.0 2.2224 1.9841 0
M  V30 2 C 0.6838 1.3262 1.5148 0
M  V30 3 N 1.7006 0.731 2.195 0
M  V30 4 C 0.6685 0.7825 0.0867 0
M  V30 5 C 2.3191 -0.2467 1.4901 0
M  V30 6 C -0.685 0.5813 -0.5948 0
M  V30 7 C 1.5161 -0.5212 0.2407 0
M  V30 8 C 1.4731 1.8324 -0.7288 0
M  V30 9 O 3.3253 -0.8398 1.8401 0
M  V30 10 C -1.9073 0.9098 0.0117 0
M  V30 11 C -0.7324 0.0553 -1.9028 0
M  V30 12 C 0.7886 -1.8711 0.4177 0
M  V30 13 C -3.1223 0.7119 -0.6529 0
M  V30 14 C -1.9456 -0.1427 -2.5665 0
M  V30 15 C -0.1396 -1.9952 1.6206 0
M  V30 16 C -3.1421 0.1852 -1.9399 0
M  V30 17 H 1.9873 1.0171 3.1175 0
M  V30 18 H 2.2125 -0.618 -0.6018 0
M  V30 19 H 2.4292 2.0794 -0.2514 0
M  V30 20 H 0.9108 2.77 -0.8222 0
M  V30 21 H 1.7001 1.4806 -1.7412 0
M  V30 22 H -1.9538 1.328 1.0143 0
M  V30 23 H 0.1841 -0.2146 -2.4241 0
M  V30 24 H 1.548 -2.6593 0.5094 0
M  V30 25 H 0.2262 -2.113 -0.4899 0
M  V30 26 H -4.0551 0.9754 -0.16 0
M  V30 27 H -1.9541 -0.5519 -3.5734 0
M  V30 28 H -0.6119 -2.9833 1.6207 0
M  V30 29 H -0.9374 -1.2507 1.6086 0
M  V30 30 H 0.4088 -1.8978 2.5623 0
M  V30 31 H -4.0879 0.0346 -2.4532 0
M  V30 END ATOM
M  V30 BEGIN BOND
M  V30 1 2 1 2
M  V30 2 1 2 3
M  V30 3 1 2 4
M  V30 4 1 3 5
M  V30 5 1 4 6
M  V30 6 1 4 7
M  V30 7 1 4 8
M  V30 8 2 5 9
M  V30 9 2 6 10
M  V30 10 1 6 11
M  V30 11 1 7 12
M  V30 12 1 10 13
M  V30 13 2 11 14
M  V30 14 1 12 15
M  V30 15 2 13 16
M  V30 16 1 5 7
M  V30 17 1 14 16
M  V30 18 1 3 17
M  V30 19 1 7 18
M  V30 20 1 8 19
M  V30 21 1 8 20
M  V30 22 1 8 21
M  V30 23 1 10 22
M  V30 24 1 11 23
M  V30 25 1 12 24
M  V30 26 1 12 25
M  V30 27 1 13 26
M  V30 28 1 14 27
M  V30 29 1 15 28
M  V30 30 1 15 29
M  V30 31 1 15 30
M  V30 32 1 16 31
M  V30 END BOND
M  V30 END CTAB
M  END
>  <Column 1>
1329

>  <level_0>
1475

>  <index>
1475

>  <Unnamed: 0>
1475

>  <NO.>
1487

>  <Name>
fenimide

>  <IUPAC_name>
4-ethyl-3-methyl-3-phenylpyrrolidine-2-5-dione

>  <SMILES>
CCC1C(=O)NC(=O)C1(C)c1ccccc1

>  <CID>
6068

>  <logBB>


>  <BBB+/BBB->
BBB+

>  <Inchi>
InChI=1S/C13H15NO2/c1-3-10-11(15)14-12(16)13(10-2)9-7-5-4-6-8-9/h4-8-10H-3H2-1-2H3-(H-14-15-16)

>  <threshold>
-1

>  <reference>
R1|R19|R6|R27|R27|R30|

>  <group>
B

>  <Class>
-1

>  <ABC>
12.17

>  <ABCGG>
11.6

>  <nAcid>
0

>  <nBase>
0

>  <nAromAtom>
6

>  <nAromBond>
6

>  <nAtom>
31

>  <nHeavyAtom>
16

>  <nSpiro>
0

>  <nBridgehead>
0

>  <nHetero>
3

>  <nN>
1

>  <nO>
2

>  <nF>
0

>  <BalabanJ>
2.19

>  <BertzCT>
426.82

>  <nBonds>
32

>  <nBondsO>
17

>  <nBondsS>
24

>  <nBondsD>
2

>  <nBondsT>
0

>  <nBondsA>
6

>  <nBondsM>
8

>  <nBondsKS>
27

>  <nBondsKD>
5

>  <RNCG>
0.22

>  <RPCG>
0.18

>  <FCSP3>
0.38

>  <SZ>
19.33

>  <Sm>
18.09

>  <Sv>
19.25

>  <Sse>
30.98

>  <Sp>
20.61

>  <Si>
34.82

>  <MZ>
0.62

>  <Mm>
0.58

>  <Mv>
0.62

>  <Mse>
1

>  <Mp>
0.66

>  <Mi>
1.12

>  <NsCH3>
2

>  <NdCH2>
0

>  <NssCH2>
1

>  <NtCH>
0

>  <NdsCH>
0

>  <NaaCH>
5

>  <NsssCH>
1

>  <NddC>
0

>  <NtsC>
0

>  <NdssC>
2

>  <NaasC>
1

>  <NaaaC>
0

>  <NssssC>
1

>  <NsNH3>
0

>  <NsNH2>
0

>  <NssNH2>
0

>  <NdNH>
0

>  <NssNH>
1

>  <NaaNH>
0

>  <NtN>
0

>  <NsssNH>
0

>  <NdsN>
0

>  <NaaN>
0

>  <NsssN>
0

>  <NddsN>
0

>  <NaasN>
0

>  <NssssN>
0

>  <NsOH>
0

>  <NdO>
2

>  <NssO>
0

>  <NaaO>
0

>  <NsF>
0

>  <NsSiH3>
0

>  <NssSiH2>
0

>  <NsssSiH>
0

>  <NssssSi>
0

>  <NsPH2>
0

>  <NssPH>
0

>  <NsssP>
0

>  <NdsssP>
0

>  <NsssssP>
0

>  <NsSH>
0

>  <NdS>
0

>  <NssS>
0

>  <NaaS>
0

>  <NdssS>
0

>  <NddssS>
0

>  <NsCl>
0

>  <NsBr>
0

>  <NsI>
0

>  <fragCpx>
49.03

>  <fMF>
0.35

>  <nHBAcc>
2

>  <nHBDon>
1

>  <Kier1>
12.46

>  <Kier2>
4.7

>  <Lipinski>
1

>  <GhoseFilter>
1

>  <FilterItLogS>
-3.52

>  <VMcGowan>
172.53

>  <LabuteASA>
94.85

>  <PEOE_VSA1>
0

>  <PEOE_VSA2>
14.91

>  <PEOE_VSA3>
0

>  <PEOE_VSA4>
0

>  <PEOE_VSA5>
0

>  <PEOE_VSA6>
37.26

>  <PEOE_VSA7>
18.91

>  <PEOE_VSA8>
0

>  <PEOE_VSA9>
11.33

>  <PEOE_VSA10>
0

>  <PEOE_VSA11>
0

>  <PEOE_VSA12>
11.81

>  <PEOE_VSA13>
0

>  <SMR_VSA1>
9.59

>  <SMR_VSA2>
0

>  <SMR_VSA3>
5.32

>  <SMR_VSA4>
5.92

>  <SMR_VSA5>
25.68

>  <SMR_VSA6>
0

>  <SMR_VSA7>
35.9

>  <SMR_VSA8>
0

>  <SMR_VSA9>
0

>  <SlogP_VSA1>
5.32

>  <SlogP_VSA2>
11.81

>  <SlogP_VSA3>
15

>  <SlogP_VSA4>
5.92

>  <SlogP_VSA5>
25.83

>  <SlogP_VSA6>
30.33

>  <SlogP_VSA7>
0

>  <SlogP_VSA8>
0

>  <SlogP_VSA9>
0

>  <SlogP_VSA10>
0

>  <SlogP_VSA11>
0

>  <EState_VSA1>
5.41

>  <EState_VSA2>
17.73

>  <EState_VSA3>
6.42

>  <EState_VSA4>
5.56

>  <EState_VSA5>
0

>  <EState_VSA6>
0

>  <EState_VSA7>
44.18

>  <EState_VSA8>
5.32

>  <EState_VSA9>
0

>  <EState_VSA10>
9.59

>  <VSA_EState1>
0

>  <VSA_EState2>
23.62

>  <VSA_EState3>
2.43

>  <VSA_EState4>
0.19

>  <VSA_EState5>
-0.6

>  <VSA_EState6>
9.5

>  <VSA_EState7>
0.67

>  <VSA_EState8>
3.78

>  <VSA_EState9>
0

>  <apol>
34.42

>  <bpol>
17.35

>  <nRing>
2

>  <nHRing>
1

>  <naRing>
1

>  <naHRing>
0

>  <nARing 2>
1

>  <nAHRing 2>
1

>  <nFRing>
0

>  <nFHRing>
0

>  <nFaRing>
0

>  <nFaHRing>
0

>  <nFARing 2>
0

>  <nFAHRing 2>
0

>  <nRot>
2

>  <SLogP>
1.63

>  <SMR>
60.72

>  <TopoPSA(NO)>
46.17

>  <TopoPSA>
46.17

>  <JGI1>
0.24

>  <JGI2>
0.12

>  <JGI3>
0.09

>  <JGI4>
0.04

>  <JGI5>
0.02

>  <Diameter>
7

>  <Radius>
4

>  <TMWC10>
105.93

>  <TSRW10>
63.59

>  <MW>
217.11

>  <AMW>
7

>  <WPath>
389

>  <WPol>
28

>  <Zagreb1>
84

>  <Zagreb2>
103

>  <mZagreb2>
3.61

>  <yes>


>  <nAR-cont>
0.816016

>  <nHA-cont>
0.954961865

>  <MWHBN>
0.203601672

>  <MWHBN-cont>
0.999991084

>  <TPSA-cont>
0.67770473

>  <pka_cont>
0.97

>  <yes.1>


>  <BBB_SCORE>
5.111373951

>  <MMFF94 Energy>
-2.111

$$$$
Compound 1123
Actelion Java MolfileCreator 2.0

  0  0  0  0  0  0              0 V3000
M  V30 BEGIN CTAB
M  V30 COUNTS 44 46 0 0 0
M  V30 BEGIN ATOM
M  V30 1 Cl -0.2397 3.3598 -5.1232 0
M  V30 2 C -0.3734 2.939 -3.4604 0
M  V30 3 C -1.2339 3.6552 -2.6318 0
M  V30 4 C 0.3875 1.8902 -2.9484 0
M  V30 5 C -1.3397 3.3112 -1.2813 0
M  V30 6 C 0.2822 1.5503 -1.5961 0
M  V30 7 C -0.5945 2.246 -0.7565 0
M  V30 8 C -0.728 1.9176 0.6502 0
M  V30 9 N -0.6643 2.888 1.6201 0
M  V30 10 C -0.9978 0.6705 1.1964 0
M  V30 11 C -0.8803 2.2647 2.7547 0
M  V30 12 N -1.1098 0.9044 2.5586 0
M  V30 13 C -1.2348 -0.6555 0.5617 0
M  V30 14 C -0.9281 2.7571 4.0896 0
M  V30 15 C -1.3952 0.0317 3.6145 0
M  V30 16 N 0.0133 -1.365 0.2652 0
M  V30 17 C -1.197 1.9158 5.1056 0
M  V30 18 C -1.4436 0.5035 4.8719 0
M  V30 19 C 0.0892 -2.0421 -0.9512 0
M  V30 20 C 1.0256 -1.4546 1.3136 0
M  V30 21 O -0.8636 -2.0949 -1.729 0
M  V30 22 C 1.4123 -2.7144 -1.2894 0
M  V30 23 C 1.4503 -3.2342 -2.7259 0
M  V30 24 C 2.7888 -3.8767 -3.0507 0
M  V30 25 H -1.8212 4.4802 -3.0247 0
M  V30 26 H 1.0657 1.3365 -3.5914 0
M  V30 27 H -2.0065 3.8779 -0.6339 0
M  V30 28 H 0.903 0.7507 -1.2057 0
M  V30 29 H -1.8253 -0.5086 -0.3496 0
M  V30 30 H -1.833 -1.316 1.1977 0
M  V30 31 H -0.747 3.8128 4.2568 0
M  V30 32 H -1.5721 -1.0101 3.3865 0
M  V30 33 H -1.2388 2.2787 6.1284 0
M  V30 34 H -1.6635 -0.1378 5.7188 0
M  V30 35 H 1.4559 -0.4644 1.4858 0
M  V30 36 H 0.5526 -1.8206 2.229 0
M  V30 37 H 1.837 -2.1384 1.0652 0
M  V30 38 H 1.5596 -3.552 -0.5985 0
M  V30 39 H 2.2209 -1.9882 -1.1484 0
M  V30 40 H 0.6509 -3.9686 -2.8802 0
M  V30 41 H 1.2646 -2.4107 -3.4258 0
M  V30 42 H 2.7933 -4.2423 -4.0822 0
M  V30 43 H 3.6061 -3.1567 -2.9421 0
M  V30 44 H 2.9875 -4.7252 -2.3884 0
M  V30 END ATOM
M  V30 BEGIN BOND
M  V30 1 1 1 2
M  V30 2 2 2 3
M  V30 3 1 2 4
M  V30 4 1 3 5
M  V30 5 2 4 6
M  V30 6 2 5 7
M  V30 7 1 7 8
M  V30 8 1 8 9
M  V30 9 2 8 10
M  V30 10 2 9 11
M  V30 11 1 10 12
M  V30 12 1 10 13
M  V30 13 1 11 14
M  V30 14 1 12 15
M  V30 15 1 13 16
M  V30 16 2 14 17
M  V30 17 2 15 18
M  V30 18 1 16 19
M  V30 19 1 16 20
M  V30 20 2 19 21
M  V30 21 1 19 22
M  V30 22 1 22 23
M  V30 23 1 23 24
M  V30 24 1 6 7
M  V30 25 1 11 12
M  V30 26 1 17 18
M  V30 27 1 3 25
M  V30 28 1 4 26
M  V30 29 1 5 27
M  V30 30 1 6 28
M  V30 31 1 13 29
M  V30 32 1 13 30
M  V30 33 1 14 31
M  V30 34 1 15 32
M  V30 35 1 17 33
M  V30 36 1 18 34
M  V30 37 1 20 35
M  V30 38 1 20 36
M  V30 39 1 20 37
M  V30 40 1 22 38
M  V30 41 1 22 39
M  V30 42 1 23 40
M  V30 43 1 23 41
M  V30 44 1 24 42
M  V30 45 1 24 43
M  V30 46 1 24 44
M  V30 END BOND
M  V30 END CTAB
M  END
>  <Column 1>
1330

>  <level_0>
1477

>  <index>
1477

>  <Unnamed: 0>
1477

>  <NO.>
1489

>  <Name>
saripidem

>  <IUPAC_name>
n-[[2-(4-chlorophenyl)imidazo[1-2-a]pyridin-3-yl]methyl]-n-methylbutanamide

>  <SMILES>
CCCC(=O)N(C)Cc1c(-c2ccc(Cl)cc2)nc2ccccn12

>  <CID>
3058746

>  <logBB>


>  <BBB+/BBB->
BBB+

>  <Inchi>
InChI=1S/C19H20ClN3O/c1-3-6-18(24)22(2)13-16-19(14-8-10-15(20)11-9-14)21-17-7-4-5-12-23(16)17/h4-5-7-12H-3-6-13H2-1-2H3

>  <threshold>
-1

>  <reference>
R1|R13|R19|R6|R24|R27|R27|R27|R30|R30|

>  <group>
B

>  <Class>
1

>  <ABC>
18.51

>  <ABCGG>
15.45

>  <nAcid>
0

>  <nBase>
0

>  <nAromAtom>
15

>  <nAromBond>
16

>  <nAtom>
44

>  <nHeavyAtom>
24

>  <nSpiro>
0

>  <nBridgehead>
0

>  <nHetero>
5

>  <nN>
3

>  <nO>
1

>  <nF>
0

>  <BalabanJ>
1.68

>  <BertzCT>
854.68

>  <nBonds>
46

>  <nBondsO>
26

>  <nBondsS>
29

>  <nBondsD>
1

>  <nBondsT>
0

>  <nBondsA>
16

>  <nBondsM>
17

>  <nBondsKS>
38

>  <nBondsKD>
8

>  <RNCG>
0.21

>  <RPCG>
0.13

>  <FCSP3>
0.26

>  <SZ>
30

>  <Sm>
28.46

>  <Sv>
28.5

>  <Sse>
43.96

>  <Sp>
30.75

>  <Si>
49.39

>  <MZ>
0.68

>  <Mm>
0.65

>  <Mv>
0.65

>  <Mse>
1

>  <Mp>
0.7

>  <Mi>
1.12

>  <NsCH3>
2

>  <NdCH2>
0

>  <NssCH2>
3

>  <NtCH>
0

>  <NdsCH>
0

>  <NaaCH>
8

>  <NsssCH>
0

>  <NddC>
0

>  <NtsC>
0

>  <NdssC>
1

>  <NaasC>
4

>  <NaaaC>
1

>  <NssssC>
0

>  <NsNH3>
0

>  <NsNH2>
0

>  <NssNH2>
0

>  <NdNH>
0

>  <NssNH>
0

>  <NaaNH>
0

>  <NtN>
0

>  <NsssNH>
0

>  <NdsN>
0

>  <NaaN>
1

>  <NsssN>
1

>  <NddsN>
0

>  <NaasN>
1

>  <NssssN>
0

>  <NsOH>
0

>  <NdO>
1

>  <NssO>
0

>  <NaaO>
0

>  <NsF>
0

>  <NsSiH3>
0

>  <NssSiH2>
0

>  <NsssSiH>
0

>  <NssssSi>
0

>  <NsPH2>
0

>  <NssPH>
0

>  <NsssP>
0

>  <NdsssP>
0

>  <NsssssP>
0

>  <NsSH>
0

>  <NdS>
0

>  <NssS>
0

>  <NaaS>
0

>  <NdssS>
0

>  <NddssS>
0

>  <NsCl>
1

>  <NsBr>
0

>  <NsI>
0

>  <fragCpx>
124.05

>  <fMF>
0.34

>  <nHBAcc>
3

>  <nHBDon>
0

>  <Kier1>
18.78

>  <Kier2>
8.59

>  <Lipinski>
1

>  <GhoseFilter>
1

>  <FilterItLogS>
-5.25

>  <VMcGowan>
259.64

>  <LabuteASA>
146.24

>  <PEOE_VSA1>
9.3

>  <PEOE_VSA2>
4.79

>  <PEOE_VSA3>
4.98

>  <PEOE_VSA4>
0

>  <PEOE_VSA5>
0

>  <PEOE_VSA6>
36.72

>  <PEOE_VSA7>
30.69

>  <PEOE_VSA8>
30.25

>  <PEOE_VSA9>
17.93

>  <PEOE_VSA10>
5.65

>  <PEOE_VSA11>
0

>  <PEOE_VSA12>
5.91

>  <PEOE_VSA13>
0

>  <SMR_VSA1>
4.79

>  <SMR_VSA2>
0

>  <SMR_VSA3>
14.28

>  <SMR_VSA4>
0

>  <SMR_VSA5>
26.31

>  <SMR_VSA6>
7.05

>  <SMR_VSA7>
59.38

>  <SMR_VSA8>
0

>  <SMR_VSA9>
11.26

>  <SlogP_VSA1>
0

>  <SlogP_VSA2>
27.24

>  <SlogP_VSA3>
11.34

>  <SlogP_VSA4>
0

>  <SlogP_VSA5>
25.46

>  <SlogP_VSA6>
48.66

>  <SlogP_VSA7>
5.02

>  <SlogP_VSA8>
16.9

>  <SlogP_VSA9>
0

>  <SlogP_VSA10>
0

>  <SlogP_VSA11>
0

>  <EState_VSA1>
0

>  <EState_VSA2>
5.91

>  <EState_VSA3>
17.99

>  <EState_VSA4>
29.02

>  <EState_VSA5>
0

>  <EState_VSA6>
4.9

>  <EState_VSA7>
67.03

>  <EState_VSA8>
0

>  <EState_VSA9>
16.58

>  <EState_VSA10>
4.79

>  <VSA_EState1>
2.04

>  <VSA_EState2>
18.69

>  <VSA_EState3>
0.69

>  <VSA_EState4>
3.75

>  <VSA_EState5>
0.14

>  <VSA_EState6>
13.54

>  <VSA_EState7>
3.39

>  <VSA_EState8>
2.53

>  <VSA_EState9>
1.84

>  <apol>
51.35

>  <bpol>
26

>  <nRing>
3

>  <nHRing>
2

>  <naRing>
3

>  <naHRing>
2

>  <nARing 2>
0

>  <nAHRing 2>
0

>  <nFRing>
1

>  <nFHRing>
1

>  <nFaRing>
1

>  <nFaHRing>
1

>  <nFARing 2>
0

>  <nFAHRing 2>
0

>  <nRot>
5

>  <SLogP>
4.41

>  <SMR>
97.02

>  <TopoPSA(NO)>
37.61

>  <TopoPSA>
37.61

>  <JGI1>
0.17

>  <JGI2>
0.09

>  <JGI3>
0.05

>  <JGI4>
0.04

>  <JGI5>
0.03

>  <Diameter>
12

>  <Radius>
6

>  <TMWC10>
125.19

>  <TSRW10>
72.78

>  <MW>
341.13

>  <AMW>
7.75

>  <WPath>
1319

>  <WPol>
37

>  <Zagreb1>
124

>  <Zagreb2>
146

>  <mZagreb2>
5.39

>  <yes>


>  <nAR-cont>
0.336376

>  <nHA-cont>
0.94700071

>  <MWHBN>
0.16242815

>  <MWHBN-cont>
0.960694376

>  <TPSA-cont>
0.737458846

>  <pka_cont>
0.97

>  <yes.1>


>  <BBB_SCORE>
4.684335965

>  <MMFF94 Energy>
9.7576

$$$$
Compound 1124
Actelion Java MolfileCreator 2.0

  0  0  0  0  0  0              0 V3000
M  V30 BEGIN CTAB
M  V30 COUNTS 65 68 0 0 0
M  V30 BEGIN ATOM
M  V30 1 Cl 3.5847 4.0743 2.1171 0
M  V30 2 C 2.2151 3.3768 1.2412 0
M  V30 3 C 1.3744 2.5203 2.17 0
M  V30 4 O 0.8866 3.0125 3.1909 0
M  V30 5 C 1.0174 1.0781 1.6863 0 CFG=2
M  V30 6 O 2.1328 0.479 0.963 0
M  V30 7 C -0.1929 1.1227 0.668 0 CFG=2
M  V30 8 C 0.5333 0.0195 2.7632 0 CFG=2
M  V30 9 C 3.3076 0.2918 1.6341 0
M  V30 10 C -0.6512 -0.3602 0.695 0 CFG=1
M  V30 11 C 0.1572 1.4666 -0.7901 0
M  V30 12 C -1.2959 2.107 1.1537 0
M  V30 13 C -0.7306 -0.6621 2.1823 0
M  V30 14 C 0.2719 0.4917 4.1878 0
M  V30 15 O 3.4994 0.6287 2.7901 0
M  V30 16 C 4.309 -0.3744 0.7232 0
M  V30 17 C -1.8962 -0.6386 -0.1687 0 CFG=1
M  V30 18 C -1.0497 1.1872 -1.677 0
M  V30 19 C 5.6572 -0.5717 1.4104 0
M  V30 20 C -1.5741 -0.2656 -1.6516 0 CFG=1
M  V30 21 C -2.3301 -2.1107 -0.0584 0
M  V30 22 O -1.5371 2.0948 -2.3488 0
M  V30 23 C 6.6615 -1.2393 0.4857 0
M  V30 24 F -0.5298 -1.0883 -2.0287 0
M  V30 25 C -2.7705 -0.5681 -2.6244 0 CFG=2
M  V30 26 C -3.5033 -2.4325 -0.9808 0
M  V30 27 C -3.1908 -2.0358 -2.4027 0
M  V30 28 C -2.363 -0.3363 -4.0788 0
M  V30 29 C -4.0086 0.3217 -2.3627 0
M  V30 30 C -3.2378 -2.9535 -3.3853 0
M  V30 31 C -2.411 -1.2554 -5.0522 0
M  V30 32 C -2.8732 -2.6283 -4.7792 0
M  V30 33 O -2.9443 -3.467 -5.668 0
M  V30 34 H 1.5926 4.1842 0.8451 0
M  V30 35 H 2.6122 2.807 0.4005 0
M  V30 36 H 1.2879 -0.7745 2.8402 0
M  V30 37 H 0.1588 -0.9885 0.2914 0
M  V30 38 H 0.9901 0.8712 -1.1789 0
M  V30 39 H 0.434 2.5212 -0.8931 0
M  V30 40 H -1.5721 1.9496 2.1996 0
M  V30 41 H -0.9592 3.1458 1.0595 0
M  V30 42 H -2.2158 2.0341 0.5664 0
M  V30 43 H -0.7144 -1.7393 2.3812 0
M  V30 44 H -1.6518 -0.2643 2.6225 0
M  V30 45 H 1.177 0.9145 4.6345 0
M  V30 46 H -0.5304 1.2335 4.2363 0
M  V30 47 H -0.0326 -0.3532 4.8159 0
M  V30 48 H 4.435 0.2555 -0.1643 0
M  V30 49 H 3.9006 -1.3443 0.4186 0
M  V30 50 H -2.7264 -0.0248 0.197 0
M  V30 51 H 6.0547 0.3961 1.739 0
M  V30 52 H 5.5319 -1.184 2.3116 0
M  V30 53 H -2.6239 -2.3398 0.9725 0
M  V30 54 H -1.4852 -2.7688 -0.2995 0
M  V30 55 H 7.6196 -1.3709 0.9982 0
M  V30 56 H 6.3075 -2.2253 0.1685 0
M  V30 57 H 6.8352 -0.6321 -0.4084 0
M  V30 58 H -3.7273 -3.5036 -0.9059 0
M  V30 59 H -4.4036 -1.9081 -0.6404 0
M  V30 60 H -2.0299 0.6645 -4.3503 0
M  V30 61 H -4.3175 0.3183 -1.3131 0
M  V30 62 H -4.8706 -0.021 -2.9502 0
M  V30 63 H -3.8399 1.3663 -2.6432 0
M  V30 64 H -3.5247 -3.9852 -3.2148 0
M  V30 65 H -2.1248 -1.037 -6.0739 0
M  V30 END ATOM
M  V30 BEGIN BOND
M  V30 1 1 1 2
M  V30 2 1 2 3
M  V30 3 2 3 4
M  V30 4 1 3 5
M  V30 5 1 5 6
M  V30 6 1 5 7
M  V30 7 1 5 8
M  V30 8 1 6 9
M  V30 9 1 7 10
M  V30 10 1 7 11
M  V30 11 1 7 12
M  V30 12 1 8 13
M  V30 13 1 8 14
M  V30 14 2 9 15
M  V30 15 1 9 16
M  V30 16 1 10 17
M  V30 17 1 11 18
M  V30 18 1 16 19
M  V30 19 1 17 20
M  V30 20 1 17 21
M  V30 21 2 18 22
M  V30 22 1 19 23
M  V30 23 1 20 24
M  V30 24 1 20 25
M  V30 25 1 21 26
M  V30 26 1 25 27
M  V30 27 1 25 28
M  V30 28 1 25 29
M  V30 29 2 27 30
M  V30 30 2 28 31
M  V30 31 1 30 32
M  V30 32 2 32 33
M  V30 33 1 10 13
M  V30 34 1 18 20
M  V30 35 1 26 27
M  V30 36 1 31 32
M  V30 37 1 2 34
M  V30 38 1 2 35
M  V30 39 1 8 36
M  V30 40 1 10 37
M  V30 41 1 11 38
M  V30 42 1 11 39
M  V30 43 1 12 40
M  V30 44 1 12 41
M  V30 45 1 12 42
M  V30 46 1 13 43
M  V30 47 1 13 44
M  V30 48 1 14 45
M  V30 49 1 14 46
M  V30 50 1 14 47
M  V30 51 1 16 48
M  V30 52 1 16 49
M  V30 53 1 17 50
M  V30 54 1 19 51
M  V30 55 1 19 52
M  V30 56 1 21 53
M  V30 57 1 21 54
M  V30 58 1 23 55
M  V30 59 1 23 56
M  V30 60 1 23 57
M  V30 61 1 26 58
M  V30 62 1 26 59
M  V30 63 1 28 60
M  V30 64 1 29 61
M  V30 65 1 29 62
M  V30 66 1 29 63
M  V30 67 1 30 64
M  V30 68 1 31 65
M  V30 END BOND
M  V30 BEGIN COLLECTION
M  V30 MDLV30/STEABS ATOMS=(7 5 7 8 10 17 20 25)
M  V30 END COLLECTION
M  V30 END CTAB
M  END
>  <Column 1>
1331

>  <level_0>
1478

>  <index>
1478

>  <Unnamed: 0>
1478

>  <NO.>
1490

>  <Name>
clobetasone butyrate

>  <IUPAC_name>
[(8s-9r-10s-13s-14s-16s-17r)-17-(2-chloroacetyl)-9-fluoro-10-13-16-trimethyl-3-11-dioxo-7-8-12-14-15-16-hexahydro-6h-cyclopenta[a]phenanthren-17-yl] butanoate

>  <SMILES>
CCCC(=O)O[C@]1(C(=O)CCl)[C@@H](C)C[C@H]2[C@@H]3CCC4=CC(=O)C=C[C@]4(C)[C@@]3(F)C(=O)C[C@@]21C

>  <CID>
71386

>  <logBB>


>  <BBB+/BBB->
BBB+

>  <Inchi>
InChI=1S/C26H32ClFO5/c1-5-6-22(32)33-26(21(31)14-27)15(2)11-19-18-8-7-16-12-17(29)9-10-23(16-3)25(18-28)20(30)13-24(19-26)4/h9-10-12-15-18-19H-5-8-11-13-14H2-1-4H3/t15--18--19--23--24--25--26-/m0/s1

>  <threshold>
-1

>  <reference>
R1|R6|R27|R30|

>  <group>
B

>  <Class>
1

>  <ABC>
25.88

>  <ABCGG>
21.72

>  <nAcid>
0

>  <nBase>
0

>  <nAromAtom>
0

>  <nAromBond>
0

>  <nAtom>
65

>  <nHeavyAtom>
33

>  <nSpiro>
0

>  <nBridgehead>
0

>  <nHetero>
7

>  <nN>
0

>  <nO>
5

>  <nF>
1

>  <BalabanJ>
1.77

>  <BertzCT>
987.17

>  <nBonds>
68

>  <nBondsO>
36

>  <nBondsS>
62

>  <nBondsD>
6

>  <nBondsT>
0

>  <nBondsA>
0

>  <nBondsM>
6

>  <nBondsKS>
62

>  <nBondsKD>
6

>  <RNCG>
0.18

>  <RPCG>
0.12

>  <FCSP3>
0.69

>  <SZ>
42.33

>  <Sm>
39.88

>  <Sv>
39.98

>  <Sse>
65.58

>  <Sp>
42.82

>  <Si>
73.39

>  <MZ>
0.65

>  <Mm>
0.61

>  <Mv>
0.62

>  <Mse>
1.01

>  <Mp>
0.66

>  <Mi>
1.13

>  <NsCH3>
4

>  <NdCH2>
0

>  <NssCH2>
7

>  <NtCH>
0

>  <NdsCH>
3

>  <NaaCH>
0

>  <NsssCH>
3

>  <NddC>
0

>  <NtsC>
0

>  <NdssC>
5

>  <NaasC>
0

>  <NaaaC>
0

>  <NssssC>
4

>  <NsNH3>
0

>  <NsNH2>
0

>  <NssNH2>
0

>  <NdNH>
0

>  <NssNH>
0

>  <NaaNH>
0

>  <NtN>
0

>  <NsssNH>
0

>  <NdsN>
0

>  <NaaN>
0

>  <NsssN>
0

>  <NddsN>
0

>  <NaasN>
0

>  <NssssN>
0

>  <NsOH>
0

>  <NdO>
4

>  <NssO>
1

>  <NaaO>
0

>  <NsF>
1

>  <NsSiH3>
0

>  <NssSiH2>
0

>  <NsssSiH>
0

>  <NssssSi>
0

>  <NsPH2>
0

>  <NssPH>
0

>  <NsssP>
0

>  <NdsssP>
0

>  <NsssssP>
0

>  <NsSH>
0

>  <NdS>
0

>  <NssS>
0

>  <NaaS>
0

>  <NdssS>
0

>  <NddssS>
0

>  <NsCl>
1

>  <NsBr>
0

>  <NsI>
0

>  <fragCpx>
240.07

>  <fMF>
0.26

>  <nHBAcc>
5

>  <nHBDon>
0

>  <Kier1>
26.07

>  <Kier2>
8.83

>  <Lipinski>
1

>  <GhoseFilter>
1

>  <FilterItLogS>
-6.06

>  <VMcGowan>
351.31

>  <LabuteASA>
198.69

>  <PEOE_VSA1>
4.74

>  <PEOE_VSA2>
19.18

>  <PEOE_VSA3>
4.39

>  <PEOE_VSA4>
0

>  <PEOE_VSA5>
11.6

>  <PEOE_VSA6>
32.42

>  <PEOE_VSA7>
50.68

>  <PEOE_VSA8>
35.51

>  <PEOE_VSA9>
5.88

>  <PEOE_VSA10>
0

>  <PEOE_VSA11>
28.62

>  <PEOE_VSA12>
0

>  <PEOE_VSA13>
0

>  <SMR_VSA1>
28.31

>  <SMR_VSA2>
0

>  <SMR_VSA3>
0

>  <SMR_VSA4>
28.58

>  <SMR_VSA5>
77.49

>  <SMR_VSA6>
5.88

>  <SMR_VSA7>
23.8

>  <SMR_VSA8>
0

>  <SMR_VSA9>
0

>  <SlogP_VSA1>
0

>  <SlogP_VSA2>
40.47

>  <SlogP_VSA3>
23.92

>  <SlogP_VSA4>
28.58

>  <SlogP_VSA5>
66.22

>  <SlogP_VSA6>
23.8

>  <SlogP_VSA7>
0

>  <SlogP_VSA8>
0

>  <SlogP_VSA9>
0

>  <SlogP_VSA10>
4.39

>  <SlogP_VSA11>
0

>  <EState_VSA1>
51.47

>  <EState_VSA2>
30.42

>  <EState_VSA3>
31.26

>  <EState_VSA4>
0

>  <EState_VSA5>
12.15

>  <EState_VSA6>
19.92

>  <EState_VSA7>
13.85

>  <EState_VSA8>
0

>  <EState_VSA9>
16.34

>  <EState_VSA10>
19.18

>  <VSA_EState1>
23.11

>  <VSA_EState2>
51.72

>  <VSA_EState3>
0

>  <VSA_EState4>
-5.35

>  <VSA_EState5>
-3.45

>  <VSA_EState6>
0

>  <VSA_EState7>
6.21

>  <VSA_EState8>
7.19

>  <VSA_EState9>
0

>  <apol>
71.5

>  <bpol>
38.93

>  <nRing>
4

>  <nHRing>
0

>  <naRing>
0

>  <naHRing>
0

>  <nARing 2>
4

>  <nAHRing 2>
0

>  <nFRing>
1

>  <nFHRing>
0

>  <nFaRing>
0

>  <nFaHRing>
0

>  <nFARing 2>
1

>  <nFAHRing 2>
0

>  <nRot>
5

>  <SLogP>
4.7

>  <SMR>
121.36

>  <TopoPSA(NO)>
77.51

>  <TopoPSA>
77.51

>  <JGI1>
0.31

>  <JGI2>
0.15

>  <JGI3>
0.08

>  <JGI4>
0.06

>  <JGI5>
0.04

>  <Diameter>
14

>  <Radius>
7

>  <TMWC10>
151.59

>  <TSRW10>
85.58

>  <MW>
478.19

>  <AMW>
7.36

>  <WPath>
2671

>  <WPol>
78

>  <Zagreb1>
190

>  <Zagreb2>
246

>  <mZagreb2>
7.11

>  <yes>


>  <nAR-cont>
0.199399

>  <nHA-cont>
0.61399562

>  <MWHBN>
0.228649239

>  <MWHBN-cont>
0.988093085

>  <TPSA-cont>
0.458932069

>  <pka_cont>
0.97

>  <yes.1>


>  <BBB_SCORE>
3.698398386

>  <MMFF94 Energy>
134.96

$$$$
Compound 1125
Actelion Java MolfileCreator 2.0

  0  0  0  0  0  0              0 V3000
M  V30 BEGIN CTAB
M  V30 COUNTS 67 70 0 0 0
M  V30 BEGIN ATOM
M  V30 1 O 3.6161 1.9273 -4.9848 0
M  V30 2 C 3.3072 1.9289 -3.7962 0
M  V30 3 C 2.3516 2.9425 -3.2898 0
M  V30 4 C 3.7716 0.8632 -2.8363 0
M  V30 5 C 2.041 3.0151 -1.9835 0
M  V30 6 C 3.9781 1.4701 -1.4593 0
M  V30 7 C 2.7168 2.1792 -0.8877 0 CFG=2
M  V30 8 C 0.8664 3.8427 -1.5266 0
M  V30 9 C 1.6079 1.1763 -0.3923 0 CFG=1
M  V30 10 C 3.2409 3.1216 0.2251 0
M  V30 11 C -0.2123 2.9086 -0.9777 0
M  V30 12 C 2.0671 0.0841 0.6137 0 CFG=1
M  V30 13 C 0.3127 1.9233 0.0908 0 CFG=1
M  V30 14 O 2.7622 0.6047 1.7349 0
M  V30 15 C 0.9284 -0.8426 1.0967 0
M  V30 16 C -0.7553 0.87 0.4262 0 CFG=1
M  V30 17 C -0.3498 -0.1051 1.5574 0 CFG=1
M  V30 18 C -2.1387 1.343 0.8494 0
M  V30 19 C -1.6638 -0.9823 1.6414 0 CFG=1
M  V30 20 C -0.1013 0.6096 2.9146 0
M  V30 21 C -2.786 0.0999 1.4916 0
M  V30 22 O -1.6928 -1.8426 0.4758 0
M  V30 23 C -1.7565 -1.7551 2.9854 0
M  V30 24 C -2.7508 -2.6848 0.3096 0
M  V30 25 O -2.3151 -1.2906 3.9858 0
M  V30 26 C -1.0767 -3.1175 3.0694 0
M  V30 27 O -3.6482 -2.8352 1.1226 0
M  V30 28 C -2.619 -3.4057 -1.0098 0
M  V30 29 O -0.7447 -3.4421 4.4124 0
M  V30 30 C -3.7931 -4.3473 -1.2627 0
M  V30 31 C -3.6545 -5.0654 -2.5949 0
M  V30 32 H 1.8537 3.533 -4.0511 0
M  V30 33 H 4.7224 0.4585 -3.1998 0
M  V30 34 H 3.0365 0.0526 -2.8202 0
M  V30 35 H 4.3505 0.7058 -0.7693 0
M  V30 36 H 4.7929 2.2048 -1.546 0
M  V30 37 H 0.4435 4.4289 -2.3517 0
M  V30 38 H 1.1749 4.5677 -0.7662 0
M  V30 39 H 1.2934 0.6061 -1.2822 0
M  V30 40 H 3.9413 2.6091 0.8925 0
M  V30 41 H 3.7896 3.9683 -0.207 0
M  V30 42 H 2.446 3.5421 0.8464 0
M  V30 43 H -1.0229 3.5157 -0.5573 0
M  V30 44 H -0.6477 2.3425 -1.8124 0
M  V30 45 H 2.788 -0.5666 0.1063 0
M  V30 46 H 0.5382 2.5114 0.9853 0
M  V30 47 H 2.3388 1.425 2.0305 0
M  V30 48 H 1.3016 -1.4742 1.9112 0
M  V30 49 H 0.6871 -1.5129 0.263 0
M  V30 50 H -0.9042 0.2899 -0.4991 0
M  V30 51 H -2.7293 1.6981 -0.0014 0
M  V30 52 H -2.08 2.1625 1.5746 0
M  V30 53 H 0.3427 -0.081 3.6404 0
M  V30 54 H 0.5648 1.4679 2.8383 0
M  V30 55 H -1.0236 0.995 3.3614 0
M  V30 56 H -3.6054 -0.2428 0.8513 0
M  V30 57 H -3.2304 0.3875 2.4502 0
M  V30 58 H -1.7528 -3.886 2.6884 0
M  V30 59 H -0.1555 -3.1243 2.4863 0
M  V30 60 H -1.6827 -3.9745 -0.9957 0
M  V30 61 H -2.5691 -2.6542 -1.8058 0
M  V30 62 H -1.4776 -3.095 4.9607 0
M  V30 63 H -3.8586 -5.0884 -0.457 0
M  V30 64 H -4.7339 -3.7838 -1.2508 0
M  V30 65 H -4.5057 -5.7345 -2.7553 0
M  V30 66 H -3.6229 -4.3513 -3.424 0
M  V30 67 H -2.74 -5.6663 -2.6233 0
M  V30 END ATOM
M  V30 BEGIN BOND
M  V30 1 2 1 2
M  V30 2 1 2 3
M  V30 3 1 2 4
M  V30 4 2 3 5
M  V30 5 1 4 6
M  V30 6 1 5 7
M  V30 7 1 5 8
M  V30 8 1 7 9
M  V30 9 1 7 10
M  V30 10 1 8 11
M  V30 11 1 9 12
M  V30 12 1 9 13
M  V30 13 1 12 14
M  V30 14 1 12 15
M  V30 15 1 13 16
M  V30 16 1 15 17
M  V30 17 1 16 18
M  V30 18 1 17 19
M  V30 19 1 17 20
M  V30 20 1 18 21
M  V30 21 1 19 22
M  V30 22 1 19 23
M  V30 23 1 22 24
M  V30 24 2 23 25
M  V30 25 1 23 26
M  V30 26 2 24 27
M  V30 27 1 24 28
M  V30 28 1 26 29
M  V30 29 1 28 30
M  V30 30 1 30 31
M  V30 31 1 6 7
M  V30 32 1 11 13
M  V30 33 1 16 17
M  V30 34 1 19 21
M  V30 35 1 3 32
M  V30 36 1 4 33
M  V30 37 1 4 34
M  V30 38 1 6 35
M  V30 39 1 6 36
M  V30 40 1 8 37
M  V30 41 1 8 38
M  V30 42 1 9 39
M  V30 43 1 10 40
M  V30 44 1 10 41
M  V30 45 1 10 42
M  V30 46 1 11 43
M  V30 47 1 11 44
M  V30 48 1 12 45
M  V30 49 1 13 46
M  V30 50 1 14 47
M  V30 51 1 15 48
M  V30 52 1 15 49
M  V30 53 1 16 50
M  V30 54 1 18 51
M  V30 55 1 18 52
M  V30 56 1 20 53
M  V30 57 1 20 54
M  V30 58 1 20 55
M  V30 59 1 21 56
M  V30 60 1 21 57
M  V30 61 1 26 58
M  V30 62 1 26 59
M  V30 63 1 28 60
M  V30 64 1 28 61
M  V30 65 1 29 62
M  V30 66 1 30 63
M  V30 67 1 30 64
M  V30 68 1 31 65
M  V30 69 1 31 66
M  V30 70 1 31 67
M  V30 END BOND
M  V30 BEGIN COLLECTION
M  V30 MDLV30/STEABS ATOMS=(7 7 9 12 13 16 17 19)
M  V30 END COLLECTION
M  V30 END CTAB
M  END
>  <Column 1>
1332

>  <level_0>
1479

>  <index>
1479

>  <Unnamed: 0>
1479

>  <NO.>
1491

>  <Name>
hydrocortisone-butyrate

>  <IUPAC_name>
[(8s-9s-10r-11s-13s-14s-17r)-11-hydroxy-17-(2-hydroxyacetyl)-10-13-dimethyl-3-oxo-2-6-7-8-9-11-12-14-15-16-decahydro-1h-cyclopenta[a]phenanthren-17-yl] butanoate

>  <SMILES>
CCCC(=O)O[C@]1(C(=O)CO)CC[C@H]2[C@@H]3CCC4=CC(=O)CC[C@]4(C)[C@H]3[C@@H](O)C[C@@]21C

>  <CID>
26133

>  <logBB>


>  <BBB+/BBB->
BBB+

>  <Inchi>
InChI=1S/C25H36O6/c1-4-5-21(30)31-25(20(29)14-26)11-9-18-17-7-6-15-12-16(27)8-10-23(15-2)22(17)19(28)13-24(18-25)3/h12-17-19-22-26-28H-4-11-13-14H2-1-3H3/t17--18--19--22+-23--24--25-/m0/s1

>  <threshold>
-1

>  <reference>
R1|R6|R27|R30|

>  <group>
B

>  <Class>
1

>  <ABC>
24.33

>  <ABCGG>
20.08

>  <nAcid>
0

>  <nBase>
0

>  <nAromAtom>
0

>  <nAromBond>
0

>  <nAtom>
67

>  <nHeavyAtom>
31

>  <nSpiro>
0

>  <nBridgehead>
0

>  <nHetero>
6

>  <nN>
0

>  <nO>
6

>  <nF>
0

>  <BalabanJ>
1.67

>  <BertzCT>
816.83

>  <nBonds>
70

>  <nBondsO>
34

>  <nBondsS>
66

>  <nBondsD>
4

>  <nBondsT>
0

>  <nBondsA>
0

>  <nBondsM>
4

>  <nBondsKS>
66

>  <nBondsKD>
4

>  <RNCG>
0.17

>  <RPCG>
0.12

>  <FCSP3>
0.8

>  <SZ>
39

>  <Sm>
36.01

>  <Sv>
39.04

>  <Sse>
66.97

>  <Sp>
42.26

>  <Si>
75.73

>  <MZ>
0.58

>  <Mm>
0.54

>  <Mv>
0.58

>  <Mse>
1

>  <Mp>
0.63

>  <Mi>
1.13

>  <NsCH3>
3

>  <NdCH2>
0

>  <NssCH2>
10

>  <NtCH>
0

>  <NdsCH>
1

>  <NaaCH>
0

>  <NsssCH>
4

>  <NddC>
0

>  <NtsC>
0

>  <NdssC>
4

>  <NaasC>
0

>  <NaaaC>
0

>  <NssssC>
3

>  <NsNH3>
0

>  <NsNH2>
0

>  <NssNH2>
0

>  <NdNH>
0

>  <NssNH>
0

>  <NaaNH>
0

>  <NtN>
0

>  <NsssNH>
0

>  <NdsN>
0

>  <NaaN>
0

>  <NsssN>
0

>  <NddsN>
0

>  <NaasN>
0

>  <NssssN>
0

>  <NsOH>
2

>  <NdO>
3

>  <NssO>
1

>  <NaaO>
0

>  <NsF>
0

>  <NsSiH3>
0

>  <NssSiH2>
0

>  <NsssSiH>
0

>  <NssssSi>
0

>  <NsPH2>
0

>  <NssPH>
0

>  <NsssP>
0

>  <NdsssP>
0

>  <NsssssP>
0

>  <NsSH>
0

>  <NdS>
0

>  <NssS>
0

>  <NaaS>
0

>  <NdssS>
0

>  <NddssS>
0

>  <NsCl>
0

>  <NsBr>
0

>  <NsI>
0

>  <fragCpx>
226.06

>  <fMF>
0.25

>  <nHBAcc>
6

>  <nHBDon>
2

>  <Kier1>
24.13

>  <Kier2>
8.65

>  <Lipinski>
1

>  <GhoseFilter>
1

>  <FilterItLogS>
-4.04

>  <VMcGowan>
337.69

>  <LabuteASA>
183.97

>  <PEOE_VSA1>
14.95

>  <PEOE_VSA2>
14.38

>  <PEOE_VSA3>
0

>  <PEOE_VSA4>
0

>  <PEOE_VSA5>
0

>  <PEOE_VSA6>
26.34

>  <PEOE_VSA7>
74.19

>  <PEOE_VSA8>
18.26

>  <PEOE_VSA9>
6.1

>  <PEOE_VSA10>
6.61

>  <PEOE_VSA11>
11.38

>  <PEOE_VSA12>
5.78

>  <PEOE_VSA13>
0

>  <SMR_VSA1>
29.33

>  <SMR_VSA2>
0

>  <SMR_VSA3>
0

>  <SMR_VSA4>
28.58

>  <SMR_VSA5>
90.26

>  <SMR_VSA6>
6.61

>  <SMR_VSA7>
11.65

>  <SMR_VSA8>
0

>  <SMR_VSA9>
0

>  <SlogP_VSA1>
0

>  <SlogP_VSA2>
46.06

>  <SlogP_VSA3>
19.12

>  <SlogP_VSA4>
28.58

>  <SlogP_VSA5>
78.56

>  <SlogP_VSA6>
11.65

>  <SlogP_VSA7>
0

>  <SlogP_VSA8>
0

>  <SlogP_VSA9>
0

>  <SlogP_VSA10>
0

>  <SlogP_VSA11>
0

>  <EState_VSA1>
35.48

>  <EState_VSA2>
35.37

>  <EState_VSA3>
25.68

>  <EState_VSA4>
31.26

>  <EState_VSA5>
0

>  <EState_VSA6>
6.08

>  <EState_VSA7>
13.85

>  <EState_VSA8>
6.92

>  <EState_VSA9>
4.74

>  <EState_VSA10>
24.6

>  <VSA_EState1>
5.92

>  <VSA_EState2>
37.63

>  <VSA_EState3>
21.27

>  <VSA_EState4>
-1.12

>  <VSA_EState5>
-0.32

>  <VSA_EState6>
0

>  <VSA_EState7>
6.48

>  <VSA_EState8>
5.39

>  <VSA_EState9>
0

>  <apol>
70.57

>  <bpol>
40.46

>  <nRing>
4

>  <nHRing>
0

>  <naRing>
0

>  <naHRing>
0

>  <nARing 2>
4

>  <nAHRing 2>
0

>  <nFRing>
1

>  <nFHRing>
0

>  <nFaRing>
0

>  <nFaHRing>
0

>  <nFARing 2>
1

>  <nFAHRing 2>
0

>  <nRot>
5

>  <SLogP>
3.13

>  <SMR>
113.92

>  <TopoPSA(NO)>
100.9

>  <TopoPSA>
100.9

>  <JGI1>
0.28

>  <JGI2>
0.13

>  <JGI3>
0.07

>  <JGI4>
0.06

>  <JGI5>
0.03

>  <Diameter>
14

>  <Radius>
7

>  <TMWC10>
146.19

>  <TSRW10>
82.75

>  <MW>
432.25

>  <AMW>
6.45

>  <WPath>
2357

>  <WPol>
67

>  <Zagreb1>
176

>  <Zagreb2>
223

>  <mZagreb2>
6.73

>  <yes>


>  <nAR-cont>
0.199399

>  <nHA-cont>
0.702745138

>  <MWHBN>
0.384788856

>  <MWHBN-cont>
0.535986411

>  <TPSA-cont>
0.295655345

>  <pka_cont>
0.97

>  <yes.1>


>  <BBB_SCORE>
2.782434444

>  <MMFF94 Energy>
109.72

$$$$
Compound 1126
Actelion Java MolfileCreator 2.0

  0  0  0  0  0  0              0 V3000
M  V30 BEGIN CTAB
M  V30 COUNTS 75 78 0 0 0
M  V30 BEGIN ATOM
M  V30 1 O -6.1038 -3.691 0.0801 0
M  V30 2 C -4.8811 -3.5952 0.1427 0
M  V30 3 C -4.0535 -4.0079 -1.0148 0
M  V30 4 C -4.178 -2.9615 1.3159 0
M  V30 5 C -2.7106 -3.9761 -0.9556 0
M  V30 6 C -2.8487 -3.6571 1.5515 0
M  V30 7 C -1.9076 -3.6518 0.3128 0 CFG=2
M  V30 8 C -1.8908 -4.1149 -2.2132 0
M  V30 9 C -1.2471 -2.2483 0.0358 0 CFG=1
M  V30 10 C -0.8763 -4.7792 0.5741 0
M  V30 11 C -1.1745 -2.7918 -2.4848 0
M  V30 12 C -0.4949 -1.6024 1.2322 0 CFG=1
M  V30 13 C -0.3744 -2.2696 -1.2708 0 CFG=1
M  V30 14 O 0.4835 -2.4855 1.7564 0
M  V30 15 C 0.1632 -0.248 0.8846 0
M  V30 16 C 0.1454 -0.8484 -1.5325 0 CFG=1
M  V30 17 C 1.031 -0.2845 -0.3951 0 CFG=1
M  V30 18 C 0.9759 -0.6002 -2.7836 0
M  V30 19 C 1.4135 1.117 -1.0193 0 CFG=1
M  V30 20 C 2.3098 -1.1328 -0.1481 0
M  V30 21 C 1.6792 0.7444 -2.5161 0
M  V30 22 O 0.2347 1.9581 -0.9512 0
M  V30 23 C 2.6615 1.7361 -0.3248 0
M  V30 24 C 0.2967 3.2184 -1.4652 0
M  V30 25 O 3.8075 1.5078 -0.723 0
M  V30 26 C 2.4094 2.5879 0.9154 0
M  V30 27 O 1.3104 3.7363 -1.9041 0
M  V30 28 C -1.0638 3.866 -1.3781 0
M  V30 29 O 3.5741 2.6325 1.7403 0
M  V30 30 C -1.06 5.277 -1.9594 0
M  V30 31 C 3.394 3.3023 2.9107 0
M  V30 32 C -2.4343 5.9198 -1.8711 0
M  V30 33 O 2.334 3.7915 3.2747 0
M  V30 34 C 4.6917 3.3341 3.6805 0
M  V30 35 C 4.5554 4.0812 4.9955 0
M  V30 36 H -4.6012 -4.2268 -1.9246 0
M  V30 37 H -4.8094 -3.0777 2.2036 0
M  V30 38 H -4.0518 -1.892 1.1216 0
M  V30 39 H -2.3546 -3.2257 2.4281 0
M  V30 40 H -3.0706 -4.699 1.8275 0
M  V30 41 H -1.1701 -4.9335 -2.1174 0
M  V30 42 H -2.52 -4.3627 -3.0766 0
M  V30 43 H -2.0749 -1.5519 -0.1765 0
M  V30 44 H -0.0358 -4.7698 -0.1241 0
M  V30 45 H -1.349 -5.7662 0.4903 0
M  V30 46 H -0.4606 -4.7212 1.5853 0
M  V30 47 H -0.5055 -2.9243 -3.3432 0
M  V30 48 H -1.9182 -2.0398 -2.7818 0
M  V30 49 H -1.2108 -1.4135 2.0398 0
M  V30 50 H 0.4757 -2.9445 -1.1347 0
M  V30 51 H 0.85 -2.0873 2.5652 0
M  V30 52 H -0.6426 0.4868 0.7714 0
M  V30 53 H 0.7758 0.08 1.7321 0
M  V30 54 H -0.7494 -0.2123 -1.6294 0
M  V30 55 H 0.3543 -0.5466 -3.6834 0
M  V30 56 H 1.7146 -1.394 -2.941 0
M  V30 57 H 2.8436 -0.7764 0.7403 0
M  V30 58 H 3.0122 -1.0884 -0.9863 0
M  V30 59 H 2.101 -2.1918 0.0117 0
M  V30 60 H 1.2803 1.4956 -3.2055 0
M  V30 61 H 2.7447 0.6376 -2.7446 0
M  V30 62 H 2.1606 3.6033 0.5934 0
M  V30 63 H 1.5802 2.1563 1.4811 0
M  V30 64 H -1.3589 3.8995 -0.3234 0
M  V30 65 H -1.7754 3.2405 -1.9287 0
M  V30 66 H -0.3338 5.9003 -1.4239 0
M  V30 67 H -0.7399 5.2488 -3.0078 0
M  V30 68 H -2.4085 6.9296 -2.2926 0
M  V30 69 H -3.176 5.3382 -2.4278 0
M  V30 70 H -2.7664 5.9946 -0.8306 0
M  V30 71 H 5.45 3.825 3.0616 0
M  V30 72 H 5.0024 2.3031 3.8789 0
M  V30 73 H 5.5101 4.0896 5.5301 0
M  V30 74 H 3.8061 3.6096 5.6399 0
M  V30 75 H 4.2473 5.1187 4.8282 0
M  V30 END ATOM
M  V30 BEGIN BOND
M  V30 1 2 1 2
M  V30 2 1 2 3
M  V30 3 1 2 4
M  V30 4 2 3 5
M  V30 5 1 4 6
M  V30 6 1 5 7
M  V30 7 1 5 8
M  V30 8 1 7 9
M  V30 9 1 7 10
M  V30 10 1 8 11
M  V30 11 1 9 12
M  V30 12 1 9 13
M  V30 13 1 12 14
M  V30 14 1 12 15
M  V30 15 1 13 16
M  V30 16 1 15 17
M  V30 17 1 16 18
M  V30 18 1 17 19
M  V30 19 1 17 20
M  V30 20 1 18 21
M  V30 21 1 19 22
M  V30 22 1 19 23
M  V30 23 1 22 24
M  V30 24 2 23 25
M  V30 25 1 23 26
M  V30 26 2 24 27
M  V30 27 1 24 28
M  V30 28 1 26 29
M  V30 29 1 28 30
M  V30 30 1 29 31
M  V30 31 1 30 32
M  V30 32 2 31 33
M  V30 33 1 31 34
M  V30 34 1 34 35
M  V30 35 1 6 7
M  V30 36 1 11 13
M  V30 37 1 16 17
M  V30 38 1 19 21
M  V30 39 1 3 36
M  V30 40 1 4 37
M  V30 41 1 4 38
M  V30 42 1 6 39
M  V30 43 1 6 40
M  V30 44 1 8 41
M  V30 45 1 8 42
M  V30 46 1 9 43
M  V30 47 1 10 44
M  V30 48 1 10 45
M  V30 49 1 10 46
M  V30 50 1 11 47
M  V30 51 1 11 48
M  V30 52 1 12 49
M  V30 53 1 13 50
M  V30 54 1 14 51
M  V30 55 1 15 52
M  V30 56 1 15 53
M  V30 57 1 16 54
M  V30 58 1 18 55
M  V30 59 1 18 56
M  V30 60 1 20 57
M  V30 61 1 20 58
M  V30 62 1 20 59
M  V30 63 1 21 60
M  V30 64 1 21 61
M  V30 65 1 26 62
M  V30 66 1 26 63
M  V30 67 1 28 64
M  V30 68 1 28 65
M  V30 69 1 30 66
M  V30 70 1 30 67
M  V30 71 1 32 68
M  V30 72 1 32 69
M  V30 73 1 32 70
M  V30 74 1 34 71
M  V30 75 1 34 72
M  V30 76 1 35 73
M  V30 77 1 35 74
M  V30 78 1 35 75
M  V30 END BOND
M  V30 BEGIN COLLECTION
M  V30 MDLV30/STEABS ATOMS=(7 7 9 12 13 16 17 19)
M  V30 END COLLECTION
M  V30 END CTAB
M  END
>  <Column 1>
1333

>  <level_0>
1480

>  <index>
1480

>  <Unnamed: 0>
1480

>  <NO.>
1492

>  <Name>
hydrocortisone-buteprate

>  <IUPAC_name>
[(8s-9s-10r-11s-13s-14s-17r)-11-hydroxy-10-13-dimethyl-3-oxo-17-(2-propanoyloxyacetyl)-2-6-7-8-9-11-12-14-15-16-decahydro-1h-cyclopenta[a]phenanthren-17-yl] butanoate

>  <SMILES>
CCCC(=O)O[C@]1(C(=O)COC(=O)CC)CC[C@H]2[C@@H]3CCC4=CC(=O)CC[C@]4(C)[C@H]3[C@@H](O)C[C@@]21C

>  <CID>
636398

>  <logBB>


>  <BBB+/BBB->
BBB+

>  <Inchi>
InChI=1S/C28H40O7/c1-5-7-24(33)35-28(22(31)16-34-23(32)6-2)13-11-20-19-9-8-17-14-18(29)10-12-26(17-3)25(19)21(30)15-27(20-28)4/h14-19-21-25-30H-5-13-15-16H2-1-4H3/t19--20--21--25+-26--27--28-/m0/s1

>  <threshold>
-1

>  <reference>
R1|R27|R30|

>  <group>
B

>  <Class>
1

>  <ABC>
27.27

>  <ABCGG>
22.19

>  <nAcid>
0

>  <nBase>
0

>  <nAromAtom>
0

>  <nAromBond>
0

>  <nAtom>
75

>  <nHeavyAtom>
35

>  <nSpiro>
0

>  <nBridgehead>
0

>  <nHetero>
7

>  <nN>
0

>  <nO>
7

>  <nF>
0

>  <BalabanJ>
1.65

>  <BertzCT>
937.59

>  <nBonds>
78

>  <nBondsO>
38

>  <nBondsS>
73

>  <nBondsD>
5

>  <nBondsT>
0

>  <nBondsA>
0

>  <nBondsM>
5

>  <nBondsKS>
73

>  <nBondsKD>
5

>  <RNCG>
0.15

>  <RPCG>
0.1

>  <FCSP3>
0.79

>  <SZ>
44

>  <Sm>
40.68

>  <Sv>
43.84

>  <Sse>
75.07

>  <Sp>
47.33

>  <Si>
84.77

>  <MZ>
0.59

>  <Mm>
0.54

>  <Mv>
0.58

>  <Mse>
1

>  <Mp>
0.63

>  <Mi>
1.13

>  <NsCH3>
4

>  <NdCH2>
0

>  <NssCH2>
11

>  <NtCH>
0

>  <NdsCH>
1

>  <NaaCH>
0

>  <NsssCH>
4

>  <NddC>
0

>  <NtsC>
0

>  <NdssC>
5

>  <NaasC>
0

>  <NaaaC>
0

>  <NssssC>
3

>  <NsNH3>
0

>  <NsNH2>
0

>  <NssNH2>
0

>  <NdNH>
0

>  <NssNH>
0

>  <NaaNH>
0

>  <NtN>
0

>  <NsssNH>
0

>  <NdsN>
0

>  <NaaN>
0

>  <NsssN>
0

>  <NddsN>
0

>  <NaasN>
0

>  <NssssN>
0

>  <NsOH>
1

>  <NdO>
4

>  <NssO>
2

>  <NaaO>
0

>  <NsF>
0

>  <NsSiH3>
0

>  <NssSiH2>
0

>  <NsssSiH>
0

>  <NssssSi>
0

>  <NsPH2>
0

>  <NssPH>
0

>  <NsssP>
0

>  <NdsssP>
0

>  <NsssssP>
0

>  <NsSH>
0

>  <NdS>
0

>  <NssS>
0

>  <NaaS>
0

>  <NdssS>
0

>  <NddssS>
0

>  <NsCl>
0

>  <NsBr>
0

>  <NsI>
0

>  <fragCpx>
254.07

>  <fMF>
0.23

>  <nHBAcc>
7

>  <nHBDon>
1

>  <Kier1>
28.02

>  <Kier2>
10.64

>  <Lipinski>
1

>  <GhoseFilter>
0

>  <FilterItLogS>
-5.03

>  <VMcGowan>
381.53

>  <LabuteASA>
207.55

>  <PEOE_VSA1>
14.58

>  <PEOE_VSA2>
19.18

>  <PEOE_VSA3>
0

>  <PEOE_VSA4>
0

>  <PEOE_VSA5>
0

>  <PEOE_VSA6>
33.27

>  <PEOE_VSA7>
74.19

>  <PEOE_VSA8>
24.68

>  <PEOE_VSA9>
6.1

>  <PEOE_VSA10>
0

>  <PEOE_VSA11>
17.99

>  <PEOE_VSA12>
5.78

>  <PEOE_VSA13>
0

>  <SMR_VSA1>
33.76

>  <SMR_VSA2>
0

>  <SMR_VSA3>
0

>  <SMR_VSA4>
28.58

>  <SMR_VSA5>
103.61

>  <SMR_VSA6>
6.61

>  <SMR_VSA7>
11.65

>  <SMR_VSA8>
0

>  <SMR_VSA9>
0

>  <SlogP_VSA1>
0

>  <SlogP_VSA2>
46.92

>  <SlogP_VSA3>
28.65

>  <SlogP_VSA4>
28.58

>  <SlogP_VSA5>
91.9

>  <SlogP_VSA6>
11.65

>  <SlogP_VSA7>
0

>  <SlogP_VSA8>
0

>  <SlogP_VSA9>
0

>  <SlogP_VSA10>
0

>  <SlogP_VSA11>
0

>  <EState_VSA1>
35.67

>  <EState_VSA2>
47.58

>  <EState_VSA3>
32.1

>  <EState_VSA4>
24.84

>  <EState_VSA5>
0

>  <EState_VSA6>
13

>  <EState_VSA7>
13.85

>  <EState_VSA8>
6.92

>  <EState_VSA9>
9.47

>  <EState_VSA10>
24.28

>  <VSA_EState1>
11.27

>  <VSA_EState2>
50.39

>  <VSA_EState3>
11.65

>  <VSA_EState4>
-1.25

>  <VSA_EState5>
-0.85

>  <VSA_EState6>
0

>  <VSA_EState7>
6.41

>  <VSA_EState8>
7.3

>  <VSA_EState9>
0

>  <apol>
79.05

>  <bpol>
47.07

>  <nRing>
4

>  <nHRing>
0

>  <naRing>
0

>  <naHRing>
0

>  <nARing 2>
4

>  <nAHRing 2>
0

>  <nFRing>
1

>  <nFHRing>
0

>  <nFaRing>
0

>  <nFaHRing>
0

>  <nFARing 2>
1

>  <nFAHRing 2>
0

>  <nRot>
7

>  <SLogP>
4.09

>  <SMR>
128.09

>  <TopoPSA(NO)>
106.97

>  <TopoPSA>
106.97

>  <JGI1>
0.28

>  <JGI2>
0.13

>  <JGI3>
0.07

>  <JGI4>
0.05

>  <JGI5>
0.03

>  <Diameter>
15

>  <Radius>
8

>  <TMWC10>
154.7

>  <TSRW10>
87.11

>  <MW>
488.28

>  <AMW>
6.51

>  <WPath>
3383

>  <WPol>
72

>  <Zagreb1>
194

>  <Zagreb2>
242

>  <mZagreb2>
7.65

>  <yes>


>  <nAR-cont>
0.199399

>  <nHA-cont>
0.523063577

>  <MWHBN>
0.362039135

>  <MWHBN-cont>
0.624610755

>  <TPSA-cont>
0.253282976

>  <pka_cont>
0.97

>  <yes.1>


>  <BBB_SCORE>
2.650944661

>  <MMFF94 Energy>
85.518

$$$$
Compound 1127
Actelion Java MolfileCreator 2.0

  0  0  0  0  0  0              0 V3000
M  V30 BEGIN CTAB
M  V30 COUNTS 70 73 0 0 0
M  V30 BEGIN ATOM
M  V30 1 F 0.0 -2.4259 0.404 0
M  V30 2 C 1.035 -2.0536 -0.4407 0 CFG=2
M  V30 3 C 1.9063 -3.3577 -0.6706 0 CFG=2
M  V30 4 C 1.7519 -0.8843 0.3022 0 CFG=1
M  V30 5 C 0.3452 -1.57 -1.7597 0 CFG=2
M  V30 6 C 1.0097 -4.4083 -1.35 0
M  V30 7 C 2.4511 -3.8865 0.6564 0
M  V30 8 C 3.1409 -3.1349 -1.5749 0
M  V30 9 O 2.9723 -0.5133 -0.3282 0
M  V30 10 C 0.8594 0.3682 0.4717 0
M  V30 11 C -0.5578 -0.369 -1.4375 0 CFG=1
M  V30 12 C -0.4761 -2.7035 -2.3982 0
M  V30 13 C 0.7708 -5.6298 -0.8387 0
M  V30 14 C 0.3485 -3.9625 -2.6282 0 CFG=2
M  V30 15 C 2.2086 -5.1036 1.1607 0
M  V30 16 C 0.1988 0.843 -0.8433 0 CFG=1
M  V30 17 C -1.3791 0.2462 -2.5624 0
M  V30 18 C 1.3568 -6.0696 0.4422 0
M  V30 19 F -0.4892 -4.921 -3.1174 0
M  V30 20 C -1.0 1.8638 -0.6937 0 CFG=1
M  V30 21 C 1.2777 1.4112 -1.8073 0
M  V30 22 C -1.7921 1.63 -2.0227 0
M  V30 23 O 1.1478 -7.1888 0.892 0
M  V30 24 O -1.8102 1.4157 0.4197 0
M  V30 25 C -0.4926 3.3274 -0.544 0
M  V30 26 C -2.9363 2.1099 0.7354 0
M  V30 27 O -0.2818 4.0449 -1.5262 0
M  V30 28 C -0.1958 3.8141 0.8714 0
M  V30 29 O -3.288 3.1477 0.1968 0
M  V30 30 C -3.6615 1.4485 1.8762 0
M  V30 31 O 0.7437 4.8891 0.8465 0
M  V30 32 C -2.9694 1.7521 3.1988 0
M  V30 33 C 1.1276 5.3093 2.0797 0
M  V30 34 C -3.7037 1.1208 4.3696 0
M  V30 35 O 0.7699 4.8067 3.1358 0
M  V30 36 C 2.0664 6.4701 1.9631 0
M  V30 37 H 2.0086 -1.2191 1.3139 0
M  V30 38 H 1.1068 -1.2699 -2.4862 0
M  V30 39 H 3.1102 -3.2311 1.2219 0
M  V30 40 H 2.9042 -2.5691 -2.4808 0
M  V30 41 H 3.9461 -2.602 -1.0577 0
M  V30 42 H 3.5708 -4.0921 -1.8988 0
M  V30 43 H 3.4135 0.1483 0.2349 0
M  V30 44 H 1.4593 1.1828 0.8937 0
M  V30 45 H 0.0891 0.1245 1.2134 0
M  V30 46 H -1.2873 -0.7272 -0.6934 0
M  V30 47 H -0.8903 -2.3797 -3.3606 0
M  V30 48 H -1.3432 -2.9484 -1.7699 0
M  V30 49 H 0.1227 -6.3511 -1.3257 0
M  V30 50 H 1.104 -3.7878 -3.4011 0
M  V30 51 H 2.6276 -5.4402 2.1014 0
M  V30 52 H -2.2591 -0.3587 -2.805 0
M  V30 53 H -0.79 0.3528 -3.4802 0
M  V30 54 H 0.8437 1.8726 -2.7 0
M  V30 55 H 1.9731 0.6528 -2.171 0
M  V30 56 H 1.8776 2.1792 -1.3055 0
M  V30 57 H -2.8755 1.6391 -1.8646 0
M  V30 58 H -1.5758 2.3862 -2.7846 0
M  V30 59 H -1.1295 4.1667 1.3196 0
M  V30 60 H 0.2148 2.9852 1.4534 0
M  V30 61 H -3.7135 0.3704 1.686 0
M  V30 62 H -4.6936 1.8178 1.8822 0
M  V30 63 H -1.9371 1.3824 3.1774 0
M  V30 64 H -2.9096 2.837 3.3482 0
M  V30 65 H -3.1899 1.3511 5.3082 0
M  V30 66 H -4.728 1.5005 4.4412 0
M  V30 67 H -3.7469 0.032 4.2641 0
M  V30 68 H 2.9734 6.1615 1.4376 0
M  V30 69 H 1.5761 7.2922 1.4354 0
M  V30 70 H 2.3415 6.8155 2.9638 0
M  V30 END ATOM
M  V30 BEGIN BOND
M  V30 1 1 1 2
M  V30 2 1 2 3
M  V30 3 1 2 4
M  V30 4 1 2 5
M  V30 5 1 3 6
M  V30 6 1 3 7
M  V30 7 1 3 8
M  V30 8 1 4 9
M  V30 9 1 4 10
M  V30 10 1 5 11
M  V30 11 1 5 12
M  V30 12 2 6 13
M  V30 13 1 6 14
M  V30 14 2 7 15
M  V30 15 1 10 16
M  V30 16 1 11 17
M  V30 17 1 13 18
M  V30 18 1 14 19
M  V30 19 1 16 20
M  V30 20 1 16 21
M  V30 21 1 17 22
M  V30 22 2 18 23
M  V30 23 1 20 24
M  V30 24 1 20 25
M  V30 25 1 24 26
M  V30 26 2 25 27
M  V30 27 1 25 28
M  V30 28 2 26 29
M  V30 29 1 26 30
M  V30 30 1 28 31
M  V30 31 1 30 32
M  V30 32 1 31 33
M  V30 33 1 32 34
M  V30 34 2 33 35
M  V30 35 1 33 36
M  V30 36 1 11 16
M  V30 37 1 12 14
M  V30 38 1 15 18
M  V30 39 1 20 22
M  V30 40 1 4 37
M  V30 41 1 5 38
M  V30 42 1 7 39
M  V30 43 1 8 40
M  V30 44 1 8 41
M  V30 45 1 8 42
M  V30 46 1 9 43
M  V30 47 1 10 44
M  V30 48 1 10 45
M  V30 49 1 11 46
M  V30 50 1 12 47
M  V30 51 1 12 48
M  V30 52 1 13 49
M  V30 53 1 14 50
M  V30 54 1 15 51
M  V30 55 1 17 52
M  V30 56 1 17 53
M  V30 57 1 21 54
M  V30 58 1 21 55
M  V30 59 1 21 56
M  V30 60 1 22 57
M  V30 61 1 22 58
M  V30 62 1 28 59
M  V30 63 1 28 60
M  V30 64 1 30 61
M  V30 65 1 30 62
M  V30 66 1 32 63
M  V30 67 1 32 64
M  V30 68 1 34 65
M  V30 69 1 34 66
M  V30 70 1 34 67
M  V30 71 1 36 68
M  V30 72 1 36 69
M  V30 73 1 36 70
M  V30 END BOND
M  V30 BEGIN COLLECTION
M  V30 MDLV30/STEABS ATOMS=(8 2 3 4 5 11 14 16 20)
M  V30 END COLLECTION
M  V30 END CTAB
M  END
>  <Column 1>
1334

>  <level_0>
1482

>  <index>
1482

>  <Unnamed: 0>
1482

>  <NO.>
1494

>  <Name>
difluprednate

>  <IUPAC_name>
[(6s-8s-9r-10s-11s-13s-14s-17r)-17-(2-acetyloxyacetyl)-6-9-difluoro-11-hydroxy-10-13-dimethyl-3-oxo-6-7-8-11-12-14-15-16-octahydrocyclopenta[a]phenanthren-17-yl] butanoate

>  <SMILES>
CCCC(=O)O[C@]1(C(=O)COC(C)=O)CC[C@H]2[C@@H]3C[C@H](F)C4=CC(=O)C=C[C@]4(C)[C@@]3(F)[C@@H](O)C[C@@]21C

>  <CID>
443936

>  <logBB>


>  <BBB+/BBB->
BBB+

>  <Inchi>
InChI=1S/C27H34F2O7/c1-5-6-23(34)36-26(22(33)14-35-15(2)30)10-8-17-18-12-20(28)19-11-16(31)7-9-24(19-3)27(18-29)21(32)13-25(17-26)4/h7-9-11-17-18-20-21-32H-5-6-8-10-12-14H2-1-4H3/t17--18--20--21--24--25--26--27-/m0/s1

>  <threshold>
-1

>  <reference>
R1|R27|R30|

>  <group>
B

>  <Class>
1

>  <ABC>
28.24

>  <ABCGG>
23.45

>  <nAcid>
0

>  <nBase>
0

>  <nAromAtom>
0

>  <nAromBond>
0

>  <nAtom>
70

>  <nHeavyAtom>
36

>  <nSpiro>
0

>  <nBridgehead>
0

>  <nHetero>
9

>  <nN>
0

>  <nO>
7

>  <nF>
2

>  <BalabanJ>
1.74

>  <BertzCT>
1052.72

>  <nBonds>
73

>  <nBondsO>
39

>  <nBondsS>
67

>  <nBondsD>
6

>  <nBondsT>
0

>  <nBondsA>
0

>  <nBondsM>
6

>  <nBondsKS>
67

>  <nBondsKD>
6

>  <RNCG>
0.14

>  <RPCG>
0.09

>  <FCSP3>
0.7

>  <SZ>
45

>  <Sm>
42.34

>  <Sv>
42.51

>  <Sse>
71.32

>  <Sp>
44.6

>  <Si>
79.62

>  <MZ>
0.64

>  <Mm>
0.6

>  <Mv>
0.61

>  <Mse>
1.02

>  <Mp>
0.64

>  <Mi>
1.14

>  <NsCH3>
4

>  <NdCH2>
0

>  <NssCH2>
7

>  <NtCH>
0

>  <NdsCH>
3

>  <NaaCH>
0

>  <NsssCH>
4

>  <NddC>
0

>  <NtsC>
0

>  <NdssC>
5

>  <NaasC>
0

>  <NaaaC>
0

>  <NssssC>
4

>  <NsNH3>
0

>  <NsNH2>
0

>  <NssNH2>
0

>  <NdNH>
0

>  <NssNH>
0

>  <NaaNH>
0

>  <NtN>
0

>  <NsssNH>
0

>  <NdsN>
0

>  <NaaN>
0

>  <NsssN>
0

>  <NddsN>
0

>  <NaasN>
0

>  <NssssN>
0

>  <NsOH>
1

>  <NdO>
4

>  <NssO>
2

>  <NaaO>
0

>  <NsF>
2

>  <NsSiH3>
0

>  <NssSiH2>
0

>  <NsssSiH>
0

>  <NssssSi>
0

>  <NsPH2>
0

>  <NssPH>
0

>  <NsssP>
0

>  <NdsssP>
0

>  <NsssssP>
0

>  <NsSH>
0

>  <NdS>
0

>  <NssS>
0

>  <NaaS>
0

>  <NdssS>
0

>  <NddssS>
0

>  <NsCl>
0

>  <NsBr>
0

>  <NsI>
0

>  <fragCpx>
261.09

>  <fMF>
0.24

>  <nHBAcc>
7

>  <nHBDon>
1

>  <Kier1>
28.99

>  <Kier2>
10.19

>  <Lipinski>
0

>  <GhoseFilter>
0

>  <FilterItLogS>
-4.69

>  <VMcGowan>
366.66

>  <LabuteASA>
208.82

>  <PEOE_VSA1>
14.58

>  <PEOE_VSA2>
19.18

>  <PEOE_VSA3>
8.78

>  <PEOE_VSA4>
0

>  <PEOE_VSA5>
0

>  <PEOE_VSA6>
19.92

>  <PEOE_VSA7>
62.67

>  <PEOE_VSA8>
30.09

>  <PEOE_VSA9>
6.1

>  <PEOE_VSA10>
6.17

>  <PEOE_VSA11>
23.66

>  <PEOE_VSA12>
5.78

>  <PEOE_VSA13>
0

>  <SMR_VSA1>
42.54

>  <SMR_VSA2>
0

>  <SMR_VSA3>
0

>  <SMR_VSA4>
22.67

>  <SMR_VSA5>
89.77

>  <SMR_VSA6>
6.61

>  <SMR_VSA7>
23.8

>  <SMR_VSA8>
0

>  <SMR_VSA9>
0

>  <SlogP_VSA1>
0

>  <SlogP_VSA2>
58.76

>  <SlogP_VSA3>
28.65

>  <SlogP_VSA4>
22.67

>  <SlogP_VSA5>
66.22

>  <SlogP_VSA6>
23.8

>  <SlogP_VSA7>
0

>  <SlogP_VSA8>
0

>  <SlogP_VSA9>
0

>  <SlogP_VSA10>
8.78

>  <SlogP_VSA11>
0

>  <EState_VSA1>
76.32

>  <EState_VSA2>
37.68

>  <EState_VSA3>
6.42

>  <EState_VSA4>
13

>  <EState_VSA5>
19.08

>  <EState_VSA6>
13.85

>  <EState_VSA7>
0

>  <EState_VSA8>
0

>  <EState_VSA9>
9.47

>  <EState_VSA10>
24.28

>  <VSA_EState1>
43.61

>  <VSA_EState2>
49.62

>  <VSA_EState3>
11.42

>  <VSA_EState4>
-6.8

>  <VSA_EState5>
-3.96

>  <VSA_EState6>
0

>  <VSA_EState7>
0.78

>  <VSA_EState8>
5.5

>  <VSA_EState9>
0

>  <apol>
74.49

>  <bpol>
43.28

>  <nRing>
4

>  <nHRing>
0

>  <naRing>
0

>  <naHRing>
0

>  <nARing 2>
4

>  <nAHRing 2>
0

>  <nFRing>
1

>  <nFHRing>
0

>  <nFaRing>
0

>  <nFaHRing>
0

>  <nFARing 2>
1

>  <nFAHRing 2>
0

>  <nRot>
6

>  <SLogP>
3.52

>  <SMR>
124

>  <TopoPSA(NO)>
106.97

>  <TopoPSA>
106.97

>  <JGI1>
0.31

>  <JGI2>
0.14

>  <JGI3>
0.07

>  <JGI4>
0.06

>  <JGI5>
0.03

>  <Diameter>
14

>  <Radius>
7

>  <TMWC10>
157.83

>  <TSRW10>
88.57

>  <MW>
508.23

>  <AMW>
7.26

>  <WPath>
3483

>  <WPol>
80

>  <Zagreb1>
204

>  <Zagreb2>
259

>  <mZagreb2>
7.68

>  <yes>


>  <nAR-cont>
0.199399

>  <nHA-cont>
0.477843619

>  <MWHBN>
0.35486228

>  <MWHBN-cont>
0.65196167

>  <TPSA-cont>
0.253282976

>  <pka_cont>
0.97

>  <yes.1>


>  <BBB_SCORE>
2.646751075

>  <MMFF94 Energy>
119.47

$$$$
Compound 1128
Actelion Java MolfileCreator 2.0

  0  0  0  0  0  0              0 V3000
M  V30 BEGIN CTAB
M  V30 COUNTS 73 76 0 0 0
M  V30 BEGIN ATOM
M  V30 1 Cl 2.9166 0.4856 0.1618 0
M  V30 2 C 2.2715 -0.7423 -1.0844 0 CFG=2
M  V30 3 C 3.5337 -1.3207 -1.8782 0 CFG=2
M  V30 4 C 1.2475 0.0732 -1.9507 0 CFG=1
M  V30 5 C 1.5377 -1.8993 -0.3009 0 CFG=2
M  V30 6 C 4.4147 -2.0993 -0.8789 0
M  V30 7 C 4.3299 -0.2074 -2.5622 0
M  V30 8 C 3.1729 -2.3081 -3.0173 0
M  V30 9 O 0.862 -0.6319 -3.1276 0
M  V30 10 C -0.0409 0.4865 -1.1908 0
M  V30 11 C 0.3115 -1.3542 0.4541 0 CFG=1
M  V30 12 C 2.4922 -2.6666 0.6361 0
M  V30 13 C 5.7144 -1.8252 -0.6661 0
M  V30 14 C 3.7259 -3.19 -0.0964 0
M  V30 15 C 5.6253 0.0562 -2.3444 0
M  V30 16 C -0.7459 -0.6894 -0.4652 0 CFG=1
M  V30 17 C -0.5032 -2.3149 1.3105 0
M  V30 18 C 6.4136 -0.7396 -1.3844 0
M  V30 19 C -1.8357 -0.293 0.6194 0 CFG=1
M  V30 20 C -1.3513 -1.6757 -1.5046 0
M  V30 21 C -1.8694 -1.6064 1.5062 0 CFG=2
M  V30 22 O 7.6011 -0.5107 -1.1927 0
M  V30 23 O -1.2664 0.7995 1.3818 0
M  V30 24 C -3.2263 -0.0095 -0.0376 0
M  V30 25 C -2.1784 -1.4114 2.9873 0
M  V30 26 C -2.0457 1.5914 2.1662 0
M  V30 27 O -4.1596 -0.8138 0.0452 0
M  V30 28 C -3.3577 1.2639 -0.8681 0
M  V30 29 O -3.2619 1.5301 2.2298 0
M  V30 30 C -1.1706 2.567 2.9161 0
M  V30 31 O -4.7254 1.6431 -1.0118 0
M  V30 32 C -1.9828 3.452 3.8576 0
M  V30 33 C -4.9047 2.7667 -1.7521 0
M  V30 34 C -1.0932 4.4252 4.6134 0
M  V30 35 O -4.0077 3.4099 -2.2803 0
M  V30 36 C -6.3605 3.1067 -1.8355 0
M  V30 37 H 1.73 0.9931 -2.3038 0
M  V30 38 H 1.1787 -2.6356 -1.0268 0
M  V30 39 H 3.8053 0.4001 -3.2964 0
M  V30 40 H 2.4334 -3.0553 -2.7167 0
M  V30 41 H 2.7838 -1.7996 -3.9058 0
M  V30 42 H 4.0601 -2.8606 -3.3557 0
M  V30 43 H 0.3547 -0.0214 -3.6931 0
M  V30 44 H -0.734 0.9458 -1.9033 0
M  V30 45 H 0.2209 1.2719 -0.4731 0
M  V30 46 H 0.6884 -0.6029 1.1619 0
M  V30 47 H 2.8021 -2.0328 1.4758 0
M  V30 48 H 1.9697 -3.5233 1.0785 0
M  V30 49 H 6.3218 -2.3717 0.0464 0
M  V30 50 H 4.4047 -3.6422 0.637 0
M  V30 51 H 3.4355 -3.998 -0.7783 0
M  V30 52 H 6.1537 0.8497 -2.8586 0
M  V30 53 H -3.0E-4 -2.5259 2.2606 0
M  V30 54 H -0.6476 -3.2737 0.7987 0
M  V30 55 H -1.9807 -1.143 -2.2258 0
M  V30 56 H -0.5956 -2.2117 -2.0809 0
M  V30 57 H -1.977 -2.4464 -1.0451 0
M  V30 58 H -2.631 -2.2977 1.1239 0
M  V30 59 H -2.2052 -2.3799 3.4993 0
M  V30 60 H -1.4198 -0.8013 3.4873 0
M  V30 61 H -3.158 -0.945 3.1253 0
M  V30 62 H -2.8027 2.0766 -0.3922 0
M  V30 63 H -2.9438 1.0546 -1.8588 0
M  V30 64 H -0.645 3.1878 2.182 0
M  V30 65 H -0.435 1.9936 3.4913 0
M  V30 66 H -2.7329 4.0144 3.2886 0
M  V30 67 H -2.5314 2.8301 4.5751 0
M  V30 68 H -1.6955 5.0491 5.2813 0
M  V30 69 H -0.3553 3.8915 5.2208 0
M  V30 70 H -0.5581 5.0848 3.923 0
M  V30 71 H -6.9031 2.2953 -2.3268 0
M  V30 72 H -6.7578 3.2842 -0.8329 0
M  V30 73 H -6.4863 4.0187 -2.4261 0
M  V30 END ATOM
M  V30 BEGIN BOND
M  V30 1 1 1 2
M  V30 2 1 2 3
M  V30 3 1 2 4
M  V30 4 1 2 5
M  V30 5 1 3 6
M  V30 6 1 3 7
M  V30 7 1 3 8
M  V30 8 1 4 9
M  V30 9 1 4 10
M  V30 10 1 5 11
M  V30 11 1 5 12
M  V30 12 2 6 13
M  V30 13 1 6 14
M  V30 14 2 7 15
M  V30 15 1 10 16
M  V30 16 1 11 17
M  V30 17 1 13 18
M  V30 18 1 16 19
M  V30 19 1 16 20
M  V30 20 1 17 21
M  V30 21 2 18 22
M  V30 22 1 19 23
M  V30 23 1 19 24
M  V30 24 1 21 25
M  V30 25 1 23 26
M  V30 26 2 24 27
M  V30 27 1 24 28
M  V30 28 2 26 29
M  V30 29 1 26 30
M  V30 30 1 28 31
M  V30 31 1 30 32
M  V30 32 1 31 33
M  V30 33 1 32 34
M  V30 34 2 33 35
M  V30 35 1 33 36
M  V30 36 1 11 16
M  V30 37 1 12 14
M  V30 38 1 15 18
M  V30 39 1 19 21
M  V30 40 1 4 37
M  V30 41 1 5 38
M  V30 42 1 7 39
M  V30 43 1 8 40
M  V30 44 1 8 41
M  V30 45 1 8 42
M  V30 46 1 9 43
M  V30 47 1 10 44
M  V30 48 1 10 45
M  V30 49 1 11 46
M  V30 50 1 12 47
M  V30 51 1 12 48
M  V30 52 1 13 49
M  V30 53 1 14 50
M  V30 54 1 14 51
M  V30 55 1 15 52
M  V30 56 1 17 53
M  V30 57 1 17 54
M  V30 58 1 20 55
M  V30 59 1 20 56
M  V30 60 1 20 57
M  V30 61 1 21 58
M  V30 62 1 25 59
M  V30 63 1 25 60
M  V30 64 1 25 61
M  V30 65 1 28 62
M  V30 66 1 28 63
M  V30 67 1 30 64
M  V30 68 1 30 65
M  V30 69 1 32 66
M  V30 70 1 32 67
M  V30 71 1 34 68
M  V30 72 1 34 69
M  V30 73 1 34 70
M  V30 74 1 36 71
M  V30 75 1 36 72
M  V30 76 1 36 73
M  V30 END BOND
M  V30 BEGIN COLLECTION
M  V30 MDLV30/STEABS ATOMS=(8 2 3 4 5 11 16 19 21)
M  V30 END COLLECTION
M  V30 END CTAB
M  END
>  <Column 1>
1335

>  <level_0>
1483

>  <index>
1483

>  <Unnamed: 0>
1483

>  <NO.>
1495

>  <Name>
icometasone-enbutate

>  <IUPAC_name>
[(8s-9r-10s-11s-13s-14s-16r-17r)-17-(2-acetyloxyacetyl)-9-chloro-11-hydroxy-10-13-16-trimethyl-3-oxo-6-7-8-11-12-14-15-16-octahydrocyclopenta[a]phenanthren-17-yl] butanoate

>  <SMILES>
CCCC(=O)O[C@]1(C(=O)COC(C)=O)[C@H](C)C[C@H]2[C@@H]3CCC4=CC(=O)C=C[C@]4(C)[C@@]3(Cl)[C@@H](O)C[C@@]21C

>  <CID>
65877

>  <logBB>


>  <BBB+/BBB->
BBB+

>  <Inchi>
InChI=1S/C28H37ClO7/c1-6-7-24(34)36-28(23(33)15-35-17(3)30)16(2)12-21-20-9-8-18-13-19(31)10-11-25(18-4)27(20-29)22(32)14-26(21-28)5/h10-11-13-16-20-22-32H-6-9-12-14-15H2-1-5H3/t16--20+-21+-22+-25+-26+-27+-28+/m1/s1

>  <threshold>
-1

>  <reference>
R1|R6|R27|R30|

>  <group>
B

>  <Class>
1

>  <ABC>
28.22

>  <ABCGG>
23.33

>  <nAcid>
0

>  <nBase>
0

>  <nAromAtom>
0

>  <nAromBond>
0

>  <nAtom>
73

>  <nHeavyAtom>
36

>  <nSpiro>
0

>  <nBridgehead>
0

>  <nHetero>
8

>  <nN>
0

>  <nO>
7

>  <nF>
0

>  <BalabanJ>
1.75

>  <BertzCT>
1048.5

>  <nBonds>
76

>  <nBondsO>
39

>  <nBondsS>
70

>  <nBondsD>
6

>  <nBondsT>
0

>  <nBondsA>
0

>  <nBondsM>
6

>  <nBondsKS>
70

>  <nBondsKD>
6

>  <RNCG>
0.15

>  <RPCG>
0.1

>  <FCSP3>
0.71

>  <SZ>
46.33

>  <Sm>
43.38

>  <Sv>
44.12

>  <Sse>
73.51

>  <Sp>
47.44

>  <Si>
82.3

>  <MZ>
0.63

>  <Mm>
0.59

>  <Mv>
0.6

>  <Mse>
1.01

>  <Mp>
0.65

>  <Mi>
1.13

>  <NsCH3>
5

>  <NdCH2>
0

>  <NssCH2>
7

>  <NtCH>
0

>  <NdsCH>
3

>  <NaaCH>
0

>  <NsssCH>
4

>  <NddC>
0

>  <NtsC>
0

>  <NdssC>
5

>  <NaasC>
0

>  <NaaaC>
0

>  <NssssC>
4

>  <NsNH3>
0

>  <NsNH2>
0

>  <NssNH2>
0

>  <NdNH>
0

>  <NssNH>
0

>  <NaaNH>
0

>  <NtN>
0

>  <NsssNH>
0

>  <NdsN>
0

>  <NaaN>
0

>  <NsssN>
0

>  <NddsN>
0

>  <NaasN>
0

>  <NssssN>
0

>  <NsOH>
1

>  <NdO>
4

>  <NssO>
2

>  <NaaO>
0

>  <NsF>
0

>  <NsSiH3>
0

>  <NssSiH2>
0

>  <NsssSiH>
0

>  <NssssSi>
0

>  <NsPH2>
0

>  <NssPH>
0

>  <NsssP>
0

>  <NdsssP>
0

>  <NsssssP>
0

>  <NsSH>
0

>  <NdS>
0

>  <NssS>
0

>  <NaaS>
0

>  <NdssS>
0

>  <NddssS>
0

>  <NsCl>
1

>  <NsBr>
0

>  <NsI>
0

>  <fragCpx>
261.08

>  <fMF>
0.23

>  <nHBAcc>
7

>  <nHBDon>
1

>  <Kier1>
28.99

>  <Kier2>
10.19

>  <Lipinski>
0

>  <GhoseFilter>
0

>  <FilterItLogS>
-5.12

>  <VMcGowan>
389.47

>  <LabuteASA>
217.16

>  <PEOE_VSA1>
14.58

>  <PEOE_VSA2>
19.18

>  <PEOE_VSA3>
0

>  <PEOE_VSA4>
0

>  <PEOE_VSA5>
11.6

>  <PEOE_VSA6>
39.34

>  <PEOE_VSA7>
56.09

>  <PEOE_VSA8>
30.09

>  <PEOE_VSA9>
10.98

>  <PEOE_VSA10>
0

>  <PEOE_VSA11>
17.99

>  <PEOE_VSA12>
5.78

>  <PEOE_VSA13>
0

>  <SMR_VSA1>
33.76

>  <SMR_VSA2>
0

>  <SMR_VSA3>
0

>  <SMR_VSA4>
28.58

>  <SMR_VSA5>
89.72

>  <SMR_VSA6>
6.61

>  <SMR_VSA7>
23.8

>  <SMR_VSA8>
0

>  <SMR_VSA9>
0

>  <SlogP_VSA1>
0

>  <SlogP_VSA2>
51.8

>  <SlogP_VSA3>
28.65

>  <SlogP_VSA4>
28.58

>  <SlogP_VSA5>
73.14

>  <SlogP_VSA6>
23.8

>  <SlogP_VSA7>
0

>  <SlogP_VSA8>
0

>  <SlogP_VSA9>
0

>  <SlogP_VSA10>
0

>  <SlogP_VSA11>
0

>  <EState_VSA1>
51.74

>  <EState_VSA2>
36.38

>  <EState_VSA3>
25.68

>  <EState_VSA4>
5.57

>  <EState_VSA5>
13

>  <EState_VSA6>
6.08

>  <EState_VSA7>
33.77

>  <EState_VSA8>
0

>  <EState_VSA9>
21.07

>  <EState_VSA10>
24.28

>  <VSA_EState1>
11.21

>  <VSA_EState2>
49.29

>  <VSA_EState3>
11.79

>  <VSA_EState4>
-2.27

>  <VSA_EState5>
-2.29

>  <VSA_EState6>
0

>  <VSA_EState7>
6.69

>  <VSA_EState8>
8.38

>  <VSA_EState9>
0

>  <apol>
79.23

>  <bpol>
44.57

>  <nRing>
4

>  <nHRing>
0

>  <naRing>
0

>  <naHRing>
0

>  <nARing 2>
4

>  <nAHRing 2>
0

>  <nFRing>
1

>  <nFHRing>
0

>  <nFaRing>
0

>  <nFaHRing>
0

>  <nFARing 2>
1

>  <nFAHRing 2>
0

>  <nRot>
6

>  <SLogP>
4.09

>  <SMR>
133.02

>  <TopoPSA(NO)>
106.97

>  <TopoPSA>
106.97

>  <JGI1>
0.31

>  <JGI2>
0.14

>  <JGI3>
0.08

>  <JGI4>
0.06

>  <JGI5>
0.03

>  <Diameter>
14

>  <Radius>
7

>  <TMWC10>
157.93

>  <TSRW10>
88.83

>  <MW>
520.22

>  <AMW>
7.13

>  <WPath>
3455

>  <WPol>
81

>  <Zagreb1>
204

>  <Zagreb2>
260

>  <mZagreb2>
7.69

>  <yes>


>  <nAR-cont>
0.199399

>  <nHA-cont>
0.477843619

>  <MWHBN>
0.350749019

>  <MWHBN-cont>
0.667447444

>  <TPSA-cont>
0.253282976

>  <pka_cont>
0.97

>  <yes.1>


>  <BBB_SCORE>
2.669979736

>  <MMFF94 Energy>
133.16

$$$$
Compound 1129
Actelion Java MolfileCreator 2.0

  0  0  0  0  0  0              0 V3000
M  V30 BEGIN CTAB
M  V30 COUNTS 67 70 0 0 0
M  V30 BEGIN ATOM
M  V30 1 O -6.3549 0.4815 -2.49 0
M  V30 2 C -5.3389 0.9766 -2.019 0
M  V30 3 C -5.0985 1.0022 -0.5626 0
M  V30 4 C -4.3005 1.5652 -2.8843 0
M  V30 5 C -3.9786 1.5314 -0.039 0
M  V30 6 C -3.186 2.0933 -2.3613 0
M  V30 7 C -2.8549 2.1579 -0.8718 0 CFG=2
M  V30 8 C -3.7345 1.4908 1.4427 0
M  V30 9 C -1.5387 1.3394 -0.5658 0 CFG=1
M  V30 10 C -2.7655 3.6592 -0.5161 0
M  V30 11 C -2.4588 0.7148 1.7414 0
M  V30 12 C -0.2921 1.7993 -1.355 0 CFG=1
M  V30 13 C -1.2226 1.2267 0.9647 0 CFG=1
M  V30 14 O 0.0152 3.159 -1.0903 0
M  V30 15 C 0.9331 0.9225 -1.0687 0
M  V30 16 C 0.0116 0.2888 1.1963 0 CFG=1
M  V30 17 C 1.308 0.7589 0.435 0 CFG=1
M  V30 18 C 0.3129 0.0284 2.6866 0
M  V30 19 C 2.441 -0.3621 0.605 0 CFG=1
M  V30 20 C 1.8159 2.1213 0.9865 0
M  V30 21 C 1.4326 -0.9897 2.8769 0
M  V30 22 O 1.8951 -1.5783 0.0214 0
M  V30 23 C 3.7766 0.1054 -0.0562 0
M  V30 24 C 2.6993 -0.622 2.1154 0
M  V30 25 C 2.6543 -2.7056 -0.057 0
M  V30 26 O 4.6032 0.7875 0.5582 0
M  V30 27 C 4.0398 -0.2375 -1.5032 0
M  V30 28 O 3.8342 -2.7787 0.244 0
M  V30 29 C 1.8108 -3.8358 -0.5969 0
M  V30 30 C 2.5943 -5.1431 -0.6767 0
M  V30 31 C 1.7353 -6.2754 -1.2154 0
M  V30 32 H -5.8762 0.552 0.0436 0
M  V30 33 H -4.4993 1.5581 -3.9489 0
M  V30 34 H -2.4753 2.5468 -3.0487 0
M  V30 35 H -3.6615 2.509 1.8413 0
M  V30 36 H -4.5702 1.0173 1.9727 0
M  V30 37 H -1.7361 0.3088 -0.9065 0
M  V30 38 H -2.1722 4.2246 -1.2434 0
M  V30 39 H -3.7605 4.1238 -0.5083 0
M  V30 40 H -2.323 3.8314 0.4698 0
M  V30 41 H -2.2836 0.7881 2.8203 0
M  V30 42 H -2.6204 -0.3472 1.514 0
M  V30 43 H -0.4924 1.7272 -2.4293 0
M  V30 44 H -0.9903 2.2222 1.3586 0
M  V30 45 H 0.781 3.4119 -1.6351 0
M  V30 46 H 1.7873 1.3461 -1.6096 0
M  V30 47 H 0.7355 -0.0629 -1.5081 0
M  V30 48 H -0.2818 -0.6843 0.774 0
M  V30 49 H 0.5642 0.9655 3.1962 0
M  V30 50 H -0.5662 -0.3771 3.1966 0
M  V30 51 H 2.2451 2.0414 1.9877 0
M  V30 52 H 2.5869 2.5483 0.3359 0
M  V30 53 H 1.0247 2.8691 1.0681 0
M  V30 54 H 1.6633 -1.0803 3.9449 0
M  V30 55 H 1.0819 -1.9773 2.5526 0
M  V30 56 H 3.1636 0.2468 2.5949 0
M  V30 57 H 3.4215 -1.4347 2.2515 0
M  V30 58 H 4.8413 -0.9777 -1.5593 0
M  V30 59 H 3.1513 -0.6356 -1.9957 0
M  V30 60 H 4.3397 0.6705 -2.0339 0
M  V30 61 H 1.4585 -3.5519 -1.5949 0
M  V30 62 H 0.9464 -3.9627 0.0646 0
M  V30 63 H 3.4711 -5.015 -1.3226 0
M  V30 64 H 2.9706 -5.4149 0.3169 0
M  V30 65 H 2.3163 -7.2016 -1.2644 0
M  V30 66 H 0.8687 -6.4516 -0.5701 0
M  V30 67 H 1.3732 -6.0477 -2.223 0
M  V30 END ATOM
M  V30 BEGIN BOND
M  V30 1 2 1 2
M  V30 2 1 2 3
M  V30 3 1 2 4
M  V30 4 2 3 5
M  V30 5 2 4 6
M  V30 6 1 5 7
M  V30 7 1 5 8
M  V30 8 1 7 9
M  V30 9 1 7 10
M  V30 10 1 8 11
M  V30 11 1 9 12
M  V30 12 1 9 13
M  V30 13 1 12 14
M  V30 14 1 12 15
M  V30 15 1 13 16
M  V30 16 1 15 17
M  V30 17 1 16 18
M  V30 18 1 17 19
M  V30 19 1 17 20
M  V30 20 1 18 21
M  V30 21 1 19 22
M  V30 22 1 19 23
M  V30 23 1 19 24
M  V30 24 1 22 25
M  V30 25 2 23 26
M  V30 26 1 23 27
M  V30 27 2 25 28
M  V30 28 1 25 29
M  V30 29 1 29 30
M  V30 30 1 30 31
M  V30 31 1 6 7
M  V30 32 1 11 13
M  V30 33 1 16 17
M  V30 34 1 21 24
M  V30 35 1 3 32
M  V30 36 1 4 33
M  V30 37 1 6 34
M  V30 38 1 8 35
M  V30 39 1 8 36
M  V30 40 1 9 37
M  V30 41 1 10 38
M  V30 42 1 10 39
M  V30 43 1 10 40
M  V30 44 1 11 41
M  V30 45 1 11 42
M  V30 46 1 12 43
M  V30 47 1 13 44
M  V30 48 1 14 45
M  V30 49 1 15 46
M  V30 50 1 15 47
M  V30 51 1 16 48
M  V30 52 1 18 49
M  V30 53 1 18 50
M  V30 54 1 20 51
M  V30 55 1 20 52
M  V30 56 1 20 53
M  V30 57 1 21 54
M  V30 58 1 21 55
M  V30 59 1 24 56
M  V30 60 1 24 57
M  V30 61 1 27 58
M  V30 62 1 27 59
M  V30 63 1 27 60
M  V30 64 1 29 61
M  V30 65 1 29 62
M  V30 66 1 30 63
M  V30 67 1 30 64
M  V30 68 1 31 65
M  V30 69 1 31 66
M  V30 70 1 31 67
M  V30 END BOND
M  V30 BEGIN COLLECTION
M  V30 MDLV30/STEABS ATOMS=(7 7 9 12 13 16 17 19)
M  V30 END COLLECTION
M  V30 END CTAB
M  END
>  <Column 1>
1336

>  <level_0>
1484

>  <index>
1484

>  <Unnamed: 0>
1484

>  <NO.>
1496

>  <Name>
domoprednate

>  <IUPAC_name>
[(1r-4as-4bs-10ar-10bs-11s-12as)-1-acetyl-11-hydroxy-10a-12a-dimethyl-8-oxo-2-3-4-4a-4b-5-6-10b-11-12-decahydrochrysen-1-yl] butanoate

>  <SMILES>
CCCC(=O)O[C@]1(C(C)=O)CCC[C@H]2[C@@H]3CCC4=CC(=O)C=C[C@]4(C)[C@H]3[C@@H](O)C[C@@]21C

>  <CID>
68868

>  <logBB>


>  <BBB+/BBB->
BBB+

>  <Inchi>
InChI=1S/C26H36O5/c1-5-7-22(30)31-26(16(2)27)12-6-8-20-19-10-9-17-14-18(28)11-13-24(17-3)23(19)21(29)15-25(20-26)4/h11-13-14-19-21-23-29H-5-10-12-15H2-1-4H3/t19--20--21--23+-24--25--26-/m0/s1

>  <threshold>
-1

>  <reference>
R1|R6|R27|R30|

>  <group>
B

>  <Class>
1

>  <ABC>
24.44

>  <ABCGG>
19.52

>  <nAcid>
0

>  <nBase>
0

>  <nAromAtom>
0

>  <nAromBond>
0

>  <nAtom>
67

>  <nHeavyAtom>
31

>  <nSpiro>
0

>  <nBridgehead>
0

>  <nHetero>
5

>  <nN>
0

>  <nO>
5

>  <nF>
0

>  <BalabanJ>
1.69

>  <BertzCT>
855.86

>  <nBonds>
70

>  <nBondsO>
34

>  <nBondsS>
65

>  <nBondsD>
5

>  <nBondsT>
0

>  <nBondsA>
0

>  <nBondsM>
5

>  <nBondsKS>
65

>  <nBondsKD>
5

>  <RNCG>
0.19

>  <RPCG>
0.13

>  <FCSP3>
0.73

>  <SZ>
38.67

>  <Sm>
35.68

>  <Sv>
39.33

>  <Sse>
66.63

>  <Sp>
42.78

>  <Si>
75.52

>  <MZ>
0.58

>  <Mm>
0.53

>  <Mv>
0.59

>  <Mse>
0.99

>  <Mp>
0.64

>  <Mi>
1.13

>  <NsCH3>
4

>  <NdCH2>
0

>  <NssCH2>
8

>  <NtCH>
0

>  <NdsCH>
3

>  <NaaCH>
0

>  <NsssCH>
4

>  <NddC>
0

>  <NtsC>
0

>  <NdssC>
4

>  <NaasC>
0

>  <NaaaC>
0

>  <NssssC>
3

>  <NsNH3>
0

>  <NsNH2>
0

>  <NssNH2>
0

>  <NdNH>
0

>  <NssNH>
0

>  <NaaNH>
0

>  <NtN>
0

>  <NsssNH>
0

>  <NdsN>
0

>  <NaaN>
0

>  <NsssN>
0

>  <NddsN>
0

>  <NaasN>
0

>  <NssssN>
0

>  <NsOH>
1

>  <NdO>
3

>  <NssO>
1

>  <NaaO>
0

>  <NsF>
0

>  <NsSiH3>
0

>  <NssSiH2>
0

>  <NsssSiH>
0

>  <NssssSi>
0

>  <NsPH2>
0

>  <NssPH>
0

>  <NsssP>
0

>  <NdsssP>
0

>  <NsssssP>
0

>  <NsSH>
0

>  <NdS>
0

>  <NssS>
0

>  <NaaS>
0

>  <NdssS>
0

>  <NddssS>
0

>  <NsCl>
0

>  <NsBr>
0

>  <NsI>
0

>  <fragCpx>
226.05

>  <fMF>
0.27

>  <nHBAcc>
5

>  <nHBDon>
1

>  <Kier1>
24.13

>  <Kier2>
8.65

>  <Lipinski>
1

>  <GhoseFilter>
1

>  <FilterItLogS>
-4.41

>  <VMcGowan>
341.61

>  <LabuteASA>
184.85

>  <PEOE_VSA1>
9.84

>  <PEOE_VSA2>
14.38

>  <PEOE_VSA3>
0

>  <PEOE_VSA4>
0

>  <PEOE_VSA5>
0

>  <PEOE_VSA6>
32.42

>  <PEOE_VSA7>
75.86

>  <PEOE_VSA8>
23.17

>  <PEOE_VSA9>
6.1

>  <PEOE_VSA10>
0

>  <PEOE_VSA11>
17.17

>  <PEOE_VSA12>
0

>  <PEOE_VSA13>
0

>  <SMR_VSA1>
24.23

>  <SMR_VSA2>
0

>  <SMR_VSA3>
0

>  <SMR_VSA4>
28.58

>  <SMR_VSA5>
90.77

>  <SMR_VSA6>
0

>  <SMR_VSA7>
23.8

>  <SMR_VSA8>
0

>  <SMR_VSA9>
0

>  <SlogP_VSA1>
0

>  <SlogP_VSA2>
34.35

>  <SlogP_VSA3>
19.12

>  <SlogP_VSA4>
28.58

>  <SlogP_VSA5>
79.06

>  <SlogP_VSA6>
23.8

>  <SlogP_VSA7>
0

>  <SlogP_VSA8>
0

>  <SlogP_VSA9>
0

>  <SlogP_VSA10>
0

>  <SlogP_VSA11>
0

>  <EState_VSA1>
17.12

>  <EState_VSA2>
40.7

>  <EState_VSA3>
25.68

>  <EState_VSA4>
31.26

>  <EState_VSA5>
0

>  <EState_VSA6>
19.08

>  <EState_VSA7>
13

>  <EState_VSA8>
13.85

>  <EState_VSA9>
4.74

>  <EState_VSA10>
19.49

>  <VSA_EState1>
6.06

>  <VSA_EState2>
37.67

>  <VSA_EState3>
11.53

>  <VSA_EState4>
-0.98

>  <VSA_EState5>
0.03

>  <VSA_EState6>
0

>  <VSA_EState7>
10.24

>  <VSA_EState8>
7.69

>  <VSA_EState9>
0

>  <apol>
71.43

>  <bpol>
40.46

>  <nRing>
4

>  <nHRing>
0

>  <naRing>
0

>  <naHRing>
0

>  <nARing 2>
4

>  <nAHRing 2>
0

>  <nFRing>
1

>  <nFHRing>
0

>  <nFaRing>
0

>  <nFaHRing>
0

>  <nFARing 2>
1

>  <nFAHRing 2>
0

>  <nRot>
4

>  <SLogP>
4.33

>  <SMR>
117.03

>  <TopoPSA(NO)>
80.67

>  <TopoPSA>
80.67

>  <JGI1>
0.28

>  <JGI2>
0.13

>  <JGI3>
0.07

>  <JGI4>
0.06

>  <JGI5>
0.03

>  <Diameter>
14

>  <Radius>
7

>  <TMWC10>
146.03

>  <TSRW10>
68.18

>  <MW>
428.26

>  <AMW>
6.39

>  <WPath>
2328

>  <WPol>
68

>  <Zagreb1>
176

>  <Zagreb2>
222

>  <mZagreb2>
6.65

>  <yes>


>  <nAR-cont>
0.199399

>  <nHA-cont>
0.702745138

>  <MWHBN>
0.289932896

>  <MWHBN-cont>
0.869736157

>  <TPSA-cont>
0.436873307

>  <pka_cont>
0.97

>  <yes.1>


>  <BBB_SCORE>
3.565494987

>  <MMFF94 Energy>
91.422

$$$$
Compound 1130
Actelion Java MolfileCreator 2.0

  0  0  0  0  0  0              0 V3000
M  V30 BEGIN CTAB
M  V30 COUNTS 41 42 0 0 0
M  V30 BEGIN ATOM
M  V30 1 O 1.5751 -1.4175 -0.3936 0
M  V30 2 C 0.5525 -0.8197 -0.0556 0
M  V30 3 C -0.3797 -1.5106 0.8871 0
M  V30 4 C 0.1895 0.5927 -0.5613 0 CFG=1
M  V30 5 C 0.1467 -2.5027 1.7246 0
M  V30 6 C -1.7477 -1.2237 0.9454 0
M  V30 7 N 1.2912 1.5697 -0.4298 0
M  V30 8 C -0.3585 0.4749 -1.998 0
M  V30 9 C -0.6774 -3.1811 2.6258 0
M  V30 10 C -2.5709 -1.9049 1.8487 0
M  V30 11 C 1.8147 1.7172 0.9257 0
M  V30 12 C 2.4579 1.3852 -1.2884 0
M  V30 13 C -0.9374 1.79 -2.5272 0
M  V30 14 C -2.0402 -2.8762 2.7054 0
M  V30 15 C 3.0139 2.6289 0.7198 0
M  V30 16 C 3.4632 2.3777 -0.7155 0
M  V30 17 C -1.516 1.6186 -3.9232 0
M  V30 18 C -2.9329 -3.6289 3.6476 0
M  V30 19 H -0.6146 0.9905 0.0677 0
M  V30 20 H 1.205 -2.7541 1.678 0
M  V30 21 H -2.2081 -0.4924 0.2882 0
M  V30 22 H -1.146 -0.2899 -2.0196 0
M  V30 23 H 0.4219 0.1099 -2.6776 0
M  V30 24 H -0.2466 -3.951 3.2627 0
M  V30 25 H -3.6347 -1.6755 1.8755 0
M  V30 26 H 2.1493 0.7639 1.3511 0
M  V30 27 H 1.0845 2.1667 1.6061 0
M  V30 28 H 2.2488 1.6128 -2.338 0
M  V30 29 H 2.8809 0.3785 -1.2307 0
M  V30 30 H -1.726 2.1452 -1.8536 0
M  V30 31 H -0.1638 2.5649 -2.559 0
M  V30 32 H 2.7256 3.6803 0.8383 0
M  V30 33 H 3.8115 2.4172 1.4391 0
M  V30 34 H 4.4819 1.9784 -0.7539 0
M  V30 35 H 3.4499 3.3179 -1.2791 0
M  V30 36 H -1.9259 2.5677 -4.2826 0
M  V30 37 H -0.7458 1.2919 -4.6291 0
M  V30 38 H -2.3221 0.878 -3.9259 0
M  V30 39 H -3.3319 -4.52 3.1533 0
M  V30 40 H -2.384 -3.9364 4.5439 0
M  V30 41 H -3.7685 -3.0027 3.9778 0
M  V30 END ATOM
M  V30 BEGIN BOND
M  V30 1 2 1 2
M  V30 2 1 2 3
M  V30 3 1 2 4
M  V30 4 2 3 5
M  V30 5 1 3 6
M  V30 6 1 4 7
M  V30 7 1 4 8
M  V30 8 1 5 9
M  V30 9 2 6 10
M  V30 10 1 7 11
M  V30 11 1 7 12
M  V30 12 1 8 13
M  V30 13 2 9 14
M  V30 14 1 11 15
M  V30 15 1 12 16
M  V30 16 1 13 17
M  V30 17 1 14 18
M  V30 18 1 10 14
M  V30 19 1 15 16
M  V30 20 1 4 19
M  V30 21 1 5 20
M  V30 22 1 6 21
M  V30 23 1 8 22
M  V30 24 1 8 23
M  V30 25 1 9 24
M  V30 26 1 10 25
M  V30 27 1 11 26
M  V30 28 1 11 27
M  V30 29 1 12 28
M  V30 30 1 12 29
M  V30 31 1 13 30
M  V30 32 1 13 31
M  V30 33 1 15 32
M  V30 34 1 15 33
M  V30 35 1 16 34
M  V30 36 1 16 35
M  V30 37 1 17 36
M  V30 38 1 17 37
M  V30 39 1 17 38
M  V30 40 1 18 39
M  V30 41 1 18 40
M  V30 42 1 18 41
M  V30 END BOND
M  V30 BEGIN COLLECTION
M  V30 MDLV30/STERAC1 ATOMS=(1 4)
M  V30 END COLLECTION
M  V30 END CTAB
M  END
>  <Column 1>
1337

>  <level_0>
1485

>  <index>
1485

>  <Unnamed: 0>
1485

>  <NO.>
1497

>  <Name>
pyrovalerone

>  <IUPAC_name>
1-(4-methylphenyl)-2-pyrrolidin-1-ylpentan-1-one

>  <SMILES>
CCCC(C(=O)c1ccc(C)cc1)N1CCCC1

>  <CID>
14373

>  <logBB>


>  <BBB+/BBB->
BBB+

>  <Inchi>
InChI=1S/C16H23NO/c1-3-6-15(17-11-4-5-12-17)16(18)14-9-7-13(2)8-10-14/h7-10-15H-3-6-11-12H2-1-2H3

>  <threshold>
-1

>  <reference>
R1|R19|R6|R27|R27|R30|

>  <group>
B

>  <Class>
1

>  <ABC>
13.53

>  <ABCGG>
12.35

>  <nAcid>
0

>  <nBase>
1

>  <nAromAtom>
6

>  <nAromBond>
6

>  <nAtom>
41

>  <nHeavyAtom>
18

>  <nSpiro>
0

>  <nBridgehead>
0

>  <nHetero>
2

>  <nN>
1

>  <nO>
1

>  <nF>
0

>  <BalabanJ>
1.91

>  <BertzCT>
390.06

>  <nBonds>
42

>  <nBondsO>
19

>  <nBondsS>
35

>  <nBondsD>
1

>  <nBondsT>
0

>  <nBondsA>
6

>  <nBondsM>
7

>  <nBondsKS>
38

>  <nBondsKD>
4

>  <RNCG>
0.26

>  <RPCG>
0.16

>  <FCSP3>
0.56

>  <SZ>
22.33

>  <Sm>
20.43

>  <Sv>
23.7

>  <Sse>
40.2

>  <Sp>
26.32

>  <Si>
46.28

>  <MZ>
0.54

>  <Mm>
0.5

>  <Mv>
0.58

>  <Mse>
0.98

>  <Mp>
0.64

>  <Mi>
1.13

>  <NsCH3>
2

>  <NdCH2>
0

>  <NssCH2>
6

>  <NtCH>
0

>  <NdsCH>
0

>  <NaaCH>
4

>  <NsssCH>
1

>  <NddC>
0

>  <NtsC>
0

>  <NdssC>
1

>  <NaasC>
2

>  <NaaaC>
0

>  <NssssC>
0

>  <NsNH3>
0

>  <NsNH2>
0

>  <NssNH2>
0

>  <NdNH>
0

>  <NssNH>
0

>  <NaaNH>
0

>  <NtN>
0

>  <NsssNH>
0

>  <NdsN>
0

>  <NaaN>
0

>  <NsssN>
1

>  <NddsN>
0

>  <NaasN>
0

>  <NssssN>
0

>  <NsOH>
0

>  <NdO>
1

>  <NssO>
0

>  <NaaO>
0

>  <NsF>
0

>  <NsSiH3>
0

>  <NssSiH2>
0

>  <NsssSiH>
0

>  <NssssSi>
0

>  <NsPH2>
0

>  <NssPH>
0

>  <NsssP>
0

>  <NdsssP>
0

>  <NsssssP>
0

>  <NsSH>
0

>  <NdS>
0

>  <NssS>
0

>  <NaaS>
0

>  <NdssS>
0

>  <NddssS>
0

>  <NsCl>
0

>  <NsBr>
0

>  <NsI>
0

>  <fragCpx>
55.02

>  <fMF>
0.32

>  <nHBAcc>
2

>  <nHBDon>
0

>  <Kier1>
14.41

>  <Kier2>
6.96

>  <Lipinski>
1

>  <GhoseFilter>
1

>  <FilterItLogS>
-3.82

>  <VMcGowan>
213.23

>  <LabuteASA>
110

>  <PEOE_VSA1>
0

>  <PEOE_VSA2>
9.69

>  <PEOE_VSA3>
0

>  <PEOE_VSA4>
0

>  <PEOE_VSA5>
0

>  <PEOE_VSA6>
43.17

>  <PEOE_VSA7>
39.28

>  <PEOE_VSA8>
5.56

>  <PEOE_VSA9>
6.04

>  <PEOE_VSA10>
0

>  <PEOE_VSA11>
5.78

>  <PEOE_VSA12>
0

>  <PEOE_VSA13>
0

>  <SMR_VSA1>
4.79

>  <SMR_VSA2>
0

>  <SMR_VSA3>
4.9

>  <SMR_VSA4>
0

>  <SMR_VSA5>
45.57

>  <SMR_VSA6>
13.09

>  <SMR_VSA7>
35.39

>  <SMR_VSA8>
0

>  <SMR_VSA9>
0

>  <SlogP_VSA1>
0

>  <SlogP_VSA2>
29.81

>  <SlogP_VSA3>
0

>  <SlogP_VSA4>
6.92

>  <SlogP_VSA5>
48.53

>  <SlogP_VSA6>
24.27

>  <SlogP_VSA7>
0

>  <SlogP_VSA8>
0

>  <SlogP_VSA9>
0

>  <SlogP_VSA10>
0

>  <SlogP_VSA11>
0

>  <EState_VSA1>
0

>  <EState_VSA2>
6.04

>  <EState_VSA3>
5.78

>  <EState_VSA4>
31.49

>  <EState_VSA5>
18.41

>  <EState_VSA6>
0

>  <EState_VSA7>
24.27

>  <EState_VSA8>
18.75

>  <EState_VSA9>
0

>  <EState_VSA10>
4.79

>  <VSA_EState1>
0

>  <VSA_EState2>
14.96

>  <VSA_EState3>
0

>  <VSA_EState4>
2.07

>  <VSA_EState5>
0.3

>  <VSA_EState6>
8.09

>  <VSA_EState7>
4.52

>  <VSA_EState8>
6.38

>  <VSA_EState9>
0

>  <apol>
43.96

>  <bpol>
25.65

>  <nRing>
2

>  <nHRing>
1

>  <naRing>
1

>  <naHRing>
0

>  <nARing 2>
1

>  <nAHRing 2>
1

>  <nFRing>
0

>  <nFHRing>
0

>  <nFaRing>
0

>  <nFaHRing>
0

>  <nFARing 2>
0

>  <nFAHRing 2>
0

>  <nRot>
5

>  <SLogP>
3.44

>  <SMR>
75.01

>  <TopoPSA(NO)>
20.31

>  <TopoPSA>
20.31

>  <JGI1>
0.16

>  <JGI2>
0.09

>  <JGI3>
0.05

>  <JGI4>
0.04

>  <JGI5>
0.02

>  <Diameter>
9

>  <Radius>
5

>  <TMWC10>
107.89

>  <TSRW10>
63.66

>  <MW>
245.18

>  <AMW>
5.98

>  <WPath>
612

>  <WPol>
24

>  <Zagreb1>
88

>  <Zagreb2>
101

>  <mZagreb2>
4.17

>  <yes>


>  <nAR-cont>
0.816016

>  <nHA-cont>
0.991161285

>  <MWHBN>
0.127728401

>  <MWHBN-cont>
0.860915597

>  <TPSA-cont>
0.858223588

>  <pka_cont>
0.97

>  <yes.1>


>  <BBB_SCORE>
5.299997857

>  <MMFF94 Energy>
76.893

$$$$
Compound 1131
Actelion Java MolfileCreator 2.0

  0  0  0  0  0  0              0 V3000
M  V30 BEGIN CTAB
M  V30 COUNTS 63 68 0 0 0
M  V30 BEGIN ATOM
M  V30 1 O 3.0732 -0.9697 0.1615 0
M  V30 2 C 3.119 -0.7099 1.508 0
M  V30 3 C 1.6445 -0.9454 -0.1884 0
M  V30 4 C 4.2473 -0.4443 2.2491 0
M  V30 5 C 1.8789 -0.5916 2.0854 0
M  V30 6 C 1.2111 0.257 -1.1262 0
M  V30 7 C 0.811 -0.8992 1.1045 0
M  V30 8 O 5.4906 -0.5547 1.7083 0
M  V30 9 C 4.1007 -0.0058 3.5667 0
M  V30 10 C 1.6788 -0.0222 3.3329 0
M  V30 11 O 2.0331 0.3977 -2.2787 0
M  V30 12 C 1.3119 1.547 -0.3328 0
M  V30 13 C -0.343 0.068 -1.448 0
M  V30 14 C -0.1807 0.288 1.1248 0
M  V30 15 C 0.1455 -2.2515 1.4256 0
M  V30 16 C 2.8165 0.2335 4.1017 0
M  V30 17 C 0.2865 0.4595 3.6888 0
M  V30 18 C 2.3407 -0.7925 -2.9884 0
M  V30 19 C 0.5681 1.5916 0.787 0
M  V30 20 C -1.0391 1.0022 -2.5191 0
M  V30 21 C -1.1492 0.1088 -0.0747 0
M  V30 22 C -0.8125 0.2574 2.5576 0
M  V30 23 C -0.7389 -2.2001 2.6771 0
M  V30 24 O -1.2516 2.3104 -1.9772 0
M  V30 25 C -2.4483 0.4134 -2.8441 0
M  V30 26 C -0.2466 1.1806 -3.8188 0
M  V30 27 N -1.5887 -1.0047 2.6908 0
M  V30 28 C -3.3146 1.2513 -3.7957 0
M  V30 29 C -2.4846 -1.0039 3.8443 0
M  V30 30 C -4.7156 0.6686 -3.9229 0
M  V30 31 H 1.469 -1.8868 -0.7246 0
M  V30 32 H 5.348 -0.7891 0.7718 0
M  V30 33 H 4.9841 0.2171 4.1589 0
M  V30 34 H 1.9269 2.3714 -0.6722 0
M  V30 35 H -0.437 -0.9522 -1.8481 0
M  V30 36 H -0.4708 -2.5687 0.5749 0
M  V30 37 H 0.9006 -3.0374 1.559 0
M  V30 38 H 2.7267 0.6716 5.0927 0
M  V30 39 H 0.3583 1.5406 3.8703 0
M  V30 40 H -0.0217 0.0093 4.6374 0
M  V30 41 H 1.4472 -1.3933 -3.177 0
M  V30 42 H 3.0876 -1.382 -2.4508 0
M  V30 43 H 2.7733 -0.5083 -3.9518 0
M  V30 44 H 0.5261 2.4638 1.429 0
M  V30 45 H -1.8778 0.9288 -0.0575 0
M  V30 46 H -1.7428 -0.8086 0.0034 0
M  V30 47 H -1.5234 1.0918 2.6314 0
M  V30 48 H -0.1181 -2.2601 3.5792 0
M  V30 49 H -1.3675 -3.0994 2.6792 0
M  V30 50 H -0.3798 2.7168 -1.8309 0
M  V30 51 H -2.3329 -0.5944 -3.2629 0
M  V30 52 H -3.019 0.3048 -1.9143 0
M  V30 53 H -0.0369 0.2222 -4.3011 0
M  V30 54 H 0.687 1.7247 -3.6526 0
M  V30 55 H -0.7849 1.8107 -4.5342 0
M  V30 56 H -3.3919 2.2826 -3.4347 0
M  V30 57 H -2.8675 1.2823 -4.7941 0
M  V30 58 H -1.9524 -1.0229 4.8003 0
M  V30 59 H -3.1443 -1.8782 3.8106 0
M  V30 60 H -3.1369 -0.1238 3.8285 0
M  V30 61 H -5.3145 1.2703 -4.6136 0
M  V30 62 H -4.6806 -0.3557 -4.3067 0
M  V30 63 H -5.2257 0.6565 -2.9544 0
M  V30 END ATOM
M  V30 BEGIN BOND
M  V30 1 1 1 2
M  V30 2 1 1 3
M  V30 3 2 2 4
M  V30 4 1 2 5
M  V30 5 1 3 6
M  V30 6 1 3 7
M  V30 7 1 4 8
M  V30 8 1 4 9
M  V30 9 2 5 10
M  V30 10 1 6 11
M  V30 11 1 6 12
M  V30 12 1 6 13
M  V30 13 1 7 14
M  V30 14 1 7 15
M  V30 15 2 9 16
M  V30 16 1 10 17
M  V30 17 1 11 18
M  V30 18 2 12 19
M  V30 19 1 13 20
M  V30 20 1 13 21
M  V30 21 1 14 22
M  V30 22 1 15 23
M  V30 23 1 20 24
M  V30 24 1 20 25
M  V30 25 1 20 26
M  V30 26 1 22 27
M  V30 27 1 25 28
M  V30 28 1 27 29
M  V30 29 1 28 30
M  V30 30 1 5 7
M  V30 31 1 10 16
M  V30 32 1 14 19
M  V30 33 1 14 21
M  V30 34 1 17 22
M  V30 35 1 23 27
M  V30 36 1 3 31
M  V30 37 1 8 32
M  V30 38 1 9 33
M  V30 39 1 12 34
M  V30 40 1 13 35
M  V30 41 1 15 36
M  V30 42 1 15 37
M  V30 43 1 16 38
M  V30 44 1 17 39
M  V30 45 1 17 40
M  V30 46 1 18 41
M  V30 47 1 18 42
M  V30 48 1 18 43
M  V30 49 1 19 44
M  V30 50 1 21 45
M  V30 51 1 21 46
M  V30 52 1 22 47
M  V30 53 1 23 48
M  V30 54 1 23 49
M  V30 55 1 24 50
M  V30 56 1 25 51
M  V30 57 1 25 52
M  V30 58 1 26 53
M  V30 59 1 26 54
M  V30 60 1 26 55
M  V30 61 1 28 56
M  V30 62 1 28 57
M  V30 63 1 29 58
M  V30 64 1 29 59
M  V30 65 1 29 60
M  V30 66 1 30 61
M  V30 67 1 30 62
M  V30 68 1 30 63
M  V30 END BOND
M  V30 END CTAB
M  END
>  <Column 1>
1338

>  <level_0>
1486

>  <index>
1486

>  <Unnamed: 0>
1486

>  <NO.>
1498

>  <Name>
etorphine

>  <IUPAC_name>
19-(2-hydroxypentan-2-yl)-15-methoxy-5-methyl-13-oxa-5-azahexacyclo[13.2.2.12-8.01-6.02-14.012-20]icosa-8(20)-9-11-16-tetraen-11-ol

>  <SMILES>
CCCC(C)(O)C1CC23C=CC1(OC)C1Oc4c(O)ccc5c4C12CCN(C)C3C5

>  <CID>
518962

>  <logBB>


>  <BBB+/BBB->
BBB+

>  <Inchi>
InChI=1S/C25H33NO4/c1-5-8-22(2-28)17-14-23-9-10-25(17-29-4)21-24(23)11-12-26(3)18(23)13-15-6-7-16(27)20(30-21)19(15)24/h6-7-9-10-17-18-21-27-28H-5-8-11-14H2-1-4H3

>  <threshold>
-1

>  <reference>
R1|R19|R27|R27|R30|

>  <group>
B

>  <Class>
1

>  <ABC>
24.66

>  <ABCGG>
18.99

>  <nAcid>
0

>  <nBase>
1

>  <nAromAtom>
6

>  <nAromBond>
6

>  <nAtom>
63

>  <nHeavyAtom>
30

>  <nSpiro>
2

>  <nBridgehead>
4

>  <nHetero>
5

>  <nN>
1

>  <nO>
4

>  <nF>
0

>  <BalabanJ>
1.56

>  <BertzCT>
956.71

>  <nBonds>
68

>  <nBondsO>
35

>  <nBondsS>
61

>  <nBondsD>
1

>  <nBondsT>
0

>  <nBondsA>
6

>  <nBondsM>
7

>  <nBondsKS>
64

>  <nBondsKD>
4

>  <RNCG>
0.2

>  <RPCG>
0.12

>  <FCSP3>
0.68

>  <SZ>
37

>  <Sm>
34.26

>  <Sv>
37.56

>  <Sse>
62.64

>  <Sp>
40.76

>  <Si>
70.98

>  <MZ>
0.59

>  <Mm>
0.54

>  <Mv>
0.6

>  <Mse>
0.99

>  <Mp>
0.65

>  <Mi>
1.13

>  <NsCH3>
4

>  <NdCH2>
0

>  <NssCH2>
6

>  <NtCH>
0

>  <NdsCH>
2

>  <NaaCH>
2

>  <NsssCH>
3

>  <NddC>
0

>  <NtsC>
0

>  <NdssC>
0

>  <NaasC>
4

>  <NaaaC>
0

>  <NssssC>
4

>  <NsNH3>
0

>  <NsNH2>
0

>  <NssNH2>
0

>  <NdNH>
0

>  <NssNH>
0

>  <NaaNH>
0

>  <NtN>
0

>  <NsssNH>
0

>  <NdsN>
0

>  <NaaN>
0

>  <NsssN>
1

>  <NddsN>
0

>  <NaasN>
0

>  <NssssN>
0

>  <NsOH>
2

>  <NdO>
0

>  <NssO>
2

>  <NaaO>
0

>  <NsF>
0

>  <NsSiH3>
0

>  <NssSiH2>
0

>  <NsssSiH>
0

>  <NssssSi>
0

>  <NsPH2>
0

>  <NssPH>
0

>  <NsssP>
0

>  <NdsssP>
0

>  <NsssssP>
0

>  <NsSH>
0

>  <NdS>
0

>  <NssS>
0

>  <NaaS>
0

>  <NdssS>
0

>  <NddssS>
0

>  <NsCl>
0

>  <NsBr>
0

>  <NsI>
0

>  <fragCpx>
355.05

>  <fMF>
0.32

>  <nHBAcc>
5

>  <nHBDon>
2

>  <Kier1>
20.6

>  <Kier2>
6.32

>  <Lipinski>
1

>  <GhoseFilter>
1

>  <FilterItLogS>
-4.2

>  <VMcGowan>
314.21

>  <LabuteASA>
178.22

>  <PEOE_VSA1>
24.59

>  <PEOE_VSA2>
0

>  <PEOE_VSA3>
0

>  <PEOE_VSA4>
0

>  <PEOE_VSA5>
0

>  <PEOE_VSA6>
31.56

>  <PEOE_VSA7>
57.83

>  <PEOE_VSA8>
30.05

>  <PEOE_VSA9>
11.02

>  <PEOE_VSA10>
11.71

>  <PEOE_VSA11>
11.5

>  <PEOE_VSA12>
0

>  <PEOE_VSA13>
0

>  <SMR_VSA1>
19.69

>  <SMR_VSA2>
0

>  <SMR_VSA3>
4.9

>  <SMR_VSA4>
11.33

>  <SMR_VSA5>
74.71

>  <SMR_VSA6>
20.7

>  <SMR_VSA7>
35.41

>  <SMR_VSA8>
0

>  <SMR_VSA9>
11.5

>  <SlogP_VSA1>
4.74

>  <SlogP_VSA2>
59.16

>  <SlogP_VSA3>
16.57

>  <SlogP_VSA4>
11.33

>  <SlogP_VSA5>
50.66

>  <SlogP_VSA6>
24.28

>  <SlogP_VSA7>
0

>  <SlogP_VSA8>
0

>  <SlogP_VSA9>
0

>  <SlogP_VSA10>
0

>  <SlogP_VSA11>
11.5

>  <EState_VSA1>
11.2

>  <EState_VSA2>
28.6

>  <EState_VSA3>
11.79

>  <EState_VSA4>
38.65

>  <EState_VSA5>
11.13

>  <EState_VSA6>
13.18

>  <EState_VSA7>
6.92

>  <EState_VSA8>
37.09

>  <EState_VSA9>
9.47

>  <EState_VSA10>
10.21

>  <VSA_EState1>
13.07

>  <VSA_EState2>
2.51

>  <VSA_EState3>
22.44

>  <VSA_EState4>
0.63

>  <VSA_EState5>
0.82

>  <VSA_EState6>
4.23

>  <VSA_EState7>
8.86

>  <VSA_EState8>
5.11

>  <VSA_EState9>
4

>  <apol>
68.06

>  <bpol>
38.29

>  <nRing>
7

>  <nHRing>
2

>  <naRing>
1

>  <naHRing>
0

>  <nARing 2>
6

>  <nAHRing 2>
2

>  <nFRing>
1

>  <nFHRing>
1

>  <nFaRing>
0

>  <nFaHRing>
0

>  <nFARing 2>
1

>  <nFAHRing 2>
1

>  <nRot>
4

>  <SLogP>
3.16

>  <SMR>
113.89

>  <TopoPSA(NO)>
62.16

>  <TopoPSA>
62.16

>  <JGI1>
0.27

>  <JGI2>
0.12

>  <JGI3>
0.06

>  <JGI4>
0.06

>  <JGI5>
0.04

>  <Diameter>
10

>  <Radius>
6

>  <TMWC10>
148.81

>  <TSRW10>
82.72

>  <MW>
411.24

>  <AMW>
6.53

>  <WPath>
1845

>  <WPol>
77

>  <Zagreb1>
190

>  <Zagreb2>
254

>  <mZagreb2>
6.26

>  <yes>


>  <nAR-cont>
0

>  <nHA-cont>
0.74523694

>  <MWHBN>
0.345183768

>  <MWHBN-cont>
0.688145977

>  <TPSA-cont>
0.566084601

>  <pka_cont>
0.97

>  <yes.1>


>  <BBB_SCORE>
3.394625107

>  <MMFF94 Energy>
160.11

$$$$
Compound 1132
Actelion Java MolfileCreator 2.0

  0  0  0  0  0  0              0 V3000
M  V30 BEGIN CTAB
M  V30 COUNTS 38 38 0 0 0
M  V30 BEGIN ATOM
M  V30 1 S 1.3658 5.3913 -1.2854 0
M  V30 2 C 1.1235 3.7969 -0.8888 0
M  V30 3 N 0.3715 3.4415 0.1836 0
M  V30 4 N 1.7028 2.796 -1.5982 0
M  V30 5 C 0.1145 2.1636 0.6028 0
M  V30 6 C 1.5906 1.4592 -1.333 0
M  V30 7 O -0.4794 1.9933 1.6653 0
M  V30 8 C 0.498 1.029 -0.3494 0
M  V30 9 O 2.3121 0.6624 -1.9308 0
M  V30 10 C 0.9913 -0.2434 0.4395 0 CFG=2
M  V30 11 C -0.7822 0.7795 -1.2113 0
M  V30 12 C -0.1133 -0.992 1.2302 0
M  V30 13 C 2.1787 0.0984 1.3616 0
M  V30 14 C -0.686 -0.3856 -2.2024 0
M  V30 15 C 0.3346 -2.3677 1.7402 0
M  V30 16 S -2.2544 -0.6056 -3.1095 0
M  V30 17 C -0.8189 -3.1206 2.3871 0
M  V30 18 C -3.2201 -1.461 -1.8382 0
M  V30 19 H 0.0115 4.1806 0.7755 0
M  V30 20 H 2.3491 3.0504 -2.3356 0
M  V30 21 H 1.3805 -0.9577 -0.2989 0
M  V30 22 H -1.0146 1.6937 -1.7777 0
M  V30 23 H -1.6387 0.6359 -0.5408 0
M  V30 24 H -0.4437 -0.3962 2.0875 0
M  V30 25 H -0.9917 -1.1461 0.5969 0
M  V30 26 H 2.9425 0.6827 0.8391 0
M  V30 27 H 2.6719 -0.8106 1.7194 0
M  V30 28 H 1.8573 0.6697 2.2384 0
M  V30 29 H 0.0801 -0.1812 -2.9554 0
M  V30 30 H -0.4264 -1.33 -1.7179 0
M  V30 31 H 0.7286 -2.9638 0.9092 0
M  V30 32 H 1.1362 -2.2606 2.4782 0
M  V30 33 H -0.479 -4.096 2.749 0
M  V30 34 H -1.2222 -2.5633 3.2387 0
M  V30 35 H -1.6294 -3.2882 1.6705 0
M  V30 36 H -4.187 -1.749 -2.2597 0
M  V30 37 H -3.4016 -0.8077 -0.9816 0
M  V30 38 H -2.7032 -2.3664 -1.5098 0
M  V30 END ATOM
M  V30 BEGIN BOND
M  V30 1 2 1 2
M  V30 2 1 2 3
M  V30 3 1 2 4
M  V30 4 1 3 5
M  V30 5 1 4 6
M  V30 6 2 5 7
M  V30 7 1 5 8
M  V30 8 2 6 9
M  V30 9 1 8 10
M  V30 10 1 8 11
M  V30 11 1 10 12
M  V30 12 1 10 13
M  V30 13 1 11 14
M  V30 14 1 12 15
M  V30 15 1 14 16
M  V30 16 1 15 17
M  V30 17 1 16 18
M  V30 18 1 6 8
M  V30 19 1 3 19
M  V30 20 1 4 20
M  V30 21 1 10 21
M  V30 22 1 11 22
M  V30 23 1 11 23
M  V30 24 1 12 24
M  V30 25 1 12 25
M  V30 26 1 13 26
M  V30 27 1 13 27
M  V30 28 1 13 28
M  V30 29 1 14 29
M  V30 30 1 14 30
M  V30 31 1 15 31
M  V30 32 1 15 32
M  V30 33 1 17 33
M  V30 34 1 17 34
M  V30 35 1 17 35
M  V30 36 1 18 36
M  V30 37 1 18 37
M  V30 38 1 18 38
M  V30 END BOND
M  V30 BEGIN COLLECTION
M  V30 MDLV30/STERAC1 ATOMS=(1 10)
M  V30 END COLLECTION
M  V30 END CTAB
M  END
>  <Column 1>
1339

>  <level_0>
1487

>  <index>
1487

>  <Unnamed: 0>
1487

>  <NO.>
1499

>  <Name>
methitural

>  <IUPAC_name>
5-(2-methylsulfanylethyl)-5-pentan-2-yl-2-sulfanylidene-1-3-diazinane-4-6-dione

>  <SMILES>
CCCC(C)C1(CCSC)C(=O)NC(=S)NC1=O

>  <CID>
3032307

>  <logBB>


>  <BBB+/BBB->
BBB+

>  <Inchi>
InChI=1S/C12H20N2O2S2/c1-4-5-8(2)12(6-7-18-3)9(15)13-11(17)14-10(12)16/h8H-4-7H2-1-3H3-(H2-13-14-15-16-17)

>  <threshold>
-1

>  <reference>
R1|R19|R6|R27|R27|R30|

>  <group>
B

>  <Class>
1

>  <ABC>
12.98

>  <ABCGG>
12.51

>  <nAcid>
0

>  <nBase>
0

>  <nAromAtom>
0

>  <nAromBond>
0

>  <nAtom>
38

>  <nHeavyAtom>
18

>  <nSpiro>
0

>  <nBridgehead>
0

>  <nHetero>
6

>  <nN>
2

>  <nO>
2

>  <nF>
0

>  <BalabanJ>
2.93

>  <BertzCT>
337.99

>  <nBonds>
38

>  <nBondsO>
18

>  <nBondsS>
35

>  <nBondsD>
3

>  <nBondsT>
0

>  <nBondsA>
0

>  <nBondsM>
3

>  <nBondsKS>
35

>  <nBondsKD>
3

>  <RNCG>
0.18

>  <RPCG>
0.15

>  <FCSP3>
0.75

>  <SZ>
25.67

>  <Sm>
24.01

>  <Sv>
22.74

>  <Sse>
38.02

>  <Sp>
25.74

>  <Si>
42.99

>  <MZ>
0.68

>  <Mm>
0.63

>  <Mv>
0.6

>  <Mse>
1

>  <Mp>
0.68

>  <Mi>
1.13

>  <NsCH3>
3

>  <NdCH2>
0

>  <NssCH2>
4

>  <NtCH>
0

>  <NdsCH>
0

>  <NaaCH>
0

>  <NsssCH>
1

>  <NddC>
0

>  <NtsC>
0

>  <NdssC>
3

>  <NaasC>
0

>  <NaaaC>
0

>  <NssssC>
1

>  <NsNH3>
0

>  <NsNH2>
0

>  <NssNH2>
0

>  <NdNH>
0

>  <NssNH>
2

>  <NaaNH>
0

>  <NtN>
0

>  <NsssNH>
0

>  <NdsN>
0

>  <NaaN>
0

>  <NsssN>
0

>  <NddsN>
0

>  <NaasN>
0

>  <NssssN>
0

>  <NsOH>
0

>  <NdO>
2

>  <NssO>
0

>  <NaaO>
0

>  <NsF>
0

>  <NsSiH3>
0

>  <NssSiH2>
0

>  <NsssSiH>
0

>  <NssssSi>
0

>  <NsPH2>
0

>  <NssPH>
0

>  <NsssP>
0

>  <NdsssP>
0

>  <NsssssP>
0

>  <NsSH>
0

>  <NdS>
1

>  <NssS>
1

>  <NaaS>
0

>  <NdssS>
0

>  <NddssS>
0

>  <NsCl>
0

>  <NsBr>
0

>  <NsI>
0

>  <fragCpx>
18.06

>  <fMF>
0.16

>  <nHBAcc>
4

>  <nHBDon>
2

>  <Kier1>
16.06

>  <Kier2>
6.96

>  <Lipinski>
1

>  <GhoseFilter>
1

>  <FilterItLogS>
-3.89

>  <VMcGowan>
220.58

>  <LabuteASA>
117.65

>  <PEOE_VSA1>
10.63

>  <PEOE_VSA2>
9.59

>  <PEOE_VSA3>
0

>  <PEOE_VSA4>
11.76

>  <PEOE_VSA5>
0

>  <PEOE_VSA6>
20.27

>  <PEOE_VSA7>
42.99

>  <PEOE_VSA8>
0

>  <PEOE_VSA9>
0

>  <PEOE_VSA10>
5.41

>  <PEOE_VSA11>
5.11

>  <PEOE_VSA12>
11.81

>  <PEOE_VSA13>
0

>  <SMR_VSA1>
9.59

>  <SMR_VSA2>
0

>  <SMR_VSA3>
10.63

>  <SMR_VSA4>
11.33

>  <SMR_VSA5>
33.11

>  <SMR_VSA6>
12.01

>  <SMR_VSA7>
0

>  <SMR_VSA8>
0

>  <SMR_VSA9>
0

>  <SlogP_VSA1>
10.63

>  <SlogP_VSA2>
28.94

>  <SlogP_VSA3>
9.59

>  <SlogP_VSA4>
11.33

>  <SlogP_VSA5>
33.11

>  <SlogP_VSA6>
0

>  <SlogP_VSA7>
0

>  <SlogP_VSA8>
0

>  <SlogP_VSA9>
0

>  <SlogP_VSA10>
0

>  <SlogP_VSA11>
0

>  <EState_VSA1>
5.41

>  <EState_VSA2>
22.84

>  <EState_VSA3>
6.42

>  <EState_VSA4>
18.59

>  <EState_VSA5>
0

>  <EState_VSA6>
11.76

>  <EState_VSA7>
13.18

>  <EState_VSA8>
17.56

>  <EState_VSA9>
12.22

>  <EState_VSA10>
9.59

>  <VSA_EState1>
0

>  <VSA_EState2>
24.58

>  <VSA_EState3>
5.32

>  <VSA_EState4>
-0.97

>  <VSA_EState5>
0.3

>  <VSA_EState6>
0

>  <VSA_EState7>
4.33

>  <VSA_EState8>
4.03

>  <VSA_EState9>
0

>  <apol>
42.98

>  <bpol>
26.63

>  <nRing>
1

>  <nHRing>
1

>  <naRing>
0

>  <naHRing>
0

>  <nARing 2>
1

>  <nAHRing 2>
1

>  <nFRing>
0

>  <nFHRing>
0

>  <nFaRing>
0

>  <nFaHRing>
0

>  <nFARing 2>
0

>  <nFAHRing 2>
0

>  <nRot>
6

>  <SLogP>
1.69

>  <SMR>
78.39

>  <TopoPSA(NO)>
58.2

>  <TopoPSA>
115.59

>  <JGI1>
0.28

>  <JGI2>
0.12

>  <JGI3>
0.08

>  <JGI4>
0.04

>  <JGI5>
0.03

>  <Diameter>
8

>  <Radius>
4

>  <TMWC10>
108.42

>  <TSRW10>
51.1

>  <MW>
288.1

>  <AMW>
7.58

>  <WPath>
563

>  <WPol>
31

>  <Zagreb1>
86

>  <Zagreb2>
102

>  <mZagreb2>
4.29

>  <yes>


>  <nAR-cont>
0.816016

>  <nHA-cont>
0.991161285

>  <MWHBN>
0.353492026

>  <MWHBN-cont>
0.65713701

>  <TPSA-cont>
0.193110023

>  <pka_cont>
0.97

>  <yes.1>


>  <BBB_SCORE>
3.664102846

>  <MMFF94 Energy>
-92.585

$$$$
Compound 1133
Actelion Java MolfileCreator 2.0

  0  0  0  0  0  0              0 V3000
M  V30 BEGIN CTAB
M  V30 COUNTS 37 37 0 0 0
M  V30 BEGIN ATOM
M  V30 1 O 2.5834 3.1321 2.6618 0
M  V30 2 C 1.9695 2.4093 1.8849 0
M  V30 3 N 0.7943 2.7953 1.3271 0
M  V30 4 N 2.3972 1.1564 1.5849 0
M  V30 5 C 0.0068 2.0345 0.5106 0
M  V30 6 C 1.7594 0.2532 0.7792 0
M  V30 7 O -1.1473 2.3964 0.287 0
M  V30 8 C 0.6635 0.8051 -0.1422 0
M  V30 9 O 2.1434 -0.9125 0.7885 0
M  V30 10 C -0.4616 -0.2586 -0.4736 0 CFG=2
M  V30 11 C 1.4113 1.3338 -1.4073 0
M  V30 12 C -1.0022 -0.9354 0.8184 0
M  V30 13 C -0.1814 -1.2704 -1.6191 0
M  V30 14 C 0.5492 2.067 -2.4322 0
M  V30 15 C -2.2993 -1.7242 0.6075 0
M  V30 16 C 0.8448 -2.3614 -1.371 0
M  V30 17 C -2.8591 -2.2324 1.9282 0
M  V30 18 H 0.4063 3.6701 1.6523 0
M  V30 19 H 3.2004 0.8202 2.0981 0
M  V30 20 H -1.3122 0.3182 -0.8665 0
M  V30 21 H 2.2133 2.0229 -1.1084 0
M  V30 22 H 1.9267 0.5035 -1.9055 0
M  V30 23 H -0.2514 -1.6065 1.2482 0
M  V30 24 H -1.1926 -0.1632 1.5742 0
M  V30 25 H -1.1276 -1.7629 -1.8773 0
M  V30 26 H 0.0995 -0.7402 -2.5344 0
M  V30 27 H -0.3083 1.4738 -2.7581 0
M  V30 28 H 0.1773 3.0159 -2.0339 0
M  V30 29 H 1.1486 2.3007 -3.3185 0
M  V30 30 H -3.0488 -1.0891 0.1217 0
M  V30 31 H -2.1215 -2.5845 -0.0458 0
M  V30 32 H 0.6609 -2.8974 -0.4365 0
M  V30 33 H 1.8606 -1.9595 -1.3672 0
M  V30 34 H 0.8021 -3.0964 -2.1825 0
M  V30 35 H -3.7804 -2.798 1.7565 0
M  V30 36 H -2.1435 -2.8919 2.4294 0
M  V30 37 H -3.092 -1.4015 2.602 0
M  V30 END ATOM
M  V30 BEGIN BOND
M  V30 1 2 1 2
M  V30 2 1 2 3
M  V30 3 1 2 4
M  V30 4 1 3 5
M  V30 5 1 4 6
M  V30 6 2 5 7
M  V30 7 1 5 8
M  V30 8 2 6 9
M  V30 9 1 8 10
M  V30 10 1 8 11
M  V30 11 1 10 12
M  V30 12 1 10 13
M  V30 13 1 11 14
M  V30 14 1 12 15
M  V30 15 1 13 16
M  V30 16 1 15 17
M  V30 17 1 6 8
M  V30 18 1 3 18
M  V30 19 1 4 19
M  V30 20 1 10 20
M  V30 21 1 11 21
M  V30 22 1 11 22
M  V30 23 1 12 23
M  V30 24 1 12 24
M  V30 25 1 13 25
M  V30 26 1 13 26
M  V30 27 1 14 27
M  V30 28 1 14 28
M  V30 29 1 14 29
M  V30 30 1 15 30
M  V30 31 1 15 31
M  V30 32 1 16 32
M  V30 33 1 16 33
M  V30 34 1 16 34
M  V30 35 1 17 35
M  V30 36 1 17 36
M  V30 37 1 17 37
M  V30 END BOND
M  V30 BEGIN COLLECTION
M  V30 MDLV30/STERAC1 ATOMS=(1 10)
M  V30 END COLLECTION
M  V30 END CTAB
M  END
>  <Column 1>
1340

>  <level_0>
1488

>  <index>
1488

>  <Unnamed: 0>
1488

>  <NO.>
1500

>  <Name>
tetrabarbital

>  <IUPAC_name>
5-ethyl-5-hexan-3-yl-1-3-diazinane-2-4-6-trione

>  <SMILES>
CCCC(CC)C1(CC)C(=O)NC(=O)NC1=O

>  <CID>
101534

>  <logBB>


>  <BBB+/BBB->
BBB+

>  <Inchi>
InChI=1S/C12H20N2O3/c1-4-7-8(5-2)12(6-3)9(15)13-11(17)14-10(12)16/h8H-4-7H2-1-3H3-(H2-13-14-15-16-17)

>  <threshold>
-1

>  <reference>
R1|R19|R6|R27|R27|R30|

>  <group>
B

>  <Class>
1

>  <ABC>
12.16

>  <ABCGG>
12.08

>  <nAcid>
0

>  <nBase>
0

>  <nAromAtom>
0

>  <nAromBond>
0

>  <nAtom>
37

>  <nHeavyAtom>
17

>  <nSpiro>
0

>  <nBridgehead>
0

>  <nHetero>
5

>  <nN>
2

>  <nO>
3

>  <nF>
0

>  <BalabanJ>
2.97

>  <BertzCT>
318.64

>  <nBonds>
37

>  <nBondsO>
17

>  <nBondsS>
34

>  <nBondsD>
3

>  <nBondsT>
0

>  <nBondsA>
0

>  <nBondsM>
3

>  <nBondsKS>
34

>  <nBondsKD>
3

>  <RNCG>
0.16

>  <RPCG>
0.19

>  <FCSP3>
0.75

>  <SZ>
21.67

>  <Sm>
20.01

>  <Sv>
21.08

>  <Sse>
37.2

>  <Sp>
22.74

>  <Si>
42.36

>  <MZ>
0.59

>  <Mm>
0.54

>  <Mv>
0.57

>  <Mse>
1.01

>  <Mp>
0.61

>  <Mi>
1.14

>  <NsCH3>
3

>  <NdCH2>
0

>  <NssCH2>
4

>  <NtCH>
0

>  <NdsCH>
0

>  <NaaCH>
0

>  <NsssCH>
1

>  <NddC>
0

>  <NtsC>
0

>  <NdssC>
3

>  <NaasC>
0

>  <NaaaC>
0

>  <NssssC>
1

>  <NsNH3>
0

>  <NsNH2>
0

>  <NssNH2>
0

>  <NdNH>
0

>  <NssNH>
2

>  <NaaNH>
0

>  <NtN>
0

>  <NsssNH>
0

>  <NdsN>
0

>  <NaaN>
0

>  <NsssN>
0

>  <NddsN>
0

>  <NaasN>
0

>  <NssssN>
0

>  <NsOH>
0

>  <NdO>
3

>  <NssO>
0

>  <NaaO>
0

>  <NsF>
0

>  <NsSiH3>
0

>  <NssSiH2>
0

>  <NsssSiH>
0

>  <NssssSi>
0

>  <NsPH2>
0

>  <NssPH>
0

>  <NsssP>
0

>  <NdsssP>
0

>  <NsssssP>
0

>  <NsSH>
0

>  <NdS>
0

>  <NssS>
0

>  <NaaS>
0

>  <NdssS>
0

>  <NddssS>
0

>  <NsCl>
0

>  <NsBr>
0

>  <NsI>
0

>  <fragCpx>
17.05

>  <fMF>
0.16

>  <nHBAcc>
3

>  <nHBDon>
2

>  <Kier1>
15.06

>  <Kier2>
6.25

>  <Lipinski>
1

>  <GhoseFilter>
1

>  <FilterItLogS>
-3.58

>  <VMcGowan>
193.75

>  <LabuteASA>
101.33

>  <PEOE_VSA1>
0

>  <PEOE_VSA2>
20.22

>  <PEOE_VSA3>
4.79

>  <PEOE_VSA4>
0

>  <PEOE_VSA5>
0

>  <PEOE_VSA6>
33.61

>  <PEOE_VSA7>
18.76

>  <PEOE_VSA8>
0

>  <PEOE_VSA9>
0

>  <PEOE_VSA10>
5.41

>  <PEOE_VSA11>
0

>  <PEOE_VSA12>
11.81

>  <PEOE_VSA13>
0

>  <SMR_VSA1>
14.38

>  <SMR_VSA2>
0

>  <SMR_VSA3>
10.63

>  <SMR_VSA4>
11.33

>  <SMR_VSA5>
46.45

>  <SMR_VSA6>
0

>  <SMR_VSA7>
0

>  <SMR_VSA8>
0

>  <SMR_VSA9>
0

>  <SlogP_VSA1>
10.63

>  <SlogP_VSA2>
17.85

>  <SlogP_VSA3>
9.59

>  <SlogP_VSA4>
11.33

>  <SlogP_VSA5>
46.45

>  <SlogP_VSA6>
0

>  <SlogP_VSA7>
0

>  <SlogP_VSA8>
0

>  <SlogP_VSA9>
0

>  <SlogP_VSA10>
4.79

>  <SlogP_VSA11>
0

>  <EState_VSA1>
23.26

>  <EState_VSA2>
5.92

>  <EState_VSA3>
6.42

>  <EState_VSA4>
19.26

>  <EState_VSA5>
0

>  <EState_VSA6>
0

>  <EState_VSA7>
20.77

>  <EState_VSA8>
10.63

>  <EState_VSA9>
0

>  <EState_VSA10>
14.38

>  <VSA_EState1>
0

>  <VSA_EState2>
35.19

>  <VSA_EState3>
4.43

>  <VSA_EState4>
-1.08

>  <VSA_EState5>
-0.92

>  <VSA_EState6>
-0.71

>  <VSA_EState7>
2.88

>  <VSA_EState8>
5.8

>  <VSA_EState9>
0

>  <apol>
37.98

>  <bpol>
23.81

>  <nRing>
1

>  <nHRing>
1

>  <naRing>
0

>  <naHRing>
0

>  <nARing 2>
1

>  <nAHRing 2>
1

>  <nFRing>
0

>  <nFHRing>
0

>  <nFaRing>
0

>  <nFaHRing>
0

>  <nFARing 2>
0

>  <nFAHRing 2>
0

>  <nRot>
5

>  <SLogP>
1.58

>  <SMR>
63.09

>  <TopoPSA(NO)>
75.27

>  <TopoPSA>
75.27

>  <JGI1>
0.29

>  <JGI2>
0.13

>  <JGI3>
0.08

>  <JGI4>
0.05

>  <JGI5>
0.03

>  <Diameter>
8

>  <Radius>
4

>  <TMWC10>
106.28

>  <TSRW10>
49.98

>  <MW>
240.15

>  <AMW>
6.49

>  <WPath>
466

>  <WPol>
31

>  <Zagreb1>
82

>  <Zagreb2>
99

>  <mZagreb2>
4.13

>  <yes>


>  <nAR-cont>
0.816016

>  <nHA-cont>
0.976740822

>  <MWHBN>
0.3226478

>  <MWHBN-cont>
0.768224557

>  <TPSA-cont>
0.47456866

>  <pka_cont>
0.97

>  <yes.1>


>  <BBB_SCORE>
4.379230978

>  <MMFF94 Energy>
-115.05

$$$$
Compound 1134
Actelion Java MolfileCreator 2.0

  0  0  0  0  0  0              0 V3000
M  V30 BEGIN CTAB
M  V30 COUNTS 37 37 0 0 0
M  V30 BEGIN ATOM
M  V30 1 S 1.1843 4.9022 -0.7894 0
M  V30 2 C 0.6927 3.3161 -0.8343 0
M  V30 3 N -0.3053 2.8654 -0.0355 0
M  V30 4 N 1.271 2.4232 -1.6737 0
M  V30 5 C -0.7942 1.5893 0.0146 0
M  V30 6 C 0.9488 1.1012 -1.7951 0
M  V30 7 O -1.7358 1.3408 0.7664 0
M  V30 8 C -0.1516 0.5502 -0.8915 0
M  V30 9 O 1.5477 0.4087 -2.618 0
M  V30 10 C 0.4932 -0.6277 -0.045 0 CFG=2
M  V30 11 C -1.2729 0.0109 -1.8346 0
M  V30 12 C -0.5264 -1.5067 0.7274 0
M  V30 13 C 1.6974 -0.1862 0.8373 0
M  V30 14 C -1.8339 1.037 -2.8201 0
M  V30 15 C 0.0944 -2.7632 1.3524 0
M  V30 16 C 1.375 0.4903 2.1627 0
M  V30 17 C -0.9676 -3.6464 1.9911 0
M  V30 18 H -0.7525 3.5294 0.5848 0
M  V30 19 H 2.0104 2.7527 -2.2821 0
M  V30 20 H 0.9385 -1.3056 -0.7906 0
M  V30 21 H -2.1228 -0.3543 -1.2463 0
M  V30 22 H -0.8955 -0.844 -2.41 0
M  V30 23 H -1.0228 -0.9268 1.512 0
M  V30 24 H -1.3115 -1.8438 0.0432 0
M  V30 25 H 2.3016 -1.0753 1.0592 0
M  V30 26 H 2.3667 0.4677 0.2679 0
M  V30 27 H -2.2528 1.9051 -2.3025 0
M  V30 28 H -2.6377 0.5824 -3.4088 0
M  V30 29 H -1.0712 1.3856 -3.5222 0
M  V30 30 H 0.623 -3.3382 0.5837 0
M  V30 31 H 0.826 -2.4933 2.1203 0
M  V30 32 H 0.7379 -0.1298 2.7982 0
M  V30 33 H 0.8921 1.4585 2.0261 0
M  V30 34 H 2.3037 0.6723 2.7147 0
M  V30 35 H -0.5056 -4.5345 2.4334 0
M  V30 36 H -1.4991 -3.1093 2.7832 0
M  V30 37 H -1.7003 -3.9792 1.2491 0
M  V30 END ATOM
M  V30 BEGIN BOND
M  V30 1 2 1 2
M  V30 2 1 2 3
M  V30 3 1 2 4
M  V30 4 1 3 5
M  V30 5 1 4 6
M  V30 6 2 5 7
M  V30 7 1 5 8
M  V30 8 2 6 9
M  V30 9 1 8 10
M  V30 10 1 8 11
M  V30 11 1 10 12
M  V30 12 1 10 13
M  V30 13 1 11 14
M  V30 14 1 12 15
M  V30 15 1 13 16
M  V30 16 1 15 17
M  V30 17 1 6 8
M  V30 18 1 3 18
M  V30 19 1 4 19
M  V30 20 1 10 20
M  V30 21 1 11 21
M  V30 22 1 11 22
M  V30 23 1 12 23
M  V30 24 1 12 24
M  V30 25 1 13 25
M  V30 26 1 13 26
M  V30 27 1 14 27
M  V30 28 1 14 28
M  V30 29 1 14 29
M  V30 30 1 15 30
M  V30 31 1 15 31
M  V30 32 1 16 32
M  V30 33 1 16 33
M  V30 34 1 16 34
M  V30 35 1 17 35
M  V30 36 1 17 36
M  V30 37 1 17 37
M  V30 END BOND
M  V30 BEGIN COLLECTION
M  V30 MDLV30/STERAC1 ATOMS=(1 10)
M  V30 END COLLECTION
M  V30 END CTAB
M  END
>  <Column 1>
1341

>  <level_0>
1489

>  <index>
1489

>  <Unnamed: 0>
1489

>  <NO.>
1501

>  <Name>
thiotetrabarbital

>  <IUPAC_name>
5-ethyl-5-hexan-3-yl-2-sulfanylidene-1-3-diazinane-4-6-dione

>  <SMILES>
CCCC(CC)C1(CC)C(=O)NC(=S)NC1=O

>  <CID>
3083570

>  <logBB>


>  <BBB+/BBB->
BBB+

>  <Inchi>
InChI=1S/C12H20N2O2S/c1-4-7-8(5-2)12(6-3)9(15)13-11(17)14-10(12)16/h8H-4-7H2-1-3H3-(H2-13-14-15-16-17)

>  <threshold>
-1

>  <reference>
R1|R19|R6|R27|R27|R30|

>  <group>
B

>  <Class>
1

>  <ABC>
12.16

>  <ABCGG>
12.08

>  <nAcid>
0

>  <nBase>
0

>  <nAromAtom>
0

>  <nAromBond>
0

>  <nAtom>
37

>  <nHeavyAtom>
17

>  <nSpiro>
0

>  <nBridgehead>
0

>  <nHetero>
5

>  <nN>
2

>  <nO>
2

>  <nF>
0

>  <BalabanJ>
2.97

>  <BertzCT>
321.4

>  <nBonds>
37

>  <nBondsO>
17

>  <nBondsS>
34

>  <nBondsD>
3

>  <nBondsT>
0

>  <nBondsA>
0

>  <nBondsM>
3

>  <nBondsKS>
34

>  <nBondsKD>
3

>  <RNCG>
0.19

>  <RPCG>
0.15

>  <FCSP3>
0.75

>  <SZ>
23

>  <Sm>
21.34

>  <Sv>
21.55

>  <Sse>
36.94

>  <Sp>
24

>  <Si>
42.07

>  <MZ>
0.62

>  <Mm>
0.58

>  <Mv>
0.58

>  <Mse>
1

>  <Mp>
0.65

>  <Mi>
1.14

>  <NsCH3>
3

>  <NdCH2>
0

>  <NssCH2>
4

>  <NtCH>
0

>  <NdsCH>
0

>  <NaaCH>
0

>  <NsssCH>
1

>  <NddC>
0

>  <NtsC>
0

>  <NdssC>
3

>  <NaasC>
0

>  <NaaaC>
0

>  <NssssC>
1

>  <NsNH3>
0

>  <NsNH2>
0

>  <NssNH2>
0

>  <NdNH>
0

>  <NssNH>
2

>  <NaaNH>
0

>  <NtN>
0

>  <NsssNH>
0

>  <NdsN>
0

>  <NaaN>
0

>  <NsssN>
0

>  <NddsN>
0

>  <NaasN>
0

>  <NssssN>
0

>  <NsOH>
0

>  <NdO>
2

>  <NssO>
0

>  <NaaO>
0

>  <NsF>
0

>  <NsSiH3>
0

>  <NssSiH2>
0

>  <NsssSiH>
0

>  <NssssSi>
0

>  <NsPH2>
0

>  <NssPH>
0

>  <NsssP>
0

>  <NdsssP>
0

>  <NsssssP>
0

>  <NsSH>
0

>  <NdS>
1

>  <NssS>
0

>  <NaaS>
0

>  <NdssS>
0

>  <NddssS>
0

>  <NsCl>
0

>  <NsBr>
0

>  <NsI>
0

>  <fragCpx>
17.05

>  <fMF>
0.16

>  <nHBAcc>
3

>  <nHBDon>
2

>  <Kier1>
15.06

>  <Kier2>
6.25

>  <Lipinski>
1

>  <GhoseFilter>
1

>  <FilterItLogS>
-3.78

>  <VMcGowan>
204.23

>  <LabuteASA>
107.53

>  <PEOE_VSA1>
10.63

>  <PEOE_VSA2>
9.59

>  <PEOE_VSA3>
0

>  <PEOE_VSA4>
0

>  <PEOE_VSA5>
0

>  <PEOE_VSA6>
33.61

>  <PEOE_VSA7>
30.98

>  <PEOE_VSA8>
0

>  <PEOE_VSA9>
0

>  <PEOE_VSA10>
5.41

>  <PEOE_VSA11>
5.11

>  <PEOE_VSA12>
11.81

>  <PEOE_VSA13>
0

>  <SMR_VSA1>
9.59

>  <SMR_VSA2>
0

>  <SMR_VSA3>
10.63

>  <SMR_VSA4>
11.33

>  <SMR_VSA5>
46.45

>  <SMR_VSA6>
0

>  <SMR_VSA7>
0

>  <SMR_VSA8>
0

>  <SMR_VSA9>
0

>  <SlogP_VSA1>
10.63

>  <SlogP_VSA2>
16.93

>  <SlogP_VSA3>
9.59

>  <SlogP_VSA4>
11.33

>  <SlogP_VSA5>
46.45

>  <SlogP_VSA6>
0

>  <SlogP_VSA7>
0

>  <SlogP_VSA8>
0

>  <SlogP_VSA9>
0

>  <SlogP_VSA10>
0

>  <SlogP_VSA11>
0

>  <EState_VSA1>
5.41

>  <EState_VSA2>
22.84

>  <EState_VSA3>
6.42

>  <EState_VSA4>
19.26

>  <EState_VSA5>
0

>  <EState_VSA6>
0

>  <EState_VSA7>
13.85

>  <EState_VSA8>
17.56

>  <EState_VSA9>
12.22

>  <EState_VSA10>
9.59

>  <VSA_EState1>
0

>  <VSA_EState2>
24.37

>  <VSA_EState3>
5.29

>  <VSA_EState4>
-0.95

>  <VSA_EState5>
-0.41

>  <VSA_EState6>
0

>  <VSA_EState7>
3.16

>  <VSA_EState8>
5.96

>  <VSA_EState9>
0

>  <apol>
40.08

>  <bpol>
24.17

>  <nRing>
1

>  <nHRing>
1

>  <naRing>
0

>  <naHRing>
0

>  <nARing 2>
1

>  <nAHRing 2>
1

>  <nFRing>
0

>  <nFHRing>
0

>  <nFaRing>
0

>  <nFaHRing>
0

>  <nFARing 2>
0

>  <nFAHRing 2>
0

>  <nRot>
5

>  <SLogP>
1.74

>  <SMR>
70.3

>  <TopoPSA(NO)>
58.2

>  <TopoPSA>
90.29

>  <JGI1>
0.29

>  <JGI2>
0.13

>  <JGI3>
0.08

>  <JGI4>
0.05

>  <JGI5>
0.03

>  <Diameter>
8

>  <Radius>
4

>  <TMWC10>
106.28

>  <TSRW10>
49.98

>  <MW>
256.12

>  <AMW>
6.92

>  <WPath>
466

>  <WPol>
31

>  <Zagreb1>
82

>  <Zagreb2>
99

>  <mZagreb2>
4.13

>  <yes>


>  <nAR-cont>
0.816016

>  <nHA-cont>
0.976740822

>  <MWHBN>
0.312426784

>  <MWHBN-cont>
0.802092566

>  <TPSA-cont>
0.369719733

>  <pka_cont>
0.97

>  <yes.1>


>  <BBB_SCORE>
4.220335137

>  <MMFF94 Energy>
-89.011

$$$$
Compound 1135
Actelion Java MolfileCreator 2.0

  0  0  0  0  0  0              0 V3000
M  V30 BEGIN CTAB
M  V30 COUNTS 36 35 0 0 0
M  V30 BEGIN ATOM
M  V30 1 O -0.461 -0.7685 2.692 0
M  V30 2 C -0.3852 -1.1995 1.5453 0
M  V30 3 N -0.6022 -2.5285 1.3273 0
M  V30 4 C -0.083 -0.3262 0.3026 0
M  V30 5 C -1.3117 -0.3917 -0.6603 0
M  V30 6 C 1.1703 -0.9188 -0.4154 0
M  V30 7 C 0.1443 1.1513 0.7513 0
M  V30 8 C -2.6484 0.0593 -0.0534 0
M  V30 9 C 1.6505 -0.1581 -1.6586 0
M  V30 10 C 1.4559 1.4284 1.5026 0
M  V30 11 C -3.7866 -0.0981 -1.0522 0
M  V30 12 C 2.9243 -0.7738 -2.2209 0
M  V30 13 C 1.5152 2.8692 1.9912 0
M  V30 14 H -0.5887 -2.9628 0.4168 0
M  V30 15 H -0.8071 -3.1018 2.1354 0
M  V30 16 H -1.4289 -1.4153 -1.0393 0
M  V30 17 H -1.1183 0.2358 -1.5392 0
M  V30 18 H 1.9958 -0.9981 0.3043 0
M  V30 19 H 0.9644 -1.9521 -0.7241 0
M  V30 20 H 0.1049 1.8085 -0.1272 0
M  V30 21 H -0.6844 1.4668 1.3985 0
M  V30 22 H -2.8846 -0.5271 0.8406 0
M  V30 23 H -2.5961 1.1106 0.2476 0
M  V30 24 H 0.8824 -0.1821 -2.4385 0
M  V30 25 H 1.8454 0.893 -1.4266 0
M  V30 26 H 1.5598 0.7604 2.3635 0
M  V30 27 H 2.3184 1.2523 0.8526 0
M  V30 28 H -4.7301 0.2325 -0.6064 0
M  V30 29 H -3.6066 0.5015 -1.9501 0
M  V30 30 H -3.902 -1.1441 -1.3537 0
M  V30 31 H 3.2479 -0.2267 -3.1119 0
M  V30 32 H 3.7352 -0.7362 -1.4864 0
M  V30 33 H 2.7636 -1.819 -2.5039 0
M  V30 34 H 2.4587 3.0529 2.5149 0
M  V30 35 H 1.4496 3.5704 1.1532 0
M  V30 36 H 0.6954 3.0828 2.6847 0
M  V30 END ATOM
M  V30 BEGIN BOND
M  V30 1 2 1 2
M  V30 2 1 2 3
M  V30 3 1 2 4
M  V30 4 1 4 5
M  V30 5 1 4 6
M  V30 6 1 4 7
M  V30 7 1 5 8
M  V30 8 1 6 9
M  V30 9 1 7 10
M  V30 10 1 8 11
M  V30 11 1 9 12
M  V30 12 1 10 13
M  V30 13 1 3 14
M  V30 14 1 3 15
M  V30 15 1 5 16
M  V30 16 1 5 17
M  V30 17 1 6 18
M  V30 18 1 6 19
M  V30 19 1 7 20
M  V30 20 1 7 21
M  V30 21 1 8 22
M  V30 22 1 8 23
M  V30 23 1 9 24
M  V30 24 1 9 25
M  V30 25 1 10 26
M  V30 26 1 10 27
M  V30 27 1 11 28
M  V30 28 1 11 29
M  V30 29 1 11 30
M  V30 30 1 12 31
M  V30 31 1 12 32
M  V30 32 1 12 33
M  V30 33 1 13 34
M  V30 34 1 13 35
M  V30 35 1 13 36
M  V30 END BOND
M  V30 END CTAB
M  END
>  <Column 1>
1342

>  <level_0>
1490

>  <index>
1490

>  <Unnamed: 0>
1490

>  <NO.>
1502

>  <Name>
valdipromide

>  <IUPAC_name>
2-2-dipropylpentanamide

>  <SMILES>
CCCC(CCC)(CCC)C(N)=O

>  <CID>
68689

>  <logBB>


>  <BBB+/BBB->
BBB+

>  <Inchi>
InChI=1S/C11H23NO/c1-4-7-11(8-5-2-9-6-3)10(12)13/h4-9H2-1-3H3-(H2-12-13)

>  <threshold>
-1

>  <reference>
R1|R13|R19|R6|R24|R27|R27|R27|R30|R30|

>  <group>
B

>  <Class>
1

>  <ABC>
8.64

>  <ABCGG>
9.33

>  <nAcid>
0

>  <nBase>
0

>  <nAromAtom>
0

>  <nAromBond>
0

>  <nAtom>
36

>  <nHeavyAtom>
13

>  <nSpiro>
0

>  <nBridgehead>
0

>  <nHetero>
2

>  <nN>
1

>  <nO>
1

>  <nF>
0

>  <BalabanJ>
4.38

>  <BertzCT>
137.15

>  <nBonds>
35

>  <nBondsO>
12

>  <nBondsS>
34

>  <nBondsD>
1

>  <nBondsT>
0

>  <nBondsA>
0

>  <nBondsM>
1

>  <nBondsKS>
34

>  <nBondsKD>
1

>  <RNCG>
0.33

>  <RPCG>
0.2

>  <FCSP3>
0.91

>  <SZ>
17.33

>  <Sm>
15.43

>  <Sv>
18.7

>  <Sse>
35.2

>  <Sp>
21.32

>  <Si>
41.28

>  <MZ>
0.48

>  <Mm>
0.43

>  <Mv>
0.52

>  <Mse>
0.98

>  <Mp>
0.59

>  <Mi>
1.15

>  <NsCH3>
3

>  <NdCH2>
0

>  <NssCH2>
6

>  <NtCH>
0

>  <NdsCH>
0

>  <NaaCH>
0

>  <NsssCH>
0

>  <NddC>
0

>  <NtsC>
0

>  <NdssC>
1

>  <NaasC>
0

>  <NaaaC>
0

>  <NssssC>
1

>  <NsNH3>
0

>  <NsNH2>
1

>  <NssNH2>
0

>  <NdNH>
0

>  <NssNH>
0

>  <NaaNH>
0

>  <NtN>
0

>  <NsssNH>
0

>  <NdsN>
0

>  <NaaN>
0

>  <NsssN>
0

>  <NddsN>
0

>  <NaasN>
0

>  <NssssN>
0

>  <NsOH>
0

>  <NdO>
1

>  <NssO>
0

>  <NaaO>
0

>  <NsF>
0

>  <NsSiH3>
0

>  <NssSiH2>
0

>  <NsssSiH>
0

>  <NssssSi>
0

>  <NsPH2>
0

>  <NssPH>
0

>  <NsssP>
0

>  <NdsssP>
0

>  <NsssssP>
0

>  <NsSH>
0

>  <NdS>
0

>  <NssS>
0

>  <NaaS>
0

>  <NdssS>
0

>  <NddssS>
0

>  <NsCl>
0

>  <NsBr>
0

>  <NsI>
0

>  <fragCpx>
12.02

>  <fMF>
0

>  <nHBAcc>
1

>  <nHBDon>
1

>  <Kier1>
13

>  <Kier2>
6.45

>  <Lipinski>
1

>  <GhoseFilter>
1

>  <FilterItLogS>
-3.11

>  <VMcGowan>
177.4

>  <LabuteASA>
81.89

>  <PEOE_VSA1>
5.73

>  <PEOE_VSA2>
4.79

>  <PEOE_VSA3>
0

>  <PEOE_VSA4>
0

>  <PEOE_VSA5>
0

>  <PEOE_VSA6>
40.03

>  <PEOE_VSA7>
19.26

>  <PEOE_VSA8>
5.41

>  <PEOE_VSA9>
0

>  <PEOE_VSA10>
0

>  <PEOE_VSA11>
0

>  <PEOE_VSA12>
5.91

>  <PEOE_VSA13>
0

>  <SMR_VSA1>
4.79

>  <SMR_VSA2>
0

>  <SMR_VSA3>
0

>  <SMR_VSA4>
11.15

>  <SMR_VSA5>
59.3

>  <SMR_VSA6>
0

>  <SMR_VSA7>
0

>  <SMR_VSA8>
0

>  <SMR_VSA9>
0

>  <SlogP_VSA1>
5.73

>  <SlogP_VSA2>
5.91

>  <SlogP_VSA3>
4.79

>  <SlogP_VSA4>
5.41

>  <SlogP_VSA5>
59.3

>  <SlogP_VSA6>
0

>  <SlogP_VSA7>
0

>  <SlogP_VSA8>
0

>  <SlogP_VSA9>
0

>  <SlogP_VSA10>
0

>  <SlogP_VSA11>
0

>  <EState_VSA1>
0

>  <EState_VSA2>
11.32

>  <EState_VSA3>
0

>  <EState_VSA4>
38.52

>  <EState_VSA5>
0

>  <EState_VSA6>
0

>  <EState_VSA7>
0

>  <EState_VSA8>
20.77

>  <EState_VSA9>
5.73

>  <EState_VSA10>
4.79

>  <VSA_EState1>
0

>  <VSA_EState2>
11.41

>  <VSA_EState3>
0

>  <VSA_EState4>
5.28

>  <VSA_EState5>
-0.1

>  <VSA_EState6>
0

>  <VSA_EState7>
5.98

>  <VSA_EState8>
6.34

>  <VSA_EState9>
0

>  <apol>
35.61

>  <bpol>
23.37

>  <nRing>
0

>  <nHRing>
0

>  <naRing>
0

>  <naHRing>
0

>  <nARing 2>
0

>  <nAHRing 2>
0

>  <nFRing>
0

>  <nFHRing>
0

>  <nFaRing>
0

>  <nFaHRing>
0

>  <nFARing 2>
0

>  <nFAHRing 2>
0

>  <nRot>
7

>  <SLogP>
2.86

>  <SMR>
56.35

>  <TopoPSA(NO)>
43.09

>  <TopoPSA>
43.09

>  <JGI1>
0.29

>  <JGI2>
0.13

>  <JGI3>
0.06

>  <JGI4>
0.04

>  <JGI5>
0.01

>  <Diameter>
6

>  <Radius>
3

>  <TMWC10>
91.03

>  <TSRW10>
43.3

>  <MW>
185.18

>  <AMW>
5.14

>  <WPath>
246

>  <WPol>
18

>  <Zagreb1>
54

>  <Zagreb2>
60

>  <mZagreb2>
3.38

>  <yes>


>  <nAR-cont>
0.336376

>  <nHA-cont>
0.841215992

>  <MWHBN>
0.146971442

>  <MWHBN-cont>
0.924402811

>  <TPSA-cont>
0.699205043

>  <pka_cont>
0.97

>  <yes.1>


>  <BBB_SCORE>
4.447606293

>  <MMFF94 Energy>
-12.898

$$$$
Compound 1136
Actelion Java MolfileCreator 2.0

  0  0  0  0  0  0              0 V3000
M  V30 BEGIN CTAB
M  V30 COUNTS 44 43 0 0 0
M  V30 BEGIN ATOM
M  V30 1 O 0.7758 -2.4065 1.8627 0
M  V30 2 C 1.605 -1.5105 1.7753 0
M  V30 3 O 2.1348 -1.0595 0.6068 0
M  V30 4 C 2.1816 -0.7406 2.9673 0
M  V30 5 C 1.6274 -1.6904 -0.5706 0
M  V30 6 C 1.6158 -1.3198 4.274 0
M  V30 7 C 3.7099 -0.8789 2.9827 0
M  V30 8 C 1.7789 0.7357 2.859 0
M  V30 9 O 0.3928 -1.1076 -0.9901 0
M  V30 10 C 0.5143 0.0054 -1.7567 0
M  V30 11 O 1.5706 0.4904 -2.1401 0
M  V30 12 C -0.8477 0.5942 -2.0894 0
M  V30 13 C -1.6319 -0.4125 -2.9511 0
M  V30 14 C -1.601 1.0059 -0.8119 0
M  V30 15 C -2.84 0.2102 -3.6547 0
M  V30 16 C -0.8648 2.092 -0.0199 0
M  V30 17 C -3.531 -0.7955 -4.5633 0
M  V30 18 C -1.6487 2.5053 1.2161 0
M  V30 19 H 2.3916 -1.6209 -1.3538 0
M  V30 20 H 1.4656 -2.7631 -0.4109 0
M  V30 21 H 1.8715 -2.3803 4.3815 0
M  V30 22 H 2.0106 -0.7898 5.1482 0
M  V30 23 H 0.5225 -1.2428 4.3028 0
M  V30 24 H 4.0094 -1.9332 2.9969 0
M  V30 25 H 4.1662 -0.4237 2.0964 0
M  V30 26 H 4.1435 -0.3918 3.8633 0
M  V30 27 H 0.6894 0.8431 2.8081 0
M  V30 28 H 2.1934 1.202 1.958 0
M  V30 29 H 2.1349 1.3089 3.7223 0
M  V30 30 H -0.6596 1.4935 -2.6914 0
M  V30 31 H -1.9637 -1.2569 -2.3331 0
M  V30 32 H -0.9605 -0.8342 -3.711 0
M  V30 33 H -1.7606 0.1326 -0.1669 0
M  V30 34 H -2.5939 1.3871 -1.0758 0
M  V30 35 H -3.566 0.5742 -2.9204 0
M  V30 36 H -2.52 1.0716 -4.2523 0
M  V30 37 H 0.1217 1.7338 0.2928 0
M  V30 38 H -0.7054 2.9711 -0.655 0
M  V30 39 H -4.3921 -0.3323 -5.0553 0
M  V30 40 H -2.8494 -1.1558 -5.3404 0
M  V30 41 H -3.8891 -1.6581 -3.9923 0
M  V30 42 H -1.1047 3.2776 1.7689 0
M  V30 43 H -2.6286 2.9096 0.9428 0
M  V30 44 H -1.8025 1.6531 1.8858 0
M  V30 END ATOM
M  V30 BEGIN BOND
M  V30 1 2 1 2
M  V30 2 1 2 3
M  V30 3 1 2 4
M  V30 4 1 3 5
M  V30 5 1 4 6
M  V30 6 1 4 7
M  V30 7 1 4 8
M  V30 8 1 5 9
M  V30 9 1 9 10
M  V30 10 2 10 11
M  V30 11 1 10 12
M  V30 12 1 12 13
M  V30 13 1 12 14
M  V30 14 1 13 15
M  V30 15 1 14 16
M  V30 16 1 15 17
M  V30 17 1 16 18
M  V30 18 1 5 19
M  V30 19 1 5 20
M  V30 20 1 6 21
M  V30 21 1 6 22
M  V30 22 1 6 23
M  V30 23 1 7 24
M  V30 24 1 7 25
M  V30 25 1 7 26
M  V30 26 1 8 27
M  V30 27 1 8 28
M  V30 28 1 8 29
M  V30 29 1 12 30
M  V30 30 1 13 31
M  V30 31 1 13 32
M  V30 32 1 14 33
M  V30 33 1 14 34
M  V30 34 1 15 35
M  V30 35 1 15 36
M  V30 36 1 16 37
M  V30 37 1 16 38
M  V30 38 1 17 39
M  V30 39 1 17 40
M  V30 40 1 17 41
M  V30 41 1 18 42
M  V30 42 1 18 43
M  V30 43 1 18 44
M  V30 END BOND
M  V30 END CTAB
M  END
>  <Column 1>
1343

>  <level_0>
1491

>  <index>
1491

>  <Unnamed: 0>
1491

>  <NO.>
1503

>  <Name>
valproate-pivoxil

>  <IUPAC_name>
2-2-dimethylpropanoyloxymethyl 2-propylpentanoate

>  <SMILES>
CCCC(CCC)C(=O)OCOC(=O)C(C)(C)C

>  <CID>
71160

>  <logBB>


>  <BBB+/BBB->
BBB+

>  <Inchi>
InChI=1S/C14H26O4/c1-6-8-11(9-7-2)12(15)17-10-18-13(16)14(3-4)5/h11H-6-10H2-1-5H3

>  <threshold>
-1

>  <reference>
R1|R7|R13|R19|R6|R24|R27|R27|R27|R29|R30|R30|

>  <group>
B

>  <Class>
1

>  <ABC>
12.61

>  <ABCGG>
12.21

>  <nAcid>
0

>  <nBase>
0

>  <nAromAtom>
0

>  <nAromBond>
0

>  <nAtom>
44

>  <nHeavyAtom>
18

>  <nSpiro>
0

>  <nBridgehead>
0

>  <nHetero>
4

>  <nN>
0

>  <nO>
4

>  <nF>
0

>  <BalabanJ>
3.96

>  <BertzCT>
259.46

>  <nBonds>
43

>  <nBondsO>
17

>  <nBondsS>
41

>  <nBondsD>
2

>  <nBondsT>
0

>  <nBondsA>
0

>  <nBondsM>
2

>  <nBondsKS>
41

>  <nBondsKD>
2

>  <RNCG>
0.23

>  <RPCG>
0.17

>  <FCSP3>
0.86

>  <SZ>
23.67

>  <Sm>
21.51

>  <Sv>
23.9

>  <Sse>
43.86

>  <Sp>
26.3

>  <Si>
50.24

>  <MZ>
0.54

>  <Mm>
0.49

>  <Mv>
0.54

>  <Mse>
1

>  <Mp>
0.6

>  <Mi>
1.14

>  <NsCH3>
5

>  <NdCH2>
0

>  <NssCH2>
5

>  <NtCH>
0

>  <NdsCH>
0

>  <NaaCH>
0

>  <NsssCH>
1

>  <NddC>
0

>  <NtsC>
0

>  <NdssC>
2

>  <NaasC>
0

>  <NaaaC>
0

>  <NssssC>
1

>  <NsNH3>
0

>  <NsNH2>
0

>  <NssNH2>
0

>  <NdNH>
0

>  <NssNH>
0

>  <NaaNH>
0

>  <NtN>
0

>  <NsssNH>
0

>  <NdsN>
0

>  <NaaN>
0

>  <NsssN>
0

>  <NddsN>
0

>  <NaasN>
0

>  <NssssN>
0

>  <NsOH>
0

>  <NdO>
2

>  <NssO>
2

>  <NaaO>
0

>  <NsF>
0

>  <NsSiH3>
0

>  <NssSiH2>
0

>  <NsssSiH>
0

>  <NssssSi>
0

>  <NsPH2>
0

>  <NssPH>
0

>  <NsssP>
0

>  <NdsssP>
0

>  <NsssssP>
0

>  <NsSH>
0

>  <NdS>
0

>  <NssS>
0

>  <NaaS>
0

>  <NdssS>
0

>  <NddssS>
0

>  <NsCl>
0

>  <NsBr>
0

>  <NsI>
0

>  <fragCpx>
17.04

>  <fMF>
0

>  <nHBAcc>
4

>  <nHBDon>
0

>  <Kier1>
18

>  <Kier2>
8.99

>  <Lipinski>
1

>  <GhoseFilter>
1

>  <FilterItLogS>
-3.32

>  <VMcGowan>
223

>  <LabuteASA>
110.03

>  <PEOE_VSA1>
9.47

>  <PEOE_VSA2>
9.59

>  <PEOE_VSA3>
0

>  <PEOE_VSA4>
0

>  <PEOE_VSA5>
0

>  <PEOE_VSA6>
26.69

>  <PEOE_VSA7>
33.61

>  <PEOE_VSA8>
0

>  <PEOE_VSA9>
11.33

>  <PEOE_VSA10>
0

>  <PEOE_VSA11>
0

>  <PEOE_VSA12>
6.79

>  <PEOE_VSA13>
0

>  <SMR_VSA1>
19.06

>  <SMR_VSA2>
0

>  <SMR_VSA3>
0

>  <SMR_VSA4>
11.33

>  <SMR_VSA5>
60.3

>  <SMR_VSA6>
6.79

>  <SMR_VSA7>
0

>  <SMR_VSA8>
0

>  <SMR_VSA9>
0

>  <SlogP_VSA1>
0

>  <SlogP_VSA2>
18.73

>  <SlogP_VSA3>
19.06

>  <SlogP_VSA4>
11.33

>  <SlogP_VSA5>
60.3

>  <SlogP_VSA6>
0

>  <SlogP_VSA7>
0

>  <SlogP_VSA8>
0

>  <SlogP_VSA9>
0

>  <SlogP_VSA10>
0

>  <SlogP_VSA11>
0

>  <EState_VSA1>
5.41

>  <EState_VSA2>
24.65

>  <EState_VSA3>
0

>  <EState_VSA4>
25.68

>  <EState_VSA5>
0

>  <EState_VSA6>
20.77

>  <EState_VSA7>
13.85

>  <EState_VSA8>
0

>  <EState_VSA9>
9.47

>  <EState_VSA10>
9.59

>  <VSA_EState1>
9.89

>  <VSA_EState2>
23.19

>  <VSA_EState3>
0

>  <VSA_EState4>
-0.57

>  <VSA_EState5>
-0.7

>  <VSA_EState6>
0

>  <VSA_EState7>
3.53

>  <VSA_EState8>
9.07

>  <VSA_EState9>
0

>  <apol>
43.92

>  <bpol>
31.29

>  <nRing>
0

>  <nHRing>
0

>  <naRing>
0

>  <naHRing>
0

>  <nARing 2>
0

>  <nAHRing 2>
0

>  <nFRing>
0

>  <nFHRing>
0

>  <nFaRing>
0

>  <nFaHRing>
0

>  <nFARing 2>
0

>  <nFAHRing 2>
0

>  <nRot>
7

>  <SLogP>
3.29

>  <SMR>
69.81

>  <TopoPSA(NO)>
52.6

>  <TopoPSA>
52.6

>  <JGI1>
0.29

>  <JGI2>
0.12

>  <JGI3>
0.05

>  <JGI4>
0.03

>  <JGI5>
0.02

>  <Diameter>
10

>  <Radius>
5

>  <TMWC10>
102.8

>  <TSRW10>
49.67

>  <MW>
258.18

>  <AMW>
5.87

>  <WPath>
716

>  <WPol>
22

>  <Zagreb1>
78

>  <Zagreb2>
83

>  <mZagreb2>
4.28

>  <yes>


>  <nAR-cont>
0.336376

>  <nHA-cont>
0.991161285

>  <MWHBN>
0.248942297

>  <MWHBN-cont>
0.96153748

>  <TPSA-cont>
0.632819337

>  <pka_cont>
0.97

>  <yes.1>


>  <BBB_SCORE>
4.52048218

>  <MMFF94 Energy>
-27.768

$$$$
Compound 1137
Actelion Java MolfileCreator 2.0

  0  0  0  0  0  0              0 V3000
M  V30 BEGIN CTAB
M  V30 COUNTS 27 26 0 0 0
M  V30 BEGIN ATOM
M  V30 1 O -0.9164 -1.91 -1.2985 0
M  V30 2 C -1.0403 -0.7711 -0.8632 0
M  V30 3 N -2.1283 -0.017 -1.1886 0
M  V30 4 C -0.0458 -0.1012 0.077 0
M  V30 5 C -0.1946 -0.6949 1.4915 0
M  V30 6 C 1.3922 -0.3201 -0.4328 0
M  V30 7 C -1.536 -0.4186 2.1805 0
M  V30 8 C 1.6623 0.4087 -1.753 0
M  V30 9 C -1.787 1.0559 2.4551 0
M  V30 10 C 3.101 0.2181 -2.2073 0
M  V30 11 H -2.2786 0.9213 -0.8483 0
M  V30 12 H -2.8162 -0.4298 -1.8048 0
M  V30 13 H -0.2356 0.9776 0.1092 0
M  V30 14 H -0.0568 -1.7831 1.4446 0
M  V30 15 H 0.608 -0.309 2.1328 0
M  V30 16 H 1.5928 -1.3914 -0.5601 0
M  V30 17 H 2.1007 0.0471 0.3204 0
M  V30 18 H -2.3634 -0.8296 1.5924 0
M  V30 19 H -1.5436 -0.9527 3.1386 0
M  V30 20 H 0.9922 0.0392 -2.5369 0
M  V30 21 H 1.463 1.4799 -1.6333 0
M  V30 22 H -2.7039 1.1772 3.041 0
M  V30 23 H -0.962 1.4957 3.0241 0
M  V30 24 H -1.9103 1.6239 1.5291 0
M  V30 25 H 3.2736 0.7464 -3.1501 0
M  V30 26 H 3.8026 0.611 -1.4647 0
M  V30 27 H 3.3249 -0.8415 -2.3655 0
M  V30 END ATOM
M  V30 BEGIN BOND
M  V30 1 2 1 2
M  V30 2 1 2 3
M  V30 3 1 2 4
M  V30 4 1 4 5
M  V30 5 1 4 6
M  V30 6 1 5 7
M  V30 7 1 6 8
M  V30 8 1 7 9
M  V30 9 1 8 10
M  V30 10 1 3 11
M  V30 11 1 3 12
M  V30 12 1 4 13
M  V30 13 1 5 14
M  V30 14 1 5 15
M  V30 15 1 6 16
M  V30 16 1 6 17
M  V30 17 1 7 18
M  V30 18 1 7 19
M  V30 19 1 8 20
M  V30 20 1 8 21
M  V30 21 1 9 22
M  V30 22 1 9 23
M  V30 23 1 9 24
M  V30 24 1 10 25
M  V30 25 1 10 26
M  V30 26 1 10 27
M  V30 END BOND
M  V30 END CTAB
M  END
>  <Column 1>
1344

>  <level_0>
1492

>  <index>
1492

>  <Unnamed: 0>
1492

>  <NO.>
1504

>  <Name>
valpromide

>  <IUPAC_name>
2-propylpentanamide

>  <SMILES>
CCCC(CCC)C(N)=O

>  <CID>
71113

>  <logBB>


>  <BBB+/BBB->
BBB+

>  <Inchi>
InChI=1S/C8H17NO/c1-3-5-7(6-4-2)8(9)10/h7H-3-6H2-1-2H3-(H2-9-10)

>  <threshold>
-1

>  <reference>
R1|R13|R19|R6|R24|R27|R27|R27|R30|R30|

>  <group>
B

>  <Class>
1

>  <ABC>
6.54

>  <ABCGG>
7.04

>  <nAcid>
0

>  <nBase>
0

>  <nAromAtom>
0

>  <nAromBond>
0

>  <nAtom>
27

>  <nHeavyAtom>
10

>  <nSpiro>
0

>  <nBridgehead>
0

>  <nHetero>
2

>  <nN>
1

>  <nO>
1

>  <nF>
0

>  <BalabanJ>
3.5

>  <BertzCT>
95.43

>  <nBonds>
26

>  <nBondsO>
9

>  <nBondsS>
25

>  <nBondsD>
1

>  <nBondsT>
0

>  <nBondsA>
0

>  <nBondsM>
1

>  <nBondsKS>
25

>  <nBondsKD>
1

>  <RNCG>
0.38

>  <RPCG>
0.23

>  <FCSP3>
0.88

>  <SZ>
13.33

>  <Sm>
11.92

>  <Sv>
14.08

>  <Sse>
26.54

>  <Sp>
15.93

>  <Si>
31.03

>  <MZ>
0.49

>  <Mm>
0.44

>  <Mv>
0.52

>  <Mse>
0.98

>  <Mp>
0.59

>  <Mi>
1.15

>  <NsCH3>
2

>  <NdCH2>
0

>  <NssCH2>
4

>  <NtCH>
0

>  <NdsCH>
0

>  <NaaCH>
0

>  <NsssCH>
1

>  <NddC>
0

>  <NtsC>
0

>  <NdssC>
1

>  <NaasC>
0

>  <NaaaC>
0

>  <NssssC>
0

>  <NsNH3>
0

>  <NsNH2>
1

>  <NssNH2>
0

>  <NdNH>
0

>  <NssNH>
0

>  <NaaNH>
0

>  <NtN>
0

>  <NsssNH>
0

>  <NdsN>
0

>  <NaaN>
0

>  <NsssN>
0

>  <NddsN>
0

>  <NaasN>
0

>  <NssssN>
0

>  <NsOH>
0

>  <NdO>
1

>  <NssO>
0

>  <NaaO>
0

>  <NsF>
0

>  <NsSiH3>
0

>  <NssSiH2>
0

>  <NsssSiH>
0

>  <NssssSi>
0

>  <NsPH2>
0

>  <NssPH>
0

>  <NsssP>
0

>  <NdsssP>
0

>  <NsssssP>
0

>  <NsSH>
0

>  <NdS>
0

>  <NssS>
0

>  <NaaS>
0

>  <NdssS>
0

>  <NddssS>
0

>  <NsCl>
0

>  <NsBr>
0

>  <NsI>
0

>  <fragCpx>
9.02

>  <fMF>
0

>  <nHBAcc>
1

>  <nHBDon>
1

>  <Kier1>
10

>  <Kier2>
5.76

>  <Lipinski>
1

>  <GhoseFilter>
0

>  <FilterItLogS>
-1.89

>  <VMcGowan>
135.13

>  <LabuteASA>
62.8

>  <PEOE_VSA1>
5.73

>  <PEOE_VSA2>
4.79

>  <PEOE_VSA3>
0

>  <PEOE_VSA4>
0

>  <PEOE_VSA5>
0

>  <PEOE_VSA6>
26.69

>  <PEOE_VSA7>
12.84

>  <PEOE_VSA8>
5.92

>  <PEOE_VSA9>
0

>  <PEOE_VSA10>
0

>  <PEOE_VSA11>
0

>  <PEOE_VSA12>
5.91

>  <PEOE_VSA13>
0

>  <SMR_VSA1>
4.79

>  <SMR_VSA2>
0

>  <SMR_VSA3>
0

>  <SMR_VSA4>
11.65

>  <SMR_VSA5>
39.53

>  <SMR_VSA6>
0

>  <SMR_VSA7>
0

>  <SMR_VSA8>
0

>  <SMR_VSA9>
0

>  <SlogP_VSA1>
5.73

>  <SlogP_VSA2>
5.91

>  <SlogP_VSA3>
4.79

>  <SlogP_VSA4>
5.92

>  <SlogP_VSA5>
39.53

>  <SlogP_VSA6>
0

>  <SlogP_VSA7>
0

>  <SlogP_VSA8>
0

>  <SlogP_VSA9>
0

>  <SlogP_VSA10>
0

>  <SlogP_VSA11>
0

>  <EState_VSA1>
0

>  <EState_VSA2>
11.83

>  <EState_VSA3>
0

>  <EState_VSA4>
25.68

>  <EState_VSA5>
0

>  <EState_VSA6>
0

>  <EState_VSA7>
0

>  <EState_VSA8>
13.85

>  <EState_VSA9>
5.73

>  <EState_VSA10>
4.79

>  <VSA_EState1>
0

>  <VSA_EState2>
10.7

>  <VSA_EState3>
0

>  <VSA_EState4>
5.17

>  <VSA_EState5>
-0.02

>  <VSA_EState6>
0

>  <VSA_EState7>
3.99

>  <VSA_EState8>
4.15

>  <VSA_EState9>
0

>  <apol>
26.6

>  <bpol>
17.35

>  <nRing>
0

>  <nHRing>
0

>  <naRing>
0

>  <naHRing>
0

>  <nARing 2>
0

>  <nAHRing 2>
0

>  <nFRing>
0

>  <nFHRing>
0

>  <nFaRing>
0

>  <nFaHRing>
0

>  <nFARing 2>
0

>  <nFAHRing 2>
0

>  <nRot>
5

>  <SLogP>
1.69

>  <SMR>
42.5

>  <TopoPSA(NO)>
43.09

>  <TopoPSA>
43.09

>  <JGI1>
0.22

>  <JGI2>
0.11

>  <JGI3>
0.06

>  <JGI4>
0.04

>  <JGI5>
0.01

>  <Diameter>
6

>  <Radius>
3

>  <TMWC10>
78.77

>  <TSRW10>
37.58

>  <MW>
143.13

>  <AMW>
5.3

>  <WPath>
131

>  <WPol>
10

>  <Zagreb1>
38

>  <Zagreb2>
39

>  <mZagreb2>
2.61

>  <yes>


>  <nAR-cont>
0.336376

>  <nHA-cont>
0.645914733

>  <MWHBN>
0.167172432

>  <MWHBN-cont>
0.969346171

>  <TPSA-cont>
0.699205043

>  <pka_cont>
0.97

>  <yes.1>


>  <BBB_SCORE>
4.319720076

>  <MMFF94 Energy>
-24.673

$$$$
Compound 1138
Actelion Java MolfileCreator 2.0

  0  0  0  0  0  0              0 V3000
M  V30 BEGIN CTAB
M  V30 COUNTS 39 40 0 0 0
M  V30 BEGIN ATOM
M  V30 1 N -1.2552 -1.1767 -0.7844 0
M  V30 2 C -0.257 -0.108 -0.5699 0 CFG=2
M  V30 3 C -1.5627 -2.0512 0.3466 0
M  V30 4 C -0.893 -2.0891 -1.8726 0
M  V30 5 C 0.8991 -0.4562 0.4055 0
M  V30 6 C -0.9743 1.2244 -0.2254 0
M  V30 7 C -2.4278 -3.1166 -0.3073 0
M  V30 8 C -1.8708 -3.2477 -1.7195 0
M  V30 9 C 2.0271 0.5518 0.4127 0
M  V30 10 C -1.7256 1.2738 1.1063 0
M  V30 11 C 2.9168 0.6303 -0.6677 0
M  V30 12 C 2.1972 1.4242 1.4964 0
M  V30 13 C -2.2248 2.6811 1.4044 0
M  V30 14 C 3.953 1.5652 -0.6652 0
M  V30 15 C 3.2338 2.3588 1.4967 0
M  V30 16 C 4.1109 2.4294 0.4163 0
M  V30 17 H 0.2017 0.0933 -1.5494 0
M  V30 18 H -0.6695 -2.528 0.7666 0
M  V30 19 H -2.1025 -1.5505 1.1532 0
M  V30 20 H 0.135 -2.4571 -1.7674 0
M  V30 21 H -0.9923 -1.6142 -2.8541 0
M  V30 22 H 0.5221 -0.5862 1.4271 0
M  V30 23 H 1.3377 -1.4241 0.1277 0
M  V30 24 H -1.6848 1.4555 -1.0316 0
M  V30 25 H -0.2379 2.0375 -0.2514 0
M  V30 26 H -3.4735 -2.7883 -0.3506 0
M  V30 27 H -2.3952 -4.0654 0.2369 0
M  V30 28 H -2.6827 -3.1859 -2.4525 0
M  V30 29 H -1.3625 -4.2077 -1.8589 0
M  V30 30 H -2.5915 0.6056 1.0749 0
M  V30 31 H -1.0833 0.9488 1.9301 0
M  V30 32 H 2.8076 -0.038 -1.5187 0
M  V30 33 H 1.5205 1.3849 2.347 0
M  V30 34 H -2.7746 2.6952 2.3508 0
M  V30 35 H -1.3897 3.3842 1.487 0
M  V30 36 H -2.8965 3.0347 0.6156 0
M  V30 37 H 4.6373 1.6191 -1.5078 0
M  V30 38 H 3.3564 3.0326 2.3406 0
M  V30 39 H 4.9175 3.1575 0.4175 0
M  V30 END ATOM
M  V30 BEGIN BOND
M  V30 1 1 1 2
M  V30 2 1 1 3
M  V30 3 1 1 4
M  V30 4 1 2 5
M  V30 5 1 2 6
M  V30 6 1 3 7
M  V30 7 1 4 8
M  V30 8 1 5 9
M  V30 9 1 6 10
M  V30 10 2 9 11
M  V30 11 1 9 12
M  V30 12 1 10 13
M  V30 13 1 11 14
M  V30 14 2 12 15
M  V30 15 2 14 16
M  V30 16 1 7 8
M  V30 17 1 15 16
M  V30 18 1 2 17
M  V30 19 1 3 18
M  V30 20 1 3 19
M  V30 21 1 4 20
M  V30 22 1 4 21
M  V30 23 1 5 22
M  V30 24 1 5 23
M  V30 25 1 6 24
M  V30 26 1 6 25
M  V30 27 1 7 26
M  V30 28 1 7 27
M  V30 29 1 8 28
M  V30 30 1 8 29
M  V30 31 1 10 30
M  V30 32 1 10 31
M  V30 33 1 11 32
M  V30 34 1 12 33
M  V30 35 1 13 34
M  V30 36 1 13 35
M  V30 37 1 13 36
M  V30 38 1 14 37
M  V30 39 1 15 38
M  V30 40 1 16 39
M  V30 END BOND
M  V30 BEGIN COLLECTION
M  V30 MDLV30/STERAC1 ATOMS=(1 2)
M  V30 END COLLECTION
M  V30 END CTAB
M  END
>  <Column 1>
1345

>  <level_0>
1493

>  <index>
1493

>  <Unnamed: 0>
1493

>  <NO.>
1505

>  <Name>
prolintane

>  <IUPAC_name>
1-(1-phenylpentan-2-yl)pyrrolidine

>  <SMILES>
CCCC(Cc1ccccc1)N1CCCC1

>  <CID>
14592

>  <logBB>


>  <BBB+/BBB->
BBB+

>  <Inchi>
InChI=1S/C15H23N/c1-2-8-15(16-11-6-7-12-16)13-14-9-4-3-5-10-14/h3-5-9-10-15H-2-6-8-11-13H2-1H3

>  <threshold>
-1

>  <reference>
R1|R19|R6|R27|R27|R30|

>  <group>
B

>  <Class>
1

>  <ABC>
11.98

>  <ABCGG>
10.86

>  <nAcid>
0

>  <nBase>
1

>  <nAromAtom>
6

>  <nAromBond>
6

>  <nAtom>
39

>  <nHeavyAtom>
16

>  <nSpiro>
0

>  <nBridgehead>
0

>  <nHetero>
1

>  <nN>
1

>  <nO>
0

>  <nF>
0

>  <BalabanJ>
1.8

>  <BertzCT>
287.56

>  <nBonds>
40

>  <nBondsO>
17

>  <nBondsS>
34

>  <nBondsD>
0

>  <nBondsT>
0

>  <nBondsA>
6

>  <nBondsM>
6

>  <nBondsKS>
37

>  <nBondsKD>
3

>  <RNCG>
0.33

>  <RPCG>
0.07

>  <FCSP3>
0.6

>  <SZ>
20

>  <Sm>
18.1

>  <Sv>
21.99

>  <Sse>
37.87

>  <Sp>
24.84

>  <Si>
44.07

>  <MZ>
0.51

>  <Mm>
0.46

>  <Mv>
0.56

>  <Mse>
0.97

>  <Mp>
0.64

>  <Mi>
1.13

>  <NsCH3>
1

>  <NdCH2>
0

>  <NssCH2>
7

>  <NtCH>
0

>  <NdsCH>
0

>  <NaaCH>
5

>  <NsssCH>
1

>  <NddC>
0

>  <NtsC>
0

>  <NdssC>
0

>  <NaasC>
1

>  <NaaaC>
0

>  <NssssC>
0

>  <NsNH3>
0

>  <NsNH2>
0

>  <NssNH2>
0

>  <NdNH>
0

>  <NssNH>
0

>  <NaaNH>
0

>  <NtN>
0

>  <NsssNH>
0

>  <NdsN>
0

>  <NaaN>
0

>  <NsssN>
1

>  <NddsN>
0

>  <NaasN>
0

>  <NssssN>
0

>  <NsOH>
0

>  <NdO>
0

>  <NssO>
0

>  <NaaO>
0

>  <NsF>
0

>  <NsSiH3>
0

>  <NssSiH2>
0

>  <NsssSiH>
0

>  <NssssSi>
0

>  <NsPH2>
0

>  <NssPH>
0

>  <NsssP>
0

>  <NdsssP>
0

>  <NsssssP>
0

>  <NsSH>
0

>  <NdS>
0

>  <NssS>
0

>  <NaaS>
0

>  <NdssS>
0

>  <NddssS>
0

>  <NsCl>
0

>  <NsBr>
0

>  <NsI>
0

>  <fragCpx>
49.01

>  <fMF>
0.33

>  <nHBAcc>
1

>  <nHBDon>
0

>  <Kier1>
12.46

>  <Kier2>
6.67

>  <Lipinski>
1

>  <GhoseFilter>
1

>  <FilterItLogS>
-3.74

>  <VMcGowan>
197.57

>  <LabuteASA>
99.47

>  <PEOE_VSA1>
4.9

>  <PEOE_VSA2>
0

>  <PEOE_VSA3>
0

>  <PEOE_VSA4>
0

>  <PEOE_VSA5>
0

>  <PEOE_VSA6>
43.68

>  <PEOE_VSA7>
44.34

>  <PEOE_VSA8>
6.04

>  <PEOE_VSA9>
0

>  <PEOE_VSA10>
0

>  <PEOE_VSA11>
0

>  <PEOE_VSA12>
0

>  <PEOE_VSA13>
0

>  <SMR_VSA1>
0

>  <SMR_VSA2>
0

>  <SMR_VSA3>
4.9

>  <SMR_VSA4>
0

>  <SMR_VSA5>
45.07

>  <SMR_VSA6>
13.09

>  <SMR_VSA7>
35.9

>  <SMR_VSA8>
0

>  <SMR_VSA9>
0

>  <SlogP_VSA1>
0

>  <SlogP_VSA2>
24.03

>  <SlogP_VSA3>
6.42

>  <SlogP_VSA4>
0

>  <SlogP_VSA5>
38.17

>  <SlogP_VSA6>
30.33

>  <SlogP_VSA7>
0

>  <SlogP_VSA8>
0

>  <SlogP_VSA9>
0

>  <SlogP_VSA10>
0

>  <SlogP_VSA11>
0

>  <EState_VSA1>
0

>  <EState_VSA2>
0

>  <EState_VSA3>
0

>  <EState_VSA4>
6.04

>  <EState_VSA5>
50.76

>  <EState_VSA6>
0

>  <EState_VSA7>
0

>  <EState_VSA8>
42.16

>  <EState_VSA9>
0

>  <EState_VSA10>
0

>  <VSA_EState1>
0

>  <VSA_EState2>
2.69

>  <VSA_EState3>
0

>  <VSA_EState4>
1.49

>  <VSA_EState5>
0

>  <VSA_EState6>
11.71

>  <VSA_EState7>
6.67

>  <VSA_EState8>
4.93

>  <VSA_EState9>
0

>  <apol>
41.49

>  <bpol>
24.78

>  <nRing>
2

>  <nHRing>
1

>  <naRing>
1

>  <naHRing>
0

>  <nARing 2>
1

>  <nAHRing 2>
1

>  <nFRing>
0

>  <nFHRing>
0

>  <nFaRing>
0

>  <nFaHRing>
0

>  <nFARing 2>
0

>  <nFAHRing 2>
0

>  <nRot>
5

>  <SLogP>
3.49

>  <SMR>
69.65

>  <TopoPSA(NO)>
3.24

>  <TopoPSA>
3.24

>  <JGI1>
0.12

>  <JGI2>
0.05

>  <JGI3>
0.03

>  <JGI4>
0.03

>  <JGI5>
0.01

>  <Diameter>
8

>  <Radius>
4

>  <TMWC10>
101.6

>  <TSRW10>
60.62

>  <MW>
217.18

>  <AMW>
5.57

>  <WPath>
458

>  <WPol>
18

>  <Zagreb1>
76

>  <Zagreb2>
85

>  <mZagreb2>
3.78

>  <yes>


>  <nAR-cont>
0.816016

>  <nHA-cont>
0.954961865

>  <MWHBN>
0.067856286

>  <MWHBN-cont>
0.516953119

>  <TPSA-cont>
0.977382788

>  <pka_cont>
0.97

>  <yes.1>


>  <BBB_SCORE>
4.98617312

>  <MMFF94 Energy>
41.124

$$$$
Compound 1139
Actelion Java MolfileCreator 2.0

  0  0  0  0  0  0              0 V3000
M  V30 BEGIN CTAB
M  V30 COUNTS 15 14 0 0 0
M  V30 BEGIN ATOM
M  V30 1 Cl -1.1728 0.7035 -2.3467 0
M  V30 2 C -1.0405 -0.6301 -1.1841 0 CFG=2
M  V30 3 O -2.3535 -1.121 -0.9742 0
M  V30 4 C -0.4515 -0.1859 0.1513 0
M  V30 5 C 1.0064 0.264 0.0538 0
M  V30 6 C 1.5705 0.6153 1.4222 0
M  V30 7 H -0.4419 -1.424 -1.6406 0
M  V30 8 H -2.8602 -0.7914 -1.7367 0
M  V30 9 H -1.0661 0.6153 0.5825 0
M  V30 10 H -0.5275 -1.0216 0.8596 0
M  V30 11 H 1.6124 -0.5346 -0.3892 0
M  V30 12 H 1.0957 1.1399 -0.5977 0
M  V30 13 H 2.6136 0.9344 1.3314 0
M  V30 14 H 1.0041 1.4316 1.882 0
M  V30 15 H 1.537 -0.248 2.0943 0
M  V30 END ATOM
M  V30 BEGIN BOND
M  V30 1 1 1 2
M  V30 2 1 2 3
M  V30 3 1 2 4
M  V30 4 1 4 5
M  V30 5 1 5 6
M  V30 6 1 2 7
M  V30 7 1 3 8
M  V30 8 1 4 9
M  V30 9 1 4 10
M  V30 10 1 5 11
M  V30 11 1 5 12
M  V30 12 1 6 13
M  V30 13 1 6 14
M  V30 14 1 6 15
M  V30 END BOND
M  V30 BEGIN COLLECTION
M  V30 MDLV30/STERAC1 ATOMS=(1 2)
M  V30 END COLLECTION
M  V30 END CTAB
M  END
>  <Column 1>
1346

>  <level_0>
1494

>  <index>
1494

>  <Unnamed: 0>
1494

>  <NO.>
1506

>  <Name>
chlorobutanol

>  <IUPAC_name>
1-chlorobutan-1-ol

>  <SMILES>
CCCC(O)Cl

>  <CID>
13592249

>  <logBB>


>  <BBB+/BBB->
BBB+

>  <Inchi>
InChI=1S/C4H9ClO/c1-2-3-4(5)6/h4-6H-2-3H2-1H3

>  <threshold>
-1

>  <reference>
R1|R27|R30|

>  <group>
B

>  <Class>
1

>  <ABC>
3.75

>  <ABCGG>
4.06

>  <nAcid>
0

>  <nBase>
0

>  <nAromAtom>
0

>  <nAromBond>
0

>  <nAtom>
15

>  <nHeavyAtom>
6

>  <nSpiro>
0

>  <nBridgehead>
0

>  <nHetero>
2

>  <nN>
0

>  <nO>
1

>  <nF>
0

>  <BalabanJ>
2.63

>  <BertzCT>
28.73

>  <nBonds>
14

>  <nBondsO>
5

>  <nBondsS>
14

>  <nBondsD>
0

>  <nBondsT>
0

>  <nBondsA>
0

>  <nBondsM>
0

>  <nBondsKS>
14

>  <nBondsKD>
0

>  <RNCG>
0.63

>  <RPCG>
0.35

>  <FCSP3>
1

>  <SZ>
9.67

>  <Sm>
9.04

>  <Sv>
8.24

>  <Sse>
15.09

>  <Sp>
9.38

>  <Si>
17.23

>  <MZ>
0.64

>  <Mm>
0.6

>  <Mv>
0.55

>  <Mse>
1.01

>  <Mp>
0.63

>  <Mi>
1.15

>  <NsCH3>
1

>  <NdCH2>
0

>  <NssCH2>
2

>  <NtCH>
0

>  <NdsCH>
0

>  <NaaCH>
0

>  <NsssCH>
1

>  <NddC>
0

>  <NtsC>
0

>  <NdssC>
0

>  <NaasC>
0

>  <NaaaC>
0

>  <NssssC>
0

>  <NsNH3>
0

>  <NsNH2>
0

>  <NssNH2>
0

>  <NdNH>
0

>  <NssNH>
0

>  <NaaNH>
0

>  <NtN>
0

>  <NsssNH>
0

>  <NdsN>
0

>  <NaaN>
0

>  <NsssN>
0

>  <NddsN>
0

>  <NaasN>
0

>  <NssssN>
0

>  <NsOH>
1

>  <NdO>
0

>  <NssO>
0

>  <NaaO>
0

>  <NsF>
0

>  <NsSiH3>
0

>  <NssSiH2>
0

>  <NsssSiH>
0

>  <NssssSi>
0

>  <NsPH2>
0

>  <NssPH>
0

>  <NsssP>
0

>  <NdsssP>
0

>  <NsssssP>
0

>  <NsSH>
0

>  <NdS>
0

>  <NssS>
0

>  <NaaS>
0

>  <NdssS>
0

>  <NddssS>
0

>  <NsCl>
1

>  <NsBr>
0

>  <NsI>
0

>  <fragCpx>
5.02

>  <fMF>
0

>  <nHBAcc>
1

>  <nHBDon>
1

>  <Kier1>
6

>  <Kier2>
3.2

>  <Lipinski>
1

>  <GhoseFilter>
0

>  <FilterItLogS>
-1.1

>  <VMcGowan>
85.33

>  <LabuteASA>
42.93

>  <PEOE_VSA1>
5.11

>  <PEOE_VSA2>
0

>  <PEOE_VSA3>
0

>  <PEOE_VSA4>
0

>  <PEOE_VSA5>
0

>  <PEOE_VSA6>
24.95

>  <PEOE_VSA7>
6.42

>  <PEOE_VSA8>
0

>  <PEOE_VSA9>
0

>  <PEOE_VSA10>
5.56

>  <PEOE_VSA11>
0

>  <PEOE_VSA12>
0

>  <PEOE_VSA13>
0

>  <SMR_VSA1>
5.11

>  <SMR_VSA2>
0

>  <SMR_VSA3>
0

>  <SMR_VSA4>
0

>  <SMR_VSA5>
25.33

>  <SMR_VSA6>
0

>  <SMR_VSA7>
0

>  <SMR_VSA8>
0

>  <SMR_VSA9>
0

>  <SlogP_VSA1>
0

>  <SlogP_VSA2>
10.67

>  <SlogP_VSA3>
0

>  <SlogP_VSA4>
0

>  <SlogP_VSA5>
19.77

>  <SlogP_VSA6>
0

>  <SlogP_VSA7>
0

>  <SlogP_VSA8>
0

>  <SlogP_VSA9>
0

>  <SlogP_VSA10>
0

>  <SlogP_VSA11>
0

>  <EState_VSA1>
5.56

>  <EState_VSA2>
0

>  <EState_VSA3>
6.42

>  <EState_VSA4>
6.42

>  <EState_VSA5>
0

>  <EState_VSA6>
0

>  <EState_VSA7>
6.92

>  <EState_VSA8>
0

>  <EState_VSA9>
16.71

>  <EState_VSA10>
0

>  <VSA_EState1>
0

>  <VSA_EState2>
0

>  <VSA_EState3>
8.32

>  <VSA_EState4>
-0.63

>  <VSA_EState5>
0

>  <VSA_EState6>
0

>  <VSA_EState7>
1.65

>  <VSA_EState8>
1.98

>  <VSA_EState9>
0

>  <apol>
15.66

>  <bpol>
9.54

>  <nRing>
0

>  <nHRing>
0

>  <naRing>
0

>  <naHRing>
0

>  <nARing 2>
0

>  <nAHRing 2>
0

>  <nFRing>
0

>  <nFHRing>
0

>  <nFaRing>
0

>  <nFaHRing>
0

>  <nFARing 2>
0

>  <nFAHRing 2>
0

>  <nRot>
2

>  <SLogP>
1.34

>  <SMR>
26.77

>  <TopoPSA(NO)>
20.23

>  <TopoPSA>
20.23

>  <JGI1>
0.3

>  <JGI2>
0.09

>  <JGI3>
0.08

>  <JGI4>
0

>  <JGI5>
0

>  <Diameter>
4

>  <Radius>
2

>  <TMWC10>
60.96

>  <TSRW10>
29.44

>  <MW>
108.03

>  <AMW>
7.2

>  <WPath>
32

>  <WPol>
3

>  <Zagreb1>
20

>  <Zagreb2>
18

>  <mZagreb2>
1.58

>  <yes>


>  <nAR-cont>
0.336376

>  <nHA-cont>
0.238778273

>  <MWHBN>
0.192423366

>  <MWHBN-cont>
0.997009309

>  <TPSA-cont>
0.858782038

>  <pka_cont>
0.97

>  <yes.1>


>  <BBB_SCORE>
4.273232312

>  <MMFF94 Energy>
-11.429

$$$$
Compound 1140
Actelion Java MolfileCreator 2.0

  0  0  0  0  0  0              0 V3000
M  V30 BEGIN CTAB
M  V30 COUNTS 38 39 0 0 0
M  V30 BEGIN ATOM
M  V30 1 O 1.0301 1.0301 1.1159 0
M  V30 2 C -0.267 0.5073 2.0424 0
M  V30 3 B 0.8993 0.6126 -0.4027 0
M  V30 4 C -1.8216 1.0346 1.2621 0
M  V30 5 O -0.3933 0.9086 -1.2293 0
M  V30 6 C 2.2884 -0.2319 -1.1886 0
M  V30 7 C -1.8053 0.4564 -0.459 0
M  V30 8 C -3.2426 0.3421 2.1629 0
M  V30 9 C -1.9246 2.8517 1.2991 0
M  V30 10 C 2.2338 -0.6874 -2.7176 0
M  V30 11 C 3.6309 -0.518 -0.3564 0
M  V30 12 C -4.5543 0.7528 1.5223 0
M  V30 13 C 3.4744 -1.4176 -3.398 0
M  V30 14 C 4.8706 -1.2452 -1.0333 0
M  V30 15 C -5.7774 0.1969 2.2413 0
M  V30 16 C 4.798 -1.7012 -2.5579 0
M  V30 17 C 6.1695 -2.5136 -3.3129 0
M  V30 18 H -0.2226 -0.6472 2.128 0
M  V30 19 H -0.1636 0.9411 3.1137 0
M  V30 20 H -2.7153 0.8958 -1.0507 0
M  V30 21 H -1.9225 -0.6918 -0.5247 0
M  V30 22 H -3.2307 0.6702 3.2146 0
M  V30 23 H -3.1803 -0.7571 2.1966 0
M  V30 24 H -1.0232 3.3098 0.736 0
M  V30 25 H -2.9038 3.1915 0.7822 0
M  V30 26 H -1.9183 3.2266 2.3942 0
M  V30 27 H 1.3462 -0.5015 -3.3079 0
M  V30 28 H 3.7072 -0.2139 0.6814 0
M  V30 29 H -4.6197 1.8477 1.538 0
M  V30 30 H -4.5826 0.449 0.4687 0
M  V30 31 H 3.4133 -1.7236 -4.4354 0
M  V30 32 H 5.7682 -1.4347 -0.4567 0
M  V30 33 H -6.6918 0.5763 1.774 0
M  V30 34 H -5.8088 -0.8958 2.197 0
M  V30 35 H -5.7854 0.5003 3.2932 0
M  V30 36 H 5.812 -3.5141 -3.7734 0
M  V30 37 H 6.9819 -2.7221 -2.5175 0
M  V30 38 H 6.6024 -1.8381 -4.1458 0
M  V30 END ATOM
M  V30 BEGIN BOND
M  V30 1 1 1 2
M  V30 2 1 1 3
M  V30 3 1 2 4
M  V30 4 1 3 5
M  V30 5 1 3 6
M  V30 6 1 4 7
M  V30 7 1 4 8
M  V30 8 1 4 9
M  V30 9 2 6 10
M  V30 10 1 6 11
M  V30 11 1 8 12
M  V30 12 1 10 13
M  V30 13 2 11 14
M  V30 14 1 12 15
M  V30 15 2 13 16
M  V30 16 1 16 17
M  V30 17 1 5 7
M  V30 18 1 14 16
M  V30 19 1 2 18
M  V30 20 1 2 19
M  V30 21 1 7 20
M  V30 22 1 7 21
M  V30 23 1 8 22
M  V30 24 1 8 23
M  V30 25 1 9 24
M  V30 26 1 9 25
M  V30 27 1 9 26
M  V30 28 1 10 27
M  V30 29 1 11 28
M  V30 30 1 12 29
M  V30 31 1 12 30
M  V30 32 1 13 31
M  V30 33 1 14 32
M  V30 34 1 15 33
M  V30 35 1 15 34
M  V30 36 1 15 35
M  V30 37 1 17 36
M  V30 38 1 17 37
M  V30 39 1 17 38
M  V30 END BOND
M  V30 END CTAB
M  END
>  <Column 1>
1347

>  <level_0>
1495

>  <index>
1495

>  <Unnamed: 0>
1495

>  <NO.>
1507

>  <Name>
tolboxane

>  <IUPAC_name>
5-methyl-2-(4-methylphenyl)-5-propyl-1-3-2-dioxaborinane

>  <SMILES>
CCCC1(C)COB(c2ccc(C)cc2)OC1

>  <CID>
72134

>  <logBB>


>  <BBB+/BBB->
BBB+

>  <Inchi>
InChI=1S/C14H21BO2/c1-4-9-14(3)10-16-15(17-11-14)13-7-5-12(2)6-8-13/h5-8H-4-9-11H2-1-3H3

>  <threshold>
-1

>  <reference>
R1|R13|R19|R6|R24|R27|R27|R27|R30|R30|

>  <group>
B

>  <Class>
-1

>  <ABC>
12.96

>  <ABCGG>
10.67

>  <nAcid>
0

>  <nBase>
0

>  <nAromAtom>
6

>  <nAromBond>
6

>  <nAtom>
38

>  <nHeavyAtom>
17

>  <nSpiro>
0

>  <nBridgehead>
0

>  <nHetero>
3

>  <nN>
0

>  <nO>
2

>  <nF>
0

>  <BalabanJ>
1.79

>  <BertzCT>
352.99

>  <nBonds>
39

>  <nBondsO>
18

>  <nBondsS>
33

>  <nBondsD>
0

>  <nBondsT>
0

>  <nBondsA>
6

>  <nBondsM>
6

>  <nBondsKS>
36

>  <nBondsKD>
3

>  <RNCG>
0.29

>  <RPCG>
0.36

>  <FCSP3>
0.57

>  <SZ>
21

>  <Sm>
19.33

>  <Sv>
22.56

>  <Sse>
37.31

>  <Sp>
25.16

>  <Si>
42.52

>  <MZ>
0.55

>  <Mm>
0.51

>  <Mv>
0.59

>  <Mse>
0.98

>  <Mp>
0.66

>  <Mi>
1.12

>  <NsCH3>
3

>  <NdCH2>
0

>  <NssCH2>
4

>  <NtCH>
0

>  <NdsCH>
0

>  <NaaCH>
4

>  <NsssCH>
0

>  <NddC>
0

>  <NtsC>
0

>  <NdssC>
0

>  <NaasC>
2

>  <NaaaC>
0

>  <NssssC>
1

>  <NsNH3>
0

>  <NsNH2>
0

>  <NssNH2>
0

>  <NdNH>
0

>  <NssNH>
0

>  <NaaNH>
0

>  <NtN>
0

>  <NsssNH>
0

>  <NdsN>
0

>  <NaaN>
0

>  <NsssN>
0

>  <NddsN>
0

>  <NaasN>
0

>  <NssssN>
0

>  <NsOH>
0

>  <NdO>
0

>  <NssO>
2

>  <NaaO>
0

>  <NsF>
0

>  <NsSiH3>
0

>  <NssSiH2>
0

>  <NsssSiH>
0

>  <NssssSi>
0

>  <NsPH2>
0

>  <NssPH>
0

>  <NsssP>
0

>  <NdsssP>
0

>  <NsssssP>
0

>  <NsSH>
0

>  <NdS>
0

>  <NssS>
0

>  <NaaS>
0

>  <NdssS>
0

>  <NddssS>
0

>  <NsCl>
0

>  <NsBr>
0

>  <NsI>
0

>  <fragCpx>
52.03

>  <fMF>
0.32

>  <nHBAcc>
2

>  <nHBDon>
0

>  <Kier1>
13.43

>  <Kier2>
5.76

>  <Lipinski>
1

>  <GhoseFilter>
1

>  <FilterItLogS>
-4.11

>  <VMcGowan>
199.14

>  <LabuteASA>
104.46

>  <PEOE_VSA1>
9.31

>  <PEOE_VSA2>
0

>  <PEOE_VSA3>
0

>  <PEOE_VSA4>
0

>  <PEOE_VSA5>
0

>  <PEOE_VSA6>
50.1

>  <PEOE_VSA7>
18.81

>  <PEOE_VSA8>
18.63

>  <PEOE_VSA9>
0

>  <PEOE_VSA10>
0

>  <PEOE_VSA11>
0

>  <PEOE_VSA12>
0

>  <PEOE_VSA13>
0

>  <SMR_VSA1>
9.31

>  <SMR_VSA2>
0

>  <SMR_VSA3>
0

>  <SMR_VSA4>
5.41

>  <SMR_VSA5>
33.61

>  <SMR_VSA6>
13.21

>  <SMR_VSA7>
29.83

>  <SMR_VSA8>
0

>  <SMR_VSA9>
0

>  <SlogP_VSA1>
5.46

>  <SlogP_VSA2>
20.33

>  <SlogP_VSA3>
9.31

>  <SlogP_VSA4>
12.34

>  <SlogP_VSA5>
32.25

>  <SlogP_VSA6>
24.27

>  <SlogP_VSA7>
0

>  <SlogP_VSA8>
0

>  <SlogP_VSA9>
0

>  <SlogP_VSA10>
0

>  <SlogP_VSA11>
0

>  <EState_VSA1>
0

>  <EState_VSA2>
12.53

>  <EState_VSA3>
0

>  <EState_VSA4>
25.1

>  <EState_VSA5>
11.98

>  <EState_VSA6>
0

>  <EState_VSA7>
0

>  <EState_VSA8>
45.04

>  <EState_VSA9>
9.31

>  <EState_VSA10>
0

>  <VSA_EState1>
11.7

>  <VSA_EState2>
0

>  <VSA_EState3>
0

>  <VSA_EState4>
2.57

>  <VSA_EState5>
0

>  <VSA_EState6>
8.37

>  <VSA_EState7>
2.34

>  <VSA_EState8>
8.11

>  <VSA_EState9>
-0.18

>  <apol>
42.02

>  <bpol>
28.62

>  <nRing>
2

>  <nHRing>
1

>  <naRing>
1

>  <naHRing>
0

>  <nARing 2>
1

>  <nAHRing 2>
1

>  <nFRing>
0

>  <nFHRing>
0

>  <nFaRing>
0

>  <nFaHRing>
0

>  <nFARing 2>
0

>  <nFAHRing 2>
0

>  <nRot>
3

>  <SLogP>
2.54

>  <SMR>
71.49

>  <TopoPSA(NO)>
18.46

>  <TopoPSA>
18.46

>  <JGI1>
0.25

>  <JGI2>
0.1

>  <JGI3>
0.03

>  <JGI4>
0.04

>  <JGI5>
0.04

>  <Diameter>
11

>  <Radius>
6

>  <TMWC10>
105.77

>  <TSRW10>
49.69

>  <MW>
232.16

>  <AMW>
6.11

>  <WPath>
556

>  <WPol>
24

>  <Zagreb1>
86

>  <Zagreb2>
98

>  <mZagreb2>
3.82

>  <yes>


>  <nAR-cont>
0.816016

>  <nHA-cont>
0.976740822

>  <MWHBN>
0.131261178

>  <MWHBN-cont>
0.874156572

>  <TPSA-cont>
0.871137737

>  <pka_cont>
0.97

>  <yes.1>


>  <BBB_SCORE>
5.331267154

>  <MMFF94 Energy>
Couldn't assign an atom type to atom 2 (B)

$$$$
Compound 1141
Actelion Java MolfileCreator 2.0

  0  0  0  0  0  0              0 V3000
M  V30 BEGIN CTAB
M  V30 COUNTS 68 71 0 0 0
M  V30 BEGIN ATOM
M  V30 1 O -2.4088 3.4539 5.9497 0
M  V30 2 C -2.224 2.4556 5.2654 0
M  V30 3 C -0.93 1.7472 5.2732 0
M  V30 4 C -3.2797 1.9112 4.3965 0
M  V30 5 C -0.7141 0.6449 4.5323 0
M  V30 6 C -3.0669 0.812 3.6612 0
M  V30 7 C -1.7731 0.0049 3.6142 0
M  V30 8 C 0.6504 0.0097 4.5305 0
M  V30 9 C -1.1703 -0.074 2.1478 0
M  V30 10 C -2.1335 -1.3942 4.1642 0
M  V30 11 C 1.2096 -0.0093 3.1152 0
M  V30 12 C -2.0786 -0.7599 1.0752 0
M  V30 13 C 0.2596 -0.7278 2.1454 0
M  V30 14 O -3.2891 -0.0289 0.8931 0
M  V30 15 C -1.4205 -0.8519 -0.319 0
M  V30 16 C 0.8218 -0.7179 0.7181 0
M  V30 17 C -0.0377 -1.518 -0.2872 0
M  V30 18 C 2.2267 -1.2615 0.4892 0
M  V30 19 C 0.8439 -1.3674 -1.5858 0
M  V30 20 C -0.2045 -3.0128 0.1055 0
M  V30 21 C 2.2865 -1.565 -1.0203 0
M  V30 22 O 0.7107 -0.0012 -2.0478 0
M  V30 23 C 0.4695 -2.4288 -2.653 0
M  V30 24 C 1.3923 0.3824 -3.1628 0
M  V30 25 O 0.9968 -3.546 -2.6975 0
M  V30 26 C -0.6501 -2.0874 -3.6293 0
M  V30 27 O 2.0417 -0.3726 -3.868 0
M  V30 28 C 1.1932 1.861 -3.3925 0
M  V30 29 O -1.3691 -3.2558 -3.9995 0
M  V30 30 C 1.9597 2.3545 -4.6178 0
M  V30 31 C 1.7539 3.8527 -4.8363 0
M  V30 32 C 2.5153 4.3477 -6.0556 0
M  V30 33 H -0.1677 2.1922 5.9029 0
M  V30 34 H -4.2271 2.436 4.3968 0
M  V30 35 H -3.9049 0.4493 3.0712 0
M  V30 36 H 1.3478 0.5536 5.1795 0
M  V30 37 H 0.5905 -1.0082 4.9321 0
M  V30 38 H -1.0495 0.9713 1.818 0
M  V30 39 H -2.4405 -1.3394 5.2169 0
M  V30 40 H -1.2968 -2.0971 4.1129 0
M  V30 41 H -2.9674 -1.8453 3.6138 0
M  V30 42 H 1.389 1.0181 2.7721 0
M  V30 43 H 2.1837 -0.5118 3.1343 0
M  V30 44 H -2.3584 -1.7618 1.4142 0
M  V30 45 H 0.1819 -1.7647 2.4893 0
M  V30 46 H -3.8424 -0.5158 0.257 0
M  V30 47 H -1.3599 0.1621 -0.7353 0
M  V30 48 H -2.0926 -1.3967 -0.9936 0
M  V30 49 H 0.8452 0.3388 0.4063 0
M  V30 50 H 2.9954 -0.5355 0.7743 0
M  V30 51 H 2.4054 -2.1743 1.0688 0
M  V30 52 H 0.7463 -3.5543 0.1143 0
M  V30 53 H -0.8666 -3.5265 -0.601 0
M  V30 54 H -0.6509 -3.1474 1.0939 0
M  V30 55 H 2.6599 -2.5849 -1.1612 0
M  V30 56 H 3.0112 -0.8928 -1.4913 0
M  V30 57 H -1.3569 -1.3883 -3.18 0
M  V30 58 H -0.2231 -1.6403 -4.5301 0
M  V30 59 H 1.539 2.3947 -2.4999 0
M  V30 60 H 0.1211 2.0442 -3.526 0
M  V30 61 H -0.6928 -3.9472 -4.1501 0
M  V30 62 H 1.6297 1.8023 -5.5067 0
M  V30 63 H 3.0291 2.1419 -4.4944 0
M  V30 64 H 0.6867 4.0669 -4.9673 0
M  V30 65 H 2.0902 4.4078 -3.9526 0
M  V30 66 H 2.3539 5.4216 -6.1931 0
M  V30 67 H 3.5907 4.1775 -5.9424 0
M  V30 68 H 2.1795 3.8349 -6.9626 0
M  V30 END ATOM
M  V30 BEGIN BOND
M  V30 1 2 1 2
M  V30 2 1 2 3
M  V30 3 1 2 4
M  V30 4 2 3 5
M  V30 5 2 4 6
M  V30 6 1 5 7
M  V30 7 1 5 8
M  V30 8 1 7 9
M  V30 9 1 7 10
M  V30 10 1 8 11
M  V30 11 1 9 12
M  V30 12 1 9 13
M  V30 13 1 12 14
M  V30 14 1 12 15
M  V30 15 1 13 16
M  V30 16 1 15 17
M  V30 17 1 16 18
M  V30 18 1 17 19
M  V30 19 1 17 20
M  V30 20 1 18 21
M  V30 21 1 19 22
M  V30 22 1 19 23
M  V30 23 1 22 24
M  V30 24 2 23 25
M  V30 25 1 23 26
M  V30 26 2 24 27
M  V30 27 1 24 28
M  V30 28 1 26 29
M  V30 29 1 28 30
M  V30 30 1 30 31
M  V30 31 1 31 32
M  V30 32 1 6 7
M  V30 33 1 11 13
M  V30 34 1 16 17
M  V30 35 1 19 21
M  V30 36 1 3 33
M  V30 37 1 4 34
M  V30 38 1 6 35
M  V30 39 1 8 36
M  V30 40 1 8 37
M  V30 41 1 9 38
M  V30 42 1 10 39
M  V30 43 1 10 40
M  V30 44 1 10 41
M  V30 45 1 11 42
M  V30 46 1 11 43
M  V30 47 1 12 44
M  V30 48 1 13 45
M  V30 49 1 14 46
M  V30 50 1 15 47
M  V30 51 1 15 48
M  V30 52 1 16 49
M  V30 53 1 18 50
M  V30 54 1 18 51
M  V30 55 1 20 52
M  V30 56 1 20 53
M  V30 57 1 20 54
M  V30 58 1 21 55
M  V30 59 1 21 56
M  V30 60 1 26 57
M  V30 61 1 26 58
M  V30 62 1 28 59
M  V30 63 1 28 60
M  V30 64 1 29 61
M  V30 65 1 30 62
M  V30 66 1 30 63
M  V30 67 1 31 64
M  V30 68 1 31 65
M  V30 69 1 32 66
M  V30 70 1 32 67
M  V30 71 1 32 68
M  V30 END BOND
M  V30 END CTAB
M  END
>  <Column 1>
1349

>  <level_0>
1497

>  <index>
1497

>  <Unnamed: 0>
1497

>  <NO.>
1509

>  <Name>
prednival

>  <IUPAC_name>
[11-hydroxy-17-(2-hydroxyacetyl)-10-13-dimethyl-3-oxo-7-8-9-11-12-14-15-16-octahydro-6h-cyclopenta[a]phenanthren-17-yl] pentanoate

>  <SMILES>
CCCCC(=O)OC1(C(=O)CO)CCC2C3CCC4=CC(=O)C=CC4(C)C3C(O)CC21C

>  <CID>
27123

>  <logBB>


>  <BBB+/BBB->
BBB+

>  <Inchi>
InChI=1S/C26H36O6/c1-4-5-6-22(31)32-26(21(30)15-27)12-10-19-18-8-7-16-13-17(28)9-11-24(16-2)23(18)20(29)14-25(19-26)3/h9-11-13-18-20-23-27-29H-4-8-10-12-14-15H2-1-3H3

>  <threshold>
-1

>  <reference>
R1|R19|R27|R27|R30|

>  <group>
B

>  <Class>
1

>  <ABC>
25.04

>  <ABCGG>
20.49

>  <nAcid>
0

>  <nBase>
0

>  <nAromAtom>
0

>  <nAromBond>
0

>  <nAtom>
68

>  <nHeavyAtom>
32

>  <nSpiro>
0

>  <nBridgehead>
0

>  <nHetero>
6

>  <nN>
0

>  <nO>
6

>  <nF>
0

>  <BalabanJ>
1.65

>  <BertzCT>
873.54

>  <nBonds>
71

>  <nBondsO>
35

>  <nBondsS>
66

>  <nBondsD>
5

>  <nBondsT>
0

>  <nBondsA>
0

>  <nBondsM>
5

>  <nBondsKS>
66

>  <nBondsKD>
5

>  <RNCG>
0.17

>  <RPCG>
0.11

>  <FCSP3>
0.73

>  <SZ>
40

>  <Sm>
37.01

>  <Sv>
40.04

>  <Sse>
67.97

>  <Sp>
43.26

>  <Si>
76.73

>  <MZ>
0.59

>  <Mm>
0.54

>  <Mv>
0.59

>  <Mse>
1

>  <Mp>
0.64

>  <Mi>
1.13

>  <NsCH3>
3

>  <NdCH2>
0

>  <NssCH2>
9

>  <NtCH>
0

>  <NdsCH>
3

>  <NaaCH>
0

>  <NsssCH>
4

>  <NddC>
0

>  <NtsC>
0

>  <NdssC>
4

>  <NaasC>
0

>  <NaaaC>
0

>  <NssssC>
3

>  <NsNH3>
0

>  <NsNH2>
0

>  <NssNH2>
0

>  <NdNH>
0

>  <NssNH>
0

>  <NaaNH>
0

>  <NtN>
0

>  <NsssNH>
0

>  <NdsN>
0

>  <NaaN>
0

>  <NsssN>
0

>  <NddsN>
0

>  <NaasN>
0

>  <NssssN>
0

>  <NsOH>
2

>  <NdO>
3

>  <NssO>
1

>  <NaaO>
0

>  <NsF>
0

>  <NsSiH3>
0

>  <NssSiH2>
0

>  <NsssSiH>
0

>  <NssssSi>
0

>  <NsPH2>
0

>  <NssPH>
0

>  <NsssP>
0

>  <NdsssP>
0

>  <NsssssP>
0

>  <NsSH>
0

>  <NdS>
0

>  <NssS>
0

>  <NaaS>
0

>  <NdssS>
0

>  <NddssS>
0

>  <NsCl>
0

>  <NsBr>
0

>  <NsI>
0

>  <fragCpx>
233.06

>  <fMF>
0.25

>  <nHBAcc>
6

>  <nHBDon>
2

>  <Kier1>
25.1

>  <Kier2>
9.22

>  <Lipinski>
1

>  <GhoseFilter>
1

>  <FilterItLogS>
-3.96

>  <VMcGowan>
347.48

>  <LabuteASA>
189.65

>  <PEOE_VSA1>
14.95

>  <PEOE_VSA2>
14.38

>  <PEOE_VSA3>
0

>  <PEOE_VSA4>
0

>  <PEOE_VSA5>
0

>  <PEOE_VSA6>
38.84

>  <PEOE_VSA7>
62.51

>  <PEOE_VSA8>
23.17

>  <PEOE_VSA9>
6.1

>  <PEOE_VSA10>
6.61

>  <PEOE_VSA11>
11.38

>  <PEOE_VSA12>
5.78

>  <PEOE_VSA13>
0

>  <SMR_VSA1>
29.33

>  <SMR_VSA2>
0

>  <SMR_VSA3>
0

>  <SMR_VSA4>
28.58

>  <SMR_VSA5>
83.84

>  <SMR_VSA6>
6.61

>  <SMR_VSA7>
23.8

>  <SMR_VSA8>
0

>  <SMR_VSA9>
0

>  <SlogP_VSA1>
0

>  <SlogP_VSA2>
46.06

>  <SlogP_VSA3>
19.12

>  <SlogP_VSA4>
28.58

>  <SlogP_VSA5>
72.14

>  <SlogP_VSA6>
23.8

>  <SlogP_VSA7>
0

>  <SlogP_VSA8>
0

>  <SlogP_VSA9>
0

>  <SlogP_VSA10>
0

>  <SlogP_VSA11>
0

>  <EState_VSA1>
35.48

>  <EState_VSA2>
35.37

>  <EState_VSA3>
19.26

>  <EState_VSA4>
31.26

>  <EState_VSA5>
0

>  <EState_VSA6>
12.15

>  <EState_VSA7>
19.92

>  <EState_VSA8>
6.92

>  <EState_VSA9>
4.74

>  <EState_VSA10>
24.6

>  <VSA_EState1>
5.97

>  <VSA_EState2>
37.77

>  <VSA_EState3>
21.31

>  <VSA_EState4>
-1.43

>  <VSA_EState5>
-0.68

>  <VSA_EState6>
0

>  <VSA_EState7>
9.42

>  <VSA_EState8>
5.39

>  <VSA_EState9>
0

>  <apol>
72.24

>  <bpol>
40.46

>  <nRing>
4

>  <nHRing>
0

>  <naRing>
0

>  <naHRing>
0

>  <nARing 2>
4

>  <nAHRing 2>
0

>  <nFRing>
1

>  <nFHRing>
0

>  <nFaRing>
0

>  <nFaHRing>
0

>  <nFARing 2>
1

>  <nFAHRing 2>
0

>  <nRot>
6

>  <SLogP>
3.3

>  <SMR>
118.45

>  <TopoPSA(NO)>
100.9

>  <TopoPSA>
100.9

>  <JGI1>
0.27

>  <JGI2>
0.13

>  <JGI3>
0.07

>  <JGI4>
0.06

>  <JGI5>
0.03

>  <Diameter>
15

>  <Radius>
8

>  <TMWC10>
148.29

>  <TSRW10>
83.82

>  <MW>
444.25

>  <AMW>
6.53

>  <WPath>
2622

>  <WPol>
68

>  <Zagreb1>
180

>  <Zagreb2>
227

>  <mZagreb2>
6.98

>  <yes>


>  <nAR-cont>
0.199399

>  <nHA-cont>
0.658856097

>  <MWHBN>
0.379556356

>  <MWHBN-cont>
0.556545739

>  <TPSA-cont>
0.295655345

>  <pka_cont>
0.97

>  <yes.1>


>  <BBB_SCORE>
2.769384395

>  <MMFF94 Energy>
107.53

$$$$
Compound 1142
Actelion Java MolfileCreator 2.0

  0  0  0  0  0  0              0 V3000
M  V30 BEGIN CTAB
M  V30 COUNTS 68 71 0 0 0
M  V30 BEGIN ATOM
M  V30 1 F -3.0607 -2.0128 -1.1268 0
M  V30 2 C -2.1758 -2.8416 -1.7454 0
M  V30 3 C -1.4893 -3.7281 -0.7487 0
M  V30 4 C -1.1479 -1.9979 -2.4788 0
M  V30 5 C -1.6299 -5.063 -0.852 0
M  V30 6 C -0.6003 -3.031 0.2967 0
M  V30 7 C -0.3125 -1.1436 -1.5007 0
M  V30 8 C -0.9132 -5.9981 0.0335 0
M  V30 9 C 0.1335 -4.0817 1.132 0
M  V30 10 C 0.4101 -2.0525 -0.4521 0
M  V30 11 C -1.4961 -2.2636 1.2976 0
M  V30 12 C 0.6616 -0.2348 -2.3057 0
M  V30 13 O -1.0634 -7.2088 -0.0645 0
M  V30 14 C -0.001 -5.41 1.025 0
M  V30 15 C 1.2609 -1.1421 0.4734 0
M  V30 16 C 1.7275 0.5321 -1.4767 0
M  V30 17 C -0.0956 0.884 -3.0555 0
M  V30 18 O 2.0162 -1.9085 1.407 0
M  V30 19 C 2.2755 -0.326 -0.3263 0
M  V30 20 C 0.9711 1.8521 -1.0538 0 CFG=1
M  V30 21 C 2.9393 0.8432 -2.4054 0
M  V30 22 C 0.2236 2.2109 -2.3577 0
M  V30 23 O -0.0022 1.5164 -0.0427 0
M  V30 24 C 1.9641 2.9705 -0.6311 0
M  V30 25 C -0.797 2.4987 0.4663 0
M  V30 26 O 2.512 3.7195 -1.4483 0
M  V30 27 C 2.3232 3.0885 0.8452 0
M  V30 28 O -0.6821 3.6845 0.2024 0
M  V30 29 C -1.8291 1.8919 1.3872 0
M  V30 30 O 3.7005 3.3964 1.0025 0
M  V30 31 C -2.4321 2.9081 2.3556 0
M  V30 32 C -1.4394 3.3418 3.4373 0
M  V30 33 C -2.071 4.3293 4.4063 0
M  V30 34 H -2.7509 -3.4212 -2.476 0
M  V30 35 H -0.4853 -2.6437 -3.0695 0
M  V30 36 H -1.6821 -1.3555 -3.1861 0
M  V30 37 H -2.2555 -5.5355 -1.6014 0
M  V30 38 H -1.0149 -0.4972 -0.9616 0
M  V30 39 H 0.7947 -3.7288 1.9188 0
M  V30 40 H 1.1108 -2.7013 -1.0015 0
M  V30 41 H -0.923 -1.8948 2.1567 0
M  V30 42 H -1.9839 -1.3948 0.8469 0
M  V30 43 H -2.2893 -2.9083 1.6976 0
M  V30 44 H 1.1635 -0.879 -3.0408 0
M  V30 45 H 0.5338 -6.1019 1.664 0
M  V30 46 H 0.6152 -0.4868 1.0617 0
M  V30 47 H 0.2345 0.9299 -4.1001 0
M  V30 48 H -1.1788 0.7313 -3.0738 0
M  V30 49 H 2.561 -1.2995 1.9366 0
M  V30 50 H 2.8709 0.2916 0.3561 0
M  V30 51 H 3.0054 -1.0429 -0.7324 0
M  V30 52 H 2.6729 1.4776 -3.2559 0
M  V30 53 H 3.7458 1.3391 -1.8541 0
M  V30 54 H 3.3596 -0.081 -2.82 0
M  V30 55 H -0.7046 2.7641 -2.1831 0
M  V30 56 H 0.8297 2.83 -3.0286 0
M  V30 57 H 1.7311 3.8882 1.2977 0
M  V30 58 H 2.125 2.1557 1.3752 0
M  V30 59 H -1.3702 1.0737 1.9537 0
M  V30 60 H -2.6205 1.473 0.7559 0
M  V30 61 H 3.8887 4.1099 0.3594 0
M  V30 62 H -3.3063 2.4526 2.8369 0
M  V30 63 H -2.7919 3.7874 1.8074 0
M  V30 64 H -1.0916 2.4647 3.9953 0
M  V30 65 H -0.5575 3.8059 2.9822 0
M  V30 66 H -1.347 4.6244 5.1723 0
M  V30 67 H -2.4014 5.2334 3.8849 0
M  V30 68 H -2.9364 3.8865 4.9097 0
M  V30 END ATOM
M  V30 BEGIN BOND
M  V30 1 1 1 2
M  V30 2 1 2 3
M  V30 3 1 2 4
M  V30 4 2 3 5
M  V30 5 1 3 6
M  V30 6 1 4 7
M  V30 7 1 5 8
M  V30 8 1 6 9
M  V30 9 1 6 10
M  V30 10 1 6 11
M  V30 11 1 7 12
M  V30 12 2 8 13
M  V30 13 1 8 14
M  V30 14 1 10 15
M  V30 15 1 12 16
M  V30 16 1 12 17
M  V30 17 1 15 18
M  V30 18 1 15 19
M  V30 19 1 16 20
M  V30 20 1 16 21
M  V30 21 1 17 22
M  V30 22 1 20 23
M  V30 23 1 20 24
M  V30 24 1 23 25
M  V30 25 2 24 26
M  V30 26 1 24 27
M  V30 27 2 25 28
M  V30 28 1 25 29
M  V30 29 1 27 30
M  V30 30 1 29 31
M  V30 31 1 31 32
M  V30 32 1 32 33
M  V30 33 1 7 10
M  V30 34 2 9 14
M  V30 35 1 16 19
M  V30 36 1 20 22
M  V30 37 1 2 34
M  V30 38 1 4 35
M  V30 39 1 4 36
M  V30 40 1 5 37
M  V30 41 1 7 38
M  V30 42 1 9 39
M  V30 43 1 10 40
M  V30 44 1 11 41
M  V30 45 1 11 42
M  V30 46 1 11 43
M  V30 47 1 12 44
M  V30 48 1 14 45
M  V30 49 1 15 46
M  V30 50 1 17 47
M  V30 51 1 17 48
M  V30 52 1 18 49
M  V30 53 1 19 50
M  V30 54 1 19 51
M  V30 55 1 21 52
M  V30 56 1 21 53
M  V30 57 1 21 54
M  V30 58 1 22 55
M  V30 59 1 22 56
M  V30 60 1 27 57
M  V30 61 1 27 58
M  V30 62 1 29 59
M  V30 63 1 29 60
M  V30 64 1 30 61
M  V30 65 1 31 62
M  V30 66 1 31 63
M  V30 67 1 32 64
M  V30 68 1 32 65
M  V30 69 1 33 66
M  V30 70 1 33 67
M  V30 71 1 33 68
M  V30 END BOND
M  V30 BEGIN COLLECTION
M  V30 MDLV30/STEABS ATOMS=(1 20)
M  V30 END COLLECTION
M  V30 END CTAB
M  END
>  <Column 1>
1350

>  <level_0>
1498

>  <index>
1498

>  <Unnamed: 0>
1498

>  <NO.>
1510

>  <Name>
fluprednisolone-valerate

>  <IUPAC_name>
[(17r)-6-fluoro-11-hydroxy-17-(2-hydroxyacetyl)-10-13-dimethyl-3-oxo-7-8-9-11-12-14-15-16-octahydro-6h-cyclopenta[a]phenanthren-17-yl] pentanoate

>  <SMILES>
CCCCC(=O)O[C@]1(C(=O)CO)CCC2C3CC(F)C4=CC(=O)C=CC4(C)C3C(O)CC21C

>  <CID>
31779

>  <logBB>


>  <BBB+/BBB->
BBB+

>  <Inchi>
InChI=1S/C26H35FO6/c1-4-5-6-22(32)33-26(21(31)14-28)10-8-17-16-12-19(27)18-11-15(29)7-9-24(18-2)23(16)20(30)13-25(17-26)3/h7-9-11-16-17-19-20-23-28-30H-4-6-8-10-12-14H2-1-3H3/t16?-17?-19?-20?-23?-24?-25?-26-/m0/s1

>  <threshold>
-1

>  <reference>
R1|R27|R30|

>  <group>
B

>  <Class>
1

>  <ABC>
25.82

>  <ABCGG>
21.33

>  <nAcid>
0

>  <nBase>
0

>  <nAromAtom>
0

>  <nAromBond>
0

>  <nAtom>
68

>  <nHeavyAtom>
33

>  <nSpiro>
0

>  <nBridgehead>
0

>  <nHetero>
7

>  <nN>
0

>  <nO>
6

>  <nF>
1

>  <BalabanJ>
1.68

>  <BertzCT>
910.46

>  <nBonds>
71

>  <nBondsO>
36

>  <nBondsS>
66

>  <nBondsD>
5

>  <nBondsT>
0

>  <nBondsA>
0

>  <nBondsM>
5

>  <nBondsKS>
66

>  <nBondsKD>
5

>  <RNCG>
0.16

>  <RPCG>
0.11

>  <FCSP3>
0.73

>  <SZ>
41.33

>  <Sm>
38.51

>  <Sv>
40.42

>  <Sse>
68.48

>  <Sp>
43.19

>  <Si>
77.07

>  <MZ>
0.61

>  <Mm>
0.57

>  <Mv>
0.59

>  <Mse>
1.01

>  <Mp>
0.64

>  <Mi>
1.13

>  <NsCH3>
3

>  <NdCH2>
0

>  <NssCH2>
8

>  <NtCH>
0

>  <NdsCH>
3

>  <NaaCH>
0

>  <NsssCH>
5

>  <NddC>
0

>  <NtsC>
0

>  <NdssC>
4

>  <NaasC>
0

>  <NaaaC>
0

>  <NssssC>
3

>  <NsNH3>
0

>  <NsNH2>
0

>  <NssNH2>
0

>  <NdNH>
0

>  <NssNH>
0

>  <NaaNH>
0

>  <NtN>
0

>  <NsssNH>
0

>  <NdsN>
0

>  <NaaN>
0

>  <NsssN>
0

>  <NddsN>
0

>  <NaasN>
0

>  <NssssN>
0

>  <NsOH>
2

>  <NdO>
3

>  <NssO>
1

>  <NaaO>
0

>  <NsF>
1

>  <NsSiH3>
0

>  <NssSiH2>
0

>  <NsssSiH>
0

>  <NssssSi>
0

>  <NsPH2>
0

>  <NssPH>
0

>  <NsssP>
0

>  <NdsssP>
0

>  <NsssssP>
0

>  <NsSH>
0

>  <NdS>
0

>  <NssS>
0

>  <NaaS>
0

>  <NdssS>
0

>  <NddssS>
0

>  <NsCl>
0

>  <NsBr>
0

>  <NsI>
0

>  <fragCpx>
240.07

>  <fMF>
0.25

>  <nHBAcc>
6

>  <nHBDon>
2

>  <Kier1>
26.07

>  <Kier2>
9.47

>  <Lipinski>
1

>  <GhoseFilter>
1

>  <FilterItLogS>
-3.99

>  <VMcGowan>
349.24

>  <LabuteASA>
193.81

>  <PEOE_VSA1>
14.95

>  <PEOE_VSA2>
14.38

>  <PEOE_VSA3>
4.39

>  <PEOE_VSA4>
0

>  <PEOE_VSA5>
0

>  <PEOE_VSA6>
33.27

>  <PEOE_VSA7>
61.67

>  <PEOE_VSA8>
23.17

>  <PEOE_VSA9>
6.1

>  <PEOE_VSA10>
12.78

>  <PEOE_VSA11>
11.38

>  <PEOE_VSA12>
5.78

>  <PEOE_VSA13>
0

>  <SMR_VSA1>
33.72

>  <SMR_VSA2>
0

>  <SMR_VSA3>
0

>  <SMR_VSA4>
28.58

>  <SMR_VSA5>
83.59

>  <SMR_VSA6>
6.61

>  <SMR_VSA7>
23.8

>  <SMR_VSA8>
0

>  <SMR_VSA9>
0

>  <SlogP_VSA1>
0

>  <SlogP_VSA2>
52.23

>  <SlogP_VSA3>
19.12

>  <SlogP_VSA4>
28.58

>  <SlogP_VSA5>
65.72

>  <SlogP_VSA6>
23.8

>  <SlogP_VSA7>
0

>  <SlogP_VSA8>
0

>  <SlogP_VSA9>
0

>  <SlogP_VSA10>
4.39

>  <SlogP_VSA11>
0

>  <EState_VSA1>
47.07

>  <EState_VSA2>
49.22

>  <EState_VSA3>
18.41

>  <EState_VSA4>
6.42

>  <EState_VSA5>
12.15

>  <EState_VSA6>
6.08

>  <EState_VSA7>
20.77

>  <EState_VSA8>
0

>  <EState_VSA9>
4.74

>  <EState_VSA10>
24.6

>  <VSA_EState1>
21.36

>  <VSA_EState2>
37.73

>  <VSA_EState3>
21.26

>  <VSA_EState4>
-2.81

>  <VSA_EState5>
-2

>  <VSA_EState6>
0

>  <VSA_EState7>
5.12

>  <VSA_EState8>
4.93

>  <VSA_EState9>
0

>  <apol>
72.13

>  <bpol>
40.57

>  <nRing>
4

>  <nHRing>
0

>  <naRing>
0

>  <naHRing>
0

>  <nARing 2>
4

>  <nAHRing 2>
0

>  <nFRing>
1

>  <nFHRing>
0

>  <nFaRing>
0

>  <nFaHRing>
0

>  <nFARing 2>
1

>  <nFAHRing 2>
0

>  <nRot>
6

>  <SLogP>
3.25

>  <SMR>
118.73

>  <TopoPSA(NO)>
100.9

>  <TopoPSA>
100.9

>  <JGI1>
0.28

>  <JGI2>
0.13

>  <JGI3>
0.07

>  <JGI4>
0.06

>  <JGI5>
0.03

>  <Diameter>
15

>  <Radius>
8

>  <TMWC10>
150.7

>  <TSRW10>
85

>  <MW>
462.24

>  <AMW>
6.8

>  <WPath>
2809

>  <WPol>
71

>  <Zagreb1>
186

>  <Zagreb2>
235

>  <mZagreb2>
7.17

>  <yes>


>  <nAR-cont>
0.199399

>  <nHA-cont>
0.61399562

>  <MWHBN>
0.372097048

>  <MWHBN-cont>
0.585708533

>  <TPSA-cont>
0.295655345

>  <pka_cont>
0.97

>  <yes.1>


>  <BBB_SCORE>
2.76826811

>  <MMFF94 Energy>
105.03

$$$$
Compound 1143
Actelion Java MolfileCreator 2.0

  0  0  0  0  0  0              0 V3000
M  V30 BEGIN CTAB
M  V30 COUNTS 70 73 0 0 0
M  V30 BEGIN ATOM
M  V30 1 O -5.7818 -5.299 0.0801 0
M  V30 2 C -5.1485 -4.2704 -0.148 0
M  V30 3 C -4.6315 -3.4741 0.9868 0
M  V30 4 C -4.9099 -3.7727 -1.5502 0
M  V30 5 C -4.0402 -2.2817 0.7984 0
M  V30 6 C -3.7584 -2.7705 -1.6231 0
M  V30 7 C -3.8491 -1.6334 -0.5744 0
M  V30 8 C -3.4239 -1.5508 1.9535 0
M  V30 9 C -2.5891 -0.6636 -0.56 0
M  V30 10 C -5.1017 -0.7692 -0.8729 0
M  V30 11 C -1.9096 -1.5557 1.777 0
M  V30 12 C -2.0532 -0.2601 -1.9548 0
M  V30 13 C -1.4357 -1.163 0.3535 0
M  V30 14 O -1.5608 -1.3811 -2.6746 0
M  V30 15 C -0.9323 0.7793 -1.8444 0
M  V30 16 C -0.2542 -0.1578 0.4309 0
M  V30 17 C 0.2654 0.3636 -0.935 0
M  V30 18 C -0.5419 1.1228 1.2409 0
M  V30 19 C 1.138 1.6073 -0.4899 0 CFG=1
M  V30 20 C 1.1221 -0.7188 -1.6258 0
M  V30 21 C 0.238 2.2632 0.5808 0
M  V30 22 O 2.3254 1.1042 0.168 0
M  V30 23 C 1.4123 2.5545 -1.6885 0
M  V30 24 C 3.2412 1.9917 0.6441 0
M  V30 25 O 0.6237 3.4465 -2.0241 0
M  V30 26 C 2.67 2.3167 -2.5158 0
M  V30 27 O 3.1849 3.1993 0.4765 0
M  V30 28 C 4.3311 1.2481 1.3771 0
M  V30 29 O 2.4565 2.6916 -3.8704 0
M  V30 30 C 5.3767 2.198 1.9573 0
M  V30 31 C 6.471 1.4335 2.7003 0
M  V30 32 C 7.5141 2.3759 3.2791 0
M  V30 33 H -4.7425 -3.9297 1.9645 0
M  V30 34 H -5.8407 -3.3307 -1.9203 0
M  V30 35 H -4.6705 -4.6337 -2.1842 0
M  V30 36 H -2.8168 -3.3186 -1.4852 0
M  V30 37 H -3.7551 -2.362 -2.6398 0
M  V30 38 H -3.6783 -2.0153 2.9138 0
M  V30 39 H -3.8075 -0.5247 1.9977 0
M  V30 40 H -2.9406 0.2755 -0.1077 0
M  V30 41 H -5.1853 0.0709 -0.1732 0
M  V30 42 H -6.0328 -1.3397 -0.7849 0
M  V30 43 H -5.0652 -0.3549 -1.8859 0
M  V30 44 H -1.4719 -0.9175 2.5512 0
M  V30 45 H -1.5273 -2.5632 1.9933 0
M  V30 46 H -2.87 0.1689 -2.5457 0
M  V30 47 H -1.0434 -2.082 -0.1037 0
M  V30 48 H -1.3284 -1.0802 -3.5709 0
M  V30 49 H -0.5543 0.9997 -2.851 0
M  V30 50 H -1.39 1.7048 -1.4771 0
M  V30 51 H 0.5692 -0.6781 0.9431 0
M  V30 52 H -0.2114 0.9952 2.2783 0
M  V30 53 H -1.606 1.3758 1.2755 0
M  V30 54 H 0.6039 -1.6785 -1.6936 0
M  V30 55 H 1.3924 -0.4188 -2.6429 0
M  V30 56 H 2.05 -0.9228 -1.0821 0
M  V30 57 H 0.8013 2.8114 1.3422 0
M  V30 58 H -0.4712 2.9772 0.1478 0
M  V30 59 H 3.4886 2.9191 -2.1155 0
M  V30 60 H 2.9557 1.2645 -2.4998 0
M  V30 61 H 4.8068 0.5579 0.6717 0
M  V30 62 H 3.8667 0.6712 2.1846 0
M  V30 63 H 1.9663 3.5378 -3.8374 0
M  V30 64 H 4.8924 2.9078 2.6398 0
M  V30 65 H 5.8234 2.7926 1.1506 0
M  V30 66 H 6.0284 0.8448 3.5123 0
M  V30 67 H 6.9616 0.7291 2.0187 0
M  V30 68 H 8.2871 1.8081 3.8062 0
M  V30 69 H 7.9992 2.9573 2.4886 0
M  V30 70 H 7.0608 3.0738 3.9904 0
M  V30 END ATOM
M  V30 BEGIN BOND
M  V30 1 2 1 2
M  V30 2 1 2 3
M  V30 3 1 2 4
M  V30 4 2 3 5
M  V30 5 1 4 6
M  V30 6 1 5 7
M  V30 7 1 5 8
M  V30 8 1 7 9
M  V30 9 1 7 10
M  V30 10 1 8 11
M  V30 11 1 9 12
M  V30 12 1 9 13
M  V30 13 1 12 14
M  V30 14 1 12 15
M  V30 15 1 13 16
M  V30 16 1 15 17
M  V30 17 1 16 18
M  V30 18 1 17 19
M  V30 19 1 17 20
M  V30 20 1 18 21
M  V30 21 1 19 22
M  V30 22 1 19 23
M  V30 23 1 22 24
M  V30 24 2 23 25
M  V30 25 1 23 26
M  V30 26 2 24 27
M  V30 27 1 24 28
M  V30 28 1 26 29
M  V30 29 1 28 30
M  V30 30 1 30 31
M  V30 31 1 31 32
M  V30 32 1 6 7
M  V30 33 1 11 13
M  V30 34 1 16 17
M  V30 35 1 19 21
M  V30 36 1 3 33
M  V30 37 1 4 34
M  V30 38 1 4 35
M  V30 39 1 6 36
M  V30 40 1 6 37
M  V30 41 1 8 38
M  V30 42 1 8 39
M  V30 43 1 9 40
M  V30 44 1 10 41
M  V30 45 1 10 42
M  V30 46 1 10 43
M  V30 47 1 11 44
M  V30 48 1 11 45
M  V30 49 1 12 46
M  V30 50 1 13 47
M  V30 51 1 14 48
M  V30 52 1 15 49
M  V30 53 1 15 50
M  V30 54 1 16 51
M  V30 55 1 18 52
M  V30 56 1 18 53
M  V30 57 1 20 54
M  V30 58 1 20 55
M  V30 59 1 20 56
M  V30 60 1 21 57
M  V30 61 1 21 58
M  V30 62 1 26 59
M  V30 63 1 26 60
M  V30 64 1 28 61
M  V30 65 1 28 62
M  V30 66 1 29 63
M  V30 67 1 30 64
M  V30 68 1 30 65
M  V30 69 1 31 66
M  V30 70 1 31 67
M  V30 71 1 32 68
M  V30 72 1 32 69
M  V30 73 1 32 70
M  V30 END BOND
M  V30 BEGIN COLLECTION
M  V30 MDLV30/STEABS ATOMS=(1 19)
M  V30 END COLLECTION
M  V30 END CTAB
M  END
>  <Column 1>
1351

>  <level_0>
1499

>  <index>
1499

>  <Unnamed: 0>
1499

>  <NO.>
1511

>  <Name>
hydrocortisone-hemisuccinate

>  <IUPAC_name>
[(17r)-11-hydroxy-17-(2-hydroxyacetyl)-10-13-dimethyl-3-oxo-2-6-7-8-9-11-12-14-15-16-decahydro-1h-cyclopenta[a]phenanthren-17-yl] pentanoate

>  <SMILES>
CCCCC(=O)O[C@]1(C(=O)CO)CCC2C3CCC4=CC(=O)CCC4(C)C3C(O)CC21C

>  <CID>
42395

>  <logBB>


>  <BBB+/BBB->
BBB+

>  <Inchi>
InChI=1S/C26H38O6/c1-4-5-6-22(31)32-26(21(30)15-27)12-10-19-18-8-7-16-13-17(28)9-11-24(16-2)23(18)20(29)14-25(19-26)3/h13-18-20-23-27-29H-4-12-14-15H2-1-3H3/t18?-19?-20?-23?-24?-25?-26-/m0/s1

>  <threshold>
-1

>  <reference>
R1|R27|R30|

>  <group>
B

>  <Class>
1

>  <ABC>
25.04

>  <ABCGG>
20.49

>  <nAcid>
0

>  <nBase>
0

>  <nAromAtom>
0

>  <nAromBond>
0

>  <nAtom>
70

>  <nHeavyAtom>
32

>  <nSpiro>
0

>  <nBridgehead>
0

>  <nHetero>
6

>  <nN>
0

>  <nO>
6

>  <nF>
0

>  <BalabanJ>
1.65

>  <BertzCT>
832.17

>  <nBonds>
73

>  <nBondsO>
35

>  <nBondsS>
69

>  <nBondsD>
4

>  <nBondsT>
0

>  <nBondsA>
0

>  <nBondsM>
4

>  <nBondsKS>
69

>  <nBondsKD>
4

>  <RNCG>
0.17

>  <RPCG>
0.11

>  <FCSP3>
0.81

>  <SZ>
40.33

>  <Sm>
37.18

>  <Sv>
40.58

>  <Sse>
69.85

>  <Sp>
44.05

>  <Si>
79.15

>  <MZ>
0.58

>  <Mm>
0.53

>  <Mv>
0.58

>  <Mse>
1

>  <Mp>
0.63

>  <Mi>
1.13

>  <NsCH3>
3

>  <NdCH2>
0

>  <NssCH2>
11

>  <NtCH>
0

>  <NdsCH>
1

>  <NaaCH>
0

>  <NsssCH>
4

>  <NddC>
0

>  <NtsC>
0

>  <NdssC>
4

>  <NaasC>
0

>  <NaaaC>
0

>  <NssssC>
3

>  <NsNH3>
0

>  <NsNH2>
0

>  <NssNH2>
0

>  <NdNH>
0

>  <NssNH>
0

>  <NaaNH>
0

>  <NtN>
0

>  <NsssNH>
0

>  <NdsN>
0

>  <NaaN>
0

>  <NsssN>
0

>  <NddsN>
0

>  <NaasN>
0

>  <NssssN>
0

>  <NsOH>
2

>  <NdO>
3

>  <NssO>
1

>  <NaaO>
0

>  <NsF>
0

>  <NsSiH3>
0

>  <NssSiH2>
0

>  <NsssSiH>
0

>  <NssssSi>
0

>  <NsPH2>
0

>  <NssPH>
0

>  <NsssP>
0

>  <NdsssP>
0

>  <NsssssP>
0

>  <NsSH>
0

>  <NdS>
0

>  <NssS>
0

>  <NaaS>
0

>  <NdssS>
0

>  <NddssS>
0

>  <NsCl>
0

>  <NsBr>
0

>  <NsI>
0

>  <fragCpx>
233.06

>  <fMF>
0.24

>  <nHBAcc>
6

>  <nHBDon>
2

>  <Kier1>
25.1

>  <Kier2>
9.22

>  <Lipinski>
1

>  <GhoseFilter>
1

>  <FilterItLogS>
-4.43

>  <VMcGowan>
351.78

>  <LabuteASA>
190.34

>  <PEOE_VSA1>
14.95

>  <PEOE_VSA2>
14.38

>  <PEOE_VSA3>
0

>  <PEOE_VSA4>
0

>  <PEOE_VSA5>
0

>  <PEOE_VSA6>
32.77

>  <PEOE_VSA7>
74.19

>  <PEOE_VSA8>
18.26

>  <PEOE_VSA9>
6.1

>  <PEOE_VSA10>
6.61

>  <PEOE_VSA11>
11.38

>  <PEOE_VSA12>
5.78

>  <PEOE_VSA13>
0

>  <SMR_VSA1>
29.33

>  <SMR_VSA2>
0

>  <SMR_VSA3>
0

>  <SMR_VSA4>
28.58

>  <SMR_VSA5>
96.68

>  <SMR_VSA6>
6.61

>  <SMR_VSA7>
11.65

>  <SMR_VSA8>
0

>  <SMR_VSA9>
0

>  <SlogP_VSA1>
0

>  <SlogP_VSA2>
46.06

>  <SlogP_VSA3>
19.12

>  <SlogP_VSA4>
28.58

>  <SlogP_VSA5>
84.98

>  <SlogP_VSA6>
11.65

>  <SlogP_VSA7>
0

>  <SlogP_VSA8>
0

>  <SlogP_VSA9>
0

>  <SlogP_VSA10>
0

>  <SlogP_VSA11>
0

>  <EState_VSA1>
35.48

>  <EState_VSA2>
35.37

>  <EState_VSA3>
25.68

>  <EState_VSA4>
32.1

>  <EState_VSA5>
5.57

>  <EState_VSA6>
0

>  <EState_VSA7>
19.92

>  <EState_VSA8>
6.92

>  <EState_VSA9>
4.74

>  <EState_VSA10>
24.6

>  <VSA_EState1>
5.98

>  <VSA_EState2>
37.88

>  <VSA_EState3>
21.35

>  <VSA_EState4>
-1.12

>  <VSA_EState5>
-0.3

>  <VSA_EState6>
0

>  <VSA_EState7>
7.44

>  <VSA_EState8>
5.51

>  <VSA_EState9>
0

>  <apol>
73.57

>  <bpol>
42.46

>  <nRing>
4

>  <nHRing>
0

>  <naRing>
0

>  <naHRing>
0

>  <nARing 2>
4

>  <nAHRing 2>
0

>  <nFRing>
1

>  <nFHRing>
0

>  <nFaRing>
0

>  <nFaHRing>
0

>  <nFARing 2>
1

>  <nFAHRing 2>
0

>  <nRot>
6

>  <SLogP>
3.52

>  <SMR>
118.54

>  <TopoPSA(NO)>
100.9

>  <TopoPSA>
100.9

>  <JGI1>
0.27

>  <JGI2>
0.13

>  <JGI3>
0.07

>  <JGI4>
0.06

>  <JGI5>
0.03

>  <Diameter>
15

>  <Radius>
8

>  <TMWC10>
148.29

>  <TSRW10>
83.82

>  <MW>
446.27

>  <AMW>
6.38

>  <WPath>
2622

>  <WPol>
68

>  <Zagreb1>
180

>  <Zagreb2>
227

>  <mZagreb2>
6.98

>  <yes>


>  <nAR-cont>
0.199399

>  <nHA-cont>
0.658856097

>  <MWHBN>
0.378696369

>  <MWHBN-cont>
0.559917966

>  <TPSA-cont>
0.295655345

>  <pka_cont>
0.97

>  <yes.1>


>  <BBB_SCORE>
2.774442736

>  <MMFF94 Energy>
107.09

$$$$
Compound 1144
Actelion Java MolfileCreator 2.0

  0  0  0  0  0  0              0 V3000
M  V30 BEGIN CTAB
M  V30 COUNTS 71 74 0 0 0
M  V30 BEGIN ATOM
M  V30 1 F 2.0922 0.0 -1.2871 0
M  V30 2 C 1.1567 -0.1844 -2.2961 0 CFG=2
M  V30 3 C 1.9811 -0.4651 -3.619 0 CFG=2
M  V30 4 C 0.3133 1.1281 -2.2945 0 CFG=1
M  V30 5 C 0.3068 -1.4241 -1.8594 0 CFG=2
M  V30 6 C 2.7845 -1.7608 -3.4027 0
M  V30 7 C 2.9135 0.7037 -3.9379 0
M  V30 8 C 1.1017 -0.6605 -4.8757 0
M  V30 9 O -0.5717 1.2088 -3.4054 0
M  V30 10 C -0.482 1.3331 -0.9838 0
M  V30 11 C -0.382 -1.1114 -0.5206 0 CFG=1
M  V30 12 C 1.187 -2.6818 -1.7286 0
M  V30 13 C 4.1231 -1.8367 -3.5086 0
M  V30 14 C 1.9823 -2.97 -2.997 0
M  V30 15 C 4.2465 0.6231 -4.041 0
M  V30 16 C -1.3328 0.107 -0.5748 0 CFG=1
M  V30 17 C -1.2477 -2.1877 0.1185 0
M  V30 18 C 4.948 -0.6585 -3.8428 0
M  V30 19 C -1.8863 0.108 0.9135 0 CFG=1
M  V30 20 C -2.4975 -0.0839 -1.5869 0
M  V30 21 C -1.9892 -1.4356 1.2529 0 CFG=1
M  V30 22 O 6.1647 -0.7416 -3.9507 0
M  V30 23 O -0.823 0.656 1.7486 0
M  V30 24 C -3.1844 0.9643 1.0081 0
M  V30 25 C -3.3684 -2.038 1.4879 0
M  V30 26 C -1.0295 0.7443 3.0927 0
M  V30 27 O -4.3132 0.5203 0.7732 0
M  V30 28 C -3.0324 2.4536 1.3073 0
M  V30 29 O -2.0879 0.4878 3.6436 0
M  V30 30 C 0.2306 1.2273 3.7678 0
M  V30 31 O -4.0555 3.2033 0.6651 0
M  V30 32 C 0.0648 1.3172 5.2832 0
M  V30 33 C 1.3484 1.8021 5.9551 0
M  V30 34 C 1.1871 1.8933 7.4641 0
M  V30 35 H 0.9966 1.9812 -2.3756 0
M  V30 36 H -0.4511 -1.6371 -2.6196 0
M  V30 37 H 2.4521 1.6714 -4.1225 0
M  V30 38 H 0.2593 -1.3358 -4.7004 0
M  V30 39 H 1.685 -1.0849 -5.7036 0
M  V30 40 H 0.6916 0.2841 -5.2486 0
M  V30 41 H -1.023 2.0717 -3.3703 0
M  V30 42 H -1.1318 2.2099 -1.0874 0
M  V30 43 H 0.2442 1.5686 -0.1969 0
M  V30 44 H 0.4245 -0.898 0.1989 0
M  V30 45 H 0.5622 -3.5544 -1.5052 0
M  V30 46 H 1.8796 -2.5662 -0.8845 0
M  V30 47 H 4.6757 -2.7536 -3.3387 0
M  V30 48 H 2.6302 -3.837 -2.8191 0
M  V30 49 H 1.3052 -3.2567 -3.8096 0
M  V30 50 H 4.866 1.4781 -4.2822 0
M  V30 51 H -1.942 -2.6255 -0.6071 0
M  V30 52 H -0.646 -3.0059 0.5287 0
M  V30 53 H -3.2131 -0.846 -1.2678 0
M  V30 54 H -3.0569 0.85 -1.7142 0
M  V30 55 H -2.1617 -0.3879 -2.5796 0
M  V30 56 H -1.413 -1.6341 2.1665 0
M  V30 57 H -4.0047 -1.9774 0.6008 0
M  V30 58 H -3.2772 -3.0991 1.7464 0
M  V30 59 H -3.8753 -1.5443 2.3228 0
M  V30 60 H -3.1072 2.6173 2.3848 0
M  V30 61 H -2.0732 2.8285 0.9481 0
M  V30 62 H 0.4783 2.2142 3.3616 0
M  V30 63 H 1.0376 0.5272 3.5246 0
M  V30 64 H -4.8753 2.6794 0.7747 0
M  V30 65 H -0.2137 0.3342 5.683 0
M  V30 66 H -0.7595 1.9999 5.5246 0
M  V30 67 H 2.1721 1.1174 5.7224 0
M  V30 68 H 1.6247 2.7877 5.5629 0
M  V30 69 H 2.1168 2.242 7.9243 0
M  V30 70 H 0.3913 2.5957 7.7319 0
M  V30 71 H 0.9416 0.9162 7.8922 0
M  V30 END ATOM
M  V30 BEGIN BOND
M  V30 1 1 1 2
M  V30 2 1 2 3
M  V30 3 1 2 4
M  V30 4 1 2 5
M  V30 5 1 3 6
M  V30 6 1 3 7
M  V30 7 1 3 8
M  V30 8 1 4 9
M  V30 9 1 4 10
M  V30 10 1 5 11
M  V30 11 1 5 12
M  V30 12 2 6 13
M  V30 13 1 6 14
M  V30 14 2 7 15
M  V30 15 1 10 16
M  V30 16 1 11 17
M  V30 17 1 13 18
M  V30 18 1 16 19
M  V30 19 1 16 20
M  V30 20 1 17 21
M  V30 21 2 18 22
M  V30 22 1 19 23
M  V30 23 1 19 24
M  V30 24 1 21 25
M  V30 25 1 23 26
M  V30 26 2 24 27
M  V30 27 1 24 28
M  V30 28 2 26 29
M  V30 29 1 26 30
M  V30 30 1 28 31
M  V30 31 1 30 32
M  V30 32 1 32 33
M  V30 33 1 33 34
M  V30 34 1 11 16
M  V30 35 1 12 14
M  V30 36 1 15 18
M  V30 37 1 19 21
M  V30 38 1 4 35
M  V30 39 1 5 36
M  V30 40 1 7 37
M  V30 41 1 8 38
M  V30 42 1 8 39
M  V30 43 1 8 40
M  V30 44 1 9 41
M  V30 45 1 10 42
M  V30 46 1 10 43
M  V30 47 1 11 44
M  V30 48 1 12 45
M  V30 49 1 12 46
M  V30 50 1 13 47
M  V30 51 1 14 48
M  V30 52 1 14 49
M  V30 53 1 15 50
M  V30 54 1 17 51
M  V30 55 1 17 52
M  V30 56 1 20 53
M  V30 57 1 20 54
M  V30 58 1 20 55
M  V30 59 1 21 56
M  V30 60 1 25 57
M  V30 61 1 25 58
M  V30 62 1 25 59
M  V30 63 1 28 60
M  V30 64 1 28 61
M  V30 65 1 30 62
M  V30 66 1 30 63
M  V30 67 1 31 64
M  V30 68 1 32 65
M  V30 69 1 32 66
M  V30 70 1 33 67
M  V30 71 1 33 68
M  V30 72 1 34 69
M  V30 73 1 34 70
M  V30 74 1 34 71
M  V30 END BOND
M  V30 BEGIN COLLECTION
M  V30 MDLV30/STEABS ATOMS=(8 2 3 4 5 11 16 19 21)
M  V30 END COLLECTION
M  V30 END CTAB
M  END
>  <Column 1>
1352

>  <level_0>
1500

>  <index>
1500

>  <Unnamed: 0>
1500

>  <NO.>
1512

>  <Name>
betamethasone valerate

>  <IUPAC_name>
[(8s-9r-10s-11s-13s-14s-16s-17r)-9-fluoro-11-hydroxy-17-(2-hydroxyacetyl)-10-13-16-trimethyl-3-oxo-6-7-8-11-12-14-15-16-octahydrocyclopenta[a]phenanthren-17-yl] pentanoate

>  <SMILES>
CCCCC(=O)O[C@]1(C(=O)CO)[C@@H](C)C[C@H]2[C@@H]3CCC4=CC(=O)C=C[C@]4(C)[C@@]3(F)[C@@H](O)C[C@@]21C

>  <CID>
16533

>  <logBB>


>  <BBB+/BBB->
BBB+

>  <Inchi>
InChI=1S/C27H37FO6/c1-5-6-7-23(33)34-27(22(32)15-29)16(2)12-20-19-9-8-17-13-18(30)10-11-24(17-3)26(19-28)21(31)14-25(20-27)4/h10-11-13-16-19-21-29-31H-5-9-12-14-15H2-1-4H3/t16--19--20--21--24--25--26--27-/m0/s1

>  <threshold>
-1

>  <reference>
R1|R6|R27|R30|

>  <group>
B

>  <Class>
1

>  <ABC>
26.59

>  <ABCGG>
22.13

>  <nAcid>
0

>  <nBase>
0

>  <nAromAtom>
0

>  <nAromBond>
0

>  <nAtom>
71

>  <nHeavyAtom>
34

>  <nSpiro>
0

>  <nBridgehead>
0

>  <nHetero>
7

>  <nN>
0

>  <nO>
6

>  <nF>
1

>  <BalabanJ>
1.74

>  <BertzCT>
956.77

>  <nBonds>
74

>  <nBondsO>
37

>  <nBondsS>
69

>  <nBondsD>
5

>  <nBondsT>
0

>  <nBondsA>
0

>  <nBondsM>
5

>  <nBondsKS>
69

>  <nBondsKD>
5

>  <RNCG>
0.15

>  <RPCG>
0.1

>  <FCSP3>
0.74

>  <SZ>
42.67

>  <Sm>
39.68

>  <Sv>
41.96

>  <Sse>
71.37

>  <Sp>
44.99

>  <Si>
80.49

>  <MZ>
0.6

>  <Mm>
0.56

>  <Mv>
0.59

>  <Mse>
1.01

>  <Mp>
0.63

>  <Mi>
1.13

>  <NsCH3>
4

>  <NdCH2>
0

>  <NssCH2>
8

>  <NtCH>
0

>  <NdsCH>
3

>  <NaaCH>
0

>  <NsssCH>
4

>  <NddC>
0

>  <NtsC>
0

>  <NdssC>
4

>  <NaasC>
0

>  <NaaaC>
0

>  <NssssC>
4

>  <NsNH3>
0

>  <NsNH2>
0

>  <NssNH2>
0

>  <NdNH>
0

>  <NssNH>
0

>  <NaaNH>
0

>  <NtN>
0

>  <NsssNH>
0

>  <NdsN>
0

>  <NaaN>
0

>  <NsssN>
0

>  <NddsN>
0

>  <NaasN>
0

>  <NssssN>
0

>  <NsOH>
2

>  <NdO>
3

>  <NssO>
1

>  <NaaO>
0

>  <NsF>
1

>  <NsSiH3>
0

>  <NssSiH2>
0

>  <NsssSiH>
0

>  <NssssSi>
0

>  <NsPH2>
0

>  <NssPH>
0

>  <NsssP>
0

>  <NdsssP>
0

>  <NsssssP>
0

>  <NsSH>
0

>  <NdS>
0

>  <NssS>
0

>  <NaaS>
0

>  <NdssS>
0

>  <NddssS>
0

>  <NsCl>
0

>  <NsBr>
0

>  <NsI>
0

>  <fragCpx>
247.07

>  <fMF>
0.24

>  <nHBAcc>
6

>  <nHBDon>
2

>  <Kier1>
27.05

>  <Kier2>
9.39

>  <Lipinski>
1

>  <GhoseFilter>
0

>  <FilterItLogS>
-4.58

>  <VMcGowan>
363.33

>  <LabuteASA>
200.18

>  <PEOE_VSA1>
14.95

>  <PEOE_VSA2>
14.38

>  <PEOE_VSA3>
4.39

>  <PEOE_VSA4>
0

>  <PEOE_VSA5>
0

>  <PEOE_VSA6>
38.84

>  <PEOE_VSA7>
57.1

>  <PEOE_VSA8>
29.09

>  <PEOE_VSA9>
6.1

>  <PEOE_VSA10>
6.61

>  <PEOE_VSA11>
17.05

>  <PEOE_VSA12>
5.78

>  <PEOE_VSA13>
0

>  <SMR_VSA1>
33.72

>  <SMR_VSA2>
0

>  <SMR_VSA3>
0

>  <SMR_VSA4>
28.58

>  <SMR_VSA5>
90.01

>  <SMR_VSA6>
6.61

>  <SMR_VSA7>
23.8

>  <SMR_VSA8>
0

>  <SMR_VSA9>
0

>  <SlogP_VSA1>
0

>  <SlogP_VSA2>
51.73

>  <SlogP_VSA3>
19.12

>  <SlogP_VSA4>
28.58

>  <SlogP_VSA5>
72.64

>  <SlogP_VSA6>
23.8

>  <SlogP_VSA7>
0

>  <SlogP_VSA8>
0

>  <SlogP_VSA9>
0

>  <SlogP_VSA10>
4.39

>  <SlogP_VSA11>
0

>  <EState_VSA1>
58.4

>  <EState_VSA2>
24.54

>  <EState_VSA3>
31.26

>  <EState_VSA4>
6.42

>  <EState_VSA5>
12.15

>  <EState_VSA6>
13

>  <EState_VSA7>
20.77

>  <EState_VSA8>
0

>  <EState_VSA9>
4.74

>  <EState_VSA10>
24.6

>  <VSA_EState1>
23.26

>  <VSA_EState2>
38.13

>  <VSA_EState3>
21.37

>  <VSA_EState4>
-5.11

>  <VSA_EState5>
-2.62

>  <VSA_EState6>
0

>  <VSA_EState7>
5.92

>  <VSA_EState8>
6.55

>  <VSA_EState9>
0

>  <apol>
75.13

>  <bpol>
42.57

>  <nRing>
4

>  <nHRing>
0

>  <naRing>
0

>  <naHRing>
0

>  <nARing 2>
4

>  <nAHRing 2>
0

>  <nFRing>
1

>  <nFHRing>
0

>  <nFaRing>
0

>  <nFaHRing>
0

>  <nFARing 2>
1

>  <nFAHRing 2>
0

>  <nRot>
6

>  <SLogP>
3.64

>  <SMR>
123.34

>  <TopoPSA(NO)>
100.9

>  <TopoPSA>
100.9

>  <JGI1>
0.3

>  <JGI2>
0.15

>  <JGI3>
0.08

>  <JGI4>
0.06

>  <JGI5>
0.04

>  <Diameter>
15

>  <Radius>
8

>  <TMWC10>
153.67

>  <TSRW10>
86.65

>  <MW>
476.26

>  <AMW>
6.71

>  <WPath>
2955

>  <WPol>
79

>  <Zagreb1>
194

>  <Zagreb2>
250

>  <mZagreb2>
7.36

>  <yes>


>  <nAR-cont>
0.199399

>  <nHA-cont>
0.568589513

>  <MWHBN>
0.366579296

>  <MWHBN-cont>
0.607121969

>  <TPSA-cont>
0.295655345

>  <pka_cont>
0.97

>  <yes.1>


>  <BBB_SCORE>
2.754982156

>  <MMFF94 Energy>
154.26

$$$$
Compound 1145
Actelion Java MolfileCreator 2.0

  0  0  0  0  0  0              0 V3000
M  V30 BEGIN CTAB
M  V30 COUNTS 40 39 0 0 0
M  V30 BEGIN ATOM
M  V30 1 O 1.5388 0.6153 2.0778 0
M  V30 2 C 0.9813 1.5309 1.4842 0
M  V30 3 N -0.0535 1.3449 0.5923 0
M  V30 4 C 1.3877 2.9825 1.6195 0
M  V30 5 C -0.6059 0.0354 0.298 0
M  V30 6 C 2.3209 3.227 2.802 0
M  V30 7 C -0.2528 -0.4487 -1.1244 0
M  V30 8 O 2.8956 4.531 2.6681 0
M  V30 9 C 1.5848 3.1879 4.1354 0
M  V30 10 C -0.9906 -1.7649 -1.4681 0
M  V30 11 C 1.279 -0.6152 -1.2722 0
M  V30 12 C -2.5194 -1.659 -1.4032 0
M  V30 13 C 1.7345 -0.9898 -2.6764 0
M  V30 14 C -3.2332 -2.8673 -2.0167 0
M  V30 15 C -2.9693 -4.1678 -1.2738 0
M  V30 16 H -0.4666 2.1499 0.1389 0
M  V30 17 H 0.494 3.6134 1.7007 0
M  V30 18 H 1.8869 3.2729 0.6864 0
M  V30 19 H -1.6875 0.1555 0.4081 0
M  V30 20 H -0.2749 -0.6928 1.0464 0
M  V30 21 H 3.1433 2.5032 2.821 0
M  V30 22 H -0.5764 0.3211 -1.8381 0
M  V30 23 H 3.572 4.478 1.9709 0
M  V30 24 H 1.1341 2.2092 4.3229 0
M  V30 25 H 2.2746 3.4136 4.9561 0
M  V30 26 H 0.7977 3.9494 4.1722 0
M  V30 27 H -0.7217 -2.0741 -2.484 0
M  V30 28 H -0.647 -2.5569 -0.7918 0
M  V30 29 H 1.7758 0.3268 -1.0135 0
M  V30 30 H 1.6436 -1.369 -0.5637 0
M  V30 31 H -2.8424 -0.76 -1.942 0
M  V30 32 H -2.8484 -1.548 -0.3641 0
M  V30 33 H 2.8264 -0.9388 -2.7403 0
M  V30 34 H 1.4421 -2.0106 -2.9377 0
M  V30 35 H 1.3197 -0.3039 -3.4214 0
M  V30 36 H -4.3125 -2.6736 -2.0096 0
M  V30 37 H -2.9394 -2.981 -3.0666 0
M  V30 38 H -3.5745 -4.9737 -1.7011 0
M  V30 39 H -1.9196 -4.4663 -1.3491 0
M  V30 40 H -3.2283 -4.0749 -0.2144 0
M  V30 END ATOM
M  V30 BEGIN BOND
M  V30 1 2 1 2
M  V30 2 1 2 3
M  V30 3 1 2 4
M  V30 4 1 3 5
M  V30 5 1 4 6
M  V30 6 1 5 7
M  V30 7 1 6 8
M  V30 8 1 6 9
M  V30 9 1 7 10
M  V30 10 1 7 11
M  V30 11 1 10 12
M  V30 12 1 11 13
M  V30 13 1 12 14
M  V30 14 1 14 15
M  V30 15 1 3 16
M  V30 16 1 4 17
M  V30 17 1 4 18
M  V30 18 1 5 19
M  V30 19 1 5 20
M  V30 20 1 6 21
M  V30 21 1 7 22
M  V30 22 1 8 23
M  V30 23 1 9 24
M  V30 24 1 9 25
M  V30 25 1 9 26
M  V30 26 1 10 27
M  V30 27 1 10 28
M  V30 28 1 11 29
M  V30 29 1 11 30
M  V30 30 1 12 31
M  V30 31 1 12 32
M  V30 32 1 13 33
M  V30 33 1 13 34
M  V30 34 1 13 35
M  V30 35 1 14 36
M  V30 36 1 14 37
M  V30 37 1 15 38
M  V30 38 1 15 39
M  V30 39 1 15 40
M  V30 END BOND
M  V30 END CTAB
M  END
>  <Column 1>
1353

>  <level_0>
1501

>  <index>
1501

>  <Unnamed: 0>
1501

>  <NO.>
1513

>  <Name>
butoctamide

>  <IUPAC_name>
n-(2-ethylhexyl)-3-hydroxybutanamide

>  <SMILES>
CCCCC(CC)CNC(=O)CC(C)O

>  <CID>
65780

>  <logBB>


>  <BBB+/BBB->
BBB+

>  <Inchi>
InChI=1S/C12H25NO2/c1-4-6-7-11(5-2)9-13-12(15)8-10(3)14/h10-11-14H-4-9H2-1-3H3-(H-13-15)

>  <threshold>
-1

>  <reference>
R1|R19|R6|R14|R27|R27|R30|

>  <group>
B

>  <Class>
1

>  <ABC>
10.23

>  <ABCGG>
9.98

>  <nAcid>
0

>  <nBase>
0

>  <nAromAtom>
0

>  <nAromBond>
0

>  <nAtom>
40

>  <nHeavyAtom>
15

>  <nSpiro>
0

>  <nBridgehead>
0

>  <nHetero>
3

>  <nN>
1

>  <nO>
2

>  <nF>
0

>  <BalabanJ>
3.6

>  <BertzCT>
169.01

>  <nBonds>
39

>  <nBondsO>
14

>  <nBondsS>
38

>  <nBondsD>
1

>  <nBondsT>
0

>  <nBondsA>
0

>  <nBondsM>
1

>  <nBondsKS>
38

>  <nBondsKD>
1

>  <RNCG>
0.28

>  <RPCG>
0.16

>  <FCSP3>
0.92

>  <SZ>
20

>  <Sm>
17.93

>  <Sv>
20.96

>  <Sse>
39.42

>  <Sp>
23.6

>  <Si>
45.9

>  <MZ>
0.5

>  <Mm>
0.45

>  <Mv>
0.52

>  <Mse>
0.99

>  <Mp>
0.59

>  <Mi>
1.15

>  <NsCH3>
3

>  <NdCH2>
0

>  <NssCH2>
6

>  <NtCH>
0

>  <NdsCH>
0

>  <NaaCH>
0

>  <NsssCH>
2

>  <NddC>
0

>  <NtsC>
0

>  <NdssC>
1

>  <NaasC>
0

>  <NaaaC>
0

>  <NssssC>
0

>  <NsNH3>
0

>  <NsNH2>
0

>  <NssNH2>
0

>  <NdNH>
0

>  <NssNH>
1

>  <NaaNH>
0

>  <NtN>
0

>  <NsssNH>
0

>  <NdsN>
0

>  <NaaN>
0

>  <NsssN>
0

>  <NddsN>
0

>  <NaasN>
0

>  <NssssN>
0

>  <NsOH>
1

>  <NdO>
1

>  <NssO>
0

>  <NaaO>
0

>  <NsF>
0

>  <NsSiH3>
0

>  <NssSiH2>
0

>  <NsssSiH>
0

>  <NssssSi>
0

>  <NsPH2>
0

>  <NssPH>
0

>  <NsssP>
0

>  <NdsssP>
0

>  <NsssssP>
0

>  <NsSH>
0

>  <NdS>
0

>  <NssS>
0

>  <NaaS>
0

>  <NdssS>
0

>  <NddssS>
0

>  <NsCl>
0

>  <NsBr>
0

>  <NsI>
0

>  <fragCpx>
14.03

>  <fMF>
0

>  <nHBAcc>
2

>  <nHBDon>
2

>  <Kier1>
15

>  <Kier2>
9.24

>  <Lipinski>
1

>  <GhoseFilter>
1

>  <FilterItLogS>
-3

>  <VMcGowan>
197.36

>  <LabuteASA>
93.26

>  <PEOE_VSA1>
10.42

>  <PEOE_VSA2>
4.79

>  <PEOE_VSA3>
0

>  <PEOE_VSA4>
0

>  <PEOE_VSA5>
0

>  <PEOE_VSA6>
33.11

>  <PEOE_VSA7>
19.26

>  <PEOE_VSA8>
6.54

>  <PEOE_VSA9>
12.52

>  <PEOE_VSA10>
0

>  <PEOE_VSA11>
0

>  <PEOE_VSA12>
5.91

>  <PEOE_VSA13>
0

>  <SMR_VSA1>
9.9

>  <SMR_VSA2>
0

>  <SMR_VSA3>
5.32

>  <SMR_VSA4>
5.92

>  <SMR_VSA5>
58.98

>  <SMR_VSA6>
6.54

>  <SMR_VSA7>
0

>  <SMR_VSA8>
0

>  <SMR_VSA9>
0

>  <SlogP_VSA1>
5.32

>  <SlogP_VSA2>
23.66

>  <SlogP_VSA3>
4.79

>  <SlogP_VSA4>
5.92

>  <SlogP_VSA5>
52.88

>  <SlogP_VSA6>
0

>  <SlogP_VSA7>
0

>  <SlogP_VSA8>
0

>  <SlogP_VSA9>
0

>  <SlogP_VSA10>
0

>  <SlogP_VSA11>
0

>  <EState_VSA1>
6.1

>  <EState_VSA2>
12.33

>  <EState_VSA3>
5.92

>  <EState_VSA4>
12.97

>  <EState_VSA5>
19.26

>  <EState_VSA6>
6.92

>  <EState_VSA7>
0

>  <EState_VSA8>
19.16

>  <EState_VSA9>
5.11

>  <EState_VSA10>
4.79

>  <VSA_EState1>
0

>  <VSA_EState2>
11.28

>  <VSA_EState3>
11.9

>  <VSA_EState4>
0

>  <VSA_EState5>
0.54

>  <VSA_EState6>
0

>  <VSA_EState7>
4.39

>  <VSA_EState8>
6.72

>  <VSA_EState9>
0

>  <apol>
39.41

>  <bpol>
26.52

>  <nRing>
0

>  <nHRing>
0

>  <naRing>
0

>  <naHRing>
0

>  <nARing 2>
0

>  <nAHRing 2>
0

>  <nFRing>
0

>  <nFHRing>
0

>  <nFaRing>
0

>  <nFaHRing>
0

>  <nFARing 2>
0

>  <nFAHRing 2>
0

>  <nRot>
8

>  <SLogP>
2.09

>  <SMR>
62.61

>  <TopoPSA(NO)>
49.33

>  <TopoPSA>
49.33

>  <JGI1>
0.25

>  <JGI2>
0.07

>  <JGI3>
0.05

>  <JGI4>
0.03

>  <JGI5>
0.02

>  <Diameter>
10

>  <Radius>
5

>  <TMWC10>
92.7

>  <TSRW10>
44.65

>  <MW>
215.19

>  <AMW>
5.38

>  <WPath>
448

>  <WPol>
15

>  <Zagreb1>
60

>  <Zagreb2>
61

>  <mZagreb2>
3.75

>  <yes>


>  <nAR-cont>
0.336376

>  <nHA-cont>
0.92539861

>  <MWHBN>
0.272677277

>  <MWHBN-cont>
0.913935882

>  <TPSA-cont>
0.655645968

>  <pka_cont>
0.97

>  <yes.1>


>  <BBB_SCORE>
4.42897037

>  <MMFF94 Energy>
-16.858

$$$$
Compound 1146
Actelion Java MolfileCreator 2.0

  0  0  0  0  0  0              0 V3000
M  V30 BEGIN CTAB
M  V30 COUNTS 44 44 0 0 0
M  V30 BEGIN ATOM
M  V30 1 O 1.3971 -0.7759 -1.9408 0
M  V30 2 N 0.0611 -0.8104 -1.5186 0
M  V30 3 C 1.4586 -1.1345 -3.3234 0
M  V30 4 C -0.065 -0.4835 -0.263 0
M  V30 5 C 1.4591 -2.6582 -3.4943 0
M  V30 6 C -1.44 -0.4822 0.3365 0
M  V30 7 C 1.1201 -0.1077 0.6232 0
M  V30 8 N 2.6125 -3.3087 -2.8556 0
M  V30 9 C -2.447 -1.2391 -0.28 0
M  V30 10 C -1.7501 0.2535 1.4809 0
M  V30 11 C 1.5243 1.3515 0.4138 0
M  V30 12 C -3.7535 -1.2721 0.2262 0
M  V30 13 C -3.0437 0.2158 2.0062 0
M  V30 14 C 2.6895 1.7401 1.3243 0
M  V30 15 N -4.6987 -2.07 -0.4003 0
M  V30 16 C -4.0495 -0.5496 1.3944 0
M  V30 17 C 3.0967 3.1982 1.1145 0
M  V30 18 C -5.4246 -0.569 2.0038 0
M  V30 19 C 4.255 3.5886 2.0186 0
M  V30 20 H 2.3817 -0.7085 -3.7313 0
M  V30 21 H 0.6224 -0.6823 -3.8707 0
M  V30 22 H 1.4663 -2.9047 -4.5609 0
M  V30 23 H 0.5489 -3.0859 -3.0606 0
M  V30 24 H 1.9614 -0.774 0.3986 0
M  V30 25 H 0.8786 -0.2936 1.6751 0
M  V30 26 H 3.4718 -2.8783 -3.1945 0
M  V30 27 H 2.5755 -3.0815 -1.8591 0
M  V30 28 H -2.2089 -1.8182 -1.1696 0
M  V30 29 H -1.0117 0.8723 1.9802 0
M  V30 30 H 0.6687 2.0092 0.6082 0
M  V30 31 H 1.8059 1.5155 -0.6331 0
M  V30 32 H -3.2638 0.7919 2.9029 0
M  V30 33 H 3.5468 1.0864 1.1229 0
M  V30 34 H 2.4041 1.5859 2.3721 0
M  V30 35 H -4.4748 -2.5241 -1.2756 0
M  V30 36 H -5.666 -2.0515 -0.1122 0
M  V30 37 H 3.3868 3.3573 0.0694 0
M  V30 38 H 2.244 3.8563 1.3184 0
M  V30 39 H -5.7072 -1.5921 2.2723 0
M  V30 40 H -5.4702 0.0343 2.9168 0
M  V30 41 H -6.1567 -0.1595 1.3004 0
M  V30 42 H 4.5299 4.6349 1.8521 0
M  V30 43 H 3.9862 3.4718 3.0733 0
M  V30 44 H 5.1353 2.9699 1.8175 0
M  V30 END ATOM
M  V30 BEGIN BOND
M  V30 1 1 1 2
M  V30 2 1 1 3
M  V30 3 2 2 4
M  V30 4 1 3 5
M  V30 5 1 4 6
M  V30 6 1 4 7
M  V30 7 1 5 8
M  V30 8 2 6 9
M  V30 9 1 6 10
M  V30 10 1 7 11
M  V30 11 1 9 12
M  V30 12 2 10 13
M  V30 13 1 11 14
M  V30 14 1 12 15
M  V30 15 2 12 16
M  V30 16 1 14 17
M  V30 17 1 16 18
M  V30 18 1 17 19
M  V30 19 1 13 16
M  V30 20 1 3 20
M  V30 21 1 3 21
M  V30 22 1 5 22
M  V30 23 1 5 23
M  V30 24 1 7 24
M  V30 25 1 7 25
M  V30 26 1 8 26
M  V30 27 1 8 27
M  V30 28 1 9 28
M  V30 29 1 10 29
M  V30 30 1 11 30
M  V30 31 1 11 31
M  V30 32 1 13 32
M  V30 33 1 14 33
M  V30 34 1 14 34
M  V30 35 1 15 35
M  V30 36 1 15 36
M  V30 37 1 17 37
M  V30 38 1 17 38
M  V30 39 1 18 39
M  V30 40 1 18 40
M  V30 41 1 18 41
M  V30 42 1 19 42
M  V30 43 1 19 43
M  V30 44 1 19 44
M  V30 END BOND
M  V30 END CTAB
M  END
>  <Column 1>
1354

>  <level_0>
1502

>  <index>
1502

>  <Unnamed: 0>
1502

>  <NO.>
1514

>  <Name>
caproxamine

>  <IUPAC_name>
5-[(e)-n-(2-aminoethoxy)-c-pentylcarbonimidoyl]-2-methylaniline

>  <SMILES>
CCCCC/C(=N\OCCN)c1ccc(C)c(N)c1

>  <CID>
9578268

>  <logBB>


>  <BBB+/BBB->
BBB+

>  <Inchi>
InChI=1S/C15H25N3O/c1-3-4-5-6-15(18-19-10-9-16)13-8-7-12(2)14(17)11-13/h7-8-11H-3-6-9-10-16-17H2-1-2H3/b18-15+

>  <threshold>
-1

>  <reference>
R1|R13|R6|R27|R27|R30|R30|

>  <group>
B

>  <Class>
1

>  <ABC>
13.57

>  <ABCGG>
12.02

>  <nAcid>
0

>  <nBase>
1

>  <nAromAtom>
6

>  <nAromBond>
6

>  <nAtom>
44

>  <nHeavyAtom>
19

>  <nSpiro>
0

>  <nBridgehead>
0

>  <nHetero>
4

>  <nN>
3

>  <nO>
1

>  <nF>
0

>  <BalabanJ>
2.41

>  <BertzCT>
415.85

>  <nBonds>
44

>  <nBondsO>
19

>  <nBondsS>
37

>  <nBondsD>
1

>  <nBondsT>
0

>  <nBondsA>
6

>  <nBondsM>
7

>  <nBondsKS>
40

>  <nBondsKD>
4

>  <RNCG>
0.24

>  <RPCG>
0.1

>  <FCSP3>
0.53

>  <SZ>
24

>  <Sm>
21.93

>  <Sv>
24.76

>  <Sse>
43.42

>  <Sp>
27.44

>  <Si>
50.27

>  <MZ>
0.55

>  <Mm>
0.5

>  <Mv>
0.56

>  <Mse>
0.99

>  <Mp>
0.62

>  <Mi>
1.14

>  <NsCH3>
2

>  <NdCH2>
0

>  <NssCH2>
6

>  <NtCH>
0

>  <NdsCH>
0

>  <NaaCH>
3

>  <NsssCH>
0

>  <NddC>
0

>  <NtsC>
0

>  <NdssC>
1

>  <NaasC>
3

>  <NaaaC>
0

>  <NssssC>
0

>  <NsNH3>
0

>  <NsNH2>
2

>  <NssNH2>
0

>  <NdNH>
0

>  <NssNH>
0

>  <NaaNH>
0

>  <NtN>
0

>  <NsssNH>
0

>  <NdsN>
1

>  <NaaN>
0

>  <NsssN>
0

>  <NddsN>
0

>  <NaasN>
0

>  <NssssN>
0

>  <NsOH>
0

>  <NdO>
0

>  <NssO>
1

>  <NaaO>
0

>  <NsF>
0

>  <NsSiH3>
0

>  <NssSiH2>
0

>  <NsssSiH>
0

>  <NssssSi>
0

>  <NsPH2>
0

>  <NssPH>
0

>  <NsssP>
0

>  <NdsssP>
0

>  <NsssssP>
0

>  <NsSH>
0

>  <NdS>
0

>  <NssS>
0

>  <NaaS>
0

>  <NdssS>
0

>  <NddssS>
0

>  <NsCl>
0

>  <NsBr>
0

>  <NsI>
0

>  <fragCpx>
19.04

>  <fMF>
0.14

>  <nHBAcc>
4

>  <nHBDon>
2

>  <Kier1>
17.05

>  <Kier2>
9.83

>  <Lipinski>
1

>  <GhoseFilter>
1

>  <FilterItLogS>
-4.26

>  <VMcGowan>
229.96

>  <LabuteASA>
115.36

>  <PEOE_VSA1>
16.3

>  <PEOE_VSA2>
0

>  <PEOE_VSA3>
0

>  <PEOE_VSA4>
0

>  <PEOE_VSA5>
0

>  <PEOE_VSA6>
37.05

>  <PEOE_VSA7>
31.4

>  <PEOE_VSA8>
17.8

>  <PEOE_VSA9>
5.71

>  <PEOE_VSA10>
6.61

>  <PEOE_VSA11>
0

>  <PEOE_VSA12>
0

>  <PEOE_VSA13>
0

>  <SMR_VSA1>
4.84

>  <SMR_VSA2>
0

>  <SMR_VSA3>
0

>  <SMR_VSA4>
10.89

>  <SMR_VSA5>
39.53

>  <SMR_VSA6>
18.89

>  <SMR_VSA7>
29.33

>  <SMR_VSA8>
0

>  <SMR_VSA9>
0

>  <SlogP_VSA1>
11.47

>  <SlogP_VSA2>
18.86

>  <SlogP_VSA3>
4.84

>  <SlogP_VSA4>
6.92

>  <SlogP_VSA5>
43.73

>  <SlogP_VSA6>
23.35

>  <SlogP_VSA7>
0

>  <SlogP_VSA8>
0

>  <SlogP_VSA9>
0

>  <SlogP_VSA10>
5.69

>  <SlogP_VSA11>
0

>  <EState_VSA1>
0

>  <EState_VSA2>
0

>  <EState_VSA3>
13.15

>  <EState_VSA4>
35.37

>  <EState_VSA5>
12.84

>  <EState_VSA6>
0

>  <EState_VSA7>
25.12

>  <EState_VSA8>
12.08

>  <EState_VSA9>
16.3

>  <EState_VSA10>
0

>  <VSA_EState1>
0

>  <VSA_EState2>
5.22

>  <VSA_EState3>
4.21

>  <VSA_EState4>
15.22

>  <VSA_EState5>
0

>  <VSA_EState6>
6.02

>  <VSA_EState7>
4.39

>  <VSA_EState8>
5.1

>  <VSA_EState9>
0

>  <apol>
45.82

>  <bpol>
25.68

>  <nRing>
1

>  <nHRing>
0

>  <naRing>
1

>  <naHRing>
0

>  <nARing 2>
0

>  <nAHRing 2>
0

>  <nFRing>
0

>  <nFHRing>
0

>  <nFaRing>
0

>  <nFaHRing>
0

>  <nFARing 2>
0

>  <nFAHRing 2>
0

>  <nRot>
8

>  <SLogP>
2.84

>  <SMR>
81.28

>  <TopoPSA(NO)>
73.63

>  <TopoPSA>
73.63

>  <JGI1>
0.16

>  <JGI2>
0.09

>  <JGI3>
0.03

>  <JGI4>
0.03

>  <JGI5>
0.02

>  <Diameter>
10

>  <Radius>
5

>  <TMWC10>
107.18

>  <TSRW10>
51

>  <MW>
263.2

>  <AMW>
5.98

>  <WPath>
784

>  <WPol>
24

>  <Zagreb1>
84

>  <Zagreb2>
92

>  <mZagreb2>
4.64

>  <yes>


>  <nAR-cont>
0.336376

>  <nHA-cont>
0.998649058

>  <MWHBN>
0.369835255

>  <MWHBN-cont>
0.594505129

>  <TPSA-cont>
0.486016879

>  <pka_cont>
0.97

>  <yes.1>


>  <BBB_SCORE>
3.683816509

>  <MMFF94 Energy>
58.465

$$$$
Compound 1147
Actelion Java MolfileCreator 2.0

  0  0  0  0  0  0              0 V3000
M  V30 BEGIN CTAB
M  V30 COUNTS 36 36 0 0 0
M  V30 BEGIN ATOM
M  V30 1 O -3.4469 -3.5254 1.879 0
M  V30 2 C -2.8392 -2.5748 1.3996 0
M  V30 3 N -2.5608 -1.4622 2.1288 0
M  V30 4 N -2.4658 -2.55 0.0934 0
M  V30 5 C -1.9468 -0.3318 1.6659 0
M  V30 6 C -1.8543 -1.5067 -0.5432 0
M  V30 7 O -1.9755 0.6929 2.3419 0
M  V30 8 C -1.1829 -0.4626 0.3495 0
M  V30 9 O -1.815 -1.483 -1.7715 0
M  V30 10 C -1.1659 0.8974 -0.3951 0
M  V30 11 C 0.2334 -0.9938 0.7159 0
M  V30 12 C -0.279 1.9975 0.1942 0
M  V30 13 C 1.1911 -1.1786 -0.4701 0
M  V30 14 O -0.4022 3.1499 -0.6564 0
M  V30 15 C 2.5716 -1.6366 0.0053 0
M  V30 16 C 0.4313 4.1649 -0.3385 0
M  V30 17 C 3.5268 -1.8299 -1.1617 0
M  V30 18 O 1.2524 4.1753 0.5636 0
M  V30 19 N 0.2336 5.2017 -1.1814 0
M  V30 20 H -2.9563 -1.4222 3.0584 0
M  V30 21 H -2.795 -3.3117 -0.4835 0
M  V30 22 H -2.1932 1.2828 -0.4682 0
M  V30 23 H -0.8576 0.7568 -1.44 0
M  V30 24 H 0.143 -1.9609 1.2303 0
M  V30 25 H 0.6955 -0.3211 1.4509 0
M  V30 26 H -0.5954 2.2784 1.2019 0
M  V30 27 H 0.7685 1.6814 0.216 0
M  V30 28 H 1.2978 -0.2437 -1.0296 0
M  V30 29 H 0.7879 -1.9254 -1.1633 0
M  V30 30 H 2.9925 -0.8955 0.6948 0
M  V30 31 H 2.4819 -2.5799 0.5566 0
M  V30 32 H 4.5065 -2.1567 -0.7993 0
M  V30 33 H 3.1504 -2.5888 -1.8551 0
M  V30 34 H 3.6637 -0.8955 -1.7154 0
M  V30 35 H 0.7848 6.0382 -1.0673 0
M  V30 36 H -0.4618 5.1333 -1.9074 0
M  V30 END ATOM
M  V30 BEGIN BOND
M  V30 1 2 1 2
M  V30 2 1 2 3
M  V30 3 1 2 4
M  V30 4 1 3 5
M  V30 5 1 4 6
M  V30 6 2 5 7
M  V30 7 1 5 8
M  V30 8 2 6 9
M  V30 9 1 8 10
M  V30 10 1 8 11
M  V30 11 1 10 12
M  V30 12 1 11 13
M  V30 13 1 12 14
M  V30 14 1 13 15
M  V30 15 1 14 16
M  V30 16 1 15 17
M  V30 17 2 16 18
M  V30 18 1 16 19
M  V30 19 1 6 8
M  V30 20 1 3 20
M  V30 21 1 4 21
M  V30 22 1 10 22
M  V30 23 1 10 23
M  V30 24 1 11 24
M  V30 25 1 11 25
M  V30 26 1 12 26
M  V30 27 1 12 27
M  V30 28 1 13 28
M  V30 29 1 13 29
M  V30 30 1 15 30
M  V30 31 1 15 31
M  V30 32 1 17 32
M  V30 33 1 17 33
M  V30 34 1 17 34
M  V30 35 1 19 35
M  V30 36 1 19 36
M  V30 END BOND
M  V30 END CTAB
M  END
>  <Column 1>
1355

>  <level_0>
1503

>  <index>
1503

>  <Unnamed: 0>
1503

>  <NO.>
1515

>  <Name>
carbubarb

>  <IUPAC_name>
2-(5-butyl-2-4-6-trioxo-1-3-diazinan-5-yl)ethyl carbamate

>  <SMILES>
CCCCC1(CCOC(N)=O)C(=O)NC(=O)NC1=O

>  <CID>
13743

>  <logBB>


>  <BBB+/BBB->
BBB+

>  <Inchi>
InChI=1S/C11H17N3O5/c1-2-3-4-11(5-6-19-9(12)17)7(15)13-10(18)14-8(11)16/h2-6H2-1H3-(H2-12-17)(H2-13-14-15-16-18)

>  <threshold>
-1

>  <reference>
R1|R13|R19|R6|R24|R27|R27|R27|R30|R30|

>  <group>
B

>  <Class>
1

>  <ABC>
13.86

>  <ABCGG>
12.79

>  <nAcid>
0

>  <nBase>
0

>  <nAromAtom>
0

>  <nAromBond>
0

>  <nAtom>
36

>  <nHeavyAtom>
19

>  <nSpiro>
0

>  <nBridgehead>
0

>  <nHetero>
8

>  <nN>
3

>  <nO>
5

>  <nF>
0

>  <BalabanJ>
2.72

>  <BertzCT>
387.13

>  <nBonds>
36

>  <nBondsO>
19

>  <nBondsS>
32

>  <nBondsD>
4

>  <nBondsT>
0

>  <nBondsA>
0

>  <nBondsM>
4

>  <nBondsKS>
32

>  <nBondsKD>
4

>  <RNCG>
0.18

>  <RPCG>
0.16

>  <FCSP3>
0.64

>  <SZ>
24

>  <Sm>
22.59

>  <Sv>
21.45

>  <Sse>
37.19

>  <Sp>
22.16

>  <Si>
41.45

>  <MZ>
0.67

>  <Mm>
0.63

>  <Mv>
0.6

>  <Mse>
1.03

>  <Mp>
0.62

>  <Mi>
1.15

>  <NsCH3>
1

>  <NdCH2>
0

>  <NssCH2>
5

>  <NtCH>
0

>  <NdsCH>
0

>  <NaaCH>
0

>  <NsssCH>
0

>  <NddC>
0

>  <NtsC>
0

>  <NdssC>
4

>  <NaasC>
0

>  <NaaaC>
0

>  <NssssC>
1

>  <NsNH3>
0

>  <NsNH2>
1

>  <NssNH2>
0

>  <NdNH>
0

>  <NssNH>
2

>  <NaaNH>
0

>  <NtN>
0

>  <NsssNH>
0

>  <NdsN>
0

>  <NaaN>
0

>  <NsssN>
0

>  <NddsN>
0

>  <NaasN>
0

>  <NssssN>
0

>  <NsOH>
0

>  <NdO>
4

>  <NssO>
1

>  <NaaO>
0

>  <NsF>
0

>  <NsSiH3>
0

>  <NssSiH2>
0

>  <NsssSiH>
0

>  <NssssSi>
0

>  <NsPH2>
0

>  <NssPH>
0

>  <NsssP>
0

>  <NdsssP>
0

>  <NsssssP>
0

>  <NsSH>
0

>  <NdS>
0

>  <NssS>
0

>  <NaaS>
0

>  <NdssS>
0

>  <NddssS>
0

>  <NsCl>
0

>  <NsBr>
0

>  <NsI>
0

>  <fragCpx>
19.08

>  <fMF>
0.17

>  <nHBAcc>
5

>  <nHBDon>
3

>  <Kier1>
17.05

>  <Kier2>
7.7

>  <Lipinski>
1

>  <GhoseFilter>
1

>  <FilterItLogS>
-2.49

>  <VMcGowan>
197.08

>  <LabuteASA>
109.58

>  <PEOE_VSA1>
10.47

>  <PEOE_VSA2>
20.22

>  <PEOE_VSA3>
9.59

>  <PEOE_VSA4>
0

>  <PEOE_VSA5>
0

>  <PEOE_VSA6>
19.77

>  <PEOE_VSA7>
6.42

>  <PEOE_VSA8>
6.42

>  <PEOE_VSA9>
6.61

>  <PEOE_VSA10>
5.41

>  <PEOE_VSA11>
0

>  <PEOE_VSA12>
11.81

>  <PEOE_VSA13>
0

>  <SMR_VSA1>
23.92

>  <SMR_VSA2>
0

>  <SMR_VSA3>
10.63

>  <SMR_VSA4>
11.15

>  <SMR_VSA5>
32.61

>  <SMR_VSA6>
6.61

>  <SMR_VSA7>
0

>  <SMR_VSA8>
0

>  <SMR_VSA9>
0

>  <SlogP_VSA1>
16.37

>  <SlogP_VSA2>
30.55

>  <SlogP_VSA3>
14.33

>  <SlogP_VSA4>
5.41

>  <SlogP_VSA5>
32.61

>  <SlogP_VSA6>
0

>  <SlogP_VSA7>
0

>  <SlogP_VSA8>
0

>  <SlogP_VSA9>
0

>  <SlogP_VSA10>
9.59

>  <SlogP_VSA11>
0

>  <EState_VSA1>
29.35

>  <EState_VSA2>
19.45

>  <EState_VSA3>
6.42

>  <EState_VSA4>
6.42

>  <EState_VSA5>
0

>  <EState_VSA6>
0

>  <EState_VSA7>
6.92

>  <EState_VSA8>
15.37

>  <EState_VSA9>
5.73

>  <EState_VSA10>
19.18

>  <VSA_EState1>
4.57

>  <VSA_EState2>
45.49

>  <VSA_EState3>
4.13

>  <VSA_EState4>
3.44

>  <VSA_EState5>
-1.33

>  <VSA_EState6>
-0.84

>  <VSA_EState7>
0.7

>  <VSA_EState8>
1.76

>  <VSA_EState9>
0

>  <apol>
37.02

>  <bpol>
22.83

>  <nRing>
1

>  <nHRing>
1

>  <naRing>
0

>  <naHRing>
0

>  <nARing 2>
1

>  <nAHRing 2>
1

>  <nFRing>
0

>  <nFHRing>
0

>  <nFaRing>
0

>  <nFaHRing>
0

>  <nFARing 2>
0

>  <nFAHRing 2>
0

>  <nRot>
6

>  <SLogP>
0.01

>  <SMR>
63.79

>  <TopoPSA(NO)>
127.59

>  <TopoPSA>
127.59

>  <JGI1>
0.29

>  <JGI2>
0.11

>  <JGI3>
0.07

>  <JGI4>
0.04

>  <JGI5>
0.03

>  <Diameter>
9

>  <Radius>
5

>  <TMWC10>
109.88

>  <TSRW10>
52.06

>  <MW>
271.12

>  <AMW>
7.53

>  <WPath>
706

>  <WPol>
29

>  <Zagreb1>
90

>  <Zagreb2>
103

>  <mZagreb2>
4.42

>  <yes>


>  <nAR-cont>
0.816016

>  <nHA-cont>
0.998649058

>  <MWHBN>
0.485857833

>  <MWHBN-cont>
0

>  <TPSA-cont>
0

>  <pka_cont>
0.97

>  <yes.1>


>  <BBB_SCORE>
2.299665058

>  <MMFF94 Energy>
-206.1

$$$$
Compound 1148
Actelion Java MolfileCreator 2.0

  0  0  0  0  0  0              0 V3000
M  V30 BEGIN CTAB
M  V30 COUNTS 61 63 0 0 0
M  V30 BEGIN ATOM
M  V30 1 O -2.1397 3.33 2.1397 0
M  V30 2 C -1.9256 2.2975 1.5001 0
M  V30 3 C -0.5256 1.9788 1.0005 0
M  V30 4 C -3.0603 1.336 1.1921 0
M  V30 5 C -0.0416 0.6037 1.4695 0
M  V30 6 C -3.2543 1.0618 -0.2962 0
M  V30 7 C 1.467 0.2626 1.1737 0 CFG=1
M  V30 8 C -3.6704 2.3118 -1.0759 0
M  V30 9 C 1.7754 -1.2661 1.4958 0 CFG=1
M  V30 10 C 1.8556 0.4597 -0.3288 0 CFG=1
M  V30 11 C 2.3164 1.2381 2.0448 0
M  V30 12 C -3.8916 1.9921 -2.5545 0
M  V30 13 C 0.9463 -2.1895 0.5669 0
M  V30 14 C 3.2711 -1.5816 1.2009 0
M  V30 15 C 1.5182 -1.5779 2.9919 0
M  V30 16 N 3.3117 0.2277 -0.4997 0
M  V30 17 C 0.9422 -0.3859 -1.2489 0
M  V30 18 C -4.3037 3.2292 -3.3362 0
M  V30 19 C 0.5905 -1.7617 -0.732 0
M  V30 20 C 0.5749 -3.4897 0.9568 0
M  V30 21 C 3.7265 -1.1427 -0.1942 0
M  V30 22 C 3.8226 0.6567 -1.7983 0
M  V30 23 C -0.1436 -2.6122 -1.5794 0
M  V30 24 C -0.1468 -4.3175 0.1008 0
M  V30 25 C -0.5138 -3.8887 -1.1649 0
M  V30 26 O -0.4747 -5.5625 0.5514 0
M  V30 27 H -0.5297 2.0602 -0.0897 0
M  V30 28 H 0.1322 2.7676 1.3788 0
M  V30 29 H -2.8695 0.4004 1.7283 0
M  V30 30 H -3.9833 1.7528 1.6135 0
M  V30 31 H -0.2162 0.5385 2.5518 0
M  V30 32 H -0.6987 -0.1555 1.0354 0
M  V30 33 H -4.0312 0.2953 -0.4072 0
M  V30 34 H -2.34 0.6442 -0.7306 0
M  V30 35 H -2.8988 3.0852 -0.9846 0
M  V30 36 H -4.5924 2.7225 -0.6466 0
M  V30 37 H 1.6867 1.5134 -0.5878 0
M  V30 38 H 2.2609 2.2619 1.6588 0
M  V30 39 H 3.3779 0.9804 2.0733 0
M  V30 40 H 1.962 1.2674 3.0806 0
M  V30 41 H -2.9719 1.5826 -2.9882 0
M  V30 42 H -4.6687 1.226 -2.658 0
M  V30 43 H 3.9108 -1.0969 1.9491 0
M  V30 44 H 3.4663 -2.6575 1.3072 0
M  V30 45 H 2.0355 -0.8749 3.6514 0
M  V30 46 H 1.8916 -2.5698 3.2711 0
M  V30 47 H 0.4511 -1.5504 3.237 0
M  V30 48 H -0.0011 0.1566 -1.3892 0
M  V30 49 H 1.3787 -0.4788 -2.2494 0
M  V30 50 H -4.4568 2.9779 -4.3903 0
M  V30 51 H -5.2383 3.646 -2.9471 0
M  V30 52 H -3.5322 4.0038 -3.2801 0
M  V30 53 H 0.846 -3.8904 1.9288 0
M  V30 54 H 3.3648 -1.8474 -0.9525 0
M  V30 55 H 4.8217 -1.2075 -0.2202 0
M  V30 56 H 4.9184 0.6393 -1.7972 0
M  V30 57 H 3.5304 1.691 -2.0104 0
M  V30 58 H 3.4797 0.0232 -2.6223 0
M  V30 59 H -0.4273 -2.2764 -2.575 0
M  V30 60 H -1.0767 -4.5265 -1.838 0
M  V30 61 H -0.9614 -6.027 -0.1487 0
M  V30 END ATOM
M  V30 BEGIN BOND
M  V30 1 2 1 2
M  V30 2 1 2 3
M  V30 3 1 2 4
M  V30 4 1 3 5
M  V30 5 1 4 6
M  V30 6 1 5 7
M  V30 7 1 6 8
M  V30 8 1 7 9
M  V30 9 1 7 10
M  V30 10 1 7 11
M  V30 11 1 8 12
M  V30 12 1 9 13
M  V30 13 1 9 14
M  V30 14 1 9 15
M  V30 15 1 10 16
M  V30 16 1 10 17
M  V30 17 1 12 18
M  V30 18 2 13 19
M  V30 19 1 13 20
M  V30 20 1 14 21
M  V30 21 1 16 22
M  V30 22 1 19 23
M  V30 23 2 20 24
M  V30 24 2 23 25
M  V30 25 1 24 26
M  V30 26 1 16 21
M  V30 27 1 17 19
M  V30 28 1 24 25
M  V30 29 1 3 27
M  V30 30 1 3 28
M  V30 31 1 4 29
M  V30 32 1 4 30
M  V30 33 1 5 31
M  V30 34 1 5 32
M  V30 35 1 6 33
M  V30 36 1 6 34
M  V30 37 1 8 35
M  V30 38 1 8 36
M  V30 39 1 10 37
M  V30 40 1 11 38
M  V30 41 1 11 39
M  V30 42 1 11 40
M  V30 43 1 12 41
M  V30 44 1 12 42
M  V30 45 1 14 43
M  V30 46 1 14 44
M  V30 47 1 15 45
M  V30 48 1 15 46
M  V30 49 1 15 47
M  V30 50 1 17 48
M  V30 51 1 17 49
M  V30 52 1 18 50
M  V30 53 1 18 51
M  V30 54 1 18 52
M  V30 55 1 20 53
M  V30 56 1 21 54
M  V30 57 1 21 55
M  V30 58 1 22 56
M  V30 59 1 22 57
M  V30 60 1 22 58
M  V30 61 1 23 59
M  V30 62 1 25 60
M  V30 63 1 26 61
M  V30 END BOND
M  V30 BEGIN COLLECTION
M  V30 MDLV30/STEABS ATOMS=(3 7 9 10)
M  V30 END COLLECTION
M  V30 END CTAB
M  END
>  <Column 1>
1356

>  <level_0>
1504

>  <index>
1504

>  <Unnamed: 0>
1504

>  <NO.>
1516

>  <Name>
tonazocine

>  <IUPAC_name>
1-[(1r-9s-13s)-4-hydroxy-1-10-13-trimethyl-10-azatricyclo[7.3.1.02-7]trideca-2(7)-3-5-trien-13-yl]octan-3-one

>  <SMILES>
CCCCCC(=O)CC[C@]1(C)[C@@H]2Cc3ccc(O)cc3[C@@]1(C)CCN2C

>  <CID>
72177

>  <logBB>


>  <BBB+/BBB->
BBB+

>  <Inchi>
InChI=1S/C23H35NO2/c1-5-6-7-8-18(25)11-12-23(3)21-15-17-9-10-19(26)16-20(17)22(23-2)13-14-24(21)4/h9-10-16-21-26H-5-8-11-15H2-1-4H3/t21--22+-23+/m0/s1

>  <threshold>
-1

>  <reference>
R1|R27|R30|

>  <group>
B

>  <Class>
1

>  <ABC>
20.15

>  <ABCGG>
16.27

>  <nAcid>
0

>  <nBase>
1

>  <nAromAtom>
6

>  <nAromBond>
6

>  <nAtom>
61

>  <nHeavyAtom>
26

>  <nSpiro>
0

>  <nBridgehead>
2

>  <nHetero>
3

>  <nN>
1

>  <nO>
2

>  <nF>
0

>  <BalabanJ>
1.75

>  <BertzCT>
670.17

>  <nBonds>
63

>  <nBondsO>
28

>  <nBondsS>
56

>  <nBondsD>
1

>  <nBondsT>
0

>  <nBondsA>
6

>  <nBondsM>
7

>  <nBondsKS>
59

>  <nBondsKD>
4

>  <RNCG>
0.3

>  <RPCG>
0.17

>  <FCSP3>
0.7

>  <SZ>
32.67

>  <Sm>
29.77

>  <Sv>
34.67

>  <Sse>
59.86

>  <Sp>
38.59

>  <Si>
68.98

>  <MZ>
0.54

>  <Mm>
0.49

>  <Mv>
0.57

>  <Mse>
0.98

>  <Mp>
0.63

>  <Mi>
1.13

>  <NsCH3>
4

>  <NdCH2>
0

>  <NssCH2>
9

>  <NtCH>
0

>  <NdsCH>
0

>  <NaaCH>
3

>  <NsssCH>
1

>  <NddC>
0

>  <NtsC>
0

>  <NdssC>
1

>  <NaasC>
3

>  <NaaaC>
0

>  <NssssC>
2

>  <NsNH3>
0

>  <NsNH2>
0

>  <NssNH2>
0

>  <NdNH>
0

>  <NssNH>
0

>  <NaaNH>
0

>  <NtN>
0

>  <NsssNH>
0

>  <NdsN>
0

>  <NaaN>
0

>  <NsssN>
1

>  <NddsN>
0

>  <NaasN>
0

>  <NssssN>
0

>  <NsOH>
1

>  <NdO>
1

>  <NssO>
0

>  <NaaO>
0

>  <NsF>
0

>  <NsSiH3>
0

>  <NssSiH2>
0

>  <NsssSiH>
0

>  <NssssSi>
0

>  <NsPH2>
0

>  <NssPH>
0

>  <NsssP>
0

>  <NdsssP>
0

>  <NsssssP>
0

>  <NsSH>
0

>  <NdS>
0

>  <NssS>
0

>  <NaaS>
0

>  <NdssS>
0

>  <NddssS>
0

>  <NsCl>
0

>  <NsBr>
0

>  <NsI>
0

>  <fragCpx>
134.03

>  <fMF>
0.21

>  <nHBAcc>
3

>  <nHBDon>
1

>  <Kier1>
20.73

>  <Kier2>
8.16

>  <Lipinski>
1

>  <GhoseFilter>
1

>  <FilterItLogS>
-5.99

>  <VMcGowan>
306.87

>  <LabuteASA>
158.34

>  <PEOE_VSA1>
10.01

>  <PEOE_VSA2>
4.79

>  <PEOE_VSA3>
0

>  <PEOE_VSA4>
0

>  <PEOE_VSA5>
0

>  <PEOE_VSA6>
39.68

>  <PEOE_VSA7>
67.95

>  <PEOE_VSA8>
24.3

>  <PEOE_VSA9>
0

>  <PEOE_VSA10>
11.53

>  <PEOE_VSA11>
0

>  <PEOE_VSA12>
0

>  <PEOE_VSA13>
0

>  <SMR_VSA1>
9.9

>  <SMR_VSA2>
0

>  <SMR_VSA3>
4.9

>  <SMR_VSA4>
5.41

>  <SMR_VSA5>
83.59

>  <SMR_VSA6>
13.59

>  <SMR_VSA7>
29.33

>  <SMR_VSA8>
0

>  <SMR_VSA9>
5.75

>  <SlogP_VSA1>
0

>  <SlogP_VSA2>
35.42

>  <SlogP_VSA3>
16.63

>  <SlogP_VSA4>
5.41

>  <SlogP_VSA5>
76.84

>  <SlogP_VSA6>
18.2

>  <SlogP_VSA7>
0

>  <SlogP_VSA8>
0

>  <SlogP_VSA9>
0

>  <SlogP_VSA10>
0

>  <SlogP_VSA11>
5.75

>  <EState_VSA1>
0

>  <EState_VSA2>
10.83

>  <EState_VSA3>
24

>  <EState_VSA4>
51.49

>  <EState_VSA5>
11.13

>  <EState_VSA6>
0

>  <EState_VSA7>
12.13

>  <EState_VSA8>
38.79

>  <EState_VSA9>
0

>  <EState_VSA10>
9.9

>  <VSA_EState1>
0

>  <VSA_EState2>
14.95

>  <VSA_EState3>
10.1

>  <VSA_EState4>
2.75

>  <VSA_EState5>
0.78

>  <VSA_EState6>
6.36

>  <VSA_EState7>
7.81

>  <VSA_EState8>
8.01

>  <VSA_EState9>
2.23

>  <apol>
64.45

>  <bpol>
37.69

>  <nRing>
3

>  <nHRing>
1

>  <naRing>
1

>  <naHRing>
0

>  <nARing 2>
2

>  <nAHRing 2>
1

>  <nFRing>
1

>  <nFHRing>
1

>  <nFaRing>
0

>  <nFaHRing>
0

>  <nFARing 2>
1

>  <nFAHRing 2>
1

>  <nRot>
7

>  <SLogP>
4.85

>  <SMR>
106.69

>  <TopoPSA(NO)>
40.54

>  <TopoPSA>
40.54

>  <JGI1>
0.25

>  <JGI2>
0.13

>  <JGI3>
0.06

>  <JGI4>
0.06

>  <JGI5>
0.03

>  <Diameter>
13

>  <Radius>
7

>  <TMWC10>
132.05

>  <TSRW10>
61.81

>  <MW>
357.27

>  <AMW>
5.86

>  <WPath>
1613

>  <WPol>
50

>  <Zagreb1>
140

>  <Zagreb2>
171

>  <mZagreb2>
5.7

>  <yes>


>  <nAR-cont>
1

>  <nHA-cont>
0.892715677

>  <MWHBN>
0.211622439

>  <MWHBN-cont>
0.998880458

>  <TPSA-cont>
0.717005626

>  <pka_cont>
0.97

>  <yes.1>


>  <BBB_SCORE>
5.310047617

>  <MMFF94 Energy>
65.337

$$$$
Compound 1149
Actelion Java MolfileCreator 2.0

  0  0  0  0  0  0              0 V3000
M  V30 BEGIN CTAB
M  V30 COUNTS 73 76 0 0 0
M  V30 BEGIN ATOM
M  V30 1 F 0.3206 -2.2462 -5.9448 0
M  V30 2 C 0.1183 -0.9237 -5.6915 0
M  V30 3 C -1.339 -0.6517 -5.4429 0
M  V30 4 C 0.9508 -0.5271 -4.4827 0
M  V30 5 C -2.0066 0.1702 -6.2743 0
M  V30 6 C -1.9606 -1.2962 -4.1895 0
M  V30 7 C 0.4612 -1.2317 -3.2088 0
M  V30 8 C -3.4145 0.544 -6.0455 0
M  V30 9 C -3.4014 -0.8186 -4.0159 0
M  V30 10 C -1.0583 -0.9297 -2.9343 0
M  V30 11 C -2.0607 -2.8257 -4.3947 0
M  V30 12 C 1.2965 -0.8096 -1.9935 0
M  V30 13 O -4.0113 1.2793 -6.8212 0
M  V30 14 C -4.0625 0.0033 -4.8411 0
M  V30 15 C -1.5025 -1.5625 -1.5725 0
M  V30 16 C 0.911 -1.5732 -0.7128 0
M  V30 17 C 2.8103 -0.9754 -2.055 0
M  V30 18 O -2.7903 -1.0852 -1.1885 0
M  V30 19 C -0.5507 -1.2319 -0.4005 0
M  V30 20 C 1.9979 -1.0863 0.2884 0
M  V30 21 C 1.0475 -3.1165 -0.8227 0
M  V30 22 C 3.2465 -0.7687 -0.5908 0
M  V30 23 C 1.5817 0.1423 1.1045 0
M  V30 24 C 4.4582 -1.6194 -0.2278 0
M  V30 25 O 1.5367 1.2672 0.6051 0
M  V30 26 C 1.1993 -0.1263 2.5569 0
M  V30 27 O 0.7625 1.0667 3.2021 0
M  V30 28 C 0.3368 0.8756 4.4802 0
M  V30 29 O 0.3191 -0.2057 5.0507 0
M  V30 30 C -0.0942 2.1965 5.0737 0
M  V30 31 C -0.6831 2.0247 6.4734 0
M  V30 32 C -1.2575 3.3194 7.0547 0
M  V30 33 C -0.198 4.3915 7.3117 0
M  V30 34 C -0.799 5.6134 7.9901 0
M  V30 35 H 0.4862 -0.3814 -6.5697 0
M  V30 36 H 1.9929 -0.805 -4.6773 0
M  V30 37 H 0.9203 0.5614 -4.346 0
M  V30 38 H -1.5517 0.6229 -7.1484 0
M  V30 39 H 0.591 -2.3075 -3.3684 0
M  V30 40 H -3.9589 -1.207 -3.1673 0
M  V30 41 H -1.1532 0.1612 -2.8059 0
M  V30 42 H -2.5518 -3.0674 -5.3462 0
M  V30 43 H -1.0842 -3.3173 -4.4034 0
M  V30 44 H -2.6494 -3.3049 -3.6034 0
M  V30 45 H 1.1063 0.2643 -1.8381 0
M  V30 46 H -5.0922 0.2928 -4.6714 0
M  V30 47 H -1.5862 -2.6478 -1.6792 0
M  V30 48 H 3.2783 -0.23 -2.7068 0
M  V30 49 H 3.0911 -1.9645 -2.4332 0
M  V30 50 H -3.0296 -1.5036 -0.3433 0
M  V30 51 H -0.8847 -1.7578 0.5032 0
M  V30 52 H -0.6653 -0.1648 -0.1699 0
M  V30 53 H 2.2408 -1.8733 1.0141 0
M  V30 54 H 0.4097 -3.5521 -1.5956 0
M  V30 55 H 2.0712 -3.4321 -1.0436 0
M  V30 56 H 0.7666 -3.5883 0.1266 0
M  V30 57 H 3.544 0.2804 -0.467 0
M  V30 58 H 4.2479 -2.6885 -0.3317 0
M  V30 59 H 5.3066 -1.378 -0.8766 0
M  V30 60 H 4.7614 -1.4342 0.8078 0
M  V30 61 H 0.3923 -0.8671 2.5595 0
M  V30 62 H 2.0855 -0.5157 3.0701 0
M  V30 63 H -0.846 2.6391 4.4106 0
M  V30 64 H 0.7847 2.8481 5.1068 0
M  V30 65 H 0.0801 1.6219 7.1509 0
M  V30 66 H -1.487 1.2783 6.4377 0
M  V30 67 H -1.7585 3.0768 8.0003 0
M  V30 68 H -2.0288 3.714 6.382 0
M  V30 69 H 0.5984 3.9845 7.9451 0
M  V30 70 H 0.2622 4.7059 6.369 0
M  V30 71 H -0.0266 6.3696 8.162 0
M  V30 72 H -1.5813 6.0615 7.3691 0
M  V30 73 H -1.237 5.3497 8.9581 0
M  V30 END ATOM
M  V30 BEGIN BOND
M  V30 1 1 1 2
M  V30 2 1 2 3
M  V30 3 1 2 4
M  V30 4 2 3 5
M  V30 5 1 3 6
M  V30 6 1 4 7
M  V30 7 1 5 8
M  V30 8 1 6 9
M  V30 9 1 6 10
M  V30 10 1 6 11
M  V30 11 1 7 12
M  V30 12 2 8 13
M  V30 13 1 8 14
M  V30 14 1 10 15
M  V30 15 1 12 16
M  V30 16 1 12 17
M  V30 17 1 15 18
M  V30 18 1 15 19
M  V30 19 1 16 20
M  V30 20 1 16 21
M  V30 21 1 17 22
M  V30 22 1 20 23
M  V30 23 1 22 24
M  V30 24 2 23 25
M  V30 25 1 23 26
M  V30 26 1 26 27
M  V30 27 1 27 28
M  V30 28 2 28 29
M  V30 29 1 28 30
M  V30 30 1 30 31
M  V30 31 1 31 32
M  V30 32 1 32 33
M  V30 33 1 33 34
M  V30 34 1 7 10
M  V30 35 2 9 14
M  V30 36 1 16 19
M  V30 37 1 20 22
M  V30 38 1 2 35
M  V30 39 1 4 36
M  V30 40 1 4 37
M  V30 41 1 5 38
M  V30 42 1 7 39
M  V30 43 1 9 40
M  V30 44 1 10 41
M  V30 45 1 11 42
M  V30 46 1 11 43
M  V30 47 1 11 44
M  V30 48 1 12 45
M  V30 49 1 14 46
M  V30 50 1 15 47
M  V30 51 1 17 48
M  V30 52 1 17 49
M  V30 53 1 18 50
M  V30 54 1 19 51
M  V30 55 1 19 52
M  V30 56 1 20 53
M  V30 57 1 21 54
M  V30 58 1 21 55
M  V30 59 1 21 56
M  V30 60 1 22 57
M  V30 61 1 24 58
M  V30 62 1 24 59
M  V30 63 1 24 60
M  V30 64 1 26 61
M  V30 65 1 26 62
M  V30 66 1 30 63
M  V30 67 1 30 64
M  V30 68 1 31 65
M  V30 69 1 31 66
M  V30 70 1 32 67
M  V30 71 1 32 68
M  V30 72 1 33 69
M  V30 73 1 33 70
M  V30 74 1 34 71
M  V30 75 1 34 72
M  V30 76 1 34 73
M  V30 END BOND
M  V30 END CTAB
M  END
>  <Column 1>
1357

>  <level_0>
1505

>  <index>
1505

>  <Unnamed: 0>
1505

>  <NO.>
1517

>  <Name>
fluocortolone-21-hexanoat

>  <IUPAC_name>
[2-(6-fluoro-11-hydroxy-10-13-16-trimethyl-3-oxo-6-7-8-9-11-12-14-15-16-17-decahydrocyclopenta[a]phenanthren-17-yl)-2-oxoethyl] hexanoate

>  <SMILES>
CCCCCC(=O)OCC(=O)C1C(C)CC2C3CC(F)C4=CC(=O)C=CC4(C)C3C(O)CC21C

>  <CID>
631364

>  <logBB>


>  <BBB+/BBB->
BBB+

>  <Inchi>
InChI=1S/C28H39FO5/c1-5-6-7-8-24(33)34-15-23(32)25-16(2)11-19-18-13-21(29)20-12-17(30)9-10-27(20-3)26(18)22(31)14-28(19-25)4/h9-10-12-16-18-19-21-22-25-26-31H-5-8-11-13-15H2-1-4H3

>  <threshold>
-1

>  <reference>
R1|R19|R27|R27|R30|

>  <group>
B

>  <Class>
1

>  <ABC>
26.65

>  <ABCGG>
21

>  <nAcid>
0

>  <nBase>
0

>  <nAromAtom>
0

>  <nAromBond>
0

>  <nAtom>
73

>  <nHeavyAtom>
34

>  <nSpiro>
0

>  <nBridgehead>
0

>  <nHetero>
6

>  <nN>
0

>  <nO>
5

>  <nF>
1

>  <BalabanJ>
1.5

>  <BertzCT>
908.47

>  <nBonds>
76

>  <nBondsO>
37

>  <nBondsS>
71

>  <nBondsD>
5

>  <nBondsT>
0

>  <nBondsA>
0

>  <nBondsM>
5

>  <nBondsKS>
71

>  <nBondsKD>
5

>  <RNCG>
0.17

>  <RPCG>
0.12

>  <FCSP3>
0.75

>  <SZ>
42.67

>  <Sm>
39.51

>  <Sv>
42.79

>  <Sse>
72.92

>  <Sp>
46.31

>  <Si>
82.69

>  <MZ>
0.58

>  <Mm>
0.54

>  <Mv>
0.59

>  <Mse>
1

>  <Mp>
0.63

>  <Mi>
1.13

>  <NsCH3>
4

>  <NdCH2>
0

>  <NssCH2>
8

>  <NtCH>
0

>  <NdsCH>
3

>  <NaaCH>
0

>  <NsssCH>
7

>  <NddC>
0

>  <NtsC>
0

>  <NdssC>
4

>  <NaasC>
0

>  <NaaaC>
0

>  <NssssC>
2

>  <NsNH3>
0

>  <NsNH2>
0

>  <NssNH2>
0

>  <NdNH>
0

>  <NssNH>
0

>  <NaaNH>
0

>  <NtN>
0

>  <NsssNH>
0

>  <NdsN>
0

>  <NaaN>
0

>  <NsssN>
0

>  <NddsN>
0

>  <NaasN>
0

>  <NssssN>
0

>  <NsOH>
1

>  <NdO>
3

>  <NssO>
1

>  <NaaO>
0

>  <NsF>
1

>  <NsSiH3>
0

>  <NssSiH2>
0

>  <NsssSiH>
0

>  <NssssSi>
0

>  <NsPH2>
0

>  <NssPH>
0

>  <NsssP>
0

>  <NdsssP>
0

>  <NsssssP>
0

>  <NsSH>
0

>  <NdS>
0

>  <NssS>
0

>  <NaaS>
0

>  <NdssS>
0

>  <NddssS>
0

>  <NsCl>
0

>  <NsBr>
0

>  <NsI>
0

>  <fragCpx>
247.06

>  <fMF>
0.23

>  <nHBAcc>
5

>  <nHBDon>
1

>  <Kier1>
27.05

>  <Kier2>
10.4

>  <Lipinski>
1

>  <GhoseFilter>
0

>  <FilterItLogS>
-4.9

>  <VMcGowan>
371.55

>  <LabuteASA>
201.75

>  <PEOE_VSA1>
9.84

>  <PEOE_VSA2>
14.38

>  <PEOE_VSA3>
4.39

>  <PEOE_VSA4>
0

>  <PEOE_VSA5>
0

>  <PEOE_VSA6>
46.61

>  <PEOE_VSA7>
66.58

>  <PEOE_VSA8>
23.67

>  <PEOE_VSA9>
6.1

>  <PEOE_VSA10>
12.78

>  <PEOE_VSA11>
11.57

>  <PEOE_VSA12>
0

>  <PEOE_VSA13>
0

>  <SMR_VSA1>
28.62

>  <SMR_VSA2>
0

>  <SMR_VSA3>
0

>  <SMR_VSA4>
40.42

>  <SMR_VSA5>
84.92

>  <SMR_VSA6>
6.61

>  <SMR_VSA7>
23.8

>  <SMR_VSA8>
0

>  <SMR_VSA9>
0

>  <SlogP_VSA1>
0

>  <SlogP_VSA2>
41.52

>  <SlogP_VSA3>
19.12

>  <SlogP_VSA4>
40.42

>  <SlogP_VSA5>
72.64

>  <SlogP_VSA6>
23.8

>  <SlogP_VSA7>
0

>  <SlogP_VSA8>
0

>  <SlogP_VSA9>
0

>  <SlogP_VSA10>
4.39

>  <SlogP_VSA11>
0

>  <EState_VSA1>
23.11

>  <EState_VSA2>
60.15

>  <EState_VSA3>
18.41

>  <EState_VSA4>
25.68

>  <EState_VSA5>
12.15

>  <EState_VSA6>
6.08

>  <EState_VSA7>
6.92

>  <EState_VSA8>
20.77

>  <EState_VSA9>
4.74

>  <EState_VSA10>
19.49

>  <VSA_EState1>
20.77

>  <VSA_EState2>
37.33

>  <VSA_EState3>
11.43

>  <VSA_EState4>
-0.69

>  <VSA_EState5>
-1.07

>  <VSA_EState6>
0

>  <VSA_EState7>
7.33

>  <VSA_EState8>
7.89

>  <VSA_EState9>
0

>  <apol>
77.33

>  <bpol>
44.58

>  <nRing>
4

>  <nHRing>
0

>  <naRing>
0

>  <naHRing>
0

>  <nARing 2>
4

>  <nAHRing 2>
0

>  <nFRing>
1

>  <nFHRing>
0

>  <nFaRing>
0

>  <nFaHRing>
0

>  <nFARing 2>
1

>  <nFAHRing 2>
0

>  <nRot>
7

>  <SLogP>
4.77

>  <SMR>
126.43

>  <TopoPSA(NO)>
80.67

>  <TopoPSA>
80.67

>  <JGI1>
0.26

>  <JGI2>
0.11

>  <JGI3>
0.08

>  <JGI4>
0.05

>  <JGI5>
0.03

>  <Diameter>
18

>  <Radius>
9

>  <TMWC10>
152.11

>  <TSRW10>
85.81

>  <MW>
474.28

>  <AMW>
6.5

>  <WPath>
3428

>  <WPol>
67

>  <Zagreb1>
188

>  <Zagreb2>
232

>  <mZagreb2>
7.33

>  <yes>


>  <nAR-cont>
0.199399

>  <nHA-cont>
0.568589513

>  <MWHBN>
0.275507766

>  <MWHBN-cont>
0.907199292

>  <TPSA-cont>
0.436873307

>  <pka_cont>
0.97

>  <yes.1>


>  <BBB_SCORE>
3.487534065

>  <MMFF94 Energy>
85.974

$$$$
Compound 1150
Actelion Java MolfileCreator 2.0

  0  0  0  0  0  0              0 V3000
M  V30 BEGIN CTAB
M  V30 COUNTS 46 47 0 0 0
M  V30 BEGIN ATOM
M  V30 1 O -1.3373 -1.1012 -1.4947 0
M  V30 2 C -0.6488 0.1404 -1.201 0
M  V30 3 C -0.8765 1.0116 -2.4686 0
M  V30 4 C -1.2771 0.7606 0.0617 0
M  V30 5 C 0.882 -0.2683 -0.9388 0 CFG=1
M  V30 6 C 0.0091 1.0039 -3.5626 0
M  V30 7 C -2.0626 1.7636 -2.6115 0
M  V30 8 C -2.2696 0.0892 0.8004 0
M  V30 9 C -0.8807 2.0369 0.5073 0
M  V30 10 N 1.8595 0.8325 -0.8014 0
M  V30 11 C 1.0927 -1.3208 0.189 0
M  V30 12 C -0.2475 1.7573 -4.7133 0
M  V30 13 C -2.3189 2.5166 -3.7605 0
M  V30 14 C -2.8405 0.6693 1.9362 0
M  V30 15 C -1.4527 2.6162 1.6425 0
M  V30 16 C 1.3078 -0.7773 1.6086 0
M  V30 17 C -1.4072 2.5185 -4.8092 0
M  V30 18 C -2.4325 1.9323 2.3562 0
M  V30 19 C 1.312 -1.8754 2.6791 0
M  V30 20 C 2.475 -2.8582 2.5412 0
M  V30 21 C 2.4998 -3.852 3.6926 0
M  V30 22 H -1.6612 -1.0523 -2.4094 0
M  V30 23 H 1.1837 -0.8197 -1.8403 0
M  V30 24 H 0.9147 0.4044 -3.5566 0
M  V30 25 H -2.8122 1.7714 -1.8209 0
M  V30 26 H -2.6043 -0.9014 0.4999 0
M  V30 27 H -0.1142 2.5909 -0.0306 0
M  V30 28 H 2.8038 0.4512 -0.7998 0
M  V30 29 H 1.7906 1.4656 -1.5958 0
M  V30 30 H 1.984 -1.9042 -0.0789 0
M  V30 31 H 0.2606 -2.0341 0.1918 0
M  V30 32 H 0.4582 1.7413 -5.5403 0
M  V30 33 H -3.2356 3.0964 -3.8335 0
M  V30 34 H -3.602 0.1304 2.4934 0
M  V30 35 H -1.1274 3.6001 1.9694 0
M  V30 36 H 0.5211 -0.0686 1.873 0
M  V30 37 H 2.2552 -0.2279 1.6599 0
M  V30 38 H -1.606 3.1024 -5.7038 0
M  V30 39 H -2.8748 2.3812 3.2411 0
M  V30 40 H 0.3604 -2.42 2.6495 0
M  V30 41 H 1.3667 -1.3919 3.6626 0
M  V30 42 H 2.3941 -3.4146 1.6015 0
M  V30 43 H 3.4246 -2.3117 2.5177 0
M  V30 44 H 3.3355 -4.5485 3.5738 0
M  V30 45 H 2.6197 -3.3386 4.652 0
M  V30 46 H 1.5738 -4.4347 3.7275 0
M  V30 END ATOM
M  V30 BEGIN BOND
M  V30 1 1 1 2
M  V30 2 1 2 3
M  V30 3 1 2 4
M  V30 4 1 2 5
M  V30 5 2 3 6
M  V30 6 1 3 7
M  V30 7 2 4 8
M  V30 8 1 4 9
M  V30 9 1 5 10
M  V30 10 1 5 11
M  V30 11 1 6 12
M  V30 12 2 7 13
M  V30 13 1 8 14
M  V30 14 2 9 15
M  V30 15 1 11 16
M  V30 16 2 12 17
M  V30 17 2 14 18
M  V30 18 1 16 19
M  V30 19 1 19 20
M  V30 20 1 20 21
M  V30 21 1 13 17
M  V30 22 1 15 18
M  V30 23 1 1 22
M  V30 24 1 5 23
M  V30 25 1 6 24
M  V30 26 1 7 25
M  V30 27 1 8 26
M  V30 28 1 9 27
M  V30 29 1 10 28
M  V30 30 1 10 29
M  V30 31 1 11 30
M  V30 32 1 11 31
M  V30 33 1 12 32
M  V30 34 1 13 33
M  V30 35 1 14 34
M  V30 36 1 15 35
M  V30 37 1 16 36
M  V30 38 1 16 37
M  V30 39 1 17 38
M  V30 40 1 18 39
M  V30 41 1 19 40
M  V30 42 1 19 41
M  V30 43 1 20 42
M  V30 44 1 20 43
M  V30 45 1 21 44
M  V30 46 1 21 45
M  V30 47 1 21 46
M  V30 END BOND
M  V30 BEGIN COLLECTION
M  V30 MDLV30/STERAC1 ATOMS=(1 5)
M  V30 END COLLECTION
M  V30 END CTAB
M  END
>  <Column 1>
1359

>  <level_0>
1507

>  <index>
1507

>  <Unnamed: 0>
1507

>  <NO.>
1519

>  <Name>
hexapradol

>  <IUPAC_name>
2-amino-1-1-diphenylheptan-1-ol

>  <SMILES>
CCCCCC(N)C(O)(c1ccccc1)c1ccccc1

>  <CID>
219120

>  <logBB>


>  <BBB+/BBB->
BBB+

>  <Inchi>
InChI=1S/C19H25NO/c1-2-3-6-15-18(20)19(21-16-11-7-4-8-12-16)17-13-9-5-10-14-17/h4-5-7-14-18-21H-2-3-6-15-20H2-1H3

>  <threshold>
-1

>  <reference>
R1|R19|R6|R27|R27|R30|

>  <group>
B

>  <Class>
-1

>  <ABC>
15.64

>  <ABCGG>
13.72

>  <nAcid>
0

>  <nBase>
1

>  <nAromAtom>
12

>  <nAromBond>
12

>  <nAtom>
46

>  <nHeavyAtom>
21

>  <nSpiro>
0

>  <nBridgehead>
0

>  <nHetero>
2

>  <nN>
1

>  <nO>
1

>  <nF>
0

>  <BalabanJ>
2.07

>  <BertzCT>
484.28

>  <nBonds>
47

>  <nBondsO>
22

>  <nBondsS>
35

>  <nBondsD>
0

>  <nBondsT>
0

>  <nBondsA>
12

>  <nBondsM>
12

>  <nBondsKS>
41

>  <nBondsKD>
6

>  <RNCG>
0.24

>  <RPCG>
0.13

>  <FCSP3>
0.37

>  <SZ>
25.67

>  <Sm>
23.6

>  <Sv>
27.25

>  <Sse>
45.09

>  <Sp>
30.12

>  <Si>
51.69

>  <MZ>
0.56

>  <Mm>
0.51

>  <Mv>
0.59

>  <Mse>
0.98

>  <Mp>
0.65

>  <Mi>
1.12

>  <NsCH3>
1

>  <NdCH2>
0

>  <NssCH2>
4

>  <NtCH>
0

>  <NdsCH>
0

>  <NaaCH>
10

>  <NsssCH>
1

>  <NddC>
0

>  <NtsC>
0

>  <NdssC>
0

>  <NaasC>
2

>  <NaaaC>
0

>  <NssssC>
1

>  <NsNH3>
0

>  <NsNH2>
1

>  <NssNH2>
0

>  <NdNH>
0

>  <NssNH>
0

>  <NaaNH>
0

>  <NtN>
0

>  <NsssNH>
0

>  <NdsN>
0

>  <NaaN>
0

>  <NsssN>
0

>  <NddsN>
0

>  <NaasN>
0

>  <NssssN>
0

>  <NsOH>
1

>  <NdO>
0

>  <NssO>
0

>  <NaaO>
0

>  <NsF>
0

>  <NsSiH3>
0

>  <NssSiH2>
0

>  <NsssSiH>
0

>  <NssssSi>
0

>  <NsPH2>
0

>  <NssPH>
0

>  <NsssP>
0

>  <NdsssP>
0

>  <NsssssP>
0

>  <NsSH>
0

>  <NdS>
0

>  <NssS>
0

>  <NaaS>
0

>  <NdssS>
0

>  <NddssS>
0

>  <NsCl>
0

>  <NsBr>
0

>  <NsI>
0

>  <fragCpx>
64.02

>  <fMF>
0.28

>  <nHBAcc>
2

>  <nHBDon>
2

>  <Kier1>
17.36

>  <Kier2>
8.59

>  <Lipinski>
1

>  <GhoseFilter>
1

>  <FilterItLogS>
-4.57

>  <VMcGowan>
246.9

>  <LabuteASA>
127.18

>  <PEOE_VSA1>
10.84

>  <PEOE_VSA2>
0

>  <PEOE_VSA3>
0

>  <PEOE_VSA4>
0

>  <PEOE_VSA5>
0

>  <PEOE_VSA6>
86.85

>  <PEOE_VSA7>
17.55

>  <PEOE_VSA8>
6.04

>  <PEOE_VSA9>
0

>  <PEOE_VSA10>
5.6

>  <PEOE_VSA11>
0

>  <PEOE_VSA12>
0

>  <PEOE_VSA13>
0

>  <SMR_VSA1>
5.11

>  <SMR_VSA2>
0

>  <SMR_VSA3>
0

>  <SMR_VSA4>
5.73

>  <SMR_VSA5>
44.25

>  <SMR_VSA6>
0

>  <SMR_VSA7>
71.79

>  <SMR_VSA8>
0

>  <SMR_VSA9>
0

>  <SlogP_VSA1>
5.73

>  <SlogP_VSA2>
11.15

>  <SlogP_VSA3>
5.6

>  <SlogP_VSA4>
0

>  <SlogP_VSA5>
43.73

>  <SlogP_VSA6>
60.66

>  <SlogP_VSA7>
0

>  <SlogP_VSA8>
0

>  <SlogP_VSA9>
0

>  <SlogP_VSA10>
0

>  <SlogP_VSA11>
0

>  <EState_VSA1>
5.6

>  <EState_VSA2>
6.04

>  <EState_VSA3>
0

>  <EState_VSA4>
36.81

>  <EState_VSA5>
0

>  <EState_VSA6>
0

>  <EState_VSA7>
60.66

>  <EState_VSA8>
6.92

>  <EState_VSA9>
5.73

>  <EState_VSA10>
5.11

>  <VSA_EState1>
0

>  <VSA_EState2>
0

>  <VSA_EState3>
11.4

>  <VSA_EState4>
7

>  <VSA_EState5>
0

>  <VSA_EState6>
19.19

>  <VSA_EState7>
4.16

>  <VSA_EState8>
2.17

>  <VSA_EState9>
0

>  <apol>
50.3

>  <bpol>
24.51

>  <nRing>
2

>  <nHRing>
0

>  <naRing>
2

>  <naHRing>
0

>  <nARing 2>
0

>  <nAHRing 2>
0

>  <nFRing>
0

>  <nFHRing>
0

>  <nFaRing>
0

>  <nFaHRing>
0

>  <nFARing 2>
0

>  <nFAHRing 2>
0

>  <nRot>
7

>  <SLogP>
3.83

>  <SMR>
88

>  <TopoPSA(NO)>
46.25

>  <TopoPSA>
46.25

>  <JGI1>
0.16

>  <JGI2>
0.1

>  <JGI3>
0.06

>  <JGI4>
0.03

>  <JGI5>
0.02

>  <Diameter>
10

>  <Radius>
5

>  <TMWC10>
116.19

>  <TSRW10>
54.66

>  <MW>
283.19

>  <AMW>
6.16

>  <WPath>
902

>  <WPol>
33

>  <Zagreb1>
102

>  <Zagreb2>
119

>  <mZagreb2>
4.92

>  <yes>


>  <nAR-cont>
0.336376

>  <nHA-cont>
0.994529749

>  <MWHBN>
0.237695541

>  <MWHBN-cont>
0.977997236

>  <TPSA-cont>
0.67714628

>  <pka_cont>
0.97

>  <yes.1>


>  <BBB_SCORE>
4.637194164

>  <MMFF94 Energy>
109.13

$$$$
Compound 1151
Actelion Java MolfileCreator 2.0

  0  0  0  0  0  0              0 V3000
M  V30 BEGIN CTAB
M  V30 COUNTS 63 64 0 0 0
M  V30 BEGIN ATOM
M  V30 1 Cl 0.0801 -5.2996 1.2025 0
M  V30 2 C 0.8577 -3.7413 1.686 0
M  V30 3 C -0.1111 -2.553 1.4498 0
M  V30 4 C 2.1862 -3.6282 0.9429 0
M  V30 5 N -0.5554 -2.5062 0.0501 0
M  V30 6 C 0.4327 -1.1494 1.8699 0
M  V30 7 C -1.8772 -2.4625 -0.3337 0
M  V30 8 O -0.592 -0.1771 1.5706 0
M  V30 9 C 0.801 -1.0717 3.3635 0
M  V30 10 O -2.826 -2.4695 0.4441 0
M  V30 11 C -2.0594 -2.3558 -1.8548 0
M  V30 12 C -0.2169 1.1747 1.8316 0
M  V30 13 O 1.9492 -1.8697 3.6657 0
M  V30 14 C 1.128 0.372 3.7689 0
M  V30 15 N -0.8347 -2.8175 -2.5676 0
M  V30 16 C -2.2605 -0.9074 -2.3041 0
M  V30 17 S -1.5776 2.2625 1.26 0
M  V30 18 C 0.0355 1.3482 3.3401 0
M  V30 19 O 1.2978 0.4128 5.1955 0
M  V30 20 C -0.8447 -2.0867 -3.8306 0
M  V30 21 C -1.2263 -0.6695 -3.413 0
M  V30 22 C -0.8028 3.8794 1.4961 0
M  V30 23 O -1.1317 1.0555 4.1343 0
M  V30 24 C -0.0083 0.1323 -2.9148 0
M  V30 25 C -0.3181 1.6265 -2.7754 0
M  V30 26 C 0.9048 2.4024 -2.283 0
M  V30 27 C 0.6202 3.9023 -2.2146 0
M  V30 28 C 1.8244 4.6746 -1.7004 0
M  V30 29 H 1.0479 -3.8621 2.7546 0
M  V30 30 H -1.0088 -2.737 2.0555 0
M  V30 31 H 2.7378 -2.7311 1.2373 0
M  V30 32 H 2.8286 -4.4872 1.1671 0
M  V30 33 H 2.0457 -3.5947 -0.1424 0
M  V30 34 H 0.1061 -2.5098 -0.7231 0
M  V30 35 H 1.3068 -0.9136 1.2494 0
M  V30 36 H -0.0261 -1.4484 3.9777 0
M  V30 37 H -2.9129 -2.9791 -2.1471 0
M  V30 38 H 0.6785 1.4118 1.246 0
M  V30 39 H 2.2058 -1.6197 4.5786 0
M  V30 40 H 2.0901 0.6667 3.3329 0
M  V30 41 H -0.903 -3.8234 -2.7284 0
M  V30 42 H -2.172 -0.1895 -1.4824 0
M  V30 43 H -3.2685 -0.7999 -2.7235 0
M  V30 44 H 0.3415 2.3679 3.594 0
M  V30 45 H 0.3919 0.5275 5.5567 0
M  V30 46 H 0.1259 -2.1396 -4.3319 0
M  V30 47 H -1.6017 -2.5069 -4.5041 0
M  V30 48 H -1.6814 -0.1413 -4.2592 0
M  V30 49 H -1.4065 4.6401 0.9937 0
M  V30 50 H -0.7536 4.132 2.5578 0
M  V30 51 H 0.2008 3.8946 1.0649 0
M  V30 52 H -1.9026 1.123 3.5319 0
M  V30 53 H 0.3487 -0.2619 -1.9555 0
M  V30 54 H 0.8147 0.0165 -3.6311 0
M  V30 55 H -1.1501 1.7806 -2.08 0
M  V30 56 H -0.6352 2.0228 -3.7477 0
M  V30 57 H 1.7518 2.2225 -2.956 0
M  V30 58 H 1.1965 2.0352 -1.2917 0
M  V30 59 H 0.3526 4.2756 -3.21 0
M  V30 60 H -0.2368 4.0914 -1.5588 0
M  V30 61 H 1.5971 5.7441 -1.6538 0
M  V30 62 H 2.1044 4.3427 -0.6956 0
M  V30 63 H 2.6875 4.539 -2.3597 0
M  V30 END ATOM
M  V30 BEGIN BOND
M  V30 1 1 1 2
M  V30 2 1 2 3
M  V30 3 1 2 4
M  V30 4 1 3 5
M  V30 5 1 3 6
M  V30 6 1 5 7
M  V30 7 1 6 8
M  V30 8 1 6 9
M  V30 9 2 7 10
M  V30 10 1 7 11
M  V30 11 1 8 12
M  V30 12 1 9 13
M  V30 13 1 9 14
M  V30 14 1 11 15
M  V30 15 1 11 16
M  V30 16 1 12 17
M  V30 17 1 12 18
M  V30 18 1 14 19
M  V30 19 1 15 20
M  V30 20 1 16 21
M  V30 21 1 17 22
M  V30 22 1 18 23
M  V30 23 1 21 24
M  V30 24 1 24 25
M  V30 25 1 25 26
M  V30 26 1 26 27
M  V30 27 1 27 28
M  V30 28 1 14 18
M  V30 29 1 20 21
M  V30 30 1 2 29
M  V30 31 1 3 30
M  V30 32 1 4 31
M  V30 33 1 4 32
M  V30 34 1 4 33
M  V30 35 1 5 34
M  V30 36 1 6 35
M  V30 37 1 9 36
M  V30 38 1 11 37
M  V30 39 1 12 38
M  V30 40 1 13 39
M  V30 41 1 14 40
M  V30 42 1 15 41
M  V30 43 1 16 42
M  V30 44 1 16 43
M  V30 45 1 18 44
M  V30 46 1 19 45
M  V30 47 1 20 46
M  V30 48 1 20 47
M  V30 49 1 21 48
M  V30 50 1 22 49
M  V30 51 1 22 50
M  V30 52 1 22 51
M  V30 53 1 23 52
M  V30 54 1 24 53
M  V30 55 1 24 54
M  V30 56 1 25 55
M  V30 57 1 25 56
M  V30 58 1 26 57
M  V30 59 1 26 58
M  V30 60 1 27 59
M  V30 61 1 27 60
M  V30 62 1 28 61
M  V30 63 1 28 62
M  V30 64 1 28 63
M  V30 END BOND
M  V30 END CTAB
M  END
>  <Column 1>
1360

>  <level_0>
1508

>  <index>
1508

>  <Unnamed: 0>
1508

>  <NO.>
1520

>  <Name>
mirincamycin

>  <IUPAC_name>
n-[2-chloro-1-(3-4-5-trihydroxy-6-methylsulfanyloxan-2-yl)propyl]-4-pentylpyrrolidine-2-carboxamide

>  <SMILES>
CCCCCC1CNC(C(=O)NC(C(C)Cl)C2OC(SC)C(O)C(O)C2O)C1

>  <CID>
24715

>  <logBB>


>  <BBB+/BBB->
BBB-

>  <Inchi>
InChI=1S/C19H35ClN2O5S/c1-4-5-6-7-11-8-12(21-9-11)18(26)22-13(10(2)20)17-15(24)14(23)16(25)19(27-17)28-3/h10-17-19-21-23-25H-4-9H2-1-3H3-(H-22-26)

>  <threshold>
-1

>  <reference>
R1|R19|R27|R27|R30|

>  <group>
B

>  <Class>
1

>  <ABC>
20.88

>  <ABCGG>
18.22

>  <nAcid>
0

>  <nBase>
1

>  <nAromAtom>
0

>  <nAromBond>
0

>  <nAtom>
63

>  <nHeavyAtom>
28

>  <nSpiro>
0

>  <nBridgehead>
0

>  <nHetero>
9

>  <nN>
2

>  <nO>
5

>  <nF>
0

>  <BalabanJ>
1.96

>  <BertzCT>
498.94

>  <nBonds>
64

>  <nBondsO>
29

>  <nBondsS>
63

>  <nBondsD>
1

>  <nBondsT>
0

>  <nBondsA>
0

>  <nBondsM>
1

>  <nBondsKS>
63

>  <nBondsKD>
1

>  <RNCG>
0.13

>  <RPCG>
0.08

>  <FCSP3>
0.95

>  <SZ>
39.33

>  <Sm>
36.55

>  <Sv>
35.85

>  <Sse>
63.36

>  <Sp>
39.74

>  <Si>
71.97

>  <MZ>
0.62

>  <Mm>
0.58

>  <Mv>
0.57

>  <Mse>
1.01

>  <Mp>
0.63

>  <Mi>
1.14

>  <NsCH3>
3

>  <NdCH2>
0

>  <NssCH2>
6

>  <NtCH>
0

>  <NdsCH>
0

>  <NaaCH>
0

>  <NsssCH>
9

>  <NddC>
0

>  <NtsC>
0

>  <NdssC>
1

>  <NaasC>
0

>  <NaaaC>
0

>  <NssssC>
0

>  <NsNH3>
0

>  <NsNH2>
0

>  <NssNH2>
0

>  <NdNH>
0

>  <NssNH>
2

>  <NaaNH>
0

>  <NtN>
0

>  <NsssNH>
0

>  <NdsN>
0

>  <NaaN>
0

>  <NsssN>
0

>  <NddsN>
0

>  <NaasN>
0

>  <NssssN>
0

>  <NsOH>
3

>  <NdO>
1

>  <NssO>
1

>  <NaaO>
0

>  <NsF>
0

>  <NsSiH3>
0

>  <NssSiH2>
0

>  <NsssSiH>
0

>  <NssssSi>
0

>  <NsPH2>
0

>  <NssPH>
0

>  <NsssP>
0

>  <NdsssP>
0

>  <NsssssP>
0

>  <NsSH>
0

>  <NdS>
0

>  <NssS>
1

>  <NaaS>
0

>  <NdssS>
0

>  <NddssS>
0

>  <NsCl>
1

>  <NsBr>
0

>  <NsI>
0

>  <fragCpx>
85.09

>  <fMF>
0.22

>  <nHBAcc>
7

>  <nHBDon>
5

>  <Kier1>
24.27

>  <Kier2>
11.41

>  <Lipinski>
1

>  <GhoseFilter>
1

>  <FilterItLogS>
-2.32

>  <VMcGowan>
330.45

>  <LabuteASA>
176.48

>  <PEOE_VSA1>
30.69

>  <PEOE_VSA2>
4.79

>  <PEOE_VSA3>
0

>  <PEOE_VSA4>
0

>  <PEOE_VSA5>
23.36

>  <PEOE_VSA6>
26.19

>  <PEOE_VSA7>
38.48

>  <PEOE_VSA8>
0

>  <PEOE_VSA9>
17.46

>  <PEOE_VSA10>
29.85

>  <PEOE_VSA11>
0

>  <PEOE_VSA12>
5.91

>  <PEOE_VSA13>
0

>  <SMR_VSA1>
24.85

>  <SMR_VSA2>
0

>  <SMR_VSA3>
10.63

>  <SMR_VSA4>
5.92

>  <SMR_VSA5>
93.26

>  <SMR_VSA6>
12.8

>  <SMR_VSA7>
0

>  <SMR_VSA8>
0

>  <SMR_VSA9>
0

>  <SlogP_VSA1>
10.63

>  <SlogP_VSA2>
81.34

>  <SlogP_VSA3>
9.53

>  <SlogP_VSA4>
5.92

>  <SlogP_VSA5>
45.95

>  <SlogP_VSA6>
0

>  <SlogP_VSA7>
0

>  <SlogP_VSA8>
0

>  <SlogP_VSA9>
0

>  <SlogP_VSA10>
0

>  <SlogP_VSA11>
0

>  <EState_VSA1>
41.27

>  <EState_VSA2>
11.95

>  <EState_VSA3>
5.92

>  <EState_VSA4>
19.39

>  <EState_VSA5>
31.02

>  <EState_VSA6>
13.18

>  <EState_VSA7>
0

>  <EState_VSA8>
17.56

>  <EState_VSA9>
16.34

>  <EState_VSA10>
20.11

>  <VSA_EState1>
5.79

>  <VSA_EState2>
12.8

>  <VSA_EState3>
36.26

>  <VSA_EState4>
-0.7

>  <VSA_EState5>
0.32

>  <VSA_EState6>
-0.99

>  <VSA_EState7>
2.39

>  <VSA_EState8>
4.71

>  <VSA_EState9>
0

>  <apol>
66.36

>  <bpol>
41.83

>  <nRing>
2

>  <nHRing>
2

>  <naRing>
0

>  <naHRing>
0

>  <nARing 2>
2

>  <nAHRing 2>
2

>  <nFRing>
0

>  <nFHRing>
0

>  <nFaRing>
0

>  <nFaHRing>
0

>  <nFARing 2>
0

>  <nFAHRing 2>
0

>  <nRot>
9

>  <SLogP>
0.83

>  <SMR>
111.48

>  <TopoPSA(NO)>
111.05

>  <TopoPSA>
136.35

>  <JGI1>
0.21

>  <JGI2>
0.09

>  <JGI3>
0.05

>  <JGI4>
0.05

>  <JGI5>
0.03

>  <Diameter>
15

>  <Radius>
8

>  <TMWC10>
132.71

>  <TSRW10>
76.56

>  <MW>
438.2

>  <AMW>
6.96

>  <WPath>
2179

>  <WPol>
44

>  <Zagreb1>
138

>  <Zagreb2>
161

>  <mZagreb2>
6.44

>  <yes>


>  <nAR-cont>
1

>  <nHA-cont>
0.82432561

>  <MWHBN>
0.573251315

>  <MWHBN-cont>
0

>  <TPSA-cont>
0

>  <pka_cont>
0.97

>  <yes.1>


>  <BBB_SCORE>
2.30932561

>  <MMFF94 Energy>
127.57

$$$$
Compound 1152
Actelion Java MolfileCreator 2.0

  0  0  0  0  0  0              0 V3000
M  V30 BEGIN CTAB
M  V30 COUNTS 30 29 0 0 0
M  V30 BEGIN ATOM
M  V30 1 N -1.0667 0.7619 -2.6686 0
M  V30 2 N -1.6068 1.6409 -3.6711 0
M  V30 3 C -1.8703 0.7732 -1.4342 0 CFG=2
M  V30 4 C -1.0186 0.2314 -0.2664 0
M  V30 5 C -3.131 -0.0849 -1.5882 0
M  V30 6 C 0.2064 1.1042 0.0366 0
M  V30 7 C 0.9499 0.684 1.3087 0
M  V30 8 C 1.5975 -0.6985 1.2055 0
M  V30 9 C 2.4203 -1.0187 2.4543 0
M  V30 10 C 3.0638 -2.393 2.3603 0
M  V30 11 H -0.9556 -0.197 -3.0134 0
M  V30 12 H -2.6002 1.4868 -3.8556 0
M  V30 13 H -1.5066 2.6226 -3.3994 0
M  V30 14 H -2.1683 1.8007 -1.1861 0
M  V30 15 H -0.7 -0.7942 -0.4903 0
M  V30 16 H -1.6443 0.1778 0.6338 0
M  V30 17 H -2.8819 -1.1233 -1.8344 0
M  V30 18 H -3.7075 -0.0918 -0.6564 0
M  V30 19 H -3.7883 0.301 -2.3741 0
M  V30 20 H -0.1184 2.1448 0.1604 0
M  V30 21 H 0.9033 1.0882 -0.8095 0
M  V30 22 H 0.2615 0.7083 2.1624 0
M  V30 23 H 1.7286 1.4301 1.5107 0
M  V30 24 H 2.2437 -0.7371 0.3203 0
M  V30 25 H 0.8261 -1.4665 1.079 0
M  V30 26 H 3.2039 -0.2637 2.5883 0
M  V30 27 H 1.7786 -0.9818 3.3425 0
M  V30 28 H 3.6473 -2.6008 3.2627 0
M  V30 29 H 2.3049 -3.1755 2.2587 0
M  V30 30 H 3.7369 -2.4528 1.4991 0
M  V30 END ATOM
M  V30 BEGIN BOND
M  V30 1 1 1 2
M  V30 2 1 1 3
M  V30 3 1 3 4
M  V30 4 1 3 5
M  V30 5 1 4 6
M  V30 6 1 6 7
M  V30 7 1 7 8
M  V30 8 1 8 9
M  V30 9 1 9 10
M  V30 10 1 1 11
M  V30 11 1 2 12
M  V30 12 1 2 13
M  V30 13 1 3 14
M  V30 14 1 4 15
M  V30 15 1 4 16
M  V30 16 1 5 17
M  V30 17 1 5 18
M  V30 18 1 5 19
M  V30 19 1 6 20
M  V30 20 1 6 21
M  V30 21 1 7 22
M  V30 22 1 7 23
M  V30 23 1 8 24
M  V30 24 1 8 25
M  V30 25 1 9 26
M  V30 26 1 9 27
M  V30 27 1 10 28
M  V30 28 1 10 29
M  V30 29 1 10 30
M  V30 END BOND
M  V30 BEGIN COLLECTION
M  V30 MDLV30/STERAC1 ATOMS=(1 3)
M  V30 END COLLECTION
M  V30 END CTAB
M  END
>  <Column 1>
1363

>  <level_0>
1511

>  <index>
1511

>  <Unnamed: 0>
1511

>  <NO.>
1523

>  <Name>
octamoxin

>  <IUPAC_name>
octan-2-ylhydrazine

>  <SMILES>
CCCCCCC(C)NN

>  <CID>
20811

>  <logBB>


>  <BBB+/BBB->
BBB+

>  <Inchi>
InChI=1S/C8H20N2/c1-3-4-5-6-7-8(2)10-9/h8-10H-3-7-9H2-1-2H3

>  <threshold>
-1

>  <reference>
R1|R19|R6|R27|R27|R30|

>  <group>
B

>  <Class>
-1

>  <ABC>
6.47

>  <ABCGG>
6.58

>  <nAcid>
0

>  <nBase>
0

>  <nAromAtom>
0

>  <nAromBond>
0

>  <nAtom>
30

>  <nHeavyAtom>
10

>  <nSpiro>
0

>  <nBridgehead>
0

>  <nHetero>
2

>  <nN>
2

>  <nO>
0

>  <nF>
0

>  <BalabanJ>
2.89

>  <BertzCT>
64.28

>  <nBonds>
29

>  <nBondsO>
9

>  <nBondsS>
29

>  <nBondsD>
0

>  <nBondsT>
0

>  <nBondsA>
0

>  <nBondsM>
0

>  <nBondsKS>
29

>  <nBondsKD>
0

>  <RNCG>
0.3

>  <RPCG>
0.16

>  <FCSP3>
1

>  <SZ>
13.67

>  <Sm>
12.01

>  <Sv>
14.93

>  <Sse>
29.2

>  <Sp>
17.3

>  <Si>
34.73

>  <MZ>
0.46

>  <Mm>
0.4

>  <Mv>
0.5

>  <Mse>
0.97

>  <Mp>
0.58

>  <Mi>
1.16

>  <NsCH3>
2

>  <NdCH2>
0

>  <NssCH2>
5

>  <NtCH>
0

>  <NdsCH>
0

>  <NaaCH>
0

>  <NsssCH>
1

>  <NddC>
0

>  <NtsC>
0

>  <NdssC>
0

>  <NaasC>
0

>  <NaaaC>
0

>  <NssssC>
0

>  <NsNH3>
0

>  <NsNH2>
1

>  <NssNH2>
0

>  <NdNH>
0

>  <NssNH>
1

>  <NaaNH>
0

>  <NtN>
0

>  <NsssNH>
0

>  <NdsN>
0

>  <NaaN>
0

>  <NsssN>
0

>  <NddsN>
0

>  <NaasN>
0

>  <NssssN>
0

>  <NsOH>
0

>  <NdO>
0

>  <NssO>
0

>  <NaaO>
0

>  <NsF>
0

>  <NsSiH3>
0

>  <NssSiH2>
0

>  <NsssSiH>
0

>  <NssssSi>
0

>  <NsPH2>
0

>  <NssPH>
0

>  <NsssP>
0

>  <NdsssP>
0

>  <NsssssP>
0

>  <NsSH>
0

>  <NdS>
0

>  <NssS>
0

>  <NaaS>
0

>  <NdssS>
0

>  <NddssS>
0

>  <NsCl>
0

>  <NsBr>
0

>  <NsI>
0

>  <fragCpx>
9.02

>  <fMF>
0

>  <nHBAcc>
2

>  <nHBDon>
2

>  <Kier1>
10

>  <Kier2>
7.11

>  <Lipinski>
1

>  <GhoseFilter>
0

>  <FilterItLogS>
-2.4

>  <VMcGowan>
143.54

>  <LabuteASA>
64.15

>  <PEOE_VSA1>
0

>  <PEOE_VSA2>
11.27

>  <PEOE_VSA3>
0

>  <PEOE_VSA4>
0

>  <PEOE_VSA5>
0

>  <PEOE_VSA6>
32.61

>  <PEOE_VSA7>
13.34

>  <PEOE_VSA8>
6.04

>  <PEOE_VSA9>
0

>  <PEOE_VSA10>
0

>  <PEOE_VSA11>
0

>  <PEOE_VSA12>
0

>  <PEOE_VSA13>
0

>  <SMR_VSA1>
0

>  <SMR_VSA2>
0

>  <SMR_VSA3>
5.43

>  <SMR_VSA4>
5.84

>  <SMR_VSA5>
51.99

>  <SMR_VSA6>
0

>  <SMR_VSA7>
0

>  <SMR_VSA8>
0

>  <SMR_VSA9>
0

>  <SlogP_VSA1>
11.27

>  <SlogP_VSA2>
6.04

>  <SlogP_VSA3>
0

>  <SlogP_VSA4>
0

>  <SlogP_VSA5>
45.95

>  <SlogP_VSA6>
0

>  <SlogP_VSA7>
0

>  <SlogP_VSA8>
0

>  <SlogP_VSA9>
0

>  <SlogP_VSA10>
0

>  <SlogP_VSA11>
0

>  <EState_VSA1>
0

>  <EState_VSA2>
0

>  <EState_VSA3>
6.04

>  <EState_VSA4>
0

>  <EState_VSA5>
32.1

>  <EState_VSA6>
0

>  <EState_VSA7>
0

>  <EState_VSA8>
19.27

>  <EState_VSA9>
5.84

>  <EState_VSA10>
0

>  <VSA_EState1>
0

>  <VSA_EState2>
0

>  <VSA_EState3>
0

>  <VSA_EState4>
2.74

>  <VSA_EState5>
5.24

>  <VSA_EState6>
0.48

>  <VSA_EState7>
6.53

>  <VSA_EState8>
4.34

>  <VSA_EState9>
0

>  <apol>
28.9

>  <bpol>
18.92

>  <nRing>
0

>  <nHRing>
0

>  <naRing>
0

>  <naHRing>
0

>  <nARing 2>
0

>  <nAHRing 2>
0

>  <nFRing>
0

>  <nFHRing>
0

>  <nFaRing>
0

>  <nFaHRing>
0

>  <nFARing 2>
0

>  <nFAHRing 2>
0

>  <nRot>
6

>  <SLogP>
1.81

>  <SMR>
45.54

>  <TopoPSA(NO)>
38.05

>  <TopoPSA>
38.05

>  <JGI1>
0.17

>  <JGI2>
0.07

>  <JGI3>
0.03

>  <JGI4>
0.03

>  <JGI5>
0.02

>  <Diameter>
8

>  <Radius>
4

>  <TMWC10>
75.94

>  <TSRW10>
36.55

>  <MW>
144.16

>  <AMW>
4.81

>  <WPath>
153

>  <WPol>
8

>  <Zagreb1>
36

>  <Zagreb2>
35

>  <mZagreb2>
2.67

>  <yes>


>  <nAR-cont>
0.336376

>  <nHA-cont>
0.645914733

>  <MWHBN>
0.333148302

>  <MWHBN-cont>
0.731740699

>  <TPSA-cont>
0.734387372

>  <pka_cont>
0.97

>  <yes.1>


>  <BBB_SCORE>
4.033676527

>  <MMFF94 Energy>
41.08

$$$$
Compound 1153
Actelion Java MolfileCreator 2.0

  0  0  0  0  0  0              0 V3000
M  V30 BEGIN CTAB
M  V30 COUNTS 49 49 0 0 0
M  V30 BEGIN ATOM
M  V30 1 O -2.7278 -1.4021 -4.6798 0
M  V30 2 C -3.5823 -2.2175 -4.3761 0
M  V30 3 O -3.4728 -3.2173 -3.4747 0
M  V30 4 N -4.8105 -2.2464 -4.9392 0
M  V30 5 C -2.2393 -3.268 -2.7345 0
M  V30 6 C -2.4779 -2.7541 -1.3214 0
M  V30 7 O -2.739 -1.3446 -1.304 0
M  V30 8 C -1.2678 -2.8848 -0.4318 0
M  V30 9 C -2.2697 -0.892 -0.0198 0
M  V30 10 O -1.5338 -1.9524 0.6149 0
M  V30 11 C -1.3509 0.3167 -0.2635 0
M  V30 12 C -3.4809 -0.5596 0.8446 0
M  V30 13 C -0.6914 0.8726 1.0022 0
M  V30 14 C 0.2081 2.0847 0.7349 0
M  V30 15 C 1.3997 1.8389 -0.196 0
M  V30 16 C 2.3449 0.7078 0.2208 0
M  V30 17 C 2.9567 0.8361 1.6191 0
M  V30 18 C 3.8126 2.0921 1.7952 0
M  V30 19 C 4.4862 2.1144 3.1679 0
M  V30 20 C 5.3356 3.3621 3.3513 0
M  V30 21 H -5.0447 -1.5523 -5.6319 0
M  V30 22 H -5.4827 -2.9372 -4.6472 0
M  V30 23 H -1.4419 -2.7057 -3.2334 0
M  V30 24 H -1.9332 -4.319 -2.705 0
M  V30 25 H -3.3533 -3.2417 -0.8747 0
M  V30 26 H -0.3423 -2.5796 -0.9329 0
M  V30 27 H -1.1393 -3.8905 -0.0232 0
M  V30 28 H -1.9152 1.1092 -0.7715 0
M  V30 29 H -0.5688 0.0094 -0.9684 0
M  V30 30 H -4.1532 -1.4233 0.9075 0
M  V30 31 H -3.195 -0.3087 1.8704 0
M  V30 32 H -4.0595 0.2654 0.4163 0
M  V30 33 H -0.1179 0.0871 1.5057 0
M  V30 34 H -1.4674 1.19 1.7081 0
M  V30 35 H 0.5734 2.4649 1.6964 0
M  V30 36 H -0.402 2.8901 0.3069 0
M  V30 37 H 1.9678 2.7727 -0.2845 0
M  V30 38 H 1.0323 1.6277 -1.2074 0
M  V30 39 H 3.1565 0.65 -0.5154 0
M  V30 40 H 1.8154 -0.2502 0.1579 0
M  V30 41 H 3.5804 -0.0488 1.7975 0
M  V30 42 H 2.1683 0.8144 2.38 0
M  V30 43 H 3.1917 2.9885 1.6871 0
M  V30 44 H 4.5773 2.1291 1.0102 0
M  V30 45 H 3.7255 2.0781 3.9564 0
M  V30 46 H 5.1199 1.228 3.2868 0
M  V30 47 H 5.8079 3.3572 4.3386 0
M  V30 48 H 6.1265 3.4126 2.5964 0
M  V30 49 H 4.7253 4.2674 3.2713 0
M  V30 END ATOM
M  V30 BEGIN BOND
M  V30 1 2 1 2
M  V30 2 1 2 3
M  V30 3 1 2 4
M  V30 4 1 3 5
M  V30 5 1 5 6
M  V30 6 1 6 7
M  V30 7 1 6 8
M  V30 8 1 7 9
M  V30 9 1 8 10
M  V30 10 1 9 11
M  V30 11 1 9 12
M  V30 12 1 11 13
M  V30 13 1 13 14
M  V30 14 1 14 15
M  V30 15 1 15 16
M  V30 16 1 16 17
M  V30 17 1 17 18
M  V30 18 1 18 19
M  V30 19 1 19 20
M  V30 20 1 9 10
M  V30 21 1 4 21
M  V30 22 1 4 22
M  V30 23 1 5 23
M  V30 24 1 5 24
M  V30 25 1 6 25
M  V30 26 1 8 26
M  V30 27 1 8 27
M  V30 28 1 11 28
M  V30 29 1 11 29
M  V30 30 1 12 30
M  V30 31 1 12 31
M  V30 32 1 12 32
M  V30 33 1 13 33
M  V30 34 1 13 34
M  V30 35 1 14 35
M  V30 36 1 14 36
M  V30 37 1 15 37
M  V30 38 1 15 38
M  V30 39 1 16 39
M  V30 40 1 16 40
M  V30 41 1 17 41
M  V30 42 1 17 42
M  V30 43 1 18 43
M  V30 44 1 18 44
M  V30 45 1 19 45
M  V30 46 1 19 46
M  V30 47 1 20 47
M  V30 48 1 20 48
M  V30 49 1 20 49
M  V30 END BOND
M  V30 END CTAB
M  END
>  <Column 1>
1367

>  <level_0>
1515

>  <index>
1515

>  <Unnamed: 0>
1515

>  <NO.>
1527

>  <Name>
dioxamate

>  <IUPAC_name>
(2-methyl-2-nonyl-1-3-dioxolan-4-yl)methyl carbamate

>  <SMILES>
CCCCCCCCCC1(C)OCC(COC(N)=O)O1

>  <CID>
45285

>  <logBB>


>  <BBB+/BBB->
BBB+

>  <Inchi>
InChI=1S/C15H29NO4/c1-3-4-5-6-7-8-9-10-15(2)19-12-13(20-15)11-18-14(16)17/h13H-3-12H2-1-2H3-(H2-16-17)

>  <threshold>
-1

>  <reference>
R1|R19|R6|R27|R27|R30|

>  <group>
B

>  <Class>
1

>  <ABC>
14.52

>  <ABCGG>
12.36

>  <nAcid>
0

>  <nBase>
0

>  <nAromAtom>
0

>  <nAromBond>
0

>  <nAtom>
49

>  <nHeavyAtom>
20

>  <nSpiro>
0

>  <nBridgehead>
0

>  <nHetero>
5

>  <nN>
1

>  <nO>
4

>  <nF>
0

>  <BalabanJ>
2.05

>  <BertzCT>
285.05

>  <nBonds>
49

>  <nBondsO>
20

>  <nBondsS>
48

>  <nBondsD>
1

>  <nBondsT>
0

>  <nBondsA>
0

>  <nBondsM>
1

>  <nBondsKS>
48

>  <nBondsKD>
1

>  <RNCG>
0.21

>  <RPCG>
0.19

>  <FCSP3>
0.93

>  <SZ>
26.33

>  <Sm>
23.93

>  <Sv>
26.47

>  <Sse>
48.86

>  <Sp>
29.16

>  <Si>
56.15

>  <MZ>
0.54

>  <Mm>
0.49

>  <Mv>
0.54

>  <Mse>
1

>  <Mp>
0.6

>  <Mi>
1.15

>  <NsCH3>
2

>  <NdCH2>
0

>  <NssCH2>
10

>  <NtCH>
0

>  <NdsCH>
0

>  <NaaCH>
0

>  <NsssCH>
1

>  <NddC>
0

>  <NtsC>
0

>  <NdssC>
1

>  <NaasC>
0

>  <NaaaC>
0

>  <NssssC>
1

>  <NsNH3>
0

>  <NsNH2>
1

>  <NssNH2>
0

>  <NdNH>
0

>  <NssNH>
0

>  <NaaNH>
0

>  <NtN>
0

>  <NsssNH>
0

>  <NdsN>
0

>  <NaaN>
0

>  <NsssN>
0

>  <NddsN>
0

>  <NaasN>
0

>  <NssssN>
0

>  <NsOH>
0

>  <NdO>
1

>  <NssO>
3

>  <NaaO>
0

>  <NsF>
0

>  <NsSiH3>
0

>  <NssSiH2>
0

>  <NsssSiH>
0

>  <NssssSi>
0

>  <NsPH2>
0

>  <NssPH>
0

>  <NsssP>
0

>  <NdsssP>
0

>  <NsssssP>
0

>  <NsSH>
0

>  <NdS>
0

>  <NssS>
0

>  <NaaS>
0

>  <NdssS>
0

>  <NddssS>
0

>  <NsCl>
0

>  <NsBr>
0

>  <NsI>
0

>  <fragCpx>
20.05

>  <fMF>
0.1

>  <nHBAcc>
4

>  <nHBDon>
1

>  <Kier1>
18.05

>  <Kier2>
9.85

>  <Lipinski>
1

>  <GhoseFilter>
1

>  <FilterItLogS>
-3.69

>  <VMcGowan>
240.51

>  <LabuteASA>
121.68

>  <PEOE_VSA1>
19.94

>  <PEOE_VSA2>
0

>  <PEOE_VSA3>
4.79

>  <PEOE_VSA4>
0

>  <PEOE_VSA5>
0

>  <PEOE_VSA6>
45.45

>  <PEOE_VSA7>
13.34

>  <PEOE_VSA8>
6.42

>  <PEOE_VSA9>
6.61

>  <PEOE_VSA10>
12.71

>  <PEOE_VSA11>
5.79

>  <PEOE_VSA12>
0

>  <PEOE_VSA13>
0

>  <SMR_VSA1>
19.01

>  <SMR_VSA2>
0

>  <SMR_VSA3>
0

>  <SMR_VSA4>
5.73

>  <SMR_VSA5>
77.11

>  <SMR_VSA6>
13.21

>  <SMR_VSA7>
0

>  <SMR_VSA8>
0

>  <SMR_VSA9>
0

>  <SlogP_VSA1>
5.73

>  <SlogP_VSA2>
31.2

>  <SlogP_VSA3>
14.21

>  <SlogP_VSA4>
0

>  <SlogP_VSA5>
65.21

>  <SlogP_VSA6>
0

>  <SlogP_VSA7>
0

>  <SlogP_VSA8>
0

>  <SlogP_VSA9>
0

>  <SlogP_VSA10>
4.79

>  <SlogP_VSA11>
0

>  <EState_VSA1>
11.88

>  <EState_VSA2>
12.71

>  <EState_VSA3>
6.61

>  <EState_VSA4>
12.84

>  <EState_VSA5>
38.52

>  <EState_VSA6>
0

>  <EState_VSA7>
6.92

>  <EState_VSA8>
6.92

>  <EState_VSA9>
19.94

>  <EState_VSA10>
4.79

>  <VSA_EState1>
16.2

>  <VSA_EState2>
10.54

>  <VSA_EState3>
0

>  <VSA_EState4>
4.93

>  <VSA_EState5>
-0.53

>  <VSA_EState6>
0

>  <VSA_EState7>
8.8

>  <VSA_EState8>
4.81

>  <VSA_EState9>
0

>  <apol>
48.7

>  <bpol>
34.6

>  <nRing>
1

>  <nHRing>
1

>  <naRing>
0

>  <naHRing>
0

>  <nARing 2>
1

>  <nAHRing 2>
1

>  <nFRing>
0

>  <nFHRing>
0

>  <nFaRing>
0

>  <nFaHRing>
0

>  <nFARing 2>
0

>  <nFAHRing 2>
0

>  <nRot>
10

>  <SLogP>
3.35

>  <SMR>
77.38

>  <TopoPSA(NO)>
70.78

>  <TopoPSA>
70.78

>  <JGI1>
0.23

>  <JGI2>
0.06

>  <JGI3>
0.05

>  <JGI4>
0.03

>  <JGI5>
0.02

>  <Diameter>
15

>  <Radius>
8

>  <TMWC10>
109.64

>  <TSRW10>
66.12

>  <MW>
287.21

>  <AMW>
5.86

>  <WPath>
1067

>  <WPol>
21

>  <Zagreb1>
90

>  <Zagreb2>
96

>  <mZagreb2>
4.71

>  <yes>


>  <nAR-cont>
0.816016

>  <nHA-cont>
0.999629945

>  <MWHBN>
0.295032749

>  <MWHBN-cont>
0.855321233

>  <TPSA-cont>
0.505911648

>  <pka_cont>
0.97

>  <yes.1>


>  <BBB_SCORE>
4.595451091

>  <MMFF94 Energy>
-44.952

$$$$
Compound 1154
Actelion Java MolfileCreator 2.0

  0  0  0  0  0  0              0 V3000
M  V30 BEGIN CTAB
M  V30 COUNTS 55 55 0 0 0
M  V30 BEGIN ATOM
M  V30 1 O 7.3292 -1.3223 4.3612 0
M  V30 2 C 6.1954 -1.0363 4.7245 0
M  V30 3 N 5.7906 -1.277 6.007 0
M  V30 4 C 5.2024 -0.455 3.7827 0
M  V30 5 C 4.1328 0.3346 4.2285 0
M  V30 6 C 5.3801 -0.7023 2.413 0
M  V30 7 C 3.2214 0.8571 3.3087 0
M  V30 8 C 4.4771 -0.1904 1.4815 0
M  V30 9 O 2.1376 1.6293 3.6395 0
M  V30 10 C 3.3859 0.5655 1.9431 0
M  V30 11 O 4.5569 -0.3821 0.1267 0
M  V30 12 C 2.1322 2.225 4.9298 0
M  V30 13 O 2.5079 1.111 1.032 0
M  V30 14 C 5.7521 -0.9627 -0.379 0
M  V30 15 C 1.4357 0.1961 0.7771 0
M  V30 16 C 0.4888 0.855 -0.222 0
M  V30 17 C -0.695 -0.0491 -0.5586 0
M  V30 18 C -1.6381 0.6191 -1.5602 0
M  V30 19 C -2.8239 -0.2863 -1.8973 0
M  V30 20 C -3.7673 0.382 -2.8989 0
M  V30 21 C -4.9532 -0.5233 -3.236 0
M  V30 22 C -5.8966 0.1449 -4.2376 0
M  V30 23 C -7.0816 -0.7599 -4.5743 0
M  V30 24 C -8.0219 -0.0991 -5.5697 0
M  V30 25 H 4.8459 -1.1624 6.3411 0
M  V30 26 H 6.4735 -1.683 6.6343 0
M  V30 27 H 4.0328 0.549 5.2851 0
M  V30 28 H 6.2294 -1.3057 2.1055 0
M  V30 29 H 1.9699 1.4705 5.7061 0
M  V30 30 H 1.295 2.9286 4.9702 0
M  V30 31 H 3.0521 2.7902 5.1143 0
M  V30 32 H 6.633 -0.3818 -0.0855 0
M  V30 33 H 5.6934 -0.949 -1.4716 0
M  V30 34 H 5.8431 -2.0073 -0.0643 0
M  V30 35 H 0.8957 -0.0262 1.7062 0
M  V30 36 H 1.8236 -0.7397 0.3564 0
M  V30 37 H 0.1337 1.8082 0.1894 0
M  V30 38 H 1.0439 1.1092 -1.1338 0
M  V30 39 H -1.245 -0.2908 0.359 0
M  V30 40 H -0.3279 -0.9952 -0.9744 0
M  V30 41 H -1.088 0.861 -2.4777 0
M  V30 42 H -2.0051 1.5654 -1.1442 0
M  V30 43 H -3.3741 -0.5281 -0.9796 0
M  V30 44 H -2.457 -1.2325 -2.3132 0
M  V30 45 H -3.2173 0.6239 -3.8165 0
M  V30 46 H -4.1343 1.3283 -2.4829 0
M  V30 47 H -5.5032 -0.7652 -2.3183 0
M  V30 48 H -4.5862 -1.4695 -3.652 0
M  V30 49 H -5.3467 0.387 -5.1552 0
M  V30 50 H -6.2636 1.0913 -3.8217 0
M  V30 51 H -6.7204 -1.7058 -4.9943 0
M  V30 52 H -7.6373 -1.0015 -3.6607 0
M  V30 53 H -8.8618 -0.7633 -5.7962 0
M  V30 54 H -8.4267 0.8348 -5.1666 0
M  V30 55 H -7.5047 0.1267 -6.5077 0
M  V30 END ATOM
M  V30 BEGIN BOND
M  V30 1 2 1 2
M  V30 2 1 2 3
M  V30 3 1 2 4
M  V30 4 2 4 5
M  V30 5 1 4 6
M  V30 6 1 5 7
M  V30 7 2 6 8
M  V30 8 1 7 9
M  V30 9 2 7 10
M  V30 10 1 8 11
M  V30 11 1 9 12
M  V30 12 1 10 13
M  V30 13 1 11 14
M  V30 14 1 13 15
M  V30 15 1 15 16
M  V30 16 1 16 17
M  V30 17 1 17 18
M  V30 18 1 18 19
M  V30 19 1 19 20
M  V30 20 1 20 21
M  V30 21 1 21 22
M  V30 22 1 22 23
M  V30 23 1 23 24
M  V30 24 1 8 10
M  V30 25 1 3 25
M  V30 26 1 3 26
M  V30 27 1 5 27
M  V30 28 1 6 28
M  V30 29 1 12 29
M  V30 30 1 12 30
M  V30 31 1 12 31
M  V30 32 1 14 32
M  V30 33 1 14 33
M  V30 34 1 14 34
M  V30 35 1 15 35
M  V30 36 1 15 36
M  V30 37 1 16 37
M  V30 38 1 16 38
M  V30 39 1 17 39
M  V30 40 1 17 40
M  V30 41 1 18 41
M  V30 42 1 18 42
M  V30 43 1 19 43
M  V30 44 1 19 44
M  V30 45 1 20 45
M  V30 46 1 20 46
M  V30 47 1 21 47
M  V30 48 1 21 48
M  V30 49 1 22 49
M  V30 50 1 22 50
M  V30 51 1 23 51
M  V30 52 1 23 52
M  V30 53 1 24 53
M  V30 54 1 24 54
M  V30 55 1 24 55
M  V30 END BOND
M  V30 END CTAB
M  END
>  <Column 1>
1371

>  <level_0>
1519

>  <index>
1519

>  <Unnamed: 0>
1519

>  <NO.>
1531

>  <Name>
decimemide

>  <IUPAC_name>
4-decoxy-3-5-dimethoxybenzamide

>  <SMILES>
CCCCCCCCCCOc1c(OC)cc(C(N)=O)cc1OC

>  <CID>
26929

>  <logBB>


>  <BBB+/BBB->
BBB+

>  <Inchi>
InChI=1S/C19H31NO4/c1-4-5-6-7-8-9-10-11-12-24-18-16(22-2)13-15(19(20)21)14-17(18)23-3/h13-14H-4-12H2-1-3H3-(H2-20-21)

>  <threshold>
-1

>  <reference>
R1|R13|R19|R6|R24|R27|R27|R27|R30|R30|

>  <group>
B

>  <Class>
1

>  <ABC>
17.07

>  <ABCGG>
14.25

>  <nAcid>
0

>  <nBase>
0

>  <nAromAtom>
6

>  <nAromBond>
6

>  <nAtom>
55

>  <nHeavyAtom>
24

>  <nSpiro>
0

>  <nBridgehead>
0

>  <nHetero>
5

>  <nN>
1

>  <nO>
4

>  <nF>
0

>  <BalabanJ>
2.24

>  <BertzCT>
477.14

>  <nBonds>
55

>  <nBondsO>
24

>  <nBondsS>
48

>  <nBondsD>
1

>  <nBondsT>
0

>  <nBondsA>
6

>  <nBondsM>
7

>  <nBondsKS>
51

>  <nBondsKD>
4

>  <RNCG>
0.19

>  <RPCG>
0.1

>  <FCSP3>
0.63

>  <SZ>
30.67

>  <Sm>
28.1

>  <Sv>
31.02

>  <Sse>
54.75

>  <Sp>
33.96

>  <Si>
62.57

>  <MZ>
0.56

>  <Mm>
0.51

>  <Mv>
0.56

>  <Mse>
1

>  <Mp>
0.62

>  <Mi>
1.14

>  <NsCH3>
3

>  <NdCH2>
0

>  <NssCH2>
9

>  <NtCH>
0

>  <NdsCH>
0

>  <NaaCH>
2

>  <NsssCH>
0

>  <NddC>
0

>  <NtsC>
0

>  <NdssC>
1

>  <NaasC>
4

>  <NaaaC>
0

>  <NssssC>
0

>  <NsNH3>
0

>  <NsNH2>
1

>  <NssNH2>
0

>  <NdNH>
0

>  <NssNH>
0

>  <NaaNH>
0

>  <NtN>
0

>  <NsssNH>
0

>  <NdsN>
0

>  <NaaN>
0

>  <NsssN>
0

>  <NddsN>
0

>  <NaasN>
0

>  <NssssN>
0

>  <NsOH>
0

>  <NdO>
1

>  <NssO>
3

>  <NaaO>
0

>  <NsF>
0

>  <NsSiH3>
0

>  <NssSiH2>
0

>  <NsssSiH>
0

>  <NssssSi>
0

>  <NsPH2>
0

>  <NssPH>
0

>  <NsssP>
0

>  <NdsssP>
0

>  <NsssssP>
0

>  <NsSH>
0

>  <NdS>
0

>  <NssS>
0

>  <NaaS>
0

>  <NdssS>
0

>  <NddssS>
0

>  <NsCl>
0

>  <NsBr>
0

>  <NsI>
0

>  <fragCpx>
24.05

>  <fMF>
0.11

>  <nHBAcc>
4

>  <nHBDon>
1

>  <Kier1>
22.04

>  <Kier2>
13.24

>  <Lipinski>
1

>  <GhoseFilter>
1

>  <FilterItLogS>
-5.68

>  <VMcGowan>
283.97

>  <LabuteASA>
145.02

>  <PEOE_VSA1>
19.94

>  <PEOE_VSA2>
4.79

>  <PEOE_VSA3>
0

>  <PEOE_VSA4>
0

>  <PEOE_VSA5>
0

>  <PEOE_VSA6>
51.87

>  <PEOE_VSA7>
18.55

>  <PEOE_VSA8>
5.56

>  <PEOE_VSA9>
20.83

>  <PEOE_VSA10>
0

>  <PEOE_VSA11>
11.5

>  <PEOE_VSA12>
11.66

>  <PEOE_VSA13>
0

>  <SMR_VSA1>
19.01

>  <SMR_VSA2>
0

>  <SMR_VSA3>
0

>  <SMR_VSA4>
5.73

>  <SMR_VSA5>
58.29

>  <SMR_VSA6>
20.83

>  <SMR_VSA7>
17.7

>  <SMR_VSA8>
0

>  <SMR_VSA9>
17.25

>  <SlogP_VSA1>
19.94

>  <SlogP_VSA2>
26.73

>  <SlogP_VSA3>
0

>  <SlogP_VSA4>
0

>  <SlogP_VSA5>
68.65

>  <SlogP_VSA6>
12.13

>  <SlogP_VSA7>
0

>  <SlogP_VSA8>
0

>  <SlogP_VSA9>
0

>  <SlogP_VSA10>
0

>  <SlogP_VSA11>
17.25

>  <EState_VSA1>
5.91

>  <EState_VSA2>
0

>  <EState_VSA3>
29.42

>  <EState_VSA4>
12.84

>  <EState_VSA5>
52.74

>  <EState_VSA6>
12.13

>  <EState_VSA7>
0

>  <EState_VSA8>
6.92

>  <EState_VSA9>
19.94

>  <EState_VSA10>
4.79

>  <VSA_EState1>
16.43

>  <VSA_EState2>
11.35

>  <VSA_EState3>
0

>  <VSA_EState4>
5.65

>  <VSA_EState5>
0.92

>  <VSA_EState6>
3.15

>  <VSA_EState7>
9.95

>  <VSA_EState8>
2.83

>  <VSA_EState9>
3.06

>  <apol>
56.71

>  <bpol>
36.61

>  <nRing>
1

>  <nHRing>
0

>  <naRing>
1

>  <naHRing>
0

>  <nARing 2>
0

>  <nAHRing 2>
0

>  <nFRing>
0

>  <nFHRing>
0

>  <nFaRing>
0

>  <nFaHRing>
0

>  <nFARing 2>
0

>  <nFAHRing 2>
0

>  <nRot>
13

>  <SLogP>
4.32

>  <SMR>
96.17

>  <TopoPSA(NO)>
70.78

>  <TopoPSA>
70.78

>  <JGI1>
0.15

>  <JGI2>
0.07

>  <JGI3>
0.04

>  <JGI4>
0.04

>  <JGI5>
0.03

>  <Diameter>
16

>  <Radius>
8

>  <TMWC10>
119.68

>  <TSRW10>
57.22

>  <MW>
337.23

>  <AMW>
6.13

>  <WPath>
1685

>  <WPol>
32

>  <Zagreb1>
106

>  <Zagreb2>
117

>  <mZagreb2>
5.92

>  <yes>


>  <nAR-cont>
0.336376

>  <nHA-cont>
0.94700071

>  <MWHBN>
0.272274459

>  <MWHBN-cont>
0.91487736

>  <TPSA-cont>
0.505911648

>  <pka_cont>
0.97

>  <yes.1>


>  <BBB_SCORE>
4.152516046

>  <MMFF94 Energy>
30.188

$$$$
Compound 1155
Actelion Java MolfileCreator 2.0

  0  0  0  0  0  0              0 V3000
M  V30 BEGIN CTAB
M  V30 COUNTS 43 44 0 0 0
M  V30 BEGIN ATOM
M  V30 1 N -2.575 0.6237 -4.06 0
M  V30 2 C -2.8342 -0.3938 -3.2022 0
M  V30 3 C -3.3853 0.8029 -5.1221 0
M  V30 4 N -2.0237 -0.6025 -2.1067 0
M  V30 5 C -3.9461 -1.212 -3.4743 0
M  V30 6 N -4.4661 0.0871 -5.4752 0
M  V30 7 C -0.8907 0.2626 -1.8641 0
M  V30 8 C -4.6887 -0.9069 -4.6046 0
M  V30 9 C -4.5691 -2.3457 -2.8746 0
M  V30 10 C -0.1642 -0.1827 -0.5942 0
M  V30 11 N -5.7163 -1.805 -4.6981 0
M  V30 12 C -5.6572 -2.6888 -3.6506 0
M  V30 13 C 1.0433 0.7082 -0.3006 0
M  V30 14 C 1.7694 0.2608 0.9701 0
M  V30 15 C 2.9749 1.1567 1.2634 0
M  V30 16 C 3.8063 0.6865 2.4604 0
M  V30 17 C 3.059 0.7746 3.7929 0
M  V30 18 C 3.9706 0.4047 4.9639 0
M  V30 19 C 3.2335 0.4864 6.2913 0
M  V30 20 H -3.1303 1.6324 -5.7746 0
M  V30 21 H -2.2342 -1.365 -1.4813 0
M  V30 22 H -1.2267 1.3 -1.7457 0
M  V30 23 H -0.197 0.2226 -2.7127 0
M  V30 24 H -4.2539 -2.8536 -1.9731 0
M  V30 25 H 0.1623 -1.2246 -0.7029 0
M  V30 26 H -0.8584 -0.1569 0.2553 0
M  V30 27 H -6.4024 -1.7957 -5.4387 0
M  V30 28 H -6.3892 -3.4791 -3.5495 0
M  V30 29 H 0.714 1.7484 -0.1881 0
M  V30 30 H 1.7364 0.6781 -1.1501 0
M  V30 31 H 2.102 -0.7778 0.8562 0
M  V30 32 H 1.0675 0.2879 1.811 0
M  V30 33 H 2.6387 2.1873 1.4313 0
M  V30 34 H 3.6278 1.1777 0.382 0
M  V30 35 H 4.7082 1.3088 2.5144 0
M  V30 36 H 4.1435 -0.3434 2.292 0
M  V30 37 H 2.1956 0.1001 3.7853 0
M  V30 38 H 2.6759 1.7925 3.9336 0
M  V30 39 H 4.3562 -0.6123 4.8285 0
M  V30 40 H 4.8347 1.0787 4.9912 0
M  V30 41 H 3.9037 0.2187 7.1141 0
M  V30 42 H 2.8617 1.5001 6.4719 0
M  V30 43 H 2.3815 -0.2006 6.31 0
M  V30 END ATOM
M  V30 BEGIN BOND
M  V30 1 2 1 2
M  V30 2 1 1 3
M  V30 3 1 2 4
M  V30 4 1 2 5
M  V30 5 2 3 6
M  V30 6 1 4 7
M  V30 7 2 5 8
M  V30 8 1 5 9
M  V30 9 1 7 10
M  V30 10 1 8 11
M  V30 11 2 9 12
M  V30 12 1 10 13
M  V30 13 1 13 14
M  V30 14 1 14 15
M  V30 15 1 15 16
M  V30 16 1 16 17
M  V30 17 1 17 18
M  V30 18 1 18 19
M  V30 19 1 6 8
M  V30 20 1 11 12
M  V30 21 1 3 20
M  V30 22 1 4 21
M  V30 23 1 7 22
M  V30 24 1 7 23
M  V30 25 1 9 24
M  V30 26 1 10 25
M  V30 27 1 10 26
M  V30 28 1 11 27
M  V30 29 1 12 28
M  V30 30 1 13 29
M  V30 31 1 13 30
M  V30 32 1 14 31
M  V30 33 1 14 32
M  V30 34 1 15 33
M  V30 35 1 15 34
M  V30 36 1 16 35
M  V30 37 1 16 36
M  V30 38 1 17 37
M  V30 39 1 17 38
M  V30 40 1 18 39
M  V30 41 1 18 40
M  V30 42 1 19 41
M  V30 43 1 19 42
M  V30 44 1 19 43
M  V30 END BOND
M  V30 END CTAB
M  END
>  <Column 1>
1372

>  <level_0>
1520

>  <index>
1520

>  <Unnamed: 0>
1520

>  <NO.>
1532

>  <Name>
nonapyrimine

>  <IUPAC_name>
n-nonyl-7h-pyrrolo[2-3-d]pyrimidin-4-amine

>  <SMILES>
CCCCCCCCCNc1ncnc2[nH]ccc12

>  <CID>
3047795

>  <logBB>


>  <BBB+/BBB->
BBB+

>  <Inchi>
InChI=1S/C15H24N4/c1-2-3-4-5-6-7-8-10-16-14-13-9-11-17-15(13)19-12-18-14/h9-11-12H-2-8-10H2-1H3-(H2-16-17-18-19)

>  <threshold>
-1

>  <reference>
R1|R13|R19|R6|R27|R27|R27|R30|R30|

>  <group>
B

>  <Class>
1

>  <ABC>
14.06

>  <ABCGG>
11.55

>  <nAcid>
0

>  <nBase>
0

>  <nAromAtom>
9

>  <nAromBond>
10

>  <nAtom>
43

>  <nHeavyAtom>
19

>  <nSpiro>
0

>  <nBridgehead>
0

>  <nHetero>
4

>  <nN>
4

>  <nO>
0

>  <nF>
0

>  <BalabanJ>
1.48

>  <BertzCT>
477.71

>  <nBonds>
44

>  <nBondsO>
20

>  <nBondsS>
34

>  <nBondsD>
0

>  <nBondsT>
0

>  <nBondsA>
10

>  <nBondsM>
10

>  <nBondsKS>
40

>  <nBondsKD>
4

>  <RNCG>
0.23

>  <RPCG>
0.1

>  <FCSP3>
0.6

>  <SZ>
23.67

>  <Sm>
21.68

>  <Sv>
24.53

>  <Sse>
42.31

>  <Sp>
27.22

>  <Si>
49.15

>  <MZ>
0.55

>  <Mm>
0.5

>  <Mv>
0.57

>  <Mse>
0.98

>  <Mp>
0.63

>  <Mi>
1.14

>  <NsCH3>
1

>  <NdCH2>
0

>  <NssCH2>
8

>  <NtCH>
0

>  <NdsCH>
0

>  <NaaCH>
3

>  <NsssCH>
0

>  <NddC>
0

>  <NtsC>
0

>  <NdssC>
0

>  <NaasC>
1

>  <NaaaC>
2

>  <NssssC>
0

>  <NsNH3>
0

>  <NsNH2>
0

>  <NssNH2>
0

>  <NdNH>
0

>  <NssNH>
1

>  <NaaNH>
1

>  <NtN>
0

>  <NsssNH>
0

>  <NdsN>
0

>  <NaaN>
2

>  <NsssN>
0

>  <NddsN>
0

>  <NaasN>
0

>  <NssssN>
0

>  <NsOH>
0

>  <NdO>
0

>  <NssO>
0

>  <NaaO>
0

>  <NsF>
0

>  <NsSiH3>
0

>  <NssSiH2>
0

>  <NsssSiH>
0

>  <NssssSi>
0

>  <NsPH2>
0

>  <NssPH>
0

>  <NsssP>
0

>  <NdsssP>
0

>  <NsssssP>
0

>  <NsSH>
0

>  <NdS>
0

>  <NssS>
0

>  <NaaS>
0

>  <NdssS>
0

>  <NddssS>
0

>  <NsCl>
0

>  <NsBr>
0

>  <NsI>
0

>  <fragCpx>
58.04

>  <fMF>
0.21

>  <nHBAcc>
3

>  <nHBDon>
2

>  <Kier1>
15.39

>  <Kier2>
9.03

>  <Lipinski>
1

>  <GhoseFilter>
1

>  <FilterItLogS>
-5.76

>  <VMcGowan>
223.21

>  <LabuteASA>
114.6

>  <PEOE_VSA1>
10.3

>  <PEOE_VSA2>
0

>  <PEOE_VSA3>
9.97

>  <PEOE_VSA4>
0

>  <PEOE_VSA5>
0

>  <PEOE_VSA6>
45.45

>  <PEOE_VSA7>
12.49

>  <PEOE_VSA8>
12.74

>  <PEOE_VSA9>
5.39

>  <PEOE_VSA10>
17.79

>  <PEOE_VSA11>
0

>  <PEOE_VSA12>
0

>  <PEOE_VSA13>
0

>  <SMR_VSA1>
0

>  <SMR_VSA2>
0

>  <SMR_VSA3>
14.95

>  <SMR_VSA4>
0

>  <SMR_VSA5>
51.87

>  <SMR_VSA6>
11.86

>  <SMR_VSA7>
18.59

>  <SMR_VSA8>
0

>  <SMR_VSA9>
0

>  <SlogP_VSA1>
5.32

>  <SlogP_VSA2>
21.5

>  <SlogP_VSA3>
0

>  <SlogP_VSA4>
0

>  <SlogP_VSA5>
51.87

>  <SlogP_VSA6>
18.59

>  <SlogP_VSA7>
0

>  <SlogP_VSA8>
11.03

>  <SlogP_VSA9>
0

>  <SlogP_VSA10>
5.82

>  <SlogP_VSA11>
0

>  <EState_VSA1>
0

>  <EState_VSA2>
0

>  <EState_VSA3>
0

>  <EState_VSA4>
23.4

>  <EState_VSA5>
44.95

>  <EState_VSA6>
6.33

>  <EState_VSA7>
12.26

>  <EState_VSA8>
27.19

>  <EState_VSA9>
0

>  <EState_VSA10>
0

>  <VSA_EState1>
0

>  <VSA_EState2>
11.58

>  <VSA_EState3>
4.48

>  <VSA_EState4>
0.9

>  <VSA_EState5>
0.94

>  <VSA_EState6>
2.02

>  <VSA_EState7>
12.84

>  <VSA_EState8>
3.25

>  <VSA_EState9>
0

>  <apol>
45.45

>  <bpol>
27.5

>  <nRing>
2

>  <nHRing>
2

>  <naRing>
2

>  <naHRing>
2

>  <nARing 2>
0

>  <nAHRing 2>
0

>  <nFRing>
1

>  <nFHRing>
1

>  <nFaRing>
1

>  <nFaHRing>
1

>  <nFARing 2>
0

>  <nFAHRing 2>
0

>  <nRot>
9

>  <SLogP>
4.12

>  <SMR>
80.37

>  <TopoPSA(NO)>
53.6

>  <TopoPSA>
53.6

>  <JGI1>
0.08

>  <JGI2>
0.06

>  <JGI3>
0.03

>  <JGI4>
0.02

>  <JGI5>
0.01

>  <Diameter>
13

>  <Radius>
7

>  <TMWC10>
109.01

>  <TSRW10>
64.82

>  <MW>
260.2

>  <AMW>
6.05

>  <WPath>
909

>  <WPol>
22

>  <Zagreb1>
88

>  <Zagreb2>
98

>  <mZagreb2>
4.56

>  <yes>


>  <nAR-cont>
0.336376

>  <nHA-cont>
0.998649058

>  <MWHBN>
0.309967641

>  <MWHBN-cont>
0.809972194

>  <TPSA-cont>
0.625838716

>  <pka_cont>
0.97

>  <yes.1>


>  <BBB_SCORE>
4.286660781

>  <MMFF94 Energy>
-26.738

$$$$
Compound 1156
Actelion Java MolfileCreator 2.0

  0  0  0  0  0  0              0 V3000
M  V30 BEGIN CTAB
M  V30 COUNTS 59 61 0 0 0
M  V30 BEGIN ATOM
M  V30 1 O -0.4719 -0.4719 -1.8888 0
M  V30 2 C -1.4188 -1.1082 -1.4478 0
M  V30 3 O -1.5467 -1.6093 -0.1623 0
M  V30 4 N -2.5376 -1.4338 -2.164 0
M  V30 5 C -0.4564 -1.3415 0.6714 0
M  V30 6 C -2.7323 -1.0555 -3.5445 0
M  V30 7 C 0.7349 -2.0461 0.5173 0
M  V30 8 C -0.6305 -0.415 1.7044 0
M  V30 9 C -3.6816 0.1329 -3.6933 0
M  V30 10 C 1.7646 -1.7725 1.4089 0
M  V30 11 C 0.42 -0.1589 2.5909 0
M  V30 12 C -3.0927 1.4395 -3.1541 0
M  V30 13 C 1.6202 -0.8397 2.4394 0
M  V30 14 C 3.1539 -2.3514 1.4372 0 CFG=1
M  V30 15 C -4.0385 2.6173 -3.3989 0
M  V30 16 N 2.762 -0.7281 3.2177 0
M  V30 17 C 3.811 -1.5916 2.6561 0 CFG=1
M  V30 18 C 3.1643 -3.8315 1.8461 0
M  V30 19 C 3.9029 -2.1149 0.125 0
M  V30 20 C -3.4531 3.9222 -2.8562 0
M  V30 21 C 3.078 0.4885 3.9275 0
M  V30 22 N 4.418 -2.6916 3.4278 0
M  V30 23 C 3.4731 -3.8025 3.3332 0
M  V30 24 C -4.3975 5.0992 -3.1002 0
M  V30 25 C 4.7132 -2.3438 4.8057 0
M  V30 26 C -3.8192 6.3983 -2.5619 0
M  V30 27 H -3.2462 -1.9643 -1.677 0
M  V30 28 H -3.1632 -1.9279 -4.0471 0
M  V30 29 H -1.7674 -0.8406 -4.0163 0
M  V30 30 H 0.8567 -2.7714 -0.2786 0
M  V30 31 H -1.5765 0.105 1.8192 0
M  V30 32 H -4.6271 -0.082 -3.1801 0
M  V30 33 H -3.9144 0.2575 -4.7579 0
M  V30 34 H 0.2813 0.5575 3.3929 0
M  V30 35 H -2.1289 1.6362 -3.6389 0
M  V30 36 H -2.9033 1.3485 -2.0783 0
M  V30 37 H -5.0039 2.4193 -2.9172 0
M  V30 38 H -4.2282 2.7193 -4.4743 0
M  V30 39 H 4.6246 -0.9483 2.2939 0
M  V30 40 H 2.2246 -4.3551 1.6409 0
M  V30 41 H 3.9643 -4.3729 1.3245 0
M  V30 42 H 3.9033 -1.0532 -0.1482 0
M  V30 43 H 3.4421 -2.6675 -0.7014 0
M  V30 44 H 4.9469 -2.4384 0.2022 0
M  V30 45 H -2.4875 4.12 -3.3374 0
M  V30 46 H -3.2632 3.8207 -1.7806 0
M  V30 47 H 4.0218 0.3963 4.4729 0
M  V30 48 H 3.1784 1.33 3.2332 0
M  V30 49 H 2.3035 0.7288 4.6634 0
M  V30 50 H 3.9166 -4.7478 3.6622 0
M  V30 51 H 2.5604 -3.623 3.9159 0
M  V30 52 H -4.5873 5.208 -4.1744 0
M  V30 53 H -5.3632 4.9083 -2.6176 0
M  V30 54 H 5.1909 -3.1888 5.3142 0
M  V30 55 H 5.4255 -1.513 4.8484 0
M  V30 56 H 3.8205 -2.0709 5.3794 0
M  V30 57 H -4.5107 7.2264 -2.747 0
M  V30 58 H -3.6477 6.3339 -1.4826 0
M  V30 59 H -2.8674 6.6352 -3.0479 0
M  V30 END ATOM
M  V30 BEGIN BOND
M  V30 1 2 1 2
M  V30 2 1 2 3
M  V30 3 1 2 4
M  V30 4 1 3 5
M  V30 5 1 4 6
M  V30 6 2 5 7
M  V30 7 1 5 8
M  V30 8 1 6 9
M  V30 9 1 7 10
M  V30 10 2 8 11
M  V30 11 1 9 12
M  V30 12 2 10 13
M  V30 13 1 10 14
M  V30 14 1 12 15
M  V30 15 1 13 16
M  V30 16 1 14 17
M  V30 17 1 14 18
M  V30 18 1 14 19
M  V30 19 1 15 20
M  V30 20 1 16 21
M  V30 21 1 17 22
M  V30 22 1 18 23
M  V30 23 1 20 24
M  V30 24 1 22 25
M  V30 25 1 24 26
M  V30 26 1 11 13
M  V30 27 1 16 17
M  V30 28 1 22 23
M  V30 29 1 4 27
M  V30 30 1 6 28
M  V30 31 1 6 29
M  V30 32 1 7 30
M  V30 33 1 8 31
M  V30 34 1 9 32
M  V30 35 1 9 33
M  V30 36 1 11 34
M  V30 37 1 12 35
M  V30 38 1 12 36
M  V30 39 1 15 37
M  V30 40 1 15 38
M  V30 41 1 17 39
M  V30 42 1 18 40
M  V30 43 1 18 41
M  V30 44 1 19 42
M  V30 45 1 19 43
M  V30 46 1 19 44
M  V30 47 1 20 45
M  V30 48 1 20 46
M  V30 49 1 21 47
M  V30 50 1 21 48
M  V30 51 1 21 49
M  V30 52 1 23 50
M  V30 53 1 23 51
M  V30 54 1 24 52
M  V30 55 1 24 53
M  V30 56 1 25 54
M  V30 57 1 25 55
M  V30 58 1 25 56
M  V30 59 1 26 57
M  V30 60 1 26 58
M  V30 61 1 26 59
M  V30 END BOND
M  V30 BEGIN COLLECTION
M  V30 MDLV30/STEABS ATOMS=(2 14 17)
M  V30 END COLLECTION
M  V30 END CTAB
M  END
>  <Column 1>
1373

>  <level_0>
1521

>  <index>
1521

>  <Unnamed: 0>
1521

>  <NO.>
1533

>  <Name>
eptastigmine

>  <IUPAC_name>
[(3ar-8bs)-3-4-8b-trimethyl-2-3a-dihydro-1h-pyrrolo[2-3-b]indol-7-yl] n-heptylcarbamate

>  <SMILES>
CCCCCCCNC(=O)Oc1ccc2c(c1)[C@]1(C)CCN(C)[C@@H]1N2C

>  <CID>
65872

>  <logBB>


>  <BBB+/BBB->
BBB+

>  <Inchi>
InChI=1S/C21H33N3O2/c1-5-6-7-8-9-13-22-20(25)26-16-10-11-18-17(15-16)21(2)12-14-23(3)19(21)24(18)4/h10-11-15-19H-5-9-12-14H2-1-4H3-(H-22-25)/t19--21+/m1/s1

>  <threshold>
-1

>  <reference>
R1|R6|R24|R27|R27|R30|R30|

>  <group>
B

>  <Class>
1

>  <ABC>
20

>  <ABCGG>
16.22

>  <nAcid>
0

>  <nBase>
1

>  <nAromAtom>
6

>  <nAromBond>
6

>  <nAtom>
59

>  <nHeavyAtom>
26

>  <nSpiro>
0

>  <nBridgehead>
0

>  <nHetero>
5

>  <nN>
3

>  <nO>
2

>  <nF>
0

>  <BalabanJ>
1.44

>  <BertzCT>
648.14

>  <nBonds>
61

>  <nBondsO>
28

>  <nBondsS>
54

>  <nBondsD>
1

>  <nBondsT>
0

>  <nBondsA>
6

>  <nBondsM>
7

>  <nBondsKS>
57

>  <nBondsKD>
4

>  <RNCG>
0.2

>  <RPCG>
0.2

>  <FCSP3>
0.67

>  <SZ>
32.67

>  <Sm>
29.93

>  <Sv>
33.64

>  <Sse>
58.3

>  <Sp>
37.11

>  <Si>
67.14

>  <MZ>
0.55

>  <Mm>
0.51

>  <Mv>
0.57

>  <Mse>
0.99

>  <Mp>
0.63

>  <Mi>
1.14

>  <NsCH3>
4

>  <NdCH2>
0

>  <NssCH2>
8

>  <NtCH>
0

>  <NdsCH>
0

>  <NaaCH>
3

>  <NsssCH>
1

>  <NddC>
0

>  <NtsC>
0

>  <NdssC>
1

>  <NaasC>
3

>  <NaaaC>
0

>  <NssssC>
1

>  <NsNH3>
0

>  <NsNH2>
0

>  <NssNH2>
0

>  <NdNH>
0

>  <NssNH>
1

>  <NaaNH>
0

>  <NtN>
0

>  <NsssNH>
0

>  <NdsN>
0

>  <NaaN>
0

>  <NsssN>
2

>  <NddsN>
0

>  <NaasN>
0

>  <NssssN>
0

>  <NsOH>
0

>  <NdO>
1

>  <NssO>
1

>  <NaaO>
0

>  <NsF>
0

>  <NsSiH3>
0

>  <NssSiH2>
0

>  <NsssSiH>
0

>  <NssssSi>
0

>  <NsPH2>
0

>  <NssPH>
0

>  <NsssP>
0

>  <NdsssP>
0

>  <NsssssP>
0

>  <NsSH>
0

>  <NdS>
0

>  <NssS>
0

>  <NaaS>
0

>  <NdssS>
0

>  <NddssS>
0

>  <NsCl>
0

>  <NsBr>
0

>  <NsI>
0

>  <fragCpx>
134.05

>  <fMF>
0.2

>  <nHBAcc>
4

>  <nHBDon>
1

>  <Kier1>
20.73

>  <Kier2>
9

>  <Lipinski>
1

>  <GhoseFilter>
1

>  <FilterItLogS>
-5.15

>  <VMcGowan>
298.65

>  <LabuteASA>
157.24

>  <PEOE_VSA1>
14.95

>  <PEOE_VSA2>
4.9

>  <PEOE_VSA3>
4.79

>  <PEOE_VSA4>
0

>  <PEOE_VSA5>
0

>  <PEOE_VSA6>
39.53

>  <PEOE_VSA7>
43.65

>  <PEOE_VSA8>
31.24

>  <PEOE_VSA9>
6.17

>  <PEOE_VSA10>
5.75

>  <PEOE_VSA11>
0

>  <PEOE_VSA12>
0

>  <PEOE_VSA13>
0

>  <SMR_VSA1>
9.53

>  <SMR_VSA2>
0

>  <SMR_VSA3>
10.22

>  <SMR_VSA4>
0

>  <SMR_VSA5>
63.95

>  <SMR_VSA6>
32.08

>  <SMR_VSA7>
23.76

>  <SMR_VSA8>
0

>  <SMR_VSA9>
5.75

>  <SlogP_VSA1>
14.95

>  <SlogP_VSA2>
44.34

>  <SlogP_VSA3>
5.41

>  <SlogP_VSA4>
0

>  <SlogP_VSA5>
57.94

>  <SlogP_VSA6>
18.2

>  <SlogP_VSA7>
0

>  <SlogP_VSA8>
0

>  <SlogP_VSA9>
0

>  <SlogP_VSA10>
10.48

>  <SlogP_VSA11>
5.75

>  <EState_VSA1>
0

>  <EState_VSA2>
11.51

>  <EState_VSA3>
18.46

>  <EState_VSA4>
25.81

>  <EState_VSA5>
30.51

>  <EState_VSA6>
0

>  <EState_VSA7>
6.07

>  <EState_VSA8>
55.19

>  <EState_VSA9>
4.74

>  <EState_VSA10>
4.79

>  <VSA_EState1>
5.54

>  <VSA_EState2>
16.83

>  <VSA_EState3>
2.87

>  <VSA_EState4>
2.63

>  <VSA_EState5>
0.64

>  <VSA_EState6>
6.05

>  <VSA_EState7>
7.06

>  <VSA_EState8>
6.3

>  <VSA_EState9>
4.34

>  <apol>
61.98

>  <bpol>
39.7

>  <nRing>
3

>  <nHRing>
2

>  <naRing>
1

>  <naHRing>
0

>  <nARing 2>
2

>  <nAHRing 2>
2

>  <nFRing>
1

>  <nFHRing>
1

>  <nFaRing>
0

>  <nFaHRing>
0

>  <nFARing 2>
1

>  <nFAHRing 2>
1

>  <nRot>
7

>  <SLogP>
4.11

>  <SMR>
106.02

>  <TopoPSA(NO)>
44.81

>  <TopoPSA>
44.81

>  <JGI1>
0.2

>  <JGI2>
0.09

>  <JGI3>
0.08

>  <JGI4>
0.04

>  <JGI5>
0.03

>  <Diameter>
16

>  <Radius>
8

>  <TMWC10>
131.17

>  <TSRW10>
77.81

>  <MW>
359.26

>  <AMW>
6.09

>  <WPath>
1923

>  <WPol>
42

>  <Zagreb1>
136

>  <Zagreb2>
163

>  <mZagreb2>
5.82

>  <yes>


>  <nAR-cont>
1

>  <nHA-cont>
0.892715677

>  <MWHBN>
0.2637944

>  <MWHBN-cont>
0.933667735

>  <TPSA-cont>
0.687198375

>  <pka_cont>
0.97

>  <yes.1>


>  <BBB_SCORE>
5.152614029

>  <MMFF94 Energy>
-24.706

$$$$
Compound 1157
Actelion Java MolfileCreator 2.0

  0  0  0  0  0  0              0 V3000
M  V30 BEGIN CTAB
M  V30 COUNTS 58 59 0 0 0
M  V30 BEGIN ATOM
M  V30 1 O -1.5694 1.3339 1.9621 0
M  V30 2 C -0.753 0.465 2.2968 0
M  V30 3 N -1.0217 -0.3248 3.4147 0
M  V30 4 C 0.5663 0.2792 1.4646 0
M  V30 5 C -2.3287 -0.1637 4.0567 0
M  V30 6 C -0.0864 -1.1921 4.1194 0
M  V30 7 C 1.7898 0.7169 2.3096 0
M  V30 8 C 0.5445 1.242 0.2322 0
M  V30 9 C 0.6209 -1.1681 0.9008 0
M  V30 10 C -2.3263 0.9405 5.1038 0
M  V30 11 C 1.7245 1.9088 3.0613 0
M  V30 12 C 2.9956 -0.0043 2.3425 0
M  V30 13 C -0.4932 0.8656 -0.8339 0
M  V30 14 C -0.471 -1.4349 -0.14 0
M  V30 15 C 2.8065 2.3453 3.8287 0
M  V30 16 C 4.0786 0.4344 3.1114 0
M  V30 17 N -0.412 -0.5264 -1.2885 0
M  V30 18 C 3.9834 1.6061 3.8557 0
M  V30 19 C 0.7279 -0.8054 -2.173 0
M  V30 20 C 0.638 -0.1345 -3.5531 0
M  V30 21 C -0.6338 -0.5071 -4.3222 0
M  V30 22 C -0.6335 0.1134 -5.7216 0
M  V30 23 C -1.9295 -0.1365 -6.4958 0
M  V30 24 C -2.166 -1.6017 -6.8274 0
M  V30 25 H -2.6158 -1.1184 4.5118 0
M  V30 26 H -3.0845 0.0636 3.2962 0
M  V30 27 H 0.0481 -0.814 5.137 0
M  V30 28 H -0.5134 -2.1985 4.1648 0
M  V30 29 H 0.892 -1.253 3.6561 0
M  V30 30 H 1.5379 1.2614 -0.2371 0
M  V30 31 H 0.3484 2.2756 0.5479 0
M  V30 32 H 1.5878 -1.3594 0.4222 0
M  V30 33 H 0.5292 -1.9239 1.6848 0
M  V30 34 H -2.0474 1.9037 4.6645 0
M  V30 35 H -1.6163 0.7238 5.908 0
M  V30 36 H -3.3212 1.043 5.5483 0
M  V30 37 H 0.8215 2.5192 3.0541 0
M  V30 38 H 3.127 -0.922 1.778 0
M  V30 39 H -1.5057 1.0351 -0.4501 0
M  V30 40 H -0.4097 1.5599 -1.677 0
M  V30 41 H -1.4601 -1.3555 0.3285 0
M  V30 42 H -0.4023 -2.4751 -0.4822 0
M  V30 43 H 2.728 3.2667 4.4002 0
M  V30 44 H 5.0011 -0.1405 3.1241 0
M  V30 45 H 4.8274 1.9461 4.4496 0
M  V30 46 H 0.784 -1.8874 -2.351 0
M  V30 47 H 1.6791 -0.5219 -1.7083 0
M  V30 48 H 1.5126 -0.4472 -4.1379 0
M  V30 49 H 0.7113 0.9544 -3.4568 0
M  V30 50 H -1.518 -0.1611 -3.7747 0
M  V30 51 H -0.7005 -1.5982 -4.3958 0
M  V30 52 H 0.2177 -0.2703 -6.2968 0
M  V30 53 H -0.4918 1.1977 -5.6327 0
M  V30 54 H -2.7838 0.2516 -5.9289 0
M  V30 55 H -1.8881 0.4302 -7.4336 0
M  V30 56 H -3.0521 -1.7044 -7.4621 0
M  V30 57 H -1.3128 -2.0256 -7.3659 0
M  V30 58 H -2.336 -2.1952 -5.9244 0
M  V30 END ATOM
M  V30 BEGIN BOND
M  V30 1 2 1 2
M  V30 2 1 2 3
M  V30 3 1 2 4
M  V30 4 1 3 5
M  V30 5 1 3 6
M  V30 6 1 4 7
M  V30 7 1 4 8
M  V30 8 1 4 9
M  V30 9 1 5 10
M  V30 10 2 7 11
M  V30 11 1 7 12
M  V30 12 1 8 13
M  V30 13 1 9 14
M  V30 14 1 11 15
M  V30 15 2 12 16
M  V30 16 1 13 17
M  V30 17 2 15 18
M  V30 18 1 17 19
M  V30 19 1 19 20
M  V30 20 1 20 21
M  V30 21 1 21 22
M  V30 22 1 22 23
M  V30 23 1 23 24
M  V30 24 1 14 17
M  V30 25 1 16 18
M  V30 26 1 5 25
M  V30 27 1 5 26
M  V30 28 1 6 27
M  V30 29 1 6 28
M  V30 30 1 6 29
M  V30 31 1 8 30
M  V30 32 1 8 31
M  V30 33 1 9 32
M  V30 34 1 9 33
M  V30 35 1 10 34
M  V30 36 1 10 35
M  V30 37 1 10 36
M  V30 38 1 11 37
M  V30 39 1 12 38
M  V30 40 1 13 39
M  V30 41 1 13 40
M  V30 42 1 14 41
M  V30 43 1 14 42
M  V30 44 1 15 43
M  V30 45 1 16 44
M  V30 46 1 18 45
M  V30 47 1 19 46
M  V30 48 1 19 47
M  V30 49 1 20 48
M  V30 50 1 20 49
M  V30 51 1 21 50
M  V30 52 1 21 51
M  V30 53 1 22 52
M  V30 54 1 22 53
M  V30 55 1 23 54
M  V30 56 1 23 55
M  V30 57 1 24 56
M  V30 58 1 24 57
M  V30 59 1 24 58
M  V30 END BOND
M  V30 END CTAB
M  END
>  <Column 1>
1374

>  <level_0>
1522

>  <index>
1522

>  <Unnamed: 0>
1522

>  <NO.>
1534

>  <Name>
sameridine

>  <IUPAC_name>
n-ethyl-1-hexyl-n-methyl-4-phenylpiperidine-4-carboxamide

>  <SMILES>
CCCCCCN1CCC(C(=O)N(C)CC)(c2ccccc2)CC1

>  <CID>
65996

>  <logBB>


>  <BBB+/BBB->
BBB+

>  <Inchi>
InChI=1S/C21H34N2O/c1-4-6-7-11-16-23-17-14-21(15-18-23-20(24)22(3)5-2)19-12-9-8-10-13-19/h8-10-12-13H-4-7-11-14-18H2-1-3H3

>  <threshold>
-1

>  <reference>
R1|R13|R19|R6|R24|R27|R27|R27|R30|R30|

>  <group>
B

>  <Class>
1

>  <ABC>
17.73

>  <ABCGG>
14.77

>  <nAcid>
0

>  <nBase>
1

>  <nAromAtom>
6

>  <nAromBond>
6

>  <nAtom>
58

>  <nHeavyAtom>
24

>  <nSpiro>
0

>  <nBridgehead>
0

>  <nHetero>
3

>  <nN>
2

>  <nO>
1

>  <nF>
0

>  <BalabanJ>
1.95

>  <BertzCT>
491.82

>  <nBonds>
59

>  <nBondsO>
25

>  <nBondsS>
52

>  <nBondsD>
1

>  <nBondsT>
0

>  <nBondsA>
6

>  <nBondsM>
7

>  <nBondsKS>
55

>  <nBondsKD>
4

>  <RNCG>
0.21

>  <RPCG>
0.14

>  <FCSP3>
0.67

>  <SZ>
30.33

>  <Sm>
27.52

>  <Sv>
32.44

>  <Sse>
56.75

>  <Sp>
36.37

>  <Si>
65.85

>  <MZ>
0.52

>  <Mm>
0.47

>  <Mv>
0.56

>  <Mse>
0.98

>  <Mp>
0.63

>  <Mi>
1.14

>  <NsCH3>
3

>  <NdCH2>
0

>  <NssCH2>
10

>  <NtCH>
0

>  <NdsCH>
0

>  <NaaCH>
5

>  <NsssCH>
0

>  <NddC>
0

>  <NtsC>
0

>  <NdssC>
1

>  <NaasC>
1

>  <NaaaC>
0

>  <NssssC>
1

>  <NsNH3>
0

>  <NsNH2>
0

>  <NssNH2>
0

>  <NdNH>
0

>  <NssNH>
0

>  <NaaNH>
0

>  <NtN>
0

>  <NsssNH>
0

>  <NdsN>
0

>  <NaaN>
0

>  <NsssN>
2

>  <NddsN>
0

>  <NaasN>
0

>  <NssssN>
0

>  <NsOH>
0

>  <NdO>
1

>  <NssO>
0

>  <NaaO>
0

>  <NsF>
0

>  <NsSiH3>
0

>  <NssSiH2>
0

>  <NsssSiH>
0

>  <NssssSi>
0

>  <NsPH2>
0

>  <NssPH>
0

>  <NsssP>
0

>  <NdsssP>
0

>  <NsssssP>
0

>  <NsSH>
0

>  <NdS>
0

>  <NssS>
0

>  <NaaS>
0

>  <NdssS>
0

>  <NddssS>
0

>  <NsCl>
0

>  <NsBr>
0

>  <NsI>
0

>  <fragCpx>
73.03

>  <fMF>
0.21

>  <nHBAcc>
2

>  <nHBDon>
0

>  <Kier1>
20.31

>  <Kier2>
10.22

>  <Lipinski>
1

>  <GhoseFilter>
1

>  <FilterItLogS>
-5.2

>  <VMcGowan>
293.66

>  <LabuteASA>
147.58

>  <PEOE_VSA1>
9.8

>  <PEOE_VSA2>
4.79

>  <PEOE_VSA3>
0

>  <PEOE_VSA4>
0

>  <PEOE_VSA5>
0

>  <PEOE_VSA6>
56.52

>  <PEOE_VSA7>
51.38

>  <PEOE_VSA8>
13.59

>  <PEOE_VSA9>
5.41

>  <PEOE_VSA10>
0

>  <PEOE_VSA11>
0

>  <PEOE_VSA12>
5.91

>  <PEOE_VSA13>
0

>  <SMR_VSA1>
4.79

>  <SMR_VSA2>
0

>  <SMR_VSA3>
9.8

>  <SMR_VSA4>
0

>  <SMR_VSA5>
57.79

>  <SMR_VSA6>
33.23

>  <SMR_VSA7>
35.9

>  <SMR_VSA8>
0

>  <SMR_VSA9>
0

>  <SlogP_VSA1>
0

>  <SlogP_VSA2>
48.93

>  <SlogP_VSA3>
10.21

>  <SlogP_VSA4>
0

>  <SlogP_VSA5>
57.94

>  <SlogP_VSA6>
30.33

>  <SlogP_VSA7>
0

>  <SlogP_VSA8>
0

>  <SlogP_VSA9>
0

>  <SlogP_VSA10>
0

>  <SlogP_VSA11>
0

>  <EState_VSA1>
0

>  <EState_VSA2>
5.41

>  <EState_VSA3>
5.91

>  <EState_VSA4>
32.48

>  <EState_VSA5>
37.79

>  <EState_VSA6>
0

>  <EState_VSA7>
18.01

>  <EState_VSA8>
43.01

>  <EState_VSA9>
0

>  <EState_VSA10>
4.79

>  <VSA_EState1>
0

>  <VSA_EState2>
17.61

>  <VSA_EState3>
0

>  <VSA_EState4>
0.87

>  <VSA_EState5>
0.29

>  <VSA_EState6>
10.44

>  <VSA_EState7>
7.11

>  <VSA_EState8>
8.33

>  <VSA_EState9>
1.93

>  <apol>
60.74

>  <bpol>
38.4

>  <nRing>
2

>  <nHRing>
1

>  <naRing>
1

>  <naHRing>
0

>  <nARing 2>
1

>  <nAHRing 2>
1

>  <nFRing>
0

>  <nFHRing>
0

>  <nFaRing>
0

>  <nFaHRing>
0

>  <nFARing 2>
0

>  <nFAHRing 2>
0

>  <nRot>
8

>  <SLogP>
4.08

>  <SMR>
101.25

>  <TopoPSA(NO)>
23.55

>  <TopoPSA>
23.55

>  <JGI1>
0.18

>  <JGI2>
0.1

>  <JGI3>
0.05

>  <JGI4>
0.03

>  <JGI5>
0.02

>  <Diameter>
13

>  <Radius>
7

>  <TMWC10>
123.33

>  <TSRW10>
58.26

>  <MW>
330.27

>  <AMW>
5.69

>  <WPath>
1416

>  <WPol>
38

>  <Zagreb1>
116

>  <Zagreb2>
135

>  <mZagreb2>
5.69

>  <yes>


>  <nAR-cont>
0.816016

>  <nHA-cont>
0.94700071

>  <MWHBN>
0.110051365

>  <MWHBN-cont>
0.783438525

>  <TPSA-cont>
0.835606376

>  <pka_cont>
0.97

>  <yes.1>


>  <BBB_SCORE>
5.09438725

>  <MMFF94 Energy>
34.646

$$$$
Compound 1158
Actelion Java MolfileCreator 2.0

  0  0  0  0  0  0              0 V3000
M  V30 BEGIN CTAB
M  V30 COUNTS 42 43 0 0 0
M  V30 BEGIN ATOM
M  V30 1 S 1.8356 -2.6346 4.2339 0
M  V30 2 N 0.6193 -2.7903 3.1044 0
M  V30 3 N 2.4139 -1.122 3.8447 0
M  V30 4 C 0.6634 -1.6545 2.4049 0
M  V30 5 C 1.6811 -0.6934 2.8011 0
M  V30 6 O -0.2406 -1.4547 1.41 0
M  V30 7 C 1.9168 0.6034 2.1935 0
M  V30 8 C -1.0525 -2.5829 1.0846 0
M  V30 9 C 2.5613 1.6088 2.8222 0
M  V30 10 C 1.4401 0.7726 0.7606 0
M  V30 11 C -1.934 -2.2105 -0.1093 0
M  V30 12 C 2.8009 2.9381 2.1671 0
M  V30 13 N 2.062 1.9091 0.0439 0
M  V30 14 C -1.1054 -1.9106 -1.3634 0
M  V30 15 C 2.0019 3.1232 0.8677 0
M  V30 16 C 1.4082 2.1166 -1.2463 0
M  V30 17 C -1.9598 -1.6246 -2.6013 0
M  V30 18 C -2.7497 -0.3189 -2.5012 0
M  V30 19 C -3.4903 -0.0186 -3.7954 0
M  V30 20 H -1.7006 -2.8356 1.9328 0
M  V30 21 H -0.4308 -3.4484 0.8229 0
M  V30 22 H 2.9402 1.4814 3.8328 0
M  V30 23 H 0.3495 0.9014 0.7709 0
M  V30 24 H 1.6798 -0.1319 0.1879 0
M  V30 25 H -2.6289 -3.033 -0.3129 0
M  V30 26 H -2.5268 -1.3278 0.1551 0
M  V30 27 H 2.5352 3.7396 2.8657 0
M  V30 28 H 3.8739 3.0297 1.9593 0
M  V30 29 H -0.4658 -2.7749 -1.5807 0
M  V30 30 H -0.4364 -1.0613 -1.1819 0
M  V30 31 H 2.4274 3.9755 0.3238 0
M  V30 32 H 0.9605 3.38 1.1054 0
M  V30 33 H 1.4803 1.2145 -1.8637 0
M  V30 34 H 1.9045 2.9192 -1.8028 0
M  V30 35 H 0.3489 2.3768 -1.1389 0
M  V30 36 H -2.6452 -2.462 -2.7791 0
M  V30 37 H -1.2932 -1.5723 -3.4711 0
M  V30 38 H -3.4789 -0.3757 -1.6862 0
M  V30 39 H -2.0708 0.5114 -2.2751 0
M  V30 40 H -4.0516 0.9164 -3.7025 0
M  V30 41 H -2.7923 0.0864 -4.6319 0
M  V30 42 H -4.1986 -0.8177 -4.0363 0
M  V30 END ATOM
M  V30 BEGIN BOND
M  V30 1 1 1 2
M  V30 2 1 1 3
M  V30 3 2 2 4
M  V30 4 2 3 5
M  V30 5 1 4 6
M  V30 6 1 5 7
M  V30 7 1 6 8
M  V30 8 2 7 9
M  V30 9 1 7 10
M  V30 10 1 8 11
M  V30 11 1 9 12
M  V30 12 1 10 13
M  V30 13 1 11 14
M  V30 14 1 12 15
M  V30 15 1 13 16
M  V30 16 1 14 17
M  V30 17 1 17 18
M  V30 18 1 18 19
M  V30 19 1 4 5
M  V30 20 1 13 15
M  V30 21 1 8 20
M  V30 22 1 8 21
M  V30 23 1 9 22
M  V30 24 1 10 23
M  V30 25 1 10 24
M  V30 26 1 11 25
M  V30 27 1 11 26
M  V30 28 1 12 27
M  V30 29 1 12 28
M  V30 30 1 14 29
M  V30 31 1 14 30
M  V30 32 1 15 31
M  V30 33 1 15 32
M  V30 34 1 16 33
M  V30 35 1 16 34
M  V30 36 1 16 35
M  V30 37 1 17 36
M  V30 38 1 17 37
M  V30 39 1 18 38
M  V30 40 1 18 39
M  V30 41 1 19 40
M  V30 42 1 19 41
M  V30 43 1 19 42
M  V30 END BOND
M  V30 END CTAB
M  END
>  <Column 1>
1375

>  <level_0>
1523

>  <index>
1523

>  <Unnamed: 0>
1523

>  <NO.>
1535

>  <Name>
xanomeline

>  <IUPAC_name>
3-hexoxy-4-(1-methyl-3-6-dihydro-2h-pyridin-5-yl)-1-2-5-thiadiazole

>  <SMILES>
CCCCCCOc1nsnc1C1=CCCN(C)C1

>  <CID>
60809

>  <logBB>


>  <BBB+/BBB->
BBB+

>  <Inchi>
InChI=1S/C14H23N3OS/c1-3-4-5-6-10-18-14-13(15-19-16-14)12-8-7-9-17(2)11-12/h8H-3-7-9-11H2-1-2H3

>  <threshold>
-1

>  <reference>
R1|R13|R19|R6|R24|R27|R27|R27|R30|R30|

>  <group>
B

>  <Class>
1

>  <ABC>
14.17

>  <ABCGG>
12.23

>  <nAcid>
0

>  <nBase>
1

>  <nAromAtom>
5

>  <nAromBond>
5

>  <nAtom>
42

>  <nHeavyAtom>
19

>  <nSpiro>
0

>  <nBridgehead>
0

>  <nHetero>
5

>  <nN>
3

>  <nO>
1

>  <nF>
0

>  <BalabanJ>
1.7

>  <BertzCT>
416.58

>  <nBonds>
43

>  <nBondsO>
20

>  <nBondsS>
37

>  <nBondsD>
1

>  <nBondsT>
0

>  <nBondsA>
5

>  <nBondsM>
6

>  <nBondsKS>
40

>  <nBondsKD>
3

>  <RNCG>
0.33

>  <RPCG>
0.18

>  <FCSP3>
0.71

>  <SZ>
25.33

>  <Sm>
23.43

>  <Sv>
24.41

>  <Sse>
41.61

>  <Sp>
27.38

>  <Si>
47.78

>  <MZ>
0.6

>  <Mm>
0.56

>  <Mv>
0.58

>  <Mse>
0.99

>  <Mp>
0.65

>  <Mi>
1.14

>  <NsCH3>
2

>  <NdCH2>
0

>  <NssCH2>
8

>  <NtCH>
0

>  <NdsCH>
1

>  <NaaCH>
0

>  <NsssCH>
0

>  <NddC>
0

>  <NtsC>
0

>  <NdssC>
1

>  <NaasC>
2

>  <NaaaC>
0

>  <NssssC>
0

>  <NsNH3>
0

>  <NsNH2>
0

>  <NssNH2>
0

>  <NdNH>
0

>  <NssNH>
0

>  <NaaNH>
0

>  <NtN>
0

>  <NsssNH>
0

>  <NdsN>
0

>  <NaaN>
2

>  <NsssN>
1

>  <NddsN>
0

>  <NaasN>
0

>  <NssssN>
0

>  <NsOH>
0

>  <NdO>
0

>  <NssO>
1

>  <NaaO>
0

>  <NsF>
0

>  <NsSiH3>
0

>  <NssSiH2>
0

>  <NsssSiH>
0

>  <NssssSi>
0

>  <NsPH2>
0

>  <NssPH>
0

>  <NsssP>
0

>  <NdsssP>
0

>  <NsssssP>
0

>  <NsSH>
0

>  <NdS>
0

>  <NssS>
0

>  <NaaS>
1

>  <NdssS>
0

>  <NddssS>
0

>  <NsCl>
0

>  <NsBr>
0

>  <NsI>
0

>  <fragCpx>
58.05

>  <fMF>
0.26

>  <nHBAcc>
5

>  <nHBDon>
0

>  <Kier1>
15.39

>  <Kier2>
8.32

>  <Lipinski>
1

>  <GhoseFilter>
1

>  <FilterItLogS>
-3.93

>  <VMcGowan>
225.66

>  <LabuteASA>
119.35

>  <PEOE_VSA1>
9.64

>  <PEOE_VSA2>
0

>  <PEOE_VSA3>
0

>  <PEOE_VSA4>
4.37

>  <PEOE_VSA5>
4.37

>  <PEOE_VSA6>
32.26

>  <PEOE_VSA7>
25.46

>  <PEOE_VSA8>
13.09

>  <PEOE_VSA9>
18.34

>  <PEOE_VSA10>
5.69

>  <PEOE_VSA11>
0

>  <PEOE_VSA12>
0

>  <PEOE_VSA13>
5.88

>  <SMR_VSA1>
4.74

>  <SMR_VSA2>
0

>  <SMR_VSA3>
13.65

>  <SMR_VSA4>
0

>  <SMR_VSA5>
39.03

>  <SMR_VSA6>
26.74

>  <SMR_VSA7>
11.77

>  <SMR_VSA8>
0

>  <SMR_VSA9>
5.88

>  <SlogP_VSA1>
4.74

>  <SlogP_VSA2>
40.39

>  <SlogP_VSA3>
0

>  <SlogP_VSA4>
0

>  <SlogP_VSA5>
44.72

>  <SlogP_VSA6>
6.08

>  <SlogP_VSA7>
0

>  <SlogP_VSA8>
5.57

>  <SlogP_VSA9>
0

>  <SlogP_VSA10>
0

>  <SlogP_VSA11>
5.88

>  <EState_VSA1>
0

>  <EState_VSA2>
0

>  <EState_VSA3>
0

>  <EState_VSA4>
44.11

>  <EState_VSA5>
36.56

>  <EState_VSA6>
0

>  <EState_VSA7>
0

>  <EState_VSA8>
33.69

>  <EState_VSA9>
4.74

>  <EState_VSA10>
0

>  <VSA_EState1>
14.47

>  <VSA_EState2>
2.31

>  <VSA_EState3>
0

>  <VSA_EState4>
2.21

>  <VSA_EState5>
0.73

>  <VSA_EState6>
0

>  <VSA_EState7>
8.21

>  <VSA_EState8>
5.03

>  <VSA_EState9>
2.14

>  <apol>
45.72

>  <bpol>
31.26

>  <nRing>
2

>  <nHRing>
2

>  <naRing>
1

>  <naHRing>
1

>  <nARing 2>
1

>  <nAHRing 2>
1

>  <nFRing>
0

>  <nFHRing>
0

>  <nFaRing>
0

>  <nFaHRing>
0

>  <nFARing 2>
0

>  <nFAHRing 2>
0

>  <nRot>
7

>  <SLogP>
3.22

>  <SMR>
79.64

>  <TopoPSA(NO)>
38.25

>  <TopoPSA>
66.49

>  <JGI1>
0.13

>  <JGI2>
0.06

>  <JGI3>
0.04

>  <JGI4>
0.03

>  <JGI5>
0.02

>  <Diameter>
12

>  <Radius>
6

>  <TMWC10>
109.58

>  <TSRW10>
65

>  <MW>
281.16

>  <AMW>
6.69

>  <WPath>
810

>  <WPol>
23

>  <Zagreb1>
90

>  <Zagreb2>
101

>  <mZagreb2>
4.47

>  <yes>


>  <nAR-cont>
0.816016

>  <nHA-cont>
0.998649058

>  <MWHBN>
0.298190111

>  <MWHBN-cont>
0.846112315

>  <TPSA-cont>
0.535858512

>  <pka_cont>
0.97

>  <yes.1>


>  <BBB_SCORE>
4.640550554

>  <MMFF94 Energy>
30.615

$$$$
Compound 1159
Actelion Java MolfileCreator 2.0

  0  0  0  0  0  0              0 V3000
M  V30 BEGIN CTAB
M  V30 COUNTS 42 43 0 0 0
M  V30 BEGIN ATOM
M  V30 1 S 0.2426 4.6178 1.7804 0
M  V30 2 N 1.5367 3.5825 1.9839 0
M  V30 3 N -0.5589 3.8561 0.5285 0
M  V30 4 C 1.3554 2.63 1.0665 0
M  V30 5 C 0.179 2.775 0.2342 0
M  V30 6 S 2.5289 1.3225 0.9523 0
M  V30 7 C -0.2217 1.8594 -0.7964 0
M  V30 8 C 2.3078 0.5427 2.5824 0
M  V30 9 C -1.1707 0.9199 -0.6271 0
M  V30 10 C 0.4977 2.0506 -2.1146 0
M  V30 11 C 0.9772 -0.1979 2.7433 0
M  V30 12 C -1.5706 0.0077 -1.7504 0
M  V30 13 N 0.3678 0.8905 -3.024 0
M  V30 14 C 0.827 -1.4064 1.8133 0
M  V30 15 C -1.0376 0.4689 -3.1188 0
M  V30 16 C 0.909 1.212 -4.3423 0
M  V30 17 C -0.5015 -2.127 2.0536 0
M  V30 18 C -0.6584 -3.3276 1.121 0
M  V30 19 C -1.9856 -4.0352 1.3429 0
M  V30 20 H 2.4053 1.3039 3.3641 0
M  V30 21 H 3.1355 -0.1606 2.7245 0
M  V30 22 H -1.6725 0.798 0.3282 0
M  V30 23 H 0.1013 2.9578 -2.5924 0
M  V30 24 H 1.5676 2.2164 -1.9385 0
M  V30 25 H 0.9124 -0.5479 3.7817 0
M  V30 26 H 0.1361 0.4914 2.6023 0
M  V30 27 H -1.1968 -0.9983 -1.5258 0
M  V30 28 H -2.6639 -0.0533 -1.7964 0
M  V30 29 H 1.6577 -2.1024 1.9815 0
M  V30 30 H 0.8765 -1.0924 0.7651 0
M  V30 31 H -1.6619 1.288 -3.5018 0
M  V30 32 H -1.1376 -0.3674 -3.8216 0
M  V30 33 H 0.8665 0.3356 -4.9984 0
M  V30 34 H 1.9644 1.4964 -4.266 0
M  V30 35 H 0.3647 2.0309 -4.8266 0
M  V30 36 H -1.3322 -1.4283 1.8953 0
M  V30 37 H -0.5556 -2.462 3.0966 0
M  V30 38 H -0.5967 -2.9999 0.0769 0
M  V30 39 H 0.1603 -4.0373 1.2871 0
M  V30 40 H -2.0764 -4.8913 0.667 0
M  V30 41 H -2.0672 -4.4033 2.3707 0
M  V30 42 H -2.8264 -3.3606 1.1514 0
M  V30 END ATOM
M  V30 BEGIN BOND
M  V30 1 1 1 2
M  V30 2 1 1 3
M  V30 3 2 2 4
M  V30 4 2 3 5
M  V30 5 1 4 6
M  V30 6 1 5 7
M  V30 7 1 6 8
M  V30 8 2 7 9
M  V30 9 1 7 10
M  V30 10 1 8 11
M  V30 11 1 9 12
M  V30 12 1 10 13
M  V30 13 1 11 14
M  V30 14 1 12 15
M  V30 15 1 13 16
M  V30 16 1 14 17
M  V30 17 1 17 18
M  V30 18 1 18 19
M  V30 19 1 4 5
M  V30 20 1 13 15
M  V30 21 1 8 20
M  V30 22 1 8 21
M  V30 23 1 9 22
M  V30 24 1 10 23
M  V30 25 1 10 24
M  V30 26 1 11 25
M  V30 27 1 11 26
M  V30 28 1 12 27
M  V30 29 1 12 28
M  V30 30 1 14 29
M  V30 31 1 14 30
M  V30 32 1 15 31
M  V30 33 1 15 32
M  V30 34 1 16 33
M  V30 35 1 16 34
M  V30 36 1 16 35
M  V30 37 1 17 36
M  V30 38 1 17 37
M  V30 39 1 18 38
M  V30 40 1 18 39
M  V30 41 1 19 40
M  V30 42 1 19 41
M  V30 43 1 19 42
M  V30 END BOND
M  V30 END CTAB
M  END
>  <Column 1>
1376

>  <level_0>
1524

>  <index>
1524

>  <Unnamed: 0>
1524

>  <NO.>
1536

>  <Name>
tazomeline

>  <IUPAC_name>
3-hexylsulfanyl-4-(1-methyl-3-6-dihydro-2h-pyridin-5-yl)-1-2-5-thiadiazole

>  <SMILES>
CCCCCCSc1nsnc1C1=CCCN(C)C1

>  <CID>
131460

>  <logBB>


>  <BBB+/BBB->
BBB+

>  <Inchi>
InChI=1S/C14H23N3S2/c1-3-4-5-6-10-18-14-13(15-19-16-14)12-8-7-9-17(2)11-12/h8H-3-7-9-11H2-1-2H3

>  <threshold>
-1

>  <reference>
R1|R13|R19|R6|R24|R27|R27|R27|R30|R30|

>  <group>
B

>  <Class>
1

>  <ABC>
14.17

>  <ABCGG>
12.23

>  <nAcid>
0

>  <nBase>
1

>  <nAromAtom>
5

>  <nAromBond>
5

>  <nAtom>
42

>  <nHeavyAtom>
19

>  <nSpiro>
0

>  <nBridgehead>
0

>  <nHetero>
5

>  <nN>
3

>  <nO>
0

>  <nF>
0

>  <BalabanJ>
1.7

>  <BertzCT>
414.58

>  <nBonds>
43

>  <nBondsO>
20

>  <nBondsS>
37

>  <nBondsD>
1

>  <nBondsT>
0

>  <nBondsA>
5

>  <nBondsM>
6

>  <nBondsKS>
40

>  <nBondsKD>
3

>  <RNCG>
0.27

>  <RPCG>
0.12

>  <FCSP3>
0.71

>  <SZ>
26.67

>  <Sm>
24.77

>  <Sv>
24.88

>  <Sse>
41.35

>  <Sp>
28.63

>  <Si>
47.49

>  <MZ>
0.63

>  <Mm>
0.59

>  <Mv>
0.59

>  <Mse>
0.98

>  <Mp>
0.68

>  <Mi>
1.13

>  <NsCH3>
2

>  <NdCH2>
0

>  <NssCH2>
8

>  <NtCH>
0

>  <NdsCH>
1

>  <NaaCH>
0

>  <NsssCH>
0

>  <NddC>
0

>  <NtsC>
0

>  <NdssC>
1

>  <NaasC>
2

>  <NaaaC>
0

>  <NssssC>
0

>  <NsNH3>
0

>  <NsNH2>
0

>  <NssNH2>
0

>  <NdNH>
0

>  <NssNH>
0

>  <NaaNH>
0

>  <NtN>
0

>  <NsssNH>
0

>  <NdsN>
0

>  <NaaN>
2

>  <NsssN>
1

>  <NddsN>
0

>  <NaasN>
0

>  <NssssN>
0

>  <NsOH>
0

>  <NdO>
0

>  <NssO>
0

>  <NaaO>
0

>  <NsF>
0

>  <NsSiH3>
0

>  <NssSiH2>
0

>  <NsssSiH>
0

>  <NssssSi>
0

>  <NsPH2>
0

>  <NssPH>
0

>  <NsssP>
0

>  <NdsssP>
0

>  <NsssssP>
0

>  <NsSH>
0

>  <NdS>
0

>  <NssS>
1

>  <NaaS>
1

>  <NdssS>
0

>  <NddssS>
0

>  <NsCl>
0

>  <NsBr>
0

>  <NsI>
0

>  <fragCpx>
58.05

>  <fMF>
0.26

>  <nHBAcc>
5

>  <nHBDon>
0

>  <Kier1>
15.39

>  <Kier2>
8.32

>  <Lipinski>
1

>  <GhoseFilter>
1

>  <FilterItLogS>
-4.3

>  <VMcGowan>
236.14

>  <LabuteASA>
124.36

>  <PEOE_VSA1>
4.9

>  <PEOE_VSA2>
0

>  <PEOE_VSA3>
0

>  <PEOE_VSA4>
8.75

>  <PEOE_VSA5>
11.76

>  <PEOE_VSA6>
32.26

>  <PEOE_VSA7>
31.22

>  <PEOE_VSA8>
13.09

>  <PEOE_VSA9>
11.73

>  <PEOE_VSA10>
10.72

>  <PEOE_VSA11>
0

>  <PEOE_VSA12>
0

>  <PEOE_VSA13>
0

>  <SMR_VSA1>
0

>  <SMR_VSA2>
0

>  <SMR_VSA3>
13.65

>  <SMR_VSA4>
0

>  <SMR_VSA5>
44.05

>  <SMR_VSA6>
25.89

>  <SMR_VSA7>
11.77

>  <SMR_VSA8>
0

>  <SMR_VSA9>
0

>  <SlogP_VSA1>
0

>  <SlogP_VSA2>
39.54

>  <SlogP_VSA3>
0

>  <SlogP_VSA4>
0

>  <SlogP_VSA5>
44.72

>  <SlogP_VSA6>
11.1

>  <SlogP_VSA7>
0

>  <SlogP_VSA8>
5.57

>  <SlogP_VSA9>
0

>  <SlogP_VSA10>
0

>  <SlogP_VSA11>
0

>  <EState_VSA1>
0

>  <EState_VSA2>
0

>  <EState_VSA3>
0

>  <EState_VSA4>
30.23

>  <EState_VSA5>
48.74

>  <EState_VSA6>
0

>  <EState_VSA7>
11.76

>  <EState_VSA8>
33.69

>  <EState_VSA9>
0

>  <EState_VSA10>
0

>  <VSA_EState1>
8.97

>  <VSA_EState2>
2.35

>  <VSA_EState3>
1.14

>  <VSA_EState4>
2.5

>  <VSA_EState5>
1.17

>  <VSA_EState6>
0

>  <VSA_EState7>
8.73

>  <VSA_EState8>
4.41

>  <VSA_EState9>
2.17

>  <apol>
47.82

>  <bpol>
31.98

>  <nRing>
2

>  <nHRing>
2

>  <naRing>
1

>  <naHRing>
1

>  <nARing 2>
1

>  <nAHRing 2>
1

>  <nFRing>
0

>  <nFHRing>
0

>  <nFaRing>
0

>  <nFaHRing>
0

>  <nFARing 2>
0

>  <nFAHRing 2>
0

>  <nRot>
7

>  <SLogP>
3.93

>  <SMR>
84.87

>  <TopoPSA(NO)>
29.02

>  <TopoPSA>
82.56

>  <JGI1>
0.13

>  <JGI2>
0.06

>  <JGI3>
0.04

>  <JGI4>
0.03

>  <JGI5>
0.02

>  <Diameter>
12

>  <Radius>
6

>  <TMWC10>
109.58

>  <TSRW10>
65

>  <MW>
297.13

>  <AMW>
7.07

>  <WPath>
810

>  <WPol>
23

>  <Zagreb1>
90

>  <Zagreb2>
101

>  <mZagreb2>
4.47

>  <yes>


>  <nAR-cont>
0.816016

>  <nHA-cont>
0.998649058

>  <MWHBN>
0.290065951

>  <MWHBN-cont>
0.869367484

>  <TPSA-cont>
0.423679933

>  <pka_cont>
0.97

>  <yes.1>


>  <BBB_SCORE>
4.45107615

>  <MMFF94 Energy>
29.727

$$$$
Compound 1160
Actelion Java MolfileCreator 2.0

  0  0  0  0  0  0              0 V3000
M  V30 BEGIN CTAB
M  V30 COUNTS 26 25 0 0 0
M  V30 BEGIN ATOM
M  V30 1 O -3.4334 -2.4405 2.5932 0
M  V30 2 C -2.9872 -1.7645 1.6728 0
M  V30 3 N -3.5753 -0.5895 1.3006 0
M  V30 4 C -1.7816 -2.1803 0.8239 0
M  V30 5 N -1.1417 -0.9894 0.2166 0
M  V30 6 C -0.0238 -1.3962 -0.6373 0
M  V30 7 C 0.6425 -0.1907 -1.3095 0
M  V30 8 C 1.3416 0.7516 -0.325 0
M  V30 9 C 2.0795 1.8712 -1.0607 0
M  V30 10 C 2.7746 2.8124 -0.0896 0
M  V30 11 H -3.1751 -0.0631 0.5317 0
M  V30 12 H -4.3876 -0.2537 1.7961 0
M  V30 13 H -1.0729 -2.7074 1.4716 0
M  V30 14 H -2.1484 -2.8598 0.047 0
M  V30 15 H -0.7876 -0.4095 0.9795 0
M  V30 16 H 0.7228 -1.9488 -0.0543 0
M  V30 17 H -0.3914 -2.0637 -1.4259 0
M  V30 18 H -0.1026 0.3679 -1.89 0
M  V30 19 H 1.3806 -0.5677 -2.0287 0
M  V30 20 H 2.0534 0.1827 0.2853 0
M  V30 21 H 0.6089 1.1953 0.3588 0
M  V30 22 H 2.8248 1.4425 -1.7407 0
M  V30 23 H 1.3725 2.4435 -1.6726 0
M  V30 24 H 3.2959 3.6041 -0.6366 0
M  V30 25 H 2.0525 3.2842 0.5845 0
M  V30 26 H 3.5116 2.2762 0.5167 0
M  V30 END ATOM
M  V30 BEGIN BOND
M  V30 1 2 1 2
M  V30 2 1 2 3
M  V30 3 1 2 4
M  V30 4 1 4 5
M  V30 5 1 5 6
M  V30 6 1 6 7
M  V30 7 1 7 8
M  V30 8 1 8 9
M  V30 9 1 9 10
M  V30 10 1 3 11
M  V30 11 1 3 12
M  V30 12 1 4 13
M  V30 13 1 4 14
M  V30 14 1 5 15
M  V30 15 1 6 16
M  V30 16 1 6 17
M  V30 17 1 7 18
M  V30 18 1 7 19
M  V30 19 1 8 20
M  V30 20 1 8 21
M  V30 21 1 9 22
M  V30 22 1 9 23
M  V30 23 1 10 24
M  V30 24 1 10 25
M  V30 25 1 10 26
M  V30 END BOND
M  V30 END CTAB
M  END
>  <Column 1>
1377

>  <level_0>
1525

>  <index>
1525

>  <Unnamed: 0>
1525

>  <NO.>
1537

>  <Name>
milacemide

>  <IUPAC_name>
2-(pentylamino)acetamide

>  <SMILES>
CCCCCNCC(N)=O

>  <CID>
53569

>  <logBB>


>  <BBB+/BBB->
BBB+

>  <Inchi>
InChI=1S/C7H16N2O/c1-2-3-4-5-9-6-7(8)10/h9H-2-6H2-1H3-(H2-8-10)

>  <threshold>
-1

>  <reference>
R1|R7|R13|R19|R6|R24|R27|R27|R27|R29|R30|R30|

>  <group>
B

>  <Class>
1

>  <ABC>
6.58

>  <ABCGG>
6.49

>  <nAcid>
0

>  <nBase>
1

>  <nAromAtom>
0

>  <nAromBond>
0

>  <nAtom>
26

>  <nHeavyAtom>
10

>  <nSpiro>
0

>  <nBridgehead>
0

>  <nHetero>
3

>  <nN>
2

>  <nO>
1

>  <nF>
0

>  <BalabanJ>
2.77

>  <BertzCT>
93.61

>  <nBonds>
25

>  <nBondsO>
9

>  <nBondsS>
24

>  <nBondsD>
1

>  <nBondsT>
0

>  <nBondsA>
0

>  <nBondsM>
1

>  <nBondsKS>
24

>  <nBondsKD>
1

>  <RNCG>
0.32

>  <RPCG>
0.2

>  <FCSP3>
0.86

>  <SZ>
13.33

>  <Sm>
12.01

>  <Sv>
13.57

>  <Sse>
25.76

>  <Sp>
15.19

>  <Si>
30.11

>  <MZ>
0.51

>  <Mm>
0.46

>  <Mv>
0.52

>  <Mse>
0.99

>  <Mp>
0.58

>  <Mi>
1.16

>  <NsCH3>
1

>  <NdCH2>
0

>  <NssCH2>
5

>  <NtCH>
0

>  <NdsCH>
0

>  <NaaCH>
0

>  <NsssCH>
0

>  <NddC>
0

>  <NtsC>
0

>  <NdssC>
1

>  <NaasC>
0

>  <NaaaC>
0

>  <NssssC>
0

>  <NsNH3>
0

>  <NsNH2>
1

>  <NssNH2>
0

>  <NdNH>
0

>  <NssNH>
1

>  <NaaNH>
0

>  <NtN>
0

>  <NsssNH>
0

>  <NdsN>
0

>  <NaaN>
0

>  <NsssN>
0

>  <NddsN>
0

>  <NaasN>
0

>  <NssssN>
0

>  <NsOH>
0

>  <NdO>
1

>  <NssO>
0

>  <NaaO>
0

>  <NsF>
0

>  <NsSiH3>
0

>  <NssSiH2>
0

>  <NsssSiH>
0

>  <NssssSi>
0

>  <NsPH2>
0

>  <NssPH>
0

>  <NsssP>
0

>  <NdsssP>
0

>  <NsssssP>
0

>  <NsSH>
0

>  <NdS>
0

>  <NssS>
0

>  <NaaS>
0

>  <NdssS>
0

>  <NddssS>
0

>  <NsCl>
0

>  <NsBr>
0

>  <NsI>
0

>  <fragCpx>
9.03

>  <fMF>
0

>  <nHBAcc>
2

>  <nHBDon>
2

>  <Kier1>
10

>  <Kier2>
7.11

>  <Lipinski>
1

>  <GhoseFilter>
0

>  <FilterItLogS>
-1.91

>  <VMcGowan>
131.02

>  <LabuteASA>
61.98

>  <PEOE_VSA1>
11.05

>  <PEOE_VSA2>
4.79

>  <PEOE_VSA3>
0

>  <PEOE_VSA4>
0

>  <PEOE_VSA5>
0

>  <PEOE_VSA6>
19.77

>  <PEOE_VSA7>
12.97

>  <PEOE_VSA8>
0

>  <PEOE_VSA9>
6.54

>  <PEOE_VSA10>
0

>  <PEOE_VSA11>
0

>  <PEOE_VSA12>
5.91

>  <PEOE_VSA13>
0

>  <SMR_VSA1>
4.79

>  <SMR_VSA2>
0

>  <SMR_VSA3>
5.32

>  <SMR_VSA4>
5.73

>  <SMR_VSA5>
26.19

>  <SMR_VSA6>
13.09

>  <SMR_VSA7>
0

>  <SMR_VSA8>
0

>  <SMR_VSA9>
0

>  <SlogP_VSA1>
11.05

>  <SlogP_VSA2>
19

>  <SlogP_VSA3>
4.79

>  <SlogP_VSA4>
0

>  <SlogP_VSA5>
26.19

>  <SlogP_VSA6>
0

>  <SlogP_VSA7>
0

>  <SlogP_VSA8>
0

>  <SlogP_VSA9>
0

>  <SlogP_VSA10>
0

>  <SlogP_VSA11>
0

>  <EState_VSA1>
0

>  <EState_VSA2>
5.91

>  <EState_VSA3>
6.54

>  <EState_VSA4>
12.97

>  <EState_VSA5>
12.84

>  <EState_VSA6>
0

>  <EState_VSA7>
0

>  <EState_VSA8>
12.24

>  <EState_VSA9>
5.73

>  <EState_VSA10>
4.79

>  <VSA_EState1>
0

>  <VSA_EState2>
10.19

>  <VSA_EState3>
2.95

>  <VSA_EState4>
4.91

>  <VSA_EState5>
-0.28

>  <VSA_EState6>
0

>  <VSA_EState7>
3.55

>  <VSA_EState8>
3.36

>  <VSA_EState9>
0

>  <apol>
25.36

>  <bpol>
16.92

>  <nRing>
0

>  <nHRing>
0

>  <naRing>
0

>  <naHRing>
0

>  <nARing 2>
0

>  <nAHRing 2>
0

>  <nFRing>
0

>  <nFHRing>
0

>  <nFaRing>
0

>  <nFaHRing>
0

>  <nFARing 2>
0

>  <nFAHRing 2>
0

>  <nRot>
6

>  <SLogP>
0.25

>  <SMR>
41.59

>  <TopoPSA(NO)>
55.12

>  <TopoPSA>
55.12

>  <JGI1>
0.17

>  <JGI2>
0.05

>  <JGI3>
0.04

>  <JGI4>
0.03

>  <JGI5>
0.02

>  <Diameter>
8

>  <Radius>
4

>  <TMWC10>
75.3

>  <TSRW10>
36.32

>  <MW>
144.13

>  <AMW>
5.54

>  <WPath>
158

>  <WPol>
7

>  <Zagreb1>
36

>  <Zagreb2>
34

>  <mZagreb2>
2.58

>  <yes>


>  <nAR-cont>
0.336376

>  <nHA-cont>
0.645914733

>  <MWHBN>
0.333182972

>  <MWHBN-cont>
0.731617683

>  <TPSA-cont>
0.615228173

>  <pka_cont>
0.97

>  <yes.1>


>  <BBB_SCORE>
3.795173603

>  <MMFF94 Energy>
6.8289

$$$$
Compound 1161
Actelion Java MolfileCreator 2.0

  0  0  0  0  0  0              0 V3000
M  V30 BEGIN CTAB
M  V30 COUNTS 55 59 0 0 0
M  V30 BEGIN ATOM
M  V30 1 O 3.1414 2.7382 0.6437 0
M  V30 2 C 2.4349 1.7761 0.3409 0
M  V30 3 C 1.8491 1.7487 -1.0273 0
M  V30 4 C 2.1512 0.6126 1.3082 0 CFG=2
M  V30 5 C 0.8432 0.9191 -1.3395 0
M  V30 6 O 3.4278 -0.0128 1.6573 0
M  V30 7 C 1.2531 -0.4815 0.7178 0 CFG=1
M  V30 8 C 0.2138 -0.0401 -0.3476 0 CFG=1
M  V30 9 C 3.5533 -1.0135 0.723 0
M  V30 10 C 2.353 -1.2816 0.0959 0
M  V30 11 C 0.5749 -1.3546 1.8033 0
M  V30 12 N -0.8656 0.7379 0.3278 0
M  V30 13 C -0.2616 -1.4274 -0.9945 0 CFG=2
M  V30 14 C 4.6944 -1.6844 0.3483 0
M  V30 15 C 2.2346 -2.1294 -0.9871 0
M  V30 16 C -0.1619 -2.5653 1.2054 0
M  V30 17 C -2.1003 0.9105 -0.4348 0
M  V30 18 N -0.981 -2.2293 0.0364 0
M  V30 19 C 0.9179 -2.1863 -1.7108 0
M  V30 20 O 5.871 -1.435 0.9821 0
M  V30 21 C 4.6097 -2.5976 -0.7097 0
M  V30 22 C 3.388 -2.8048 -1.3882 0
M  V30 23 C -3.1001 1.8125 0.3042 0
M  V30 24 C -1.6665 -3.4004 -0.4942 0
M  V30 25 C -2.6631 3.2799 0.3782 0
M  V30 26 C -3.6664 4.1722 1.1143 0
M  V30 27 C -4.9949 4.3236 0.3896 0
M  V30 28 H 2.2561 2.462 -1.7346 0
M  V30 29 H 1.7109 1.0434 2.2155 0
M  V30 30 H 0.417 0.9627 -2.3385 0
M  V30 31 H 1.3067 -1.7211 2.5355 0
M  V30 32 H -0.1384 -0.7468 2.3748 0
M  V30 33 H -0.5139 1.6397 0.639 0
M  V30 34 H -0.9912 -1.196 -1.7829 0
M  V30 35 H 0.564 -3.3492 0.9559 0
M  V30 36 H -0.8035 -2.9853 1.9903 0
M  V30 37 H -1.9011 1.3386 -1.4235 0
M  V30 38 H -2.5901 -0.0569 -0.5822 0
M  V30 39 H 0.6529 -3.2292 -1.9104 0
M  V30 40 H 1.0673 -1.7151 -2.6916 0
M  V30 41 H 6.5703 -1.9686 0.5747 0
M  V30 42 H 5.4899 -3.14 -1.0433 0
M  V30 43 H 3.3587 -3.4861 -2.2356 0
M  V30 44 H -3.273 1.424 1.3158 0
M  V30 45 H -4.0573 1.7448 -0.2254 0
M  V30 46 H -2.3386 -3.82 0.2628 0
M  V30 47 H -0.9782 -4.1929 -0.8041 0
M  V30 48 H -2.2941 -3.1306 -1.3504 0
M  V30 49 H -2.5005 3.6684 -0.6343 0
M  V30 50 H -1.705 3.3572 0.9039 0
M  V30 51 H -3.8429 3.7824 2.1236 0
M  V30 52 H -3.2217 5.1677 1.2328 0
M  V30 53 H -5.6251 5.0521 0.9101 0
M  V30 54 H -4.8457 4.6769 -0.6354 0
M  V30 55 H -5.5441 3.3785 0.3545 0
M  V30 END ATOM
M  V30 BEGIN BOND
M  V30 1 2 1 2
M  V30 2 1 2 3
M  V30 3 1 2 4
M  V30 4 2 3 5
M  V30 5 1 4 6
M  V30 6 1 4 7
M  V30 7 1 5 8
M  V30 8 1 6 9
M  V30 9 1 7 10
M  V30 10 1 7 11
M  V30 11 1 8 12
M  V30 12 1 8 13
M  V30 13 1 9 14
M  V30 14 1 10 15
M  V30 15 1 11 16
M  V30 16 1 12 17
M  V30 17 1 13 18
M  V30 18 1 13 19
M  V30 19 1 14 20
M  V30 20 2 14 21
M  V30 21 2 15 22
M  V30 22 1 17 23
M  V30 23 1 18 24
M  V30 24 1 23 25
M  V30 25 1 25 26
M  V30 26 1 26 27
M  V30 27 1 7 8
M  V30 28 2 9 10
M  V30 29 1 15 19
M  V30 30 1 16 18
M  V30 31 1 21 22
M  V30 32 1 3 28
M  V30 33 1 4 29
M  V30 34 1 5 30
M  V30 35 1 11 31
M  V30 36 1 11 32
M  V30 37 1 12 33
M  V30 38 1 13 34
M  V30 39 1 16 35
M  V30 40 1 16 36
M  V30 41 1 17 37
M  V30 42 1 17 38
M  V30 43 1 19 39
M  V30 44 1 19 40
M  V30 45 1 20 41
M  V30 46 1 21 42
M  V30 47 1 22 43
M  V30 48 1 23 44
M  V30 49 1 23 45
M  V30 50 1 24 46
M  V30 51 1 24 47
M  V30 52 1 24 48
M  V30 53 1 25 49
M  V30 54 1 25 50
M  V30 55 1 26 51
M  V30 56 1 26 52
M  V30 57 1 27 53
M  V30 58 1 27 54
M  V30 59 1 27 55
M  V30 END BOND
M  V30 BEGIN COLLECTION
M  V30 MDLV30/STEABS ATOMS=(4 4 7 8 13)
M  V30 END COLLECTION
M  V30 END CTAB
M  END
>  <Column 1>
1378

>  <level_0>
1526

>  <index>
1526

>  <Unnamed: 0>
1526

>  <NO.>
1538

>  <Name>
pentamorphone

>  <IUPAC_name>
(4r-4as-7ar-12br)-9-hydroxy-3-methyl-4a-(pentylamino)-2-4-7a-13-tetrahydro-1h-4-12-methanobenzofuro[3-2-e]isoquinolin-7-one

>  <SMILES>
CCCCCN[C@@]12C=CC(=O)[C@@H]3Oc4c(O)ccc5c4[C@@]31CCN(C)[C@@H]2C5

>  <CID>
5464186

>  <logBB>


>  <BBB+/BBB->
BBB+

>  <Inchi>
InChI=1S/C22H28N2O3/c1-3-4-5-11-23-22-9-8-16(26)20-21(22)10-12-24(2)17(22)13-14-6-7-15(25)19(27-20)18(14)21/h6-9-17-20-23-25H-3-5-10-13H2-1-2H3/t17--20+-21+-22-/m1/s1

>  <threshold>
-1

>  <reference>
R1|R27|R30|

>  <group>
B

>  <Class>
-1

>  <ABC>
21.77

>  <ABCGG>
16.76

>  <nAcid>
0

>  <nBase>
2

>  <nAromAtom>
6

>  <nAromBond>
6

>  <nAtom>
55

>  <nHeavyAtom>
27

>  <nSpiro>
1

>  <nBridgehead>
2

>  <nHetero>
5

>  <nN>
2

>  <nO>
3

>  <nF>
0

>  <BalabanJ>
1.58

>  <BertzCT>
835.09

>  <nBonds>
59

>  <nBondsO>
31

>  <nBondsS>
51

>  <nBondsD>
2

>  <nBondsT>
0

>  <nBondsA>
6

>  <nBondsM>
8

>  <nBondsKS>
54

>  <nBondsKD>
5

>  <RNCG>
0.22

>  <RPCG>
0.13

>  <FCSP3>
0.59

>  <SZ>
33

>  <Sm>
30.68

>  <Sv>
33.25

>  <Sse>
54.75

>  <Sp>
35.94

>  <Si>
62.02

>  <MZ>
0.6

>  <Mm>
0.56

>  <Mv>
0.6

>  <Mse>
1

>  <Mp>
0.65

>  <Mi>
1.13

>  <NsCH3>
2

>  <NdCH2>
0

>  <NssCH2>
7

>  <NtCH>
0

>  <NdsCH>
2

>  <NaaCH>
2

>  <NsssCH>
2

>  <NddC>
0

>  <NtsC>
0

>  <NdssC>
1

>  <NaasC>
4

>  <NaaaC>
0

>  <NssssC>
2

>  <NsNH3>
0

>  <NsNH2>
0

>  <NssNH2>
0

>  <NdNH>
0

>  <NssNH>
1

>  <NaaNH>
0

>  <NtN>
0

>  <NsssNH>
0

>  <NdsN>
0

>  <NaaN>
0

>  <NsssN>
1

>  <NddsN>
0

>  <NaasN>
0

>  <NssssN>
0

>  <NsOH>
1

>  <NdO>
1

>  <NssO>
1

>  <NaaO>
0

>  <NsF>
0

>  <NsSiH3>
0

>  <NssSiH2>
0

>  <NsssSiH>
0

>  <NssssSi>
0

>  <NsPH2>
0

>  <NssPH>
0

>  <NsssP>
0

>  <NdsssP>
0

>  <NsssssP>
0

>  <NsSH>
0

>  <NdS>
0

>  <NssS>
0

>  <NaaS>
0

>  <NdssS>
0

>  <NddssS>
0

>  <NsCl>
0

>  <NsBr>
0

>  <NsI>
0

>  <fragCpx>
259.05

>  <fMF>
0.33

>  <nHBAcc>
5

>  <nHBDon>
2

>  <Kier1>
18.99

>  <Kier2>
6.77

>  <Lipinski>
1

>  <GhoseFilter>
1

>  <FilterItLogS>
-4.69

>  <VMcGowan>
282.61

>  <LabuteASA>
159.94

>  <PEOE_VSA1>
20.06

>  <PEOE_VSA2>
4.79

>  <PEOE_VSA3>
0

>  <PEOE_VSA4>
0

>  <PEOE_VSA5>
0

>  <PEOE_VSA6>
31.91

>  <PEOE_VSA7>
57.11

>  <PEOE_VSA8>
11.61

>  <PEOE_VSA9>
10.95

>  <PEOE_VSA10>
0

>  <PEOE_VSA11>
23.39

>  <PEOE_VSA12>
0

>  <PEOE_VSA13>
0

>  <SMR_VSA1>
14.64

>  <SMR_VSA2>
0

>  <SMR_VSA3>
10.22

>  <SMR_VSA4>
0

>  <SMR_VSA5>
62.13

>  <SMR_VSA6>
20.14

>  <SMR_VSA7>
35.41

>  <SMR_VSA8>
0

>  <SMR_VSA9>
11.5

>  <SlogP_VSA1>
10.05

>  <SlogP_VSA2>
53.61

>  <SlogP_VSA3>
16.63

>  <SlogP_VSA4>
0

>  <SlogP_VSA5>
43.73

>  <SlogP_VSA6>
24.28

>  <SlogP_VSA7>
0

>  <SlogP_VSA8>
0

>  <SlogP_VSA9>
0

>  <SlogP_VSA10>
0

>  <SlogP_VSA11>
11.5

>  <EState_VSA1>
11.52

>  <EState_VSA2>
23.11

>  <EState_VSA3>
5.75

>  <EState_VSA4>
37.92

>  <EState_VSA5>
18.41

>  <EState_VSA6>
12.14

>  <EState_VSA7>
6.07

>  <EState_VSA8>
30.26

>  <EState_VSA9>
4.74

>  <EState_VSA10>
9.9

>  <VSA_EState1>
6.2

>  <VSA_EState2>
15.33

>  <VSA_EState3>
14.39

>  <VSA_EState4>
1.54

>  <VSA_EState5>
0.72

>  <VSA_EState6>
4.01

>  <VSA_EState7>
8.56

>  <VSA_EState8>
4.07

>  <VSA_EState9>
2.19

>  <apol>
60.02

>  <bpol>
32.97

>  <nRing>
5

>  <nHRing>
2

>  <naRing>
1

>  <naHRing>
0

>  <nARing 2>
4

>  <nAHRing 2>
2

>  <nFRing>
1

>  <nFHRing>
1

>  <nFaRing>
0

>  <nFaHRing>
0

>  <nFARing 2>
1

>  <nFAHRing 2>
1

>  <nRot>
5

>  <SLogP>
2.31

>  <SMR>
103.35

>  <TopoPSA(NO)>
61.8

>  <TopoPSA>
61.8

>  <JGI1>
0.19

>  <JGI2>
0.11

>  <JGI3>
0.06

>  <JGI4>
0.05

>  <JGI5>
0.03

>  <Diameter>
11

>  <Radius>
6

>  <TMWC10>
139.3

>  <TSRW10>
78.52

>  <MW>
368.21

>  <AMW>
6.69

>  <WPath>
1518

>  <WPol>
62

>  <Zagreb1>
160

>  <Zagreb2>
208

>  <mZagreb2>
5.83

>  <yes>


>  <nAR-cont>
0.199399

>  <nHA-cont>
0.860070871

>  <MWHBN>
0.364796154

>  <MWHBN-cont>
0.614006077

>  <TPSA-cont>
0.568597625

>  <pka_cont>
0.97

>  <yes.1>


>  <BBB_SCORE>
3.602674236

>  <MMFF94 Energy>
118.78

$$$$
Compound 1162
Actelion Java MolfileCreator 2.0

  0  0  0  0  0  0              0 V3000
M  V30 BEGIN CTAB
M  V30 COUNTS 59 59 0 0 0
M  V30 BEGIN ATOM
M  V30 1 O 0.9391 -3.8392 -2.6627 0
M  V30 2 C 1.3296 -2.6779 -2.6632 0
M  V30 3 C 0.7934 -1.5895 -1.7509 0 CFG=1
M  V30 4 C 2.4243 -2.1904 -3.5703 0
M  V30 5 C 1.3389 -0.3317 -2.4577 0 CFG=2
M  V30 6 C -0.7346 -1.5915 -1.6511 0
M  V30 7 C 2.6937 -0.7961 -3.0256 0 CFG=2
M  V30 8 C 1.4909 0.9277 -1.6308 0
M  V30 9 C -1.2476 -2.6049 -0.6221 0
M  V30 10 O 3.1198 0.0727 -4.0676 0
M  V30 11 C 1.1857 1.1012 -0.3339 0
M  V30 12 C -2.7744 -2.5715 -0.5255 0
M  V30 13 C 1.3621 2.3979 0.4064 0 CFG=1
M  V30 14 C -3.2892 -3.5821 0.5007 0
M  V30 15 O 0.0834 2.7735 0.9017 0
M  V30 16 C 2.3368 2.2372 1.5783 0
M  V30 17 C -4.8148 -3.5478 0.5982 0
M  V30 18 C 2.5182 3.502 2.4282 0
M  V30 19 C -5.3297 -4.5592 1.6202 0
M  V30 20 C 3.1597 4.6616 1.6631 0
M  V30 21 C -6.8306 -4.5303 1.7238 0
M  V30 22 C 3.4347 5.849 2.5869 0
M  V30 23 O -7.6059 -3.8158 1.1127 0
M  V30 24 O -7.2882 -5.4281 2.6191 0
M  V30 25 C 4.0682 7.007 1.8323 0
M  V30 26 H 1.2673 -1.7265 -0.7714 0
M  V30 27 H 3.3094 -2.8263 -3.4913 0
M  V30 28 H 2.0678 -2.1707 -4.6044 0
M  V30 29 H 0.6797 -0.0686 -3.299 0
M  V30 30 H -1.0908 -0.5958 -1.3608 0
M  V30 31 H -1.1762 -1.8139 -2.6308 0
M  V30 32 H 3.4643 -0.8191 -2.2445 0
M  V30 33 H 1.8935 1.7756 -2.1885 0
M  V30 34 H -0.8149 -2.3785 0.3601 0
M  V30 35 H -0.924 -3.616 -0.8915 0
M  V30 36 H 3.98 -0.2489 -4.3905 0
M  V30 37 H 0.7741 0.287 0.2573 0
M  V30 38 H -3.2093 -2.7919 -1.5079 0
M  V30 39 H -3.1031 -1.5633 -0.2448 0
M  V30 40 H 1.7067 3.1865 -0.2705 0
M  V30 41 H -2.8534 -3.3627 1.4831 0
M  V30 42 H -2.9618 -4.5904 0.2195 0
M  V30 43 H -0.5097 2.8248 0.1325 0
M  V30 44 H 1.9679 1.4497 2.2495 0
M  V30 45 H 3.315 1.9064 1.2071 0
M  V30 46 H -5.2534 -3.7607 -0.3847 0
M  V30 47 H -5.1449 -2.5394 0.878 0
M  V30 48 H 3.1532 3.2452 3.2854 0
M  V30 49 H 1.5525 3.8185 2.84 0
M  V30 50 H -5.0263 -5.5703 1.3273 0
M  V30 51 H -4.9145 -4.3333 2.6087 0
M  V30 52 H 2.5001 4.9868 0.851 0
M  V30 53 H 4.0987 4.3267 1.2064 0
M  V30 54 H 2.4987 6.188 3.0462 0
M  V30 55 H 4.1028 5.5421 3.4 0
M  V30 56 H -8.2613 -5.3123 2.5932 0
M  V30 57 H 4.2567 7.8443 2.5116 0
M  V30 58 H 5.0227 6.7093 1.3867 0
M  V30 59 H 3.4103 7.3605 1.0319 0
M  V30 END ATOM
M  V30 BEGIN BOND
M  V30 1 2 1 2
M  V30 2 1 2 3
M  V30 3 1 2 4
M  V30 4 1 3 5
M  V30 5 1 3 6
M  V30 6 1 4 7
M  V30 7 1 5 8
M  V30 8 1 6 9
M  V30 9 1 7 10
M  V30 10 2 8 11
M  V30 11 1 9 12
M  V30 12 1 11 13
M  V30 13 1 12 14
M  V30 14 1 13 15
M  V30 15 1 13 16
M  V30 16 1 14 17
M  V30 17 1 16 18
M  V30 18 1 17 19
M  V30 19 1 18 20
M  V30 20 1 19 21
M  V30 21 1 20 22
M  V30 22 2 21 23
M  V30 23 1 21 24
M  V30 24 1 22 25
M  V30 25 1 5 7
M  V30 26 1 3 26
M  V30 27 1 4 27
M  V30 28 1 4 28
M  V30 29 1 5 29
M  V30 30 1 6 30
M  V30 31 1 6 31
M  V30 32 1 7 32
M  V30 33 1 8 33
M  V30 34 1 9 34
M  V30 35 1 9 35
M  V30 36 1 10 36
M  V30 37 1 11 37
M  V30 38 1 12 38
M  V30 39 1 12 39
M  V30 40 1 13 40
M  V30 41 1 14 41
M  V30 42 1 14 42
M  V30 43 1 15 43
M  V30 44 1 16 44
M  V30 45 1 16 45
M  V30 46 1 17 46
M  V30 47 1 17 47
M  V30 48 1 18 48
M  V30 49 1 18 49
M  V30 50 1 19 50
M  V30 51 1 19 51
M  V30 52 1 20 52
M  V30 53 1 20 53
M  V30 54 1 22 54
M  V30 55 1 22 55
M  V30 56 1 24 56
M  V30 57 1 25 57
M  V30 58 1 25 58
M  V30 59 1 25 59
M  V30 END BOND
M  V30 BEGIN COLLECTION
M  V30 MDLV30/STEABS ATOMS=(4 3 5 7 13)
M  V30 END COLLECTION
M  V30 END CTAB
M  END
>  <Column 1>
1379

>  <level_0>
1527

>  <index>
1527

>  <Unnamed: 0>
1527

>  <NO.>
1539

>  <Name>
alprostadil

>  <IUPAC_name>
7-[(1r-2r-3r)-3-hydroxy-2-[(e-3s)-3-hydroxyoct-1-enyl]-5-oxocyclopentyl]heptanoic acid

>  <SMILES>
CCCCC[C@H](O)/C=C/[C@H]1[C@H](O)CC(=O)[C@@H]1CCCCCCC(=O)O

>  <CID>
5280723

>  <logBB>


>  <BBB+/BBB->
BBB-

>  <Inchi>
InChI=1S/C20H34O5/c1-2-3-6-9-15(21)12-13-17-16(18(22)14-19(17)23)10-7-4-5-8-11-20(24)25/h12-13-15-17-19-21-23H-2-11-14H2-1H3-(H-24-25)/b13-12+/t15--16+-17+-19+/m0/s1

>  <threshold>
-1

>  <reference>
R1|R15|R27|R30|

>  <group>
B

>  <Class>
1

>  <ABC>
18.1

>  <ABCGG>
15.47

>  <nAcid>
1

>  <nBase>
0

>  <nAromAtom>
0

>  <nAromBond>
0

>  <nAtom>
59

>  <nHeavyAtom>
25

>  <nSpiro>
0

>  <nBridgehead>
0

>  <nHetero>
5

>  <nN>
0

>  <nO>
5

>  <nF>
0

>  <BalabanJ>
2.27

>  <BertzCT>
431.8

>  <nBonds>
59

>  <nBondsO>
25

>  <nBondsS>
56

>  <nBondsD>
3

>  <nBondsT>
0

>  <nBondsA>
0

>  <nBondsM>
3

>  <nBondsKS>
56

>  <nBondsKD>
3

>  <RNCG>
0.2

>  <RPCG>
0.12

>  <FCSP3>
0.8

>  <SZ>
32.33

>  <Sm>
29.51

>  <Sv>
32.79

>  <Sse>
58.75

>  <Sp>
35.98

>  <Si>
67.11

>  <MZ>
0.55

>  <Mm>
0.5

>  <Mv>
0.56

>  <Mse>
1

>  <Mp>
0.61

>  <Mi>
1.14

>  <NsCH3>
1

>  <NdCH2>
0

>  <NssCH2>
11

>  <NtCH>
0

>  <NdsCH>
2

>  <NaaCH>
0

>  <NsssCH>
4

>  <NddC>
0

>  <NtsC>
0

>  <NdssC>
2

>  <NaasC>
0

>  <NaaaC>
0

>  <NssssC>
0

>  <NsNH3>
0

>  <NsNH2>
0

>  <NssNH2>
0

>  <NdNH>
0

>  <NssNH>
0

>  <NaaNH>
0

>  <NtN>
0

>  <NsssNH>
0

>  <NdsN>
0

>  <NaaN>
0

>  <NsssN>
0

>  <NddsN>
0

>  <NaasN>
0

>  <NssssN>
0

>  <NsOH>
3

>  <NdO>
2

>  <NssO>
0

>  <NaaO>
0

>  <NsF>
0

>  <NsSiH3>
0

>  <NssSiH2>
0

>  <NsssSiH>
0

>  <NssssSi>
0

>  <NsPH2>
0

>  <NssPH>
0

>  <NsssP>
0

>  <NdsssP>
0

>  <NsssssP>
0

>  <NsSH>
0

>  <NdS>
0

>  <NssS>
0

>  <NaaS>
0

>  <NdssS>
0

>  <NddssS>
0

>  <NsCl>
0

>  <NsBr>
0

>  <NsI>
0

>  <fragCpx>
25.05

>  <fMF>
0.08

>  <nHBAcc>
4

>  <nHBDon>
3

>  <Kier1>
23.04

>  <Kier2>
13.21

>  <Lipinski>
1

>  <GhoseFilter>
1

>  <FilterItLogS>
-3.22

>  <VMcGowan>
298.25

>  <LabuteASA>
150.68

>  <PEOE_VSA1>
15.32

>  <PEOE_VSA2>
9.59

>  <PEOE_VSA3>
0

>  <PEOE_VSA4>
0

>  <PEOE_VSA5>
0

>  <PEOE_VSA6>
57.6

>  <PEOE_VSA7>
19.26

>  <PEOE_VSA8>
24.68

>  <PEOE_VSA9>
12.21

>  <PEOE_VSA10>
5.78

>  <PEOE_VSA11>
0

>  <PEOE_VSA12>
0

>  <PEOE_VSA13>
0

>  <SMR_VSA1>
24.91

>  <SMR_VSA2>
0

>  <SMR_VSA3>
0

>  <SMR_VSA4>
11.84

>  <SMR_VSA5>
89.76

>  <SMR_VSA6>
0

>  <SMR_VSA7>
12.15

>  <SMR_VSA8>
0

>  <SMR_VSA9>
0

>  <SlogP_VSA1>
0

>  <SlogP_VSA2>
39.28

>  <SlogP_VSA3>
9.59

>  <SlogP_VSA4>
11.84

>  <SlogP_VSA5>
77.55

>  <SlogP_VSA6>
12.15

>  <SlogP_VSA7>
0

>  <SlogP_VSA8>
0

>  <SlogP_VSA9>
0

>  <SlogP_VSA10>
0

>  <SlogP_VSA11>
0

>  <EState_VSA1>
18.18

>  <EState_VSA2>
30.46

>  <EState_VSA3>
6.42

>  <EState_VSA4>
51.37

>  <EState_VSA5>
0

>  <EState_VSA6>
6.08

>  <EState_VSA7>
6.08

>  <EState_VSA8>
6.92

>  <EState_VSA9>
5.11

>  <EState_VSA10>
19.8

>  <VSA_EState1>
0

>  <VSA_EState2>
22.6

>  <VSA_EState3>
28.74

>  <VSA_EState4>
0

>  <VSA_EState5>
-1.04

>  <VSA_EState6>
0

>  <VSA_EState7>
10.74

>  <VSA_EState8>
2.12

>  <VSA_EState9>
0

>  <apol>
60.08

>  <bpol>
35.85

>  <nRing>
1

>  <nHRing>
0

>  <naRing>
0

>  <naHRing>
0

>  <nARing 2>
1

>  <nAHRing 2>
0

>  <nFRing>
0

>  <nFHRing>
0

>  <nFaRing>
0

>  <nFaHRing>
0

>  <nFARing 2>
0

>  <nFAHRing 2>
0

>  <nRot>
13

>  <SLogP>
3.48

>  <SMR>
97.24

>  <TopoPSA(NO)>
94.83

>  <TopoPSA>
94.83

>  <JGI1>
0.18

>  <JGI2>
0.08

>  <JGI3>
0.06

>  <JGI4>
0.03

>  <JGI5>
0.03

>  <Diameter>
17

>  <Radius>
9

>  <TMWC10>
121.93

>  <TSRW10>
72.51

>  <MW>
354.24

>  <AMW>
6

>  <WPath>
1888

>  <WPol>
30

>  <Zagreb1>
112

>  <Zagreb2>
122

>  <mZagreb2>
5.92

>  <yes>


>  <nAR-cont>
0.816016

>  <nHA-cont>
0.921834225

>  <MWHBN>
0.371919749

>  <MWHBN-cont>
0.586398965

>  <TPSA-cont>
0.338027714

>  <pka_cont>
0.97

>  <yes.1>


>  <BBB_SCORE>
3.7785041

>  <MMFF94 Energy>
-7.7602

$$$$
Compound 1163
Actelion Java MolfileCreator 2.0

  0  0  0  0  0  0              0 V3000
M  V30 BEGIN CTAB
M  V30 COUNTS 31 31 0 0 0
M  V30 BEGIN ATOM
M  V30 1 O 4.4521 -2.9663 0.6239 0
M  V30 2 C 3.4255 -2.402 0.2549 0
M  V30 3 C 2.0522 -2.862 0.6649 0
M  V30 4 C 3.5202 -1.2158 -0.6145 0
M  V30 5 O 2.0024 -3.9695 1.492 0
M  V30 6 C 0.9699 -2.1783 0.207 0
M  V30 7 C 2.3857 -0.6168 -0.9784 0
M  V30 8 N 1.1079 -1.0267 -0.614 0
M  V30 9 C -0.438 -2.6406 0.5233 0
M  V30 10 C -0.0434 -0.2064 -1.0567 0
M  V30 11 C -0.3242 0.9113 -0.0481 0
M  V30 12 C -1.5237 1.7574 -0.477 0
M  V30 13 C -1.8028 2.8757 0.5269 0
M  V30 14 C -2.9952 3.7191 0.1042 0
M  V30 15 H 4.5027 -0.8787 -0.9101 0
M  V30 16 H 1.1646 -3.9776 1.9743 0
M  V30 17 H 2.4206 0.268 -1.6092 0
M  V30 18 H -0.4859 -3.5683 1.0977 0
M  V30 19 H -0.9885 -2.8404 -0.4022 0
M  V30 20 H -0.9733 -1.8794 1.0992 0
M  V30 21 H 0.1718 0.2325 -2.0402 0
M  V30 22 H -0.9381 -0.8185 -1.209 0
M  V30 23 H 0.5608 1.5521 0.0499 0
M  V30 24 H -0.5119 0.484 0.9441 0
M  V30 25 H -2.41 1.1178 -0.5697 0
M  V30 26 H -1.3328 2.191 -1.4662 0
M  V30 27 H -1.9984 2.4474 1.5169 0
M  V30 28 H -0.9214 3.5207 0.6207 0
M  V30 29 H -3.1768 4.5125 0.8361 0
M  V30 30 H -2.8185 4.1885 -0.8687 0
M  V30 31 H -3.9014 3.1093 0.0324 0
M  V30 END ATOM
M  V30 BEGIN BOND
M  V30 1 2 1 2
M  V30 2 1 2 3
M  V30 3 1 2 4
M  V30 4 1 3 5
M  V30 5 2 3 6
M  V30 6 2 4 7
M  V30 7 1 6 8
M  V30 8 1 6 9
M  V30 9 1 8 10
M  V30 10 1 10 11
M  V30 11 1 11 12
M  V30 12 1 12 13
M  V30 13 1 13 14
M  V30 14 1 7 8
M  V30 15 1 4 15
M  V30 16 1 5 16
M  V30 17 1 7 17
M  V30 18 1 9 18
M  V30 19 1 9 19
M  V30 20 1 9 20
M  V30 21 1 10 21
M  V30 22 1 10 22
M  V30 23 1 11 23
M  V30 24 1 11 24
M  V30 25 1 12 25
M  V30 26 1 12 26
M  V30 27 1 13 27
M  V30 28 1 13 28
M  V30 29 1 14 29
M  V30 30 1 14 30
M  V30 31 1 14 31
M  V30 END BOND
M  V30 END CTAB
M  END
>  <Column 1>
1380

>  <level_0>
1528

>  <index>
1528

>  <Unnamed: 0>
1528

>  <NO.>
1540

>  <Name>
cp29

>  <IUPAC_name>
3-hydroxy-2-methyl-1-pentylpyridin-4-one

>  <SMILES>
CCCCCn1ccc(=O)c(O)c1C

>  <CID>
121734

>  <logBB>


>  <BBB+/BBB->
BBB+

>  <Inchi>
InChI=1S/C11H17NO2/c1-3-4-5-7-12-8-6-10(13)11(14)9(12)2/h6-8-14H-3-5-7H2-1-2H3

>  <threshold>
-1

>  <reference>
R1|R1|R13|R19|R28|R28|R9|R24|R27|R27|R30|R30|R36|

>  <group>
B

>  <Class>
1

>  <ABC>
10.11

>  <ABCGG>
9.35

>  <nAcid>
0

>  <nBase>
0

>  <nAromAtom>
6

>  <nAromBond>
6

>  <nAtom>
31

>  <nHeavyAtom>
14

>  <nSpiro>
0

>  <nBridgehead>
0

>  <nHetero>
3

>  <nN>
1

>  <nO>
2

>  <nF>
0

>  <BalabanJ>
2.31

>  <BertzCT>
354.8

>  <nBonds>
31

>  <nBondsO>
14

>  <nBondsS>
24

>  <nBondsD>
1

>  <nBondsT>
0

>  <nBondsA>
6

>  <nBondsM>
7

>  <nBondsKS>
28

>  <nBondsKD>
3

>  <RNCG>
0.37

>  <RPCG>
0.21

>  <FCSP3>
0.55

>  <SZ>
17.67

>  <Sm>
16.26

>  <Sv>
17.79

>  <Sse>
30.87

>  <Sp>
19.41

>  <Si>
35.24

>  <MZ>
0.57

>  <Mm>
0.52

>  <Mv>
0.57

>  <Mse>
1

>  <Mp>
0.63

>  <Mi>
1.14

>  <NsCH3>
2

>  <NdCH2>
0

>  <NssCH2>
4

>  <NtCH>
0

>  <NdsCH>
0

>  <NaaCH>
2

>  <NsssCH>
0

>  <NddC>
0

>  <NtsC>
0

>  <NdssC>
0

>  <NaasC>
2

>  <NaaaC>
0

>  <NssssC>
0

>  <NsNH3>
0

>  <NsNH2>
0

>  <NssNH2>
0

>  <NdNH>
0

>  <NssNH>
0

>  <NaaNH>
0

>  <NtN>
0

>  <NsssNH>
0

>  <NdsN>
0

>  <NaaN>
0

>  <NsssN>
0

>  <NddsN>
0

>  <NaasN>
1

>  <NssssN>
0

>  <NsOH>
1

>  <NdO>
1

>  <NssO>
0

>  <NaaO>
0

>  <NsF>
0

>  <NsSiH3>
0

>  <NssSiH2>
0

>  <NsssSiH>
0

>  <NssssSi>
0

>  <NsPH2>
0

>  <NssPH>
0

>  <NsssP>
0

>  <NdsssP>
0

>  <NsssssP>
0

>  <NsSH>
0

>  <NdS>
0

>  <NssS>
0

>  <NaaS>
0

>  <NdssS>
0

>  <NddssS>
0

>  <NsCl>
0

>  <NsBr>
0

>  <NsI>
0

>  <fragCpx>
14.03

>  <fMF>
0.19

>  <nHBAcc>
3

>  <nHBDon>
1

>  <Kier1>
12.07

>  <Kier2>
5.78

>  <Lipinski>
1

>  <GhoseFilter>
1

>  <FilterItLogS>
-2.63

>  <VMcGowan>
163.81

>  <LabuteASA>
84.01

>  <PEOE_VSA1>
9.67

>  <PEOE_VSA2>
4.79

>  <PEOE_VSA3>
0

>  <PEOE_VSA4>
0

>  <PEOE_VSA5>
0

>  <PEOE_VSA6>
19.77

>  <PEOE_VSA7>
13.34

>  <PEOE_VSA8>
18.81

>  <PEOE_VSA9>
5.69

>  <PEOE_VSA10>
0

>  <PEOE_VSA11>
5.75

>  <PEOE_VSA12>
5.43

>  <PEOE_VSA13>
0

>  <SMR_VSA1>
5.11

>  <SMR_VSA2>
0

>  <SMR_VSA3>
4.57

>  <SMR_VSA4>
0

>  <SMR_VSA5>
39.65

>  <SMR_VSA6>
0

>  <SMR_VSA7>
28.18

>  <SMR_VSA8>
0

>  <SMR_VSA9>
5.75

>  <SlogP_VSA1>
5.43

>  <SlogP_VSA2>
9.67

>  <SlogP_VSA3>
6.54

>  <SlogP_VSA4>
6.92

>  <SlogP_VSA5>
31.88

>  <SlogP_VSA6>
17.06

>  <SlogP_VSA7>
0

>  <SlogP_VSA8>
0

>  <SlogP_VSA9>
0

>  <SlogP_VSA10>
0

>  <SlogP_VSA11>
5.75

>  <EState_VSA1>
0

>  <EState_VSA2>
11.18

>  <EState_VSA3>
5.69

>  <EState_VSA4>
12.97

>  <EState_VSA5>
18.91

>  <EState_VSA6>
13.12

>  <EState_VSA7>
4.57

>  <EState_VSA8>
6.92

>  <EState_VSA9>
0

>  <EState_VSA10>
9.9

>  <VSA_EState1>
1.92

>  <VSA_EState2>
11.06

>  <VSA_EState3>
9.41

>  <VSA_EState4>
0.36

>  <VSA_EState5>
-0.12

>  <VSA_EState6>
1.41

>  <VSA_EState7>
5.17

>  <VSA_EState8>
4.78

>  <VSA_EState9>
0

>  <apol>
32.41

>  <bpol>
19.63

>  <nRing>
1

>  <nHRing>
1

>  <naRing>
1

>  <naHRing>
1

>  <nARing 2>
0

>  <nAHRing 2>
0

>  <nFRing>
0

>  <nFHRing>
0

>  <nFaRing>
0

>  <nFaHRing>
0

>  <nFARing 2>
0

>  <nFAHRing 2>
0

>  <nRot>
4

>  <SLogP>
2.05

>  <SMR>
56.63

>  <TopoPSA(NO)>
42.23

>  <TopoPSA>
42.23

>  <JGI1>
0.18

>  <JGI2>
0.11

>  <JGI3>
0.05

>  <JGI4>
0.06

>  <JGI5>
0.03

>  <Diameter>
9

>  <Radius>
5

>  <TMWC10>
95.36

>  <TSRW10>
45

>  <MW>
195.13

>  <AMW>
6.29

>  <WPath>
327

>  <WPol>
19

>  <Zagreb1>
64

>  <Zagreb2>
72

>  <mZagreb2>
3.33

>  <yes>


>  <nAR-cont>
0.336376

>  <nHA-cont>
0.887625254

>  <MWHBN>
0.286350515

>  <MWHBN-cont>
0.879508836

>  <TPSA-cont>
0.705208377

>  <pka_cont>
0.97

>  <yes.1>


>  <BBB_SCORE>
4.438681261

>  <MMFF94 Energy>
47.17

$$$$
Compound 1164
Actelion Java MolfileCreator 2.0

  0  0  0  0  0  0              0 V3000
M  V30 BEGIN CTAB
M  V30 COUNTS 77 80 0 0 0
M  V30 BEGIN ATOM
M  V30 1 O -2.6254 -2.8643 -1.0336 0
M  V30 2 C -3.3648 -1.8848 -0.9478 0
M  V30 3 N -3.6665 -1.2568 0.2645 0
M  V30 4 C -3.9721 -1.2645 -2.1952 0
M  V30 5 C -4.5412 -0.1771 0.4193 0
M  V30 6 C -3.0372 -1.7872 1.4746 0
M  V30 7 C -2.9914 -0.2441 -2.7426 0
M  V30 8 C -5.3451 -0.642 -1.9251 0
M  V30 9 O -4.8532 0.2861 1.5151 0
M  V30 10 C -5.0798 0.4293 -0.8634 0
M  V30 11 C -1.788 -0.9782 1.834 0
M  V30 12 O -2.1436 -0.569 -3.5722 0
M  V30 13 N -3.1016 1.0498 -2.2246 0
M  V30 14 C -5.9604 -0.0317 -3.2072 0
M  V30 15 C -6.3611 -1.6997 -1.4311 0
M  V30 16 C -4.0973 1.4854 -1.3448 0
M  V30 17 C -1.01 -1.6309 2.9786 0
M  V30 18 C -2.11 2.0323 -2.6644 0
M  V30 19 O -4.1771 2.6449 -0.9414 0
M  V30 20 C 0.1458 -0.7609 3.4946 0
M  V30 21 C -0.8781 2.0141 -1.7544 0
M  V30 22 N 1.0657 -0.2865 2.4514 0
M  V30 23 C 0.176 3.0128 -2.229 0
M  V30 24 C 2.0351 0.6766 3.0319 0
M  V30 25 C 1.8301 -1.3946 1.8266 0
M  V30 26 C 1.4027 2.9959 -1.332 0
M  V30 27 C 3.0451 1.2227 1.9974 0
M  V30 28 C 2.8318 -0.905 0.7542 0
M  V30 29 N 3.7277 0.122 1.3101 0
M  V30 30 C 4.9314 0.341 0.637 0
M  V30 31 C 5.9292 -0.6656 0.5496 0
M  V30 32 C 5.1956 1.5775 0.0204 0
M  V30 33 O 5.6641 -1.8461 1.2079 0
M  V30 34 C 7.118 -0.4221 -0.1545 0
M  V30 35 C 6.3845 1.813 -0.6731 0
M  V30 36 C 6.6963 -2.8189 1.2619 0
M  V30 37 C 7.3428 0.8125 -0.7633 0
M  V30 38 H -4.0803 -2.0602 -2.9442 0
M  V30 39 H -3.7532 -1.7501 2.3042 0
M  V30 40 H -2.7723 -2.8401 1.3274 0
M  V30 41 H -6.0232 0.9376 -0.623 0
M  V30 42 H -2.0784 0.0421 2.1133 0
M  V30 43 H -1.146 -0.8904 0.949 0
M  V30 44 H -6.1128 -0.8041 -3.97 0
M  V30 45 H -5.3405 0.7475 -3.6594 0
M  V30 46 H -6.9358 0.4203 -2.992 0
M  V30 47 H -6.0402 -2.2219 -0.5252 0
M  V30 48 H -7.3284 -1.2343 -1.2082 0
M  V30 49 H -6.5287 -2.4645 -2.1984 0
M  V30 50 H -1.6911 -1.8228 3.8174 0
M  V30 51 H -0.6344 -2.6098 2.6582 0
M  V30 52 H -1.8126 1.8138 -3.6967 0
M  V30 53 H -2.5556 3.0338 -2.6662 0
M  V30 54 H -0.3053 0.1104 3.9875 0
M  V30 55 H 0.688 -1.3137 4.2728 0
M  V30 56 H -0.4472 1.0053 -1.7326 0
M  V30 57 H -1.176 2.2486 -0.7247 0
M  V30 58 H 0.4785 2.7748 -3.2554 0
M  V30 59 H -0.2472 4.024 -2.2412 0
M  V30 60 H 1.4926 1.5309 3.4552 0
M  V30 61 H 2.5902 0.2021 3.8527 0
M  V30 62 H 2.3774 -1.9558 2.5959 0
M  V30 63 H 1.1446 -2.0934 1.3352 0
M  V30 64 H 2.1475 3.7121 -1.6928 0
M  V30 65 H 1.1392 3.2686 -0.3051 0
M  V30 66 H 1.8647 2.0036 -1.318 0
M  V30 67 H 3.7692 1.8538 2.5272 0
M  V30 68 H 2.5146 1.849 1.2711 0
M  V30 69 H 2.2797 -0.4766 -0.0928 0
M  V30 70 H 3.3735 -1.7759 0.3711 0
M  V30 71 H 4.458 2.3742 0.0515 0
M  V30 72 H 7.8929 -1.175 -0.2441 0
M  V30 73 H 6.5535 2.7764 -1.1465 0
M  V30 74 H 6.9234 -3.2077 0.264 0
M  V30 75 H 6.335 -3.6555 1.868 0
M  V30 76 H 7.5934 -2.4213 1.748 0
M  V30 77 H 8.2674 0.9913 -1.3054 0
M  V30 END ATOM
M  V30 BEGIN BOND
M  V30 1 2 1 2
M  V30 2 1 2 3
M  V30 3 1 2 4
M  V30 4 1 3 5
M  V30 5 1 3 6
M  V30 6 1 4 7
M  V30 7 1 4 8
M  V30 8 2 5 9
M  V30 9 1 5 10
M  V30 10 1 6 11
M  V30 11 2 7 12
M  V30 12 1 7 13
M  V30 13 1 8 14
M  V30 14 1 8 15
M  V30 15 1 10 16
M  V30 16 1 11 17
M  V30 17 1 13 18
M  V30 18 2 16 19
M  V30 19 1 17 20
M  V30 20 1 18 21
M  V30 21 1 20 22
M  V30 22 1 21 23
M  V30 23 1 22 24
M  V30 24 1 22 25
M  V30 25 1 23 26
M  V30 26 1 24 27
M  V30 27 1 25 28
M  V30 28 1 27 29
M  V30 29 1 29 30
M  V30 30 2 30 31
M  V30 31 1 30 32
M  V30 32 1 31 33
M  V30 33 1 31 34
M  V30 34 2 32 35
M  V30 35 1 33 36
M  V30 36 2 34 37
M  V30 37 1 8 10
M  V30 38 1 13 16
M  V30 39 1 28 29
M  V30 40 1 35 37
M  V30 41 1 4 38
M  V30 42 1 6 39
M  V30 43 1 6 40
M  V30 44 1 10 41
M  V30 45 1 11 42
M  V30 46 1 11 43
M  V30 47 1 14 44
M  V30 48 1 14 45
M  V30 49 1 14 46
M  V30 50 1 15 47
M  V30 51 1 15 48
M  V30 52 1 15 49
M  V30 53 1 17 50
M  V30 54 1 17 51
M  V30 55 1 18 52
M  V30 56 1 18 53
M  V30 57 1 20 54
M  V30 58 1 20 55
M  V30 59 1 21 56
M  V30 60 1 21 57
M  V30 61 1 23 58
M  V30 62 1 23 59
M  V30 63 1 24 60
M  V30 64 1 24 61
M  V30 65 1 25 62
M  V30 66 1 25 63
M  V30 67 1 26 64
M  V30 68 1 26 65
M  V30 69 1 26 66
M  V30 70 1 27 67
M  V30 71 1 27 68
M  V30 72 1 28 69
M  V30 73 1 28 70
M  V30 74 1 32 71
M  V30 75 1 34 72
M  V30 76 1 35 73
M  V30 77 1 36 74
M  V30 78 1 36 75
M  V30 79 1 36 76
M  V30 80 1 37 77
M  V30 END BOND
M  V30 END CTAB
M  END
>  <Column 1>
1381

>  <level_0>
1529

>  <index>
1529

>  <Unnamed: 0>
1529

>  <NO.>
1541

>  <Name>
umespirone

>  <IUPAC_name>
3-butyl-7-[4-[4-(2-methoxyphenyl)piperazin-1-yl]butyl]-9-9-dimethyl-3-7-diazabicyclo[3.3.1]nonane-2-4-6-8-tetrone

>  <SMILES>
CCCCN1C(=O)C2C(=O)N(CCCCN3CCN(c4ccccc4OC)CC3)C(=O)C(C1=O)C2(C)C

>  <CID>
65902

>  <logBB>


>  <BBB+/BBB->
BBB+

>  <Inchi>
InChI=1S/C28H40N4O5/c1-5-6-14-31-24(33)22-26(35)32(27(36)23(25(31)34)28(22-2)3)15-10-9-13-29-16-18-30(19-17-29)20-11-7-8-12-21(20)37-4/h7-8-11-12-22-23H-5-6-9-10-13-19H2-1-4H3

>  <threshold>
-1

>  <reference>
R1|R6|R27|R30|

>  <group>
B

>  <Class>
1

>  <ABC>
28.51

>  <ABCGG>
21.36

>  <nAcid>
0

>  <nBase>
1

>  <nAromAtom>
6

>  <nAromBond>
6

>  <nAtom>
77

>  <nHeavyAtom>
37

>  <nSpiro>
0

>  <nBridgehead>
2

>  <nHetero>
9

>  <nN>
4

>  <nO>
5

>  <nF>
0

>  <BalabanJ>
1.26

>  <BertzCT>
995.15

>  <nBonds>
80

>  <nBondsO>
40

>  <nBondsS>
70

>  <nBondsD>
4

>  <nBondsT>
0

>  <nBondsA>
6

>  <nBondsM>
10

>  <nBondsKS>
73

>  <nBondsKD>
7

>  <RNCG>
0.15

>  <RPCG>
0.07

>  <FCSP3>
0.64

>  <SZ>
46

>  <Sm>
42.68

>  <Sv>
45.44

>  <Sse>
77.06

>  <Sp>
49.01

>  <Si>
87.52

>  <MZ>
0.6

>  <Mm>
0.55

>  <Mv>
0.59

>  <Mse>
1

>  <Mp>
0.64

>  <Mi>
1.14

>  <NsCH3>
4

>  <NdCH2>
0

>  <NssCH2>
11

>  <NtCH>
0

>  <NdsCH>
0

>  <NaaCH>
4

>  <NsssCH>
2

>  <NddC>
0

>  <NtsC>
0

>  <NdssC>
4

>  <NaasC>
2

>  <NaaaC>
0

>  <NssssC>
1

>  <NsNH3>
0

>  <NsNH2>
0

>  <NssNH2>
0

>  <NdNH>
0

>  <NssNH>
0

>  <NaaNH>
0

>  <NtN>
0

>  <NsssNH>
0

>  <NdsN>
0

>  <NaaN>
0

>  <NsssN>
4

>  <NddsN>
0

>  <NaasN>
0

>  <NssssN>
0

>  <NsOH>
0

>  <NdO>
4

>  <NssO>
1

>  <NaaO>
0

>  <NsF>
0

>  <NsSiH3>
0

>  <NssSiH2>
0

>  <NsssSiH>
0

>  <NssssSi>
0

>  <NsPH2>
0

>  <NssPH>
0

>  <NsssP>
0

>  <NdsssP>
0

>  <NsssssP>
0

>  <NsSH>
0

>  <NdS>
0

>  <NssS>
0

>  <NaaS>
0

>  <NdssS>
0

>  <NddssS>
0

>  <NsCl>
0

>  <NsBr>
0

>  <NsI>
0

>  <fragCpx>
268.09

>  <fMF>
0.32

>  <nHBAcc>
7

>  <nHBDon>
0

>  <Kier1>
29.97

>  <Kier2>
13.11

>  <Lipinski>
0

>  <GhoseFilter>
0

>  <FilterItLogS>
-5.2

>  <VMcGowan>
401.11

>  <LabuteASA>
219.24

>  <PEOE_VSA1>
9.64

>  <PEOE_VSA2>
33.88

>  <PEOE_VSA3>
0

>  <PEOE_VSA4>
0

>  <PEOE_VSA5>
0

>  <PEOE_VSA6>
39.32

>  <PEOE_VSA7>
37.94

>  <PEOE_VSA8>
44.68

>  <PEOE_VSA9>
12.8

>  <PEOE_VSA10>
17.59

>  <PEOE_VSA11>
0

>  <PEOE_VSA12>
23.63

>  <PEOE_VSA13>
0

>  <SMR_VSA1>
23.92

>  <SMR_VSA2>
0

>  <SMR_VSA3>
14.7

>  <SMR_VSA4>
17.25

>  <SMR_VSA5>
46.45

>  <SMR_VSA6>
57.82

>  <SMR_VSA7>
24.27

>  <SMR_VSA8>
0

>  <SMR_VSA9>
5.75

>  <SlogP_VSA1>
9.64

>  <SlogP_VSA2>
91.25

>  <SlogP_VSA3>
19.18

>  <SlogP_VSA4>
17.25

>  <SlogP_VSA5>
46.45

>  <SlogP_VSA6>
24.27

>  <SlogP_VSA7>
0

>  <SlogP_VSA8>
0

>  <SlogP_VSA9>
0

>  <SlogP_VSA10>
5.69

>  <SlogP_VSA11>
5.75

>  <EState_VSA1>
40.88

>  <EState_VSA2>
13.09

>  <EState_VSA3>
12.84

>  <EState_VSA4>
61.9

>  <EState_VSA5>
4.9

>  <EState_VSA6>
20.96

>  <EState_VSA7>
25.12

>  <EState_VSA8>
15.87

>  <EState_VSA9>
4.74

>  <EState_VSA10>
19.18

>  <VSA_EState1>
5.5

>  <VSA_EState2>
60.07

>  <VSA_EState3>
0

>  <VSA_EState4>
0.11

>  <VSA_EState5>
-2.87

>  <VSA_EState6>
8.05

>  <VSA_EState7>
2.96

>  <VSA_EState8>
10.42

>  <VSA_EState9>
1.69

>  <apol>
81.84

>  <bpol>
52.18

>  <nRing>
4

>  <nHRing>
3

>  <naRing>
1

>  <naHRing>
0

>  <nARing 2>
3

>  <nAHRing 2>
3

>  <nFRing>
1

>  <nFHRing>
1

>  <nFaRing>
0

>  <nFaHRing>
0

>  <nFARing 2>
1

>  <nFAHRing 2>
1

>  <nRot>
10

>  <SLogP>
2.39

>  <SMR>
139.99

>  <TopoPSA(NO)>
90.47

>  <TopoPSA>
90.47

>  <JGI1>
0.18

>  <JGI2>
0.1

>  <JGI3>
0.07

>  <JGI4>
0.05

>  <JGI5>
0.03

>  <Diameter>
20

>  <Radius>
10

>  <TMWC10>
157.39

>  <TSRW10>
74.25

>  <MW>
512.3

>  <AMW>
6.65

>  <WPath>
5014

>  <WPol>
70

>  <Zagreb1>
196

>  <Zagreb2>
238

>  <mZagreb2>
8.28

>  <yes>


>  <nAR-cont>
0.691115

>  <nHA-cont>
0.433355441

>  <MWHBN>
0.309268624

>  <MWHBN-cont>
0.812191867

>  <TPSA-cont>
0.368463222

>  <pka_cont>
0.97

>  <yes.1>


>  <BBB_SCORE>
3.564684684

>  <MMFF94 Energy>
48.771

$$$$
Compound 1165
Actelion Java MolfileCreator 2.0

  0  0  0  0  0  0              0 V3000
M  V30 BEGIN CTAB
M  V30 COUNTS 45 44 0 0 0
M  V30 BEGIN ATOM
M  V30 1 O -2.1591 -0.3852 -0.077 0
M  V30 2 C -1.5896 0.5827 -0.5553 0
M  V30 3 O -0.7933 1.4477 0.116 0
M  V30 4 N -1.6689 0.9811 -1.8549 0
M  V30 5 C -0.6606 1.2415 1.5327 0
M  V30 6 C -2.4831 0.3077 -2.8385 0
M  V30 7 C 0.7756 0.8252 1.9396 0 CFG=2
M  V30 8 C -1.7208 -0.7904 -3.5773 0
M  V30 9 C 1.0882 -0.6146 1.4602 0
M  V30 10 C 0.9311 0.9105 3.4889 0
M  V30 11 C 1.7919 1.8086 1.315 0
M  V30 12 C -0.6091 -0.2309 -4.4678 0
M  V30 13 O 1.2182 -0.6746 0.0339 0
M  V30 14 C 0.0188 -0.0102 4.3077 0
M  V30 15 C 0.0794 -1.3337 -5.2568 0
M  V30 16 C 1.5722 -1.8912 -0.4348 0
M  V30 17 C 0.267 0.1564 5.8007 0
M  V30 18 O 1.7974 -2.8903 0.2281 0
M  V30 19 N 1.6596 -1.8541 -1.7815 0
M  V30 20 H -1.1429 1.8086 -2.0967 0
M  V30 21 H -1.3996 0.5254 1.9085 0
M  V30 22 H -0.9057 2.2046 1.9972 0
M  V30 23 H -2.8453 1.067 -3.5397 0
M  V30 24 H -3.3548 -0.128 -2.3375 0
M  V30 25 H -2.4317 -1.3475 -4.1996 0
M  V30 26 H -1.2963 -1.5012 -2.858 0
M  V30 27 H 2.0303 -0.9509 1.9125 0
M  V30 28 H 0.2882 -1.2999 1.7652 0
M  V30 29 H 0.7546 1.9472 3.8073 0
M  V30 30 H 1.9741 0.6878 3.7531 0
M  V30 31 H 2.8172 1.5432 1.5973 0
M  V30 32 H 1.6071 2.8329 1.6584 0
M  V30 33 H 1.7452 1.8172 0.221 0
M  V30 34 H -1.0268 0.5015 -5.1685 0
M  V30 35 H 0.1362 0.2926 -3.8589 0
M  V30 36 H -1.0336 0.2118 4.105 0
M  V30 37 H 0.1925 -1.0579 4.0421 0
M  V30 38 H 0.8781 -0.914 -5.8763 0
M  V30 39 H 0.5226 -2.0787 -4.589 0
M  V30 40 H -0.6293 -1.8438 -5.9169 0
M  V30 41 H -0.3915 -0.5067 6.3704 0
M  V30 42 H 1.3021 -0.0914 6.0566 0
M  V30 43 H 0.0704 1.1853 6.1189 0
M  V30 44 H 1.9072 -2.6947 -2.2795 0
M  V30 45 H 1.4494 -0.9993 -2.2704 0
M  V30 END ATOM
M  V30 BEGIN BOND
M  V30 1 2 1 2
M  V30 2 1 2 3
M  V30 3 1 2 4
M  V30 4 1 3 5
M  V30 5 1 4 6
M  V30 6 1 5 7
M  V30 7 1 6 8
M  V30 8 1 7 9
M  V30 9 1 7 10
M  V30 10 1 7 11
M  V30 11 1 8 12
M  V30 12 1 9 13
M  V30 13 1 10 14
M  V30 14 1 12 15
M  V30 15 1 13 16
M  V30 16 1 14 17
M  V30 17 2 16 18
M  V30 18 1 16 19
M  V30 19 1 4 20
M  V30 20 1 5 21
M  V30 21 1 5 22
M  V30 22 1 6 23
M  V30 23 1 6 24
M  V30 24 1 8 25
M  V30 25 1 8 26
M  V30 26 1 9 27
M  V30 27 1 9 28
M  V30 28 1 10 29
M  V30 29 1 10 30
M  V30 30 1 11 31
M  V30 31 1 11 32
M  V30 32 1 11 33
M  V30 33 1 12 34
M  V30 34 1 12 35
M  V30 35 1 14 36
M  V30 36 1 14 37
M  V30 37 1 15 38
M  V30 38 1 15 39
M  V30 39 1 15 40
M  V30 40 1 17 41
M  V30 41 1 17 42
M  V30 42 1 17 43
M  V30 43 1 19 44
M  V30 44 1 19 45
M  V30 END BOND
M  V30 BEGIN COLLECTION
M  V30 MDLV30/STERAC1 ATOMS=(1 7)
M  V30 END COLLECTION
M  V30 END CTAB
M  END
>  <Column 1>
1383

>  <level_0>
1531

>  <index>
1531

>  <Unnamed: 0>
1531

>  <NO.>
1543

>  <Name>
tybamate

>  <IUPAC_name>
[2-(carbamoyloxymethyl)-2-methylpentyl] n-butylcarbamate

>  <SMILES>
CCCCNC(=O)OCC(C)(CCC)COC(N)=O

>  <CID>
20266

>  <logBB>


>  <BBB+/BBB->
BBB+

>  <Inchi>
InChI=1S/C13H26N2O4/c1-4-6-8-15-12(17)19-10-13(3-7-5-2)9-18-11(14)16/h4-10H2-1-3H3-(H2-14-16)(H-15-17)

>  <threshold>
-1

>  <reference>
R1|R13|R19|R6|R27|R27|R30|

>  <group>
B

>  <Class>
1

>  <ABC>
13.22

>  <ABCGG>
12.4

>  <nAcid>
0

>  <nBase>
0

>  <nAromAtom>
0

>  <nAromBond>
0

>  <nAtom>
45

>  <nHeavyAtom>
19

>  <nSpiro>
0

>  <nBridgehead>
0

>  <nHetero>
6

>  <nN>
2

>  <nO>
4

>  <nF>
0

>  <BalabanJ>
4.03

>  <BertzCT>
283.82

>  <nBonds>
44

>  <nBondsO>
18

>  <nBondsS>
42

>  <nBondsD>
2

>  <nBondsT>
0

>  <nBondsA>
0

>  <nBondsM>
2

>  <nBondsKS>
42

>  <nBondsKD>
2

>  <RNCG>
0.19

>  <RPCG>
0.17

>  <FCSP3>
0.85

>  <SZ>
25

>  <Sm>
22.84

>  <Sv>
24.42

>  <Sse>
45.19

>  <Sp>
26.62

>  <Si>
51.82

>  <MZ>
0.56

>  <Mm>
0.51

>  <Mv>
0.54

>  <Mse>
1

>  <Mp>
0.59

>  <Mi>
1.15

>  <NsCH3>
3

>  <NdCH2>
0

>  <NssCH2>
7

>  <NtCH>
0

>  <NdsCH>
0

>  <NaaCH>
0

>  <NsssCH>
0

>  <NddC>
0

>  <NtsC>
0

>  <NdssC>
2

>  <NaasC>
0

>  <NaaaC>
0

>  <NssssC>
1

>  <NsNH3>
0

>  <NsNH2>
1

>  <NssNH2>
0

>  <NdNH>
0

>  <NssNH>
1

>  <NaaNH>
0

>  <NtN>
0

>  <NsssNH>
0

>  <NdsN>
0

>  <NaaN>
0

>  <NsssN>
0

>  <NddsN>
0

>  <NaasN>
0

>  <NssssN>
0

>  <NsOH>
0

>  <NdO>
2

>  <NssO>
2

>  <NaaO>
0

>  <NsF>
0

>  <NsSiH3>
0

>  <NssSiH2>
0

>  <NsssSiH>
0

>  <NssssSi>
0

>  <NsPH2>
0

>  <NssPH>
0

>  <NsssP>
0

>  <NdsssP>
0

>  <NsssssP>
0

>  <NsSH>
0

>  <NdS>
0

>  <NssS>
0

>  <NaaS>
0

>  <NdssS>
0

>  <NddssS>
0

>  <NsCl>
0

>  <NsBr>
0

>  <NsI>
0

>  <fragCpx>
18.06

>  <fMF>
0

>  <nHBAcc>
4

>  <nHBDon>
2

>  <Kier1>
19

>  <Kier2>
10.75

>  <Lipinski>
1

>  <GhoseFilter>
1

>  <FilterItLogS>
-2.99

>  <VMcGowan>
228.87

>  <LabuteASA>
114.56

>  <PEOE_VSA1>
20.52

>  <PEOE_VSA2>
0

>  <PEOE_VSA3>
9.59

>  <PEOE_VSA4>
0

>  <PEOE_VSA5>
0

>  <PEOE_VSA6>
33.61

>  <PEOE_VSA7>
12.84

>  <PEOE_VSA8>
11.96

>  <PEOE_VSA9>
0

>  <PEOE_VSA10>
13.21

>  <PEOE_VSA11>
0

>  <PEOE_VSA12>
0

>  <PEOE_VSA13>
0

>  <SMR_VSA1>
19.06

>  <SMR_VSA2>
0

>  <SMR_VSA3>
5.32

>  <SMR_VSA4>
11.15

>  <SMR_VSA5>
46.45

>  <SMR_VSA6>
19.76

>  <SMR_VSA7>
0

>  <SMR_VSA8>
0

>  <SMR_VSA9>
0

>  <SlogP_VSA1>
11.05

>  <SlogP_VSA2>
31.95

>  <SlogP_VSA3>
9.47

>  <SlogP_VSA4>
5.41

>  <SlogP_VSA5>
46.45

>  <SlogP_VSA6>
0

>  <SlogP_VSA7>
0

>  <SlogP_VSA8>
0

>  <SlogP_VSA9>
0

>  <SlogP_VSA10>
9.59

>  <SlogP_VSA11>
0

>  <EState_VSA1>
17.6

>  <EState_VSA2>
13.21

>  <EState_VSA3>
6.54

>  <EState_VSA4>
25.68

>  <EState_VSA5>
0

>  <EState_VSA6>
0

>  <EState_VSA7>
20.77

>  <EState_VSA8>
5.32

>  <EState_VSA9>
15.21

>  <EState_VSA10>
9.59

>  <VSA_EState1>
9.97

>  <VSA_EState2>
22.08

>  <VSA_EState3>
2.67

>  <VSA_EState4>
4.55

>  <VSA_EState5>
0

>  <VSA_EState6>
0

>  <VSA_EState7>
2.37

>  <VSA_EState8>
6.93

>  <VSA_EState9>
0

>  <apol>
44.45

>  <bpol>
31.29

>  <nRing>
0

>  <nHRing>
0

>  <naRing>
0

>  <naHRing>
0

>  <nARing 2>
0

>  <nAHRing 2>
0

>  <nFRing>
0

>  <nFHRing>
0

>  <nFaRing>
0

>  <nFaHRing>
0

>  <nFARing 2>
0

>  <nFAHRing 2>
0

>  <nRot>
9

>  <SLogP>
2.41

>  <SMR>
72.81

>  <TopoPSA(NO)>
90.65

>  <TopoPSA>
90.65

>  <JGI1>
0.28

>  <JGI2>
0.09

>  <JGI3>
0.04

>  <JGI4>
0.05

>  <JGI5>
0.02

>  <Diameter>
12

>  <Radius>
6

>  <TMWC10>
104.65

>  <TSRW10>
50.53

>  <MW>
274.19

>  <AMW>
6.09

>  <WPath>
842

>  <WPol>
21

>  <Zagreb1>
80

>  <Zagreb2>
83

>  <mZagreb2>
4.63

>  <yes>


>  <nAR-cont>
0.336376

>  <nHA-cont>
0.998649058

>  <MWHBN>
0.362347646

>  <MWHBN-cont>
0.623426575

>  <TPSA-cont>
0.36720671

>  <pka_cont>
0.97

>  <yes.1>


>  <BBB_SCORE>
3.48957834

>  <MMFF94 Energy>
-127.4

$$$$
Compound 1166
Actelion Java MolfileCreator 2.0

  0  0  0  0  0  0              0 V3000
M  V30 BEGIN CTAB
M  V30 COUNTS 42 43 0 0 0
M  V30 BEGIN ATOM
M  V30 1 O -0.2355 -0.7066 -1.178 0
M  V30 2 C -0.8886 -0.2185 -2.2883 0
M  V30 3 C -1.0634 -1.5962 -0.4136 0 CFG=2
M  V30 4 C -2.2814 -0.3017 -2.43 0
M  V30 5 C -0.1091 0.3818 -3.2925 0
M  V30 6 C -2.4435 -0.9804 -0.22 0
M  V30 7 C -0.3574 -1.9404 0.9156 0
M  V30 8 O -3.1105 -0.8491 -1.4823 0
M  V30 9 C -2.899 0.1749 -3.583 0
M  V30 10 O 1.2389 0.4324 -3.0546 0
M  V30 11 C -0.7445 0.8756 -4.4367 0
M  V30 12 N -0.2476 -0.8245 1.8678 0
M  V30 13 C -2.1317 0.7661 -4.5837 0
M  V30 14 C 2.1164 0.9175 -4.0661 0
M  V30 15 C 0.5396 -1.2033 3.0413 0
M  V30 16 C 2.2886 2.4225 -3.9565 0
M  V30 17 C 0.6193 -0.0225 4.0117 0
M  V30 18 C 1.4453 -0.3777 5.2486 0
M  V30 19 C 1.529 0.7911 6.2174 0
M  V30 20 H -1.1513 -2.5279 -0.9908 0
M  V30 21 H -2.3957 0.014 0.241 0
M  V30 22 H -3.0676 -1.6201 0.4125 0
M  V30 23 H -0.8984 -2.7659 1.3943 0
M  V30 24 H 0.6522 -2.2949 0.6733 0
M  V30 25 H -3.9771 0.0981 -3.6938 0
M  V30 26 H -0.1922 1.3579 -5.2355 0
M  V30 27 H -1.1692 -0.5082 2.163 0
M  V30 28 H -2.6139 1.1504 -5.4792 0
M  V30 29 H 1.8172 0.6009 -5.0711 0
M  V30 30 H 3.0889 0.4463 -3.883 0
M  V30 31 H 0.0791 -2.0613 3.5457 0
M  V30 32 H 1.5527 -1.4905 2.7362 0
M  V30 33 H 3.0186 2.7821 -4.6873 0
M  V30 34 H 1.3432 2.9478 -4.1216 0
M  V30 35 H 2.6315 2.6964 -2.953 0
M  V30 36 H -0.3909 0.2742 4.3213 0
M  V30 37 H 1.0695 0.8421 3.5076 0
M  V30 38 H 0.9982 -1.2377 5.7606 0
M  V30 39 H 2.4586 -0.6692 4.9486 0
M  V30 40 H 2.1238 0.5151 7.0939 0
M  V30 41 H 2.0014 1.6587 5.7457 0
M  V30 42 H 0.5331 1.087 6.5624 0
M  V30 END ATOM
M  V30 BEGIN BOND
M  V30 1 1 1 2
M  V30 2 1 1 3
M  V30 3 2 2 4
M  V30 4 1 2 5
M  V30 5 1 3 6
M  V30 6 1 3 7
M  V30 7 1 4 8
M  V30 8 1 4 9
M  V30 9 1 5 10
M  V30 10 2 5 11
M  V30 11 1 7 12
M  V30 12 2 9 13
M  V30 13 1 10 14
M  V30 14 1 12 15
M  V30 15 1 14 16
M  V30 16 1 15 17
M  V30 17 1 17 18
M  V30 18 1 18 19
M  V30 19 1 6 8
M  V30 20 1 11 13
M  V30 21 1 3 20
M  V30 22 1 6 21
M  V30 23 1 6 22
M  V30 24 1 7 23
M  V30 25 1 7 24
M  V30 26 1 9 25
M  V30 27 1 11 26
M  V30 28 1 12 27
M  V30 29 1 13 28
M  V30 30 1 14 29
M  V30 31 1 14 30
M  V30 32 1 15 31
M  V30 33 1 15 32
M  V30 34 1 16 33
M  V30 35 1 16 34
M  V30 36 1 16 35
M  V30 37 1 17 36
M  V30 38 1 17 37
M  V30 39 1 18 38
M  V30 40 1 18 39
M  V30 41 1 19 40
M  V30 42 1 19 41
M  V30 43 1 19 42
M  V30 END BOND
M  V30 BEGIN COLLECTION
M  V30 MDLV30/STERAC1 ATOMS=(1 3)
M  V30 END COLLECTION
M  V30 END CTAB
M  END
>  <Column 1>
1384

>  <level_0>
1532

>  <index>
1532

>  <Unnamed: 0>
1532

>  <NO.>
1544

>  <Name>
ethomoxane

>  <IUPAC_name>
n-[(5-ethoxy-2-3-dihydro-1-4-benzodioxin-3-yl)methyl]butan-1-amine

>  <SMILES>
CCCCNCC1COc2cccc(OCC)c2O1

>  <CID>
19127

>  <logBB>


>  <BBB+/BBB->
BBB+

>  <Inchi>
InChI=1S/C15H23NO3/c1-3-5-9-16-10-12-11-18-14-8-6-7-13(17-4-2)15(14)19-12/h6-8-12-16H-3-5-9-11H2-1-2H3

>  <threshold>
-1

>  <reference>
R1|R19|R6|R27|R27|R30|

>  <group>
B

>  <Class>
1

>  <ABC>
14.06

>  <ABCGG>
11.38

>  <nAcid>
0

>  <nBase>
1

>  <nAromAtom>
6

>  <nAromBond>
6

>  <nAtom>
42

>  <nHeavyAtom>
19

>  <nSpiro>
0

>  <nBridgehead>
0

>  <nHetero>
4

>  <nN>
1

>  <nO>
3

>  <nF>
0

>  <BalabanJ>
1.77

>  <BertzCT>
394.98

>  <nBonds>
43

>  <nBondsO>
20

>  <nBondsS>
37

>  <nBondsD>
0

>  <nBondsT>
0

>  <nBondsA>
6

>  <nBondsM>
6

>  <nBondsKS>
40

>  <nBondsKD>
3

>  <RNCG>
0.24

>  <RPCG>
0.1

>  <FCSP3>
0.6

>  <SZ>
24

>  <Sm>
22.09

>  <Sv>
24.13

>  <Sse>
41.87

>  <Sp>
26.28

>  <Si>
47.69

>  <MZ>
0.57

>  <Mm>
0.53

>  <Mv>
0.57

>  <Mse>
1

>  <Mp>
0.63

>  <Mi>
1.14

>  <NsCH3>
2

>  <NdCH2>
0

>  <NssCH2>
6

>  <NtCH>
0

>  <NdsCH>
0

>  <NaaCH>
3

>  <NsssCH>
1

>  <NddC>
0

>  <NtsC>
0

>  <NdssC>
0

>  <NaasC>
3

>  <NaaaC>
0

>  <NssssC>
0

>  <NsNH3>
0

>  <NsNH2>
0

>  <NssNH2>
0

>  <NdNH>
0

>  <NssNH>
1

>  <NaaNH>
0

>  <NtN>
0

>  <NsssNH>
0

>  <NdsN>
0

>  <NaaN>
0

>  <NsssN>
0

>  <NddsN>
0

>  <NaasN>
0

>  <NssssN>
0

>  <NsOH>
0

>  <NdO>
0

>  <NssO>
3

>  <NaaO>
0

>  <NsF>
0

>  <NsSiH3>
0

>  <NssSiH2>
0

>  <NsssSiH>
0

>  <NssssSi>
0

>  <NsPH2>
0

>  <NssPH>
0

>  <NsssP>
0

>  <NdsssP>
0

>  <NsssssP>
0

>  <NsSH>
0

>  <NdS>
0

>  <NssS>
0

>  <NaaS>
0

>  <NdssS>
0

>  <NddssS>
0

>  <NsCl>
0

>  <NsBr>
0

>  <NsI>
0

>  <fragCpx>
58.04

>  <fMF>
0.24

>  <nHBAcc>
4

>  <nHBDon>
1

>  <Kier1>
15.39

>  <Kier2>
8.32

>  <Lipinski>
1

>  <GhoseFilter>
1

>  <FilterItLogS>
-4.34

>  <VMcGowan>
215.18

>  <LabuteASA>
114.6

>  <PEOE_VSA1>
19.53

>  <PEOE_VSA2>
0

>  <PEOE_VSA3>
0

>  <PEOE_VSA4>
0

>  <PEOE_VSA5>
0

>  <PEOE_VSA6>
19.41

>  <PEOE_VSA7>
32.02

>  <PEOE_VSA8>
6.54

>  <PEOE_VSA9>
6.61

>  <PEOE_VSA10>
12.71

>  <PEOE_VSA11>
11.5

>  <PEOE_VSA12>
5.75

>  <PEOE_VSA13>
0

>  <SMR_VSA1>
14.21

>  <SMR_VSA2>
0

>  <SMR_VSA3>
5.32

>  <SMR_VSA4>
0

>  <SMR_VSA5>
32.79

>  <SMR_VSA6>
26.3

>  <SMR_VSA7>
18.2

>  <SMR_VSA8>
0

>  <SMR_VSA9>
17.25

>  <SlogP_VSA1>
19.53

>  <SlogP_VSA2>
32.41

>  <SlogP_VSA3>
0

>  <SlogP_VSA4>
0

>  <SlogP_VSA5>
26.69

>  <SlogP_VSA6>
18.2

>  <SlogP_VSA7>
0

>  <SlogP_VSA8>
0

>  <SlogP_VSA9>
0

>  <SlogP_VSA10>
0

>  <SlogP_VSA11>
17.25

>  <EState_VSA1>
0

>  <EState_VSA2>
6.1

>  <EState_VSA3>
13.21

>  <EState_VSA4>
30.34

>  <EState_VSA5>
12.84

>  <EState_VSA6>
0

>  <EState_VSA7>
25.12

>  <EState_VSA8>
12.24

>  <EState_VSA9>
14.21

>  <EState_VSA10>
0

>  <VSA_EState1>
17.29

>  <VSA_EState2>
0

>  <VSA_EState3>
3.39

>  <VSA_EState4>
0

>  <VSA_EState5>
2.27

>  <VSA_EState6>
5.75

>  <VSA_EState7>
2.44

>  <VSA_EState8>
7.19

>  <VSA_EState9>
0

>  <apol>
43.89

>  <bpol>
28.85

>  <nRing>
2

>  <nHRing>
1

>  <naRing>
1

>  <naHRing>
0

>  <nARing 2>
1

>  <nAHRing 2>
1

>  <nFRing>
1

>  <nFHRing>
1

>  <nFaRing>
0

>  <nFaHRing>
0

>  <nFARing 2>
1

>  <nFAHRing 2>
1

>  <nRot>
7

>  <SLogP>
2.61

>  <SMR>
75.3

>  <TopoPSA(NO)>
39.72

>  <TopoPSA>
39.72

>  <JGI1>
0.13

>  <JGI2>
0.06

>  <JGI3>
0.03

>  <JGI4>
0.04

>  <JGI5>
0.02

>  <Diameter>
12

>  <Radius>
6

>  <TMWC10>
109.96

>  <TSRW10>
51.67

>  <MW>
265.17

>  <AMW>
6.31

>  <WPath>
784

>  <WPol>
26

>  <Zagreb1>
90

>  <Zagreb2>
102

>  <mZagreb2>
4.56

>  <yes>


>  <nAR-cont>
0.816016

>  <nHA-cont>
0.998649058

>  <MWHBN>
0.307049087

>  <MWHBN-cont>
0.819179473

>  <TPSA-cont>
0.722729735

>  <pka_cont>
0.97

>  <yes.1>


>  <BBB_SCORE>
4.973893738

>  <MMFF94 Energy>
78.546

$$$$
Compound 1167
Actelion Java MolfileCreator 2.0

  0  0  0  0  0  0              0 V3000
M  V30 BEGIN CTAB
M  V30 COUNTS 35 36 0 0 0
M  V30 BEGIN ATOM
M  V30 1 O -0.865 2.2819 -1.2584 0
M  V30 2 C -0.5016 1.1934 -2.0072 0
M  V30 3 C 0.1586 2.7189 -0.3511 0 CFG=2
M  V30 4 C 0.7904 0.6599 -2.0288 0
M  V30 5 C -1.5074 0.6047 -2.7726 0
M  V30 6 C 1.5562 2.5407 -0.9433 0
M  V30 7 C -0.0322 2.1108 1.0631 0
M  V30 8 O 1.8309 1.1859 -1.3054 0
M  V30 9 C 1.066 -0.4799 -2.7825 0
M  V30 10 C -1.2288 -0.5271 -3.5409 0
M  V30 11 N 0.1315 0.6586 1.1589 0
M  V30 12 C 0.056 -1.0718 -3.5423 0
M  V30 13 C 0.0886 0.1817 2.5357 0
M  V30 14 C 0.2576 -1.3399 2.5962 0
M  V30 15 C -0.8725 -2.0987 1.8954 0
M  V30 16 C -0.7006 -3.6032 2.0364 0
M  V30 17 H -2.0E-4 3.7992 -0.2371 0
M  V30 18 H -2.5113 1.0194 -2.7577 0
M  V30 19 H 2.3206 2.8569 -0.2253 0
M  V30 20 H 1.6754 3.1618 -1.8411 0
M  V30 21 H 0.6783 2.6041 1.738 0
M  V30 22 H -1.0452 2.36 1.4022 0
M  V30 23 H 2.0664 -0.9024 -2.7822 0
M  V30 24 H -2.0166 -0.989 -4.1301 0
M  V30 25 H 0.9932 0.3625 0.6975 0
M  V30 26 H 0.2703 -1.9581 -4.1334 0
M  V30 27 H 0.894 0.6443 3.1185 0
M  V30 28 H -0.8637 0.4581 3.0033 0
M  V30 29 H 0.2943 -1.6409 3.6507 0
M  V30 30 H 1.2218 -1.6234 2.1552 0
M  V30 31 H -1.838 -1.8057 2.3241 0
M  V30 32 H -0.8994 -1.8454 0.8296 0
M  V30 33 H -1.5174 -4.127 1.5299 0
M  V30 34 H 0.243 -3.9333 1.5905 0
M  V30 35 H -0.7069 -3.9022 3.0895 0
M  V30 END ATOM
M  V30 BEGIN BOND
M  V30 1 1 1 2
M  V30 2 1 1 3
M  V30 3 2 2 4
M  V30 4 1 2 5
M  V30 5 1 3 6
M  V30 6 1 3 7
M  V30 7 1 4 8
M  V30 8 1 4 9
M  V30 9 2 5 10
M  V30 10 1 7 11
M  V30 11 2 9 12
M  V30 12 1 11 13
M  V30 13 1 13 14
M  V30 14 1 14 15
M  V30 15 1 15 16
M  V30 16 1 6 8
M  V30 17 1 10 12
M  V30 18 1 3 17
M  V30 19 1 5 18
M  V30 20 1 6 19
M  V30 21 1 6 20
M  V30 22 1 7 21
M  V30 23 1 7 22
M  V30 24 1 9 23
M  V30 25 1 10 24
M  V30 26 1 11 25
M  V30 27 1 12 26
M  V30 28 1 13 27
M  V30 29 1 13 28
M  V30 30 1 14 29
M  V30 31 1 14 30
M  V30 32 1 15 31
M  V30 33 1 15 32
M  V30 34 1 16 33
M  V30 35 1 16 34
M  V30 36 1 16 35
M  V30 END BOND
M  V30 BEGIN COLLECTION
M  V30 MDLV30/STERAC1 ATOMS=(1 3)
M  V30 END COLLECTION
M  V30 END CTAB
M  END
>  <Column 1>
1385

>  <level_0>
1533

>  <index>
1533

>  <Unnamed: 0>
1533

>  <NO.>
1545

>  <Name>
butamoxane

>  <IUPAC_name>
n-(2-3-dihydro-1-4-benzodioxin-3-ylmethyl)butan-1-amine

>  <SMILES>
CCCCNCC1COc2ccccc2O1

>  <CID>
20504

>  <logBB>


>  <BBB+/BBB->
BBB+

>  <Inchi>
InChI=1S/C13H19NO2/c1-2-3-8-14-9-11-10-15-12-6-4-5-7-13(12)16-11/h4-7-11-14H-2-3-8-10H2-1H3

>  <threshold>
-1

>  <reference>
R1|R19|R6|R27|R27|R30|

>  <group>
B

>  <Class>
1

>  <ABC>
11.98

>  <ABCGG>
9.6

>  <nAcid>
0

>  <nBase>
1

>  <nAromAtom>
6

>  <nAromBond>
6

>  <nAtom>
35

>  <nHeavyAtom>
16

>  <nSpiro>
0

>  <nBridgehead>
0

>  <nHetero>
3

>  <nN>
1

>  <nO>
2

>  <nF>
0

>  <BalabanJ>
1.65

>  <BertzCT>
327.46

>  <nBonds>
36

>  <nBondsO>
17

>  <nBondsS>
30

>  <nBondsD>
0

>  <nBondsT>
0

>  <nBondsA>
6

>  <nBondsM>
6

>  <nBondsKS>
33

>  <nBondsKD>
3

>  <RNCG>
0.3

>  <RPCG>
0.1

>  <FCSP3>
0.54

>  <SZ>
20

>  <Sm>
18.42

>  <Sv>
20.33

>  <Sse>
34.76

>  <Sp>
22.21

>  <Si>
39.65

>  <MZ>
0.57

>  <Mm>
0.53

>  <Mv>
0.58

>  <Mse>
0.99

>  <Mp>
0.63

>  <Mi>
1.13

>  <NsCH3>
1

>  <NdCH2>
0

>  <NssCH2>
5

>  <NtCH>
0

>  <NdsCH>
0

>  <NaaCH>
4

>  <NsssCH>
1

>  <NddC>
0

>  <NtsC>
0

>  <NdssC>
0

>  <NaasC>
2

>  <NaaaC>
0

>  <NssssC>
0

>  <NsNH3>
0

>  <NsNH2>
0

>  <NssNH2>
0

>  <NdNH>
0

>  <NssNH>
1

>  <NaaNH>
0

>  <NtN>
0

>  <NsssNH>
0

>  <NdsN>
0

>  <NaaN>
0

>  <NsssN>
0

>  <NddsN>
0

>  <NaasN>
0

>  <NssssN>
0

>  <NsOH>
0

>  <NdO>
0

>  <NssO>
2

>  <NaaO>
0

>  <NsF>
0

>  <NsSiH3>
0

>  <NssSiH2>
0

>  <NsssSiH>
0

>  <NssssSi>
0

>  <NsPH2>
0

>  <NssPH>
0

>  <NsssP>
0

>  <NdsssP>
0

>  <NsssssP>
0

>  <NsSH>
0

>  <NdS>
0

>  <NssS>
0

>  <NaaS>
0

>  <NdssS>
0

>  <NddssS>
0

>  <NsCl>
0

>  <NsBr>
0

>  <NsI>
0

>  <fragCpx>
49.03

>  <fMF>
0.29

>  <nHBAcc>
3

>  <nHBDon>
1

>  <Kier1>
12.46

>  <Kier2>
6.67

>  <Lipinski>
1

>  <GhoseFilter>
1

>  <FilterItLogS>
-3.66

>  <VMcGowan>
181.13

>  <LabuteASA>
96.76

>  <PEOE_VSA1>
14.79

>  <PEOE_VSA2>
0

>  <PEOE_VSA3>
0

>  <PEOE_VSA4>
0

>  <PEOE_VSA5>
0

>  <PEOE_VSA6>
25.48

>  <PEOE_VSA7>
25.1

>  <PEOE_VSA8>
6.54

>  <PEOE_VSA9>
0

>  <PEOE_VSA10>
12.71

>  <PEOE_VSA11>
11.5

>  <PEOE_VSA12>
0

>  <PEOE_VSA13>
0

>  <SMR_VSA1>
9.47

>  <SMR_VSA2>
0

>  <SMR_VSA3>
5.32

>  <SMR_VSA4>
0

>  <SMR_VSA5>
25.87

>  <SMR_VSA6>
19.7

>  <SMR_VSA7>
24.27

>  <SMR_VSA8>
0

>  <SMR_VSA9>
11.5

>  <SlogP_VSA1>
14.79

>  <SlogP_VSA2>
25.8

>  <SlogP_VSA3>
0

>  <SlogP_VSA4>
0

>  <SlogP_VSA5>
19.77

>  <SlogP_VSA6>
24.27

>  <SlogP_VSA7>
0

>  <SlogP_VSA8>
0

>  <SlogP_VSA9>
0

>  <SlogP_VSA10>
0

>  <SlogP_VSA11>
11.5

>  <EState_VSA1>
0

>  <EState_VSA2>
6.1

>  <EState_VSA3>
6.61

>  <EState_VSA4>
24.59

>  <EState_VSA5>
12.84

>  <EState_VSA6>
0

>  <EState_VSA7>
24.27

>  <EState_VSA8>
12.24

>  <EState_VSA9>
9.47

>  <EState_VSA10>
0

>  <VSA_EState1>
11.45

>  <VSA_EState2>
0

>  <VSA_EState3>
3.38

>  <VSA_EState4>
0

>  <VSA_EState5>
1.71

>  <VSA_EState6>
7.82

>  <VSA_EState7>
2.56

>  <VSA_EState8>
4.74

>  <VSA_EState9>
0

>  <apol>
37.08

>  <bpol>
23.1

>  <nRing>
2

>  <nHRing>
1

>  <naRing>
1

>  <naHRing>
0

>  <nARing 2>
1

>  <nAHRing 2>
1

>  <nFRing>
1

>  <nFHRing>
1

>  <nFaRing>
0

>  <nFaHRing>
0

>  <nFARing 2>
1

>  <nFAHRing 2>
1

>  <nRot>
5

>  <SLogP>
2.22

>  <SMR>
64.13

>  <TopoPSA(NO)>
30.49

>  <TopoPSA>
30.49

>  <JGI1>
0.12

>  <JGI2>
0.05

>  <JGI3>
0.02

>  <JGI4>
0.04

>  <JGI5>
0.01

>  <Diameter>
11

>  <Radius>
6

>  <TMWC10>
101.77

>  <TSRW10>
47.71

>  <MW>
221.14

>  <AMW>
6.32

>  <WPath>
504

>  <WPol>
20

>  <Zagreb1>
76

>  <Zagreb2>
85

>  <mZagreb2>
3.78

>  <yes>


>  <nAR-cont>
0.816016

>  <nHA-cont>
0.954961865

>  <MWHBN>
0.268983933

>  <MWHBN-cont>
0.922404307

>  <TPSA-cont>
0.787160867

>  <pka_cont>
0.97

>  <yes.1>


>  <BBB_SCORE>
5.213906059

>  <MMFF94 Energy>
62.274

$$$$
Compound 1168
Actelion Java MolfileCreator 2.0

  0  0  0  0  0  0              0 V3000
M  V30 BEGIN CTAB
M  V30 COUNTS 46 47 0 0 0
M  V30 BEGIN ATOM
M  V30 1 O 0.47 0.8619 -2.8231 0
M  V30 2 C -0.3844 0.1639 -2.2999 0
M  V30 3 O -1.7082 0.1544 -2.591 0
M  V30 4 C -0.1188 -0.7567 -1.1752 0
M  V30 5 C -2.0866 1.0669 -3.6285 0
M  V30 6 C 0.5616 -0.2446 -0.0334 0
M  V30 7 C -0.5009 -2.1063 -1.2602 0
M  V30 8 C -3.5787 0.9277 -3.8579 0
M  V30 9 N 0.932 1.1005 0.011 0
M  V30 10 C 0.7428 -1.1857 1.0079 0
M  V30 11 N -0.3111 -3.0027 -0.2637 0
M  V30 12 C -1.1569 -2.6765 -2.4884 0
M  V30 13 C 1.4527 1.7837 1.1777 0
M  V30 14 C 0.2979 -2.4892 0.8198 0
M  V30 15 C 1.3035 -1.2219 2.3099 0
M  V30 16 C 1.5799 3.2793 0.8812 0
M  V30 17 N 0.6009 -3.173 1.9679 0
M  V30 18 N 1.2183 -2.4182 2.9008 0
M  V30 19 C 2.1106 4.044 2.0931 0
M  V30 20 C 0.3248 -4.5697 2.235 0
M  V30 21 C 2.2392 5.5305 1.8013 0
M  V30 22 C -1.0342 -4.7705 2.8812 0
M  V30 23 H -1.5462 0.8242 -4.5503 0
M  V30 24 H -1.8522 2.0923 -3.3214 0
M  V30 25 H -3.9177 1.6068 -4.6451 0
M  V30 26 H -3.8304 -0.099 -4.1435 0
M  V30 27 H -4.1322 1.147 -2.9388 0
M  V30 28 H 1.1552 1.5186 -0.8964 0
M  V30 29 H -0.6305 -2.3659 -3.3962 0
M  V30 30 H -2.2047 -2.367 -2.5415 0
M  V30 31 H -1.1354 -3.7717 -2.4612 0
M  V30 32 H 0.7742 1.6477 2.0275 0
M  V30 33 H 2.4367 1.3797 1.4398 0
M  V30 34 H 1.7765 -0.422 2.8614 0
M  V30 35 H 0.6016 3.6813 0.5883 0
M  V30 36 H 2.2509 3.4305 0.0261 0
M  V30 37 H 1.4379 3.9022 2.947 0
M  V30 38 H 3.0909 3.6483 2.383 0
M  V30 39 H 1.1205 -4.9476 2.8866 0
M  V30 40 H 0.3868 -5.1157 1.2877 0
M  V30 41 H 2.6202 6.0581 2.6814 0
M  V30 42 H 2.9312 5.7092 0.9721 0
M  V30 43 H 1.2689 5.9643 1.539 0
M  V30 44 H -1.8377 -4.4033 2.2339 0
M  V30 45 H -1.1018 -4.2338 3.8335 0
M  V30 46 H -1.21 -5.8331 3.0745 0
M  V30 END ATOM
M  V30 BEGIN BOND
M  V30 1 2 1 2
M  V30 2 1 2 3
M  V30 3 1 2 4
M  V30 4 1 3 5
M  V30 5 2 4 6
M  V30 6 1 4 7
M  V30 7 1 5 8
M  V30 8 1 6 9
M  V30 9 1 6 10
M  V30 10 2 7 11
M  V30 11 1 7 12
M  V30 12 1 9 13
M  V30 13 2 10 14
M  V30 14 1 10 15
M  V30 15 1 13 16
M  V30 16 1 14 17
M  V30 17 2 15 18
M  V30 18 1 16 19
M  V30 19 1 17 20
M  V30 20 1 19 21
M  V30 21 1 20 22
M  V30 22 1 11 14
M  V30 23 1 17 18
M  V30 24 1 5 23
M  V30 25 1 5 24
M  V30 26 1 8 25
M  V30 27 1 8 26
M  V30 28 1 8 27
M  V30 29 1 9 28
M  V30 30 1 12 29
M  V30 31 1 12 30
M  V30 32 1 12 31
M  V30 33 1 13 32
M  V30 34 1 13 33
M  V30 35 1 15 34
M  V30 36 1 16 35
M  V30 37 1 16 36
M  V30 38 1 19 37
M  V30 39 1 19 38
M  V30 40 1 20 39
M  V30 41 1 20 40
M  V30 42 1 21 41
M  V30 43 1 21 42
M  V30 44 1 21 43
M  V30 45 1 22 44
M  V30 46 1 22 45
M  V30 47 1 22 46
M  V30 END BOND
M  V30 END CTAB
M  END
>  <Column 1>
1386

>  <level_0>
1534

>  <index>
1534

>  <Unnamed: 0>
1534

>  <NO.>
1546

>  <Name>
tracazolate

>  <IUPAC_name>
ethyl 4-(butylamino)-1-ethyl-6-methylpyrazolo[3-4-b]pyridine-5-carboxylate

>  <SMILES>
CCCCNc1c(C(=O)OCC)c(C)nc2c1cnn2CC

>  <CID>
5522

>  <logBB>


>  <BBB+/BBB->
BBB+

>  <Inchi>
InChI=1S/C16H24N4O2/c1-5-8-9-17-14-12-10-18-20(6-2)15(12)19-11(4)13(14)16(21)22-7-3/h10H-5-9H2-1-4H3-(H-17-19)

>  <threshold>
-1

>  <reference>
R1|R13|R19|R6|R24|R27|R27|R27|R30|R30|

>  <group>
B

>  <Class>
1

>  <ABC>
16.24

>  <ABCGG>
14.71

>  <nAcid>
0

>  <nBase>
0

>  <nAromAtom>
9

>  <nAromBond>
10

>  <nAtom>
46

>  <nHeavyAtom>
22

>  <nSpiro>
0

>  <nBridgehead>
0

>  <nHetero>
6

>  <nN>
4

>  <nO>
2

>  <nF>
0

>  <BalabanJ>
2.13

>  <BertzCT>
663.7

>  <nBonds>
47

>  <nBondsO>
23

>  <nBondsS>
36

>  <nBondsD>
1

>  <nBondsT>
0

>  <nBondsA>
10

>  <nBondsM>
11

>  <nBondsKS>
42

>  <nBondsKD>
5

>  <RNCG>
0.23

>  <RPCG>
0.17

>  <FCSP3>
0.56

>  <SZ>
27.33

>  <Sm>
25.34

>  <Sv>
26.96

>  <Sse>
45.97

>  <Sp>
29.18

>  <Si>
52.57

>  <MZ>
0.59

>  <Mm>
0.55

>  <Mv>
0.59

>  <Mse>
1

>  <Mp>
0.63

>  <Mi>
1.14

>  <NsCH3>
4

>  <NdCH2>
0

>  <NssCH2>
5

>  <NtCH>
0

>  <NdsCH>
0

>  <NaaCH>
1

>  <NsssCH>
0

>  <NddC>
0

>  <NtsC>
0

>  <NdssC>
1

>  <NaasC>
3

>  <NaaaC>
2

>  <NssssC>
0

>  <NsNH3>
0

>  <NsNH2>
0

>  <NssNH2>
0

>  <NdNH>
0

>  <NssNH>
1

>  <NaaNH>
0

>  <NtN>
0

>  <NsssNH>
0

>  <NdsN>
0

>  <NaaN>
2

>  <NsssN>
0

>  <NddsN>
0

>  <NaasN>
1

>  <NssssN>
0

>  <NsOH>
0

>  <NdO>
1

>  <NssO>
1

>  <NaaO>
0

>  <NsF>
0

>  <NsSiH3>
0

>  <NssSiH2>
0

>  <NsssSiH>
0

>  <NssssSi>
0

>  <NsPH2>
0

>  <NssPH>
0

>  <NsssP>
0

>  <NdsssP>
0

>  <NsssssP>
0

>  <NsSH>
0

>  <NdS>
0

>  <NssS>
0

>  <NaaS>
0

>  <NdssS>
0

>  <NddssS>
0

>  <NsCl>
0

>  <NsBr>
0

>  <NsI>
0

>  <fragCpx>
67.06

>  <fMF>
0.2

>  <nHBAcc>
6

>  <nHBDon>
1

>  <Kier1>
18.34

>  <Kier2>
8.74

>  <Lipinski>
1

>  <GhoseFilter>
1

>  <FilterItLogS>
-4.86

>  <VMcGowan>
244.74

>  <LabuteASA>
130.41

>  <PEOE_VSA1>
10.05

>  <PEOE_VSA2>
0

>  <PEOE_VSA3>
14.46

>  <PEOE_VSA4>
5.1

>  <PEOE_VSA5>
0

>  <PEOE_VSA6>
13.34

>  <PEOE_VSA7>
27.19

>  <PEOE_VSA8>
13.09

>  <PEOE_VSA9>
29.57

>  <PEOE_VSA10>
5.56

>  <PEOE_VSA11>
5.65

>  <PEOE_VSA12>
0

>  <PEOE_VSA13>
0

>  <SMR_VSA1>
9.53

>  <SMR_VSA2>
0

>  <SMR_VSA3>
14.76

>  <SMR_VSA4>
0

>  <SMR_VSA5>
47.08

>  <SMR_VSA6>
18.47

>  <SMR_VSA7>
17.45

>  <SMR_VSA8>
0

>  <SMR_VSA9>
0

>  <SlogP_VSA1>
5.32

>  <SlogP_VSA2>
33.89

>  <SlogP_VSA3>
11.28

>  <SlogP_VSA4>
6.92

>  <SlogP_VSA5>
49.66

>  <SlogP_VSA6>
6.2

>  <SlogP_VSA7>
0

>  <SlogP_VSA8>
11.03

>  <SlogP_VSA9>
0

>  <SlogP_VSA10>
5.69

>  <SlogP_VSA11>
0

>  <EState_VSA1>
0

>  <EState_VSA2>
5.97

>  <EState_VSA3>
17.86

>  <EState_VSA4>
42.65

>  <EState_VSA5>
0

>  <EState_VSA6>
13.12

>  <EState_VSA7>
18.53

>  <EState_VSA8>
22.32

>  <EState_VSA9>
4.74

>  <EState_VSA10>
4.79

>  <VSA_EState1>
7.03

>  <VSA_EState2>
16.87

>  <VSA_EState3>
8.6

>  <VSA_EState4>
2.77

>  <VSA_EState5>
-0.34

>  <VSA_EState6>
0

>  <VSA_EState7>
3.89

>  <VSA_EState8>
9.69

>  <VSA_EState9>
0

>  <apol>
48.73

>  <bpol>
30.1

>  <nRing>
2

>  <nHRing>
2

>  <naRing>
2

>  <naHRing>
2

>  <nARing 2>
0

>  <nAHRing 2>
0

>  <nFRing>
1

>  <nFHRing>
1

>  <nFaRing>
1

>  <nFaHRing>
1

>  <nFARing 2>
0

>  <nFAHRing 2>
0

>  <nRot>
7

>  <SLogP>
3.15

>  <SMR>
87.29

>  <TopoPSA(NO)>
69.04

>  <TopoPSA>
69.04

>  <JGI1>
0.15

>  <JGI2>
0.09

>  <JGI3>
0.06

>  <JGI4>
0.05

>  <JGI5>
0.03

>  <Diameter>
10

>  <Radius>
5

>  <TMWC10>
119.36

>  <TSRW10>
69.87

>  <MW>
304.19

>  <AMW>
6.61

>  <WPath>
1017

>  <WPol>
35

>  <Zagreb1>
108

>  <Zagreb2>
128

>  <mZagreb2>
5.25

>  <yes>


>  <nAR-cont>
0.336376

>  <nHA-cont>
0.983774276

>  <MWHBN>
0.401352131

>  <MWHBN-cont>
0.470740579

>  <TPSA-cont>
0.518057929

>  <pka_cont>
0.97

>  <yes.1>


>  <BBB_SCORE>
3.547377002

>  <MMFF94 Energy>
66.061

$$$$
Compound 1169
Actelion Java MolfileCreator 2.0

  0  0  0  0  0  0              0 V3000
M  V30 BEGIN CTAB
M  V30 COUNTS 43 44 0 0 0
M  V30 BEGIN ATOM
M  V30 1 O 2.5909 -1.02 1.2555 0
M  V30 2 C 2.0683 -1.6004 0.3152 0
M  V30 3 O 2.6996 -2.4611 -0.5241 0
M  V30 4 C 0.6431 -1.4378 -0.0786 0
M  V30 5 C 4.0898 -2.6565 -0.2332 0
M  V30 6 C -0.098 -0.2942 0.3309 0
M  V30 7 C 0.0295 -2.4405 -0.8321 0
M  V30 8 C 4.6511 -3.634 -1.2471 0
M  V30 9 N 0.525 0.7209 1.0528 0
M  V30 10 C -1.4476 -0.2773 -0.1089 0
M  V30 11 N -1.2557 -2.4451 -1.2505 0
M  V30 12 C -0.0756 1.9808 1.4398 0
M  V30 13 C -1.9286 -1.3463 -0.8597 0
M  V30 14 C -2.5767 0.5753 -0.0073 0
M  V30 15 C 0.9681 2.8555 2.1389 0
M  V30 16 N -3.2404 -1.0667 -1.1395 0
M  V30 17 N -3.6645 0.1078 -0.6285 0
M  V30 18 C 0.3975 4.1699 2.6749 0
M  V30 19 C -4.1531 -1.8948 -1.9009 0
M  V30 20 C -0.0922 5.1094 1.5838 0
M  V30 21 C -4.1296 -1.56 -3.3814 0
M  V30 22 H 4.2018 -3.0655 0.7771 0
M  V30 23 H 4.6205 -1.7006 -0.3066 0
M  V30 24 H 0.5793 -3.3291 -1.1362 0
M  V30 25 H 5.714 -3.8167 -1.066 0
M  V30 26 H 4.1151 -4.5878 -1.2005 0
M  V30 27 H 4.5265 -3.2482 -2.2643 0
M  V30 28 H 1.394 0.4547 1.5279 0
M  V30 29 H -0.4451 2.4989 0.5492 0
M  V30 30 H -0.9132 1.8007 2.1226 0
M  V30 31 H -2.6578 1.5269 0.4982 0
M  V30 32 H 1.7976 3.064 1.4514 0
M  V30 33 H 1.3993 2.2995 2.9816 0
M  V30 34 H -0.422 3.9637 3.3732 0
M  V30 35 H 1.1808 4.6803 3.248 0
M  V30 36 H -5.1579 -1.7483 -1.4888 0
M  V30 37 H -3.8789 -2.9424 -1.7371 0
M  V30 38 H -0.3949 6.0666 2.0206 0
M  V30 39 H 0.6965 5.306 0.8508 0
M  V30 40 H -0.9589 4.6974 1.0587 0
M  V30 41 H -3.1309 -1.7106 -3.8048 0
M  V30 42 H -4.4112 -0.5158 -3.5546 0
M  V30 43 H -4.8316 -2.1982 -3.9267 0
M  V30 END ATOM
M  V30 BEGIN BOND
M  V30 1 2 1 2
M  V30 2 1 2 3
M  V30 3 1 2 4
M  V30 4 1 3 5
M  V30 5 2 4 6
M  V30 6 1 4 7
M  V30 7 1 5 8
M  V30 8 1 6 9
M  V30 9 1 6 10
M  V30 10 2 7 11
M  V30 11 1 9 12
M  V30 12 2 10 13
M  V30 13 1 10 14
M  V30 14 1 12 15
M  V30 15 1 13 16
M  V30 16 2 14 17
M  V30 17 1 15 18
M  V30 18 1 16 19
M  V30 19 1 18 20
M  V30 20 1 19 21
M  V30 21 1 11 13
M  V30 22 1 16 17
M  V30 23 1 5 22
M  V30 24 1 5 23
M  V30 25 1 7 24
M  V30 26 1 8 25
M  V30 27 1 8 26
M  V30 28 1 8 27
M  V30 29 1 9 28
M  V30 30 1 12 29
M  V30 31 1 12 30
M  V30 32 1 14 31
M  V30 33 1 15 32
M  V30 34 1 15 33
M  V30 35 1 18 34
M  V30 36 1 18 35
M  V30 37 1 19 36
M  V30 38 1 19 37
M  V30 39 1 20 38
M  V30 40 1 20 39
M  V30 41 1 20 40
M  V30 42 1 21 41
M  V30 43 1 21 42
M  V30 44 1 21 43
M  V30 END BOND
M  V30 END CTAB
M  END
>  <Column 1>
1387

>  <level_0>
1535

>  <index>
1535

>  <Unnamed: 0>
1535

>  <NO.>
1547

>  <Name>
cartazolate

>  <IUPAC_name>
ethyl 4-(butylamino)-1-ethylpyrazolo[3-4-b]pyridine-5-carboxylate

>  <SMILES>
CCCCNc1c(C(=O)OCC)cnc2c1cnn2CC

>  <CID>
37015

>  <logBB>


>  <BBB+/BBB->
BBB+

>  <Inchi>
InChI=1S/C15H22N4O2/c1-4-7-8-16-13-11-10-18-19(5-2)14(11)17-9-12(13)15(20)21-6-3/h9-10H-4-8H2-1-3H3-(H-16-17)

>  <threshold>
-1

>  <reference>
R1|R13|R19|R6|R24|R27|R27|R27|R30|R30|

>  <group>
B

>  <Class>
1

>  <ABC>
15.46

>  <ABCGG>
13.82

>  <nAcid>
0

>  <nBase>
0

>  <nAromAtom>
9

>  <nAromBond>
10

>  <nAtom>
43

>  <nHeavyAtom>
21

>  <nSpiro>
0

>  <nBridgehead>
0

>  <nHetero>
6

>  <nN>
4

>  <nO>
2

>  <nF>
0

>  <BalabanJ>
2.04

>  <BertzCT>
621.41

>  <nBonds>
44

>  <nBondsO>
22

>  <nBondsS>
33

>  <nBondsD>
1

>  <nBondsT>
0

>  <nBondsA>
10

>  <nBondsM>
11

>  <nBondsKS>
39

>  <nBondsKD>
5

>  <RNCG>
0.23

>  <RPCG>
0.17

>  <FCSP3>
0.53

>  <SZ>
26

>  <Sm>
24.18

>  <Sv>
25.42

>  <Sse>
43.08

>  <Sp>
27.38

>  <Si>
49.15

>  <MZ>
0.6

>  <Mm>
0.56

>  <Mv>
0.59

>  <Mse>
1

>  <Mp>
0.64

>  <Mi>
1.14

>  <NsCH3>
3

>  <NdCH2>
0

>  <NssCH2>
5

>  <NtCH>
0

>  <NdsCH>
0

>  <NaaCH>
2

>  <NsssCH>
0

>  <NddC>
0

>  <NtsC>
0

>  <NdssC>
1

>  <NaasC>
2

>  <NaaaC>
2

>  <NssssC>
0

>  <NsNH3>
0

>  <NsNH2>
0

>  <NssNH2>
0

>  <NdNH>
0

>  <NssNH>
1

>  <NaaNH>
0

>  <NtN>
0

>  <NsssNH>
0

>  <NdsN>
0

>  <NaaN>
2

>  <NsssN>
0

>  <NddsN>
0

>  <NaasN>
1

>  <NssssN>
0

>  <NsOH>
0

>  <NdO>
1

>  <NssO>
1

>  <NaaO>
0

>  <NsF>
0

>  <NsSiH3>
0

>  <NssSiH2>
0

>  <NsssSiH>
0

>  <NssssSi>
0

>  <NsPH2>
0

>  <NssPH>
0

>  <NsssP>
0

>  <NdsssP>
0

>  <NsssssP>
0

>  <NsSH>
0

>  <NdS>
0

>  <NssS>
0

>  <NaaS>
0

>  <NdssS>
0

>  <NddssS>
0

>  <NsCl>
0

>  <NsBr>
0

>  <NsI>
0

>  <fragCpx>
64.06

>  <fMF>
0.21

>  <nHBAcc>
6

>  <nHBDon>
1

>  <Kier1>
17.36

>  <Kier2>
8.59

>  <Lipinski>
1

>  <GhoseFilter>
1

>  <FilterItLogS>
-4.33

>  <VMcGowan>
230.65

>  <LabuteASA>
124.05

>  <PEOE_VSA1>
10.05

>  <PEOE_VSA2>
0

>  <PEOE_VSA3>
14.46

>  <PEOE_VSA4>
5.1

>  <PEOE_VSA5>
0

>  <PEOE_VSA6>
13.34

>  <PEOE_VSA7>
20.27

>  <PEOE_VSA8>
19.29

>  <PEOE_VSA9>
23.88

>  <PEOE_VSA10>
5.56

>  <PEOE_VSA11>
5.65

>  <PEOE_VSA12>
0

>  <PEOE_VSA13>
0

>  <SMR_VSA1>
9.53

>  <SMR_VSA2>
0

>  <SMR_VSA3>
14.76

>  <SMR_VSA4>
0

>  <SMR_VSA5>
40.16

>  <SMR_VSA6>
18.47

>  <SMR_VSA7>
17.96

>  <SMR_VSA8>
0

>  <SMR_VSA9>
0

>  <SlogP_VSA1>
5.32

>  <SlogP_VSA2>
33.89

>  <SlogP_VSA3>
11.28

>  <SlogP_VSA4>
0

>  <SlogP_VSA5>
43.97

>  <SlogP_VSA6>
12.39

>  <SlogP_VSA7>
0

>  <SlogP_VSA8>
11.03

>  <SlogP_VSA9>
0

>  <SlogP_VSA10>
5.69

>  <SlogP_VSA11>
0

>  <EState_VSA1>
0

>  <EState_VSA2>
5.97

>  <EState_VSA3>
12.17

>  <EState_VSA4>
42.65

>  <EState_VSA5>
0

>  <EState_VSA6>
19.32

>  <EState_VSA7>
11.61

>  <EState_VSA8>
22.32

>  <EState_VSA9>
4.74

>  <EState_VSA10>
4.79

>  <VSA_EState1>
6.93

>  <VSA_EState2>
16.45

>  <VSA_EState3>
8.51

>  <VSA_EState4>
2.02

>  <VSA_EState5>
-0.35

>  <VSA_EState6>
0

>  <VSA_EState7>
5.45

>  <VSA_EState8>
7.83

>  <VSA_EState9>
0

>  <apol>
45.72

>  <bpol>
28.09

>  <nRing>
2

>  <nHRing>
2

>  <naRing>
2

>  <naHRing>
2

>  <nARing 2>
0

>  <nAHRing 2>
0

>  <nFRing>
1

>  <nFHRing>
1

>  <nFaRing>
1

>  <nFaHRing>
1

>  <nFARing 2>
0

>  <nFAHRing 2>
0

>  <nRot>
7

>  <SLogP>
2.84

>  <SMR>
82.56

>  <TopoPSA(NO)>
69.04

>  <TopoPSA>
69.04

>  <JGI1>
0.14

>  <JGI2>
0.09

>  <JGI3>
0.05

>  <JGI4>
0.04

>  <JGI5>
0.03

>  <Diameter>
10

>  <Radius>
5

>  <TMWC10>
116.44

>  <TSRW10>
68.48

>  <MW>
290.17

>  <AMW>
6.75

>  <WPath>
925

>  <WPol>
32

>  <Zagreb1>
102

>  <Zagreb2>
120

>  <mZagreb2>
5.06

>  <yes>


>  <nAR-cont>
0.336376

>  <nHA-cont>
0.994529749

>  <MWHBN>
0.410933725

>  <MWHBN-cont>
0.433172454

>  <TPSA-cont>
0.518057929

>  <pka_cont>
0.97

>  <yes.1>


>  <BBB_SCORE>
3.501780288

>  <MMFF94 Energy>
61.428

$$$$
Compound 1170
Actelion Java MolfileCreator 2.0

  0  0  0  0  0  0              0 V3000
M  V30 BEGIN CTAB
M  V30 COUNTS 67 70 0 0 0
M  V30 BEGIN ATOM
M  V30 1 F -0.1606 0.884 4.668 0
M  V30 2 C -0.6975 -0.3446 4.4387 0
M  V30 3 C -2.1912 -0.2557 4.2931 0
M  V30 4 C -0.084 -0.918 3.1714 0
M  V30 5 C -2.9791 -0.9269 5.1538 0
M  V30 6 C -2.7207 0.5567 3.0972 0
M  V30 7 C -0.482 -0.1015 1.93 0
M  V30 8 C -4.4468 -0.9559 5.0152 0
M  V30 9 C -4.2445 0.4552 3.029 0
M  V30 10 C -2.034 0.0028 1.7735 0
M  V30 11 C -2.4238 2.0581 3.3199 0
M  V30 12 C 0.2434 -0.6346 0.6756 0
M  V30 13 O -5.1473 -1.5791 5.8018 0
M  V30 14 C -5.0266 -0.2169 3.8834 0
M  V30 15 C -2.3538 0.7961 0.476 0
M  V30 16 C -0.1319 0.0934 -0.6325 0
M  V30 17 C 0.0172 -2.122 0.3666 0
M  V30 18 O -3.7494 0.8076 0.1932 0
M  V30 19 C -1.6626 0.2081 -0.7615 0
M  V30 20 C 0.4905 -0.8554 -1.6921 0
M  V30 21 C 0.5153 1.4885 -0.6894 0
M  V30 22 C 0.2282 -2.2791 -1.1469 0
M  V30 23 C -0.0495 -0.6724 -3.1055 0
M  V30 24 C 1.37 -3.2358 -1.4768 0
M  V30 25 O -0.8902 -1.3916 -3.6314 0
M  V30 26 C 0.5143 0.5053 -3.8886 0
M  V30 27 O -0.1673 1.435 -4.2751 0
M  V30 28 O 1.8413 0.3251 -4.0504 0
M  V30 29 C 2.4918 1.3817 -4.7662 0
M  V30 30 C 3.9993 1.1462 -4.7323 0
M  V30 31 C 4.5591 1.2062 -3.3087 0
M  V30 32 C 6.0658 1.0035 -3.2955 0
M  V30 33 H -0.4103 -0.9717 5.29 0
M  V30 34 H -0.3967 -1.9631 3.0586 0
M  V30 35 H 1.008 -0.9105 3.2716 0
M  V30 36 H -2.5889 -1.5042 5.9848 0
M  V30 37 H -0.1001 0.9155 2.0879 0
M  V30 38 H -4.7494 1.0241 2.2511 0
M  V30 39 H -2.4321 -1.0133 1.6328 0
M  V30 40 H -2.9306 2.6871 2.5783 0
M  V30 41 H -2.7703 2.3891 4.3074 0
M  V30 42 H -1.3584 2.2946 3.2572 0
M  V30 43 H 1.3243 -0.5083 0.843 0
M  V30 44 H -6.1063 -0.2298 3.797 0
M  V30 45 H -2.0485 1.8405 0.5924 0
M  V30 46 H 0.6971 -2.7509 0.9519 0
M  V30 47 H -1.0015 -2.4356 0.6189 0
M  V30 48 H -4.0273 -0.0996 -0.0245 0
M  V30 49 H -1.9256 0.8194 -1.6355 0
M  V30 50 H -2.1077 -0.7739 -0.9697 0
M  V30 51 H 1.5776 -0.7016 -1.7288 0
M  V30 52 H 0.2329 2.0246 -1.6 0
M  V30 53 H 0.2171 2.1154 0.1562 0
M  V30 54 H 1.6087 1.42 -0.6702 0
M  V30 55 H -0.6879 -2.7053 -1.5738 0
M  V30 56 H 2.3151 -2.8961 -1.0397 0
M  V30 57 H 1.159 -4.2366 -1.086 0
M  V30 58 H 1.5064 -3.3182 -2.5599 0
M  V30 59 H 2.2532 2.3508 -4.3116 0
M  V30 60 H 2.144 1.374 -5.8053 0
M  V30 61 H 4.2213 0.1607 -5.1592 0
M  V30 62 H 4.4938 1.899 -5.3567 0
M  V30 63 H 4.323 2.177 -2.8576 0
M  V30 64 H 4.091 0.4366 -2.6842 0
M  V30 65 H 6.4456 1.0513 -2.2702 0
M  V30 66 H 6.3338 0.0273 -3.712 0
M  V30 67 H 6.5712 1.7779 -3.8812 0
M  V30 END ATOM
M  V30 BEGIN BOND
M  V30 1 1 1 2
M  V30 2 1 2 3
M  V30 3 1 2 4
M  V30 4 2 3 5
M  V30 5 1 3 6
M  V30 6 1 4 7
M  V30 7 1 5 8
M  V30 8 1 6 9
M  V30 9 1 6 10
M  V30 10 1 6 11
M  V30 11 1 7 12
M  V30 12 2 8 13
M  V30 13 1 8 14
M  V30 14 1 10 15
M  V30 15 1 12 16
M  V30 16 1 12 17
M  V30 17 1 15 18
M  V30 18 1 15 19
M  V30 19 1 16 20
M  V30 20 1 16 21
M  V30 21 1 17 22
M  V30 22 1 20 23
M  V30 23 1 22 24
M  V30 24 2 23 25
M  V30 25 1 23 26
M  V30 26 2 26 27
M  V30 27 1 26 28
M  V30 28 1 28 29
M  V30 29 1 29 30
M  V30 30 1 30 31
M  V30 31 1 31 32
M  V30 32 1 7 10
M  V30 33 2 9 14
M  V30 34 1 16 19
M  V30 35 1 20 22
M  V30 36 1 2 33
M  V30 37 1 4 34
M  V30 38 1 4 35
M  V30 39 1 5 36
M  V30 40 1 7 37
M  V30 41 1 9 38
M  V30 42 1 10 39
M  V30 43 1 11 40
M  V30 44 1 11 41
M  V30 45 1 11 42
M  V30 46 1 12 43
M  V30 47 1 14 44
M  V30 48 1 15 45
M  V30 49 1 17 46
M  V30 50 1 17 47
M  V30 51 1 18 48
M  V30 52 1 19 49
M  V30 53 1 19 50
M  V30 54 1 20 51
M  V30 55 1 21 52
M  V30 56 1 21 53
M  V30 57 1 21 54
M  V30 58 1 22 55
M  V30 59 1 24 56
M  V30 60 1 24 57
M  V30 61 1 24 58
M  V30 62 1 29 59
M  V30 63 1 29 60
M  V30 64 1 30 61
M  V30 65 1 30 62
M  V30 66 1 31 63
M  V30 67 1 31 64
M  V30 68 1 32 65
M  V30 69 1 32 66
M  V30 70 1 32 67
M  V30 END BOND
M  V30 END CTAB
M  END
>  <Column 1>
1388

>  <level_0>
1536

>  <index>
1536

>  <Unnamed: 0>
1536

>  <NO.>
1548

>  <Name>
schembl25219

>  <IUPAC_name>
butyl 2-(6-fluoro-11-hydroxy-10-13-16-trimethyl-3-oxo-6-7-8-9-11-12-14-15-16-17-decahydrocyclopenta[a]phenanthren-17-yl)-2-oxoacetate

>  <SMILES>
CCCCOC(=O)C(=O)C1C(C)CC2C3CC(F)C4=CC(=O)C=CC4(C)C3C(O)CC21C

>  <CID>
21872759

>  <logBB>


>  <BBB+/BBB->
BBB+

>  <Inchi>
InChI=1S/C26H35FO5/c1-5-6-9-32-24(31)23(30)21-14(2)10-17-16-12-19(27)18-11-15(28)7-8-25(18-3)22(16)20(29)13-26(17-21)4/h7-8-11-14-16-17-19-22-29H-5-6-9-10-12-13H2-1-4H3

>  <threshold>
-1

>  <reference>
R1|R19|R19|R27|R27|R30|

>  <group>
B

>  <Class>
1

>  <ABC>
25.19

>  <ABCGG>
20.35

>  <nAcid>
0

>  <nBase>
0

>  <nAromAtom>
0

>  <nAromBond>
0

>  <nAtom>
67

>  <nHeavyAtom>
32

>  <nSpiro>
0

>  <nBridgehead>
0

>  <nHetero>
6

>  <nN>
0

>  <nO>
5

>  <nF>
1

>  <BalabanJ>
1.6

>  <BertzCT>
877.44

>  <nBonds>
70

>  <nBondsO>
35

>  <nBondsS>
65

>  <nBondsD>
5

>  <nBondsT>
0

>  <nBondsA>
0

>  <nBondsM>
5

>  <nBondsKS>
65

>  <nBondsKD>
5

>  <RNCG>
0.18

>  <RPCG>
0.15

>  <FCSP3>
0.73

>  <SZ>
40

>  <Sm>
37.18

>  <Sv>
39.7

>  <Sse>
67.15

>  <Sp>
42.71

>  <Si>
75.86

>  <MZ>
0.6

>  <Mm>
0.55

>  <Mv>
0.59

>  <Mse>
1

>  <Mp>
0.64

>  <Mi>
1.13

>  <NsCH3>
4

>  <NdCH2>
0

>  <NssCH2>
6

>  <NtCH>
0

>  <NdsCH>
3

>  <NaaCH>
0

>  <NsssCH>
7

>  <NddC>
0

>  <NtsC>
0

>  <NdssC>
4

>  <NaasC>
0

>  <NaaaC>
0

>  <NssssC>
2

>  <NsNH3>
0

>  <NsNH2>
0

>  <NssNH2>
0

>  <NdNH>
0

>  <NssNH>
0

>  <NaaNH>
0

>  <NtN>
0

>  <NsssNH>
0

>  <NdsN>
0

>  <NaaN>
0

>  <NsssN>
0

>  <NddsN>
0

>  <NaasN>
0

>  <NssssN>
0

>  <NsOH>
1

>  <NdO>
3

>  <NssO>
1

>  <NaaO>
0

>  <NsF>
1

>  <NsSiH3>
0

>  <NssSiH2>
0

>  <NsssSiH>
0

>  <NssssSi>
0

>  <NsPH2>
0

>  <NssPH>
0

>  <NsssP>
0

>  <NdsssP>
0

>  <NsssssP>
0

>  <NsSH>
0

>  <NdS>
0

>  <NssS>
0

>  <NaaS>
0

>  <NdssS>
0

>  <NddssS>
0

>  <NsCl>
0

>  <NsBr>
0

>  <NsI>
0

>  <fragCpx>
233.06

>  <fMF>
0.25

>  <nHBAcc>
5

>  <nHBDon>
1

>  <Kier1>
25.1

>  <Kier2>
9.22

>  <Lipinski>
1

>  <GhoseFilter>
1

>  <FilterItLogS>
-4.11

>  <VMcGowan>
343.37

>  <LabuteASA>
189.02

>  <PEOE_VSA1>
9.84

>  <PEOE_VSA2>
9.59

>  <PEOE_VSA3>
9.18

>  <PEOE_VSA4>
0

>  <PEOE_VSA5>
0

>  <PEOE_VSA6>
40.19

>  <PEOE_VSA7>
66.58

>  <PEOE_VSA8>
17.25

>  <PEOE_VSA9>
12.71

>  <PEOE_VSA10>
6.17

>  <PEOE_VSA11>
5.78

>  <PEOE_VSA12>
5.78

>  <PEOE_VSA13>
0

>  <SMR_VSA1>
28.62

>  <SMR_VSA2>
0

>  <SMR_VSA3>
0

>  <SMR_VSA4>
40.42

>  <SMR_VSA5>
72.07

>  <SMR_VSA6>
6.61

>  <SMR_VSA7>
23.8

>  <SMR_VSA8>
0

>  <SMR_VSA9>
0

>  <SlogP_VSA1>
0

>  <SlogP_VSA2>
41.52

>  <SlogP_VSA3>
19.12

>  <SlogP_VSA4>
40.42

>  <SlogP_VSA5>
59.8

>  <SlogP_VSA6>
23.8

>  <SlogP_VSA7>
0

>  <SlogP_VSA8>
0

>  <SlogP_VSA9>
0

>  <SlogP_VSA10>
4.39

>  <SlogP_VSA11>
0

>  <EState_VSA1>
40.78

>  <EState_VSA2>
42.48

>  <EState_VSA3>
24.84

>  <EState_VSA4>
6.42

>  <EState_VSA5>
12.15

>  <EState_VSA6>
6.08

>  <EState_VSA7>
27.69

>  <EState_VSA8>
0

>  <EState_VSA9>
4.74

>  <EState_VSA10>
19.49

>  <VSA_EState1>
20.61

>  <VSA_EState2>
37.62

>  <VSA_EState3>
11.37

>  <VSA_EState4>
-0.85

>  <VSA_EState5>
-2.42

>  <VSA_EState6>
0

>  <VSA_EState7>
5.56

>  <VSA_EState8>
8.11

>  <VSA_EState9>
0

>  <apol>
71.32

>  <bpol>
40.57

>  <nRing>
4

>  <nHRing>
0

>  <naRing>
0

>  <naHRing>
0

>  <nARing 2>
4

>  <nAHRing 2>
0

>  <nFRing>
1

>  <nFHRing>
0

>  <nFaRing>
0

>  <nFaHRing>
0

>  <nFARing 2>
1

>  <nFAHRing 2>
0

>  <nRot>
5

>  <SLogP>
3.99

>  <SMR>
117.2

>  <TopoPSA(NO)>
80.67

>  <TopoPSA>
80.67

>  <JGI1>
0.26

>  <JGI2>
0.11

>  <JGI3>
0.08

>  <JGI4>
0.06

>  <JGI5>
0.03

>  <Diameter>
16

>  <Radius>
8

>  <TMWC10>
148.03

>  <TSRW10>
83.69

>  <MW>
446.25

>  <AMW>
6.66

>  <WPath>
2711

>  <WPol>
66

>  <Zagreb1>
180

>  <Zagreb2>
225

>  <mZagreb2>
6.86

>  <yes>


>  <nAR-cont>
0.199399

>  <nHA-cont>
0.658856097

>  <MWHBN>
0.284028641

>  <MWHBN-cont>
0.885681679

>  <TPSA-cont>
0.436873307

>  <pka_cont>
0.97

>  <yes.1>


>  <BBB_SCORE>
3.545524229

>  <MMFF94 Energy>
113.59

$$$$
Compound 1171
Actelion Java MolfileCreator 2.0

  0  0  0  0  0  0              0 V3000
M  V30 BEGIN CTAB
M  V30 COUNTS 56 57 0 0 0
M  V30 BEGIN ATOM
M  V30 1 O -1.578 -0.1577 1.657 0
M  V30 2 C -0.6661 -0.8345 1.1895 0
M  V30 3 N 0.4877 -0.3167 0.6484 0
M  V30 4 N -0.7878 -2.1863 1.1955 0
M  V30 5 C 1.4981 -1.0788 0.075 0
M  V30 6 C 0.7031 1.1346 0.7368 0
M  V30 7 C 0.0367 -3.1012 0.6177 0
M  V30 8 O 2.5568 -0.5483 -0.279 0
M  V30 9 C 1.2378 -2.5761 -0.1673 0
M  V30 10 C 0.4212 1.8686 -0.5895 0
M  V30 11 O -0.2672 -4.2933 0.6868 0
M  V30 12 C 2.4622 -3.4407 0.2148 0
M  V30 13 C 0.7939 -2.6848 -1.666 0
M  V30 14 O 1.1026 3.1441 -0.5253 0
M  V30 15 C -1.083 2.0818 -0.8268 0
M  V30 16 C 2.731 -4.6659 -0.4236 0
M  V30 17 C 3.3019 -3.0717 1.2849 0
M  V30 18 C 1.8324 -2.2812 -2.7101 0
M  V30 19 C 1.3241 3.745 -1.7133 0
M  V30 20 O -1.6448 2.8301 0.2549 0
M  V30 21 C 3.8151 -5.4616 -0.0417 0
M  V30 22 C 4.3868 -3.8674 1.6644 0
M  V30 23 O 1.0116 3.3149 -2.8114 0
M  V30 24 N 1.9552 4.9228 -1.5216 0
M  V30 25 C -3.0645 2.9347 0.1481 0
M  V30 26 C 4.646 -5.0599 0.9981 0
M  V30 27 C -3.5687 3.7493 1.3342 0
M  V30 28 C -5.0724 4.0169 1.2992 0
M  V30 29 C -5.9144 2.7573 1.4322 0
M  V30 30 H -1.6102 -2.5551 1.6535 0
M  V30 31 H 1.7491 1.3074 1.023 0
M  V30 32 H 0.1118 1.562 1.555 0
M  V30 33 H 0.8399 1.2842 -1.4189 0
M  V30 34 H -0.0941 -2.0561 -1.8264 0
M  V30 35 H 0.461 -3.7062 -1.8919 0
M  V30 36 H -1.5876 1.1126 -0.9104 0
M  V30 37 H -1.2544 2.6418 -1.7519 0
M  V30 38 H 2.0921 -5.0377 -1.2208 0
M  V30 39 H 3.1375 -2.1514 1.8418 0
M  V30 40 H 1.4498 -2.502 -3.7125 0
M  V30 41 H 2.0405 -1.2081 -2.6771 0
M  V30 42 H 2.7745 -2.8216 -2.5895 0
M  V30 43 H 4.0026 -6.402 -0.554 0
M  V30 44 H 5.029 -3.5534 2.4835 0
M  V30 45 H 2.191 5.4913 -2.3202 0
M  V30 46 H 2.1777 5.2264 -0.5865 0
M  V30 47 H -3.4991 1.9297 0.1566 0
M  V30 48 H -3.3239 3.4319 -0.7933 0
M  V30 49 H 5.488 -5.6793 1.2944 0
M  V30 50 H -3.2962 3.242 2.2683 0
M  V30 51 H -3.0366 4.7091 1.3564 0
M  V30 52 H -5.3248 4.6935 2.1245 0
M  V30 53 H -5.3376 4.5366 0.3712 0
M  V30 54 H -6.9754 3.0199 1.4951 0
M  V30 55 H -5.7877 2.0972 0.5693 0
M  V30 56 H -5.6491 2.2008 2.3367 0
M  V30 END ATOM
M  V30 BEGIN BOND
M  V30 1 2 1 2
M  V30 2 1 2 3
M  V30 3 1 2 4
M  V30 4 1 3 5
M  V30 5 1 3 6
M  V30 6 1 4 7
M  V30 7 2 5 8
M  V30 8 1 5 9
M  V30 9 1 6 10
M  V30 10 2 7 11
M  V30 11 1 9 12
M  V30 12 1 9 13
M  V30 13 1 10 14
M  V30 14 1 10 15
M  V30 15 2 12 16
M  V30 16 1 12 17
M  V30 17 1 13 18
M  V30 18 1 14 19
M  V30 19 1 15 20
M  V30 20 1 16 21
M  V30 21 2 17 22
M  V30 22 2 19 23
M  V30 23 1 19 24
M  V30 24 1 20 25
M  V30 25 2 21 26
M  V30 26 1 25 27
M  V30 27 1 27 28
M  V30 28 1 28 29
M  V30 29 1 7 9
M  V30 30 1 22 26
M  V30 31 1 4 30
M  V30 32 1 6 31
M  V30 33 1 6 32
M  V30 34 1 10 33
M  V30 35 1 13 34
M  V30 36 1 13 35
M  V30 37 1 15 36
M  V30 38 1 15 37
M  V30 39 1 16 38
M  V30 40 1 17 39
M  V30 41 1 18 40
M  V30 42 1 18 41
M  V30 43 1 18 42
M  V30 44 1 21 43
M  V30 45 1 22 44
M  V30 46 1 24 45
M  V30 47 1 24 46
M  V30 48 1 25 47
M  V30 49 1 25 48
M  V30 50 1 26 49
M  V30 51 1 27 50
M  V30 52 1 27 51
M  V30 53 1 28 52
M  V30 54 1 28 53
M  V30 55 1 29 54
M  V30 56 1 29 55
M  V30 57 1 29 56
M  V30 END BOND
M  V30 END CTAB
M  END
>  <Column 1>
1390

>  <level_0>
1539

>  <index>
1539

>  <Unnamed: 0>
1539

>  <NO.>
1551

>  <Name>
febarbamate

>  <IUPAC_name>
[1-butoxy-3-(5-ethyl-2-4-6-trioxo-5-phenyl-1-3-diazinan-1-yl)propan-2-yl] carbamate

>  <SMILES>
CCCCOCC(CN1C(=O)NC(=O)C(CC)(c2ccccc2)C1=O)OC(N)=O

>  <CID>
25803

>  <logBB>


>  <BBB+/BBB->
BBB+

>  <Inchi>
InChI=1S/C20H27N3O6/c1-3-5-11-28-13-15(29-18(21)26)12-23-17(25)20(4-2-16(24)22-19(23)27)14-9-7-6-8-10-14/h6-10-15H-3-5-11-13H2-1-2H3-(H2-21-26)(H-22-24-27)

>  <threshold>
-1

>  <reference>
R1|R19|R6|R27|R27|R30|

>  <group>
B

>  <Class>
-1

>  <ABC>
21.49

>  <ABCGG>
18.52

>  <nAcid>
0

>  <nBase>
0

>  <nAromAtom>
6

>  <nAromBond>
6

>  <nAtom>
56

>  <nHeavyAtom>
29

>  <nSpiro>
0

>  <nBridgehead>
0

>  <nHetero>
9

>  <nN>
3

>  <nO>
6

>  <nF>
0

>  <BalabanJ>
2.15

>  <BertzCT>
753.84

>  <nBonds>
57

>  <nBondsO>
30

>  <nBondsS>
47

>  <nBondsD>
4

>  <nBondsT>
0

>  <nBondsA>
6

>  <nBondsM>
10

>  <nBondsKS>
50

>  <nBondsKD>
7

>  <RNCG>
0.14

>  <RPCG>
0.12

>  <FCSP3>
0.5

>  <SZ>
36

>  <Sm>
33.76

>  <Sv>
33.88

>  <Sse>
56.96

>  <Sp>
35.64

>  <Si>
63.73

>  <MZ>
0.64

>  <Mm>
0.6

>  <Mv>
0.6

>  <Mse>
1.02

>  <Mp>
0.64

>  <Mi>
1.14

>  <NsCH3>
2

>  <NdCH2>
0

>  <NssCH2>
6

>  <NtCH>
0

>  <NdsCH>
0

>  <NaaCH>
5

>  <NsssCH>
1

>  <NddC>
0

>  <NtsC>
0

>  <NdssC>
4

>  <NaasC>
1

>  <NaaaC>
0

>  <NssssC>
1

>  <NsNH3>
0

>  <NsNH2>
1

>  <NssNH2>
0

>  <NdNH>
0

>  <NssNH>
1

>  <NaaNH>
0

>  <NtN>
0

>  <NsssNH>
0

>  <NdsN>
0

>  <NaaN>
0

>  <NsssN>
1

>  <NddsN>
0

>  <NaasN>
0

>  <NssssN>
0

>  <NsOH>
0

>  <NdO>
4

>  <NssO>
2

>  <NaaO>
0

>  <NsF>
0

>  <NsSiH3>
0

>  <NssSiH2>
0

>  <NsssSiH>
0

>  <NssssSi>
0

>  <NsPH2>
0

>  <NssPH>
0

>  <NsssP>
0

>  <NdsssP>
0

>  <NsssssP>
0

>  <NsSH>
0

>  <NdS>
0

>  <NssS>
0

>  <NaaS>
0

>  <NdssS>
0

>  <NddssS>
0

>  <NsCl>
0

>  <NsBr>
0

>  <NsI>
0

>  <fragCpx>
88.09

>  <fMF>
0.21

>  <nHBAcc>
6

>  <nHBDon>
2

>  <Kier1>
25.26

>  <Kier2>
12.14

>  <Lipinski>
1

>  <GhoseFilter>
1

>  <FilterItLogS>
-4.03

>  <VMcGowan>
306

>  <LabuteASA>
169.06

>  <PEOE_VSA1>
15.21

>  <PEOE_VSA2>
19.81

>  <PEOE_VSA3>
9.59

>  <PEOE_VSA4>
0

>  <PEOE_VSA5>
0

>  <PEOE_VSA6>
50.6

>  <PEOE_VSA7>
18.41

>  <PEOE_VSA8>
6.61

>  <PEOE_VSA9>
13.15

>  <PEOE_VSA10>
6.1

>  <PEOE_VSA11>
5.41

>  <PEOE_VSA12>
5.91

>  <PEOE_VSA13>
5.91

>  <SMR_VSA1>
28.65

>  <SMR_VSA2>
0

>  <SMR_VSA3>
10.22

>  <SMR_VSA4>
5.73

>  <SMR_VSA5>
44.63

>  <SMR_VSA6>
19.76

>  <SMR_VSA7>
35.9

>  <SMR_VSA8>
0

>  <SMR_VSA9>
0

>  <SlogP_VSA1>
11.05

>  <SlogP_VSA2>
54.7

>  <SlogP_VSA3>
24.48

>  <SlogP_VSA4>
0

>  <SlogP_VSA5>
38.67

>  <SlogP_VSA6>
30.33

>  <SlogP_VSA7>
0

>  <SlogP_VSA8>
0

>  <SlogP_VSA9>
0

>  <SlogP_VSA10>
9.59

>  <SlogP_VSA11>
0

>  <EState_VSA1>
35.46

>  <EState_VSA2>
19.57

>  <EState_VSA3>
12.17

>  <EState_VSA4>
17.74

>  <EState_VSA5>
0

>  <EState_VSA6>
37.26

>  <EState_VSA7>
6.92

>  <EState_VSA8>
5.32

>  <EState_VSA9>
15.21

>  <EState_VSA10>
19.18

>  <VSA_EState1>
10.48

>  <VSA_EState2>
50.58

>  <VSA_EState3>
2.25

>  <VSA_EState4>
4.05

>  <VSA_EState5>
-1.35

>  <VSA_EState6>
7.67

>  <VSA_EState7>
-0.1

>  <VSA_EState8>
3.84

>  <VSA_EState9>
0

>  <apol>
59.52

>  <bpol>
35.74

>  <nRing>
2

>  <nHRing>
1

>  <naRing>
1

>  <naHRing>
0

>  <nARing 2>
1

>  <nAHRing 2>
1

>  <nFRing>
0

>  <nFHRing>
0

>  <nFaRing>
0

>  <nFaHRing>
0

>  <nFARing 2>
0

>  <nFAHRing 2>
0

>  <nRot>
10

>  <SLogP>
1.69

>  <SMR>
103.85

>  <TopoPSA(NO)>
128.03

>  <TopoPSA>
128.03

>  <JGI1>
0.22

>  <JGI2>
0.09

>  <JGI3>
0.07

>  <JGI4>
0.04

>  <JGI5>
0.03

>  <Diameter>
14

>  <Radius>
7

>  <TMWC10>
135.72

>  <TSRW10>
64.4

>  <MW>
405.19

>  <AMW>
7.24

>  <WPath>
2224

>  <WPol>
49

>  <Zagreb1>
142

>  <Zagreb2>
167

>  <mZagreb2>
6.76

>  <yes>


>  <nAR-cont>
0.816016

>  <nHA-cont>
0.785905698

>  <MWHBN>
0.397429983

>  <MWHBN-cont>
0.486180678

>  <TPSA-cont>
0

>  <pka_cont>
0.97

>  <yes.1>


>  <BBB_SCORE>
2.816192715

>  <MMFF94 Energy>
-115.65

$$$$
Compound 1172
Actelion Java MolfileCreator 2.0

  0  0  0  0  0  0              0 V3000
M  V30 BEGIN CTAB
M  V30 COUNTS 48 49 0 0 0
M  V30 BEGIN ATOM
M  V30 1 O 2.4394 0.9437 -0.7864 0
M  V30 2 C 1.3059 0.4703 -0.8481 0
M  V30 3 C 0.7801 -0.3102 0.3143 0
M  V30 4 C 0.409 0.664 -2.0578 0
M  V30 5 C -0.5267 -0.8049 0.357 0
M  V30 6 C 1.6328 -0.5474 1.4011 0
M  V30 7 C 1.1619 1.3446 -3.2061 0
M  V30 8 C -0.9646 -1.5272 1.4725 0
M  V30 9 C 1.1896 -1.271 2.5151 0
M  V30 10 N 0.3503 1.4299 -4.4362 0
M  V30 11 C -0.1132 -1.7639 2.5547 0
M  V30 12 C 1.1878 1.7195 -5.6136 0
M  V30 13 C -0.7577 2.3952 -4.3544 0
M  V30 14 O -0.6731 -2.4822 3.5735 0
M  V30 15 C 1.7134 3.1564 -5.666 0
M  V30 16 C -0.3178 3.8618 -4.3645 0
M  V30 17 C 0.1424 -2.7375 4.7168 0
M  V30 18 C 0.574 4.1646 -5.5637 0
M  V30 19 C -0.6697 -3.5385 5.7343 0
M  V30 20 C -1.8723 -2.753 6.2632 0
M  V30 21 C -2.6459 -3.5532 7.2995 0
M  V30 22 H -0.4444 1.2728 -1.7432 0
M  V30 23 H 0.0565 -0.3175 -2.3947 0
M  V30 24 H -1.2284 -0.6451 -0.456 0
M  V30 25 H 2.654 -0.1693 1.3881 0
M  V30 26 H 1.5288 2.3275 -2.8882 0
M  V30 27 H 2.054 0.738 -3.4133 0
M  V30 28 H -1.9828 -1.9102 1.4995 0
M  V30 29 H 1.889 -1.4289 3.3294 0
M  V30 30 H 0.5918 1.526 -6.5154 0
M  V30 31 H 2.0272 1.0153 -5.6669 0
M  V30 32 H -1.3838 2.2046 -3.4765 0
M  V30 33 H -1.4203 2.2231 -5.2134 0
M  V30 34 H 2.2575 3.3139 -6.6042 0
M  V30 35 H 2.4304 3.3263 -4.854 0
M  V30 36 H 0.2143 4.1047 -3.4374 0
M  V30 37 H -1.2021 4.5089 -4.3958 0
M  V30 38 H 0.4701 -1.7946 5.1713 0
M  V30 39 H 1.0168 -3.3307 4.4238 0
M  V30 40 H 0.9758 5.181 -5.487 0
M  V30 41 H -0.0269 4.1264 -6.4808 0
M  V30 42 H -1.0283 -4.4623 5.264 0
M  V30 43 H -0.0176 -3.8213 6.5689 0
M  V30 44 H -1.5327 -1.8137 6.715 0
M  V30 45 H -2.5464 -2.4917 5.4396 0
M  V30 46 H -3.4997 -2.9742 7.6653 0
M  V30 47 H -3.0263 -4.4858 6.8709 0
M  V30 48 H -2.012 -3.8018 8.1567 0
M  V30 END ATOM
M  V30 BEGIN BOND
M  V30 1 2 1 2
M  V30 2 1 2 3
M  V30 3 1 2 4
M  V30 4 2 3 5
M  V30 5 1 3 6
M  V30 6 1 4 7
M  V30 7 1 5 8
M  V30 8 2 6 9
M  V30 9 1 7 10
M  V30 10 2 8 11
M  V30 11 1 10 12
M  V30 12 1 10 13
M  V30 13 1 11 14
M  V30 14 1 12 15
M  V30 15 1 13 16
M  V30 16 1 14 17
M  V30 17 1 15 18
M  V30 18 1 17 19
M  V30 19 1 19 20
M  V30 20 1 20 21
M  V30 21 1 9 11
M  V30 22 1 16 18
M  V30 23 1 4 22
M  V30 24 1 4 23
M  V30 25 1 5 24
M  V30 26 1 6 25
M  V30 27 1 7 26
M  V30 28 1 7 27
M  V30 29 1 8 28
M  V30 30 1 9 29
M  V30 31 1 12 30
M  V30 32 1 12 31
M  V30 33 1 13 32
M  V30 34 1 13 33
M  V30 35 1 15 34
M  V30 36 1 15 35
M  V30 37 1 16 36
M  V30 38 1 16 37
M  V30 39 1 17 38
M  V30 40 1 17 39
M  V30 41 1 18 40
M  V30 42 1 18 41
M  V30 43 1 19 42
M  V30 44 1 19 43
M  V30 45 1 20 44
M  V30 46 1 20 45
M  V30 47 1 21 46
M  V30 48 1 21 47
M  V30 49 1 21 48
M  V30 END BOND
M  V30 END CTAB
M  END
>  <Column 1>
1391

>  <level_0>
1540

>  <index>
1540

>  <Unnamed: 0>
1540

>  <NO.>
1552

>  <Name>
dyclonine hydrochloride

>  <IUPAC_name>
1-(4-butoxyphenyl)-3-piperidin-1-ylpropan-1-one;hydrochloride

>  <SMILES>
CCCCOc1ccc(C(=O)CCN2CCCCC2)cc1

>  <CID>
3180

>  <logBB>


>  <BBB+/BBB->
BBB-

>  <Inchi>
InChI=1S/C18H27NO2/c1-2-3-15-21-17-9-7-16(8-10-17)18(20)11-14-19-12-5-4-6-13-19/h7-10H-2-6-11-15H2-1H3

>  <threshold>
-1

>  <reference>
R1|R13|R27|R30|

>  <group>
B

>  <Class>
1

>  <ABC>
15.63

>  <ABCGG>
12.13

>  <nAcid>
0

>  <nBase>
1

>  <nAromAtom>
6

>  <nAromBond>
6

>  <nAtom>
48

>  <nHeavyAtom>
21

>  <nSpiro>
0

>  <nBridgehead>
0

>  <nHetero>
3

>  <nN>
1

>  <nO>
2

>  <nF>
0

>  <BalabanJ>
1.57

>  <BertzCT>
421.35

>  <nBonds>
49

>  <nBondsO>
22

>  <nBondsS>
42

>  <nBondsD>
1

>  <nBondsT>
0

>  <nBondsA>
6

>  <nBondsM>
7

>  <nBondsKS>
45

>  <nBondsKD>
4

>  <RNCG>
0.33

>  <RPCG>
0.11

>  <FCSP3>
0.61

>  <SZ>
26.33

>  <Sm>
24.1

>  <Sv>
27.5

>  <Sse>
47.31

>  <Sp>
30.4

>  <Si>
54.32

>  <MZ>
0.55

>  <Mm>
0.5

>  <Mv>
0.57

>  <Mse>
0.99

>  <Mp>
0.63

>  <Mi>
1.13

>  <NsCH3>
1

>  <NdCH2>
0

>  <NssCH2>
10

>  <NtCH>
0

>  <NdsCH>
0

>  <NaaCH>
4

>  <NsssCH>
0

>  <NddC>
0

>  <NtsC>
0

>  <NdssC>
1

>  <NaasC>
2

>  <NaaaC>
0

>  <NssssC>
0

>  <NsNH3>
0

>  <NsNH2>
0

>  <NssNH2>
0

>  <NdNH>
0

>  <NssNH>
0

>  <NaaNH>
0

>  <NtN>
0

>  <NsssNH>
0

>  <NdsN>
0

>  <NaaN>
0

>  <NsssN>
1

>  <NddsN>
0

>  <NaasN>
0

>  <NssssN>
0

>  <NsOH>
0

>  <NdO>
1

>  <NssO>
1

>  <NaaO>
0

>  <NsF>
0

>  <NsSiH3>
0

>  <NssSiH2>
0

>  <NsssSiH>
0

>  <NssssSi>
0

>  <NsPH2>
0

>  <NssPH>
0

>  <NsssP>
0

>  <NdsssP>
0

>  <NsssssP>
0

>  <NsSH>
0

>  <NdS>
0

>  <NssS>
0

>  <NaaS>
0

>  <NdssS>
0

>  <NddssS>
0

>  <NsCl>
0

>  <NsBr>
0

>  <NsI>
0

>  <fragCpx>
64.03

>  <fMF>
0.31

>  <nHBAcc>
3

>  <nHBDon>
0

>  <Kier1>
17.36

>  <Kier2>
9.9

>  <Lipinski>
1

>  <GhoseFilter>
1

>  <FilterItLogS>
-4.61

>  <VMcGowan>
247.28

>  <LabuteASA>
127.84

>  <PEOE_VSA1>
9.64

>  <PEOE_VSA2>
4.79

>  <PEOE_VSA3>
0

>  <PEOE_VSA4>
0

>  <PEOE_VSA5>
0

>  <PEOE_VSA6>
19.77

>  <PEOE_VSA7>
56.62

>  <PEOE_VSA8>
18.53

>  <PEOE_VSA9>
6.61

>  <PEOE_VSA10>
5.75

>  <PEOE_VSA11>
5.78

>  <PEOE_VSA12>
0

>  <PEOE_VSA13>
0

>  <SMR_VSA1>
9.53

>  <SMR_VSA2>
0

>  <SMR_VSA3>
4.9

>  <SMR_VSA4>
0

>  <SMR_VSA5>
45.45

>  <SMR_VSA6>
26.24

>  <SMR_VSA7>
29.83

>  <SMR_VSA8>
0

>  <SMR_VSA9>
5.75

>  <SlogP_VSA1>
4.74

>  <SlogP_VSA2>
36.92

>  <SlogP_VSA3>
0

>  <SlogP_VSA4>
0

>  <SlogP_VSA5>
55.81

>  <SlogP_VSA6>
24.27

>  <SlogP_VSA7>
0

>  <SlogP_VSA8>
0

>  <SlogP_VSA9>
0

>  <SlogP_VSA10>
0

>  <SlogP_VSA11>
5.75

>  <EState_VSA1>
0

>  <EState_VSA2>
5.78

>  <EState_VSA3>
6.42

>  <EState_VSA4>
50.4

>  <EState_VSA5>
19.26

>  <EState_VSA6>
0

>  <EState_VSA7>
24.27

>  <EState_VSA8>
11.82

>  <EState_VSA9>
4.74

>  <EState_VSA10>
4.79

>  <VSA_EState1>
5.62

>  <VSA_EState2>
14.6

>  <VSA_EState3>
0

>  <VSA_EState4>
0.8

>  <VSA_EState5>
1.09

>  <VSA_EState6>
7.59

>  <VSA_EState7>
6.71

>  <VSA_EState8>
6.09

>  <VSA_EState9>
0

>  <apol>
50.77

>  <bpol>
31.4

>  <nRing>
2

>  <nHRing>
1

>  <naRing>
1

>  <naHRing>
0

>  <nARing 2>
1

>  <nAHRing 2>
1

>  <nFRing>
0

>  <nFHRing>
0

>  <nFaRing>
0

>  <nFaHRing>
0

>  <nFARing 2>
0

>  <nFAHRing 2>
0

>  <nRot>
8

>  <SLogP>
3.92

>  <SMR>
86.08

>  <TopoPSA(NO)>
29.54

>  <TopoPSA>
29.54

>  <JGI1>
0.14

>  <JGI2>
0.07

>  <JGI3>
0.02

>  <JGI4>
0.03

>  <JGI5>
0.03

>  <Diameter>
15

>  <Radius>
8

>  <TMWC10>
113.29

>  <TSRW10>
53.74

>  <MW>
289.2

>  <AMW>
6.03

>  <WPath>
1156

>  <WPol>
26

>  <Zagreb1>
98

>  <Zagreb2>
108

>  <mZagreb2>
4.94

>  <yes>


>  <nAR-cont>
0.816016

>  <nHA-cont>
0.994529749

>  <MWHBN>
0.176409557

>  <MWHBN-cont>
0.982979811

>  <TPSA-cont>
0.793792457

>  <pka_cont>
0.97

>  <yes.1>


>  <BBB_SCORE>
5.357600379

>  <MMFF94 Energy>
38.694

$$$$
Compound 1173
Actelion Java MolfileCreator 2.0

  0  0  0  0  0  0              0 V3000
M  V30 BEGIN CTAB
M  V30 COUNTS 47 48 0 0 0
M  V30 BEGIN ATOM
M  V30 1 O 0.6282 2.436 -1.021 0
M  V30 2 C 0.396 1.6198 -0.1239 0
M  V30 3 N 1.3497 0.6485 0.2465 0
M  V30 4 N -0.8215 1.6154 0.5619 0
M  V30 5 C 1.1564 -0.3513 1.2045 0
M  V30 6 C 2.6264 0.6581 -0.4598 0
M  V30 7 C -1.055 0.6497 1.5117 0
M  V30 8 C -1.8565 2.5826 0.2105 0
M  V30 9 O 1.9883 -1.2062 1.4974 0
M  V30 10 C -0.1196 -0.2885 1.823 0
M  V30 11 C 2.5732 -0.2093 -1.7209 0
M  V30 12 N -2.1942 0.4907 2.2412 0
M  V30 13 C -2.7917 2.042 -0.8734 0
M  V30 14 N -0.7046 -1.0711 2.7782 0
M  V30 15 C 3.9111 -0.1997 -2.4584 0
M  V30 16 C -1.9617 -0.5684 2.991 0
M  V30 17 C -3.8652 3.0651 -1.2409 0
M  V30 18 C -0.1042 -2.1926 3.4726 0
M  V30 19 C 3.8627 -1.0603 -3.7106 0
M  V30 20 C -4.7974 2.5319 -2.317 0
M  V30 21 C -0.0617 -3.4417 2.6228 0
M  V30 22 O -0.9645 -3.7383 1.8393 0
M  V30 23 C 1.1126 -4.3599 2.8358 0
M  V30 24 H 2.8908 1.6879 -0.727 0
M  V30 25 H 3.4144 0.2903 0.208 0
M  V30 26 H -2.4197 2.8485 1.1133 0
M  V30 27 H -1.3787 3.5035 -0.1446 0
M  V30 28 H 1.781 0.1535 -2.3875 0
M  V30 29 H 2.3074 -1.2389 -1.4507 0
M  V30 30 H -3.2676 1.1169 -0.5255 0
M  V30 31 H -2.2099 1.7788 -1.7654 0
M  V30 32 H 4.175 0.8269 -2.7375 0
M  V30 33 H 4.7032 -0.5705 -1.7975 0
M  V30 34 H -2.6599 -1.0052 3.6943 0
M  V30 35 H -4.4526 3.324 -0.3523 0
M  V30 36 H -3.3937 3.9877 -1.5986 0
M  V30 37 H 0.9047 -1.8932 3.7719 0
M  V30 38 H -0.684 -2.3998 4.3777 0
M  V30 39 H 4.8298 -1.0391 -4.2226 0
M  V30 40 H 3.6323 -2.1013 -3.4625 0
M  V30 41 H 3.1012 -0.6962 -4.4077 0
M  V30 42 H -5.5573 3.2796 -2.5648 0
M  V30 43 H -4.245 2.293 -3.2314 0
M  V30 44 H -5.31 1.6259 -1.9783 0
M  V30 45 H 1.0484 -5.2062 2.1464 0
M  V30 46 H 2.0431 -3.8215 2.6417 0
M  V30 47 H 1.1008 -4.7346 3.8622 0
M  V30 END ATOM
M  V30 BEGIN BOND
M  V30 1 2 1 2
M  V30 2 1 2 3
M  V30 3 1 2 4
M  V30 4 1 3 5
M  V30 5 1 3 6
M  V30 6 1 4 7
M  V30 7 1 4 8
M  V30 8 2 5 9
M  V30 9 1 5 10
M  V30 10 1 6 11
M  V30 11 1 7 12
M  V30 12 1 8 13
M  V30 13 1 10 14
M  V30 14 1 11 15
M  V30 15 2 12 16
M  V30 16 1 13 17
M  V30 17 1 14 18
M  V30 18 1 15 19
M  V30 19 1 17 20
M  V30 20 1 18 21
M  V30 21 2 21 22
M  V30 22 1 21 23
M  V30 23 2 7 10
M  V30 24 1 14 16
M  V30 25 1 6 24
M  V30 26 1 6 25
M  V30 27 1 8 26
M  V30 28 1 8 27
M  V30 29 1 11 28
M  V30 30 1 11 29
M  V30 31 1 13 30
M  V30 32 1 13 31
M  V30 33 1 15 32
M  V30 34 1 15 33
M  V30 35 1 16 34
M  V30 36 1 17 35
M  V30 37 1 17 36
M  V30 38 1 18 37
M  V30 39 1 18 38
M  V30 40 1 19 39
M  V30 41 1 19 40
M  V30 42 1 19 41
M  V30 43 1 20 42
M  V30 44 1 20 43
M  V30 45 1 20 44
M  V30 46 1 23 45
M  V30 47 1 23 46
M  V30 48 1 23 47
M  V30 END BOND
M  V30 END CTAB
M  END
>  <Column 1>
1394

>  <level_0>
1543

>  <index>
1543

>  <Unnamed: 0>
1543

>  <NO.>
1555

>  <Name>
denbufylline

>  <IUPAC_name>
1-3-dibutyl-7-(2-oxopropyl)purine-2-6-dione

>  <SMILES>
CCCCn1c(=O)c2c(ncn2CC(C)=O)n(CCCC)c1=O

>  <CID>
2984

>  <logBB>


>  <BBB+/BBB->
BBB+

>  <Inchi>
InChI=1S/C16H24N4O3/c1-4-6-8-19-14-13(18(11-17-14)10-12(3)21)15(22)20(16(19)23)9-7-5-2/h11H-4-10H2-1-3H3

>  <threshold>
-1

>  <reference>
R1|R13|R19|R6|R24|R27|R27|R27|R30|R30|

>  <group>
B

>  <Class>
1

>  <ABC>
17.13

>  <ABCGG>
15.43

>  <nAcid>
0

>  <nBase>
0

>  <nAromAtom>
9

>  <nAromBond>
10

>  <nAtom>
47

>  <nHeavyAtom>
23

>  <nSpiro>
0

>  <nBridgehead>
0

>  <nHetero>
7

>  <nN>
4

>  <nO>
3

>  <nF>
0

>  <BalabanJ>
2.17

>  <BertzCT>
813.07

>  <nBonds>
48

>  <nBondsO>
24

>  <nBondsS>
35

>  <nBondsD>
3

>  <nBondsT>
0

>  <nBondsA>
10

>  <nBondsM>
13

>  <nBondsKS>
43

>  <nBondsKD>
5

>  <RNCG>
0.14

>  <RPCG>
0.15

>  <FCSP3>
0.63

>  <SZ>
28.67

>  <Sm>
26.67

>  <Sv>
27.68

>  <Sse>
47.3

>  <Sp>
29.66

>  <Si>
53.77

>  <MZ>
0.61

>  <Mm>
0.57

>  <Mv>
0.59

>  <Mse>
1.01

>  <Mp>
0.63

>  <Mi>
1.14

>  <NsCH3>
3

>  <NdCH2>
0

>  <NssCH2>
7

>  <NtCH>
0

>  <NdsCH>
0

>  <NaaCH>
1

>  <NsssCH>
0

>  <NddC>
0

>  <NtsC>
0

>  <NdssC>
1

>  <NaasC>
0

>  <NaaaC>
2

>  <NssssC>
0

>  <NsNH3>
0

>  <NsNH2>
0

>  <NssNH2>
0

>  <NdNH>
0

>  <NssNH>
0

>  <NaaNH>
0

>  <NtN>
0

>  <NsssNH>
0

>  <NdsN>
0

>  <NaaN>
1

>  <NsssN>
0

>  <NddsN>
0

>  <NaasN>
3

>  <NssssN>
0

>  <NsOH>
0

>  <NdO>
3

>  <NssO>
0

>  <NaaO>
0

>  <NsF>
0

>  <NsSiH3>
0

>  <NssSiH2>
0

>  <NsssSiH>
0

>  <NssssSi>
0

>  <NsPH2>
0

>  <NssPH>
0

>  <NsssP>
0

>  <NdsssP>
0

>  <NsssssP>
0

>  <NsSH>
0

>  <NdS>
0

>  <NssS>
0

>  <NaaS>
0

>  <NdssS>
0

>  <NddssS>
0

>  <NsCl>
0

>  <NsBr>
0

>  <NsI>
0

>  <fragCpx>
70.07

>  <fMF>
0.19

>  <nHBAcc>
7

>  <nHBDon>
0

>  <Kier1>
19.33

>  <Kier2>
8.91

>  <Lipinski>
1

>  <GhoseFilter>
1

>  <FilterItLogS>
-3.28

>  <VMcGowan>
250.61

>  <LabuteASA>
134.11

>  <PEOE_VSA1>
4.57

>  <PEOE_VSA2>
18.72

>  <PEOE_VSA3>
9.78

>  <PEOE_VSA4>
0

>  <PEOE_VSA5>
0

>  <PEOE_VSA6>
26.69

>  <PEOE_VSA7>
19.77

>  <PEOE_VSA8>
13.09

>  <PEOE_VSA9>
12.87

>  <PEOE_VSA10>
5.78

>  <PEOE_VSA11>
11.16

>  <PEOE_VSA12>
0

>  <PEOE_VSA13>
5.56

>  <SMR_VSA1>
4.79

>  <SMR_VSA2>
0

>  <SMR_VSA3>
18.69

>  <SMR_VSA4>
0

>  <SMR_VSA5>
66.09

>  <SMR_VSA6>
0

>  <SMR_VSA7>
27.17

>  <SMR_VSA8>
0

>  <SMR_VSA9>
0

>  <SlogP_VSA1>
11.25

>  <SlogP_VSA2>
24.47

>  <SlogP_VSA3>
24.43

>  <SlogP_VSA4>
0

>  <SlogP_VSA5>
46.45

>  <SlogP_VSA6>
15.92

>  <SlogP_VSA7>
0

>  <SlogP_VSA8>
11.16

>  <SlogP_VSA9>
0

>  <SlogP_VSA10>
0

>  <SlogP_VSA11>
0

>  <EState_VSA1>
0

>  <EState_VSA2>
23.58

>  <EState_VSA3>
24.25

>  <EState_VSA4>
25.68

>  <EState_VSA5>
17.82

>  <EState_VSA6>
9.13

>  <EState_VSA7>
13.85

>  <EState_VSA8>
4.98

>  <EState_VSA9>
0

>  <EState_VSA10>
14.38

>  <VSA_EState1>
4.39

>  <VSA_EState2>
41.03

>  <VSA_EState3>
0

>  <VSA_EState4>
0.05

>  <VSA_EState5>
-0.06

>  <VSA_EState6>
0

>  <VSA_EState7>
4.9

>  <VSA_EState8>
6.53

>  <VSA_EState9>
0

>  <apol>
49.53

>  <bpol>
32.95

>  <nRing>
2

>  <nHRing>
2

>  <naRing>
2

>  <naHRing>
2

>  <nARing 2>
0

>  <nAHRing 2>
0

>  <nFRing>
1

>  <nFHRing>
1

>  <nFaRing>
1

>  <nFaHRing>
1

>  <nFARing 2>
0

>  <nFAHRing 2>
0

>  <nRot>
8

>  <SLogP>
1.55

>  <SMR>
88.75

>  <TopoPSA(NO)>
78.89

>  <TopoPSA>
78.89

>  <JGI1>
0.17

>  <JGI2>
0.08

>  <JGI3>
0.06

>  <JGI4>
0.05

>  <JGI5>
0.03

>  <Diameter>
10

>  <Radius>
6

>  <TMWC10>
122.06

>  <TSRW10>
71.2

>  <MW>
320.18

>  <AMW>
6.81

>  <WPath>
1138

>  <WPol>
37

>  <Zagreb1>
114

>  <Zagreb2>
135

>  <mZagreb2>
5.36

>  <yes>


>  <nAR-cont>
0.336376

>  <nHA-cont>
0.967789328

>  <MWHBN>
0.391201886

>  <MWHBN-cont>
0.51072619

>  <TPSA-cont>
0.449298812

>  <pka_cont>
0.97

>  <yes.1>


>  <BBB_SCORE>
3.453852237

>  <MMFF94 Energy>
-127.22

$$$$
Compound 1174
Actelion Java MolfileCreator 2.0

  0  0  0  0  0  0              0 V3000
M  V30 BEGIN CTAB
M  V30 COUNTS 28 28 0 0 0
M  V30 BEGIN ATOM
M  V30 1 O 2.7338 -2.5774 2.3429 0
M  V30 2 C 1.8962 -1.7545 1.9825 0
M  V30 3 C 2.2652 -0.453 1.3246 0
M  V30 4 C 0.4644 -2.0348 2.189 0
M  V30 5 O 3.6177 -0.2102 1.1652 0
M  V30 6 C 1.2717 0.3903 0.9378 0
M  V30 7 C -0.4169 -1.14 1.7411 0
M  V30 8 N -0.0995 0.0511 1.095 0
M  V30 9 C 1.5964 1.7549 0.3663 0
M  V30 10 C -1.2133 0.8951 0.5983 0
M  V30 11 C -1.8925 0.2873 -0.6362 0
M  V30 12 C -0.9969 0.2738 -1.8756 0
M  V30 13 C -1.7294 -0.2914 -3.0829 0
M  V30 14 H 0.192 -2.9555 2.6837 0
M  V30 15 H 3.7482 0.4062 0.4313 0
M  V30 16 H -1.4814 -1.3202 1.8697 0
M  V30 17 H 2.6592 2.0073 0.3959 0
M  V30 18 H 1.097 2.5387 0.9464 0
M  V30 19 H 1.2764 1.8217 -0.6774 0
M  V30 20 H -1.9601 0.9919 1.3978 0
M  V30 21 H -0.9012 1.919 0.3735 0
M  V30 22 H -2.7915 0.8774 -0.8549 0
M  V30 23 H -2.234 -0.732 -0.4202 0
M  V30 24 H -0.6649 1.2926 -2.1052 0
M  V30 25 H -0.102 -0.3305 -1.6924 0
M  V30 26 H -1.0728 -0.2908 -3.9587 0
M  V30 27 H -2.0506 -1.3217 -2.8996 0
M  V30 28 H -2.6141 0.3076 -3.3214 0
M  V30 END ATOM
M  V30 BEGIN BOND
M  V30 1 2 1 2
M  V30 2 1 2 3
M  V30 3 1 2 4
M  V30 4 1 3 5
M  V30 5 2 3 6
M  V30 6 2 4 7
M  V30 7 1 6 8
M  V30 8 1 6 9
M  V30 9 1 8 10
M  V30 10 1 10 11
M  V30 11 1 11 12
M  V30 12 1 12 13
M  V30 13 1 7 8
M  V30 14 1 4 14
M  V30 15 1 5 15
M  V30 16 1 7 16
M  V30 17 1 9 17
M  V30 18 1 9 18
M  V30 19 1 9 19
M  V30 20 1 10 20
M  V30 21 1 10 21
M  V30 22 1 11 22
M  V30 23 1 11 23
M  V30 24 1 12 24
M  V30 25 1 12 25
M  V30 26 1 13 26
M  V30 27 1 13 27
M  V30 28 1 13 28
M  V30 END BOND
M  V30 END CTAB
M  END
>  <Column 1>
1395

>  <level_0>
1544

>  <index>
1544

>  <Unnamed: 0>
1544

>  <NO.>
1556

>  <Name>
cp24

>  <IUPAC_name>
1-butyl-3-hydroxy-2-methylpyridin-4-one

>  <SMILES>
CCCCn1ccc(=O)c(O)c1C

>  <CID>
121733

>  <logBB>


>  <BBB+/BBB->
BBB+

>  <Inchi>
InChI=1S/C10H15NO2/c1-3-4-6-11-7-5-9(12)10(13)8(11)2/h5-7-13H-3-4-6H2-1-2H3

>  <threshold>
-1

>  <reference>
R1|R13|R19|R28|R9|R24|R27|R27|R30|R36|

>  <group>
B

>  <Class>
1

>  <ABC>
9.4

>  <ABCGG>
8.87

>  <nAcid>
0

>  <nBase>
0

>  <nAromAtom>
6

>  <nAromBond>
6

>  <nAtom>
28

>  <nHeavyAtom>
13

>  <nSpiro>
0

>  <nBridgehead>
0

>  <nHetero>
3

>  <nN>
1

>  <nO>
2

>  <nF>
0

>  <BalabanJ>
2.39

>  <BertzCT>
341.27

>  <nBonds>
28

>  <nBondsO>
13

>  <nBondsS>
21

>  <nBondsD>
1

>  <nBondsT>
0

>  <nBondsA>
6

>  <nBondsM>
7

>  <nBondsKS>
25

>  <nBondsKD>
3

>  <RNCG>
0.38

>  <RPCG>
0.22

>  <FCSP3>
0.5

>  <SZ>
16.33

>  <Sm>
15.09

>  <Sv>
16.25

>  <Sse>
27.98

>  <Sp>
17.61

>  <Si>
31.82

>  <MZ>
0.58

>  <Mm>
0.54

>  <Mv>
0.58

>  <Mse>
1

>  <Mp>
0.63

>  <Mi>
1.14

>  <NsCH3>
2

>  <NdCH2>
0

>  <NssCH2>
3

>  <NtCH>
0

>  <NdsCH>
0

>  <NaaCH>
2

>  <NsssCH>
0

>  <NddC>
0

>  <NtsC>
0

>  <NdssC>
0

>  <NaasC>
2

>  <NaaaC>
0

>  <NssssC>
0

>  <NsNH3>
0

>  <NsNH2>
0

>  <NssNH2>
0

>  <NdNH>
0

>  <NssNH>
0

>  <NaaNH>
0

>  <NtN>
0

>  <NsssNH>
0

>  <NdsN>
0

>  <NaaN>
0

>  <NsssN>
0

>  <NddsN>
0

>  <NaasN>
1

>  <NssssN>
0

>  <NsOH>
1

>  <NdO>
1

>  <NssO>
0

>  <NaaO>
0

>  <NsF>
0

>  <NsSiH3>
0

>  <NssSiH2>
0

>  <NsssSiH>
0

>  <NssssSi>
0

>  <NsPH2>
0

>  <NssPH>
0

>  <NsssP>
0

>  <NdsssP>
0

>  <NsssssP>
0

>  <NsSH>
0

>  <NdS>
0

>  <NssS>
0

>  <NaaS>
0

>  <NdssS>
0

>  <NddssS>
0

>  <NsCl>
0

>  <NsBr>
0

>  <NsI>
0

>  <fragCpx>
13.03

>  <fMF>
0.21

>  <nHBAcc>
3

>  <nHBDon>
1

>  <Kier1>
11.08

>  <Kier2>
5.02

>  <Lipinski>
1

>  <GhoseFilter>
1

>  <FilterItLogS>
-2.22

>  <VMcGowan>
149.72

>  <LabuteASA>
77.64

>  <PEOE_VSA1>
9.67

>  <PEOE_VSA2>
4.79

>  <PEOE_VSA3>
0

>  <PEOE_VSA4>
0

>  <PEOE_VSA5>
0

>  <PEOE_VSA6>
13.34

>  <PEOE_VSA7>
13.34

>  <PEOE_VSA8>
18.81

>  <PEOE_VSA9>
5.69

>  <PEOE_VSA10>
0

>  <PEOE_VSA11>
5.75

>  <PEOE_VSA12>
5.43

>  <PEOE_VSA13>
0

>  <SMR_VSA1>
5.11

>  <SMR_VSA2>
0

>  <SMR_VSA3>
4.57

>  <SMR_VSA4>
0

>  <SMR_VSA5>
33.23

>  <SMR_VSA6>
0

>  <SMR_VSA7>
28.18

>  <SMR_VSA8>
0

>  <SMR_VSA9>
5.75

>  <SlogP_VSA1>
5.43

>  <SlogP_VSA2>
9.67

>  <SlogP_VSA3>
6.54

>  <SlogP_VSA4>
6.92

>  <SlogP_VSA5>
25.46

>  <SlogP_VSA6>
17.06

>  <SlogP_VSA7>
0

>  <SlogP_VSA8>
0

>  <SlogP_VSA9>
0

>  <SlogP_VSA10>
0

>  <SlogP_VSA11>
5.75

>  <EState_VSA1>
0

>  <EState_VSA2>
11.18

>  <EState_VSA3>
5.69

>  <EState_VSA4>
19.39

>  <EState_VSA5>
6.07

>  <EState_VSA6>
13.12

>  <EState_VSA7>
4.57

>  <EState_VSA8>
6.92

>  <EState_VSA9>
0

>  <EState_VSA10>
9.9

>  <VSA_EState1>
1.9

>  <VSA_EState2>
11

>  <VSA_EState3>
9.35

>  <VSA_EState4>
0.35

>  <VSA_EState5>
-0.13

>  <VSA_EState6>
1.4

>  <VSA_EState7>
3.89

>  <VSA_EState8>
4.72

>  <VSA_EState9>
0

>  <apol>
29.41

>  <bpol>
17.63

>  <nRing>
1

>  <nHRing>
1

>  <naRing>
1

>  <naHRing>
1

>  <nARing 2>
0

>  <nAHRing 2>
0

>  <nFRing>
0

>  <nFHRing>
0

>  <nFaRing>
0

>  <nFaHRing>
0

>  <nFARing 2>
0

>  <nFAHRing 2>
0

>  <nRot>
3

>  <SLogP>
1.66

>  <SMR>
52.01

>  <TopoPSA(NO)>
42.23

>  <TopoPSA>
42.23

>  <JGI1>
0.19

>  <JGI2>
0.12

>  <JGI3>
0.06

>  <JGI4>
0.06

>  <JGI5>
0.03

>  <Diameter>
8

>  <Radius>
4

>  <TMWC10>
92.99

>  <TSRW10>
43.76

>  <MW>
181.11

>  <AMW>
6.47

>  <WPath>
254

>  <WPol>
18

>  <Zagreb1>
60

>  <Zagreb2>
68

>  <mZagreb2>
3.08

>  <yes>


>  <nAR-cont>
0.336376

>  <nHA-cont>
0.841215992

>  <MWHBN>
0.297227355

>  <MWHBN-cont>
0.848942826

>  <TPSA-cont>
0.705208377

>  <pka_cont>
0.97

>  <yes.1>


>  <BBB_SCORE>
4.346422985

>  <MMFF94 Energy>
47.975

$$$$
Compound 1175
Actelion Java MolfileCreator 2.0

  0  0  0  0  0  0              0 V3000
M  V30 BEGIN CTAB
M  V30 COUNTS 46 48 0 0 0
M  V30 BEGIN ATOM
M  V30 1 O 2.0559 -0.7112 5.3838 0
M  V30 2 C 1.3897 -0.1016 4.3614 0
M  V30 3 C 0.9345 1.1945 4.5688 0
M  V30 4 C 1.1678 -0.7515 3.1541 0
M  V30 5 C 0.2351 1.8703 3.5587 0
M  V30 6 C 0.486 -0.0881 2.1231 0
M  V30 7 C 0.0037 1.2263 2.3187 0
M  V30 8 C -0.2445 3.173 3.7625 0
M  V30 9 C 0.2214 -0.8107 0.8199 0
M  V30 10 C -0.7045 1.914 1.3084 0
M  V30 11 C -0.9535 3.8366 2.7625 0
M  V30 12 C 0.0767 0.1795 -0.3589 0 CFG=2
M  V30 13 C -1.1882 3.2088 1.5432 0
M  V30 14 C -0.9914 1.2441 -0.0177 0
M  V30 15 N -0.1959 -0.4299 -1.691 0
M  V30 16 C 1.0269 -0.9754 -2.3119 0
M  V30 17 C -1.28 -1.4276 -1.6676 0
M  V30 18 C 1.8931 0.1289 -2.9324 0
M  V30 19 C -1.9689 -1.5435 -3.0346 0
M  V30 20 C 3.1063 -0.4555 -3.6417 0
M  V30 21 C -3.1284 -2.5282 -2.9855 0
M  V30 22 H 2.3127 -1.6033 5.0993 0
M  V30 23 H 1.1231 1.6716 5.5271 0
M  V30 24 H 1.5183 -1.7675 3.0006 0
M  V30 25 H -0.0734 3.6796 4.7099 0
M  V30 26 H -0.6887 -1.4068 0.955 0
M  V30 27 H 1.0466 -1.5028 0.6169 0
M  V30 28 H -1.3252 4.8429 2.9369 0
M  V30 29 H 1.0219 0.7351 -0.4254 0
M  V30 30 H -1.7478 3.7338 0.7722 0
M  V30 31 H -1.9944 0.8061 0.0412 0
M  V30 32 H -1.0052 2.0006 -0.813 0
M  V30 33 H 0.7692 -1.667 -3.1221 0
M  V30 34 H 1.61 -1.5636 -1.5935 0
M  V30 35 H -2.0564 -1.1362 -0.9513 0
M  V30 36 H -0.9059 -2.4066 -1.3413 0
M  V30 37 H 1.3006 0.7032 -3.6548 0
M  V30 38 H 2.2455 0.8324 -2.1714 0
M  V30 39 H -2.3486 -0.5616 -3.3425 0
M  V30 40 H -1.267 -1.874 -3.8069 0
M  V30 41 H 3.711 0.3449 -4.0793 0
M  V30 42 H 3.7365 -1.0147 -2.9429 0
M  V30 43 H 2.8028 -1.1305 -4.4482 0
M  V30 44 H -3.6095 -2.596 -3.9662 0
M  V30 45 H -2.7811 -3.5282 -2.707 0
M  V30 46 H -3.8832 -2.2109 -2.2589 0
M  V30 END ATOM
M  V30 BEGIN BOND
M  V30 1 1 1 2
M  V30 2 2 2 3
M  V30 3 1 2 4
M  V30 4 1 3 5
M  V30 5 2 4 6
M  V30 6 1 5 7
M  V30 7 2 5 8
M  V30 8 1 6 9
M  V30 9 2 7 10
M  V30 10 1 8 11
M  V30 11 1 9 12
M  V30 12 1 10 13
M  V30 13 1 10 14
M  V30 14 1 12 15
M  V30 15 1 15 16
M  V30 16 1 15 17
M  V30 17 1 16 18
M  V30 18 1 17 19
M  V30 19 1 18 20
M  V30 20 1 19 21
M  V30 21 1 6 7
M  V30 22 2 11 13
M  V30 23 1 12 14
M  V30 24 1 1 22
M  V30 25 1 3 23
M  V30 26 1 4 24
M  V30 27 1 8 25
M  V30 28 1 9 26
M  V30 29 1 9 27
M  V30 30 1 11 28
M  V30 31 1 12 29
M  V30 32 1 13 30
M  V30 33 1 14 31
M  V30 34 1 14 32
M  V30 35 1 16 33
M  V30 36 1 16 34
M  V30 37 1 17 35
M  V30 38 1 17 36
M  V30 39 1 18 37
M  V30 40 1 18 38
M  V30 41 1 19 39
M  V30 42 1 19 40
M  V30 43 1 20 41
M  V30 44 1 20 42
M  V30 45 1 20 43
M  V30 46 1 21 44
M  V30 47 1 21 45
M  V30 48 1 21 46
M  V30 END BOND
M  V30 BEGIN COLLECTION
M  V30 MDLV30/STERAC1 ATOMS=(1 12)
M  V30 END COLLECTION
M  V30 END CTAB
M  END
>  <Column 1>
1397

>  <level_0>
1546

>  <index>
1546

>  <Unnamed: 0>
1546

>  <NO.>
1558

>  <Name>
alentemol

>  <IUPAC_name>
5-(dipropylamino)-5-6-dihydro-4h-phenalen-2-ol

>  <SMILES>
CCCN(CCC)C1Cc2cccc3cc(O)cc(c23)C1

>  <CID>
60574

>  <logBB>


>  <BBB+/BBB->
BBB+

>  <Inchi>
InChI=1S/C19H25NO/c1-3-8-20(9-4-2)17-10-14-6-5-7-15-12-18(21)13-16(11-17)19(14)15/h5-7-12-13-17-21H-3-4-8-11H2-1-2H3

>  <threshold>
-1

>  <reference>
R1|R19|R6|R27|R27|R30|

>  <group>
B

>  <Class>
1

>  <ABC>
16.21

>  <ABCGG>
12.96

>  <nAcid>
0

>  <nBase>
1

>  <nAromAtom>
10

>  <nAromBond>
11

>  <nAtom>
46

>  <nHeavyAtom>
21

>  <nSpiro>
0

>  <nBridgehead>
0

>  <nHetero>
2

>  <nN>
1

>  <nO>
1

>  <nF>
0

>  <BalabanJ>
1.72

>  <BertzCT>
628.74

>  <nBonds>
48

>  <nBondsO>
23

>  <nBondsS>
37

>  <nBondsD>
0

>  <nBondsT>
0

>  <nBondsA>
11

>  <nBondsM>
11

>  <nBondsKS>
43

>  <nBondsKD>
5

>  <RNCG>
0.38

>  <RPCG>
0.22

>  <FCSP3>
0.47

>  <SZ>
25.67

>  <Sm>
23.6

>  <Sv>
27.25

>  <Sse>
45.09

>  <Sp>
30.12

>  <Si>
51.69

>  <MZ>
0.56

>  <Mm>
0.51

>  <Mv>
0.59

>  <Mse>
0.98

>  <Mp>
0.65

>  <Mi>
1.12

>  <NsCH3>
2

>  <NdCH2>
0

>  <NssCH2>
6

>  <NtCH>
0

>  <NdsCH>
0

>  <NaaCH>
5

>  <NsssCH>
1

>  <NddC>
0

>  <NtsC>
0

>  <NdssC>
0

>  <NaasC>
3

>  <NaaaC>
2

>  <NssssC>
0

>  <NsNH3>
0

>  <NsNH2>
0

>  <NssNH2>
0

>  <NdNH>
0

>  <NssNH>
0

>  <NaaNH>
0

>  <NtN>
0

>  <NsssNH>
0

>  <NdsN>
0

>  <NaaN>
0

>  <NsssN>
1

>  <NddsN>
0

>  <NaasN>
0

>  <NssssN>
0

>  <NsOH>
1

>  <NdO>
0

>  <NssO>
0

>  <NaaO>
0

>  <NsF>
0

>  <NsSiH3>
0

>  <NssSiH2>
0

>  <NsssSiH>
0

>  <NssssSi>
0

>  <NsPH2>
0

>  <NssPH>
0

>  <NsssP>
0

>  <NdsssP>
0

>  <NsssssP>
0

>  <NsSH>
0

>  <NdS>
0

>  <NssS>
0

>  <NaaS>
0

>  <NdssS>
0

>  <NddssS>
0

>  <NsCl>
0

>  <NsBr>
0

>  <NsI>
0

>  <fragCpx>
109.02

>  <fMF>
0.28

>  <nHBAcc>
2

>  <nHBDon>
1

>  <Kier1>
15.88

>  <Kier2>
7.05

>  <Lipinski>
1

>  <GhoseFilter>
1

>  <FilterItLogS>
-5.07

>  <VMcGowan>
240.34

>  <LabuteASA>
126.95

>  <PEOE_VSA1>
5.11

>  <PEOE_VSA2>
4.9

>  <PEOE_VSA3>
0

>  <PEOE_VSA4>
0

>  <PEOE_VSA5>
0

>  <PEOE_VSA6>
32.05

>  <PEOE_VSA7>
72.8

>  <PEOE_VSA8>
6.04

>  <PEOE_VSA9>
0

>  <PEOE_VSA10>
5.75

>  <PEOE_VSA11>
0

>  <PEOE_VSA12>
0

>  <PEOE_VSA13>
0

>  <SMR_VSA1>
5.11

>  <SMR_VSA2>
0

>  <SMR_VSA3>
4.9

>  <SMR_VSA4>
0

>  <SMR_VSA5>
45.57

>  <SMR_VSA6>
13.09

>  <SMR_VSA7>
41.46

>  <SMR_VSA8>
0

>  <SMR_VSA9>
5.75

>  <SlogP_VSA1>
0

>  <SlogP_VSA2>
29.14

>  <SlogP_VSA3>
12.84

>  <SlogP_VSA4>
0

>  <SlogP_VSA5>
37.82

>  <SlogP_VSA6>
30.33

>  <SlogP_VSA7>
0

>  <SlogP_VSA8>
10.77

>  <SlogP_VSA9>
0

>  <SlogP_VSA10>
0

>  <SlogP_VSA11>
5.75

>  <EState_VSA1>
0

>  <EState_VSA2>
0

>  <EState_VSA3>
11.79

>  <EState_VSA4>
12.84

>  <EState_VSA5>
47.83

>  <EState_VSA6>
0

>  <EState_VSA7>
12.13

>  <EState_VSA8>
36.95

>  <EState_VSA9>
0

>  <EState_VSA10>
5.11

>  <VSA_EState1>
0

>  <VSA_EState2>
2.63

>  <VSA_EState3>
12.53

>  <VSA_EState4>
2.75

>  <VSA_EState5>
0.4

>  <VSA_EState6>
10.91

>  <VSA_EState7>
4.6

>  <VSA_EState8>
6.85

>  <VSA_EState9>
0

>  <apol>
50.3

>  <bpol>
26.79

>  <nRing>
3

>  <nHRing>
0

>  <naRing>
2

>  <naHRing>
0

>  <nARing 2>
1

>  <nAHRing 2>
0

>  <nFRing>
1

>  <nFHRing>
0

>  <nFaRing>
0

>  <nFaHRing>
0

>  <nFARing 2>
1

>  <nFAHRing 2>
0

>  <nRot>
5

>  <SLogP>
4.13

>  <SMR>
88.96

>  <TopoPSA(NO)>
23.47

>  <TopoPSA>
23.47

>  <JGI1>
0.17

>  <JGI2>
0.06

>  <JGI3>
0.05

>  <JGI4>
0.04

>  <JGI5>
0.02

>  <Diameter>
9

>  <Radius>
5

>  <TMWC10>
118.56

>  <TSRW10>
55.16

>  <MW>
283.19

>  <AMW>
6.16

>  <WPath>
876

>  <WPol>
35

>  <Zagreb1>
110

>  <Zagreb2>
131

>  <mZagreb2>
4.78

>  <yes>


>  <nAR-cont>
0.816016

>  <nHA-cont>
0.994529749

>  <MWHBN>
0.178271656

>  <MWHBN-cont>
0.985226379

>  <TPSA-cont>
0.836164826

>  <pka_cont>
0.97

>  <yes.1>


>  <BBB_SCORE>
5.44571497

>  <MMFF94 Energy>
46.81

$$$$
Compound 1176
Actelion Java MolfileCreator 2.0

  0  0  0  0  0  0              0 V3000
M  V30 BEGIN CTAB
M  V30 COUNTS 70 73 0 0 0
M  V30 BEGIN ATOM
M  V30 1 O 0.5559 -4.0559 -2.4638 0
M  V30 2 C -0.6716 -3.9854 -2.3958 0
M  V30 3 N -1.3608 -2.7942 -2.1818 0
M  V30 4 C -1.5078 -5.2283 -2.5985 0
M  V30 5 C -2.7426 -2.6698 -2.057 0
M  V30 6 C -0.5653 -1.5783 -2.013 0
M  V30 7 C -2.8235 -5.1864 -1.8187 0
M  V30 8 O -3.3071 -1.597 -1.836 0
M  V30 9 C -3.563 -3.9242 -2.2528 0
M  V30 10 C -0.2205 -1.3441 -0.5379 0
M  V30 11 C -3.6695 -6.4422 -2.1244 0
M  V30 12 C -2.5819 -5.2416 -0.2862 0
M  V30 13 C 0.6315 -0.0928 -0.3045 0
M  V30 14 C -3.3511 -7.4064 -0.9931 0
M  V30 15 C -3.2987 -6.4923 0.2158 0
M  V30 16 C -0.1438 1.2128 -0.5414 0
M  V30 17 N 0.7107 2.3914 -0.3003 0
M  V30 18 C 0.8144 2.7087 1.1507 0 CFG=2
M  V30 19 C 0.29 3.543 -1.1178 0
M  V30 20 C -0.3345 3.523 1.7698 0
M  V30 21 C 2.1293 3.4472 1.4628 0
M  V30 22 C 0.723 3.4316 -2.5883 0
M  V30 23 O -0.2349 3.5779 3.1981 0
M  V30 24 C 2.1719 3.9118 2.8994 0
M  V30 25 C 2.2313 3.3099 -2.7573 0
M  V30 26 C 0.998 3.9501 3.6654 0
M  V30 27 C 3.3857 4.3337 3.4776 0
M  V30 28 C 1.0352 4.3529 4.9992 0
M  V30 29 O 4.4804 4.301 2.6525 0
M  V30 30 C 3.409 4.7504 4.813 0
M  V30 31 C 2.2378 4.754 5.5728 0
M  V30 32 C 5.7302 4.6921 3.2049 0
M  V30 33 H -0.9089 -6.0964 -2.2974 0
M  V30 34 H -1.6943 -5.3183 -3.6762 0
M  V30 35 H 0.3567 -1.6562 -2.6005 0
M  V30 36 H -1.1291 -0.7308 -2.416 0
M  V30 37 H -3.8335 -3.9753 -3.3149 0
M  V30 38 H -4.4932 -3.8133 -1.6818 0
M  V30 39 H 0.3325 -2.2138 -0.1609 0
M  V30 40 H -1.1376 -1.2829 0.0609 0
M  V30 41 H -4.741 -6.2048 -2.1018 0
M  V30 42 H -3.4525 -6.8819 -3.1033 0
M  V30 43 H -1.5131 -5.3243 -0.0552 0
M  V30 44 H -2.955 -4.3557 0.2392 0
M  V30 45 H 0.999 -0.1333 0.7268 0
M  V30 46 H 1.5152 -0.1244 -0.9541 0
M  V30 47 H -2.379 -7.8855 -1.1561 0
M  V30 48 H -4.108 -8.189 -0.8896 0
M  V30 49 H -2.7837 -6.9518 1.0644 0
M  V30 50 H -4.3152 -6.2344 0.5369 0
M  V30 51 H -0.4895 1.206 -1.579 0
M  V30 52 H -1.049 1.2434 0.077 0
M  V30 53 H 0.8751 1.7684 1.7152 0
M  V30 54 H 0.7336 4.4701 -0.7369 0
M  V30 55 H -0.7979 3.6796 -1.066 0
M  V30 56 H -1.298 3.0534 1.5456 0
M  V30 57 H -0.3775 4.5493 1.384 0
M  V30 58 H 2.9674 2.7681 1.2616 0
M  V30 59 H 2.2537 4.3307 0.8259 0
M  V30 60 H 0.2343 2.5854 -3.0824 0
M  V30 61 H 0.3844 4.332 -3.1154 0
M  V30 62 H 2.4918 3.3134 -3.8204 0
M  V30 63 H 2.7486 4.1478 -2.279 0
M  V30 64 H 2.6085 2.3783 -2.3243 0
M  V30 65 H 0.1219 4.3603 5.5882 0
M  V30 66 H 4.324 5.0781 5.2949 0
M  V30 67 H 2.2631 5.0738 6.6112 0
M  V30 68 H 5.7118 5.7407 3.5197 0
M  V30 69 H 6.487 4.5943 2.4206 0
M  V30 70 H 6.0208 4.0344 4.0307 0
M  V30 END ATOM
M  V30 BEGIN BOND
M  V30 1 2 1 2
M  V30 2 1 2 3
M  V30 3 1 2 4
M  V30 4 1 3 5
M  V30 5 1 3 6
M  V30 6 1 4 7
M  V30 7 2 5 8
M  V30 8 1 5 9
M  V30 9 1 6 10
M  V30 10 1 7 11
M  V30 11 1 7 12
M  V30 12 1 10 13
M  V30 13 1 11 14
M  V30 14 1 12 15
M  V30 15 1 13 16
M  V30 16 1 16 17
M  V30 17 1 17 18
M  V30 18 1 17 19
M  V30 19 1 18 20
M  V30 20 1 18 21
M  V30 21 1 19 22
M  V30 22 1 20 23
M  V30 23 1 21 24
M  V30 24 1 22 25
M  V30 25 1 23 26
M  V30 26 1 24 27
M  V30 27 1 26 28
M  V30 28 1 27 29
M  V30 29 2 27 30
M  V30 30 2 28 31
M  V30 31 1 29 32
M  V30 32 1 7 9
M  V30 33 1 14 15
M  V30 34 2 24 26
M  V30 35 1 30 31
M  V30 36 1 4 33
M  V30 37 1 4 34
M  V30 38 1 6 35
M  V30 39 1 6 36
M  V30 40 1 9 37
M  V30 41 1 9 38
M  V30 42 1 10 39
M  V30 43 1 10 40
M  V30 44 1 11 41
M  V30 45 1 11 42
M  V30 46 1 12 43
M  V30 47 1 12 44
M  V30 48 1 13 45
M  V30 49 1 13 46
M  V30 50 1 14 47
M  V30 51 1 14 48
M  V30 52 1 15 49
M  V30 53 1 15 50
M  V30 54 1 16 51
M  V30 55 1 16 52
M  V30 56 1 18 53
M  V30 57 1 19 54
M  V30 58 1 19 55
M  V30 59 1 20 56
M  V30 60 1 20 57
M  V30 61 1 21 58
M  V30 62 1 21 59
M  V30 63 1 22 60
M  V30 64 1 22 61
M  V30 65 1 25 62
M  V30 66 1 25 63
M  V30 67 1 25 64
M  V30 68 1 28 65
M  V30 69 1 30 66
M  V30 70 1 31 67
M  V30 71 1 32 68
M  V30 72 1 32 69
M  V30 73 1 32 70
M  V30 END BOND
M  V30 BEGIN COLLECTION
M  V30 MDLV30/STERAC1 ATOMS=(1 18)
M  V30 END COLLECTION
M  V30 END CTAB
M  END
>  <Column 1>
1398

>  <level_0>
1547

>  <index>
1547

>  <Unnamed: 0>
1547

>  <NO.>
1559

>  <Name>
alnespirone

>  <IUPAC_name>
hydron;8-[4-[(5-methoxy-3-4-dihydro-2h-chromen-3-yl)-propylamino]butyl]-8-azaspiro[4.5]decane-7-9-dione;chloride

>  <SMILES>
CCCN(CCCCN1C(=O)CC2(CCCC2)CC1=O)C1COc2cccc(OC)c2C1

>  <CID>
121852

>  <logBB>


>  <BBB+/BBB->
BBB+

>  <Inchi>
InChI=1S/C26H38N2O4/c1-3-13-27(20-16-21-22(31-2)9-8-10-23(21)32-19-20)14-6-7-15-28-24(29)17-26(18-25(28)30)11-4-5-12-26/h8-10-20H-3-7-11-19H2-1-2H3

>  <threshold>
-1

>  <reference>
R1|R27|R30|

>  <group>
B

>  <Class>
1

>  <ABC>
24.77

>  <ABCGG>
19.02

>  <nAcid>
0

>  <nBase>
1

>  <nAromAtom>
6

>  <nAromBond>
6

>  <nAtom>
70

>  <nHeavyAtom>
32

>  <nSpiro>
1

>  <nBridgehead>
0

>  <nHetero>
6

>  <nN>
2

>  <nO>
4

>  <nF>
0

>  <BalabanJ>
1.24

>  <BertzCT>
783.79

>  <nBonds>
73

>  <nBondsO>
35

>  <nBondsS>
65

>  <nBondsD>
2

>  <nBondsT>
0

>  <nBondsA>
6

>  <nBondsM>
8

>  <nBondsKS>
68

>  <nBondsKD>
5

>  <RNCG>
0.19

>  <RPCG>
0.09

>  <FCSP3>
0.69

>  <SZ>
40

>  <Sm>
36.85

>  <Sv>
40.67

>  <Sse>
69.52

>  <Sp>
44.41

>  <Si>
79.31

>  <MZ>
0.57

>  <Mm>
0.53

>  <Mv>
0.58

>  <Mse>
0.99

>  <Mp>
0.63

>  <Mi>
1.13

>  <NsCH3>
2

>  <NdCH2>
0

>  <NssCH2>
14

>  <NtCH>
0

>  <NdsCH>
0

>  <NaaCH>
3

>  <NsssCH>
1

>  <NddC>
0

>  <NtsC>
0

>  <NdssC>
2

>  <NaasC>
3

>  <NaaaC>
0

>  <NssssC>
1

>  <NsNH3>
0

>  <NsNH2>
0

>  <NssNH2>
0

>  <NdNH>
0

>  <NssNH>
0

>  <NaaNH>
0

>  <NtN>
0

>  <NsssNH>
0

>  <NdsN>
0

>  <NaaN>
0

>  <NsssN>
2

>  <NddsN>
0

>  <NaasN>
0

>  <NssssN>
0

>  <NsOH>
0

>  <NdO>
2

>  <NssO>
2

>  <NaaO>
0

>  <NsF>
0

>  <NsSiH3>
0

>  <NssSiH2>
0

>  <NsssSiH>
0

>  <NssssSi>
0

>  <NsPH2>
0

>  <NssPH>
0

>  <NsssP>
0

>  <NdsssP>
0

>  <NsssssP>
0

>  <NsSH>
0

>  <NdS>
0

>  <NssS>
0

>  <NaaS>
0

>  <NdssS>
0

>  <NddssS>
0

>  <NsCl>
0

>  <NsBr>
0

>  <NsI>
0

>  <fragCpx>
233.06

>  <fMF>
0.36

>  <nHBAcc>
5

>  <nHBDon>
0

>  <Kier1>
25.1

>  <Kier2>
11.62

>  <Lipinski>
1

>  <GhoseFilter>
1

>  <FilterItLogS>
-6.05

>  <VMcGowan>
355.7

>  <LabuteASA>
191.78

>  <PEOE_VSA1>
9.47

>  <PEOE_VSA2>
19.39

>  <PEOE_VSA3>
0

>  <PEOE_VSA4>
0

>  <PEOE_VSA5>
0

>  <PEOE_VSA6>
25.83

>  <PEOE_VSA7>
69.16

>  <PEOE_VSA8>
30.99

>  <PEOE_VSA9>
7.11

>  <PEOE_VSA10>
18.11

>  <PEOE_VSA11>
0

>  <PEOE_VSA12>
11.81

>  <PEOE_VSA13>
0

>  <SMR_VSA1>
19.06

>  <SMR_VSA2>
0

>  <SMR_VSA3>
9.8

>  <SMR_VSA4>
5.41

>  <SMR_VSA5>
77.17

>  <SMR_VSA6>
33.35

>  <SMR_VSA7>
23.76

>  <SMR_VSA8>
0

>  <SMR_VSA9>
11.5

>  <SlogP_VSA1>
9.47

>  <SlogP_VSA2>
61.01

>  <SlogP_VSA3>
16.01

>  <SlogP_VSA4>
5.41

>  <SlogP_VSA5>
70.27

>  <SlogP_VSA6>
18.2

>  <SlogP_VSA7>
0

>  <SlogP_VSA8>
0

>  <SlogP_VSA9>
0

>  <SlogP_VSA10>
0

>  <SlogP_VSA11>
11.5

>  <EState_VSA1>
0

>  <EState_VSA2>
17.23

>  <EState_VSA3>
32.04

>  <EState_VSA4>
81.52

>  <EState_VSA5>
0

>  <EState_VSA6>
12.01

>  <EState_VSA7>
18.2

>  <EState_VSA8>
11.82

>  <EState_VSA9>
9.47

>  <EState_VSA10>
9.59

>  <VSA_EState1>
11.62

>  <VSA_EState2>
29.42

>  <VSA_EState3>
0

>  <VSA_EState4>
1.14

>  <VSA_EState5>
1.93

>  <VSA_EState6>
6.3

>  <VSA_EState7>
9.39

>  <VSA_EState8>
5.42

>  <VSA_EState9>
1.71

>  <apol>
74.17

>  <bpol>
46.75

>  <nRing>
4

>  <nHRing>
2

>  <naRing>
1

>  <naHRing>
0

>  <nARing 2>
3

>  <nAHRing 2>
2

>  <nFRing>
1

>  <nFHRing>
1

>  <nFaRing>
0

>  <nFaHRing>
0

>  <nFARing 2>
1

>  <nFAHRing 2>
1

>  <nRot>
9

>  <SLogP>
4.2

>  <SMR>
123.93

>  <TopoPSA(NO)>
59.08

>  <TopoPSA>
59.08

>  <JGI1>
0.19

>  <JGI2>
0.08

>  <JGI3>
0.05

>  <JGI4>
0.04

>  <JGI5>
0.03

>  <Diameter>
16

>  <Radius>
8

>  <TMWC10>
144.91

>  <TSRW10>
81.74

>  <MW>
442.28

>  <AMW>
6.32

>  <WPath>
3328

>  <WPol>
52

>  <Zagreb1>
168

>  <Zagreb2>
199

>  <mZagreb2>
7.22

>  <yes>


>  <nAR-cont>
0.691115

>  <nHA-cont>
0.658856097

>  <MWHBN>
0.237750453

>  <MWHBN-cont>
0.977927188

>  <TPSA-cont>
0.587584914

>  <pka_cont>
0.97

>  <yes.1>


>  <BBB_SCORE>
4.477031705

>  <MMFF94 Energy>
33.603

$$$$
Compound 1177
Actelion Java MolfileCreator 2.0

  0  0  0  0  0  0              0 V3000
M  V30 BEGIN CTAB
M  V30 COUNTS 36 38 0 0 0
M  V30 BEGIN ATOM
M  V30 1 N -1.3448 3.7214 2.1365 0
M  V30 2 C -1.8463 2.4741 2.1879 0
M  V30 3 C -0.4859 3.969 1.1311 0
M  V30 4 C -1.526 1.4735 1.2801 0
M  V30 5 C -0.1089 3.029 0.1785 0
M  V30 6 C -0.6301 1.7316 0.2308 0
M  V30 7 N -0.294 0.7281 -0.6947 0
M  V30 8 N -0.849 -0.5562 -0.6685 0
M  V30 9 C 0.5856 0.9533 -1.8506 0
M  V30 10 C -0.4179 -1.623 0.1027 0
M  V30 11 C -1.937 -0.9421 -1.4136 0
M  V30 12 C 2.0202 0.4678 -1.6217 0
M  V30 13 C -1.2406 -2.7117 -0.2008 0
M  V30 14 C 0.6185 -1.7156 1.0466 0
M  V30 15 C -2.1917 -2.2694 -1.1591 0
M  V30 16 C 2.7985 1.2758 -0.5962 0
M  V30 17 C -1.01 -3.9419 0.446 0
M  V30 18 C 0.8267 -2.9452 1.6768 0
M  V30 19 C 0.0268 -4.0451 1.3801 0
M  V30 20 H -2.5378 2.2836 3.0037 0
M  V30 21 H -0.0872 4.9792 1.1028 0
M  V30 22 H -1.9869 0.5003 1.4123 0
M  V30 23 H 0.5944 3.3441 -0.5803 0
M  V30 24 H 0.1899 0.4069 -2.7183 0
M  V30 25 H 0.5831 1.9985 -2.1775 0
M  V30 26 H -2.4301 -0.2329 -2.0629 0
M  V30 27 H 2.0271 -0.5878 -1.3314 0
M  V30 28 H 2.556 0.5268 -2.5771 0
M  V30 29 H 1.2369 -0.8559 1.2843 0
M  V30 30 H -2.9838 -2.8574 -1.6038 0
M  V30 31 H 3.8254 0.9025 -0.5274 0
M  V30 32 H 2.8458 2.3312 -0.8814 0
M  V30 33 H 2.353 1.2017 0.3994 0
M  V30 34 H -1.6338 -4.8037 0.2274 0
M  V30 35 H 1.6238 -3.0409 2.4106 0
M  V30 36 H 0.2044 -4.9931 1.8818 0
M  V30 END ATOM
M  V30 BEGIN BOND
M  V30 1 2 1 2
M  V30 2 1 1 3
M  V30 3 1 2 4
M  V30 4 2 3 5
M  V30 5 2 4 6
M  V30 6 1 6 7
M  V30 7 1 7 8
M  V30 8 1 7 9
M  V30 9 1 8 10
M  V30 10 1 8 11
M  V30 11 1 9 12
M  V30 12 2 10 13
M  V30 13 1 10 14
M  V30 14 2 11 15
M  V30 15 1 12 16
M  V30 16 1 13 17
M  V30 17 2 14 18
M  V30 18 2 17 19
M  V30 19 1 5 6
M  V30 20 1 13 15
M  V30 21 1 18 19
M  V30 22 1 2 20
M  V30 23 1 3 21
M  V30 24 1 4 22
M  V30 25 1 5 23
M  V30 26 1 9 24
M  V30 27 1 9 25
M  V30 28 1 11 26
M  V30 29 1 12 27
M  V30 30 1 12 28
M  V30 31 1 14 29
M  V30 32 1 15 30
M  V30 33 1 16 31
M  V30 34 1 16 32
M  V30 35 1 16 33
M  V30 36 1 17 34
M  V30 37 1 18 35
M  V30 38 1 19 36
M  V30 END BOND
M  V30 END CTAB
M  END
>  <Column 1>
1399

>  <level_0>
1548

>  <index>
1548

>  <Unnamed: 0>
1548

>  <NO.>
1560

>  <Name>
besipirdine

>  <IUPAC_name>
hydron;n-propyl-n-pyridin-4-ylindol-1-amine;chloride

>  <SMILES>
CCCN(c1ccncc1)n1ccc2ccccc21

>  <CID>
60691

>  <logBB>


>  <BBB+/BBB->
BBB+

>  <Inchi>
InChI=1S/C16H17N3/c1-2-12-18(15-7-10-17-11-8-15)19-13-9-14-5-3-4-6-16(14)19/h3-11-13H-2-12H2-1H3

>  <threshold>
-1

>  <reference>
R1|R13|R19|R6|R24|R27|R27|R27|R30|R30|

>  <group>
B

>  <Class>
1

>  <ABC>
14.69

>  <ABCGG>
12.62

>  <nAcid>
0

>  <nBase>
0

>  <nAromAtom>
15

>  <nAromBond>
16

>  <nAtom>
36

>  <nHeavyAtom>
19

>  <nSpiro>
0

>  <nBridgehead>
0

>  <nHetero>
3

>  <nN>
3

>  <nO>
0

>  <nF>
0

>  <BalabanJ>
1.68

>  <BertzCT>
657.83

>  <nBonds>
38

>  <nBondsO>
21

>  <nBondsS>
22

>  <nBondsD>
0

>  <nBondsT>
0

>  <nBondsA>
16

>  <nBondsM>
16

>  <nBondsKS>
31

>  <nBondsKD>
7

>  <RNCG>
0.24

>  <RPCG>
0.07

>  <FCSP3>
0.19

>  <SZ>
22.33

>  <Sm>
20.93

>  <Sv>
22.88

>  <Sse>
35.54

>  <Sp>
24.76

>  <Si>
40.4

>  <MZ>
0.62

>  <Mm>
0.58

>  <Mv>
0.64

>  <Mse>
0.99

>  <Mp>
0.69

>  <Mi>
1.12

>  <NsCH3>
1

>  <NdCH2>
0

>  <NssCH2>
2

>  <NtCH>
0

>  <NdsCH>
0

>  <NaaCH>
10

>  <NsssCH>
0

>  <NddC>
0

>  <NtsC>
0

>  <NdssC>
0

>  <NaasC>
1

>  <NaaaC>
2

>  <NssssC>
0

>  <NsNH3>
0

>  <NsNH2>
0

>  <NssNH2>
0

>  <NdNH>
0

>  <NssNH>
0

>  <NaaNH>
0

>  <NtN>
0

>  <NsssNH>
0

>  <NdsN>
0

>  <NaaN>
1

>  <NsssN>
1

>  <NddsN>
0

>  <NaasN>
1

>  <NssssN>
0

>  <NsOH>
0

>  <NdO>
0

>  <NssO>
0

>  <NaaO>
0

>  <NsF>
0

>  <NsSiH3>
0

>  <NssSiH2>
0

>  <NsssSiH>
0

>  <NssssSi>
0

>  <NsPH2>
0

>  <NssPH>
0

>  <NsssP>
0

>  <NdsssP>
0

>  <NsssssP>
0

>  <NsSH>
0

>  <NdS>
0

>  <NssS>
0

>  <NaaS>
0

>  <NdssS>
0

>  <NddssS>
0

>  <NsCl>
0

>  <NsBr>
0

>  <NsI>
0

>  <fragCpx>
99.03

>  <fMF>
0.44

>  <nHBAcc>
3

>  <nHBDon>
0

>  <Kier1>
13.96

>  <Kier2>
6.64

>  <Lipinski>
1

>  <GhoseFilter>
1

>  <FilterItLogS>
-3.63

>  <VMcGowan>
203.56

>  <LabuteASA>
112.63

>  <PEOE_VSA1>
0

>  <PEOE_VSA2>
14.67

>  <PEOE_VSA3>
0

>  <PEOE_VSA4>
0

>  <PEOE_VSA5>
0

>  <PEOE_VSA6>
25.12

>  <PEOE_VSA7>
30.69

>  <PEOE_VSA8>
30.52

>  <PEOE_VSA9>
11.2

>  <PEOE_VSA10>
0

>  <PEOE_VSA11>
0

>  <PEOE_VSA12>
0

>  <PEOE_VSA13>
0

>  <SMR_VSA1>
0

>  <SMR_VSA2>
0

>  <SMR_VSA3>
9.66

>  <SMR_VSA4>
0

>  <SMR_VSA5>
13.34

>  <SMR_VSA6>
11.55

>  <SMR_VSA7>
61.06

>  <SMR_VSA8>
0

>  <SMR_VSA9>
0

>  <SlogP_VSA1>
5.01

>  <SlogP_VSA2>
16.2

>  <SlogP_VSA3>
0

>  <SlogP_VSA4>
0

>  <SlogP_VSA5>
13.34

>  <SlogP_VSA6>
61.06

>  <SlogP_VSA7>
0

>  <SlogP_VSA8>
10.9

>  <SlogP_VSA9>
0

>  <SlogP_VSA10>
5.69

>  <SlogP_VSA11>
0

>  <EState_VSA1>
0

>  <EState_VSA2>
0

>  <EState_VSA3>
0

>  <EState_VSA4>
12.97

>  <EState_VSA5>
16.59

>  <EState_VSA6>
0

>  <EState_VSA7>
24.53

>  <EState_VSA8>
58.12

>  <EState_VSA9>
0

>  <EState_VSA10>
0

>  <VSA_EState1>
2.22

>  <VSA_EState2>
4.1

>  <VSA_EState3>
3.54

>  <VSA_EState4>
2.39

>  <VSA_EState5>
0

>  <VSA_EState6>
14.69

>  <VSA_EState7>
6.89

>  <VSA_EState8>
3.17

>  <VSA_EState9>
0

>  <apol>
41.36

>  <bpol>
20.47

>  <nRing>
3

>  <nHRing>
2

>  <naRing>
3

>  <naHRing>
2

>  <nARing 2>
0

>  <nAHRing 2>
0

>  <nFRing>
1

>  <nFHRing>
1

>  <nFaRing>
1

>  <nFaHRing>
1

>  <nFARing 2>
0

>  <nFAHRing 2>
0

>  <nRot>
4

>  <SLogP>
3.72

>  <SMR>
79.21

>  <TopoPSA(NO)>
21.06

>  <TopoPSA>
21.06

>  <JGI1>
0.1

>  <JGI2>
0.07

>  <JGI3>
0.04

>  <JGI4>
0.03

>  <JGI5>
0.02

>  <Diameter>
9

>  <Radius>
5

>  <TMWC10>
112.97

>  <TSRW10>
66.28

>  <MW>
251.14

>  <AMW>
6.98

>  <WPath>
671

>  <WPol>
28

>  <Zagreb1>
98

>  <Zagreb2>
116

>  <mZagreb2>
4.36

>  <yes>


>  <nAR-cont>
0.336376

>  <nHA-cont>
0.998649058

>  <MWHBN>
0.189305534

>  <MWHBN-cont>
0.99520008

>  <TPSA-cont>
0.852988123

>  <pka_cont>
0.97

>  <yes.1>


>  <BBB_SCORE>
5.018801423

>  <MMFF94 Energy>
16.09

$$$$
Compound 1178
Actelion Java MolfileCreator 2.0

  0  0  0  0  0  0              0 V3000
M  V30 BEGIN CTAB
M  V30 COUNTS 60 62 0 0 0
M  V30 BEGIN ATOM
M  V30 1 S 0.9578 2.9556 -1.9164 0
M  V30 2 O 1.9443 3.4454 -0.9848 0
M  V30 3 O -0.4144 3.3966 -1.8985 0
M  V30 4 N 1.5473 3.0934 -3.4688 0
M  V30 5 N 0.9742 1.2825 -1.7722 0
M  V30 6 C 2.9888 3.2199 -3.7319 0
M  V30 7 C 0.6996 2.6578 -4.5922 0
M  V30 8 C 0.0238 0.695 -0.783 0
M  V30 9 C 3.7326 1.9095 -3.5557 0
M  V30 10 C 0.1603 3.8723 -5.3275 0
M  V30 11 C 0.3562 1.1128 0.662 0
M  V30 12 C 0.1221 -0.8241 -0.9099 0
M  V30 13 N -0.4918 0.4493 1.6702 0
M  V30 14 C -0.7446 -1.5214 0.1426 0
M  V30 15 C -0.4296 -1.0323 1.576 0
M  V30 16 C -0.1601 0.9627 3.0144 0
M  V30 17 C -0.5424 -3.0428 0.0373 0
M  V30 18 C -1.44 -1.711 2.5354 0
M  V30 19 C -1.4225 1.4946 3.6998 0
M  V30 20 C -1.1774 -3.8301 1.1543 0
M  V30 21 C -1.5714 -3.2034 2.3475 0
M  V30 22 C -1.1122 2.0355 5.0876 0
M  V30 23 C -1.3333 -5.2185 1.0357 0
M  V30 24 C -2.153 -3.968 3.3722 0
M  V30 25 O -0.9134 -5.8302 -0.1132 0
M  V30 26 C -1.899 -5.9757 2.06 0
M  V30 27 C -2.3137 -5.3456 3.2298 0
M  V30 28 H 1.9325 0.9921 -1.5879 0
M  V30 29 H 3.4187 3.9912 -3.0833 0
M  V30 30 H 3.1354 3.5823 -4.7564 0
M  V30 31 H -0.1363 2.0434 -4.2407 0
M  V30 32 H 1.2739 2.027 -5.2796 0
M  V30 33 H -0.998 1.0 -1.0411 0
M  V30 34 H 3.2635 1.0987 -4.1215 0
M  V30 35 H 4.7652 2.015 -3.9038 0
M  V30 36 H 3.7734 1.6132 -2.5039 0
M  V30 37 H 0.9732 4.4862 -5.7288 0
M  V30 38 H -0.4747 3.5603 -6.1623 0
M  V30 39 H -0.4368 4.5036 -4.6612 0
M  V30 40 H 1.4171 0.9132 0.8684 0
M  V30 41 H 0.2116 2.1965 0.7493 0
M  V30 42 H -0.1869 -1.1343 -1.9164 0
M  V30 43 H 1.1689 -1.1389 -0.7987 0
M  V30 44 H -1.7983 -1.2942 -0.0793 0
M  V30 45 H 0.5861 -1.3632 1.839 0
M  V30 46 H 0.5616 1.7892 2.9579 0
M  V30 47 H 0.3294 0.2015 3.6343 0
M  V30 48 H -0.951 -3.3756 -0.9252 0
M  V30 49 H 0.5304 -3.2759 0.0385 0
M  V30 50 H -2.4374 -1.2744 2.3914 0
M  V30 51 H -1.142 -1.5244 3.574 0
M  V30 52 H -1.8638 2.2968 3.0955 0
M  V30 53 H -2.1791 0.7083 3.791 0
M  V30 54 H -2.0242 2.4154 5.5588 0
M  V30 55 H -0.6989 1.2514 5.7301 0
M  V30 56 H -0.3894 2.8561 5.037 0
M  V30 57 H -2.4849 -3.4877 4.2908 0
M  V30 58 H -1.109 -6.7789 -0.048 0
M  V30 59 H -2.0238 -7.0495 1.9648 0
M  V30 60 H -2.7617 -5.9251 4.0327 0
M  V30 END ATOM
M  V30 BEGIN BOND
M  V30 1 2 1 2
M  V30 2 2 1 3
M  V30 3 1 1 4
M  V30 4 1 1 5
M  V30 5 1 4 6
M  V30 6 1 4 7
M  V30 7 1 5 8
M  V30 8 1 6 9
M  V30 9 1 7 10
M  V30 10 1 8 11
M  V30 11 1 8 12
M  V30 12 1 11 13
M  V30 13 1 12 14
M  V30 14 1 13 15
M  V30 15 1 13 16
M  V30 16 1 14 17
M  V30 17 1 15 18
M  V30 18 1 16 19
M  V30 19 1 17 20
M  V30 20 1 18 21
M  V30 21 1 19 22
M  V30 22 1 20 23
M  V30 23 1 21 24
M  V30 24 1 23 25
M  V30 25 2 23 26
M  V30 26 2 24 27
M  V30 27 1 14 15
M  V30 28 2 20 21
M  V30 29 1 26 27
M  V30 30 1 5 28
M  V30 31 1 6 29
M  V30 32 1 6 30
M  V30 33 1 7 31
M  V30 34 1 7 32
M  V30 35 1 8 33
M  V30 36 1 9 34
M  V30 37 1 9 35
M  V30 38 1 9 36
M  V30 39 1 10 37
M  V30 40 1 10 38
M  V30 41 1 10 39
M  V30 42 1 11 40
M  V30 43 1 11 41
M  V30 44 1 12 42
M  V30 45 1 12 43
M  V30 46 1 14 44
M  V30 47 1 15 45
M  V30 48 1 16 46
M  V30 49 1 16 47
M  V30 50 1 17 48
M  V30 51 1 17 49
M  V30 52 1 18 50
M  V30 53 1 18 51
M  V30 54 1 19 52
M  V30 55 1 19 53
M  V30 56 1 22 54
M  V30 57 1 22 55
M  V30 58 1 22 56
M  V30 59 1 24 57
M  V30 60 1 25 58
M  V30 61 1 26 59
M  V30 62 1 27 60
M  V30 END BOND
M  V30 END CTAB
M  END
>  <Column 1>
1400

>  <level_0>
1549

>  <index>
1549

>  <Unnamed: 0>
1549

>  <NO.>
1561

>  <Name>
quinagolidum [inn-latin]

>  <IUPAC_name>
3-(diethylsulfamoylamino)-6-hydroxy-1-propyl-3-4-4a-5-10-10a-hexahydro-2h-benzo[g]quinoline

>  <SMILES>
CCCN1CC(NS(=O)(=O)N(CC)CC)CC2Cc3c(O)cccc3CC21

>  <CID>
55645

>  <logBB>


>  <BBB+/BBB->
BBB+

>  <Inchi>
InChI=1S/C20H33N3O3S/c1-4-10-22-14-17(21-27(25-26)23(5-2)6-3)11-16-12-18-15(13-19(16)22)8-7-9-20(18)24/h7-9-16-17-19-21-24H-4-6-10-14H2-1-3H3

>  <threshold>
-1

>  <reference>
R1|R19|R14|R23|R27|R27|R30|

>  <group>
B

>  <Class>
1

>  <ABC>
20.71

>  <ABCGG>
16.74

>  <nAcid>
0

>  <nBase>
1

>  <nAromAtom>
6

>  <nAromBond>
6

>  <nAtom>
60

>  <nHeavyAtom>
27

>  <nSpiro>
0

>  <nBridgehead>
0

>  <nHetero>
7

>  <nN>
3

>  <nO>
3

>  <nF>
0

>  <BalabanJ>
1.71

>  <BertzCT>
748.84

>  <nBonds>
62

>  <nBondsO>
29

>  <nBondsS>
54

>  <nBondsD>
2

>  <nBondsT>
0

>  <nBondsA>
6

>  <nBondsM>
8

>  <nBondsKS>
57

>  <nBondsKD>
5

>  <RNCG>
0.25

>  <RPCG>
0.14

>  <FCSP3>
0.7

>  <SZ>
35.67

>  <Sm>
32.93

>  <Sv>
34.55

>  <Sse>
59.71

>  <Sp>
38.33

>  <Si>
68.27

>  <MZ>
0.59

>  <Mm>
0.55

>  <Mv>
0.58

>  <Mse>
1

>  <Mp>
0.64

>  <Mi>
1.14

>  <NsCH3>
3

>  <NdCH2>
0

>  <NssCH2>
8

>  <NtCH>
0

>  <NdsCH>
0

>  <NaaCH>
3

>  <NsssCH>
3

>  <NddC>
0

>  <NtsC>
0

>  <NdssC>
0

>  <NaasC>
3

>  <NaaaC>
0

>  <NssssC>
0

>  <NsNH3>
0

>  <NsNH2>
0

>  <NssNH2>
0

>  <NdNH>
0

>  <NssNH>
1

>  <NaaNH>
0

>  <NtN>
0

>  <NsssNH>
0

>  <NdsN>
0

>  <NaaN>
0

>  <NsssN>
2

>  <NddsN>
0

>  <NaasN>
0

>  <NssssN>
0

>  <NsOH>
1

>  <NdO>
2

>  <NssO>
0

>  <NaaO>
0

>  <NsF>
0

>  <NsSiH3>
0

>  <NssSiH2>
0

>  <NsssSiH>
0

>  <NssssSi>
0

>  <NsPH2>
0

>  <NssPH>
0

>  <NsssP>
0

>  <NdsssP>
0

>  <NsssssP>
0

>  <NsSH>
0

>  <NdS>
0

>  <NssS>
0

>  <NaaS>
0

>  <NdssS>
0

>  <NddssS>
1

>  <NsCl>
0

>  <NsBr>
0

>  <NsI>
0

>  <fragCpx>
139.07

>  <fMF>
0.23

>  <nHBAcc>
4

>  <nHBDon>
2

>  <Kier1>
21.7

>  <Kier2>
9.21

>  <Lipinski>
1

>  <GhoseFilter>
1

>  <FilterItLogS>
-3.97

>  <VMcGowan>
311.08

>  <LabuteASA>
163.29

>  <PEOE_VSA1>
5.11

>  <PEOE_VSA2>
4.9

>  <PEOE_VSA3>
0

>  <PEOE_VSA4>
17.45

>  <PEOE_VSA5>
0

>  <PEOE_VSA6>
32.9

>  <PEOE_VSA7>
55.34

>  <PEOE_VSA8>
31.72

>  <PEOE_VSA9>
0

>  <PEOE_VSA10>
5.75

>  <PEOE_VSA11>
0

>  <PEOE_VSA12>
0

>  <PEOE_VSA13>
10.21

>  <SMR_VSA1>
13.52

>  <SMR_VSA2>
0

>  <SMR_VSA3>
13.93

>  <SMR_VSA4>
5.92

>  <SMR_VSA5>
58.54

>  <SMR_VSA6>
26.18

>  <SMR_VSA7>
29.33

>  <SMR_VSA8>
0

>  <SMR_VSA9>
5.75

>  <SlogP_VSA1>
4.72

>  <SlogP_VSA2>
60.99

>  <SlogP_VSA3>
23.05

>  <SlogP_VSA4>
5.92

>  <SlogP_VSA5>
44.74

>  <SlogP_VSA6>
18.2

>  <SlogP_VSA7>
0

>  <SlogP_VSA8>
0

>  <SlogP_VSA9>
0

>  <SlogP_VSA10>
0

>  <SlogP_VSA11>
5.75

>  <EState_VSA1>
10.21

>  <EState_VSA2>
6.04

>  <EState_VSA3>
30.8

>  <EState_VSA4>
44.34

>  <EState_VSA5>
9.87

>  <EState_VSA6>
6.07

>  <EState_VSA7>
19.91

>  <EState_VSA8>
22.61

>  <EState_VSA9>
0

>  <EState_VSA10>
13.52

>  <VSA_EState1>
29.82

>  <VSA_EState2>
2.45

>  <VSA_EState3>
10.27

>  <VSA_EState4>
2.28

>  <VSA_EState5>
0.73

>  <VSA_EState6>
6.13

>  <VSA_EState7>
3.62

>  <VSA_EState8>
8.58

>  <VSA_EState9>
-3.46

>  <apol>
64.01

>  <bpol>
43.75

>  <nRing>
3

>  <nHRing>
1

>  <naRing>
1

>  <naHRing>
0

>  <nARing 2>
2

>  <nAHRing 2>
1

>  <nFRing>
1

>  <nFHRing>
1

>  <nFaRing>
0

>  <nFaHRing>
0

>  <nFARing 2>
1

>  <nFAHRing 2>
1

>  <nRot>
7

>  <SLogP>
2.14

>  <SMR>
108.04

>  <TopoPSA(NO)>
72.88

>  <TopoPSA>
81.26

>  <JGI1>
0.24

>  <JGI2>
0.09

>  <JGI3>
0.05

>  <JGI4>
0.04

>  <JGI5>
0.03

>  <Diameter>
12

>  <Radius>
6

>  <TMWC10>
132.8

>  <TSRW10>
62.48

>  <MW>
395.22

>  <AMW>
6.59

>  <WPath>
1800

>  <WPol>
47

>  <Zagreb1>
142

>  <Zagreb2>
169

>  <mZagreb2>
6.07

>  <yes>


>  <nAR-cont>
1

>  <nHA-cont>
0.860070871

>  <MWHBN>
0.301808727

>  <MWHBN-cont>
0.835301269

>  <TPSA-cont>
0.432754741

>  <pka_cont>
0.97

>  <yes.1>


>  <BBB_SCORE>
4.463532256

>  <MMFF94 Energy>
-132.22

$$$$
Compound 1179
Actelion Java MolfileCreator 2.0

  0  0  0  0  0  0              0 V3000
M  V30 BEGIN CTAB
M  V30 COUNTS 38 40 0 0 0
M  V30 BEGIN ATOM
M  V30 1 Cl -3.8428 -4.1635 0.7196 0
M  V30 2 C -2.6328 -3.455 1.7215 0
M  V30 3 C -1.8572 -2.4051 1.221 0
M  V30 4 C -2.4442 -3.9392 3.0128 0
M  V30 5 C -0.8696 -1.8228 2.0445 0
M  V30 6 C -1.4652 -3.3891 3.845 0
M  V30 7 C -0.6943 -2.3378 3.3326 0
M  V30 8 C 0.0823 -0.7683 1.8846 0
M  V30 9 N 0.3306 -1.6295 3.9184 0
M  V30 10 C 0.2921 0.0808 0.7546 0
M  V30 11 C 0.8118 -0.6858 3.0518 0
M  V30 12 C 1.4853 0.2716 0.1652 0
M  V30 13 C -0.917 0.8458 0.278 0
M  V30 14 C 1.694 1.194 -1.0022 0
M  V30 15 C -0.5264 2.0539 -0.5905 0
M  V30 16 N 0.4457 1.6648 -1.6252 0
M  V30 17 C 0.6798 2.776 -2.5597 0
M  V30 18 C 1.5213 2.4067 -3.7895 0
M  V30 19 C 0.91 1.2868 -4.6196 0
M  V30 20 H -2.0065 -2.0481 0.2073 0
M  V30 21 H -3.0576 -4.7572 3.3829 0
M  V30 22 H -1.3114 -3.7702 4.8495 0
M  V30 23 H 0.6772 -1.7907 4.8539 0
M  V30 24 H 1.6218 -0.0309 3.3441 0
M  V30 25 H 2.364 -0.2539 0.5283 0
M  V30 26 H -1.5613 0.1815 -0.31 0
M  V30 27 H -1.5067 1.211 1.1282 0
M  V30 28 H 2.2815 0.6469 -1.748 0
M  V30 29 H 2.3026 2.0388 -0.6545 0
M  V30 30 H -0.1223 2.8573 0.0406 0
M  V30 31 H -1.4424 2.4397 -1.0554 0
M  V30 32 H 1.1546 3.6202 -2.0427 0
M  V30 33 H -0.2874 3.1418 -2.9289 0
M  V30 34 H 1.6153 3.2978 -4.4223 0
M  V30 35 H 2.54 2.1315 -3.4946 0
M  V30 36 H 1.5118 1.1131 -5.5174 0
M  V30 37 H 0.8687 0.3481 -4.0587 0
M  V30 38 H -0.1053 1.5441 -4.9376 0
M  V30 END ATOM
M  V30 BEGIN BOND
M  V30 1 1 1 2
M  V30 2 2 2 3
M  V30 3 1 2 4
M  V30 4 1 3 5
M  V30 5 2 4 6
M  V30 6 2 5 7
M  V30 7 1 5 8
M  V30 8 1 7 9
M  V30 9 1 8 10
M  V30 10 2 8 11
M  V30 11 2 10 12
M  V30 12 1 10 13
M  V30 13 1 12 14
M  V30 14 1 13 15
M  V30 15 1 14 16
M  V30 16 1 16 17
M  V30 17 1 17 18
M  V30 18 1 18 19
M  V30 19 1 6 7
M  V30 20 1 9 11
M  V30 21 1 15 16
M  V30 22 1 3 20
M  V30 23 1 4 21
M  V30 24 1 6 22
M  V30 25 1 9 23
M  V30 26 1 11 24
M  V30 27 1 12 25
M  V30 28 1 13 26
M  V30 29 1 13 27
M  V30 30 1 14 28
M  V30 31 1 14 29
M  V30 32 1 15 30
M  V30 33 1 15 31
M  V30 34 1 17 32
M  V30 35 1 17 33
M  V30 36 1 18 34
M  V30 37 1 18 35
M  V30 38 1 19 36
M  V30 39 1 19 37
M  V30 40 1 19 38
M  V30 END BOND
M  V30 END CTAB
M  END
>  <Column 1>
1401

>  <level_0>
1550

>  <index>
1550

>  <Unnamed: 0>
1550

>  <NO.>
1562

>  <Name>
tepirindole

>  <IUPAC_name>
5-chloro-3-(1-propyl-3-6-dihydro-2h-pyridin-4-yl)-1h-indole

>  <SMILES>
CCCN1CC=C(c2c[nH]c3ccc(Cl)cc23)CC1

>  <CID>
68915

>  <logBB>


>  <BBB+/BBB->
BBB+

>  <Inchi>
InChI=1S/C16H19ClN2/c1-2-7-19-8-5-12(6-9-19)15-11-18-16-4-3-13(17)10-14(15)16/h3-5-10-11-18H-2-6-9H2-1H3

>  <threshold>
-1

>  <reference>
R1|R13|R19|R6|R24|R27|R27|R27|R30|R30|

>  <group>
B

>  <Class>
1

>  <ABC>
14.84

>  <ABCGG>
12.09

>  <nAcid>
0

>  <nBase>
1

>  <nAromAtom>
9

>  <nAromBond>
10

>  <nAtom>
38

>  <nHeavyAtom>
19

>  <nSpiro>
0

>  <nBridgehead>
0

>  <nHetero>
3

>  <nN>
2

>  <nO>
0

>  <nF>
0

>  <BalabanJ>
1.55

>  <BertzCT>
612.24

>  <nBonds>
40

>  <nBondsO>
21

>  <nBondsS>
29

>  <nBondsD>
1

>  <nBondsT>
0

>  <nBondsA>
10

>  <nBondsM>
11

>  <nBondsKS>
35

>  <nBondsKD>
5

>  <RNCG>
0.33

>  <RPCG>
0.15

>  <FCSP3>
0.38

>  <SZ>
24.33

>  <Sm>
22.88

>  <Sv>
23.75

>  <Sse>
37.53

>  <Sp>
26.21

>  <Si>
42.68

>  <MZ>
0.64

>  <Mm>
0.6

>  <Mv>
0.63

>  <Mse>
0.99

>  <Mp>
0.69

>  <Mi>
1.12

>  <NsCH3>
1

>  <NdCH2>
0

>  <NssCH2>
5

>  <NtCH>
0

>  <NdsCH>
1

>  <NaaCH>
4

>  <NsssCH>
0

>  <NddC>
0

>  <NtsC>
0

>  <NdssC>
1

>  <NaasC>
2

>  <NaaaC>
2

>  <NssssC>
0

>  <NsNH3>
0

>  <NsNH2>
0

>  <NssNH2>
0

>  <NdNH>
0

>  <NssNH>
0

>  <NaaNH>
1

>  <NtN>
0

>  <NsssNH>
0

>  <NdsN>
0

>  <NaaN>
0

>  <NsssN>
1

>  <NddsN>
0

>  <NaasN>
0

>  <NssssN>
0

>  <NsOH>
0

>  <NdO>
0

>  <NssO>
0

>  <NaaO>
0

>  <NsF>
0

>  <NsSiH3>
0

>  <NssSiH2>
0

>  <NsssSiH>
0

>  <NssssSi>
0

>  <NsPH2>
0

>  <NssPH>
0

>  <NsssP>
0

>  <NdsssP>
0

>  <NsssssP>
0

>  <NsSH>
0

>  <NdS>
0

>  <NssS>
0

>  <NaaS>
0

>  <NdssS>
0

>  <NddssS>
0

>  <NsCl>
1

>  <NsBr>
0

>  <NsI>
0

>  <fragCpx>
99.03

>  <fMF>
0.39

>  <nHBAcc>
1

>  <nHBDon>
1

>  <Kier1>
13.96

>  <Kier2>
6.19

>  <Lipinski>
1

>  <GhoseFilter>
1

>  <FilterItLogS>
-4.97

>  <VMcGowan>
214.42

>  <LabuteASA>
118.61

>  <PEOE_VSA1>
4.98

>  <PEOE_VSA2>
4.9

>  <PEOE_VSA3>
0

>  <PEOE_VSA4>
0

>  <PEOE_VSA5>
0

>  <PEOE_VSA6>
24.6

>  <PEOE_VSA7>
43.16

>  <PEOE_VSA8>
40.78

>  <PEOE_VSA9>
0

>  <PEOE_VSA10>
0

>  <PEOE_VSA11>
0

>  <PEOE_VSA12>
0

>  <PEOE_VSA13>
0

>  <SMR_VSA1>
0

>  <SMR_VSA2>
0

>  <SMR_VSA3>
9.88

>  <SMR_VSA4>
0

>  <SMR_VSA5>
19.77

>  <SMR_VSA6>
19.63

>  <SMR_VSA7>
41.06

>  <SMR_VSA8>
0

>  <SMR_VSA9>
0

>  <SlogP_VSA1>
0

>  <SlogP_VSA2>
29.52

>  <SlogP_VSA3>
0

>  <SlogP_VSA4>
0

>  <SlogP_VSA5>
25.33

>  <SlogP_VSA6>
30.47

>  <SlogP_VSA7>
5.02

>  <SlogP_VSA8>
16.48

>  <SlogP_VSA9>
0

>  <SlogP_VSA10>
0

>  <SlogP_VSA11>
0

>  <EState_VSA1>
0

>  <EState_VSA2>
0

>  <EState_VSA3>
0

>  <EState_VSA4>
30.05

>  <EState_VSA5>
29.49

>  <EState_VSA6>
0

>  <EState_VSA7>
12.13

>  <EState_VSA8>
35.15

>  <EState_VSA9>
11.6

>  <EState_VSA10>
0

>  <VSA_EState1>
0

>  <VSA_EState2>
5.84

>  <VSA_EState3>
2.04

>  <VSA_EState4>
3.92

>  <VSA_EState5>
0

>  <VSA_EState6>
6.04

>  <VSA_EState7>
6.83

>  <VSA_EState8>
5.66

>  <VSA_EState9>
0

>  <apol>
43.77

>  <bpol>
21.85

>  <nRing>
3

>  <nHRing>
2

>  <naRing>
2

>  <naHRing>
1

>  <nARing 2>
1

>  <nAHRing 2>
1

>  <nFRing>
1

>  <nFHRing>
1

>  <nFaRing>
1

>  <nFaHRing>
1

>  <nFARing 2>
0

>  <nFAHRing 2>
0

>  <nRot>
3

>  <SLogP>
4.32

>  <SMR>
82.63

>  <TopoPSA(NO)>
19.03

>  <TopoPSA>
19.03

>  <JGI1>
0.17

>  <JGI2>
0.08

>  <JGI3>
0.04

>  <JGI4>
0.04

>  <JGI5>
0.03

>  <Diameter>
11

>  <Radius>
6

>  <TMWC10>
113.1

>  <TSRW10>
66.41

>  <MW>
274.12

>  <AMW>
7.21

>  <WPath>
730

>  <WPol>
28

>  <Zagreb1>
100

>  <Zagreb2>
118

>  <mZagreb2>
4.25

>  <yes>


>  <nAR-cont>
0.816016

>  <nHA-cont>
0.998649058

>  <MWHBN>
0.120797969

>  <MWHBN-cont>
0.8327983

>  <TPSA-cont>
0.867158783

>  <pka_cont>
0.97

>  <yes.1>


>  <BBB_SCORE>
5.283180074

>  <MMFF94 Energy>
17.109

$$$$
Compound 1180
Actelion Java MolfileCreator 2.0

  0  0  0  0  0  0              0 V3000
M  V30 BEGIN CTAB
M  V30 COUNTS 49 50 0 0 0
M  V30 BEGIN ATOM
M  V30 1 S 3.4348 -4.475 -2.795 0
M  V30 2 O 3.5883 -3.8252 -4.074 0
M  V30 3 O 3.2044 -5.8955 -2.6668 0
M  V30 4 N 4.8381 -4.1687 -1.9282 0
M  V30 5 C 2.2182 -3.6036 -1.8551 0
M  V30 6 C 2.2836 -2.2115 -1.7807 0
M  V30 7 C 1.1981 -4.2983 -1.2113 0
M  V30 8 C 1.3255 -1.4914 -1.0432 0
M  V30 9 C 0.2387 -3.5928 -0.4796 0
M  V30 10 C 0.2882 -2.192 -0.3849 0
M  V30 11 C 1.5023 9.0E-4 -1.0238 0
M  V30 12 O -0.6262 -1.4592 0.3268 0
M  V30 13 O 2.4849 0.5107 -1.5562 0
M  V30 14 N 0.5375 0.7471 -0.4028 0
M  V30 15 C -1.6967 -2.1424 0.9669 0
M  V30 16 C 0.5815 2.1905 -0.2804 0
M  V30 17 C -0.8363 2.801 -0.1878 0 CFG=2
M  V30 18 N -1.7122 2.0465 0.7498 0
M  V30 19 C -1.5465 2.7237 -1.5521 0
M  V30 20 C -3.0242 1.9189 0.1019 0
M  V30 21 C -1.8507 2.6544 2.0792 0
M  V30 22 C -2.6687 1.724 -1.3545 0
M  V30 23 C -0.5514 2.6559 2.8891 0
M  V30 24 C -0.7903 3.1269 4.3167 0
M  V30 25 H 5.4907 -3.6291 -2.4984 0
M  V30 26 H 5.2255 -5.042 -1.5706 0
M  V30 27 H 3.0828 -1.6824 -2.2988 0
M  V30 28 H 1.1381 -5.3833 -1.2712 0
M  V30 29 H -0.5386 -4.1723 0.0095 0
M  V30 30 H -0.2302 0.2813 0.0757 0
M  V30 31 H -2.3221 -2.6672 0.2375 0
M  V30 32 H -2.3215 -1.3924 1.4618 0
M  V30 33 H -1.3236 -2.825 1.7372 0
M  V30 34 H 1.1337 2.6171 -1.1252 0
M  V30 35 H 1.1585 2.4049 0.6238 0
M  V30 36 H -0.7512 3.8594 0.0905 0
M  V30 37 H -1.9774 3.7042 -1.7918 0
M  V30 38 H -0.8939 2.4356 -2.3823 0
M  V30 39 H -3.6269 2.8289 0.2195 0
M  V30 40 H -3.5889 1.0684 0.4963 0
M  V30 41 H -2.5958 2.0786 2.644 0
M  V30 42 H -2.2362 3.6795 2.0003 0
M  V30 43 H -3.5141 1.9123 -2.0225 0
M  V30 44 H -2.3084 0.7038 -1.5338 0
M  V30 45 H -0.1199 1.6483 2.9128 0
M  V30 46 H 0.1842 3.3232 2.4287 0
M  V30 47 H 0.1502 3.1312 4.8764 0
M  V30 48 H -1.1994 4.1423 4.3312 0
M  V30 49 H -1.4912 2.4659 4.8366 0
M  V30 END ATOM
M  V30 BEGIN BOND
M  V30 1 2 1 2
M  V30 2 2 1 3
M  V30 3 1 1 4
M  V30 4 1 1 5
M  V30 5 2 5 6
M  V30 6 1 5 7
M  V30 7 1 6 8
M  V30 8 2 7 9
M  V30 9 2 8 10
M  V30 10 1 8 11
M  V30 11 1 10 12
M  V30 12 2 11 13
M  V30 13 1 11 14
M  V30 14 1 12 15
M  V30 15 1 14 16
M  V30 16 1 16 17
M  V30 17 1 17 18
M  V30 18 1 17 19
M  V30 19 1 18 20
M  V30 20 1 18 21
M  V30 21 1 19 22
M  V30 22 1 21 23
M  V30 23 1 23 24
M  V30 24 1 9 10
M  V30 25 1 20 22
M  V30 26 1 4 25
M  V30 27 1 4 26
M  V30 28 1 6 27
M  V30 29 1 7 28
M  V30 30 1 9 29
M  V30 31 1 14 30
M  V30 32 1 15 31
M  V30 33 1 15 32
M  V30 34 1 15 33
M  V30 35 1 16 34
M  V30 36 1 16 35
M  V30 37 1 17 36
M  V30 38 1 19 37
M  V30 39 1 19 38
M  V30 40 1 20 39
M  V30 41 1 20 40
M  V30 42 1 21 41
M  V30 43 1 21 42
M  V30 44 1 22 43
M  V30 45 1 22 44
M  V30 46 1 23 45
M  V30 47 1 23 46
M  V30 48 1 24 47
M  V30 49 1 24 48
M  V30 50 1 24 49
M  V30 END BOND
M  V30 BEGIN COLLECTION
M  V30 MDLV30/STERAC1 ATOMS=(1 17)
M  V30 END COLLECTION
M  V30 END CTAB
M  END
>  <Column 1>
1402

>  <level_0>
1551

>  <index>
1551

>  <Unnamed: 0>
1551

>  <NO.>
1563

>  <Name>
prosulpride

>  <IUPAC_name>
2-methoxy-n-[(1-propylpyrrolidin-2-yl)methyl]-5-sulfamoylbenzamide

>  <SMILES>
CCCN1CCCC1CNC(=O)c1cc(S(N)(=O)=O)ccc1OC

>  <CID>
68880

>  <logBB>


>  <BBB+/BBB->
BBB+

>  <Inchi>
InChI=1S/C16H25N3O4S/c1-3-8-19-9-4-5-12(19)11-18-16(20)14-10-13(24(17-21)22)6-7-15(14)23-2/h6-7-10-12H-3-5-8-9-11H2-1-2H3-(H-18-20)(H2-17-21-22)

>  <threshold>
-1

>  <reference>
R1|R19|R6|R27|R27|R30|

>  <group>
B

>  <Class>
1

>  <ABC>
18.08

>  <ABCGG>
16

>  <nAcid>
0

>  <nBase>
1

>  <nAromAtom>
6

>  <nAromBond>
6

>  <nAtom>
49

>  <nHeavyAtom>
24

>  <nSpiro>
0

>  <nBridgehead>
0

>  <nHetero>
8

>  <nN>
3

>  <nO>
4

>  <nF>
0

>  <BalabanJ>
1.89

>  <BertzCT>
690.56

>  <nBonds>
50

>  <nBondsO>
25

>  <nBondsS>
41

>  <nBondsD>
3

>  <nBondsT>
0

>  <nBondsA>
6

>  <nBondsM>
9

>  <nBondsKS>
44

>  <nBondsKD>
6

>  <RNCG>
0.21

>  <RPCG>
0.11

>  <FCSP3>
0.56

>  <SZ>
31.67

>  <Sm>
29.59

>  <Sv>
29.09

>  <Sse>
49.49

>  <Sp>
31.62

>  <Si>
55.82

>  <MZ>
0.65

>  <Mm>
0.6

>  <Mv>
0.59

>  <Mse>
1.01

>  <Mp>
0.65

>  <Mi>
1.14

>  <NsCH3>
2

>  <NdCH2>
0

>  <NssCH2>
6

>  <NtCH>
0

>  <NdsCH>
0

>  <NaaCH>
3

>  <NsssCH>
1

>  <NddC>
0

>  <NtsC>
0

>  <NdssC>
1

>  <NaasC>
3

>  <NaaaC>
0

>  <NssssC>
0

>  <NsNH3>
0

>  <NsNH2>
1

>  <NssNH2>
0

>  <NdNH>
0

>  <NssNH>
1

>  <NaaNH>
0

>  <NtN>
0

>  <NsssNH>
0

>  <NdsN>
0

>  <NaaN>
0

>  <NsssN>
1

>  <NddsN>
0

>  <NaasN>
0

>  <NssssN>
0

>  <NsOH>
0

>  <NdO>
3

>  <NssO>
1

>  <NaaO>
0

>  <NsF>
0

>  <NsSiH3>
0

>  <NssSiH2>
0

>  <NsssSiH>
0

>  <NssssSi>
0

>  <NsPH2>
0

>  <NssPH>
0

>  <NsssP>
0

>  <NdsssP>
0

>  <NsssssP>
0

>  <NsSH>
0

>  <NdS>
0

>  <NssS>
0

>  <NaaS>
0

>  <NdssS>
0

>  <NddssS>
1

>  <NsCl>
0

>  <NsBr>
0

>  <NsI>
0

>  <fragCpx>
73.08

>  <fMF>
0.29

>  <nHBAcc>
5

>  <nHBDon>
2

>  <Kier1>
20.31

>  <Kier2>
9.09

>  <Lipinski>
1

>  <GhoseFilter>
1

>  <FilterItLogS>
-3.41

>  <VMcGowan>
267.15

>  <LabuteASA>
142.76

>  <PEOE_VSA1>
10.05

>  <PEOE_VSA2>
9.69

>  <PEOE_VSA3>
13.56

>  <PEOE_VSA4>
0

>  <PEOE_VSA5>
0

>  <PEOE_VSA6>
6.92

>  <PEOE_VSA7>
50.55

>  <PEOE_VSA8>
12.59

>  <PEOE_VSA9>
17.57

>  <PEOE_VSA10>
5.75

>  <PEOE_VSA11>
0

>  <PEOE_VSA12>
10.02

>  <PEOE_VSA13>
5.91

>  <SMR_VSA1>
17.95

>  <SMR_VSA2>
0

>  <SMR_VSA3>
10.22

>  <SMR_VSA4>
5.14

>  <SMR_VSA5>
37.12

>  <SMR_VSA6>
26.74

>  <SMR_VSA7>
23.76

>  <SMR_VSA8>
0

>  <SMR_VSA9>
5.75

>  <SlogP_VSA1>
15.19

>  <SlogP_VSA2>
52.01

>  <SlogP_VSA3>
10.02

>  <SlogP_VSA4>
0

>  <SlogP_VSA5>
36.54

>  <SlogP_VSA6>
23.09

>  <SlogP_VSA7>
0

>  <SlogP_VSA8>
0

>  <SlogP_VSA9>
0

>  <SlogP_VSA10>
0

>  <SlogP_VSA11>
5.75

>  <EState_VSA1>
10.02

>  <EState_VSA2>
16.37

>  <EState_VSA3>
18.34

>  <EState_VSA4>
32.35

>  <EState_VSA5>
25.31

>  <EState_VSA6>
0

>  <EState_VSA7>
0

>  <EState_VSA8>
17.14

>  <EState_VSA9>
9.88

>  <EState_VSA10>
13.21

>  <VSA_EState1>
28.13

>  <VSA_EState2>
14.74

>  <VSA_EState3>
8.02

>  <VSA_EState4>
0.17

>  <VSA_EState5>
-0.04

>  <VSA_EState6>
4.34

>  <VSA_EState7>
3.26

>  <VSA_EState8>
4.74

>  <VSA_EState9>
-2.44

>  <apol>
52.8

>  <bpol>
36.05

>  <nRing>
2

>  <nHRing>
1

>  <naRing>
1

>  <naHRing>
0

>  <nARing 2>
1

>  <nAHRing 2>
1

>  <nFRing>
0

>  <nFHRing>
0

>  <nFaRing>
0

>  <nFaHRing>
0

>  <nFARing 2>
0

>  <nFAHRing 2>
0

>  <nRot>
7

>  <SLogP>
0.95

>  <SMR>
91.59

>  <TopoPSA(NO)>
101.73

>  <TopoPSA>
110.11

>  <JGI1>
0.24

>  <JGI2>
0.1

>  <JGI3>
0.05

>  <JGI4>
0.04

>  <JGI5>
0.04

>  <Diameter>
12

>  <Radius>
6

>  <TMWC10>
123.09

>  <TSRW10>
71.82

>  <MW>
355.16

>  <AMW>
7.25

>  <WPath>
1426

>  <WPol>
35

>  <Zagreb1>
120

>  <Zagreb2>
138

>  <mZagreb2>
5.42

>  <yes>


>  <nAR-cont>
0.816016

>  <nHA-cont>
0.94700071

>  <MWHBN>
0.37143773

>  <MWHBN-cont>
0.588275294

>  <TPSA-cont>
0.231363826

>  <pka_cont>
0.97

>  <yes.1>


>  <BBB_SCORE>
3.593157302

>  <MMFF94 Energy>
-43.564

$$$$
Compound 1181
Actelion Java MolfileCreator 2.0

  0  0  0  0  0  0              0 V3000
M  V30 BEGIN CTAB
M  V30 COUNTS 34 35 0 0 0
M  V30 BEGIN ATOM
M  V30 1 O 1.1829 0.0788 -2.288 0
M  V30 2 C 0.1037 0.2032 -1.7267 0
M  V30 3 O -0.9018 0.9939 -2.2132 0
M  V30 4 N -0.2945 -0.4084 -0.5542 0
M  V30 5 C -1.9287 1.0905 -1.2136 0 CFG=1
M  V30 6 C 0.4049 -1.2888 0.2458 0
M  V30 7 C -1.659 -0.0774 -0.2838 0
M  V30 8 C -1.9224 2.4381 -0.5144 0
M  V30 9 O -0.1084 -1.8293 1.2237 0
M  V30 10 N 1.6984 -1.5229 -0.1334 0
M  V30 11 C -0.9223 3.3971 -0.7371 0
M  V30 12 C -2.9583 2.7504 0.3838 0
M  V30 13 C 2.5795 -2.418 0.5833 0
M  V30 14 C -0.9502 4.6249 -0.0714 0
M  V30 15 C -2.9839 3.9783 1.0482 0
M  V30 16 C 2.4097 -3.86 0.1155 0
M  V30 17 C -1.9786 4.9143 0.8217 0
M  V30 18 C 3.3566 -4.7975 0.8462 0
M  V30 19 H -2.896 0.9711 -1.7163 0
M  V30 20 H -2.2639 -0.9478 -0.5655 0
M  V30 21 H -1.8252 0.1189 0.7803 0
M  V30 22 H 2.0391 -1.069 -0.9781 0
M  V30 23 H -0.1085 3.2072 -1.4344 0
M  V30 24 H -3.7595 2.0388 0.5748 0
M  V30 25 H 2.3769 -2.3361 1.6571 0
M  V30 26 H 3.6031 -2.0734 0.4022 0
M  V30 27 H -0.1673 5.3572 -0.2537 0
M  V30 28 H -3.7895 4.2055 1.7421 0
M  V30 29 H 1.3765 -4.1896 0.2779 0
M  V30 30 H 2.5943 -3.9247 -0.9635 0
M  V30 31 H -1.9978 5.8708 1.3378 0
M  V30 32 H 3.2194 -5.8248 0.4945 0
M  V30 33 H 4.3998 -4.5152 0.6721 0
M  V30 34 H 3.1707 -4.7799 1.9249 0
M  V30 END ATOM
M  V30 BEGIN BOND
M  V30 1 2 1 2
M  V30 2 1 2 3
M  V30 3 1 2 4
M  V30 4 1 3 5
M  V30 5 1 4 6
M  V30 6 1 4 7
M  V30 7 1 5 8
M  V30 8 2 6 9
M  V30 9 1 6 10
M  V30 10 2 8 11
M  V30 11 1 8 12
M  V30 12 1 10 13
M  V30 13 1 11 14
M  V30 14 2 12 15
M  V30 15 1 13 16
M  V30 16 2 14 17
M  V30 17 1 16 18
M  V30 18 1 5 7
M  V30 19 1 15 17
M  V30 20 1 5 19
M  V30 21 1 7 20
M  V30 22 1 7 21
M  V30 23 1 10 22
M  V30 24 1 11 23
M  V30 25 1 12 24
M  V30 26 1 13 25
M  V30 27 1 13 26
M  V30 28 1 14 27
M  V30 29 1 15 28
M  V30 30 1 16 29
M  V30 31 1 16 30
M  V30 32 1 17 31
M  V30 33 1 18 32
M  V30 34 1 18 33
M  V30 35 1 18 34
M  V30 END BOND
M  V30 BEGIN COLLECTION
M  V30 MDLV30/STERAC1 ATOMS=(1 5)
M  V30 END COLLECTION
M  V30 END CTAB
M  END
>  <Column 1>
1403

>  <level_0>
1552

>  <index>
1552

>  <Unnamed: 0>
1552

>  <NO.>
1564

>  <Name>
profexalone

>  <IUPAC_name>
2-oxo-5-phenyl-n-propyl-1-3-oxazolidine-3-carboxamide

>  <SMILES>
CCCNC(=O)N1CC(c2ccccc2)OC1=O

>  <CID>
65786

>  <logBB>


>  <BBB+/BBB->
BBB+

>  <Inchi>
InChI=1S/C13H16N2O3/c1-2-8-14-12(16)15-9-11(18-13(15)17)10-6-4-3-5-7-10/h3-7-11H-2-8-9H2-1H3-(H-14-16)

>  <threshold>
-1

>  <reference>
R1|R19|R6|R27|R27|R30|

>  <group>
B

>  <Class>
1

>  <ABC>
13.53

>  <ABCGG>
11.87

>  <nAcid>
0

>  <nBase>
0

>  <nAromAtom>
6

>  <nAromBond>
6

>  <nAtom>
34

>  <nHeavyAtom>
18

>  <nSpiro>
0

>  <nBridgehead>
0

>  <nHetero>
5

>  <nN>
2

>  <nO>
3

>  <nF>
0

>  <BalabanJ>
1.83

>  <BertzCT>
433.12

>  <nBonds>
35

>  <nBondsO>
19

>  <nBondsS>
27

>  <nBondsD>
2

>  <nBondsT>
0

>  <nBondsA>
6

>  <nBondsM>
8

>  <nBondsKS>
30

>  <nBondsKD>
5

>  <RNCG>
0.23

>  <RPCG>
0.22

>  <FCSP3>
0.38

>  <SZ>
22

>  <Sm>
20.67

>  <Sv>
20.99

>  <Sse>
34.42

>  <Sp>
22.15

>  <Si>
38.53

>  <MZ>
0.65

>  <Mm>
0.61

>  <Mv>
0.62

>  <Mse>
1.01

>  <Mp>
0.65

>  <Mi>
1.13

>  <NsCH3>
1

>  <NdCH2>
0

>  <NssCH2>
3

>  <NtCH>
0

>  <NdsCH>
0

>  <NaaCH>
5

>  <NsssCH>
1

>  <NddC>
0

>  <NtsC>
0

>  <NdssC>
2

>  <NaasC>
1

>  <NaaaC>
0

>  <NssssC>
0

>  <NsNH3>
0

>  <NsNH2>
0

>  <NssNH2>
0

>  <NdNH>
0

>  <NssNH>
1

>  <NaaNH>
0

>  <NtN>
0

>  <NsssNH>
0

>  <NdsN>
0

>  <NaaN>
0

>  <NsssN>
1

>  <NddsN>
0

>  <NaasN>
0

>  <NssssN>
0

>  <NsOH>
0

>  <NdO>
2

>  <NssO>
1

>  <NaaO>
0

>  <NsF>
0

>  <NsSiH3>
0

>  <NssSiH2>
0

>  <NsssSiH>
0

>  <NssssSi>
0

>  <NsPH2>
0

>  <NssPH>
0

>  <NsssP>
0

>  <NdsssP>
0

>  <NsssssP>
0

>  <NsSH>
0

>  <NdS>
0

>  <NssS>
0

>  <NaaS>
0

>  <NdssS>
0

>  <NddssS>
0

>  <NsCl>
0

>  <NsBr>
0

>  <NsI>
0

>  <fragCpx>
55.05

>  <fMF>
0.32

>  <nHBAcc>
3

>  <nHBDon>
1

>  <Kier1>
14.41

>  <Kier2>
6.96

>  <Lipinski>
1

>  <GhoseFilter>
1

>  <FilterItLogS>
-2.41

>  <VMcGowan>
188.38

>  <LabuteASA>
105.73

>  <PEOE_VSA1>
10.05

>  <PEOE_VSA2>
0

>  <PEOE_VSA3>
14.49

>  <PEOE_VSA4>
0

>  <PEOE_VSA5>
0

>  <PEOE_VSA6>
37.26

>  <PEOE_VSA7>
11.98

>  <PEOE_VSA8>
6.54

>  <PEOE_VSA9>
6.54

>  <PEOE_VSA10>
6.1

>  <PEOE_VSA11>
0

>  <PEOE_VSA12>
0

>  <PEOE_VSA13>
0

>  <SMR_VSA1>
14.33

>  <SMR_VSA2>
0

>  <SMR_VSA3>
10.22

>  <SMR_VSA4>
0

>  <SMR_VSA5>
19.45

>  <SMR_VSA6>
13.09

>  <SMR_VSA7>
35.9

>  <SMR_VSA8>
0

>  <SMR_VSA9>
0

>  <SlogP_VSA1>
5.32

>  <SlogP_VSA2>
30.11

>  <SlogP_VSA3>
4.74

>  <SlogP_VSA4>
0

>  <SlogP_VSA5>
25.01

>  <SlogP_VSA6>
30.33

>  <SlogP_VSA7>
0

>  <SlogP_VSA8>
0

>  <SlogP_VSA9>
0

>  <SlogP_VSA10>
9.59

>  <SlogP_VSA11>
0

>  <EState_VSA1>
6.09

>  <EState_VSA2>
18.68

>  <EState_VSA3>
6.54

>  <EState_VSA4>
16.88

>  <EState_VSA5>
0

>  <EState_VSA6>
0

>  <EState_VSA7>
37.26

>  <EState_VSA8>
5.32

>  <EState_VSA9>
4.74

>  <EState_VSA10>
9.59

>  <VSA_EState1>
5.19

>  <VSA_EState2>
24.42

>  <VSA_EState3>
2.66

>  <VSA_EState4>
0.9

>  <VSA_EState5>
0

>  <VSA_EState6>
9.02

>  <VSA_EState7>
-0.12

>  <VSA_EState8>
2.77

>  <VSA_EState9>
0

>  <apol>
36.98

>  <bpol>
21.8

>  <nRing>
2

>  <nHRing>
1

>  <naRing>
1

>  <naHRing>
0

>  <nARing 2>
1

>  <nAHRing 2>
1

>  <nFRing>
0

>  <nFHRing>
0

>  <nFaRing>
0

>  <nFaHRing>
0

>  <nFARing 2>
0

>  <nFAHRing 2>
0

>  <nRot>
3

>  <SLogP>
2.3

>  <SMR>
66.06

>  <TopoPSA(NO)>
58.64

>  <TopoPSA>
58.64

>  <JGI1>
0.16

>  <JGI2>
0.08

>  <JGI3>
0.05

>  <JGI4>
0.04

>  <JGI5>
0.03

>  <Diameter>
11

>  <Radius>
6

>  <TMWC10>
108.12

>  <TSRW10>
64.47

>  <MW>
248.12

>  <AMW>
7.3

>  <WPath>
646

>  <WPol>
24

>  <Zagreb1>
88

>  <Zagreb2>
101

>  <mZagreb2>
4.17

>  <yes>


>  <nAR-cont>
0.816016

>  <nHA-cont>
0.991161285

>  <MWHBN>
0.253938825

>  <MWHBN-cont>
0.952911183

>  <TPSA-cont>
0.590656387

>  <pka_cont>
0.97

>  <yes.1>


>  <BBB_SCORE>
4.902856833

>  <MMFF94 Energy>
-84.777

$$$$
Compound 1182
Actelion Java MolfileCreator 2.0

  0  0  0  0  0  0              0 V3000
M  V30 BEGIN CTAB
M  V30 COUNTS 57 60 0 0 0
M  V30 BEGIN ATOM
M  V30 1 S -2.3276 -1.8457 -2.4883 0
M  V30 2 C -1.9834 -0.3674 -1.5543 0
M  V30 3 C -0.8037 -2.0606 -3.3812 0
M  V30 4 C -0.6771 0.1317 -1.3606 0
M  V30 5 C -3.0982 0.2913 -1.0057 0
M  V30 6 C 0.3918 -1.4121 -3.0165 0
M  V30 7 C -0.8339 -2.9425 -4.4757 0
M  V30 8 N 0.4548 -0.5342 -1.8921 0
M  V30 9 C -0.5554 1.3422 -0.6532 0
M  V30 10 C -2.9425 1.4667 -0.2782 0
M  V30 11 C 1.5239 -1.6454 -3.8256 0
M  V30 12 C 0.3061 -3.1707 -5.2411 0
M  V30 13 C 1.6941 -0.6898 -1.0556 0 CFG=2
M  V30 14 C -1.6672 1.9925 -0.0946 0
M  V30 15 C 1.4852 -2.5146 -4.92 0
M  V30 16 C 1.4529 -0.9313 0.4704 0
M  V30 17 C 2.6788 0.4659 -1.2754 0
M  V30 18 C -1.5275 3.258 0.6737 0
M  V30 19 N 0.4799 -1.9738 0.8149 0
M  V30 20 O -2.4236 4.0934 0.6534 0
M  V30 21 N -0.3725 3.3932 1.4159 0
M  V30 22 C 0.2734 -2.1076 2.2546 0
M  V30 23 C 0.8385 -3.3111 0.3486 0
M  V30 24 C -0.1138 4.5767 2.2095 0
M  V30 25 C -0.5047 -3.4087 2.3626 0
M  V30 26 C -0.0995 -4.2165 1.1345 0
M  V30 27 C -0.7427 4.4672 3.5952 0
M  V30 28 C -0.445 5.6946 4.4402 0
M  V30 29 H -4.1 -0.1068 -1.1527 0
M  V30 30 H -1.7573 -3.4522 -4.7426 0
M  V30 31 H 0.4102 1.8208 -0.5722 0
M  V30 32 H -3.813 1.9714 0.1344 0
M  V30 33 H 2.4605 -1.1332 -3.6291 0
M  V30 34 H 0.267 -3.8482 -6.0896 0
M  V30 35 H 2.2258 -1.594 -1.3829 0
M  V30 36 H 2.3768 -2.6698 -5.5218 0
M  V30 37 H 2.4232 -1.1656 0.931 0
M  V30 38 H 1.1313 0.007 0.9368 0
M  V30 39 H 3.682 0.1671 -0.9508 0
M  V30 40 H 2.7403 0.7565 -2.3283 0
M  V30 41 H 2.4193 1.3569 -0.6993 0
M  V30 42 H 0.2734 2.6202 1.4857 0
M  V30 43 H -0.2895 -1.2671 2.6725 0
M  V30 44 H 1.2252 -2.1954 2.7935 0
M  V30 45 H 0.6945 -3.4386 -0.7276 0
M  V30 46 H 1.88 -3.5554 0.5926 0
M  V30 47 H -0.4996 5.4553 1.6806 0
M  V30 48 H 0.9737 4.6769 2.2886 0
M  V30 49 H -1.5842 -3.2169 2.3389 0
M  V30 50 H -0.2787 -3.9397 3.2926 0
M  V30 51 H -0.9888 -4.4654 0.5438 0
M  V30 52 H 0.3924 -5.154 1.4126 0
M  V30 53 H -1.8285 4.3424 3.5078 0
M  V30 54 H -0.3637 3.5736 4.1056 0
M  V30 55 H -0.903 5.5944 5.4292 0
M  V30 56 H 0.6331 5.8247 4.5768 0
M  V30 57 H -0.844 6.5997 3.9712 0
M  V30 END ATOM
M  V30 BEGIN BOND
M  V30 1 1 1 2
M  V30 2 1 1 3
M  V30 3 2 2 4
M  V30 4 1 2 5
M  V30 5 2 3 6
M  V30 6 1 3 7
M  V30 7 1 4 8
M  V30 8 1 4 9
M  V30 9 2 5 10
M  V30 10 1 6 11
M  V30 11 2 7 12
M  V30 12 1 8 13
M  V30 13 2 9 14
M  V30 14 2 11 15
M  V30 15 1 13 16
M  V30 16 1 13 17
M  V30 17 1 14 18
M  V30 18 1 16 19
M  V30 19 2 18 20
M  V30 20 1 18 21
M  V30 21 1 19 22
M  V30 22 1 19 23
M  V30 23 1 21 24
M  V30 24 1 22 25
M  V30 25 1 23 26
M  V30 26 1 24 27
M  V30 27 1 27 28
M  V30 28 1 6 8
M  V30 29 1 10 14
M  V30 30 1 12 15
M  V30 31 1 25 26
M  V30 32 1 5 29
M  V30 33 1 7 30
M  V30 34 1 9 31
M  V30 35 1 10 32
M  V30 36 1 11 33
M  V30 37 1 12 34
M  V30 38 1 13 35
M  V30 39 1 15 36
M  V30 40 1 16 37
M  V30 41 1 16 38
M  V30 42 1 17 39
M  V30 43 1 17 40
M  V30 44 1 17 41
M  V30 45 1 21 42
M  V30 46 1 22 43
M  V30 47 1 22 44
M  V30 48 1 23 45
M  V30 49 1 23 46
M  V30 50 1 24 47
M  V30 51 1 24 48
M  V30 52 1 25 49
M  V30 53 1 25 50
M  V30 54 1 26 51
M  V30 55 1 26 52
M  V30 56 1 27 53
M  V30 57 1 27 54
M  V30 58 1 28 55
M  V30 59 1 28 56
M  V30 60 1 28 57
M  V30 END BOND
M  V30 BEGIN COLLECTION
M  V30 MDLV30/STEABS ATOMS=(1 13)
M  V30 END COLLECTION
M  V30 END CTAB
M  END
>  <Column 1>
1404

>  <level_0>
1553

>  <index>
1553

>  <Unnamed: 0>
1553

>  <NO.>
1565

>  <Name>
rp 60180

>  <IUPAC_name>
n-propyl-10-[(2s)-1-pyrrolidin-1-ylpropan-2-yl]phenothiazine-2-carboxamide

>  <SMILES>
CCCNC(=O)c1ccc2c(c1)N([C@@H](C)CN1CCCC1)c1ccccc1S2

>  <CID>
14536538

>  <logBB>


>  <BBB+/BBB->
BBB+

>  <Inchi>
InChI=1S/C23H29N3OS/c1-3-12-24-23(27)18-10-11-22-20(15-18)26(17(2)16-25-13-6-7-14-25)19-8-4-5-9-21(19)28-22/h4-5-8-11-15-17H-3-6-7-12-14-16H2-1-2H3-(H-24-27)/t17-/m0/s1

>  <threshold>
-1

>  <reference>
R1|R13|R28|R9|R24|R27|R30|

>  <group>
B

>  <Class>
1

>  <ABC>
21.9

>  <ABCGG>
17.23

>  <nAcid>
0

>  <nBase>
1

>  <nAromAtom>
12

>  <nAromBond>
12

>  <nAtom>
57

>  <nHeavyAtom>
28

>  <nSpiro>
0

>  <nBridgehead>
0

>  <nHetero>
5

>  <nN>
3

>  <nO>
1

>  <nF>
0

>  <BalabanJ>
1.48

>  <BertzCT>
847.49

>  <nBonds>
60

>  <nBondsO>
31

>  <nBondsS>
47

>  <nBondsD>
1

>  <nBondsT>
0

>  <nBondsA>
12

>  <nBondsM>
13

>  <nBondsKS>
53

>  <nBondsKD>
7

>  <RNCG>
0.19

>  <RPCG>
0.13

>  <FCSP3>
0.43

>  <SZ>
35.33

>  <Sm>
32.93

>  <Sv>
35.03

>  <Sse>
56.27

>  <Sp>
38.77

>  <Si>
64.02

>  <MZ>
0.62

>  <Mm>
0.58

>  <Mv>
0.61

>  <Mse>
0.99

>  <Mp>
0.68

>  <Mi>
1.12

>  <NsCH3>
2

>  <NdCH2>
0

>  <NssCH2>
7

>  <NtCH>
0

>  <NdsCH>
0

>  <NaaCH>
7

>  <NsssCH>
1

>  <NddC>
0

>  <NtsC>
0

>  <NdssC>
1

>  <NaasC>
5

>  <NaaaC>
0

>  <NssssC>
0

>  <NsNH3>
0

>  <NsNH2>
0

>  <NssNH2>
0

>  <NdNH>
0

>  <NssNH>
1

>  <NaaNH>
0

>  <NtN>
0

>  <NsssNH>
0

>  <NdsN>
0

>  <NaaN>
0

>  <NsssN>
2

>  <NddsN>
0

>  <NaasN>
0

>  <NssssN>
0

>  <NsOH>
0

>  <NdO>
1

>  <NssO>
0

>  <NaaO>
0

>  <NsF>
0

>  <NsSiH3>
0

>  <NssSiH2>
0

>  <NsssSiH>
0

>  <NssssSi>
0

>  <NsPH2>
0

>  <NssPH>
0

>  <NsssP>
0

>  <NdsssP>
0

>  <NsssssP>
0

>  <NsSH>
0

>  <NdS>
0

>  <NssS>
1

>  <NaaS>
0

>  <NdssS>
0

>  <NddssS>
0

>  <NsCl>
0

>  <NsBr>
0

>  <NsI>
0

>  <fragCpx>
205.05

>  <fMF>
0.37

>  <nHBAcc>
4

>  <nHBDon>
1

>  <Kier1>
21.24

>  <Kier2>
9.87

>  <Lipinski>
1

>  <GhoseFilter>
1

>  <FilterItLogS>
-5.7

>  <VMcGowan>
313.55

>  <LabuteASA>
171.85

>  <PEOE_VSA1>
15.12

>  <PEOE_VSA2>
4.79

>  <PEOE_VSA3>
0

>  <PEOE_VSA4>
0

>  <PEOE_VSA5>
0

>  <PEOE_VSA6>
30.82

>  <PEOE_VSA7>
69.61

>  <PEOE_VSA8>
34.49

>  <PEOE_VSA9>
11.37

>  <PEOE_VSA10>
0

>  <PEOE_VSA11>
0

>  <PEOE_VSA12>
0

>  <PEOE_VSA13>
5.91

>  <SMR_VSA1>
4.79

>  <SMR_VSA2>
0

>  <SMR_VSA3>
10.22

>  <SMR_VSA4>
0

>  <SMR_VSA5>
48.94

>  <SMR_VSA6>
31.08

>  <SMR_VSA7>
48.03

>  <SMR_VSA8>
0

>  <SMR_VSA9>
0

>  <SlogP_VSA1>
10.22

>  <SlogP_VSA2>
43.03

>  <SlogP_VSA3>
0

>  <SlogP_VSA4>
0

>  <SlogP_VSA5>
43.47

>  <SlogP_VSA6>
52.26

>  <SlogP_VSA7>
0

>  <SlogP_VSA8>
0

>  <SlogP_VSA9>
0

>  <SlogP_VSA10>
11.37

>  <SlogP_VSA11>
0

>  <EState_VSA1>
0

>  <EState_VSA2>
5.91

>  <EState_VSA3>
12.59

>  <EState_VSA4>
24.22

>  <EState_VSA5>
41.41

>  <EState_VSA6>
11.76

>  <EState_VSA7>
6.07

>  <EState_VSA8>
65.36

>  <EState_VSA9>
0

>  <EState_VSA10>
4.79

>  <VSA_EState1>
0

>  <VSA_EState2>
20.05

>  <VSA_EState3>
3

>  <VSA_EState4>
3.14

>  <VSA_EState5>
0.01

>  <VSA_EState6>
15.08

>  <VSA_EState7>
3.55

>  <VSA_EState8>
8.52

>  <VSA_EState9>
0

>  <apol>
64.75

>  <bpol>
36.41

>  <nRing>
4

>  <nHRing>
2

>  <naRing>
2

>  <naHRing>
0

>  <nARing 2>
2

>  <nAHRing 2>
2

>  <nFRing>
1

>  <nFHRing>
1

>  <nFaRing>
0

>  <nFaHRing>
0

>  <nFARing 2>
1

>  <nFAHRing 2>
1

>  <nRot>
6

>  <SLogP>
4.91

>  <SMR>
116.91

>  <TopoPSA(NO)>
35.58

>  <TopoPSA>
60.88

>  <JGI1>
0.15

>  <JGI2>
0.07

>  <JGI3>
0.04

>  <JGI4>
0.04

>  <JGI5>
0.02

>  <Diameter>
13

>  <Radius>
7

>  <TMWC10>
136.07

>  <TSRW10>
76.6

>  <MW>
395.2

>  <AMW>
6.93

>  <WPath>
1977

>  <WPol>
45

>  <Zagreb1>
148

>  <Zagreb2>
176

>  <mZagreb2>
6.25

>  <yes>


>  <nAR-cont>
1

>  <nHA-cont>
0.82432561

>  <MWHBN>
0.251513636

>  <MWHBN-cont>
0.95719593

>  <TPSA-cont>
0.575019796

>  <pka_cont>
0.97

>  <yes.1>


>  <BBB_SCORE>
4.895159097

>  <MMFF94 Energy>
89.863

$$$$
Compound 1183
Actelion Java MolfileCreator 2.0

  0  0  0  0  0  0              0 V3000
M  V30 BEGIN CTAB
M  V30 COUNTS 52 53 0 0 0
M  V30 BEGIN ATOM
M  V30 1 O 3.3865 2.8346 -1.0229 0
M  V30 2 C 2.8616 1.9335 -0.3651 0
M  V30 3 C 3.6325 1.341 0.7844 0
M  V30 4 C 1.4728 1.4269 -0.7025 0
M  V30 5 C 3.1265 0.4036 1.7057 0
M  V30 6 C 4.9585 1.7928 0.9361 0
M  V30 7 C 0.8942 2.112 -1.9418 0
M  V30 8 O 1.8452 -0.0456 1.5513 0
M  V30 9 C 3.9611 -0.0798 2.7261 0
M  V30 10 C 5.7717 1.318 1.9648 0
M  V30 11 C -0.4683 1.5688 -2.3041 0
M  V30 12 C 1.1465 -0.4759 2.7249 0
M  V30 13 C 5.2732 0.3783 2.857 0
M  V30 14 C -0.6426 0.7976 -3.4605 0
M  V30 15 C -1.5793 1.8287 -1.4892 0
M  V30 16 C -0.365 -0.5232 2.4389 0 CFG=1
M  V30 17 C -1.9036 0.3024 -3.7982 0
M  V30 18 C -2.8392 1.3334 -1.8283 0
M  V30 19 O -0.8677 0.8018 2.1896 0
M  V30 20 C -0.688 -1.4155 1.2245 0
M  V30 21 C -3.0017 0.5725 -2.9839 0
M  V30 22 N -2.1463 -1.5256 1.0528 0
M  V30 23 C -2.4693 -2.2612 -0.1702 0
M  V30 24 C -3.9858 -2.3068 -0.3578 0
M  V30 25 C -4.3653 -3.0707 -1.6169 0
M  V30 26 H 1.528 0.3483 -0.8859 0
M  V30 27 H 0.8178 1.632 0.1494 0
M  V30 28 H 5.3711 2.525 0.2428 0
M  V30 29 H 0.8096 3.1941 -1.7771 0
M  V30 30 H 1.5807 1.9916 -2.7896 0
M  V30 31 H 3.6189 -0.8334 3.4288 0
M  V30 32 H 6.7929 1.6789 2.0603 0
M  V30 33 H 1.3279 0.2284 3.5463 0
M  V30 34 H 1.491 -1.4774 3.006 0
M  V30 35 H 5.9074 -0.0052 3.6527 0
M  V30 36 H 0.2029 0.5814 -4.1093 0
M  V30 37 H -1.4688 2.4192 -0.5819 0
M  V30 38 H -0.8822 -0.9041 3.3279 0
M  V30 39 H -2.0288 -0.2912 -4.6996 0
M  V30 40 H -3.6928 1.5423 -1.1891 0
M  V30 41 H -0.7076 1.3294 2.9901 0
M  V30 42 H -0.2553 -0.9744 0.3194 0
M  V30 43 H -0.2571 -2.412 1.3721 0
M  V30 44 H -3.9832 0.1888 -3.2484 0
M  V30 45 H -2.5066 -0.5694 0.9766 0
M  V30 46 H -2.0064 -1.7822 -1.0407 0
M  V30 47 H -2.0803 -3.2839 -0.1012 0
M  V30 48 H -4.4575 -2.7878 0.5077 0
M  V30 49 H -4.39 -1.2893 -0.4222 0
M  V30 50 H -5.4532 -3.088 -1.736 0
M  V30 51 H -3.9336 -2.6017 -2.5066 0
M  V30 52 H -4.0124 -4.1056 -1.5686 0
M  V30 END ATOM
M  V30 BEGIN BOND
M  V30 1 2 1 2
M  V30 2 1 2 3
M  V30 3 1 2 4
M  V30 4 2 3 5
M  V30 5 1 3 6
M  V30 6 1 4 7
M  V30 7 1 5 8
M  V30 8 1 5 9
M  V30 9 2 6 10
M  V30 10 1 7 11
M  V30 11 1 8 12
M  V30 12 2 9 13
M  V30 13 2 11 14
M  V30 14 1 11 15
M  V30 15 1 12 16
M  V30 16 1 14 17
M  V30 17 2 15 18
M  V30 18 1 16 19
M  V30 19 1 16 20
M  V30 20 2 17 21
M  V30 21 1 20 22
M  V30 22 1 22 23
M  V30 23 1 23 24
M  V30 24 1 24 25
M  V30 25 1 10 13
M  V30 26 1 18 21
M  V30 27 1 4 26
M  V30 28 1 4 27
M  V30 29 1 6 28
M  V30 30 1 7 29
M  V30 31 1 7 30
M  V30 32 1 9 31
M  V30 33 1 10 32
M  V30 34 1 12 33
M  V30 35 1 12 34
M  V30 36 1 13 35
M  V30 37 1 14 36
M  V30 38 1 15 37
M  V30 39 1 16 38
M  V30 40 1 17 39
M  V30 41 1 18 40
M  V30 42 1 19 41
M  V30 43 1 20 42
M  V30 44 1 20 43
M  V30 45 1 21 44
M  V30 46 1 22 45
M  V30 47 1 23 46
M  V30 48 1 23 47
M  V30 49 1 24 48
M  V30 50 1 24 49
M  V30 51 1 25 50
M  V30 52 1 25 51
M  V30 53 1 25 52
M  V30 END BOND
M  V30 BEGIN COLLECTION
M  V30 MDLV30/STERAC1 ATOMS=(1 16)
M  V30 END COLLECTION
M  V30 END CTAB
M  END
>  <Column 1>
1405

>  <level_0>
1555

>  <index>
1555

>  <Unnamed: 0>
1555

>  <NO.>
1567

>  <Name>
propafenone

>  <IUPAC_name>
1-[2-[2-hydroxy-3-(propylamino)propoxy]phenyl]-3-phenylpropan-1-one

>  <SMILES>
CCCNCC(O)COc1ccccc1C(=O)CCc1ccccc1

>  <CID>
4932

>  <logBB>


>  <BBB+/BBB->
BBB-

>  <Inchi>
InChI=1S/C21H27NO3/c1-2-14-22-15-18(23)16-25-21-11-7-6-10-19(21)20(24)13-12-17-8-4-3-5-9-17/h3-11-18-22-23H-2-12-16H2-1H3

>  <threshold>
-1

>  <reference>
R1|R19|R6|R15|R27|R27|R30|

>  <group>
B

>  <Class>
1

>  <ABC>
18.52

>  <ABCGG>
14.83

>  <nAcid>
0

>  <nBase>
1

>  <nAromAtom>
12

>  <nAromBond>
12

>  <nAtom>
52

>  <nHeavyAtom>
25

>  <nSpiro>
0

>  <nBridgehead>
0

>  <nHetero>
4

>  <nN>
1

>  <nO>
3

>  <nF>
0

>  <BalabanJ>
1.7

>  <BertzCT>
642.6

>  <nBonds>
53

>  <nBondsO>
26

>  <nBondsS>
40

>  <nBondsD>
1

>  <nBondsT>
0

>  <nBondsA>
12

>  <nBondsM>
13

>  <nBondsKS>
46

>  <nBondsKD>
7

>  <RNCG>
0.23

>  <RPCG>
0.1

>  <FCSP3>
0.38

>  <SZ>
30.67

>  <Sm>
28.43

>  <Sv>
31.22

>  <Sse>
51.64

>  <Sp>
33.88

>  <Si>
58.53

>  <MZ>
0.59

>  <Mm>
0.55

>  <Mv>
0.6

>  <Mse>
0.99

>  <Mp>
0.65

>  <Mi>
1.13

>  <NsCH3>
1

>  <NdCH2>
0

>  <NssCH2>
6

>  <NtCH>
0

>  <NdsCH>
0

>  <NaaCH>
9

>  <NsssCH>
1

>  <NddC>
0

>  <NtsC>
0

>  <NdssC>
1

>  <NaasC>
3

>  <NaaaC>
0

>  <NssssC>
0

>  <NsNH3>
0

>  <NsNH2>
0

>  <NssNH2>
0

>  <NdNH>
0

>  <NssNH>
1

>  <NaaNH>
0

>  <NtN>
0

>  <NsssNH>
0

>  <NdsN>
0

>  <NaaN>
0

>  <NsssN>
0

>  <NddsN>
0

>  <NaasN>
0

>  <NssssN>
0

>  <NsOH>
1

>  <NdO>
1

>  <NssO>
1

>  <NaaO>
0

>  <NsF>
0

>  <NsSiH3>
0

>  <NssSiH2>
0

>  <NsssSiH>
0

>  <NssssSi>
0

>  <NsPH2>
0

>  <NssPH>
0

>  <NsssP>
0

>  <NdsssP>
0

>  <NsssssP>
0

>  <NsSH>
0

>  <NdS>
0

>  <NssS>
0

>  <NaaS>
0

>  <NdssS>
0

>  <NddssS>
0

>  <NsCl>
0

>  <NsBr>
0

>  <NsI>
0

>  <fragCpx>
76.04

>  <fMF>
0.29

>  <nHBAcc>
4

>  <nHBDon>
2

>  <Kier1>
21.3

>  <Kier2>
12.4

>  <Lipinski>
1

>  <GhoseFilter>
1

>  <FilterItLogS>
-5.55

>  <VMcGowan>
282.52

>  <LabuteASA>
149.39

>  <PEOE_VSA1>
15.16

>  <PEOE_VSA2>
4.79

>  <PEOE_VSA3>
0

>  <PEOE_VSA4>
0

>  <PEOE_VSA5>
0

>  <PEOE_VSA6>
49.39

>  <PEOE_VSA7>
37.08

>  <PEOE_VSA8>
12.97

>  <PEOE_VSA9>
5.56

>  <PEOE_VSA10>
18.46

>  <PEOE_VSA11>
5.78

>  <PEOE_VSA12>
0

>  <PEOE_VSA13>
0

>  <SMR_VSA1>
14.64

>  <SMR_VSA2>
0

>  <SMR_VSA3>
5.32

>  <SMR_VSA4>
0

>  <SMR_VSA5>
32.29

>  <SMR_VSA6>
19.7

>  <SMR_VSA7>
65.72

>  <SMR_VSA8>
0

>  <SMR_VSA9>
5.75

>  <SlogP_VSA1>
10.05

>  <SlogP_VSA2>
36.69

>  <SlogP_VSA3>
6.42

>  <SlogP_VSA4>
0

>  <SlogP_VSA5>
35.69

>  <SlogP_VSA6>
54.6

>  <SlogP_VSA7>
0

>  <SlogP_VSA8>
0

>  <SlogP_VSA9>
0

>  <SlogP_VSA10>
0

>  <SlogP_VSA11>
5.75

>  <EState_VSA1>
6.1

>  <EState_VSA2>
12.39

>  <EState_VSA3>
30.7

>  <EState_VSA4>
18.53

>  <EState_VSA5>
0

>  <EState_VSA6>
12.13

>  <EState_VSA7>
42.46

>  <EState_VSA8>
12.24

>  <EState_VSA9>
4.74

>  <EState_VSA10>
9.9

>  <VSA_EState1>
5.69

>  <VSA_EState2>
12.54

>  <VSA_EState3>
13.1

>  <VSA_EState4>
1.72

>  <VSA_EState5>
0.59

>  <VSA_EState6>
17.2

>  <VSA_EState7>
1.56

>  <VSA_EState8>
3.59

>  <VSA_EState9>
0

>  <apol>
56.58

>  <bpol>
30.26

>  <nRing>
2

>  <nHRing>
0

>  <naRing>
2

>  <naHRing>
0

>  <nARing 2>
0

>  <nAHRing 2>
0

>  <nFRing>
0

>  <nFHRing>
0

>  <nFaRing>
0

>  <nFaHRing>
0

>  <nFARing 2>
0

>  <nFAHRing 2>
0

>  <nRot>
11

>  <SLogP>
3.24

>  <SMR>
100.2

>  <TopoPSA(NO)>
58.56

>  <TopoPSA>
58.56

>  <JGI1>
0.13

>  <JGI2>
0.07

>  <JGI3>
0.03

>  <JGI4>
0.03

>  <JGI5>
0.02

>  <Diameter>
16

>  <Radius>
8

>  <TMWC10>
123.03

>  <TSRW10>
58.6

>  <MW>
341.2

>  <AMW>
6.56

>  <WPath>
1786

>  <WPol>
32

>  <Zagreb1>
116

>  <Zagreb2>
128

>  <mZagreb2>
5.89

>  <yes>


>  <nAR-cont>
0.336376

>  <nHA-cont>
0.921834225

>  <MWHBN>
0.324822975

>  <MWHBN-cont>
0.760799271

>  <TPSA-cont>
0.591214836

>  <pka_cont>
0.97

>  <yes.1>


>  <BBB_SCORE>
4.066838804

>  <MMFF94 Energy>
92.878

$$$$
Compound 1184
Actelion Java MolfileCreator 2.0

  0  0  0  0  0  0              0 V3000
M  V30 BEGIN CTAB
M  V30 COUNTS 58 60 0 0 0
M  V30 BEGIN ATOM
M  V30 1 Cl -2.2543 -4.674 -6.6937 0
M  V30 2 C -2.8093 -3.8593 -5.2738 0
M  V30 3 C -4.0443 -4.1413 -4.6817 0
M  V30 4 C -1.9754 -2.8831 -4.7163 0
M  V30 5 Cl -5.1284 -5.3283 -5.3155 0
M  V30 6 C -4.4373 -3.4488 -3.5332 0
M  V30 7 C -2.3688 -2.1772 -3.5691 0
M  V30 8 C -3.6041 -2.4745 -2.9782 0
M  V30 9 C -1.4575 -1.1352 -2.9582 0
M  V30 10 C -0.5356 -1.6706 -1.8659 0
M  V30 11 O -0.5125 -2.8683 -1.5765 0
M  V30 12 N 0.2963 -0.7523 -1.2283 0
M  V30 13 C 0.2105 0.7297 -1.3837 0 CFG=2
M  V30 14 C 1.195 -1.2597 -0.1707 0
M  V30 15 C 1.5954 1.4145 -1.2533 0
M  V30 16 C -0.8659 1.4015 -0.4715 0
M  V30 17 C 2.5453 -0.5362 -0.1205 0
M  V30 18 N 2.3559 0.9093 -0.1239 0
M  V30 19 N -0.6881 1.1714 0.9746 0
M  V30 20 C 2.6733 1.7441 0.9256 0
M  V30 21 C -1.6447 0.1772 1.493 0
M  V30 22 C -0.9815 2.3749 1.7696 0
M  V30 23 O 2.4549 2.951 0.9316 0
M  V30 24 O 3.2655 1.0818 1.9559 0
M  V30 25 C -2.9164 0.9445 1.8348 0
M  V30 26 C -2.4935 2.4046 1.9135 0
M  V30 27 C 3.5856 1.9053 3.0836 0
M  V30 28 C 4.2016 1.0151 4.1558 0
M  V30 29 C 4.5753 1.803 5.3984 0
M  V30 30 H -1.0096 -2.679 -5.1742 0
M  V30 31 H -5.3912 -3.6687 -3.0596 0
M  V30 32 H -3.9219 -1.9584 -2.0741 0
M  V30 33 H -0.8389 -0.6955 -3.7498 0
M  V30 34 H -2.0806 -0.333 -2.5502 0
M  V30 35 H -0.1186 0.9337 -2.4088 0
M  V30 36 H 0.6761 -1.1481 0.7852 0
M  V30 37 H 1.3754 -2.3316 -0.3049 0
M  V30 38 H 2.1889 1.1876 -2.1482 0
M  V30 39 H 1.4874 2.5035 -1.2126 0
M  V30 40 H -1.8639 1.0813 -0.7954 0
M  V30 41 H -0.8303 2.477 -0.6931 0
M  V30 42 H 3.1316 -0.7835 -1.0136 0
M  V30 43 H 3.116 -0.8733 0.7489 0
M  V30 44 H -1.8342 -0.6549 0.8068 0
M  V30 45 H -1.2269 -0.2603 2.4085 0
M  V30 46 H -0.518 2.2611 2.758 0
M  V30 47 H -0.5772 3.2979 1.3403 0
M  V30 48 H -3.3416 0.599 2.7828 0
M  V30 49 H -3.6773 0.8158 1.057 0
M  V30 50 H -2.8053 2.8706 2.8534 0
M  V30 51 H -2.9488 2.9678 1.0905 0
M  V30 52 H 2.6723 2.3765 3.4659 0
M  V30 53 H 4.3003 2.6792 2.7802 0
M  V30 54 H 3.4977 0.2163 4.419 0
M  V30 55 H 5.0891 0.5135 3.7518 0
M  V30 56 H 5.0144 1.1401 6.1503 0
M  V30 57 H 5.3073 2.5822 5.1633 0
M  V30 58 H 3.6945 2.2807 5.8395 0
M  V30 END ATOM
M  V30 BEGIN BOND
M  V30 1 1 1 2
M  V30 2 2 2 3
M  V30 3 1 2 4
M  V30 4 1 3 5
M  V30 5 1 3 6
M  V30 6 2 4 7
M  V30 7 2 6 8
M  V30 8 1 7 9
M  V30 9 1 9 10
M  V30 10 2 10 11
M  V30 11 1 10 12
M  V30 12 1 12 13
M  V30 13 1 12 14
M  V30 14 1 13 15
M  V30 15 1 13 16
M  V30 16 1 14 17
M  V30 17 1 15 18
M  V30 18 1 16 19
M  V30 19 1 18 20
M  V30 20 1 19 21
M  V30 21 1 19 22
M  V30 22 2 20 23
M  V30 23 1 20 24
M  V30 24 1 21 25
M  V30 25 1 22 26
M  V30 26 1 24 27
M  V30 27 1 27 28
M  V30 28 1 28 29
M  V30 29 1 7 8
M  V30 30 1 17 18
M  V30 31 1 25 26
M  V30 32 1 4 30
M  V30 33 1 6 31
M  V30 34 1 8 32
M  V30 35 1 9 33
M  V30 36 1 9 34
M  V30 37 1 13 35
M  V30 38 1 14 36
M  V30 39 1 14 37
M  V30 40 1 15 38
M  V30 41 1 15 39
M  V30 42 1 16 40
M  V30 43 1 16 41
M  V30 44 1 17 42
M  V30 45 1 17 43
M  V30 46 1 21 44
M  V30 47 1 21 45
M  V30 48 1 22 46
M  V30 49 1 22 47
M  V30 50 1 25 48
M  V30 51 1 25 49
M  V30 52 1 26 50
M  V30 53 1 26 51
M  V30 54 1 27 52
M  V30 55 1 27 53
M  V30 56 1 28 54
M  V30 57 1 28 55
M  V30 58 1 29 56
M  V30 59 1 29 57
M  V30 60 1 29 58
M  V30 END BOND
M  V30 BEGIN COLLECTION
M  V30 MDLV30/STEABS ATOMS=(1 13)
M  V30 END COLLECTION
M  V30 END CTAB
M  END
>  <Column 1>
1406

>  <level_0>
1556

>  <index>
1556

>  <Unnamed: 0>
1556

>  <NO.>
1568

>  <Name>
gr89696_pr

>  <IUPAC_name>
propyl (3s)-4-[2-(3-4-dichlorophenyl)acetyl]-3-(pyrrolidin-1-ylmethyl)piperazine-1-carboxylate

>  <SMILES>
CCCOC(=O)N1CCN(C(=O)Cc2ccc(Cl)c(Cl)c2)[C@@H](CN2CCCC2)C1

>  <CID>
44310303

>  <logBB>


>  <BBB+/BBB->
BBB+

>  <Inchi>
InChI=1S/C21H29Cl2N3O3/c1-2-11-29-21(28)25-9-10-26(17(15-25)14-24-7-3-4-8-24)20(27)13-16-5-6-18(22)19(23)12-16/h5-6-12-17H-2-4-7-11-13-15H2-1H3/t17-/m0/s1

>  <threshold>
-1

>  <reference>
R1|R13|R28|R9|R24|R27|R30|

>  <group>
B

>  <Class>
1

>  <ABC>
22.2

>  <ABCGG>
17.98

>  <nAcid>
0

>  <nBase>
1

>  <nAromAtom>
6

>  <nAromBond>
6

>  <nAtom>
58

>  <nHeavyAtom>
29

>  <nSpiro>
0

>  <nBridgehead>
0

>  <nHetero>
8

>  <nN>
3

>  <nO>
3

>  <nF>
0

>  <BalabanJ>
1.58

>  <BertzCT>
725.12

>  <nBonds>
60

>  <nBondsO>
31

>  <nBondsS>
52

>  <nBondsD>
2

>  <nBondsT>
0

>  <nBondsA>
6

>  <nBondsM>
8

>  <nBondsKS>
55

>  <nBondsKD>
5

>  <RNCG>
0.19

>  <RPCG>
0.17

>  <FCSP3>
0.62

>  <SZ>
39

>  <Sm>
36.83

>  <Sv>
35.46

>  <Sse>
58.39

>  <Sp>
38.61

>  <Si>
65.83

>  <MZ>
0.67

>  <Mm>
0.64

>  <Mv>
0.61

>  <Mse>
1.01

>  <Mp>
0.67

>  <Mi>
1.13

>  <NsCH3>
1

>  <NdCH2>
0

>  <NssCH2>
11

>  <NtCH>
0

>  <NdsCH>
0

>  <NaaCH>
3

>  <NsssCH>
1

>  <NddC>
0

>  <NtsC>
0

>  <NdssC>
2

>  <NaasC>
3

>  <NaaaC>
0

>  <NssssC>
0

>  <NsNH3>
0

>  <NsNH2>
0

>  <NssNH2>
0

>  <NdNH>
0

>  <NssNH>
0

>  <NaaNH>
0

>  <NtN>
0

>  <NsssNH>
0

>  <NdsN>
0

>  <NaaN>
0

>  <NsssN>
3

>  <NddsN>
0

>  <NaasN>
0

>  <NssssN>
0

>  <NsOH>
0

>  <NdO>
2

>  <NssO>
1

>  <NaaO>
0

>  <NsF>
0

>  <NsSiH3>
0

>  <NssSiH2>
0

>  <NsssSiH>
0

>  <NssssSi>
0

>  <NsPH2>
0

>  <NssPH>
0

>  <NsssP>
0

>  <NdsssP>
0

>  <NsssssP>
0

>  <NsSH>
0

>  <NdS>
0

>  <NssS>
0

>  <NaaS>
0

>  <NdssS>
0

>  <NddssS>
0

>  <NsCl>
2

>  <NsBr>
0

>  <NsI>
0

>  <fragCpx>
149.08

>  <fMF>
0.34

>  <nHBAcc>
4

>  <nHBDon>
0

>  <Kier1>
23.66

>  <Kier2>
11.57

>  <Lipinski>
1

>  <GhoseFilter>
1

>  <FilterItLogS>
-4.7

>  <VMcGowan>
324.7

>  <LabuteASA>
182.22

>  <PEOE_VSA1>
19.44

>  <PEOE_VSA2>
4.79

>  <PEOE_VSA3>
4.79

>  <PEOE_VSA4>
0

>  <PEOE_VSA5>
0

>  <PEOE_VSA6>
36.19

>  <PEOE_VSA7>
50.05

>  <PEOE_VSA8>
26.18

>  <PEOE_VSA9>
29.11

>  <PEOE_VSA10>
0

>  <PEOE_VSA11>
0

>  <PEOE_VSA12>
5.91

>  <PEOE_VSA13>
0

>  <SMR_VSA1>
14.33

>  <SMR_VSA2>
0

>  <SMR_VSA3>
14.7

>  <SMR_VSA4>
0

>  <SMR_VSA5>
38.65

>  <SMR_VSA6>
45.88

>  <SMR_VSA7>
33.81

>  <SMR_VSA8>
0

>  <SMR_VSA9>
0

>  <SlogP_VSA1>
0

>  <SlogP_VSA2>
78.62

>  <SlogP_VSA3>
15.95

>  <SlogP_VSA4>
0

>  <SlogP_VSA5>
31.75

>  <SlogP_VSA6>
18.2

>  <SlogP_VSA7>
10.05

>  <SlogP_VSA8>
0

>  <SlogP_VSA9>
0

>  <SlogP_VSA10>
4.79

>  <SlogP_VSA11>
0

>  <EState_VSA1>
0

>  <EState_VSA2>
24.46

>  <EState_VSA3>
36.29

>  <EState_VSA4>
31.62

>  <EState_VSA5>
12.84

>  <EState_VSA6>
17.03

>  <EState_VSA7>
17.89

>  <EState_VSA8>
4.9

>  <EState_VSA9>
27.94

>  <EState_VSA10>
9.59

>  <VSA_EState1>
5.31

>  <VSA_EState2>
31.47

>  <VSA_EState3>
0.93

>  <VSA_EState4>
0.84

>  <VSA_EState5>
0.05

>  <VSA_EState6>
5.26

>  <VSA_EState7>
3.16

>  <VSA_EState8>
6.79

>  <VSA_EState9>
0

>  <apol>
64.47

>  <bpol>
38.72

>  <nRing>
3

>  <nHRing>
2

>  <naRing>
1

>  <naHRing>
0

>  <nARing 2>
2

>  <nAHRing 2>
2

>  <nFRing>
0

>  <nFHRing>
0

>  <nFaRing>
0

>  <nFaHRing>
0

>  <nFARing 2>
0

>  <nFAHRing 2>
0

>  <nRot>
6

>  <SLogP>
3.69

>  <SMR>
114.55

>  <TopoPSA(NO)>
53.09

>  <TopoPSA>
53.09

>  <JGI1>
0.19

>  <JGI2>
0.08

>  <JGI3>
0.05

>  <JGI4>
0.04

>  <JGI5>
0.03

>  <Diameter>
15

>  <Radius>
8

>  <TMWC10>
135.62

>  <TSRW10>
77.22

>  <MW>
441.16

>  <AMW>
7.61

>  <WPath>
2383

>  <WPol>
42

>  <Zagreb1>
146

>  <Zagreb2>
168

>  <mZagreb2>
6.53

>  <yes>


>  <nAR-cont>
1

>  <nHA-cont>
0.785905698

>  <MWHBN>
0.190441646

>  <MWHBN-cont>
0.995909823

>  <TPSA-cont>
0.629398833

>  <pka_cont>
0.97

>  <yes.1>


>  <BBB_SCORE>
5.023568098

>  <MMFF94 Energy>
53.51

$$$$
Compound 1185
Actelion Java MolfileCreator 2.0

  0  0  0  0  0  0              0 V3000
M  V30 BEGIN CTAB
M  V30 COUNTS 37 38 0 0 0
M  V30 BEGIN ATOM
M  V30 1 O 0.8667 -1.1821 -1.1821 0
M  V30 2 C 1.4114 -0.2982 -0.5339 0
M  V30 3 O 2.3649 0.5391 -1.0316 0
M  V30 4 C 1.1652 0.0134 0.8512 0
M  V30 5 C 2.6811 0.3275 -2.4126 0
M  V30 6 N 0.2115 -0.546 1.6872 0
M  V30 7 C 1.8098 0.9356 1.6588 0
M  V30 8 C 3.7323 1.3453 -2.8435 0
M  V30 9 C 0.3408 0.0552 2.9132 0
M  V30 10 C -0.7714 -1.5802 1.3482 0 CFG=2
M  V30 11 N 1.301 0.9472 2.927 0
M  V30 12 C 3.221 2.7766 -2.7583 0
M  V30 13 C -2.0398 -0.9531 0.7879 0
M  V30 14 C -1.0715 -2.5548 2.4972 0
M  V30 15 C -2.898 -0.1733 1.5816 0
M  V30 16 C -2.3778 -1.151 -0.5609 0
M  V30 17 C -4.0565 0.3894 1.0411 0
M  V30 18 C -3.5364 -0.5875 -1.0993 0
M  V30 19 C -4.3756 0.1819 -0.2982 0
M  V30 20 H 1.7768 0.4371 -3.0229 0
M  V30 21 H 3.0842 -0.6839 -2.5393 0
M  V30 22 H 2.6251 1.5936 1.3825 0
M  V30 23 H 4.6161 1.2541 -2.2015 0
M  V30 24 H 4.0429 1.1332 -3.8724 0
M  V30 25 H -0.2862 -0.1857 3.7615 0
M  V30 26 H -0.3011 -2.1997 0.5776 0
M  V30 27 H 3.9923 3.4736 -3.1011 0
M  V30 28 H 2.3357 2.914 -3.3874 0
M  V30 29 H 2.9576 3.0456 -1.7304 0
M  V30 30 H -1.5763 -2.0728 3.3411 0
M  V30 31 H -1.7229 -3.3657 2.1516 0
M  V30 32 H -0.1467 -3.0044 2.8758 0
M  V30 33 H -2.6751 0.0122 2.6296 0
M  V30 34 H -1.7357 -1.7444 -1.2103 0
M  V30 35 H -4.7088 0.994 1.6664 0
M  V30 36 H -3.7808 -0.748 -2.1463 0
M  V30 37 H -5.2759 0.6224 -0.7182 0
M  V30 END ATOM
M  V30 BEGIN BOND
M  V30 1 2 1 2
M  V30 2 1 2 3
M  V30 3 1 2 4
M  V30 4 1 3 5
M  V30 5 1 4 6
M  V30 6 2 4 7
M  V30 7 1 5 8
M  V30 8 1 6 9
M  V30 9 1 6 10
M  V30 10 1 7 11
M  V30 11 1 8 12
M  V30 12 1 10 13
M  V30 13 1 10 14
M  V30 14 2 13 15
M  V30 15 1 13 16
M  V30 16 1 15 17
M  V30 17 2 16 18
M  V30 18 2 17 19
M  V30 19 2 9 11
M  V30 20 1 18 19
M  V30 21 1 5 20
M  V30 22 1 5 21
M  V30 23 1 7 22
M  V30 24 1 8 23
M  V30 25 1 8 24
M  V30 26 1 9 25
M  V30 27 1 10 26
M  V30 28 1 12 27
M  V30 29 1 12 28
M  V30 30 1 12 29
M  V30 31 1 14 30
M  V30 32 1 14 31
M  V30 33 1 14 32
M  V30 34 1 15 33
M  V30 35 1 16 34
M  V30 36 1 17 35
M  V30 37 1 18 36
M  V30 38 1 19 37
M  V30 END BOND
M  V30 BEGIN COLLECTION
M  V30 MDLV30/STERAC1 ATOMS=(1 10)
M  V30 END COLLECTION
M  V30 END CTAB
M  END
>  <Column 1>
1407

>  <level_0>
1557

>  <index>
1557

>  <Unnamed: 0>
1557

>  <NO.>
1569

>  <Name>
propoxate

>  <IUPAC_name>
propyl 3-(1-phenylethyl)imidazole-4-carboxylate

>  <SMILES>
CCCOC(=O)c1cncn1C(C)c1ccccc1

>  <CID>
65591

>  <logBB>


>  <BBB+/BBB->
BBB+

>  <Inchi>
InChI=1S/C15H18N2O2/c1-3-9-19-15(18)14-10-16-11-17(14)12(2)13-7-5-4-6-8-13/h4-8-10-12H-3-9H2-1-2H3

>  <threshold>
-1

>  <reference>
R1|R19|R6|R27|R27|R30|

>  <group>
B

>  <Class>
1

>  <ABC>
14.2

>  <ABCGG>
12.97

>  <nAcid>
0

>  <nBase>
0

>  <nAromAtom>
11

>  <nAromBond>
11

>  <nAtom>
37

>  <nHeavyAtom>
19

>  <nSpiro>
0

>  <nBridgehead>
0

>  <nHetero>
4

>  <nN>
2

>  <nO>
2

>  <nF>
0

>  <BalabanJ>
1.89

>  <BertzCT>
534.09

>  <nBonds>
38

>  <nBondsO>
20

>  <nBondsS>
26

>  <nBondsD>
1

>  <nBondsT>
0

>  <nBondsA>
11

>  <nBondsM>
12

>  <nBondsKS>
32

>  <nBondsKD>
6

>  <RNCG>
0.27

>  <RPCG>
0.21

>  <FCSP3>
0.33

>  <SZ>
23

>  <Sm>
21.51

>  <Sv>
22.82

>  <Sse>
36.98

>  <Sp>
24.46

>  <Si>
41.74

>  <MZ>
0.62

>  <Mm>
0.58

>  <Mv>
0.62

>  <Mse>
1

>  <Mp>
0.66

>  <Mi>
1.13

>  <NsCH3>
2

>  <NdCH2>
0

>  <NssCH2>
2

>  <NtCH>
0

>  <NdsCH>
0

>  <NaaCH>
7

>  <NsssCH>
1

>  <NddC>
0

>  <NtsC>
0

>  <NdssC>
1

>  <NaasC>
2

>  <NaaaC>
0

>  <NssssC>
0

>  <NsNH3>
0

>  <NsNH2>
0

>  <NssNH2>
0

>  <NdNH>
0

>  <NssNH>
0

>  <NaaNH>
0

>  <NtN>
0

>  <NsssNH>
0

>  <NdsN>
0

>  <NaaN>
1

>  <NsssN>
0

>  <NddsN>
0

>  <NaasN>
1

>  <NssssN>
0

>  <NsOH>
0

>  <NdO>
1

>  <NssO>
1

>  <NaaO>
0

>  <NsF>
0

>  <NsSiH3>
0

>  <NssSiH2>
0

>  <NsssSiH>
0

>  <NssssSi>
0

>  <NsPH2>
0

>  <NssPH>
0

>  <NsssP>
0

>  <NdsssP>
0

>  <NsssssP>
0

>  <NsSH>
0

>  <NdS>
0

>  <NssS>
0

>  <NaaS>
0

>  <NdssS>
0

>  <NddssS>
0

>  <NsCl>
0

>  <NsBr>
0

>  <NsI>
0

>  <fragCpx>
58.04

>  <fMF>
0.32

>  <nHBAcc>
4

>  <nHBDon>
0

>  <Kier1>
15.39

>  <Kier2>
7.7

>  <Lipinski>
1

>  <GhoseFilter>
1

>  <FilterItLogS>
-3.19

>  <VMcGowan>
206.39

>  <LabuteASA>
112.59

>  <PEOE_VSA1>
9.3

>  <PEOE_VSA2>
0

>  <PEOE_VSA3>
9.78

>  <PEOE_VSA4>
0

>  <PEOE_VSA5>
0

>  <PEOE_VSA6>
37.26

>  <PEOE_VSA7>
18.91

>  <PEOE_VSA8>
0

>  <PEOE_VSA9>
25.17

>  <PEOE_VSA10>
5.69

>  <PEOE_VSA11>
0

>  <PEOE_VSA12>
0

>  <PEOE_VSA13>
0

>  <SMR_VSA1>
9.53

>  <SMR_VSA2>
0

>  <SMR_VSA3>
9.55

>  <SMR_VSA4>
0

>  <SMR_VSA5>
26.31

>  <SMR_VSA6>
6.61

>  <SMR_VSA7>
54.11

>  <SMR_VSA8>
0

>  <SMR_VSA9>
0

>  <SlogP_VSA1>
0

>  <SlogP_VSA2>
22.13

>  <SlogP_VSA3>
4.74

>  <SlogP_VSA4>
0

>  <SlogP_VSA5>
42.36

>  <SlogP_VSA6>
42.86

>  <SlogP_VSA7>
0

>  <SlogP_VSA8>
0

>  <SlogP_VSA9>
0

>  <SlogP_VSA10>
0

>  <SlogP_VSA11>
0

>  <EState_VSA1>
0

>  <EState_VSA2>
12.01

>  <EState_VSA3>
12.3

>  <EState_VSA4>
11.98

>  <EState_VSA5>
0

>  <EState_VSA6>
12.52

>  <EState_VSA7>
48.75

>  <EState_VSA8>
4.98

>  <EState_VSA9>
4.74

>  <EState_VSA10>
4.79

>  <VSA_EState1>
7

>  <VSA_EState2>
16

>  <VSA_EState3>
0

>  <VSA_EState4>
1.62

>  <VSA_EState5>
-0.32

>  <VSA_EState6>
10.06

>  <VSA_EState7>
4.03

>  <VSA_EState8>
4.44

>  <VSA_EState9>
0

>  <apol>
40.86

>  <bpol>
23.51

>  <nRing>
2

>  <nHRing>
1

>  <naRing>
2

>  <naHRing>
1

>  <nARing 2>
0

>  <nAHRing 2>
0

>  <nFRing>
0

>  <nFHRing>
0

>  <nFaRing>
0

>  <nFaHRing>
0

>  <nFARing 2>
0

>  <nFAHRing 2>
0

>  <nRot>
5

>  <SLogP>
3.06

>  <SMR>
73.06

>  <TopoPSA(NO)>
44.12

>  <TopoPSA>
44.12

>  <JGI1>
0.13

>  <JGI2>
0.09

>  <JGI3>
0.05

>  <JGI4>
0.04

>  <JGI5>
0.02

>  <Diameter>
11

>  <Radius>
6

>  <TMWC10>
110.51

>  <TSRW10>
65.36

>  <MW>
258.14

>  <AMW>
6.98

>  <WPath>
731

>  <WPol>
26

>  <Zagreb1>
92

>  <Zagreb2>
106

>  <mZagreb2>
4.44

>  <yes>


>  <nAR-cont>
0.336376

>  <nHA-cont>
0.998649058

>  <MWHBN>
0.248961584

>  <MWHBN-cont>
0.961505697

>  <TPSA-cont>
0.692015003

>  <pka_cont>
0.97

>  <yes.1>


>  <BBB_SCORE>
4.646313609

>  <MMFF94 Energy>
13.14

$$$$
Compound 1186
Actelion Java MolfileCreator 2.0

  0  0  0  0  0  0              0 V3000
M  V30 BEGIN CTAB
M  V30 COUNTS 64 67 0 0 0
M  V30 BEGIN ATOM
M  V30 1 S -5.6934 0.0 -0.6402 0
M  V30 2 C -5.0633 1.196 0.5503 0
M  V30 3 C -5.8158 1.0708 -2.1121 0
M  V30 4 C -3.6841 1.331 0.8477 0
M  V30 5 C -6.009 2.0282 1.173 0
M  V30 6 C -4.4585 1.3073 -2.7685 0
M  V30 7 N -2.7211 0.5041 0.271 0
M  V30 8 C -3.3109 2.3338 1.7603 0
M  V30 9 C -5.6071 3.0086 2.0773 0
M  V30 10 C -4.6076 2.0801 -4.0711 0
M  V30 11 C -1.4338 1.0621 -0.1601 0
M  V30 12 C -2.635 -0.8669 0.7983 0
M  V30 13 C -4.2575 3.1635 2.3683 0
M  V30 14 C -0.7402 0.1021 -1.1567 0
M  V30 15 C -1.9154 -1.7832 -0.2172 0
M  V30 16 N -0.5805 -1.2726 -0.6232 0
M  V30 17 C 0.0277 -2.183 -1.6043 0
M  V30 18 C 1.4867 -1.8554 -1.9543 0
M  V30 19 C 2.4014 -1.8081 -0.728 0
M  V30 20 C 3.8532 -1.5375 -1.1314 0
M  V30 21 N 4.7231 -1.4592 0.0367 0
M  V30 22 C 5.2939 -2.6339 0.5003 0
M  V30 23 C 4.8958 -0.2122 0.6369 0
M  V30 24 O 5.1192 -3.7385 -0.0125 0
M  V30 25 N 6.0964 -2.5349 1.6012 0
M  V30 26 O 4.365 0.8237 0.2416 0
M  V30 27 C 5.7741 -0.162 1.8216 0
M  V30 28 C 6.3548 -1.3425 2.2698 0
M  V30 29 C 6.0234 1.0422 2.4878 0
M  V30 30 C 7.1905 -1.3353 3.3868 0
M  V30 31 C 6.8592 1.0535 3.6054 0
M  V30 32 C 7.4415 -0.1336 4.0535 0
M  V30 33 H -6.2946 2.0197 -1.8474 0
M  V30 34 H -6.4805 0.5617 -2.8185 0
M  V30 35 H -7.0678 1.9172 0.9517 0
M  V30 36 H -3.8043 1.8804 -2.1037 0
M  V30 37 H -3.9626 0.3526 -2.9804 0
M  V30 38 H -2.2663 2.4649 2.0292 0
M  V30 39 H -6.3462 3.6476 2.5528 0
M  V30 40 H -5.2241 1.5275 -4.7873 0
M  V30 41 H -5.0727 3.0557 -3.8971 0
M  V30 42 H -3.6264 2.2476 -4.5261 0
M  V30 43 H -1.5818 2.0287 -0.6569 0
M  V30 44 H -0.7791 1.2208 0.7058 0
M  V30 45 H -2.0787 -0.857 1.7448 0
M  V30 46 H -3.622 -1.2914 1.0121 0
M  V30 47 H -3.9356 3.9232 3.0756 0
M  V30 48 H 0.2394 0.532 -1.3903 0
M  V30 49 H -1.321 0.078 -2.0885 0
M  V30 50 H -2.5558 -1.9027 -1.1017 0
M  V30 51 H -1.8018 -2.7724 0.2424 0
M  V30 52 H -0.5633 -2.2082 -2.5291 0
M  V30 53 H 0.0149 -3.2027 -1.1972 0
M  V30 54 H 1.5443 -0.9065 -2.4999 0
M  V30 55 H 1.8521 -2.6263 -2.6446 0
M  V30 56 H 2.0669 -1.026 -0.0361 0
M  V30 57 H 2.3389 -2.7581 -0.1831 0
M  V30 58 H 3.9131 -0.5974 -1.6925 0
M  V30 59 H 4.2075 -2.3332 -1.7971 0
M  V30 60 H 6.5016 -3.4051 1.9205 0
M  V30 61 H 5.5693 1.9675 2.1396 0
M  V30 62 H 7.6502 -2.251 3.7484 0
M  V30 63 H 7.0557 1.9877 4.1267 0
M  V30 64 H 8.0922 -0.1219 4.9252 0
M  V30 END ATOM
M  V30 BEGIN BOND
M  V30 1 1 1 2
M  V30 2 1 1 3
M  V30 3 2 2 4
M  V30 4 1 2 5
M  V30 5 1 3 6
M  V30 6 1 4 7
M  V30 7 1 4 8
M  V30 8 2 5 9
M  V30 9 1 6 10
M  V30 10 1 7 11
M  V30 11 1 7 12
M  V30 12 2 8 13
M  V30 13 1 11 14
M  V30 14 1 12 15
M  V30 15 1 14 16
M  V30 16 1 16 17
M  V30 17 1 17 18
M  V30 18 1 18 19
M  V30 19 1 19 20
M  V30 20 1 20 21
M  V30 21 1 21 22
M  V30 22 1 21 23
M  V30 23 2 22 24
M  V30 24 1 22 25
M  V30 25 2 23 26
M  V30 26 1 23 27
M  V30 27 1 25 28
M  V30 28 1 27 29
M  V30 29 1 28 30
M  V30 30 2 29 31
M  V30 31 2 30 32
M  V30 32 1 9 13
M  V30 33 1 15 16
M  V30 34 2 27 28
M  V30 35 1 31 32
M  V30 36 1 3 33
M  V30 37 1 3 34
M  V30 38 1 5 35
M  V30 39 1 6 36
M  V30 40 1 6 37
M  V30 41 1 8 38
M  V30 42 1 9 39
M  V30 43 1 10 40
M  V30 44 1 10 41
M  V30 45 1 10 42
M  V30 46 1 11 43
M  V30 47 1 11 44
M  V30 48 1 12 45
M  V30 49 1 12 46
M  V30 50 1 13 47
M  V30 51 1 14 48
M  V30 52 1 14 49
M  V30 53 1 15 50
M  V30 54 1 15 51
M  V30 55 1 17 52
M  V30 56 1 17 53
M  V30 57 1 18 54
M  V30 58 1 18 55
M  V30 59 1 19 56
M  V30 60 1 19 57
M  V30 61 1 20 58
M  V30 62 1 20 59
M  V30 63 1 25 60
M  V30 64 1 29 61
M  V30 65 1 30 62
M  V30 66 1 31 63
M  V30 67 1 32 64
M  V30 END BOND
M  V30 END CTAB
M  END
>  <Column 1>
1408

>  <level_0>
1558

>  <index>
1558

>  <Unnamed: 0>
1558

>  <NO.>
1570

>  <Name>
tioperidone

>  <IUPAC_name>
3-[4-[4-(2-propylsulfanylphenyl)piperazin-1-yl]butyl]-1h-quinazoline-2-4-dione

>  <SMILES>
CCCSc1ccccc1N1CCN(CCCCn2c(=O)[nH]c3ccccc3c2=O)CC1

>  <CID>
40460

>  <logBB>


>  <BBB+/BBB->
BBB+

>  <Inchi>
InChI=1S/C25H32N4O2S/c1-2-19-32-23-12-6-5-11-22(23)28-17-15-27(16-18-28)13-7-8-14-29-24(30)20-9-3-4-10-21(20)26-25(29)31/h3-6-9-12H-2-7-8-13-19H2-1H3-(H-26-31)

>  <threshold>
-1

>  <reference>
R1|R13|R19|R6|R24|R27|R27|R27|R30|R30|

>  <group>
B

>  <Class>
-1

>  <ABC>
24.72

>  <ABCGG>
17.42

>  <nAcid>
0

>  <nBase>
1

>  <nAromAtom>
16

>  <nAromBond>
17

>  <nAtom>
64

>  <nHeavyAtom>
32

>  <nSpiro>
0

>  <nBridgehead>
0

>  <nHetero>
7

>  <nN>
4

>  <nO>
2

>  <nF>
0

>  <BalabanJ>
1.14

>  <BertzCT>
1148.38

>  <nBonds>
67

>  <nBondsO>
35

>  <nBondsS>
48

>  <nBondsD>
2

>  <nBondsT>
0

>  <nBondsA>
17

>  <nBondsM>
19

>  <nBondsKS>
59

>  <nBondsKD>
8

>  <RNCG>
0.15

>  <RPCG>
0.13

>  <FCSP3>
0.44

>  <SZ>
40.33

>  <Sm>
37.68

>  <Sv>
39.32

>  <Sse>
63.6

>  <Sp>
43.11

>  <Si>
72.15

>  <MZ>
0.63

>  <Mm>
0.59

>  <Mv>
0.61

>  <Mse>
0.99

>  <Mp>
0.67

>  <Mi>
1.13

>  <NsCH3>
1

>  <NdCH2>
0

>  <NssCH2>
10

>  <NtCH>
0

>  <NdsCH>
0

>  <NaaCH>
8

>  <NsssCH>
0

>  <NddC>
0

>  <NtsC>
0

>  <NdssC>
0

>  <NaasC>
2

>  <NaaaC>
2

>  <NssssC>
0

>  <NsNH3>
0

>  <NsNH2>
0

>  <NssNH2>
0

>  <NdNH>
0

>  <NssNH>
0

>  <NaaNH>
1

>  <NtN>
0

>  <NsssNH>
0

>  <NdsN>
0

>  <NaaN>
0

>  <NsssN>
2

>  <NddsN>
0

>  <NaasN>
1

>  <NssssN>
0

>  <NsOH>
0

>  <NdO>
2

>  <NssO>
0

>  <NaaO>
0

>  <NsF>
0

>  <NsSiH3>
0

>  <NssSiH2>
0

>  <NsssSiH>
0

>  <NssssSi>
0

>  <NsPH2>
0

>  <NssPH>
0

>  <NsssP>
0

>  <NdsssP>
0

>  <NsssssP>
0

>  <NsSH>
0

>  <NdS>
0

>  <NssS>
1

>  <NaaS>
0

>  <NdssS>
0

>  <NddssS>
0

>  <NsCl>
0

>  <NsBr>
0

>  <NsI>
0

>  <fragCpx>
233.07

>  <fMF>
0.41

>  <nHBAcc>
6

>  <nHBDon>
1

>  <Kier1>
25.1

>  <Kier2>
12.63

>  <Lipinski>
1

>  <GhoseFilter>
0

>  <FilterItLogS>
-6.2

>  <VMcGowan>
353.28

>  <LabuteASA>
192.79

>  <PEOE_VSA1>
9.88

>  <PEOE_VSA2>
14.26

>  <PEOE_VSA3>
4.79

>  <PEOE_VSA4>
0

>  <PEOE_VSA5>
11.76

>  <PEOE_VSA6>
31.19

>  <PEOE_VSA7>
55.83

>  <PEOE_VSA8>
37.62

>  <PEOE_VSA9>
16.59

>  <PEOE_VSA10>
0

>  <PEOE_VSA11>
0

>  <PEOE_VSA12>
0

>  <PEOE_VSA13>
5.56

>  <SMR_VSA1>
0

>  <SMR_VSA2>
0

>  <SMR_VSA3>
14.45

>  <SMR_VSA4>
0

>  <SMR_VSA5>
37.63

>  <SMR_VSA6>
43.38

>  <SMR_VSA7>
69.37

>  <SMR_VSA8>
0

>  <SMR_VSA9>
0

>  <SlogP_VSA1>
16.15

>  <SlogP_VSA2>
52.93

>  <SlogP_VSA3>
6.54

>  <SlogP_VSA4>
0

>  <SlogP_VSA5>
26.19

>  <SlogP_VSA6>
63.02

>  <SlogP_VSA7>
0

>  <SlogP_VSA8>
10.9

>  <SlogP_VSA9>
0

>  <SlogP_VSA10>
5.69

>  <SlogP_VSA11>
0

>  <EState_VSA1>
0

>  <EState_VSA2>
11.25

>  <EState_VSA3>
17.45

>  <EState_VSA4>
51.32

>  <EState_VSA5>
21.57

>  <EState_VSA6>
12.13

>  <EState_VSA7>
23.89

>  <EState_VSA8>
45.97

>  <EState_VSA9>
0

>  <EState_VSA10>
9.59

>  <VSA_EState1>
1.34

>  <VSA_EState2>
34.13

>  <VSA_EState3>
0.57

>  <VSA_EState4>
1.45

>  <VSA_EState5>
1.15

>  <VSA_EState6>
15.92

>  <VSA_EState7>
2.98

>  <VSA_EState8>
7.84

>  <VSA_EState9>
0

>  <apol>
71.99

>  <bpol>
42

>  <nRing>
4

>  <nHRing>
2

>  <naRing>
3

>  <naHRing>
1

>  <nARing 2>
1

>  <nAHRing 2>
1

>  <nFRing>
1

>  <nFHRing>
1

>  <nFaRing>
1

>  <nFaHRing>
1

>  <nFARing 2>
0

>  <nFAHRing 2>
0

>  <nRot>
9

>  <SLogP>
3.79

>  <SMR>
134.17

>  <TopoPSA(NO)>
61.34

>  <TopoPSA>
86.64

>  <JGI1>
0.13

>  <JGI2>
0.08

>  <JGI3>
0.04

>  <JGI4>
0.04

>  <JGI5>
0.02

>  <Diameter>
19

>  <Radius>
10

>  <TMWC10>
144.09

>  <TSRW10>
67.9

>  <MW>
452.22

>  <AMW>
7.07

>  <WPath>
3609

>  <WPol>
51

>  <Zagreb1>
164

>  <Zagreb2>
192

>  <mZagreb2>
7.25

>  <yes>


>  <nAR-cont>
0.816016

>  <nHA-cont>
0.658856097

>  <MWHBN>
0.329172205

>  <MWHBN-cont>
0.745740986

>  <TPSA-cont>
0.395199

>  <pka_cont>
0.97

>  <yes.1>


>  <BBB_SCORE>
3.868881575

>  <MMFF94 Energy>
57.133

$$$$
Compound 1187
Actelion Java MolfileCreator 2.0

  0  0  0  0  0  0              0 V3000
M  V30 BEGIN CTAB
M  V30 COUNTS 60 61 0 0 0
M  V30 BEGIN ATOM
M  V30 1 Cl -2.7318 1.9278 -4.0999 0
M  V30 2 C -2.286 0.6765 -2.8894 0
M  V30 3 C -1.384 1.2622 -1.7731 0
M  V30 4 C -1.7451 -0.5563 -3.6015 0
M  V30 5 N -1.5194 0.4354 -0.5628 0
M  V30 6 C 0.1361 1.4602 -2.0265 0 CFG=1
M  V30 7 C -2.5575 0.5325 0.3323 0
M  V30 8 O 0.7598 0.1795 -2.2628 0
M  V30 9 C 0.5427 2.494 -3.0924 0 CFG=2
M  V30 10 O -3.4693 1.3455 0.2142 0
M  V30 11 C -2.4358 -0.4178 1.5347 0 CFG=1
M  V30 12 C 2.1971 0.2168 -2.2835 0 CFG=2
M  V30 13 O 0.1965 2.106 -4.4285 0
M  V30 14 C 2.073 2.6272 -3.0822 0 CFG=1
M  V30 15 N -1.5831 -1.5912 1.1879 0
M  V30 16 C -1.7077 0.2749 2.692 0
M  V30 17 S 2.8772 0.3964 -0.583 0
M  V30 18 C 2.7259 1.2558 -3.2953 0 CFG=1
M  V30 19 O 2.4933 3.4994 -4.1478 0
M  V30 20 C -0.832 -1.9191 2.4024 0
M  V30 21 C -2.3716 -2.7197 0.7065 0
M  V30 22 C -0.4268 -0.5356 2.8942 0 CFG=2
M  V30 23 C 2.3962 -1.22 0.0666 0
M  V30 24 O 4.1538 1.3752 -3.2892 0
M  V30 25 C 0.0796 -0.4963 4.3372 0
M  V30 26 C 1.3922 -1.2605 4.5183 0
M  V30 27 C 1.909 -1.146 5.944 0
M  V30 28 H -3.2468 0.3935 -2.4437 0
M  V30 29 H -1.7943 2.245 -1.5026 0
M  V30 30 H -0.8618 -0.3347 -4.2069 0
M  V30 31 H -1.484 -1.3396 -2.8825 0
M  V30 32 H -2.5026 -0.9737 -4.2746 0
M  V30 33 H -0.877 -0.3419 -0.4083 0
M  V30 34 H 0.5252 1.8387 -1.0705 0
M  V30 35 H 0.0835 3.4706 -2.903 0
M  V30 36 H -3.4434 -0.7178 1.8488 0
M  V30 37 H 2.5367 -0.7662 -2.6278 0
M  V30 38 H -0.7584 2.274 -4.5531 0
M  V30 39 H 2.4246 3.0822 -2.1498 0
M  V30 40 H -2.3348 0.2294 3.5912 0
M  V30 41 H -1.4762 1.3281 2.4989 0
M  V30 42 H 2.4693 0.9062 -4.3038 0
M  V30 43 H 1.9312 3.2544 -4.9124 0
M  V30 44 H 0.0375 -2.5426 2.1733 0
M  V30 45 H -1.4555 -2.434 3.1448 0
M  V30 46 H -3.0989 -3.0678 1.4486 0
M  V30 47 H -1.7153 -3.558 0.4492 0
M  V30 48 H -2.9135 -2.4479 -0.2058 0
M  V30 49 H 0.35 -0.1267 2.2326 0
M  V30 50 H 1.3148 -1.3566 -0.001 0
M  V30 51 H 2.9019 -2.0175 -0.4835 0
M  V30 52 H 2.6881 -1.2864 1.1181 0
M  V30 53 H 4.3473 2.2195 -3.7432 0
M  V30 54 H -0.6792 -0.9103 5.0131 0
M  V30 55 H 0.2274 0.5501 4.6326 0
M  V30 56 H 1.2504 -2.3198 4.278 0
M  V30 57 H 2.1494 -0.8684 3.8296 0
M  V30 58 H 2.8467 -1.6997 6.0526 0
M  V30 59 H 2.0989 -0.1012 6.21 0
M  V30 60 H 1.187 -1.5568 6.657 0
M  V30 END ATOM
M  V30 BEGIN BOND
M  V30 1 1 1 2
M  V30 2 1 2 3
M  V30 3 1 2 4
M  V30 4 1 3 5
M  V30 5 1 3 6
M  V30 6 1 5 7
M  V30 7 1 6 8
M  V30 8 1 6 9
M  V30 9 2 7 10
M  V30 10 1 7 11
M  V30 11 1 8 12
M  V30 12 1 9 13
M  V30 13 1 9 14
M  V30 14 1 11 15
M  V30 15 1 11 16
M  V30 16 1 12 17
M  V30 17 1 12 18
M  V30 18 1 14 19
M  V30 19 1 15 20
M  V30 20 1 15 21
M  V30 21 1 16 22
M  V30 22 1 17 23
M  V30 23 1 18 24
M  V30 24 1 22 25
M  V30 25 1 25 26
M  V30 26 1 26 27
M  V30 27 1 14 18
M  V30 28 1 20 22
M  V30 29 1 2 28
M  V30 30 1 3 29
M  V30 31 1 4 30
M  V30 32 1 4 31
M  V30 33 1 4 32
M  V30 34 1 5 33
M  V30 35 1 6 34
M  V30 36 1 9 35
M  V30 37 1 11 36
M  V30 38 1 12 37
M  V30 39 1 13 38
M  V30 40 1 14 39
M  V30 41 1 16 40
M  V30 42 1 16 41
M  V30 43 1 18 42
M  V30 44 1 19 43
M  V30 45 1 20 44
M  V30 46 1 20 45
M  V30 47 1 21 46
M  V30 48 1 21 47
M  V30 49 1 21 48
M  V30 50 1 22 49
M  V30 51 1 23 50
M  V30 52 1 23 51
M  V30 53 1 23 52
M  V30 54 1 24 53
M  V30 55 1 25 54
M  V30 56 1 25 55
M  V30 57 1 26 56
M  V30 58 1 26 57
M  V30 59 1 27 58
M  V30 60 1 27 59
M  V30 61 1 27 60
M  V30 END BOND
M  V30 BEGIN COLLECTION
M  V30 MDLV30/STEABS ATOMS=(7 6 9 11 12 14 18 22)
M  V30 END COLLECTION
M  V30 END CTAB
M  END
>  <Column 1>
1409

>  <level_0>
1559

>  <index>
1559

>  <Unnamed: 0>
1559

>  <NO.>
1571

>  <Name>
clindamycin

>  <IUPAC_name>
(2s-4r)-n-[2-chloro-1-[(2r-3r-4s-5r-6r)-3-4-5-trihydroxy-6-methylsulfanyloxan-2-yl]propyl]-1-methyl-4-propylpyrrolidine-2-carboxamide

>  <SMILES>
CCC[C@@H]1C[C@@H](C(=O)NC(C(C)Cl)[C@H]2O[C@H](SC)[C@H](O)[C@@H](O)[C@H]2O)N(C)C1

>  <CID>
29029

>  <logBB>


>  <BBB+/BBB->
BBB-

>  <Inchi>
InChI=1S/C18H33ClN2O5S/c1-5-6-10-7-11(21(3)8-10)17(25)20-12(9(2)19)16-14(23)13(22)15(24)18(26-16)27-4/h9-16-18-22-24H-5-8H2-1-4H3-(H-20-25)/t9?-10--11+-12?-13+-14--15--16--18-/m1/s1

>  <threshold>
-1

>  <reference>
R1|R6|R27|R30|

>  <group>
B

>  <Class>
-1

>  <ABC>
20.24

>  <ABCGG>
18.22

>  <nAcid>
0

>  <nBase>
1

>  <nAromAtom>
0

>  <nAromBond>
0

>  <nAtom>
60

>  <nHeavyAtom>
27

>  <nSpiro>
0

>  <nBridgehead>
0

>  <nHetero>
9

>  <nN>
2

>  <nO>
5

>  <nF>
0

>  <BalabanJ>
2.08

>  <BertzCT>
498.37

>  <nBonds>
61

>  <nBondsO>
28

>  <nBondsS>
60

>  <nBondsD>
1

>  <nBondsT>
0

>  <nBondsA>
0

>  <nBondsM>
1

>  <nBondsKS>
60

>  <nBondsKD>
1

>  <RNCG>
0.13

>  <RPCG>
0.08

>  <FCSP3>
0.94

>  <SZ>
38

>  <Sm>
35.38

>  <Sv>
34.31

>  <Sse>
60.47

>  <Sp>
37.94

>  <Si>
68.55

>  <MZ>
0.63

>  <Mm>
0.59

>  <Mv>
0.57

>  <Mse>
1.01

>  <Mp>
0.63

>  <Mi>
1.14

>  <NsCH3>
4

>  <NdCH2>
0

>  <NssCH2>
4

>  <NtCH>
0

>  <NdsCH>
0

>  <NaaCH>
0

>  <NsssCH>
9

>  <NddC>
0

>  <NtsC>
0

>  <NdssC>
1

>  <NaasC>
0

>  <NaaaC>
0

>  <NssssC>
0

>  <NsNH3>
0

>  <NsNH2>
0

>  <NssNH2>
0

>  <NdNH>
0

>  <NssNH>
1

>  <NaaNH>
0

>  <NtN>
0

>  <NsssNH>
0

>  <NdsN>
0

>  <NaaN>
0

>  <NsssN>
1

>  <NddsN>
0

>  <NaasN>
0

>  <NssssN>
0

>  <NsOH>
3

>  <NdO>
1

>  <NssO>
1

>  <NaaO>
0

>  <NsF>
0

>  <NsSiH3>
0

>  <NssSiH2>
0

>  <NsssSiH>
0

>  <NssssSi>
0

>  <NsPH2>
0

>  <NssPH>
0

>  <NsssP>
0

>  <NdsssP>
0

>  <NsssssP>
0

>  <NsSH>
0

>  <NdS>
0

>  <NssS>
1

>  <NaaS>
0

>  <NdssS>
0

>  <NddssS>
0

>  <NsCl>
1

>  <NsBr>
0

>  <NsI>
0

>  <fragCpx>
82.09

>  <fMF>
0.23

>  <nHBAcc>
7

>  <nHBDon>
4

>  <Kier1>
23.28

>  <Kier2>
10.16

>  <Lipinski>
1

>  <GhoseFilter>
1

>  <FilterItLogS>
-1.2

>  <VMcGowan>
316.36

>  <LabuteASA>
170.33

>  <PEOE_VSA1>
25.37

>  <PEOE_VSA2>
9.69

>  <PEOE_VSA3>
0

>  <PEOE_VSA4>
0

>  <PEOE_VSA5>
23.36

>  <PEOE_VSA6>
13.34

>  <PEOE_VSA7>
38.99

>  <PEOE_VSA8>
6.54

>  <PEOE_VSA9>
17.46

>  <PEOE_VSA10>
29.85

>  <PEOE_VSA11>
0

>  <PEOE_VSA12>
5.91

>  <PEOE_VSA13>
0

>  <SMR_VSA1>
24.85

>  <SMR_VSA2>
0

>  <SMR_VSA3>
10.22

>  <SMR_VSA4>
5.92

>  <SMR_VSA5>
80.42

>  <SMR_VSA6>
19.85

>  <SMR_VSA7>
0

>  <SMR_VSA8>
0

>  <SMR_VSA9>
0

>  <SlogP_VSA1>
5.32

>  <SlogP_VSA2>
93.29

>  <SlogP_VSA3>
9.53

>  <SlogP_VSA4>
5.92

>  <SlogP_VSA5>
33.11

>  <SlogP_VSA6>
0

>  <SlogP_VSA7>
0

>  <SlogP_VSA8>
0

>  <SlogP_VSA9>
0

>  <SlogP_VSA10>
0

>  <SlogP_VSA11>
0

>  <EState_VSA1>
41.27

>  <EState_VSA2>
11.95

>  <EState_VSA3>
5.92

>  <EState_VSA4>
25.81

>  <EState_VSA5>
11.76

>  <EState_VSA6>
13.18

>  <EState_VSA7>
11.95

>  <EState_VSA8>
12.24

>  <EState_VSA9>
16.34

>  <EState_VSA10>
20.11

>  <VSA_EState1>
5.79

>  <VSA_EState2>
14.95

>  <VSA_EState3>
33.02

>  <VSA_EState4>
-0.7

>  <VSA_EState5>
0.35

>  <VSA_EState6>
-0.93

>  <VSA_EState7>
-0.1

>  <VSA_EState8>
4.74

>  <VSA_EState9>
1.94

>  <apol>
63.35

>  <bpol>
40.96

>  <nRing>
2

>  <nHRing>
2

>  <naRing>
0

>  <naHRing>
0

>  <nARing 2>
2

>  <nAHRing 2>
2

>  <nFRing>
0

>  <nFHRing>
0

>  <nFaRing>
0

>  <nFaHRing>
0

>  <nFARing 2>
0

>  <nFAHRing 2>
0

>  <nRot>
7

>  <SLogP>
0.39

>  <SMR>
106.88

>  <TopoPSA(NO)>
102.26

>  <TopoPSA>
127.56

>  <JGI1>
0.23

>  <JGI2>
0.1

>  <JGI3>
0.06

>  <JGI4>
0.05

>  <JGI5>
0.03

>  <Diameter>
13

>  <Radius>
7

>  <TMWC10>
131.05

>  <TSRW10>
75.98

>  <MW>
424.18

>  <AMW>
7.07

>  <WPath>
1843

>  <WPol>
45

>  <Zagreb1>
136

>  <Zagreb2>
161

>  <mZagreb2>
6.14

>  <yes>


>  <nAR-cont>
1

>  <nHA-cont>
0.860070871

>  <MWHBN>
0.534093867

>  <MWHBN-cont>
0

>  <TPSA-cont>
0

>  <pka_cont>
0.97

>  <yes.1>


>  <BBB_SCORE>
2.345070871

>  <MMFF94 Energy>
134.99

$$$$
Compound 1188
Actelion Java MolfileCreator 2.0

  0  0  0  0  0  0              0 V3000
M  V30 BEGIN CTAB
M  V30 COUNTS 78 82 0 0 0
M  V30 BEGIN ATOM
M  V30 1 F -2.7496 0.8081 -1.9403 0
M  V30 2 C -2.488 -0.55 -2.0402 0
M  V30 3 C -3.4375 -1.0934 -3.1877 0 CFG=2
M  V30 4 C -2.7644 -1.1126 -0.6079 0 CFG=1
M  V30 5 C -0.9754 -0.6549 -2.4385 0 CFG=2
M  V30 6 C -3.0631 -0.3664 -4.4927 0
M  V30 7 C -4.9057 -0.8533 -2.8357 0
M  V30 8 C -3.3074 -2.6134 -3.4415 0
M  V30 9 O -2.7822 -2.5362 -0.5784 0
M  V30 10 C -1.7726 -0.5941 0.4594 0
M  V30 11 C -0.1257 -0.035 -1.3204 0 CFG=1
M  V30 12 C -0.7105 0.0552 -3.7763 0
M  V30 13 C -3.9351 0.3514 -5.2241 0
M  V30 14 C -1.6127 -0.4575 -4.8907 0 CFG=2
M  V30 15 C -5.7684 -0.1362 -3.5679 0
M  V30 16 C -0.2952 -0.7498 0.043 0 CFG=1
M  V30 17 C 1.3929 0.0515 -1.4881 0
M  V30 18 C -5.3478 0.5067 -4.8267 0
M  V30 19 F -1.353 0.2815 -6.0069 0
M  V30 20 C 0.7268 0.064 0.8918 0 CFG=1
M  V30 21 C 0.1042 -2.2476 -0.0043 0
M  V30 22 C 1.915 0.293 -0.0522 0 CFG=2
M  V30 23 O -6.1406 1.1389 -5.5125 0
M  V30 24 O 0.2192 1.39 1.1058 0
M  V30 25 C 1.0953 -0.5675 2.2461 0
M  V30 26 O 2.2974 1.6594 0.1053 0
M  V30 27 C 1.3401 2.257 0.9822 0 CFG=1
M  V30 28 O 0.5943 -0.2345 3.3127 0
M  V30 29 O 2.0284 -1.5437 2.1051 0
M  V30 30 C 0.9228 3.6104 0.4146 0
M  V30 31 C 2.5511 -2.1682 3.2929 0 CFG=1
M  V30 32 C 0.0915 4.4745 1.3663 0
M  V30 33 O 3.0448 -1.2625 4.2795 0
M  V30 34 C 1.5132 -3.0878 3.9276 0
M  V30 35 C -1.295 3.9275 1.6663 0
M  V30 36 C 4.1529 -0.5823 3.9081 0
M  V30 37 O 4.7345 -0.6922 2.8399 0
M  V30 38 O 4.5073 0.2366 4.9283 0
M  V30 39 C 5.6578 1.0592 4.6967 0
M  V30 40 C 6.9224 0.3094 5.071 0
M  V30 41 H -3.7601 -0.7796 -0.2921 0
M  V30 42 H -0.6983 -1.7054 -2.5678 0
M  V30 43 H -5.285 -1.324 -1.9312 0
M  V30 44 H -2.2666 -2.9435 -3.506 0
M  V30 45 H -3.7919 -2.8986 -4.3849 0
M  V30 46 H -3.7921 -3.2101 -2.6615 0
M  V30 47 H -3.0698 -2.807 0.3128 0
M  V30 48 H -2.004 0.4636 0.6361 0
M  V30 49 H -1.9387 -1.1145 1.4108 0
M  V30 50 H -0.4733 1.0058 -1.2218 0
M  V30 51 H -0.8465 1.1397 -3.6686 0
M  V30 52 H 0.3334 -0.0833 -4.0821 0
M  V30 53 H -3.6483 0.8694 -6.1333 0
M  V30 54 H -1.3579 -1.4927 -5.1396 0
M  V30 55 H -6.8053 -0.0028 -3.2839 0
M  V30 56 H 1.7857 -0.893 -1.8802 0
M  V30 57 H 1.6811 0.8542 -2.1745 0
M  V30 58 H -0.4161 -2.8107 -0.7808 0
M  V30 59 H 1.1721 -2.3896 -0.1979 0
M  V30 60 H -0.1247 -2.738 0.9485 0
M  V30 61 H 2.7927 -0.3329 0.1317 0
M  V30 62 H 1.8101 2.378 1.9654 0
M  V30 63 H 0.3633 3.4596 -0.5175 0
M  V30 64 H 1.8257 4.1697 0.1386 0
M  V30 65 H 3.3781 -2.8095 2.9621 0
M  V30 66 H 0.6359 4.624 2.306 0
M  V30 67 H -0.0243 5.4653 0.9101 0
M  V30 68 H 1.096 -3.7772 3.1872 0
M  V30 69 H 0.6817 -2.5223 4.3595 0
M  V30 70 H 1.9597 -3.6624 4.7457 0
M  V30 71 H -1.8841 4.6775 2.2043 0
M  V30 72 H -1.8293 3.6746 0.7453 0
M  V30 73 H -1.2476 3.0379 2.3002 0
M  V30 74 H 5.5527 1.9437 5.3337 0
M  V30 75 H 5.6935 1.413 3.6598 0
M  V30 76 H 7.8017 0.949 4.9531 0
M  V30 77 H 6.8723 -0.0344 6.1094 0
M  V30 78 H 7.0512 -0.5802 4.4468 0
M  V30 END ATOM
M  V30 BEGIN BOND
M  V30 1 1 1 2
M  V30 2 1 2 3
M  V30 3 1 2 4
M  V30 4 1 2 5
M  V30 5 1 3 6
M  V30 6 1 3 7
M  V30 7 1 3 8
M  V30 8 1 4 9
M  V30 9 1 4 10
M  V30 10 1 5 11
M  V30 11 1 5 12
M  V30 12 2 6 13
M  V30 13 1 6 14
M  V30 14 2 7 15
M  V30 15 1 10 16
M  V30 16 1 11 17
M  V30 17 1 13 18
M  V30 18 1 14 19
M  V30 19 1 16 20
M  V30 20 1 16 21
M  V30 21 1 17 22
M  V30 22 2 18 23
M  V30 23 1 20 24
M  V30 24 1 20 25
M  V30 25 1 22 26
M  V30 26 1 24 27
M  V30 27 2 25 28
M  V30 28 1 25 29
M  V30 29 1 27 30
M  V30 30 1 29 31
M  V30 31 1 30 32
M  V30 32 1 31 33
M  V30 33 1 31 34
M  V30 34 1 32 35
M  V30 35 1 33 36
M  V30 36 2 36 37
M  V30 37 1 36 38
M  V30 38 1 38 39
M  V30 39 1 39 40
M  V30 40 1 11 16
M  V30 41 1 12 14
M  V30 42 1 15 18
M  V30 43 1 20 22
M  V30 44 1 26 27
M  V30 45 1 4 41
M  V30 46 1 5 42
M  V30 47 1 7 43
M  V30 48 1 8 44
M  V30 49 1 8 45
M  V30 50 1 8 46
M  V30 51 1 9 47
M  V30 52 1 10 48
M  V30 53 1 10 49
M  V30 54 1 11 50
M  V30 55 1 12 51
M  V30 56 1 12 52
M  V30 57 1 13 53
M  V30 58 1 14 54
M  V30 59 1 15 55
M  V30 60 1 17 56
M  V30 61 1 17 57
M  V30 62 1 21 58
M  V30 63 1 21 59
M  V30 64 1 21 60
M  V30 65 1 22 61
M  V30 66 1 27 62
M  V30 67 1 30 63
M  V30 68 1 30 64
M  V30 69 1 31 65
M  V30 70 1 32 66
M  V30 71 1 32 67
M  V30 72 1 34 68
M  V30 73 1 34 69
M  V30 74 1 34 70
M  V30 75 1 35 71
M  V30 76 1 35 72
M  V30 77 1 35 73
M  V30 78 1 39 74
M  V30 79 1 39 75
M  V30 80 1 40 76
M  V30 81 1 40 77
M  V30 82 1 40 78
M  V30 END BOND
M  V30 BEGIN COLLECTION
M  V30 MDLV30/STEABS ATOMS=(10 3 4 5 11 14 16 20 22 27 31)
M  V30 END COLLECTION
M  V30 END CTAB
M  END
>  <Column 1>
1411

>  <level_0>
1561

>  <index>
1561

>  <Unnamed: 0>
1561

>  <NO.>
1573

>  <Name>
itrocinonide

>  <IUPAC_name>
[(1s)-1-ethoxycarbonyloxyethyl] (1s-2s-4r-6r-8s-9s-11s-13s-19s)-12-19-difluoro-11-hydroxy-9-13-dimethyl-16-oxo-6-propyl-5-7-dioxapentacyclo[10.8.0.02-9.04-8.013-18]icosa-14-17-diene-8-carboxylate

>  <SMILES>
CCC[C@@H]1O[C@@H]2C[C@H]3[C@@H]4C[C@H](F)C5=CC(=O)C=C[C@]5(C)C4(F)[C@@H](O)C[C@]3(C)[C@]2(C(=O)O[C@H](C)OC(=O)OCC)O1

>  <CID>
3038481

>  <logBB>


>  <BBB+/BBB->
BBB+

>  <Inchi>
InChI=1S/C29H38F2O9/c1-6-8-23-39-22-13-17-18-12-20(30)19-11-16(32)9-10-26(19-4)28(18-31)21(33)14-27(17-5)29(22-40-23)24(34)37-15(3)38-25(35)36-7-2/h9-11-15-17-18-20-23-33H-6-8-12-14H2-1-5H3/t15--17--18--20--21--22+-23+-26--27--28?-29-/m0/s1

>  <threshold>
-1

>  <reference>
R1|R27|R30|

>  <group>
B

>  <Class>
1

>  <ABC>
31.61

>  <ABCGG>
25.22

>  <nAcid>
0

>  <nBase>
0

>  <nAromAtom>
0

>  <nAromBond>
0

>  <nAtom>
78

>  <nHeavyAtom>
40

>  <nSpiro>
0

>  <nBridgehead>
0

>  <nHetero>
11

>  <nN>
0

>  <nO>
9

>  <nF>
2

>  <BalabanJ>
1.5

>  <BertzCT>
1140.54

>  <nBonds>
82

>  <nBondsO>
44

>  <nBondsS>
77

>  <nBondsD>
5

>  <nBondsT>
0

>  <nBondsA>
0

>  <nBondsM>
5

>  <nBondsKS>
77

>  <nBondsKD>
5

>  <RNCG>
0.11

>  <RPCG>
0.13

>  <FCSP3>
0.76

>  <SZ>
50.33

>  <Sm>
47.34

>  <Sv>
47.02

>  <Sse>
79.76

>  <Sp>
49.16

>  <Si>
88.87

>  <MZ>
0.65

>  <Mm>
0.61

>  <Mv>
0.6

>  <Mse>
1.02

>  <Mp>
0.63

>  <Mi>
1.14

>  <NsCH3>
5

>  <NdCH2>
0

>  <NssCH2>
6

>  <NtCH>
0

>  <NdsCH>
3

>  <NaaCH>
0

>  <NsssCH>
7

>  <NddC>
0

>  <NtsC>
0

>  <NdssC>
4

>  <NaasC>
0

>  <NaaaC>
0

>  <NssssC>
4

>  <NsNH3>
0

>  <NsNH2>
0

>  <NssNH2>
0

>  <NdNH>
0

>  <NssNH>
0

>  <NaaNH>
0

>  <NtN>
0

>  <NsssNH>
0

>  <NdsN>
0

>  <NaaN>
0

>  <NsssN>
0

>  <NddsN>
0

>  <NaasN>
0

>  <NssssN>
0

>  <NsOH>
1

>  <NdO>
3

>  <NssO>
5

>  <NaaO>
0

>  <NsF>
2

>  <NsSiH3>
0

>  <NssSiH2>
0

>  <NsssSiH>
0

>  <NssssSi>
0

>  <NsPH2>
0

>  <NssPH>
0

>  <NsssP>
0

>  <NdsssP>
0

>  <NsssssP>
0

>  <NsSH>
0

>  <NdS>
0

>  <NssS>
0

>  <NaaS>
0

>  <NdssS>
0

>  <NddssS>
0

>  <NsCl>
0

>  <NsBr>
0

>  <NsI>
0

>  <fragCpx>
376.11

>  <fMF>
0.26

>  <nHBAcc>
9

>  <nHBDon>
1

>  <Kier1>
31.43

>  <Kier2>
11.17

>  <Lipinski>
0

>  <GhoseFilter>
0

>  <FilterItLogS>
-4.13

>  <VMcGowan>
400.02

>  <LabuteASA>
231.73

>  <PEOE_VSA1>
28.79

>  <PEOE_VSA2>
4.79

>  <PEOE_VSA3>
18.37

>  <PEOE_VSA4>
0

>  <PEOE_VSA5>
0

>  <PEOE_VSA6>
26.34

>  <PEOE_VSA7>
63.17

>  <PEOE_VSA8>
23.67

>  <PEOE_VSA9>
12.71

>  <PEOE_VSA10>
12.28

>  <PEOE_VSA11>
23.34

>  <PEOE_VSA12>
6.29

>  <PEOE_VSA13>
0

>  <SMR_VSA1>
51.96

>  <SMR_VSA2>
0

>  <SMR_VSA3>
0

>  <SMR_VSA4>
22.67

>  <SMR_VSA5>
108.95

>  <SMR_VSA6>
6.61

>  <SMR_VSA7>
23.8

>  <SMR_VSA8>
0

>  <SMR_VSA9>
0

>  <SlogP_VSA1>
0

>  <SlogP_VSA2>
71.85

>  <SlogP_VSA3>
33.27

>  <SlogP_VSA4>
22.67

>  <SlogP_VSA5>
66.72

>  <SlogP_VSA6>
23.8

>  <SlogP_VSA7>
0

>  <SlogP_VSA8>
0

>  <SlogP_VSA9>
0

>  <SlogP_VSA10>
13.58

>  <SlogP_VSA11>
0

>  <EState_VSA1>
82.8

>  <EState_VSA2>
31.44

>  <EState_VSA3>
12.84

>  <EState_VSA4>
6.08

>  <EState_VSA5>
26

>  <EState_VSA6>
13.85

>  <EState_VSA7>
6.92

>  <EState_VSA8>
0

>  <EState_VSA9>
23.68

>  <EState_VSA10>
19.49

>  <VSA_EState1>
61.13

>  <VSA_EState2>
37.86

>  <VSA_EState3>
11.6

>  <VSA_EState4>
-6.81

>  <VSA_EState5>
-2.94

>  <VSA_EState6>
0

>  <VSA_EState7>
-2.56

>  <VSA_EState8>
8.22

>  <VSA_EState9>
0

>  <apol>
82.1

>  <bpol>
51.63

>  <nRing>
5

>  <nHRing>
1

>  <naRing>
0

>  <naHRing>
0

>  <nARing 2>
5

>  <nAHRing 2>
1

>  <nFRing>
1

>  <nFHRing>
1

>  <nFaRing>
0

>  <nFaHRing>
0

>  <nFARing 2>
1

>  <nFAHRing 2>
1

>  <nRot>
6

>  <SLogP>
4.26

>  <SMR>
135.06

>  <TopoPSA(NO)>
117.59

>  <TopoPSA>
117.59

>  <JGI1>
0.3

>  <JGI2>
0.13

>  <JGI3>
0.08

>  <JGI4>
0.06

>  <JGI5>
0.04

>  <Diameter>
17

>  <Radius>
9

>  <TMWC10>
168.14

>  <TSRW10>
95.18

>  <MW>
568.25

>  <AMW>
7.29

>  <WPath>
4772

>  <WPol>
89

>  <Zagreb1>
230

>  <Zagreb2>
294

>  <mZagreb2>
8.56

>  <yes>


>  <nAR-cont>
0

>  <nHA-cont>
0.308539627

>  <MWHBN>
0.41949837

>  <MWHBN-cont>
0.399900142

>  <TPSA-cont>
0.179148781

>  <pka_cont>
0.97

>  <yes.1>


>  <BBB_SCORE>
1.751687402

>  <MMFF94 Energy>
89.091

$$$$
Compound 1189
Actelion Java MolfileCreator 2.0

  0  0  0  0  0  0              0 V3000
M  V30 BEGIN CTAB
M  V30 COUNTS 67 71 0 0 0
M  V30 BEGIN ATOM
M  V30 1 F -1.5407 -0.8917 -0.8106 0
M  V30 2 C -1.2093 0.3317 -1.3738 0 CFG=2
M  V30 3 C -2.4925 0.7925 -2.1843 0 CFG=2
M  V30 4 C 0.058 0.0381 -2.2384 0 CFG=1
M  V30 5 C -0.9014 1.2655 -0.1614 0 CFG=2
M  V30 6 C -3.6645 1.016 -1.2107 0
M  V30 7 C -2.8586 -0.3296 -3.2022 0
M  V30 8 C -2.2939 2.1186 -2.9543 0
M  V30 9 O 0.4088 1.1379 -3.0704 0
M  V30 10 C 1.2897 -0.375 -1.3995 0
M  V30 11 C 0.2987 0.6981 0.611 0 CFG=1
M  V30 12 C -2.1296 1.3639 0.7561 0
M  V30 13 C -4.9064 0.5392 -1.4141 0
M  V30 14 C -3.3603 1.8524 0.0096 0 CFG=2
M  V30 15 C -4.2628 -0.2061 -3.7749 0
M  V30 16 C 1.5892 0.5944 -0.2373 0 CFG=1
M  V30 17 C 0.7647 1.4085 1.8815 0
M  V30 18 C -5.279 -0.1593 -2.6646 0
M  V30 19 F -4.4047 1.8495 0.8864 0
M  V30 20 C 2.5787 0.0741 0.8499 0 CFG=1
M  V30 21 C 2.0738 1.9659 -0.7788 0
M  V30 22 C 2.1857 0.8526 2.1158 0 CFG=2
M  V30 23 O -6.415 -0.6069 -2.7959 0
M  V30 24 O 2.3098 -1.2906 1.179 0
M  V30 25 C 4.0608 0.2406 0.49 0
M  V30 26 O 2.1669 -0.0935 3.182 0
M  V30 27 C 2.3601 -1.3784 2.6047 0 CFG=1
M  V30 28 O 4.7035 1.2614 0.7546 0
M  V30 29 C 4.7319 -0.9161 -0.24 0
M  V30 30 C 1.2898 -2.3532 3.0848 0
M  V30 31 O 5.9427 -0.5047 -0.8589 0
M  V30 32 C 1.3261 -2.5596 4.5986 0
M  V30 33 C 0.2713 -3.5583 5.0482 0
M  V30 34 H -0.1644 -0.8032 -2.9047 0
M  V30 35 H -0.6677 2.2744 -0.5153 0
M  V30 36 H -2.1423 -0.3432 -4.0325 0
M  V30 37 H -2.7834 -1.311 -2.7146 0
M  V30 38 H -1.8039 2.884 -2.345 0
M  V30 39 H -1.6978 1.9803 -3.8612 0
M  V30 40 H -3.2518 2.5408 -3.2824 0
M  V30 41 H 1.1257 0.8475 -3.6632 0
M  V30 42 H 1.1032 -1.3823 -1.0073 0
M  V30 43 H 2.1678 -0.4462 -2.0517 0
M  V30 44 H 0.0041 -0.3154 0.9255 0
M  V30 45 H -2.3459 0.3925 1.22 0
M  V30 46 H -1.9329 2.052 1.5869 0
M  V30 47 H -5.7164 0.6942 -0.708 0
M  V30 48 H -3.2159 2.8943 -0.2978 0
M  V30 49 H -4.4732 -1.0795 -4.4019 0
M  V30 50 H -4.3728 0.6913 -4.3916 0
M  V30 51 H 0.8027 2.4914 1.7193 0
M  V30 52 H 0.0976 1.2117 2.7269 0
M  V30 53 H 2.9135 1.8318 -1.4704 0
M  V30 54 H 1.3003 2.5154 -1.318 0
M  V30 55 H 2.4173 2.6327 0.0188 0
M  V30 56 H 2.8608 1.6689 2.3894 0
M  V30 57 H 3.3567 -1.7357 2.8882 0
M  V30 58 H 4.9586 -1.7068 0.4799 0
M  V30 59 H 4.0744 -1.3052 -1.0189 0
M  V30 60 H 1.4136 -3.3123 2.5674 0
M  V30 61 H 0.3003 -1.9748 2.7981 0
M  V30 62 H 6.3203 0.1934 -0.2868 0
M  V30 63 H 2.3155 -2.9219 4.9002 0
M  V30 64 H 1.1573 -1.6076 5.1146 0
M  V30 65 H 0.3145 -3.6924 6.1335 0
M  V30 66 H -0.7337 -3.2107 4.7885 0
M  V30 67 H 0.4297 -4.5343 4.5788 0
M  V30 END ATOM
M  V30 BEGIN BOND
M  V30 1 1 1 2
M  V30 2 1 2 3
M  V30 3 1 2 4
M  V30 4 1 2 5
M  V30 5 1 3 6
M  V30 6 1 3 7
M  V30 7 1 3 8
M  V30 8 1 4 9
M  V30 9 1 4 10
M  V30 10 1 5 11
M  V30 11 1 5 12
M  V30 12 2 6 13
M  V30 13 1 6 14
M  V30 14 1 7 15
M  V30 15 1 10 16
M  V30 16 1 11 17
M  V30 17 1 13 18
M  V30 18 1 14 19
M  V30 19 1 16 20
M  V30 20 1 16 21
M  V30 21 1 17 22
M  V30 22 2 18 23
M  V30 23 1 20 24
M  V30 24 1 20 25
M  V30 25 1 22 26
M  V30 26 1 24 27
M  V30 27 2 25 28
M  V30 28 1 25 29
M  V30 29 1 27 30
M  V30 30 1 29 31
M  V30 31 1 30 32
M  V30 32 1 32 33
M  V30 33 1 11 16
M  V30 34 1 12 14
M  V30 35 1 15 18
M  V30 36 1 20 22
M  V30 37 1 26 27
M  V30 38 1 4 34
M  V30 39 1 5 35
M  V30 40 1 7 36
M  V30 41 1 7 37
M  V30 42 1 8 38
M  V30 43 1 8 39
M  V30 44 1 8 40
M  V30 45 1 9 41
M  V30 46 1 10 42
M  V30 47 1 10 43
M  V30 48 1 11 44
M  V30 49 1 12 45
M  V30 50 1 12 46
M  V30 51 1 13 47
M  V30 52 1 14 48
M  V30 53 1 15 49
M  V30 54 1 15 50
M  V30 55 1 17 51
M  V30 56 1 17 52
M  V30 57 1 21 53
M  V30 58 1 21 54
M  V30 59 1 21 55
M  V30 60 1 22 56
M  V30 61 1 27 57
M  V30 62 1 29 58
M  V30 63 1 29 59
M  V30 64 1 30 60
M  V30 65 1 30 61
M  V30 66 1 31 62
M  V30 67 1 32 63
M  V30 68 1 32 64
M  V30 69 1 33 65
M  V30 70 1 33 66
M  V30 71 1 33 67
M  V30 END BOND
M  V30 BEGIN COLLECTION
M  V30 MDLV30/STEABS ATOMS=(10 2 3 4 5 11 14 16 20 22 27)
M  V30 END COLLECTION
M  V30 END CTAB
M  END
>  <Column 1>
1412

>  <level_0>
1562

>  <index>
1562

>  <Unnamed: 0>
1562

>  <NO.>
1574

>  <Name>
rofleponide

>  <IUPAC_name>
(1s-2s-4r-6r-8s-9s-11s-12r-13s-19s)-12-19-difluoro-11-hydroxy-8-(2-hydroxyacetyl)-9-13-dimethyl-6-propyl-5-7-dioxapentacyclo[10.8.0.02-9.04-8.013-18]icos-17-en-16-one

>  <SMILES>
CCC[C@@H]1O[C@@H]2C[C@H]3[C@@H]4C[C@H](F)C5=CC(=O)CC[C@]5(C)[C@@]4(F)[C@@H](O)C[C@]3(C)[C@]2(C(=O)CO)O1

>  <CID>
3055174

>  <logBB>


>  <BBB+/BBB->
BBB+

>  <Inchi>
InChI=1S/C25H34F2O6/c1-4-5-21-32-20-10-14-15-9-17(26)16-8-13(29)6-7-22(16-2)24(15-27)18(30)11-23(14-3)25(20-33-21)19(31)12-28/h8-14-15-17-18-20-21-28-30H-4-7-9-12H2-1-3H3/t14--15--17--18--20+-21+-22--23--24--25+/m0/s1

>  <threshold>
-1

>  <reference>
R1|R6|R27|R30|

>  <group>
B

>  <Class>
1

>  <ABC>
26.44

>  <ABCGG>
21.47

>  <nAcid>
0

>  <nBase>
0

>  <nAromAtom>
0

>  <nAromBond>
0

>  <nAtom>
67

>  <nHeavyAtom>
33

>  <nSpiro>
0

>  <nBridgehead>
0

>  <nHetero>
8

>  <nN>
0

>  <nO>
6

>  <nF>
2

>  <BalabanJ>
1.57

>  <BertzCT>
907.33

>  <nBonds>
71

>  <nBondsO>
37

>  <nBondsS>
68

>  <nBondsD>
3

>  <nBondsT>
0

>  <nBondsA>
0

>  <nBondsM>
3

>  <nBondsKS>
68

>  <nBondsKD>
3

>  <RNCG>
0.13

>  <RPCG>
0.07

>  <FCSP3>
0.84

>  <SZ>
41.67

>  <Sm>
39.01

>  <Sv>
39.79

>  <Sse>
67.99

>  <Sp>
42.12

>  <Si>
76.41

>  <MZ>
0.62

>  <Mm>
0.58

>  <Mv>
0.59

>  <Mse>
1.01

>  <Mp>
0.63

>  <Mi>
1.14

>  <NsCH3>
3

>  <NdCH2>
0

>  <NssCH2>
8

>  <NtCH>
0

>  <NdsCH>
1

>  <NaaCH>
0

>  <NsssCH>
6

>  <NddC>
0

>  <NtsC>
0

>  <NdssC>
3

>  <NaasC>
0

>  <NaaaC>
0

>  <NssssC>
4

>  <NsNH3>
0

>  <NsNH2>
0

>  <NssNH2>
0

>  <NdNH>
0

>  <NssNH>
0

>  <NaaNH>
0

>  <NtN>
0

>  <NsssNH>
0

>  <NdsN>
0

>  <NaaN>
0

>  <NsssN>
0

>  <NddsN>
0

>  <NaasN>
0

>  <NssssN>
0

>  <NsOH>
2

>  <NdO>
2

>  <NssO>
2

>  <NaaO>
0

>  <NsF>
2

>  <NsSiH3>
0

>  <NssSiH2>
0

>  <NsssSiH>
0

>  <NssssSi>
0

>  <NsPH2>
0

>  <NssPH>
0

>  <NsssP>
0

>  <NdsssP>
0

>  <NsssssP>
0

>  <NsSH>
0

>  <NdS>
0

>  <NssS>
0

>  <NaaS>
0

>  <NdssS>
0

>  <NddssS>
0

>  <NsCl>
0

>  <NsBr>
0

>  <NsI>
0

>  <fragCpx>
313.08

>  <fMF>
0.3

>  <nHBAcc>
6

>  <nHBDon>
2

>  <Kier1>
24.68

>  <Kier2>
8

>  <Lipinski>
1

>  <GhoseFilter>
1

>  <FilterItLogS>
-4.15

>  <VMcGowan>
334.65

>  <LabuteASA>
192.25

>  <PEOE_VSA1>
19.69

>  <PEOE_VSA2>
9.59

>  <PEOE_VSA3>
8.78

>  <PEOE_VSA4>
0

>  <PEOE_VSA5>
0

>  <PEOE_VSA6>
27.19

>  <PEOE_VSA7>
49.67

>  <PEOE_VSA8>
23.17

>  <PEOE_VSA9>
12.21

>  <PEOE_VSA10>
18.45

>  <PEOE_VSA11>
23.46

>  <PEOE_VSA12>
0

>  <PEOE_VSA13>
0

>  <SMR_VSA1>
38.06

>  <SMR_VSA2>
0

>  <SMR_VSA3>
0

>  <SMR_VSA4>
22.67

>  <SMR_VSA5>
101.66

>  <SMR_VSA6>
6.61

>  <SMR_VSA7>
11.65

>  <SMR_VSA8>
0

>  <SMR_VSA9>
0

>  <SlogP_VSA1>
0

>  <SlogP_VSA2>
64.33

>  <SlogP_VSA3>
19.06

>  <SlogP_VSA4>
22.67

>  <SlogP_VSA5>
65.72

>  <SlogP_VSA6>
11.65

>  <SlogP_VSA7>
0

>  <SlogP_VSA8>
0

>  <SlogP_VSA9>
0

>  <SlogP_VSA10>
8.78

>  <SlogP_VSA11>
0

>  <EState_VSA1>
71

>  <EState_VSA2>
37.04

>  <EState_VSA3>
12.84

>  <EState_VSA4>
6.42

>  <EState_VSA5>
6.08

>  <EState_VSA6>
13.85

>  <EState_VSA7>
6.92

>  <EState_VSA8>
0

>  <EState_VSA9>
9.47

>  <EState_VSA10>
19.8

>  <VSA_EState1>
45.14

>  <VSA_EState2>
25.24

>  <VSA_EState3>
21.26

>  <VSA_EState4>
-5.82

>  <VSA_EState5>
-2.1

>  <VSA_EState6>
0

>  <VSA_EState7>
-1.37

>  <VSA_EState8>
4.65

>  <VSA_EState9>
0

>  <apol>
70.35

>  <bpol>
41.54

>  <nRing>
5

>  <nHRing>
1

>  <naRing>
0

>  <naHRing>
0

>  <nARing 2>
5

>  <nAHRing 2>
1

>  <nFRing>
1

>  <nFHRing>
1

>  <nFaRing>
0

>  <nFaHRing>
0

>  <nFARing 2>
1

>  <nFAHRing 2>
1

>  <nRot>
4

>  <SLogP>
2.98

>  <SMR>
113.59

>  <TopoPSA(NO)>
93.06

>  <TopoPSA>
93.06

>  <JGI1>
0.3

>  <JGI2>
0.14

>  <JGI3>
0.08

>  <JGI4>
0.06

>  <JGI5>
0.04

>  <Diameter>
14

>  <Radius>
7

>  <TMWC10>
153.39

>  <TSRW10>
87.63

>  <MW>
468.23

>  <AMW>
6.99

>  <WPath>
2633

>  <WPol>
80

>  <Zagreb1>
198

>  <Zagreb2>
260

>  <mZagreb2>
6.97

>  <yes>


>  <nAR-cont>
0

>  <nHA-cont>
0.61399562

>  <MWHBN>
0.369709295

>  <MWHBN-cont>
0.594994274

>  <TPSA-cont>
0.350383413

>  <pka_cont>
0.97

>  <yes.1>


>  <BBB_SCORE>
2.692253858

>  <MMFF94 Energy>
148.18

$$$$
Compound 1190
Actelion Java MolfileCreator 2.0

  0  0  0  0  0  0              0 V3000
M  V30 BEGIN CTAB
M  V30 COUNTS 68 73 0 0 0
M  V30 BEGIN ATOM
M  V30 1 O 0.1615 3.3153 -2.1014 0
M  V30 2 C -0.8811 3.5629 -2.695 0
M  V30 3 O -1.7066 2.6668 -3.3643 0
M  V30 4 C -1.4601 4.9399 -2.8335 0
M  V30 5 C -1.305 1.3471 -3.2003 0
M  V30 6 C -1.5373 0.6704 -2.0222 0
M  V30 7 C -0.6552 0.6878 -4.2525 0
M  V30 8 O -2.012 1.1964 -0.8483 0
M  V30 9 C -1.1303 -0.6354 -1.9059 0
M  V30 10 C -0.1472 -0.6144 -4.0679 0
M  V30 11 C -1.8381 0.1495 0.1698 0 CFG=1
M  V30 12 C -0.3437 -1.2754 -2.8534 0
M  V30 13 C -1.4054 -1.1475 -0.5478 0
M  V30 14 C -0.7816 0.4775 1.3076 0
M  V30 15 C 0.4137 -2.5246 -2.4384 0
M  V30 16 C -0.0705 -1.7119 -0.0069 0
M  V30 17 C -2.542 -2.1946 -0.5545 0
M  V30 18 O -1.179 1.5067 2.208 0
M  V30 19 C -0.6943 -0.8116 2.1416 0
M  V30 20 C 0.6302 0.7022 0.6622 0 CFG=2
M  V30 21 C 0.2417 -2.9513 -0.9152 0
M  V30 22 C -0.3141 -1.9256 1.4841 0
M  V30 23 C 1.0798 -0.6424 -0.025 0
M  V30 24 C -2.1317 -3.532 -1.1784 0
M  V30 25 C -1.7727 2.6571 1.6248 0
M  V30 26 C 1.7848 1.329 1.5221 0 CFG=2
M  V30 27 N -0.8184 -3.972 -0.6983 0
M  V30 28 O 2.9735 1.2971 0.7016 0
M  V30 29 C 2.0989 0.5483 2.8207 0
M  V30 30 C 1.5445 2.8149 1.8332 0
M  V30 31 C -0.4678 -5.2841 -1.2339 0
M  V30 32 C 3.3374 1.0414 3.5841 0
M  V30 33 C 3.6122 0.1757 4.8056 0
M  V30 34 H -1.4639 5.2362 -3.8852 0
M  V30 35 H -2.4729 4.9593 -2.4229 0
M  V30 36 H -0.8461 5.6489 -2.2706 0
M  V30 37 H -0.4759 1.207 -5.1899 0
M  V30 38 H 0.4511 -1.0704 -4.8531 0
M  V30 39 H -2.8258 0.0402 0.6389 0
M  V30 40 H 1.482 -2.3169 -2.588 0
M  V30 41 H 0.163 -3.3425 -3.1209 0
M  V30 42 H -2.8705 -2.3843 0.4761 0
M  V30 43 H -3.4219 -1.8104 -1.0874 0
M  V30 44 H -0.9164 -0.8017 3.2025 0
M  V30 45 H 0.4909 1.4158 -0.1608 0
M  V30 46 H 1.1919 -3.3868 -0.5773 0
M  V30 47 H -0.2049 -2.8968 1.952 0
M  V30 48 H 1.9567 -1.0722 0.4761 0
M  V30 49 H 1.4308 -0.4086 -1.0356 0
M  V30 50 H -2.1551 -3.4586 -2.2724 0
M  V30 51 H -2.8918 -4.2754 -0.9068 0
M  V30 52 H -1.823 3.4353 2.3918 0
M  V30 53 H -2.7968 2.4405 1.3089 0
M  V30 54 H -1.1826 3.0401 0.7887 0
M  V30 55 H 2.7925 1.8352 -0.0906 0
M  V30 56 H 1.2388 0.5952 3.4983 0
M  V30 57 H 2.2696 -0.5073 2.5822 0
M  V30 58 H 0.8246 2.9613 2.6417 0
M  V30 59 H 1.1932 3.3506 0.9443 0
M  V30 60 H 2.4768 3.3146 2.1209 0
M  V30 61 H 0.4998 -5.6166 -0.8429 0
M  V30 62 H -1.2035 -6.0311 -0.9149 0
M  V30 63 H -0.4241 -5.3032 -2.3272 0
M  V30 64 H 4.2188 1.0243 2.9338 0
M  V30 65 H 3.1941 2.0746 3.9174 0
M  V30 66 H 4.4931 0.5443 5.3406 0
M  V30 67 H 2.7634 0.1919 5.4968 0
M  V30 68 H 3.8008 -0.8629 4.5163 0
M  V30 END ATOM
M  V30 BEGIN BOND
M  V30 1 2 1 2
M  V30 2 1 2 3
M  V30 3 1 2 4
M  V30 4 1 3 5
M  V30 5 2 5 6
M  V30 6 1 5 7
M  V30 7 1 6 8
M  V30 8 1 6 9
M  V30 9 2 7 10
M  V30 10 1 8 11
M  V30 11 2 9 12
M  V30 12 1 9 13
M  V30 13 1 11 14
M  V30 14 1 12 15
M  V30 15 1 13 16
M  V30 16 1 13 17
M  V30 17 1 14 18
M  V30 18 1 14 19
M  V30 19 1 14 20
M  V30 20 1 15 21
M  V30 21 1 16 22
M  V30 22 1 16 23
M  V30 23 1 17 24
M  V30 24 1 18 25
M  V30 25 1 20 26
M  V30 26 1 21 27
M  V30 27 1 26 28
M  V30 28 1 26 29
M  V30 29 1 26 30
M  V30 30 1 27 31
M  V30 31 1 29 32
M  V30 32 1 32 33
M  V30 33 1 10 12
M  V30 34 1 11 13
M  V30 35 1 16 21
M  V30 36 2 19 22
M  V30 37 1 20 23
M  V30 38 1 24 27
M  V30 39 1 4 34
M  V30 40 1 4 35
M  V30 41 1 4 36
M  V30 42 1 7 37
M  V30 43 1 10 38
M  V30 44 1 11 39
M  V30 45 1 15 40
M  V30 46 1 15 41
M  V30 47 1 17 42
M  V30 48 1 17 43
M  V30 49 1 19 44
M  V30 50 1 20 45
M  V30 51 1 21 46
M  V30 52 1 22 47
M  V30 53 1 23 48
M  V30 54 1 23 49
M  V30 55 1 24 50
M  V30 56 1 24 51
M  V30 57 1 25 52
M  V30 58 1 25 53
M  V30 59 1 25 54
M  V30 60 1 28 55
M  V30 61 1 29 56
M  V30 62 1 29 57
M  V30 63 1 30 58
M  V30 64 1 30 59
M  V30 65 1 30 60
M  V30 66 1 31 61
M  V30 67 1 31 62
M  V30 68 1 31 63
M  V30 69 1 32 64
M  V30 70 1 32 65
M  V30 71 1 33 66
M  V30 72 1 33 67
M  V30 73 1 33 68
M  V30 END BOND
M  V30 BEGIN COLLECTION
M  V30 MDLV30/STEABS ATOMS=(3 11 20 26)
M  V30 END COLLECTION
M  V30 END CTAB
M  END
>  <Column 1>
1413

>  <level_0>
1563

>  <index>
1563

>  <Unnamed: 0>
1563

>  <NO.>
1575

>  <Name>
acetorphine

>  <IUPAC_name>
[(14s-19r)-19-[(2r)-2-hydroxypentan-2-yl]-15-methoxy-5-methyl-13-oxa-5-azahexacyclo[13.2.2.12-8.01-6.02-14.012-20]icosa-8(20)-9-11-16-tetraen-11-yl] acetate

>  <SMILES>
CCC[C@@](C)(O)[C@H]1CC23C=CC1(OC)[C@H]1Oc4c(OC(C)=O)ccc5c4C12CCN(C)C3C5

>  <CID>
62795

>  <logBB>


>  <BBB+/BBB->
BBB+

>  <Inchi>
InChI=1S/C27H35NO5/c1-6-9-24(3-30)19-15-25-10-11-27(19-31-5)23-26(25)12-13-28(4)20(25)14-17-7-8-18(32-16(2)29)22(33-23)21(17)26/h7-8-10-11-19-20-23-30H-6-9-12-15H2-1-5H3/t19--20?-23+-24--25?-26?-27?/m1/s1

>  <threshold>
-1

>  <reference>
R1|R6|R27|R30|

>  <group>
B

>  <Class>
1

>  <ABC>
26.89

>  <ABCGG>
20.43

>  <nAcid>
0

>  <nBase>
1

>  <nAromAtom>
6

>  <nAromBond>
6

>  <nAtom>
68

>  <nHeavyAtom>
33

>  <nSpiro>
2

>  <nBridgehead>
4

>  <nHetero>
6

>  <nN>
1

>  <nO>
5

>  <nF>
0

>  <BalabanJ>
1.52

>  <BertzCT>
1064.84

>  <nBonds>
73

>  <nBondsO>
38

>  <nBondsS>
65

>  <nBondsD>
2

>  <nBondsT>
0

>  <nBondsA>
6

>  <nBondsM>
8

>  <nBondsKS>
68

>  <nBondsKD>
5

>  <RNCG>
0.18

>  <RPCG>
0.11

>  <FCSP3>
0.67

>  <SZ>
40.67

>  <Sm>
37.76

>  <Sv>
40.81

>  <Sse>
67.85

>  <Sp>
44.03

>  <Si>
76.61

>  <MZ>
0.6

>  <Mm>
0.56

>  <Mv>
0.6

>  <Mse>
1

>  <Mp>
0.65

>  <Mi>
1.13

>  <NsCH3>
5

>  <NdCH2>
0

>  <NssCH2>
6

>  <NtCH>
0

>  <NdsCH>
2

>  <NaaCH>
2

>  <NsssCH>
3

>  <NddC>
0

>  <NtsC>
0

>  <NdssC>
1

>  <NaasC>
4

>  <NaaaC>
0

>  <NssssC>
4

>  <NsNH3>
0

>  <NsNH2>
0

>  <NssNH2>
0

>  <NdNH>
0

>  <NssNH>
0

>  <NaaNH>
0

>  <NtN>
0

>  <NsssNH>
0

>  <NdsN>
0

>  <NaaN>
0

>  <NsssN>
1

>  <NddsN>
0

>  <NaasN>
0

>  <NssssN>
0

>  <NsOH>
1

>  <NdO>
1

>  <NssO>
3

>  <NaaO>
0

>  <NsF>
0

>  <NsSiH3>
0

>  <NssSiH2>
0

>  <NsssSiH>
0

>  <NssssSi>
0

>  <NsPH2>
0

>  <NssPH>
0

>  <NsssP>
0

>  <NdsssP>
0

>  <NsssssP>
0

>  <NsSH>
0

>  <NdS>
0

>  <NssS>
0

>  <NaaS>
0

>  <NdssS>
0

>  <NddssS>
0

>  <NsCl>
0

>  <NsBr>
0

>  <NsI>
0

>  <fragCpx>
388.06

>  <fMF>
0.29

>  <nHBAcc>
6

>  <nHBDon>
1

>  <Kier1>
23.4

>  <Kier2>
7.51

>  <Lipinski>
1

>  <GhoseFilter>
1

>  <FilterItLogS>
-4.81

>  <VMcGowan>
343.96

>  <LabuteASA>
195.43

>  <PEOE_VSA1>
24.22

>  <PEOE_VSA2>
4.79

>  <PEOE_VSA3>
0

>  <PEOE_VSA4>
0

>  <PEOE_VSA5>
0

>  <PEOE_VSA6>
31.56

>  <PEOE_VSA7>
57.83

>  <PEOE_VSA8>
36.97

>  <PEOE_VSA9>
11.02

>  <PEOE_VSA10>
11.71

>  <PEOE_VSA11>
11.5

>  <PEOE_VSA12>
0

>  <PEOE_VSA13>
0

>  <SMR_VSA1>
24.11

>  <SMR_VSA2>
0

>  <SMR_VSA3>
4.9

>  <SMR_VSA4>
11.33

>  <SMR_VSA5>
81.64

>  <SMR_VSA6>
20.7

>  <SMR_VSA7>
35.41

>  <SMR_VSA8>
0

>  <SMR_VSA9>
11.5

>  <SlogP_VSA1>
9.47

>  <SlogP_VSA2>
60.03

>  <SlogP_VSA3>
21.37

>  <SlogP_VSA4>
11.33

>  <SlogP_VSA5>
57.58

>  <SlogP_VSA6>
24.28

>  <SlogP_VSA7>
0

>  <SlogP_VSA8>
0

>  <SlogP_VSA9>
0

>  <SlogP_VSA10>
0

>  <SlogP_VSA11>
11.5

>  <EState_VSA1>
11.2

>  <EState_VSA2>
28.82

>  <EState_VSA3>
23.96

>  <EState_VSA4>
32.23

>  <EState_VSA5>
18.05

>  <EState_VSA6>
7.11

>  <EState_VSA7>
12.99

>  <EState_VSA8>
37.09

>  <EState_VSA9>
14.21

>  <EState_VSA10>
9.9

>  <VSA_EState1>
18.93

>  <VSA_EState2>
14.41

>  <VSA_EState3>
11.77

>  <VSA_EState4>
0.45

>  <VSA_EState5>
0.77

>  <VSA_EState6>
4.33

>  <VSA_EState7>
8.69

>  <VSA_EState8>
6.5

>  <VSA_EState9>
3.99

>  <apol>
73.54

>  <bpol>
42.9

>  <nRing>
7

>  <nHRing>
2

>  <naRing>
1

>  <naHRing>
0

>  <nARing 2>
6

>  <nAHRing 2>
2

>  <nFRing>
1

>  <nFHRing>
1

>  <nFaRing>
0

>  <nFaHRing>
0

>  <nFARing 2>
1

>  <nFAHRing 2>
1

>  <nRot>
5

>  <SLogP>
3.38

>  <SMR>
123.54

>  <TopoPSA(NO)>
68.23

>  <TopoPSA>
68.23

>  <JGI1>
0.28

>  <JGI2>
0.11

>  <JGI3>
0.06

>  <JGI4>
0.06

>  <JGI5>
0.04

>  <Diameter>
12

>  <Radius>
6

>  <TMWC10>
155.2

>  <TSRW10>
85.98

>  <MW>
453.25

>  <AMW>
6.67

>  <WPath>
2479

>  <WPol>
81

>  <Zagreb1>
204

>  <Zagreb2>
269

>  <mZagreb2>
6.92

>  <yes>


>  <nAR-cont>
0

>  <nHA-cont>
0.61399562

>  <MWHBN>
0.328797975

>  <MWHBN-cont>
0.747047431

>  <TPSA-cont>
0.523712232

>  <pka_cont>
0.97

>  <yes.1>


>  <BBB_SCORE>
3.26699123

>  <MMFF94 Energy>
171.89

$$$$
Compound 1191
Actelion Java MolfileCreator 2.0

  0  0  0  0  0  0              0 V3000
M  V30 BEGIN CTAB
M  V30 COUNTS 43 44 0 0 0
M  V30 BEGIN ATOM
M  V30 1 O -4.5678 -1.0224 -0.7864 0
M  V30 2 C -3.6634 -0.1693 -0.2249 0
M  V30 3 C -2.314 -0.3838 -0.5003 0
M  V30 4 C -4.0679 0.8807 0.5849 0
M  V30 5 C -1.3113 0.4435 0.0479 0
M  V30 6 C -3.1034 1.7343 1.1099 0
M  V30 7 C -1.7455 1.525 0.8363 0
M  V30 8 C 0.1948 0.1936 -0.2991 0 CFG=2
M  V30 9 C 0.5434 -1.3351 -0.0833 0 CFG=2
M  V30 10 C 1.1762 1.0095 0.5978 0
M  V30 11 C 0.3153 0.6259 -1.8079 0
M  V30 12 C 0.5438 -1.683 1.4231 0
M  V30 13 C 1.8639 -1.7983 -0.721 0
M  V30 14 C 1.2103 0.5455 2.0608 0
M  V30 15 C 1.6743 1.1337 -2.3098 0
M  V30 16 N 1.5285 -0.8821 2.1618 0
M  V30 17 C 1.645 1.3898 -3.8109 0
M  V30 18 C 1.5782 -1.2975 3.5637 0
M  V30 19 H -5.4594 -0.7462 -0.5183 0
M  V30 20 H -2.0639 -1.2007 -1.1716 0
M  V30 21 H -5.1154 1.0574 0.8044 0
M  V30 22 H -3.4037 2.575 1.7308 0
M  V30 23 H -1.0464 2.2425 1.2544 0
M  V30 24 H -0.2213 -1.9661 -0.549 0
M  V30 25 H 2.2005 0.9116 0.2175 0
M  V30 26 H 0.9596 2.0832 0.5534 0
M  V30 27 H -0.3959 1.4419 -2.0056 0
M  V30 28 H -0.0176 -0.2058 -2.4437 0
M  V30 29 H 0.7832 -2.7488 1.5324 0
M  V30 30 H -0.4616 -1.5495 1.8433 0
M  V30 31 H 2.7254 -1.2204 -0.3759 0
M  V30 32 H 1.815 -1.7381 -1.8122 0
M  V30 33 H 2.0574 -2.8493 -0.4771 0
M  V30 34 H 1.985 1.1271 2.5765 0
M  V30 35 H 0.2638 0.7693 2.5656 0
M  V30 36 H 1.9298 2.0737 -1.8077 0
M  V30 37 H 2.4745 0.4218 -2.0965 0
M  V30 38 H 2.6147 1.7683 -4.1491 0
M  V30 39 H 1.4295 0.4685 -4.3613 0
M  V30 40 H 0.8824 2.1318 -4.0683 0
M  V30 41 H 0.6161 -1.1621 4.0714 0
M  V30 42 H 1.864 -2.3523 3.6421 0
M  V30 43 H 2.3386 -0.7259 4.1074 0
M  V30 END ATOM
M  V30 BEGIN BOND
M  V30 1 1 1 2
M  V30 2 2 2 3
M  V30 3 1 2 4
M  V30 4 1 3 5
M  V30 5 2 4 6
M  V30 6 2 5 7
M  V30 7 1 5 8
M  V30 8 1 8 9
M  V30 9 1 8 10
M  V30 10 1 8 11
M  V30 11 1 9 12
M  V30 12 1 9 13
M  V30 13 1 10 14
M  V30 14 1 11 15
M  V30 15 1 12 16
M  V30 16 1 15 17
M  V30 17 1 16 18
M  V30 18 1 6 7
M  V30 19 1 14 16
M  V30 20 1 1 19
M  V30 21 1 3 20
M  V30 22 1 4 21
M  V30 23 1 6 22
M  V30 24 1 7 23
M  V30 25 1 9 24
M  V30 26 1 10 25
M  V30 27 1 10 26
M  V30 28 1 11 27
M  V30 29 1 11 28
M  V30 30 1 12 29
M  V30 31 1 12 30
M  V30 32 1 13 31
M  V30 33 1 13 32
M  V30 34 1 13 33
M  V30 35 1 14 34
M  V30 36 1 14 35
M  V30 37 1 15 36
M  V30 38 1 15 37
M  V30 39 1 17 38
M  V30 40 1 17 39
M  V30 41 1 17 40
M  V30 42 1 18 41
M  V30 43 1 18 42
M  V30 44 1 18 43
M  V30 END BOND
M  V30 BEGIN COLLECTION
M  V30 MDLV30/STEABS ATOMS=(2 8 9)
M  V30 END COLLECTION
M  V30 END CTAB
M  END
>  <Column 1>
1414

>  <level_0>
1564

>  <index>
1564

>  <Unnamed: 0>
1564

>  <NO.>
1576

>  <Name>
picenadol

>  <IUPAC_name>
3-[(3r-4s)-1-3-dimethyl-4-propylpiperidin-4-yl]phenol

>  <SMILES>
CCC[C@]1(c2cccc(O)c2)CCN(C)C[C@@H]1C

>  <CID>
53077

>  <logBB>


>  <BBB+/BBB->
BBB+

>  <Inchi>
InChI=1S/C16H25NO/c1-4-8-16(9-10-17(3)12-13(16)2)14-6-5-7-15(18)11-14/h5-7-11-13-18H-4-8-10-12H2-1-3H3/t13--16-/m0/s1

>  <threshold>
-1

>  <reference>
R1|R6|R27|R27|R30|R30|

>  <group>
B

>  <Class>
1

>  <ABC>
13.64

>  <ABCGG>
12.1

>  <nAcid>
0

>  <nBase>
1

>  <nAromAtom>
6

>  <nAromBond>
6

>  <nAtom>
43

>  <nHeavyAtom>
18

>  <nSpiro>
0

>  <nBridgehead>
0

>  <nHetero>
2

>  <nN>
1

>  <nO>
1

>  <nF>
0

>  <BalabanJ>
2.14

>  <BertzCT>
403.84

>  <nBonds>
44

>  <nBondsO>
19

>  <nBondsS>
38

>  <nBondsD>
0

>  <nBondsT>
0

>  <nBondsA>
6

>  <nBondsM>
6

>  <nBondsKS>
41

>  <nBondsKD>
3

>  <RNCG>
0.39

>  <RPCG>
0.23

>  <FCSP3>
0.63

>  <SZ>
22.67

>  <Sm>
20.6

>  <Sv>
24.25

>  <Sse>
42.09

>  <Sp>
27.12

>  <Si>
48.69

>  <MZ>
0.53

>  <Mm>
0.48

>  <Mv>
0.56

>  <Mse>
0.98

>  <Mp>
0.63

>  <Mi>
1.13

>  <NsCH3>
3

>  <NdCH2>
0

>  <NssCH2>
5

>  <NtCH>
0

>  <NdsCH>
0

>  <NaaCH>
4

>  <NsssCH>
1

>  <NddC>
0

>  <NtsC>
0

>  <NdssC>
0

>  <NaasC>
2

>  <NaaaC>
0

>  <NssssC>
1

>  <NsNH3>
0

>  <NsNH2>
0

>  <NssNH2>
0

>  <NdNH>
0

>  <NssNH>
0

>  <NaaNH>
0

>  <NtN>
0

>  <NsssNH>
0

>  <NdsN>
0

>  <NaaN>
0

>  <NsssN>
1

>  <NddsN>
0

>  <NaasN>
0

>  <NssssN>
0

>  <NsOH>
1

>  <NdO>
0

>  <NssO>
0

>  <NaaO>
0

>  <NsF>
0

>  <NsSiH3>
0

>  <NssSiH2>
0

>  <NsssSiH>
0

>  <NssssSi>
0

>  <NsPH2>
0

>  <NssPH>
0

>  <NsssP>
0

>  <NdsssP>
0

>  <NsssssP>
0

>  <NsSH>
0

>  <NdS>
0

>  <NssS>
0

>  <NaaS>
0

>  <NdssS>
0

>  <NddssS>
0

>  <NsCl>
0

>  <NsBr>
0

>  <NsI>
0

>  <fragCpx>
55.02

>  <fMF>
0.28

>  <nHBAcc>
2

>  <nHBDon>
1

>  <Kier1>
14.41

>  <Kier2>
5.97

>  <Lipinski>
1

>  <GhoseFilter>
1

>  <FilterItLogS>
-3.68

>  <VMcGowan>
217.53

>  <LabuteASA>
110.63

>  <PEOE_VSA1>
10.01

>  <PEOE_VSA2>
0

>  <PEOE_VSA3>
0

>  <PEOE_VSA4>
0

>  <PEOE_VSA5>
0

>  <PEOE_VSA6>
32.4

>  <PEOE_VSA7>
50.05

>  <PEOE_VSA8>
11.96

>  <PEOE_VSA9>
0

>  <PEOE_VSA10>
5.75

>  <PEOE_VSA11>
0

>  <PEOE_VSA12>
0

>  <PEOE_VSA13>
0

>  <SMR_VSA1>
5.11

>  <SMR_VSA2>
0

>  <SMR_VSA3>
4.9

>  <SMR_VSA4>
5.92

>  <SMR_VSA5>
38.52

>  <SMR_VSA6>
20.14

>  <SMR_VSA7>
29.83

>  <SMR_VSA8>
0

>  <SMR_VSA9>
5.75

>  <SlogP_VSA1>
0

>  <SlogP_VSA2>
30.14

>  <SlogP_VSA3>
5.41

>  <SlogP_VSA4>
5.92

>  <SlogP_VSA5>
38.67

>  <SlogP_VSA6>
24.27

>  <SlogP_VSA7>
0

>  <SlogP_VSA8>
0

>  <SlogP_VSA9>
0

>  <SlogP_VSA10>
0

>  <SlogP_VSA11>
5.75

>  <EState_VSA1>
0

>  <EState_VSA2>
5.41

>  <EState_VSA3>
11.67

>  <EState_VSA4>
13.09

>  <EState_VSA5>
24.83

>  <EState_VSA6>
6.07

>  <EState_VSA7>
12.13

>  <EState_VSA8>
31.86

>  <EState_VSA9>
0

>  <EState_VSA10>
5.11

>  <VSA_EState1>
0

>  <VSA_EState2>
2.42

>  <VSA_EState3>
9.75

>  <VSA_EState4>
1.57

>  <VSA_EState5>
1.03

>  <VSA_EState6>
7.91

>  <VSA_EState7>
3.61

>  <VSA_EState8>
6.92

>  <VSA_EState9>
2.2

>  <apol>
45.29

>  <bpol>
26.79

>  <nRing>
2

>  <nHRing>
1

>  <naRing>
1

>  <naHRing>
0

>  <nARing 2>
1

>  <nAHRing 2>
1

>  <nFRing>
0

>  <nFHRing>
0

>  <nFaRing>
0

>  <nFaHRing>
0

>  <nFARing 2>
0

>  <nFAHRing 2>
0

>  <nRot>
3

>  <SLogP>
3.4

>  <SMR>
75.97

>  <TopoPSA(NO)>
23.47

>  <TopoPSA>
23.47

>  <JGI1>
0.26

>  <JGI2>
0.11

>  <JGI3>
0.06

>  <JGI4>
0.04

>  <JGI5>
0.03

>  <Diameter>
8

>  <Radius>
4

>  <TMWC10>
109.87

>  <TSRW10>
51.38

>  <MW>
247.19

>  <AMW>
5.75

>  <WPath>
556

>  <WPol>
30

>  <Zagreb1>
92

>  <Zagreb2>
109

>  <mZagreb2>
4.08

>  <yes>


>  <nAR-cont>
0.816016

>  <nHA-cont>
0.991161285

>  <MWHBN>
0.190812054

>  <MWHBN-cont>
0.996128677

>  <TPSA-cont>
0.836164826

>  <pka_cont>
0.97

>  <yes.1>


>  <BBB_SCORE>
5.458699952

>  <MMFF94 Energy>
37.913

$$$$
Compound 1192
Actelion Java MolfileCreator 2.0

  0  0  0  0  0  0              0 V3000
M  V30 BEGIN CTAB
M  V30 COUNTS 8 7 0 0 0
M  V30 BEGIN ATOM
M  V30 1 Cl -2.0357 0.0782 0.2347 0
M  V30 2 C -0.302 0.2279 0.5928 0
M  V30 3 C 0.5255 -0.2538 -0.58 0
M  V30 4 H -0.0898 -0.3643 1.4872 0
M  V30 5 H -0.0919 1.2789 0.8106 0
M  V30 6 H 0.3189 0.3351 -1.4796 0
M  V30 7 H 0.3209 -1.3059 -0.8039 0
M  V30 8 H 1.592 -0.159 -0.3532 0
M  V30 END ATOM
M  V30 BEGIN BOND
M  V30 1 1 1 2
M  V30 2 1 2 3
M  V30 3 1 2 4
M  V30 4 1 2 5
M  V30 5 1 3 6
M  V30 6 1 3 7
M  V30 7 1 3 8
M  V30 END BOND
M  V30 END CTAB
M  END
>  <Column 1>
1415

>  <level_0>
1565

>  <index>
1565

>  <Unnamed: 0>
1565

>  <NO.>
1577

>  <Name>
chloroethane

>  <IUPAC_name>
chloroethane

>  <SMILES>
CCCl

>  <CID>
6337

>  <logBB>


>  <BBB+/BBB->
BBB+

>  <Inchi>
InChI=1S/C2H5Cl/c1-2-3/h2H2-1H3

>  <threshold>
-1

>  <reference>
R1|R13|R19|R6|R24|R27|R27|R27|R30|R30|

>  <group>
B

>  <Class>
1

>  <ABC>
1.41

>  <ABCGG>
1.41

>  <nAcid>
0

>  <nBase>
0

>  <nAromAtom>
0

>  <nAromBond>
0

>  <nAtom>
8

>  <nHeavyAtom>
3

>  <nSpiro>
0

>  <nBridgehead>
0

>  <nHetero>
1

>  <nN>
0

>  <nO>
0

>  <nF>
0

>  <BalabanJ>
1.63

>  <BertzCT>
2.75

>  <nBonds>
7

>  <nBondsO>
2

>  <nBondsS>
7

>  <nBondsD>
0

>  <nBondsT>
0

>  <nBondsA>
0

>  <nBondsM>
0

>  <nBondsKS>
7

>  <nBondsKD>
0

>  <RNCG>
0.71

>  <RPCG>
0.24

>  <FCSP3>
1

>  <SZ>
5.67

>  <Sm>
5.37

>  <Sv>
4.45

>  <Sse>
7.99

>  <Sp>
5.3

>  <Si>
9.19

>  <MZ>
0.71

>  <Mm>
0.67

>  <Mv>
0.56

>  <Mse>
1

>  <Mp>
0.66

>  <Mi>
1.15

>  <NsCH3>
1

>  <NdCH2>
0

>  <NssCH2>
1

>  <NtCH>
0

>  <NdsCH>
0

>  <NaaCH>
0

>  <NsssCH>
0

>  <NddC>
0

>  <NtsC>
0

>  <NdssC>
0

>  <NaasC>
0

>  <NaaaC>
0

>  <NssssC>
0

>  <NsNH3>
0

>  <NsNH2>
0

>  <NssNH2>
0

>  <NdNH>
0

>  <NssNH>
0

>  <NaaNH>
0

>  <NtN>
0

>  <NsssNH>
0

>  <NdsN>
0

>  <NaaN>
0

>  <NsssN>
0

>  <NddsN>
0

>  <NaasN>
0

>  <NssssN>
0

>  <NsOH>
0

>  <NdO>
0

>  <NssO>
0

>  <NaaO>
0

>  <NsF>
0

>  <NsSiH3>
0

>  <NssSiH2>
0

>  <NsssSiH>
0

>  <NssssSi>
0

>  <NsPH2>
0

>  <NssPH>
0

>  <NsssP>
0

>  <NdsssP>
0

>  <NsssssP>
0

>  <NsSH>
0

>  <NdS>
0

>  <NssS>
0

>  <NaaS>
0

>  <NdssS>
0

>  <NddssS>
0

>  <NsCl>
1

>  <NsBr>
0

>  <NsI>
0

>  <fragCpx>
2.01

>  <fMF>
0

>  <nHBAcc>
0

>  <nHBDon>
0

>  <Kier1>
3

>  <Kier2>
2

>  <Lipinski>
1

>  <GhoseFilter>
0

>  <FilterItLogS>
-1.13

>  <VMcGowan>
51.28

>  <LabuteASA>
25.41

>  <PEOE_VSA1>
0

>  <PEOE_VSA2>
0

>  <PEOE_VSA3>
0

>  <PEOE_VSA4>
0

>  <PEOE_VSA5>
11.6

>  <PEOE_VSA6>
6.92

>  <PEOE_VSA7>
0

>  <PEOE_VSA8>
5.88

>  <PEOE_VSA9>
0

>  <PEOE_VSA10>
0

>  <PEOE_VSA11>
0

>  <PEOE_VSA12>
0

>  <PEOE_VSA13>
0

>  <SMR_VSA1>
0

>  <SMR_VSA2>
0

>  <SMR_VSA3>
0

>  <SMR_VSA4>
0

>  <SMR_VSA5>
6.92

>  <SMR_VSA6>
5.88

>  <SMR_VSA7>
0

>  <SMR_VSA8>
0

>  <SMR_VSA9>
0

>  <SlogP_VSA1>
0

>  <SlogP_VSA2>
5.88

>  <SlogP_VSA3>
0

>  <SlogP_VSA4>
0

>  <SlogP_VSA5>
6.92

>  <SlogP_VSA6>
0

>  <SlogP_VSA7>
0

>  <SlogP_VSA8>
0

>  <SlogP_VSA9>
0

>  <SlogP_VSA10>
0

>  <SlogP_VSA11>
0

>  <EState_VSA1>
0

>  <EState_VSA2>
0

>  <EState_VSA3>
0

>  <EState_VSA4>
5.88

>  <EState_VSA5>
0

>  <EState_VSA6>
0

>  <EState_VSA7>
6.92

>  <EState_VSA8>
0

>  <EState_VSA9>
11.6

>  <EState_VSA10>
0

>  <VSA_EState1>
0

>  <VSA_EState2>
0

>  <VSA_EState3>
0

>  <VSA_EState4>
0

>  <VSA_EState5>
0.72

>  <VSA_EState6>
0

>  <VSA_EState7>
0

>  <VSA_EState8>
1.89

>  <VSA_EState9>
0

>  <apol>
8.85

>  <bpol>
5.53

>  <nRing>
0

>  <nHRing>
0

>  <naRing>
0

>  <naHRing>
0

>  <nARing 2>
0

>  <nAHRing 2>
0

>  <nFRing>
0

>  <nFHRing>
0

>  <nFaRing>
0

>  <nFaHRing>
0

>  <nFARing 2>
0

>  <nFAHRing 2>
0

>  <nRot>
0

>  <SLogP>
1.25

>  <SMR>
16.39

>  <TopoPSA(NO)>
0

>  <TopoPSA>
0

>  <JGI1>
0.25

>  <JGI2>
0

>  <JGI3>
0

>  <JGI4>
0

>  <JGI5>
0

>  <Diameter>
2

>  <Radius>
1

>  <TMWC10>
33.9

>  <TSRW10>
17.31

>  <MW>
64.01

>  <AMW>
8

>  <WPath>
4

>  <WPol>
0

>  <Zagreb1>
6

>  <Zagreb2>
4

>  <mZagreb2>
1

>  <yes>


>  <nAR-cont>
0.336376

>  <nHA-cont>
0

>  <MWHBN>
0

>  <MWHBN-cont>
0

>  <TPSA-cont>
0

>  <pka_cont>
0.97

>  <yes.1>


>  <BBB_SCORE>
0.821376

>  <MMFF94 Energy>
-2.1527

$$$$
Compound 1193
Actelion Java MolfileCreator 2.0

  0  0  0  0  0  0              0 V3000
M  V30 BEGIN CTAB
M  V30 COUNTS 38 40 0 0 0
M  V30 BEGIN ATOM
M  V30 1 O 0.4796 -1.2793 3.2008 0
M  V30 2 C 1.3845 -0.4523 3.0679 0
M  V30 3 N 2.0029 -0.1653 1.8513 0
M  V30 4 C 1.8856 0.2965 4.2786 0
M  V30 5 C 1.5361 -0.8155 0.6773 0
M  V30 6 C 3.0535 0.8439 1.6583 0
M  V30 7 C 0.2386 -0.5734 0.2143 0
M  V30 8 C 2.3749 -1.6884 -0.0201 0
M  V30 9 C 2.4789 2.1966 1.2599 0
M  V30 10 C -0.226 -1.1989 -0.9494 0
M  V30 11 C 1.92 -2.313 -1.1812 0
M  V30 12 C -1.599 -0.9535 -1.4207 0
M  V30 13 C 0.6255 -2.0692 -1.645 0
M  V30 14 N -2.0116 0.3099 -1.8821 0
M  V30 15 C -2.4877 -1.9635 -1.3838 0
M  V30 16 N -1.2776 1.4561 -1.9911 0
M  V30 17 C -3.335 0.5131 -2.3123 0
M  V30 18 C -3.8574 -1.6411 -1.8581 0
M  V30 19 C -2.1284 2.3576 -2.4812 0
M  V30 20 N -4.2668 -0.4901 -2.2971 0
M  V30 21 C -3.4072 1.8328 -2.6978 0
M  V30 22 C -4.5466 2.5125 -3.2086 0
M  V30 23 N -5.4497 3.1079 -3.6302 0
M  V30 24 H 2.9122 -0.0034 4.5046 0
M  V30 25 H 1.8316 1.3754 4.1173 0
M  V30 26 H 1.2582 0.0523 5.1415 0
M  V30 27 H 3.7586 0.5016 0.8923 0
M  V30 28 H 3.6318 0.9559 2.5798 0
M  V30 29 H -0.409 0.1032 0.7672 0
M  V30 30 H 3.378 -1.8958 0.3413 0
M  V30 31 H 1.765 2.5616 2.0049 0
M  V30 32 H 1.9562 2.1367 0.2998 0
M  V30 33 H 3.2809 2.9349 1.1627 0
M  V30 34 H 2.5728 -2.9923 -1.7232 0
M  V30 35 H 0.2901 -2.561 -2.5554 0
M  V30 36 H -2.2774 -2.9632 -1.0283 0
M  V30 37 H -4.5729 -2.48 -1.8232 0
M  V30 38 H -1.7734 3.3654 -2.6599 0
M  V30 END ATOM
M  V30 BEGIN BOND
M  V30 1 2 1 2
M  V30 2 1 2 3
M  V30 3 1 2 4
M  V30 4 1 3 5
M  V30 5 1 3 6
M  V30 6 2 5 7
M  V30 7 1 5 8
M  V30 8 1 6 9
M  V30 9 1 7 10
M  V30 10 2 8 11
M  V30 11 1 10 12
M  V30 12 2 10 13
M  V30 13 1 12 14
M  V30 14 2 12 15
M  V30 15 1 14 16
M  V30 16 1 14 17
M  V30 17 1 15 18
M  V30 18 2 16 19
M  V30 19 1 17 20
M  V30 20 2 17 21
M  V30 21 1 21 22
M  V30 22 3 22 23
M  V30 23 1 11 13
M  V30 24 2 18 20
M  V30 25 1 19 21
M  V30 26 1 4 24
M  V30 27 1 4 25
M  V30 28 1 4 26
M  V30 29 1 6 27
M  V30 30 1 6 28
M  V30 31 1 7 29
M  V30 32 1 8 30
M  V30 33 1 9 31
M  V30 34 1 9 32
M  V30 35 1 9 33
M  V30 36 1 11 34
M  V30 37 1 13 35
M  V30 38 1 15 36
M  V30 39 1 18 37
M  V30 40 1 19 38
M  V30 END BOND
M  V30 END CTAB
M  END
>  <Column 1>
1416

>  <level_0>
1566

>  <index>
1566

>  <Unnamed: 0>
1566

>  <NO.>
1578

>  <Name>
zaleplon

>  <IUPAC_name>
n-[3-(3-cyanopyrazolo[1-5-a]pyrimidin-7-yl)phenyl]-n-ethylacetamide

>  <SMILES>
CCN(C(C)=O)c1cccc(-c2ccnc3c(C#N)cnn23)c1

>  <CID>
5719

>  <logBB>


>  <BBB+/BBB->
BBB+

>  <Inchi>
InChI=1S/C17H15N5O/c1-3-21(12(2)23)15-6-4-5-13(9-15)16-7-8-19-17-14(10-18)11-20-22(16)17/h4-9-11H-3H2-1-2H3

>  <threshold>
-1

>  <reference>
R1|R13|R19|R6|R14|R15|R23|R26|R27|R27|R27|R27|R30|R30|R34|R37|

>  <group>
B

>  <Class>
1

>  <ABC>
17.65

>  <ABCGG>
14.99

>  <nAcid>
0

>  <nBase>
0

>  <nAromAtom>
15

>  <nAromBond>
16

>  <nAtom>
38

>  <nHeavyAtom>
23

>  <nSpiro>
0

>  <nBridgehead>
0

>  <nHetero>
6

>  <nN>
5

>  <nO>
1

>  <nF>
0

>  <BalabanJ>
1.66

>  <BertzCT>
922.12

>  <nBonds>
40

>  <nBondsO>
25

>  <nBondsS>
22

>  <nBondsD>
1

>  <nBondsT>
1

>  <nBondsA>
16

>  <nBondsM>
18

>  <nBondsKS>
31

>  <nBondsKD>
8

>  <RNCG>
0.19

>  <RPCG>
0.14

>  <FCSP3>
0.18

>  <SZ>
26.67

>  <Sm>
25.42

>  <Sv>
25.57

>  <Sse>
38.31

>  <Sp>
26.76

>  <Si>
42.78

>  <MZ>
0.7

>  <Mm>
0.67

>  <Mv>
0.67

>  <Mse>
1.01

>  <Mp>
0.7

>  <Mi>
1.13

>  <NsCH3>
2

>  <NdCH2>
0

>  <NssCH2>
1

>  <NtCH>
0

>  <NdsCH>
0

>  <NaaCH>
7

>  <NsssCH>
0

>  <NddC>
0

>  <NtsC>
1

>  <NdssC>
1

>  <NaasC>
4

>  <NaaaC>
1

>  <NssssC>
0

>  <NsNH3>
0

>  <NsNH2>
0

>  <NssNH2>
0

>  <NdNH>
0

>  <NssNH>
0

>  <NaaNH>
0

>  <NtN>
1

>  <NsssNH>
0

>  <NdsN>
0

>  <NaaN>
2

>  <NsssN>
1

>  <NddsN>
0

>  <NaasN>
1

>  <NssssN>
0

>  <NsOH>
0

>  <NdO>
1

>  <NssO>
0

>  <NaaO>
0

>  <NsF>
0

>  <NsSiH3>
0

>  <NssSiH2>
0

>  <NsssSiH>
0

>  <NssssSi>
0

>  <NsPH2>
0

>  <NssPH>
0

>  <NsssP>
0

>  <NdsssP>
0

>  <NsssssP>
0

>  <NsSH>
0

>  <NdS>
0

>  <NssS>
0

>  <NaaS>
0

>  <NdssS>
0

>  <NddssS>
0

>  <NsCl>
0

>  <NsBr>
0

>  <NsI>
0

>  <fragCpx>
119.06

>  <fMF>
0.39

>  <nHBAcc>
5

>  <nHBDon>
0

>  <Kier1>
17.81

>  <Kier2>
7.92

>  <Lipinski>
1

>  <GhoseFilter>
1

>  <FilterItLogS>
-3.71

>  <VMcGowan>
230.58

>  <LabuteASA>
133.15

>  <PEOE_VSA1>
4.9

>  <PEOE_VSA2>
4.79

>  <PEOE_VSA3>
9.5

>  <PEOE_VSA4>
10.36

>  <PEOE_VSA5>
0

>  <PEOE_VSA6>
12.13

>  <PEOE_VSA7>
25.12

>  <PEOE_VSA8>
30.92

>  <PEOE_VSA9>
11.89

>  <PEOE_VSA10>
11.63

>  <PEOE_VSA11>
5.65

>  <PEOE_VSA12>
5.91

>  <PEOE_VSA13>
0

>  <SMR_VSA1>
4.79

>  <SMR_VSA2>
5.26

>  <SMR_VSA3>
14.6

>  <SMR_VSA4>
0

>  <SMR_VSA5>
13.85

>  <SMR_VSA6>
11.44

>  <SMR_VSA7>
48.29

>  <SMR_VSA8>
0

>  <SMR_VSA9>
17.33

>  <SlogP_VSA1>
4.9

>  <SlogP_VSA2>
27.05

>  <SlogP_VSA3>
4.79

>  <SlogP_VSA4>
11.33

>  <SlogP_VSA5>
19.41

>  <SlogP_VSA6>
42.73

>  <SlogP_VSA7>
0

>  <SlogP_VSA8>
16.9

>  <SlogP_VSA9>
0

>  <SlogP_VSA10>
5.69

>  <SlogP_VSA11>
0

>  <EState_VSA1>
0

>  <EState_VSA2>
5.91

>  <EState_VSA3>
17.76

>  <EState_VSA4>
16.94

>  <EState_VSA5>
6.2

>  <EState_VSA6>
22.54

>  <EState_VSA7>
37.26

>  <EState_VSA8>
16.15

>  <EState_VSA9>
5.26

>  <EState_VSA10>
4.79

>  <VSA_EState1>
1.64

>  <VSA_EState2>
17.65

>  <VSA_EState3>
13.36

>  <VSA_EState4>
3.51

>  <VSA_EState5>
0

>  <VSA_EState6>
11.6

>  <VSA_EState7>
3.16

>  <VSA_EState8>
4.09

>  <VSA_EState9>
0

>  <apol>
44.69

>  <bpol>
21.05

>  <nRing>
3

>  <nHRing>
2

>  <naRing>
3

>  <naHRing>
2

>  <nARing 2>
0

>  <nAHRing 2>
0

>  <nFRing>
1

>  <nFHRing>
1

>  <nFaRing>
1

>  <nFaHRing>
1

>  <nFARing 2>
0

>  <nFAHRing 2>
0

>  <nRot>
3

>  <SLogP>
2.64

>  <SMR>
86.84

>  <TopoPSA(NO)>
74.29

>  <TopoPSA>
74.29

>  <JGI1>
0.16

>  <JGI2>
0.09

>  <JGI3>
0.05

>  <JGI4>
0.02

>  <JGI5>
0.03

>  <Diameter>
11

>  <Radius>
6

>  <TMWC10>
123.16

>  <TSRW10>
71.44

>  <MW>
305.13

>  <AMW>
8.03

>  <WPath>
1169

>  <WPol>
38

>  <Zagreb1>
120

>  <Zagreb2>
144

>  <mZagreb2>
5.25

>  <yes>


>  <nAR-cont>
0.336376

>  <nHA-cont>
0.967789328

>  <MWHBN>
0.286238172

>  <MWHBN-cont>
0.87981046

>  <TPSA-cont>
0.481409669

>  <pka_cont>
0.97

>  <yes.1>


>  <BBB_SCORE>
4.071700355

>  <MMFF94 Energy>
73.121

$$$$
Compound 1194
Actelion Java MolfileCreator 2.0

  0  0  0  0  0  0              0 V3000
M  V30 BEGIN CTAB
M  V30 COUNTS 61 63 0 0 0
M  V30 BEGIN ATOM
M  V30 1 O -3.4888 1.5053 -1.2675 0
M  V30 2 C -2.4388 1.2789 -1.8764 0
M  V30 3 N -2.243 1.7499 -3.1739 0
M  V30 4 C -1.3224 0.4936 -1.1905 0
M  V30 5 C -1.0544 1.4996 -3.995 0
M  V30 6 C -3.3387 2.5049 -3.7902 0
M  V30 7 C -0.595 1.4133 -0.2034 0
M  V30 8 C -1.9418 -0.6869 -0.4296 0
M  V30 9 C -1.1216 0.1761 -4.7407 0
M  V30 10 C -4.4017 1.6082 -4.4062 0
M  V30 11 O 0.1226 2.4198 -0.953 0
M  V30 12 C 0.4131 0.6108 0.6241 0
M  V30 13 N -0.9833 -1.4601 0.3701 0
M  V30 14 C 0.414 3.5708 -0.2854 0
M  V30 15 C -0.2379 -0.6013 1.3144 0
M  V30 16 C -0.0892 -2.2932 -0.4387 0
M  V30 17 O 0.1602 3.7975 0.8882 0
M  V30 18 C 1.1099 4.5283 -1.2032 0
M  V30 19 C 0.8109 -1.3743 2.1076 0
M  V30 20 C 0.6729 -3.279 0.454 0
M  V30 21 C 1.2763 -2.6246 1.6715 0
M  V30 22 C 1.3482 -0.8178 3.2829 0
M  V30 23 C 2.257 -3.304 2.4117 0
M  V30 24 C 2.3351 -1.4876 4.0158 0
M  V30 25 C 2.7938 -2.7434 3.5757 0
M  V30 26 O 2.9107 -1.0034 5.1652 0
M  V30 27 O 3.7608 -3.3376 4.3493 0
M  V30 28 C 2.4501 0.2463 5.6582 0
M  V30 29 C 4.2066 -4.6308 3.9694 0
M  V30 30 H -0.6187 0.1013 -1.9265 0
M  V30 31 H -0.1631 1.5142 -3.3632 0
M  V30 32 H -0.9318 2.3242 -4.7061 0
M  V30 33 H -2.9312 3.1859 -4.5452 0
M  V30 34 H -3.8088 3.1333 -3.0243 0
M  V30 35 H -1.3285 1.8971 0.4563 0
M  V30 36 H -2.7257 -0.3305 0.2525 0
M  V30 37 H -2.4637 -1.3504 -1.1318 0
M  V30 38 H -1.9219 0.1807 -5.4854 0
M  V30 39 H -1.3036 -0.6619 -4.0609 0
M  V30 40 H -0.1796 -0.0077 -5.2668 0
M  V30 41 H -4.8119 0.9102 -3.6695 0
M  V30 42 H -3.9975 1.0206 -5.2344 0
M  V30 43 H -5.2254 2.2142 -4.7969 0
M  V30 44 H 1.2488 0.2986 -0.0174 0
M  V30 45 H 0.8713 1.2716 1.371 0
M  V30 46 H -0.9719 -0.2317 2.0447 0
M  V30 47 H 0.6212 -1.6867 -1.0132 0
M  V30 48 H -0.6659 -2.8772 -1.1666 0
M  V30 49 H 2.0629 4.1034 -1.5278 0
M  V30 50 H 0.4722 4.7464 -2.0638 0
M  V30 51 H 1.3057 5.4635 -0.6708 0
M  V30 52 H -0.0122 -4.0651 0.7965 0
M  V30 53 H 1.4601 -3.7573 -0.1408 0
M  V30 54 H 0.9758 0.1492 3.6066 0
M  V30 55 H 2.581 -4.277 2.0573 0
M  V30 56 H 2.6561 1.052 4.9458 0
M  V30 57 H 3.0021 0.4672 6.5769 0
M  V30 58 H 1.3859 0.2037 5.9129 0
M  V30 59 H 3.3848 -5.3544 3.9872 0
M  V30 60 H 4.951 -4.9567 4.7023 0
M  V30 61 H 4.6943 -4.6081 2.9894 0
M  V30 END ATOM
M  V30 BEGIN BOND
M  V30 1 2 1 2
M  V30 2 1 2 3
M  V30 3 1 2 4
M  V30 4 1 3 5
M  V30 5 1 3 6
M  V30 6 1 4 7
M  V30 7 1 4 8
M  V30 8 1 5 9
M  V30 9 1 6 10
M  V30 10 1 7 11
M  V30 11 1 7 12
M  V30 12 1 8 13
M  V30 13 1 11 14
M  V30 14 1 12 15
M  V30 15 1 13 16
M  V30 16 2 14 17
M  V30 17 1 14 18
M  V30 18 1 15 19
M  V30 19 1 16 20
M  V30 20 2 19 21
M  V30 21 1 19 22
M  V30 22 1 21 23
M  V30 23 2 22 24
M  V30 24 2 23 25
M  V30 25 1 24 26
M  V30 26 1 25 27
M  V30 27 1 26 28
M  V30 28 1 27 29
M  V30 29 1 13 15
M  V30 30 1 20 21
M  V30 31 1 24 25
M  V30 32 1 4 30
M  V30 33 1 5 31
M  V30 34 1 5 32
M  V30 35 1 6 33
M  V30 36 1 6 34
M  V30 37 1 7 35
M  V30 38 1 8 36
M  V30 39 1 8 37
M  V30 40 1 9 38
M  V30 41 1 9 39
M  V30 42 1 9 40
M  V30 43 1 10 41
M  V30 44 1 10 42
M  V30 45 1 10 43
M  V30 46 1 12 44
M  V30 47 1 12 45
M  V30 48 1 15 46
M  V30 49 1 16 47
M  V30 50 1 16 48
M  V30 51 1 18 49
M  V30 52 1 18 50
M  V30 53 1 18 51
M  V30 54 1 20 52
M  V30 55 1 20 53
M  V30 56 1 22 54
M  V30 57 1 23 55
M  V30 58 1 28 56
M  V30 59 1 28 57
M  V30 60 1 28 58
M  V30 61 1 29 59
M  V30 62 1 29 60
M  V30 63 1 29 61
M  V30 END BOND
M  V30 END CTAB
M  END
>  <Column 1>
1417

>  <level_0>
1567

>  <index>
1567

>  <Unnamed: 0>
1567

>  <NO.>
1579

>  <Name>
benzquinamide

>  <IUPAC_name>
[3-(diethylcarbamoyl)-9-10-dimethoxy-2-3-4-6-7-11b-hexahydro-1h-benzo[a]quinolizin-2-yl] acetate

>  <SMILES>
CCN(CC)C(=O)C1CN2CCc3cc(OC)c(OC)cc3C2CC1OC(C)=O

>  <CID>
2342

>  <logBB>


>  <BBB+/BBB->
BBB+

>  <Inchi>
InChI=1S/C22H32N2O5/c1-6-23(7-2)22(26)17-13-24-9-8-15-10-20(27-4)21(28-5)11-16(15)18(24)12-19(17)29-14(3)25/h10-11-17-19H-6-9-12-13H2-1-5H3

>  <threshold>
-1

>  <reference>
R1|R19|R6|R27|R27|R30|

>  <group>
B

>  <Class>
1

>  <ABC>
21.97

>  <ABCGG>
17.9

>  <nAcid>
0

>  <nBase>
1

>  <nAromAtom>
6

>  <nAromBond>
6

>  <nAtom>
61

>  <nHeavyAtom>
29

>  <nSpiro>
0

>  <nBridgehead>
0

>  <nHetero>
7

>  <nN>
2

>  <nO>
5

>  <nF>
0

>  <BalabanJ>
1.78

>  <BertzCT>
761.81

>  <nBonds>
63

>  <nBondsO>
31

>  <nBondsS>
55

>  <nBondsD>
2

>  <nBondsT>
0

>  <nBondsA>
6

>  <nBondsM>
8

>  <nBondsKS>
58

>  <nBondsKD>
5

>  <RNCG>
0.18

>  <RPCG>
0.11

>  <FCSP3>
0.64

>  <SZ>
36.33

>  <Sm>
33.68

>  <Sv>
35.76

>  <Sse>
61.19

>  <Sp>
38.5

>  <Si>
69.27

>  <MZ>
0.6

>  <Mm>
0.55

>  <Mv>
0.59

>  <Mse>
1

>  <Mp>
0.63

>  <Mi>
1.14

>  <NsCH3>
5

>  <NdCH2>
0

>  <NssCH2>
6

>  <NtCH>
0

>  <NdsCH>
0

>  <NaaCH>
2

>  <NsssCH>
3

>  <NddC>
0

>  <NtsC>
0

>  <NdssC>
2

>  <NaasC>
4

>  <NaaaC>
0

>  <NssssC>
0

>  <NsNH3>
0

>  <NsNH2>
0

>  <NssNH2>
0

>  <NdNH>
0

>  <NssNH>
0

>  <NaaNH>
0

>  <NtN>
0

>  <NsssNH>
0

>  <NdsN>
0

>  <NaaN>
0

>  <NsssN>
2

>  <NddsN>
0

>  <NaasN>
0

>  <NssssN>
0

>  <NsOH>
0

>  <NdO>
2

>  <NssO>
3

>  <NaaO>
0

>  <NsF>
0

>  <NsSiH3>
0

>  <NssSiH2>
0

>  <NsssSiH>
0

>  <NssssSi>
0

>  <NsPH2>
0

>  <NssPH>
0

>  <NsssP>
0

>  <NdsssP>
0

>  <NsssssP>
0

>  <NsSH>
0

>  <NdS>
0

>  <NssS>
0

>  <NaaS>
0

>  <NdssS>
0

>  <NddssS>
0

>  <NsCl>
0

>  <NsBr>
0

>  <NsI>
0

>  <fragCpx>
149.07

>  <fMF>
0.23

>  <nHBAcc>
6

>  <nHBDon>
0

>  <Kier1>
23.66

>  <Kier2>
10.54

>  <Lipinski>
1

>  <GhoseFilter>
1

>  <FilterItLogS>
-3.8

>  <VMcGowan>
316.07

>  <LabuteASA>
172.44

>  <PEOE_VSA1>
19.11

>  <PEOE_VSA2>
14.49

>  <PEOE_VSA3>
0

>  <PEOE_VSA4>
0

>  <PEOE_VSA5>
0

>  <PEOE_VSA6>
0

>  <PEOE_VSA7>
43.53

>  <PEOE_VSA8>
45.57

>  <PEOE_VSA9>
20.14

>  <PEOE_VSA10>
6.1

>  <PEOE_VSA11>
11.5

>  <PEOE_VSA12>
5.91

>  <PEOE_VSA13>
0

>  <SMR_VSA1>
23.8

>  <SMR_VSA2>
0

>  <SMR_VSA3>
9.8

>  <SMR_VSA4>
5.92

>  <SMR_VSA5>
45.76

>  <SMR_VSA6>
40.4

>  <SMR_VSA7>
23.26

>  <SMR_VSA8>
0

>  <SMR_VSA9>
11.5

>  <SlogP_VSA1>
9.47

>  <SlogP_VSA2>
68.18

>  <SlogP_VSA3>
20.75

>  <SlogP_VSA4>
5.92

>  <SlogP_VSA5>
44.36

>  <SlogP_VSA6>
12.13

>  <SlogP_VSA7>
0

>  <SlogP_VSA8>
0

>  <SlogP_VSA9>
0

>  <SlogP_VSA10>
0

>  <SlogP_VSA11>
11.5

>  <EState_VSA1>
6.1

>  <EState_VSA2>
23.84

>  <EState_VSA3>
31.8

>  <EState_VSA4>
18.72

>  <EState_VSA5>
18.05

>  <EState_VSA6>
14.22

>  <EState_VSA7>
30.88

>  <EState_VSA8>
4.9

>  <EState_VSA9>
14.21

>  <EState_VSA10>
9.59

>  <VSA_EState1>
16.62

>  <VSA_EState2>
29.08

>  <VSA_EState3>
0

>  <VSA_EState4>
2.39

>  <VSA_EState5>
0.8

>  <VSA_EState6>
4.16

>  <VSA_EState7>
1.05

>  <VSA_EState8>
8.13

>  <VSA_EState9>
3.27

>  <apol>
64.29

>  <bpol>
42.47

>  <nRing>
3

>  <nHRing>
2

>  <naRing>
1

>  <naHRing>
0

>  <nARing 2>
2

>  <nAHRing 2>
2

>  <nFRing>
1

>  <nFHRing>
1

>  <nFaRing>
0

>  <nFaHRing>
0

>  <nFARing 2>
1

>  <nFAHRing 2>
1

>  <nRot>
6

>  <SLogP>
2.42

>  <SMR>
109.15

>  <TopoPSA(NO)>
68.31

>  <TopoPSA>
68.31

>  <JGI1>
0.21

>  <JGI2>
0.09

>  <JGI3>
0.05

>  <JGI4>
0.05

>  <JGI5>
0.03

>  <Diameter>
13

>  <Radius>
7

>  <TMWC10>
137.5

>  <TSRW10>
64.71

>  <MW>
404.23

>  <AMW>
6.63

>  <WPath>
2148

>  <WPol>
52

>  <Zagreb1>
150

>  <Zagreb2>
180

>  <mZagreb2>
6.69

>  <yes>


>  <nAR-cont>
1

>  <nHA-cont>
0.785905698

>  <MWHBN>
0.298426221

>  <MWHBN-cont>
0.845415173

>  <TPSA-cont>
0.523153782

>  <pka_cont>
0.97

>  <yes.1>


>  <BBB_SCORE>
4.585336022

>  <MMFF94 Energy>
38.491

$$$$
Compound 1195
Actelion Java MolfileCreator 2.0

  0  0  0  0  0  0              0 V3000
M  V30 BEGIN CTAB
M  V30 COUNTS 47 47 0 0 0
M  V30 BEGIN ATOM
M  V30 1 O 0.0779 1.1702 2.1853 0
M  V30 2 C 0.3283 0.4599 1.2177 0
M  V30 3 N 0.0943 0.8552 -0.075 0
M  V30 4 C 0.9402 -0.8847 1.4083 0
M  V30 5 C -0.5076 2.1399 -0.377 0
M  V30 6 C 1.6926 -1.102 2.5727 0
M  V30 7 C 0.7585 -1.9186 0.4781 0
M  V30 8 C -0.7662 2.2432 -1.8844 0
M  V30 9 C 2.2855 -2.3423 2.8077 0
M  V30 10 C 1.3497 -3.1647 0.694 0
M  V30 11 O -0.3627 1.3535 -2.6425 0
M  V30 12 N -1.4525 3.3626 -2.3499 0
M  V30 13 O 3.0461 -2.6527 3.9051 0
M  V30 14 C 2.096 -3.371 1.8683 0
M  V30 15 O 1.2376 -4.2385 -0.1513 0
M  V30 16 C -1.9522 4.4374 -1.487 0
M  V30 17 C -1.7266 3.4531 -3.7852 0
M  V30 18 C 3.3134 -1.6097 4.8331 0
M  V30 19 O 2.7146 -4.5868 2.0649 0
M  V30 20 C 0.6947 -4.001 -1.4434 0
M  V30 21 C -3.4037 4.2405 -1.0826 0
M  V30 22 C -2.914 2.6046 -4.2162 0
M  V30 23 C 1.8552 -5.4529 2.8042 0
M  V30 24 H 0.3926 0.3065 -0.8746 0
M  V30 25 H 0.1903 2.9225 -0.0653 0
M  V30 26 H -1.4441 2.2242 0.1812 0
M  V30 27 H 1.7997 -0.2808 3.2754 0
M  V30 28 H 0.1327 -1.7501 -0.3902 0
M  V30 29 H -1.8288 5.3924 -2.0099 0
M  V30 30 H -1.3392 4.5004 -0.5838 0
M  V30 31 H -0.8365 3.1169 -4.3299 0
M  V30 32 H -1.8911 4.5012 -4.0574 0
M  V30 33 H 3.8509 -0.7832 4.3566 0
M  V30 34 H 3.9587 -2.0175 5.6172 0
M  V30 35 H 2.3913 -1.2612 5.3098 0
M  V30 36 H -0.3718 -3.7624 -1.3807 0
M  V30 37 H 0.7951 -4.9238 -2.0229 0
M  V30 38 H 1.246 -3.2149 -1.9702 0
M  V30 39 H -3.5613 3.2592 -0.6246 0
M  V30 40 H -4.0694 4.3207 -1.9464 0
M  V30 41 H -3.7024 5.0084 -0.362 0
M  V30 42 H -3.837 2.9281 -3.728 0
M  V30 43 H -2.7613 1.549 -3.9706 0
M  V30 44 H -3.0598 2.6833 -5.2981 0
M  V30 45 H 1.6395 -5.0489 3.7994 0
M  V30 46 H 2.3738 -6.4075 2.9336 0
M  V30 47 H 0.9219 -5.6466 2.2642 0
M  V30 END ATOM
M  V30 BEGIN BOND
M  V30 1 2 1 2
M  V30 2 1 2 3
M  V30 3 1 2 4
M  V30 4 1 3 5
M  V30 5 2 4 6
M  V30 6 1 4 7
M  V30 7 1 5 8
M  V30 8 1 6 9
M  V30 9 2 7 10
M  V30 10 2 8 11
M  V30 11 1 8 12
M  V30 12 1 9 13
M  V30 13 2 9 14
M  V30 14 1 10 15
M  V30 15 1 12 16
M  V30 16 1 12 17
M  V30 17 1 13 18
M  V30 18 1 14 19
M  V30 19 1 15 20
M  V30 20 1 16 21
M  V30 21 1 17 22
M  V30 22 1 19 23
M  V30 23 1 10 14
M  V30 24 1 3 24
M  V30 25 1 5 25
M  V30 26 1 5 26
M  V30 27 1 6 27
M  V30 28 1 7 28
M  V30 29 1 16 29
M  V30 30 1 16 30
M  V30 31 1 17 31
M  V30 32 1 17 32
M  V30 33 1 18 33
M  V30 34 1 18 34
M  V30 35 1 18 35
M  V30 36 1 20 36
M  V30 37 1 20 37
M  V30 38 1 20 38
M  V30 39 1 21 39
M  V30 40 1 21 40
M  V30 41 1 21 41
M  V30 42 1 22 42
M  V30 43 1 22 43
M  V30 44 1 22 44
M  V30 45 1 23 45
M  V30 46 1 23 46
M  V30 47 1 23 47
M  V30 END BOND
M  V30 END CTAB
M  END
>  <Column 1>
1418

>  <level_0>
1568

>  <index>
1568

>  <Unnamed: 0>
1568

>  <NO.>
1580

>  <Name>
tricetamide

>  <IUPAC_name>
n-[2-(diethylamino)-2-oxoethyl]-3-4-5-trimethoxybenzamide

>  <SMILES>
CCN(CC)C(=O)CNC(=O)c1cc(OC)c(OC)c(OC)c1

>  <CID>
67763

>  <logBB>


>  <BBB+/BBB->
BBB+

>  <Inchi>
InChI=1S/C16H24N2O5/c1-6-18(7-2)14(19)10-17-16(20)11-8-12(21-3)15(23-5)13(9-11)22-4/h8-9H-6-7-10H2-1-5H3-(H-17-20)

>  <threshold>
-1

>  <reference>
R1|R13|R19|R6|R24|R27|R27|R27|R30|R30|

>  <group>
B

>  <Class>
-1

>  <ABC>
16.32

>  <ABCGG>
15.06

>  <nAcid>
0

>  <nBase>
0

>  <nAromAtom>
6

>  <nAromBond>
6

>  <nAtom>
47

>  <nHeavyAtom>
23

>  <nSpiro>
0

>  <nBridgehead>
0

>  <nHetero>
7

>  <nN>
2

>  <nO>
5

>  <nF>
0

>  <BalabanJ>
2.57

>  <BertzCT>
530.4

>  <nBonds>
47

>  <nBondsO>
23

>  <nBondsS>
39

>  <nBondsD>
2

>  <nBondsT>
0

>  <nBondsA>
6

>  <nBondsM>
8

>  <nBondsKS>
42

>  <nBondsKD>
5

>  <RNCG>
0.18

>  <RPCG>
0.09

>  <FCSP3>
0.5

>  <SZ>
29

>  <Sm>
27.01

>  <Sv>
27.59

>  <Sse>
47.63

>  <Sp>
29.3

>  <Si>
53.61

>  <MZ>
0.62

>  <Mm>
0.57

>  <Mv>
0.59

>  <Mse>
1.01

>  <Mp>
0.62

>  <Mi>
1.14

>  <NsCH3>
5

>  <NdCH2>
0

>  <NssCH2>
3

>  <NtCH>
0

>  <NdsCH>
0

>  <NaaCH>
2

>  <NsssCH>
0

>  <NddC>
0

>  <NtsC>
0

>  <NdssC>
2

>  <NaasC>
4

>  <NaaaC>
0

>  <NssssC>
0

>  <NsNH3>
0

>  <NsNH2>
0

>  <NssNH2>
0

>  <NdNH>
0

>  <NssNH>
1

>  <NaaNH>
0

>  <NtN>
0

>  <NsssNH>
0

>  <NdsN>
0

>  <NaaN>
0

>  <NsssN>
1

>  <NddsN>
0

>  <NaasN>
0

>  <NssssN>
0

>  <NsOH>
0

>  <NdO>
2

>  <NssO>
3

>  <NaaO>
0

>  <NsF>
0

>  <NsSiH3>
0

>  <NssSiH2>
0

>  <NsssSiH>
0

>  <NssssSi>
0

>  <NsPH2>
0

>  <NssPH>
0

>  <NsssP>
0

>  <NdsssP>
0

>  <NsssssP>
0

>  <NsSH>
0

>  <NdS>
0

>  <NssS>
0

>  <NaaS>
0

>  <NdssS>
0

>  <NddssS>
0

>  <NsCl>
0

>  <NsBr>
0

>  <NsI>
0

>  <fragCpx>
23.07

>  <fMF>
0.13

>  <nHBAcc>
5

>  <nHBDon>
1

>  <Kier1>
21.04

>  <Kier2>
10.78

>  <Lipinski>
1

>  <GhoseFilter>
1

>  <FilterItLogS>
-3.73

>  <VMcGowan>
253.25

>  <LabuteASA>
136.05

>  <PEOE_VSA1>
24.43

>  <PEOE_VSA2>
9.59

>  <PEOE_VSA3>
0

>  <PEOE_VSA4>
0

>  <PEOE_VSA5>
0

>  <PEOE_VSA6>
0

>  <PEOE_VSA7>
25.98

>  <PEOE_VSA8>
18.65

>  <PEOE_VSA9>
27.87

>  <PEOE_VSA10>
0

>  <PEOE_VSA11>
11.5

>  <PEOE_VSA12>
11.66

>  <PEOE_VSA13>
5.91

>  <SMR_VSA1>
23.8

>  <SMR_VSA2>
0

>  <SMR_VSA3>
10.22

>  <SMR_VSA4>
0

>  <SMR_VSA5>
13.85

>  <SMR_VSA6>
40.96

>  <SMR_VSA7>
17.7

>  <SMR_VSA8>
0

>  <SMR_VSA9>
17.25

>  <SlogP_VSA1>
19.53

>  <SlogP_VSA2>
57.68

>  <SlogP_VSA3>
4.79

>  <SlogP_VSA4>
0

>  <SlogP_VSA5>
24.21

>  <SlogP_VSA6>
12.13

>  <SlogP_VSA7>
0

>  <SlogP_VSA8>
0

>  <SlogP_VSA9>
0

>  <SlogP_VSA10>
0

>  <SlogP_VSA11>
17.25

>  <EState_VSA1>
0

>  <EState_VSA2>
18.36

>  <EState_VSA3>
35.9

>  <EState_VSA4>
0

>  <EState_VSA5>
21.33

>  <EState_VSA6>
17.03

>  <EState_VSA7>
13.85

>  <EState_VSA8>
5.32

>  <EState_VSA9>
14.21

>  <EState_VSA10>
9.59

>  <VSA_EState1>
15.63

>  <VSA_EState2>
25.83

>  <VSA_EState3>
2.61

>  <VSA_EState4>
0.33

>  <VSA_EState5>
0.66

>  <VSA_EState6>
3.08

>  <VSA_EState7>
0

>  <VSA_EState8>
4.94

>  <VSA_EState9>
4.44

>  <apol>
48.93

>  <bpol>
33.3

>  <nRing>
1

>  <nHRing>
0

>  <naRing>
1

>  <naHRing>
0

>  <nARing 2>
0

>  <nAHRing 2>
0

>  <nFRing>
0

>  <nFHRing>
0

>  <nFaRing>
0

>  <nFaHRing>
0

>  <nFARing 2>
0

>  <nFAHRing 2>
0

>  <nRot>
8

>  <SLogP>
1.31

>  <SMR>
86.36

>  <TopoPSA(NO)>
77.1

>  <TopoPSA>
77.1

>  <JGI1>
0.22

>  <JGI2>
0.11

>  <JGI3>
0.05

>  <JGI4>
0.04

>  <JGI5>
0.03

>  <Diameter>
12

>  <Radius>
6

>  <TMWC10>
118.59

>  <TSRW10>
56.57

>  <MW>
324.17

>  <AMW>
6.9

>  <WPath>
1294

>  <WPol>
36

>  <Zagreb1>
106

>  <Zagreb2>
122

>  <mZagreb2>
5.69

>  <yes>


>  <nAR-cont>
0.336376

>  <nHA-cont>
0.967789328

>  <MWHBN>
0.333245919

>  <MWHBN-cont>
0.731394293

>  <TPSA-cont>
0.461794124

>  <pka_cont>
0.97

>  <yes.1>


>  <BBB_SCORE>
3.809845015

>  <MMFF94 Energy>
52.813

$$$$
Compound 1196
Actelion Java MolfileCreator 2.0

  0  0  0  0  0  0              0 V3000
M  V30 BEGIN CTAB
M  V30 COUNTS 51 54 0 0 0
M  V30 BEGIN ATOM
M  V30 1 O -2.3824 2.1439 -2.0645 0
M  V30 2 C -1.6183 1.2424 -2.4024 0
M  V30 3 N -1.2887 0.9928 -3.7268 0
M  V30 4 N -1.0347 0.423 -1.4781 0
M  V30 5 C -1.8333 1.9049 -4.7351 0
M  V30 6 C -0.4276 -0.0958 -4.1969 0
M  V30 7 C -1.2947 0.5777 -0.0587 0 CFG=1
M  V30 8 C -0.9957 3.1639 -4.8993 0
M  V30 9 C 1.0487 0.2664 -4.1687 0
M  V30 10 C -0.9682 -0.7389 0.59 0
M  V30 11 C -0.4443 1.7355 0.5377 0
M  V30 12 C -0.2656 -0.8024 1.7356 0
M  V30 13 N -0.3357 1.7484 2.0104 0
M  V30 14 C 0.2335 -2.0876 2.2694 0
M  V30 15 C 0.1908 0.4571 2.5213 0 CFG=2
M  V30 16 C -1.6272 2.0729 2.6215 0
M  V30 17 C 1.4713 -1.9665 2.9232 0
M  V30 18 C -0.3321 -3.3609 2.1788 0
M  V30 19 C 1.7554 0.5202 2.6804 0
M  V30 20 C 2.1196 -3.0623 3.4638 0
M  V30 21 C 2.2554 -0.8088 3.1564 0
M  V30 22 C 0.3287 -4.467 2.7334 0
M  V30 23 N 3.2887 -2.5807 4.0141 0
M  V30 24 C 1.5689 -4.344 3.3863 0
M  V30 25 C 3.3817 -1.2152 3.8327 0
M  V30 26 H -0.2714 -0.1714 -1.7487 0
M  V30 27 H -2.8494 2.1941 -4.4414 0
M  V30 28 H -1.9219 1.38 -5.6923 0
M  V30 29 H -0.7256 -0.376 -5.2133 0
M  V30 30 H -0.5985 -0.9817 -3.576 0
M  V30 31 H -2.3628 0.7846 0.0801 0
M  V30 32 H 0.0083 2.9301 -5.2629 0
M  V30 33 H -0.8917 3.7 -3.9504 0
M  V30 34 H -1.4658 3.8383 -5.6219 0
M  V30 35 H 1.3668 0.5896 -3.1726 0
M  V30 36 H 1.2708 1.0769 -4.8682 0
M  V30 37 H 1.6544 -0.5983 -4.457 0
M  V30 38 H -1.2744 -1.64 0.0678 0
M  V30 39 H 0.5736 1.686 0.1254 0
M  V30 40 H -0.8346 2.6997 0.186 0
M  V30 41 H -0.195 0.3286 3.546 0
M  V30 42 H -2.0082 3.0249 2.235 0
M  V30 43 H -2.3881 1.3034 2.4532 0
M  V30 44 H -1.5115 2.2054 3.7033 0
M  V30 45 H -1.2901 -3.5035 1.6872 0
M  V30 46 H 2.2307 0.758 1.7209 0
M  V30 47 H 2.0263 1.3043 3.3973 0
M  V30 48 H -0.131 -5.4508 2.6565 0
M  V30 49 H 3.9774 -3.15 4.4858 0
M  V30 50 H 2.068 -5.2093 3.8087 0
M  V30 51 H 4.2358 -0.6666 4.2066 0
M  V30 END ATOM
M  V30 BEGIN BOND
M  V30 1 2 1 2
M  V30 2 1 2 3
M  V30 3 1 2 4
M  V30 4 1 3 5
M  V30 5 1 3 6
M  V30 6 1 4 7
M  V30 7 1 5 8
M  V30 8 1 6 9
M  V30 9 1 7 10
M  V30 10 1 7 11
M  V30 11 2 10 12
M  V30 12 1 11 13
M  V30 13 1 12 14
M  V30 14 1 12 15
M  V30 15 1 13 16
M  V30 16 2 14 17
M  V30 17 1 14 18
M  V30 18 1 15 19
M  V30 19 1 17 20
M  V30 20 1 17 21
M  V30 21 2 18 22
M  V30 22 1 20 23
M  V30 23 2 20 24
M  V30 24 2 21 25
M  V30 25 1 13 15
M  V30 26 1 19 21
M  V30 27 1 22 24
M  V30 28 1 23 25
M  V30 29 1 4 26
M  V30 30 1 5 27
M  V30 31 1 5 28
M  V30 32 1 6 29
M  V30 33 1 6 30
M  V30 34 1 7 31
M  V30 35 1 8 32
M  V30 36 1 8 33
M  V30 37 1 8 34
M  V30 38 1 9 35
M  V30 39 1 9 36
M  V30 40 1 9 37
M  V30 41 1 10 38
M  V30 42 1 11 39
M  V30 43 1 11 40
M  V30 44 1 15 41
M  V30 45 1 16 42
M  V30 46 1 16 43
M  V30 47 1 16 44
M  V30 48 1 18 45
M  V30 49 1 19 46
M  V30 50 1 19 47
M  V30 51 1 22 48
M  V30 52 1 23 49
M  V30 53 1 24 50
M  V30 54 1 25 51
M  V30 END BOND
M  V30 BEGIN COLLECTION
M  V30 MDLV30/STEABS ATOMS=(2 7 15)
M  V30 END COLLECTION
M  V30 END CTAB
M  END
>  <Column 1>
1421

>  <level_0>
1571

>  <index>
1571

>  <Unnamed: 0>
1571

>  <NO.>
1583

>  <Name>
lisuride

>  <IUPAC_name>
3-[(6ar-9s)-7-methyl-6-6a-8-9-tetrahydro-4h-indolo[4-3-fg]quinolin-9-yl]-1-1-diethylurea

>  <SMILES>
CCN(CC)C(=O)N[C@H]1C=C2c3cccc4[nH]cc(c34)C[C@H]2N(C)C1

>  <CID>
28864

>  <logBB>


>  <BBB+/BBB->
BBB+

>  <Inchi>
InChI=1S/C20H26N4O/c1-4-24(5-2)20(25)22-14-10-16-15-7-6-8-17-19(15)13(11-21-17)9-18(16)23(3)12-14/h6-8-10-11-14-18-21H-4-5-9-12H2-1-3H3-(H-22-25)/t14--18+/m0/s1

>  <threshold>
-1

>  <reference>
R1|R24|R27|R30|

>  <group>
B

>  <Class>
1

>  <ABC>
19.73

>  <ABCGG>
15.77

>  <nAcid>
0

>  <nBase>
1

>  <nAromAtom>
9

>  <nAromBond>
10

>  <nAtom>
51

>  <nHeavyAtom>
25

>  <nSpiro>
0

>  <nBridgehead>
0

>  <nHetero>
5

>  <nN>
4

>  <nO>
1

>  <nF>
0

>  <BalabanJ>
1.46

>  <BertzCT>
833.33

>  <nBonds>
54

>  <nBondsO>
28

>  <nBondsS>
42

>  <nBondsD>
2

>  <nBondsT>
0

>  <nBondsA>
10

>  <nBondsM>
12

>  <nBondsKS>
48

>  <nBondsKD>
6

>  <RNCG>
0.19

>  <RPCG>
0.16

>  <FCSP3>
0.45

>  <SZ>
30.33

>  <Sm>
28.18

>  <Sv>
30.79

>  <Sse>
50.53

>  <Sp>
33.5

>  <Si>
57.77

>  <MZ>
0.59

>  <Mm>
0.55

>  <Mv>
0.6

>  <Mse>
0.99

>  <Mp>
0.66

>  <Mi>
1.13

>  <NsCH3>
3

>  <NdCH2>
0

>  <NssCH2>
4

>  <NtCH>
0

>  <NdsCH>
1

>  <NaaCH>
4

>  <NsssCH>
2

>  <NddC>
0

>  <NtsC>
0

>  <NdssC>
2

>  <NaasC>
2

>  <NaaaC>
2

>  <NssssC>
0

>  <NsNH3>
0

>  <NsNH2>
0

>  <NssNH2>
0

>  <NdNH>
0

>  <NssNH>
1

>  <NaaNH>
1

>  <NtN>
0

>  <NsssNH>
0

>  <NdsN>
0

>  <NaaN>
0

>  <NsssN>
2

>  <NddsN>
0

>  <NaasN>
0

>  <NssssN>
0

>  <NsOH>
0

>  <NdO>
1

>  <NssO>
0

>  <NaaO>
0

>  <NsF>
0

>  <NsSiH3>
0

>  <NssSiH2>
0

>  <NsssSiH>
0

>  <NssssSi>
0

>  <NsPH2>
0

>  <NssPH>
0

>  <NsssP>
0

>  <NdsssP>
0

>  <NsssssP>
0

>  <NsSH>
0

>  <NdS>
0

>  <NssS>
0

>  <NaaS>
0

>  <NdssS>
0

>  <NddssS>
0

>  <NsCl>
0

>  <NsBr>
0

>  <NsI>
0

>  <fragCpx>
184.05

>  <fMF>
0.31

>  <nHBAcc>
2

>  <nHBDon>
2

>  <Kier1>
18.37

>  <Kier2>
7.55

>  <Lipinski>
1

>  <GhoseFilter>
1

>  <FilterItLogS>
-4.24

>  <VMcGowan>
269.21

>  <LabuteASA>
148.23

>  <PEOE_VSA1>
15.2

>  <PEOE_VSA2>
4.9

>  <PEOE_VSA3>
4.79

>  <PEOE_VSA4>
0

>  <PEOE_VSA5>
0

>  <PEOE_VSA6>
18.21

>  <PEOE_VSA7>
50.08

>  <PEOE_VSA8>
42.78

>  <PEOE_VSA9>
6.04

>  <PEOE_VSA10>
0

>  <PEOE_VSA11>
0

>  <PEOE_VSA12>
0

>  <PEOE_VSA13>
0

>  <SMR_VSA1>
4.79

>  <SMR_VSA2>
0

>  <SMR_VSA3>
20.1

>  <SMR_VSA4>
0

>  <SMR_VSA5>
32.35

>  <SMR_VSA6>
26.68

>  <SMR_VSA7>
41.6

>  <SMR_VSA8>
0

>  <SMR_VSA9>
0

>  <SlogP_VSA1>
5.32

>  <SlogP_VSA2>
59.58

>  <SlogP_VSA3>
6.42

>  <SlogP_VSA4>
0

>  <SlogP_VSA5>
24.97

>  <SlogP_VSA6>
30.47

>  <SlogP_VSA7>
0

>  <SlogP_VSA8>
16.48

>  <SlogP_VSA9>
0

>  <SlogP_VSA10>
4.79

>  <SlogP_VSA11>
0

>  <EState_VSA1>
0

>  <EState_VSA2>
12.07

>  <EState_VSA3>
6.04

>  <EState_VSA4>
26.06

>  <EState_VSA5>
27.6

>  <EState_VSA6>
0

>  <EState_VSA7>
18.75

>  <EState_VSA8>
52.72

>  <EState_VSA9>
0

>  <EState_VSA10>
4.79

>  <VSA_EState1>
0

>  <VSA_EState2>
20.05

>  <VSA_EState3>
4.54

>  <VSA_EState4>
5.24

>  <VSA_EState5>
0

>  <VSA_EState6>
6.9

>  <VSA_EState7>
5.44

>  <VSA_EState8>
6.34

>  <VSA_EState9>
2.16

>  <apol>
55.94

>  <bpol>
31.51

>  <nRing>
4

>  <nHRing>
2

>  <naRing>
2

>  <naHRing>
1

>  <nARing 2>
2

>  <nAHRing 2>
1

>  <nFRing>
1

>  <nFHRing>
1

>  <nFaRing>
0

>  <nFaHRing>
0

>  <nFARing 2>
1

>  <nFAHRing 2>
1

>  <nRot>
3

>  <SLogP>
2.84

>  <SMR>
101.64

>  <TopoPSA(NO)>
51.37

>  <TopoPSA>
51.37

>  <JGI1>
0.18

>  <JGI2>
0.08

>  <JGI3>
0.05

>  <JGI4>
0.04

>  <JGI5>
0.02

>  <Diameter>
11

>  <Radius>
6

>  <TMWC10>
130.29

>  <TSRW10>
74.39

>  <MW>
338.21

>  <AMW>
6.63

>  <WPath>
1442

>  <WPol>
45

>  <Zagreb1>
138

>  <Zagreb2>
169

>  <mZagreb2>
5.53

>  <yes>


>  <nAR-cont>
1

>  <nHA-cont>
0.921834225

>  <MWHBN>
0.21750376

>  <MWHBN-cont>
0.996416265

>  <TPSA-cont>
0.641405501

>  <pka_cont>
0.97

>  <yes.1>


>  <BBB_SCORE>
5.184269625

>  <MMFF94 Energy>
-4.1143

$$$$
Compound 1197
Actelion Java MolfileCreator 2.0

  0  0  0  0  0  0              0 V3000
M  V30 BEGIN CTAB
M  V30 COUNTS 53 56 0 0 0
M  V30 BEGIN ATOM
M  V30 1 O 1.9046 3.017 -0.7932 0
M  V30 2 C 1.7696 2.3419 0.2252 0
M  V30 3 N 2.8162 2.0743 1.0936 0
M  V30 4 N 0.564 1.8024 0.568 0
M  V30 5 C 4.1487 2.5429 0.716 0
M  V30 6 C 2.6971 1.3896 2.3823 0
M  V30 7 C -0.6414 1.9692 -0.2381 0 CFG=2
M  V30 8 C 4.4318 3.9376 1.2532 0
M  V30 9 C 2.8565 -0.1158 2.2386 0
M  V30 10 C -1.887 1.8182 0.651 0
M  V30 11 C -0.681 0.9481 -1.3784 0
M  V30 12 N -1.9821 0.4583 1.2359 0
M  V30 13 C -0.8653 -0.4826 -0.8452 0 CFG=1
M  V30 14 C -2.1165 -0.5532 0.1427 0 CFG=1
M  V30 15 C -3.1128 0.4251 2.1694 0
M  V30 16 C -0.98 -1.5236 -1.9473 0
M  V30 17 C -2.3455 -2.0186 0.6865 0
M  V30 18 C -1.6904 -2.6901 -1.6381 0
M  V30 19 C -0.3849 -1.4805 -3.2152 0
M  V30 20 C -2.356 -3.002 -0.4359 0
M  V30 21 C -1.8385 -3.7372 -2.526 0
M  V30 22 C -0.5378 -2.5422 -4.1214 0
M  V30 23 C -2.9098 -4.2509 -0.5978 0
M  V30 24 N -2.5916 -4.6862 -1.869 0
M  V30 25 C -1.2722 -3.6953 -3.7998 0
M  V30 26 H 0.497 1.1282 1.3137 0
M  V30 27 H 4.2388 2.5551 -0.3761 0
M  V30 28 H 4.8931 1.8311 1.0896 0
M  V30 29 H 1.7284 1.621 2.8371 0
M  V30 30 H 3.4607 1.7825 3.063 0
M  V30 31 H -0.626 2.9793 -0.6649 0
M  V30 32 H 4.3799 3.9592 2.3465 0
M  V30 33 H 3.7052 4.6622 0.871 0
M  V30 34 H 5.4319 4.2646 0.9525 0
M  V30 35 H 3.8382 -0.3687 1.8252 0
M  V30 36 H 2.0979 -0.537 1.5714 0
M  V30 37 H 2.7616 -0.6022 3.2143 0
M  V30 38 H -2.7896 2.0559 0.0722 0
M  V30 39 H -1.8167 2.5558 1.4614 0
M  V30 40 H -1.508 1.1981 -2.0564 0
M  V30 41 H 0.2419 1.0215 -1.9657 0
M  V30 42 H 0.0304 -0.7541 -0.2677 0
M  V30 43 H -3.0107 -0.3004 -0.4504 0
M  V30 44 H -3.0279 1.2305 2.9085 0
M  V30 45 H -4.0757 0.5315 1.6572 0
M  V30 46 H -3.1193 -0.5028 2.7494 0
M  V30 47 H -1.5467 -2.2821 1.3905 0
M  V30 48 H -3.3024 -2.0853 1.2159 0
M  V30 49 H 0.213 -0.6243 -3.5171 0
M  V30 50 H -0.0661 -2.4724 -5.0999 0
M  V30 51 H -3.4986 -4.8711 0.0644 0
M  V30 52 H -2.8655 -5.5747 -2.2641 0
M  V30 53 H -1.379 -4.5104 -4.5061 0
M  V30 END ATOM
M  V30 BEGIN BOND
M  V30 1 2 1 2
M  V30 2 1 2 3
M  V30 3 1 2 4
M  V30 4 1 3 5
M  V30 5 1 3 6
M  V30 6 1 4 7
M  V30 7 1 5 8
M  V30 8 1 6 9
M  V30 9 1 7 10
M  V30 10 1 7 11
M  V30 11 1 10 12
M  V30 12 1 11 13
M  V30 13 1 12 14
M  V30 14 1 12 15
M  V30 15 1 13 16
M  V30 16 1 14 17
M  V30 17 2 16 18
M  V30 18 1 16 19
M  V30 19 1 17 20
M  V30 20 1 18 21
M  V30 21 2 19 22
M  V30 22 2 20 23
M  V30 23 1 21 24
M  V30 24 2 21 25
M  V30 25 1 13 14
M  V30 26 1 18 20
M  V30 27 1 22 25
M  V30 28 1 23 24
M  V30 29 1 4 26
M  V30 30 1 5 27
M  V30 31 1 5 28
M  V30 32 1 6 29
M  V30 33 1 6 30
M  V30 34 1 7 31
M  V30 35 1 8 32
M  V30 36 1 8 33
M  V30 37 1 8 34
M  V30 38 1 9 35
M  V30 39 1 9 36
M  V30 40 1 9 37
M  V30 41 1 10 38
M  V30 42 1 10 39
M  V30 43 1 11 40
M  V30 44 1 11 41
M  V30 45 1 13 42
M  V30 46 1 14 43
M  V30 47 1 15 44
M  V30 48 1 15 45
M  V30 49 1 15 46
M  V30 50 1 17 47
M  V30 51 1 17 48
M  V30 52 1 19 49
M  V30 53 1 22 50
M  V30 54 1 23 51
M  V30 55 1 24 52
M  V30 56 1 25 53
M  V30 END BOND
M  V30 BEGIN COLLECTION
M  V30 MDLV30/STEABS ATOMS=(3 7 13 14)
M  V30 END COLLECTION
M  V30 END CTAB
M  END
>  <Column 1>
1422

>  <level_0>
1572

>  <index>
1572

>  <Unnamed: 0>
1572

>  <NO.>
1584

>  <Name>
terguride

>  <IUPAC_name>
3-[(6ar-9s-10ar)-7-methyl-6-6a-8-9-10-10a-hexahydro-4h-indolo[4-3-fg]quinolin-9-yl]-1-1-diethylurea

>  <SMILES>
CCN(CC)C(=O)N[C@H]1C[C@@H]2c3cccc4[nH]cc(c34)C[C@H]2N(C)C1

>  <CID>
443951

>  <logBB>


>  <BBB+/BBB->
BBB+

>  <Inchi>
InChI=1S/C20H28N4O/c1-4-24(5-2)20(25)22-14-10-16-15-7-6-8-17-19(15)13(11-21-17)9-18(16)23(3)12-14/h6-8-11-14-16-18-21H-4-5-9-10-12H2-1-3H3-(H-22-25)/t14--16+-18+/m0/s1

>  <threshold>
-1

>  <reference>
R1|R6|R27|R30|

>  <group>
B

>  <Class>
1

>  <ABC>
19.73

>  <ABCGG>
15.77

>  <nAcid>
0

>  <nBase>
1

>  <nAromAtom>
9

>  <nAromBond>
10

>  <nAtom>
53

>  <nHeavyAtom>
25

>  <nSpiro>
0

>  <nBridgehead>
0

>  <nHetero>
5

>  <nN>
4

>  <nO>
1

>  <nF>
0

>  <BalabanJ>
1.46

>  <BertzCT>
779.09

>  <nBonds>
56

>  <nBondsO>
28

>  <nBondsS>
45

>  <nBondsD>
1

>  <nBondsT>
0

>  <nBondsA>
10

>  <nBondsM>
11

>  <nBondsKS>
51

>  <nBondsKD>
5

>  <RNCG>
0.19

>  <RPCG>
0.17

>  <FCSP3>
0.55

>  <SZ>
30.67

>  <Sm>
28.35

>  <Sv>
31.33

>  <Sse>
52.41

>  <Sp>
34.29

>  <Si>
60.19

>  <MZ>
0.58

>  <Mm>
0.53

>  <Mv>
0.59

>  <Mse>
0.99

>  <Mp>
0.65

>  <Mi>
1.14

>  <NsCH3>
3

>  <NdCH2>
0

>  <NssCH2>
5

>  <NtCH>
0

>  <NdsCH>
0

>  <NaaCH>
4

>  <NsssCH>
3

>  <NddC>
0

>  <NtsC>
0

>  <NdssC>
1

>  <NaasC>
2

>  <NaaaC>
2

>  <NssssC>
0

>  <NsNH3>
0

>  <NsNH2>
0

>  <NssNH2>
0

>  <NdNH>
0

>  <NssNH>
1

>  <NaaNH>
1

>  <NtN>
0

>  <NsssNH>
0

>  <NdsN>
0

>  <NaaN>
0

>  <NsssN>
2

>  <NddsN>
0

>  <NaasN>
0

>  <NssssN>
0

>  <NsOH>
0

>  <NdO>
1

>  <NssO>
0

>  <NaaO>
0

>  <NsF>
0

>  <NsSiH3>
0

>  <NssSiH2>
0

>  <NsssSiH>
0

>  <NssssSi>
0

>  <NsPH2>
0

>  <NssPH>
0

>  <NsssP>
0

>  <NdsssP>
0

>  <NsssssP>
0

>  <NsSH>
0

>  <NdS>
0

>  <NssS>
0

>  <NaaS>
0

>  <NdssS>
0

>  <NddssS>
0

>  <NsCl>
0

>  <NsBr>
0

>  <NsI>
0

>  <fragCpx>
184.05

>  <fMF>
0.3

>  <nHBAcc>
2

>  <nHBDon>
2

>  <Kier1>
18.37

>  <Kier2>
7.55

>  <Lipinski>
1

>  <GhoseFilter>
1

>  <FilterItLogS>
-4.26

>  <VMcGowan>
273.51

>  <LabuteASA>
148.92

>  <PEOE_VSA1>
20.1

>  <PEOE_VSA2>
0

>  <PEOE_VSA3>
4.79

>  <PEOE_VSA4>
0

>  <PEOE_VSA5>
0

>  <PEOE_VSA6>
12.13

>  <PEOE_VSA7>
50.93

>  <PEOE_VSA8>
54.74

>  <PEOE_VSA9>
0

>  <PEOE_VSA10>
0

>  <PEOE_VSA11>
0

>  <PEOE_VSA12>
0

>  <PEOE_VSA13>
0

>  <SMR_VSA1>
4.79

>  <SMR_VSA2>
0

>  <SMR_VSA3>
20.1

>  <SMR_VSA4>
0

>  <SMR_VSA5>
44.69

>  <SMR_VSA6>
26.68

>  <SMR_VSA7>
35.52

>  <SMR_VSA8>
0

>  <SMR_VSA9>
0

>  <SlogP_VSA1>
5.32

>  <SlogP_VSA2>
59.58

>  <SlogP_VSA3>
6.42

>  <SlogP_VSA4>
0

>  <SlogP_VSA5>
37.31

>  <SlogP_VSA6>
24.4

>  <SlogP_VSA7>
0

>  <SlogP_VSA8>
10.9

>  <SlogP_VSA9>
0

>  <SlogP_VSA10>
4.79

>  <SlogP_VSA11>
0

>  <EState_VSA1>
0

>  <EState_VSA2>
12.07

>  <EState_VSA3>
11.96

>  <EState_VSA4>
32.48

>  <EState_VSA5>
22.03

>  <EState_VSA6>
0

>  <EState_VSA7>
18.75

>  <EState_VSA8>
46.64

>  <EState_VSA9>
0

>  <EState_VSA10>
4.79

>  <VSA_EState1>
0

>  <VSA_EState2>
20.2

>  <VSA_EState3>
4.68

>  <VSA_EState4>
4.12

>  <VSA_EState5>
0.48

>  <VSA_EState6>
7.38

>  <VSA_EState7>
4.28

>  <VSA_EState8>
6.48

>  <VSA_EState9>
2.2

>  <apol>
57.27

>  <bpol>
33.52

>  <nRing>
4

>  <nHRing>
2

>  <naRing>
2

>  <naHRing>
1

>  <nARing 2>
2

>  <nAHRing 2>
1

>  <nFRing>
1

>  <nFHRing>
1

>  <nFaRing>
0

>  <nFaHRing>
0

>  <nFARing 2>
1

>  <nFAHRing 2>
1

>  <nRot>
3

>  <SLogP>
2.93

>  <SMR>
101.02

>  <TopoPSA(NO)>
51.37

>  <TopoPSA>
51.37

>  <JGI1>
0.18

>  <JGI2>
0.08

>  <JGI3>
0.05

>  <JGI4>
0.04

>  <JGI5>
0.02

>  <Diameter>
11

>  <Radius>
6

>  <TMWC10>
130.29

>  <TSRW10>
74.39

>  <MW>
340.23

>  <AMW>
6.42

>  <WPath>
1442

>  <WPol>
45

>  <Zagreb1>
138

>  <Zagreb2>
169

>  <mZagreb2>
5.53

>  <yes>


>  <nAR-cont>
1

>  <nHA-cont>
0.921834225

>  <MWHBN>
0.216857121

>  <MWHBN-cont>
0.99675384

>  <TPSA-cont>
0.641405501

>  <pka_cont>
0.97

>  <yes.1>


>  <BBB_SCORE>
5.184775986

>  <MMFF94 Energy>
-12.498

$$$$
Compound 1198
Actelion Java MolfileCreator 2.0

  0  0  0  0  0  0              0 V3000
M  V30 BEGIN CTAB
M  V30 COUNTS 49 50 0 0 0
M  V30 BEGIN ATOM
M  V30 1 O 0.0787 2.522 2.0487 0
M  V30 2 C -0.3553 2.0367 0.9998 0
M  V30 3 N -0.3729 2.7848 -0.1754 0
M  V30 4 C -0.8508 0.5881 0.9675 0 CFG=1
M  V30 5 C -0.9529 2.3415 -1.4453 0
M  V30 6 C 0.1383 4.1573 -0.1136 0
M  V30 7 C 0.313 -0.404 0.596 0 CFG=2
M  V30 8 C -1.2424 0.1058 2.3952 0 CFG=1
M  V30 9 C -2.4456 2.6107 -1.5468 0
M  V30 10 C -0.8832 5.152 0.4169 0
M  V30 11 C 0.1023 -1.1643 -0.7116 0
M  V30 12 C 0.334 -1.3662 1.8181 0 CFG=1
M  V30 13 C -1.9223 -1.238 2.2449 0
M  V30 14 C 0.0939 -0.3864 2.9656 0
M  V30 15 O -0.9798 -1.1114 -1.3028 0
M  V30 16 N 1.1618 -1.9128 -1.2264 0
M  V30 17 C -0.9748 -2.1224 1.8991 0
M  V30 18 C 2.5124 -1.9946 -0.6578 0
M  V30 19 C 0.921 -2.6423 -2.4756 0
M  V30 20 C 2.8662 -3.3861 -0.1557 0
M  V30 21 C 0.1479 -3.9363 -2.2602 0
M  V30 22 H -1.7221 0.5162 0.3113 0
M  V30 23 H -0.7691 1.2772 -1.5694 0
M  V30 24 H -0.4258 2.8359 -2.2689 0
M  V30 25 H 0.4835 4.4606 -1.108 0
M  V30 26 H 1.0178 4.1741 0.5411 0
M  V30 27 H 1.2462 0.1666 0.5282 0
M  V30 28 H -1.7737 0.8181 3.0288 0
M  V30 29 H -2.6532 3.6834 -1.5835 0
M  V30 30 H -2.9917 2.1942 -0.6952 0
M  V30 31 H -2.8468 2.165 -2.4626 0
M  V30 32 H -1.2515 4.8596 1.4053 0
M  V30 33 H -1.7453 5.2345 -0.2495 0
M  V30 34 H -0.4314 6.1454 0.5025 0
M  V30 35 H 1.2206 -1.9866 1.9428 0
M  V30 36 H -2.9814 -1.4261 2.3364 0
M  V30 37 H 0.8689 0.3823 3.0397 0
M  V30 38 H -0.0046 -0.874 3.9447 0
M  V30 39 H -1.1231 -3.1639 1.6556 0
M  V30 40 H 2.6402 -1.2867 0.1613 0
M  V30 41 H 3.2181 -1.6892 -1.4392 0
M  V30 42 H 1.8801 -2.8521 -2.9621 0
M  V30 43 H 0.3543 -1.9964 -3.1568 0
M  V30 44 H 2.9309 -4.1018 -0.9809 0
M  V30 45 H 2.1191 -3.7555 0.5535 0
M  V30 46 H 3.8395 -3.3706 0.3448 0
M  V30 47 H -0.8345 -3.7467 -1.8163 0
M  V30 48 H 0.6836 -4.6181 -1.5937 0
M  V30 49 H -0.0057 -4.4468 -3.216 0
M  V30 END ATOM
M  V30 BEGIN BOND
M  V30 1 2 1 2
M  V30 2 1 2 3
M  V30 3 1 2 4
M  V30 4 1 3 5
M  V30 5 1 3 6
M  V30 6 1 4 7
M  V30 7 1 4 8
M  V30 8 1 5 9
M  V30 9 1 6 10
M  V30 10 1 7 11
M  V30 11 1 7 12
M  V30 12 1 8 13
M  V30 13 1 8 14
M  V30 14 2 11 15
M  V30 15 1 11 16
M  V30 16 1 12 17
M  V30 17 1 16 18
M  V30 18 1 16 19
M  V30 19 1 18 20
M  V30 20 1 19 21
M  V30 21 1 12 14
M  V30 22 2 13 17
M  V30 23 1 4 22
M  V30 24 1 5 23
M  V30 25 1 5 24
M  V30 26 1 6 25
M  V30 27 1 6 26
M  V30 28 1 7 27
M  V30 29 1 8 28
M  V30 30 1 9 29
M  V30 31 1 9 30
M  V30 32 1 9 31
M  V30 33 1 10 32
M  V30 34 1 10 33
M  V30 35 1 10 34
M  V30 36 1 12 35
M  V30 37 1 13 36
M  V30 38 1 14 37
M  V30 39 1 14 38
M  V30 40 1 17 39
M  V30 41 1 18 40
M  V30 42 1 18 41
M  V30 43 1 19 42
M  V30 44 1 19 43
M  V30 45 1 20 44
M  V30 46 1 20 45
M  V30 47 1 20 46
M  V30 48 1 21 47
M  V30 49 1 21 48
M  V30 50 1 21 49
M  V30 END BOND
M  V30 BEGIN COLLECTION
M  V30 MDLV30/STEABS ATOMS=(4 4 7 8 12)
M  V30 END COLLECTION
M  V30 END CTAB
M  END
>  <Column 1>
1423

>  <level_0>
1573

>  <index>
1573

>  <Unnamed: 0>
1573

>  <NO.>
1585

>  <Name>
endomid

>  <IUPAC_name>
(1r-2r-3r-4s)-2-n-2-n-3-n-3-n-tetraethylbicyclo[2.2.1]hept-5-ene-2-3-dicarboxamide

>  <SMILES>
CCN(CC)C(=O)[C@@H]1[C@@H]2C=C[C@@H](C2)[C@H]1C(=O)N(CC)CC

>  <CID>
71200

>  <logBB>


>  <BBB+/BBB->
BBB+

>  <Inchi>
InChI=1S/C17H28N2O2/c1-5-18(6-2)16(20)14-12-9-10-13(11-12)15(14)17(21)19(7-3)8-4/h9-10-12-15H-5-8-11H2-1-4H3/t12--13+-14--15-/m1/s1

>  <threshold>
-1

>  <reference>
R1|R27|R30|

>  <group>
B

>  <Class>
1

>  <ABC>
15.49

>  <ABCGG>
15.27

>  <nAcid>
0

>  <nBase>
0

>  <nAromAtom>
0

>  <nAromBond>
0

>  <nAtom>
49

>  <nHeavyAtom>
21

>  <nSpiro>
0

>  <nBridgehead>
2

>  <nHetero>
4

>  <nN>
2

>  <nO>
2

>  <nF>
0

>  <BalabanJ>
2.17

>  <BertzCT>
386.51

>  <nBonds>
50

>  <nBondsO>
22

>  <nBondsS>
47

>  <nBondsD>
3

>  <nBondsT>
0

>  <nBondsA>
0

>  <nBondsM>
3

>  <nBondsKS>
47

>  <nBondsKD>
3

>  <RNCG>
0.21

>  <RPCG>
0.14

>  <FCSP3>
0.76

>  <SZ>
26.67

>  <Sm>
24.35

>  <Sv>
27.53

>  <Sse>
48.42

>  <Sp>
30.46

>  <Si>
55.81

>  <MZ>
0.54

>  <Mm>
0.5

>  <Mv>
0.56

>  <Mse>
0.99

>  <Mp>
0.62

>  <Mi>
1.14

>  <NsCH3>
4

>  <NdCH2>
0

>  <NssCH2>
5

>  <NtCH>
0

>  <NdsCH>
2

>  <NaaCH>
0

>  <NsssCH>
4

>  <NddC>
0

>  <NtsC>
0

>  <NdssC>
2

>  <NaasC>
0

>  <NaaaC>
0

>  <NssssC>
0

>  <NsNH3>
0

>  <NsNH2>
0

>  <NssNH2>
0

>  <NdNH>
0

>  <NssNH>
0

>  <NaaNH>
0

>  <NtN>
0

>  <NsssNH>
0

>  <NdsN>
0

>  <NaaN>
0

>  <NsssN>
2

>  <NddsN>
0

>  <NaasN>
0

>  <NssssN>
0

>  <NsOH>
0

>  <NdO>
2

>  <NssO>
0

>  <NaaO>
0

>  <NsF>
0

>  <NsSiH3>
0

>  <NssSiH2>
0

>  <NsssSiH>
0

>  <NssssSi>
0

>  <NsPH2>
0

>  <NssPH>
0

>  <NsssP>
0

>  <NdsssP>
0

>  <NsssssP>
0

>  <NsSH>
0

>  <NdS>
0

>  <NssS>
0

>  <NaaS>
0

>  <NdssS>
0

>  <NddssS>
0

>  <NsCl>
0

>  <NsBr>
0

>  <NsI>
0

>  <fragCpx>
64.04

>  <fMF>
0.14

>  <nHBAcc>
2

>  <nHBDon>
0

>  <Kier1>
17.36

>  <Kier2>
7.51

>  <Lipinski>
1

>  <GhoseFilter>
1

>  <FilterItLogS>
-2.16

>  <VMcGowan>
247.47

>  <LabuteASA>
127.72

>  <PEOE_VSA1>
9.8

>  <PEOE_VSA2>
9.59

>  <PEOE_VSA3>
0

>  <PEOE_VSA4>
0

>  <PEOE_VSA5>
0

>  <PEOE_VSA6>
12.15

>  <PEOE_VSA7>
45.95

>  <PEOE_VSA8>
26.18

>  <PEOE_VSA9>
11.84

>  <PEOE_VSA10>
0

>  <PEOE_VSA11>
0

>  <PEOE_VSA12>
11.81

>  <PEOE_VSA13>
0

>  <SMR_VSA1>
9.59

>  <SMR_VSA2>
0

>  <SMR_VSA3>
9.8

>  <SMR_VSA4>
23.67

>  <SMR_VSA5>
34.12

>  <SMR_VSA6>
26.18

>  <SMR_VSA7>
12.15

>  <SMR_VSA8>
0

>  <SMR_VSA9>
0

>  <SlogP_VSA1>
0

>  <SlogP_VSA2>
47.79

>  <SlogP_VSA3>
9.59

>  <SlogP_VSA4>
23.67

>  <SlogP_VSA5>
34.12

>  <SlogP_VSA6>
12.15

>  <SlogP_VSA7>
0

>  <SlogP_VSA8>
0

>  <SlogP_VSA9>
0

>  <SlogP_VSA10>
0

>  <SlogP_VSA11>
0

>  <EState_VSA1>
0

>  <EState_VSA2>
35.49

>  <EState_VSA3>
0

>  <EState_VSA4>
32.6

>  <EState_VSA5>
0

>  <EState_VSA6>
0

>  <EState_VSA7>
37.49

>  <EState_VSA8>
12.15

>  <EState_VSA9>
0

>  <EState_VSA10>
9.59

>  <VSA_EState1>
0

>  <VSA_EState2>
29.42

>  <VSA_EState3>
0

>  <VSA_EState4>
0

>  <VSA_EState5>
0.56

>  <VSA_EState6>
0

>  <VSA_EState7>
5.28

>  <VSA_EState8>
10.91

>  <VSA_EState9>
0

>  <apol>
50.86

>  <bpol>
33.25

>  <nRing>
2

>  <nHRing>
0

>  <naRing>
0

>  <naHRing>
0

>  <nARing 2>
2

>  <nAHRing 2>
0

>  <nFRing>
1

>  <nFHRing>
0

>  <nFaRing>
0

>  <nFaHRing>
0

>  <nFARing 2>
1

>  <nFAHRing 2>
0

>  <nRot>
6

>  <SLogP>
2.16

>  <SMR>
83.57

>  <TopoPSA(NO)>
40.62

>  <TopoPSA>
40.62

>  <JGI1>
0.18

>  <JGI2>
0.09

>  <JGI3>
0.06

>  <JGI4>
0.04

>  <JGI5>
0.03

>  <Diameter>
9

>  <Radius>
5

>  <TMWC10>
117.79

>  <TSRW10>
70.99

>  <MW>
292.22

>  <AMW>
5.96

>  <WPath>
867

>  <WPol>
33

>  <Zagreb1>
106

>  <Zagreb2>
129

>  <mZagreb2>
5.03

>  <yes>


>  <nAR-cont>
1

>  <nHA-cont>
0.994529749

>  <MWHBN>
0.116997081

>  <MWHBN-cont>
0.816151546

>  <TPSA-cont>
0.716447176

>  <pka_cont>
0.97

>  <yes.1>


>  <BBB_SCORE>
5.136651422

>  <MMFF94 Energy>
-2.8887

$$$$
Compound 1199
Actelion Java MolfileCreator 2.0

  0  0  0  0  0  0              0 V3000
M  V30 BEGIN CTAB
M  V30 COUNTS 40 41 0 0 0
M  V30 BEGIN ATOM
M  V30 1 O -0.3136 -2.1185 0.0784 0
M  V30 2 C 0.1864 -1.0271 -0.1908 0
M  V30 3 N 0.9151 -0.8086 -1.3646 0
M  V30 4 C -0.0532 0.125 0.767 0 CFG=1
M  V30 5 C 1.0754 -1.944 -2.2737 0
M  V30 6 C 1.3853 0.4978 -1.8272 0
M  V30 7 C -1.3846 0.868 0.56 0
M  V30 8 C 0.3126 -0.1008 2.2505 0 CFG=2
M  V30 9 C 1.1335 0.8357 1.4123 0
M  V30 10 C -0.0906 -2.0679 -3.2436 0
M  V30 11 C 2.9025 0.6168 -1.8119 0
M  V30 12 C -2.6105 0.2143 0.7879 0
M  V30 13 C -1.4451 2.2197 0.1759 0
M  V30 14 C 0.8879 -1.3897 2.7395 0
M  V30 15 C -3.8342 0.8687 0.6247 0
M  V30 16 C -2.6663 2.8806 0.0114 0
M  V30 17 N 1.6096 -1.1085 3.9745 0
M  V30 18 C -3.8612 2.2035 0.2347 0
M  V30 19 H 1.1524 -2.8681 -1.6893 0
M  V30 20 H 2.0143 -1.8389 -2.8254 0
M  V30 21 H 0.9643 1.2981 -1.2191 0
M  V30 22 H 1.0101 0.6536 -2.8446 0
M  V30 23 H -0.3484 0.336 2.9943 0
M  V30 24 H 1.0619 1.8915 1.6456 0
M  V30 25 H 2.137 0.5203 1.1544 0
M  V30 26 H -0.1785 -1.1771 -3.8737 0
M  V30 27 H -1.0383 -2.1929 -2.7098 0
M  V30 28 H 0.0503 -2.9342 -3.8971 0
M  V30 29 H 3.3666 -0.0705 -2.5252 0
M  V30 30 H 3.312 0.3925 -0.823 0
M  V30 31 H 3.2034 1.6328 -2.0865 0
M  V30 32 H -2.6083 -0.8311 1.0954 0
M  V30 33 H -0.5275 2.7753 6.0E-4 0
M  V30 34 H 1.5759 -1.8424 2.0184 0
M  V30 35 H 0.0816 -2.102 2.9408 0
M  V30 36 H -4.7622 0.3326 0.8046 0
M  V30 37 H -2.6821 3.9253 -0.2878 0
M  V30 38 H 2.4038 -0.5066 3.7659 0
M  V30 39 H 1.9991 -1.98 4.33 0
M  V30 40 H -4.8114 2.7153 0.1086 0
M  V30 END ATOM
M  V30 BEGIN BOND
M  V30 1 2 1 2
M  V30 2 1 2 3
M  V30 3 1 2 4
M  V30 4 1 3 5
M  V30 5 1 3 6
M  V30 6 1 4 7
M  V30 7 1 4 8
M  V30 8 1 4 9
M  V30 9 1 5 10
M  V30 10 1 6 11
M  V30 11 2 7 12
M  V30 12 1 7 13
M  V30 13 1 8 14
M  V30 14 1 12 15
M  V30 15 2 13 16
M  V30 16 1 14 17
M  V30 17 2 15 18
M  V30 18 1 8 9
M  V30 19 1 16 18
M  V30 20 1 5 19
M  V30 21 1 5 20
M  V30 22 1 6 21
M  V30 23 1 6 22
M  V30 24 1 8 23
M  V30 25 1 9 24
M  V30 26 1 9 25
M  V30 27 1 10 26
M  V30 28 1 10 27
M  V30 29 1 10 28
M  V30 30 1 11 29
M  V30 31 1 11 30
M  V30 32 1 11 31
M  V30 33 1 12 32
M  V30 34 1 13 33
M  V30 35 1 14 34
M  V30 36 1 14 35
M  V30 37 1 15 36
M  V30 38 1 16 37
M  V30 39 1 17 38
M  V30 40 1 17 39
M  V30 41 1 18 40
M  V30 END BOND
M  V30 BEGIN COLLECTION
M  V30 MDLV30/STEABS ATOMS=(2 4 8)
M  V30 END COLLECTION
M  V30 END CTAB
M  END
>  <Column 1>
1424

>  <level_0>
1574

>  <index>
1574

>  <Unnamed: 0>
1574

>  <NO.>
1586

>  <Name>
milnacipran

>  <IUPAC_name>
(1r-2s)-2-(aminomethyl)-n-n-diethyl-1-phenylcyclopropane-1-carboxamide;hydron;chloride

>  <SMILES>
CCN(CC)C(=O)[C@]1(c2ccccc2)C[C@@H]1CN

>  <CID>
65833

>  <logBB>


>  <BBB+/BBB->
BBB+

>  <Inchi>
InChI=1S/C15H22N2O/c1-3-17(4-2)14(18)15(10-13(15)11-16)12-8-6-5-7-9-12/h5-9-13H-3-4-10-11-16H2-1-2H3/t13--15+/m1/s1

>  <threshold>
-1

>  <reference>
R1|R6|R24|R27|R30|

>  <group>
B

>  <Class>
1

>  <ABC>
13.32

>  <ABCGG>
13.38

>  <nAcid>
0

>  <nBase>
1

>  <nAromAtom>
6

>  <nAromBond>
6

>  <nAtom>
40

>  <nHeavyAtom>
18

>  <nSpiro>
0

>  <nBridgehead>
0

>  <nHetero>
3

>  <nN>
2

>  <nO>
1

>  <nF>
0

>  <BalabanJ>
2.11

>  <BertzCT>
413.76

>  <nBonds>
41

>  <nBondsO>
19

>  <nBondsS>
34

>  <nBondsD>
1

>  <nBondsT>
0

>  <nBondsA>
6

>  <nBondsM>
7

>  <nBondsKS>
37

>  <nBondsKD>
4

>  <RNCG>
0.24

>  <RPCG>
0.16

>  <FCSP3>
0.53

>  <SZ>
22.33

>  <Sm>
20.51

>  <Sv>
23.19

>  <Sse>
39.42

>  <Sp>
25.58

>  <Si>
45.36

>  <MZ>
0.56

>  <Mm>
0.51

>  <Mv>
0.58

>  <Mse>
0.99

>  <Mp>
0.64

>  <Mi>
1.13

>  <NsCH3>
2

>  <NdCH2>
0

>  <NssCH2>
4

>  <NtCH>
0

>  <NdsCH>
0

>  <NaaCH>
5

>  <NsssCH>
1

>  <NddC>
0

>  <NtsC>
0

>  <NdssC>
1

>  <NaasC>
1

>  <NaaaC>
0

>  <NssssC>
1

>  <NsNH3>
0

>  <NsNH2>
1

>  <NssNH2>
0

>  <NdNH>
0

>  <NssNH>
0

>  <NaaNH>
0

>  <NtN>
0

>  <NsssNH>
0

>  <NdsN>
0

>  <NaaN>
0

>  <NsssN>
1

>  <NddsN>
0

>  <NaasN>
0

>  <NssssN>
0

>  <NsOH>
0

>  <NdO>
1

>  <NssO>
0

>  <NaaO>
0

>  <NsF>
0

>  <NsSiH3>
0

>  <NssSiH2>
0

>  <NsssSiH>
0

>  <NssssSi>
0

>  <NsPH2>
0

>  <NssPH>
0

>  <NsssP>
0

>  <NdsssP>
0

>  <NsssssP>
0

>  <NsSH>
0

>  <NdS>
0

>  <NssS>
0

>  <NaaS>
0

>  <NdssS>
0

>  <NddssS>
0

>  <NsCl>
0

>  <NsBr>
0

>  <NsI>
0

>  <fragCpx>
55.03

>  <fMF>
0.23

>  <nHBAcc>
2

>  <nHBDon>
1

>  <Kier1>
14.41

>  <Kier2>
5.97

>  <Lipinski>
1

>  <GhoseFilter>
1

>  <FilterItLogS>
-3.15

>  <VMcGowan>
209.12

>  <LabuteASA>
108.97

>  <PEOE_VSA1>
10.63

>  <PEOE_VSA2>
4.79

>  <PEOE_VSA3>
0

>  <PEOE_VSA4>
0

>  <PEOE_VSA5>
0

>  <PEOE_VSA6>
30.33

>  <PEOE_VSA7>
38.29

>  <PEOE_VSA8>
13.09

>  <PEOE_VSA9>
5.41

>  <PEOE_VSA10>
0

>  <PEOE_VSA11>
0

>  <PEOE_VSA12>
5.91

>  <PEOE_VSA13>
0

>  <SMR_VSA1>
4.79

>  <SMR_VSA2>
0

>  <SMR_VSA3>
4.9

>  <SMR_VSA4>
11.65

>  <SMR_VSA5>
25.68

>  <SMR_VSA6>
19.63

>  <SMR_VSA7>
35.9

>  <SMR_VSA8>
0

>  <SMR_VSA9>
0

>  <SlogP_VSA1>
5.73

>  <SlogP_VSA2>
30.44

>  <SlogP_VSA3>
10.21

>  <SlogP_VSA4>
5.92

>  <SlogP_VSA5>
25.83

>  <SlogP_VSA6>
30.33

>  <SlogP_VSA7>
0

>  <SlogP_VSA8>
0

>  <SlogP_VSA9>
0

>  <SlogP_VSA10>
0

>  <SlogP_VSA11>
0

>  <EState_VSA1>
0

>  <EState_VSA2>
11.32

>  <EState_VSA3>
12.46

>  <EState_VSA4>
25.07

>  <EState_VSA5>
0

>  <EState_VSA6>
0

>  <EState_VSA7>
36.95

>  <EState_VSA8>
12.13

>  <EState_VSA9>
5.73

>  <EState_VSA10>
4.79

>  <VSA_EState1>
0

>  <VSA_EState2>
14.65

>  <VSA_EState3>
0

>  <VSA_EState4>
6.57

>  <VSA_EState5>
0.54

>  <VSA_EState6>
10.09

>  <VSA_EState7>
0.89

>  <VSA_EState8>
6.17

>  <VSA_EState9>
0

>  <apol>
42.72

>  <bpol>
24.08

>  <nRing>
2

>  <nHRing>
0

>  <naRing>
1

>  <naHRing>
0

>  <nARing 2>
1

>  <nAHRing 2>
0

>  <nFRing>
0

>  <nFHRing>
0

>  <nFaRing>
0

>  <nFaHRing>
0

>  <nFARing 2>
0

>  <nFAHRing 2>
0

>  <nRot>
5

>  <SLogP>
1.77

>  <SMR>
73.21

>  <TopoPSA(NO)>
46.33

>  <TopoPSA>
46.33

>  <JGI1>
0.21

>  <JGI2>
0.13

>  <JGI3>
0.08

>  <JGI4>
0.04

>  <JGI5>
0.02

>  <Diameter>
8

>  <Radius>
4

>  <TMWC10>
111.47

>  <TSRW10>
72.19

>  <MW>
246.17

>  <AMW>
6.15

>  <WPath>
572

>  <WPol>
29

>  <Zagreb1>
92

>  <Zagreb2>
114

>  <mZagreb2>
4.32

>  <yes>


>  <nAR-cont>
0.816016

>  <nHA-cont>
0.991161285

>  <MWHBN>
0.191206958

>  <MWHBN-cont>
0.996355233

>  <TPSA-cont>
0.676587831

>  <pka_cont>
0.97

>  <yes.1>


>  <BBB_SCORE>
5.139885796

>  <MMFF94 Energy>
14.515

$$$$
Compound 1200
Actelion Java MolfileCreator 2.0

  0  0  0  0  0  0              0 V3000
M  V30 BEGIN CTAB
M  V30 COUNTS 27 27 0 0 0
M  V30 BEGIN ATOM
M  V30 1 O 2.1813 -0.8564 0.0778 0
M  V30 2 C 1.0201 -0.5348 -0.1644 0
M  V30 3 N -0.0862 -1.0675 0.5036 0
M  V30 4 C 0.8166 0.4728 -1.2146 0
M  V30 5 C 0.1659 -2.1387 1.4695 0
M  V30 6 C -1.4539 -0.5428 0.4072 0
M  V30 7 C 1.3565 1.739 -1.0507 0
M  V30 8 C 0.1686 0.1704 -2.4114 0
M  V30 9 C 0.4522 -1.6232 2.8702 0
M  V30 10 C -1.6651 0.7254 1.2206 0
M  V30 11 N 1.2358 2.7272 -1.9711 0
M  V30 12 C 0.0425 1.1642 -3.3786 0
M  V30 13 C 0.5825 2.4149 -3.1132 0
M  V30 14 H 1.0273 -2.7258 1.1302 0
M  V30 15 H -0.6923 -2.8195 1.4781 0
M  V30 16 H -2.1551 -1.3177 0.7364 0
M  V30 17 H -1.6927 -0.3359 -0.638 0
M  V30 18 H 1.9099 2.0037 -0.1538 0
M  V30 19 H -0.2207 -0.8269 -2.5927 0
M  V30 20 H -0.4278 -1.1406 3.3033 0
M  V30 21 H 1.2706 -0.8963 2.8681 0
M  V30 22 H 0.732 -2.4526 3.5273 0
M  V30 23 H -0.9836 1.5225 0.9106 0
M  V30 24 H -1.5053 0.5498 2.2873 0
M  V30 25 H -2.6898 1.0879 1.0912 0
M  V30 26 H -0.4561 0.9678 -4.3214 0
M  V30 27 H 0.509 3.2212 -3.8381 0
M  V30 END ATOM
M  V30 BEGIN BOND
M  V30 1 2 1 2
M  V30 2 1 2 3
M  V30 3 1 2 4
M  V30 4 1 3 5
M  V30 5 1 3 6
M  V30 6 2 4 7
M  V30 7 1 4 8
M  V30 8 1 5 9
M  V30 9 1 6 10
M  V30 10 1 7 11
M  V30 11 2 8 12
M  V30 12 2 11 13
M  V30 13 1 12 13
M  V30 14 1 5 14
M  V30 15 1 5 15
M  V30 16 1 6 16
M  V30 17 1 6 17
M  V30 18 1 7 18
M  V30 19 1 8 19
M  V30 20 1 9 20
M  V30 21 1 9 21
M  V30 22 1 9 22
M  V30 23 1 10 23
M  V30 24 1 10 24
M  V30 25 1 10 25
M  V30 26 1 12 26
M  V30 27 1 13 27
M  V30 END BOND
M  V30 END CTAB
M  END
>  <Column 1>
1425

>  <level_0>
1575

>  <index>
1575

>  <Unnamed: 0>
1575

>  <NO.>
1587

>  <Name>
nikethamide

>  <IUPAC_name>
n-n-diethylpyridine-3-carboxamide

>  <SMILES>
CCN(CC)C(=O)c1cccnc1

>  <CID>
5497

>  <logBB>


>  <BBB+/BBB->
BBB+

>  <Inchi>
InChI=1S/C10H14N2O/c1-3-12(4-2)10(13)9-6-5-7-11-8-9/h5-8H-3-4H2-1-2H3

>  <threshold>
-1

>  <reference>
R1|R13|R19|R6|R24|R27|R27|R27|R30|R30|

>  <group>
B

>  <Class>
-1

>  <ABC>
9.22

>  <ABCGG>
8.96

>  <nAcid>
0

>  <nBase>
0

>  <nAromAtom>
6

>  <nAromBond>
6

>  <nAtom>
27

>  <nHeavyAtom>
13

>  <nSpiro>
0

>  <nBridgehead>
0

>  <nHetero>
3

>  <nN>
2

>  <nO>
1

>  <nF>
0

>  <BalabanJ>
2.38

>  <BertzCT>
267.51

>  <nBonds>
27

>  <nBondsO>
13

>  <nBondsS>
20

>  <nBondsD>
1

>  <nBondsT>
0

>  <nBondsA>
6

>  <nBondsM>
7

>  <nBondsKS>
23

>  <nBondsKD>
4

>  <RNCG>
0.32

>  <RPCG>
0.24

>  <FCSP3>
0.4

>  <SZ>
16

>  <Sm>
14.84

>  <Sv>
16.02

>  <Sse>
26.87

>  <Sp>
17.39

>  <Si>
30.7

>  <MZ>
0.59

>  <Mm>
0.55

>  <Mv>
0.59

>  <Mse>
1

>  <Mp>
0.64

>  <Mi>
1.14

>  <NsCH3>
2

>  <NdCH2>
0

>  <NssCH2>
2

>  <NtCH>
0

>  <NdsCH>
0

>  <NaaCH>
4

>  <NsssCH>
0

>  <NddC>
0

>  <NtsC>
0

>  <NdssC>
1

>  <NaasC>
1

>  <NaaaC>
0

>  <NssssC>
0

>  <NsNH3>
0

>  <NsNH2>
0

>  <NssNH2>
0

>  <NdNH>
0

>  <NssNH>
0

>  <NaaNH>
0

>  <NtN>
0

>  <NsssNH>
0

>  <NdsN>
0

>  <NaaN>
1

>  <NsssN>
1

>  <NddsN>
0

>  <NaasN>
0

>  <NssssN>
0

>  <NsOH>
0

>  <NdO>
1

>  <NssO>
0

>  <NaaO>
0

>  <NsF>
0

>  <NsSiH3>
0

>  <NssSiH2>
0

>  <NsssSiH>
0

>  <NssssSi>
0

>  <NsPH2>
0

>  <NssPH>
0

>  <NsssP>
0

>  <NdsssP>
0

>  <NsssssP>
0

>  <NsSH>
0

>  <NdS>
0

>  <NssS>
0

>  <NaaS>
0

>  <NdssS>
0

>  <NddssS>
0

>  <NsCl>
0

>  <NsBr>
0

>  <NsI>
0

>  <fragCpx>
13.03

>  <fMF>
0.22

>  <nHBAcc>
2

>  <nHBDon>
0

>  <Kier1>
11.08

>  <Kier2>
5.67

>  <Lipinski>
1

>  <GhoseFilter>
1

>  <FilterItLogS>
-2.29

>  <VMcGowan>
149.53

>  <LabuteASA>
78.4

>  <PEOE_VSA1>
4.9

>  <PEOE_VSA2>
9.78

>  <PEOE_VSA3>
0

>  <PEOE_VSA4>
0

>  <PEOE_VSA5>
0

>  <PEOE_VSA6>
0

>  <PEOE_VSA7>
25.98

>  <PEOE_VSA8>
25.48

>  <PEOE_VSA9>
5.56

>  <PEOE_VSA10>
0

>  <PEOE_VSA11>
0

>  <PEOE_VSA12>
0

>  <PEOE_VSA13>
5.91

>  <SMR_VSA1>
4.79

>  <SMR_VSA2>
0

>  <SMR_VSA3>
9.88

>  <SMR_VSA4>
0

>  <SMR_VSA5>
13.85

>  <SMR_VSA6>
13.09

>  <SMR_VSA7>
30.09

>  <SMR_VSA8>
0

>  <SMR_VSA9>
0

>  <SlogP_VSA1>
0

>  <SlogP_VSA2>
28.88

>  <SlogP_VSA3>
0

>  <SlogP_VSA4>
0

>  <SlogP_VSA5>
24.21

>  <SlogP_VSA6>
24.53

>  <SlogP_VSA7>
0

>  <SlogP_VSA8>
0

>  <SlogP_VSA9>
0

>  <SlogP_VSA10>
0

>  <SlogP_VSA11>
0

>  <EState_VSA1>
0

>  <EState_VSA2>
5.91

>  <EState_VSA3>
5.56

>  <EState_VSA4>
13.09

>  <EState_VSA5>
0

>  <EState_VSA6>
29.43

>  <EState_VSA7>
13.85

>  <EState_VSA8>
4.98

>  <EState_VSA9>
0

>  <EState_VSA10>
4.79

>  <VSA_EState1>
0

>  <VSA_EState2>
17.38

>  <VSA_EState3>
0

>  <VSA_EState4>
0.66

>  <VSA_EState5>
0.05

>  <VSA_EState6>
3.56

>  <VSA_EState7>
3.26

>  <VSA_EState8>
5.42

>  <VSA_EState9>
0

>  <apol>
29.04

>  <bpol>
17.76

>  <nRing>
1

>  <nHRing>
1

>  <naRing>
1

>  <naHRing>
1

>  <nARing 2>
0

>  <nAHRing 2>
0

>  <nFRing>
0

>  <nFHRing>
0

>  <nFaRing>
0

>  <nFaHRing>
0

>  <nFARing 2>
0

>  <nFAHRing 2>
0

>  <nRot>
3

>  <SLogP>
1.56

>  <SMR>
51.49

>  <TopoPSA(NO)>
33.2

>  <TopoPSA>
33.2

>  <JGI1>
0.15

>  <JGI2>
0.1

>  <JGI3>
0.06

>  <JGI4>
0.03

>  <JGI5>
0.02

>  <Diameter>
7

>  <Radius>
4

>  <TMWC10>
91.98

>  <TSRW10>
43.34

>  <MW>
178.11

>  <AMW>
6.6

>  <WPath>
252

>  <WPol>
17

>  <Zagreb1>
58

>  <Zagreb2>
65

>  <mZagreb2>
3.22

>  <yes>


>  <nAR-cont>
0.336376

>  <nHA-cont>
0.841215992

>  <MWHBN>
0.14986004

>  <MWHBN-cont>
0.932150632

>  <TPSA-cont>
0.768243384

>  <pka_cont>
0.97

>  <yes.1>


>  <BBB_SCORE>
4.597304708

>  <MMFF94 Energy>
21.655

$$$$
Compound 1201
Actelion Java MolfileCreator 2.0

  0  0  0  0  0  0              0 V3000
M  V30 BEGIN CTAB
M  V30 COUNTS 73 76 0 0 0
M  V30 BEGIN ATOM
M  V30 1 O 6.2568 -4.5693 -0.8805 0
M  V30 2 C 5.5992 -3.6398 -1.3311 0
M  V30 3 C 4.593 -3.8521 -2.3905 0
M  V30 4 C 5.7734 -2.2636 -0.8313 0
M  V30 5 C 3.8689 -2.8372 -2.8946 0
M  V30 6 C 5.0546 -1.2513 -1.3343 0
M  V30 7 C 4.0115 -1.3765 -2.442 0
M  V30 8 C 2.8062 -3.0973 -3.9297 0
M  V30 9 C 2.6008 -0.9033 -1.9089 0
M  V30 10 C 4.5527 -0.5568 -3.6346 0
M  V30 11 C 1.4513 -2.658 -3.392 0
M  V30 12 C 2.5319 0.5681 -1.4384 0
M  V30 13 C 1.4512 -1.1904 -2.9194 0
M  V30 14 O 2.8735 1.4614 -2.4889 0
M  V30 15 C 1.15 0.9372 -0.8787 0
M  V30 16 C 0.0566 -0.8048 -2.3708 0
M  V30 17 C -0.0595 0.638 -1.8119 0
M  V30 18 C -0.4713 -1.6987 -1.2273 0
M  V30 19 C -1.4334 0.5407 -1.0556 0
M  V30 20 C -0.1326 1.6727 -2.9522 0
M  V30 21 C -1.3454 -0.8118 -0.3344 0
M  V30 22 O -2.4897 0.4738 -2.0299 0
M  V30 23 C -1.7575 1.6707 -0.0517 0
M  V30 24 O -0.8916 2.3498 0.5052 0
M  V30 25 C -3.2386 1.896 0.26 0
M  V30 26 O -3.4411 2.5105 1.5326 0
M  V30 27 C -3.1911 1.6698 2.5843 0
M  V30 28 O -2.8965 0.4876 2.4546 0
M  V30 29 C -3.2957 2.4488 3.8951 0
M  V30 30 N -3.6707 1.5711 5.0325 0
M  V30 31 C -5.1337 1.4708 5.1982 0
M  V30 32 C -3.0607 2.0399 6.2892 0
M  V30 33 C -5.8639 0.8328 4.0217 0
M  V30 34 C -1.5738 1.7057 6.3676 0
M  V30 35 H 4.4713 -4.8793 -2.7142 0
M  V30 36 H 6.5162 -2.1225 -0.0558 0
M  V30 37 H 5.2526 -0.2537 -0.9485 0
M  V30 38 H 2.7571 -4.1607 -4.1937 0
M  V30 39 H 3.0414 -2.5629 -4.8566 0
M  V30 40 H 2.399 -1.5126 -1.0146 0
M  V30 41 H 3.7992 -0.4003 -4.4126 0
M  V30 42 H 5.4038 -1.0631 -4.1088 0
M  V30 43 H 4.9188 0.4294 -3.3285 0
M  V30 44 H 1.1721 -3.3246 -2.5666 0
M  V30 45 H 0.6941 -2.7936 -4.1739 0
M  V30 46 H 3.2614 0.7322 -0.6383 0
M  V30 47 H 1.6226 -0.57 -3.8091 0
M  V30 48 H 2.8007 2.3686 -2.1427 0
M  V30 49 H 1.1632 2.008 -0.6428 0
M  V30 50 H 1.0335 0.4079 0.074 0
M  V30 51 H -0.6507 -0.9125 -3.2072 0
M  V30 52 H 0.3291 -2.1395 -0.6256 0
M  V30 53 H -1.0576 -2.5291 -1.6369 0
M  V30 54 H -0.246 2.6855 -2.5506 0
M  V30 55 H 0.7564 1.6597 -3.5862 0
M  V30 56 H -0.9784 1.4881 -3.623 0
M  V30 57 H -2.3251 -1.276 -0.1762 0
M  V30 58 H -0.8786 -0.7108 0.6525 0
M  V30 59 H -3.1309 -0.2102 -1.7701 0
M  V30 60 H -3.6405 2.5703 -0.5027 0
M  V30 61 H -3.7992 0.9564 0.2075 0
M  V30 62 H -4.013 3.2717 3.7886 0
M  V30 63 H -2.3074 2.9 4.0337 0
M  V30 64 H -5.3468 0.8411 6.0716 0
M  V30 65 H -5.5699 2.4564 5.4053 0
M  V30 66 H -3.2194 3.1163 6.4306 0
M  V30 67 H -3.5328 1.5363 7.1426 0
M  V30 68 H -6.9136 0.6637 4.285 0
M  V30 69 H -5.4269 -0.1367 3.7621 0
M  V30 70 H -5.8522 1.4754 3.1368 0
M  V30 71 H -1.1841 1.9764 7.3546 0
M  V30 72 H -0.9838 2.2472 5.6231 0
M  V30 73 H -1.4053 0.633 6.2253 0
M  V30 END ATOM
M  V30 BEGIN BOND
M  V30 1 2 1 2
M  V30 2 1 2 3
M  V30 3 1 2 4
M  V30 4 2 3 5
M  V30 5 2 4 6
M  V30 6 1 5 7
M  V30 7 1 5 8
M  V30 8 1 7 9
M  V30 9 1 7 10
M  V30 10 1 8 11
M  V30 11 1 9 12
M  V30 12 1 9 13
M  V30 13 1 12 14
M  V30 14 1 12 15
M  V30 15 1 13 16
M  V30 16 1 15 17
M  V30 17 1 16 18
M  V30 18 1 17 19
M  V30 19 1 17 20
M  V30 20 1 18 21
M  V30 21 1 19 22
M  V30 22 1 19 23
M  V30 23 2 23 24
M  V30 24 1 23 25
M  V30 25 1 25 26
M  V30 26 1 26 27
M  V30 27 2 27 28
M  V30 28 1 27 29
M  V30 29 1 29 30
M  V30 30 1 30 31
M  V30 31 1 30 32
M  V30 32 1 31 33
M  V30 33 1 32 34
M  V30 34 1 6 7
M  V30 35 1 11 13
M  V30 36 1 16 17
M  V30 37 1 19 21
M  V30 38 1 3 35
M  V30 39 1 4 36
M  V30 40 1 6 37
M  V30 41 1 8 38
M  V30 42 1 8 39
M  V30 43 1 9 40
M  V30 44 1 10 41
M  V30 45 1 10 42
M  V30 46 1 10 43
M  V30 47 1 11 44
M  V30 48 1 11 45
M  V30 49 1 12 46
M  V30 50 1 13 47
M  V30 51 1 14 48
M  V30 52 1 15 49
M  V30 53 1 15 50
M  V30 54 1 16 51
M  V30 55 1 18 52
M  V30 56 1 18 53
M  V30 57 1 20 54
M  V30 58 1 20 55
M  V30 59 1 20 56
M  V30 60 1 21 57
M  V30 61 1 21 58
M  V30 62 1 22 59
M  V30 63 1 25 60
M  V30 64 1 25 61
M  V30 65 1 29 62
M  V30 66 1 29 63
M  V30 67 1 31 64
M  V30 68 1 31 65
M  V30 69 1 32 66
M  V30 70 1 32 67
M  V30 71 1 33 68
M  V30 72 1 33 69
M  V30 73 1 33 70
M  V30 74 1 34 71
M  V30 75 1 34 72
M  V30 76 1 34 73
M  V30 END BOND
M  V30 END CTAB
M  END
>  <Column 1>
1429

>  <level_0>
1579

>  <index>
1579

>  <Unnamed: 0>
1579

>  <NO.>
1591

>  <Name>
prednisolamate

>  <IUPAC_name>
[2-(11-17-dihydroxy-10-13-dimethyl-3-oxo-7-8-9-11-12-14-15-16-octahydro-6h-cyclopenta[a]phenanthren-17-yl)-2-oxoethyl] 2-(diethylamino)acetate

>  <SMILES>
CCN(CC)CC(=O)OCC(=O)C1(O)CCC2C3CCC4=CC(=O)C=CC4(C)C3C(O)CC21C

>  <CID>
21841

>  <logBB>


>  <BBB+/BBB->
BBB+

>  <Inchi>
InChI=1S/C27H39NO6/c1-5-28(6-2)15-23(32)34-16-22(31)27(33)12-10-20-19-8-7-17-13-18(29)9-11-25(17-3)24(19)21(30)14-26(20-27)4/h9-11-13-19-21-24-30-33H-5-8-10-12-14-16H2-1-4H3

>  <threshold>
-1

>  <reference>
R1|R19|R27|R27|R30|

>  <group>
B

>  <Class>
1

>  <ABC>
26.61

>  <ABCGG>
21.31

>  <nAcid>
0

>  <nBase>
1

>  <nAromAtom>
0

>  <nAromBond>
0

>  <nAtom>
73

>  <nHeavyAtom>
34

>  <nSpiro>
0

>  <nBridgehead>
0

>  <nHetero>
7

>  <nN>
1

>  <nO>
6

>  <nF>
0

>  <BalabanJ>
1.48

>  <BertzCT>
922.08

>  <nBonds>
76

>  <nBondsO>
37

>  <nBondsS>
71

>  <nBondsD>
5

>  <nBondsT>
0

>  <nBondsA>
0

>  <nBondsM>
5

>  <nBondsKS>
71

>  <nBondsKD>
5

>  <RNCG>
0.15

>  <RPCG>
0.11

>  <FCSP3>
0.74

>  <SZ>
42.67

>  <Sm>
39.43

>  <Sv>
42.61

>  <Sse>
72.96

>  <Sp>
46.11

>  <Si>
82.65

>  <MZ>
0.58

>  <Mm>
0.54

>  <Mv>
0.58

>  <Mse>
1

>  <Mp>
0.63

>  <Mi>
1.13

>  <NsCH3>
4

>  <NdCH2>
0

>  <NssCH2>
9

>  <NtCH>
0

>  <NdsCH>
3

>  <NaaCH>
0

>  <NsssCH>
4

>  <NddC>
0

>  <NtsC>
0

>  <NdssC>
4

>  <NaasC>
0

>  <NaaaC>
0

>  <NssssC>
3

>  <NsNH3>
0

>  <NsNH2>
0

>  <NssNH2>
0

>  <NdNH>
0

>  <NssNH>
0

>  <NaaNH>
0

>  <NtN>
0

>  <NsssNH>
0

>  <NdsN>
0

>  <NaaN>
0

>  <NsssN>
1

>  <NddsN>
0

>  <NaasN>
0

>  <NssssN>
0

>  <NsOH>
2

>  <NdO>
3

>  <NssO>
1

>  <NaaO>
0

>  <NsF>
0

>  <NsSiH3>
0

>  <NssSiH2>
0

>  <NsssSiH>
0

>  <NssssSi>
0

>  <NsPH2>
0

>  <NssPH>
0

>  <NsssP>
0

>  <NdsssP>
0

>  <NsssssP>
0

>  <NsSH>
0

>  <NdS>
0

>  <NssS>
0

>  <NaaS>
0

>  <NdssS>
0

>  <NddssS>
0

>  <NsCl>
0

>  <NsBr>
0

>  <NsI>
0

>  <fragCpx>
247.07

>  <fMF>
0.23

>  <nHBAcc>
7

>  <nHBDon>
2

>  <Kier1>
27.05

>  <Kier2>
10.05

>  <Lipinski>
1

>  <GhoseFilter>
0

>  <FilterItLogS>
-3.65

>  <VMcGowan>
371.55

>  <LabuteASA>
201.77

>  <PEOE_VSA1>
14.95

>  <PEOE_VSA2>
19.28

>  <PEOE_VSA3>
0

>  <PEOE_VSA4>
0

>  <PEOE_VSA5>
0

>  <PEOE_VSA6>
39.34

>  <PEOE_VSA7>
69.18

>  <PEOE_VSA8>
16.75

>  <PEOE_VSA9>
12.65

>  <PEOE_VSA10>
5.6

>  <PEOE_VSA11>
12.39

>  <PEOE_VSA12>
5.78

>  <PEOE_VSA13>
0

>  <SMR_VSA1>
29.33

>  <SMR_VSA2>
0

>  <SMR_VSA3>
4.9

>  <SMR_VSA4>
28.58

>  <SMR_VSA5>
71.5

>  <SMR_VSA6>
26.24

>  <SMR_VSA7>
23.8

>  <SMR_VSA8>
0

>  <SMR_VSA9>
0

>  <SlogP_VSA1>
0

>  <SlogP_VSA2>
70.59

>  <SlogP_VSA3>
19.12

>  <SlogP_VSA4>
28.58

>  <SlogP_VSA5>
59.8

>  <SlogP_VSA6>
23.8

>  <SlogP_VSA7>
0

>  <SlogP_VSA8>
0

>  <SlogP_VSA9>
0

>  <SlogP_VSA10>
0

>  <SlogP_VSA11>
0

>  <EState_VSA1>
35.48

>  <EState_VSA2>
35.5

>  <EState_VSA3>
32.35

>  <EState_VSA4>
18.41

>  <EState_VSA5>
0

>  <EState_VSA6>
12.15

>  <EState_VSA7>
31.75

>  <EState_VSA8>
6.92

>  <EState_VSA9>
4.74

>  <EState_VSA10>
24.6

>  <VSA_EState1>
5.27

>  <VSA_EState2>
39.36

>  <VSA_EState3>
23.12

>  <VSA_EState4>
-1.73

>  <VSA_EState5>
-0.79

>  <VSA_EState6>
0

>  <VSA_EState7>
7.48

>  <VSA_EState8>
9.03

>  <VSA_EState9>
0

>  <apol>
77.01

>  <bpol>
45.18

>  <nRing>
4

>  <nHRing>
0

>  <naRing>
0

>  <naHRing>
0

>  <nARing 2>
4

>  <nAHRing 2>
0

>  <nFRing>
1

>  <nFHRing>
0

>  <nFaRing>
0

>  <nFaHRing>
0

>  <nFARing 2>
1

>  <nFAHRing 2>
0

>  <nRot>
7

>  <SLogP>
2.45

>  <SMR>
126.71

>  <TopoPSA(NO)>
104.14

>  <TopoPSA>
104.14

>  <JGI1>
0.28

>  <JGI2>
0.13

>  <JGI3>
0.07

>  <JGI4>
0.06

>  <JGI5>
0.03

>  <Diameter>
17

>  <Radius>
9

>  <TMWC10>
152.29

>  <TSRW10>
85.98

>  <MW>
473.28

>  <AMW>
6.48

>  <WPath>
3453

>  <WPol>
70

>  <Zagreb1>
190

>  <Zagreb2>
237

>  <mZagreb2>
7.35

>  <yes>


>  <nAR-cont>
0.199399

>  <nHA-cont>
0.568589513

>  <MWHBN>
0.413698011

>  <MWHBN-cont>
0.422394483

>  <TPSA-cont>
0.273038133

>  <pka_cont>
0.97

>  <yes.1>


>  <BBB_SCORE>
2.432656502

>  <MMFF94 Energy>
157.79

$$$$
Compound 1202
Actelion Java MolfileCreator 2.0

  0  0  0  0  0  0              0 V3000
M  V30 BEGIN CTAB
M  V30 COUNTS 75 78 0 0 0
M  V30 BEGIN ATOM
M  V30 1 O -4.2457 0.3199 7.5396 0
M  V30 2 C -3.3812 0.6268 6.7232 0
M  V30 3 C -2.0214 0.0505 6.8422 0
M  V30 4 C -3.6727 1.4888 5.5213 0
M  V30 5 C -1.0337 0.4223 6.0088 0
M  V30 6 C -2.4634 2.3526 5.2082 0
M  V30 7 C -1.1579 1.5422 4.9646 0 CFG=2
M  V30 8 C 0.2484 -0.369 5.9494 0
M  V30 9 C -1.1276 0.8113 3.5689 0 CFG=1
M  V30 10 C -0.0014 2.557 5.1554 0
M  V30 11 C 0.3537 -1.0414 4.5802 0
M  V30 12 C -1.4058 1.7037 2.3261 0 CFG=1
M  V30 13 C 0.1714 -0.0582 3.4028 0 CFG=1
M  V30 14 O -0.5402 2.8261 2.2935 0
M  V30 15 C -1.3134 0.9335 0.9885 0
M  V30 16 C 0.0902 -0.8149 2.0684 0 CFG=1
M  V30 17 C -0.0139 0.1118 0.8335 0 CFG=1
M  V30 18 C 1.2245 -1.7672 1.7068 0
M  V30 19 C 0.0096 -0.9631 -0.3098 0 CFG=1
M  V30 20 C 1.2048 1.0653 0.6871 0
M  V30 21 C 1.0822 -1.9779 0.1869 0
M  V30 22 O -1.214 -1.7038 -0.3532 0
M  V30 23 C 0.3852 -0.4024 -1.7088 0
M  V30 24 O 1.5573 -0.2267 -2.0561 0
M  V30 25 C -0.771 0.0141 -2.6167 0
M  V30 26 O -0.3182 0.548 -3.8611 0
M  V30 27 C 0.0774 -0.4061 -4.7631 0
M  V30 28 O -0.0673 -1.6087 -4.5901 0
M  V30 29 C 0.7084 0.2915 -5.9723 0
M  V30 30 N 1.1434 -0.654 -7.0341 0
M  V30 31 C 2.2961 -1.4586 -6.5826 0
M  V30 32 C 1.4382 0.1063 -8.2628 0
M  V30 33 C 2.0869 -2.9317 -6.9136 0
M  V30 34 C 1.7116 -0.7652 -9.4831 0
M  V30 35 H -1.9167 -0.7519 7.564 0
M  V30 36 H -3.9469 0.8464 4.6788 0
M  V30 37 H -4.5273 2.1333 5.7548 0
M  V30 38 H -2.3123 3.0249 6.0665 0
M  V30 39 H -2.6867 3.011 4.3624 0
M  V30 40 H 1.112 0.2796 6.13 0
M  V30 41 H 0.2795 -1.1408 6.7282 0
M  V30 42 H -1.961 0.0894 3.5784 0
M  V30 43 H 0.1005 2.8366 6.212 0
M  V30 44 H -0.1837 3.4867 4.6066 0
M  V30 45 H 0.9703 2.1748 4.8338 0
M  V30 46 H 1.3295 -1.5358 4.5059 0
M  V30 47 H -0.4039 -1.834 4.514 0
M  V30 48 H -2.4256 2.0985 2.3985 0
M  V30 49 H 1.0507 0.5926 3.3924 0
M  V30 50 H -0.8263 3.4129 1.5723 0
M  V30 51 H -2.1865 0.2727 0.9467 0
M  V30 52 H -1.4039 1.6355 0.1513 0
M  V30 53 H -0.8218 -1.4316 2.1212 0
M  V30 54 H 2.2029 -1.3331 1.9418 0
M  V30 55 H 1.1482 -2.7177 2.245 0
M  V30 56 H 1.4068 1.6519 1.5848 0
M  V30 57 H 1.0397 1.778 -0.129 0
M  V30 58 H 2.1336 0.5296 0.4665 0
M  V30 59 H 0.7744 -3.0105 -0.0174 0
M  V30 60 H 2.0617 -1.8368 -0.2821 0
M  V30 61 H -1.9681 -1.1125 -0.4987 0
M  V30 62 H -1.4561 -0.8244 -2.7789 0
M  V30 63 H -1.3255 0.8113 -2.1134 0
M  V30 64 H 1.5509 0.9046 -5.6299 0
M  V30 65 H -0.0722 0.9502 -6.373 0
M  V30 66 H 3.2376 -1.1036 -7.02 0
M  V30 67 H 2.4409 -1.3881 -5.4972 0
M  V30 68 H 0.5682 0.7272 -8.5128 0
M  V30 69 H 2.2812 0.7916 -8.106 0
M  V30 70 H 2.9341 -3.5201 -6.546 0
M  V30 71 H 2.0043 -3.1067 -7.9895 0
M  V30 72 H 1.1805 -3.3192 -6.4366 0
M  V30 73 H 1.7861 -0.1384 -10.3782 0
M  V30 74 H 0.9011 -1.4832 -9.6458 0
M  V30 75 H 2.654 -1.3128 -9.3898 0
M  V30 END ATOM
M  V30 BEGIN BOND
M  V30 1 2 1 2
M  V30 2 1 2 3
M  V30 3 1 2 4
M  V30 4 2 3 5
M  V30 5 1 4 6
M  V30 6 1 5 7
M  V30 7 1 5 8
M  V30 8 1 7 9
M  V30 9 1 7 10
M  V30 10 1 8 11
M  V30 11 1 9 12
M  V30 12 1 9 13
M  V30 13 1 12 14
M  V30 14 1 12 15
M  V30 15 1 13 16
M  V30 16 1 15 17
M  V30 17 1 16 18
M  V30 18 1 17 19
M  V30 19 1 17 20
M  V30 20 1 18 21
M  V30 21 1 19 22
M  V30 22 1 19 23
M  V30 23 2 23 24
M  V30 24 1 23 25
M  V30 25 1 25 26
M  V30 26 1 26 27
M  V30 27 2 27 28
M  V30 28 1 27 29
M  V30 29 1 29 30
M  V30 30 1 30 31
M  V30 31 1 30 32
M  V30 32 1 31 33
M  V30 33 1 32 34
M  V30 34 1 6 7
M  V30 35 1 11 13
M  V30 36 1 16 17
M  V30 37 1 19 21
M  V30 38 1 3 35
M  V30 39 1 4 36
M  V30 40 1 4 37
M  V30 41 1 6 38
M  V30 42 1 6 39
M  V30 43 1 8 40
M  V30 44 1 8 41
M  V30 45 1 9 42
M  V30 46 1 10 43
M  V30 47 1 10 44
M  V30 48 1 10 45
M  V30 49 1 11 46
M  V30 50 1 11 47
M  V30 51 1 12 48
M  V30 52 1 13 49
M  V30 53 1 14 50
M  V30 54 1 15 51
M  V30 55 1 15 52
M  V30 56 1 16 53
M  V30 57 1 18 54
M  V30 58 1 18 55
M  V30 59 1 20 56
M  V30 60 1 20 57
M  V30 61 1 20 58
M  V30 62 1 21 59
M  V30 63 1 21 60
M  V30 64 1 22 61
M  V30 65 1 25 62
M  V30 66 1 25 63
M  V30 67 1 29 64
M  V30 68 1 29 65
M  V30 69 1 31 66
M  V30 70 1 31 67
M  V30 71 1 32 68
M  V30 72 1 32 69
M  V30 73 1 33 70
M  V30 74 1 33 71
M  V30 75 1 33 72
M  V30 76 1 34 73
M  V30 77 1 34 74
M  V30 78 1 34 75
M  V30 END BOND
M  V30 BEGIN COLLECTION
M  V30 MDLV30/STEABS ATOMS=(7 7 9 12 13 16 17 19)
M  V30 END COLLECTION
M  V30 END CTAB
M  END
>  <Column 1>
1430

>  <level_0>
1580

>  <index>
1580

>  <Unnamed: 0>
1580

>  <NO.>
1592

>  <Name>
hydrocortamate

>  <IUPAC_name>
[2-[(8s-9s-10r-11s-13s-14s-17r)-11-17-dihydroxy-10-13-dimethyl-3-oxo-2-6-7-8-9-11-12-14-15-16-decahydro-1h-cyclopenta[a]phenanthren-17-yl]-2-oxoethyl] 2-(diethylamino)acetate

>  <SMILES>
CCN(CC)CC(=O)OCC(=O)[C@@]1(O)CC[C@H]2[C@@H]3CCC4=CC(=O)CC[C@]4(C)[C@H]3[C@@H](O)C[C@@]21C

>  <CID>
84088

>  <logBB>


>  <BBB+/BBB->
BBB+

>  <Inchi>
InChI=1S/C27H41NO6/c1-5-28(6-2)15-23(32)34-16-22(31)27(33)12-10-20-19-8-7-17-13-18(29)9-11-25(17-3)24(19)21(30)14-26(20-27)4/h13-19-21-24-30-33H-5-12-14-16H2-1-4H3/t19--20--21--24+-25--26--27-/m0/s1

>  <threshold>
-1

>  <reference>
R1|R27|R30|

>  <group>
B

>  <Class>
1

>  <ABC>
26.61

>  <ABCGG>
21.31

>  <nAcid>
0

>  <nBase>
1

>  <nAromAtom>
0

>  <nAromBond>
0

>  <nAtom>
75

>  <nHeavyAtom>
34

>  <nSpiro>
0

>  <nBridgehead>
0

>  <nHetero>
7

>  <nN>
1

>  <nO>
6

>  <nF>
0

>  <BalabanJ>
1.48

>  <BertzCT>
880.35

>  <nBonds>
78

>  <nBondsO>
37

>  <nBondsS>
74

>  <nBondsD>
4

>  <nBondsT>
0

>  <nBondsA>
0

>  <nBondsM>
4

>  <nBondsKS>
74

>  <nBondsKD>
4

>  <RNCG>
0.16

>  <RPCG>
0.11

>  <FCSP3>
0.81

>  <SZ>
43

>  <Sm>
39.6

>  <Sv>
43.15

>  <Sse>
74.85

>  <Sp>
46.91

>  <Si>
85.06

>  <MZ>
0.57

>  <Mm>
0.53

>  <Mv>
0.58

>  <Mse>
1

>  <Mp>
0.63

>  <Mi>
1.13

>  <NsCH3>
4

>  <NdCH2>
0

>  <NssCH2>
11

>  <NtCH>
0

>  <NdsCH>
1

>  <NaaCH>
0

>  <NsssCH>
4

>  <NddC>
0

>  <NtsC>
0

>  <NdssC>
4

>  <NaasC>
0

>  <NaaaC>
0

>  <NssssC>
3

>  <NsNH3>
0

>  <NsNH2>
0

>  <NssNH2>
0

>  <NdNH>
0

>  <NssNH>
0

>  <NaaNH>
0

>  <NtN>
0

>  <NsssNH>
0

>  <NdsN>
0

>  <NaaN>
0

>  <NsssN>
1

>  <NddsN>
0

>  <NaasN>
0

>  <NssssN>
0

>  <NsOH>
2

>  <NdO>
3

>  <NssO>
1

>  <NaaO>
0

>  <NsF>
0

>  <NsSiH3>
0

>  <NssSiH2>
0

>  <NsssSiH>
0

>  <NssssSi>
0

>  <NsPH2>
0

>  <NssPH>
0

>  <NsssP>
0

>  <NdsssP>
0

>  <NsssssP>
0

>  <NsSH>
0

>  <NdS>
0

>  <NssS>
0

>  <NaaS>
0

>  <NdssS>
0

>  <NddssS>
0

>  <NsCl>
0

>  <NsBr>
0

>  <NsI>
0

>  <fragCpx>
247.07

>  <fMF>
0.23

>  <nHBAcc>
7

>  <nHBDon>
2

>  <Kier1>
27.05

>  <Kier2>
10.05

>  <Lipinski>
1

>  <GhoseFilter>
0

>  <FilterItLogS>
-4.12

>  <VMcGowan>
375.85

>  <LabuteASA>
202.46

>  <PEOE_VSA1>
14.95

>  <PEOE_VSA2>
19.28

>  <PEOE_VSA3>
0

>  <PEOE_VSA4>
0

>  <PEOE_VSA5>
0

>  <PEOE_VSA6>
33.27

>  <PEOE_VSA7>
80.86

>  <PEOE_VSA8>
11.84

>  <PEOE_VSA9>
12.65

>  <PEOE_VSA10>
5.6

>  <PEOE_VSA11>
12.39

>  <PEOE_VSA12>
5.78

>  <PEOE_VSA13>
0

>  <SMR_VSA1>
29.33

>  <SMR_VSA2>
0

>  <SMR_VSA3>
4.9

>  <SMR_VSA4>
28.58

>  <SMR_VSA5>
84.35

>  <SMR_VSA6>
26.24

>  <SMR_VSA7>
11.65

>  <SMR_VSA8>
0

>  <SMR_VSA9>
0

>  <SlogP_VSA1>
0

>  <SlogP_VSA2>
70.59

>  <SlogP_VSA3>
19.12

>  <SlogP_VSA4>
28.58

>  <SlogP_VSA5>
72.64

>  <SlogP_VSA6>
11.65

>  <SlogP_VSA7>
0

>  <SlogP_VSA8>
0

>  <SlogP_VSA9>
0

>  <SlogP_VSA10>
0

>  <SlogP_VSA11>
0

>  <EState_VSA1>
35.48

>  <EState_VSA2>
35.5

>  <EState_VSA3>
38.77

>  <EState_VSA4>
24.84

>  <EState_VSA5>
0

>  <EState_VSA6>
6.08

>  <EState_VSA7>
25.67

>  <EState_VSA8>
6.92

>  <EState_VSA9>
4.74

>  <EState_VSA10>
24.6

>  <VSA_EState1>
5.28

>  <VSA_EState2>
39.47

>  <VSA_EState3>
23.17

>  <VSA_EState4>
-1.42

>  <VSA_EState5>
-0.41

>  <VSA_EState6>
0

>  <VSA_EState7>
5.49

>  <VSA_EState8>
9.17

>  <VSA_EState9>
0

>  <apol>
78.34

>  <bpol>
47.18

>  <nRing>
4

>  <nHRing>
0

>  <naRing>
0

>  <naHRing>
0

>  <nARing 2>
4

>  <nAHRing 2>
0

>  <nFRing>
1

>  <nFHRing>
0

>  <nFaRing>
0

>  <nFaHRing>
0

>  <nFARing 2>
1

>  <nFAHRing 2>
0

>  <nRot>
7

>  <SLogP>
2.67

>  <SMR>
126.8

>  <TopoPSA(NO)>
104.14

>  <TopoPSA>
104.14

>  <JGI1>
0.28

>  <JGI2>
0.13

>  <JGI3>
0.07

>  <JGI4>
0.06

>  <JGI5>
0.03

>  <Diameter>
17

>  <Radius>
9

>  <TMWC10>
152.29

>  <TSRW10>
85.98

>  <MW>
475.29

>  <AMW>
6.34

>  <WPath>
3453

>  <WPol>
70

>  <Zagreb1>
190

>  <Zagreb2>
237

>  <mZagreb2>
7.35

>  <yes>


>  <nAR-cont>
0.199399

>  <nHA-cont>
0.568589513

>  <MWHBN>
0.412822321

>  <MWHBN-cont>
0.425805177

>  <TPSA-cont>
0.273038133

>  <pka_cont>
0.97

>  <yes.1>


>  <BBB_SCORE>
2.437772544

>  <MMFF94 Energy>
162.6

$$$$
Compound 1203
Actelion Java MolfileCreator 2.0

  0  0  0  0  0  0              0 V3000
M  V30 BEGIN CTAB
M  V30 COUNTS 39 39 0 0 0
M  V30 BEGIN ATOM
M  V30 1 O -0.2343 -1.4067 -0.2343 0
M  V30 2 C 0.0598 -0.8263 0.8021 0
M  V30 3 O 0.1867 0.561 0.9573 0
M  V30 4 C 0.3371 -1.4599 2.1712 0
M  V30 5 C -0.0129 1.3689 -0.1713 0
M  V30 6 N 0.4397 -2.9419 2.113 0
M  V30 7 C -0.874 2.4531 -0.0274 0
M  V30 8 C 0.6759 1.1613 -1.3624 0
M  V30 9 C 0.3577 -3.5273 3.4637 0
M  V30 10 C 1.6909 -3.3435 1.4394 0
M  V30 11 C -1.076 3.3244 -1.1021 0
M  V30 12 C 0.4669 2.0329 -2.4346 0
M  V30 13 C -1.0627 -3.5115 4.0213 0
M  V30 14 C 1.6144 -4.7653 0.8916 0
M  V30 15 C -0.4069 3.1228 -2.3123 0
M  V30 16 N -0.5741 3.9455 -3.4442 0
M  V30 17 C -1.193 5.1817 -3.4947 0
M  V30 18 O -1.675 5.8047 -2.5557 0
M  V30 19 C -1.1983 5.7534 -4.8901 0
M  V30 20 H -0.505 -1.1561 2.801 0
M  V30 21 H 1.258 -1.0314 2.5853 0
M  V30 22 H -1.3942 2.6246 0.9104 0
M  V30 23 H 1.3632 0.3277 -1.4717 0
M  V30 24 H 0.6635 -4.5789 3.4427 0
M  V30 25 H 1.0399 -3.0189 4.1567 0
M  V30 26 H 1.8951 -2.6939 0.5804 0
M  V30 27 H 2.5517 -3.2416 2.1125 0
M  V30 28 H -1.7695 4.1489 -0.9661 0
M  V30 29 H 1.002 1.8487 -3.3623 0
M  V30 30 H -1.0975 -4.069 4.9635 0
M  V30 31 H -1.7633 -3.9869 3.3266 0
M  V30 32 H -1.4164 -2.4981 4.2303 0
M  V30 33 H 2.5172 -4.9895 0.3138 0
M  V30 34 H 0.7537 -4.8828 0.2247 0
M  V30 35 H 1.5401 -5.5138 1.6853 0
M  V30 36 H -0.1678 3.6028 -4.3056 0
M  V30 37 H -0.1864 6.0686 -5.1588 0
M  V30 38 H -1.8676 6.6174 -4.932 0
M  V30 39 H -1.5501 5.0049 -5.606 0
M  V30 END ATOM
M  V30 BEGIN BOND
M  V30 1 2 1 2
M  V30 2 1 2 3
M  V30 3 1 2 4
M  V30 4 1 3 5
M  V30 5 1 4 6
M  V30 6 2 5 7
M  V30 7 1 5 8
M  V30 8 1 6 9
M  V30 9 1 6 10
M  V30 10 1 7 11
M  V30 11 2 8 12
M  V30 12 1 9 13
M  V30 13 1 10 14
M  V30 14 2 11 15
M  V30 15 1 15 16
M  V30 16 1 16 17
M  V30 17 2 17 18
M  V30 18 1 17 19
M  V30 19 1 12 15
M  V30 20 1 4 20
M  V30 21 1 4 21
M  V30 22 1 7 22
M  V30 23 1 8 23
M  V30 24 1 9 24
M  V30 25 1 9 25
M  V30 26 1 10 26
M  V30 27 1 10 27
M  V30 28 1 11 28
M  V30 29 1 12 29
M  V30 30 1 13 30
M  V30 31 1 13 31
M  V30 32 1 13 32
M  V30 33 1 14 33
M  V30 34 1 14 34
M  V30 35 1 14 35
M  V30 36 1 16 36
M  V30 37 1 19 37
M  V30 38 1 19 38
M  V30 39 1 19 39
M  V30 END BOND
M  V30 END CTAB
M  END
>  <Column 1>
1431

>  <level_0>
1581

>  <index>
1581

>  <Unnamed: 0>
1581

>  <NO.>
1593

>  <Name>
propacetamol

>  <IUPAC_name>
(4-acetamidophenyl) 2-(diethylamino)acetate

>  <SMILES>
CCN(CC)CC(=O)Oc1ccc(NC(C)=O)cc1

>  <CID>
68865

>  <logBB>


>  <BBB+/BBB->
BBB+

>  <Inchi>
InChI=1S/C14H20N2O3/c1-4-16(5-2)10-14(18)19-13-8-6-12(7-9-13)15-11(3)17/h6-9H-4-5-10H2-1-3H3-(H-15-17)

>  <threshold>
-1

>  <reference>
R1|R13|R19|R6|R24|R27|R27|R27|R30|R30|

>  <group>
B

>  <Class>
1

>  <ABC>
13.76

>  <ABCGG>
11.93

>  <nAcid>
0

>  <nBase>
1

>  <nAromAtom>
6

>  <nAromBond>
6

>  <nAtom>
39

>  <nHeavyAtom>
19

>  <nSpiro>
0

>  <nBridgehead>
0

>  <nHetero>
5

>  <nN>
2

>  <nO>
3

>  <nF>
0

>  <BalabanJ>
2.21

>  <BertzCT>
424.82

>  <nBonds>
39

>  <nBondsO>
19

>  <nBondsS>
31

>  <nBondsD>
2

>  <nBondsT>
0

>  <nBondsA>
6

>  <nBondsM>
8

>  <nBondsKS>
34

>  <nBondsKD>
5

>  <RNCG>
0.24

>  <RPCG>
0.18

>  <FCSP3>
0.43

>  <SZ>
23.67

>  <Sm>
22.01

>  <Sv>
23.08

>  <Sse>
39.2

>  <Sp>
24.74

>  <Si>
44.36

>  <MZ>
0.61

>  <Mm>
0.56

>  <Mv>
0.59

>  <Mse>
1.01

>  <Mp>
0.63

>  <Mi>
1.14

>  <NsCH3>
3

>  <NdCH2>
0

>  <NssCH2>
3

>  <NtCH>
0

>  <NdsCH>
0

>  <NaaCH>
4

>  <NsssCH>
0

>  <NddC>
0

>  <NtsC>
0

>  <NdssC>
2

>  <NaasC>
2

>  <NaaaC>
0

>  <NssssC>
0

>  <NsNH3>
0

>  <NsNH2>
0

>  <NssNH2>
0

>  <NdNH>
0

>  <NssNH>
1

>  <NaaNH>
0

>  <NtN>
0

>  <NsssNH>
0

>  <NdsN>
0

>  <NaaN>
0

>  <NsssN>
1

>  <NddsN>
0

>  <NaasN>
0

>  <NssssN>
0

>  <NsOH>
0

>  <NdO>
2

>  <NssO>
1

>  <NaaO>
0

>  <NsF>
0

>  <NsSiH3>
0

>  <NssSiH2>
0

>  <NsssSiH>
0

>  <NssssSi>
0

>  <NsPH2>
0

>  <NssPH>
0

>  <NsssP>
0

>  <NdsssP>
0

>  <NsssssP>
0

>  <NsSH>
0

>  <NdS>
0

>  <NssS>
0

>  <NaaS>
0

>  <NdssS>
0

>  <NddssS>
0

>  <NsCl>
0

>  <NsBr>
0

>  <NsI>
0

>  <fragCpx>
19.05

>  <fMF>
0.15

>  <nHBAcc>
4

>  <nHBDon>
1

>  <Kier1>
17.05

>  <Kier2>
9.03

>  <Lipinski>
1

>  <GhoseFilter>
1

>  <FilterItLogS>
-3.2

>  <VMcGowan>
213.33

>  <LabuteASA>
113.1

>  <PEOE_VSA1>
10.05

>  <PEOE_VSA2>
14.49

>  <PEOE_VSA3>
0

>  <PEOE_VSA4>
0

>  <PEOE_VSA5>
0

>  <PEOE_VSA6>
13.85

>  <PEOE_VSA7>
37.35

>  <PEOE_VSA8>
12.61

>  <PEOE_VSA9>
6.54

>  <PEOE_VSA10>
5.75

>  <PEOE_VSA11>
0

>  <PEOE_VSA12>
5.91

>  <PEOE_VSA13>
0

>  <SMR_VSA1>
14.33

>  <SMR_VSA2>
0

>  <SMR_VSA3>
4.9

>  <SMR_VSA4>
0

>  <SMR_VSA5>
20.77

>  <SMR_VSA6>
24.95

>  <SMR_VSA7>
24.27

>  <SMR_VSA8>
0

>  <SMR_VSA9>
5.75

>  <SlogP_VSA1>
10.05

>  <SlogP_VSA2>
36.41

>  <SlogP_VSA3>
9.59

>  <SlogP_VSA4>
0

>  <SlogP_VSA5>
20.77

>  <SlogP_VSA6>
24.27

>  <SlogP_VSA7>
0

>  <SlogP_VSA8>
0

>  <SlogP_VSA9>
0

>  <SlogP_VSA10>
5.69

>  <SlogP_VSA11>
5.75

>  <EState_VSA1>
0

>  <EState_VSA2>
18.42

>  <EState_VSA3>
11.44

>  <EState_VSA4>
13.09

>  <EState_VSA5>
6.92

>  <EState_VSA6>
24.27

>  <EState_VSA7>
18.75

>  <EState_VSA8>
5.32

>  <EState_VSA9>
4.74

>  <EState_VSA10>
9.59

>  <VSA_EState1>
5.22

>  <VSA_EState2>
24.51

>  <VSA_EState3>
2.65

>  <VSA_EState4>
0.68

>  <VSA_EState5>
0.06

>  <VSA_EState6>
6.71

>  <VSA_EState7>
0

>  <VSA_EState8>
7.34

>  <VSA_EState9>
0

>  <apol>
41.32

>  <bpol>
25.82

>  <nRing>
1

>  <nHRing>
0

>  <naRing>
1

>  <naHRing>
0

>  <nARing 2>
0

>  <nAHRing 2>
0

>  <nFRing>
0

>  <nFHRing>
0

>  <nFaRing>
0

>  <nFaHRing>
0

>  <nFARing 2>
0

>  <nFAHRing 2>
0

>  <nRot>
6

>  <SLogP>
1.89

>  <SMR>
74.17

>  <TopoPSA(NO)>
58.64

>  <TopoPSA>
58.64

>  <JGI1>
0.26

>  <JGI2>
0.06

>  <JGI3>
0.05

>  <JGI4>
0.04

>  <JGI5>
0.02

>  <Diameter>
12

>  <Radius>
6

>  <TMWC10>
106.95

>  <TSRW10>
51.04

>  <MW>
264.15

>  <AMW>
6.77

>  <WPath>
844

>  <WPol>
23

>  <Zagreb1>
86

>  <Zagreb2>
93

>  <mZagreb2>
4.5

>  <yes>


>  <nAR-cont>
0.336376

>  <nHA-cont>
0.998649058

>  <MWHBN>
0.307641342

>  <MWHBN-cont>
0.817323983

>  <TPSA-cont>
0.590656387

>  <pka_cont>
0.97

>  <yes.1>


>  <BBB_SCORE>
4.227323805

>  <MMFF94 Energy>
54.367

$$$$
Compound 1204
Actelion Java MolfileCreator 2.0

  0  0  0  0  0  0              0 V3000
M  V30 BEGIN CTAB
M  V30 COUNTS 50 52 0 0 0
M  V30 BEGIN ATOM
M  V30 1 Cl 3.8579 -0.8831 -4.0189 0
M  V30 2 C 3.2104 -0.4643 -2.4822 0
M  V30 3 C 2.5659 -1.4307 -1.7159 0
M  V30 4 C 3.3457 0.8346 -2.006 0
M  V30 5 C 2.0331 -1.0915 -0.4604 0
M  V30 6 C 2.8236 1.1731 -0.7549 0
M  V30 7 C 1.3908 -2.1744 0.3364 0
M  V30 8 C 2.147 0.2231 0.0283 0
M  V30 9 N 1.5917 -2.3721 1.5958 0
M  V30 10 C 0.4486 -3.0835 -0.3617 0
M  V30 11 N 1.618 0.6281 1.2867 0
M  V30 12 C 2.4867 -1.458 2.3135 0
M  V30 13 C 0.6505 -4.4628 -0.3278 0
M  V30 14 C -0.6519 -2.5535 -1.0465 0
M  V30 15 C 1.7807 -0.116 2.4587 0
M  V30 16 C 0.7467 1.8126 1.3406 0
M  V30 17 F 1.7204 -4.9909 0.2836 0
M  V30 18 C -0.2353 -5.3191 -0.9764 0
M  V30 19 C -1.5407 -3.4135 -1.6957 0
M  V30 20 O 1.3649 0.2722 3.5525 0
M  V30 21 C -0.7422 1.4178 1.2183 0
M  V30 22 C -1.3329 -4.7942 -1.6605 0
M  V30 23 N -1.6951 2.5489 1.2029 0
M  V30 24 C -3.0697 2.0387 1.3564 0
M  V30 25 C -1.5214 3.4649 0.0657 0
M  V30 26 C -4.1203 3.1274 1.5509 0
M  V30 27 C -1.7165 2.8674 -1.3246 0
M  V30 28 H 2.5026 -2.4498 -2.09 0
M  V30 29 H 3.8656 1.5868 -2.5947 0
M  V30 30 H 2.9754 2.1875 -0.3915 0
M  V30 31 H 2.6684 -1.861 3.3157 0
M  V30 32 H 3.4655 -1.351 1.8336 0
M  V30 33 H -0.8344 -1.4825 -1.0641 0
M  V30 34 H 1.0296 2.5136 0.5529 0
M  V30 35 H 0.9066 2.3284 2.2954 0
M  V30 36 H -0.0621 -6.3905 -0.9452 0
M  V30 37 H -2.4018 -3.0088 -2.2233 0
M  V30 38 H -0.8861 0.7838 0.3345 0
M  V30 39 H -0.9718 0.7773 2.0806 0
M  V30 40 H -2.0282 -5.4622 -2.1639 0
M  V30 41 H -3.3548 1.4014 0.5108 0
M  V30 42 H -3.1113 1.4053 2.2521 0
M  V30 43 H -2.1963 4.3215 0.1771 0
M  V30 44 H -0.5255 3.9195 0.1134 0
M  V30 45 H -5.0788 2.674 1.8252 0
M  V30 46 H -4.2841 3.7048 0.6362 0
M  V30 47 H -3.8342 3.8148 2.3539 0
M  V30 48 H -1.5829 3.6472 -2.082 0
M  V30 49 H -2.7217 2.4555 -1.4531 0
M  V30 50 H -0.986 2.0808 -1.5354 0
M  V30 END ATOM
M  V30 BEGIN BOND
M  V30 1 1 1 2
M  V30 2 2 2 3
M  V30 3 1 2 4
M  V30 4 1 3 5
M  V30 5 2 4 6
M  V30 6 1 5 7
M  V30 7 2 5 8
M  V30 8 2 7 9
M  V30 9 1 7 10
M  V30 10 1 8 11
M  V30 11 1 9 12
M  V30 12 2 10 13
M  V30 13 1 10 14
M  V30 14 1 11 15
M  V30 15 1 11 16
M  V30 16 1 13 17
M  V30 17 1 13 18
M  V30 18 2 14 19
M  V30 19 2 15 20
M  V30 20 1 16 21
M  V30 21 2 18 22
M  V30 22 1 21 23
M  V30 23 1 23 24
M  V30 24 1 23 25
M  V30 25 1 24 26
M  V30 26 1 25 27
M  V30 27 1 6 8
M  V30 28 1 12 15
M  V30 29 1 19 22
M  V30 30 1 3 28
M  V30 31 1 4 29
M  V30 32 1 6 30
M  V30 33 1 12 31
M  V30 34 1 12 32
M  V30 35 1 14 33
M  V30 36 1 16 34
M  V30 37 1 16 35
M  V30 38 1 18 36
M  V30 39 1 19 37
M  V30 40 1 21 38
M  V30 41 1 21 39
M  V30 42 1 22 40
M  V30 43 1 24 41
M  V30 44 1 24 42
M  V30 45 1 25 43
M  V30 46 1 25 44
M  V30 47 1 26 45
M  V30 48 1 26 46
M  V30 49 1 26 47
M  V30 50 1 27 48
M  V30 51 1 27 49
M  V30 52 1 27 50
M  V30 END BOND
M  V30 END CTAB
M  END
>  <Column 1>
1433

>  <level_0>
1583

>  <index>
1583

>  <Unnamed: 0>
1583

>  <NO.>
1595

>  <Name>
methylprednisolone

>  <IUPAC_name>
7-chloro-1-[2-(diethylamino)ethyl]-5-(2-fluorophenyl)-3h-1-4-benzodiazepin-2-one

>  <SMILES>
CCN(CC)CCN1C(=O)CN=C(c2ccccc2F)c2cc(Cl)ccc21

>  <CID>
3393

>  <logBB>


>  <BBB+/BBB->
BBB+

>  <Inchi>
InChI=1S/C21H23ClFN3O/c1-3-25(4-2)11-12-26-19-10-9-15(22)13-17(19)21(24-14-20(26)27)16-7-5-6-8-18(16)23/h5-10-13H-3-4-11-12-14H2-1-2H3

>  <threshold>
-1

>  <reference>
R1|R7|R13|R19|R6|R14|R15|R23|R24|R26|R27|R27|R27|R27|R29|R30|R30|R36|

>  <group>
B

>  <Class>
1

>  <ABC>
20.59

>  <ABCGG>
16.95

>  <nAcid>
0

>  <nBase>
1

>  <nAromAtom>
12

>  <nAromBond>
12

>  <nAtom>
50

>  <nHeavyAtom>
27

>  <nSpiro>
0

>  <nBridgehead>
0

>  <nHetero>
6

>  <nN>
3

>  <nO>
1

>  <nF>
1

>  <BalabanJ>
1.77

>  <BertzCT>
864.26

>  <nBonds>
52

>  <nBondsO>
29

>  <nBondsS>
38

>  <nBondsD>
2

>  <nBondsT>
0

>  <nBondsA>
12

>  <nBondsM>
14

>  <nBondsKS>
44

>  <nBondsKD>
8

>  <RNCG>
0.17

>  <RPCG>
0.13

>  <FCSP3>
0.33

>  <SZ>
34

>  <Sm>
32.29

>  <Sv>
31.96

>  <Sse>
50.25

>  <Sp>
34.28

>  <Si>
56.56

>  <MZ>
0.68

>  <Mm>
0.65

>  <Mv>
0.64

>  <Mse>
1.01

>  <Mp>
0.69

>  <Mi>
1.13

>  <NsCH3>
2

>  <NdCH2>
0

>  <NssCH2>
5

>  <NtCH>
0

>  <NdsCH>
0

>  <NaaCH>
7

>  <NsssCH>
0

>  <NddC>
0

>  <NtsC>
0

>  <NdssC>
2

>  <NaasC>
5

>  <NaaaC>
0

>  <NssssC>
0

>  <NsNH3>
0

>  <NsNH2>
0

>  <NssNH2>
0

>  <NdNH>
0

>  <NssNH>
0

>  <NaaNH>
0

>  <NtN>
0

>  <NsssNH>
0

>  <NdsN>
1

>  <NaaN>
0

>  <NsssN>
2

>  <NddsN>
0

>  <NaasN>
0

>  <NssssN>
0

>  <NsOH>
0

>  <NdO>
1

>  <NssO>
0

>  <NaaO>
0

>  <NsF>
1

>  <NsSiH3>
0

>  <NssSiH2>
0

>  <NsssSiH>
0

>  <NssssSi>
0

>  <NsPH2>
0

>  <NssPH>
0

>  <NsssP>
0

>  <NdsssP>
0

>  <NsssssP>
0

>  <NsSH>
0

>  <NdS>
0

>  <NssS>
0

>  <NaaS>
0

>  <NdssS>
0

>  <NddssS>
0

>  <NsCl>
1

>  <NsBr>
0

>  <NsI>
0

>  <fragCpx>
139.06

>  <fMF>
0.34

>  <nHBAcc>
3

>  <nHBDon>
0

>  <Kier1>
21.7

>  <Kier2>
10.16

>  <Lipinski>
1

>  <GhoseFilter>
1

>  <FilterItLogS>
-6.5

>  <VMcGowan>
289.58

>  <LabuteASA>
163.81

>  <PEOE_VSA1>
9.8

>  <PEOE_VSA2>
9.79

>  <PEOE_VSA3>
4.39

>  <PEOE_VSA4>
0

>  <PEOE_VSA5>
0

>  <PEOE_VSA6>
37.58

>  <PEOE_VSA7>
43.42

>  <PEOE_VSA8>
29.24

>  <PEOE_VSA9>
11.4

>  <PEOE_VSA10>
12.36

>  <PEOE_VSA11>
0

>  <PEOE_VSA12>
5.91

>  <PEOE_VSA13>
0

>  <SMR_VSA1>
9.18

>  <SMR_VSA2>
0

>  <SMR_VSA3>
4.9

>  <SMR_VSA4>
4.99

>  <SMR_VSA5>
13.85

>  <SMR_VSA6>
37.62

>  <SMR_VSA7>
64.43

>  <SMR_VSA8>
0

>  <SMR_VSA9>
0

>  <SlogP_VSA1>
4.9

>  <SlogP_VSA2>
49.24

>  <SlogP_VSA3>
4.79

>  <SlogP_VSA4>
5.82

>  <SlogP_VSA5>
24.97

>  <SlogP_VSA6>
47.46

>  <SlogP_VSA7>
5.02

>  <SlogP_VSA8>
0

>  <SlogP_VSA9>
0

>  <SlogP_VSA10>
10.08

>  <SlogP_VSA11>
0

>  <EState_VSA1>
0

>  <EState_VSA2>
18.27

>  <EState_VSA3>
28.41

>  <EState_VSA4>
25.32

>  <EState_VSA5>
6.07

>  <EState_VSA6>
35.23

>  <EState_VSA7>
6.07

>  <EState_VSA8>
23.74

>  <EState_VSA9>
11.6

>  <EState_VSA10>
9.18

>  <VSA_EState1>
14.42

>  <VSA_EState2>
21.23

>  <VSA_EState3>
0.52

>  <VSA_EState4>
2.23

>  <VSA_EState5>
-0.47

>  <VSA_EState6>
11.79

>  <VSA_EState7>
0

>  <VSA_EState8>
7.33

>  <VSA_EState9>
0

>  <apol>
57.25

>  <bpol>
30.12

>  <nRing>
3

>  <nHRing>
1

>  <naRing>
2

>  <naHRing>
0

>  <nARing 2>
1

>  <nAHRing 2>
1

>  <nFRing>
1

>  <nFHRing>
1

>  <nFaRing>
0

>  <nFaHRing>
0

>  <nFARing 2>
1

>  <nFAHRing 2>
1

>  <nRot>
6

>  <SLogP>
4

>  <SMR>
108.5

>  <TopoPSA(NO)>
35.91

>  <TopoPSA>
35.91

>  <JGI1>
0.17

>  <JGI2>
0.09

>  <JGI3>
0.05

>  <JGI4>
0.04

>  <JGI5>
0.03

>  <Diameter>
12

>  <Radius>
6

>  <TMWC10>
132.13

>  <TSRW10>
70.14

>  <MW>
387.15

>  <AMW>
7.74

>  <WPath>
1747

>  <WPol>
48

>  <Zagreb1>
138

>  <Zagreb2>
163

>  <mZagreb2>
6.17

>  <yes>


>  <nAR-cont>
0.816016

>  <nHA-cont>
0.860070871

>  <MWHBN>
0.152469025

>  <MWHBN-cont>
0.938761722

>  <TPSA-cont>
0.749325901

>  <pka_cont>
0.97

>  <yes.1>


>  <BBB_SCORE>
5.067881257

>  <MMFF94 Energy>
128.2

$$$$
Compound 1205
Actelion Java MolfileCreator 2.0

  0  0  0  0  0  0              0 V3000
M  V30 BEGIN CTAB
M  V30 COUNTS 43 45 0 0 0
M  V30 BEGIN ATOM
M  V30 1 S -2.6505 1.3647 -2.2486 0
M  V30 2 C -2.9816 1.1082 -0.5172 0
M  V30 3 C -1.0042 2.0437 -2.2148 0
M  V30 4 C -1.979 1.1573 0.4709 0
M  V30 5 C -4.3146 0.8252 -0.169 0
M  V30 6 C -0.183 2.0081 -1.071 0
M  V30 7 C -0.5359 2.6119 -3.4129 0
M  V30 8 N -0.6207 1.4157 0.1443 0
M  V30 9 C -2.3828 0.974 1.8093 0
M  V30 10 C -4.6777 0.6181 1.1588 0
M  V30 11 C 1.0851 2.6168 -1.168 0
M  V30 12 C 0.7337 3.1781 -3.4869 0
M  V30 13 C 0.3822 0.5645 0.8403 0
M  V30 14 C -3.7114 0.7019 2.1506 0
M  V30 15 C 1.5418 3.1889 -2.3595 0
M  V30 16 C 0.4911 -0.8296 0.1704 0
M  V30 17 N 1.508 -1.698 0.8184 0
M  V30 18 C 2.854 -1.3617 0.3118 0
M  V30 19 C 1.2006 -3.1214 0.5747 0
M  V30 20 C 3.9537 -1.8254 1.2623 0
M  V30 21 C 0.0866 -3.6267 1.4876 0
M  V30 22 H -5.0828 0.7728 -0.9377 0
M  V30 23 H -1.1684 2.6231 -4.2981 0
M  V30 24 H -1.671 1.0742 2.6237 0
M  V30 25 H -5.7122 0.4073 1.416 0
M  V30 26 H 1.7338 2.6919 -0.3002 0
M  V30 27 H 1.0805 3.6215 -4.4162 0
M  V30 28 H 0.1381 0.4252 1.8988 0
M  V30 29 H 1.3606 1.0508 0.8719 0
M  V30 30 H -3.9861 0.5661 3.1936 0
M  V30 31 H 2.5246 3.6517 -2.3971 0
M  V30 32 H -0.5007 -1.2902 0.2377 0
M  V30 33 H 0.6997 -0.7337 -0.9034 0
M  V30 34 H 3.0165 -1.7781 -0.6903 0
M  V30 35 H 2.9682 -0.2758 0.2172 0
M  V30 36 H 0.9412 -3.2973 -0.4769 0
M  V30 37 H 2.0747 -3.7465 0.7866 0
M  V30 38 H 4.9268 -1.472 0.9048 0
M  V30 39 H 4.0083 -2.915 1.3363 0
M  V30 40 H 3.8001 -1.419 2.2678 0
M  V30 41 H -0.0484 -4.7043 1.3468 0
M  V30 42 H -0.874 -3.1468 1.2806 0
M  V30 43 H 0.3356 -3.4566 2.5406 0
M  V30 END ATOM
M  V30 BEGIN BOND
M  V30 1 1 1 2
M  V30 2 1 1 3
M  V30 3 2 2 4
M  V30 4 1 2 5
M  V30 5 2 3 6
M  V30 6 1 3 7
M  V30 7 1 4 8
M  V30 8 1 4 9
M  V30 9 2 5 10
M  V30 10 1 6 11
M  V30 11 2 7 12
M  V30 12 1 8 13
M  V30 13 2 9 14
M  V30 14 2 11 15
M  V30 15 1 13 16
M  V30 16 1 16 17
M  V30 17 1 17 18
M  V30 18 1 17 19
M  V30 19 1 18 20
M  V30 20 1 19 21
M  V30 21 1 6 8
M  V30 22 1 10 14
M  V30 23 1 12 15
M  V30 24 1 5 22
M  V30 25 1 7 23
M  V30 26 1 9 24
M  V30 27 1 10 25
M  V30 28 1 11 26
M  V30 29 1 12 27
M  V30 30 1 13 28
M  V30 31 1 13 29
M  V30 32 1 14 30
M  V30 33 1 15 31
M  V30 34 1 16 32
M  V30 35 1 16 33
M  V30 36 1 18 34
M  V30 37 1 18 35
M  V30 38 1 19 36
M  V30 39 1 19 37
M  V30 40 1 20 38
M  V30 41 1 20 39
M  V30 42 1 20 40
M  V30 43 1 21 41
M  V30 44 1 21 42
M  V30 45 1 21 43
M  V30 END BOND
M  V30 END CTAB
M  END
>  <Column 1>
1434

>  <level_0>
1584

>  <index>
1584

>  <Unnamed: 0>
1584

>  <NO.>
1596

>  <Name>
diethazine

>  <IUPAC_name>
n-n-diethyl-2-phenothiazin-10-ylethanamine

>  <SMILES>
CCN(CC)CCN1c2ccccc2Sc2ccccc21

>  <CID>
65535

>  <logBB>


>  <BBB+/BBB->
BBB+

>  <Inchi>
InChI=1S/C18H22N2S/c1-3-19(4-2)13-14-20-15-9-5-7-11-17(15)21-18-12-8-6-10-16(18)20/h5-12H-3-4-13-14H2-1-2H3

>  <threshold>
-1

>  <reference>
R1|R13|R19|R6|R24|R27|R27|R27|R30|R30|

>  <group>
B

>  <Class>
1

>  <ABC>
16.1

>  <ABCGG>
13.02

>  <nAcid>
0

>  <nBase>
1

>  <nAromAtom>
12

>  <nAromBond>
12

>  <nAtom>
43

>  <nHeavyAtom>
21

>  <nSpiro>
0

>  <nBridgehead>
0

>  <nHetero>
3

>  <nN>
2

>  <nO>
0

>  <nF>
0

>  <BalabanJ>
1.68

>  <BertzCT>
562.17

>  <nBonds>
45

>  <nBondsO>
23

>  <nBondsS>
33

>  <nBondsD>
0

>  <nBondsT>
0

>  <nBondsA>
12

>  <nBondsM>
12

>  <nBondsKS>
39

>  <nBondsKD>
6

>  <RNCG>
0.27

>  <RPCG>
0.05

>  <FCSP3>
0.33

>  <SZ>
26.67

>  <Sm>
24.85

>  <Sv>
26.66

>  <Sse>
42.17

>  <Sp>
29.84

>  <Si>
48.07

>  <MZ>
0.62

>  <Mm>
0.58

>  <Mv>
0.62

>  <Mse>
0.98

>  <Mp>
0.69

>  <Mi>
1.12

>  <NsCH3>
2

>  <NdCH2>
0

>  <NssCH2>
4

>  <NtCH>
0

>  <NdsCH>
0

>  <NaaCH>
8

>  <NsssCH>
0

>  <NddC>
0

>  <NtsC>
0

>  <NdssC>
0

>  <NaasC>
4

>  <NaaaC>
0

>  <NssssC>
0

>  <NsNH3>
0

>  <NsNH2>
0

>  <NssNH2>
0

>  <NdNH>
0

>  <NssNH>
0

>  <NaaNH>
0

>  <NtN>
0

>  <NsssNH>
0

>  <NdsN>
0

>  <NaaN>
0

>  <NsssN>
2

>  <NddsN>
0

>  <NaasN>
0

>  <NssssN>
0

>  <NsOH>
0

>  <NdO>
0

>  <NssO>
0

>  <NaaO>
0

>  <NsF>
0

>  <NsSiH3>
0

>  <NssSiH2>
0

>  <NsssSiH>
0

>  <NssssSi>
0

>  <NsPH2>
0

>  <NssPH>
0

>  <NsssP>
0

>  <NdsssP>
0

>  <NsssssP>
0

>  <NsSH>
0

>  <NdS>
0

>  <NssS>
1

>  <NaaS>
0

>  <NdssS>
0

>  <NddssS>
0

>  <NsCl>
0

>  <NsBr>
0

>  <NsI>
0

>  <fragCpx>
109.03

>  <fMF>
0.33

>  <nHBAcc>
3

>  <nHBDon>
0

>  <Kier1>
15.88

>  <Kier2>
7.51

>  <Lipinski>
1

>  <GhoseFilter>
1

>  <FilterItLogS>
-4.86

>  <VMcGowan>
242.41

>  <LabuteASA>
131.32

>  <PEOE_VSA1>
9.8

>  <PEOE_VSA2>
0

>  <PEOE_VSA3>
0

>  <PEOE_VSA4>
0

>  <PEOE_VSA5>
0

>  <PEOE_VSA6>
49.87

>  <PEOE_VSA7>
37.35

>  <PEOE_VSA8>
22.88

>  <PEOE_VSA9>
11.37

>  <PEOE_VSA10>
0

>  <PEOE_VSA11>
0

>  <PEOE_VSA12>
0

>  <PEOE_VSA13>
0

>  <SMR_VSA1>
0

>  <SMR_VSA2>
0

>  <SMR_VSA3>
4.9

>  <SMR_VSA4>
0

>  <SMR_VSA5>
23.64

>  <SMR_VSA6>
31.08

>  <SMR_VSA7>
48.53

>  <SMR_VSA8>
0

>  <SMR_VSA9>
0

>  <SlogP_VSA1>
4.9

>  <SlogP_VSA2>
31.08

>  <SlogP_VSA3>
0

>  <SlogP_VSA4>
0

>  <SlogP_VSA5>
13.85

>  <SlogP_VSA6>
58.32

>  <SlogP_VSA7>
0

>  <SlogP_VSA8>
0

>  <SlogP_VSA9>
0

>  <SlogP_VSA10>
11.37

>  <SlogP_VSA11>
0

>  <EState_VSA1>
0

>  <EState_VSA2>
0

>  <EState_VSA3>
0

>  <EState_VSA4>
26.18

>  <EState_VSA5>
21.17

>  <EState_VSA6>
0

>  <EState_VSA7>
11.76

>  <EState_VSA8>
72.18

>  <EState_VSA9>
0

>  <EState_VSA10>
0

>  <VSA_EState1>
0

>  <VSA_EState2>
7.67

>  <VSA_EState3>
0

>  <VSA_EState4>
2.68

>  <VSA_EState5>
0

>  <VSA_EState6>
17.45

>  <VSA_EState7>
0

>  <VSA_EState8>
8.83

>  <VSA_EState9>
0

>  <apol>
49.83

>  <bpol>
27.95

>  <nRing>
3

>  <nHRing>
1

>  <naRing>
2

>  <naHRing>
0

>  <nARing 2>
1

>  <nAHRing 2>
1

>  <nFRing>
1

>  <nFHRing>
1

>  <nFaRing>
0

>  <nFaHRing>
0

>  <nFARing 2>
1

>  <nFAHRing 2>
1

>  <nRot>
5

>  <SLogP>
4.63

>  <SMR>
91.8

>  <TopoPSA(NO)>
6.48

>  <TopoPSA>
31.78

>  <JGI1>
0.13

>  <JGI2>
0.07

>  <JGI3>
0.04

>  <JGI4>
0.04

>  <JGI5>
0.02

>  <Diameter>
9

>  <Radius>
5

>  <TMWC10>
117.93

>  <TSRW10>
54.96

>  <MW>
298.15

>  <AMW>
6.93

>  <WPath>
894

>  <WPol>
34

>  <Zagreb1>
108

>  <Zagreb2>
128

>  <mZagreb2>
4.86

>  <yes>


>  <nAR-cont>
0.816016

>  <nHA-cont>
0.994529749

>  <MWHBN>
0.173741612

>  <MWHBN-cont>
0.979470502

>  <TPSA-cont>
0.778155866

>  <pka_cont>
0.97

>  <yes.1>


>  <BBB_SCORE>
5.321063235

>  <MMFF94 Energy>
92.196

$$$$
Compound 1206
Actelion Java MolfileCreator 2.0

  0  0  0  0  0  0              0 V3000
M  V30 BEGIN CTAB
M  V30 COUNTS 40 40 0 0 0
M  V30 BEGIN ATOM
M  V30 1 Cl -6.3142 -2.0487 -2.522 0
M  V30 2 C -4.7384 -1.3924 -2.3113 0
M  V30 3 C -4.011 -0.9658 -3.4206 0
M  V30 4 C -4.1955 -1.2893 -1.034 0
M  V30 5 C -2.7283 -0.4312 -3.254 0
M  V30 6 C -2.9154 -0.7554 -0.8703 0
M  V30 7 C -2.1757 -0.3251 -1.9764 0
M  V30 8 O -0.9415 0.1751 -1.6728 0
M  V30 9 C -0.1239 0.5995 -2.7604 0
M  V30 10 C 1.2313 1.1056 -2.2646 0
M  V30 11 O 2.0024 1.7273 -2.9919 0
M  V30 12 N 1.5202 0.7793 -0.9649 0
M  V30 13 C 2.7272 1.1929 -0.2815 0
M  V30 14 C 2.9517 0.361 0.9963 0
M  V30 15 N 1.7132 0.1758 1.7996 0
M  V30 16 C 1.3579 1.4277 2.4969 0
M  V30 17 C 1.8809 -0.9308 2.7622 0
M  V30 18 C -0.1137 1.456 2.9003 0
M  V30 19 C 1.7473 -2.2961 2.0935 0
M  V30 20 H -4.4351 -1.0451 -4.4182 0
M  V30 21 H -4.7577 -1.6195 -0.165 0
M  V30 22 H -2.1933 -0.1079 -4.1411 0
M  V30 23 H -2.4904 -0.6744 0.1277 0
M  V30 24 H -0.6043 1.4294 -3.2915 0
M  V30 25 H 0.0758 -0.2378 -3.4388 0
M  V30 26 H 0.7997 0.3322 -0.4004 0
M  V30 27 H 2.6268 2.2592 -0.0545 0
M  V30 28 H 3.5794 1.0823 -0.961 0
M  V30 29 H 3.3148 -0.6155 0.6571 0
M  V30 30 H 3.7562 0.8021 1.598 0
M  V30 31 H 1.998 1.5898 3.3732 0
M  V30 32 H 1.5068 2.291 1.8396 0
M  V30 33 H 2.8408 -0.8569 3.2885 0
M  V30 34 H 1.1028 -0.8929 3.5322 0
M  V30 35 H -0.3659 2.4373 3.3164 0
M  V30 36 H -0.3525 0.7076 3.6609 0
M  V30 37 H -0.7611 1.2852 2.0333 0
M  V30 38 H 1.7613 -3.0844 2.8536 0
M  V30 39 H 2.5643 -2.5006 1.3964 0
M  V30 40 H 0.8004 -2.375 1.5485 0
M  V30 END ATOM
M  V30 BEGIN BOND
M  V30 1 1 1 2
M  V30 2 2 2 3
M  V30 3 1 2 4
M  V30 4 1 3 5
M  V30 5 2 4 6
M  V30 6 2 5 7
M  V30 7 1 7 8
M  V30 8 1 8 9
M  V30 9 1 9 10
M  V30 10 2 10 11
M  V30 11 1 10 12
M  V30 12 1 12 13
M  V30 13 1 13 14
M  V30 14 1 14 15
M  V30 15 1 15 16
M  V30 16 1 15 17
M  V30 17 1 16 18
M  V30 18 1 17 19
M  V30 19 1 6 7
M  V30 20 1 3 20
M  V30 21 1 4 21
M  V30 22 1 5 22
M  V30 23 1 6 23
M  V30 24 1 9 24
M  V30 25 1 9 25
M  V30 26 1 12 26
M  V30 27 1 13 27
M  V30 28 1 13 28
M  V30 29 1 14 29
M  V30 30 1 14 30
M  V30 31 1 16 31
M  V30 32 1 16 32
M  V30 33 1 17 33
M  V30 34 1 17 34
M  V30 35 1 18 35
M  V30 36 1 18 36
M  V30 37 1 18 37
M  V30 38 1 19 38
M  V30 39 1 19 39
M  V30 40 1 19 40
M  V30 END BOND
M  V30 END CTAB
M  END
>  <Column 1>
1435

>  <level_0>
1585

>  <index>
1585

>  <Unnamed: 0>
1585

>  <NO.>
1597

>  <Name>
clofexamide

>  <IUPAC_name>
2-(4-chlorophenoxy)-n-[2-(diethylamino)ethyl]acetamide

>  <SMILES>
CCN(CC)CCNC(=O)COc1ccc(Cl)cc1

>  <CID>
28554

>  <logBB>


>  <BBB+/BBB->
BBB+

>  <Inchi>
InChI=1S/C14H21ClN2O2/c1-3-17(4-2)10-9-16-14(18)11-19-13-7-5-12(15)6-8-13/h5-8H-3-4-9-11H2-1-2H3-(H-16-18)

>  <threshold>
-1

>  <reference>
R1|R13|R19|R6|R24|R27|R27|R27|R30|R30|

>  <group>
B

>  <Class>
1

>  <ABC>
13.65

>  <ABCGG>
11.67

>  <nAcid>
0

>  <nBase>
1

>  <nAromAtom>
6

>  <nAromBond>
6

>  <nAtom>
40

>  <nHeavyAtom>
19

>  <nSpiro>
0

>  <nBridgehead>
0

>  <nHetero>
5

>  <nN>
2

>  <nO>
2

>  <nF>
0

>  <BalabanJ>
2.03

>  <BertzCT>
377.54

>  <nBonds>
40

>  <nBondsO>
19

>  <nBondsS>
33

>  <nBondsD>
1

>  <nBondsT>
0

>  <nBondsA>
6

>  <nBondsM>
7

>  <nBondsKS>
36

>  <nBondsKD>
4

>  <RNCG>
0.28

>  <RPCG>
0.15

>  <FCSP3>
0.5

>  <SZ>
25.33

>  <Sm>
23.71

>  <Sv>
23.73

>  <Sse>
40.08

>  <Sp>
25.97

>  <Si>
45.51

>  <MZ>
0.63

>  <Mm>
0.59

>  <Mv>
0.59

>  <Mse>
1

>  <Mp>
0.65

>  <Mi>
1.14

>  <NsCH3>
2

>  <NdCH2>
0

>  <NssCH2>
5

>  <NtCH>
0

>  <NdsCH>
0

>  <NaaCH>
4

>  <NsssCH>
0

>  <NddC>
0

>  <NtsC>
0

>  <NdssC>
1

>  <NaasC>
2

>  <NaaaC>
0

>  <NssssC>
0

>  <NsNH3>
0

>  <NsNH2>
0

>  <NssNH2>
0

>  <NdNH>
0

>  <NssNH>
1

>  <NaaNH>
0

>  <NtN>
0

>  <NsssNH>
0

>  <NdsN>
0

>  <NaaN>
0

>  <NsssN>
1

>  <NddsN>
0

>  <NaasN>
0

>  <NssssN>
0

>  <NsOH>
0

>  <NdO>
1

>  <NssO>
1

>  <NaaO>
0

>  <NsF>
0

>  <NsSiH3>
0

>  <NssSiH2>
0

>  <NsssSiH>
0

>  <NssssSi>
0

>  <NsPH2>
0

>  <NssPH>
0

>  <NsssP>
0

>  <NdsssP>
0

>  <NsssssP>
0

>  <NsSH>
0

>  <NdS>
0

>  <NssS>
0

>  <NaaS>
0

>  <NdssS>
0

>  <NddssS>
0

>  <NsCl>
1

>  <NsBr>
0

>  <NsI>
0

>  <fragCpx>
19.05

>  <fMF>
0.15

>  <nHBAcc>
3

>  <nHBDon>
1

>  <Kier1>
17.05

>  <Kier2>
9.83

>  <Lipinski>
1

>  <GhoseFilter>
1

>  <FilterItLogS>
-4.28

>  <VMcGowan>
224

>  <LabuteASA>
119.24

>  <PEOE_VSA1>
14.95

>  <PEOE_VSA2>
4.79

>  <PEOE_VSA3>
0

>  <PEOE_VSA4>
0

>  <PEOE_VSA5>
0

>  <PEOE_VSA6>
25.45

>  <PEOE_VSA7>
37.35

>  <PEOE_VSA8>
18.11

>  <PEOE_VSA9>
0

>  <PEOE_VSA10>
5.75

>  <PEOE_VSA11>
6.61

>  <PEOE_VSA12>
0

>  <PEOE_VSA13>
5.91

>  <SMR_VSA1>
9.53

>  <SMR_VSA2>
0

>  <SMR_VSA3>
10.22

>  <SMR_VSA4>
0

>  <SMR_VSA5>
13.85

>  <SMR_VSA6>
32.79

>  <SMR_VSA7>
29.29

>  <SMR_VSA8>
0

>  <SMR_VSA9>
5.75

>  <SlogP_VSA1>
10.05

>  <SlogP_VSA2>
43.59

>  <SlogP_VSA3>
4.79

>  <SlogP_VSA4>
0

>  <SlogP_VSA5>
13.85

>  <SlogP_VSA6>
24.27

>  <SlogP_VSA7>
5.02

>  <SlogP_VSA8>
0

>  <SlogP_VSA9>
0

>  <SlogP_VSA10>
0

>  <SlogP_VSA11>
5.75

>  <EState_VSA1>
0

>  <EState_VSA2>
12.51

>  <EState_VSA3>
17.32

>  <EState_VSA4>
19.63

>  <EState_VSA5>
0

>  <EState_VSA6>
24.27

>  <EState_VSA7>
0

>  <EState_VSA8>
24.06

>  <EState_VSA9>
16.34

>  <EState_VSA10>
4.79

>  <VSA_EState1>
5.35

>  <VSA_EState2>
13.81

>  <VSA_EState3>
3.48

>  <VSA_EState4>
0

>  <VSA_EState5>
0.53

>  <VSA_EState6>
6.95

>  <VSA_EState7>
0

>  <VSA_EState8>
7.73

>  <VSA_EState9>
0

>  <apol>
43.37

>  <bpol>
26.46

>  <nRing>
1

>  <nHRing>
0

>  <naRing>
1

>  <naHRing>
0

>  <nARing 2>
0

>  <nAHRing 2>
0

>  <nFRing>
0

>  <nFHRing>
0

>  <nFaRing>
0

>  <nFaHRing>
0

>  <nFARing 2>
0

>  <nFAHRing 2>
0

>  <nRot>
8

>  <SLogP>
2.18

>  <SMR>
77.74

>  <TopoPSA(NO)>
41.57

>  <TopoPSA>
41.57

>  <JGI1>
0.21

>  <JGI2>
0.08

>  <JGI3>
0.03

>  <JGI4>
0.03

>  <JGI5>
0.03

>  <Diameter>
13

>  <Radius>
7

>  <TMWC10>
105.92

>  <TSRW10>
50.74

>  <MW>
284.13

>  <AMW>
7.1

>  <WPath>
902

>  <WPol>
22

>  <Zagreb1>
84

>  <Zagreb2>
90

>  <mZagreb2>
4.58

>  <yes>


>  <nAR-cont>
0.336376

>  <nHA-cont>
0.998649058

>  <MWHBN>
0.237302026

>  <MWHBN-cont>
0.978496179

>  <TPSA-cont>
0.709815587

>  <pka_cont>
0.97

>  <yes.1>


>  <BBB_SCORE>
4.707400499

>  <MMFF94 Energy>
38.746

$$$$
Compound 1207
Actelion Java MolfileCreator 2.0

  0  0  0  0  0  0              0 V3000
M  V30 BEGIN CTAB
M  V30 COUNTS 44 44 0 0 0
M  V30 BEGIN ATOM
M  V30 1 O -1.4003 0.5444 -3.8157 0
M  V30 2 C -0.6469 0.5134 -2.8454 0
M  V30 3 N 0.0772 -0.5961 -2.4831 0
M  V30 4 C -0.404 1.7397 -1.9655 0
M  V30 5 C -0.0702 -1.8899 -3.1199 0
M  V30 6 O 0.1188 1.3536 -0.6971 0
M  V30 7 C -0.9932 -2.8046 -2.2925 0
M  V30 8 C 0.3419 2.3487 0.2114 0
M  V30 9 N -0.4978 -2.9764 -0.9012 0
M  V30 10 C 0.7836 1.9086 1.4612 0
M  V30 11 C 0.174 3.7142 -0.0065 0
M  V30 12 C 0.5279 -4.0341 -0.8515 0
M  V30 13 C -1.613 -3.2688 0.0169 0
M  V30 14 C 1.0548 2.8185 2.4892 0
M  V30 15 C 0.4457 4.6237 1.0218 0
M  V30 16 C 1.418 -3.9071 0.3809 0
M  V30 17 C -2.3781 -2.0011 0.3884 0
M  V30 18 C 0.8859 4.1843 2.2723 0
M  V30 19 O 1.1125 5.1796 3.1817 0
M  V30 20 C 1.5577 4.781 4.4721 0
M  V30 21 H 0.5665 -0.5664 -1.5931 0
M  V30 22 H 0.3097 2.3804 -2.4955 0
M  V30 23 H -1.3686 2.2453 -1.8399 0
M  V30 24 H 0.9319 -2.3165 -3.2206 0
M  V30 25 H -0.485 -1.7634 -4.1254 0
M  V30 26 H -1.984 -2.3354 -2.2931 0
M  V30 27 H -1.1132 -3.7751 -2.7902 0
M  V30 28 H 0.9161 0.8439 1.6399 0
M  V30 29 H -0.1634 4.1105 -0.958 0
M  V30 30 H 0.0721 -5.0313 -0.8917 0
M  V30 31 H 1.1929 -3.9606 -1.7197 0
M  V30 32 H -2.2936 -4.0167 -0.4088 0
M  V30 33 H -1.2418 -3.6888 0.9579 0
M  V30 34 H 1.394 2.4252 3.4412 0
M  V30 35 H 0.3122 5.6886 0.8451 0
M  V30 36 H 2.2276 -4.6428 0.3318 0
M  V30 37 H 0.8701 -4.0847 1.3104 0
M  V30 38 H 1.8737 -2.9125 0.4346 0
M  V30 39 H -3.1429 -2.2343 1.1367 0
M  V30 40 H -2.885 -1.5524 -0.4703 0
M  V30 41 H -1.7067 -1.2507 0.8199 0
M  V30 42 H 0.8116 4.1538 4.971 0
M  V30 43 H 1.6886 5.6851 5.0745 0
M  V30 44 H 2.527 4.275 4.4163 0
M  V30 END ATOM
M  V30 BEGIN BOND
M  V30 1 2 1 2
M  V30 2 1 2 3
M  V30 3 1 2 4
M  V30 4 1 3 5
M  V30 5 1 4 6
M  V30 6 1 5 7
M  V30 7 1 6 8
M  V30 8 1 7 9
M  V30 9 2 8 10
M  V30 10 1 8 11
M  V30 11 1 9 12
M  V30 12 1 9 13
M  V30 13 1 10 14
M  V30 14 2 11 15
M  V30 15 1 12 16
M  V30 16 1 13 17
M  V30 17 2 14 18
M  V30 18 1 18 19
M  V30 19 1 19 20
M  V30 20 1 15 18
M  V30 21 1 3 21
M  V30 22 1 4 22
M  V30 23 1 4 23
M  V30 24 1 5 24
M  V30 25 1 5 25
M  V30 26 1 7 26
M  V30 27 1 7 27
M  V30 28 1 10 28
M  V30 29 1 11 29
M  V30 30 1 12 30
M  V30 31 1 12 31
M  V30 32 1 13 32
M  V30 33 1 13 33
M  V30 34 1 14 34
M  V30 35 1 15 35
M  V30 36 1 16 36
M  V30 37 1 16 37
M  V30 38 1 16 38
M  V30 39 1 17 39
M  V30 40 1 17 40
M  V30 41 1 17 41
M  V30 42 1 20 42
M  V30 43 1 20 43
M  V30 44 1 20 44
M  V30 END BOND
M  V30 END CTAB
M  END
>  <Column 1>
1436

>  <level_0>
1586

>  <index>
1586

>  <Unnamed: 0>
1586

>  <NO.>
1598

>  <Name>
akos026749852

>  <IUPAC_name>
n-[2-(diethylamino)ethyl]-2-(4-methoxyphenoxy)acetamide;hydron;chloride

>  <SMILES>
CCN(CC)CCNC(=O)COc1ccc(OC)cc1

>  <CID>
4045

>  <logBB>


>  <BBB+/BBB->
BBB+

>  <Inchi>
InChI=1S/C15H24N2O3/c1-4-17(5-2)11-10-16-15(18)12-20-14-8-6-13(19-3)7-9-14/h6-9H-4-5-10-12H2-1-3H3-(H-16-18)

>  <threshold>
-1

>  <reference>
R1|R13|R19|R6|R24|R27|R27|R27|R30|R30|

>  <group>
B

>  <Class>
1

>  <ABC>
14.25

>  <ABCGG>
12.07

>  <nAcid>
0

>  <nBase>
1

>  <nAromAtom>
6

>  <nAromBond>
6

>  <nAtom>
44

>  <nHeavyAtom>
20

>  <nSpiro>
0

>  <nBridgehead>
0

>  <nHetero>
5

>  <nN>
2

>  <nO>
3

>  <nF>
0

>  <BalabanJ>
2.04

>  <BertzCT>
388.61

>  <nBonds>
44

>  <nBondsO>
20

>  <nBondsS>
37

>  <nBondsD>
1

>  <nBondsT>
0

>  <nBondsA>
6

>  <nBondsM>
7

>  <nBondsKS>
40

>  <nBondsKD>
4

>  <RNCG>
0.24

>  <RPCG>
0.12

>  <FCSP3>
0.53

>  <SZ>
25.33

>  <Sm>
23.34

>  <Sv>
25.16

>  <Sse>
43.97

>  <Sp>
27.34

>  <Si>
50.19

>  <MZ>
0.58

>  <Mm>
0.53

>  <Mv>
0.57

>  <Mse>
1

>  <Mp>
0.62

>  <Mi>
1.14

>  <NsCH3>
3

>  <NdCH2>
0

>  <NssCH2>
5

>  <NtCH>
0

>  <NdsCH>
0

>  <NaaCH>
4

>  <NsssCH>
0

>  <NddC>
0

>  <NtsC>
0

>  <NdssC>
1

>  <NaasC>
2

>  <NaaaC>
0

>  <NssssC>
0

>  <NsNH3>
0

>  <NsNH2>
0

>  <NssNH2>
0

>  <NdNH>
0

>  <NssNH>
1

>  <NaaNH>
0

>  <NtN>
0

>  <NsssNH>
0

>  <NdsN>
0

>  <NaaN>
0

>  <NsssN>
1

>  <NddsN>
0

>  <NaasN>
0

>  <NssssN>
0

>  <NsOH>
0

>  <NdO>
1

>  <NssO>
2

>  <NaaO>
0

>  <NsF>
0

>  <NsSiH3>
0

>  <NssSiH2>
0

>  <NsssSiH>
0

>  <NssssSi>
0

>  <NsPH2>
0

>  <NssPH>
0

>  <NsssP>
0

>  <NdsssP>
0

>  <NsssssP>
0

>  <NsSH>
0

>  <NdS>
0

>  <NssS>
0

>  <NaaS>
0

>  <NdssS>
0

>  <NddssS>
0

>  <NsCl>
0

>  <NsBr>
0

>  <NsI>
0

>  <fragCpx>
20.05

>  <fMF>
0.14

>  <nHBAcc>
4

>  <nHBDon>
1

>  <Kier1>
18.05

>  <Kier2>
10.69

>  <Lipinski>
1

>  <GhoseFilter>
1

>  <FilterItLogS>
-3.79

>  <VMcGowan>
231.72

>  <LabuteASA>
120.41

>  <PEOE_VSA1>
19.69

>  <PEOE_VSA2>
4.79

>  <PEOE_VSA3>
0

>  <PEOE_VSA4>
0

>  <PEOE_VSA5>
0

>  <PEOE_VSA6>
13.85

>  <PEOE_VSA7>
37.35

>  <PEOE_VSA8>
13.09

>  <PEOE_VSA9>
7.11

>  <PEOE_VSA10>
11.5

>  <PEOE_VSA11>
6.61

>  <PEOE_VSA12>
0

>  <PEOE_VSA13>
5.91

>  <SMR_VSA1>
14.27

>  <SMR_VSA2>
0

>  <SMR_VSA3>
10.22

>  <SMR_VSA4>
0

>  <SMR_VSA5>
13.85

>  <SMR_VSA6>
39.9

>  <SMR_VSA7>
24.27

>  <SMR_VSA8>
0

>  <SMR_VSA9>
11.5

>  <SlogP_VSA1>
14.79

>  <SlogP_VSA2>
50.7

>  <SlogP_VSA3>
4.79

>  <SlogP_VSA4>
0

>  <SlogP_VSA5>
13.85

>  <SlogP_VSA6>
24.27

>  <SlogP_VSA7>
0

>  <SlogP_VSA8>
0

>  <SlogP_VSA9>
0

>  <SlogP_VSA10>
0

>  <SlogP_VSA11>
11.5

>  <EState_VSA1>
0

>  <EState_VSA2>
12.51

>  <EState_VSA3>
12.29

>  <EState_VSA4>
25.38

>  <EState_VSA5>
0

>  <EState_VSA6>
31.38

>  <EState_VSA7>
0

>  <EState_VSA8>
24.06

>  <EState_VSA9>
9.47

>  <EState_VSA10>
4.79

>  <VSA_EState1>
10.45

>  <VSA_EState2>
13.87

>  <VSA_EState3>
2.84

>  <VSA_EState4>
0

>  <VSA_EState5>
1.32

>  <VSA_EState6>
7.16

>  <VSA_EState7>
0

>  <VSA_EState8>
7.75

>  <VSA_EState9>
1.61

>  <apol>
45.66

>  <bpol>
30.7

>  <nRing>
1

>  <nHRing>
0

>  <naRing>
1

>  <naHRing>
0

>  <nARing 2>
0

>  <nAHRing 2>
0

>  <nFRing>
0

>  <nFHRing>
0

>  <nFaRing>
0

>  <nFaHRing>
0

>  <nFARing 2>
0

>  <nFAHRing 2>
0

>  <nRot>
9

>  <SLogP>
1.53

>  <SMR>
79.29

>  <TopoPSA(NO)>
50.8

>  <TopoPSA>
50.8

>  <JGI1>
0.2

>  <JGI2>
0.07

>  <JGI3>
0.03

>  <JGI4>
0.03

>  <JGI5>
0.03

>  <Diameter>
14

>  <Radius>
7

>  <TMWC10>
108.51

>  <TSRW10>
52

>  <MW>
280.18

>  <AMW>
6.37

>  <WPath>
1050

>  <WPol>
24

>  <Zagreb1>
88

>  <Zagreb2>
95

>  <mZagreb2>
4.92

>  <yes>


>  <nAR-cont>
0.336376

>  <nHA-cont>
0.999629945

>  <MWHBN>
0.298711153

>  <MWHBN-cont>
0.844572324

>  <TPSA-cont>
0.645384455

>  <pka_cont>
0.97

>  <yes.1>


>  <BBB_SCORE>
4.378633341

>  <MMFF94 Energy>
44.425

$$$$
Compound 1208
Actelion Java MolfileCreator 2.0

  0  0  0  0  0  0              0 V3000
M  V30 BEGIN CTAB
M  V30 COUNTS 42 42 0 0 0
M  V30 BEGIN ATOM
M  V30 1 Br -6.4747 -1.0243 0.5514 0
M  V30 2 C -4.9044 -0.7019 -0.4704 0
M  V30 3 C -4.8975 -0.8822 -1.8589 0
M  V30 4 C -3.7589 -0.2735 0.2004 0
M  V30 5 N -6.0111 -1.3365 -2.5519 0
M  V30 6 C -3.7035 -0.6464 -2.5535 0
M  V30 7 C -2.5663 -0.0227 -0.5003 0
M  V30 8 C -2.5363 -0.2158 -1.8973 0
M  V30 9 C -1.403 0.4352 0.3328 0
M  V30 10 O -1.3543 0.0269 -2.5531 0
M  V30 11 O -1.5163 0.5283 1.5524 0
M  V30 12 N -0.2293 0.7371 -0.3141 0
M  V30 13 C -1.3062 -0.1958 -3.9586 0
M  V30 14 C 0.9524 1.2018 0.3883 0
M  V30 15 C 1.6958 0.055 1.1022 0
M  V30 16 N 3.0017 0.4721 1.6701 0
M  V30 17 C 3.8481 -0.7094 1.9321 0
M  V30 18 C 2.7879 1.2416 2.9139 0
M  V30 19 C 4.4826 -1.2564 0.6562 0
M  V30 20 C 4.0057 2.083 3.287 0
M  V30 21 H -3.7907 -0.1331 1.2799 0
M  V30 22 H -6.881 -1.4667 -2.0468 0
M  V30 23 H -6.0272 -1.3879 -3.5601 0
M  V30 24 H -3.7113 -0.8097 -3.6262 0
M  V30 25 H -0.1921 0.632 -1.3226 0
M  V30 26 H -1.5048 -1.2453 -4.1989 0
M  V30 27 H -0.2916 0.0357 -4.2967 0
M  V30 28 H -1.993 0.4731 -4.4872 0
M  V30 29 H 0.6395 1.9781 1.0934 0
M  V30 30 H 1.6027 1.6649 -0.3619 0
M  V30 31 H 1.061 -0.3942 1.8774 0
M  V30 32 H 1.8448 -0.7278 0.3496 0
M  V30 33 H 4.6802 -0.4479 2.5945 0
M  V30 34 H 3.2818 -1.4984 2.4431 0
M  V30 35 H 1.96 1.9481 2.7923 0
M  V30 36 H 2.513 0.5815 3.7465 0
M  V30 37 H 5.1867 -2.0572 0.9062 0
M  V30 38 H 5.0402 -0.4748 0.1291 0
M  V30 39 H 3.7432 -1.6755 -0.0316 0
M  V30 40 H 3.7673 2.7204 4.1453 0
M  V30 41 H 4.3 2.7361 2.4585 0
M  V30 42 H 4.8672 1.4701 3.5657 0
M  V30 END ATOM
M  V30 BEGIN BOND
M  V30 1 1 1 2
M  V30 2 2 2 3
M  V30 3 1 2 4
M  V30 4 1 3 5
M  V30 5 1 3 6
M  V30 6 2 4 7
M  V30 7 2 6 8
M  V30 8 1 7 9
M  V30 9 1 8 10
M  V30 10 2 9 11
M  V30 11 1 9 12
M  V30 12 1 10 13
M  V30 13 1 12 14
M  V30 14 1 14 15
M  V30 15 1 15 16
M  V30 16 1 16 17
M  V30 17 1 16 18
M  V30 18 1 17 19
M  V30 19 1 18 20
M  V30 20 1 7 8
M  V30 21 1 4 21
M  V30 22 1 5 22
M  V30 23 1 5 23
M  V30 24 1 6 24
M  V30 25 1 12 25
M  V30 26 1 13 26
M  V30 27 1 13 27
M  V30 28 1 13 28
M  V30 29 1 14 29
M  V30 30 1 14 30
M  V30 31 1 15 31
M  V30 32 1 15 32
M  V30 33 1 17 33
M  V30 34 1 17 34
M  V30 35 1 18 35
M  V30 36 1 18 36
M  V30 37 1 19 37
M  V30 38 1 19 38
M  V30 39 1 19 39
M  V30 40 1 20 40
M  V30 41 1 20 41
M  V30 42 1 20 42
M  V30 END BOND
M  V30 END CTAB
M  END
>  <Column 1>
1437

>  <level_0>
1587

>  <index>
1587

>  <Unnamed: 0>
1587

>  <NO.>
1599

>  <Name>
bromopride

>  <IUPAC_name>
4-amino-5-bromo-n-[2-(diethylamino)ethyl]-2-methoxybenzamide

>  <SMILES>
CCN(CC)CCNC(=O)c1cc(Br)c(N)cc1OC

>  <CID>
2446

>  <logBB>


>  <BBB+/BBB->
BBB+

>  <Inchi>
InChI=1S/C14H22BrN3O2/c1-4-18(5-2)7-6-17-14(19)10-8-11(15)12(16)9-13(10)20-3/h8-9H-4-7-16H2-1-3H3-(H-17-19)

>  <threshold>
-1

>  <reference>
R1|R13|R19|R6|R24|R27|R27|R27|R30|R30|

>  <group>
B

>  <Class>
1

>  <ABC>
14.35

>  <ABCGG>
13.1

>  <nAcid>
0

>  <nBase>
1

>  <nAromAtom>
6

>  <nAromBond>
6

>  <nAtom>
42

>  <nHeavyAtom>
20

>  <nSpiro>
0

>  <nBridgehead>
0

>  <nHetero>
6

>  <nN>
3

>  <nO>
2

>  <nF>
0

>  <BalabanJ>
2.42

>  <BertzCT>
461.98

>  <nBonds>
42

>  <nBondsO>
20

>  <nBondsS>
35

>  <nBondsD>
1

>  <nBondsT>
0

>  <nBondsA>
6

>  <nBondsM>
7

>  <nBondsKS>
38

>  <nBondsKD>
4

>  <RNCG>
0.25

>  <RPCG>
0.13

>  <FCSP3>
0.5

>  <SZ>
29.67

>  <Sm>
28.66

>  <Sv>
24.95

>  <Sse>
42.09

>  <Sp>
27.55

>  <Si>
47.91

>  <MZ>
0.71

>  <Mm>
0.68

>  <Mv>
0.59

>  <Mse>
1

>  <Mp>
0.66

>  <Mi>
1.14

>  <NsCH3>
3

>  <NdCH2>
0

>  <NssCH2>
4

>  <NtCH>
0

>  <NdsCH>
0

>  <NaaCH>
2

>  <NsssCH>
0

>  <NddC>
0

>  <NtsC>
0

>  <NdssC>
1

>  <NaasC>
4

>  <NaaaC>
0

>  <NssssC>
0

>  <NsNH3>
0

>  <NsNH2>
1

>  <NssNH2>
0

>  <NdNH>
0

>  <NssNH>
1

>  <NaaNH>
0

>  <NtN>
0

>  <NsssNH>
0

>  <NdsN>
0

>  <NaaN>
0

>  <NsssN>
1

>  <NddsN>
0

>  <NaasN>
0

>  <NssssN>
0

>  <NsOH>
0

>  <NdO>
1

>  <NssO>
1

>  <NaaO>
0

>  <NsF>
0

>  <NsSiH3>
0

>  <NssSiH2>
0

>  <NsssSiH>
0

>  <NssssSi>
0

>  <NsPH2>
0

>  <NssPH>
0

>  <NsssP>
0

>  <NdsssP>
0

>  <NsssssP>
0

>  <NsSH>
0

>  <NdS>
0

>  <NssS>
0

>  <NaaS>
0

>  <NdssS>
0

>  <NddssS>
0

>  <NsCl>
0

>  <NsBr>
1

>  <NsI>
0

>  <fragCpx>
20.06

>  <fMF>
0.14

>  <nHBAcc>
4

>  <nHBDon>
2

>  <Kier1>
18.05

>  <Kier2>
9.11

>  <Lipinski>
1

>  <GhoseFilter>
1

>  <FilterItLogS>
-4.41

>  <VMcGowan>
239.24

>  <LabuteASA>
128.14

>  <PEOE_VSA1>
20.69

>  <PEOE_VSA2>
4.79

>  <PEOE_VSA3>
0

>  <PEOE_VSA4>
0

>  <PEOE_VSA5>
0

>  <PEOE_VSA6>
13.85

>  <PEOE_VSA7>
35.09

>  <PEOE_VSA8>
29.32

>  <PEOE_VSA9>
12.67

>  <PEOE_VSA10>
5.75

>  <PEOE_VSA11>
0

>  <PEOE_VSA12>
0

>  <PEOE_VSA13>
5.91

>  <SMR_VSA1>
9.53

>  <SMR_VSA2>
0

>  <SMR_VSA3>
10.22

>  <SMR_VSA4>
0

>  <SMR_VSA5>
13.85

>  <SMR_VSA6>
39.02

>  <SMR_VSA7>
22.17

>  <SMR_VSA8>
0

>  <SMR_VSA9>
5.75

>  <SlogP_VSA1>
15.79

>  <SlogP_VSA2>
44.1

>  <SlogP_VSA3>
0

>  <SlogP_VSA4>
0

>  <SlogP_VSA5>
24.21

>  <SlogP_VSA6>
16.61

>  <SlogP_VSA7>
0

>  <SlogP_VSA8>
0

>  <SlogP_VSA9>
0

>  <SlogP_VSA10>
5.69

>  <SlogP_VSA11>
5.75

>  <EState_VSA1>
0

>  <EState_VSA2>
5.91

>  <EState_VSA3>
28.02

>  <EState_VSA4>
19.63

>  <EState_VSA5>
7.11

>  <EState_VSA6>
12.13

>  <EState_VSA7>
0

>  <EState_VSA8>
39.99

>  <EState_VSA9>
10.47

>  <EState_VSA10>
4.79

>  <VSA_EState1>
5.89

>  <VSA_EState2>
14.42

>  <VSA_EState3>
2.9

>  <VSA_EState4>
6.8

>  <VSA_EState5>
0.32

>  <VSA_EState6>
3.32

>  <VSA_EState7>
0

>  <VSA_EState8>
7.59

>  <VSA_EState9>
1.52

>  <apol>
46

>  <bpol>
27.76

>  <nRing>
1

>  <nHRing>
0

>  <naRing>
1

>  <naHRing>
0

>  <nARing 2>
0

>  <nAHRing 2>
0

>  <nFRing>
0

>  <nFHRing>
0

>  <nFaRing>
0

>  <nFaHRing>
0

>  <nFARing 2>
0

>  <nFAHRing 2>
0

>  <nRot>
7

>  <SLogP>
2.11

>  <SMR>
85.23

>  <TopoPSA(NO)>
67.59

>  <TopoPSA>
67.59

>  <JGI1>
0.23

>  <JGI2>
0.1

>  <JGI3>
0.05

>  <JGI4>
0.05

>  <JGI5>
0.03

>  <Diameter>
11

>  <Radius>
6

>  <TMWC10>
110.85

>  <TSRW10>
52.76

>  <MW>
343.09

>  <AMW>
8.17

>  <WPath>
902

>  <WPol>
29

>  <Zagreb1>
92

>  <Zagreb2>
104

>  <mZagreb2>
4.83

>  <yes>


>  <nAR-cont>
0.336376

>  <nHA-cont>
0.999629945

>  <MWHBN>
0.323927053

>  <MWHBN-cont>
0.7638664

>  <TPSA-cont>
0.528179829

>  <pka_cont>
0.97

>  <yes.1>


>  <BBB_SCORE>
4.023165203

>  <MMFF94 Energy>
42.372

$$$$
Compound 1209
Actelion Java MolfileCreator 2.0

  0  0  0  0  0  0              0 V3000
M  V30 BEGIN CTAB
M  V30 COUNTS 40 40 0 0 0
M  V30 BEGIN ATOM
M  V30 1 Cl -5.9118 1.3557 -1.3557 0
M  V30 2 C -4.2615 0.8944 -1.5814 0
M  V30 3 C -3.2176 1.5742 -0.9363 0
M  V30 4 C -3.9932 -0.189 -2.4199 0
M  V30 5 O -3.5173 2.6499 -0.1402 0
M  V30 6 C -1.8922 1.1761 -1.1687 0
M  V30 7 C -2.6757 -0.5838 -2.6314 0
M  V30 8 C -3.5309 2.2828 1.2391 0
M  V30 9 C -0.7496 1.9018 -0.5608 0
M  V30 10 C -1.6239 0.092 -2.0179 0
M  V30 11 Cl -2.3401 -1.9137 -3.6698 0
M  V30 12 O -0.6926 3.1235 -0.5783 0
M  V30 13 N 0.2126 1.1016 0.0075 0
M  V30 14 C 1.4264 1.6417 0.5915 0
M  V30 15 C 2.0623 0.6315 1.5652 0
M  V30 16 N 2.1539 -0.7377 0.9935 0
M  V30 17 C 2.3809 -1.7064 2.0851 0
M  V30 18 C 3.2105 -0.8119 -0.0352 0
M  V30 19 C 2.2738 -3.161 1.6399 0
M  V30 20 C 2.6653 -1.4517 -1.3058 0
M  V30 21 H -4.8078 -0.7154 -2.9109 0
M  V30 22 H -4.2167 1.4486 1.4245 0
M  V30 23 H -3.8853 3.1455 1.8112 0
M  V30 24 H -2.5271 2.0311 1.5952 0
M  V30 25 H -0.5986 -0.2051 -2.2239 0
M  V30 26 H 0.1455 0.0893 0.0013 0
M  V30 27 H 1.1925 2.5748 1.116 0
M  V30 28 H 2.1028 1.8853 -0.234 0
M  V30 29 H 3.0408 0.9915 1.9068 0
M  V30 30 H 1.4078 0.6023 2.4468 0
M  V30 31 H 3.3527 -1.536 2.5659 0
M  V30 32 H 1.6144 -1.5612 2.8571 0
M  V30 33 H 3.59 0.1813 -0.3035 0
M  V30 34 H 4.0887 -1.3673 0.3163 0
M  V30 35 H 2.3285 -3.8216 2.5118 0
M  V30 36 H 3.0866 -3.4433 0.9644 0
M  V30 37 H 1.3194 -3.3502 1.1374 0
M  V30 38 H 3.4535 -1.5077 -2.0636 0
M  V30 39 H 1.8439 -0.8606 -1.7235 0
M  V30 40 H 2.2994 -2.4673 -1.1299 0
M  V30 END ATOM
M  V30 BEGIN BOND
M  V30 1 1 1 2
M  V30 2 2 2 3
M  V30 3 1 2 4
M  V30 4 1 3 5
M  V30 5 1 3 6
M  V30 6 2 4 7
M  V30 7 1 5 8
M  V30 8 1 6 9
M  V30 9 2 6 10
M  V30 10 1 7 11
M  V30 11 2 9 12
M  V30 12 1 9 13
M  V30 13 1 13 14
M  V30 14 1 14 15
M  V30 15 1 15 16
M  V30 16 1 16 17
M  V30 17 1 16 18
M  V30 18 1 17 19
M  V30 19 1 18 20
M  V30 20 1 7 10
M  V30 21 1 4 21
M  V30 22 1 8 22
M  V30 23 1 8 23
M  V30 24 1 8 24
M  V30 25 1 10 25
M  V30 26 1 13 26
M  V30 27 1 14 27
M  V30 28 1 14 28
M  V30 29 1 15 29
M  V30 30 1 15 30
M  V30 31 1 17 31
M  V30 32 1 17 32
M  V30 33 1 18 33
M  V30 34 1 18 34
M  V30 35 1 19 35
M  V30 36 1 19 36
M  V30 37 1 19 37
M  V30 38 1 20 38
M  V30 39 1 20 39
M  V30 40 1 20 40
M  V30 END BOND
M  V30 END CTAB
M  END
>  <Column 1>
1438

>  <level_0>
1588

>  <index>
1588

>  <Unnamed: 0>
1588

>  <NO.>
1600

>  <Name>
diclometide

>  <IUPAC_name>
3-5-dichloro-n-[2-(diethylamino)ethyl]-2-methoxybenzamide

>  <SMILES>
CCN(CC)CCNC(=O)c1cc(Cl)cc(Cl)c1OC

>  <CID>
208832

>  <logBB>


>  <BBB+/BBB->
BBB+

>  <Inchi>
InChI=1S/C14H20Cl2N2O2/c1-4-18(5-2)7-6-17-14(19)11-8-10(15)9-12(16)13(11)20-3/h8-9H-4-7H2-1-3H3-(H-17-19)

>  <threshold>
-1

>  <reference>
R1|R13|R19|R6|R24|R27|R27|R27|R30|R30|

>  <group>
B

>  <Class>
1

>  <ABC>
14.35

>  <ABCGG>
13.18

>  <nAcid>
0

>  <nBase>
1

>  <nAromAtom>
6

>  <nAromBond>
6

>  <nAtom>
40

>  <nHeavyAtom>
20

>  <nSpiro>
0

>  <nBridgehead>
0

>  <nHetero>
6

>  <nN>
2

>  <nO>
2

>  <nF>
0

>  <BalabanJ>
2.45

>  <BertzCT>
462.73

>  <nBonds>
40

>  <nBondsO>
20

>  <nBondsS>
33

>  <nBondsD>
1

>  <nBondsT>
0

>  <nBondsA>
6

>  <nBondsM>
7

>  <nBondsKS>
36

>  <nBondsKD>
4

>  <RNCG>
0.28

>  <RPCG>
0.15

>  <FCSP3>
0.5

>  <SZ>
28

>  <Sm>
26.58

>  <Sv>
24.55

>  <Sse>
40.4

>  <Sp>
26.87

>  <Si>
45.46

>  <MZ>
0.7

>  <Mm>
0.66

>  <Mv>
0.61

>  <Mse>
1.01

>  <Mp>
0.67

>  <Mi>
1.14

>  <NsCH3>
3

>  <NdCH2>
0

>  <NssCH2>
4

>  <NtCH>
0

>  <NdsCH>
0

>  <NaaCH>
2

>  <NsssCH>
0

>  <NddC>
0

>  <NtsC>
0

>  <NdssC>
1

>  <NaasC>
4

>  <NaaaC>
0

>  <NssssC>
0

>  <NsNH3>
0

>  <NsNH2>
0

>  <NssNH2>
0

>  <NdNH>
0

>  <NssNH>
1

>  <NaaNH>
0

>  <NtN>
0

>  <NsssNH>
0

>  <NdsN>
0

>  <NaaN>
0

>  <NsssN>
1

>  <NddsN>
0

>  <NaasN>
0

>  <NssssN>
0

>  <NsOH>
0

>  <NdO>
1

>  <NssO>
1

>  <NaaO>
0

>  <NsF>
0

>  <NsSiH3>
0

>  <NssSiH2>
0

>  <NsssSiH>
0

>  <NssssSi>
0

>  <NsPH2>
0

>  <NssPH>
0

>  <NsssP>
0

>  <NdsssP>
0

>  <NsssssP>
0

>  <NsSH>
0

>  <NdS>
0

>  <NssS>
0

>  <NaaS>
0

>  <NdssS>
0

>  <NddssS>
0

>  <NsCl>
2

>  <NsBr>
0

>  <NsI>
0

>  <fragCpx>
20.06

>  <fMF>
0.15

>  <nHBAcc>
3

>  <nHBDon>
1

>  <Kier1>
18.05

>  <Kier2>
9.11

>  <Lipinski>
1

>  <GhoseFilter>
1

>  <FilterItLogS>
-5.16

>  <VMcGowan>
236.24

>  <LabuteASA>
129.54

>  <PEOE_VSA1>
14.95

>  <PEOE_VSA2>
4.79

>  <PEOE_VSA3>
0

>  <PEOE_VSA4>
0

>  <PEOE_VSA5>
0

>  <PEOE_VSA6>
37.05

>  <PEOE_VSA7>
25.22

>  <PEOE_VSA8>
18.11

>  <PEOE_VSA9>
17.7

>  <PEOE_VSA10>
5.75

>  <PEOE_VSA11>
0

>  <PEOE_VSA12>
0

>  <PEOE_VSA13>
5.91

>  <SMR_VSA1>
9.53

>  <SMR_VSA2>
0

>  <SMR_VSA3>
10.22

>  <SMR_VSA4>
0

>  <SMR_VSA5>
13.85

>  <SMR_VSA6>
33.29

>  <SMR_VSA7>
27.74

>  <SMR_VSA8>
0

>  <SMR_VSA9>
5.75

>  <SlogP_VSA1>
10.05

>  <SlogP_VSA2>
44.1

>  <SlogP_VSA3>
0

>  <SlogP_VSA4>
0

>  <SlogP_VSA5>
24.21

>  <SlogP_VSA6>
12.13

>  <SlogP_VSA7>
10.05

>  <SlogP_VSA8>
0

>  <SlogP_VSA9>
0

>  <SlogP_VSA10>
0

>  <SlogP_VSA11>
5.75

>  <EState_VSA1>
0

>  <EState_VSA2>
5.91

>  <EState_VSA3>
27.9

>  <EState_VSA4>
19.63

>  <EState_VSA5>
7.11

>  <EState_VSA6>
12.13

>  <EState_VSA7>
0

>  <EState_VSA8>
24.06

>  <EState_VSA9>
27.94

>  <EState_VSA10>
4.79

>  <VSA_EState1>
5.16

>  <VSA_EState2>
14.38

>  <VSA_EState3>
3.58

>  <VSA_EState4>
0.35

>  <VSA_EState5>
0.11

>  <VSA_EState6>
3.1

>  <VSA_EState7>
0

>  <VSA_EState8>
7.46

>  <VSA_EState9>
1.47

>  <apol>
44.88

>  <bpol>
25.97

>  <nRing>
1

>  <nHRing>
0

>  <naRing>
1

>  <naHRing>
0

>  <nARing 2>
0

>  <nAHRing 2>
0

>  <nFRing>
0

>  <nFHRing>
0

>  <nFaRing>
0

>  <nFaHRing>
0

>  <nFARing 2>
0

>  <nFAHRing 2>
0

>  <nRot>
7

>  <SLogP>
3.07

>  <SMR>
83.14

>  <TopoPSA(NO)>
41.57

>  <TopoPSA>
41.57

>  <JGI1>
0.23

>  <JGI2>
0.09

>  <JGI3>
0.06

>  <JGI4>
0.04

>  <JGI5>
0.03

>  <Diameter>
10

>  <Radius>
5

>  <TMWC10>
110.95

>  <TSRW10>
52.78

>  <MW>
318.09

>  <AMW>
7.95

>  <WPath>
891

>  <WPol>
29

>  <Zagreb1>
92

>  <Zagreb2>
104

>  <mZagreb2>
4.83

>  <yes>


>  <nAR-cont>
0.336376

>  <nHA-cont>
0.999629945

>  <MWHBN>
0.224277127

>  <MWHBN-cont>
0.99191432

>  <TPSA-cont>
0.709815587

>  <pka_cont>
0.97

>  <yes.1>


>  <BBB_SCORE>
4.728508598

>  <MMFF94 Energy>
31.541

$$$$
Compound 1210
Actelion Java MolfileCreator 2.0

  0  0  0  0  0  0              0 V3000
M  V30 BEGIN CTAB
M  V30 COUNTS 46 46 0 0 0
M  V30 BEGIN ATOM
M  V30 1 S 3.5756 3.8939 -2.8597 0
M  V30 2 O 3.6215 5.3081 -2.5371 0
M  V30 3 O 4.767 3.0731 -2.78 0
M  V30 4 C 2.3586 3.1458 -1.8043 0
M  V30 5 C 2.8854 3.7399 -4.4865 0
M  V30 6 C 2.1015 1.7798 -1.921 0
M  V30 7 C 1.6841 3.9137 -0.8595 0
M  V30 8 C 1.1384 1.1645 -1.0992 0
M  V30 9 C 0.7337 3.31 -0.0315 0
M  V30 10 C 0.4489 1.9391 -0.1384 0
M  V30 11 C 0.9233 -0.3032 -1.334 0
M  V30 12 O -0.4796 1.3052 0.646 0
M  V30 13 O 1.4876 -0.8633 -2.2702 0
M  V30 14 N 0.0917 -0.9711 -0.4757 0
M  V30 15 C -1.1228 2.0496 1.6736 0
M  V30 16 C -0.1549 -2.3959 -0.5508 0
M  V30 17 C -1.4261 -2.7863 0.2271 0
M  V30 18 N -1.5015 -2.2372 1.6025 0
M  V30 19 C -0.3885 -2.6723 2.4667 0
M  V30 20 C -2.8049 -2.5139 2.2293 0
M  V30 21 C -0.2626 -4.1735 2.7098 0
M  V30 22 C -3.926 -1.6556 1.6514 0
M  V30 23 H 1.918 4.2453 -4.5114 0
M  V30 24 H 2.779 2.6833 -4.7372 0
M  V30 25 H 3.5707 4.2177 -5.1901 0
M  V30 26 H 2.6568 1.1827 -2.6436 0
M  V30 27 H 1.891 4.977 -0.7513 0
M  V30 28 H 0.2296 3.9446 0.6914 0
M  V30 29 H -0.3327 -0.4719 0.3029 0
M  V30 30 H -0.3958 2.4429 2.3915 0
M  V30 31 H -1.7866 1.3672 2.2131 0
M  V30 32 H -1.7394 2.8496 1.2517 0
M  V30 33 H 0.7287 -2.9074 -0.1554 0
M  V30 34 H -0.2569 -2.6848 -1.6027 0
M  V30 35 H -2.2664 -2.3895 -0.354 0
M  V30 36 H -1.5353 -3.8771 0.2246 0
M  V30 37 H 0.5593 -2.2993 2.0626 0
M  V30 38 H -0.483 -2.1694 3.438 0
M  V30 39 H -3.0719 -3.5745 2.1503 0
M  V30 40 H -2.7541 -2.2769 3.2998 0
M  V30 41 H 0.5728 -4.3673 3.3908 0
M  V30 42 H -0.0622 -4.7198 1.7837 0
M  V30 43 H -1.1641 -4.5873 3.1712 0
M  V30 44 H -4.8383 -1.7894 2.2423 0
M  V30 45 H -4.1638 -1.9278 0.6193 0
M  V30 46 H -3.6636 -0.5927 1.6788 0
M  V30 END ATOM
M  V30 BEGIN BOND
M  V30 1 2 1 2
M  V30 2 2 1 3
M  V30 3 1 1 4
M  V30 4 1 1 5
M  V30 5 2 4 6
M  V30 6 1 4 7
M  V30 7 1 6 8
M  V30 8 2 7 9
M  V30 9 2 8 10
M  V30 10 1 8 11
M  V30 11 1 10 12
M  V30 12 2 11 13
M  V30 13 1 11 14
M  V30 14 1 12 15
M  V30 15 1 14 16
M  V30 16 1 16 17
M  V30 17 1 17 18
M  V30 18 1 18 19
M  V30 19 1 18 20
M  V30 20 1 19 21
M  V30 21 1 20 22
M  V30 22 1 9 10
M  V30 23 1 5 23
M  V30 24 1 5 24
M  V30 25 1 5 25
M  V30 26 1 6 26
M  V30 27 1 7 27
M  V30 28 1 9 28
M  V30 29 1 14 29
M  V30 30 1 15 30
M  V30 31 1 15 31
M  V30 32 1 15 32
M  V30 33 1 16 33
M  V30 34 1 16 34
M  V30 35 1 17 35
M  V30 36 1 17 36
M  V30 37 1 19 37
M  V30 38 1 19 38
M  V30 39 1 20 39
M  V30 40 1 20 40
M  V30 41 1 21 41
M  V30 42 1 21 42
M  V30 43 1 21 43
M  V30 44 1 22 44
M  V30 45 1 22 45
M  V30 46 1 22 46
M  V30 END BOND
M  V30 END CTAB
M  END
>  <Column 1>
1439

>  <level_0>
1589

>  <index>
1589

>  <Unnamed: 0>
1589

>  <NO.>
1601

>  <Name>
tiapride

>  <IUPAC_name>
n-[2-(diethylamino)ethyl]-2-methoxy-5-methylsulfonylbenzamide

>  <SMILES>
CCN(CC)CCNC(=O)c1cc(S(C)(=O)=O)ccc1OC

>  <CID>
5467

>  <logBB>


>  <BBB+/BBB->
BBB+

>  <Inchi>
InChI=1S/C15H24N2O4S/c1-5-17(6-2)10-9-16-15(18)13-11-12(22(4-19)20)7-8-14(13)21-3/h7-8-11H-5-6-9-10H2-1-4H3-(H-16-18)

>  <threshold>
-1

>  <reference>
R1|R13|R19|R6|R24|R27|R27|R27|R30|R30|R50|

>  <group>
B

>  <Class>
1

>  <ABC>
16

>  <ABCGG>
14.4

>  <nAcid>
0

>  <nBase>
1

>  <nAromAtom>
6

>  <nAromBond>
6

>  <nAtom>
46

>  <nHeavyAtom>
22

>  <nSpiro>
0

>  <nBridgehead>
0

>  <nHetero>
7

>  <nN>
2

>  <nO>
4

>  <nF>
0

>  <BalabanJ>
2.53

>  <BertzCT>
609.97

>  <nBonds>
46

>  <nBondsO>
22

>  <nBondsS>
37

>  <nBondsD>
3

>  <nBondsT>
0

>  <nBondsA>
6

>  <nBondsM>
9

>  <nBondsKS>
40

>  <nBondsKD>
6

>  <RNCG>
0.24

>  <RPCG>
0.12

>  <FCSP3>
0.53

>  <SZ>
29.33

>  <Sm>
27.34

>  <Sv>
27.06

>  <Sse>
46.38

>  <Sp>
29.56

>  <Si>
52.32

>  <MZ>
0.64

>  <Mm>
0.59

>  <Mv>
0.59

>  <Mse>
1.01

>  <Mp>
0.64

>  <Mi>
1.14

>  <NsCH3>
4

>  <NdCH2>
0

>  <NssCH2>
4

>  <NtCH>
0

>  <NdsCH>
0

>  <NaaCH>
3

>  <NsssCH>
0

>  <NddC>
0

>  <NtsC>
0

>  <NdssC>
1

>  <NaasC>
3

>  <NaaaC>
0

>  <NssssC>
0

>  <NsNH3>
0

>  <NsNH2>
0

>  <NssNH2>
0

>  <NdNH>
0

>  <NssNH>
1

>  <NaaNH>
0

>  <NtN>
0

>  <NsssNH>
0

>  <NdsN>
0

>  <NaaN>
0

>  <NsssN>
1

>  <NddsN>
0

>  <NaasN>
0

>  <NssssN>
0

>  <NsOH>
0

>  <NdO>
3

>  <NssO>
1

>  <NaaO>
0

>  <NsF>
0

>  <NsSiH3>
0

>  <NssSiH2>
0

>  <NsssSiH>
0

>  <NssssSi>
0

>  <NsPH2>
0

>  <NssPH>
0

>  <NsssP>
0

>  <NdsssP>
0

>  <NsssssP>
0

>  <NsSH>
0

>  <NdS>
0

>  <NssS>
0

>  <NaaS>
0

>  <NdssS>
0

>  <NddssS>
1

>  <NsCl>
0

>  <NsBr>
0

>  <NsI>
0

>  <fragCpx>
22.07

>  <fMF>
0.13

>  <nHBAcc>
5

>  <nHBDon>
1

>  <Kier1>
20.05

>  <Kier2>
9.33

>  <Lipinski>
1

>  <GhoseFilter>
1

>  <FilterItLogS>
-4.09

>  <VMcGowan>
253.94

>  <LabuteASA>
131.93

>  <PEOE_VSA1>
14.95

>  <PEOE_VSA2>
4.79

>  <PEOE_VSA3>
8.42

>  <PEOE_VSA4>
0

>  <PEOE_VSA5>
0

>  <PEOE_VSA6>
13.85

>  <PEOE_VSA7>
31.29

>  <PEOE_VSA8>
19.35

>  <PEOE_VSA9>
17.57

>  <PEOE_VSA10>
5.75

>  <PEOE_VSA11>
9.84

>  <PEOE_VSA12>
0

>  <PEOE_VSA13>
5.91

>  <SMR_VSA1>
17.95

>  <SMR_VSA2>
0

>  <SMR_VSA3>
10.22

>  <SMR_VSA4>
0

>  <SMR_VSA5>
18.74

>  <SMR_VSA6>
39.54

>  <SMR_VSA7>
23.76

>  <SMR_VSA8>
0

>  <SMR_VSA9>
5.75

>  <SlogP_VSA1>
10.05

>  <SlogP_VSA2>
58.77

>  <SlogP_VSA3>
9.84

>  <SlogP_VSA4>
0

>  <SlogP_VSA5>
24.21

>  <SlogP_VSA6>
23.09

>  <SlogP_VSA7>
0

>  <SlogP_VSA8>
0

>  <SlogP_VSA9>
0

>  <SlogP_VSA10>
0

>  <SlogP_VSA11>
5.75

>  <EState_VSA1>
9.84

>  <EState_VSA2>
16.37

>  <EState_VSA3>
12.29

>  <EState_VSA4>
25.89

>  <EState_VSA5>
25.31

>  <EState_VSA6>
0

>  <EState_VSA7>
0

>  <EState_VSA8>
24.06

>  <EState_VSA9>
4.74

>  <EState_VSA10>
13.21

>  <VSA_EState1>
28.36

>  <VSA_EState2>
14.54

>  <VSA_EState3>
2.8

>  <VSA_EState4>
0.23

>  <VSA_EState5>
0.02

>  <VSA_EState6>
4.28

>  <VSA_EState7>
1.11

>  <VSA_EState8>
7.19

>  <VSA_EState9>
-1.92

>  <apol>
49.36

>  <bpol>
35.62

>  <nRing>
1

>  <nHRing>
0

>  <naRing>
1

>  <naHRing>
0

>  <nARing 2>
0

>  <nAHRing 2>
0

>  <nFRing>
0

>  <nFHRing>
0

>  <nFaRing>
0

>  <nFaHRing>
0

>  <nFARing 2>
0

>  <nFAHRing 2>
0

>  <nRot>
8

>  <SLogP>
1.17

>  <SMR>
86.23

>  <TopoPSA(NO)>
75.71

>  <TopoPSA>
84.09

>  <JGI1>
0.27

>  <JGI2>
0.1

>  <JGI3>
0.05

>  <JGI4>
0.04

>  <JGI5>
0.04

>  <Diameter>
11

>  <Radius>
6

>  <TMWC10>
116.24

>  <TSRW10>
55.5

>  <MW>
328.15

>  <AMW>
7.13

>  <WPath>
1152

>  <WPol>
32

>  <Zagreb1>
104

>  <Zagreb2>
117

>  <mZagreb2>
5.14

>  <yes>


>  <nAR-cont>
0.336376

>  <nHA-cont>
0.983774276

>  <MWHBN>
0.331218851

>  <MWHBN-cont>
0.738561484

>  <TPSA-cont>
0.412999583

>  <pka_cont>
0.97

>  <yes.1>


>  <BBB_SCORE>
3.738991668

>  <MMFF94 Energy>
56.707

$$$$
Compound 1211
Actelion Java MolfileCreator 2.0

  0  0  0  0  0  0              0 V3000
M  V30 BEGIN CTAB
M  V30 COUNTS 49 50 0 0 0
M  V30 BEGIN ATOM
M  V30 1 O -1.2631 2.2904 0.3156 0
M  V30 2 C -0.8638 1.3264 -0.3284 0
M  V30 3 O -1.5187 0.1235 -0.3826 0
M  V30 4 C 0.4832 1.2264 -1.1217 0
M  V30 5 C -2.6915 0.0306 0.4405 0
M  V30 6 O 0.3276 0.1921 -2.1227 0
M  V30 7 C 1.6584 0.7656 -0.2384 0
M  V30 8 C 0.7792 2.5576 -1.8335 0
M  V30 9 C -3.1009 -1.4486 0.5486 0
M  V30 10 C 1.6066 0.7759 1.167 0
M  V30 11 C 2.8535 0.333 -0.8487 0
M  V30 12 C 1.1992 3.6857 -1.1021 0
M  V30 13 C 0.6199 2.7004 -3.224 0
M  V30 14 N -2.0342 -2.3099 1.1158 0
M  V30 15 C 2.7009 0.3547 1.9284 0
M  V30 16 C 3.9451 -0.0862 -0.0863 0
M  V30 17 C 1.4598 4.9019 -1.738 0
M  V30 18 C 0.8816 3.9173 -3.8589 0
M  V30 19 C -2.2591 -3.7245 0.7619 0
M  V30 20 C -1.9448 -2.1411 2.5782 0
M  V30 21 C 3.8671 -0.0773 1.3027 0
M  V30 22 C 1.3023 5.0168 -3.1161 0
M  V30 23 C -1.835 -4.0267 -0.6725 0
M  V30 24 C -0.5808 -2.5631 3.1172 0
M  V30 25 H -3.4983 0.5936 -0.0425 0
M  V30 26 H -2.5068 0.4622 1.4297 0
M  V30 27 H -0.0073 -0.5808 -1.6284 0
M  V30 28 H -4.0276 -1.542 1.1287 0
M  V30 29 H -3.3317 -1.7728 -0.472 0
M  V30 30 H 0.7218 1.1161 1.7011 0
M  V30 31 H 2.9347 0.3246 -1.9353 0
M  V30 32 H 1.3214 3.6286 -0.0219 0
M  V30 33 H 0.2921 1.8584 -3.8309 0
M  V30 34 H 2.6419 0.3677 3.014 0
M  V30 35 H 4.8552 -0.4167 -0.5799 0
M  V30 36 H 1.7829 5.7595 -1.1537 0
M  V30 37 H 0.7556 4.0038 -4.9349 0
M  V30 38 H -1.6612 -4.3831 1.4011 0
M  V30 39 H -3.3069 -4.0104 0.9182 0
M  V30 40 H -2.0675 -1.0885 2.8547 0
M  V30 41 H -2.7447 -2.6905 3.0906 0
M  V30 42 H 4.7164 -0.4025 1.8975 0
M  V30 43 H 1.5047 5.9631 -3.6103 0
M  V30 44 H -1.9157 -5.1019 -0.8647 0
M  V30 45 H -0.7933 -3.7344 -0.8432 0
M  V30 46 H -2.4605 -3.5153 -1.4093 0
M  V30 47 H -0.514 -2.3274 4.1847 0
M  V30 48 H 0.2256 -2.0264 2.6063 0
M  V30 49 H -0.4029 -3.6363 3.0074 0
M  V30 END ATOM
M  V30 BEGIN BOND
M  V30 1 2 1 2
M  V30 2 1 2 3
M  V30 3 1 2 4
M  V30 4 1 3 5
M  V30 5 1 4 6
M  V30 6 1 4 7
M  V30 7 1 4 8
M  V30 8 1 5 9
M  V30 9 2 7 10
M  V30 10 1 7 11
M  V30 11 2 8 12
M  V30 12 1 8 13
M  V30 13 1 9 14
M  V30 14 1 10 15
M  V30 15 2 11 16
M  V30 16 1 12 17
M  V30 17 2 13 18
M  V30 18 1 14 19
M  V30 19 1 14 20
M  V30 20 2 15 21
M  V30 21 2 17 22
M  V30 22 1 19 23
M  V30 23 1 20 24
M  V30 24 1 16 21
M  V30 25 1 18 22
M  V30 26 1 5 25
M  V30 27 1 5 26
M  V30 28 1 6 27
M  V30 29 1 9 28
M  V30 30 1 9 29
M  V30 31 1 10 30
M  V30 32 1 11 31
M  V30 33 1 12 32
M  V30 34 1 13 33
M  V30 35 1 15 34
M  V30 36 1 16 35
M  V30 37 1 17 36
M  V30 38 1 18 37
M  V30 39 1 19 38
M  V30 40 1 19 39
M  V30 41 1 20 40
M  V30 42 1 20 41
M  V30 43 1 21 42
M  V30 44 1 22 43
M  V30 45 1 23 44
M  V30 46 1 23 45
M  V30 47 1 23 46
M  V30 48 1 24 47
M  V30 49 1 24 48
M  V30 50 1 24 49
M  V30 END BOND
M  V30 END CTAB
M  END
>  <Column 1>
1440

>  <level_0>
1590

>  <index>
1590

>  <Unnamed: 0>
1590

>  <NO.>
1602

>  <Name>
benactyzine

>  <IUPAC_name>
2-(diethylamino)ethyl 2-hydroxy-2-2-diphenylacetate;hydron;chloride

>  <SMILES>
CCN(CC)CCOC(=O)C(O)(c1ccccc1)c1ccccc1

>  <CID>
9330

>  <logBB>


>  <BBB+/BBB->
BBB+

>  <Inchi>
InChI=1S/C20H25NO3/c1-3-21(4-2)15-16-24-19(22)20(23-17-11-7-5-8-12-17)18-13-9-6-10-14-18/h5-14-23H-3-4-15-16H2-1-2H3

>  <threshold>
-1

>  <reference>
R1|R13|R19|R6|R24|R27|R27|R27|R30|R30|

>  <group>
B

>  <Class>
1

>  <ABC>
17.76

>  <ABCGG>
15.49

>  <nAcid>
0

>  <nBase>
1

>  <nAromAtom>
12

>  <nAromBond>
12

>  <nAtom>
49

>  <nHeavyAtom>
24

>  <nSpiro>
0

>  <nBridgehead>
0

>  <nHetero>
4

>  <nN>
1

>  <nO>
3

>  <nF>
0

>  <BalabanJ>
2

>  <BertzCT>
584.35

>  <nBonds>
50

>  <nBondsO>
25

>  <nBondsS>
37

>  <nBondsD>
1

>  <nBondsT>
0

>  <nBondsA>
12

>  <nBondsM>
13

>  <nBondsKS>
43

>  <nBondsKD>
7

>  <RNCG>
0.22

>  <RPCG>
0.17

>  <FCSP3>
0.35

>  <SZ>
29.33

>  <Sm>
27.26

>  <Sv>
29.68

>  <Sse>
48.75

>  <Sp>
32.08

>  <Si>
55.11

>  <MZ>
0.6

>  <Mm>
0.56

>  <Mv>
0.61

>  <Mse>
0.99

>  <Mp>
0.65

>  <Mi>
1.12

>  <NsCH3>
2

>  <NdCH2>
0

>  <NssCH2>
4

>  <NtCH>
0

>  <NdsCH>
0

>  <NaaCH>
10

>  <NsssCH>
0

>  <NddC>
0

>  <NtsC>
0

>  <NdssC>
1

>  <NaasC>
2

>  <NaaaC>
0

>  <NssssC>
1

>  <NsNH3>
0

>  <NsNH2>
0

>  <NssNH2>
0

>  <NdNH>
0

>  <NssNH>
0

>  <NaaNH>
0

>  <NtN>
0

>  <NsssNH>
0

>  <NdsN>
0

>  <NaaN>
0

>  <NsssN>
1

>  <NddsN>
0

>  <NaasN>
0

>  <NssssN>
0

>  <NsOH>
1

>  <NdO>
1

>  <NssO>
1

>  <NaaO>
0

>  <NsF>
0

>  <NsSiH3>
0

>  <NssSiH2>
0

>  <NsssSiH>
0

>  <NssssSi>
0

>  <NsPH2>
0

>  <NssPH>
0

>  <NsssP>
0

>  <NdsssP>
0

>  <NsssssP>
0

>  <NsSH>
0

>  <NdS>
0

>  <NssS>
0

>  <NaaS>
0

>  <NdssS>
0

>  <NddssS>
0

>  <NsCl>
0

>  <NsBr>
0

>  <NsI>
0

>  <fragCpx>
73.04

>  <fMF>
0.27

>  <nHBAcc>
4

>  <nHBDon>
1

>  <Kier1>
20.31

>  <Kier2>
10.22

>  <Lipinski>
1

>  <GhoseFilter>
1

>  <FilterItLogS>
-4.27

>  <VMcGowan>
268.43

>  <LabuteASA>
143.24

>  <PEOE_VSA1>
14.74

>  <PEOE_VSA2>
0

>  <PEOE_VSA3>
4.79

>  <PEOE_VSA4>
0

>  <PEOE_VSA5>
0

>  <PEOE_VSA6>
74.51

>  <PEOE_VSA7>
24.22

>  <PEOE_VSA8>
6.54

>  <PEOE_VSA9>
0

>  <PEOE_VSA10>
6.61

>  <PEOE_VSA11>
0

>  <PEOE_VSA12>
5.6

>  <PEOE_VSA13>
0

>  <SMR_VSA1>
14.64

>  <SMR_VSA2>
0

>  <SMR_VSA3>
4.9

>  <SMR_VSA4>
0

>  <SMR_VSA5>
19.45

>  <SMR_VSA6>
26.24

>  <SMR_VSA7>
71.79

>  <SMR_VSA8>
0

>  <SMR_VSA9>
0

>  <SlogP_VSA1>
0

>  <SlogP_VSA2>
42.22

>  <SlogP_VSA3>
15.13

>  <SlogP_VSA4>
0

>  <SlogP_VSA5>
24.97

>  <SlogP_VSA6>
60.66

>  <SlogP_VSA7>
0

>  <SlogP_VSA8>
0

>  <SlogP_VSA9>
0

>  <SlogP_VSA10>
0

>  <SlogP_VSA11>
0

>  <EState_VSA1>
11.57

>  <EState_VSA2>
6.61

>  <EState_VSA3>
17.67

>  <EState_VSA4>
13.09

>  <EState_VSA5>
0

>  <EState_VSA6>
48.53

>  <EState_VSA7>
12.13

>  <EState_VSA8>
18.75

>  <EState_VSA9>
4.74

>  <EState_VSA10>
9.9

>  <VSA_EState1>
5.42

>  <VSA_EState2>
14.9

>  <VSA_EState3>
11.21

>  <VSA_EState4>
-0.79

>  <VSA_EState5>
-0.65

>  <VSA_EState6>
17.83

>  <VSA_EState7>
0

>  <VSA_EState8>
6.83

>  <VSA_EState9>
0

>  <apol>
53.58

>  <bpol>
29.39

>  <nRing>
2

>  <nHRing>
0

>  <naRing>
2

>  <naHRing>
0

>  <nARing 2>
0

>  <nAHRing 2>
0

>  <nFRing>
0

>  <nFHRing>
0

>  <nFaRing>
0

>  <nFaHRing>
0

>  <nFARing 2>
0

>  <nFAHRing 2>
0

>  <nRot>
8

>  <SLogP>
2.81

>  <SMR>
94.63

>  <TopoPSA(NO)>
49.77

>  <TopoPSA>
49.77

>  <JGI1>
0.18

>  <JGI2>
0.1

>  <JGI3>
0.06

>  <JGI4>
0.03

>  <JGI5>
0.02

>  <Diameter>
11

>  <Radius>
6

>  <TMWC10>
123.09

>  <TSRW10>
58.23

>  <MW>
327.18

>  <AMW>
6.68

>  <WPath>
1364

>  <WPol>
38

>  <Zagreb1>
116

>  <Zagreb2>
135

>  <mZagreb2>
5.67

>  <yes>


>  <nAR-cont>
0.336376

>  <nHA-cont>
0.94700071

>  <MWHBN>
0.276424562

>  <MWHBN-cont>
0.904972375

>  <TPSA-cont>
0.652574495

>  <pka_cont>
0.97

>  <yes.1>


>  <BBB_SCORE>
4.430984261

>  <MMFF94 Energy>
132.79

$$$$
Compound 1212
Actelion Java MolfileCreator 2.0

  0  0  0  0  0  0              0 V3000
M  V30 BEGIN CTAB
M  V30 COUNTS 49 50 0 0 0
M  V30 BEGIN ATOM
M  V30 1 Cl 0.0792 -5.9593 -1.904 0
M  V30 2 C 0.5364 -4.325 -1.6234 0
M  V30 3 C -0.1207 -3.2973 -2.2891 0
M  V30 4 C 1.5628 -4.0361 -0.7295 0
M  V30 5 C 0.2556 -1.9721 -2.057 0
M  V30 6 C 1.9381 -2.7076 -0.4975 0
M  V30 7 C 1.2927 -1.648 -1.1568 0
M  V30 8 C 1.6676 -0.171 -0.9387 0
M  V30 9 O 0.4581 0.6063 -0.7878 0
M  V30 10 C 2.3368 0.3484 -2.2419 0
M  V30 11 C 2.6511 0.0953 0.2316 0
M  V30 12 C -0.2859 0.3934 0.418 0
M  V30 13 C 2.7622 1.8166 -2.1471 0
M  V30 14 C 3.0509 1.5684 0.3435 0
M  V30 15 C -1.6808 1.0152 0.2354 0
M  V30 16 C 3.6742 2.0694 -0.9535 0
M  V30 17 N -2.551 0.8446 1.4205 0
M  V30 18 C -3.9729 0.941 1.0371 0
M  V30 19 C -2.2168 1.8502 2.4481 0
M  V30 20 C -4.4762 -0.3443 0.3861 0
M  V30 21 C -2.6968 1.4336 3.8353 0
M  V30 22 H -0.9257 -3.5148 -2.9853 0
M  V30 23 H 2.0764 -4.8384 -0.2064 0
M  V30 24 H -0.276 -1.1777 -2.5796 0
M  V30 25 H 2.742 -2.5299 0.211 0
M  V30 26 H 1.6474 0.264 -3.0916 0
M  V30 27 H 3.2151 -0.265 -2.483 0
M  V30 28 H 3.5703 -0.4881 0.0915 0
M  V30 29 H 2.222 -0.226 1.1878 0
M  V30 30 H 0.2408 0.8708 1.2478 0
M  V30 31 H -0.3893 -0.6751 0.6337 0
M  V30 32 H 1.8737 2.4549 -2.0702 0
M  V30 33 H 3.2783 2.1066 -3.0695 0
M  V30 34 H 3.768 1.6904 1.1633 0
M  V30 35 H 2.178 2.182 0.5937 0
M  V30 36 H -1.591 2.0742 -0.0427 0
M  V30 37 H -2.1164 0.5296 -0.6457 0
M  V30 38 H 4.6339 1.5635 -1.1157 0
M  V30 39 H 3.8892 3.1407 -0.8716 0
M  V30 40 H -4.6013 1.1004 1.92 0
M  V30 41 H -4.1479 1.7976 0.374 0
M  V30 42 H -1.1311 1.9737 2.5257 0
M  V30 43 H -2.6225 2.8355 2.1856 0
M  V30 44 H -5.5541 -0.2718 0.2062 0
M  V30 45 H -4.3045 -1.2071 1.0385 0
M  V30 46 H -3.9966 -0.5409 -0.5765 0
M  V30 47 H -2.34 2.1506 4.5824 0
M  V30 48 H -2.305 0.4474 4.106 0
M  V30 49 H -3.7874 1.4024 3.9075 0
M  V30 END ATOM
M  V30 BEGIN BOND
M  V30 1 1 1 2
M  V30 2 2 2 3
M  V30 3 1 2 4
M  V30 4 1 3 5
M  V30 5 2 4 6
M  V30 6 2 5 7
M  V30 7 1 7 8
M  V30 8 1 8 9
M  V30 9 1 8 10
M  V30 10 1 8 11
M  V30 11 1 9 12
M  V30 12 1 10 13
M  V30 13 1 11 14
M  V30 14 1 12 15
M  V30 15 1 13 16
M  V30 16 1 15 17
M  V30 17 1 17 18
M  V30 18 1 17 19
M  V30 19 1 18 20
M  V30 20 1 19 21
M  V30 21 1 6 7
M  V30 22 1 14 16
M  V30 23 1 3 22
M  V30 24 1 4 23
M  V30 25 1 5 24
M  V30 26 1 6 25
M  V30 27 1 10 26
M  V30 28 1 10 27
M  V30 29 1 11 28
M  V30 30 1 11 29
M  V30 31 1 12 30
M  V30 32 1 12 31
M  V30 33 1 13 32
M  V30 34 1 13 33
M  V30 35 1 14 34
M  V30 36 1 14 35
M  V30 37 1 15 36
M  V30 38 1 15 37
M  V30 39 1 16 38
M  V30 40 1 16 39
M  V30 41 1 18 40
M  V30 42 1 18 41
M  V30 43 1 19 42
M  V30 44 1 19 43
M  V30 45 1 20 44
M  V30 46 1 20 45
M  V30 47 1 20 46
M  V30 48 1 21 47
M  V30 49 1 21 48
M  V30 50 1 21 49
M  V30 END BOND
M  V30 END CTAB
M  END
>  <Column 1>
1441

>  <level_0>
1591

>  <index>
1591

>  <Unnamed: 0>
1591

>  <NO.>
1603

>  <Name>
clofenciclan

>  <IUPAC_name>
2-[1-(4-chlorophenyl)cyclohexyl]oxy-n-n-diethylethanamine

>  <SMILES>
CCN(CC)CCOC1(c2ccc(Cl)cc2)CCCCC1

>  <CID>
25904

>  <logBB>


>  <BBB+/BBB->
BBB+

>  <Inchi>
InChI=1S/C18H28ClNO/c1-3-20(4-2)14-15-21-18(12-6-5-7-13-18)16-8-10-17(19)11-9-16/h8-11H-3-7-12-15H2-1-2H3

>  <threshold>
-1

>  <reference>
R1|R13|R19|R6|R24|R27|R27|R27|R30|R30|

>  <group>
B

>  <Class>
1

>  <ABC>
15.6

>  <ABCGG>
13.32

>  <nAcid>
0

>  <nBase>
1

>  <nAromAtom>
6

>  <nAromBond>
6

>  <nAtom>
49

>  <nHeavyAtom>
21

>  <nSpiro>
0

>  <nBridgehead>
0

>  <nHetero>
3

>  <nN>
1

>  <nO>
1

>  <nF>
0

>  <BalabanJ>
1.9

>  <BertzCT>
407.73

>  <nBonds>
50

>  <nBondsO>
22

>  <nBondsS>
44

>  <nBondsD>
0

>  <nBondsT>
0

>  <nBondsA>
6

>  <nBondsM>
6

>  <nBondsKS>
47

>  <nBondsKD>
3

>  <RNCG>
0.29

>  <RPCG>
0.07

>  <FCSP3>
0.67

>  <SZ>
28

>  <Sm>
25.8

>  <Sv>
28.15

>  <Sse>
48.19

>  <Sp>
31.62

>  <Si>
55.47

>  <MZ>
0.57

>  <Mm>
0.53

>  <Mv>
0.57

>  <Mse>
0.98

>  <Mp>
0.65

>  <Mi>
1.13

>  <NsCH3>
2

>  <NdCH2>
0

>  <NssCH2>
9

>  <NtCH>
0

>  <NdsCH>
0

>  <NaaCH>
4

>  <NsssCH>
0

>  <NddC>
0

>  <NtsC>
0

>  <NdssC>
0

>  <NaasC>
2

>  <NaaaC>
0

>  <NssssC>
1

>  <NsNH3>
0

>  <NsNH2>
0

>  <NssNH2>
0

>  <NdNH>
0

>  <NssNH>
0

>  <NaaNH>
0

>  <NtN>
0

>  <NsssNH>
0

>  <NdsN>
0

>  <NaaN>
0

>  <NsssN>
1

>  <NddsN>
0

>  <NaasN>
0

>  <NssssN>
0

>  <NsOH>
0

>  <NdO>
0

>  <NssO>
1

>  <NaaO>
0

>  <NsF>
0

>  <NsSiH3>
0

>  <NssSiH2>
0

>  <NsssSiH>
0

>  <NssssSi>
0

>  <NsPH2>
0

>  <NssPH>
0

>  <NsssP>
0

>  <NdsssP>
0

>  <NsssssP>
0

>  <NsSH>
0

>  <NdS>
0

>  <NssS>
0

>  <NaaS>
0

>  <NdssS>
0

>  <NddssS>
0

>  <NsCl>
1

>  <NsBr>
0

>  <NsI>
0

>  <fragCpx>
64.03

>  <fMF>
0.24

>  <nHBAcc>
2

>  <nHBDon>
0

>  <Kier1>
17.36

>  <Kier2>
8.59

>  <Lipinski>
1

>  <GhoseFilter>
1

>  <FilterItLogS>
-5.52

>  <VMcGowan>
257.95

>  <LabuteASA>
133.98

>  <PEOE_VSA1>
9.64

>  <PEOE_VSA2>
0

>  <PEOE_VSA3>
0

>  <PEOE_VSA4>
0

>  <PEOE_VSA5>
0

>  <PEOE_VSA6>
56.84

>  <PEOE_VSA7>
43.63

>  <PEOE_VSA8>
11.57

>  <PEOE_VSA9>
12.21

>  <PEOE_VSA10>
0

>  <PEOE_VSA11>
0

>  <PEOE_VSA12>
0

>  <PEOE_VSA13>
0

>  <SMR_VSA1>
4.74

>  <SMR_VSA2>
0

>  <SMR_VSA3>
4.9

>  <SMR_VSA4>
0

>  <SMR_VSA5>
51.55

>  <SMR_VSA6>
26.24

>  <SMR_VSA7>
34.85

>  <SMR_VSA8>
0

>  <SMR_VSA9>
0

>  <SlogP_VSA1>
0

>  <SlogP_VSA2>
31.14

>  <SlogP_VSA3>
10.34

>  <SlogP_VSA4>
0

>  <SlogP_VSA5>
51.52

>  <SlogP_VSA6>
24.27

>  <SlogP_VSA7>
5.02

>  <SlogP_VSA8>
0

>  <SlogP_VSA9>
0

>  <SlogP_VSA10>
0

>  <SlogP_VSA11>
0

>  <EState_VSA1>
0

>  <EState_VSA2>
5.6

>  <EState_VSA3>
0

>  <EState_VSA4>
44.11

>  <EState_VSA5>
24.83

>  <EState_VSA6>
0

>  <EState_VSA7>
12.13

>  <EState_VSA8>
30.88

>  <EState_VSA9>
16.34

>  <EState_VSA10>
0

>  <VSA_EState1>
6.45

>  <VSA_EState2>
2.42

>  <VSA_EState3>
0.8

>  <VSA_EState4>
1.21

>  <VSA_EState5>
0

>  <VSA_EState6>
8.26

>  <VSA_EState7>
6.11

>  <VSA_EState8>
8.42

>  <VSA_EState9>
0

>  <apol>
52.81

>  <bpol>
32.05

>  <nRing>
2

>  <nHRing>
0

>  <naRing>
1

>  <naHRing>
0

>  <nARing 2>
1

>  <nAHRing 2>
0

>  <nFRing>
0

>  <nFHRing>
0

>  <nFaRing>
0

>  <nFaHRing>
0

>  <nFARing 2>
0

>  <nFAHRing 2>
0

>  <nRot>
7

>  <SLogP>
4.86

>  <SMR>
89.96

>  <TopoPSA(NO)>
12.47

>  <TopoPSA>
12.47

>  <JGI1>
0.2

>  <JGI2>
0.09

>  <JGI3>
0.04

>  <JGI4>
0.02

>  <JGI5>
0.02

>  <Diameter>
11

>  <Radius>
6

>  <TMWC10>
115.46

>  <TSRW10>
54.5

>  <MW>
309.19

>  <AMW>
6.31

>  <WPath>
972

>  <WPol>
31

>  <Zagreb1>
102

>  <Zagreb2>
117

>  <mZagreb2>
4.96

>  <yes>


>  <nAR-cont>
0.816016

>  <nHA-cont>
0.994529749

>  <MWHBN>
0.113741061

>  <MWHBN-cont>
0.801188474

>  <TPSA-cont>
0.912951657

>  <pka_cont>
0.97

>  <yes.1>


>  <BBB_SCORE>
5.323231774

>  <MMFF94 Energy>
61.513

$$$$
Compound 1213
Actelion Java MolfileCreator 2.0

  0  0  0  0  0  0              0 V3000
M  V30 BEGIN CTAB
M  V30 COUNTS 54 57 0 0 0
M  V30 BEGIN ATOM
M  V30 1 S -0.805 0.4829 -2.4972 0
M  V30 2 O -2.1964 0.3726 -2.8623 0
M  V30 3 O 0.0782 -0.6568 -2.4854 0
M  V30 4 N -0.0967 1.7179 -3.3981 0
M  V30 5 N -0.7124 1.1827 -0.9831 0
M  V30 6 C 1.3472 1.9664 -3.1857 0
M  V30 7 C -0.9171 2.9394 -3.5906 0
M  V30 8 C -1.6871 0.7308 0.0523 0 CFG=2
M  V30 9 C 2.0196 2.3187 -4.5028 0
M  V30 10 C -1.5436 2.9158 -4.9743 0
M  V30 11 C -1.4375 1.5755 1.3176 0
M  V30 12 C -1.5462 -0.7555 0.389 0
M  V30 13 N -0.0898 1.3248 1.8872 0
M  V30 14 C -0.2097 -1.0743 1.0812 0 CFG=1
M  V30 15 C 0.0143 -0.1006 2.324 0 CFG=1
M  V30 16 C 0.1375 2.265 2.9897 0
M  V30 17 C -0.0844 -2.5306 1.5002 0
M  V30 18 C 1.3611 -0.4222 3.0835 0
M  V30 19 C 0.7439 -2.8016 2.5963 0
M  V30 20 C -0.6402 -3.6441 0.8564 0
M  V30 21 C 1.4545 -1.8794 3.3903 0
M  V30 22 C 0.982 -4.0803 3.0604 0
M  V30 23 C -0.4032 -4.9449 1.3292 0
M  V30 24 C 2.1263 -2.6072 4.345 0
M  V30 25 N 1.8309 -3.9399 4.1368 0
M  V30 26 C 0.4093 -5.1941 2.4471 0
M  V30 27 H 0.2404 1.1359 -0.6159 0
M  V30 28 H 1.8432 1.0769 -2.7845 0
M  V30 29 H 1.4902 2.7706 -2.4552 0
M  V30 30 H -0.304 3.8413 -3.4833 0
M  V30 31 H -1.7002 3.0175 -2.8285 0
M  V30 32 H -2.7009 0.9394 -0.3087 0
M  V30 33 H 1.6289 3.2535 -4.9167 0
M  V30 34 H 3.0973 2.4418 -4.3565 0
M  V30 35 H 1.8623 1.53 -5.2459 0
M  V30 36 H -2.1953 2.0456 -5.1016 0
M  V30 37 H -2.144 3.8167 -5.1345 0
M  V30 38 H -0.777 2.8738 -5.7548 0
M  V30 39 H -2.2184 1.372 2.0626 0
M  V30 40 H -1.5225 2.6348 1.0408 0
M  V30 41 H -1.6681 -1.36 -0.5153 0
M  V30 42 H -2.3721 -1.0416 1.0552 0
M  V30 43 H 0.6057 -0.8966 0.366 0
M  V30 44 H -0.7976 -0.2997 3.0428 0
M  V30 45 H -0.0262 3.297 2.6579 0
M  V30 46 H 1.1769 2.23 3.3304 0
M  V30 47 H -0.5234 2.0709 3.8419 0
M  V30 48 H 1.4124 0.1358 4.025 0
M  V30 49 H 2.2166 -0.127 2.4639 0
M  V30 50 H -1.2561 -3.5208 -0.0309 0
M  V30 51 H -0.8542 -5.7863 0.806 0
M  V30 52 H 2.7856 -2.3093 5.149 0
M  V30 53 H 2.1906 -4.7073 4.6867 0
M  V30 54 H 0.5904 -6.2034 2.7981 0
M  V30 END ATOM
M  V30 BEGIN BOND
M  V30 1 2 1 2
M  V30 2 2 1 3
M  V30 3 1 1 4
M  V30 4 1 1 5
M  V30 5 1 4 6
M  V30 6 1 4 7
M  V30 7 1 5 8
M  V30 8 1 6 9
M  V30 9 1 7 10
M  V30 10 1 8 11
M  V30 11 1 8 12
M  V30 12 1 11 13
M  V30 13 1 12 14
M  V30 14 1 13 15
M  V30 15 1 13 16
M  V30 16 1 14 17
M  V30 17 1 15 18
M  V30 18 2 17 19
M  V30 19 1 17 20
M  V30 20 1 18 21
M  V30 21 1 19 22
M  V30 22 2 20 23
M  V30 23 2 21 24
M  V30 24 1 22 25
M  V30 25 2 22 26
M  V30 26 1 14 15
M  V30 27 1 19 21
M  V30 28 1 23 26
M  V30 29 1 24 25
M  V30 30 1 5 27
M  V30 31 1 6 28
M  V30 32 1 6 29
M  V30 33 1 7 30
M  V30 34 1 7 31
M  V30 35 1 8 32
M  V30 36 1 9 33
M  V30 37 1 9 34
M  V30 38 1 9 35
M  V30 39 1 10 36
M  V30 40 1 10 37
M  V30 41 1 10 38
M  V30 42 1 11 39
M  V30 43 1 11 40
M  V30 44 1 12 41
M  V30 45 1 12 42
M  V30 46 1 14 43
M  V30 47 1 15 44
M  V30 48 1 16 45
M  V30 49 1 16 46
M  V30 50 1 16 47
M  V30 51 1 18 48
M  V30 52 1 18 49
M  V30 53 1 20 50
M  V30 54 1 23 51
M  V30 55 1 24 52
M  V30 56 1 25 53
M  V30 57 1 26 54
M  V30 END BOND
M  V30 BEGIN COLLECTION
M  V30 MDLV30/STEABS ATOMS=(3 8 14 15)
M  V30 END COLLECTION
M  V30 END CTAB
M  END
>  <Column 1>
1443

>  <level_0>
1593

>  <index>
1593

>  <Unnamed: 0>
1593

>  <NO.>
1605

>  <Name>
etisulergine

>  <IUPAC_name>
(6ar-9s-10ar)-9-(diethylsulfamoylamino)-7-methyl-6-6a-8-9-10-10a-hexahydro-4h-indolo[4-3-fg]quinoline

>  <SMILES>
CCN(CC)S(=O)(=O)N[C@H]1C[C@@H]2c3cccc4[nH]cc(c34)C[C@H]2N(C)C1

>  <CID>
68847

>  <logBB>


>  <BBB+/BBB->
BBB+

>  <Inchi>
InChI=1S/C19H28N4O2S/c1-4-23(5-2)26(24-25)21-14-10-16-15-7-6-8-17-19(15)13(11-20-17)9-18(16)22(3)12-14/h6-8-11-14-16-18-20-21H-4-5-9-10-12H2-1-3H3/t14--16+-18+/m0/s1

>  <threshold>
-1

>  <reference>
R1|R6|R27|R30|

>  <group>
B

>  <Class>
1

>  <ABC>
20.63

>  <ABCGG>
16.66

>  <nAcid>
0

>  <nBase>
1

>  <nAromAtom>
9

>  <nAromBond>
10

>  <nAtom>
54

>  <nHeavyAtom>
26

>  <nSpiro>
0

>  <nBridgehead>
0

>  <nHetero>
7

>  <nN>
4

>  <nO>
2

>  <nF>
0

>  <BalabanJ>
1.49

>  <BertzCT>
903.4

>  <nBonds>
57

>  <nBondsO>
29

>  <nBondsS>
45

>  <nBondsD>
2

>  <nBondsT>
0

>  <nBondsA>
10

>  <nBondsM>
12

>  <nBondsKS>
51

>  <nBondsKD>
6

>  <RNCG>
0.2

>  <RPCG>
0.16

>  <FCSP3>
0.58

>  <SZ>
33.67

>  <Sm>
31.35

>  <Sv>
32.23

>  <Sse>
53.82

>  <Sp>
35.51

>  <Si>
61.32

>  <MZ>
0.62

>  <Mm>
0.58

>  <Mv>
0.6

>  <Mse>
1

>  <Mp>
0.66

>  <Mi>
1.14

>  <NsCH3>
3

>  <NdCH2>
0

>  <NssCH2>
5

>  <NtCH>
0

>  <NdsCH>
0

>  <NaaCH>
4

>  <NsssCH>
3

>  <NddC>
0

>  <NtsC>
0

>  <NdssC>
0

>  <NaasC>
2

>  <NaaaC>
2

>  <NssssC>
0

>  <NsNH3>
0

>  <NsNH2>
0

>  <NssNH2>
0

>  <NdNH>
0

>  <NssNH>
1

>  <NaaNH>
1

>  <NtN>
0

>  <NsssNH>
0

>  <NdsN>
0

>  <NaaN>
0

>  <NsssN>
2

>  <NddsN>
0

>  <NaasN>
0

>  <NssssN>
0

>  <NsOH>
0

>  <NdO>
2

>  <NssO>
0

>  <NaaO>
0

>  <NsF>
0

>  <NsSiH3>
0

>  <NssSiH2>
0

>  <NsssSiH>
0

>  <NssssSi>
0

>  <NsPH2>
0

>  <NssPH>
0

>  <NsssP>
0

>  <NdsssP>
0

>  <NsssssP>
0

>  <NsSH>
0

>  <NdS>
0

>  <NssS>
0

>  <NaaS>
0

>  <NdssS>
0

>  <NddssS>
1

>  <NsCl>
0

>  <NsBr>
0

>  <NsI>
0

>  <fragCpx>
191.07

>  <fMF>
0.3

>  <nHBAcc>
3

>  <nHBDon>
2

>  <Kier1>
19.32

>  <Kier2>
7.44

>  <Lipinski>
1

>  <GhoseFilter>
1

>  <FilterItLogS>
-4.21

>  <VMcGowan>
285.94

>  <LabuteASA>
155.29

>  <PEOE_VSA1>
9.88

>  <PEOE_VSA2>
0

>  <PEOE_VSA3>
0

>  <PEOE_VSA4>
17.45

>  <PEOE_VSA5>
0

>  <PEOE_VSA6>
25.98

>  <PEOE_VSA7>
37.08

>  <PEOE_VSA8>
54.74

>  <PEOE_VSA9>
0

>  <PEOE_VSA10>
0

>  <PEOE_VSA11>
0

>  <PEOE_VSA12>
0

>  <PEOE_VSA13>
10.21

>  <SMR_VSA1>
8.42

>  <SMR_VSA2>
0

>  <SMR_VSA3>
18.91

>  <SMR_VSA4>
0

>  <SMR_VSA5>
44.69

>  <SMR_VSA6>
26.68

>  <SMR_VSA7>
35.52

>  <SMR_VSA8>
0

>  <SMR_VSA9>
0

>  <SlogP_VSA1>
4.72

>  <SlogP_VSA2>
61.37

>  <SlogP_VSA3>
16.63

>  <SlogP_VSA4>
0

>  <SlogP_VSA5>
37.31

>  <SlogP_VSA6>
24.4

>  <SlogP_VSA7>
0

>  <SlogP_VSA8>
10.9

>  <SlogP_VSA9>
0

>  <SlogP_VSA10>
0

>  <SlogP_VSA11>
0

>  <EState_VSA1>
10.21

>  <EState_VSA2>
6.04

>  <EState_VSA3>
25.05

>  <EState_VSA4>
19.39

>  <EState_VSA5>
26.34

>  <EState_VSA6>
0

>  <EState_VSA7>
13.85

>  <EState_VSA8>
46.05

>  <EState_VSA9>
0

>  <EState_VSA10>
8.42

>  <VSA_EState1>
29.78

>  <VSA_EState2>
5.72

>  <VSA_EState3>
1.34

>  <VSA_EState4>
3.92

>  <VSA_EState5>
0.35

>  <VSA_EState6>
6.8

>  <VSA_EState7>
4

>  <VSA_EState8>
5.48

>  <VSA_EState9>
-1.32

>  <apol>
59.3

>  <bpol>
39.31

>  <nRing>
4

>  <nHRing>
2

>  <naRing>
2

>  <naHRing>
1

>  <nARing 2>
2

>  <nAHRing 2>
1

>  <nFRing>
1

>  <nFHRing>
1

>  <nFaRing>
0

>  <nFaHRing>
0

>  <nFARing 2>
1

>  <nFAHRing 2>
1

>  <nRot>
5

>  <SLogP>
2.06

>  <SMR>
104.54

>  <TopoPSA(NO)>
68.44

>  <TopoPSA>
76.82

>  <JGI1>
0.22

>  <JGI2>
0.09

>  <JGI3>
0.06

>  <JGI4>
0.04

>  <JGI5>
0.02

>  <Diameter>
11

>  <Radius>
6

>  <TMWC10>
132.98

>  <TSRW10>
75.78

>  <MW>
376.19

>  <AMW>
6.97

>  <WPath>
1574

>  <WPol>
48

>  <Zagreb1>
146

>  <Zagreb2>
179

>  <mZagreb2>
5.63

>  <yes>


>  <nAR-cont>
1

>  <nHA-cont>
0.892715677

>  <MWHBN>
0.257790187

>  <MWHBN-cont>
0.945735669

>  <TPSA-cont>
0.463748698

>  <pka_cont>
0.97

>  <yes.1>


>  <BBB_SCORE>
4.723816576

>  <MMFF94 Energy>
-111.8

$$$$
Compound 1214
Actelion Java MolfileCreator 2.0

  0  0  0  0  0  0              0 V3000
M  V30 BEGIN CTAB
M  V30 COUNTS 45 46 0 0 0
M  V30 BEGIN ATOM
M  V30 1 O 0.7033 -1.3288 2.8156 0
M  V30 2 C 1.1265 -0.1928 2.6272 0
M  V30 3 N 0.9563 0.5679 1.4822 0
M  V30 4 C 1.9552 0.4601 3.6848 0
M  V30 5 C 0.1832 0.2231 0.3524 0
M  V30 6 C 2.8999 -0.2905 4.4135 0
M  V30 7 C 1.7589 1.8238 3.9674 0
M  V30 8 C 0.4578 0.8229 -0.8847 0
M  V30 9 C -0.8866 -0.6625 0.4384 0
M  V30 10 N 3.1686 -1.6288 4.1328 0
M  V30 11 C 3.6987 0.3791 5.3492 0
M  V30 12 C 2.5383 2.459 4.9331 0
M  V30 13 C -0.351 0.5065 -2.0015 0
M  V30 14 C 1.5882 1.7991 -1.0701 0
M  V30 15 C -1.6689 -0.9613 -0.6883 0
M  V30 16 C 3.5148 1.7391 5.6151 0
M  V30 17 C -1.4324 -0.3913 -1.9471 0
M  V30 18 N -2.2124 -0.6896 -3.0598 0
M  V30 19 C -3.4097 -1.5362 -2.9669 0
M  V30 20 C -1.8847 -0.1945 -4.4029 0
M  V30 21 C -3.0522 -3.0088 -3.1097 0
M  V30 22 C -2.4987 1.1772 -4.6446 0
M  V30 23 H 1.5113 1.4088 1.407 0
M  V30 24 H 0.9872 2.3928 3.4547 0
M  V30 25 H -1.1507 -1.1373 1.3793 0
M  V30 26 H 2.45 -2.1258 3.601 0
M  V30 27 H 3.7128 -2.1806 4.7806 0
M  V30 28 H 4.4734 -0.1615 5.8878 0
M  V30 29 H 2.3854 3.5127 5.1533 0
M  V30 30 H -0.1096 1.0007 -2.9378 0
M  V30 31 H 1.721 2.0714 -2.1225 0
M  V30 32 H 1.3881 2.719 -0.5112 0
M  V30 33 H 2.5318 1.3605 -0.7293 0
M  V30 34 H -2.4745 -1.6722 -0.5348 0
M  V30 35 H 4.1354 2.2323 6.3595 0
M  V30 36 H -4.1093 -1.2734 -3.7711 0
M  V30 37 H -3.9687 -1.3529 -2.0423 0
M  V30 38 H -2.2816 -0.8854 -5.1579 0
M  V30 39 H -0.8035 -0.1806 -4.5804 0
M  V30 40 H -2.3749 -3.3419 -2.3177 0
M  V30 41 H -2.5608 -3.2025 -4.0689 0
M  V30 42 H -3.9569 -3.6231 -3.0624 0
M  V30 43 H -2.1222 1.9222 -3.9372 0
M  V30 44 H -3.5884 1.1433 -4.5409 0
M  V30 45 H -2.2651 1.5224 -5.6566 0
M  V30 END ATOM
M  V30 BEGIN BOND
M  V30 1 2 1 2
M  V30 2 1 2 3
M  V30 3 1 2 4
M  V30 4 1 3 5
M  V30 5 2 4 6
M  V30 6 1 4 7
M  V30 7 2 5 8
M  V30 8 1 5 9
M  V30 9 1 6 10
M  V30 10 1 6 11
M  V30 11 2 7 12
M  V30 12 1 8 13
M  V30 13 1 8 14
M  V30 14 2 9 15
M  V30 15 2 11 16
M  V30 16 2 13 17
M  V30 17 1 17 18
M  V30 18 1 18 19
M  V30 19 1 18 20
M  V30 20 1 19 21
M  V30 21 1 20 22
M  V30 22 1 12 16
M  V30 23 1 15 17
M  V30 24 1 3 23
M  V30 25 1 7 24
M  V30 26 1 9 25
M  V30 27 1 10 26
M  V30 28 1 10 27
M  V30 29 1 11 28
M  V30 30 1 12 29
M  V30 31 1 13 30
M  V30 32 1 14 31
M  V30 33 1 14 32
M  V30 34 1 14 33
M  V30 35 1 15 34
M  V30 36 1 16 35
M  V30 37 1 19 36
M  V30 38 1 19 37
M  V30 39 1 20 38
M  V30 40 1 20 39
M  V30 41 1 21 40
M  V30 42 1 21 41
M  V30 43 1 21 42
M  V30 44 1 22 43
M  V30 45 1 22 44
M  V30 46 1 22 45
M  V30 END BOND
M  V30 END CTAB
M  END
>  <Column 1>
1444

>  <level_0>
1594

>  <index>
1594

>  <Unnamed: 0>
1594

>  <NO.>
1606

>  <Name>
atolide

>  <IUPAC_name>
2-amino-n-[4-(diethylamino)-2-methylphenyl]benzamide

>  <SMILES>
CCN(CC)c1ccc(NC(=O)c2ccccc2N)c(C)c1

>  <CID>
27761

>  <logBB>


>  <BBB+/BBB->
BBB+

>  <Inchi>
InChI=1S/C18H23N3O/c1-4-21(5-2)14-10-11-17(13(3)12-14)20-18(22)15-8-6-7-9-16(15)19/h6-12H-4-5-19H2-1-3H3-(H-20-22)

>  <threshold>
-1

>  <reference>
R1|R13|R19|R6|R24|R27|R27|R27|R30|R30|

>  <group>
B

>  <Class>
-1

>  <ABC>
16.43

>  <ABCGG>
13.98

>  <nAcid>
0

>  <nBase>
0

>  <nAromAtom>
12

>  <nAromBond>
12

>  <nAtom>
45

>  <nHeavyAtom>
22

>  <nSpiro>
0

>  <nBridgehead>
0

>  <nHetero>
4

>  <nN>
3

>  <nO>
1

>  <nF>
0

>  <BalabanJ>
1.84

>  <BertzCT>
663.13

>  <nBonds>
46

>  <nBondsO>
23

>  <nBondsS>
33

>  <nBondsD>
1

>  <nBondsT>
0

>  <nBondsA>
12

>  <nBondsM>
13

>  <nBondsKS>
39

>  <nBondsKD>
7

>  <RNCG>
0.22

>  <RPCG>
0.14

>  <FCSP3>
0.28

>  <SZ>
26.67

>  <Sm>
24.76

>  <Sv>
27.22

>  <Sse>
44.53

>  <Sp>
29.64

>  <Si>
50.86

>  <MZ>
0.59

>  <Mm>
0.55

>  <Mv>
0.6

>  <Mse>
0.99

>  <Mp>
0.66

>  <Mi>
1.13

>  <NsCH3>
3

>  <NdCH2>
0

>  <NssCH2>
2

>  <NtCH>
0

>  <NdsCH>
0

>  <NaaCH>
7

>  <NsssCH>
0

>  <NddC>
0

>  <NtsC>
0

>  <NdssC>
1

>  <NaasC>
5

>  <NaaaC>
0

>  <NssssC>
0

>  <NsNH3>
0

>  <NsNH2>
1

>  <NssNH2>
0

>  <NdNH>
0

>  <NssNH>
1

>  <NaaNH>
0

>  <NtN>
0

>  <NsssNH>
0

>  <NdsN>
0

>  <NaaN>
0

>  <NsssN>
1

>  <NddsN>
0

>  <NaasN>
0

>  <NssssN>
0

>  <NsOH>
0

>  <NdO>
1

>  <NssO>
0

>  <NaaO>
0

>  <NsF>
0

>  <NsSiH3>
0

>  <NssSiH2>
0

>  <NsssSiH>
0

>  <NssssSi>
0

>  <NsPH2>
0

>  <NssPH>
0

>  <NsssP>
0

>  <NdsssP>
0

>  <NsssssP>
0

>  <NsSH>
0

>  <NdS>
0

>  <NssS>
0

>  <NaaS>
0

>  <NdssS>
0

>  <NddssS>
0

>  <NsCl>
0

>  <NsBr>
0

>  <NsI>
0

>  <fragCpx>
67.04

>  <fMF>
0.31

>  <nHBAcc>
3

>  <nHBDon>
2

>  <Kier1>
18.34

>  <Kier2>
8.74

>  <Lipinski>
1

>  <GhoseFilter>
1

>  <FilterItLogS>
-4.79

>  <VMcGowan>
248.47

>  <LabuteASA>
131.49

>  <PEOE_VSA1>
15.95

>  <PEOE_VSA2>
4.79

>  <PEOE_VSA3>
0

>  <PEOE_VSA4>
0

>  <PEOE_VSA5>
0

>  <PEOE_VSA6>
12.13

>  <PEOE_VSA7>
56.67

>  <PEOE_VSA8>
30.15

>  <PEOE_VSA9>
5.56

>  <PEOE_VSA10>
0

>  <PEOE_VSA11>
0

>  <PEOE_VSA12>
0

>  <PEOE_VSA13>
5.91

>  <SMR_VSA1>
4.79

>  <SMR_VSA2>
0

>  <SMR_VSA3>
0

>  <SMR_VSA4>
0

>  <SMR_VSA5>
20.77

>  <SMR_VSA6>
29.04

>  <SMR_VSA7>
53.59

>  <SMR_VSA8>
0

>  <SMR_VSA9>
0

>  <SlogP_VSA1>
15.95

>  <SlogP_VSA2>
19

>  <SlogP_VSA3>
0

>  <SlogP_VSA4>
6.92

>  <SlogP_VSA5>
29.77

>  <SlogP_VSA6>
42.46

>  <SlogP_VSA7>
0

>  <SlogP_VSA8>
0

>  <SlogP_VSA9>
0

>  <SlogP_VSA10>
17.06

>  <SlogP_VSA11>
0

>  <EState_VSA1>
0

>  <EState_VSA2>
5.91

>  <EState_VSA3>
11.25

>  <EState_VSA4>
24.34

>  <EState_VSA5>
5.69

>  <EState_VSA6>
12.13

>  <EState_VSA7>
31.19

>  <EState_VSA8>
30.13

>  <EState_VSA9>
5.73

>  <EState_VSA10>
4.79

>  <VSA_EState1>
0

>  <VSA_EState2>
14.59

>  <VSA_EState3>
2.93

>  <VSA_EState4>
9.83

>  <VSA_EState5>
-0.18

>  <VSA_EState6>
13.15

>  <VSA_EState7>
0

>  <VSA_EState8>
8.18

>  <VSA_EState9>
0

>  <apol>
49.5

>  <bpol>
25.65

>  <nRing>
2

>  <nHRing>
0

>  <naRing>
2

>  <naHRing>
0

>  <nARing 2>
0

>  <nAHRing 2>
0

>  <nFRing>
0

>  <nFHRing>
0

>  <nFaRing>
0

>  <nFaHRing>
0

>  <nFARing 2>
0

>  <nFAHRing 2>
0

>  <nRot>
5

>  <SLogP>
3.68

>  <SMR>
93.55

>  <TopoPSA(NO)>
58.36

>  <TopoPSA>
58.36

>  <JGI1>
0.2

>  <JGI2>
0.1

>  <JGI3>
0.05

>  <JGI4>
0.04

>  <JGI5>
0.03

>  <Diameter>
12

>  <Radius>
6

>  <TMWC10>
117.85

>  <TSRW10>
55.73

>  <MW>
297.18

>  <AMW>
6.6

>  <WPath>
1139

>  <WPol>
34

>  <Zagreb1>
108

>  <Zagreb2>
125

>  <mZagreb2>
5.11

>  <yes>


>  <nAR-cont>
0.336376

>  <nHA-cont>
0.983774276

>  <MWHBN>
0.290041549

>  <MWHBN-cont>
0.869435129

>  <TPSA-cont>
0.592610961

>  <pka_cont>
0.97

>  <yes.1>


>  <BBB_SCORE>
4.294524891

>  <MMFF94 Energy>
52.685

$$$$
Compound 1215
Actelion Java MolfileCreator 2.0

  0  0  0  0  0  0              0 V3000
M  V30 BEGIN CTAB
M  V30 COUNTS 27 28 0 0 0
M  V30 BEGIN ATOM
M  V30 1 O -0.6323 -2.4522 2.2938 0
M  V30 2 C -0.3809 -1.9278 1.2221 0
M  V30 3 N -1.2572 -1.5971 0.2332 0
M  V30 4 N 0.884 -1.5632 0.8282 0
M  V30 5 C -0.6006 -1.0084 -0.816 0
M  V30 6 C -2.687 -1.8128 0.2954 0
M  V30 7 C 0.8918 -0.9509 -0.4736 0 CFG=1
M  V30 8 O -1.1126 -0.6056 -1.8527 0
M  V30 9 C -3.4016 -0.6152 0.9012 0
M  V30 10 C 1.4646 0.4445 -0.4714 0
M  V30 11 C 1.2189 1.3496 0.5751 0
M  V30 12 C 2.2405 0.8752 -1.5596 0
M  V30 13 C 1.7504 2.6404 0.541 0
M  V30 14 C 2.7704 2.1667 -1.5916 0
M  V30 15 C 2.5272 3.0476 -0.5406 0
M  V30 16 H 1.6922 -1.713 1.4159 0
M  V30 17 H -2.886 -2.7026 0.9022 0
M  V30 18 H -3.0635 -1.9887 -0.7178 0
M  V30 19 H 1.4434 -1.6195 -1.1432 0
M  V30 20 H -3.2251 0.2888 0.309 0
M  V30 21 H -3.0483 -0.4206 1.9194 0
M  V30 22 H -4.4804 -0.7946 0.9406 0
M  V30 23 H 0.6086 1.0604 1.4287 0
M  V30 24 H 2.4336 0.2091 -2.3985 0
M  V30 25 H 1.5537 3.3302 1.3582 0
M  V30 26 H 3.3684 2.4876 -2.441 0
M  V30 27 H 2.9373 4.0539 -0.5679 0
M  V30 END ATOM
M  V30 BEGIN BOND
M  V30 1 2 1 2
M  V30 2 1 2 3
M  V30 3 1 2 4
M  V30 4 1 3 5
M  V30 5 1 3 6
M  V30 6 1 4 7
M  V30 7 2 5 8
M  V30 8 1 6 9
M  V30 9 1 7 10
M  V30 10 2 10 11
M  V30 11 1 10 12
M  V30 12 1 11 13
M  V30 13 2 12 14
M  V30 14 2 13 15
M  V30 15 1 5 7
M  V30 16 1 14 15
M  V30 17 1 4 16
M  V30 18 1 6 17
M  V30 19 1 6 18
M  V30 20 1 7 19
M  V30 21 1 9 20
M  V30 22 1 9 21
M  V30 23 1 9 22
M  V30 24 1 11 23
M  V30 25 1 12 24
M  V30 26 1 13 25
M  V30 27 1 14 26
M  V30 28 1 15 27
M  V30 END BOND
M  V30 BEGIN COLLECTION
M  V30 MDLV30/STERAC1 ATOMS=(1 7)
M  V30 END COLLECTION
M  V30 END CTAB
M  END
>  <Column 1>
1446

>  <level_0>
1596

>  <index>
1596

>  <Unnamed: 0>
1596

>  <NO.>
1608

>  <Name>
ethotoin

>  <IUPAC_name>
3-ethyl-5-phenylimidazolidine-2-4-dione

>  <SMILES>
CCN1C(=O)NC(c2ccccc2)C1=O

>  <CID>
3292

>  <logBB>


>  <BBB+/BBB->
BBB+

>  <Inchi>
InChI=1S/C11H12N2O2/c1-2-13-10(14)9(12-11(13)15)8-6-4-3-5-7-8/h3-7-9H-2H2-1H3-(H-12-15)

>  <threshold>
-1

>  <reference>
R1|R19|R6|R14|R23|R27|R27|R30|

>  <group>
B

>  <Class>
1

>  <ABC>
11.37

>  <ABCGG>
10.5

>  <nAcid>
0

>  <nBase>
0

>  <nAromAtom>
6

>  <nAromBond>
6

>  <nAtom>
27

>  <nHeavyAtom>
15

>  <nSpiro>
0

>  <nBridgehead>
0

>  <nHetero>
4

>  <nN>
2

>  <nO>
2

>  <nF>
0

>  <BalabanJ>
1.97

>  <BertzCT>
388.83

>  <nBonds>
28

>  <nBondsO>
16

>  <nBondsS>
20

>  <nBondsD>
2

>  <nBondsT>
0

>  <nBondsA>
6

>  <nBondsM>
8

>  <nBondsKS>
23

>  <nBondsKD>
5

>  <RNCG>
0.22

>  <RPCG>
0.22

>  <FCSP3>
0.27

>  <SZ>
18

>  <Sm>
17

>  <Sv>
17.2

>  <Sse>
27.31

>  <Sp>
18.07

>  <Si>
30.49

>  <MZ>
0.67

>  <Mm>
0.63

>  <Mv>
0.64

>  <Mse>
1.01

>  <Mp>
0.67

>  <Mi>
1.13

>  <NsCH3>
1

>  <NdCH2>
0

>  <NssCH2>
1

>  <NtCH>
0

>  <NdsCH>
0

>  <NaaCH>
5

>  <NsssCH>
1

>  <NddC>
0

>  <NtsC>
0

>  <NdssC>
2

>  <NaasC>
1

>  <NaaaC>
0

>  <NssssC>
0

>  <NsNH3>
0

>  <NsNH2>
0

>  <NssNH2>
0

>  <NdNH>
0

>  <NssNH>
1

>  <NaaNH>
0

>  <NtN>
0

>  <NsssNH>
0

>  <NdsN>
0

>  <NaaN>
0

>  <NsssN>
1

>  <NddsN>
0

>  <NaasN>
0

>  <NssssN>
0

>  <NsOH>
0

>  <NdO>
2

>  <NssO>
0

>  <NaaO>
0

>  <NsF>
0

>  <NsSiH3>
0

>  <NssSiH2>
0

>  <NsssSiH>
0

>  <NssssSi>
0

>  <NsPH2>
0

>  <NssPH>
0

>  <NsssP>
0

>  <NdsssP>
0

>  <NsssssP>
0

>  <NsSH>
0

>  <NdS>
0

>  <NssS>
0

>  <NaaS>
0

>  <NdssS>
0

>  <NddssS>
0

>  <NsCl>
0

>  <NsBr>
0

>  <NsI>
0

>  <fragCpx>
46.04

>  <fMF>
0.41

>  <nHBAcc>
2

>  <nHBDon>
1

>  <Kier1>
11.48

>  <Kier2>
4.89

>  <Lipinski>
1

>  <GhoseFilter>
1

>  <FilterItLogS>
-2.2

>  <VMcGowan>
154.33

>  <LabuteASA>
87.88

>  <PEOE_VSA1>
5.32

>  <PEOE_VSA2>
9.69

>  <PEOE_VSA3>
4.79

>  <PEOE_VSA4>
0

>  <PEOE_VSA5>
0

>  <PEOE_VSA6>
30.33

>  <PEOE_VSA7>
12.49

>  <PEOE_VSA8>
6.54

>  <PEOE_VSA9>
0

>  <PEOE_VSA10>
6.04

>  <PEOE_VSA11>
0

>  <PEOE_VSA12>
0

>  <PEOE_VSA13>
5.91

>  <SMR_VSA1>
9.59

>  <SMR_VSA2>
0

>  <SMR_VSA3>
10.22

>  <SMR_VSA4>
0

>  <SMR_VSA5>
12.97

>  <SMR_VSA6>
6.54

>  <SMR_VSA7>
35.9

>  <SMR_VSA8>
0

>  <SMR_VSA9>
0

>  <SlogP_VSA1>
5.32

>  <SlogP_VSA2>
23.38

>  <SlogP_VSA3>
4.79

>  <SlogP_VSA4>
0

>  <SlogP_VSA5>
18.53

>  <SlogP_VSA6>
30.33

>  <SlogP_VSA7>
0

>  <SlogP_VSA8>
0

>  <SlogP_VSA9>
0

>  <SlogP_VSA10>
4.79

>  <SlogP_VSA11>
0

>  <EState_VSA1>
6.04

>  <EState_VSA2>
11.94

>  <EState_VSA3>
6.54

>  <EState_VSA4>
5.56

>  <EState_VSA5>
4.9

>  <EState_VSA6>
6.92

>  <EState_VSA7>
30.33

>  <EState_VSA8>
5.32

>  <EState_VSA9>
0

>  <EState_VSA10>
9.59

>  <VSA_EState1>
0

>  <VSA_EState2>
24.4

>  <VSA_EState3>
2.66

>  <VSA_EState4>
0.83

>  <VSA_EState5>
-0.17

>  <VSA_EState6>
8.43

>  <VSA_EState7>
0

>  <VSA_EState8>
2.19

>  <VSA_EState9>
0

>  <apol>
30.18

>  <bpol>
16.05

>  <nRing>
2

>  <nHRing>
1

>  <naRing>
1

>  <naHRing>
0

>  <nARing 2>
1

>  <nAHRing 2>
1

>  <nFRing>
0

>  <nFHRing>
0

>  <nFaRing>
0

>  <nFaHRing>
0

>  <nFARing 2>
0

>  <nFAHRing 2>
0

>  <nRot>
2

>  <SLogP>
1.3

>  <SMR>
55.1

>  <TopoPSA(NO)>
49.41

>  <TopoPSA>
49.41

>  <JGI1>
0.16

>  <JGI2>
0.09

>  <JGI3>
0.08

>  <JGI4>
0.04

>  <JGI5>
0.03

>  <Diameter>
8

>  <Radius>
4

>  <TMWC10>
101.6

>  <TSRW10>
61.31

>  <MW>
204.09

>  <AMW>
7.56

>  <WPath>
353

>  <WPol>
22

>  <Zagreb1>
76

>  <Zagreb2>
90

>  <mZagreb2>
3.44

>  <yes>


>  <nAR-cont>
0.816016

>  <nHA-cont>
0.92539861

>  <MWHBN>
0.209995695

>  <MWHBN-cont>
0.999318482

>  <TPSA-cont>
0.655087518

>  <pka_cont>
0.97

>  <yes.1>


>  <BBB_SCORE>
5.03556737

>  <MMFF94 Energy>
-37.248

$$$$
Compound 1216
Actelion Java MolfileCreator 2.0

  0  0  0  0  0  0              0 V3000
M  V30 BEGIN CTAB
M  V30 COUNTS 58 61 0 0 0
M  V30 BEGIN ATOM
M  V30 1 O 0.3191 3.3544 -0.5584 0
M  V30 2 C -0.2753 2.3672 -0.1465 0
M  V30 3 N -0.66 2.1789 1.1782 0
M  V30 4 C -0.7965 1.1533 -0.9788 0
M  V30 5 C -1.3628 0.9416 1.3778 0
M  V30 6 C -0.4233 3.1308 2.2466 0
M  V30 7 C -2.1521 1.5947 -1.6132 0
M  V30 8 C 0.1416 0.6397 -2.093 0
M  V30 9 C -0.9177 0.084 0.1886 0 CFG=2
M  V30 10 C 0.7941 2.7523 3.0723 0
M  V30 11 C -2.1651 2.7118 -2.4759 0
M  V30 12 C -3.3703 0.9248 -1.405 0
M  V30 13 C -0.3015 -0.3917 -2.9487 0
M  V30 14 C 1.4469 1.1235 -2.2819 0
M  V30 15 C 0.4093 -0.6582 0.534 0
M  V30 16 C -3.343 3.1498 -3.0846 0
M  V30 17 C -4.5499 1.3652 -2.0158 0
M  V30 18 C 0.5207 -0.9057 -3.9538 0
M  V30 19 C 2.269 0.6072 -3.2885 0
M  V30 20 C 0.2032 -1.8193 1.5253 0
M  V30 21 C -4.537 2.4772 -2.8522 0
M  V30 22 C 1.8068 -0.4051 -4.1237 0
M  V30 23 N 1.4706 -2.4156 1.9775 0
M  V30 24 C 1.216 -3.3928 3.0613 0
M  V30 25 C 2.1967 -3.1038 0.8858 0
M  V30 26 C 2.5111 -4.0762 3.5256 0
M  V30 27 C 3.4646 -3.8064 1.4011 0
M  V30 28 O 3.1563 -4.7478 2.4369 0
M  V30 29 H -1.1134 0.5219 2.3541 0
M  V30 30 H -2.4366 1.1543 1.3559 0
M  V30 31 H -1.3202 3.1768 2.8732 0
M  V30 32 H -0.2649 4.1226 1.8097 0
M  V30 33 H -1.655 -0.6924 -0.0366 0
M  V30 34 H 1.6913 2.7033 2.4463 0
M  V30 35 H 0.664 1.773 3.5442 0
M  V30 36 H 0.9647 3.4915 3.8609 0
M  V30 37 H -1.2429 3.2546 -2.6854 0
M  V30 38 H -3.4433 0.0463 -0.7733 0
M  V30 39 H -1.3032 -0.8036 -2.8422 0
M  V30 40 H 1.8592 1.9086 -1.6524 0
M  V30 41 H 0.8318 -1.0848 -0.3788 0
M  V30 42 H 1.1483 0.047 0.9344 0
M  V30 43 H -3.3216 4.0156 -3.7415 0
M  V30 44 H -5.4823 0.8343 -1.8396 0
M  V30 45 H 0.153 -1.6937 -4.6057 0
M  V30 46 H 3.2735 1.0026 -3.4183 0
M  V30 47 H -0.3267 -1.4436 2.4064 0
M  V30 48 H -0.4442 -2.5796 1.069 0
M  V30 49 H -5.4542 2.8162 -3.326 0
M  V30 50 H 2.4476 -0.7999 -4.9072 0
M  V30 51 H 0.7615 -2.8864 3.9207 0
M  V30 52 H 0.5153 -4.1621 2.7106 0
M  V30 53 H 1.5423 -3.8507 0.4179 0
M  V30 54 H 2.5044 -2.3888 0.1162 0
M  V30 55 H 2.2801 -4.8279 4.2872 0
M  V30 56 H 3.2059 -3.3538 3.9711 0
M  V30 57 H 3.9384 -4.3591 0.5834 0
M  V30 58 H 4.1952 -3.0801 1.7778 0
M  V30 END ATOM
M  V30 BEGIN BOND
M  V30 1 2 1 2
M  V30 2 1 2 3
M  V30 3 1 2 4
M  V30 4 1 3 5
M  V30 5 1 3 6
M  V30 6 1 4 7
M  V30 7 1 4 8
M  V30 8 1 4 9
M  V30 9 1 6 10
M  V30 10 2 7 11
M  V30 11 1 7 12
M  V30 12 2 8 13
M  V30 13 1 8 14
M  V30 14 1 9 15
M  V30 15 1 11 16
M  V30 16 2 12 17
M  V30 17 1 13 18
M  V30 18 2 14 19
M  V30 19 1 15 20
M  V30 20 2 16 21
M  V30 21 2 18 22
M  V30 22 1 20 23
M  V30 23 1 23 24
M  V30 24 1 23 25
M  V30 25 1 24 26
M  V30 26 1 25 27
M  V30 27 1 26 28
M  V30 28 1 5 9
M  V30 29 1 17 21
M  V30 30 1 19 22
M  V30 31 1 27 28
M  V30 32 1 5 29
M  V30 33 1 5 30
M  V30 34 1 6 31
M  V30 35 1 6 32
M  V30 36 1 9 33
M  V30 37 1 10 34
M  V30 38 1 10 35
M  V30 39 1 10 36
M  V30 40 1 11 37
M  V30 41 1 12 38
M  V30 42 1 13 39
M  V30 43 1 14 40
M  V30 44 1 15 41
M  V30 45 1 15 42
M  V30 46 1 16 43
M  V30 47 1 17 44
M  V30 48 1 18 45
M  V30 49 1 19 46
M  V30 50 1 20 47
M  V30 51 1 20 48
M  V30 52 1 21 49
M  V30 53 1 22 50
M  V30 54 1 24 51
M  V30 55 1 24 52
M  V30 56 1 25 53
M  V30 57 1 25 54
M  V30 58 1 26 55
M  V30 59 1 26 56
M  V30 60 1 27 57
M  V30 61 1 27 58
M  V30 END BOND
M  V30 BEGIN COLLECTION
M  V30 MDLV30/STERAC1 ATOMS=(1 9)
M  V30 END COLLECTION
M  V30 END CTAB
M  END
>  <Column 1>
1447

>  <level_0>
1597

>  <index>
1597

>  <Unnamed: 0>
1597

>  <NO.>
1609

>  <Name>
doxapram

>  <IUPAC_name>
1-ethyl-4-(2-morpholin-4-ylethyl)-3-3-diphenylpyrrolidin-2-one

>  <SMILES>
CCN1CC(CCN2CCOCC2)C(c2ccccc2)(c2ccccc2)C1=O

>  <CID>
3156

>  <logBB>


>  <BBB+/BBB->
BBB+

>  <Inchi>
InChI=1S/C24H30N2O2/c1-2-26-19-22(13-14-25-15-17-28-18-16-25)24(23(26)27-20-9-5-3-6-10-20)21-11-7-4-8-12-21/h3-12-22H-2-13-19H2-1H3

>  <threshold>
-1

>  <reference>
R1|R13|R19|R6|R14|R23|R27|R27|R30|

>  <group>
B

>  <Class>
1

>  <ABC>
21.74

>  <ABCGG>
17.86

>  <nAcid>
0

>  <nBase>
1

>  <nAromAtom>
12

>  <nAromBond>
12

>  <nAtom>
58

>  <nHeavyAtom>
28

>  <nSpiro>
0

>  <nBridgehead>
0

>  <nHetero>
4

>  <nN>
2

>  <nO>
2

>  <nF>
0

>  <BalabanJ>
1.59

>  <BertzCT>
732.21

>  <nBonds>
61

>  <nBondsO>
31

>  <nBondsS>
48

>  <nBondsD>
1

>  <nBondsT>
0

>  <nBondsA>
12

>  <nBondsM>
13

>  <nBondsKS>
54

>  <nBondsKD>
7

>  <RNCG>
0.19

>  <RPCG>
0.12

>  <FCSP3>
0.46

>  <SZ>
34

>  <Sm>
31.51

>  <Sv>
35.07

>  <Sse>
57.31

>  <Sp>
38.26

>  <Si>
65.23

>  <MZ>
0.59

>  <Mm>
0.54

>  <Mv>
0.6

>  <Mse>
0.99

>  <Mp>
0.66

>  <Mi>
1.12

>  <NsCH3>
1

>  <NdCH2>
0

>  <NssCH2>
8

>  <NtCH>
0

>  <NdsCH>
0

>  <NaaCH>
10

>  <NsssCH>
1

>  <NddC>
0

>  <NtsC>
0

>  <NdssC>
1

>  <NaasC>
2

>  <NaaaC>
0

>  <NssssC>
1

>  <NsNH3>
0

>  <NsNH2>
0

>  <NssNH2>
0

>  <NdNH>
0

>  <NssNH>
0

>  <NaaNH>
0

>  <NtN>
0

>  <NsssNH>
0

>  <NdsN>
0

>  <NaaN>
0

>  <NsssN>
2

>  <NddsN>
0

>  <NaasN>
0

>  <NssssN>
0

>  <NsOH>
0

>  <NdO>
1

>  <NssO>
1

>  <NaaO>
0

>  <NsF>
0

>  <NsSiH3>
0

>  <NssSiH2>
0

>  <NsssSiH>
0

>  <NssssSi>
0

>  <NsPH2>
0

>  <NssPH>
0

>  <NsssP>
0

>  <NdsssP>
0

>  <NsssssP>
0

>  <NsSH>
0

>  <NdS>
0

>  <NssS>
0

>  <NaaS>
0

>  <NdssS>
0

>  <NddssS>
0

>  <NsCl>
0

>  <NsBr>
0

>  <NsI>
0

>  <fragCpx>
205.04

>  <fMF>
0.43

>  <nHBAcc>
3

>  <nHBDon>
0

>  <Kier1>
21.24

>  <Kier2>
9.87

>  <Lipinski>
1

>  <GhoseFilter>
1

>  <FilterItLogS>
-5.22

>  <VMcGowan>
307.18

>  <LabuteASA>
167.65

>  <PEOE_VSA1>
9.64

>  <PEOE_VSA2>
9.69

>  <PEOE_VSA3>
0

>  <PEOE_VSA4>
0

>  <PEOE_VSA5>
0

>  <PEOE_VSA6>
60.66

>  <PEOE_VSA7>
31.02

>  <PEOE_VSA8>
32.1

>  <PEOE_VSA9>
13.21

>  <PEOE_VSA10>
5.41

>  <PEOE_VSA11>
0

>  <PEOE_VSA12>
5.91

>  <PEOE_VSA13>
0

>  <SMR_VSA1>
9.53

>  <SMR_VSA2>
0

>  <SMR_VSA3>
9.8

>  <SMR_VSA4>
5.92

>  <SMR_VSA5>
18.76

>  <SMR_VSA6>
45.94

>  <SMR_VSA7>
71.79

>  <SMR_VSA8>
0

>  <SMR_VSA9>
0

>  <SlogP_VSA1>
0

>  <SlogP_VSA2>
61.64

>  <SlogP_VSA3>
14.95

>  <SlogP_VSA4>
5.92

>  <SlogP_VSA5>
24.47

>  <SlogP_VSA6>
60.66

>  <SlogP_VSA7>
0

>  <SlogP_VSA8>
0

>  <SlogP_VSA9>
0

>  <SlogP_VSA10>
0

>  <SlogP_VSA11>
0

>  <EState_VSA1>
5.41

>  <EState_VSA2>
11.83

>  <EState_VSA3>
0

>  <EState_VSA4>
63.49

>  <EState_VSA5>
0

>  <EState_VSA6>
0

>  <EState_VSA7>
17.03

>  <EState_VSA8>
60.35

>  <EState_VSA9>
4.74

>  <EState_VSA10>
4.79

>  <VSA_EState1>
5.5

>  <VSA_EState2>
18.33

>  <VSA_EState3>
0

>  <VSA_EState4>
1.65

>  <VSA_EState5>
0.51

>  <VSA_EState6>
20.81

>  <VSA_EState7>
1.01

>  <VSA_EState8>
8.28

>  <VSA_EState9>
0

>  <apol>
63.89

>  <bpol>
36.12

>  <nRing>
4

>  <nHRing>
2

>  <naRing>
2

>  <naHRing>
0

>  <nARing 2>
2

>  <nAHRing 2>
2

>  <nFRing>
0

>  <nFHRing>
0

>  <nFaRing>
0

>  <nFaHRing>
0

>  <nFARing 2>
0

>  <nFAHRing 2>
0

>  <nRot>
6

>  <SLogP>
3.17

>  <SMR>
111.28

>  <TopoPSA(NO)>
32.78

>  <TopoPSA>
32.78

>  <JGI1>
0.15

>  <JGI2>
0.08

>  <JGI3>
0.06

>  <JGI4>
0.03

>  <JGI5>
0.01

>  <Diameter>
11

>  <Radius>
6

>  <TMWC10>
137.03

>  <TSRW10>
78.3

>  <MW>
378.23

>  <AMW>
6.52

>  <WPath>
1843

>  <WPol>
49

>  <Zagreb1>
148

>  <Zagreb2>
180

>  <mZagreb2>
6.36

>  <yes>


>  <nAR-cont>
1

>  <nHA-cont>
0.82432561

>  <MWHBN>
0.154256427

>  <MWHBN-cont>
0.943081176

>  <TPSA-cont>
0.771175245

>  <pka_cont>
0.97

>  <yes.1>


>  <BBB_SCORE>
5.266297864

>  <MMFF94 Energy>
139.2

$$$$
Compound 1217
Actelion Java MolfileCreator 2.0

  0  0  0  0  0  0              0 V3000
M  V30 BEGIN CTAB
M  V30 COUNTS 41 43 0 0 0
M  V30 BEGIN ATOM
M  V30 1 N 1.268 1.0301 2.6166 0
M  V30 2 C 0.062 0.8731 1.7709 0
M  V30 3 C 2.2839 1.52 1.6657 0
M  V30 4 C 1.6812 -0.24 3.2333 0
M  V30 5 C 0.5477 0.5586 0.3756 0
M  V30 6 C 2.0363 0.7864 0.3536 0
M  V30 7 C 0.8053 -0.5929 4.4314 0
M  V30 8 C -0.2126 0.1411 -0.6633 0
M  V30 9 C 0.4352 -0.1696 -1.9593 0
M  V30 10 C -1.6768 0.0038 -0.4801 0
M  V30 11 C 0.2441 0.678 -3.0573 0
M  V30 12 C 1.2244 -1.3177 -2.1107 0
M  V30 13 C -2.2588 -1.2688 -0.4346 0
M  V30 14 C -2.4959 1.1354 -0.3676 0
M  V30 15 C 0.8437 0.3884 -4.2846 0
M  V30 16 C 1.8234 -1.6057 -3.3384 0
M  V30 17 C -3.638 -1.4078 -0.2662 0
M  V30 18 C -3.8746 0.9946 -0.1987 0
M  V30 19 C 1.6337 -0.7518 -4.4239 0
M  V30 20 C -4.4444 -0.2766 -0.1467 0
M  V30 21 H -0.6298 0.1185 2.1561 0
M  V30 22 H -0.462 1.8366 1.762 0
M  V30 23 H 3.3112 1.3938 2.0251 0
M  V30 24 H 2.1343 2.5986 1.5224 0
M  V30 25 H 1.6849 -1.0714 2.518 0
M  V30 26 H 2.7064 -0.1404 3.6117 0
M  V30 27 H 2.3616 1.3929 -0.4966 0
M  V30 28 H 2.5675 -0.1716 0.3503 0
M  V30 29 H 1.1947 -1.4889 4.9261 0
M  V30 30 H -0.2286 -0.7998 4.1405 0
M  V30 31 H 0.7996 0.2185 5.1672 0
M  V30 32 H -0.3725 1.5684 -2.9614 0
M  V30 33 H 1.3728 -1.9934 -1.272 0
M  V30 34 H -1.6405 -2.1579 -0.5292 0
M  V30 35 H -2.063 2.1319 -0.4132 0
M  V30 36 H 0.6914 1.0518 -5.1318 0
M  V30 37 H 2.4348 -2.4973 -3.448 0
M  V30 38 H -4.0824 -2.3988 -0.2304 0
M  V30 39 H -4.5035 1.8765 -0.1101 0
M  V30 40 H 2.0984 -0.9769 -5.3802 0
M  V30 41 H -5.518 -0.3861 -0.0166 0
M  V30 END ATOM
M  V30 BEGIN BOND
M  V30 1 1 1 2
M  V30 2 1 1 3
M  V30 3 1 1 4
M  V30 4 1 2 5
M  V30 5 1 3 6
M  V30 6 1 4 7
M  V30 7 2 5 8
M  V30 8 1 8 9
M  V30 9 1 8 10
M  V30 10 2 9 11
M  V30 11 1 9 12
M  V30 12 2 10 13
M  V30 13 1 10 14
M  V30 14 1 11 15
M  V30 15 2 12 16
M  V30 16 1 13 17
M  V30 17 2 14 18
M  V30 18 2 15 19
M  V30 19 2 17 20
M  V30 20 1 5 6
M  V30 21 1 16 19
M  V30 22 1 18 20
M  V30 23 1 2 21
M  V30 24 1 2 22
M  V30 25 1 3 23
M  V30 26 1 3 24
M  V30 27 1 4 25
M  V30 28 1 4 26
M  V30 29 1 6 27
M  V30 30 1 6 28
M  V30 31 1 7 29
M  V30 32 1 7 30
M  V30 33 1 7 31
M  V30 34 1 11 32
M  V30 35 1 12 33
M  V30 36 1 13 34
M  V30 37 1 14 35
M  V30 38 1 15 36
M  V30 39 1 16 37
M  V30 40 1 17 38
M  V30 41 1 18 39
M  V30 42 1 19 40
M  V30 43 1 20 41
M  V30 END BOND
M  V30 END CTAB
M  END
>  <Column 1>
1448

>  <level_0>
1598

>  <index>
1598

>  <Unnamed: 0>
1598

>  <NO.>
1610

>  <Name>
pridefine

>  <IUPAC_name>
3-benzhydrylidene-1-ethylpyrrolidine;hydron;chloride

>  <SMILES>
CCN1CCC(=C(c2ccccc2)c2ccccc2)C1

>  <CID>
31740

>  <logBB>


>  <BBB+/BBB->
BBB+

>  <Inchi>
InChI=1S/C19H21N/c1-2-20-14-13-18(15-20)19(16-9-5-3-6-10-16)17-11-7-4-8-12-17/h3-12H-2-13-15H2-1H3

>  <threshold>
-1

>  <reference>
R1|R13|R19|R6|R24|R27|R27|R27|R30|R30|

>  <group>
B

>  <Class>
1

>  <ABC>
15.44

>  <ABCGG>
13.19

>  <nAcid>
0

>  <nBase>
1

>  <nAromAtom>
12

>  <nAromBond>
12

>  <nAtom>
41

>  <nHeavyAtom>
20

>  <nSpiro>
0

>  <nBridgehead>
0

>  <nHetero>
1

>  <nN>
1

>  <nO>
0

>  <nF>
0

>  <BalabanJ>
1.68

>  <BertzCT>
542.18

>  <nBonds>
43

>  <nBondsO>
22

>  <nBondsS>
30

>  <nBondsD>
1

>  <nBondsT>
0

>  <nBondsA>
12

>  <nBondsM>
13

>  <nBondsKS>
36

>  <nBondsKD>
7

>  <RNCG>
0.28

>  <RPCG>
0.06

>  <FCSP3>
0.26

>  <SZ>
23.67

>  <Sm>
21.93

>  <Sv>
25.45

>  <Sse>
39.99

>  <Sp>
28.04

>  <Si>
45.65

>  <MZ>
0.58

>  <Mm>
0.53

>  <Mv>
0.62

>  <Mse>
0.98

>  <Mp>
0.68

>  <Mi>
1.11

>  <NsCH3>
1

>  <NdCH2>
0

>  <NssCH2>
4

>  <NtCH>
0

>  <NdsCH>
0

>  <NaaCH>
10

>  <NsssCH>
0

>  <NddC>
0

>  <NtsC>
0

>  <NdssC>
2

>  <NaasC>
2

>  <NaaaC>
0

>  <NssssC>
0

>  <NsNH3>
0

>  <NsNH2>
0

>  <NssNH2>
0

>  <NdNH>
0

>  <NssNH>
0

>  <NaaNH>
0

>  <NtN>
0

>  <NsssNH>
0

>  <NdsN>
0

>  <NaaN>
0

>  <NsssN>
1

>  <NddsN>
0

>  <NaasN>
0

>  <NssssN>
0

>  <NsOH>
0

>  <NdO>
0

>  <NssO>
0

>  <NaaO>
0

>  <NsF>
0

>  <NsSiH3>
0

>  <NssSiH2>
0

>  <NsssSiH>
0

>  <NssssSi>
0

>  <NsPH2>
0

>  <NssPH>
0

>  <NsssP>
0

>  <NdsssP>
0

>  <NsssssP>
0

>  <NsSH>
0

>  <NdS>
0

>  <NssS>
0

>  <NaaS>
0

>  <NdssS>
0

>  <NddssS>
0

>  <NsCl>
0

>  <NsBr>
0

>  <NsI>
0

>  <fragCpx>
104.01

>  <fMF>
0.44

>  <nHBAcc>
1

>  <nHBDon>
0

>  <Kier1>
14.92

>  <Kier2>
7.32

>  <Lipinski>
1

>  <GhoseFilter>
1

>  <FilterItLogS>
-4.67

>  <VMcGowan>
225.87

>  <LabuteASA>
121.11

>  <PEOE_VSA1>
0

>  <PEOE_VSA2>
4.9

>  <PEOE_VSA3>
0

>  <PEOE_VSA4>
0

>  <PEOE_VSA5>
0

>  <PEOE_VSA6>
67.59

>  <PEOE_VSA7>
35.24

>  <PEOE_VSA8>
13.09

>  <PEOE_VSA9>
0

>  <PEOE_VSA10>
0

>  <PEOE_VSA11>
0

>  <PEOE_VSA12>
0

>  <PEOE_VSA13>
0

>  <SMR_VSA1>
0

>  <SMR_VSA2>
0

>  <SMR_VSA3>
4.9

>  <SMR_VSA4>
0

>  <SMR_VSA5>
13.34

>  <SMR_VSA6>
19.63

>  <SMR_VSA7>
77.36

>  <SMR_VSA8>
0

>  <SMR_VSA9>
0

>  <SlogP_VSA1>
0

>  <SlogP_VSA2>
24.53

>  <SlogP_VSA3>
0

>  <SlogP_VSA4>
0

>  <SlogP_VSA5>
24.47

>  <SlogP_VSA6>
66.24

>  <SlogP_VSA7>
0

>  <SlogP_VSA8>
5.57

>  <SlogP_VSA9>
0

>  <SlogP_VSA10>
0

>  <SlogP_VSA11>
0

>  <EState_VSA1>
0

>  <EState_VSA2>
0

>  <EState_VSA3>
0

>  <EState_VSA4>
13.09

>  <EState_VSA5>
29.67

>  <EState_VSA6>
5.57

>  <EState_VSA7>
0

>  <EState_VSA8>
72.49

>  <EState_VSA9>
0

>  <EState_VSA10>
0

>  <VSA_EState1>
0

>  <VSA_EState2>
2.52

>  <VSA_EState3>
0

>  <VSA_EState4>
5.68

>  <VSA_EState5>
0

>  <VSA_EState6>
21.6

>  <VSA_EState7>
1.19

>  <VSA_EState8>
5.68

>  <VSA_EState9>
0

>  <apol>
46.83

>  <bpol>
22.78

>  <nRing>
3

>  <nHRing>
1

>  <naRing>
2

>  <naHRing>
0

>  <nARing 2>
1

>  <nAHRing 2>
1

>  <nFRing>
0

>  <nFHRing>
0

>  <nFaRing>
0

>  <nFaHRing>
0

>  <nFARing 2>
0

>  <nFAHRing 2>
0

>  <nRot>
3

>  <SLogP>
4.21

>  <SMR>
85.64

>  <TopoPSA(NO)>
3.24

>  <TopoPSA>
3.24

>  <JGI1>
0.11

>  <JGI2>
0.05

>  <JGI3>
0.05

>  <JGI4>
0.02

>  <JGI5>
0.01

>  <Diameter>
9

>  <Radius>
5

>  <TMWC10>
114.86

>  <TSRW10>
66.94

>  <MW>
263.17

>  <AMW>
6.42

>  <WPath>
777

>  <WPol>
28

>  <Zagreb1>
102

>  <Zagreb2>
119

>  <mZagreb2>
4.58

>  <yes>


>  <nAR-cont>
0.816016

>  <nHA-cont>
0.999629945

>  <MWHBN>
0.061642722

>  <MWHBN-cont>
0.467266271

>  <TPSA-cont>
0.977382788

>  <pka_cont>
0.97

>  <yes.1>


>  <BBB_SCORE>
4.956310927

>  <MMFF94 Energy>
57.98

$$$$
Compound 1218
Actelion Java MolfileCreator 2.0

  0  0  0  0  0  0              0 V3000
M  V30 BEGIN CTAB
M  V30 COUNTS 46 47 0 0 0
M  V30 BEGIN ATOM
M  V30 1 O 1.3398 -0.3939 -1.4975 0
M  V30 2 C 0.9608 0.2149 -0.502 0
M  V30 3 N 0.4481 -0.4254 0.6003 0
M  V30 4 C 1.0523 1.715 -0.4578 0
M  V30 5 C 0.3042 -1.869 0.6923 0
M  V30 6 C 0.5367 2.5239 0.5779 0
M  V30 7 C 1.702 2.3251 -1.55 0
M  V30 8 C -1.1218 -2.3379 0.3518 0 CFG=2
M  V30 9 O -0.0958 1.9042 1.6266 0
M  V30 10 C 0.6931 3.9155 0.4946 0
M  V30 11 C 1.8501 3.715 -1.6259 0
M  V30 12 N -1.3909 -3.7825 0.5278 0
M  V30 13 C -1.4621 -2.1434 -1.1277 0
M  V30 14 C -0.6869 2.72 2.633 0
M  V30 15 C 1.3426 4.5067 -0.5955 0
M  V30 16 C 2.5508 4.3013 -2.8082 0
M  V30 17 C -2.6742 -3.9931 -0.1531 0
M  V30 18 C -1.4374 -4.2266 1.9223 0
M  V30 19 C -2.5736 -3.1452 -1.4111 0
M  V30 20 O 3.0186 3.5648 -3.6728 0
M  V30 21 C 2.6731 5.799 -2.9162 0
M  V30 22 C -0.1394 -4.9247 2.3078 0
M  V30 23 H 0.1478 0.143 1.3846 0
M  V30 24 H 0.5431 -2.112 1.7315 0
M  V30 25 H 1.0454 -2.359 0.0514 0
M  V30 26 H 2.0998 1.7033 -2.3535 0
M  V30 27 H -1.8385 -1.7537 0.9486 0
M  V30 28 H 0.3205 4.5803 1.2685 0
M  V30 29 H -1.7836 -1.1189 -1.3421 0
M  V30 30 H -0.6028 -2.3685 -1.7709 0
M  V30 31 H 0.0744 3.2938 3.1709 0
M  V30 32 H -1.1739 2.0567 3.3543 0
M  V30 33 H -1.4567 3.3741 2.2106 0
M  V30 34 H 1.438 5.589 -0.6096 0
M  V30 35 H -2.8389 -5.0482 -0.3942 0
M  V30 36 H -3.5156 -3.6417 0.4586 0
M  V30 37 H -1.6487 -3.4005 2.6118 0
M  V30 38 H -2.2419 -4.96 2.0656 0
M  V30 39 H -2.3149 -3.7565 -2.2828 0
M  V30 40 H -3.5225 -2.6413 -1.6227 0
M  V30 41 H 1.6826 6.2612 -2.9305 0
M  V30 42 H 3.2758 6.1898 -2.0924 0
M  V30 43 H 3.1758 6.0515 -3.8551 0
M  V30 44 H -0.201 -5.2829 3.3407 0
M  V30 45 H 0.7271 -4.2628 2.2376 0
M  V30 46 H 0.0438 -5.7924 1.6649 0
M  V30 END ATOM
M  V30 BEGIN BOND
M  V30 1 2 1 2
M  V30 2 1 2 3
M  V30 3 1 2 4
M  V30 4 1 3 5
M  V30 5 2 4 6
M  V30 6 1 4 7
M  V30 7 1 5 8
M  V30 8 1 6 9
M  V30 9 1 6 10
M  V30 10 2 7 11
M  V30 11 1 8 12
M  V30 12 1 8 13
M  V30 13 1 9 14
M  V30 14 2 10 15
M  V30 15 1 11 16
M  V30 16 1 12 17
M  V30 17 1 12 18
M  V30 18 1 13 19
M  V30 19 2 16 20
M  V30 20 1 16 21
M  V30 21 1 18 22
M  V30 22 1 11 15
M  V30 23 1 17 19
M  V30 24 1 3 23
M  V30 25 1 5 24
M  V30 26 1 5 25
M  V30 27 1 7 26
M  V30 28 1 8 27
M  V30 29 1 10 28
M  V30 30 1 13 29
M  V30 31 1 13 30
M  V30 32 1 14 31
M  V30 33 1 14 32
M  V30 34 1 14 33
M  V30 35 1 15 34
M  V30 36 1 17 35
M  V30 37 1 17 36
M  V30 38 1 18 37
M  V30 39 1 18 38
M  V30 40 1 19 39
M  V30 41 1 19 40
M  V30 42 1 21 41
M  V30 43 1 21 42
M  V30 44 1 21 43
M  V30 45 1 22 44
M  V30 46 1 22 45
M  V30 47 1 22 46
M  V30 END BOND
M  V30 BEGIN COLLECTION
M  V30 MDLV30/STERAC1 ATOMS=(1 8)
M  V30 END COLLECTION
M  V30 END CTAB
M  END
>  <Column 1>
1449

>  <level_0>
1599

>  <index>
1599

>  <Unnamed: 0>
1599

>  <NO.>
1611

>  <Name>
etacepride

>  <IUPAC_name>
5-acetyl-n-[(1-ethylpyrrolidin-2-yl)methyl]-2-methoxybenzamide

>  <SMILES>
CCN1CCCC1CNC(=O)c1cc(C(C)=O)ccc1OC

>  <CID>
3085389

>  <logBB>


>  <BBB+/BBB->
BBB+

>  <Inchi>
InChI=1S/C17H24N2O3/c1-4-19-9-5-6-14(19)11-18-17(21)15-10-13(12(2)20)7-8-16(15)22-3/h7-8-10-14H-4-6-9-11H2-1-3H3-(H-18-21)

>  <threshold>
-1

>  <reference>
R1|R19|R6|R27|R27|R30|

>  <group>
B

>  <Class>
1

>  <ABC>
16.43

>  <ABCGG>
14.72

>  <nAcid>
0

>  <nBase>
1

>  <nAromAtom>
6

>  <nAromBond>
6

>  <nAtom>
46

>  <nHeavyAtom>
22

>  <nSpiro>
0

>  <nBridgehead>
0

>  <nHetero>
5

>  <nN>
2

>  <nO>
3

>  <nF>
0

>  <BalabanJ>
1.86

>  <BertzCT>
556.84

>  <nBonds>
47

>  <nBondsO>
23

>  <nBondsS>
39

>  <nBondsD>
2

>  <nBondsT>
0

>  <nBondsA>
6

>  <nBondsM>
8

>  <nBondsKS>
42

>  <nBondsKD>
5

>  <RNCG>
0.26

>  <RPCG>
0.13

>  <FCSP3>
0.53

>  <SZ>
27.33

>  <Sm>
25.34

>  <Sv>
27.16

>  <Sse>
45.97

>  <Sp>
29.34

>  <Si>
52.19

>  <MZ>
0.59

>  <Mm>
0.55

>  <Mv>
0.59

>  <Mse>
1

>  <Mp>
0.64

>  <Mi>
1.13

>  <NsCH3>
3

>  <NdCH2>
0

>  <NssCH2>
5

>  <NtCH>
0

>  <NdsCH>
0

>  <NaaCH>
3

>  <NsssCH>
1

>  <NddC>
0

>  <NtsC>
0

>  <NdssC>
2

>  <NaasC>
3

>  <NaaaC>
0

>  <NssssC>
0

>  <NsNH3>
0

>  <NsNH2>
0

>  <NssNH2>
0

>  <NdNH>
0

>  <NssNH>
1

>  <NaaNH>
0

>  <NtN>
0

>  <NsssNH>
0

>  <NdsN>
0

>  <NaaN>
0

>  <NsssN>
1

>  <NddsN>
0

>  <NaasN>
0

>  <NssssN>
0

>  <NsOH>
0

>  <NdO>
2

>  <NssO>
1

>  <NaaO>
0

>  <NsF>
0

>  <NsSiH3>
0

>  <NssSiH2>
0

>  <NsssSiH>
0

>  <NssssSi>
0

>  <NsPH2>
0

>  <NssPH>
0

>  <NsssP>
0

>  <NdsssP>
0

>  <NsssssP>
0

>  <NsSH>
0

>  <NdS>
0

>  <NssS>
0

>  <NaaS>
0

>  <NdssS>
0

>  <NddssS>
0

>  <NsCl>
0

>  <NsBr>
0

>  <NsI>
0

>  <fragCpx>
67.05

>  <fMF>
0.3

>  <nHBAcc>
4

>  <nHBDon>
1

>  <Kier1>
18.34

>  <Kier2>
8.74

>  <Lipinski>
1

>  <GhoseFilter>
1

>  <FilterItLogS>
-3.81

>  <VMcGowan>
244.74

>  <LabuteASA>
131.19

>  <PEOE_VSA1>
10.05

>  <PEOE_VSA2>
14.49

>  <PEOE_VSA3>
0

>  <PEOE_VSA4>
0

>  <PEOE_VSA5>
0

>  <PEOE_VSA6>
6.92

>  <PEOE_VSA7>
51.05

>  <PEOE_VSA8>
18.15

>  <PEOE_VSA9>
12.67

>  <PEOE_VSA10>
5.75

>  <PEOE_VSA11>
5.78

>  <PEOE_VSA12>
0

>  <PEOE_VSA13>
5.91

>  <SMR_VSA1>
14.33

>  <SMR_VSA2>
0

>  <SMR_VSA3>
10.22

>  <SMR_VSA4>
0

>  <SMR_VSA5>
32.73

>  <SMR_VSA6>
26.74

>  <SMR_VSA7>
29.33

>  <SMR_VSA8>
0

>  <SMR_VSA9>
5.75

>  <SlogP_VSA1>
10.05

>  <SlogP_VSA2>
49.38

>  <SlogP_VSA3>
0

>  <SlogP_VSA4>
0

>  <SlogP_VSA5>
47.41

>  <SlogP_VSA6>
18.2

>  <SlogP_VSA7>
0

>  <SlogP_VSA8>
0

>  <SlogP_VSA9>
0

>  <SlogP_VSA10>
0

>  <SlogP_VSA11>
5.75

>  <EState_VSA1>
0

>  <EState_VSA2>
11.69

>  <EState_VSA3>
29.46

>  <EState_VSA4>
19.51

>  <EState_VSA5>
20.45

>  <EState_VSA6>
18.2

>  <EState_VSA7>
0

>  <EState_VSA8>
17.14

>  <EState_VSA9>
4.74

>  <EState_VSA10>
9.59

>  <VSA_EState1>
5.23

>  <VSA_EState2>
26.3

>  <VSA_EState3>
2.97

>  <VSA_EState4>
0.93

>  <VSA_EState5>
0.23

>  <VSA_EState6>
5.34

>  <VSA_EState7>
2.29

>  <VSA_EState8>
6.35

>  <VSA_EState9>
1.52

>  <apol>
49

>  <bpol>
29.83

>  <nRing>
2

>  <nHRing>
1

>  <naRing>
1

>  <naHRing>
0

>  <nARing 2>
1

>  <nAHRing 2>
1

>  <nFRing>
0

>  <nFHRing>
0

>  <nFaRing>
0

>  <nFaHRing>
0

>  <nFARing 2>
0

>  <nFAHRing 2>
0

>  <nRot>
6

>  <SLogP>
2.11

>  <SMR>
85.6

>  <TopoPSA(NO)>
58.64

>  <TopoPSA>
58.64

>  <JGI1>
0.2

>  <JGI2>
0.1

>  <JGI3>
0.05

>  <JGI4>
0.04

>  <JGI5>
0.03

>  <Diameter>
11

>  <Radius>
6

>  <TMWC10>
117.9

>  <TSRW10>
69.18

>  <MW>
304.18

>  <AMW>
6.61

>  <WPath>
1121

>  <WPol>
32

>  <Zagreb1>
108

>  <Zagreb2>
125

>  <mZagreb2>
5.11

>  <yes>


>  <nAR-cont>
0.816016

>  <nHA-cont>
0.983774276

>  <MWHBN>
0.286684806

>  <MWHBN-cont>
0.878609556

>  <TPSA-cont>
0.590656387

>  <pka_cont>
0.97

>  <yes.1>


>  <BBB_SCORE>
4.784017384

>  <MMFF94 Energy>
57.427

$$$$
Compound 1219
Actelion Java MolfileCreator 2.0

  0  0  0  0  0  0              0 V3000
M  V30 BEGIN CTAB
M  V30 COUNTS 52 53 0 0 0
M  V30 BEGIN ATOM
M  V30 1 S 0.8762 -1.3545 -5.1066 0
M  V30 2 O 0.4498 -0.0775 -5.6473 0
M  V30 3 O 2.1223 -1.9517 -5.5615 0
M  V30 4 C 0.9758 -1.2013 -3.3347 0
M  V30 5 C -0.4208 -2.5446 -5.3775 0
M  V30 6 C 1.7178 -2.1097 -2.573 0
M  V30 7 C 0.3032 -0.1329 -2.726 0
M  V30 8 C -1.7786 -2.0908 -4.8825 0
M  V30 9 N 2.3645 -3.2153 -3.1175 0
M  V30 10 C 1.6806 -1.976 -1.1758 0
M  V30 11 C 0.3049 0.0175 -1.3287 0
M  V30 12 C 1.0006 -0.9207 -0.5415 0
M  V30 13 C -0.4736 1.1842 -0.79 0
M  V30 14 O 0.9643 -0.7657 0.8203 0
M  V30 15 O -1.1566 1.8681 -1.5476 0
M  V30 16 N -0.385 1.4443 0.551 0
M  V30 17 C 1.7599 -1.627 1.6252 0
M  V30 18 C -1.0384 2.5623 1.2028 0
M  V30 19 C -1.3909 2.244 2.6738 0 CFG=2
M  V30 20 N -0.2714 1.5789 3.3948 0
M  V30 21 C -2.563 1.247 2.7447 0
M  V30 22 C -0.8684 0.5215 4.2209 0
M  V30 23 C 0.5397 2.4803 4.2207 0
M  V30 24 C -1.9711 -0.0164 3.3376 0
M  V30 25 C 1.3345 3.4983 3.4147 0
M  V30 26 H -0.1228 -3.4814 -4.8973 0
M  V30 27 H -0.4574 -2.7169 -6.4584 0
M  V30 28 H -0.2404 0.5856 -3.3403 0
M  V30 29 H -2.541 -2.8317 -5.1429 0
M  V30 30 H -1.7899 -1.9709 -3.7954 0
M  V30 31 H -2.0678 -1.135 -5.3306 0
M  V30 32 H 2.6371 -3.155 -4.1037 0
M  V30 33 H 2.9919 -3.7612 -2.5395 0
M  V30 34 H 2.2071 -2.7223 -0.5885 0
M  V30 35 H 0.2048 0.8633 1.142 0
M  V30 36 H 1.4042 -2.6603 1.5626 0
M  V30 37 H 1.655 -1.3021 2.6649 0
M  V30 38 H 2.8193 -1.5525 1.359 0
M  V30 39 H -1.9364 2.8464 0.6426 0
M  V30 40 H -0.3414 3.4031 1.1425 0
M  V30 41 H -1.7048 3.1703 3.1729 0
M  V30 42 H -3.0433 1.0494 1.7812 0
M  V30 43 H -3.3302 1.6383 3.425 0
M  V30 44 H -1.2959 0.922 5.1493 0
M  V30 45 H -0.14 -0.2549 4.4741 0
M  V30 46 H -0.0788 3.0049 4.9601 0
M  V30 47 H 1.2649 1.8784 4.7832 0
M  V30 48 H -2.7105 -0.5985 3.8953 0
M  V30 49 H -1.5591 -0.6527 2.5451 0
M  V30 50 H 2.0433 4.0187 4.0677 0
M  V30 51 H 0.6837 4.2576 2.9718 0
M  V30 52 H 1.9082 3.0146 2.6173 0
M  V30 END ATOM
M  V30 BEGIN BOND
M  V30 1 2 1 2
M  V30 2 2 1 3
M  V30 3 1 1 4
M  V30 4 1 1 5
M  V30 5 2 4 6
M  V30 6 1 4 7
M  V30 7 1 5 8
M  V30 8 1 6 9
M  V30 9 1 6 10
M  V30 10 2 7 11
M  V30 11 2 10 12
M  V30 12 1 11 13
M  V30 13 1 12 14
M  V30 14 2 13 15
M  V30 15 1 13 16
M  V30 16 1 14 17
M  V30 17 1 16 18
M  V30 18 1 18 19
M  V30 19 1 19 20
M  V30 20 1 19 21
M  V30 21 1 20 22
M  V30 22 1 20 23
M  V30 23 1 21 24
M  V30 24 1 23 25
M  V30 25 1 11 12
M  V30 26 1 22 24
M  V30 27 1 5 26
M  V30 28 1 5 27
M  V30 29 1 7 28
M  V30 30 1 8 29
M  V30 31 1 8 30
M  V30 32 1 8 31
M  V30 33 1 9 32
M  V30 34 1 9 33
M  V30 35 1 10 34
M  V30 36 1 16 35
M  V30 37 1 17 36
M  V30 38 1 17 37
M  V30 39 1 17 38
M  V30 40 1 18 39
M  V30 41 1 18 40
M  V30 42 1 19 41
M  V30 43 1 21 42
M  V30 44 1 21 43
M  V30 45 1 22 44
M  V30 46 1 22 45
M  V30 47 1 23 46
M  V30 48 1 23 47
M  V30 49 1 24 48
M  V30 50 1 24 49
M  V30 51 1 25 50
M  V30 52 1 25 51
M  V30 53 1 25 52
M  V30 END BOND
M  V30 BEGIN COLLECTION
M  V30 MDLV30/STERAC1 ATOMS=(1 19)
M  V30 END COLLECTION
M  V30 END CTAB
M  END
>  <Column 1>
1450

>  <level_0>
1600

>  <index>
1600

>  <Unnamed: 0>
1600

>  <NO.>
1612

>  <Name>
amisulpride

>  <IUPAC_name>
4-amino-n-[(1-ethylpyrrolidin-2-yl)methyl]-5-ethylsulfonyl-2-methoxybenzamide

>  <SMILES>
CCN1CCCC1CNC(=O)c1cc(S(=O)(=O)CC)c(N)cc1OC

>  <CID>
2159

>  <logBB>


>  <BBB+/BBB->
BBB+

>  <Inchi>
InChI=1S/C17H27N3O4S/c1-4-20-8-6-7-12(20)11-19-17(21)13-9-16(25(22-23)5-2)14(18)10-15(13)24-3/h9-10-12H-4-8-11-18H2-1-3H3-(H-19-21)

>  <threshold>
-1

>  <reference>
R1|R19|R6|R14|R23|R27|R27|R30|R34|R37|

>  <group>
B

>  <Class>
1

>  <ABC>
18.7

>  <ABCGG>
16.93

>  <nAcid>
0

>  <nBase>
1

>  <nAromAtom>
6

>  <nAromBond>
6

>  <nAtom>
52

>  <nHeavyAtom>
25

>  <nSpiro>
0

>  <nBridgehead>
0

>  <nHetero>
8

>  <nN>
3

>  <nO>
4

>  <nF>
0

>  <BalabanJ>
1.98

>  <BertzCT>
733.65

>  <nBonds>
53

>  <nBondsO>
26

>  <nBondsS>
44

>  <nBondsD>
3

>  <nBondsT>
0

>  <nBondsA>
6

>  <nBondsM>
9

>  <nBondsKS>
47

>  <nBondsKD>
6

>  <RNCG>
0.2

>  <RPCG>
0.1

>  <FCSP3>
0.59

>  <SZ>
33

>  <Sm>
30.76

>  <Sv>
30.63

>  <Sse>
52.37

>  <Sp>
33.41

>  <Si>
59.24

>  <MZ>
0.63

>  <Mm>
0.59

>  <Mv>
0.59

>  <Mse>
1.01

>  <Mp>
0.64

>  <Mi>
1.14

>  <NsCH3>
3

>  <NdCH2>
0

>  <NssCH2>
6

>  <NtCH>
0

>  <NdsCH>
0

>  <NaaCH>
2

>  <NsssCH>
1

>  <NddC>
0

>  <NtsC>
0

>  <NdssC>
1

>  <NaasC>
4

>  <NaaaC>
0

>  <NssssC>
0

>  <NsNH3>
0

>  <NsNH2>
1

>  <NssNH2>
0

>  <NdNH>
0

>  <NssNH>
1

>  <NaaNH>
0

>  <NtN>
0

>  <NsssNH>
0

>  <NdsN>
0

>  <NaaN>
0

>  <NsssN>
1

>  <NddsN>
0

>  <NaasN>
0

>  <NssssN>
0

>  <NsOH>
0

>  <NdO>
3

>  <NssO>
1

>  <NaaO>
0

>  <NsF>
0

>  <NsSiH3>
0

>  <NssSiH2>
0

>  <NsssSiH>
0

>  <NssssSi>
0

>  <NsPH2>
0

>  <NssPH>
0

>  <NsssP>
0

>  <NdsssP>
0

>  <NsssssP>
0

>  <NsSH>
0

>  <NdS>
0

>  <NssS>
0

>  <NaaS>
0

>  <NdssS>
0

>  <NddssS>
1

>  <NsCl>
0

>  <NsBr>
0

>  <NsI>
0

>  <fragCpx>
76.08

>  <fMF>
0.27

>  <nHBAcc>
6

>  <nHBDon>
2

>  <Kier1>
21.3

>  <Kier2>
9.27

>  <Lipinski>
1

>  <GhoseFilter>
1

>  <FilterItLogS>
-3.94

>  <VMcGowan>
281.24

>  <LabuteASA>
148.99

>  <PEOE_VSA1>
15.79

>  <PEOE_VSA2>
9.69

>  <PEOE_VSA3>
8.42

>  <PEOE_VSA4>
0

>  <PEOE_VSA5>
0

>  <PEOE_VSA6>
13.85

>  <PEOE_VSA7>
32

>  <PEOE_VSA8>
18.65

>  <PEOE_VSA9>
29.01

>  <PEOE_VSA10>
5.75

>  <PEOE_VSA11>
9.84

>  <PEOE_VSA12>
0

>  <PEOE_VSA13>
5.91

>  <SMR_VSA1>
17.95

>  <SMR_VSA2>
0

>  <SMR_VSA3>
10.22

>  <SMR_VSA4>
0

>  <SMR_VSA5>
37.63

>  <SMR_VSA6>
38.23

>  <SMR_VSA7>
17.7

>  <SMR_VSA8>
0

>  <SMR_VSA9>
5.75

>  <SlogP_VSA1>
15.79

>  <SlogP_VSA2>
57.76

>  <SlogP_VSA3>
9.84

>  <SlogP_VSA4>
0

>  <SlogP_VSA5>
37.05

>  <SlogP_VSA6>
17.03

>  <SlogP_VSA7>
0

>  <SlogP_VSA8>
0

>  <SlogP_VSA9>
0

>  <SlogP_VSA10>
5.69

>  <SlogP_VSA11>
5.75

>  <EState_VSA1>
9.84

>  <EState_VSA2>
33.56

>  <EState_VSA3>
12.59

>  <EState_VSA4>
25.93

>  <EState_VSA5>
26.17

>  <EState_VSA6>
0

>  <EState_VSA7>
0

>  <EState_VSA8>
17.14

>  <EState_VSA9>
10.47

>  <EState_VSA10>
13.21

>  <VSA_EState1>
29.59

>  <VSA_EState2>
14.91

>  <VSA_EState3>
2.9

>  <VSA_EState4>
6.11

>  <VSA_EState5>
-0.17

>  <VSA_EState6>
3.02

>  <VSA_EState7>
2.17

>  <VSA_EState8>
6.16

>  <VSA_EState9>
-2.1

>  <apol>
55.8

>  <bpol>
38.06

>  <nRing>
2

>  <nHRing>
1

>  <naRing>
1

>  <naHRing>
0

>  <nARing 2>
1

>  <nAHRing 2>
1

>  <nFRing>
0

>  <nFHRing>
0

>  <nFaRing>
0

>  <nFaHRing>
0

>  <nFARing 2>
0

>  <nFAHRing 2>
0

>  <nRot>
7

>  <SLogP>
1.29

>  <SMR>
97.74

>  <TopoPSA(NO)>
101.73

>  <TopoPSA>
110.11

>  <JGI1>
0.25

>  <JGI2>
0.11

>  <JGI3>
0.06

>  <JGI4>
0.04

>  <JGI5>
0.04

>  <Diameter>
12

>  <Radius>
6

>  <TMWC10>
126.09

>  <TSRW10>
73.23

>  <MW>
369.17

>  <AMW>
7.1

>  <WPath>
1539

>  <WPol>
40

>  <Zagreb1>
126

>  <Zagreb2>
148

>  <mZagreb2>
5.74

>  <yes>


>  <nAR-cont>
0.816016

>  <nHA-cont>
0.921834225

>  <MWHBN>
0.416367465

>  <MWHBN-cont>
0.412020002

>  <TPSA-cont>
0.231363826

>  <pka_cont>
0.97

>  <yes.1>


>  <BBB_SCORE>
3.303607879

>  <MMFF94 Energy>
62.673

$$$$
Compound 1220
Actelion Java MolfileCreator 2.0

  0  0  0  0  0  0              0 V3000
M  V30 BEGIN CTAB
M  V30 COUNTS 50 51 0 0 0
M  V30 BEGIN ATOM
M  V30 1 S 4.6399 -2.798 0.4792 0
M  V30 2 O 4.1858 -2.8632 1.8542 0
M  V30 3 O 5.0305 -4.0092 -0.2196 0
M  V30 4 C 3.343 -2.0518 -0.4823 0
M  V30 5 C 6.0009 -1.6557 0.3725 0
M  V30 6 C 2.4202 -1.2061 0.1331 0
M  V30 7 C 3.2185 -2.3666 -1.8331 0
M  V30 8 C 5.7278 -0.3125 1.0162 0
M  V30 9 C 1.3749 -0.6296 -0.6131 0
M  V30 10 C 2.1784 -1.8071 -2.5802 0
M  V30 11 C 1.2532 -0.9318 -1.9884 0
M  V30 12 C 0.4658 0.2947 0.1433 0
M  V30 13 O 0.2182 -0.3558 -2.6821 0
M  V30 14 O 0.787 0.6797 1.2633 0
M  V30 15 N -0.7107 0.6649 -0.4602 0
M  V30 16 C 0.174 -0.5407 -4.0934 0
M  V30 17 C -1.6889 1.5405 0.164 0
M  V30 18 C -2.8317 0.7587 0.8366 0 CFG=2
M  V30 19 N -3.9291 1.5735 1.4045 0
M  V30 20 C -2.3608 -0.0177 2.0687 0
M  V30 21 C -4.6837 0.6268 2.2355 0
M  V30 22 C -4.785 2.2196 0.4073 0
M  V30 23 C -3.6125 -0.2114 2.9144 0
M  V30 24 C -4.4269 3.6936 0.2652 0
M  V30 25 H 6.2552 -1.5388 -0.6853 0
M  V30 26 H 6.8468 -2.1408 0.871 0
M  V30 27 H 2.5064 -0.9915 1.1987 0
M  V30 28 H 3.9127 -3.0547 -2.3124 0
M  V30 29 H 6.6282 0.309 0.9858 0
M  V30 30 H 4.9343 0.2288 0.4938 0
M  V30 31 H 5.4285 -0.4244 2.0629 0
M  V30 32 H 2.114 -2.0867 -3.6276 0
M  V30 33 H -0.8892 0.3299 -1.401 0
M  V30 34 H 1.0873 -0.1715 -4.5712 0
M  V30 35 H -0.6641 0.0476 -4.4791 0
M  V30 36 H -0.013 -1.5894 -4.345 0
M  V30 37 H -2.081 2.1552 -0.6511 0
M  V30 38 H -1.1906 2.205 0.8785 0
M  V30 39 H -3.2424 0.0387 0.1129 0
M  V30 40 H -1.9087 -0.9777 1.7989 0
M  V30 41 H -1.6224 0.5523 2.6455 0
M  V30 42 H -5.3136 1.1409 2.9687 0
M  V30 43 H -5.3235 -0.0226 1.6236 0
M  V30 44 H -4.7364 1.7171 -0.5659 0
M  V30 45 H -5.8366 2.1818 0.7207 0
M  V30 46 H -3.43 0.1308 3.9393 0
M  V30 47 H -3.9068 -1.2651 2.9587 0
M  V30 48 H -5.0972 4.1725 -0.456 0
M  V30 49 H -3.4026 3.8425 -0.0843 0
M  V30 50 H -4.5382 4.2171 1.2212 0
M  V30 END ATOM
M  V30 BEGIN BOND
M  V30 1 2 1 2
M  V30 2 2 1 3
M  V30 3 1 1 4
M  V30 4 1 1 5
M  V30 5 2 4 6
M  V30 6 1 4 7
M  V30 7 1 5 8
M  V30 8 1 6 9
M  V30 9 2 7 10
M  V30 10 2 9 11
M  V30 11 1 9 12
M  V30 12 1 11 13
M  V30 13 2 12 14
M  V30 14 1 12 15
M  V30 15 1 13 16
M  V30 16 1 15 17
M  V30 17 1 17 18
M  V30 18 1 18 19
M  V30 19 1 18 20
M  V30 20 1 19 21
M  V30 21 1 19 22
M  V30 22 1 20 23
M  V30 23 1 22 24
M  V30 24 1 10 11
M  V30 25 1 21 23
M  V30 26 1 5 25
M  V30 27 1 5 26
M  V30 28 1 6 27
M  V30 29 1 7 28
M  V30 30 1 8 29
M  V30 31 1 8 30
M  V30 32 1 8 31
M  V30 33 1 10 32
M  V30 34 1 15 33
M  V30 35 1 16 34
M  V30 36 1 16 35
M  V30 37 1 16 36
M  V30 38 1 17 37
M  V30 39 1 17 38
M  V30 40 1 18 39
M  V30 41 1 20 40
M  V30 42 1 20 41
M  V30 43 1 21 42
M  V30 44 1 21 43
M  V30 45 1 22 44
M  V30 46 1 22 45
M  V30 47 1 23 46
M  V30 48 1 23 47
M  V30 49 1 24 48
M  V30 50 1 24 49
M  V30 51 1 24 50
M  V30 END BOND
M  V30 BEGIN COLLECTION
M  V30 MDLV30/STERAC1 ATOMS=(1 18)
M  V30 END COLLECTION
M  V30 END CTAB
M  END
>  <Column 1>
1451

>  <level_0>
1601

>  <index>
1601

>  <Unnamed: 0>
1601

>  <NO.>
1613

>  <Name>
sultopride

>  <IUPAC_name>
n-[(1-ethylpyrrolidin-2-yl)methyl]-5-ethylsulfonyl-2-methoxybenzamide

>  <SMILES>
CCN1CCCC1CNC(=O)c1cc(S(=O)(=O)CC)ccc1OC

>  <CID>
5357

>  <logBB>


>  <BBB+/BBB->
BBB+

>  <Inchi>
InChI=1S/C17H26N2O4S/c1-4-19-10-6-7-13(19)12-18-17(20)15-11-14(24(21-22)5-2)8-9-16(15)23-3/h8-9-11-13H-4-7-10-12H2-1-3H3-(H-18-20)

>  <threshold>
-1

>  <reference>
R1|R19|R6|R27|R27|R30|

>  <group>
B

>  <Class>
1

>  <ABC>
17.92

>  <ABCGG>
16.09

>  <nAcid>
0

>  <nBase>
1

>  <nAromAtom>
6

>  <nAromBond>
6

>  <nAtom>
50

>  <nHeavyAtom>
24

>  <nSpiro>
0

>  <nBridgehead>
0

>  <nHetero>
7

>  <nN>
2

>  <nO>
4

>  <nF>
0

>  <BalabanJ>
1.92

>  <BertzCT>
687.83

>  <nBonds>
51

>  <nBondsO>
25

>  <nBondsS>
42

>  <nBondsD>
3

>  <nBondsT>
0

>  <nBondsA>
6

>  <nBondsM>
9

>  <nBondsKS>
45

>  <nBondsKD>
6

>  <RNCG>
0.23

>  <RPCG>
0.12

>  <FCSP3>
0.59

>  <SZ>
31.67

>  <Sm>
29.51

>  <Sv>
29.61

>  <Sse>
50.27

>  <Sp>
32.36

>  <Si>
56.74

>  <MZ>
0.63

>  <Mm>
0.59

>  <Mv>
0.59

>  <Mse>
1.01

>  <Mp>
0.65

>  <Mi>
1.13

>  <NsCH3>
3

>  <NdCH2>
0

>  <NssCH2>
6

>  <NtCH>
0

>  <NdsCH>
0

>  <NaaCH>
3

>  <NsssCH>
1

>  <NddC>
0

>  <NtsC>
0

>  <NdssC>
1

>  <NaasC>
3

>  <NaaaC>
0

>  <NssssC>
0

>  <NsNH3>
0

>  <NsNH2>
0

>  <NssNH2>
0

>  <NdNH>
0

>  <NssNH>
1

>  <NaaNH>
0

>  <NtN>
0

>  <NsssNH>
0

>  <NdsN>
0

>  <NaaN>
0

>  <NsssN>
1

>  <NddsN>
0

>  <NaasN>
0

>  <NssssN>
0

>  <NsOH>
0

>  <NdO>
3

>  <NssO>
1

>  <NaaO>
0

>  <NsF>
0

>  <NsSiH3>
0

>  <NssSiH2>
0

>  <NsssSiH>
0

>  <NssssSi>
0

>  <NsPH2>
0

>  <NssPH>
0

>  <NsssP>
0

>  <NdsssP>
0

>  <NsssssP>
0

>  <NsSH>
0

>  <NdS>
0

>  <NssS>
0

>  <NaaS>
0

>  <NdssS>
0

>  <NddssS>
1

>  <NsCl>
0

>  <NsBr>
0

>  <NsI>
0

>  <fragCpx>
73.07

>  <fMF>
0.28

>  <nHBAcc>
5

>  <nHBDon>
1

>  <Kier1>
20.31

>  <Kier2>
9.09

>  <Lipinski>
1

>  <GhoseFilter>
1

>  <FilterItLogS>
-4.16

>  <VMcGowan>
271.26

>  <LabuteASA>
143.65

>  <PEOE_VSA1>
10.05

>  <PEOE_VSA2>
9.69

>  <PEOE_VSA3>
8.42

>  <PEOE_VSA4>
0

>  <PEOE_VSA5>
0

>  <PEOE_VSA6>
13.85

>  <PEOE_VSA7>
44.13

>  <PEOE_VSA8>
12.59

>  <PEOE_VSA9>
23.32

>  <PEOE_VSA10>
5.75

>  <PEOE_VSA11>
9.84

>  <PEOE_VSA12>
0

>  <PEOE_VSA13>
5.91

>  <SMR_VSA1>
17.95

>  <SMR_VSA2>
0

>  <SMR_VSA3>
10.22

>  <SMR_VSA4>
0

>  <SMR_VSA5>
37.63

>  <SMR_VSA6>
32.5

>  <SMR_VSA7>
23.76

>  <SMR_VSA8>
0

>  <SMR_VSA9>
5.75

>  <SlogP_VSA1>
10.05

>  <SlogP_VSA2>
57.76

>  <SlogP_VSA3>
9.84

>  <SlogP_VSA4>
0

>  <SlogP_VSA5>
37.05

>  <SlogP_VSA6>
23.09

>  <SlogP_VSA7>
0

>  <SlogP_VSA8>
0

>  <SlogP_VSA9>
0

>  <SlogP_VSA10>
0

>  <SlogP_VSA11>
5.75

>  <EState_VSA1>
9.84

>  <EState_VSA2>
22.12

>  <EState_VSA3>
18.34

>  <EState_VSA4>
25.93

>  <EState_VSA5>
25.31

>  <EState_VSA6>
6.92

>  <EState_VSA7>
0

>  <EState_VSA8>
17.14

>  <EState_VSA9>
4.74

>  <EState_VSA10>
13.21

>  <VSA_EState1>
29.31

>  <VSA_EState2>
15.03

>  <VSA_EState3>
2.92

>  <VSA_EState4>
0.26

>  <VSA_EState5>
0.07

>  <VSA_EState6>
4.75

>  <VSA_EState7>
2.21

>  <VSA_EState8>
6.28

>  <VSA_EState9>
-1.9

>  <apol>
54.03

>  <bpol>
37.62

>  <nRing>
2

>  <nHRing>
1

>  <naRing>
1

>  <naHRing>
0

>  <nARing 2>
1

>  <nAHRing 2>
1

>  <nFRing>
0

>  <nFHRing>
0

>  <nFaRing>
0

>  <nFaHRing>
0

>  <nFARing 2>
0

>  <nFAHRing 2>
0

>  <nRot>
7

>  <SLogP>
1.7

>  <SMR>
93.32

>  <TopoPSA(NO)>
75.71

>  <TopoPSA>
84.09

>  <JGI1>
0.24

>  <JGI2>
0.11

>  <JGI3>
0.05

>  <JGI4>
0.04

>  <JGI5>
0.04

>  <Diameter>
12

>  <Radius>
6

>  <TMWC10>
123.28

>  <TSRW10>
71.9

>  <MW>
354.16

>  <AMW>
7.08

>  <WPath>
1404

>  <WPol>
37

>  <Zagreb1>
120

>  <Zagreb2>
140

>  <mZagreb2>
5.54

>  <yes>


>  <nAR-cont>
0.816016

>  <nHA-cont>
0.94700071

>  <MWHBN>
0.31882436

>  <MWHBN-cont>
0.781096702

>  <TPSA-cont>
0.412999583

>  <pka_cont>
0.97

>  <yes.1>


>  <BBB_SCORE>
4.245660929

>  <MMFF94 Energy>
62.268

$$$$
Compound 1221
Actelion Java MolfileCreator 2.0

  0  0  0  0  0  0              0 V3000
M  V30 BEGIN CTAB
M  V30 COUNTS 45 46 0 0 0
M  V30 BEGIN ATOM
M  V30 1 Br -4.8651 -0.3184 -1.8322 0
M  V30 2 C -4.0488 0.0287 -0.1532 0
M  V30 3 C -2.6908 0.3665 -0.0509 0
M  V30 4 C -4.841 -0.0722 0.9922 0
M  V30 5 O -1.9304 0.4302 -1.1943 0
M  V30 6 C -2.113 0.5611 1.2165 0
M  V30 7 C -4.2776 0.1477 2.248 0
M  V30 8 C -1.7977 1.7862 -1.6334 0
M  V30 9 C -2.923 0.4741 2.3594 0
M  V30 10 C -0.6672 0.8673 1.3663 0
M  V30 11 O -2.3912 0.5802 3.6183 0
M  V30 12 O -0.2949 1.8008 2.0675 0
M  V30 13 N 0.1902 0.0589 0.6538 0
M  V30 14 C -2.658 1.8717 4.1686 0
M  V30 15 C 1.6256 0.2718 0.6748 0
M  V30 16 C 2.4168 -0.8747 0.0192 0 CFG=1
M  V30 17 N 2.622 -0.77 -1.4417 0
M  V30 18 C 3.8635 -0.8848 0.5113 0
M  V30 19 C 3.6846 -1.7356 -1.7451 0
M  V30 20 C 1.4075 -0.978 -2.231 0
M  V30 21 C 4.6256 -1.6634 -0.55 0
M  V30 22 C 1.6466 -0.8735 -3.7342 0
M  V30 23 H -5.8931 -0.3374 0.9189 0
M  V30 24 H -4.887 0.0392 3.1419 0
M  V30 25 H -2.7749 2.2625 -1.7695 0
M  V30 26 H -1.289 1.7729 -2.6018 0
M  V30 27 H -1.1866 2.3711 -0.9391 0
M  V30 28 H -0.2001 -0.6291 0.0221 0
M  V30 29 H -2.4322 2.6777 3.4616 0
M  V30 30 H -2.0191 2.0002 5.0473 0
M  V30 31 H -3.7014 1.9393 4.4941 0
M  V30 32 H 1.8316 1.23 0.1832 0
M  V30 33 H 1.9199 0.3796 1.726 0
M  V30 34 H 1.9518 -1.8395 0.2689 0
M  V30 35 H 3.9589 -1.3474 1.499 0
M  V30 36 H 4.2669 0.1338 0.5786 0
M  V30 37 H 4.2126 -1.485 -2.6706 0
M  V30 38 H 3.289 -2.7552 -1.8359 0
M  V30 39 H 0.9466 -1.9468 -2.0028 0
M  V30 40 H 0.6804 -0.2005 -1.9797 0
M  V30 41 H 4.8763 -2.669 -0.1954 0
M  V30 42 H 5.5605 -1.1509 -0.8013 0
M  V30 43 H 0.6911 -0.9199 -4.2672 0
M  V30 44 H 2.2706 -1.6925 -4.1048 0
M  V30 45 H 2.1283 0.0754 -3.9922 0
M  V30 END ATOM
M  V30 BEGIN BOND
M  V30 1 1 1 2
M  V30 2 2 2 3
M  V30 3 1 2 4
M  V30 4 1 3 5
M  V30 5 1 3 6
M  V30 6 2 4 7
M  V30 7 1 5 8
M  V30 8 2 6 9
M  V30 9 1 6 10
M  V30 10 1 9 11
M  V30 11 2 10 12
M  V30 12 1 10 13
M  V30 13 1 11 14
M  V30 14 1 13 15
M  V30 15 1 15 16
M  V30 16 1 16 17
M  V30 17 1 16 18
M  V30 18 1 17 19
M  V30 19 1 17 20
M  V30 20 1 18 21
M  V30 21 1 20 22
M  V30 22 1 7 9
M  V30 23 1 19 21
M  V30 24 1 4 23
M  V30 25 1 7 24
M  V30 26 1 8 25
M  V30 27 1 8 26
M  V30 28 1 8 27
M  V30 29 1 13 28
M  V30 30 1 14 29
M  V30 31 1 14 30
M  V30 32 1 14 31
M  V30 33 1 15 32
M  V30 34 1 15 33
M  V30 35 1 16 34
M  V30 36 1 18 35
M  V30 37 1 18 36
M  V30 38 1 19 37
M  V30 39 1 19 38
M  V30 40 1 20 39
M  V30 41 1 20 40
M  V30 42 1 21 41
M  V30 43 1 21 42
M  V30 44 1 22 43
M  V30 45 1 22 44
M  V30 46 1 22 45
M  V30 END BOND
M  V30 BEGIN COLLECTION
M  V30 MDLV30/STEABS ATOMS=(1 16)
M  V30 END COLLECTION
M  V30 END CTAB
M  END
>  <Column 1>
1452

>  <level_0>
1602

>  <index>
1602

>  <Unnamed: 0>
1602

>  <NO.>
1614

>  <Name>
remoxipride

>  <IUPAC_name>
3-bromo-n-[[(2s)-1-ethylpyrrolidin-2-yl]methyl]-2-6-dimethoxybenzamide

>  <SMILES>
CCN1CCC[C@H]1CNC(=O)c1c(OC)ccc(Br)c1OC

>  <CID>
54477

>  <logBB>


>  <BBB+/BBB->
BBB+

>  <Inchi>
InChI=1S/C16H23BrN2O3/c1-4-19-9-5-6-11(19)10-18-16(20)14-13(21-2)8-7-12(17)15(14)22-3/h7-8-11H-4-6-9-10H2-1-3H3-(H-18-20)/t11-/m0/s1

>  <threshold>
-1

>  <reference>
R1|R13|R6|R24|R27|R27|R30|R30|

>  <group>
B

>  <Class>
1

>  <ABC>
16.28

>  <ABCGG>
14.97

>  <nAcid>
0

>  <nBase>
1

>  <nAromAtom>
6

>  <nAromBond>
6

>  <nAtom>
45

>  <nHeavyAtom>
22

>  <nSpiro>
0

>  <nBridgehead>
0

>  <nHetero>
6

>  <nN>
2

>  <nO>
3

>  <nF>
0

>  <BalabanJ>
1.94

>  <BertzCT>
536.37

>  <nBonds>
46

>  <nBondsO>
23

>  <nBondsS>
39

>  <nBondsD>
1

>  <nBondsT>
0

>  <nBondsA>
6

>  <nBondsM>
7

>  <nBondsKS>
42

>  <nBondsKD>
4

>  <RNCG>
0.23

>  <RPCG>
0.12

>  <FCSP3>
0.56

>  <SZ>
32

>  <Sm>
30.91

>  <Sv>
27.18

>  <Sse>
45.2

>  <Sp>
29.77

>  <Si>
51.03

>  <MZ>
0.71

>  <Mm>
0.69

>  <Mv>
0.6

>  <Mse>
1

>  <Mp>
0.66

>  <Mi>
1.13

>  <NsCH3>
3

>  <NdCH2>
0

>  <NssCH2>
5

>  <NtCH>
0

>  <NdsCH>
0

>  <NaaCH>
2

>  <NsssCH>
1

>  <NddC>
0

>  <NtsC>
0

>  <NdssC>
1

>  <NaasC>
4

>  <NaaaC>
0

>  <NssssC>
0

>  <NsNH3>
0

>  <NsNH2>
0

>  <NssNH2>
0

>  <NdNH>
0

>  <NssNH>
1

>  <NaaNH>
0

>  <NtN>
0

>  <NsssNH>
0

>  <NdsN>
0

>  <NaaN>
0

>  <NsssN>
1

>  <NddsN>
0

>  <NaasN>
0

>  <NssssN>
0

>  <NsOH>
0

>  <NdO>
1

>  <NssO>
2

>  <NaaO>
0

>  <NsF>
0

>  <NsSiH3>
0

>  <NssSiH2>
0

>  <NsssSiH>
0

>  <NssssSi>
0

>  <NsPH2>
0

>  <NssPH>
0

>  <NsssP>
0

>  <NdsssP>
0

>  <NsssssP>
0

>  <NsSH>
0

>  <NdS>
0

>  <NssS>
0

>  <NaaS>
0

>  <NdssS>
0

>  <NddssS>
0

>  <NsCl>
0

>  <NsBr>
1

>  <NsI>
0

>  <fragCpx>
67.06

>  <fMF>
0.31

>  <nHBAcc>
4

>  <nHBDon>
1

>  <Kier1>
18.34

>  <Kier2>
8.74

>  <Lipinski>
1

>  <GhoseFilter>
1

>  <FilterItLogS>
-4.56

>  <VMcGowan>
252.45

>  <LabuteASA>
139.64

>  <PEOE_VSA1>
14.79

>  <PEOE_VSA2>
9.69

>  <PEOE_VSA3>
0

>  <PEOE_VSA4>
0

>  <PEOE_VSA5>
0

>  <PEOE_VSA6>
6.92

>  <PEOE_VSA7>
53.99

>  <PEOE_VSA8>
12.59

>  <PEOE_VSA9>
18.69

>  <PEOE_VSA10>
17.06

>  <PEOE_VSA11>
0

>  <PEOE_VSA12>
0

>  <PEOE_VSA13>
5.91

>  <SMR_VSA1>
14.27

>  <SMR_VSA2>
0

>  <SMR_VSA3>
10.22

>  <SMR_VSA4>
0

>  <SMR_VSA5>
25.81

>  <SMR_VSA6>
33.85

>  <SMR_VSA7>
22.17

>  <SMR_VSA8>
0

>  <SMR_VSA9>
11.5

>  <SlogP_VSA1>
14.79

>  <SlogP_VSA2>
50.7

>  <SlogP_VSA3>
0

>  <SlogP_VSA4>
0

>  <SlogP_VSA5>
30.12

>  <SlogP_VSA6>
16.61

>  <SlogP_VSA7>
0

>  <SlogP_VSA8>
0

>  <SlogP_VSA9>
0

>  <SlogP_VSA10>
0

>  <SlogP_VSA11>
11.5

>  <EState_VSA1>
0

>  <EState_VSA2>
5.91

>  <EState_VSA3>
29.65

>  <EState_VSA4>
23.98

>  <EState_VSA5>
6.42

>  <EState_VSA6>
20.29

>  <EState_VSA7>
6.07

>  <EState_VSA8>
33.07

>  <EState_VSA9>
9.47

>  <EState_VSA10>
4.79

>  <VSA_EState1>
11.4

>  <VSA_EState2>
15

>  <VSA_EState3>
3.02

>  <VSA_EState4>
0.43

>  <VSA_EState5>
0.84

>  <VSA_EState6>
3.98

>  <VSA_EState7>
2.32

>  <VSA_EState8>
4.93

>  <VSA_EState9>
3.1

>  <apol>
49.71

>  <bpol>
31.07

>  <nRing>
2

>  <nHRing>
1

>  <naRing>
1

>  <naHRing>
0

>  <nARing 2>
1

>  <nAHRing 2>
1

>  <nFRing>
0

>  <nFHRing>
0

>  <nFaRing>
0

>  <nFaHRing>
0

>  <nFARing 2>
0

>  <nFAHRing 2>
0

>  <nRot>
6

>  <SLogP>
2.68

>  <SMR>
89.85

>  <TopoPSA(NO)>
50.8

>  <TopoPSA>
50.8

>  <JGI1>
0.17

>  <JGI2>
0.1

>  <JGI3>
0.06

>  <JGI4>
0.05

>  <JGI5>
0.02

>  <Diameter>
10

>  <Radius>
5

>  <TMWC10>
118.41

>  <TSRW10>
69.33

>  <MW>
370.09

>  <AMW>
8.22

>  <WPath>
1080

>  <WPol>
34

>  <Zagreb1>
108

>  <Zagreb2>
127

>  <mZagreb2>
5.22

>  <yes>


>  <nAR-cont>
0.816016

>  <nHA-cont>
0.983774276

>  <MWHBN>
0.259906014

>  <MWHBN-cont>
0.941603772

>  <TPSA-cont>
0.645384455

>  <pka_cont>
0.97

>  <yes.1>


>  <BBB_SCORE>
4.987964845

>  <MMFF94 Energy>
64.174

$$$$
Compound 1222
Actelion Java MolfileCreator 2.0

  0  0  0  0  0  0              0 V3000
M  V30 BEGIN CTAB
M  V30 COUNTS 57 60 0 0 0
M  V30 BEGIN ATOM
M  V30 1 F -0.8756 4.3044 -5.7424 0
M  V30 2 C -0.7419 3.3728 -4.7895 0
M  V30 3 C -1.6325 3.3515 -3.7235 0
M  V30 4 C 0.287 2.4439 -4.8806 0
M  V30 5 C -1.4926 2.3806 -2.7298 0
M  V30 6 C 0.4267 1.4727 -3.8872 0
M  V30 7 C -0.4661 1.4239 -2.8029 0
M  V30 8 C -0.3112 0.4101 -1.7495 0
M  V30 9 C -0.809 -0.9011 -1.865 0
M  V30 10 C 0.36 0.7787 -0.5715 0
M  V30 11 C -0.6059 -1.7578 -0.778 0
M  V30 12 C -1.5884 -1.3551 -3.0755 0
M  V30 13 C 0.5392 -0.1258 0.4654 0
M  V30 14 N 0.039 -1.3712 0.3535 0
M  V30 15 C -1.0979 -3.1841 -0.7503 0
M  V30 16 C -3.0866 -1.0644 -2.9807 0
M  V30 17 N 1.1912 0.2313 1.6416 0
M  V30 18 C -2.5575 -3.3355 -0.3209 0
M  V30 19 C -3.7914 -1.551 -1.7113 0
M  V30 20 C 2.4377 1.0038 1.5574 0
M  V30 21 C 1.1654 -0.7726 2.7173 0
M  V30 22 C -3.6018 -3.0367 -1.4025 0
M  V30 23 C 2.8479 1.5636 2.9411 0
M  V30 24 C 1.6072 -0.1574 4.0633 0
M  V30 25 N 2.9206 0.528 3.9957 0
M  V30 26 C 3.2562 1.0957 5.31 0
M  V30 27 C 4.6897 1.6094 5.3848 0
M  V30 28 H -2.4273 4.0884 -3.6708 0
M  V30 29 H 0.9732 2.4815 -5.7202 0
M  V30 30 H -2.1912 2.367 -1.8951 0
M  V30 31 H 1.2361 0.7488 -3.9591 0
M  V30 32 H 0.7128 1.7994 -0.4707 0
M  V30 33 H -1.1927 -0.8789 -3.9801 0
M  V30 34 H -1.4279 -2.4206 -3.266 0
M  V30 35 H -0.4829 -3.7258 -0.0178 0
M  V30 36 H -0.9041 -3.695 -1.6987 0
M  V30 37 H -3.5769 -1.5153 -3.8529 0
M  V30 38 H -3.2581 0.015 -3.0671 0
M  V30 39 H -2.7603 -2.7331 0.5733 0
M  V30 40 H -2.7001 -4.3826 -0.0224 0
M  V30 41 H -3.5042 -0.9334 -0.8523 0
M  V30 42 H -4.8645 -1.3687 -1.8568 0
M  V30 43 H 2.3478 1.8588 0.8799 0
M  V30 44 H 3.2382 0.3599 1.1711 0
M  V30 45 H 1.8293 -1.6089 2.4623 0
M  V30 46 H 0.1524 -1.1706 2.8586 0
M  V30 47 H -3.3918 -3.6101 -2.3126 0
M  V30 48 H -4.5606 -3.4148 -1.0232 0
M  V30 49 H 3.8245 2.0439 2.8175 0
M  V30 50 H 2.1325 2.3455 3.2303 0
M  V30 51 H 0.8341 0.547 4.3999 0
M  V30 52 H 1.6546 -0.9661 4.8027 0
M  V30 53 H 2.5608 1.8978 5.5879 0
M  V30 54 H 3.1596 0.3119 6.072 0
M  V30 55 H 4.9305 1.8912 6.4153 0
M  V30 56 H 4.8401 2.4948 4.7603 0
M  V30 57 H 5.4025 0.8386 5.0737 0
M  V30 END ATOM
M  V30 BEGIN BOND
M  V30 1 1 1 2
M  V30 2 2 2 3
M  V30 3 1 2 4
M  V30 4 1 3 5
M  V30 5 2 4 6
M  V30 6 2 5 7
M  V30 7 1 7 8
M  V30 8 2 8 9
M  V30 9 1 8 10
M  V30 10 1 9 11
M  V30 11 1 9 12
M  V30 12 2 10 13
M  V30 13 2 11 14
M  V30 14 1 11 15
M  V30 15 1 12 16
M  V30 16 1 13 17
M  V30 17 1 15 18
M  V30 18 1 16 19
M  V30 19 1 17 20
M  V30 20 1 17 21
M  V30 21 1 18 22
M  V30 22 1 20 23
M  V30 23 1 21 24
M  V30 24 1 23 25
M  V30 25 1 25 26
M  V30 26 1 26 27
M  V30 27 1 6 7
M  V30 28 1 13 14
M  V30 29 1 19 22
M  V30 30 1 24 25
M  V30 31 1 3 28
M  V30 32 1 4 29
M  V30 33 1 5 30
M  V30 34 1 6 31
M  V30 35 1 10 32
M  V30 36 1 12 33
M  V30 37 1 12 34
M  V30 38 1 15 35
M  V30 39 1 15 36
M  V30 40 1 16 37
M  V30 41 1 16 38
M  V30 42 1 18 39
M  V30 43 1 18 40
M  V30 44 1 19 41
M  V30 45 1 19 42
M  V30 46 1 20 43
M  V30 47 1 20 44
M  V30 48 1 21 45
M  V30 49 1 21 46
M  V30 50 1 22 47
M  V30 51 1 22 48
M  V30 52 1 23 49
M  V30 53 1 23 50
M  V30 54 1 24 51
M  V30 55 1 24 52
M  V30 56 1 26 53
M  V30 57 1 26 54
M  V30 58 1 27 55
M  V30 59 1 27 56
M  V30 60 1 27 57
M  V30 END BOND
M  V30 END CTAB
M  END
>  <Column 1>
1453

>  <level_0>
1603

>  <index>
1603

>  <Unnamed: 0>
1603

>  <NO.>
1615

>  <Name>
blonanserin

>  <IUPAC_name>
2-(4-ethylpiperazin-1-yl)-4-(4-fluorophenyl)-5-6-7-8-9-10-hexahydrocycloocta[b]pyridine

>  <SMILES>
CCN1CCN(c2cc(-c3ccc(F)cc3)c3c(n2)CCCCCC3)CC1

>  <CID>
125564

>  <logBB>


>  <BBB+/BBB->
BBB+

>  <Inchi>
InChI=1S/C23H30FN3/c1-2-26-13-15-27(16-14-26)23-17-21(18-9-11-19(24)12-10-18)20-7-5-3-4-6-8-22(20)25-23/h9-12-17H-2-8-13-16H2-1H3

>  <threshold>
-1

>  <reference>
R1|R13|R19|R6|R24|R27|R27|R27|R30|R30|

>  <group>
B

>  <Class>
1

>  <ABC>
21.16

>  <ABCGG>
15.26

>  <nAcid>
0

>  <nBase>
1

>  <nAromAtom>
12

>  <nAromBond>
12

>  <nAtom>
57

>  <nHeavyAtom>
27

>  <nSpiro>
0

>  <nBridgehead>
0

>  <nHetero>
4

>  <nN>
3

>  <nO>
0

>  <nF>
1

>  <BalabanJ>
1.46

>  <BertzCT>
763.94

>  <nBonds>
60

>  <nBondsO>
30

>  <nBondsS>
48

>  <nBondsD>
0

>  <nBondsT>
0

>  <nBondsA>
12

>  <nBondsM>
12

>  <nBondsKS>
54

>  <nBondsKD>
6

>  <RNCG>
0.22

>  <RPCG>
0.08

>  <FCSP3>
0.52

>  <SZ>
33

>  <Sm>
30.6

>  <Sv>
34.05

>  <Sse>
56.26

>  <Sp>
37.29

>  <Si>
64.65

>  <MZ>
0.58

>  <Mm>
0.54

>  <Mv>
0.6

>  <Mse>
0.99

>  <Mp>
0.65

>  <Mi>
1.13

>  <NsCH3>
1

>  <NdCH2>
0

>  <NssCH2>
11

>  <NtCH>
0

>  <NdsCH>
0

>  <NaaCH>
5

>  <NsssCH>
0

>  <NddC>
0

>  <NtsC>
0

>  <NdssC>
0

>  <NaasC>
6

>  <NaaaC>
0

>  <NssssC>
0

>  <NsNH3>
0

>  <NsNH2>
0

>  <NssNH2>
0

>  <NdNH>
0

>  <NssNH>
0

>  <NaaNH>
0

>  <NtN>
0

>  <NsssNH>
0

>  <NdsN>
0

>  <NaaN>
1

>  <NsssN>
2

>  <NddsN>
0

>  <NaasN>
0

>  <NssssN>
0

>  <NsOH>
0

>  <NdO>
0

>  <NssO>
0

>  <NaaO>
0

>  <NsF>
1

>  <NsSiH3>
0

>  <NssSiH2>
0

>  <NsssSiH>
0

>  <NssssSi>
0

>  <NsPH2>
0

>  <NssPH>
0

>  <NsssP>
0

>  <NdsssP>
0

>  <NsssssP>
0

>  <NsSH>
0

>  <NdS>
0

>  <NssS>
0

>  <NaaS>
0

>  <NdssS>
0

>  <NddssS>
0

>  <NsCl>
0

>  <NsBr>
0

>  <NsI>
0

>  <fragCpx>
198.04

>  <fMF>
0.42

>  <nHBAcc>
3

>  <nHBDon>
0

>  <Kier1>
20.28

>  <Kier2>
9.67

>  <Lipinski>
1

>  <GhoseFilter>
1

>  <FilterItLogS>
-6.25

>  <VMcGowan>
297.39

>  <LabuteASA>
161.76

>  <PEOE_VSA1>
9.8

>  <PEOE_VSA2>
0

>  <PEOE_VSA3>
9.37

>  <PEOE_VSA4>
0

>  <PEOE_VSA5>
0

>  <PEOE_VSA6>
31.9

>  <PEOE_VSA7>
67.12

>  <PEOE_VSA8>
31.87

>  <PEOE_VSA9>
0

>  <PEOE_VSA10>
11.64

>  <PEOE_VSA11>
0

>  <PEOE_VSA12>
0

>  <PEOE_VSA13>
0

>  <SMR_VSA1>
4.39

>  <SMR_VSA2>
0

>  <SMR_VSA3>
9.88

>  <SMR_VSA4>
0

>  <SMR_VSA5>
45.45

>  <SMR_VSA6>
37.62

>  <SMR_VSA7>
47.41

>  <SMR_VSA8>
0

>  <SMR_VSA9>
11.13

>  <SlogP_VSA1>
4.9

>  <SlogP_VSA2>
42.61

>  <SlogP_VSA3>
12.84

>  <SlogP_VSA4>
5.82

>  <SlogP_VSA5>
43.86

>  <SlogP_VSA6>
30.33

>  <SlogP_VSA7>
0

>  <SlogP_VSA8>
11.13

>  <SlogP_VSA9>
0

>  <SlogP_VSA10>
10.21

>  <SlogP_VSA11>
0

>  <EState_VSA1>
0

>  <EState_VSA2>
5.82

>  <EState_VSA3>
0

>  <EState_VSA4>
56.95

>  <EState_VSA5>
42.5

>  <EState_VSA6>
12.13

>  <EState_VSA7>
12.13

>  <EState_VSA8>
22.79

>  <EState_VSA9>
4.98

>  <EState_VSA10>
4.39

>  <VSA_EState1>
13.48

>  <VSA_EState2>
10.05

>  <VSA_EState3>
0

>  <VSA_EState4>
5.03

>  <VSA_EState5>
0.93

>  <VSA_EState6>
9.25

>  <VSA_EState7>
7.17

>  <VSA_EState8>
7.6

>  <VSA_EState9>
0

>  <apol>
62.27

>  <bpol>
35.77

>  <nRing>
4

>  <nHRing>
2

>  <naRing>
2

>  <naHRing>
1

>  <nARing 2>
2

>  <nAHRing 2>
1

>  <nFRing>
1

>  <nFHRing>
1

>  <nFaRing>
0

>  <nFaHRing>
0

>  <nFARing 2>
1

>  <nFAHRing 2>
1

>  <nRot>
3

>  <SLogP>
4.69

>  <SMR>
109.83

>  <TopoPSA(NO)>
19.37

>  <TopoPSA>
19.37

>  <JGI1>
0.15

>  <JGI2>
0.07

>  <JGI3>
0.03

>  <JGI4>
0.04

>  <JGI5>
0.03

>  <Diameter>
13

>  <Radius>
7

>  <TMWC10>
133.12

>  <TSRW10>
62.16

>  <MW>
367.24

>  <AMW>
6.44

>  <WPath>
1796

>  <WPol>
46

>  <Zagreb1>
142

>  <Zagreb2>
167

>  <mZagreb2>
6.03

>  <yes>


>  <nAR-cont>
1

>  <nHA-cont>
0.860070871

>  <MWHBN>
0.156547546

>  <MWHBN-cont>
0.948370783

>  <TPSA-cont>
0.864785372

>  <pka_cont>
0.97

>  <yes.1>


>  <BBB_SCORE>
5.497197789

>  <MMFF94 Energy>
84.176

$$$$
Compound 1223
Actelion Java MolfileCreator 2.0

  0  0  0  0  0  0              0 V3000
M  V30 BEGIN CTAB
M  V30 COUNTS 37 40 0 0 0
M  V30 BEGIN ATOM
M  V30 1 S -0.0813 -4.7246 1.4644 0
M  V30 2 C 0.001 -3.1114 2.0539 0
M  V30 3 C 0.2539 -4.2252 -0.1259 0
M  V30 4 C -0.1015 -2.6962 3.3875 0
M  V30 5 C 0.1908 -2.2209 1.0017 0
M  V30 6 C 0.4362 -2.8565 -0.259 0
M  V30 7 F -0.2678 -3.5907 4.374 0
M  V30 8 C -0.0057 -1.3512 3.7211 0
M  V30 9 C 0.176 -0.8038 1.334 0
M  V30 10 C 0.8897 -2.2847 -1.5551 0
M  V30 11 C 0.1184 -0.4439 2.6761 0
M  V30 12 C 0.1414 0.3701 0.5388 0
M  V30 13 N 0.1901 0.9299 2.7171 0
M  V30 14 C 0.1949 1.4182 1.4458 0
M  V30 15 C 0.013 0.6363 -0.931 0
M  V30 16 C 0.1555 2.861 1.0906 0
M  V30 17 N -0.4511 2.0289 -1.1968 0
M  V30 18 C 0.3541 3.0125 -0.4329 0
M  V30 19 C -0.4022 2.3469 -2.6325 0
M  V30 20 C -1.3665 1.5118 -3.4684 0
M  V30 21 H 0.3461 -4.9758 -0.8996 0
M  V30 22 H -0.0654 -1.039 4.7573 0
M  V30 23 H 1.673 -1.5398 -1.3999 0
M  V30 24 H 0.0532 -1.8654 -2.1172 0
M  V30 25 H 1.3347 -3.0615 -2.1889 0
M  V30 26 H 0.1702 1.4845 3.5623 0
M  V30 27 H 0.9818 0.4788 -1.4145 0
M  V30 28 H -0.7344 -0.0507 -1.3338 0
M  V30 29 H 0.9331 3.4172 1.6251 0
M  V30 30 H -0.818 3.2759 1.3787 0
M  V30 31 H 1.4185 2.9025 -0.6826 0
M  V30 32 H 0.065 4.0359 -0.703 0
M  V30 33 H -0.6882 3.3969 -2.7743 0
M  V30 34 H 0.6158 2.2379 -3.027 0
M  V30 35 H -1.3913 1.8897 -4.496 0
M  V30 36 H -2.3844 1.5642 -3.0679 0
M  V30 37 H -1.0631 0.4616 -3.5139 0
M  V30 END ATOM
M  V30 BEGIN BOND
M  V30 1 1 1 2
M  V30 2 1 1 3
M  V30 3 2 2 4
M  V30 4 1 2 5
M  V30 5 2 3 6
M  V30 6 1 4 7
M  V30 7 1 4 8
M  V30 8 2 5 9
M  V30 9 1 6 10
M  V30 10 2 8 11
M  V30 11 1 9 12
M  V30 12 1 11 13
M  V30 13 2 12 14
M  V30 14 1 12 15
M  V30 15 1 14 16
M  V30 16 1 15 17
M  V30 17 1 16 18
M  V30 18 1 17 19
M  V30 19 1 19 20
M  V30 20 1 5 6
M  V30 21 1 9 11
M  V30 22 1 13 14
M  V30 23 1 17 18
M  V30 24 1 3 21
M  V30 25 1 8 22
M  V30 26 1 10 23
M  V30 27 1 10 24
M  V30 28 1 10 25
M  V30 29 1 13 26
M  V30 30 1 15 27
M  V30 31 1 15 28
M  V30 32 1 16 29
M  V30 33 1 16 30
M  V30 34 1 18 31
M  V30 35 1 18 32
M  V30 36 1 19 33
M  V30 37 1 19 34
M  V30 38 1 20 35
M  V30 39 1 20 36
M  V30 40 1 20 37
M  V30 END BOND
M  V30 END CTAB
M  END
>  <Column 1>
1454

>  <level_0>
1604

>  <index>
1604

>  <Unnamed: 0>
1604

>  <NO.>
1616

>  <Name>
tiflucarbine

>  <IUPAC_name>
14-ethyl-7-fluoro-3-methyl-5-thia-10-14-diazatetracyclo[7.7.0.02-6.011-16]hexadeca-1-3-6-8-11(16)-pentaene

>  <SMILES>
CCN1CCc2[nH]c3cc(F)c4scc(C)c4c3c2C1

>  <CID>
65677

>  <logBB>


>  <BBB+/BBB->
BBB+

>  <Inchi>
InChI=1S/C16H17FN2S/c1-3-19-5-4-12-10(7-19)15-13(18-12)6-11(17)16-14(15)9(2)8-20-16/h6-8-18H-3-5-7H2-1-2H3

>  <threshold>
-1

>  <reference>
R1|R13|R19|R6|R24|R27|R27|R27|R30|R30|

>  <group>
B

>  <Class>
1

>  <ABC>
16.2

>  <ABCGG>
13.67

>  <nAcid>
0

>  <nBase>
1

>  <nAromAtom>
12

>  <nAromBond>
14

>  <nAtom>
37

>  <nHeavyAtom>
20

>  <nSpiro>
0

>  <nBridgehead>
0

>  <nHetero>
4

>  <nN>
2

>  <nO>
0

>  <nF>
1

>  <BalabanJ>
1.61

>  <BertzCT>
814.95

>  <nBonds>
40

>  <nBondsO>
23

>  <nBondsS>
26

>  <nBondsD>
0

>  <nBondsT>
0

>  <nBondsA>
14

>  <nBondsM>
14

>  <nBondsKS>
35

>  <nBondsKD>
5

>  <RNCG>
0.31

>  <RPCG>
0.15

>  <FCSP3>
0.38

>  <SZ>
25.33

>  <Sm>
24.01

>  <Sv>
23.96

>  <Sse>
36.91

>  <Sp>
26.18

>  <Si>
41.58

>  <MZ>
0.68

>  <Mm>
0.65

>  <Mv>
0.65

>  <Mse>
1

>  <Mp>
0.71

>  <Mi>
1.12

>  <NsCH3>
2

>  <NdCH2>
0

>  <NssCH2>
4

>  <NtCH>
0

>  <NdsCH>
0

>  <NaaCH>
2

>  <NsssCH>
0

>  <NddC>
0

>  <NtsC>
0

>  <NdssC>
0

>  <NaasC>
4

>  <NaaaC>
4

>  <NssssC>
0

>  <NsNH3>
0

>  <NsNH2>
0

>  <NssNH2>
0

>  <NdNH>
0

>  <NssNH>
0

>  <NaaNH>
1

>  <NtN>
0

>  <NsssNH>
0

>  <NdsN>
0

>  <NaaN>
0

>  <NsssN>
1

>  <NddsN>
0

>  <NaasN>
0

>  <NssssN>
0

>  <NsOH>
0

>  <NdO>
0

>  <NssO>
0

>  <NaaO>
0

>  <NsF>
1

>  <NsSiH3>
0

>  <NssSiH2>
0

>  <NsssSiH>
0

>  <NssssSi>
0

>  <NsPH2>
0

>  <NssPH>
0

>  <NsssP>
0

>  <NdsssP>
0

>  <NsssssP>
0

>  <NsSH>
0

>  <NdS>
0

>  <NssS>
0

>  <NaaS>
1

>  <NdssS>
0

>  <NddssS>
0

>  <NsCl>
0

>  <NsBr>
0

>  <NsI>
0

>  <fragCpx>
149.04

>  <fMF>
0.43

>  <nHBAcc>
2

>  <nHBDon>
1

>  <Kier1>
13.65

>  <Kier2>
5.03

>  <Lipinski>
1

>  <GhoseFilter>
1

>  <FilterItLogS>
-5.54

>  <VMcGowan>
209.43

>  <LabuteASA>
120.75

>  <PEOE_VSA1>
4.98

>  <PEOE_VSA2>
4.9

>  <PEOE_VSA3>
4.39

>  <PEOE_VSA4>
0

>  <PEOE_VSA5>
11.34

>  <PEOE_VSA6>
6.92

>  <PEOE_VSA7>
36.04

>  <PEOE_VSA8>
41.49

>  <PEOE_VSA9>
4.7

>  <PEOE_VSA10>
5.82

>  <PEOE_VSA11>
0

>  <PEOE_VSA12>
0

>  <PEOE_VSA13>
0

>  <SMR_VSA1>
4.39

>  <SMR_VSA2>
0

>  <SMR_VSA3>
9.88

>  <SMR_VSA4>
0

>  <SMR_VSA5>
26.81

>  <SMR_VSA6>
13.09

>  <SMR_VSA7>
34.08

>  <SMR_VSA8>
0

>  <SMR_VSA9>
0

>  <SlogP_VSA1>
0

>  <SlogP_VSA2>
22.97

>  <SlogP_VSA3>
12.97

>  <SlogP_VSA4>
12.74

>  <SlogP_VSA5>
23.74

>  <SlogP_VSA6>
11.45

>  <SlogP_VSA7>
0

>  <SlogP_VSA8>
20.99

>  <SlogP_VSA9>
0

>  <SlogP_VSA10>
4.39

>  <SlogP_VSA11>
0

>  <EState_VSA1>
0

>  <EState_VSA2>
5.82

>  <EState_VSA3>
0

>  <EState_VSA4>
41.66

>  <EState_VSA5>
33.54

>  <EState_VSA6>
6.07

>  <EState_VSA7>
0

>  <EState_VSA8>
29.11

>  <EState_VSA9>
0

>  <EState_VSA10>
4.39

>  <VSA_EState1>
15.01

>  <VSA_EState2>
5.9

>  <VSA_EState3>
4.42

>  <VSA_EState4>
4.81

>  <VSA_EState5>
-0.1

>  <VSA_EState6>
1.67

>  <VSA_EState7>
1.03

>  <VSA_EState8>
7.41

>  <VSA_EState9>
0

>  <apol>
43.71

>  <bpol>
22.91

>  <nRing>
4

>  <nHRing>
3

>  <naRing>
3

>  <naHRing>
2

>  <nARing 2>
1

>  <nAHRing 2>
1

>  <nFRing>
1

>  <nFHRing>
1

>  <nFaRing>
0

>  <nFaHRing>
0

>  <nFARing 2>
1

>  <nFAHRing 2>
1

>  <nRot>
1

>  <SLogP>
4.21

>  <SMR>
83.03

>  <TopoPSA(NO)>
19.03

>  <TopoPSA>
47.27

>  <JGI1>
0.17

>  <JGI2>
0.07

>  <JGI3>
0.05

>  <JGI4>
0.04

>  <JGI5>
0.03

>  <Diameter>
9

>  <Radius>
5

>  <TMWC10>
119.49

>  <TSRW10>
70.8

>  <MW>
288.11

>  <AMW>
7.79

>  <WPath>
709

>  <WPol>
36

>  <Zagreb1>
116

>  <Zagreb2>
145

>  <mZagreb2>
4.28

>  <yes>


>  <nAR-cont>
0.816016

>  <nHA-cont>
0.999629945

>  <MWHBN>
0.176742946

>  <MWHBN-cont>
0.983394228

>  <TPSA-cont>
0.670026047

>  <pka_cont>
0.97

>  <yes.1>


>  <BBB_SCORE>
5.115789381

>  <MMFF94 Energy>
77.814

$$$$
Compound 1224
Actelion Java MolfileCreator 2.0

  0  0  0  0  0  0              0 V3000
M  V30 BEGIN CTAB
M  V30 COUNTS 27 28 0 0 0
M  V30 BEGIN ATOM
M  V30 1 O -0.632 -0.8691 -2.4507 0
M  V30 2 C -0.2903 -0.8343 -1.2785 0
M  V30 3 N -1.0451 -1.2622 -0.2432 0
M  V30 4 C 1.0232 -0.3428 -0.7128 0 CFG=2
M  V30 5 C -0.3623 -1.1477 0.9019 0
M  V30 6 O 0.8763 -0.6418 0.6883 0
M  V30 7 C 1.2915 1.126 -0.9644 0
M  V30 8 N -0.7383 -1.4604 2.0799 0
M  V30 9 C 1.4142 2.0512 0.0846 0
M  V30 10 C 1.4493 1.5887 -2.2819 0
M  V30 11 C -2.0763 -1.9894 2.3139 0
M  V30 12 C 1.6733 3.3986 -0.1773 0
M  V30 13 C 1.7072 2.9361 -2.542 0
M  V30 14 C -2.0601 -3.5036 2.2082 0
M  V30 15 C 1.8182 3.8408 -1.4896 0
M  V30 16 H -1.9717 -1.6322 -0.3552 0
M  V30 17 H 1.8453 -0.9547 -1.0991 0
M  V30 18 H 1.3131 1.7347 1.1215 0
M  V30 19 H 1.3653 0.9009 -3.1225 0
M  V30 20 H -2.3841 -1.7033 3.3259 0
M  V30 21 H -2.8244 -1.5604 1.6381 0
M  V30 22 H 1.7642 4.1025 0.6462 0
M  V30 23 H 1.8207 3.2786 -3.5674 0
M  V30 24 H -1.3425 -3.9367 2.9128 0
M  V30 25 H -1.7765 -3.8274 1.2018 0
M  V30 26 H -3.0502 -3.9122 2.4324 0
M  V30 27 H 2.0195 4.8894 -1.6916 0
M  V30 END ATOM
M  V30 BEGIN BOND
M  V30 1 2 1 2
M  V30 2 1 2 3
M  V30 3 1 2 4
M  V30 4 1 3 5
M  V30 5 1 4 6
M  V30 6 1 4 7
M  V30 7 2 5 8
M  V30 8 2 7 9
M  V30 9 1 7 10
M  V30 10 1 8 11
M  V30 11 1 9 12
M  V30 12 2 10 13
M  V30 13 1 11 14
M  V30 14 2 12 15
M  V30 15 1 5 6
M  V30 16 1 13 15
M  V30 17 1 3 16
M  V30 18 1 4 17
M  V30 19 1 9 18
M  V30 20 1 10 19
M  V30 21 1 11 20
M  V30 22 1 11 21
M  V30 23 1 12 22
M  V30 24 1 13 23
M  V30 25 1 14 24
M  V30 26 1 14 25
M  V30 27 1 14 26
M  V30 28 1 15 27
M  V30 END BOND
M  V30 BEGIN COLLECTION
M  V30 MDLV30/STERAC1 ATOMS=(1 4)
M  V30 END COLLECTION
M  V30 END CTAB
M  END
>  <Column 1>
1455

>  <level_0>
1605

>  <index>
1605

>  <Unnamed: 0>
1605

>  <NO.>
1617

>  <Name>
fenozolone

>  <IUPAC_name>
2-ethylimino-5-phenyl-1-3-oxazolidin-4-one

>  <SMILES>
CCN=C1NC(=O)C(c2ccccc2)O1

>  <CID>
135436543

>  <logBB>


>  <BBB+/BBB->
BBB+

>  <Inchi>
InChI=1S/C11H12N2O2/c1-2-12-11-13-10(14)9(15-11)8-6-4-3-5-7-8/h3-7-9H-2H2-1H3-(H-12-13-14)

>  <threshold>
-1

>  <reference>
R1|R19|R6|R27|R27|R30|

>  <group>
B

>  <Class>
1

>  <ABC>
11.34

>  <ABCGG>
10.13

>  <nAcid>
0

>  <nBase>
2

>  <nAromAtom>
6

>  <nAromBond>
6

>  <nAtom>
27

>  <nHeavyAtom>
15

>  <nSpiro>
0

>  <nBridgehead>
0

>  <nHetero>
4

>  <nN>
2

>  <nO>
2

>  <nF>
0

>  <BalabanJ>
1.86

>  <BertzCT>
386.83

>  <nBonds>
28

>  <nBondsO>
16

>  <nBondsS>
20

>  <nBondsD>
2

>  <nBondsT>
0

>  <nBondsA>
6

>  <nBondsM>
8

>  <nBondsKS>
23

>  <nBondsKD>
5

>  <RNCG>
0.28

>  <RPCG>
0.19

>  <FCSP3>
0.27

>  <SZ>
18

>  <Sm>
17

>  <Sv>
17.2

>  <Sse>
27.31

>  <Sp>
18.07

>  <Si>
30.49

>  <MZ>
0.67

>  <Mm>
0.63

>  <Mv>
0.64

>  <Mse>
1.01

>  <Mp>
0.67

>  <Mi>
1.13

>  <NsCH3>
1

>  <NdCH2>
0

>  <NssCH2>
1

>  <NtCH>
0

>  <NdsCH>
0

>  <NaaCH>
5

>  <NsssCH>
1

>  <NddC>
0

>  <NtsC>
0

>  <NdssC>
2

>  <NaasC>
1

>  <NaaaC>
0

>  <NssssC>
0

>  <NsNH3>
0

>  <NsNH2>
0

>  <NssNH2>
0

>  <NdNH>
0

>  <NssNH>
1

>  <NaaNH>
0

>  <NtN>
0

>  <NsssNH>
0

>  <NdsN>
1

>  <NaaN>
0

>  <NsssN>
0

>  <NddsN>
0

>  <NaasN>
0

>  <NssssN>
0

>  <NsOH>
0

>  <NdO>
1

>  <NssO>
1

>  <NaaO>
0

>  <NsF>
0

>  <NsSiH3>
0

>  <NssSiH2>
0

>  <NsssSiH>
0

>  <NssssSi>
0

>  <NsPH2>
0

>  <NssPH>
0

>  <NsssP>
0

>  <NdsssP>
0

>  <NsssssP>
0

>  <NsSH>
0

>  <NdS>
0

>  <NssS>
0

>  <NaaS>
0

>  <NdssS>
0

>  <NddssS>
0

>  <NsCl>
0

>  <NsBr>
0

>  <NsI>
0

>  <fragCpx>
46.04

>  <fMF>
0.41

>  <nHBAcc>
3

>  <nHBDon>
1

>  <Kier1>
11.48

>  <Kier2>
5.37

>  <Lipinski>
1

>  <GhoseFilter>
1

>  <FilterItLogS>
-2.75

>  <VMcGowan>
154.33

>  <LabuteASA>
87.97

>  <PEOE_VSA1>
4.74

>  <PEOE_VSA2>
10.11

>  <PEOE_VSA3>
4.99

>  <PEOE_VSA4>
0

>  <PEOE_VSA5>
0

>  <PEOE_VSA6>
30.33

>  <PEOE_VSA7>
6.92

>  <PEOE_VSA8>
12.11

>  <PEOE_VSA9>
0

>  <PEOE_VSA10>
0

>  <PEOE_VSA11>
0

>  <PEOE_VSA12>
6.1

>  <PEOE_VSA13>
11.93

>  <SMR_VSA1>
9.53

>  <SMR_VSA2>
0

>  <SMR_VSA3>
5.32

>  <SMR_VSA4>
4.99

>  <SMR_VSA5>
13.03

>  <SMR_VSA6>
6.54

>  <SMR_VSA7>
35.9

>  <SMR_VSA8>
0

>  <SMR_VSA9>
0

>  <SlogP_VSA1>
5.32

>  <SlogP_VSA2>
18.47

>  <SlogP_VSA3>
9.53

>  <SlogP_VSA4>
0

>  <SlogP_VSA5>
18.59

>  <SlogP_VSA6>
35.32

>  <SlogP_VSA7>
0

>  <SlogP_VSA8>
0

>  <SlogP_VSA9>
0

>  <SlogP_VSA10>
0

>  <SlogP_VSA11>
0

>  <EState_VSA1>
6.1

>  <EState_VSA2>
5.91

>  <EState_VSA3>
12.57

>  <EState_VSA4>
5.56

>  <EState_VSA5>
0

>  <EState_VSA6>
0

>  <EState_VSA7>
37.26

>  <EState_VSA8>
10.31

>  <EState_VSA9>
4.74

>  <EState_VSA10>
4.79

>  <VSA_EState1>
5.39

>  <VSA_EState2>
15.56

>  <VSA_EState3>
2.59

>  <VSA_EState4>
0.84

>  <VSA_EState5>
-0.16

>  <VSA_EState6>
9.69

>  <VSA_EState7>
-0.56

>  <VSA_EState8>
2.48

>  <VSA_EState9>
0

>  <apol>
30.18

>  <bpol>
16.35

>  <nRing>
2

>  <nHRing>
1

>  <naRing>
1

>  <naHRing>
0

>  <nARing 2>
1

>  <nAHRing 2>
1

>  <nFRing>
0

>  <nFHRing>
0

>  <nFaRing>
0

>  <nFaHRing>
0

>  <nFARing 2>
0

>  <nFAHRing 2>
0

>  <nRot>
2

>  <SLogP>
1.25

>  <SMR>
56.39

>  <TopoPSA(NO)>
50.69

>  <TopoPSA>
50.69

>  <JGI1>
0.16

>  <JGI2>
0.06

>  <JGI3>
0.06

>  <JGI4>
0.04

>  <JGI5>
0.03

>  <Diameter>
9

>  <Radius>
5

>  <TMWC10>
100.55

>  <TSRW10>
60.59

>  <MW>
204.09

>  <AMW>
7.56

>  <WPath>
375

>  <WPol>
19

>  <Zagreb1>
74

>  <Zagreb2>
85

>  <mZagreb2>
3.47

>  <yes>


>  <nAR-cont>
0.816016

>  <nHA-cont>
0.92539861

>  <MWHBN>
0.27999426

>  <MWHBN-cont>
0.896096372

>  <TPSA-cont>
0.646152323

>  <pka_cont>
0.97

>  <yes.1>


>  <BBB_SCORE>
4.862863815

>  <MMFF94 Energy>
-22.748

$$$$
Compound 1225
Actelion Java MolfileCreator 2.0

  0  0  0  0  0  0              0 V3000
M  V30 BEGIN CTAB
M  V30 COUNTS 35 37 0 0 0
M  V30 BEGIN ATOM
M  V30 1 Cl -1.9643 -0.3271 -5.4089 0
M  V30 2 C -1.5394 0.3275 -3.8766 0
M  V30 3 C -0.5415 -0.2769 -3.1165 0
M  V30 4 C -2.1937 1.4572 -3.4004 0
M  V30 5 C -0.1801 0.2517 -1.8613 0
M  V30 6 C -1.849 1.9802 -2.1521 0
M  V30 7 C -0.8512 1.3808 -1.3682 0
M  V30 8 C 0.8816 -0.4474 -1.0372 0 CFG=1
M  V30 9 N -0.5224 1.9405 -0.1328 0
M  V30 10 S 1.8302 0.6583 0.0383 0
M  V30 11 C 0.3897 -1.6816 -0.2898 0
M  V30 12 C 0.5335 1.6432 0.6757 0
M  V30 13 C 1.1191 -2.8812 -0.3774 0
M  V30 14 C -0.7634 -1.6637 0.513 0
M  V30 15 N 0.5364 2.155 1.8631 0
M  V30 16 C 0.7003 -4.0268 0.3024 0
M  V30 17 C -1.1801 -2.8108 1.1925 0
M  V30 18 C 1.6396 1.8922 2.7811 0
M  V30 19 C -0.4501 -3.9915 1.0856 0
M  V30 20 C 1.337 2.592 4.0963 0
M  V30 21 H -0.0444 -1.1677 -3.4955 0
M  V30 22 H -2.9708 1.9354 -3.9909 0
M  V30 23 H -2.3681 2.8677 -1.7961 0
M  V30 24 H 1.6336 -0.7876 -1.7623 0
M  V30 25 H -1.1633 2.6136 0.2648 0
M  V30 26 H 2.0275 -2.9322 -0.9746 0
M  V30 27 H -1.3525 -0.7566 0.6243 0
M  V30 28 H 1.2756 -4.9458 0.2242 0
M  V30 29 H -2.0748 -2.7795 1.8095 0
M  V30 30 H 1.7455 0.8185 2.9738 0
M  V30 31 H 2.5827 2.2852 2.3851 0
M  V30 32 H -0.7749 -4.882 1.6172 0
M  V30 33 H 0.4026 2.221 4.5307 0
M  V30 34 H 1.2313 3.6722 3.9493 0
M  V30 35 H 2.1433 2.42 4.8158 0
M  V30 END ATOM
M  V30 BEGIN BOND
M  V30 1 1 1 2
M  V30 2 2 2 3
M  V30 3 1 2 4
M  V30 4 1 3 5
M  V30 5 2 4 6
M  V30 6 2 5 7
M  V30 7 1 5 8
M  V30 8 1 7 9
M  V30 9 1 8 10
M  V30 10 1 8 11
M  V30 11 1 9 12
M  V30 12 2 11 13
M  V30 13 1 11 14
M  V30 14 2 12 15
M  V30 15 1 13 16
M  V30 16 2 14 17
M  V30 17 1 15 18
M  V30 18 2 16 19
M  V30 19 1 18 20
M  V30 20 1 6 7
M  V30 21 1 10 12
M  V30 22 1 17 19
M  V30 23 1 3 21
M  V30 24 1 4 22
M  V30 25 1 6 23
M  V30 26 1 8 24
M  V30 27 1 9 25
M  V30 28 1 13 26
M  V30 29 1 14 27
M  V30 30 1 16 28
M  V30 31 1 17 29
M  V30 32 1 18 30
M  V30 33 1 18 31
M  V30 34 1 19 32
M  V30 35 1 20 33
M  V30 36 1 20 34
M  V30 37 1 20 35
M  V30 END BOND
M  V30 BEGIN COLLECTION
M  V30 MDLV30/STERAC1 ATOMS=(1 8)
M  V30 END COLLECTION
M  V30 END CTAB
M  END
>  <Column 1>
1456

>  <level_0>
1606

>  <index>
1606

>  <Unnamed: 0>
1606

>  <NO.>
1618

>  <Name>
etasuline

>  <IUPAC_name>
6-chloro-n-ethyl-4-phenyl-1-4-dihydro-3-1-benzothiazin-2-imine

>  <SMILES>
CCN=C1Nc2ccc(Cl)cc2C(c2ccccc2)S1

>  <CID>
135407187

>  <logBB>


>  <BBB+/BBB->
BBB+

>  <Inchi>
InChI=1S/C16H15ClN2S/c1-2-18-16-19-14-9-8-12(17)10-13(14)15(20-16)11-6-4-3-5-7-11/h3-10-15H-2H2-1H3-(H-18-19)

>  <threshold>
-1

>  <reference>
R1|R19|R6|R27|R27|R30|

>  <group>
B

>  <Class>
1

>  <ABC>
15.54

>  <ABCGG>
12.49

>  <nAcid>
0

>  <nBase>
2

>  <nAromAtom>
12

>  <nAromBond>
12

>  <nAtom>
35

>  <nHeavyAtom>
20

>  <nSpiro>
0

>  <nBridgehead>
0

>  <nHetero>
4

>  <nN>
2

>  <nO>
0

>  <nF>
0

>  <BalabanJ>
1.71

>  <BertzCT>
640.18

>  <nBonds>
37

>  <nBondsO>
22

>  <nBondsS>
24

>  <nBondsD>
1

>  <nBondsT>
0

>  <nBondsA>
12

>  <nBondsM>
13

>  <nBondsKS>
30

>  <nBondsKD>
7

>  <RNCG>
0.27

>  <RPCG>
0.13

>  <FCSP3>
0.19

>  <SZ>
26.33

>  <Sm>
25.21

>  <Sv>
23.86

>  <Sse>
34.83

>  <Sp>
26.35

>  <Si>
38.77

>  <MZ>
0.75

>  <Mm>
0.72

>  <Mv>
0.68

>  <Mse>
1

>  <Mp>
0.75

>  <Mi>
1.11

>  <NsCH3>
1

>  <NdCH2>
0

>  <NssCH2>
1

>  <NtCH>
0

>  <NdsCH>
0

>  <NaaCH>
8

>  <NsssCH>
1

>  <NddC>
0

>  <NtsC>
0

>  <NdssC>
1

>  <NaasC>
4

>  <NaaaC>
0

>  <NssssC>
0

>  <NsNH3>
0

>  <NsNH2>
0

>  <NssNH2>
0

>  <NdNH>
0

>  <NssNH>
1

>  <NaaNH>
0

>  <NtN>
0

>  <NsssNH>
0

>  <NdsN>
1

>  <NaaN>
0

>  <NsssN>
0

>  <NddsN>
0

>  <NaasN>
0

>  <NssssN>
0

>  <NsOH>
0

>  <NdO>
0

>  <NssO>
0

>  <NaaO>
0

>  <NsF>
0

>  <NsSiH3>
0

>  <NssSiH2>
0

>  <NsssSiH>
0

>  <NssssSi>
0

>  <NsPH2>
0

>  <NssPH>
0

>  <NsssP>
0

>  <NdsssP>
0

>  <NsssssP>
0

>  <NsSH>
0

>  <NdS>
0

>  <NssS>
1

>  <NaaS>
0

>  <NdssS>
0

>  <NddssS>
0

>  <NsCl>
1

>  <NsBr>
0

>  <NsI>
0

>  <fragCpx>
104.04

>  <fMF>
0.46

>  <nHBAcc>
2

>  <nHBDon>
1

>  <Kier1>
14.92

>  <Kier2>
6.84

>  <Lipinski>
1

>  <GhoseFilter>
1

>  <FilterItLogS>
-5.62

>  <VMcGowan>
222.17

>  <LabuteASA>
127.81

>  <PEOE_VSA1>
5.32

>  <PEOE_VSA2>
4.99

>  <PEOE_VSA3>
0

>  <PEOE_VSA4>
0

>  <PEOE_VSA5>
0

>  <PEOE_VSA6>
53.69

>  <PEOE_VSA7>
36.25

>  <PEOE_VSA8>
17.25

>  <PEOE_VSA9>
5.25

>  <PEOE_VSA10>
0

>  <PEOE_VSA11>
5.17

>  <PEOE_VSA12>
0

>  <PEOE_VSA13>
0

>  <SMR_VSA1>
0

>  <SMR_VSA2>
0

>  <SMR_VSA3>
0

>  <SMR_VSA4>
4.99

>  <SMR_VSA5>
12.17

>  <SMR_VSA6>
11.86

>  <SMR_VSA7>
64.68

>  <SMR_VSA8>
0

>  <SMR_VSA9>
0

>  <SlogP_VSA1>
5.32

>  <SlogP_VSA2>
11.71

>  <SlogP_VSA3>
0

>  <SlogP_VSA4>
0

>  <SlogP_VSA5>
23.3

>  <SlogP_VSA6>
53.52

>  <SlogP_VSA7>
5.02

>  <SlogP_VSA8>
0

>  <SlogP_VSA9>
0

>  <SlogP_VSA10>
5.69

>  <SlogP_VSA11>
0

>  <EState_VSA1>
0

>  <EState_VSA2>
5.25

>  <EState_VSA3>
0

>  <EState_VSA4>
22.42

>  <EState_VSA5>
11.13

>  <EState_VSA6>
11.76

>  <EState_VSA7>
31.19

>  <EState_VSA8>
34.57

>  <EState_VSA9>
11.6

>  <EState_VSA10>
0

>  <VSA_EState1>
0

>  <VSA_EState2>
4.52

>  <VSA_EState3>
5.35

>  <VSA_EState4>
3.57

>  <VSA_EState5>
0

>  <VSA_EState6>
16.45

>  <VSA_EState7>
0

>  <VSA_EState8>
2.82

>  <VSA_EState9>
0

>  <apol>
44

>  <bpol>
19.73

>  <nRing>
3

>  <nHRing>
1

>  <naRing>
2

>  <naHRing>
0

>  <nARing 2>
1

>  <nAHRing 2>
1

>  <nFRing>
1

>  <nFHRing>
1

>  <nFaRing>
0

>  <nFaHRing>
0

>  <nFARing 2>
1

>  <nFAHRing 2>
1

>  <nRot>
2

>  <SLogP>
4.96

>  <SMR>
88.93

>  <TopoPSA(NO)>
24.39

>  <TopoPSA>
49.69

>  <JGI1>
0.16

>  <JGI2>
0.06

>  <JGI3>
0.04

>  <JGI4>
0.04

>  <JGI5>
0.02

>  <Diameter>
9

>  <Radius>
5

>  <TMWC10>
115.47

>  <TSRW10>
53.72

>  <MW>
302.06

>  <AMW>
8.63

>  <WPath>
766

>  <WPol>
31

>  <Zagreb1>
104

>  <Zagreb2>
122

>  <mZagreb2>
4.5

>  <yes>


>  <nAR-cont>
0.816016

>  <nHA-cont>
0.999629945

>  <MWHBN>
0.172613455

>  <MWHBN-cont>
0.977882732

>  <TPSA-cont>
0.653132944

>  <pka_cont>
0.97

>  <yes.1>


>  <BBB_SCORE>
5.073735931

>  <MMFF94 Energy>
-9.3535

$$$$
Compound 1226
Actelion Java MolfileCreator 2.0

  0  0  0  0  0  0              0 V3000
M  V30 BEGIN CTAB
M  V30 COUNTS 26 26 0 0 0
M  V30 BEGIN ATOM
M  V30 1 Br 1.1953 -4.2285 3.1102 0
M  V30 2 C 0.1289 -2.6671 3.063 0
M  V30 3 C 0.0619 -1.9119 1.8905 0
M  V30 4 C -0.5848 -2.2856 4.1968 0
M  V30 5 C -0.7199 -0.7501 1.8466 0
M  V30 6 C -1.3786 -1.141 4.1558 0
M  V30 7 C -1.4496 -0.3813 2.9853 0
M  V30 8 C -0.8463 0.0662 0.6323 0
M  V30 9 C 0.1667 0.3203 -0.21 0
M  V30 10 C -0.0666 1.1748 -1.4017 0
M  V30 11 O -1.156 1.6692 -1.6593 0
M  V30 12 N 1.061 1.3397 -2.1681 0
M  V30 13 C 1.0464 2.1346 -3.3778 0
M  V30 14 C 0.5946 1.3201 -4.5763 0
M  V30 15 H 0.6085 -2.2406 1.011 0
M  V30 16 H -0.5348 -2.8729 5.1097 0
M  V30 17 H -1.9448 -0.8391 5.0335 0
M  V30 18 H -2.0764 0.5087 2.9726 0
M  V30 19 H -1.8304 0.4957 0.4477 0
M  V30 20 H 1.1635 -0.0648 -0.044 0
M  V30 21 H 1.9279 0.8954 -1.9007 0
M  V30 22 H 0.3868 2.9976 -3.2377 0
M  V30 23 H 2.0645 2.504 -3.5358 0
M  V30 24 H 0.6151 1.932 -5.4831 0
M  V30 25 H 1.2487 0.4554 -4.7298 0
M  V30 26 H -0.425 0.9457 -4.4385 0
M  V30 END ATOM
M  V30 BEGIN BOND
M  V30 1 1 1 2
M  V30 2 2 2 3
M  V30 3 1 2 4
M  V30 4 1 3 5
M  V30 5 2 4 6
M  V30 6 2 5 7
M  V30 7 1 5 8
M  V30 8 2 8 9
M  V30 9 1 9 10
M  V30 10 2 10 11
M  V30 11 1 10 12
M  V30 12 1 12 13
M  V30 13 1 13 14
M  V30 14 1 6 7
M  V30 15 1 3 15
M  V30 16 1 4 16
M  V30 17 1 6 17
M  V30 18 1 7 18
M  V30 19 1 8 19
M  V30 20 1 9 20
M  V30 21 1 12 21
M  V30 22 1 13 22
M  V30 23 1 13 23
M  V30 24 1 14 24
M  V30 25 1 14 25
M  V30 26 1 14 26
M  V30 END BOND
M  V30 END CTAB
M  END
>  <Column 1>
1457

>  <level_0>
1607

>  <index>
1607

>  <Unnamed: 0>
1607

>  <NO.>
1619

>  <Name>
cinromide

>  <IUPAC_name>
(e)-3-(3-bromophenyl)-n-ethylprop-2-enamide

>  <SMILES>
CCNC(=O)/C=C/c1cccc(Br)c1

>  <CID>
688145

>  <logBB>


>  <BBB+/BBB->
BBB+

>  <Inchi>
InChI=1S/C11H12BrNO/c1-2-13-11(14)7-6-9-4-3-5-10(12)8-9/h3-8H-2H2-1H3-(H-13-14)/b7-6+

>  <threshold>
-1

>  <reference>
R1|R13|R6|R24|R27|R30|

>  <group>
B

>  <Class>
1

>  <ABC>
10.12

>  <ABCGG>
9.1

>  <nAcid>
0

>  <nBase>
0

>  <nAromAtom>
6

>  <nAromBond>
6

>  <nAtom>
26

>  <nHeavyAtom>
14

>  <nSpiro>
0

>  <nBridgehead>
0

>  <nHetero>
3

>  <nN>
1

>  <nO>
1

>  <nF>
0

>  <BalabanJ>
2.1

>  <BertzCT>
346.9

>  <nBonds>
26

>  <nBondsO>
14

>  <nBondsS>
18

>  <nBondsD>
2

>  <nBondsT>
0

>  <nBondsA>
6

>  <nBondsM>
8

>  <nBondsKS>
21

>  <nBondsKD>
5

>  <RNCG>
0.35

>  <RPCG>
0.24

>  <FCSP3>
0.18

>  <SZ>
21.33

>  <Sm>
21.16

>  <Sv>
17.01

>  <Sse>
25.99

>  <Sp>
18.76

>  <Si>
29.04

>  <MZ>
0.82

>  <Mm>
0.81

>  <Mv>
0.65

>  <Mse>
1

>  <Mp>
0.72

>  <Mi>
1.12

>  <NsCH3>
1

>  <NdCH2>
0

>  <NssCH2>
1

>  <NtCH>
0

>  <NdsCH>
2

>  <NaaCH>
4

>  <NsssCH>
0

>  <NddC>
0

>  <NtsC>
0

>  <NdssC>
1

>  <NaasC>
2

>  <NaaaC>
0

>  <NssssC>
0

>  <NsNH3>
0

>  <NsNH2>
0

>  <NssNH2>
0

>  <NdNH>
0

>  <NssNH>
1

>  <NaaNH>
0

>  <NtN>
0

>  <NsssNH>
0

>  <NdsN>
0

>  <NaaN>
0

>  <NsssN>
0

>  <NddsN>
0

>  <NaasN>
0

>  <NssssN>
0

>  <NsOH>
0

>  <NdO>
1

>  <NssO>
0

>  <NaaO>
0

>  <NsF>
0

>  <NsSiH3>
0

>  <NssSiH2>
0

>  <NsssSiH>
0

>  <NssssSi>
0

>  <NsPH2>
0

>  <NssPH>
0

>  <NsssP>
0

>  <NdsssP>
0

>  <NsssssP>
0

>  <NsSH>
0

>  <NdS>
0

>  <NssS>
0

>  <NaaS>
0

>  <NdssS>
0

>  <NddssS>
0

>  <NsCl>
0

>  <NsBr>
1

>  <NsI>
0

>  <fragCpx>
14.03

>  <fMF>
0.23

>  <nHBAcc>
1

>  <nHBDon>
1

>  <Kier1>
12.07

>  <Kier2>
6.48

>  <Lipinski>
1

>  <GhoseFilter>
1

>  <FilterItLogS>
-3.53

>  <VMcGowan>
166.84

>  <LabuteASA>
92.15

>  <PEOE_VSA1>
5.32

>  <PEOE_VSA2>
4.79

>  <PEOE_VSA3>
0

>  <PEOE_VSA4>
0

>  <PEOE_VSA5>
0

>  <PEOE_VSA6>
28.06

>  <PEOE_VSA7>
30.7

>  <PEOE_VSA8>
17.09

>  <PEOE_VSA9>
0

>  <PEOE_VSA10>
0

>  <PEOE_VSA11>
0

>  <PEOE_VSA12>
5.91

>  <PEOE_VSA13>
0

>  <SMR_VSA1>
4.79

>  <SMR_VSA2>
0

>  <SMR_VSA3>
5.32

>  <SMR_VSA4>
0

>  <SMR_VSA5>
6.92

>  <SMR_VSA6>
6.54

>  <SMR_VSA7>
40.38

>  <SMR_VSA8>
0

>  <SMR_VSA9>
0

>  <SlogP_VSA1>
5.32

>  <SlogP_VSA2>
12.45

>  <SlogP_VSA3>
4.79

>  <SlogP_VSA4>
0

>  <SlogP_VSA5>
12.49

>  <SlogP_VSA6>
34.81

>  <SlogP_VSA7>
0

>  <SlogP_VSA8>
6.08

>  <SlogP_VSA9>
0

>  <SlogP_VSA10>
0

>  <SlogP_VSA11>
0

>  <EState_VSA1>
0

>  <EState_VSA2>
5.91

>  <EState_VSA3>
6.54

>  <EState_VSA4>
10.04

>  <EState_VSA5>
6.08

>  <EState_VSA6>
6.08

>  <EState_VSA7>
31.19

>  <EState_VSA8>
21.25

>  <EState_VSA9>
0

>  <EState_VSA10>
4.79

>  <VSA_EState1>
1.01

>  <VSA_EState2>
11.09

>  <VSA_EState3>
2.69

>  <VSA_EState4>
1.01

>  <VSA_EState5>
-0.06

>  <VSA_EState6>
7.78

>  <VSA_EState7>
3.32

>  <VSA_EState8>
2.55

>  <VSA_EState9>
0

>  <apol>
31.32

>  <bpol>
14.86

>  <nRing>
1

>  <nHRing>
0

>  <naRing>
1

>  <naHRing>
0

>  <nARing 2>
0

>  <nAHRing 2>
0

>  <nFRing>
0

>  <nFHRing>
0

>  <nFaRing>
0

>  <nFaHRing>
0

>  <nFARing 2>
0

>  <nFAHRing 2>
0

>  <nRot>
3

>  <SLogP>
2.6

>  <SMR>
61.86

>  <TopoPSA(NO)>
29.1

>  <TopoPSA>
29.1

>  <JGI1>
0.21

>  <JGI2>
0.07

>  <JGI3>
0.04

>  <JGI4>
0.04

>  <JGI5>
0.02

>  <Diameter>
9

>  <Radius>
5

>  <TMWC10>
93.34

>  <TSRW10>
44.29

>  <MW>
253.01

>  <AMW>
9.73

>  <WPath>
351

>  <WPol>
15

>  <Zagreb1>
62

>  <Zagreb2>
66

>  <mZagreb2>
3.33

>  <yes>


>  <nAR-cont>
0.336376

>  <nHA-cont>
0.887625254

>  <MWHBN>
0.125736438

>  <MWHBN-cont>
0.853126612

>  <TPSA-cont>
0.79686393

>  <pka_cont>
0.97

>  <yes.1>


>  <BBB_SCORE>
4.582419032

>  <MMFF94 Energy>
-19.389

$$$$
Compound 1227
Actelion Java MolfileCreator 2.0

  0  0  0  0  0  0              0 V3000
M  V30 BEGIN CTAB
M  V30 COUNTS 58 60 0 0 0
M  V30 BEGIN ATOM
M  V30 1 F 5.4038 -1.1901 6.7583 0
M  V30 2 C 4.7743 -0.8857 5.616 0
M  V30 3 C 4.7085 0.4369 5.2016 0
M  V30 4 C 4.1999 -1.8987 4.86 0
M  V30 5 C 4.0523 0.7521 4.0105 0
M  V30 6 C 3.5432 -1.5854 3.6673 0
M  V30 7 C 3.4515 -0.2532 3.228 0
M  V30 8 C 2.7585 0.1438 1.9221 0
M  V30 9 C 3.7673 0.345 0.7941 0
M  V30 10 C 1.5981 -0.7979 1.5121 0
M  V30 11 C 4.5198 -0.7266 0.2824 0
M  V30 12 C 3.9608 1.6272 0.2493 0
M  V30 13 C 0.7164 -0.2082 0.3999 0
M  V30 14 C 5.4372 -0.5215 -0.7494 0
M  V30 15 C 4.8784 1.8293 -0.7828 0
M  V30 16 C -0.4629 -1.1388 0.0842 0
M  V30 17 C 5.6072 0.7535 -1.2724 0
M  V30 18 N -1.2593 -0.6819 -1.0664 0
M  V30 19 F 6.4878 0.9491 -2.2625 0
M  V30 20 C -2.0197 0.5528 -0.7696 0
M  V30 21 C -2.2062 -1.7496 -1.4758 0
M  V30 22 C -2.916 1.0048 -1.9453 0
M  V30 23 C -3.0778 -1.3284 -2.6714 0
M  V30 24 N -3.7897 -0.0804 -2.3973 0
M  V30 25 C -5.1636 -0.0578 -2.4963 0
M  V30 26 O -5.836 -1.0746 -2.6512 0
M  V30 27 N -5.7428 1.1784 -2.4171 0
M  V30 28 C -7.1792 1.356 -2.4222 0
M  V30 29 C -7.7336 1.4101 -3.8345 0
M  V30 30 H 5.1706 1.2127 5.8031 0
M  V30 31 H 4.2699 -2.9267 5.2008 0
M  V30 32 H 4.0164 1.7916 3.6898 0
M  V30 33 H 3.113 -2.3986 3.089 0
M  V30 34 H 2.2824 1.1141 2.1296 0
M  V30 35 H 0.9638 -0.9868 2.3887 0
M  V30 36 H 1.979 -1.7728 1.184 0
M  V30 37 H 4.4021 -1.7288 0.6875 0
M  V30 38 H 3.3958 2.4779 0.6241 0
M  V30 39 H 0.3527 0.7734 0.7225 0
M  V30 40 H 1.3108 -0.0571 -0.5086 0
M  V30 41 H 6.0204 -1.3465 -1.145 0
M  V30 42 H 5.0293 2.8168 -1.2066 0
M  V30 43 H -0.0462 -2.1279 -0.1465 0
M  V30 44 H -1.0947 -1.2602 0.9738 0
M  V30 45 H -1.3337 1.3775 -0.55 0
M  V30 46 H -2.6504 0.4011 0.1165 0
M  V30 47 H -1.6453 -2.6468 -1.7632 0
M  V30 48 H -2.8575 -2.0199 -0.6338 0
M  V30 49 H -3.4851 1.879 -1.6218 0
M  V30 50 H -2.2976 1.3023 -2.8003 0
M  V30 51 H -2.4473 -1.1528 -3.5519 0
M  V30 52 H -3.7687 -2.1382 -2.9257 0
M  V30 53 H -5.1709 1.9919 -2.5631 0
M  V30 54 H -7.6491 0.5397 -1.8634 0
M  V30 55 H -7.3903 2.2945 -1.8997 0
M  V30 56 H -8.8156 1.5718 -3.8135 0
M  V30 57 H -7.275 2.2261 -4.4029 0
M  V30 58 H -7.537 0.4778 -4.3736 0
M  V30 END ATOM
M  V30 BEGIN BOND
M  V30 1 1 1 2
M  V30 2 2 2 3
M  V30 3 1 2 4
M  V30 4 1 3 5
M  V30 5 2 4 6
M  V30 6 2 5 7
M  V30 7 1 7 8
M  V30 8 1 8 9
M  V30 9 1 8 10
M  V30 10 2 9 11
M  V30 11 1 9 12
M  V30 12 1 10 13
M  V30 13 1 11 14
M  V30 14 2 12 15
M  V30 15 1 13 16
M  V30 16 2 14 17
M  V30 17 1 16 18
M  V30 18 1 17 19
M  V30 19 1 18 20
M  V30 20 1 18 21
M  V30 21 1 20 22
M  V30 22 1 21 23
M  V30 23 1 22 24
M  V30 24 1 24 25
M  V30 25 2 25 26
M  V30 26 1 25 27
M  V30 27 1 27 28
M  V30 28 1 28 29
M  V30 29 1 6 7
M  V30 30 1 15 17
M  V30 31 1 23 24
M  V30 32 1 3 30
M  V30 33 1 4 31
M  V30 34 1 5 32
M  V30 35 1 6 33
M  V30 36 1 8 34
M  V30 37 1 10 35
M  V30 38 1 10 36
M  V30 39 1 11 37
M  V30 40 1 12 38
M  V30 41 1 13 39
M  V30 42 1 13 40
M  V30 43 1 14 41
M  V30 44 1 15 42
M  V30 45 1 16 43
M  V30 46 1 16 44
M  V30 47 1 20 45
M  V30 48 1 20 46
M  V30 49 1 21 47
M  V30 50 1 21 48
M  V30 51 1 22 49
M  V30 52 1 22 50
M  V30 53 1 23 51
M  V30 54 1 23 52
M  V30 55 1 27 53
M  V30 56 1 28 54
M  V30 57 1 28 55
M  V30 58 1 29 56
M  V30 59 1 29 57
M  V30 60 1 29 58
M  V30 END BOND
M  V30 END CTAB
M  END
>  <Column 1>
1458

>  <level_0>
1608

>  <index>
1608

>  <Unnamed: 0>
1608

>  <NO.>
1620

>  <Name>
amperozide

>  <IUPAC_name>
4-[4-4-bis(4-fluorophenyl)butyl]-n-ethylpiperazine-1-carboxamide

>  <SMILES>
CCNC(=O)N1CCN(CCCC(c2ccc(F)cc2)c2ccc(F)cc2)CC1

>  <CID>
73333

>  <logBB>


>  <BBB+/BBB->
BBB+

>  <Inchi>
InChI=1S/C23H29F2N3O/c1-2-26-23(29)28-16-14-27(15-17-28)13-3-4-22(18-5-9-20(24)10-6-18)19-7-11-21(25)12-8-19/h5-12-22H-2-4-13-17H2-1H3-(H-26-29)

>  <threshold>
-1

>  <reference>
R1|R13|R19|R6|R24|R27|R27|R27|R30|R30|

>  <group>
B

>  <Class>
1

>  <ABC>
22.13

>  <ABCGG>
16.63

>  <nAcid>
0

>  <nBase>
1

>  <nAromAtom>
12

>  <nAromBond>
12

>  <nAtom>
58

>  <nHeavyAtom>
29

>  <nSpiro>
0

>  <nBridgehead>
0

>  <nHetero>
6

>  <nN>
3

>  <nO>
1

>  <nF>
2

>  <BalabanJ>
1.44

>  <BertzCT>
726.21

>  <nBonds>
60

>  <nBondsO>
31

>  <nBondsS>
47

>  <nBondsD>
1

>  <nBondsT>
0

>  <nBondsA>
12

>  <nBondsM>
13

>  <nBondsKS>
53

>  <nBondsKD>
7

>  <RNCG>
0.16

>  <RPCG>
0.15

>  <FCSP3>
0.43

>  <SZ>
35.67

>  <Sm>
33.43

>  <Sv>
35.14

>  <Sse>
58.11

>  <Sp>
37.7

>  <Si>
66.2

>  <MZ>
0.61

>  <Mm>
0.58

>  <Mv>
0.61

>  <Mse>
1

>  <Mp>
0.65

>  <Mi>
1.14

>  <NsCH3>
1

>  <NdCH2>
0

>  <NssCH2>
8

>  <NtCH>
0

>  <NdsCH>
0

>  <NaaCH>
8

>  <NsssCH>
1

>  <NddC>
0

>  <NtsC>
0

>  <NdssC>
1

>  <NaasC>
4

>  <NaaaC>
0

>  <NssssC>
0

>  <NsNH3>
0

>  <NsNH2>
0

>  <NssNH2>
0

>  <NdNH>
0

>  <NssNH>
1

>  <NaaNH>
0

>  <NtN>
0

>  <NsssNH>
0

>  <NdsN>
0

>  <NaaN>
0

>  <NsssN>
2

>  <NddsN>
0

>  <NaasN>
0

>  <NssssN>
0

>  <NsOH>
0

>  <NdO>
1

>  <NssO>
0

>  <NaaO>
0

>  <NsF>
2

>  <NsSiH3>
0

>  <NssSiH2>
0

>  <NsssSiH>
0

>  <NssssSi>
0

>  <NsPH2>
0

>  <NssPH>
0

>  <NsssP>
0

>  <NdsssP>
0

>  <NsssssP>
0

>  <NsSH>
0

>  <NdS>
0

>  <NssS>
0

>  <NaaS>
0

>  <NdssS>
0

>  <NddssS>
0

>  <NsCl>
0

>  <NsBr>
0

>  <NsI>
0

>  <fragCpx>
149.06

>  <fMF>
0.38

>  <nHBAcc>
2

>  <nHBDon>
1

>  <Kier1>
23.66

>  <Kier2>
12.14

>  <Lipinski>
1

>  <GhoseFilter>
1

>  <FilterItLogS>
-6.02

>  <VMcGowan>
311.58

>  <LabuteASA>
171.06

>  <PEOE_VSA1>
10.22

>  <PEOE_VSA2>
4.9

>  <PEOE_VSA3>
13.58

>  <PEOE_VSA4>
0

>  <PEOE_VSA5>
0

>  <PEOE_VSA6>
24.27

>  <PEOE_VSA7>
61.7

>  <PEOE_VSA8>
38.64

>  <PEOE_VSA9>
0

>  <PEOE_VSA10>
11.63

>  <PEOE_VSA11>
0

>  <PEOE_VSA12>
0

>  <PEOE_VSA13>
0

>  <SMR_VSA1>
13.58

>  <SMR_VSA2>
0

>  <SMR_VSA3>
15.12

>  <SMR_VSA4>
0

>  <SMR_VSA5>
25.68

>  <SMR_VSA6>
39.27

>  <SMR_VSA7>
71.29

>  <SMR_VSA8>
0

>  <SMR_VSA9>
0

>  <SlogP_VSA1>
5.32

>  <SlogP_VSA2>
55.1

>  <SlogP_VSA3>
0

>  <SlogP_VSA4>
11.63

>  <SlogP_VSA5>
36.81

>  <SlogP_VSA6>
48.53

>  <SlogP_VSA7>
0

>  <SlogP_VSA8>
0

>  <SlogP_VSA9>
0

>  <SlogP_VSA10>
13.58

>  <SlogP_VSA11>
0

>  <EState_VSA1>
0

>  <EState_VSA2>
23.58

>  <EState_VSA3>
6.54

>  <EState_VSA4>
56.69

>  <EState_VSA5>
24.27

>  <EState_VSA6>
0

>  <EState_VSA7>
36.09

>  <EState_VSA8>
10.22

>  <EState_VSA9>
0

>  <EState_VSA10>
13.58

>  <VSA_EState1>
26.7

>  <VSA_EState2>
16.15

>  <VSA_EState3>
2.85

>  <VSA_EState4>
2.08

>  <VSA_EState5>
-0.4

>  <VSA_EState6>
13.18

>  <VSA_EState7>
1.87

>  <VSA_EState8>
6.74

>  <VSA_EState9>
0

>  <apol>
62.96

>  <bpol>
36.18

>  <nRing>
3

>  <nHRing>
1

>  <naRing>
2

>  <naHRing>
0

>  <nARing 2>
1

>  <nAHRing 2>
1

>  <nFRing>
0

>  <nFHRing>
0

>  <nFaRing>
0

>  <nFaHRing>
0

>  <nFARing 2>
0

>  <nFAHRing 2>
0

>  <nRot>
7

>  <SLogP>
4.22

>  <SMR>
110.96

>  <TopoPSA(NO)>
35.58

>  <TopoPSA>
35.58

>  <JGI1>
0.18

>  <JGI2>
0.09

>  <JGI3>
0.04

>  <JGI4>
0.03

>  <JGI5>
0.02

>  <Diameter>
16

>  <Radius>
8

>  <TMWC10>
135

>  <TSRW10>
63.99

>  <MW>
401.23

>  <AMW>
6.92

>  <WPath>
2596

>  <WPol>
42

>  <Zagreb1>
144

>  <Zagreb2>
164

>  <mZagreb2>
6.58

>  <yes>


>  <nAR-cont>
0.816016

>  <nHA-cont>
0.785905698

>  <MWHBN>
0.149769906

>  <MWHBN-cont>
0.931915699

>  <TPSA-cont>
0.751629506

>  <pka_cont>
0.97

>  <yes.1>


>  <BBB_SCORE>
4.98805426

>  <MMFF94 Energy>
17.955

$$$$
Compound 1228
Actelion Java MolfileCreator 2.0

  0  0  0  0  0  0              0 V3000
M  V30 BEGIN CTAB
M  V30 COUNTS 36 37 0 0 0
M  V30 BEGIN ATOM
M  V30 1 N -0.7077 0.3145 -1.1011 0
M  V30 2 C 0.2339 -0.2088 -0.0777 0
M  V30 3 C -2.0316 0.687 -0.6038 0
M  V30 4 C 0.5657 0.8989 0.9501 0
M  V30 5 C -0.2989 -1.5254 0.5658 0
M  V30 6 C 1.5643 -0.5766 -0.8135 0
M  V30 7 C -2.8291 1.319 -1.7365 0
M  V30 8 C 1.0154 2.1574 0.4966 0
M  V30 9 C 0.4349 0.7252 2.3386 0
M  V30 10 C -0.466 -2.6775 -0.427 0
M  V30 11 C 1.449 -1.7539 -1.7879 0
M  V30 12 C 1.331 3.1866 1.3867 0
M  V30 13 C 0.7517 1.7558 3.2309 0
M  V30 14 C 0.8484 -2.9896 -1.1309 0
M  V30 15 C 1.2014 2.9841 2.7559 0
M  V30 16 H -0.8152 -0.3587 -1.8553 0
M  V30 17 H -1.9678 1.41 0.2154 0
M  V30 18 H -2.5797 -0.1894 -0.2443 0
M  V30 19 H -1.2489 -1.359 1.0875 0
M  V30 20 H 0.4079 -1.868 1.3345 0
M  V30 21 H 1.9589 0.2842 -1.3691 0
M  V30 22 H 2.3314 -0.8254 -0.066 0
M  V30 23 H -2.3322 2.2181 -2.1167 0
M  V30 24 H -2.96 0.6197 -2.5693 0
M  V30 25 H -3.8234 1.6084 -1.3812 0
M  V30 26 H 1.1071 2.3456 -0.5718 0
M  V30 27 H 0.081 -0.2093 2.7628 0
M  V30 28 H -0.8089 -3.5702 0.1088 0
M  V30 29 H -1.241 -2.4406 -1.1645 0
M  V30 30 H 0.8441 -1.4677 -2.6559 0
M  V30 31 H 2.4445 -1.9986 -2.1766 0
M  V30 32 H 1.6722 4.1453 1.006 0
M  V30 33 H 0.6434 1.5964 4.3007 0
M  V30 34 H 0.6899 -3.7697 -1.8837 0
M  V30 35 H 1.5621 -3.3934 -0.402 0
M  V30 36 H 1.4446 3.7827 3.4509 0
M  V30 END ATOM
M  V30 BEGIN BOND
M  V30 1 1 1 2
M  V30 2 1 1 3
M  V30 3 1 2 4
M  V30 4 1 2 5
M  V30 5 1 2 6
M  V30 6 1 3 7
M  V30 7 2 4 8
M  V30 8 1 4 9
M  V30 9 1 5 10
M  V30 10 1 6 11
M  V30 11 1 8 12
M  V30 12 2 9 13
M  V30 13 1 10 14
M  V30 14 2 12 15
M  V30 15 1 11 14
M  V30 16 1 13 15
M  V30 17 1 1 16
M  V30 18 1 3 17
M  V30 19 1 3 18
M  V30 20 1 5 19
M  V30 21 1 5 20
M  V30 22 1 6 21
M  V30 23 1 6 22
M  V30 24 1 7 23
M  V30 25 1 7 24
M  V30 26 1 7 25
M  V30 27 1 8 26
M  V30 28 1 9 27
M  V30 29 1 10 28
M  V30 30 1 10 29
M  V30 31 1 11 30
M  V30 32 1 11 31
M  V30 33 1 12 32
M  V30 34 1 13 33
M  V30 35 1 14 34
M  V30 36 1 14 35
M  V30 37 1 15 36
M  V30 END BOND
M  V30 END CTAB
M  END
>  <Column 1>
1459

>  <level_0>
1609

>  <index>
1609

>  <Unnamed: 0>
1609

>  <NO.>
1621

>  <Name>
eticyclidine

>  <IUPAC_name>
n-ethyl-1-phenylcyclohexan-1-amine

>  <SMILES>
CCNC1(c2ccccc2)CCCCC1

>  <CID>
16622

>  <logBB>


>  <BBB+/BBB->
BBB+

>  <Inchi>
InChI=1S/C14H21N/c1-2-15-14(11-7-4-8-12-14)13-9-5-3-6-10-13/h3-5-6-9-10-15H-2-4-7-8-11-12H2-1H3

>  <threshold>
-1

>  <reference>
R1|R13|R19|R6|R24|R27|R27|R27|R30|R30|

>  <group>
B

>  <Class>
1

>  <ABC>
11.25

>  <ABCGG>
9.97

>  <nAcid>
0

>  <nBase>
1

>  <nAromAtom>
6

>  <nAromBond>
6

>  <nAtom>
36

>  <nHeavyAtom>
15

>  <nSpiro>
0

>  <nBridgehead>
0

>  <nHetero>
1

>  <nN>
1

>  <nO>
0

>  <nF>
0

>  <BalabanJ>
2.01

>  <BertzCT>
279.96

>  <nBonds>
37

>  <nBondsO>
16

>  <nBondsS>
31

>  <nBondsD>
0

>  <nBondsT>
0

>  <nBondsA>
6

>  <nBondsM>
6

>  <nBondsKS>
34

>  <nBondsKD>
3

>  <RNCG>
0.34

>  <RPCG>
0.13

>  <FCSP3>
0.57

>  <SZ>
18.67

>  <Sm>
16.93

>  <Sv>
20.45

>  <Sse>
34.99

>  <Sp>
23.04

>  <Si>
40.65

>  <MZ>
0.52

>  <Mm>
0.47

>  <Mv>
0.57

>  <Mse>
0.97

>  <Mp>
0.64

>  <Mi>
1.13

>  <NsCH3>
1

>  <NdCH2>
0

>  <NssCH2>
6

>  <NtCH>
0

>  <NdsCH>
0

>  <NaaCH>
5

>  <NsssCH>
0

>  <NddC>
0

>  <NtsC>
0

>  <NdssC>
0

>  <NaasC>
1

>  <NaaaC>
0

>  <NssssC>
1

>  <NsNH3>
0

>  <NsNH2>
0

>  <NssNH2>
0

>  <NdNH>
0

>  <NssNH>
1

>  <NaaNH>
0

>  <NtN>
0

>  <NsssNH>
0

>  <NdsN>
0

>  <NaaN>
0

>  <NsssN>
0

>  <NddsN>
0

>  <NaasN>
0

>  <NssssN>
0

>  <NsOH>
0

>  <NdO>
0

>  <NssO>
0

>  <NaaO>
0

>  <NsF>
0

>  <NsSiH3>
0

>  <NssSiH2>
0

>  <NsssSiH>
0

>  <NssssSi>
0

>  <NsPH2>
0

>  <NssPH>
0

>  <NsssP>
0

>  <NdsssP>
0

>  <NsssssP>
0

>  <NsSH>
0

>  <NdS>
0

>  <NssS>
0

>  <NaaS>
0

>  <NdssS>
0

>  <NddssS>
0

>  <NsCl>
0

>  <NsBr>
0

>  <NsI>
0

>  <fragCpx>
46.01

>  <fMF>
0.33

>  <nHBAcc>
1

>  <nHBDon>
1

>  <Kier1>
11.48

>  <Kier2>
5.37

>  <Lipinski>
1

>  <GhoseFilter>
1

>  <FilterItLogS>
-4.14

>  <VMcGowan>
183.48

>  <LabuteASA>
92.89

>  <PEOE_VSA1>
5.32

>  <PEOE_VSA2>
0

>  <PEOE_VSA3>
0

>  <PEOE_VSA4>
0

>  <PEOE_VSA5>
0

>  <PEOE_VSA6>
56.52

>  <PEOE_VSA7>
24.95

>  <PEOE_VSA8>
5.54

>  <PEOE_VSA9>
0

>  <PEOE_VSA10>
0

>  <PEOE_VSA11>
0

>  <PEOE_VSA12>
0

>  <PEOE_VSA13>
0

>  <SMR_VSA1>
0

>  <SMR_VSA2>
0

>  <SMR_VSA3>
5.32

>  <SMR_VSA4>
0

>  <SMR_VSA5>
44.57

>  <SMR_VSA6>
6.54

>  <SMR_VSA7>
35.9

>  <SMR_VSA8>
0

>  <SMR_VSA9>
0

>  <SlogP_VSA1>
5.32

>  <SlogP_VSA2>
6.54

>  <SlogP_VSA3>
5.54

>  <SlogP_VSA4>
0

>  <SlogP_VSA5>
44.59

>  <SlogP_VSA6>
30.33

>  <SlogP_VSA7>
0

>  <SlogP_VSA8>
0

>  <SlogP_VSA9>
0

>  <SlogP_VSA10>
0

>  <SlogP_VSA11>
0

>  <EState_VSA1>
0

>  <EState_VSA2>
5.54

>  <EState_VSA3>
0

>  <EState_VSA4>
6.54

>  <EState_VSA5>
37.67

>  <EState_VSA6>
0

>  <EState_VSA7>
0

>  <EState_VSA8>
42.57

>  <EState_VSA9>
0

>  <EState_VSA10>
0

>  <VSA_EState1>
0

>  <VSA_EState2>
0

>  <VSA_EState3>
3.71

>  <VSA_EState4>
1.75

>  <VSA_EState5>
0

>  <VSA_EState6>
10.96

>  <VSA_EState7>
6.72

>  <VSA_EState8>
3.27

>  <VSA_EState9>
0

>  <apol>
38.48

>  <bpol>
21.64

>  <nRing>
2

>  <nHRing>
0

>  <naRing>
1

>  <naHRing>
0

>  <nARing 2>
1

>  <nAHRing 2>
0

>  <nFRing>
0

>  <nFHRing>
0

>  <nFaRing>
0

>  <nFaHRing>
0

>  <nFARing 2>
0

>  <nFAHRing 2>
0

>  <nRot>
3

>  <SLogP>
3.46

>  <SMR>
64.88

>  <TopoPSA(NO)>
12.03

>  <TopoPSA>
12.03

>  <JGI1>
0.16

>  <JGI2>
0.08

>  <JGI3>
0.04

>  <JGI4>
0.01

>  <JGI5>
0.02

>  <Diameter>
7

>  <Radius>
4

>  <TMWC10>
101.02

>  <TSRW10>
47.09

>  <MW>
203.17

>  <AMW>
5.64

>  <WPath>
346

>  <WPol>
22

>  <Zagreb1>
74

>  <Zagreb2>
86

>  <mZagreb2>
3.54

>  <yes>


>  <nAR-cont>
0.816016

>  <nHA-cont>
0.92539861

>  <MWHBN>
0.140313742

>  <MWHBN-cont>
0.904803135

>  <TPSA-cont>
0.91602313

>  <pka_cont>
0.97

>  <yes.1>


>  <BBB_SCORE>
5.415665573

>  <MMFF94 Energy>
25.061

$$$$
Compound 1229
Actelion Java MolfileCreator 2.0

  0  0  0  0  0  0              0 V3000
M  V30 BEGIN CTAB
M  V30 COUNTS 32 33 0 0 0
M  V30 BEGIN ATOM
M  V30 1 S 1.8564 -0.6454 -1.7756 0
M  V30 2 C 0.6894 -0.7706 -0.5097 0
M  V30 3 C 2.2381 -2.3057 -1.6996 0
M  V30 4 C 0.6574 -2.0692 -0.0192 0
M  V30 5 C -0.0839 0.4586 -0.017 0 CFG=2
M  V30 6 C 1.5334 -2.9522 -0.7129 0
M  V30 7 N 0.7793 1.3325 0.8266 0
M  V30 8 C -1.3718 -0.0049 0.7411 0
M  V30 9 C -0.5752 1.3807 -1.1711 0
M  V30 10 C 1.4404 0.689 1.9626 0
M  V30 11 O -1.5015 -0.014 1.9682 0
M  V30 12 C -2.4922 -0.5787 -0.1144 0
M  V30 13 C -1.6399 0.745 -2.0664 0
M  V30 14 C 2.1835 1.7489 2.7659 0
M  V30 15 C -2.8626 0.3601 -1.2468 0
M  V30 16 H 2.9731 -2.7267 -2.3717 0
M  V30 17 H 0.0356 -2.3801 0.8136 0
M  V30 18 H 1.6489 -4.0058 -0.4893 0
M  V30 19 H 1.4993 1.7382 0.2297 0
M  V30 20 H 0.2571 1.7213 -1.7993 0
M  V30 21 H -1.0121 2.2947 -0.7411 0
M  V30 22 H 2.1692 -0.0551 1.6258 0
M  V30 23 H 0.7353 0.191 2.6312 0
M  V30 24 H -3.3691 -0.7459 0.5211 0
M  V30 25 H -2.179 -1.5533 -0.5012 0
M  V30 26 H -1.9351 1.4604 -2.8427 0
M  V30 27 H -1.2395 -0.1346 -2.5819 0
M  V30 28 H 2.9444 2.2491 2.1571 0
M  V30 29 H 1.4952 2.5094 3.1502 0
M  V30 30 H 2.6879 1.288 3.6212 0
M  V30 31 H -3.324 1.267 -0.836 0
M  V30 32 H -3.6092 -0.1142 -1.8932 0
M  V30 END ATOM
M  V30 BEGIN BOND
M  V30 1 1 1 2
M  V30 2 1 1 3
M  V30 3 2 2 4
M  V30 4 1 2 5
M  V30 5 2 3 6
M  V30 6 1 5 7
M  V30 7 1 5 8
M  V30 8 1 5 9
M  V30 9 1 7 10
M  V30 10 2 8 11
M  V30 11 1 8 12
M  V30 12 1 9 13
M  V30 13 1 10 14
M  V30 14 1 12 15
M  V30 15 1 4 6
M  V30 16 1 13 15
M  V30 17 1 3 16
M  V30 18 1 4 17
M  V30 19 1 6 18
M  V30 20 1 7 19
M  V30 21 1 9 20
M  V30 22 1 9 21
M  V30 23 1 10 22
M  V30 24 1 10 23
M  V30 25 1 12 24
M  V30 26 1 12 25
M  V30 27 1 13 26
M  V30 28 1 13 27
M  V30 29 1 14 28
M  V30 30 1 14 29
M  V30 31 1 14 30
M  V30 32 1 15 31
M  V30 33 1 15 32
M  V30 END BOND
M  V30 BEGIN COLLECTION
M  V30 MDLV30/STERAC1 ATOMS=(1 5)
M  V30 END COLLECTION
M  V30 END CTAB
M  END
>  <Column 1>
1460

>  <level_0>
1610

>  <index>
1610

>  <Unnamed: 0>
1610

>  <NO.>
1622

>  <Name>
tiletamine

>  <IUPAC_name>
2-(ethylamino)-2-thiophen-2-ylcyclohexan-1-one

>  <SMILES>
CCNC1(c2cccs2)CCCCC1=O

>  <CID>
26533

>  <logBB>


>  <BBB+/BBB->
BBB+

>  <Inchi>
InChI=1S/C12H17NOS/c1-2-13-12(11-7-5-9-15-11)8-4-3-6-10(12)14/h5-7-9-13H-2-4-6-8H2-1H3

>  <threshold>
-1

>  <reference>
R1|R13|R19|R6|R27|R27|R30|

>  <group>
B

>  <Class>
1

>  <ABC>
11.3

>  <ABCGG>
10.77

>  <nAcid>
0

>  <nBase>
1

>  <nAromAtom>
5

>  <nAromBond>
5

>  <nAtom>
32

>  <nHeavyAtom>
15

>  <nSpiro>
0

>  <nBridgehead>
0

>  <nHetero>
3

>  <nN>
1

>  <nO>
1

>  <nF>
0

>  <BalabanJ>
2.12

>  <BertzCT>
329.4

>  <nBonds>
33

>  <nBondsO>
16

>  <nBondsS>
27

>  <nBondsD>
1

>  <nBondsT>
0

>  <nBondsA>
5

>  <nBondsM>
6

>  <nBondsKS>
30

>  <nBondsKD>
3

>  <RNCG>
0.29

>  <RPCG>
0.15

>  <FCSP3>
0.58

>  <SZ>
20

>  <Sm>
18.59

>  <Sv>
19.27

>  <Sse>
31.62

>  <Sp>
21.66

>  <Si>
35.95

>  <MZ>
0.63

>  <Mm>
0.58

>  <Mv>
0.6

>  <Mse>
0.99

>  <Mp>
0.68

>  <Mi>
1.12

>  <NsCH3>
1

>  <NdCH2>
0

>  <NssCH2>
5

>  <NtCH>
0

>  <NdsCH>
0

>  <NaaCH>
3

>  <NsssCH>
0

>  <NddC>
0

>  <NtsC>
0

>  <NdssC>
1

>  <NaasC>
1

>  <NaaaC>
0

>  <NssssC>
1

>  <NsNH3>
0

>  <NsNH2>
0

>  <NssNH2>
0

>  <NdNH>
0

>  <NssNH>
1

>  <NaaNH>
0

>  <NtN>
0

>  <NsssNH>
0

>  <NdsN>
0

>  <NaaN>
0

>  <NsssN>
0

>  <NddsN>
0

>  <NaasN>
0

>  <NssssN>
0

>  <NsOH>
0

>  <NdO>
1

>  <NssO>
0

>  <NaaO>
0

>  <NsF>
0

>  <NsSiH3>
0

>  <NssSiH2>
0

>  <NsssSiH>
0

>  <NssssSi>
0

>  <NsPH2>
0

>  <NssPH>
0

>  <NsssP>
0

>  <NdsssP>
0

>  <NsssssP>
0

>  <NsSH>
0

>  <NdS>
0

>  <NssS>
0

>  <NaaS>
1

>  <NdssS>
0

>  <NddssS>
0

>  <NsCl>
0

>  <NsBr>
0

>  <NsI>
0

>  <fragCpx>
46.03

>  <fMF>
0.34

>  <nHBAcc>
3

>  <nHBDon>
1

>  <Kier1>
11.48

>  <Kier2>
4.89

>  <Lipinski>
1

>  <GhoseFilter>
1

>  <FilterItLogS>
-3.61

>  <VMcGowan>
177.52

>  <LabuteASA>
94.7

>  <PEOE_VSA1>
5.32

>  <PEOE_VSA2>
4.79

>  <PEOE_VSA3>
0

>  <PEOE_VSA4>
0

>  <PEOE_VSA5>
11.34

>  <PEOE_VSA6>
19.41

>  <PEOE_VSA7>
30.83

>  <PEOE_VSA8>
11.3

>  <PEOE_VSA9>
0

>  <PEOE_VSA10>
5.54

>  <PEOE_VSA11>
5.78

>  <PEOE_VSA12>
0

>  <PEOE_VSA13>
0

>  <SMR_VSA1>
4.79

>  <SMR_VSA2>
0

>  <SMR_VSA3>
5.32

>  <SMR_VSA4>
0

>  <SMR_VSA5>
38.15

>  <SMR_VSA6>
6.54

>  <SMR_VSA7>
22.39

>  <SMR_VSA8>
0

>  <SMR_VSA9>
0

>  <SlogP_VSA1>
5.32

>  <SlogP_VSA2>
12.33

>  <SlogP_VSA3>
10.33

>  <SlogP_VSA4>
0

>  <SlogP_VSA5>
37.48

>  <SlogP_VSA6>
17.51

>  <SlogP_VSA7>
0

>  <SlogP_VSA8>
0

>  <SlogP_VSA9>
0

>  <SlogP_VSA10>
0

>  <SlogP_VSA11>
0

>  <EState_VSA1>
0

>  <EState_VSA2>
5.54

>  <EState_VSA3>
5.78

>  <EState_VSA4>
32.23

>  <EState_VSA5>
4.88

>  <EState_VSA6>
11.34

>  <EState_VSA7>
6.07

>  <EState_VSA8>
23.69

>  <EState_VSA9>
0

>  <EState_VSA10>
4.79

>  <VSA_EState1>
0

>  <VSA_EState2>
13.34

>  <VSA_EState3>
5.46

>  <VSA_EState4>
-0.36

>  <VSA_EState5>
0.37

>  <VSA_EState6>
4.11

>  <VSA_EState7>
3.89

>  <VSA_EState8>
2.92

>  <VSA_EState9>
0

>  <apol>
36.18

>  <bpol>
20.95

>  <nRing>
2

>  <nHRing>
1

>  <naRing>
1

>  <naHRing>
1

>  <nARing 2>
1

>  <nAHRing 2>
0

>  <nFRing>
0

>  <nFHRing>
0

>  <nFaRing>
0

>  <nFaHRing>
0

>  <nFARing 2>
0

>  <nFAHRing 2>
0

>  <nRot>
3

>  <SLogP>
2.7

>  <SMR>
63.15

>  <TopoPSA(NO)>
29.1

>  <TopoPSA>
57.34

>  <JGI1>
0.19

>  <JGI2>
0.11

>  <JGI3>
0.05

>  <JGI4>
0.03

>  <JGI5>
0.02

>  <Diameter>
6

>  <Radius>
3

>  <TMWC10>
102.16

>  <TSRW10>
60.55

>  <MW>
223.1

>  <AMW>
6.97

>  <WPath>
331

>  <WPol>
23

>  <Zagreb1>
76

>  <Zagreb2>
91

>  <mZagreb2>
3.5

>  <yes>


>  <nAR-cont>
0.816016

>  <nHA-cont>
0.92539861

>  <MWHBN>
0.267799774

>  <MWHBN-cont>
0.925040671

>  <TPSA-cont>
0.599731194

>  <pka_cont>
0.97

>  <yes.1>


>  <BBB_SCORE>
4.813438005

>  <MMFF94 Energy>
52.823

$$$$
Compound 1230
Actelion Java MolfileCreator 2.0

  0  0  0  0  0  0              0 V3000
M  V30 BEGIN CTAB
M  V30 COUNTS 38 40 0 0 0
M  V30 BEGIN ATOM
M  V30 1 Cl 2.8921 -0.2407 -4.6626 0
M  V30 2 C 1.4423 -0.2281 -3.7372 0
M  V30 3 C 1.4633 0.2341 -2.4226 0
M  V30 4 C 0.254 -0.6736 -4.3058 0
M  V30 5 C 0.282 0.2454 -1.6567 0
M  V30 6 C -0.9184 -0.6543 -3.5491 0
M  V30 7 C -0.9096 -0.1965 -2.2277 0
M  V30 8 C 0.2339 0.7666 -0.2336 0 CFG=1
M  V30 9 N -2.1059 -0.1951 -1.5163 0
M  V30 10 O -0.9946 0.4195 0.4522 0
M  V30 11 C 1.3465 0.1597 0.6362 0
M  V30 12 C 0.2368 2.3078 -0.2825 0
M  V30 13 C -2.0903 0.0821 -0.2555 0
M  V30 14 C 2.4243 0.907 1.1409 0
M  V30 15 C 1.3078 -1.2182 0.9354 0
M  V30 16 N -3.223 0.0358 0.4909 0
M  V30 17 C 3.4198 0.3014 1.914 0
M  V30 18 C 2.3024 -1.8213 1.7073 0
M  V30 19 C -3.3285 0.2444 1.9128 0
M  V30 20 C 3.3588 -1.0603 2.1964 0
M  V30 21 C -2.9363 -1.0129 2.6685 0
M  V30 22 H 2.3992 0.5827 -1.9923 0
M  V30 23 H 0.2293 -1.0337 -5.3301 0
M  V30 24 H -1.8522 -0.9985 -3.9867 0
M  V30 25 H -0.6317 2.6842 -0.8375 0
M  V30 26 H 1.1339 2.7123 -0.7643 0
M  V30 27 H 0.1605 2.7351 0.7247 0
M  V30 28 H 2.5158 1.9717 0.9447 0
M  V30 29 H 0.4891 -1.8324 0.5623 0
M  V30 30 H -4.0565 -0.2395 -0.012 0
M  V30 31 H 4.2456 0.8964 2.2961 0
M  V30 32 H 2.2496 -2.8848 1.9243 0
M  V30 33 H -2.7147 1.0937 2.2329 0
M  V30 34 H -4.3667 0.497 2.1547 0
M  V30 35 H 4.1343 -1.5278 2.7972 0
M  V30 36 H -3.0564 -0.862 3.7458 0
M  V30 37 H -3.5617 -1.8609 2.37 0
M  V30 38 H -1.8931 -1.2844 2.4779 0
M  V30 END ATOM
M  V30 BEGIN BOND
M  V30 1 1 1 2
M  V30 2 2 2 3
M  V30 3 1 2 4
M  V30 4 1 3 5
M  V30 5 2 4 6
M  V30 6 2 5 7
M  V30 7 1 5 8
M  V30 8 1 7 9
M  V30 9 1 8 10
M  V30 10 1 8 11
M  V30 11 1 8 12
M  V30 12 2 9 13
M  V30 13 2 11 14
M  V30 14 1 11 15
M  V30 15 1 13 16
M  V30 16 1 14 17
M  V30 17 2 15 18
M  V30 18 1 16 19
M  V30 19 2 17 20
M  V30 20 1 19 21
M  V30 21 1 6 7
M  V30 22 1 10 13
M  V30 23 1 18 20
M  V30 24 1 3 22
M  V30 25 1 4 23
M  V30 26 1 6 24
M  V30 27 1 12 25
M  V30 28 1 12 26
M  V30 29 1 12 27
M  V30 30 1 14 28
M  V30 31 1 15 29
M  V30 32 1 16 30
M  V30 33 1 17 31
M  V30 34 1 18 32
M  V30 35 1 19 33
M  V30 36 1 19 34
M  V30 37 1 20 35
M  V30 38 1 21 36
M  V30 39 1 21 37
M  V30 40 1 21 38
M  V30 END BOND
M  V30 BEGIN COLLECTION
M  V30 MDLV30/STERAC1 ATOMS=(1 8)
M  V30 END COLLECTION
M  V30 END CTAB
M  END
>  <Column 1>
1461

>  <level_0>
1611

>  <index>
1611

>  <Unnamed: 0>
1611

>  <NO.>
1623

>  <Name>
etifoxine

>  <IUPAC_name>
6-chloro-n-ethyl-4-methyl-4-phenyl-1h-3-1-benzoxazin-2-imine

>  <SMILES>
CCNC1=Nc2ccc(Cl)cc2C(C)(c2ccccc2)O1

>  <CID>
135413553

>  <logBB>


>  <BBB+/BBB->
BBB+

>  <Inchi>
InChI=1S/C17H17ClN2O/c1-3-19-16-20-15-10-9-13(18)11-14(15)17(2-21-16)12-7-5-4-6-8-12/h4-11H-3H2-1-2H3-(H-19-20)

>  <threshold>
-1

>  <reference>
R1|R13|R19|R6|R27|R27|R30|

>  <group>
B

>  <Class>
-1

>  <ABC>
16.37

>  <ABCGG>
13.41

>  <nAcid>
0

>  <nBase>
2

>  <nAromAtom>
12

>  <nAromBond>
12

>  <nAtom>
38

>  <nHeavyAtom>
21

>  <nSpiro>
0

>  <nBridgehead>
0

>  <nHetero>
4

>  <nN>
2

>  <nO>
1

>  <nF>
0

>  <BalabanJ>
1.81

>  <BertzCT>
684.44

>  <nBonds>
40

>  <nBondsO>
23

>  <nBondsS>
27

>  <nBondsD>
1

>  <nBondsT>
0

>  <nBondsA>
12

>  <nBondsM>
13

>  <nBondsKS>
33

>  <nBondsKD>
7

>  <RNCG>
0.29

>  <RPCG>
0.19

>  <FCSP3>
0.24

>  <SZ>
26.33

>  <Sm>
25.04

>  <Sv>
24.93

>  <Sse>
37.97

>  <Sp>
26.89

>  <Si>
42.47

>  <MZ>
0.69

>  <Mm>
0.66

>  <Mv>
0.66

>  <Mse>
1

>  <Mp>
0.71

>  <Mi>
1.12

>  <NsCH3>
2

>  <NdCH2>
0

>  <NssCH2>
1

>  <NtCH>
0

>  <NdsCH>
0

>  <NaaCH>
8

>  <NsssCH>
0

>  <NddC>
0

>  <NtsC>
0

>  <NdssC>
1

>  <NaasC>
4

>  <NaaaC>
0

>  <NssssC>
1

>  <NsNH3>
0

>  <NsNH2>
0

>  <NssNH2>
0

>  <NdNH>
0

>  <NssNH>
1

>  <NaaNH>
0

>  <NtN>
0

>  <NsssNH>
0

>  <NdsN>
1

>  <NaaN>
0

>  <NsssN>
0

>  <NddsN>
0

>  <NaasN>
0

>  <NssssN>
0

>  <NsOH>
0

>  <NdO>
0

>  <NssO>
1

>  <NaaO>
0

>  <NsF>
0

>  <NsSiH3>
0

>  <NssSiH2>
0

>  <NsssSiH>
0

>  <NssssSi>
0

>  <NsPH2>
0

>  <NssPH>
0

>  <NsssP>
0

>  <NdsssP>
0

>  <NsssssP>
0

>  <NsSH>
0

>  <NdS>
0

>  <NssS>
0

>  <NaaS>
0

>  <NdssS>
0

>  <NddssS>
0

>  <NsCl>
1

>  <NsBr>
0

>  <NsI>
0

>  <fragCpx>
109.04

>  <fMF>
0.42

>  <nHBAcc>
3

>  <nHBDon>
1

>  <Kier1>
15.88

>  <Kier2>
6.63

>  <Lipinski>
1

>  <GhoseFilter>
1

>  <FilterItLogS>
-5.85

>  <VMcGowan>
225.78

>  <LabuteASA>
129.17

>  <PEOE_VSA1>
10.05

>  <PEOE_VSA2>
0

>  <PEOE_VSA3>
0

>  <PEOE_VSA4>
4.99

>  <PEOE_VSA5>
0

>  <PEOE_VSA6>
41.93

>  <PEOE_VSA7>
37.61

>  <PEOE_VSA8>
17.13

>  <PEOE_VSA9>
5.69

>  <PEOE_VSA10>
0

>  <PEOE_VSA11>
5.6

>  <PEOE_VSA12>
0

>  <PEOE_VSA13>
6.02

>  <SMR_VSA1>
4.74

>  <SMR_VSA2>
0

>  <SMR_VSA3>
5.32

>  <SMR_VSA4>
4.99

>  <SMR_VSA5>
19.45

>  <SMR_VSA6>
6.54

>  <SMR_VSA7>
64.68

>  <SMR_VSA8>
0

>  <SMR_VSA9>
0

>  <SlogP_VSA1>
5.32

>  <SlogP_VSA2>
12.57

>  <SlogP_VSA3>
10.34

>  <SlogP_VSA4>
0

>  <SlogP_VSA5>
24.97

>  <SlogP_VSA6>
53.52

>  <SlogP_VSA7>
5.02

>  <SlogP_VSA8>
0

>  <SlogP_VSA9>
0

>  <SlogP_VSA10>
5.69

>  <SlogP_VSA11>
0

>  <EState_VSA1>
5.6

>  <EState_VSA2>
0

>  <EState_VSA3>
11.04

>  <EState_VSA4>
23.36

>  <EState_VSA5>
0

>  <EState_VSA6>
0

>  <EState_VSA7>
50.25

>  <EState_VSA8>
22.44

>  <EState_VSA9>
16.34

>  <EState_VSA10>
0

>  <VSA_EState1>
6.16

>  <VSA_EState2>
4.52

>  <VSA_EState3>
3.84

>  <VSA_EState4>
2.32

>  <VSA_EState5>
0

>  <VSA_EState6>
16.37

>  <VSA_EState7>
0

>  <VSA_EState8>
4.82

>  <VSA_EState9>
0

>  <apol>
44.91

>  <bpol>
21.01

>  <nRing>
3

>  <nHRing>
1

>  <naRing>
2

>  <naHRing>
0

>  <nARing 2>
1

>  <nAHRing 2>
1

>  <nFRing>
1

>  <nFHRing>
1

>  <nFaRing>
0

>  <nFaHRing>
0

>  <nFARing 2>
1

>  <nFAHRing 2>
1

>  <nRot>
2

>  <SLogP>
4.23

>  <SMR>
86.2

>  <TopoPSA(NO)>
33.62

>  <TopoPSA>
33.62

>  <JGI1>
0.22

>  <JGI2>
0.09

>  <JGI3>
0.05

>  <JGI4>
0.05

>  <JGI5>
0.02

>  <Diameter>
9

>  <Radius>
5

>  <TMWC10>
119.08

>  <TSRW10>
55.4

>  <MW>
300.1

>  <AMW>
7.9

>  <WPath>
838

>  <WPol>
36

>  <Zagreb1>
112

>  <Zagreb2>
134

>  <mZagreb2>
4.65

>  <yes>


>  <nAR-cont>
0.816016

>  <nHA-cont>
0.994529749

>  <MWHBN>
0.230901627

>  <MWHBN-cont>
0.985851625

>  <TPSA-cont>
0.765311523

>  <pka_cont>
0.97

>  <yes.1>


>  <BBB_SCORE>
5.304946233

>  <MMFF94 Energy>
-42.234

$$$$
Compound 1231
Actelion Java MolfileCreator 2.0

  0  0  0  0  0  0              0 V3000
M  V30 BEGIN CTAB
M  V30 COUNTS 28 28 0 0 0
M  V30 BEGIN ATOM
M  V30 1 O -4.1984 -0.6987 0.1552 0
M  V30 2 C -2.9245 -1.1853 0.1829 0
M  V30 3 C -1.9554 -0.4226 0.8275 0
M  V30 4 C -2.6017 -2.4015 -0.4089 0
M  V30 5 C -0.6286 -0.8718 0.8882 0
M  V30 6 C -1.2864 -2.86 -0.3531 0
M  V30 7 C -0.3064 -2.1018 0.2918 0
M  V30 8 C 0.4233 -0.0476 1.6019 0 CFG=1
M  V30 9 O 0.9993 -0.8339 2.6529 0
M  V30 10 C 1.5585 0.4772 0.6872 0
M  V30 11 N 1.1037 1.4626 -0.3055 0
M  V30 12 C 2.2149 1.9287 -1.1313 0
M  V30 13 C 1.713 2.9517 -2.1387 0
M  V30 14 H -4.7498 -1.3099 -0.3598 0
M  V30 15 H -2.2419 0.5256 1.275 0
M  V30 16 H -3.3526 -3.0003 -0.9136 0
M  V30 17 H -1.0205 -3.8079 -0.8134 0
M  V30 18 H 0.7153 -2.4746 0.3279 0
M  V30 19 H -0.0517 0.8086 2.0961 0
M  V30 20 H 0.3016 -1.4346 2.9683 0
M  V30 21 H 2.328 0.9297 1.3265 0
M  V30 22 H 2.0416 -0.3685 0.1821 0
M  V30 23 H 0.6719 2.2537 0.1707 0
M  V30 24 H 2.664 1.0884 -1.6725 0
M  V30 25 H 2.9912 2.389 -0.5094 0
M  V30 26 H 0.9483 2.5204 -2.7936 0
M  V30 27 H 1.2827 3.8253 -1.6373 0
M  V30 28 H 2.5393 3.2978 -2.7678 0
M  V30 END ATOM
M  V30 BEGIN BOND
M  V30 1 1 1 2
M  V30 2 2 2 3
M  V30 3 1 2 4
M  V30 4 1 3 5
M  V30 5 2 4 6
M  V30 6 2 5 7
M  V30 7 1 5 8
M  V30 8 1 8 9
M  V30 9 1 8 10
M  V30 10 1 10 11
M  V30 11 1 11 12
M  V30 12 1 12 13
M  V30 13 1 6 7
M  V30 14 1 1 14
M  V30 15 1 3 15
M  V30 16 1 4 16
M  V30 17 1 6 17
M  V30 18 1 7 18
M  V30 19 1 8 19
M  V30 20 1 9 20
M  V30 21 1 10 21
M  V30 22 1 10 22
M  V30 23 1 11 23
M  V30 24 1 12 24
M  V30 25 1 12 25
M  V30 26 1 13 26
M  V30 27 1 13 27
M  V30 28 1 13 28
M  V30 END BOND
M  V30 BEGIN COLLECTION
M  V30 MDLV30/STERAC1 ATOMS=(1 8)
M  V30 END COLLECTION
M  V30 END CTAB
M  END
>  <Column 1>
1462

>  <level_0>
1612

>  <index>
1612

>  <Unnamed: 0>
1612

>  <NO.>
1624

>  <Name>
etilefrine

>  <IUPAC_name>
3-[2-(ethylamino)-1-hydroxyethyl]phenol

>  <SMILES>
CCNCC(O)c1cccc(O)c1

>  <CID>
3306

>  <logBB>


>  <BBB+/BBB->
BBB-

>  <Inchi>
InChI=1S/C10H15NO2/c1-2-11-7-10(13)8-4-3-5-9(12)6-8/h3-6-10-13H-2-7H2-1H3

>  <threshold>
-1

>  <reference>
R1|R19|R6|R14|R27|R27|R30|

>  <group>
B

>  <Class>
1

>  <ABC>
9.37

>  <ABCGG>
8.67

>  <nAcid>
0

>  <nBase>
1

>  <nAromAtom>
6

>  <nAromBond>
6

>  <nAtom>
28

>  <nHeavyAtom>
13

>  <nSpiro>
0

>  <nBridgehead>
0

>  <nHetero>
3

>  <nN>
1

>  <nO>
2

>  <nF>
0

>  <BalabanJ>
2.24

>  <BertzCT>
262.86

>  <nBonds>
28

>  <nBondsO>
13

>  <nBondsS>
22

>  <nBondsD>
0

>  <nBondsT>
0

>  <nBondsA>
6

>  <nBondsM>
6

>  <nBondsKS>
25

>  <nBondsKD>
3

>  <RNCG>
0.35

>  <RPCG>
0.2

>  <FCSP3>
0.4

>  <SZ>
16.33

>  <Sm>
15.09

>  <Sv>
16.25

>  <Sse>
27.98

>  <Sp>
17.61

>  <Si>
31.82

>  <MZ>
0.58

>  <Mm>
0.54

>  <Mv>
0.58

>  <Mse>
1

>  <Mp>
0.63

>  <Mi>
1.14

>  <NsCH3>
1

>  <NdCH2>
0

>  <NssCH2>
2

>  <NtCH>
0

>  <NdsCH>
0

>  <NaaCH>
4

>  <NsssCH>
1

>  <NddC>
0

>  <NtsC>
0

>  <NdssC>
0

>  <NaasC>
2

>  <NaaaC>
0

>  <NssssC>
0

>  <NsNH3>
0

>  <NsNH2>
0

>  <NssNH2>
0

>  <NdNH>
0

>  <NssNH>
1

>  <NaaNH>
0

>  <NtN>
0

>  <NsssNH>
0

>  <NdsN>
0

>  <NaaN>
0

>  <NsssN>
0

>  <NddsN>
0

>  <NaasN>
0

>  <NssssN>
0

>  <NsOH>
2

>  <NdO>
0

>  <NssO>
0

>  <NaaO>
0

>  <NsF>
0

>  <NsSiH3>
0

>  <NssSiH2>
0

>  <NsssSiH>
0

>  <NssssSi>
0

>  <NsPH2>
0

>  <NssPH>
0

>  <NsssP>
0

>  <NdsssP>
0

>  <NsssssP>
0

>  <NsSH>
0

>  <NdS>
0

>  <NssS>
0

>  <NaaS>
0

>  <NdssS>
0

>  <NddssS>
0

>  <NsCl>
0

>  <NsBr>
0

>  <NsI>
0

>  <fragCpx>
13.03

>  <fMF>
0.21

>  <nHBAcc>
3

>  <nHBDon>
3

>  <Kier1>
11.08

>  <Kier2>
5.67

>  <Lipinski>
1

>  <GhoseFilter>
1

>  <FilterItLogS>
-1.94

>  <VMcGowan>
149.72

>  <LabuteASA>
78.03

>  <PEOE_VSA1>
15.53

>  <PEOE_VSA2>
0

>  <PEOE_VSA3>
0

>  <PEOE_VSA4>
0

>  <PEOE_VSA5>
0

>  <PEOE_VSA6>
19.06

>  <PEOE_VSA7>
24.24

>  <PEOE_VSA8>
6.54

>  <PEOE_VSA9>
6.1

>  <PEOE_VSA10>
5.75

>  <PEOE_VSA11>
0

>  <PEOE_VSA12>
0

>  <PEOE_VSA13>
0

>  <SMR_VSA1>
10.21

>  <SMR_VSA2>
0

>  <SMR_VSA3>
5.32

>  <SMR_VSA4>
0

>  <SMR_VSA5>
13.03

>  <SMR_VSA6>
13.09

>  <SMR_VSA7>
29.83

>  <SMR_VSA8>
0

>  <SMR_VSA9>
5.75

>  <SlogP_VSA1>
5.32

>  <SlogP_VSA2>
23.3

>  <SlogP_VSA3>
0

>  <SlogP_VSA4>
0

>  <SlogP_VSA5>
18.59

>  <SlogP_VSA6>
24.27

>  <SlogP_VSA7>
0

>  <SlogP_VSA8>
0

>  <SlogP_VSA9>
0

>  <SlogP_VSA10>
0

>  <SlogP_VSA11>
5.75

>  <EState_VSA1>
6.1

>  <EState_VSA2>
5.75

>  <EState_VSA3>
6.54

>  <EState_VSA4>
12.11

>  <EState_VSA5>
0

>  <EState_VSA6>
24.27

>  <EState_VSA7>
6.92

>  <EState_VSA8>
5.32

>  <EState_VSA9>
5.11

>  <EState_VSA10>
5.11

>  <VSA_EState1>
0

>  <VSA_EState2>
0

>  <VSA_EState3>
21.79

>  <VSA_EState4>
0.74

>  <VSA_EState5>
0.19

>  <VSA_EState6>
6.67

>  <VSA_EState7>
-0.55

>  <VSA_EState8>
3.32

>  <VSA_EState9>
0

>  <apol>
29.41

>  <bpol>
15.62

>  <nRing>
1

>  <nHRing>
0

>  <naRing>
1

>  <naHRing>
0

>  <nARing 2>
0

>  <nAHRing 2>
0

>  <nFRing>
0

>  <nFHRing>
0

>  <nFaRing>
0

>  <nFaHRing>
0

>  <nFARing 2>
0

>  <nFAHRing 2>
0

>  <nRot>
4

>  <SLogP>
1.04

>  <SMR>
51.61

>  <TopoPSA(NO)>
52.49

>  <TopoPSA>
52.49

>  <JGI1>
0.19

>  <JGI2>
0.08

>  <JGI3>
0.05

>  <JGI4>
0.05

>  <JGI5>
0.02

>  <Diameter>
8

>  <Radius>
4

>  <TMWC10>
91.45

>  <TSRW10>
43.17

>  <MW>
181.11

>  <AMW>
6.47

>  <WPath>
268

>  <WPol>
15

>  <Zagreb1>
58

>  <Zagreb2>
63

>  <mZagreb2>
3.11

>  <yes>


>  <nAR-cont>
0.336376

>  <nHA-cont>
0.841215992

>  <MWHBN>
0.445841032

>  <MWHBN-cont>
0.300901792

>  <TPSA-cont>
0.633587206

>  <pka_cont>
0.97

>  <yes.1>


>  <BBB_SCORE>
3.381119092

>  <MMFF94 Energy>
38.543

$$$$
Compound 1232
Actelion Java MolfileCreator 2.0

  0  0  0  0  0  0              0 V3000
M  V30 BEGIN CTAB
M  V30 COUNTS 33 33 0 0 0
M  V30 BEGIN ATOM
M  V30 1 S 1.6625 -2.455 0.5539 0
M  V30 2 C -0.1302 -2.5843 0.2867 0
M  V30 3 C 2.2341 -2.3579 -1.1598 0
M  V30 4 C -0.7507 -1.4501 -0.49 0
M  V30 5 C -0.9697 -0.1498 0.0199 0
M  V30 6 C -1.1531 -1.7063 -1.8039 0
M  V30 7 C -1.5558 0.8013 -0.8393 0
M  V30 8 C -0.5796 0.2273 1.4333 0
M  V30 9 N -1.728 -0.8074 -2.6285 0
M  V30 10 O -1.79 2.0965 -0.4563 0
M  V30 11 C -1.9218 0.4381 -2.139 0
M  V30 12 N 0.6841 0.9536 1.4504 0
M  V30 13 C -2.5529 1.4333 -3.0685 0
M  V30 14 C 1.0222 1.4338 2.7844 0
M  V30 15 C 2.3645 2.148 2.7502 0
M  V30 16 H -0.6252 -2.6764 1.2596 0
M  V30 17 H -0.3191 -3.5416 -0.2139 0
M  V30 18 H 3.326 -2.4151 -1.1725 0
M  V30 19 H 1.9397 -1.4089 -1.6148 0
M  V30 20 H 1.8395 -3.1924 -1.7453 0
M  V30 21 H -1.0173 -2.688 -2.253 0
M  V30 22 H -0.5101 -0.6595 2.0705 0
M  V30 23 H -1.3869 0.8264 1.8745 0
M  V30 24 H -1.3909 2.266 0.4101 0
M  V30 25 H 0.7068 1.7061 0.7673 0
M  V30 26 H -3.4929 1.8042 -2.648 0
M  V30 27 H -1.8751 2.275 -3.242 0
M  V30 28 H -2.7751 0.9738 -4.0372 0
M  V30 29 H 1.0843 0.595 3.4869 0
M  V30 30 H 0.2558 2.1279 3.1482 0
M  V30 31 H 3.161 1.4778 2.4094 0
M  V30 32 H 2.3362 3.0157 2.0822 0
M  V30 33 H 2.6282 2.503 3.7518 0
M  V30 END ATOM
M  V30 BEGIN BOND
M  V30 1 1 1 2
M  V30 2 1 1 3
M  V30 3 1 2 4
M  V30 4 2 4 5
M  V30 5 1 4 6
M  V30 6 1 5 7
M  V30 7 1 5 8
M  V30 8 2 6 9
M  V30 9 1 7 10
M  V30 10 2 7 11
M  V30 11 1 8 12
M  V30 12 1 11 13
M  V30 13 1 12 14
M  V30 14 1 14 15
M  V30 15 1 9 11
M  V30 16 1 2 16
M  V30 17 1 2 17
M  V30 18 1 3 18
M  V30 19 1 3 19
M  V30 20 1 3 20
M  V30 21 1 6 21
M  V30 22 1 8 22
M  V30 23 1 8 23
M  V30 24 1 10 24
M  V30 25 1 12 25
M  V30 26 1 13 26
M  V30 27 1 13 27
M  V30 28 1 13 28
M  V30 29 1 14 29
M  V30 30 1 14 30
M  V30 31 1 15 31
M  V30 32 1 15 32
M  V30 33 1 15 33
M  V30 END BOND
M  V30 END CTAB
M  END
>  <Column 1>
1463

>  <level_0>
1613

>  <index>
1613

>  <Unnamed: 0>
1613

>  <NO.>
1625

>  <Name>
skb_a

>  <IUPAC_name>
4-(ethylaminomethyl)-2-methyl-5-(methylsulfanylmethyl)pyridin-3-ol

>  <SMILES>
CCNCc1c(CSC)cnc(C)c1O

>  <CID>
3085156

>  <logBB>


>  <BBB+/BBB->
BBB+

>  <Inchi>
InChI=1S/C11H18N2OS/c1-4-12-6-10-9(7-15-3)5-13-8(2)11(10)14/h5-12-14H-4-6-7H2-1-3H3

>  <threshold>
-1

>  <reference>
R1|R1|R7|R13|R19|R19|R28|R6|R9|R24|R27|R27|R27|R27|R29|R30|R30|R30|R36|

>  <group>
B

>  <Class>
-1

>  <ABC>
10.7

>  <ABCGG>
10.1

>  <nAcid>
0

>  <nBase>
1

>  <nAromAtom>
6

>  <nAromBond>
6

>  <nAtom>
33

>  <nHeavyAtom>
15

>  <nSpiro>
0

>  <nBridgehead>
0

>  <nHetero>
4

>  <nN>
2

>  <nO>
1

>  <nF>
0

>  <BalabanJ>
2.53

>  <BertzCT>
328.61

>  <nBonds>
33

>  <nBondsO>
15

>  <nBondsS>
27

>  <nBondsD>
0

>  <nBondsT>
0

>  <nBondsA>
6

>  <nBondsM>
6

>  <nBondsKS>
30

>  <nBondsKD>
3

>  <RNCG>
0.38

>  <RPCG>
0.22

>  <FCSP3>
0.55

>  <SZ>
20.33

>  <Sm>
18.84

>  <Sv>
19.29

>  <Sse>
32.72

>  <Sp>
21.72

>  <Si>
37.45

>  <MZ>
0.62

>  <Mm>
0.57

>  <Mv>
0.58

>  <Mse>
0.99

>  <Mp>
0.66

>  <Mi>
1.13

>  <NsCH3>
3

>  <NdCH2>
0

>  <NssCH2>
3

>  <NtCH>
0

>  <NdsCH>
0

>  <NaaCH>
1

>  <NsssCH>
0

>  <NddC>
0

>  <NtsC>
0

>  <NdssC>
0

>  <NaasC>
4

>  <NaaaC>
0

>  <NssssC>
0

>  <NsNH3>
0

>  <NsNH2>
0

>  <NssNH2>
0

>  <NdNH>
0

>  <NssNH>
1

>  <NaaNH>
0

>  <NtN>
0

>  <NsssNH>
0

>  <NdsN>
0

>  <NaaN>
1

>  <NsssN>
0

>  <NddsN>
0

>  <NaasN>
0

>  <NssssN>
0

>  <NsOH>
1

>  <NdO>
0

>  <NssO>
0

>  <NaaO>
0

>  <NsF>
0

>  <NsSiH3>
0

>  <NssSiH2>
0

>  <NsssSiH>
0

>  <NssssSi>
0

>  <NsPH2>
0

>  <NssPH>
0

>  <NsssP>
0

>  <NdsssP>
0

>  <NsssssP>
0

>  <NsSH>
0

>  <NdS>
0

>  <NssS>
1

>  <NaaS>
0

>  <NdssS>
0

>  <NddssS>
0

>  <NsCl>
0

>  <NsBr>
0

>  <NsI>
0

>  <fragCpx>
15.04

>  <fMF>
0.18

>  <nHBAcc>
4

>  <nHBDon>
2

>  <Kier1>
13.07

>  <Kier2>
6.55

>  <Lipinski>
1

>  <GhoseFilter>
1

>  <FilterItLogS>
-3.84

>  <VMcGowan>
184.27

>  <LabuteASA>
95.31

>  <PEOE_VSA1>
10.42

>  <PEOE_VSA2>
4.98

>  <PEOE_VSA3>
0

>  <PEOE_VSA4>
11.76

>  <PEOE_VSA5>
0

>  <PEOE_VSA6>
6.92

>  <PEOE_VSA7>
25.29

>  <PEOE_VSA8>
24.06

>  <PEOE_VSA9>
5.69

>  <PEOE_VSA10>
5.75

>  <PEOE_VSA11>
0

>  <PEOE_VSA12>
0

>  <PEOE_VSA13>
0

>  <SMR_VSA1>
5.11

>  <SMR_VSA2>
0

>  <SMR_VSA3>
10.3

>  <SMR_VSA4>
0

>  <SMR_VSA5>
26.15

>  <SMR_VSA6>
12.8

>  <SMR_VSA7>
23.02

>  <SMR_VSA8>
0

>  <SMR_VSA9>
5.75

>  <SlogP_VSA1>
5.32

>  <SlogP_VSA2>
22.89

>  <SlogP_VSA3>
12.3

>  <SlogP_VSA4>
6.92

>  <SlogP_VSA5>
23.74

>  <SlogP_VSA6>
6.2

>  <SlogP_VSA7>
0

>  <SlogP_VSA8>
0

>  <SlogP_VSA9>
0

>  <SlogP_VSA10>
0

>  <SlogP_VSA11>
5.75

>  <EState_VSA1>
0

>  <EState_VSA2>
0

>  <EState_VSA3>
17.99

>  <EState_VSA4>
23.42

>  <EState_VSA5>
0

>  <EState_VSA6>
11.76

>  <EState_VSA7>
19.38

>  <EState_VSA8>
17.22

>  <EState_VSA9>
0

>  <EState_VSA10>
5.11

>  <VSA_EState1>
0

>  <VSA_EState2>
4.17

>  <VSA_EState3>
13.15

>  <VSA_EState4>
2.8

>  <VSA_EState5>
1.23

>  <VSA_EState6>
0

>  <VSA_EState7>
3.91

>  <VSA_EState8>
5.49

>  <VSA_EState9>
0

>  <apol>
36.27

>  <bpol>
22.23

>  <nRing>
1

>  <nHRing>
1

>  <naRing>
1

>  <naHRing>
1

>  <nARing 2>
0

>  <nAHRing 2>
0

>  <nFRing>
0

>  <nFHRing>
0

>  <nFaRing>
0

>  <nFaHRing>
0

>  <nFARing 2>
0

>  <nFAHRing 2>
0

>  <nRot>
5

>  <SLogP>
2.07

>  <SMR>
65.24

>  <TopoPSA(NO)>
45.15

>  <TopoPSA>
70.45

>  <JGI1>
0.17

>  <JGI2>
0.11

>  <JGI3>
0.05

>  <JGI4>
0.05

>  <JGI5>
0.03

>  <Diameter>
8

>  <Radius>
4

>  <TMWC10>
98.36

>  <TSRW10>
46.34

>  <MW>
226.11

>  <AMW>
6.85

>  <WPath>
372

>  <WPol>
21

>  <Zagreb1>
68

>  <Zagreb2>
77

>  <mZagreb2>
3.67

>  <yes>


>  <nAR-cont>
0.336376

>  <nHA-cont>
0.92539861

>  <MWHBN>
0.399016969

>  <MWHBN-cont>
0.479930582

>  <TPSA-cont>
0.508215253

>  <pka_cont>
0.97

>  <yes.1>


>  <BBB_SCORE>
3.48310099

>  <MMFF94 Energy>
28.474

$$$$
Compound 1233
Actelion Java MolfileCreator 2.0

  0  0  0  0  0  0              0 V3000
M  V30 BEGIN CTAB
M  V30 COUNTS 37 38 0 0 0
M  V30 BEGIN ATOM
M  V30 1 O -2.4402 0.3932 -1.6525 0
M  V30 2 C -1.8113 1.0718 -0.5321 0 CFG=1
M  V30 3 C -2.1555 1.1115 -2.8615 0
M  V30 4 C -0.5235 0.2754 -0.1225 0 CFG=2
M  V30 5 C -1.6127 2.4921 -1.0507 0
M  V30 6 C -1.2468 2.2636 -2.4941 0
M  V30 7 N -0.847 -0.9376 0.6836 0
M  V30 8 C 0.4715 1.1461 0.6919 0
M  V30 9 C -1.6682 -1.9148 -0.031 0
M  V30 10 C 1.7674 0.4493 1.0574 0
M  V30 11 C -1.7079 -3.2199 0.7531 0
M  V30 12 C 2.0148 0.0593 2.3806 0
M  V30 13 C 2.7305 0.1759 0.0763 0
M  V30 14 C 3.2022 -0.5927 2.7152 0
M  V30 15 C 3.9175 -0.4758 0.4135 0
M  V30 16 C 4.1529 -0.8599 1.7322 0
M  V30 17 H -2.518 1.08 0.3062 0
M  V30 18 H -1.6988 0.4365 -3.5908 0
M  V30 19 H -3.1076 1.4692 -3.2669 0
M  V30 20 H -0.0156 -0.0669 -1.0342 0
M  V30 21 H -0.8974 3.105 -0.5021 0
M  V30 22 H -2.5741 3.022 -1.0139 0
M  V30 23 H -1.3976 3.14 -3.13 0
M  V30 24 H -0.1968 1.9607 -2.5763 0
M  V30 25 H 0.032 -1.3864 0.9488 0
M  V30 26 H -0.0192 1.5225 1.5992 0
M  V30 27 H 0.7647 2.0304 0.1154 0
M  V30 28 H -1.26 -2.1163 -1.0276 0
M  V30 29 H -2.6954 -1.5528 -0.1344 0
M  V30 30 H -0.7064 -3.6501 0.8602 0
M  V30 31 H -2.1258 -3.068 1.7542 0
M  V30 32 H -2.3347 -3.952 0.2338 0
M  V30 33 H 1.2781 0.2542 3.1572 0
M  V30 34 H 2.5621 0.4693 -0.957 0
M  V30 35 H 3.384 -0.8935 3.7437 0
M  V30 36 H 4.6593 -0.6839 -0.3528 0
M  V30 37 H 5.0773 -1.3677 1.9941 0
M  V30 END ATOM
M  V30 BEGIN BOND
M  V30 1 1 1 2
M  V30 2 1 1 3
M  V30 3 1 2 4
M  V30 4 1 2 5
M  V30 5 1 3 6
M  V30 6 1 4 7
M  V30 7 1 4 8
M  V30 8 1 7 9
M  V30 9 1 8 10
M  V30 10 1 9 11
M  V30 11 2 10 12
M  V30 12 1 10 13
M  V30 13 1 12 14
M  V30 14 2 13 15
M  V30 15 2 14 16
M  V30 16 1 5 6
M  V30 17 1 15 16
M  V30 18 1 2 17
M  V30 19 1 3 18
M  V30 20 1 3 19
M  V30 21 1 4 20
M  V30 22 1 5 21
M  V30 23 1 5 22
M  V30 24 1 6 23
M  V30 25 1 6 24
M  V30 26 1 7 25
M  V30 27 1 8 26
M  V30 28 1 8 27
M  V30 29 1 9 28
M  V30 30 1 9 29
M  V30 31 1 11 30
M  V30 32 1 11 31
M  V30 33 1 11 32
M  V30 34 1 12 33
M  V30 35 1 13 34
M  V30 36 1 14 35
M  V30 37 1 15 36
M  V30 38 1 16 37
M  V30 END BOND
M  V30 BEGIN COLLECTION
M  V30 MDLV30/STEABS ATOMS=(2 2 4)
M  V30 END COLLECTION
M  V30 END CTAB
M  END
>  <Column 1>
1465

>  <level_0>
1615

>  <index>
1615

>  <Unnamed: 0>
1615

>  <NO.>
1627

>  <Name>
zylofuramine

>  <IUPAC_name>
(1r)-n-ethyl-1-[(2r)-oxolan-2-yl]-2-phenylethanamine

>  <SMILES>
CCN[C@H](Cc1ccccc1)[C@H]1CCCO1

>  <CID>
71129

>  <logBB>


>  <BBB+/BBB->
BBB+

>  <Inchi>
InChI=1S/C14H21NO/c1-2-15-13(14-9-6-10-16-14)11-12-7-4-3-5-8-12/h3-5-7-8-13-15H-2-6-9-11H2-1H3/t13--14-/m1/s1

>  <threshold>
-1

>  <reference>
R1|R27|R30|

>  <group>
B

>  <Class>
-1

>  <ABC>
11.98

>  <ABCGG>
10.86

>  <nAcid>
0

>  <nBase>
1

>  <nAromAtom>
6

>  <nAromBond>
6

>  <nAtom>
37

>  <nHeavyAtom>
16

>  <nSpiro>
0

>  <nBridgehead>
0

>  <nHetero>
2

>  <nN>
1

>  <nO>
1

>  <nF>
0

>  <BalabanJ>
1.8

>  <BertzCT>
292.86

>  <nBonds>
38

>  <nBondsO>
17

>  <nBondsS>
32

>  <nBondsD>
0

>  <nBondsT>
0

>  <nBondsA>
6

>  <nBondsM>
6

>  <nBondsKS>
35

>  <nBondsKD>
3

>  <RNCG>
0.33

>  <RPCG>
0.11

>  <FCSP3>
0.57

>  <SZ>
20

>  <Sm>
18.26

>  <Sv>
21.16

>  <Sse>
36.32

>  <Sp>
23.52

>  <Si>
41.86

>  <MZ>
0.54

>  <Mm>
0.49

>  <Mv>
0.57

>  <Mse>
0.98

>  <Mp>
0.64

>  <Mi>
1.13

>  <NsCH3>
1

>  <NdCH2>
0

>  <NssCH2>
5

>  <NtCH>
0

>  <NdsCH>
0

>  <NaaCH>
5

>  <NsssCH>
2

>  <NddC>
0

>  <NtsC>
0

>  <NdssC>
0

>  <NaasC>
1

>  <NaaaC>
0

>  <NssssC>
0

>  <NsNH3>
0

>  <NsNH2>
0

>  <NssNH2>
0

>  <NdNH>
0

>  <NssNH>
1

>  <NaaNH>
0

>  <NtN>
0

>  <NsssNH>
0

>  <NdsN>
0

>  <NaaN>
0

>  <NsssN>
0

>  <NddsN>
0

>  <NaasN>
0

>  <NssssN>
0

>  <NsOH>
0

>  <NdO>
0

>  <NssO>
1

>  <NaaO>
0

>  <NsF>
0

>  <NsSiH3>
0

>  <NssSiH2>
0

>  <NsssSiH>
0

>  <NssssSi>
0

>  <NsPH2>
0

>  <NssPH>
0

>  <NsssP>
0

>  <NdsssP>
0

>  <NsssssP>
0

>  <NsSH>
0

>  <NdS>
0

>  <NssS>
0

>  <NaaS>
0

>  <NdssS>
0

>  <NddssS>
0

>  <NsCl>
0

>  <NsBr>
0

>  <NsI>
0

>  <fragCpx>
49.02

>  <fMF>
0.35

>  <nHBAcc>
2

>  <nHBDon>
1

>  <Kier1>
12.46

>  <Kier2>
6.67

>  <Lipinski>
1

>  <GhoseFilter>
1

>  <FilterItLogS>
-3.56

>  <VMcGowan>
189.35

>  <LabuteASA>
98.01

>  <PEOE_VSA1>
10.05

>  <PEOE_VSA2>
0

>  <PEOE_VSA3>
0

>  <PEOE_VSA4>
0

>  <PEOE_VSA5>
0

>  <PEOE_VSA6>
37.26

>  <PEOE_VSA7>
31.37

>  <PEOE_VSA8>
12.65

>  <PEOE_VSA9>
6.1

>  <PEOE_VSA10>
0

>  <PEOE_VSA11>
0

>  <PEOE_VSA12>
0

>  <PEOE_VSA13>
0

>  <SMR_VSA1>
4.74

>  <SMR_VSA2>
0

>  <SMR_VSA3>
5.32

>  <SMR_VSA4>
0

>  <SMR_VSA5>
38.33

>  <SMR_VSA6>
13.15

>  <SMR_VSA7>
35.9

>  <SMR_VSA8>
0

>  <SMR_VSA9>
0

>  <SlogP_VSA1>
5.32

>  <SlogP_VSA2>
25.3

>  <SlogP_VSA3>
11.16

>  <SlogP_VSA4>
0

>  <SlogP_VSA5>
25.33

>  <SlogP_VSA6>
30.33

>  <SlogP_VSA7>
0

>  <SlogP_VSA8>
0

>  <SlogP_VSA9>
0

>  <SlogP_VSA10>
0

>  <SlogP_VSA11>
0

>  <EState_VSA1>
0

>  <EState_VSA2>
0

>  <EState_VSA3>
12.15

>  <EState_VSA4>
19.57

>  <EState_VSA5>
18.41

>  <EState_VSA6>
0

>  <EState_VSA7>
0

>  <EState_VSA8>
42.57

>  <EState_VSA9>
4.74

>  <EState_VSA10>
0

>  <VSA_EState1>
5.78

>  <VSA_EState2>
0

>  <VSA_EState3>
3.55

>  <VSA_EState4>
1.39

>  <VSA_EState5>
0

>  <VSA_EState6>
11.13

>  <VSA_EState7>
3.88

>  <VSA_EState8>
4.1

>  <VSA_EState9>
0

>  <apol>
39.28

>  <bpol>
23.37

>  <nRing>
2

>  <nHRing>
1

>  <naRing>
1

>  <naHRing>
0

>  <nARing 2>
1

>  <nAHRing 2>
1

>  <nFRing>
0

>  <nFHRing>
0

>  <nFaRing>
0

>  <nFaHRing>
0

>  <nFARing 2>
0

>  <nFAHRing 2>
0

>  <nRot>
5

>  <SLogP>
2.39

>  <SMR>
66.58

>  <TopoPSA(NO)>
21.26

>  <TopoPSA>
21.26

>  <JGI1>
0.12

>  <JGI2>
0.05

>  <JGI3>
0.03

>  <JGI4>
0.03

>  <JGI5>
0.01

>  <Diameter>
8

>  <Radius>
4

>  <TMWC10>
101.6

>  <TSRW10>
60.62

>  <MW>
219.16

>  <AMW>
5.92

>  <WPath>
458

>  <WPol>
18

>  <Zagreb1>
76

>  <Zagreb2>
85

>  <mZagreb2>
3.78

>  <yes>


>  <nAR-cont>
0.816016

>  <nHA-cont>
0.954961865

>  <MWHBN>
0.202647201

>  <MWHBN-cont>
0.999945682

>  <TPSA-cont>
0.851591998

>  <pka_cont>
0.97

>  <yes.1>


>  <BBB_SCORE>
5.459080384

>  <MMFF94 Energy>
61.229

$$$$
Compound 1234
Actelion Java MolfileCreator 2.0

  0  0  0  0  0  0              0 V3000
M  V30 BEGIN CTAB
M  V30 COUNTS 46 49 0 0 0
M  V30 BEGIN ATOM
M  V30 1 O -1.2962 1.3773 3.0807 0
M  V30 2 C -1.0044 2.0075 2.0681 0
M  V30 3 O -1.2963 3.3551 1.9677 0
M  V30 4 C -0.4127 1.326 0.883 0
M  V30 5 C -1.0254 4.0812 0.799 0
M  V30 6 C -0.2274 2.0165 -0.2563 0
M  V30 7 C -0.1122 -0.149 1.1484 0
M  V30 8 C -0.4848 3.4622 -0.3245 0
M  V30 9 C -1.312 5.4469 0.8396 0
M  V30 10 O 0.2105 1.3867 -1.4018 0
M  V30 11 C -0.0708 -1.0577 -0.0706 0
M  V30 12 C 1.1177 -0.2626 2.0727 0
M  V30 13 C -0.1864 4.278 -1.4264 0
M  V30 14 C -1.0357 6.2338 -0.2724 0
M  V30 15 C 1.2618 -1.2433 -0.7164 0
M  V30 16 C -1.149 -1.6991 -0.5666 0
M  V30 17 O 1.7761 0.6784 2.4998 0
M  V30 18 O 1.3325 -1.5739 2.4013 0
M  V30 19 C -0.4666 5.651 -1.4021 0
M  V30 20 O 2.271 -0.6831 -0.303 0
M  V30 21 O 1.339 -2.0853 -1.8157 0
M  V30 22 O -2.4327 -1.5877 -0.0707 0
M  V30 23 C -1.0323 -2.5847 -1.7268 0
M  V30 24 C 2.4771 -1.7836 3.2361 0
M  V30 25 C 0.2126 -2.7498 -2.3177 0
M  V30 26 C -2.1173 -3.2795 -2.2772 0
M  V30 27 C 2.6317 -3.2754 3.4572 0
M  V30 28 C 0.4058 -3.5747 -3.426 0
M  V30 29 C -1.9431 -4.1116 -3.3887 0
M  V30 30 C -0.6811 -4.2589 -3.9629 0
M  V30 31 H -0.9221 -0.5378 1.7823 0
M  V30 32 H -1.7362 5.8918 1.7356 0
M  V30 33 H -0.0142 1.9164 -2.1829 0
M  V30 34 H 0.294 3.8865 -2.3179 0
M  V30 35 H -1.2469 7.3 -0.2535 0
M  V30 36 H -0.2264 6.2683 -2.2651 0
M  V30 37 H -2.4922 -0.9214 0.6306 0
M  V30 38 H 2.3285 -1.2798 4.1977 0
M  V30 39 H 3.3735 -1.3884 2.7453 0
M  V30 40 H -3.1107 -3.1815 -1.8445 0
M  V30 41 H 3.4959 -3.4883 4.0925 0
M  V30 42 H 1.7349 -3.6902 3.9291 0
M  V30 43 H 2.758 -3.7951 2.5017 0
M  V30 44 H 1.3941 -3.6826 -3.8634 0
M  V30 45 H -2.7951 -4.6452 -3.803 0
M  V30 46 H -0.5463 -4.9065 -4.8253 0
M  V30 END ATOM
M  V30 BEGIN BOND
M  V30 1 2 1 2
M  V30 2 1 2 3
M  V30 3 1 2 4
M  V30 4 1 3 5
M  V30 5 2 4 6
M  V30 6 1 4 7
M  V30 7 2 5 8
M  V30 8 1 5 9
M  V30 9 1 6 10
M  V30 10 1 7 11
M  V30 11 1 7 12
M  V30 12 1 8 13
M  V30 13 2 9 14
M  V30 14 1 11 15
M  V30 15 2 11 16
M  V30 16 2 12 17
M  V30 17 1 12 18
M  V30 18 2 13 19
M  V30 19 2 15 20
M  V30 20 1 15 21
M  V30 21 1 16 22
M  V30 22 1 16 23
M  V30 23 1 18 24
M  V30 24 1 21 25
M  V30 25 1 23 26
M  V30 26 1 24 27
M  V30 27 1 25 28
M  V30 28 2 26 29
M  V30 29 2 28 30
M  V30 30 1 6 8
M  V30 31 1 14 19
M  V30 32 2 23 25
M  V30 33 1 29 30
M  V30 34 1 7 31
M  V30 35 1 9 32
M  V30 36 1 10 33
M  V30 37 1 13 34
M  V30 38 1 14 35
M  V30 39 1 19 36
M  V30 40 1 22 37
M  V30 41 1 24 38
M  V30 42 1 24 39
M  V30 43 1 26 40
M  V30 44 1 27 41
M  V30 45 1 27 42
M  V30 46 1 27 43
M  V30 47 1 28 44
M  V30 48 1 29 45
M  V30 49 1 30 46
M  V30 END BOND
M  V30 END CTAB
M  END
>  <Column 1>
1466

>  <level_0>
1616

>  <index>
1616

>  <Unnamed: 0>
1616

>  <NO.>
1628

>  <Name>
ethyl biscoumacetate

>  <IUPAC_name>
ethyl 2-2-bis(4-hydroxy-2-oxochromen-3-yl)acetate

>  <SMILES>
CCOC(=O)C(c1c(O)c2ccccc2oc1=O)c1c(O)c2ccccc2oc1=O

>  <CID>
54685524

>  <logBB>


>  <BBB+/BBB->
BBB-

>  <Inchi>
InChI=1S/C22H16O8/c1-2-28-20(25)15(16-18(23)11-7-3-5-9-13(11)29-21(16)26)17-19(24)12-8-4-6-10-14(12)30-22(17)27/h3-10-15-23-24H-2H2-1H3

>  <threshold>
-1

>  <reference>
R1|R13|R27|R30|

>  <group>
B

>  <Class>
1

>  <ABC>
23.44

>  <ABCGG>
19

>  <nAcid>
0

>  <nBase>
0

>  <nAromAtom>
20

>  <nAromBond>
22

>  <nAtom>
46

>  <nHeavyAtom>
30

>  <nSpiro>
0

>  <nBridgehead>
0

>  <nHetero>
8

>  <nN>
0

>  <nO>
8

>  <nF>
0

>  <BalabanJ>
1.64

>  <BertzCT>
1296.93

>  <nBonds>
49

>  <nBondsO>
33

>  <nBondsS>
24

>  <nBondsD>
3

>  <nBondsT>
0

>  <nBondsA>
22

>  <nBondsM>
25

>  <nBondsKS>
38

>  <nBondsKD>
11

>  <RNCG>
0.15

>  <RPCG>
0.1

>  <FCSP3>
0.14

>  <SZ>
35.33

>  <Sm>
34

>  <Sv>
32.05

>  <Sse>
47.75

>  <Sp>
32.23

>  <Si>
51

>  <MZ>
0.77

>  <Mm>
0.74

>  <Mv>
0.7

>  <Mse>
1.04

>  <Mp>
0.7

>  <Mi>
1.11

>  <NsCH3>
1

>  <NdCH2>
0

>  <NssCH2>
1

>  <NtCH>
0

>  <NdsCH>
0

>  <NaaCH>
8

>  <NsssCH>
1

>  <NddC>
0

>  <NtsC>
0

>  <NdssC>
1

>  <NaasC>
4

>  <NaaaC>
4

>  <NssssC>
0

>  <NsNH3>
0

>  <NsNH2>
0

>  <NssNH2>
0

>  <NdNH>
0

>  <NssNH>
0

>  <NaaNH>
0

>  <NtN>
0

>  <NsssNH>
0

>  <NdsN>
0

>  <NaaN>
0

>  <NsssN>
0

>  <NddsN>
0

>  <NaasN>
0

>  <NssssN>
0

>  <NsOH>
2

>  <NdO>
3

>  <NssO>
1

>  <NaaO>
2

>  <NsF>
0

>  <NsSiH3>
0

>  <NssSiH2>
0

>  <NsssSiH>
0

>  <NssssSi>
0

>  <NsPH2>
0

>  <NssPH>
0

>  <NsssP>
0

>  <NdsssP>
0

>  <NsssssP>
0

>  <NsSH>
0

>  <NdS>
0

>  <NssS>
0

>  <NaaS>
0

>  <NdssS>
0

>  <NddssS>
0

>  <NsCl>
0

>  <NsBr>
0

>  <NsI>
0

>  <fragCpx>
219.08

>  <fMF>
0.46

>  <nHBAcc>
8

>  <nHBDon>
2

>  <Kier1>
23.17

>  <Kier2>
9.87

>  <Lipinski>
1

>  <GhoseFilter>
1

>  <FilterItLogS>
-5.43

>  <VMcGowan>
277.06

>  <LabuteASA>
168.11

>  <PEOE_VSA1>
23.78

>  <PEOE_VSA2>
4.79

>  <PEOE_VSA3>
9.59

>  <PEOE_VSA4>
0

>  <PEOE_VSA5>
0

>  <PEOE_VSA6>
24.27

>  <PEOE_VSA7>
31.19

>  <PEOE_VSA8>
0

>  <PEOE_VSA9>
28.51

>  <PEOE_VSA10>
28.58

>  <PEOE_VSA11>
0

>  <PEOE_VSA12>
0

>  <PEOE_VSA13>
0

>  <SMR_VSA1>
28.58

>  <SMR_VSA2>
0

>  <SMR_VSA3>
0

>  <SMR_VSA4>
0

>  <SMR_VSA5>
12.84

>  <SMR_VSA6>
6.61

>  <SMR_VSA7>
80.5

>  <SMR_VSA8>
0

>  <SMR_VSA9>
11.5

>  <SlogP_VSA1>
11.25

>  <SlogP_VSA2>
22.79

>  <SlogP_VSA3>
9.53

>  <SlogP_VSA4>
0

>  <SlogP_VSA5>
23.97

>  <SlogP_VSA6>
66.95

>  <SlogP_VSA7>
0

>  <SlogP_VSA8>
21.94

>  <SlogP_VSA9>
0

>  <SlogP_VSA10>
0

>  <SlogP_VSA11>
11.5

>  <EState_VSA1>
45.76

>  <EState_VSA2>
28.55

>  <EState_VSA3>
0

>  <EState_VSA4>
0

>  <EState_VSA5>
24.27

>  <EState_VSA6>
31.19

>  <EState_VSA7>
0

>  <EState_VSA8>
0

>  <EState_VSA9>
13.57

>  <EState_VSA10>
24.6

>  <VSA_EState1>
15.5

>  <VSA_EState2>
38.25

>  <VSA_EState3>
21.9

>  <VSA_EState4>
-2.94

>  <VSA_EState5>
-3.88

>  <VSA_EState6>
12.35

>  <VSA_EState7>
0

>  <VSA_EState8>
1.48

>  <VSA_EState9>
0

>  <apol>
53.82

>  <bpol>
23.86

>  <nRing>
4

>  <nHRing>
2

>  <naRing>
4

>  <naHRing>
2

>  <nARing 2>
0

>  <nAHRing 2>
0

>  <nFRing>
2

>  <nFHRing>
2

>  <nFaRing>
2

>  <nFaHRing>
2

>  <nFARing 2>
0

>  <nFAHRing 2>
0

>  <nRot>
4

>  <SLogP>
3.01

>  <SMR>
106.77

>  <TopoPSA(NO)>
127.18

>  <TopoPSA>
127.18

>  <JGI1>
0.15

>  <JGI2>
0.08

>  <JGI3>
0.06

>  <JGI4>
0.05

>  <JGI5>
0.03

>  <Diameter>
12

>  <Radius>
6

>  <TMWC10>
141.76

>  <TSRW10>
66.26

>  <MW>
408.08

>  <AMW>
8.87

>  <WPath>
2154

>  <WPol>
57

>  <Zagreb1>
162

>  <Zagreb2>
198

>  <mZagreb2>
6.64

>  <yes>


>  <nAR-cont>
0.336376

>  <nHA-cont>
0.74523694

>  <MWHBN>
0.495025242

>  <MWHBN-cont>
0

>  <TPSA-cont>
0

>  <pka_cont>
0.97

>  <yes.1>


>  <BBB_SCORE>
1.56661294

>  <MMFF94 Energy>
41.299

$$$$
Compound 1235
Actelion Java MolfileCreator 2.0

  0  0  0  0  0  0              0 V3000
M  V30 BEGIN CTAB
M  V30 COUNTS 40 41 0 0 0
M  V30 BEGIN ATOM
M  V30 1 O -2.0549 1.6595 1.4223 0
M  V30 2 C -1.4614 0.6187 1.1609 0
M  V30 3 O -1.4135 -0.4626 1.9939 0
M  V30 4 C -0.6204 0.3805 -0.1123 0
M  V30 5 C -2.1247 -0.2946 3.2252 0
M  V30 6 C 0.8678 0.5562 0.2638 0
M  V30 7 C -1.0656 1.4268 -1.1748 0
M  V30 8 C -1.0139 -1.011 -0.6854 0
M  V30 9 C -1.9719 -1.5669 4.0353 0
M  V30 10 C 1.7827 -0.5092 0.2825 0
M  V30 11 C 1.3469 1.821 0.6653 0
M  V30 12 C -0.5153 1.1233 -2.5665 0
M  V30 13 C -0.5165 -1.2481 -2.114 0
M  V30 14 C 3.1145 -0.3056 0.6434 0
M  V30 15 C 2.6835 2.0171 1.0274 0
M  V30 16 N -0.9793 -0.1919 -3.0179 0
M  V30 17 O 3.9449 -1.3881 0.6259 0
M  V30 18 C 3.5756 0.9505 1.0112 0
M  V30 19 C -0.5258 -0.4527 -4.3846 0
M  V30 20 H -3.1851 -0.1127 3.018 0
M  V30 21 H -1.7058 0.5508 3.7823 0
M  V30 22 H -2.1643 1.4412 -1.2344 0
M  V30 23 H -0.7839 2.4481 -0.8952 0
M  V30 24 H -2.1111 -1.0966 -0.6901 0
M  V30 25 H -0.6698 -1.829 -0.0411 0
M  V30 26 H -2.5001 -1.4879 4.9896 0
M  V30 27 H -2.3667 -2.4256 3.4823 0
M  V30 28 H -0.9147 -1.7738 4.232 0
M  V30 29 H 1.4894 -1.5225 0.028 0
M  V30 30 H 0.6768 2.6782 0.7198 0
M  V30 31 H 0.5802 1.1858 -2.57 0
M  V30 32 H -0.8845 1.8969 -3.2512 0
M  V30 33 H 0.5762 -1.3286 -2.137 0
M  V30 34 H -0.9117 -2.215 -2.4497 0
M  V30 35 H 3.0213 3.0054 1.3294 0
M  V30 36 H 4.8285 -1.1037 0.9116 0
M  V30 37 H 4.6096 1.1144 1.295 0
M  V30 38 H -0.9133 0.3091 -5.0701 0
M  V30 39 H -0.9078 -1.4164 -4.7393 0
M  V30 40 H 0.5672 -0.4641 -4.4636 0
M  V30 END ATOM
M  V30 BEGIN BOND
M  V30 1 2 1 2
M  V30 2 1 2 3
M  V30 3 1 2 4
M  V30 4 1 3 5
M  V30 5 1 4 6
M  V30 6 1 4 7
M  V30 7 1 4 8
M  V30 8 1 5 9
M  V30 9 2 6 10
M  V30 10 1 6 11
M  V30 11 1 7 12
M  V30 12 1 8 13
M  V30 13 1 10 14
M  V30 14 2 11 15
M  V30 15 1 12 16
M  V30 16 1 14 17
M  V30 17 2 14 18
M  V30 18 1 16 19
M  V30 19 1 13 16
M  V30 20 1 15 18
M  V30 21 1 5 20
M  V30 22 1 5 21
M  V30 23 1 7 22
M  V30 24 1 7 23
M  V30 25 1 8 24
M  V30 26 1 8 25
M  V30 27 1 9 26
M  V30 28 1 9 27
M  V30 29 1 9 28
M  V30 30 1 10 29
M  V30 31 1 11 30
M  V30 32 1 12 31
M  V30 33 1 12 32
M  V30 34 1 13 33
M  V30 35 1 13 34
M  V30 36 1 15 35
M  V30 37 1 17 36
M  V30 38 1 18 37
M  V30 39 1 19 38
M  V30 40 1 19 39
M  V30 41 1 19 40
M  V30 END BOND
M  V30 END CTAB
M  END
>  <Column 1>
1467

>  <level_0>
1617

>  <index>
1617

>  <Unnamed: 0>
1617

>  <NO.>
1629

>  <Name>
hydroxypethidine

>  <IUPAC_name>
ethyl 4-(3-hydroxyphenyl)-1-methylpiperidine-4-carboxylate

>  <SMILES>
CCOC(=O)C1(c2cccc(O)c2)CCN(C)CC1

>  <CID>
61120

>  <logBB>


>  <BBB+/BBB->
BBB+

>  <Inchi>
InChI=1S/C15H21NO3/c1-3-19-14(18)15(7-9-16(2)10-8-15)12-5-4-6-13(17)11-12/h4-6-11-17H-3-7-10H2-1-2H3

>  <threshold>
-1

>  <reference>
R1|R7|R13|R19|R6|R24|R27|R27|R27|R29|R30|R30|

>  <group>
B

>  <Class>
1

>  <ABC>
14.35

>  <ABCGG>
12.65

>  <nAcid>
0

>  <nBase>
1

>  <nAromAtom>
6

>  <nAromBond>
6

>  <nAtom>
40

>  <nHeavyAtom>
19

>  <nSpiro>
0

>  <nBridgehead>
0

>  <nHetero>
4

>  <nN>
1

>  <nO>
3

>  <nF>
0

>  <BalabanJ>
2.13

>  <BertzCT>
450.46

>  <nBonds>
41

>  <nBondsO>
20

>  <nBondsS>
34

>  <nBondsD>
1

>  <nBondsT>
0

>  <nBondsA>
6

>  <nBondsM>
7

>  <nBondsKS>
37

>  <nBondsKD>
4

>  <RNCG>
0.28

>  <RPCG>
0.18

>  <FCSP3>
0.53

>  <SZ>
23.67

>  <Sm>
21.92

>  <Sv>
23.59

>  <Sse>
39.98

>  <Sp>
25.48

>  <Si>
45.28

>  <MZ>
0.59

>  <Mm>
0.55

>  <Mv>
0.59

>  <Mse>
1

>  <Mp>
0.64

>  <Mi>
1.13

>  <NsCH3>
2

>  <NdCH2>
0

>  <NssCH2>
5

>  <NtCH>
0

>  <NdsCH>
0

>  <NaaCH>
4

>  <NsssCH>
0

>  <NddC>
0

>  <NtsC>
0

>  <NdssC>
1

>  <NaasC>
2

>  <NaaaC>
0

>  <NssssC>
1

>  <NsNH3>
0

>  <NsNH2>
0

>  <NssNH2>
0

>  <NdNH>
0

>  <NssNH>
0

>  <NaaNH>
0

>  <NtN>
0

>  <NsssNH>
0

>  <NdsN>
0

>  <NaaN>
0

>  <NsssN>
1

>  <NddsN>
0

>  <NaasN>
0

>  <NssssN>
0

>  <NsOH>
1

>  <NdO>
1

>  <NssO>
1

>  <NaaO>
0

>  <NsF>
0

>  <NsSiH3>
0

>  <NssSiH2>
0

>  <NsssSiH>
0

>  <NssssSi>
0

>  <NsPH2>
0

>  <NssPH>
0

>  <NsssP>
0

>  <NdsssP>
0

>  <NsssssP>
0

>  <NsSH>
0

>  <NdS>
0

>  <NssS>
0

>  <NaaS>
0

>  <NdssS>
0

>  <NddssS>
0

>  <NsCl>
0

>  <NsBr>
0

>  <NsI>
0

>  <fragCpx>
58.04

>  <fMF>
0.3

>  <nHBAcc>
4

>  <nHBDon>
1

>  <Kier1>
15.39

>  <Kier2>
6.64

>  <Lipinski>
1

>  <GhoseFilter>
1

>  <FilterItLogS>
-2.8

>  <VMcGowan>
210.88

>  <LabuteASA>
113.54

>  <PEOE_VSA1>
14.74

>  <PEOE_VSA2>
4.79

>  <PEOE_VSA3>
0

>  <PEOE_VSA4>
0

>  <PEOE_VSA5>
0

>  <PEOE_VSA6>
12.13

>  <PEOE_VSA7>
57.6

>  <PEOE_VSA8>
0

>  <PEOE_VSA9>
12.02

>  <PEOE_VSA10>
5.75

>  <PEOE_VSA11>
0

>  <PEOE_VSA12>
0

>  <PEOE_VSA13>
0

>  <SMR_VSA1>
14.64

>  <SMR_VSA2>
0

>  <SMR_VSA3>
4.9

>  <SMR_VSA4>
0

>  <SMR_VSA5>
25.18

>  <SMR_VSA6>
26.74

>  <SMR_VSA7>
29.83

>  <SMR_VSA8>
0

>  <SMR_VSA9>
5.75

>  <SlogP_VSA1>
0

>  <SlogP_VSA2>
42.72

>  <SlogP_VSA3>
14.95

>  <SlogP_VSA4>
0

>  <SlogP_VSA5>
25.33

>  <SlogP_VSA6>
24.27

>  <SlogP_VSA7>
0

>  <SlogP_VSA8>
0

>  <SlogP_VSA9>
0

>  <SlogP_VSA10>
0

>  <SlogP_VSA11>
5.75

>  <EState_VSA1>
5.41

>  <EState_VSA2>
11.72

>  <EState_VSA3>
6.61

>  <EState_VSA4>
31.49

>  <EState_VSA5>
0

>  <EState_VSA6>
18.2

>  <EState_VSA7>
12.99

>  <EState_VSA8>
11.95

>  <EState_VSA9>
4.74

>  <EState_VSA10>
9.9

>  <VSA_EState1>
5.28

>  <VSA_EState2>
14.62

>  <VSA_EState3>
9.66

>  <VSA_EState4>
0.25

>  <VSA_EState5>
0.02

>  <VSA_EState6>
6.99

>  <VSA_EState7>
1.46

>  <VSA_EState8>
3.92

>  <VSA_EState9>
2.05

>  <apol>
42.56

>  <bpol>
25.38

>  <nRing>
2

>  <nHRing>
1

>  <naRing>
1

>  <naHRing>
0

>  <nARing 2>
1

>  <nAHRing 2>
1

>  <nFRing>
0

>  <nFHRing>
0

>  <nFaRing>
0

>  <nFaHRing>
0

>  <nFARing 2>
0

>  <nFAHRing 2>
0

>  <nRot>
3

>  <SLogP>
1.92

>  <SMR>
73.15

>  <TopoPSA(NO)>
49.77

>  <TopoPSA>
49.77

>  <JGI1>
0.25

>  <JGI2>
0.11

>  <JGI3>
0.05

>  <JGI4>
0.03

>  <JGI5>
0.03

>  <Diameter>
8

>  <Radius>
4

>  <TMWC10>
112.05

>  <TSRW10>
52.51

>  <MW>
263.15

>  <AMW>
6.58

>  <WPath>
656

>  <WPol>
31

>  <Zagreb1>
96

>  <Zagreb2>
113

>  <mZagreb2>
4.33

>  <yes>


>  <nAR-cont>
0.816016

>  <nHA-cont>
0.998649058

>  <MWHBN>
0.308225324

>  <MWHBN-cont>
0.815487926

>  <TPSA-cont>
0.652574495

>  <pka_cont>
0.97

>  <yes.1>


>  <BBB_SCORE>
4.828045936

>  <MMFF94 Energy>
20.732

$$$$
Compound 1236
Actelion Java MolfileCreator 2.0

  0  0  0  0  0  0              0 V3000
M  V30 BEGIN CTAB
M  V30 COUNTS 43 44 0 0 0
M  V30 BEGIN ATOM
M  V30 1 O -2.373 1.0277 0.158 0
M  V30 2 C -1.2062 1.1379 -0.2014 0
M  V30 3 O -0.7759 2.1045 -1.0706 0
M  V30 4 C -0.0361 0.1945 0.2052 0
M  V30 5 C -1.8054 2.98 -1.5437 0
M  V30 6 C 0.2909 -0.6687 -1.0414 0
M  V30 7 C -0.5315 -0.7036 1.4298 0
M  V30 8 C 1.1426 1.106 0.6715 0
M  V30 9 C -1.174 3.9799 -2.4922 0
M  V30 10 C -0.6989 -1.5171 -1.5789 0
M  V30 11 C 1.5361 -0.6313 -1.6916 0
M  V30 12 N 0.1356 -2.028 1.5939 0
M  V30 13 C -0.5666 0.0718 2.7366 0
M  V30 14 C 0.7987 1.9807 1.8811 0
M  V30 15 C -0.4516 -2.296 -2.7115 0
M  V30 16 C 1.782 -1.4117 -2.8258 0
M  V30 17 C -0.6412 -2.9587 2.4119 0
M  V30 18 C 1.5269 -1.9988 2.0242 0
M  V30 19 C 0.0089 1.2667 2.9281 0
M  V30 20 C 0.7895 -2.243 -3.3353 0
M  V30 21 H -2.2591 3.5082 -0.6977 0
M  V30 22 H -2.5703 2.4004 -2.0723 0
M  V30 23 H -1.5808 -0.948 1.2125 0
M  V30 24 H 1.4793 1.7704 -0.135 0
M  V30 25 H 2.0193 0.5042 0.9289 0
M  V30 26 H -1.923 4.6745 -2.8825 0
M  V30 27 H -0.3913 4.5523 -1.9835 0
M  V30 28 H -0.6966 3.4652 -3.3325 0
M  V30 29 H -1.681 -1.5856 -1.1136 0
M  V30 30 H 2.3447 -3.0E-4 -1.335 0
M  V30 31 H -1.136 -0.3672 3.552 0
M  V30 32 H 1.7304 2.3523 2.3236 0
M  V30 33 H 0.2324 2.8626 1.5591 0
M  V30 34 H -1.2305 -2.9456 -3.1018 0
M  V30 35 H 2.7538 -1.369 -3.3106 0
M  V30 36 H -0.6603 -2.6754 3.4696 0
M  V30 37 H -0.2212 -3.9687 2.3422 0
M  V30 38 H -1.6733 -3.0338 2.0521 0
M  V30 39 H 1.9164 -3.0183 2.1328 0
M  V30 40 H 1.6671 -1.4908 2.9837 0
M  V30 41 H 2.1673 -1.533 1.2734 0
M  V30 42 H -0.1023 1.7627 3.8898 0
M  V30 43 H 0.9841 -2.8497 -4.215 0
M  V30 END ATOM
M  V30 BEGIN BOND
M  V30 1 2 1 2
M  V30 2 1 2 3
M  V30 3 1 2 4
M  V30 4 1 3 5
M  V30 5 1 4 6
M  V30 6 1 4 7
M  V30 7 1 4 8
M  V30 8 1 5 9
M  V30 9 2 6 10
M  V30 10 1 6 11
M  V30 11 1 7 12
M  V30 12 1 7 13
M  V30 13 1 8 14
M  V30 14 1 10 15
M  V30 15 2 11 16
M  V30 16 1 12 17
M  V30 17 1 12 18
M  V30 18 2 13 19
M  V30 19 2 15 20
M  V30 20 1 14 19
M  V30 21 1 16 20
M  V30 22 1 5 21
M  V30 23 1 5 22
M  V30 24 1 7 23
M  V30 25 1 8 24
M  V30 26 1 8 25
M  V30 27 1 9 26
M  V30 28 1 9 27
M  V30 29 1 9 28
M  V30 30 1 10 29
M  V30 31 1 11 30
M  V30 32 1 13 31
M  V30 33 1 14 32
M  V30 34 1 14 33
M  V30 35 1 15 34
M  V30 36 1 16 35
M  V30 37 1 17 36
M  V30 38 1 17 37
M  V30 39 1 17 38
M  V30 40 1 18 39
M  V30 41 1 18 40
M  V30 42 1 18 41
M  V30 43 1 19 42
M  V30 44 1 20 43
M  V30 END BOND
M  V30 END CTAB
M  END
>  <Column 1>
1468

>  <level_0>
1618

>  <index>
1618

>  <Unnamed: 0>
1618

>  <NO.>
1630

>  <Name>
tilidine

>  <IUPAC_name>
ethyl 2-(dimethylamino)-1-phenylcyclohex-3-ene-1-carboxylate;hydron;chloride

>  <SMILES>
CCOC(=O)C1(c2ccccc2)CCC=CC1N(C)C

>  <CID>
32329

>  <logBB>


>  <BBB+/BBB->
BBB+

>  <Inchi>
InChI=1S/C17H23NO2/c1-4-20-16(19)17(14-10-6-5-7-11-14)13-9-8-12-15(17)18(2)3/h5-8-10-12-15H-4-9-13H2-1-3H3

>  <threshold>
-1

>  <reference>
R1|R19|R14|R23|R27|R27|R30|

>  <group>
B

>  <Class>
1

>  <ABC>
14.95

>  <ABCGG>
13.61

>  <nAcid>
0

>  <nBase>
1

>  <nAromAtom>
6

>  <nAromBond>
6

>  <nAtom>
43

>  <nHeavyAtom>
20

>  <nSpiro>
0

>  <nBridgehead>
0

>  <nHetero>
3

>  <nN>
1

>  <nO>
2

>  <nF>
0

>  <BalabanJ>
2.29

>  <BertzCT>
481.02

>  <nBonds>
44

>  <nBondsO>
21

>  <nBondsS>
36

>  <nBondsD>
2

>  <nBondsT>
0

>  <nBondsA>
6

>  <nBondsM>
8

>  <nBondsKS>
39

>  <nBondsKD>
5

>  <RNCG>
0.29

>  <RPCG>
0.2

>  <FCSP3>
0.47

>  <SZ>
24.67

>  <Sm>
22.76

>  <Sv>
25.42

>  <Sse>
42.53

>  <Sp>
27.8

>  <Si>
48.49

>  <MZ>
0.57

>  <Mm>
0.53

>  <Mv>
0.59

>  <Mse>
0.99

>  <Mp>
0.65

>  <Mi>
1.13

>  <NsCH3>
3

>  <NdCH2>
0

>  <NssCH2>
3

>  <NtCH>
0

>  <NdsCH>
2

>  <NaaCH>
5

>  <NsssCH>
1

>  <NddC>
0

>  <NtsC>
0

>  <NdssC>
1

>  <NaasC>
1

>  <NaaaC>
0

>  <NssssC>
1

>  <NsNH3>
0

>  <NsNH2>
0

>  <NssNH2>
0

>  <NdNH>
0

>  <NssNH>
0

>  <NaaNH>
0

>  <NtN>
0

>  <NsssNH>
0

>  <NdsN>
0

>  <NaaN>
0

>  <NsssN>
1

>  <NddsN>
0

>  <NaasN>
0

>  <NssssN>
0

>  <NsOH>
0

>  <NdO>
1

>  <NssO>
1

>  <NaaO>
0

>  <NsF>
0

>  <NsSiH3>
0

>  <NssSiH2>
0

>  <NsssSiH>
0

>  <NssssSi>
0

>  <NsPH2>
0

>  <NssPH>
0

>  <NsssP>
0

>  <NdsssP>
0

>  <NsssssP>
0

>  <NsSH>
0

>  <NdS>
0

>  <NssS>
0

>  <NaaS>
0

>  <NdssS>
0

>  <NddssS>
0

>  <NsCl>
0

>  <NsBr>
0

>  <NsI>
0

>  <fragCpx>
61.03

>  <fMF>
0.28

>  <nHBAcc>
3

>  <nHBDon>
0

>  <Kier1>
16.37

>  <Kier2>
7.32

>  <Lipinski>
1

>  <GhoseFilter>
1

>  <FilterItLogS>
-3.19

>  <VMcGowan>
228.89

>  <LabuteASA>
120.79

>  <PEOE_VSA1>
9.64

>  <PEOE_VSA2>
4.79

>  <PEOE_VSA3>
0

>  <PEOE_VSA4>
0

>  <PEOE_VSA5>
0

>  <PEOE_VSA6>
42.48

>  <PEOE_VSA7>
39.42

>  <PEOE_VSA8>
6.04

>  <PEOE_VSA9>
6.61

>  <PEOE_VSA10>
5.41

>  <PEOE_VSA11>
0

>  <PEOE_VSA12>
0

>  <PEOE_VSA13>
0

>  <SMR_VSA1>
9.53

>  <SMR_VSA2>
0

>  <SMR_VSA3>
4.9

>  <SMR_VSA4>
0

>  <SMR_VSA5>
31.22

>  <SMR_VSA6>
20.7

>  <SMR_VSA7>
48.05

>  <SMR_VSA8>
0

>  <SMR_VSA9>
0

>  <SlogP_VSA1>
0

>  <SlogP_VSA2>
37.61

>  <SlogP_VSA3>
14.95

>  <SlogP_VSA4>
0

>  <SlogP_VSA5>
25.33

>  <SlogP_VSA6>
42.48

>  <SlogP_VSA7>
0

>  <SlogP_VSA8>
0

>  <SlogP_VSA9>
0

>  <SlogP_VSA10>
0

>  <SlogP_VSA11>
0

>  <EState_VSA1>
5.41

>  <EState_VSA2>
12.01

>  <EState_VSA3>
6.61

>  <EState_VSA4>
18.41

>  <EState_VSA5>
0

>  <EState_VSA6>
0

>  <EState_VSA7>
51.35

>  <EState_VSA8>
17.05

>  <EState_VSA9>
4.74

>  <EState_VSA10>
4.79

>  <VSA_EState1>
5.42

>  <VSA_EState2>
14.85

>  <VSA_EState3>
0

>  <VSA_EState4>
0.44

>  <VSA_EState5>
-0.12

>  <VSA_EState6>
10.05

>  <VSA_EState7>
5.98

>  <VSA_EState8>
2.28

>  <VSA_EState9>
4.02

>  <apol>
46.43

>  <bpol>
27.39

>  <nRing>
2

>  <nHRing>
0

>  <naRing>
1

>  <naHRing>
0

>  <nARing 2>
1

>  <nAHRing 2>
0

>  <nFRing>
0

>  <nFHRing>
0

>  <nFaRing>
0

>  <nFaHRing>
0

>  <nFARing 2>
0

>  <nFAHRing 2>
0

>  <nRot>
4

>  <SLogP>
2.77

>  <SMR>
80.6

>  <TopoPSA(NO)>
29.54

>  <TopoPSA>
29.54

>  <JGI1>
0.19

>  <JGI2>
0.11

>  <JGI3>
0.07

>  <JGI4>
0.03

>  <JGI5>
0.02

>  <Diameter>
8

>  <Radius>
4

>  <TMWC10>
115.11

>  <TSRW10>
53.85

>  <MW>
273.17

>  <AMW>
6.35

>  <WPath>
712

>  <WPol>
35

>  <Zagreb1>
100

>  <Zagreb2>
120

>  <mZagreb2>
4.65

>  <yes>


>  <nAR-cont>
0.816016

>  <nHA-cont>
0.999629945

>  <MWHBN>
0.181511754

>  <MWHBN-cont>
0.988742847

>  <TPSA-cont>
0.793792457

>  <pka_cont>
0.97

>  <yes.1>


>  <BBB_SCORE>
5.371345128

>  <MMFF94 Energy>
63.246

$$$$
Compound 1237
Actelion Java MolfileCreator 2.0

  0  0  0  0  0  0              0 V3000
M  V30 BEGIN CTAB
M  V30 COUNTS 57 59 0 0 0
M  V30 BEGIN ATOM
M  V30 1 O -1.6606 -2.6105 -2.2938 0
M  V30 2 C -0.5006 -2.2356 -2.4255 0
M  V30 3 O 0.1543 -2.1907 -3.6225 0
M  V30 4 C 0.4228 -1.7995 -1.2643 0
M  V30 5 C -0.6191 -2.6418 -4.74 0
M  V30 6 C 1.3944 -2.9635 -0.9613 0
M  V30 7 C -0.431 -1.5061 -0.002 0
M  V30 8 C 1.1286 -0.4719 -1.6437 0
M  V30 9 C 0.2436 -2.5392 -5.9824 0
M  V30 10 C 0.88 -4.2199 -0.5793 0
M  V30 11 C 2.79 -2.8411 -1.068 0
M  V30 12 C -1.3435 -0.284 -0.1588 0
M  V30 13 C 0.1468 0.6907 -1.794 0
M  V30 14 C 1.7235 -5.2992 -0.3056 0
M  V30 15 C 3.6337 -3.9225 -0.7932 0
M  V30 16 N -0.5861 0.9148 -0.5418 0
M  V30 17 C 3.1016 -5.1496 -0.4109 0
M  V30 18 C -1.4555 2.0981 -0.6713 0
M  V30 19 C -2.0706 2.5902 0.6452 0
M  V30 20 C -1.016 2.9066 1.7063 0
M  V30 21 N -1.6536 3.4976 2.8722 0
M  V30 22 C -0.9645 3.9201 3.9939 0
M  V30 23 C 0.4264 3.8383 4.1223 0
M  V30 24 C -1.6812 4.484 5.0589 0
M  V30 25 C 1.0787 4.2924 5.2744 0
M  V30 26 C -1.0367 4.9405 6.2133 0
M  V30 27 C 0.3463 4.8435 6.3212 0
M  V30 28 H -1.5077 -2.0106 -4.8532 0
M  V30 29 H -0.9217 -3.6834 -4.5843 0
M  V30 30 H 0.2338 -1.3402 0.8579 0
M  V30 31 H -1.0616 -2.3638 0.264 0
M  V30 32 H 1.8562 -0.1994 -0.866 0
M  V30 33 H 1.6987 -0.5713 -2.5758 0
M  V30 34 H -0.3049 -2.8736 -6.8673 0
M  V30 35 H 0.5723 -1.5064 -6.1389 0
M  V30 36 H 1.1475 -3.148 -5.8751 0
M  V30 37 H -0.1945 -4.3778 -0.4955 0
M  V30 38 H 3.2588 -1.9081 -1.3681 0
M  V30 39 H -2.1392 -0.4894 -0.8851 0
M  V30 40 H -1.8323 -0.1283 0.8092 0
M  V30 41 H -0.5403 0.513 -2.631 0
M  V30 42 H 0.7302 1.5858 -2.0437 0
M  V30 43 H 1.3007 -6.2565 -0.0118 0
M  V30 44 H 4.7109 -3.8029 -0.8799 0
M  V30 45 H 3.7596 -5.9877 -0.1981 0
M  V30 46 H -2.2601 1.9066 -1.3934 0
M  V30 47 H -0.8662 2.9309 -1.0779 0
M  V30 48 H -2.652 3.4971 0.4316 0
M  V30 49 H -2.7907 1.8617 1.0361 0
M  V30 50 H -0.4923 1.9895 1.9986 0
M  V30 51 H -0.2833 3.6078 1.2895 0
M  V30 52 H -2.665 3.5365 2.8973 0
M  V30 53 H 1.032 3.4144 3.3269 0
M  V30 54 H -2.7627 4.5743 4.9974 0
M  V30 55 H 2.1599 4.2135 5.3488 0
M  V30 56 H -1.6183 5.3713 7.0237 0
M  V30 57 H 0.8515 5.1964 7.2158 0
M  V30 END ATOM
M  V30 BEGIN BOND
M  V30 1 2 1 2
M  V30 2 1 2 3
M  V30 3 1 2 4
M  V30 4 1 3 5
M  V30 5 1 4 6
M  V30 6 1 4 7
M  V30 7 1 4 8
M  V30 8 1 5 9
M  V30 9 2 6 10
M  V30 10 1 6 11
M  V30 11 1 7 12
M  V30 12 1 8 13
M  V30 13 1 10 14
M  V30 14 2 11 15
M  V30 15 1 12 16
M  V30 16 2 14 17
M  V30 17 1 16 18
M  V30 18 1 18 19
M  V30 19 1 19 20
M  V30 20 1 20 21
M  V30 21 1 21 22
M  V30 22 2 22 23
M  V30 23 1 22 24
M  V30 24 1 23 25
M  V30 25 2 24 26
M  V30 26 2 25 27
M  V30 27 1 13 16
M  V30 28 1 15 17
M  V30 29 1 26 27
M  V30 30 1 5 28
M  V30 31 1 5 29
M  V30 32 1 7 30
M  V30 33 1 7 31
M  V30 34 1 8 32
M  V30 35 1 8 33
M  V30 36 1 9 34
M  V30 37 1 9 35
M  V30 38 1 9 36
M  V30 39 1 10 37
M  V30 40 1 11 38
M  V30 41 1 12 39
M  V30 42 1 12 40
M  V30 43 1 13 41
M  V30 44 1 13 42
M  V30 45 1 14 43
M  V30 46 1 15 44
M  V30 47 1 17 45
M  V30 48 1 18 46
M  V30 49 1 18 47
M  V30 50 1 19 48
M  V30 51 1 19 49
M  V30 52 1 20 50
M  V30 53 1 20 51
M  V30 54 1 21 52
M  V30 55 1 23 53
M  V30 56 1 24 54
M  V30 57 1 25 55
M  V30 58 1 26 56
M  V30 59 1 27 57
M  V30 END BOND
M  V30 END CTAB
M  END
>  <Column 1>
1469

>  <level_0>
1619

>  <index>
1619

>  <Unnamed: 0>
1619

>  <NO.>
1631

>  <Name>
piminodine

>  <IUPAC_name>
ethyl 1-(3-anilinopropyl)-4-phenylpiperidine-4-carboxylate

>  <SMILES>
CCOC(=O)C1(c2ccccc2)CCN(CCCNc2ccccc2)CC1

>  <CID>
21950

>  <logBB>


>  <BBB+/BBB->
BBB+

>  <Inchi>
InChI=1S/C23H30N2O2/c1-2-27-22(26)23(20-10-5-3-6-11-20)14-18-25(19-15-23)17-9-16-24-21-12-7-4-8-13-21/h3-8-10-13-24H-2-9-14-19H2-1H3

>  <threshold>
-1

>  <reference>
R1|R13|R19|R6|R24|R27|R27|R27|R30|R30|

>  <group>
B

>  <Class>
1

>  <ABC>
20.49

>  <ABCGG>
15.52

>  <nAcid>
0

>  <nBase>
1

>  <nAromAtom>
12

>  <nAromBond>
12

>  <nAtom>
57

>  <nHeavyAtom>
27

>  <nSpiro>
0

>  <nBridgehead>
0

>  <nHetero>
4

>  <nN>
2

>  <nO>
2

>  <nF>
0

>  <BalabanJ>
1.42

>  <BertzCT>
694.83

>  <nBonds>
59

>  <nBondsO>
29

>  <nBondsS>
46

>  <nBondsD>
1

>  <nBondsT>
0

>  <nBondsA>
12

>  <nBondsM>
13

>  <nBondsKS>
52

>  <nBondsKD>
7

>  <RNCG>
0.22

>  <RPCG>
0.15

>  <FCSP3>
0.43

>  <SZ>
33

>  <Sm>
30.51

>  <Sv>
34.07

>  <Sse>
56.31

>  <Sp>
37.26

>  <Si>
64.23

>  <MZ>
0.58

>  <Mm>
0.54

>  <Mv>
0.6

>  <Mse>
0.99

>  <Mp>
0.65

>  <Mi>
1.13

>  <NsCH3>
1

>  <NdCH2>
0

>  <NssCH2>
8

>  <NtCH>
0

>  <NdsCH>
0

>  <NaaCH>
10

>  <NsssCH>
0

>  <NddC>
0

>  <NtsC>
0

>  <NdssC>
1

>  <NaasC>
2

>  <NaaaC>
0

>  <NssssC>
1

>  <NsNH3>
0

>  <NsNH2>
0

>  <NssNH2>
0

>  <NdNH>
0

>  <NssNH>
1

>  <NaaNH>
0

>  <NtN>
0

>  <NsssNH>
0

>  <NdsN>
0

>  <NaaN>
0

>  <NsssN>
1

>  <NddsN>
0

>  <NaasN>
0

>  <NssssN>
0

>  <NsOH>
0

>  <NdO>
1

>  <NssO>
1

>  <NaaO>
0

>  <NsF>
0

>  <NsSiH3>
0

>  <NssSiH2>
0

>  <NsssSiH>
0

>  <NssssSi>
0

>  <NsPH2>
0

>  <NssPH>
0

>  <NsssP>
0

>  <NdsssP>
0

>  <NsssssP>
0

>  <NsSH>
0

>  <NdS>
0

>  <NssS>
0

>  <NaaS>
0

>  <NdssS>
0

>  <NddssS>
0

>  <NsCl>
0

>  <NsBr>
0

>  <NsI>
0

>  <fragCpx>
139.04

>  <fMF>
0.39

>  <nHBAcc>
4

>  <nHBDon>
1

>  <Kier1>
21.7

>  <Kier2>
11.25

>  <Lipinski>
1

>  <GhoseFilter>
1

>  <FilterItLogS>
-5.81

>  <VMcGowan>
303.95

>  <LabuteASA>
162.08

>  <PEOE_VSA1>
14.95

>  <PEOE_VSA2>
4.79

>  <PEOE_VSA3>
0

>  <PEOE_VSA4>
0

>  <PEOE_VSA5>
0

>  <PEOE_VSA6>
48.53

>  <PEOE_VSA7>
63.52

>  <PEOE_VSA8>
12.23

>  <PEOE_VSA9>
12.02

>  <PEOE_VSA10>
0

>  <PEOE_VSA11>
0

>  <PEOE_VSA12>
0

>  <PEOE_VSA13>
0

>  <SMR_VSA1>
9.53

>  <SMR_VSA2>
0

>  <SMR_VSA3>
4.9

>  <SMR_VSA4>
0

>  <SMR_VSA5>
31.6

>  <SMR_VSA6>
38.1

>  <SMR_VSA7>
66.23

>  <SMR_VSA8>
0

>  <SMR_VSA9>
0

>  <SlogP_VSA1>
5.32

>  <SlogP_VSA2>
43.66

>  <SlogP_VSA3>
14.95

>  <SlogP_VSA4>
0

>  <SlogP_VSA5>
31.75

>  <SlogP_VSA6>
60.66

>  <SlogP_VSA7>
0

>  <SlogP_VSA8>
0

>  <SlogP_VSA9>
0

>  <SlogP_VSA10>
5.69

>  <SlogP_VSA11>
0

>  <EState_VSA1>
5.41

>  <EState_VSA2>
5.97

>  <EState_VSA3>
6.61

>  <EState_VSA4>
51

>  <EState_VSA5>
5.69

>  <EState_VSA6>
0

>  <EState_VSA7>
43.32

>  <EState_VSA8>
34.48

>  <EState_VSA9>
4.74

>  <EState_VSA10>
4.79

>  <VSA_EState1>
5.45

>  <VSA_EState2>
15.26

>  <VSA_EState3>
3.46

>  <VSA_EState4>
1.77

>  <VSA_EState5>
-0.07

>  <VSA_EState6>
20.46

>  <VSA_EState7>
2.73

>  <VSA_EState8>
6.18

>  <VSA_EState9>
0

>  <apol>
62.22

>  <bpol>
34.98

>  <nRing>
3

>  <nHRing>
1

>  <naRing>
2

>  <naHRing>
0

>  <nARing 2>
1

>  <nAHRing 2>
1

>  <nFRing>
0

>  <nFHRing>
0

>  <nFaRing>
0

>  <nFaHRing>
0

>  <nFARing 2>
0

>  <nFAHRing 2>
0

>  <nRot>
8

>  <SLogP>
4.09

>  <SMR>
109.98

>  <TopoPSA(NO)>
41.57

>  <TopoPSA>
41.57

>  <JGI1>
0.16

>  <JGI2>
0.08

>  <JGI3>
0.04

>  <JGI4>
0.02

>  <JGI5>
0.02

>  <Diameter>
15

>  <Radius>
8

>  <TMWC10>
131.15

>  <TSRW10>
61.88

>  <MW>
366.23

>  <AMW>
6.43

>  <WPath>
2138

>  <WPol>
41

>  <Zagreb1>
134

>  <Zagreb2>
155

>  <mZagreb2>
6.25

>  <yes>


>  <nAR-cont>
0.816016

>  <nHA-cont>
0.860070871

>  <MWHBN>
0.261272106

>  <MWHBN-cont>
0.938865754

>  <TPSA-cont>
0.709815587

>  <pka_cont>
0.97

>  <yes.1>


>  <BBB_SCORE>
4.989016675

>  <MMFF94 Energy>
39.143

$$$$
Compound 1238
Actelion Java MolfileCreator 2.0

  0  0  0  0  0  0              0 V3000
M  V30 BEGIN CTAB
M  V30 COUNTS 54 56 0 0 0
M  V30 BEGIN ATOM
M  V30 1 O -0.1582 -1.108 -3.5649 0
M  V30 2 C 0.4922 -0.3519 -2.8511 0
M  V30 3 O 0.9806 0.8539 -3.2658 0
M  V30 4 C 0.9001 -0.664 -1.3911 0
M  V30 5 C 0.7148 1.2048 -4.6316 0
M  V30 6 C 2.2792 -1.3672 -1.4229 0
M  V30 7 C -0.221 -1.5449 -0.7734 0
M  V30 8 C 0.9759 0.6209 -0.5229 0
M  V30 9 C 1.7836 0.6207 -5.536 0
M  V30 10 C 2.44 -2.7346 -1.1389 0
M  V30 11 C 3.4346 -0.6438 -1.783 0
M  V30 12 C -1.5436 -0.7938 -0.6039 0
M  V30 13 C -0.3818 1.3081 -0.3499 0
M  V30 14 C 3.698 -3.3446 -1.1916 0
M  V30 15 C 4.6912 -1.2535 -1.8361 0
M  V30 16 N -1.3661 0.3953 0.2365 0
M  V30 17 C 4.8232 -2.6043 -1.5374 0
M  V30 18 C -2.6691 1.0548 0.4676 0
M  V30 19 C -2.689 2.0729 1.6252 0
M  V30 20 C -2.5894 1.4412 2.9939 0
M  V30 21 C -3.7371 1.2258 3.7657 0
M  V30 22 C -1.3498 1.0549 3.5145 0
M  V30 23 C -3.6417 0.6378 5.0316 0
M  V30 24 C -1.2617 0.4662 4.7801 0
M  V30 25 C -2.4069 0.2376 5.5437 0
M  V30 26 N -2.3122 -0.3083 6.8114 0
M  V30 27 H 0.7399 2.2979 -4.6908 0
M  V30 28 H -0.2893 0.8897 -4.9375 0
M  V30 29 H 0.0936 -1.9108 0.2143 0
M  V30 30 H -0.4116 -2.4335 -1.3891 0
M  V30 31 H 1.3714 0.3654 0.471 0
M  V30 32 H 1.6726 1.3585 -0.9385 0
M  V30 33 H 1.6265 0.931 -6.5729 0
M  V30 34 H 2.7784 0.9476 -5.2157 0
M  V30 35 H 1.7797 -0.473 -5.4939 0
M  V30 36 H 1.5949 -3.3643 -0.8737 0
M  V30 37 H 3.3746 0.4119 -2.0391 0
M  V30 38 H -1.9674 -0.5267 -1.58 0
M  V30 39 H -2.2531 -1.4808 -0.1256 0
M  V30 40 H -0.7353 1.7021 -1.311 0
M  V30 41 H -0.2222 2.1703 0.3061 0
M  V30 42 H 3.7943 -4.4035 -0.9647 0
M  V30 43 H 5.5651 -0.6707 -2.1154 0
M  V30 44 H 5.7986 -3.0808 -1.5792 0
M  V30 45 H -3.4286 0.2931 0.6907 0
M  V30 46 H -2.9964 1.5568 -0.4526 0
M  V30 47 H -1.9051 2.8307 1.515 0
M  V30 48 H -3.6314 2.6341 1.5669 0
M  V30 49 H -4.7158 1.5166 3.3924 0
M  V30 50 H -0.4423 1.2033 2.9341 0
M  V30 51 H -4.5471 0.4927 5.6143 0
M  V30 52 H -0.2844 0.1826 5.16 0
M  V30 53 H -3.149 -0.5465 7.3248 0
M  V30 54 H -1.4279 -0.6693 7.1406 0
M  V30 END ATOM
M  V30 BEGIN BOND
M  V30 1 2 1 2
M  V30 2 1 2 3
M  V30 3 1 2 4
M  V30 4 1 3 5
M  V30 5 1 4 6
M  V30 6 1 4 7
M  V30 7 1 4 8
M  V30 8 1 5 9
M  V30 9 2 6 10
M  V30 10 1 6 11
M  V30 11 1 7 12
M  V30 12 1 8 13
M  V30 13 1 10 14
M  V30 14 2 11 15
M  V30 15 1 12 16
M  V30 16 2 14 17
M  V30 17 1 16 18
M  V30 18 1 18 19
M  V30 19 1 19 20
M  V30 20 2 20 21
M  V30 21 1 20 22
M  V30 22 1 21 23
M  V30 23 2 22 24
M  V30 24 2 23 25
M  V30 25 1 25 26
M  V30 26 1 13 16
M  V30 27 1 15 17
M  V30 28 1 24 25
M  V30 29 1 5 27
M  V30 30 1 5 28
M  V30 31 1 7 29
M  V30 32 1 7 30
M  V30 33 1 8 31
M  V30 34 1 8 32
M  V30 35 1 9 33
M  V30 36 1 9 34
M  V30 37 1 9 35
M  V30 38 1 10 36
M  V30 39 1 11 37
M  V30 40 1 12 38
M  V30 41 1 12 39
M  V30 42 1 13 40
M  V30 43 1 13 41
M  V30 44 1 14 42
M  V30 45 1 15 43
M  V30 46 1 17 44
M  V30 47 1 18 45
M  V30 48 1 18 46
M  V30 49 1 19 47
M  V30 50 1 19 48
M  V30 51 1 21 49
M  V30 52 1 22 50
M  V30 53 1 23 51
M  V30 54 1 24 52
M  V30 55 1 26 53
M  V30 56 1 26 54
M  V30 END BOND
M  V30 END CTAB
M  END
>  <Column 1>
1470

>  <level_0>
1620

>  <index>
1620

>  <Unnamed: 0>
1620

>  <NO.>
1632

>  <Name>
anileridine

>  <IUPAC_name>
ethyl 1-[2-(4-aminophenyl)ethyl]-4-phenylpiperidine-4-carboxylate

>  <SMILES>
CCOC(=O)C1(c2ccccc2)CCN(CCc2ccc(N)cc2)CC1

>  <CID>
8944

>  <logBB>


>  <BBB+/BBB->
BBB+

>  <Inchi>
InChI=1S/C22H28N2O2/c1-2-26-21(25)22(19-6-4-3-5-7-19)13-16-24(17-14-22)15-12-18-8-10-20(23)11-9-18/h3-11H-2-12-17-23H2-1H3

>  <threshold>
-1

>  <reference>
R1|R13|R19|R6|R14|R23|R24|R27|R27|R27|R30|R30|

>  <group>
B

>  <Class>
-1

>  <ABC>
19.89

>  <ABCGG>
15.33

>  <nAcid>
0

>  <nBase>
1

>  <nAromAtom>
12

>  <nAromBond>
12

>  <nAtom>
54

>  <nHeavyAtom>
26

>  <nSpiro>
0

>  <nBridgehead>
0

>  <nHetero>
4

>  <nN>
2

>  <nO>
2

>  <nF>
0

>  <BalabanJ>
1.51

>  <BertzCT>
704.68

>  <nBonds>
56

>  <nBondsO>
28

>  <nBondsS>
43

>  <nBondsD>
1

>  <nBondsT>
0

>  <nBondsA>
12

>  <nBondsM>
13

>  <nBondsKS>
49

>  <nBondsKD>
7

>  <RNCG>
0.22

>  <RPCG>
0.15

>  <FCSP3>
0.41

>  <SZ>
31.67

>  <Sm>
29.35

>  <Sv>
32.53

>  <Sse>
53.42

>  <Sp>
35.46

>  <Si>
60.81

>  <MZ>
0.59

>  <Mm>
0.54

>  <Mv>
0.6

>  <Mse>
0.99

>  <Mp>
0.66

>  <Mi>
1.13

>  <NsCH3>
1

>  <NdCH2>
0

>  <NssCH2>
7

>  <NtCH>
0

>  <NdsCH>
0

>  <NaaCH>
9

>  <NsssCH>
0

>  <NddC>
0

>  <NtsC>
0

>  <NdssC>
1

>  <NaasC>
3

>  <NaaaC>
0

>  <NssssC>
1

>  <NsNH3>
0

>  <NsNH2>
1

>  <NssNH2>
0

>  <NdNH>
0

>  <NssNH>
0

>  <NaaNH>
0

>  <NtN>
0

>  <NsssNH>
0

>  <NdsN>
0

>  <NaaN>
0

>  <NsssN>
1

>  <NddsN>
0

>  <NaasN>
0

>  <NssssN>
0

>  <NsOH>
0

>  <NdO>
1

>  <NssO>
1

>  <NaaO>
0

>  <NsF>
0

>  <NsSiH3>
0

>  <NssSiH2>
0

>  <NsssSiH>
0

>  <NssssSi>
0

>  <NsPH2>
0

>  <NssPH>
0

>  <NsssP>
0

>  <NdsssP>
0

>  <NsssssP>
0

>  <NsSH>
0

>  <NdS>
0

>  <NssS>
0

>  <NaaS>
0

>  <NdssS>
0

>  <NddssS>
0

>  <NsCl>
0

>  <NsBr>
0

>  <NsI>
0

>  <fragCpx>
134.04

>  <fMF>
0.37

>  <nHBAcc>
4

>  <nHBDon>
1

>  <Kier1>
20.73

>  <Kier2>
9.97

>  <Lipinski>
1

>  <GhoseFilter>
1

>  <FilterItLogS>
-5.16

>  <VMcGowan>
289.86

>  <LabuteASA>
155.51

>  <PEOE_VSA1>
15.37

>  <PEOE_VSA2>
4.79

>  <PEOE_VSA3>
0

>  <PEOE_VSA4>
0

>  <PEOE_VSA5>
0

>  <PEOE_VSA6>
42.46

>  <PEOE_VSA7>
62.54

>  <PEOE_VSA8>
12.23

>  <PEOE_VSA9>
12.02

>  <PEOE_VSA10>
0

>  <PEOE_VSA11>
0

>  <PEOE_VSA12>
0

>  <PEOE_VSA13>
0

>  <SMR_VSA1>
9.53

>  <SMR_VSA2>
0

>  <SMR_VSA3>
4.9

>  <SMR_VSA4>
0

>  <SMR_VSA5>
31.6

>  <SMR_VSA6>
31.97

>  <SMR_VSA7>
65.72

>  <SMR_VSA8>
0

>  <SMR_VSA9>
0

>  <SlogP_VSA1>
5.73

>  <SlogP_VSA2>
37.11

>  <SlogP_VSA3>
21.37

>  <SlogP_VSA4>
0

>  <SlogP_VSA5>
30.89

>  <SlogP_VSA6>
54.6

>  <SlogP_VSA7>
0

>  <SlogP_VSA8>
0

>  <SlogP_VSA9>
0

>  <SlogP_VSA10>
5.69

>  <SlogP_VSA11>
0

>  <EState_VSA1>
5.41

>  <EState_VSA2>
5.97

>  <EState_VSA3>
6.61

>  <EState_VSA4>
50.15

>  <EState_VSA5>
5.56

>  <EState_VSA6>
0

>  <EState_VSA7>
37.26

>  <EState_VSA8>
29.17

>  <EState_VSA9>
10.47

>  <EState_VSA10>
4.79

>  <VSA_EState1>
5.45

>  <VSA_EState2>
15.23

>  <VSA_EState3>
0

>  <VSA_EState4>
8.42

>  <VSA_EState5>
-0.08

>  <VSA_EState6>
18.19

>  <VSA_EState7>
2.6

>  <VSA_EState8>
5.11

>  <VSA_EState9>
0

>  <apol>
59.21

>  <bpol>
31.83

>  <nRing>
3

>  <nHRing>
1

>  <naRing>
2

>  <naHRing>
0

>  <nARing 2>
1

>  <nAHRing 2>
1

>  <nFRing>
0

>  <nFHRing>
0

>  <nFaRing>
0

>  <nFaHRing>
0

>  <nFARing 2>
0

>  <nFAHRing 2>
0

>  <nRot>
6

>  <SLogP>
3.41

>  <SMR>
104.99

>  <TopoPSA(NO)>
55.56

>  <TopoPSA>
55.56

>  <JGI1>
0.2

>  <JGI2>
0.09

>  <JGI3>
0.04

>  <JGI4>
0.03

>  <JGI5>
0.02

>  <Diameter>
14

>  <Radius>
7

>  <TMWC10>
129.31

>  <TSRW10>
60.9

>  <MW>
352.22

>  <AMW>
6.52

>  <WPath>
1822

>  <WPol>
41

>  <Zagreb1>
132

>  <Zagreb2>
154

>  <mZagreb2>
5.92

>  <yes>


>  <nAR-cont>
0.816016

>  <nHA-cont>
0.892715677

>  <MWHBN>
0.266417653

>  <MWHBN-cont>
0.928068571

>  <TPSA-cont>
0.612156699

>  <pka_cont>
0.97

>  <yes.1>


>  <BBB_SCORE>
4.810147933

>  <MMFF94 Energy>
53.924

$$$$
Compound 1239
Actelion Java MolfileCreator 2.0

  0  0  0  0  0  0              0 V3000
M  V30 BEGIN CTAB
M  V30 COUNTS 44 45 0 0 0
M  V30 BEGIN ATOM
M  V30 1 Cl 2.1826 2.3444 -0.2423 0
M  V30 2 C 1.222 1.5503 -1.4495 0
M  V30 3 C 1.4203 1.8613 -2.8078 0
M  V30 4 C 0.2476 0.5963 -1.0817 0
M  V30 5 Cl 2.5962 3.0166 -3.3396 0
M  V30 6 C 0.6599 1.2342 -3.7983 0
M  V30 7 C -0.5059 -0.0212 -2.1061 0
M  V30 8 C -0.0333 0.1972 0.3781 0 CFG=2
M  V30 9 C -0.3021 0.2939 -3.4479 0
M  V30 10 C 0.2694 -1.2845 0.602 0
M  V30 11 C -1.4613 0.5678 0.7741 0
M  V30 12 C -0.6824 -2.1515 1.0157 0
M  V30 13 C 1.6431 -1.74 0.3037 0
M  V30 14 C -2.3498 -0.3586 1.198 0
M  V30 15 C -1.7778 2.0073 0.6956 0
M  V30 16 N -1.9629 -1.6871 1.2753 0
M  V30 17 C -0.4546 -3.6212 1.2638 0
M  V30 18 O 1.9148 -2.6892 -0.414 0
M  V30 19 O 2.5266 -0.9441 0.9527 0
M  V30 20 C -3.7535 -0.0555 1.6555 0
M  V30 21 O -1.1168 2.8743 1.2435 0
M  V30 22 O -2.8434 2.2018 -0.1214 0
M  V30 23 C 3.8992 -1.2805 0.7208 0
M  V30 24 C -3.1733 3.577 -0.3161 0
M  V30 25 C 4.7632 -0.3501 1.5493 0
M  V30 26 H 0.8162 1.4745 -4.8473 0
M  V30 27 H -1.2648 -0.7643 -1.8583 0
M  V30 28 H 0.614 0.7478 1.0693 0
M  V30 29 H -0.8922 -0.1972 -4.2183 0
M  V30 30 H -2.6521 -2.3622 1.5982 0
M  V30 31 H -0.8542 -4.2085 0.431 0
M  V30 32 H 0.5991 -3.8782 1.3987 0
M  V30 33 H -0.9672 -3.9357 2.1803 0
M  V30 34 H -4.4723 -0.3567 0.8867 0
M  V30 35 H -3.9817 -0.6097 2.5731 0
M  V30 36 H -3.913 1.0015 1.8853 0
M  V30 37 H 4.1326 -1.1556 -0.3423 0
M  V30 38 H 4.0835 -2.3184 1.0201 0
M  V30 39 H -4.0386 3.6266 -0.9828 0
M  V30 40 H -3.4424 4.0457 0.6357 0
M  V30 41 H -2.3409 4.1076 -0.789 0
M  V30 42 H 5.8241 -0.5741 1.4077 0
M  V30 43 H 4.5833 0.6936 1.2732 0
M  V30 44 H 4.5206 -0.4441 2.6131 0
M  V30 END ATOM
M  V30 BEGIN BOND
M  V30 1 1 1 2
M  V30 2 2 2 3
M  V30 3 1 2 4
M  V30 4 1 3 5
M  V30 5 1 3 6
M  V30 6 2 4 7
M  V30 7 1 4 8
M  V30 8 2 6 9
M  V30 9 1 8 10
M  V30 10 1 8 11
M  V30 11 2 10 12
M  V30 12 1 10 13
M  V30 13 2 11 14
M  V30 14 1 11 15
M  V30 15 1 12 16
M  V30 16 1 12 17
M  V30 17 2 13 18
M  V30 18 1 13 19
M  V30 19 1 14 20
M  V30 20 2 15 21
M  V30 21 1 15 22
M  V30 22 1 19 23
M  V30 23 1 22 24
M  V30 24 1 23 25
M  V30 25 1 7 9
M  V30 26 1 14 16
M  V30 27 1 6 26
M  V30 28 1 7 27
M  V30 29 1 8 28
M  V30 30 1 9 29
M  V30 31 1 16 30
M  V30 32 1 17 31
M  V30 33 1 17 32
M  V30 34 1 17 33
M  V30 35 1 20 34
M  V30 36 1 20 35
M  V30 37 1 20 36
M  V30 38 1 23 37
M  V30 39 1 23 38
M  V30 40 1 24 39
M  V30 41 1 24 40
M  V30 42 1 24 41
M  V30 43 1 25 42
M  V30 44 1 25 43
M  V30 45 1 25 44
M  V30 END BOND
M  V30 BEGIN COLLECTION
M  V30 MDLV30/STERAC1 ATOMS=(1 8)
M  V30 END COLLECTION
M  V30 END CTAB
M  END
>  <Column 1>
1471

>  <level_0>
1621

>  <index>
1621

>  <Unnamed: 0>
1621

>  <NO.>
1633

>  <Name>
felodipine

>  <IUPAC_name>
5-o-ethyl 3-o-methyl 4-(2-3-dichlorophenyl)-2-6-dimethyl-1-4-dihydropyridine-3-5-dicarboxylate

>  <SMILES>
CCOC(=O)C1=C(C)NC(C)=C(C(=O)OC)C1c1cccc(Cl)c1Cl

>  <CID>
3333

>  <logBB>


>  <BBB+/BBB->
BBB-

>  <Inchi>
InChI=1S/C18H19Cl2NO4/c1-5-25-18(23)14-10(3)21-9(2)13(17(22)24-4)15(14)11-7-6-8-12(19)16(11)20/h6-8-15-21H-5H2-1-4H3

>  <threshold>
-1

>  <reference>
R1|R7|R19|R6|R14|R27|R27|R29|R30|

>  <group>
B

>  <Class>
1

>  <ABC>
18.68

>  <ABCGG>
17.02

>  <nAcid>
0

>  <nBase>
0

>  <nAromAtom>
6

>  <nAromBond>
6

>  <nAtom>
44

>  <nHeavyAtom>
25

>  <nSpiro>
0

>  <nBridgehead>
0

>  <nHetero>
7

>  <nN>
1

>  <nO>
4

>  <nF>
0

>  <BalabanJ>
2.4

>  <BertzCT>
783.28

>  <nBonds>
45

>  <nBondsO>
26

>  <nBondsS>
35

>  <nBondsD>
4

>  <nBondsT>
0

>  <nBondsA>
6

>  <nBondsM>
10

>  <nBondsKS>
38

>  <nBondsKD>
7

>  <RNCG>
0.21

>  <RPCG>
0.15

>  <FCSP3>
0.33

>  <SZ>
33.33

>  <Sm>
31.99

>  <Sv>
28.95

>  <Sse>
44.95

>  <Sp>
30.78

>  <Si>
49.38

>  <MZ>
0.76

>  <Mm>
0.73

>  <Mv>
0.66

>  <Mse>
1.02

>  <Mp>
0.7

>  <Mi>
1.12

>  <NsCH3>
4

>  <NdCH2>
0

>  <NssCH2>
1

>  <NtCH>
0

>  <NdsCH>
0

>  <NaaCH>
3

>  <NsssCH>
1

>  <NddC>
0

>  <NtsC>
0

>  <NdssC>
6

>  <NaasC>
3

>  <NaaaC>
0

>  <NssssC>
0

>  <NsNH3>
0

>  <NsNH2>
0

>  <NssNH2>
0

>  <NdNH>
0

>  <NssNH>
1

>  <NaaNH>
0

>  <NtN>
0

>  <NsssNH>
0

>  <NdsN>
0

>  <NaaN>
0

>  <NsssN>
0

>  <NddsN>
0

>  <NaasN>
0

>  <NssssN>
0

>  <NsOH>
0

>  <NdO>
2

>  <NssO>
2

>  <NaaO>
0

>  <NsF>
0

>  <NsSiH3>
0

>  <NssSiH2>
0

>  <NsssSiH>
0

>  <NssssSi>
0

>  <NsPH2>
0

>  <NssPH>
0

>  <NsssP>
0

>  <NdsssP>
0

>  <NsssssP>
0

>  <NsSH>
0

>  <NdS>
0

>  <NssS>
0

>  <NaaS>
0

>  <NdssS>
0

>  <NddssS>
0

>  <NsCl>
2

>  <NsBr>
0

>  <NsI>
0

>  <fragCpx>
76.07

>  <fMF>
0.27

>  <nHBAcc>
5

>  <nHBDon>
1

>  <Kier1>
21.3

>  <Kier2>
9.27

>  <Lipinski>
1

>  <GhoseFilter>
1

>  <FilterItLogS>
-5.59

>  <VMcGowan>
270.6

>  <LabuteASA>
156.13

>  <PEOE_VSA1>
14.79

>  <PEOE_VSA2>
0

>  <PEOE_VSA3>
9.59

>  <PEOE_VSA4>
0

>  <PEOE_VSA5>
0

>  <PEOE_VSA6>
35.33

>  <PEOE_VSA7>
32.4

>  <PEOE_VSA8>
11.39

>  <PEOE_VSA9>
40.83

>  <PEOE_VSA10>
0

>  <PEOE_VSA11>
0

>  <PEOE_VSA12>
0

>  <PEOE_VSA13>
0

>  <SMR_VSA1>
19.06

>  <SMR_VSA2>
0

>  <SMR_VSA3>
5.32

>  <SMR_VSA4>
0

>  <SMR_VSA5>
26.69

>  <SMR_VSA6>
13.72

>  <SMR_VSA7>
56.35

>  <SMR_VSA8>
0

>  <SMR_VSA9>
0

>  <SlogP_VSA1>
5.32

>  <SlogP_VSA2>
25.66

>  <SlogP_VSA3>
19.06

>  <SlogP_VSA4>
0

>  <SlogP_VSA5>
32.25

>  <SlogP_VSA6>
40.74

>  <SlogP_VSA7>
10.05

>  <SlogP_VSA8>
0

>  <SlogP_VSA9>
0

>  <SlogP_VSA10>
0

>  <SlogP_VSA11>
0

>  <EState_VSA1>
17.86

>  <EState_VSA2>
11.63

>  <EState_VSA3>
33.13

>  <EState_VSA4>
0

>  <EState_VSA5>
7.11

>  <EState_VSA6>
38.97

>  <EState_VSA7>
0

>  <EState_VSA8>
5.32

>  <EState_VSA9>
32.68

>  <EState_VSA10>
9.59

>  <VSA_EState1>
10.1

>  <VSA_EState2>
25

>  <VSA_EState3>
3.66

>  <VSA_EState4>
2.3

>  <VSA_EState5>
-1.82

>  <VSA_EState6>
5.09

>  <VSA_EState7>
0

>  <VSA_EState8>
5.41

>  <VSA_EState9>
1.29

>  <apol>
51.4

>  <bpol>
25.86

>  <nRing>
2

>  <nHRing>
1

>  <naRing>
1

>  <naHRing>
0

>  <nARing 2>
1

>  <nAHRing 2>
1

>  <nFRing>
0

>  <nFHRing>
0

>  <nFaRing>
0

>  <nFaHRing>
0

>  <nFARing 2>
0

>  <nFAHRing 2>
0

>  <nRot>
4

>  <SLogP>
3.96

>  <SMR>
96.39

>  <TopoPSA(NO)>
64.63

>  <TopoPSA>
64.63

>  <JGI1>
0.19

>  <JGI2>
0.1

>  <JGI3>
0.06

>  <JGI4>
0.05

>  <JGI5>
0.04

>  <Diameter>
9

>  <Radius>
5

>  <TMWC10>
127.09

>  <TSRW10>
59.88

>  <MW>
383.07

>  <AMW>
8.71

>  <WPath>
1300

>  <WPol>
45

>  <Zagreb1>
126

>  <Zagreb2>
151

>  <mZagreb2>
5.75

>  <yes>


>  <nAR-cont>
0.816016

>  <nHA-cont>
0.921834225

>  <MWHBN>
0.306557665

>  <MWHBN-cont>
0.820713999

>  <TPSA-cont>
0.548842467

>  <pka_cont>
0.97

>  <yes.1>


>  <BBB_SCORE>
4.551606157

>  <MMFF94 Energy>
15.283

$$$$
Compound 1240
Actelion Java MolfileCreator 2.0

  0  0  0  0  0  0              0 V3000
M  V30 BEGIN CTAB
M  V30 COUNTS 39 41 0 0 0
M  V30 BEGIN ATOM
M  V30 1 Cl -5.1345 -1.9536 0.244 0
M  V30 2 C -3.4851 -1.7654 0.6927 0
M  V30 3 C -2.7664 -0.6615 0.2389 0
M  V30 4 C -2.8809 -2.712 1.5137 0
M  V30 5 C -1.4198 -0.4986 0.6045 0
M  V30 6 C -1.5404 -2.5616 1.8731 0
M  V30 7 C -0.7104 0.74 0.17 0
M  V30 8 C -0.7969 -1.4691 1.4072 0
M  V30 9 N 0.5133 0.8077 -0.2265 0
M  V30 10 C -1.4624 2.0158 0.2252 0
M  V30 11 N 0.5413 -1.4061 1.8166 0
M  V30 12 C 1.3225 -0.4236 -0.3154 0 CFG=2
M  V30 13 C -1.7556 2.7014 -0.9522 0
M  V30 14 C -1.8648 2.5316 1.4616 0
M  V30 15 C 1.6064 -0.9263 1.0918 0
M  V30 16 C 2.6137 -0.1355 -1.0746 0
M  V30 17 F -1.4151 2.1949 -2.1459 0
M  V30 18 C -2.4564 3.903 -0.9074 0
M  V30 19 C -2.5669 3.738 1.5057 0
M  V30 20 O 2.7264 -0.9745 1.6013 0
M  V30 21 O 3.0677 0.966 -1.3596 0
M  V30 22 O 3.2021 -1.322 -1.433 0
M  V30 23 C -2.862 4.4226 0.3234 0
M  V30 24 C 4.447 -1.169 -2.124 0
M  V30 25 C 4.9949 -2.5512 -2.4214 0
M  V30 26 H -3.262 0.0638 -0.4019 0
M  V30 27 H -3.4436 -3.5708 1.8723 0
M  V30 28 H -1.0796 -3.3177 2.5059 0
M  V30 29 H 0.8082 -1.813 2.7055 0
M  V30 30 H 0.783 -1.1836 -0.8953 0
M  V30 31 H -1.6201 2.0147 2.3856 0
M  V30 32 H -2.6821 4.4261 -1.8316 0
M  V30 33 H -2.8763 4.1523 2.463 0
M  V30 34 H -3.4045 5.3648 0.3619 0
M  V30 35 H 5.1557 -0.6185 -1.495 0
M  V30 36 H 4.2846 -0.6263 -3.0619 0
M  V30 37 H 5.9492 -2.4868 -2.9514 0
M  V30 38 H 5.1422 -3.1149 -1.4942 0
M  V30 39 H 4.2884 -3.1225 -3.0326 0
M  V30 END ATOM
M  V30 BEGIN BOND
M  V30 1 1 1 2
M  V30 2 2 2 3
M  V30 3 1 2 4
M  V30 4 1 3 5
M  V30 5 2 4 6
M  V30 6 1 5 7
M  V30 7 2 5 8
M  V30 8 2 7 9
M  V30 9 1 7 10
M  V30 10 1 8 11
M  V30 11 1 9 12
M  V30 12 2 10 13
M  V30 13 1 10 14
M  V30 14 1 11 15
M  V30 15 1 12 16
M  V30 16 1 13 17
M  V30 17 1 13 18
M  V30 18 2 14 19
M  V30 19 2 15 20
M  V30 20 2 16 21
M  V30 21 1 16 22
M  V30 22 2 18 23
M  V30 23 1 22 24
M  V30 24 1 24 25
M  V30 25 1 6 8
M  V30 26 1 12 15
M  V30 27 1 19 23
M  V30 28 1 3 26
M  V30 29 1 4 27
M  V30 30 1 6 28
M  V30 31 1 11 29
M  V30 32 1 12 30
M  V30 33 1 14 31
M  V30 34 1 18 32
M  V30 35 1 19 33
M  V30 36 1 23 34
M  V30 37 1 24 35
M  V30 38 1 24 36
M  V30 39 1 25 37
M  V30 40 1 25 38
M  V30 41 1 25 39
M  V30 END BOND
M  V30 BEGIN COLLECTION
M  V30 MDLV30/STERAC1 ATOMS=(1 12)
M  V30 END COLLECTION
M  V30 END CTAB
M  END
>  <Column 1>
1472

>  <level_0>
1622

>  <index>
1622

>  <Unnamed: 0>
1622

>  <NO.>
1634

>  <Name>
ethyl-loflazepate

>  <IUPAC_name>
ethyl 7-chloro-5-(2-fluorophenyl)-2-oxo-1-3-dihydro-1-4-benzodiazepine-3-carboxylate

>  <SMILES>
CCOC(=O)C1N=C(c2ccccc2F)c2cc(Cl)ccc2NC1=O

>  <CID>
3299

>  <logBB>


>  <BBB+/BBB->
BBB+

>  <Inchi>
InChI=1S/C18H14ClFN2O3/c1-2-25-18(24)16-17(23)21-14-8-7-10(19)9-12(14)15(22-16)11-5-3-4-6-13(11)20/h3-9-16H-2H2-1H3-(H-21-23)

>  <threshold>
-1

>  <reference>
R1|R19|R6|R27|R27|R30|

>  <group>
B

>  <Class>
1

>  <ABC>
19.29

>  <ABCGG>
16.09

>  <nAcid>
0

>  <nBase>
0

>  <nAromAtom>
12

>  <nAromBond>
12

>  <nAtom>
39

>  <nHeavyAtom>
25

>  <nSpiro>
0

>  <nBridgehead>
0

>  <nHetero>
7

>  <nN>
2

>  <nO>
3

>  <nF>
1

>  <BalabanJ>
1.85

>  <BertzCT>
882.37

>  <nBonds>
41

>  <nBondsO>
27

>  <nBondsS>
26

>  <nBondsD>
3

>  <nBondsT>
0

>  <nBondsA>
12

>  <nBondsM>
15

>  <nBondsKS>
32

>  <nBondsKD>
9

>  <RNCG>
0.21

>  <RPCG>
0.16

>  <FCSP3>
0.17

>  <SZ>
31

>  <Sm>
30.04

>  <Sv>
27.19

>  <Sse>
40.26

>  <Sp>
27.99

>  <Si>
43.82

>  <MZ>
0.79

>  <Mm>
0.77

>  <Mv>
0.7

>  <Mse>
1.03

>  <Mp>
0.72

>  <Mi>
1.12

>  <NsCH3>
1

>  <NdCH2>
0

>  <NssCH2>
1

>  <NtCH>
0

>  <NdsCH>
0

>  <NaaCH>
7

>  <NsssCH>
1

>  <NddC>
0

>  <NtsC>
0

>  <NdssC>
3

>  <NaasC>
5

>  <NaaaC>
0

>  <NssssC>
0

>  <NsNH3>
0

>  <NsNH2>
0

>  <NssNH2>
0

>  <NdNH>
0

>  <NssNH>
1

>  <NaaNH>
0

>  <NtN>
0

>  <NsssNH>
0

>  <NdsN>
1

>  <NaaN>
0

>  <NsssN>
0

>  <NddsN>
0

>  <NaasN>
0

>  <NssssN>
0

>  <NsOH>
0

>  <NdO>
2

>  <NssO>
1

>  <NaaO>
0

>  <NsF>
1

>  <NsSiH3>
0

>  <NssSiH2>
0

>  <NsssSiH>
0

>  <NssssSi>
0

>  <NsPH2>
0

>  <NssPH>
0

>  <NsssP>
0

>  <NdsssP>
0

>  <NsssssP>
0

>  <NsSH>
0

>  <NdS>
0

>  <NssS>
0

>  <NaaS>
0

>  <NdssS>
0

>  <NddssS>
0

>  <NsCl>
1

>  <NsBr>
0

>  <NsI>
0

>  <fragCpx>
129.07

>  <fMF>
0.44

>  <nHBAcc>
4

>  <nHBDon>
1

>  <Kier1>
19.75

>  <Kier2>
8.79

>  <Lipinski>
1

>  <GhoseFilter>
1

>  <FilterItLogS>
-5.76

>  <VMcGowan>
244.77

>  <LabuteASA>
148.02

>  <PEOE_VSA1>
10.05

>  <PEOE_VSA2>
9.79

>  <PEOE_VSA3>
9.18

>  <PEOE_VSA4>
0

>  <PEOE_VSA5>
0

>  <PEOE_VSA6>
23.73

>  <PEOE_VSA7>
37.26

>  <PEOE_VSA8>
16.15

>  <PEOE_VSA9>
18.01

>  <PEOE_VSA10>
5.82

>  <PEOE_VSA11>
0

>  <PEOE_VSA12>
6.04

>  <PEOE_VSA13>
5.91

>  <SMR_VSA1>
18.72

>  <SMR_VSA2>
0

>  <SMR_VSA3>
0

>  <SMR_VSA4>
4.99

>  <SMR_VSA5>
12.97

>  <SMR_VSA6>
11.92

>  <SMR_VSA7>
64.43

>  <SMR_VSA8>
0

>  <SMR_VSA9>
0

>  <SlogP_VSA1>
5.32

>  <SlogP_VSA2>
30.24

>  <SlogP_VSA3>
14.33

>  <SlogP_VSA4>
5.82

>  <SlogP_VSA5>
18.05

>  <SlogP_VSA6>
47.46

>  <SlogP_VSA7>
5.02

>  <SlogP_VSA8>
0

>  <SlogP_VSA9>
0

>  <SlogP_VSA10>
10.08

>  <SlogP_VSA11>
0

>  <EState_VSA1>
23.74

>  <EState_VSA2>
17.88

>  <EState_VSA3>
16.27

>  <EState_VSA4>
0

>  <EState_VSA5>
12.13

>  <EState_VSA6>
37.26

>  <EState_VSA7>
0

>  <EState_VSA8>
10.31

>  <EState_VSA9>
16.34

>  <EState_VSA10>
13.98

>  <VSA_EState1>
19.26

>  <VSA_EState2>
28.75

>  <VSA_EState3>
3.02

>  <VSA_EState4>
1.14

>  <VSA_EState5>
-1.97

>  <VSA_EState6>
9.3

>  <VSA_EState7>
0

>  <VSA_EState8>
1.73

>  <VSA_EState9>
0

>  <apol>
46.74

>  <bpol>
20.85

>  <nRing>
3

>  <nHRing>
1

>  <naRing>
2

>  <naHRing>
0

>  <nARing 2>
1

>  <nAHRing 2>
1

>  <nFRing>
1

>  <nFHRing>
1

>  <nFaRing>
0

>  <nFaHRing>
0

>  <nFARing 2>
1

>  <nFAHRing 2>
1

>  <nRot>
3

>  <SLogP>
3.2

>  <SMR>
92.54

>  <TopoPSA(NO)>
67.76

>  <TopoPSA>
67.76

>  <JGI1>
0.19

>  <JGI2>
0.09

>  <JGI3>
0.05

>  <JGI4>
0.04

>  <JGI5>
0.03

>  <Diameter>
10

>  <Radius>
5

>  <TMWC10>
127.78

>  <TSRW10>
67.89

>  <MW>
360.07

>  <AMW>
9.23

>  <WPath>
1339

>  <WPol>
45

>  <Zagreb1>
130

>  <Zagreb2>
154

>  <mZagreb2>
5.58

>  <yes>


>  <nAR-cont>
0.816016

>  <nHA-cont>
0.921834225

>  <MWHBN>
0.263497522

>  <MWHBN-cont>
0.934289072

>  <TPSA-cont>
0.526993124

>  <pka_cont>
0.97

>  <yes.1>


>  <BBB_SCORE>
4.67827008

>  <MMFF94 Energy>
121.76

$$$$
Compound 1241
Actelion Java MolfileCreator 2.0

  0  0  0  0  0  0              0 V3000
M  V30 BEGIN CTAB
M  V30 COUNTS 65 68 0 0 0
M  V30 BEGIN ATOM
M  V30 1 F 1.2783 5.0407 2.6379 0
M  V30 2 C 1.5994 4.1065 1.7338 0
M  V30 3 C 1.3571 4.3468 0.3862 0
M  V30 4 C 2.1704 2.9122 2.1589 0
M  V30 5 C 1.6913 3.3739 -0.5568 0
M  V30 6 C 2.5049 1.9368 1.2185 0
M  V30 7 C 2.2614 2.1598 -0.1454 0
M  V30 8 C 2.6082 1.1254 -1.1529 0
M  V30 9 C 3.7942 1.2192 -2.0369 0
M  V30 10 C 1.8347 0.0177 -1.3016 0
M  V30 11 C 3.8859 0.3899 -3.1567 0
M  V30 12 C 4.8186 2.1524 -1.8154 0
M  V30 13 C 0.6186 -0.1896 -0.518 0
M  V30 14 C 2.2352 -1.079 -2.3073 0
M  V30 15 O 2.9315 -0.5416 -3.4526 0
M  V30 16 C 4.9459 0.505 -4.057 0
M  V30 17 C 5.8949 2.2563 -2.7019 0
M  V30 18 C -0.5032 0.5276 -0.6963 0
M  V30 19 C 1.0701 -1.9046 -2.8961 0
M  V30 20 C 3.0955 -2.1923 -1.6736 0
M  V30 21 C 5.9557 1.4361 -3.8259 0
M  V30 22 C -1.7872 0.4334 0.0791 0 CFG=2
M  V30 23 C 0.8505 -3.089 -1.9561 0
M  V30 24 C 2.1099 -3.2029 -1.1024 0
M  V30 25 O -2.0432 1.7254 0.6161 0
M  V30 26 C -1.8273 -0.6006 1.2097 0
M  V30 27 C -3.11 -0.5793 2.0571 0 CFG=2
M  V30 28 O -2.9412 -1.5603 3.0924 0
M  V30 29 C -4.3744 -0.8921 1.2644 0
M  V30 30 C -5.5911 -0.6634 2.1237 0
M  V30 31 O -6.0522 0.4396 2.3825 0
M  V30 32 O -6.0891 -1.8531 2.5634 0
M  V30 33 C -7.2263 -1.7665 3.4343 0
M  V30 34 C -6.7719 -1.5794 4.8699 0
M  V30 35 H 0.9104 5.2871 0.0785 0
M  V30 36 H 2.3526 2.7499 3.2164 0
M  V30 37 H 1.5006 3.5604 -1.6115 0
M  V30 38 H 2.955 1.004 1.5501 0
M  V30 39 H 4.7919 2.8159 -0.9541 0
M  V30 40 H 0.6763 -0.9652 0.2397 0
M  V30 41 H 4.9851 -0.1367 -4.9327 0
M  V30 42 H 6.6799 2.9857 -2.5177 0
M  V30 43 H -0.517 1.2844 -1.4815 0
M  V30 44 H 1.3417 -2.2874 -3.8896 0
M  V30 45 H 0.1553 -1.3209 -3.0445 0
M  V30 46 H 3.7803 -1.8213 -0.9028 0
M  V30 47 H 3.7169 -2.6757 -2.4391 0
M  V30 48 H 6.7862 1.5226 -4.5213 0
M  V30 49 H -2.5834 0.2175 -0.6406 0
M  V30 50 H -0.03 -2.9372 -1.3225 0
M  V30 51 H 0.6765 -4.0062 -2.5292 0
M  V30 52 H 2.5219 -4.217 -1.1209 0
M  V30 53 H 1.8814 -2.9694 -0.0567 0
M  V30 54 H -1.2249 2.0305 1.049 0
M  V30 55 H -0.9884 -0.4262 1.8983 0
M  V30 56 H -1.6753 -1.6091 0.8027 0
M  V30 57 H -3.2044 0.3889 2.5616 0
M  V30 58 H -2.9172 -2.4435 2.6854 0
M  V30 59 H -4.3738 -1.9285 0.9066 0
M  V30 60 H -4.4876 -0.2491 0.3862 0
M  V30 61 H -7.7725 -2.7109 3.3417 0
M  V30 62 H -7.9092 -0.9682 3.1214 0
M  V30 63 H -7.6283 -1.5722 5.5501 0
M  V30 64 H -6.0919 -2.385 5.1659 0
M  V30 65 H -6.223 -0.6398 4.9893 0
M  V30 END ATOM
M  V30 BEGIN BOND
M  V30 1 1 1 2
M  V30 2 2 2 3
M  V30 3 1 2 4
M  V30 4 1 3 5
M  V30 5 2 4 6
M  V30 6 2 5 7
M  V30 7 1 7 8
M  V30 8 1 8 9
M  V30 9 2 8 10
M  V30 10 2 9 11
M  V30 11 1 9 12
M  V30 12 1 10 13
M  V30 13 1 10 14
M  V30 14 1 11 15
M  V30 15 1 11 16
M  V30 16 2 12 17
M  V30 17 2 13 18
M  V30 18 1 14 19
M  V30 19 1 14 20
M  V30 20 2 16 21
M  V30 21 1 18 22
M  V30 22 1 19 23
M  V30 23 1 20 24
M  V30 24 1 22 25
M  V30 25 1 22 26
M  V30 26 1 26 27
M  V30 27 1 27 28
M  V30 28 1 27 29
M  V30 29 1 29 30
M  V30 30 2 30 31
M  V30 31 1 30 32
M  V30 32 1 32 33
M  V30 33 1 33 34
M  V30 34 1 6 7
M  V30 35 1 14 15
M  V30 36 1 17 21
M  V30 37 1 23 24
M  V30 38 1 3 35
M  V30 39 1 4 36
M  V30 40 1 5 37
M  V30 41 1 6 38
M  V30 42 1 12 39
M  V30 43 1 13 40
M  V30 44 1 16 41
M  V30 45 1 17 42
M  V30 46 1 18 43
M  V30 47 1 19 44
M  V30 48 1 19 45
M  V30 49 1 20 46
M  V30 50 1 20 47
M  V30 51 1 21 48
M  V30 52 1 22 49
M  V30 53 1 23 50
M  V30 54 1 23 51
M  V30 55 1 24 52
M  V30 56 1 24 53
M  V30 57 1 25 54
M  V30 58 1 26 55
M  V30 59 1 26 56
M  V30 60 1 27 57
M  V30 61 1 28 58
M  V30 62 1 29 59
M  V30 63 1 29 60
M  V30 64 1 33 61
M  V30 65 1 33 62
M  V30 66 1 34 63
M  V30 67 1 34 64
M  V30 68 1 34 65
M  V30 END BOND
M  V30 BEGIN COLLECTION
M  V30 MDLV30/STEABS ATOMS=(2 22 27)
M  V30 END COLLECTION
M  V30 END CTAB
M  END
>  <Column 1>
1473

>  <level_0>
1623

>  <index>
1623

>  <Unnamed: 0>
1623

>  <NO.>
1635

>  <Name>
bervastatin

>  <IUPAC_name>
ethyl (e-3s-5r)-7-[4-(4-fluorophenyl)spiro[chromene-2-1'-cyclopentane]-3-yl]-3-5-dihydroxyhept-6-enoate

>  <SMILES>
CCOC(=O)C[C@@H](O)C[C@@H](O)/C=C/C1=C(c2ccc(F)cc2)c2ccccc2OC12CCCC2

>  <CID>
6436003

>  <logBB>


>  <BBB+/BBB->
BBB+

>  <Inchi>
InChI=1S/C28H31FO5/c1-2-33-26(32)18-22(31)17-21(30)13-14-24-27(19-9-11-20(29)12-10-19)23-7-3-4-8-25(23)34-28(24)15-5-6-16-28/h3-4-7-14-21-22-30-31H-2-5-6-15-18H2-1H3/b14-13+/t21--22-/m0/s1

>  <threshold>
-1

>  <reference>
R1|R27|R30|

>  <group>
B

>  <Class>
1

>  <ABC>
26.38

>  <ABCGG>
20.96

>  <nAcid>
0

>  <nBase>
0

>  <nAromAtom>
12

>  <nAromBond>
12

>  <nAtom>
65

>  <nHeavyAtom>
34

>  <nSpiro>
1

>  <nBridgehead>
0

>  <nHetero>
6

>  <nN>
0

>  <nO>
5

>  <nF>
1

>  <BalabanJ>
1.46

>  <BertzCT>
1066.46

>  <nBonds>
68

>  <nBondsO>
37

>  <nBondsS>
53

>  <nBondsD>
3

>  <nBondsT>
0

>  <nBondsA>
12

>  <nBondsM>
15

>  <nBondsKS>
59

>  <nBondsKD>
9

>  <RNCG>
0.17

>  <RPCG>
0.11

>  <FCSP3>
0.39

>  <SZ>
41.33

>  <Sm>
38.84

>  <Sv>
40.62

>  <Sse>
65.37

>  <Sp>
43.11

>  <Si>
73.03

>  <MZ>
0.64

>  <Mm>
0.6

>  <Mv>
0.62

>  <Mse>
1.01

>  <Mp>
0.66

>  <Mi>
1.12

>  <NsCH3>
1

>  <NdCH2>
0

>  <NssCH2>
7

>  <NtCH>
0

>  <NdsCH>
2

>  <NaaCH>
8

>  <NsssCH>
2

>  <NddC>
0

>  <NtsC>
0

>  <NdssC>
3

>  <NaasC>
4

>  <NaaaC>
0

>  <NssssC>
1

>  <NsNH3>
0

>  <NsNH2>
0

>  <NssNH2>
0

>  <NdNH>
0

>  <NssNH>
0

>  <NaaNH>
0

>  <NtN>
0

>  <NsssNH>
0

>  <NdsN>
0

>  <NaaN>
0

>  <NsssN>
0

>  <NddsN>
0

>  <NaasN>
0

>  <NssssN>
0

>  <NsOH>
2

>  <NdO>
1

>  <NssO>
2

>  <NaaO>
0

>  <NsF>
1

>  <NsSiH3>
0

>  <NssSiH2>
0

>  <NsssSiH>
0

>  <NssssSi>
0

>  <NsPH2>
0

>  <NssPH>
0

>  <NsssP>
0

>  <NdsssP>
0

>  <NsssssP>
0

>  <NsSH>
0

>  <NdS>
0

>  <NssS>
0

>  <NaaS>
0

>  <NdssS>
0

>  <NddssS>
0

>  <NsCl>
0

>  <NsBr>
0

>  <NsI>
0

>  <fragCpx>
247.06

>  <fMF>
0.31

>  <nHBAcc>
5

>  <nHBDon>
2

>  <Kier1>
27.05

>  <Kier2>
12.5

>  <Lipinski>
1

>  <GhoseFilter>
1

>  <FilterItLogS>
-5.81

>  <VMcGowan>
354.35

>  <LabuteASA>
199.08

>  <PEOE_VSA1>
19.69

>  <PEOE_VSA2>
4.79

>  <PEOE_VSA3>
4.39

>  <PEOE_VSA4>
0

>  <PEOE_VSA5>
0

>  <PEOE_VSA6>
42.48

>  <PEOE_VSA7>
61.94

>  <PEOE_VSA8>
17.56

>  <PEOE_VSA9>
25.24

>  <PEOE_VSA10>
17.17

>  <PEOE_VSA11>
0

>  <PEOE_VSA12>
0

>  <PEOE_VSA13>
0

>  <SMR_VSA1>
28.87

>  <SMR_VSA2>
0

>  <SMR_VSA3>
0

>  <SMR_VSA4>
0

>  <SMR_VSA5>
63.26

>  <SMR_VSA6>
6.61

>  <SMR_VSA7>
83.2

>  <SMR_VSA8>
0

>  <SMR_VSA9>
5.75

>  <SlogP_VSA1>
4.74

>  <SlogP_VSA2>
40.6

>  <SlogP_VSA3>
9.53

>  <SlogP_VSA4>
5.82

>  <SlogP_VSA5>
56.58

>  <SlogP_VSA6>
66.26

>  <SlogP_VSA7>
0

>  <SlogP_VSA8>
5.57

>  <SlogP_VSA9>
0

>  <SlogP_VSA10>
4.39

>  <SlogP_VSA11>
5.75

>  <EState_VSA1>
23.78

>  <EState_VSA2>
25.27

>  <EState_VSA3>
0

>  <EState_VSA4>
53.71

>  <EState_VSA5>
12.13

>  <EState_VSA6>
25.13

>  <EState_VSA7>
30.34

>  <EState_VSA8>
0

>  <EState_VSA9>
9.47

>  <EState_VSA10>
19.4

>  <VSA_EState1>
25.17

>  <VSA_EState2>
11.62

>  <VSA_EState3>
20.78

>  <VSA_EState4>
3.16

>  <VSA_EState5>
0

>  <VSA_EState6>
14.27

>  <VSA_EState7>
5.14

>  <VSA_EState8>
1.95

>  <VSA_EState9>
0

>  <apol>
72

>  <bpol>
36.55

>  <nRing>
4

>  <nHRing>
1

>  <naRing>
2

>  <naHRing>
0

>  <nARing 2>
2

>  <nAHRing 2>
1

>  <nFRing>
1

>  <nFHRing>
1

>  <nFaRing>
0

>  <nFaHRing>
0

>  <nFARing 2>
1

>  <nFAHRing 2>
1

>  <nRot>
8

>  <SLogP>
4.95

>  <SMR>
127.71

>  <TopoPSA(NO)>
75.99

>  <TopoPSA>
75.99

>  <JGI1>
0.2

>  <JGI2>
0.08

>  <JGI3>
0.05

>  <JGI4>
0.04

>  <JGI5>
0.02

>  <Diameter>
16

>  <Radius>
8

>  <TMWC10>
149.92

>  <TSRW10>
84.06

>  <MW>
466.22

>  <AMW>
7.17

>  <WPath>
3476

>  <WPol>
55

>  <Zagreb1>
178

>  <Zagreb2>
210

>  <mZagreb2>
7.57

>  <yes>


>  <nAR-cont>
1

>  <nHA-cont>
0.568589513

>  <MWHBN>
0.324192221

>  <MWHBN-cont>
0.762959884

>  <TPSA-cont>
0.469542613

>  <pka_cont>
0.97

>  <yes.1>


>  <BBB_SCORE>
4.137114565

>  <MMFF94 Energy>
73.285

$$$$
Compound 1242
Actelion Java MolfileCreator 2.0

  0  0  0  0  0  0              0 V3000
M  V30 BEGIN CTAB
M  V30 COUNTS 40 40 0 0 0
M  V30 BEGIN ATOM
M  V30 1 F -4.6683 -2.9256 1.5015 0
M  V30 2 C -4.8733 -1.8293 0.7192 0
M  V30 3 F -5.2491 -0.8322 1.5683 0
M  V30 4 F -5.9727 -2.1093 -0.0348 0
M  V30 5 C -3.6574 -1.4814 -0.1005 0
M  V30 6 C -2.6315 -0.6981 0.4535 0
M  V30 7 C -3.5151 -1.9603 -1.4124 0
M  V30 8 C -1.4942 -0.3865 -0.297 0
M  V30 9 C -2.3805 -1.6471 -2.1621 0
M  V30 10 N -0.458 0.3924 0.2755 0
M  V30 11 C -1.3726 -0.8605 -1.6059 0
M  V30 12 C -0.1422 1.6267 -0.2839 0
M  V30 13 C 0.3185 -0.2204 1.3633 0
M  V30 14 O -0.7286 2.1353 -1.2355 0
M  V30 15 O 0.8862 2.2494 0.3624 0
M  V30 16 C 1.2977 -1.3135 0.8732 0
M  V30 17 C 1.2525 3.5176 -0.1918 0
M  V30 18 N 2.3222 -0.8413 -0.0795 0
M  V30 19 C 2.4206 4.0628 0.6066 0
M  V30 20 C 2.9101 -1.9738 -0.7982 0
M  V30 21 C 3.3791 -0.0866 0.5977 0
M  V30 22 H -2.7328 -0.3159 1.4676 0
M  V30 23 H -4.2953 -2.5748 -1.8601 0
M  V30 24 H -2.2813 -2.0112 -3.1817 0
M  V30 25 H -0.491 -0.6177 -2.195 0
M  V30 26 H -0.3806 -0.6684 2.0799 0
M  V30 27 H 0.8606 0.5479 1.923 0
M  V30 28 H 1.7725 -1.7866 1.7429 0
M  V30 29 H 0.6951 -2.0962 0.394 0
M  V30 30 H 0.4052 4.2091 -0.1243 0
M  V30 31 H 1.5484 3.3943 -1.2397 0
M  V30 32 H 2.7321 5.0392 0.225 0
M  V30 33 H 2.1515 4.1649 1.6632 0
M  V30 34 H 3.273 3.3773 0.5598 0
M  V30 35 H 2.1424 -2.5068 -1.3703 0
M  V30 36 H 3.3949 -2.6864 -0.1211 0
M  V30 37 H 3.6529 -1.6261 -1.5249 0
M  V30 38 H 3.9233 -0.7014 1.324 0
M  V30 39 H 2.9795 0.7842 1.1242 0
M  V30 40 H 4.0995 0.2991 -0.1324 0
M  V30 END ATOM
M  V30 BEGIN BOND
M  V30 1 1 1 2
M  V30 2 1 2 3
M  V30 3 1 2 4
M  V30 4 1 2 5
M  V30 5 2 5 6
M  V30 6 1 5 7
M  V30 7 1 6 8
M  V30 8 2 7 9
M  V30 9 1 8 10
M  V30 10 2 8 11
M  V30 11 1 10 12
M  V30 12 1 10 13
M  V30 13 2 12 14
M  V30 14 1 12 15
M  V30 15 1 13 16
M  V30 16 1 15 17
M  V30 17 1 16 18
M  V30 18 1 17 19
M  V30 19 1 18 20
M  V30 20 1 18 21
M  V30 21 1 9 11
M  V30 22 1 6 22
M  V30 23 1 7 23
M  V30 24 1 9 24
M  V30 25 1 11 25
M  V30 26 1 13 26
M  V30 27 1 13 27
M  V30 28 1 16 28
M  V30 29 1 16 29
M  V30 30 1 17 30
M  V30 31 1 17 31
M  V30 32 1 19 32
M  V30 33 1 19 33
M  V30 34 1 19 34
M  V30 35 1 20 35
M  V30 36 1 20 36
M  V30 37 1 20 37
M  V30 38 1 21 38
M  V30 39 1 21 39
M  V30 40 1 21 40
M  V30 END BOND
M  V30 END CTAB
M  END
>  <Column 1>
1474

>  <level_0>
1624

>  <index>
1624

>  <Unnamed: 0>
1624

>  <NO.>
1636

>  <Name>
flubanilate

>  <IUPAC_name>
ethyl n-[2-(dimethylamino)ethyl]-n-[3-(trifluoromethyl)phenyl]carbamate

>  <SMILES>
CCOC(=O)N(CCN(C)C)c1cccc(C(F)(F)F)c1

>  <CID>
172309

>  <logBB>


>  <BBB+/BBB->
BBB+

>  <Inchi>
InChI=1S/C14H19F3N2O2/c1-4-21-13(20)19(9-8-18(2)3)12-7-5-6-11(10-12)14(15-16)17/h5-7-10H-4-8-9H2-1-3H3

>  <threshold>
-1

>  <reference>
R1|R13|R19|R6|R24|R27|R27|R27|R30|R30|

>  <group>
B

>  <Class>
1

>  <ABC>
15.51

>  <ABCGG>
14.11

>  <nAcid>
0

>  <nBase>
1

>  <nAromAtom>
6

>  <nAromBond>
6

>  <nAtom>
40

>  <nHeavyAtom>
21

>  <nSpiro>
0

>  <nBridgehead>
0

>  <nHetero>
7

>  <nN>
2

>  <nO>
2

>  <nF>
3

>  <BalabanJ>
2.71

>  <BertzCT>
475.53

>  <nBonds>
40

>  <nBondsO>
21

>  <nBondsS>
33

>  <nBondsD>
1

>  <nBondsT>
0

>  <nBondsA>
6

>  <nBondsM>
7

>  <nBondsKS>
36

>  <nBondsKD>
4

>  <RNCG>
0.23

>  <RPCG>
0.21

>  <FCSP3>
0.5

>  <SZ>
26.67

>  <Sm>
25.34

>  <Sv>
24.03

>  <Sse>
41.29

>  <Sp>
24.86

>  <Si>
46.59

>  <MZ>
0.67

>  <Mm>
0.63

>  <Mv>
0.6

>  <Mse>
1.03

>  <Mp>
0.62

>  <Mi>
1.16

>  <NsCH3>
3

>  <NdCH2>
0

>  <NssCH2>
3

>  <NtCH>
0

>  <NdsCH>
0

>  <NaaCH>
4

>  <NsssCH>
0

>  <NddC>
0

>  <NtsC>
0

>  <NdssC>
1

>  <NaasC>
2

>  <NaaaC>
0

>  <NssssC>
1

>  <NsNH3>
0

>  <NsNH2>
0

>  <NssNH2>
0

>  <NdNH>
0

>  <NssNH>
0

>  <NaaNH>
0

>  <NtN>
0

>  <NsssNH>
0

>  <NdsN>
0

>  <NaaN>
0

>  <NsssN>
2

>  <NddsN>
0

>  <NaasN>
0

>  <NssssN>
0

>  <NsOH>
0

>  <NdO>
1

>  <NssO>
1

>  <NaaO>
0

>  <NsF>
3

>  <NsSiH3>
0

>  <NssSiH2>
0

>  <NsssSiH>
0

>  <NssssSi>
0

>  <NsPH2>
0

>  <NssPH>
0

>  <NsssP>
0

>  <NdsssP>
0

>  <NsssssP>
0

>  <NsSH>
0

>  <NdS>
0

>  <NssS>
0

>  <NaaS>
0

>  <NdssS>
0

>  <NddssS>
0

>  <NsCl>
0

>  <NsBr>
0

>  <NsI>
0

>  <fragCpx>
21.07

>  <fMF>
0.15

>  <nHBAcc>
3

>  <nHBDon>
0

>  <Kier1>
19.05

>  <Kier2>
8.59

>  <Lipinski>
1

>  <GhoseFilter>
1

>  <FilterItLogS>
-3.4

>  <VMcGowan>
217.04

>  <LabuteASA>
121.64

>  <PEOE_VSA1>
9.64

>  <PEOE_VSA2>
4.9

>  <PEOE_VSA3>
4.79

>  <PEOE_VSA4>
13.17

>  <PEOE_VSA5>
0

>  <PEOE_VSA6>
6.07

>  <PEOE_VSA7>
39.22

>  <PEOE_VSA8>
18.78

>  <PEOE_VSA9>
12.17

>  <PEOE_VSA10>
0

>  <PEOE_VSA11>
0

>  <PEOE_VSA12>
0

>  <PEOE_VSA13>
0

>  <SMR_VSA1>
22.7

>  <SMR_VSA2>
0

>  <SMR_VSA3>
4.9

>  <SMR_VSA4>
0

>  <SMR_VSA5>
13.1

>  <SMR_VSA6>
38.69

>  <SMR_VSA7>
29.83

>  <SMR_VSA8>
0

>  <SMR_VSA9>
0

>  <SlogP_VSA1>
4.9

>  <SlogP_VSA2>
44.78

>  <SlogP_VSA3>
10.91

>  <SlogP_VSA4>
0

>  <SlogP_VSA5>
12.49

>  <SlogP_VSA6>
24.27

>  <SlogP_VSA7>
0

>  <SlogP_VSA8>
0

>  <SlogP_VSA9>
0

>  <SlogP_VSA10>
23.65

>  <SlogP_VSA11>
0

>  <EState_VSA1>
17.83

>  <EState_VSA2>
18.84

>  <EState_VSA3>
6.54

>  <EState_VSA4>
12.13

>  <EState_VSA5>
17.03

>  <EState_VSA6>
6.92

>  <EState_VSA7>
19

>  <EState_VSA8>
0

>  <EState_VSA9>
4.74

>  <EState_VSA10>
17.97

>  <VSA_EState1>
43.16

>  <VSA_EState2>
14.96

>  <VSA_EState3>
0

>  <VSA_EState4>
-0.62

>  <VSA_EState5>
0

>  <VSA_EState6>
4.66

>  <VSA_EState7>
-5.1

>  <VSA_EState8>
2.56

>  <VSA_EState9>
3.63

>  <apol>
41.52

>  <bpol>
28.42

>  <nRing>
1

>  <nHRing>
0

>  <naRing>
1

>  <naHRing>
0

>  <nARing 2>
0

>  <nAHRing 2>
0

>  <nFRing>
0

>  <nFHRing>
0

>  <nFaRing>
0

>  <nFaHRing>
0

>  <nFARing 2>
0

>  <nFAHRing 2>
0

>  <nRot>
5

>  <SLogP>
3.23

>  <SMR>
74.37

>  <TopoPSA(NO)>
32.78

>  <TopoPSA>
32.78

>  <JGI1>
0.29

>  <JGI2>
0.1

>  <JGI3>
0.06

>  <JGI4>
0.03

>  <JGI5>
0.04

>  <Diameter>
9

>  <Radius>
5

>  <TMWC10>
113.84

>  <TSRW10>
54.26

>  <MW>
304.14

>  <AMW>
7.6

>  <WPath>
942

>  <WPol>
29

>  <Zagreb1>
100

>  <Zagreb2>
111

>  <mZagreb2>
4.72

>  <yes>


>  <nAR-cont>
0.336376

>  <nHA-cont>
0.994529749

>  <MWHBN>
0.172022195

>  <MWHBN-cont>
0.977025776

>  <TPSA-cont>
0.771175245

>  <pka_cont>
0.97

>  <yes.1>


>  <BBB_SCORE>
4.823794903

>  <MMFF94 Energy>
28.539

$$$$
Compound 1243
Actelion Java MolfileCreator 2.0

  0  0  0  0  0  0              0 V3000
M  V30 BEGIN CTAB
M  V30 COUNTS 33 34 0 0 0
M  V30 BEGIN ATOM
M  V30 1 O 1.18 -2.6763 -0.4718 0
M  V30 2 C 0.8714 -1.5433 -0.8271 0
M  V30 3 O 0.0436 -1.2907 -1.8807 0
M  V30 4 N 1.3186 -0.3828 -0.2046 0
M  V30 5 C -0.4764 -2.4387 -2.5662 0
M  V30 6 C 2.2387 -0.4833 0.9052 0
M  V30 7 C 1.0323 0.9496 -0.7369 0
M  V30 8 C -1.7404 -2.9258 -1.8829 0
M  V30 9 C 2.0783 0.2946 2.1864 0
M  V30 10 C 1.8456 -1.1838 2.1816 0
M  V30 11 C -0.098 1.6731 -0.0367 0
M  V30 12 C -1.3265 1.0472 0.2217 0
M  V30 13 C 0.0558 3.0213 0.3246 0
M  V30 14 C -2.3635 1.7429 0.8468 0
M  V30 15 C -0.9821 3.7159 0.9492 0
M  V30 16 C -2.1906 3.0758 1.2119 0
M  V30 17 H 0.2733 -3.2343 -2.6424 0
M  V30 18 H -0.7107 -2.121 -3.5875 0
M  V30 19 H 3.2585 -0.6533 0.5651 0
M  V30 20 H 1.9595 1.5313 -0.6571 0
M  V30 21 H 0.7981 0.8987 -1.806 0
M  V30 22 H -2.1791 -3.7643 -2.4308 0
M  V30 23 H -1.5342 -3.2478 -0.8573 0
M  V30 24 H -2.4785 -2.1193 -1.8205 0
M  V30 25 H 1.2101 0.9242 2.3341 0
M  V30 26 H 2.9758 0.6649 2.6678 0
M  V30 27 H 2.5835 -1.8254 2.648 0
M  V30 28 H 0.8262 -1.5394 2.2789 0
M  V30 29 H -1.4878 0.0092 -0.0574 0
M  V30 30 H 0.9904 3.5414 0.126 0
M  V30 31 H -3.3074 1.2423 1.0472 0
M  V30 32 H -0.8475 4.7575 1.2296 0
M  V30 33 H -2.9987 3.6157 1.6983 0
M  V30 END ATOM
M  V30 BEGIN BOND
M  V30 1 2 1 2
M  V30 2 1 2 3
M  V30 3 1 2 4
M  V30 4 1 3 5
M  V30 5 1 4 6
M  V30 6 1 4 7
M  V30 7 1 5 8
M  V30 8 1 6 9
M  V30 9 1 6 10
M  V30 10 1 7 11
M  V30 11 2 11 12
M  V30 12 1 11 13
M  V30 13 1 12 14
M  V30 14 2 13 15
M  V30 15 2 14 16
M  V30 16 1 9 10
M  V30 17 1 15 16
M  V30 18 1 5 17
M  V30 19 1 5 18
M  V30 20 1 6 19
M  V30 21 1 7 20
M  V30 22 1 7 21
M  V30 23 1 8 22
M  V30 24 1 8 23
M  V30 25 1 8 24
M  V30 26 1 9 25
M  V30 27 1 9 26
M  V30 28 1 10 27
M  V30 29 1 10 28
M  V30 30 1 12 29
M  V30 31 1 13 30
M  V30 32 1 14 31
M  V30 33 1 15 32
M  V30 34 1 16 33
M  V30 END BOND
M  V30 END CTAB
M  END
>  <Column 1>
1475

>  <level_0>
1625

>  <index>
1625

>  <Unnamed: 0>
1625

>  <NO.>
1637

>  <Name>
encyprate

>  <IUPAC_name>
ethyl n-benzyl-n-cyclopropylcarbamate

>  <SMILES>
CCOC(=O)N(Cc1ccccc1)C1CC1

>  <CID>
17298

>  <logBB>


>  <BBB+/BBB->
BBB+

>  <Inchi>
InChI=1S/C13H17NO2/c1-2-16-13(15)14(12-8-9-12)10-11-6-4-3-5-7-11/h3-7-12H-2-8-10H2-1H3

>  <threshold>
-1

>  <reference>
R1|R13|R19|R6|R24|R27|R27|R27|R30|R30|

>  <group>
B

>  <Class>
1

>  <ABC>
12.05

>  <ABCGG>
10.82

>  <nAcid>
0

>  <nBase>
0

>  <nAromAtom>
6

>  <nAromBond>
6

>  <nAtom>
33

>  <nHeavyAtom>
16

>  <nSpiro>
0

>  <nBridgehead>
0

>  <nHetero>
3

>  <nN>
1

>  <nO>
2

>  <nF>
0

>  <BalabanJ>
1.81

>  <BertzCT>
346.21

>  <nBonds>
34

>  <nBondsO>
17

>  <nBondsS>
27

>  <nBondsD>
1

>  <nBondsT>
0

>  <nBondsA>
6

>  <nBondsM>
7

>  <nBondsKS>
30

>  <nBondsKD>
4

>  <RNCG>
0.32

>  <RPCG>
0.29

>  <FCSP3>
0.46

>  <SZ>
19.67

>  <Sm>
18.26

>  <Sv>
19.79

>  <Sse>
32.87

>  <Sp>
21.41

>  <Si>
37.24

>  <MZ>
0.6

>  <Mm>
0.55

>  <Mv>
0.6

>  <Mse>
1

>  <Mp>
0.65

>  <Mi>
1.13

>  <NsCH3>
1

>  <NdCH2>
0

>  <NssCH2>
4

>  <NtCH>
0

>  <NdsCH>
0

>  <NaaCH>
5

>  <NsssCH>
1

>  <NddC>
0

>  <NtsC>
0

>  <NdssC>
1

>  <NaasC>
1

>  <NaaaC>
0

>  <NssssC>
0

>  <NsNH3>
0

>  <NsNH2>
0

>  <NssNH2>
0

>  <NdNH>
0

>  <NssNH>
0

>  <NaaNH>
0

>  <NtN>
0

>  <NsssNH>
0

>  <NdsN>
0

>  <NaaN>
0

>  <NsssN>
1

>  <NddsN>
0

>  <NaasN>
0

>  <NssssN>
0

>  <NsOH>
0

>  <NdO>
1

>  <NssO>
1

>  <NaaO>
0

>  <NsF>
0

>  <NsSiH3>
0

>  <NssSiH2>
0

>  <NsssSiH>
0

>  <NssssSi>
0

>  <NsPH2>
0

>  <NssPH>
0

>  <NsssP>
0

>  <NdsssP>
0

>  <NsssssP>
0

>  <NsSH>
0

>  <NdS>
0

>  <NssS>
0

>  <NaaS>
0

>  <NdssS>
0

>  <NddssS>
0

>  <NsCl>
0

>  <NsBr>
0

>  <NsI>
0

>  <fragCpx>
49.03

>  <fMF>
0.33

>  <nHBAcc>
2

>  <nHBDon>
0

>  <Kier1>
12.46

>  <Kier2>
6.07

>  <Lipinski>
1

>  <GhoseFilter>
1

>  <FilterItLogS>
-2.47

>  <VMcGowan>
176.83

>  <LabuteASA>
96.02

>  <PEOE_VSA1>
9.64

>  <PEOE_VSA2>
0

>  <PEOE_VSA3>
4.79

>  <PEOE_VSA4>
0

>  <PEOE_VSA5>
0

>  <PEOE_VSA6>
30.33

>  <PEOE_VSA7>
25.33

>  <PEOE_VSA8>
12.59

>  <PEOE_VSA9>
6.61

>  <PEOE_VSA10>
0

>  <PEOE_VSA11>
0

>  <PEOE_VSA12>
0

>  <PEOE_VSA13>
0

>  <SMR_VSA1>
9.53

>  <SMR_VSA2>
0

>  <SMR_VSA3>
4.9

>  <SMR_VSA4>
0

>  <SMR_VSA5>
32.35

>  <SMR_VSA6>
6.61

>  <SMR_VSA7>
35.9

>  <SMR_VSA8>
0

>  <SMR_VSA9>
0

>  <SlogP_VSA1>
0

>  <SlogP_VSA2>
23.64

>  <SlogP_VSA3>
11.28

>  <SlogP_VSA4>
0

>  <SlogP_VSA5>
25.33

>  <SlogP_VSA6>
30.33

>  <SlogP_VSA7>
0

>  <SlogP_VSA8>
0

>  <SlogP_VSA9>
0

>  <SlogP_VSA10>
4.79

>  <SlogP_VSA11>
0

>  <EState_VSA1>
0

>  <EState_VSA2>
6.09

>  <EState_VSA3>
19.19

>  <EState_VSA4>
18.41

>  <EState_VSA5>
0

>  <EState_VSA6>
0

>  <EState_VSA7>
42.16

>  <EState_VSA8>
0

>  <EState_VSA9>
4.74

>  <EState_VSA10>
4.79

>  <VSA_EState1>
5.06

>  <VSA_EState2>
13.56

>  <VSA_EState3>
0

>  <VSA_EState4>
1.16

>  <VSA_EState5>
0

>  <VSA_EState6>
10.43

>  <VSA_EState7>
2.02

>  <VSA_EState8>
2.94

>  <VSA_EState9>
0

>  <apol>
35.75

>  <bpol>
21.37

>  <nRing>
2

>  <nHRing>
0

>  <naRing>
1

>  <naHRing>
0

>  <nARing 2>
1

>  <nAHRing 2>
0

>  <nFRing>
0

>  <nFHRing>
0

>  <nFaRing>
0

>  <nFaHRing>
0

>  <nFARing 2>
0

>  <nFAHRing 2>
0

>  <nRot>
4

>  <SLogP>
2.81

>  <SMR>
62.03

>  <TopoPSA(NO)>
29.54

>  <TopoPSA>
29.54

>  <JGI1>
0.15

>  <JGI2>
0.06

>  <JGI3>
0.04

>  <JGI4>
0.04

>  <JGI5>
0.02

>  <Diameter>
9

>  <Radius>
5

>  <TMWC10>
102.71

>  <TSRW10>
66.31

>  <MW>
219.13

>  <AMW>
6.64

>  <WPath>
460

>  <WPol>
20

>  <Zagreb1>
78

>  <Zagreb2>
89

>  <mZagreb2>
3.72

>  <yes>


>  <nAR-cont>
0.816016

>  <nHA-cont>
0.954961865

>  <MWHBN>
0.135107381

>  <MWHBN-cont>
0.88774904

>  <TPSA-cont>
0.793792457

>  <pka_cont>
0.97

>  <yes.1>


>  <BBB_SCORE>
5.175186339

>  <MMFF94 Energy>
-7.9456

$$$$
Compound 1244
Actelion Java MolfileCreator 2.0

  0  0  0  0  0  0              0 V3000
M  V30 BEGIN CTAB
M  V30 COUNTS 41 43 0 0 0
M  V30 BEGIN ATOM
M  V30 1 Cl 1.6113 0.3221 5.1632 0
M  V30 2 C 1.2655 -0.172 3.5521 0
M  V30 3 C 0.1867 0.3909 2.8726 0
M  V30 4 C 2.0617 -1.1352 2.9404 0
M  V30 5 C -0.106 -0.005 1.5561 0
M  V30 6 C 1.7773 -1.542 1.636 0
M  V30 7 N -1.2222 0.5793 0.8837 0
M  V30 8 C 0.6976 -0.9839 0.9354 0
M  V30 9 C -2.2076 -0.1795 0.2481 0
M  V30 10 C -1.2766 2.0034 0.8727 0
M  V30 11 N 0.4349 -1.422 -0.3901 0
M  V30 12 O -3.1973 0.2833 -0.3229 0
M  V30 13 C -1.9991 -1.6759 0.2664 0
M  V30 14 C -0.1669 2.7519 0.4523 0
M  V30 15 C -2.4334 2.6734 1.2897 0
M  V30 16 C 1.4371 -1.3397 -1.3556 0
M  V30 17 C -0.8696 -2.0143 -0.6924 0
M  V30 18 C -0.2134 4.1476 0.4598 0
M  V30 19 C -2.4773 4.0694 1.2951 0
M  V30 20 O 2.5388 -0.8291 -1.1812 0
M  V30 21 O 1.0588 -1.9043 -2.5383 0
M  V30 22 C -1.3674 4.8052 0.8828 0
M  V30 23 C 2.0458 -1.834 -3.5744 0
M  V30 24 C 1.4722 -2.4869 -4.8169 0
M  V30 25 H -0.4282 1.1363 3.3717 0
M  V30 26 H 2.906 -1.5711 3.4685 0
M  V30 27 H 2.4108 -2.2921 1.1673 0
M  V30 28 H -1.8128 -2.0296 1.286 0
M  V30 29 H -2.924 -2.1606 -0.0673 0
M  V30 30 H 0.7373 2.257 0.1059 0
M  V30 31 H -3.3101 2.1155 1.6095 0
M  V30 32 H -1.1603 -1.7076 -1.7052 0
M  V30 33 H -0.7254 -3.1013 -0.7208 0
M  V30 34 H 0.6495 4.7205 0.1301 0
M  V30 35 H -3.381 4.5813 1.616 0
M  V30 36 H -1.4046 5.8917 0.8843 0
M  V30 37 H 2.95 -2.3673 -3.2606 0
M  V30 38 H 2.2873 -0.7862 -3.7857 0
M  V30 39 H 2.1914 -2.4583 -5.6401 0
M  V30 40 H 1.2052 -3.5297 -4.616 0
M  V30 41 H 0.5545 -1.9783 -5.1307 0
M  V30 END ATOM
M  V30 BEGIN BOND
M  V30 1 1 1 2
M  V30 2 2 2 3
M  V30 3 1 2 4
M  V30 4 1 3 5
M  V30 5 2 4 6
M  V30 6 1 5 7
M  V30 7 2 5 8
M  V30 8 1 7 9
M  V30 9 1 7 10
M  V30 10 1 8 11
M  V30 11 2 9 12
M  V30 12 1 9 13
M  V30 13 2 10 14
M  V30 14 1 10 15
M  V30 15 1 11 16
M  V30 16 1 11 17
M  V30 17 1 14 18
M  V30 18 2 15 19
M  V30 19 2 16 20
M  V30 20 1 16 21
M  V30 21 2 18 22
M  V30 22 1 21 23
M  V30 23 1 23 24
M  V30 24 1 6 8
M  V30 25 1 13 17
M  V30 26 1 19 22
M  V30 27 1 3 25
M  V30 28 1 4 26
M  V30 29 1 6 27
M  V30 30 1 13 28
M  V30 31 1 13 29
M  V30 32 1 14 30
M  V30 33 1 15 31
M  V30 34 1 17 32
M  V30 35 1 17 33
M  V30 36 1 18 34
M  V30 37 1 19 35
M  V30 38 1 22 36
M  V30 39 1 23 37
M  V30 40 1 23 38
M  V30 41 1 24 39
M  V30 42 1 24 40
M  V30 43 1 24 41
M  V30 END BOND
M  V30 END CTAB
M  END
>  <Column 1>
1476

>  <level_0>
1626

>  <index>
1626

>  <Unnamed: 0>
1626

>  <NO.>
1638

>  <Name>
arfendazam

>  <IUPAC_name>
ethyl 7-chloro-4-oxo-5-phenyl-2-3-dihydro-1-5-benzodiazepine-1-carboxylate

>  <SMILES>
CCOC(=O)N1CCC(=O)N(c2ccccc2)c2cc(Cl)ccc21

>  <CID>
65803

>  <logBB>


>  <BBB+/BBB->
BBB+

>  <Inchi>
InChI=1S/C18H17ClN2O3/c1-2-24-18(23)20-11-10-17(22)21(14-6-4-3-5-7-14)16-12-13(19)8-9-15(16)20/h3-9-12H-2-10-11H2-1H3

>  <threshold>
-1

>  <reference>
R1|R13|R19|R6|R24|R27|R27|R27|R30|R30|

>  <group>
B

>  <Class>
1

>  <ABC>
18.47

>  <ABCGG>
15.34

>  <nAcid>
0

>  <nBase>
0

>  <nAromAtom>
12

>  <nAromBond>
12

>  <nAtom>
41

>  <nHeavyAtom>
24

>  <nSpiro>
0

>  <nBridgehead>
0

>  <nHetero>
6

>  <nN>
2

>  <nO>
3

>  <nF>
0

>  <BalabanJ>
1.83

>  <BertzCT>
764.11

>  <nBonds>
43

>  <nBondsO>
26

>  <nBondsS>
29

>  <nBondsD>
2

>  <nBondsT>
0

>  <nBondsA>
12

>  <nBondsM>
14

>  <nBondsKS>
35

>  <nBondsKD>
8

>  <RNCG>
0.23

>  <RPCG>
0.21

>  <FCSP3>
0.22

>  <SZ>
30

>  <Sm>
28.71

>  <Sv>
27.36

>  <Sse>
41.63

>  <Sp>
28.85

>  <Si>
45.89

>  <MZ>
0.73

>  <Mm>
0.7

>  <Mv>
0.67

>  <Mse>
1.02

>  <Mp>
0.7

>  <Mi>
1.12

>  <NsCH3>
1

>  <NdCH2>
0

>  <NssCH2>
3

>  <NtCH>
0

>  <NdsCH>
0

>  <NaaCH>
8

>  <NsssCH>
0

>  <NddC>
0

>  <NtsC>
0

>  <NdssC>
2

>  <NaasC>
4

>  <NaaaC>
0

>  <NssssC>
0

>  <NsNH3>
0

>  <NsNH2>
0

>  <NssNH2>
0

>  <NdNH>
0

>  <NssNH>
0

>  <NaaNH>
0

>  <NtN>
0

>  <NsssNH>
0

>  <NdsN>
0

>  <NaaN>
0

>  <NsssN>
2

>  <NddsN>
0

>  <NaasN>
0

>  <NssssN>
0

>  <NsOH>
0

>  <NdO>
2

>  <NssO>
1

>  <NaaO>
0

>  <NsF>
0

>  <NsSiH3>
0

>  <NssSiH2>
0

>  <NsssSiH>
0

>  <NssssSi>
0

>  <NsPH2>
0

>  <NssPH>
0

>  <NsssP>
0

>  <NdsssP>
0

>  <NsssssP>
0

>  <NsSH>
0

>  <NdS>
0

>  <NssS>
0

>  <NaaS>
0

>  <NdssS>
0

>  <NddssS>
0

>  <NsCl>
1

>  <NsBr>
0

>  <NsI>
0

>  <fragCpx>
124.06

>  <fMF>
0.41

>  <nHBAcc>
3

>  <nHBDon>
0

>  <Kier1>
18.78

>  <Kier2>
8.59

>  <Lipinski>
1

>  <GhoseFilter>
1

>  <FilterItLogS>
-4.16

>  <VMcGowan>
247.31

>  <LabuteASA>
144.93

>  <PEOE_VSA1>
4.74

>  <PEOE_VSA2>
14.59

>  <PEOE_VSA3>
4.79

>  <PEOE_VSA4>
0

>  <PEOE_VSA5>
0

>  <PEOE_VSA6>
29.8

>  <PEOE_VSA7>
37.26

>  <PEOE_VSA8>
23.68

>  <PEOE_VSA9>
17.98

>  <PEOE_VSA10>
0

>  <PEOE_VSA11>
0

>  <PEOE_VSA12>
5.91

>  <PEOE_VSA13>
0

>  <SMR_VSA1>
14.33

>  <SMR_VSA2>
0

>  <SMR_VSA3>
0

>  <SMR_VSA4>
0

>  <SMR_VSA5>
13.34

>  <SMR_VSA6>
22.95

>  <SMR_VSA7>
53.55

>  <SMR_VSA8>
0

>  <SMR_VSA9>
0

>  <SlogP_VSA1>
9.8

>  <SlogP_VSA2>
25.15

>  <SlogP_VSA3>
9.53

>  <SlogP_VSA4>
0

>  <SlogP_VSA5>
13.34

>  <SlogP_VSA6>
48.53

>  <SlogP_VSA7>
5.02

>  <SlogP_VSA8>
0

>  <SlogP_VSA9>
0

>  <SlogP_VSA10>
21.86

>  <SlogP_VSA11>
0

>  <EState_VSA1>
6.09

>  <EState_VSA2>
25.48

>  <EState_VSA3>
16.4

>  <EState_VSA4>
5.69

>  <EState_VSA5>
4.9

>  <EState_VSA6>
30.02

>  <EState_VSA7>
30.33

>  <EState_VSA8>
0

>  <EState_VSA9>
16.34

>  <EState_VSA10>
9.59

>  <VSA_EState1>
5.12

>  <VSA_EState2>
28.09

>  <VSA_EState3>
0.49

>  <VSA_EState4>
1.91

>  <VSA_EState5>
-0.1

>  <VSA_EState6>
14.44

>  <VSA_EState7>
-0.27

>  <VSA_EState8>
2.28

>  <VSA_EState9>
0

>  <apol>
48.18

>  <bpol>
24.46

>  <nRing>
3

>  <nHRing>
1

>  <naRing>
2

>  <naHRing>
0

>  <nARing 2>
1

>  <nAHRing 2>
1

>  <nFRing>
1

>  <nFHRing>
1

>  <nFaRing>
0

>  <nFaHRing>
0

>  <nFARing 2>
1

>  <nFAHRing 2>
1

>  <nRot>
2

>  <SLogP>
4.37

>  <SMR>
94.03

>  <TopoPSA(NO)>
49.85

>  <TopoPSA>
49.85

>  <JGI1>
0.15

>  <JGI2>
0.08

>  <JGI3>
0.05

>  <JGI4>
0.04

>  <JGI5>
0.02

>  <Diameter>
11

>  <Radius>
6

>  <TMWC10>
125.43

>  <TSRW10>
66.65

>  <MW>
344.09

>  <AMW>
8.39

>  <WPath>
1208

>  <WPol>
43

>  <Zagreb1>
124

>  <Zagreb2>
147

>  <mZagreb2>
5.42

>  <yes>


>  <nAR-cont>
0.816016

>  <nHA-cont>
0.94700071

>  <MWHBN>
0.161728005

>  <MWHBN-cont>
0.959320715

>  <TPSA-cont>
0.652016045

>  <pka_cont>
0.97

>  <yes.1>


>  <BBB_SCORE>
4.991029873

>  <MMFF94 Energy>
12.987

$$$$
Compound 1245
Actelion Java MolfileCreator 2.0

  0  0  0  0  0  0              0 V3000
M  V30 BEGIN CTAB
M  V30 COUNTS 55 57 0 0 0
M  V30 BEGIN ATOM
M  V30 1 Cl -5.328 -5.328 0.4028 0
M  V30 2 C -4.0545 -5.1313 -0.7488 0
M  V30 3 C -4.1483 -5.6089 -2.0595 0
M  V30 4 C -2.8956 -4.4679 -0.3295 0
M  V30 5 Cl -5.5444 -6.4403 -2.6469 0
M  V30 6 C -3.0846 -5.4173 -2.945 0
M  V30 7 C -1.8202 -4.2807 -1.2112 0
M  V30 8 C -1.9286 -4.7547 -2.525 0
M  V30 9 C -0.5781 -3.545 -0.7595 0
M  V30 10 C -0.6298 -2.0358 -0.9784 0
M  V30 11 O -1.5903 -1.4931 -1.5268 0
M  V30 12 N 0.4624 -1.2928 -0.5314 0
M  V30 13 C 0.3842 0.1948 -0.6447 0 CFG=2
M  V30 14 C 1.5719 -1.8395 0.2754 0
M  V30 15 C 1.7746 0.8267 -0.8929 0
M  V30 16 C -0.3222 0.7983 0.6023 0
M  V30 17 C 2.9159 -1.1634 -0.0233 0
M  V30 18 N 2.7747 0.2822 0.026 0
M  V30 19 N -0.5595 2.2458 0.524 0
M  V30 20 C 3.4106 1.0153 1.0046 0
M  V30 21 C -1.0498 2.7889 1.7925 0
M  V30 22 C -1.5838 2.611 -0.4586 0
M  V30 23 O 4.1599 0.5257 1.8419 0
M  V30 24 O 3.1011 2.3356 0.9481 0
M  V30 25 C -1.548 4.1686 1.3964 0
M  V30 26 C -1.9594 4.0334 -0.0649 0
M  V30 27 C 3.6887 3.137 1.9776 0
M  V30 28 C 3.1687 4.5531 1.8241 0
M  V30 29 H -2.8353 -4.0875 0.6881 0
M  V30 30 H -3.152 -5.7761 -3.9693 0
M  V30 31 H -1.1184 -4.6019 -3.2355 0
M  V30 32 H -0.4222 -3.7447 0.3073 0
M  V30 33 H 0.2881 -3.9469 -1.2984 0
M  V30 34 H -0.2309 0.4258 -1.5226 0
M  V30 35 H 1.2977 -1.6824 1.3254 0
M  V30 36 H 1.6758 -2.9159 0.1241 0
M  V30 37 H 2.1116 0.5613 -1.903 0
M  V30 38 H 1.7315 1.9183 -0.8545 0
M  V30 39 H 0.3048 0.5943 1.4801 0
M  V30 40 H -1.2671 0.2671 0.7806 0
M  V30 41 H 3.2505 -1.4241 -1.0342 0
M  V30 42 H 3.6761 -1.516 0.6804 0
M  V30 43 H -0.2603 2.8487 2.5483 0
M  V30 44 H -1.8788 2.1934 2.1959 0
M  V30 45 H -1.2078 2.5739 -1.4854 0
M  V30 46 H -2.4663 1.9628 -0.3854 0
M  V30 47 H -0.7452 4.91 1.4874 0
M  V30 48 H -2.3806 4.4965 2.0267 0
M  V30 49 H -1.4172 4.766 -0.6738 0
M  V30 50 H -3.0312 4.2121 -0.1996 0
M  V30 51 H 4.7791 3.1275 1.8733 0
M  V30 52 H 3.4071 2.7468 2.9621 0
M  V30 53 H 3.5907 5.2093 2.5903 0
M  V30 54 H 3.4231 4.9524 0.8368 0
M  V30 55 H 2.0766 4.573 1.9034 0
M  V30 END ATOM
M  V30 BEGIN BOND
M  V30 1 1 1 2
M  V30 2 2 2 3
M  V30 3 1 2 4
M  V30 4 1 3 5
M  V30 5 1 3 6
M  V30 6 2 4 7
M  V30 7 2 6 8
M  V30 8 1 7 9
M  V30 9 1 9 10
M  V30 10 2 10 11
M  V30 11 1 10 12
M  V30 12 1 12 13
M  V30 13 1 12 14
M  V30 14 1 13 15
M  V30 15 1 13 16
M  V30 16 1 14 17
M  V30 17 1 15 18
M  V30 18 1 16 19
M  V30 19 1 18 20
M  V30 20 1 19 21
M  V30 21 1 19 22
M  V30 22 2 20 23
M  V30 23 1 20 24
M  V30 24 1 21 25
M  V30 25 1 22 26
M  V30 26 1 24 27
M  V30 27 1 27 28
M  V30 28 1 7 8
M  V30 29 1 17 18
M  V30 30 1 25 26
M  V30 31 1 4 29
M  V30 32 1 6 30
M  V30 33 1 8 31
M  V30 34 1 9 32
M  V30 35 1 9 33
M  V30 36 1 13 34
M  V30 37 1 14 35
M  V30 38 1 14 36
M  V30 39 1 15 37
M  V30 40 1 15 38
M  V30 41 1 16 39
M  V30 42 1 16 40
M  V30 43 1 17 41
M  V30 44 1 17 42
M  V30 45 1 21 43
M  V30 46 1 21 44
M  V30 47 1 22 45
M  V30 48 1 22 46
M  V30 49 1 25 47
M  V30 50 1 25 48
M  V30 51 1 26 49
M  V30 52 1 26 50
M  V30 53 1 27 51
M  V30 54 1 27 52
M  V30 55 1 28 53
M  V30 56 1 28 54
M  V30 57 1 28 55
M  V30 END BOND
M  V30 BEGIN COLLECTION
M  V30 MDLV30/STEABS ATOMS=(1 13)
M  V30 END COLLECTION
M  V30 END CTAB
M  END
>  <Column 1>
1477

>  <level_0>
1627

>  <index>
1627

>  <Unnamed: 0>
1627

>  <NO.>
1639

>  <Name>
gr89696_et

>  <IUPAC_name>
ethyl (3s)-4-[2-(3-4-dichlorophenyl)acetyl]-3-(pyrrolidin-1-ylmethyl)piperazine-1-carboxylate

>  <SMILES>
CCOC(=O)N1CCN(C(=O)Cc2ccc(Cl)c(Cl)c2)[C@@H](CN2CCCC2)C1

>  <CID>
44310754

>  <logBB>


>  <BBB+/BBB->
BBB+

>  <Inchi>
InChI=1S/C20H27Cl2N3O3/c1-2-28-20(27)24-9-10-25(16(14-24)13-23-7-3-4-8-23)19(26)12-15-5-6-17(21)18(22)11-15/h5-6-11-16H-2-4-7-10-12-14H2-1H3/t16-/m0/s1

>  <threshold>
-1

>  <reference>
R1|R13|R28|R9|R24|R27|R30|

>  <group>
B

>  <Class>
1

>  <ABC>
21.49

>  <ABCGG>
17.58

>  <nAcid>
0

>  <nBase>
1

>  <nAromAtom>
6

>  <nAromBond>
6

>  <nAtom>
55

>  <nHeavyAtom>
28

>  <nSpiro>
0

>  <nBridgehead>
0

>  <nHetero>
8

>  <nN>
3

>  <nO>
3

>  <nF>
0

>  <BalabanJ>
1.59

>  <BertzCT>
709.94

>  <nBonds>
57

>  <nBondsO>
30

>  <nBondsS>
49

>  <nBondsD>
2

>  <nBondsT>
0

>  <nBondsA>
6

>  <nBondsM>
8

>  <nBondsKS>
52

>  <nBondsKD>
5

>  <RNCG>
0.19

>  <RPCG>
0.17

>  <FCSP3>
0.6

>  <SZ>
37.67

>  <Sm>
35.66

>  <Sv>
33.91

>  <Sse>
55.5

>  <Sp>
36.81

>  <Si>
62.41

>  <MZ>
0.68

>  <Mm>
0.65

>  <Mv>
0.62

>  <Mse>
1.01

>  <Mp>
0.67

>  <Mi>
1.13

>  <NsCH3>
1

>  <NdCH2>
0

>  <NssCH2>
10

>  <NtCH>
0

>  <NdsCH>
0

>  <NaaCH>
3

>  <NsssCH>
1

>  <NddC>
0

>  <NtsC>
0

>  <NdssC>
2

>  <NaasC>
3

>  <NaaaC>
0

>  <NssssC>
0

>  <NsNH3>
0

>  <NsNH2>
0

>  <NssNH2>
0

>  <NdNH>
0

>  <NssNH>
0

>  <NaaNH>
0

>  <NtN>
0

>  <NsssNH>
0

>  <NdsN>
0

>  <NaaN>
0

>  <NsssN>
3

>  <NddsN>
0

>  <NaasN>
0

>  <NssssN>
0

>  <NsOH>
0

>  <NdO>
2

>  <NssO>
1

>  <NaaO>
0

>  <NsF>
0

>  <NsSiH3>
0

>  <NssSiH2>
0

>  <NsssSiH>
0

>  <NssssSi>
0

>  <NsPH2>
0

>  <NssPH>
0

>  <NsssP>
0

>  <NdsssP>
0

>  <NsssssP>
0

>  <NsSH>
0

>  <NdS>
0

>  <NssS>
0

>  <NaaS>
0

>  <NdssS>
0

>  <NddssS>
0

>  <NsCl>
2

>  <NsBr>
0

>  <NsI>
0

>  <fragCpx>
144.08

>  <fMF>
0.36

>  <nHBAcc>
4

>  <nHBDon>
0

>  <Kier1>
22.68

>  <Kier2>
10.86

>  <Lipinski>
1

>  <GhoseFilter>
1

>  <FilterItLogS>
-4.31

>  <VMcGowan>
310.61

>  <LabuteASA>
175.85

>  <PEOE_VSA1>
19.44

>  <PEOE_VSA2>
4.79

>  <PEOE_VSA3>
4.79

>  <PEOE_VSA4>
0

>  <PEOE_VSA5>
0

>  <PEOE_VSA6>
29.27

>  <PEOE_VSA7>
50.55

>  <PEOE_VSA8>
26.18

>  <PEOE_VSA9>
29.11

>  <PEOE_VSA10>
0

>  <PEOE_VSA11>
0

>  <PEOE_VSA12>
5.91

>  <PEOE_VSA13>
0

>  <SMR_VSA1>
14.33

>  <SMR_VSA2>
0

>  <SMR_VSA3>
14.7

>  <SMR_VSA4>
0

>  <SMR_VSA5>
32.23

>  <SMR_VSA6>
45.88

>  <SMR_VSA7>
33.81

>  <SMR_VSA8>
0

>  <SMR_VSA9>
0

>  <SlogP_VSA1>
0

>  <SlogP_VSA2>
78.62

>  <SlogP_VSA3>
15.95

>  <SlogP_VSA4>
0

>  <SlogP_VSA5>
25.33

>  <SlogP_VSA6>
18.2

>  <SlogP_VSA7>
10.05

>  <SlogP_VSA8>
0

>  <SlogP_VSA9>
0

>  <SlogP_VSA10>
4.79

>  <SlogP_VSA11>
0

>  <EState_VSA1>
0

>  <EState_VSA2>
24.46

>  <EState_VSA3>
36.29

>  <EState_VSA4>
25.2

>  <EState_VSA5>
12.84

>  <EState_VSA6>
23.96

>  <EState_VSA7>
10.97

>  <EState_VSA8>
4.9

>  <EState_VSA9>
27.94

>  <EState_VSA10>
9.59

>  <VSA_EState1>
5.16

>  <VSA_EState2>
31.23

>  <VSA_EState3>
0.93

>  <VSA_EState4>
0.84

>  <VSA_EState5>
0.05

>  <VSA_EState6>
5.25

>  <VSA_EState7>
2.34

>  <VSA_EState8>
6.53

>  <VSA_EState9>
0

>  <apol>
61.47

>  <bpol>
36.71

>  <nRing>
3

>  <nHRing>
2

>  <naRing>
1

>  <naHRing>
0

>  <nARing 2>
2

>  <nAHRing 2>
2

>  <nFRing>
0

>  <nFHRing>
0

>  <nFaRing>
0

>  <nFaHRing>
0

>  <nFARing 2>
0

>  <nFAHRing 2>
0

>  <nRot>
5

>  <SLogP>
3.3

>  <SMR>
109.94

>  <TopoPSA(NO)>
53.09

>  <TopoPSA>
53.09

>  <JGI1>
0.2

>  <JGI2>
0.08

>  <JGI3>
0.05

>  <JGI4>
0.04

>  <JGI5>
0.03

>  <Diameter>
14

>  <Radius>
7

>  <TMWC10>
133.46

>  <TSRW10>
76.11

>  <MW>
427.14

>  <AMW>
7.77

>  <WPath>
2137

>  <WPol>
41

>  <Zagreb1>
142

>  <Zagreb2>
164

>  <mZagreb2>
6.28

>  <yes>


>  <nAR-cont>
1

>  <nHA-cont>
0.82432561

>  <MWHBN>
0.193541842

>  <MWHBN-cont>
0.997552663

>  <TPSA-cont>
0.629398833

>  <pka_cont>
0.97

>  <yes.1>


>  <BBB_SCORE>
5.06445227

>  <MMFF94 Energy>
44.491

$$$$
Compound 1246
Actelion Java MolfileCreator 2.0

  0  0  0  0  0  0              0 V3000
M  V30 BEGIN CTAB
M  V30 COUNTS 20 19 0 0 0
M  V30 BEGIN ATOM
M  V30 1 Cl -4.1656 1.8313 0.8321 0
M  V30 2 C -2.6671 0.8334 0.7621 0
M  V30 3 Cl -2.8702 -0.3676 -0.5491 0
M  V30 4 Cl -2.5336 -0.0525 2.3271 0
M  V30 5 C -1.4104 1.7653 0.5632 0 CFG=2
M  V30 6 O -1.3945 2.4644 -0.6775 0
M  V30 7 N -0.1081 1.1532 0.7359 0
M  V30 8 C 0.505 0.3787 -0.1917 0
M  V30 9 O 0.0948 0.2176 -1.3304 0
M  V30 10 O 1.6214 -0.1625 0.3433 0
M  V30 11 C 2.3807 -1.0123 -0.5299 0
M  V30 12 C 1.8392 -2.429 -0.4823 0
M  V30 13 H -1.4502 2.5397 1.3396 0
M  V30 14 H -1.1279 1.8056 -1.352 0
M  V30 15 H 0.3479 1.1989 1.6367 0
M  V30 16 H 3.4141 -1.0007 -0.1681 0
M  V30 17 H 2.3935 -0.6214 -1.5539 0
M  V30 18 H 2.4469 -3.0973 -1.0988 0
M  V30 19 H 1.8339 -2.804 0.5464 0
M  V30 20 H 0.8053 -2.467 -0.8401 0
M  V30 END ATOM
M  V30 BEGIN BOND
M  V30 1 1 1 2
M  V30 2 1 2 3
M  V30 3 1 2 4
M  V30 4 1 2 5
M  V30 5 1 5 6
M  V30 6 1 5 7
M  V30 7 1 7 8
M  V30 8 2 8 9
M  V30 9 1 8 10
M  V30 10 1 10 11
M  V30 11 1 11 12
M  V30 12 1 5 13
M  V30 13 1 6 14
M  V30 14 1 7 15
M  V30 15 1 11 16
M  V30 16 1 11 17
M  V30 17 1 12 18
M  V30 18 1 12 19
M  V30 19 1 12 20
M  V30 END BOND
M  V30 BEGIN COLLECTION
M  V30 MDLV30/STERAC1 ATOMS=(1 5)
M  V30 END COLLECTION
M  V30 END CTAB
M  END
>  <Column 1>
1478

>  <level_0>
1628

>  <index>
1628

>  <Unnamed: 0>
1628

>  <NO.>
1640

>  <Name>
carbocloral

>  <IUPAC_name>
ethyl n-(2-2-2-trichloro-1-hydroxyethyl)carbamate

>  <SMILES>
CCOC(=O)NC(O)C(Cl)(Cl)Cl

>  <CID>
10944

>  <logBB>


>  <BBB+/BBB->
BBB+

>  <Inchi>
InChI=1S/C5H8Cl3NO3/c1-2-12-4(11)9-3(10)5(6-7)8/h3-10H-2H2-1H3-(H-9-11)

>  <threshold>
-1

>  <reference>
R1|R19|R6|R27|R27|R30|

>  <group>
B

>  <Class>
1

>  <ABC>
8.41

>  <ABCGG>
8.66

>  <nAcid>
0

>  <nBase>
0

>  <nAromAtom>
0

>  <nAromBond>
0

>  <nAtom>
20

>  <nHeavyAtom>
12

>  <nSpiro>
0

>  <nBridgehead>
0

>  <nHetero>
7

>  <nN>
1

>  <nO>
3

>  <nF>
0

>  <BalabanJ>
3.76

>  <BertzCT>
158.51

>  <nBonds>
19

>  <nBondsO>
11

>  <nBondsS>
18

>  <nBondsD>
1

>  <nBondsT>
0

>  <nBondsA>
0

>  <nBondsM>
1

>  <nBondsKS>
18

>  <nBondsKD>
1

>  <RNCG>
0.28

>  <RPCG>
0.26

>  <FCSP3>
0.8

>  <SZ>
20

>  <Sm>
19.69

>  <Sv>
13.34

>  <Sse>
21.5

>  <Sp>
14.21

>  <Si>
23.03

>  <MZ>
1

>  <Mm>
0.98

>  <Mv>
0.67

>  <Mse>
1.08

>  <Mp>
0.71

>  <Mi>
1.15

>  <NsCH3>
1

>  <NdCH2>
0

>  <NssCH2>
1

>  <NtCH>
0

>  <NdsCH>
0

>  <NaaCH>
0

>  <NsssCH>
1

>  <NddC>
0

>  <NtsC>
0

>  <NdssC>
1

>  <NaasC>
0

>  <NaaaC>
0

>  <NssssC>
1

>  <NsNH3>
0

>  <NsNH2>
0

>  <NssNH2>
0

>  <NdNH>
0

>  <NssNH>
1

>  <NaaNH>
0

>  <NtN>
0

>  <NsssNH>
0

>  <NdsN>
0

>  <NaaN>
0

>  <NsssN>
0

>  <NddsN>
0

>  <NaasN>
0

>  <NssssN>
0

>  <NsOH>
1

>  <NdO>
1

>  <NssO>
1

>  <NaaO>
0

>  <NsF>
0

>  <NsSiH3>
0

>  <NssSiH2>
0

>  <NsssSiH>
0

>  <NssssSi>
0

>  <NsPH2>
0

>  <NssPH>
0

>  <NsssP>
0

>  <NdsssP>
0

>  <NsssssP>
0

>  <NsSH>
0

>  <NdS>
0

>  <NssS>
0

>  <NaaS>
0

>  <NdssS>
0

>  <NddssS>
0

>  <NsCl>
3

>  <NsBr>
0

>  <NsI>
0

>  <fragCpx>
11.07

>  <fMF>
0

>  <nHBAcc>
3

>  <nHBDon>
2

>  <Kier1>
12

>  <Kier2>
4.89

>  <Lipinski>
1

>  <GhoseFilter>
1

>  <FilterItLogS>
-1.79

>  <VMcGowan>
141.32

>  <LabuteASA>
84.73

>  <PEOE_VSA1>
9.84

>  <PEOE_VSA2>
5.32

>  <PEOE_VSA3>
4.79

>  <PEOE_VSA4>
0

>  <PEOE_VSA5>
0

>  <PEOE_VSA6>
34.8

>  <PEOE_VSA7>
6.92

>  <PEOE_VSA8>
0

>  <PEOE_VSA9>
6.61

>  <PEOE_VSA10>
0

>  <PEOE_VSA11>
6.23

>  <PEOE_VSA12>
3.79

>  <PEOE_VSA13>
0

>  <SMR_VSA1>
14.64

>  <SMR_VSA2>
0

>  <SMR_VSA3>
5.32

>  <SMR_VSA4>
0

>  <SMR_VSA5>
16.94

>  <SMR_VSA6>
6.61

>  <SMR_VSA7>
0

>  <SMR_VSA8>
0

>  <SMR_VSA9>
0

>  <SlogP_VSA1>
5.32

>  <SlogP_VSA2>
27.83

>  <SlogP_VSA3>
4.74

>  <SlogP_VSA4>
0

>  <SlogP_VSA5>
6.92

>  <SlogP_VSA6>
0

>  <SlogP_VSA7>
0

>  <SlogP_VSA8>
0

>  <SlogP_VSA9>
0

>  <SlogP_VSA10>
4.79

>  <SlogP_VSA11>
0

>  <EState_VSA1>
16.11

>  <EState_VSA2>
6.61

>  <EState_VSA3>
0

>  <EState_VSA4>
0

>  <EState_VSA5>
0

>  <EState_VSA6>
6.92

>  <EState_VSA7>
5.32

>  <EState_VSA8>
4.74

>  <EState_VSA9>
39.91

>  <EState_VSA10>
4.79

>  <VSA_EState1>
2.47

>  <VSA_EState2>
10.63

>  <VSA_EState3>
10.89

>  <VSA_EState4>
0

>  <VSA_EState5>
0

>  <VSA_EState6>
0

>  <VSA_EState7>
-2.42

>  <VSA_EState8>
1.79

>  <VSA_EState9>
0

>  <apol>
23.73

>  <bpol>
12.73

>  <nRing>
0

>  <nHRing>
0

>  <naRing>
0

>  <naHRing>
0

>  <nARing 2>
0

>  <nAHRing 2>
0

>  <nFRing>
0

>  <nFHRing>
0

>  <nFaRing>
0

>  <nFaHRing>
0

>  <nFARing 2>
0

>  <nFAHRing 2>
0

>  <nRot>
2

>  <SLogP>
1.42

>  <SMR>
46.45

>  <TopoPSA(NO)>
58.56

>  <TopoPSA>
58.56

>  <JGI1>
0.41

>  <JGI2>
0.12

>  <JGI3>
0.06

>  <JGI4>
0.06

>  <JGI5>
0.02

>  <Diameter>
7

>  <Radius>
4

>  <TMWC10>
87.03

>  <TSRW10>
41.74

>  <MW>
234.96

>  <AMW>
11.75

>  <WPath>
216

>  <WPol>
13

>  <Zagreb1>
52

>  <Zagreb2>
54

>  <mZagreb2>
2.75

>  <yes>


>  <nAR-cont>
0.336376

>  <nHA-cont>
0.785745021

>  <MWHBN>
0.326191799

>  <MWHBN-cont>
0.756089886

>  <TPSA-cont>
0.591214836

>  <pka_cont>
0.97

>  <yes.1>


>  <BBB_SCORE>
3.923685522

>  <MMFF94 Energy>
-28.051

$$$$
Compound 1247
Actelion Java MolfileCreator 2.0

  0  0  0  0  0  0              0 V3000
M  V30 BEGIN CTAB
M  V30 COUNTS 31 31 0 0 0
M  V30 BEGIN ATOM
M  V30 1 O -2.18 -0.7003 -1.8683 0
M  V30 2 C -1.8852 0.1355 -1.023 0
M  V30 3 O -2.7608 0.8188 -0.2446 0
M  V30 4 N -0.5995 0.518 -0.721 0
M  V30 5 C -4.1469 0.5138 -0.453 0
M  V30 6 N 0.5117 -0.0503 -1.3911 0
M  V30 7 C -4.7092 1.3679 -1.5738 0
M  V30 8 C 1.181 -1.0627 -0.5467 0 CFG=2
M  V30 9 C 1.8112 -0.453 0.6971 0
M  V30 10 C 2.2365 -1.7926 -1.3831 0
M  V30 11 C 2.7032 0.6286 0.6107 0
M  V30 12 C 1.5067 -0.9723 1.9651 0
M  V30 13 C 3.2739 1.1757 1.7611 0
M  V30 14 C 2.0788 -0.4239 3.1148 0
M  V30 15 C 2.9618 0.649 3.0124 0
M  V30 16 H -0.4542 1.2151 0.0029 0
M  V30 17 H -4.6688 0.7444 0.4815 0
M  V30 18 H -4.2962 -0.5543 -0.6485 0
M  V30 19 H 0.1444 -0.5264 -2.2246 0
M  V30 20 H -5.7801 1.1855 -1.7005 0
M  V30 21 H -4.5545 2.431 -1.3618 0
M  V30 22 H -4.2042 1.1554 -2.5213 0
M  V30 23 H 0.4333 -1.809 -0.2451 0
M  V30 24 H 3.0022 -1.109 -1.7679 0
M  V30 25 H 1.7758 -2.2952 -2.2411 0
M  V30 26 H 2.7463 -2.5571 -0.7858 0
M  V30 27 H 2.9505 1.054 -0.3599 0
M  V30 28 H 0.8196 -1.8096 2.0663 0
M  V30 29 H 3.9615 2.0133 1.6789 0
M  V30 30 H 1.8357 -0.8352 4.0912 0
M  V30 31 H 3.4071 1.0747 3.9078 0
M  V30 END ATOM
M  V30 BEGIN BOND
M  V30 1 2 1 2
M  V30 2 1 2 3
M  V30 3 1 2 4
M  V30 4 1 3 5
M  V30 5 1 4 6
M  V30 6 1 5 7
M  V30 7 1 6 8
M  V30 8 1 8 9
M  V30 9 1 8 10
M  V30 10 2 9 11
M  V30 11 1 9 12
M  V30 12 1 11 13
M  V30 13 2 12 14
M  V30 14 2 13 15
M  V30 15 1 14 15
M  V30 16 1 4 16
M  V30 17 1 5 17
M  V30 18 1 5 18
M  V30 19 1 6 19
M  V30 20 1 7 20
M  V30 21 1 7 21
M  V30 22 1 7 22
M  V30 23 1 8 23
M  V30 24 1 10 24
M  V30 25 1 10 25
M  V30 26 1 10 26
M  V30 27 1 11 27
M  V30 28 1 12 28
M  V30 29 1 13 29
M  V30 30 1 14 30
M  V30 31 1 15 31
M  V30 END BOND
M  V30 BEGIN COLLECTION
M  V30 MDLV30/STERAC1 ATOMS=(1 8)
M  V30 END COLLECTION
M  V30 END CTAB
M  END
>  <Column 1>
1479

>  <level_0>
1629

>  <index>
1629

>  <Unnamed: 0>
1629

>  <NO.>
1641

>  <Name>
carbenzide

>  <IUPAC_name>
ethyl n-(1-phenylethylamino)carbamate

>  <SMILES>
CCOC(=O)NNC(C)c1ccccc1

>  <CID>
18608

>  <logBB>


>  <BBB+/BBB->
BBB+

>  <Inchi>
InChI=1S/C11H16N2O2/c1-3-15-11(14)13-12-9(2)10-7-5-4-6-8-10/h4-9-12H-3H2-1-2H3-(H-13-14)

>  <threshold>
-1

>  <reference>
R1|R19|R6|R27|R27|R30|

>  <group>
B

>  <Class>
1

>  <ABC>
10.78

>  <ABCGG>
9.78

>  <nAcid>
0

>  <nBase>
0

>  <nAromAtom>
6

>  <nAromBond>
6

>  <nAtom>
31

>  <nHeavyAtom>
15

>  <nSpiro>
0

>  <nBridgehead>
0

>  <nHetero>
4

>  <nN>
2

>  <nO>
2

>  <nF>
0

>  <BalabanJ>
2.13

>  <BertzCT>
300.72

>  <nBonds>
31

>  <nBondsO>
15

>  <nBondsS>
24

>  <nBondsD>
1

>  <nBondsT>
0

>  <nBondsA>
6

>  <nBondsM>
7

>  <nBondsKS>
27

>  <nBondsKD>
4

>  <RNCG>
0.29

>  <RPCG>
0.27

>  <FCSP3>
0.36

>  <SZ>
18.67

>  <Sm>
17.34

>  <Sv>
18.28

>  <Sse>
31.09

>  <Sp>
19.67

>  <Si>
35.32

>  <MZ>
0.6

>  <Mm>
0.56

>  <Mv>
0.59

>  <Mse>
1

>  <Mp>
0.63

>  <Mi>
1.14

>  <NsCH3>
2

>  <NdCH2>
0

>  <NssCH2>
1

>  <NtCH>
0

>  <NdsCH>
0

>  <NaaCH>
5

>  <NsssCH>
1

>  <NddC>
0

>  <NtsC>
0

>  <NdssC>
1

>  <NaasC>
1

>  <NaaaC>
0

>  <NssssC>
0

>  <NsNH3>
0

>  <NsNH2>
0

>  <NssNH2>
0

>  <NdNH>
0

>  <NssNH>
2

>  <NaaNH>
0

>  <NtN>
0

>  <NsssNH>
0

>  <NdsN>
0

>  <NaaN>
0

>  <NsssN>
0

>  <NddsN>
0

>  <NaasN>
0

>  <NssssN>
0

>  <NsOH>
0

>  <NdO>
1

>  <NssO>
1

>  <NaaO>
0

>  <NsF>
0

>  <NsSiH3>
0

>  <NssSiH2>
0

>  <NsssSiH>
0

>  <NssssSi>
0

>  <NsPH2>
0

>  <NssPH>
0

>  <NsssP>
0

>  <NdsssP>
0

>  <NsssssP>
0

>  <NsSH>
0

>  <NdS>
0

>  <NssS>
0

>  <NaaS>
0

>  <NdssS>
0

>  <NddssS>
0

>  <NsCl>
0

>  <NsBr>
0

>  <NsI>
0

>  <fragCpx>
15.04

>  <fMF>
0.19

>  <nHBAcc>
3

>  <nHBDon>
2

>  <Kier1>
13.07

>  <Kier2>
7.3

>  <Lipinski>
1

>  <GhoseFilter>
1

>  <FilterItLogS>
-2.67

>  <VMcGowan>
169.49

>  <LabuteASA>
89.6

>  <PEOE_VSA1>
4.74

>  <PEOE_VSA2>
5.43

>  <PEOE_VSA3>
10.22

>  <PEOE_VSA4>
0

>  <PEOE_VSA5>
0

>  <PEOE_VSA6>
30.33

>  <PEOE_VSA7>
19.41

>  <PEOE_VSA8>
6.04

>  <PEOE_VSA9>
6.61

>  <PEOE_VSA10>
0

>  <PEOE_VSA11>
0

>  <PEOE_VSA12>
0

>  <PEOE_VSA13>
0

>  <SMR_VSA1>
9.53

>  <SMR_VSA2>
0

>  <SMR_VSA3>
10.85

>  <SMR_VSA4>
0

>  <SMR_VSA5>
19.89

>  <SMR_VSA6>
6.61

>  <SMR_VSA7>
35.9

>  <SMR_VSA8>
0

>  <SMR_VSA9>
0

>  <SlogP_VSA1>
10.85

>  <SlogP_VSA2>
12.7

>  <SlogP_VSA3>
4.74

>  <SlogP_VSA4>
0

>  <SlogP_VSA5>
25.45

>  <SlogP_VSA6>
30.33

>  <SlogP_VSA7>
0

>  <SlogP_VSA8>
0

>  <SlogP_VSA9>
0

>  <SlogP_VSA10>
4.79

>  <SlogP_VSA11>
0

>  <EState_VSA1>
6.09

>  <EState_VSA2>
6.04

>  <EState_VSA3>
6.61

>  <EState_VSA4>
5.56

>  <EState_VSA5>
0

>  <EState_VSA6>
6.92

>  <EState_VSA7>
37.26

>  <EState_VSA8>
10.85

>  <EState_VSA9>
4.74

>  <EState_VSA10>
4.79

>  <VSA_EState1>
4.72

>  <VSA_EState2>
10.98

>  <VSA_EState3>
0

>  <VSA_EState4>
6.44

>  <VSA_EState5>
0

>  <VSA_EState6>
9.9

>  <VSA_EState7>
-0.46

>  <VSA_EState8>
4.09

>  <VSA_EState9>
0

>  <apol>
32.84

>  <bpol>
18.66

>  <nRing>
1

>  <nHRing>
0

>  <naRing>
1

>  <naHRing>
0

>  <nARing 2>
0

>  <nAHRing 2>
0

>  <nFRing>
0

>  <nFHRing>
0

>  <nFaRing>
0

>  <nFaHRing>
0

>  <nFARing 2>
0

>  <nFAHRing 2>
0

>  <nRot>
4

>  <SLogP>
2

>  <SMR>
58.15

>  <TopoPSA(NO)>
50.36

>  <TopoPSA>
50.36

>  <JGI1>
0.17

>  <JGI2>
0.09

>  <JGI3>
0.04

>  <JGI4>
0.03

>  <JGI5>
0.03

>  <Diameter>
10

>  <Radius>
5

>  <TMWC10>
96.03

>  <TSRW10>
45.62

>  <MW>
208.12

>  <AMW>
6.71

>  <WPath>
426

>  <WPol>
17

>  <Zagreb1>
66

>  <Zagreb2>
71

>  <mZagreb2>
3.61

>  <yes>


>  <nAR-cont>
0.336376

>  <nHA-cont>
0.92539861

>  <MWHBN>
0.34658766

>  <MWHBN-cont>
0.682953869

>  <TPSA-cont>
0.648455928

>  <pka_cont>
0.97

>  <yes.1>


>  <BBB_SCORE>
4.06811727

>  <MMFF94 Energy>
30.356

$$$$
Compound 1248
Actelion Java MolfileCreator 2.0

  0  0  0  0  0  0              0 V3000
M  V30 BEGIN CTAB
M  V30 COUNTS 40 41 0 0 0
M  V30 BEGIN ATOM
M  V30 1 F -2.6714 -0.471 6.2945 0
M  V30 2 C -1.5351 -0.343 5.597 0
M  V30 3 C -1.2401 0.8673 4.9838 0
M  V30 4 C -0.6659 -1.4222 5.5019 0
M  V30 5 C -0.0545 1.001 4.2588 0
M  V30 6 C 0.5193 -1.2905 4.7759 0
M  V30 7 C 0.8345 -0.0802 4.1331 0
M  V30 8 C 2.1449 0.0455 3.3845 0
M  V30 9 N 2.0689 0.9319 2.2383 0
M  V30 10 C 1.4894 0.633 1.0206 0
M  V30 11 C 0.8472 -0.5791 0.7391 0
M  V30 12 C 1.5389 1.5891 -3.0E-4 0
M  V30 13 C 0.2919 -0.8527 -0.5215 0
M  V30 14 C 0.9535 1.359 -1.2496 0
M  V30 15 N -0.353 -2.0756 -0.7377 0
M  V30 16 C 0.3152 0.1482 -1.5107 0
M  V30 17 N -0.3787 -0.0941 -2.7096 0
M  V30 18 C -0.2026 0.511 -3.9177 0
M  V30 19 O 0.6139 1.3701 -4.2134 0
M  V30 20 O -1.1029 -0.0172 -4.791 0
M  V30 21 C -1.0302 0.529 -6.1136 0
M  V30 22 C -2.0881 -0.1478 -6.9634 0
M  V30 23 H -1.9325 1.6983 5.0706 0
M  V30 24 H -0.9154 -2.3564 5.9944 0
M  V30 25 H 0.1671 1.9516 3.7784 0
M  V30 26 H 1.1961 -2.1399 4.7124 0
M  V30 27 H 2.5177 -0.938 3.0744 0
M  V30 28 H 2.8846 0.4497 4.0864 0
M  V30 29 H 2.4958 1.8433 2.346 0
M  V30 30 H 0.7773 -1.3426 1.5066 0
M  V30 31 H 2.025 2.5465 0.1713 0
M  V30 32 H 0.9867 2.1535 -1.989 0
M  V30 33 H -0.3838 -2.4319 -1.6834 0
M  V30 34 H -0.3257 -2.7657 0.0023 0
M  V30 35 H -1.1018 -0.7973 -2.6788 0
M  V30 36 H -0.0382 0.3391 -6.5385 0
M  V30 37 H -1.2186 1.6079 -6.0797 0
M  V30 38 H -2.0718 0.2374 -7.9867 0
M  V30 39 H -1.9263 -1.2304 -6.9903 0
M  V30 40 H -3.0848 0.0147 -6.5399 0
M  V30 END ATOM
M  V30 BEGIN BOND
M  V30 1 1 1 2
M  V30 2 2 2 3
M  V30 3 1 2 4
M  V30 4 1 3 5
M  V30 5 2 4 6
M  V30 6 2 5 7
M  V30 7 1 7 8
M  V30 8 1 8 9
M  V30 9 1 9 10
M  V30 10 2 10 11
M  V30 11 1 10 12
M  V30 12 1 11 13
M  V30 13 2 12 14
M  V30 14 1 13 15
M  V30 15 2 13 16
M  V30 16 1 16 17
M  V30 17 1 17 18
M  V30 18 2 18 19
M  V30 19 1 18 20
M  V30 20 1 20 21
M  V30 21 1 21 22
M  V30 22 1 6 7
M  V30 23 1 14 16
M  V30 24 1 3 23
M  V30 25 1 4 24
M  V30 26 1 5 25
M  V30 27 1 6 26
M  V30 28 1 8 27
M  V30 29 1 8 28
M  V30 30 1 9 29
M  V30 31 1 11 30
M  V30 32 1 12 31
M  V30 33 1 14 32
M  V30 34 1 15 33
M  V30 35 1 15 34
M  V30 36 1 17 35
M  V30 37 1 21 36
M  V30 38 1 21 37
M  V30 39 1 22 38
M  V30 40 1 22 39
M  V30 41 1 22 40
M  V30 END BOND
M  V30 END CTAB
M  END
>  <Column 1>
1480

>  <level_0>
1630

>  <index>
1630

>  <Unnamed: 0>
1630

>  <NO.>
1642

>  <Name>
ezogabine

>  <IUPAC_name>
ethyl n-[2-amino-4-[(4-fluorophenyl)methylamino]phenyl]carbamate

>  <SMILES>
CCOC(=O)Nc1ccc(NCc2ccc(F)cc2)cc1N

>  <CID>
121892

>  <logBB>


>  <BBB+/BBB->
BBB+

>  <Inchi>
InChI=1S/C16H18FN3O2/c1-2-22-16(21)20-15-8-7-13(9-14(15)18)19-10-11-3-5-12(17)6-4-11/h3-9-19H-2-10-18H2-1H3-(H-20-21)

>  <threshold>
-1

>  <reference>
R1|R13|R19|R6|R23|R24|R27|R27|R27|R30|R30|

>  <group>
B

>  <Class>
-1

>  <ABC>
16.55

>  <ABCGG>
13.04

>  <nAcid>
0

>  <nBase>
0

>  <nAromAtom>
12

>  <nAromBond>
12

>  <nAtom>
40

>  <nHeavyAtom>
22

>  <nSpiro>
0

>  <nBridgehead>
0

>  <nHetero>
6

>  <nN>
3

>  <nO>
2

>  <nF>
1

>  <BalabanJ>
1.64

>  <BertzCT>
644.34

>  <nBonds>
41

>  <nBondsO>
23

>  <nBondsS>
28

>  <nBondsD>
1

>  <nBondsT>
0

>  <nBondsA>
12

>  <nBondsM>
13

>  <nBondsKS>
34

>  <nBondsKD>
7

>  <RNCG>
0.2

>  <RPCG>
0.18

>  <FCSP3>
0.19

>  <SZ>
26.67

>  <Sm>
25.25

>  <Sv>
25.23

>  <Sse>
40.6

>  <Sp>
26.46

>  <Si>
45.58

>  <MZ>
0.67

>  <Mm>
0.63

>  <Mv>
0.63

>  <Mse>
1.01

>  <Mp>
0.66

>  <Mi>
1.14

>  <NsCH3>
1

>  <NdCH2>
0

>  <NssCH2>
2

>  <NtCH>
0

>  <NdsCH>
0

>  <NaaCH>
7

>  <NsssCH>
0

>  <NddC>
0

>  <NtsC>
0

>  <NdssC>
1

>  <NaasC>
5

>  <NaaaC>
0

>  <NssssC>
0

>  <NsNH3>
0

>  <NsNH2>
1

>  <NssNH2>
0

>  <NdNH>
0

>  <NssNH>
2

>  <NaaNH>
0

>  <NtN>
0

>  <NsssNH>
0

>  <NdsN>
0

>  <NaaN>
0

>  <NsssN>
0

>  <NddsN>
0

>  <NaasN>
0

>  <NssssN>
0

>  <NsOH>
0

>  <NdO>
1

>  <NssO>
1

>  <NaaO>
0

>  <NsF>
1

>  <NsSiH3>
0

>  <NssSiH2>
0

>  <NsssSiH>
0

>  <NssssSi>
0

>  <NsPH2>
0

>  <NssPH>
0

>  <NsssP>
0

>  <NdsssP>
0

>  <NsssssP>
0

>  <NsSH>
0

>  <NdS>
0

>  <NssS>
0

>  <NaaS>
0

>  <NdssS>
0

>  <NddssS>
0

>  <NsCl>
0

>  <NsBr>
0

>  <NsI>
0

>  <fragCpx>
67.06

>  <fMF>
0.35

>  <nHBAcc>
4

>  <nHBDon>
3

>  <Kier1>
18.34

>  <Kier2>
9.33

>  <Lipinski>
1

>  <GhoseFilter>
1

>  <FilterItLogS>
-4.75

>  <VMcGowan>
227.92

>  <LabuteASA>
127.83

>  <PEOE_VSA1>
15.79

>  <PEOE_VSA2>
5.32

>  <PEOE_VSA3>
9.18

>  <PEOE_VSA4>
0

>  <PEOE_VSA5>
0

>  <PEOE_VSA6>
12.13

>  <PEOE_VSA7>
42.82

>  <PEOE_VSA8>
12.23

>  <PEOE_VSA9>
17.98

>  <PEOE_VSA10>
5.82

>  <PEOE_VSA11>
0

>  <PEOE_VSA12>
0

>  <PEOE_VSA13>
0

>  <SMR_VSA1>
13.92

>  <SMR_VSA2>
0

>  <SMR_VSA3>
0

>  <SMR_VSA4>
0

>  <SMR_VSA5>
13.47

>  <SMR_VSA6>
22.97

>  <SMR_VSA7>
53.85

>  <SMR_VSA8>
0

>  <SMR_VSA9>
0

>  <SlogP_VSA1>
16.37

>  <SlogP_VSA2>
12.7

>  <SlogP_VSA3>
11.28

>  <SlogP_VSA4>
5.82

>  <SlogP_VSA5>
12.49

>  <SlogP_VSA6>
42.46

>  <SlogP_VSA7>
0

>  <SlogP_VSA8>
0

>  <SlogP_VSA9>
0

>  <SlogP_VSA10>
26.25

>  <SlogP_VSA11>
0

>  <EState_VSA1>
6.09

>  <EState_VSA2>
5.82

>  <EState_VSA3>
24.53

>  <EState_VSA4>
11.25

>  <EState_VSA5>
12.13

>  <EState_VSA6>
37.26

>  <EState_VSA7>
0

>  <EState_VSA8>
10.63

>  <EState_VSA9>
10.47

>  <EState_VSA10>
9.18

>  <VSA_EState1>
17.62

>  <VSA_EState2>
11.35

>  <VSA_EState3>
5.74

>  <VSA_EState4>
8.57

>  <VSA_EState5>
-0.26

>  <VSA_EState6>
11.45

>  <VSA_EState7>
-0.54

>  <VSA_EState8>
2.57

>  <VSA_EState9>
0

>  <apol>
44.18

>  <bpol>
22.34

>  <nRing>
2

>  <nHRing>
0

>  <naRing>
2

>  <naHRing>
0

>  <nARing 2>
0

>  <nAHRing 2>
0

>  <nFRing>
0

>  <nFHRing>
0

>  <nFaRing>
0

>  <nFaHRing>
0

>  <nFARing 2>
0

>  <nFAHRing 2>
0

>  <nRot>
5

>  <SLogP>
3.59

>  <SMR>
85.23

>  <TopoPSA(NO)>
76.38

>  <TopoPSA>
76.38

>  <JGI1>
0.22

>  <JGI2>
0.07

>  <JGI3>
0.03

>  <JGI4>
0.05

>  <JGI5>
0.02

>  <Diameter>
15

>  <Radius>
8

>  <TMWC10>
116.61

>  <TSRW10>
55.33

>  <MW>
303.14

>  <AMW>
7.58

>  <WPath>
1269

>  <WPol>
29

>  <Zagreb1>
106

>  <Zagreb2>
118

>  <mZagreb2>
5.03

>  <yes>


>  <nAR-cont>
0.336376

>  <nHA-cont>
0.983774276

>  <MWHBN>
0.402046621

>  <MWHBN-cont>
0.468009312

>  <TPSA-cont>
0.466820171

>  <pka_cont>
0.97

>  <yes.1>


>  <BBB_SCORE>
3.440804585

>  <MMFF94 Energy>
-12.823

$$$$
Compound 1249
Actelion Java MolfileCreator 2.0

  0  0  0  0  0  0              0 V3000
M  V30 BEGIN CTAB
M  V30 COUNTS 61 63 0 0 0
M  V30 BEGIN ATOM
M  V30 1 S 1.6884 0.0 0.4821 0
M  V30 2 C 1.9264 1.108 1.9614 0
M  V30 3 C -0.1351 -0.1069 0.6731 0 CFG=1
M  V30 4 C 0.6278 1.001 2.8011 0 CFG=1
M  V30 5 C 3.208 0.6691 2.679 0
M  V30 6 C 2.127 2.5424 1.4411 0
M  V30 7 N -0.4243 0.7086 1.8458 0
M  V30 8 C -1.0543 0.8416 -0.1503 0 CFG=1
M  V30 9 C 0.6914 -0.0622 3.9053 0
M  V30 10 C -1.1701 1.6365 1.1914 0
M  V30 11 N -0.392 1.5968 -1.2253 0
M  V30 12 O 1.3147 0.0852 4.9509 0
M  V30 13 O 0.033 -1.2004 3.5645 0
M  V30 14 O -1.614 2.6887 1.5885 0
M  V30 15 C -0.3036 0.955 -2.3405 0
M  V30 16 C 0.013 -2.2433 4.5432 0
M  V30 17 N 0.2722 1.4245 -3.4956 0
M  V30 18 O -0.12 -3.5452 3.9445 0
M  V30 19 C -1.0923 -2.0118 5.5692 0
M  V30 20 C 0.2911 0.6116 -4.7053 0
M  V30 21 C 0.9191 2.7337 -3.5136 0
M  V30 22 C -1.1175 -3.7297 3.0522 0
M  V30 23 C 0.2174 1.4081 -6.0075 0
M  V30 24 C -0.0825 3.8061 -3.935 0
M  V30 25 O -1.9364 -2.9022 2.6839 0
M  V30 26 O -1.0582 -5.0172 2.6264 0
M  V30 27 C -0.8589 2.4944 -6.0201 0
M  V30 28 C -0.3777 3.8232 -5.4345 0
M  V30 29 C -2.0663 -5.3677 1.6737 0
M  V30 30 C -1.873 -6.8223 1.292 0
M  V30 31 H -0.5123 -1.1301 0.7631 0
M  V30 32 H 0.3904 1.9516 3.2946 0
M  V30 33 H 3.1793 -0.384 2.9805 0
M  V30 34 H 3.3739 1.2724 3.5789 0
M  V30 35 H 4.0906 0.7979 2.0406 0
M  V30 36 H 3.0154 2.621 0.8032 0
M  V30 37 H 1.2729 2.9069 0.8621 0
M  V30 38 H 2.2681 3.2356 2.2788 0
M  V30 39 H -2.0148 0.4036 -0.4492 0
M  V30 40 H -0.7045 -0.07 -2.4486 0
M  V30 41 H 0.9778 -2.2796 5.0624 0
M  V30 42 H -0.9227 -1.0868 6.1288 0
M  V30 43 H -1.154 -2.8488 6.2715 0
M  V30 44 H -2.0697 -1.9127 5.0858 0
M  V30 45 H 1.1975 -0.0049 -4.7084 0
M  V30 46 H -0.5584 -0.083 -4.6914 0
M  V30 47 H 1.3079 2.9776 -2.5171 0
M  V30 48 H 1.7957 2.7318 -4.172 0
M  V30 49 H 1.1959 1.8434 -6.2438 0
M  V30 50 H 0.0064 0.6968 -6.8163 0
M  V30 51 H -1.0224 3.6885 -3.3815 0
M  V30 52 H 0.3208 4.7886 -3.6606 0
M  V30 53 H -1.7663 2.1526 -5.5086 0
M  V30 54 H -1.1397 2.68 -7.0645 0
M  V30 55 H 0.5193 4.1524 -5.9739 0
M  V30 56 H -1.144 4.5851 -5.6238 0
M  V30 57 H -1.9701 -4.7364 0.7832 0
M  V30 58 H -3.059 -5.2311 2.1174 0
M  V30 59 H -2.6241 -7.1372 0.5622 0
M  V30 60 H -0.8771 -6.9796 0.8651 0
M  V30 61 H -1.9463 -7.4655 2.1751 0
M  V30 END ATOM
M  V30 BEGIN BOND
M  V30 1 1 1 2
M  V30 2 1 1 3
M  V30 3 1 2 4
M  V30 4 1 2 5
M  V30 5 1 2 6
M  V30 6 1 3 7
M  V30 7 1 3 8
M  V30 8 1 4 9
M  V30 9 1 7 10
M  V30 10 1 8 11
M  V30 11 2 9 12
M  V30 12 1 9 13
M  V30 13 2 10 14
M  V30 14 2 11 15
M  V30 15 1 13 16
M  V30 16 1 15 17
M  V30 17 1 16 18
M  V30 18 1 16 19
M  V30 19 1 17 20
M  V30 20 1 17 21
M  V30 21 1 18 22
M  V30 22 1 20 23
M  V30 23 1 21 24
M  V30 24 2 22 25
M  V30 25 1 22 26
M  V30 26 1 23 27
M  V30 27 1 24 28
M  V30 28 1 26 29
M  V30 29 1 29 30
M  V30 30 1 4 7
M  V30 31 1 8 10
M  V30 32 1 27 28
M  V30 33 1 3 31
M  V30 34 1 4 32
M  V30 35 1 5 33
M  V30 36 1 5 34
M  V30 37 1 5 35
M  V30 38 1 6 36
M  V30 39 1 6 37
M  V30 40 1 6 38
M  V30 41 1 8 39
M  V30 42 1 15 40
M  V30 43 1 16 41
M  V30 44 1 19 42
M  V30 45 1 19 43
M  V30 46 1 19 44
M  V30 47 1 20 45
M  V30 48 1 20 46
M  V30 49 1 21 47
M  V30 50 1 21 48
M  V30 51 1 23 49
M  V30 52 1 23 50
M  V30 53 1 24 51
M  V30 54 1 24 52
M  V30 55 1 27 53
M  V30 56 1 27 54
M  V30 57 1 28 55
M  V30 58 1 28 56
M  V30 59 1 29 57
M  V30 60 1 29 58
M  V30 61 1 30 59
M  V30 62 1 30 60
M  V30 63 1 30 61
M  V30 END BOND
M  V30 BEGIN COLLECTION
M  V30 MDLV30/STEABS ATOMS=(3 3 4 8)
M  V30 END COLLECTION
M  V30 END CTAB
M  END
>  <Column 1>
1481

>  <level_0>
1631

>  <index>
1631

>  <Unnamed: 0>
1631

>  <NO.>
1643

>  <Name>
bacmecillinam

>  <IUPAC_name>
1-ethoxycarbonyloxyethyl (2s-5r-6r)-6-(azepan-1-ylmethylideneamino)-3-3-dimethyl-7-oxo-4-thia-1-azabicyclo[3.2.0]heptane-2-carboxylate

>  <SMILES>
CCOC(=O)OC(C)OC(=O)[C@@H]1N2C(=O)[C@@H](N=CN3CCCCCC3)[C@H]2SC1(C)C

>  <CID>
68681

>  <logBB>


>  <BBB+/BBB->
BBB-

>  <Inchi>
InChI=1S/C20H31N3O6S/c1-5-27-19(26)29-13(2)28-18(25)15-20(3-4)30-17-14(16(24)23(15)17)21-12-22-10-8-6-7-9-11-22/h12-15-17H-5-11H2-1-4H3/t13?-14--15+-17-/m1/s1

>  <threshold>
-1

>  <reference>
R1|R6|R27|R30|

>  <group>
B

>  <Class>
1

>  <ABC>
23.08

>  <ABCGG>
18.9

>  <nAcid>
0

>  <nBase>
2

>  <nAromAtom>
0

>  <nAromBond>
0

>  <nAtom>
61

>  <nHeavyAtom>
30

>  <nSpiro>
0

>  <nBridgehead>
0

>  <nHetero>
10

>  <nN>
3

>  <nO>
6

>  <nF>
0

>  <BalabanJ>
1.53

>  <BertzCT>
692.03

>  <nBonds>
63

>  <nBondsO>
32

>  <nBondsS>
59

>  <nBondsD>
4

>  <nBondsT>
0

>  <nBondsA>
0

>  <nBondsM>
4

>  <nBondsKS>
59

>  <nBondsKD>
4

>  <RNCG>
0.13

>  <RPCG>
0.15

>  <FCSP3>
0.8

>  <SZ>
39.33

>  <Sm>
36.76

>  <Sv>
36.15

>  <Sse>
61.81

>  <Sp>
38.97

>  <Si>
69.49

>  <MZ>
0.64

>  <Mm>
0.6

>  <Mv>
0.59

>  <Mse>
1.01

>  <Mp>
0.64

>  <Mi>
1.14

>  <NsCH3>
4

>  <NdCH2>
0

>  <NssCH2>
7

>  <NtCH>
0

>  <NdsCH>
1

>  <NaaCH>
0

>  <NsssCH>
4

>  <NddC>
0

>  <NtsC>
0

>  <NdssC>
3

>  <NaasC>
0

>  <NaaaC>
0

>  <NssssC>
1

>  <NsNH3>
0

>  <NsNH2>
0

>  <NssNH2>
0

>  <NdNH>
0

>  <NssNH>
0

>  <NaaNH>
0

>  <NtN>
0

>  <NsssNH>
0

>  <NdsN>
1

>  <NaaN>
0

>  <NsssN>
2

>  <NddsN>
0

>  <NaasN>
0

>  <NssssN>
0

>  <NsOH>
0

>  <NdO>
3

>  <NssO>
3

>  <NaaO>
0

>  <NsF>
0

>  <NsSiH3>
0

>  <NssSiH2>
0

>  <NsssSiH>
0

>  <NssssSi>
0

>  <NsPH2>
0

>  <NssPH>
0

>  <NsssP>
0

>  <NdsssP>
0

>  <NsssssP>
0

>  <NsSH>
0

>  <NdS>
0

>  <NssS>
1

>  <NaaS>
0

>  <NdssS>
0

>  <NddssS>
0

>  <NsCl>
0

>  <NsBr>
0

>  <NsI>
0

>  <fragCpx>
154.1

>  <fMF>
0.26

>  <nHBAcc>
8

>  <nHBDon>
0

>  <Kier1>
24.64

>  <Kier2>
10.74

>  <Lipinski>
1

>  <GhoseFilter>
1

>  <FilterItLogS>
-2

>  <VMcGowan>
324.39

>  <LabuteASA>
181.02

>  <PEOE_VSA1>
24.01

>  <PEOE_VSA2>
9.79

>  <PEOE_VSA3>
9.59

>  <PEOE_VSA4>
0

>  <PEOE_VSA5>
11.76

>  <PEOE_VSA6>
12.84

>  <PEOE_VSA7>
33.61

>  <PEOE_VSA8>
24.76

>  <PEOE_VSA9>
12.95

>  <PEOE_VSA10>
11.42

>  <PEOE_VSA11>
6.04

>  <PEOE_VSA12>
6.29

>  <PEOE_VSA13>
5.91

>  <SMR_VSA1>
28.59

>  <SMR_VSA2>
0

>  <SMR_VSA3>
9.8

>  <SMR_VSA4>
4.99

>  <SMR_VSA5>
81.87

>  <SMR_VSA6>
19.7

>  <SMR_VSA7>
0

>  <SMR_VSA8>
0

>  <SMR_VSA9>
0

>  <SlogP_VSA1>
0

>  <SlogP_VSA2>
82.36

>  <SlogP_VSA3>
23.8

>  <SlogP_VSA4>
0

>  <SlogP_VSA5>
53.38

>  <SlogP_VSA6>
4.99

>  <SlogP_VSA7>
0

>  <SlogP_VSA8>
0

>  <SlogP_VSA9>
0

>  <SlogP_VSA10>
4.79

>  <SlogP_VSA11>
0

>  <EState_VSA1>
35.25

>  <EState_VSA2>
17.89

>  <EState_VSA3>
0

>  <EState_VSA4>
25.93

>  <EState_VSA5>
19.77

>  <EState_VSA6>
29.92

>  <EState_VSA7>
13.85

>  <EState_VSA8>
14.63

>  <EState_VSA9>
9.47

>  <EState_VSA10>
14.38

>  <VSA_EState1>
14.3

>  <VSA_EState2>
45.27

>  <VSA_EState3>
-0.2

>  <VSA_EState4>
0

>  <VSA_EState5>
-0.78

>  <VSA_EState6>
-1.25

>  <VSA_EState7>
4.54

>  <VSA_EState8>
8.99

>  <VSA_EState9>
0

>  <apol>
65.08

>  <bpol>
45.93

>  <nRing>
3

>  <nHRing>
3

>  <naRing>
0

>  <naHRing>
0

>  <nARing 2>
3

>  <nAHRing 2>
3

>  <nFRing>
1

>  <nFHRing>
1

>  <nFaRing>
0

>  <nFaHRing>
0

>  <nFARing 2>
1

>  <nFAHRing 2>
1

>  <nRot>
6

>  <SLogP>
2.38

>  <SMR>
112.07

>  <TopoPSA(NO)>
97.74

>  <TopoPSA>
123.04

>  <JGI1>
0.22

>  <JGI2>
0.08

>  <JGI3>
0.08

>  <JGI4>
0.04

>  <JGI5>
0.03

>  <Diameter>
17

>  <Radius>
9

>  <TMWC10>
140.04

>  <TSRW10>
81.16

>  <MW>
441.19

>  <AMW>
7.23

>  <WPath>
2740

>  <WPol>
47

>  <Zagreb1>
156

>  <Zagreb2>
184

>  <mZagreb2>
6.63

>  <yes>


>  <nAR-cont>
0.691115

>  <nHA-cont>
0.74523694

>  <MWHBN>
0.380870343

>  <MWHBN-cont>
0.551389146

>  <TPSA-cont>
0

>  <pka_cont>
0.97

>  <yes.1>


>  <BBB_SCORE>
2.748435659

>  <MMFF94 Energy>
-6.3532

$$$$
Compound 1250
Actelion Java MolfileCreator 2.0

  0  0  0  0  0  0              0 V3000
M  V30 BEGIN CTAB
M  V30 COUNTS 63 66 0 0 0
M  V30 BEGIN ATOM
M  V30 1 Cl -3.3261 -1.5403 6.0907 0
M  V30 2 C -3.2001 -1.8258 4.3419 0
M  V30 3 O -2.0576 -1.127 3.8667 0
M  V30 4 C -1.8931 -1.235 2.5162 0
M  V30 5 O -2.5768 -1.9579 1.8043 0
M  V30 6 C -0.676 -0.3748 2.0513 0
M  V30 7 O -0.4986 0.8531 2.7865 0
M  V30 8 C -0.5366 -0.1443 0.4938 0
M  V30 9 C 0.5694 -1.2353 2.3663 0
M  V30 10 C -1.5785 1.6268 3.0465 0
M  V30 11 C -0.0505 -1.5281 -0.0082 0
M  V30 12 C 0.5236 0.942 0.1835 0
M  V30 13 C -1.8612 0.2978 -0.1567 0
M  V30 14 C 0.8677 -2.0533 1.1141 0
M  V30 15 O -2.7265 1.3935 2.705 0
M  V30 16 O -1.161 2.7 3.7595 0
M  V30 17 C 0.6555 -1.5833 -1.384 0
M  V30 18 C 1.083 0.9225 -1.2463 0
M  V30 19 C -2.1876 3.6147 4.1645 0
M  V30 20 C 1.7119 -0.4532 -1.5924 0
M  V30 21 C -0.3697 -1.6424 -2.5367 0
M  V30 22 O 2.0747 1.9497 -1.2756 0
M  V30 23 C -2.8246 3.1487 5.4609 0
M  V30 24 C 2.3885 -0.5614 -3.0206 0
M  V30 25 C 0.2874 -1.7567 -3.907 0
M  V30 26 C 1.3067 -0.664 -4.0968 0
M  V30 27 C 3.3467 0.585 -3.3014 0
M  V30 28 C 3.284 -1.8276 -3.0858 0
M  V30 29 C 1.2279 0.1686 -5.15 0
M  V30 30 C 3.2721 1.4117 -4.353 0
M  V30 31 C 2.2017 1.2615 -5.3554 0
M  V30 32 O 2.1171 2.0146 -6.3175 0
M  V30 33 H -3.0918 -2.9035 4.1863 0
M  V30 34 H -4.115 -1.4487 3.8744 0
M  V30 35 H 0.4269 -1.8937 3.2314 0
M  V30 36 H 1.4337 -0.6062 2.6143 0
M  V30 37 H -0.9072 -2.2138 -0.0525 0
M  V30 38 H 1.3768 0.8592 0.8698 0
M  V30 39 H 0.1097 1.9391 0.3896 0
M  V30 40 H -2.2796 1.1746 0.3426 0
M  V30 41 H -1.7334 0.5983 -1.1983 0
M  V30 42 H -2.6176 -0.4908 -0.1462 0
M  V30 43 H 0.6671 -3.1166 1.2907 0
M  V30 44 H 1.9314 -1.9722 0.8674 0
M  V30 45 H 1.1865 -2.5444 -1.4107 0
M  V30 46 H 0.3127 1.1889 -1.9766 0
M  V30 47 H -2.9361 3.7482 3.3749 0
M  V30 48 H -1.7079 4.5867 4.3195 0
M  V30 49 H 2.5225 -0.6071 -0.8646 0
M  V30 50 H -1.0353 -2.5026 -2.3935 0
M  V30 51 H -1.0078 -0.7571 -2.5433 0
M  V30 52 H 1.6148 2.8058 -1.2213 0
M  V30 53 H -3.5677 3.8715 5.8095 0
M  V30 54 H -3.3148 2.1785 5.3324 0
M  V30 55 H -2.0643 3.0205 6.2384 0
M  V30 56 H 0.7646 -2.7369 -4.0158 0
M  V30 57 H -0.4919 -1.7122 -4.6778 0
M  V30 58 H 4.1412 0.7493 -2.5751 0
M  V30 59 H 4.0764 -1.7907 -2.3275 0
M  V30 60 H 2.7318 -2.7569 -2.9205 0
M  V30 61 H 3.7723 -1.9213 -4.0646 0
M  V30 62 H 0.4538 0.0919 -5.9049 0
M  V30 63 H 3.9723 2.2231 -4.5054 0
M  V30 END ATOM
M  V30 BEGIN BOND
M  V30 1 1 1 2
M  V30 2 1 2 3
M  V30 3 1 3 4
M  V30 4 2 4 5
M  V30 5 1 4 6
M  V30 6 1 6 7
M  V30 7 1 6 8
M  V30 8 1 6 9
M  V30 9 1 7 10
M  V30 10 1 8 11
M  V30 11 1 8 12
M  V30 12 1 8 13
M  V30 13 1 9 14
M  V30 14 2 10 15
M  V30 15 1 10 16
M  V30 16 1 11 17
M  V30 17 1 12 18
M  V30 18 1 16 19
M  V30 19 1 17 20
M  V30 20 1 17 21
M  V30 21 1 18 22
M  V30 22 1 19 23
M  V30 23 1 20 24
M  V30 24 1 21 25
M  V30 25 1 24 26
M  V30 26 1 24 27
M  V30 27 1 24 28
M  V30 28 2 26 29
M  V30 29 2 27 30
M  V30 30 1 29 31
M  V30 31 2 31 32
M  V30 32 1 11 14
M  V30 33 1 18 20
M  V30 34 1 25 26
M  V30 35 1 30 31
M  V30 36 1 2 33
M  V30 37 1 2 34
M  V30 38 1 9 35
M  V30 39 1 9 36
M  V30 40 1 11 37
M  V30 41 1 12 38
M  V30 42 1 12 39
M  V30 43 1 13 40
M  V30 44 1 13 41
M  V30 45 1 13 42
M  V30 46 1 14 43
M  V30 47 1 14 44
M  V30 48 1 17 45
M  V30 49 1 18 46
M  V30 50 1 19 47
M  V30 51 1 19 48
M  V30 52 1 20 49
M  V30 53 1 21 50
M  V30 54 1 21 51
M  V30 55 1 22 52
M  V30 56 1 23 53
M  V30 57 1 23 54
M  V30 58 1 23 55
M  V30 59 1 25 56
M  V30 60 1 25 57
M  V30 61 1 27 58
M  V30 62 1 28 59
M  V30 63 1 28 60
M  V30 64 1 28 61
M  V30 65 1 29 62
M  V30 66 1 30 63
M  V30 END BOND
M  V30 END CTAB
M  END
>  <Column 1>
1482

>  <level_0>
1632

>  <index>
1632

>  <Unnamed: 0>
1632

>  <NO.>
1644

>  <Name>
loteprednol etabonate

>  <IUPAC_name>
chloromethyl 17-ethoxycarbonyloxy-11-hydroxy-10-13-dimethyl-3-oxo-7-8-9-11-12-14-15-16-octahydro-6h-cyclopenta[a]phenanthrene-17-carboxylate

>  <SMILES>
CCOC(=O)OC1(C(=O)OCCl)CCC2C3CCC4=CC(=O)C=CC4(C)C3C(O)CC21C

>  <CID>
22227703

>  <logBB>


>  <BBB+/BBB->
BBB+

>  <Inchi>
InChI=1S/C24H31ClO7/c1-4-30-21(29)32-24(20(28)31-13-25)10-8-17-16-6-5-14-11-15(26)7-9-22(14-2)19(16)18(27)12-23(17-24)3/h7-9-11-16-19-27H-4-6-8-10-12-13H2-1-3H3

>  <threshold>
-1

>  <reference>
R1|R19|R27|R27|R30|

>  <group>
B

>  <Class>
1

>  <ABC>
25.04

>  <ABCGG>
20.57

>  <nAcid>
0

>  <nBase>
0

>  <nAromAtom>
0

>  <nAromBond>
0

>  <nAtom>
63

>  <nHeavyAtom>
32

>  <nSpiro>
0

>  <nBridgehead>
0

>  <nHetero>
8

>  <nN>
0

>  <nO>
7

>  <nF>
0

>  <BalabanJ>
1.67

>  <BertzCT>
881.57

>  <nBonds>
66

>  <nBondsO>
35

>  <nBondsS>
61

>  <nBondsD>
5

>  <nBondsT>
0

>  <nBondsA>
0

>  <nBondsM>
5

>  <nBondsKS>
61

>  <nBondsKD>
5

>  <RNCG>
0.15

>  <RPCG>
0.17

>  <FCSP3>
0.71

>  <SZ>
41.33

>  <Sm>
38.88

>  <Sv>
38.49

>  <Sse>
63.84

>  <Sp>
41.04

>  <Si>
71.05

>  <MZ>
0.66

>  <Mm>
0.62

>  <Mv>
0.61

>  <Mse>
1.01

>  <Mp>
0.65

>  <Mi>
1.13

>  <NsCH3>
3

>  <NdCH2>
0

>  <NssCH2>
7

>  <NtCH>
0

>  <NdsCH>
3

>  <NaaCH>
0

>  <NsssCH>
4

>  <NddC>
0

>  <NtsC>
0

>  <NdssC>
4

>  <NaasC>
0

>  <NaaaC>
0

>  <NssssC>
3

>  <NsNH3>
0

>  <NsNH2>
0

>  <NssNH2>
0

>  <NdNH>
0

>  <NssNH>
0

>  <NaaNH>
0

>  <NtN>
0

>  <NsssNH>
0

>  <NdsN>
0

>  <NaaN>
0

>  <NsssN>
0

>  <NddsN>
0

>  <NaasN>
0

>  <NssssN>
0

>  <NsOH>
1

>  <NdO>
3

>  <NssO>
3

>  <NaaO>
0

>  <NsF>
0

>  <NsSiH3>
0

>  <NssSiH2>
0

>  <NsssSiH>
0

>  <NssssSi>
0

>  <NsPH2>
0

>  <NssPH>
0

>  <NsssP>
0

>  <NdsssP>
0

>  <NsssssP>
0

>  <NsSH>
0

>  <NdS>
0

>  <NssS>
0

>  <NaaS>
0

>  <NdssS>
0

>  <NddssS>
0

>  <NsCl>
1

>  <NsBr>
0

>  <NsI>
0

>  <fragCpx>
233.08

>  <fMF>
0.27

>  <nHBAcc>
7

>  <nHBDon>
1

>  <Kier1>
25.1

>  <Kier2>
9.22

>  <Lipinski>
1

>  <GhoseFilter>
1

>  <FilterItLogS>
-3.8

>  <VMcGowan>
337.41

>  <LabuteASA>
192.65

>  <PEOE_VSA1>
19.32

>  <PEOE_VSA2>
4.79

>  <PEOE_VSA3>
9.59

>  <PEOE_VSA4>
0

>  <PEOE_VSA5>
0

>  <PEOE_VSA6>
37.1

>  <PEOE_VSA7>
63.02

>  <PEOE_VSA8>
16.75

>  <PEOE_VSA9>
12.71

>  <PEOE_VSA10>
0

>  <PEOE_VSA11>
11.85

>  <PEOE_VSA12>
5.6

>  <PEOE_VSA13>
0

>  <SMR_VSA1>
33.7

>  <SMR_VSA2>
0

>  <SMR_VSA3>
0

>  <SMR_VSA4>
28.58

>  <SMR_VSA5>
64.58

>  <SMR_VSA6>
12.67

>  <SMR_VSA7>
23.8

>  <SMR_VSA8>
0

>  <SMR_VSA9>
0

>  <SlogP_VSA1>
0

>  <SlogP_VSA2>
47.39

>  <SlogP_VSA3>
23.8

>  <SlogP_VSA4>
28.58

>  <SlogP_VSA5>
52.88

>  <SlogP_VSA6>
23.8

>  <SlogP_VSA7>
0

>  <SlogP_VSA8>
0

>  <SlogP_VSA9>
0

>  <SlogP_VSA10>
4.79

>  <SlogP_VSA11>
0

>  <EState_VSA1>
34.66

>  <EState_VSA2>
49.05

>  <EState_VSA3>
6.42

>  <EState_VSA4>
18.41

>  <EState_VSA5>
0

>  <EState_VSA6>
19.08

>  <EState_VSA7>
13

>  <EState_VSA8>
6.92

>  <EState_VSA9>
25.81

>  <EState_VSA10>
19.49

>  <VSA_EState1>
15.89

>  <VSA_EState2>
37.51

>  <VSA_EState3>
11.47

>  <VSA_EState4>
-1.76

>  <VSA_EState5>
-0.68

>  <VSA_EState6>
-0.35

>  <VSA_EState7>
6.31

>  <VSA_EState8>
5.77

>  <VSA_EState9>
0

>  <apol>
68.54

>  <bpol>
39.42

>  <nRing>
4

>  <nHRing>
0

>  <naRing>
0

>  <naHRing>
0

>  <nARing 2>
4

>  <nAHRing 2>
0

>  <nFRing>
1

>  <nFHRing>
0

>  <nFaRing>
0

>  <nFaHRing>
0

>  <nFARing 2>
1

>  <nFAHRing 2>
0

>  <nRot>
4

>  <SLogP>
3.92

>  <SMR>
115.66

>  <TopoPSA(NO)>
99.13

>  <TopoPSA>
99.13

>  <JGI1>
0.27

>  <JGI2>
0.13

>  <JGI3>
0.07

>  <JGI4>
0.05

>  <JGI5>
0.03

>  <Diameter>
14

>  <Radius>
7

>  <TMWC10>
148.32

>  <TSRW10>
83.82

>  <MW>
466.18

>  <AMW>
7.4

>  <WPath>
2580

>  <WPol>
68

>  <Zagreb1>
180

>  <Zagreb2>
227

>  <mZagreb2>
6.98

>  <yes>


>  <nAR-cont>
0.199399

>  <nHA-cont>
0.658856097

>  <MWHBN>
0.370521291

>  <MWHBN-cont>
0.591839616

>  <TPSA-cont>
0.308011044

>  <pka_cont>
0.97

>  <yes.1>


>  <BBB_SCORE>
2.847036608

>  <MMFF94 Energy>
48.078

$$$$
Compound 1251
Actelion Java MolfileCreator 2.0

  0  0  0  0  0  0              0 V3000
M  V30 BEGIN CTAB
M  V30 COUNTS 55 55 0 0 0
M  V30 BEGIN ATOM
M  V30 1 S -1.821 -2.6136 -0.1582 0
M  V30 2 C -2.6106 -1.1274 -0.6822 0
M  V30 3 C -0.1409 -2.0957 0.0138 0
M  V30 4 O -2.3052 -0.0431 -0.198 0
M  V30 5 O -3.5645 -1.2976 -1.6379 0
M  V30 6 C 0.4936 -2.1253 1.2161 0
M  V30 7 C 0.5979 -1.8714 -1.298 0
M  V30 8 C -4.2031 -0.0876 -2.0612 0
M  V30 9 N -0.1594 -2.3135 2.4417 0
M  V30 10 C 1.99 -1.9063 1.3507 0
M  V30 11 C 0.7064 -0.3982 -1.6944 0
M  V30 12 C -5.2217 -0.4379 -3.1283 0
M  V30 13 C 0.2817 -3.2715 3.349 0
M  V30 14 C -1.1416 -1.3317 2.9214 0
M  V30 15 O 1.5216 -0.3157 -2.8717 0
M  V30 16 O -0.1222 -3.4172 4.4969 0
M  V30 17 C -0.5028 -0.117 3.5322 0
M  V30 18 C 1.6507 0.9399 -3.3688 0
M  V30 19 C -0.1579 1.0241 2.831 0
M  V30 20 C -0.1879 -0.0967 4.8792 0
M  V30 21 O 1.1328 1.947 -2.9113 0
M  V30 22 O 2.4503 0.8811 -4.4618 0
M  V30 23 N 0.4532 2.0697 3.4108 0
M  V30 24 N -0.3373 1.1573 1.4709 0
M  V30 25 N 0.4028 0.9387 5.5025 0
M  V30 26 C 2.6768 2.1476 -5.0874 0
M  V30 27 C 0.7119 1.9885 4.7279 0
M  V30 28 C 3.5835 1.9307 -6.2832 0
M  V30 29 C 1.3525 3.1712 5.3827 0
M  V30 30 H 1.6019 -2.3132 -1.256 0
M  V30 31 H 0.1176 -2.4245 -2.1169 0
M  V30 32 H -3.4565 0.5999 -2.4744 0
M  V30 33 H -4.7068 0.3821 -1.2089 0
M  V30 34 H 2.3975 -1.2654 0.5648 0
M  V30 35 H 2.5181 -2.8648 1.3245 0
M  V30 36 H 2.2297 -1.4078 2.2972 0
M  V30 37 H -0.2844 0.012 -1.915 0
M  V30 38 H 1.174 0.1871 -0.8951 0
M  V30 39 H -5.7378 0.458 -3.4843 0
M  V30 40 H -4.7359 -0.9279 -3.9785 0
M  V30 41 H -5.9637 -1.1415 -2.7367 0
M  V30 42 H 1.0498 -3.9403 2.9255 0
M  V30 43 H -1.8264 -1.0335 2.1281 0
M  V30 44 H -1.7839 -1.8115 3.672 0
M  V30 45 H -0.405 -0.9472 5.5223 0
M  V30 46 H -0.013 2.0512 1.1215 0
M  V30 47 H -1.1751 0.7908 1.0269 0
M  V30 48 H 3.158 2.8308 -4.3784 0
M  V30 49 H 1.7229 2.5727 -5.4198 0
M  V30 50 H 3.7857 2.8752 -6.7959 0
M  V30 51 H 4.5345 1.4873 -5.9703 0
M  V30 52 H 3.1254 1.234 -6.9929 0
M  V30 53 H 0.5799 3.8623 5.7321 0
M  V30 54 H 1.9583 2.8573 6.2383 0
M  V30 55 H 2.0033 3.6967 4.6772 0
M  V30 END ATOM
M  V30 BEGIN BOND
M  V30 1 1 1 2
M  V30 2 1 1 3
M  V30 3 2 2 4
M  V30 4 1 2 5
M  V30 5 2 3 6
M  V30 6 1 3 7
M  V30 7 1 5 8
M  V30 8 1 6 9
M  V30 9 1 6 10
M  V30 10 1 7 11
M  V30 11 1 8 12
M  V30 12 1 9 13
M  V30 13 1 9 14
M  V30 14 1 11 15
M  V30 15 2 13 16
M  V30 16 1 14 17
M  V30 17 1 15 18
M  V30 18 2 17 19
M  V30 19 1 17 20
M  V30 20 2 18 21
M  V30 21 1 18 22
M  V30 22 1 19 23
M  V30 23 1 19 24
M  V30 24 2 20 25
M  V30 25 1 22 26
M  V30 26 2 23 27
M  V30 27 1 26 28
M  V30 28 1 27 29
M  V30 29 1 25 27
M  V30 30 1 7 30
M  V30 31 1 7 31
M  V30 32 1 8 32
M  V30 33 1 8 33
M  V30 34 1 10 34
M  V30 35 1 10 35
M  V30 36 1 10 36
M  V30 37 1 11 37
M  V30 38 1 11 38
M  V30 39 1 12 39
M  V30 40 1 12 40
M  V30 41 1 12 41
M  V30 42 1 13 42
M  V30 43 1 14 43
M  V30 44 1 14 44
M  V30 45 1 20 45
M  V30 46 1 24 46
M  V30 47 1 24 47
M  V30 48 1 26 48
M  V30 49 1 26 49
M  V30 50 1 28 50
M  V30 51 1 28 51
M  V30 52 1 28 52
M  V30 53 1 29 53
M  V30 54 1 29 54
M  V30 55 1 29 55
M  V30 END BOND
M  V30 END CTAB
M  END
>  <Column 1>
1483

>  <level_0>
1633

>  <index>
1633

>  <Unnamed: 0>
1633

>  <NO.>
1645

>  <Name>
cetotiamine

>  <IUPAC_name>
ethyl [(z)-2-[(4-amino-2-methylpyrimidin-5-yl)methyl-formylamino]-5-ethoxycarbonyloxypent-2-en-3-yl]sulfanylformate

>  <SMILES>
CCOC(=O)OCC/C(SC(=O)OCC)=C(\C)N(C=O)Cc1cnc(C)nc1N

>  <CID>
3033983

>  <logBB>


>  <BBB+/BBB->
BBB+

>  <Inchi>
InChI=1S/C18H26N4O6S/c1-5-26-17(24)28-8-7-15(29-18(25)27-6-2)12(3)22(11-23)10-14-9-20-13(4)21-16(14)19/h9-11H-5-8-10H2-1-4H3-(H2-19-20-21)/b15-12-

>  <threshold>
-1

>  <reference>
R1|R13|R6|R27|R30|

>  <group>
B

>  <Class>
1

>  <ABC>
20.93

>  <ABCGG>
18.34

>  <nAcid>
0

>  <nBase>
0

>  <nAromAtom>
6

>  <nAromBond>
6

>  <nAtom>
55

>  <nHeavyAtom>
29

>  <nSpiro>
0

>  <nBridgehead>
0

>  <nHetero>
11

>  <nN>
4

>  <nO>
6

>  <nF>
0

>  <BalabanJ>
2.7

>  <BertzCT>
755.87

>  <nBonds>
55

>  <nBondsO>
29

>  <nBondsS>
45

>  <nBondsD>
4

>  <nBondsT>
0

>  <nBondsA>
6

>  <nBondsM>
10

>  <nBondsKS>
48

>  <nBondsKD>
7

>  <RNCG>
0.14

>  <RPCG>
0.15

>  <FCSP3>
0.5

>  <SZ>
37.67

>  <Sm>
35.51

>  <Sv>
33.55

>  <Sse>
56.26

>  <Sp>
35.63

>  <Si>
62.74

>  <MZ>
0.68

>  <Mm>
0.65

>  <Mv>
0.61

>  <Mse>
1.02

>  <Mp>
0.65

>  <Mi>
1.14

>  <NsCH3>
4

>  <NdCH2>
0

>  <NssCH2>
5

>  <NtCH>
0

>  <NdsCH>
1

>  <NaaCH>
1

>  <NsssCH>
0

>  <NddC>
0

>  <NtsC>
0

>  <NdssC>
4

>  <NaasC>
3

>  <NaaaC>
0

>  <NssssC>
0

>  <NsNH3>
0

>  <NsNH2>
1

>  <NssNH2>
0

>  <NdNH>
0

>  <NssNH>
0

>  <NaaNH>
0

>  <NtN>
0

>  <NsssNH>
0

>  <NdsN>
0

>  <NaaN>
2

>  <NsssN>
1

>  <NddsN>
0

>  <NaasN>
0

>  <NssssN>
0

>  <NsOH>
0

>  <NdO>
3

>  <NssO>
3

>  <NaaO>
0

>  <NsF>
0

>  <NsSiH3>
0

>  <NssSiH2>
0

>  <NsssSiH>
0

>  <NssssSi>
0

>  <NsPH2>
0

>  <NssPH>
0

>  <NsssP>
0

>  <NdsssP>
0

>  <NsssssP>
0

>  <NsSH>
0

>  <NdS>
0

>  <NssS>
1

>  <NaaS>
0

>  <NdssS>
0

>  <NddssS>
0

>  <NsCl>
0

>  <NsBr>
0

>  <NsI>
0

>  <fragCpx>
29.11

>  <fMF>
0.11

>  <nHBAcc>
10

>  <nHBDon>
1

>  <Kier1>
27.03

>  <Kier2>
14.91

>  <Lipinski>
1

>  <GhoseFilter>
1

>  <FilterItLogS>
-3.22

>  <VMcGowan>
315.01

>  <LabuteASA>
173.34

>  <PEOE_VSA1>
24.84

>  <PEOE_VSA2>
4.79

>  <PEOE_VSA3>
19.56

>  <PEOE_VSA4>
0

>  <PEOE_VSA5>
0

>  <PEOE_VSA6>
0

>  <PEOE_VSA7>
39.46

>  <PEOE_VSA8>
28.78

>  <PEOE_VSA9>
26.37

>  <PEOE_VSA10>
11.64

>  <PEOE_VSA11>
0

>  <PEOE_VSA12>
6.41

>  <PEOE_VSA13>
0

>  <SMR_VSA1>
28.59

>  <SMR_VSA2>
0

>  <SMR_VSA3>
14.87

>  <SMR_VSA4>
0

>  <SMR_VSA5>
40.66

>  <SMR_VSA6>
25.55

>  <SMR_VSA7>
28.19

>  <SMR_VSA8>
0

>  <SMR_VSA9>
0

>  <SlogP_VSA1>
5.73

>  <SlogP_VSA2>
52.56

>  <SlogP_VSA3>
25.55

>  <SlogP_VSA4>
6.92

>  <SlogP_VSA5>
38.58

>  <SlogP_VSA6>
16.8

>  <SlogP_VSA7>
0

>  <SlogP_VSA8>
0

>  <SlogP_VSA9>
0

>  <SlogP_VSA10>
15.41

>  <SlogP_VSA11>
0

>  <EState_VSA1>
11.46

>  <EState_VSA2>
38.6

>  <EState_VSA3>
28.4

>  <EState_VSA4>
11.76

>  <EState_VSA5>
4.9

>  <EState_VSA6>
33.89

>  <EState_VSA7>
0

>  <EState_VSA8>
9.97

>  <EState_VSA9>
19.94

>  <EState_VSA10>
14.38

>  <VSA_EState1>
14.63

>  <VSA_EState2>
45.05

>  <VSA_EState3>
-0.53

>  <VSA_EState4>
6.95

>  <VSA_EState5>
0.79

>  <VSA_EState6>
0

>  <VSA_EState7>
1.55

>  <VSA_EState8>
7.23

>  <VSA_EState9>
0

>  <apol>
59.51

>  <bpol>
39.78

>  <nRing>
1

>  <nHRing>
1

>  <naRing>
1

>  <naHRing>
1

>  <nARing 2>
0

>  <nAHRing 2>
0

>  <nFRing>
0

>  <nFHRing>
0

>  <nFaRing>
0

>  <nFaHRing>
0

>  <nFARing 2>
0

>  <nFAHRing 2>
0

>  <nRot>
10

>  <SLogP>
3.01

>  <SMR>
107.69

>  <TopoPSA(NO)>
133.94

>  <TopoPSA>
159.24

>  <JGI1>
0.22

>  <JGI2>
0.09

>  <JGI3>
0.05

>  <JGI4>
0.04

>  <JGI5>
0.03

>  <Diameter>
15

>  <Radius>
8

>  <TMWC10>
131.58

>  <TSRW10>
63.33

>  <MW>
426.16

>  <AMW>
7.75

>  <WPath>
2462

>  <WPol>
40

>  <Zagreb1>
132

>  <Zagreb2>
146

>  <mZagreb2>
6.92

>  <yes>


>  <nAR-cont>
0.336376

>  <nHA-cont>
0.785905698

>  <MWHBN>
0.532851685

>  <MWHBN-cont>
0

>  <TPSA-cont>
0

>  <pka_cont>
0.97

>  <yes.1>


>  <BBB_SCORE>
1.607281698

>  <MMFF94 Energy>
-78.193

$$$$
Compound 1252
Actelion Java MolfileCreator 2.0

  0  0  0  0  0  0              0 V3000
M  V30 BEGIN CTAB
M  V30 COUNTS 71 74 0 0 0
M  V30 BEGIN ATOM
M  V30 1 O -0.2409 -2.7328 -7.2464 0
M  V30 2 C -0.251 -2.8279 -6.0259 0
M  V30 3 C 0.9862 -3.0978 -5.2657 0
M  V30 4 C -1.4968 -2.6686 -5.2531 0
M  V30 5 C 0.9863 -3.2096 -3.9254 0
M  V30 6 C -1.4988 -2.7815 -3.9183 0
M  V30 7 C -0.2754 -3.0802 -3.06 0 CFG=2
M  V30 8 C 2.2772 -3.4227 -3.1783 0
M  V30 9 C -0.0217 -1.9003 -2.0443 0 CFG=1
M  V30 10 C -0.5395 -4.4483 -2.3936 0
M  V30 11 C 2.5088 -2.2823 -2.1945 0
M  V30 12 C -1.212 -1.5296 -1.1111 0 CFG=1
M  V30 13 C 1.3151 -2.067 -1.2442 0 CFG=1
M  V30 14 O -1.7321 -2.6322 -0.3833 0
M  V30 15 C -0.9015 -0.3774 -0.1295 0
M  V30 16 C 1.5333 -0.8072 -0.3887 0 CFG=1
M  V30 17 C 0.4207 -0.5435 0.6551 0 CFG=1
M  V30 18 C 2.8128 -0.6939 0.4255 0
M  V30 19 C 0.9916 0.7625 1.3415 0 CFG=1
M  V30 20 C 0.2955 -1.6772 1.7089 0
M  V30 21 C 2.525 0.4426 1.4246 0
M  V30 22 O 0.8008 1.8595 0.4201 0
M  V30 23 C 0.3623 1.0184 2.7448 0
M  V30 24 C 1.2254 3.095 0.7831 0
M  V30 25 O 0.9304 0.662 3.7814 0
M  V30 26 C -1.0243 1.6577 2.7798 0
M  V30 27 O 1.7106 3.3874 1.8624 0
M  V30 28 O 0.9796 3.9401 -0.2444 0
M  V30 29 O -1.4033 1.9642 4.1228 0
M  V30 30 C 1.3367 5.3104 -0.0202 0
M  V30 31 C -2.5957 2.6108 4.2259 0
M  V30 32 C 0.1991 6.0415 0.6684 0
M  V30 33 O -3.3074 2.9109 3.2779 0
M  V30 34 C -2.8946 2.8929 5.6781 0
M  V30 35 C -4.2147 3.6218 5.8566 0
M  V30 36 H 1.8865 -3.1803 -5.8639 0
M  V30 37 H -2.3965 -2.4711 -5.8229 0
M  V30 38 H -2.4546 -2.6847 -3.4056 0
M  V30 39 H 3.131 -3.4784 -3.8645 0
M  V30 40 H 2.2492 -4.3811 -2.6477 0
M  V30 41 H 0.1244 -1.0001 -2.6667 0
M  V30 42 H -1.543 -4.5135 -1.9593 0
M  V30 43 H 0.177 -4.6734 -1.5979 0
M  V30 44 H -0.4723 -5.2639 -3.1258 0
M  V30 45 H 3.4139 -2.4988 -1.6147 0
M  V30 46 H 2.7077 -1.3586 -2.7545 0
M  V30 47 H -2.0432 -1.1783 -1.7329 0
M  V30 48 H 1.2503 -2.948 -0.598 0
M  V30 49 H -1.0083 -3.2189 -0.1162 0
M  V30 50 H -1.7379 -0.2745 0.5694 0
M  V30 51 H -0.8691 0.5465 -0.7194 0
M  V30 52 H 1.5518 0.0364 -1.0982 0
M  V30 53 H 3.0349 -1.6258 0.9574 0
M  V30 54 H 3.6797 -0.4563 -0.1995 0
M  V30 55 H 1.1396 -1.6961 2.4061 0
M  V30 56 H 0.2575 -2.6743 1.2722 0
M  V30 57 H -0.6125 -1.5499 2.3091 0
M  V30 58 H 3.1386 1.31 1.1593 0
M  V30 59 H 2.843 0.1214 2.4217 0
M  V30 60 H -1.0126 2.5774 2.1893 0
M  V30 61 H -1.7418 0.9439 2.3697 0
M  V30 62 H 1.5208 5.7585 -1.0021 0
M  V30 63 H 2.269 5.3914 0.5503 0
M  V30 64 H 0.438 7.1014 0.7925 0
M  V30 65 H -0.7234 5.9529 0.0855 0
M  V30 66 H -0.0051 5.6115 1.6542 0
M  V30 67 H -2.0839 3.5056 6.0863 0
M  V30 68 H -2.9303 1.9398 6.2161 0
M  V30 69 H -4.4044 3.8131 6.9172 0
M  V30 70 H -5.0471 3.0304 5.461 0
M  V30 71 H -4.2076 4.5826 5.3312 0
M  V30 END ATOM
M  V30 BEGIN BOND
M  V30 1 2 1 2
M  V30 2 1 2 3
M  V30 3 1 2 4
M  V30 4 2 3 5
M  V30 5 2 4 6
M  V30 6 1 5 7
M  V30 7 1 5 8
M  V30 8 1 7 9
M  V30 9 1 7 10
M  V30 10 1 8 11
M  V30 11 1 9 12
M  V30 12 1 9 13
M  V30 13 1 12 14
M  V30 14 1 12 15
M  V30 15 1 13 16
M  V30 16 1 15 17
M  V30 17 1 16 18
M  V30 18 1 17 19
M  V30 19 1 17 20
M  V30 20 1 18 21
M  V30 21 1 19 22
M  V30 22 1 19 23
M  V30 23 1 22 24
M  V30 24 2 23 25
M  V30 25 1 23 26
M  V30 26 2 24 27
M  V30 27 1 24 28
M  V30 28 1 26 29
M  V30 29 1 28 30
M  V30 30 1 29 31
M  V30 31 1 30 32
M  V30 32 2 31 33
M  V30 33 1 31 34
M  V30 34 1 34 35
M  V30 35 1 6 7
M  V30 36 1 11 13
M  V30 37 1 16 17
M  V30 38 1 19 21
M  V30 39 1 3 36
M  V30 40 1 4 37
M  V30 41 1 6 38
M  V30 42 1 8 39
M  V30 43 1 8 40
M  V30 44 1 9 41
M  V30 45 1 10 42
M  V30 46 1 10 43
M  V30 47 1 10 44
M  V30 48 1 11 45
M  V30 49 1 11 46
M  V30 50 1 12 47
M  V30 51 1 13 48
M  V30 52 1 14 49
M  V30 53 1 15 50
M  V30 54 1 15 51
M  V30 55 1 16 52
M  V30 56 1 18 53
M  V30 57 1 18 54
M  V30 58 1 20 55
M  V30 59 1 20 56
M  V30 60 1 20 57
M  V30 61 1 21 58
M  V30 62 1 21 59
M  V30 63 1 26 60
M  V30 64 1 26 61
M  V30 65 1 30 62
M  V30 66 1 30 63
M  V30 67 1 32 64
M  V30 68 1 32 65
M  V30 69 1 32 66
M  V30 70 1 34 67
M  V30 71 1 34 68
M  V30 72 1 35 69
M  V30 73 1 35 70
M  V30 74 1 35 71
M  V30 END BOND
M  V30 BEGIN COLLECTION
M  V30 MDLV30/STEABS ATOMS=(7 7 9 12 13 16 17 19)
M  V30 END COLLECTION
M  V30 END CTAB
M  END
>  <Column 1>
1484

>  <level_0>
1634

>  <index>
1634

>  <Unnamed: 0>
1634

>  <NO.>
1646

>  <Name>
prednicarbate

>  <IUPAC_name>
[2-[(8s-9s-10r-11s-13s-14s-17r)-17-ethoxycarbonyloxy-11-hydroxy-10-13-dimethyl-3-oxo-7-8-9-11-12-14-15-16-octahydro-6h-cyclopenta[a]phenanthren-17-yl]-2-oxoethyl] propanoate

>  <SMILES>
CCOC(=O)O[C@]1(C(=O)COC(=O)CC)CC[C@H]2[C@@H]3CCC4=CC(=O)C=C[C@]4(C)[C@H]3[C@@H](O)C[C@@]21C

>  <CID>
6714002

>  <logBB>


>  <BBB+/BBB->
BBB+

>  <Inchi>
InChI=1S/C27H36O8/c1-5-22(31)34-15-21(30)27(35-24(32)33-6-2)12-10-19-18-8-7-16-13-17(28)9-11-25(16-3)23(18)20(29)14-26(19-27)4/h9-11-13-18-20-23-29H-5-8-10-12-14-15H2-1-4H3/t18--19--20--23+-25--26--27-/m0/s1

>  <threshold>
-1

>  <reference>
R1|R6|R27|R30|

>  <group>
B

>  <Class>
-1

>  <ABC>
27.27

>  <ABCGG>
22.19

>  <nAcid>
0

>  <nBase>
0

>  <nAromAtom>
0

>  <nAromBond>
0

>  <nAtom>
71

>  <nHeavyAtom>
35

>  <nSpiro>
0

>  <nBridgehead>
0

>  <nHetero>
8

>  <nN>
0

>  <nO>
8

>  <nF>
0

>  <BalabanJ>
1.65

>  <BertzCT>
981.67

>  <nBonds>
74

>  <nBondsO>
38

>  <nBondsS>
68

>  <nBondsD>
6

>  <nBondsT>
0

>  <nBondsA>
0

>  <nBondsM>
6

>  <nBondsKS>
68

>  <nBondsKD>
6

>  <RNCG>
0.14

>  <RPCG>
0.15

>  <FCSP3>
0.7

>  <SZ>
43.67

>  <Sm>
40.68

>  <Sv>
42.47

>  <Sse>
71.63

>  <Sp>
45.22

>  <Si>
80.15

>  <MZ>
0.62

>  <Mm>
0.57

>  <Mv>
0.6

>  <Mse>
1.01

>  <Mp>
0.64

>  <Mi>
1.13

>  <NsCH3>
4

>  <NdCH2>
0

>  <NssCH2>
8

>  <NtCH>
0

>  <NdsCH>
3

>  <NaaCH>
0

>  <NsssCH>
4

>  <NddC>
0

>  <NtsC>
0

>  <NdssC>
5

>  <NaasC>
0

>  <NaaaC>
0

>  <NssssC>
3

>  <NsNH3>
0

>  <NsNH2>
0

>  <NssNH2>
0

>  <NdNH>
0

>  <NssNH>
0

>  <NaaNH>
0

>  <NtN>
0

>  <NsssNH>
0

>  <NdsN>
0

>  <NaaN>
0

>  <NsssN>
0

>  <NddsN>
0

>  <NaasN>
0

>  <NssssN>
0

>  <NsOH>
1

>  <NdO>
4

>  <NssO>
3

>  <NaaO>
0

>  <NsF>
0

>  <NsSiH3>
0

>  <NssSiH2>
0

>  <NsssSiH>
0

>  <NssssSi>
0

>  <NsPH2>
0

>  <NssPH>
0

>  <NsssP>
0

>  <NdsssP>
0

>  <NsssssP>
0

>  <NsSH>
0

>  <NdS>
0

>  <NssS>
0

>  <NaaS>
0

>  <NdssS>
0

>  <NddssS>
0

>  <NsCl>
0

>  <NsBr>
0

>  <NsI>
0

>  <fragCpx>
254.08

>  <fMF>
0.24

>  <nHBAcc>
8

>  <nHBDon>
1

>  <Kier1>
28.02

>  <Kier2>
10.64

>  <Lipinski>
1

>  <GhoseFilter>
0

>  <FilterItLogS>
-3.9

>  <VMcGowan>
369.01

>  <LabuteASA>
205.61

>  <PEOE_VSA1>
19.32

>  <PEOE_VSA2>
14.38

>  <PEOE_VSA3>
4.79

>  <PEOE_VSA4>
0

>  <PEOE_VSA5>
0

>  <PEOE_VSA6>
32.42

>  <PEOE_VSA7>
63.02

>  <PEOE_VSA8>
23.17

>  <PEOE_VSA9>
12.71

>  <PEOE_VSA10>
0

>  <PEOE_VSA11>
17.99

>  <PEOE_VSA12>
5.78

>  <PEOE_VSA13>
0

>  <SMR_VSA1>
38.5

>  <SMR_VSA2>
0

>  <SMR_VSA3>
0

>  <SMR_VSA4>
28.58

>  <SMR_VSA5>
77.92

>  <SMR_VSA6>
13.21

>  <SMR_VSA7>
23.8

>  <SMR_VSA8>
0

>  <SMR_VSA9>
0

>  <SlogP_VSA1>
0

>  <SlogP_VSA2>
53.72

>  <SlogP_VSA3>
28.59

>  <SlogP_VSA4>
28.58

>  <SlogP_VSA5>
66.22

>  <SlogP_VSA6>
23.8

>  <SlogP_VSA7>
0

>  <SlogP_VSA8>
0

>  <SlogP_VSA9>
0

>  <SlogP_VSA10>
4.79

>  <SlogP_VSA11>
0

>  <EState_VSA1>
47.05

>  <EState_VSA2>
49.41

>  <EState_VSA3>
6.42

>  <EState_VSA4>
18.41

>  <EState_VSA5>
0

>  <EState_VSA6>
26

>  <EState_VSA7>
13

>  <EState_VSA8>
6.92

>  <EState_VSA9>
14.21

>  <EState_VSA10>
24.28

>  <VSA_EState1>
16.03

>  <VSA_EState2>
49.97

>  <VSA_EState3>
11.58

>  <VSA_EState4>
-1.81

>  <VSA_EState5>
-1.06

>  <VSA_EState6>
0

>  <VSA_EState7>
6.31

>  <VSA_EState8>
6.9

>  <VSA_EState9>
0

>  <apol>
75.51

>  <bpol>
44.8

>  <nRing>
4

>  <nHRing>
0

>  <naRing>
0

>  <naHRing>
0

>  <nARing 2>
4

>  <nAHRing 2>
0

>  <nFRing>
1

>  <nFHRing>
0

>  <nFaRing>
0

>  <nFaHRing>
0

>  <nFARing 2>
1

>  <nFAHRing 2>
0

>  <nRot>
6

>  <SLogP>
3.7

>  <SMR>
125.1

>  <TopoPSA(NO)>
116.2

>  <TopoPSA>
116.2

>  <JGI1>
0.28

>  <JGI2>
0.13

>  <JGI3>
0.07

>  <JGI4>
0.05

>  <JGI5>
0.03

>  <Diameter>
15

>  <Radius>
8

>  <TMWC10>
154.7

>  <TSRW10>
87.11

>  <MW>
488.24

>  <AMW>
6.88

>  <WPath>
3383

>  <WPol>
72

>  <Zagreb1>
194

>  <Zagreb2>
242

>  <mZagreb2>
7.65

>  <yes>


>  <nAR-cont>
0.199399

>  <nHA-cont>
0.523063577

>  <MWHBN>
0.407310711

>  <MWHBN-cont>
0.447344682

>  <TPSA-cont>
0.188851844

>  <pka_cont>
0.97

>  <yes.1>


>  <BBB_SCORE>
2.256183289

>  <MMFF94 Energy>
66.047

$$$$
Compound 1253
Actelion Java MolfileCreator 2.0

  0  0  0  0  0  0              0 V3000
M  V30 BEGIN CTAB
M  V30 COUNTS 55 56 0 0 0
M  V30 BEGIN ATOM
M  V30 1 O -1.1059 -3.5582 3.9542 0
M  V30 2 C -0.534 -4.2804 3.1513 0
M  V30 3 O -0.5482 -5.6208 3.3187 0
M  V30 4 C 0.3133 -3.8477 1.9539 0 CFG=1
M  V30 5 N -0.1153 -2.5438 1.4534 0
M  V30 6 C 1.7658 -3.629 2.3692 0
M  V30 7 C -1.2552 -2.4204 0.6872 0
M  V30 8 C 0.8394 -1.5014 1.792 0
M  V30 9 C 1.7938 -2.1588 2.779 0
M  V30 10 O -1.9428 -3.4076 0.4139 0
M  V30 11 C -1.6233 -1.0004 0.1768 0 CFG=1
M  V30 12 N -0.6979 -0.6643 -0.9291 0
M  V30 13 C -3.087 -0.983 -0.2753 0
M  V30 14 C -0.7243 0.7624 -1.3399 0 CFG=2
M  V30 15 C -0.1789 0.8615 -2.7863 0
M  V30 16 C 0.1287 1.6057 -0.3767 0
M  V30 17 O 0.6339 1.6803 -3.1933 0
M  V30 18 O -0.7813 -0.0868 -3.5711 0
M  V30 19 C -0.1454 3.1088 -0.5188 0
M  V30 20 C -0.3483 -0.081 -4.9363 0
M  V30 21 C 0.6919 3.9113 0.4463 0
M  V30 22 C -1.0752 -1.1933 -5.6663 0
M  V30 23 C 0.198 4.2464 1.7138 0
M  V30 24 C 1.9901 4.3046 0.095 0
M  V30 25 C 0.9858 4.9714 2.6093 0
M  V30 26 C 2.776 5.0293 0.9917 0
M  V30 27 C 2.2736 5.3632 2.2481 0
M  V30 28 H -1.1368 -5.7509 4.0916 0
M  V30 29 H 0.2111 -4.598 1.162 0
M  V30 30 H 2.1001 -4.2892 3.175 0
M  V30 31 H 2.4256 -3.7772 1.5057 0
M  V30 32 H 0.3381 -0.6294 2.219 0
M  V30 33 H 1.3636 -1.2063 0.8777 0
M  V30 34 H 2.7972 -1.7257 2.7443 0
M  V30 35 H 1.4118 -2.0495 3.8011 0
M  V30 36 H -1.5144 -0.3083 1.0172 0
M  V30 37 H -0.9618 -1.2376 -1.7381 0
M  V30 38 H -3.7397 -1.3601 0.5202 0
M  V30 39 H -3.2456 -1.6175 -1.1548 0
M  V30 40 H -3.4249 0.028 -0.5205 0
M  V30 41 H -1.749 1.1467 -1.3802 0
M  V30 42 H 1.1954 1.4015 -0.5401 0
M  V30 43 H -0.0793 1.3268 0.6628 0
M  V30 44 H 0.0525 3.4604 -1.5369 0
M  V30 45 H -1.2078 3.3132 -0.3338 0
M  V30 46 H 0.7327 -0.2527 -4.9829 0
M  V30 47 H -0.5903 0.8836 -5.3959 0
M  V30 48 H -0.7772 -1.2299 -6.7177 0
M  V30 49 H -0.8607 -2.1622 -5.2035 0
M  V30 50 H -2.159 -1.0469 -5.6105 0
M  V30 51 H -0.8033 3.9454 2.0119 0
M  V30 52 H 2.3949 4.0465 -0.8816 0
M  V30 53 H 0.5948 5.2305 3.5897 0
M  V30 54 H 3.7805 5.3326 0.7094 0
M  V30 55 H 2.8861 5.9282 2.9456 0
M  V30 END ATOM
M  V30 BEGIN BOND
M  V30 1 2 1 2
M  V30 2 1 2 3
M  V30 3 1 2 4
M  V30 4 1 4 5
M  V30 5 1 4 6
M  V30 6 1 5 7
M  V30 7 1 5 8
M  V30 8 1 6 9
M  V30 9 2 7 10
M  V30 10 1 7 11
M  V30 11 1 11 12
M  V30 12 1 11 13
M  V30 13 1 12 14
M  V30 14 1 14 15
M  V30 15 1 14 16
M  V30 16 2 15 17
M  V30 17 1 15 18
M  V30 18 1 16 19
M  V30 19 1 18 20
M  V30 20 1 19 21
M  V30 21 1 20 22
M  V30 22 2 21 23
M  V30 23 1 21 24
M  V30 24 1 23 25
M  V30 25 2 24 26
M  V30 26 2 25 27
M  V30 27 1 8 9
M  V30 28 1 26 27
M  V30 29 1 3 28
M  V30 30 1 4 29
M  V30 31 1 6 30
M  V30 32 1 6 31
M  V30 33 1 8 32
M  V30 34 1 8 33
M  V30 35 1 9 34
M  V30 36 1 9 35
M  V30 37 1 11 36
M  V30 38 1 12 37
M  V30 39 1 13 38
M  V30 40 1 13 39
M  V30 41 1 13 40
M  V30 42 1 14 41
M  V30 43 1 16 42
M  V30 44 1 16 43
M  V30 45 1 19 44
M  V30 46 1 19 45
M  V30 47 1 20 46
M  V30 48 1 20 47
M  V30 49 1 22 48
M  V30 50 1 22 49
M  V30 51 1 22 50
M  V30 52 1 23 51
M  V30 53 1 24 52
M  V30 54 1 25 53
M  V30 55 1 26 54
M  V30 56 1 27 55
M  V30 END BOND
M  V30 BEGIN COLLECTION
M  V30 MDLV30/STEABS ATOMS=(3 4 11 14)
M  V30 END COLLECTION
M  V30 END CTAB
M  END
>  <Column 1>
1485

>  <level_0>
1635

>  <index>
1635

>  <Unnamed: 0>
1635

>  <NO.>
1647

>  <Name>
enalapril

>  <IUPAC_name>
(2s)-1-[(2s)-2-[[(2s)-1-ethoxy-1-oxo-4-phenylbutan-2-yl]amino]propanoyl]pyrrolidine-2-carboxylic acid

>  <SMILES>
CCOC(=O)[C@H](CCc1ccccc1)N[C@@H](C)C(=O)N1CCC[C@H]1C(=O)O

>  <CID>
5388962

>  <logBB>


>  <BBB+/BBB->
BBB-

>  <Inchi>
InChI=1S/C20H28N2O5/c1-3-27-20(26)16(12-11-15-8-5-4-6-9-15)21-14(2)18(23)22-13-7-10-17(22)19(24)25/h4-6-8-9-14-16-17-21H-3-7-10-13H2-1-2H3-(H-24-25)/t14--16--17-/m0/s1

>  <threshold>
-1

>  <reference>
R1|R13|R9|R24|R27|R30|R50|

>  <group>
B

>  <Class>
1

>  <ABC>
20.14

>  <ABCGG>
17.89

>  <nAcid>
1

>  <nBase>
1

>  <nAromAtom>
6

>  <nAromBond>
6

>  <nAtom>
55

>  <nHeavyAtom>
27

>  <nSpiro>
0

>  <nBridgehead>
0

>  <nHetero>
7

>  <nN>
2

>  <nO>
5

>  <nF>
0

>  <BalabanJ>
1.91

>  <BertzCT>
649.03

>  <nBonds>
56

>  <nBondsO>
28

>  <nBondsS>
47

>  <nBondsD>
3

>  <nBondsT>
0

>  <nBondsA>
6

>  <nBondsM>
9

>  <nBondsKS>
50

>  <nBondsKD>
6

>  <RNCG>
0.17

>  <RPCG>
0.11

>  <FCSP3>
0.55

>  <SZ>
33.67

>  <Sm>
31.34

>  <Sv>
32.68

>  <Sse>
55.41

>  <Sp>
34.9

>  <Si>
62.44

>  <MZ>
0.61

>  <Mm>
0.57

>  <Mv>
0.59

>  <Mse>
1.01

>  <Mp>
0.63

>  <Mi>
1.14

>  <NsCH3>
2

>  <NdCH2>
0

>  <NssCH2>
6

>  <NtCH>
0

>  <NdsCH>
0

>  <NaaCH>
5

>  <NsssCH>
3

>  <NddC>
0

>  <NtsC>
0

>  <NdssC>
3

>  <NaasC>
1

>  <NaaaC>
0

>  <NssssC>
0

>  <NsNH3>
0

>  <NsNH2>
0

>  <NssNH2>
0

>  <NdNH>
0

>  <NssNH>
1

>  <NaaNH>
0

>  <NtN>
0

>  <NsssNH>
0

>  <NdsN>
0

>  <NaaN>
0

>  <NsssN>
1

>  <NddsN>
0

>  <NaasN>
0

>  <NssssN>
0

>  <NsOH>
1

>  <NdO>
3

>  <NssO>
1

>  <NaaO>
0

>  <NsF>
0

>  <NsSiH3>
0

>  <NssSiH2>
0

>  <NsssSiH>
0

>  <NssssSi>
0

>  <NsPH2>
0

>  <NssPH>
0

>  <NsssP>
0

>  <NdsssP>
0

>  <NsssssP>
0

>  <NsSH>
0

>  <NdS>
0

>  <NssS>
0

>  <NaaS>
0

>  <NdssS>
0

>  <NddssS>
0

>  <NsCl>
0

>  <NsBr>
0

>  <NsI>
0

>  <fragCpx>
82.07

>  <fMF>
0.31

>  <nHBAcc>
5

>  <nHBDon>
2

>  <Kier1>
23.28

>  <Kier2>
11.87

>  <Lipinski>
1

>  <GhoseFilter>
1

>  <FilterItLogS>
-2.95

>  <VMcGowan>
294.45

>  <LabuteASA>
159.24

>  <PEOE_VSA1>
14.74

>  <PEOE_VSA2>
14.91

>  <PEOE_VSA3>
4.79

>  <PEOE_VSA4>
0

>  <PEOE_VSA5>
0

>  <PEOE_VSA6>
30.33

>  <PEOE_VSA7>
45.09

>  <PEOE_VSA8>
6.54

>  <PEOE_VSA9>
12.65

>  <PEOE_VSA10>
12.08

>  <PEOE_VSA11>
0

>  <PEOE_VSA12>
5.91

>  <PEOE_VSA13>
0

>  <SMR_VSA1>
24.23

>  <SMR_VSA2>
0

>  <SMR_VSA3>
10.22

>  <SMR_VSA4>
0

>  <SMR_VSA5>
57.66

>  <SMR_VSA6>
13.15

>  <SMR_VSA7>
35.9

>  <SMR_VSA8>
0

>  <SMR_VSA9>
0

>  <SlogP_VSA1>
5.32

>  <SlogP_VSA2>
59.13

>  <SlogP_VSA3>
25.54

>  <SlogP_VSA4>
0

>  <SlogP_VSA5>
38.67

>  <SlogP_VSA6>
30.33

>  <SlogP_VSA7>
0

>  <SlogP_VSA8>
0

>  <SlogP_VSA9>
0

>  <SlogP_VSA10>
0

>  <SlogP_VSA11>
0

>  <EState_VSA1>
30.06

>  <EState_VSA2>
12.51

>  <EState_VSA3>
32.23

>  <EState_VSA4>
5.56

>  <EState_VSA5>
4.9

>  <EState_VSA6>
13.85

>  <EState_VSA7>
30.33

>  <EState_VSA8>
5.32

>  <EState_VSA9>
4.74

>  <EState_VSA10>
19.49

>  <VSA_EState1>
5.14

>  <VSA_EState2>
37.72

>  <VSA_EState3>
12.33

>  <VSA_EState4>
1.1

>  <VSA_EState5>
-1.68

>  <VSA_EState6>
7.69

>  <VSA_EState7>
2.29

>  <VSA_EState8>
4.09

>  <VSA_EState9>
0

>  <apol>
58.28

>  <bpol>
34.71

>  <nRing>
2

>  <nHRing>
1

>  <naRing>
1

>  <naHRing>
0

>  <nARing 2>
1

>  <nAHRing 2>
1

>  <nFRing>
0

>  <nFHRing>
0

>  <nFaRing>
0

>  <nFaHRing>
0

>  <nFARing 2>
0

>  <nFAHRing 2>
0

>  <nRot>
9

>  <SLogP>
1.6

>  <SMR>
100.15

>  <TopoPSA(NO)>
95.94

>  <TopoPSA>
95.94

>  <JGI1>
0.18

>  <JGI2>
0.09

>  <JGI3>
0.04

>  <JGI4>
0.04

>  <JGI5>
0.03

>  <Diameter>
13

>  <Radius>
7

>  <TMWC10>
129.18

>  <TSRW10>
75

>  <MW>
376.2

>  <AMW>
6.84

>  <WPath>
1982

>  <WPol>
38

>  <Zagreb1>
130

>  <Zagreb2>
148

>  <mZagreb2>
6.22

>  <yes>


>  <nAR-cont>
0.816016

>  <nHA-cont>
0.860070871

>  <MWHBN>
0.360901465

>  <MWHBN-cont>
0.628971908

>  <TPSA-cont>
0.330279225

>  <pka_cont>
0.97

>  <yes.1>


>  <BBB_SCORE>
3.765103183

>  <MMFF94 Energy>
94.364

$$$$
Compound 1254
Actelion Java MolfileCreator 2.0

  0  0  0  0  0  0              0 V3000
M  V30 BEGIN CTAB
M  V30 COUNTS 63 66 0 0 0
M  V30 BEGIN ATOM
M  V30 1 O 5.3211 -0.3963 -1.6654 0
M  V30 2 C 4.1777 -0.0136 -1.8799 0
M  V30 3 O 3.8438 1.1965 -2.4003 0
M  V30 4 C 2.9992 -0.8004 -1.591 0
M  V30 5 C 4.9387 2.0665 -2.7178 0
M  V30 6 N 3.1273 -2.0308 -0.9812 0
M  V30 7 C 1.6358 -0.599 -1.803 0
M  V30 8 C 5.4432 1.7801 -4.1195 0
M  V30 9 C 1.9057 -2.6117 -0.759 0
M  V30 10 C 0.9492 -1.7429 -1.2658 0
M  V30 11 C 0.9617 0.5667 -2.4705 0
M  V30 12 C 1.583 -3.8321 -0.1501 0
M  V30 13 C -0.4117 -2.1009 -1.1511 0
M  V30 14 C 0.6999 1.785 -1.5647 0
M  V30 15 C 0.2262 -4.1734 -0.041 0
M  V30 16 C -0.7704 -3.3068 -0.5301 0
M  V30 17 N -0.4311 1.5747 -0.6401 0
M  V30 18 O -0.2265 -5.3335 0.5444 0
M  V30 19 O -2.07 -3.7246 -0.3599 0
M  V30 20 C 0.0402 1.1642 0.7057 0
M  V30 21 C -1.2284 2.8107 -0.4712 0
M  V30 22 C 0.7431 -6.2727 0.9843 0
M  V30 23 C -3.1021 -2.8138 -0.7117 0
M  V30 24 C -1.1254 0.8948 1.683 0
M  V30 25 C -2.4343 2.6256 0.4808 0
M  V30 26 N -2.0174 2.0636 1.7794 0
M  V30 27 C -2.8976 2.1828 2.8521 0
M  V30 28 C -3.2652 1.0917 3.6551 0
M  V30 29 C -3.4459 3.4301 3.1942 0
M  V30 30 C -4.1496 1.2327 4.7319 0
M  V30 31 C -4.3289 3.581 4.2699 0
M  V30 32 C -4.6838 2.4789 5.0383 0
M  V30 33 H 5.7422 1.986 -1.9767 0
M  V30 34 H 4.557 3.0916 -2.6668 0
M  V30 35 H 4.0183 -2.4331 -0.7202 0
M  V30 36 H 6.2389 2.4778 -4.3955 0
M  V30 37 H 5.8309 0.7594 -4.1965 0
M  V30 38 H 4.6287 1.8671 -4.8462 0
M  V30 39 H 0.0141 0.2386 -2.9179 0
M  V30 40 H 1.5705 0.8863 -3.3252 0
M  V30 41 H 2.3739 -4.4693 0.2245 0
M  V30 42 H -1.1541 -1.4125 -1.5368 0
M  V30 43 H 1.6083 2.094 -1.0326 0
M  V30 44 H 0.4576 2.6112 -2.2469 0
M  V30 45 H 0.6419 0.2542 0.6482 0
M  V30 46 H 0.686 1.9444 1.1323 0
M  V30 47 H -0.593 3.623 -0.0927 0
M  V30 48 H -1.6207 3.1286 -1.445 0
M  V30 49 H 1.3681 -6.6164 0.1535 0
M  V30 50 H 0.2104 -7.1427 1.3805 0
M  V30 51 H 1.3522 -5.8597 1.795 0
M  V30 52 H -3.0199 -1.8802 -0.1449 0
M  V30 53 H -4.059 -3.2763 -0.4506 0
M  V30 54 H -3.1091 -2.6247 -1.7901 0
M  V30 55 H -1.6936 0.0196 1.3434 0
M  V30 56 H -0.689 0.663 2.6625 0
M  V30 57 H -2.9199 3.6013 0.588 0
M  V30 58 H -3.1643 1.9484 0.0185 0
M  V30 59 H -2.8854 0.0961 3.445 0
M  V30 60 H -3.1621 4.32 2.6393 0
M  V30 61 H -4.4183 0.3636 5.3264 0
M  V30 62 H -4.7282 4.5631 4.5076 0
M  V30 63 H -5.3679 2.5911 5.8746 0
M  V30 END ATOM
M  V30 BEGIN BOND
M  V30 1 2 1 2
M  V30 2 1 2 3
M  V30 3 1 2 4
M  V30 4 1 3 5
M  V30 5 1 4 6
M  V30 6 2 4 7
M  V30 7 1 5 8
M  V30 8 1 6 9
M  V30 9 1 7 10
M  V30 10 1 7 11
M  V30 11 1 9 12
M  V30 12 1 10 13
M  V30 13 1 11 14
M  V30 14 2 12 15
M  V30 15 2 13 16
M  V30 16 1 14 17
M  V30 17 1 15 18
M  V30 18 1 16 19
M  V30 19 1 17 20
M  V30 20 1 17 21
M  V30 21 1 18 22
M  V30 22 1 19 23
M  V30 23 1 20 24
M  V30 24 1 21 25
M  V30 25 1 24 26
M  V30 26 1 26 27
M  V30 27 2 27 28
M  V30 28 1 27 29
M  V30 29 1 28 30
M  V30 30 2 29 31
M  V30 31 2 30 32
M  V30 32 2 9 10
M  V30 33 1 15 16
M  V30 34 1 25 26
M  V30 35 1 31 32
M  V30 36 1 5 33
M  V30 37 1 5 34
M  V30 38 1 6 35
M  V30 39 1 8 36
M  V30 40 1 8 37
M  V30 41 1 8 38
M  V30 42 1 11 39
M  V30 43 1 11 40
M  V30 44 1 12 41
M  V30 45 1 13 42
M  V30 46 1 14 43
M  V30 47 1 14 44
M  V30 48 1 20 45
M  V30 49 1 20 46
M  V30 50 1 21 47
M  V30 51 1 21 48
M  V30 52 1 22 49
M  V30 53 1 22 50
M  V30 54 1 22 51
M  V30 55 1 23 52
M  V30 56 1 23 53
M  V30 57 1 23 54
M  V30 58 1 24 55
M  V30 59 1 24 56
M  V30 60 1 25 57
M  V30 61 1 25 58
M  V30 62 1 28 59
M  V30 63 1 29 60
M  V30 64 1 30 61
M  V30 65 1 31 62
M  V30 66 1 32 63
M  V30 END BOND
M  V30 END CTAB
M  END
>  <Column 1>
1486

>  <level_0>
1636

>  <index>
1636

>  <Unnamed: 0>
1636

>  <NO.>
1648

>  <Name>
alpertine

>  <IUPAC_name>
ethyl 5-6-dimethoxy-3-[2-(4-phenylpiperazin-1-yl)ethyl]-1h-indole-2-carboxylate

>  <SMILES>
CCOC(=O)c1[nH]c2cc(OC)c(OC)cc2c1CCN1CCN(c2ccccc2)CC1

>  <CID>
166547

>  <logBB>


>  <BBB+/BBB->
BBB+

>  <Inchi>
InChI=1S/C25H31N3O4/c1-4-32-25(29)24-19(20-16-22(30-2)23(31-3)17-21(20)26-24)10-11-27-12-14-28(15-13-27)18-8-6-5-7-9-18/h5-9-16-17-26H-4-10-15H2-1-3H3

>  <threshold>
-1

>  <reference>
R1|R13|R19|R6|R24|R27|R27|R27|R30|R30|

>  <group>
B

>  <Class>
1

>  <ABC>
24.62

>  <ABCGG>
18.66

>  <nAcid>
0

>  <nBase>
1

>  <nAromAtom>
15

>  <nAromBond>
16

>  <nAtom>
63

>  <nHeavyAtom>
32

>  <nSpiro>
0

>  <nBridgehead>
0

>  <nHetero>
7

>  <nN>
3

>  <nO>
4

>  <nF>
0

>  <BalabanJ>
1.33

>  <BertzCT>
1055.98

>  <nBonds>
66

>  <nBondsO>
35

>  <nBondsS>
49

>  <nBondsD>
1

>  <nBondsT>
0

>  <nBondsA>
16

>  <nBondsM>
17

>  <nBondsKS>
58

>  <nBondsKD>
8

>  <RNCG>
0.16

>  <RPCG>
0.12

>  <FCSP3>
0.4

>  <SZ>
39

>  <Sm>
36.43

>  <Sv>
38.53

>  <Sse>
63.07

>  <Sp>
41.27

>  <Si>
71.15

>  <MZ>
0.62

>  <Mm>
0.58

>  <Mv>
0.61

>  <Mse>
1

>  <Mp>
0.66

>  <Mi>
1.13

>  <NsCH3>
3

>  <NdCH2>
0

>  <NssCH2>
7

>  <NtCH>
0

>  <NdsCH>
0

>  <NaaCH>
7

>  <NsssCH>
0

>  <NddC>
0

>  <NtsC>
0

>  <NdssC>
1

>  <NaasC>
5

>  <NaaaC>
2

>  <NssssC>
0

>  <NsNH3>
0

>  <NsNH2>
0

>  <NssNH2>
0

>  <NdNH>
0

>  <NssNH>
0

>  <NaaNH>
1

>  <NtN>
0

>  <NsssNH>
0

>  <NdsN>
0

>  <NaaN>
0

>  <NsssN>
2

>  <NddsN>
0

>  <NaasN>
0

>  <NssssN>
0

>  <NsOH>
0

>  <NdO>
1

>  <NssO>
3

>  <NaaO>
0

>  <NsF>
0

>  <NsSiH3>
0

>  <NssSiH2>
0

>  <NsssSiH>
0

>  <NssssSi>
0

>  <NsPH2>
0

>  <NssPH>
0

>  <NsssP>
0

>  <NdsssP>
0

>  <NsssssP>
0

>  <NsSH>
0

>  <NdS>
0

>  <NssS>
0

>  <NaaS>
0

>  <NdssS>
0

>  <NddssS>
0

>  <NsCl>
0

>  <NsBr>
0

>  <NsI>
0

>  <fragCpx>
233.07

>  <fMF>
0.37

>  <nHBAcc>
6

>  <nHBDon>
1

>  <Kier1>
25.1

>  <Kier2>
12.11

>  <Lipinski>
1

>  <GhoseFilter>
1

>  <FilterItLogS>
-5.96

>  <VMcGowan>
338.69

>  <LabuteASA>
188.41

>  <PEOE_VSA1>
24.09

>  <PEOE_VSA2>
4.9

>  <PEOE_VSA3>
4.79

>  <PEOE_VSA4>
0

>  <PEOE_VSA5>
0

>  <PEOE_VSA6>
18.2

>  <PEOE_VSA7>
37.11

>  <PEOE_VSA8>
49.86

>  <PEOE_VSA9>
26.34

>  <PEOE_VSA10>
5.69

>  <PEOE_VSA11>
11.5

>  <PEOE_VSA12>
0

>  <PEOE_VSA13>
0

>  <SMR_VSA1>
19.01

>  <SMR_VSA2>
0

>  <SMR_VSA3>
9.88

>  <SMR_VSA4>
0

>  <SMR_VSA5>
13.34

>  <SMR_VSA6>
58.45

>  <SMR_VSA7>
53.72

>  <SMR_VSA8>
0

>  <SMR_VSA9>
11.5

>  <SlogP_VSA1>
14.37

>  <SlogP_VSA2>
69.4

>  <SlogP_VSA3>
11.16

>  <SlogP_VSA4>
0

>  <SlogP_VSA5>
22.98

>  <SlogP_VSA6>
42.46

>  <SlogP_VSA7>
0

>  <SlogP_VSA8>
10.9

>  <SlogP_VSA9>
0

>  <SlogP_VSA10>
5.69

>  <SlogP_VSA11>
11.5

>  <EState_VSA1>
0

>  <EState_VSA2>
5.97

>  <EState_VSA3>
23.8

>  <EState_VSA4>
55.61

>  <EState_VSA5>
5.69

>  <EState_VSA6>
14.22

>  <EState_VSA7>
25.12

>  <EState_VSA8>
39.05

>  <EState_VSA9>
14.21

>  <EState_VSA10>
4.79

>  <VSA_EState1>
16.24

>  <VSA_EState2>
20.79

>  <VSA_EState3>
0.97

>  <VSA_EState4>
3.59

>  <VSA_EState5>
0.94

>  <VSA_EState6>
14.35

>  <VSA_EState7>
0.75

>  <VSA_EState8>
6.99

>  <VSA_EState9>
3.23

>  <apol>
68.93

>  <bpol>
41.17

>  <nRing>
4

>  <nHRing>
2

>  <naRing>
3

>  <naHRing>
1

>  <nARing 2>
1

>  <nAHRing 2>
1

>  <nFRing>
1

>  <nFHRing>
1

>  <nFaRing>
1

>  <nFaHRing>
1

>  <nFARing 2>
0

>  <nFAHRing 2>
0

>  <nRot>
8

>  <SLogP>
3.73

>  <SMR>
126.16

>  <TopoPSA(NO)>
67.03

>  <TopoPSA>
67.03

>  <JGI1>
0.16

>  <JGI2>
0.08

>  <JGI3>
0.04

>  <JGI4>
0.04

>  <JGI5>
0.03

>  <Diameter>
16

>  <Radius>
8

>  <TMWC10>
144.84

>  <TSRW10>
82.27

>  <MW>
437.23

>  <AMW>
6.94

>  <WPath>
3164

>  <WPol>
52

>  <Zagreb1>
166

>  <Zagreb2>
197

>  <mZagreb2>
7.33

>  <yes>


>  <nAR-cont>
0.816016

>  <nHA-cont>
0.658856097

>  <MWHBN>
0.334767326

>  <MWHBN-cont>
0.725979258

>  <TPSA-cont>
0.532088977

>  <pka_cont>
0.97

>  <yes.1>


>  <BBB_SCORE>
4.113018938

>  <MMFF94 Energy>
134.92

$$$$
Compound 1255
Actelion Java MolfileCreator 2.0

  0  0  0  0  0  0              0 V3000
M  V30 BEGIN CTAB
M  V30 COUNTS 40 41 0 0 0
M  V30 BEGIN ATOM
M  V30 1 O -1.8071 -2.2003 1.0211 0
M  V30 2 C -0.776 -1.8118 0.4971 0
M  V30 3 O 0.0162 -2.4943 -0.3676 0
M  V30 4 C -0.0975 -0.5649 0.863 0
M  V30 5 C -0.5049 -3.7525 -0.8121 0
M  V30 6 C 0.1165 0.5118 -0.0221 0
M  V30 7 C 0.3645 -0.5106 2.1776 0
M  V30 8 C -0.0765 -4.8574 0.1347 0
M  V30 9 N -0.3654 0.5965 -1.3361 0
M  V30 10 C 0.8688 1.5769 0.5296 0
M  V30 11 N 1.0694 0.5059 2.7275 0
M  V30 12 N -1.2866 -0.28 -1.7807 0
M  V30 13 C 1.2909 1.5053 1.8519 0
M  V30 14 C 1.3538 2.8332 0.0912 0
M  V30 15 C -1.7139 -0.1745 -3.0029 0
M  V30 16 N 1.9733 2.668 2.098 0
M  V30 17 N 2.0294 3.4995 1.0324 0
M  V30 18 C -2.7538 -1.1607 -3.4715 0
M  V30 19 C -1.2516 0.8653 -3.9923 0
M  V30 20 C 2.5999 3.0488 3.3474 0
M  V30 21 C 1.6566 3.8278 4.2464 0
M  V30 22 H -0.0894 -3.9381 -1.8079 0
M  V30 23 H -1.5954 -3.7186 -0.9201 0
M  V30 24 H 0.1766 -1.3398 2.8585 0
M  V30 25 H -0.4214 -5.8312 -0.2239 0
M  V30 26 H 1.014 -4.8813 0.2292 0
M  V30 27 H -0.4793 -4.6919 1.1391 0
M  V30 28 H -0.1055 1.4225 -1.8658 0
M  V30 29 H 1.2418 3.2924 -0.8817 0
M  V30 30 H -3.6509 -0.619 -3.7833 0
M  V30 31 H -3.0165 -1.8576 -2.6707 0
M  V30 32 H -2.3592 -1.7249 -4.3208 0
M  V30 33 H -1.5407 1.8595 -3.6408 0
M  V30 34 H -0.1654 0.814 -4.1056 0
M  V30 35 H -1.7114 0.6921 -4.969 0
M  V30 36 H 3.485 3.6479 3.106 0
M  V30 37 H 2.9443 2.1368 3.8464 0
M  V30 38 H 0.7715 3.2344 4.4991 0
M  V30 39 H 1.314 4.7462 3.7579 0
M  V30 40 H 2.1604 4.1036 5.1779 0
M  V30 END ATOM
M  V30 BEGIN BOND
M  V30 1 2 1 2
M  V30 2 1 2 3
M  V30 3 1 2 4
M  V30 4 1 3 5
M  V30 5 2 4 6
M  V30 6 1 4 7
M  V30 7 1 5 8
M  V30 8 1 6 9
M  V30 9 1 6 10
M  V30 10 2 7 11
M  V30 11 1 9 12
M  V30 12 2 10 13
M  V30 13 1 10 14
M  V30 14 2 12 15
M  V30 15 1 13 16
M  V30 16 2 14 17
M  V30 17 1 15 18
M  V30 18 1 15 19
M  V30 19 1 16 20
M  V30 20 1 20 21
M  V30 21 1 11 13
M  V30 22 1 16 17
M  V30 23 1 5 22
M  V30 24 1 5 23
M  V30 25 1 7 24
M  V30 26 1 8 25
M  V30 27 1 8 26
M  V30 28 1 8 27
M  V30 29 1 9 28
M  V30 30 1 14 29
M  V30 31 1 18 30
M  V30 32 1 18 31
M  V30 33 1 18 32
M  V30 34 1 19 33
M  V30 35 1 19 34
M  V30 36 1 19 35
M  V30 37 1 20 36
M  V30 38 1 20 37
M  V30 39 1 21 38
M  V30 40 1 21 39
M  V30 41 1 21 40
M  V30 END BOND
M  V30 END CTAB
M  END
>  <Column 1>
1487

>  <level_0>
1637

>  <index>
1637

>  <Unnamed: 0>
1637

>  <NO.>
1649

>  <Name>
etazolate

>  <IUPAC_name>
ethyl 1-ethyl-4-(2-propan-2-ylidenehydrazinyl)pyrazolo[3-4-b]pyridine-5-carboxylate

>  <SMILES>
CCOC(=O)c1cnc2c(cnn2CC)c1NN=C(C)C

>  <CID>
3277

>  <logBB>


>  <BBB+/BBB->
BBB+

>  <Inchi>
InChI=1S/C14H19N5O2/c1-5-19-13-10(8-16-19)12(18-17-9(3)4)11(7-15-13)14(20)21-6-2/h7-8H-5-6H2-1-4H3-(H-15-18)

>  <threshold>
-1

>  <reference>
R1|R13|R19|R6|R24|R27|R27|R27|R30|R30|

>  <group>
B

>  <Class>
1

>  <ABC>
15.68

>  <ABCGG>
14.09

>  <nAcid>
0

>  <nBase>
0

>  <nAromAtom>
9

>  <nAromBond>
10

>  <nAtom>
40

>  <nHeavyAtom>
21

>  <nSpiro>
0

>  <nBridgehead>
0

>  <nHetero>
7

>  <nN>
5

>  <nO>
2

>  <nF>
0

>  <BalabanJ>
2.07

>  <BertzCT>
685.97

>  <nBonds>
41

>  <nBondsO>
22

>  <nBondsS>
29

>  <nBondsD>
2

>  <nBondsT>
0

>  <nBondsA>
10

>  <nBondsM>
12

>  <nBondsKS>
35

>  <nBondsKD>
6

>  <RNCG>
0.24

>  <RPCG>
0.17

>  <FCSP3>
0.43

>  <SZ>
25.67

>  <Sm>
24.09

>  <Sv>
24.37

>  <Sse>
40.41

>  <Sp>
25.84

>  <Si>
45.82

>  <MZ>
0.64

>  <Mm>
0.6

>  <Mv>
0.61

>  <Mse>
1.01

>  <Mp>
0.65

>  <Mi>
1.15

>  <NsCH3>
4

>  <NdCH2>
0

>  <NssCH2>
2

>  <NtCH>
0

>  <NdsCH>
0

>  <NaaCH>
2

>  <NsssCH>
0

>  <NddC>
0

>  <NtsC>
0

>  <NdssC>
2

>  <NaasC>
2

>  <NaaaC>
2

>  <NssssC>
0

>  <NsNH3>
0

>  <NsNH2>
0

>  <NssNH2>
0

>  <NdNH>
0

>  <NssNH>
1

>  <NaaNH>
0

>  <NtN>
0

>  <NsssNH>
0

>  <NdsN>
1

>  <NaaN>
2

>  <NsssN>
0

>  <NddsN>
0

>  <NaasN>
1

>  <NssssN>
0

>  <NsOH>
0

>  <NdO>
1

>  <NssO>
1

>  <NaaO>
0

>  <NsF>
0

>  <NsSiH3>
0

>  <NssSiH2>
0

>  <NsssSiH>
0

>  <NssssSi>
0

>  <NsPH2>
0

>  <NssPH>
0

>  <NsssP>
0

>  <NdsssP>
0

>  <NsssssP>
0

>  <NsSH>
0

>  <NdS>
0

>  <NssS>
0

>  <NaaS>
0

>  <NdssS>
0

>  <NddssS>
0

>  <NsCl>
0

>  <NsBr>
0

>  <NsI>
0

>  <fragCpx>
64.07

>  <fMF>
0.23

>  <nHBAcc>
7

>  <nHBDon>
1

>  <Kier1>
17.36

>  <Kier2>
8.02

>  <Lipinski>
1

>  <GhoseFilter>
1

>  <FilterItLogS>
-3.6

>  <VMcGowan>
222.24

>  <LabuteASA>
122.55

>  <PEOE_VSA1>
4.74

>  <PEOE_VSA2>
5.43

>  <PEOE_VSA3>
14.46

>  <PEOE_VSA4>
10.2

>  <PEOE_VSA5>
0

>  <PEOE_VSA6>
0

>  <PEOE_VSA7>
27.69

>  <PEOE_VSA8>
18.45

>  <PEOE_VSA9>
23.88

>  <PEOE_VSA10>
5.56

>  <PEOE_VSA11>
5.65

>  <PEOE_VSA12>
0

>  <PEOE_VSA13>
0

>  <SMR_VSA1>
9.53

>  <SMR_VSA2>
0

>  <SMR_VSA3>
14.76

>  <SMR_VSA4>
5.1

>  <SMR_VSA5>
34.24

>  <SMR_VSA6>
12.03

>  <SMR_VSA7>
17.96

>  <SMR_VSA8>
0

>  <SMR_VSA9>
0

>  <SlogP_VSA1>
5.43

>  <SlogP_VSA2>
33.05

>  <SlogP_VSA3>
11.28

>  <SlogP_VSA4>
0

>  <SlogP_VSA5>
38.05

>  <SlogP_VSA6>
17.5

>  <SlogP_VSA7>
0

>  <SlogP_VSA8>
11.03

>  <SlogP_VSA9>
0

>  <SlogP_VSA10>
5.69

>  <SlogP_VSA11>
0

>  <EState_VSA1>
5.97

>  <EState_VSA2>
0

>  <EState_VSA3>
30.05

>  <EState_VSA4>
11.1

>  <EState_VSA5>
6.2

>  <EState_VSA6>
17.8

>  <EState_VSA7>
20.77

>  <EState_VSA8>
20.61

>  <EState_VSA9>
4.74

>  <EState_VSA10>
4.79

>  <VSA_EState1>
6.82

>  <VSA_EState2>
16.37

>  <VSA_EState3>
9.18

>  <VSA_EState4>
5.4

>  <VSA_EState5>
-0.43

>  <VSA_EState6>
0

>  <VSA_EState7>
3.18

>  <VSA_EState8>
8.48

>  <VSA_EState9>
0

>  <apol>
43.15

>  <bpol>
25.08

>  <nRing>
2

>  <nHRing>
2

>  <naRing>
2

>  <naHRing>
2

>  <nARing 2>
0

>  <nAHRing 2>
0

>  <nFRing>
1

>  <nFHRing>
1

>  <nFaRing>
1

>  <nFaHRing>
1

>  <nFARing 2>
0

>  <nFAHRing 2>
0

>  <nRot>
5

>  <SLogP>
2.44

>  <SMR>
81.56

>  <TopoPSA(NO)>
81.4

>  <TopoPSA>
81.4

>  <JGI1>
0.18

>  <JGI2>
0.1

>  <JGI3>
0.05

>  <JGI4>
0.04

>  <JGI5>
0.03

>  <Diameter>
10

>  <Radius>
5

>  <TMWC10>
116.64

>  <TSRW10>
68.59

>  <MW>
289.15

>  <AMW>
7.23

>  <WPath>
907

>  <WPol>
32

>  <Zagreb1>
104

>  <Zagreb2>
122

>  <mZagreb2>
4.89

>  <yes>


>  <nAR-cont>
0.336376

>  <nHA-cont>
0.994529749

>  <MWHBN>
0.470466158

>  <MWHBN-cont>
0

>  <TPSA-cont>
0.431777454

>  <pka_cont>
0.97

>  <yes.1>


>  <BBB_SCORE>
2.679460657

>  <MMFF94 Energy>
76.195

$$$$
Compound 1256
Actelion Java MolfileCreator 2.0

  0  0  0  0  0  0              0 V3000
M  V30 BEGIN CTAB
M  V30 COUNTS 34 35 0 0 0
M  V30 BEGIN ATOM
M  V30 1 F 1.1902 -2.6994 -4.5287 0
M  V30 2 C 0.5048 -1.9966 -3.6175 0
M  V30 3 C 0.1923 -0.6676 -3.8707 0
M  V30 4 C 0.1163 -2.6061 -2.4325 0
M  V30 5 C -0.5224 0.0672 -2.9222 0
M  V30 6 C -0.5983 -1.8738 -1.4826 0
M  V30 7 C -0.9278 -0.5254 -1.7121 0
M  V30 8 C -1.7107 0.2492 -0.6593 0 CFG=1
M  V30 9 N -0.8923 1.3263 -0.0932 0
M  V30 10 C -3.0744 0.7133 -1.1928 0
M  V30 11 C -0.0015 1.2352 0.965 0
M  V30 12 C -0.8681 2.6239 -0.5362 0
M  V30 13 C 0.3115 0.0686 1.7507 0
M  V30 14 C 0.5086 2.5178 1.0767 0
M  V30 15 N -0.0357 3.3651 0.1531 0
M  V30 16 O -0.2262 -1.0267 1.6571 0
M  V30 17 O 1.3032 0.3623 2.6385 0
M  V30 18 C 1.6977 -0.7339 3.471 0
M  V30 19 C 2.8051 -0.2555 4.3894 0
M  V30 20 H 0.5092 -0.2107 -4.8029 0
M  V30 21 H 0.3733 -3.6451 -2.2525 0
M  V30 22 H -0.752 1.1079 -3.1399 0
M  V30 23 H -0.8904 -2.3648 -0.5551 0
M  V30 24 H -1.9511 -0.4138 0.1785 0
M  V30 25 H -2.9862 1.368 -2.0663 0
M  V30 26 H -3.681 -0.148 -1.4951 0
M  V30 27 H -3.6279 1.2598 -0.421 0
M  V30 28 H -1.4683 2.9813 -1.3627 0
M  V30 29 H 1.2458 2.8718 1.7874 0
M  V30 30 H 2.0635 -1.5583 2.8488 0
M  V30 31 H 0.8427 -1.0717 4.0674 0
M  V30 32 H 3.1413 -1.0611 5.048 0
M  V30 33 H 3.6594 0.1056 3.8074 0
M  V30 34 H 2.461 0.5832 5.0037 0
M  V30 END ATOM
M  V30 BEGIN BOND
M  V30 1 1 1 2
M  V30 2 2 2 3
M  V30 3 1 2 4
M  V30 4 1 3 5
M  V30 5 2 4 6
M  V30 6 2 5 7
M  V30 7 1 7 8
M  V30 8 1 8 9
M  V30 9 1 8 10
M  V30 10 1 9 11
M  V30 11 1 9 12
M  V30 12 1 11 13
M  V30 13 2 11 14
M  V30 14 2 12 15
M  V30 15 2 13 16
M  V30 16 1 13 17
M  V30 17 1 17 18
M  V30 18 1 18 19
M  V30 19 1 6 7
M  V30 20 1 14 15
M  V30 21 1 3 20
M  V30 22 1 4 21
M  V30 23 1 5 22
M  V30 24 1 6 23
M  V30 25 1 8 24
M  V30 26 1 10 25
M  V30 27 1 10 26
M  V30 28 1 10 27
M  V30 29 1 12 28
M  V30 30 1 14 29
M  V30 31 1 18 30
M  V30 32 1 18 31
M  V30 33 1 19 32
M  V30 34 1 19 33
M  V30 35 1 19 34
M  V30 END BOND
M  V30 BEGIN COLLECTION
M  V30 MDLV30/STERAC1 ATOMS=(1 8)
M  V30 END COLLECTION
M  V30 END CTAB
M  END
>  <Column 1>
1488

>  <level_0>
1638

>  <index>
1638

>  <Unnamed: 0>
1638

>  <NO.>
1650

>  <Name>
flutomidate

>  <IUPAC_name>
ethyl 3-[1-(4-fluorophenyl)ethyl]imidazole-4-carboxylate

>  <SMILES>
CCOC(=O)c1cncn1C(C)c1ccc(F)cc1

>  <CID>
65635

>  <logBB>


>  <BBB+/BBB->
BBB+

>  <Inchi>
InChI=1S/C14H15FN2O2/c1-3-19-14(18)13-8-16-9-17(13)10(2)11-4-6-12(15)7-5-11/h4-10H-3H2-1-2H3

>  <threshold>
-1

>  <reference>
R1|R19|R6|R27|R27|R30|

>  <group>
B

>  <Class>
1

>  <ABC>
14.31

>  <ABCGG>
13.04

>  <nAcid>
0

>  <nBase>
0

>  <nAromAtom>
11

>  <nAromBond>
11

>  <nAtom>
34

>  <nHeavyAtom>
19

>  <nSpiro>
0

>  <nBridgehead>
0

>  <nHetero>
5

>  <nN>
2

>  <nO>
2

>  <nF>
1

>  <BalabanJ>
1.91

>  <BertzCT>
563.08

>  <nBonds>
35

>  <nBondsO>
20

>  <nBondsS>
23

>  <nBondsD>
1

>  <nBondsT>
0

>  <nBondsA>
11

>  <nBondsM>
12

>  <nBondsKS>
29

>  <nBondsKD>
6

>  <RNCG>
0.27

>  <RPCG>
0.21

>  <FCSP3>
0.29

>  <SZ>
23

>  <Sm>
21.84

>  <Sv>
21.66

>  <Sse>
34.6

>  <Sp>
22.6

>  <Si>
38.66

>  <MZ>
0.68

>  <Mm>
0.64

>  <Mv>
0.64

>  <Mse>
1.02

>  <Mp>
0.66

>  <Mi>
1.14

>  <NsCH3>
2

>  <NdCH2>
0

>  <NssCH2>
1

>  <NtCH>
0

>  <NdsCH>
0

>  <NaaCH>
6

>  <NsssCH>
1

>  <NddC>
0

>  <NtsC>
0

>  <NdssC>
1

>  <NaasC>
3

>  <NaaaC>
0

>  <NssssC>
0

>  <NsNH3>
0

>  <NsNH2>
0

>  <NssNH2>
0

>  <NdNH>
0

>  <NssNH>
0

>  <NaaNH>
0

>  <NtN>
0

>  <NsssNH>
0

>  <NdsN>
0

>  <NaaN>
1

>  <NsssN>
0

>  <NddsN>
0

>  <NaasN>
1

>  <NssssN>
0

>  <NsOH>
0

>  <NdO>
1

>  <NssO>
1

>  <NaaO>
0

>  <NsF>
1

>  <NsSiH3>
0

>  <NssSiH2>
0

>  <NsssSiH>
0

>  <NssssSi>
0

>  <NsPH2>
0

>  <NssPH>
0

>  <NsssP>
0

>  <NdsssP>
0

>  <NsssssP>
0

>  <NsSH>
0

>  <NdS>
0

>  <NssS>
0

>  <NaaS>
0

>  <NdssS>
0

>  <NddssS>
0

>  <NsCl>
0

>  <NsBr>
0

>  <NsI>
0

>  <fragCpx>
58.05

>  <fMF>
0.35

>  <nHBAcc>
4

>  <nHBDon>
0

>  <Kier1>
15.39

>  <Kier2>
7.14

>  <Lipinski>
1

>  <GhoseFilter>
1

>  <FilterItLogS>
-3.22

>  <VMcGowan>
194.06

>  <LabuteASA>
110.39

>  <PEOE_VSA1>
9.3

>  <PEOE_VSA2>
0

>  <PEOE_VSA3>
14.17

>  <PEOE_VSA4>
0

>  <PEOE_VSA5>
0

>  <PEOE_VSA6>
12.13

>  <PEOE_VSA7>
31.54

>  <PEOE_VSA8>
0

>  <PEOE_VSA9>
25.17

>  <PEOE_VSA10>
11.51

>  <PEOE_VSA11>
0

>  <PEOE_VSA12>
0

>  <PEOE_VSA13>
0

>  <SMR_VSA1>
13.92

>  <SMR_VSA2>
0

>  <SMR_VSA3>
9.55

>  <SMR_VSA4>
0

>  <SMR_VSA5>
19.89

>  <SMR_VSA6>
6.61

>  <SMR_VSA7>
53.86

>  <SMR_VSA8>
0

>  <SMR_VSA9>
0

>  <SlogP_VSA1>
0

>  <SlogP_VSA2>
22.13

>  <SlogP_VSA3>
4.74

>  <SlogP_VSA4>
5.82

>  <SlogP_VSA5>
35.94

>  <SlogP_VSA6>
36.79

>  <SlogP_VSA7>
0

>  <SlogP_VSA8>
0

>  <SlogP_VSA9>
0

>  <SlogP_VSA10>
4.39

>  <SlogP_VSA11>
0

>  <EState_VSA1>
5.97

>  <EState_VSA2>
11.86

>  <EState_VSA3>
12.3

>  <EState_VSA4>
5.56

>  <EState_VSA5>
18.33

>  <EState_VSA6>
29.95

>  <EState_VSA7>
6.92

>  <EState_VSA8>
4.98

>  <EState_VSA9>
4.74

>  <EState_VSA10>
9.18

>  <VSA_EState1>
19.59

>  <VSA_EState2>
15.75

>  <VSA_EState3>
0

>  <VSA_EState4>
1.28

>  <VSA_EState5>
-0.69

>  <VSA_EState6>
6.05

>  <VSA_EState7>
3.04

>  <VSA_EState8>
3.98

>  <VSA_EState9>
0

>  <apol>
37.74

>  <bpol>
21.62

>  <nRing>
2

>  <nHRing>
1

>  <naRing>
2

>  <naHRing>
1

>  <nARing 2>
0

>  <nAHRing 2>
0

>  <nFRing>
0

>  <nFHRing>
0

>  <nFaRing>
0

>  <nFaHRing>
0

>  <nFARing 2>
0

>  <nFAHRing 2>
0

>  <nRot>
4

>  <SLogP>
2.81

>  <SMR>
68.4

>  <TopoPSA(NO)>
44.12

>  <TopoPSA>
44.12

>  <JGI1>
0.18

>  <JGI2>
0.1

>  <JGI3>
0.05

>  <JGI4>
0.04

>  <JGI5>
0.03

>  <Diameter>
11

>  <Radius>
6

>  <TMWC10>
110.92

>  <TSRW10>
65.57

>  <MW>
262.11

>  <AMW>
7.71

>  <WPath>
722

>  <WPol>
27

>  <Zagreb1>
94

>  <Zagreb2>
109

>  <mZagreb2>
4.36

>  <yes>


>  <nAR-cont>
0.336376

>  <nHA-cont>
0.998649058

>  <MWHBN>
0.247068965

>  <MWHBN-cont>
0.964567841

>  <TPSA-cont>
0.692015003

>  <pka_cont>
0.97

>  <yes.1>


>  <BBB_SCORE>
4.650906825

>  <MMFF94 Energy>
11.629

$$$$
Compound 1257
Actelion Java MolfileCreator 2.0

  0  0  0  0  0  0              0 V3000
M  V30 BEGIN CTAB
M  V30 COUNTS 34 35 0 0 0
M  V30 BEGIN ATOM
M  V30 1 O -0.2366 -0.8678 1.8943 0
M  V30 2 C 0.3399 0.2091 1.9647 0
M  V30 3 O 1.3615 0.4801 2.8257 0
M  V30 4 C 0.0499 1.377 1.1717 0
M  V30 5 C 1.7689 -0.5991 3.6781 0
M  V30 6 N -0.8332 1.4773 0.1081 0
M  V30 7 C 0.5811 2.6514 1.2792 0
M  V30 8 C 2.7797 -1.4774 2.9649 0
M  V30 9 C -0.7843 2.7718 -0.3418 0
M  V30 10 C -1.6627 0.4102 -0.461 0 CFG=2
M  V30 11 N 0.0546 3.5036 0.3498 0
M  V30 12 C -0.8861 -0.3714 -1.5105 0
M  V30 13 C -3.0204 0.8915 -0.9948 0
M  V30 14 C -0.4909 0.208 -2.7278 0
M  V30 15 C -0.5478 -1.7135 -1.2712 0
M  V30 16 C 0.2204 -0.5331 -3.674 0
M  V30 17 C 0.1634 -2.4525 -2.2183 0
M  V30 18 C 0.5468 -1.8624 -3.4193 0
M  V30 19 H 0.9067 -1.1793 4.0265 0
M  V30 20 H 2.2318 -0.1501 4.5629 0
M  V30 21 H 1.3206 2.9964 1.9917 0
M  V30 22 H 3.1416 -2.2686 3.6275 0
M  V30 23 H 2.3408 -1.9402 2.0754 0
M  V30 24 H 3.6338 -0.8823 2.6254 0
M  V30 25 H -1.372 3.1333 -1.1753 0
M  V30 26 H -1.9135 -0.2511 0.3748 0
M  V30 27 H -2.9243 1.5488 -1.8653 0
M  V30 28 H -3.6361 0.0381 -1.301 0
M  V30 29 H -3.5686 1.4413 -0.2215 0
M  V30 30 H -0.7255 1.2453 -2.9549 0
M  V30 31 H -0.8311 -2.1968 -0.3372 0
M  V30 32 H 0.5233 -0.07 -4.6098 0
M  V30 33 H 0.4203 -3.4889 -2.0149 0
M  V30 34 H 1.1026 -2.4373 -4.1552 0
M  V30 END ATOM
M  V30 BEGIN BOND
M  V30 1 2 1 2
M  V30 2 1 2 3
M  V30 3 1 2 4
M  V30 4 1 3 5
M  V30 5 1 4 6
M  V30 6 2 4 7
M  V30 7 1 5 8
M  V30 8 1 6 9
M  V30 9 1 6 10
M  V30 10 1 7 11
M  V30 11 1 10 12
M  V30 12 1 10 13
M  V30 13 2 12 14
M  V30 14 1 12 15
M  V30 15 1 14 16
M  V30 16 2 15 17
M  V30 17 2 16 18
M  V30 18 2 9 11
M  V30 19 1 17 18
M  V30 20 1 5 19
M  V30 21 1 5 20
M  V30 22 1 7 21
M  V30 23 1 8 22
M  V30 24 1 8 23
M  V30 25 1 8 24
M  V30 26 1 9 25
M  V30 27 1 10 26
M  V30 28 1 13 27
M  V30 29 1 13 28
M  V30 30 1 13 29
M  V30 31 1 14 30
M  V30 32 1 15 31
M  V30 33 1 16 32
M  V30 34 1 17 33
M  V30 35 1 18 34
M  V30 END BOND
M  V30 BEGIN COLLECTION
M  V30 MDLV30/STERAC1 ATOMS=(1 10)
M  V30 END COLLECTION
M  V30 END CTAB
M  END
>  <Column 1>
1489

>  <level_0>
1639

>  <index>
1639

>  <Unnamed: 0>
1639

>  <NO.>
1651

>  <Name>
pimozide

>  <IUPAC_name>
ethyl 3-(1-phenylethyl)imidazole-4-carboxylate

>  <SMILES>
CCOC(=O)c1cncn1C(C)c1ccccc1

>  <CID>
36339

>  <logBB>


>  <BBB+/BBB->
BBB+

>  <Inchi>
InChI=1S/C14H16N2O2/c1-3-18-14(17)13-9-15-10-16(13)11(2)12-7-5-4-6-8-12/h4-11H-3H2-1-2H3

>  <threshold>
-1

>  <reference>
R1|R19|R6|R27|R27|R30|R36|

>  <group>
B

>  <Class>
1

>  <ABC>
13.49

>  <ABCGG>
12.5

>  <nAcid>
0

>  <nBase>
0

>  <nAromAtom>
11

>  <nAromBond>
11

>  <nAtom>
34

>  <nHeavyAtom>
18

>  <nSpiro>
0

>  <nBridgehead>
0

>  <nHetero>
4

>  <nN>
2

>  <nO>
2

>  <nF>
0

>  <BalabanJ>
1.92

>  <BertzCT>
519.6

>  <nBonds>
35

>  <nBondsO>
19

>  <nBondsS>
23

>  <nBondsD>
1

>  <nBondsT>
0

>  <nBondsA>
11

>  <nBondsM>
12

>  <nBondsKS>
29

>  <nBondsKD>
6

>  <RNCG>
0.28

>  <RPCG>
0.21

>  <FCSP3>
0.29

>  <SZ>
21.67

>  <Sm>
20.34

>  <Sv>
21.28

>  <Sse>
34.09

>  <Sp>
22.67

>  <Si>
38.32

>  <MZ>
0.64

>  <Mm>
0.6

>  <Mv>
0.63

>  <Mse>
1

>  <Mp>
0.67

>  <Mi>
1.13

>  <NsCH3>
2

>  <NdCH2>
0

>  <NssCH2>
1

>  <NtCH>
0

>  <NdsCH>
0

>  <NaaCH>
7

>  <NsssCH>
1

>  <NddC>
0

>  <NtsC>
0

>  <NdssC>
1

>  <NaasC>
2

>  <NaaaC>
0

>  <NssssC>
0

>  <NsNH3>
0

>  <NsNH2>
0

>  <NssNH2>
0

>  <NdNH>
0

>  <NssNH>
0

>  <NaaNH>
0

>  <NtN>
0

>  <NsssNH>
0

>  <NdsN>
0

>  <NaaN>
1

>  <NsssN>
0

>  <NddsN>
0

>  <NaasN>
1

>  <NssssN>
0

>  <NsOH>
0

>  <NdO>
1

>  <NssO>
1

>  <NaaO>
0

>  <NsF>
0

>  <NsSiH3>
0

>  <NssSiH2>
0

>  <NsssSiH>
0

>  <NssssSi>
0

>  <NsPH2>
0

>  <NssPH>
0

>  <NsssP>
0

>  <NdsssP>
0

>  <NsssssP>
0

>  <NsSH>
0

>  <NdS>
0

>  <NssS>
0

>  <NaaS>
0

>  <NdssS>
0

>  <NddssS>
0

>  <NsCl>
0

>  <NsBr>
0

>  <NsI>
0

>  <fragCpx>
55.04

>  <fMF>
0.35

>  <nHBAcc>
4

>  <nHBDon>
0

>  <Kier1>
14.41

>  <Kier2>
6.96

>  <Lipinski>
1

>  <GhoseFilter>
1

>  <FilterItLogS>
-2.79

>  <VMcGowan>
192.3

>  <LabuteASA>
106.23

>  <PEOE_VSA1>
9.3

>  <PEOE_VSA2>
0

>  <PEOE_VSA3>
9.78

>  <PEOE_VSA4>
0

>  <PEOE_VSA5>
0

>  <PEOE_VSA6>
30.33

>  <PEOE_VSA7>
19.41

>  <PEOE_VSA8>
0

>  <PEOE_VSA9>
25.17

>  <PEOE_VSA10>
5.69

>  <PEOE_VSA11>
0

>  <PEOE_VSA12>
0

>  <PEOE_VSA13>
0

>  <SMR_VSA1>
9.53

>  <SMR_VSA2>
0

>  <SMR_VSA3>
9.55

>  <SMR_VSA4>
0

>  <SMR_VSA5>
19.89

>  <SMR_VSA6>
6.61

>  <SMR_VSA7>
54.11

>  <SMR_VSA8>
0

>  <SMR_VSA9>
0

>  <SlogP_VSA1>
0

>  <SlogP_VSA2>
22.13

>  <SlogP_VSA3>
4.74

>  <SlogP_VSA4>
0

>  <SlogP_VSA5>
35.94

>  <SlogP_VSA6>
42.86

>  <SlogP_VSA7>
0

>  <SlogP_VSA8>
0

>  <SlogP_VSA9>
0

>  <SlogP_VSA10>
0

>  <SlogP_VSA11>
0

>  <EState_VSA1>
0

>  <EState_VSA2>
12.01

>  <EState_VSA3>
12.3

>  <EState_VSA4>
5.56

>  <EState_VSA5>
6.2

>  <EState_VSA6>
13.25

>  <EState_VSA7>
41.82

>  <EState_VSA8>
4.98

>  <EState_VSA9>
4.74

>  <EState_VSA10>
4.79

>  <VSA_EState1>
6.84

>  <VSA_EState2>
15.81

>  <VSA_EState3>
0

>  <VSA_EState4>
1.61

>  <VSA_EState5>
-0.34

>  <VSA_EState6>
10.03

>  <VSA_EState7>
3.2

>  <VSA_EState8>
4.18

>  <VSA_EState9>
0

>  <apol>
37.85

>  <bpol>
21.51

>  <nRing>
2

>  <nHRing>
1

>  <naRing>
2

>  <naHRing>
1

>  <nARing 2>
0

>  <nAHRing 2>
0

>  <nFRing>
0

>  <nFHRing>
0

>  <nFaRing>
0

>  <nFaHRing>
0

>  <nFARing 2>
0

>  <nFAHRing 2>
0

>  <nRot>
4

>  <SLogP>
2.67

>  <SMR>
68.44

>  <TopoPSA(NO)>
44.12

>  <TopoPSA>
44.12

>  <JGI1>
0.13

>  <JGI2>
0.09

>  <JGI3>
0.05

>  <JGI4>
0.04

>  <JGI5>
0.02

>  <Diameter>
10

>  <Radius>
5

>  <TMWC10>
108.25

>  <TSRW10>
64.2

>  <MW>
244.12

>  <AMW>
7.18

>  <WPath>
613

>  <WPol>
25

>  <Zagreb1>
88

>  <Zagreb2>
102

>  <mZagreb2>
4.19

>  <yes>


>  <nAR-cont>
0.336376

>  <nHA-cont>
0.991161285

>  <MWHBN>
0.256010814

>  <MWHBN-cont>
0.949106815

>  <TPSA-cont>
0.692015003

>  <pka_cont>
0.97

>  <yes.1>


>  <BBB_SCORE>
4.620227514

>  <MMFF94 Energy>
13.732

$$$$
Compound 1258
Actelion Java MolfileCreator 2.0

  0  0  0  0  0  0              0 V3000
M  V30 BEGIN CTAB
M  V30 COUNTS 13 12 0 0 0
M  V30 BEGIN ATOM
M  V30 1 O 1.0477 0.2244 1.572 0
M  V30 2 C -0.081 0.521 1.2176 0
M  V30 3 O -0.5377 0.5935 -0.0517 0
M  V30 4 N -1.0751 0.8288 2.0789 0
M  V30 5 C 0.4241 0.295 -1.0734 0
M  V30 6 C 0.4601 -1.1983 -1.3391 0
M  V30 7 H -0.8865 0.8171 3.0693 0
M  V30 8 H -1.9893 1.0649 1.7272 0
M  V30 9 H 1.4168 0.6799 -0.8126 0
M  V30 10 H 0.1033 0.8216 -1.9781 0
M  V30 11 H 1.1473 -1.43 -2.1576 0
M  V30 12 H 0.7795 -1.7482 -0.4482 0
M  V30 13 H -0.5374 -1.5665 -1.6001 0
M  V30 END ATOM
M  V30 BEGIN BOND
M  V30 1 2 1 2
M  V30 2 1 2 3
M  V30 3 1 2 4
M  V30 4 1 3 5
M  V30 5 1 5 6
M  V30 6 1 4 7
M  V30 7 1 4 8
M  V30 8 1 5 9
M  V30 9 1 5 10
M  V30 10 1 6 11
M  V30 11 1 6 12
M  V30 12 1 6 13
M  V30 END BOND
M  V30 END CTAB
M  END
>  <Column 1>
1490

>  <level_0>
1640

>  <index>
1640

>  <Unnamed: 0>
1640

>  <NO.>
1652

>  <Name>
urethane

>  <IUPAC_name>
ethyl carbamate

>  <SMILES>
CCOC(N)=O

>  <CID>
5641

>  <logBB>


>  <BBB+/BBB->
BBB+

>  <Inchi>
InChI=1S/C3H7NO2/c1-2-6-3(4)5/h2H2-1H3-(H2-4-5)

>  <threshold>
-1

>  <reference>
R1|R13|R19|R6|R24|R27|R27|R27|R30|R30|

>  <group>
B

>  <Class>
-1

>  <ABC>
3.75

>  <ABCGG>
4.06

>  <nAcid>
0

>  <nBase>
0

>  <nAromAtom>
0

>  <nAromBond>
0

>  <nAtom>
13

>  <nHeavyAtom>
6

>  <nSpiro>
0

>  <nBridgehead>
0

>  <nHetero>
3

>  <nN>
1

>  <nO>
2

>  <nF>
0

>  <BalabanJ>
2.63

>  <BertzCT>
52.75

>  <nBonds>
12

>  <nBondsO>
5

>  <nBondsS>
11

>  <nBondsD>
1

>  <nBondsT>
0

>  <nBondsA>
0

>  <nBondsM>
1

>  <nBondsKS>
11

>  <nBondsKD>
1

>  <RNCG>
0.43

>  <RPCG>
0.39

>  <FCSP3>
0.67

>  <SZ>
8

>  <Sm>
7.42

>  <Sv>
7.08

>  <Sse>
13.43

>  <Sp>
7.41

>  <Si>
15.16

>  <MZ>
0.62

>  <Mm>
0.57

>  <Mv>
0.54

>  <Mse>
1.03

>  <Mp>
0.57

>  <Mi>
1.17

>  <NsCH3>
1

>  <NdCH2>
0

>  <NssCH2>
1

>  <NtCH>
0

>  <NdsCH>
0

>  <NaaCH>
0

>  <NsssCH>
0

>  <NddC>
0

>  <NtsC>
0

>  <NdssC>
1

>  <NaasC>
0

>  <NaaaC>
0

>  <NssssC>
0

>  <NsNH3>
0

>  <NsNH2>
1

>  <NssNH2>
0

>  <NdNH>
0

>  <NssNH>
0

>  <NaaNH>
0

>  <NtN>
0

>  <NsssNH>
0

>  <NdsN>
0

>  <NaaN>
0

>  <NsssN>
0

>  <NddsN>
0

>  <NaasN>
0

>  <NssssN>
0

>  <NsOH>
0

>  <NdO>
1

>  <NssO>
1

>  <NaaO>
0

>  <NsF>
0

>  <NsSiH3>
0

>  <NssSiH2>
0

>  <NsssSiH>
0

>  <NssssSi>
0

>  <NsPH2>
0

>  <NssPH>
0

>  <NsssP>
0

>  <NdsssP>
0

>  <NsssssP>
0

>  <NsSH>
0

>  <NdS>
0

>  <NssS>
0

>  <NaaS>
0

>  <NdssS>
0

>  <NddssS>
0

>  <NsCl>
0

>  <NsBr>
0

>  <NsI>
0

>  <fragCpx>
5.03

>  <fMF>
0

>  <nHBAcc>
2

>  <nHBDon>
1

>  <Kier1>
6

>  <Kier2>
3.2

>  <Lipinski>
1

>  <GhoseFilter>
0

>  <FilterItLogS>
0.1

>  <VMcGowan>
70.55

>  <LabuteASA>
36.08

>  <PEOE_VSA1>
10.47

>  <PEOE_VSA2>
0

>  <PEOE_VSA3>
4.79

>  <PEOE_VSA4>
0

>  <PEOE_VSA5>
0

>  <PEOE_VSA6>
0

>  <PEOE_VSA7>
6.92

>  <PEOE_VSA8>
0

>  <PEOE_VSA9>
6.61

>  <PEOE_VSA10>
0

>  <PEOE_VSA11>
0

>  <PEOE_VSA12>
0

>  <PEOE_VSA13>
0

>  <SMR_VSA1>
9.53

>  <SMR_VSA2>
0

>  <SMR_VSA3>
0

>  <SMR_VSA4>
5.73

>  <SMR_VSA5>
6.92

>  <SMR_VSA6>
6.61

>  <SMR_VSA7>
0

>  <SMR_VSA8>
0

>  <SMR_VSA9>
0

>  <SlogP_VSA1>
5.73

>  <SlogP_VSA2>
12.7

>  <SlogP_VSA3>
4.74

>  <SlogP_VSA4>
0

>  <SlogP_VSA5>
6.92

>  <SlogP_VSA6>
0

>  <SlogP_VSA7>
0

>  <SlogP_VSA8>
0

>  <SlogP_VSA9>
0

>  <SlogP_VSA10>
4.79

>  <SlogP_VSA11>
0

>  <EState_VSA1>
6.09

>  <EState_VSA2>
0

>  <EState_VSA3>
6.61

>  <EState_VSA4>
0

>  <EState_VSA5>
0

>  <EState_VSA6>
6.92

>  <EState_VSA7>
0

>  <EState_VSA8>
10.47

>  <EState_VSA9>
0

>  <EState_VSA10>
4.79

>  <VSA_EState1>
4.18

>  <VSA_EState2>
9.6

>  <VSA_EState3>
0

>  <VSA_EState4>
4.54

>  <VSA_EState5>
0

>  <VSA_EState6>
0

>  <VSA_EState7>
-0.71

>  <VSA_EState8>
2.06

>  <VSA_EState9>
0

>  <apol>
12.38

>  <bpol>
9.06

>  <nRing>
0

>  <nHRing>
0

>  <naRing>
0

>  <naHRing>
0

>  <nARing 2>
0

>  <nAHRing 2>
0

>  <nFRing>
0

>  <nFHRing>
0

>  <nFaRing>
0

>  <nFaHRing>
0

>  <nFARing 2>
0

>  <nFAHRing 2>
0

>  <nRot>
1

>  <SLogP>
0.1

>  <SMR>
21.21

>  <TopoPSA(NO)>
52.32

>  <TopoPSA>
52.32

>  <JGI1>
0.3

>  <JGI2>
0.09

>  <JGI3>
0.08

>  <JGI4>
0

>  <JGI5>
0

>  <Diameter>
4

>  <Radius>
2

>  <TMWC10>
60.96

>  <TSRW10>
29.44

>  <MW>
89.05

>  <AMW>
6.85

>  <WPath>
32

>  <WPol>
3

>  <Zagreb1>
20

>  <Zagreb2>
18

>  <mZagreb2>
1.58

>  <yes>


>  <nAR-cont>
0.336376

>  <nHA-cont>
0.238778273

>  <MWHBN>
0.317910076

>  <MWHBN-cont>
0.784139709

>  <TPSA-cont>
0.634773911

>  <pka_cont>
0.97

>  <yes.1>


>  <BBB_SCORE>
3.505911658

>  <MMFF94 Energy>
-74.244

$$$$
Compound 1259
Actelion Java MolfileCreator 2.0

  0  0  0  0  0  0              0 V3000
M  V30 BEGIN CTAB
M  V30 COUNTS 37 39 0 0 0
M  V30 BEGIN ATOM
M  V30 1 O 1.9148 -2.394 -1.0368 0
M  V30 2 C 0.9635 -1.6482 -0.7832 0
M  V30 3 N 0.2932 -1.7022 0.4459 0
M  V30 4 C 0.5339 -0.7215 -1.8688 0
M  V30 5 C -0.9148 -1.0263 0.7636 0
M  V30 6 C 0.8633 -2.5661 1.4717 0
M  V30 7 C 0.111 0.5978 -1.6338 0
M  V30 8 C 0.6457 -1.1905 -3.1889 0
M  V30 9 C -1.0827 0.3427 0.5071 0
M  V30 10 C -1.9515 -1.737 1.39 0
M  V30 11 C -0.2174 1.4142 -2.7335 0
M  V30 12 C -0.0275 1.1381 -0.2286 0 CFG=1
M  V30 13 C 0.3154 -0.3706 -4.2676 0
M  V30 14 C -2.2819 0.975 0.8909 0
M  V30 15 C -3.1349 -1.0997 1.7658 0
M  V30 16 C -0.1172 0.9314 -4.039 0
M  V30 17 O 1.2529 1.1038 0.408 0
M  V30 18 C -3.2983 0.2582 1.5202 0
M  V30 19 C 1.3297 1.9268 1.5672 0
M  V30 20 C 2.723 1.7937 2.1492 0
M  V30 21 H 1.9522 -2.6173 1.3722 0
M  V30 22 H 0.4578 -3.5755 1.3511 0
M  V30 23 H 0.6346 -2.1833 2.4717 0
M  V30 24 H 1.0008 -2.2023 -3.3767 0
M  V30 25 H -1.8527 -2.8023 1.5824 0
M  V30 26 H -0.5525 2.4377 -2.5791 0
M  V30 27 H -0.3368 2.1901 -0.2936 0
M  V30 28 H 0.4061 -0.7474 -5.2829 0
M  V30 29 H -2.4348 2.0335 0.691 0
M  V30 30 H -3.9276 -1.6668 2.2469 0
M  V30 31 H -0.3706 1.5743 -4.8782 0
M  V30 32 H -4.2203 0.7568 1.8086 0
M  V30 33 H 0.5912 1.6093 2.3106 0
M  V30 34 H 1.14 2.9706 1.2946 0
M  V30 35 H 2.8329 2.412 3.0445 0
M  V30 36 H 2.9325 0.7513 2.4112 0
M  V30 37 H 3.4779 2.0959 1.4159 0
M  V30 END ATOM
M  V30 BEGIN BOND
M  V30 1 2 1 2
M  V30 2 1 2 3
M  V30 3 1 2 4
M  V30 4 1 3 5
M  V30 5 1 3 6
M  V30 6 2 4 7
M  V30 7 1 4 8
M  V30 8 2 5 9
M  V30 9 1 5 10
M  V30 10 1 7 11
M  V30 11 1 7 12
M  V30 12 2 8 13
M  V30 13 1 9 14
M  V30 14 2 10 15
M  V30 15 2 11 16
M  V30 16 1 12 17
M  V30 17 2 14 18
M  V30 18 1 17 19
M  V30 19 1 19 20
M  V30 20 1 9 12
M  V30 21 1 13 16
M  V30 22 1 15 18
M  V30 23 1 6 21
M  V30 24 1 6 22
M  V30 25 1 6 23
M  V30 26 1 8 24
M  V30 27 1 10 25
M  V30 28 1 11 26
M  V30 29 1 12 27
M  V30 30 1 13 28
M  V30 31 1 14 29
M  V30 32 1 15 30
M  V30 33 1 16 31
M  V30 34 1 18 32
M  V30 35 1 19 33
M  V30 36 1 19 34
M  V30 37 1 20 35
M  V30 38 1 20 36
M  V30 39 1 20 37
M  V30 END BOND
M  V30 BEGIN COLLECTION
M  V30 MDLV30/STERAC1 ATOMS=(1 12)
M  V30 END COLLECTION
M  V30 END CTAB
M  END
>  <Column 1>
1492

>  <level_0>
1642

>  <index>
1642

>  <Unnamed: 0>
1642

>  <NO.>
1654

>  <Name>
etazepine

>  <IUPAC_name>
11-ethoxy-5-methyl-11h-benzo[c][1]benzazepin-6-one

>  <SMILES>
CCOC1c2ccccc2C(=O)N(C)c2ccccc21

>  <CID>
65662

>  <logBB>


>  <BBB+/BBB->
BBB+

>  <Inchi>
InChI=1S/C17H17NO2/c1-3-20-16-12-8-4-5-9-13(12)17(19)18(2)15-11-7-6-10-14(15)16/h4-11-16H-3H2-1-2H3

>  <threshold>
-1

>  <reference>
R1|R19|R6|R27|R27|R30|

>  <group>
B

>  <Class>
1

>  <ABC>
15.49

>  <ABCGG>
13.11

>  <nAcid>
0

>  <nBase>
0

>  <nAromAtom>
12

>  <nAromBond>
12

>  <nAtom>
37

>  <nHeavyAtom>
20

>  <nSpiro>
0

>  <nBridgehead>
0

>  <nHetero>
3

>  <nN>
1

>  <nO>
2

>  <nF>
0

>  <BalabanJ>
1.91

>  <BertzCT>
650.94

>  <nBonds>
39

>  <nBondsO>
22

>  <nBondsS>
26

>  <nBondsD>
1

>  <nBondsT>
0

>  <nBondsA>
12

>  <nBondsM>
13

>  <nBondsKS>
32

>  <nBondsKD>
7

>  <RNCG>
0.26

>  <RPCG>
0.18

>  <FCSP3>
0.24

>  <SZ>
23.67

>  <Sm>
22.26

>  <Sv>
23.79

>  <Sse>
36.87

>  <Sp>
25.41

>  <Si>
41.24

>  <MZ>
0.64

>  <Mm>
0.6

>  <Mv>
0.64

>  <Mse>
1

>  <Mp>
0.69

>  <Mi>
1.11

>  <NsCH3>
2

>  <NdCH2>
0

>  <NssCH2>
1

>  <NtCH>
0

>  <NdsCH>
0

>  <NaaCH>
8

>  <NsssCH>
1

>  <NddC>
0

>  <NtsC>
0

>  <NdssC>
1

>  <NaasC>
4

>  <NaaaC>
0

>  <NssssC>
0

>  <NsNH3>
0

>  <NsNH2>
0

>  <NssNH2>
0

>  <NdNH>
0

>  <NssNH>
0

>  <NaaNH>
0

>  <NtN>
0

>  <NsssNH>
0

>  <NdsN>
0

>  <NaaN>
0

>  <NsssN>
1

>  <NddsN>
0

>  <NaasN>
0

>  <NssssN>
0

>  <NsOH>
0

>  <NdO>
1

>  <NssO>
1

>  <NaaO>
0

>  <NsF>
0

>  <NsSiH3>
0

>  <NssSiH2>
0

>  <NsssSiH>
0

>  <NssssSi>
0

>  <NsPH2>
0

>  <NssPH>
0

>  <NsssP>
0

>  <NdsssP>
0

>  <NsssssP>
0

>  <NsSH>
0

>  <NdS>
0

>  <NssS>
0

>  <NaaS>
0

>  <NdssS>
0

>  <NddssS>
0

>  <NsCl>
0

>  <NsBr>
0

>  <NsI>
0

>  <fragCpx>
104.03

>  <fMF>
0.41

>  <nHBAcc>
2

>  <nHBDon>
0

>  <Kier1>
14.92

>  <Kier2>
6.41

>  <Lipinski>
1

>  <GhoseFilter>
1

>  <FilterItLogS>
-4.17

>  <VMcGowan>
209.43

>  <LabuteASA>
118.34

>  <PEOE_VSA1>
9.64

>  <PEOE_VSA2>
4.79

>  <PEOE_VSA3>
0

>  <PEOE_VSA4>
0

>  <PEOE_VSA5>
0

>  <PEOE_VSA6>
36.4

>  <PEOE_VSA7>
24.62

>  <PEOE_VSA8>
30.47

>  <PEOE_VSA9>
0

>  <PEOE_VSA10>
6.1

>  <PEOE_VSA11>
0

>  <PEOE_VSA12>
0

>  <PEOE_VSA13>
5.91

>  <SMR_VSA1>
9.53

>  <SMR_VSA2>
0

>  <SMR_VSA3>
0

>  <SMR_VSA4>
0

>  <SMR_VSA5>
13.03

>  <SMR_VSA6>
18.55

>  <SMR_VSA7>
65.22

>  <SMR_VSA8>
0

>  <SMR_VSA9>
0

>  <SlogP_VSA1>
4.9

>  <SlogP_VSA2>
19.56

>  <SlogP_VSA3>
4.74

>  <SlogP_VSA4>
0

>  <SlogP_VSA5>
34.51

>  <SlogP_VSA6>
48.53

>  <SlogP_VSA7>
0

>  <SlogP_VSA8>
0

>  <SlogP_VSA9>
0

>  <SlogP_VSA10>
5.69

>  <SlogP_VSA11>
0

>  <EState_VSA1>
0

>  <EState_VSA2>
12.01

>  <EState_VSA3>
12.17

>  <EState_VSA4>
16.81

>  <EState_VSA5>
0

>  <EState_VSA6>
4.9

>  <EState_VSA7>
62.5

>  <EState_VSA8>
0

>  <EState_VSA9>
4.74

>  <EState_VSA10>
4.79

>  <VSA_EState1>
5.93

>  <VSA_EState2>
14.32

>  <VSA_EState3>
0

>  <VSA_EState4>
3.6

>  <VSA_EState5>
0.01

>  <VSA_EState6>
15.61

>  <VSA_EState7>
-0.19

>  <VSA_EState8>
2.58

>  <VSA_EState9>
1.81

>  <apol>
42.43

>  <bpol>
21.37

>  <nRing>
3

>  <nHRing>
1

>  <naRing>
2

>  <naHRing>
0

>  <nARing 2>
1

>  <nAHRing 2>
1

>  <nFRing>
1

>  <nFHRing>
1

>  <nFaRing>
0

>  <nFaHRing>
0

>  <nFARing 2>
1

>  <nFAHRing 2>
1

>  <nRot>
2

>  <SLogP>
3.4

>  <SMR>
79.09

>  <TopoPSA(NO)>
29.54

>  <TopoPSA>
29.54

>  <JGI1>
0.11

>  <JGI2>
0.09

>  <JGI3>
0.05

>  <JGI4>
0.05

>  <JGI5>
0.02

>  <Diameter>
7

>  <Radius>
4

>  <TMWC10>
116.61

>  <TSRW10>
62.21

>  <MW>
267.13

>  <AMW>
7.22

>  <WPath>
685

>  <WPol>
39

>  <Zagreb1>
106

>  <Zagreb2>
129

>  <mZagreb2>
4.53

>  <yes>


>  <nAR-cont>
0.816016

>  <nHA-cont>
0.999629945

>  <MWHBN>
0.122368226

>  <MWHBN-cont>
0.839420321

>  <TPSA-cont>
0.793792457

>  <pka_cont>
0.97

>  <yes.1>


>  <BBB_SCORE>
5.14736134

>  <MMFF94 Energy>
63.195

$$$$
Compound 1260
Actelion Java MolfileCreator 2.0

  0  0  0  0  0  0              0 V3000
M  V30 BEGIN CTAB
M  V30 COUNTS 57 61 0 0 0
M  V30 BEGIN ATOM
M  V30 1 Cl -4.9425 0.9708 -2.1853 0
M  V30 2 C -3.8586 -0.1792 -1.5025 0
M  V30 3 C -2.9122 0.234 -0.5613 0
M  V30 4 C -3.9399 -1.5113 -1.8922 0
M  V30 5 C -1.9986 -0.6775 -0.0113 0
M  V30 6 C -3.0904 -2.4472 -1.3114 0
M  V30 7 C -0.9147 -0.2953 0.9571 0
M  V30 8 C -2.1483 -2.0398 -0.3556 0
M  V30 9 N -0.5014 -1.2864 1.8678 0
M  V30 10 C -0.2556 0.8868 0.9539 0
M  V30 11 C -1.2961 -3.0634 0.346 0
M  V30 12 C 0.4683 -1.079 2.8542 0
M  V30 13 C -1.1078 -2.6177 1.7927 0
M  V30 14 C -0.4818 1.9584 -0.0607 0
M  V30 15 C 0.7519 1.1697 1.9559 0
M  V30 16 O 0.804 -1.9501 3.6555 0
M  V30 17 C 1.1121 0.2766 2.8903 0
M  V30 18 O -1.127 2.9583 0.2468 0
M  V30 19 N 0.1051 1.782 -1.2894 0
M  V30 20 C 2.1433 0.6289 3.8865 0
M  V30 21 C 0.9508 0.6772 -1.734 0
M  V30 22 C -0.0911 2.7452 -2.357 0
M  V30 23 C 3.2739 -0.1809 4.0607 0
M  V30 24 C 2.0155 1.7834 4.6756 0
M  V30 25 C 1.0787 0.8665 -3.2522 0 CFG=2
M  V30 26 C 0.9551 2.382 -3.4017 0
M  V30 27 C 4.2566 0.1578 4.9944 0
M  V30 28 C 2.9991 2.1219 5.6082 0
M  V30 29 O -0.0052 0.2677 -3.9709 0
M  V30 30 C 4.1198 1.3099 5.7657 0
M  V30 31 C 0.1293 -1.1415 -4.1315 0
M  V30 32 C -1.05 -1.6406 -4.9428 0
M  V30 33 H -2.9176 1.2784 -0.262 0
M  V30 34 H -4.6757 -1.8271 -2.6267 0
M  V30 35 H -3.1818 -3.495 -1.5887 0
M  V30 36 H -1.7768 -4.0479 0.3313 0
M  V30 37 H -0.3324 -3.1433 -0.1706 0
M  V30 38 H -0.4904 -3.3577 2.3131 0
M  V30 39 H -2.0678 -2.5678 2.3235 0
M  V30 40 H 1.2019 2.1599 1.9233 0
M  V30 41 H 1.9212 0.7987 -1.2401 0
M  V30 42 H 0.5193 -0.2815 -1.4472 0
M  V30 43 H -1.1087 2.6153 -2.7425 0
M  V30 44 H 0.0156 3.7699 -1.9881 0
M  V30 45 H 3.3957 -1.0906 3.4763 0
M  V30 46 H 1.1422 2.4256 4.5791 0
M  V30 47 H 2.032 0.4983 -3.6457 0
M  V30 48 H 0.6508 2.7008 -4.4028 0
M  V30 49 H 1.9095 2.8596 -3.1498 0
M  V30 50 H 5.1247 -0.4833 5.1231 0
M  V30 51 H 2.886 3.0165 6.2155 0
M  V30 52 H 4.8826 1.5702 6.4949 0
M  V30 53 H 0.1396 -1.6382 -3.1568 0
M  V30 54 H 1.0628 -1.3666 -4.6583 0
M  V30 55 H -0.9963 -2.7235 -5.0842 0
M  V30 56 H -1.9933 -1.3946 -4.4447 0
M  V30 57 H -1.0741 -1.1567 -5.9248 0
M  V30 END ATOM
M  V30 BEGIN BOND
M  V30 1 1 1 2
M  V30 2 2 2 3
M  V30 3 1 2 4
M  V30 4 1 3 5
M  V30 5 2 4 6
M  V30 6 1 5 7
M  V30 7 2 5 8
M  V30 8 1 7 9
M  V30 9 2 7 10
M  V30 10 1 8 11
M  V30 11 1 9 12
M  V30 12 1 9 13
M  V30 13 1 10 14
M  V30 14 1 10 15
M  V30 15 2 12 16
M  V30 16 1 12 17
M  V30 17 2 14 18
M  V30 18 1 14 19
M  V30 19 1 17 20
M  V30 20 1 19 21
M  V30 21 1 19 22
M  V30 22 2 20 23
M  V30 23 1 20 24
M  V30 24 1 21 25
M  V30 25 1 22 26
M  V30 26 1 23 27
M  V30 27 2 24 28
M  V30 28 1 25 29
M  V30 29 2 27 30
M  V30 30 1 29 31
M  V30 31 1 31 32
M  V30 32 1 6 8
M  V30 33 1 11 13
M  V30 34 2 15 17
M  V30 35 1 25 26
M  V30 36 1 28 30
M  V30 37 1 3 33
M  V30 38 1 4 34
M  V30 39 1 6 35
M  V30 40 1 11 36
M  V30 41 1 11 37
M  V30 42 1 13 38
M  V30 43 1 13 39
M  V30 44 1 15 40
M  V30 45 1 21 41
M  V30 46 1 21 42
M  V30 47 1 22 43
M  V30 48 1 22 44
M  V30 49 1 23 45
M  V30 50 1 24 46
M  V30 51 1 25 47
M  V30 52 1 26 48
M  V30 53 1 26 49
M  V30 54 1 27 50
M  V30 55 1 28 51
M  V30 56 1 30 52
M  V30 57 1 31 53
M  V30 58 1 31 54
M  V30 59 1 32 55
M  V30 60 1 32 56
M  V30 61 1 32 57
M  V30 END BOND
M  V30 BEGIN COLLECTION
M  V30 MDLV30/STEABS ATOMS=(1 25)
M  V30 END COLLECTION
M  V30 END CTAB
M  END
>  <Column 1>
1493

>  <level_0>
1643

>  <index>
1643

>  <Unnamed: 0>
1643

>  <NO.>
1655

>  <Name>
lirequinil

>  <IUPAC_name>
10-chloro-1-[(3s)-3-ethoxypyrrolidine-1-carbonyl]-3-phenyl-6-7-dihydrobenzo[a]quinolizin-4-one

>  <SMILES>
CCO[C@H]1CCN(C(=O)c2cc(-c3ccccc3)c(=O)n3c2-c2cc(Cl)ccc2CC3)C1

>  <CID>
3045375

>  <logBB>


>  <BBB+/BBB->
BBB+

>  <Inchi>
InChI=1S/C26H25ClN2O3/c1-2-32-20-11-12-28(16-20)25(30)23-15-22(17-6-4-3-5-7-17)26(31)29-13-10-18-8-9-19(27)14-21(18)24(23)29/h3-9-14-15-20H-2-10-13-16H2-1H3/t20-/m0/s1

>  <threshold>
-1

>  <reference>
R1|R13|R6|R27|R27|R30|R30|

>  <group>
B

>  <Class>
1

>  <ABC>
25.42

>  <ABCGG>
19.56

>  <nAcid>
0

>  <nBase>
0

>  <nAromAtom>
18

>  <nAromBond>
18

>  <nAtom>
57

>  <nHeavyAtom>
32

>  <nSpiro>
0

>  <nBridgehead>
0

>  <nHetero>
6

>  <nN>
2

>  <nO>
3

>  <nF>
0

>  <BalabanJ>
1.4

>  <BertzCT>
1235.81

>  <nBonds>
61

>  <nBondsO>
36

>  <nBondsS>
41

>  <nBondsD>
2

>  <nBondsT>
0

>  <nBondsA>
18

>  <nBondsM>
20

>  <nBondsKS>
51

>  <nBondsKD>
10

>  <RNCG>
0.17

>  <RPCG>
0.12

>  <FCSP3>
0.31

>  <SZ>
39.33

>  <Sm>
37.38

>  <Sv>
37.52

>  <Sse>
57.18

>  <Sp>
40.05

>  <Si>
63.55

>  <MZ>
0.69

>  <Mm>
0.66

>  <Mv>
0.66

>  <Mse>
1

>  <Mp>
0.7

>  <Mi>
1.11

>  <NsCH3>
1

>  <NdCH2>
0

>  <NssCH2>
6

>  <NtCH>
0

>  <NdsCH>
0

>  <NaaCH>
9

>  <NsssCH>
1

>  <NddC>
0

>  <NtsC>
0

>  <NdssC>
1

>  <NaasC>
7

>  <NaaaC>
0

>  <NssssC>
0

>  <NsNH3>
0

>  <NsNH2>
0

>  <NssNH2>
0

>  <NdNH>
0

>  <NssNH>
0

>  <NaaNH>
0

>  <NtN>
0

>  <NsssNH>
0

>  <NdsN>
0

>  <NaaN>
0

>  <NsssN>
1

>  <NddsN>
0

>  <NaasN>
1

>  <NssssN>
0

>  <NsOH>
0

>  <NdO>
2

>  <NssO>
1

>  <NaaO>
0

>  <NsF>
0

>  <NsSiH3>
0

>  <NssSiH2>
0

>  <NsssSiH>
0

>  <NssssSi>
0

>  <NsPH2>
0

>  <NssPH>
0

>  <NsssP>
0

>  <NdsssP>
0

>  <NsssssP>
0

>  <NsSH>
0

>  <NdS>
0

>  <NssS>
0

>  <NaaS>
0

>  <NdssS>
0

>  <NddssS>
0

>  <NsCl>
1

>  <NsBr>
0

>  <NsI>
0

>  <fragCpx>
304.06

>  <fMF>
0.46

>  <nHBAcc>
4

>  <nHBDon>
0

>  <Kier1>
23.73

>  <Kier2>
10.32

>  <Lipinski>
1

>  <GhoseFilter>
1

>  <FilterItLogS>
-6.52

>  <VMcGowan>
329.71

>  <LabuteASA>
191.75

>  <PEOE_VSA1>
14.2

>  <PEOE_VSA2>
9.59

>  <PEOE_VSA3>
0

>  <PEOE_VSA4>
0

>  <PEOE_VSA5>
0

>  <PEOE_VSA6>
48

>  <PEOE_VSA7>
49.09

>  <PEOE_VSA8>
42.39

>  <PEOE_VSA9>
17.36

>  <PEOE_VSA10>
0

>  <PEOE_VSA11>
0

>  <PEOE_VSA12>
0

>  <PEOE_VSA13>
11.47

>  <SMR_VSA1>
9.53

>  <SMR_VSA2>
0

>  <SMR_VSA3>
9.47

>  <SMR_VSA4>
0

>  <SMR_VSA5>
32.41

>  <SMR_VSA6>
19.7

>  <SMR_VSA7>
81.1

>  <SMR_VSA8>
0

>  <SMR_VSA9>
22.38

>  <SlogP_VSA1>
5.56

>  <SlogP_VSA2>
41.17

>  <SlogP_VSA3>
17.7

>  <SlogP_VSA4>
0

>  <SlogP_VSA5>
29.27

>  <SlogP_VSA6>
59.39

>  <SlogP_VSA7>
5.02

>  <SlogP_VSA8>
22.38

>  <SlogP_VSA9>
0

>  <SlogP_VSA10>
0

>  <SlogP_VSA11>
0

>  <EState_VSA1>
0

>  <EState_VSA2>
17.57

>  <EState_VSA3>
48.08

>  <EState_VSA4>
29.53

>  <EState_VSA5>
0

>  <EState_VSA6>
10.63

>  <EState_VSA7>
60.35

>  <EState_VSA8>
0

>  <EState_VSA9>
16.34

>  <EState_VSA10>
9.59

>  <VSA_EState1>
7.5

>  <VSA_EState2>
29.15

>  <VSA_EState3>
0.59

>  <VSA_EState4>
4.46

>  <VSA_EState5>
-0.07

>  <VSA_EState6>
17.04

>  <VSA_EState7>
1.6

>  <VSA_EState8>
4.34

>  <VSA_EState9>
0

>  <apol>
66.88

>  <bpol>
32.48

>  <nRing>
5

>  <nHRing>
3

>  <naRing>
3

>  <naHRing>
1

>  <nARing 2>
2

>  <nAHRing 2>
2

>  <nFRing>
1

>  <nFHRing>
1

>  <nFaRing>
0

>  <nFaHRing>
0

>  <nFARing 2>
1

>  <nFAHRing 2>
1

>  <nRot>
4

>  <SLogP>
4.64

>  <SMR>
126.22

>  <TopoPSA(NO)>
51.54

>  <TopoPSA>
51.54

>  <JGI1>
0.15

>  <JGI2>
0.07

>  <JGI3>
0.04

>  <JGI4>
0.04

>  <JGI5>
0.03

>  <Diameter>
13

>  <Radius>
7

>  <TMWC10>
147.34

>  <TSRW10>
82.12

>  <MW>
448.16

>  <AMW>
7.86

>  <WPath>
2679

>  <WPol>
57

>  <Zagreb1>
176

>  <Zagreb2>
214

>  <mZagreb2>
7

>  <yes>


>  <nAR-cont>
1

>  <nHA-cont>
0.658856097

>  <MWHBN>
0.188948499

>  <MWHBN-cont>
0.994965016

>  <TPSA-cont>
0.640218796

>  <pka_cont>
0.97

>  <yes.1>


>  <BBB_SCORE>
4.916741212

>  <MMFF94 Energy>
84.894

$$$$
Compound 1261
Actelion Java MolfileCreator 2.0

  0  0  0  0  0  0              0 V3000
M  V30 BEGIN CTAB
M  V30 COUNTS 72 75 0 0 0
M  V30 BEGIN ATOM
M  V30 1 O 2.7889 5.344 -2.1509 0
M  V30 2 C 1.7604 4.698 -2.3527 0
M  V30 3 C 1.7677 3.1856 -2.5669 0 CFG=2
M  V30 4 C 0.4202 5.3879 -2.3565 0
M  V30 5 C 1.3296 2.331 -1.3496 0 CFG=2
M  V30 6 C 3.1662 2.6291 -2.9318 0
M  V30 7 C 1.8533 0.9539 -1.8002 0 CFG=1
M  V30 8 C -0.1869 2.1925 -1.1684 0
M  V30 9 C 1.9769 2.8698 -0.0493 0
M  V30 10 C 3.275 1.2501 -2.2647 0
M  V30 11 C 1.6365 -0.1402 -0.7507 0 CFG=1
M  V30 12 C -0.5838 1.0753 -0.1527 0 CFG=2
M  V30 13 C 0.0911 -0.3236 -0.4812 0 CFG=2
M  V30 14 C 2.3073 -1.4484 -1.1867 0
M  V30 15 N -2.051 0.9959 0.0084 0
M  V30 16 C -0.1557 -1.5082 0.5712 0 CFG=2
M  V30 17 C 2.0653 -2.5743 -0.1935 0
M  V30 18 C -2.8182 0.8366 -1.2237 0
M  V30 19 C -2.5988 2.0791 0.823 0
M  V30 20 C 0.5662 -2.7845 0.0177 0 CFG=1
M  V30 21 C -1.6684 -1.8787 0.7045 0
M  V30 22 C 0.38 -1.0896 1.9635 0
M  V30 23 C 0.3123 -4.0488 0.8559 0
M  V30 24 C -1.9905 -3.1767 1.478 0 CFG=1
M  V30 25 C -1.1803 -4.3679 0.9472 0 CFG=1
M  V30 26 O -1.7259 -3.0565 2.8828 0
M  V30 27 O -1.6688 -4.7433 -0.3449 0
M  V30 28 C -2.7452 -2.3645 3.5998 0
M  V30 29 C -2.3619 -2.3502 5.0668 0
M  V30 30 H 1.1089 2.987 -3.4241 0
M  V30 31 H -0.2451 4.9178 -3.0847 0
M  V30 32 H -0.021 5.3419 -1.3591 0
M  V30 33 H 0.5525 6.4345 -2.6452 0
M  V30 34 H 3.2537 2.5361 -4.0206 0
M  V30 35 H 3.992 3.2672 -2.6008 0
M  V30 36 H 1.2968 0.6429 -2.7004 0
M  V30 37 H -0.6035 3.1519 -0.8451 0
M  V30 38 H -0.6324 1.9751 -2.1472 0
M  V30 39 H 1.5298 3.8288 0.2366 0
M  V30 40 H 3.0533 3.0362 -0.158 0
M  V30 41 H 1.845 2.1998 0.8036 0
M  V30 42 H 3.9736 1.2862 -1.4212 0
M  V30 43 H 3.6451 0.499 -2.9698 0
M  V30 44 H 2.1306 0.1703 0.1745 0
M  V30 45 H -0.1761 1.3671 0.8219 0
M  V30 46 H -0.3419 -0.6644 -1.4333 0
M  V30 47 H 3.3892 -1.3052 -1.2888 0
M  V30 48 H 1.934 -1.7472 -2.1747 0
M  V30 49 H 2.5699 -2.3599 0.7554 0
M  V30 50 H 2.5212 -3.4909 -0.5875 0
M  V30 51 H -2.8487 1.7532 -1.8227 0
M  V30 52 H -2.4249 0.0285 -1.8471 0
M  V30 53 H -3.8529 0.5629 -0.9863 0
M  V30 54 H -2.5308 3.054 0.3295 0
M  V30 55 H -2.0838 2.1413 1.788 0
M  V30 56 H -3.654 1.8885 1.0504 0
M  V30 57 H 0.1427 -2.9858 -0.9785 0
M  V30 58 H -2.092 -1.9783 -0.3031 0
M  V30 59 H -2.203 -1.0674 1.1997 0
M  V30 60 H -0.2457 -0.3072 2.4065 0
M  V30 61 H 0.4026 -1.9187 2.6736 0
M  V30 62 H 1.4007 -0.7031 1.9279 0
M  V30 63 H 0.8263 -4.8951 0.3823 0
M  V30 64 H 0.7403 -3.9436 1.8586 0
M  V30 65 H -3.0564 -3.4019 1.3375 0
M  V30 66 H -1.3186 -5.2299 1.6109 0
M  V30 67 H -1.1635 -5.5259 -0.6245 0
M  V30 68 H -3.7033 -2.8801 3.4735 0
M  V30 69 H -2.8397 -1.3359 3.2404 0
M  V30 70 H -3.1181 -1.8317 5.6629 0
M  V30 71 H -2.251 -3.3712 5.4466 0
M  V30 72 H -1.3974 -1.8511 5.2076 0
M  V30 END ATOM
M  V30 BEGIN BOND
M  V30 1 2 1 2
M  V30 2 1 2 3
M  V30 3 1 2 4
M  V30 4 1 3 5
M  V30 5 1 3 6
M  V30 6 1 5 7
M  V30 7 1 5 8
M  V30 8 1 5 9
M  V30 9 1 6 10
M  V30 10 1 7 11
M  V30 11 1 8 12
M  V30 12 1 11 13
M  V30 13 1 11 14
M  V30 14 1 12 15
M  V30 15 1 13 16
M  V30 16 1 14 17
M  V30 17 1 15 18
M  V30 18 1 15 19
M  V30 19 1 16 20
M  V30 20 1 16 21
M  V30 21 1 16 22
M  V30 22 1 20 23
M  V30 23 1 21 24
M  V30 24 1 23 25
M  V30 25 1 24 26
M  V30 26 1 25 27
M  V30 27 1 26 28
M  V30 28 1 28 29
M  V30 29 1 7 10
M  V30 30 1 12 13
M  V30 31 1 17 20
M  V30 32 1 24 25
M  V30 33 1 3 30
M  V30 34 1 4 31
M  V30 35 1 4 32
M  V30 36 1 4 33
M  V30 37 1 6 34
M  V30 38 1 6 35
M  V30 39 1 7 36
M  V30 40 1 8 37
M  V30 41 1 8 38
M  V30 42 1 9 39
M  V30 43 1 9 40
M  V30 44 1 9 41
M  V30 45 1 10 42
M  V30 46 1 10 43
M  V30 47 1 11 44
M  V30 48 1 12 45
M  V30 49 1 13 46
M  V30 50 1 14 47
M  V30 51 1 14 48
M  V30 52 1 17 49
M  V30 53 1 17 50
M  V30 54 1 18 51
M  V30 55 1 18 52
M  V30 56 1 18 53
M  V30 57 1 19 54
M  V30 58 1 19 55
M  V30 59 1 19 56
M  V30 60 1 20 57
M  V30 61 1 21 58
M  V30 62 1 21 59
M  V30 63 1 22 60
M  V30 64 1 22 61
M  V30 65 1 22 62
M  V30 66 1 23 63
M  V30 67 1 23 64
M  V30 68 1 24 65
M  V30 69 1 25 66
M  V30 70 1 27 67
M  V30 71 1 28 68
M  V30 72 1 28 69
M  V30 73 1 29 70
M  V30 74 1 29 71
M  V30 75 1 29 72
M  V30 END BOND
M  V30 BEGIN COLLECTION
M  V30 MDLV30/STEABS ATOMS=(10 3 5 7 11 12 13 16 20 24 25)
M  V30 END COLLECTION
M  V30 END CTAB
M  END
>  <Column 1>
1494

>  <level_0>
1644

>  <index>
1644

>  <Unnamed: 0>
1644

>  <NO.>
1656

>  <Name>
minaxolone

>  <IUPAC_name>
1-[(2s-3s-5s-8s-9s-10s-11r-13s-14s-17s)-11-(dimethylamino)-2-ethoxy-3-hydroxy-10-13-dimethyl-2-3-4-5-6-7-8-9-11-12-14-15-16-17-tetradecahydro-1h-cyclopenta[a]phenanthren-17-yl]ethanone

>  <SMILES>
CCO[C@H]1C[C@@]2(C)[C@@H](CC[C@H]3[C@@H]4CC[C@H](C(C)=O)[C@@]4(C)C[C@@H](N(C)C)[C@@H]32)C[C@@H]1O

>  <CID>
71960

>  <logBB>


>  <BBB+/BBB->
BBB+

>  <Inchi>
InChI=1S/C25H43NO3/c1-7-29-22-14-24(3)16(12-21(22)28)8-9-17-19-11-10-18(15(2)27)25(19-4)13-20(23(17)24)26(5)6/h16-23-28H-7-14H2-1-6H3/t16--17--18+-19--20+-21--22--23+-24--25+/m0/s1

>  <threshold>
-1

>  <reference>
R1|R6|R27|R30|

>  <group>
B

>  <Class>
-1

>  <ABC>
23

>  <ABCGG>
19.02

>  <nAcid>
0

>  <nBase>
1

>  <nAromAtom>
0

>  <nAromBond>
0

>  <nAtom>
72

>  <nHeavyAtom>
29

>  <nSpiro>
0

>  <nBridgehead>
0

>  <nHetero>
4

>  <nN>
1

>  <nO>
3

>  <nF>
0

>  <BalabanJ>
1.71

>  <BertzCT>
635.56

>  <nBonds>
75

>  <nBondsO>
32

>  <nBondsS>
74

>  <nBondsD>
1

>  <nBondsT>
0

>  <nBondsA>
0

>  <nBondsM>
1

>  <nBondsKS>
74

>  <nBondsKD>
1

>  <RNCG>
0.2

>  <RPCG>
0.11

>  <FCSP3>
0.96

>  <SZ>
37.33

>  <Sm>
33.77

>  <Sv>
39.55

>  <Sse>
70.74

>  <Sp>
44.27

>  <Si>
81.85

>  <MZ>
0.52

>  <Mm>
0.47

>  <Mv>
0.55

>  <Mse>
0.98

>  <Mp>
0.61

>  <Mi>
1.14

>  <NsCH3>
6

>  <NdCH2>
0

>  <NssCH2>
8

>  <NtCH>
0

>  <NdsCH>
0

>  <NaaCH>
0

>  <NsssCH>
8

>  <NddC>
0

>  <NtsC>
0

>  <NdssC>
1

>  <NaasC>
0

>  <NaaaC>
0

>  <NssssC>
2

>  <NsNH3>
0

>  <NsNH2>
0

>  <NssNH2>
0

>  <NdNH>
0

>  <NssNH>
0

>  <NaaNH>
0

>  <NtN>
0

>  <NsssNH>
0

>  <NdsN>
0

>  <NaaN>
0

>  <NsssN>
1

>  <NddsN>
0

>  <NaasN>
0

>  <NssssN>
0

>  <NsOH>
1

>  <NdO>
1

>  <NssO>
1

>  <NaaO>
0

>  <NsF>
0

>  <NsSiH3>
0

>  <NssSiH2>
0

>  <NsssSiH>
0

>  <NssssSi>
0

>  <NsPH2>
0

>  <NssPH>
0

>  <NsssP>
0

>  <NdsssP>
0

>  <NsssssP>
0

>  <NsSH>
0

>  <NdS>
0

>  <NssS>
0

>  <NaaS>
0

>  <NdssS>
0

>  <NddssS>
0

>  <NsCl>
0

>  <NsBr>
0

>  <NsI>
0

>  <fragCpx>
212.04

>  <fMF>
0.24

>  <nHBAcc>
4

>  <nHBDon>
1

>  <Kier1>
22.2

>  <Kier2>
7.85

>  <Lipinski>
1

>  <GhoseFilter>
0

>  <FilterItLogS>
-3.82

>  <VMcGowan>
342.96

>  <LabuteASA>
177.3

>  <PEOE_VSA1>
14.74

>  <PEOE_VSA2>
4.79

>  <PEOE_VSA3>
0

>  <PEOE_VSA4>
0

>  <PEOE_VSA5>
0

>  <PEOE_VSA6>
13.85

>  <PEOE_VSA7>
107.39

>  <PEOE_VSA8>
18.57

>  <PEOE_VSA9>
12.21

>  <PEOE_VSA10>
5.78

>  <PEOE_VSA11>
0

>  <PEOE_VSA12>
0

>  <PEOE_VSA13>
0

>  <SMR_VSA1>
14.64

>  <SMR_VSA2>
0

>  <SMR_VSA3>
4.9

>  <SMR_VSA4>
40.42

>  <SMR_VSA5>
90.89

>  <SMR_VSA6>
20.7

>  <SMR_VSA7>
0

>  <SMR_VSA8>
0

>  <SMR_VSA9>
0

>  <SlogP_VSA1>
0

>  <SlogP_VSA2>
54.74

>  <SlogP_VSA3>
9.53

>  <SlogP_VSA4>
40.42

>  <SlogP_VSA5>
72.64

>  <SlogP_VSA6>
0

>  <SlogP_VSA7>
0

>  <SlogP_VSA8>
0

>  <SlogP_VSA9>
0

>  <SlogP_VSA10>
0

>  <SlogP_VSA11>
0

>  <EState_VSA1>
0

>  <EState_VSA2>
28.96

>  <EState_VSA3>
42.1

>  <EState_VSA4>
25.68

>  <EState_VSA5>
19.26

>  <EState_VSA6>
0

>  <EState_VSA7>
13.85

>  <EState_VSA8>
32.84

>  <EState_VSA9>
4.74

>  <EState_VSA10>
9.9

>  <VSA_EState1>
6.03

>  <VSA_EState2>
14.99

>  <VSA_EState3>
10.74

>  <VSA_EState4>
0.37

>  <VSA_EState5>
3.24

>  <VSA_EState6>
0.51

>  <VSA_EState7>
7.48

>  <VSA_EState8>
9.49

>  <VSA_EState9>
4.49

>  <apol>
73.93

>  <bpol>
47.45

>  <nRing>
4

>  <nHRing>
0

>  <naRing>
0

>  <naHRing>
0

>  <nARing 2>
4

>  <nAHRing 2>
0

>  <nFRing>
1

>  <nFHRing>
0

>  <nFaRing>
0

>  <nFaHRing>
0

>  <nFARing 2>
1

>  <nFAHRing 2>
0

>  <nRot>
4

>  <SLogP>
4.15

>  <SMR>
115.56

>  <TopoPSA(NO)>
49.77

>  <TopoPSA>
49.77

>  <JGI1>
0.27

>  <JGI2>
0.12

>  <JGI3>
0.07

>  <JGI4>
0.06

>  <JGI5>
0.03

>  <Diameter>
12

>  <Radius>
6

>  <TMWC10>
141.44

>  <TSRW10>
80.07

>  <MW>
405.32

>  <AMW>
5.63

>  <WPath>
1913

>  <WPol>
61

>  <Zagreb1>
166

>  <Zagreb2>
209

>  <mZagreb2>
6.17

>  <yes>


>  <nAR-cont>
0.199399

>  <nHA-cont>
0.785905698

>  <MWHBN>
0.248353902

>  <MWHBN-cont>
0.96250142

>  <TPSA-cont>
0.652574495

>  <pka_cont>
0.97

>  <yes.1>


>  <BBB_SCORE>
4.219205818

>  <MMFF94 Energy>
121.58

$$$$
Compound 1262
Actelion Java MolfileCreator 2.0

  0  0  0  0  0  0              0 V3000
M  V30 BEGIN CTAB
M  V30 COUNTS 51 54 0 0 0
M  V30 BEGIN ATOM
M  V30 1 S -1.4633 -1.1379 1.7887 0
M  V30 2 C -2.9202 -2.2408 1.3924 0
M  V30 3 C -0.2832 -2.4084 1.1688 0 CFG=1
M  V30 4 C -2.4982 -2.9527 0.0909 0 CFG=1
M  V30 5 C -3.1356 -3.1755 2.5903 0
M  V30 6 C -4.1542 -1.361 1.1826 0
M  V30 7 N -1.051 -3.064 0.1177 0
M  V30 8 C 0.7428 -1.9841 0.0874 0 CFG=1
M  V30 9 C -3.1404 -4.3167 -0.1097 0
M  V30 10 C -0.2427 -2.6762 -0.9049 0
M  V30 11 N 0.9283 -0.5236 -0.0986 0
M  V30 12 O -2.7112 -5.3977 0.2609 0
M  V30 13 O -4.3445 -4.2398 -0.715 0
M  V30 14 O -0.4126 -2.7551 -2.0986 0
M  V30 15 C 2.0332 0.0022 -0.7286 0
M  V30 16 O 2.9567 -0.686 -1.146 0
M  V30 17 C 2.0356 1.4839 -0.8943 0
M  V30 18 C 1.8351 2.303 0.2386 0
M  V30 19 C 2.255 2.0446 -2.1877 0
M  V30 20 O 1.621 1.673 1.4377 0
M  V30 21 C 1.8524 3.688 0.0835 0
M  V30 22 C 2.2713 3.4553 -2.3071 0
M  V30 23 C 2.4391 1.292 -3.3753 0
M  V30 24 C 1.6265 2.466 2.6238 0
M  V30 25 C 2.0724 4.254 -1.1734 0
M  V30 26 C 2.4794 4.058 -3.5594 0
M  V30 27 C 2.6431 1.9043 -4.614 0
M  V30 28 C 1.5155 1.5272 3.8117 0
M  V30 29 C 2.6653 3.2882 -4.7056 0
M  V30 30 H 0.0876 -3.1059 1.9254 0
M  V30 31 H -2.7499 -2.3427 -0.788 0
M  V30 32 H -4.0153 -3.8111 2.4379 0
M  V30 33 H -3.311 -2.6107 3.5138 0
M  V30 34 H -2.2793 -3.8375 2.7602 0
M  V30 35 H -4.4059 -0.7952 2.0872 0
M  V30 36 H -4.0099 -0.6431 0.3669 0
M  V30 37 H -5.0272 -1.9724 0.928 0
M  V30 38 H 1.6974 -2.5162 0.1748 0
M  V30 39 H 0.2414 0.1236 0.2778 0
M  V30 40 H -4.6243 -5.176 -0.8081 0
M  V30 41 H 1.6958 4.3636 0.9182 0
M  V30 42 H 2.4277 0.203 -3.3503 0
M  V30 43 H 0.7684 3.1473 2.6256 0
M  V30 44 H 2.561 3.0335 2.7021 0
M  V30 45 H 2.0823 5.3395 -1.2601 0
M  V30 46 H 2.4966 5.142 -3.6539 0
M  V30 47 H 2.7854 1.2929 -5.5015 0
M  V30 48 H 1.5191 2.0857 4.7518 0
M  V30 49 H 0.5937 0.9394 3.7539 0
M  V30 50 H 2.3474 0.8152 3.8193 0
M  V30 51 H 2.8254 3.7689 -5.6668 0
M  V30 END ATOM
M  V30 BEGIN BOND
M  V30 1 1 1 2
M  V30 2 1 1 3
M  V30 3 1 2 4
M  V30 4 1 2 5
M  V30 5 1 2 6
M  V30 6 1 3 7
M  V30 7 1 3 8
M  V30 8 1 4 9
M  V30 9 1 7 10
M  V30 10 1 8 11
M  V30 11 2 9 12
M  V30 12 1 9 13
M  V30 13 2 10 14
M  V30 14 1 11 15
M  V30 15 2 15 16
M  V30 16 1 15 17
M  V30 17 2 17 18
M  V30 18 1 17 19
M  V30 19 1 18 20
M  V30 20 1 18 21
M  V30 21 1 19 22
M  V30 22 2 19 23
M  V30 23 1 20 24
M  V30 24 2 21 25
M  V30 25 2 22 26
M  V30 26 1 23 27
M  V30 27 1 24 28
M  V30 28 1 26 29
M  V30 29 1 4 7
M  V30 30 1 8 10
M  V30 31 1 22 25
M  V30 32 2 27 29
M  V30 33 1 3 30
M  V30 34 1 4 31
M  V30 35 1 5 32
M  V30 36 1 5 33
M  V30 37 1 5 34
M  V30 38 1 6 35
M  V30 39 1 6 36
M  V30 40 1 6 37
M  V30 41 1 8 38
M  V30 42 1 11 39
M  V30 43 1 13 40
M  V30 44 1 21 41
M  V30 45 1 23 42
M  V30 46 1 24 43
M  V30 47 1 24 44
M  V30 48 1 25 45
M  V30 49 1 26 46
M  V30 50 1 27 47
M  V30 51 1 28 48
M  V30 52 1 28 49
M  V30 53 1 28 50
M  V30 54 1 29 51
M  V30 END BOND
M  V30 BEGIN COLLECTION
M  V30 MDLV30/STEABS ATOMS=(3 3 4 8)
M  V30 END COLLECTION
M  V30 END CTAB
M  END
>  <Column 1>
1495

>  <level_0>
1645

>  <index>
1645

>  <Unnamed: 0>
1645

>  <NO.>
1657

>  <Name>
nafcillin

>  <IUPAC_name>
sodium;(2s-5r-6r)-6-[(2-ethoxynaphthalene-1-carbonyl)amino]-3-3-dimethyl-7-oxo-4-thia-1-azabicyclo[3.2.0]heptane-2-carboxylate

>  <SMILES>
CCOc1ccc2ccccc2c1C(=O)N[C@@H]1C(=O)N2[C@@H](C(=O)O)C(C)(C)S[C@H]12

>  <CID>
8982

>  <logBB>


>  <BBB+/BBB->
BBB-

>  <Inchi>
InChI=1S/C21H22N2O5S/c1-4-28-13-10-9-11-7-5-6-8-12(11)14(13)17(24)22-15-18(25)23-16(20(26)27)21(2-3)29-19(15)23/h5-10-15-16-19H-4H2-1-3H3-(H-22-24)(H-26-27)/t15--16+-19-/m1/s1

>  <threshold>
-1

>  <reference>
R1|R6|R9|R27|R30|

>  <group>
B

>  <Class>
1

>  <ABC>
22.92

>  <ABCGG>
18.87

>  <nAcid>
1

>  <nBase>
0

>  <nAromAtom>
10

>  <nAromBond>
11

>  <nAtom>
51

>  <nHeavyAtom>
29

>  <nSpiro>
0

>  <nBridgehead>
0

>  <nHetero>
8

>  <nN>
2

>  <nO>
5

>  <nF>
0

>  <BalabanJ>
1.47

>  <BertzCT>
1021.3

>  <nBonds>
54

>  <nBondsO>
32

>  <nBondsS>
40

>  <nBondsD>
3

>  <nBondsT>
0

>  <nBondsA>
11

>  <nBondsM>
14

>  <nBondsKS>
46

>  <nBondsKD>
8

>  <RNCG>
0.17

>  <RPCG>
0.11

>  <FCSP3>
0.38

>  <SZ>
36.33

>  <Sm>
34.51

>  <Sv>
33.24

>  <Sse>
51.82

>  <Sp>
35.24

>  <Si>
57.12

>  <MZ>
0.71

>  <Mm>
0.68

>  <Mv>
0.65

>  <Mse>
1.02

>  <Mp>
0.69

>  <Mi>
1.12

>  <NsCH3>
3

>  <NdCH2>
0

>  <NssCH2>
1

>  <NtCH>
0

>  <NdsCH>
0

>  <NaaCH>
6

>  <NsssCH>
3

>  <NddC>
0

>  <NtsC>
0

>  <NdssC>
3

>  <NaasC>
2

>  <NaaaC>
2

>  <NssssC>
1

>  <NsNH3>
0

>  <NsNH2>
0

>  <NssNH2>
0

>  <NdNH>
0

>  <NssNH>
1

>  <NaaNH>
0

>  <NtN>
0

>  <NsssNH>
0

>  <NdsN>
0

>  <NaaN>
0

>  <NsssN>
1

>  <NddsN>
0

>  <NaasN>
0

>  <NssssN>
0

>  <NsOH>
1

>  <NdO>
3

>  <NssO>
1

>  <NaaO>
0

>  <NsF>
0

>  <NsSiH3>
0

>  <NssSiH2>
0

>  <NsssSiH>
0

>  <NssssSi>
0

>  <NsPH2>
0

>  <NssPH>
0

>  <NsssP>
0

>  <NdsssP>
0

>  <NsssssP>
0

>  <NsSH>
0

>  <NdS>
0

>  <NssS>
1

>  <NaaS>
0

>  <NdssS>
0

>  <NddssS>
0

>  <NsCl>
0

>  <NsBr>
0

>  <NsI>
0

>  <fragCpx>
212.08

>  <fMF>
0.37

>  <nHBAcc>
5

>  <nHBDon>
2

>  <Kier1>
22.2

>  <Kier2>
8.5

>  <Lipinski>
1

>  <GhoseFilter>
1

>  <FilterItLogS>
-3.77

>  <VMcGowan>
294.57

>  <LabuteASA>
171.94

>  <PEOE_VSA1>
20.06

>  <PEOE_VSA2>
9.59

>  <PEOE_VSA3>
4.79

>  <PEOE_VSA4>
0

>  <PEOE_VSA5>
11.76

>  <PEOE_VSA6>
30.33

>  <PEOE_VSA7>
37.61

>  <PEOE_VSA8>
4.75

>  <PEOE_VSA9>
12.17

>  <PEOE_VSA10>
23.21

>  <PEOE_VSA11>
0

>  <PEOE_VSA12>
5.91

>  <PEOE_VSA13>
5.91

>  <SMR_VSA1>
24.23

>  <SMR_VSA2>
0

>  <SMR_VSA3>
10.22

>  <SMR_VSA4>
0

>  <SMR_VSA5>
42.98

>  <SMR_VSA6>
6.61

>  <SMR_VSA7>
41.96

>  <SMR_VSA8>
0

>  <SMR_VSA9>
5.75

>  <SlogP_VSA1>
10.05

>  <SlogP_VSA2>
56.6

>  <SlogP_VSA3>
9.59

>  <SlogP_VSA4>
0

>  <SlogP_VSA5>
31.13

>  <SlogP_VSA6>
36.4

>  <SlogP_VSA7>
0

>  <SlogP_VSA8>
10.77

>  <SlogP_VSA9>
0

>  <SlogP_VSA10>
0

>  <SlogP_VSA11>
5.75

>  <EState_VSA1>
34.08

>  <EState_VSA2>
5.91

>  <EState_VSA3>
17.92

>  <EState_VSA4>
10.77

>  <EState_VSA5>
16.66

>  <EState_VSA6>
19.91

>  <EState_VSA7>
37.26

>  <EState_VSA8>
5.32

>  <EState_VSA9>
4.74

>  <EState_VSA10>
19.49

>  <VSA_EState1>
5.02

>  <VSA_EState2>
38.89

>  <VSA_EState3>
13.59

>  <VSA_EState4>
0.38

>  <VSA_EState5>
-1.35

>  <VSA_EState6>
9.46

>  <VSA_EState7>
0

>  <VSA_EState8>
5.85

>  <VSA_EState9>
0

>  <apol>
58.85

>  <bpol>
31.15

>  <nRing>
4

>  <nHRing>
2

>  <naRing>
2

>  <naHRing>
0

>  <nARing 2>
2

>  <nAHRing 2>
2

>  <nFRing>
2

>  <nFHRing>
1

>  <nFaRing>
1

>  <nFaHRing>
0

>  <nFARing 2>
1

>  <nFAHRing 2>
1

>  <nRot>
5

>  <SLogP>
2.48

>  <SMR>
110.1

>  <TopoPSA(NO)>
95.94

>  <TopoPSA>
121.24

>  <JGI1>
0.2

>  <JGI2>
0.09

>  <JGI3>
0.08

>  <JGI4>
0.05

>  <JGI5>
0.02

>  <Diameter>
12

>  <Radius>
6

>  <TMWC10>
140.46

>  <TSRW10>
80.53

>  <MW>
414.12

>  <AMW>
8.12

>  <WPath>
2173

>  <WPol>
51

>  <Zagreb1>
162

>  <Zagreb2>
200

>  <mZagreb2>
6.24

>  <yes>


>  <nAR-cont>
1

>  <nHA-cont>
0.785905698

>  <MWHBN>
0.343981382

>  <MWHBN-cont>
0.692576333

>  <TPSA-cont>
0

>  <pka_cont>
0.97

>  <yes.1>


>  <BBB_SCORE>
3.309770197

>  <MMFF94 Energy>
75.066

$$$$
Compound 1263
Actelion Java MolfileCreator 2.0

  0  0  0  0  0  0              0 V3000
M  V30 BEGIN CTAB
M  V30 COUNTS 36 37 0 0 0
M  V30 BEGIN ATOM
M  V30 1 O 2.1298 -2.3667 -0.3941 0
M  V30 2 C 1.2305 -1.7145 0.527 0 CFG=2
M  V30 3 C 1.9475 -3.7873 -0.3715 0
M  V30 4 C -0.2367 -2.0851 0.215 0
M  V30 5 C 1.461 -0.1973 0.4702 0
M  V30 6 C 0.4941 -4.1771 -0.6783 0
M  V30 7 N -0.4597 -3.5482 0.2543 0
M  V30 8 O 1.0085 0.3266 -0.7873 0
M  V30 9 C 0.7973 1.6794 -0.701 0
M  V30 10 C -0.3912 2.1987 -0.1643 0
M  V30 11 C 1.7704 2.518 -1.245 0
M  V30 12 O -1.2919 1.2845 0.3158 0
M  V30 13 C -0.5641 3.5849 -0.1375 0
M  V30 14 C 1.5839 3.8978 -1.2189 0
M  V30 15 C -2.6117 1.7517 0.5846 0
M  V30 16 C 0.4214 4.4298 -0.6617 0
M  V30 17 C -3.474 0.5457 0.9116 0
M  V30 18 H 1.4934 -2.0553 1.5374 0
M  V30 19 H 2.2602 -4.1713 0.6068 0
M  V30 20 H 2.614 -4.2183 -1.1251 0
M  V30 21 H -0.5285 -1.7248 -0.7786 0
M  V30 22 H -0.9052 -1.6115 0.9421 0
M  V30 23 H 0.9395 0.269 1.3158 0
M  V30 24 H 2.5336 0.0145 0.5586 0
M  V30 25 H 0.3832 -5.265 -0.6234 0
M  V30 26 H 0.2373 -3.8751 -1.7009 0
M  V30 27 H -0.2582 -3.8793 1.1973 0
M  V30 28 H 2.6662 2.0926 -1.688 0
M  V30 29 H -1.4524 4.0416 0.2854 0
M  V30 30 H 2.3408 4.5566 -1.6363 0
M  V30 31 H -3.0272 2.2623 -0.292 0
M  V30 32 H -2.6031 2.4288 1.4462 0
M  V30 33 H 0.2767 5.5074 -0.6402 0
M  V30 34 H -4.5024 0.8484 1.1279 0
M  V30 35 H -3.4812 -0.1609 0.0751 0
M  V30 36 H -3.0735 0.0091 1.7782 0
M  V30 END ATOM
M  V30 BEGIN BOND
M  V30 1 1 1 2
M  V30 2 1 1 3
M  V30 3 1 2 4
M  V30 4 1 2 5
M  V30 5 1 3 6
M  V30 6 1 4 7
M  V30 7 1 5 8
M  V30 8 1 8 9
M  V30 9 2 9 10
M  V30 10 1 9 11
M  V30 11 1 10 12
M  V30 12 1 10 13
M  V30 13 2 11 14
M  V30 14 1 12 15
M  V30 15 2 13 16
M  V30 16 1 15 17
M  V30 17 1 6 7
M  V30 18 1 14 16
M  V30 19 1 2 18
M  V30 20 1 3 19
M  V30 21 1 3 20
M  V30 22 1 4 21
M  V30 23 1 4 22
M  V30 24 1 5 23
M  V30 25 1 5 24
M  V30 26 1 6 25
M  V30 27 1 6 26
M  V30 28 1 7 27
M  V30 29 1 11 28
M  V30 30 1 13 29
M  V30 31 1 14 30
M  V30 32 1 15 31
M  V30 33 1 15 32
M  V30 34 1 16 33
M  V30 35 1 17 34
M  V30 36 1 17 35
M  V30 37 1 17 36
M  V30 END BOND
M  V30 BEGIN COLLECTION
M  V30 MDLV30/STERAC1 ATOMS=(1 2)
M  V30 END COLLECTION
M  V30 END CTAB
M  END
>  <Column 1>
1496

>  <level_0>
1646

>  <index>
1646

>  <Unnamed: 0>
1646

>  <NO.>
1658

>  <Name>
viloxazine

>  <IUPAC_name>
2-[(2-ethoxyphenoxy)methyl]morpholine

>  <SMILES>
CCOc1ccccc1OCC1CNCCO1

>  <CID>
5666

>  <logBB>


>  <BBB+/BBB->
BBB+

>  <Inchi>
InChI=1S/C13H19NO3/c1-2-15-12-5-3-4-6-13(12)17-10-11-9-14-7-8-16-11/h3-6-11-14H-2-7-10H2-1H3

>  <threshold>
-1

>  <reference>
R1|R19|R6|R14|R23|R27|R27|R30|

>  <group>
B

>  <Class>
1

>  <ABC>
12.69

>  <ABCGG>
10.6

>  <nAcid>
0

>  <nBase>
1

>  <nAromAtom>
6

>  <nAromBond>
6

>  <nAtom>
36

>  <nHeavyAtom>
17

>  <nSpiro>
0

>  <nBridgehead>
0

>  <nHetero>
4

>  <nN>
1

>  <nO>
3

>  <nF>
0

>  <BalabanJ>
1.71

>  <BertzCT>
337.19

>  <nBonds>
37

>  <nBondsO>
18

>  <nBondsS>
31

>  <nBondsD>
0

>  <nBondsT>
0

>  <nBondsA>
6

>  <nBondsM>
6

>  <nBondsKS>
34

>  <nBondsKD>
3

>  <RNCG>
0.27

>  <RPCG>
0.09

>  <FCSP3>
0.54

>  <SZ>
21.33

>  <Sm>
19.76

>  <Sv>
21.05

>  <Sse>
36.09

>  <Sp>
22.69

>  <Si>
40.86

>  <MZ>
0.59

>  <Mm>
0.55

>  <Mv>
0.58

>  <Mse>
1

>  <Mp>
0.63

>  <Mi>
1.14

>  <NsCH3>
1

>  <NdCH2>
0

>  <NssCH2>
5

>  <NtCH>
0

>  <NdsCH>
0

>  <NaaCH>
4

>  <NsssCH>
1

>  <NddC>
0

>  <NtsC>
0

>  <NdssC>
0

>  <NaasC>
2

>  <NaaaC>
0

>  <NssssC>
0

>  <NsNH3>
0

>  <NsNH2>
0

>  <NssNH2>
0

>  <NdNH>
0

>  <NssNH>
1

>  <NaaNH>
0

>  <NtN>
0

>  <NsssNH>
0

>  <NdsN>
0

>  <NaaN>
0

>  <NsssN>
0

>  <NddsN>
0

>  <NaasN>
0

>  <NssssN>
0

>  <NsOH>
0

>  <NdO>
0

>  <NssO>
3

>  <NaaO>
0

>  <NsF>
0

>  <NsSiH3>
0

>  <NssSiH2>
0

>  <NsssSiH>
0

>  <NssssSi>
0

>  <NsPH2>
0

>  <NssPH>
0

>  <NsssP>
0

>  <NdsssP>
0

>  <NsssssP>
0

>  <NsSH>
0

>  <NdS>
0

>  <NssS>
0

>  <NaaS>
0

>  <NdssS>
0

>  <NddssS>
0

>  <NsCl>
0

>  <NsBr>
0

>  <NsI>
0

>  <fragCpx>
52.04

>  <fMF>
0.39

>  <nHBAcc>
4

>  <nHBDon>
1

>  <Kier1>
13.43

>  <Kier2>
7.44

>  <Lipinski>
1

>  <GhoseFilter>
1

>  <FilterItLogS>
-3.15

>  <VMcGowan>
187

>  <LabuteASA>
101.87

>  <PEOE_VSA1>
19.53

>  <PEOE_VSA2>
0

>  <PEOE_VSA3>
0

>  <PEOE_VSA4>
0

>  <PEOE_VSA5>
0

>  <PEOE_VSA6>
12.13

>  <PEOE_VSA7>
19.06

>  <PEOE_VSA8>
13.09

>  <PEOE_VSA9>
13.21

>  <PEOE_VSA10>
12.71

>  <PEOE_VSA11>
11.5

>  <PEOE_VSA12>
0

>  <PEOE_VSA13>
0

>  <SMR_VSA1>
14.21

>  <SMR_VSA2>
0

>  <SMR_VSA3>
5.32

>  <SMR_VSA4>
0

>  <SMR_VSA5>
13.03

>  <SMR_VSA6>
32.91

>  <SMR_VSA7>
24.27

>  <SMR_VSA8>
0

>  <SMR_VSA9>
11.5

>  <SlogP_VSA1>
14.79

>  <SlogP_VSA2>
39.01

>  <SlogP_VSA3>
4.74

>  <SlogP_VSA4>
0

>  <SlogP_VSA5>
6.92

>  <SlogP_VSA6>
24.27

>  <SlogP_VSA7>
0

>  <SlogP_VSA8>
0

>  <SlogP_VSA9>
0

>  <SlogP_VSA10>
0

>  <SlogP_VSA11>
11.5

>  <EState_VSA1>
0

>  <EState_VSA2>
6.1

>  <EState_VSA3>
13.21

>  <EState_VSA4>
31.2

>  <EState_VSA5>
0

>  <EState_VSA6>
0

>  <EState_VSA7>
31.19

>  <EState_VSA8>
5.32

>  <EState_VSA9>
14.21

>  <EState_VSA10>
0

>  <VSA_EState1>
16.81

>  <VSA_EState2>
0

>  <VSA_EState3>
3.27

>  <VSA_EState4>
0

>  <VSA_EState5>
1.57

>  <VSA_EState6>
7.72

>  <VSA_EState7>
0.12

>  <VSA_EState8>
5.67

>  <VSA_EState9>
0

>  <apol>
37.89

>  <bpol>
24.84

>  <nRing>
2

>  <nHRing>
1

>  <naRing>
1

>  <naHRing>
0

>  <nARing 2>
1

>  <nAHRing 2>
1

>  <nFRing>
0

>  <nFHRing>
0

>  <nFaRing>
0

>  <nFaHRing>
0

>  <nFARing 2>
0

>  <nFAHRing 2>
0

>  <nRot>
5

>  <SLogP>
1.45

>  <SMR>
65.72

>  <TopoPSA(NO)>
39.72

>  <TopoPSA>
39.72

>  <JGI1>
0.11

>  <JGI2>
0.06

>  <JGI3>
0.02

>  <JGI4>
0.03

>  <JGI5>
0.02

>  <Diameter>
10

>  <Radius>
5

>  <TMWC10>
103.73

>  <TSRW10>
48.84

>  <MW>
237.14

>  <AMW>
6.59

>  <WPath>
572

>  <WPol>
21

>  <Zagreb1>
80

>  <Zagreb2>
89

>  <mZagreb2>
4.03

>  <yes>


>  <nAR-cont>
0.816016

>  <nHA-cont>
0.976740822

>  <MWHBN>
0.324689016

>  <MWHBN-cont>
0.761258644

>  <TPSA-cont>
0.722729735

>  <pka_cont>
0.97

>  <yes.1>


>  <BBB_SCORE>
4.865104258

>  <MMFF94 Energy>
111.41

$$$$
Compound 1264
Actelion Java MolfileCreator 2.0

  0  0  0  0  0  0              0 V3000
M  V30 BEGIN CTAB
M  V30 COUNTS 46 48 0 0 0
M  V30 BEGIN ATOM
M  V30 1 O -1.6678 0.5556 -1.6678 0
M  V30 2 C -0.61 1.3873 -1.1256 0 CFG=2
M  V30 3 C -2.7585 0.3716 -0.7565 0
M  V30 4 C 0.2424 0.6405 -0.0523 0 CFG=1
M  V30 5 C -1.2148 2.7324 -0.6485 0
M  V30 6 C -3.3429 1.7108 -0.2902 0
M  V30 7 O 0.8545 -0.5144 -0.6834 0
M  V30 8 C 1.3497 1.5259 0.5086 0
M  V30 9 N -2.3239 2.5863 0.3138 0
M  V30 10 C 0.949 -1.5743 0.1818 0
M  V30 11 C 1.3179 1.9265 1.8536 0
M  V30 12 C 2.4157 1.9547 -0.299 0
M  V30 13 C -0.0445 -2.5561 0.2386 0
M  V30 14 C 2.0856 -1.6878 0.9849 0
M  V30 15 C 2.3228 2.744 2.3735 0
M  V30 16 C 3.419 2.7713 0.2239 0
M  V30 17 O -1.1717 -2.5348 -0.5384 0
M  V30 18 C 0.0564 -3.5956 1.1645 0
M  V30 19 C 2.1976 -2.7434 1.8912 0
M  V30 20 C 3.3709 3.1673 1.5588 0
M  V30 21 C -0.8525 -2.7339 -1.9218 0
M  V30 22 C 1.1785 -3.691 1.9887 0
M  V30 23 C -2.1242 -3.1523 -2.6379 0
M  V30 24 H 0.0372 1.5988 -1.986 0
M  V30 25 H -2.4356 -0.2316 0.0972 0
M  V30 26 H -3.53 -0.1999 -1.2821 0
M  V30 27 H -0.4154 0.3113 0.7624 0
M  V30 28 H -1.6053 3.2677 -1.5242 0
M  V30 29 H -0.4509 3.386 -0.2166 0
M  V30 30 H -3.7919 2.2337 -1.1434 0
M  V30 31 H -4.1426 1.5345 0.4367 0
M  V30 32 H -1.9742 2.1497 1.1654 0
M  V30 33 H 0.5124 1.6023 2.5089 0
M  V30 34 H 2.4753 1.6424 -1.34 0
M  V30 35 H 2.882 -0.9519 0.9143 0
M  V30 36 H 2.2888 3.05 3.4162 0
M  V30 37 H 4.2404 3.0955 -0.4098 0
M  V30 38 H -0.733 -4.339 1.2316 0
M  V30 39 H 3.0785 -2.8234 2.5231 0
M  V30 40 H 4.153 3.8032 1.9656 0
M  V30 41 H -0.0976 -3.5214 -2.0426 0
M  V30 42 H -0.4802 -1.8065 -2.3672 0
M  V30 43 H 1.2617 -4.5088 2.6998 0
M  V30 44 H -1.9357 -3.3166 -3.7025 0
M  V30 45 H -2.5251 -4.074 -2.2033 0
M  V30 46 H -2.8988 -2.3861 -2.5308 0
M  V30 END ATOM
M  V30 BEGIN BOND
M  V30 1 1 1 2
M  V30 2 1 1 3
M  V30 3 1 2 4
M  V30 4 1 2 5
M  V30 5 1 3 6
M  V30 6 1 4 7
M  V30 7 1 4 8
M  V30 8 1 5 9
M  V30 9 1 7 10
M  V30 10 2 8 11
M  V30 11 1 8 12
M  V30 12 2 10 13
M  V30 13 1 10 14
M  V30 14 1 11 15
M  V30 15 2 12 16
M  V30 16 1 13 17
M  V30 17 1 13 18
M  V30 18 2 14 19
M  V30 19 2 15 20
M  V30 20 1 17 21
M  V30 21 2 18 22
M  V30 22 1 21 23
M  V30 23 1 6 9
M  V30 24 1 16 20
M  V30 25 1 19 22
M  V30 26 1 2 24
M  V30 27 1 3 25
M  V30 28 1 3 26
M  V30 29 1 4 27
M  V30 30 1 5 28
M  V30 31 1 5 29
M  V30 32 1 6 30
M  V30 33 1 6 31
M  V30 34 1 9 32
M  V30 35 1 11 33
M  V30 36 1 12 34
M  V30 37 1 14 35
M  V30 38 1 15 36
M  V30 39 1 16 37
M  V30 40 1 18 38
M  V30 41 1 19 39
M  V30 42 1 20 40
M  V30 43 1 21 41
M  V30 44 1 21 42
M  V30 45 1 22 43
M  V30 46 1 23 44
M  V30 47 1 23 45
M  V30 48 1 23 46
M  V30 END BOND
M  V30 BEGIN COLLECTION
M  V30 MDLV30/STEABS ATOMS=(2 2 4)
M  V30 END COLLECTION
M  V30 END CTAB
M  END
>  <Column 1>
1497

>  <level_0>
1647

>  <index>
1647

>  <Unnamed: 0>
1647

>  <NO.>
1659

>  <Name>
reboxetine

>  <IUPAC_name>
(2s)-2-[(s)-(2-ethoxyphenoxy)-phenylmethyl]morpholine

>  <SMILES>
CCOc1ccccc1O[C@@H](c1ccccc1)[C@@H]1CNCCO1

>  <CID>
65856

>  <logBB>


>  <BBB+/BBB->
BBB+

>  <Inchi>
InChI=1S/C19H23NO3/c1-2-21-16-10-6-7-11-17(16)23-19(15-8-4-3-5-9-15)18-14-20-12-13-22-18/h3-11-18-20H-2-12-14H2-1H3/t18--19-/m0/s1

>  <threshold>
-1

>  <reference>
R1|R13|R27|R30|R37|

>  <group>
B

>  <Class>
1

>  <ABC>
17.56

>  <ABCGG>
14.37

>  <nAcid>
0

>  <nBase>
1

>  <nAromAtom>
12

>  <nAromBond>
12

>  <nAtom>
46

>  <nHeavyAtom>
23

>  <nSpiro>
0

>  <nBridgehead>
0

>  <nHetero>
4

>  <nN>
1

>  <nO>
3

>  <nF>
0

>  <BalabanJ>
1.65

>  <BertzCT>
596.57

>  <nBonds>
48

>  <nBondsO>
25

>  <nBondsS>
36

>  <nBondsD>
0

>  <nBondsT>
0

>  <nBondsA>
12

>  <nBondsM>
12

>  <nBondsKS>
42

>  <nBondsKD>
6

>  <RNCG>
0.23

>  <RPCG>
0.08

>  <FCSP3>
0.37

>  <SZ>
28

>  <Sm>
26.09

>  <Sv>
28.13

>  <Sse>
45.87

>  <Sp>
30.28

>  <Si>
51.69

>  <MZ>
0.61

>  <Mm>
0.57

>  <Mv>
0.61

>  <Mse>
1

>  <Mp>
0.66

>  <Mi>
1.12

>  <NsCH3>
1

>  <NdCH2>
0

>  <NssCH2>
4

>  <NtCH>
0

>  <NdsCH>
0

>  <NaaCH>
9

>  <NsssCH>
2

>  <NddC>
0

>  <NtsC>
0

>  <NdssC>
0

>  <NaasC>
3

>  <NaaaC>
0

>  <NssssC>
0

>  <NsNH3>
0

>  <NsNH2>
0

>  <NssNH2>
0

>  <NdNH>
0

>  <NssNH>
1

>  <NaaNH>
0

>  <NtN>
0

>  <NsssNH>
0

>  <NdsN>
0

>  <NaaN>
0

>  <NsssN>
0

>  <NddsN>
0

>  <NaasN>
0

>  <NssssN>
0

>  <NsOH>
0

>  <NdO>
0

>  <NssO>
3

>  <NaaO>
0

>  <NsF>
0

>  <NsSiH3>
0

>  <NssSiH2>
0

>  <NsssSiH>
0

>  <NssssSi>
0

>  <NsPH2>
0

>  <NssPH>
0

>  <NsssP>
0

>  <NdsssP>
0

>  <NsssssP>
0

>  <NsSH>
0

>  <NdS>
0

>  <NssS>
0

>  <NaaS>
0

>  <NdssS>
0

>  <NddssS>
0

>  <NsCl>
0

>  <NsBr>
0

>  <NsI>
0

>  <fragCpx>
119.04

>  <fMF>
0.43

>  <nHBAcc>
4

>  <nHBDon>
1

>  <Kier1>
17.81

>  <Kier2>
9.47

>  <Lipinski>
1

>  <GhoseFilter>
1

>  <FilterItLogS>
-4.53

>  <VMcGowan>
247.78

>  <LabuteASA>
136.93

>  <PEOE_VSA1>
19.53

>  <PEOE_VSA2>
0

>  <PEOE_VSA3>
0

>  <PEOE_VSA4>
0

>  <PEOE_VSA5>
0

>  <PEOE_VSA6>
42.46

>  <PEOE_VSA7>
24.62

>  <PEOE_VSA8>
13.09

>  <PEOE_VSA9>
13.21

>  <PEOE_VSA10>
6.1

>  <PEOE_VSA11>
17.6

>  <PEOE_VSA12>
0

>  <PEOE_VSA13>
0

>  <SMR_VSA1>
14.21

>  <SMR_VSA2>
0

>  <SMR_VSA3>
5.32

>  <SMR_VSA4>
0

>  <SMR_VSA5>
19.13

>  <SMR_VSA6>
26.3

>  <SMR_VSA7>
60.16

>  <SMR_VSA8>
0

>  <SMR_VSA9>
11.5

>  <SlogP_VSA1>
14.79

>  <SlogP_VSA2>
32.41

>  <SlogP_VSA3>
4.74

>  <SlogP_VSA4>
0

>  <SlogP_VSA5>
18.59

>  <SlogP_VSA6>
54.6

>  <SlogP_VSA7>
0

>  <SlogP_VSA8>
0

>  <SlogP_VSA9>
0

>  <SlogP_VSA10>
0

>  <SlogP_VSA11>
11.5

>  <EState_VSA1>
0

>  <EState_VSA2>
12.21

>  <EState_VSA3>
13.21

>  <EState_VSA4>
30.15

>  <EState_VSA5>
0

>  <EState_VSA6>
0

>  <EState_VSA7>
49.39

>  <EState_VSA8>
17.45

>  <EState_VSA9>
14.21

>  <EState_VSA10>
0

>  <VSA_EState1>
17.95

>  <VSA_EState2>
0

>  <VSA_EState3>
3.37

>  <VSA_EState4>
1.1

>  <VSA_EState5>
1.51

>  <VSA_EState6>
17.99

>  <VSA_EState7>
-0.2

>  <VSA_EState8>
4.94

>  <VSA_EState9>
0

>  <apol>
50.57

>  <bpol>
28.85

>  <nRing>
3

>  <nHRing>
1

>  <naRing>
2

>  <naHRing>
0

>  <nARing 2>
1

>  <nAHRing 2>
1

>  <nFRing>
0

>  <nFHRing>
0

>  <nFaRing>
0

>  <nFaHRing>
0

>  <nFARing 2>
0

>  <nFAHRing 2>
0

>  <nRot>
6

>  <SLogP>
3.19

>  <SMR>
90.03

>  <TopoPSA(NO)>
39.72

>  <TopoPSA>
39.72

>  <JGI1>
0.1

>  <JGI2>
0.06

>  <JGI3>
0.03

>  <JGI4>
0.03

>  <JGI5>
0.02

>  <Diameter>
10

>  <Radius>
5

>  <TMWC10>
121.26

>  <TSRW10>
56.87

>  <MW>
313.17

>  <AMW>
6.81

>  <WPath>
1166

>  <WPol>
33

>  <Zagreb1>
114

>  <Zagreb2>
131

>  <mZagreb2>
5.33

>  <yes>


>  <nAR-cont>
0.816016

>  <nHA-cont>
0.967789328

>  <MWHBN>
0.282539992

>  <MWHBN-cont>
0.889571092

>  <TPSA-cont>
0.722729735

>  <pka_cont>
0.97

>  <yes.1>


>  <BBB_SCORE>
5.048621437

>  <MMFF94 Energy>
149.2

$$$$
Compound 1265
Actelion Java MolfileCreator 2.0

  0  0  0  0  0  0              0 V3000
M  V30 BEGIN CTAB
M  V30 COUNTS 29 28 0 0 0
M  V30 BEGIN ATOM
M  V30 1 S -0.8182 -0.8182 1.3094 0
M  V30 2 O 0.0307 -1.825 1.9152 0
M  V30 3 O -1.5411 0.1431 2.1229 0
M  V30 4 C 0.1224 0.0888 0.0298 0
M  V30 5 C -2.0755 -1.7275 0.415 0
M  V30 6 S 1.6635 0.6657 0.8232 0
M  V30 7 C -0.7172 1.2731 -0.4655 0
M  V30 8 C 0.4526 -0.8577 -1.1334 0
M  V30 9 C -3.0263 -2.4404 1.3597 0
M  V30 10 O 1.3618 1.1733 2.1482 0
M  V30 11 O 2.6878 -0.3493 0.6501 0
M  V30 12 C 2.2413 2.1022 -0.0725 0
M  V30 13 C 2.7298 1.8359 -1.4792 0
M  V30 14 H -1.5751 -2.463 -0.2197 0
M  V30 15 H -2.6303 -1.0227 -0.2081 0
M  V30 16 H -1.7023 0.9505 -0.8169 0
M  V30 17 H -0.8789 2.0108 0.328 0
M  V30 18 H -0.2392 1.7893 -1.3026 0
M  V30 19 H 0.9073 -1.7886 -0.7772 0
M  V30 20 H 1.1505 -0.4113 -1.8443 0
M  V30 21 H -0.4448 -1.1255 -1.7004 0
M  V30 22 H -3.7744 -3.0024 0.7922 0
M  V30 23 H -2.4891 -3.1423 2.0055 0
M  V30 24 H -3.5526 -1.7287 2.0038 0
M  V30 25 H 3.0772 2.4926 0.5203 0
M  V30 26 H 1.4579 2.8643 -0.0551 0
M  V30 27 H 3.22 2.7299 -1.8785 0
M  V30 28 H 3.4518 1.0146 -1.5096 0
M  V30 29 H 1.9065 1.5939 -2.1541 0
M  V30 END ATOM
M  V30 BEGIN BOND
M  V30 1 2 1 2
M  V30 2 2 1 3
M  V30 3 1 1 4
M  V30 4 1 1 5
M  V30 5 1 4 6
M  V30 6 1 4 7
M  V30 7 1 4 8
M  V30 8 1 5 9
M  V30 9 2 6 10
M  V30 10 2 6 11
M  V30 11 1 6 12
M  V30 12 1 12 13
M  V30 13 1 5 14
M  V30 14 1 5 15
M  V30 15 1 7 16
M  V30 16 1 7 17
M  V30 17 1 7 18
M  V30 18 1 8 19
M  V30 19 1 8 20
M  V30 20 1 8 21
M  V30 21 1 9 22
M  V30 22 1 9 23
M  V30 23 1 9 24
M  V30 24 1 12 25
M  V30 25 1 12 26
M  V30 26 1 13 27
M  V30 27 1 13 28
M  V30 28 1 13 29
M  V30 END BOND
M  V30 END CTAB
M  END
>  <Column 1>
1498

>  <level_0>
1648

>  <index>
1648

>  <Unnamed: 0>
1648

>  <NO.>
1660

>  <Name>
sulfonmethane

>  <IUPAC_name>
2-2-bis(ethylsulfonyl)propane

>  <SMILES>
CCS(=O)(=O)C(C)(C)S(=O)(=O)CC

>  <CID>
8262

>  <logBB>


>  <BBB+/BBB->
BBB+

>  <Inchi>
InChI=1S/C7H16O4S2/c1-5-12(8-9)7(3-4)13(10-11)6-2/h5-6H2-1-4H3

>  <threshold>
-1

>  <reference>
R1|R13|R19|R6|R24|R27|R27|R27|R30|R30|

>  <group>
B

>  <Class>
1

>  <ABC>
9.25

>  <ABCGG>
10.12

>  <nAcid>
0

>  <nBase>
0

>  <nAromAtom>
0

>  <nAromBond>
0

>  <nAtom>
29

>  <nHeavyAtom>
13

>  <nSpiro>
0

>  <nBridgehead>
0

>  <nHetero>
6

>  <nN>
0

>  <nO>
4

>  <nF>
0

>  <BalabanJ>
4.95

>  <BertzCT>
325.3

>  <nBonds>
28

>  <nBondsO>
12

>  <nBondsS>
24

>  <nBondsD>
4

>  <nBondsT>
0

>  <nBondsA>
0

>  <nBondsM>
4

>  <nBondsKS>
24

>  <nBondsKD>
4

>  <RNCG>
0.21

>  <RPCG>
0.16

>  <FCSP3>
1

>  <SZ>
20.33

>  <Sm>
19.01

>  <Sv>
16.57

>  <Sse>
29.58

>  <Sp>
18.78

>  <Si>
33

>  <MZ>
0.7

>  <Mm>
0.66

>  <Mv>
0.57

>  <Mse>
1.02

>  <Mp>
0.65

>  <Mi>
1.14

>  <NsCH3>
4

>  <NdCH2>
0

>  <NssCH2>
2

>  <NtCH>
0

>  <NdsCH>
0

>  <NaaCH>
0

>  <NsssCH>
0

>  <NddC>
0

>  <NtsC>
0

>  <NdssC>
0

>  <NaasC>
0

>  <NaaaC>
0

>  <NssssC>
1

>  <NsNH3>
0

>  <NsNH2>
0

>  <NssNH2>
0

>  <NdNH>
0

>  <NssNH>
0

>  <NaaNH>
0

>  <NtN>
0

>  <NsssNH>
0

>  <NdsN>
0

>  <NaaN>
0

>  <NsssN>
0

>  <NddsN>
0

>  <NaasN>
0

>  <NssssN>
0

>  <NsOH>
0

>  <NdO>
4

>  <NssO>
0

>  <NaaO>
0

>  <NsF>
0

>  <NsSiH3>
0

>  <NssSiH2>
0

>  <NsssSiH>
0

>  <NssssSi>
0

>  <NsPH2>
0

>  <NssPH>
0

>  <NsssP>
0

>  <NdsssP>
0

>  <NsssssP>
0

>  <NsSH>
0

>  <NdS>
0

>  <NssS>
0

>  <NaaS>
0

>  <NdssS>
0

>  <NddssS>
2

>  <NsCl>
0

>  <NsBr>
0

>  <NsI>
0

>  <fragCpx>
12.06

>  <fMF>
0

>  <nHBAcc>
4

>  <nHBDon>
0

>  <Kier1>
13

>  <Kier2>
3.63

>  <Lipinski>
1

>  <GhoseFilter>
1

>  <FilterItLogS>
-2.15

>  <VMcGowan>
165.67

>  <LabuteASA>
80.18

>  <PEOE_VSA1>
0

>  <PEOE_VSA2>
0

>  <PEOE_VSA3>
16.84

>  <PEOE_VSA4>
0

>  <PEOE_VSA5>
0

>  <PEOE_VSA6>
13.85

>  <PEOE_VSA7>
13.85

>  <PEOE_VSA8>
11.51

>  <PEOE_VSA9>
0

>  <PEOE_VSA10>
0

>  <PEOE_VSA11>
23.75

>  <PEOE_VSA12>
0

>  <PEOE_VSA13>
0

>  <SMR_VSA1>
16.84

>  <SMR_VSA2>
0

>  <SMR_VSA3>
0

>  <SMR_VSA4>
0

>  <SMR_VSA5>
31.77

>  <SMR_VSA6>
11.51

>  <SMR_VSA7>
0

>  <SMR_VSA8>
0

>  <SMR_VSA9>
0

>  <SlogP_VSA1>
0

>  <SlogP_VSA2>
32.42

>  <SlogP_VSA3>
19.67

>  <SlogP_VSA4>
0

>  <SlogP_VSA5>
27.69

>  <SlogP_VSA6>
0

>  <SlogP_VSA7>
0

>  <SlogP_VSA8>
0

>  <SlogP_VSA9>
0

>  <SlogP_VSA10>
0

>  <SlogP_VSA11>
0

>  <EState_VSA1>
23.75

>  <EState_VSA2>
11.51

>  <EState_VSA3>
0

>  <EState_VSA4>
0

>  <EState_VSA5>
27.69

>  <EState_VSA6>
0

>  <EState_VSA7>
0

>  <EState_VSA8>
0

>  <EState_VSA9>
0

>  <EState_VSA10>
16.84

>  <VSA_EState1>
44.13

>  <VSA_EState2>
0

>  <VSA_EState3>
0

>  <VSA_EState4>
0

>  <VSA_EState5>
-0.31

>  <VSA_EState6>
0

>  <VSA_EState7>
0

>  <VSA_EState8>
5.37

>  <VSA_EState9>
-7.11

>  <apol>
31.37

>  <bpol>
29.36

>  <nRing>
0

>  <nHRing>
0

>  <naRing>
0

>  <naHRing>
0

>  <nARing 2>
0

>  <nAHRing 2>
0

>  <nFRing>
0

>  <nFHRing>
0

>  <nFaRing>
0

>  <nFaHRing>
0

>  <nFARing 2>
0

>  <nFAHRing 2>
0

>  <nRot>
4

>  <SLogP>
0.59

>  <SMR>
53

>  <TopoPSA(NO)>
68.28

>  <TopoPSA>
85.04

>  <JGI1>
0.5

>  <JGI2>
0.21

>  <JGI3>
0.07

>  <JGI4>
0.03

>  <JGI5>
0.01

>  <Diameter>
6

>  <Radius>
3

>  <TMWC10>
94.86

>  <TSRW10>
45.08

>  <MW>
228.05

>  <AMW>
7.86

>  <WPath>
220

>  <WPol>
24

>  <Zagreb1>
64

>  <Zagreb2>
76

>  <mZagreb2>
2.88

>  <yes>


>  <nAR-cont>
0.336376

>  <nHA-cont>
0.841215992

>  <MWHBN>
0.264877429

>  <MWHBN-cont>
0.931379718

>  <TPSA-cont>
0.406367993

>  <pka_cont>
0.97

>  <yes.1>


>  <BBB_SCORE>
3.872397555

>  <MMFF94 Energy>
-40.206

$$$$
Compound 1266
Actelion Java MolfileCreator 2.0

  0  0  0  0  0  0              0 V3000
M  V30 BEGIN CTAB
M  V30 COUNTS 45 47 0 0 0
M  V30 BEGIN ATOM
M  V30 1 Cl 2.1378 0.4108 -4.6912 0
M  V30 2 C 1.9422 0.6435 -2.999 0
M  V30 3 C 1.7163 -0.4504 -2.1701 0
M  V30 4 C 2.0294 1.9225 -2.4639 0
M  V30 5 C 1.5511 -0.2672 -0.7849 0
M  V30 6 C 1.877 2.1109 -1.0878 0
M  V30 7 C 1.3909 -1.4928 0.0534 0
M  V30 8 C 1.6155 1.0279 -0.2283 0
M  V30 9 N 2.0061 -1.6865 1.1704 0
M  V30 10 C 0.5041 -2.5843 -0.4382 0
M  V30 11 N 1.4504 1.2829 1.1675 0
M  V30 12 C 2.9294 -0.6645 1.6591 0
M  V30 13 C 0.9709 -3.9002 -0.4686 0
M  V30 14 C -0.7947 -2.3054 -0.8778 0
M  V30 15 C 2.1474 0.5484 2.139 0
M  V30 16 C 0.7104 2.4668 1.6305 0
M  V30 17 F 2.2283 -4.1998 -0.1111 0
M  V30 18 C 0.1545 -4.9321 -0.9272 0
M  V30 19 C -1.6152 -3.3403 -1.3351 0
M  V30 20 O 2.184 0.8913 3.3239 0
M  V30 21 C -0.6259 2.7686 0.9642 0
M  V30 22 C -1.1416 -4.6526 -1.3592 0
M  V30 23 S -1.9178 1.6782 1.513 0
M  V30 24 O -1.7033 0.3836 0.899 0
M  V30 25 O -2.0642 1.8317 2.9461 0
M  V30 26 C -3.3659 2.3913 0.7509 0
M  V30 27 C -4.6161 1.5969 1.0718 0
M  V30 28 H 1.6972 -1.4472 -2.6045 0
M  V30 29 H 2.2303 2.776 -3.1073 0
M  V30 30 H 1.988 3.1202 -0.6988 0
M  V30 31 H 3.4762 -1.0766 2.5145 0
M  V30 32 H 3.6826 -0.3809 0.9156 0
M  V30 33 H -1.1869 -1.2935 -0.8466 0
M  V30 34 H 1.3826 3.3228 1.4898 0
M  V30 35 H 0.5528 2.4015 2.7132 0
M  V30 36 H 0.5382 -5.9474 -0.9449 0
M  V30 37 H -2.6298 -3.1224 -1.6609 0
M  V30 38 H -0.5926 2.7166 -0.1257 0
M  V30 39 H -0.9423 3.7781 1.2497 0
M  V30 40 H -1.7832 -5.4572 -1.7102 0
M  V30 41 H -3.1932 2.4105 -0.3292 0
M  V30 42 H -3.461 3.4173 1.1182 0
M  V30 43 H -5.4893 2.053 0.5954 0
M  V30 44 H -4.5313 0.566 0.7138 0
M  V30 45 H -4.7951 1.5619 2.1512 0
M  V30 END ATOM
M  V30 BEGIN BOND
M  V30 1 1 1 2
M  V30 2 2 2 3
M  V30 3 1 2 4
M  V30 4 1 3 5
M  V30 5 2 4 6
M  V30 6 1 5 7
M  V30 7 2 5 8
M  V30 8 2 7 9
M  V30 9 1 7 10
M  V30 10 1 8 11
M  V30 11 1 9 12
M  V30 12 2 10 13
M  V30 13 1 10 14
M  V30 14 1 11 15
M  V30 15 1 11 16
M  V30 16 1 13 17
M  V30 17 1 13 18
M  V30 18 2 14 19
M  V30 19 2 15 20
M  V30 20 1 16 21
M  V30 21 2 18 22
M  V30 22 1 21 23
M  V30 23 2 23 24
M  V30 24 2 23 25
M  V30 25 1 23 26
M  V30 26 1 26 27
M  V30 27 1 6 8
M  V30 28 1 12 15
M  V30 29 1 19 22
M  V30 30 1 3 28
M  V30 31 1 4 29
M  V30 32 1 6 30
M  V30 33 1 12 31
M  V30 34 1 12 32
M  V30 35 1 14 33
M  V30 36 1 16 34
M  V30 37 1 16 35
M  V30 38 1 18 36
M  V30 39 1 19 37
M  V30 40 1 21 38
M  V30 41 1 21 39
M  V30 42 1 22 40
M  V30 43 1 26 41
M  V30 44 1 26 42
M  V30 45 1 27 43
M  V30 46 1 27 44
M  V30 47 1 27 45
M  V30 END BOND
M  V30 END CTAB
M  END
>  <Column 1>
1499

>  <level_0>
1649

>  <index>
1649

>  <Unnamed: 0>
1649

>  <NO.>
1661

>  <Name>
elfazepam

>  <IUPAC_name>
7-chloro-1-(2-ethylsulfonylethyl)-5-(2-fluorophenyl)-3h-1-4-benzodiazepin-2-one

>  <SMILES>
CCS(=O)(=O)CCN1C(=O)CN=C(c2ccccc2F)c2cc(Cl)ccc21

>  <CID>
65445

>  <logBB>


>  <BBB+/BBB->
BBB+

>  <Inchi>
InChI=1S/C19H18ClFN2O3S/c1-2-27(25-26)10-9-23-17-8-7-13(20)11-15(17)19(22-12-18(23)24)14-5-3-4-6-16(14)21/h3-8-11H-2-9-10-12H2-1H3

>  <threshold>
-1

>  <reference>
R1|R13|R19|R6|R24|R27|R27|R27|R30|R30|

>  <group>
B

>  <Class>
1

>  <ABC>
20.91

>  <ABCGG>
17.23

>  <nAcid>
0

>  <nBase>
0

>  <nAromAtom>
12

>  <nAromBond>
12

>  <nAtom>
45

>  <nHeavyAtom>
27

>  <nSpiro>
0

>  <nBridgehead>
0

>  <nHetero>
8

>  <nN>
2

>  <nO>
3

>  <nF>
1

>  <BalabanJ>
1.8

>  <BertzCT>
1021.36

>  <nBonds>
47

>  <nBondsO>
29

>  <nBondsS>
31

>  <nBondsD>
4

>  <nBondsT>
0

>  <nBondsA>
12

>  <nBondsM>
16

>  <nBondsKS>
37

>  <nBondsKD>
10

>  <RNCG>
0.16

>  <RPCG>
0.13

>  <FCSP3>
0.26

>  <SZ>
35.33

>  <Sm>
34.04

>  <Sv>
30.46

>  <Sse>
46.11

>  <Sp>
32.32

>  <Si>
50.57

>  <MZ>
0.79

>  <Mm>
0.76

>  <Mv>
0.68

>  <Mse>
1.02

>  <Mp>
0.72

>  <Mi>
1.12

>  <NsCH3>
1

>  <NdCH2>
0

>  <NssCH2>
4

>  <NtCH>
0

>  <NdsCH>
0

>  <NaaCH>
7

>  <NsssCH>
0

>  <NddC>
0

>  <NtsC>
0

>  <NdssC>
2

>  <NaasC>
5

>  <NaaaC>
0

>  <NssssC>
0

>  <NsNH3>
0

>  <NsNH2>
0

>  <NssNH2>
0

>  <NdNH>
0

>  <NssNH>
0

>  <NaaNH>
0

>  <NtN>
0

>  <NsssNH>
0

>  <NdsN>
1

>  <NaaN>
0

>  <NsssN>
1

>  <NddsN>
0

>  <NaasN>
0

>  <NssssN>
0

>  <NsOH>
0

>  <NdO>
3

>  <NssO>
0

>  <NaaO>
0

>  <NsF>
1

>  <NsSiH3>
0

>  <NssSiH2>
0

>  <NsssSiH>
0

>  <NssssSi>
0

>  <NsPH2>
0

>  <NssPH>
0

>  <NsssP>
0

>  <NdsssP>
0

>  <NsssssP>
0

>  <NsSH>
0

>  <NdS>
0

>  <NssS>
0

>  <NaaS>
0

>  <NdssS>
0

>  <NddssS>
1

>  <NsCl>
1

>  <NsBr>
0

>  <NsI>
0

>  <fragCpx>
139.08

>  <fMF>
0.38

>  <nHBAcc>
4

>  <nHBDon>
0

>  <Kier1>
21.7

>  <Kier2>
9.21

>  <Lipinski>
1

>  <GhoseFilter>
1

>  <FilterItLogS>
-6.28

>  <VMcGowan>
279.51

>  <LabuteASA>
161.95

>  <PEOE_VSA1>
4.9

>  <PEOE_VSA2>
9.79

>  <PEOE_VSA3>
12.81

>  <PEOE_VSA4>
0

>  <PEOE_VSA5>
0

>  <PEOE_VSA6>
30.66

>  <PEOE_VSA7>
30.33

>  <PEOE_VSA8>
28.45

>  <PEOE_VSA9>
17.15

>  <PEOE_VSA10>
12.36

>  <PEOE_VSA11>
9.84

>  <PEOE_VSA12>
5.91

>  <PEOE_VSA13>
0

>  <SMR_VSA1>
17.6

>  <SMR_VSA2>
0

>  <SMR_VSA3>
0

>  <SMR_VSA4>
4.99

>  <SMR_VSA5>
6.92

>  <SMR_VSA6>
29.5

>  <SMR_VSA7>
64.43

>  <SMR_VSA8>
0

>  <SMR_VSA9>
0

>  <SlogP_VSA1>
4.9

>  <SlogP_VSA2>
44.63

>  <SlogP_VSA3>
14.63

>  <SlogP_VSA4>
5.82

>  <SlogP_VSA5>
18.05

>  <SlogP_VSA6>
47.46

>  <SlogP_VSA7>
5.02

>  <SlogP_VSA8>
0

>  <SlogP_VSA9>
0

>  <SlogP_VSA10>
10.08

>  <SlogP_VSA11>
0

>  <EState_VSA1>
15.65

>  <EState_VSA2>
36.07

>  <EState_VSA3>
21.99

>  <EState_VSA4>
0

>  <EState_VSA5>
10.97

>  <EState_VSA6>
43.32

>  <EState_VSA7>
0

>  <EState_VSA8>
4.99

>  <EState_VSA9>
11.6

>  <EState_VSA10>
17.6

>  <VSA_EState1>
38.14

>  <VSA_EState2>
18.32

>  <VSA_EState3>
0.41

>  <VSA_EState4>
1.54

>  <VSA_EState5>
-0.97

>  <VSA_EState6>
11.02

>  <VSA_EState7>
0

>  <VSA_EState8>
1.36

>  <VSA_EState9>
-3.25

>  <apol>
53.98

>  <bpol>
30.05

>  <nRing>
3

>  <nHRing>
1

>  <naRing>
2

>  <naHRing>
0

>  <nARing 2>
1

>  <nAHRing 2>
1

>  <nFRing>
1

>  <nFHRing>
1

>  <nFaRing>
0

>  <nFaHRing>
0

>  <nFARing 2>
1

>  <nFAHRing 2>
1

>  <nRot>
5

>  <SLogP>
3.1

>  <SMR>
105.04

>  <TopoPSA(NO)>
66.81

>  <TopoPSA>
75.19

>  <JGI1>
0.22

>  <JGI2>
0.1

>  <JGI3>
0.05

>  <JGI4>
0.04

>  <JGI5>
0.03

>  <Diameter>
12

>  <Radius>
6

>  <TMWC10>
132.49

>  <TSRW10>
70.37

>  <MW>
408.07

>  <AMW>
9.07

>  <WPath>
1723

>  <WPol>
48

>  <Zagreb1>
142

>  <Zagreb2>
167

>  <mZagreb2>
5.92

>  <yes>


>  <nAR-cont>
0.816016

>  <nHA-cont>
0.860070871

>  <MWHBN>
0.198012523

>  <MWHBN-cont>
0.999175249

>  <TPSA-cont>
0.47512711

>  <pka_cont>
0.97

>  <yes.1>


>  <BBB_SCORE>
4.610103964

>  <MMFF94 Energy>
98.691

$$$$
Compound 1267
Actelion Java MolfileCreator 2.0

  0  0  0  0  0  0              0 V3000
M  V30 BEGIN CTAB
M  V30 COUNTS 21 21 0 0 0
M  V30 BEGIN ATOM
M  V30 1 S 1.6384 0.4094 -0.6551 0
M  V30 2 O 1.5583 1.5764 -1.513 0
M  V30 3 O 2.8178 0.1715 0.1559 0
M  V30 4 C 0.2544 0.4629 0.4624 0
M  V30 5 C 1.3555 -1.0412 -1.6481 0
M  V30 6 C -0.7896 1.3671 0.2363 0
M  V30 7 C 0.2493 -0.3761 1.583 0
M  V30 8 C 0.0907 -0.9697 -2.4785 0
M  V30 9 C -1.8626 1.4083 1.1273 0
M  V30 10 C -0.8277 -0.3271 2.4684 0
M  V30 11 C -1.8736 0.5606 2.2315 0
M  V30 12 F -2.9055 0.6038 3.0839 0
M  V30 13 H 1.3356 -1.9061 -0.978 0
M  V30 14 H 2.2274 -1.1411 -2.3028 0
M  V30 15 H -0.7741 2.0396 -0.6188 0
M  V30 16 H 1.0776 -1.0538 1.7784 0
M  V30 17 H 0.0011 -1.8619 -3.1058 0
M  V30 18 H -0.8009 -0.9145 -1.8474 0
M  V30 19 H 0.0939 -0.0933 -3.134 0
M  V30 20 H -2.6858 2.0996 0.9736 0
M  V30 21 H -0.8558 -0.966 3.346 0
M  V30 END ATOM
M  V30 BEGIN BOND
M  V30 1 2 1 2
M  V30 2 2 1 3
M  V30 3 1 1 4
M  V30 4 1 1 5
M  V30 5 2 4 6
M  V30 6 1 4 7
M  V30 7 1 5 8
M  V30 8 1 6 9
M  V30 9 2 7 10
M  V30 10 2 9 11
M  V30 11 1 11 12
M  V30 12 1 10 11
M  V30 13 1 5 13
M  V30 14 1 5 14
M  V30 15 1 6 15
M  V30 16 1 7 16
M  V30 17 1 8 17
M  V30 18 1 8 18
M  V30 19 1 8 19
M  V30 20 1 9 20
M  V30 21 1 10 21
M  V30 END BOND
M  V30 END CTAB
M  END
>  <Column 1>
1500

>  <level_0>
1650

>  <index>
1650

>  <Unnamed: 0>
1650

>  <NO.>
1662

>  <Name>
fluoresone

>  <IUPAC_name>
1-ethylsulfonyl-4-fluorobenzene

>  <SMILES>
CCS(=O)(=O)c1ccc(F)cc1

>  <CID>
71814

>  <logBB>


>  <BBB+/BBB->
BBB+

>  <Inchi>
InChI=1S/C8H9FO2S/c1-2-12(10-11)8-5-3-7(9)4-6-8/h3-6H-2H2-1H3

>  <threshold>
-1

>  <reference>
R1|R13|R19|R6|R24|R27|R27|R27|R30|R30|

>  <group>
B

>  <Class>
1

>  <ABC>
8.85

>  <ABCGG>
8.41

>  <nAcid>
0

>  <nBase>
0

>  <nAromAtom>
6

>  <nAromBond>
6

>  <nAtom>
21

>  <nHeavyAtom>
12

>  <nSpiro>
0

>  <nBridgehead>
0

>  <nHetero>
4

>  <nN>
0

>  <nO>
2

>  <nF>
1

>  <BalabanJ>
2.44

>  <BertzCT>
353.15

>  <nBonds>
21

>  <nBondsO>
12

>  <nBondsS>
13

>  <nBondsD>
2

>  <nBondsT>
0

>  <nBondsA>
6

>  <nBondsM>
8

>  <nBondsKS>
16

>  <nBondsKD>
5

>  <RNCG>
0.27

>  <RPCG>
0.21

>  <FCSP3>
0.25

>  <SZ>
16.33

>  <Sm>
15.67

>  <Sv>
13.7

>  <Sse>
21.69

>  <Sp>
14.62

>  <Si>
23.75

>  <MZ>
0.78

>  <Mm>
0.75

>  <Mv>
0.65

>  <Mse>
1.03

>  <Mp>
0.7

>  <Mi>
1.13

>  <NsCH3>
1

>  <NdCH2>
0

>  <NssCH2>
1

>  <NtCH>
0

>  <NdsCH>
0

>  <NaaCH>
4

>  <NsssCH>
0

>  <NddC>
0

>  <NtsC>
0

>  <NdssC>
0

>  <NaasC>
2

>  <NaaaC>
0

>  <NssssC>
0

>  <NsNH3>
0

>  <NsNH2>
0

>  <NssNH2>
0

>  <NdNH>
0

>  <NssNH>
0

>  <NaaNH>
0

>  <NtN>
0

>  <NsssNH>
0

>  <NdsN>
0

>  <NaaN>
0

>  <NsssN>
0

>  <NddsN>
0

>  <NaasN>
0

>  <NssssN>
0

>  <NsOH>
0

>  <NdO>
2

>  <NssO>
0

>  <NaaO>
0

>  <NsF>
1

>  <NsSiH3>
0

>  <NssSiH2>
0

>  <NsssSiH>
0

>  <NssssSi>
0

>  <NsPH2>
0

>  <NssPH>
0

>  <NsssP>
0

>  <NdsssP>
0

>  <NsssssP>
0

>  <NsSH>
0

>  <NdS>
0

>  <NssS>
0

>  <NaaS>
0

>  <NdssS>
0

>  <NddssS>
1

>  <NsCl>
0

>  <NsBr>
0

>  <NsI>
0

>  <fragCpx>
12.04

>  <fMF>
0.29

>  <nHBAcc>
2

>  <nHBDon>
0

>  <Kier1>
10.08

>  <Kier2>
3.81

>  <Lipinski>
1

>  <GhoseFilter>
1

>  <FilterItLogS>
-2.79

>  <VMcGowan>
129.67

>  <LabuteASA>
70.95

>  <PEOE_VSA1>
0

>  <PEOE_VSA2>
0

>  <PEOE_VSA3>
12.81

>  <PEOE_VSA4>
0

>  <PEOE_VSA5>
0

>  <PEOE_VSA6>
6.92

>  <PEOE_VSA7>
24.27

>  <PEOE_VSA8>
0

>  <PEOE_VSA9>
10.65

>  <PEOE_VSA10>
5.82

>  <PEOE_VSA11>
9.84

>  <PEOE_VSA12>
0

>  <PEOE_VSA13>
0

>  <SMR_VSA1>
12.81

>  <SMR_VSA2>
0

>  <SMR_VSA3>
0

>  <SMR_VSA4>
0

>  <SMR_VSA5>
11.82

>  <SMR_VSA6>
5.75

>  <SMR_VSA7>
30.08

>  <SMR_VSA8>
0

>  <SMR_VSA9>
0

>  <SlogP_VSA1>
0

>  <SlogP_VSA2>
14.17

>  <SlogP_VSA3>
9.84

>  <SlogP_VSA4>
5.82

>  <SlogP_VSA5>
6.92

>  <SlogP_VSA6>
29.16

>  <SlogP_VSA7>
0

>  <SlogP_VSA8>
0

>  <SlogP_VSA9>
0

>  <SlogP_VSA10>
4.39

>  <SlogP_VSA11>
0

>  <EState_VSA1>
15.65

>  <EState_VSA2>
10.65

>  <EState_VSA3>
0

>  <EState_VSA4>
12.13

>  <EState_VSA5>
12.13

>  <EState_VSA6>
6.92

>  <EState_VSA7>
0

>  <EState_VSA8>
0

>  <EState_VSA9>
0

>  <EState_VSA10>
12.81

>  <VSA_EState1>
34.76

>  <VSA_EState2>
0.17

>  <VSA_EState3>
0

>  <VSA_EState4>
0

>  <VSA_EState5>
-0.39

>  <VSA_EState6>
4.83

>  <VSA_EState7>
0

>  <VSA_EState8>
1.55

>  <VSA_EState9>
-3.18

>  <apol>
24.42

>  <bpol>
16.8

>  <nRing>
1

>  <nHRing>
0

>  <naRing>
1

>  <naHRing>
0

>  <nARing 2>
0

>  <nAHRing 2>
0

>  <nFRing>
0

>  <nFHRing>
0

>  <nFaRing>
0

>  <nFaHRing>
0

>  <nFARing 2>
0

>  <nFAHRing 2>
0

>  <nRot>
2

>  <SLogP>
1.62

>  <SMR>
44.13

>  <TopoPSA(NO)>
34.14

>  <TopoPSA>
42.52

>  <JGI1>
0.33

>  <JGI2>
0.13

>  <JGI3>
0.05

>  <JGI4>
0.04

>  <JGI5>
0.06

>  <Diameter>
7

>  <Radius>
4

>  <TMWC10>
90.77

>  <TSRW10>
42.76

>  <MW>
188.03

>  <AMW>
8.95

>  <WPath>
195

>  <WPol>
16

>  <Zagreb1>
58

>  <Zagreb2>
65

>  <mZagreb2>
2.71

>  <yes>


>  <nAR-cont>
0.336376

>  <nHA-cont>
0.785745021

>  <MWHBN>
0.145853355

>  <MWHBN-cont>
0.921281975

>  <TPSA-cont>
0.703183997

>  <pka_cont>
0.97

>  <yes.1>


>  <BBB_SCORE>
4.395411977

>  <MMFF94 Energy>
39.066

$$$$
Compound 1268
Actelion Java MolfileCreator 2.0

  0  0  0  0  0  0              0 V3000
M  V30 BEGIN CTAB
M  V30 COUNTS 62 64 0 0 0
M  V30 BEGIN ATOM
M  V30 1 O 0.7943 -3.1804 4.7736 0
M  V30 2 C -0.0449 -3.2634 3.8803 0
M  V30 3 O -0.3792 -2.1826 3.1419 0
M  V30 4 C -0.8546 -4.5204 3.6954 0
M  V30 5 C -0.9377 -2.3348 1.8239 0 CFG=1
M  V30 6 C -1.485 -4.6879 2.3287 0 CFG=1
M  V30 7 C -2.0473 -3.3752 1.821 0
M  V30 8 C -1.4733 -0.9667 1.3745 0
M  V30 9 O -0.529 -5.1791 1.3917 0
M  V30 10 C -0.3541 0.0817 1.2691 0
M  V30 11 C -0.8311 1.4398 0.6999 0 CFG=2
M  V30 12 C 0.3378 2.4591 0.5015 0 CFG=2
M  V30 13 C -1.9782 2.0895 1.5349 0 CFG=2
M  V30 14 C -0.1817 3.7528 -0.1307 0
M  V30 15 C 1.5454 1.8804 -0.2875 0 CFG=1
M  V30 16 C -2.3222 3.4639 1.0188 0
M  V30 17 C -1.6954 2.1901 3.0382 0
M  V30 18 C -1.5064 4.1982 0.2522 0
M  V30 19 C 0.537 4.4636 -1.0179 0
M  V30 20 O 1.0712 1.2484 -1.496 0
M  V30 21 C 2.5475 2.9874 -0.6304 0
M  V30 22 C 1.9109 4.0841 -1.479 0
M  V30 23 C 1.8627 0.2753 -2.0249 0
M  V30 24 O 2.9372 -0.0858 -1.5667 0
M  V30 25 C 1.2207 -0.2801 -3.2838 0 CFG=2
M  V30 26 C 1.6025 -1.7581 -3.4564 0
M  V30 27 C 1.6376 0.5862 -4.4678 0
M  V30 28 C 0.8367 -2.4501 -4.5745 0
M  V30 29 H -0.1974 -5.3714 3.9076 0
M  V30 30 H -1.6429 -4.4903 4.4571 0
M  V30 31 H -0.1242 -2.6333 1.1511 0
M  V30 32 H -2.2876 -5.4324 2.3798 0
M  V30 33 H -2.4411 -3.4954 0.8052 0
M  V30 34 H -2.8696 -3.0576 2.4739 0
M  V30 35 H -2.2258 -0.6284 2.0952 0
M  V30 36 H -1.9661 -1.0674 0.4001 0
M  V30 37 H -0.2609 -6.0733 1.6705 0
M  V30 38 H 0.1248 0.2312 2.2435 0
M  V30 39 H 0.4142 -0.3389 0.6123 0
M  V30 40 H -1.2508 1.2291 -0.2964 0
M  V30 41 H 0.7211 2.7349 1.4949 0
M  V30 42 H -2.8767 1.4729 1.4032 0
M  V30 43 H 2.0485 1.1389 0.3457 0
M  V30 44 H -3.2978 3.8642 1.2857 0
M  V30 45 H -0.7936 2.7748 3.2471 0
M  V30 46 H -2.5293 2.6754 3.5593 0
M  V30 47 H -1.5707 1.2034 3.4932 0
M  V30 48 H -1.845 5.1701 -0.1 0
M  V30 49 H 0.1248 5.3672 -1.4621 0
M  V30 50 H 2.9366 3.4225 0.299 0
M  V30 51 H 3.4059 2.5788 -1.1755 0
M  V30 52 H 1.8472 3.7585 -2.5241 0
M  V30 53 H 2.5572 4.9691 -1.4608 0
M  V30 54 H 0.1318 -0.2235 -3.1547 0
M  V30 55 H 2.679 -1.8534 -3.6456 0
M  V30 56 H 1.4057 -2.2941 -2.5189 0
M  V30 57 H 1.1096 0.2956 -5.3807 0
M  V30 58 H 2.7144 0.5101 -4.6543 0
M  V30 59 H 1.413 1.6419 -4.2786 0
M  V30 60 H 1.0878 -3.5154 -4.5974 0
M  V30 61 H -0.2438 -2.3607 -4.4247 0
M  V30 62 H 1.0874 -2.0297 -5.5526 0
M  V30 END ATOM
M  V30 BEGIN BOND
M  V30 1 2 1 2
M  V30 2 1 2 3
M  V30 3 1 2 4
M  V30 4 1 3 5
M  V30 5 1 4 6
M  V30 6 1 5 7
M  V30 7 1 5 8
M  V30 8 1 6 9
M  V30 9 1 8 10
M  V30 10 1 10 11
M  V30 11 1 11 12
M  V30 12 1 11 13
M  V30 13 1 12 14
M  V30 14 1 12 15
M  V30 15 1 13 16
M  V30 16 1 13 17
M  V30 17 1 14 18
M  V30 18 2 14 19
M  V30 19 1 15 20
M  V30 20 1 15 21
M  V30 21 1 19 22
M  V30 22 1 20 23
M  V30 23 2 23 24
M  V30 24 1 23 25
M  V30 25 1 25 26
M  V30 26 1 25 27
M  V30 27 1 26 28
M  V30 28 1 6 7
M  V30 29 2 16 18
M  V30 30 1 21 22
M  V30 31 1 4 29
M  V30 32 1 4 30
M  V30 33 1 5 31
M  V30 34 1 6 32
M  V30 35 1 7 33
M  V30 36 1 7 34
M  V30 37 1 8 35
M  V30 38 1 8 36
M  V30 39 1 9 37
M  V30 40 1 10 38
M  V30 41 1 10 39
M  V30 42 1 11 40
M  V30 43 1 12 41
M  V30 44 1 13 42
M  V30 45 1 15 43
M  V30 46 1 16 44
M  V30 47 1 17 45
M  V30 48 1 17 46
M  V30 49 1 17 47
M  V30 50 1 18 48
M  V30 51 1 19 49
M  V30 52 1 21 50
M  V30 53 1 21 51
M  V30 54 1 22 52
M  V30 55 1 22 53
M  V30 56 1 25 54
M  V30 57 1 26 55
M  V30 58 1 26 56
M  V30 59 1 27 57
M  V30 60 1 27 58
M  V30 61 1 27 59
M  V30 62 1 28 60
M  V30 63 1 28 61
M  V30 64 1 28 62
M  V30 END BOND
M  V30 BEGIN COLLECTION
M  V30 MDLV30/STEABS ATOMS=(7 5 6 11 12 13 15 25)
M  V30 END COLLECTION
M  V30 END CTAB
M  END
>  <Column 1>
1506

>  <level_0>
1657

>  <index>
1657

>  <Unnamed: 0>
1657

>  <NO.>
1669

>  <Name>
mevastatin

>  <IUPAC_name>
[(1s-7s-8s-8ar)-8-[2-[(2r-4r)-4-hydroxy-6-oxooxan-2-yl]ethyl]-7-methyl-1-2-3-7-8-8a-hexahydronaphthalen-1-yl] (2s)-2-methylbutanoate

>  <SMILES>
CC[C@H](C)C(=O)O[C@H]1CCC=C2C=C[C@H](C)[C@H](CC[C@@H]3C[C@@H](O)CC(=O)O3)[C@H]21

>  <CID>
64715

>  <logBB>


>  <BBB+/BBB->
BBB+

>  <Inchi>
InChI=1S/C23H34O5/c1-4-14(2)23(26)28-20-7-5-6-16-9-8-15(3)19(22(16)20)11-10-18-12-17(24)13-21(25)27-18/h6-8-9-14-15-17-20-22-24H-4-5-7-10-13H2-1-3H3/t14--15--17+-18+-19--20--22-/m0/s1

>  <threshold>
-1

>  <reference>
R1|R6|R27|R30|

>  <group>
B

>  <Class>
-1

>  <ABC>
21.56

>  <ABCGG>
17.32

>  <nAcid>
0

>  <nBase>
0

>  <nAromAtom>
0

>  <nAromBond>
0

>  <nAtom>
62

>  <nHeavyAtom>
28

>  <nSpiro>
0

>  <nBridgehead>
0

>  <nHetero>
5

>  <nN>
0

>  <nO>
5

>  <nF>
0

>  <BalabanJ>
1.65

>  <BertzCT>
636.9

>  <nBonds>
64

>  <nBondsO>
30

>  <nBondsS>
60

>  <nBondsD>
4

>  <nBondsT>
0

>  <nBondsA>
0

>  <nBondsM>
4

>  <nBondsKS>
60

>  <nBondsKD>
4

>  <RNCG>
0.19

>  <RPCG>
0.13

>  <FCSP3>
0.74

>  <SZ>
35.33

>  <Sm>
32.51

>  <Sv>
35.79

>  <Sse>
61.75

>  <Sp>
38.98

>  <Si>
70.11

>  <MZ>
0.57

>  <Mm>
0.52

>  <Mv>
0.58

>  <Mse>
1

>  <Mp>
0.63

>  <Mi>
1.13

>  <NsCH3>
3

>  <NdCH2>
0

>  <NssCH2>
7

>  <NtCH>
0

>  <NdsCH>
3

>  <NaaCH>
0

>  <NsssCH>
7

>  <NddC>
0

>  <NtsC>
0

>  <NdssC>
3

>  <NaasC>
0

>  <NaaaC>
0

>  <NssssC>
0

>  <NsNH3>
0

>  <NsNH2>
0

>  <NssNH2>
0

>  <NdNH>
0

>  <NssNH>
0

>  <NaaNH>
0

>  <NtN>
0

>  <NsssNH>
0

>  <NdsN>
0

>  <NaaN>
0

>  <NsssN>
0

>  <NddsN>
0

>  <NaasN>
0

>  <NssssN>
0

>  <NsOH>
1

>  <NdO>
2

>  <NssO>
2

>  <NaaO>
0

>  <NsF>
0

>  <NsSiH3>
0

>  <NssSiH2>
0

>  <NsssSiH>
0

>  <NssssSi>
0

>  <NsPH2>
0

>  <NssPH>
0

>  <NsssP>
0

>  <NdsssP>
0

>  <NsssssP>
0

>  <NsSH>
0

>  <NdS>
0

>  <NssS>
0

>  <NaaS>
0

>  <NdssS>
0

>  <NddssS>
0

>  <NsCl>
0

>  <NsBr>
0

>  <NsI>
0

>  <fragCpx>
144.05

>  <fMF>
0.29

>  <nHBAcc>
5

>  <nHBDon>
1

>  <Kier1>
22.68

>  <Kier2>
10.35

>  <Lipinski>
1

>  <GhoseFilter>
1

>  <FilterItLogS>
-3.04

>  <VMcGowan>
314.5

>  <LabuteASA>
167.72

>  <PEOE_VSA1>
14.58

>  <PEOE_VSA2>
9.59

>  <PEOE_VSA3>
0

>  <PEOE_VSA4>
0

>  <PEOE_VSA5>
0

>  <PEOE_VSA6>
39

>  <PEOE_VSA7>
49.51

>  <PEOE_VSA8>
12.34

>  <PEOE_VSA9>
18.44

>  <PEOE_VSA10>
12.21

>  <PEOE_VSA11>
0

>  <PEOE_VSA12>
0

>  <PEOE_VSA13>
0

>  <SMR_VSA1>
24.17

>  <SMR_VSA2>
0

>  <SMR_VSA3>
0

>  <SMR_VSA4>
23.67

>  <SMR_VSA5>
84.03

>  <SMR_VSA6>
0

>  <SMR_VSA7>
23.8

>  <SMR_VSA8>
0

>  <SMR_VSA9>
0

>  <SlogP_VSA1>
0

>  <SlogP_VSA2>
35.36

>  <SlogP_VSA3>
19.06

>  <SlogP_VSA4>
23.67

>  <SlogP_VSA5>
65.72

>  <SlogP_VSA6>
23.8

>  <SlogP_VSA7>
0

>  <SlogP_VSA8>
0

>  <SlogP_VSA9>
0

>  <SlogP_VSA10>
0

>  <SlogP_VSA11>
0

>  <EState_VSA1>
6.1

>  <EState_VSA2>
42.4

>  <EState_VSA3>
18.26

>  <EState_VSA4>
32.1

>  <EState_VSA5>
5.57

>  <EState_VSA6>
0

>  <EState_VSA7>
13.85

>  <EState_VSA8>
25.15

>  <EState_VSA9>
9.47

>  <EState_VSA10>
14.7

>  <VSA_EState1>
11.42

>  <VSA_EState2>
24.07

>  <VSA_EState3>
9.86

>  <VSA_EState4>
1.27

>  <VSA_EState5>
0.43

>  <VSA_EState6>
0

>  <VSA_EState7>
10.64

>  <VSA_EState8>
6.14

>  <VSA_EState9>
0

>  <apol>
65.09

>  <bpol>
39.32

>  <nRing>
3

>  <nHRing>
1

>  <naRing>
0

>  <naHRing>
0

>  <nARing 2>
3

>  <nAHRing 2>
1

>  <nFRing>
1

>  <nFHRing>
0

>  <nFaRing>
0

>  <nFaHRing>
0

>  <nFARing 2>
1

>  <nFAHRing 2>
0

>  <nRot>
6

>  <SLogP>
3.95

>  <SMR>
106.29

>  <TopoPSA(NO)>
72.83

>  <TopoPSA>
72.83

>  <JGI1>
0.22

>  <JGI2>
0.08

>  <JGI3>
0.05

>  <JGI4>
0.04

>  <JGI5>
0.02

>  <Diameter>
13

>  <Radius>
7

>  <TMWC10>
134.13

>  <TSRW10>
63.3

>  <MW>
390.24

>  <AMW>
6.29

>  <WPath>
2069

>  <WPol>
45

>  <Zagreb1>
144

>  <Zagreb2>
168

>  <mZagreb2>
6.22

>  <yes>


>  <nAR-cont>
0.691115

>  <nHA-cont>
0.82432561

>  <MWHBN>
0.30372837

>  <MWHBN-cont>
0.829458177

>  <TPSA-cont>
0.491601375

>  <pka_cont>
0.97

>  <yes.1>


>  <BBB_SCORE>
4.227830626

>  <MMFF94 Energy>
15.257

$$$$
Compound 1269
Actelion Java MolfileCreator 2.0

  0  0  0  0  0  0              0 V3000
M  V30 BEGIN CTAB
M  V30 COUNTS 56 61 0 0 0
M  V30 BEGIN ATOM
M  V30 1 O 0.8889 0.6464 4.4508 0
M  V30 2 C 0.5008 0.0375 3.4516 0
M  V30 3 C 1.452 -0.4198 2.3394 0 CFG=2
M  V30 4 C -0.9447 -0.391 3.3457 0
M  V30 5 O 2.5516 0.5295 2.2054 0
M  V30 6 C 0.7805 -0.5331 0.9641 0 CFG=2
M  V30 7 C -1.5343 -0.0467 1.9704 0 CFG=1
M  V30 8 C 2.1171 1.3909 1.2216 0
M  V30 9 C 1.0558 0.8592 0.5143 0
M  V30 10 C -0.7284 -0.8166 0.8867 0 CFG=1
M  V30 11 C 1.5231 -1.5287 0.049 0
M  V30 12 C -3.0401 -0.3854 1.9044 0
M  V30 13 C 2.6007 2.6538 0.9382 0
M  V30 14 C 0.3506 1.5632 -0.4411 0
M  V30 15 C -1.1435 -0.5434 -0.5975 0
M  V30 16 C 0.9897 -1.5132 -1.389 0
M  V30 17 C -3.8893 0.3381 2.9418 0
M  V30 18 O 3.6713 3.0807 1.6657 0
M  V30 19 C 1.9342 3.3787 -0.0633 0
M  V30 20 C 0.808 2.846 -0.7352 0
M  V30 21 C -0.8938 0.9478 -1.0238 0
M  V30 22 N -0.4768 -1.5756 -1.4385 0
M  V30 23 C 4.116 4.4104 1.4413 0
M  V30 24 C -0.9786 -1.5791 -2.8189 0
M  V30 25 C -0.725 -2.9124 -3.4606 0
M  V30 26 C -0.9707 -3.0859 -4.9394 0
M  V30 27 C 0.4327 -3.1213 -4.4061 0
M  V30 28 H 1.8668 -1.3827 2.6607 0
M  V30 29 H -1.4895 0.1295 4.14 0
M  V30 30 H -1.0012 -1.4659 3.5505 0
M  V30 31 H -1.4292 1.0339 1.8125 0
M  V30 32 H -0.8901 -1.8866 1.0922 0
M  V30 33 H 2.6019 -1.3266 0.0249 0
M  V30 34 H 1.4079 -2.5411 0.4594 0
M  V30 35 H -3.4351 -0.106 0.9225 0
M  V30 36 H -3.188 -1.4666 2.0119 0
M  V30 37 H -2.218 -0.7342 -0.6934 0
M  V30 38 H 1.3646 -0.6293 -1.9193 0
M  V30 39 H 1.4227 -2.3821 -1.8971 0
M  V30 40 H -4.9519 0.173 2.7352 0
M  V30 41 H -3.6948 -0.0314 3.9525 0
M  V30 42 H -3.7041 1.4165 2.9201 0
M  V30 43 H 2.2521 4.3802 -0.337 0
M  V30 44 H 0.2965 3.4549 -1.4774 0
M  V30 45 H -1.7463 1.5407 -0.6665 0
M  V30 46 H -0.8798 1.0493 -2.1136 0
M  V30 47 H 4.4844 4.5351 0.4178 0
M  V30 48 H 4.9514 4.6036 2.1211 0
M  V30 49 H 3.3276 5.1358 1.6683 0
M  V30 50 H -2.0663 -1.4359 -2.821 0
M  V30 51 H -0.5468 -0.7639 -3.4121 0
M  V30 52 H -1.0217 -3.7364 -2.82 0
M  V30 53 H -1.2686 -2.2231 -5.524 0
M  V30 54 H -1.4105 -4.0192 -5.2727 0
M  V30 55 H 1.0818 -2.2821 -4.6274 0
M  V30 56 H 0.9421 -4.0776 -4.3726 0
M  V30 END ATOM
M  V30 BEGIN BOND
M  V30 1 2 1 2
M  V30 2 1 2 3
M  V30 3 1 2 4
M  V30 4 1 3 5
M  V30 5 1 3 6
M  V30 6 1 4 7
M  V30 7 1 5 8
M  V30 8 1 6 9
M  V30 9 1 6 10
M  V30 10 1 6 11
M  V30 11 1 7 12
M  V30 12 1 8 13
M  V30 13 1 9 14
M  V30 14 1 10 15
M  V30 15 1 11 16
M  V30 16 1 12 17
M  V30 17 1 13 18
M  V30 18 2 13 19
M  V30 19 2 14 20
M  V30 20 1 14 21
M  V30 21 1 15 22
M  V30 22 1 18 23
M  V30 23 1 22 24
M  V30 24 1 24 25
M  V30 25 1 25 26
M  V30 26 1 25 27
M  V30 27 1 7 10
M  V30 28 2 8 9
M  V30 29 1 15 21
M  V30 30 1 16 22
M  V30 31 1 19 20
M  V30 32 1 26 27
M  V30 33 1 3 28
M  V30 34 1 4 29
M  V30 35 1 4 30
M  V30 36 1 7 31
M  V30 37 1 10 32
M  V30 38 1 11 33
M  V30 39 1 11 34
M  V30 40 1 12 35
M  V30 41 1 12 36
M  V30 42 1 15 37
M  V30 43 1 16 38
M  V30 44 1 16 39
M  V30 45 1 17 40
M  V30 46 1 17 41
M  V30 47 1 17 42
M  V30 48 1 19 43
M  V30 49 1 20 44
M  V30 50 1 21 45
M  V30 51 1 21 46
M  V30 52 1 23 47
M  V30 53 1 23 48
M  V30 54 1 23 49
M  V30 55 1 24 50
M  V30 56 1 24 51
M  V30 57 1 25 52
M  V30 58 1 26 53
M  V30 59 1 26 54
M  V30 60 1 27 55
M  V30 61 1 27 56
M  V30 END BOND
M  V30 BEGIN COLLECTION
M  V30 MDLV30/STEABS ATOMS=(4 3 6 7 10)
M  V30 END COLLECTION
M  V30 END CTAB
M  END
>  <Column 1>
1514

>  <level_0>
1666

>  <index>
1666

>  <Unnamed: 0>
1666

>  <NO.>
1678

>  <Name>
conorphone(conorfone)

>  <IUPAC_name>
(4ar-5s-7ar-12bs)-3-(cyclopropylmethyl)-5-ethyl-9-methoxy-1-2-4-4a-5-6-7a-13-octahydro-4-12-methanobenzofuro[3-2-e]isoquinolin-7-one

>  <SMILES>
CC[C@H]1CC(=O)[C@@H]2Oc3c(OC)ccc4c3[C@@]23CCN(CC2CC2)C(C4)[C@H]13

>  <CID>
172964

>  <logBB>


>  <BBB+/BBB->
BBB+

>  <Inchi>
InChI=1S/C23H29NO3/c1-3-14-11-17(25)22-23-8-9-24(12-13-4-5-13)16(19(14)23)10-15-6-7-18(26-2)21(27-22)20(15)23/h6-7-13-14-16-19-22H-3-5-8-12H2-1-2H3/t14--16?-19--22--23-/m0/s1

>  <threshold>
-1

>  <reference>
R1|R27|R30|

>  <group>
B

>  <Class>
-1

>  <ABC>
22.27

>  <ABCGG>
16.79

>  <nAcid>
0

>  <nBase>
1

>  <nAromAtom>
6

>  <nAromBond>
6

>  <nAtom>
56

>  <nHeavyAtom>
27

>  <nSpiro>
1

>  <nBridgehead>
2

>  <nHetero>
4

>  <nN>
1

>  <nO>
3

>  <nF>
0

>  <BalabanJ>
1.43

>  <BertzCT>
816.09

>  <nBonds>
61

>  <nBondsO>
32

>  <nBondsS>
54

>  <nBondsD>
1

>  <nBondsT>
0

>  <nBondsA>
6

>  <nBondsM>
7

>  <nBondsKS>
57

>  <nBondsKD>
4

>  <RNCG>
0.25

>  <RPCG>
0.09

>  <FCSP3>
0.7

>  <SZ>
33

>  <Sm>
30.6

>  <Sv>
33.76

>  <Sse>
55.53

>  <Sp>
36.68

>  <Si>
62.94

>  <MZ>
0.59

>  <Mm>
0.55

>  <Mv>
0.6

>  <Mse>
0.99

>  <Mp>
0.65

>  <Mi>
1.12

>  <NsCH3>
2

>  <NdCH2>
0

>  <NssCH2>
8

>  <NtCH>
0

>  <NdsCH>
0

>  <NaaCH>
2

>  <NsssCH>
5

>  <NddC>
0

>  <NtsC>
0

>  <NdssC>
1

>  <NaasC>
4

>  <NaaaC>
0

>  <NssssC>
1

>  <NsNH3>
0

>  <NsNH2>
0

>  <NssNH2>
0

>  <NdNH>
0

>  <NssNH>
0

>  <NaaNH>
0

>  <NtN>
0

>  <NsssNH>
0

>  <NdsN>
0

>  <NaaN>
0

>  <NsssN>
1

>  <NddsN>
0

>  <NaasN>
0

>  <NssssN>
0

>  <NsOH>
0

>  <NdO>
1

>  <NssO>
2

>  <NaaO>
0

>  <NsF>
0

>  <NsSiH3>
0

>  <NssSiH2>
0

>  <NsssSiH>
0

>  <NssssSi>
0

>  <NsPH2>
0

>  <NssPH>
0

>  <NsssP>
0

>  <NdsssP>
0

>  <NsssssP>
0

>  <NsSH>
0

>  <NdS>
0

>  <NssS>
0

>  <NaaS>
0

>  <NdssS>
0

>  <NddssS>
0

>  <NsCl>
0

>  <NsBr>
0

>  <NsI>
0

>  <fragCpx>
322.04

>  <fMF>
0.39

>  <nHBAcc>
4

>  <nHBDon>
0

>  <Kier1>
17.82

>  <Kier2>
6.25

>  <Lipinski>
1

>  <GhoseFilter>
1

>  <FilterItLogS>
-4.76

>  <VMcGowan>
280.16

>  <LabuteASA>
160.75

>  <PEOE_VSA1>
9.47

>  <PEOE_VSA2>
9.69

>  <PEOE_VSA3>
0

>  <PEOE_VSA4>
0

>  <PEOE_VSA5>
0

>  <PEOE_VSA6>
19.41

>  <PEOE_VSA7>
61.61

>  <PEOE_VSA8>
29.99

>  <PEOE_VSA9>
7.11

>  <PEOE_VSA10>
0

>  <PEOE_VSA11>
23.39

>  <PEOE_VSA12>
0

>  <PEOE_VSA13>
0

>  <SMR_VSA1>
14.27

>  <SMR_VSA2>
0

>  <SMR_VSA3>
4.9

>  <SMR_VSA4>
17.75

>  <SMR_VSA5>
63.01

>  <SMR_VSA6>
20.2

>  <SMR_VSA7>
23.26

>  <SMR_VSA8>
0

>  <SMR_VSA9>
11.5

>  <SlogP_VSA1>
9.47

>  <SlogP_VSA2>
43.03

>  <SlogP_VSA3>
16.63

>  <SlogP_VSA4>
17.75

>  <SlogP_VSA5>
50.15

>  <SlogP_VSA6>
12.13

>  <SlogP_VSA7>
0

>  <SlogP_VSA8>
0

>  <SlogP_VSA9>
0

>  <SlogP_VSA10>
0

>  <SlogP_VSA11>
11.5

>  <EState_VSA1>
0

>  <EState_VSA2>
11.52

>  <EState_VSA3>
30.08

>  <EState_VSA4>
43.22

>  <EState_VSA5>
30.51

>  <EState_VSA6>
7.11

>  <EState_VSA7>
6.07

>  <EState_VSA8>
17.89

>  <EState_VSA9>
9.47

>  <EState_VSA10>
4.79

>  <VSA_EState1>
12.08

>  <VSA_EState2>
15.96

>  <VSA_EState3>
0

>  <VSA_EState4>
2.63

>  <VSA_EState5>
3.93

>  <VSA_EState6>
4.86

>  <VSA_EState7>
6.45

>  <VSA_EState8>
4.64

>  <VSA_EState9>
1.71

>  <apol>
61.25

>  <bpol>
35.14

>  <nRing>
6

>  <nHRing>
2

>  <naRing>
1

>  <naHRing>
0

>  <nARing 2>
5

>  <nAHRing 2>
2

>  <nFRing>
1

>  <nFHRing>
1

>  <nFaRing>
0

>  <nFaHRing>
0

>  <nFARing 2>
1

>  <nFAHRing 2>
1

>  <nRot>
4

>  <SLogP>
3.35

>  <SMR>
102.39

>  <TopoPSA(NO)>
38.77

>  <TopoPSA>
38.77

>  <JGI1>
0.19

>  <JGI2>
0.09

>  <JGI3>
0.05

>  <JGI4>
0.05

>  <JGI5>
0.03

>  <Diameter>
11

>  <Radius>
6

>  <TMWC10>
140.31

>  <TSRW10>
83.58

>  <MW>
367.21

>  <AMW>
6.56

>  <WPath>
1500

>  <WPol>
60

>  <Zagreb1>
166

>  <Zagreb2>
216

>  <mZagreb2>
5.74

>  <yes>


>  <nAR-cont>
0

>  <nHA-cont>
0.860070871

>  <MWHBN>
0.208738588

>  <MWHBN-cont>
0.999583506

>  <TPSA-cont>
0.729361325

>  <pka_cont>
0.97

>  <yes.1>


>  <BBB_SCORE>
4.30316878

>  <MMFF94 Energy>
112.12

$$$$
Compound 1270
Actelion Java MolfileCreator 2.0

  0  0  0  0  0  0              0 V3000
M  V30 BEGIN CTAB
M  V30 COUNTS 75 79 0 0 0
M  V30 BEGIN ATOM
M  V30 1 O 5.502 -0.7959 -2.1501 0
M  V30 2 C 4.7602 0.3252 -1.8681 0
M  V30 3 C 5.468 -1.863 -1.2146 0
M  V30 4 C 4.8977 1.3997 -2.7667 0
M  V30 5 C 3.8978 0.4474 -0.7719 0
M  V30 6 O 5.7615 1.2018 -3.816 0
M  V30 7 C 4.1765 2.578 -2.5469 0
M  V30 8 C 3.1621 1.6265 -0.553 0
M  V30 9 C 5.9391 2.2701 -4.7341 0
M  V30 10 C 3.3059 2.6952 -1.4516 0
M  V30 11 C 2.2022 1.7164 0.63 0 CFG=1
M  V30 12 C 2.5907 3.9996 -1.2024 0
M  V30 13 N 1.8505 3.1063 0.9707 0
M  V30 14 C 0.9645 0.8277 0.3755 0
M  V30 15 C 1.4295 3.8665 -0.2105 0
M  V30 16 C 0.8835 3.1689 2.0675 0
M  V30 17 C -0.0557 0.882 1.5289 0 CFG=1
M  V30 18 C -0.4139 2.3654 1.836 0 CFG=1
M  V30 19 C -1.3152 0.0356 1.2084 0
M  V30 20 C -1.3344 2.5253 3.0703 0
M  V30 21 C -1.0853 -1.4553 0.8363 0 CFG=1
M  V30 22 C -2.7898 2.7771 2.6926 0
M  V30 23 N -0.3349 -2.0818 1.9434 0
M  V30 24 C -2.4039 -2.1669 0.5088 0
M  V30 25 C -0.3359 -3.5383 1.8447 0
M  V30 26 C -2.7127 -3.4185 1.0699 0
M  V30 27 C -3.3019 -1.6192 -0.4272 0
M  V30 28 C -1.7535 -4.0741 2.0297 0
M  V30 29 C -3.9261 -4.0565 0.7627 0
M  V30 30 C -4.5086 -2.2572 -0.7458 0
M  V30 31 C -4.8278 -3.4842 -0.138 0
M  V30 32 O -5.4309 -1.7702 -1.6401 0
M  V30 33 O -6.029 -4.0437 -0.4976 0
M  V30 34 C -5.201 -0.4826 -2.1922 0
M  V30 35 C -6.4107 -5.2521 0.1427 0
M  V30 36 H 5.823 -1.5398 -0.2303 0
M  V30 37 H 6.1467 -2.6432 -1.5722 0
M  V30 38 H 4.4657 -2.2992 -1.151 0
M  V30 39 H 3.7777 -0.368 -0.0666 0
M  V30 40 H 4.2777 3.4299 -3.2113 0
M  V30 41 H 5.0009 2.514 -5.2435 0
M  V30 42 H 6.6535 1.9417 -5.4951 0
M  V30 43 H 6.3627 3.1504 -4.2395 0
M  V30 44 H 2.7417 1.3112 1.4981 0
M  V30 45 H 2.2036 4.3989 -2.1474 0
M  V30 46 H 3.3229 4.7173 -0.8106 0
M  V30 47 H 0.4728 1.1124 -0.5643 0
M  V30 48 H 1.3016 -0.2059 0.2374 0
M  V30 49 H 0.57 3.4022 -0.7089 0
M  V30 50 H 1.1178 4.8785 0.0767 0
M  V30 51 H 0.6401 4.2194 2.2736 0
M  V30 52 H 1.3759 2.8035 2.9792 0
M  V30 53 H 0.4249 0.4659 2.4246 0
M  V30 54 H -0.9254 2.7904 0.9621 0
M  V30 55 H -1.8475 0.5436 0.3957 0
M  V30 56 H -1.9889 0.0578 2.0745 0
M  V30 57 H -1.2695 1.6454 3.7208 0
M  V30 58 H -1.0113 3.3782 3.6803 0
M  V30 59 H -0.4764 -1.5201 -0.0741 0
M  V30 60 H -3.4006 2.8733 3.5961 0
M  V30 61 H -2.8859 3.7073 2.1229 0
M  V30 62 H -3.2066 1.9664 2.0904 0
M  V30 63 H 0.6255 -1.7467 1.9258 0
M  V30 64 H 0.0854 -3.8572 0.883 0
M  V30 65 H 0.3068 -3.9521 2.6294 0
M  V30 66 H -3.0374 -0.6885 -0.9158 0
M  V30 67 H -2.0998 -3.8871 3.0538 0
M  V30 68 H -1.7437 -5.1588 1.8699 0
M  V30 69 H -4.1367 -5.0091 1.2376 0
M  V30 70 H -5.134 0.28 -1.4091 0
M  V30 71 H -6.0574 -0.2325 -2.8259 0
M  V30 72 H -4.3082 -0.4802 -2.8258 0
M  V30 73 H -5.7192 -6.0643 -0.1037 0
M  V30 74 H -7.3991 -5.5326 -0.2341 0
M  V30 75 H -6.495 -5.1176 1.2262 0
M  V30 END ATOM
M  V30 BEGIN BOND
M  V30 1 1 1 2
M  V30 2 1 1 3
M  V30 3 2 2 4
M  V30 4 1 2 5
M  V30 5 1 4 6
M  V30 6 1 4 7
M  V30 7 2 5 8
M  V30 8 1 6 9
M  V30 9 2 7 10
M  V30 10 1 8 11
M  V30 11 1 10 12
M  V30 12 1 11 13
M  V30 13 1 11 14
M  V30 14 1 12 15
M  V30 15 1 13 16
M  V30 16 1 14 17
M  V30 17 1 16 18
M  V30 18 1 17 19
M  V30 19 1 18 20
M  V30 20 1 19 21
M  V30 21 1 20 22
M  V30 22 1 21 23
M  V30 23 1 21 24
M  V30 24 1 23 25
M  V30 25 2 24 26
M  V30 26 1 24 27
M  V30 27 1 25 28
M  V30 28 1 26 29
M  V30 29 2 27 30
M  V30 30 2 29 31
M  V30 31 1 30 32
M  V30 32 1 31 33
M  V30 33 1 32 34
M  V30 34 1 33 35
M  V30 35 1 8 10
M  V30 36 1 13 15
M  V30 37 1 17 18
M  V30 38 1 26 28
M  V30 39 1 30 31
M  V30 40 1 3 36
M  V30 41 1 3 37
M  V30 42 1 3 38
M  V30 43 1 5 39
M  V30 44 1 7 40
M  V30 45 1 9 41
M  V30 46 1 9 42
M  V30 47 1 9 43
M  V30 48 1 11 44
M  V30 49 1 12 45
M  V30 50 1 12 46
M  V30 51 1 14 47
M  V30 52 1 14 48
M  V30 53 1 15 49
M  V30 54 1 15 50
M  V30 55 1 16 51
M  V30 56 1 16 52
M  V30 57 1 17 53
M  V30 58 1 18 54
M  V30 59 1 19 55
M  V30 60 1 19 56
M  V30 61 1 20 57
M  V30 62 1 20 58
M  V30 63 1 21 59
M  V30 64 1 22 60
M  V30 65 1 22 61
M  V30 66 1 22 62
M  V30 67 1 23 63
M  V30 68 1 25 64
M  V30 69 1 25 65
M  V30 70 1 27 66
M  V30 71 1 28 67
M  V30 72 1 28 68
M  V30 73 1 29 69
M  V30 74 1 34 70
M  V30 75 1 34 71
M  V30 76 1 34 72
M  V30 77 1 35 73
M  V30 78 1 35 74
M  V30 79 1 35 75
M  V30 END BOND
M  V30 BEGIN COLLECTION
M  V30 MDLV30/STEABS ATOMS=(4 11 17 18 21)
M  V30 END COLLECTION
M  V30 END CTAB
M  END
>  <Column 1>
1515

>  <level_0>
1667

>  <index>
1667

>  <Unnamed: 0>
1667

>  <NO.>
1679

>  <Name>
emetine hydrochloride

>  <IUPAC_name>
(2s-3r-11bs)-2-[[(1r)-6-7-dimethoxy-1-2-3-4-tetrahydroisoquinolin-1-yl]methyl]-3-ethyl-9-10-dimethoxy-2-3-4-6-7-11b-hexahydro-1h-benzo[a]quinolizine;hydrochloride

>  <SMILES>
CC[C@H]1CN2CCc3cc(OC)c(OC)cc3[C@@H]2C[C@@H]1C[C@H]1NCCc2cc(OC)c(OC)cc21

>  <CID>
10219

>  <logBB>


>  <BBB+/BBB->
BBB-

>  <Inchi>
InChI=1S/C29H40N2O4/c1-6-18-17-31-10-8-20-14-27(33-3)29(35-5)16-23(20)25(31)12-21(18)11-24-22-15-28(34-4)26(32-2)13-19(22)7-9-30-24/h13-16-18-21-24-25-30H-6-12-17H2-1-5H3/t18--21--24+-25-/m0/s1

>  <threshold>
-1

>  <reference>
R1|R6|R27|R30|

>  <group>
B

>  <Class>
-1

>  <ABC>
27.25

>  <ABCGG>
20.02

>  <nAcid>
0

>  <nBase>
2

>  <nAromAtom>
12

>  <nAromBond>
12

>  <nAtom>
75

>  <nHeavyAtom>
35

>  <nSpiro>
0

>  <nBridgehead>
0

>  <nHetero>
6

>  <nN>
2

>  <nO>
4

>  <nF>
0

>  <BalabanJ>
1.29

>  <BertzCT>
1053.46

>  <nBonds>
79

>  <nBondsO>
39

>  <nBondsS>
67

>  <nBondsD>
0

>  <nBondsT>
0

>  <nBondsA>
12

>  <nBondsM>
12

>  <nBondsKS>
73

>  <nBondsKD>
6

>  <RNCG>
0.16

>  <RPCG>
0.05

>  <FCSP3>
0.59

>  <SZ>
43.33

>  <Sm>
40.02

>  <Sv>
44.21

>  <Sse>
74.41

>  <Sp>
48.21

>  <Si>
84.72

>  <MZ>
0.58

>  <Mm>
0.53

>  <Mv>
0.59

>  <Mse>
0.99

>  <Mp>
0.64

>  <Mi>
1.13

>  <NsCH3>
5

>  <NdCH2>
0

>  <NssCH2>
8

>  <NtCH>
0

>  <NdsCH>
0

>  <NaaCH>
4

>  <NsssCH>
4

>  <NddC>
0

>  <NtsC>
0

>  <NdssC>
0

>  <NaasC>
8

>  <NaaaC>
0

>  <NssssC>
0

>  <NsNH3>
0

>  <NsNH2>
0

>  <NssNH2>
0

>  <NdNH>
0

>  <NssNH>
1

>  <NaaNH>
0

>  <NtN>
0

>  <NsssNH>
0

>  <NdsN>
0

>  <NaaN>
0

>  <NsssN>
1

>  <NddsN>
0

>  <NaasN>
0

>  <NssssN>
0

>  <NsOH>
0

>  <NdO>
0

>  <NssO>
4

>  <NaaO>
0

>  <NsF>
0

>  <NsSiH3>
0

>  <NssSiH2>
0

>  <NsssSiH>
0

>  <NssssSi>
0

>  <NsPH2>
0

>  <NssPH>
0

>  <NsssP>
0

>  <NdsssP>
0

>  <NsssssP>
0

>  <NsSH>
0

>  <NdS>
0

>  <NssS>
0

>  <NaaS>
0

>  <NdssS>
0

>  <NddssS>
0

>  <NsCl>
0

>  <NsBr>
0

>  <NsI>
0

>  <fragCpx>
331.06

>  <fMF>
0.33

>  <nHBAcc>
6

>  <nHBDon>
1

>  <Kier1>
26.6

>  <Kier2>
11.81

>  <Lipinski>
1

>  <GhoseFilter>
0

>  <FilterItLogS>
-7.09

>  <VMcGowan>
382.81

>  <LabuteASA>
209.44

>  <PEOE_VSA1>
24.26

>  <PEOE_VSA2>
4.9

>  <PEOE_VSA3>
0

>  <PEOE_VSA4>
0

>  <PEOE_VSA5>
0

>  <PEOE_VSA6>
13.34

>  <PEOE_VSA7>
90.58

>  <PEOE_VSA8>
25.17

>  <PEOE_VSA9>
28.44

>  <PEOE_VSA10>
0

>  <PEOE_VSA11>
23

>  <PEOE_VSA12>
0

>  <PEOE_VSA13>
0

>  <SMR_VSA1>
18.95

>  <SMR_VSA2>
0

>  <SMR_VSA3>
10.22

>  <SMR_VSA4>
11.84

>  <SMR_VSA5>
51.11

>  <SMR_VSA6>
48.07

>  <SMR_VSA7>
46.52

>  <SMR_VSA8>
0

>  <SMR_VSA9>
23

>  <SlogP_VSA1>
24.26

>  <SlogP_VSA2>
52.97

>  <SlogP_VSA3>
12.84

>  <SlogP_VSA4>
11.84

>  <SlogP_VSA5>
60.52

>  <SlogP_VSA6>
24.27

>  <SlogP_VSA7>
0

>  <SlogP_VSA8>
0

>  <SlogP_VSA9>
0

>  <SlogP_VSA10>
0

>  <SlogP_VSA11>
23

>  <EState_VSA1>
0

>  <EState_VSA2>
0

>  <EState_VSA3>
23.92

>  <EState_VSA4>
55.35

>  <EState_VSA5>
41.64

>  <EState_VSA6>
28.44

>  <EState_VSA7>
0

>  <EState_VSA8>
41.41

>  <EState_VSA9>
18.95

>  <EState_VSA10>
0

>  <VSA_EState1>
22.51

>  <VSA_EState2>
2.72

>  <VSA_EState3>
3.83

>  <VSA_EState4>
5.6

>  <VSA_EState5>
4.69

>  <VSA_EState6>
9.61

>  <VSA_EState7>
5.65

>  <VSA_EState8>
5.66

>  <VSA_EState9>
6.9

>  <apol>
80.51

>  <bpol>
49.35

>  <nRing>
5

>  <nHRing>
3

>  <naRing>
2

>  <naHRing>
0

>  <nARing 2>
3

>  <nAHRing 2>
3

>  <nFRing>
2

>  <nFHRing>
2

>  <nFaRing>
0

>  <nFaHRing>
0

>  <nFARing 2>
2

>  <nFAHRing 2>
2

>  <nRot>
7

>  <SLogP>
4.94

>  <SMR>
138.06

>  <TopoPSA(NO)>
52.19

>  <TopoPSA>
52.19

>  <JGI1>
0.18

>  <JGI2>
0.08

>  <JGI3>
0.04

>  <JGI4>
0.05

>  <JGI5>
0.02

>  <Diameter>
16

>  <Radius>
8

>  <TMWC10>
153.89

>  <TSRW10>
71.99

>  <MW>
480.3

>  <AMW>
6.4

>  <WPath>
3690

>  <WPol>
66

>  <Zagreb1>
190

>  <Zagreb2>
232

>  <mZagreb2>
7.97

>  <yes>


>  <nAR-cont>
0.691115

>  <nHA-cont>
0.523063577

>  <MWHBN>
0.319405027

>  <MWHBN-cont>
0.77915694

>  <TPSA-cont>
0.635681392

>  <pka_cont>
0.97

>  <yes.1>


>  <BBB_SCORE>
4.139276771

>  <MMFF94 Energy>
139.79

$$$$
Compound 1271
Actelion Java MolfileCreator 2.0

  0  0  0  0  0  0              0 V3000
M  V30 BEGIN CTAB
M  V30 COUNTS 110 118 0 0 0
M  V30 BEGIN ATOM
M  V30 1 O -0.322 -2.7395 4.3536 0
M  V30 2 C 0.3454 -2.119 3.529 0
M  V30 3 O 1.7111 -2.2128 3.4475 0
M  V30 4 C -0.2132 -1.1025 2.4718 0 CFG=1
M  V30 5 C 2.2907 -3.1383 4.3655 0
M  V30 6 C 0.3181 -1.4914 1.051 0
M  V30 7 C -1.7707 -1.135 2.4104 0
M  V30 8 C 0.3608 0.2796 2.9617 0
M  V30 9 C 0.2277 -2.8212 0.5626 0
M  V30 10 C 0.8479 -0.5224 0.1781 0
M  V30 11 N -2.4488 -2.2627 2.8408 0
M  V30 12 C -2.7586 -0.2429 1.9677 0
M  V30 13 C -0.0328 0.8273 4.3674 0 CFG=2
M  V30 14 O -0.297 -3.7776 1.4003 0
M  V30 15 C 0.7055 -3.1671 -0.7151 0
M  V30 16 C 1.3054 -0.8843 -1.0877 0
M  V30 17 C -3.7994 -2.158 2.651 0
M  V30 18 C -4.0314 -0.9036 2.1049 0
M  V30 19 C -2.619 1.1718 1.4701 0
M  V30 20 C -1.4926 1.2771 4.4417 0
M  V30 21 C 0.8306 2.06 4.7682 0
M  V30 22 C -1.1832 -4.6953 0.7595 0
M  V30 23 C 1.2427 -2.1931 -1.5397 0
M  V30 24 C 1.8347 0.0213 -2.1853 0 CFG=1
M  V30 25 C -4.822 -3.0711 2.9338 0
M  V30 26 C -5.3654 -0.5346 1.8263 0
M  V30 27 C -2.7927 2.2519 2.5737 0
M  V30 28 N -1.6174 2.2998 3.416 0
M  V30 29 C 0.4953 3.3987 4.0372 0 CFG=1
M  V30 30 N 1.7476 -2.335 -2.8385 0
M  V30 31 C 2.4502 -1.0514 -3.1412 0 CFG=1
M  V30 32 C 0.6521 0.8963 -2.7109 0 CFG=1
M  V30 33 C 2.9007 1.007 -1.6707 0
M  V30 34 C -6.1329 -2.6847 2.6433 0
M  V30 35 C -6.4041 -1.4336 2.0968 0
M  V30 36 C -1.0512 3.5632 3.8421 0
M  V30 37 O 0.9592 4.4524 4.9042 0
M  V30 38 C 1.2166 3.5878 2.6764 0
M  V30 39 C 2.2792 -3.6325 -3.2198 0
M  V30 40 C 2.3926 -0.5885 -4.605 0 CFG=1
M  V30 41 N 0.9657 2.2371 -2.1308 0
M  V30 42 C 0.2373 0.8207 -4.2516 0 CFG=2
M  V30 43 C 2.4193 2.3708 -2.1186 0
M  V30 44 C 2.7299 3.4108 2.713 0
M  V30 45 O 3.1561 0.632 -4.7685 0
M  V30 46 C 3.1016 -1.581 -5.5475 0
M  V30 47 C 0.9334 -0.356 -5.0196 0 CFG=1
M  V30 48 C 0.3135 3.3626 -2.7851 0
M  V30 49 C 0.4492 2.1732 -4.9463 0
M  V30 50 C -1.3223 0.5714 -4.2853 0
M  V30 51 O 2.5232 -2.2698 -6.3858 0
M  V30 52 N 4.4638 -1.6428 -5.4284 0
M  V30 53 O 0.885 -0.0965 -6.4439 0
M  V30 54 C 0.4449 3.3301 -4.2704 0
M  V30 55 C -1.9862 0.4595 -5.6554 0
M  V30 56 H 3.3706 -3.1531 4.195 0
M  V30 57 H 2.1073 -2.82 5.3964 0
M  V30 58 H 1.8999 -4.1462 4.1938 0
M  V30 59 H 0.1031 1.0345 2.2237 0
M  V30 60 H 1.4589 0.2262 2.9365 0
M  V30 61 H 0.8912 0.5288 0.4413 0
M  V30 62 H -1.9947 -3.064 3.2638 0
M  V30 63 H 0.1417 0.0465 5.1167 0
M  V30 64 H 0.6588 -4.1936 -1.0543 0
M  V30 65 H -3.3843 1.3484 0.7029 0
M  V30 66 H -1.6641 1.3021 0.949 0
M  V30 67 H -1.7288 1.6831 5.4349 0
M  V30 68 H -2.1762 0.4367 4.3338 0
M  V30 69 H 0.6703 2.2246 5.8448 0
M  V30 70 H 1.8959 1.8181 4.6952 0
M  V30 71 H -1.8522 -4.1929 0.0518 0
M  V30 72 H -1.8022 -5.1557 1.5357 0
M  V30 73 H -0.6202 -5.4944 0.2679 0
M  V30 74 H -4.6093 -4.0426 3.3674 0
M  V30 75 H -5.5915 0.439 1.4032 0
M  V30 76 H -3.7037 2.0907 3.1622 0
M  V30 77 H -2.9174 3.2115 2.0571 0
M  V30 78 H 3.5024 -1.2043 -2.8565 0
M  V30 79 H -0.2509 0.5991 -2.1595 0
M  V30 80 H 2.9965 0.9886 -0.5786 0
M  V30 81 H 3.9004 0.8135 -2.0742 0
M  V30 82 H -6.9511 -3.37 2.8514 0
M  V30 83 H -7.4305 -1.1487 1.8798 0
M  V30 84 H -1.231 4.3533 3.1021 0
M  V30 85 H -1.5229 3.9173 4.7681 0
M  V30 86 H 0.7342 5.301 4.4859 0
M  V30 87 H 1.03 4.6132 2.3285 0
M  V30 88 H 0.8038 2.9346 1.9041 0
M  V30 89 H 3.1418 -3.8985 -2.5989 0
M  V30 90 H 1.5192 -4.4153 -3.124 0
M  V30 91 H 2.5987 -3.6571 -4.2603 0
M  V30 92 H 2.7471 3.1493 -1.4212 0
M  V30 93 H 2.8321 2.6086 -3.1051 0
M  V30 94 H 3.1623 3.7171 1.7545 0
M  V30 95 H 3.1877 4.0208 3.4974 0
M  V30 96 H 3.0081 2.3655 2.8728 0
M  V30 97 H 2.8489 1.0144 -5.617 0
M  V30 98 H 0.3612 -1.2797 -4.8639 0
M  V30 99 H 0.7279 4.3035 -2.402 0
M  V30 100 H -0.7507 3.3796 -2.5205 0
M  V30 101 H 0.5009 2.2036 -6.0321 0
M  V30 102 H -1.8336 1.3728 -3.7344 0
M  V30 103 H -1.5435 -0.3555 -3.7382 0
M  V30 104 H 4.9804 -2.2604 -6.0397 0
M  V30 105 H 4.966 -0.9676 -4.8642 0
M  V30 106 H 1.0997 -0.9471 -6.8856 0
M  V30 107 H 0.5089 4.2755 -4.7997 0
M  V30 108 H -3.0697 0.3571 -5.5297 0
M  V30 109 H -1.8109 1.3453 -6.2717 0
M  V30 110 H -1.6427 -0.4241 -6.1997 0
M  V30 END ATOM
M  V30 BEGIN BOND
M  V30 1 2 1 2
M  V30 2 1 2 3
M  V30 3 1 2 4
M  V30 4 1 3 5
M  V30 5 1 4 6
M  V30 6 1 4 7
M  V30 7 1 4 8
M  V30 8 2 6 9
M  V30 9 1 6 10
M  V30 10 1 7 11
M  V30 11 2 7 12
M  V30 12 1 8 13
M  V30 13 1 9 14
M  V30 14 1 9 15
M  V30 15 2 10 16
M  V30 16 1 11 17
M  V30 17 1 12 18
M  V30 18 1 12 19
M  V30 19 1 13 20
M  V30 20 1 13 21
M  V30 21 1 14 22
M  V30 22 2 15 23
M  V30 23 1 16 24
M  V30 24 1 17 25
M  V30 25 1 18 26
M  V30 26 1 19 27
M  V30 27 1 20 28
M  V30 28 1 21 29
M  V30 29 1 23 30
M  V30 30 1 24 31
M  V30 31 1 24 32
M  V30 32 1 24 33
M  V30 33 2 25 34
M  V30 34 2 26 35
M  V30 35 1 28 36
M  V30 36 1 29 37
M  V30 37 1 29 38
M  V30 38 1 30 39
M  V30 39 1 31 40
M  V30 40 1 32 41
M  V30 41 1 32 42
M  V30 42 1 33 43
M  V30 43 1 38 44
M  V30 44 1 40 45
M  V30 45 1 40 46
M  V30 46 1 40 47
M  V30 47 1 41 48
M  V30 48 1 42 49
M  V30 49 1 42 50
M  V30 50 2 46 51
M  V30 51 1 46 52
M  V30 52 1 47 53
M  V30 53 1 48 54
M  V30 54 1 50 55
M  V30 55 1 16 23
M  V30 56 2 17 18
M  V30 57 1 27 28
M  V30 58 1 29 36
M  V30 59 1 30 31
M  V30 60 1 34 35
M  V30 61 1 41 43
M  V30 62 1 42 47
M  V30 63 2 49 54
M  V30 64 1 5 56
M  V30 65 1 5 57
M  V30 66 1 5 58
M  V30 67 1 8 59
M  V30 68 1 8 60
M  V30 69 1 10 61
M  V30 70 1 11 62
M  V30 71 1 13 63
M  V30 72 1 15 64
M  V30 73 1 19 65
M  V30 74 1 19 66
M  V30 75 1 20 67
M  V30 76 1 20 68
M  V30 77 1 21 69
M  V30 78 1 21 70
M  V30 79 1 22 71
M  V30 80 1 22 72
M  V30 81 1 22 73
M  V30 82 1 25 74
M  V30 83 1 26 75
M  V30 84 1 27 76
M  V30 85 1 27 77
M  V30 86 1 31 78
M  V30 87 1 32 79
M  V30 88 1 33 80
M  V30 89 1 33 81
M  V30 90 1 34 82
M  V30 91 1 35 83
M  V30 92 1 36 84
M  V30 93 1 36 85
M  V30 94 1 37 86
M  V30 95 1 38 87
M  V30 96 1 38 88
M  V30 97 1 39 89
M  V30 98 1 39 90
M  V30 99 1 39 91
M  V30 100 1 43 92
M  V30 101 1 43 93
M  V30 102 1 44 94
M  V30 103 1 44 95
M  V30 104 1 44 96
M  V30 105 1 45 97
M  V30 106 1 47 98
M  V30 107 1 48 99
M  V30 108 1 48 100
M  V30 109 1 49 101
M  V30 110 1 50 102
M  V30 111 1 50 103
M  V30 112 1 52 104
M  V30 113 1 52 105
M  V30 114 1 53 106
M  V30 115 1 54 107
M  V30 116 1 55 108
M  V30 117 1 55 109
M  V30 118 1 55 110
M  V30 END BOND
M  V30 BEGIN COLLECTION
M  V30 MDLV30/STEABS ATOMS=(9 4 13 24 29 31 32 40 42 47)
M  V30 END COLLECTION
M  V30 END CTAB
M  END
>  <Column 1>
1524

>  <level_0>
1676

>  <index>
1676

>  <Unnamed: 0>
1676

>  <NO.>
1688

>  <Name>
vindesine

>  <IUPAC_name>
methyl (13s-15s-17s)-13-[(1r-9r-10s-11r-12r-19r)-10-carbamoyl-12-ethyl-10-11-dihydroxy-5-methoxy-8-methyl-8-16-diazapentacyclo[10.6.1.01-9.02-7.016-19]nonadeca-2-4-6-13-tetraen-4-yl]-17-ethyl-17-hydroxy-1-11-diazatetracyclo[13.3.1.04-12.05-10]nonadeca-4(12)-5-7-9-tetraene-13-carboxylate

>  <SMILES>
CC[C@]1(O)C[C@H]2CN(CCc3c([nH]c4ccccc34)[C@@](C(=O)OC)(c3cc4c(cc3OC)N(C)[C@H]3[C@@](O)(C(N)=O)[C@H](O)[C@]5(CC)C=CCN6CC[C@]43[C@@H]65)C2)C1

>  <CID>
40839

>  <logBB>


>  <BBB+/BBB->
BBB-

>  <Inchi>
InChI=1S/C43H55N5O7/c1-6-39(52)21-25-22-42(38(51)55-5-33-27(13-17-47(23-25)24-39)26-11-8-9-12-30(26)45-33)29-19-28-31(20-32(29)54-4)46(3)35-41(28)15-18-48-16-10-14-40(7-2-34(41)48)36(49)43(35-53)37(44)50/h8-12-14-19-20-25-34-36-45-49-52-53H-6-7-13-15-18-21-24H2-1-5H3-(H2-44-50)/t25--34+-35--36--39+-40--41--42+-43+/m1/s1

>  <threshold>
-1

>  <reference>
R1|R6|R23|R27|R30|

>  <group>
B

>  <Class>
1

>  <ABC>
44.41

>  <ABCGG>
34.06

>  <nAcid>
0

>  <nBase>
2

>  <nAromAtom>
15

>  <nAromBond>
16

>  <nAtom>
110

>  <nHeavyAtom>
55

>  <nSpiro>
1

>  <nBridgehead>
2

>  <nHetero>
12

>  <nN>
5

>  <nO>
7

>  <nF>
0

>  <BalabanJ>
1.21

>  <BertzCT>
2119

>  <nBonds>
118

>  <nBondsO>
63

>  <nBondsS>
99

>  <nBondsD>
3

>  <nBondsT>
0

>  <nBondsA>
16

>  <nBondsM>
19

>  <nBondsKS>
108

>  <nBondsKD>
10

>  <RNCG>
0.1

>  <RPCG>
0.06

>  <FCSP3>
0.58

>  <SZ>
67.33

>  <Sm>
62.77

>  <Sv>
66.69

>  <Sse>
110.05

>  <Sp>
71.62

>  <Si>
124.34

>  <MZ>
0.61

>  <Mm>
0.57

>  <Mv>
0.61

>  <Mse>
1

>  <Mp>
0.65

>  <Mi>
1.13

>  <NsCH3>
5

>  <NdCH2>
0

>  <NssCH2>
11

>  <NtCH>
0

>  <NdsCH>
2

>  <NaaCH>
6

>  <NsssCH>
4

>  <NddC>
0

>  <NtsC>
0

>  <NdssC>
2

>  <NaasC>
6

>  <NaaaC>
2

>  <NssssC>
5

>  <NsNH3>
0

>  <NsNH2>
1

>  <NssNH2>
0

>  <NdNH>
0

>  <NssNH>
0

>  <NaaNH>
1

>  <NtN>
0

>  <NsssNH>
0

>  <NdsN>
0

>  <NaaN>
0

>  <NsssN>
3

>  <NddsN>
0

>  <NaasN>
0

>  <NssssN>
0

>  <NsOH>
3

>  <NdO>
2

>  <NssO>
2

>  <NaaO>
0

>  <NsF>
0

>  <NsSiH3>
0

>  <NssSiH2>
0

>  <NsssSiH>
0

>  <NssssSi>
0

>  <NsPH2>
0

>  <NssPH>
0

>  <NsssP>
0

>  <NdsssP>
0

>  <NsssssP>
0

>  <NsSH>
0

>  <NdS>
0

>  <NssS>
0

>  <NaaS>
0

>  <NdssS>
0

>  <NddssS>
0

>  <NsCl>
0

>  <NsBr>
0

>  <NsI>
0

>  <fragCpx>
999.12

>  <fMF>
0.35

>  <nHBAcc>
10

>  <nHBDon>
5

>  <Kier1>
40.41

>  <Kier2>
14.3

>  <Lipinski>
0

>  <GhoseFilter>
0

>  <FilterItLogS>
-6.51

>  <VMcGowan>
566.98

>  <LabuteASA>
321.79

>  <PEOE_VSA1>
40.41

>  <PEOE_VSA2>
19.39

>  <PEOE_VSA3>
0

>  <PEOE_VSA4>
0

>  <PEOE_VSA5>
0

>  <PEOE_VSA6>
44.2

>  <PEOE_VSA7>
74.25

>  <PEOE_VSA8>
84.01

>  <PEOE_VSA9>
25.86

>  <PEOE_VSA10>
17.27

>  <PEOE_VSA11>
5.6

>  <PEOE_VSA12>
0

>  <PEOE_VSA13>
5.91

>  <SMR_VSA1>
34.38

>  <SMR_VSA2>
0

>  <SMR_VSA3>
14.78

>  <SMR_VSA4>
17.07

>  <SMR_VSA5>
92.59

>  <SMR_VSA6>
58.89

>  <SMR_VSA7>
70.93

>  <SMR_VSA8>
0

>  <SMR_VSA9>
5.75

>  <SlogP_VSA1>
15.37

>  <SlogP_VSA2>
125.36

>  <SlogP_VSA3>
31.58

>  <SlogP_VSA4>
11.33

>  <SlogP_VSA5>
68.34

>  <SlogP_VSA6>
48.55

>  <SlogP_VSA7>
0

>  <SlogP_VSA8>
10.9

>  <SlogP_VSA9>
0

>  <SlogP_VSA10>
5.69

>  <SlogP_VSA11>
5.75

>  <EState_VSA1>
51.47

>  <EState_VSA2>
11.96

>  <EState_VSA3>
69.47

>  <EState_VSA4>
46.5

>  <EState_VSA5>
7.11

>  <EState_VSA6>
7.11

>  <EState_VSA7>
62.21

>  <EState_VSA8>
26.92

>  <EState_VSA9>
15.21

>  <EState_VSA10>
20.11

>  <VSA_EState1>
12.22

>  <VSA_EState2>
39.26

>  <VSA_EState3>
37.96

>  <VSA_EState4>
4.72

>  <VSA_EState5>
-1

>  <VSA_EState6>
11.02

>  <VSA_EState7>
5.78

>  <VSA_EState8>
7.39

>  <VSA_EState9>
4.89

>  <apol>
119.6

>  <bpol>
65.51

>  <nRing>
9

>  <nHRing>
6

>  <naRing>
3

>  <naHRing>
1

>  <nARing 2>
6

>  <nAHRing 2>
5

>  <nFRing>
2

>  <nFHRing>
2

>  <nFaRing>
0

>  <nFaHRing>
0

>  <nFARing 2>
2

>  <nFAHRing 2>
2

>  <nRot>
6

>  <SLogP>
2.73

>  <SMR>
208.06

>  <TopoPSA(NO)>
164.82

>  <TopoPSA>
164.82

>  <JGI1>
0.25

>  <JGI2>
0.1

>  <JGI3>
0.07

>  <JGI4>
0.05

>  <JGI5>
0.03

>  <Diameter>
14

>  <Radius>
7

>  <TMWC10>
205.8

>  <TSRW10>
113.15

>  <MW>
753.41

>  <AMW>
6.85

>  <WPath>
9633

>  <WPol>
134

>  <Zagreb1>
332

>  <Zagreb2>
433

>  <mZagreb2>
11.76

>  <yes>


>  <nAR-cont>
0

>  <nHA-cont>
0

>  <MWHBN>
0.546481632

>  <MWHBN-cont>
0

>  <TPSA-cont>
0

>  <pka_cont>
0.97

>  <yes.1>


>  <BBB_SCORE>
0.485

>  <MMFF94 Energy>
311.82

$$$$
Compound 1272
Actelion Java MolfileCreator 2.0

  0  0  0  0  0  0              0 V3000
M  V30 BEGIN CTAB
M  V30 COUNTS 30 30 0 0 0
M  V30 BEGIN ATOM
M  V30 1 Br -0.3172 -1.0313 3.2555 0
M  V30 2 C 0.1663 0.5939 2.3972 0
M  V30 3 C -0.1435 0.8691 1.0518 0
M  V30 4 C 0.8417 1.5353 3.1832 0
M  V30 5 C 0.2138 2.1342 0.5417 0
M  V30 6 C -0.8632 -0.104 0.145 0
M  V30 7 C 1.2055 2.7684 2.6479 0
M  V30 8 C 0.8861 3.0705 1.3296 0
M  V30 9 N -0.0015 -0.9514 -0.8312 0 CHG=1
M  V30 10 C -0.8844 -2.0109 -1.5279 0
M  V30 11 C 0.6971 -0.076 -1.8631 0
M  V30 12 C 1.0773 -1.7182 -0.0593 0
M  V30 13 C -1.99 -1.422 -2.3898 0
M  V30 14 H 1.0816 1.3244 4.2244 0
M  V30 15 H -0.042 2.4205 -0.4771 0
M  V30 16 H -1.5632 0.4676 -0.4763 0
M  V30 17 H -1.4771 -0.8095 0.7138 0
M  V30 18 H 1.7233 3.4994 3.2662 0
M  V30 19 H 1.1517 4.0437 0.9197 0
M  V30 20 H -1.312 -2.6432 -0.741 0
M  V30 21 H -0.2199 -2.6276 -2.1445 0
M  V30 22 H -0.0359 0.5982 -2.3129 0
M  V30 23 H 1.1397 -0.7249 -2.6249 0
M  V30 24 H 1.4858 0.497 -1.3683 0
M  V30 25 H 1.6529 -2.3128 -0.776 0
M  V30 26 H 1.74 -1.006 0.4386 0
M  V30 27 H 0.5869 -2.3775 0.6607 0
M  V30 28 H -2.7098 -0.8462 -1.8019 0
M  V30 29 H -1.5979 -0.7856 -3.1875 0
M  V30 30 H -2.5468 -2.2344 -2.8695 0
M  V30 END ATOM
M  V30 BEGIN BOND
M  V30 1 1 1 2
M  V30 2 2 2 3
M  V30 3 1 2 4
M  V30 4 1 3 5
M  V30 5 1 3 6
M  V30 6 2 4 7
M  V30 7 2 5 8
M  V30 8 1 6 9
M  V30 9 1 9 10
M  V30 10 1 9 11
M  V30 11 1 9 12
M  V30 12 1 10 13
M  V30 13 1 7 8
M  V30 14 1 4 14
M  V30 15 1 5 15
M  V30 16 1 6 16
M  V30 17 1 6 17
M  V30 18 1 7 18
M  V30 19 1 8 19
M  V30 20 1 10 20
M  V30 21 1 10 21
M  V30 22 1 11 22
M  V30 23 1 11 23
M  V30 24 1 11 24
M  V30 25 1 12 25
M  V30 26 1 12 26
M  V30 27 1 12 27
M  V30 28 1 13 28
M  V30 29 1 13 29
M  V30 30 1 13 30
M  V30 END BOND
M  V30 END CTAB
M  END
>  <Column 1>
1525

>  <level_0>
1678

>  <index>
1678

>  <Unnamed: 0>
1678

>  <NO.>
1690

>  <Name>
bretylium

>  <IUPAC_name>
(2-bromophenyl)methyl-ethyl-dimethylazanium;4-methylbenzenesulfonate

>  <SMILES>
CC[N+](C)(C)Cc1ccccc1Br

>  <CID>
2431

>  <logBB>


>  <BBB+/BBB->
BBB-

>  <Inchi>
InChI=1S/C11H17BrN/c1-4-13(2-3)9-10-7-5-6-8-11(10)12/h5-8H-4-9H2-1-3H3/q+1

>  <threshold>
-1

>  <reference>
R1|R13|R28|R9|R27|R27|R27|R30|R36|

>  <group>
B

>  <Class>
-1

>  <ABC>
9.58

>  <ABCGG>
9.1

>  <nAcid>
0

>  <nBase>
1

>  <nAromAtom>
6

>  <nAromBond>
6

>  <nAtom>
30

>  <nHeavyAtom>
13

>  <nSpiro>
0

>  <nBridgehead>
0

>  <nHetero>
2

>  <nN>
1

>  <nO>
0

>  <nF>
0

>  <BalabanJ>
2.42

>  <BertzCT>
281.17

>  <nBonds>
30

>  <nBondsO>
13

>  <nBondsS>
24

>  <nBondsD>
0

>  <nBondsT>
0

>  <nBondsA>
6

>  <nBondsM>
6

>  <nBondsKS>
27

>  <nBondsKD>
3

>  <RNCG>
0.53

>  <RPCG>
0.07

>  <FCSP3>
0.45

>  <SZ>
20.83

>  <Sm>
20.25

>  <Sv>
17.65

>  <Sse>
29.38

>  <Sp>
20.27

>  <Si>
33.87

>  <MZ>
0.69

>  <Mm>
0.67

>  <Mv>
0.59

>  <Mse>
0.98

>  <Mp>
0.68

>  <Mi>
1.13

>  <NsCH3>
3

>  <NdCH2>
0

>  <NssCH2>
2

>  <NtCH>
0

>  <NdsCH>
0

>  <NaaCH>
4

>  <NsssCH>
0

>  <NddC>
0

>  <NtsC>
0

>  <NdssC>
0

>  <NaasC>
2

>  <NaaaC>
0

>  <NssssC>
0

>  <NsNH3>
0

>  <NsNH2>
0

>  <NssNH2>
0

>  <NdNH>
0

>  <NssNH>
0

>  <NaaNH>
0

>  <NtN>
0

>  <NsssNH>
0

>  <NdsN>
0

>  <NaaN>
0

>  <NsssN>
0

>  <NddsN>
0

>  <NaasN>
0

>  <NssssN>
1

>  <NsOH>
0

>  <NdO>
0

>  <NssO>
0

>  <NaaO>
0

>  <NsF>
0

>  <NsSiH3>
0

>  <NssSiH2>
0

>  <NsssSiH>
0

>  <NssssSi>
0

>  <NsPH2>
0

>  <NssPH>
0

>  <NsssP>
0

>  <NdsssP>
0

>  <NsssssP>
0

>  <NsSH>
0

>  <NdS>
0

>  <NssS>
0

>  <NaaS>
0

>  <NdssS>
0

>  <NddssS>
0

>  <NsCl>
0

>  <NsBr>
1

>  <NsI>
0

>  <fragCpx>
13.02

>  <fMF>
0.2

>  <nHBAcc>
0

>  <nHBDon>
0

>  <Kier1>
11.08

>  <Kier2>
4.48

>  <Lipinski>
1

>  <GhoseFilter>
1

>  <FilterItLogS>
-4.68

>  <VMcGowan>
171.72

>  <LabuteASA>
89.09

>  <PEOE_VSA1>
4.48

>  <PEOE_VSA2>
0

>  <PEOE_VSA3>
0

>  <PEOE_VSA4>
0

>  <PEOE_VSA5>
0

>  <PEOE_VSA6>
34.13

>  <PEOE_VSA7>
12.99

>  <PEOE_VSA8>
10.04

>  <PEOE_VSA9>
20.64

>  <PEOE_VSA10>
6.54

>  <PEOE_VSA11>
0

>  <PEOE_VSA12>
0

>  <PEOE_VSA13>
0

>  <SMR_VSA1>
4.48

>  <SMR_VSA2>
0

>  <SMR_VSA3>
0

>  <SMR_VSA4>
0

>  <SMR_VSA5>
13.47

>  <SMR_VSA6>
20.64

>  <SMR_VSA7>
34.3

>  <SMR_VSA8>
0

>  <SMR_VSA9>
0

>  <SlogP_VSA1>
0

>  <SlogP_VSA2>
25.12

>  <SlogP_VSA3>
6.54

>  <SlogP_VSA4>
0

>  <SlogP_VSA5>
12.49

>  <SlogP_VSA6>
28.74

>  <SlogP_VSA7>
0

>  <SlogP_VSA8>
0

>  <SlogP_VSA9>
0

>  <SlogP_VSA10>
0

>  <SlogP_VSA11>
0

>  <EState_VSA1>
0

>  <EState_VSA2>
0

>  <EState_VSA3>
0

>  <EState_VSA4>
17.57

>  <EState_VSA5>
10.04

>  <EState_VSA6>
0

>  <EState_VSA7>
0

>  <EState_VSA8>
61.21

>  <EState_VSA9>
0

>  <EState_VSA10>
0

>  <VSA_EState1>
2.25

>  <VSA_EState2>
0

>  <VSA_EState3>
0

>  <VSA_EState4>
1.38

>  <VSA_EState5>
0

>  <VSA_EState6>
8.43

>  <VSA_EState7>
0

>  <VSA_EState8>
4.45

>  <VSA_EState9>
4.5

>  <apol>
33.86

>  <bpol>
20.71

>  <nRing>
1

>  <nHRing>
0

>  <naRing>
1

>  <naHRing>
0

>  <nARing 2>
0

>  <nAHRing 2>
0

>  <nFRing>
0

>  <nFHRing>
0

>  <nFaRing>
0

>  <nFaHRing>
0

>  <nFARing 2>
0

>  <nFAHRing 2>
0

>  <nRot>
3

>  <SLogP>
3.05

>  <SMR>
60.5

>  <TopoPSA(NO)>
0

>  <TopoPSA>
0

>  <JGI1>
0.31

>  <JGI2>
0.1

>  <JGI3>
0.05

>  <JGI4>
0.07

>  <JGI5>
0.02

>  <Diameter>
7

>  <Radius>
4

>  <TMWC10>
92.9

>  <TSRW10>
43.89

>  <MW>
242.05

>  <AMW>
8.07

>  <WPath>
248

>  <WPol>
16

>  <Zagreb1>
62

>  <Zagreb2>
68

>  <mZagreb2>
2.94

>  <yes>


>  <nAR-cont>
0.336376

>  <nHA-cont>
0.841215992

>  <MWHBN>
0

>  <MWHBN-cont>
0

>  <TPSA-cont>
0

>  <pka_cont>
0.97

>  <yes.1>


>  <BBB_SCORE>
1.662591992

>  <MMFF94 Energy>
28.111

$$$$
Compound 1273
Actelion Java MolfileCreator 2.0

  0  0  0  0  0  0              0 V3000
M  V30 BEGIN CTAB
M  V30 COUNTS 51 53 0 0 0
M  V30 BEGIN ATOM
M  V30 1 O -2.3818 2.3023 0.9522 0
M  V30 2 C -1.437 1.8819 0.2949 0
M  V30 3 O -1.2248 0.5529 0.0426 0
M  V30 4 C -0.3312 2.7617 -0.2811 0
M  V30 5 C -2.2168 -0.3092 0.6064 0
M  V30 6 C 0.9464 2.5721 0.5037 0
M  V30 7 C -0.1426 2.5121 -1.7588 0
M  V30 8 C -1.8813 -1.7847 0.3397 0
M  V30 9 C 2.0508 1.9627 -0.0956 0
M  V30 10 C 1.0351 2.9805 1.8445 0
M  V30 11 C 1.0269 1.9044 -2.2214 0
M  V30 12 C -1.1407 2.8659 -2.6811 0
M  V30 13 N -0.6429 -2.3473 1.1028 0 CHG=1
M  V30 14 O 2.0631 1.5336 -1.3997 0
M  V30 15 C 3.2217 1.7471 0.6334 0
M  V30 16 C 2.208 2.769 2.5701 0
M  V30 17 C 1.1932 1.635 -3.5808 0
M  V30 18 C -0.9696 2.6016 -4.0404 0
M  V30 19 C -0.4872 -3.86 0.7877 0
M  V30 20 C 0.681 -1.6314 0.7066 0
M  V30 21 C -0.8084 -2.1466 2.6146 0
M  V30 22 C 3.3004 2.1502 1.9658 0
M  V30 23 C 0.1954 1.9838 -4.4899 0
M  V30 24 C -1.5616 -4.7423 1.4079 0
M  V30 25 C 1.0125 -1.7177 -0.7742 0
M  V30 26 H -0.6391 3.8104 -0.1674 0
M  V30 27 H -3.1758 -0.089 0.1213 0
M  V30 28 H -2.3249 -0.1195 1.6793 0
M  V30 29 H -2.738 -2.3878 0.653 0
M  V30 30 H -1.7039 -1.9604 -0.7253 0
M  V30 31 H 0.1954 3.4768 2.3301 0
M  V30 32 H -2.0552 3.3565 -2.3509 0
M  V30 33 H 4.0833 1.2859 0.1567 0
M  V30 34 H 2.2766 3.103 3.6035 0
M  V30 35 H 2.108 1.1681 -3.937 0
M  V30 36 H -1.7416 2.886 -4.7524 0
M  V30 37 H 0.4977 -4.1668 1.1572 0
M  V30 38 H -0.5086 -3.9683 -0.301 0
M  V30 39 H 0.6136 -0.5934 1.0403 0
M  V30 40 H 1.4781 -2.1068 1.2911 0
M  V30 41 H -0.0376 -2.731 3.1258 0
M  V30 42 H -0.682 -1.0857 2.8479 0
M  V30 43 H -1.8089 -2.4764 2.9066 0
M  V30 44 H 4.2209 2.0027 2.5261 0
M  V30 45 H 0.3322 1.7868 -5.5507 0
M  V30 46 H -1.3946 -5.7814 1.1037 0
M  V30 47 H -2.5681 -4.4705 1.0817 0
M  V30 48 H -1.5293 -4.723 2.5009 0
M  V30 49 H 1.1216 -2.7498 -1.1162 0
M  V30 50 H 0.2669 -1.2202 -1.3987 0
M  V30 51 H 1.9719 -1.2238 -0.9591 0
M  V30 END ATOM
M  V30 BEGIN BOND
M  V30 1 2 1 2
M  V30 2 1 2 3
M  V30 3 1 2 4
M  V30 4 1 3 5
M  V30 5 1 4 6
M  V30 6 1 4 7
M  V30 7 1 5 8
M  V30 8 2 6 9
M  V30 9 1 6 10
M  V30 10 2 7 11
M  V30 11 1 7 12
M  V30 12 1 8 13
M  V30 13 1 9 14
M  V30 14 1 9 15
M  V30 15 2 10 16
M  V30 16 1 11 17
M  V30 17 2 12 18
M  V30 18 1 13 19
M  V30 19 1 13 20
M  V30 20 1 13 21
M  V30 21 2 15 22
M  V30 22 2 17 23
M  V30 23 1 19 24
M  V30 24 1 20 25
M  V30 25 1 11 14
M  V30 26 1 16 22
M  V30 27 1 18 23
M  V30 28 1 4 26
M  V30 29 1 5 27
M  V30 30 1 5 28
M  V30 31 1 8 29
M  V30 32 1 8 30
M  V30 33 1 10 31
M  V30 34 1 12 32
M  V30 35 1 15 33
M  V30 36 1 16 34
M  V30 37 1 17 35
M  V30 38 1 18 36
M  V30 39 1 19 37
M  V30 40 1 19 38
M  V30 41 1 20 39
M  V30 42 1 20 40
M  V30 43 1 21 41
M  V30 44 1 21 42
M  V30 45 1 21 43
M  V30 46 1 22 44
M  V30 47 1 23 45
M  V30 48 1 24 46
M  V30 49 1 24 47
M  V30 50 1 24 48
M  V30 51 1 25 49
M  V30 52 1 25 50
M  V30 53 1 25 51
M  V30 END BOND
M  V30 END CTAB
M  END
>  <Column 1>
1526

>  <level_0>
1679

>  <index>
1679

>  <Unnamed: 0>
1679

>  <NO.>
1691

>  <Name>
methantheline

>  <IUPAC_name>
diethyl-methyl-[2-(9h-xanthene-9-carbonyloxy)ethyl]azanium

>  <SMILES>
CC[N+](C)(CC)CCOC(=O)C1c2ccccc2Oc2ccccc21

>  <CID>
4097

>  <logBB>


>  <BBB+/BBB->
BBB-

>  <Inchi>
InChI=1S/C21H26NO3/c1-4-22(3-5-2)14-15-24-21(23)20-16-10-6-8-12-18(16)25-19-13-9-7-11-17(19)20/h6-13-20H-4-5-14-15H2-1-3H3/q+1

>  <threshold>
-1

>  <reference>
R1|R13|R14|R23|R27|R30|

>  <group>
B

>  <Class>
1

>  <ABC>
19.16

>  <ABCGG>
15.54

>  <nAcid>
0

>  <nBase>
1

>  <nAromAtom>
12

>  <nAromBond>
12

>  <nAtom>
51

>  <nHeavyAtom>
25

>  <nSpiro>
0

>  <nBridgehead>
0

>  <nHetero>
4

>  <nN>
1

>  <nO>
3

>  <nF>
0

>  <BalabanJ>
1.63

>  <BertzCT>
706.81

>  <nBonds>
53

>  <nBondsO>
27

>  <nBondsS>
40

>  <nBondsD>
1

>  <nBondsT>
0

>  <nBondsA>
12

>  <nBondsM>
13

>  <nBondsKS>
46

>  <nBondsKD>
7

>  <RNCG>
0.24

>  <RPCG>
0.11

>  <FCSP3>
0.38

>  <SZ>
30.5

>  <Sm>
28.34

>  <Sv>
30.95

>  <Sse>
50.7

>  <Sp>
33.48

>  <Si>
57.32

>  <MZ>
0.6

>  <Mm>
0.56

>  <Mv>
0.61

>  <Mse>
0.99

>  <Mp>
0.66

>  <Mi>
1.12

>  <NsCH3>
3

>  <NdCH2>
0

>  <NssCH2>
4

>  <NtCH>
0

>  <NdsCH>
0

>  <NaaCH>
8

>  <NsssCH>
1

>  <NddC>
0

>  <NtsC>
0

>  <NdssC>
1

>  <NaasC>
4

>  <NaaaC>
0

>  <NssssC>
0

>  <NsNH3>
0

>  <NsNH2>
0

>  <NssNH2>
0

>  <NdNH>
0

>  <NssNH>
0

>  <NaaNH>
0

>  <NtN>
0

>  <NsssNH>
0

>  <NdsN>
0

>  <NaaN>
0

>  <NsssN>
0

>  <NddsN>
0

>  <NaasN>
0

>  <NssssN>
1

>  <NsOH>
0

>  <NdO>
1

>  <NssO>
2

>  <NaaO>
0

>  <NsF>
0

>  <NsSiH3>
0

>  <NssSiH2>
0

>  <NsssSiH>
0

>  <NssssSi>
0

>  <NsPH2>
0

>  <NssPH>
0

>  <NsssP>
0

>  <NdsssP>
0

>  <NsssssP>
0

>  <NsSH>
0

>  <NdS>
0

>  <NssS>
0

>  <NaaS>
0

>  <NdssS>
0

>  <NddssS>
0

>  <NsCl>
0

>  <NsBr>
0

>  <NsI>
0

>  <fragCpx>
129.04

>  <fMF>
0.27

>  <nHBAcc>
3

>  <nHBDon>
0

>  <Kier1>
19.75

>  <Kier2>
8.79

>  <Lipinski>
1

>  <GhoseFilter>
1

>  <FilterItLogS>
-5.98

>  <VMcGowan>
273.81

>  <LabuteASA>
149.13

>  <PEOE_VSA1>
13.96

>  <PEOE_VSA2>
4.79

>  <PEOE_VSA3>
0

>  <PEOE_VSA4>
0

>  <PEOE_VSA5>
0

>  <PEOE_VSA6>
36.4

>  <PEOE_VSA7>
25.98

>  <PEOE_VSA8>
11.13

>  <PEOE_VSA9>
20.14

>  <PEOE_VSA10>
30.57

>  <PEOE_VSA11>
0

>  <PEOE_VSA12>
0

>  <PEOE_VSA13>
0

>  <SMR_VSA1>
18.75

>  <SMR_VSA2>
0

>  <SMR_VSA3>
0

>  <SMR_VSA4>
0

>  <SMR_VSA5>
19.77

>  <SMR_VSA6>
33.29

>  <SMR_VSA7>
59.66

>  <SMR_VSA8>
0

>  <SMR_VSA9>
11.5

>  <SlogP_VSA1>
4.74

>  <SlogP_VSA2>
43.74

>  <SlogP_VSA3>
9.53

>  <SlogP_VSA4>
0

>  <SlogP_VSA5>
30.89

>  <SlogP_VSA6>
48.53

>  <SlogP_VSA7>
0

>  <SlogP_VSA8>
0

>  <SlogP_VSA9>
0

>  <SlogP_VSA10>
0

>  <SlogP_VSA11>
11.5

>  <EState_VSA1>
5.92

>  <EState_VSA2>
5.97

>  <EState_VSA3>
6.61

>  <EState_VSA4>
46.74

>  <EState_VSA5>
0

>  <EState_VSA6>
0

>  <EState_VSA7>
48.53

>  <EState_VSA8>
20.9

>  <EState_VSA9>
9.47

>  <EState_VSA10>
4.79

>  <VSA_EState1>
12.52

>  <VSA_EState2>
12.9

>  <VSA_EState3>
0

>  <VSA_EState4>
1.74

>  <VSA_EState5>
0.82

>  <VSA_EState6>
15.37

>  <VSA_EState7>
0

>  <VSA_EState8>
7.63

>  <VSA_EState9>
2.19

>  <apol>
55.91

>  <bpol>
32.7

>  <nRing>
3

>  <nHRing>
1

>  <naRing>
2

>  <naHRing>
0

>  <nARing 2>
1

>  <nAHRing 2>
1

>  <nFRing>
1

>  <nFHRing>
1

>  <nFaRing>
0

>  <nFaHRing>
0

>  <nFARing 2>
1

>  <nFAHRing 2>
1

>  <nRot>
6

>  <SLogP>
3.95

>  <SMR>
97.89

>  <TopoPSA(NO)>
35.53

>  <TopoPSA>
35.53

>  <JGI1>
0.19

>  <JGI2>
0.08

>  <JGI3>
0.05

>  <JGI4>
0.04

>  <JGI5>
0.02

>  <Diameter>
11

>  <Radius>
6

>  <TMWC10>
127.73

>  <TSRW10>
59.97

>  <MW>
340.19

>  <AMW>
6.67

>  <WPath>
1504

>  <WPol>
42

>  <Zagreb1>
130

>  <Zagreb2>
154

>  <mZagreb2>
5.68

>  <yes>


>  <nAR-cont>
0.816016

>  <nHA-cont>
0.921834225

>  <MWHBN>
0.162652403

>  <MWHBN-cont>
0.96112905

>  <TPSA-cont>
0.751978537

>  <pka_cont>
0.97

>  <yes.1>


>  <BBB_SCORE>
5.168500874

>  <MMFF94 Energy>
96.919

$$$$
Compound 1274
Actelion Java MolfileCreator 2.0

  0  0  0  0  0  0              0 V3000
M  V30 BEGIN CTAB
M  V30 COUNTS 54 56 0 0 0
M  V30 BEGIN ATOM
M  V30 1 O -3.6455 -1.9799 -0.7124 0
M  V30 2 C -2.4819 -1.8314 -0.0017 0
M  V30 3 C -3.8972 -1.0671 -1.7722 0
M  V30 4 C -2.321 -2.6639 1.1083 0
M  V30 5 C -1.4682 -0.925 -0.3188 0
M  V30 6 O -3.3496 -3.5344 1.3658 0
M  V30 7 C -1.1539 -2.5596 1.875 0
M  V30 8 C -0.2788 -0.8091 0.4492 0
M  V30 9 C -3.2308 -4.3993 2.4856 0
M  V30 10 C -0.1125 -1.64 1.5731 0
M  V30 11 C 0.7483 0.1076 0.1131 0
M  V30 12 C 1.0763 -1.5134 2.3461 0
M  V30 13 N 1.875 0.2022 0.8715 0 CHG=1
M  V30 14 C 0.6688 0.9939 -1.0625 0
M  V30 15 C 2.0447 -0.5327 2.0034 0
M  V30 16 C 1.3153 -2.4118 3.5523 0
M  V30 17 N 2.9756 1.1499 0.4303 0 CHG=-1
M  V30 18 C 0.0517 2.2492 -0.9731 0
M  V30 19 C 1.1684 0.5849 -2.3104 0
M  V30 20 C 3.2771 -0.3085 2.845 0
M  V30 21 C 0.6551 -1.8773 4.8165 0
M  V30 22 C -0.0481 3.0696 -2.0997 0
M  V30 23 C 1.0477 1.4015 -3.4428 0
M  V30 24 O -0.6932 4.2723 -1.9406 0
M  V30 25 C 0.4274 2.6493 -3.351 0
M  V30 26 C 0.2646 5.3253 -1.8239 0
M  V30 27 O 0.235 3.5111 -4.3981 0
M  V30 28 C 0.7188 3.1088 -5.6719 0
M  V30 29 H -3.9142 -0.0334 -1.4109 0
M  V30 30 H -4.8877 -1.2927 -2.1792 0
M  V30 31 H -3.1697 -1.1935 -2.5805 0
M  V30 32 H -1.5886 -0.2838 -1.1875 0
M  V30 33 H -1.0494 -3.2026 2.7408 0
M  V30 34 H -2.3742 -5.0724 2.3758 0
M  V30 35 H -4.1338 -5.0158 2.5296 0
M  V30 36 H -3.1715 -3.8304 3.4193 0
M  V30 37 H 2.3886 -2.5483 3.7264 0
M  V30 38 H 0.9652 -3.4293 3.3438 0
M  V30 39 H 3.8964 0.7406 0.6265 0
M  V30 40 H -0.3434 2.599 -0.0225 0
M  V30 41 H 1.6653 -0.3793 -2.4024 0
M  V30 42 H 4.0765 -0.9808 2.5197 0
M  V30 43 H 3.0806 -0.4765 3.9074 0
M  V30 44 H 3.6327 0.7244 2.7932 0
M  V30 45 H 0.8637 -2.5432 5.66 0
M  V30 46 H -0.4315 -1.8053 4.7062 0
M  V30 47 H 1.0277 -0.8802 5.0727 0
M  V30 48 H 1.4511 1.0292 -4.3783 0
M  V30 49 H 0.9662 5.1369 -1.0032 0
M  V30 50 H -0.2798 6.2468 -1.5959 0
M  V30 51 H 0.8087 5.4804 -2.7611 0
M  V30 52 H 1.8061 2.9801 -5.659 0
M  V30 53 H 0.4875 3.9066 -6.3844 0
M  V30 54 H 0.2156 2.1994 -6.0167 0
M  V30 END ATOM
M  V30 BEGIN BOND
M  V30 1 1 1 2
M  V30 2 1 1 3
M  V30 3 1 2 4
M  V30 4 2 2 5
M  V30 5 1 4 6
M  V30 6 2 4 7
M  V30 7 1 5 8
M  V30 8 1 6 9
M  V30 9 1 7 10
M  V30 10 2 8 11
M  V30 11 2 10 12
M  V30 12 1 11 13
M  V30 13 1 11 14
M  V30 14 1 12 15
M  V30 15 1 12 16
M  V30 16 1 13 17
M  V30 17 2 14 18
M  V30 18 1 14 19
M  V30 19 1 15 20
M  V30 20 1 16 21
M  V30 21 1 18 22
M  V30 22 2 19 23
M  V30 23 1 22 24
M  V30 24 2 22 25
M  V30 25 1 24 26
M  V30 26 1 25 27
M  V30 27 1 27 28
M  V30 28 1 8 10
M  V30 29 2 13 15
M  V30 30 1 23 25
M  V30 31 1 3 29
M  V30 32 1 3 30
M  V30 33 1 3 31
M  V30 34 1 5 32
M  V30 35 1 7 33
M  V30 36 1 9 34
M  V30 37 1 9 35
M  V30 38 1 9 36
M  V30 39 1 16 37
M  V30 40 1 16 38
M  V30 41 1 17 39
M  V30 42 1 18 40
M  V30 43 1 19 41
M  V30 44 1 20 42
M  V30 45 1 20 43
M  V30 46 1 20 44
M  V30 47 1 21 45
M  V30 48 1 21 46
M  V30 49 1 21 47
M  V30 50 1 23 48
M  V30 51 1 26 49
M  V30 52 1 26 50
M  V30 53 1 26 51
M  V30 54 1 28 52
M  V30 55 1 28 53
M  V30 56 1 28 54
M  V30 END BOND
M  V30 END CTAB
M  END
>  <Column 1>
1527

>  <level_0>
1680

>  <index>
1680

>  <Unnamed: 0>
1680

>  <NO.>
1692

>  <Name>
tofisoline

>  <IUPAC_name>
[1-(3-4-dimethoxyphenyl)-4-ethyl-6-7-dimethoxy-3-methylisoquinolin-2-ium-2-yl]azanide

>  <SMILES>
CCc1c(C)[n+]([NH-])c(-c2ccc(OC)c(OC)c2)c2cc(OC)c(OC)cc12

>  <CID>
72149

>  <logBB>


>  <BBB+/BBB->
BBB+

>  <Inchi>
InChI=1S/C22H26N2O4/c1-7-15-13(2)24(23)22(14-8-9-18(25-3)19(10-14)26-4)17-12-21(28-6)20(27-5)11-16(15)17/h8-12-23H-7H2-1-6H3

>  <threshold>
-1

>  <reference>
R1|R6|R27|R30|

>  <group>
B

>  <Class>
1

>  <ABC>
21.07

>  <ABCGG>
17.81

>  <nAcid>
0

>  <nBase>
0

>  <nAromAtom>
16

>  <nAromBond>
17

>  <nAtom>
54

>  <nHeavyAtom>
28

>  <nSpiro>
0

>  <nBridgehead>
0

>  <nHetero>
6

>  <nN>
2

>  <nO>
4

>  <nF>
0

>  <BalabanJ>
1.87

>  <BertzCT>
1031.2

>  <nBonds>
56

>  <nBondsO>
30

>  <nBondsS>
39

>  <nBondsD>
0

>  <nBondsT>
0

>  <nBondsA>
17

>  <nBondsM>
17

>  <nBondsKS>
48

>  <nBondsKD>
8

>  <RNCG>
0.17

>  <RPCG>
0.08

>  <FCSP3>
0.32

>  <SZ>
34

>  <Sm>
31.84

>  <Sv>
33.42

>  <Sse>
54.19

>  <Sp>
35.62

>  <Si>
60.82

>  <MZ>
0.63

>  <Mm>
0.59

>  <Mv>
0.62

>  <Mse>
1

>  <Mp>
0.66

>  <Mi>
1.13

>  <NsCH3>
6

>  <NdCH2>
0

>  <NssCH2>
1

>  <NtCH>
0

>  <NdsCH>
0

>  <NaaCH>
5

>  <NsssCH>
0

>  <NddC>
0

>  <NtsC>
0

>  <NdssC>
0

>  <NaasC>
8

>  <NaaaC>
2

>  <NssssC>
0

>  <NsNH3>
0

>  <NsNH2>
0

>  <NssNH2>
0

>  <NdNH>
0

>  <NssNH>
0

>  <NaaNH>
0

>  <NtN>
0

>  <NsssNH>
0

>  <NdsN>
0

>  <NaaN>
0

>  <NsssN>
0

>  <NddsN>
0

>  <NaasN>
1

>  <NssssN>
0

>  <NsOH>
0

>  <NdO>
0

>  <NssO>
4

>  <NaaO>
0

>  <NsF>
0

>  <NsSiH3>
0

>  <NssSiH2>
0

>  <NsssSiH>
0

>  <NssssSi>
0

>  <NsPH2>
0

>  <NssPH>
0

>  <NsssP>
0

>  <NdsssP>
0

>  <NsssssP>
0

>  <NsSH>
0

>  <NdS>
0

>  <NssS>
0

>  <NaaS>
0

>  <NdssS>
0

>  <NddssS>
0

>  <NsCl>
0

>  <NsBr>
0

>  <NsI>
0

>  <fragCpx>
144.06

>  <fMF>
0.3

>  <nHBAcc>
4

>  <nHBDon>
0

>  <Kier1>
22.68

>  <Kier2>
9.87

>  <Lipinski>
1

>  <GhoseFilter>
1

>  <FilterItLogS>
-6.31

>  <VMcGowan>
297.3

>  <LabuteASA>
164.92

>  <PEOE_VSA1>
24.79

>  <PEOE_VSA2>
0

>  <PEOE_VSA3>
4.68

>  <PEOE_VSA4>
0

>  <PEOE_VSA5>
0

>  <PEOE_VSA6>
6.92

>  <PEOE_VSA7>
36.75

>  <PEOE_VSA8>
17.87

>  <PEOE_VSA9>
39.39

>  <PEOE_VSA10>
0

>  <PEOE_VSA11>
28.69

>  <PEOE_VSA12>
5.69

>  <PEOE_VSA13>
0

>  <SMR_VSA1>
23.62

>  <SMR_VSA2>
0

>  <SMR_VSA3>
0

>  <SMR_VSA4>
0

>  <SMR_VSA5>
20.27

>  <SMR_VSA6>
28.44

>  <SMR_VSA7>
47.43

>  <SMR_VSA8>
0

>  <SMR_VSA9>
34.26

>  <SlogP_VSA1>
23.62

>  <SlogP_VSA2>
28.44

>  <SlogP_VSA3>
6.42

>  <SlogP_VSA4>
6.92

>  <SlogP_VSA5>
18.18

>  <SlogP_VSA6>
30.33

>  <SlogP_VSA7>
0

>  <SlogP_VSA8>
27.87

>  <SlogP_VSA9>
0

>  <SlogP_VSA10>
0

>  <SlogP_VSA11>
23

>  <EState_VSA1>
0

>  <EState_VSA2>
0

>  <EState_VSA3>
23

>  <EState_VSA4>
39.71

>  <EState_VSA5>
4.68

>  <EState_VSA6>
28.44

>  <EState_VSA7>
37.26

>  <EState_VSA8>
6.92

>  <EState_VSA9>
24.79

>  <EState_VSA10>
0

>  <VSA_EState1>
23.33

>  <VSA_EState2>
0

>  <VSA_EState3>
1.97

>  <VSA_EState4>
3.6

>  <VSA_EState5>
11.35

>  <VSA_EState6>
9.6

>  <VSA_EState7>
0.81

>  <VSA_EState8>
4.06

>  <VSA_EState9>
6.46

>  <apol>
59.48

>  <bpol>
33.6

>  <nRing>
3

>  <nHRing>
1

>  <naRing>
3

>  <naHRing>
1

>  <nARing 2>
0

>  <nAHRing 2>
0

>  <nFRing>
1

>  <nFHRing>
1

>  <nFaRing>
1

>  <nFaHRing>
1

>  <nFARing 2>
0

>  <nFAHRing 2>
0

>  <nRot>
6

>  <SLogP>
4.51

>  <SMR>
109.62

>  <TopoPSA(NO)>
64.6

>  <TopoPSA>
64.6

>  <JGI1>
0.18

>  <JGI2>
0.09

>  <JGI3>
0.05

>  <JGI4>
0.05

>  <JGI5>
0.03

>  <Diameter>
12

>  <Radius>
6

>  <TMWC10>
135.78

>  <TSRW10>
63.73

>  <MW>
382.19

>  <AMW>
7.08

>  <WPath>
1854

>  <WPol>
54

>  <Zagreb1>
146

>  <Zagreb2>
179

>  <mZagreb2>
6.58

>  <yes>


>  <nAR-cont>
0.336376

>  <nHA-cont>
0.82432561

>  <MWHBN>
0.204606926

>  <MWHBN-cont>
0.999997556

>  <TPSA-cont>
0.549051886

>  <pka_cont>
0.97

>  <yes.1>


>  <BBB_SCORE>
4.243801715

>  <MMFF94 Energy>
138.85

$$$$
Compound 1275
Actelion Java MolfileCreator 2.0

  0  0  0  0  0  0              0 V3000
M  V30 BEGIN CTAB
M  V30 COUNTS 44 46 0 0 0
M  V30 BEGIN ATOM
M  V30 1 O -0.7142 0.3174 1.1906 0
M  V30 2 C 0.1936 0.024 0.4179 0
M  V30 3 C 1.3919 -0.6822 0.8793 0
M  V30 4 C 0.1456 0.3229 -1.0994 0 CFG=2
M  V30 5 C 2.4663 -0.8888 0.0372 0
M  V30 6 C 1.7358 -1.2454 2.1455 0
M  V30 7 C 1.5616 0.6774 -1.6229 0
M  V30 8 C -0.8251 1.4788 -1.4099 0
M  V30 9 N 3.4364 -1.5611 0.7226 0
M  V30 10 C 2.5713 -0.4551 -1.378 0
M  V30 11 C 3.012 -1.7808 2.0114 0
M  V30 12 C 0.8859 -1.2584 3.3792 0
M  V30 13 N -2.2222 1.0308 -1.5538 0
M  V30 14 C 3.8691 -2.4876 2.9992 0
M  V30 15 C 1.0446 0.0089 4.2051 0
M  V30 16 C -3.1556 2.1615 -1.3583 0
M  V30 17 C -2.4852 0.4244 -2.8765 0
M  V30 18 C -4.6165 1.7225 -1.5433 0
M  V30 19 C -3.9627 0.0239 -3.0231 0
M  V30 20 O -4.8256 1.1545 -2.8438 0
M  V30 21 H -0.176 -0.6018 -1.5936 0
M  V30 22 H 1.5256 0.8917 -2.6977 0
M  V30 23 H 1.9149 1.59 -1.1233 0
M  V30 24 H -0.5195 2.0109 -2.3204 0
M  V30 25 H -0.7533 2.2136 -0.5964 0
M  V30 26 H 4.3328 -1.8458 0.3485 0
M  V30 27 H 3.5834 -0.1061 -1.6091 0
M  V30 28 H 2.3484 -1.3021 -2.0369 0
M  V30 29 H 1.1486 -2.1243 3.9988 0
M  V30 30 H -0.1671 -1.3908 3.1063 0
M  V30 31 H 4.8858 -2.6332 2.6202 0
M  V30 32 H 3.4476 -3.4709 3.2305 0
M  V30 33 H 3.9363 -1.913 3.9285 0
M  V30 34 H 0.4122 -0.038 5.0973 0
M  V30 35 H 0.7582 0.8969 3.6319 0
M  V30 36 H 2.0821 0.1411 4.5304 0
M  V30 37 H -3.041 2.5713 -0.3481 0
M  V30 38 H -2.9282 2.9594 -2.0774 0
M  V30 39 H -2.2337 1.1393 -3.6708 0
M  V30 40 H -1.8704 -0.4694 -3.0213 0
M  V30 41 H -5.278 2.59 -1.4521 0
M  V30 42 H -4.9141 0.9953 -0.7781 0
M  V30 43 H -4.1405 -0.3697 -4.0288 0
M  V30 44 H -4.2363 -0.7594 -2.306 0
M  V30 END ATOM
M  V30 BEGIN BOND
M  V30 1 2 1 2
M  V30 2 1 2 3
M  V30 3 1 2 4
M  V30 4 2 3 5
M  V30 5 1 3 6
M  V30 6 1 4 7
M  V30 7 1 4 8
M  V30 8 1 5 9
M  V30 9 1 5 10
M  V30 10 2 6 11
M  V30 11 1 6 12
M  V30 12 1 8 13
M  V30 13 1 11 14
M  V30 14 1 12 15
M  V30 15 1 13 16
M  V30 16 1 13 17
M  V30 17 1 16 18
M  V30 18 1 17 19
M  V30 19 1 18 20
M  V30 20 1 7 10
M  V30 21 1 9 11
M  V30 22 1 19 20
M  V30 23 1 4 21
M  V30 24 1 7 22
M  V30 25 1 7 23
M  V30 26 1 8 24
M  V30 27 1 8 25
M  V30 28 1 9 26
M  V30 29 1 10 27
M  V30 30 1 10 28
M  V30 31 1 12 29
M  V30 32 1 12 30
M  V30 33 1 14 31
M  V30 34 1 14 32
M  V30 35 1 14 33
M  V30 36 1 15 34
M  V30 37 1 15 35
M  V30 38 1 15 36
M  V30 39 1 16 37
M  V30 40 1 16 38
M  V30 41 1 17 39
M  V30 42 1 17 40
M  V30 43 1 18 41
M  V30 44 1 18 42
M  V30 45 1 19 43
M  V30 46 1 19 44
M  V30 END BOND
M  V30 BEGIN COLLECTION
M  V30 MDLV30/STERAC1 ATOMS=(1 4)
M  V30 END COLLECTION
M  V30 END CTAB
M  END
>  <Column 1>
1528

>  <level_0>
1681

>  <index>
1681

>  <Unnamed: 0>
1681

>  <NO.>
1693

>  <Name>
molindone

>  <IUPAC_name>
3-ethyl-2-methyl-5-(morpholin-4-ylmethyl)-1-5-6-7-tetrahydroindol-4-one

>  <SMILES>
CCc1c(C)[nH]c2c1C(=O)C(CN1CCOCC1)CC2

>  <CID>
23897

>  <logBB>


>  <BBB+/BBB->
BBB+

>  <Inchi>
InChI=1S/C16H24N2O2/c1-3-13-11(2)17-14-5-4-12(16(19)15(13)14)10-18-6-8-20-9-7-18/h12-17H-3-10H2-1-2H3

>  <threshold>
-1

>  <reference>
R1|R19|R6|R14|R15|R23|R26|R27|R27|R30|

>  <group>
B

>  <Class>
1

>  <ABC>
15.57

>  <ABCGG>
13.15

>  <nAcid>
0

>  <nBase>
1

>  <nAromAtom>
5

>  <nAromBond>
5

>  <nAtom>
44

>  <nHeavyAtom>
20

>  <nSpiro>
0

>  <nBridgehead>
0

>  <nHetero>
4

>  <nN>
2

>  <nO>
2

>  <nF>
0

>  <BalabanJ>
1.63

>  <BertzCT>
500.82

>  <nBonds>
46

>  <nBondsO>
22

>  <nBondsS>
40

>  <nBondsD>
1

>  <nBondsT>
0

>  <nBondsA>
5

>  <nBondsM>
6

>  <nBondsKS>
43

>  <nBondsKD>
3

>  <RNCG>
0.25

>  <RPCG>
0.11

>  <FCSP3>
0.69

>  <SZ>
25

>  <Sm>
23.01

>  <Sv>
25.45

>  <Sse>
43.64

>  <Sp>
27.86

>  <Si>
49.98

>  <MZ>
0.57

>  <Mm>
0.52

>  <Mv>
0.58

>  <Mse>
0.99

>  <Mp>
0.63

>  <Mi>
1.14

>  <NsCH3>
2

>  <NdCH2>
0

>  <NssCH2>
8

>  <NtCH>
0

>  <NdsCH>
0

>  <NaaCH>
0

>  <NsssCH>
1

>  <NddC>
0

>  <NtsC>
0

>  <NdssC>
1

>  <NaasC>
4

>  <NaaaC>
0

>  <NssssC>
0

>  <NsNH3>
0

>  <NsNH2>
0

>  <NssNH2>
0

>  <NdNH>
0

>  <NssNH>
0

>  <NaaNH>
1

>  <NtN>
0

>  <NsssNH>
0

>  <NdsN>
0

>  <NaaN>
0

>  <NsssN>
1

>  <NddsN>
0

>  <NaasN>
0

>  <NssssN>
0

>  <NsOH>
0

>  <NdO>
1

>  <NssO>
1

>  <NaaO>
0

>  <NsF>
0

>  <NsSiH3>
0

>  <NssSiH2>
0

>  <NsssSiH>
0

>  <NssssSi>
0

>  <NsPH2>
0

>  <NssPH>
0

>  <NsssP>
0

>  <NdsssP>
0

>  <NsssssP>
0

>  <NsSH>
0

>  <NdS>
0

>  <NssS>
0

>  <NaaS>
0

>  <NdssS>
0

>  <NddssS>
0

>  <NsCl>
0

>  <NsBr>
0

>  <NsI>
0

>  <fragCpx>
104.04

>  <fMF>
0.36

>  <nHBAcc>
3

>  <nHBDon>
1

>  <Kier1>
14.92

>  <Kier2>
6.41

>  <Lipinski>
1

>  <GhoseFilter>
1

>  <FilterItLogS>
-4.14

>  <VMcGowan>
222.52

>  <LabuteASA>
120.04

>  <PEOE_VSA1>
9.72

>  <PEOE_VSA2>
9.69

>  <PEOE_VSA3>
0

>  <PEOE_VSA4>
0

>  <PEOE_VSA5>
0

>  <PEOE_VSA6>
6.92

>  <PEOE_VSA7>
31.75

>  <PEOE_VSA8>
42.5

>  <PEOE_VSA9>
13.21

>  <PEOE_VSA10>
0

>  <PEOE_VSA11>
5.78

>  <PEOE_VSA12>
0

>  <PEOE_VSA13>
0

>  <SMR_VSA1>
9.53

>  <SMR_VSA2>
0

>  <SMR_VSA3>
9.88

>  <SMR_VSA4>
5.92

>  <SMR_VSA5>
33.11

>  <SMR_VSA6>
32.85

>  <SMR_VSA7>
22.51

>  <SMR_VSA8>
0

>  <SMR_VSA9>
0

>  <SlogP_VSA1>
0

>  <SlogP_VSA2>
48.52

>  <SlogP_VSA3>
17.58

>  <SlogP_VSA4>
12.84

>  <SlogP_VSA5>
40.65

>  <SlogP_VSA6>
0

>  <SlogP_VSA7>
0

>  <SlogP_VSA8>
0

>  <SlogP_VSA9>
0

>  <SlogP_VSA10>
0

>  <SlogP_VSA11>
0

>  <EState_VSA1>
0

>  <EState_VSA2>
5.92

>  <EState_VSA3>
5.78

>  <EState_VSA4>
57.67

>  <EState_VSA5>
16.95

>  <EState_VSA6>
0

>  <EState_VSA7>
0

>  <EState_VSA8>
23.73

>  <EState_VSA9>
4.74

>  <EState_VSA10>
4.79

>  <VSA_EState1>
5.38

>  <VSA_EState2>
18.6

>  <VSA_EState3>
0

>  <VSA_EState4>
4.59

>  <VSA_EState5>
0.53

>  <VSA_EState6>
0

>  <VSA_EState7>
2.93

>  <VSA_EState8>
8.64

>  <VSA_EState9>
0

>  <apol>
46.53

>  <bpol>
28.96

>  <nRing>
3

>  <nHRing>
2

>  <naRing>
1

>  <naHRing>
1

>  <nARing 2>
2

>  <nAHRing 2>
1

>  <nFRing>
1

>  <nFHRing>
1

>  <nFaRing>
0

>  <nFaHRing>
0

>  <nFARing 2>
1

>  <nFAHRing 2>
1

>  <nRot>
3

>  <SLogP>
1.96

>  <SMR>
78.31

>  <TopoPSA(NO)>
45.33

>  <TopoPSA>
45.33

>  <JGI1>
0.16

>  <JGI2>
0.07

>  <JGI3>
0.06

>  <JGI4>
0.05

>  <JGI5>
0.02

>  <Diameter>
10

>  <Radius>
5

>  <TMWC10>
116.11

>  <TSRW10>
68.14

>  <MW>
276.18

>  <AMW>
6.28

>  <WPath>
799

>  <WPol>
32

>  <Zagreb1>
106

>  <Zagreb2>
127

>  <mZagreb2>
4.47

>  <yes>


>  <nAR-cont>
1

>  <nHA-cont>
0.999629945

>  <MWHBN>
0.240693232

>  <MWHBN-cont>
0.974022499

>  <TPSA-cont>
0.683568452

>  <pka_cont>
0.97

>  <yes.1>


>  <BBB_SCORE>
5.312800597

>  <MMFF94 Energy>
96.854

$$$$
Compound 1276
Actelion Java MolfileCreator 2.0

  0  0  0  0  0  0              0 V3000
M  V30 BEGIN CTAB
M  V30 COUNTS 40 42 0 0 0
M  V30 BEGIN ATOM
M  V30 1 O 1.1108 -1.4284 1.2696 0
M  V30 2 C 0.6926 -0.4813 0.6079 0
M  V30 3 C 0.8839 -0.394 -0.8409 0
M  V30 4 C -0.0136 0.7246 1.2488 0 CFG=1
M  V30 5 C 0.3163 0.6327 -1.5714 0
M  V30 6 C 1.5866 -1.2278 -1.7614 0
M  V30 7 C -1.1181 1.2841 0.3157 0 CFG=2
M  V30 8 C -0.6053 0.3455 2.6096 0
M  V30 9 N 0.6526 0.4714 -2.8843 0
M  V30 10 C -0.5298 1.7353 -1.0375 0
M  V30 11 C 1.4196 -0.6614 -3.0204 0
M  V30 12 C 2.356 -2.4709 -1.4345 0
M  V30 13 C -1.8665 2.424 1.0105 0
M  V30 14 N -1.2978 1.4929 3.2269 0
M  V30 15 C 1.9268 -1.0974 -4.3482 0
M  V30 16 C 1.4703 -3.7069 -1.399 0
M  V30 17 C -2.3912 1.982 2.3781 0
M  V30 18 C -1.8024 1.1266 4.5514 0
M  V30 19 H 0.7585 1.493 1.3997 0
M  V30 20 H -1.8381 0.4753 0.1159 0
M  V30 21 H -1.2878 -0.509 2.502 0
M  V30 22 H 0.209 0.0203 3.2699 0
M  V30 23 H 0.3749 1.0816 -3.6429 0
M  V30 24 H -1.3385 1.9772 -1.7365 0
M  V30 25 H 0.085 2.6343 -0.9106 0
M  V30 26 H 2.8627 -2.3533 -0.4699 0
M  V30 27 H 3.1492 -2.62 -2.177 0
M  V30 28 H -1.2026 3.2894 1.1354 0
M  V30 29 H -2.7064 2.7543 0.3877 0
M  V30 30 H 3.0118 -0.9635 -4.401 0
M  V30 31 H 1.4724 -0.5234 -5.1622 0
M  V30 32 H 1.7003 -2.1552 -4.5161 0
M  V30 33 H 2.0661 -4.5937 -1.1608 0
M  V30 34 H 0.9849 -3.8731 -2.3667 0
M  V30 35 H 0.6841 -3.6124 -0.6424 0
M  V30 36 H -2.873 2.8454 2.8533 0
M  V30 37 H -3.1612 1.2103 2.2468 0
M  V30 38 H -2.5366 0.3141 4.5045 0
M  V30 39 H -2.273 1.9895 5.0358 0
M  V30 40 H -0.9799 0.8119 5.2034 0
M  V30 END ATOM
M  V30 BEGIN BOND
M  V30 1 2 1 2
M  V30 2 1 2 3
M  V30 3 1 2 4
M  V30 4 2 3 5
M  V30 5 1 3 6
M  V30 6 1 4 7
M  V30 7 1 4 8
M  V30 8 1 5 9
M  V30 9 1 5 10
M  V30 10 2 6 11
M  V30 11 1 6 12
M  V30 12 1 7 13
M  V30 13 1 8 14
M  V30 14 1 11 15
M  V30 15 1 12 16
M  V30 16 1 13 17
M  V30 17 1 14 18
M  V30 18 1 7 10
M  V30 19 1 9 11
M  V30 20 1 14 17
M  V30 21 1 4 19
M  V30 22 1 7 20
M  V30 23 1 8 21
M  V30 24 1 8 22
M  V30 25 1 9 23
M  V30 26 1 10 24
M  V30 27 1 10 25
M  V30 28 1 12 26
M  V30 29 1 12 27
M  V30 30 1 13 28
M  V30 31 1 13 29
M  V30 32 1 15 30
M  V30 33 1 15 31
M  V30 34 1 15 32
M  V30 35 1 16 33
M  V30 36 1 16 34
M  V30 37 1 16 35
M  V30 38 1 17 36
M  V30 39 1 17 37
M  V30 40 1 18 38
M  V30 41 1 18 39
M  V30 42 1 18 40
M  V30 END BOND
M  V30 BEGIN COLLECTION
M  V30 MDLV30/STEABS ATOMS=(2 4 7)
M  V30 END COLLECTION
M  V30 END CTAB
M  END
>  <Column 1>
1529

>  <level_0>
1682

>  <index>
1682

>  <Unnamed: 0>
1682

>  <NO.>
1694

>  <Name>
piquindone

>  <IUPAC_name>
(4as-8as)-3-ethyl-2-6-dimethyl-4a-5-7-8-8a-9-hexahydro-1h-pyrrolo[2-3-g]isoquinolin-4-one

>  <SMILES>
CCc1c(C)[nH]c2c1C(=O)[C@@H]1CN(C)CC[C@H]1C2

>  <CID>
121903

>  <logBB>


>  <BBB+/BBB->
BBB+

>  <Inchi>
InChI=1S/C15H22N2O/c1-4-11-9(2)16-13-7-10-5-6-17(3)8-12(10)15(18)14(11)13/h10-12-16H-4-8H2-1-3H3/t10--12+/m0/s1

>  <threshold>
-1

>  <reference>
R1|R13|R6|R27|R30|

>  <group>
B

>  <Class>
1

>  <ABC>
14.23

>  <ABCGG>
12.21

>  <nAcid>
0

>  <nBase>
1

>  <nAromAtom>
5

>  <nAromBond>
5

>  <nAtom>
40

>  <nHeavyAtom>
18

>  <nSpiro>
0

>  <nBridgehead>
0

>  <nHetero>
3

>  <nN>
2

>  <nO>
1

>  <nF>
0

>  <BalabanJ>
1.81

>  <BertzCT>
488.93

>  <nBonds>
42

>  <nBondsO>
20

>  <nBondsS>
36

>  <nBondsD>
1

>  <nBondsT>
0

>  <nBondsA>
5

>  <nBondsM>
6

>  <nBondsKS>
39

>  <nBondsKD>
3

>  <RNCG>
0.31

>  <RPCG>
0.14

>  <FCSP3>
0.67

>  <SZ>
22.33

>  <Sm>
20.51

>  <Sv>
23.19

>  <Sse>
39.42

>  <Sp>
25.58

>  <Si>
45.36

>  <MZ>
0.56

>  <Mm>
0.51

>  <Mv>
0.58

>  <Mse>
0.99

>  <Mp>
0.64

>  <Mi>
1.13

>  <NsCH3>
3

>  <NdCH2>
0

>  <NssCH2>
5

>  <NtCH>
0

>  <NdsCH>
0

>  <NaaCH>
0

>  <NsssCH>
2

>  <NddC>
0

>  <NtsC>
0

>  <NdssC>
1

>  <NaasC>
4

>  <NaaaC>
0

>  <NssssC>
0

>  <NsNH3>
0

>  <NsNH2>
0

>  <NssNH2>
0

>  <NdNH>
0

>  <NssNH>
0

>  <NaaNH>
1

>  <NtN>
0

>  <NsssNH>
0

>  <NdsN>
0

>  <NaaN>
0

>  <NsssN>
1

>  <NddsN>
0

>  <NaasN>
0

>  <NssssN>
0

>  <NsOH>
0

>  <NdO>
1

>  <NssO>
0

>  <NaaO>
0

>  <NsF>
0

>  <NsSiH3>
0

>  <NssSiH2>
0

>  <NsssSiH>
0

>  <NssssSi>
0

>  <NsPH2>
0

>  <NssPH>
0

>  <NsssP>
0

>  <NdsssP>
0

>  <NsssssP>
0

>  <NsSH>
0

>  <NdS>
0

>  <NssS>
0

>  <NaaS>
0

>  <NdssS>
0

>  <NddssS>
0

>  <NsCl>
0

>  <NsBr>
0

>  <NsI>
0

>  <fragCpx>
94.03

>  <fMF>
0.33

>  <nHBAcc>
2

>  <nHBDon>
1

>  <Kier1>
13.01

>  <Kier2>
4.84

>  <Lipinski>
1

>  <GhoseFilter>
1

>  <FilterItLogS>
-3.88

>  <VMcGowan>
202.56

>  <LabuteASA>
108.56

>  <PEOE_VSA1>
9.88

>  <PEOE_VSA2>
4.79

>  <PEOE_VSA3>
0

>  <PEOE_VSA4>
0

>  <PEOE_VSA5>
0

>  <PEOE_VSA6>
6.92

>  <PEOE_VSA7>
51.26

>  <PEOE_VSA8>
29.41

>  <PEOE_VSA9>
0

>  <PEOE_VSA10>
0

>  <PEOE_VSA11>
5.78

>  <PEOE_VSA12>
0

>  <PEOE_VSA13>
0

>  <SMR_VSA1>
4.79

>  <SMR_VSA2>
0

>  <SMR_VSA3>
9.88

>  <SMR_VSA4>
11.84

>  <SMR_VSA5>
33.11

>  <SMR_VSA6>
20.14

>  <SMR_VSA7>
22.51

>  <SMR_VSA8>
0

>  <SMR_VSA9>
0

>  <SlogP_VSA1>
0

>  <SlogP_VSA2>
35.8

>  <SlogP_VSA3>
12.84

>  <SlogP_VSA4>
18.76

>  <SlogP_VSA5>
40.65

>  <SlogP_VSA6>
0

>  <SlogP_VSA7>
0

>  <SlogP_VSA8>
0

>  <SlogP_VSA9>
0

>  <SlogP_VSA10>
0

>  <SlogP_VSA11>
0

>  <EState_VSA1>
0

>  <EState_VSA2>
5.92

>  <EState_VSA3>
11.7

>  <EState_VSA4>
37.92

>  <EState_VSA5>
16.95

>  <EState_VSA6>
0

>  <EState_VSA7>
0

>  <EState_VSA8>
30.78

>  <EState_VSA9>
0

>  <EState_VSA10>
4.79

>  <VSA_EState1>
0

>  <VSA_EState2>
18.5

>  <VSA_EState3>
0

>  <VSA_EState4>
4.69

>  <VSA_EState5>
1.19

>  <VSA_EState6>
0

>  <VSA_EState7>
3.18

>  <VSA_EState8>
6.31

>  <VSA_EState9>
2.13

>  <apol>
42.72

>  <bpol>
25.22

>  <nRing>
3

>  <nHRing>
2

>  <naRing>
1

>  <naHRing>
1

>  <nARing 2>
2

>  <nAHRing 2>
1

>  <nFRing>
1

>  <nFHRing>
1

>  <nFaRing>
0

>  <nFaHRing>
0

>  <nFARing 2>
1

>  <nFAHRing 2>
1

>  <nRot>
1

>  <SLogP>
2.19

>  <SMR>
72.04

>  <TopoPSA(NO)>
36.1

>  <TopoPSA>
36.1

>  <JGI1>
0.2

>  <JGI2>
0.08

>  <JGI3>
0.07

>  <JGI4>
0.06

>  <JGI5>
0.03

>  <Diameter>
8

>  <Radius>
4

>  <TMWC10>
112.56

>  <TSRW10>
66.13

>  <MW>
246.17

>  <AMW>
6.15

>  <WPath>
540

>  <WPol>
32

>  <Zagreb1>
100

>  <Zagreb2>
123

>  <mZagreb2>
3.92

>  <yes>


>  <nAR-cont>
1

>  <nHA-cont>
0.991161285

>  <MWHBN>
0.191206958

>  <MWHBN-cont>
0.996355233

>  <TPSA-cont>
0.747999583

>  <pka_cont>
0.97

>  <yes.1>


>  <BBB_SCORE>
5.466693301

>  <MMFF94 Energy>
36.398

$$$$
Compound 1277
Actelion Java MolfileCreator 2.0

  0  0  0  0  0  0              0 V3000
M  V30 BEGIN CTAB
M  V30 COUNTS 25 25 0 0 0
M  V30 BEGIN ATOM
M  V30 1 O -3.2828 -1.7185 1.1714 0
M  V30 2 C -2.362 -1.2034 0.5413 0
M  V30 3 C -0.9636 -1.3007 1.0517 0
M  V30 4 C -2.5871 -0.4925 -0.7258 0
M  V30 5 O -0.7762 -2.0024 2.23 0
M  V30 6 C 0.0407 -0.712 0.361 0
M  V30 7 C -1.5212 0.0488 -1.3208 0
M  V30 8 N -0.2111 0.0019 -0.842 0
M  V30 9 C 1.4621 -0.8792 0.8786 0
M  V30 10 C 0.8352 0.7172 -1.6049 0
M  V30 11 C 1.9462 0.3137 1.6905 0
M  V30 12 C 0.7138 2.2248 -1.4175 0
M  V30 13 H -3.5923 -0.4362 -1.116 0
M  V30 14 H -1.6766 -2.2951 2.4868 0
M  V30 15 H -1.6409 0.5854 -2.2588 0
M  V30 16 H 1.5356 -1.7698 1.5162 0
M  V30 17 H 2.153 -1.0914 0.0561 0
M  V30 18 H 0.7366 0.4752 -2.671 0
M  V30 19 H 1.8448 0.4058 -1.3278 0
M  V30 20 H 1.2724 0.5236 2.5279 0
M  V30 21 H 2.9395 0.1073 2.1025 0
M  V30 22 H 2.0244 1.2164 1.0802 0
M  V30 23 H 0.7513 2.5021 -0.3599 0
M  V30 24 H -0.2294 2.6029 -1.8249 0
M  V30 25 H 1.5303 2.7365 -1.9364 0
M  V30 END ATOM
M  V30 BEGIN BOND
M  V30 1 2 1 2
M  V30 2 1 2 3
M  V30 3 1 2 4
M  V30 4 1 3 5
M  V30 5 2 3 6
M  V30 6 2 4 7
M  V30 7 1 6 8
M  V30 8 1 6 9
M  V30 9 1 8 10
M  V30 10 1 9 11
M  V30 11 1 10 12
M  V30 12 1 7 8
M  V30 13 1 4 13
M  V30 14 1 5 14
M  V30 15 1 7 15
M  V30 16 1 9 16
M  V30 17 1 9 17
M  V30 18 1 10 18
M  V30 19 1 10 19
M  V30 20 1 11 20
M  V30 21 1 11 21
M  V30 22 1 11 22
M  V30 23 1 12 23
M  V30 24 1 12 24
M  V30 25 1 12 25
M  V30 END BOND
M  V30 END CTAB
M  END
>  <Column 1>
1530

>  <level_0>
1683

>  <index>
1683

>  <Unnamed: 0>
1683

>  <NO.>
1695

>  <Name>
cp94

>  <IUPAC_name>
1-2-diethyl-3-hydroxypyridin-4-one

>  <SMILES>
CCc1c(O)c(=O)ccn1CC

>  <CID>
86322

>  <logBB>


>  <BBB+/BBB->
BBB+

>  <Inchi>
InChI=1S/C9H13NO2/c1-3-7-9(12)8(11)5-6-10(7)4-2/h5-6-12H-3-4H2-1-2H3

>  <threshold>
-1

>  <reference>
R1|R13|R19|R28|R9|R24|R27|R27|R30|R36|

>  <group>
B

>  <Class>
-1

>  <ABC>
8.58

>  <ABCGG>
8.48

>  <nAcid>
0

>  <nBase>
0

>  <nAromAtom>
6

>  <nAromBond>
6

>  <nAtom>
25

>  <nHeavyAtom>
12

>  <nSpiro>
0

>  <nBridgehead>
0

>  <nHetero>
3

>  <nN>
1

>  <nO>
2

>  <nF>
0

>  <BalabanJ>
2.58

>  <BertzCT>
327.79

>  <nBonds>
25

>  <nBondsO>
12

>  <nBondsS>
18

>  <nBondsD>
1

>  <nBondsT>
0

>  <nBondsA>
6

>  <nBondsM>
7

>  <nBondsKS>
22

>  <nBondsKD>
3

>  <RNCG>
0.4

>  <RPCG>
0.23

>  <FCSP3>
0.44

>  <SZ>
15

>  <Sm>
13.92

>  <Sv>
14.71

>  <Sse>
25.1

>  <Sp>
15.81

>  <Si>
28.41

>  <MZ>
0.6

>  <Mm>
0.56

>  <Mv>
0.59

>  <Mse>
1

>  <Mp>
0.63

>  <Mi>
1.14

>  <NsCH3>
2

>  <NdCH2>
0

>  <NssCH2>
2

>  <NtCH>
0

>  <NdsCH>
0

>  <NaaCH>
2

>  <NsssCH>
0

>  <NddC>
0

>  <NtsC>
0

>  <NdssC>
0

>  <NaasC>
2

>  <NaaaC>
0

>  <NssssC>
0

>  <NsNH3>
0

>  <NsNH2>
0

>  <NssNH2>
0

>  <NdNH>
0

>  <NssNH>
0

>  <NaaNH>
0

>  <NtN>
0

>  <NsssNH>
0

>  <NdsN>
0

>  <NaaN>
0

>  <NsssN>
0

>  <NddsN>
0

>  <NaasN>
1

>  <NssssN>
0

>  <NsOH>
1

>  <NdO>
1

>  <NssO>
0

>  <NaaO>
0

>  <NsF>
0

>  <NsSiH3>
0

>  <NssSiH2>
0

>  <NsssSiH>
0

>  <NssssSi>
0

>  <NsPH2>
0

>  <NssPH>
0

>  <NsssP>
0

>  <NdsssP>
0

>  <NsssssP>
0

>  <NsSH>
0

>  <NdS>
0

>  <NssS>
0

>  <NaaS>
0

>  <NdssS>
0

>  <NddssS>
0

>  <NsCl>
0

>  <NsBr>
0

>  <NsI>
0

>  <fragCpx>
12.03

>  <fMF>
0.24

>  <nHBAcc>
3

>  <nHBDon>
1

>  <Kier1>
10.08

>  <Kier2>
4.3

>  <Lipinski>
1

>  <GhoseFilter>
1

>  <FilterItLogS>
-1.81

>  <VMcGowan>
135.63

>  <LabuteASA>
71.28

>  <PEOE_VSA1>
9.67

>  <PEOE_VSA2>
4.79

>  <PEOE_VSA3>
0

>  <PEOE_VSA4>
0

>  <PEOE_VSA5>
0

>  <PEOE_VSA6>
6.92

>  <PEOE_VSA7>
13.34

>  <PEOE_VSA8>
18.81

>  <PEOE_VSA9>
5.69

>  <PEOE_VSA10>
0

>  <PEOE_VSA11>
5.75

>  <PEOE_VSA12>
5.43

>  <PEOE_VSA13>
0

>  <SMR_VSA1>
5.11

>  <SMR_VSA2>
0

>  <SMR_VSA3>
4.57

>  <SMR_VSA4>
0

>  <SMR_VSA5>
26.81

>  <SMR_VSA6>
0

>  <SMR_VSA7>
28.18

>  <SMR_VSA8>
0

>  <SMR_VSA9>
5.75

>  <SlogP_VSA1>
5.43

>  <SlogP_VSA2>
9.67

>  <SlogP_VSA3>
12.97

>  <SlogP_VSA4>
0

>  <SlogP_VSA5>
19.54

>  <SlogP_VSA6>
17.06

>  <SlogP_VSA7>
0

>  <SlogP_VSA8>
0

>  <SlogP_VSA9>
0

>  <SlogP_VSA10>
0

>  <SlogP_VSA11>
5.75

>  <EState_VSA1>
0

>  <EState_VSA2>
11.18

>  <EState_VSA3>
12.11

>  <EState_VSA4>
6.54

>  <EState_VSA5>
6.07

>  <EState_VSA6>
6.2

>  <EState_VSA7>
18.41

>  <EState_VSA8>
0

>  <EState_VSA9>
0

>  <EState_VSA10>
9.9

>  <VSA_EState1>
1.87

>  <VSA_EState2>
11

>  <VSA_EState3>
9.38

>  <VSA_EState4>
0.42

>  <VSA_EState5>
-0.11

>  <VSA_EState6>
1.39

>  <VSA_EState7>
2.39

>  <VSA_EState8>
4.67

>  <VSA_EState9>
0

>  <apol>
26.4

>  <bpol>
15.62

>  <nRing>
1

>  <nHRing>
1

>  <naRing>
1

>  <naHRing>
1

>  <nARing 2>
0

>  <nAHRing 2>
0

>  <nFRing>
0

>  <nFHRing>
0

>  <nFaRing>
0

>  <nFaHRing>
0

>  <nFARing 2>
0

>  <nFAHRing 2>
0

>  <nRot>
2

>  <SLogP>
1.14

>  <SMR>
47.42

>  <TopoPSA(NO)>
42.23

>  <TopoPSA>
42.23

>  <JGI1>
0.21

>  <JGI2>
0.13

>  <JGI3>
0.06

>  <JGI4>
0.06

>  <JGI5>
0.03

>  <Diameter>
6

>  <Radius>
3

>  <TMWC10>
90.94

>  <TSRW10>
42.61

>  <MW>
167.09

>  <AMW>
6.68

>  <WPath>
186

>  <WPol>
18

>  <Zagreb1>
56

>  <Zagreb2>
65

>  <mZagreb2>
2.92

>  <yes>


>  <nAR-cont>
0.336376

>  <nHA-cont>
0.785745021

>  <MWHBN>
0.309445921

>  <MWHBN-cont>
0.811629729

>  <TPSA-cont>
0.705208377

>  <pka_cont>
0.97

>  <yes.1>


>  <BBB_SCORE>
4.234982368

>  <MMFF94 Energy>
36.513

$$$$
Compound 1278
Actelion Java MolfileCreator 2.0

  0  0  0  0  0  0              0 V3000
M  V30 BEGIN CTAB
M  V30 COUNTS 32 32 0 0 0
M  V30 BEGIN ATOM
M  V30 1 O -0.4684 -4.7707 -0.8589 0
M  V30 2 C -0.1331 -3.5971 -0.7156 0
M  V30 3 C -1.0493 -2.5018 -1.1483 0
M  V30 4 C 1.1608 -3.2229 -0.1232 0
M  V30 5 O -2.2553 -2.877 -1.7135 0
M  V30 6 C -0.6663 -1.2144 -0.9875 0
M  V30 7 C 1.4277 -1.9192 -0.0069 0
M  V30 8 N 0.5842 -0.8825 -0.4035 0
M  V30 9 C -1.6141 -0.1134 -1.4378 0
M  V30 10 C 1.0126 0.5107 -0.151 0
M  V30 11 C -1.3364 0.3323 -2.868 0
M  V30 12 C 0.5923 0.9512 1.2539 0
M  V30 13 C 1.0015 2.396 1.5244 0
M  V30 14 C 0.585 2.8473 2.9166 0
M  V30 15 O 1.0035 4.1921 3.1007 0
M  V30 16 H 1.8308 -4.0085 0.1923 0
M  V30 17 H -2.2367 -3.8576 -1.7017 0
M  V30 18 H 2.3689 -1.5959 0.431 0
M  V30 19 H -2.6561 -0.4521 -1.3758 0
M  V30 20 H -1.5693 0.746 -0.7615 0
M  V30 21 H 2.1041 0.5849 -0.2478 0
M  V30 22 H 0.6131 1.1956 -0.9054 0
M  V30 23 H -1.4791 -0.4934 -3.573 0
M  V30 24 H -2.0233 1.1366 -3.1507 0
M  V30 25 H -0.3143 0.7046 -2.9872 0
M  V30 26 H 1.0521 0.2932 2.0016 0
M  V30 27 H -0.4928 0.8475 1.3725 0
M  V30 28 H 0.5535 3.0638 0.7779 0
M  V30 29 H 2.0873 2.5098 1.415 0
M  V30 30 H -0.5022 2.8006 3.0343 0
M  V30 31 H 1.0549 2.2273 3.6866 0
M  V30 32 H 0.7187 4.4612 3.9911 0
M  V30 END ATOM
M  V30 BEGIN BOND
M  V30 1 2 1 2
M  V30 2 1 2 3
M  V30 3 1 2 4
M  V30 4 1 3 5
M  V30 5 2 3 6
M  V30 6 2 4 7
M  V30 7 1 6 8
M  V30 8 1 6 9
M  V30 9 1 8 10
M  V30 10 1 9 11
M  V30 11 1 10 12
M  V30 12 1 12 13
M  V30 13 1 13 14
M  V30 14 1 14 15
M  V30 15 1 7 8
M  V30 16 1 4 16
M  V30 17 1 5 17
M  V30 18 1 7 18
M  V30 19 1 9 19
M  V30 20 1 9 20
M  V30 21 1 10 21
M  V30 22 1 10 22
M  V30 23 1 11 23
M  V30 24 1 11 24
M  V30 25 1 11 25
M  V30 26 1 12 26
M  V30 27 1 12 27
M  V30 28 1 13 28
M  V30 29 1 13 29
M  V30 30 1 14 30
M  V30 31 1 14 31
M  V30 32 1 15 32
M  V30 END BOND
M  V30 END CTAB
M  END
>  <Column 1>
1531

>  <level_0>
1684

>  <index>
1684

>  <Unnamed: 0>
1684

>  <NO.>
1696

>  <Name>
cp-107

>  <IUPAC_name>
2-ethyl-3-hydroxy-1-(4-hydroxybutyl)pyridin-4-one

>  <SMILES>
CCc1c(O)c(=O)ccn1CCCCO

>  <CID>
10330791

>  <logBB>


>  <BBB+/BBB->
BBB-

>  <Inchi>
InChI=1S/C11H17NO3/c1-2-9-11(15)10(14)5-7-12(9)6-3-4-8-13/h5-7-13-15H-2-4-6-8H2-1H3

>  <threshold>
-1

>  <reference>
R1|R13|R19|R28|R9|R24|R27|R30|R36|

>  <group>
B

>  <Class>
-1

>  <ABC>
10.7

>  <ABCGG>
9.99

>  <nAcid>
0

>  <nBase>
0

>  <nAromAtom>
6

>  <nAromBond>
6

>  <nAtom>
32

>  <nHeavyAtom>
15

>  <nSpiro>
0

>  <nBridgehead>
0

>  <nHetero>
4

>  <nN>
1

>  <nO>
3

>  <nF>
0

>  <BalabanJ>
2.41

>  <BertzCT>
370.59

>  <nBonds>
32

>  <nBondsO>
15

>  <nBondsS>
25

>  <nBondsD>
1

>  <nBondsT>
0

>  <nBondsA>
6

>  <nBondsM>
7

>  <nBondsKS>
29

>  <nBondsKD>
3

>  <RNCG>
0.3

>  <RPCG>
0.18

>  <FCSP3>
0.55

>  <SZ>
19

>  <Sm>
17.59

>  <Sv>
18.51

>  <Sse>
32.2

>  <Sp>
19.89

>  <Si>
36.45

>  <MZ>
0.59

>  <Mm>
0.55

>  <Mv>
0.58

>  <Mse>
1.01

>  <Mp>
0.62

>  <Mi>
1.14

>  <NsCH3>
1

>  <NdCH2>
0

>  <NssCH2>
5

>  <NtCH>
0

>  <NdsCH>
0

>  <NaaCH>
2

>  <NsssCH>
0

>  <NddC>
0

>  <NtsC>
0

>  <NdssC>
0

>  <NaasC>
2

>  <NaaaC>
0

>  <NssssC>
0

>  <NsNH3>
0

>  <NsNH2>
0

>  <NssNH2>
0

>  <NdNH>
0

>  <NssNH>
0

>  <NaaNH>
0

>  <NtN>
0

>  <NsssNH>
0

>  <NdsN>
0

>  <NaaN>
0

>  <NsssN>
0

>  <NddsN>
0

>  <NaasN>
1

>  <NssssN>
0

>  <NsOH>
2

>  <NdO>
1

>  <NssO>
0

>  <NaaO>
0

>  <NsF>
0

>  <NsSiH3>
0

>  <NssSiH2>
0

>  <NsssSiH>
0

>  <NssssSi>
0

>  <NsPH2>
0

>  <NssPH>
0

>  <NsssP>
0

>  <NdsssP>
0

>  <NsssssP>
0

>  <NsSH>
0

>  <NdS>
0

>  <NssS>
0

>  <NaaS>
0

>  <NdssS>
0

>  <NddssS>
0

>  <NsCl>
0

>  <NsBr>
0

>  <NsI>
0

>  <fragCpx>
15.04

>  <fMF>
0.19

>  <nHBAcc>
4

>  <nHBDon>
2

>  <Kier1>
13.07

>  <Kier2>
6.55

>  <Lipinski>
1

>  <GhoseFilter>
1

>  <FilterItLogS>
-2.07

>  <VMcGowan>
169.68

>  <LabuteASA>
88.8

>  <PEOE_VSA1>
14.78

>  <PEOE_VSA2>
4.79

>  <PEOE_VSA3>
0

>  <PEOE_VSA4>
0

>  <PEOE_VSA5>
0

>  <PEOE_VSA6>
6.92

>  <PEOE_VSA7>
19.26

>  <PEOE_VSA8>
25.41

>  <PEOE_VSA9>
5.69

>  <PEOE_VSA10>
0

>  <PEOE_VSA11>
5.75

>  <PEOE_VSA12>
5.43

>  <PEOE_VSA13>
0

>  <SMR_VSA1>
10.21

>  <SMR_VSA2>
0

>  <SMR_VSA3>
4.57

>  <SMR_VSA4>
0

>  <SMR_VSA5>
32.73

>  <SMR_VSA6>
6.61

>  <SMR_VSA7>
28.18

>  <SMR_VSA8>
0

>  <SMR_VSA9>
5.75

>  <SlogP_VSA1>
5.43

>  <SlogP_VSA2>
21.39

>  <SlogP_VSA3>
12.97

>  <SlogP_VSA4>
0

>  <SlogP_VSA5>
25.46

>  <SlogP_VSA6>
17.06

>  <SlogP_VSA7>
0

>  <SlogP_VSA8>
0

>  <SlogP_VSA9>
0

>  <SlogP_VSA10>
0

>  <SlogP_VSA11>
5.75

>  <EState_VSA1>
0

>  <EState_VSA2>
17.79

>  <EState_VSA3>
12.11

>  <EState_VSA4>
19.39

>  <EState_VSA5>
6.07

>  <EState_VSA6>
6.2

>  <EState_VSA7>
11.49

>  <EState_VSA8>
0

>  <EState_VSA9>
5.11

>  <EState_VSA10>
9.9

>  <VSA_EState1>
1.87

>  <VSA_EState2>
11.18

>  <VSA_EState3>
18.21

>  <VSA_EState4>
0.34

>  <VSA_EState5>
-0.15

>  <VSA_EState6>
1.37

>  <VSA_EState7>
3.89

>  <VSA_EState8>
2.79

>  <VSA_EState9>
0

>  <apol>
33.21

>  <bpol>
19.63

>  <nRing>
1

>  <nHRing>
1

>  <naRing>
1

>  <naHRing>
1

>  <nARing 2>
0

>  <nAHRing 2>
0

>  <nFRing>
0

>  <nFHRing>
0

>  <nFaRing>
0

>  <nFaHRing>
0

>  <nFARing 2>
0

>  <nFAHRing 2>
0

>  <nRot>
5

>  <SLogP>
0.89

>  <SMR>
58.06

>  <TopoPSA(NO)>
62.46

>  <TopoPSA>
62.46

>  <JGI1>
0.17

>  <JGI2>
0.11

>  <JGI3>
0.05

>  <JGI4>
0.05

>  <JGI5>
0.03

>  <Diameter>
9

>  <Radius>
5

>  <TMWC10>
98.19

>  <TSRW10>
46.33

>  <MW>
211.12

>  <AMW>
6.6

>  <WPath>
388

>  <WPol>
21

>  <Zagreb1>
68

>  <Zagreb2>
77

>  <mZagreb2>
3.67

>  <yes>


>  <nAR-cont>
0.336376

>  <nHA-cont>
0.92539861

>  <MWHBN>
0.412939628

>  <MWHBN-cont>
0.425348081

>  <TPSA-cont>
0.563990415

>  <pka_cont>
0.97

>  <yes.1>


>  <BBB_SCORE>
3.512777562

>  <MMFF94 Energy>
35.408

$$$$
Compound 1279
Actelion Java MolfileCreator 2.0

  0  0  0  0  0  0              0 V3000
M  V30 BEGIN CTAB
M  V30 COUNTS 26 26 0 0 0
M  V30 BEGIN ATOM
M  V30 1 O 0.861 2.3497 3.1339 0
M  V30 2 C 0.4457 1.8309 2.1 0
M  V30 3 C 0.1564 0.3672 2.0669 0
M  V30 4 C 0.2121 2.6096 0.8752 0
M  V30 5 O 0.3674 -0.3373 3.2394 0
M  V30 6 C -0.2847 -0.1999 0.9197 0
M  V30 7 C -0.2246 1.9444 -0.1969 0
M  V30 8 N -0.4773 0.5732 -0.2566 0
M  V30 9 C -0.6166 -1.6848 0.9326 0
M  V30 10 C -0.907 0.0029 -1.561 0
M  V30 11 C 0.4988 -2.5481 0.3604 0
M  V30 12 C 0.27 -0.1075 -2.543 0
M  V30 13 O 0.5201 1.1407 -3.191 0
M  V30 14 H 0.4049 3.6718 0.8898 0
M  V30 15 H 0.6831 0.3383 3.8768 0
M  V30 16 H -0.4048 2.4771 -1.1286 0
M  V30 17 H -0.8127 -2.0269 1.957 0
M  V30 18 H -1.5593 -1.8765 0.4094 0
M  V30 19 H -1.6926 0.6399 -1.9875 0
M  V30 20 H -1.352 -0.9864 -1.4365 0
M  V30 21 H 1.4407 -2.3832 0.8942 0
M  V30 22 H 0.239 -3.6073 0.4571 0
M  V30 23 H 0.6677 -2.3456 -0.6999 0
M  V30 24 H 1.1865 -0.4275 -2.0375 0
M  V30 25 H 0.0263 -0.8324 -3.326 0
M  V30 26 H 1.3437 1.0343 -3.698 0
M  V30 END ATOM
M  V30 BEGIN BOND
M  V30 1 2 1 2
M  V30 2 1 2 3
M  V30 3 1 2 4
M  V30 4 1 3 5
M  V30 5 2 3 6
M  V30 6 2 4 7
M  V30 7 1 6 8
M  V30 8 1 6 9
M  V30 9 1 8 10
M  V30 10 1 9 11
M  V30 11 1 10 12
M  V30 12 1 12 13
M  V30 13 1 7 8
M  V30 14 1 4 14
M  V30 15 1 5 15
M  V30 16 1 7 16
M  V30 17 1 9 17
M  V30 18 1 9 18
M  V30 19 1 10 19
M  V30 20 1 10 20
M  V30 21 1 11 21
M  V30 22 1 11 22
M  V30 23 1 11 23
M  V30 24 1 12 24
M  V30 25 1 12 25
M  V30 26 1 13 26
M  V30 END BOND
M  V30 END CTAB
M  END
>  <Column 1>
1532

>  <level_0>
1685

>  <index>
1685

>  <Unnamed: 0>
1685

>  <NO.>
1697

>  <Name>
cp102

>  <IUPAC_name>
2-ethyl-3-hydroxy-1-(2-hydroxyethyl)pyridin-4-one

>  <SMILES>
CCc1c(O)c(=O)ccn1CCO

>  <CID>
86379

>  <logBB>


>  <BBB+/BBB->
BBB-

>  <Inchi>
InChI=1S/C9H13NO3/c1-2-7-9(13)8(12)3-4-10(7)5-6-11/h3-4-11-13H-2-5-6H2-1H3

>  <threshold>
-1

>  <reference>
R1|R13|R19|R28|R9|R24|R27|R30|R36|

>  <group>
B

>  <Class>
1

>  <ABC>
9.29

>  <ABCGG>
9.03

>  <nAcid>
0

>  <nBase>
0

>  <nAromAtom>
6

>  <nAromBond>
6

>  <nAtom>
26

>  <nHeavyAtom>
13

>  <nSpiro>
0

>  <nBridgehead>
0

>  <nHetero>
4

>  <nN>
1

>  <nO>
3

>  <nF>
0

>  <BalabanJ>
2.55

>  <BertzCT>
343.2

>  <nBonds>
26

>  <nBondsO>
13

>  <nBondsS>
19

>  <nBondsD>
1

>  <nBondsT>
0

>  <nBondsA>
6

>  <nBondsM>
7

>  <nBondsKS>
23

>  <nBondsKD>
3

>  <RNCG>
0.31

>  <RPCG>
0.18

>  <FCSP3>
0.44

>  <SZ>
16.33

>  <Sm>
15.25

>  <Sv>
15.42

>  <Sse>
26.43

>  <Sp>
16.29

>  <Si>
29.62

>  <MZ>
0.63

>  <Mm>
0.59

>  <Mv>
0.59

>  <Mse>
1.02

>  <Mp>
0.63

>  <Mi>
1.14

>  <NsCH3>
1

>  <NdCH2>
0

>  <NssCH2>
3

>  <NtCH>
0

>  <NdsCH>
0

>  <NaaCH>
2

>  <NsssCH>
0

>  <NddC>
0

>  <NtsC>
0

>  <NdssC>
0

>  <NaasC>
2

>  <NaaaC>
0

>  <NssssC>
0

>  <NsNH3>
0

>  <NsNH2>
0

>  <NssNH2>
0

>  <NdNH>
0

>  <NssNH>
0

>  <NaaNH>
0

>  <NtN>
0

>  <NsssNH>
0

>  <NdsN>
0

>  <NaaN>
0

>  <NsssN>
0

>  <NddsN>
0

>  <NaasN>
1

>  <NssssN>
0

>  <NsOH>
2

>  <NdO>
1

>  <NssO>
0

>  <NaaO>
0

>  <NsF>
0

>  <NsSiH3>
0

>  <NssSiH2>
0

>  <NsssSiH>
0

>  <NssssSi>
0

>  <NsPH2>
0

>  <NssPH>
0

>  <NsssP>
0

>  <NdsssP>
0

>  <NsssssP>
0

>  <NsSH>
0

>  <NdS>
0

>  <NssS>
0

>  <NaaS>
0

>  <NdssS>
0

>  <NddssS>
0

>  <NsCl>
0

>  <NsBr>
0

>  <NsI>
0

>  <fragCpx>
13.04

>  <fMF>
0.23

>  <nHBAcc>
4

>  <nHBDon>
2

>  <Kier1>
11.08

>  <Kier2>
5.02

>  <Lipinski>
1

>  <GhoseFilter>
1

>  <FilterItLogS>
-1.26

>  <VMcGowan>
141.5

>  <LabuteASA>
76.07

>  <PEOE_VSA1>
14.78

>  <PEOE_VSA2>
4.79

>  <PEOE_VSA3>
0

>  <PEOE_VSA4>
0

>  <PEOE_VSA5>
0

>  <PEOE_VSA6>
6.92

>  <PEOE_VSA7>
6.42

>  <PEOE_VSA8>
18.81

>  <PEOE_VSA9>
12.3

>  <PEOE_VSA10>
0

>  <PEOE_VSA11>
5.75

>  <PEOE_VSA12>
5.43

>  <PEOE_VSA13>
0

>  <SMR_VSA1>
10.21

>  <SMR_VSA2>
0

>  <SMR_VSA3>
4.57

>  <SMR_VSA4>
0

>  <SMR_VSA5>
19.89

>  <SMR_VSA6>
6.61

>  <SMR_VSA7>
28.18

>  <SMR_VSA8>
0

>  <SMR_VSA9>
5.75

>  <SlogP_VSA1>
5.43

>  <SlogP_VSA2>
21.39

>  <SlogP_VSA3>
12.97

>  <SlogP_VSA4>
0

>  <SlogP_VSA5>
12.62

>  <SlogP_VSA6>
17.06

>  <SlogP_VSA7>
0

>  <SlogP_VSA8>
0

>  <SlogP_VSA9>
0

>  <SlogP_VSA10>
0

>  <SlogP_VSA11>
5.75

>  <EState_VSA1>
0

>  <EState_VSA2>
17.79

>  <EState_VSA3>
18.66

>  <EState_VSA4>
0

>  <EState_VSA5>
6.07

>  <EState_VSA6>
10.76

>  <EState_VSA7>
6.92

>  <EState_VSA8>
0

>  <EState_VSA9>
5.11

>  <EState_VSA10>
9.9

>  <VSA_EState1>
1.68

>  <VSA_EState2>
11.03

>  <VSA_EState3>
18.11

>  <VSA_EState4>
0.2

>  <VSA_EState5>
-0.21

>  <VSA_EState6>
1.3

>  <VSA_EState7>
2.15

>  <VSA_EState8>
2.24

>  <VSA_EState9>
0

>  <apol>
27.2

>  <bpol>
15.62

>  <nRing>
1

>  <nHRing>
1

>  <naRing>
1

>  <naHRing>
1

>  <nARing 2>
0

>  <nAHRing 2>
0

>  <nFRing>
0

>  <nFHRing>
0

>  <nFaRing>
0

>  <nFaHRing>
0

>  <nFARing 2>
0

>  <nFAHRing 2>
0

>  <nRot>
3

>  <SLogP>
0.11

>  <SMR>
48.83

>  <TopoPSA(NO)>
62.46

>  <TopoPSA>
62.46

>  <JGI1>
0.19

>  <JGI2>
0.12

>  <JGI3>
0.06

>  <JGI4>
0.06

>  <JGI5>
0.04

>  <Diameter>
7

>  <Radius>
4

>  <TMWC10>
93.46

>  <TSRW10>
43.87

>  <MW>
183.09

>  <AMW>
7.04

>  <WPath>
240

>  <WPol>
19

>  <Zagreb1>
60

>  <Zagreb2>
69

>  <mZagreb2>
3.17

>  <yes>


>  <nAR-cont>
0.336376

>  <nHA-cont>
0.841215992

>  <MWHBN>
0.443423737

>  <MWHBN-cont>
0.309706716

>  <TPSA-cont>
0.563990415

>  <pka_cont>
0.97

>  <yes.1>


>  <BBB_SCORE>
3.255132896

>  <MMFF94 Energy>
60.028

$$$$
Compound 1280
Actelion Java MolfileCreator 2.0

  0  0  0  0  0  0              0 V3000
M  V30 BEGIN CTAB
M  V30 COUNTS 35 37 0 0 0
M  V30 BEGIN ATOM
M  V30 1 O -0.7178 0.4785 -5.5935 0
M  V30 2 N -0.8409 -0.2119 -4.3853 0
M  V30 3 C -0.0439 1.6308 -5.312 0
M  V30 4 C -0.2285 0.5977 -3.5065 0
M  V30 5 N 0.2794 1.7531 -4.0472 0
M  V30 6 C 0.2124 2.5404 -6.4409 0
M  V30 7 C -0.0974 0.2978 -2.0769 0
M  V30 8 N 0.5382 1.155 -1.2124 0
M  V30 9 C -0.5552 -0.8142 -1.4062 0
M  V30 10 C 0.4778 0.5874 -0.0258 0
M  V30 11 N -0.1916 -0.634 -0.0949 0
M  V30 12 N 0.9666 1.052 1.154 0
M  V30 13 C -0.3994 -1.4571 1.0257 0
M  V30 14 C 0.7747 0.2913 2.1808 0
M  V30 15 C 0.079 -1.0412 2.2242 0
M  V30 16 C -1.1548 -2.7414 0.8142 0
M  V30 17 O 1.2046 0.6396 3.42 0
M  V30 18 C 8.0E-4 -1.7906 3.5285 0
M  V30 19 C 1.8827 1.8971 3.526 0
M  V30 20 C -1.1933 -1.3556 4.3658 0
M  V30 21 H -0.729 2.8659 -6.8929 0
M  V30 22 H 0.7561 3.4287 -6.106 0
M  V30 23 H 0.8121 2.0411 -7.2074 0
M  V30 24 H -1.0899 -1.6856 -1.7538 0
M  V30 25 H -1.3796 -3.2708 1.7429 0
M  V30 26 H -0.5795 -3.4214 0.1772 0
M  V30 27 H -2.1195 -2.5443 0.3336 0
M  V30 28 H 0.924 -1.6582 4.1048 0
M  V30 29 H -0.0567 -2.8705 3.3555 0
M  V30 30 H 1.2183 2.7166 3.235 0
M  V30 31 H 2.1658 2.038 4.5727 0
M  V30 32 H 2.7933 1.894 2.9193 0
M  V30 33 H -1.2215 -1.9206 5.3031 0
M  V30 34 H -2.1347 -1.5356 3.836 0
M  V30 35 H -1.1422 -0.2911 4.6168 0
M  V30 END ATOM
M  V30 BEGIN BOND
M  V30 1 1 1 2
M  V30 2 1 1 3
M  V30 3 2 2 4
M  V30 4 2 3 5
M  V30 5 1 3 6
M  V30 6 1 4 7
M  V30 7 1 7 8
M  V30 8 2 7 9
M  V30 9 2 8 10
M  V30 10 1 9 11
M  V30 11 1 10 12
M  V30 12 1 11 13
M  V30 13 2 12 14
M  V30 14 2 13 15
M  V30 15 1 13 16
M  V30 16 1 14 17
M  V30 17 1 15 18
M  V30 18 1 17 19
M  V30 19 1 18 20
M  V30 20 1 4 5
M  V30 21 1 10 11
M  V30 22 1 14 15
M  V30 23 1 6 21
M  V30 24 1 6 22
M  V30 25 1 6 23
M  V30 26 1 9 24
M  V30 27 1 16 25
M  V30 28 1 16 26
M  V30 29 1 16 27
M  V30 30 1 18 28
M  V30 31 1 18 29
M  V30 32 1 19 30
M  V30 33 1 19 31
M  V30 34 1 19 32
M  V30 35 1 20 33
M  V30 36 1 20 34
M  V30 37 1 20 35
M  V30 END BOND
M  V30 END CTAB
M  END
>  <Column 1>
1533

>  <level_0>
1686

>  <index>
1686

>  <Unnamed: 0>
1686

>  <NO.>
1698

>  <Name>
fasiplon

>  <IUPAC_name>
3-(6-ethyl-7-methoxy-5-methylimidazo[1-2-a]pyrimidin-2-yl)-5-methyl-1-2-4-oxadiazole

>  <SMILES>
CCc1c(OC)nc2nc(-c3noc(C)n3)cn2c1C

>  <CID>
208954

>  <logBB>


>  <BBB+/BBB->
BBB+

>  <Inchi>
InChI=1S/C13H15N5O2/c1-5-9-7(2)18-6-10(11-14-8(3)20-17-11)15-13(18)16-12(9)19-4/h6H-5H2-1-4H3

>  <threshold>
-1

>  <reference>
R1|R13|R19|R6|R27|R27|R27|R30|R30|

>  <group>
B

>  <Class>
1

>  <ABC>
15.57

>  <ABCGG>
13.61

>  <nAcid>
0

>  <nBase>
0

>  <nAromAtom>
14

>  <nAromBond>
15

>  <nAtom>
35

>  <nHeavyAtom>
20

>  <nSpiro>
0

>  <nBridgehead>
0

>  <nHetero>
7

>  <nN>
5

>  <nO>
2

>  <nF>
0

>  <BalabanJ>
1.67

>  <BertzCT>
774.5

>  <nBonds>
37

>  <nBondsO>
22

>  <nBondsS>
22

>  <nBondsD>
0

>  <nBondsT>
0

>  <nBondsA>
15

>  <nBondsM>
15

>  <nBondsKS>
31

>  <nBondsKD>
6

>  <RNCG>
0.26

>  <RPCG>
0.13

>  <FCSP3>
0.38

>  <SZ>
24

>  <Sm>
22.75

>  <Sv>
22.28

>  <Sse>
35.64

>  <Sp>
23.24

>  <Si>
39.99

>  <MZ>
0.69

>  <Mm>
0.65

>  <Mv>
0.64

>  <Mse>
1.02

>  <Mp>
0.66

>  <Mi>
1.14

>  <NsCH3>
4

>  <NdCH2>
0

>  <NssCH2>
1

>  <NtCH>
0

>  <NdsCH>
0

>  <NaaCH>
1

>  <NsssCH>
0

>  <NddC>
0

>  <NtsC>
0

>  <NdssC>
0

>  <NaasC>
6

>  <NaaaC>
1

>  <NssssC>
0

>  <NsNH3>
0

>  <NsNH2>
0

>  <NssNH2>
0

>  <NdNH>
0

>  <NssNH>
0

>  <NaaNH>
0

>  <NtN>
0

>  <NsssNH>
0

>  <NdsN>
0

>  <NaaN>
4

>  <NsssN>
0

>  <NddsN>
0

>  <NaasN>
1

>  <NssssN>
0

>  <NsOH>
0

>  <NdO>
0

>  <NssO>
1

>  <NaaO>
1

>  <NsF>
0

>  <NsSiH3>
0

>  <NssSiH2>
0

>  <NsssSiH>
0

>  <NssssSi>
0

>  <NsPH2>
0

>  <NssPH>
0

>  <NsssP>
0

>  <NdsssP>
0

>  <NsssssP>
0

>  <NsSH>
0

>  <NdS>
0

>  <NssS>
0

>  <NaaS>
0

>  <NdssS>
0

>  <NddssS>
0

>  <NsCl>
0

>  <NsBr>
0

>  <NsI>
0

>  <fragCpx>
104.07

>  <fMF>
0.4

>  <nHBAcc>
7

>  <nHBDon>
0

>  <Kier1>
14.92

>  <Kier2>
6.01

>  <Lipinski>
1

>  <GhoseFilter>
1

>  <FilterItLogS>
-4.24

>  <VMcGowan>
197.29

>  <LabuteASA>
115.17

>  <PEOE_VSA1>
9.26

>  <PEOE_VSA2>
4.4

>  <PEOE_VSA3>
4.98

>  <PEOE_VSA4>
9.97

>  <PEOE_VSA5>
0

>  <PEOE_VSA6>
12.08

>  <PEOE_VSA7>
13.34

>  <PEOE_VSA8>
24.38

>  <PEOE_VSA9>
7.11

>  <PEOE_VSA10>
5.69

>  <PEOE_VSA11>
0

>  <PEOE_VSA12>
23.37

>  <PEOE_VSA13>
0

>  <SMR_VSA1>
9.26

>  <SMR_VSA2>
0

>  <SMR_VSA3>
24.51

>  <SMR_VSA4>
0

>  <SMR_VSA5>
27.19

>  <SMR_VSA6>
7.11

>  <SMR_VSA7>
23.34

>  <SMR_VSA8>
0

>  <SMR_VSA9>
17.4

>  <SlogP_VSA1>
4.74

>  <SlogP_VSA2>
31.62

>  <SlogP_VSA3>
6.42

>  <SlogP_VSA4>
13.85

>  <SlogP_VSA5>
24.07

>  <SlogP_VSA6>
10.72

>  <SlogP_VSA7>
0

>  <SlogP_VSA8>
17.3

>  <SlogP_VSA9>
0

>  <SlogP_VSA10>
0

>  <SlogP_VSA11>
5.88

>  <EState_VSA1>
0

>  <EState_VSA2>
0

>  <EState_VSA3>
29.07

>  <EState_VSA4>
17.68

>  <EState_VSA5>
0

>  <EState_VSA6>
14.03

>  <EState_VSA7>
17.52

>  <EState_VSA8>
27.03

>  <EState_VSA9>
9.26

>  <EState_VSA10>
0

>  <VSA_EState1>
12.23

>  <VSA_EState2>
13.03

>  <VSA_EState3>
3.88

>  <VSA_EState4>
2.74

>  <VSA_EState5>
2.14

>  <VSA_EState6>
0

>  <VSA_EState7>
2.7

>  <VSA_EState8>
5.83

>  <VSA_EState9>
1.61

>  <apol>
38.82

>  <bpol>
23.65

>  <nRing>
3

>  <nHRing>
3

>  <naRing>
3

>  <naHRing>
3

>  <nARing 2>
0

>  <nAHRing 2>
0

>  <nFRing>
1

>  <nFHRing>
1

>  <nFaRing>
1

>  <nFaHRing>
1

>  <nFARing 2>
0

>  <nFAHRing 2>
0

>  <nRot>
3

>  <SLogP>
1.97

>  <SMR>
71.68

>  <TopoPSA(NO)>
78.34

>  <TopoPSA>
78.34

>  <JGI1>
0.2

>  <JGI2>
0.08

>  <JGI3>
0.06

>  <JGI4>
0.05

>  <JGI5>
0.03

>  <Diameter>
10

>  <Radius>
6

>  <TMWC10>
116.67

>  <TSRW10>
69.8

>  <MW>
273.12

>  <AMW>
7.8

>  <WPath>
785

>  <WPol>
32

>  <Zagreb1>
108

>  <Zagreb2>
131

>  <mZagreb2>
4.47

>  <yes>


>  <nAR-cont>
0.336376

>  <nHA-cont>
0.999629945

>  <MWHBN>
0.423566192

>  <MWHBN-cont>
0.38424152

>  <TPSA-cont>
0.453138154

>  <pka_cont>
0.97

>  <yes.1>


>  <BBB_SCORE>
3.303644533

>  <MMFF94 Energy>
41.375

$$$$
Compound 1281
Actelion Java MolfileCreator 2.0

  0  0  0  0  0  0              0 V3000
M  V30 BEGIN CTAB
M  V30 COUNTS 39 41 0 0 0
M  V30 BEGIN ATOM
M  V30 1 O -4.225 0.3183 -0.8757 0
M  V30 2 C -3.1325 0.8782 -0.8189 0
M  V30 3 C -3.0331 2.2675 -1.3375 0
M  V30 4 C -1.9284 0.23 -0.2939 0
M  V30 5 C -3.7136 2.591 -2.5181 0
M  V30 6 C -2.3203 3.2586 -0.6494 0
M  V30 7 N -1.9795 -0.8206 0.5989 0
M  V30 8 C -0.6095 0.5008 -0.6067 0
M  V30 9 C -3.6498 3.8886 -3.0275 0
M  V30 10 C -2.2604 4.5555 -1.1631 0
M  V30 11 C -0.737 -1.1792 0.8405 0
M  V30 12 N 0.1502 -0.3928 0.1107 0
M  V30 13 C -2.9198 4.8674 -2.3527 0
M  V30 14 N -0.2885 -2.1635 1.6624 0
M  V30 15 C 1.5454 -0.5576 0.1683 0
M  V30 16 C 0.9939 -2.3119 1.7144 0
M  V30 17 C 2.0433 -1.524 0.979 0
M  V30 18 C 2.3891 0.3452 -0.6902 0
M  V30 19 O 1.5741 -3.2641 2.4879 0
M  V30 20 C 3.4984 -1.834 1.215 0
M  V30 21 C 0.6844 -4.1008 3.2373 0
M  V30 22 C 3.9931 -2.9629 0.3221 0
M  V30 23 H -4.2964 1.8333 -3.0389 0
M  V30 24 H -1.8291 3.0399 0.2956 0
M  V30 25 H -0.1653 1.2237 -1.2754 0
M  V30 26 H -4.1773 4.1379 -3.9452 0
M  V30 27 H -1.7112 5.3278 -0.6295 0
M  V30 28 H -2.8777 5.8801 -2.7476 0
M  V30 29 H 2.0695 0.2878 -1.7368 0
M  V30 30 H 3.4504 0.0864 -0.6809 0
M  V30 31 H 2.2996 1.3838 -0.3541 0
M  V30 32 H 3.6721 -2.0913 2.2666 0
M  V30 33 H 4.1188 -0.9468 1.0484 0
M  V30 34 H 0.0286 -4.6624 2.5649 0
M  V30 35 H 1.2913 -4.8138 3.8024 0
M  V30 36 H 0.1031 -3.5036 3.9468 0
M  V30 37 H 5.0522 -3.16 0.5169 0
M  V30 38 H 3.8881 -2.7047 -0.7369 0
M  V30 39 H 3.44 -3.8904 0.503 0
M  V30 END ATOM
M  V30 BEGIN BOND
M  V30 1 2 1 2
M  V30 2 1 2 3
M  V30 3 1 2 4
M  V30 4 2 3 5
M  V30 5 1 3 6
M  V30 6 1 4 7
M  V30 7 2 4 8
M  V30 8 1 5 9
M  V30 9 2 6 10
M  V30 10 2 7 11
M  V30 11 1 8 12
M  V30 12 2 9 13
M  V30 13 1 11 14
M  V30 14 1 12 15
M  V30 15 2 14 16
M  V30 16 2 15 17
M  V30 17 1 15 18
M  V30 18 1 16 19
M  V30 19 1 17 20
M  V30 20 1 19 21
M  V30 21 1 20 22
M  V30 22 1 10 13
M  V30 23 1 11 12
M  V30 24 1 16 17
M  V30 25 1 5 23
M  V30 26 1 6 24
M  V30 27 1 8 25
M  V30 28 1 9 26
M  V30 29 1 10 27
M  V30 30 1 13 28
M  V30 31 1 18 29
M  V30 32 1 18 30
M  V30 33 1 18 31
M  V30 34 1 20 32
M  V30 35 1 20 33
M  V30 36 1 21 34
M  V30 37 1 21 35
M  V30 38 1 21 36
M  V30 39 1 22 37
M  V30 40 1 22 38
M  V30 41 1 22 39
M  V30 END BOND
M  V30 END CTAB
M  END
>  <Column 1>
1534

>  <level_0>
1687

>  <index>
1687

>  <Unnamed: 0>
1687

>  <NO.>
1699

>  <Name>
divaplon

>  <IUPAC_name>
(6-ethyl-7-methoxy-5-methylimidazo[1-2-a]pyrimidin-2-yl)-phenylmethanone

>  <SMILES>
CCc1c(OC)nc2nc(C(=O)c3ccccc3)cn2c1C

>  <CID>
65822

>  <logBB>


>  <BBB+/BBB->
BBB+

>  <Inchi>
InChI=1S/C17H17N3O2/c1-4-13-11(2)20-10-14(18-17(20)19-16(13)22-3)15(21)12-8-6-5-7-9-12/h5-10H-4H2-1-3H3

>  <threshold>
-1

>  <reference>
R1|R13|R19|R6|R27|R27|R27|R30|R30|

>  <group>
B

>  <Class>
1

>  <ABC>
16.95

>  <ABCGG>
14.27

>  <nAcid>
0

>  <nBase>
0

>  <nAromAtom>
15

>  <nAromBond>
16

>  <nAtom>
39

>  <nHeavyAtom>
22

>  <nSpiro>
0

>  <nBridgehead>
0

>  <nHetero>
5

>  <nN>
3

>  <nO>
2

>  <nF>
0

>  <BalabanJ>
1.65

>  <BertzCT>
837.98

>  <nBonds>
41

>  <nBondsO>
24

>  <nBondsS>
24

>  <nBondsD>
1

>  <nBondsT>
0

>  <nBondsA>
16

>  <nBondsM>
17

>  <nBondsKS>
33

>  <nBondsKD>
8

>  <RNCG>
0.26

>  <RPCG>
0.13

>  <FCSP3>
0.24

>  <SZ>
26

>  <Sm>
24.59

>  <Sv>
25.31

>  <Sse>
39.2

>  <Sp>
26.72

>  <Si>
43.82

>  <MZ>
0.67

>  <Mm>
0.63

>  <Mv>
0.65

>  <Mse>
1.01

>  <Mp>
0.69

>  <Mi>
1.12

>  <NsCH3>
3

>  <NdCH2>
0

>  <NssCH2>
1

>  <NtCH>
0

>  <NdsCH>
0

>  <NaaCH>
6

>  <NsssCH>
0

>  <NddC>
0

>  <NtsC>
0

>  <NdssC>
1

>  <NaasC>
5

>  <NaaaC>
1

>  <NssssC>
0

>  <NsNH3>
0

>  <NsNH2>
0

>  <NssNH2>
0

>  <NdNH>
0

>  <NssNH>
0

>  <NaaNH>
0

>  <NtN>
0

>  <NsssNH>
0

>  <NdsN>
0

>  <NaaN>
2

>  <NsssN>
0

>  <NddsN>
0

>  <NaasN>
1

>  <NssssN>
0

>  <NsOH>
0

>  <NdO>
1

>  <NssO>
1

>  <NaaO>
0

>  <NsF>
0

>  <NsSiH3>
0

>  <NssSiH2>
0

>  <NsssSiH>
0

>  <NssssSi>
0

>  <NsPH2>
0

>  <NssPH>
0

>  <NsssP>
0

>  <NdsssP>
0

>  <NsssssP>
0

>  <NsSH>
0

>  <NdS>
0

>  <NssS>
0

>  <NaaS>
0

>  <NdssS>
0

>  <NddssS>
0

>  <NsCl>
0

>  <NsBr>
0

>  <NsI>
0

>  <fragCpx>
114.05

>  <fMF>
0.41

>  <nHBAcc>
5

>  <nHBDon>
0

>  <Kier1>
16.84

>  <Kier2>
7.27

>  <Lipinski>
1

>  <GhoseFilter>
1

>  <FilterItLogS>
-4.57

>  <VMcGowan>
225.09

>  <LabuteASA>
128.15

>  <PEOE_VSA1>
4.74

>  <PEOE_VSA2>
9.2

>  <PEOE_VSA3>
4.98

>  <PEOE_VSA4>
4.98

>  <PEOE_VSA5>
0

>  <PEOE_VSA6>
37.26

>  <PEOE_VSA7>
13.34

>  <PEOE_VSA8>
23.02

>  <PEOE_VSA9>
7.11

>  <PEOE_VSA10>
5.69

>  <PEOE_VSA11>
0

>  <PEOE_VSA12>
17.44

>  <PEOE_VSA13>
0

>  <SMR_VSA1>
9.53

>  <SMR_VSA2>
0

>  <SMR_VSA3>
14.37

>  <SMR_VSA4>
0

>  <SMR_VSA5>
20.27

>  <SMR_VSA6>
7.11

>  <SMR_VSA7>
59.04

>  <SMR_VSA8>
0

>  <SMR_VSA9>
5.88

>  <SlogP_VSA1>
4.74

>  <SlogP_VSA2>
27.26

>  <SlogP_VSA3>
6.42

>  <SlogP_VSA4>
6.92

>  <SlogP_VSA5>
34.23

>  <SlogP_VSA6>
36.53

>  <SlogP_VSA7>
0

>  <SlogP_VSA8>
5.78

>  <SlogP_VSA9>
0

>  <SlogP_VSA10>
0

>  <SlogP_VSA11>
5.88

>  <EState_VSA1>
0

>  <EState_VSA2>
5.78

>  <EState_VSA3>
22.92

>  <EState_VSA4>
17.68

>  <EState_VSA5>
0

>  <EState_VSA6>
25.44

>  <EState_VSA7>
36.45

>  <EState_VSA8>
9.97

>  <EState_VSA9>
4.74

>  <EState_VSA10>
4.79

>  <VSA_EState1>
7.17

>  <VSA_EState2>
21.26

>  <VSA_EState3>
0

>  <VSA_EState4>
3.01

>  <VSA_EState5>
0.94

>  <VSA_EState6>
9.12

>  <VSA_EState7>
2.55

>  <VSA_EState8>
4.03

>  <VSA_EState9>
1.59

>  <apol>
44.63

>  <bpol>
23.65

>  <nRing>
3

>  <nHRing>
2

>  <naRing>
3

>  <naHRing>
2

>  <nARing 2>
0

>  <nAHRing 2>
0

>  <nFRing>
1

>  <nFHRing>
1

>  <nFaRing>
1

>  <nFaHRing>
1

>  <nFARing 2>
0

>  <nFAHRing 2>
0

>  <nRot>
4

>  <SLogP>
2.84

>  <SMR>
83.53

>  <TopoPSA(NO)>
56.49

>  <TopoPSA>
56.49

>  <JGI1>
0.17

>  <JGI2>
0.08

>  <JGI3>
0.06

>  <JGI4>
0.05

>  <JGI5>
0.03

>  <Diameter>
11

>  <Radius>
6

>  <TMWC10>
121.06

>  <TSRW10>
70.35

>  <MW>
295.13

>  <AMW>
7.57

>  <WPath>
1041

>  <WPol>
37

>  <Zagreb1>
116

>  <Zagreb2>
140

>  <mZagreb2>
5

>  <yes>


>  <nAR-cont>
0.336376

>  <nHA-cont>
0.983774276

>  <MWHBN>
0.291047133

>  <MWHBN-cont>
0.866636364

>  <TPSA-cont>
0.605664722

>  <pka_cont>
0.97

>  <yes.1>


>  <BBB_SCORE>
4.316434265

>  <MMFF94 Energy>
85.663

$$$$
Compound 1282
Actelion Java MolfileCreator 2.0

  0  0  0  0  0  0              0 V3000
M  V30 BEGIN CTAB
M  V30 COUNTS 38 41 0 0 0
M  V30 BEGIN ATOM
M  V30 1 Cl 0.4112 2.2222 3.4583 0
M  V30 2 C 0.0484 2.8947 1.9109 0
M  V30 3 C -0.5386 2.1435 0.8886 0
M  V30 4 C 0.3909 4.228 1.6728 0
M  V30 5 C -0.93 0.7325 1.0968 0
M  V30 6 C -0.7911 2.7199 -0.3632 0
M  V30 7 C 0.1438 4.8043 0.4239 0
M  V30 8 N -2.0284 0.5042 1.7237 0
M  V30 9 C -0.0469 -0.2892 0.5226 0
M  V30 10 C -0.4463 4.0519 -0.5922 0
M  V30 11 C -2.4448 -0.8513 2.0518 0
M  V30 12 C -0.4541 -1.4842 -0.0499 0
M  V30 13 C 1.3826 -0.1507 0.3783 0
M  V30 14 C -2.7315 -1.673 0.8544 0
M  V30 15 S 0.8138 -2.3658 -0.7457 0
M  V30 16 N -1.7558 -2.0009 -0.0689 0
M  V30 17 C 1.9735 -1.2063 -0.2841 0
M  V30 18 N -3.8534 -2.301 0.5822 0
M  V30 19 C -2.3914 -2.911 -0.9089 0
M  V30 20 C 3.4238 -1.4012 -0.6102 0
M  V30 21 N -3.6399 -3.0758 -0.5179 0
M  V30 22 C -1.8242 -3.5456 -2.1217 0
M  V30 23 C 3.7972 -0.7394 -1.9281 0
M  V30 24 H 0.8502 4.8263 2.4563 0
M  V30 25 H -1.2659 2.1416 -1.1523 0
M  V30 26 H 0.4077 5.8446 0.2454 0
M  V30 27 H -0.6454 4.5071 -1.56 0
M  V30 28 H -3.355 -0.7835 2.6592 0
M  V30 29 H -1.6986 -1.341 2.6898 0
M  V30 30 H 1.9554 0.6956 0.7417 0
M  V30 31 H 3.671 -2.4686 -0.653 0
M  V30 32 H 4.0351 -0.973 0.1935 0
M  V30 33 H -1.1124 -4.3326 -1.8583 0
M  V30 34 H -1.3433 -2.81 -2.7728 0
M  V30 35 H -2.6229 -4.0157 -2.706 0
M  V30 36 H 4.8621 -0.8836 -2.1356 0
M  V30 37 H 3.5994 0.3376 -1.9015 0
M  V30 38 H 3.2285 -1.1645 -2.762 0
M  V30 END ATOM
M  V30 BEGIN BOND
M  V30 1 1 1 2
M  V30 2 2 2 3
M  V30 3 1 2 4
M  V30 4 1 3 5
M  V30 5 1 3 6
M  V30 6 2 4 7
M  V30 7 2 5 8
M  V30 8 1 5 9
M  V30 9 2 6 10
M  V30 10 1 8 11
M  V30 11 2 9 12
M  V30 12 1 9 13
M  V30 13 1 11 14
M  V30 14 1 12 15
M  V30 15 1 12 16
M  V30 16 2 13 17
M  V30 17 2 14 18
M  V30 18 1 16 19
M  V30 19 1 17 20
M  V30 20 1 18 21
M  V30 21 1 19 22
M  V30 22 1 20 23
M  V30 23 1 7 10
M  V30 24 1 14 16
M  V30 25 1 15 17
M  V30 26 2 19 21
M  V30 27 1 4 24
M  V30 28 1 6 25
M  V30 29 1 7 26
M  V30 30 1 10 27
M  V30 31 1 11 28
M  V30 32 1 11 29
M  V30 33 1 13 30
M  V30 34 1 20 31
M  V30 35 1 20 32
M  V30 36 1 22 33
M  V30 37 1 22 34
M  V30 38 1 22 35
M  V30 39 1 23 36
M  V30 40 1 23 37
M  V30 41 1 23 38
M  V30 END BOND
M  V30 END CTAB
M  END
>  <Column 1>
1535

>  <level_0>
1688

>  <index>
1688

>  <Unnamed: 0>
1688

>  <NO.>
1700

>  <Name>
etizolam

>  <IUPAC_name>
7-(2-chlorophenyl)-4-ethyl-13-methyl-3-thia-1-8-11-12-tetrazatricyclo[8.3.0.02-6]trideca-2(6)-4-7-10-12-pentaene

>  <SMILES>
CCc1cc2c(s1)-n1c(C)nnc1CN=C2c1ccccc1Cl

>  <CID>
3307

>  <logBB>


>  <BBB+/BBB->
BBB+

>  <Inchi>
InChI=1S/C17H15ClN4S/c1-3-11-8-13-16(12-6-4-5-7-14(12)18)19-9-15-21-20-10(2)22(15)17(13)23-11/h4-8H-3-9H2-1-2H3

>  <threshold>
-1

>  <reference>
R1|R13|R19|R6|R14|R23|R24|R27|R27|R27|R30|R30|

>  <group>
B

>  <Class>
1

>  <ABC>
18.32

>  <ABCGG>
15.43

>  <nAcid>
0

>  <nBase>
0

>  <nAromAtom>
16

>  <nAromBond>
16

>  <nAtom>
38

>  <nHeavyAtom>
23

>  <nSpiro>
0

>  <nBridgehead>
0

>  <nHetero>
6

>  <nN>
4

>  <nO>
0

>  <nF>
0

>  <BalabanJ>
1.6

>  <BertzCT>
922.57

>  <nBonds>
41

>  <nBondsO>
26

>  <nBondsS>
24

>  <nBondsD>
1

>  <nBondsT>
0

>  <nBondsA>
16

>  <nBondsM>
17

>  <nBondsKS>
33

>  <nBondsKD>
8

>  <RNCG>
0.2

>  <RPCG>
0.12

>  <FCSP3>
0.24

>  <SZ>
29.67

>  <Sm>
28.54

>  <Sv>
26.37

>  <Sse>
38.15

>  <Sp>
28.67

>  <Si>
42.35

>  <MZ>
0.78

>  <Mm>
0.75

>  <Mv>
0.69

>  <Mse>
1

>  <Mp>
0.75

>  <Mi>
1.11

>  <NsCH3>
2

>  <NdCH2>
0

>  <NssCH2>
2

>  <NtCH>
0

>  <NdsCH>
0

>  <NaaCH>
5

>  <NsssCH>
0

>  <NddC>
0

>  <NtsC>
0

>  <NdssC>
1

>  <NaasC>
7

>  <NaaaC>
0

>  <NssssC>
0

>  <NsNH3>
0

>  <NsNH2>
0

>  <NssNH2>
0

>  <NdNH>
0

>  <NssNH>
0

>  <NaaNH>
0

>  <NtN>
0

>  <NsssNH>
0

>  <NdsN>
1

>  <NaaN>
2

>  <NsssN>
0

>  <NddsN>
0

>  <NaasN>
1

>  <NssssN>
0

>  <NsOH>
0

>  <NdO>
0

>  <NssO>
0

>  <NaaO>
0

>  <NsF>
0

>  <NsSiH3>
0

>  <NssSiH2>
0

>  <NsssSiH>
0

>  <NssssSi>
0

>  <NsPH2>
0

>  <NssPH>
0

>  <NsssP>
0

>  <NdsssP>
0

>  <NsssssP>
0

>  <NsSH>
0

>  <NdS>
0

>  <NssS>
0

>  <NaaS>
1

>  <NdssS>
0

>  <NddssS>
0

>  <NsCl>
1

>  <NsBr>
0

>  <NsI>
0

>  <fragCpx>
170.06

>  <fMF>
0.5

>  <nHBAcc>
5

>  <nHBDon>
0

>  <Kier1>
16.47

>  <Kier2>
6.72

>  <Lipinski>
1

>  <GhoseFilter>
1

>  <FilterItLogS>
-5.93

>  <VMcGowan>
241.06

>  <LabuteASA>
143.03

>  <PEOE_VSA1>
0

>  <PEOE_VSA2>
9.56

>  <PEOE_VSA3>
0

>  <PEOE_VSA4>
0

>  <PEOE_VSA5>
21.53

>  <PEOE_VSA6>
36.72

>  <PEOE_VSA7>
25.48

>  <PEOE_VSA8>
21.03

>  <PEOE_VSA9>
5.71

>  <PEOE_VSA10>
17.37

>  <PEOE_VSA11>
5.82

>  <PEOE_VSA12>
0

>  <PEOE_VSA13>
0

>  <SMR_VSA1>
0

>  <SMR_VSA2>
0

>  <SMR_VSA3>
14.76

>  <SMR_VSA4>
4.99

>  <SMR_VSA5>
26.81

>  <SMR_VSA6>
0

>  <SMR_VSA7>
63.01

>  <SMR_VSA8>
0

>  <SMR_VSA9>
5

>  <SlogP_VSA1>
0

>  <SlogP_VSA2>
20.48

>  <SlogP_VSA3>
12.97

>  <SlogP_VSA4>
6.92

>  <SlogP_VSA5>
34.58

>  <SlogP_VSA6>
35.32

>  <SlogP_VSA7>
5.02

>  <SlogP_VSA8>
5

>  <SlogP_VSA9>
0

>  <SlogP_VSA10>
0

>  <SlogP_VSA11>
0

>  <EState_VSA1>
0

>  <EState_VSA2>
0

>  <EState_VSA3>
6.54

>  <EState_VSA4>
44.93

>  <EState_VSA5>
4.88

>  <EState_VSA6>
11.34

>  <EState_VSA7>
31.19

>  <EState_VSA8>
27.75

>  <EState_VSA9>
16.59

>  <EState_VSA10>
0

>  <VSA_EState1>
2.12

>  <VSA_EState2>
6.13

>  <VSA_EState3>
10.35

>  <VSA_EState4>
3.01

>  <VSA_EState5>
1.76

>  <VSA_EState6>
10.08

>  <VSA_EState7>
0.99

>  <VSA_EState8>
4.65

>  <VSA_EState9>
0

>  <apol>
47.87

>  <bpol>
22.01

>  <nRing>
4

>  <nHRing>
3

>  <naRing>
3

>  <naHRing>
2

>  <nARing 2>
1

>  <nAHRing 2>
1

>  <nFRing>
1

>  <nFHRing>
1

>  <nFaRing>
0

>  <nFaHRing>
0

>  <nFARing 2>
1

>  <nFAHRing 2>
1

>  <nRot>
2

>  <SLogP>
4.2

>  <SMR>
94.15

>  <TopoPSA(NO)>
43.07

>  <TopoPSA>
71.31

>  <JGI1>
0.15

>  <JGI2>
0.08

>  <JGI3>
0.05

>  <JGI4>
0.04

>  <JGI5>
0.03

>  <Diameter>
9

>  <Radius>
5

>  <TMWC10>
125.64

>  <TSRW10>
73.98

>  <MW>
342.07

>  <AMW>
9

>  <WPath>
1047

>  <WPol>
42

>  <Zagreb1>
128

>  <Zagreb2>
157

>  <mZagreb2>
5.03

>  <yes>


>  <nAR-cont>
0.816016

>  <nHA-cont>
0.967789328

>  <MWHBN>
0.27034137

>  <MWHBN-cont>
0.919334806

>  <TPSA-cont>
0.502211919

>  <pka_cont>
0.97

>  <yes.1>


>  <BBB_SCORE>
4.652231375

>  <MMFF94 Energy>
75.827

$$$$
Compound 1283
Actelion Java MolfileCreator 2.0

  0  0  0  0  0  0              0 V3000
M  V30 BEGIN CTAB
M  V30 COUNTS 36 38 0 0 0
M  V30 BEGIN ATOM
M  V30 1 O -0.796 1.4332 1.6722 0
M  V30 2 C -1.022 0.7163 0.6987 0
M  V30 3 N -0.2324 -0.3599 0.2857 0
M  V30 4 C -2.2174 0.9869 -0.1203 0
M  V30 5 C 0.9295 -0.6463 1.0515 0
M  V30 6 C -0.5897 -1.1482 -0.7963 0
M  V30 7 C -2.4732 0.1428 -1.1978 0
M  V30 8 C -3.0687 2.0596 0.1753 0
M  V30 9 C 2.1326 0.062 0.8596 0
M  V30 10 C 0.852 -1.6623 2.0171 0
M  V30 11 N -1.6473 -0.9399 -1.5172 0
M  V30 12 C 0.2716 -2.3389 -1.1625 0
M  V30 13 C -3.6006 0.3838 -1.9873 0
M  V30 14 C -4.1904 2.29 -0.6201 0
M  V30 15 C 3.2505 -0.2997 1.632 0
M  V30 16 C 2.2822 1.1854 -0.1405 0
M  V30 17 C 1.9705 -1.999 2.777 0
M  V30 18 C -4.4563 1.4518 -1.7022 0
M  V30 19 C 3.17 -1.3213 2.5805 0
M  V30 20 C 2.8089 0.7043 -1.4838 0
M  V30 21 H -2.8586 2.7115 1.0206 0
M  V30 22 H -0.0832 -2.1915 2.1838 0
M  V30 23 H 1.3346 -2.0911 -1.1465 0
M  V30 24 H 0.0829 -3.1504 -0.4535 0
M  V30 25 H 0.016 -2.6931 -2.166 0
M  V30 26 H -3.8115 -0.2688 -2.8309 0
M  V30 27 H -4.8555 3.1207 -0.3964 0
M  V30 28 H 4.1958 0.2245 1.5035 0
M  V30 29 H 2.9689 1.9381 0.2678 0
M  V30 30 H 1.3339 1.7127 -0.2853 0
M  V30 31 H 1.9048 -2.785 3.5248 0
M  V30 32 H -5.33 1.6266 -2.3255 0
M  V30 33 H 4.0439 -1.5798 3.1737 0
M  V30 34 H 2.9548 1.555 -2.1573 0
M  V30 35 H 2.1077 0.0156 -1.9638 0
M  V30 36 H 3.7691 0.1889 -1.3762 0
M  V30 END ATOM
M  V30 BEGIN BOND
M  V30 1 2 1 2
M  V30 2 1 2 3
M  V30 3 1 2 4
M  V30 4 1 3 5
M  V30 5 1 3 6
M  V30 6 2 4 7
M  V30 7 1 4 8
M  V30 8 2 5 9
M  V30 9 1 5 10
M  V30 10 2 6 11
M  V30 11 1 6 12
M  V30 12 1 7 13
M  V30 13 2 8 14
M  V30 14 1 9 15
M  V30 15 1 9 16
M  V30 16 2 10 17
M  V30 17 2 13 18
M  V30 18 2 15 19
M  V30 19 1 16 20
M  V30 20 1 7 11
M  V30 21 1 14 18
M  V30 22 1 17 19
M  V30 23 1 8 21
M  V30 24 1 10 22
M  V30 25 1 12 23
M  V30 26 1 12 24
M  V30 27 1 12 25
M  V30 28 1 13 26
M  V30 29 1 14 27
M  V30 30 1 15 28
M  V30 31 1 16 29
M  V30 32 1 16 30
M  V30 33 1 17 31
M  V30 34 1 18 32
M  V30 35 1 19 33
M  V30 36 1 20 34
M  V30 37 1 20 35
M  V30 38 1 20 36
M  V30 END BOND
M  V30 END CTAB
M  END
>  <Column 1>
1537

>  <level_0>
1690

>  <index>
1690

>  <Unnamed: 0>
1690

>  <NO.>
1702

>  <Name>
etaqualone

>  <IUPAC_name>
3-(2-ethylphenyl)-2-methylquinazolin-4-one

>  <SMILES>
CCc1ccccc1-n1c(C)nc2ccccc2c1=O

>  <CID>
23914

>  <logBB>


>  <BBB+/BBB->
BBB+

>  <Inchi>
InChI=1S/C17H16N2O/c1-3-13-8-4-7-11-16(13)19-12(2)18-15-10-6-5-9-14(15)17(19)20/h4-11H-3H2-1-2H3

>  <threshold>
-1

>  <reference>
R1|R13|R19|R6|R24|R27|R27|R27|R30|R30|

>  <group>
B

>  <Class>
1

>  <ABC>
15.53

>  <ABCGG>
12.94

>  <nAcid>
0

>  <nBase>
0

>  <nAromAtom>
16

>  <nAromBond>
17

>  <nAtom>
36

>  <nHeavyAtom>
20

>  <nSpiro>
0

>  <nBridgehead>
0

>  <nHetero>
3

>  <nN>
2

>  <nO>
1

>  <nF>
0

>  <BalabanJ>
1.76

>  <BertzCT>
833.76

>  <nBonds>
38

>  <nBondsO>
22

>  <nBondsS>
20

>  <nBondsD>
1

>  <nBondsT>
0

>  <nBondsA>
17

>  <nBondsM>
18

>  <nBondsKS>
30

>  <nBondsKD>
8

>  <RNCG>
0.21

>  <RPCG>
0.2

>  <FCSP3>
0.18

>  <SZ>
23.33

>  <Sm>
22.01

>  <Sv>
23.57

>  <Sse>
35.76

>  <Sp>
25.19

>  <Si>
40.11

>  <MZ>
0.65

>  <Mm>
0.61

>  <Mv>
0.65

>  <Mse>
0.99

>  <Mp>
0.7

>  <Mi>
1.11

>  <NsCH3>
2

>  <NdCH2>
0

>  <NssCH2>
1

>  <NtCH>
0

>  <NdsCH>
0

>  <NaaCH>
8

>  <NsssCH>
0

>  <NddC>
0

>  <NtsC>
0

>  <NdssC>
0

>  <NaasC>
3

>  <NaaaC>
2

>  <NssssC>
0

>  <NsNH3>
0

>  <NsNH2>
0

>  <NssNH2>
0

>  <NdNH>
0

>  <NssNH>
0

>  <NaaNH>
0

>  <NtN>
0

>  <NsssNH>
0

>  <NdsN>
0

>  <NaaN>
1

>  <NsssN>
0

>  <NddsN>
0

>  <NaasN>
1

>  <NssssN>
0

>  <NsOH>
0

>  <NdO>
1

>  <NssO>
0

>  <NaaO>
0

>  <NsF>
0

>  <NsSiH3>
0

>  <NssSiH2>
0

>  <NsssSiH>
0

>  <NssssSi>
0

>  <NsPH2>
0

>  <NssPH>
0

>  <NsssP>
0

>  <NdsssP>
0

>  <NsssssP>
0

>  <NsSH>
0

>  <NdS>
0

>  <NssS>
0

>  <NaaS>
0

>  <NdssS>
0

>  <NddssS>
0

>  <NsCl>
0

>  <NsBr>
0

>  <NsI>
0

>  <fragCpx>
104.03

>  <fMF>
0.44

>  <nHBAcc>
3

>  <nHBDon>
0

>  <Kier1>
14.92

>  <Kier2>
6.41

>  <Lipinski>
1

>  <GhoseFilter>
1

>  <FilterItLogS>
-4.9

>  <VMcGowan>
209.24

>  <LabuteASA>
117.08

>  <PEOE_VSA1>
0

>  <PEOE_VSA2>
9.36

>  <PEOE_VSA3>
4.98

>  <PEOE_VSA4>
0

>  <PEOE_VSA5>
0

>  <PEOE_VSA6>
37.26

>  <PEOE_VSA7>
37.11

>  <PEOE_VSA8>
0

>  <PEOE_VSA9>
16.59

>  <PEOE_VSA10>
5.82

>  <PEOE_VSA11>
0

>  <PEOE_VSA12>
0

>  <PEOE_VSA13>
5.56

>  <SMR_VSA1>
0

>  <SMR_VSA2>
0

>  <SMR_VSA3>
9.55

>  <SMR_VSA4>
0

>  <SMR_VSA5>
20.27

>  <SMR_VSA6>
0

>  <SMR_VSA7>
70.27

>  <SMR_VSA8>
0

>  <SMR_VSA9>
5.69

>  <SlogP_VSA1>
5.56

>  <SlogP_VSA2>
9.55

>  <SlogP_VSA3>
6.42

>  <SlogP_VSA4>
6.92

>  <SlogP_VSA5>
18.31

>  <SlogP_VSA6>
53.33

>  <SlogP_VSA7>
0

>  <SlogP_VSA8>
16.59

>  <SlogP_VSA9>
0

>  <SlogP_VSA10>
0

>  <SlogP_VSA11>
0

>  <EState_VSA1>
0

>  <EState_VSA2>
5.56

>  <EState_VSA3>
5.39

>  <EState_VSA4>
29.01

>  <EState_VSA5>
0

>  <EState_VSA6>
4.57

>  <EState_VSA7>
49.39

>  <EState_VSA8>
17.97

>  <EState_VSA9>
0

>  <EState_VSA10>
4.79

>  <VSA_EState1>
1.71

>  <VSA_EState2>
17.29

>  <VSA_EState3>
0.66

>  <VSA_EState4>
2.82

>  <VSA_EState5>
0.72

>  <VSA_EState6>
15.46

>  <VSA_EState7>
0.88

>  <VSA_EState8>
3.97

>  <VSA_EState9>
0

>  <apol>
42.06

>  <bpol>
19.77

>  <nRing>
3

>  <nHRing>
1

>  <naRing>
3

>  <naHRing>
1

>  <nARing 2>
0

>  <nAHRing 2>
0

>  <nFRing>
1

>  <nFHRing>
1

>  <nFaRing>
1

>  <nFaHRing>
1

>  <nFARing 2>
0

>  <nFAHRing 2>
0

>  <nRot>
2

>  <SLogP>
3.26

>  <SMR>
81.46

>  <TopoPSA(NO)>
34.89

>  <TopoPSA>
34.89

>  <JGI1>
0.14

>  <JGI2>
0.08

>  <JGI3>
0.06

>  <JGI4>
0.05

>  <JGI5>
0.03

>  <Diameter>
9

>  <Radius>
5

>  <TMWC10>
116.31

>  <TSRW10>
54.04

>  <MW>
264.13

>  <AMW>
7.34

>  <WPath>
739

>  <WPol>
35

>  <Zagreb1>
106

>  <Zagreb2>
128

>  <mZagreb2>
4.5

>  <yes>


>  <nAR-cont>
0.336376

>  <nHA-cont>
0.999629945

>  <MWHBN>
0.184591793

>  <MWHBN-cont>
0.99162918

>  <TPSA-cont>
0.756446135

>  <pka_cont>
0.97

>  <yes.1>


>  <BBB_SCORE>
4.821341984

>  <MMFF94 Energy>
43.977

$$$$
Compound 1284
Actelion Java MolfileCreator 2.0

  0  0  0  0  0  0              0 V3000
M  V30 BEGIN CTAB
M  V30 COUNTS 54 56 0 0 0
M  V30 BEGIN ATOM
M  V30 1 Cl 8.2834 1.2709 4.0555 0
M  V30 2 C 6.5895 1.5031 4.2655 0
M  V30 3 C 5.691 0.8603 3.4079 0
M  V30 4 C 6.1314 2.3294 5.2851 0
M  V30 5 C 4.3051 1.033 3.5418 0
M  V30 6 C 4.7629 2.5092 5.4481 0
M  V30 7 N 3.3861 0.4018 2.709 0
M  V30 8 C 3.8671 1.8653 4.5867 0
M  V30 9 C 2.3474 1.2309 2.0677 0
M  V30 10 C 3.7792 -0.7808 1.9255 0
M  V30 11 C 1.151 0.3706 1.5953 0
M  V30 12 C 2.5398 -1.5843 1.4717 0
M  V30 13 N 1.5488 -0.7659 0.7324 0
M  V30 14 C 0.398 -1.5995 0.3459 0
M  V30 15 C -0.547 -0.8964 -0.6333 0
M  V30 16 C -1.6468 -1.8487 -1.0991 0
M  V30 17 N -2.5584 -1.2 -2.0102 0
M  V30 18 N -3.5472 -0.3449 -1.5895 0
M  V30 19 C -2.5482 -1.2866 -3.4016 0
M  V30 20 C -4.1122 0.05 -2.6953 0
M  V30 21 O -1.7976 -1.9468 -4.1016 0
M  V30 22 N -3.5689 -0.4654 -3.8179 0
M  V30 23 C -5.2653 1.0144 -2.7597 0
M  V30 24 C -3.9288 -0.2597 -5.2071 0
M  V30 25 C -5.8252 1.3781 -1.397 0
M  V30 26 C -4.9174 -1.3106 -5.6863 0
M  V30 27 H 6.0939 0.2375 2.6156 0
M  V30 28 H 6.8291 2.8267 5.9523 0
M  V30 29 H 4.3858 3.1408 6.2481 0
M  V30 30 H 2.8028 1.9982 4.7655 0
M  V30 31 H 2.7881 1.7509 1.2072 0
M  V30 32 H 1.9542 1.9991 2.742 0
M  V30 33 H 4.405 -1.4515 2.5269 0
M  V30 34 H 4.3571 -0.4682 1.0466 0
M  V30 35 H 0.472 1.0365 1.0524 0
M  V30 36 H 0.6124 0.0016 2.4788 0
M  V30 37 H 2.0687 -2.0373 2.3549 0
M  V30 38 H 2.888 -2.4037 0.8313 0
M  V30 39 H -0.1585 -1.9326 1.2317 0
M  V30 40 H 0.7722 -2.504 -0.1514 0
M  V30 41 H -1.0106 -0.021 -0.1644 0
M  V30 42 H 0.0151 -0.5316 -1.5022 0
M  V30 43 H -2.2283 -2.22 -0.2479 0
M  V30 44 H -1.2025 -2.7104 -1.6094 0
M  V30 45 H -6.0556 0.5746 -3.3775 0
M  V30 46 H -4.9218 1.9212 -3.2702 0
M  V30 47 H -3.0201 -0.3122 -5.8162 0
M  V30 48 H -4.366 0.7366 -5.3224 0
M  V30 49 H -6.665 2.0718 -1.5037 0
M  V30 50 H -5.0648 1.8588 -0.7726 0
M  V30 51 H -6.1826 0.4885 -0.8679 0
M  V30 52 H -5.8385 -1.285 -5.095 0
M  V30 53 H -4.4944 -2.3168 -5.599 0
M  V30 54 H -5.1779 -1.1383 -6.7349 0
M  V30 END ATOM
M  V30 BEGIN BOND
M  V30 1 1 1 2
M  V30 2 2 2 3
M  V30 3 1 2 4
M  V30 4 1 3 5
M  V30 5 2 4 6
M  V30 6 1 5 7
M  V30 7 2 5 8
M  V30 8 1 7 9
M  V30 9 1 7 10
M  V30 10 1 9 11
M  V30 11 1 10 12
M  V30 12 1 11 13
M  V30 13 1 13 14
M  V30 14 1 14 15
M  V30 15 1 15 16
M  V30 16 1 16 17
M  V30 17 1 17 18
M  V30 18 1 17 19
M  V30 19 2 18 20
M  V30 20 2 19 21
M  V30 21 1 19 22
M  V30 22 1 20 23
M  V30 23 1 22 24
M  V30 24 1 23 25
M  V30 25 1 24 26
M  V30 26 1 6 8
M  V30 27 1 12 13
M  V30 28 1 20 22
M  V30 29 1 3 27
M  V30 30 1 4 28
M  V30 31 1 6 29
M  V30 32 1 8 30
M  V30 33 1 9 31
M  V30 34 1 9 32
M  V30 35 1 10 33
M  V30 36 1 10 34
M  V30 37 1 11 35
M  V30 38 1 11 36
M  V30 39 1 12 37
M  V30 40 1 12 38
M  V30 41 1 14 39
M  V30 42 1 14 40
M  V30 43 1 15 41
M  V30 44 1 15 42
M  V30 45 1 16 43
M  V30 46 1 16 44
M  V30 47 1 23 45
M  V30 48 1 23 46
M  V30 49 1 24 47
M  V30 50 1 24 48
M  V30 51 1 25 49
M  V30 52 1 25 50
M  V30 53 1 25 51
M  V30 54 1 26 52
M  V30 55 1 26 53
M  V30 56 1 26 54
M  V30 END BOND
M  V30 END CTAB
M  END
>  <Column 1>
1538

>  <level_0>
1691

>  <index>
1691

>  <Unnamed: 0>
1691

>  <NO.>
1703

>  <Name>
etoperidone

>  <IUPAC_name>
2-[3-[4-(3-chlorophenyl)piperazin-1-yl]propyl]-4-5-diethyl-1-2-4-triazol-3-one

>  <SMILES>
CCc1nn(CCCN2CCN(c3cccc(Cl)c3)CC2)c(=O)n1CC

>  <CID>
40589

>  <logBB>


>  <BBB+/BBB->
BBB+

>  <Inchi>
InChI=1S/C19H28ClN5O/c1-3-18-21-25(19(26)24(18)4-2)10-6-9-22-11-13-23(14-12-22)17-8-5-7-16(20)15-17/h5-7-8-15H-3-4-6-9-14H2-1-2H3

>  <threshold>
-1

>  <reference>
R1|R13|R19|R6|R24|R27|R27|R27|R30|R30|

>  <group>
B

>  <Class>
1

>  <ABC>
19.86

>  <ABCGG>
15.37

>  <nAcid>
0

>  <nBase>
1

>  <nAromAtom>
11

>  <nAromBond>
11

>  <nAtom>
54

>  <nHeavyAtom>
26

>  <nSpiro>
0

>  <nBridgehead>
0

>  <nHetero>
7

>  <nN>
5

>  <nO>
1

>  <nF>
0

>  <BalabanJ>
1.34

>  <BertzCT>
776.48

>  <nBonds>
56

>  <nBondsO>
28

>  <nBondsS>
44

>  <nBondsD>
1

>  <nBondsT>
0

>  <nBondsA>
11

>  <nBondsM>
12

>  <nBondsKS>
51

>  <nBondsKD>
5

>  <RNCG>
0.19

>  <RPCG>
0.18

>  <FCSP3>
0.58

>  <SZ>
33.67

>  <Sm>
31.46

>  <Sv>
32.18

>  <Sse>
53.84

>  <Sp>
35.26

>  <Si>
61.63

>  <MZ>
0.62

>  <Mm>
0.58

>  <Mv>
0.6

>  <Mse>
1

>  <Mp>
0.65

>  <Mi>
1.14

>  <NsCH3>
2

>  <NdCH2>
0

>  <NssCH2>
9

>  <NtCH>
0

>  <NdsCH>
0

>  <NaaCH>
4

>  <NsssCH>
0

>  <NddC>
0

>  <NtsC>
0

>  <NdssC>
0

>  <NaasC>
3

>  <NaaaC>
0

>  <NssssC>
0

>  <NsNH3>
0

>  <NsNH2>
0

>  <NssNH2>
0

>  <NdNH>
0

>  <NssNH>
0

>  <NaaNH>
0

>  <NtN>
0

>  <NsssNH>
0

>  <NdsN>
0

>  <NaaN>
1

>  <NsssN>
2

>  <NddsN>
0

>  <NaasN>
2

>  <NssssN>
0

>  <NsOH>
0

>  <NdO>
1

>  <NssO>
0

>  <NaaO>
0

>  <NsF>
0

>  <NsSiH3>
0

>  <NssSiH2>
0

>  <NsssSiH>
0

>  <NssssSi>
0

>  <NsPH2>
0

>  <NssPH>
0

>  <NsssP>
0

>  <NdsssP>
0

>  <NsssssP>
0

>  <NsSH>
0

>  <NdS>
0

>  <NssS>
0

>  <NaaS>
0

>  <NdssS>
0

>  <NddssS>
0

>  <NsCl>
1

>  <NsBr>
0

>  <NsI>
0

>  <fragCpx>
134.07

>  <fMF>
0.37

>  <nHBAcc>
6

>  <nHBDon>
0

>  <Kier1>
20.73

>  <Kier2>
9.97

>  <Lipinski>
1

>  <GhoseFilter>
1

>  <FilterItLogS>
-4.17

>  <VMcGowan>
292.5

>  <LabuteASA>
159.52

>  <PEOE_VSA1>
4.9

>  <PEOE_VSA2>
9.47

>  <PEOE_VSA3>
9.48

>  <PEOE_VSA4>
5.1

>  <PEOE_VSA5>
0

>  <PEOE_VSA6>
24.59

>  <PEOE_VSA7>
31.54

>  <PEOE_VSA8>
62.94

>  <PEOE_VSA9>
0

>  <PEOE_VSA10>
5.82

>  <PEOE_VSA11>
0

>  <PEOE_VSA12>
0

>  <PEOE_VSA13>
0

>  <SMR_VSA1>
0

>  <SMR_VSA2>
0

>  <SMR_VSA3>
19.25

>  <SMR_VSA4>
0

>  <SMR_VSA5>
39.78

>  <SMR_VSA6>
37.62

>  <SMR_VSA7>
45.6

>  <SMR_VSA8>
0

>  <SMR_VSA9>
0

>  <SlogP_VSA1>
10.59

>  <SlogP_VSA2>
51.97

>  <SlogP_VSA3>
19.51

>  <SlogP_VSA4>
0

>  <SlogP_VSA5>
26.09

>  <SlogP_VSA6>
29.06

>  <SlogP_VSA7>
5.02

>  <SlogP_VSA8>
0

>  <SlogP_VSA9>
0

>  <SlogP_VSA10>
5.69

>  <SlogP_VSA11>
0

>  <EState_VSA1>
0

>  <EState_VSA2>
5.69

>  <EState_VSA3>
13.09

>  <EState_VSA4>
56.41

>  <EState_VSA5>
5.69

>  <EState_VSA6>
9.25

>  <EState_VSA7>
32.05

>  <EState_VSA8>
20.96

>  <EState_VSA9>
11.6

>  <EState_VSA10>
4.79

>  <VSA_EState1>
3.4

>  <VSA_EState2>
17.16

>  <VSA_EState3>
5.26

>  <VSA_EState4>
1.22

>  <VSA_EState5>
0.88

>  <VSA_EState6>
8.05

>  <VSA_EState7>
1.74

>  <VSA_EState8>
10.48

>  <VSA_EState9>
0

>  <apol>
58.88

>  <bpol>
36.31

>  <nRing>
3

>  <nHRing>
2

>  <naRing>
2

>  <naHRing>
1

>  <nARing 2>
1

>  <nAHRing 2>
1

>  <nFRing>
0

>  <nFHRing>
0

>  <nFaRing>
0

>  <nFaHRing>
0

>  <nFARing 2>
0

>  <nFAHRing 2>
0

>  <nRot>
7

>  <SLogP>
2.49

>  <SMR>
106.26

>  <TopoPSA(NO)>
46.3

>  <TopoPSA>
46.3

>  <JGI1>
0.18

>  <JGI2>
0.08

>  <JGI3>
0.05

>  <JGI4>
0.04

>  <JGI5>
0.02

>  <Diameter>
15

>  <Radius>
8

>  <TMWC10>
128.93

>  <TSRW10>
74.93

>  <MW>
377.2

>  <AMW>
6.99

>  <WPath>
2011

>  <WPol>
39

>  <Zagreb1>
132

>  <Zagreb2>
154

>  <mZagreb2>
5.94

>  <yes>


>  <nAR-cont>
0.816016

>  <nHA-cont>
0.892715677

>  <MWHBN>
0.308933787

>  <MWHBN-cont>
0.813251913

>  <TPSA-cont>
0.676797249

>  <pka_cont>
0.97

>  <yes.1>


>  <BBB_SCORE>
4.767204046

>  <MMFF94 Energy>
71.087

$$$$
Compound 1285
Actelion Java MolfileCreator 2.0

  0  0  0  0  0  0              0 V3000
M  V30 BEGIN CTAB
M  V30 COUNTS 65 68 0 0 0
M  V30 BEGIN ATOM
M  V30 1 Cl 6.7081 3.9089 4.2285 0
M  V30 2 C 6.1396 2.3577 4.7164 0
M  V30 3 C 5.0842 1.7573 4.0224 0
M  V30 4 C 6.7371 1.7161 5.7951 0
M  V30 5 C 4.6008 0.4908 4.3841 0
M  V30 6 C 6.2704 0.4657 6.1828 0
M  V30 7 N 3.5482 -0.1293 3.7178 0
M  V30 8 C 5.2151 -0.1322 5.4845 0
M  V30 9 C 2.6265 0.659 2.8822 0
M  V30 10 C 3.7402 -1.5174 3.2568 0
M  V30 11 C 1.3012 -0.0999 2.634 0
M  V30 12 C 2.3834 -2.2119 3.0015 0
M  V30 13 N 1.5008 -1.4588 2.0787 0
M  V30 14 C 0.2288 -2.179 1.9 0
M  V30 15 C -0.6383 -1.5936 0.7811 0
M  V30 16 C -1.8724 -2.4623 0.5439 0
M  V30 17 N -2.7166 -1.9103 -0.4875 0
M  V30 18 N -3.5888 -0.8749 -0.2582 0
M  V30 19 C -2.7206 -2.2577 -1.8356 0
M  V30 20 C -4.0999 -0.6263 -1.4316 0
M  V30 21 O -2.0481 -3.111 -2.3925 0
M  V30 22 N -3.6391 -1.4203 -2.42 0
M  V30 23 C -5.1336 0.4352 -1.6943 0
M  V30 24 C -3.9393 -1.4276 -3.8425 0
M  V30 25 C -5.4656 1.2708 -0.4718 0
M  V30 26 C -2.8669 -0.697 -4.6558 0
M  V30 27 O -2.9904 0.7058 -4.4099 0
M  V30 28 C -2.0908 1.5289 -5.028 0
M  V30 29 C -1.0781 1.1316 -5.9017 0
M  V30 30 C -2.2408 2.8857 -4.7275 0
M  V30 31 C -0.2248 2.0849 -6.4667 0
M  V30 32 C -1.3898 3.8378 -5.2911 0
M  V30 33 C -0.3803 3.4362 -6.162 0
M  V30 34 H 4.6585 2.2878 3.1765 0
M  V30 35 H 7.555 2.1836 6.3353 0
M  V30 36 H 6.7162 -0.0448 7.0323 0
M  V30 37 H 4.8502 -1.0937 5.8375 0
M  V30 38 H 3.1031 0.8875 1.9204 0
M  V30 39 H 2.3757 1.6071 3.3742 0
M  V30 40 H 4.29 -2.1247 3.9835 0
M  V30 41 H 4.3298 -1.5078 2.331 0
M  V30 42 H 0.7084 0.5082 1.9427 0
M  V30 43 H 0.7452 -0.1583 3.5797 0
M  V30 44 H 1.8778 -2.3637 3.9651 0
M  V30 45 H 2.589 -3.2038 2.5809 0
M  V30 46 H -0.3395 -2.2075 2.839 0
M  V30 47 H 0.4516 -3.2203 1.6327 0
M  V30 48 H -0.9628 -0.5776 1.0336 0
M  V30 49 H -0.057 -1.5207 -0.1467 0
M  V30 50 H -2.4698 -2.5523 1.458 0
M  V30 51 H -1.5657 -3.4681 0.236 0
M  V30 52 H -6.0415 -0.0569 -2.0611 0
M  V30 53 H -4.7732 1.0876 -2.4955 0
M  V30 54 H -4.9172 -0.9633 -4.0017 0
M  V30 55 H -3.9826 -2.4727 -4.168 0
M  V30 56 H -6.2162 2.0274 -0.7208 0
M  V30 57 H -4.5761 1.7849 -0.0926 0
M  V30 58 H -5.8653 0.6485 0.3357 0
M  V30 59 H -1.8688 -1.0496 -4.3701 0
M  V30 60 H -3.0431 -0.8945 -5.7198 0
M  V30 61 H -0.9212 0.091 -6.1644 0
M  V30 62 H -3.026 3.2041 -4.0464 0
M  V30 63 H 0.5644 1.7705 -7.1449 0
M  V30 64 H -1.5149 4.8896 -5.0483 0
M  V30 65 H 0.2855 4.1742 -6.6015 0
M  V30 END ATOM
M  V30 BEGIN BOND
M  V30 1 1 1 2
M  V30 2 2 2 3
M  V30 3 1 2 4
M  V30 4 1 3 5
M  V30 5 2 4 6
M  V30 6 1 5 7
M  V30 7 2 5 8
M  V30 8 1 7 9
M  V30 9 1 7 10
M  V30 10 1 9 11
M  V30 11 1 10 12
M  V30 12 1 11 13
M  V30 13 1 13 14
M  V30 14 1 14 15
M  V30 15 1 15 16
M  V30 16 1 16 17
M  V30 17 1 17 18
M  V30 18 1 17 19
M  V30 19 2 18 20
M  V30 20 2 19 21
M  V30 21 1 19 22
M  V30 22 1 20 23
M  V30 23 1 22 24
M  V30 24 1 23 25
M  V30 25 1 24 26
M  V30 26 1 26 27
M  V30 27 1 27 28
M  V30 28 2 28 29
M  V30 29 1 28 30
M  V30 30 1 29 31
M  V30 31 2 30 32
M  V30 32 2 31 33
M  V30 33 1 6 8
M  V30 34 1 12 13
M  V30 35 1 20 22
M  V30 36 1 32 33
M  V30 37 1 3 34
M  V30 38 1 4 35
M  V30 39 1 6 36
M  V30 40 1 8 37
M  V30 41 1 9 38
M  V30 42 1 9 39
M  V30 43 1 10 40
M  V30 44 1 10 41
M  V30 45 1 11 42
M  V30 46 1 11 43
M  V30 47 1 12 44
M  V30 48 1 12 45
M  V30 49 1 14 46
M  V30 50 1 14 47
M  V30 51 1 15 48
M  V30 52 1 15 49
M  V30 53 1 16 50
M  V30 54 1 16 51
M  V30 55 1 23 52
M  V30 56 1 23 53
M  V30 57 1 24 54
M  V30 58 1 24 55
M  V30 59 1 25 56
M  V30 60 1 25 57
M  V30 61 1 25 58
M  V30 62 1 26 59
M  V30 63 1 26 60
M  V30 64 1 29 61
M  V30 65 1 30 62
M  V30 66 1 31 63
M  V30 67 1 32 64
M  V30 68 1 33 65
M  V30 END BOND
M  V30 END CTAB
M  END
>  <Column 1>
1539

>  <level_0>
1692

>  <index>
1692

>  <Unnamed: 0>
1692

>  <NO.>
1704

>  <Name>
nefazodone

>  <IUPAC_name>
2-[3-[4-(3-chlorophenyl)piperazin-1-yl]propyl]-5-ethyl-4-(2-phenoxyethyl)-1-2-4-triazol-3-one;hydron;chloride

>  <SMILES>
CCc1nn(CCCN2CCN(c3cccc(Cl)c3)CC2)c(=O)n1CCOc1ccccc1

>  <CID>
4449

>  <logBB>


>  <BBB+/BBB->
BBB+

>  <Inchi>
InChI=1S/C25H32ClN5O2/c1-2-24-27-31(25(32)30(24)18-19-33-23-10-4-3-5-11-23)13-7-12-28-14-16-29(17-15-28)22-9-6-8-21(26)20-22/h3-6-8-11-20H-2-7-12-19H2-1H3

>  <threshold>
-1

>  <reference>
R1|R13|R19|R6|R14|R15|R23|R24|R26|R27|R27|R27|R27|R30|R30|

>  <group>
B

>  <Class>
1

>  <ABC>
25.51

>  <ABCGG>
18.15

>  <nAcid>
0

>  <nBase>
1

>  <nAromAtom>
17

>  <nAromBond>
17

>  <nAtom>
65

>  <nHeavyAtom>
33

>  <nSpiro>
0

>  <nBridgehead>
0

>  <nHetero>
8

>  <nN>
5

>  <nO>
2

>  <nF>
0

>  <BalabanJ>
1.12

>  <BertzCT>
1073.9

>  <nBonds>
68

>  <nBondsO>
36

>  <nBondsS>
50

>  <nBondsD>
1

>  <nBondsT>
0

>  <nBondsA>
17

>  <nBondsM>
18

>  <nBondsKS>
60

>  <nBondsKD>
8

>  <RNCG>
0.19

>  <RPCG>
0.13

>  <FCSP3>
0.44

>  <SZ>
41.67

>  <Sm>
39.13

>  <Sv>
39.98

>  <Sse>
64.95

>  <Sp>
43.34

>  <Si>
73.67

>  <MZ>
0.64

>  <Mm>
0.6

>  <Mv>
0.62

>  <Mse>
1

>  <Mp>
0.67

>  <Mi>
1.13

>  <NsCH3>
1

>  <NdCH2>
0

>  <NssCH2>
10

>  <NtCH>
0

>  <NdsCH>
0

>  <NaaCH>
9

>  <NsssCH>
0

>  <NddC>
0

>  <NtsC>
0

>  <NdssC>
0

>  <NaasC>
4

>  <NaaaC>
0

>  <NssssC>
0

>  <NsNH3>
0

>  <NsNH2>
0

>  <NssNH2>
0

>  <NdNH>
0

>  <NssNH>
0

>  <NaaNH>
0

>  <NtN>
0

>  <NsssNH>
0

>  <NdsN>
0

>  <NaaN>
1

>  <NsssN>
2

>  <NddsN>
0

>  <NaasN>
2

>  <NssssN>
0

>  <NsOH>
0

>  <NdO>
1

>  <NssO>
1

>  <NaaO>
0

>  <NsF>
0

>  <NsSiH3>
0

>  <NssSiH2>
0

>  <NsssSiH>
0

>  <NssssSi>
0

>  <NsPH2>
0

>  <NssPH>
0

>  <NsssP>
0

>  <NdsssP>
0

>  <NsssssP>
0

>  <NsSH>
0

>  <NdS>
0

>  <NssS>
0

>  <NaaS>
0

>  <NdssS>
0

>  <NddssS>
0

>  <NsCl>
1

>  <NsBr>
0

>  <NsI>
0

>  <fragCpx>
240.08

>  <fMF>
0.45

>  <nHBAcc>
7

>  <nHBDon>
0

>  <Kier1>
26.07

>  <Kier2>
13.35

>  <Lipinski>
1

>  <GhoseFilter>
0

>  <FilterItLogS>
-5.6

>  <VMcGowan>
359.15

>  <LabuteASA>
199.69

>  <PEOE_VSA1>
9.64

>  <PEOE_VSA2>
9.47

>  <PEOE_VSA3>
9.48

>  <PEOE_VSA4>
5.1

>  <PEOE_VSA5>
0

>  <PEOE_VSA6>
42.79

>  <PEOE_VSA7>
36.75

>  <PEOE_VSA8>
56.4

>  <PEOE_VSA9>
6.54

>  <PEOE_VSA10>
18.18

>  <PEOE_VSA11>
0

>  <PEOE_VSA12>
0

>  <PEOE_VSA13>
0

>  <SMR_VSA1>
4.74

>  <SMR_VSA2>
0

>  <SMR_VSA3>
19.25

>  <SMR_VSA4>
0

>  <SMR_VSA5>
32.85

>  <SMR_VSA6>
44.23

>  <SMR_VSA7>
75.93

>  <SMR_VSA8>
0

>  <SMR_VSA9>
5.75

>  <SlogP_VSA1>
15.33

>  <SlogP_VSA2>
58.58

>  <SlogP_VSA3>
19.51

>  <SlogP_VSA4>
0

>  <SlogP_VSA5>
19.17

>  <SlogP_VSA6>
59.39

>  <SlogP_VSA7>
5.02

>  <SlogP_VSA8>
0

>  <SlogP_VSA9>
0

>  <SlogP_VSA10>
5.69

>  <SlogP_VSA11>
5.75

>  <EState_VSA1>
0

>  <EState_VSA2>
5.69

>  <EState_VSA3>
19.7

>  <EState_VSA4>
62.16

>  <EState_VSA5>
5.69

>  <EState_VSA6>
9.25

>  <EState_VSA7>
55.45

>  <EState_VSA8>
20.96

>  <EState_VSA9>
16.34

>  <EState_VSA10>
4.79

>  <VSA_EState1>
9.12

>  <VSA_EState2>
17.71

>  <VSA_EState3>
5.34

>  <VSA_EState4>
1.14

>  <VSA_EState5>
1.62

>  <VSA_EState6>
17.71

>  <VSA_EState7>
1.62

>  <VSA_EState8>
8.54

>  <VSA_EState9>
0

>  <apol>
72.37

>  <bpol>
42.06

>  <nRing>
4

>  <nHRing>
2

>  <naRing>
3

>  <naHRing>
1

>  <nARing 2>
1

>  <nAHRing 2>
1

>  <nFRing>
0

>  <nFHRing>
0

>  <nFaRing>
0

>  <nFaHRing>
0

>  <nFARing 2>
0

>  <nFAHRing 2>
0

>  <nRot>
10

>  <SLogP>
3.55

>  <SMR>
132.52

>  <TopoPSA(NO)>
55.53

>  <TopoPSA>
55.53

>  <JGI1>
0.15

>  <JGI2>
0.07

>  <JGI3>
0.05

>  <JGI4>
0.03

>  <JGI5>
0.02

>  <Diameter>
20

>  <Radius>
10

>  <TMWC10>
145.76

>  <TSRW10>
83.03

>  <MW>
469.22

>  <AMW>
7.22

>  <WPath>
4032

>  <WPol>
48

>  <Zagreb1>
168

>  <Zagreb2>
194

>  <mZagreb2>
7.44

>  <yes>


>  <nAR-cont>
0.816016

>  <nHA-cont>
0.61399562

>  <MWHBN>
0.323154183

>  <MWHBN-cont>
0.76650243

>  <TPSA-cont>
0.612366118

>  <pka_cont>
0.97

>  <yes.1>


>  <BBB_SCORE>
4.289497501

>  <MMFF94 Energy>
94.846

$$$$
Compound 1286
Actelion Java MolfileCreator 2.0

  0  0  0  0  0  0              0 V3000
M  V30 BEGIN CTAB
M  V30 COUNTS 47 49 0 0 0
M  V30 BEGIN ATOM
M  V30 1 S 2.7217 -1.8405 -0.4799 0
M  V30 2 C 1.8729 -0.1775 -0.2789 0 CFG=2
M  V30 3 C 1.3433 -2.9953 -0.2156 0
M  V30 4 C 0.6841 -0.2535 0.6881 0
M  V30 5 C 1.4845 0.3468 -1.6899 0
M  V30 6 C 3.0048 0.6949 0.3052 0
M  V30 7 C 0.6967 -2.7783 1.1397 0
M  V30 8 N -0.0891 0.8107 1.1447 0
M  V30 9 C 0.1527 -1.3968 1.2849 0
M  V30 10 C 0.3659 -0.4211 -2.4138 0
M  V30 11 C -1.1465 0.3436 1.9183 0
M  V30 12 C 0.1072 2.2365 0.9199 0
M  V30 13 C -0.9949 -1.0327 2.0412 0
M  V30 14 N -0.0542 0.2525 -3.6618 0
M  V30 15 C -2.2106 1.0243 2.5407 0
M  V30 16 C 0.7326 2.94 2.1158 0
M  V30 17 C -1.9238 -1.757 2.8189 0
M  V30 18 C -0.9312 1.3951 -3.3878 0
M  V30 19 C -0.7591 -0.698 -4.5284 0
M  V30 20 C -3.1231 0.2859 3.2993 0
M  V30 21 C -2.9822 -1.0885 3.4406 0
M  V30 22 H 1.7452 -4.0122 -0.2709 0
M  V30 23 H 0.6124 -2.8976 -1.0228 0
M  V30 24 H 1.2032 1.3985 -1.6161 0
M  V30 25 H 2.3746 0.3502 -2.3361 0
M  V30 26 H 3.2668 0.3913 1.3266 0
M  V30 27 H 2.7341 1.7522 0.3487 0
M  V30 28 H 3.9144 0.6534 -0.3074 0
M  V30 29 H -0.1086 -3.5129 1.2579 0
M  V30 30 H 1.4162 -2.969 1.946 0
M  V30 31 H 0.7659 -1.4056 -2.6789 0
M  V30 32 H -0.4998 -0.5871 -1.7624 0
M  V30 33 H -0.8691 2.674 0.6828 0
M  V30 34 H 0.7218 2.3908 0.0386 0
M  V30 35 H -2.3313 2.0988 2.4488 0
M  V30 36 H 1.6909 2.4881 2.39 0
M  V30 37 H 0.0838 2.8922 2.9959 0
M  V30 38 H 0.9054 3.9955 1.8841 0
M  V30 39 H -1.8235 -2.8319 2.9354 0
M  V30 40 H -0.4174 2.1672 -2.8078 0
M  V30 41 H -1.8362 1.1012 -2.8436 0
M  V30 42 H -1.2372 1.8749 -4.3246 0
M  V30 43 H -1.6558 -1.1077 -4.0494 0
M  V30 44 H -0.1016 -1.5304 -4.8025 0
M  V30 45 H -1.0568 -0.217 -5.4669 0
M  V30 46 H -3.9498 0.7958 3.7883 0
M  V30 47 H -3.6968 -1.6493 4.0371 0
M  V30 END ATOM
M  V30 BEGIN BOND
M  V30 1 1 1 2
M  V30 2 1 1 3
M  V30 3 1 2 4
M  V30 4 1 2 5
M  V30 5 1 2 6
M  V30 6 1 3 7
M  V30 7 1 4 8
M  V30 8 2 4 9
M  V30 9 1 5 10
M  V30 10 1 8 11
M  V30 11 1 8 12
M  V30 12 1 9 13
M  V30 13 1 10 14
M  V30 14 1 11 15
M  V30 15 1 12 16
M  V30 16 1 13 17
M  V30 17 1 14 18
M  V30 18 1 14 19
M  V30 19 2 15 20
M  V30 20 2 17 21
M  V30 21 1 7 9
M  V30 22 2 11 13
M  V30 23 1 20 21
M  V30 24 1 3 22
M  V30 25 1 3 23
M  V30 26 1 5 24
M  V30 27 1 5 25
M  V30 28 1 6 26
M  V30 29 1 6 27
M  V30 30 1 6 28
M  V30 31 1 7 29
M  V30 32 1 7 30
M  V30 33 1 10 31
M  V30 34 1 10 32
M  V30 35 1 12 33
M  V30 36 1 12 34
M  V30 37 1 15 35
M  V30 38 1 16 36
M  V30 39 1 16 37
M  V30 40 1 16 38
M  V30 41 1 17 39
M  V30 42 1 18 40
M  V30 43 1 18 41
M  V30 44 1 18 42
M  V30 45 1 19 43
M  V30 46 1 19 44
M  V30 47 1 19 45
M  V30 48 1 20 46
M  V30 49 1 21 47
M  V30 END BOND
M  V30 BEGIN COLLECTION
M  V30 MDLV30/STERAC1 ATOMS=(1 2)
M  V30 END COLLECTION
M  V30 END CTAB
M  END
>  <Column 1>
1540

>  <level_0>
1693

>  <index>
1693

>  <Unnamed: 0>
1693

>  <NO.>
1705

>  <Name>
tandamine

>  <IUPAC_name>
2-(9-ethyl-1-methyl-3-4-dihydrothiopyrano[3-4-b]indol-1-yl)-n-n-dimethylethanamine

>  <SMILES>
CCn1c2c(c3ccccc31)CCSC2(C)CCN(C)C

>  <CID>
39187

>  <logBB>


>  <BBB+/BBB->
BBB+

>  <Inchi>
InChI=1S/C18H26N2S/c1-5-20-16-9-7-6-8-14(16)15-10-13-21-18(2-17(15)20)11-12-19(3)4/h6-9H-5-10-13H2-1-4H3

>  <threshold>
-1

>  <reference>
R1|R13|R19|R6|R27|R27|R30|

>  <group>
B

>  <Class>
1

>  <ABC>
16.38

>  <ABCGG>
14.02

>  <nAcid>
0

>  <nBase>
1

>  <nAromAtom>
9

>  <nAromBond>
10

>  <nAtom>
47

>  <nHeavyAtom>
21

>  <nSpiro>
0

>  <nBridgehead>
0

>  <nHetero>
3

>  <nN>
2

>  <nO>
0

>  <nF>
0

>  <BalabanJ>
1.83

>  <BertzCT>
610.95

>  <nBonds>
49

>  <nBondsO>
23

>  <nBondsS>
39

>  <nBondsD>
0

>  <nBondsT>
0

>  <nBondsA>
10

>  <nBondsM>
10

>  <nBondsKS>
45

>  <nBondsKD>
4

>  <RNCG>
0.29

>  <RPCG>
0.05

>  <FCSP3>
0.56

>  <SZ>
27.33

>  <Sm>
25.18

>  <Sv>
27.75

>  <Sse>
45.95

>  <Sp>
31.44

>  <Si>
52.9

>  <MZ>
0.58

>  <Mm>
0.54

>  <Mv>
0.59

>  <Mse>
0.98

>  <Mp>
0.67

>  <Mi>
1.13

>  <NsCH3>
4

>  <NdCH2>
0

>  <NssCH2>
5

>  <NtCH>
0

>  <NdsCH>
0

>  <NaaCH>
4

>  <NsssCH>
0

>  <NddC>
0

>  <NtsC>
0

>  <NdssC>
0

>  <NaasC>
2

>  <NaaaC>
2

>  <NssssC>
1

>  <NsNH3>
0

>  <NsNH2>
0

>  <NssNH2>
0

>  <NdNH>
0

>  <NssNH>
0

>  <NaaNH>
0

>  <NtN>
0

>  <NsssNH>
0

>  <NdsN>
0

>  <NaaN>
0

>  <NsssN>
1

>  <NddsN>
0

>  <NaasN>
1

>  <NssssN>
0

>  <NsOH>
0

>  <NdO>
0

>  <NssO>
0

>  <NaaO>
0

>  <NsF>
0

>  <NsSiH3>
0

>  <NssSiH2>
0

>  <NsssSiH>
0

>  <NssssSi>
0

>  <NsPH2>
0

>  <NssPH>
0

>  <NsssP>
0

>  <NdsssP>
0

>  <NsssssP>
0

>  <NsSH>
0

>  <NdS>
0

>  <NssS>
1

>  <NaaS>
0

>  <NdssS>
0

>  <NddssS>
0

>  <NsCl>
0

>  <NsBr>
0

>  <NsI>
0

>  <fragCpx>
109.03

>  <fMF>
0.28

>  <nHBAcc>
3

>  <nHBDon>
0

>  <Kier1>
15.88

>  <Kier2>
6.25

>  <Lipinski>
1

>  <GhoseFilter>
1

>  <FilterItLogS>
-4.87

>  <VMcGowan>
251.01

>  <LabuteASA>
132.06

>  <PEOE_VSA1>
9.47

>  <PEOE_VSA2>
0

>  <PEOE_VSA3>
0

>  <PEOE_VSA4>
0

>  <PEOE_VSA5>
11.76

>  <PEOE_VSA6>
18.2

>  <PEOE_VSA7>
64.71

>  <PEOE_VSA8>
23.14

>  <PEOE_VSA9>
4.75

>  <PEOE_VSA10>
0

>  <PEOE_VSA11>
0

>  <PEOE_VSA12>
0

>  <PEOE_VSA13>
0

>  <SMR_VSA1>
0

>  <SMR_VSA2>
0

>  <SMR_VSA3>
9.47

>  <SMR_VSA4>
0

>  <SMR_VSA5>
37.98

>  <SMR_VSA6>
26.39

>  <SMR_VSA7>
35.52

>  <SMR_VSA8>
0

>  <SMR_VSA9>
0

>  <SlogP_VSA1>
0

>  <SlogP_VSA2>
35.86

>  <SlogP_VSA3>
17.71

>  <SlogP_VSA4>
0

>  <SlogP_VSA5>
31.53

>  <SlogP_VSA6>
24.27

>  <SlogP_VSA7>
0

>  <SlogP_VSA8>
10.9

>  <SlogP_VSA9>
0

>  <SlogP_VSA10>
0

>  <SlogP_VSA11>
0

>  <EState_VSA1>
0

>  <EState_VSA2>
4.75

>  <EState_VSA3>
0

>  <EState_VSA4>
13.09

>  <EState_VSA5>
29.5

>  <EState_VSA6>
11.26

>  <EState_VSA7>
0

>  <EState_VSA8>
73.44

>  <EState_VSA9>
0

>  <EState_VSA10>
0

>  <VSA_EState1>
2.8

>  <VSA_EState2>
2.3

>  <VSA_EState3>
1.48

>  <VSA_EState4>
4.61

>  <VSA_EState5>
1.24

>  <VSA_EState6>
8.95

>  <VSA_EState7>
2.43

>  <VSA_EState8>
6.94

>  <VSA_EState9>
4.35

>  <apol>
52.5

>  <bpol>
31.96

>  <nRing>
3

>  <nHRing>
2

>  <naRing>
2

>  <naHRing>
1

>  <nARing 2>
1

>  <nAHRing 2>
1

>  <nFRing>
1

>  <nFHRing>
1

>  <nFaRing>
0

>  <nFaHRing>
0

>  <nFARing 2>
1

>  <nFAHRing 2>
1

>  <nRot>
4

>  <SLogP>
4.12

>  <SMR>
94.3

>  <TopoPSA(NO)>
8.17

>  <TopoPSA>
33.47

>  <JGI1>
0.2

>  <JGI2>
0.09

>  <JGI3>
0.07

>  <JGI4>
0.05

>  <JGI5>
0.02

>  <Diameter>
9

>  <Radius>
5

>  <TMWC10>
120.04

>  <TSRW10>
70.15

>  <MW>
302.18

>  <AMW>
6.43

>  <WPath>
833

>  <WPol>
37

>  <Zagreb1>
114

>  <Zagreb2>
139

>  <mZagreb2>
4.64

>  <yes>


>  <nAR-cont>
0.816016

>  <nHA-cont>
0.994529749

>  <MWHBN>
0.172579178

>  <MWHBN-cont>
0.977833518

>  <TPSA-cont>
0.766358616

>  <pka_cont>
0.97

>  <yes.1>


>  <BBB_SCORE>
5.29501326

>  <MMFF94 Energy>
51.268

$$$$
Compound 1287
Actelion Java MolfileCreator 2.0

  0  0  0  0  0  0              0 V3000
M  V30 BEGIN CTAB
M  V30 COUNTS 39 41 0 0 0
M  V30 BEGIN ATOM
M  V30 1 O -0.719 -4.1601 0.8789 0
M  V30 2 C -0.1995 -3.126 1.2856 0
M  V30 3 C 0.1886 -2.9241 2.7024 0
M  V30 4 C 0.0942 -2.033 0.3288 0
M  V30 5 C -0.1039 -3.8503 3.8033 0
M  V30 6 C 0.8658 -1.8031 2.9946 0
M  V30 7 C 0.7966 -0.8993 0.7505 0
M  V30 8 C -0.3206 -2.1357 -1.0008 0
M  V30 9 O 0.5151 -3.9241 4.8528 0
M  V30 10 O -1.192 -4.6052 3.5962 0
M  V30 11 N 1.209 -0.8072 2.0989 0
M  V30 12 N 1.0811 0.1043 -0.1165 0
M  V30 13 C -0.0311 -1.1026 -1.8826 0
M  V30 14 C 1.9302 0.4106 2.4841 0
M  V30 15 C 0.67 0.001 -1.4082 0
M  V30 16 C 0.9626 1.5319 2.8376 0
M  V30 17 C 0.9978 1.1561 -2.3283 0
M  V30 18 C -0.2059 1.98 -2.726 0
M  V30 19 C -0.6476 2.0073 -4.0563 0
M  V30 20 C -0.8985 2.7317 -1.7649 0
M  V30 21 C -1.7615 2.7682 -4.4157 0
M  V30 22 C -2.0119 3.4909 -2.1266 0
M  V30 23 C -2.4431 3.5087 -3.4515 0
M  V30 24 H 1.1906 -1.598 4.0137 0
M  V30 25 H -0.8681 -3.0102 -1.3439 0
M  V30 26 H -1.2614 -5.1751 4.3882 0
M  V30 27 H -0.3548 -1.1581 -2.9173 0
M  V30 28 H 2.629 0.7362 1.7038 0
M  V30 29 H 2.5556 0.2022 3.3619 0
M  V30 30 H 0.2965 1.2334 3.654 0
M  V30 31 H 0.3384 1.8107 1.9828 0
M  V30 32 H 1.515 2.4209 3.1574 0
M  V30 33 H 1.5061 0.7614 -3.2173 0
M  V30 34 H 1.7258 1.819 -1.8424 0
M  V30 35 H -0.1281 1.4379 -4.8235 0
M  V30 36 H -0.5732 2.7237 -0.7258 0
M  V30 37 H -2.098 2.7844 -5.4491 0
M  V30 38 H -2.5431 4.0674 -1.3737 0
M  V30 39 H -3.3104 4.1003 -3.7325 0
M  V30 END ATOM
M  V30 BEGIN BOND
M  V30 1 2 1 2
M  V30 2 1 2 3
M  V30 3 1 2 4
M  V30 4 1 3 5
M  V30 5 2 3 6
M  V30 6 2 4 7
M  V30 7 1 4 8
M  V30 8 2 5 9
M  V30 9 1 5 10
M  V30 10 1 6 11
M  V30 11 1 7 12
M  V30 12 2 8 13
M  V30 13 1 11 14
M  V30 14 2 12 15
M  V30 15 1 14 16
M  V30 16 1 15 17
M  V30 17 1 17 18
M  V30 18 2 18 19
M  V30 19 1 18 20
M  V30 20 1 19 21
M  V30 21 2 20 22
M  V30 22 2 21 23
M  V30 23 1 7 11
M  V30 24 1 13 15
M  V30 25 1 22 23
M  V30 26 1 6 24
M  V30 27 1 8 25
M  V30 28 1 10 26
M  V30 29 1 13 27
M  V30 30 1 14 28
M  V30 31 1 14 29
M  V30 32 1 16 30
M  V30 33 1 16 31
M  V30 34 1 16 32
M  V30 35 1 17 33
M  V30 36 1 17 34
M  V30 37 1 19 35
M  V30 38 1 20 36
M  V30 39 1 21 37
M  V30 40 1 22 38
M  V30 41 1 23 39
M  V30 END BOND
M  V30 END CTAB
M  END
>  <Column 1>
1541

>  <level_0>
1694

>  <index>
1694

>  <Unnamed: 0>
1694

>  <NO.>
1706

>  <Name>
amfonelic-acid

>  <IUPAC_name>
7-benzyl-1-ethyl-4-oxo-1-8-naphthyridine-3-carboxylic acid

>  <SMILES>
CCn1cc(C(=O)O)c(=O)c2ccc(Cc3ccccc3)nc21

>  <CID>
2137

>  <logBB>


>  <BBB+/BBB->
BBB+

>  <Inchi>
InChI=1S/C18H16N2O3/c1-2-20-11-15(18(22)23)16(21)14-9-8-13(19-17(14)20)10-12-6-4-3-5-7-12/h3-9-11H-2-10H2-1H3-(H-22-23)

>  <threshold>
-1

>  <reference>
R1|R13|R19|R6|R24|R27|R27|R27|R30|R30|

>  <group>
B

>  <Class>
1

>  <ABC>
17.8

>  <ABCGG>
14.18

>  <nAcid>
1

>  <nBase>
0

>  <nAromAtom>
16

>  <nAromBond>
17

>  <nAtom>
39

>  <nHeavyAtom>
23

>  <nSpiro>
0

>  <nBridgehead>
0

>  <nHetero>
5

>  <nN>
2

>  <nO>
3

>  <nF>
0

>  <BalabanJ>
1.62

>  <BertzCT>
930.14

>  <nBonds>
41

>  <nBondsO>
25

>  <nBondsS>
22

>  <nBondsD>
2

>  <nBondsT>
0

>  <nBondsA>
17

>  <nBondsM>
19

>  <nBondsKS>
32

>  <nBondsKD>
9

>  <RNCG>
0.23

>  <RPCG>
0.17

>  <FCSP3>
0.17

>  <SZ>
27

>  <Sm>
25.67

>  <Sv>
25.99

>  <Sse>
39.42

>  <Sp>
27.15

>  <Si>
43.53

>  <MZ>
0.69

>  <Mm>
0.66

>  <Mv>
0.67

>  <Mse>
1.01

>  <Mp>
0.7

>  <Mi>
1.12

>  <NsCH3>
1

>  <NdCH2>
0

>  <NssCH2>
2

>  <NtCH>
0

>  <NdsCH>
0

>  <NaaCH>
8

>  <NsssCH>
0

>  <NddC>
0

>  <NtsC>
0

>  <NdssC>
1

>  <NaasC>
3

>  <NaaaC>
2

>  <NssssC>
0

>  <NsNH3>
0

>  <NsNH2>
0

>  <NssNH2>
0

>  <NdNH>
0

>  <NssNH>
0

>  <NaaNH>
0

>  <NtN>
0

>  <NsssNH>
0

>  <NdsN>
0

>  <NaaN>
1

>  <NsssN>
0

>  <NddsN>
0

>  <NaasN>
1

>  <NssssN>
0

>  <NsOH>
1

>  <NdO>
2

>  <NssO>
0

>  <NaaO>
0

>  <NsF>
0

>  <NsSiH3>
0

>  <NssSiH2>
0

>  <NsssSiH>
0

>  <NssssSi>
0

>  <NsPH2>
0

>  <NssPH>
0

>  <NsssP>
0

>  <NdsssP>
0

>  <NsssssP>
0

>  <NsSH>
0

>  <NdS>
0

>  <NssS>
0

>  <NaaS>
0

>  <NdssS>
0

>  <NddssS>
0

>  <NsCl>
0

>  <NsBr>
0

>  <NsI>
0

>  <fragCpx>
119.05

>  <fMF>
0.44

>  <nHBAcc>
4

>  <nHBDon>
1

>  <Kier1>
17.81

>  <Kier2>
7.92

>  <Lipinski>
1

>  <GhoseFilter>
1

>  <FilterItLogS>
-4.27

>  <VMcGowan>
230.77

>  <LabuteASA>
132.4

>  <PEOE_VSA1>
9.67

>  <PEOE_VSA2>
4.79

>  <PEOE_VSA3>
9.78

>  <PEOE_VSA4>
0

>  <PEOE_VSA5>
0

>  <PEOE_VSA6>
30.33

>  <PEOE_VSA7>
24.62

>  <PEOE_VSA8>
24.86

>  <PEOE_VSA9>
5.39

>  <PEOE_VSA10>
11.21

>  <PEOE_VSA11>
0

>  <PEOE_VSA12>
5.43

>  <PEOE_VSA13>
0

>  <SMR_VSA1>
9.9

>  <SMR_VSA2>
0

>  <SMR_VSA3>
9.55

>  <SMR_VSA4>
0

>  <SMR_VSA5>
19.89

>  <SMR_VSA6>
0

>  <SMR_VSA7>
75.71

>  <SMR_VSA8>
0

>  <SMR_VSA9>
0

>  <SlogP_VSA1>
5.43

>  <SlogP_VSA2>
20.63

>  <SlogP_VSA3>
12.97

>  <SlogP_VSA4>
0

>  <SlogP_VSA5>
28.54

>  <SlogP_VSA6>
53.46

>  <SlogP_VSA7>
0

>  <SlogP_VSA8>
11.03

>  <SlogP_VSA9>
0

>  <SlogP_VSA10>
0

>  <SlogP_VSA11>
0

>  <EState_VSA1>
11.4

>  <EState_VSA2>
5.56

>  <EState_VSA3>
24

>  <EState_VSA4>
11.26

>  <EState_VSA5>
6.2

>  <EState_VSA6>
16.7

>  <EState_VSA7>
37.26

>  <EState_VSA8>
4.98

>  <EState_VSA9>
5.11

>  <EState_VSA10>
9.59

>  <VSA_EState1>
1.7

>  <VSA_EState2>
28.05

>  <VSA_EState3>
9.5

>  <VSA_EState4>
1.78

>  <VSA_EState5>
-1.22

>  <VSA_EState6>
13.39

>  <VSA_EState7>
2.03

>  <VSA_EState8>
2.43

>  <VSA_EState9>
0

>  <apol>
45.33

>  <bpol>
20.64

>  <nRing>
3

>  <nHRing>
2

>  <naRing>
3

>  <naHRing>
2

>  <nARing 2>
0

>  <nAHRing 2>
0

>  <nFRing>
1

>  <nFHRing>
1

>  <nFaRing>
1

>  <nFaHRing>
1

>  <nFARing 2>
0

>  <nFAHRing 2>
0

>  <nRot>
4

>  <SLogP>
2.71

>  <SMR>
87.88

>  <TopoPSA(NO)>
72.19

>  <TopoPSA>
72.19

>  <JGI1>
0.18

>  <JGI2>
0.07

>  <JGI3>
0.05

>  <JGI4>
0.05

>  <JGI5>
0.03

>  <Diameter>
12

>  <Radius>
6

>  <TMWC10>
122.89

>  <TSRW10>
57.5

>  <MW>
308.12

>  <AMW>
7.9

>  <WPath>
1202

>  <WPol>
38

>  <Zagreb1>
120

>  <Zagreb2>
142

>  <mZagreb2>
5.14

>  <yes>


>  <nAR-cont>
0.336376

>  <nHA-cont>
0.967789328

>  <MWHBN>
0.284845957

>  <MWHBN-cont>
0.883523485

>  <TPSA-cont>
0.496068973

>  <pka_cont>
0.97

>  <yes.1>


>  <BBB_SCORE>
4.106588501

>  <MMFF94 Energy>
36.808

$$$$
Compound 1288
Actelion Java MolfileCreator 2.0

  0  0  0  0  0  0              0 V3000
M  V30 BEGIN CTAB
M  V30 COUNTS 22 22 0 0 0
M  V30 BEGIN ATOM
M  V30 1 O 2.4244 -2.6593 1.3289 0
M  V30 2 C 1.5526 -1.9103 0.8963 0
M  V30 3 C 1.8583 -0.7297 0.0146 0
M  V30 4 C 0.1405 -2.1663 1.2326 0
M  V30 5 O 3.1904 -0.5293 -0.2999 0
M  V30 6 C 0.8303 0.0473 -0.4172 0
M  V30 7 C -0.7802 -1.3436 0.7289 0
M  V30 8 N -0.5189 -0.2495 -0.0886 0
M  V30 9 C 1.0914 1.2846 -1.2515 0
M  V30 10 C -1.6625 0.5642 -0.5574 0
M  V30 11 C -2.0524 1.6022 0.4853 0
M  V30 12 H -0.0863 -3.0101 1.8675 0
M  V30 13 H 3.2559 4.0E-4 -1.1061 0
M  V30 14 H -1.8313 -1.505 0.955 0
M  V30 15 H 2.1419 1.5852 -1.2744 0
M  V30 16 H 0.5544 2.149 -0.8486 0
M  V30 17 H 0.7698 1.1185 -2.2847 0
M  V30 18 H -2.5237 -0.0866 -0.7571 0
M  V30 19 H -1.4446 1.0532 -1.5126 0
M  V30 20 H -1.2201 2.2749 0.7133 0
M  V30 21 H -2.3599 1.1253 1.4219 0
M  V30 22 H -2.8901 2.2061 0.1229 0
M  V30 END ATOM
M  V30 BEGIN BOND
M  V30 1 2 1 2
M  V30 2 1 2 3
M  V30 3 1 2 4
M  V30 4 1 3 5
M  V30 5 2 3 6
M  V30 6 2 4 7
M  V30 7 1 6 8
M  V30 8 1 6 9
M  V30 9 1 8 10
M  V30 10 1 10 11
M  V30 11 1 7 8
M  V30 12 1 4 12
M  V30 13 1 5 13
M  V30 14 1 7 14
M  V30 15 1 9 15
M  V30 16 1 9 16
M  V30 17 1 9 17
M  V30 18 1 10 18
M  V30 19 1 10 19
M  V30 20 1 11 20
M  V30 21 1 11 21
M  V30 22 1 11 22
M  V30 END BOND
M  V30 END CTAB
M  END
>  <Column 1>
1542

>  <level_0>
1695

>  <index>
1695

>  <Unnamed: 0>
1695

>  <NO.>
1707

>  <Name>
metronidazole

>  <IUPAC_name>
1-ethyl-3-hydroxy-2-methylpyridin-4-one

>  <SMILES>
CCn1ccc(=O)c(O)c1C

>  <CID>
94413

>  <logBB>


>  <BBB+/BBB->
BBB+

>  <Inchi>
InChI=1S/C8H11NO2/c1-3-9-5-4-7(10)8(11)6(9)2/h4-5-11H-3H2-1-2H3

>  <threshold>
-1

>  <reference>
R1|R13|R19|R28|R9|R24|R27|R27|R30|R36|

>  <group>
B

>  <Class>
1

>  <ABC>
7.99

>  <ABCGG>
7.83

>  <nAcid>
0

>  <nBase>
0

>  <nAromAtom>
6

>  <nAromBond>
6

>  <nAtom>
22

>  <nHeavyAtom>
11

>  <nSpiro>
0

>  <nBridgehead>
0

>  <nHetero>
3

>  <nN>
1

>  <nO>
2

>  <nF>
0

>  <BalabanJ>
2.52

>  <BertzCT>
314.36

>  <nBonds>
22

>  <nBondsO>
11

>  <nBondsS>
15

>  <nBondsD>
1

>  <nBondsT>
0

>  <nBondsA>
6

>  <nBondsM>
7

>  <nBondsKS>
19

>  <nBondsKD>
3

>  <RNCG>
0.42

>  <RPCG>
0.24

>  <FCSP3>
0.38

>  <SZ>
13.67

>  <Sm>
12.75

>  <Sv>
13.17

>  <Sse>
22.21

>  <Sp>
14.01

>  <Si>
24.99

>  <MZ>
0.62

>  <Mm>
0.58

>  <Mv>
0.6

>  <Mse>
1.01

>  <Mp>
0.64

>  <Mi>
1.14

>  <NsCH3>
2

>  <NdCH2>
0

>  <NssCH2>
1

>  <NtCH>
0

>  <NdsCH>
0

>  <NaaCH>
2

>  <NsssCH>
0

>  <NddC>
0

>  <NtsC>
0

>  <NdssC>
0

>  <NaasC>
2

>  <NaaaC>
0

>  <NssssC>
0

>  <NsNH3>
0

>  <NsNH2>
0

>  <NssNH2>
0

>  <NdNH>
0

>  <NssNH>
0

>  <NaaNH>
0

>  <NtN>
0

>  <NsssNH>
0

>  <NdsN>
0

>  <NaaN>
0

>  <NsssN>
0

>  <NddsN>
0

>  <NaasN>
1

>  <NssssN>
0

>  <NsOH>
1

>  <NdO>
1

>  <NssO>
0

>  <NaaO>
0

>  <NsF>
0

>  <NsSiH3>
0

>  <NssSiH2>
0

>  <NsssSiH>
0

>  <NssssSi>
0

>  <NsPH2>
0

>  <NssPH>
0

>  <NsssP>
0

>  <NdsssP>
0

>  <NsssssP>
0

>  <NsSH>
0

>  <NdS>
0

>  <NssS>
0

>  <NaaS>
0

>  <NdssS>
0

>  <NddssS>
0

>  <NsCl>
0

>  <NsBr>
0

>  <NsI>
0

>  <fragCpx>
11.03

>  <fMF>
0.27

>  <nHBAcc>
3

>  <nHBDon>
1

>  <Kier1>
9.09

>  <Kier2>
3.6

>  <Lipinski>
1

>  <GhoseFilter>
0

>  <FilterItLogS>
-1.39

>  <VMcGowan>
121.54

>  <LabuteASA>
64.91

>  <PEOE_VSA1>
9.67

>  <PEOE_VSA2>
4.79

>  <PEOE_VSA3>
0

>  <PEOE_VSA4>
0

>  <PEOE_VSA5>
0

>  <PEOE_VSA6>
0

>  <PEOE_VSA7>
13.85

>  <PEOE_VSA8>
18.81

>  <PEOE_VSA9>
5.69

>  <PEOE_VSA10>
0

>  <PEOE_VSA11>
5.75

>  <PEOE_VSA12>
5.43

>  <PEOE_VSA13>
0

>  <SMR_VSA1>
5.11

>  <SMR_VSA2>
0

>  <SMR_VSA3>
4.57

>  <SMR_VSA4>
0

>  <SMR_VSA5>
20.39

>  <SMR_VSA6>
0

>  <SMR_VSA7>
28.18

>  <SMR_VSA8>
0

>  <SMR_VSA9>
5.75

>  <SlogP_VSA1>
5.43

>  <SlogP_VSA2>
9.67

>  <SlogP_VSA3>
6.54

>  <SlogP_VSA4>
6.92

>  <SlogP_VSA5>
12.62

>  <SlogP_VSA6>
17.06

>  <SlogP_VSA7>
0

>  <SlogP_VSA8>
0

>  <SlogP_VSA9>
0

>  <SlogP_VSA10>
0

>  <SlogP_VSA11>
5.75

>  <EState_VSA1>
0

>  <EState_VSA2>
11.18

>  <EState_VSA3>
5.69

>  <EState_VSA4>
6.54

>  <EState_VSA5>
6.07

>  <EState_VSA6>
13.12

>  <EState_VSA7>
11.49

>  <EState_VSA8>
0

>  <EState_VSA9>
0

>  <EState_VSA10>
9.9

>  <VSA_EState1>
1.82

>  <VSA_EState2>
10.84

>  <VSA_EState3>
9.18

>  <VSA_EState4>
0.31

>  <VSA_EState5>
-0.14

>  <VSA_EState6>
1.37

>  <VSA_EState7>
1.68

>  <VSA_EState8>
4.44

>  <VSA_EState9>
0

>  <apol>
23.4

>  <bpol>
13.61

>  <nRing>
1

>  <nHRing>
1

>  <naRing>
1

>  <naHRing>
1

>  <nARing 2>
0

>  <nAHRing 2>
0

>  <nFRing>
0

>  <nFHRing>
0

>  <nFaRing>
0

>  <nFaHRing>
0

>  <nFARing 2>
0

>  <nFAHRing 2>
0

>  <nRot>
1

>  <SLogP>
0.88

>  <SMR>
42.78

>  <TopoPSA(NO)>
42.23

>  <TopoPSA>
42.23

>  <JGI1>
0.23

>  <JGI2>
0.13

>  <JGI3>
0.06

>  <JGI4>
0.07

>  <JGI5>
0.04

>  <Diameter>
6

>  <Radius>
3

>  <TMWC10>
88

>  <TSRW10>
41.23

>  <MW>
153.08

>  <AMW>
6.96

>  <WPath>
146

>  <WPol>
16

>  <Zagreb1>
52

>  <Zagreb2>
60

>  <mZagreb2>
2.58

>  <yes>


>  <nAR-cont>
0.336376

>  <nHA-cont>
0.720786536

>  <MWHBN>
0.323296323

>  <MWHBN-cont>
0.766018325

>  <TPSA-cont>
0.705208377

>  <pka_cont>
0.97

>  <yes.1>


>  <BBB_SCORE>
4.101606776

>  <MMFF94 Energy>
47.822

$$$$
Compound 1289
Actelion Java MolfileCreator 2.0

  0  0  0  0  0  0              0 V3000
M  V30 BEGIN CTAB
M  V30 COUNTS 36 38 0 0 0
M  V30 BEGIN ATOM
M  V30 1 O 2.7837 1.1127 3.6599 0
M  V30 2 C 1.9383 1.1149 2.7633 0
M  V30 3 N 2.3202 1.3856 1.4724 0
M  V30 4 C 0.4487 0.9034 3.0381 0
M  V30 5 C 1.4522 1.442 0.4061 0
M  V30 6 N -0.0581 -0.326 2.4118 0
M  V30 7 C 0.3289 0.6541 0.2483 0
M  V30 8 C 1.5079 2.2775 -0.73 0
M  V30 9 C -0.1148 -0.4096 1.1242 0
M  V30 10 N -0.273 1.13 -0.895 0
M  V30 11 N 0.4539 2.0776 -1.5272 0
M  V30 12 C 2.5283 3.2961 -1.0752 0
M  V30 13 C -0.6097 -1.6886 0.5348 0
M  V30 14 C -1.61 0.8572 -1.3958 0
M  V30 15 C -0.0176 -2.2287 -0.6135 0
M  V30 16 C -1.6556 -2.3726 1.1664 0
M  V30 17 C -1.6163 0.2496 -2.7887 0
M  V30 18 C -0.4946 -3.4291 -1.1438 0
M  V30 19 C -2.1294 -3.5715 0.6319 0
M  V30 20 C -1.5521 -4.0957 -0.5244 0
M  V30 21 H 3.2935 1.6257 1.3394 0
M  V30 22 H 0.3213 0.8079 4.1224 0
M  V30 23 H -0.1271 1.7848 2.7324 0
M  V30 24 H 2.5405 4.092 -0.3236 0
M  V30 25 H 2.329 3.7532 -2.05 0
M  V30 26 H 3.5234 2.8415 -1.1132 0
M  V30 27 H -2.1441 1.8149 -1.4008 0
M  V30 28 H -2.1303 0.2063 -0.6892 0
M  V30 29 H 0.8235 -1.7354 -1.0946 0
M  V30 30 H -2.1008 -1.9756 2.0764 0
M  V30 31 H -1.0403 -0.6788 -2.8265 0
M  V30 32 H -1.1828 0.9372 -3.5226 0
M  V30 33 H -2.6422 0.0293 -3.0999 0
M  V30 34 H -0.0349 -3.8504 -2.0347 0
M  V30 35 H -2.9422 -4.1011 1.1231 0
M  V30 36 H -1.918 -5.0337 -0.9357 0
M  V30 END ATOM
M  V30 BEGIN BOND
M  V30 1 2 1 2
M  V30 2 1 2 3
M  V30 3 1 2 4
M  V30 4 1 3 5
M  V30 5 1 4 6
M  V30 6 2 5 7
M  V30 7 1 5 8
M  V30 8 2 6 9
M  V30 9 1 7 10
M  V30 10 2 8 11
M  V30 11 1 8 12
M  V30 12 1 9 13
M  V30 13 1 10 14
M  V30 14 2 13 15
M  V30 15 1 13 16
M  V30 16 1 14 17
M  V30 17 1 15 18
M  V30 18 2 16 19
M  V30 19 2 18 20
M  V30 20 1 7 9
M  V30 21 1 10 11
M  V30 22 1 19 20
M  V30 23 1 3 21
M  V30 24 1 4 22
M  V30 25 1 4 23
M  V30 26 1 12 24
M  V30 27 1 12 25
M  V30 28 1 12 26
M  V30 29 1 14 27
M  V30 30 1 14 28
M  V30 31 1 15 29
M  V30 32 1 16 30
M  V30 33 1 17 31
M  V30 34 1 17 32
M  V30 35 1 17 33
M  V30 36 1 18 34
M  V30 37 1 19 35
M  V30 38 1 20 36
M  V30 END BOND
M  V30 END CTAB
M  END
>  <Column 1>
1543

>  <level_0>
1696

>  <index>
1696

>  <Unnamed: 0>
1696

>  <NO.>
1708

>  <Name>
ripazepam

>  <IUPAC_name>
1-ethyl-3-methyl-8-phenyl-4-6-dihydropyrazolo[4-3-e][1-4]diazepin-5-one

>  <SMILES>
CCn1nc(C)c2c1C(c1ccccc1)=NCC(=O)N2

>  <CID>
33474

>  <logBB>


>  <BBB+/BBB->
BBB+

>  <Inchi>
InChI=1S/C15H16N4O/c1-3-19-15-13(10(2)18-19)17-12(20)9-16-14(15)11-7-5-4-6-8-11/h4-8H-3-9H2-1-2H3-(H-17-20)

>  <threshold>
-1

>  <reference>
R1|R13|R19|R6|R24|R27|R27|R27|R30|R30|

>  <group>
B

>  <Class>
1

>  <ABC>
15.57

>  <ABCGG>
13.49

>  <nAcid>
0

>  <nBase>
0

>  <nAromAtom>
11

>  <nAromBond>
11

>  <nAtom>
36

>  <nHeavyAtom>
20

>  <nSpiro>
0

>  <nBridgehead>
0

>  <nHetero>
5

>  <nN>
4

>  <nO>
1

>  <nF>
0

>  <BalabanJ>
1.82

>  <BertzCT>
685.4

>  <nBonds>
38

>  <nBondsO>
22

>  <nBondsS>
25

>  <nBondsD>
2

>  <nBondsT>
0

>  <nBondsA>
11

>  <nBondsM>
13

>  <nBondsKS>
31

>  <nBondsKD>
7

>  <RNCG>
0.19

>  <RPCG>
0.15

>  <FCSP3>
0.27

>  <SZ>
23.67

>  <Sm>
22.34

>  <Sv>
23.08

>  <Sse>
36.09

>  <Sp>
24.5

>  <Si>
40.69

>  <MZ>
0.66

>  <Mm>
0.62

>  <Mv>
0.64

>  <Mse>
1

>  <Mp>
0.68

>  <Mi>
1.13

>  <NsCH3>
2

>  <NdCH2>
0

>  <NssCH2>
2

>  <NtCH>
0

>  <NdsCH>
0

>  <NaaCH>
5

>  <NsssCH>
0

>  <NddC>
0

>  <NtsC>
0

>  <NdssC>
2

>  <NaasC>
4

>  <NaaaC>
0

>  <NssssC>
0

>  <NsNH3>
0

>  <NsNH2>
0

>  <NssNH2>
0

>  <NdNH>
0

>  <NssNH>
1

>  <NaaNH>
0

>  <NtN>
0

>  <NsssNH>
0

>  <NdsN>
1

>  <NaaN>
1

>  <NsssN>
0

>  <NddsN>
0

>  <NaasN>
1

>  <NssssN>
0

>  <NsOH>
0

>  <NdO>
1

>  <NssO>
0

>  <NaaO>
0

>  <NsF>
0

>  <NsSiH3>
0

>  <NssSiH2>
0

>  <NsssSiH>
0

>  <NssssSi>
0

>  <NsPH2>
0

>  <NssPH>
0

>  <NsssP>
0

>  <NdsssP>
0

>  <NsssssP>
0

>  <NsSH>
0

>  <NdS>
0

>  <NssS>
0

>  <NaaS>
0

>  <NdssS>
0

>  <NddssS>
0

>  <NsCl>
0

>  <NsBr>
0

>  <NsI>
0

>  <fragCpx>
104.05

>  <fMF>
0.44

>  <nHBAcc>
4

>  <nHBDon>
1

>  <Kier1>
14.92

>  <Kier2>
6.41

>  <Lipinski>
1

>  <GhoseFilter>
1

>  <FilterItLogS>
-4.15

>  <VMcGowan>
205.32

>  <LabuteASA>
116.89

>  <PEOE_VSA1>
5.32

>  <PEOE_VSA2>
14.47

>  <PEOE_VSA3>
0

>  <PEOE_VSA4>
5.1

>  <PEOE_VSA5>
0

>  <PEOE_VSA6>
30.33

>  <PEOE_VSA7>
13.85

>  <PEOE_VSA8>
12.11

>  <PEOE_VSA9>
17.09

>  <PEOE_VSA10>
12.24

>  <PEOE_VSA11>
0

>  <PEOE_VSA12>
5.91

>  <PEOE_VSA13>
0

>  <SMR_VSA1>
4.79

>  <SMR_VSA2>
0

>  <SMR_VSA3>
9.78

>  <SMR_VSA4>
4.99

>  <SMR_VSA5>
20.39

>  <SMR_VSA6>
11.86

>  <SMR_VSA7>
47.28

>  <SMR_VSA8>
0

>  <SMR_VSA9>
0

>  <SlogP_VSA1>
5.32

>  <SlogP_VSA2>
27.94

>  <SlogP_VSA3>
11.34

>  <SlogP_VSA4>
6.92

>  <SlogP_VSA5>
23.88

>  <SlogP_VSA6>
35.32

>  <SlogP_VSA7>
0

>  <SlogP_VSA8>
0

>  <SlogP_VSA9>
0

>  <SlogP_VSA10>
5.69

>  <SlogP_VSA11>
0

>  <EState_VSA1>
0

>  <EState_VSA2>
12.45

>  <EState_VSA3>
0

>  <EState_VSA4>
34.9

>  <EState_VSA5>
0

>  <EState_VSA6>
0

>  <EState_VSA7>
48.86

>  <EState_VSA8>
15.41

>  <EState_VSA9>
0

>  <EState_VSA10>
4.79

>  <VSA_EState1>
1.89

>  <VSA_EState2>
16.3

>  <VSA_EState3>
7.39

>  <VSA_EState4>
4.31

>  <VSA_EState5>
-0.1

>  <VSA_EState6>
9.91

>  <VSA_EState7>
0

>  <VSA_EState8>
4.81

>  <VSA_EState9>
0

>  <apol>
40.92

>  <bpol>
20.34

>  <nRing>
3

>  <nHRing>
2

>  <naRing>
2

>  <naHRing>
1

>  <nARing 2>
1

>  <nAHRing 2>
1

>  <nFRing>
1

>  <nFHRing>
1

>  <nFaRing>
0

>  <nFaHRing>
0

>  <nFARing 2>
1

>  <nFAHRing 2>
1

>  <nRot>
2

>  <SLogP>
2

>  <SMR>
78.22

>  <TopoPSA(NO)>
59.28

>  <TopoPSA>
59.28

>  <JGI1>
0.16

>  <JGI2>
0.07

>  <JGI3>
0.06

>  <JGI4>
0.04

>  <JGI5>
0.03

>  <Diameter>
8

>  <Radius>
4

>  <TMWC10>
116.32

>  <TSRW10>
68.29

>  <MW>
268.13

>  <AMW>
7.45

>  <WPath>
721

>  <WPol>
35

>  <Zagreb1>
106

>  <Zagreb2>
127

>  <mZagreb2>
4.47

>  <yes>


>  <nAR-cont>
0.816016

>  <nHA-cont>
0.999629945

>  <MWHBN>
0.305349561

>  <MWHBN-cont>
0.824466767

>  <TPSA-cont>
0.586188789

>  <pka_cont>
0.97

>  <yes.1>


>  <BBB_SCORE>
4.709723674

>  <MMFF94 Energy>
72.96

$$$$
Compound 1290
Actelion Java MolfileCreator 2.0

  0  0  0  0  0  0              0 V3000
M  V30 BEGIN CTAB
M  V30 COUNTS 59 61 0 0 0
M  V30 BEGIN ATOM
M  V30 1 F 1.1111 -1.1905 2.859 0
M  V30 2 C 2.3369 -0.9338 2.3805 0
M  V30 3 C 2.6506 -1.2311 1.0506 0
M  V30 4 C 3.2901 -0.3814 3.2297 0
M  V30 5 N 1.6796 -1.7844 0.174 0
M  V30 6 C 3.9348 -0.9624 0.5678 0
M  V30 7 C 4.5725 -0.1179 2.7472 0
M  V30 8 C 1.3724 -3.1523 0.19 0
M  V30 9 C 0.9588 -0.7994 -0.6723 0 CFG=2
M  V30 10 C 4.894 -0.4078 1.4187 0
M  V30 11 O 0.5098 -3.6471 -0.5376 0
M  V30 12 C 2.1852 -4.0347 1.165 0
M  V30 13 C -0.3593 -0.2722 -0.0626 0 CFG=1
M  V30 14 C 0.7697 -1.2174 -2.1357 0
M  V30 15 O 1.9763 -5.43 0.9729 0
M  V30 16 C -0.908 0.8522 -0.9678 0
M  V30 17 C -1.4284 -1.3433 0.1754 0
M  V30 18 C 0.1706 -0.064 -2.9412 0
M  V30 19 C 2.6623 -6.2072 1.9423 0
M  V30 20 N -1.0949 0.4216 -2.3618 0
M  V30 21 C -1.6543 1.4908 -3.2194 0
M  V30 22 C -3.0893 1.9429 -2.8834 0
M  V30 23 N -3.1731 2.964 -1.8692 0
M  V30 24 N -2.4416 4.1204 -1.9093 0
M  V30 25 C -4.0298 2.9931 -0.7873 0
M  V30 26 N -2.7557 4.8416 -0.9121 0
M  V30 27 O -4.8457 2.1605 -0.4337 0
M  V30 28 N -3.7316 4.205 -0.1977 0
M  V30 29 C -4.2901 4.7437 1.0129 0
M  V30 30 C -3.3997 4.4664 2.2114 0
M  V30 31 H 3.028 -0.1598 4.2597 0
M  V30 32 H 4.1925 -1.1841 -0.4649 0
M  V30 33 H 5.3223 0.3149 3.4058 0
M  V30 34 H 1.6279 0.0747 -0.7208 0
M  V30 35 H 5.8944 -0.1993 1.0452 0
M  V30 36 H 3.2517 -3.8296 1.0261 0
M  V30 37 H 1.8832 -3.7691 2.1842 0
M  V30 38 H -0.1369 0.176 0.9146 0
M  V30 39 H 1.7347 -1.5053 -2.57 0
M  V30 40 H 0.1102 -2.0848 -2.2335 0
M  V30 41 H -0.2294 1.715 -0.9258 0
M  V30 42 H -1.86 1.1753 -0.5375 0
M  V30 43 H -1.6845 -1.8881 -0.7376 0
M  V30 44 H -2.3493 -0.887 0.556 0
M  V30 45 H -1.0998 -2.0646 0.9294 0
M  V30 46 H -0.004 -0.4253 -3.9623 0
M  V30 47 H 0.9012 0.7531 -3.0094 0
M  V30 48 H 2.4725 -7.2637 1.7348 0
M  V30 49 H 2.2954 -5.9781 2.9476 0
M  V30 50 H 3.7404 -6.0282 1.8852 0
M  V30 51 H -1.7054 1.0905 -4.241 0
M  V30 52 H -0.974 2.3511 -3.2564 0
M  V30 53 H -3.7097 1.0865 -2.5947 0
M  V30 54 H -3.5446 2.3731 -3.7837 0
M  V30 55 H -5.2723 4.2881 1.1784 0
M  V30 56 H -4.431 5.8216 0.8799 0
M  V30 57 H -2.4115 4.9197 2.0803 0
M  V30 58 H -3.2563 3.3899 2.3525 0
M  V30 59 H -3.8468 4.8762 3.1223 0
M  V30 END ATOM
M  V30 BEGIN BOND
M  V30 1 1 1 2
M  V30 2 2 2 3
M  V30 3 1 2 4
M  V30 4 1 3 5
M  V30 5 1 3 6
M  V30 6 2 4 7
M  V30 7 1 5 8
M  V30 8 1 5 9
M  V30 9 2 6 10
M  V30 10 2 8 11
M  V30 11 1 8 12
M  V30 12 1 9 13
M  V30 13 1 9 14
M  V30 14 1 12 15
M  V30 15 1 13 16
M  V30 16 1 13 17
M  V30 17 1 14 18
M  V30 18 1 15 19
M  V30 19 1 16 20
M  V30 20 1 20 21
M  V30 21 1 21 22
M  V30 22 1 22 23
M  V30 23 1 23 24
M  V30 24 1 23 25
M  V30 25 2 24 26
M  V30 26 2 25 27
M  V30 27 1 25 28
M  V30 28 1 28 29
M  V30 29 1 29 30
M  V30 30 1 7 10
M  V30 31 1 18 20
M  V30 32 1 26 28
M  V30 33 1 4 31
M  V30 34 1 6 32
M  V30 35 1 7 33
M  V30 36 1 9 34
M  V30 37 1 10 35
M  V30 38 1 12 36
M  V30 39 1 12 37
M  V30 40 1 13 38
M  V30 41 1 14 39
M  V30 42 1 14 40
M  V30 43 1 16 41
M  V30 44 1 16 42
M  V30 45 1 17 43
M  V30 46 1 17 44
M  V30 47 1 17 45
M  V30 48 1 18 46
M  V30 49 1 18 47
M  V30 50 1 19 48
M  V30 51 1 19 49
M  V30 52 1 19 50
M  V30 53 1 21 51
M  V30 54 1 21 52
M  V30 55 1 22 53
M  V30 56 1 22 54
M  V30 57 1 29 55
M  V30 58 1 29 56
M  V30 59 1 30 57
M  V30 60 1 30 58
M  V30 61 1 30 59
M  V30 END BOND
M  V30 BEGIN COLLECTION
M  V30 MDLV30/STEABS ATOMS=(2 9 13)
M  V30 END COLLECTION
M  V30 END CTAB
M  END
>  <Column 1>
1544

>  <level_0>
1697

>  <index>
1697

>  <Unnamed: 0>
1697

>  <NO.>
1709

>  <Name>
brifentanil

>  <IUPAC_name>
n-[(3r-4s)-1-[2-(4-ethyl-5-oxotetrazol-1-yl)ethyl]-3-methylpiperidin-4-yl]-n-(2-fluorophenyl)-2-methoxyacetamide

>  <SMILES>
CCn1nnn(CCN2CC[C@H](N(C(=O)COC)c3ccccc3F)[C@H](C)C2)c1=O

>  <CID>
60672

>  <logBB>


>  <BBB+/BBB->
BBB+

>  <Inchi>
InChI=1S/C20H29FN6O3/c1-4-25-20(29)26(23-22-25)12-11-24-10-9-17(15(2)13-24)27(19(28)14-30-3)18-8-6-5-7-16(18)21/h5-8-15-17H-4-9-14H2-1-3H3/t15--17+/m1/s1

>  <threshold>
-1

>  <reference>
R1|R6|R27|R30|

>  <group>
B

>  <Class>
1

>  <ABC>
22.78

>  <ABCGG>
18.75

>  <nAcid>
2

>  <nBase>
1

>  <nAromAtom>
11

>  <nAromBond>
11

>  <nAtom>
59

>  <nHeavyAtom>
30

>  <nSpiro>
0

>  <nBridgehead>
0

>  <nHetero>
10

>  <nN>
6

>  <nO>
3

>  <nF>
1

>  <BalabanJ>
1.56

>  <BertzCT>
913.94

>  <nBonds>
61

>  <nBondsO>
32

>  <nBondsS>
48

>  <nBondsD>
2

>  <nBondsT>
0

>  <nBondsA>
11

>  <nBondsM>
13

>  <nBondsKS>
55

>  <nBondsKD>
6

>  <RNCG>
0.15

>  <RPCG>
0.15

>  <FCSP3>
0.6

>  <SZ>
37.33

>  <Sm>
35.01

>  <Sv>
35.2

>  <Sse>
59.8

>  <Sp>
37.31

>  <Si>
67.94

>  <MZ>
0.63

>  <Mm>
0.59

>  <Mv>
0.6

>  <Mse>
1.01

>  <Mp>
0.63

>  <Mi>
1.15

>  <NsCH3>
3

>  <NdCH2>
0

>  <NssCH2>
7

>  <NtCH>
0

>  <NdsCH>
0

>  <NaaCH>
4

>  <NsssCH>
2

>  <NddC>
0

>  <NtsC>
0

>  <NdssC>
1

>  <NaasC>
2

>  <NaaaC>
0

>  <NssssC>
0

>  <NsNH3>
0

>  <NsNH2>
0

>  <NssNH2>
0

>  <NdNH>
0

>  <NssNH>
0

>  <NaaNH>
0

>  <NtN>
0

>  <NsssNH>
0

>  <NdsN>
0

>  <NaaN>
2

>  <NsssN>
2

>  <NddsN>
0

>  <NaasN>
2

>  <NssssN>
0

>  <NsOH>
0

>  <NdO>
2

>  <NssO>
1

>  <NaaO>
0

>  <NsF>
1

>  <NsSiH3>
0

>  <NssSiH2>
0

>  <NsssSiH>
0

>  <NssssSi>
0

>  <NsPH2>
0

>  <NssPH>
0

>  <NsssP>
0

>  <NdsssP>
0

>  <NsssssP>
0

>  <NsSH>
0

>  <NdS>
0

>  <NssS>
0

>  <NaaS>
0

>  <NdssS>
0

>  <NddssS>
0

>  <NsCl>
0

>  <NsBr>
0

>  <NsI>
0

>  <fragCpx>
154.1

>  <fMF>
0.34

>  <nHBAcc>
8

>  <nHBDon>
0

>  <Kier1>
24.64

>  <Kier2>
11.74

>  <Lipinski>
1

>  <GhoseFilter>
1

>  <FilterItLogS>
-2.91

>  <VMcGowan>
313.53

>  <LabuteASA>
174.54

>  <PEOE_VSA1>
14.54

>  <PEOE_VSA2>
4.79

>  <PEOE_VSA3>
9.18

>  <PEOE_VSA4>
9.36

>  <PEOE_VSA5>
0

>  <PEOE_VSA6>
19.06

>  <PEOE_VSA7>
41.82

>  <PEOE_VSA8>
39.33

>  <PEOE_VSA9>
12.23

>  <PEOE_VSA10>
12.42

>  <PEOE_VSA11>
0

>  <PEOE_VSA12>
0

>  <PEOE_VSA13>
5.91

>  <SMR_VSA1>
13.92

>  <SMR_VSA2>
0

>  <SMR_VSA3>
24.69

>  <SMR_VSA4>
5.92

>  <SMR_VSA5>
39.4

>  <SMR_VSA6>
38.25

>  <SMR_VSA7>
40.57

>  <SMR_VSA8>
0

>  <SMR_VSA9>
0

>  <SlogP_VSA1>
10.59

>  <SlogP_VSA2>
69.99

>  <SlogP_VSA3>
22.62

>  <SlogP_VSA4>
11.74

>  <SlogP_VSA5>
20.27

>  <SlogP_VSA6>
29.06

>  <SlogP_VSA7>
0

>  <SlogP_VSA8>
0

>  <SlogP_VSA9>
0

>  <SlogP_VSA10>
10.08

>  <SlogP_VSA11>
0

>  <EState_VSA1>
5.82

>  <EState_VSA2>
35.85

>  <EState_VSA3>
26.06

>  <EState_VSA4>
13.09

>  <EState_VSA5>
22.54

>  <EState_VSA6>
23.1

>  <EState_VSA7>
6.92

>  <EState_VSA8>
22.25

>  <EState_VSA9>
4.74

>  <EState_VSA10>
13.98

>  <VSA_EState1>
22.21

>  <VSA_EState2>
28.65

>  <VSA_EState3>
7.74

>  <VSA_EState4>
0.07

>  <VSA_EState5>
-0.56

>  <VSA_EState6>
6.2

>  <VSA_EState7>
0.7

>  <VSA_EState8>
6.87

>  <VSA_EState9>
1.46

>  <apol>
62.3

>  <bpol>
39.38

>  <nRing>
3

>  <nHRing>
2

>  <naRing>
2

>  <naHRing>
1

>  <nARing 2>
1

>  <nAHRing 2>
1

>  <nFRing>
0

>  <nFHRing>
0

>  <nFaRing>
0

>  <nFaHRing>
0

>  <nFARing 2>
0

>  <nFAHRing 2>
0

>  <nRot>
8

>  <SLogP>
0.99

>  <SMR>
109.73

>  <TopoPSA(NO)>
85.49

>  <TopoPSA>
85.49

>  <JGI1>
0.17

>  <JGI2>
0.09

>  <JGI3>
0.06

>  <JGI4>
0.05

>  <JGI5>
0.02

>  <Diameter>
15

>  <Radius>
8

>  <TMWC10>
138.71

>  <TSRW10>
79.41

>  <MW>
420.23

>  <AMW>
7.12

>  <WPath>
2648

>  <WPol>
48

>  <Zagreb1>
152

>  <Zagreb2>
179

>  <mZagreb2>
6.86

>  <yes>


>  <nAR-cont>
0.816016

>  <nHA-cont>
0.74523694

>  <MWHBN>
0.390253189

>  <MWHBN-cont>
0.514465284

>  <TPSA-cont>
0.403226714

>  <pka_cont>
0.97

>  <yes.1>


>  <BBB_SCORE>
3.624404294

>  <MMFF94 Energy>
64.013

$$$$
Compound 1291
Actelion Java MolfileCreator 2.0

  0  0  0  0  0  0              0 V3000
M  V30 BEGIN CTAB
M  V30 COUNTS 50 51 0 0 0
M  V30 BEGIN ATOM
M  V30 1 Cl 1.3685 -2.013 -3.8678 0
M  V30 2 C 0.842 -3.2096 -2.7395 0
M  V30 3 C 0.3452 -2.8962 -1.4686 0
M  V30 4 C 0.9641 -4.5499 -3.1222 0
M  V30 5 C 0.164 -1.5116 -0.9778 0
M  V30 6 C 0.0058 -3.9274 -0.5788 0
M  V30 7 C 0.605 -5.5719 -2.2407 0
M  V30 8 O 0.5764 -1.2267 0.1437 0
M  V30 9 C -0.5944 -0.5079 -1.7682 0
M  V30 10 C 0.1312 -5.261 -0.9677 0
M  V30 11 C -0.1982 0.8427 -1.8173 0
M  V30 12 C -1.7655 -0.9119 -2.4272 0
M  V30 13 N 0.9798 1.3199 -1.1998 0
M  V30 14 C -0.9612 1.7658 -2.5452 0
M  V30 15 C -2.5139 0.0198 -3.1451 0
M  V30 16 C 1.0282 1.8189 0.107 0
M  V30 17 C 2.2169 1.1885 -1.9528 0
M  V30 18 C -2.1176 1.3539 -3.2087 0
M  V30 19 Cl -3.9446 -0.4829 -3.9574 0
M  V30 20 O 2.0876 2.2393 0.5847 0
M  V30 21 C -0.3091 1.8633 0.8918 0
M  V30 22 N -0.0754 1.8852 2.3582 0
M  V30 23 C -1.2131 1.2937 3.0935 0
M  V30 24 C 0.188 3.2685 2.805 0
M  V30 25 C -1.0732 -0.2281 3.2824 0
M  V30 26 C 1.0544 3.3133 4.0702 0
M  V30 27 O -1.3002 -0.9563 2.0821 0
M  V30 28 O 1.1772 4.662 4.5191 0
M  V30 29 H 1.3509 -4.8085 -4.1057 0
M  V30 30 H -0.3604 -3.6909 0.4199 0
M  V30 31 H 0.7073 -6.6118 -2.5433 0
M  V30 32 H -0.1364 -6.0561 -0.275 0
M  V30 33 H -2.1109 -1.9412 -2.3723 0
M  V30 34 H -0.6532 2.808 -2.6029 0
M  V30 35 H 2.0216 1.2173 -3.0293 0
M  V30 36 H 2.9069 1.9998 -1.7017 0
M  V30 37 H 2.6884 0.2375 -1.6866 0
M  V30 38 H -2.7033 2.0771 -3.7713 0
M  V30 39 H -0.8825 2.7391 0.5624 0
M  V30 40 H -0.8983 0.986 0.6259 0
M  V30 41 H -2.1629 1.5361 2.6 0
M  V30 42 H -1.2667 1.7182 4.1034 0
M  V30 43 H -0.7487 3.8211 2.9602 0
M  V30 44 H 0.7255 3.8422 2.0388 0
M  V30 45 H -0.0892 -0.4944 3.6843 0
M  V30 46 H -1.8235 -0.5652 4.0054 0
M  V30 47 H 0.6147 2.7313 4.8855 0
M  V30 48 H 2.0559 2.9224 3.8603 0
M  V30 49 H -0.4542 -0.9237 1.5804 0
M  V30 50 H 1.8472 4.657 5.224 0
M  V30 END ATOM
M  V30 BEGIN BOND
M  V30 1 1 1 2
M  V30 2 2 2 3
M  V30 3 1 2 4
M  V30 4 1 3 5
M  V30 5 1 3 6
M  V30 6 2 4 7
M  V30 7 2 5 8
M  V30 8 1 5 9
M  V30 9 2 6 10
M  V30 10 2 9 11
M  V30 11 1 9 12
M  V30 12 1 11 13
M  V30 13 1 11 14
M  V30 14 2 12 15
M  V30 15 1 13 16
M  V30 16 1 13 17
M  V30 17 2 14 18
M  V30 18 1 15 19
M  V30 19 2 16 20
M  V30 20 1 16 21
M  V30 21 1 21 22
M  V30 22 1 22 23
M  V30 23 1 22 24
M  V30 24 1 23 25
M  V30 25 1 24 26
M  V30 26 1 25 27
M  V30 27 1 26 28
M  V30 28 1 7 10
M  V30 29 1 15 18
M  V30 30 1 4 29
M  V30 31 1 6 30
M  V30 32 1 7 31
M  V30 33 1 10 32
M  V30 34 1 12 33
M  V30 35 1 14 34
M  V30 36 1 17 35
M  V30 37 1 17 36
M  V30 38 1 17 37
M  V30 39 1 18 38
M  V30 40 1 21 39
M  V30 41 1 21 40
M  V30 42 1 23 41
M  V30 43 1 23 42
M  V30 44 1 24 43
M  V30 45 1 24 44
M  V30 46 1 25 45
M  V30 47 1 25 46
M  V30 48 1 26 47
M  V30 49 1 26 48
M  V30 50 1 27 49
M  V30 51 1 28 50
M  V30 END BOND
M  V30 END CTAB
M  END
>  <Column 1>
1545

>  <level_0>
1698

>  <index>
1698

>  <Unnamed: 0>
1698

>  <NO.>
1710

>  <Name>
dulozafone

>  <IUPAC_name>
2-[bis(2-hydroxyethyl)amino]-n-[4-chloro-2-(2-chlorobenzoyl)phenyl]-n-methylacetamide

>  <SMILES>
CN(C(=O)CN(CCO)CCO)c1ccc(Cl)cc1C(=O)c1ccccc1Cl

>  <CID>
71142

>  <logBB>


>  <BBB+/BBB->
BBB+

>  <Inchi>
InChI=1S/C20H22Cl2N2O4/c1-23(19(27)13-24(8-10-25)9-11-26)18-7-6-14(21)12-16(18)20(28)15-4-2-3-5-17(15)22/h2-7-12-25-26H-8-11-13H2-1H3

>  <threshold>
-1

>  <reference>
R1|R13|R19|R6|R24|R27|R27|R27|R30|R30|

>  <group>
B

>  <Class>
1

>  <ABC>
20.81

>  <ABCGG>
18.05

>  <nAcid>
0

>  <nBase>
1

>  <nAromAtom>
12

>  <nAromBond>
12

>  <nAtom>
50

>  <nHeavyAtom>
28

>  <nSpiro>
0

>  <nBridgehead>
0

>  <nHetero>
8

>  <nN>
2

>  <nO>
4

>  <nF>
0

>  <BalabanJ>
2.06

>  <BertzCT>
838.71

>  <nBonds>
51

>  <nBondsO>
29

>  <nBondsS>
37

>  <nBondsD>
2

>  <nBondsT>
0

>  <nBondsA>
12

>  <nBondsM>
14

>  <nBondsKS>
43

>  <nBondsKD>
8

>  <RNCG>
0.16

>  <RPCG>
0.1

>  <FCSP3>
0.3

>  <SZ>
37

>  <Sm>
35.41

>  <Sv>
32.52

>  <Sse>
50.95

>  <Sp>
34.63

>  <Si>
56.29

>  <MZ>
0.74

>  <Mm>
0.71

>  <Mv>
0.65

>  <Mse>
1.02

>  <Mp>
0.69

>  <Mi>
1.13

>  <NsCH3>
1

>  <NdCH2>
0

>  <NssCH2>
5

>  <NtCH>
0

>  <NdsCH>
0

>  <NaaCH>
7

>  <NsssCH>
0

>  <NddC>
0

>  <NtsC>
0

>  <NdssC>
2

>  <NaasC>
5

>  <NaaaC>
0

>  <NssssC>
0

>  <NsNH3>
0

>  <NsNH2>
0

>  <NssNH2>
0

>  <NdNH>
0

>  <NssNH>
0

>  <NaaNH>
0

>  <NtN>
0

>  <NsssNH>
0

>  <NdsN>
0

>  <NaaN>
0

>  <NsssN>
2

>  <NddsN>
0

>  <NaasN>
0

>  <NssssN>
0

>  <NsOH>
2

>  <NdO>
2

>  <NssO>
0

>  <NaaO>
0

>  <NsF>
0

>  <NsSiH3>
0

>  <NssSiH2>
0

>  <NsssSiH>
0

>  <NssssSi>
0

>  <NsPH2>
0

>  <NssPH>
0

>  <NsssP>
0

>  <NdsssP>
0

>  <NsssssP>
0

>  <NsSH>
0

>  <NdS>
0

>  <NssS>
0

>  <NaaS>
0

>  <NdssS>
0

>  <NddssS>
0

>  <NsCl>
2

>  <NsBr>
0

>  <NsI>
0

>  <fragCpx>
85.08

>  <fMF>
0.26

>  <nHBAcc>
5

>  <nHBDon>
2

>  <Kier1>
24.27

>  <Kier2>
12

>  <Lipinski>
1

>  <GhoseFilter>
1

>  <FilterItLogS>
-4.82

>  <VMcGowan>
304.46

>  <LabuteASA>
173.45

>  <PEOE_VSA1>
15.11

>  <PEOE_VSA2>
14.49

>  <PEOE_VSA3>
0

>  <PEOE_VSA4>
0

>  <PEOE_VSA5>
0

>  <PEOE_VSA6>
35.33

>  <PEOE_VSA7>
30.33

>  <PEOE_VSA8>
36.29

>  <PEOE_VSA9>
30.47

>  <PEOE_VSA10>
0

>  <PEOE_VSA11>
5.78

>  <PEOE_VSA12>
5.91

>  <PEOE_VSA13>
0

>  <SMR_VSA1>
19.8

>  <SMR_VSA2>
0

>  <SMR_VSA3>
4.9

>  <SMR_VSA4>
0

>  <SMR_VSA5>
0

>  <SMR_VSA6>
44.8

>  <SMR_VSA7>
63.64

>  <SMR_VSA8>
0

>  <SMR_VSA9>
0

>  <SlogP_VSA1>
4.9

>  <SlogP_VSA2>
66.7

>  <SlogP_VSA3>
4.79

>  <SlogP_VSA4>
0

>  <SlogP_VSA5>
15.92

>  <SlogP_VSA6>
42.46

>  <SlogP_VSA7>
10.05

>  <SlogP_VSA8>
0

>  <SlogP_VSA9>
0

>  <SlogP_VSA10>
5.69

>  <SlogP_VSA11>
0

>  <EState_VSA1>
0

>  <EState_VSA2>
50.1

>  <EState_VSA3>
21.3

>  <EState_VSA4>
0

>  <EState_VSA5>
10.97

>  <EState_VSA6>
48.35

>  <EState_VSA7>
0

>  <EState_VSA8>
0

>  <EState_VSA9>
33.41

>  <EState_VSA10>
9.59

>  <VSA_EState1>
0

>  <VSA_EState2>
28.75

>  <VSA_EState3>
18.9

>  <VSA_EState4>
0.97

>  <VSA_EState5>
-0.64

>  <VSA_EState6>
11.38

>  <VSA_EState7>
0

>  <VSA_EState8>
0.24

>  <VSA_EState9>
1.56

>  <apol>
57.84

>  <bpol>
28.25

>  <nRing>
2

>  <nHRing>
0

>  <naRing>
2

>  <naHRing>
0

>  <nARing 2>
0

>  <nAHRing 2>
0

>  <nFRing>
0

>  <nFHRing>
0

>  <nFaRing>
0

>  <nFaHRing>
0

>  <nFARing 2>
0

>  <nFAHRing 2>
0

>  <nRot>
9

>  <SLogP>
2.47

>  <SMR>
110.36

>  <TopoPSA(NO)>
81.08

>  <TopoPSA>
81.08

>  <JGI1>
0.19

>  <JGI2>
0.09

>  <JGI3>
0.06

>  <JGI4>
0.04

>  <JGI5>
0.03

>  <Diameter>
13

>  <Radius>
7

>  <TMWC10>
132.28

>  <TSRW10>
62.87

>  <MW>
424.1

>  <AMW>
8.48

>  <WPath>
2073

>  <WPol>
44

>  <Zagreb1>
136

>  <Zagreb2>
157

>  <mZagreb2>
6.5

>  <yes>


>  <nAR-cont>
0.336376

>  <nHA-cont>
0.82432561

>  <MWHBN>
0.33990997

>  <MWHBN-cont>
0.707459604

>  <TPSA-cont>
0.434011252

>  <pka_cont>
0.97

>  <yes.1>


>  <BBB_SCORE>
3.574913521

>  <MMFF94 Energy>
145.68

$$$$
Compound 1292
Actelion Java MolfileCreator 2.0

  0  0  0  0  0  0              0 V3000
M  V30 BEGIN CTAB
M  V30 COUNTS 43 44 0 0 0
M  V30 BEGIN ATOM
M  V30 1 Cl -2.5871 -0.3231 0.8887 0
M  V30 2 C -3.3591 -0.6509 -0.619 0
M  V30 3 C -2.6681 -0.7188 -1.8347 0
M  V30 4 C -4.7491 -0.8152 -0.602 0
M  V30 5 C -1.1975 -0.5745 -1.96 0
M  V30 6 C -3.3825 -0.9129 -3.028 0
M  V30 7 C -5.4503 -1.0316 -1.7899 0
M  V30 8 O -0.7694 0.1792 -2.8284 0
M  V30 9 C -0.2646 -1.3906 -1.1328 0
M  V30 10 C -4.7682 -1.0742 -3.0034 0
M  V30 11 C 0.9738 -0.8883 -0.6845 0
M  V30 12 C -0.6238 -2.7134 -0.8227 0
M  V30 13 N 1.4318 0.415 -0.9839 0
M  V30 14 C 1.8201 -1.7069 0.0792 0
M  V30 15 C 0.2268 -3.5084 -0.0551 0
M  V30 16 C 1.419 1.4789 -0.0873 0
M  V30 17 C 2.1149 0.5918 -2.257 0
M  V30 18 C 1.4434 -3.0109 0.4004 0
M  V30 19 Cl -0.2329 -5.1217 0.3261 0
M  V30 20 O 1.9562 2.5613 -0.3572 0
M  V30 21 C 0.6846 1.301 1.2513 0
M  V30 22 N 1.4316 1.9631 2.2991 0
M  V30 23 C 2.4579 1.3494 2.9751 0
M  V30 24 O 2.7492 0.1647 2.8392 0
M  V30 25 C 3.195 2.2798 3.9453 0
M  V30 26 N 3.0429 3.6942 3.5431 0
M  V30 27 H -5.2979 -0.7634 0.3361 0
M  V30 28 H -2.8569 -0.937 -3.9816 0
M  V30 29 H -6.5313 -1.1525 -1.7689 0
M  V30 30 H -5.3144 -1.2264 -3.9318 0
M  V30 31 H -1.5574 -3.1387 -1.1818 0
M  V30 32 H 2.774 -1.3252 0.4417 0
M  V30 33 H 1.9108 -0.2356 -2.9433 0
M  V30 34 H 1.7947 1.532 -2.7176 0
M  V30 35 H 3.1918 0.6494 -2.0682 0
M  V30 36 H 2.1052 -3.6274 1.004 0
M  V30 37 H -0.2876 1.7955 1.1721 0
M  V30 38 H 0.5354 0.259 1.5319 0
M  V30 39 H 1.3608 2.9716 2.4178 0
M  V30 40 H 2.7767 2.1343 4.9456 0
M  V30 41 H 4.2559 2.012 3.9514 0
M  V30 42 H 3.4882 3.8135 2.6292 0
M  V30 43 H 3.5848 4.2707 4.187 0
M  V30 END ATOM
M  V30 BEGIN BOND
M  V30 1 1 1 2
M  V30 2 2 2 3
M  V30 3 1 2 4
M  V30 4 1 3 5
M  V30 5 1 3 6
M  V30 6 2 4 7
M  V30 7 2 5 8
M  V30 8 1 5 9
M  V30 9 2 6 10
M  V30 10 2 9 11
M  V30 11 1 9 12
M  V30 12 1 11 13
M  V30 13 1 11 14
M  V30 14 2 12 15
M  V30 15 1 13 16
M  V30 16 1 13 17
M  V30 17 2 14 18
M  V30 18 1 15 19
M  V30 19 2 16 20
M  V30 20 1 16 21
M  V30 21 1 21 22
M  V30 22 1 22 23
M  V30 23 2 23 24
M  V30 24 1 23 25
M  V30 25 1 25 26
M  V30 26 1 7 10
M  V30 27 1 15 18
M  V30 28 1 4 27
M  V30 29 1 6 28
M  V30 30 1 7 29
M  V30 31 1 10 30
M  V30 32 1 12 31
M  V30 33 1 14 32
M  V30 34 1 17 33
M  V30 35 1 17 34
M  V30 36 1 17 35
M  V30 37 1 18 36
M  V30 38 1 21 37
M  V30 39 1 21 38
M  V30 40 1 22 39
M  V30 41 1 25 40
M  V30 42 1 25 41
M  V30 43 1 26 42
M  V30 44 1 26 43
M  V30 END BOND
M  V30 END CTAB
M  END
>  <Column 1>
1546

>  <level_0>
1699

>  <index>
1699

>  <Unnamed: 0>
1699

>  <NO.>
1711

>  <Name>
lorzafone

>  <IUPAC_name>
2-amino-n-[2-[4-chloro-2-(2-chlorobenzoyl)-n-methylanilino]-2-oxoethyl]acetamide;hydrate

>  <SMILES>
CN(C(=O)CNC(=O)CN)c1ccc(Cl)cc1C(=O)c1ccccc1Cl

>  <CID>
54760

>  <logBB>


>  <BBB+/BBB->
BBB+

>  <Inchi>
InChI=1S/C18H17Cl2N3O3/c1-23(17(25)10-22-16(24)9-21)15-7-6-11(19)8-13(15)18(26)12-4-2-3-5-14(12)20/h2-8H-9-10-21H2-1H3-(H-22-24)

>  <threshold>
-1

>  <reference>
R1|R13|R19|R6|R24|R27|R27|R27|R30|R30|

>  <group>
B

>  <Class>
1

>  <ABC>
19.51

>  <ABCGG>
16.88

>  <nAcid>
0

>  <nBase>
1

>  <nAromAtom>
12

>  <nAromBond>
12

>  <nAtom>
43

>  <nHeavyAtom>
26

>  <nSpiro>
0

>  <nBridgehead>
0

>  <nHetero>
8

>  <nN>
3

>  <nO>
3

>  <nF>
0

>  <BalabanJ>
2.03

>  <BertzCT>
855.33

>  <nBonds>
44

>  <nBondsO>
27

>  <nBondsS>
29

>  <nBondsD>
3

>  <nBondsT>
0

>  <nBondsA>
12

>  <nBondsM>
15

>  <nBondsKS>
35

>  <nBondsKD>
9

>  <RNCG>
0.15

>  <RPCG>
0.11

>  <FCSP3>
0.17

>  <SZ>
34

>  <Sm>
32.82

>  <Sv>
29.21

>  <Sse>
44.06

>  <Sp>
30.82

>  <Si>
48.33

>  <MZ>
0.79

>  <Mm>
0.76

>  <Mv>
0.68

>  <Mse>
1.02

>  <Mp>
0.72

>  <Mi>
1.12

>  <NsCH3>
1

>  <NdCH2>
0

>  <NssCH2>
2

>  <NtCH>
0

>  <NdsCH>
0

>  <NaaCH>
7

>  <NsssCH>
0

>  <NddC>
0

>  <NtsC>
0

>  <NdssC>
3

>  <NaasC>
5

>  <NaaaC>
0

>  <NssssC>
0

>  <NsNH3>
0

>  <NsNH2>
1

>  <NssNH2>
0

>  <NdNH>
0

>  <NssNH>
1

>  <NaaNH>
0

>  <NtN>
0

>  <NsssNH>
0

>  <NdsN>
0

>  <NaaN>
0

>  <NsssN>
1

>  <NddsN>
0

>  <NaasN>
0

>  <NssssN>
0

>  <NsOH>
0

>  <NdO>
3

>  <NssO>
0

>  <NaaO>
0

>  <NsF>
0

>  <NsSiH3>
0

>  <NssSiH2>
0

>  <NsssSiH>
0

>  <NssssSi>
0

>  <NsPH2>
0

>  <NssPH>
0

>  <NsssP>
0

>  <NdsssP>
0

>  <NsssssP>
0

>  <NsSH>
0

>  <NdS>
0

>  <NssS>
0

>  <NaaS>
0

>  <NdssS>
0

>  <NddssS>
0

>  <NsCl>
2

>  <NsBr>
0

>  <NsI>
0

>  <fragCpx>
79.08

>  <fMF>
0.3

>  <nHBAcc>
4

>  <nHBDon>
2

>  <Kier1>
22.29

>  <Kier2>
10.52

>  <Lipinski>
1

>  <GhoseFilter>
1

>  <FilterItLogS>
-5.09

>  <VMcGowan>
276.09

>  <LabuteASA>
160.42

>  <PEOE_VSA1>
15.95

>  <PEOE_VSA2>
14.38

>  <PEOE_VSA3>
0

>  <PEOE_VSA4>
0

>  <PEOE_VSA5>
0

>  <PEOE_VSA6>
35.33

>  <PEOE_VSA7>
30.33

>  <PEOE_VSA8>
23.2

>  <PEOE_VSA9>
23.8

>  <PEOE_VSA10>
0

>  <PEOE_VSA11>
5.78

>  <PEOE_VSA12>
11.81

>  <PEOE_VSA13>
0

>  <SMR_VSA1>
14.38

>  <SMR_VSA2>
0

>  <SMR_VSA3>
5.32

>  <SMR_VSA4>
5.73

>  <SMR_VSA5>
0

>  <SMR_VSA6>
25.04

>  <SMR_VSA7>
63.64

>  <SMR_VSA8>
0

>  <SMR_VSA9>
0

>  <SlogP_VSA1>
15.95

>  <SlogP_VSA2>
37.73

>  <SlogP_VSA3>
9.59

>  <SlogP_VSA4>
0

>  <SlogP_VSA5>
15.92

>  <SlogP_VSA6>
42.46

>  <SlogP_VSA7>
10.05

>  <SlogP_VSA8>
0

>  <SlogP_VSA9>
0

>  <SlogP_VSA10>
5.69

>  <SlogP_VSA11>
0

>  <EState_VSA1>
11.81

>  <EState_VSA2>
24.44

>  <EState_VSA3>
21.3

>  <EState_VSA4>
0

>  <EState_VSA5>
18.01

>  <EState_VSA6>
36.4

>  <EState_VSA7>
0

>  <EState_VSA8>
5.32

>  <EState_VSA9>
28.94

>  <EState_VSA10>
14.38

>  <VSA_EState1>
0

>  <VSA_EState2>
37.74

>  <VSA_EState3>
3.04

>  <VSA_EState4>
6.08

>  <VSA_EState5>
-1.23

>  <VSA_EState6>
11.23

>  <VSA_EState7>
0

>  <VSA_EState8>
-0.46

>  <VSA_EState9>
1.5

>  <apol>
51.46

>  <bpol>
22.39

>  <nRing>
2

>  <nHRing>
0

>  <naRing>
2

>  <naHRing>
0

>  <nARing 2>
0

>  <nAHRing 2>
0

>  <nFRing>
0

>  <nFHRing>
0

>  <nFaRing>
0

>  <nFaHRing>
0

>  <nFARing 2>
0

>  <nFAHRing 2>
0

>  <nRot>
6

>  <SLogP>
2.26

>  <SMR>
101.81

>  <TopoPSA(NO)>
92.5

>  <TopoPSA>
92.5

>  <JGI1>
0.2

>  <JGI2>
0.1

>  <JGI3>
0.05

>  <JGI4>
0.05

>  <JGI5>
0.03

>  <Diameter>
13

>  <Radius>
7

>  <TMWC10>
127.73

>  <TSRW10>
60.6

>  <MW>
393.06

>  <AMW>
9.14

>  <WPath>
1697

>  <WPol>
41

>  <Zagreb1>
128

>  <Zagreb2>
148

>  <mZagreb2>
5.92

>  <yes>


>  <nAR-cont>
0.336376

>  <nHA-cont>
0.892715677

>  <MWHBN>
0.302636862

>  <MWHBN-cont>
0.832789583

>  <TPSA-cont>
0.354292561

>  <pka_cont>
0.97

>  <yes.1>


>  <BBB_SCORE>
3.671861173

>  <MMFF94 Energy>
104.39

$$$$
Compound 1293
Actelion Java MolfileCreator 2.0

  0  0  0  0  0  0              0 V3000
M  V30 BEGIN CTAB
M  V30 COUNTS 57 58 0 0 0
M  V30 BEGIN ATOM
M  V30 1 Cl -3.4109 0.5546 -5.3187 0
M  V30 2 C -2.171 -0.1586 -4.3642 0
M  V30 3 C -2.5041 -1.0981 -3.3918 0
M  V30 4 C -0.8406 0.2048 -4.5759 0
M  V30 5 C -1.4866 -1.6823 -2.6288 0
M  V30 6 C 0.1722 -0.3707 -3.8046 0
M  V30 7 C -0.1464 -1.3101 -2.818 0
M  V30 8 C -1.8606 -2.6614 -1.5942 0
M  V30 9 N 0.9075 -1.8813 -2.0711 0
M  V30 10 O -1.7621 -2.3211 -0.42 0
M  V30 11 C -2.3528 -4.0167 -1.9675 0
M  V30 12 C 1.3941 -1.3293 -0.8861 0
M  V30 13 C 1.4285 -3.1619 -2.5176 0
M  V30 14 C -2.2826 -4.5066 -3.2784 0
M  V30 15 C -2.8846 -4.8283 -0.957 0
M  V30 16 O 2.2905 -1.8767 -0.2341 0
M  V30 17 C 0.7906 0.0075 -0.4312 0
M  V30 18 C -2.7527 -5.7893 -3.5717 0
M  V30 19 C -3.3525 -6.1091 -1.2546 0
M  V30 20 N 1.4361 0.4745 0.7768 0
M  V30 21 C -3.288 -6.5877 -2.5617 0
M  V30 22 C 1.2095 1.7234 1.3026 0
M  V30 23 O 0.4713 2.5452 0.7682 0
M  V30 24 C 1.9577 1.9619 2.6391 0 CFG=1
M  V30 25 N 3.3731 1.5568 2.4607 0
M  V30 26 C 1.8822 3.422 3.1114 0
M  V30 27 C 0.5127 3.7711 3.7104 0
M  V30 28 C 0.3584 5.257 4.0541 0
M  V30 29 C 1.3089 5.7288 5.1538 0
M  V30 30 N 1.027 7.1165 5.5036 0
M  V30 31 H -3.544 -1.3657 -3.2212 0
M  V30 32 H -0.5862 0.9401 -5.336 0
M  V30 33 H 1.2064 -0.0789 -3.975 0
M  V30 34 H 1.2053 -3.3297 -3.5757 0
M  V30 35 H 2.5131 -3.1928 -2.3746 0
M  V30 36 H 0.9773 -3.9546 -1.9129 0
M  V30 37 H -1.8612 -3.9171 -4.0871 0
M  V30 38 H -2.9361 -4.4657 0.0683 0
M  V30 39 H 0.932 0.7653 -1.2076 0
M  V30 40 H -0.2753 -0.1056 -0.2187 0
M  V30 41 H -2.6995 -6.1691 -4.5894 0
M  V30 42 H -3.7652 -6.7322 -0.4649 0
M  V30 43 H 2.1397 -0.1154 1.2187 0
M  V30 44 H -3.6522 -7.586 -2.7922 0
M  V30 45 H 1.5115 1.2985 3.3894 0
M  V30 46 H 3.7973 2.162 1.7563 0
M  V30 47 H 3.8824 1.7328 3.3256 0
M  V30 48 H 2.1073 4.1013 2.2796 0
M  V30 49 H 2.6466 3.5919 3.8794 0
M  V30 50 H 0.3447 3.1688 4.6117 0
M  V30 51 H -0.2837 3.5059 3.0067 0
M  V30 52 H 0.5066 5.8571 3.1474 0
M  V30 53 H -0.6778 5.424 4.3757 0
M  V30 54 H 2.3496 5.6542 4.8238 0
M  V30 55 H 1.1931 5.1053 6.0465 0
M  V30 56 H 1.7116 7.4416 6.1846 0
M  V30 57 H 1.136 7.7078 4.6806 0
M  V30 END ATOM
M  V30 BEGIN BOND
M  V30 1 1 1 2
M  V30 2 2 2 3
M  V30 3 1 2 4
M  V30 4 1 3 5
M  V30 5 2 4 6
M  V30 6 2 5 7
M  V30 7 1 5 8
M  V30 8 1 7 9
M  V30 9 2 8 10
M  V30 10 1 8 11
M  V30 11 1 9 12
M  V30 12 1 9 13
M  V30 13 2 11 14
M  V30 14 1 11 15
M  V30 15 2 12 16
M  V30 16 1 12 17
M  V30 17 1 14 18
M  V30 18 2 15 19
M  V30 19 1 17 20
M  V30 20 2 18 21
M  V30 21 1 20 22
M  V30 22 2 22 23
M  V30 23 1 22 24
M  V30 24 1 24 25
M  V30 25 1 24 26
M  V30 26 1 26 27
M  V30 27 1 27 28
M  V30 28 1 28 29
M  V30 29 1 29 30
M  V30 30 1 6 7
M  V30 31 1 19 21
M  V30 32 1 3 31
M  V30 33 1 4 32
M  V30 34 1 6 33
M  V30 35 1 13 34
M  V30 36 1 13 35
M  V30 37 1 13 36
M  V30 38 1 14 37
M  V30 39 1 15 38
M  V30 40 1 17 39
M  V30 41 1 17 40
M  V30 42 1 18 41
M  V30 43 1 19 42
M  V30 44 1 20 43
M  V30 45 1 21 44
M  V30 46 1 24 45
M  V30 47 1 25 46
M  V30 48 1 25 47
M  V30 49 1 26 48
M  V30 50 1 26 49
M  V30 51 1 27 50
M  V30 52 1 27 51
M  V30 53 1 28 52
M  V30 54 1 28 53
M  V30 55 1 29 54
M  V30 56 1 29 55
M  V30 57 1 30 56
M  V30 58 1 30 57
M  V30 END BOND
M  V30 BEGIN COLLECTION
M  V30 MDLV30/STEABS ATOMS=(1 24)
M  V30 END COLLECTION
M  V30 END CTAB
M  END
>  <Column 1>
1547

>  <level_0>
1700

>  <index>
1700

>  <Unnamed: 0>
1700

>  <NO.>
1712

>  <Name>
avizafone

>  <IUPAC_name>
(2s)-2-6-diamino-n-[2-(2-benzoyl-4-chloro-n-methylanilino)-2-oxoethyl]hexanamide

>  <SMILES>
CN(C(=O)CNC(=O)[C@@H](N)CCCCN)c1ccc(Cl)cc1C(=O)c1ccccc1

>  <CID>
71968

>  <logBB>


>  <BBB+/BBB->
BBB+

>  <Inchi>
InChI=1S/C22H27ClN4O3/c1-27(20(28)14-26-22(30)18(25)9-5-6-12-24)19-11-10-16(23)13-17(19)21(29)15-7-3-2-4-8-15/h2-4-7-8-10-11-13-18H-5-6-9-12-14-24-25H2-1H3-(H-26-30)/t18-/m0/s1

>  <threshold>
-1

>  <reference>
R1|R13|R6|R24|R27|R30|

>  <group>
B

>  <Class>
1

>  <ABC>
22.33

>  <ABCGG>
18.58

>  <nAcid>
0

>  <nBase>
2

>  <nAromAtom>
12

>  <nAromBond>
12

>  <nAtom>
57

>  <nHeavyAtom>
30

>  <nSpiro>
0

>  <nBridgehead>
0

>  <nHetero>
8

>  <nN>
4

>  <nO>
3

>  <nF>
0

>  <BalabanJ>
1.88

>  <BertzCT>
889.21

>  <nBonds>
58

>  <nBondsO>
31

>  <nBondsS>
43

>  <nBondsD>
3

>  <nBondsT>
0

>  <nBondsA>
12

>  <nBondsM>
15

>  <nBondsKS>
49

>  <nBondsKD>
9

>  <RNCG>
0.13

>  <RPCG>
0.09

>  <FCSP3>
0.32

>  <SZ>
38

>  <Sm>
35.88

>  <Sv>
35.58

>  <Sse>
57.4

>  <Sp>
38.16

>  <Si>
64.55

>  <MZ>
0.67

>  <Mm>
0.63

>  <Mv>
0.62

>  <Mse>
1.01

>  <Mp>
0.67

>  <Mi>
1.13

>  <NsCH3>
1

>  <NdCH2>
0

>  <NssCH2>
5

>  <NtCH>
0

>  <NdsCH>
0

>  <NaaCH>
8

>  <NsssCH>
1

>  <NddC>
0

>  <NtsC>
0

>  <NdssC>
3

>  <NaasC>
4

>  <NaaaC>
0

>  <NssssC>
0

>  <NsNH3>
0

>  <NsNH2>
2

>  <NssNH2>
0

>  <NdNH>
0

>  <NssNH>
1

>  <NaaNH>
0

>  <NtN>
0

>  <NsssNH>
0

>  <NdsN>
0

>  <NaaN>
0

>  <NsssN>
1

>  <NddsN>
0

>  <NaasN>
0

>  <NssssN>
0

>  <NsOH>
0

>  <NdO>
3

>  <NssO>
0

>  <NaaO>
0

>  <NsF>
0

>  <NsSiH3>
0

>  <NssSiH2>
0

>  <NsssSiH>
0

>  <NssssSi>
0

>  <NsPH2>
0

>  <NssPH>
0

>  <NsssP>
0

>  <NdsssP>
0

>  <NsssssP>
0

>  <NsSH>
0

>  <NdS>
0

>  <NssS>
0

>  <NaaS>
0

>  <NdssS>
0

>  <NddssS>
0

>  <NsCl>
1

>  <NsBr>
0

>  <NsI>
0

>  <fragCpx>
91.08

>  <fMF>
0.23

>  <nHBAcc>
5

>  <nHBDon>
3

>  <Kier1>
26.25

>  <Kier2>
13.53

>  <Lipinski>
1

>  <GhoseFilter>
1

>  <FilterItLogS>
-5.19

>  <VMcGowan>
330.19

>  <LabuteASA>
180.92

>  <PEOE_VSA1>
21.68

>  <PEOE_VSA2>
14.38

>  <PEOE_VSA3>
0

>  <PEOE_VSA4>
0

>  <PEOE_VSA5>
0

>  <PEOE_VSA6>
48.35

>  <PEOE_VSA7>
37.59

>  <PEOE_VSA8>
23.2

>  <PEOE_VSA9>
18.27

>  <PEOE_VSA10>
0

>  <PEOE_VSA11>
5.78

>  <PEOE_VSA12>
11.81

>  <PEOE_VSA13>
0

>  <SMR_VSA1>
14.38

>  <SMR_VSA2>
0

>  <SMR_VSA3>
5.32

>  <SMR_VSA4>
11.47

>  <SMR_VSA5>
25.3

>  <SMR_VSA6>
25.04

>  <SMR_VSA7>
64.68

>  <SMR_VSA8>
0

>  <SMR_VSA9>
0

>  <SlogP_VSA1>
21.68

>  <SlogP_VSA2>
43.78

>  <SlogP_VSA3>
9.59

>  <SlogP_VSA4>
0

>  <SlogP_VSA5>
35.18

>  <SlogP_VSA6>
48.53

>  <SlogP_VSA7>
5.02

>  <SlogP_VSA8>
0

>  <SlogP_VSA9>
0

>  <SlogP_VSA10>
5.69

>  <SlogP_VSA11>
0

>  <EState_VSA1>
11.95

>  <EState_VSA2>
18.24

>  <EState_VSA3>
34.8

>  <EState_VSA4>
12.84

>  <EState_VSA5>
10.97

>  <EState_VSA6>
43.45

>  <EState_VSA7>
6.07

>  <EState_VSA8>
5.32

>  <EState_VSA9>
23.07

>  <EState_VSA10>
14.38

>  <VSA_EState1>
0

>  <VSA_EState2>
38.99

>  <VSA_EState3>
2.94

>  <VSA_EState4>
12.46

>  <VSA_EState5>
-1.04

>  <VSA_EState6>
12.78

>  <VSA_EState7>
2.03

>  <VSA_EState8>
0.31

>  <VSA_EState9>
1.54

>  <apol>
63.73

>  <bpol>
31.34

>  <nRing>
2

>  <nHRing>
0

>  <naRing>
2

>  <naHRing>
0

>  <nARing 2>
0

>  <nAHRing 2>
0

>  <nFRing>
0

>  <nFHRing>
0

>  <nFaRing>
0

>  <nFaHRing>
0

>  <nFARing 2>
0

>  <nFAHRing 2>
0

>  <nRot>
10

>  <SLogP>
2.11

>  <SMR>
118.63

>  <TopoPSA(NO)>
118.52

>  <TopoPSA>
118.52

>  <JGI1>
0.18

>  <JGI2>
0.1

>  <JGI3>
0.05

>  <JGI4>
0.04

>  <JGI5>
0.03

>  <Diameter>
17

>  <Radius>
9

>  <TMWC10>
136.25

>  <TSRW10>
65.02

>  <MW>
430.18

>  <AMW>
7.55

>  <WPath>
2761

>  <WPol>
45

>  <Zagreb1>
144

>  <Zagreb2>
164

>  <mZagreb2>
6.92

>  <yes>


>  <nAR-cont>
0.336376

>  <nHA-cont>
0.74523694

>  <MWHBN>
0.385713535

>  <MWHBN-cont>
0.532347285

>  <TPSA-cont>
0.172656804

>  <pka_cont>
0.97

>  <yes.1>


>  <BBB_SCORE>
2.710447474

>  <MMFF94 Energy>
106.23

$$$$
Compound 1294
Actelion Java MolfileCreator 2.0

  0  0  0  0  0  0              0 V3000
M  V30 BEGIN CTAB
M  V30 COUNTS 43 45 0 0 0
M  V30 BEGIN ATOM
M  V30 1 Cl -1.1369 -1.3806 -2.2748 0
M  V30 2 C -2.6506 -1.3807 -1.4487 0
M  V30 3 C -2.7763 -1.2604 -0.059 0
M  V30 4 C -3.8005 -1.4693 -2.2443 0
M  V30 5 C -1.6344 -1.1757 0.8877 0
M  V30 6 C -4.0598 -1.1972 0.5119 0
M  V30 7 C -5.0701 -1.4266 -1.6658 0
M  V30 8 O -1.7179 -0.4044 1.8411 0
M  V30 9 C -0.4649 -2.0829 0.7833 0
M  V30 10 C -5.2001 -1.2849 -0.2875 0
M  V30 11 C 0.8514 -1.619 0.9666 0
M  V30 12 C -0.6954 -3.4461 0.5412 0
M  V30 13 N 1.1543 -0.2568 1.2194 0
M  V30 14 C 1.9225 -2.5185 0.8754 0
M  V30 15 C 0.3819 -4.3263 0.4555 0
M  V30 16 C 1.5221 0.5642 0.1555 0
M  V30 17 C 1.0802 0.1841 2.607 0
M  V30 18 C 1.6878 -3.87 0.618 0
M  V30 19 Cl 0.0936 -5.9953 0.1522 0
M  V30 20 O 1.6869 0.138 -0.9925 0
M  V30 21 C 1.7822 2.0439 0.4863 0
M  V30 22 N 1.6637 2.8543 -0.7366 0
M  V30 23 C 2.2784 4.1727 -0.6027 0
M  V30 24 C 3.7343 4.3596 -0.9232 0
M  V30 25 C 2.6863 4.9131 -1.8451 0
M  V30 26 H -3.7129 -1.5593 -3.3252 0
M  V30 27 H -4.1729 -1.0787 1.5888 0
M  V30 28 H -5.9561 -1.4901 -2.2935 0
M  V30 29 H -6.1875 -1.2365 0.1661 0
M  V30 30 H -1.7061 -3.8281 0.4262 0
M  V30 31 H 2.9445 -2.1649 0.9891 0
M  V30 32 H 2.0371 0.6363 2.8852 0
M  V30 33 H 0.2972 0.9402 2.7102 0
M  V30 34 H 0.8714 -0.6518 3.2819 0
M  V30 35 H 2.5265 -4.5571 0.5417 0
M  V30 36 H 1.0594 2.4119 1.2185 0
M  V30 37 H 2.7925 2.1057 0.9065 0
M  V30 38 H 2.055 2.3121 -1.5133 0
M  V30 39 H 1.8645 4.7874 0.1949 0
M  V30 40 H 4.2988 5.0602 -0.319 0
M  V30 41 H 4.3085 3.5071 -1.2659 0
M  V30 42 H 2.5367 5.9864 -1.8633 0
M  V30 43 H 2.5443 4.4322 -2.8058 0
M  V30 END ATOM
M  V30 BEGIN BOND
M  V30 1 1 1 2
M  V30 2 2 2 3
M  V30 3 1 2 4
M  V30 4 1 3 5
M  V30 5 1 3 6
M  V30 6 2 4 7
M  V30 7 2 5 8
M  V30 8 1 5 9
M  V30 9 2 6 10
M  V30 10 2 9 11
M  V30 11 1 9 12
M  V30 12 1 11 13
M  V30 13 1 11 14
M  V30 14 2 12 15
M  V30 15 1 13 16
M  V30 16 1 13 17
M  V30 17 2 14 18
M  V30 18 1 15 19
M  V30 19 2 16 20
M  V30 20 1 16 21
M  V30 21 1 21 22
M  V30 22 1 22 23
M  V30 23 1 23 24
M  V30 24 1 23 25
M  V30 25 1 7 10
M  V30 26 1 15 18
M  V30 27 1 24 25
M  V30 28 1 4 26
M  V30 29 1 6 27
M  V30 30 1 7 28
M  V30 31 1 10 29
M  V30 32 1 12 30
M  V30 33 1 14 31
M  V30 34 1 17 32
M  V30 35 1 17 33
M  V30 36 1 17 34
M  V30 37 1 18 35
M  V30 38 1 21 36
M  V30 39 1 21 37
M  V30 40 1 22 38
M  V30 41 1 23 39
M  V30 42 1 24 40
M  V30 43 1 24 41
M  V30 44 1 25 42
M  V30 45 1 25 43
M  V30 END BOND
M  V30 END CTAB
M  END
>  <Column 1>
1548

>  <level_0>
1701

>  <index>
1701

>  <Unnamed: 0>
1701

>  <NO.>
1713

>  <Name>
ciprazafone

>  <IUPAC_name>
n-[4-chloro-2-(2-chlorobenzoyl)phenyl]-2-(cyclopropylamino)-n-methylacetamide

>  <SMILES>
CN(C(=O)CNC1CC1)c1ccc(Cl)cc1C(=O)c1ccccc1Cl

>  <CID>
193989

>  <logBB>


>  <BBB+/BBB->
BBB+

>  <Inchi>
InChI=1S/C19H18Cl2N2O2/c1-23(18(24)11-22-13-7-8-13)17-9-6-12(20)10-15(17)19(25)14-4-2-3-5-16(14)21/h2-6-9-10-13-22H-7-8-11H2-1H3

>  <threshold>
-1

>  <reference>
R1|R13|R19|R6|R24|R27|R27|R27|R30|R30|

>  <group>
B

>  <Class>
1

>  <ABC>
19.4

>  <ABCGG>
16.37

>  <nAcid>
0

>  <nBase>
1

>  <nAromAtom>
12

>  <nAromBond>
12

>  <nAtom>
43

>  <nHeavyAtom>
25

>  <nSpiro>
0

>  <nBridgehead>
0

>  <nHetero>
6

>  <nN>
2

>  <nO>
2

>  <nF>
0

>  <BalabanJ>
1.64

>  <BertzCT>
818.82

>  <nBonds>
45

>  <nBondsO>
27

>  <nBondsS>
31

>  <nBondsD>
2

>  <nBondsT>
0

>  <nBondsA>
12

>  <nBondsM>
14

>  <nBondsKS>
37

>  <nBondsKD>
8

>  <RNCG>
0.18

>  <RPCG>
0.14

>  <FCSP3>
0.26

>  <SZ>
32.67

>  <Sm>
31.41

>  <Sv>
29

>  <Sse>
43.51

>  <Sp>
31.08

>  <Si>
48.04

>  <MZ>
0.76

>  <Mm>
0.73

>  <Mv>
0.67

>  <Mse>
1.01

>  <Mp>
0.72

>  <Mi>
1.12

>  <NsCH3>
1

>  <NdCH2>
0

>  <NssCH2>
3

>  <NtCH>
0

>  <NdsCH>
0

>  <NaaCH>
7

>  <NsssCH>
1

>  <NddC>
0

>  <NtsC>
0

>  <NdssC>
2

>  <NaasC>
5

>  <NaaaC>
0

>  <NssssC>
0

>  <NsNH3>
0

>  <NsNH2>
0

>  <NssNH2>
0

>  <NdNH>
0

>  <NssNH>
1

>  <NaaNH>
0

>  <NtN>
0

>  <NsssNH>
0

>  <NdsN>
0

>  <NaaN>
0

>  <NsssN>
1

>  <NddsN>
0

>  <NaasN>
0

>  <NssssN>
0

>  <NsOH>
0

>  <NdO>
2

>  <NssO>
0

>  <NaaO>
0

>  <NsF>
0

>  <NsSiH3>
0

>  <NssSiH2>
0

>  <NsssSiH>
0

>  <NssssSi>
0

>  <NsPH2>
0

>  <NssPH>
0

>  <NsssP>
0

>  <NdsssP>
0

>  <NsssssP>
0

>  <NsSH>
0

>  <NdS>
0

>  <NssS>
0

>  <NaaS>
0

>  <NdssS>
0

>  <NddssS>
0

>  <NsCl>
2

>  <NsBr>
0

>  <NsI>
0

>  <fragCpx>
129.06

>  <fMF>
0.47

>  <nHBAcc>
3

>  <nHBDon>
1

>  <Kier1>
19.75

>  <Kier2>
8.79

>  <Lipinski>
1

>  <GhoseFilter>
1

>  <FilterItLogS>
-5.7

>  <VMcGowan>
267.77

>  <LabuteASA>
156.28

>  <PEOE_VSA1>
10.22

>  <PEOE_VSA2>
9.59

>  <PEOE_VSA3>
0

>  <PEOE_VSA4>
0

>  <PEOE_VSA5>
0

>  <PEOE_VSA6>
35.33

>  <PEOE_VSA7>
43.17

>  <PEOE_VSA8>
29.24

>  <PEOE_VSA9>
17.25

>  <PEOE_VSA10>
0

>  <PEOE_VSA11>
5.78

>  <PEOE_VSA12>
5.91

>  <PEOE_VSA13>
0

>  <SMR_VSA1>
9.59

>  <SMR_VSA2>
0

>  <SMR_VSA3>
5.32

>  <SMR_VSA4>
0

>  <SMR_VSA5>
18.88

>  <SMR_VSA6>
18.49

>  <SMR_VSA7>
63.64

>  <SMR_VSA8>
0

>  <SMR_VSA9>
0

>  <SlogP_VSA1>
10.22

>  <SlogP_VSA2>
31.32

>  <SlogP_VSA3>
4.79

>  <SlogP_VSA4>
0

>  <SlogP_VSA5>
28.76

>  <SlogP_VSA6>
42.46

>  <SlogP_VSA7>
10.05

>  <SlogP_VSA8>
0

>  <SlogP_VSA9>
0

>  <SlogP_VSA10>
5.69

>  <SlogP_VSA11>
0

>  <EState_VSA1>
0

>  <EState_VSA2>
18.24

>  <EState_VSA3>
32.9

>  <EState_VSA4>
12.84

>  <EState_VSA5>
4.9

>  <EState_VSA6>
49.51

>  <EState_VSA7>
0

>  <EState_VSA8>
5.32

>  <EState_VSA9>
23.2

>  <EState_VSA10>
9.59

>  <VSA_EState1>
0

>  <VSA_EState2>
26.86

>  <VSA_EState3>
3.98

>  <VSA_EState4>
1.24

>  <VSA_EState5>
-0.37

>  <VSA_EState6>
12.18

>  <VSA_EState7>
2.21

>  <VSA_EState8>
0.24

>  <VSA_EState9>
1.66

>  <apol>
51.9

>  <bpol>
23.09

>  <nRing>
3

>  <nHRing>
0

>  <naRing>
2

>  <naHRing>
0

>  <nARing 2>
1

>  <nAHRing 2>
0

>  <nFRing>
0

>  <nFHRing>
0

>  <nFaRing>
0

>  <nFaHRing>
0

>  <nFARing 2>
0

>  <nFAHRing 2>
0

>  <nRot>
6

>  <SLogP>
3.94

>  <SMR>
100.77

>  <TopoPSA(NO)>
49.41

>  <TopoPSA>
49.41

>  <JGI1>
0.19

>  <JGI2>
0.1

>  <JGI3>
0.06

>  <JGI4>
0.04

>  <JGI5>
0.03

>  <Diameter>
12

>  <Radius>
6

>  <TMWC10>
127.24

>  <TSRW10>
77.94

>  <MW>
376.07

>  <AMW>
8.75

>  <WPath>
1497

>  <WPol>
39

>  <Zagreb1>
130

>  <Zagreb2>
153

>  <mZagreb2>
5.5

>  <yes>


>  <nAR-cont>
0.816016

>  <nHA-cont>
0.921834225

>  <MWHBN>
0.20626505

>  <MWHBN-cont>
0.999916138

>  <TPSA-cont>
0.655087518

>  <pka_cont>
0.97

>  <yes.1>


>  <BBB_SCORE>
5.032899468

>  <MMFF94 Energy>
102.3

$$$$
Compound 1295
Actelion Java MolfileCreator 2.0

  0  0  0  0  0  0              0 V3000
M  V30 BEGIN CTAB
M  V30 COUNTS 50 52 0 0 0
M  V30 BEGIN ATOM
M  V30 1 Cl -0.1614 6.1492 4.1233 0
M  V30 2 C -1.1406 5.0159 3.2602 0
M  V30 3 C -2.4788 4.7779 3.5888 0
M  V30 4 C -0.5504 4.326 2.1948 0
M  V30 5 Cl -3.2758 5.5952 4.8862 0
M  V30 6 C -3.2188 3.8482 2.8533 0
M  V30 7 C -1.2911 3.3993 1.4456 0
M  V30 8 C -2.6284 3.161 1.7899 0
M  V30 9 C -0.6452 2.642 0.306 0
M  V30 10 C -0.0588 1.2882 0.703 0
M  V30 11 O -0.1923 0.842 1.8433 0
M  V30 12 N 0.626 0.5811 -0.2974 0
M  V30 13 C 1.2788 -0.7048 0.086 0
M  V30 14 C 0.9621 1.1817 -1.5851 0
M  V30 15 C 1.0724 -1.91 -0.9178 0 CFG=2
M  V30 16 C 2.7703 -0.4134 0.3555 0
M  V30 17 N -0.322 -2.4058 -1.0556 0
M  V30 18 C 1.9448 -3.1126 -0.4651 0
M  V30 19 C 3.5377 -1.6458 0.8022 0
M  V30 20 C -0.4988 -3.3815 -2.1408 0
M  V30 21 C -1.3586 -1.4015 -1.2705 0
M  V30 22 C 3.4061 -2.7527 -0.2271 0
M  V30 23 C -1.9957 -3.4011 -2.4289 0
M  V30 24 C -2.5692 -2.2439 -1.6316 0
M  V30 25 H 0.495 4.5068 1.9538 0
M  V30 26 H -4.2565 3.6469 3.1084 0
M  V30 27 H -3.2161 2.4271 1.2414 0
M  V30 28 H -1.395 2.4806 -0.478 0
M  V30 29 H 0.1478 3.2655 -0.1232 0
M  V30 30 H 0.8463 -1.035 1.0399 0
M  V30 31 H 1.1687 0.4212 -2.3381 0
M  V30 32 H 1.8455 1.8132 -1.4522 0
M  V30 33 H 0.142 1.801 -1.9544 0
M  V30 34 H 1.4352 -1.598 -1.9043 0
M  V30 35 H 2.8636 0.3648 1.1234 0
M  V30 36 H 3.2433 -0.0114 -0.5495 0
M  V30 37 H 1.5298 -3.541 0.4574 0
M  V30 38 H 1.9265 -3.908 -1.2189 0
M  V30 39 H 4.5949 -1.3927 0.9404 0
M  V30 40 H 3.1599 -1.9888 1.773 0
M  V30 41 H -0.1581 -4.3807 -1.852 0
M  V30 42 H 0.0396 -3.0794 -3.0476 0
M  V30 43 H -1.1131 -0.7327 -2.1032 0
M  V30 44 H -1.5775 -0.817 -0.374 0
M  V30 45 H 3.8676 -2.4413 -1.1721 0
M  V30 46 H 3.9501 -3.6398 0.117 0
M  V30 47 H -2.1808 -3.2655 -3.5002 0
M  V30 48 H -2.4572 -4.3462 -2.1233 0
M  V30 49 H -3.0534 -2.6238 -0.7233 0
M  V30 50 H -3.3151 -1.6791 -2.199 0
M  V30 END ATOM
M  V30 BEGIN BOND
M  V30 1 1 1 2
M  V30 2 2 2 3
M  V30 3 1 2 4
M  V30 4 1 3 5
M  V30 5 1 3 6
M  V30 6 2 4 7
M  V30 7 2 6 8
M  V30 8 1 7 9
M  V30 9 1 9 10
M  V30 10 2 10 11
M  V30 11 1 10 12
M  V30 12 1 12 13
M  V30 13 1 12 14
M  V30 14 1 13 15
M  V30 15 1 13 16
M  V30 16 1 15 17
M  V30 17 1 15 18
M  V30 18 1 16 19
M  V30 19 1 17 20
M  V30 20 1 17 21
M  V30 21 1 18 22
M  V30 22 1 20 23
M  V30 23 1 21 24
M  V30 24 1 7 8
M  V30 25 1 19 22
M  V30 26 1 23 24
M  V30 27 1 4 25
M  V30 28 1 6 26
M  V30 29 1 8 27
M  V30 30 1 9 28
M  V30 31 1 9 29
M  V30 32 1 13 30
M  V30 33 1 14 31
M  V30 34 1 14 32
M  V30 35 1 14 33
M  V30 36 1 15 34
M  V30 37 1 16 35
M  V30 38 1 16 36
M  V30 39 1 18 37
M  V30 40 1 18 38
M  V30 41 1 19 39
M  V30 42 1 19 40
M  V30 43 1 20 41
M  V30 44 1 20 42
M  V30 45 1 21 43
M  V30 46 1 21 44
M  V30 47 1 22 45
M  V30 48 1 22 46
M  V30 49 1 23 47
M  V30 50 1 23 48
M  V30 51 1 24 49
M  V30 52 1 24 50
M  V30 END BOND
M  V30 BEGIN COLLECTION
M  V30 MDLV30/STEABS ATOMS=(1 15)
M  V30 END COLLECTION
M  V30 END CTAB
M  END
>  <Column 1>
1549

>  <level_0>
1702

>  <index>
1702

>  <Unnamed: 0>
1702

>  <NO.>
1714

>  <Name>
u50488

>  <IUPAC_name>
2-(3-4-dichlorophenyl)-n-methyl-n-[(2r)-2-pyrrolidin-1-ylcyclohexyl]acetamide

>  <SMILES>
CN(C(=O)Cc1ccc(Cl)c(Cl)c1)C1CCCC[C@H]1N1CCCC1

>  <CID>
68616

>  <logBB>


>  <BBB+/BBB->
BBB+

>  <Inchi>
InChI=1S/C19H26Cl2N2O/c1-22(19(24)13-14-8-9-15(20)16(21)12-14)17-6-2-3-7-18(17)23-10-4-5-11-23/h8-9-12-17-18H-2-7-10-11-13H2-1H3/t17?-18-/m1/s1

>  <threshold>
-1

>  <reference>
R1|R27|R30|

>  <group>
B

>  <Class>
1

>  <ABC>
18.62

>  <ABCGG>
15.7

>  <nAcid>
0

>  <nBase>
1

>  <nAromAtom>
6

>  <nAromBond>
6

>  <nAtom>
50

>  <nHeavyAtom>
24

>  <nSpiro>
0

>  <nBridgehead>
0

>  <nHetero>
5

>  <nN>
2

>  <nO>
1

>  <nF>
0

>  <BalabanJ>
1.55

>  <BertzCT>
586.73

>  <nBonds>
52

>  <nBondsO>
26

>  <nBondsS>
45

>  <nBondsD>
1

>  <nBondsT>
0

>  <nBondsA>
6

>  <nBondsM>
7

>  <nBondsKS>
48

>  <nBondsKD>
4

>  <RNCG>
0.23

>  <RPCG>
0.15

>  <FCSP3>
0.63

>  <SZ>
32.67

>  <Sm>
30.75

>  <Sv>
30.46

>  <Sse>
49.73

>  <Sp>
33.79

>  <Si>
56.49

>  <MZ>
0.65

>  <Mm>
0.61

>  <Mv>
0.61

>  <Mse>
0.99

>  <Mp>
0.68

>  <Mi>
1.13

>  <NsCH3>
1

>  <NdCH2>
0

>  <NssCH2>
9

>  <NtCH>
0

>  <NdsCH>
0

>  <NaaCH>
3

>  <NsssCH>
2

>  <NddC>
0

>  <NtsC>
0

>  <NdssC>
1

>  <NaasC>
3

>  <NaaaC>
0

>  <NssssC>
0

>  <NsNH3>
0

>  <NsNH2>
0

>  <NssNH2>
0

>  <NdNH>
0

>  <NssNH>
0

>  <NaaNH>
0

>  <NtN>
0

>  <NsssNH>
0

>  <NdsN>
0

>  <NaaN>
0

>  <NsssN>
2

>  <NddsN>
0

>  <NaasN>
0

>  <NssssN>
0

>  <NsOH>
0

>  <NdO>
1

>  <NssO>
0

>  <NaaO>
0

>  <NsF>
0

>  <NsSiH3>
0

>  <NssSiH2>
0

>  <NsssSiH>
0

>  <NssssSi>
0

>  <NsPH2>
0

>  <NssPH>
0

>  <NsssP>
0

>  <NdsssP>
0

>  <NsssssP>
0

>  <NsSH>
0

>  <NdS>
0

>  <NssS>
0

>  <NaaS>
0

>  <NdssS>
0

>  <NddssS>
0

>  <NsCl>
2

>  <NsBr>
0

>  <NsI>
0

>  <fragCpx>
124.05

>  <fMF>
0.4

>  <nHBAcc>
2

>  <nHBDon>
0

>  <Kier1>
18.78

>  <Kier2>
8.59

>  <Lipinski>
1

>  <GhoseFilter>
1

>  <FilterItLogS>
-4.85

>  <VMcGowan>
279.1

>  <LabuteASA>
154.45

>  <PEOE_VSA1>
4.9

>  <PEOE_VSA2>
9.69

>  <PEOE_VSA3>
0

>  <PEOE_VSA4>
0

>  <PEOE_VSA5>
0

>  <PEOE_VSA6>
42.11

>  <PEOE_VSA7>
56.47

>  <PEOE_VSA8>
19.13

>  <PEOE_VSA9>
16.47

>  <PEOE_VSA10>
0

>  <PEOE_VSA11>
0

>  <PEOE_VSA12>
5.91

>  <PEOE_VSA13>
0

>  <SMR_VSA1>
4.79

>  <SMR_VSA2>
0

>  <SMR_VSA3>
9.8

>  <SMR_VSA4>
0

>  <SMR_VSA5>
57.03

>  <SMR_VSA6>
20.14

>  <SMR_VSA7>
33.81

>  <SMR_VSA8>
0

>  <SMR_VSA9>
0

>  <SlogP_VSA1>
0

>  <SlogP_VSA2>
47.93

>  <SlogP_VSA3>
11.22

>  <SlogP_VSA4>
0

>  <SlogP_VSA5>
44.09

>  <SlogP_VSA6>
18.2

>  <SlogP_VSA7>
10.05

>  <SlogP_VSA8>
0

>  <SlogP_VSA9>
0

>  <SlogP_VSA10>
0

>  <SlogP_VSA11>
0

>  <EState_VSA1>
0

>  <EState_VSA2>
5.91

>  <EState_VSA3>
28.55

>  <EState_VSA4>
11.98

>  <EState_VSA5>
45.19

>  <EState_VSA6>
12.13

>  <EState_VSA7>
18.01

>  <EState_VSA8>
4.9

>  <EState_VSA9>
23.2

>  <EState_VSA10>
4.79

>  <VSA_EState1>
0

>  <VSA_EState2>
17.39

>  <VSA_EState3>
1.04

>  <VSA_EState4>
0.93

>  <VSA_EState5>
0.17

>  <VSA_EState6>
6.32

>  <VSA_EState7>
7.82

>  <VSA_EState8>
2.38

>  <VSA_EState9>
1.97

>  <apol>
56.43

>  <bpol>
31.39

>  <nRing>
3

>  <nHRing>
1

>  <naRing>
1

>  <naHRing>
0

>  <nARing 2>
2

>  <nAHRing 2>
1

>  <nFRing>
0

>  <nFHRing>
0

>  <nFaRing>
0

>  <nFaHRing>
0

>  <nFARing 2>
0

>  <nFAHRing 2>
0

>  <nRot>
4

>  <SLogP>
4.4

>  <SMR>
99.79

>  <TopoPSA(NO)>
23.55

>  <TopoPSA>
23.55

>  <JGI1>
0.17

>  <JGI2>
0.09

>  <JGI3>
0.05

>  <JGI4>
0.04

>  <JGI5>
0.03

>  <Diameter>
12

>  <Radius>
6

>  <TMWC10>
124.51

>  <TSRW10>
71.57

>  <MW>
368.14

>  <AMW>
7.36

>  <WPath>
1389

>  <WPol>
36

>  <Zagreb1>
124

>  <Zagreb2>
145

>  <mZagreb2>
5.31

>  <yes>


>  <nAR-cont>
1

>  <nHA-cont>
0.94700071

>  <MWHBN>
0.104237381

>  <MWHBN-cont>
0.753731516

>  <TPSA-cont>
0.835606376

>  <pka_cont>
0.97

>  <yes.1>


>  <BBB_SCORE>
5.233810736

>  <MMFF94 Energy>
70.72

$$$$
Compound 1296
Actelion Java MolfileCreator 2.0

  0  0  0  0  0  0              0 V3000
M  V30 BEGIN CTAB
M  V30 COUNTS 50 52 0 0 0
M  V30 BEGIN ATOM
M  V30 1 Cl 5.7431 -1.7769 -4.0418 0
M  V30 2 C 4.128 -2.2296 -3.6247 0
M  V30 3 C 3.4799 -3.321 -4.2113 0
M  V30 4 C 3.4634 -1.4581 -2.6643 0
M  V30 5 Cl 4.2334 -4.3154 -5.4068 0
M  V30 6 C 2.1727 -3.6376 -3.8318 0
M  V30 7 C 2.147 -1.7646 -2.2864 0
M  V30 8 C 1.5105 -2.8663 -2.8733 0
M  V30 9 C 1.438 -0.9385 -1.2353 0
M  V30 10 C 1.5879 -1.4704 0.1887 0
M  V30 11 O 2.3482 -2.4072 0.4407 0
M  V30 12 N 0.8375 -0.8483 1.1882 0
M  V30 13 C -0.0934 0.2932 0.9614 0 CFG=2
M  V30 14 C 0.9404 -1.375 2.5476 0
M  V30 15 C 0.1422 1.4151 1.9712 0
M  V30 16 C -1.5571 -0.2479 0.8117 0
M  V30 17 C -0.7898 1.7753 2.9553 0
M  V30 18 C 1.3622 2.1175 1.9258 0
M  V30 19 N -2.5677 0.7342 0.3899 0
M  V30 20 C -0.5142 2.8047 3.8599 0
M  V30 21 C 1.6371 3.1442 2.8311 0
M  V30 22 C -3.9138 0.1589 0.3525 0
M  V30 23 C -2.3495 1.2769 -0.9513 0
M  V30 24 C 0.6974 3.4879 3.7983 0
M  V30 25 C -4.7077 1.2165 -0.3949 0
M  V30 26 C -3.696 1.8889 -1.3155 0
M  V30 27 H 3.979 -0.6192 -2.2009 0
M  V30 28 H 1.6644 -4.4908 -4.2749 0
M  V30 29 H 0.4984 -3.1396 -2.581 0
M  V30 30 H 1.8279 0.086 -1.2661 0
M  V30 31 H 0.3745 -0.8938 -1.4963 0
M  V30 32 H 0.1573 0.7404 -0.0048 0
M  V30 33 H 1.4399 -2.347 2.5754 0
M  V30 34 H -0.0593 -1.4958 2.9729 0
M  V30 35 H 1.5198 -0.6777 3.1592 0
M  V30 36 H -1.8706 -0.6769 1.7723 0
M  V30 37 H -1.5463 -1.0883 0.1035 0
M  V30 38 H -1.7497 1.2712 3.0327 0
M  V30 39 H 2.1144 1.858 1.1835 0
M  V30 40 H -1.251 3.0743 4.6126 0
M  V30 41 H 2.5855 3.6728 2.7822 0
M  V30 42 H -4.3181 -0.0131 1.355 0
M  V30 43 H -3.935 -0.7873 -0.203 0
M  V30 44 H -1.5575 2.0319 -0.9713 0
M  V30 45 H -2.0972 0.4869 -1.6699 0
M  V30 46 H 0.9083 4.2874 4.5035 0
M  V30 47 H -5.1189 1.955 0.3038 0
M  V30 48 H -5.5427 0.7813 -0.9528 0
M  V30 49 H -3.6968 2.9715 -1.144 0
M  V30 50 H -3.9357 1.7155 -2.3697 0
M  V30 END ATOM
M  V30 BEGIN BOND
M  V30 1 1 1 2
M  V30 2 2 2 3
M  V30 3 1 2 4
M  V30 4 1 3 5
M  V30 5 1 3 6
M  V30 6 2 4 7
M  V30 7 2 6 8
M  V30 8 1 7 9
M  V30 9 1 9 10
M  V30 10 2 10 11
M  V30 11 1 10 12
M  V30 12 1 12 13
M  V30 13 1 12 14
M  V30 14 1 13 15
M  V30 15 1 13 16
M  V30 16 2 15 17
M  V30 17 1 15 18
M  V30 18 1 16 19
M  V30 19 1 17 20
M  V30 20 2 18 21
M  V30 21 1 19 22
M  V30 22 1 19 23
M  V30 23 2 20 24
M  V30 24 1 22 25
M  V30 25 1 23 26
M  V30 26 1 7 8
M  V30 27 1 21 24
M  V30 28 1 25 26
M  V30 29 1 4 27
M  V30 30 1 6 28
M  V30 31 1 8 29
M  V30 32 1 9 30
M  V30 33 1 9 31
M  V30 34 1 13 32
M  V30 35 1 14 33
M  V30 36 1 14 34
M  V30 37 1 14 35
M  V30 38 1 16 36
M  V30 39 1 16 37
M  V30 40 1 17 38
M  V30 41 1 18 39
M  V30 42 1 20 40
M  V30 43 1 21 41
M  V30 44 1 22 42
M  V30 45 1 22 43
M  V30 46 1 23 44
M  V30 47 1 23 45
M  V30 48 1 24 46
M  V30 49 1 25 47
M  V30 50 1 25 48
M  V30 51 1 26 49
M  V30 52 1 26 50
M  V30 END BOND
M  V30 BEGIN COLLECTION
M  V30 MDLV30/STEABS ATOMS=(1 13)
M  V30 END COLLECTION
M  V30 END CTAB
M  END
>  <Column 1>
1550

>  <level_0>
1703

>  <index>
1703

>  <Unnamed: 0>
1703

>  <NO.>
1715

>  <Name>
chembl106345

>  <IUPAC_name>
2-(3-4-dichlorophenyl)-n-methyl-n-[(1r)-1-phenyl-2-pyrrolidin-1-ylethyl]acetamide

>  <SMILES>
CN(C(=O)Cc1ccc(Cl)c(Cl)c1)[C@@H](CN1CCCC1)c1ccccc1

>  <CID>
14804469

>  <logBB>


>  <BBB+/BBB->
BBB+

>  <Inchi>
InChI=1S/C21H24Cl2N2O/c1-24(21(26)14-16-9-10-18(22)19(23)13-16)20(15-25-11-5-6-12-25)17-7-3-2-4-8-17/h2-4-7-10-13-20H-5-6-11-12-14-15H2-1H3/t20-/m0/s1

>  <threshold>
-1

>  <reference>
R1|R28|R9|R24|R27|R30|

>  <group>
B

>  <Class>
1

>  <ABC>
20.07

>  <ABCGG>
16.89

>  <nAcid>
0

>  <nBase>
1

>  <nAromAtom>
12

>  <nAromBond>
12

>  <nAtom>
50

>  <nHeavyAtom>
26

>  <nSpiro>
0

>  <nBridgehead>
0

>  <nHetero>
5

>  <nN>
2

>  <nO>
1

>  <nF>
0

>  <BalabanJ>
1.58

>  <BertzCT>
744.93

>  <nBonds>
52

>  <nBondsO>
28

>  <nBondsS>
39

>  <nBondsD>
1

>  <nBondsT>
0

>  <nBondsA>
12

>  <nBondsM>
13

>  <nBondsKS>
45

>  <nBondsKD>
7

>  <RNCG>
0.2

>  <RPCG>
0.14

>  <FCSP3>
0.38

>  <SZ>
34.33

>  <Sm>
32.58

>  <Sv>
31.91

>  <Sse>
49.84

>  <Sp>
34.99

>  <Si>
56.08

>  <MZ>
0.69

>  <Mm>
0.65

>  <Mv>
0.64

>  <Mse>
1

>  <Mp>
0.7

>  <Mi>
1.12

>  <NsCH3>
1

>  <NdCH2>
0

>  <NssCH2>
6

>  <NtCH>
0

>  <NdsCH>
0

>  <NaaCH>
8

>  <NsssCH>
1

>  <NddC>
0

>  <NtsC>
0

>  <NdssC>
1

>  <NaasC>
4

>  <NaaaC>
0

>  <NssssC>
0

>  <NsNH3>
0

>  <NsNH2>
0

>  <NssNH2>
0

>  <NdNH>
0

>  <NssNH>
0

>  <NaaNH>
0

>  <NtN>
0

>  <NsssNH>
0

>  <NdsN>
0

>  <NaaN>
0

>  <NsssN>
2

>  <NddsN>
0

>  <NaasN>
0

>  <NssssN>
0

>  <NsOH>
0

>  <NdO>
1

>  <NssO>
0

>  <NaaO>
0

>  <NsF>
0

>  <NsSiH3>
0

>  <NssSiH2>
0

>  <NsssSiH>
0

>  <NssssSi>
0

>  <NsPH2>
0

>  <NssPH>
0

>  <NsssP>
0

>  <NdsssP>
0

>  <NsssssP>
0

>  <NsSH>
0

>  <NdS>
0

>  <NssS>
0

>  <NaaS>
0

>  <NdssS>
0

>  <NddssS>
0

>  <NsCl>
2

>  <NsBr>
0

>  <NsI>
0

>  <fragCpx>
134.05

>  <fMF>
0.44

>  <nHBAcc>
2

>  <nHBDon>
0

>  <Kier1>
20.73

>  <Kier2>
9.97

>  <Lipinski>
1

>  <GhoseFilter>
1

>  <FilterItLogS>
-5.84

>  <VMcGowan>
294.38

>  <LabuteASA>
165.05

>  <PEOE_VSA1>
9.8

>  <PEOE_VSA2>
4.79

>  <PEOE_VSA3>
0

>  <PEOE_VSA4>
0

>  <PEOE_VSA5>
0

>  <PEOE_VSA6>
59.6

>  <PEOE_VSA7>
49.19

>  <PEOE_VSA8>
13.59

>  <PEOE_VSA9>
22.51

>  <PEOE_VSA10>
0

>  <PEOE_VSA11>
0

>  <PEOE_VSA12>
5.91

>  <PEOE_VSA13>
0

>  <SMR_VSA1>
4.79

>  <SMR_VSA2>
0

>  <SMR_VSA3>
9.8

>  <SMR_VSA4>
0

>  <SMR_VSA5>
25.3

>  <SMR_VSA6>
26.68

>  <SMR_VSA7>
69.7

>  <SMR_VSA8>
0

>  <SMR_VSA9>
0

>  <SlogP_VSA1>
0

>  <SlogP_VSA2>
42.39

>  <SlogP_VSA3>
11.22

>  <SlogP_VSA4>
0

>  <SlogP_VSA5>
30.01

>  <SlogP_VSA6>
48.53

>  <SlogP_VSA7>
10.05

>  <SlogP_VSA8>
0

>  <SlogP_VSA9>
0

>  <SlogP_VSA10>
0

>  <SlogP_VSA11>
0

>  <EState_VSA1>
0

>  <EState_VSA2>
11.95

>  <EState_VSA3>
16.47

>  <EState_VSA4>
25.2

>  <EState_VSA5>
18.41

>  <EState_VSA6>
12.13

>  <EState_VSA7>
36.21

>  <EState_VSA8>
17.03

>  <EState_VSA9>
23.2

>  <EState_VSA10>
4.79

>  <VSA_EState1>
0

>  <VSA_EState2>
17.24

>  <VSA_EState3>
0.99

>  <VSA_EState4>
2.05

>  <VSA_EState5>
0.08

>  <VSA_EState6>
15.69

>  <VSA_EState7>
2.79

>  <VSA_EState8>
3.09

>  <VSA_EState9>
1.9

>  <apol>
58.44

>  <bpol>
29.38

>  <nRing>
3

>  <nHRing>
1

>  <naRing>
2

>  <naHRing>
0

>  <nARing 2>
1

>  <nAHRing 2>
1

>  <nFRing>
0

>  <nFHRing>
0

>  <nFaRing>
0

>  <nFaHRing>
0

>  <nFARing 2>
0

>  <nFAHRing 2>
0

>  <nRot>
6

>  <SLogP>
4.83

>  <SMR>
107.79

>  <TopoPSA(NO)>
23.55

>  <TopoPSA>
23.55

>  <JGI1>
0.18

>  <JGI2>
0.08

>  <JGI3>
0.05

>  <JGI4>
0.04

>  <JGI5>
0.02

>  <Diameter>
12

>  <Radius>
6

>  <TMWC10>
128.59

>  <TSRW10>
73.7

>  <MW>
390.13

>  <AMW>
7.8

>  <WPath>
1722

>  <WPol>
37

>  <Zagreb1>
132

>  <Zagreb2>
152

>  <mZagreb2>
5.78

>  <yes>


>  <nAR-cont>
0.816016

>  <nHA-cont>
0.892715677

>  <MWHBN>
0.101257062

>  <MWHBN-cont>
0.737666911

>  <TPSA-cont>
0.835606376

>  <pka_cont>
0.97

>  <yes.1>


>  <BBB_SCORE>
4.971444797

>  <MMFF94 Energy>
91.756

$$$$
Compound 1297
Actelion Java MolfileCreator 2.0

  0  0  0  0  0  0              0 V3000
M  V30 BEGIN CTAB
M  V30 COUNTS 58 61 0 0 0
M  V30 BEGIN ATOM
M  V30 1 Cl -0.8091 4.3754 -3.2396 0
M  V30 2 C 0.8012 3.7946 -3.0027 0
M  V30 3 C 1.9102 4.6457 -2.9712 0
M  V30 4 C 0.9778 2.4175 -2.8371 0
M  V30 5 Cl 1.7722 6.3565 -3.1724 0
M  V30 6 C 3.1879 4.1151 -2.7697 0
M  V30 7 C 2.2589 1.8788 -2.6363 0
M  V30 8 C 3.362 2.7393 -2.6004 0
M  V30 9 C 2.4252 0.3879 -2.4341 0
M  V30 10 C 1.942 -0.0783 -1.0623 0
M  V30 11 O 2.1097 0.627 -0.0644 0
M  V30 12 N 1.3009 -1.3134 -0.9972 0
M  V30 13 C 0.4661 -1.6441 0.1804 0 CFG=2
M  V30 14 C 1.3293 -2.2948 -2.0703 0
M  V30 15 C -0.6443 -0.5741 0.4832 0 CFG=1
M  V30 16 C 1.3325 -1.9514 1.4137 0
M  V30 17 N -1.4347 -0.2638 -0.7288 0
M  V30 18 C -1.4693 -1.0227 1.7063 0
M  V30 19 C 0.4855 -2.3096 2.6307 0
M  V30 20 C -2.4054 -1.2611 -1.1638 0
M  V30 21 C -2.1727 0.9964 -0.6564 0
M  V30 22 C -0.5925 -1.2584 2.945 0 CFG=2
M  V30 23 C -3.1226 -0.5267 -2.2858 0
M  V30 24 C -3.0745 0.9439 -1.8836 0
M  V30 25 O -1.429 -1.8089 3.9886 0
M  V30 26 C -0.0199 0.0413 3.5208 0
M  V30 27 C -1.2248 -1.0661 5.1984 0
M  V30 28 C 0.0257 -0.2418 5.0022 0
M  V30 29 H 0.1122 1.7571 -2.8493 0
M  V30 30 H 4.0549 4.7706 -2.735 0
M  V30 31 H 4.3623 2.3476 -2.4272 0
M  V30 32 H 1.8709 -0.1017 -3.241 0
M  V30 33 H 3.4765 0.0957 -2.5373 0
M  V30 34 H -0.0597 -2.5777 -0.0664 0
M  V30 35 H 2.1999 -2.1577 -2.7154 0
M  V30 36 H 0.4142 -2.1965 -2.6605 0
M  V30 37 H 1.3874 -3.3004 -1.6429 0
M  V30 38 H -0.1357 0.3558 0.7633 0
M  V30 39 H 1.9808 -1.1054 1.6619 0
M  V30 40 H 2.0069 -2.7866 1.1866 0
M  V30 41 H -2.0081 -1.9538 1.4861 0
M  V30 42 H -2.248 -0.2896 1.9494 0
M  V30 43 H 1.1357 -2.4706 3.4991 0
M  V30 44 H 1.0E-4 -3.2798 2.4567 0
M  V30 45 H -3.1283 -1.5156 -0.3806 0
M  V30 46 H -1.9392 -2.1808 -1.528 0
M  V30 47 H -2.7901 1.0653 0.2462 0
M  V30 48 H -1.5081 1.8654 -0.6871 0
M  V30 49 H -2.5927 -0.6666 -3.2359 0
M  V30 50 H -4.1492 -0.882 -2.4181 0
M  V30 51 H -4.074 1.3272 -1.6525 0
M  V30 52 H -2.6655 1.5434 -2.7043 0
M  V30 53 H -0.7076 0.8782 3.3437 0
M  V30 54 H 0.9538 0.3264 3.1152 0
M  V30 55 H -2.1013 -0.4264 5.3483 0
M  V30 56 H -1.1471 -1.7543 6.0445 0
M  V30 57 H 0.0411 0.6601 5.6198 0
M  V30 58 H 0.9135 -0.836 5.2457 0
M  V30 END ATOM
M  V30 BEGIN BOND
M  V30 1 1 1 2
M  V30 2 2 2 3
M  V30 3 1 2 4
M  V30 4 1 3 5
M  V30 5 1 3 6
M  V30 6 2 4 7
M  V30 7 2 6 8
M  V30 8 1 7 9
M  V30 9 1 9 10
M  V30 10 2 10 11
M  V30 11 1 10 12
M  V30 12 1 12 13
M  V30 13 1 12 14
M  V30 14 1 13 15
M  V30 15 1 13 16
M  V30 16 1 15 17
M  V30 17 1 15 18
M  V30 18 1 16 19
M  V30 19 1 17 20
M  V30 20 1 17 21
M  V30 21 1 18 22
M  V30 22 1 20 23
M  V30 23 1 21 24
M  V30 24 1 22 25
M  V30 25 1 22 26
M  V30 26 1 25 27
M  V30 27 1 26 28
M  V30 28 1 7 8
M  V30 29 1 19 22
M  V30 30 1 23 24
M  V30 31 1 27 28
M  V30 32 1 4 29
M  V30 33 1 6 30
M  V30 34 1 8 31
M  V30 35 1 9 32
M  V30 36 1 9 33
M  V30 37 1 13 34
M  V30 38 1 14 35
M  V30 39 1 14 36
M  V30 40 1 14 37
M  V30 41 1 15 38
M  V30 42 1 16 39
M  V30 43 1 16 40
M  V30 44 1 18 41
M  V30 45 1 18 42
M  V30 46 1 19 43
M  V30 47 1 19 44
M  V30 48 1 20 45
M  V30 49 1 20 46
M  V30 50 1 21 47
M  V30 51 1 21 48
M  V30 52 1 23 49
M  V30 53 1 23 50
M  V30 54 1 24 51
M  V30 55 1 24 52
M  V30 56 1 26 53
M  V30 57 1 26 54
M  V30 58 1 27 55
M  V30 59 1 27 56
M  V30 60 1 28 57
M  V30 61 1 28 58
M  V30 END BOND
M  V30 BEGIN COLLECTION
M  V30 MDLV30/STEABS ATOMS=(3 13 15 22)
M  V30 END COLLECTION
M  V30 END CTAB
M  END
>  <Column 1>
1551

>  <level_0>
1704

>  <index>
1704

>  <Unnamed: 0>
1704

>  <NO.>
1716

>  <Name>
spiradoline

>  <IUPAC_name>
2-(3-4-dichlorophenyl)-n-methyl-n-[(5r-7s-8s)-7-pyrrolidin-1-yl-1-oxaspiro[4.5]decan-8-yl]acetamide

>  <SMILES>
CN(C(=O)Cc1ccc(Cl)c(Cl)c1)[C@H]1CC[C@@]2(CCCO2)C[C@@H]1N1CCCC1

>  <CID>
55652

>  <logBB>


>  <BBB+/BBB->
BBB+

>  <Inchi>
InChI=1S/C22H30Cl2N2O2/c1-25(21(27)14-16-5-6-17(23)18(24)13-16)19-7-9-22(8-4-12-28-22)15-20(19)26-10-2-3-11-26/h5-6-13-19-20H-2-4-7-12-14-15H2-1H3/t19--20--22-/m0/s1

>  <threshold>
-1

>  <reference>
R1|R7|R6|R27|R29|R30|

>  <group>
B

>  <Class>
-1

>  <ABC>
22.16

>  <ABCGG>
18.36

>  <nAcid>
0

>  <nBase>
1

>  <nAromAtom>
6

>  <nAromBond>
6

>  <nAtom>
58

>  <nHeavyAtom>
28

>  <nSpiro>
1

>  <nBridgehead>
0

>  <nHetero>
6

>  <nN>
2

>  <nO>
2

>  <nF>
0

>  <BalabanJ>
1.4

>  <BertzCT>
714.49

>  <nBonds>
61

>  <nBondsO>
31

>  <nBondsS>
54

>  <nBondsD>
1

>  <nBondsT>
0

>  <nBondsA>
6

>  <nBondsM>
7

>  <nBondsKS>
57

>  <nBondsKD>
4

>  <RNCG>
0.21

>  <RPCG>
0.12

>  <FCSP3>
0.68

>  <SZ>
37.67

>  <Sm>
35.42

>  <Sv>
35.25

>  <Sse>
57.84

>  <Sp>
38.87

>  <Si>
65.53

>  <MZ>
0.65

>  <Mm>
0.61

>  <Mv>
0.61

>  <Mse>
1

>  <Mp>
0.67

>  <Mi>
1.13

>  <NsCH3>
1

>  <NdCH2>
0

>  <NssCH2>
11

>  <NtCH>
0

>  <NdsCH>
0

>  <NaaCH>
3

>  <NsssCH>
2

>  <NddC>
0

>  <NtsC>
0

>  <NdssC>
1

>  <NaasC>
3

>  <NaaaC>
0

>  <NssssC>
1

>  <NsNH3>
0

>  <NsNH2>
0

>  <NssNH2>
0

>  <NdNH>
0

>  <NssNH>
0

>  <NaaNH>
0

>  <NtN>
0

>  <NsssNH>
0

>  <NdsN>
0

>  <NaaN>
0

>  <NsssN>
2

>  <NddsN>
0

>  <NaasN>
0

>  <NssssN>
0

>  <NsOH>
0

>  <NdO>
1

>  <NssO>
1

>  <NaaO>
0

>  <NsF>
0

>  <NsSiH3>
0

>  <NssSiH2>
0

>  <NsssSiH>
0

>  <NssssSi>
0

>  <NsPH2>
0

>  <NssPH>
0

>  <NsssP>
0

>  <NdsssP>
0

>  <NsssssP>
0

>  <NsSH>
0

>  <NdS>
0

>  <NssS>
0

>  <NaaS>
0

>  <NdssS>
0

>  <NddssS>
0

>  <NsCl>
2

>  <NsBr>
0

>  <NsI>
0

>  <fragCpx>
205.06

>  <fMF>
0.41

>  <nHBAcc>
3

>  <nHBDon>
0

>  <Kier1>
21.24

>  <Kier2>
9.01

>  <Lipinski>
1

>  <GhoseFilter>
1

>  <FilterItLogS>
-5.36

>  <VMcGowan>
316.38

>  <LabuteASA>
177.65

>  <PEOE_VSA1>
9.64

>  <PEOE_VSA2>
9.69

>  <PEOE_VSA3>
0

>  <PEOE_VSA4>
0

>  <PEOE_VSA5>
0

>  <PEOE_VSA6>
29.27

>  <PEOE_VSA7>
75.73

>  <PEOE_VSA8>
25.74

>  <PEOE_VSA9>
22.07

>  <PEOE_VSA10>
0

>  <PEOE_VSA11>
0

>  <PEOE_VSA12>
5.91

>  <PEOE_VSA13>
0

>  <SMR_VSA1>
9.53

>  <SMR_VSA2>
0

>  <SMR_VSA3>
9.8

>  <SMR_VSA4>
0

>  <SMR_VSA5>
69.05

>  <SMR_VSA6>
26.74

>  <SMR_VSA7>
33.81

>  <SMR_VSA8>
0

>  <SMR_VSA9>
0

>  <SlogP_VSA1>
0

>  <SlogP_VSA2>
60.14

>  <SlogP_VSA3>
15.95

>  <SlogP_VSA4>
0

>  <SlogP_VSA5>
50.51

>  <SlogP_VSA6>
18.2

>  <SlogP_VSA7>
10.05

>  <SlogP_VSA8>
0

>  <SlogP_VSA9>
0

>  <SlogP_VSA10>
0

>  <SlogP_VSA11>
0

>  <EState_VSA1>
0

>  <EState_VSA2>
17.55

>  <EState_VSA3>
22.51

>  <EState_VSA4>
44.52

>  <EState_VSA5>
25.68

>  <EState_VSA6>
12.13

>  <EState_VSA7>
18.01

>  <EState_VSA8>
4.9

>  <EState_VSA9>
27.94

>  <EState_VSA10>
4.79

>  <VSA_EState1>
6.22

>  <VSA_EState2>
17.68

>  <VSA_EState3>
1.03

>  <VSA_EState4>
0.97

>  <VSA_EState5>
0.15

>  <VSA_EState6>
6.11

>  <VSA_EState7>
8.36

>  <VSA_EState8>
3.18

>  <VSA_EState9>
1.97

>  <apol>
64.91

>  <bpol>
37.14

>  <nRing>
4

>  <nHRing>
2

>  <naRing>
1

>  <naHRing>
0

>  <nARing 2>
3

>  <nAHRing 2>
2

>  <nFRing>
0

>  <nFHRing>
0

>  <nFaRing>
0

>  <nFaHRing>
0

>  <nFARing 2>
0

>  <nFAHRing 2>
0

>  <nRot>
4

>  <SLogP>
4.56

>  <SMR>
113.09

>  <TopoPSA(NO)>
32.78

>  <TopoPSA>
32.78

>  <JGI1>
0.21

>  <JGI2>
0.08

>  <JGI3>
0.05

>  <JGI4>
0.05

>  <JGI5>
0.03

>  <Diameter>
13

>  <Radius>
7

>  <TMWC10>
136.22

>  <TSRW10>
79.05

>  <MW>
424.17

>  <AMW>
7.31

>  <WPath>
2054

>  <WPol>
44

>  <Zagreb1>
152

>  <Zagreb2>
181

>  <mZagreb2>
6.06

>  <yes>


>  <nAR-cont>
0.691115

>  <nHA-cont>
0.82432561

>  <MWHBN>
0.145663681

>  <MWHBN-cont>
0.920745765

>  <TPSA-cont>
0.771175245

>  <pka_cont>
0.97

>  <yes.1>


>  <BBB_SCORE>
4.923909747

>  <MMFF94 Energy>
83.148

$$$$
Compound 1298
Actelion Java MolfileCreator 2.0

  0  0  0  0  0  0              0 V3000
M  V30 BEGIN CTAB
M  V30 COUNTS 53 55 0 0 0
M  V30 BEGIN ATOM
M  V30 1 O 0.0789 -1.6598 -1.8971 0
M  V30 2 C 0.2787 -1.9964 -0.7273 0
M  V30 3 N -0.3138 -1.3219 0.3442 0
M  V30 4 C 1.2089 -3.1639 -0.4093 0
M  V30 5 C -0.918 0.0096 0.0731 0 CFG=2
M  V30 6 C -0.2185 -1.7809 1.7246 0
M  V30 7 C 2.5273 -3.085 -1.1521 0
M  V30 8 C 0.0946 1.0916 0.4508 0
M  V30 9 C -2.3579 0.164 0.6718 0
M  V30 10 C 3.4828 -2.0913 -0.866 0
M  V30 11 C 2.8052 -4.0503 -2.1379 0
M  V30 12 C 0.2319 1.5813 1.7589 0
M  V30 13 C 0.9727 1.5735 -0.5361 0
M  V30 14 N -3.2195 1.1613 0.0126 0
M  V30 15 N 3.2922 -1.1433 0.1352 0
M  V30 16 C 4.7248 -2.1466 -1.5131 0
M  V30 17 C 4.0286 -4.0587 -2.8049 0
M  V30 18 C 1.1988 2.543 2.0627 0
M  V30 19 C 1.9388 2.5332 -0.231 0
M  V30 20 C -2.7976 2.5538 0.2035 0
M  V30 21 C -4.5988 1.114 0.5058 0
M  V30 22 C 4.9937 -3.112 -2.4848 0
M  V30 23 C 2.0494 3.0201 1.0682 0
M  V30 24 C -4.0698 3.3897 -0.01 0 CFG=1
M  V30 25 C -5.2006 2.3729 -0.0945 0
M  V30 26 O -4.304 4.2557 1.0992 0
M  V30 27 H 0.6666 -4.0812 -0.6692 0
M  V30 28 H 1.4522 -3.2442 0.6522 0
M  V30 29 H -1.0657 0.09 -1.0117 0
M  V30 30 H -0.2957 -2.8707 1.7654 0
M  V30 31 H -1.026 -1.3721 2.3343 0
M  V30 32 H 0.7446 -1.4689 2.1375 0
M  V30 33 H -2.3236 0.3512 1.7514 0
M  V30 34 H -2.8522 -0.8095 0.5481 0
M  V30 35 H 2.0654 -4.8072 -2.3888 0
M  V30 36 H -0.4072 1.2214 2.5604 0
M  V30 37 H 0.9114 1.1898 -1.5549 0
M  V30 38 H 2.3498 -0.8814 0.3956 0
M  V30 39 H 3.9693 -0.395 0.2145 0
M  V30 40 H 5.4969 -1.4212 -1.271 0
M  V30 41 H 4.2297 -4.8091 -3.5642 0
M  V30 42 H 1.2909 2.9178 3.0791 0
M  V30 43 H 2.6058 2.8948 -1.0095 0
M  V30 44 H -2.0368 2.8292 -0.5331 0
M  V30 45 H -2.3987 2.7318 1.2089 0
M  V30 46 H -4.641 1.1563 1.6017 0
M  V30 47 H -5.1269 0.2179 0.1653 0
M  V30 48 H 5.9563 -3.1222 -2.9879 0
M  V30 49 H 2.8017 3.7674 1.3066 0
M  V30 50 H -4.0238 3.9965 -0.9204 0
M  V30 51 H -5.4556 2.19 -1.1458 0
M  V30 52 H -6.1063 2.6833 0.4356 0
M  V30 53 H -3.5758 4.9005 1.1157 0
M  V30 END ATOM
M  V30 BEGIN BOND
M  V30 1 2 1 2
M  V30 2 1 2 3
M  V30 3 1 2 4
M  V30 4 1 3 5
M  V30 5 1 3 6
M  V30 6 1 4 7
M  V30 7 1 5 8
M  V30 8 1 5 9
M  V30 9 2 7 10
M  V30 10 1 7 11
M  V30 11 2 8 12
M  V30 12 1 8 13
M  V30 13 1 9 14
M  V30 14 1 10 15
M  V30 15 1 10 16
M  V30 16 2 11 17
M  V30 17 1 12 18
M  V30 18 2 13 19
M  V30 19 1 14 20
M  V30 20 1 14 21
M  V30 21 2 16 22
M  V30 22 2 18 23
M  V30 23 1 20 24
M  V30 24 1 21 25
M  V30 25 1 24 26
M  V30 26 1 17 22
M  V30 27 1 19 23
M  V30 28 1 24 25
M  V30 29 1 4 27
M  V30 30 1 4 28
M  V30 31 1 5 29
M  V30 32 1 6 30
M  V30 33 1 6 31
M  V30 34 1 6 32
M  V30 35 1 9 33
M  V30 36 1 9 34
M  V30 37 1 11 35
M  V30 38 1 12 36
M  V30 39 1 13 37
M  V30 40 1 15 38
M  V30 41 1 15 39
M  V30 42 1 16 40
M  V30 43 1 17 41
M  V30 44 1 18 42
M  V30 45 1 19 43
M  V30 46 1 20 44
M  V30 47 1 20 45
M  V30 48 1 21 46
M  V30 49 1 21 47
M  V30 50 1 22 48
M  V30 51 1 23 49
M  V30 52 1 24 50
M  V30 53 1 25 51
M  V30 54 1 25 52
M  V30 55 1 26 53
M  V30 END BOND
M  V30 BEGIN COLLECTION
M  V30 MDLV30/STEABS ATOMS=(2 5 24)
M  V30 END COLLECTION
M  V30 END CTAB
M  END
>  <Column 1>
1552

>  <level_0>
1705

>  <index>
1705

>  <Unnamed: 0>
1705

>  <NO.>
1717

>  <Name>
emd60400

>  <IUPAC_name>


>  <SMILES>
CN(C(=O)Cc1ccccc1N)[C@@H](CN1CC[C@@H](O)C1)c1ccccc1

>  <CID>


>  <logBB>


>  <BBB+/BBB->
BBB-

>  <Inchi>
InChI=1S/C21H27N3O2/c1-23(21(26)13-17-9-5-6-10-19(17)22)20(16-7-3-2-4-8-16)15-24-12-11-18(25)14-24/h2-10-18-20-25H-11-15-22H2-1H3/t18--20+/m1/s1

>  <threshold>
-1

>  <reference>
R1|R28|R9|R27|R30|

>  <group>
B

>  <Class>
1

>  <ABC>
20.07

>  <ABCGG>
16.96

>  <nAcid>
0

>  <nBase>
1

>  <nAromAtom>
12

>  <nAromBond>
12

>  <nAtom>
53

>  <nHeavyAtom>
26

>  <nSpiro>
0

>  <nBridgehead>
0

>  <nHetero>
5

>  <nN>
3

>  <nO>
2

>  <nF>
0

>  <BalabanJ>
1.61

>  <BertzCT>
735.05

>  <nBonds>
55

>  <nBondsO>
28

>  <nBondsS>
42

>  <nBondsD>
1

>  <nBondsT>
0

>  <nBondsA>
12

>  <nBondsM>
13

>  <nBondsKS>
48

>  <nBondsKD>
7

>  <RNCG>
0.18

>  <RPCG>
0.1

>  <FCSP3>
0.38

>  <SZ>
31.67

>  <Sm>
29.43

>  <Sv>
32.02

>  <Sse>
52.64

>  <Sp>
34.72

>  <Si>
59.9

>  <MZ>
0.6

>  <Mm>
0.56

>  <Mv>
0.6

>  <Mse>
0.99

>  <Mp>
0.66

>  <Mi>
1.13

>  <NsCH3>
1

>  <NdCH2>
0

>  <NssCH2>
5

>  <NtCH>
0

>  <NdsCH>
0

>  <NaaCH>
9

>  <NsssCH>
2

>  <NddC>
0

>  <NtsC>
0

>  <NdssC>
1

>  <NaasC>
3

>  <NaaaC>
0

>  <NssssC>
0

>  <NsNH3>
0

>  <NsNH2>
1

>  <NssNH2>
0

>  <NdNH>
0

>  <NssNH>
0

>  <NaaNH>
0

>  <NtN>
0

>  <NsssNH>
0

>  <NdsN>
0

>  <NaaN>
0

>  <NsssN>
2

>  <NddsN>
0

>  <NaasN>
0

>  <NssssN>
0

>  <NsOH>
1

>  <NdO>
1

>  <NssO>
0

>  <NaaO>
0

>  <NsF>
0

>  <NsSiH3>
0

>  <NssSiH2>
0

>  <NsssSiH>
0

>  <NssssSi>
0

>  <NsPH2>
0

>  <NssPH>
0

>  <NsssP>
0

>  <NdsssP>
0

>  <NsssssP>
0

>  <NsSH>
0

>  <NdS>
0

>  <NssS>
0

>  <NaaS>
0

>  <NdssS>
0

>  <NddssS>
0

>  <NsCl>
0

>  <NsBr>
0

>  <NsI>
0

>  <fragCpx>
134.05

>  <fMF>
0.42

>  <nHBAcc>
4

>  <nHBDon>
2

>  <Kier1>
20.73

>  <Kier2>
9.97

>  <Lipinski>
1

>  <GhoseFilter>
1

>  <FilterItLogS>
-3.32

>  <VMcGowan>
285.75

>  <LabuteASA>
154.58

>  <PEOE_VSA1>
15.74

>  <PEOE_VSA2>
9.69

>  <PEOE_VSA3>
0

>  <PEOE_VSA4>
0

>  <PEOE_VSA5>
0

>  <PEOE_VSA6>
48.53

>  <PEOE_VSA7>
23.61

>  <PEOE_VSA8>
32.37

>  <PEOE_VSA9>
18.57

>  <PEOE_VSA10>
0

>  <PEOE_VSA11>
0

>  <PEOE_VSA12>
5.91

>  <PEOE_VSA13>
0

>  <SMR_VSA1>
9.9

>  <SMR_VSA2>
0

>  <SMR_VSA3>
9.8

>  <SMR_VSA4>
0

>  <SMR_VSA5>
24.99

>  <SMR_VSA6>
32.42

>  <SMR_VSA7>
65.72

>  <SMR_VSA8>
0

>  <SMR_VSA9>
0

>  <SlogP_VSA1>
5.73

>  <SlogP_VSA2>
53.6

>  <SlogP_VSA3>
11.22

>  <SlogP_VSA4>
0

>  <SlogP_VSA5>
23.59

>  <SlogP_VSA6>
54.6

>  <SlogP_VSA7>
0

>  <SlogP_VSA8>
0

>  <SlogP_VSA9>
0

>  <SlogP_VSA10>
5.69

>  <SlogP_VSA11>
0

>  <EState_VSA1>
0

>  <EState_VSA2>
24.47

>  <EState_VSA3>
18.78

>  <EState_VSA4>
24.09

>  <EState_VSA5>
0

>  <EState_VSA6>
0

>  <EState_VSA7>
54.41

>  <EState_VSA8>
17.03

>  <EState_VSA9>
5.73

>  <EState_VSA10>
9.9

>  <VSA_EState1>
0

>  <VSA_EState2>
16.96

>  <VSA_EState3>
9.82

>  <VSA_EState4>
8.6

>  <VSA_EState5>
0.04

>  <VSA_EState6>
17.51

>  <VSA_EState7>
0.81

>  <VSA_EState8>
2.24

>  <VSA_EState9>
1.85

>  <apol>
57.98

>  <bpol>
30.8

>  <nRing>
3

>  <nHRing>
1

>  <naRing>
2

>  <naHRing>
0

>  <nARing 2>
1

>  <nAHRing 2>
1

>  <nFRing>
0

>  <nFHRing>
0

>  <nFaRing>
0

>  <nFaHRing>
0

>  <nFARing 2>
0

>  <nFAHRing 2>
0

>  <nRot>
6

>  <SLogP>
2.08

>  <SMR>
103.58

>  <TopoPSA(NO)>
69.8

>  <TopoPSA>
69.8

>  <JGI1>
0.18

>  <JGI2>
0.08

>  <JGI3>
0.05

>  <JGI4>
0.04

>  <JGI5>
0.02

>  <Diameter>
12

>  <Radius>
6

>  <TMWC10>
128.64

>  <TSRW10>
74.11

>  <MW>
353.21

>  <AMW>
6.66

>  <WPath>
1692

>  <WPol>
37

>  <Zagreb1>
132

>  <Zagreb2>
152

>  <mZagreb2>
5.78

>  <yes>


>  <nAR-cont>
0.816016

>  <nHA-cont>
0.892715677

>  <MWHBN>
0.319252829

>  <MWHBN-cont>
0.779665899

>  <TPSA-cont>
0.512752657

>  <pka_cont>
0.97

>  <yes.1>


>  <BBB_SCORE>
4.388735839

>  <MMFF94 Energy>
96.284

$$$$
Compound 1299
Actelion Java MolfileCreator 2.0

  0  0  0  0  0  0              0 V3000
M  V30 BEGIN CTAB
M  V30 COUNTS 58 60 0 0 0
M  V30 BEGIN ATOM
M  V30 1 Cl -2.0065 -5.3845 2.7296 0
M  V30 2 C -1.6682 -3.6983 2.7247 0
M  V30 3 C -0.9081 -3.1399 3.7441 0
M  V30 4 C -2.1618 -2.8944 1.7033 0
M  V30 5 C -0.6383 -1.7683 3.7358 0
M  V30 6 C -1.892 -1.5203 1.6981 0
M  V30 7 C -1.12 -0.9255 2.7102 0
M  V30 8 C -0.7805 0.5841 2.7508 0
M  V30 9 C -1.1249 1.1684 4.1724 0
M  V30 10 C 0.7688 0.7341 2.5692 0
M  V30 11 C -1.4398 1.4995 1.6761 0
M  V30 12 O -0.2056 1.4556 4.9521 0
M  V30 13 N -2.4433 1.3608 4.5773 0
M  V30 14 C 1.2368 0.5389 1.1307 0
M  V30 15 C -0.8378 1.4004 0.267 0
M  V30 16 C -3.6425 0.8489 3.9353 0
M  V30 17 C -2.6802 2.0622 5.8323 0
M  V30 18 N 0.6128 1.5528 0.2811 0
M  V30 19 C 1.2037 1.6177 -1.0617 0
M  V30 20 C 1.0361 0.3795 -1.9524 0
M  V30 21 C 1.7413 0.5759 -3.2978 0
M  V30 22 C 1.5595 -0.6219 -4.2153 0
M  V30 23 O 0.8561 -1.5823 -3.9081 0
M  V30 24 C 2.2557 -0.6239 -5.5396 0
M  V30 25 C 2.1277 -1.7584 -6.358 0
M  V30 26 C 3.0224 0.462 -5.9867 0
M  V30 27 C 2.7581 -1.8077 -7.6032 0
M  V30 28 C 3.6519 0.4085 -7.2343 0
M  V30 29 C 3.5144 -0.7236 -8.0295 0
M  V30 30 F 4.1195 -0.768 -9.223 0
M  V30 31 H -0.5206 -3.7596 4.5483 0
M  V30 32 H -2.76 -3.3272 0.9054 0
M  V30 33 H -0.0403 -1.3597 4.5513 0
M  V30 34 H -2.3188 -0.9376 0.8887 0
M  V30 35 H 1.3225 0.0446 3.2186 0
M  V30 36 H 1.0803 1.7417 2.8837 0
M  V30 37 H -2.5158 1.3224 1.5898 0
M  V30 38 H -1.3424 2.5454 2.003 0
M  V30 39 H 1.0163 -0.479 0.7895 0
M  V30 40 H 2.3271 0.6581 1.1126 0
M  V30 41 H -1.2852 2.1973 -0.3405 0
M  V30 42 H -1.1266 0.4556 -0.2011 0
M  V30 43 H -3.4383 0.1485 3.1339 0
M  V30 44 H -4.2497 0.3299 4.684 0
M  V30 45 H -4.211 1.6952 3.5384 0
M  V30 46 H -1.7925 2.5878 6.1936 0
M  V30 47 H -2.9916 1.3323 6.5857 0
M  V30 48 H -3.4783 2.7966 5.6847 0
M  V30 49 H 2.2733 1.8424 -0.9568 0
M  V30 50 H 0.7815 2.4884 -1.5807 0
M  V30 51 H -0.0268 0.1815 -2.1317 0
M  V30 52 H 1.4496 -0.5081 -1.4599 0
M  V30 53 H 2.8125 0.7233 -3.1208 0
M  V30 54 H 1.3293 1.4595 -3.7981 0
M  V30 55 H 1.5355 -2.6107 -6.0277 0
M  V30 56 H 3.1457 1.3606 -5.3894 0
M  V30 57 H 2.6624 -2.6826 -8.2386 0
M  V30 58 H 4.2482 1.2428 -7.5918 0
M  V30 END ATOM
M  V30 BEGIN BOND
M  V30 1 1 1 2
M  V30 2 2 2 3
M  V30 3 1 2 4
M  V30 4 1 3 5
M  V30 5 2 4 6
M  V30 6 2 5 7
M  V30 7 1 7 8
M  V30 8 1 8 9
M  V30 9 1 8 10
M  V30 10 1 8 11
M  V30 11 2 9 12
M  V30 12 1 9 13
M  V30 13 1 10 14
M  V30 14 1 11 15
M  V30 15 1 13 16
M  V30 16 1 13 17
M  V30 17 1 14 18
M  V30 18 1 18 19
M  V30 19 1 19 20
M  V30 20 1 20 21
M  V30 21 1 21 22
M  V30 22 2 22 23
M  V30 23 1 22 24
M  V30 24 2 24 25
M  V30 25 1 24 26
M  V30 26 1 25 27
M  V30 27 2 26 28
M  V30 28 2 27 29
M  V30 29 1 29 30
M  V30 30 1 6 7
M  V30 31 1 15 18
M  V30 32 1 28 29
M  V30 33 1 3 31
M  V30 34 1 4 32
M  V30 35 1 5 33
M  V30 36 1 6 34
M  V30 37 1 10 35
M  V30 38 1 10 36
M  V30 39 1 11 37
M  V30 40 1 11 38
M  V30 41 1 14 39
M  V30 42 1 14 40
M  V30 43 1 15 41
M  V30 44 1 15 42
M  V30 45 1 16 43
M  V30 46 1 16 44
M  V30 47 1 16 45
M  V30 48 1 17 46
M  V30 49 1 17 47
M  V30 50 1 17 48
M  V30 51 1 19 49
M  V30 52 1 19 50
M  V30 53 1 20 51
M  V30 54 1 20 52
M  V30 55 1 21 53
M  V30 56 1 21 54
M  V30 57 1 25 55
M  V30 58 1 26 56
M  V30 59 1 27 57
M  V30 60 1 28 58
M  V30 END BOND
M  V30 END CTAB
M  END
>  <Column 1>
1553

>  <level_0>
1706

>  <index>
1706

>  <Unnamed: 0>
1706

>  <NO.>
1718

>  <Name>
amiperone

>  <IUPAC_name>
4-(4-chlorophenyl)-1-[4-(4-fluorophenyl)-4-oxobutyl]-n-n-dimethylpiperidine-4-carboxamide

>  <SMILES>
CN(C)C(=O)C1(c2ccc(Cl)cc2)CCN(CCCC(=O)c2ccc(F)cc2)CC1

>  <CID>
71101

>  <logBB>


>  <BBB+/BBB->
BBB+

>  <Inchi>
InChI=1S/C24H28ClFN2O2/c1-27(2)23(30)24(19-7-9-20(25)10-8-19)13-16-28(17-14-24)15-3-4-22(29)18-5-11-21(26)12-6-18/h5-12H-3-4-13-17H2-1-2H3

>  <threshold>
-1

>  <reference>
R1|R13|R19|R6|R24|R27|R27|R27|R30|R30|

>  <group>
B

>  <Class>
1

>  <ABC>
23.08

>  <ABCGG>
17.62

>  <nAcid>
0

>  <nBase>
1

>  <nAromAtom>
12

>  <nAromBond>
12

>  <nAtom>
58

>  <nHeavyAtom>
30

>  <nSpiro>
0

>  <nBridgehead>
0

>  <nHetero>
6

>  <nN>
2

>  <nO>
2

>  <nF>
1

>  <BalabanJ>
1.46

>  <BertzCT>
873.08

>  <nBonds>
60

>  <nBondsO>
32

>  <nBondsS>
46

>  <nBondsD>
2

>  <nBondsT>
0

>  <nBondsA>
12

>  <nBondsM>
14

>  <nBondsKS>
52

>  <nBondsKD>
8

>  <RNCG>
0.18

>  <RPCG>
0.12

>  <FCSP3>
0.42

>  <SZ>
38

>  <Sm>
35.88

>  <Sv>
36.27

>  <Sse>
58.14

>  <Sp>
39.1

>  <Si>
65.51

>  <MZ>
0.66

>  <Mm>
0.62

>  <Mv>
0.63

>  <Mse>
1

>  <Mp>
0.67

>  <Mi>
1.13

>  <NsCH3>
2

>  <NdCH2>
0

>  <NssCH2>
7

>  <NtCH>
0

>  <NdsCH>
0

>  <NaaCH>
8

>  <NsssCH>
0

>  <NddC>
0

>  <NtsC>
0

>  <NdssC>
2

>  <NaasC>
4

>  <NaaaC>
0

>  <NssssC>
1

>  <NsNH3>
0

>  <NsNH2>
0

>  <NssNH2>
0

>  <NdNH>
0

>  <NssNH>
0

>  <NaaNH>
0

>  <NtN>
0

>  <NsssNH>
0

>  <NdsN>
0

>  <NaaN>
0

>  <NsssN>
2

>  <NddsN>
0

>  <NaasN>
0

>  <NssssN>
0

>  <NsOH>
0

>  <NdO>
2

>  <NssO>
0

>  <NaaO>
0

>  <NsF>
1

>  <NsSiH3>
0

>  <NssSiH2>
0

>  <NsssSiH>
0

>  <NssssSi>
0

>  <NsPH2>
0

>  <NssPH>
0

>  <NsssP>
0

>  <NdsssP>
0

>  <NsssssP>
0

>  <NsSH>
0

>  <NdS>
0

>  <NssS>
0

>  <NaaS>
0

>  <NdssS>
0

>  <NddssS>
0

>  <NsCl>
1

>  <NsBr>
0

>  <NsI>
0

>  <fragCpx>
154.06

>  <fMF>
0.38

>  <nHBAcc>
3

>  <nHBDon>
0

>  <Kier1>
24.64

>  <Kier2>
11.23

>  <Lipinski>
1

>  <GhoseFilter>
1

>  <FilterItLogS>
-6.43

>  <VMcGowan>
327.74

>  <LabuteASA>
182.17

>  <PEOE_VSA1>
9.8

>  <PEOE_VSA2>
9.59

>  <PEOE_VSA3>
4.39

>  <PEOE_VSA4>
0

>  <PEOE_VSA5>
0

>  <PEOE_VSA6>
23.73

>  <PEOE_VSA7>
80.86

>  <PEOE_VSA8>
31.1

>  <PEOE_VSA9>
5.41

>  <PEOE_VSA10>
5.82

>  <PEOE_VSA11>
5.78

>  <PEOE_VSA12>
5.91

>  <PEOE_VSA13>
0

>  <SMR_VSA1>
13.98

>  <SMR_VSA2>
0

>  <SMR_VSA3>
9.8

>  <SMR_VSA4>
0

>  <SMR_VSA5>
31.1

>  <SMR_VSA6>
33.73

>  <SMR_VSA7>
70.5

>  <SMR_VSA8>
0

>  <SMR_VSA9>
0

>  <SlogP_VSA1>
0

>  <SlogP_VSA2>
55.22

>  <SlogP_VSA3>
10.21

>  <SlogP_VSA4>
5.82

>  <SlogP_VSA5>
41.6

>  <SlogP_VSA6>
48.53

>  <SlogP_VSA7>
5.02

>  <SlogP_VSA8>
0

>  <SlogP_VSA9>
0

>  <SlogP_VSA10>
4.39

>  <SlogP_VSA11>
0

>  <EState_VSA1>
5.41

>  <EState_VSA2>
17.51

>  <EState_VSA3>
17.01

>  <EState_VSA4>
44.46

>  <EState_VSA5>
24.27

>  <EState_VSA6>
19

>  <EState_VSA7>
24.27

>  <EState_VSA8>
4.9

>  <EState_VSA9>
11.6

>  <EState_VSA10>
13.98

>  <VSA_EState1>
13.01

>  <VSA_EState2>
29.36

>  <VSA_EState3>
0.66

>  <VSA_EState4>
1.03

>  <VSA_EState5>
-0.18

>  <VSA_EState6>
13.3

>  <VSA_EState7>
2.64

>  <VSA_EState8>
2.4

>  <VSA_EState9>
3.6

>  <apol>
65.29

>  <bpol>
34.87

>  <nRing>
3

>  <nHRing>
1

>  <naRing>
2

>  <naHRing>
0

>  <nARing 2>
1

>  <nAHRing 2>
1

>  <nFRing>
0

>  <nFHRing>
0

>  <nFaRing>
0

>  <nFaHRing>
0

>  <nFARing 2>
0

>  <nFAHRing 2>
0

>  <nRot>
7

>  <SLogP>
4.56

>  <SMR>
117.46

>  <TopoPSA(NO)>
40.62

>  <TopoPSA>
40.62

>  <JGI1>
0.23

>  <JGI2>
0.11

>  <JGI3>
0.04

>  <JGI4>
0.04

>  <JGI5>
0.03

>  <Diameter>
17

>  <Radius>
9

>  <TMWC10>
138.79

>  <TSRW10>
65.7

>  <MW>
430.18

>  <AMW>
7.42

>  <WPath>
2815

>  <WPol>
49

>  <Zagreb1>
154

>  <Zagreb2>
180

>  <mZagreb2>
6.64

>  <yes>


>  <nAR-cont>
0.816016

>  <nHA-cont>
0.74523694

>  <MWHBN>
0.144642576

>  <MWHBN-cont>
0.91782515

>  <TPSA-cont>
0.716447176

>  <pka_cont>
0.97

>  <yes.1>


>  <BBB_SCORE>
4.855885018

>  <MMFF94 Energy>
69.356

$$$$
Compound 1300
Actelion Java MolfileCreator 2.0

  0  0  0  0  0  0              0 V3000
M  V30 BEGIN CTAB
M  V30 COUNTS 30 30 0 0 0
M  V30 BEGIN ATOM
M  V30 1 Br 5.2337 0.0 3.5661 0
M  V30 2 C 3.8573 -0.5748 2.4067 0
M  V30 3 C 3.4042 0.2662 1.3966 0
M  V30 4 C 3.2988 -1.8373 2.565 0
M  V30 5 C 2.3831 -0.1623 0.5397 0
M  V30 6 C 2.2796 -2.2548 1.7024 0
M  V30 7 C 1.8031 -1.429 0.6733 0
M  V30 8 N 0.7848 -1.8942 -0.1335 0
M  V30 9 C 0.1158 -1.1334 -1.1808 0
M  V30 10 C -0.9403 -0.2074 -0.5864 0
M  V30 11 C -1.6761 0.557 -1.6693 0
M  V30 12 O -1.4052 0.3852 -2.8585 0
M  V30 13 N -2.6596 1.4496 -1.2562 0
M  V30 14 C -3.0368 1.7072 0.1268 0
M  V30 15 C -3.3848 2.2139 -2.2595 0
M  V30 16 H 3.8349 1.2544 1.2611 0
M  V30 17 H 3.6431 -2.5047 3.3498 0
M  V30 18 H 2.0589 0.5186 -0.2413 0
M  V30 19 H 1.854 -3.2455 1.8441 0
M  V30 20 H 0.4859 -2.855 -0.0115 0
M  V30 21 H -0.3723 -1.85 -1.8529 0
M  V30 22 H 0.8384 -0.5886 -1.7994 0
M  V30 23 H -1.6658 -0.8001 -0.0173 0
M  V30 24 H -0.4713 0.513 0.0921 0
M  V30 25 H -2.49 1.095 0.8435 0
M  V30 26 H -2.8443 2.7611 0.3489 0
M  V30 27 H -4.1059 1.5039 0.2407 0
M  V30 28 H -3.0608 1.983 -3.2771 0
M  V30 29 H -3.2234 3.2799 -2.0728 0
M  V30 30 H -4.4515 1.9871 -2.1705 0
M  V30 END ATOM
M  V30 BEGIN BOND
M  V30 1 1 1 2
M  V30 2 2 2 3
M  V30 3 1 2 4
M  V30 4 1 3 5
M  V30 5 2 4 6
M  V30 6 2 5 7
M  V30 7 1 7 8
M  V30 8 1 8 9
M  V30 9 1 9 10
M  V30 10 1 10 11
M  V30 11 2 11 12
M  V30 12 1 11 13
M  V30 13 1 13 14
M  V30 14 1 13 15
M  V30 15 1 6 7
M  V30 16 1 3 16
M  V30 17 1 4 17
M  V30 18 1 5 18
M  V30 19 1 6 19
M  V30 20 1 8 20
M  V30 21 1 9 21
M  V30 22 1 9 22
M  V30 23 1 10 23
M  V30 24 1 10 24
M  V30 25 1 14 25
M  V30 26 1 14 26
M  V30 27 1 14 27
M  V30 28 1 15 28
M  V30 29 1 15 29
M  V30 30 1 15 30
M  V30 END BOND
M  V30 END CTAB
M  END
>  <Column 1>
1554

>  <level_0>
1707

>  <index>
1707

>  <Unnamed: 0>
1707

>  <NO.>
1719

>  <Name>
bromamid

>  <IUPAC_name>
3-(4-bromoanilino)-n-n-dimethylpropanamide

>  <SMILES>
CN(C)C(=O)CCNc1ccc(Br)cc1

>  <CID>
68839

>  <logBB>


>  <BBB+/BBB->
BBB+

>  <Inchi>
InChI=1S/C11H15BrN2O/c1-14(2)11(15)7-8-13-10-5-3-9(12)4-6-10/h3-6-13H-7-8H2-1-2H3

>  <threshold>
-1

>  <reference>
R1|R13|R19|R6|R24|R27|R27|R27|R30|R30|

>  <group>
B

>  <Class>
1

>  <ABC>
11

>  <ABCGG>
9.68

>  <nAcid>
0

>  <nBase>
0

>  <nAromAtom>
6

>  <nAromBond>
6

>  <nAtom>
30

>  <nHeavyAtom>
15

>  <nSpiro>
0

>  <nBridgehead>
0

>  <nHetero>
4

>  <nN>
2

>  <nO>
1

>  <nF>
0

>  <BalabanJ>
2.05

>  <BertzCT>
321.86

>  <nBonds>
30

>  <nBondsO>
15

>  <nBondsS>
23

>  <nBondsD>
1

>  <nBondsT>
0

>  <nBondsA>
6

>  <nBondsM>
7

>  <nBondsKS>
26

>  <nBondsKD>
4

>  <RNCG>
0.31

>  <RPCG>
0.18

>  <FCSP3>
0.36

>  <SZ>
23

>  <Sm>
22.58

>  <Sv>
18.58

>  <Sse>
29.99

>  <Sp>
20.61

>  <Si>
33.95

>  <MZ>
0.77

>  <Mm>
0.75

>  <Mv>
0.62

>  <Mse>
1

>  <Mp>
0.69

>  <Mi>
1.13

>  <NsCH3>
2

>  <NdCH2>
0

>  <NssCH2>
2

>  <NtCH>
0

>  <NdsCH>
0

>  <NaaCH>
4

>  <NsssCH>
0

>  <NddC>
0

>  <NtsC>
0

>  <NdssC>
1

>  <NaasC>
2

>  <NaaaC>
0

>  <NssssC>
0

>  <NsNH3>
0

>  <NsNH2>
0

>  <NssNH2>
0

>  <NdNH>
0

>  <NssNH>
1

>  <NaaNH>
0

>  <NtN>
0

>  <NsssNH>
0

>  <NdsN>
0

>  <NaaN>
0

>  <NsssN>
1

>  <NddsN>
0

>  <NaasN>
0

>  <NssssN>
0

>  <NsOH>
0

>  <NdO>
1

>  <NssO>
0

>  <NaaO>
0

>  <NsF>
0

>  <NsSiH3>
0

>  <NssSiH2>
0

>  <NsssSiH>
0

>  <NssssSi>
0

>  <NsPH2>
0

>  <NssPH>
0

>  <NsssP>
0

>  <NdsssP>
0

>  <NsssssP>
0

>  <NsSH>
0

>  <NdS>
0

>  <NssS>
0

>  <NaaS>
0

>  <NdssS>
0

>  <NddssS>
0

>  <NsCl>
0

>  <NsBr>
1

>  <NsI>
0

>  <fragCpx>
15.04

>  <fMF>
0.2

>  <nHBAcc>
2

>  <nHBDon>
1

>  <Kier1>
13.07

>  <Kier2>
6.55

>  <Lipinski>
1

>  <GhoseFilter>
1

>  <FilterItLogS>
-3.57

>  <VMcGowan>
181.12

>  <LabuteASA>
98.59

>  <PEOE_VSA1>
10.22

>  <PEOE_VSA2>
4.79

>  <PEOE_VSA3>
0

>  <PEOE_VSA4>
0

>  <PEOE_VSA5>
0

>  <PEOE_VSA6>
15.93

>  <PEOE_VSA7>
24.27

>  <PEOE_VSA8>
37.22

>  <PEOE_VSA9>
0

>  <PEOE_VSA10>
0

>  <PEOE_VSA11>
0

>  <PEOE_VSA12>
5.91

>  <PEOE_VSA13>
0

>  <SMR_VSA1>
4.79

>  <SMR_VSA2>
0

>  <SMR_VSA3>
4.9

>  <SMR_VSA4>
0

>  <SMR_VSA5>
6.42

>  <SMR_VSA6>
25.96

>  <SMR_VSA7>
28.74

>  <SMR_VSA8>
0

>  <SMR_VSA9>
0

>  <SlogP_VSA1>
5.32

>  <SlogP_VSA2>
31.45

>  <SlogP_VSA3>
4.79

>  <SlogP_VSA4>
0

>  <SlogP_VSA5>
6.42

>  <SlogP_VSA6>
28.74

>  <SlogP_VSA7>
0

>  <SlogP_VSA8>
0

>  <SlogP_VSA9>
0

>  <SlogP_VSA10>
5.69

>  <SlogP_VSA11>
0

>  <EState_VSA1>
0

>  <EState_VSA2>
5.91

>  <EState_VSA3>
12.97

>  <EState_VSA4>
10.16

>  <EState_VSA5>
0

>  <EState_VSA6>
19

>  <EState_VSA7>
24.27

>  <EState_VSA8>
21.25

>  <EState_VSA9>
0

>  <EState_VSA10>
4.79

>  <VSA_EState1>
1.05

>  <VSA_EState2>
12.87

>  <VSA_EState3>
3.19

>  <VSA_EState4>
1.03

>  <VSA_EState5>
0.14

>  <VSA_EState6>
7.89

>  <VSA_EState7>
0.52

>  <VSA_EState8>
0.67

>  <VSA_EState9>
3.53

>  <apol>
34.42

>  <bpol>
19.58

>  <nRing>
1

>  <nHRing>
0

>  <naRing>
1

>  <naHRing>
0

>  <nARing 2>
0

>  <nAHRing 2>
0

>  <nFRing>
0

>  <nFHRing>
0

>  <nFaRing>
0

>  <nFaHRing>
0

>  <nFARing 2>
0

>  <nFAHRing 2>
0

>  <nRot>
4

>  <SLogP>
2.34

>  <SMR>
65.94

>  <TopoPSA(NO)>
32.34

>  <TopoPSA>
32.34

>  <JGI1>
0.23

>  <JGI2>
0.09

>  <JGI3>
0.03

>  <JGI4>
0.04

>  <JGI5>
0.03

>  <Diameter>
10

>  <Radius>
5

>  <TMWC10>
96.21

>  <TSRW10>
45.84

>  <MW>
270.04

>  <AMW>
9

>  <WPath>
440

>  <WPol>
17

>  <Zagreb1>
68

>  <Zagreb2>
73

>  <mZagreb2>
3.44

>  <yes>


>  <nAR-cont>
0.336376

>  <nHA-cont>
0.92539861

>  <MWHBN>
0.182560663

>  <MWHBN-cont>
0.989775404

>  <TPSA-cont>
0.774246718

>  <pka_cont>
0.97

>  <yes.1>


>  <BBB_SCORE>
4.779931153

>  <MMFF94 Energy>
-5.1259

$$$$
Compound 1301
Actelion Java MolfileCreator 2.0

  0  0  0  0  0  0              0 V3000
M  V30 BEGIN CTAB
M  V30 COUNTS 43 45 0 0 0
M  V30 BEGIN ATOM
M  V30 1 O -1.5132 1.1148 -2.2306 0
M  V30 2 C -0.9067 2.076 -1.7531 0
M  V30 3 N -0.4979 3.1522 -2.5384 0
M  V30 4 C -0.5566 2.1245 -0.2517 0
M  V30 5 C -0.8036 3.1408 -3.9608 0
M  V30 6 C 0.2164 4.3247 -2.0547 0
M  V30 7 O -1.0139 1.0425 0.5487 0
M  V30 8 C -0.2644 -0.1729 0.3495 0
M  V30 9 C 0.9268 -0.2051 1.3045 0
M  V30 10 C -1.1578 -1.4087 0.4848 0
M  V30 11 C 1.9822 -1.1048 1.0558 0
M  V30 12 C 0.9976 0.6207 2.4394 0
M  V30 13 C -0.6617 -2.7317 0.3781 0
M  V30 14 C -2.5474 -1.2311 0.6724 0
M  V30 15 C 3.0977 -1.1292 1.9055 0
M  V30 16 C 1.868 -2.0854 -0.083 0
M  V30 17 C 2.11 0.5876 3.281 0
M  V30 18 C -1.5702 -3.8099 0.4893 0
M  V30 19 C 0.7914 -3.1387 0.1886 0
M  V30 20 C -3.4237 -2.3117 0.7737 0
M  V30 21 C 3.163 -0.2803 3.009 0
M  V30 22 C -2.9339 -3.6043 0.6843 0
M  V30 23 H 0.5278 2.2349 -0.1407 0
M  V30 24 H -1.0323 3.0218 0.1586 0
M  V30 25 H -1.3332 2.2362 -4.2692 0
M  V30 26 H -1.4278 4.0093 -4.1922 0
M  V30 27 H 0.1334 3.2075 -4.5216 0
M  V30 28 H 0.4161 4.2941 -0.9839 0
M  V30 29 H -0.3843 5.2132 -2.2716 0
M  V30 30 H 1.1702 4.3952 -2.5861 0
M  V30 31 H 0.1009 -0.1684 -0.6835 0
M  V30 32 H 0.1773 1.2942 2.6794 0
M  V30 33 H -2.9681 -0.2288 0.7347 0
M  V30 34 H 3.9145 -1.8238 1.7238 0
M  V30 35 H 1.6839 -1.5596 -1.0266 0
M  V30 36 H 2.8284 -2.5984 -0.2228 0
M  V30 37 H 2.1488 1.2346 4.1534 0
M  V30 38 H -1.206 -4.834 0.4238 0
M  V30 39 H 0.8239 -3.8456 -0.6518 0
M  V30 40 H 1.0849 -3.7018 1.086 0
M  V30 41 H -4.4859 -2.1358 0.9177 0
M  V30 42 H 4.0267 -0.3103 3.6678 0
M  V30 43 H -3.6086 -4.4517 0.7631 0
M  V30 END ATOM
M  V30 BEGIN BOND
M  V30 1 2 1 2
M  V30 2 1 2 3
M  V30 3 1 2 4
M  V30 4 1 3 5
M  V30 5 1 3 6
M  V30 6 1 4 7
M  V30 7 1 7 8
M  V30 8 1 8 9
M  V30 9 1 8 10
M  V30 10 2 9 11
M  V30 11 1 9 12
M  V30 12 2 10 13
M  V30 13 1 10 14
M  V30 14 1 11 15
M  V30 15 1 11 16
M  V30 16 2 12 17
M  V30 17 1 13 18
M  V30 18 1 13 19
M  V30 19 2 14 20
M  V30 20 2 15 21
M  V30 21 2 18 22
M  V30 22 1 16 19
M  V30 23 1 17 21
M  V30 24 1 20 22
M  V30 25 1 4 23
M  V30 26 1 4 24
M  V30 27 1 5 25
M  V30 28 1 5 26
M  V30 29 1 5 27
M  V30 30 1 6 28
M  V30 31 1 6 29
M  V30 32 1 6 30
M  V30 33 1 8 31
M  V30 34 1 12 32
M  V30 35 1 14 33
M  V30 36 1 15 34
M  V30 37 1 16 35
M  V30 38 1 16 36
M  V30 39 1 17 37
M  V30 40 1 18 38
M  V30 41 1 19 39
M  V30 42 1 19 40
M  V30 43 1 20 41
M  V30 44 1 21 42
M  V30 45 1 22 43
M  V30 END BOND
M  V30 END CTAB
M  END
>  <Column 1>
1555

>  <level_0>
1708

>  <index>
1708

>  <Unnamed: 0>
1708

>  <NO.>
1720

>  <Name>
oxitriptyline

>  <IUPAC_name>
n-n-dimethyl-2-(2-tricyclo[9.4.0.03-8]pentadeca-1(15)-3-5-7-11-13-hexaenyloxy)acetamide

>  <SMILES>
CN(C)C(=O)COC1c2ccccc2CCc2ccccc21

>  <CID>
34624

>  <logBB>


>  <BBB+/BBB->
BBB+

>  <Inchi>
InChI=1S/C19H21NO2/c1-20(2)18(21)13-22-19-16-9-5-3-7-14(16)11-12-15-8-4-6-10-17(15)19/h3-10-19H-11-13H2-1-2H3

>  <threshold>
-1

>  <reference>
R1|R13|R19|R6|R24|R27|R27|R27|R30|R30|

>  <group>
B

>  <Class>
1

>  <ABC>
17.1

>  <ABCGG>
13.97

>  <nAcid>
0

>  <nBase>
0

>  <nAromAtom>
12

>  <nAromBond>
12

>  <nAtom>
43

>  <nHeavyAtom>
22

>  <nSpiro>
0

>  <nBridgehead>
0

>  <nHetero>
3

>  <nN>
1

>  <nO>
2

>  <nF>
0

>  <BalabanJ>
1.72

>  <BertzCT>
631.14

>  <nBonds>
45

>  <nBondsO>
24

>  <nBondsS>
32

>  <nBondsD>
1

>  <nBondsT>
0

>  <nBondsA>
12

>  <nBondsM>
13

>  <nBondsKS>
38

>  <nBondsKD>
7

>  <RNCG>
0.22

>  <RPCG>
0.15

>  <FCSP3>
0.32

>  <SZ>
26.33

>  <Sm>
24.59

>  <Sv>
26.88

>  <Sse>
42.65

>  <Sp>
29

>  <Si>
48.07

>  <MZ>
0.61

>  <Mm>
0.57

>  <Mv>
0.63

>  <Mse>
0.99

>  <Mp>
0.67

>  <Mi>
1.12

>  <NsCH3>
2

>  <NdCH2>
0

>  <NssCH2>
3

>  <NtCH>
0

>  <NdsCH>
0

>  <NaaCH>
8

>  <NsssCH>
1

>  <NddC>
0

>  <NtsC>
0

>  <NdssC>
1

>  <NaasC>
4

>  <NaaaC>
0

>  <NssssC>
0

>  <NsNH3>
0

>  <NsNH2>
0

>  <NssNH2>
0

>  <NdNH>
0

>  <NssNH>
0

>  <NaaNH>
0

>  <NtN>
0

>  <NsssNH>
0

>  <NdsN>
0

>  <NaaN>
0

>  <NsssN>
1

>  <NddsN>
0

>  <NaasN>
0

>  <NssssN>
0

>  <NsOH>
0

>  <NdO>
1

>  <NssO>
1

>  <NaaO>
0

>  <NsF>
0

>  <NsSiH3>
0

>  <NssSiH2>
0

>  <NsssSiH>
0

>  <NssssSi>
0

>  <NsPH2>
0

>  <NssPH>
0

>  <NsssP>
0

>  <NdsssP>
0

>  <NsssssP>
0

>  <NsSH>
0

>  <NdS>
0

>  <NssS>
0

>  <NaaS>
0

>  <NdssS>
0

>  <NddssS>
0

>  <NsCl>
0

>  <NsBr>
0

>  <NsI>
0

>  <fragCpx>
114.03

>  <fMF>
0.35

>  <nHBAcc>
2

>  <nHBDon>
0

>  <Kier1>
16.84

>  <Kier2>
7.71

>  <Lipinski>
1

>  <GhoseFilter>
1

>  <FilterItLogS>
-4.5

>  <VMcGowan>
237.61

>  <LabuteASA>
131.07

>  <PEOE_VSA1>
9.64

>  <PEOE_VSA2>
4.79

>  <PEOE_VSA3>
0

>  <PEOE_VSA4>
0

>  <PEOE_VSA5>
0

>  <PEOE_VSA6>
48.53

>  <PEOE_VSA7>
35.1

>  <PEOE_VSA8>
14.1

>  <PEOE_VSA9>
0

>  <PEOE_VSA10>
12.71

>  <PEOE_VSA11>
0

>  <PEOE_VSA12>
5.91

>  <PEOE_VSA13>
0

>  <SMR_VSA1>
9.53

>  <SMR_VSA2>
0

>  <SMR_VSA3>
4.9

>  <SMR_VSA4>
0

>  <SMR_VSA5>
18.95

>  <SMR_VSA6>
20.7

>  <SMR_VSA7>
70.78

>  <SMR_VSA8>
0

>  <SMR_VSA9>
0

>  <SlogP_VSA1>
0

>  <SlogP_VSA2>
31.51

>  <SlogP_VSA3>
22.37

>  <SlogP_VSA4>
0

>  <SlogP_VSA5>
28.36

>  <SlogP_VSA6>
48.53

>  <SlogP_VSA7>
0

>  <SlogP_VSA8>
0

>  <SlogP_VSA9>
0

>  <SlogP_VSA10>
0

>  <SlogP_VSA11>
0

>  <EState_VSA1>
0

>  <EState_VSA2>
18.62

>  <EState_VSA3>
0

>  <EState_VSA4>
12.84

>  <EState_VSA5>
22.25

>  <EState_VSA6>
19

>  <EState_VSA7>
12.13

>  <EState_VSA8>
36.4

>  <EState_VSA9>
4.74

>  <EState_VSA10>
4.79

>  <VSA_EState1>
6.05

>  <VSA_EState2>
13.46

>  <VSA_EState3>
0

>  <VSA_EState4>
4.97

>  <VSA_EState5>
-0.01

>  <VSA_EState6>
16.75

>  <VSA_EState7>
1.85

>  <VSA_EState8>
0.1

>  <VSA_EState9>
3.5

>  <apol>
48.44

>  <bpol>
25.38

>  <nRing>
3

>  <nHRing>
0

>  <naRing>
2

>  <naHRing>
0

>  <nARing 2>
1

>  <nAHRing 2>
0

>  <nFRing>
1

>  <nFHRing>
0

>  <nFaRing>
0

>  <nFaHRing>
0

>  <nFARing 2>
1

>  <nFAHRing 2>
0

>  <nRot>
3

>  <SLogP>
2.98

>  <SMR>
86.78

>  <TopoPSA(NO)>
29.54

>  <TopoPSA>
29.54

>  <JGI1>
0.15

>  <JGI2>
0.09

>  <JGI3>
0.04

>  <JGI4>
0.03

>  <JGI5>
0.02

>  <Diameter>
9

>  <Radius>
5

>  <TMWC10>
120.12

>  <TSRW10>
64.14

>  <MW>
295.16

>  <AMW>
6.86

>  <WPath>
992

>  <WPol>
38

>  <Zagreb1>
114

>  <Zagreb2>
134

>  <mZagreb2>
4.89

>  <yes>


>  <nAR-cont>
0.816016

>  <nHA-cont>
0.983774276

>  <MWHBN>
0.116412937

>  <MWHBN-cont>
0.813515087

>  <TPSA-cont>
0.793792457

>  <pka_cont>
0.97

>  <yes.1>


>  <BBB_SCORE>
5.09264782

>  <MMFF94 Energy>
91.215

$$$$
Compound 1302
Actelion Java MolfileCreator 2.0

  0  0  0  0  0  0              0 V3000
M  V30 BEGIN CTAB
M  V30 COUNTS 44 46 0 0 0
M  V30 BEGIN ATOM
M  V30 1 Cl -4.4354 -0.0805 -0.2415 0
M  V30 2 C -2.8636 0.565 -0.5031 0
M  V30 3 C -1.8331 0.257 0.379 0
M  V30 4 C -2.6282 1.3854 -1.6013 0
M  V30 5 C -0.5482 0.783 0.1652 0
M  V30 6 C -1.346 1.8936 -1.8268 0
M  V30 7 C 0.5255 0.4182 1.1295 0
M  V30 8 C -0.2877 1.5946 -0.9524 0
M  V30 9 N 1.6904 -0.0134 0.7822 0
M  V30 10 C 0.2457 0.5426 2.5951 0
M  V30 11 N 1.0085 2.0987 -1.2443 0
M  V30 12 C 2.0292 -0.1347 -0.6465 0 CFG=2
M  V30 13 C -0.561 1.5713 3.0986 0
M  V30 14 C 0.8277 -0.3767 3.4764 0
M  V30 15 C 2.1638 1.3061 -1.2094 0
M  V30 16 C 1.1372 3.4748 -1.6972 0
M  V30 17 O 1.1516 -0.8951 -1.4821 0
M  V30 18 C -0.8025 1.6596 4.4715 0
M  V30 19 C 0.5834 -0.2842 4.8475 0
M  V30 20 O 3.2523 1.7353 -1.6094 0
M  V30 21 C 1.3313 -2.2367 -1.452 0
M  V30 22 C -0.234 0.7308 5.3433 0
M  V30 23 O 2.2075 -2.7994 -0.8077 0
M  V30 24 N 0.4026 -2.9068 -2.233 0
M  V30 25 C 0.4257 -4.3564 -2.2821 0
M  V30 26 C -0.6444 -2.2442 -2.9919 0
M  V30 27 H -2.0265 -0.4028 1.222 0
M  V30 28 H -3.4316 1.6227 -2.2948 0
M  V30 29 H -1.1811 2.5035 -2.7121 0
M  V30 30 H 3.0417 -0.5554 -0.71 0
M  V30 31 H -0.9933 2.3207 2.4416 0
M  V30 32 H 1.4722 -1.1677 3.0975 0
M  V30 33 H 0.3703 4.105 -1.2354 0
M  V30 34 H 1.0428 3.5005 -2.7873 0
M  V30 35 H 2.1179 3.8787 -1.4268 0
M  V30 36 H -1.4271 2.4586 4.8639 0
M  V30 37 H 1.0364 -1.0015 5.5274 0
M  V30 38 H -0.4194 0.8038 6.4123 0
M  V30 39 H 1.2392 -4.7785 -1.6866 0
M  V30 40 H -0.5259 -4.7358 -1.8981 0
M  V30 41 H 0.5494 -4.6718 -3.3223 0
M  V30 42 H -0.548 -1.1569 -2.9872 0
M  V30 43 H -1.6117 -2.514 -2.5575 0
M  V30 44 H -0.6028 -2.5923 -4.0283 0
M  V30 END ATOM
M  V30 BEGIN BOND
M  V30 1 1 1 2
M  V30 2 2 2 3
M  V30 3 1 2 4
M  V30 4 1 3 5
M  V30 5 2 4 6
M  V30 6 1 5 7
M  V30 7 2 5 8
M  V30 8 2 7 9
M  V30 9 1 7 10
M  V30 10 1 8 11
M  V30 11 1 9 12
M  V30 12 2 10 13
M  V30 13 1 10 14
M  V30 14 1 11 15
M  V30 15 1 11 16
M  V30 16 1 12 17
M  V30 17 1 13 18
M  V30 18 2 14 19
M  V30 19 2 15 20
M  V30 20 1 17 21
M  V30 21 2 18 22
M  V30 22 2 21 23
M  V30 23 1 21 24
M  V30 24 1 24 25
M  V30 25 1 24 26
M  V30 26 1 6 8
M  V30 27 1 12 15
M  V30 28 1 19 22
M  V30 29 1 3 27
M  V30 30 1 4 28
M  V30 31 1 6 29
M  V30 32 1 12 30
M  V30 33 1 13 31
M  V30 34 1 14 32
M  V30 35 1 16 33
M  V30 36 1 16 34
M  V30 37 1 16 35
M  V30 38 1 18 36
M  V30 39 1 19 37
M  V30 40 1 22 38
M  V30 41 1 25 39
M  V30 42 1 25 40
M  V30 43 1 25 41
M  V30 44 1 26 42
M  V30 45 1 26 43
M  V30 46 1 26 44
M  V30 END BOND
M  V30 BEGIN COLLECTION
M  V30 MDLV30/STERAC1 ATOMS=(1 12)
M  V30 END COLLECTION
M  V30 END CTAB
M  END
>  <Column 1>
1556

>  <level_0>
1709

>  <index>
1709

>  <Unnamed: 0>
1709

>  <NO.>
1721

>  <Name>
camazepam

>  <IUPAC_name>
(7-chloro-1-methyl-2-oxo-5-phenyl-3h-1-4-benzodiazepin-3-yl) n-n-dimethylcarbamate

>  <SMILES>
CN(C)C(=O)OC1N=C(c2ccccc2)c2cc(Cl)ccc2N(C)C1=O

>  <CID>
37367

>  <logBB>


>  <BBB+/BBB->
BBB+

>  <Inchi>
InChI=1S/C19H18ClN3O3/c1-22(2)19(25)26-17-18(24)23(3)15-10-9-13(20)11-14(15)16(21-17)12-7-5-4-6-8-12/h4-11-17H-1-3H3

>  <threshold>
-1

>  <reference>
R1|R19|R6|R27|R27|R30|

>  <group>
B

>  <Class>
1

>  <ABC>
20.17

>  <ABCGG>
16.82

>  <nAcid>
0

>  <nBase>
0

>  <nAromAtom>
12

>  <nAromBond>
12

>  <nAtom>
44

>  <nHeavyAtom>
26

>  <nSpiro>
0

>  <nBridgehead>
0

>  <nHetero>
7

>  <nN>
3

>  <nO>
3

>  <nF>
0

>  <BalabanJ>
1.84

>  <BertzCT>
880.85

>  <nBonds>
46

>  <nBondsO>
28

>  <nBondsS>
31

>  <nBondsD>
3

>  <nBondsT>
0

>  <nBondsA>
12

>  <nBondsM>
15

>  <nBondsKS>
37

>  <nBondsKD>
9

>  <RNCG>
0.18

>  <RPCG>
0.18

>  <FCSP3>
0.21

>  <SZ>
32.33

>  <Sm>
30.96

>  <Sv>
29.39

>  <Sse>
44.74

>  <Sp>
30.91

>  <Si>
49.39

>  <MZ>
0.73

>  <Mm>
0.7

>  <Mv>
0.67

>  <Mse>
1.02

>  <Mp>
0.7

>  <Mi>
1.12

>  <NsCH3>
3

>  <NdCH2>
0

>  <NssCH2>
0

>  <NtCH>
0

>  <NdsCH>
0

>  <NaaCH>
8

>  <NsssCH>
1

>  <NddC>
0

>  <NtsC>
0

>  <NdssC>
3

>  <NaasC>
4

>  <NaaaC>
0

>  <NssssC>
0

>  <NsNH3>
0

>  <NsNH2>
0

>  <NssNH2>
0

>  <NdNH>
0

>  <NssNH>
0

>  <NaaNH>
0

>  <NtN>
0

>  <NsssNH>
0

>  <NdsN>
1

>  <NaaN>
0

>  <NsssN>
2

>  <NddsN>
0

>  <NaasN>
0

>  <NssssN>
0

>  <NsOH>
0

>  <NdO>
2

>  <NssO>
1

>  <NaaO>
0

>  <NsF>
0

>  <NsSiH3>
0

>  <NssSiH2>
0

>  <NsssSiH>
0

>  <NssssSi>
0

>  <NsPH2>
0

>  <NssPH>
0

>  <NsssP>
0

>  <NdsssP>
0

>  <NsssssP>
0

>  <NsSH>
0

>  <NdS>
0

>  <NssS>
0

>  <NaaS>
0

>  <NdssS>
0

>  <NddssS>
0

>  <NsCl>
1

>  <NsBr>
0

>  <NsI>
0

>  <fragCpx>
134.07

>  <fMF>
0.39

>  <nHBAcc>
4

>  <nHBDon>
0

>  <Kier1>
20.73

>  <Kier2>
9

>  <Lipinski>
1

>  <GhoseFilter>
1

>  <FilterItLogS>
-4.31

>  <VMcGowan>
267.08

>  <LabuteASA>
156.19

>  <PEOE_VSA1>
14.54

>  <PEOE_VSA2>
4.79

>  <PEOE_VSA3>
9.79

>  <PEOE_VSA4>
0

>  <PEOE_VSA5>
0

>  <PEOE_VSA6>
41.93

>  <PEOE_VSA7>
18.2

>  <PEOE_VSA8>
37.29

>  <PEOE_VSA9>
11.4

>  <PEOE_VSA10>
0

>  <PEOE_VSA11>
0

>  <PEOE_VSA12>
0

>  <PEOE_VSA13>
12.14

>  <SMR_VSA1>
14.33

>  <SMR_VSA2>
0

>  <SMR_VSA3>
4.9

>  <SMR_VSA4>
4.99

>  <SMR_VSA5>
6.23

>  <SMR_VSA6>
26.04

>  <SMR_VSA7>
64.68

>  <SMR_VSA8>
0

>  <SMR_VSA9>
0

>  <SlogP_VSA1>
4.9

>  <SlogP_VSA2>
49.98

>  <SlogP_VSA3>
9.53

>  <SlogP_VSA4>
0

>  <SlogP_VSA5>
11.13

>  <SlogP_VSA6>
53.52

>  <SlogP_VSA7>
5.02

>  <SlogP_VSA8>
0

>  <SlogP_VSA9>
0

>  <SlogP_VSA10>
10.48

>  <SlogP_VSA11>
0

>  <EState_VSA1>
18.23

>  <EState_VSA2>
0

>  <EState_VSA3>
21.99

>  <EState_VSA4>
5.56

>  <EState_VSA5>
9.8

>  <EState_VSA6>
39.34

>  <EState_VSA7>
30.33

>  <EState_VSA8>
4.99

>  <EState_VSA9>
16.34

>  <EState_VSA10>
9.59

>  <VSA_EState1>
5.3

>  <VSA_EState2>
31.96

>  <VSA_EState3>
0.52

>  <VSA_EState4>
2.68

>  <VSA_EState5>
-0.44

>  <VSA_EState6>
14.61

>  <VSA_EState7>
-1.92

>  <VSA_EState8>
0

>  <VSA_EState9>
4.71

>  <apol>
51.62

>  <bpol>
26.6

>  <nRing>
3

>  <nHRing>
1

>  <naRing>
2

>  <naHRing>
0

>  <nARing 2>
1

>  <nAHRing 2>
1

>  <nFRing>
1

>  <nFHRing>
1

>  <nFaRing>
0

>  <nFaHRing>
0

>  <nFARing 2>
1

>  <nFAHRing 2>
1

>  <nRot>
2

>  <SLogP>
3.18

>  <SMR>
100.9

>  <TopoPSA(NO)>
62.21

>  <TopoPSA>
62.21

>  <JGI1>
0.2

>  <JGI2>
0.09

>  <JGI3>
0.04

>  <JGI4>
0.05

>  <JGI5>
0.03

>  <Diameter>
10

>  <Radius>
5

>  <TMWC10>
130.16

>  <TSRW10>
69.19

>  <MW>
371.1

>  <AMW>
8.43

>  <WPath>
1503

>  <WPol>
47

>  <Zagreb1>
136

>  <Zagreb2>
161

>  <mZagreb2>
5.69

>  <yes>


>  <nAR-cont>
0.816016

>  <nHA-cont>
0.892715677

>  <MWHBN>
0.20764167

>  <MWHBN-cont>
0.999762048

>  <TPSA-cont>
0.56573557

>  <pka_cont>
0.97

>  <yes.1>


>  <BBB_SCORE>
4.824845889

>  <MMFF94 Energy>
57.339

$$$$
Compound 1303
Actelion Java MolfileCreator 2.0

  0  0  0  0  0  0              0 V3000
M  V30 BEGIN CTAB
M  V30 COUNTS 52 54 0 0 0
M  V30 BEGIN ATOM
M  V30 1 Cl -1.7775 -3.9623 3.0717 0
M  V30 2 C -0.7906 -2.7057 3.7245 0
M  V30 3 C -0.1209 -1.7758 2.9229 0
M  V30 4 C -0.6215 -2.667 5.1122 0
M  V30 5 C -0.2823 -1.7566 1.4539 0
M  V30 6 C 0.7148 -0.8131 3.5099 0
M  V30 7 C 0.2089 -1.707 5.6953 0
M  V30 8 O -1.3898 -1.6728 0.9374 0
M  V30 9 C 0.9154 -1.8097 0.5869 0
M  V30 10 C 0.8776 -0.782 4.8951 0
M  V30 11 C 1.0681 -0.9216 -0.4859 0
M  V30 12 C 1.8778 -2.8026 0.8059 0
M  V30 13 N 0.1526 0.1267 -0.6747 0
M  V30 14 C 2.1778 -1.0082 -1.3337 0
M  V30 15 C 2.9799 -2.8903 -0.0454 0
M  V30 16 N 0.1492 1.1752 0.1791 0
M  V30 17 C -0.7557 0.3142 -1.6874 0
M  V30 18 C 3.1323 -2.0023 -1.1115 0
M  V30 19 Cl 4.1624 -4.1112 0.2216 0
M  V30 20 C -0.7804 1.9877 -0.3654 0
M  V30 21 N -1.3306 1.4919 -1.5323 0
M  V30 22 C -1.0525 -0.6881 -2.7417 0
M  V30 23 C -1.1444 3.322 0.1771 0
M  V30 24 N -0.9017 -0.0572 -4.0291 0
M  V30 25 O -1.4091 4.2566 -0.583 0
M  V30 26 N -1.1688 3.4982 1.5715 0
M  V30 27 C 0.2188 -0.1748 -4.8105 0
M  V30 28 C -1.1283 2.4103 2.5346 0
M  V30 29 C -1.2865 4.8398 2.1102 0
M  V30 30 O 1.1976 -0.8457 -4.4953 0
M  V30 31 C 0.1673 0.6583 -6.0965 0
M  V30 32 N -1.226 0.9351 -6.4988 0
M  V30 33 H -1.1317 -3.3879 5.7475 0
M  V30 34 H 1.2271 -0.0725 2.8982 0
M  V30 35 H 0.3343 -1.6831 6.7759 0
M  V30 36 H 1.5216 -0.0332 5.3515 0
M  V30 37 H 1.7655 -3.5198 1.6152 0
M  V30 38 H 2.3144 -0.3118 -2.16 0
M  V30 39 H 3.9917 -2.0774 -1.7743 0
M  V30 40 H -0.419 -1.5769 -2.6853 0
M  V30 41 H -2.0958 -1.0089 -2.6579 0
M  V30 42 H -1.6096 0.5999 -4.351 0
M  V30 43 H -1.5065 1.4783 2.1095 0
M  V30 44 H -0.096 2.2822 2.8711 0
M  V30 45 H -1.757 2.6635 3.3942 0
M  V30 46 H -1.1848 5.607 1.3385 0
M  V30 47 H -0.5019 4.9898 2.8581 0
M  V30 48 H -2.2668 4.9418 2.5852 0
M  V30 49 H 0.6892 1.6017 -5.9103 0
M  V30 50 H 0.6795 0.111 -6.8934 0
M  V30 51 H -1.6618 0.0536 -6.7741 0
M  V30 52 H -1.2097 1.5106 -7.341 0
M  V30 END ATOM
M  V30 BEGIN BOND
M  V30 1 1 1 2
M  V30 2 2 2 3
M  V30 3 1 2 4
M  V30 4 1 3 5
M  V30 5 1 3 6
M  V30 6 2 4 7
M  V30 7 2 5 8
M  V30 8 1 5 9
M  V30 9 2 6 10
M  V30 10 2 9 11
M  V30 11 1 9 12
M  V30 12 1 11 13
M  V30 13 1 11 14
M  V30 14 2 12 15
M  V30 15 1 13 16
M  V30 16 1 13 17
M  V30 17 2 14 18
M  V30 18 1 15 19
M  V30 19 2 16 20
M  V30 20 2 17 21
M  V30 21 1 17 22
M  V30 22 1 20 23
M  V30 23 1 22 24
M  V30 24 2 23 25
M  V30 25 1 23 26
M  V30 26 1 24 27
M  V30 27 1 26 28
M  V30 28 1 26 29
M  V30 29 2 27 30
M  V30 30 1 27 31
M  V30 31 1 31 32
M  V30 32 1 7 10
M  V30 33 1 15 18
M  V30 34 1 20 21
M  V30 35 1 4 33
M  V30 36 1 6 34
M  V30 37 1 7 35
M  V30 38 1 10 36
M  V30 39 1 12 37
M  V30 40 1 14 38
M  V30 41 1 18 39
M  V30 42 1 22 40
M  V30 43 1 22 41
M  V30 44 1 24 42
M  V30 45 1 28 43
M  V30 46 1 28 44
M  V30 47 1 28 45
M  V30 48 1 29 46
M  V30 49 1 29 47
M  V30 50 1 29 48
M  V30 51 1 31 49
M  V30 52 1 31 50
M  V30 53 1 32 51
M  V30 54 1 32 52
M  V30 END BOND
M  V30 END CTAB
M  END
>  <Column 1>
1557

>  <level_0>
1710

>  <index>
1710

>  <Unnamed: 0>
1710

>  <NO.>
1722

>  <Name>
rilmazafone

>  <IUPAC_name>
5-[[(2-aminoacetyl)amino]methyl]-1-[4-chloro-2-(2-chlorobenzoyl)phenyl]-n-n-dimethyl-1-2-4-triazole-3-carboxamide

>  <SMILES>
CN(C)C(=O)c1nc(CNC(=O)CN)n(-c2ccc(Cl)cc2C(=O)c2ccccc2Cl)n1

>  <CID>
5069

>  <logBB>


>  <BBB+/BBB->
BBB+

>  <Inchi>
InChI=1S/C21H20Cl2N6O3/c1-28(2)21(32)20-26-17(11-25-18(30)10-24)29(27-20)16-8-7-12(22)9-14(16)19(31)13-5-3-4-6-15(13)23/h3-9H-10-11-24H2-1-2H3-(H-25-30)

>  <threshold>
-1

>  <reference>
R1|R13|R19|R6|R27|R27|R27|R30|R30|

>  <group>
B

>  <Class>
1

>  <ABC>
24.48

>  <ABCGG>
20.5

>  <nAcid>
0

>  <nBase>
1

>  <nAromAtom>
17

>  <nAromBond>
17

>  <nAtom>
52

>  <nHeavyAtom>
32

>  <nSpiro>
0

>  <nBridgehead>
0

>  <nHetero>
11

>  <nN>
6

>  <nO>
3

>  <nF>
0

>  <BalabanJ>
1.79

>  <BertzCT>
1192.03

>  <nBonds>
54

>  <nBondsO>
34

>  <nBondsS>
34

>  <nBondsD>
3

>  <nBondsT>
0

>  <nBondsA>
17

>  <nBondsM>
20

>  <nBondsKS>
43

>  <nBondsKD>
11

>  <RNCG>
0.12

>  <RPCG>
0.1

>  <FCSP3>
0.19

>  <SZ>
41

>  <Sm>
39.57

>  <Sv>
35.29

>  <Sse>
53.38

>  <Sp>
36.99

>  <Si>
58.83

>  <MZ>
0.79

>  <Mm>
0.76

>  <Mv>
0.68

>  <Mse>
1.03

>  <Mp>
0.71

>  <Mi>
1.13

>  <NsCH3>
2

>  <NdCH2>
0

>  <NssCH2>
2

>  <NtCH>
0

>  <NdsCH>
0

>  <NaaCH>
7

>  <NsssCH>
0

>  <NddC>
0

>  <NtsC>
0

>  <NdssC>
3

>  <NaasC>
7

>  <NaaaC>
0

>  <NssssC>
0

>  <NsNH3>
0

>  <NsNH2>
1

>  <NssNH2>
0

>  <NdNH>
0

>  <NssNH>
1

>  <NaaNH>
0

>  <NtN>
0

>  <NsssNH>
0

>  <NdsN>
0

>  <NaaN>
2

>  <NsssN>
1

>  <NddsN>
0

>  <NaasN>
1

>  <NssssN>
0

>  <NsOH>
0

>  <NdO>
3

>  <NssO>
0

>  <NaaO>
0

>  <NsF>
0

>  <NsSiH3>
0

>  <NssSiH2>
0

>  <NsssSiH>
0

>  <NssssSi>
0

>  <NsPH2>
0

>  <NssPH>
0

>  <NsssP>
0

>  <NdsssP>
0

>  <NsssssP>
0

>  <NsSH>
0

>  <NdS>
0

>  <NssS>
0

>  <NaaS>
0

>  <NdssS>
0

>  <NddssS>
0

>  <NsCl>
2

>  <NsBr>
0

>  <NsI>
0

>  <fragCpx>
164.11

>  <fMF>
0.35

>  <nHBAcc>
7

>  <nHBDon>
2

>  <Kier1>
26.6

>  <Kier2>
12.11

>  <Lipinski>
1

>  <GhoseFilter>
1

>  <FilterItLogS>
-5.55

>  <VMcGowan>
328.84

>  <LabuteASA>
193.67

>  <PEOE_VSA1>
15.95

>  <PEOE_VSA2>
14.38

>  <PEOE_VSA3>
9.67

>  <PEOE_VSA4>
0

>  <PEOE_VSA5>
5.1

>  <PEOE_VSA6>
35.33

>  <PEOE_VSA7>
30.33

>  <PEOE_VSA8>
30.24

>  <PEOE_VSA9>
23.8

>  <PEOE_VSA10>
0

>  <PEOE_VSA11>
11.61

>  <PEOE_VSA12>
11.73

>  <PEOE_VSA13>
5.91

>  <SMR_VSA1>
14.38

>  <SMR_VSA2>
0

>  <SMR_VSA3>
24.98

>  <SMR_VSA4>
5.73

>  <SMR_VSA5>
6.54

>  <SMR_VSA6>
20.64

>  <SMR_VSA7>
75.29

>  <SMR_VSA8>
0

>  <SMR_VSA9>
5.69

>  <SlogP_VSA1>
11.05

>  <SlogP_VSA2>
57.9

>  <SlogP_VSA3>
11.34

>  <SlogP_VSA4>
0

>  <SlogP_VSA5>
32.36

>  <SlogP_VSA6>
42.46

>  <SlogP_VSA7>
10.05

>  <SlogP_VSA8>
5.69

>  <SlogP_VSA9>
0

>  <SlogP_VSA10>
0

>  <SlogP_VSA11>
0

>  <EState_VSA1>
11.81

>  <EState_VSA2>
46.67

>  <EState_VSA3>
10.71

>  <EState_VSA4>
0

>  <EState_VSA5>
15.65

>  <EState_VSA6>
50.49

>  <EState_VSA7>
0

>  <EState_VSA8>
15.4

>  <EState_VSA9>
28.94

>  <EState_VSA10>
14.38

>  <VSA_EState1>
1.33

>  <VSA_EState2>
43.02

>  <VSA_EState3>
7.5

>  <VSA_EState4>
6.15

>  <VSA_EState5>
-1.11

>  <VSA_EState6>
11.26

>  <VSA_EState7>
0

>  <VSA_EState8>
-0.28

>  <VSA_EState9>
3.13

>  <apol>
61.77

>  <bpol>
28.25

>  <nRing>
3

>  <nHRing>
1

>  <naRing>
3

>  <naHRing>
1

>  <nARing 2>
0

>  <nAHRing 2>
0

>  <nFRing>
0

>  <nFHRing>
0

>  <nFaRing>
0

>  <nFaHRing>
0

>  <nFARing 2>
0

>  <nFAHRing 2>
0

>  <nRot>
7

>  <SLogP>
2.08

>  <SMR>
120.17

>  <TopoPSA(NO)>
123.21

>  <TopoPSA>
123.21

>  <JGI1>
0.21

>  <JGI2>
0.09

>  <JGI3>
0.05

>  <JGI4>
0.04

>  <JGI5>
0.03

>  <Diameter>
13

>  <Radius>
7

>  <TMWC10>
143.7

>  <TSRW10>
81.88

>  <MW>
474.1

>  <AMW>
9.12

>  <WPath>
2821

>  <WPol>
52

>  <Zagreb1>
164

>  <Zagreb2>
193

>  <mZagreb2>
7.14

>  <yes>


>  <nAR-cont>
0.336376

>  <nHA-cont>
0.658856097

>  <MWHBN>
0.413340092

>  <MWHBN-cont>
0.423788106

>  <TPSA-cont>
0

>  <pka_cont>
0.97

>  <yes.1>


>  <BBB_SCORE>
2.115914256

>  <MMFF94 Energy>
133.08

$$$$
Compound 1304
Actelion Java MolfileCreator 2.0

  0  0  0  0  0  0              0 V3000
M  V30 BEGIN CTAB
M  V30 COUNTS 33 33 0 0 0
M  V30 BEGIN ATOM
M  V30 1 Cl -2.09 2.4118 -3.5389 0
M  V30 2 C -1.6042 2.5142 -1.8833 0
M  V30 3 C -1.3543 3.7349 -1.2498 0
M  V30 4 C -1.4647 1.3188 -1.1696 0
M  V30 5 Cl -1.5061 5.2523 -2.0628 0
M  V30 6 C -0.9673 3.7528 0.0925 0
M  V30 7 C -1.0706 1.3257 0.1766 0
M  V30 8 C -0.8279 2.5569 0.8014 0
M  V30 9 C -0.9183 0.0287 0.9484 0
M  V30 10 C 0.3832 -0.8215 0.6789 0 CFG=2
M  V30 11 N 0.3983 -1.2813 -0.7477 0
M  V30 12 C 0.3584 -1.9893 1.7309 0
M  V30 13 C 1.6032 0.0832 1.0045 0
M  V30 14 C 1.7142 -1.6119 -1.2972 0
M  V30 15 C -0.5253 -2.3847 -1.034 0
M  V30 16 O 1.4343 -2.9144 1.6046 0
M  V30 17 H -1.6566 0.3721 -1.6702 0
M  V30 18 H -0.7717 4.6975 0.5945 0
M  V30 19 H -0.5242 2.5958 1.8458 0
M  V30 20 H -1.8185 -0.5745 0.7732 0
M  V30 21 H -0.964 0.2685 2.021 0
M  V30 22 H 0.3949 -1.5854 2.75 0
M  V30 23 H -0.573 -2.5616 1.659 0
M  V30 24 H 2.5498 -0.4663 0.9863 0
M  V30 25 H 1.6947 0.9138 0.2957 0
M  V30 26 H 1.51 0.5178 2.0072 0
M  V30 27 H 2.3771 -0.7412 -1.3071 0
M  V30 28 H 1.626 -1.9131 -2.3482 0
M  V30 29 H 2.2066 -2.4273 -0.7596 0
M  V30 30 H -0.1971 -3.333 -0.595 0
M  V30 31 H -1.5396 -2.1724 -0.6841 0
M  V30 32 H -0.6103 -2.532 -2.1172 0
M  V30 33 H 2.2658 -2.4265 1.7188 0
M  V30 END ATOM
M  V30 BEGIN BOND
M  V30 1 1 1 2
M  V30 2 2 2 3
M  V30 3 1 2 4
M  V30 4 1 3 5
M  V30 5 1 3 6
M  V30 6 2 4 7
M  V30 7 2 6 8
M  V30 8 1 7 9
M  V30 9 1 9 10
M  V30 10 1 10 11
M  V30 11 1 10 12
M  V30 12 1 10 13
M  V30 13 1 11 14
M  V30 14 1 11 15
M  V30 15 1 12 16
M  V30 16 1 7 8
M  V30 17 1 4 17
M  V30 18 1 6 18
M  V30 19 1 8 19
M  V30 20 1 9 20
M  V30 21 1 9 21
M  V30 22 1 12 22
M  V30 23 1 12 23
M  V30 24 1 13 24
M  V30 25 1 13 25
M  V30 26 1 13 26
M  V30 27 1 14 27
M  V30 28 1 14 28
M  V30 29 1 14 29
M  V30 30 1 15 30
M  V30 31 1 15 31
M  V30 32 1 15 32
M  V30 33 1 16 33
M  V30 END BOND
M  V30 BEGIN COLLECTION
M  V30 MDLV30/STERAC1 ATOMS=(1 10)
M  V30 END COLLECTION
M  V30 END CTAB
M  END
>  <Column 1>
1558

>  <level_0>
1711

>  <index>
1711

>  <Unnamed: 0>
1711

>  <NO.>
1723

>  <Name>
cericlamine

>  <IUPAC_name>
3-(3-4-dichlorophenyl)-2-(dimethylamino)-2-methylpropan-1-ol;hydron;chloride

>  <SMILES>
CN(C)C(C)(CO)Cc1ccc(Cl)c(Cl)c1

>  <CID>
131074

>  <logBB>


>  <BBB+/BBB->
BBB+

>  <Inchi>
InChI=1S/C12H17Cl2NO/c1-12(8-16-15(2)3)7-9-4-5-10(13)11(14)6-9/h4-6-16H-7-8H2-1-3H3

>  <threshold>
-1

>  <reference>
R1|R13|R19|R6|R27|R27|R30|

>  <group>
B

>  <Class>
1

>  <ABC>
11.81

>  <ABCGG>
11.14

>  <nAcid>
0

>  <nBase>
1

>  <nAromAtom>
6

>  <nAromBond>
6

>  <nAtom>
33

>  <nHeavyAtom>
16

>  <nSpiro>
0

>  <nBridgehead>
0

>  <nHetero>
4

>  <nN>
1

>  <nO>
1

>  <nF>
0

>  <BalabanJ>
2.53

>  <BertzCT>
368.04

>  <nBonds>
33

>  <nBondsO>
16

>  <nBondsS>
27

>  <nBondsD>
0

>  <nBondsT>
0

>  <nBondsA>
6

>  <nBondsM>
6

>  <nBondsKS>
30

>  <nBondsKD>
3

>  <RNCG>
0.35

>  <RPCG>
0.19

>  <FCSP3>
0.5

>  <SZ>
23

>  <Sm>
21.83

>  <Sv>
20.26

>  <Sse>
33.07

>  <Sp>
22.54

>  <Si>
37.33

>  <MZ>
0.7

>  <Mm>
0.66

>  <Mv>
0.61

>  <Mse>
1

>  <Mp>
0.68

>  <Mi>
1.13

>  <NsCH3>
3

>  <NdCH2>
0

>  <NssCH2>
2

>  <NtCH>
0

>  <NdsCH>
0

>  <NaaCH>
3

>  <NsssCH>
0

>  <NddC>
0

>  <NtsC>
0

>  <NdssC>
0

>  <NaasC>
3

>  <NaaaC>
0

>  <NssssC>
1

>  <NsNH3>
0

>  <NsNH2>
0

>  <NssNH2>
0

>  <NdNH>
0

>  <NssNH>
0

>  <NaaNH>
0

>  <NtN>
0

>  <NsssNH>
0

>  <NdsN>
0

>  <NaaN>
0

>  <NsssN>
1

>  <NddsN>
0

>  <NaasN>
0

>  <NssssN>
0

>  <NsOH>
1

>  <NdO>
0

>  <NssO>
0

>  <NaaO>
0

>  <NsF>
0

>  <NsSiH3>
0

>  <NssSiH2>
0

>  <NsssSiH>
0

>  <NssssSi>
0

>  <NsPH2>
0

>  <NssPH>
0

>  <NsssP>
0

>  <NdsssP>
0

>  <NsssssP>
0

>  <NsSH>
0

>  <NdS>
0

>  <NssS>
0

>  <NaaS>
0

>  <NdssS>
0

>  <NddssS>
0

>  <NsCl>
2

>  <NsBr>
0

>  <NsI>
0

>  <fragCpx>
16.04

>  <fMF>
0.18

>  <nHBAcc>
2

>  <nHBDon>
1

>  <Kier1>
14.06

>  <Kier2>
5.56

>  <Lipinski>
1

>  <GhoseFilter>
1

>  <FilterItLogS>
-3.96

>  <VMcGowan>
196.51

>  <LabuteASA>
106.78

>  <PEOE_VSA1>
10.01

>  <PEOE_VSA2>
0

>  <PEOE_VSA3>
0

>  <PEOE_VSA4>
0

>  <PEOE_VSA5>
0

>  <PEOE_VSA6>
29.27

>  <PEOE_VSA7>
45.14

>  <PEOE_VSA8>
5.54

>  <PEOE_VSA9>
16.65

>  <PEOE_VSA10>
0

>  <PEOE_VSA11>
0

>  <PEOE_VSA12>
0

>  <PEOE_VSA13>
0

>  <SMR_VSA1>
5.11

>  <SMR_VSA2>
0

>  <SMR_VSA3>
4.9

>  <SMR_VSA4>
0

>  <SMR_VSA5>
18.88

>  <SMR_VSA6>
20.7

>  <SMR_VSA7>
33.81

>  <SMR_VSA8>
0

>  <SMR_VSA9>
0

>  <SlogP_VSA1>
0

>  <SlogP_VSA2>
36.25

>  <SlogP_VSA3>
6.42

>  <SlogP_VSA4>
0

>  <SlogP_VSA5>
12.49

>  <SlogP_VSA6>
18.2

>  <SlogP_VSA7>
10.05

>  <SlogP_VSA8>
0

>  <SlogP_VSA9>
0

>  <SlogP_VSA10>
0

>  <SlogP_VSA11>
0

>  <EState_VSA1>
0

>  <EState_VSA2>
12.15

>  <EState_VSA3>
10.05

>  <EState_VSA4>
11.98

>  <EState_VSA5>
0

>  <EState_VSA6>
6.07

>  <EState_VSA7>
38.05

>  <EState_VSA8>
0

>  <EState_VSA9>
23.2

>  <EState_VSA10>
5.11

>  <VSA_EState1>
0

>  <VSA_EState2>
2.01

>  <VSA_EState3>
10.55

>  <VSA_EState4>
0.79

>  <VSA_EState5>
0

>  <VSA_EState6>
5.57

>  <VSA_EState7>
0.73

>  <VSA_EState8>
2.11

>  <VSA_EState9>
3.9

>  <apol>
37.64

>  <bpol>
19.78

>  <nRing>
1

>  <nHRing>
0

>  <naRing>
1

>  <naHRing>
0

>  <nARing 2>
0

>  <nAHRing 2>
0

>  <nFRing>
0

>  <nFHRing>
0

>  <nFaRing>
0

>  <nFaHRing>
0

>  <nFARing 2>
0

>  <nFAHRing 2>
0

>  <nRot>
4

>  <SLogP>
2.85

>  <SMR>
69.34

>  <TopoPSA(NO)>
23.47

>  <TopoPSA>
23.47

>  <JGI1>
0.34

>  <JGI2>
0.13

>  <JGI3>
0.05

>  <JGI4>
0.05

>  <JGI5>
0.03

>  <Diameter>
8

>  <Radius>
4

>  <TMWC10>
101.85

>  <TSRW10>
48.28

>  <MW>
261.07

>  <AMW>
7.91

>  <WPath>
442

>  <WPol>
24

>  <Zagreb1>
78

>  <Zagreb2>
89

>  <mZagreb2>
3.61

>  <yes>


>  <nAR-cont>
0.336376

>  <nHA-cont>
0.954961865

>  <MWHBN>
0.185670442

>  <MWHBN-cont>
0.992536042

>  <TPSA-cont>
0.836164826

>  <pka_cont>
0.97

>  <yes.1>


>  <BBB_SCORE>
4.93747158

>  <MMFF94 Energy>
81.744

$$$$
Compound 1305
Actelion Java MolfileCreator 2.0

  0  0  0  0  0  0              0 V3000
M  V30 BEGIN CTAB
M  V30 COUNTS 36 37 0 0 0
M  V30 BEGIN ATOM
M  V30 1 Br 6.3313 -1.0397 -1.76 0
M  V30 2 C 4.5182 -0.8465 -1.2622 0
M  V30 3 C 4.1617 0.0936 -0.2986 0
M  V30 4 C 3.5469 -1.6425 -1.8643 0
M  V30 5 C 2.8202 0.2357 0.0677 0
M  V30 6 C 2.2058 -1.4988 -1.4961 0
M  V30 7 C 1.8279 -0.5654 -0.5194 0
M  V30 8 C 0.3936 -0.4073 -0.1589 0
M  V30 9 C -0.661 -0.2375 -1.1791 0
M  V30 10 C 0.0697 -0.4123 1.1536 0
M  V30 11 C -0.754 0.9382 -1.9186 0
M  V30 12 C -1.5841 -1.2489 -1.4589 0
M  V30 13 C -1.283 -0.2162 1.7847 0
M  V30 14 N -1.6889 1.1658 -2.8728 0
M  V30 15 C -2.5542 -1.0449 -2.4373 0
M  V30 16 N -1.2496 0.8604 2.7883 0
M  V30 17 C -2.5665 0.1672 -3.1088 0
M  V30 18 C -2.4558 0.808 3.6182 0
M  V30 19 C -1.1522 2.177 2.1487 0
M  V30 20 H 4.9142 0.7221 0.1699 0
M  V30 21 H 3.8189 -2.374 -2.6203 0
M  V30 22 H 2.5548 0.9843 0.8118 0
M  V30 23 H 1.4595 -2.127 -1.9771 0
M  V30 24 H 0.8569 -0.5701 1.8913 0
M  V30 25 H -0.0597 1.7589 -1.7579 0
M  V30 26 H -1.5486 -2.1926 -0.9212 0
M  V30 27 H -2.078 -0.0328 1.0542 0
M  V30 28 H -1.5261 -1.1659 2.2795 0
M  V30 29 H -3.2819 -1.8135 -2.6718 0
M  V30 30 H -3.304 0.3724 -3.8797 0
M  V30 31 H -2.5186 -0.1496 4.1469 0
M  V30 32 H -3.3709 0.9381 3.0287 0
M  V30 33 H -2.4276 1.5868 4.3887 0
M  V30 34 H -1.993 2.3729 1.4732 0
M  V30 35 H -0.2217 2.2746 1.5796 0
M  V30 36 H -1.1302 2.9688 2.9064 0
M  V30 END ATOM
M  V30 BEGIN BOND
M  V30 1 1 1 2
M  V30 2 2 2 3
M  V30 3 1 2 4
M  V30 4 1 3 5
M  V30 5 2 4 6
M  V30 6 2 5 7
M  V30 7 1 7 8
M  V30 8 1 8 9
M  V30 9 2 8 10
M  V30 10 2 9 11
M  V30 11 1 9 12
M  V30 12 1 10 13
M  V30 13 1 11 14
M  V30 14 2 12 15
M  V30 15 1 13 16
M  V30 16 2 14 17
M  V30 17 1 16 18
M  V30 18 1 16 19
M  V30 19 1 6 7
M  V30 20 1 15 17
M  V30 21 1 3 20
M  V30 22 1 4 21
M  V30 23 1 5 22
M  V30 24 1 6 23
M  V30 25 1 10 24
M  V30 26 1 11 25
M  V30 27 1 12 26
M  V30 28 1 13 27
M  V30 29 1 13 28
M  V30 30 1 15 29
M  V30 31 1 17 30
M  V30 32 1 18 31
M  V30 33 1 18 32
M  V30 34 1 18 33
M  V30 35 1 19 34
M  V30 36 1 19 35
M  V30 37 1 19 36
M  V30 END BOND
M  V30 END CTAB
M  END
>  <Column 1>
1559

>  <level_0>
1712

>  <index>
1712

>  <Unnamed: 0>
1712

>  <NO.>
1724

>  <Name>
zimeldine

>  <IUPAC_name>
(z)-3-(4-bromophenyl)-n-n-dimethyl-3-pyridin-3-ylprop-2-en-1-amine

>  <SMILES>
CN(C)C/C=C(/c1ccc(Br)cc1)c1cccnc1

>  <CID>
5365247

>  <logBB>


>  <BBB+/BBB->
BBB+

>  <Inchi>
InChI=1S/C16H17BrN2/c1-19(2)11-9-16(14-4-3-10-18-12-14)13-5-7-15(17)8-6-13/h3-10-12H-11H2-1-2H3/b16-9-

>  <threshold>
-1

>  <reference>
R1|R1|R7|R13|R6|R24|R27|R27|R27|R29|R30|R30|R30|

>  <group>
B

>  <Class>
1

>  <ABC>
14.39

>  <ABCGG>
12.22

>  <nAcid>
0

>  <nBase>
1

>  <nAromAtom>
12

>  <nAromBond>
12

>  <nAtom>
36

>  <nHeavyAtom>
19

>  <nSpiro>
0

>  <nBridgehead>
0

>  <nHetero>
3

>  <nN>
2

>  <nO>
0

>  <nF>
0

>  <BalabanJ>
1.92

>  <BertzCT>
544.72

>  <nBonds>
37

>  <nBondsO>
20

>  <nBondsS>
24

>  <nBondsD>
1

>  <nBondsT>
0

>  <nBondsA>
12

>  <nBondsM>
13

>  <nBondsKS>
30

>  <nBondsKD>
7

>  <RNCG>
0.3

>  <RPCG>
0.08

>  <FCSP3>
0.19

>  <SZ>
27

>  <Sm>
26.41

>  <Sv>
23.41

>  <Sse>
35.55

>  <Sp>
25.93

>  <Si>
40.16

>  <MZ>
0.75

>  <Mm>
0.73

>  <Mv>
0.65

>  <Mse>
0.99

>  <Mp>
0.72

>  <Mi>
1.12

>  <NsCH3>
2

>  <NdCH2>
0

>  <NssCH2>
1

>  <NtCH>
0

>  <NdsCH>
1

>  <NaaCH>
8

>  <NsssCH>
0

>  <NddC>
0

>  <NtsC>
0

>  <NdssC>
1

>  <NaasC>
3

>  <NaaaC>
0

>  <NssssC>
0

>  <NsNH3>
0

>  <NsNH2>
0

>  <NssNH2>
0

>  <NdNH>
0

>  <NssNH>
0

>  <NaaNH>
0

>  <NtN>
0

>  <NsssNH>
0

>  <NdsN>
0

>  <NaaN>
1

>  <NsssN>
1

>  <NddsN>
0

>  <NaasN>
0

>  <NssssN>
0

>  <NsOH>
0

>  <NdO>
0

>  <NssO>
0

>  <NaaO>
0

>  <NsF>
0

>  <NsSiH3>
0

>  <NssSiH2>
0

>  <NsssSiH>
0

>  <NssssSi>
0

>  <NsPH2>
0

>  <NssPH>
0

>  <NsssP>
0

>  <NdsssP>
0

>  <NsssssP>
0

>  <NsSH>
0

>  <NdS>
0

>  <NssS>
0

>  <NaaS>
0

>  <NdssS>
0

>  <NddssS>
0

>  <NsCl>
0

>  <NsBr>
1

>  <NsI>
0

>  <fragCpx>
58.03

>  <fMF>
0.36

>  <nHBAcc>
2

>  <nHBDon>
0

>  <Kier1>
15.39

>  <Kier2>
7.7

>  <Lipinski>
1

>  <GhoseFilter>
1

>  <FilterItLogS>
-4.77

>  <VMcGowan>
221.94

>  <LabuteASA>
122.47

>  <PEOE_VSA1>
4.9

>  <PEOE_VSA2>
4.98

>  <PEOE_VSA3>
0

>  <PEOE_VSA4>
0

>  <PEOE_VSA5>
0

>  <PEOE_VSA6>
40.21

>  <PEOE_VSA7>
43.43

>  <PEOE_VSA8>
28.97

>  <PEOE_VSA9>
0

>  <PEOE_VSA10>
0

>  <PEOE_VSA11>
0

>  <PEOE_VSA12>
0

>  <PEOE_VSA13>
0

>  <SMR_VSA1>
0

>  <SMR_VSA2>
0

>  <SMR_VSA3>
9.88

>  <SMR_VSA4>
0

>  <SMR_VSA5>
0

>  <SMR_VSA6>
20.64

>  <SMR_VSA7>
70.47

>  <SMR_VSA8>
0

>  <SMR_VSA9>
0

>  <SlogP_VSA1>
0

>  <SlogP_VSA2>
30.52

>  <SlogP_VSA3>
0

>  <SlogP_VSA4>
0

>  <SlogP_VSA5>
11.13

>  <SlogP_VSA6>
59.34

>  <SlogP_VSA7>
0

>  <SlogP_VSA8>
5.57

>  <SlogP_VSA9>
0

>  <SlogP_VSA10>
0

>  <SlogP_VSA11>
0

>  <EState_VSA1>
0

>  <EState_VSA2>
0

>  <EState_VSA3>
0

>  <EState_VSA4>
16.58

>  <EState_VSA5>
11.14

>  <EState_VSA6>
6.2

>  <EState_VSA7>
12.26

>  <EState_VSA8>
76.32

>  <EState_VSA9>
0

>  <EState_VSA10>
0

>  <VSA_EState1>
1.09

>  <VSA_EState2>
6.36

>  <VSA_EState3>
0

>  <VSA_EState4>
3.57

>  <VSA_EState5>
0

>  <VSA_EState6>
12.44

>  <VSA_EState7>
5.94

>  <VSA_EState8>
0.9

>  <VSA_EState9>
4.14

>  <apol>
43.31

>  <bpol>
21.28

>  <nRing>
2

>  <nHRing>
1

>  <naRing>
2

>  <naHRing>
1

>  <nARing 2>
0

>  <nAHRing 2>
0

>  <nFRing>
0

>  <nFHRing>
0

>  <nFaRing>
0

>  <nFaHRing>
0

>  <nFARing 2>
0

>  <nFAHRing 2>
0

>  <nRot>
4

>  <SLogP>
3.84

>  <SMR>
84.01

>  <TopoPSA(NO)>
16.13

>  <TopoPSA>
16.13

>  <JGI1>
0.18

>  <JGI2>
0.08

>  <JGI3>
0.04

>  <JGI4>
0.02

>  <JGI5>
0.02

>  <Diameter>
9

>  <Radius>
5

>  <TMWC10>
109.75

>  <TSRW10>
51.68

>  <MW>
316.06

>  <AMW>
8.78

>  <WPath>
718

>  <WPol>
25

>  <Zagreb1>
92

>  <Zagreb2>
103

>  <mZagreb2>
4.31

>  <yes>


>  <nAR-cont>
0.336376

>  <nHA-cont>
0.998649058

>  <MWHBN>
0.11249811

>  <MWHBN-cont>
0.795303754

>  <TPSA-cont>
0.887402584

>  <pka_cont>
0.97

>  <yes.1>


>  <BBB_SCORE>
4.787785856

>  <MMFF94 Energy>
49.622

$$$$
Compound 1306
Actelion Java MolfileCreator 2.0

  0  0  0  0  0  0              0 V3000
M  V30 BEGIN CTAB
M  V30 COUNTS 27 28 0 0 0
M  V30 BEGIN ATOM
M  V30 1 O -1.5048 -0.475 -2.6941 0
M  V30 2 C -1.0557 -0.7392 -1.5865 0
M  V30 3 N -1.7727 -1.2843 -0.5581 0
M  V30 4 C 0.3835 -0.5448 -1.1568 0 CFG=2
M  V30 5 C -0.9376 -1.4375 0.4069 0
M  V30 6 O 0.3455 -1.0542 0.183 0
M  V30 7 C 0.8735 0.8862 -1.2214 0
M  V30 8 N -1.1777 -1.9464 1.6534 0
M  V30 9 C 1.2067 1.6154 -0.0688 0
M  V30 10 C 1.0207 1.5116 -2.4711 0
M  V30 11 C -0.1649 -1.9455 2.6944 0
M  V30 12 C -2.5333 -2.2958 2.0464 0
M  V30 13 C 1.6665 2.9311 -0.1636 0
M  V30 14 C 1.4793 2.8271 -2.5641 0
M  V30 15 C 1.8021 3.5363 -1.4103 0
M  V30 16 H 1.036 -1.2012 -1.7426 0
M  V30 17 H 1.1124 1.1688 0.9187 0
M  V30 18 H 0.7676 0.9796 -3.3875 0
M  V30 19 H 0.7548 -2.4241 2.3418 0
M  V30 20 H 0.0661 -0.9188 2.9972 0
M  V30 21 H -0.4916 -2.4925 3.5851 0
M  V30 22 H -3.0776 -2.7691 1.222 0
M  V30 23 H -3.0787 -1.3982 2.3551 0
M  V30 24 H -2.54 -3.0063 2.8797 0
M  V30 25 H 1.9179 3.4841 0.7377 0
M  V30 26 H 1.58 3.2985 -3.5384 0
M  V30 27 H 2.1571 4.5609 -1.4829 0
M  V30 END ATOM
M  V30 BEGIN BOND
M  V30 1 2 1 2
M  V30 2 1 2 3
M  V30 3 1 2 4
M  V30 4 2 3 5
M  V30 5 1 4 6
M  V30 6 1 4 7
M  V30 7 1 5 8
M  V30 8 2 7 9
M  V30 9 1 7 10
M  V30 10 1 8 11
M  V30 11 1 8 12
M  V30 12 1 9 13
M  V30 13 2 10 14
M  V30 14 2 13 15
M  V30 15 1 5 6
M  V30 16 1 14 15
M  V30 17 1 4 16
M  V30 18 1 9 17
M  V30 19 1 10 18
M  V30 20 1 11 19
M  V30 21 1 11 20
M  V30 22 1 11 21
M  V30 23 1 12 22
M  V30 24 1 12 23
M  V30 25 1 12 24
M  V30 26 1 13 25
M  V30 27 1 14 26
M  V30 28 1 15 27
M  V30 END BOND
M  V30 BEGIN COLLECTION
M  V30 MDLV30/STERAC1 ATOMS=(1 4)
M  V30 END COLLECTION
M  V30 END CTAB
M  END
>  <Column 1>
1560

>  <level_0>
1713

>  <index>
1713

>  <Unnamed: 0>
1713

>  <NO.>
1725

>  <Name>
thozalinone

>  <IUPAC_name>
2-(dimethylamino)-5-phenyl-1-3-oxazol-4-one

>  <SMILES>
CN(C)C1=NC(=O)C(c2ccccc2)O1

>  <CID>
12602

>  <logBB>


>  <BBB+/BBB->
BBB+

>  <Inchi>
InChI=1S/C11H12N2O2/c1-13(2)11-12-10(14)9(15-11)8-6-4-3-5-7-8/h3-7-9H-1-2H3

>  <threshold>
-1

>  <reference>
R1|R19|R6|R27|R27|R30|

>  <group>
B

>  <Class>
-1

>  <ABC>
11.52

>  <ABCGG>
10.39

>  <nAcid>
0

>  <nBase>
2

>  <nAromAtom>
6

>  <nAromBond>
6

>  <nAtom>
27

>  <nHeavyAtom>
15

>  <nSpiro>
0

>  <nBridgehead>
0

>  <nHetero>
4

>  <nN>
2

>  <nO>
2

>  <nF>
0

>  <BalabanJ>
1.91

>  <BertzCT>
398.31

>  <nBonds>
28

>  <nBondsO>
16

>  <nBondsS>
20

>  <nBondsD>
2

>  <nBondsT>
0

>  <nBondsA>
6

>  <nBondsM>
8

>  <nBondsKS>
23

>  <nBondsKD>
5

>  <RNCG>
0.3

>  <RPCG>
0.2

>  <FCSP3>
0.27

>  <SZ>
18

>  <Sm>
17

>  <Sv>
17.2

>  <Sse>
27.31

>  <Sp>
18.07

>  <Si>
30.49

>  <MZ>
0.67

>  <Mm>
0.63

>  <Mv>
0.64

>  <Mse>
1.01

>  <Mp>
0.67

>  <Mi>
1.13

>  <NsCH3>
2

>  <NdCH2>
0

>  <NssCH2>
0

>  <NtCH>
0

>  <NdsCH>
0

>  <NaaCH>
5

>  <NsssCH>
1

>  <NddC>
0

>  <NtsC>
0

>  <NdssC>
2

>  <NaasC>
1

>  <NaaaC>
0

>  <NssssC>
0

>  <NsNH3>
0

>  <NsNH2>
0

>  <NssNH2>
0

>  <NdNH>
0

>  <NssNH>
0

>  <NaaNH>
0

>  <NtN>
0

>  <NsssNH>
0

>  <NdsN>
1

>  <NaaN>
0

>  <NsssN>
1

>  <NddsN>
0

>  <NaasN>
0

>  <NssssN>
0

>  <NsOH>
0

>  <NdO>
1

>  <NssO>
1

>  <NaaO>
0

>  <NsF>
0

>  <NsSiH3>
0

>  <NssSiH2>
0

>  <NsssSiH>
0

>  <NssssSi>
0

>  <NsPH2>
0

>  <NssPH>
0

>  <NsssP>
0

>  <NdsssP>
0

>  <NsssssP>
0

>  <NsSH>
0

>  <NdS>
0

>  <NssS>
0

>  <NaaS>
0

>  <NdssS>
0

>  <NddssS>
0

>  <NsCl>
0

>  <NsBr>
0

>  <NsI>
0

>  <fragCpx>
46.04

>  <fMF>
0.41

>  <nHBAcc>
3

>  <nHBDon>
0

>  <Kier1>
11.48

>  <Kier2>
4.89

>  <Lipinski>
1

>  <GhoseFilter>
1

>  <FilterItLogS>
-2.02

>  <VMcGowan>
154.33

>  <LabuteASA>
88.18

>  <PEOE_VSA1>
9.64

>  <PEOE_VSA2>
4.79

>  <PEOE_VSA3>
0

>  <PEOE_VSA4>
4.99

>  <PEOE_VSA5>
0

>  <PEOE_VSA6>
30.33

>  <PEOE_VSA7>
0

>  <PEOE_VSA8>
19.66

>  <PEOE_VSA9>
0

>  <PEOE_VSA10>
0

>  <PEOE_VSA11>
0

>  <PEOE_VSA12>
6.1

>  <PEOE_VSA13>
11.93

>  <SMR_VSA1>
9.53

>  <SMR_VSA2>
0

>  <SMR_VSA3>
4.9

>  <SMR_VSA4>
4.99

>  <SMR_VSA5>
6.1

>  <SMR_VSA6>
14.1

>  <SMR_VSA7>
35.9

>  <SMR_VSA8>
0

>  <SMR_VSA9>
0

>  <SlogP_VSA1>
0

>  <SlogP_VSA2>
30.92

>  <SlogP_VSA3>
9.53

>  <SlogP_VSA4>
0

>  <SlogP_VSA5>
11.67

>  <SlogP_VSA6>
35.32

>  <SlogP_VSA7>
0

>  <SlogP_VSA8>
0

>  <SlogP_VSA9>
0

>  <SlogP_VSA10>
0

>  <SlogP_VSA11>
0

>  <EState_VSA1>
6.1

>  <EState_VSA2>
5.91

>  <EState_VSA3>
6.02

>  <EState_VSA4>
5.56

>  <EState_VSA5>
0

>  <EState_VSA6>
19

>  <EState_VSA7>
30.33

>  <EState_VSA8>
4.99

>  <EState_VSA9>
4.74

>  <EState_VSA10>
4.79

>  <VSA_EState1>
5.45

>  <VSA_EState2>
17.06

>  <VSA_EState3>
0

>  <VSA_EState4>
0.84

>  <VSA_EState5>
-0.25

>  <VSA_EState6>
9.73

>  <VSA_EState7>
-0.58

>  <VSA_EState8>
0

>  <VSA_EState9>
3.58

>  <apol>
30.18

>  <bpol>
17.49

>  <nRing>
2

>  <nHRing>
1

>  <naRing>
1

>  <naHRing>
0

>  <nARing 2>
1

>  <nAHRing 2>
1

>  <nFRing>
0

>  <nFHRing>
0

>  <nFaRing>
0

>  <nFaHRing>
0

>  <nFARing 2>
0

>  <nFAHRing 2>
0

>  <nRot>
1

>  <SLogP>
1.2

>  <SMR>
56.4

>  <TopoPSA(NO)>
41.9

>  <TopoPSA>
41.9

>  <JGI1>
0.19

>  <JGI2>
0.08

>  <JGI3>
0.06

>  <JGI4>
0.05

>  <JGI5>
0.03

>  <Diameter>
8

>  <Radius>
4

>  <TMWC10>
101.06

>  <TSRW10>
60.86

>  <MW>
204.09

>  <AMW>
7.56

>  <WPath>
363

>  <WPol>
20

>  <Zagreb1>
76

>  <Zagreb2>
88

>  <mZagreb2>
3.33

>  <yes>


>  <nAR-cont>
0.816016

>  <nHA-cont>
0.92539861

>  <MWHBN>
0.209995695

>  <MWHBN-cont>
0.999318482

>  <TPSA-cont>
0.707511982

>  <pka_cont>
0.97

>  <yes.1>


>  <BBB_SCORE>
5.140416296

>  <MMFF94 Energy>
-12.118

$$$$
Compound 1307
Actelion Java MolfileCreator 2.0

  0  0  0  0  0  0              0 V3000
M  V30 BEGIN CTAB
M  V30 COUNTS 34 36 0 0 0
M  V30 BEGIN ATOM
M  V30 1 F 0.7202 -1.8414 4.9697 0
M  V30 2 C 1.3849 -1.6517 3.8227 0
M  V30 3 C 0.7467 -1.1042 2.7083 0
M  V30 4 C 2.7264 -2.0004 3.7267 0
M  V30 5 N -0.5548 -0.6845 2.5474 0
M  V30 6 C 1.4145 -0.894 1.4984 0
M  V30 7 C 3.4017 -1.7992 2.5317 0
M  V30 8 C -0.7298 -0.2191 1.2747 0
M  V30 9 C 0.4684 -0.3297 0.5994 0
M  V30 10 C 2.7737 -1.2517 1.4096 0
M  V30 11 F 4.6953 -2.1398 2.4496 0
M  V30 12 C -1.9969 0.3397 0.7351 0
M  V30 13 C 0.6244 0.0778 -0.8311 0
M  V30 14 C -1.9207 0.4246 -0.802 0
M  V30 15 C -0.5558 0.9944 -1.2871 0 CFG=2
M  V30 16 N -0.4655 1.2798 -2.7397 0
M  V30 17 C -1.1776 2.5074 -3.0984 0
M  V30 18 C -0.8987 0.1794 -3.5997 0
M  V30 19 H 3.2412 -2.427 4.5794 0
M  V30 20 H -1.2595 -0.7206 3.2726 0
M  V30 21 H 3.3343 -1.1087 0.492 0
M  V30 22 H -2.8536 -0.2759 1.0299 0
M  V30 23 H -2.15 1.3436 1.1489 0
M  V30 24 H 0.6676 -0.8358 -1.4344 0
M  V30 25 H 1.5747 0.6078 -0.9688 0
M  V30 26 H -2.7537 1.0419 -1.1561 0
M  V30 27 H -2.0672 -0.5818 -1.2152 0
M  V30 28 H -0.403 1.948 -0.7588 0
M  V30 29 H -2.2588 2.4268 -2.9447 0
M  V30 30 H -1.0018 2.7578 -4.1507 0
M  V30 31 H -0.807 3.3571 -2.5144 0
M  V30 32 H -0.3609 -0.7462 -3.3757 0
M  V30 33 H -0.6777 0.4124 -4.6478 0
M  V30 34 H -1.9737 -0.0168 -3.5225 0
M  V30 END ATOM
M  V30 BEGIN BOND
M  V30 1 1 1 2
M  V30 2 2 2 3
M  V30 3 1 2 4
M  V30 4 1 3 5
M  V30 5 1 3 6
M  V30 6 2 4 7
M  V30 7 1 5 8
M  V30 8 1 6 9
M  V30 9 2 6 10
M  V30 10 1 7 11
M  V30 11 1 8 12
M  V30 12 1 9 13
M  V30 13 1 12 14
M  V30 14 1 13 15
M  V30 15 1 15 16
M  V30 16 1 16 17
M  V30 17 1 16 18
M  V30 18 1 7 10
M  V30 19 2 8 9
M  V30 20 1 14 15
M  V30 21 1 4 19
M  V30 22 1 5 20
M  V30 23 1 10 21
M  V30 24 1 12 22
M  V30 25 1 12 23
M  V30 26 1 13 24
M  V30 27 1 13 25
M  V30 28 1 14 26
M  V30 29 1 14 27
M  V30 30 1 15 28
M  V30 31 1 17 29
M  V30 32 1 17 30
M  V30 33 1 17 31
M  V30 34 1 18 32
M  V30 35 1 18 33
M  V30 36 1 18 34
M  V30 END BOND
M  V30 BEGIN COLLECTION
M  V30 MDLV30/STERAC1 ATOMS=(1 15)
M  V30 END COLLECTION
M  V30 END CTAB
M  END
>  <Column 1>
1563

>  <level_0>
1716

>  <index>
1716

>  <Unnamed: 0>
1716

>  <NO.>
1728

>  <Name>
flucindol

>  <IUPAC_name>
6-8-difluoro-n-n-dimethyl-2-3-4-9-tetrahydro-1h-carbazol-3-amine

>  <SMILES>
CN(C)C1CCc2[nH]c3c(F)cc(F)cc3c2C1

>  <CID>
38531

>  <logBB>


>  <BBB+/BBB->
BBB+

>  <Inchi>
InChI=1S/C14H16F2N2/c1-18(2)9-3-4-13-10(7-9)11-5-8(15)6-12(16)14(11)17-13/h5-6-9-17H-3-4-7H2-1-2H3

>  <threshold>
-1

>  <reference>
R1|R19|R6|R27|R27|R30|

>  <group>
B

>  <Class>
1

>  <ABC>
14.38

>  <ABCGG>
12.07

>  <nAcid>
0

>  <nBase>
1

>  <nAromAtom>
9

>  <nAromBond>
10

>  <nAtom>
34

>  <nHeavyAtom>
18

>  <nSpiro>
0

>  <nBridgehead>
0

>  <nHetero>
4

>  <nN>
2

>  <nO>
0

>  <nF>
2

>  <BalabanJ>
1.75

>  <BertzCT>
601.35

>  <nBonds>
36

>  <nBondsO>
20

>  <nBondsS>
26

>  <nBondsD>
0

>  <nBondsT>
0

>  <nBondsA>
10

>  <nBondsM>
10

>  <nBondsKS>
32

>  <nBondsKD>
4

>  <RNCG>
0.3

>  <RPCG>
0.14

>  <FCSP3>
0.43

>  <SZ>
22

>  <Sm>
20.84

>  <Sv>
21.14

>  <Sse>
34.34

>  <Sp>
22.37

>  <Si>
39

>  <MZ>
0.65

>  <Mm>
0.61

>  <Mv>
0.62

>  <Mse>
1.01

>  <Mp>
0.66

>  <Mi>
1.15

>  <NsCH3>
2

>  <NdCH2>
0

>  <NssCH2>
3

>  <NtCH>
0

>  <NdsCH>
0

>  <NaaCH>
2

>  <NsssCH>
1

>  <NddC>
0

>  <NtsC>
0

>  <NdssC>
0

>  <NaasC>
4

>  <NaaaC>
2

>  <NssssC>
0

>  <NsNH3>
0

>  <NsNH2>
0

>  <NssNH2>
0

>  <NdNH>
0

>  <NssNH>
0

>  <NaaNH>
1

>  <NtN>
0

>  <NsssNH>
0

>  <NdsN>
0

>  <NaaN>
0

>  <NsssN>
1

>  <NddsN>
0

>  <NaasN>
0

>  <NssssN>
0

>  <NsOH>
0

>  <NdO>
0

>  <NssO>
0

>  <NaaO>
0

>  <NsF>
2

>  <NsSiH3>
0

>  <NssSiH2>
0

>  <NsssSiH>
0

>  <NssssSi>
0

>  <NsPH2>
0

>  <NssPH>
0

>  <NsssP>
0

>  <NdsssP>
0

>  <NsssssP>
0

>  <NsSH>
0

>  <NdS>
0

>  <NssS>
0

>  <NaaS>
0

>  <NdssS>
0

>  <NddssS>
0

>  <NsCl>
0

>  <NsBr>
0

>  <NsI>
0

>  <fragCpx>
94.04

>  <fMF>
0.38

>  <nHBAcc>
1

>  <nHBDon>
1

>  <Kier1>
13.01

>  <Kier2>
4.84

>  <Lipinski>
1

>  <GhoseFilter>
1

>  <FilterItLogS>
-4.53

>  <VMcGowan>
181.82

>  <LabuteASA>
104.6

>  <PEOE_VSA1>
9.88

>  <PEOE_VSA2>
0

>  <PEOE_VSA3>
8.78

>  <PEOE_VSA4>
0

>  <PEOE_VSA5>
0

>  <PEOE_VSA6>
0

>  <PEOE_VSA7>
44.99

>  <PEOE_VSA8>
23.19

>  <PEOE_VSA9>
5.52

>  <PEOE_VSA10>
11.63

>  <PEOE_VSA11>
0

>  <PEOE_VSA12>
0

>  <PEOE_VSA13>
0

>  <SMR_VSA1>
8.78

>  <SMR_VSA2>
0

>  <SMR_VSA3>
9.88

>  <SMR_VSA4>
0

>  <SMR_VSA5>
25.3

>  <SMR_VSA6>
14.1

>  <SMR_VSA7>
35.02

>  <SMR_VSA8>
0

>  <SMR_VSA9>
0

>  <SlogP_VSA1>
0

>  <SlogP_VSA2>
30.02

>  <SlogP_VSA3>
12.84

>  <SlogP_VSA4>
11.63

>  <SlogP_VSA5>
17.68

>  <SlogP_VSA6>
12.13

>  <SlogP_VSA7>
0

>  <SlogP_VSA8>
10.9

>  <SlogP_VSA9>
0

>  <SlogP_VSA10>
8.78

>  <SlogP_VSA11>
0

>  <EState_VSA1>
11.63

>  <EState_VSA2>
0

>  <EState_VSA3>
16.94

>  <EState_VSA4>
36.59

>  <EState_VSA5>
6.07

>  <EState_VSA6>
0

>  <EState_VSA7>
14.1

>  <EState_VSA8>
9.88

>  <EState_VSA9>
0

>  <EState_VSA10>
8.78

>  <VSA_EState1>
27.04

>  <VSA_EState2>
5.29

>  <VSA_EState3>
0.7

>  <VSA_EState4>
2.58

>  <VSA_EState5>
-1.01

>  <VSA_EState6>
2.82

>  <VSA_EState7>
2.8

>  <VSA_EState8>
0

>  <VSA_EState9>
4.09

>  <apol>
37.36

>  <bpol>
20.56

>  <nRing>
3

>  <nHRing>
1

>  <naRing>
2

>  <naHRing>
1

>  <nARing 2>
1

>  <nAHRing 2>
0

>  <nFRing>
1

>  <nFHRing>
1

>  <nFaRing>
0

>  <nFaHRing>
0

>  <nFARing 2>
1

>  <nFAHRing 2>
1

>  <nRot>
1

>  <SLogP>
2.87

>  <SMR>
67.71

>  <TopoPSA(NO)>
19.03

>  <TopoPSA>
19.03

>  <JGI1>
0.23

>  <JGI2>
0.08

>  <JGI3>
0.06

>  <JGI4>
0.05

>  <JGI5>
0.04

>  <Diameter>
8

>  <Radius>
4

>  <TMWC10>
112.18

>  <TSRW10>
66.04

>  <MW>
250.13

>  <AMW>
7.36

>  <WPath>
559

>  <WPol>
30

>  <Zagreb1>
100

>  <Zagreb2>
121

>  <mZagreb2>
3.81

>  <yes>


>  <nAR-cont>
0.816016

>  <nHA-cont>
0.991161285

>  <MWHBN>
0.126458232

>  <MWHBN-cont>
0.855976048

>  <TPSA-cont>
0.867158783

>  <pka_cont>
0.97

>  <yes.1>


>  <BBB_SCORE>
5.310458923

>  <MMFF94 Energy>
26.437

$$$$
Compound 1308
Actelion Java MolfileCreator 2.0

  0  0  0  0  0  0              0 V3000
M  V30 BEGIN CTAB
M  V30 COUNTS 34 36 0 0 0
M  V30 BEGIN ATOM
M  V30 1 N -2.2185 1.5842 -1.4257 0
M  V30 2 C -1.4435 0.4398 -0.886 0 CFG=2
M  V30 3 C -3.5139 1.1609 -1.9592 0
M  V30 4 C -1.5026 2.3827 -2.4196 0
M  V30 5 C -0.3874 0.9292 0.1562 0
M  V30 6 C -0.7844 -0.4816 -1.9537 0
M  V30 7 C 0.4908 -0.1958 0.601 0
M  V30 8 C -0.1675 -1.7457 -1.323 0
M  V30 9 C 1.366 -0.2856 1.7187 0
M  V30 10 C 0.5855 -1.3821 -0.0953 0
M  V30 11 C 1.9688 -1.5456 1.6658 0
M  V30 12 C 1.7084 0.5834 2.773 0
M  V30 13 N 1.4742 -2.1921 0.553 0
M  V30 14 C 2.8968 -1.978 2.6209 0
M  V30 15 C 2.6349 0.1653 3.7351 0
M  V30 16 C 3.2185 -1.0971 3.6579 0
M  V30 17 H -2.1457 -0.1864 -0.3148 0
M  V30 18 H -3.4164 0.5139 -2.8371 0
M  V30 19 H -4.113 2.033 -2.2449 0
M  V30 20 H -4.0927 0.6268 -1.1976 0
M  V30 21 H -0.5423 2.7407 -2.0374 0
M  V30 22 H -2.0822 3.2789 -2.6697 0
M  V30 23 H -1.3224 1.8334 -3.35 0
M  V30 24 H 0.2568 1.7051 -0.2723 0
M  V30 25 H -0.9012 1.369 1.0197 0
M  V30 26 H 0.0073 0.0697 -2.4774 0
M  V30 27 H -1.5135 -0.7929 -2.7099 0
M  V30 28 H -0.9665 -2.4483 -1.0581 0
M  V30 29 H 0.4842 -2.2417 -2.0503 0
M  V30 30 H 1.2576 1.5688 2.8406 0
M  V30 31 H 1.736 -3.1261 0.2708 0
M  V30 32 H 3.3541 -2.9599 2.564 0
M  V30 33 H 2.8995 0.8346 4.5498 0
M  V30 34 H 3.936 -1.4032 4.4156 0
M  V30 END ATOM
M  V30 BEGIN BOND
M  V30 1 1 1 2
M  V30 2 1 1 3
M  V30 3 1 1 4
M  V30 4 1 2 5
M  V30 5 1 2 6
M  V30 6 1 5 7
M  V30 7 1 6 8
M  V30 8 1 7 9
M  V30 9 2 7 10
M  V30 10 2 9 11
M  V30 11 1 9 12
M  V30 12 1 10 13
M  V30 13 1 11 14
M  V30 14 2 12 15
M  V30 15 2 14 16
M  V30 16 1 8 10
M  V30 17 1 11 13
M  V30 18 1 15 16
M  V30 19 1 2 17
M  V30 20 1 3 18
M  V30 21 1 3 19
M  V30 22 1 3 20
M  V30 23 1 4 21
M  V30 24 1 4 22
M  V30 25 1 4 23
M  V30 26 1 5 24
M  V30 27 1 5 25
M  V30 28 1 6 26
M  V30 29 1 6 27
M  V30 30 1 8 28
M  V30 31 1 8 29
M  V30 32 1 12 30
M  V30 33 1 13 31
M  V30 34 1 14 32
M  V30 35 1 15 33
M  V30 36 1 16 34
M  V30 END BOND
M  V30 BEGIN COLLECTION
M  V30 MDLV30/STERAC1 ATOMS=(1 2)
M  V30 END COLLECTION
M  V30 END CTAB
M  END
>  <Column 1>
1564

>  <level_0>
1717

>  <index>
1717

>  <Unnamed: 0>
1717

>  <NO.>
1729

>  <Name>
cyclindole

>  <IUPAC_name>
n-n-dimethyl-2-3-4-9-tetrahydro-1h-carbazol-3-amine

>  <SMILES>
CN(C)C1CCc2[nH]c3ccccc3c2C1

>  <CID>
36082

>  <logBB>


>  <BBB+/BBB->
BBB+

>  <Inchi>
InChI=1S/C14H18N2/c1-16(2)10-7-8-14-12(9-10)11-5-3-4-6-13(11)15-14/h3-6-10-15H-7-9H2-1-2H3

>  <threshold>
-1

>  <reference>
R1|R19|R6|R27|R27|R30|

>  <group>
B

>  <Class>
1

>  <ABC>
12.78

>  <ABCGG>
10.69

>  <nAcid>
0

>  <nBase>
1

>  <nAromAtom>
9

>  <nAromBond>
10

>  <nAtom>
34

>  <nHeavyAtom>
16

>  <nSpiro>
0

>  <nBridgehead>
0

>  <nHetero>
2

>  <nN>
2

>  <nO>
0

>  <nF>
0

>  <BalabanJ>
1.7

>  <BertzCT>
510.43

>  <nBonds>
36

>  <nBondsO>
18

>  <nBondsS>
26

>  <nBondsD>
0

>  <nBondsT>
0

>  <nBondsA>
10

>  <nBondsM>
10

>  <nBondsKS>
32

>  <nBondsKD>
4

>  <RNCG>
0.37

>  <RPCG>
0.17

>  <FCSP3>
0.43

>  <SZ>
19.33

>  <Sm>
17.84

>  <Sv>
20.39

>  <Sse>
33.32

>  <Sp>
22.5

>  <Si>
38.32

>  <MZ>
0.57

>  <Mm>
0.52

>  <Mv>
0.6

>  <Mse>
0.98

>  <Mp>
0.66

>  <Mi>
1.13

>  <NsCH3>
2

>  <NdCH2>
0

>  <NssCH2>
3

>  <NtCH>
0

>  <NdsCH>
0

>  <NaaCH>
4

>  <NsssCH>
1

>  <NddC>
0

>  <NtsC>
0

>  <NdssC>
0

>  <NaasC>
2

>  <NaaaC>
2

>  <NssssC>
0

>  <NsNH3>
0

>  <NsNH2>
0

>  <NssNH2>
0

>  <NdNH>
0

>  <NssNH>
0

>  <NaaNH>
1

>  <NtN>
0

>  <NsssNH>
0

>  <NdsN>
0

>  <NaaN>
0

>  <NsssN>
1

>  <NddsN>
0

>  <NaasN>
0

>  <NssssN>
0

>  <NsOH>
0

>  <NdO>
0

>  <NssO>
0

>  <NaaO>
0

>  <NsF>
0

>  <NsSiH3>
0

>  <NssSiH2>
0

>  <NsssSiH>
0

>  <NssssSi>
0

>  <NsPH2>
0

>  <NssPH>
0

>  <NsssP>
0

>  <NdsssP>
0

>  <NsssssP>
0

>  <NsSH>
0

>  <NdS>
0

>  <NssS>
0

>  <NaaS>
0

>  <NdssS>
0

>  <NddssS>
0

>  <NsCl>
0

>  <NsBr>
0

>  <NsI>
0

>  <fragCpx>
84.02

>  <fMF>
0.38

>  <nHBAcc>
1

>  <nHBDon>
1

>  <Kier1>
11.11

>  <Kier2>
4.35

>  <Lipinski>
1

>  <GhoseFilter>
1

>  <FilterItLogS>
-3.67

>  <VMcGowan>
178.3

>  <LabuteASA>
96.27

>  <PEOE_VSA1>
9.88

>  <PEOE_VSA2>
0

>  <PEOE_VSA3>
0

>  <PEOE_VSA4>
0

>  <PEOE_VSA5>
0

>  <PEOE_VSA6>
18.2

>  <PEOE_VSA7>
44.99

>  <PEOE_VSA8>
22.64

>  <PEOE_VSA9>
0

>  <PEOE_VSA10>
0

>  <PEOE_VSA11>
0

>  <PEOE_VSA12>
0

>  <PEOE_VSA13>
0

>  <SMR_VSA1>
0

>  <SMR_VSA2>
0

>  <SMR_VSA3>
9.88

>  <SMR_VSA4>
0

>  <SMR_VSA5>
25.3

>  <SMR_VSA6>
14.1

>  <SMR_VSA7>
35.52

>  <SMR_VSA8>
0

>  <SMR_VSA9>
0

>  <SlogP_VSA1>
0

>  <SlogP_VSA2>
30.02

>  <SlogP_VSA3>
12.84

>  <SlogP_VSA4>
0

>  <SlogP_VSA5>
17.68

>  <SlogP_VSA6>
24.27

>  <SlogP_VSA7>
0

>  <SlogP_VSA8>
10.9

>  <SlogP_VSA9>
0

>  <SlogP_VSA10>
0

>  <SlogP_VSA11>
0

>  <EState_VSA1>
0

>  <EState_VSA2>
0

>  <EState_VSA3>
6.04

>  <EState_VSA4>
0

>  <EState_VSA5>
35.86

>  <EState_VSA6>
5.56

>  <EState_VSA7>
0

>  <EState_VSA8>
48.24

>  <EState_VSA9>
0

>  <EState_VSA10>
0

>  <VSA_EState1>
0

>  <VSA_EState2>
5.91

>  <VSA_EState3>
1.42

>  <VSA_EState4>
4.3

>  <VSA_EState5>
0

>  <VSA_EState6>
9.36

>  <VSA_EState7>
3.64

>  <VSA_EState8>
0

>  <VSA_EState9>
4.37

>  <apol>
37.58

>  <bpol>
20.34

>  <nRing>
3

>  <nHRing>
1

>  <naRing>
2

>  <naHRing>
1

>  <nARing 2>
1

>  <nAHRing 2>
0

>  <nFRing>
1

>  <nFHRing>
1

>  <nFaRing>
0

>  <nFaHRing>
0

>  <nFARing 2>
1

>  <nFAHRing 2>
1

>  <nRot>
1

>  <SLogP>
2.59

>  <SMR>
67.8

>  <TopoPSA(NO)>
19.03

>  <TopoPSA>
19.03

>  <JGI1>
0.17

>  <JGI2>
0.08

>  <JGI3>
0.05

>  <JGI4>
0.03

>  <JGI5>
0.04

>  <Diameter>
8

>  <Radius>
4

>  <TMWC10>
106.66

>  <TSRW10>
63.29

>  <MW>
214.15

>  <AMW>
6.3

>  <WPath>
408

>  <WPol>
25

>  <Zagreb1>
88

>  <Zagreb2>
106

>  <mZagreb2>
3.44

>  <yes>


>  <nAR-cont>
0.816016

>  <nHA-cont>
0.954961865

>  <MWHBN>
0.136669296

>  <MWHBN-cont>
0.893026615

>  <TPSA-cont>
0.867158783

>  <pka_cont>
0.97

>  <yes.1>


>  <BBB_SCORE>
5.329835353

>  <MMFF94 Energy>
41.556

$$$$
Compound 1309
Actelion Java MolfileCreator 2.0

  0  0  0  0  0  0              0 V3000
M  V30 BEGIN CTAB
M  V30 COUNTS 41 43 0 0 0
M  V30 BEGIN ATOM
M  V30 1 N 1.9075 -2.1462 -3.1808 0
M  V30 2 C 2.8831 -1.4592 -2.3194 0
M  V30 3 C 2.5638 -2.6218 -4.3988 0
M  V30 4 C 0.7856 -1.2687 -3.5296 0
M  V30 5 C 2.3268 -1.1361 -0.9977 0
M  V30 6 C 1.8449 -0.846 0.0635 0
M  V30 7 C 1.24 -0.4905 1.3022 0
M  V30 8 C 0.1696 0.3248 1.4244 0
M  V30 9 C -0.3952 0.5003 2.7852 0
M  V30 10 C -0.5024 0.9265 0.2455 0
M  V30 11 C -1.7228 0.1228 3.0662 0
M  V30 12 C 0.393 1.0775 3.7971 0
M  V30 13 C -1.8501 0.6348 -0.0389 0
M  V30 14 C 0.1977 1.8325 -0.5711 0
M  V30 15 C -2.6139 -0.5171 2.0806 0
M  V30 16 C -2.2154 0.298 4.3703 0
M  V30 17 C -0.1176 1.2564 5.0824 0
M  V30 18 C -2.6667 -0.3011 0.7555 0
M  V30 19 C -2.4465 1.2175 -1.1703 0
M  V30 20 C -0.4139 2.4128 -1.6819 0
M  V30 21 C -1.4205 0.8635 5.3698 0
M  V30 22 C -1.7348 2.101 -1.9845 0
M  V30 23 H 3.2573 -0.5467 -2.8007 0
M  V30 24 H 3.7503 -2.1127 -2.1599 0
M  V30 25 H 3.3714 -3.321 -4.1547 0
M  V30 26 H 2.9849 -1.8007 -4.9904 0
M  V30 27 H 1.8559 -3.1726 -5.0283 0
M  V30 28 H 1.1168 -0.3568 -4.0397 0
M  V30 29 H 0.2112 -0.9815 -2.6428 0
M  V30 30 H 0.082 -1.7915 -4.1877 0
M  V30 31 H 1.6705 -0.9583 2.1839 0
M  V30 32 H 1.4101 1.3982 3.5834 0
M  V30 33 H 1.23 2.0873 -0.3422 0
M  V30 34 H -3.3148 -1.2365 2.5004 0
M  V30 35 H -3.2328 0.0022 4.6176 0
M  V30 36 H 0.5007 1.7037 5.8561 0
M  V30 37 H -3.4061 -0.8585 0.1834 0
M  V30 38 H -3.4816 0.9956 -1.4206 0
M  V30 39 H 0.1412 3.1069 -2.3067 0
M  V30 40 H -1.8223 0.9993 6.3706 0
M  V30 41 H -2.2163 2.5491 -2.8496 0
M  V30 END ATOM
M  V30 BEGIN BOND
M  V30 1 1 1 2
M  V30 2 1 1 3
M  V30 3 1 1 4
M  V30 4 1 2 5
M  V30 5 3 5 6
M  V30 6 1 6 7
M  V30 7 2 7 8
M  V30 8 1 8 9
M  V30 9 1 8 10
M  V30 10 2 9 11
M  V30 11 1 9 12
M  V30 12 2 10 13
M  V30 13 1 10 14
M  V30 14 1 11 15
M  V30 15 1 11 16
M  V30 16 2 12 17
M  V30 17 1 13 18
M  V30 18 1 13 19
M  V30 19 2 14 20
M  V30 20 2 16 21
M  V30 21 2 19 22
M  V30 22 2 15 18
M  V30 23 1 17 21
M  V30 24 1 20 22
M  V30 25 1 2 23
M  V30 26 1 2 24
M  V30 27 1 3 25
M  V30 28 1 3 26
M  V30 29 1 3 27
M  V30 30 1 4 28
M  V30 31 1 4 29
M  V30 32 1 4 30
M  V30 33 1 7 31
M  V30 34 1 12 32
M  V30 35 1 14 33
M  V30 36 1 15 34
M  V30 37 1 16 35
M  V30 38 1 17 36
M  V30 39 1 18 37
M  V30 40 1 19 38
M  V30 41 1 20 39
M  V30 42 1 21 40
M  V30 43 1 22 41
M  V30 END BOND
M  V30 END CTAB
M  END
>  <Column 1>
1565

>  <level_0>
1718

>  <index>
1718

>  <Unnamed: 0>
1718

>  <NO.>
1730

>  <Name>
intriptyline

>  <IUPAC_name>
n-n-dimethyl-4-(2-tricyclo[9.4.0.03-8]pentadeca-1(15)-3-5-7-9-11-13-heptaenylidene)but-2-yn-1-amine

>  <SMILES>
CN(C)CC#CC=C1c2ccccc2C=Cc2ccccc21

>  <CID>
71397

>  <logBB>


>  <BBB+/BBB->
BBB+

>  <Inchi>
InChI=1S/C21H19N/c1-22(2)16-8-7-13-21-19-11-5-3-9-17(19)14-15-18-10-4-6-12-20(18)21/h3-6-9-15H-16H2-1-2H3

>  <threshold>
-1

>  <reference>
R1|R13|R19|R6|R24|R27|R27|R27|R30|R30|

>  <group>
B

>  <Class>
1

>  <ABC>
17.03

>  <ABCGG>
13.52

>  <nAcid>
0

>  <nBase>
1

>  <nAromAtom>
12

>  <nAromBond>
12

>  <nAtom>
41

>  <nHeavyAtom>
22

>  <nSpiro>
0

>  <nBridgehead>
0

>  <nHetero>
1

>  <nN>
1

>  <nO>
0

>  <nF>
0

>  <BalabanJ>
1.65

>  <BertzCT>
746.4

>  <nBonds>
43

>  <nBondsO>
24

>  <nBondsS>
28

>  <nBondsD>
2

>  <nBondsT>
1

>  <nBondsA>
12

>  <nBondsM>
15

>  <nBondsKS>
34

>  <nBondsKD>
8

>  <RNCG>
0.27

>  <RPCG>
0.07

>  <FCSP3>
0.14

>  <SZ>
25.33

>  <Sm>
23.76

>  <Sv>
26.91

>  <Sse>
40.1

>  <Sp>
29.24

>  <Si>
45.24

>  <MZ>
0.62

>  <Mm>
0.58

>  <Mv>
0.66

>  <Mse>
0.98

>  <Mp>
0.71

>  <Mi>
1.1

>  <NsCH3>
2

>  <NdCH2>
0

>  <NssCH2>
1

>  <NtCH>
0

>  <NdsCH>
3

>  <NaaCH>
8

>  <NsssCH>
0

>  <NddC>
0

>  <NtsC>
2

>  <NdssC>
1

>  <NaasC>
4

>  <NaaaC>
0

>  <NssssC>
0

>  <NsNH3>
0

>  <NsNH2>
0

>  <NssNH2>
0

>  <NdNH>
0

>  <NssNH>
0

>  <NaaNH>
0

>  <NtN>
0

>  <NsssNH>
0

>  <NdsN>
0

>  <NaaN>
0

>  <NsssN>
1

>  <NddsN>
0

>  <NaasN>
0

>  <NssssN>
0

>  <NsOH>
0

>  <NdO>
0

>  <NssO>
0

>  <NaaO>
0

>  <NsF>
0

>  <NsSiH3>
0

>  <NssSiH2>
0

>  <NsssSiH>
0

>  <NssssSi>
0

>  <NsPH2>
0

>  <NssPH>
0

>  <NsssP>
0

>  <NdsssP>
0

>  <NsssssP>
0

>  <NsSH>
0

>  <NdS>
0

>  <NssS>
0

>  <NaaS>
0

>  <NdssS>
0

>  <NddssS>
0

>  <NsCl>
0

>  <NsBr>
0

>  <NsI>
0

>  <fragCpx>
114.01

>  <fMF>
0.37

>  <nHBAcc>
1

>  <nHBDon>
0

>  <Kier1>
16.84

>  <Kier2>
8.2

>  <Lipinski>
1

>  <GhoseFilter>
1

>  <FilterItLogS>
-4.69

>  <VMcGowan>
241.15

>  <LabuteASA>
132.15

>  <PEOE_VSA1>
0

>  <PEOE_VSA2>
4.9

>  <PEOE_VSA3>
0

>  <PEOE_VSA4>
0

>  <PEOE_VSA5>
0

>  <PEOE_VSA6>
72.52

>  <PEOE_VSA7>
48

>  <PEOE_VSA8>
0

>  <PEOE_VSA9>
6.54

>  <PEOE_VSA10>
0

>  <PEOE_VSA11>
0

>  <PEOE_VSA12>
0

>  <PEOE_VSA13>
0

>  <SMR_VSA1>
0

>  <SMR_VSA2>
0

>  <SMR_VSA3>
4.9

>  <SMR_VSA4>
0

>  <SMR_VSA5>
0

>  <SMR_VSA6>
20.64

>  <SMR_VSA7>
76.86

>  <SMR_VSA8>
0

>  <SMR_VSA9>
11.84

>  <SlogP_VSA1>
0

>  <SlogP_VSA2>
25.54

>  <SlogP_VSA3>
0

>  <SlogP_VSA4>
11.84

>  <SlogP_VSA5>
22.25

>  <SlogP_VSA6>
54.61

>  <SlogP_VSA7>
0

>  <SlogP_VSA8>
17.73

>  <SlogP_VSA9>
0

>  <SlogP_VSA10>
0

>  <SlogP_VSA11>
0

>  <EState_VSA1>
0

>  <EState_VSA2>
0

>  <EState_VSA3>
0

>  <EState_VSA4>
6.54

>  <EState_VSA5>
27.83

>  <EState_VSA6>
0

>  <EState_VSA7>
20.17

>  <EState_VSA8>
77.42

>  <EState_VSA9>
0

>  <EState_VSA10>
0

>  <VSA_EState1>
0

>  <VSA_EState2>
2.07

>  <VSA_EState3>
0

>  <VSA_EState4>
6.15

>  <VSA_EState5>
6.41

>  <VSA_EState6>
16.96

>  <VSA_EState7>
6.42

>  <VSA_EState8>
0.77

>  <VSA_EState9>
4.06

>  <apol>
48.84

>  <bpol>
20.77

>  <nRing>
3

>  <nHRing>
0

>  <naRing>
2

>  <naHRing>
0

>  <nARing 2>
1

>  <nAHRing 2>
0

>  <nFRing>
1

>  <nFHRing>
0

>  <nFaRing>
0

>  <nFaHRing>
0

>  <nFARing 2>
1

>  <nFAHRing 2>
0

>  <nRot>
1

>  <SLogP>
4.17

>  <SMR>
95.22

>  <TopoPSA(NO)>
3.24

>  <TopoPSA>
3.24

>  <JGI1>
0.13

>  <JGI2>
0.07

>  <JGI3>
0.04

>  <JGI4>
0.03

>  <JGI5>
0.01

>  <Diameter>
10

>  <Radius>
5

>  <TMWC10>
119.73

>  <TSRW10>
63.95

>  <MW>
285.15

>  <AMW>
6.95

>  <WPath>
1043

>  <WPol>
36

>  <Zagreb1>
112

>  <Zagreb2>
130

>  <mZagreb2>
4.94

>  <yes>


>  <nAR-cont>
0.816016

>  <nHA-cont>
0.983774276

>  <MWHBN>
0.059219306

>  <MWHBN-cont>
0.44712121

>  <TPSA-cont>
0.977382788

>  <pka_cont>
0.97

>  <yes.1>


>  <BBB_SCORE>
4.910237667

>  <MMFF94 Energy>
74.506

$$$$
Compound 1310
Actelion Java MolfileCreator 2.0

  0  0  0  0  0  0              0 V3000
M  V30 BEGIN CTAB
M  V30 COUNTS 43 45 0 0 0
M  V30 BEGIN ATOM
M  V30 1 O -2.1499 2.5484 0.6366 0
M  V30 2 C -1.819 1.3672 0.7263 0
M  V30 3 C -0.5533 1.0527 1.4456 0
M  V30 4 C -2.6609 0.1678 0.2712 0
M  V30 5 C 0.5932 0.6674 0.8463 0
M  V30 6 N -3.7554 0.5437 -0.6501 0
M  V30 7 C 1.7579 0.359 1.7227 0
M  V30 8 C 0.6395 0.4831 -0.6201 0
M  V30 9 C -4.661 -0.5888 -0.842 0
M  V30 10 C -3.2319 0.9874 -1.9447 0
M  V30 11 C 2.5241 -0.8197 1.5964 0
M  V30 12 C 2.1368 1.3152 2.69 0
M  V30 13 C 0.8236 -0.8066 -1.144 0
M  V30 14 C 0.513 1.5759 -1.4879 0
M  V30 15 C 3.6246 -1.0063 2.463 0
M  V30 16 C 2.315 -1.9119 0.561 0
M  V30 17 C 3.2228 1.105 3.5393 0
M  V30 18 C 0.8582 -0.9868 -2.5337 0
M  V30 19 C 0.9944 -1.9778 -0.2093 0
M  V30 20 C 0.5513 1.3859 -2.869 0
M  V30 21 C 3.9652 -0.0605 3.4286 0
M  V30 22 C 0.7205 0.1056 -3.3907 0
M  V30 23 H -0.6317 1.1952 2.5183 0
M  V30 24 H -3.091 -0.253 1.1892 0
M  V30 25 H -2.0204 -0.5947 -0.1828 0
M  V30 26 H -5.1006 -0.8971 0.1131 0
M  V30 27 H -4.154 -1.4542 -1.2839 0
M  V30 28 H -5.4969 -0.3087 -1.493 0
M  V30 29 H -2.6344 0.2107 -2.4354 0
M  V30 30 H -2.6164 1.8861 -1.843 0
M  V30 31 H -4.0549 1.2587 -2.6159 0
M  V30 32 H 1.5918 2.2539 2.7798 0
M  V30 33 H 0.379 2.5815 -1.0924 0
M  V30 34 H 4.2364 -1.9033 2.3781 0
M  V30 35 H 3.1433 -1.8442 -0.1576 0
M  V30 36 H 2.4213 -2.8757 1.0779 0
M  V30 37 H 3.4917 1.8576 4.2758 0
M  V30 38 H 1.0004 -1.9776 -2.9591 0
M  V30 39 H 0.1392 -2.0399 0.4752 0
M  V30 40 H 0.9775 -2.9094 -0.7895 0
M  V30 41 H 0.4489 2.2386 -3.5356 0
M  V30 42 H 4.8182 -0.2296 4.0804 0
M  V30 43 H 0.7522 -0.0409 -4.4674 0
M  V30 END ATOM
M  V30 BEGIN BOND
M  V30 1 2 1 2
M  V30 2 1 2 3
M  V30 3 1 2 4
M  V30 4 2 3 5
M  V30 5 1 4 6
M  V30 6 1 5 7
M  V30 7 1 5 8
M  V30 8 1 6 9
M  V30 9 1 6 10
M  V30 10 2 7 11
M  V30 11 1 7 12
M  V30 12 2 8 13
M  V30 13 1 8 14
M  V30 14 1 11 15
M  V30 15 1 11 16
M  V30 16 2 12 17
M  V30 17 1 13 18
M  V30 18 1 13 19
M  V30 19 2 14 20
M  V30 20 2 15 21
M  V30 21 2 18 22
M  V30 22 1 16 19
M  V30 23 1 17 21
M  V30 24 1 20 22
M  V30 25 1 3 23
M  V30 26 1 4 24
M  V30 27 1 4 25
M  V30 28 1 9 26
M  V30 29 1 9 27
M  V30 30 1 9 28
M  V30 31 1 10 29
M  V30 32 1 10 30
M  V30 33 1 10 31
M  V30 34 1 12 32
M  V30 35 1 14 33
M  V30 36 1 15 34
M  V30 37 1 16 35
M  V30 38 1 16 36
M  V30 39 1 17 37
M  V30 40 1 18 38
M  V30 41 1 19 39
M  V30 42 1 19 40
M  V30 43 1 20 41
M  V30 44 1 21 42
M  V30 45 1 22 43
M  V30 END BOND
M  V30 END CTAB
M  END
>  <Column 1>
1566

>  <level_0>
1719

>  <index>
1719

>  <Unnamed: 0>
1719

>  <NO.>
1731

>  <Name>
cotriptyline

>  <IUPAC_name>
1-(dimethylamino)-3-(2-tricyclo[9.4.0.03-8]pentadeca-1(15)-3-5-7-11-13-hexaenylidene)propan-2-one

>  <SMILES>
CN(C)CC(=O)C=C1c2ccccc2CCc2ccccc21

>  <CID>
71935

>  <logBB>


>  <BBB+/BBB->
BBB+

>  <Inchi>
InChI=1S/C20H21NO/c1-21(2)14-17(22)13-20-18-9-5-3-7-15(18)11-12-16-8-4-6-10-19(16)20/h3-10-13H-11-12-14H2-1-2H3

>  <threshold>
-1

>  <reference>
R1|R13|R19|R6|R24|R27|R27|R27|R30|R30|

>  <group>
B

>  <Class>
1

>  <ABC>
17.14

>  <ABCGG>
14.01

>  <nAcid>
0

>  <nBase>
1

>  <nAromAtom>
12

>  <nAromBond>
12

>  <nAtom>
43

>  <nHeavyAtom>
22

>  <nSpiro>
0

>  <nBridgehead>
0

>  <nHetero>
2

>  <nN>
1

>  <nO>
1

>  <nF>
0

>  <BalabanJ>
1.75

>  <BertzCT>
678.49

>  <nBonds>
45

>  <nBondsO>
24

>  <nBondsS>
31

>  <nBondsD>
2

>  <nBondsT>
0

>  <nBondsA>
12

>  <nBondsM>
14

>  <nBondsKS>
37

>  <nBondsKD>
8

>  <RNCG>
0.24

>  <RPCG>
0.13

>  <FCSP3>
0.25

>  <SZ>
26

>  <Sm>
24.26

>  <Sv>
27.16

>  <Sse>
42.32

>  <Sp>
29.52

>  <Si>
47.86

>  <MZ>
0.6

>  <Mm>
0.56

>  <Mv>
0.63

>  <Mse>
0.98

>  <Mp>
0.69

>  <Mi>
1.11

>  <NsCH3>
2

>  <NdCH2>
0

>  <NssCH2>
3

>  <NtCH>
0

>  <NdsCH>
1

>  <NaaCH>
8

>  <NsssCH>
0

>  <NddC>
0

>  <NtsC>
0

>  <NdssC>
2

>  <NaasC>
4

>  <NaaaC>
0

>  <NssssC>
0

>  <NsNH3>
0

>  <NsNH2>
0

>  <NssNH2>
0

>  <NdNH>
0

>  <NssNH>
0

>  <NaaNH>
0

>  <NtN>
0

>  <NsssNH>
0

>  <NdsN>
0

>  <NaaN>
0

>  <NsssN>
1

>  <NddsN>
0

>  <NaasN>
0

>  <NssssN>
0

>  <NsOH>
0

>  <NdO>
1

>  <NssO>
0

>  <NaaO>
0

>  <NsF>
0

>  <NsSiH3>
0

>  <NssSiH2>
0

>  <NsssSiH>
0

>  <NssssSi>
0

>  <NsPH2>
0

>  <NssPH>
0

>  <NsssP>
0

>  <NdsssP>
0

>  <NsssssP>
0

>  <NsSH>
0

>  <NdS>
0

>  <NssS>
0

>  <NaaS>
0

>  <NdssS>
0

>  <NddssS>
0

>  <NsCl>
0

>  <NsBr>
0

>  <NsI>
0

>  <fragCpx>
114.02

>  <fMF>
0.35

>  <nHBAcc>
2

>  <nHBDon>
0

>  <Kier1>
16.84

>  <Kier2>
7.71

>  <Lipinski>
1

>  <GhoseFilter>
1

>  <FilterItLogS>
-5.02

>  <VMcGowan>
241.53

>  <LabuteASA>
131.63

>  <PEOE_VSA1>
4.9

>  <PEOE_VSA2>
4.79

>  <PEOE_VSA3>
0

>  <PEOE_VSA4>
0

>  <PEOE_VSA5>
0

>  <PEOE_VSA6>
48.53

>  <PEOE_VSA7>
60.84

>  <PEOE_VSA8>
0

>  <PEOE_VSA9>
6.54

>  <PEOE_VSA10>
0

>  <PEOE_VSA11>
5.78

>  <PEOE_VSA12>
0

>  <PEOE_VSA13>
0

>  <SMR_VSA1>
4.79

>  <SMR_VSA2>
0

>  <SMR_VSA3>
4.9

>  <SMR_VSA4>
0

>  <SMR_VSA5>
12.84

>  <SMR_VSA6>
20.64

>  <SMR_VSA7>
76.86

>  <SMR_VSA8>
0

>  <SMR_VSA9>
0

>  <SlogP_VSA1>
0

>  <SlogP_VSA2>
31.32

>  <SlogP_VSA3>
17.64

>  <SlogP_VSA4>
0

>  <SlogP_VSA5>
22.25

>  <SlogP_VSA6>
54.61

>  <SlogP_VSA7>
0

>  <SlogP_VSA8>
5.57

>  <SlogP_VSA9>
0

>  <SlogP_VSA10>
0

>  <SlogP_VSA11>
0

>  <EState_VSA1>
0

>  <EState_VSA2>
5.78

>  <EState_VSA3>
6.54

>  <EState_VSA4>
18.41

>  <EState_VSA5>
22.25

>  <EState_VSA6>
0

>  <EState_VSA7>
25.07

>  <EState_VSA8>
48.53

>  <EState_VSA9>
0

>  <EState_VSA10>
4.79

>  <VSA_EState1>
0

>  <VSA_EState2>
14.25

>  <VSA_EState3>
0

>  <VSA_EState4>
6.1

>  <VSA_EState5>
0.14

>  <VSA_EState6>
16.87

>  <VSA_EState7>
3.86

>  <VSA_EState8>
0.44

>  <VSA_EState9>
3.84

>  <apol>
49.3

>  <bpol>
23.65

>  <nRing>
3

>  <nHRing>
0

>  <naRing>
2

>  <naHRing>
0

>  <nARing 2>
1

>  <nAHRing 2>
0

>  <nFRing>
1

>  <nFHRing>
0

>  <nFaRing>
0

>  <nFaHRing>
0

>  <nFARing 2>
1

>  <nFAHRing 2>
0

>  <nRot>
3

>  <SLogP>
3.35

>  <SMR>
90.93

>  <TopoPSA(NO)>
20.31

>  <TopoPSA>
20.31

>  <JGI1>
0.17

>  <JGI2>
0.07

>  <JGI3>
0.04

>  <JGI4>
0.03

>  <JGI5>
0.02

>  <Diameter>
9

>  <Radius>
5

>  <TMWC10>
120.17

>  <TSRW10>
64.11

>  <MW>
291.16

>  <AMW>
6.77

>  <WPath>
979

>  <WPol>
37

>  <Zagreb1>
114

>  <Zagreb2>
133

>  <mZagreb2>
4.86

>  <yes>


>  <nAR-cont>
0.816016

>  <nHA-cont>
0.983774276

>  <MWHBN>
0.117209858

>  <MWHBN-cont>
0.817106695

>  <TPSA-cont>
0.858223588

>  <pka_cont>
0.97

>  <yes.1>


>  <BBB_SCORE>
5.226897495

>  <MMFF94 Energy>
110.29

$$$$
Compound 1311
Actelion Java MolfileCreator 2.0

  0  0  0  0  0  0              0 V3000
M  V30 BEGIN CTAB
M  V30 COUNTS 36 38 0 0 0
M  V30 BEGIN ATOM
M  V30 1 S -1.3782 2.5956 -1.5405 0
M  V30 2 C -2.2797 1.9582 -0.1316 0
M  V30 3 C 0.2655 2.1175 -1.0358 0
M  V30 4 C -1.7894 0.8728 0.6199 0
M  V30 5 C -3.4806 2.5767 0.2362 0
M  V30 6 C 0.4702 1.0293 -0.1707 0
M  V30 7 C 1.3559 2.8891 -1.4525 0
M  V30 8 N -0.6093 0.1826 0.2012 0
M  V30 9 C -2.4967 0.4498 1.7534 0
M  V30 10 C -4.1805 2.1389 1.3613 0
M  V30 11 C 1.7506 0.7961 0.3501 0
M  V30 12 C 2.6363 2.615 -0.9693 0
M  V30 13 C -0.6628 -1.2013 -0.0364 0
M  V30 14 C -3.686 1.0817 2.1222 0
M  V30 15 C 2.8307 1.5812 -0.0555 0
M  V30 16 O -1.5782 -1.9147 0.3946 0
M  V30 17 C 0.4143 -1.8205 -0.9591 0
M  V30 18 N 0.9046 -3.1219 -0.4471 0
M  V30 19 C 1.6812 -2.972 0.7804 0
M  V30 20 C 1.6944 -3.8042 -1.4707 0
M  V30 21 H -3.8725 3.4101 -0.3419 0
M  V30 22 H 1.2114 3.7275 -2.1304 0
M  V30 23 H -2.1373 -0.3883 2.346 0
M  V30 24 H -5.1115 2.6237 1.6451 0
M  V30 25 H 1.9144 0.0037 1.0751 0
M  V30 26 H 3.4777 3.2271 -1.2861 0
M  V30 27 H -4.2326 0.736 2.9963 0
M  V30 28 H 3.8239 1.3883 0.3432 0
M  V30 29 H -0.1046 -1.9812 -1.9139 0
M  V30 30 H 1.251 -1.1579 -1.178 0
M  V30 31 H 1.0854 -2.5096 1.5745 0
M  V30 32 H 2.5824 -2.368 0.6266 0
M  V30 33 H 1.9897 -3.9527 1.1598 0
M  V30 34 H 2.5845 -3.2314 -1.7553 0
M  V30 35 H 1.0934 -3.9777 -2.3703 0
M  V30 36 H 2.0169 -4.7896 -1.1164 0
M  V30 END ATOM
M  V30 BEGIN BOND
M  V30 1 1 1 2
M  V30 2 1 1 3
M  V30 3 2 2 4
M  V30 4 1 2 5
M  V30 5 2 3 6
M  V30 6 1 3 7
M  V30 7 1 4 8
M  V30 8 1 4 9
M  V30 9 2 5 10
M  V30 10 1 6 11
M  V30 11 2 7 12
M  V30 12 1 8 13
M  V30 13 2 9 14
M  V30 14 2 11 15
M  V30 15 2 13 16
M  V30 16 1 13 17
M  V30 17 1 17 18
M  V30 18 1 18 19
M  V30 19 1 18 20
M  V30 20 1 6 8
M  V30 21 1 10 14
M  V30 22 1 12 15
M  V30 23 1 5 21
M  V30 24 1 7 22
M  V30 25 1 9 23
M  V30 26 1 10 24
M  V30 27 1 11 25
M  V30 28 1 12 26
M  V30 29 1 14 27
M  V30 30 1 15 28
M  V30 31 1 17 29
M  V30 32 1 17 30
M  V30 33 1 19 31
M  V30 34 1 19 32
M  V30 35 1 19 33
M  V30 36 1 20 34
M  V30 37 1 20 35
M  V30 38 1 20 36
M  V30 END BOND
M  V30 END CTAB
M  END
>  <Column 1>
1567

>  <level_0>
1720

>  <index>
1720

>  <Unnamed: 0>
1720

>  <NO.>
1732

>  <Name>
dacemazine

>  <IUPAC_name>
2-(dimethylamino)-1-phenothiazin-10-ylethanone

>  <SMILES>
CN(C)CC(=O)N1c2ccccc2Sc2ccccc21

>  <CID>
68846

>  <logBB>


>  <BBB+/BBB->
BBB+

>  <Inchi>
InChI=1S/C16H16N2OS/c1-17(2)11-16(19)18-12-7-3-5-9-14(12)20-15-10-6-4-8-13(15)18/h3-10H-11H2-1-2H3

>  <threshold>
-1

>  <reference>
R1|R13|R19|R6|R24|R27|R27|R27|R30|R30|

>  <group>
B

>  <Class>
1

>  <ABC>
15.68

>  <ABCGG>
12.82

>  <nAcid>
0

>  <nBase>
1

>  <nAromAtom>
12

>  <nAromBond>
12

>  <nAtom>
36

>  <nHeavyAtom>
20

>  <nSpiro>
0

>  <nBridgehead>
0

>  <nHetero>
4

>  <nN>
2

>  <nO>
1

>  <nF>
0

>  <BalabanJ>
1.79

>  <BertzCT>
608.93

>  <nBonds>
38

>  <nBondsO>
22

>  <nBondsS>
25

>  <nBondsD>
1

>  <nBondsT>
0

>  <nBondsA>
12

>  <nBondsM>
13

>  <nBondsKS>
31

>  <nBondsKD>
7

>  <RNCG>
0.22

>  <RPCG>
0.18

>  <FCSP3>
0.19

>  <SZ>
25

>  <Sm>
23.68

>  <Sv>
23.75

>  <Sse>
35.84

>  <Sp>
25.92

>  <Si>
40.03

>  <MZ>
0.69

>  <Mm>
0.66

>  <Mv>
0.66

>  <Mse>
1

>  <Mp>
0.72

>  <Mi>
1.11

>  <NsCH3>
2

>  <NdCH2>
0

>  <NssCH2>
1

>  <NtCH>
0

>  <NdsCH>
0

>  <NaaCH>
8

>  <NsssCH>
0

>  <NddC>
0

>  <NtsC>
0

>  <NdssC>
1

>  <NaasC>
4

>  <NaaaC>
0

>  <NssssC>
0

>  <NsNH3>
0

>  <NsNH2>
0

>  <NssNH2>
0

>  <NdNH>
0

>  <NssNH>
0

>  <NaaNH>
0

>  <NtN>
0

>  <NsssNH>
0

>  <NdsN>
0

>  <NaaN>
0

>  <NsssN>
2

>  <NddsN>
0

>  <NaasN>
0

>  <NssssN>
0

>  <NsOH>
0

>  <NdO>
1

>  <NssO>
0

>  <NaaO>
0

>  <NsF>
0

>  <NsSiH3>
0

>  <NssSiH2>
0

>  <NsssSiH>
0

>  <NssssSi>
0

>  <NsPH2>
0

>  <NssPH>
0

>  <NsssP>
0

>  <NdsssP>
0

>  <NsssssP>
0

>  <NsSH>
0

>  <NdS>
0

>  <NssS>
1

>  <NaaS>
0

>  <NdssS>
0

>  <NddssS>
0

>  <NsCl>
0

>  <NsBr>
0

>  <NsI>
0

>  <fragCpx>
104.04

>  <fMF>
0.39

>  <nHBAcc>
3

>  <nHBDon>
0

>  <Kier1>
14.92

>  <Kier2>
6.41

>  <Lipinski>
1

>  <GhoseFilter>
1

>  <FilterItLogS>
-3.6

>  <VMcGowan>
215.8

>  <LabuteASA>
122.75

>  <PEOE_VSA1>
4.9

>  <PEOE_VSA2>
9.69

>  <PEOE_VSA3>
0

>  <PEOE_VSA4>
0

>  <PEOE_VSA5>
0

>  <PEOE_VSA6>
36.03

>  <PEOE_VSA7>
38.36

>  <PEOE_VSA8>
9.79

>  <PEOE_VSA9>
17.92

>  <PEOE_VSA10>
0

>  <PEOE_VSA11>
0

>  <PEOE_VSA12>
5.91

>  <PEOE_VSA13>
0

>  <SMR_VSA1>
4.79

>  <SMR_VSA2>
0

>  <SMR_VSA3>
4.9

>  <SMR_VSA4>
0

>  <SMR_VSA5>
9.79

>  <SMR_VSA6>
25.54

>  <SMR_VSA7>
48.53

>  <SMR_VSA8>
0

>  <SMR_VSA9>
0

>  <SlogP_VSA1>
4.9

>  <SlogP_VSA2>
31.45

>  <SlogP_VSA3>
4.79

>  <SlogP_VSA4>
0

>  <SlogP_VSA5>
0

>  <SlogP_VSA6>
58.32

>  <SlogP_VSA7>
0

>  <SlogP_VSA8>
0

>  <SlogP_VSA9>
0

>  <SlogP_VSA10>
11.37

>  <SlogP_VSA11>
0

>  <EState_VSA1>
0

>  <EState_VSA2>
5.91

>  <EState_VSA3>
6.54

>  <EState_VSA4>
21.17

>  <EState_VSA5>
0

>  <EState_VSA6>
11.76

>  <EState_VSA7>
60.29

>  <EState_VSA8>
12.13

>  <EState_VSA9>
0

>  <EState_VSA10>
4.79

>  <VSA_EState1>
0

>  <VSA_EState2>
18.59

>  <VSA_EState3>
0

>  <VSA_EState4>
1.95

>  <VSA_EState5>
0.09

>  <VSA_EState6>
16.1

>  <VSA_EState7>
0

>  <VSA_EState8>
0.4

>  <VSA_EState9>
3.82

>  <apol>
43.29

>  <bpol>
22.8

>  <nRing>
3

>  <nHRing>
1

>  <naRing>
2

>  <naHRing>
0

>  <nARing 2>
1

>  <nAHRing 2>
1

>  <nFRing>
1

>  <nFHRing>
1

>  <nFaRing>
0

>  <nFaHRing>
0

>  <nFARing 2>
1

>  <nFAHRing 2>
1

>  <nRot>
2

>  <SLogP>
3.38

>  <SMR>
82.71

>  <TopoPSA(NO)>
23.55

>  <TopoPSA>
48.85

>  <JGI1>
0.16

>  <JGI2>
0.06

>  <JGI3>
0.05

>  <JGI4>
0.04

>  <JGI5>
0.02

>  <Diameter>
8

>  <Radius>
4

>  <TMWC10>
116.23

>  <TSRW10>
53.97

>  <MW>
284.1

>  <AMW>
7.89

>  <WPath>
733

>  <WPol>
33

>  <Zagreb1>
106

>  <Zagreb2>
126

>  <mZagreb2>
4.39

>  <yes>


>  <nAR-cont>
0.816016

>  <nHA-cont>
0.999629945

>  <MWHBN>
0.177985916

>  <MWHBN-cont>
0.984892399

>  <TPSA-cont>
0.658996666

>  <pka_cont>
0.97

>  <yes.1>


>  <BBB_SCORE>
5.095977874

>  <MMFF94 Energy>
117.11

$$$$
Compound 1312
Actelion Java MolfileCreator 2.0

  0  0  0  0  0  0              0 V3000
M  V30 BEGIN CTAB
M  V30 COUNTS 48 50 0 0 0
M  V30 BEGIN ATOM
M  V30 1 S 3.6035 -0.8799 -0.1599 0
M  V30 2 C 2.4909 -1.3107 1.164 0
M  V30 3 C 2.6154 -1.2371 -1.5994 0
M  V30 4 C 1.1116 -1.5197 0.9691 0
M  V30 5 C 3.0529 -1.4106 2.4492 0
M  V30 6 C 1.2269 -1.4625 -1.5381 0
M  V30 7 C 3.2921 -1.2817 -2.8313 0
M  V30 8 N 0.5146 -1.398 -0.3135 0
M  V30 9 C 0.3463 -1.8794 2.0976 0
M  V30 10 C 2.2672 -1.7443 3.5491 0
M  V30 11 C 0.5758 -1.8075 -2.7401 0
M  V30 12 C 2.6141 -1.5864 -4.0086 0
M  V30 13 C -0.8065 -0.7026 -0.3533 0
M  V30 14 C 0.9128 -1.9866 3.3714 0
M  V30 15 C 1.2552 -1.8617 -3.9608 0
M  V30 16 C -0.7128 0.8166 0.029 0 CFG=1
M  V30 17 N 0.1519 1.59 -0.9093 0
M  V30 18 C -2.1514 1.4068 0.198 0
M  V30 19 C 0.6945 2.7994 -0.2982 0
M  V30 20 C -0.4441 1.8795 -2.2073 0
M  V30 21 N -2.987 0.7588 1.2345 0
M  V30 22 C -4.3761 1.2135 1.1131 0
M  V30 23 C -2.4956 1.0499 2.5849 0
M  V30 24 H 4.1161 -1.2336 2.5964 0
M  V30 25 H 4.3613 -1.0875 -2.875 0
M  V30 26 H -0.7102 -2.1107 2.0011 0
M  V30 27 H 2.7155 -1.8259 4.5353 0
M  V30 28 H -0.4768 -2.0744 -2.7394 0
M  V30 29 H 3.1502 -1.6252 -4.9524 0
M  V30 30 H -1.2923 -0.7872 -1.3303 0
M  V30 31 H -1.506 -1.2169 0.3134 0
M  V30 32 H 0.2924 -2.2681 4.2181 0
M  V30 33 H 0.7199 -2.1289 -4.8677 0
M  V30 34 H -0.2181 0.8609 1.0059 0
M  V30 35 H -2.6664 1.2961 -0.7652 0
M  V30 36 H -2.093 2.484 0.4 0
M  V30 37 H -0.082 3.5349 -0.0642 0
M  V30 38 H 1.4216 3.274 -0.9667 0
M  V30 39 H 1.2358 2.5615 0.6241 0
M  V30 40 H -0.8353 0.9767 -2.6851 0
M  V30 41 H 0.3138 2.2817 -2.889 0
M  V30 42 H -1.2551 2.613 -2.141 0
M  V30 43 H -4.7819 0.9537 0.1291 0
M  V30 44 H -4.4706 2.2966 1.2518 0
M  V30 45 H -5.0114 0.7131 1.8525 0
M  V30 46 H -2.4559 2.1262 2.7875 0
M  V30 47 H -1.4995 0.6292 2.7469 0
M  V30 48 H -3.1437 0.5843 3.3364 0
M  V30 END ATOM
M  V30 BEGIN BOND
M  V30 1 1 1 2
M  V30 2 1 1 3
M  V30 3 2 2 4
M  V30 4 1 2 5
M  V30 5 2 3 6
M  V30 6 1 3 7
M  V30 7 1 4 8
M  V30 8 1 4 9
M  V30 9 2 5 10
M  V30 10 1 6 11
M  V30 11 2 7 12
M  V30 12 1 8 13
M  V30 13 2 9 14
M  V30 14 2 11 15
M  V30 15 1 13 16
M  V30 16 1 16 17
M  V30 17 1 16 18
M  V30 18 1 17 19
M  V30 19 1 17 20
M  V30 20 1 18 21
M  V30 21 1 21 22
M  V30 22 1 21 23
M  V30 23 1 6 8
M  V30 24 1 10 14
M  V30 25 1 12 15
M  V30 26 1 5 24
M  V30 27 1 7 25
M  V30 28 1 9 26
M  V30 29 1 10 27
M  V30 30 1 11 28
M  V30 31 1 12 29
M  V30 32 1 13 30
M  V30 33 1 13 31
M  V30 34 1 14 32
M  V30 35 1 15 33
M  V30 36 1 16 34
M  V30 37 1 18 35
M  V30 38 1 18 36
M  V30 39 1 19 37
M  V30 40 1 19 38
M  V30 41 1 19 39
M  V30 42 1 20 40
M  V30 43 1 20 41
M  V30 44 1 20 42
M  V30 45 1 22 43
M  V30 46 1 22 44
M  V30 47 1 22 45
M  V30 48 1 23 46
M  V30 49 1 23 47
M  V30 50 1 23 48
M  V30 END BOND
M  V30 BEGIN COLLECTION
M  V30 MDLV30/STERAC1 ATOMS=(1 16)
M  V30 END COLLECTION
M  V30 END CTAB
M  END
>  <Column 1>
1568

>  <level_0>
1721

>  <index>
1721

>  <Unnamed: 0>
1721

>  <NO.>
1733

>  <Name>
aminopromazine

>  <IUPAC_name>
1-n-1-n-2-n-2-n-tetramethyl-3-phenothiazin-10-ylpropane-1-2-diamine

>  <SMILES>
CN(C)CC(CN1c2ccccc2Sc2ccccc21)N(C)C

>  <CID>
19392

>  <logBB>


>  <BBB+/BBB->
BBB+

>  <Inchi>
InChI=1S/C19H25N3S/c1-20(2)13-15(21(3)4)14-22-16-9-5-7-11-18(16)23-19-12-8-6-10-17(19)22/h5-12-15H-13-14H2-1-4H3

>  <threshold>
-1

>  <reference>
R1|R19|R6|R27|R27|R30|

>  <group>
B

>  <Class>
1

>  <ABC>
17.91

>  <ABCGG>
14.64

>  <nAcid>
0

>  <nBase>
2

>  <nAromAtom>
12

>  <nAromBond>
12

>  <nAtom>
48

>  <nHeavyAtom>
23

>  <nSpiro>
0

>  <nBridgehead>
0

>  <nHetero>
4

>  <nN>
3

>  <nO>
0

>  <nF>
0

>  <BalabanJ>
1.76

>  <BertzCT>
623.67

>  <nBonds>
50

>  <nBondsO>
25

>  <nBondsS>
38

>  <nBondsD>
0

>  <nBondsT>
0

>  <nBondsA>
12

>  <nBondsM>
12

>  <nBondsKS>
44

>  <nBondsKD>
6

>  <RNCG>
0.23

>  <RPCG>
0.04

>  <FCSP3>
0.37

>  <SZ>
29.33

>  <Sm>
27.27

>  <Sv>
29.23

>  <Sse>
47.16

>  <Sp>
32.69

>  <Si>
53.98

>  <MZ>
0.61

>  <Mm>
0.57

>  <Mv>
0.61

>  <Mse>
0.98

>  <Mp>
0.68

>  <Mi>
1.12

>  <NsCH3>
4

>  <NdCH2>
0

>  <NssCH2>
2

>  <NtCH>
0

>  <NdsCH>
0

>  <NaaCH>
8

>  <NsssCH>
1

>  <NddC>
0

>  <NtsC>
0

>  <NdssC>
0

>  <NaasC>
4

>  <NaaaC>
0

>  <NssssC>
0

>  <NsNH3>
0

>  <NsNH2>
0

>  <NssNH2>
0

>  <NdNH>
0

>  <NssNH>
0

>  <NaaNH>
0

>  <NtN>
0

>  <NsssNH>
0

>  <NdsN>
0

>  <NaaN>
0

>  <NsssN>
3

>  <NddsN>
0

>  <NaasN>
0

>  <NssssN>
0

>  <NsOH>
0

>  <NdO>
0

>  <NssO>
0

>  <NaaO>
0

>  <NsF>
0

>  <NsSiH3>
0

>  <NssSiH2>
0

>  <NsssSiH>
0

>  <NssssSi>
0

>  <NsPH2>
0

>  <NssPH>
0

>  <NsssP>
0

>  <NdsssP>
0

>  <NsssssP>
0

>  <NsSH>
0

>  <NdS>
0

>  <NssS>
1

>  <NaaS>
0

>  <NdssS>
0

>  <NddssS>
0

>  <NsCl>
0

>  <NsBr>
0

>  <NsI>
0

>  <fragCpx>
119.04

>  <fMF>
0.29

>  <nHBAcc>
4

>  <nHBDon>
0

>  <Kier1>
17.81

>  <Kier2>
7.92

>  <Lipinski>
1

>  <GhoseFilter>
1

>  <FilterItLogS>
-4.2

>  <VMcGowan>
266.48

>  <LabuteASA>
143.44

>  <PEOE_VSA1>
14.7

>  <PEOE_VSA2>
0

>  <PEOE_VSA3>
0

>  <PEOE_VSA4>
0

>  <PEOE_VSA5>
0

>  <PEOE_VSA6>
36.03

>  <PEOE_VSA7>
52.46

>  <PEOE_VSA8>
28.92

>  <PEOE_VSA9>
11.37

>  <PEOE_VSA10>
0

>  <PEOE_VSA11>
0

>  <PEOE_VSA12>
0

>  <PEOE_VSA13>
0

>  <SMR_VSA1>
0

>  <SMR_VSA2>
0

>  <SMR_VSA3>
9.8

>  <SMR_VSA4>
0

>  <SMR_VSA5>
15.83

>  <SMR_VSA6>
46.18

>  <SMR_VSA7>
48.53

>  <SMR_VSA8>
0

>  <SMR_VSA9>
0

>  <SlogP_VSA1>
4.9

>  <SlogP_VSA2>
57.12

>  <SlogP_VSA3>
0

>  <SlogP_VSA4>
0

>  <SlogP_VSA5>
0

>  <SlogP_VSA6>
58.32

>  <SlogP_VSA7>
0

>  <SlogP_VSA8>
0

>  <SlogP_VSA9>
0

>  <SlogP_VSA10>
11.37

>  <SlogP_VSA11>
0

>  <EState_VSA1>
0

>  <EState_VSA2>
0

>  <EState_VSA3>
6.04

>  <EState_VSA4>
13.09

>  <EState_VSA5>
21.17

>  <EState_VSA6>
0

>  <EState_VSA7>
11.76

>  <EState_VSA8>
91.42

>  <EState_VSA9>
0

>  <EState_VSA10>
0

>  <VSA_EState1>
0

>  <VSA_EState2>
9.76

>  <VSA_EState3>
0

>  <VSA_EState4>
2.64

>  <VSA_EState5>
0

>  <VSA_EState6>
17.91

>  <VSA_EState7>
0

>  <VSA_EState8>
2.03

>  <VSA_EState9>
8.63

>  <apol>
54.6

>  <bpol>
32.67

>  <nRing>
3

>  <nHRing>
1

>  <naRing>
2

>  <naHRing>
0

>  <nARing 2>
1

>  <nAHRing 2>
1

>  <nFRing>
1

>  <nFHRing>
1

>  <nFaRing>
0

>  <nFaHRing>
0

>  <nFARing 2>
1

>  <nFAHRing 2>
1

>  <nRot>
5

>  <SLogP>
3.78

>  <SMR>
100.04

>  <TopoPSA(NO)>
9.72

>  <TopoPSA>
35.02

>  <JGI1>
0.18

>  <JGI2>
0.07

>  <JGI3>
0.04

>  <JGI4>
0.04

>  <JGI5>
0.02

>  <Diameter>
9

>  <Radius>
5

>  <TMWC10>
122.96

>  <TSRW10>
57.48

>  <MW>
327.18

>  <AMW>
6.82

>  <WPath>
1106

>  <WPol>
37

>  <Zagreb1>
120

>  <Zagreb2>
141

>  <mZagreb2>
5.06

>  <yes>


>  <nAR-cont>
0.816016

>  <nHA-cont>
0.967789328

>  <MWHBN>
0.22113965

>  <MWHBN-cont>
0.994217096

>  <TPSA-cont>
0.755538654

>  <pka_cont>
0.97

>  <yes.1>


>  <BBB_SCORE>
5.27120828

>  <MMFF94 Energy>
129.91

$$$$
Compound 1313
Actelion Java MolfileCreator 2.0

  0  0  0  0  0  0              0 V3000
M  V30 BEGIN CTAB
M  V30 COUNTS 40 41 0 0 0
M  V30 BEGIN ATOM
M  V30 1 Cl 2.711 -1.4345 -4.3883 0
M  V30 2 C 1.845 -1.1715 -2.9243 0
M  V30 3 C 2.3692 -1.6299 -1.7186 0
M  V30 4 C 0.6239 -0.503 -2.9537 0
M  V30 5 C 1.6676 -1.4145 -0.5302 0
M  V30 6 C -0.0775 -0.2861 -1.7654 0
M  V30 7 C 0.4376 -0.7344 -0.5372 0
M  V30 8 C -0.3124 -0.5025 0.7746 0
M  V30 9 C -1.6507 -1.2614 0.7545 0
M  V30 10 C -0.4071 1.0075 1.1774 0
M  V30 11 C -1.6476 -2.6482 0.9953 0
M  V30 12 C -2.8775 -0.6438 0.4651 0
M  V30 13 O -1.1363 1.119 2.4196 0
M  V30 14 C 0.9749 1.6804 1.4217 0
M  V30 15 C -2.8316 -3.3874 0.9614 0
M  V30 16 C -4.0622 -1.3849 0.4325 0
M  V30 17 N 1.7794 1.9929 0.2308 0
M  V30 18 C -4.0394 -2.7549 0.6812 0
M  V30 19 C 3.1553 2.3176 0.612 0
M  V30 20 C 1.2085 3.0887 -0.5519 0
M  V30 21 H 3.3219 -2.1509 -1.6948 0
M  V30 22 H 0.2119 -0.1494 -3.8944 0
M  V30 23 H 2.0931 -1.7717 0.4048 0
M  V30 24 H -1.0313 0.2339 -1.8061 0
M  V30 25 H 0.2588 -0.9764 1.5878 0
M  V30 26 H -0.9781 1.5717 0.4332 0
M  V30 27 H -0.7131 -3.163 1.2078 0
M  V30 28 H -2.9334 0.4216 0.2643 0
M  V30 29 H -1.3335 2.0609 2.5584 0
M  V30 30 H 0.8291 2.5944 2.0153 0
M  V30 31 H 1.5414 1.0075 2.081 0
M  V30 32 H -2.8085 -4.457 1.1514 0
M  V30 33 H -5.0044 -0.8899 0.2126 0
M  V30 34 H -4.9615 -3.3288 0.655 0
M  V30 35 H 3.6194 1.4749 1.1366 0
M  V30 36 H 3.2068 3.2001 1.2601 0
M  V30 37 H 3.7683 2.5045 -0.2768 0
M  V30 38 H 1.1307 4.0144 0.0298 0
M  V30 39 H 0.2137 2.8346 -0.9298 0
M  V30 40 H 1.825 3.2906 -1.4354 0
M  V30 END ATOM
M  V30 BEGIN BOND
M  V30 1 1 1 2
M  V30 2 2 2 3
M  V30 3 1 2 4
M  V30 4 1 3 5
M  V30 5 2 4 6
M  V30 6 2 5 7
M  V30 7 1 7 8
M  V30 8 1 8 9
M  V30 9 1 8 10
M  V30 10 2 9 11
M  V30 11 1 9 12
M  V30 12 1 10 13
M  V30 13 1 10 14
M  V30 14 1 11 15
M  V30 15 2 12 16
M  V30 16 1 14 17
M  V30 17 2 15 18
M  V30 18 1 17 19
M  V30 19 1 17 20
M  V30 20 1 6 7
M  V30 21 1 16 18
M  V30 22 1 3 21
M  V30 23 1 4 22
M  V30 24 1 5 23
M  V30 25 1 6 24
M  V30 26 1 8 25
M  V30 27 1 10 26
M  V30 28 1 11 27
M  V30 29 1 12 28
M  V30 30 1 13 29
M  V30 31 1 14 30
M  V30 32 1 14 31
M  V30 33 1 15 32
M  V30 34 1 16 33
M  V30 35 1 18 34
M  V30 36 1 19 35
M  V30 37 1 19 36
M  V30 38 1 19 37
M  V30 39 1 20 38
M  V30 40 1 20 39
M  V30 41 1 20 40
M  V30 END BOND
M  V30 END CTAB
M  END
>  <Column 1>
1569

>  <level_0>
1722

>  <index>
1722

>  <Unnamed: 0>
1722

>  <NO.>
1734

>  <Name>
clemeprol

>  <IUPAC_name>
1-(4-chlorophenyl)-3-(dimethylamino)-1-phenylpropan-2-ol

>  <SMILES>
CN(C)CC(O)C(c1ccccc1)c1ccc(Cl)cc1

>  <CID>
71985

>  <logBB>


>  <BBB+/BBB->
BBB+

>  <Inchi>
InChI=1S/C17H20ClNO/c1-19(2)12-16(20)17(13-6-4-3-5-7-13)14-8-10-15(18)11-9-14/h3-11-16-17-20H-12H2-1-2H3

>  <threshold>
-1

>  <reference>
R1|R27|R30|

>  <group>
B

>  <Class>
1

>  <ABC>
15.17

>  <ABCGG>
13.13

>  <nAcid>
0

>  <nBase>
1

>  <nAromAtom>
12

>  <nAromBond>
12

>  <nAtom>
40

>  <nHeavyAtom>
20

>  <nSpiro>
0

>  <nBridgehead>
0

>  <nHetero>
3

>  <nN>
1

>  <nO>
1

>  <nF>
0

>  <BalabanJ>
2.02

>  <BertzCT>
524.45

>  <nBonds>
41

>  <nBondsO>
21

>  <nBondsS>
29

>  <nBondsD>
0

>  <nBondsT>
0

>  <nBondsA>
12

>  <nBondsM>
12

>  <nBondsKS>
35

>  <nBondsKD>
6

>  <RNCG>
0.28

>  <RPCG>
0.15

>  <FCSP3>
0.29

>  <SZ>
25.67

>  <Sm>
24.13

>  <Sv>
24.98

>  <Sse>
39.64

>  <Sp>
27.43

>  <Si>
44.8

>  <MZ>
0.64

>  <Mm>
0.6

>  <Mv>
0.62

>  <Mse>
0.99

>  <Mp>
0.69

>  <Mi>
1.12

>  <NsCH3>
2

>  <NdCH2>
0

>  <NssCH2>
1

>  <NtCH>
0

>  <NdsCH>
0

>  <NaaCH>
9

>  <NsssCH>
2

>  <NddC>
0

>  <NtsC>
0

>  <NdssC>
0

>  <NaasC>
3

>  <NaaaC>
0

>  <NssssC>
0

>  <NsNH3>
0

>  <NsNH2>
0

>  <NssNH2>
0

>  <NdNH>
0

>  <NssNH>
0

>  <NaaNH>
0

>  <NtN>
0

>  <NsssNH>
0

>  <NdsN>
0

>  <NaaN>
0

>  <NsssN>
1

>  <NddsN>
0

>  <NaasN>
0

>  <NssssN>
0

>  <NsOH>
1

>  <NdO>
0

>  <NssO>
0

>  <NaaO>
0

>  <NsF>
0

>  <NsSiH3>
0

>  <NssSiH2>
0

>  <NsssSiH>
0

>  <NssssSi>
0

>  <NsPH2>
0

>  <NssPH>
0

>  <NsssP>
0

>  <NdsssP>
0

>  <NsssssP>
0

>  <NsSH>
0

>  <NdS>
0

>  <NssS>
0

>  <NaaS>
0

>  <NdssS>
0

>  <NddssS>
0

>  <NsCl>
1

>  <NsBr>
0

>  <NsI>
0

>  <fragCpx>
61.03

>  <fMF>
0.33

>  <nHBAcc>
2

>  <nHBDon>
1

>  <Kier1>
16.37

>  <Kier2>
7.85

>  <Lipinski>
1

>  <GhoseFilter>
1

>  <FilterItLogS>
-4.2

>  <VMcGowan>
230.96

>  <LabuteASA>
125.17

>  <PEOE_VSA1>
10.01

>  <PEOE_VSA2>
0

>  <PEOE_VSA3>
0

>  <PEOE_VSA4>
0

>  <PEOE_VSA5>
0

>  <PEOE_VSA6>
54.07

>  <PEOE_VSA7>
37.35

>  <PEOE_VSA8>
17.49

>  <PEOE_VSA9>
6.1

>  <PEOE_VSA10>
0

>  <PEOE_VSA11>
0

>  <PEOE_VSA12>
0

>  <PEOE_VSA13>
0

>  <SMR_VSA1>
5.11

>  <SMR_VSA2>
0

>  <SMR_VSA3>
4.9

>  <SMR_VSA4>
0

>  <SMR_VSA5>
12.02

>  <SMR_VSA6>
20.64

>  <SMR_VSA7>
70.75

>  <SMR_VSA8>
0

>  <SMR_VSA9>
0

>  <SlogP_VSA1>
0

>  <SlogP_VSA2>
36.75

>  <SlogP_VSA3>
0

>  <SlogP_VSA4>
0

>  <SlogP_VSA5>
17.04

>  <SlogP_VSA6>
54.6

>  <SlogP_VSA7>
5.02

>  <SlogP_VSA8>
0

>  <SlogP_VSA9>
0

>  <SlogP_VSA10>
0

>  <SlogP_VSA11>
0

>  <EState_VSA1>
6.1

>  <EState_VSA2>
5.92

>  <EState_VSA3>
11.57

>  <EState_VSA4>
11.13

>  <EState_VSA5>
0

>  <EState_VSA6>
0

>  <EState_VSA7>
61.46

>  <EState_VSA8>
12.13

>  <EState_VSA9>
11.6

>  <EState_VSA10>
5.11

>  <VSA_EState1>
0

>  <VSA_EState2>
2

>  <VSA_EState3>
11.29

>  <VSA_EState4>
2.19

>  <VSA_EState5>
-0.05

>  <VSA_EState6>
17.81

>  <VSA_EState7>
-0.46

>  <VSA_EState8>
0.61

>  <VSA_EState9>
3.93

>  <apol>
45.81

>  <bpol>
22.28

>  <nRing>
2

>  <nHRing>
0

>  <naRing>
2

>  <naHRing>
0

>  <nARing 2>
0

>  <nAHRing 2>
0

>  <nFRing>
0

>  <nFHRing>
0

>  <nFaRing>
0

>  <nFaHRing>
0

>  <nFARing 2>
0

>  <nFAHRing 2>
0

>  <nRot>
5

>  <SLogP>
3.39

>  <SMR>
84.3

>  <TopoPSA(NO)>
23.47

>  <TopoPSA>
23.47

>  <JGI1>
0.19

>  <JGI2>
0.07

>  <JGI3>
0.06

>  <JGI4>
0.03

>  <JGI5>
0.02

>  <Diameter>
9

>  <Radius>
5

>  <TMWC10>
112.86

>  <TSRW10>
53.12

>  <MW>
289.12

>  <AMW>
7.23

>  <WPath>
795

>  <WPol>
28

>  <Zagreb1>
98

>  <Zagreb2>
111

>  <mZagreb2>
4.5

>  <yes>


>  <nAR-cont>
0.336376

>  <nHA-cont>
0.999629945

>  <MWHBN>
0.176433962

>  <MWHBN-cont>
0.983010328

>  <TPSA-cont>
0.836164826

>  <pka_cont>
0.97

>  <yes.1>


>  <BBB_SCORE>
4.967851089

>  <MMFF94 Energy>
103.78

$$$$
Compound 1314
Actelion Java MolfileCreator 2.0

  0  0  0  0  0  0              0 V3000
M  V30 BEGIN CTAB
M  V30 COUNTS 38 39 0 0 0
M  V30 BEGIN ATOM
M  V30 1 O 1.1796 -0.9436 0.3144 0
M  V30 2 C 1.8029 -0.0825 1.1685 0
M  V30 3 C 0.1688 -0.4921 -0.6086 0
M  V30 4 C 1.4576 1.2425 1.4248 0
M  V30 5 C 2.8915 -0.6404 1.8476 0
M  V30 6 O -0.9267 0.2286 -0.0315 0
M  V30 7 C 0.8189 0.3391 -1.7597 0
M  V30 8 C 2.1986 2.0018 2.3373 0
M  V30 9 C 3.6331 0.1146 2.7581 0
M  V30 10 C -1.8755 -0.4854 0.6441 0
M  V30 11 N -0.0512 0.6793 -2.914 0
M  V30 12 C 3.2862 1.4398 3.0019 0
M  V30 13 C -1.7268 -1.7779 1.1467 0
M  V30 14 C -3.0792 0.1936 0.8518 0
M  V30 15 C -0.4893 -0.5095 -3.6443 0
M  V30 16 C 0.6545 1.5897 -3.819 0
M  V30 17 C -2.7803 -2.39 1.833 0
M  V30 18 C -4.1321 -0.4164 1.5354 0
M  V30 19 C -3.9827 -1.7115 2.0246 0
M  V30 20 H -0.2171 -1.4099 -1.0676 0
M  V30 21 H 0.6119 1.7225 0.9451 0
M  V30 22 H 3.1661 -1.6764 1.665 0
M  V30 23 H 1.1677 1.2848 -1.3288 0
M  V30 24 H 1.7191 -0.1858 -2.1076 0
M  V30 25 H 1.918 3.0339 2.5321 0
M  V30 26 H 4.4762 -0.3335 3.2764 0
M  V30 27 H 3.8569 2.0323 3.7119 0
M  V30 28 H -0.799 -2.3297 1.0399 0
M  V30 29 H -3.1981 1.2053 0.4718 0
M  V30 30 H -1.1413 -1.135 -3.0272 0
M  V30 31 H 0.3549 -1.1162 -3.99 0
M  V30 32 H -1.0872 -0.2263 -4.5183 0
M  V30 33 H 1.561 1.1367 -4.2362 0
M  V30 34 H 0.9365 2.5114 -3.2978 0
M  V30 35 H 0.0046 1.8893 -4.6488 0
M  V30 36 H -2.6571 -3.396 2.2256 0
M  V30 37 H -5.0644 0.1206 1.6863 0
M  V30 38 H -4.7986 -2.189 2.5604 0
M  V30 END ATOM
M  V30 BEGIN BOND
M  V30 1 1 1 2
M  V30 2 1 1 3
M  V30 3 2 2 4
M  V30 4 1 2 5
M  V30 5 1 3 6
M  V30 6 1 3 7
M  V30 7 1 4 8
M  V30 8 2 5 9
M  V30 9 1 6 10
M  V30 10 1 7 11
M  V30 11 2 8 12
M  V30 12 2 10 13
M  V30 13 1 10 14
M  V30 14 1 11 15
M  V30 15 1 11 16
M  V30 16 1 13 17
M  V30 17 2 14 18
M  V30 18 2 17 19
M  V30 19 1 9 12
M  V30 20 1 18 19
M  V30 21 1 3 20
M  V30 22 1 4 21
M  V30 23 1 5 22
M  V30 24 1 7 23
M  V30 25 1 7 24
M  V30 26 1 8 25
M  V30 27 1 9 26
M  V30 28 1 12 27
M  V30 29 1 13 28
M  V30 30 1 14 29
M  V30 31 1 15 30
M  V30 32 1 15 31
M  V30 33 1 15 32
M  V30 34 1 16 33
M  V30 35 1 16 34
M  V30 36 1 16 35
M  V30 37 1 17 36
M  V30 38 1 18 37
M  V30 39 1 19 38
M  V30 END BOND
M  V30 END CTAB
M  END
>  <Column 1>
1570

>  <level_0>
1723

>  <index>
1723

>  <Unnamed: 0>
1723

>  <NO.>
1735

>  <Name>
medifoxamine

>  <IUPAC_name>
n-n-dimethyl-2-2-diphenoxyethanamine

>  <SMILES>
CN(C)CC(Oc1ccccc1)Oc1ccccc1

>  <CID>
36109

>  <logBB>


>  <BBB+/BBB->
BBB+

>  <Inchi>
InChI=1S/C16H19NO2/c1-17(2)13-16(18-14-9-5-3-6-10-14)19-15-11-7-4-8-12-15/h3-12-16H-13H2-1-2H3

>  <threshold>
-1

>  <reference>
R1|R13|R19|R6|R24|R27|R27|R27|R30|R30|

>  <group>
B

>  <Class>
1

>  <ABC>
14.36

>  <ABCGG>
12.05

>  <nAcid>
0

>  <nBase>
1

>  <nAromAtom>
12

>  <nAromBond>
12

>  <nAtom>
38

>  <nHeavyAtom>
19

>  <nSpiro>
0

>  <nBridgehead>
0

>  <nHetero>
3

>  <nN>
1

>  <nO>
2

>  <nF>
0

>  <BalabanJ>
1.79

>  <BertzCT>
429.12

>  <nBonds>
39

>  <nBondsO>
20

>  <nBondsS>
27

>  <nBondsD>
0

>  <nBondsT>
0

>  <nBondsA>
12

>  <nBondsM>
12

>  <nBondsKS>
33

>  <nBondsKD>
6

>  <RNCG>
0.27

>  <RPCG>
0.15

>  <FCSP3>
0.25

>  <SZ>
23

>  <Sm>
21.42

>  <Sv>
23.33

>  <Sse>
37.76

>  <Sp>
25.21

>  <Si>
42.65

>  <MZ>
0.61

>  <Mm>
0.56

>  <Mv>
0.61

>  <Mse>
0.99

>  <Mp>
0.66

>  <Mi>
1.12

>  <NsCH3>
2

>  <NdCH2>
0

>  <NssCH2>
1

>  <NtCH>
0

>  <NdsCH>
0

>  <NaaCH>
10

>  <NsssCH>
1

>  <NddC>
0

>  <NtsC>
0

>  <NdssC>
0

>  <NaasC>
2

>  <NaaaC>
0

>  <NssssC>
0

>  <NsNH3>
0

>  <NsNH2>
0

>  <NssNH2>
0

>  <NdNH>
0

>  <NssNH>
0

>  <NaaNH>
0

>  <NtN>
0

>  <NsssNH>
0

>  <NdsN>
0

>  <NaaN>
0

>  <NsssN>
1

>  <NddsN>
0

>  <NaasN>
0

>  <NssssN>
0

>  <NsOH>
0

>  <NdO>
0

>  <NssO>
2

>  <NaaO>
0

>  <NsF>
0

>  <NsSiH3>
0

>  <NssSiH2>
0

>  <NsssSiH>
0

>  <NssssSi>
0

>  <NsPH2>
0

>  <NssPH>
0

>  <NsssP>
0

>  <NdsssP>
0

>  <NsssssP>
0

>  <NsSH>
0

>  <NdS>
0

>  <NssS>
0

>  <NaaS>
0

>  <NdssS>
0

>  <NddssS>
0

>  <NsCl>
0

>  <NsBr>
0

>  <NsI>
0

>  <fragCpx>
58.03

>  <fMF>
0.39

>  <nHBAcc>
3

>  <nHBDon>
0

>  <Kier1>
15.39

>  <Kier2>
8.32

>  <Lipinski>
1

>  <GhoseFilter>
1

>  <FilterItLogS>
-3.45

>  <VMcGowan>
210.5

>  <LabuteASA>
113.94

>  <PEOE_VSA1>
14.37

>  <PEOE_VSA2>
0

>  <PEOE_VSA3>
0

>  <PEOE_VSA4>
0

>  <PEOE_VSA5>
0

>  <PEOE_VSA6>
36.4

>  <PEOE_VSA7>
38.36

>  <PEOE_VSA8>
0

>  <PEOE_VSA9>
6.54

>  <PEOE_VSA10>
11.5

>  <PEOE_VSA11>
0

>  <PEOE_VSA12>
0

>  <PEOE_VSA13>
6.29

>  <SMR_VSA1>
9.47

>  <SMR_VSA2>
0

>  <SMR_VSA3>
4.9

>  <SMR_VSA4>
0

>  <SMR_VSA5>
6.29

>  <SMR_VSA6>
20.64

>  <SMR_VSA7>
60.66

>  <SMR_VSA8>
0

>  <SMR_VSA9>
11.5

>  <SlogP_VSA1>
9.47

>  <SlogP_VSA2>
31.83

>  <SlogP_VSA3>
0

>  <SlogP_VSA4>
0

>  <SlogP_VSA5>
0

>  <SlogP_VSA6>
60.66

>  <SlogP_VSA7>
0

>  <SlogP_VSA8>
0

>  <SlogP_VSA9>
0

>  <SlogP_VSA10>
0

>  <SlogP_VSA11>
11.5

>  <EState_VSA1>
0

>  <EState_VSA2>
6.29

>  <EState_VSA3>
6.54

>  <EState_VSA4>
11.5

>  <EState_VSA5>
0

>  <EState_VSA6>
0

>  <EState_VSA7>
79.66

>  <EState_VSA8>
0

>  <EState_VSA9>
9.47

>  <EState_VSA10>
0

>  <VSA_EState1>
11.73

>  <VSA_EState2>
2.04

>  <VSA_EState3>
0

>  <VSA_EState4>
0

>  <VSA_EState5>
1.62

>  <VSA_EState6>
19.43

>  <VSA_EState7>
-0.33

>  <VSA_EState8>
0.68

>  <VSA_EState9>
3.99

>  <apol>
42.09

>  <bpol>
24.24

>  <nRing>
2

>  <nHRing>
0

>  <naRing>
2

>  <naHRing>
0

>  <nARing 2>
0

>  <nAHRing 2>
0

>  <nFRing>
0

>  <nFHRing>
0

>  <nFaRing>
0

>  <nFaHRing>
0

>  <nFARing 2>
0

>  <nFAHRing 2>
0

>  <nRot>
6

>  <SLogP>
3.03

>  <SMR>
76.48

>  <TopoPSA(NO)>
21.7

>  <TopoPSA>
21.7

>  <JGI1>
0.18

>  <JGI2>
0.03

>  <JGI3>
0.05

>  <JGI4>
0.02

>  <JGI5>
0.02

>  <Diameter>
10

>  <Radius>
5

>  <TMWC10>
108.5

>  <TSRW10>
51.28

>  <MW>
257.14

>  <AMW>
6.77

>  <WPath>
756

>  <WPol>
22

>  <Zagreb1>
90

>  <Zagreb2>
98

>  <mZagreb2>
4.33

>  <yes>


>  <nAR-cont>
0.336376

>  <nHA-cont>
0.998649058

>  <MWHBN>
0.187083909

>  <MWHBN-cont>
0.993643498

>  <TPSA-cont>
0.848520525

>  <pka_cont>
0.97

>  <yes.1>


>  <BBB_SCORE>
5.007531355

>  <MMFF94 Energy>
88.108

$$$$
Compound 1315
Actelion Java MolfileCreator 2.0

  0  0  0  0  0  0              0 V3000
M  V30 BEGIN CTAB
M  V30 COUNTS 42 44 0 0 0
M  V30 BEGIN ATOM
M  V30 1 S 2.174 0.5632 3.222 0
M  V30 2 C 2.3401 0.4743 1.4288 0
M  V30 3 C 0.3896 0.4615 3.5474 0
M  V30 4 C 1.3297 0.5183 0.4435 0
M  V30 5 C 3.6836 0.3807 1.0077 0
M  V30 6 C -0.3772 1.6353 2.9995 0
M  V30 7 C -0.1183 0.6437 0.7425 0
M  V30 8 C 1.7048 0.5211 -0.9179 0
M  V30 9 C 4.0309 0.3493 -0.3436 0
M  V30 10 C -0.6326 1.7151 1.6207 0
M  V30 11 C -0.8369 2.6592 3.8399 0
M  V30 12 C -1.0341 -0.2643 0.3349 0
M  V30 13 C 3.0394 0.4273 -1.3091 0
M  V30 14 C -1.3476 2.7991 1.0975 0
M  V30 15 C -1.5498 3.7378 3.3135 0
M  V30 16 C -0.8112 -1.5444 -0.4328 0
M  V30 17 C -1.8066 3.8072 1.9451 0
M  V30 18 C -1.4523 -1.483 -1.8304 0
M  V30 19 N -1.3793 -2.7585 -2.5684 0
M  V30 20 C -0.0043 -3.096 -2.9442 0
M  V30 21 C -2.2144 -2.6878 -3.7707 0
M  V30 22 H 0.2665 0.4236 4.6362 0
M  V30 23 H -0.0124 -0.4892 3.18 0
M  V30 24 H 4.4863 0.3405 1.743 0
M  V30 25 H 0.9454 0.6082 -1.6917 0
M  V30 26 H 5.0757 0.2803 -0.6341 0
M  V30 27 H -0.6391 2.6248 4.9089 0
M  V30 28 H -2.0753 -0.1181 0.6285 0
M  V30 29 H 3.3002 0.4249 -2.3638 0
M  V30 30 H -1.5397 2.8658 0.0299 0
M  V30 31 H -1.9014 4.5282 3.972 0
M  V30 32 H -1.2688 -2.3606 0.1408 0
M  V30 33 H 0.2531 -1.7836 -0.4987 0
M  V30 34 H -2.3575 4.6506 1.5373 0
M  V30 35 H -2.5102 -1.2191 -1.6949 0
M  V30 36 H -1.0023 -0.6722 -2.4181 0
M  V30 37 H 0.615 -3.2829 -2.0619 0
M  V30 38 H 0.4666 -2.3065 -3.5408 0
M  V30 39 H 0.0175 -4.024 -3.5271 0
M  V30 40 H -1.8811 -1.9035 -4.46 0
M  V30 41 H -3.2593 -2.4931 -3.5042 0
M  V30 42 H -2.2038 -3.6447 -4.3045 0
M  V30 END ATOM
M  V30 BEGIN BOND
M  V30 1 1 1 2
M  V30 2 1 1 3
M  V30 3 2 2 4
M  V30 4 1 2 5
M  V30 5 1 3 6
M  V30 6 1 4 7
M  V30 7 1 4 8
M  V30 8 2 5 9
M  V30 9 2 6 10
M  V30 10 1 6 11
M  V30 11 2 7 12
M  V30 12 2 8 13
M  V30 13 1 10 14
M  V30 14 2 11 15
M  V30 15 1 12 16
M  V30 16 2 14 17
M  V30 17 1 16 18
M  V30 18 1 18 19
M  V30 19 1 19 20
M  V30 20 1 19 21
M  V30 21 1 7 10
M  V30 22 1 9 13
M  V30 23 1 15 17
M  V30 24 1 3 22
M  V30 25 1 3 23
M  V30 26 1 5 24
M  V30 27 1 8 25
M  V30 28 1 9 26
M  V30 29 1 11 27
M  V30 30 1 12 28
M  V30 31 1 13 29
M  V30 32 1 14 30
M  V30 33 1 15 31
M  V30 34 1 16 32
M  V30 35 1 16 33
M  V30 36 1 17 34
M  V30 37 1 18 35
M  V30 38 1 18 36
M  V30 39 1 20 37
M  V30 40 1 20 38
M  V30 41 1 20 39
M  V30 42 1 21 40
M  V30 43 1 21 41
M  V30 44 1 21 42
M  V30 END BOND
M  V30 END CTAB
M  END
>  <Column 1>
1571

>  <level_0>
1725

>  <index>
1725

>  <Unnamed: 0>
1725

>  <NO.>
1737

>  <Name>
dothiepin

>  <IUPAC_name>
(3z)-3-(6h-benzo[c][1]benzothiepin-11-ylidene)-n-n-dimethylpropan-1-amine;hydron;chloride

>  <SMILES>
CN(C)CC/C=C1/c2ccccc2CSc2ccccc21

>  <CID>
5282426

>  <logBB>


>  <BBB+/BBB->
BBB+

>  <Inchi>
InChI=1S/C19H21NS/c1-20(2)13-7-11-17-16-9-4-3-8-15(16)14-21-19-12-6-5-10-18(17)19/h3-6-8-12H-7-13-14H2-1-2H3/b17-11-

>  <threshold>
-1

>  <reference>
R1|R13|R6|R23|R27|R27|R30|R30|

>  <group>
B

>  <Class>
1

>  <ABC>
16.32

>  <ABCGG>
13.12

>  <nAcid>
0

>  <nBase>
1

>  <nAromAtom>
12

>  <nAromBond>
12

>  <nAtom>
42

>  <nHeavyAtom>
21

>  <nSpiro>
0

>  <nBridgehead>
0

>  <nHetero>
2

>  <nN>
1

>  <nO>
0

>  <nF>
0

>  <BalabanJ>
1.7

>  <BertzCT>
608.62

>  <nBonds>
44

>  <nBondsO>
23

>  <nBondsS>
31

>  <nBondsD>
1

>  <nBondsT>
0

>  <nBondsA>
12

>  <nBondsM>
13

>  <nBondsKS>
37

>  <nBondsKD>
7

>  <RNCG>
0.29

>  <RPCG>
0.06

>  <FCSP3>
0.26

>  <SZ>
26.33

>  <Sm>
24.6

>  <Sv>
26.63

>  <Sse>
41.06

>  <Sp>
29.78

>  <Si>
46.57

>  <MZ>
0.63

>  <Mm>
0.59

>  <Mv>
0.63

>  <Mse>
0.98

>  <Mp>
0.71

>  <Mi>
1.11

>  <NsCH3>
2

>  <NdCH2>
0

>  <NssCH2>
3

>  <NtCH>
0

>  <NdsCH>
1

>  <NaaCH>
8

>  <NsssCH>
0

>  <NddC>
0

>  <NtsC>
0

>  <NdssC>
1

>  <NaasC>
4

>  <NaaaC>
0

>  <NssssC>
0

>  <NsNH3>
0

>  <NsNH2>
0

>  <NssNH2>
0

>  <NdNH>
0

>  <NssNH>
0

>  <NaaNH>
0

>  <NtN>
0

>  <NsssNH>
0

>  <NdsN>
0

>  <NaaN>
0

>  <NsssN>
1

>  <NddsN>
0

>  <NaasN>
0

>  <NssssN>
0

>  <NsOH>
0

>  <NdO>
0

>  <NssO>
0

>  <NaaO>
0

>  <NsF>
0

>  <NsSiH3>
0

>  <NssSiH2>
0

>  <NsssSiH>
0

>  <NssssSi>
0

>  <NsPH2>
0

>  <NssPH>
0

>  <NsssP>
0

>  <NdsssP>
0

>  <NsssssP>
0

>  <NsSH>
0

>  <NdS>
0

>  <NssS>
1

>  <NaaS>
0

>  <NdssS>
0

>  <NddssS>
0

>  <NsCl>
0

>  <NsBr>
0

>  <NsI>
0

>  <fragCpx>
109.02

>  <fMF>
0.36

>  <nHBAcc>
2

>  <nHBDon>
0

>  <Kier1>
15.88

>  <Kier2>
7.51

>  <Lipinski>
1

>  <GhoseFilter>
1

>  <FilterItLogS>
-5.31

>  <VMcGowan>
242.22

>  <LabuteASA>
131.23

>  <PEOE_VSA1>
4.9

>  <PEOE_VSA2>
0

>  <PEOE_VSA3>
0

>  <PEOE_VSA4>
0

>  <PEOE_VSA5>
11.76

>  <PEOE_VSA6>
48.54

>  <PEOE_VSA7>
48.85

>  <PEOE_VSA8>
17.19

>  <PEOE_VSA9>
0

>  <PEOE_VSA10>
0

>  <PEOE_VSA11>
0

>  <PEOE_VSA12>
0

>  <PEOE_VSA13>
0

>  <SMR_VSA1>
0

>  <SMR_VSA2>
0

>  <SMR_VSA3>
4.9

>  <SMR_VSA4>
0

>  <SMR_VSA5>
17.07

>  <SMR_VSA6>
20.64

>  <SMR_VSA7>
71.3

>  <SMR_VSA8>
0

>  <SMR_VSA9>
0

>  <SlogP_VSA1>
0

>  <SlogP_VSA2>
25.54

>  <SlogP_VSA3>
5.75

>  <SlogP_VSA4>
0

>  <SlogP_VSA5>
23.11

>  <SlogP_VSA6>
59.5

>  <SlogP_VSA7>
0

>  <SlogP_VSA8>
5.57

>  <SlogP_VSA9>
0

>  <SlogP_VSA10>
0

>  <SlogP_VSA11>
0

>  <EState_VSA1>
0

>  <EState_VSA2>
0

>  <EState_VSA3>
0

>  <EState_VSA4>
18.72

>  <EState_VSA5>
27.16

>  <EState_VSA6>
0

>  <EState_VSA7>
11.76

>  <EState_VSA8>
73.6

>  <EState_VSA9>
0

>  <EState_VSA10>
0

>  <VSA_EState1>
0

>  <VSA_EState2>
3.63

>  <VSA_EState3>
0

>  <VSA_EState4>
5.61

>  <VSA_EState5>
1.05

>  <VSA_EState6>
17.6

>  <VSA_EState7>
3.49

>  <VSA_EState8>
1.08

>  <VSA_EState9>
4.26

>  <apol>
49.73

>  <bpol>
25.24

>  <nRing>
3

>  <nHRing>
1

>  <naRing>
2

>  <naHRing>
0

>  <nARing 2>
1

>  <nAHRing 2>
1

>  <nFRing>
1

>  <nFHRing>
1

>  <nFaRing>
0

>  <nFaHRing>
0

>  <nFARing 2>
1

>  <nFAHRing 2>
1

>  <nRot>
3

>  <SLogP>
4.68

>  <SMR>
92.7

>  <TopoPSA(NO)>
3.24

>  <TopoPSA>
28.54

>  <JGI1>
0.13

>  <JGI2>
0.07

>  <JGI3>
0.04

>  <JGI4>
0.03

>  <JGI5>
0.01

>  <Diameter>
9

>  <Radius>
5

>  <TMWC10>
117.56

>  <TSRW10>
62.81

>  <MW>
295.14

>  <AMW>
7.03

>  <WPath>
882

>  <WPol>
35

>  <Zagreb1>
108

>  <Zagreb2>
126

>  <mZagreb2>
4.69

>  <yes>


>  <nAR-cont>
0.816016

>  <nHA-cont>
0.994529749

>  <MWHBN>
0.116416881

>  <MWHBN-cont>
0.813532959

>  <TPSA-cont>
0.800773078

>  <pka_cont>
0.97

>  <yes.1>


>  <BBB_SCORE>
5.117391344

>  <MMFF94 Energy>
83.668

$$$$
Compound 1316
Actelion Java MolfileCreator 2.0

  0  0  0  0  0  0              0 V3000
M  V30 BEGIN CTAB
M  V30 COUNTS 36 38 0 0 0
M  V30 BEGIN ATOM
M  V30 1 S -1.3758 -2.6721 0.6472 0
M  V30 2 C -0.6451 -1.4427 1.7261 0
M  V30 3 C -0.1162 -2.7378 -0.6238 0
M  V30 4 C -0.2829 -0.1464 1.3082 0
M  V30 5 C -0.4173 -1.8396 3.0555 0
M  V30 6 C 0.3251 -1.6053 -1.3302 0
M  V30 7 C 0.4361 -3.9946 -0.9166 0
M  V30 8 C -0.5847 0.3861 -0.047 0
M  V30 9 C 0.3587 0.695 2.2381 0
M  V30 10 C 0.1998 -0.9809 3.9635 0
M  V30 11 C -0.2807 -0.2737 -1.1841 0
M  V30 12 C 1.3171 -1.7571 -2.3131 0
M  V30 13 C 1.4295 -4.1284 -1.8873 0
M  V30 14 C -1.2756 1.7459 -0.1096 0
M  V30 15 C 0.5984 0.2836 3.5512 0
M  V30 16 C 1.8727 -3.0086 -2.5833 0
M  V30 17 N -0.7501 2.6628 -1.1418 0
M  V30 18 C 0.5808 3.1593 -0.7866 0
M  V30 19 C -1.6676 3.7884 -1.3285 0
M  V30 20 H -0.7054 -2.8349 3.3879 0
M  V30 21 H 0.0994 -4.8801 -0.382 0
M  V30 22 H 0.6894 1.6889 1.9451 0
M  V30 23 H 0.3792 -1.3061 4.9849 0
M  V30 24 H -0.5195 0.2028 -2.1351 0
M  V30 25 H 1.6616 -0.8941 -2.8797 0
M  V30 26 H 1.8536 -5.1064 -2.0995 0
M  V30 27 H -1.2853 2.252 0.8637 0
M  V30 28 H -2.3311 1.5282 -0.3299 0
M  V30 29 H 1.0943 0.9538 4.2489 0
M  V30 30 H 2.6428 -3.1081 -3.3438 0
M  V30 31 H 1.303 2.3403 -0.7039 0
M  V30 32 H 0.5769 3.7131 0.1593 0
M  V30 33 H 0.9617 3.8244 -1.5701 0
M  V30 34 H -1.7955 4.3755 -0.4116 0
M  V30 35 H -2.6526 3.4339 -1.6522 0
M  V30 36 H -1.303 4.4558 -2.1175 0
M  V30 END ATOM
M  V30 BEGIN BOND
M  V30 1 1 1 2
M  V30 2 1 1 3
M  V30 3 2 2 4
M  V30 4 1 2 5
M  V30 5 2 3 6
M  V30 6 1 3 7
M  V30 7 1 4 8
M  V30 8 1 4 9
M  V30 9 2 5 10
M  V30 10 1 6 11
M  V30 11 1 6 12
M  V30 12 2 7 13
M  V30 13 1 8 14
M  V30 14 2 9 15
M  V30 15 2 12 16
M  V30 16 1 14 17
M  V30 17 1 17 18
M  V30 18 1 17 19
M  V30 19 2 8 11
M  V30 20 1 10 15
M  V30 21 1 13 16
M  V30 22 1 5 20
M  V30 23 1 7 21
M  V30 24 1 9 22
M  V30 25 1 10 23
M  V30 26 1 11 24
M  V30 27 1 12 25
M  V30 28 1 13 26
M  V30 29 1 14 27
M  V30 30 1 14 28
M  V30 31 1 15 29
M  V30 32 1 16 30
M  V30 33 1 18 31
M  V30 34 1 18 32
M  V30 35 1 18 33
M  V30 36 1 19 34
M  V30 37 1 19 35
M  V30 38 1 19 36
M  V30 END BOND
M  V30 END CTAB
M  END
>  <Column 1>
1573

>  <level_0>
1727

>  <index>
1727

>  <Unnamed: 0>
1727

>  <NO.>
1739

>  <Name>
damotepine

>  <IUPAC_name>
1-benzo[b][1]benzothiepin-5-yl-n-n-dimethylmethanamine

>  <SMILES>
CN(C)CC1=Cc2ccccc2Sc2ccccc21

>  <CID>
71644

>  <logBB>


>  <BBB+/BBB->
BBB+

>  <Inchi>
InChI=1S/C17H17NS/c1-18(2)12-14-11-13-7-3-5-9-16(13)19-17-10-6-4-8-15(14)17/h3-11H-12H2-1-2H3

>  <threshold>
-1

>  <reference>
R1|R13|R19|R6|R24|R27|R27|R27|R30|R30|

>  <group>
B

>  <Class>
1

>  <ABC>
14.95

>  <ABCGG>
12.07

>  <nAcid>
0

>  <nBase>
1

>  <nAromAtom>
12

>  <nAromBond>
12

>  <nAtom>
36

>  <nHeavyAtom>
19

>  <nSpiro>
0

>  <nBridgehead>
0

>  <nHetero>
2

>  <nN>
1

>  <nO>
0

>  <nF>
0

>  <BalabanJ>
1.76

>  <BertzCT>
628.66

>  <nBonds>
38

>  <nBondsO>
21

>  <nBondsS>
25

>  <nBondsD>
1

>  <nBondsT>
0

>  <nBondsA>
12

>  <nBondsM>
13

>  <nBondsKS>
31

>  <nBondsKD>
7

>  <RNCG>
0.32

>  <RPCG>
0.07

>  <FCSP3>
0.18

>  <SZ>
23.67

>  <Sm>
22.26

>  <Sv>
23.55

>  <Sse>
35.29

>  <Sp>
26.18

>  <Si>
39.74

>  <MZ>
0.66

>  <Mm>
0.62

>  <Mv>
0.65

>  <Mse>
0.98

>  <Mp>
0.73

>  <Mi>
1.1

>  <NsCH3>
2

>  <NdCH2>
0

>  <NssCH2>
1

>  <NtCH>
0

>  <NdsCH>
1

>  <NaaCH>
8

>  <NsssCH>
0

>  <NddC>
0

>  <NtsC>
0

>  <NdssC>
1

>  <NaasC>
4

>  <NaaaC>
0

>  <NssssC>
0

>  <NsNH3>
0

>  <NsNH2>
0

>  <NssNH2>
0

>  <NdNH>
0

>  <NssNH>
0

>  <NaaNH>
0

>  <NtN>
0

>  <NsssNH>
0

>  <NdsN>
0

>  <NaaN>
0

>  <NsssN>
1

>  <NddsN>
0

>  <NaasN>
0

>  <NssssN>
0

>  <NsOH>
0

>  <NdO>
0

>  <NssO>
0

>  <NaaO>
0

>  <NsF>
0

>  <NsSiH3>
0

>  <NssSiH2>
0

>  <NsssSiH>
0

>  <NssssSi>
0

>  <NsPH2>
0

>  <NssPH>
0

>  <NsssP>
0

>  <NdsssP>
0

>  <NsssssP>
0

>  <NsSH>
0

>  <NdS>
0

>  <NssS>
1

>  <NaaS>
0

>  <NdssS>
0

>  <NddssS>
0

>  <NsCl>
0

>  <NsBr>
0

>  <NsI>
0

>  <fragCpx>
99.02

>  <fMF>
0.42

>  <nHBAcc>
2

>  <nHBDon>
0

>  <Kier1>
13.96

>  <Kier2>
6.19

>  <Lipinski>
1

>  <GhoseFilter>
1

>  <FilterItLogS>
-4.63

>  <VMcGowan>
214.04

>  <LabuteASA>
118.5

>  <PEOE_VSA1>
4.9

>  <PEOE_VSA2>
0

>  <PEOE_VSA3>
0

>  <PEOE_VSA4>
0

>  <PEOE_VSA5>
0

>  <PEOE_VSA6>
48.16

>  <PEOE_VSA7>
49

>  <PEOE_VSA8>
16.34

>  <PEOE_VSA9>
0

>  <PEOE_VSA10>
0

>  <PEOE_VSA11>
0

>  <PEOE_VSA12>
0

>  <PEOE_VSA13>
0

>  <SMR_VSA1>
0

>  <SMR_VSA2>
0

>  <SMR_VSA3>
4.9

>  <SMR_VSA4>
0

>  <SMR_VSA5>
9.79

>  <SMR_VSA6>
20.64

>  <SMR_VSA7>
59.66

>  <SMR_VSA8>
0

>  <SMR_VSA9>
0

>  <SlogP_VSA1>
0

>  <SlogP_VSA2>
25.54

>  <SlogP_VSA3>
0

>  <SlogP_VSA4>
0

>  <SlogP_VSA5>
11.13

>  <SlogP_VSA6>
58.32

>  <SlogP_VSA7>
0

>  <SlogP_VSA8>
11.65

>  <SlogP_VSA9>
0

>  <SlogP_VSA10>
0

>  <SlogP_VSA11>
0

>  <EState_VSA1>
0

>  <EState_VSA2>
0

>  <EState_VSA3>
0

>  <EState_VSA4>
6.54

>  <EState_VSA5>
26.49

>  <EState_VSA6>
0

>  <EState_VSA7>
11.76

>  <EState_VSA8>
73.6

>  <EState_VSA9>
0

>  <EState_VSA10>
0

>  <VSA_EState1>
0

>  <VSA_EState2>
4.91

>  <VSA_EState3>
0

>  <VSA_EState4>
4.07

>  <VSA_EState5>
0

>  <VSA_EState6>
17.3

>  <VSA_EState7>
2.33

>  <VSA_EState8>
0.96

>  <VSA_EState9>
4.24

>  <apol>
43.73

>  <bpol>
21.22

>  <nRing>
3

>  <nHRing>
1

>  <naRing>
2

>  <naHRing>
0

>  <nARing 2>
1

>  <nAHRing 2>
1

>  <nFRing>
1

>  <nFHRing>
1

>  <nFaRing>
0

>  <nFaHRing>
0

>  <nFARing 2>
1

>  <nFAHRing 2>
1

>  <nRot>
2

>  <SLogP>
4.25

>  <SMR>
83.43

>  <TopoPSA(NO)>
3.24

>  <TopoPSA>
28.54

>  <JGI1>
0.17

>  <JGI2>
0.06

>  <JGI3>
0.04

>  <JGI4>
0.04

>  <JGI5>
0.02

>  <Diameter>
8

>  <Radius>
5

>  <TMWC10>
112.97

>  <TSRW10>
60.47

>  <MW>
267.11

>  <AMW>
7.42

>  <WPath>
638

>  <WPol>
32

>  <Zagreb1>
100

>  <Zagreb2>
117

>  <mZagreb2>
4.17

>  <yes>


>  <nAR-cont>
0.816016

>  <nHA-cont>
0.998649058

>  <MWHBN>
0.122372807

>  <MWHBN-cont>
0.839439424

>  <TPSA-cont>
0.800773078

>  <pka_cont>
0.97

>  <yes.1>


>  <BBB_SCORE>
5.160370349

>  <MMFF94 Energy>
75.73

$$$$
Compound 1317
Actelion Java MolfileCreator 2.0

  0  0  0  0  0  0              0 V3000
M  V30 BEGIN CTAB
M  V30 COUNTS 44 47 0 0 0
M  V30 BEGIN ATOM
M  V30 1 O -3.1326 0.0 -1.3646 0
M  V30 2 C -3.0626 0.3065 -0.0339 0
M  V30 3 C -2.8808 1.1681 -2.1481 0
M  V30 4 C -1.8138 0.487 0.5684 0
M  V30 5 C -4.2525 0.402 0.6875 0
M  V30 6 C -1.4444 1.6578 -2.2646 0
M  V30 7 C -1.7963 0.8443 1.9284 0
M  V30 8 C -0.548 0.282 -0.2544 0
M  V30 9 C -4.2118 0.7396 2.0371 0
M  V30 10 C -0.3865 1.3026 -1.3918 0
M  V30 11 C -1.1989 2.5862 -3.3024 0
M  V30 12 C -2.9847 0.9707 2.6552 0
M  V30 13 O 0.5973 0.3507 0.6365 0
M  V30 14 O -0.5699 -1.035 -0.8497 0
M  V30 15 C 0.8836 1.8824 -1.6243 0
M  V30 16 C 0.0611 3.1442 -3.5003 0
M  V30 17 C 1.0396 -1.0058 0.7833 0
M  V30 18 C 0.6936 -1.6177 -0.5466 0
M  V30 19 C 1.1048 2.7907 -2.6602 0
M  V30 20 C 2.5331 -1.0483 1.1259 0
M  V30 21 N 3.1234 -2.3991 1.1529 0
M  V30 22 C 2.5996 -3.1989 2.2633 0
M  V30 23 C 4.5824 -2.3049 1.2597 0
M  V30 24 H -3.5165 1.9973 -1.8053 0
M  V30 25 H -3.2267 0.9112 -3.1571 0
M  V30 26 H -5.2037 0.2237 0.195 0
M  V30 27 H -0.8525 1.0214 2.4396 0
M  V30 28 H -5.134 0.8255 2.6052 0
M  V30 29 H -2.007 2.8809 -3.9706 0
M  V30 30 H -2.9491 1.2414 3.7076 0
M  V30 31 H 1.7289 1.6264 -0.9885 0
M  V30 32 H 0.2244 3.8523 -4.3078 0
M  V30 33 H 0.4388 -1.4513 1.5851 0
M  V30 34 H 0.6103 -2.7071 -0.5159 0
M  V30 35 H 1.3978 -1.3342 -1.3365 0
M  V30 36 H 2.0932 3.2175 -2.8066 0
M  V30 37 H 3.0566 -0.4403 0.3747 0
M  V30 38 H 2.6979 -0.5272 2.0792 0
M  V30 39 H 1.525 -3.3741 2.1514 0
M  V30 40 H 2.7758 -2.7232 3.2347 0
M  V30 41 H 3.0679 -4.1898 2.2768 0
M  V30 42 H 4.898 -1.8004 2.1802 0
M  V30 43 H 4.9967 -1.7577 0.4056 0
M  V30 44 H 5.0354 -3.3023 1.239 0
M  V30 END ATOM
M  V30 BEGIN BOND
M  V30 1 1 1 2
M  V30 2 1 1 3
M  V30 3 2 2 4
M  V30 4 1 2 5
M  V30 5 1 3 6
M  V30 6 1 4 7
M  V30 7 1 4 8
M  V30 8 2 5 9
M  V30 9 2 6 10
M  V30 10 1 6 11
M  V30 11 2 7 12
M  V30 12 1 8 13
M  V30 13 1 8 14
M  V30 14 1 10 15
M  V30 15 2 11 16
M  V30 16 1 13 17
M  V30 17 1 14 18
M  V30 18 2 15 19
M  V30 19 1 17 20
M  V30 20 1 20 21
M  V30 21 1 21 22
M  V30 22 1 21 23
M  V30 23 1 8 10
M  V30 24 1 9 12
M  V30 25 1 16 19
M  V30 26 1 17 18
M  V30 27 1 3 24
M  V30 28 1 3 25
M  V30 29 1 5 26
M  V30 30 1 7 27
M  V30 31 1 9 28
M  V30 32 1 11 29
M  V30 33 1 12 30
M  V30 34 1 15 31
M  V30 35 1 16 32
M  V30 36 1 17 33
M  V30 37 1 18 34
M  V30 38 1 18 35
M  V30 39 1 19 36
M  V30 40 1 20 37
M  V30 41 1 20 38
M  V30 42 1 22 39
M  V30 43 1 22 40
M  V30 44 1 22 41
M  V30 45 1 23 42
M  V30 46 1 23 43
M  V30 47 1 23 44
M  V30 END BOND
M  V30 END CTAB
M  END
>  <Column 1>
1574

>  <level_0>
1728

>  <index>
1728

>  <Unnamed: 0>
1728

>  <NO.>
1740

>  <Name>
spiroxepin

>  <IUPAC_name>
n-n-dimethyl-1-spiro[1-3-dioxolane-2-11'-6h-benzo[c][1]benzoxepine]-4-ylmethanamine

>  <SMILES>
CN(C)CC1COC2(O1)c1ccccc1COc1ccccc12

>  <CID>
68674

>  <logBB>


>  <BBB+/BBB->
BBB+

>  <Inchi>
InChI=1S/C19H21NO3/c1-20(2)11-15-13-22-19(23-15)16-8-4-3-7-14(16)12-21-18-10-6-5-9-17(18)19/h3-10-15H-11-13H2-1-2H3

>  <threshold>
-1

>  <reference>
R1|R19|R6|R27|R27|R30|

>  <group>
B

>  <Class>
1

>  <ABC>
18.4

>  <ABCGG>
14.89

>  <nAcid>
0

>  <nBase>
1

>  <nAromAtom>
12

>  <nAromBond>
12

>  <nAtom>
44

>  <nHeavyAtom>
23

>  <nSpiro>
1

>  <nBridgehead>
0

>  <nHetero>
4

>  <nN>
1

>  <nO>
3

>  <nF>
0

>  <BalabanJ>
1.63

>  <BertzCT>
665.77

>  <nBonds>
47

>  <nBondsO>
26

>  <nBondsS>
35

>  <nBondsD>
0

>  <nBondsT>
0

>  <nBondsA>
12

>  <nBondsM>
12

>  <nBondsKS>
41

>  <nBondsKD>
6

>  <RNCG>
0.25

>  <RPCG>
0.12

>  <FCSP3>
0.37

>  <SZ>
27.67

>  <Sm>
25.92

>  <Sv>
27.59

>  <Sse>
43.98

>  <Sp>
29.48

>  <Si>
49.28

>  <MZ>
0.63

>  <Mm>
0.59

>  <Mv>
0.63

>  <Mse>
1

>  <Mp>
0.67

>  <Mi>
1.12

>  <NsCH3>
2

>  <NdCH2>
0

>  <NssCH2>
3

>  <NtCH>
0

>  <NdsCH>
0

>  <NaaCH>
8

>  <NsssCH>
1

>  <NddC>
0

>  <NtsC>
0

>  <NdssC>
0

>  <NaasC>
4

>  <NaaaC>
0

>  <NssssC>
1

>  <NsNH3>
0

>  <NsNH2>
0

>  <NssNH2>
0

>  <NdNH>
0

>  <NssNH>
0

>  <NaaNH>
0

>  <NtN>
0

>  <NsssNH>
0

>  <NdsN>
0

>  <NaaN>
0

>  <NsssN>
1

>  <NddsN>
0

>  <NaasN>
0

>  <NssssN>
0

>  <NsOH>
0

>  <NdO>
0

>  <NssO>
3

>  <NaaO>
0

>  <NsF>
0

>  <NsSiH3>
0

>  <NssSiH2>
0

>  <NsssSiH>
0

>  <NssssSi>
0

>  <NsPH2>
0

>  <NssPH>
0

>  <NsssP>
0

>  <NdsssP>
0

>  <NsssssP>
0

>  <NsSH>
0

>  <NdS>
0

>  <NssS>
0

>  <NaaS>
0

>  <NdssS>
0

>  <NddssS>
0

>  <NsCl>
0

>  <NsBr>
0

>  <NsI>
0

>  <fragCpx>
170.04

>  <fMF>
0.43

>  <nHBAcc>
4

>  <nHBDon>
0

>  <Kier1>
16.47

>  <Kier2>
6.72

>  <Lipinski>
1

>  <GhoseFilter>
1

>  <FilterItLogS>
-4.28

>  <VMcGowan>
236.92

>  <LabuteASA>
136.13

>  <PEOE_VSA1>
19.11

>  <PEOE_VSA2>
0

>  <PEOE_VSA3>
0

>  <PEOE_VSA4>
0

>  <PEOE_VSA5>
0

>  <PEOE_VSA6>
36.4

>  <PEOE_VSA7>
31.79

>  <PEOE_VSA8>
12.11

>  <PEOE_VSA9>
18.27

>  <PEOE_VSA10>
12.36

>  <PEOE_VSA11>
0

>  <PEOE_VSA12>
5.79

>  <PEOE_VSA13>
0

>  <SMR_VSA1>
14.21

>  <SMR_VSA2>
0

>  <SMR_VSA3>
4.9

>  <SMR_VSA4>
0

>  <SMR_VSA5>
18.5

>  <SMR_VSA6>
27.25

>  <SMR_VSA7>
65.22

>  <SMR_VSA8>
0

>  <SMR_VSA9>
5.75

>  <SlogP_VSA1>
4.74

>  <SlogP_VSA2>
38.25

>  <SlogP_VSA3>
21.87

>  <SlogP_VSA4>
0

>  <SlogP_VSA5>
16.69

>  <SlogP_VSA6>
48.53

>  <SlogP_VSA7>
0

>  <SlogP_VSA8>
0

>  <SlogP_VSA9>
0

>  <SlogP_VSA10>
0

>  <SlogP_VSA11>
5.75

>  <EState_VSA1>
5.79

>  <EState_VSA2>
6.1

>  <EState_VSA3>
13.21

>  <EState_VSA4>
28.98

>  <EState_VSA5>
0

>  <EState_VSA6>
0

>  <EState_VSA7>
50.49

>  <EState_VSA8>
17.03

>  <EState_VSA9>
14.21

>  <EState_VSA10>
0

>  <VSA_EState1>
18.8

>  <VSA_EState2>
2.12

>  <VSA_EState3>
0

>  <VSA_EState4>
3.1

>  <VSA_EState5>
-0.04

>  <VSA_EState6>
16.22

>  <VSA_EState7>
0.03

>  <VSA_EState8>
1.92

>  <VSA_EState9>
4.1

>  <apol>
49.24

>  <bpol>
27.99

>  <nRing>
4

>  <nHRing>
2

>  <naRing>
2

>  <naHRing>
0

>  <nARing 2>
2

>  <nAHRing 2>
2

>  <nFRing>
1

>  <nFHRing>
1

>  <nFaRing>
0

>  <nFaHRing>
0

>  <nFARing 2>
1

>  <nFAHRing 2>
1

>  <nRot>
2

>  <SLogP>
2.76

>  <SMR>
87.38

>  <TopoPSA(NO)>
30.93

>  <TopoPSA>
30.93

>  <JGI1>
0.19

>  <JGI2>
0.08

>  <JGI3>
0.05

>  <JGI4>
0.03

>  <JGI5>
0.02

>  <Diameter>
9

>  <Radius>
5

>  <TMWC10>
125.9

>  <TSRW10>
72.33

>  <MW>
311.15

>  <AMW>
7.07

>  <WPath>
1037

>  <WPol>
43

>  <Zagreb1>
128

>  <Zagreb2>
156

>  <mZagreb2>
4.97

>  <yes>


>  <nAR-cont>
1

>  <nHA-cont>
0.967789328

>  <MWHBN>
0.226764511

>  <MWHBN-cont>
0.989826791

>  <TPSA-cont>
0.784089394

>  <pka_cont>
0.97

>  <yes.1>


>  <BBB_SCORE>
5.505708302

>  <MMFF94 Energy>
103.44

$$$$
Compound 1318
Actelion Java MolfileCreator 2.0

  0  0  0  0  0  0              0 V3000
M  V30 BEGIN CTAB
M  V30 COUNTS 45 46 0 0 0
M  V30 BEGIN ATOM
M  V30 1 N 3.4561 -0.7846 -0.5492 0
M  V30 2 C 2.0592 -0.936 -0.0964 0
M  V30 3 C 3.585 -0.9766 -1.9955 0
M  V30 4 C 4.3109 -1.7481 0.1507 0
M  V30 5 C 1.1508 0.2078 -0.5861 0
M  V30 6 C -0.2517 0.2029 0.0793 0 CFG=2
M  V30 7 C -0.947 -1.139 -0.1446 0
M  V30 8 C -1.1539 1.3957 -0.3993 0
M  V30 9 C -1.2653 -1.9509 0.9555 0
M  V30 10 C -1.2749 -1.5928 -1.4316 0
M  V30 11 C -2.5229 1.4361 0.3207 0
M  V30 12 C -0.4999 2.785 -0.2433 0
M  V30 13 C -1.895 -3.183 0.7724 0
M  V30 14 C -1.9045 -2.8254 -1.6122 0
M  V30 15 C -2.4108 1.8498 1.7881 0
M  V30 16 C -0.3452 3.2026 1.2174 0
M  V30 17 C -2.2143 -3.6199 -0.5108 0
M  V30 18 C -1.6856 3.183 1.9468 0
M  V30 19 H 2.0429 -0.92 1.0012 0
M  V30 20 H 1.6646 -1.91 -0.4102 0
M  V30 21 H 3.0526 -0.197 -2.5489 0
M  V30 22 H 3.2081 -1.9536 -2.3187 0
M  V30 23 H 4.6347 -0.8973 -2.301 0
M  V30 24 H 4.0185 -2.7847 -0.0524 0
M  V30 25 H 4.2716 -1.5834 1.2334 0
M  V30 26 H 5.3583 -1.6199 -0.1444 0
M  V30 27 H 1.0408 0.1683 -1.6758 0
M  V30 28 H 1.6589 1.1492 -0.3498 0
M  V30 29 H -0.0808 0.3179 1.1571 0
M  V30 30 H -1.3538 1.2595 -1.4707 0
M  V30 31 H -1.0263 -1.6276 1.9662 0
M  V30 32 H -1.0424 -0.9897 -2.306 0
M  V30 33 H -3.1675 2.1597 -0.1963 0
M  V30 34 H -3.0417 0.4748 0.2481 0
M  V30 35 H 0.4657 2.835 -0.754 0
M  V30 36 H -1.1328 3.5262 -0.7503 0
M  V30 37 H -2.1376 -3.8012 1.6326 0
M  V30 38 H -2.1541 -3.1649 -2.614 0
M  V30 39 H -3.4145 1.9293 2.2217 0
M  V30 40 H -1.8862 1.0755 2.3588 0
M  V30 41 H 0.0784 4.2123 1.2655 0
M  V30 42 H 0.364 2.5403 1.7263 0
M  V30 43 H -2.7054 -4.5787 -0.6526 0
M  V30 44 H -2.3208 3.9859 1.552 0
M  V30 45 H -1.5316 3.3965 3.0106 0
M  V30 END ATOM
M  V30 BEGIN BOND
M  V30 1 1 1 2
M  V30 2 1 1 3
M  V30 3 1 1 4
M  V30 4 1 2 5
M  V30 5 1 5 6
M  V30 6 1 6 7
M  V30 7 1 6 8
M  V30 8 2 7 9
M  V30 9 1 7 10
M  V30 10 1 8 11
M  V30 11 1 8 12
M  V30 12 1 9 13
M  V30 13 2 10 14
M  V30 14 1 11 15
M  V30 15 1 12 16
M  V30 16 2 13 17
M  V30 17 1 15 18
M  V30 18 1 14 17
M  V30 19 1 16 18
M  V30 20 1 2 19
M  V30 21 1 2 20
M  V30 22 1 3 21
M  V30 23 1 3 22
M  V30 24 1 3 23
M  V30 25 1 4 24
M  V30 26 1 4 25
M  V30 27 1 4 26
M  V30 28 1 5 27
M  V30 29 1 5 28
M  V30 30 1 6 29
M  V30 31 1 8 30
M  V30 32 1 9 31
M  V30 33 1 10 32
M  V30 34 1 11 33
M  V30 35 1 11 34
M  V30 36 1 12 35
M  V30 37 1 12 36
M  V30 38 1 13 37
M  V30 39 1 14 38
M  V30 40 1 15 39
M  V30 41 1 15 40
M  V30 42 1 16 41
M  V30 43 1 16 42
M  V30 44 1 17 43
M  V30 45 1 18 44
M  V30 46 1 18 45
M  V30 END BOND
M  V30 BEGIN COLLECTION
M  V30 MDLV30/STERAC1 ATOMS=(1 6)
M  V30 END COLLECTION
M  V30 END CTAB
M  END
>  <Column 1>
1575

>  <level_0>
1729

>  <index>
1729

>  <Unnamed: 0>
1729

>  <NO.>
1741

>  <Name>
gamfexine

>  <IUPAC_name>
3-cyclohexyl-n-n-dimethyl-3-phenylpropan-1-amine

>  <SMILES>
CN(C)CCC(c1ccccc1)C1CCCCC1

>  <CID>
31041

>  <logBB>


>  <BBB+/BBB->
BBB+

>  <Inchi>
InChI=1S/C17H27N/c1-18(2)14-13-17(15-9-5-3-6-10-15)16-11-7-4-8-12-16/h3-5-6-9-10-16-17H-4-7-8-11-14H2-1-2H3

>  <threshold>
-1

>  <reference>
R1|R19|R6|R27|R27|R30|

>  <group>
B

>  <Class>
1

>  <ABC>
13.57

>  <ABCGG>
11.67

>  <nAcid>
0

>  <nBase>
1

>  <nAromAtom>
6

>  <nAromBond>
6

>  <nAtom>
45

>  <nHeavyAtom>
18

>  <nSpiro>
0

>  <nBridgehead>
0

>  <nHetero>
1

>  <nN>
1

>  <nO>
0

>  <nF>
0

>  <BalabanJ>
1.91

>  <BertzCT>
324.72

>  <nBonds>
46

>  <nBondsO>
19

>  <nBondsS>
40

>  <nBondsD>
0

>  <nBondsT>
0

>  <nBondsA>
6

>  <nBondsM>
6

>  <nBondsKS>
43

>  <nBondsKD>
3

>  <RNCG>
0.3

>  <RPCG>
0.06

>  <FCSP3>
0.65

>  <SZ>
22.67

>  <Sm>
20.43

>  <Sv>
25.07

>  <Sse>
43.65

>  <Sp>
28.44

>  <Si>
50.9

>  <MZ>
0.5

>  <Mm>
0.45

>  <Mv>
0.56

>  <Mse>
0.97

>  <Mp>
0.63

>  <Mi>
1.13

>  <NsCH3>
2

>  <NdCH2>
0

>  <NssCH2>
7

>  <NtCH>
0

>  <NdsCH>
0

>  <NaaCH>
5

>  <NsssCH>
2

>  <NddC>
0

>  <NtsC>
0

>  <NdssC>
0

>  <NaasC>
1

>  <NaaaC>
0

>  <NssssC>
0

>  <NsNH3>
0

>  <NsNH2>
0

>  <NssNH2>
0

>  <NdNH>
0

>  <NssNH>
0

>  <NaaNH>
0

>  <NtN>
0

>  <NsssNH>
0

>  <NdsN>
0

>  <NaaN>
0

>  <NsssN>
1

>  <NddsN>
0

>  <NaasN>
0

>  <NssssN>
0

>  <NsOH>
0

>  <NdO>
0

>  <NssO>
0

>  <NaaO>
0

>  <NsF>
0

>  <NsSiH3>
0

>  <NssSiH2>
0

>  <NsssSiH>
0

>  <NssssSi>
0

>  <NsPH2>
0

>  <NssPH>
0

>  <NsssP>
0

>  <NdsssP>
0

>  <NsssssP>
0

>  <NsSH>
0

>  <NdS>
0

>  <NssS>
0

>  <NaaS>
0

>  <NdssS>
0

>  <NddssS>
0

>  <NsCl>
0

>  <NsBr>
0

>  <NsI>
0

>  <fragCpx>
55.01

>  <fMF>
0.29

>  <nHBAcc>
1

>  <nHBDon>
0

>  <Kier1>
14.41

>  <Kier2>
7.56

>  <Lipinski>
1

>  <GhoseFilter>
1

>  <FilterItLogS>
-4.05

>  <VMcGowan>
225.75

>  <LabuteASA>
112.2

>  <PEOE_VSA1>
4.9

>  <PEOE_VSA2>
0

>  <PEOE_VSA3>
0

>  <PEOE_VSA4>
0

>  <PEOE_VSA5>
0

>  <PEOE_VSA6>
49.59

>  <PEOE_VSA7>
57.3

>  <PEOE_VSA8>
0

>  <PEOE_VSA9>
0

>  <PEOE_VSA10>
0

>  <PEOE_VSA11>
0

>  <PEOE_VSA12>
0

>  <PEOE_VSA13>
0

>  <SMR_VSA1>
0

>  <SMR_VSA2>
0

>  <SMR_VSA3>
4.9

>  <SMR_VSA4>
5.92

>  <SMR_VSA5>
44.44

>  <SMR_VSA6>
20.64

>  <SMR_VSA7>
35.9

>  <SMR_VSA8>
0

>  <SMR_VSA9>
0

>  <SlogP_VSA1>
0

>  <SlogP_VSA2>
25.54

>  <SlogP_VSA3>
0

>  <SlogP_VSA4>
5.92

>  <SlogP_VSA5>
50.01

>  <SlogP_VSA6>
30.33

>  <SlogP_VSA7>
0

>  <SlogP_VSA8>
0

>  <SlogP_VSA9>
0

>  <SlogP_VSA10>
0

>  <SlogP_VSA11>
0

>  <EState_VSA1>
0

>  <EState_VSA2>
0

>  <EState_VSA3>
0

>  <EState_VSA4>
11.84

>  <EState_VSA5>
45.07

>  <EState_VSA6>
5.56

>  <EState_VSA7>
0

>  <EState_VSA8>
49.33

>  <EState_VSA9>
0

>  <EState_VSA10>
0

>  <VSA_EState1>
0

>  <VSA_EState2>
2.32

>  <VSA_EState3>
0

>  <VSA_EState4>
1.56

>  <VSA_EState5>
1.69

>  <VSA_EState6>
11.18

>  <VSA_EState7>
8.51

>  <VSA_EState8>
1.2

>  <VSA_EState9>
4.37

>  <apol>
47.49

>  <bpol>
28.8

>  <nRing>
2

>  <nHRing>
0

>  <naRing>
1

>  <naHRing>
0

>  <nARing 2>
1

>  <nAHRing 2>
0

>  <nFRing>
0

>  <nFHRing>
0

>  <nFaRing>
0

>  <nFaHRing>
0

>  <nFARing 2>
0

>  <nFAHRing 2>
0

>  <nRot>
5

>  <SLogP>
4.3

>  <SMR>
78.93

>  <TopoPSA(NO)>
3.24

>  <TopoPSA>
3.24

>  <JGI1>
0.13

>  <JGI2>
0.06

>  <JGI3>
0.04

>  <JGI4>
0.02

>  <JGI5>
0.02

>  <Diameter>
8

>  <Radius>
4

>  <TMWC10>
106.97

>  <TSRW10>
50.28

>  <MW>
245.21

>  <AMW>
5.45

>  <WPath>
614

>  <WPol>
23

>  <Zagreb1>
86

>  <Zagreb2>
96

>  <mZagreb2>
4.14

>  <yes>


>  <nAR-cont>
0.816016

>  <nHA-cont>
0.991161285

>  <MWHBN>
0.063860294

>  <MWHBN-cont>
0.485321961

>  <TPSA-cont>
0.977382788

>  <pka_cont>
0.97

>  <yes.1>


>  <BBB_SCORE>
4.974925802

>  <MMFF94 Energy>
39.196

$$$$
Compound 1319
Actelion Java MolfileCreator 2.0

  0  0  0  0  0  0              0 V3000
M  V30 BEGIN CTAB
M  V30 COUNTS 42 44 0 0 0
M  V30 BEGIN ATOM
M  V30 1 O -0.5549 -2.2211 0.3963 0
M  V30 2 C -0.3872 -0.7937 0.1396 0 CFG=2
M  V30 3 C 0.6097 -3.0224 0.1802 0
M  V30 4 C 0.4478 -0.593 -1.107 0
M  V30 5 C 0.2979 -0.1322 1.3631 0
M  V30 6 C -1.82 -0.291 -0.09 0
M  V30 7 C 1.0413 -2.9938 -1.2873 0
M  V30 8 C 0.7256 0.6433 -1.8401 0
M  V30 9 C 1.0769 -1.5865 -1.763 0
M  V30 10 C -0.4299 -0.2985 2.709 0
M  V30 11 C 1.521 0.3334 -2.9577 0
M  V30 12 C 0.3522 1.9556 -1.5998 0
M  V30 13 C 1.8027 -1.1383 -2.998 0
M  V30 14 N -1.5909 0.5912 2.8957 0
M  V30 15 C 1.9457 1.3092 -3.8461 0
M  V30 16 C 0.7748 2.9499 -2.4894 0
M  V30 17 C -1.1899 1.9806 3.126 0
M  V30 18 C -2.4056 0.1217 4.02 0
M  V30 19 C 1.5642 2.6289 -3.6041 0
M  V30 20 H 0.3614 -4.0498 0.4667 0
M  V30 21 H 1.4187 -2.6946 0.8423 0
M  V30 22 H 1.2915 -0.5811 1.4942 0
M  V30 23 H 0.4922 0.9273 1.1686 0
M  V30 24 H -2.506 -0.6806 0.6706 0
M  V30 25 H -2.2122 -0.6558 -1.0478 0
M  V30 26 H -1.8908 0.7998 -0.0905 0
M  V30 27 H 2.0224 -3.469 -1.3884 0
M  V30 28 H 0.3259 -3.5526 -1.9011 0
M  V30 29 H -0.7456 -1.3458 2.7956 0
M  V30 30 H 0.2907 -0.1348 3.5218 0
M  V30 31 H -0.2535 2.2277 -0.7431 0
M  V30 32 H 2.8758 -1.3361 -2.9223 0
M  V30 33 H 1.3817 -1.5983 -3.8965 0
M  V30 34 H 2.5574 1.0575 -4.7059 0
M  V30 35 H 0.4873 3.9843 -2.3153 0
M  V30 36 H -0.6674 2.3954 2.2591 0
M  V30 37 H -0.5426 2.0846 4.0043 0
M  V30 38 H -2.0723 2.6137 3.2759 0
M  V30 39 H -1.8468 0.1199 4.9629 0
M  V30 40 H -2.7728 -0.8935 3.8325 0
M  V30 41 H -3.2926 0.7533 4.1444 0
M  V30 42 H 1.8808 3.4166 -4.2835 0
M  V30 END ATOM
M  V30 BEGIN BOND
M  V30 1 1 1 2
M  V30 2 1 1 3
M  V30 3 1 2 4
M  V30 4 1 2 5
M  V30 5 1 2 6
M  V30 6 1 3 7
M  V30 7 1 4 8
M  V30 8 2 4 9
M  V30 9 1 5 10
M  V30 10 2 8 11
M  V30 11 1 8 12
M  V30 12 1 9 13
M  V30 13 1 10 14
M  V30 14 1 11 15
M  V30 15 2 12 16
M  V30 16 1 14 17
M  V30 17 1 14 18
M  V30 18 2 15 19
M  V30 19 1 7 9
M  V30 20 1 11 13
M  V30 21 1 16 19
M  V30 22 1 3 20
M  V30 23 1 3 21
M  V30 24 1 5 22
M  V30 25 1 5 23
M  V30 26 1 6 24
M  V30 27 1 6 25
M  V30 28 1 6 26
M  V30 29 1 7 27
M  V30 30 1 7 28
M  V30 31 1 10 29
M  V30 32 1 10 30
M  V30 33 1 12 31
M  V30 34 1 13 32
M  V30 35 1 13 33
M  V30 36 1 15 34
M  V30 37 1 16 35
M  V30 38 1 17 36
M  V30 39 1 17 37
M  V30 40 1 17 38
M  V30 41 1 18 39
M  V30 42 1 18 40
M  V30 43 1 18 41
M  V30 44 1 19 42
M  V30 END BOND
M  V30 BEGIN COLLECTION
M  V30 MDLV30/STERAC1 ATOMS=(1 2)
M  V30 END COLLECTION
M  V30 END CTAB
M  END
>  <Column 1>
1576

>  <level_0>
1730

>  <index>
1730

>  <Unnamed: 0>
1730

>  <NO.>
1742

>  <Name>
57932-12-4

>  <IUPAC_name>
n-n-dimethyl-2-(1-methyl-4-5-dihydro-3h-indeno[1-2-c]pyran-1-yl)ethanamine

>  <SMILES>
CN(C)CCC1(C)OCCC2=C1c1ccccc1C2

>  <CID>
216376

>  <logBB>


>  <BBB+/BBB->
BBB+

>  <Inchi>
InChI=1S/C17H23NO/c1-17(9-10-18(2)3)16-14(8-11-19-17)12-13-6-4-5-7-15(13)16/h4-7H-8-12H2-1-3H3

>  <threshold>
-1

>  <reference>
R1|R13|R27|R30|

>  <group>
B

>  <Class>
1

>  <ABC>
15.04

>  <ABCGG>
12.72

>  <nAcid>
0

>  <nBase>
1

>  <nAromAtom>
6

>  <nAromBond>
6

>  <nAtom>
42

>  <nHeavyAtom>
19

>  <nSpiro>
0

>  <nBridgehead>
0

>  <nHetero>
2

>  <nN>
1

>  <nO>
1

>  <nF>
0

>  <BalabanJ>
1.76

>  <BertzCT>
517.75

>  <nBonds>
44

>  <nBondsO>
21

>  <nBondsS>
37

>  <nBondsD>
1

>  <nBondsT>
0

>  <nBondsA>
6

>  <nBondsM>
7

>  <nBondsKS>
40

>  <nBondsKD>
4

>  <RNCG>
0.33

>  <RPCG>
0.08

>  <FCSP3>
0.53

>  <SZ>
23.33

>  <Sm>
21.43

>  <Sv>
24.7

>  <Sse>
41.2

>  <Sp>
27.32

>  <Si>
47.28

>  <MZ>
0.56

>  <Mm>
0.51

>  <Mv>
0.59

>  <Mse>
0.98

>  <Mp>
0.65

>  <Mi>
1.13

>  <NsCH3>
3

>  <NdCH2>
0

>  <NssCH2>
5

>  <NtCH>
0

>  <NdsCH>
0

>  <NaaCH>
4

>  <NsssCH>
0

>  <NddC>
0

>  <NtsC>
0

>  <NdssC>
2

>  <NaasC>
2

>  <NaaaC>
0

>  <NssssC>
1

>  <NsNH3>
0

>  <NsNH2>
0

>  <NssNH2>
0

>  <NdNH>
0

>  <NssNH>
0

>  <NaaNH>
0

>  <NtN>
0

>  <NsssNH>
0

>  <NdsN>
0

>  <NaaN>
0

>  <NsssN>
1

>  <NddsN>
0

>  <NaasN>
0

>  <NssssN>
0

>  <NsOH>
0

>  <NdO>
0

>  <NssO>
1

>  <NaaO>
0

>  <NsF>
0

>  <NsSiH3>
0

>  <NssSiH2>
0

>  <NsssSiH>
0

>  <NssssSi>
0

>  <NsPH2>
0

>  <NssPH>
0

>  <NsssP>
0

>  <NdsssP>
0

>  <NsssssP>
0

>  <NsSH>
0

>  <NdS>
0

>  <NssS>
0

>  <NaaS>
0

>  <NdssS>
0

>  <NddssS>
0

>  <NsCl>
0

>  <NsBr>
0

>  <NsI>
0

>  <fragCpx>
99.02

>  <fMF>
0.31

>  <nHBAcc>
2

>  <nHBDon>
0

>  <Kier1>
13.96

>  <Kier2>
5.41

>  <Lipinski>
1

>  <GhoseFilter>
1

>  <FilterItLogS>
-4.46

>  <VMcGowan>
216.46

>  <LabuteASA>
115.62

>  <PEOE_VSA1>
9.64

>  <PEOE_VSA2>
0

>  <PEOE_VSA3>
0

>  <PEOE_VSA4>
0

>  <PEOE_VSA5>
0

>  <PEOE_VSA6>
29.84

>  <PEOE_VSA7>
56.98

>  <PEOE_VSA8>
6.54

>  <PEOE_VSA9>
12.21

>  <PEOE_VSA10>
0

>  <PEOE_VSA11>
0

>  <PEOE_VSA12>
0

>  <PEOE_VSA13>
0

>  <SMR_VSA1>
4.74

>  <SMR_VSA2>
0

>  <SMR_VSA3>
4.9

>  <SMR_VSA4>
0

>  <SMR_VSA5>
31.79

>  <SMR_VSA6>
27.25

>  <SMR_VSA7>
40.97

>  <SMR_VSA8>
0

>  <SMR_VSA9>
0

>  <SlogP_VSA1>
0

>  <SlogP_VSA2>
37.75

>  <SlogP_VSA3>
11.16

>  <SlogP_VSA4>
0

>  <SlogP_VSA5>
30.89

>  <SlogP_VSA6>
29.84

>  <SlogP_VSA7>
0

>  <SlogP_VSA8>
5.57

>  <SlogP_VSA9>
0

>  <SlogP_VSA10>
0

>  <SlogP_VSA11>
0

>  <EState_VSA1>
0

>  <EState_VSA2>
5.6

>  <EState_VSA3>
0

>  <EState_VSA4>
32.41

>  <EState_VSA5>
16.7

>  <EState_VSA6>
5.57

>  <EState_VSA7>
0

>  <EState_VSA8>
50.18

>  <EState_VSA9>
4.74

>  <EState_VSA10>
0

>  <VSA_EState1>
6.2

>  <VSA_EState2>
2.24

>  <VSA_EState3>
0

>  <VSA_EState4>
5.89

>  <VSA_EState5>
0

>  <VSA_EState6>
8.82

>  <VSA_EState7>
3.29

>  <VSA_EState8>
4.21

>  <VSA_EState9>
4.26

>  <apol>
45.63

>  <bpol>
26.52

>  <nRing>
3

>  <nHRing>
1

>  <naRing>
1

>  <naHRing>
0

>  <nARing 2>
2

>  <nAHRing 2>
1

>  <nFRing>
1

>  <nFHRing>
1

>  <nFaRing>
0

>  <nFaHRing>
0

>  <nFARing 2>
1

>  <nFAHRing 2>
1

>  <nRot>
3

>  <SLogP>
3.13

>  <SMR>
79.21

>  <TopoPSA(NO)>
12.47

>  <TopoPSA>
12.47

>  <JGI1>
0.21

>  <JGI2>
0.09

>  <JGI3>
0.07

>  <JGI4>
0.05

>  <JGI5>
0.02

>  <Diameter>
9

>  <Radius>
5

>  <TMWC10>
114.72

>  <TSRW10>
67.32

>  <MW>
257.18

>  <AMW>
6.12

>  <WPath>
649

>  <WPol>
31

>  <Zagreb1>
104

>  <Zagreb2>
125

>  <mZagreb2>
4.08

>  <yes>


>  <nAR-cont>
1

>  <nHA-cont>
0.998649058

>  <MWHBN>
0.124712906

>  <MWHBN-cont>
0.849033048

>  <TPSA-cont>
0.912951657

>  <pka_cont>
0.97

>  <yes.1>


>  <BBB_SCORE>
5.583101943

>  <MMFF94 Energy>
67.518

$$$$
Compound 1320
Actelion Java MolfileCreator 2.0

  0  0  0  0  0  0              0 V3000
M  V30 BEGIN CTAB
M  V30 COUNTS 41 43 0 0 0
M  V30 BEGIN ATOM
M  V30 1 N 1.985 0.1586 -2.5413 0
M  V30 2 C 1.1283 0.3581 -1.3531 0
M  V30 3 C 2.994 -0.8799 -2.3164 0
M  V30 4 C 2.6544 1.4157 -2.892 0
M  V30 5 C 0.0885 -0.7639 -1.1835 0
M  V30 6 C -0.7418 -0.7076 0.1375 0 CFG=1
M  V30 7 C 0.0832 -0.8036 1.4357 0
M  V30 8 C -1.7499 0.4409 0.0948 0
M  V30 9 C -1.7274 -1.8923 0.0964 0
M  V30 10 C -0.3679 -0.2279 2.6402 0
M  V30 11 C 1.2851 -1.5364 1.4874 0
M  V30 12 C -3.0536 -0.0728 0.0029 0
M  V30 13 C -1.5413 1.8134 0.1628 0
M  V30 14 C -3.0137 -1.5218 0.0082 0
M  V30 15 C 0.3697 -0.3361 3.823 0
M  V30 16 C 2.0237 -1.6446 2.6701 0
M  V30 17 C -4.1573 0.7614 -0.052 0
M  V30 18 C -2.6497 2.6629 0.1073 0
M  V30 19 C 1.5689 -1.039 3.8363 0
M  V30 20 C -3.9475 2.1413 -0.0041 0
M  V30 21 H 0.5767 1.2936 -1.4928 0
M  V30 22 H 1.7445 0.4847 -0.456 0
M  V30 23 H 2.5339 -1.8574 -2.1453 0
M  V30 24 H 3.6419 -0.6488 -1.4629 0
M  V30 25 H 3.6271 -0.9968 -3.2036 0
M  V30 26 H 3.2949 1.7828 -2.0817 0
M  V30 27 H 1.9182 2.1917 -3.1303 0
M  V30 28 H 3.2702 1.2878 -3.7894 0
M  V30 29 H 0.576 -1.7432 -1.2537 0
M  V30 30 H -0.5896 -0.723 -2.0496 0
M  V30 31 H -1.3966 -2.9219 0.1297 0
M  V30 32 H -1.3144 0.3078 2.6814 0
M  V30 33 H 1.6689 -2.0461 0.6079 0
M  V30 34 H -0.5451 2.2282 0.2751 0
M  V30 35 H -3.8783 -2.1634 -0.0366 0
M  V30 36 H -0.0022 0.1235 4.7351 0
M  V30 37 H 2.9515 -2.2108 2.6795 0
M  V30 38 H -5.1618 0.3583 -0.1239 0
M  V30 39 H -2.5064 3.74 0.1565 0
M  V30 40 H 2.1401 -1.1262 4.7564 0
M  V30 41 H -4.7977 2.8181 -0.0447 0
M  V30 END ATOM
M  V30 BEGIN BOND
M  V30 1 1 1 2
M  V30 2 1 1 3
M  V30 3 1 1 4
M  V30 4 1 2 5
M  V30 5 1 5 6
M  V30 6 1 6 7
M  V30 7 1 6 8
M  V30 8 1 6 9
M  V30 9 2 7 10
M  V30 10 1 7 11
M  V30 11 2 8 12
M  V30 12 1 8 13
M  V30 13 2 9 14
M  V30 14 1 10 15
M  V30 15 2 11 16
M  V30 16 1 12 17
M  V30 17 2 13 18
M  V30 18 2 15 19
M  V30 19 2 17 20
M  V30 20 1 12 14
M  V30 21 1 16 19
M  V30 22 1 18 20
M  V30 23 1 2 21
M  V30 24 1 2 22
M  V30 25 1 3 23
M  V30 26 1 3 24
M  V30 27 1 3 25
M  V30 28 1 4 26
M  V30 29 1 4 27
M  V30 30 1 4 28
M  V30 31 1 5 29
M  V30 32 1 5 30
M  V30 33 1 9 31
M  V30 34 1 10 32
M  V30 35 1 11 33
M  V30 36 1 13 34
M  V30 37 1 14 35
M  V30 38 1 15 36
M  V30 39 1 16 37
M  V30 40 1 17 38
M  V30 41 1 18 39
M  V30 42 1 19 40
M  V30 43 1 20 41
M  V30 END BOND
M  V30 BEGIN COLLECTION
M  V30 MDLV30/STERAC1 ATOMS=(1 6)
M  V30 END COLLECTION
M  V30 END CTAB
M  END
>  <Column 1>
1577

>  <level_0>
1731

>  <index>
1731

>  <Unnamed: 0>
1731

>  <NO.>
1743

>  <Name>
indriline

>  <IUPAC_name>
n-n-dimethyl-2-(1-phenylinden-1-yl)ethanamine

>  <SMILES>
CN(C)CCC1(c2ccccc2)C=Cc2ccccc21

>  <CID>
23878

>  <logBB>


>  <BBB+/BBB->
BBB+

>  <Inchi>
InChI=1S/C19H21N/c1-20(2)15-14-19(17-9-4-3-5-10-17)13-12-16-8-6-7-11-18(16)19/h3-13H-14-15H2-1-2H3

>  <threshold>
-1

>  <reference>
R1|R13|R19|R6|R27|R27|R30|

>  <group>
B

>  <Class>
1

>  <ABC>
15.61

>  <ABCGG>
13.45

>  <nAcid>
0

>  <nBase>
1

>  <nAromAtom>
12

>  <nAromBond>
12

>  <nAtom>
41

>  <nHeavyAtom>
20

>  <nSpiro>
0

>  <nBridgehead>
0

>  <nHetero>
1

>  <nN>
1

>  <nO>
0

>  <nF>
0

>  <BalabanJ>
1.78

>  <BertzCT>
612.67

>  <nBonds>
43

>  <nBondsO>
22

>  <nBondsS>
30

>  <nBondsD>
1

>  <nBondsT>
0

>  <nBondsA>
12

>  <nBondsM>
13

>  <nBondsKS>
36

>  <nBondsKD>
7

>  <RNCG>
0.28

>  <RPCG>
0.06

>  <FCSP3>
0.26

>  <SZ>
23.67

>  <Sm>
21.93

>  <Sv>
25.45

>  <Sse>
39.99

>  <Sp>
28.04

>  <Si>
45.65

>  <MZ>
0.58

>  <Mm>
0.53

>  <Mv>
0.62

>  <Mse>
0.98

>  <Mp>
0.68

>  <Mi>
1.11

>  <NsCH3>
2

>  <NdCH2>
0

>  <NssCH2>
2

>  <NtCH>
0

>  <NdsCH>
2

>  <NaaCH>
9

>  <NsssCH>
0

>  <NddC>
0

>  <NtsC>
0

>  <NdssC>
0

>  <NaasC>
3

>  <NaaaC>
0

>  <NssssC>
1

>  <NsNH3>
0

>  <NsNH2>
0

>  <NssNH2>
0

>  <NdNH>
0

>  <NssNH>
0

>  <NaaNH>
0

>  <NtN>
0

>  <NsssNH>
0

>  <NdsN>
0

>  <NaaN>
0

>  <NsssN>
1

>  <NddsN>
0

>  <NaasN>
0

>  <NssssN>
0

>  <NsOH>
0

>  <NdO>
0

>  <NssO>
0

>  <NaaO>
0

>  <NsF>
0

>  <NsSiH3>
0

>  <NssSiH2>
0

>  <NsssSiH>
0

>  <NssssSi>
0

>  <NsPH2>
0

>  <NssPH>
0

>  <NsssP>
0

>  <NdsssP>
0

>  <NsssssP>
0

>  <NsSH>
0

>  <NdS>
0

>  <NssS>
0

>  <NaaS>
0

>  <NdssS>
0

>  <NddssS>
0

>  <NsCl>
0

>  <NsBr>
0

>  <NsI>
0

>  <fragCpx>
104.01

>  <fMF>
0.37

>  <nHBAcc>
1

>  <nHBDon>
0

>  <Kier1>
14.92

>  <Kier2>
6.41

>  <Lipinski>
1

>  <GhoseFilter>
1

>  <FilterItLogS>
-4.83

>  <VMcGowan>
225.87

>  <LabuteASA>
121.11

>  <PEOE_VSA1>
4.9

>  <PEOE_VSA2>
0

>  <PEOE_VSA3>
0

>  <PEOE_VSA4>
0

>  <PEOE_VSA5>
0

>  <PEOE_VSA6>
66.75

>  <PEOE_VSA7>
43.75

>  <PEOE_VSA8>
5.41

>  <PEOE_VSA9>
0

>  <PEOE_VSA10>
0

>  <PEOE_VSA11>
0

>  <PEOE_VSA12>
0

>  <PEOE_VSA13>
0

>  <SMR_VSA1>
0

>  <SMR_VSA2>
0

>  <SMR_VSA3>
4.9

>  <SMR_VSA4>
0

>  <SMR_VSA5>
11.84

>  <SMR_VSA6>
20.64

>  <SMR_VSA7>
77.36

>  <SMR_VSA8>
0

>  <SMR_VSA9>
0

>  <SlogP_VSA1>
0

>  <SlogP_VSA2>
25.54

>  <SlogP_VSA3>
5.41

>  <SlogP_VSA4>
0

>  <SlogP_VSA5>
23.11

>  <SlogP_VSA6>
60.67

>  <SlogP_VSA7>
0

>  <SlogP_VSA8>
6.08

>  <SlogP_VSA9>
0

>  <SlogP_VSA10>
0

>  <SlogP_VSA11>
0

>  <EState_VSA1>
0

>  <EState_VSA2>
5.41

>  <EState_VSA3>
0

>  <EState_VSA4>
12.97

>  <EState_VSA5>
16.69

>  <EState_VSA6>
0

>  <EState_VSA7>
0

>  <EState_VSA8>
85.74

>  <EState_VSA9>
0

>  <EState_VSA10>
0

>  <VSA_EState1>
0

>  <VSA_EState2>
2.26

>  <VSA_EState3>
0

>  <VSA_EState4>
4.22

>  <VSA_EState5>
0

>  <VSA_EState6>
19.64

>  <VSA_EState7>
5.77

>  <VSA_EState8>
1.08

>  <VSA_EState9>
4.28

>  <apol>
46.83

>  <bpol>
22.78

>  <nRing>
3

>  <nHRing>
0

>  <naRing>
2

>  <naHRing>
0

>  <nARing 2>
1

>  <nAHRing 2>
0

>  <nFRing>
1

>  <nFHRing>
0

>  <nFaRing>
0

>  <nFaHRing>
0

>  <nFARing 2>
1

>  <nFAHRing 2>
0

>  <nRot>
4

>  <SLogP>
3.95

>  <SMR>
85.87

>  <TopoPSA(NO)>
3.24

>  <TopoPSA>
3.24

>  <JGI1>
0.18

>  <JGI2>
0.09

>  <JGI3>
0.05

>  <JGI4>
0.03

>  <JGI5>
0.02

>  <Diameter>
8

>  <Radius>
4

>  <TMWC10>
116.65

>  <TSRW10>
68.31

>  <MW>
263.17

>  <AMW>
6.42

>  <WPath>
742

>  <WPol>
32

>  <Zagreb1>
106

>  <Zagreb2>
127

>  <mZagreb2>
4.44

>  <yes>


>  <nAR-cont>
0.816016

>  <nHA-cont>
0.999629945

>  <MWHBN>
0.061642722

>  <MWHBN-cont>
0.467266271

>  <TPSA-cont>
0.977382788

>  <pka_cont>
0.97

>  <yes.1>


>  <BBB_SCORE>
4.956310927

>  <MMFF94 Energy>
75.421

$$$$
Compound 1321
Actelion Java MolfileCreator 2.0

  0  0  0  0  0  0              0 V3000
M  V30 BEGIN CTAB
M  V30 COUNTS 47 49 0 0 0
M  V30 BEGIN ATOM
M  V30 1 N -0.5547 -4.047 -0.2377 0
M  V30 2 C -0.11 -3.1892 0.8799 0
M  V30 3 C -1.8533 -4.6668 0.0297 0
M  V30 4 C 0.4458 -5.0846 -0.4991 0
M  V30 5 C -0.9525 -1.9136 1.1052 0
M  V30 6 C -0.9278 -0.9746 -0.0768 0
M  V30 7 C -0.758 0.367 -0.0948 0
M  V30 8 C -0.5491 1.0303 -1.4062 0
M  V30 9 C -0.5816 1.1858 1.1254 0
M  V30 10 C 0.4463 2.0345 -1.468 0
M  V30 11 C -1.3247 0.7254 -2.5362 0
M  V30 12 C 0.4184 2.1854 1.0954 0
M  V30 13 C -1.4269 1.0628 2.2386 0
M  V30 14 C 0.6677 2.6621 -2.7086 0
M  V30 15 C 1.2728 2.3641 -0.1914 0
M  V30 16 C -1.0961 1.3748 -3.746 0
M  V30 17 C 0.6022 2.965 2.2533 0
M  V30 18 C -1.2385 1.8613 3.3633 0
M  V30 19 C -0.0963 2.3358 -3.8331 0
M  V30 20 C 2.465 1.3811 -0.1196 0
M  V30 21 C 1.8648 3.7968 -0.2698 0
M  V30 22 C -0.2156 2.8013 3.3751 0
M  V30 23 H 0.9225 -2.8648 0.6913 0
M  V30 24 H -0.0894 -3.7672 1.8135 0
M  V30 25 H -2.6437 -3.9144 0.1106 0
M  V30 26 H -1.8452 -5.2646 0.9481 0
M  V30 27 H -2.145 -5.3203 -0.8005 0
M  V30 28 H 0.5941 -5.7428 0.3645 0
M  V30 29 H 1.4097 -4.6341 -0.7607 0
M  V30 30 H 0.1484 -5.6999 -1.3556 0
M  V30 31 H -1.9914 -2.1754 1.3313 0
M  V30 32 H -0.546 -1.431 1.9993 0
M  V30 33 H -0.9966 -1.5028 -1.0283 0
M  V30 34 H -2.118 -0.0152 -2.478 0
M  V30 35 H -2.2459 0.3486 2.2307 0
M  V30 36 H 1.4369 3.4166 -2.8364 0
M  V30 37 H -1.6969 1.1297 -4.6172 0
M  V30 38 H 1.3773 3.7221 2.3134 0
M  V30 39 H -1.8911 1.752 4.2248 0
M  V30 40 H 0.0902 2.8393 -4.7783 0
M  V30 41 H 2.1419 0.3354 -0.0605 0
M  V30 42 H 3.1064 1.47 -1.0046 0
M  V30 43 H 3.0868 1.5755 0.7625 0
M  V30 44 H 2.5001 4.0316 0.5907 0
M  V30 45 H 1.0734 4.5537 -0.3242 0
M  V30 46 H 2.5202 3.9286 -1.1372 0
M  V30 47 H -0.0602 3.4229 4.2533 0
M  V30 END ATOM
M  V30 BEGIN BOND
M  V30 1 1 1 2
M  V30 2 1 1 3
M  V30 3 1 1 4
M  V30 4 1 2 5
M  V30 5 1 5 6
M  V30 6 2 6 7
M  V30 7 1 7 8
M  V30 8 1 7 9
M  V30 9 2 8 10
M  V30 10 1 8 11
M  V30 11 2 9 12
M  V30 12 1 9 13
M  V30 13 1 10 14
M  V30 14 1 10 15
M  V30 15 2 11 16
M  V30 16 1 12 17
M  V30 17 2 13 18
M  V30 18 2 14 19
M  V30 19 1 15 20
M  V30 20 1 15 21
M  V30 21 2 17 22
M  V30 22 1 12 15
M  V30 23 1 16 19
M  V30 24 1 18 22
M  V30 25 1 2 23
M  V30 26 1 2 24
M  V30 27 1 3 25
M  V30 28 1 3 26
M  V30 29 1 3 27
M  V30 30 1 4 28
M  V30 31 1 4 29
M  V30 32 1 4 30
M  V30 33 1 5 31
M  V30 34 1 5 32
M  V30 35 1 6 33
M  V30 36 1 11 34
M  V30 37 1 13 35
M  V30 38 1 14 36
M  V30 39 1 16 37
M  V30 40 1 17 38
M  V30 41 1 18 39
M  V30 42 1 19 40
M  V30 43 1 20 41
M  V30 44 1 20 42
M  V30 45 1 20 43
M  V30 46 1 21 44
M  V30 47 1 21 45
M  V30 48 1 21 46
M  V30 49 1 22 47
M  V30 END BOND
M  V30 END CTAB
M  END
>  <Column 1>
1578

>  <level_0>
1732

>  <index>
1732

>  <Unnamed: 0>
1732

>  <NO.>
1744

>  <Name>
melitracen

>  <IUPAC_name>
3-(10-10-dimethylanthracen-9-ylidene)-n-n-dimethylpropan-1-amine

>  <SMILES>
CN(C)CCC=C1c2ccccc2C(C)(C)c2ccccc21

>  <CID>
25382

>  <logBB>


>  <BBB+/BBB->
BBB+

>  <Inchi>
InChI=1S/C21H25N/c1-21(2)19-13-7-5-10-17(19)16(12-9-15-22(3)4)18-11-6-8-14-20(18)21/h5-8-10-14H-9-15H2-1-4H3

>  <threshold>
-1

>  <reference>
R1|R13|R19|R6|R14|R23|R24|R27|R27|R27|R30|R30|

>  <group>
B

>  <Class>
1

>  <ABC>
17.22

>  <ABCGG>
14.01

>  <nAcid>
0

>  <nBase>
1

>  <nAromAtom>
12

>  <nAromBond>
12

>  <nAtom>
47

>  <nHeavyAtom>
22

>  <nSpiro>
0

>  <nBridgehead>
0

>  <nHetero>
1

>  <nN>
1

>  <nO>
0

>  <nF>
0

>  <BalabanJ>
1.78

>  <BertzCT>
655.85

>  <nBonds>
49

>  <nBondsO>
24

>  <nBondsS>
36

>  <nBondsD>
1

>  <nBondsT>
0

>  <nBondsA>
12

>  <nBondsM>
13

>  <nBondsKS>
42

>  <nBondsKD>
7

>  <RNCG>
0.28

>  <RPCG>
0.06

>  <FCSP3>
0.33

>  <SZ>
26.33

>  <Sm>
24.26

>  <Sv>
28.53

>  <Sse>
45.76

>  <Sp>
31.64

>  <Si>
52.48

>  <MZ>
0.56

>  <Mm>
0.52

>  <Mv>
0.61

>  <Mse>
0.97

>  <Mp>
0.67

>  <Mi>
1.12

>  <NsCH3>
4

>  <NdCH2>
0

>  <NssCH2>
2

>  <NtCH>
0

>  <NdsCH>
1

>  <NaaCH>
8

>  <NsssCH>
0

>  <NddC>
0

>  <NtsC>
0

>  <NdssC>
1

>  <NaasC>
4

>  <NaaaC>
0

>  <NssssC>
1

>  <NsNH3>
0

>  <NsNH2>
0

>  <NssNH2>
0

>  <NdNH>
0

>  <NssNH>
0

>  <NaaNH>
0

>  <NtN>
0

>  <NsssNH>
0

>  <NdsN>
0

>  <NaaN>
0

>  <NsssN>
1

>  <NddsN>
0

>  <NaasN>
0

>  <NssssN>
0

>  <NsOH>
0

>  <NdO>
0

>  <NssO>
0

>  <NaaO>
0

>  <NsF>
0

>  <NsSiH3>
0

>  <NssSiH2>
0

>  <NsssSiH>
0

>  <NssssSi>
0

>  <NsPH2>
0

>  <NssPH>
0

>  <NsssP>
0

>  <NdsssP>
0

>  <NsssssP>
0

>  <NsSH>
0

>  <NdS>
0

>  <NssS>
0

>  <NaaS>
0

>  <NdssS>
0

>  <NddssS>
0

>  <NsCl>
0

>  <NsBr>
0

>  <NsI>
0

>  <fragCpx>
114.01

>  <fMF>
0.3

>  <nHBAcc>
1

>  <nHBDon>
0

>  <Kier1>
16.84

>  <Kier2>
6.86

>  <Lipinski>
1

>  <GhoseFilter>
1

>  <FilterItLogS>
-5.96

>  <VMcGowan>
254.05

>  <LabuteASA>
133.84

>  <PEOE_VSA1>
4.9

>  <PEOE_VSA2>
0

>  <PEOE_VSA3>
0

>  <PEOE_VSA4>
0

>  <PEOE_VSA5>
0

>  <PEOE_VSA6>
68.45

>  <PEOE_VSA7>
48.34

>  <PEOE_VSA8>
11.96

>  <PEOE_VSA9>
0

>  <PEOE_VSA10>
0

>  <PEOE_VSA11>
0

>  <PEOE_VSA12>
0

>  <PEOE_VSA13>
0

>  <SMR_VSA1>
0

>  <SMR_VSA2>
0

>  <SMR_VSA3>
4.9

>  <SMR_VSA4>
0

>  <SMR_VSA5>
25.68

>  <SMR_VSA6>
20.64

>  <SMR_VSA7>
76.86

>  <SMR_VSA8>
0

>  <SMR_VSA9>
0

>  <SlogP_VSA1>
0

>  <SlogP_VSA2>
25.54

>  <SlogP_VSA3>
5.41

>  <SlogP_VSA4>
0

>  <SlogP_VSA5>
42.52

>  <SlogP_VSA6>
54.61

>  <SlogP_VSA7>
0

>  <SlogP_VSA8>
5.57

>  <SlogP_VSA9>
0

>  <SlogP_VSA10>
0

>  <SlogP_VSA11>
0

>  <EState_VSA1>
0

>  <EState_VSA2>
5.41

>  <EState_VSA3>
0

>  <EState_VSA4>
12.97

>  <EState_VSA5>
27.83

>  <EState_VSA6>
0

>  <EState_VSA7>
0

>  <EState_VSA8>
87.45

>  <EState_VSA9>
0

>  <EState_VSA10>
0

>  <VSA_EState1>
0

>  <VSA_EState2>
2.24

>  <VSA_EState3>
0

>  <VSA_EState4>
7.11

>  <VSA_EState5>
0

>  <VSA_EState6>
17.74

>  <VSA_EState7>
3.48

>  <VSA_EState8>
5.75

>  <VSA_EState9>
4.26

>  <apol>
52.84

>  <bpol>
26.79

>  <nRing>
3

>  <nHRing>
0

>  <naRing>
2

>  <naHRing>
0

>  <nARing 2>
1

>  <nAHRing 2>
0

>  <nFRing>
1

>  <nFHRing>
0

>  <nFaRing>
0

>  <nFaHRing>
0

>  <nFARing 2>
1

>  <nFAHRing 2>
0

>  <nRot>
3

>  <SLogP>
4.71

>  <SMR>
95.26

>  <TopoPSA(NO)>
3.24

>  <TopoPSA>
3.24

>  <JGI1>
0.19

>  <JGI2>
0.1

>  <JGI3>
0.07

>  <JGI4>
0.04

>  <JGI5>
0.02

>  <Diameter>
9

>  <Radius>
5

>  <TMWC10>
121.86

>  <TSRW10>
56.74

>  <MW>
291.2

>  <AMW>
6.2

>  <WPath>
973

>  <WPol>
39

>  <Zagreb1>
118

>  <Zagreb2>
142

>  <mZagreb2>
4.78

>  <yes>


>  <nAR-cont>
0.816016

>  <nHA-cont>
0.983774276

>  <MWHBN>
0.058600904

>  <MWHBN-cont>
0.441911138

>  <TPSA-cont>
0.977382788

>  <pka_cont>
0.97

>  <yes.1>


>  <BBB_SCORE>
4.90242256

>  <MMFF94 Energy>
96.44

$$$$
Compound 1322
Actelion Java MolfileCreator 2.0

  0  0  0  0  0  0              0 V3000
M  V30 BEGIN CTAB
M  V30 COUNTS 39 41 0 0 0
M  V30 BEGIN ATOM
M  V30 1 S -2.099 -0.8069 -3.2306 0
M  V30 2 C -0.5204 -1.6345 -3.0222 0
M  V30 3 C -1.9054 0.6077 -2.1451 0
M  V30 4 C 0.2762 -1.4648 -1.8735 0
M  V30 5 C -0.0752 -2.4673 -4.058 0
M  V30 6 C -0.9978 0.6133 -1.0702 0
M  V30 7 C -2.6589 1.7565 -2.4252 0
M  V30 8 C -0.2412 -0.6231 -0.7591 0
M  V30 9 C 1.5341 -2.0871 -1.8135 0
M  V30 10 C 1.1663 -3.0995 -3.9746 0
M  V30 11 C -0.7831 1.8074 -0.3685 0
M  V30 12 C -2.4743 2.9224 -1.6807 0
M  V30 13 C -0.1758 -1.1493 0.4866 0
M  V30 14 C 1.9742 -2.9019 -2.8579 0
M  V30 15 C -1.5245 2.9527 -0.6636 0
M  V30 16 C -0.7995 -0.6765 1.7799 0
M  V30 17 C 0.2255 -0.5074 2.9208 0
M  V30 18 N 1.0227 0.7297 2.8219 0
M  V30 19 C 2.2764 0.5892 3.5667 0
M  V30 20 C 0.2763 1.8813 3.3396 0
M  V30 21 H -0.6868 -2.6165 -4.9449 0
M  V30 22 H -3.3758 1.7584 -3.2429 0
M  V30 23 H 2.1811 -1.9363 -0.9523 0
M  V30 24 H 1.5063 -3.7361 -4.7874 0
M  V30 25 H -0.0255 1.8509 0.4098 0
M  V30 26 H -3.0537 3.8123 -1.9125 0
M  V30 27 H 0.3224 -2.1113 0.611 0
M  V30 28 H 2.9478 -3.3816 -2.7983 0
M  V30 29 H -1.3544 3.8675 -0.1018 0
M  V30 30 H -1.5015 -1.4634 2.088 0
M  V30 31 H -1.4142 0.2179 1.6603 0
M  V30 32 H -0.2957 -0.5474 3.8868 0
M  V30 33 H 0.8895 -1.3826 2.9028 0
M  V30 34 H 2.8821 -0.223 3.1497 0
M  V30 35 H 2.1057 0.3836 4.6298 0
M  V30 36 H 2.8794 1.5004 3.4826 0
M  V30 37 H 0.0431 1.7774 4.4058 0
M  V30 38 H -0.6644 2.0267 2.8002 0
M  V30 39 H 0.8559 2.8015 3.2042 0
M  V30 END ATOM
M  V30 BEGIN BOND
M  V30 1 1 1 2
M  V30 2 1 1 3
M  V30 3 2 2 4
M  V30 4 1 2 5
M  V30 5 2 3 6
M  V30 6 1 3 7
M  V30 7 1 4 8
M  V30 8 1 4 9
M  V30 9 2 5 10
M  V30 10 1 6 11
M  V30 11 2 7 12
M  V30 12 2 8 13
M  V30 13 2 9 14
M  V30 14 2 11 15
M  V30 15 1 13 16
M  V30 16 1 16 17
M  V30 17 1 17 18
M  V30 18 1 18 19
M  V30 19 1 18 20
M  V30 20 1 6 8
M  V30 21 1 10 14
M  V30 22 1 12 15
M  V30 23 1 5 21
M  V30 24 1 7 22
M  V30 25 1 9 23
M  V30 26 1 10 24
M  V30 27 1 11 25
M  V30 28 1 12 26
M  V30 29 1 13 27
M  V30 30 1 14 28
M  V30 31 1 15 29
M  V30 32 1 16 30
M  V30 33 1 16 31
M  V30 34 1 17 32
M  V30 35 1 17 33
M  V30 36 1 19 34
M  V30 37 1 19 35
M  V30 38 1 19 36
M  V30 39 1 20 37
M  V30 40 1 20 38
M  V30 41 1 20 39
M  V30 END BOND
M  V30 END CTAB
M  END
>  <Column 1>
1579

>  <level_0>
1733

>  <index>
1733

>  <Unnamed: 0>
1733

>  <NO.>
1745

>  <Name>
prothixene

>  <IUPAC_name>
n-n-dimethyl-3-thioxanthen-9-ylidenepropan-1-amine

>  <SMILES>
CN(C)CCC=C1c2ccccc2Sc2ccccc21

>  <CID>
71115

>  <logBB>


>  <BBB+/BBB->
BBB+

>  <Inchi>
InChI=1S/C18H19NS/c1-19(2)13-7-10-14-15-8-3-5-11-17(15)20-18-12-6-4-9-16(14)18/h3-6-8-12H-7-13H2-1-2H3

>  <threshold>
-1

>  <reference>
R1|R13|R19|R6|R24|R27|R27|R27|R30|R30|

>  <group>
B

>  <Class>
1

>  <ABC>
15.61

>  <ABCGG>
12.33

>  <nAcid>
0

>  <nBase>
1

>  <nAromAtom>
12

>  <nAromBond>
12

>  <nAtom>
39

>  <nHeavyAtom>
20

>  <nSpiro>
0

>  <nBridgehead>
0

>  <nHetero>
2

>  <nN>
1

>  <nO>
0

>  <nF>
0

>  <BalabanJ>
1.66

>  <BertzCT>
595.87

>  <nBonds>
41

>  <nBondsO>
22

>  <nBondsS>
28

>  <nBondsD>
1

>  <nBondsT>
0

>  <nBondsA>
12

>  <nBondsM>
13

>  <nBondsKS>
34

>  <nBondsKD>
7

>  <RNCG>
0.31

>  <RPCG>
0.06

>  <FCSP3>
0.22

>  <SZ>
25

>  <Sm>
23.43

>  <Sv>
25.09

>  <Sse>
38.17

>  <Sp>
27.98

>  <Si>
43.16

>  <MZ>
0.64

>  <Mm>
0.6

>  <Mv>
0.64

>  <Mse>
0.98

>  <Mp>
0.72

>  <Mi>
1.11

>  <NsCH3>
2

>  <NdCH2>
0

>  <NssCH2>
2

>  <NtCH>
0

>  <NdsCH>
1

>  <NaaCH>
8

>  <NsssCH>
0

>  <NddC>
0

>  <NtsC>
0

>  <NdssC>
1

>  <NaasC>
4

>  <NaaaC>
0

>  <NssssC>
0

>  <NsNH3>
0

>  <NsNH2>
0

>  <NssNH2>
0

>  <NdNH>
0

>  <NssNH>
0

>  <NaaNH>
0

>  <NtN>
0

>  <NsssNH>
0

>  <NdsN>
0

>  <NaaN>
0

>  <NsssN>
1

>  <NddsN>
0

>  <NaasN>
0

>  <NssssN>
0

>  <NsOH>
0

>  <NdO>
0

>  <NssO>
0

>  <NaaO>
0

>  <NsF>
0

>  <NsSiH3>
0

>  <NssSiH2>
0

>  <NsssSiH>
0

>  <NssssSi>
0

>  <NsPH2>
0

>  <NssPH>
0

>  <NsssP>
0

>  <NdsssP>
0

>  <NsssssP>
0

>  <NsSH>
0

>  <NdS>
0

>  <NssS>
1

>  <NaaS>
0

>  <NdssS>
0

>  <NddssS>
0

>  <NsCl>
0

>  <NsBr>
0

>  <NsI>
0

>  <fragCpx>
104.02

>  <fMF>
0.36

>  <nHBAcc>
2

>  <nHBDon>
0

>  <Kier1>
14.92

>  <Kier2>
6.84

>  <Lipinski>
1

>  <GhoseFilter>
1

>  <FilterItLogS>
-5.03

>  <VMcGowan>
228.13

>  <LabuteASA>
124.87

>  <PEOE_VSA1>
4.9

>  <PEOE_VSA2>
0

>  <PEOE_VSA3>
0

>  <PEOE_VSA4>
0

>  <PEOE_VSA5>
0

>  <PEOE_VSA6>
54.24

>  <PEOE_VSA7>
49.35

>  <PEOE_VSA8>
16.34

>  <PEOE_VSA9>
0

>  <PEOE_VSA10>
0

>  <PEOE_VSA11>
0

>  <PEOE_VSA12>
0

>  <PEOE_VSA13>
0

>  <SMR_VSA1>
0

>  <SMR_VSA2>
0

>  <SMR_VSA3>
4.9

>  <SMR_VSA4>
0

>  <SMR_VSA5>
16.21

>  <SMR_VSA6>
20.64

>  <SMR_VSA7>
65.73

>  <SMR_VSA8>
0

>  <SMR_VSA9>
0

>  <SlogP_VSA1>
0

>  <SlogP_VSA2>
25.54

>  <SlogP_VSA3>
0

>  <SlogP_VSA4>
0

>  <SlogP_VSA5>
17.55

>  <SlogP_VSA6>
64.4

>  <SlogP_VSA7>
0

>  <SlogP_VSA8>
5.57

>  <SlogP_VSA9>
0

>  <SlogP_VSA10>
0

>  <SlogP_VSA11>
0

>  <EState_VSA1>
0

>  <EState_VSA2>
0

>  <EState_VSA3>
0

>  <EState_VSA4>
12.97

>  <EState_VSA5>
26.49

>  <EState_VSA6>
0

>  <EState_VSA7>
11.76

>  <EState_VSA8>
73.6

>  <EState_VSA9>
0

>  <EState_VSA10>
0

>  <VSA_EState1>
0

>  <VSA_EState2>
4.96

>  <VSA_EState3>
0

>  <VSA_EState4>
4.13

>  <VSA_EState5>
0

>  <VSA_EState6>
17.42

>  <VSA_EState7>
3.47

>  <VSA_EState8>
1.08

>  <VSA_EState9>
4.24

>  <apol>
46.73

>  <bpol>
23.23

>  <nRing>
3

>  <nHRing>
1

>  <naRing>
2

>  <naHRing>
0

>  <nARing 2>
1

>  <nAHRing 2>
1

>  <nFRing>
1

>  <nFHRing>
1

>  <nFaRing>
0

>  <nFaHRing>
0

>  <nFARing 2>
1

>  <nFAHRing 2>
1

>  <nRot>
3

>  <SLogP>
4.53

>  <SMR>
87.26

>  <TopoPSA(NO)>
3.24

>  <TopoPSA>
28.54

>  <JGI1>
0.14

>  <JGI2>
0.07

>  <JGI3>
0.04

>  <JGI4>
0.04

>  <JGI5>
0.02

>  <Diameter>
9

>  <Radius>
5

>  <TMWC10>
115.53

>  <TSRW10>
53.75

>  <MW>
281.12

>  <AMW>
7.21

>  <WPath>
789

>  <WPol>
31

>  <Zagreb1>
104

>  <Zagreb2>
122

>  <mZagreb2>
4.44

>  <yes>


>  <nAR-cont>
0.816016

>  <nHA-cont>
0.999629945

>  <MWHBN>
0.11928453

>  <MWHBN-cont>
0.826275047

>  <TPSA-cont>
0.800773078

>  <pka_cont>
0.97

>  <yes.1>


>  <BBB_SCORE>
5.141604671

>  <MMFF94 Energy>
82.984

$$$$
Compound 1323
Actelion Java MolfileCreator 2.0

  0  0  0  0  0  0              0 V3000
M  V30 BEGIN CTAB
M  V30 COUNTS 42 44 0 0 0
M  V30 BEGIN ATOM
M  V30 1 Cl 1.1993 5.125 -1.5994 0
M  V30 2 C 1.4008 3.8845 -0.4237 0
M  V30 3 C 0.4595 2.8617 -0.3287 0
M  V30 4 C 2.5071 3.9074 0.4221 0
M  V30 5 C 0.6209 1.8445 0.627 0
M  V30 6 C 2.6701 2.9029 1.3792 0
M  V30 7 C 1.7323 1.8711 1.489 0
M  V30 8 C -0.3573 0.6685 0.6859 0 CFG=2
M  V30 9 N 1.8414 0.9085 2.4988 0
M  V30 10 C -0.3333 -0.0575 2.029 0
M  V30 11 C -0.0306 -0.2832 -0.4967 0
M  V30 12 C 0.8114 0.0232 2.8429 0
M  V30 13 C -1.4275 -0.8245 2.4596 0
M  V30 14 C -1.103 -1.3451 -0.7762 0
M  V30 15 C 0.8657 -0.7001 4.0389 0
M  V30 16 C -1.3657 -1.5384 3.6565 0
M  V30 17 C -0.8365 -2.1393 -2.0657 0
M  V30 18 C -0.2159 -1.4851 4.4403 0
M  V30 19 N -0.8014 -1.3217 -3.2897 0
M  V30 20 C -2.1152 -0.7678 -3.6213 0
M  V30 21 C -0.3044 -2.1214 -4.4126 0
M  V30 22 H -0.3911 2.8427 -1.0053 0
M  V30 23 H 3.2404 4.7056 0.3482 0
M  V30 24 H 3.5255 2.9417 2.0478 0
M  V30 25 H -1.3652 1.0872 0.5567 0
M  V30 26 H 2.6874 0.8862 3.0484 0
M  V30 27 H 0.1008 0.316 -1.4062 0
M  V30 28 H 0.9316 -0.784 -0.3221 0
M  V30 29 H -2.333 -0.8753 1.8599 0
M  V30 30 H -1.1228 -2.0688 0.0459 0
M  V30 31 H -2.095 -0.8815 -0.8099 0
M  V30 32 H 1.741 -0.6382 4.679 0
M  V30 33 H -2.2151 -2.1362 3.9771 0
M  V30 34 H 0.1325 -2.6403 -1.9399 0
M  V30 35 H -1.5888 -2.934 -2.1573 0
M  V30 36 H -0.1679 -2.0388 5.3742 0
M  V30 37 H -2.4572 -0.0688 -2.8516 0
M  V30 38 H -2.874 -1.5487 -3.7459 0
M  V30 39 H -2.0647 -0.1889 -4.5509 0
M  V30 40 H -0.9516 -2.9798 -4.6269 0
M  V30 41 H 0.7054 -2.4926 -4.205 0
M  V30 42 H -0.2298 -1.5097 -5.3188 0
M  V30 END ATOM
M  V30 BEGIN BOND
M  V30 1 1 1 2
M  V30 2 2 2 3
M  V30 3 1 2 4
M  V30 4 1 3 5
M  V30 5 2 4 6
M  V30 6 2 5 7
M  V30 7 1 5 8
M  V30 8 1 7 9
M  V30 9 1 8 10
M  V30 10 1 8 11
M  V30 11 1 9 12
M  V30 12 1 10 13
M  V30 13 1 11 14
M  V30 14 1 12 15
M  V30 15 2 13 16
M  V30 16 1 14 17
M  V30 17 2 15 18
M  V30 18 1 17 19
M  V30 19 1 19 20
M  V30 20 1 19 21
M  V30 21 1 6 7
M  V30 22 2 10 12
M  V30 23 1 16 18
M  V30 24 1 3 22
M  V30 25 1 4 23
M  V30 26 1 6 24
M  V30 27 1 8 25
M  V30 28 1 9 26
M  V30 29 1 11 27
M  V30 30 1 11 28
M  V30 31 1 13 29
M  V30 32 1 14 30
M  V30 33 1 14 31
M  V30 34 1 15 32
M  V30 35 1 16 33
M  V30 36 1 17 34
M  V30 37 1 17 35
M  V30 38 1 18 36
M  V30 39 1 20 37
M  V30 40 1 20 38
M  V30 41 1 20 39
M  V30 42 1 21 40
M  V30 43 1 21 41
M  V30 44 1 21 42
M  V30 END BOND
M  V30 BEGIN COLLECTION
M  V30 MDLV30/STERAC1 ATOMS=(1 8)
M  V30 END COLLECTION
M  V30 END CTAB
M  END
>  <Column 1>
1580

>  <level_0>
1734

>  <index>
1734

>  <Unnamed: 0>
1734

>  <NO.>
1746

>  <Name>
clomacran

>  <IUPAC_name>
3-(2-chloro-9-10-dihydroacridin-9-yl)-n-n-dimethylpropan-1-amine

>  <SMILES>
CN(C)CCCC1c2ccccc2Nc2ccc(Cl)cc21

>  <CID>
21382

>  <logBB>


>  <BBB+/BBB->
BBB+

>  <Inchi>
InChI=1S/C18H21ClN2/c1-21(2)11-5-7-14-15-6-3-4-8-17(15)20-18-10-9-13(19)12-16(14)18/h3-4-6-8-10-12-14-20H-5-7-11H2-1-2H3

>  <threshold>
-1

>  <reference>
R1|R19|R6|R27|R27|R30|

>  <group>
B

>  <Class>
1

>  <ABC>
16.43

>  <ABCGG>
12.98

>  <nAcid>
0

>  <nBase>
1

>  <nAromAtom>
12

>  <nAromBond>
12

>  <nAtom>
42

>  <nHeavyAtom>
21

>  <nSpiro>
0

>  <nBridgehead>
0

>  <nHetero>
3

>  <nN>
2

>  <nO>
0

>  <nF>
0

>  <BalabanJ>
1.69

>  <BertzCT>
636.87

>  <nBonds>
44

>  <nBondsO>
23

>  <nBondsS>
32

>  <nBondsD>
0

>  <nBondsT>
0

>  <nBondsA>
12

>  <nBondsM>
12

>  <nBondsKS>
38

>  <nBondsKD>
6

>  <RNCG>
0.29

>  <RPCG>
0.14

>  <FCSP3>
0.33

>  <SZ>
26.67

>  <Sm>
25.05

>  <Sv>
26.3

>  <Sse>
41.41

>  <Sp>
29.01

>  <Si>
47.09

>  <MZ>
0.63

>  <Mm>
0.6

>  <Mv>
0.63

>  <Mse>
0.99

>  <Mp>
0.69

>  <Mi>
1.12

>  <NsCH3>
2

>  <NdCH2>
0

>  <NssCH2>
3

>  <NtCH>
0

>  <NdsCH>
0

>  <NaaCH>
7

>  <NsssCH>
1

>  <NddC>
0

>  <NtsC>
0

>  <NdssC>
0

>  <NaasC>
5

>  <NaaaC>
0

>  <NssssC>
0

>  <NsNH3>
0

>  <NsNH2>
0

>  <NssNH2>
0

>  <NdNH>
0

>  <NssNH>
1

>  <NaaNH>
0

>  <NtN>
0

>  <NsssNH>
0

>  <NdsN>
0

>  <NaaN>
0

>  <NsssN>
1

>  <NddsN>
0

>  <NaasN>
0

>  <NssssN>
0

>  <NsOH>
0

>  <NdO>
0

>  <NssO>
0

>  <NaaO>
0

>  <NsF>
0

>  <NsSiH3>
0

>  <NssSiH2>
0

>  <NsssSiH>
0

>  <NssssSi>
0

>  <NsPH2>
0

>  <NssPH>
0

>  <NsssP>
0

>  <NdsssP>
0

>  <NsssssP>
0

>  <NsSH>
0

>  <NdS>
0

>  <NssS>
0

>  <NaaS>
0

>  <NdssS>
0

>  <NddssS>
0

>  <NsCl>
1

>  <NsBr>
0

>  <NsI>
0

>  <fragCpx>
109.03

>  <fMF>
0.33

>  <nHBAcc>
2

>  <nHBDon>
1

>  <Kier1>
15.88

>  <Kier2>
7.05

>  <Lipinski>
1

>  <GhoseFilter>
1

>  <FilterItLogS>
-5.88

>  <VMcGowan>
238.3

>  <LabuteASA>
131.29

>  <PEOE_VSA1>
10.22

>  <PEOE_VSA2>
0

>  <PEOE_VSA3>
0

>  <PEOE_VSA4>
0

>  <PEOE_VSA5>
0

>  <PEOE_VSA6>
29.8

>  <PEOE_VSA7>
68.87

>  <PEOE_VSA8>
22.32

>  <PEOE_VSA9>
0

>  <PEOE_VSA10>
0

>  <PEOE_VSA11>
0

>  <PEOE_VSA12>
0

>  <PEOE_VSA13>
0

>  <SMR_VSA1>
0

>  <SMR_VSA2>
0

>  <SMR_VSA3>
4.9

>  <SMR_VSA4>
0

>  <SMR_VSA5>
18.76

>  <SMR_VSA6>
25.96

>  <SMR_VSA7>
58.61

>  <SMR_VSA8>
0

>  <SMR_VSA9>
0

>  <SlogP_VSA1>
5.32

>  <SlogP_VSA2>
25.54

>  <SlogP_VSA3>
0

>  <SlogP_VSA4>
0

>  <SlogP_VSA5>
29.89

>  <SlogP_VSA6>
42.46

>  <SlogP_VSA7>
5.02

>  <SlogP_VSA8>
0

>  <SlogP_VSA9>
0

>  <SlogP_VSA10>
11.37

>  <SlogP_VSA11>
0

>  <EState_VSA1>
0

>  <EState_VSA2>
0

>  <EState_VSA3>
5.92

>  <EState_VSA4>
17.99

>  <EState_VSA5>
28.92

>  <EState_VSA6>
0

>  <EState_VSA7>
6.07

>  <EState_VSA8>
60.71

>  <EState_VSA9>
11.6

>  <EState_VSA10>
0

>  <VSA_EState1>
0

>  <VSA_EState2>
2.24

>  <VSA_EState3>
4.34

>  <VSA_EState4>
5.11

>  <VSA_EState5>
0.43

>  <VSA_EState6>
14.75

>  <VSA_EState7>
2.32

>  <VSA_EState8>
1.11

>  <VSA_EState9>
4.25

>  <apol>
48.44

>  <bpol>
23.86

>  <nRing>
3

>  <nHRing>
1

>  <naRing>
2

>  <naHRing>
0

>  <nARing 2>
1

>  <nAHRing 2>
1

>  <nFRing>
1

>  <nFHRing>
1

>  <nFaRing>
0

>  <nFaHRing>
0

>  <nFARing 2>
1

>  <nFAHRing 2>
1

>  <nRot>
4

>  <SLogP>
4.87

>  <SMR>
90.81

>  <TopoPSA(NO)>
15.27

>  <TopoPSA>
15.27

>  <JGI1>
0.17

>  <JGI2>
0.07

>  <JGI3>
0.04

>  <JGI4>
0.05

>  <JGI5>
0.02

>  <Diameter>
9

>  <Radius>
5

>  <TMWC10>
118.14

>  <TSRW10>
55.05

>  <MW>
300.14

>  <AMW>
7.15

>  <WPath>
896

>  <WPol>
33

>  <Zagreb1>
110

>  <Zagreb2>
129

>  <mZagreb2>
4.61

>  <yes>


>  <nAR-cont>
0.816016

>  <nHA-cont>
0.994529749

>  <MWHBN>
0.17316468

>  <MWHBN-cont>
0.978666276

>  <TPSA-cont>
0.893405918

>  <pka_cont>
0.97

>  <yes.1>


>  <BBB_SCORE>
5.550356999

>  <MMFF94 Energy>
38.992

$$$$
Compound 1324
Actelion Java MolfileCreator 2.0

  0  0  0  0  0  0              0 V3000
M  V30 BEGIN CTAB
M  V30 COUNTS 48 50 0 0 0
M  V30 BEGIN ATOM
M  V30 1 N -1.1064 0.395 0.9483 0
M  V30 2 C -1.4653 -0.9722 0.8721 0
M  V30 3 C 0.1226 0.839 1.4859 0
M  V30 4 C -1.9172 1.3545 0.1628 0
M  V30 5 C -0.4903 -1.9657 1.0877 0
M  V30 6 C -2.7847 -1.3932 0.5999 0
M  V30 7 C 1.1656 -0.0834 1.7024 0
M  V30 8 C 0.3524 2.1823 1.8496 0
M  V30 9 C -1.7647 1.1771 -1.3576 0
M  V30 10 C -0.8528 -3.3284 0.9512 0
M  V30 11 C 0.962 -1.5843 1.4254 0
M  V30 12 C -3.1291 -2.7425 0.4927 0
M  V30 13 C 2.4203 0.3876 2.1618 0
M  V30 14 C 1.5882 2.6255 2.3275 0
M  V30 15 C -0.3358 1.4482 -1.8452 0
M  V30 16 C -2.1577 -3.7131 0.6579 0
M  V30 17 C 1.8588 -1.9853 0.231 0
M  V30 18 C 1.3937 -2.3763 2.6916 0
M  V30 19 C 2.6314 1.7285 2.4668 0
M  V30 20 N -0.212 1.3658 -3.3149 0
M  V30 21 C 1.202 1.2542 -3.6864 0
M  V30 22 C -0.8023 2.5283 -3.9814 0
M  V30 23 H -1.6906 2.3996 0.3876 0
M  V30 24 H -2.975 1.2727 0.4376 0
M  V30 25 H -3.5896 -0.6773 0.4729 0
M  V30 26 H -0.4382 2.9235 1.8041 0
M  V30 27 H -2.4658 1.8732 -1.8316 0
M  V30 28 H -2.0703 0.1712 -1.6672 0
M  V30 29 H -0.1104 -4.114 1.0679 0
M  V30 30 H -4.1554 -3.0259 0.2764 0
M  V30 31 H 3.2556 -0.2964 2.2907 0
M  V30 32 H 1.7254 3.6702 2.5929 0
M  V30 33 H 0.0174 2.4218 -1.4814 0
M  V30 34 H 0.3141 0.6857 -1.4007 0
M  V30 35 H -2.4105 -4.7654 0.5645 0
M  V30 36 H 2.9169 -1.7719 0.4208 0
M  V30 37 H 1.7892 -3.0556 0.0059 0
M  V30 38 H 1.5742 -1.4416 -0.6783 0
M  V30 39 H 0.7684 -2.1093 3.5531 0
M  V30 40 H 1.3201 -3.4605 2.5574 0
M  V30 41 H 2.4352 -2.1888 2.9726 0
M  V30 42 H 3.5998 2.0623 2.8284 0
M  V30 43 H 1.6457 0.3516 -3.2512 0
M  V30 44 H 1.7857 2.1213 -3.3557 0
M  V30 45 H 1.3092 1.1587 -4.7728 0
M  V30 46 H -0.3481 3.4696 -3.6511 0
M  V30 47 H -1.881 2.5844 -3.8074 0
M  V30 48 H -0.6767 2.4518 -5.0677 0
M  V30 END ATOM
M  V30 BEGIN BOND
M  V30 1 1 1 2
M  V30 2 1 1 3
M  V30 3 1 1 4
M  V30 4 2 2 5
M  V30 5 1 2 6
M  V30 6 2 3 7
M  V30 7 1 3 8
M  V30 8 1 4 9
M  V30 9 1 5 10
M  V30 10 1 5 11
M  V30 11 2 6 12
M  V30 12 1 7 13
M  V30 13 2 8 14
M  V30 14 1 9 15
M  V30 15 2 10 16
M  V30 16 1 11 17
M  V30 17 1 11 18
M  V30 18 2 13 19
M  V30 19 1 15 20
M  V30 20 1 20 21
M  V30 21 1 20 22
M  V30 22 1 7 11
M  V30 23 1 12 16
M  V30 24 1 14 19
M  V30 25 1 4 23
M  V30 26 1 4 24
M  V30 27 1 6 25
M  V30 28 1 8 26
M  V30 29 1 9 27
M  V30 30 1 9 28
M  V30 31 1 10 29
M  V30 32 1 12 30
M  V30 33 1 13 31
M  V30 34 1 14 32
M  V30 35 1 15 33
M  V30 36 1 15 34
M  V30 37 1 16 35
M  V30 38 1 17 36
M  V30 39 1 17 37
M  V30 40 1 17 38
M  V30 41 1 18 39
M  V30 42 1 18 40
M  V30 43 1 18 41
M  V30 44 1 19 42
M  V30 45 1 21 43
M  V30 46 1 21 44
M  V30 47 1 21 45
M  V30 48 1 22 46
M  V30 49 1 22 47
M  V30 50 1 22 48
M  V30 END BOND
M  V30 END CTAB
M  END
>  <Column 1>
1581

>  <level_0>
1735

>  <index>
1735

>  <Unnamed: 0>
1735

>  <NO.>
1747

>  <Name>
dimetacrine

>  <IUPAC_name>
3-(9-9-dimethylacridin-10-yl)-n-n-dimethylpropan-1-amine

>  <SMILES>
CN(C)CCCN1c2ccccc2C(C)(C)c2ccccc21

>  <CID>
94280

>  <logBB>


>  <BBB+/BBB->
BBB+

>  <Inchi>
InChI=1S/C20H26N2/c1-20(2)16-10-5-7-12-18(16)22(15-9-14-21(3)4)19-13-8-6-11-17(19)20/h5-8-10-13H-9-14-15H2-1-4H3

>  <threshold>
-1

>  <reference>
R1|R13|R19|R6|R24|R27|R27|R27|R30|R30|

>  <group>
B

>  <Class>
1

>  <ABC>
17.22

>  <ABCGG>
14.01

>  <nAcid>
0

>  <nBase>
1

>  <nAromAtom>
12

>  <nAromBond>
12

>  <nAtom>
48

>  <nHeavyAtom>
22

>  <nSpiro>
0

>  <nBridgehead>
0

>  <nHetero>
2

>  <nN>
2

>  <nO>
0

>  <nF>
0

>  <BalabanJ>
1.78

>  <BertzCT>
608.76

>  <nBonds>
50

>  <nBondsO>
24

>  <nBondsS>
38

>  <nBondsD>
0

>  <nBondsT>
0

>  <nBondsA>
12

>  <nBondsM>
12

>  <nBondsKS>
44

>  <nBondsKD>
6

>  <RNCG>
0.27

>  <RPCG>
0.05

>  <FCSP3>
0.4

>  <SZ>
26.67

>  <Sm>
24.51

>  <Sv>
28.56

>  <Sse>
46.87

>  <Sp>
31.7

>  <Si>
53.98

>  <MZ>
0.56

>  <Mm>
0.51

>  <Mv>
0.59

>  <Mse>
0.98

>  <Mp>
0.66

>  <Mi>
1.12

>  <NsCH3>
4

>  <NdCH2>
0

>  <NssCH2>
3

>  <NtCH>
0

>  <NdsCH>
0

>  <NaaCH>
8

>  <NsssCH>
0

>  <NddC>
0

>  <NtsC>
0

>  <NdssC>
0

>  <NaasC>
4

>  <NaaaC>
0

>  <NssssC>
1

>  <NsNH3>
0

>  <NsNH2>
0

>  <NssNH2>
0

>  <NdNH>
0

>  <NssNH>
0

>  <NaaNH>
0

>  <NtN>
0

>  <NsssNH>
0

>  <NdsN>
0

>  <NaaN>
0

>  <NsssN>
2

>  <NddsN>
0

>  <NaasN>
0

>  <NssssN>
0

>  <NsOH>
0

>  <NdO>
0

>  <NssO>
0

>  <NaaO>
0

>  <NsF>
0

>  <NsSiH3>
0

>  <NssSiH2>
0

>  <NsssSiH>
0

>  <NssssSi>
0

>  <NsPH2>
0

>  <NssPH>
0

>  <NsssP>
0

>  <NdsssP>
0

>  <NsssssP>
0

>  <NsSH>
0

>  <NdS>
0

>  <NssS>
0

>  <NaaS>
0

>  <NdssS>
0

>  <NddssS>
0

>  <NsCl>
0

>  <NsBr>
0

>  <NsI>
0

>  <fragCpx>
114.02

>  <fMF>
0.29

>  <nHBAcc>
2

>  <nHBDon>
0

>  <Kier1>
16.84

>  <Kier2>
6.86

>  <Lipinski>
1

>  <GhoseFilter>
1

>  <FilterItLogS>
-5.39

>  <VMcGowan>
254.24

>  <LabuteASA>
133.92

>  <PEOE_VSA1>
9.8

>  <PEOE_VSA2>
0

>  <PEOE_VSA3>
0

>  <PEOE_VSA4>
0

>  <PEOE_VSA5>
0

>  <PEOE_VSA6>
50.25

>  <PEOE_VSA7>
50.32

>  <PEOE_VSA8>
23.33

>  <PEOE_VSA9>
0

>  <PEOE_VSA10>
0

>  <PEOE_VSA11>
0

>  <PEOE_VSA12>
0

>  <PEOE_VSA13>
0

>  <SMR_VSA1>
0

>  <SMR_VSA2>
0

>  <SMR_VSA3>
4.9

>  <SMR_VSA4>
0

>  <SMR_VSA5>
25.68

>  <SMR_VSA6>
32.08

>  <SMR_VSA7>
59.66

>  <SMR_VSA8>
0

>  <SMR_VSA9>
0

>  <SlogP_VSA1>
4.9

>  <SlogP_VSA2>
32.08

>  <SlogP_VSA3>
5.41

>  <SlogP_VSA4>
0

>  <SlogP_VSA5>
31.4

>  <SlogP_VSA6>
48.53

>  <SlogP_VSA7>
0

>  <SlogP_VSA8>
0

>  <SlogP_VSA9>
0

>  <SlogP_VSA10>
11.37

>  <SlogP_VSA11>
0

>  <EState_VSA1>
0

>  <EState_VSA2>
5.41

>  <EState_VSA3>
0

>  <EState_VSA4>
19.51

>  <EState_VSA5>
22.5

>  <EState_VSA6>
0

>  <EState_VSA7>
0

>  <EState_VSA8>
86.27

>  <EState_VSA9>
0

>  <EState_VSA10>
0

>  <VSA_EState1>
0

>  <VSA_EState2>
4.76

>  <VSA_EState3>
0

>  <VSA_EState4>
5.65

>  <VSA_EState5>
0

>  <VSA_EState6>
17.72

>  <VSA_EState7>
1.16

>  <VSA_EState8>
6.84

>  <VSA_EState9>
4.28

>  <apol>
52.94

>  <bpol>
29.5

>  <nRing>
3

>  <nHRing>
1

>  <naRing>
2

>  <naHRing>
0

>  <nARing 2>
1

>  <nAHRing 2>
1

>  <nFRing>
1

>  <nFHRing>
1

>  <nFaRing>
0

>  <nFaHRing>
0

>  <nFARing 2>
1

>  <nFAHRing 2>
1

>  <nRot>
4

>  <SLogP>
4.42

>  <SMR>
95.19

>  <TopoPSA(NO)>
6.48

>  <TopoPSA>
6.48

>  <JGI1>
0.19

>  <JGI2>
0.1

>  <JGI3>
0.07

>  <JGI4>
0.04

>  <JGI5>
0.02

>  <Diameter>
9

>  <Radius>
5

>  <TMWC10>
121.86

>  <TSRW10>
56.74

>  <MW>
294.21

>  <AMW>
6.13

>  <WPath>
973

>  <WPol>
39

>  <Zagreb1>
118

>  <Zagreb2>
142

>  <mZagreb2>
4.78

>  <yes>


>  <nAR-cont>
0.816016

>  <nHA-cont>
0.983774276

>  <MWHBN>
0.116600733

>  <MWHBN-cont>
0.814364962

>  <TPSA-cont>
0.954765576

>  <pka_cont>
0.97

>  <yes.1>


>  <BBB_SCORE>
5.415868871

>  <MMFF94 Energy>
66.715

$$$$
Compound 1325
Actelion Java MolfileCreator 2.0

  0  0  0  0  0  0              0 V3000
M  V30 BEGIN CTAB
M  V30 COUNTS 51 54 0 0 0
M  V30 BEGIN ATOM
M  V30 1 N 2.3093 -0.7162 -0.7162 0
M  V30 2 C 2.3739 -0.1438 0.4474 0
M  V30 3 C 1.4471 -1.7815 -1.0267 0
M  V30 4 C 1.6311 -0.5519 1.6772 0
M  V30 5 C 3.2954 1.0361 0.5447 0
M  V30 6 C 0.1069 -1.9062 -0.602 0
M  V30 7 C 1.92 -2.7015 -1.9684 0
M  V30 8 C 0.2694 -0.8982 1.6263 0
M  V30 9 C 2.3214 -0.5279 2.9056 0
M  V30 10 C 4.5311 0.9931 -0.1112 0
M  V30 11 C 2.9205 2.1874 1.249 0
M  V30 12 N -0.7131 -2.8781 -1.0953 0
M  V30 13 N -0.4082 -1.0516 0.4025 0
M  V30 14 C 1.0923 -3.7038 -2.457 0
M  V30 15 C -0.371 -1.1787 2.8513 0
M  V30 16 C 1.6607 -0.8101 4.0979 0
M  V30 17 C 5.3997 2.0829 -0.0372 0
M  V30 18 C 3.7928 3.2752 1.3201 0
M  V30 19 C -0.208 -3.7439 -1.9986 0
M  V30 20 C -1.8596 -0.8198 0.3458 0
M  V30 21 C 0.3102 -1.1279 4.0713 0
M  V30 22 C 5.0318 3.2206 0.6813 0
M  V30 23 C -2.2667 -0.0719 -0.9345 0
M  V30 24 C -3.7577 0.2874 -0.8939 0
M  V30 25 N -4.2522 0.8976 -2.1406 0
M  V30 26 C -3.6479 2.2061 -2.3973 0
M  V30 27 C -5.7108 1.0258 -2.0933 0
M  V30 28 H 2.9382 -2.6093 -2.3355 0
M  V30 29 H 3.3822 -0.2894 2.9407 0
M  V30 30 H 4.8162 0.1118 -0.6807 0
M  V30 31 H 1.9484 2.2538 1.7302 0
M  V30 32 H 1.449 -4.4172 -3.19 0
M  V30 33 H -1.4109 -1.4956 2.8695 0
M  V30 34 H 2.2004 -0.7876 5.041 0
M  V30 35 H 6.3592 2.0462 -0.5463 0
M  V30 36 H 3.5021 4.1695 1.8656 0
M  V30 37 H -0.9047 -4.4964 -2.356 0
M  V30 38 H -2.1677 -0.1775 1.1816 0
M  V30 39 H -2.4176 -1.7589 0.4539 0
M  V30 40 H -0.2132 -1.3645 4.9943 0
M  V30 41 H 5.7076 4.0707 0.7334 0
M  V30 42 H -2.0649 -0.6813 -1.8225 0
M  V30 43 H -1.6544 0.8333 -1.0205 0
M  V30 44 H -4.3148 -0.6417 -0.7154 0
M  V30 45 H -3.9578 0.9468 -0.0388 0
M  V30 46 H -2.5719 2.1191 -2.5757 0
M  V30 47 H -3.8106 2.9055 -1.5693 0
M  V30 48 H -4.0666 2.6512 -3.3074 0
M  V30 49 H -6.0417 1.68 -1.2784 0
M  V30 50 H -6.1809 0.0449 -1.9618 0
M  V30 51 H -6.0938 1.4292 -3.0375 0
M  V30 END ATOM
M  V30 BEGIN BOND
M  V30 1 2 1 2
M  V30 2 1 1 3
M  V30 3 1 2 4
M  V30 4 1 2 5
M  V30 5 2 3 6
M  V30 6 1 3 7
M  V30 7 2 4 8
M  V30 8 1 4 9
M  V30 9 2 5 10
M  V30 10 1 5 11
M  V30 11 1 6 12
M  V30 12 1 6 13
M  V30 13 2 7 14
M  V30 14 1 8 15
M  V30 15 2 9 16
M  V30 16 1 10 17
M  V30 17 2 11 18
M  V30 18 2 12 19
M  V30 19 1 13 20
M  V30 20 2 15 21
M  V30 21 2 17 22
M  V30 22 1 20 23
M  V30 23 1 23 24
M  V30 24 1 24 25
M  V30 25 1 25 26
M  V30 26 1 25 27
M  V30 27 1 8 13
M  V30 28 1 14 19
M  V30 29 1 16 21
M  V30 30 1 18 22
M  V30 31 1 7 28
M  V30 32 1 9 29
M  V30 33 1 10 30
M  V30 34 1 11 31
M  V30 35 1 14 32
M  V30 36 1 15 33
M  V30 37 1 16 34
M  V30 38 1 17 35
M  V30 39 1 18 36
M  V30 40 1 19 37
M  V30 41 1 20 38
M  V30 42 1 20 39
M  V30 43 1 21 40
M  V30 44 1 22 41
M  V30 45 1 23 42
M  V30 46 1 23 43
M  V30 47 1 24 44
M  V30 48 1 24 45
M  V30 49 1 26 46
M  V30 50 1 26 47
M  V30 51 1 26 48
M  V30 52 1 27 49
M  V30 53 1 27 50
M  V30 54 1 27 51
M  V30 END BOND
M  V30 END CTAB
M  END
>  <Column 1>
1582

>  <level_0>
1736

>  <index>
1736

>  <Unnamed: 0>
1736

>  <NO.>
1748

>  <Name>
tampramine

>  <IUPAC_name>
n-n-dimethyl-3-(6-phenylpyrido[2-3-b][1-4]benzodiazepin-11-yl)propan-1-amine

>  <SMILES>
CN(C)CCCN1c2ccccc2C(c2ccccc2)=Nc2cccnc21

>  <CID>
54961

>  <logBB>


>  <BBB+/BBB->
BBB+

>  <Inchi>
InChI=1S/C23H24N4/c1-26(2)16-9-17-27-21-14-7-6-12-19(21)22(18-10-4-3-5-11-18)25-20-13-8-15-24-23(20)27/h3-8-10-15H-9-16-17H2-1-2H3

>  <threshold>
-1

>  <reference>
R1|R13|R19|R6|R24|R27|R27|R27|R30|R30|

>  <group>
B

>  <Class>
1

>  <ABC>
21.19

>  <ABCGG>
16.31

>  <nAcid>
0

>  <nBase>
1

>  <nAromAtom>
18

>  <nAromBond>
18

>  <nAtom>
51

>  <nHeavyAtom>
27

>  <nSpiro>
0

>  <nBridgehead>
0

>  <nHetero>
4

>  <nN>
4

>  <nO>
0

>  <nF>
0

>  <BalabanJ>
1.56

>  <BertzCT>
947.36

>  <nBonds>
54

>  <nBondsO>
30

>  <nBondsS>
35

>  <nBondsD>
1

>  <nBondsT>
0

>  <nBondsA>
18

>  <nBondsM>
19

>  <nBondsKS>
44

>  <nBondsKD>
10

>  <RNCG>
0.19

>  <RPCG>
0.09

>  <FCSP3>
0.22

>  <SZ>
31.67

>  <Sm>
29.68

>  <Sv>
32.53

>  <Sse>
50.31

>  <Sp>
35.22

>  <Si>
57.15

>  <MZ>
0.62

>  <Mm>
0.58

>  <Mv>
0.64

>  <Mse>
0.99

>  <Mp>
0.69

>  <Mi>
1.12

>  <NsCH3>
2

>  <NdCH2>
0

>  <NssCH2>
3

>  <NtCH>
0

>  <NdsCH>
0

>  <NaaCH>
12

>  <NsssCH>
0

>  <NddC>
0

>  <NtsC>
0

>  <NdssC>
1

>  <NaasC>
5

>  <NaaaC>
0

>  <NssssC>
0

>  <NsNH3>
0

>  <NsNH2>
0

>  <NssNH2>
0

>  <NdNH>
0

>  <NssNH>
0

>  <NaaNH>
0

>  <NtN>
0

>  <NsssNH>
0

>  <NdsN>
1

>  <NaaN>
1

>  <NsssN>
2

>  <NddsN>
0

>  <NaasN>
0

>  <NssssN>
0

>  <NsOH>
0

>  <NdO>
0

>  <NssO>
0

>  <NaaO>
0

>  <NsF>
0

>  <NsSiH3>
0

>  <NssSiH2>
0

>  <NsssSiH>
0

>  <NssssSi>
0

>  <NsPH2>
0

>  <NssPH>
0

>  <NsssP>
0

>  <NdsssP>
0

>  <NsssssP>
0

>  <NsSH>
0

>  <NdS>
0

>  <NssS>
0

>  <NaaS>
0

>  <NdssS>
0

>  <NddssS>
0

>  <NsCl>
0

>  <NsBr>
0

>  <NsI>
0

>  <fragCpx>
198.04

>  <fMF>
0.41

>  <nHBAcc>
4

>  <nHBDon>
0

>  <Kier1>
20.28

>  <Kier2>
9.67

>  <Lipinski>
1

>  <GhoseFilter>
1

>  <FilterItLogS>
-6.17

>  <VMcGowan>
288.41

>  <LabuteASA>
160.36

>  <PEOE_VSA1>
9.8

>  <PEOE_VSA2>
0

>  <PEOE_VSA3>
9.98

>  <PEOE_VSA4>
0

>  <PEOE_VSA5>
0

>  <PEOE_VSA6>
48.53

>  <PEOE_VSA7>
45.26

>  <PEOE_VSA8>
23.87

>  <PEOE_VSA9>
11.4

>  <PEOE_VSA10>
5.69

>  <PEOE_VSA11>
5.82

>  <PEOE_VSA12>
0

>  <PEOE_VSA13>
0

>  <SMR_VSA1>
0

>  <SMR_VSA2>
0

>  <SMR_VSA3>
9.88

>  <SMR_VSA4>
4.99

>  <SMR_VSA5>
6.42

>  <SMR_VSA6>
32.08

>  <SMR_VSA7>
84.05

>  <SMR_VSA8>
0

>  <SMR_VSA9>
0

>  <SlogP_VSA1>
4.9

>  <SlogP_VSA2>
42.78

>  <SlogP_VSA3>
0

>  <SlogP_VSA4>
0

>  <SlogP_VSA5>
17.55

>  <SlogP_VSA6>
77.92

>  <SlogP_VSA7>
0

>  <SlogP_VSA8>
0

>  <SlogP_VSA9>
0

>  <SlogP_VSA10>
17.19

>  <SlogP_VSA11>
0

>  <EState_VSA1>
0

>  <EState_VSA2>
0

>  <EState_VSA3>
0

>  <EState_VSA4>
53.54

>  <EState_VSA5>
0

>  <EState_VSA6>
0

>  <EState_VSA7>
18.33

>  <EState_VSA8>
78.49

>  <EState_VSA9>
9.98

>  <EState_VSA10>
0

>  <VSA_EState1>
0

>  <VSA_EState2>
14.27

>  <VSA_EState3>
0

>  <VSA_EState4>
5.34

>  <VSA_EState5>
0.93

>  <VSA_EState6>
22.91

>  <VSA_EState7>
2.9

>  <VSA_EState8>
1.93

>  <VSA_EState9>
4.22

>  <apol>
58.81

>  <bpol>
29.78

>  <nRing>
4

>  <nHRing>
2

>  <naRing>
3

>  <naHRing>
1

>  <nARing 2>
1

>  <nAHRing 2>
1

>  <nFRing>
1

>  <nFHRing>
1

>  <nFaRing>
0

>  <nFaHRing>
0

>  <nFARing 2>
1

>  <nFAHRing 2>
1

>  <nRot>
5

>  <SLogP>
4.65

>  <SMR>
112.6

>  <TopoPSA(NO)>
31.73

>  <TopoPSA>
31.73

>  <JGI1>
0.12

>  <JGI2>
0.07

>  <JGI3>
0.04

>  <JGI4>
0.03

>  <JGI5>
0.02

>  <Diameter>
12

>  <Radius>
6

>  <TMWC10>
133.6

>  <TSRW10>
70.37

>  <MW>
356.2

>  <AMW>
6.98

>  <WPath>
1692

>  <WPol>
47

>  <Zagreb1>
142

>  <Zagreb2>
168

>  <mZagreb2>
6

>  <yes>


>  <nAR-cont>
0.816016

>  <nHA-cont>
0.860070871

>  <MWHBN>
0.211940051

>  <MWHBN-cont>
0.998782495

>  <TPSA-cont>
0.778504897

>  <pka_cont>
0.97

>  <yes.1>


>  <BBB_SCORE>
5.216270407

>  <MMFF94 Energy>
131.49

$$$$
Compound 1326
Actelion Java MolfileCreator 2.0

  0  0  0  0  0  0              0 V3000
M  V30 BEGIN CTAB
M  V30 COUNTS 43 45 0 0 0
M  V30 BEGIN ATOM
M  V30 1 N 0.8695 -0.237 0.5532 0
M  V30 2 C 0.8199 -0.2858 1.9632 0
M  V30 3 C 1.6015 0.6839 -0.2281 0
M  V30 4 C -0.1813 -0.998 -0.1589 0
M  V30 5 C 0.6874 0.8542 2.7776 0
M  V30 6 C 0.948 -1.5417 2.5959 0
M  V30 7 C 1.6626 2.0627 0.0492 0
M  V30 8 C 2.3387 0.1958 -1.3289 0
M  V30 9 C -1.4385 -0.1399 -0.3498 0
M  V30 10 C 0.4632 2.2117 2.2633 0
M  V30 11 C 0.6611 0.7048 4.1795 0
M  V30 12 C 0.9296 -1.6751 3.9849 0
M  V30 13 C 0.8796 2.7269 1.1001 0
M  V30 14 C 2.4306 2.9034 -0.7824 0
M  V30 15 C 3.1017 1.0375 -2.1394 0
M  V30 16 C -2.5945 -0.9245 -0.9812 0
M  V30 17 C 0.7843 -0.5479 4.7792 0
M  V30 18 C 3.1473 2.3959 -1.8653 0
M  V30 19 N -2.2802 -1.5436 -2.2802 0
M  V30 20 C -2.0305 -0.5398 -3.3186 0
M  V30 21 C -3.3798 -2.4191 -2.6964 0
M  V30 22 H -0.4514 -1.9096 0.3879 0
M  V30 23 H 0.184 -1.3493 -1.1303 0
M  V30 24 H 1.0979 -2.434 1.9924 0
M  V30 25 H 2.3444 -0.8704 -1.5425 0
M  V30 26 H -1.2084 0.7486 -0.9487 0
M  V30 27 H -1.7772 0.2356 0.6241 0
M  V30 28 H -0.0981 2.8681 2.9253 0
M  V30 29 H 0.5466 1.5761 4.8213 0
M  V30 30 H 1.0393 -2.656 4.4385 0
M  V30 31 H 0.6269 3.7659 0.8982 0
M  V30 32 H 2.4772 3.9728 -0.587 0
M  V30 33 H 3.6634 0.6262 -2.9732 0
M  V30 34 H -2.8756 -1.7134 -0.2706 0
M  V30 35 H -3.466 -0.2627 -1.0714 0
M  V30 36 H 0.7703 -0.6382 5.8618 0
M  V30 37 H 3.739 3.0611 -2.4878 0
M  V30 38 H -1.139 0.0529 -3.0912 0
M  V30 39 H -2.8795 0.141 -3.4479 0
M  V30 40 H -1.8311 -1.0251 -4.281 0
M  V30 41 H -4.3189 -1.8693 -2.829 0
M  V30 42 H -3.5437 -3.2104 -1.9564 0
M  V30 43 H -3.1368 -2.9213 -3.6394 0
M  V30 END ATOM
M  V30 BEGIN BOND
M  V30 1 1 1 2
M  V30 2 1 1 3
M  V30 3 1 1 4
M  V30 4 2 2 5
M  V30 5 1 2 6
M  V30 6 2 3 7
M  V30 7 1 3 8
M  V30 8 1 4 9
M  V30 9 1 5 10
M  V30 10 1 5 11
M  V30 11 2 6 12
M  V30 12 1 7 13
M  V30 13 1 7 14
M  V30 14 2 8 15
M  V30 15 1 9 16
M  V30 16 2 11 17
M  V30 17 2 14 18
M  V30 18 1 16 19
M  V30 19 1 19 20
M  V30 20 1 19 21
M  V30 21 2 10 13
M  V30 22 1 12 17
M  V30 23 1 15 18
M  V30 24 1 4 22
M  V30 25 1 4 23
M  V30 26 1 6 24
M  V30 27 1 8 25
M  V30 28 1 9 26
M  V30 29 1 9 27
M  V30 30 1 10 28
M  V30 31 1 11 29
M  V30 32 1 12 30
M  V30 33 1 13 31
M  V30 34 1 14 32
M  V30 35 1 15 33
M  V30 36 1 16 34
M  V30 37 1 16 35
M  V30 38 1 17 36
M  V30 39 1 18 37
M  V30 40 1 20 38
M  V30 41 1 20 39
M  V30 42 1 20 40
M  V30 43 1 21 41
M  V30 44 1 21 42
M  V30 45 1 21 43
M  V30 END BOND
M  V30 END CTAB
M  END
>  <Column 1>
1583

>  <level_0>
1737

>  <index>
1737

>  <Unnamed: 0>
1737

>  <NO.>
1749

>  <Name>
depramine

>  <IUPAC_name>
3-benzo[b][1]benzazepin-11-yl-n-n-dimethylpropan-1-amine

>  <SMILES>
CN(C)CCCN1c2ccccc2C=Cc2ccccc21

>  <CID>
67534

>  <logBB>


>  <BBB+/BBB->
BBB+

>  <Inchi>
InChI=1S/C19H22N2/c1-20(2)14-7-15-21-18-10-5-3-8-16(18)12-13-17-9-4-6-11-19(17)21/h3-6-8-13H-7-14-15H2-1-2H3

>  <threshold>
-1

>  <reference>
R1|R13|R19|R6|R24|R27|R27|R27|R30|R30|

>  <group>
B

>  <Class>
1

>  <ABC>
16.32

>  <ABCGG>
13.12

>  <nAcid>
0

>  <nBase>
1

>  <nAromAtom>
12

>  <nAromBond>
12

>  <nAtom>
43

>  <nHeavyAtom>
21

>  <nSpiro>
0

>  <nBridgehead>
0

>  <nHetero>
2

>  <nN>
2

>  <nO>
0

>  <nF>
0

>  <BalabanJ>
1.7

>  <BertzCT>
594.02

>  <nBonds>
45

>  <nBondsO>
23

>  <nBondsS>
32

>  <nBondsD>
1

>  <nBondsT>
0

>  <nBondsA>
12

>  <nBondsM>
13

>  <nBondsKS>
38

>  <nBondsKD>
7

>  <RNCG>
0.28

>  <RPCG>
0.05

>  <FCSP3>
0.26

>  <SZ>
25

>  <Sm>
23.18

>  <Sv>
26.48

>  <Sse>
42.09

>  <Sp>
29.1

>  <Si>
48.15

>  <MZ>
0.58

>  <Mm>
0.54

>  <Mv>
0.62

>  <Mse>
0.98

>  <Mp>
0.68

>  <Mi>
1.12

>  <NsCH3>
2

>  <NdCH2>
0

>  <NssCH2>
3

>  <NtCH>
0

>  <NdsCH>
2

>  <NaaCH>
8

>  <NsssCH>
0

>  <NddC>
0

>  <NtsC>
0

>  <NdssC>
0

>  <NaasC>
4

>  <NaaaC>
0

>  <NssssC>
0

>  <NsNH3>
0

>  <NsNH2>
0

>  <NssNH2>
0

>  <NdNH>
0

>  <NssNH>
0

>  <NaaNH>
0

>  <NtN>
0

>  <NsssNH>
0

>  <NdsN>
0

>  <NaaN>
0

>  <NsssN>
2

>  <NddsN>
0

>  <NaasN>
0

>  <NssssN>
0

>  <NsOH>
0

>  <NdO>
0

>  <NssO>
0

>  <NaaO>
0

>  <NsF>
0

>  <NsSiH3>
0

>  <NssSiH2>
0

>  <NsssSiH>
0

>  <NssssSi>
0

>  <NsPH2>
0

>  <NssPH>
0

>  <NsssP>
0

>  <NdsssP>
0

>  <NsssssP>
0

>  <NsSH>
0

>  <NdS>
0

>  <NssS>
0

>  <NaaS>
0

>  <NdssS>
0

>  <NddssS>
0

>  <NsCl>
0

>  <NsBr>
0

>  <NsI>
0

>  <fragCpx>
109.02

>  <fMF>
0.35

>  <nHBAcc>
2

>  <nHBDon>
0

>  <Kier1>
15.88

>  <Kier2>
7.51

>  <Lipinski>
1

>  <GhoseFilter>
1

>  <FilterItLogS>
-4.45

>  <VMcGowan>
235.85

>  <LabuteASA>
126.87

>  <PEOE_VSA1>
9.8

>  <PEOE_VSA2>
0

>  <PEOE_VSA3>
0

>  <PEOE_VSA4>
0

>  <PEOE_VSA5>
0

>  <PEOE_VSA6>
48.55

>  <PEOE_VSA7>
50.32

>  <PEOE_VSA8>
17.92

>  <PEOE_VSA9>
0

>  <PEOE_VSA10>
0

>  <PEOE_VSA11>
0

>  <PEOE_VSA12>
0

>  <PEOE_VSA13>
0

>  <SMR_VSA1>
0

>  <SMR_VSA2>
0

>  <SMR_VSA3>
4.9

>  <SMR_VSA4>
0

>  <SMR_VSA5>
6.42

>  <SMR_VSA6>
32.08

>  <SMR_VSA7>
59.66

>  <SMR_VSA8>
0

>  <SMR_VSA9>
0

>  <SlogP_VSA1>
4.9

>  <SlogP_VSA2>
32.08

>  <SlogP_VSA3>
0

>  <SlogP_VSA4>
0

>  <SlogP_VSA5>
17.55

>  <SlogP_VSA6>
48.53

>  <SlogP_VSA7>
0

>  <SlogP_VSA8>
12.15

>  <SlogP_VSA9>
0

>  <SlogP_VSA10>
11.37

>  <SlogP_VSA11>
0

>  <EState_VSA1>
0

>  <EState_VSA2>
0

>  <EState_VSA3>
0

>  <EState_VSA4>
19.51

>  <EState_VSA5>
22.5

>  <EState_VSA6>
0

>  <EState_VSA7>
0

>  <EState_VSA8>
84.58

>  <EState_VSA9>
0

>  <EState_VSA10>
0

>  <VSA_EState1>
0

>  <VSA_EState2>
4.7

>  <VSA_EState3>
0

>  <VSA_EState4>
5.19

>  <VSA_EState5>
0

>  <VSA_EState6>
17.29

>  <VSA_EState7>
5.59

>  <VSA_EState8>
2.14

>  <VSA_EState9>
4.26

>  <apol>
48.6

>  <bpol>
25.49

>  <nRing>
3

>  <nHRing>
1

>  <naRing>
2

>  <naHRing>
0

>  <nARing 2>
1

>  <nAHRing 2>
1

>  <nFRing>
1

>  <nFHRing>
1

>  <nFaRing>
0

>  <nFaHRing>
0

>  <nFARing 2>
1

>  <nFAHRing 2>
1

>  <nRot>
4

>  <SLogP>
4.26

>  <SMR>
91.99

>  <TopoPSA(NO)>
6.48

>  <TopoPSA>
6.48

>  <JGI1>
0.13

>  <JGI2>
0.07

>  <JGI3>
0.04

>  <JGI4>
0.03

>  <JGI5>
0.01

>  <Diameter>
9

>  <Radius>
5

>  <TMWC10>
117.56

>  <TSRW10>
62.81

>  <MW>
278.18

>  <AMW>
6.47

>  <WPath>
882

>  <WPol>
35

>  <Zagreb1>
108

>  <Zagreb2>
126

>  <mZagreb2>
4.69

>  <yes>


>  <nAR-cont>
0.816016

>  <nHA-cont>
0.994529749

>  <MWHBN>
0.119913214

>  <MWHBN-cont>
0.829001649

>  <TPSA-cont>
0.954765576

>  <pka_cont>
0.97

>  <yes.1>


>  <BBB_SCORE>
5.448579376

>  <MMFF94 Energy>
81.921

$$$$
Compound 1327
Actelion Java MolfileCreator 2.0

  0  0  0  0  0  0              0 V3000
M  V30 BEGIN CTAB
M  V30 COUNTS 40 42 0 0 0
M  V30 BEGIN ATOM
M  V30 1 S -2.3265 1.7645 3.2904 0
M  V30 2 C -1.8202 1.7108 1.6403 0
M  V30 3 C -0.8125 1.2261 3.8547 0
M  V30 4 C -0.5107 1.2733 1.5402 0
M  V30 5 C -2.7649 2.0371 0.635 0
M  V30 6 C 0.0629 0.9933 2.821 0
M  V30 7 N 0.1736 1.1019 0.3649 0
M  V30 8 C -2.4372 2.3822 -0.6164 0
M  V30 9 C 0.0913 1.945 -0.778 0
M  V30 10 C 0.8258 -0.2102 0.1265 0
M  V30 11 C -1.1014 2.5624 -1.2167 0
M  V30 12 C 1.2799 2.2333 -1.4903 0
M  V30 13 C -0.2 -1.2287 -0.3886 0
M  V30 14 C -1.0686 3.3859 -2.365 0
M  V30 15 C 1.2946 3.0565 -2.6173 0
M  V30 16 C 0.437 -2.5789 -0.7366 0
M  V30 17 C 0.1146 3.6295 -3.0602 0
M  V30 18 N 1.1726 -3.2129 0.3708 0
M  V30 19 C 1.9034 -4.3852 -0.1201 0
M  V30 20 C 0.2797 -3.6126 1.4626 0
M  V30 21 H -0.6334 1.1054 4.9139 0
M  V30 22 H -3.8204 2.0099 0.8966 0
M  V30 23 H 1.0788 0.6564 2.9808 0
M  V30 24 H -3.2681 2.6028 -1.2849 0
M  V30 25 H 1.2831 -0.5798 1.0516 0
M  V30 26 H 1.6552 -0.1417 -0.5855 0
M  V30 27 H 2.2317 1.8407 -1.14 0
M  V30 28 H -0.6815 -0.8376 -1.2941 0
M  V30 29 H -1.0055 -1.3623 0.3428 0
M  V30 30 H -1.979 3.8612 -2.7263 0
M  V30 31 H 2.2296 3.2562 -3.1332 0
M  V30 32 H -0.3417 -3.253 -1.1173 0
M  V30 33 H 1.1307 -2.4033 -1.5697 0
M  V30 34 H 0.1116 4.2752 -3.934 0
M  V30 35 H 2.6171 -4.0957 -0.8996 0
M  V30 36 H 1.2325 -5.1486 -0.531 0
M  V30 37 H 2.491 -4.8386 0.6861 0
M  V30 38 H -0.5066 -4.2969 1.124 0
M  V30 39 H -0.1922 -2.7416 1.9282 0
M  V30 40 H 0.8461 -4.109 2.259 0
M  V30 END ATOM
M  V30 BEGIN BOND
M  V30 1 1 1 2
M  V30 2 1 1 3
M  V30 3 2 2 4
M  V30 4 1 2 5
M  V30 5 2 3 6
M  V30 6 1 4 7
M  V30 7 2 5 8
M  V30 8 1 7 9
M  V30 9 1 7 10
M  V30 10 1 8 11
M  V30 11 1 9 12
M  V30 12 1 10 13
M  V30 13 1 11 14
M  V30 14 2 12 15
M  V30 15 1 13 16
M  V30 16 2 14 17
M  V30 17 1 16 18
M  V30 18 1 18 19
M  V30 19 1 18 20
M  V30 20 1 4 6
M  V30 21 2 9 11
M  V30 22 1 15 17
M  V30 23 1 3 21
M  V30 24 1 5 22
M  V30 25 1 6 23
M  V30 26 1 8 24
M  V30 27 1 10 25
M  V30 28 1 10 26
M  V30 29 1 12 27
M  V30 30 1 13 28
M  V30 31 1 13 29
M  V30 32 1 14 30
M  V30 33 1 15 31
M  V30 34 1 16 32
M  V30 35 1 16 33
M  V30 36 1 17 34
M  V30 37 1 19 35
M  V30 38 1 19 36
M  V30 39 1 19 37
M  V30 40 1 20 38
M  V30 41 1 20 39
M  V30 42 1 20 40
M  V30 END BOND
M  V30 END CTAB
M  END
>  <Column 1>
1584

>  <level_0>
1738

>  <index>
1738

>  <Unnamed: 0>
1738

>  <NO.>
1750

>  <Name>
tienopramine

>  <IUPAC_name>
n-n-dimethyl-3-thieno[3-2-b][1]benzazepin-10-ylpropan-1-amine

>  <SMILES>
CN(C)CCCN1c2ccccc2C=Cc2sccc21

>  <CID>
216992

>  <logBB>


>  <BBB+/BBB->
BBB+

>  <Inchi>
InChI=1S/C17H20N2S/c1-18(2)11-5-12-19-15-7-4-3-6-14(15)8-9-17-16(19)10-13-20-17/h3-4-6-10-13H-5-11-12H2-1-2H3

>  <threshold>
-1

>  <reference>
R1|R13|R19|R6|R24|R27|R27|R27|R30|R30|

>  <group>
B

>  <Class>
1

>  <ABC>
15.61

>  <ABCGG>
13.19

>  <nAcid>
0

>  <nBase>
1

>  <nAromAtom>
11

>  <nAromBond>
11

>  <nAtom>
40

>  <nHeavyAtom>
20

>  <nSpiro>
0

>  <nBridgehead>
0

>  <nHetero>
3

>  <nN>
2

>  <nO>
0

>  <nF>
0

>  <BalabanJ>
1.69

>  <BertzCT>
612.96

>  <nBonds>
42

>  <nBondsO>
22

>  <nBondsS>
30

>  <nBondsD>
1

>  <nBondsT>
0

>  <nBondsA>
11

>  <nBondsM>
12

>  <nBondsKS>
36

>  <nBondsKD>
6

>  <RNCG>
0.29

>  <RPCG>
0.06

>  <FCSP3>
0.29

>  <SZ>
25.33

>  <Sm>
23.68

>  <Sv>
25.12

>  <Sse>
39.28

>  <Sp>
28.04

>  <Si>
44.65

>  <MZ>
0.63

>  <Mm>
0.59

>  <Mv>
0.63

>  <Mse>
0.98

>  <Mp>
0.7

>  <Mi>
1.12

>  <NsCH3>
2

>  <NdCH2>
0

>  <NssCH2>
3

>  <NtCH>
0

>  <NdsCH>
2

>  <NaaCH>
6

>  <NsssCH>
0

>  <NddC>
0

>  <NtsC>
0

>  <NdssC>
0

>  <NaasC>
4

>  <NaaaC>
0

>  <NssssC>
0

>  <NsNH3>
0

>  <NsNH2>
0

>  <NssNH2>
0

>  <NdNH>
0

>  <NssNH>
0

>  <NaaNH>
0

>  <NtN>
0

>  <NsssNH>
0

>  <NdsN>
0

>  <NaaN>
0

>  <NsssN>
2

>  <NddsN>
0

>  <NaasN>
0

>  <NssssN>
0

>  <NsOH>
0

>  <NdO>
0

>  <NssO>
0

>  <NaaO>
0

>  <NsF>
0

>  <NsSiH3>
0

>  <NssSiH2>
0

>  <NsssSiH>
0

>  <NssssSi>
0

>  <NsPH2>
0

>  <NssPH>
0

>  <NsssP>
0

>  <NdsssP>
0

>  <NsssssP>
0

>  <NsSH>
0

>  <NdS>
0

>  <NssS>
0

>  <NaaS>
1

>  <NdssS>
0

>  <NddssS>
0

>  <NsCl>
0

>  <NsBr>
0

>  <NsI>
0

>  <fragCpx>
104.03

>  <fMF>
0.35

>  <nHBAcc>
3

>  <nHBDon>
0

>  <Kier1>
14.92

>  <Kier2>
6.84

>  <Lipinski>
1

>  <GhoseFilter>
1

>  <FilterItLogS>
-4.02

>  <VMcGowan>
228.32

>  <LabuteASA>
124.51

>  <PEOE_VSA1>
9.8

>  <PEOE_VSA2>
0

>  <PEOE_VSA3>
0

>  <PEOE_VSA4>
0

>  <PEOE_VSA5>
11.34

>  <PEOE_VSA6>
24.28

>  <PEOE_VSA7>
56.21

>  <PEOE_VSA8>
12.23

>  <PEOE_VSA9>
10.56

>  <PEOE_VSA10>
0

>  <PEOE_VSA11>
0

>  <PEOE_VSA12>
0

>  <PEOE_VSA13>
0

>  <SMR_VSA1>
0

>  <SMR_VSA2>
0

>  <SMR_VSA3>
4.9

>  <SMR_VSA4>
0

>  <SMR_VSA5>
6.42

>  <SMR_VSA6>
32.08

>  <SMR_VSA7>
46.15

>  <SMR_VSA8>
0

>  <SMR_VSA9>
0

>  <SlogP_VSA1>
4.9

>  <SlogP_VSA2>
32.08

>  <SlogP_VSA3>
0

>  <SlogP_VSA4>
0

>  <SlogP_VSA5>
16.86

>  <SlogP_VSA6>
35.71

>  <SlogP_VSA7>
0

>  <SlogP_VSA8>
12.15

>  <SlogP_VSA9>
0

>  <SlogP_VSA10>
11.37

>  <SlogP_VSA11>
0

>  <EState_VSA1>
0

>  <EState_VSA2>
0

>  <EState_VSA3>
0

>  <EState_VSA4>
19.51

>  <EState_VSA5>
21.82

>  <EState_VSA6>
0

>  <EState_VSA7>
11.34

>  <EState_VSA8>
71.76

>  <EState_VSA9>
0

>  <EState_VSA10>
0

>  <VSA_EState1>
0

>  <VSA_EState2>
6.06

>  <VSA_EState3>
2.18

>  <VSA_EState4>
3.97

>  <VSA_EState5>
0

>  <VSA_EState6>
10.9

>  <VSA_EState7>
5.64

>  <VSA_EState8>
2.17

>  <VSA_EState9>
4.27

>  <apol>
46.83

>  <bpol>
25.94

>  <nRing>
3

>  <nHRing>
2

>  <naRing>
2

>  <naHRing>
1

>  <nARing 2>
1

>  <nAHRing 2>
1

>  <nFRing>
1

>  <nFHRing>
1

>  <nFaRing>
0

>  <nFaHRing>
0

>  <nFARing 2>
1

>  <nFAHRing 2>
1

>  <nRot>
4

>  <SLogP>
4.32

>  <SMR>
89.87

>  <TopoPSA(NO)>
6.48

>  <TopoPSA>
34.72

>  <JGI1>
0.14

>  <JGI2>
0.07

>  <JGI3>
0.04

>  <JGI4>
0.03

>  <JGI5>
0.02

>  <Diameter>
9

>  <Radius>
5

>  <TMWC10>
115.39

>  <TSRW10>
67.45

>  <MW>
284.13

>  <AMW>
7.1

>  <WPath>
777

>  <WPol>
32

>  <Zagreb1>
104

>  <Zagreb2>
122

>  <mZagreb2>
4.44

>  <yes>


>  <nAR-cont>
0.816016

>  <nHA-cont>
0.999629945

>  <MWHBN>
0.177976519

>  <MWHBN-cont>
0.984881349

>  <TPSA-cont>
0.75763284

>  <pka_cont>
0.97

>  <yes.1>


>  <BBB_SCORE>
5.293233649

>  <MMFF94 Energy>
60.137

$$$$
Compound 1328
Actelion Java MolfileCreator 2.0

  0  0  0  0  0  0              0 V3000
M  V30 BEGIN CTAB
M  V30 COUNTS 44 46 0 0 0
M  V30 BEGIN ATOM
M  V30 1 O 1.2694 -4.1303 1.6664 0
M  V30 2 C 0.8785 -3.04 1.2443 0
M  V30 3 C -0.0891 -2.2316 2.0437 0
M  V30 4 C 1.3118 -2.5365 -0.1041 0
M  V30 5 C -0.3738 -0.8654 1.8147 0
M  V30 6 C -0.7872 -2.9568 3.0356 0
M  V30 7 C 2.2078 -1.3455 0.0276 0
M  V30 8 N 0.3248 -0.0351 0.904 0
M  V30 9 C -1.3866 -0.2953 2.6239 0
M  V30 10 C -1.778 -2.358 3.8055 0
M  V30 11 C 1.682 -0.1451 0.5219 0
M  V30 12 C 3.5605 -1.429 -0.3408 0
M  V30 13 C -0.4202 1.0143 0.1612 0
M  V30 14 C -2.0807 -1.0239 3.5963 0
M  V30 15 C 2.5436 0.9598 0.6394 0
M  V30 16 C 4.3955 -0.3205 -0.2221 0
M  V30 17 C -1.3826 0.3822 -0.853 0
M  V30 18 C 3.8872 0.8759 0.2695 0
M  V30 19 C -2.2619 1.4229 -1.5576 0
M  V30 20 N -1.5176 2.4922 -2.2416 0
M  V30 21 C -2.4419 3.5352 -2.6973 0
M  V30 22 C -0.751 1.9839 -3.383 0
M  V30 23 H 1.8273 -3.3547 -0.6223 0
M  V30 24 H 0.433 -2.3095 -0.719 0
M  V30 25 H -0.562 -4.0094 3.2037 0
M  V30 26 H -1.6302 0.7604 2.5482 0
M  V30 27 H -2.3035 -2.9319 4.5639 0
M  V30 28 H 3.9707 -2.3638 -0.7169 0
M  V30 29 H 0.2653 1.6742 -0.3848 0
M  V30 30 H -0.9564 1.6809 0.8444 0
M  V30 31 H -2.8419 -0.5357 4.1998 0
M  V30 32 H 2.1707 1.8968 1.0462 0
M  V30 33 H 5.4421 -0.3941 -0.5051 0
M  V30 34 H -2.0481 -0.3295 -0.3497 0
M  V30 35 H -0.8179 -0.2053 -1.5862 0
M  V30 36 H 4.5346 1.742 0.3755 0
M  V30 37 H -2.9306 0.9082 -2.26 0
M  V30 38 H -2.9048 1.8729 -0.7892 0
M  V30 39 H -2.9835 3.9678 -1.8487 0
M  V30 40 H -3.1748 3.1526 -3.4169 0
M  V30 41 H -1.8926 4.3587 -3.1674 0
M  V30 42 H -1.3891 1.4791 -4.1171 0
M  V30 43 H 0.027 1.286 -3.0589 0
M  V30 44 H -0.2284 2.8036 -3.8894 0
M  V30 END ATOM
M  V30 BEGIN BOND
M  V30 1 2 1 2
M  V30 2 1 2 3
M  V30 3 1 2 4
M  V30 4 2 3 5
M  V30 5 1 3 6
M  V30 6 1 4 7
M  V30 7 1 5 8
M  V30 8 1 5 9
M  V30 9 2 6 10
M  V30 10 2 7 11
M  V30 11 1 7 12
M  V30 12 1 8 13
M  V30 13 2 9 14
M  V30 14 1 11 15
M  V30 15 2 12 16
M  V30 16 1 13 17
M  V30 17 2 15 18
M  V30 18 1 17 19
M  V30 19 1 19 20
M  V30 20 1 20 21
M  V30 21 1 20 22
M  V30 22 1 8 11
M  V30 23 1 10 14
M  V30 24 1 16 18
M  V30 25 1 4 23
M  V30 26 1 4 24
M  V30 27 1 6 25
M  V30 28 1 9 26
M  V30 29 1 10 27
M  V30 30 1 12 28
M  V30 31 1 13 29
M  V30 32 1 13 30
M  V30 33 1 14 31
M  V30 34 1 15 32
M  V30 35 1 16 33
M  V30 36 1 17 34
M  V30 37 1 17 35
M  V30 38 1 18 36
M  V30 39 1 19 37
M  V30 40 1 19 38
M  V30 41 1 21 39
M  V30 42 1 21 40
M  V30 43 1 21 41
M  V30 44 1 22 42
M  V30 45 1 22 43
M  V30 46 1 22 44
M  V30 END BOND
M  V30 END CTAB
M  END
>  <Column 1>
1585

>  <level_0>
1739

>  <index>
1739

>  <Unnamed: 0>
1739

>  <NO.>
1751

>  <Name>
ketipramine(ketimipramine)

>  <IUPAC_name>
11-[3-(dimethylamino)propyl]-6h-benzo[b][1]benzazepin-5-one

>  <SMILES>
CN(C)CCCN1c2ccccc2CC(=O)c2ccccc21

>  <CID>
28424

>  <logBB>


>  <BBB+/BBB->
BBB+

>  <Inchi>
InChI=1S/C19H22N2O/c1-20(2)12-7-13-21-17-10-5-3-8-15(17)14-19(22)16-9-4-6-11-18(16)21/h3-6-8-11H-7-12-14H2-1-2H3

>  <threshold>
-1

>  <reference>
R1|R13|R19|R6|R24|R27|R27|R27|R30|R30|

>  <group>
B

>  <Class>
1

>  <ABC>
17.1

>  <ABCGG>
13.88

>  <nAcid>
0

>  <nBase>
1

>  <nAromAtom>
12

>  <nAromBond>
12

>  <nAtom>
44

>  <nHeavyAtom>
22

>  <nSpiro>
0

>  <nBridgehead>
0

>  <nHetero>
3

>  <nN>
2

>  <nO>
1

>  <nF>
0

>  <BalabanJ>
1.76

>  <BertzCT>
678.64

>  <nBonds>
46

>  <nBondsO>
24

>  <nBondsS>
33

>  <nBondsD>
1

>  <nBondsT>
0

>  <nBondsA>
12

>  <nBondsM>
13

>  <nBondsKS>
39

>  <nBondsKD>
7

>  <RNCG>
0.24

>  <RPCG>
0.12

>  <FCSP3>
0.32

>  <SZ>
26.33

>  <Sm>
24.51

>  <Sv>
27.19

>  <Sse>
43.42

>  <Sp>
29.58

>  <Si>
49.36

>  <MZ>
0.6

>  <Mm>
0.56

>  <Mv>
0.62

>  <Mse>
0.99

>  <Mp>
0.67

>  <Mi>
1.12

>  <NsCH3>
2

>  <NdCH2>
0

>  <NssCH2>
4

>  <NtCH>
0

>  <NdsCH>
0

>  <NaaCH>
8

>  <NsssCH>
0

>  <NddC>
0

>  <NtsC>
0

>  <NdssC>
1

>  <NaasC>
4

>  <NaaaC>
0

>  <NssssC>
0

>  <NsNH3>
0

>  <NsNH2>
0

>  <NssNH2>
0

>  <NdNH>
0

>  <NssNH>
0

>  <NaaNH>
0

>  <NtN>
0

>  <NsssNH>
0

>  <NdsN>
0

>  <NaaN>
0

>  <NsssN>
2

>  <NddsN>
0

>  <NaasN>
0

>  <NssssN>
0

>  <NsOH>
0

>  <NdO>
1

>  <NssO>
0

>  <NaaO>
0

>  <NsF>
0

>  <NsSiH3>
0

>  <NssSiH2>
0

>  <NsssSiH>
0

>  <NssssSi>
0

>  <NsPH2>
0

>  <NssPH>
0

>  <NsssP>
0

>  <NdsssP>
0

>  <NsssssP>
0

>  <NsSH>
0

>  <NdS>
0

>  <NssS>
0

>  <NaaS>
0

>  <NdssS>
0

>  <NddssS>
0

>  <NsCl>
0

>  <NsBr>
0

>  <NsI>
0

>  <fragCpx>
114.03

>  <fMF>
0.34

>  <nHBAcc>
3

>  <nHBDon>
0

>  <Kier1>
16.84

>  <Kier2>
7.71

>  <Lipinski>
1

>  <GhoseFilter>
1

>  <FilterItLogS>
-4.8

>  <VMcGowan>
241.72

>  <LabuteASA>
131.72

>  <PEOE_VSA1>
9.8

>  <PEOE_VSA2>
4.79

>  <PEOE_VSA3>
0

>  <PEOE_VSA4>
0

>  <PEOE_VSA5>
0

>  <PEOE_VSA6>
30.33

>  <PEOE_VSA7>
50.82

>  <PEOE_VSA8>
24.22

>  <PEOE_VSA9>
5.69

>  <PEOE_VSA10>
0

>  <PEOE_VSA11>
5.78

>  <PEOE_VSA12>
0

>  <PEOE_VSA13>
0

>  <SMR_VSA1>
4.79

>  <SMR_VSA2>
0

>  <SMR_VSA3>
4.9

>  <SMR_VSA4>
0

>  <SMR_VSA5>
12.84

>  <SMR_VSA6>
32.08

>  <SMR_VSA7>
59.66

>  <SMR_VSA8>
0

>  <SMR_VSA9>
0

>  <SlogP_VSA1>
4.9

>  <SlogP_VSA2>
37.87

>  <SlogP_VSA3>
6.42

>  <SlogP_VSA4>
0

>  <SlogP_VSA5>
22.34

>  <SlogP_VSA6>
48.53

>  <SlogP_VSA7>
0

>  <SlogP_VSA8>
0

>  <SlogP_VSA9>
0

>  <SlogP_VSA10>
11.37

>  <SlogP_VSA11>
0

>  <EState_VSA1>
0

>  <EState_VSA2>
5.78

>  <EState_VSA3>
6.42

>  <EState_VSA4>
36.32

>  <EState_VSA5>
5.69

>  <EState_VSA6>
0

>  <EState_VSA7>
24.27

>  <EState_VSA8>
48.16

>  <EState_VSA9>
0

>  <EState_VSA10>
4.79

>  <VSA_EState1>
0

>  <VSA_EState2>
17.06

>  <VSA_EState3>
0

>  <VSA_EState4>
4.16

>  <VSA_EState5>
0.21

>  <VSA_EState6>
16.23

>  <VSA_EState7>
1.54

>  <VSA_EState8>
1.95

>  <VSA_EState9>
4.18

>  <apol>
49.4

>  <bpol>
26.36

>  <nRing>
3

>  <nHRing>
1

>  <naRing>
2

>  <naHRing>
0

>  <nARing 2>
1

>  <nAHRing 2>
1

>  <nFRing>
1

>  <nFHRing>
1

>  <nFaRing>
0

>  <nFaHRing>
0

>  <nFARing 2>
1

>  <nFAHRing 2>
1

>  <nRot>
4

>  <SLogP>
3.52

>  <SMR>
91.1

>  <TopoPSA(NO)>
23.55

>  <TopoPSA>
23.55

>  <JGI1>
0.15

>  <JGI2>
0.07

>  <JGI3>
0.05

>  <JGI4>
0.04

>  <JGI5>
0.02

>  <Diameter>
9

>  <Radius>
5

>  <TMWC10>
120.4

>  <TSRW10>
64.25

>  <MW>
294.17

>  <AMW>
6.69

>  <WPath>
981

>  <WPol>
38

>  <Zagreb1>
114

>  <Zagreb2>
134

>  <mZagreb2>
4.89

>  <yes>


>  <nAR-cont>
0.816016

>  <nHA-cont>
0.983774276

>  <MWHBN>
0.17491299

>  <MWHBN-cont>
0.981053642

>  <TPSA-cont>
0.835606376

>  <pka_cont>
0.97

>  <yes.1>


>  <BBB_SCORE>
5.427583491

>  <MMFF94 Energy>
88.748

$$$$
Compound 1329
Actelion Java MolfileCreator 2.0

  0  0  0  0  0  0              0 V3000
M  V30 BEGIN CTAB
M  V30 COUNTS 46 48 0 0 0
M  V30 BEGIN ATOM
M  V30 1 N -5.1644 0.1585 -2.7782 0
M  V30 2 C -4.3171 0.6196 -2.1323 0
M  V30 3 C -3.2748 1.1845 -1.3276 0
M  V30 4 C -2.0006 0.6077 -1.3276 0
M  V30 5 C -3.5257 2.3089 -0.5416 0
M  V30 6 C -0.9628 1.1359 -0.5441 0
M  V30 7 C -2.5009 2.8583 0.2273 0
M  V30 8 N 0.2985 0.503 -0.5348 0
M  V30 9 C -1.2202 2.2814 0.2236 0
M  V30 10 C 1.5583 1.0901 -0.8138 0
M  V30 11 C 0.3463 -0.7165 0.3151 0
M  V30 12 C -0.1085 2.9041 1.022 0
M  V30 13 C 1.8797 2.4424 -0.5717 0
M  V30 14 C 2.5503 0.2814 -1.4158 0
M  V30 15 C -0.0567 -1.9799 -0.4523 0
M  V30 16 C 0.9663 3.4538 0.0894 0
M  V30 17 C 3.1485 2.9335 -0.9621 0
M  V30 18 C 3.8045 0.7772 -1.7766 0
M  V30 19 C 0.3474 -3.2628 0.286 0
M  V30 20 C 4.1027 2.1103 -1.5529 0
M  V30 21 N -0.1877 -3.3672 1.6534 0
M  V30 22 C 0.4428 -4.4906 2.354 0
M  V30 23 C -1.6433 -3.5403 1.6619 0
M  V30 24 H -1.8016 -0.2518 -1.9634 0
M  V30 25 H -4.5114 2.7699 -0.5299 0
M  V30 26 H -2.7028 3.7453 0.8244 0
M  V30 27 H -0.3077 -0.5869 1.1888 0
M  V30 28 H 1.3522 -0.8495 0.7367 0
M  V30 29 H 0.3011 2.1775 1.7344 0
M  V30 30 H -0.5075 3.7306 1.6237 0
M  V30 31 H 2.3371 -0.759 -1.6432 0
M  V30 32 H 0.4165 -1.9907 -1.441 0
M  V30 33 H -1.1352 -1.9865 -0.6381 0
M  V30 34 H 1.5906 4.1223 0.698 0
M  V30 35 H 0.5132 4.0719 -0.6971 0
M  V30 36 H 3.4 3.9798 -0.7946 0
M  V30 37 H 4.5342 0.123 -2.2449 0
M  V30 38 H 0.0478 -4.1323 -0.3138 0
M  V30 39 H 1.4448 -3.2781 0.3279 0
M  V30 40 H 5.0706 2.5124 -1.8385 0
M  V30 41 H 1.528 -4.3494 2.41 0
M  V30 42 H 0.2431 -5.4493 1.8617 0
M  V30 43 H 0.0839 -4.5508 3.3877 0
M  V30 44 H -1.9577 -4.425 1.0967 0
M  V30 45 H -2.1496 -2.6633 1.2465 0
M  V30 46 H -2.0116 -3.6417 2.6894 0
M  V30 END ATOM
M  V30 BEGIN BOND
M  V30 1 3 1 2
M  V30 2 1 2 3
M  V30 3 2 3 4
M  V30 4 1 3 5
M  V30 5 1 4 6
M  V30 6 2 5 7
M  V30 7 1 6 8
M  V30 8 2 6 9
M  V30 9 1 8 10
M  V30 10 1 8 11
M  V30 11 1 9 12
M  V30 12 2 10 13
M  V30 13 1 10 14
M  V30 14 1 11 15
M  V30 15 1 12 16
M  V30 16 1 13 17
M  V30 17 2 14 18
M  V30 18 1 15 19
M  V30 19 2 17 20
M  V30 20 1 19 21
M  V30 21 1 21 22
M  V30 22 1 21 23
M  V30 23 1 7 9
M  V30 24 1 13 16
M  V30 25 1 18 20
M  V30 26 1 4 24
M  V30 27 1 5 25
M  V30 28 1 7 26
M  V30 29 1 11 27
M  V30 30 1 11 28
M  V30 31 1 12 29
M  V30 32 1 12 30
M  V30 33 1 14 31
M  V30 34 1 15 32
M  V30 35 1 15 33
M  V30 36 1 16 34
M  V30 37 1 16 35
M  V30 38 1 17 36
M  V30 39 1 18 37
M  V30 40 1 19 38
M  V30 41 1 19 39
M  V30 42 1 20 40
M  V30 43 1 22 41
M  V30 44 1 22 42
M  V30 45 1 22 43
M  V30 46 1 23 44
M  V30 47 1 23 45
M  V30 48 1 23 46
M  V30 END BOND
M  V30 END CTAB
M  END
>  <Column 1>
1586

>  <level_0>
1740

>  <index>
1740

>  <Unnamed: 0>
1740

>  <NO.>
1752

>  <Name>
cianopramine

>  <IUPAC_name>
11-[3-(dimethylamino)propyl]-5-6-dihydrobenzo[b][1]benzazepine-2-carbonitrile

>  <SMILES>
CN(C)CCCN1c2ccccc2CCc2ccc(C#N)cc21

>  <CID>
48126

>  <logBB>


>  <BBB+/BBB->
BBB+

>  <Inchi>
InChI=1S/C20H23N3/c1-22(2)12-5-13-23-19-7-4-3-6-17(19)10-11-18-9-8-16(15-21)14-20(18)23/h3-4-6-9-14H-5-10-13H2-1-2H3

>  <threshold>
-1

>  <reference>
R1|R13|R19|R6|R24|R27|R27|R27|R30|R30|

>  <group>
B

>  <Class>
1

>  <ABC>
17.73

>  <ABCGG>
14.26

>  <nAcid>
0

>  <nBase>
1

>  <nAromAtom>
12

>  <nAromBond>
12

>  <nAtom>
46

>  <nHeavyAtom>
23

>  <nSpiro>
0

>  <nBridgehead>
0

>  <nHetero>
3

>  <nN>
3

>  <nO>
0

>  <nF>
0

>  <BalabanJ>
1.73

>  <BertzCT>
727.91

>  <nBonds>
48

>  <nBondsO>
25

>  <nBondsS>
35

>  <nBondsD>
0

>  <nBondsT>
1

>  <nBondsA>
12

>  <nBondsM>
13

>  <nBondsKS>
41

>  <nBondsKD>
6

>  <RNCG>
0.26

>  <RPCG>
0.08

>  <FCSP3>
0.35

>  <SZ>
27.33

>  <Sm>
25.43

>  <Sv>
28.5

>  <Sse>
45.2

>  <Sp>
31.16

>  <Si>
51.65

>  <MZ>
0.59

>  <Mm>
0.55

>  <Mv>
0.62

>  <Mse>
0.98

>  <Mp>
0.68

>  <Mi>
1.12

>  <NsCH3>
2

>  <NdCH2>
0

>  <NssCH2>
5

>  <NtCH>
0

>  <NdsCH>
0

>  <NaaCH>
7

>  <NsssCH>
0

>  <NddC>
0

>  <NtsC>
1

>  <NdssC>
0

>  <NaasC>
5

>  <NaaaC>
0

>  <NssssC>
0

>  <NsNH3>
0

>  <NsNH2>
0

>  <NssNH2>
0

>  <NdNH>
0

>  <NssNH>
0

>  <NaaNH>
0

>  <NtN>
1

>  <NsssNH>
0

>  <NdsN>
0

>  <NaaN>
0

>  <NsssN>
2

>  <NddsN>
0

>  <NaasN>
0

>  <NssssN>
0

>  <NsOH>
0

>  <NdO>
0

>  <NssO>
0

>  <NaaO>
0

>  <NsF>
0

>  <NsSiH3>
0

>  <NssSiH2>
0

>  <NsssSiH>
0

>  <NssssSi>
0

>  <NsPH2>
0

>  <NssPH>
0

>  <NsssP>
0

>  <NdsssP>
0

>  <NsssssP>
0

>  <NsSH>
0

>  <NdS>
0

>  <NssS>
0

>  <NaaS>
0

>  <NdssS>
0

>  <NddssS>
0

>  <NsCl>
0

>  <NsBr>
0

>  <NsI>
0

>  <fragCpx>
119.03

>  <fMF>
0.33

>  <nHBAcc>
3

>  <nHBDon>
0

>  <Kier1>
17.81

>  <Kier2>
8.39

>  <Lipinski>
1

>  <GhoseFilter>
1

>  <FilterItLogS>
-5.14

>  <VMcGowan>
255.62

>  <LabuteASA>
138.31

>  <PEOE_VSA1>
9.8

>  <PEOE_VSA2>
0

>  <PEOE_VSA3>
0

>  <PEOE_VSA4>
5.26

>  <PEOE_VSA5>
0

>  <PEOE_VSA6>
24.27

>  <PEOE_VSA7>
69.23

>  <PEOE_VSA8>
17.92

>  <PEOE_VSA9>
11.63

>  <PEOE_VSA10>
0

>  <PEOE_VSA11>
0

>  <PEOE_VSA12>
0

>  <PEOE_VSA13>
0

>  <SMR_VSA1>
0

>  <SMR_VSA2>
5.26

>  <SMR_VSA3>
4.9

>  <SMR_VSA4>
0

>  <SMR_VSA5>
19.26

>  <SMR_VSA6>
32.08

>  <SMR_VSA7>
59.15

>  <SMR_VSA8>
0

>  <SMR_VSA9>
6.07

>  <SlogP_VSA1>
4.9

>  <SlogP_VSA2>
32.08

>  <SlogP_VSA3>
12.84

>  <SlogP_VSA4>
11.33

>  <SlogP_VSA5>
23.11

>  <SlogP_VSA6>
42.46

>  <SlogP_VSA7>
0

>  <SlogP_VSA8>
0

>  <SlogP_VSA9>
0

>  <SlogP_VSA10>
11.37

>  <SlogP_VSA11>
0

>  <EState_VSA1>
0

>  <EState_VSA2>
0

>  <EState_VSA3>
0

>  <EState_VSA4>
37.92

>  <EState_VSA5>
22.5

>  <EState_VSA6>
0

>  <EState_VSA7>
12.13

>  <EState_VSA8>
60.3

>  <EState_VSA9>
0

>  <EState_VSA10>
5.26

>  <VSA_EState1>
0

>  <VSA_EState2>
4.62

>  <VSA_EState3>
9.26

>  <VSA_EState4>
5.96

>  <VSA_EState5>
0

>  <VSA_EState6>
17.05

>  <VSA_EState7>
3.18

>  <VSA_EState8>
2.03

>  <VSA_EState9>
4.22

>  <apol>
52.04

>  <bpol>
27.06

>  <nRing>
3

>  <nHRing>
1

>  <naRing>
2

>  <naHRing>
0

>  <nARing 2>
1

>  <nAHRing 2>
1

>  <nFRing>
1

>  <nFHRing>
1

>  <nFaRing>
0

>  <nFaHRing>
0

>  <nFARing 2>
1

>  <nFAHRing 2>
1

>  <nRot>
4

>  <SLogP>
3.75

>  <SMR>
95.18

>  <TopoPSA(NO)>
30.27

>  <TopoPSA>
30.27

>  <JGI1>
0.16

>  <JGI2>
0.07

>  <JGI3>
0.04

>  <JGI4>
0.04

>  <JGI5>
0.02

>  <Diameter>
10

>  <Radius>
5

>  <TMWC10>
122.5

>  <TSRW10>
65.29

>  <MW>
305.19

>  <AMW>
6.63

>  <WPath>
1130

>  <WPol>
39

>  <Zagreb1>
118

>  <Zagreb2>
138

>  <mZagreb2>
5.19

>  <yes>


>  <nAR-cont>
0.816016

>  <nHA-cont>
0.967789328

>  <MWHBN>
0.17172602

>  <MWHBN-cont>
0.976590075

>  <TPSA-cont>
0.788696603

>  <pka_cont>
0.97

>  <yes.1>


>  <BBB_SCORE>
5.311083647

>  <MMFF94 Energy>
72.85

$$$$
Compound 1330
Actelion Java MolfileCreator 2.0

  0  0  0  0  0  0              0 V3000
M  V30 BEGIN CTAB
M  V30 COUNTS 39 41 0 0 0
M  V30 BEGIN ATOM
M  V30 1 S -2.0944 -2.2556 2.0944 0
M  V30 2 C -1.8943 -2.158 0.3377 0
M  V30 3 C -1.6941 -0.6017 2.6163 0
M  V30 4 C -1.5179 -0.9985 -0.3543 0
M  V30 5 C -2.1337 -3.3379 -0.3852 0
M  V30 6 C -1.3306 0.4334 1.7286 0
M  V30 7 C -1.7649 -0.378 4.0064 0
M  V30 8 N -1.386 -1.0326 -1.7117 0
M  V30 9 N -1.259 0.222 0.3282 0
M  V30 10 C -1.9981 -3.355 -1.7647 0
M  V30 11 C -1.0487 1.686 2.3196 0
M  V30 12 C -1.4788 0.8692 4.548 0
M  V30 13 C -1.6242 -2.1823 -2.3786 0
M  V30 14 C -0.8791 1.3424 -0.5596 0
M  V30 15 C -1.1195 1.9037 3.7016 0
M  V30 16 C 0.6363 1.5941 -0.6087 0
M  V30 17 C 1.4156 0.4758 -1.311 0
M  V30 18 N 2.8663 0.7549 -1.3809 0
M  V30 19 C 3.1765 1.798 -2.3611 0
M  V30 20 C 3.5877 -0.473 -1.7299 0
M  V30 21 H -2.4273 -4.2501 0.1294 0
M  V30 22 H -2.0462 -1.1861 4.679 0
M  V30 23 H -2.1794 -4.2563 -2.3382 0
M  V30 24 H -0.7545 2.5435 1.723 0
M  V30 25 H -1.5355 1.0283 5.6212 0
M  V30 26 H -1.5002 -2.1263 -3.4562 0
M  V30 27 H -1.3874 2.26 -0.2363 0
M  V30 28 H -1.2557 1.2272 -1.584 0
M  V30 29 H -0.8893 2.8858 4.1072 0
M  V30 30 H 1.0411 1.733 0.4001 0
M  V30 31 H 0.7837 2.5419 -1.1385 0
M  V30 32 H 1.2701 -0.4431 -0.7307 0
M  V30 33 H 1.0105 0.296 -2.3148 0
M  V30 34 H 2.7404 2.7593 -2.0734 0
M  V30 35 H 2.8209 1.5413 -3.3656 0
M  V30 36 H 4.2589 1.9638 -2.4145 0
M  V30 37 H 3.2813 -0.8695 -2.7048 0
M  V30 38 H 3.4206 -1.2476 -0.9728 0
M  V30 39 H 4.6683 -0.292 -1.7539 0
M  V30 END ATOM
M  V30 BEGIN BOND
M  V30 1 1 1 2
M  V30 2 1 1 3
M  V30 3 2 2 4
M  V30 4 1 2 5
M  V30 5 2 3 6
M  V30 6 1 3 7
M  V30 7 1 4 8
M  V30 8 1 4 9
M  V30 9 2 5 10
M  V30 10 1 6 11
M  V30 11 2 7 12
M  V30 12 2 8 13
M  V30 13 1 9 14
M  V30 14 2 11 15
M  V30 15 1 14 16
M  V30 16 1 16 17
M  V30 17 1 17 18
M  V30 18 1 18 19
M  V30 19 1 18 20
M  V30 20 1 6 9
M  V30 21 1 10 13
M  V30 22 1 12 15
M  V30 23 1 5 21
M  V30 24 1 7 22
M  V30 25 1 10 23
M  V30 26 1 11 24
M  V30 27 1 12 25
M  V30 28 1 13 26
M  V30 29 1 14 27
M  V30 30 1 14 28
M  V30 31 1 15 29
M  V30 32 1 16 30
M  V30 33 1 16 31
M  V30 34 1 17 32
M  V30 35 1 17 33
M  V30 36 1 19 34
M  V30 37 1 19 35
M  V30 38 1 19 36
M  V30 39 1 20 37
M  V30 40 1 20 38
M  V30 41 1 20 39
M  V30 END BOND
M  V30 END CTAB
M  END
>  <Column 1>
1587

>  <level_0>
1741

>  <index>
1741

>  <Unnamed: 0>
1741

>  <NO.>
1753

>  <Name>
prothipendyl

>  <IUPAC_name>
n-n-dimethyl-3-pyrido[3-2-b][1-4]benzothiazin-10-ylpropan-1-amine

>  <SMILES>
CN(C)CCCN1c2ccccc2Sc2cccnc21

>  <CID>
14670

>  <logBB>


>  <BBB+/BBB->
BBB+

>  <Inchi>
InChI=1S/C16H19N3S/c1-18(2)11-6-12-19-13-7-3-4-8-14(13)20-15-9-5-10-17-16(15)19/h3-5-7-10H-6-11-12H2-1-2H3

>  <threshold>
-1

>  <reference>
R1|R13|R19|R6|R24|R27|R27|R27|R30|R30|

>  <group>
B

>  <Class>
1

>  <ABC>
15.61

>  <ABCGG>
12.33

>  <nAcid>
0

>  <nBase>
1

>  <nAromAtom>
12

>  <nAromBond>
12

>  <nAtom>
39

>  <nHeavyAtom>
20

>  <nSpiro>
0

>  <nBridgehead>
0

>  <nHetero>
4

>  <nN>
3

>  <nO>
0

>  <nF>
0

>  <BalabanJ>
1.66

>  <BertzCT>
552.28

>  <nBonds>
41

>  <nBondsO>
22

>  <nBondsS>
29

>  <nBondsD>
0

>  <nBondsT>
0

>  <nBondsA>
12

>  <nBondsM>
12

>  <nBondsKS>
35

>  <nBondsKD>
6

>  <RNCG>
0.25

>  <RPCG>
0.11

>  <FCSP3>
0.31

>  <SZ>
25.33

>  <Sm>
23.76

>  <Sv>
24.61

>  <Sse>
38.5

>  <Sp>
27.3

>  <Si>
43.74

>  <MZ>
0.65

>  <Mm>
0.61

>  <Mv>
0.63

>  <Mse>
0.99

>  <Mp>
0.7

>  <Mi>
1.12

>  <NsCH3>
2

>  <NdCH2>
0

>  <NssCH2>
3

>  <NtCH>
0

>  <NdsCH>
0

>  <NaaCH>
7

>  <NsssCH>
0

>  <NddC>
0

>  <NtsC>
0

>  <NdssC>
0

>  <NaasC>
4

>  <NaaaC>
0

>  <NssssC>
0

>  <NsNH3>
0

>  <NsNH2>
0

>  <NssNH2>
0

>  <NdNH>
0

>  <NssNH>
0

>  <NaaNH>
0

>  <NtN>
0

>  <NsssNH>
0

>  <NdsN>
0

>  <NaaN>
1

>  <NsssN>
2

>  <NddsN>
0

>  <NaasN>
0

>  <NssssN>
0

>  <NsOH>
0

>  <NdO>
0

>  <NssO>
0

>  <NaaO>
0

>  <NsF>
0

>  <NsSiH3>
0

>  <NssSiH2>
0

>  <NsssSiH>
0

>  <NssssSi>
0

>  <NsPH2>
0

>  <NssPH>
0

>  <NsssP>
0

>  <NdsssP>
0

>  <NsssssP>
0

>  <NsSH>
0

>  <NdS>
0

>  <NssS>
1

>  <NaaS>
0

>  <NdssS>
0

>  <NddssS>
0

>  <NsCl>
0

>  <NsBr>
0

>  <NsI>
0

>  <fragCpx>
104.04

>  <fMF>
0.36

>  <nHBAcc>
4

>  <nHBDon>
0

>  <Kier1>
14.92

>  <Kier2>
6.84

>  <Lipinski>
1

>  <GhoseFilter>
1

>  <FilterItLogS>
-4.24

>  <VMcGowan>
224.21

>  <LabuteASA>
124.17

>  <PEOE_VSA1>
9.8

>  <PEOE_VSA2>
0

>  <PEOE_VSA3>
4.98

>  <PEOE_VSA4>
0

>  <PEOE_VSA5>
0

>  <PEOE_VSA6>
23.89

>  <PEOE_VSA7>
51.33

>  <PEOE_VSA8>
17.64

>  <PEOE_VSA9>
10.58

>  <PEOE_VSA10>
5.82

>  <PEOE_VSA11>
0

>  <PEOE_VSA12>
0

>  <PEOE_VSA13>
0

>  <SMR_VSA1>
0

>  <SMR_VSA2>
0

>  <SMR_VSA3>
9.88

>  <SMR_VSA4>
0

>  <SMR_VSA5>
16.21

>  <SMR_VSA6>
32.08

>  <SMR_VSA7>
42.6

>  <SMR_VSA8>
0

>  <SMR_VSA9>
0

>  <SlogP_VSA1>
4.9

>  <SlogP_VSA2>
37.07

>  <SlogP_VSA3>
0

>  <SlogP_VSA4>
0

>  <SlogP_VSA5>
6.42

>  <SlogP_VSA6>
52.39

>  <SlogP_VSA7>
0

>  <SlogP_VSA8>
0

>  <SlogP_VSA9>
0

>  <SlogP_VSA10>
11.51

>  <SlogP_VSA11>
0

>  <EState_VSA1>
0

>  <EState_VSA2>
0

>  <EState_VSA3>
0

>  <EState_VSA4>
25.33

>  <EState_VSA5>
15.48

>  <EState_VSA6>
0

>  <EState_VSA7>
24.03

>  <EState_VSA8>
59.21

>  <EState_VSA9>
0

>  <EState_VSA10>
0

>  <VSA_EState1>
0

>  <VSA_EState2>
11.73

>  <VSA_EState3>
0

>  <VSA_EState4>
1.28

>  <VSA_EState5>
1.09

>  <VSA_EState6>
12.75

>  <VSA_EState7>
3.01

>  <VSA_EState8>
2.09

>  <VSA_EState9>
4.23

>  <apol>
45.59

>  <bpol>
26.08

>  <nRing>
3

>  <nHRing>
2

>  <naRing>
2

>  <naHRing>
1

>  <nARing 2>
1

>  <nAHRing 2>
1

>  <nFRing>
1

>  <nFHRing>
1

>  <nFaRing>
0

>  <nFaHRing>
0

>  <nFARing 2>
1

>  <nFAHRing 2>
1

>  <nRot>
4

>  <SLogP>
3.64

>  <SMR>
84.98

>  <TopoPSA(NO)>
19.37

>  <TopoPSA>
44.67

>  <JGI1>
0.14

>  <JGI2>
0.07

>  <JGI3>
0.04

>  <JGI4>
0.04

>  <JGI5>
0.02

>  <Diameter>
9

>  <Radius>
5

>  <TMWC10>
115.53

>  <TSRW10>
53.75

>  <MW>
285.13

>  <AMW>
7.31

>  <WPath>
789

>  <WPol>
31

>  <Zagreb1>
104

>  <Zagreb2>
122

>  <mZagreb2>
4.44

>  <yes>


>  <nAR-cont>
0.816016

>  <nHA-cont>
0.999629945

>  <MWHBN>
0.236885531

>  <MWHBN-cont>
0.979018439

>  <TPSA-cont>
0.688175662

>  <pka_cont>
0.97

>  <yes.1>


>  <BBB_SCORE>
5.145524927

>  <MMFF94 Energy>
56.004

$$$$
Compound 1331
Actelion Java MolfileCreator 2.0

  0  0  0  0  0  0              0 V3000
M  V30 BEGIN CTAB
M  V30 COUNTS 41 43 0 0 0
M  V30 BEGIN ATOM
M  V30 1 O -2.1449 -0.6351 -0.7145 0
M  V30 2 C -0.9619 -0.9444 -0.8595 0
M  V30 3 N 0.0509 -0.5176 0.0041 0
M  V30 4 C -0.5942 -1.8181 -1.9986 0
M  V30 5 C 1.433 -0.7999 -0.242 0
M  V30 6 C -0.3665 0.2761 1.166 0
M  V30 7 C 0.7458 -2.1608 -2.2249 0
M  V30 8 C -1.6239 -2.2987 -2.8291 0
M  V30 9 C 1.7951 -1.618 -1.3371 0
M  V30 10 C 2.4433 -0.2646 0.5812 0
M  V30 11 C -0.3856 1.775 0.8533 0
M  V30 12 C 1.008 -3.0155 -3.3161 0
M  V30 13 C -1.3334 -3.1358 -3.9004 0
M  V30 14 C 3.1684 -1.874 -1.5468 0
M  V30 15 C 3.7912 -0.5359 0.3497 0
M  V30 16 C -0.6238 2.6406 2.0969 0
M  V30 17 C -0.0154 -3.4959 -4.1423 0
M  V30 18 C 4.1543 -1.3434 -0.7138 0
M  V30 19 N -1.8277 2.2997 2.8697 0
M  V30 20 C -3.0565 2.5302 2.1042 0
M  V30 21 C -1.8673 3.0757 4.112 0
M  V30 22 H -1.3745 -0.0427 1.459 0
M  V30 23 H 0.2618 0.0417 2.0313 0
M  V30 24 H -2.6583 -2.0205 -2.6348 0
M  V30 25 H 2.2156 0.3849 1.4197 0
M  V30 26 H -1.1411 1.9864 0.0871 0
M  V30 27 H 0.5722 2.0757 0.4111 0
M  V30 28 H 2.0175 -3.3353 -3.5559 0
M  V30 29 H -2.1322 -3.5055 -4.5376 0
M  V30 30 H 3.5097 -2.4916 -2.3718 0
M  V30 31 H 4.5519 -0.1124 1.0002 0
M  V30 32 H 0.2554 2.5212 2.744 0
M  V30 33 H -0.6461 3.6959 1.7942 0
M  V30 34 H 0.2238 -4.153 -4.9751 0
M  V30 35 H 5.2025 -1.5597 -0.9037 0
M  V30 36 H -3.1099 1.875 1.2293 0
M  V30 37 H -3.1434 3.5696 1.7675 0
M  V30 38 H -3.9372 2.2925 2.7122 0
M  V30 39 H -1.9168 4.1545 3.9244 0
M  V30 40 H -0.9809 2.8713 4.7228 0
M  V30 41 H -2.7347 2.79 4.7178 0
M  V30 END ATOM
M  V30 BEGIN BOND
M  V30 1 2 1 2
M  V30 2 1 2 3
M  V30 3 1 2 4
M  V30 4 1 3 5
M  V30 5 1 3 6
M  V30 6 2 4 7
M  V30 7 1 4 8
M  V30 8 2 5 9
M  V30 9 1 5 10
M  V30 10 1 6 11
M  V30 11 1 7 12
M  V30 12 2 8 13
M  V30 13 1 9 14
M  V30 14 2 10 15
M  V30 15 1 11 16
M  V30 16 2 12 17
M  V30 17 2 14 18
M  V30 18 1 16 19
M  V30 19 1 19 20
M  V30 20 1 19 21
M  V30 21 1 7 9
M  V30 22 1 13 17
M  V30 23 1 15 18
M  V30 24 1 6 22
M  V30 25 1 6 23
M  V30 26 1 8 24
M  V30 27 1 10 25
M  V30 28 1 11 26
M  V30 29 1 11 27
M  V30 30 1 12 28
M  V30 31 1 13 29
M  V30 32 1 14 30
M  V30 33 1 15 31
M  V30 34 1 16 32
M  V30 35 1 16 33
M  V30 36 1 17 34
M  V30 37 1 18 35
M  V30 38 1 20 36
M  V30 39 1 20 37
M  V30 40 1 20 38
M  V30 41 1 21 39
M  V30 42 1 21 40
M  V30 43 1 21 41
M  V30 END BOND
M  V30 END CTAB
M  END
>  <Column 1>
1588

>  <level_0>
1742

>  <index>
1742

>  <Unnamed: 0>
1742

>  <NO.>
1754

>  <Name>
fantridone

>  <IUPAC_name>
5-[3-(dimethylamino)propyl]phenanthridin-6-one

>  <SMILES>
CN(C)CCCn1c(=O)c2ccccc2c2ccccc21

>  <CID>
28692

>  <logBB>


>  <BBB+/BBB->
BBB+

>  <Inchi>
InChI=1S/C18H20N2O/c1-19(2)12-7-13-20-17-11-6-5-9-15(17)14-8-3-4-10-16(14)18(20)21/h3-6-8-11H-7-12-13H2-1-2H3

>  <threshold>
-1

>  <reference>
R1|R13|R19|R6|R24|R27|R27|R27|R30|R30|

>  <group>
B

>  <Class>
1

>  <ABC>
16.35

>  <ABCGG>
13.11

>  <nAcid>
0

>  <nBase>
1

>  <nAromAtom>
14

>  <nAromBond>
16

>  <nAtom>
41

>  <nHeavyAtom>
21

>  <nSpiro>
0

>  <nBridgehead>
0

>  <nHetero>
3

>  <nN>
2

>  <nO>
1

>  <nF>
0

>  <BalabanJ>
1.7

>  <BertzCT>
833.36

>  <nBonds>
43

>  <nBondsO>
23

>  <nBondsS>
26

>  <nBondsD>
1

>  <nBondsT>
0

>  <nBondsA>
16

>  <nBondsM>
17

>  <nBondsKS>
36

>  <nBondsKD>
7

>  <RNCG>
0.22

>  <RPCG>
0.19

>  <FCSP3>
0.28

>  <SZ>
25

>  <Sm>
23.34

>  <Sv>
25.65

>  <Sse>
40.54

>  <Sp>
27.78

>  <Si>
45.94

>  <MZ>
0.61

>  <Mm>
0.57

>  <Mv>
0.63

>  <Mse>
0.99

>  <Mp>
0.68

>  <Mi>
1.12

>  <NsCH3>
2

>  <NdCH2>
0

>  <NssCH2>
3

>  <NtCH>
0

>  <NdsCH>
0

>  <NaaCH>
8

>  <NsssCH>
0

>  <NddC>
0

>  <NtsC>
0

>  <NdssC>
0

>  <NaasC>
0

>  <NaaaC>
4

>  <NssssC>
0

>  <NsNH3>
0

>  <NsNH2>
0

>  <NssNH2>
0

>  <NdNH>
0

>  <NssNH>
0

>  <NaaNH>
0

>  <NtN>
0

>  <NsssNH>
0

>  <NdsN>
0

>  <NaaN>
0

>  <NsssN>
1

>  <NddsN>
0

>  <NaasN>
1

>  <NssssN>
0

>  <NsOH>
0

>  <NdO>
1

>  <NssO>
0

>  <NaaO>
0

>  <NsF>
0

>  <NsSiH3>
0

>  <NssSiH2>
0

>  <NsssSiH>
0

>  <NssssSi>
0

>  <NsPH2>
0

>  <NssPH>
0

>  <NsssP>
0

>  <NdsssP>
0

>  <NsssssP>
0

>  <NsSH>
0

>  <NdS>
0

>  <NssS>
0

>  <NaaS>
0

>  <NdssS>
0

>  <NddssS>
0

>  <NsCl>
0

>  <NsBr>
0

>  <NsI>
0

>  <fragCpx>
109.03

>  <fMF>
0.34

>  <nHBAcc>
3

>  <nHBDon>
0

>  <Kier1>
15.88

>  <Kier2>
7.05

>  <Lipinski>
1

>  <GhoseFilter>
1

>  <FilterItLogS>
-4.57

>  <VMcGowan>
227.63

>  <LabuteASA>
123.97

>  <PEOE_VSA1>
9.47

>  <PEOE_VSA2>
4.79

>  <PEOE_VSA3>
0

>  <PEOE_VSA4>
0

>  <PEOE_VSA5>
0

>  <PEOE_VSA6>
36.4

>  <PEOE_VSA7>
44.58

>  <PEOE_VSA8>
17.32

>  <PEOE_VSA9>
5.52

>  <PEOE_VSA10>
0

>  <PEOE_VSA11>
0

>  <PEOE_VSA12>
0

>  <PEOE_VSA13>
5.56

>  <SMR_VSA1>
0

>  <SMR_VSA2>
0

>  <SMR_VSA3>
9.47

>  <SMR_VSA4>
0

>  <SMR_VSA5>
12.97

>  <SMR_VSA6>
20.64

>  <SMR_VSA7>
58.88

>  <SMR_VSA8>
0

>  <SMR_VSA9>
0

>  <SlogP_VSA1>
5.56

>  <SlogP_VSA2>
30.11

>  <SlogP_VSA3>
6.54

>  <SlogP_VSA4>
0

>  <SlogP_VSA5>
6.42

>  <SlogP_VSA6>
53.33

>  <SlogP_VSA7>
0

>  <SlogP_VSA8>
21.68

>  <SlogP_VSA9>
0

>  <SlogP_VSA10>
0

>  <SlogP_VSA11>
0

>  <EState_VSA1>
0

>  <EState_VSA2>
5.56

>  <EState_VSA3>
0

>  <EState_VSA4>
41.19

>  <EState_VSA5>
0

>  <EState_VSA6>
0

>  <EState_VSA7>
47.03

>  <EState_VSA8>
25.06

>  <EState_VSA9>
0

>  <EState_VSA10>
4.79

>  <VSA_EState1>
1.92

>  <VSA_EState2>
14.91

>  <VSA_EState3>
3

>  <VSA_EState4>
1.14

>  <VSA_EState5>
0

>  <VSA_EState6>
16.05

>  <VSA_EState7>
0.97

>  <VSA_EState8>
1.73

>  <VSA_EState9>
4.11

>  <apol>
46.4

>  <bpol>
24.35

>  <nRing>
3

>  <nHRing>
1

>  <naRing>
3

>  <naHRing>
1

>  <nARing 2>
0

>  <nAHRing 2>
0

>  <nFRing>
1

>  <nFHRing>
1

>  <nFaRing>
1

>  <nFaHRing>
1

>  <nFARing 2>
0

>  <nFAHRing 2>
0

>  <nRot>
4

>  <SLogP>
3.11

>  <SMR>
88.89

>  <TopoPSA(NO)>
25.24

>  <TopoPSA>
25.24

>  <JGI1>
0.13

>  <JGI2>
0.08

>  <JGI3>
0.05

>  <JGI4>
0.04

>  <JGI5>
0.02

>  <Diameter>
10

>  <Radius>
5

>  <TMWC10>
118.56

>  <TSRW10>
55.16

>  <MW>
280.16

>  <AMW>
6.83

>  <WPath>
888

>  <WPol>
35

>  <Zagreb1>
110

>  <Zagreb2>
131

>  <mZagreb2>
4.67

>  <yes>


>  <nAR-cont>
0.336376

>  <nHA-cont>
0.994529749

>  <MWHBN>
0.179233089

>  <MWHBN-cont>
0.986321621

>  <TPSA-cont>
0.823809127

>  <pka_cont>
0.97

>  <yes.1>


>  <BBB_SCORE>
4.943006435

>  <MMFF94 Energy>
55.54

$$$$
Compound 1332
Actelion Java MolfileCreator 2.0

  0  0  0  0  0  0              0 V3000
M  V30 BEGIN CTAB
M  V30 COUNTS 43 45 0 0 0
M  V30 BEGIN ATOM
M  V30 1 Cl 3.1978 2.3176 4.3189 0
M  V30 2 C 2.0027 1.6907 3.2482 0
M  V30 3 C 1.8268 2.2843 1.9959 0
M  V30 4 C 1.2285 0.5868 3.6542 0
M  V30 5 C 0.8505 1.7517 1.1755 0
M  V30 6 C 0.2591 0.0445 2.8046 0
M  V30 7 N 0.4481 2.0977 -0.1265 0
M  V30 8 C 0.093 0.6422 1.5712 0
M  V30 9 C 0.9863 3.1543 -0.8709 0
M  V30 10 C -0.5387 1.1783 -0.5712 0
M  V30 11 N -0.7638 0.2982 0.5171 0
M  V30 12 C 1.4778 2.9183 -2.159 0
M  V30 13 C 1.0095 4.4565 -0.3564 0
M  V30 14 O -1.0952 1.129 -1.658 0
M  V30 15 C -1.668 -0.8242 0.4885 0
M  V30 16 C 2.0121 3.9656 -2.9125 0
M  V30 17 C 1.5443 5.5031 -1.1109 0
M  V30 18 C -0.9589 -2.122 0.1006 0
M  V30 19 C 2.0488 5.2562 -2.3867 0
M  V30 20 C -1.9596 -3.2793 0.0066 0
M  V30 21 N -1.3106 -4.5869 -0.1888 0
M  V30 22 C -0.6612 -4.6898 -1.4984 0
M  V30 23 C -2.298 -5.6615 -0.0466 0
M  V30 24 H 2.4441 3.1188 1.6858 0
M  V30 25 H 1.3903 0.1416 4.6337 0
M  V30 26 H -0.3237 -0.8161 3.1109 0
M  V30 27 H 1.4467 1.9183 -2.5853 0
M  V30 28 H 0.5951 4.6711 0.625 0
M  V30 29 H -2.1545 -0.9155 1.4662 0
M  V30 30 H -2.453 -0.6088 -0.2461 0
M  V30 31 H 2.3927 3.7734 -3.9123 0
M  V30 32 H 1.5578 6.5123 -0.7073 0
M  V30 33 H -0.1846 -2.3568 0.8413 0
M  V30 34 H -0.448 -1.975 -0.8581 0
M  V30 35 H 2.4606 6.0713 -2.9764 0
M  V30 36 H -2.5219 -3.3061 0.9494 0
M  V30 37 H -2.6869 -3.0811 -0.7916 0
M  V30 38 H 0.1694 -3.9829 -1.5865 0
M  V30 39 H -1.3616 -4.5114 -2.3222 0
M  V30 40 H -0.2224 -5.6854 -1.6323 0
M  V30 41 H -3.096 -5.5912 -0.7947 0
M  V30 42 H -2.7544 -5.6368 0.9493 0
M  V30 43 H -1.818 -6.6418 -0.1436 0
M  V30 END ATOM
M  V30 BEGIN BOND
M  V30 1 1 1 2
M  V30 2 2 2 3
M  V30 3 1 2 4
M  V30 4 1 3 5
M  V30 5 2 4 6
M  V30 6 1 5 7
M  V30 7 2 5 8
M  V30 8 1 7 9
M  V30 9 1 7 10
M  V30 10 1 8 11
M  V30 11 2 9 12
M  V30 12 1 9 13
M  V30 13 2 10 14
M  V30 14 1 11 15
M  V30 15 1 12 16
M  V30 16 2 13 17
M  V30 17 1 15 18
M  V30 18 2 16 19
M  V30 19 1 18 20
M  V30 20 1 20 21
M  V30 21 1 21 22
M  V30 22 1 21 23
M  V30 23 1 6 8
M  V30 24 1 10 11
M  V30 25 1 17 19
M  V30 26 1 3 24
M  V30 27 1 4 25
M  V30 28 1 6 26
M  V30 29 1 12 27
M  V30 30 1 13 28
M  V30 31 1 15 29
M  V30 32 1 15 30
M  V30 33 1 16 31
M  V30 34 1 17 32
M  V30 35 1 18 33
M  V30 36 1 18 34
M  V30 37 1 19 35
M  V30 38 1 20 36
M  V30 39 1 20 37
M  V30 40 1 22 38
M  V30 41 1 22 39
M  V30 42 1 22 40
M  V30 43 1 23 41
M  V30 44 1 23 42
M  V30 45 1 23 43
M  V30 END BOND
M  V30 END CTAB
M  END
>  <Column 1>
1589

>  <level_0>
1743

>  <index>
1743

>  <Unnamed: 0>
1743

>  <NO.>
1755

>  <Name>
clodazon

>  <IUPAC_name>
5-chloro-1-[3-(dimethylamino)propyl]-3-phenylbenzimidazol-2-one

>  <SMILES>
CN(C)CCCn1c(=O)n(-c2ccccc2)c2cc(Cl)ccc21

>  <CID>
20883

>  <logBB>


>  <BBB+/BBB->
BBB+

>  <Inchi>
InChI=1S/C18H20ClN3O/c1-20(2)11-6-12-21-16-10-9-14(19)13-17(16)22(18(21)23)15-7-4-3-5-8-15/h3-5-7-10-13H-6-11-12H2-1-2H3

>  <threshold>
-1

>  <reference>
R1|R13|R19|R6|R24|R27|R27|R27|R30|R30|

>  <group>
B

>  <Class>
1

>  <ABC>
17.87

>  <ABCGG>
14.7

>  <nAcid>
0

>  <nBase>
1

>  <nAromAtom>
15

>  <nAromBond>
16

>  <nAtom>
43

>  <nHeavyAtom>
23

>  <nSpiro>
0

>  <nBridgehead>
0

>  <nHetero>
5

>  <nN>
3

>  <nO>
1

>  <nF>
0

>  <BalabanJ>
1.7

>  <BertzCT>
865.1

>  <nBonds>
45

>  <nBondsO>
25

>  <nBondsS>
28

>  <nBondsD>
1

>  <nBondsT>
0

>  <nBondsA>
16

>  <nBondsM>
17

>  <nBondsKS>
38

>  <nBondsKD>
7

>  <RNCG>
0.19

>  <RPCG>
0.21

>  <FCSP3>
0.28

>  <SZ>
29

>  <Sm>
27.46

>  <Sv>
27.5

>  <Sse>
42.96

>  <Sp>
29.75

>  <Si>
48.39

>  <MZ>
0.67

>  <Mm>
0.64

>  <Mv>
0.64

>  <Mse>
1

>  <Mp>
0.69

>  <Mi>
1.13

>  <NsCH3>
2

>  <NdCH2>
0

>  <NssCH2>
3

>  <NtCH>
0

>  <NdsCH>
0

>  <NaaCH>
8

>  <NsssCH>
0

>  <NddC>
0

>  <NtsC>
0

>  <NdssC>
0

>  <NaasC>
2

>  <NaaaC>
2

>  <NssssC>
0

>  <NsNH3>
0

>  <NsNH2>
0

>  <NssNH2>
0

>  <NdNH>
0

>  <NssNH>
0

>  <NaaNH>
0

>  <NtN>
0

>  <NsssNH>
0

>  <NdsN>
0

>  <NaaN>
0

>  <NsssN>
1

>  <NddsN>
0

>  <NaasN>
2

>  <NssssN>
0

>  <NsOH>
0

>  <NdO>
1

>  <NssO>
0

>  <NaaO>
0

>  <NsF>
0

>  <NsSiH3>
0

>  <NssSiH2>
0

>  <NsssSiH>
0

>  <NssssSi>
0

>  <NsPH2>
0

>  <NssPH>
0

>  <NsssP>
0

>  <NdsssP>
0

>  <NsssssP>
0

>  <NsSH>
0

>  <NdS>
0

>  <NssS>
0

>  <NaaS>
0

>  <NdssS>
0

>  <NddssS>
0

>  <NsCl>
1

>  <NsBr>
0

>  <NsI>
0

>  <fragCpx>
119.05

>  <fMF>
0.35

>  <nHBAcc>
4

>  <nHBDon>
0

>  <Kier1>
17.81

>  <Kier2>
7.92

>  <Lipinski>
1

>  <GhoseFilter>
1

>  <FilterItLogS>
-4.39

>  <VMcGowan>
249.85

>  <LabuteASA>
140.07

>  <PEOE_VSA1>
4.9

>  <PEOE_VSA2>
9.13

>  <PEOE_VSA3>
4.79

>  <PEOE_VSA4>
0

>  <PEOE_VSA5>
0

>  <PEOE_VSA6>
29.8

>  <PEOE_VSA7>
57.39

>  <PEOE_VSA8>
11.57

>  <PEOE_VSA9>
16.72

>  <PEOE_VSA10>
0

>  <PEOE_VSA11>
0

>  <PEOE_VSA12>
0

>  <PEOE_VSA13>
0

>  <SMR_VSA1>
0

>  <SMR_VSA2>
0

>  <SMR_VSA3>
14.03

>  <SMR_VSA4>
0

>  <SMR_VSA5>
12.97

>  <SMR_VSA6>
20.64

>  <SMR_VSA7>
64.04

>  <SMR_VSA8>
0

>  <SMR_VSA9>
5.69

>  <SlogP_VSA1>
5.69

>  <SlogP_VSA2>
34.67

>  <SlogP_VSA3>
6.54

>  <SlogP_VSA4>
0

>  <SlogP_VSA5>
6.42

>  <SlogP_VSA6>
53.33

>  <SlogP_VSA7>
5.02

>  <SlogP_VSA8>
16.72

>  <SlogP_VSA9>
0

>  <SlogP_VSA10>
0

>  <SlogP_VSA11>
0

>  <EState_VSA1>
0

>  <EState_VSA2>
5.69

>  <EState_VSA3>
11.57

>  <EState_VSA4>
29.69

>  <EState_VSA5>
0

>  <EState_VSA6>
4.57

>  <EState_VSA7>
67.19

>  <EState_VSA8>
4.9

>  <EState_VSA9>
11.6

>  <EState_VSA10>
4.79

>  <VSA_EState1>
3.57

>  <VSA_EState2>
15.07

>  <VSA_EState3>
0.63

>  <VSA_EState4>
2.6

>  <VSA_EState5>
0

>  <VSA_EState6>
15.29

>  <VSA_EState7>
0.92

>  <VSA_EState8>
1.63

>  <VSA_EState9>
4.07

>  <apol>
49.68

>  <bpol>
26.57

>  <nRing>
3

>  <nHRing>
1

>  <naRing>
3

>  <naHRing>
1

>  <nARing 2>
0

>  <nAHRing 2>
0

>  <nFRing>
1

>  <nFHRing>
1

>  <nFaRing>
1

>  <nFaHRing>
1

>  <nFARing 2>
0

>  <nFAHRing 2>
0

>  <nRot>
5

>  <SLogP>
3.4

>  <SMR>
95.72

>  <TopoPSA(NO)>
30.17

>  <TopoPSA>
30.17

>  <JGI1>
0.16

>  <JGI2>
0.07

>  <JGI3>
0.07

>  <JGI4>
0.04

>  <JGI5>
0.03

>  <Diameter>
11

>  <Radius>
6

>  <TMWC10>
123.38

>  <TSRW10>
71.98

>  <MW>
329.13

>  <AMW>
7.65

>  <WPath>
1163

>  <WPol>
36

>  <Zagreb1>
120

>  <Zagreb2>
142

>  <mZagreb2>
5.08

>  <yes>


>  <nAR-cont>
0.336376

>  <nHA-cont>
0.967789328

>  <MWHBN>
0.220483582

>  <MWHBN-cont>
0.994651457

>  <TPSA-cont>
0.789394666

>  <pka_cont>
0.97

>  <yes.1>


>  <BBB_SCORE>
4.859931844

>  <MMFF94 Energy>
32.671

$$$$
Compound 1333
Actelion Java MolfileCreator 2.0

  0  0  0  0  0  0              0 V3000
M  V30 BEGIN CTAB
M  V30 COUNTS 49 51 0 0 0
M  V30 BEGIN ATOM
M  V30 1 N -0.3147 0.8658 -0.8658 0
M  V30 2 C -1.613 0.758 -1.3364 0
M  V30 3 C -0.3046 1.488 0.3673 0
M  V30 4 C 0.8505 0.3943 -1.6023 0
M  V30 5 C -2.4439 1.3648 -0.3941 0
M  V30 6 C -2.128 0.1765 -2.5089 0
M  V30 7 C -1.616 1.8275 0.6708 0
M  V30 8 C 0.9192 1.7335 1.199 0
M  V30 9 C 1.2249 -1.0419 -1.2446 0
M  V30 10 C -3.8343 1.3981 -0.633 0
M  V30 11 C -3.5088 0.2229 -2.7224 0
M  V30 12 C -2.0654 2.5149 1.9184 0
M  V30 13 C 1.0564 0.7676 2.3793 0
M  V30 14 C 2.4768 -1.4783 -2.0132 0
M  V30 15 C -4.3535 0.8269 -1.7985 0
M  V30 16 C -2.3813 1.5446 3.0555 0
M  V30 17 C 0.1033 1.0146 3.5591 0
M  V30 18 N 2.804 -2.9006 -1.8241 0
M  V30 19 C -1.3176 0.4804 3.3531 0
M  V30 20 C 3.2192 -3.199 -0.4516 0
M  V30 21 C 3.8621 -3.301 -2.7561 0
M  V30 22 H 0.6305 0.4835 -2.672 0
M  V30 23 H 1.6782 1.084 -1.412 0
M  V30 24 H -1.483 -0.3055 -3.2357 0
M  V30 25 H 0.9105 2.7673 1.5657 0
M  V30 26 H 1.8247 1.6541 0.5906 0
M  V30 27 H 0.3886 -1.712 -1.4799 0
M  V30 28 H 1.3947 -1.1125 -0.1655 0
M  V30 29 H -4.5026 1.8613 0.0865 0
M  V30 30 H -3.9259 -0.2224 -3.6222 0
M  V30 31 H -2.9572 3.1183 1.7083 0
M  V30 32 H -1.3031 3.232 2.2446 0
M  V30 33 H 0.9715 -0.2719 2.0418 0
M  V30 34 H 2.0779 0.8797 2.7666 0
M  V30 35 H 2.2865 -1.3012 -3.08 0
M  V30 36 H 3.3274 -0.8432 -1.7326 0
M  V30 37 H -5.4249 0.8528 -1.9786 0
M  V30 38 H -3.3227 1.0254 2.8334 0
M  V30 39 H -2.565 2.1297 3.9656 0
M  V30 40 H 0.1003 2.0725 3.8446 0
M  V30 41 H 0.5269 0.475 4.4169 0
M  V30 42 H -1.6285 -0.0257 4.2767 0
M  V30 43 H -1.333 -0.2955 2.5787 0
M  V30 44 H 2.4007 -3.0359 0.256 0
M  V30 45 H 4.0776 -2.5936 -0.1392 0
M  V30 46 H 3.4927 -4.256 -0.3538 0
M  V30 47 H 4.7912 -2.7438 -2.5898 0
M  V30 48 H 3.5442 -3.142 -3.7926 0
M  V30 49 H 4.078 -4.3708 -2.6587 0
M  V30 END ATOM
M  V30 BEGIN BOND
M  V30 1 1 1 2
M  V30 2 1 1 3
M  V30 3 1 1 4
M  V30 4 2 2 5
M  V30 5 1 2 6
M  V30 6 2 3 7
M  V30 7 1 3 8
M  V30 8 1 4 9
M  V30 9 1 5 10
M  V30 10 2 6 11
M  V30 11 1 7 12
M  V30 12 1 8 13
M  V30 13 1 9 14
M  V30 14 2 10 15
M  V30 15 1 12 16
M  V30 16 1 13 17
M  V30 17 1 14 18
M  V30 18 1 16 19
M  V30 19 1 18 20
M  V30 20 1 18 21
M  V30 21 1 5 7
M  V30 22 1 11 15
M  V30 23 1 17 19
M  V30 24 1 4 22
M  V30 25 1 4 23
M  V30 26 1 6 24
M  V30 27 1 8 25
M  V30 28 1 8 26
M  V30 29 1 9 27
M  V30 30 1 9 28
M  V30 31 1 10 29
M  V30 32 1 11 30
M  V30 33 1 12 31
M  V30 34 1 12 32
M  V30 35 1 13 33
M  V30 36 1 13 34
M  V30 37 1 14 35
M  V30 38 1 14 36
M  V30 39 1 15 37
M  V30 40 1 16 38
M  V30 41 1 16 39
M  V30 42 1 17 40
M  V30 43 1 17 41
M  V30 44 1 19 42
M  V30 45 1 19 43
M  V30 46 1 20 44
M  V30 47 1 20 45
M  V30 48 1 20 46
M  V30 49 1 21 47
M  V30 50 1 21 48
M  V30 51 1 21 49
M  V30 END BOND
M  V30 END CTAB
M  END
>  <Column 1>
1590

>  <level_0>
1744

>  <index>
1744

>  <Unnamed: 0>
1744

>  <NO.>
1756

>  <Name>
iprindole

>  <IUPAC_name>
3-(6-7-8-9-10-11-hexahydrocycloocta[b]indol-5-yl)-n-n-dimethylpropan-1-amine

>  <SMILES>
CN(C)CCCn1c2c(c3ccccc31)CCCCCC2

>  <CID>
21722

>  <logBB>


>  <BBB+/BBB->
BBB+

>  <Inchi>
InChI=1S/C19H28N2/c1-20(2)14-9-15-21-18-12-6-4-3-5-10-16(18)17-11-7-8-13-19(17)21/h7-8-11-13H-3-6-9-10-12-14-15H2-1-2H3

>  <threshold>
-1

>  <reference>
R1|R13|R19|R6|R24|R27|R27|R27|R30|R30|

>  <group>
B

>  <Class>
1

>  <ABC>
16.28

>  <ABCGG>
12.82

>  <nAcid>
0

>  <nBase>
1

>  <nAromAtom>
9

>  <nAromBond>
10

>  <nAtom>
49

>  <nHeavyAtom>
21

>  <nSpiro>
0

>  <nBridgehead>
0

>  <nHetero>
2

>  <nN>
2

>  <nO>
0

>  <nF>
0

>  <BalabanJ>
1.68

>  <BertzCT>
594.88

>  <nBonds>
51

>  <nBondsO>
23

>  <nBondsS>
41

>  <nBondsD>
0

>  <nBondsT>
0

>  <nBondsA>
10

>  <nBondsM>
10

>  <nBondsKS>
47

>  <nBondsKD>
4

>  <RNCG>
0.29

>  <RPCG>
0.05

>  <FCSP3>
0.58

>  <SZ>
26

>  <Sm>
23.68

>  <Sv>
28.1

>  <Sse>
47.76

>  <Sp>
31.5

>  <Si>
55.4

>  <MZ>
0.53

>  <Mm>
0.48

>  <Mv>
0.57

>  <Mse>
0.97

>  <Mp>
0.64

>  <Mi>
1.13

>  <NsCH3>
2

>  <NdCH2>
0

>  <NssCH2>
9

>  <NtCH>
0

>  <NdsCH>
0

>  <NaaCH>
4

>  <NsssCH>
0

>  <NddC>
0

>  <NtsC>
0

>  <NdssC>
0

>  <NaasC>
2

>  <NaaaC>
2

>  <NssssC>
0

>  <NsNH3>
0

>  <NsNH2>
0

>  <NssNH2>
0

>  <NdNH>
0

>  <NssNH>
0

>  <NaaNH>
0

>  <NtN>
0

>  <NsssNH>
0

>  <NdsN>
0

>  <NaaN>
0

>  <NsssN>
1

>  <NddsN>
0

>  <NaasN>
1

>  <NssssN>
0

>  <NsOH>
0

>  <NdO>
0

>  <NssO>
0

>  <NaaO>
0

>  <NsF>
0

>  <NsSiH3>
0

>  <NssSiH2>
0

>  <NsssSiH>
0

>  <NssssSi>
0

>  <NsPH2>
0

>  <NssPH>
0

>  <NsssP>
0

>  <NdsssP>
0

>  <NsssssP>
0

>  <NsSH>
0

>  <NdS>
0

>  <NssS>
0

>  <NaaS>
0

>  <NdssS>
0

>  <NddssS>
0

>  <NsCl>
0

>  <NsBr>
0

>  <NsI>
0

>  <fragCpx>
109.02

>  <fMF>
0.31

>  <nHBAcc>
2

>  <nHBDon>
0

>  <Kier1>
15.88

>  <Kier2>
7.51

>  <Lipinski>
1

>  <GhoseFilter>
1

>  <FilterItLogS>
-4.84

>  <VMcGowan>
248.75

>  <LabuteASA>
128.3

>  <PEOE_VSA1>
9.47

>  <PEOE_VSA2>
0

>  <PEOE_VSA3>
0

>  <PEOE_VSA4>
0

>  <PEOE_VSA5>
0

>  <PEOE_VSA6>
31.04

>  <PEOE_VSA7>
64.37

>  <PEOE_VSA8>
23.14

>  <PEOE_VSA9>
0

>  <PEOE_VSA10>
0

>  <PEOE_VSA11>
0

>  <PEOE_VSA12>
0

>  <PEOE_VSA13>
0

>  <SMR_VSA1>
0

>  <SMR_VSA2>
0

>  <SMR_VSA3>
9.47

>  <SMR_VSA4>
0

>  <SMR_VSA5>
51.49

>  <SMR_VSA6>
20.64

>  <SMR_VSA7>
35.52

>  <SMR_VSA8>
0

>  <SMR_VSA9>
0

>  <SlogP_VSA1>
0

>  <SlogP_VSA2>
30.11

>  <SlogP_VSA3>
19.39

>  <SlogP_VSA4>
0

>  <SlogP_VSA5>
43.36

>  <SlogP_VSA6>
24.27

>  <SlogP_VSA7>
0

>  <SlogP_VSA8>
10.9

>  <SlogP_VSA9>
0

>  <SlogP_VSA10>
0

>  <SlogP_VSA11>
0

>  <EState_VSA1>
0

>  <EState_VSA2>
0

>  <EState_VSA3>
0

>  <EState_VSA4>
6.54

>  <EState_VSA5>
62.39

>  <EState_VSA6>
11.26

>  <EState_VSA7>
0

>  <EState_VSA8>
47.83

>  <EState_VSA9>
0

>  <EState_VSA10>
0

>  <VSA_EState1>
2.62

>  <VSA_EState2>
2.29

>  <VSA_EState3>
1.51

>  <VSA_EState4>
4.74

>  <VSA_EState5>
0

>  <VSA_EState6>
9.04

>  <VSA_EState7>
9.3

>  <VSA_EState8>
2.33

>  <VSA_EState9>
4.33

>  <apol>
52.6

>  <bpol>
31.51

>  <nRing>
3

>  <nHRing>
1

>  <naRing>
2

>  <naHRing>
1

>  <nARing 2>
1

>  <nAHRing 2>
0

>  <nFRing>
1

>  <nFHRing>
1

>  <nFaRing>
0

>  <nFaHRing>
0

>  <nFARing 2>
1

>  <nFAHRing 2>
1

>  <nRot>
4

>  <SLogP>
4.25

>  <SMR>
90.99

>  <TopoPSA(NO)>
8.17

>  <TopoPSA>
8.17

>  <JGI1>
0.11

>  <JGI2>
0.06

>  <JGI3>
0.06

>  <JGI4>
0.02

>  <JGI5>
0.01

>  <Diameter>
10

>  <Radius>
5

>  <TMWC10>
118.14

>  <TSRW10>
69.3

>  <MW>
284.23

>  <AMW>
5.8

>  <WPath>
900

>  <WPol>
34

>  <Zagreb1>
108

>  <Zagreb2>
127

>  <mZagreb2>
4.72

>  <yes>


>  <nAR-cont>
0.816016

>  <nHA-cont>
0.994529749

>  <MWHBN>
0.118630139

>  <MWHBN-cont>
0.823411473

>  <TPSA-cont>
0.942968327

>  <pka_cont>
0.97

>  <yes.1>


>  <BBB_SCORE>
5.416599612

>  <MMFF94 Energy>
33.253

$$$$
Compound 1334
Actelion Java MolfileCreator 2.0

  0  0  0  0  0  0              0 V3000
M  V30 BEGIN CTAB
M  V30 COUNTS 46 48 0 0 0
M  V30 BEGIN ATOM
M  V30 1 N 0.3155 0.71 -0.1577 0
M  V30 2 N -0.9092 0.2108 0.0706 0
M  V30 3 C 1.127 0.0111 0.6572 0
M  V30 4 C -0.9262 -0.7997 0.9819 0
M  V30 5 C -2.0518 0.7464 -0.6495 0
M  V30 6 C 2.5619 0.3066 0.702 0
M  V30 7 C 0.3812 -0.9707 1.3869 0
M  V30 8 C -2.0735 0.281 -2.1037 0
M  V30 9 C 3.2461 0.6434 -0.4752 0
M  V30 10 C 3.2733 0.2746 1.9093 0
M  V30 11 C 0.7865 -2.007 2.319 0
M  V30 12 C -3.3644 0.6784 -2.8274 0
M  V30 13 C 4.6148 0.922 -0.4497 0
M  V30 14 C 4.6429 0.5525 1.9346 0
M  V30 15 C 0.1421 -2.144 3.5556 0
M  V30 16 C 1.8276 -2.8843 1.9906 0
M  V30 17 N -3.6759 2.115 -2.7678 0
M  V30 18 C 5.3129 0.8731 0.7552 0
M  V30 19 C 0.5378 -3.1398 4.4516 0
M  V30 20 C 2.2221 -3.8793 2.8879 0
M  V30 21 C -5.0188 2.361 -3.3025 0
M  V30 22 C -2.6986 2.9189 -3.5086 0
M  V30 23 C 1.5775 -4.0062 4.1174 0
M  V30 24 H -1.8384 -1.3159 1.2462 0
M  V30 25 H -2.9552 0.4191 -0.1217 0
M  V30 26 H -1.9928 1.8377 -0.5711 0
M  V30 27 H -1.9831 -0.8126 -2.1396 0
M  V30 28 H -1.1979 0.6691 -2.638 0
M  V30 29 H 2.7083 0.6908 -1.4201 0
M  V30 30 H 2.7683 0.0449 2.8445 0
M  V30 31 H -3.3124 0.3347 -3.8689 0
M  V30 32 H -4.1829 0.1183 -2.3553 0
M  V30 33 H 5.1312 1.181 -1.3699 0
M  V30 34 H 5.1833 0.5238 2.8772 0
M  V30 35 H -0.6644 -1.4698 3.8343 0
M  V30 36 H 2.3374 -2.8022 1.033 0
M  V30 37 H 6.3771 1.0925 0.7764 0
M  V30 38 H 0.0356 -3.2373 5.4106 0
M  V30 39 H 3.032 -4.5547 2.625 0
M  V30 40 H -5.7704 1.812 -2.7243 0
M  V30 41 H -5.1061 2.0639 -4.354 0
M  V30 42 H -5.2781 3.4226 -3.2201 0
M  V30 43 H -2.6323 2.6212 -4.5612 0
M  V30 44 H -1.7023 2.844 -3.0619 0
M  V30 45 H -2.9674 3.981 -3.4692 0
M  V30 46 H 1.8855 -4.7808 4.815 0
M  V30 END ATOM
M  V30 BEGIN BOND
M  V30 1 1 1 2
M  V30 2 2 1 3
M  V30 3 1 2 4
M  V30 4 1 2 5
M  V30 5 1 3 6
M  V30 6 1 3 7
M  V30 7 1 5 8
M  V30 8 2 6 9
M  V30 9 1 6 10
M  V30 10 1 7 11
M  V30 11 1 8 12
M  V30 12 1 9 13
M  V30 13 2 10 14
M  V30 14 2 11 15
M  V30 15 1 11 16
M  V30 16 1 12 17
M  V30 17 2 13 18
M  V30 18 1 15 19
M  V30 19 2 16 20
M  V30 20 1 17 21
M  V30 21 1 17 22
M  V30 22 2 19 23
M  V30 23 2 4 7
M  V30 24 1 14 18
M  V30 25 1 20 23
M  V30 26 1 4 24
M  V30 27 1 5 25
M  V30 28 1 5 26
M  V30 29 1 8 27
M  V30 30 1 8 28
M  V30 31 1 9 29
M  V30 32 1 10 30
M  V30 33 1 12 31
M  V30 34 1 12 32
M  V30 35 1 13 33
M  V30 36 1 14 34
M  V30 37 1 15 35
M  V30 38 1 16 36
M  V30 39 1 18 37
M  V30 40 1 19 38
M  V30 41 1 20 39
M  V30 42 1 21 40
M  V30 43 1 21 41
M  V30 44 1 21 42
M  V30 45 1 22 43
M  V30 46 1 22 44
M  V30 47 1 22 45
M  V30 48 1 23 46
M  V30 END BOND
M  V30 END CTAB
M  END
>  <Column 1>
1591

>  <level_0>
1745

>  <index>
1745

>  <Unnamed: 0>
1745

>  <NO.>
1757

>  <Name>
fezolamine

>  <IUPAC_name>
3-(3-4-diphenylpyrazol-1-yl)-n-n-dimethylpropan-1-amine

>  <SMILES>
CN(C)CCCn1cc(-c2ccccc2)c(-c2ccccc2)n1

>  <CID>
54567

>  <logBB>


>  <BBB+/BBB->
BBB+

>  <Inchi>
InChI=1S/C20H23N3/c1-22(2)14-9-15-23-16-19(17-10-5-3-6-11-17)20(21-23)18-12-7-4-8-13-18/h3-8-10-13-16H-9-14-15H2-1-2H3

>  <threshold>
-1

>  <reference>
R1|R13|R19|R6|R24|R27|R27|R27|R30|R30|

>  <group>
B

>  <Class>
1

>  <ABC>
17.78

>  <ABCGG>
14.26

>  <nAcid>
0

>  <nBase>
1

>  <nAromAtom>
17

>  <nAromBond>
17

>  <nAtom>
46

>  <nHeavyAtom>
23

>  <nSpiro>
0

>  <nBridgehead>
0

>  <nHetero>
3

>  <nN>
3

>  <nO>
0

>  <nF>
0

>  <BalabanJ>
1.58

>  <BertzCT>
673.09

>  <nBonds>
48

>  <nBondsO>
25

>  <nBondsS>
31

>  <nBondsD>
0

>  <nBondsT>
0

>  <nBondsA>
17

>  <nBondsM>
17

>  <nBondsKS>
40

>  <nBondsKD>
8

>  <RNCG>
0.22

>  <RPCG>
0.07

>  <FCSP3>
0.25

>  <SZ>
27.33

>  <Sm>
25.43

>  <Sv>
28.5

>  <Sse>
45.2

>  <Sp>
31.16

>  <Si>
51.65

>  <MZ>
0.59

>  <Mm>
0.55

>  <Mv>
0.62

>  <Mse>
0.98

>  <Mp>
0.68

>  <Mi>
1.12

>  <NsCH3>
2

>  <NdCH2>
0

>  <NssCH2>
3

>  <NtCH>
0

>  <NdsCH>
0

>  <NaaCH>
11

>  <NsssCH>
0

>  <NddC>
0

>  <NtsC>
0

>  <NdssC>
0

>  <NaasC>
4

>  <NaaaC>
0

>  <NssssC>
0

>  <NsNH3>
0

>  <NsNH2>
0

>  <NssNH2>
0

>  <NdNH>
0

>  <NssNH>
0

>  <NaaNH>
0

>  <NtN>
0

>  <NsssNH>
0

>  <NdsN>
0

>  <NaaN>
1

>  <NsssN>
1

>  <NddsN>
0

>  <NaasN>
1

>  <NssssN>
0

>  <NsOH>
0

>  <NdO>
0

>  <NssO>
0

>  <NaaO>
0

>  <NsF>
0

>  <NsSiH3>
0

>  <NssSiH2>
0

>  <NsssSiH>
0

>  <NssssSi>
0

>  <NsPH2>
0

>  <NssPH>
0

>  <NsssP>
0

>  <NdsssP>
0

>  <NsssssP>
0

>  <NsSH>
0

>  <NdS>
0

>  <NssS>
0

>  <NaaS>
0

>  <NdssS>
0

>  <NddssS>
0

>  <NsCl>
0

>  <NsBr>
0

>  <NsI>
0

>  <fragCpx>
119.03

>  <fMF>
0.37

>  <nHBAcc>
3

>  <nHBDon>
0

>  <Kier1>
17.81

>  <Kier2>
8.91

>  <Lipinski>
1

>  <GhoseFilter>
1

>  <FilterItLogS>
-5.09

>  <VMcGowan>
255.62

>  <LabuteASA>
137.74

>  <PEOE_VSA1>
4.9

>  <PEOE_VSA2>
4.68

>  <PEOE_VSA3>
0

>  <PEOE_VSA4>
5.1

>  <PEOE_VSA5>
0

>  <PEOE_VSA6>
60.66

>  <PEOE_VSA7>
32.62

>  <PEOE_VSA8>
23.87

>  <PEOE_VSA9>
0

>  <PEOE_VSA10>
5.69

>  <PEOE_VSA11>
0

>  <PEOE_VSA12>
0

>  <PEOE_VSA13>
0

>  <SMR_VSA1>
0

>  <SMR_VSA2>
0

>  <SMR_VSA3>
14.68

>  <SMR_VSA4>
0

>  <SMR_VSA5>
12.97

>  <SMR_VSA6>
20.64

>  <SMR_VSA7>
66.86

>  <SMR_VSA8>
0

>  <SMR_VSA9>
22.38

>  <SlogP_VSA1>
0

>  <SlogP_VSA2>
35.32

>  <SlogP_VSA3>
6.54

>  <SlogP_VSA4>
0

>  <SlogP_VSA5>
6.42

>  <SlogP_VSA6>
66.86

>  <SlogP_VSA7>
0

>  <SlogP_VSA8>
22.38

>  <SlogP_VSA9>
0

>  <SlogP_VSA10>
0

>  <SlogP_VSA11>
0

>  <EState_VSA1>
0

>  <EState_VSA2>
0

>  <EState_VSA3>
0

>  <EState_VSA4>
30.77

>  <EState_VSA5>
11.13

>  <EState_VSA6>
0

>  <EState_VSA7>
12.13

>  <EState_VSA8>
78.4

>  <EState_VSA9>
5.1

>  <EState_VSA10>
0

>  <VSA_EState1>
2.08

>  <VSA_EState2>
2.21

>  <VSA_EState3>
4.85

>  <VSA_EState4>
4.63

>  <VSA_EState5>
0

>  <VSA_EState6>
20.91

>  <VSA_EState7>
3.27

>  <VSA_EState8>
2.01

>  <VSA_EState9>
4.21

>  <apol>
52.04

>  <bpol>
26.49

>  <nRing>
3

>  <nHRing>
1

>  <naRing>
3

>  <naHRing>
1

>  <nARing 2>
0

>  <nAHRing 2>
0

>  <nFRing>
0

>  <nFHRing>
0

>  <nFaRing>
0

>  <nFaHRing>
0

>  <nFARing 2>
0

>  <nFAHRing 2>
0

>  <nRot>
6

>  <SLogP>
4.17

>  <SMR>
96.27

>  <TopoPSA(NO)>
21.06

>  <TopoPSA>
21.06

>  <JGI1>
0.14

>  <JGI2>
0.05

>  <JGI3>
0.04

>  <JGI4>
0.03

>  <JGI5>
0.02

>  <Diameter>
11

>  <Radius>
6

>  <TMWC10>
121.79

>  <TSRW10>
70.87

>  <MW>
305.19

>  <AMW>
6.63

>  <WPath>
1239

>  <WPol>
31

>  <Zagreb1>
116

>  <Zagreb2>
133

>  <mZagreb2>
5.17

>  <yes>


>  <nAR-cont>
0.336376

>  <nHA-cont>
0.967789328

>  <MWHBN>
0.17172602

>  <MWHBN-cont>
0.976590075

>  <TPSA-cont>
0.852988123

>  <pka_cont>
0.97

>  <yes.1>


>  <BBB_SCORE>
4.960026685

>  <MMFF94 Energy>
56.656

$$$$
Compound 1335
Actelion Java MolfileCreator 2.0

  0  0  0  0  0  0              0 V3000
M  V30 BEGIN CTAB
M  V30 COUNTS 45 47 0 0 0
M  V30 BEGIN ATOM
M  V30 1 N -0.5515 -0.7091 -0.3151 0
M  V30 2 N -1.328 -1.6334 0.4708 0
M  V30 3 C -0.9772 0.5562 -0.6619 0
M  V30 4 C 0.69 -0.9487 -0.8446 0
M  V30 5 C -0.6871 -1.9542 1.7555 0
M  V30 6 C -1.665 -2.8295 -0.2913 0
M  V30 7 C 0.0305 1.1314 -1.442 0
M  V30 8 C -2.1626 1.2407 -0.3462 0
M  V30 9 C 1.0826 0.1684 -1.5547 0
M  V30 10 C -0.5389 -0.7497 2.7254 0
M  V30 11 C -0.1576 2.4471 -1.9194 0
M  V30 12 C -2.3243 2.5387 -0.8357 0
M  V30 13 C 2.3446 0.2425 -2.2709 0
M  V30 14 N -1.7837 -0.0144 3.026 0
M  V30 15 C -1.3366 3.1361 -1.6124 0
M  V30 16 C 3.5485 -0.0783 -1.6308 0
M  V30 17 C 2.3694 0.6363 -3.6142 0
M  V30 18 C -1.4824 1.2108 3.7655 0
M  V30 19 C -2.7455 -0.8306 3.7625 0
M  V30 20 C 4.7586 -0.0037 -2.3242 0
M  V30 21 C 3.5801 0.7094 -4.3067 0
M  V30 22 C 4.7735 0.39 -3.6613 0
M  V30 23 H 1.1839 -1.8968 -0.6894 0
M  V30 24 H 0.3045 -2.3979 1.5971 0
M  V30 25 H -1.2772 -2.7249 2.2671 0
M  V30 26 H -2.1624 -2.5649 -1.2316 0
M  V30 27 H -0.7866 -3.4409 -0.5264 0
M  V30 28 H -2.3711 -3.4522 0.2694 0
M  V30 29 H -2.9222 0.7753 0.2757 0
M  V30 30 H -0.0814 -1.1107 3.6563 0
M  V30 31 H 0.1857 -0.0554 2.2803 0
M  V30 32 H 0.6111 2.9297 -2.5157 0
M  V30 33 H -3.232 3.0879 -0.598 0
M  V30 34 H -1.4772 4.1495 -1.9796 0
M  V30 35 H 3.5534 -0.3768 -0.5854 0
M  V30 36 H 1.445 0.8774 -4.134 0
M  V30 37 H -0.8155 1.8583 3.1855 0
M  V30 38 H -1.0097 1.0038 4.7323 0
M  V30 39 H -2.3963 1.7883 3.9445 0
M  V30 40 H -2.3342 -1.2001 4.7086 0
M  V30 41 H -3.0767 -1.6876 3.1682 0
M  V30 42 H -3.6494 -0.2523 3.986 0
M  V30 43 H 5.6888 -0.2502 -1.8194 0
M  V30 44 H 3.5897 1.0133 -5.3501 0
M  V30 45 H 5.7153 0.4478 -4.2006 0
M  V30 END ATOM
M  V30 BEGIN BOND
M  V30 1 1 1 2
M  V30 2 1 1 3
M  V30 3 1 1 4
M  V30 4 1 2 5
M  V30 5 1 2 6
M  V30 6 2 3 7
M  V30 7 1 3 8
M  V30 8 2 4 9
M  V30 9 1 5 10
M  V30 10 1 7 11
M  V30 11 2 8 12
M  V30 12 1 9 13
M  V30 13 1 10 14
M  V30 14 2 11 15
M  V30 15 2 13 16
M  V30 16 1 13 17
M  V30 17 1 14 18
M  V30 18 1 14 19
M  V30 19 1 16 20
M  V30 20 2 17 21
M  V30 21 2 20 22
M  V30 22 1 7 9
M  V30 23 1 12 15
M  V30 24 1 21 22
M  V30 25 1 4 23
M  V30 26 1 5 24
M  V30 27 1 5 25
M  V30 28 1 6 26
M  V30 29 1 6 27
M  V30 30 1 6 28
M  V30 31 1 8 29
M  V30 32 1 10 30
M  V30 33 1 10 31
M  V30 34 1 11 32
M  V30 35 1 12 33
M  V30 36 1 15 34
M  V30 37 1 16 35
M  V30 38 1 17 36
M  V30 39 1 18 37
M  V30 40 1 18 38
M  V30 41 1 18 39
M  V30 42 1 19 40
M  V30 43 1 19 41
M  V30 44 1 19 42
M  V30 45 1 20 43
M  V30 46 1 21 44
M  V30 47 1 22 45
M  V30 END BOND
M  V30 END CTAB
M  END
>  <Column 1>
1592

>  <level_0>
1746

>  <index>
1746

>  <Unnamed: 0>
1746

>  <NO.>
1758

>  <Name>
binedaline

>  <IUPAC_name>
n-n-n'-trimethyl-n'-(3-phenylindol-1-yl)ethane-1-2-diamine

>  <SMILES>
CN(C)CCN(C)n1cc(-c2ccccc2)c2ccccc21

>  <CID>
42510

>  <logBB>


>  <BBB+/BBB->
BBB+

>  <Inchi>
InChI=1S/C19H23N3/c1-20(2)13-14-21(3)22-15-18(16-9-5-4-6-10-16)17-11-7-8-12-19(17)22/h4-12-15H-13-14H2-1-3H3

>  <threshold>
-1

>  <reference>
R1|R13|R19|R6|R24|R27|R27|R27|R30|R30|

>  <group>
B

>  <Class>
1

>  <ABC>
17.1

>  <ABCGG>
14.04

>  <nAcid>
0

>  <nBase>
1

>  <nAromAtom>
15

>  <nAromBond>
16

>  <nAtom>
45

>  <nHeavyAtom>
22

>  <nSpiro>
0

>  <nBridgehead>
0

>  <nHetero>
3

>  <nN>
3

>  <nO>
0

>  <nF>
0

>  <BalabanJ>
1.65

>  <BertzCT>
743.72

>  <nBonds>
47

>  <nBondsO>
24

>  <nBondsS>
31

>  <nBondsD>
0

>  <nBondsT>
0

>  <nBondsA>
16

>  <nBondsM>
16

>  <nBondsKS>
40

>  <nBondsKD>
7

>  <RNCG>
0.22

>  <RPCG>
0.06

>  <FCSP3>
0.26

>  <SZ>
26.33

>  <Sm>
24.43

>  <Sv>
27.5

>  <Sse>
44.2

>  <Sp>
30.16

>  <Si>
50.65

>  <MZ>
0.59

>  <Mm>
0.54

>  <Mv>
0.61

>  <Mse>
0.98

>  <Mp>
0.67

>  <Mi>
1.13

>  <NsCH3>
3

>  <NdCH2>
0

>  <NssCH2>
2

>  <NtCH>
0

>  <NdsCH>
0

>  <NaaCH>
10

>  <NsssCH>
0

>  <NddC>
0

>  <NtsC>
0

>  <NdssC>
0

>  <NaasC>
2

>  <NaaaC>
2

>  <NssssC>
0

>  <NsNH3>
0

>  <NsNH2>
0

>  <NssNH2>
0

>  <NdNH>
0

>  <NssNH>
0

>  <NaaNH>
0

>  <NtN>
0

>  <NsssNH>
0

>  <NdsN>
0

>  <NaaN>
0

>  <NsssN>
2

>  <NddsN>
0

>  <NaasN>
1

>  <NssssN>
0

>  <NsOH>
0

>  <NdO>
0

>  <NssO>
0

>  <NaaO>
0

>  <NsF>
0

>  <NsSiH3>
0

>  <NssSiH2>
0

>  <NsssSiH>
0

>  <NssssSi>
0

>  <NsPH2>
0

>  <NssPH>
0

>  <NsssP>
0

>  <NdsssP>
0

>  <NsssssP>
0

>  <NsSH>
0

>  <NdS>
0

>  <NssS>
0

>  <NaaS>
0

>  <NdssS>
0

>  <NddssS>
0

>  <NsCl>
0

>  <NsBr>
0

>  <NsI>
0

>  <fragCpx>
114.03

>  <fMF>
0.33

>  <nHBAcc>
3

>  <nHBDon>
0

>  <Kier1>
16.84

>  <Kier2>
7.71

>  <Lipinski>
1

>  <GhoseFilter>
1

>  <FilterItLogS>
-4.1

>  <VMcGowan>
245.83

>  <LabuteASA>
131.9

>  <PEOE_VSA1>
9.91

>  <PEOE_VSA2>
4.68

>  <PEOE_VSA3>
0

>  <PEOE_VSA4>
0

>  <PEOE_VSA5>
0

>  <PEOE_VSA6>
48.53

>  <PEOE_VSA7>
25.73

>  <PEOE_VSA8>
37.28

>  <PEOE_VSA9>
5.52

>  <PEOE_VSA10>
0

>  <PEOE_VSA11>
0

>  <PEOE_VSA12>
0

>  <PEOE_VSA13>
0

>  <SMR_VSA1>
0

>  <SMR_VSA2>
0

>  <SMR_VSA3>
9.58

>  <SMR_VSA4>
0

>  <SMR_VSA5>
0

>  <SMR_VSA6>
39.24

>  <SMR_VSA7>
60.79

>  <SMR_VSA8>
0

>  <SMR_VSA9>
11.13

>  <SlogP_VSA1>
5.01

>  <SlogP_VSA2>
43.81

>  <SlogP_VSA3>
0

>  <SlogP_VSA4>
0

>  <SlogP_VSA5>
0

>  <SlogP_VSA6>
60.79

>  <SlogP_VSA7>
0

>  <SlogP_VSA8>
22.03

>  <SlogP_VSA9>
0

>  <SlogP_VSA10>
0

>  <SlogP_VSA11>
0

>  <EState_VSA1>
0

>  <EState_VSA2>
0

>  <EState_VSA3>
0

>  <EState_VSA4>
13.09

>  <EState_VSA5>
22.03

>  <EState_VSA6>
0

>  <EState_VSA7>
0

>  <EState_VSA8>
96.52

>  <EState_VSA9>
0

>  <EState_VSA10>
0

>  <VSA_EState1>
2.27

>  <VSA_EState2>
2.21

>  <VSA_EState3>
3.57

>  <VSA_EState4>
3.8

>  <VSA_EState5>
0

>  <VSA_EState6>
19.2

>  <VSA_EState7>
2.25

>  <VSA_EState8>
2.02

>  <VSA_EState9>
6.36

>  <apol>
50.37

>  <bpol>
27.06

>  <nRing>
3

>  <nHRing>
1

>  <naRing>
3

>  <naHRing>
1

>  <nARing 2>
0

>  <nAHRing 2>
0

>  <nFRing>
1

>  <nFHRing>
1

>  <nFaRing>
1

>  <nFaHRing>
1

>  <nFARing 2>
0

>  <nFAHRing 2>
0

>  <nRot>
5

>  <SLogP>
3.44

>  <SMR>
94.94

>  <TopoPSA(NO)>
11.41

>  <TopoPSA>
11.41

>  <JGI1>
0.15

>  <JGI2>
0.07

>  <JGI3>
0.05

>  <JGI4>
0.04

>  <JGI5>
0.02

>  <Diameter>
11

>  <Radius>
6

>  <TMWC10>
120.53

>  <TSRW10>
70.37

>  <MW>
293.19

>  <AMW>
6.52

>  <WPath>
1046

>  <WPol>
33

>  <Zagreb1>
114

>  <Zagreb2>
134

>  <mZagreb2>
4.89

>  <yes>


>  <nAR-cont>
0.336376

>  <nHA-cont>
0.983774276

>  <MWHBN>
0.175205073

>  <MWHBN-cont>
0.981438051

>  <TPSA-cont>
0.920351115

>  <pka_cont>
0.97

>  <yes.1>


>  <BBB_SCORE>
5.118009582

>  <MMFF94 Energy>
54.287

$$$$
Compound 1336
Actelion Java MolfileCreator 2.0

  0  0  0  0  0  0              0 V3000
M  V30 BEGIN CTAB
M  V30 COUNTS 37 38 0 0 0
M  V30 BEGIN ATOM
M  V30 1 S 2.2309 3.3478 -0.9556 0
M  V30 2 C 1.1504 2.0401 -0.6809 0
M  V30 3 C 2.5962 2.8041 -2.5338 0
M  V30 4 C 1.0808 1.2127 -1.7865 0
M  V30 5 C 0.4407 1.9435 0.6491 0
M  V30 6 C 1.914 1.6531 -2.8545 0
M  V30 7 N -0.499 0.8369 0.8239 0
M  V30 8 C -1.7328 0.7805 0.2013 0
M  V30 9 C -0.0826 -0.3008 1.6599 0
M  V30 10 N -2.459 -0.3529 0.3329 0
M  V30 11 C -2.248 1.8379 -0.5517 0
M  V30 12 C 0.5864 -1.4167 0.8255 0
M  V30 13 C -3.6686 -0.4421 -0.2646 0
M  V30 14 C -3.4982 1.7314 -1.1661 0
M  V30 15 N 1.0761 -2.5661 1.6225 0
M  V30 16 C -4.2283 0.5655 -1.0206 0
M  V30 17 C 2.2512 -2.213 2.4206 0
M  V30 18 C 1.4023 -3.6817 0.7303 0
M  V30 19 H 3.2927 3.3546 -3.1511 0
M  V30 20 H 0.4543 0.3289 -1.829 0
M  V30 21 H 1.2203 1.8763 1.4205 0
M  V30 22 H -0.0715 2.8917 0.8611 0
M  V30 23 H 2.0061 1.1501 -3.8092 0
M  V30 24 H -0.9273 -0.7069 2.2319 0
M  V30 25 H 0.6178 0.0635 2.4196 0
M  V30 26 H -1.6977 2.7622 -0.6814 0
M  V30 27 H -0.1557 -1.7788 0.1028 0
M  V30 28 H 1.41 -0.9968 0.2343 0
M  V30 29 H -4.1884 -1.3826 -0.1088 0
M  V30 30 H -3.8902 2.5585 -1.7506 0
M  V30 31 H -5.2019 0.4453 -1.4799 0
M  V30 32 H 2.0089 -1.4556 3.1721 0
M  V30 33 H 3.0748 -1.8386 1.8021 0
M  V30 34 H 2.6121 -3.085 2.9782 0
M  V30 35 H 2.1904 -3.4218 0.0142 0
M  V30 36 H 0.5161 -3.9998 0.1697 0
M  V30 37 H 1.7329 -4.5528 1.3071 0
M  V30 END ATOM
M  V30 BEGIN BOND
M  V30 1 1 1 2
M  V30 2 1 1 3
M  V30 3 2 2 4
M  V30 4 1 2 5
M  V30 5 2 3 6
M  V30 6 1 5 7
M  V30 7 1 7 8
M  V30 8 1 7 9
M  V30 9 2 8 10
M  V30 10 1 8 11
M  V30 11 1 9 12
M  V30 12 1 10 13
M  V30 13 2 11 14
M  V30 14 1 12 15
M  V30 15 2 13 16
M  V30 16 1 15 17
M  V30 17 1 15 18
M  V30 18 1 4 6
M  V30 19 1 14 16
M  V30 20 1 3 19
M  V30 21 1 4 20
M  V30 22 1 5 21
M  V30 23 1 5 22
M  V30 24 1 6 23
M  V30 25 1 9 24
M  V30 26 1 9 25
M  V30 27 1 11 26
M  V30 28 1 12 27
M  V30 29 1 12 28
M  V30 30 1 13 29
M  V30 31 1 14 30
M  V30 32 1 16 31
M  V30 33 1 17 32
M  V30 34 1 17 33
M  V30 35 1 17 34
M  V30 36 1 18 35
M  V30 37 1 18 36
M  V30 38 1 18 37
M  V30 END BOND
M  V30 END CTAB
M  END
>  <Column 1>
1593

>  <level_0>
1747

>  <index>
1747

>  <Unnamed: 0>
1747

>  <NO.>
1759

>  <Name>
methapyrilene

>  <IUPAC_name>
n-n-dimethyl-n'-pyridin-2-yl-n'-(thiophen-2-ylmethyl)ethane-1-2-diamine

>  <SMILES>
CN(C)CCN(Cc1cccs1)c1ccccn1

>  <CID>
4098

>  <logBB>


>  <BBB+/BBB->
BBB+

>  <Inchi>
InChI=1S/C14H19N3S/c1-16(2)9-10-17(12-13-6-5-11-18-13)14-7-3-4-8-15-14/h3-8-11H-9-10-12H2-1-2H3

>  <threshold>
-1

>  <reference>
R1|R13|R19|R6|R24|R27|R27|R27|R30|R30|

>  <group>
B

>  <Class>
1

>  <ABC>
13.61

>  <ABCGG>
12.12

>  <nAcid>
0

>  <nBase>
1

>  <nAromAtom>
11

>  <nAromBond>
11

>  <nAtom>
37

>  <nHeavyAtom>
18

>  <nSpiro>
0

>  <nBridgehead>
0

>  <nHetero>
4

>  <nN>
3

>  <nO>
0

>  <nF>
0

>  <BalabanJ>
1.83

>  <BertzCT>
439.33

>  <nBonds>
38

>  <nBondsO>
19

>  <nBondsS>
27

>  <nBondsD>
0

>  <nBondsT>
0

>  <nBondsA>
11

>  <nBondsM>
11

>  <nBondsKS>
33

>  <nBondsKD>
5

>  <RNCG>
0.27

>  <RPCG>
0.1

>  <FCSP3>
0.36

>  <SZ>
23.33

>  <Sm>
21.76

>  <Sv>
22.61

>  <Sse>
36.5

>  <Sp>
25.3

>  <Si>
41.74

>  <MZ>
0.63

>  <Mm>
0.59

>  <Mv>
0.61

>  <Mse>
0.99

>  <Mp>
0.68

>  <Mi>
1.13

>  <NsCH3>
2

>  <NdCH2>
0

>  <NssCH2>
3

>  <NtCH>
0

>  <NdsCH>
0

>  <NaaCH>
7

>  <NsssCH>
0

>  <NddC>
0

>  <NtsC>
0

>  <NdssC>
0

>  <NaasC>
2

>  <NaaaC>
0

>  <NssssC>
0

>  <NsNH3>
0

>  <NsNH2>
0

>  <NssNH2>
0

>  <NdNH>
0

>  <NssNH>
0

>  <NaaNH>
0

>  <NtN>
0

>  <NsssNH>
0

>  <NdsN>
0

>  <NaaN>
1

>  <NsssN>
2

>  <NddsN>
0

>  <NaasN>
0

>  <NssssN>
0

>  <NsOH>
0

>  <NdO>
0

>  <NssO>
0

>  <NaaO>
0

>  <NsF>
0

>  <NsSiH3>
0

>  <NssSiH2>
0

>  <NsssSiH>
0

>  <NssssSi>
0

>  <NsPH2>
0

>  <NssPH>
0

>  <NsssP>
0

>  <NdsssP>
0

>  <NsssssP>
0

>  <NsSH>
0

>  <NdS>
0

>  <NssS>
0

>  <NaaS>
1

>  <NdssS>
0

>  <NddssS>
0

>  <NsCl>
0

>  <NsBr>
0

>  <NsI>
0

>  <fragCpx>
55.04

>  <fMF>
0.35

>  <nHBAcc>
4

>  <nHBDon>
0

>  <Kier1>
14.41

>  <Kier2>
7.56

>  <Lipinski>
1

>  <GhoseFilter>
1

>  <FilterItLogS>
-3.42

>  <VMcGowan>
211.19

>  <LabuteASA>
112.69

>  <PEOE_VSA1>
9.8

>  <PEOE_VSA2>
0

>  <PEOE_VSA3>
4.98

>  <PEOE_VSA4>
0

>  <PEOE_VSA5>
11.34

>  <PEOE_VSA6>
12.13

>  <PEOE_VSA7>
37.67

>  <PEOE_VSA8>
24.16

>  <PEOE_VSA9>
6.54

>  <PEOE_VSA10>
5.82

>  <PEOE_VSA11>
0

>  <PEOE_VSA12>
0

>  <PEOE_VSA13>
0

>  <SMR_VSA1>
0

>  <SMR_VSA2>
0

>  <SMR_VSA3>
9.88

>  <SMR_VSA4>
0

>  <SMR_VSA5>
6.54

>  <SMR_VSA6>
32.08

>  <SMR_VSA7>
46.79

>  <SMR_VSA8>
0

>  <SMR_VSA9>
0

>  <SlogP_VSA1>
4.9

>  <SlogP_VSA2>
37.07

>  <SlogP_VSA3>
6.54

>  <SlogP_VSA4>
0

>  <SlogP_VSA5>
4.88

>  <SlogP_VSA6>
41.91

>  <SlogP_VSA7>
0

>  <SlogP_VSA8>
0

>  <SlogP_VSA9>
0

>  <SlogP_VSA10>
5.82

>  <SlogP_VSA11>
0

>  <EState_VSA1>
0

>  <EState_VSA2>
0

>  <EState_VSA3>
0

>  <EState_VSA4>
25.45

>  <EState_VSA5>
4.88

>  <EState_VSA6>
11.34

>  <EState_VSA7>
18.33

>  <EState_VSA8>
52.46

>  <EState_VSA9>
0

>  <EState_VSA10>
0

>  <VSA_EState1>
0

>  <VSA_EState2>
10.35

>  <VSA_EState3>
2.12

>  <VSA_EState4>
0

>  <VSA_EState5>
1.05

>  <VSA_EState6>
10.35

>  <VSA_EState7>
1.85

>  <VSA_EState8>
2.95

>  <VSA_EState9>
4.2

>  <apol>
42.25

>  <bpol>
26.08

>  <nRing>
2

>  <nHRing>
2

>  <naRing>
2

>  <naHRing>
2

>  <nARing 2>
0

>  <nAHRing 2>
0

>  <nFRing>
0

>  <nFHRing>
0

>  <nFaRing>
0

>  <nFaHRing>
0

>  <nFARing 2>
0

>  <nFAHRing 2>
0

>  <nRot>
6

>  <SLogP>
2.71

>  <SMR>
78.16

>  <TopoPSA(NO)>
19.37

>  <TopoPSA>
47.61

>  <JGI1>
0.16

>  <JGI2>
0.06

>  <JGI3>
0.03

>  <JGI4>
0.02

>  <JGI5>
0.02

>  <Diameter>
8

>  <Radius>
4

>  <TMWC10>
106.55

>  <TSRW10>
63.15

>  <MW>
261.13

>  <AMW>
7.06

>  <WPath>
637

>  <WPol>
20

>  <Zagreb1>
86

>  <Zagreb2>
95

>  <mZagreb2>
4.11

>  <yes>


>  <nAR-cont>
0.336376

>  <nHA-cont>
0.991161285

>  <MWHBN>
0.247532146

>  <MWHBN-cont>
0.963829087

>  <TPSA-cont>
0.667652636

>  <pka_cont>
0.97

>  <yes.1>


>  <BBB_SCORE>
4.593586187

>  <MMFF94 Energy>
20.28

$$$$
Compound 1337
Actelion Java MolfileCreator 2.0

  0  0  0  0  0  0              0 V3000
M  V30 BEGIN CTAB
M  V30 COUNTS 45 47 0 0 0
M  V30 BEGIN ATOM
M  V30 1 S -0.4827 -2.4961 0.4022 0
M  V30 2 C -1.5621 -1.0744 0.3225 0
M  V30 3 C 0.9702 -1.7933 1.3026 0 CFG=2
M  V30 4 C -1.2167 0.1253 -0.3323 0
M  V30 5 C -2.8297 -1.1993 0.9082 0
M  V30 6 C 0.9273 -2.2037 2.7684 0
M  V30 7 C 1.2045 -0.292 1.1369 0
M  V30 8 N 0.046 0.2989 -0.9681 0
M  V30 9 C -2.1415 1.1793 -0.3682 0
M  V30 10 C -3.7393 -0.1423 0.8677 0
M  V30 11 C 0.0226 -1.6261 3.6754 0
M  V30 12 C 1.8042 -3.1946 3.2401 0
M  V30 13 C 1.259 0.0693 -0.3279 0
M  V30 14 C 0.0518 0.6175 -2.4017 0
M  V30 15 C -3.3946 1.0464 0.2318 0
M  V30 16 C 0.0044 -2.021 5.0148 0
M  V30 17 C 1.7843 -3.5876 4.5799 0
M  V30 18 O 2.3454 0.1497 -0.9045 0
M  V30 19 C 0.5662 2.0437 -2.6965 0
M  V30 20 C 0.8859 -2.9996 5.4669 0
M  V30 21 N 0.3498 2.4779 -4.0931 0
M  V30 22 C 1.1602 1.6954 -5.0309 0
M  V30 23 C 0.6815 3.8997 -4.2279 0
M  V30 24 H 1.8263 -2.3 0.8378 0
M  V30 25 H -3.1186 -2.1254 1.4019 0
M  V30 26 H 2.1697 -0.0171 1.5835 0
M  V30 27 H 0.4658 0.3282 1.6564 0
M  V30 28 H -1.8972 2.1166 -0.8604 0
M  V30 29 H -4.7187 -0.2511 1.3275 0
M  V30 30 H -0.6846 -0.8675 3.3483 0
M  V30 31 H 2.5109 -3.6729 2.5647 0
M  V30 32 H -0.9563 0.4823 -2.813 0
M  V30 33 H 0.6995 -0.1181 -2.8937 0
M  V30 34 H -4.1039 1.87 0.1959 0
M  V30 35 H -0.7018 -1.5664 5.7048 0
M  V30 36 H 2.469 -4.3558 4.9298 0
M  V30 37 H 0.0309 2.7342 -2.0326 0
M  V30 38 H 1.6273 2.1266 -2.4292 0
M  V30 39 H 0.8697 -3.3077 6.5089 0
M  V30 40 H 0.8566 0.6439 -5.0328 0
M  V30 41 H 2.23 1.7498 -4.7991 0
M  V30 42 H 1.0132 2.0536 -6.0563 0
M  V30 43 H 1.7306 4.1052 -3.986 0
M  V30 44 H 0.0495 4.5068 -3.5699 0
M  V30 45 H 0.488 4.2451 -5.2497 0
M  V30 END ATOM
M  V30 BEGIN BOND
M  V30 1 1 1 2
M  V30 2 1 1 3
M  V30 3 2 2 4
M  V30 4 1 2 5
M  V30 5 1 3 6
M  V30 6 1 3 7
M  V30 7 1 4 8
M  V30 8 1 4 9
M  V30 9 2 5 10
M  V30 10 2 6 11
M  V30 11 1 6 12
M  V30 12 1 7 13
M  V30 13 1 8 14
M  V30 14 2 9 15
M  V30 15 1 11 16
M  V30 16 2 12 17
M  V30 17 2 13 18
M  V30 18 1 14 19
M  V30 19 2 16 20
M  V30 20 1 19 21
M  V30 21 1 21 22
M  V30 22 1 21 23
M  V30 23 1 8 13
M  V30 24 1 10 15
M  V30 25 1 17 20
M  V30 26 1 3 24
M  V30 27 1 5 25
M  V30 28 1 7 26
M  V30 29 1 7 27
M  V30 30 1 9 28
M  V30 31 1 10 29
M  V30 32 1 11 30
M  V30 33 1 12 31
M  V30 34 1 14 32
M  V30 35 1 14 33
M  V30 36 1 15 34
M  V30 37 1 16 35
M  V30 38 1 17 36
M  V30 39 1 19 37
M  V30 40 1 19 38
M  V30 41 1 20 39
M  V30 42 1 22 40
M  V30 43 1 22 41
M  V30 44 1 22 42
M  V30 45 1 23 43
M  V30 46 1 23 44
M  V30 47 1 23 45
M  V30 END BOND
M  V30 BEGIN COLLECTION
M  V30 MDLV30/STERAC1 ATOMS=(1 3)
M  V30 END COLLECTION
M  V30 END CTAB
M  END
>  <Column 1>
1594

>  <level_0>
1748

>  <index>
1748

>  <Unnamed: 0>
1748

>  <NO.>
1760

>  <Name>
thiazesim

>  <IUPAC_name>
5-[2-(dimethylamino)ethyl]-2-phenyl-2-3-dihydro-1-5-benzothiazepin-4-one

>  <SMILES>
CN(C)CCN1C(=O)CC(c2ccccc2)Sc2ccccc21

>  <CID>
22107

>  <logBB>


>  <BBB+/BBB->
BBB+

>  <Inchi>
InChI=1S/C19H22N2OS/c1-20(2)12-13-21-16-10-6-7-11-17(16)23-18(14-19(21)22)15-8-4-3-5-9-15/h3-11-18H-12-14H2-1-2H3

>  <threshold>
-1

>  <reference>
R1|R19|R6|R27|R27|R30|

>  <group>
B

>  <Class>
1

>  <ABC>
17.84

>  <ABCGG>
14.33

>  <nAcid>
0

>  <nBase>
1

>  <nAromAtom>
12

>  <nAromBond>
12

>  <nAtom>
45

>  <nHeavyAtom>
23

>  <nSpiro>
0

>  <nBridgehead>
0

>  <nHetero>
4

>  <nN>
2

>  <nO>
1

>  <nF>
0

>  <BalabanJ>
1.71

>  <BertzCT>
672.08

>  <nBonds>
47

>  <nBondsO>
25

>  <nBondsS>
34

>  <nBondsD>
1

>  <nBondsT>
0

>  <nBondsA>
12

>  <nBondsM>
13

>  <nBondsKS>
40

>  <nBondsKD>
7

>  <RNCG>
0.2

>  <RPCG>
0.14

>  <FCSP3>
0.32

>  <SZ>
29

>  <Sm>
27.18

>  <Sv>
28.38

>  <Sse>
44.5

>  <Sp>
31.32

>  <Si>
50.28

>  <MZ>
0.64

>  <Mm>
0.6

>  <Mv>
0.63

>  <Mse>
0.99

>  <Mp>
0.7

>  <Mi>
1.12

>  <NsCH3>
2

>  <NdCH2>
0

>  <NssCH2>
3

>  <NtCH>
0

>  <NdsCH>
0

>  <NaaCH>
9

>  <NsssCH>
1

>  <NddC>
0

>  <NtsC>
0

>  <NdssC>
1

>  <NaasC>
3

>  <NaaaC>
0

>  <NssssC>
0

>  <NsNH3>
0

>  <NsNH2>
0

>  <NssNH2>
0

>  <NdNH>
0

>  <NssNH>
0

>  <NaaNH>
0

>  <NtN>
0

>  <NsssNH>
0

>  <NdsN>
0

>  <NaaN>
0

>  <NsssN>
2

>  <NddsN>
0

>  <NaasN>
0

>  <NssssN>
0

>  <NsOH>
0

>  <NdO>
1

>  <NssO>
0

>  <NaaO>
0

>  <NsF>
0

>  <NsSiH3>
0

>  <NssSiH2>
0

>  <NsssSiH>
0

>  <NssssSi>
0

>  <NsPH2>
0

>  <NssPH>
0

>  <NsssP>
0

>  <NdsssP>
0

>  <NsssssP>
0

>  <NsSH>
0

>  <NdS>
0

>  <NssS>
1

>  <NaaS>
0

>  <NdssS>
0

>  <NddssS>
0

>  <NsCl>
0

>  <NsBr>
0

>  <NsI>
0

>  <fragCpx>
119.04

>  <fMF>
0.38

>  <nHBAcc>
3

>  <nHBDon>
0

>  <Kier1>
17.81

>  <Kier2>
8.39

>  <Lipinski>
1

>  <GhoseFilter>
1

>  <FilterItLogS>
-4.38

>  <VMcGowan>
258.07

>  <LabuteASA>
141.84

>  <PEOE_VSA1>
9.8

>  <PEOE_VSA2>
4.79

>  <PEOE_VSA3>
0

>  <PEOE_VSA4>
0

>  <PEOE_VSA5>
11.76

>  <PEOE_VSA6>
42.46

>  <PEOE_VSA7>
31.79

>  <PEOE_VSA8>
29.66

>  <PEOE_VSA9>
5.69

>  <PEOE_VSA10>
0

>  <PEOE_VSA11>
0

>  <PEOE_VSA12>
5.91

>  <PEOE_VSA13>
0

>  <SMR_VSA1>
4.79

>  <SMR_VSA2>
0

>  <SMR_VSA3>
4.9

>  <SMR_VSA4>
0

>  <SMR_VSA5>
16.57

>  <SMR_VSA6>
32.08

>  <SMR_VSA7>
60.16

>  <SMR_VSA8>
0

>  <SMR_VSA9>
0

>  <SlogP_VSA1>
4.9

>  <SlogP_VSA2>
37.99

>  <SlogP_VSA3>
4.79

>  <SlogP_VSA4>
0

>  <SlogP_VSA5>
17.23

>  <SlogP_VSA6>
59.49

>  <SlogP_VSA7>
0

>  <SlogP_VSA8>
0

>  <SlogP_VSA9>
0

>  <SlogP_VSA10>
5.69

>  <SlogP_VSA11>
0

>  <EState_VSA1>
0

>  <EState_VSA2>
11.16

>  <EState_VSA3>
6.42

>  <EState_VSA4>
18.78

>  <EState_VSA5>
10.46

>  <EState_VSA6>
11.76

>  <EState_VSA7>
49.33

>  <EState_VSA8>
29.17

>  <EState_VSA9>
0

>  <EState_VSA10>
4.79

>  <VSA_EState1>
0

>  <VSA_EState2>
18.12

>  <VSA_EState3>
0.18

>  <VSA_EState4>
2.26

>  <VSA_EState5>
0.21

>  <VSA_EState6>
18.57

>  <VSA_EState7>
0.54

>  <VSA_EState8>
1.59

>  <VSA_EState9>
4.07

>  <apol>
52.3

>  <bpol>
28.82

>  <nRing>
3

>  <nHRing>
1

>  <naRing>
2

>  <naHRing>
0

>  <nARing 2>
1

>  <nAHRing 2>
1

>  <nFRing>
1

>  <nFHRing>
1

>  <nFaRing>
0

>  <nFaHRing>
0

>  <nFARing 2>
1

>  <nFAHRing 2>
1

>  <nRot>
4

>  <SLogP>
3.82

>  <SMR>
97.01

>  <TopoPSA(NO)>
23.55

>  <TopoPSA>
48.85

>  <JGI1>
0.16

>  <JGI2>
0.07

>  <JGI3>
0.04

>  <JGI4>
0.03

>  <JGI5>
0.03

>  <Diameter>
11

>  <Radius>
6

>  <TMWC10>
122.2

>  <TSRW10>
65.21

>  <MW>
326.15

>  <AMW>
7.25

>  <WPath>
1139

>  <WPol>
38

>  <Zagreb1>
118

>  <Zagreb2>
137

>  <mZagreb2>
5.11

>  <yes>


>  <nAR-cont>
0.816016

>  <nHA-cont>
0.967789328

>  <MWHBN>
0.16611642

>  <MWHBN-cont>
0.967518735

>  <TPSA-cont>
0.658996666

>  <pka_cont>
0.97

>  <yes.1>


>  <BBB_SCORE>
5.038076762

>  <MMFF94 Energy>
68.006

$$$$
Compound 1338
Actelion Java MolfileCreator 2.0

  0  0  0  0  0  0              0 V3000
M  V30 BEGIN CTAB
M  V30 COUNTS 43 45 0 0 0
M  V30 BEGIN ATOM
M  V30 1 O 2.6151 0.0 -0.0791 0
M  V30 2 C 1.4539 -0.0027 0.3437 0
M  V30 3 N 0.3524 0.2814 -0.469 0
M  V30 4 C 1.2997 -0.2829 1.7909 0
M  V30 5 C -1.0021 0.2445 -0.0224 0
M  V30 6 C 0.6247 0.9275 -1.7667 0
M  V30 7 C 0.4767 0.5076 2.6128 0
M  V30 8 C 2.1743 -1.2336 2.3499 0
M  V30 9 C -1.41 0.9467 1.1316 0
M  V30 10 C -1.9588 -0.4321 -0.7929 0
M  V30 11 C 0.2729 0.1566 -3.0622 0
M  V30 12 N -0.4608 1.4104 2.0681 0
M  V30 13 C 0.5623 0.3026 4.0049 0
M  V30 14 C 2.2267 -1.4255 3.7275 0
M  V30 15 C -2.7909 1.0496 1.3957 0
M  V30 16 C -3.3181 -0.3403 -0.4978 0
M  V30 17 N 0.6941 -1.2551 -3.1357 0
M  V30 18 C -0.769 2.6246 2.8178 0
M  V30 19 C 1.4232 -0.6525 4.5559 0
M  V30 20 C -3.7369 0.423 0.5825 0
M  V30 21 C 2.151 -1.3754 -3.2278 0
M  V30 22 C 0.0745 -1.9127 -4.2877 0
M  V30 23 H 1.6831 1.2085 -1.8194 0
M  V30 24 H 0.08 1.8816 -1.7715 0
M  V30 25 H 2.8346 -1.8067 1.702 0
M  V30 26 H -1.651 -1.0585 -1.6241 0
M  V30 27 H -0.8144 0.2132 -3.1913 0
M  V30 28 H 0.6841 0.7167 -3.9138 0
M  V30 29 H -0.0727 0.8619 4.686 0
M  V30 30 H 2.9043 -2.1625 4.1498 0
M  V30 31 H -3.1488 1.5709 2.2786 0
M  V30 32 H -4.0437 -0.8676 -1.1112 0
M  V30 33 H 0.1439 3.0726 3.2281 0
M  V30 34 H -1.46 2.4302 3.6458 0
M  V30 35 H -1.2171 3.3835 2.1652 0
M  V30 36 H 1.4579 -0.7937 5.6332 0
M  V30 37 H -4.7945 0.4977 0.821 0
M  V30 38 H 2.6488 -0.9407 -2.3598 0
M  V30 39 H 2.5476 -0.8891 -4.1265 0
M  V30 40 H 2.4453 -2.4308 -3.2522 0
M  V30 41 H 0.3608 -1.4436 -5.236 0
M  V30 42 H -1.0177 -1.8859 -4.2054 0
M  V30 43 H 0.3568 -2.9707 -4.3259 0
M  V30 END ATOM
M  V30 BEGIN BOND
M  V30 1 2 1 2
M  V30 2 1 2 3
M  V30 3 1 2 4
M  V30 4 1 3 5
M  V30 5 1 3 6
M  V30 6 2 4 7
M  V30 7 1 4 8
M  V30 8 2 5 9
M  V30 9 1 5 10
M  V30 10 1 6 11
M  V30 11 1 7 12
M  V30 12 1 7 13
M  V30 13 2 8 14
M  V30 14 1 9 15
M  V30 15 2 10 16
M  V30 16 1 11 17
M  V30 17 1 12 18
M  V30 18 2 13 19
M  V30 19 2 15 20
M  V30 20 1 17 21
M  V30 21 1 17 22
M  V30 22 1 9 12
M  V30 23 1 14 19
M  V30 24 1 16 20
M  V30 25 1 6 23
M  V30 26 1 6 24
M  V30 27 1 8 25
M  V30 28 1 10 26
M  V30 29 1 11 27
M  V30 30 1 11 28
M  V30 31 1 13 29
M  V30 32 1 14 30
M  V30 33 1 15 31
M  V30 34 1 16 32
M  V30 35 1 18 33
M  V30 36 1 18 34
M  V30 37 1 18 35
M  V30 38 1 19 36
M  V30 39 1 20 37
M  V30 40 1 21 38
M  V30 41 1 21 39
M  V30 42 1 21 40
M  V30 43 1 22 41
M  V30 44 1 22 42
M  V30 45 1 22 43
M  V30 END BOND
M  V30 END CTAB
M  END
>  <Column 1>
1595

>  <level_0>
1749

>  <index>
1749

>  <Unnamed: 0>
1749

>  <NO.>
1761

>  <Name>
dibenzepin

>  <IUPAC_name>
5-[2-(dimethylamino)ethyl]-11-methylbenzo[b][1-4]benzodiazepin-6-one

>  <SMILES>
CN(C)CCN1C(=O)c2ccccc2N(C)c2ccccc21

>  <CID>
9419

>  <logBB>


>  <BBB+/BBB->
BBB+

>  <Inchi>
InChI=1S/C18H21N3O/c1-19(2)12-13-21-17-11-7-6-10-16(17)20(3)15-9-5-4-8-14(15)18(21)22/h4-11H-12-13H2-1-3H3

>  <threshold>
-1

>  <reference>
R1|R13|R19|R6|R14|R23|R24|R27|R27|R27|R30|R30|

>  <group>
B

>  <Class>
1

>  <ABC>
17.13

>  <ABCGG>
14.22

>  <nAcid>
0

>  <nBase>
1

>  <nAromAtom>
12

>  <nAromBond>
12

>  <nAtom>
43

>  <nHeavyAtom>
22

>  <nSpiro>
0

>  <nBridgehead>
0

>  <nHetero>
4

>  <nN>
3

>  <nO>
1

>  <nF>
0

>  <BalabanJ>
1.85

>  <BertzCT>
696.24

>  <nBonds>
45

>  <nBondsO>
24

>  <nBondsS>
32

>  <nBondsD>
1

>  <nBondsT>
0

>  <nBondsA>
12

>  <nBondsM>
13

>  <nBondsKS>
38

>  <nBondsKD>
7

>  <RNCG>
0.21

>  <RPCG>
0.16

>  <FCSP3>
0.28

>  <SZ>
26.33

>  <Sm>
24.59

>  <Sv>
26.68

>  <Sse>
42.64

>  <Sp>
28.84

>  <Si>
48.44

>  <MZ>
0.61

>  <Mm>
0.57

>  <Mv>
0.62

>  <Mse>
0.99

>  <Mp>
0.67

>  <Mi>
1.13

>  <NsCH3>
3

>  <NdCH2>
0

>  <NssCH2>
2

>  <NtCH>
0

>  <NdsCH>
0

>  <NaaCH>
8

>  <NsssCH>
0

>  <NddC>
0

>  <NtsC>
0

>  <NdssC>
1

>  <NaasC>
4

>  <NaaaC>
0

>  <NssssC>
0

>  <NsNH3>
0

>  <NsNH2>
0

>  <NssNH2>
0

>  <NdNH>
0

>  <NssNH>
0

>  <NaaNH>
0

>  <NtN>
0

>  <NsssNH>
0

>  <NdsN>
0

>  <NaaN>
0

>  <NsssN>
3

>  <NddsN>
0

>  <NaasN>
0

>  <NssssN>
0

>  <NsOH>
0

>  <NdO>
1

>  <NssO>
0

>  <NaaO>
0

>  <NsF>
0

>  <NsSiH3>
0

>  <NssSiH2>
0

>  <NsssSiH>
0

>  <NssssSi>
0

>  <NsPH2>
0

>  <NssPH>
0

>  <NsssP>
0

>  <NdsssP>
0

>  <NsssssP>
0

>  <NsSH>
0

>  <NdS>
0

>  <NssS>
0

>  <NaaS>
0

>  <NdssS>
0

>  <NddssS>
0

>  <NsCl>
0

>  <NsBr>
0

>  <NsI>
0

>  <fragCpx>
114.04

>  <fMF>
0.35

>  <nHBAcc>
3

>  <nHBDon>
0

>  <Kier1>
16.84

>  <Kier2>
7.27

>  <Lipinski>
1

>  <GhoseFilter>
1

>  <FilterItLogS>
-3.84

>  <VMcGowan>
237.61

>  <LabuteASA>
131.11

>  <PEOE_VSA1>
14.7

>  <PEOE_VSA2>
4.79

>  <PEOE_VSA3>
0

>  <PEOE_VSA4>
0

>  <PEOE_VSA5>
0

>  <PEOE_VSA6>
24.27

>  <PEOE_VSA7>
38.36

>  <PEOE_VSA8>
20.14

>  <PEOE_VSA9>
22.63

>  <PEOE_VSA10>
0

>  <PEOE_VSA11>
0

>  <PEOE_VSA12>
0

>  <PEOE_VSA13>
5.91

>  <SMR_VSA1>
4.79

>  <SMR_VSA2>
0

>  <SMR_VSA3>
4.9

>  <SMR_VSA4>
0

>  <SMR_VSA5>
0

>  <SMR_VSA6>
44.03

>  <SMR_VSA7>
54.09

>  <SMR_VSA8>
0

>  <SMR_VSA9>
0

>  <SlogP_VSA1>
9.8

>  <SlogP_VSA2>
45.04

>  <SlogP_VSA3>
0

>  <SlogP_VSA4>
0

>  <SlogP_VSA5>
10.36

>  <SlogP_VSA6>
48.53

>  <SlogP_VSA7>
0

>  <SlogP_VSA8>
0

>  <SlogP_VSA9>
0

>  <SlogP_VSA10>
17.06

>  <SlogP_VSA11>
0

>  <EState_VSA1>
0

>  <EState_VSA2>
5.91

>  <EState_VSA3>
6.54

>  <EState_VSA4>
29.17

>  <EState_VSA5>
0

>  <EState_VSA6>
0

>  <EState_VSA7>
68.51

>  <EState_VSA8>
15.87

>  <EState_VSA9>
0

>  <EState_VSA10>
4.79

>  <VSA_EState1>
0

>  <VSA_EState2>
19.11

>  <VSA_EState3>
0

>  <VSA_EState4>
3.72

>  <VSA_EState5>
0.06

>  <VSA_EState6>
15.88

>  <VSA_EState7>
0

>  <VSA_EState8>
1.5

>  <VSA_EState9>
6.06

>  <apol>
48.16

>  <bpol>
27.07

>  <nRing>
3

>  <nHRing>
1

>  <naRing>
2

>  <naHRing>
0

>  <nARing 2>
1

>  <nAHRing 2>
1

>  <nFRing>
1

>  <nFHRing>
1

>  <nFaRing>
0

>  <nFaHRing>
0

>  <nFARing 2>
1

>  <nFAHRing 2>
1

>  <nRot>
3

>  <SLogP>
2.98

>  <SMR>
91.18

>  <TopoPSA(NO)>
26.79

>  <TopoPSA>
26.79

>  <JGI1>
0.15

>  <JGI2>
0.08

>  <JGI3>
0.05

>  <JGI4>
0.05

>  <JGI5>
0.02

>  <Diameter>
9

>  <Radius>
5

>  <TMWC10>
121.12

>  <TSRW10>
64.57

>  <MW>
295.17

>  <AMW>
6.86

>  <WPath>
931

>  <WPol>
41

>  <Zagreb1>
116

>  <Zagreb2>
139

>  <mZagreb2>
4.86

>  <yes>


>  <nAR-cont>
0.816016

>  <nHA-cont>
0.983774276

>  <MWHBN>
0.174616447

>  <MWHBN-cont>
0.980659143

>  <TPSA-cont>
0.812989164

>  <pka_cont>
0.97

>  <yes.1>


>  <BBB_SCORE>
5.381757319

>  <MMFF94 Energy>
115.94

$$$$
Compound 1339
Actelion Java MolfileCreator 2.0

  0  0  0  0  0  0              0 V3000
M  V30 BEGIN CTAB
M  V30 COUNTS 36 37 0 0 0
M  V30 BEGIN ATOM
M  V30 1 Cl -0.7155 3.1033 -5.0966 0
M  V30 2 C -0.54 1.5053 -4.4796 0
M  V30 3 C -0.0585 1.3101 -3.1839 0
M  V30 4 C -0.8741 0.4196 -5.2845 0
M  V30 5 C 0.0937 0.0159 -2.6726 0
M  V30 6 C -0.7235 -0.8728 -4.7896 0
M  V30 7 N 0.5956 -0.1967 -1.3694 0
M  V30 8 C -0.24 -1.0723 -3.4928 0
M  V30 9 C 0.4729 0.6857 -0.2759 0
M  V30 10 C 1.2475 -1.4204 -0.9566 0
M  V30 11 O -0.0889 1.7688 -0.2375 0
M  V30 12 N 1.1314 0.0927 0.8056 0
M  V30 13 C 1.8584 -1.0808 0.3941 0
M  V30 14 C 1.343 0.7376 2.0884 0
M  V30 15 C 0.0596 1.0328 2.8957 0
M  V30 16 N -0.5389 -0.1418 3.5745 0
M  V30 17 C -1.256 -1.0002 2.6279 0
M  V30 18 C -1.4776 0.3181 4.6051 0
M  V30 19 H 0.2043 2.1787 -2.5861 0
M  V30 20 H -1.2501 0.575 -6.292 0
M  V30 21 H -0.9851 -1.7261 -5.4102 0
M  V30 22 H -0.1469 -2.0936 -3.1351 0
M  V30 23 H 0.4864 -2.2009 -0.8452 0
M  V30 24 H 2.0051 -1.7373 -1.6799 0
M  V30 25 H 1.7501 -1.8889 1.1226 0
M  V30 26 H 2.9152 -0.8108 0.2957 0
M  V30 27 H 1.8473 1.6891 1.8808 0
M  V30 28 H 2.0289 0.1246 2.6848 0
M  V30 29 H 0.3672 1.7466 3.6721 0
M  V30 30 H -0.6866 1.5503 2.2809 0
M  V30 31 H -0.5698 -1.4898 1.9343 0
M  V30 32 H -2.0077 -0.4492 2.0512 0
M  V30 33 H -1.7653 -1.8138 3.1581 0
M  V30 34 H -2.2939 0.9169 4.1847 0
M  V30 35 H -0.9584 0.9206 5.3589 0
M  V30 36 H -1.913 -0.5345 5.1385 0
M  V30 END ATOM
M  V30 BEGIN BOND
M  V30 1 1 1 2
M  V30 2 2 2 3
M  V30 3 1 2 4
M  V30 4 1 3 5
M  V30 5 2 4 6
M  V30 6 1 5 7
M  V30 7 2 5 8
M  V30 8 1 7 9
M  V30 9 1 7 10
M  V30 10 2 9 11
M  V30 11 1 9 12
M  V30 12 1 10 13
M  V30 13 1 12 14
M  V30 14 1 14 15
M  V30 15 1 15 16
M  V30 16 1 16 17
M  V30 17 1 16 18
M  V30 18 1 6 8
M  V30 19 1 12 13
M  V30 20 1 3 19
M  V30 21 1 4 20
M  V30 22 1 6 21
M  V30 23 1 8 22
M  V30 24 1 10 23
M  V30 25 1 10 24
M  V30 26 1 13 25
M  V30 27 1 13 26
M  V30 28 1 14 27
M  V30 29 1 14 28
M  V30 30 1 15 29
M  V30 31 1 15 30
M  V30 32 1 17 31
M  V30 33 1 17 32
M  V30 34 1 17 33
M  V30 35 1 18 34
M  V30 36 1 18 35
M  V30 37 1 18 36
M  V30 END BOND
M  V30 END CTAB
M  END
>  <Column 1>
1596

>  <level_0>
1750

>  <index>
1750

>  <Unnamed: 0>
1750

>  <NO.>
1762

>  <Name>
imidoline

>  <IUPAC_name>
1-(3-chlorophenyl)-3-[2-(dimethylamino)ethyl]imidazolidin-2-one

>  <SMILES>
CN(C)CCN1CCN(c2cccc(Cl)c2)C1=O

>  <CID>
23728

>  <logBB>


>  <BBB+/BBB->
BBB+

>  <Inchi>
InChI=1S/C13H18ClN3O/c1-15(2)6-7-16-8-9-17(13(16)18)12-5-3-4-11(14)10-12/h3-5-10H-6-9H2-1-2H3

>  <threshold>
-1

>  <reference>
R1|R13|R19|R6|R24|R27|R27|R27|R30|R30|

>  <group>
B

>  <Class>
1

>  <ABC>
13.75

>  <ABCGG>
12.1

>  <nAcid>
0

>  <nBase>
1

>  <nAromAtom>
6

>  <nAromBond>
6

>  <nAtom>
36

>  <nHeavyAtom>
18

>  <nSpiro>
0

>  <nBridgehead>
0

>  <nHetero>
5

>  <nN>
3

>  <nO>
1

>  <nF>
0

>  <BalabanJ>
1.84

>  <BertzCT>
436

>  <nBonds>
37

>  <nBondsO>
19

>  <nBondsS>
30

>  <nBondsD>
1

>  <nBondsT>
0

>  <nBondsA>
6

>  <nBondsM>
7

>  <nBondsKS>
33

>  <nBondsKD>
4

>  <RNCG>
0.22

>  <RPCG>
0.22

>  <FCSP3>
0.46

>  <SZ>
23.67

>  <Sm>
22.29

>  <Sv>
21.96

>  <Sse>
36.08

>  <Sp>
23.95

>  <Si>
40.97

>  <MZ>
0.66

>  <Mm>
0.62

>  <Mv>
0.61

>  <Mse>
1

>  <Mp>
0.67

>  <Mi>
1.14

>  <NsCH3>
2

>  <NdCH2>
0

>  <NssCH2>
4

>  <NtCH>
0

>  <NdsCH>
0

>  <NaaCH>
4

>  <NsssCH>
0

>  <NddC>
0

>  <NtsC>
0

>  <NdssC>
1

>  <NaasC>
2

>  <NaaaC>
0

>  <NssssC>
0

>  <NsNH3>
0

>  <NsNH2>
0

>  <NssNH2>
0

>  <NdNH>
0

>  <NssNH>
0

>  <NaaNH>
0

>  <NtN>
0

>  <NsssNH>
0

>  <NdsN>
0

>  <NaaN>
0

>  <NsssN>
3

>  <NddsN>
0

>  <NaasN>
0

>  <NssssN>
0

>  <NsOH>
0

>  <NdO>
1

>  <NssO>
0

>  <NaaO>
0

>  <NsF>
0

>  <NsSiH3>
0

>  <NssSiH2>
0

>  <NsssSiH>
0

>  <NssssSi>
0

>  <NsPH2>
0

>  <NssPH>
0

>  <NsssP>
0

>  <NdsssP>
0

>  <NsssssP>
0

>  <NsSH>
0

>  <NdS>
0

>  <NssS>
0

>  <NaaS>
0

>  <NdssS>
0

>  <NddssS>
0

>  <NsCl>
1

>  <NsBr>
0

>  <NsI>
0

>  <fragCpx>
55.05

>  <fMF>
0.31

>  <nHBAcc>
2

>  <nHBDon>
0

>  <Kier1>
14.41

>  <Kier2>
6.44

>  <Lipinski>
1

>  <GhoseFilter>
1

>  <FilterItLogS>
-2.72

>  <VMcGowan>
203.16

>  <LabuteASA>
112.72

>  <PEOE_VSA1>
9.8

>  <PEOE_VSA2>
4.9

>  <PEOE_VSA3>
4.79

>  <PEOE_VSA4>
0

>  <PEOE_VSA5>
0

>  <PEOE_VSA6>
17.67

>  <PEOE_VSA7>
32.29

>  <PEOE_VSA8>
36.89

>  <PEOE_VSA9>
0

>  <PEOE_VSA10>
0

>  <PEOE_VSA11>
0

>  <PEOE_VSA12>
0

>  <PEOE_VSA13>
0

>  <SMR_VSA1>
4.79

>  <SMR_VSA2>
0

>  <SMR_VSA3>
9.8

>  <SMR_VSA4>
0

>  <SMR_VSA5>
0

>  <SMR_VSA6>
45.17

>  <SMR_VSA7>
29.29

>  <SMR_VSA8>
0

>  <SMR_VSA9>
0

>  <SlogP_VSA1>
4.9

>  <SlogP_VSA2>
56.11

>  <SlogP_VSA3>
0

>  <SlogP_VSA4>
0

>  <SlogP_VSA5>
0

>  <SlogP_VSA6>
24.27

>  <SlogP_VSA7>
5.02

>  <SlogP_VSA8>
0

>  <SlogP_VSA9>
0

>  <SlogP_VSA10>
10.48

>  <SlogP_VSA11>
0

>  <EState_VSA1>
0

>  <EState_VSA2>
6.03

>  <EState_VSA3>
5.02

>  <EState_VSA4>
31.87

>  <EState_VSA5>
0

>  <EState_VSA6>
4.9

>  <EState_VSA7>
43.26

>  <EState_VSA8>
4.9

>  <EState_VSA9>
11.6

>  <EState_VSA10>
4.79

>  <VSA_EState1>
0

>  <VSA_EState2>
17.95

>  <VSA_EState3>
0.66

>  <VSA_EState4>
0.87

>  <VSA_EState5>
0

>  <VSA_EState6>
7.5

>  <VSA_EState7>
0

>  <VSA_EState8>
3.16

>  <VSA_EState9>
4.02

>  <apol>
39.99

>  <bpol>
24.57

>  <nRing>
2

>  <nHRing>
1

>  <naRing>
1

>  <naHRing>
0

>  <nARing 2>
1

>  <nAHRing 2>
1

>  <nFRing>
0

>  <nFHRing>
0

>  <nFaRing>
0

>  <nFaHRing>
0

>  <nFARing 2>
0

>  <nFAHRing 2>
0

>  <nRot>
4

>  <SLogP>
2.14

>  <SMR>
74.32

>  <TopoPSA(NO)>
26.79

>  <TopoPSA>
26.79

>  <JGI1>
0.21

>  <JGI2>
0.09

>  <JGI3>
0.05

>  <JGI4>
0.04

>  <JGI5>
0.03

>  <Diameter>
10

>  <Radius>
5

>  <TMWC10>
108.35

>  <TSRW10>
64.61

>  <MW>
267.11

>  <AMW>
7.42

>  <WPath>
643

>  <WPol>
24

>  <Zagreb1>
90

>  <Zagreb2>
103

>  <mZagreb2>
4

>  <yes>


>  <nAR-cont>
0.816016

>  <nHA-cont>
0.991161285

>  <MWHBN>
0.122372807

>  <MWHBN-cont>
0.839439424

>  <TPSA-cont>
0.812989164

>  <pka_cont>
0.97

>  <yes.1>


>  <BBB_SCORE>
5.177314749

>  <MMFF94 Energy>
7.2599

$$$$
Compound 1340
Actelion Java MolfileCreator 2.0

  0  0  0  0  0  0              0 V3000
M  V30 BEGIN CTAB
M  V30 COUNTS 41 41 0 0 0
M  V30 BEGIN ATOM
M  V30 1 O -0.0779 0.9356 3.2779 0
M  V30 2 C -0.2105 0.1496 2.3503 0
M  V30 3 O 0.5377 -0.9684 2.1493 0
M  V30 4 C -1.2264 0.3048 1.2482 0
M  V30 5 C 1.5693 -1.1701 3.1281 0
M  V30 6 C -0.5954 0.9733 0.0304 0
M  V30 7 C 2.3561 -2.4502 2.799 0
M  V30 8 C -1.5279 1.0234 -1.1943 0
M  V30 9 N 3.4409 -2.2765 1.808 0
M  V30 10 C -2.7856 1.8698 -0.9375 0
M  V30 11 C -0.7559 1.5642 -2.4106 0
M  V30 12 C 2.9344 -1.869 0.4966 0
M  V30 13 C 4.2018 -3.5225 1.6806 0
M  V30 14 C -3.6632 1.9827 -2.1829 0
M  V30 15 C -1.6407 1.6696 -3.6497 0
M  V30 16 C -2.8826 2.5113 -3.3805 0
M  V30 17 H -2.0568 0.8979 1.646 0
M  V30 18 H -1.634 -0.6816 0.9996 0
M  V30 19 H 1.0942 -1.2941 4.1089 0
M  V30 20 H 2.2376 -0.3011 3.1641 0
M  V30 21 H 0.3181 0.429 -0.242 0
M  V30 22 H -0.2736 1.9881 0.2989 0
M  V30 23 H 2.8171 -2.7836 3.7375 0
M  V30 24 H 1.6633 -3.2361 2.4711 0
M  V30 25 H -1.8458 -0.0025 -1.4253 0
M  V30 26 H -3.3846 1.4304 -0.1324 0
M  V30 27 H -2.4954 2.8754 -0.6075 0
M  V30 28 H -0.3423 2.5541 -2.1782 0
M  V30 29 H 0.0951 0.9096 -2.6334 0
M  V30 30 H 2.5088 -0.8617 0.5352 0
M  V30 31 H 2.1763 -2.5602 0.1116 0
M  V30 32 H 3.7509 -1.8175 -0.233 0
M  V30 33 H 3.5824 -4.3494 1.3148 0
M  V30 34 H 4.6319 -3.813 2.6457 0
M  V30 35 H 5.0443 -3.391 0.9924 0
M  V30 36 H -4.5118 2.6445 -1.9756 0
M  V30 37 H -4.0793 0.997 -2.4247 0
M  V30 38 H -1.0688 2.11 -4.4742 0
M  V30 39 H -1.9414 0.6646 -3.9702 0
M  V30 40 H -2.5869 3.5512 -3.1944 0
M  V30 41 H -3.5255 2.5156 -4.2678 0
M  V30 END ATOM
M  V30 BEGIN BOND
M  V30 1 2 1 2
M  V30 2 1 2 3
M  V30 3 1 2 4
M  V30 4 1 3 5
M  V30 5 1 4 6
M  V30 6 1 5 7
M  V30 7 1 6 8
M  V30 8 1 7 9
M  V30 9 1 8 10
M  V30 10 1 8 11
M  V30 11 1 9 12
M  V30 12 1 9 13
M  V30 13 1 10 14
M  V30 14 1 11 15
M  V30 15 1 14 16
M  V30 16 1 15 16
M  V30 17 1 4 17
M  V30 18 1 4 18
M  V30 19 1 5 19
M  V30 20 1 5 20
M  V30 21 1 6 21
M  V30 22 1 6 22
M  V30 23 1 7 23
M  V30 24 1 7 24
M  V30 25 1 8 25
M  V30 26 1 10 26
M  V30 27 1 10 27
M  V30 28 1 11 28
M  V30 29 1 11 29
M  V30 30 1 12 30
M  V30 31 1 12 31
M  V30 32 1 12 32
M  V30 33 1 13 33
M  V30 34 1 13 34
M  V30 35 1 13 35
M  V30 36 1 14 36
M  V30 37 1 14 37
M  V30 38 1 15 38
M  V30 39 1 15 39
M  V30 40 1 16 40
M  V30 41 1 16 41
M  V30 END BOND
M  V30 END CTAB
M  END
>  <Column 1>
1598

>  <level_0>
1752

>  <index>
1752

>  <Unnamed: 0>
1752

>  <NO.>
1764

>  <Name>
cyprodenate

>  <IUPAC_name>
2-(dimethylamino)ethyl 3-cyclohexylpropanoate

>  <SMILES>
CN(C)CCOC(=O)CCC1CCCCC1

>  <CID>
71875

>  <logBB>


>  <BBB+/BBB->
BBB+

>  <Inchi>
InChI=1S/C13H25NO2/c1-14(2)10-11-16-13(15)9-8-12-6-4-3-5-7-12/h12H-3-11H2-1-2H3

>  <threshold>
-1

>  <reference>
R1|R13|R19|R6|R24|R27|R27|R27|R30|R30|

>  <group>
B

>  <Class>
1

>  <ABC>
11.64

>  <ABCGG>
10.04

>  <nAcid>
0

>  <nBase>
1

>  <nAromAtom>
0

>  <nAromBond>
0

>  <nAtom>
41

>  <nHeavyAtom>
16

>  <nSpiro>
0

>  <nBridgehead>
0

>  <nHetero>
3

>  <nN>
1

>  <nO>
2

>  <nF>
0

>  <BalabanJ>
1.98

>  <BertzCT>
198.11

>  <nBonds>
41

>  <nBondsO>
16

>  <nBondsS>
40

>  <nBondsD>
1

>  <nBondsT>
0

>  <nBondsA>
0

>  <nBondsM>
1

>  <nBondsKS>
40

>  <nBondsKD>
1

>  <RNCG>
0.33

>  <RPCG>
0.22

>  <FCSP3>
0.92

>  <SZ>
21

>  <Sm>
18.93

>  <Sv>
21.96

>  <Sse>
40.42

>  <Sp>
24.6

>  <Si>
46.9

>  <MZ>
0.51

>  <Mm>
0.46

>  <Mv>
0.54

>  <Mse>
0.99

>  <Mp>
0.6

>  <Mi>
1.14

>  <NsCH3>
2

>  <NdCH2>
0

>  <NssCH2>
9

>  <NtCH>
0

>  <NdsCH>
0

>  <NaaCH>
0

>  <NsssCH>
1

>  <NddC>
0

>  <NtsC>
0

>  <NdssC>
1

>  <NaasC>
0

>  <NaaaC>
0

>  <NssssC>
0

>  <NsNH3>
0

>  <NsNH2>
0

>  <NssNH2>
0

>  <NdNH>
0

>  <NssNH>
0

>  <NaaNH>
0

>  <NtN>
0

>  <NsssNH>
0

>  <NdsN>
0

>  <NaaN>
0

>  <NsssN>
1

>  <NddsN>
0

>  <NaasN>
0

>  <NssssN>
0

>  <NsOH>
0

>  <NdO>
1

>  <NssO>
1

>  <NaaO>
0

>  <NsF>
0

>  <NsSiH3>
0

>  <NssSiH2>
0

>  <NsssSiH>
0

>  <NssssSi>
0

>  <NsPH2>
0

>  <NssPH>
0

>  <NsssP>
0

>  <NdsssP>
0

>  <NsssssP>
0

>  <NsSH>
0

>  <NdS>
0

>  <NssS>
0

>  <NaaS>
0

>  <NdssS>
0

>  <NddssS>
0

>  <NsCl>
0

>  <NsBr>
0

>  <NsI>
0

>  <fragCpx>
16.03

>  <fMF>
0.15

>  <nHBAcc>
3

>  <nHBDon>
0

>  <Kier1>
14.06

>  <Kier2>
8.14

>  <Lipinski>
1

>  <GhoseFilter>
1

>  <FilterItLogS>
-2.74

>  <VMcGowan>
200.59

>  <LabuteASA>
99.15

>  <PEOE_VSA1>
9.64

>  <PEOE_VSA2>
4.79

>  <PEOE_VSA3>
0

>  <PEOE_VSA4>
0

>  <PEOE_VSA5>
0

>  <PEOE_VSA6>
32.1

>  <PEOE_VSA7>
26.43

>  <PEOE_VSA8>
12.97

>  <PEOE_VSA9>
0

>  <PEOE_VSA10>
6.61

>  <PEOE_VSA11>
0

>  <PEOE_VSA12>
0

>  <PEOE_VSA13>
0

>  <SMR_VSA1>
9.53

>  <SMR_VSA2>
0

>  <SMR_VSA3>
4.9

>  <SMR_VSA4>
5.92

>  <SMR_VSA5>
44.95

>  <SMR_VSA6>
27.25

>  <SMR_VSA7>
0

>  <SMR_VSA8>
0

>  <SMR_VSA9>
0

>  <SlogP_VSA1>
0

>  <SlogP_VSA2>
38.12

>  <SlogP_VSA3>
9.53

>  <SlogP_VSA4>
5.92

>  <SlogP_VSA5>
44.95

>  <SlogP_VSA6>
0

>  <SlogP_VSA7>
0

>  <SlogP_VSA8>
0

>  <SlogP_VSA9>
0

>  <SlogP_VSA10>
0

>  <SlogP_VSA11>
0

>  <EState_VSA1>
0

>  <EState_VSA2>
5.97

>  <EState_VSA3>
13.03

>  <EState_VSA4>
18.88

>  <EState_VSA5>
32.1

>  <EState_VSA6>
0

>  <EState_VSA7>
19

>  <EState_VSA8>
0

>  <EState_VSA9>
4.74

>  <EState_VSA10>
4.79

>  <VSA_EState1>
5.16

>  <VSA_EState2>
13.45

>  <VSA_EState3>
0

>  <VSA_EState4>
0

>  <VSA_EState5>
0.75

>  <VSA_EState6>
0

>  <VSA_EState7>
8.33

>  <VSA_EState8>
1.34

>  <VSA_EState9>
3.96

>  <apol>
41.08

>  <bpol>
29.39

>  <nRing>
1

>  <nHRing>
0

>  <naRing>
0

>  <naHRing>
0

>  <nARing 2>
1

>  <nAHRing 2>
0

>  <nFRing>
0

>  <nFHRing>
0

>  <nFaRing>
0

>  <nFaHRing>
0

>  <nFARing 2>
0

>  <nFAHRing 2>
0

>  <nRot>
6

>  <SLogP>
2.45

>  <SMR>
65.32

>  <TopoPSA(NO)>
29.54

>  <TopoPSA>
29.54

>  <JGI1>
0.19

>  <JGI2>
0.06

>  <JGI3>
0.03

>  <JGI4>
0.03

>  <JGI5>
0.03

>  <Diameter>
11

>  <Radius>
6

>  <TMWC10>
97.63

>  <TSRW10>
46.64

>  <MW>
227.19

>  <AMW>
5.54

>  <WPath>
551

>  <WPol>
16

>  <Zagreb1>
70

>  <Zagreb2>
73

>  <mZagreb2>
3.75

>  <yes>


>  <nAR-cont>
0.816016

>  <nHA-cont>
0.954961865

>  <MWHBN>
0.199033715

>  <MWHBN-cont>
0.999423972

>  <TPSA-cont>
0.793792457

>  <pka_cont>
0.97

>  <yes.1>


>  <BBB_SCORE>
5.342698736

>  <MMFF94 Energy>
18.122

$$$$
Compound 1341
Actelion Java MolfileCreator 2.0

  0  0  0  0  0  0              0 V3000
M  V30 BEGIN CTAB
M  V30 COUNTS 33 33 0 0 0
M  V30 BEGIN ATOM
M  V30 1 Cl -3.7335 -4.9273 4.1313 0
M  V30 2 C -3.1822 -3.6366 3.1367 0
M  V30 3 C -2.0025 -2.9683 3.4592 0
M  V30 4 C -3.9152 -3.2642 2.0139 0
M  V30 5 C -1.5496 -1.9173 2.6532 0
M  V30 6 C -3.4609 -2.2151 1.2115 0
M  V30 7 C -2.2789 -1.5366 1.525 0
M  V30 8 O -1.9536 -0.5333 0.6561 0
M  V30 9 C -0.7631 0.1985 0.9237 0
M  V30 10 C -0.5354 1.2699 -0.1331 0
M  V30 11 O -1.236 1.4666 -1.1168 0
M  V30 12 O 0.5793 1.9859 0.1997 0
M  V30 13 C 1.0456 2.9326 -0.7773 0
M  V30 14 C 2.3964 2.4607 -1.3434 0
M  V30 15 N 2.3547 1.1449 -2.015 0
M  V30 16 C 3.7159 0.6669 -2.2717 0
M  V30 17 C 1.609 1.2021 -3.2758 0
M  V30 18 H -1.4295 -3.2596 4.3357 0
M  V30 19 H -4.8355 -3.7807 1.756 0
M  V30 20 H -0.6265 -1.422 2.9359 0
M  V30 21 H -4.032 -1.9224 0.3328 0
M  V30 22 H 0.1028 -0.473 0.8976 0
M  V30 23 H -0.8498 0.705 1.8921 0
M  V30 24 H 1.1944 3.8812 -0.2494 0
M  V30 25 H 0.3183 3.1272 -1.5722 0
M  V30 26 H 2.7997 3.229 -2.0152 0
M  V30 27 H 3.0826 2.3842 -0.4894 0
M  V30 28 H 4.2701 0.5591 -1.3326 0
M  V30 29 H 4.2752 1.344 -2.9277 0
M  V30 30 H 3.6951 -0.3256 -2.7356 0
M  V30 31 H 2.0481 1.917 -3.9813 0
M  V30 32 H 0.5637 1.4781 -3.1133 0
M  V30 33 H 1.5915 0.2161 -3.7541 0
M  V30 END ATOM
M  V30 BEGIN BOND
M  V30 1 1 1 2
M  V30 2 2 2 3
M  V30 3 1 2 4
M  V30 4 1 3 5
M  V30 5 2 4 6
M  V30 6 2 5 7
M  V30 7 1 7 8
M  V30 8 1 8 9
M  V30 9 1 9 10
M  V30 10 2 10 11
M  V30 11 1 10 12
M  V30 12 1 12 13
M  V30 13 1 13 14
M  V30 14 1 14 15
M  V30 15 1 15 16
M  V30 16 1 15 17
M  V30 17 1 6 7
M  V30 18 1 3 18
M  V30 19 1 4 19
M  V30 20 1 5 20
M  V30 21 1 6 21
M  V30 22 1 9 22
M  V30 23 1 9 23
M  V30 24 1 13 24
M  V30 25 1 13 25
M  V30 26 1 14 26
M  V30 27 1 14 27
M  V30 28 1 16 28
M  V30 29 1 16 29
M  V30 30 1 16 30
M  V30 31 1 17 31
M  V30 32 1 17 32
M  V30 33 1 17 33
M  V30 END BOND
M  V30 END CTAB
M  END
>  <Column 1>
1599

>  <level_0>
1753

>  <index>
1753

>  <Unnamed: 0>
1753

>  <NO.>
1765

>  <Name>
meclofenoxate

>  <IUPAC_name>
2-(dimethylamino)ethyl 2-(4-chlorophenoxy)acetate

>  <SMILES>
CN(C)CCOC(=O)COc1ccc(Cl)cc1

>  <CID>
4039

>  <logBB>


>  <BBB+/BBB->
BBB+

>  <Inchi>
InChI=1S/C12H16ClNO3/c1-14(2)7-8-16-12(15)9-17-11-5-3-10(13)4-6-11/h3-6H-7-9H2-1-2H3

>  <threshold>
-1

>  <reference>
R1|R13|R6|R27|R30|

>  <group>
B

>  <Class>
1

>  <ABC>
12.46

>  <ABCGG>
10.58

>  <nAcid>
0

>  <nBase>
1

>  <nAromAtom>
6

>  <nAromBond>
6

>  <nAtom>
33

>  <nHeavyAtom>
17

>  <nSpiro>
0

>  <nBridgehead>
0

>  <nHetero>
5

>  <nN>
1

>  <nO>
3

>  <nF>
0

>  <BalabanJ>
2.01

>  <BertzCT>
351.27

>  <nBonds>
33

>  <nBondsO>
17

>  <nBondsS>
26

>  <nBondsD>
1

>  <nBondsT>
0

>  <nBondsA>
6

>  <nBondsM>
7

>  <nBondsKS>
29

>  <nBondsKD>
4

>  <RNCG>
0.28

>  <RPCG>
0.2

>  <FCSP3>
0.42

>  <SZ>
22.67

>  <Sm>
21.46

>  <Sv>
20.33

>  <Sse>
33.52

>  <Sp>
21.79

>  <Si>
37.39

>  <MZ>
0.69

>  <Mm>
0.65

>  <Mv>
0.62

>  <Mse>
1.02

>  <Mp>
0.66

>  <Mi>
1.13

>  <NsCH3>
2

>  <NdCH2>
0

>  <NssCH2>
3

>  <NtCH>
0

>  <NdsCH>
0

>  <NaaCH>
4

>  <NsssCH>
0

>  <NddC>
0

>  <NtsC>
0

>  <NdssC>
1

>  <NaasC>
2

>  <NaaaC>
0

>  <NssssC>
0

>  <NsNH3>
0

>  <NsNH2>
0

>  <NssNH2>
0

>  <NdNH>
0

>  <NssNH>
0

>  <NaaNH>
0

>  <NtN>
0

>  <NsssNH>
0

>  <NdsN>
0

>  <NaaN>
0

>  <NsssN>
1

>  <NddsN>
0

>  <NaasN>
0

>  <NssssN>
0

>  <NsOH>
0

>  <NdO>
1

>  <NssO>
2

>  <NaaO>
0

>  <NsF>
0

>  <NsSiH3>
0

>  <NssSiH2>
0

>  <NsssSiH>
0

>  <NssssSi>
0

>  <NsPH2>
0

>  <NssPH>
0

>  <NsssP>
0

>  <NdsssP>
0

>  <NsssssP>
0

>  <NsSH>
0

>  <NdS>
0

>  <NssS>
0

>  <NaaS>
0

>  <NdssS>
0

>  <NddssS>
0

>  <NsCl>
1

>  <NsBr>
0

>  <NsI>
0

>  <fragCpx>
17.05

>  <fMF>
0.18

>  <nHBAcc>
4

>  <nHBDon>
0

>  <Kier1>
15.06

>  <Kier2>
8.16

>  <Lipinski>
1

>  <GhoseFilter>
1

>  <FilterItLogS>
-3.17

>  <VMcGowan>
191.71

>  <LabuteASA>
106.07

>  <PEOE_VSA1>
14.37

>  <PEOE_VSA2>
0

>  <PEOE_VSA3>
4.79

>  <PEOE_VSA4>
0

>  <PEOE_VSA5>
0

>  <PEOE_VSA6>
11.6

>  <PEOE_VSA7>
38.36

>  <PEOE_VSA8>
11.57

>  <PEOE_VSA9>
0

>  <PEOE_VSA10>
12.36

>  <PEOE_VSA11>
6.61

>  <PEOE_VSA12>
0

>  <PEOE_VSA13>
0

>  <SMR_VSA1>
14.27

>  <SMR_VSA2>
0

>  <SMR_VSA3>
4.9

>  <SMR_VSA4>
0

>  <SMR_VSA5>
0

>  <SMR_VSA6>
33.85

>  <SMR_VSA7>
29.29

>  <SMR_VSA8>
0

>  <SMR_VSA9>
5.75

>  <SlogP_VSA1>
4.74

>  <SlogP_VSA2>
44.72

>  <SlogP_VSA3>
9.53

>  <SlogP_VSA4>
0

>  <SlogP_VSA5>
0

>  <SlogP_VSA6>
24.27

>  <SlogP_VSA7>
5.02

>  <SlogP_VSA8>
0

>  <SlogP_VSA9>
0

>  <SlogP_VSA10>
0

>  <SlogP_VSA11>
5.75

>  <EState_VSA1>
0

>  <EState_VSA2>
12.58

>  <EState_VSA3>
23.92

>  <EState_VSA4>
0

>  <EState_VSA5>
0

>  <EState_VSA6>
24.27

>  <EState_VSA7>
19

>  <EState_VSA8>
0

>  <EState_VSA9>
21.07

>  <EState_VSA10>
4.79

>  <VSA_EState1>
10.2

>  <VSA_EState2>
13.21

>  <VSA_EState3>
0.63

>  <VSA_EState4>
0

>  <VSA_EState5>
0.22

>  <VSA_EState6>
6.81

>  <VSA_EState7>
0

>  <VSA_EState8>
0.98

>  <VSA_EState9>
3.83

>  <apol>
36.39

>  <bpol>
22.61

>  <nRing>
1

>  <nHRing>
0

>  <naRing>
1

>  <naHRing>
0

>  <nARing 2>
0

>  <nAHRing 2>
0

>  <nFRing>
0

>  <nFHRing>
0

>  <nFaRing>
0

>  <nFaHRing>
0

>  <nFARing 2>
0

>  <nFAHRing 2>
0

>  <nRot>
6

>  <SLogP>
1.82

>  <SMR>
66.46

>  <TopoPSA(NO)>
38.77

>  <TopoPSA>
38.77

>  <JGI1>
0.24

>  <JGI2>
0.07

>  <JGI3>
0.03

>  <JGI4>
0.04

>  <JGI5>
0.03

>  <Diameter>
12

>  <Radius>
6

>  <TMWC10>
100.85

>  <TSRW10>
48.2

>  <MW>
257.08

>  <AMW>
7.79

>  <WPath>
654

>  <WPol>
18

>  <Zagreb1>
76

>  <Zagreb2>
80

>  <mZagreb2>
3.92

>  <yes>


>  <nAR-cont>
0.336376

>  <nHA-cont>
0.976740822

>  <MWHBN>
0.249474319

>  <MWHBN-cont>
0.960656382

>  <TPSA-cont>
0.729361325

>  <pka_cont>
0.97

>  <yes.1>


>  <BBB_SCORE>
4.697824045

>  <MMFF94 Energy>
56.43

$$$$
Compound 1342
Actelion Java MolfileCreator 2.0

  0  0  0  0  0  0              0 V3000
M  V30 BEGIN CTAB
M  V30 COUNTS 43 44 0 0 0
M  V30 BEGIN ATOM
M  V30 1 Cl 3.7452 -2.1501 4.1442 0
M  V30 2 C 2.8396 -1.2458 2.9954 0
M  V30 3 C 1.5373 -0.8592 3.2889 0
M  V30 4 C 3.4068 -0.9156 1.7699 0
M  V30 5 C 0.8014 -0.1273 2.3515 0
M  V30 6 C 2.6693 -0.1823 0.8336 0
M  V30 7 C 1.3576 0.2505 1.1103 0
M  V30 8 C 0.527 1.0304 0.0597 0 CFG=1
M  V30 9 O -0.0247 0.1235 -0.9211 0
M  V30 10 C -0.5586 1.9669 0.6468 0
M  V30 11 C 1.426 1.9706 -0.7855 0
M  V30 12 C -0.6681 -1.0552 -0.4339 0
M  V30 13 C -1.8514 2.0311 0.0966 0
M  V30 14 C -0.2548 2.8495 1.704 0
M  V30 15 C -1.4146 -1.7584 -1.5861 0
M  V30 16 C -2.8147 2.9013 0.6138 0
M  V30 17 C -1.2185 3.7183 2.2212 0
M  V30 18 N -0.571 -2.2222 -2.7083 0
M  V30 19 C -2.5 3.7393 1.6796 0
M  V30 20 C -1.4119 -2.7392 -3.7887 0
M  V30 21 C 0.3967 -3.2363 -2.2943 0
M  V30 22 H 1.0832 -1.1269 4.2391 0
M  V30 23 H 4.4183 -1.2312 1.5284 0
M  V30 24 H -0.2243 0.1383 2.6028 0
M  V30 25 H 3.1363 0.0272 -0.1255 0
M  V30 26 H 2.1075 1.4086 -1.4342 0
M  V30 27 H 0.8237 2.5831 -1.4694 0
M  V30 28 H 2.0218 2.6481 -0.163 0
M  V30 29 H -1.3997 -0.7932 0.3381 0
M  V30 30 H 0.0629 -1.7379 0.0078 0
M  V30 31 H -2.1179 1.4138 -0.7583 0
M  V30 32 H 0.7447 2.8675 2.1352 0
M  V30 33 H -1.9876 -2.5981 -1.1722 0
M  V30 34 H -2.1372 -1.034 -1.9841 0
M  V30 35 H -3.8082 2.9314 0.1738 0
M  V30 36 H -0.9642 4.3841 3.042 0
M  V30 37 H -3.249 4.4186 2.0778 0
M  V30 38 H -2.1011 -1.966 -4.1463 0
M  V30 39 H -2.0007 -3.6083 -3.4739 0
M  V30 40 H -0.7992 -3.0306 -4.6491 0
M  V30 41 H -0.0863 -4.1017 -1.827 0
M  V30 42 H 1.1292 -2.8233 -1.594 0
M  V30 43 H 0.9746 -3.5917 -3.1552 0
M  V30 END ATOM
M  V30 BEGIN BOND
M  V30 1 1 1 2
M  V30 2 2 2 3
M  V30 3 1 2 4
M  V30 4 1 3 5
M  V30 5 2 4 6
M  V30 6 2 5 7
M  V30 7 1 7 8
M  V30 8 1 8 9
M  V30 9 1 8 10
M  V30 10 1 8 11
M  V30 11 1 9 12
M  V30 12 2 10 13
M  V30 13 1 10 14
M  V30 14 1 12 15
M  V30 15 1 13 16
M  V30 16 2 14 17
M  V30 17 1 15 18
M  V30 18 2 16 19
M  V30 19 1 18 20
M  V30 20 1 18 21
M  V30 21 1 6 7
M  V30 22 1 17 19
M  V30 23 1 3 22
M  V30 24 1 4 23
M  V30 25 1 5 24
M  V30 26 1 6 25
M  V30 27 1 11 26
M  V30 28 1 11 27
M  V30 29 1 11 28
M  V30 30 1 12 29
M  V30 31 1 12 30
M  V30 32 1 13 31
M  V30 33 1 14 32
M  V30 34 1 15 33
M  V30 35 1 15 34
M  V30 36 1 16 35
M  V30 37 1 17 36
M  V30 38 1 19 37
M  V30 39 1 20 38
M  V30 40 1 20 39
M  V30 41 1 20 40
M  V30 42 1 21 41
M  V30 43 1 21 42
M  V30 44 1 21 43
M  V30 END BOND
M  V30 BEGIN COLLECTION
M  V30 MDLV30/STERAC1 ATOMS=(1 8)
M  V30 END COLLECTION
M  V30 END CTAB
M  END
>  <Column 1>
1600

>  <level_0>
1754

>  <index>
1754

>  <Unnamed: 0>
1754

>  <NO.>
1766

>  <Name>
chlorphenoxamine

>  <IUPAC_name>
2-[1-(4-chlorophenyl)-1-phenylethoxy]-n-n-dimethylethanamine

>  <SMILES>
CN(C)CCOC(C)(c1ccccc1)c1ccc(Cl)cc1

>  <CID>
6475

>  <logBB>


>  <BBB+/BBB->
BBB+

>  <Inchi>
InChI=1S/C18H22ClNO/c1-18(21-14-13-20(2)3-15-7-5-4-6-8-15)16-9-11-17(19)12-10-16/h4-12H-13-14H2-1-3H3

>  <threshold>
-1

>  <reference>
R1|R13|R19|R6|R27|R27|R30|

>  <group>
B

>  <Class>
1

>  <ABC>
15.92

>  <ABCGG>
13.6

>  <nAcid>
0

>  <nBase>
1

>  <nAromAtom>
12

>  <nAromBond>
12

>  <nAtom>
43

>  <nHeavyAtom>
21

>  <nSpiro>
0

>  <nBridgehead>
0

>  <nHetero>
3

>  <nN>
1

>  <nO>
1

>  <nF>
0

>  <BalabanJ>
2

>  <BertzCT>
553.19

>  <nBonds>
44

>  <nBondsO>
22

>  <nBondsS>
32

>  <nBondsD>
0

>  <nBondsT>
0

>  <nBondsA>
12

>  <nBondsM>
12

>  <nBondsKS>
38

>  <nBondsKD>
6

>  <RNCG>
0.27

>  <RPCG>
0.09

>  <FCSP3>
0.33

>  <SZ>
27

>  <Sm>
25.3

>  <Sv>
26.52

>  <Sse>
42.53

>  <Sp>
29.23

>  <Si>
48.22

>  <MZ>
0.63

>  <Mm>
0.59

>  <Mv>
0.62

>  <Mse>
0.99

>  <Mp>
0.68

>  <Mi>
1.12

>  <NsCH3>
3

>  <NdCH2>
0

>  <NssCH2>
2

>  <NtCH>
0

>  <NdsCH>
0

>  <NaaCH>
9

>  <NsssCH>
0

>  <NddC>
0

>  <NtsC>
0

>  <NdssC>
0

>  <NaasC>
3

>  <NaaaC>
0

>  <NssssC>
1

>  <NsNH3>
0

>  <NsNH2>
0

>  <NssNH2>
0

>  <NdNH>
0

>  <NssNH>
0

>  <NaaNH>
0

>  <NtN>
0

>  <NsssNH>
0

>  <NdsN>
0

>  <NaaN>
0

>  <NsssN>
1

>  <NddsN>
0

>  <NaasN>
0

>  <NssssN>
0

>  <NsOH>
0

>  <NdO>
0

>  <NssO>
1

>  <NaaO>
0

>  <NsF>
0

>  <NsSiH3>
0

>  <NssSiH2>
0

>  <NsssSiH>
0

>  <NssssSi>
0

>  <NsPH2>
0

>  <NssPH>
0

>  <NsssP>
0

>  <NdsssP>
0

>  <NsssssP>
0

>  <NsSH>
0

>  <NdS>
0

>  <NssS>
0

>  <NaaS>
0

>  <NdssS>
0

>  <NddssS>
0

>  <NsCl>
1

>  <NsBr>
0

>  <NsI>
0

>  <fragCpx>
64.03

>  <fMF>
0.3

>  <nHBAcc>
2

>  <nHBDon>
0

>  <Kier1>
17.36

>  <Kier2>
8.02

>  <Lipinski>
1

>  <GhoseFilter>
1

>  <FilterItLogS>
-5.25

>  <VMcGowan>
245.05

>  <LabuteASA>
131.85

>  <PEOE_VSA1>
9.64

>  <PEOE_VSA2>
0

>  <PEOE_VSA3>
0

>  <PEOE_VSA4>
0

>  <PEOE_VSA5>
0

>  <PEOE_VSA6>
54.07

>  <PEOE_VSA7>
44.28

>  <PEOE_VSA8>
11.57

>  <PEOE_VSA9>
6.61

>  <PEOE_VSA10>
5.6

>  <PEOE_VSA11>
0

>  <PEOE_VSA12>
0

>  <PEOE_VSA13>
0

>  <SMR_VSA1>
4.74

>  <SMR_VSA2>
0

>  <SMR_VSA3>
4.9

>  <SMR_VSA4>
0

>  <SMR_VSA5>
12.52

>  <SMR_VSA6>
27.25

>  <SMR_VSA7>
70.75

>  <SMR_VSA8>
0

>  <SMR_VSA9>
0

>  <SlogP_VSA1>
0

>  <SlogP_VSA2>
32.15

>  <SlogP_VSA3>
10.34

>  <SlogP_VSA4>
0

>  <SlogP_VSA5>
18.05

>  <SlogP_VSA6>
54.6

>  <SlogP_VSA7>
5.02

>  <SlogP_VSA8>
0

>  <SlogP_VSA9>
0

>  <SlogP_VSA10>
0

>  <SlogP_VSA11>
0

>  <EState_VSA1>
5.6

>  <EState_VSA2>
0

>  <EState_VSA3>
6.61

>  <EState_VSA4>
22.69

>  <EState_VSA5>
0

>  <EState_VSA6>
0

>  <EState_VSA7>
56.56

>  <EState_VSA8>
23.96

>  <EState_VSA9>
16.34

>  <EState_VSA10>
0

>  <VSA_EState1>
6.27

>  <VSA_EState2>
2.12

>  <VSA_EState3>
0.74

>  <VSA_EState4>
1.78

>  <VSA_EState5>
0

>  <VSA_EState6>
18.19

>  <VSA_EState7>
0

>  <VSA_EState8>
3.66

>  <VSA_EState9>
4.09

>  <apol>
48.81

>  <bpol>
26.03

>  <nRing>
2

>  <nHRing>
0

>  <naRing>
2

>  <naHRing>
0

>  <nARing 2>
0

>  <nAHRing 2>
0

>  <nFRing>
0

>  <nFHRing>
0

>  <nFaRing>
0

>  <nFaHRing>
0

>  <nFARing 2>
0

>  <nFAHRing 2>
0

>  <nRot>
6

>  <SLogP>
4.18

>  <SMR>
88.85

>  <TopoPSA(NO)>
12.47

>  <TopoPSA>
12.47

>  <JGI1>
0.23

>  <JGI2>
0.1

>  <JGI3>
0.05

>  <JGI4>
0.03

>  <JGI5>
0.02

>  <Diameter>
10

>  <Radius>
5

>  <TMWC10>
115.88

>  <TSRW10>
54.64

>  <MW>
303.14

>  <AMW>
7.05

>  <WPath>
926

>  <WPol>
31

>  <Zagreb1>
104

>  <Zagreb2>
119

>  <mZagreb2>
4.71

>  <yes>


>  <nAR-cont>
0.336376

>  <nHA-cont>
0.994529749

>  <MWHBN>
0.114870463

>  <MWHBN-cont>
0.806452629

>  <TPSA-cont>
0.912951657

>  <pka_cont>
0.97

>  <yes.1>


>  <BBB_SCORE>
4.851488006

>  <MMFF94 Energy>
98.455

$$$$
Compound 1343
Actelion Java MolfileCreator 2.0

  0  0  0  0  0  0              0 V3000
M  V30 BEGIN CTAB
M  V30 COUNTS 40 41 0 0 0
M  V30 BEGIN ATOM
M  V30 1 Br 2.7173 -4.0781 -3.4376 0
M  V30 2 C 1.6984 -3.0613 -2.212 0
M  V30 3 C 0.984 -1.953 -2.6592 0
M  V30 4 C 1.6696 -3.4256 -0.8675 0
M  V30 5 C 0.233 -1.2031 -1.7519 0
M  V30 6 C 0.9173 -2.6746 0.0393 0
M  V30 7 C 0.1873 -1.555 -0.3918 0
M  V30 8 C -0.6261 -0.738 0.6003 0 CFG=1
M  V30 9 O -0.13 0.6081 0.5723 0
M  V30 10 C -2.1225 -0.7674 0.3083 0
M  V30 11 C 0.619 0.9416 1.7433 0
M  V30 12 C -2.8047 0.3469 -0.206 0
M  V30 13 C -2.8536 -1.9443 0.5489 0
M  V30 14 C 1.1922 2.3642 1.6141 0
M  V30 15 C -4.1755 0.2885 -0.4666 0
M  V30 16 C -4.224 -2.0013 0.2872 0
M  V30 17 N 2.5093 2.4416 0.9443 0
M  V30 18 C -4.8844 -0.8845 -0.2192 0
M  V30 19 C 2.9888 3.8258 0.9509 0
M  V30 20 C 2.4518 1.9431 -0.4318 0
M  V30 21 H 1.0041 -1.6629 -3.7059 0
M  V30 22 H 2.2291 -4.2881 -0.5157 0
M  V30 23 H -0.3183 -0.3336 -2.1054 0
M  V30 24 H 0.9086 -2.9689 1.0864 0
M  V30 25 H -0.5006 -1.1519 1.611 0
M  V30 26 H 1.4198 0.2115 1.9119 0
M  V30 27 H -0.0619 0.9138 2.6024 0
M  V30 28 H -2.2692 1.2718 -0.4109 0
M  V30 29 H -2.3548 -2.8296 0.9374 0
M  V30 30 H 0.4652 3.0107 1.1055 0
M  V30 31 H 1.3219 2.7464 2.6346 0
M  V30 32 H -4.6883 1.1601 -0.8651 0
M  V30 33 H -4.7751 -2.9189 0.4754 0
M  V30 34 H -5.9506 -0.9292 -0.4247 0
M  V30 35 H 3.0787 4.1984 1.9774 0
M  V30 36 H 2.3231 4.4974 0.3965 0
M  V30 37 H 3.9893 3.889 0.5087 0
M  V30 38 H 1.6831 2.4504 -1.0256 0
M  V30 39 H 2.2627 0.8662 -0.4505 0
M  V30 40 H 3.4169 2.0828 -0.9324 0
M  V30 END ATOM
M  V30 BEGIN BOND
M  V30 1 1 1 2
M  V30 2 2 2 3
M  V30 3 1 2 4
M  V30 4 1 3 5
M  V30 5 2 4 6
M  V30 6 2 5 7
M  V30 7 1 7 8
M  V30 8 1 8 9
M  V30 9 1 8 10
M  V30 10 1 9 11
M  V30 11 2 10 12
M  V30 12 1 10 13
M  V30 13 1 11 14
M  V30 14 1 12 15
M  V30 15 2 13 16
M  V30 16 1 14 17
M  V30 17 2 15 18
M  V30 18 1 17 19
M  V30 19 1 17 20
M  V30 20 1 6 7
M  V30 21 1 16 18
M  V30 22 1 3 21
M  V30 23 1 4 22
M  V30 24 1 5 23
M  V30 25 1 6 24
M  V30 26 1 8 25
M  V30 27 1 11 26
M  V30 28 1 11 27
M  V30 29 1 12 28
M  V30 30 1 13 29
M  V30 31 1 14 30
M  V30 32 1 14 31
M  V30 33 1 15 32
M  V30 34 1 16 33
M  V30 35 1 18 34
M  V30 36 1 19 35
M  V30 37 1 19 36
M  V30 38 1 19 37
M  V30 39 1 20 38
M  V30 40 1 20 39
M  V30 41 1 20 40
M  V30 END BOND
M  V30 BEGIN COLLECTION
M  V30 MDLV30/STERAC1 ATOMS=(1 8)
M  V30 END COLLECTION
M  V30 END CTAB
M  END
>  <Column 1>
1601

>  <level_0>
1755

>  <index>
1755

>  <Unnamed: 0>
1755

>  <NO.>
1767

>  <Name>
bromodiphenhydramine

>  <IUPAC_name>
2-[(4-bromophenyl)-phenylmethoxy]-n-n-dimethylethanamine

>  <SMILES>
CN(C)CCOC(c1ccccc1)c1ccc(Br)cc1

>  <CID>
2444

>  <logBB>


>  <BBB+/BBB->
BBB+

>  <Inchi>
InChI=1S/C17H20BrNO/c1-19(2)12-13-20-17(14-6-4-3-5-7-14)15-8-10-16(18)11-9-15/h3-11-17H-12-13H2-1-2H3

>  <threshold>
-1

>  <reference>
R1|R19|R6|R14|R23|R27|R27|R30|

>  <group>
B

>  <Class>
1

>  <ABC>
15.1

>  <ABCGG>
12.65

>  <nAcid>
0

>  <nBase>
1

>  <nAromAtom>
12

>  <nAromBond>
12

>  <nAtom>
40

>  <nHeavyAtom>
20

>  <nSpiro>
0

>  <nBridgehead>
0

>  <nHetero>
3

>  <nN>
1

>  <nO>
1

>  <nF>
0

>  <BalabanJ>
1.88

>  <BertzCT>
510.27

>  <nBonds>
41

>  <nBondsO>
21

>  <nBondsS>
29

>  <nBondsD>
0

>  <nBondsT>
0

>  <nBondsA>
12

>  <nBondsM>
12

>  <nBondsKS>
35

>  <nBondsKD>
6

>  <RNCG>
0.29

>  <RPCG>
0.08

>  <FCSP3>
0.29

>  <SZ>
28.67

>  <Sm>
27.83

>  <Sv>
25.18

>  <Sse>
39.54

>  <Sp>
27.95

>  <Si>
44.7

>  <MZ>
0.72

>  <Mm>
0.7

>  <Mv>
0.63

>  <Mse>
0.99

>  <Mp>
0.7

>  <Mi>
1.12

>  <NsCH3>
2

>  <NdCH2>
0

>  <NssCH2>
2

>  <NtCH>
0

>  <NdsCH>
0

>  <NaaCH>
9

>  <NsssCH>
1

>  <NddC>
0

>  <NtsC>
0

>  <NdssC>
0

>  <NaasC>
3

>  <NaaaC>
0

>  <NssssC>
0

>  <NsNH3>
0

>  <NsNH2>
0

>  <NssNH2>
0

>  <NdNH>
0

>  <NssNH>
0

>  <NaaNH>
0

>  <NtN>
0

>  <NsssNH>
0

>  <NdsN>
0

>  <NaaN>
0

>  <NsssN>
1

>  <NddsN>
0

>  <NaasN>
0

>  <NssssN>
0

>  <NsOH>
0

>  <NdO>
0

>  <NssO>
1

>  <NaaO>
0

>  <NsF>
0

>  <NsSiH3>
0

>  <NssSiH2>
0

>  <NsssSiH>
0

>  <NssssSi>
0

>  <NsPH2>
0

>  <NssPH>
0

>  <NsssP>
0

>  <NdsssP>
0

>  <NsssssP>
0

>  <NsSH>
0

>  <NdS>
0

>  <NssS>
0

>  <NaaS>
0

>  <NdssS>
0

>  <NddssS>
0

>  <NsCl>
0

>  <NsBr>
1

>  <NsI>
0

>  <fragCpx>
61.03

>  <fMF>
0.33

>  <nHBAcc>
2

>  <nHBDon>
0

>  <Kier1>
16.37

>  <Kier2>
8.44

>  <Lipinski>
1

>  <GhoseFilter>
1

>  <FilterItLogS>
-5.08

>  <VMcGowan>
236.22

>  <LabuteASA>
129.05

>  <PEOE_VSA1>
9.64

>  <PEOE_VSA2>
0

>  <PEOE_VSA3>
0

>  <PEOE_VSA4>
0

>  <PEOE_VSA5>
0

>  <PEOE_VSA6>
58.39

>  <PEOE_VSA7>
37.35

>  <PEOE_VSA8>
11.02

>  <PEOE_VSA9>
6.61

>  <PEOE_VSA10>
6.1

>  <PEOE_VSA11>
0

>  <PEOE_VSA12>
0

>  <PEOE_VSA13>
0

>  <SMR_VSA1>
4.74

>  <SMR_VSA2>
0

>  <SMR_VSA3>
4.9

>  <SMR_VSA4>
0

>  <SMR_VSA5>
6.1

>  <SMR_VSA6>
27.25

>  <SMR_VSA7>
70.2

>  <SMR_VSA8>
0

>  <SMR_VSA9>
0

>  <SlogP_VSA1>
0

>  <SlogP_VSA2>
32.15

>  <SlogP_VSA3>
4.74

>  <SlogP_VSA4>
0

>  <SlogP_VSA5>
17.23

>  <SlogP_VSA6>
59.07

>  <SlogP_VSA7>
0

>  <SlogP_VSA8>
0

>  <SlogP_VSA9>
0

>  <SlogP_VSA10>
0

>  <SlogP_VSA11>
0

>  <EState_VSA1>
0

>  <EState_VSA2>
6.1

>  <EState_VSA3>
6.61

>  <EState_VSA4>
11.02

>  <EState_VSA5>
11.13

>  <EState_VSA6>
0

>  <EState_VSA7>
6.07

>  <EState_VSA8>
83.46

>  <EState_VSA9>
4.74

>  <EState_VSA10>
0

>  <VSA_EState1>
7.19

>  <VSA_EState2>
2.13

>  <VSA_EState3>
0

>  <VSA_EState4>
2.37

>  <VSA_EState5>
0

>  <VSA_EState6>
18.69

>  <VSA_EState7>
-0.01

>  <VSA_EState8>
1.63

>  <VSA_EState9>
4.11

>  <apol>
46.68

>  <bpol>
24.89

>  <nRing>
2

>  <nHRing>
0

>  <naRing>
2

>  <naHRing>
0

>  <nARing 2>
0

>  <nAHRing 2>
0

>  <nFRing>
0

>  <nFHRing>
0

>  <nFaRing>
0

>  <nFaHRing>
0

>  <nFARing 2>
0

>  <nFAHRing 2>
0

>  <nRot>
6

>  <SLogP>
4.12

>  <SMR>
86.93

>  <TopoPSA(NO)>
12.47

>  <TopoPSA>
12.47

>  <JGI1>
0.17

>  <JGI2>
0.07

>  <JGI3>
0.04

>  <JGI4>
0.02

>  <JGI5>
0.01

>  <Diameter>
10

>  <Radius>
5

>  <TMWC10>
111.96

>  <TSRW10>
52.84

>  <MW>
333.07

>  <AMW>
8.33

>  <WPath>
851

>  <WPol>
26

>  <Zagreb1>
96

>  <Zagreb2>
107

>  <mZagreb2>
4.56

>  <yes>


>  <nAR-cont>
0.336376

>  <nHA-cont>
0.999629945

>  <MWHBN>
0.109587807

>  <MWHBN-cont>
0.781148328

>  <TPSA-cont>
0.912951657

>  <pka_cont>
0.97

>  <yes.1>


>  <BBB_SCORE>
4.81863175

>  <MMFF94 Energy>
81.92

$$$$
Compound 1344
Actelion Java MolfileCreator 2.0

  0  0  0  0  0  0              0 V3000
M  V30 BEGIN CTAB
M  V30 COUNTS 52 53 0 0 0
M  V30 BEGIN ATOM
M  V30 1 O -0.3927 0.157 -1.2571 0
M  V30 2 C 0.4492 0.6366 -0.1943 0 CFG=2
M  V30 3 C 0.2693 -0.749 -2.1431 0
M  V30 4 C -0.4604 0.955 1.0002 0
M  V30 5 C 1.2903 1.8422 -0.6405 0
M  V30 6 C -0.684 -1.1727 -3.277 0
M  V30 7 C -0.4791 0.2734 2.2557 0
M  V30 8 C -1.3654 2.0341 0.7937 0
M  V30 9 C 2.3799 2.264 0.1402 0
M  V30 10 C 0.9938 2.5668 -1.8087 0
M  V30 11 N -1.8663 -1.9527 -2.8551 0
M  V30 12 C -1.3687 0.7846 3.2394 0
M  V30 13 C 0.36 -0.987 2.6134 0
M  V30 14 C -2.2293 2.489 1.7819 0
M  V30 15 C 3.1572 3.3592 -0.2442 0
M  V30 16 C 1.7715 3.6613 -2.1927 0
M  V30 17 C -1.5072 -3.2577 -2.3043 0
M  V30 18 C -2.7888 -2.1175 -3.9794 0
M  V30 19 C -2.2211 1.8687 3.0136 0
M  V30 20 C 0.0581 -1.5631 4.0308 0
M  V30 21 C 0.0412 -2.1488 1.6482 0
M  V30 22 C 1.8711 -0.6761 2.6303 0
M  V30 23 C 2.8548 4.0551 -1.4119 0
M  V30 24 H 1.1551 -0.1519 0.0524 0
M  V30 25 H 0.6402 -1.6197 -1.5952 0
M  V30 26 H 1.1352 -0.2492 -2.5923 0
M  V30 27 H -1.0366 -0.249 -3.7547 0
M  V30 28 H -0.1132 -1.7325 -4.029 0
M  V30 29 H -1.3966 2.5327 -0.1743 0
M  V30 30 H 2.6254 1.75 1.0655 0
M  V30 31 H 0.1418 2.2862 -2.4252 0
M  V30 32 H -1.4395 0.3426 4.2292 0
M  V30 33 H -2.8992 3.32 1.5837 0
M  V30 34 H 3.9943 3.6734 0.3738 0
M  V30 35 H 1.5253 4.2096 -3.0982 0
M  V30 36 H -0.9297 -3.1547 -1.3809 0
M  V30 37 H -0.9281 -3.8599 -3.0135 0
M  V30 38 H -2.4069 -3.8222 -2.0324 0
M  V30 39 H -2.3354 -2.6754 -4.8067 0
M  V30 40 H -3.1159 -1.1425 -4.3579 0
M  V30 41 H -3.6947 -2.6463 -3.6618 0
M  V30 42 H -2.8863 2.2106 3.8019 0
M  V30 43 H -0.9946 -1.851 4.1372 0
M  V30 44 H 0.6517 -2.4649 4.2275 0
M  V30 45 H 0.3077 -0.8466 4.8225 0
M  V30 46 H 0.3462 -1.9552 0.622 0
M  V30 47 H 0.557 -3.0681 1.9511 0
M  V30 48 H -1.0343 -2.3621 1.632 0
M  V30 49 H 2.0848 0.2002 3.2537 0
M  V30 50 H 2.29 -0.4879 1.6426 0
M  V30 51 H 2.4431 -1.5185 3.0384 0
M  V30 52 H 3.4571 4.9098 -1.7079 0
M  V30 END ATOM
M  V30 BEGIN BOND
M  V30 1 1 1 2
M  V30 2 1 1 3
M  V30 3 1 2 4
M  V30 4 1 2 5
M  V30 5 1 3 6
M  V30 6 2 4 7
M  V30 7 1 4 8
M  V30 8 2 5 9
M  V30 9 1 5 10
M  V30 10 1 6 11
M  V30 11 1 7 12
M  V30 12 1 7 13
M  V30 13 2 8 14
M  V30 14 1 9 15
M  V30 15 2 10 16
M  V30 16 1 11 17
M  V30 17 1 11 18
M  V30 18 2 12 19
M  V30 19 1 13 20
M  V30 20 1 13 21
M  V30 21 1 13 22
M  V30 22 2 15 23
M  V30 23 1 14 19
M  V30 24 1 16 23
M  V30 25 1 2 24
M  V30 26 1 3 25
M  V30 27 1 3 26
M  V30 28 1 6 27
M  V30 29 1 6 28
M  V30 30 1 8 29
M  V30 31 1 9 30
M  V30 32 1 10 31
M  V30 33 1 12 32
M  V30 34 1 14 33
M  V30 35 1 15 34
M  V30 36 1 16 35
M  V30 37 1 17 36
M  V30 38 1 17 37
M  V30 39 1 17 38
M  V30 40 1 18 39
M  V30 41 1 18 40
M  V30 42 1 18 41
M  V30 43 1 19 42
M  V30 44 1 20 43
M  V30 45 1 20 44
M  V30 46 1 20 45
M  V30 47 1 21 46
M  V30 48 1 21 47
M  V30 49 1 21 48
M  V30 50 1 22 49
M  V30 51 1 22 50
M  V30 52 1 22 51
M  V30 53 1 23 52
M  V30 END BOND
M  V30 BEGIN COLLECTION
M  V30 MDLV30/STERAC1 ATOMS=(1 2)
M  V30 END COLLECTION
M  V30 END CTAB
M  END
>  <Column 1>
1602

>  <level_0>
1756

>  <index>
1756

>  <Unnamed: 0>
1756

>  <NO.>
1768

>  <Name>
bufenadrine

>  <IUPAC_name>
2-[(2-tert-butylphenyl)-phenylmethoxy]-n-n-dimethylethanamine

>  <SMILES>
CN(C)CCOC(c1ccccc1)c1ccccc1C(C)(C)C

>  <CID>
21916

>  <logBB>


>  <BBB+/BBB->
BBB+

>  <Inchi>
InChI=1S/C21H29NO/c1-21(2-3)19-14-10-9-13-18(19)20(23-16-15-22(4)5)17-11-7-6-8-12-17/h6-14-20H-15-16H2-1-5H3

>  <threshold>
-1

>  <reference>
R1|R19|R6|R27|R27|R30|

>  <group>
B

>  <Class>
1

>  <ABC>
17.48

>  <ABCGG>
15.1

>  <nAcid>
0

>  <nBase>
1

>  <nAromAtom>
12

>  <nAromBond>
12

>  <nAtom>
52

>  <nHeavyAtom>
23

>  <nSpiro>
0

>  <nBridgehead>
0

>  <nHetero>
2

>  <nN>
1

>  <nO>
1

>  <nF>
0

>  <BalabanJ>
2.09

>  <BertzCT>
598.74

>  <nBonds>
53

>  <nBondsO>
24

>  <nBondsS>
41

>  <nBondsD>
0

>  <nBondsT>
0

>  <nBondsA>
12

>  <nBondsM>
12

>  <nBondsKS>
47

>  <nBondsKD>
6

>  <RNCG>
0.25

>  <RPCG>
0.07

>  <FCSP3>
0.43

>  <SZ>
28.33

>  <Sm>
25.93

>  <Sv>
30.33

>  <Sse>
50.87

>  <Sp>
33.72

>  <Si>
58.52

>  <MZ>
0.54

>  <Mm>
0.5

>  <Mv>
0.58

>  <Mse>
0.98

>  <Mp>
0.65

>  <Mi>
1.13

>  <NsCH3>
5

>  <NdCH2>
0

>  <NssCH2>
2

>  <NtCH>
0

>  <NdsCH>
0

>  <NaaCH>
9

>  <NsssCH>
1

>  <NddC>
0

>  <NtsC>
0

>  <NdssC>
0

>  <NaasC>
3

>  <NaaaC>
0

>  <NssssC>
1

>  <NsNH3>
0

>  <NsNH2>
0

>  <NssNH2>
0

>  <NdNH>
0

>  <NssNH>
0

>  <NaaNH>
0

>  <NtN>
0

>  <NsssNH>
0

>  <NdsN>
0

>  <NaaN>
0

>  <NsssN>
1

>  <NddsN>
0

>  <NaasN>
0

>  <NssssN>
0

>  <NsOH>
0

>  <NdO>
0

>  <NssO>
1

>  <NaaO>
0

>  <NsF>
0

>  <NsSiH3>
0

>  <NssSiH2>
0

>  <NsssSiH>
0

>  <NssssSi>
0

>  <NsPH2>
0

>  <NssPH>
0

>  <NsssP>
0

>  <NdsssP>
0

>  <NsssssP>
0

>  <NsSH>
0

>  <NdS>
0

>  <NssS>
0

>  <NaaS>
0

>  <NdssS>
0

>  <NddssS>
0

>  <NsCl>
0

>  <NsBr>
0

>  <NsI>
0

>  <fragCpx>
70.02

>  <fMF>
0.25

>  <nHBAcc>
2

>  <nHBDon>
0

>  <Kier1>
19.33

>  <Kier2>
8.91

>  <Lipinski>
1

>  <GhoseFilter>
1

>  <FilterItLogS>
-5.46

>  <VMcGowan>
275.08

>  <LabuteASA>
140.65

>  <PEOE_VSA1>
9.64

>  <PEOE_VSA2>
0

>  <PEOE_VSA3>
0

>  <PEOE_VSA4>
0

>  <PEOE_VSA5>
0

>  <PEOE_VSA6>
75.37

>  <PEOE_VSA7>
36.2

>  <PEOE_VSA8>
6.54

>  <PEOE_VSA9>
6.61

>  <PEOE_VSA10>
6.1

>  <PEOE_VSA11>
0

>  <PEOE_VSA12>
0

>  <PEOE_VSA13>
0

>  <SMR_VSA1>
4.74

>  <SMR_VSA2>
0

>  <SMR_VSA3>
4.9

>  <SMR_VSA4>
0

>  <SMR_VSA5>
32.29

>  <SMR_VSA6>
27.25

>  <SMR_VSA7>
71.29

>  <SMR_VSA8>
0

>  <SMR_VSA9>
0

>  <SlogP_VSA1>
0

>  <SlogP_VSA2>
32.15

>  <SlogP_VSA3>
10.15

>  <SlogP_VSA4>
0

>  <SlogP_VSA5>
43.57

>  <SlogP_VSA6>
54.6

>  <SlogP_VSA7>
0

>  <SlogP_VSA8>
0

>  <SlogP_VSA9>
0

>  <SlogP_VSA10>
0

>  <SlogP_VSA11>
0

>  <EState_VSA1>
0

>  <EState_VSA2>
11.52

>  <EState_VSA3>
6.61

>  <EState_VSA4>
6.54

>  <EState_VSA5>
16.69

>  <EState_VSA6>
0

>  <EState_VSA7>
0

>  <EState_VSA8>
94.36

>  <EState_VSA9>
4.74

>  <EState_VSA10>
0

>  <VSA_EState1>
6.32

>  <VSA_EState2>
2.15

>  <VSA_EState3>
0

>  <VSA_EState4>
3.92

>  <VSA_EState5>
0

>  <VSA_EState6>
19.17

>  <VSA_EState7>
-0.02

>  <VSA_EState8>
8.4

>  <VSA_EState9>
4.15

>  <apol>
56.31

>  <bpol>
32.54

>  <nRing>
2

>  <nHRing>
0

>  <naRing>
2

>  <naHRing>
0

>  <nARing 2>
0

>  <nAHRing 2>
0

>  <nFRing>
0

>  <nFHRing>
0

>  <nFaRing>
0

>  <nFaHRing>
0

>  <nFARing 2>
0

>  <nFAHRing 2>
0

>  <nRot>
6

>  <SLogP>
4.65

>  <SMR>
97.93

>  <TopoPSA(NO)>
12.47

>  <TopoPSA>
12.47

>  <JGI1>
0.21

>  <JGI2>
0.08

>  <JGI3>
0.06

>  <JGI4>
0.03

>  <JGI5>
0.02

>  <Diameter>
9

>  <Radius>
5

>  <TMWC10>
120.6

>  <TSRW10>
57.02

>  <MW>
311.22

>  <AMW>
5.99

>  <WPath>
1158

>  <WPol>
33

>  <Zagreb1>
114

>  <Zagreb2>
129

>  <mZagreb2>
5.08

>  <yes>


>  <nAR-cont>
0.336376

>  <nHA-cont>
0.967789328

>  <MWHBN>
0.113369504

>  <MWHBN-cont>
0.79943939

>  <TPSA-cont>
0.912951657

>  <pka_cont>
0.97

>  <yes.1>


>  <BBB_SCORE>
4.814227726

>  <MMFF94 Energy>
114.41

$$$$
Compound 1345
Actelion Java MolfileCreator 2.0

  0  0  0  0  0  0              0 V3000
M  V30 BEGIN CTAB
M  V30 COUNTS 56 58 0 0 0
M  V30 BEGIN ATOM
M  V30 1 O -0.1583 -0.475 0.8711 0
M  V30 2 C -0.3063 -0.745 -0.5368 0
M  V30 3 C 0.1554 -1.5766 1.7284 0
M  V30 4 C -0.7651 0.6047 -1.2578 0
M  V30 5 C -1.5827 -1.6296 -0.7756 0
M  V30 6 C 0.9562 -1.4604 -1.1224 0
M  V30 7 C -0.2754 -1.2731 3.1781 0
M  V30 8 C -2.3118 0.6828 -0.9567 0
M  V30 9 C -0.7719 0.3714 -2.797 0
M  V30 10 C 0.0028 1.8606 -0.8678 0
M  V30 11 C -2.5408 -0.7134 -1.5754 0
M  V30 12 C 2.2462 -0.679 -1.2732 0
M  V30 13 N 0.6459 -0.4026 3.9424 0
M  V30 14 C -2.7364 0.7954 0.5213 0
M  V30 15 C -3.0798 1.8147 -1.6808 0
M  V30 16 C -1.9579 -0.5828 -2.998 0
M  V30 17 C 2.889 -0.6293 -2.5212 0
M  V30 18 C 2.8651 -0.0483 -0.187 0
M  V30 19 C 0.245 -0.3765 5.3522 0
M  V30 20 C 0.657 0.9647 3.4145 0
M  V30 21 C 4.095 0.0564 -2.6825 0
M  V30 22 C 4.0718 0.6375 -0.3468 0
M  V30 23 C 4.6854 0.6926 -1.5947 0
M  V30 24 H 1.2288 -1.7866 1.6962 0
M  V30 25 H -0.3687 -2.4803 1.4014 0
M  V30 26 H -2.0647 -1.9353 0.158 0
M  V30 27 H -1.3629 -2.5455 -1.3354 0
M  V30 28 H 1.1993 -2.3426 -0.5167 0
M  V30 29 H 0.6971 -1.8796 -2.1034 0
M  V30 30 H -1.2892 -0.8528 3.1834 0
M  V30 31 H -0.3202 -2.2422 3.6917 0
M  V30 32 H -0.9285 1.3047 -3.3496 0
M  V30 33 H 0.1536 -0.0465 -3.1934 0
M  V30 34 H 1.0321 1.8322 -1.2316 0
M  V30 35 H -0.4525 2.7556 -1.3046 0
M  V30 36 H 0.0277 2.005 0.2161 0
M  V30 37 H -3.5741 -1.069 -1.5678 0
M  V30 38 H -2.4661 -0.0552 1.1454 0
M  V30 39 H -2.3108 1.694 0.9809 0
M  V30 40 H -3.8279 0.8716 0.6007 0
M  V30 41 H -4.1614 1.6581 -1.5899 0
M  V30 42 H -2.873 1.9043 -2.7485 0
M  V30 43 H -2.8489 2.7874 -1.2317 0
M  V30 44 H -2.6874 -0.1545 -3.6935 0
M  V30 45 H -1.64 -1.5464 -3.4096 0
M  V30 46 H 2.4537 -1.1265 -3.3853 0
M  V30 47 H 2.4152 -0.073 0.8001 0
M  V30 48 H 0.2754 -1.3844 5.7809 0
M  V30 49 H -0.765 0.0269 5.4885 0
M  V30 50 H 0.9422 0.2311 5.9402 0
M  V30 51 H -0.3472 1.4013 3.3693 0
M  V30 52 H 1.1028 1.0029 2.4182 0
M  V30 53 H 1.2813 1.6127 4.041 0
M  V30 54 H 4.5741 0.0899 -3.6572 0
M  V30 55 H 4.5306 1.1273 0.508 0
M  V30 56 H 5.6237 1.2262 -1.7173 0
M  V30 END ATOM
M  V30 BEGIN BOND
M  V30 1 1 1 2
M  V30 2 1 1 3
M  V30 3 1 2 4
M  V30 4 1 2 5
M  V30 5 1 2 6
M  V30 6 1 3 7
M  V30 7 1 4 8
M  V30 8 1 4 9
M  V30 9 1 4 10
M  V30 10 1 5 11
M  V30 11 1 6 12
M  V30 12 1 7 13
M  V30 13 1 8 14
M  V30 14 1 8 15
M  V30 15 1 9 16
M  V30 16 2 12 17
M  V30 17 1 12 18
M  V30 18 1 13 19
M  V30 19 1 13 20
M  V30 20 1 17 21
M  V30 21 2 18 22
M  V30 22 2 21 23
M  V30 23 1 8 11
M  V30 24 1 11 16
M  V30 25 1 22 23
M  V30 26 1 3 24
M  V30 27 1 3 25
M  V30 28 1 5 26
M  V30 29 1 5 27
M  V30 30 1 6 28
M  V30 31 1 6 29
M  V30 32 1 7 30
M  V30 33 1 7 31
M  V30 34 1 9 32
M  V30 35 1 9 33
M  V30 36 1 10 34
M  V30 37 1 10 35
M  V30 38 1 10 36
M  V30 39 1 11 37
M  V30 40 1 14 38
M  V30 41 1 14 39
M  V30 42 1 14 40
M  V30 43 1 15 41
M  V30 44 1 15 42
M  V30 45 1 15 43
M  V30 46 1 16 44
M  V30 47 1 16 45
M  V30 48 1 17 46
M  V30 49 1 18 47
M  V30 50 1 19 48
M  V30 51 1 19 49
M  V30 52 1 19 50
M  V30 53 1 20 51
M  V30 54 1 20 52
M  V30 55 1 20 53
M  V30 56 1 21 54
M  V30 57 1 22 55
M  V30 58 1 23 56
M  V30 END BOND
M  V30 END CTAB
M  END
>  <Column 1>
1603

>  <level_0>
1757

>  <index>
1757

>  <Unnamed: 0>
1757

>  <NO.>
1769

>  <Name>
ramciclane

>  <IUPAC_name>
2-[(2-benzyl-1-7-7-trimethyl-2-bicyclo[2.2.1]heptanyl)oxy]-n-n-dimethylethanamine

>  <SMILES>
CN(C)CCOC1(Cc2ccccc2)CC2CCC1(C)C2(C)C

>  <CID>
3052772

>  <logBB>


>  <BBB+/BBB->
BBB+

>  <Inchi>
InChI=1S/C21H33NO/c1-19(2)18-11-12-20(19-3)21(16-18-23-14-13-22(4)5)15-17-9-7-6-8-10-17/h6-10-18H-11-16H2-1-5H3

>  <threshold>
-1

>  <reference>
R1|R13|R19|R27|R27|R30|

>  <group>
B

>  <Class>
1

>  <ABC>
18.12

>  <ABCGG>
16.03

>  <nAcid>
0

>  <nBase>
1

>  <nAromAtom>
6

>  <nAromBond>
6

>  <nAtom>
56

>  <nHeavyAtom>
23

>  <nSpiro>
0

>  <nBridgehead>
2

>  <nHetero>
2

>  <nN>
1

>  <nO>
1

>  <nF>
0

>  <BalabanJ>
1.79

>  <BertzCT>
538.03

>  <nBonds>
58

>  <nBondsO>
25

>  <nBondsS>
52

>  <nBondsD>
0

>  <nBondsT>
0

>  <nBondsA>
6

>  <nBondsM>
6

>  <nBondsKS>
55

>  <nBondsKD>
3

>  <RNCG>
0.27

>  <RPCG>
0.06

>  <FCSP3>
0.71

>  <SZ>
29

>  <Sm>
26.27

>  <Sv>
31.41

>  <Sse>
54.64

>  <Sp>
35.32

>  <Si>
63.35

>  <MZ>
0.52

>  <Mm>
0.47

>  <Mv>
0.56

>  <Mse>
0.98

>  <Mp>
0.63

>  <Mi>
1.13

>  <NsCH3>
5

>  <NdCH2>
0

>  <NssCH2>
6

>  <NtCH>
0

>  <NdsCH>
0

>  <NaaCH>
5

>  <NsssCH>
1

>  <NddC>
0

>  <NtsC>
0

>  <NdssC>
0

>  <NaasC>
1

>  <NaaaC>
0

>  <NssssC>
3

>  <NsNH3>
0

>  <NsNH2>
0

>  <NssNH2>
0

>  <NdNH>
0

>  <NssNH>
0

>  <NaaNH>
0

>  <NtN>
0

>  <NsssNH>
0

>  <NdsN>
0

>  <NaaN>
0

>  <NsssN>
1

>  <NddsN>
0

>  <NaasN>
0

>  <NssssN>
0

>  <NsOH>
0

>  <NdO>
0

>  <NssO>
1

>  <NaaO>
0

>  <NsF>
0

>  <NsSiH3>
0

>  <NssSiH2>
0

>  <NsssSiH>
0

>  <NssssSi>
0

>  <NsPH2>
0

>  <NssPH>
0

>  <NsssP>
0

>  <NdsssP>
0

>  <NsssssP>
0

>  <NsSH>
0

>  <NdS>
0

>  <NssS>
0

>  <NaaS>
0

>  <NdssS>
0

>  <NddssS>
0

>  <NsCl>
0

>  <NsBr>
0

>  <NsI>
0

>  <fragCpx>
119.02

>  <fMF>
0.25

>  <nHBAcc>
2

>  <nHBDon>
0

>  <Kier1>
17.81

>  <Kier2>
6.38

>  <Lipinski>
1

>  <GhoseFilter>
1

>  <FilterItLogS>
-5.52

>  <VMcGowan>
277.12

>  <LabuteASA>
141.77

>  <PEOE_VSA1>
9.64

>  <PEOE_VSA2>
0

>  <PEOE_VSA3>
0

>  <PEOE_VSA4>
0

>  <PEOE_VSA5>
0

>  <PEOE_VSA6>
51.1

>  <PEOE_VSA7>
50.25

>  <PEOE_VSA8>
18.38

>  <PEOE_VSA9>
12.21

>  <PEOE_VSA10>
0

>  <PEOE_VSA11>
0

>  <PEOE_VSA12>
0

>  <PEOE_VSA13>
0

>  <SMR_VSA1>
4.74

>  <SMR_VSA2>
0

>  <SMR_VSA3>
4.9

>  <SMR_VSA4>
16.75

>  <SMR_VSA5>
52.06

>  <SMR_VSA6>
27.25

>  <SMR_VSA7>
35.9

>  <SMR_VSA8>
0

>  <SMR_VSA9>
0

>  <SlogP_VSA1>
0

>  <SlogP_VSA2>
37.75

>  <SlogP_VSA3>
11.16

>  <SlogP_VSA4>
16.75

>  <SlogP_VSA5>
45.6

>  <SlogP_VSA6>
30.33

>  <SlogP_VSA7>
0

>  <SlogP_VSA8>
0

>  <SlogP_VSA9>
0

>  <SlogP_VSA10>
0

>  <SlogP_VSA11>
0

>  <EState_VSA1>
0

>  <EState_VSA2>
11.02

>  <EState_VSA3>
5.41

>  <EState_VSA4>
25.49

>  <EState_VSA5>
24.83

>  <EState_VSA6>
0

>  <EState_VSA7>
0

>  <EState_VSA8>
70.1

>  <EState_VSA9>
4.74

>  <EState_VSA10>
0

>  <VSA_EState1>
6.74

>  <VSA_EState2>
2.22

>  <VSA_EState3>
0

>  <VSA_EState4>
2.06

>  <VSA_EState5>
0.8

>  <VSA_EState6>
10.95

>  <VSA_EState7>
4.95

>  <VSA_EState8>
9.29

>  <VSA_EState9>
4.25

>  <apol>
58.98

>  <bpol>
36.55

>  <nRing>
3

>  <nHRing>
0

>  <naRing>
1

>  <naHRing>
0

>  <nARing 2>
2

>  <nAHRing 2>
0

>  <nFRing>
1

>  <nFHRing>
0

>  <nFaRing>
0

>  <nFaHRing>
0

>  <nFARing 2>
1

>  <nFAHRing 2>
0

>  <nRot>
6

>  <SLogP>
4.39

>  <SMR>
96.61

>  <TopoPSA(NO)>
12.47

>  <TopoPSA>
12.47

>  <JGI1>
0.28

>  <JGI2>
0.13

>  <JGI3>
0.08

>  <JGI4>
0.04

>  <JGI5>
0.03

>  <Diameter>
10

>  <Radius>
5

>  <TMWC10>
125.8

>  <TSRW10>
75.3

>  <MW>
315.26

>  <AMW>
5.63

>  <WPath>
1107

>  <WPol>
40

>  <Zagreb1>
128

>  <Zagreb2>
158

>  <mZagreb2>
4.88

>  <yes>


>  <nAR-cont>
1

>  <nHA-cont>
0.967789328

>  <MWHBN>
0.112640757

>  <MWHBN-cont>
0.795983984

>  <TPSA-cont>
0.912951657

>  <pka_cont>
0.97

>  <yes.1>


>  <BBB_SCORE>
5.472668617

>  <MMFF94 Energy>
132.53

$$$$
Compound 1346
Actelion Java MolfileCreator 2.0

  0  0  0  0  0  0              0 V3000
M  V30 BEGIN CTAB
M  V30 COUNTS 40 42 0 0 0
M  V30 BEGIN ATOM
M  V30 1 Cl -4.7406 0.8977 -1.061 0
M  V30 2 C -3.5485 -0.3095 -0.7766 0
M  V30 3 C -2.2364 0.0645 -0.4939 0
M  V30 4 C -3.897 -1.6524 -0.8396 0
M  V30 5 C -1.2394 -0.9034 -0.2577 0
M  V30 6 C -2.9245 -2.6254 -0.6078 0
M  V30 7 C 0.1488 -0.4209 -0.0525 0
M  V30 8 C -1.5997 -2.2639 -0.3044 0
M  V30 9 O 0.4842 0.5571 -0.9723 0
M  V30 10 C 0.9586 -0.8671 0.9279 0
M  V30 11 S -0.4609 -3.6087 0.0045 0
M  V30 12 C 1.8131 1.0845 -0.9733 0
M  V30 13 C 0.6717 -1.9009 1.938 0
M  V30 14 C 0.1116 -3.154 1.6363 0
M  V30 15 C 1.9635 2.0944 -2.1269 0
M  V30 16 C 1.0893 -1.6414 3.2552 0
M  V30 17 C -0.0102 -4.12 2.6479 0
M  V30 18 N 1.5485 3.4775 -1.7994 0
M  V30 19 C 0.9459 -2.6024 4.2573 0
M  V30 20 C 0.3997 -3.844 3.9526 0
M  V30 21 C 0.1216 3.559 -1.4787 0
M  V30 22 C 1.8529 4.3658 -2.9247 0
M  V30 23 H -1.9801 1.1214 -0.4642 0
M  V30 24 H -4.9171 -1.9502 -1.0659 0
M  V30 25 H -3.211 -3.6743 -0.6552 0
M  V30 26 H 1.9535 -0.4471 1.0415 0
M  V30 27 H 2.5199 0.2633 -1.144 0
M  V30 28 H 2.0422 1.5664 -0.0152 0
M  V30 29 H 3.0313 2.1246 -2.3786 0
M  V30 30 H 1.4232 1.732 -3.011 0
M  V30 31 H 1.534 -0.6815 3.5118 0
M  V30 32 H -0.4356 -5.0966 2.4267 0
M  V30 33 H 1.2694 -2.3829 5.2717 0
M  V30 34 H 0.2924 -4.5987 4.7275 0
M  V30 35 H -0.1022 3.0315 -0.5465 0
M  V30 36 H -0.5075 3.1501 -2.2775 0
M  V30 37 H -0.1761 4.6004 -1.3091 0
M  V30 38 H 1.3074 4.0851 -3.833 0
M  V30 39 H 2.9257 4.3527 -3.1474 0
M  V30 40 H 1.5999 5.4028 -2.6764 0
M  V30 END ATOM
M  V30 BEGIN BOND
M  V30 1 1 1 2
M  V30 2 2 2 3
M  V30 3 1 2 4
M  V30 4 1 3 5
M  V30 5 2 4 6
M  V30 6 1 5 7
M  V30 7 2 5 8
M  V30 8 1 7 9
M  V30 9 2 7 10
M  V30 10 1 8 11
M  V30 11 1 9 12
M  V30 12 1 10 13
M  V30 13 1 11 14
M  V30 14 1 12 15
M  V30 15 1 13 16
M  V30 16 1 14 17
M  V30 17 1 15 18
M  V30 18 2 16 19
M  V30 19 2 17 20
M  V30 20 1 18 21
M  V30 21 1 18 22
M  V30 22 1 6 8
M  V30 23 2 13 14
M  V30 24 1 19 20
M  V30 25 1 3 23
M  V30 26 1 4 24
M  V30 27 1 6 25
M  V30 28 1 10 26
M  V30 29 1 12 27
M  V30 30 1 12 28
M  V30 31 1 15 29
M  V30 32 1 15 30
M  V30 33 1 16 31
M  V30 34 1 17 32
M  V30 35 1 19 33
M  V30 36 1 20 34
M  V30 37 1 21 35
M  V30 38 1 21 36
M  V30 39 1 21 37
M  V30 40 1 22 38
M  V30 41 1 22 39
M  V30 42 1 22 40
M  V30 END BOND
M  V30 END CTAB
M  END
>  <Column 1>
1604

>  <level_0>
1758

>  <index>
1758

>  <Unnamed: 0>
1758

>  <NO.>
1770

>  <Name>
zotepine

>  <IUPAC_name>
2-(3-chlorobenzo[b][1]benzothiepin-5-yl)oxy-n-n-dimethylethanamine

>  <SMILES>
CN(C)CCOC1=Cc2ccccc2Sc2ccc(Cl)cc21

>  <CID>
5736

>  <logBB>


>  <BBB+/BBB->
BBB+

>  <Inchi>
InChI=1S/C18H18ClNOS/c1-20(2)9-10-21-16-11-13-5-3-4-6-17(13)22-18-8-7-14(19)12-15(16)18/h3-8-11-12H-9-10H2-1-2H3

>  <threshold>
-1

>  <reference>
R1|R13|R19|R6|R14|R23|R24|R27|R27|R27|R27|R30|R30|R37|

>  <group>
B

>  <Class>
1

>  <ABC>
17.18

>  <ABCGG>
13.53

>  <nAcid>
0

>  <nBase>
1

>  <nAromAtom>
12

>  <nAromBond>
12

>  <nAtom>
40

>  <nHeavyAtom>
22

>  <nSpiro>
0

>  <nBridgehead>
0

>  <nHetero>
4

>  <nN>
1

>  <nO>
1

>  <nF>
0

>  <BalabanJ>
1.68

>  <BertzCT>
711.98

>  <nBonds>
42

>  <nBondsO>
24

>  <nBondsS>
29

>  <nBondsD>
1

>  <nBondsT>
0

>  <nBondsA>
12

>  <nBondsM>
13

>  <nBondsKS>
35

>  <nBondsKD>
7

>  <RNCG>
0.36

>  <RPCG>
0.09

>  <FCSP3>
0.22

>  <SZ>
29

>  <Sm>
27.63

>  <Sv>
26.63

>  <Sse>
39.83

>  <Sp>
29.37

>  <Si>
44.31

>  <MZ>
0.73

>  <Mm>
0.69

>  <Mv>
0.67

>  <Mse>
1

>  <Mp>
0.73

>  <Mi>
1.11

>  <NsCH3>
2

>  <NdCH2>
0

>  <NssCH2>
2

>  <NtCH>
0

>  <NdsCH>
1

>  <NaaCH>
7

>  <NsssCH>
0

>  <NddC>
0

>  <NtsC>
0

>  <NdssC>
1

>  <NaasC>
5

>  <NaaaC>
0

>  <NssssC>
0

>  <NsNH3>
0

>  <NsNH2>
0

>  <NssNH2>
0

>  <NdNH>
0

>  <NssNH>
0

>  <NaaNH>
0

>  <NtN>
0

>  <NsssNH>
0

>  <NdsN>
0

>  <NaaN>
0

>  <NsssN>
1

>  <NddsN>
0

>  <NaasN>
0

>  <NssssN>
0

>  <NsOH>
0

>  <NdO>
0

>  <NssO>
1

>  <NaaO>
0

>  <NsF>
0

>  <NsSiH3>
0

>  <NssSiH2>
0

>  <NsssSiH>
0

>  <NssssSi>
0

>  <NsPH2>
0

>  <NssPH>
0

>  <NsssP>
0

>  <NdsssP>
0

>  <NsssssP>
0

>  <NsSH>
0

>  <NdS>
0

>  <NssS>
1

>  <NaaS>
0

>  <NdssS>
0

>  <NddssS>
0

>  <NsCl>
1

>  <NsBr>
0

>  <NsI>
0

>  <fragCpx>
114.04

>  <fMF>
0.38

>  <nHBAcc>
3

>  <nHBDon>
0

>  <Kier1>
16.84

>  <Kier2>
7.71

>  <Lipinski>
1

>  <GhoseFilter>
1

>  <FilterItLogS>
-5.52

>  <VMcGowan>
246.24

>  <LabuteASA>
140.28

>  <PEOE_VSA1>
9.64

>  <PEOE_VSA2>
0

>  <PEOE_VSA3>
0

>  <PEOE_VSA4>
0

>  <PEOE_VSA5>
0

>  <PEOE_VSA6>
41.56

>  <PEOE_VSA7>
50

>  <PEOE_VSA8>
26.92

>  <PEOE_VSA9>
0

>  <PEOE_VSA10>
12.37

>  <PEOE_VSA11>
0

>  <PEOE_VSA12>
0

>  <PEOE_VSA13>
0

>  <SMR_VSA1>
4.74

>  <SMR_VSA2>
0

>  <SMR_VSA3>
4.9

>  <SMR_VSA4>
0

>  <SMR_VSA5>
9.79

>  <SMR_VSA6>
27.25

>  <SMR_VSA7>
58.61

>  <SMR_VSA8>
0

>  <SMR_VSA9>
0

>  <SlogP_VSA1>
0

>  <SlogP_VSA2>
32.15

>  <SlogP_VSA3>
4.74

>  <SlogP_VSA4>
0

>  <SlogP_VSA5>
11.13

>  <SlogP_VSA6>
52.26

>  <SlogP_VSA7>
5.02

>  <SlogP_VSA8>
11.84

>  <SlogP_VSA9>
0

>  <SlogP_VSA10>
0

>  <SlogP_VSA11>
0

>  <EState_VSA1>
0

>  <EState_VSA2>
0

>  <EState_VSA3>
6.61

>  <EState_VSA4>
22.89

>  <EState_VSA5>
15.35

>  <EState_VSA6>
11.76

>  <EState_VSA7>
26.23

>  <EState_VSA8>
41.31

>  <EState_VSA9>
16.34

>  <EState_VSA10>
0

>  <VSA_EState1>
6.06

>  <VSA_EState2>
4.52

>  <VSA_EState3>
0.73

>  <VSA_EState4>
2.24

>  <VSA_EState5>
0.89

>  <VSA_EState6>
14.34

>  <VSA_EState7>
2.11

>  <VSA_EState8>
1.53

>  <VSA_EState9>
4.08

>  <apol>
49.04

>  <bpol>
24.47

>  <nRing>
3

>  <nHRing>
1

>  <naRing>
2

>  <naHRing>
0

>  <nARing 2>
1

>  <nAHRing 2>
1

>  <nFRing>
1

>  <nFHRing>
1

>  <nFaRing>
0

>  <nFaHRing>
0

>  <nFARing 2>
1

>  <nFAHRing 2>
1

>  <nRot>
4

>  <SLogP>
4.88

>  <SMR>
94.39

>  <TopoPSA(NO)>
12.47

>  <TopoPSA>
37.77

>  <JGI1>
0.19

>  <JGI2>
0.07

>  <JGI3>
0.03

>  <JGI4>
0.05

>  <JGI5>
0.02

>  <Diameter>
10

>  <Radius>
5

>  <TMWC10>
119.92

>  <TSRW10>
64.06

>  <MW>
331.08

>  <AMW>
8.28

>  <WPath>
1021

>  <WPol>
36

>  <Zagreb1>
114

>  <Zagreb2>
132

>  <mZagreb2>
4.83

>  <yes>


>  <nAR-cont>
0.816016

>  <nHA-cont>
0.983774276

>  <MWHBN>
0.16487499

>  <MWHBN-cont>
0.96529868

>  <TPSA-cont>
0.736341946

>  <pka_cont>
0.97

>  <yes.1>


>  <BBB_SCORE>
5.205422188

>  <MMFF94 Energy>
86.991

$$$$
Compound 1347
Actelion Java MolfileCreator 2.0

  0  0  0  0  0  0              0 V3000
M  V30 BEGIN CTAB
M  V30 COUNTS 44 46 0 0 0
M  V30 BEGIN ATOM
M  V30 1 O -0.0794 1.43 0.397 0
M  V30 2 N -0.1541 0.9867 -0.9318 0
M  V30 3 C -0.5115 2.7878 0.4512 0
M  V30 4 C 0.1753 -0.2704 -1.0508 0
M  V30 5 C -0.5273 3.2723 1.9102 0
M  V30 6 C 0.1569 -0.8688 -2.4224 0
M  V30 7 C 0.5174 -1.1542 0.0939 0
M  V30 8 N -1.489 2.5902 2.8058 0
M  V30 9 C 1.1209 -1.7625 -2.9246 0
M  V30 10 C -0.9273 -0.483 -3.2346 0
M  V30 11 C 1.7803 -1.7501 0.1669 0
M  V30 12 C -0.4338 -1.3725 1.0971 0
M  V30 13 C -2.8762 2.8185 2.4045 0
M  V30 14 C -1.2858 3.0294 4.1874 0
M  V30 15 C 0.9366 -2.2729 -4.2288 0
M  V30 16 C 2.3613 -2.2424 -2.2013 0
M  V30 17 C -1.08 -0.9911 -4.5232 0
M  V30 18 C 2.0791 -2.5762 1.259 0
M  V30 19 C 2.7806 -1.5157 -0.9271 0
M  V30 20 C -0.1251 -2.1932 2.1804 0
M  V30 21 C -0.1487 -1.8925 -5.0188 0
M  V30 22 C 1.1296 -2.7953 2.2598 0
M  V30 23 H -1.4952 2.8912 -0.0189 0
M  V30 24 H 0.1996 3.3992 -0.1169 0
M  V30 25 H 0.4815 3.1084 2.3107 0
M  V30 26 H -0.7106 4.3546 1.9196 0
M  V30 27 H -1.6698 0.2165 -2.8542 0
M  V30 28 H -1.4053 -0.8872 1.0425 0
M  V30 29 H -3.0855 2.3708 1.4284 0
M  V30 30 H -3.1238 3.8851 2.3616 0
M  V30 31 H -3.5649 2.3364 3.1082 0
M  V30 32 H -1.4631 4.1041 4.3096 0
M  V30 33 H -0.2649 2.8075 4.5175 0
M  V30 34 H -1.9556 2.4897 4.8663 0
M  V30 35 H 1.6578 -2.9762 -4.6434 0
M  V30 36 H 3.2036 -2.1616 -2.9019 0
M  V30 37 H 2.2289 -3.3112 -1.9843 0
M  V30 38 H -1.9257 -0.6841 -5.1323 0
M  V30 39 H 3.0527 -3.0536 1.3399 0
M  V30 40 H 3.7639 -1.8877 -0.6131 0
M  V30 41 H 2.9079 -0.4401 -1.1016 0
M  V30 42 H -0.8596 -2.353 2.9651 0
M  V30 43 H -0.2612 -2.2975 -6.021 0
M  V30 44 H 1.3712 -3.4324 3.1068 0
M  V30 END ATOM
M  V30 BEGIN BOND
M  V30 1 1 1 2
M  V30 2 1 1 3
M  V30 3 2 2 4
M  V30 4 1 3 5
M  V30 5 1 4 6
M  V30 6 1 4 7
M  V30 7 1 5 8
M  V30 8 2 6 9
M  V30 9 1 6 10
M  V30 10 2 7 11
M  V30 11 1 7 12
M  V30 12 1 8 13
M  V30 13 1 8 14
M  V30 14 1 9 15
M  V30 15 1 9 16
M  V30 16 2 10 17
M  V30 17 1 11 18
M  V30 18 1 11 19
M  V30 19 2 12 20
M  V30 20 2 15 21
M  V30 21 2 18 22
M  V30 22 1 16 19
M  V30 23 1 17 21
M  V30 24 1 20 22
M  V30 25 1 3 23
M  V30 26 1 3 24
M  V30 27 1 5 25
M  V30 28 1 5 26
M  V30 29 1 10 27
M  V30 30 1 12 28
M  V30 31 1 13 29
M  V30 32 1 13 30
M  V30 33 1 13 31
M  V30 34 1 14 32
M  V30 35 1 14 33
M  V30 36 1 14 34
M  V30 37 1 15 35
M  V30 38 1 16 36
M  V30 39 1 16 37
M  V30 40 1 17 38
M  V30 41 1 18 39
M  V30 42 1 19 40
M  V30 43 1 19 41
M  V30 44 1 20 42
M  V30 45 1 21 43
M  V30 46 1 22 44
M  V30 END BOND
M  V30 END CTAB
M  END
>  <Column 1>
1605

>  <level_0>
1759

>  <index>
1759

>  <Unnamed: 0>
1759

>  <NO.>
1771

>  <Name>
noxiptiline

>  <IUPAC_name>
n-n-dimethyl-2-(2-tricyclo[9.4.0.03-8]pentadeca-1(15)-3-5-7-11-13-hexaenylideneamino)oxyethanamine

>  <SMILES>
CN(C)CCON=C1c2ccccc2CCc2ccccc21

>  <CID>
21087

>  <logBB>


>  <BBB+/BBB->
BBB+

>  <Inchi>
InChI=1S/C19H22N2O/c1-21(2)13-14-22-20-19-17-9-5-3-7-15(17)11-12-16-8-4-6-10-18(16)19/h3-10H-11-14H2-1-2H3

>  <threshold>
-1

>  <reference>
R1|R7|R13|R19|R6|R24|R27|R27|R27|R29|R30|R30|

>  <group>
B

>  <Class>
1

>  <ABC>
17.03

>  <ABCGG>
13.52

>  <nAcid>
0

>  <nBase>
1

>  <nAromAtom>
12

>  <nAromBond>
12

>  <nAtom>
44

>  <nHeavyAtom>
22

>  <nSpiro>
0

>  <nBridgehead>
0

>  <nHetero>
3

>  <nN>
2

>  <nO>
1

>  <nF>
0

>  <BalabanJ>
1.65

>  <BertzCT>
627.14

>  <nBonds>
46

>  <nBondsO>
24

>  <nBondsS>
33

>  <nBondsD>
1

>  <nBondsT>
0

>  <nBondsA>
12

>  <nBondsM>
13

>  <nBondsKS>
39

>  <nBondsKD>
7

>  <RNCG>
0.28

>  <RPCG>
0.09

>  <FCSP3>
0.32

>  <SZ>
26.33

>  <Sm>
24.51

>  <Sv>
27.19

>  <Sse>
43.42

>  <Sp>
29.58

>  <Si>
49.36

>  <MZ>
0.6

>  <Mm>
0.56

>  <Mv>
0.62

>  <Mse>
0.99

>  <Mp>
0.67

>  <Mi>
1.12

>  <NsCH3>
2

>  <NdCH2>
0

>  <NssCH2>
4

>  <NtCH>
0

>  <NdsCH>
0

>  <NaaCH>
8

>  <NsssCH>
0

>  <NddC>
0

>  <NtsC>
0

>  <NdssC>
1

>  <NaasC>
4

>  <NaaaC>
0

>  <NssssC>
0

>  <NsNH3>
0

>  <NsNH2>
0

>  <NssNH2>
0

>  <NdNH>
0

>  <NssNH>
0

>  <NaaNH>
0

>  <NtN>
0

>  <NsssNH>
0

>  <NdsN>
1

>  <NaaN>
0

>  <NsssN>
1

>  <NddsN>
0

>  <NaasN>
0

>  <NssssN>
0

>  <NsOH>
0

>  <NdO>
0

>  <NssO>
1

>  <NaaO>
0

>  <NsF>
0

>  <NsSiH3>
0

>  <NssSiH2>
0

>  <NsssSiH>
0

>  <NssssSi>
0

>  <NsPH2>
0

>  <NssPH>
0

>  <NsssP>
0

>  <NdsssP>
0

>  <NsssssP>
0

>  <NsSH>
0

>  <NdS>
0

>  <NssS>
0

>  <NaaS>
0

>  <NdssS>
0

>  <NddssS>
0

>  <NsCl>
0

>  <NsBr>
0

>  <NsI>
0

>  <fragCpx>
114.03

>  <fMF>
0.34

>  <nHBAcc>
3

>  <nHBDon>
0

>  <Kier1>
16.84

>  <Kier2>
8.2

>  <Lipinski>
1

>  <GhoseFilter>
1

>  <FilterItLogS>
-5.22

>  <VMcGowan>
241.72

>  <LabuteASA>
131.76

>  <PEOE_VSA1>
9.74

>  <PEOE_VSA2>
0

>  <PEOE_VSA3>
0

>  <PEOE_VSA4>
0

>  <PEOE_VSA5>
0

>  <PEOE_VSA6>
53.69

>  <PEOE_VSA7>
38.06

>  <PEOE_VSA8>
17.67

>  <PEOE_VSA9>
0

>  <PEOE_VSA10>
12.32

>  <PEOE_VSA11>
0

>  <PEOE_VSA12>
0

>  <PEOE_VSA13>
0

>  <SMR_VSA1>
4.84

>  <SMR_VSA2>
0

>  <SMR_VSA3>
4.9

>  <SMR_VSA4>
5.16

>  <SMR_VSA5>
12.84

>  <SMR_VSA6>
27.25

>  <SMR_VSA7>
70.78

>  <SMR_VSA8>
0

>  <SMR_VSA9>
0

>  <SlogP_VSA1>
0

>  <SlogP_VSA2>
37.86

>  <SlogP_VSA3>
17.68

>  <SlogP_VSA4>
0

>  <SlogP_VSA5>
22.25

>  <SlogP_VSA6>
53.69

>  <SlogP_VSA7>
0

>  <SlogP_VSA8>
0

>  <SlogP_VSA9>
0

>  <SlogP_VSA10>
0

>  <SlogP_VSA11>
0

>  <EState_VSA1>
0

>  <EState_VSA2>
0

>  <EState_VSA3>
6.61

>  <EState_VSA4>
25.1

>  <EState_VSA5>
22.25

>  <EState_VSA6>
0

>  <EState_VSA7>
14.1

>  <EState_VSA8>
58.59

>  <EState_VSA9>
4.84

>  <EState_VSA10>
0

>  <VSA_EState1>
0

>  <VSA_EState2>
7.69

>  <VSA_EState3>
4.49

>  <VSA_EState4>
6.03

>  <VSA_EState5>
0

>  <VSA_EState6>
17.01

>  <VSA_EState7>
2.09

>  <VSA_EState8>
1.46

>  <VSA_EState9>
4.07

>  <apol>
49.4

>  <bpol>
25.52

>  <nRing>
3

>  <nHRing>
0

>  <naRing>
2

>  <naHRing>
0

>  <nARing 2>
1

>  <nAHRing 2>
0

>  <nFRing>
1

>  <nFHRing>
0

>  <nFaRing>
0

>  <nFaHRing>
0

>  <nFARing 2>
1

>  <nFAHRing 2>
0

>  <nRot>
4

>  <SLogP>
3.12

>  <SMR>
90.44

>  <TopoPSA(NO)>
24.83

>  <TopoPSA>
24.83

>  <JGI1>
0.13

>  <JGI2>
0.07

>  <JGI3>
0.04

>  <JGI4>
0.03

>  <JGI5>
0.01

>  <Diameter>
10

>  <Radius>
5

>  <TMWC10>
119.73

>  <TSRW10>
63.95

>  <MW>
294.17

>  <AMW>
6.69

>  <WPath>
1043

>  <WPol>
36

>  <Zagreb1>
112

>  <Zagreb2>
130

>  <mZagreb2>
4.94

>  <yes>


>  <nAR-cont>
0.816016

>  <nHA-cont>
0.983774276

>  <MWHBN>
0.17491299

>  <MWHBN-cont>
0.981053642

>  <TPSA-cont>
0.826671181

>  <pka_cont>
0.97

>  <yes.1>


>  <BBB_SCORE>
5.409713102

>  <MMFF94 Energy>
121.7

$$$$
Compound 1348
Actelion Java MolfileCreator 2.0

  0  0  0  0  0  0              0 V3000
M  V30 BEGIN CTAB
M  V30 COUNTS 45 47 0 0 0
M  V30 BEGIN ATOM
M  V30 1 O -2.4687 -0.4774 1.5125 0
M  V30 2 C -1.8387 -0.3031 0.4678 0
M  V30 3 C -2.5486 -0.5025 -0.8265 0
M  V30 4 C -0.3265 0.0582 0.4428 0 CFG=1
M  V30 5 C -1.9562 -0.1196 -2.035 0
M  V30 6 C -3.8294 -1.073 -0.8198 0
M  V30 7 C 0.532 -1.2198 0.3183 0
M  V30 8 C -0.164 1.0655 -0.7252 0
M  V30 9 C -0.0185 0.7436 1.8182 0
M  V30 10 C -2.6488 -0.3454 -3.2346 0
M  V30 11 C -0.5888 0.4946 -2.0784 0
M  V30 12 C -4.5129 -1.2808 -2.0173 0
M  V30 13 C 0.1269 -2.4214 0.9306 0
M  V30 14 C 1.7698 -1.2216 -0.35 0
M  V30 15 C 1.4189 1.2206 2.0966 0
M  V30 16 C -3.9205 -0.9202 -3.2245 0
M  V30 17 C 0.902 -3.5808 0.8402 0
M  V30 18 C 2.5455 -2.3812 -0.4399 0
M  V30 19 N 1.8913 2.3408 1.2667 0
M  V30 20 C 2.1086 -3.5622 0.1498 0
M  V30 21 C 3.3387 2.5072 1.4304 0
M  V30 22 C 1.2134 3.5947 1.6076 0
M  V30 23 H -4.2965 -1.3626 0.1195 0
M  V30 24 H 0.8628 1.4245 -0.8283 0
M  V30 25 H -0.7784 1.9539 -0.5183 0
M  V30 26 H -0.7168 1.5769 1.9715 0
M  V30 27 H -0.2585 0.0327 2.6231 0
M  V30 28 H -2.1992 -0.0705 -4.1869 0
M  V30 29 H 0.1241 -0.2605 -2.426 0
M  V30 30 H -0.5771 1.3101 -2.8124 0
M  V30 31 H -5.5041 -1.727 -2.0065 0
M  V30 32 H -0.7995 -2.4748 1.5008 0
M  V30 33 H 2.166 -0.3147 -0.7999 0
M  V30 34 H 1.4887 1.4965 3.1582 0
M  V30 35 H 2.0908 0.3631 1.9758 0
M  V30 36 H -4.449 -1.0865 -4.16 0
M  V30 37 H 0.5615 -4.4964 1.3171 0
M  V30 38 H 3.4965 -2.3563 -0.9655 0
M  V30 39 H 2.7121 -4.463 0.0817 0
M  V30 40 H 3.868 1.5992 1.1203 0
M  V30 41 H 3.615 2.733 2.4669 0
M  V30 42 H 3.7085 3.3155 0.7896 0
M  V30 43 H 1.3527 3.8686 2.6597 0
M  V30 44 H 0.1401 3.5357 1.4034 0
M  V30 45 H 1.5932 4.4152 0.9878 0
M  V30 END ATOM
M  V30 BEGIN BOND
M  V30 1 2 1 2
M  V30 2 1 2 3
M  V30 3 1 2 4
M  V30 4 2 3 5
M  V30 5 1 3 6
M  V30 6 1 4 7
M  V30 7 1 4 8
M  V30 8 1 4 9
M  V30 9 1 5 10
M  V30 10 1 5 11
M  V30 11 2 6 12
M  V30 12 2 7 13
M  V30 13 1 7 14
M  V30 14 1 9 15
M  V30 15 2 10 16
M  V30 16 1 13 17
M  V30 17 2 14 18
M  V30 18 1 15 19
M  V30 19 2 17 20
M  V30 20 1 19 21
M  V30 21 1 19 22
M  V30 22 1 8 11
M  V30 23 1 12 16
M  V30 24 1 18 20
M  V30 25 1 6 23
M  V30 26 1 8 24
M  V30 27 1 8 25
M  V30 28 1 9 26
M  V30 29 1 9 27
M  V30 30 1 10 28
M  V30 31 1 11 29
M  V30 32 1 11 30
M  V30 33 1 12 31
M  V30 34 1 13 32
M  V30 35 1 14 33
M  V30 36 1 15 34
M  V30 37 1 15 35
M  V30 38 1 16 36
M  V30 39 1 17 37
M  V30 40 1 18 38
M  V30 41 1 20 39
M  V30 42 1 21 40
M  V30 43 1 21 41
M  V30 44 1 21 42
M  V30 45 1 22 43
M  V30 46 1 22 44
M  V30 47 1 22 45
M  V30 END BOND
M  V30 BEGIN COLLECTION
M  V30 MDLV30/STEABS ATOMS=(1 4)
M  V30 END COLLECTION
M  V30 END CTAB
M  END
>  <Column 1>
1606

>  <level_0>
1760

>  <index>
1760

>  <Unnamed: 0>
1760

>  <NO.>
1772

>  <Name>
dexnafenodone

>  <IUPAC_name>
(2s)-2-[2-(dimethylamino)ethyl]-2-phenyl-3-4-dihydronaphthalen-1-one

>  <SMILES>
CN(C)CC[C@]1(c2ccccc2)CCc2ccccc2C1=O

>  <CID>
65834

>  <logBB>


>  <BBB+/BBB->
BBB+

>  <Inchi>
InChI=1S/C20H23NO/c1-21(2)15-14-20(17-9-4-3-5-10-17)13-12-16-8-6-7-11-18(16)19(20)22/h3-11H-12-15H2-1-2H3/t20-/m0/s1

>  <threshold>
-1

>  <reference>
R1|R6|R24|R27|R27|R30|R30|

>  <group>
B

>  <Class>
1

>  <ABC>
17.09

>  <ABCGG>
14.09

>  <nAcid>
0

>  <nBase>
1

>  <nAromAtom>
12

>  <nAromBond>
12

>  <nAtom>
45

>  <nHeavyAtom>
22

>  <nSpiro>
0

>  <nBridgehead>
0

>  <nHetero>
2

>  <nN>
1

>  <nO>
1

>  <nF>
0

>  <BalabanJ>
1.8

>  <BertzCT>
662.42

>  <nBonds>
47

>  <nBondsO>
24

>  <nBondsS>
34

>  <nBondsD>
1

>  <nBondsT>
0

>  <nBondsA>
12

>  <nBondsM>
13

>  <nBondsKS>
40

>  <nBondsKD>
7

>  <RNCG>
0.23

>  <RPCG>
0.13

>  <FCSP3>
0.35

>  <SZ>
26.33

>  <Sm>
24.43

>  <Sv>
27.7

>  <Sse>
44.2

>  <Sp>
30.32

>  <Si>
50.28

>  <MZ>
0.59

>  <Mm>
0.54

>  <Mv>
0.62

>  <Mse>
0.98

>  <Mp>
0.67

>  <Mi>
1.12

>  <NsCH3>
2

>  <NdCH2>
0

>  <NssCH2>
4

>  <NtCH>
0

>  <NdsCH>
0

>  <NaaCH>
9

>  <NsssCH>
0

>  <NddC>
0

>  <NtsC>
0

>  <NdssC>
1

>  <NaasC>
3

>  <NaaaC>
0

>  <NssssC>
1

>  <NsNH3>
0

>  <NsNH2>
0

>  <NssNH2>
0

>  <NdNH>
0

>  <NssNH>
0

>  <NaaNH>
0

>  <NtN>
0

>  <NsssNH>
0

>  <NdsN>
0

>  <NaaN>
0

>  <NsssN>
1

>  <NddsN>
0

>  <NaasN>
0

>  <NssssN>
0

>  <NsOH>
0

>  <NdO>
1

>  <NssO>
0

>  <NaaO>
0

>  <NsF>
0

>  <NsSiH3>
0

>  <NssSiH2>
0

>  <NsssSiH>
0

>  <NssssSi>
0

>  <NsPH2>
0

>  <NssPH>
0

>  <NsssP>
0

>  <NdsssP>
0

>  <NsssssP>
0

>  <NsSH>
0

>  <NdS>
0

>  <NssS>
0

>  <NaaS>
0

>  <NdssS>
0

>  <NddssS>
0

>  <NsCl>
0

>  <NsBr>
0

>  <NsI>
0

>  <fragCpx>
114.02

>  <fMF>
0.36

>  <nHBAcc>
2

>  <nHBDon>
0

>  <Kier1>
16.84

>  <Kier2>
7.27

>  <Lipinski>
1

>  <GhoseFilter>
1

>  <FilterItLogS>
-5.45

>  <VMcGowan>
245.83

>  <LabuteASA>
132.32

>  <PEOE_VSA1>
4.9

>  <PEOE_VSA2>
4.79

>  <PEOE_VSA3>
0

>  <PEOE_VSA4>
0

>  <PEOE_VSA5>
0

>  <PEOE_VSA6>
54.6

>  <PEOE_VSA7>
51.03

>  <PEOE_VSA8>
5.56

>  <PEOE_VSA9>
5.41

>  <PEOE_VSA10>
0

>  <PEOE_VSA11>
5.78

>  <PEOE_VSA12>
0

>  <PEOE_VSA13>
0

>  <SMR_VSA1>
4.79

>  <SMR_VSA2>
0

>  <SMR_VSA3>
4.9

>  <SMR_VSA4>
0

>  <SMR_VSA5>
24.68

>  <SMR_VSA6>
20.64

>  <SMR_VSA7>
71.29

>  <SMR_VSA8>
0

>  <SMR_VSA9>
0

>  <SlogP_VSA1>
0

>  <SlogP_VSA2>
31.32

>  <SlogP_VSA3>
11.84

>  <SlogP_VSA4>
0

>  <SlogP_VSA5>
34.33

>  <SlogP_VSA6>
54.6

>  <SlogP_VSA7>
0

>  <SlogP_VSA8>
0

>  <SlogP_VSA9>
0

>  <SlogP_VSA10>
0

>  <SlogP_VSA11>
0

>  <EState_VSA1>
0

>  <EState_VSA2>
5.41

>  <EState_VSA3>
5.78

>  <EState_VSA4>
36.93

>  <EState_VSA5>
5.56

>  <EState_VSA6>
0

>  <EState_VSA7>
36.4

>  <EState_VSA8>
37.19

>  <EState_VSA9>
0

>  <EState_VSA10>
4.79

>  <VSA_EState1>
0

>  <VSA_EState2>
15.5

>  <VSA_EState3>
0

>  <VSA_EState4>
2.9

>  <VSA_EState5>
0.29

>  <VSA_EState6>
18.41

>  <VSA_EState7>
2.75

>  <VSA_EState8>
0.92

>  <VSA_EState9>
4.14

>  <apol>
50.64

>  <bpol>
25.65

>  <nRing>
3

>  <nHRing>
0

>  <naRing>
2

>  <naHRing>
0

>  <nARing 2>
1

>  <nAHRing 2>
0

>  <nFRing>
1

>  <nFHRing>
0

>  <nFaRing>
0

>  <nFaHRing>
0

>  <nFARing 2>
1

>  <nFAHRing 2>
0

>  <nRot>
4

>  <SLogP>
3.71

>  <SMR>
90.38

>  <TopoPSA(NO)>
20.31

>  <TopoPSA>
20.31

>  <JGI1>
0.19

>  <JGI2>
0.1

>  <JGI3>
0.05

>  <JGI4>
0.04

>  <JGI5>
0.03

>  <Diameter>
9

>  <Radius>
5

>  <TMWC10>
121.3

>  <TSRW10>
56.55

>  <MW>
293.18

>  <AMW>
6.52

>  <WPath>
960

>  <WPol>
38

>  <Zagreb1>
116

>  <Zagreb2>
139

>  <mZagreb2>
4.89

>  <yes>


>  <nAR-cont>
0.816016

>  <nHA-cont>
0.983774276

>  <MWHBN>
0.116805374

>  <MWHBN-cont>
0.815288607

>  <TPSA-cont>
0.858223588

>  <pka_cont>
0.97

>  <yes.1>


>  <BBB_SCORE>
5.224170363

>  <MMFF94 Energy>
85.088

$$$$
Compound 1349
Actelion Java MolfileCreator 2.0

  0  0  0  0  0  0              0 V3000
M  V30 BEGIN CTAB
M  V30 COUNTS 36 37 0 0 0
M  V30 BEGIN ATOM
M  V30 1 P -3.203 -0.1599 0.3999 0
M  V30 2 O -2.8945 0.8317 1.4699 0
M  V30 3 O -1.9915 -0.7751 -0.4557 0
M  V30 4 O -4.0349 -1.417 0.94 0
M  V30 5 O -4.2105 0.4274 -0.6958 0
M  V30 6 C -1.0782 -1.5876 0.1758 0
M  V30 7 C 0.0576 -1.0722 0.8401 0
M  V30 8 C -1.3131 -2.9673 0.1312 0
M  V30 9 C 0.8868 -1.9906 1.4929 0
M  V30 10 C 0.6365 0.2307 1.0309 0
M  V30 11 C -0.4555 -3.8471 0.7818 0
M  V30 12 N 1.8994 -1.2764 2.087 0
M  V30 13 C 0.6547 -3.3733 1.4844 0
M  V30 14 C 1.7497 0.0568 1.8334 0
M  V30 15 C 0.1488 1.5433 0.4889 0
M  V30 16 C 1.1943 2.3367 -0.3232 0
M  V30 17 N 1.741 1.6629 -1.5187 0
M  V30 18 C 2.7975 2.4786 -2.1184 0
M  V30 19 C 0.7073 1.3704 -2.5114 0
M  V30 20 H -3.6262 -1.7683 1.753 0
M  V30 21 H -4.8862 0.9832 -0.27 0
M  V30 22 H -2.1725 -3.3522 -0.4127 0
M  V30 23 H -0.6484 -4.9167 0.7419 0
M  V30 24 H 2.6508 -1.6848 2.6246 0
M  V30 25 H 1.3236 -4.061 1.9924 0
M  V30 26 H 2.4633 0.7727 2.2186 0
M  V30 27 H -0.1638 2.1626 1.3402 0
M  V30 28 H -0.7461 1.4067 -0.1226 0
M  V30 29 H 0.7446 3.2968 -0.6111 0
M  V30 30 H 2.0267 2.5773 0.3513 0
M  V30 31 H 3.6055 2.654 -1.3993 0
M  V30 32 H 2.4246 3.4499 -2.4631 0
M  V30 33 H 3.2485 1.9595 -2.9716 0
M  V30 34 H 0.1741 2.2734 -2.8298 0
M  V30 35 H -0.0222 0.6517 -2.1272 0
M  V30 36 H 1.1483 0.9031 -3.3994 0
M  V30 END ATOM
M  V30 BEGIN BOND
M  V30 1 2 1 2
M  V30 2 1 1 3
M  V30 3 1 1 4
M  V30 4 1 1 5
M  V30 5 1 3 6
M  V30 6 2 6 7
M  V30 7 1 6 8
M  V30 8 1 7 9
M  V30 9 1 7 10
M  V30 10 2 8 11
M  V30 11 1 9 12
M  V30 12 2 9 13
M  V30 13 2 10 14
M  V30 14 1 10 15
M  V30 15 1 15 16
M  V30 16 1 16 17
M  V30 17 1 17 18
M  V30 18 1 17 19
M  V30 19 1 11 13
M  V30 20 1 12 14
M  V30 21 1 4 20
M  V30 22 1 5 21
M  V30 23 1 8 22
M  V30 24 1 11 23
M  V30 25 1 12 24
M  V30 26 1 13 25
M  V30 27 1 14 26
M  V30 28 1 15 27
M  V30 29 1 15 28
M  V30 30 1 16 29
M  V30 31 1 16 30
M  V30 32 1 18 31
M  V30 33 1 18 32
M  V30 34 1 18 33
M  V30 35 1 19 34
M  V30 36 1 19 35
M  V30 37 1 19 36
M  V30 END BOND
M  V30 END CTAB
M  END
>  <Column 1>
1607

>  <level_0>
1761

>  <index>
1761

>  <Unnamed: 0>
1761

>  <NO.>
1773

>  <Name>
psilocybine

>  <IUPAC_name>
[3-[2-(dimethylamino)ethyl]-1h-indol-4-yl] dihydrogen phosphate

>  <SMILES>
CN(C)CCc1c[nH]c2cccc(OP(=O)(O)O)c12

>  <CID>
10624

>  <logBB>


>  <BBB+/BBB->
BBB+

>  <Inchi>
InChI=1S/C12H17N2O4P/c1-14(2)7-6-9-8-13-10-4-3-5-11(12(9)10)18-19(15-16)17/h3-5-8-13H-6-7H2-1-2H3-(H2-15-16-17)

>  <threshold>
-1

>  <reference>
R1|R13|R19|R6|R24|R27|R27|R27|R30|R30|

>  <group>
B

>  <Class>
1

>  <ABC>
14.72

>  <ABCGG>
13.08

>  <nAcid>
2

>  <nBase>
1

>  <nAromAtom>
9

>  <nAromBond>
10

>  <nAtom>
36

>  <nHeavyAtom>
19

>  <nSpiro>
0

>  <nBridgehead>
0

>  <nHetero>
7

>  <nN>
2

>  <nO>
4

>  <nF>
0

>  <BalabanJ>
1.99

>  <BertzCT>
617.22

>  <nBonds>
37

>  <nBondsO>
20

>  <nBondsS>
26

>  <nBondsD>
1

>  <nBondsT>
0

>  <nBondsA>
10

>  <nBondsM>
11

>  <nBondsKS>
32

>  <nBondsKD>
5

>  <RNCG>
0.2

>  <RPCG>
0.26

>  <FCSP3>
0.33

>  <SZ>
25

>  <Sm>
23.67

>  <Sv>
22.17

>  <Sse>
36.61

>  <Sp>
24.2

>  <Si>
40.88

>  <MZ>
0.69

>  <Mm>
0.66

>  <Mv>
0.62

>  <Mse>
1.02

>  <Mp>
0.67

>  <Mi>
1.14

>  <NsCH3>
2

>  <NdCH2>
0

>  <NssCH2>
2

>  <NtCH>
0

>  <NdsCH>
0

>  <NaaCH>
4

>  <NsssCH>
0

>  <NddC>
0

>  <NtsC>
0

>  <NdssC>
0

>  <NaasC>
2

>  <NaaaC>
2

>  <NssssC>
0

>  <NsNH3>
0

>  <NsNH2>
0

>  <NssNH2>
0

>  <NdNH>
0

>  <NssNH>
0

>  <NaaNH>
1

>  <NtN>
0

>  <NsssNH>
0

>  <NdsN>
0

>  <NaaN>
0

>  <NsssN>
1

>  <NddsN>
0

>  <NaasN>
0

>  <NssssN>
0

>  <NsOH>
2

>  <NdO>
1

>  <NssO>
1

>  <NaaO>
0

>  <NsF>
0

>  <NsSiH3>
0

>  <NssSiH2>
0

>  <NsssSiH>
0

>  <NssssSi>
0

>  <NsPH2>
0

>  <NssPH>
0

>  <NsssP>
0

>  <NdsssP>
1

>  <NsssssP>
0

>  <NsSH>
0

>  <NdS>
0

>  <NssS>
0

>  <NaaS>
0

>  <NdssS>
0

>  <NddssS>
0

>  <NsCl>
0

>  <NsBr>
0

>  <NsI>
0

>  <fragCpx>
58.07

>  <fMF>
0.25

>  <nHBAcc>
3

>  <nHBDon>
3

>  <Kier1>
15.39

>  <Kier2>
6.19

>  <Lipinski>
1

>  <GhoseFilter>
1

>  <FilterItLogS>
-2.2

>  <VMcGowan>
204.92

>  <LabuteASA>
110.79

>  <PEOE_VSA1>
14.41

>  <PEOE_VSA2>
9.79

>  <PEOE_VSA3>
4.57

>  <PEOE_VSA4>
0

>  <PEOE_VSA5>
0

>  <PEOE_VSA6>
6.07

>  <PEOE_VSA7>
38.21

>  <PEOE_VSA8>
23.64

>  <PEOE_VSA9>
0

>  <PEOE_VSA10>
5.75

>  <PEOE_VSA11>
0

>  <PEOE_VSA12>
0

>  <PEOE_VSA13>
0

>  <SMR_VSA1>
18.88

>  <SMR_VSA2>
0

>  <SMR_VSA3>
9.88

>  <SMR_VSA4>
0

>  <SMR_VSA5>
6.42

>  <SMR_VSA6>
20.64

>  <SMR_VSA7>
29.96

>  <SMR_VSA8>
0

>  <SMR_VSA9>
5.75

>  <SlogP_VSA1>
4.52

>  <SlogP_VSA2>
40.31

>  <SlogP_VSA3>
10.99

>  <SlogP_VSA4>
0

>  <SlogP_VSA5>
5.56

>  <SlogP_VSA6>
24.4

>  <SlogP_VSA7>
0

>  <SlogP_VSA8>
10.9

>  <SlogP_VSA9>
0

>  <SlogP_VSA10>
0

>  <SlogP_VSA11>
5.75

>  <EState_VSA1>
7.82

>  <EState_VSA2>
5.75

>  <EState_VSA3>
0

>  <EState_VSA4>
29.43

>  <EState_VSA5>
0

>  <EState_VSA6>
12.13

>  <EState_VSA7>
31.26

>  <EState_VSA8>
4.98

>  <EState_VSA9>
14.31

>  <EState_VSA10>
4.57

>  <VSA_EState1>
15.75

>  <VSA_EState2>
23.03

>  <VSA_EState3>
0.73

>  <VSA_EState4>
1.78

>  <VSA_EState5>
0.21

>  <VSA_EState6>
5.11

>  <VSA_EState7>
2.62

>  <VSA_EState8>
0.84

>  <VSA_EState9>
-0.6

>  <apol>
40.41

>  <bpol>
29.78

>  <nRing>
2

>  <nHRing>
1

>  <naRing>
2

>  <naHRing>
1

>  <nARing 2>
0

>  <nAHRing 2>
0

>  <nFRing>
1

>  <nFHRing>
1

>  <nFaRing>
1

>  <nFaHRing>
1

>  <nFARing 2>
0

>  <nFAHRing 2>
0

>  <nRot>
5

>  <SLogP>
1.74

>  <SMR>
73.23

>  <TopoPSA(NO)>
85.79

>  <TopoPSA>
95.6

>  <JGI1>
0.28

>  <JGI2>
0.07

>  <JGI3>
0.06

>  <JGI4>
0.04

>  <JGI5>
0.03

>  <Diameter>
9

>  <Radius>
5

>  <TMWC10>
111.66

>  <TSRW10>
66.25

>  <MW>
284.09

>  <AMW>
7.89

>  <WPath>
702

>  <WPol>
25

>  <Zagreb1>
98

>  <Zagreb2>
111

>  <mZagreb2>
4.04

>  <yes>


>  <nAR-cont>
0.336376

>  <nHA-cont>
0.998649058

>  <MWHBN>
0.355978097

>  <MWHBN-cont>
0.647735639

>  <TPSA-cont>
0.332652636

>  <pka_cont>
0.97

>  <yes.1>


>  <BBB_SCORE>
3.456933788

>  <MMFF94 Energy>
-111.46

$$$$
Compound 1350
Actelion Java MolfileCreator 2.0

  0  0  0  0  0  0              0 V3000
M  V30 BEGIN CTAB
M  V30 COUNTS 25 25 0 0 0
M  V30 BEGIN ATOM
M  V30 1 N -1.4746 0.0775 -1.7076 0
M  V30 2 C -1.2793 0.6119 -0.477 0
M  V30 3 C -1.986 0.8864 -2.6615 0
M  V30 4 C -1.5737 1.9417 -0.184 0
M  V30 5 C -0.6943 -0.2938 0.5775 0
M  V30 6 C -2.3102 2.2158 -2.4525 0
M  V30 7 C -2.0977 2.7509 -1.1882 0
M  V30 8 C 0.8308 -0.3886 0.4299 0
M  V30 9 N 1.4833 -1.1262 1.5336 0
M  V30 10 C 2.9386 -0.9774 1.4357 0
M  V30 11 C 1.1346 -2.5493 1.514 0
M  V30 12 H -2.1326 0.4207 -3.6317 0
M  V30 13 H -1.3992 2.3454 0.8082 0
M  V30 14 H -1.1589 -1.281 0.4719 0
M  V30 15 H -0.9614 0.0751 1.5757 0
M  V30 16 H -2.7178 2.8191 -3.2555 0
M  V30 17 H -2.3376 3.7906 -0.9844 0
M  V30 18 H 1.09 -0.8341 -0.5402 0
M  V30 19 H 1.2287 0.6354 0.4165 0
M  V30 20 H 3.2237 0.0785 1.5026 0
M  V30 21 H 3.3342 -1.384 0.4978 0
M  V30 22 H 3.4349 -1.4861 2.2698 0
M  V30 23 H 1.3911 -3.0254 0.5607 0
M  V30 24 H 0.0668 -2.6982 1.7024 0
M  V30 25 H 1.6583 -3.0837 2.3151 0
M  V30 END ATOM
M  V30 BEGIN BOND
M  V30 1 2 1 2
M  V30 2 1 1 3
M  V30 3 1 2 4
M  V30 4 1 2 5
M  V30 5 2 3 6
M  V30 6 2 4 7
M  V30 7 1 5 8
M  V30 8 1 8 9
M  V30 9 1 9 10
M  V30 10 1 9 11
M  V30 11 1 6 7
M  V30 12 1 3 12
M  V30 13 1 4 13
M  V30 14 1 5 14
M  V30 15 1 5 15
M  V30 16 1 6 16
M  V30 17 1 7 17
M  V30 18 1 8 18
M  V30 19 1 8 19
M  V30 20 1 10 20
M  V30 21 1 10 21
M  V30 22 1 10 22
M  V30 23 1 11 23
M  V30 24 1 11 24
M  V30 25 1 11 25
M  V30 END BOND
M  V30 END CTAB
M  END
>  <Column 1>
1608

>  <level_0>
1762

>  <index>
1762

>  <Unnamed: 0>
1762

>  <NO.>
1774

>  <Name>
6304-27-4

>  <IUPAC_name>
n-n-dimethyl-2-pyridin-2-ylethanamine

>  <SMILES>
CN(C)CCc1ccccn1

>  <CID>
80554

>  <logBB>


>  <BBB+/BBB->
BBB+

>  <Inchi>
InChI=1S/C9H14N2/c1-11(2)8-6-9-5-3-4-7-10-9/h3-5-7H-6-8H2-1-2H3

>  <threshold>
-1

>  <reference>
R1|R1|R1|R13|R19|R19|R28|R28|R9|R9|R24|R27|R27|R27|R30|R30|R30|

>  <group>
B

>  <Class>
1

>  <ABC>
8

>  <ABCGG>
7.3

>  <nAcid>
0

>  <nBase>
1

>  <nAromAtom>
6

>  <nAromBond>
6

>  <nAtom>
25

>  <nHeavyAtom>
11

>  <nSpiro>
0

>  <nBridgehead>
0

>  <nHetero>
2

>  <nN>
2

>  <nO>
0

>  <nF>
0

>  <BalabanJ>
2.05

>  <BertzCT>
193.98

>  <nBonds>
25

>  <nBondsO>
11

>  <nBondsS>
19

>  <nBondsD>
0

>  <nBondsT>
0

>  <nBondsA>
6

>  <nBondsM>
6

>  <nBondsKS>
22

>  <nBondsKD>
3

>  <RNCG>
0.42

>  <RPCG>
0.11

>  <FCSP3>
0.44

>  <SZ>
13.67

>  <Sm>
12.51

>  <Sv>
14.31

>  <Sse>
24.54

>  <Sp>
15.91

>  <Si>
28.49

>  <MZ>
0.55

>  <Mm>
0.5

>  <Mv>
0.57

>  <Mse>
0.98

>  <Mp>
0.64

>  <Mi>
1.14

>  <NsCH3>
2

>  <NdCH2>
0

>  <NssCH2>
2

>  <NtCH>
0

>  <NdsCH>
0

>  <NaaCH>
4

>  <NsssCH>
0

>  <NddC>
0

>  <NtsC>
0

>  <NdssC>
0

>  <NaasC>
1

>  <NaaaC>
0

>  <NssssC>
0

>  <NsNH3>
0

>  <NsNH2>
0

>  <NssNH2>
0

>  <NdNH>
0

>  <NssNH>
0

>  <NaaNH>
0

>  <NtN>
0

>  <NsssNH>
0

>  <NdsN>
0

>  <NaaN>
1

>  <NsssN>
1

>  <NddsN>
0

>  <NaasN>
0

>  <NssssN>
0

>  <NsOH>
0

>  <NdO>
0

>  <NssO>
0

>  <NaaO>
0

>  <NsF>
0

>  <NsSiH3>
0

>  <NssSiH2>
0

>  <NsssSiH>
0

>  <NssssSi>
0

>  <NsPH2>
0

>  <NssPH>
0

>  <NsssP>
0

>  <NdsssP>
0

>  <NsssssP>
0

>  <NsSH>
0

>  <NdS>
0

>  <NssS>
0

>  <NaaS>
0

>  <NdssS>
0

>  <NddssS>
0

>  <NsCl>
0

>  <NsBr>
0

>  <NsI>
0

>  <fragCpx>
11.02

>  <fMF>
0.24

>  <nHBAcc>
2

>  <nHBDon>
0

>  <Kier1>
9.09

>  <Kier2>
4.79

>  <Lipinski>
1

>  <GhoseFilter>
0

>  <FilterItLogS>
-2.32

>  <VMcGowan>
133.87

>  <LabuteASA>
67.87

>  <PEOE_VSA1>
4.9

>  <PEOE_VSA2>
4.98

>  <PEOE_VSA3>
0

>  <PEOE_VSA4>
0

>  <PEOE_VSA5>
0

>  <PEOE_VSA6>
6.07

>  <PEOE_VSA7>
26.23

>  <PEOE_VSA8>
24.86

>  <PEOE_VSA9>
0

>  <PEOE_VSA10>
0

>  <PEOE_VSA11>
0

>  <PEOE_VSA12>
0

>  <PEOE_VSA13>
0

>  <SMR_VSA1>
0

>  <SMR_VSA2>
0

>  <SMR_VSA3>
9.88

>  <SMR_VSA4>
0

>  <SMR_VSA5>
6.42

>  <SMR_VSA6>
20.64

>  <SMR_VSA7>
30.09

>  <SMR_VSA8>
0

>  <SMR_VSA9>
0

>  <SlogP_VSA1>
0

>  <SlogP_VSA2>
30.52

>  <SlogP_VSA3>
6.42

>  <SlogP_VSA4>
0

>  <SlogP_VSA5>
5.69

>  <SlogP_VSA6>
24.4

>  <SlogP_VSA7>
0

>  <SlogP_VSA8>
0

>  <SlogP_VSA9>
0

>  <SlogP_VSA10>
0

>  <SlogP_VSA11>
0

>  <EState_VSA1>
0

>  <EState_VSA2>
0

>  <EState_VSA3>
0

>  <EState_VSA4>
12.97

>  <EState_VSA5>
5.69

>  <EState_VSA6>
0

>  <EState_VSA7>
18.33

>  <EState_VSA8>
30.05

>  <EState_VSA9>
0

>  <EState_VSA10>
0

>  <VSA_EState1>
0

>  <VSA_EState2>
6.39

>  <VSA_EState3>
0

>  <VSA_EState4>
1.17

>  <VSA_EState5>
0

>  <VSA_EState6>
6.03

>  <VSA_EState7>
2.87

>  <VSA_EState8>
1.07

>  <VSA_EState9>
4.14

>  <apol>
26.57

>  <bpol>
16.89

>  <nRing>
1

>  <nHRing>
1

>  <naRing>
1

>  <naHRing>
1

>  <nARing 2>
0

>  <nAHRing 2>
0

>  <nFRing>
0

>  <nFHRing>
0

>  <nFaRing>
0

>  <nFaHRing>
0

>  <nFARing 2>
0

>  <nFAHRing 2>
0

>  <nRot>
3

>  <SLogP>
1.19

>  <SMR>
46.5

>  <TopoPSA(NO)>
16.13

>  <TopoPSA>
16.13

>  <JGI1>
0.18

>  <JGI2>
0.05

>  <JGI3>
0.02

>  <JGI4>
0.04

>  <JGI5>
0.03

>  <Diameter>
7

>  <Radius>
4

>  <TMWC10>
84.28

>  <TSRW10>
39.85

>  <MW>
150.12

>  <AMW>
6

>  <WPath>
174

>  <WPol>
10

>  <Zagreb1>
48

>  <Zagreb2>
50

>  <mZagreb2>
2.58

>  <yes>


>  <nAR-cont>
0.336376

>  <nHA-cont>
0.720786536

>  <MWHBN>
0.163234036

>  <MWHBN-cont>
0.96224448

>  <TPSA-cont>
0.887402584

>  <pka_cont>
0.97

>  <yes.1>


>  <BBB_SCORE>
4.760334423

>  <MMFF94 Energy>
32.098

$$$$
Compound 1351
Actelion Java MolfileCreator 2.0

  0  0  0  0  0  0              0 V3000
M  V30 BEGIN CTAB
M  V30 COUNTS 43 46 0 0 0
M  V30 BEGIN ATOM
M  V30 1 Cl -2.1024 0.889 4.4514 0
M  V30 2 C -1.4608 0.0409 3.0996 0
M  V30 3 C -1.8609 0.391 1.8112 0
M  V30 4 C -0.5553 -0.9974 3.3037 0
M  V30 5 C -1.3362 -0.2907 0.7021 0
M  V30 6 C -0.0409 -1.6965 2.2107 0
M  V30 7 C -1.7981 0.1245 -0.6608 0
M  V30 8 C -0.4203 -1.3351 0.9099 0
M  V30 9 N -2.186 -0.6906 -1.5856 0
M  V30 10 C -1.8155 1.5865 -0.9839 0
M  V30 11 N 0.0641 -2.0861 -0.1799 0
M  V30 12 C -2.12 -2.1387 -1.3816 0
M  V30 13 C -2.8319 2.092 -1.8025 0
M  V30 14 C -0.8132 2.4431 -0.5094 0
M  V30 15 C -0.7081 -2.5558 -1.2148 0
M  V30 16 C 1.3451 -2.5126 -0.4664 0
M  V30 17 C -2.864 3.451 -2.1186 0
M  V30 18 C -0.8501 3.802 -0.8285 0
M  V30 19 N 0.0118 -3.3493 -1.9784 0
M  V30 20 N 1.301 -3.3233 -1.508 0
M  V30 21 C 2.5889 -2.0728 0.2344 0
M  V30 22 C -1.8766 4.305 -1.628 0
M  V30 23 N 2.702 -0.6038 0.3617 0
M  V30 24 C 2.9097 0.0223 -0.9507 0
M  V30 25 C 3.8202 -0.268 1.2465 0
M  V30 26 H -2.5882 1.189 1.6773 0
M  V30 27 H -0.2577 -1.2771 4.3117 0
M  V30 28 H 0.6302 -2.531 2.3971 0
M  V30 29 H -2.7401 -2.4497 -0.5326 0
M  V30 30 H -2.539 -2.6278 -2.2678 0
M  V30 31 H -3.5987 1.4294 -2.1974 0
M  V30 32 H 0.0107 2.0668 0.0911 0
M  V30 33 H -3.6556 3.841 -2.7536 0
M  V30 34 H -0.0727 4.4678 -0.4618 0
M  V30 35 H 2.5954 -2.5375 1.2276 0
M  V30 36 H 3.4625 -2.4776 -0.2938 0
M  V30 37 H -1.9009 5.3626 -1.8795 0
M  V30 38 H 2.0546 -0.1483 -1.6132 0
M  V30 39 H 3.8138 -0.3472 -1.4477 0
M  V30 40 H 2.9977 1.1096 -0.8428 0
M  V30 41 H 4.7779 -0.6404 0.8655 0
M  V30 42 H 3.6585 -0.6876 2.2458 0
M  V30 43 H 3.8971 0.8176 1.3739 0
M  V30 END ATOM
M  V30 BEGIN BOND
M  V30 1 1 1 2
M  V30 2 2 2 3
M  V30 3 1 2 4
M  V30 4 1 3 5
M  V30 5 2 4 6
M  V30 6 1 5 7
M  V30 7 2 5 8
M  V30 8 2 7 9
M  V30 9 1 7 10
M  V30 10 1 8 11
M  V30 11 1 9 12
M  V30 12 2 10 13
M  V30 13 1 10 14
M  V30 14 1 11 15
M  V30 15 1 11 16
M  V30 16 1 13 17
M  V30 17 2 14 18
M  V30 18 2 15 19
M  V30 19 2 16 20
M  V30 20 1 16 21
M  V30 21 2 17 22
M  V30 22 1 21 23
M  V30 23 1 23 24
M  V30 24 1 23 25
M  V30 25 1 6 8
M  V30 26 1 12 15
M  V30 27 1 18 22
M  V30 28 1 19 20
M  V30 29 1 3 26
M  V30 30 1 4 27
M  V30 31 1 6 28
M  V30 32 1 12 29
M  V30 33 1 12 30
M  V30 34 1 13 31
M  V30 35 1 14 32
M  V30 36 1 17 33
M  V30 37 1 18 34
M  V30 38 1 21 35
M  V30 39 1 21 36
M  V30 40 1 22 37
M  V30 41 1 24 38
M  V30 42 1 24 39
M  V30 43 1 24 40
M  V30 44 1 25 41
M  V30 45 1 25 42
M  V30 46 1 25 43
M  V30 END BOND
M  V30 END CTAB
M  END
>  <Column 1>
1611

>  <level_0>
1765

>  <index>
1765

>  <Unnamed: 0>
1765

>  <NO.>
1777

>  <Name>
adinazolam

>  <IUPAC_name>
1-(8-chloro-6-phenyl-4h-[1-2-4]triazolo[4-3-a][1-4]benzodiazepin-1-yl)-n-n-dimethylmethanamine

>  <SMILES>
CN(C)Cc1nnc2n1-c1ccc(Cl)cc1C(c1ccccc1)=NC2

>  <CID>
37632

>  <logBB>


>  <BBB+/BBB->
BBB+

>  <Inchi>
InChI=1S/C19H18ClN5/c1-24(2)12-18-23-22-17-11-21-19(13-6-4-3-5-7-13)15-10-14(20)8-9-16(15)25(17)18/h3-10H-11-12H2-1-2H3

>  <threshold>
-1

>  <reference>
R1|R13|R19|R6|R14|R23|R24|R27|R27|R27|R30|R30|

>  <group>
B

>  <Class>
1

>  <ABC>
19.88

>  <ABCGG>
15.92

>  <nAcid>
0

>  <nBase>
1

>  <nAromAtom>
17

>  <nAromBond>
17

>  <nAtom>
43

>  <nHeavyAtom>
25

>  <nSpiro>
0

>  <nBridgehead>
0

>  <nHetero>
6

>  <nN>
5

>  <nO>
0

>  <nF>
0

>  <BalabanJ>
1.57

>  <BertzCT>
943.7

>  <nBonds>
46

>  <nBondsO>
28

>  <nBondsS>
28

>  <nBondsD>
1

>  <nBondsT>
0

>  <nBondsA>
17

>  <nBondsM>
18

>  <nBondsKS>
37

>  <nBondsKD>
9

>  <RNCG>
0.18

>  <RPCG>
0.1

>  <FCSP3>
0.21

>  <SZ>
30.67

>  <Sm>
29.29

>  <Sv>
28.76

>  <Sse>
43.07

>  <Sp>
30.79

>  <Si>
48.34

>  <MZ>
0.71

>  <Mm>
0.68

>  <Mv>
0.67

>  <Mse>
1

>  <Mp>
0.72

>  <Mi>
1.12

>  <NsCH3>
2

>  <NdCH2>
0

>  <NssCH2>
2

>  <NtCH>
0

>  <NdsCH>
0

>  <NaaCH>
8

>  <NsssCH>
0

>  <NddC>
0

>  <NtsC>
0

>  <NdssC>
1

>  <NaasC>
6

>  <NaaaC>
0

>  <NssssC>
0

>  <NsNH3>
0

>  <NsNH2>
0

>  <NssNH2>
0

>  <NdNH>
0

>  <NssNH>
0

>  <NaaNH>
0

>  <NtN>
0

>  <NsssNH>
0

>  <NdsN>
1

>  <NaaN>
2

>  <NsssN>
1

>  <NddsN>
0

>  <NaasN>
1

>  <NssssN>
0

>  <NsOH>
0

>  <NdO>
0

>  <NssO>
0

>  <NaaO>
0

>  <NsF>
0

>  <NsSiH3>
0

>  <NssSiH2>
0

>  <NsssSiH>
0

>  <NssssSi>
0

>  <NsPH2>
0

>  <NssPH>
0

>  <NsssP>
0

>  <NdsssP>
0

>  <NsssssP>
0

>  <NsSH>
0

>  <NdS>
0

>  <NssS>
0

>  <NaaS>
0

>  <NdssS>
0

>  <NddssS>
0

>  <NsCl>
1

>  <NsBr>
0

>  <NsI>
0

>  <fragCpx>
184.06

>  <fMF>
0.47

>  <nHBAcc>
5

>  <nHBDon>
0

>  <Kier1>
18.37

>  <Kier2>
7.94

>  <Lipinski>
1

>  <GhoseFilter>
1

>  <FilterItLogS>
-5.54

>  <VMcGowan>
258.57

>  <LabuteASA>
151.15

>  <PEOE_VSA1>
4.9

>  <PEOE_VSA2>
9.56

>  <PEOE_VSA3>
0

>  <PEOE_VSA4>
0

>  <PEOE_VSA5>
10.2

>  <PEOE_VSA6>
41.93

>  <PEOE_VSA7>
32.29

>  <PEOE_VSA8>
16.15

>  <PEOE_VSA9>
17.94

>  <PEOE_VSA10>
6.54

>  <PEOE_VSA11>
11.65

>  <PEOE_VSA12>
0

>  <PEOE_VSA13>
0

>  <SMR_VSA1>
0

>  <SMR_VSA2>
0

>  <SMR_VSA3>
19.66

>  <SMR_VSA4>
4.99

>  <SMR_VSA5>
13.09

>  <SMR_VSA6>
14.1

>  <SMR_VSA7>
76.33

>  <SMR_VSA8>
0

>  <SMR_VSA9>
5.69

>  <SlogP_VSA1>
0

>  <SlogP_VSA2>
39.47

>  <SlogP_VSA3>
13.09

>  <SlogP_VSA4>
0

>  <SlogP_VSA5>
22.78

>  <SlogP_VSA6>
53.52

>  <SlogP_VSA7>
5.02

>  <SlogP_VSA8>
5.69

>  <SlogP_VSA9>
0

>  <SlogP_VSA10>
0

>  <SlogP_VSA11>
0

>  <EState_VSA1>
0

>  <EState_VSA2>
0

>  <EState_VSA3>
18.11

>  <EState_VSA4>
34.17

>  <EState_VSA5>
0

>  <EState_VSA6>
0

>  <EState_VSA7>
50.49

>  <EState_VSA8>
31.8

>  <EState_VSA9>
16.59

>  <EState_VSA10>
0

>  <VSA_EState1>
2.1

>  <VSA_EState2>
6.91

>  <VSA_EState3>
9.42

>  <VSA_EState4>
4.01

>  <VSA_EState5>
1.74

>  <VSA_EState6>
16.06

>  <VSA_EState7>
0

>  <VSA_EState8>
1.19

>  <VSA_EState9>
4.04

>  <apol>
51.41

>  <bpol>
24.27

>  <nRing>
4

>  <nHRing>
2

>  <naRing>
3

>  <naHRing>
1

>  <nARing 2>
1

>  <nAHRing 2>
1

>  <nFRing>
1

>  <nFHRing>
1

>  <nFaRing>
0

>  <nFaHRing>
0

>  <nFARing 2>
1

>  <nFAHRing 2>
1

>  <nRot>
3

>  <SLogP>
3.33

>  <SMR>
99.55

>  <TopoPSA(NO)>
46.31

>  <TopoPSA>
46.31

>  <JGI1>
0.16

>  <JGI2>
0.07

>  <JGI3>
0.04

>  <JGI4>
0.03

>  <JGI5>
0.02

>  <Diameter>
11

>  <Radius>
6

>  <TMWC10>
129.7

>  <TSRW10>
74.34

>  <MW>
351.13

>  <AMW>
8.17

>  <WPath>
1352

>  <WPol>
44

>  <Zagreb1>
136

>  <Zagreb2>
163

>  <mZagreb2>
5.42

>  <yes>


>  <nAR-cont>
0.816016

>  <nHA-cont>
0.921834225

>  <MWHBN>
0.266830848

>  <MWHBN-cont>
0.927168944

>  <TPSA-cont>
0.676727443

>  <pka_cont>
0.97

>  <yes.1>


>  <BBB_SCORE>
4.967058527

>  <MMFF94 Energy>
96.123

$$$$
Compound 1352
Actelion Java MolfileCreator 2.0

  0  0  0  0  0  0              0 V3000
M  V30 BEGIN CTAB
M  V30 COUNTS 65 68 0 0 0
M  V30 BEGIN ATOM
M  V30 1 S 1.5398 -1.5398 4.2184 0
M  V30 2 O 2.2425 -2.4468 5.0995 0
M  V30 3 O 0.2929 -1.92 3.5865 0
M  V30 4 N 1.2554 -0.0762 5.0612 0
M  V30 5 C 2.6849 -1.0474 2.9551 0
M  V30 6 C 0.5667 0.9741 4.2775 0
M  V30 7 C 0.6035 -0.287 6.3742 0
M  V30 8 C 2.3229 -1.1421 1.6043 0
M  V30 9 C 3.9333 -0.5705 3.3271 0
M  V30 10 C 3.1944 -0.7434 0.5668 0
M  V30 11 C 4.8104 -0.1642 2.3298 0
M  V30 12 N 2.8247 -0.8291 -0.8072 0
M  V30 13 C 4.4495 -0.2357 0.9672 0
M  V30 14 C 3.5418 -0.2488 -1.8948 0
M  V30 15 C 1.6476 -1.6655 -1.1439 0
M  V30 16 S 5.6872 0.3378 -0.1699 0
M  V30 17 C 4.827 0.3043 -1.7235 0
M  V30 18 C 3.0056 -0.1787 -3.2018 0
M  V30 19 C 0.3495 -0.8433 -1.1493 0
M  V30 20 C 5.5285 0.8652 -2.8101 0
M  V30 21 C 3.7041 0.3841 -4.2772 0
M  V30 22 C -0.8448 -1.7388 -1.5016 0
M  V30 23 C 4.9712 0.9045 -4.0822 0
M  V30 24 N -2.1692 -1.1063 -1.4911 0
M  V30 25 C -2.596 -0.6894 -0.1532 0
M  V30 26 C -2.3006 -0.016 -2.4605 0
M  V30 27 C -4.0593 -0.244 -0.1704 0
M  V30 28 C -3.7505 0.468 -2.5545 0
M  V30 29 C -4.302 0.8872 -1.1844 0
M  V30 30 C -5.8022 1.2468 -1.2118 0
M  V30 31 C -6.1405 2.4867 -2.0348 0
M  V30 32 O -6.116 2.1878 -3.4216 0
M  V30 33 H 1.1028 1.1897 3.3501 0
M  V30 34 H -0.4626 0.684 4.0467 0
M  V30 35 H 0.5427 1.9055 4.853 0
M  V30 36 H 1.2158 -0.9357 7.007 0
M  V30 37 H -0.3922 -0.7235 6.2524 0
M  V30 38 H 0.503 0.6688 6.8987 0
M  V30 39 H 1.3304 -1.5235 1.3894 0
M  V30 40 H 4.2205 -0.5085 4.3738 0
M  V30 41 H 5.7888 0.2167 2.6185 0
M  V30 42 H 1.56 -2.5144 -0.4533 0
M  V30 43 H 1.7845 -2.1707 -2.1087 0
M  V30 44 H 2.0121 -0.5493 -3.4313 0
M  V30 45 H 0.4311 -0.0225 -1.8689 0
M  V30 46 H 0.1982 -0.375 -0.172 0
M  V30 47 H 6.524 1.2802 -2.6641 0
M  V30 48 H 3.2483 0.4135 -5.2636 0
M  V30 49 H -0.6809 -2.1726 -2.4967 0
M  V30 50 H -0.8668 -2.5973 -0.8176 0
M  V30 51 H 5.5225 1.3417 -4.9097 0
M  V30 52 H -2.5034 -1.5263 0.5493 0
M  V30 53 H -1.9737 0.1288 0.229 0
M  V30 54 H -1.9912 -0.3596 -3.4548 0
M  V30 55 H -1.6585 0.8324 -2.1934 0
M  V30 56 H -4.6979 -1.1042 -0.4115 0
M  V30 57 H -4.3443 0.0895 0.8347 0
M  V30 58 H -3.7816 1.3114 -3.252 0
M  V30 59 H -4.3743 -0.328 -2.981 0
M  V30 60 H -3.7431 1.7699 -0.8445 0
M  V30 61 H -6.129 1.4316 -0.1807 0
M  V30 62 H -6.3752 0.3898 -1.5871 0
M  V30 63 H -7.1518 2.8253 -1.7865 0
M  V30 64 H -5.4404 3.3029 -1.8309 0
M  V30 65 H -6.3815 2.9953 -3.8935 0
M  V30 END ATOM
M  V30 BEGIN BOND
M  V30 1 2 1 2
M  V30 2 2 1 3
M  V30 3 1 1 4
M  V30 4 1 1 5
M  V30 5 1 4 6
M  V30 6 1 4 7
M  V30 7 2 5 8
M  V30 8 1 5 9
M  V30 9 1 8 10
M  V30 10 2 9 11
M  V30 11 1 10 12
M  V30 12 2 10 13
M  V30 13 1 12 14
M  V30 14 1 12 15
M  V30 15 1 13 16
M  V30 16 2 14 17
M  V30 17 1 14 18
M  V30 18 1 15 19
M  V30 19 1 17 20
M  V30 20 2 18 21
M  V30 21 1 19 22
M  V30 22 2 20 23
M  V30 23 1 22 24
M  V30 24 1 24 25
M  V30 25 1 24 26
M  V30 26 1 25 27
M  V30 27 1 26 28
M  V30 28 1 27 29
M  V30 29 1 29 30
M  V30 30 1 30 31
M  V30 31 1 31 32
M  V30 32 1 11 13
M  V30 33 1 16 17
M  V30 34 1 21 23
M  V30 35 1 28 29
M  V30 36 1 6 33
M  V30 37 1 6 34
M  V30 38 1 6 35
M  V30 39 1 7 36
M  V30 40 1 7 37
M  V30 41 1 7 38
M  V30 42 1 8 39
M  V30 43 1 9 40
M  V30 44 1 11 41
M  V30 45 1 15 42
M  V30 46 1 15 43
M  V30 47 1 18 44
M  V30 48 1 19 45
M  V30 49 1 19 46
M  V30 50 1 20 47
M  V30 51 1 21 48
M  V30 52 1 22 49
M  V30 53 1 22 50
M  V30 54 1 23 51
M  V30 55 1 25 52
M  V30 56 1 25 53
M  V30 57 1 26 54
M  V30 58 1 26 55
M  V30 59 1 27 56
M  V30 60 1 27 57
M  V30 61 1 28 58
M  V30 62 1 28 59
M  V30 63 1 29 60
M  V30 64 1 30 61
M  V30 65 1 30 62
M  V30 66 1 31 63
M  V30 67 1 31 64
M  V30 68 1 32 65
M  V30 END BOND
M  V30 END CTAB
M  END
>  <Column 1>
1612

>  <level_0>
1766

>  <index>
1766

>  <Unnamed: 0>
1766

>  <NO.>
1778

>  <Name>
pipotiazine

>  <IUPAC_name>
10-[3-[4-(2-hydroxyethyl)piperidin-1-yl]propyl]-n-n-dimethylphenothiazine-2-sulfonamide

>  <SMILES>
CN(C)S(=O)(=O)c1ccc2c(c1)N(CCCN1CCC(CCO)CC1)c1ccccc1S2

>  <CID>
62867

>  <logBB>


>  <BBB+/BBB->
BBB+

>  <Inchi>
InChI=1S/C24H33N3O3S2/c1-25(2)32(29-30)20-8-9-24-22(18-20)27(21-6-3-4-7-23(21)31-24)14-5-13-26-15-10-19(11-16-26)12-17-28/h3-4-6-9-18-19-28H-5-10-17H2-1-2H3

>  <threshold>
-1

>  <reference>
R1|R13|R19|R6|R14|R23|R24|R27|R27|R27|R30|R30|

>  <group>
B

>  <Class>
1

>  <ABC>
25

>  <ABCGG>
18.39

>  <nAcid>
0

>  <nBase>
1

>  <nAromAtom>
12

>  <nAromBond>
12

>  <nAtom>
65

>  <nHeavyAtom>
32

>  <nSpiro>
0

>  <nBridgehead>
0

>  <nHetero>
8

>  <nN>
3

>  <nO>
3

>  <nF>
0

>  <BalabanJ>
1.37

>  <BertzCT>
1034.54

>  <nBonds>
68

>  <nBondsO>
35

>  <nBondsS>
54

>  <nBondsD>
2

>  <nBondsT>
0

>  <nBondsA>
12

>  <nBondsM>
14

>  <nBondsKS>
60

>  <nBondsKD>
8

>  <RNCG>
0.18

>  <RPCG>
0.11

>  <FCSP3>
0.5

>  <SZ>
42.33

>  <Sm>
39.6

>  <Sv>
39.73

>  <Sse>
64.78

>  <Sp>
44.07

>  <Si>
73.19

>  <MZ>
0.65

>  <Mm>
0.61

>  <Mv>
0.61

>  <Mse>
1

>  <Mp>
0.68

>  <Mi>
1.13

>  <NsCH3>
2

>  <NdCH2>
0

>  <NssCH2>
9

>  <NtCH>
0

>  <NdsCH>
0

>  <NaaCH>
7

>  <NsssCH>
1

>  <NddC>
0

>  <NtsC>
0

>  <NdssC>
0

>  <NaasC>
5

>  <NaaaC>
0

>  <NssssC>
0

>  <NsNH3>
0

>  <NsNH2>
0

>  <NssNH2>
0

>  <NdNH>
0

>  <NssNH>
0

>  <NaaNH>
0

>  <NtN>
0

>  <NsssNH>
0

>  <NdsN>
0

>  <NaaN>
0

>  <NsssN>
3

>  <NddsN>
0

>  <NaasN>
0

>  <NssssN>
0

>  <NsOH>
1

>  <NdO>
2

>  <NssO>
0

>  <NaaO>
0

>  <NsF>
0

>  <NsSiH3>
0

>  <NssSiH2>
0

>  <NsssSiH>
0

>  <NssssSi>
0

>  <NsPH2>
0

>  <NssPH>
0

>  <NsssP>
0

>  <NdsssP>
0

>  <NsssssP>
0

>  <NsSH>
0

>  <NdS>
0

>  <NssS>
1

>  <NaaS>
0

>  <NdssS>
0

>  <NddssS>
1

>  <NsCl>
0

>  <NsBr>
0

>  <NsI>
0

>  <fragCpx>
233.08

>  <fMF>
0.35

>  <nHBAcc>
6

>  <nHBDon>
1

>  <Kier1>
25.1

>  <Kier2>
11.16

>  <Lipinski>
1

>  <GhoseFilter>
0

>  <FilterItLogS>
-5.12

>  <VMcGowan>
360.03

>  <LabuteASA>
195.81

>  <PEOE_VSA1>
14.91

>  <PEOE_VSA2>
0

>  <PEOE_VSA3>
12.72

>  <PEOE_VSA4>
0

>  <PEOE_VSA5>
0

>  <PEOE_VSA6>
23.89

>  <PEOE_VSA7>
81.57

>  <PEOE_VSA8>
37.04

>  <PEOE_VSA9>
16.27

>  <PEOE_VSA10>
0

>  <PEOE_VSA11>
0

>  <PEOE_VSA12>
10.02

>  <PEOE_VSA13>
0

>  <SMR_VSA1>
13.52

>  <SMR_VSA2>
0

>  <SMR_VSA3>
9.21

>  <SMR_VSA4>
5.92

>  <SMR_VSA5>
40.37

>  <SMR_VSA6>
51.78

>  <SMR_VSA7>
42.46

>  <SMR_VSA8>
0

>  <SMR_VSA9>
0

>  <SlogP_VSA1>
4.9

>  <SlogP_VSA2>
69.61

>  <SlogP_VSA3>
10.02

>  <SlogP_VSA4>
5.92

>  <SlogP_VSA5>
25.68

>  <SlogP_VSA6>
57.15

>  <SlogP_VSA7>
0

>  <SlogP_VSA8>
0

>  <SlogP_VSA9>
0

>  <SlogP_VSA10>
11.37

>  <SlogP_VSA11>
0

>  <EState_VSA1>
10.02

>  <EState_VSA2>
0

>  <EState_VSA3>
17.42

>  <EState_VSA4>
55.29

>  <EState_VSA5>
22.04

>  <EState_VSA6>
31.92

>  <EState_VSA7>
18.2

>  <EState_VSA8>
28

>  <EState_VSA9>
5.11

>  <EState_VSA10>
8.42

>  <VSA_EState1>
26.75

>  <VSA_EState2>
7.43

>  <VSA_EState3>
9.17

>  <VSA_EState4>
2.12

>  <VSA_EState5>
0.66

>  <VSA_EState6>
13.83

>  <VSA_EState7>
4.26

>  <VSA_EState8>
4.36

>  <VSA_EState9>
-0.35

>  <apol>
73.59

>  <bpol>
47.35

>  <nRing>
4

>  <nHRing>
2

>  <naRing>
2

>  <naHRing>
0

>  <nARing 2>
2

>  <nAHRing 2>
2

>  <nFRing>
1

>  <nFHRing>
1

>  <nFaRing>
0

>  <nFaHRing>
0

>  <nFARing 2>
1

>  <nFAHRing 2>
1

>  <nRot>
8

>  <SLogP>
4.02

>  <SMR>
130.37

>  <TopoPSA(NO)>
64.09

>  <TopoPSA>
97.77

>  <JGI1>
0.2

>  <JGI2>
0.09

>  <JGI3>
0.04

>  <JGI4>
0.04

>  <JGI5>
0.03

>  <Diameter>
16

>  <Radius>
8

>  <TMWC10>
145.19

>  <TSRW10>
68.32

>  <MW>
475.2

>  <AMW>
7.31

>  <WPath>
3096

>  <WPol>
55

>  <Zagreb1>
170

>  <Zagreb2>
202

>  <mZagreb2>
7.03

>  <yes>


>  <nAR-cont>
1

>  <nHA-cont>
0.658856097

>  <MWHBN>
0.321114431

>  <MWHBN-cont>
0.773414859

>  <TPSA-cont>
0.317504688

>  <pka_cont>
0.97

>  <yes.1>


>  <BBB_SCORE>
3.938987762

>  <MMFF94 Energy>
30.888

$$$$
Compound 1353
Actelion Java MolfileCreator 2.0

  0  0  0  0  0  0              0 V3000
M  V30 BEGIN CTAB
M  V30 COUNTS 46 48 0 0 0
M  V30 BEGIN ATOM
M  V30 1 O 0.6331 -0.9497 -1.2665 0
M  V30 2 C -0.1676 -2.0263 -0.9578 0
M  V30 3 C 0.0653 0.0069 -2.1573 0
M  V30 4 C -0.0147 -2.5953 0.331 0
M  V30 5 C -1.065 -2.5876 -1.8733 0
M  V30 6 C 0.8686 1.312 -2.1605 0
M  V30 7 C -0.8 -3.7204 0.6832 0
M  V30 8 C 0.8806 -2.0845 1.2948 0
M  V30 9 C -1.8333 -3.6936 -1.5165 0
M  V30 10 C 0.9859 2.0991 -0.8227 0 CFG=2
M  V30 11 C -1.7036 -4.2536 -0.2474 0
M  V30 12 C -0.6681 -4.2922 1.9602 0
M  V30 13 C 1.0005 -2.6619 2.5602 0
M  V30 14 N 1.7981 1.4759 0.2579 0
M  V30 15 C -0.4192 2.5026 -0.3623 0
M  V30 16 C 0.2264 -3.7665 2.8925 0
M  V30 17 C 3.1052 1.0113 -0.2163 0
M  V30 18 C 2.0144 2.4121 1.3718 0
M  V30 19 C -1.1933 1.6651 0.4589 0
M  V30 20 C -0.974 3.7208 -0.7877 0
M  V30 21 C -2.4808 2.0367 0.8479 0
M  V30 22 C -2.2625 4.0917 -0.3966 0
M  V30 23 C -3.0148 3.25 0.4203 0
M  V30 24 H -0.9831 0.2077 -1.9086 0
M  V30 25 H 0.1009 -0.3962 -3.1768 0
M  V30 26 H -1.1716 -2.1914 -2.8773 0
M  V30 27 H 0.4065 1.9735 -2.9069 0
M  V30 28 H 1.873 1.1045 -2.548 0
M  V30 29 H 1.4917 -1.2158 1.0591 0
M  V30 30 H -2.5296 -4.1247 -2.231 0
M  V30 31 H 1.508 3.0312 -1.0898 0
M  V30 32 H -2.3121 -5.1179 0.0096 0
M  V30 33 H -1.2661 -5.1568 2.2396 0
M  V30 34 H 1.6973 -2.2429 3.2809 0
M  V30 35 H 0.3163 -4.219 3.8762 0
M  V30 36 H 3.6807 1.8148 -0.6899 0
M  V30 37 H 3.0086 0.1832 -0.9238 0
M  V30 38 H 3.6985 0.6127 0.6153 0
M  V30 39 H 2.5558 3.3108 1.0537 0
M  V30 40 H 1.0744 2.7232 1.8376 0
M  V30 41 H 2.593 1.9296 2.1684 0
M  V30 42 H -0.7877 0.7139 0.8008 0
M  V30 43 H -0.4043 4.3904 -1.4278 0
M  V30 44 H -3.0633 1.3761 1.4847 0
M  V30 45 H -2.6798 5.0382 -0.73 0
M  V30 46 H -4.0172 3.539 0.7245 0
M  V30 END ATOM
M  V30 BEGIN BOND
M  V30 1 1 1 2
M  V30 2 1 1 3
M  V30 3 1 2 4
M  V30 4 2 2 5
M  V30 5 1 3 6
M  V30 6 1 4 7
M  V30 7 2 4 8
M  V30 8 1 5 9
M  V30 9 1 6 10
M  V30 10 1 7 11
M  V30 11 2 7 12
M  V30 12 1 8 13
M  V30 13 1 10 14
M  V30 14 1 10 15
M  V30 15 1 12 16
M  V30 16 1 14 17
M  V30 17 1 14 18
M  V30 18 2 15 19
M  V30 19 1 15 20
M  V30 20 1 19 21
M  V30 21 2 20 22
M  V30 22 2 21 23
M  V30 23 2 9 11
M  V30 24 2 13 16
M  V30 25 1 22 23
M  V30 26 1 3 24
M  V30 27 1 3 25
M  V30 28 1 5 26
M  V30 29 1 6 27
M  V30 30 1 6 28
M  V30 31 1 8 29
M  V30 32 1 9 30
M  V30 33 1 10 31
M  V30 34 1 11 32
M  V30 35 1 12 33
M  V30 36 1 13 34
M  V30 37 1 16 35
M  V30 38 1 17 36
M  V30 39 1 17 37
M  V30 40 1 17 38
M  V30 41 1 18 39
M  V30 42 1 18 40
M  V30 43 1 18 41
M  V30 44 1 19 42
M  V30 45 1 20 43
M  V30 46 1 21 44
M  V30 47 1 22 45
M  V30 48 1 23 46
M  V30 END BOND
M  V30 BEGIN COLLECTION
M  V30 MDLV30/STEABS ATOMS=(1 10)
M  V30 END COLLECTION
M  V30 END CTAB
M  END
>  <Column 1>
1613

>  <level_0>
1767

>  <index>
1767

>  <Unnamed: 0>
1767

>  <NO.>
1779

>  <Name>
dapoxetine

>  <IUPAC_name>
(1s)-n-n-dimethyl-3-naphthalen-1-yloxy-1-phenylpropan-1-amine

>  <SMILES>
CN(C)[C@@H](CCOc1cccc2ccccc12)c1ccccc1

>  <CID>
71353

>  <logBB>


>  <BBB+/BBB->
BBB+

>  <Inchi>
InChI=1S/C21H23NO/c1-22(2)20(18-10-4-3-5-11-18)15-16-23-21-14-8-12-17-9-6-7-13-19(17)21/h3-14-20H-15-16H2-1-2H3/t20-/m0/s1

>  <threshold>
-1

>  <reference>
R1|R13|R6|R24|R27|R27|R30|R30|

>  <group>
B

>  <Class>
-1

>  <ABC>
17.73

>  <ABCGG>
14.02

>  <nAcid>
0

>  <nBase>
1

>  <nAromAtom>
16

>  <nAromBond>
17

>  <nAtom>
46

>  <nHeavyAtom>
23

>  <nSpiro>
0

>  <nBridgehead>
0

>  <nHetero>
2

>  <nN>
1

>  <nO>
1

>  <nF>
0

>  <BalabanJ>
1.46

>  <BertzCT>
746.65

>  <nBonds>
48

>  <nBondsO>
25

>  <nBondsS>
31

>  <nBondsD>
0

>  <nBondsT>
0

>  <nBondsA>
17

>  <nBondsM>
17

>  <nBondsKS>
40

>  <nBondsKD>
8

>  <RNCG>
0.32

>  <RPCG>
0.08

>  <FCSP3>
0.24

>  <SZ>
27.33

>  <Sm>
25.43

>  <Sv>
28.7

>  <Sse>
45.2

>  <Sp>
31.32

>  <Si>
51.28

>  <MZ>
0.59

>  <Mm>
0.55

>  <Mv>
0.62

>  <Mse>
0.98

>  <Mp>
0.68

>  <Mi>
1.11

>  <NsCH3>
2

>  <NdCH2>
0

>  <NssCH2>
2

>  <NtCH>
0

>  <NdsCH>
0

>  <NaaCH>
12

>  <NsssCH>
1

>  <NddC>
0

>  <NtsC>
0

>  <NdssC>
0

>  <NaasC>
2

>  <NaaaC>
2

>  <NssssC>
0

>  <NsNH3>
0

>  <NsNH2>
0

>  <NssNH2>
0

>  <NdNH>
0

>  <NssNH>
0

>  <NaaNH>
0

>  <NtN>
0

>  <NsssNH>
0

>  <NdsN>
0

>  <NaaN>
0

>  <NsssN>
1

>  <NddsN>
0

>  <NaasN>
0

>  <NssssN>
0

>  <NsOH>
0

>  <NdO>
0

>  <NssO>
1

>  <NaaO>
0

>  <NsF>
0

>  <NsSiH3>
0

>  <NssSiH2>
0

>  <NsssSiH>
0

>  <NssssSi>
0

>  <NsPH2>
0

>  <NssPH>
0

>  <NsssP>
0

>  <NdsssP>
0

>  <NsssssP>
0

>  <NsSH>
0

>  <NdS>
0

>  <NssS>
0

>  <NaaS>
0

>  <NdssS>
0

>  <NddssS>
0

>  <NsCl>
0

>  <NsBr>
0

>  <NsI>
0

>  <fragCpx>
119.02

>  <fMF>
0.43

>  <nHBAcc>
2

>  <nHBDon>
0

>  <Kier1>
17.81

>  <Kier2>
8.91

>  <Lipinski>
1

>  <GhoseFilter>
1

>  <FilterItLogS>
-5.47

>  <VMcGowan>
255.62

>  <LabuteASA>
137.87

>  <PEOE_VSA1>
9.64

>  <PEOE_VSA2>
0

>  <PEOE_VSA3>
0

>  <PEOE_VSA4>
0

>  <PEOE_VSA5>
0

>  <PEOE_VSA6>
66.73

>  <PEOE_VSA7>
31.11

>  <PEOE_VSA8>
17.85

>  <PEOE_VSA9>
6.61

>  <PEOE_VSA10>
5.75

>  <PEOE_VSA11>
0

>  <PEOE_VSA12>
0

>  <PEOE_VSA13>
0

>  <SMR_VSA1>
4.74

>  <SMR_VSA2>
0

>  <SMR_VSA3>
4.9

>  <SMR_VSA4>
0

>  <SMR_VSA5>
12.46

>  <SMR_VSA6>
20.7

>  <SMR_VSA7>
78.36

>  <SMR_VSA8>
0

>  <SMR_VSA9>
5.75

>  <SlogP_VSA1>
4.74

>  <SlogP_VSA2>
25.6

>  <SlogP_VSA3>
0

>  <SlogP_VSA4>
0

>  <SlogP_VSA5>
18.03

>  <SlogP_VSA6>
72.8

>  <SlogP_VSA7>
0

>  <SlogP_VSA8>
10.77

>  <SlogP_VSA9>
0

>  <SlogP_VSA10>
0

>  <SlogP_VSA11>
5.75

>  <EState_VSA1>
0

>  <EState_VSA2>
0

>  <EState_VSA3>
12.65

>  <EState_VSA4>
12.17

>  <EState_VSA5>
16.34

>  <EState_VSA6>
0

>  <EState_VSA7>
0

>  <EState_VSA8>
91.79

>  <EState_VSA9>
4.74

>  <EState_VSA10>
0

>  <VSA_EState1>
6.09

>  <VSA_EState2>
2.25

>  <VSA_EState3>
2.4

>  <VSA_EState4>
1.33

>  <VSA_EState5>
0.97

>  <VSA_EState6>
25.56

>  <VSA_EState7>
0.96

>  <VSA_EState8>
0.7

>  <VSA_EState9>
4.24

>  <apol>
52.31

>  <bpol>
26.52

>  <nRing>
3

>  <nHRing>
0

>  <naRing>
3

>  <naHRing>
0

>  <nARing 2>
0

>  <nAHRing 2>
0

>  <nFRing>
1

>  <nFHRing>
0

>  <nFaRing>
1

>  <nFaHRing>
0

>  <nFARing 2>
0

>  <nFAHRing 2>
0

>  <nRot>
6

>  <SLogP>
4.91

>  <SMR>
96.93

>  <TopoPSA(NO)>
12.47

>  <TopoPSA>
12.47

>  <JGI1>
0.12

>  <JGI2>
0.07

>  <JGI3>
0.04

>  <JGI4>
0.03

>  <JGI5>
0.01

>  <Diameter>
12

>  <Radius>
6

>  <TMWC10>
121.41

>  <TSRW10>
57.06

>  <MW>
305.18

>  <AMW>
6.63

>  <WPath>
1292

>  <WPol>
34

>  <Zagreb1>
116

>  <Zagreb2>
134

>  <mZagreb2>
5.19

>  <yes>


>  <nAR-cont>
0.336376

>  <nHA-cont>
0.967789328

>  <MWHBN>
0.114485889

>  <MWHBN-cont>
0.804668974

>  <TPSA-cont>
0.912951657

>  <pka_cont>
0.97

>  <yes.1>


>  <BBB_SCORE>
4.822072102

>  <MMFF94 Energy>
74.681

$$$$
Compound 1354
Actelion Java MolfileCreator 2.0

  0  0  0  0  0  0              0 V3000
M  V30 BEGIN CTAB
M  V30 COUNTS 18 18 0 0 0
M  V30 BEGIN ATOM
M  V30 1 N 0.7749 1.0074 0.6974 0
M  V30 2 C 0.1113 0.1609 -0.1279 0
M  V30 3 C 1.1568 2.2048 0.1929 0
M  V30 4 N -0.2845 -1.0704 0.3681 0
M  V30 5 C -0.1319 0.5761 -1.4448 0
M  V30 6 C 0.8967 2.5825 -1.1086 0
M  V30 7 C -0.021 -1.3398 1.7718 0
M  V30 8 C -1.1797 -1.9429 -0.3645 0
M  V30 9 N 0.2431 1.7771 -1.9654 0
M  V30 10 H 1.6848 2.8579 0.8776 0
M  V30 11 H -0.6504 -0.0599 -2.152 0
M  V30 12 H 1.2089 3.5446 -1.4963 0
M  V30 13 H 1.0407 -1.2108 2.0116 0
M  V30 14 H -0.2753 -2.3725 2.0347 0
M  V30 15 H -0.6167 -0.6812 2.4137 0
M  V30 16 H -0.7465 -2.2323 -1.328 0
M  V30 17 H -2.1453 -1.4551 -0.5369 0
M  V30 18 H -1.3756 -2.8716 0.1824 0
M  V30 END ATOM
M  V30 BEGIN BOND
M  V30 1 2 1 2
M  V30 2 1 1 3
M  V30 3 1 2 4
M  V30 4 1 2 5
M  V30 5 2 3 6
M  V30 6 1 4 7
M  V30 7 1 4 8
M  V30 8 2 5 9
M  V30 9 1 6 9
M  V30 10 1 3 10
M  V30 11 1 5 11
M  V30 12 1 6 12
M  V30 13 1 7 13
M  V30 14 1 7 14
M  V30 15 1 7 15
M  V30 16 1 8 16
M  V30 17 1 8 17
M  V30 18 1 8 18
M  V30 END BOND
M  V30 END CTAB
M  END
>  <Column 1>
1625

>  <level_0>
1779

>  <index>
1779

>  <Unnamed: 0>
1779

>  <NO.>
1791

>  <Name>
ampyzine

>  <IUPAC_name>
n-n-dimethylpyrazin-2-amine

>  <SMILES>
CN(C)c1cnccn1

>  <CID>
23483

>  <logBB>


>  <BBB+/BBB->
BBB+

>  <Inchi>
InChI=1S/C6H9N3/c1-9(2)6-5-7-3-4-8-6/h3-5H-1-2H3

>  <threshold>
-1

>  <reference>
R1|R13|R19|R6|R24|R27|R27|R27|R30|R30|

>  <group>
B

>  <Class>
1

>  <ABC>
6.54

>  <ABCGG>
6.24

>  <nAcid>
0

>  <nBase>
0

>  <nAromAtom>
6

>  <nAromBond>
6

>  <nAtom>
18

>  <nHeavyAtom>
9

>  <nSpiro>
0

>  <nBridgehead>
0

>  <nHetero>
3

>  <nN>
3

>  <nO>
0

>  <nF>
0

>  <BalabanJ>
2.23

>  <BertzCT>
170.92

>  <nBonds>
18

>  <nBondsO>
9

>  <nBondsS>
12

>  <nBondsD>
0

>  <nBondsT>
0

>  <nBondsA>
6

>  <nBondsM>
6

>  <nBondsKS>
15

>  <nBondsKD>
3

>  <RNCG>
0.42

>  <RPCG>
0.17

>  <FCSP3>
0.33

>  <SZ>
11

>  <Sm>
10.25

>  <Sv>
10.71

>  <Sse>
17.98

>  <Sp>
11.57

>  <Si>
20.74

>  <MZ>
0.61

>  <Mm>
0.57

>  <Mv>
0.6

>  <Mse>
1

>  <Mp>
0.64

>  <Mi>
1.15

>  <NsCH3>
2

>  <NdCH2>
0

>  <NssCH2>
0

>  <NtCH>
0

>  <NdsCH>
0

>  <NaaCH>
3

>  <NsssCH>
0

>  <NddC>
0

>  <NtsC>
0

>  <NdssC>
0

>  <NaasC>
1

>  <NaaaC>
0

>  <NssssC>
0

>  <NsNH3>
0

>  <NsNH2>
0

>  <NssNH2>
0

>  <NdNH>
0

>  <NssNH>
0

>  <NaaNH>
0

>  <NtN>
0

>  <NsssNH>
0

>  <NdsN>
0

>  <NaaN>
2

>  <NsssN>
1

>  <NddsN>
0

>  <NaasN>
0

>  <NssssN>
0

>  <NsOH>
0

>  <NdO>
0

>  <NssO>
0

>  <NaaO>
0

>  <NsF>
0

>  <NsSiH3>
0

>  <NssSiH2>
0

>  <NsssSiH>
0

>  <NssssSi>
0

>  <NsPH2>
0

>  <NssPH>
0

>  <NsssP>
0

>  <NdsssP>
0

>  <NsssssP>
0

>  <NsSH>
0

>  <NdS>
0

>  <NssS>
0

>  <NaaS>
0

>  <NdssS>
0

>  <NddssS>
0

>  <NsCl>
0

>  <NsBr>
0

>  <NsI>
0

>  <fragCpx>
9.03

>  <fMF>
0.33

>  <nHBAcc>
3

>  <nHBDon>
0

>  <Kier1>
7.11

>  <Kier2>
3.24

>  <Lipinski>
1

>  <GhoseFilter>
0

>  <FilterItLogS>
-1.26

>  <VMcGowan>
101.58

>  <LabuteASA>
54.36

>  <PEOE_VSA1>
4.9

>  <PEOE_VSA2>
4.98

>  <PEOE_VSA3>
4.98

>  <PEOE_VSA4>
0

>  <PEOE_VSA5>
0

>  <PEOE_VSA6>
0

>  <PEOE_VSA7>
0

>  <PEOE_VSA8>
26.49

>  <PEOE_VSA9>
6.2

>  <PEOE_VSA10>
5.82

>  <PEOE_VSA11>
0

>  <PEOE_VSA12>
0

>  <PEOE_VSA13>
0

>  <SMR_VSA1>
0

>  <SMR_VSA2>
0

>  <SMR_VSA3>
9.97

>  <SMR_VSA4>
0

>  <SMR_VSA5>
0

>  <SMR_VSA6>
19

>  <SMR_VSA7>
18.59

>  <SMR_VSA8>
0

>  <SMR_VSA9>
0

>  <SlogP_VSA1>
4.9

>  <SlogP_VSA2>
24.06

>  <SlogP_VSA3>
0

>  <SlogP_VSA4>
0

>  <SlogP_VSA5>
0

>  <SlogP_VSA6>
18.59

>  <SlogP_VSA7>
0

>  <SlogP_VSA8>
0

>  <SlogP_VSA9>
0

>  <SlogP_VSA10>
5.82

>  <SlogP_VSA11>
0

>  <EState_VSA1>
0

>  <EState_VSA2>
0

>  <EState_VSA3>
0

>  <EState_VSA4>
5.82

>  <EState_VSA5>
0

>  <EState_VSA6>
18.59

>  <EState_VSA7>
19

>  <EState_VSA8>
9.97

>  <EState_VSA9>
0

>  <EState_VSA10>
0

>  <VSA_EState1>
0

>  <VSA_EState2>
9.85

>  <VSA_EState3>
0

>  <VSA_EState4>
0

>  <VSA_EState5>
0.89

>  <VSA_EState6>
0

>  <VSA_EState7>
5.06

>  <VSA_EState8>
0

>  <VSA_EState9>
3.87

>  <apol>
19.32

>  <bpol>
13.02

>  <nRing>
1

>  <nHRing>
1

>  <naRing>
1

>  <naHRing>
1

>  <nARing 2>
0

>  <nAHRing 2>
0

>  <nFRing>
0

>  <nFHRing>
0

>  <nFaRing>
0

>  <nFaHRing>
0

>  <nFARing 2>
0

>  <nFAHRing 2>
0

>  <nRot>
1

>  <SLogP>
0.54

>  <SMR>
36.36

>  <TopoPSA(NO)>
29.02

>  <TopoPSA>
29.02

>  <JGI1>
0.17

>  <JGI2>
0.08

>  <JGI3>
0.05

>  <JGI4>
0.04

>  <JGI5>
0.06

>  <Diameter>
5

>  <Radius>
3

>  <TMWC10>
79.39

>  <TSRW10>
37.29

>  <MW>
123.08

>  <AMW>
6.84

>  <WPath>
88

>  <WPol>
9

>  <Zagreb1>
40

>  <Zagreb2>
43

>  <mZagreb2>
2.11

>  <yes>


>  <nAR-cont>
0.336376

>  <nHA-cont>
0.56070381

>  <MWHBN>
0.270412966

>  <MWHBN-cont>
0.919171516

>  <TPSA-cont>
0.79742238

>  <pka_cont>
0.97

>  <yes.1>


>  <BBB_SCORE>
4.355681844

>  <MMFF94 Energy>
45.228

$$$$
Compound 1355
Actelion Java MolfileCreator 2.0

  0  0  0  0  0  0              0 V3000
M  V30 BEGIN CTAB
M  V30 COUNTS 34 36 0 0 0
M  V30 BEGIN ATOM
M  V30 1 Cl 3.1714 -3.4156 0.975 0
M  V30 2 C 1.6218 -2.6817 0.8484 0
M  V30 3 C 1.521 -1.3141 0.6122 0
M  V30 4 C 0.476 -3.4577 0.9872 0
M  V30 5 C 0.2559 -0.7138 0.499 0
M  V30 6 C -0.7842 -2.8606 0.8943 0
M  V30 7 C 0.2014 0.7571 0.2523 0
M  V30 8 C -0.913 -1.4831 0.6527 0
M  V30 9 N -0.5376 1.5734 0.9291 0
M  V30 10 C 1.0582 1.3362 -0.8304 0
M  V30 11 N -2.215 -0.9159 0.5809 0
M  V30 12 C -1.4148 1.029 1.9631 0 CFG=2
M  V30 13 C 1.3159 0.6292 -2.0119 0
M  V30 14 C 1.5849 2.6228 -0.6637 0
M  V30 15 C -2.5631 0.2774 1.2231 0
M  V30 16 C -3.2501 -1.6298 -0.1508 0
M  V30 17 O -1.9451 2.042 2.8027 0
M  V30 18 C 2.1179 1.1976 -3.004 0
M  V30 19 C 2.3858 3.1865 -1.6579 0
M  V30 20 O -3.7149 0.7244 1.2042 0
M  V30 21 C 2.6547 2.4724 -2.8248 0
M  V30 22 H 2.4267 -0.7172 0.528 0
M  V30 23 H 0.5536 -4.5252 1.1804 0
M  V30 24 H -1.6625 -3.4866 1.0364 0
M  V30 25 H -0.8881 0.3398 2.6317 0
M  V30 26 H 0.8881 -0.354 -2.1854 0
M  V30 27 H 1.3741 3.1898 0.2408 0
M  V30 28 H -2.8174 -2.1657 -1.0015 0
M  V30 29 H -4.0042 -0.9352 -0.5335 0
M  V30 30 H -3.743 -2.3329 0.5277 0
M  V30 31 H -2.4505 2.6049 2.1897 0
M  V30 32 H 2.318 0.6502 -3.922 0
M  V30 33 H 2.7945 4.1849 -1.523 0
M  V30 34 H 3.2756 2.915 -3.6001 0
M  V30 END ATOM
M  V30 BEGIN BOND
M  V30 1 1 1 2
M  V30 2 2 2 3
M  V30 3 1 2 4
M  V30 4 1 3 5
M  V30 5 2 4 6
M  V30 6 1 5 7
M  V30 7 2 5 8
M  V30 8 2 7 9
M  V30 9 1 7 10
M  V30 10 1 8 11
M  V30 11 1 9 12
M  V30 12 2 10 13
M  V30 13 1 10 14
M  V30 14 1 11 15
M  V30 15 1 11 16
M  V30 16 1 12 17
M  V30 17 1 13 18
M  V30 18 2 14 19
M  V30 19 2 15 20
M  V30 20 2 18 21
M  V30 21 1 6 8
M  V30 22 1 12 15
M  V30 23 1 19 21
M  V30 24 1 3 22
M  V30 25 1 4 23
M  V30 26 1 6 24
M  V30 27 1 12 25
M  V30 28 1 13 26
M  V30 29 1 14 27
M  V30 30 1 16 28
M  V30 31 1 16 29
M  V30 32 1 16 30
M  V30 33 1 17 31
M  V30 34 1 18 32
M  V30 35 1 19 33
M  V30 36 1 21 34
M  V30 END BOND
M  V30 BEGIN COLLECTION
M  V30 MDLV30/STERAC1 ATOMS=(1 12)
M  V30 END COLLECTION
M  V30 END CTAB
M  END
>  <Column 1>
1631

>  <level_0>
1785

>  <index>
1785

>  <Unnamed: 0>
1785

>  <NO.>
1797

>  <Name>
temazepam

>  <IUPAC_name>
7-chloro-3-hydroxy-1-methyl-5-phenyl-3h-1-4-benzodiazepin-2-one

>  <SMILES>
CN1C(=O)C(O)N=C(c2ccccc2)c2cc(Cl)ccc21

>  <CID>
5391

>  <logBB>


>  <BBB+/BBB->
BBB+

>  <Inchi>
InChI=1S/C16H13ClN2O2/c1-19-13-8-7-11(17)9-12(13)14(18-15(20)16(19)21)10-5-3-2-4-6-10/h2-9-15-20H-1H3

>  <threshold>
-1

>  <reference>
R1|R19|R19|R28|R6|R14|R26|R27|R27|R30|R34|R36|R36|R50|

>  <group>
B

>  <Class>
1

>  <ABC>
16.46

>  <ABCGG>
13.77

>  <nAcid>
0

>  <nBase>
0

>  <nAromAtom>
12

>  <nAromBond>
12

>  <nAtom>
34

>  <nHeavyAtom>
21

>  <nSpiro>
0

>  <nBridgehead>
0

>  <nHetero>
5

>  <nN>
2

>  <nO>
2

>  <nF>
0

>  <BalabanJ>
1.84

>  <BertzCT>
728.31

>  <nBonds>
36

>  <nBondsO>
23

>  <nBondsS>
22

>  <nBondsD>
2

>  <nBondsT>
0

>  <nBondsA>
12

>  <nBondsM>
14

>  <nBondsKS>
28

>  <nBondsKD>
8

>  <RNCG>
0.22

>  <RPCG>
0.17

>  <FCSP3>
0.13

>  <SZ>
26

>  <Sm>
25.04

>  <Sv>
23.56

>  <Sse>
34.52

>  <Sp>
24.77

>  <Si>
37.85

>  <MZ>
0.76

>  <Mm>
0.74

>  <Mv>
0.69

>  <Mse>
1.02

>  <Mp>
0.73

>  <Mi>
1.11

>  <NsCH3>
1

>  <NdCH2>
0

>  <NssCH2>
0

>  <NtCH>
0

>  <NdsCH>
0

>  <NaaCH>
8

>  <NsssCH>
1

>  <NddC>
0

>  <NtsC>
0

>  <NdssC>
2

>  <NaasC>
4

>  <NaaaC>
0

>  <NssssC>
0

>  <NsNH3>
0

>  <NsNH2>
0

>  <NssNH2>
0

>  <NdNH>
0

>  <NssNH>
0

>  <NaaNH>
0

>  <NtN>
0

>  <NsssNH>
0

>  <NdsN>
1

>  <NaaN>
0

>  <NsssN>
1

>  <NddsN>
0

>  <NaasN>
0

>  <NssssN>
0

>  <NsOH>
1

>  <NdO>
1

>  <NssO>
0

>  <NaaO>
0

>  <NsF>
0

>  <NsSiH3>
0

>  <NssSiH2>
0

>  <NsssSiH>
0

>  <NssssSi>
0

>  <NsPH2>
0

>  <NssPH>
0

>  <NsssP>
0

>  <NdsssP>
0

>  <NsssssP>
0

>  <NsSH>
0

>  <NdS>
0

>  <NssS>
0

>  <NaaS>
0

>  <NdssS>
0

>  <NddssS>
0

>  <NsCl>
1

>  <NsBr>
0

>  <NsI>
0

>  <fragCpx>
109.05

>  <fMF>
0.5

>  <nHBAcc>
3

>  <nHBDon>
1

>  <Kier1>
15.88

>  <Kier2>
6.63

>  <Lipinski>
1

>  <GhoseFilter>
1

>  <FilterItLogS>
-3.98

>  <VMcGowan>
213.26

>  <LabuteASA>
126.86

>  <PEOE_VSA1>
10.01

>  <PEOE_VSA2>
4.79

>  <PEOE_VSA3>
4.99

>  <PEOE_VSA4>
0

>  <PEOE_VSA5>
0

>  <PEOE_VSA6>
41.93

>  <PEOE_VSA7>
18.2

>  <PEOE_VSA8>
23.2

>  <PEOE_VSA9>
11.4

>  <PEOE_VSA10>
0

>  <PEOE_VSA11>
0

>  <PEOE_VSA12>
6.23

>  <PEOE_VSA13>
5.91

>  <SMR_VSA1>
9.9

>  <SMR_VSA2>
0

>  <SMR_VSA3>
0

>  <SMR_VSA4>
4.99

>  <SMR_VSA5>
6.23

>  <SMR_VSA6>
11.95

>  <SMR_VSA7>
64.68

>  <SMR_VSA8>
0

>  <SMR_VSA9>
0

>  <SlogP_VSA1>
4.9

>  <SlogP_VSA2>
30

>  <SlogP_VSA3>
4.79

>  <SlogP_VSA4>
0

>  <SlogP_VSA5>
11.13

>  <SlogP_VSA6>
53.52

>  <SlogP_VSA7>
5.02

>  <SlogP_VSA8>
0

>  <SlogP_VSA9>
0

>  <SlogP_VSA10>
5.69

>  <SlogP_VSA11>
0

>  <EState_VSA1>
12.14

>  <EState_VSA2>
0

>  <EState_VSA3>
16.42

>  <EState_VSA4>
11.13

>  <EState_VSA5>
4.9

>  <EState_VSA6>
25.25

>  <EState_VSA7>
30.33

>  <EState_VSA8>
4.99

>  <EState_VSA9>
11.6

>  <EState_VSA10>
9.9

>  <VSA_EState1>
0

>  <VSA_EState2>
17.69

>  <VSA_EState3>
10.54

>  <VSA_EState4>
2.77

>  <VSA_EState5>
-0.47

>  <VSA_EState6>
14.64

>  <VSA_EState7>
-1.42

>  <VSA_EState8>
0

>  <VSA_EState9>
1.61

>  <apol>
41.37

>  <bpol>
17.27

>  <nRing>
3

>  <nHRing>
1

>  <naRing>
2

>  <naHRing>
0

>  <nARing 2>
1

>  <nAHRing 2>
1

>  <nFRing>
1

>  <nFHRing>
1

>  <nFaRing>
0

>  <nFaHRing>
0

>  <nFARing 2>
1

>  <nFAHRing 2>
1

>  <nRot>
1

>  <SLogP>
2.47

>  <SMR>
82.95

>  <TopoPSA(NO)>
52.9

>  <TopoPSA>
52.9

>  <JGI1>
0.17

>  <JGI2>
0.09

>  <JGI3>
0.04

>  <JGI4>
0.05

>  <JGI5>
0.03

>  <Diameter>
8

>  <Radius>
4

>  <TMWC10>
118.6

>  <TSRW10>
63.3

>  <MW>
300.07

>  <AMW>
8.83

>  <WPath>
814

>  <WPol>
39

>  <Zagreb1>
112

>  <Zagreb2>
134

>  <mZagreb2>
4.58

>  <yes>


>  <nAR-cont>
0.816016

>  <nHA-cont>
0.994529749

>  <MWHBN>
0.230913169

>  <MWHBN-cont>
0.985839667

>  <TPSA-cont>
0.630725151

>  <pka_cont>
0.97

>  <yes.1>


>  <BBB_SCORE>
5.035755553

>  <MMFF94 Energy>
105.8

$$$$
Compound 1356
Actelion Java MolfileCreator 2.0

  0  0  0  0  0  0              0 V3000
M  V30 BEGIN CTAB
M  V30 COUNTS 34 36 0 0 0
M  V30 BEGIN ATOM
M  V30 1 Cl 0.2469 0.9881 -3.7091 0
M  V30 2 C -1.0403 0.1488 -2.9231 0
M  V30 3 C -1.1024 9.0E-4 -1.533 0
M  V30 4 C -2.0222 -0.4436 -3.7215 0
M  V30 5 C -0.098 0.6199 -0.6328 0
M  V30 6 C -2.143 -0.7299 -0.9438 0
M  V30 7 C -3.059 -1.1743 -3.1353 0
M  V30 8 N -0.117 1.9056 -0.5222 0
M  V30 9 C 0.8324 -0.2914 0.0935 0
M  V30 10 C -3.1191 -1.3175 -1.7488 0
M  V30 11 C 0.8511 2.5342 0.3737 0 CFG=1
M  V30 12 C 1.114 -0.1233 1.4639 0
M  V30 13 C 1.4389 -1.3305 -0.6315 0
M  V30 14 O 0.9399 3.9341 0.1683 0
M  V30 15 C 0.3781 2.2227 1.8241 0
M  V30 16 N 0.5125 0.8974 2.2529 0
M  V30 17 C 2.0134 -1.0109 2.0788 0
M  V30 18 C 2.3206 -2.2003 0.0037 0
M  V30 19 O -0.1001 3.1019 2.5488 0
M  V30 20 C 0.0515 0.5637 3.5929 0
M  V30 21 C 2.6119 -2.0447 1.3542 0
M  V30 22 Cl 3.0592 -3.471 -0.8884 0
M  V30 23 H -1.9854 -0.3413 -4.8037 0
M  V30 24 H -2.2084 -0.8281 0.1371 0
M  V30 25 H -3.8229 -1.6292 -3.7623 0
M  V30 26 H -3.9331 -1.8795 -1.2959 0
M  V30 27 H 1.8655 2.1493 0.2229 0
M  V30 28 H 1.2461 -1.4575 -1.6938 0
M  V30 29 H 0.0249 4.241 0.2944 0
M  V30 30 H 2.275 -0.9016 3.1292 0
M  V30 31 H 0.8784 0.701 4.2966 0
M  V30 32 H -0.3084 -0.4694 3.6286 0
M  V30 33 H -0.7705 1.2195 3.8963 0
M  V30 34 H 3.3078 -2.7179 1.8494 0
M  V30 END ATOM
M  V30 BEGIN BOND
M  V30 1 1 1 2
M  V30 2 2 2 3
M  V30 3 1 2 4
M  V30 4 1 3 5
M  V30 5 1 3 6
M  V30 6 2 4 7
M  V30 7 2 5 8
M  V30 8 1 5 9
M  V30 9 2 6 10
M  V30 10 1 8 11
M  V30 11 2 9 12
M  V30 12 1 9 13
M  V30 13 1 11 14
M  V30 14 1 11 15
M  V30 15 1 12 16
M  V30 16 1 12 17
M  V30 17 2 13 18
M  V30 18 2 15 19
M  V30 19 1 16 20
M  V30 20 2 17 21
M  V30 21 1 18 22
M  V30 22 1 7 10
M  V30 23 1 15 16
M  V30 24 1 18 21
M  V30 25 1 4 23
M  V30 26 1 6 24
M  V30 27 1 7 25
M  V30 28 1 10 26
M  V30 29 1 11 27
M  V30 30 1 13 28
M  V30 31 1 14 29
M  V30 32 1 17 30
M  V30 33 1 20 31
M  V30 34 1 20 32
M  V30 35 1 20 33
M  V30 36 1 21 34
M  V30 END BOND
M  V30 BEGIN COLLECTION
M  V30 MDLV30/STERAC1 ATOMS=(1 11)
M  V30 END COLLECTION
M  V30 END CTAB
M  END
>  <Column 1>
1632

>  <level_0>
1786

>  <index>
1786

>  <Unnamed: 0>
1786

>  <NO.>
1798

>  <Name>
lormetazepam

>  <IUPAC_name>
7-chloro-5-(2-chlorophenyl)-3-hydroxy-1-methyl-3h-1-4-benzodiazepin-2-one

>  <SMILES>
CN1C(=O)C(O)N=C(c2ccccc2Cl)c2cc(Cl)ccc21

>  <CID>
13314

>  <logBB>


>  <BBB+/BBB->
BBB+

>  <Inchi>
InChI=1S/C16H12Cl2N2O2/c1-20-13-7-6-9(17)8-11(13)14(19-15(21)16(20)22)10-4-2-3-5-12(10)18/h2-8-15-21H-1H3

>  <threshold>
-1

>  <reference>
R1|R19|R6|R14|R23|R27|R27|R30|R50|

>  <group>
B

>  <Class>
1

>  <ABC>
17.23

>  <ABCGG>
14.55

>  <nAcid>
0

>  <nBase>
0

>  <nAromAtom>
12

>  <nAromBond>
12

>  <nAtom>
34

>  <nHeavyAtom>
22

>  <nSpiro>
0

>  <nBridgehead>
0

>  <nHetero>
6

>  <nN>
2

>  <nO>
2

>  <nF>
0

>  <BalabanJ>
1.87

>  <BertzCT>
789.47

>  <nBonds>
36

>  <nBondsO>
24

>  <nBondsS>
22

>  <nBondsD>
2

>  <nBondsT>
0

>  <nBondsA>
12

>  <nBondsM>
14

>  <nBondsKS>
28

>  <nBondsKD>
8

>  <RNCG>
0.22

>  <RPCG>
0.17

>  <FCSP3>
0.13

>  <SZ>
28.67

>  <Sm>
27.91

>  <Sv>
24.38

>  <Sse>
34.85

>  <Sp>
25.68

>  <Si>
37.8

>  <MZ>
0.84

>  <Mm>
0.82

>  <Mv>
0.72

>  <Mse>
1.02

>  <Mp>
0.76

>  <Mi>
1.11

>  <NsCH3>
1

>  <NdCH2>
0

>  <NssCH2>
0

>  <NtCH>
0

>  <NdsCH>
0

>  <NaaCH>
7

>  <NsssCH>
1

>  <NddC>
0

>  <NtsC>
0

>  <NdssC>
2

>  <NaasC>
5

>  <NaaaC>
0

>  <NssssC>
0

>  <NsNH3>
0

>  <NsNH2>
0

>  <NssNH2>
0

>  <NdNH>
0

>  <NssNH>
0

>  <NaaNH>
0

>  <NtN>
0

>  <NsssNH>
0

>  <NdsN>
1

>  <NaaN>
0

>  <NsssN>
1

>  <NddsN>
0

>  <NaasN>
0

>  <NssssN>
0

>  <NsOH>
1

>  <NdO>
1

>  <NssO>
0

>  <NaaO>
0

>  <NsF>
0

>  <NsSiH3>
0

>  <NssSiH2>
0

>  <NsssSiH>
0

>  <NssssSi>
0

>  <NsPH2>
0

>  <NssPH>
0

>  <NsssP>
0

>  <NdsssP>
0

>  <NsssssP>
0

>  <NsSH>
0

>  <NdS>
0

>  <NssS>
0

>  <NaaS>
0

>  <NdssS>
0

>  <NddssS>
0

>  <NsCl>
2

>  <NsBr>
0

>  <NsI>
0

>  <fragCpx>
114.06

>  <fMF>
0.5

>  <nHBAcc>
3

>  <nHBDon>
1

>  <Kier1>
16.84

>  <Kier2>
6.86

>  <Lipinski>
1

>  <GhoseFilter>
1

>  <FilterItLogS>
-4.73

>  <VMcGowan>
225.5

>  <LabuteASA>
137.16

>  <PEOE_VSA1>
10.01

>  <PEOE_VSA2>
4.79

>  <PEOE_VSA3>
4.99

>  <PEOE_VSA4>
0

>  <PEOE_VSA5>
0

>  <PEOE_VSA6>
41.4

>  <PEOE_VSA7>
24.27

>  <PEOE_VSA8>
28.22

>  <PEOE_VSA9>
11.4

>  <PEOE_VSA10>
0

>  <PEOE_VSA11>
0

>  <PEOE_VSA12>
6.23

>  <PEOE_VSA13>
5.91

>  <SMR_VSA1>
9.9

>  <SMR_VSA2>
0

>  <SMR_VSA3>
0

>  <SMR_VSA4>
4.99

>  <SMR_VSA5>
6.23

>  <SMR_VSA6>
11.95

>  <SMR_VSA7>
63.64

>  <SMR_VSA8>
0

>  <SMR_VSA9>
0

>  <SlogP_VSA1>
4.9

>  <SlogP_VSA2>
30

>  <SlogP_VSA3>
4.79

>  <SlogP_VSA4>
0

>  <SlogP_VSA5>
11.13

>  <SlogP_VSA6>
47.46

>  <SlogP_VSA7>
10.05

>  <SlogP_VSA8>
0

>  <SlogP_VSA9>
0

>  <SlogP_VSA10>
5.69

>  <SlogP_VSA11>
0

>  <EState_VSA1>
12.14

>  <EState_VSA2>
0

>  <EState_VSA3>
32.57

>  <EState_VSA4>
0

>  <EState_VSA5>
4.9

>  <EState_VSA6>
43.45

>  <EState_VSA7>
6.07

>  <EState_VSA8>
4.99

>  <EState_VSA9>
23.2

>  <EState_VSA10>
9.9

>  <VSA_EState1>
0

>  <VSA_EState2>
17.68

>  <VSA_EState3>
11.03

>  <VSA_EState4>
2.33

>  <VSA_EState5>
-0.51

>  <VSA_EState6>
12.25

>  <VSA_EState7>
-1.48

>  <VSA_EState8>
0

>  <VSA_EState9>
1.59

>  <apol>
42.89

>  <bpol>
16.78

>  <nRing>
3

>  <nHRing>
1

>  <naRing>
2

>  <naHRing>
0

>  <nARing 2>
1

>  <nAHRing 2>
1

>  <nFRing>
1

>  <nFHRing>
1

>  <nFaRing>
0

>  <nFaHRing>
0

>  <nFARing 2>
1

>  <nFAHRing 2>
1

>  <nRot>
1

>  <SLogP>
3.13

>  <SMR>
87.96

>  <TopoPSA(NO)>
52.9

>  <TopoPSA>
52.9

>  <JGI1>
0.19

>  <JGI2>
0.1

>  <JGI3>
0.05

>  <JGI4>
0.05

>  <JGI5>
0.03

>  <Diameter>
8

>  <Radius>
4

>  <TMWC10>
121.27

>  <TSRW10>
64.63

>  <MW>
334.03

>  <AMW>
9.82

>  <WPath>
913

>  <WPol>
42

>  <Zagreb1>
118

>  <Zagreb2>
142

>  <mZagreb2>
4.78

>  <yes>


>  <nAR-cont>
0.816016

>  <nHA-cont>
0.983774276

>  <MWHBN>
0.218860433

>  <MWHBN-cont>
0.99565524

>  <TPSA-cont>
0.630725151

>  <pka_cont>
0.97

>  <yes.1>


>  <BBB_SCORE>
5.039723438

>  <MMFF94 Energy>
110

$$$$
Compound 1357
Actelion Java MolfileCreator 2.0

  0  0  0  0  0  0              0 V3000
M  V30 BEGIN CTAB
M  V30 COUNTS 34 36 0 0 0
M  V30 BEGIN ATOM
M  V30 1 Cl 2.2872 2.7779 -3.0232 0
M  V30 2 C 1.6123 2.2908 -1.5188 0
M  V30 3 C 0.7131 1.2297 -1.4748 0
M  V30 4 C 1.9644 2.963 -0.3536 0
M  V30 5 C 0.1626 0.8271 -0.2465 0
M  V30 6 C 1.4131 2.5704 0.869 0
M  V30 7 C -0.8011 -0.3108 -0.2554 0
M  V30 8 C 0.5081 1.4984 0.9423 0
M  V30 9 N -1.9242 -0.3289 0.3801 0
M  V30 10 C -0.4364 -1.5162 -1.0399 0
M  V30 11 N -0.0142 1.1266 2.2125 0
M  V30 12 C -2.2887 0.8408 1.1763 0 CFG=2
M  V30 13 C -1.2909 -1.989 -2.0351 0
M  V30 14 C 0.7638 -2.1847 -0.7712 0
M  V30 15 C -1.3645 0.8289 2.4303 0
M  V30 16 C 0.8851 1.0966 3.3565 0
M  V30 17 O -3.6528 0.8213 1.5617 0
M  V30 18 F -2.4243 -1.3405 -2.338 0
M  V30 19 C -0.9551 -3.1226 -2.7699 0
M  V30 20 C 1.0993 -3.3228 -1.5081 0
M  V30 21 O -1.8044 0.5611 3.5534 0
M  V30 22 C 0.2411 -3.7911 -2.5057 0
M  V30 23 H 0.4315 0.7329 -2.4004 0
M  V30 24 H 2.6598 3.7986 -0.3879 0
M  V30 25 H 1.6899 3.1289 1.7607 0
M  V30 26 H -2.1526 1.7767 0.6237 0
M  V30 27 H 1.4294 -1.8407 0.0159 0
M  V30 28 H 0.5351 0.3822 4.108 0
M  V30 29 H 0.911 2.0909 3.813 0
M  V30 30 H 1.8909 0.7966 3.0457 0
M  V30 31 H -3.7462 -0.0324 2.0194 0
M  V30 32 H -1.6282 -3.4757 -3.5453 0
M  V30 33 H 2.027 -3.8515 -1.2999 0
M  V30 34 H 0.5032 -4.6794 -3.076 0
M  V30 END ATOM
M  V30 BEGIN BOND
M  V30 1 1 1 2
M  V30 2 2 2 3
M  V30 3 1 2 4
M  V30 4 1 3 5
M  V30 5 2 4 6
M  V30 6 1 5 7
M  V30 7 2 5 8
M  V30 8 2 7 9
M  V30 9 1 7 10
M  V30 10 1 8 11
M  V30 11 1 9 12
M  V30 12 2 10 13
M  V30 13 1 10 14
M  V30 14 1 11 15
M  V30 15 1 11 16
M  V30 16 1 12 17
M  V30 17 1 13 18
M  V30 18 1 13 19
M  V30 19 2 14 20
M  V30 20 2 15 21
M  V30 21 2 19 22
M  V30 22 1 6 8
M  V30 23 1 12 15
M  V30 24 1 20 22
M  V30 25 1 3 23
M  V30 26 1 4 24
M  V30 27 1 6 25
M  V30 28 1 12 26
M  V30 29 1 14 27
M  V30 30 1 16 28
M  V30 31 1 16 29
M  V30 32 1 16 30
M  V30 33 1 17 31
M  V30 34 1 19 32
M  V30 35 1 20 33
M  V30 36 1 22 34
M  V30 END BOND
M  V30 BEGIN COLLECTION
M  V30 MDLV30/STERAC1 ATOMS=(1 12)
M  V30 END COLLECTION
M  V30 END CTAB
M  END
>  <Column 1>
1633

>  <level_0>
1787

>  <index>
1787

>  <Unnamed: 0>
1787

>  <NO.>
1799

>  <Name>
flutemazepam

>  <IUPAC_name>
7-chloro-5-(2-fluorophenyl)-3-hydroxy-1-methyl-3h-1-4-benzodiazepin-2-one

>  <SMILES>
CN1C(=O)C(O)N=C(c2ccccc2F)c2cc(Cl)ccc21

>  <CID>
40344

>  <logBB>


>  <BBB+/BBB->
BBB+

>  <Inchi>
InChI=1S/C16H12ClFN2O2/c1-20-13-7-6-9(17)8-11(13)14(19-15(21)16(20)22)10-4-2-3-5-12(10)18/h2-8-15-21H-1H3

>  <threshold>
-1

>  <reference>
R1|R19|R6|R27|R27|R30|

>  <group>
B

>  <Class>
1

>  <ABC>
17.23

>  <ABCGG>
14.55

>  <nAcid>
0

>  <nBase>
0

>  <nAromAtom>
12

>  <nAromBond>
12

>  <nAtom>
34

>  <nHeavyAtom>
22

>  <nSpiro>
0

>  <nBridgehead>
0

>  <nHetero>
6

>  <nN>
2

>  <nO>
2

>  <nF>
1

>  <BalabanJ>
1.87

>  <BertzCT>
791.47

>  <nBonds>
36

>  <nBondsO>
24

>  <nBondsS>
22

>  <nBondsD>
2

>  <nBondsT>
0

>  <nBondsA>
12

>  <nBondsM>
14

>  <nBondsKS>
28

>  <nBondsKD>
8

>  <RNCG>
0.2

>  <RPCG>
0.16

>  <FCSP3>
0.13

>  <SZ>
27.33

>  <Sm>
26.54

>  <Sv>
23.93

>  <Sse>
35.04

>  <Sp>
24.71

>  <Si>
38.19

>  <MZ>
0.8

>  <Mm>
0.78

>  <Mv>
0.7

>  <Mse>
1.03

>  <Mp>
0.73

>  <Mi>
1.12

>  <NsCH3>
1

>  <NdCH2>
0

>  <NssCH2>
0

>  <NtCH>
0

>  <NdsCH>
0

>  <NaaCH>
7

>  <NsssCH>
1

>  <NddC>
0

>  <NtsC>
0

>  <NdssC>
2

>  <NaasC>
5

>  <NaaaC>
0

>  <NssssC>
0

>  <NsNH3>
0

>  <NsNH2>
0

>  <NssNH2>
0

>  <NdNH>
0

>  <NssNH>
0

>  <NaaNH>
0

>  <NtN>
0

>  <NsssNH>
0

>  <NdsN>
1

>  <NaaN>
0

>  <NsssN>
1

>  <NddsN>
0

>  <NaasN>
0

>  <NssssN>
0

>  <NsOH>
1

>  <NdO>
1

>  <NssO>
0

>  <NaaO>
0

>  <NsF>
1

>  <NsSiH3>
0

>  <NssSiH2>
0

>  <NsssSiH>
0

>  <NssssSi>
0

>  <NsPH2>
0

>  <NssPH>
0

>  <NsssP>
0

>  <NdsssP>
0

>  <NsssssP>
0

>  <NsSH>
0

>  <NdS>
0

>  <NssS>
0

>  <NaaS>
0

>  <NdssS>
0

>  <NddssS>
0

>  <NsCl>
1

>  <NsBr>
0

>  <NsI>
0

>  <fragCpx>
114.06

>  <fMF>
0.5

>  <nHBAcc>
3

>  <nHBDon>
1

>  <Kier1>
16.84

>  <Kier2>
6.86

>  <Lipinski>
1

>  <GhoseFilter>
1

>  <FilterItLogS>
-4.4

>  <VMcGowan>
215.02

>  <LabuteASA>
131.02

>  <PEOE_VSA1>
10.01

>  <PEOE_VSA2>
4.79

>  <PEOE_VSA3>
9.38

>  <PEOE_VSA4>
0

>  <PEOE_VSA5>
0

>  <PEOE_VSA6>
23.73

>  <PEOE_VSA7>
30.33

>  <PEOE_VSA8>
23.2

>  <PEOE_VSA9>
11.4

>  <PEOE_VSA10>
5.82

>  <PEOE_VSA11>
0

>  <PEOE_VSA12>
6.23

>  <PEOE_VSA13>
5.91

>  <SMR_VSA1>
14.29

>  <SMR_VSA2>
0

>  <SMR_VSA3>
0

>  <SMR_VSA4>
4.99

>  <SMR_VSA5>
6.23

>  <SMR_VSA6>
11.95

>  <SMR_VSA7>
64.43

>  <SMR_VSA8>
0

>  <SMR_VSA9>
0

>  <SlogP_VSA1>
4.9

>  <SlogP_VSA2>
30

>  <SlogP_VSA3>
4.79

>  <SlogP_VSA4>
5.82

>  <SlogP_VSA5>
11.13

>  <SlogP_VSA6>
47.46

>  <SlogP_VSA7>
5.02

>  <SlogP_VSA8>
0

>  <SlogP_VSA9>
0

>  <SlogP_VSA10>
10.08

>  <SlogP_VSA11>
0

>  <EState_VSA1>
17.95

>  <EState_VSA2>
11.28

>  <EState_VSA3>
16.27

>  <EState_VSA4>
0

>  <EState_VSA5>
18.01

>  <EState_VSA6>
36.4

>  <EState_VSA7>
0

>  <EState_VSA8>
4.99

>  <EState_VSA9>
11.6

>  <EState_VSA10>
14.29

>  <VSA_EState1>
14.13

>  <VSA_EState2>
17.39

>  <VSA_EState3>
10.39

>  <VSA_EState4>
1.4

>  <VSA_EState5>
-1.08

>  <VSA_EState6>
10.93

>  <VSA_EState7>
-1.59

>  <VSA_EState8>
0

>  <VSA_EState9>
1.53

>  <apol>
41.26

>  <bpol>
17.38

>  <nRing>
3

>  <nHRing>
1

>  <naRing>
2

>  <naHRing>
0

>  <nARing 2>
1

>  <nAHRing 2>
1

>  <nFRing>
1

>  <nFHRing>
1

>  <nFaRing>
0

>  <nFaHRing>
0

>  <nFARing 2>
1

>  <nFAHRing 2>
1

>  <nRot>
1

>  <SLogP>
2.61

>  <SMR>
82.91

>  <TopoPSA(NO)>
52.9

>  <TopoPSA>
52.9

>  <JGI1>
0.19

>  <JGI2>
0.1

>  <JGI3>
0.05

>  <JGI4>
0.05

>  <JGI5>
0.03

>  <Diameter>
8

>  <Radius>
4

>  <TMWC10>
121.27

>  <TSRW10>
64.63

>  <MW>
318.06

>  <AMW>
9.35

>  <WPath>
913

>  <WPol>
42

>  <Zagreb1>
118

>  <Zagreb2>
142

>  <mZagreb2>
4.78

>  <yes>


>  <nAR-cont>
0.816016

>  <nHA-cont>
0.983774276

>  <MWHBN>
0.224287703

>  <MWHBN-cont>
0.991905931

>  <TPSA-cont>
0.630725151

>  <pka_cont>
0.97

>  <yes.1>


>  <BBB_SCORE>
5.034099475

>  <MMFF94 Energy>
108.2

$$$$
Compound 1358
Actelion Java MolfileCreator 2.0

  0  0  0  0  0  0              0 V3000
M  V30 BEGIN CTAB
M  V30 COUNTS 37 39 0 0 0
M  V30 BEGIN ATOM
M  V30 1 F -0.7295 3.3269 2.8395 0
M  V30 2 C 0.5352 2.8245 2.8634 0
M  V30 3 F 0.6172 2.0588 3.9847 0
M  V30 4 F 1.3553 3.8908 3.075 0
M  V30 5 C 0.8829 2.0492 1.6152 0
M  V30 6 C -0.088 1.2653 0.9733 0
M  V30 7 C 2.1793 2.0697 1.0936 0
M  V30 8 C 0.2136 0.509 -0.178 0
M  V30 9 C 2.4921 1.336 -0.053 0
M  V30 10 N -0.8266 -0.2646 -0.7794 0
M  V30 11 C 1.5227 0.5521 -0.701 0
M  V30 12 C -1.1071 -0.2453 -2.1479 0
M  V30 13 C -1.6005 -1.0757 0.1021 0
M  V30 14 N 1.9034 -0.1635 -1.8705 0
M  V30 15 O -2.0544 -0.8339 -2.6737 0
M  V30 16 C -0.1621 0.5586 -2.9969 0
M  V30 17 C -2.9949 -0.9542 0.1412 0
M  V30 18 C -0.9691 -1.9964 0.9511 0
M  V30 19 C 1.1712 -0.1312 -3.053 0
M  V30 20 C 3.1662 -0.8883 -1.8619 0
M  V30 21 C -3.7459 -1.7345 1.0225 0
M  V30 22 C -1.7227 -2.7746 1.832 0
M  V30 23 O 1.584 -0.6241 -4.1037 0
M  V30 24 C -3.1098 -2.6415 1.8686 0
M  V30 25 H -1.1002 1.253 1.3802 0
M  V30 26 H 2.9552 2.6666 1.5726 0
M  V30 27 H 3.5056 1.4007 -0.4436 0
M  V30 28 H -0.5684 0.6185 -4.0132 0
M  V30 29 H -0.0694 1.5872 -2.6357 0
M  V30 30 H -3.5077 -0.257 -0.5169 0
M  V30 31 H 0.1097 -2.1235 0.9255 0
M  V30 32 H 3.9652 -0.2148 -2.1867 0
M  V30 33 H 3.3796 -1.2755 -0.8606 0
M  V30 34 H 3.1266 -1.7344 -2.555 0
M  V30 35 H -4.8286 -1.6388 1.0421 0
M  V30 36 H -1.2286 -3.4898 2.4844 0
M  V30 37 H -3.6972 -3.2518 2.5501 0
M  V30 END ATOM
M  V30 BEGIN BOND
M  V30 1 1 1 2
M  V30 2 1 2 3
M  V30 3 1 2 4
M  V30 4 1 2 5
M  V30 5 2 5 6
M  V30 6 1 5 7
M  V30 7 1 6 8
M  V30 8 2 7 9
M  V30 9 1 8 10
M  V30 10 2 8 11
M  V30 11 1 10 12
M  V30 12 1 10 13
M  V30 13 1 11 14
M  V30 14 2 12 15
M  V30 15 1 12 16
M  V30 16 2 13 17
M  V30 17 1 13 18
M  V30 18 1 14 19
M  V30 19 1 14 20
M  V30 20 1 17 21
M  V30 21 2 18 22
M  V30 22 2 19 23
M  V30 23 2 21 24
M  V30 24 1 9 11
M  V30 25 1 16 19
M  V30 26 1 22 24
M  V30 27 1 6 25
M  V30 28 1 7 26
M  V30 29 1 9 27
M  V30 30 1 16 28
M  V30 31 1 16 29
M  V30 32 1 17 30
M  V30 33 1 18 31
M  V30 34 1 20 32
M  V30 35 1 20 33
M  V30 36 1 20 34
M  V30 37 1 21 35
M  V30 38 1 22 36
M  V30 39 1 24 37
M  V30 END BOND
M  V30 END CTAB
M  END
>  <Column 1>
1634

>  <level_0>
1788

>  <index>
1788

>  <Unnamed: 0>
1788

>  <NO.>
1800

>  <Name>
triflubazam

>  <IUPAC_name>
1-methyl-5-phenyl-7-(trifluoromethyl)-1-5-benzodiazepine-2-4-dione

>  <SMILES>
CN1C(=O)CC(=O)N(c2ccccc2)c2cc(C(F)(F)F)ccc21

>  <CID>
31157

>  <logBB>


>  <BBB+/BBB->
BBB+

>  <Inchi>
InChI=1S/C17H13F3N2O2/c1-21-13-8-7-11(17(18-19)20)9-14(13)22(16(24)10-15(21)23)12-5-3-2-4-6-12/h2-9H-10H2-1H3

>  <threshold>
-1

>  <reference>
R1|R13|R19|R6|R24|R27|R27|R27|R30|R30|

>  <group>
B

>  <Class>
1

>  <ABC>
18.89

>  <ABCGG>
15.8

>  <nAcid>
0

>  <nBase>
0

>  <nAromAtom>
12

>  <nAromBond>
12

>  <nAtom>
37

>  <nHeavyAtom>
24

>  <nSpiro>
0

>  <nBridgehead>
0

>  <nHetero>
7

>  <nN>
2

>  <nO>
2

>  <nF>
3

>  <BalabanJ>
1.88

>  <BertzCT>
803.23

>  <nBonds>
39

>  <nBondsO>
26

>  <nBondsS>
25

>  <nBondsD>
2

>  <nBondsT>
0

>  <nBondsA>
12

>  <nBondsM>
14

>  <nBondsKS>
31

>  <nBondsKD>
8

>  <RNCG>
0.16

>  <RPCG>
0.21

>  <FCSP3>
0.18

>  <SZ>
28.67

>  <Sm>
27.83

>  <Sv>
25.41

>  <Sse>
38.63

>  <Sp>
25.47

>  <Si>
42.34

>  <MZ>
0.77

>  <Mm>
0.75

>  <Mv>
0.69

>  <Mse>
1.04

>  <Mp>
0.69

>  <Mi>
1.14

>  <NsCH3>
1

>  <NdCH2>
0

>  <NssCH2>
1

>  <NtCH>
0

>  <NdsCH>
0

>  <NaaCH>
8

>  <NsssCH>
0

>  <NddC>
0

>  <NtsC>
0

>  <NdssC>
2

>  <NaasC>
4

>  <NaaaC>
0

>  <NssssC>
1

>  <NsNH3>
0

>  <NsNH2>
0

>  <NssNH2>
0

>  <NdNH>
0

>  <NssNH>
0

>  <NaaNH>
0

>  <NtN>
0

>  <NsssNH>
0

>  <NdsN>
0

>  <NaaN>
0

>  <NsssN>
2

>  <NddsN>
0

>  <NaasN>
0

>  <NssssN>
0

>  <NsOH>
0

>  <NdO>
2

>  <NssO>
0

>  <NaaO>
0

>  <NsF>
3

>  <NsSiH3>
0

>  <NssSiH2>
0

>  <NsssSiH>
0

>  <NssssSi>
0

>  <NsPH2>
0

>  <NssPH>
0

>  <NsssP>
0

>  <NdsssP>
0

>  <NsssssP>
0

>  <NsSH>
0

>  <NdS>
0

>  <NssS>
0

>  <NaaS>
0

>  <NdssS>
0

>  <NddssS>
0

>  <NsCl>
0

>  <NsBr>
0

>  <NsI>
0

>  <fragCpx>
124.07

>  <fMF>
0.46

>  <nHBAcc>
2

>  <nHBDon>
0

>  <Kier1>
18.78

>  <Kier2>
7.32

>  <Lipinski>
1

>  <GhoseFilter>
1

>  <FilterItLogS>
-4.23

>  <VMcGowan>
220.39

>  <LabuteASA>
135.65

>  <PEOE_VSA1>
4.9

>  <PEOE_VSA2>
14.49

>  <PEOE_VSA3>
0

>  <PEOE_VSA4>
13.17

>  <PEOE_VSA5>
0

>  <PEOE_VSA6>
18.2

>  <PEOE_VSA7>
30.33

>  <PEOE_VSA8>
12.74

>  <PEOE_VSA9>
16.94

>  <PEOE_VSA10>
6.42

>  <PEOE_VSA11>
0

>  <PEOE_VSA12>
11.81

>  <PEOE_VSA13>
0

>  <SMR_VSA1>
22.76

>  <SMR_VSA2>
0

>  <SMR_VSA3>
0

>  <SMR_VSA4>
0

>  <SMR_VSA5>
12.6

>  <SMR_VSA6>
16.85

>  <SMR_VSA7>
54.09

>  <SMR_VSA8>
0

>  <SMR_VSA9>
0

>  <SlogP_VSA1>
9.8

>  <SlogP_VSA2>
18.86

>  <SlogP_VSA3>
15.77

>  <SlogP_VSA4>
0

>  <SlogP_VSA5>
11.98

>  <SlogP_VSA6>
48.53

>  <SlogP_VSA7>
0

>  <SlogP_VSA8>
0

>  <SlogP_VSA9>
0

>  <SlogP_VSA10>
30.23

>  <SlogP_VSA11>
0

>  <EState_VSA1>
29.97

>  <EState_VSA2>
11.37

>  <EState_VSA3>
5.69

>  <EState_VSA4>
17.03

>  <EState_VSA5>
18.01

>  <EState_VSA6>
30.33

>  <EState_VSA7>
0

>  <EState_VSA8>
0

>  <EState_VSA9>
0

>  <EState_VSA10>
22.76

>  <VSA_EState1>
39.23

>  <VSA_EState2>
26.96

>  <VSA_EState3>
0

>  <VSA_EState4>
-0.18

>  <VSA_EState5>
-1.05

>  <VSA_EState6>
11.31

>  <VSA_EState7>
-4.96

>  <VSA_EState8>
0

>  <VSA_EState9>
1.44

>  <apol>
42.53

>  <bpol>
21.54

>  <nRing>
3

>  <nHRing>
1

>  <naRing>
2

>  <naHRing>
0

>  <nARing 2>
1

>  <nAHRing 2>
1

>  <nFRing>
1

>  <nFHRing>
1

>  <nFaRing>
0

>  <nFaHRing>
0

>  <nFARing 2>
1

>  <nFAHRing 2>
1

>  <nRot>
1

>  <SLogP>
3.74

>  <SMR>
83.06

>  <TopoPSA(NO)>
40.62

>  <TopoPSA>
40.62

>  <JGI1>
0.23

>  <JGI2>
0.09

>  <JGI3>
0.06

>  <JGI4>
0.04

>  <JGI5>
0.03

>  <Diameter>
9

>  <Radius>
5

>  <TMWC10>
126.21

>  <TSRW10>
67.16

>  <MW>
334.09

>  <AMW>
9.03

>  <WPath>
1173

>  <WPol>
45

>  <Zagreb1>
130

>  <Zagreb2>
155

>  <mZagreb2>
5.08

>  <yes>


>  <nAR-cont>
0.816016

>  <nHA-cont>
0.94700071

>  <MWHBN>
0.10942039

>  <MWHBN-cont>
0.780317887

>  <TPSA-cont>
0.716447176

>  <pka_cont>
0.97

>  <yes.1>


>  <BBB_SCORE>
4.851387892

>  <MMFF94 Energy>
69.378

$$$$
Compound 1359
Actelion Java MolfileCreator 2.0

  0  0  0  0  0  0              0 V3000
M  V30 BEGIN CTAB
M  V30 COUNTS 28 29 0 0 0
M  V30 BEGIN ATOM
M  V30 1 O 1.112 0.9531 -1.9864 0
M  V30 2 C 0.2544 1.1334 -1.1308 0
M  V30 3 N -0.2183 2.3558 -0.7456 0
M  V30 4 C -0.5165 0.0389 -0.3983 0 CFG=1
M  V30 5 C -1.2236 2.2737 0.1659 0
M  V30 6 C 0.2506 3.595 -1.3176 0
M  V30 7 C 0.3263 -0.9879 0.3623 0
M  V30 8 C -1.3902 0.845 0.5823 0
M  V30 9 C -1.3882 -0.6594 -1.4599 0
M  V30 10 O -1.8901 3.1978 0.6072 0
M  V30 11 C -0.3156 -1.9731 1.1404 0
M  V30 12 C 1.7295 -0.9965 0.3334 0
M  V30 13 C 0.415 -2.9228 1.8582 0
M  V30 14 C 2.4601 -1.9484 1.0517 0
M  V30 15 C 1.8043 -2.9098 1.8139 0
M  V30 16 H -0.1407 3.6739 -2.3363 0
M  V30 17 H 1.3432 3.5832 -1.3681 0
M  V30 18 H -0.0891 4.4519 -0.7303 0
M  V30 19 H -1.0525 0.7678 1.6224 0
M  V30 20 H -2.448 0.5671 0.5324 0
M  V30 21 H -0.77 -1.2348 -2.1595 0
M  V30 22 H -1.9568 0.0675 -2.0524 0
M  V30 23 H -2.1091 -1.3512 -1.0107 0
M  V30 24 H -1.4018 -2.0117 1.1993 0
M  V30 25 H 2.2937 -0.2734 -0.2509 0
M  V30 26 H -0.1024 -3.6729 2.4507 0
M  V30 27 H 3.5466 -1.9379 1.01 0
M  V30 28 H 2.3758 -3.6485 2.3691 0
M  V30 END ATOM
M  V30 BEGIN BOND
M  V30 1 2 1 2
M  V30 2 1 2 3
M  V30 3 1 2 4
M  V30 4 1 3 5
M  V30 5 1 3 6
M  V30 6 1 4 7
M  V30 7 1 4 8
M  V30 8 1 4 9
M  V30 9 2 5 10
M  V30 10 2 7 11
M  V30 11 1 7 12
M  V30 12 1 11 13
M  V30 13 2 12 14
M  V30 14 2 13 15
M  V30 15 1 5 8
M  V30 16 1 14 15
M  V30 17 1 6 16
M  V30 18 1 6 17
M  V30 19 1 6 18
M  V30 20 1 8 19
M  V30 21 1 8 20
M  V30 22 1 9 21
M  V30 23 1 9 22
M  V30 24 1 9 23
M  V30 25 1 11 24
M  V30 26 1 12 25
M  V30 27 1 13 26
M  V30 28 1 14 27
M  V30 29 1 15 28
M  V30 END BOND
M  V30 BEGIN COLLECTION
M  V30 MDLV30/STERAC1 ATOMS=(1 4)
M  V30 END COLLECTION
M  V30 END CTAB
M  END
>  <Column 1>
1635

>  <level_0>
1789

>  <index>
1789

>  <Unnamed: 0>
1789

>  <NO.>
1801

>  <Name>
methsuximide(mesuximide)

>  <IUPAC_name>
1-3-dimethyl-3-phenylpyrrolidine-2-5-dione

>  <SMILES>
CN1C(=O)CC(C)(c2ccccc2)C1=O

>  <CID>
6476

>  <logBB>


>  <BBB+/BBB->
BBB+

>  <Inchi>
InChI=1S/C12H13NO2/c1-12(9-6-4-3-5-7-9)8-10(14)13(2)11(12)15/h3-7H-8H2-1-2H3

>  <threshold>
-1

>  <reference>
R1|R13|R19|R6|R14|R23|R27|R27|R30|

>  <group>
B

>  <Class>
1

>  <ABC>
11.6

>  <ABCGG>
10.85

>  <nAcid>
0

>  <nBase>
0

>  <nAromAtom>
6

>  <nAromBond>
6

>  <nAtom>
28

>  <nHeavyAtom>
15

>  <nSpiro>
0

>  <nBridgehead>
0

>  <nHetero>
3

>  <nN>
1

>  <nO>
2

>  <nF>
0

>  <BalabanJ>
2.11

>  <BertzCT>
412.89

>  <nBonds>
29

>  <nBondsO>
16

>  <nBondsS>
21

>  <nBondsD>
2

>  <nBondsT>
0

>  <nBondsA>
6

>  <nBondsM>
8

>  <nBondsKS>
24

>  <nBondsKD>
5

>  <RNCG>
0.23

>  <RPCG>
0.2

>  <FCSP3>
0.33

>  <SZ>
18

>  <Sm>
16.92

>  <Sv>
17.71

>  <Sse>
28.1

>  <Sp>
18.81

>  <Si>
31.41

>  <MZ>
0.64

>  <Mm>
0.6

>  <Mv>
0.63

>  <Mse>
1

>  <Mp>
0.67

>  <Mi>
1.12

>  <NsCH3>
2

>  <NdCH2>
0

>  <NssCH2>
1

>  <NtCH>
0

>  <NdsCH>
0

>  <NaaCH>
5

>  <NsssCH>
0

>  <NddC>
0

>  <NtsC>
0

>  <NdssC>
2

>  <NaasC>
1

>  <NaaaC>
0

>  <NssssC>
1

>  <NsNH3>
0

>  <NsNH2>
0

>  <NssNH2>
0

>  <NdNH>
0

>  <NssNH>
0

>  <NaaNH>
0

>  <NtN>
0

>  <NsssNH>
0

>  <NdsN>
0

>  <NaaN>
0

>  <NsssN>
1

>  <NddsN>
0

>  <NaasN>
0

>  <NssssN>
0

>  <NsOH>
0

>  <NdO>
2

>  <NssO>
0

>  <NaaO>
0

>  <NsF>
0

>  <NsSiH3>
0

>  <NssSiH2>
0

>  <NsssSiH>
0

>  <NssssSi>
0

>  <NsPH2>
0

>  <NssPH>
0

>  <NsssP>
0

>  <NdsssP>
0

>  <NsssssP>
0

>  <NsSH>
0

>  <NdS>
0

>  <NssS>
0

>  <NaaS>
0

>  <NdssS>
0

>  <NddssS>
0

>  <NsCl>
0

>  <NsBr>
0

>  <NsI>
0

>  <fragCpx>
46.03

>  <fMF>
0.39

>  <nHBAcc>
2

>  <nHBDon>
0

>  <Kier1>
11.48

>  <Kier2>
4.11

>  <Lipinski>
1

>  <GhoseFilter>
1

>  <FilterItLogS>
-2.63

>  <VMcGowan>
158.44

>  <LabuteASA>
88.7

>  <PEOE_VSA1>
0

>  <PEOE_VSA2>
14.49

>  <PEOE_VSA3>
0

>  <PEOE_VSA4>
0

>  <PEOE_VSA5>
0

>  <PEOE_VSA6>
30.33

>  <PEOE_VSA7>
12.49

>  <PEOE_VSA8>
13.47

>  <PEOE_VSA9>
5.41

>  <PEOE_VSA10>
0

>  <PEOE_VSA11>
0

>  <PEOE_VSA12>
11.81

>  <PEOE_VSA13>
0

>  <SMR_VSA1>
9.59

>  <SMR_VSA2>
0

>  <SMR_VSA3>
4.9

>  <SMR_VSA4>
0

>  <SMR_VSA5>
18.76

>  <SMR_VSA6>
7.05

>  <SMR_VSA7>
35.9

>  <SMR_VSA8>
0

>  <SMR_VSA9>
0

>  <SlogP_VSA1>
0

>  <SlogP_VSA2>
23.76

>  <SlogP_VSA3>
15

>  <SlogP_VSA4>
0

>  <SlogP_VSA5>
18.91

>  <SlogP_VSA6>
30.33

>  <SlogP_VSA7>
0

>  <SlogP_VSA8>
0

>  <SlogP_VSA9>
0

>  <SlogP_VSA10>
0

>  <SlogP_VSA11>
0

>  <EState_VSA1>
5.41

>  <EState_VSA2>
18.24

>  <EState_VSA3>
0

>  <EState_VSA4>
5.56

>  <EState_VSA5>
4.9

>  <EState_VSA6>
7.05

>  <EState_VSA7>
37.26

>  <EState_VSA8>
0

>  <EState_VSA9>
0

>  <EState_VSA10>
9.59

>  <VSA_EState1>
0

>  <VSA_EState2>
24.64

>  <VSA_EState3>
0

>  <VSA_EState4>
0.24

>  <VSA_EState5>
-0.22

>  <VSA_EState6>
9.46

>  <VSA_EState7>
0.27

>  <VSA_EState8>
1.83

>  <VSA_EState9>
1.54

>  <apol>
31.41

>  <bpol>
16.49

>  <nRing>
2

>  <nHRing>
1

>  <naRing>
1

>  <naHRing>
0

>  <nARing 2>
1

>  <nAHRing 2>
1

>  <nFRing>
0

>  <nFHRing>
0

>  <nFaRing>
0

>  <nFaHRing>
0

>  <nFARing 2>
0

>  <nFAHRing 2>
0

>  <nRot>
1

>  <SLogP>
1.33

>  <SMR>
56.19

>  <TopoPSA(NO)>
37.38

>  <TopoPSA>
37.38

>  <JGI1>
0.25

>  <JGI2>
0.13

>  <JGI3>
0.09

>  <JGI4>
0.04

>  <JGI5>
0.03

>  <Diameter>
7

>  <Radius>
4

>  <TMWC10>
103.13

>  <TSRW10>
62.26

>  <MW>
203.09

>  <AMW>
7.25

>  <WPath>
332

>  <WPol>
25

>  <Zagreb1>
80

>  <Zagreb2>
97

>  <mZagreb2>
3.26

>  <yes>


>  <nAR-cont>
0.816016

>  <nHA-cont>
0.92539861

>  <MWHBN>
0.140341375

>  <MWHBN-cont>
0.904889571

>  <TPSA-cont>
0.739064388

>  <pka_cont>
0.97

>  <yes.1>


>  <BBB_SCORE>
5.061877744

>  <MMFF94 Energy>
-3.3941

$$$$
Compound 1360
Actelion Java MolfileCreator 2.0

  0  0  0  0  0  0              0 V3000
M  V30 BEGIN CTAB
M  V30 COUNTS 25 26 0 0 0
M  V30 BEGIN ATOM
M  V30 1 O -1.0336 2.3069 -0.0794 0
M  V30 2 C -0.5105 1.4128 -0.7292 0
M  V30 3 N -0.9906 0.8773 -1.8914 0
M  V30 4 C 0.7733 0.7023 -0.3633 0 CFG=1
M  V30 5 C -0.1502 -0.0472 -2.4352 0
M  V30 6 C -2.2533 1.269 -2.4694 0
M  V30 7 C 0.6335 -0.1293 0.8965 0
M  V30 8 C 1.1042 -0.1099 -1.6142 0
M  V30 9 O -0.3405 -0.7057 -3.4464 0
M  V30 10 C 1.3292 0.2505 2.0549 0
M  V30 11 C -0.189 -1.2664 0.9522 0
M  V30 12 C 1.2167 -0.4927 3.2313 0
M  V30 13 C -0.2991 -2.0084 2.1302 0
M  V30 14 C 0.4045 -1.6228 3.2683 0
M  V30 15 H 1.5522 1.4624 -0.2234 0
M  V30 16 H -2.2093 2.3336 -2.7183 0
M  V30 17 H -3.0431 1.1251 -1.726 0
M  V30 18 H -2.4761 0.6881 -3.3675 0
M  V30 19 H 1.905 0.3706 -2.1873 0
M  V30 20 H 1.3846 -1.1477 -1.4143 0
M  V30 21 H 1.9625 1.1356 2.0553 0
M  V30 22 H -0.7588 -1.592 0.0848 0
M  V30 23 H 1.7599 -0.1853 4.1214 0
M  V30 24 H -0.9388 -2.8868 2.1608 0
M  V30 25 H 0.3151 -2.1992 4.1853 0
M  V30 END ATOM
M  V30 BEGIN BOND
M  V30 1 2 1 2
M  V30 2 1 2 3
M  V30 3 1 2 4
M  V30 4 1 3 5
M  V30 5 1 3 6
M  V30 6 1 4 7
M  V30 7 1 4 8
M  V30 8 2 5 9
M  V30 9 2 7 10
M  V30 10 1 7 11
M  V30 11 1 10 12
M  V30 12 2 11 13
M  V30 13 2 12 14
M  V30 14 1 5 8
M  V30 15 1 13 14
M  V30 16 1 4 15
M  V30 17 1 6 16
M  V30 18 1 6 17
M  V30 19 1 6 18
M  V30 20 1 8 19
M  V30 21 1 8 20
M  V30 22 1 10 21
M  V30 23 1 11 22
M  V30 24 1 12 23
M  V30 25 1 13 24
M  V30 26 1 14 25
M  V30 END BOND
M  V30 BEGIN COLLECTION
M  V30 MDLV30/STERAC1 ATOMS=(1 4)
M  V30 END COLLECTION
M  V30 END CTAB
M  END
>  <Column 1>
1636

>  <level_0>
1790

>  <index>
1790

>  <Unnamed: 0>
1790

>  <NO.>
1802

>  <Name>
phensuximide

>  <IUPAC_name>
1-methyl-3-phenylpyrrolidine-2-5-dione

>  <SMILES>
CN1C(=O)CC(c2ccccc2)C1=O

>  <CID>
6839

>  <logBB>


>  <BBB+/BBB->
BBB+

>  <Inchi>
InChI=1S/C11H11NO2/c1-12-10(13)7-9(11(12)14)8-5-3-2-4-6-8/h2-6-9H-7H2-1H3

>  <threshold>
-1

>  <reference>
R1|R19|R6|R14|R23|R27|R27|R30|

>  <group>
B

>  <Class>
1

>  <ABC>
10.77

>  <ABCGG>
9.93

>  <nAcid>
0

>  <nBase>
0

>  <nAromAtom>
6

>  <nAromBond>
6

>  <nAtom>
25

>  <nHeavyAtom>
14

>  <nSpiro>
0

>  <nBridgehead>
0

>  <nHetero>
3

>  <nN>
1

>  <nO>
2

>  <nF>
0

>  <BalabanJ>
1.97

>  <BertzCT>
372.13

>  <nBonds>
26

>  <nBondsO>
15

>  <nBondsS>
18

>  <nBondsD>
2

>  <nBondsT>
0

>  <nBondsA>
6

>  <nBondsM>
8

>  <nBondsKS>
21

>  <nBondsKD>
5

>  <RNCG>
0.24

>  <RPCG>
0.2

>  <FCSP3>
0.27

>  <SZ>
16.67

>  <Sm>
15.75

>  <Sv>
16.17

>  <Sse>
25.21

>  <Sp>
17.01

>  <Si>
27.99

>  <MZ>
0.67

>  <Mm>
0.63

>  <Mv>
0.65

>  <Mse>
1.01

>  <Mp>
0.68

>  <Mi>
1.12

>  <NsCH3>
1

>  <NdCH2>
0

>  <NssCH2>
1

>  <NtCH>
0

>  <NdsCH>
0

>  <NaaCH>
5

>  <NsssCH>
1

>  <NddC>
0

>  <NtsC>
0

>  <NdssC>
2

>  <NaasC>
1

>  <NaaaC>
0

>  <NssssC>
0

>  <NsNH3>
0

>  <NsNH2>
0

>  <NssNH2>
0

>  <NdNH>
0

>  <NssNH>
0

>  <NaaNH>
0

>  <NtN>
0

>  <NsssNH>
0

>  <NdsN>
0

>  <NaaN>
0

>  <NsssN>
1

>  <NddsN>
0

>  <NaasN>
0

>  <NssssN>
0

>  <NsOH>
0

>  <NdO>
2

>  <NssO>
0

>  <NaaO>
0

>  <NsF>
0

>  <NsSiH3>
0

>  <NssSiH2>
0

>  <NsssSiH>
0

>  <NssssSi>
0

>  <NsPH2>
0

>  <NssPH>
0

>  <NsssP>
0

>  <NdsssP>
0

>  <NsssssP>
0

>  <NsSH>
0

>  <NdS>
0

>  <NssS>
0

>  <NaaS>
0

>  <NdssS>
0

>  <NddssS>
0

>  <NsCl>
0

>  <NsBr>
0

>  <NsI>
0

>  <fragCpx>
43.03

>  <fMF>
0.44

>  <nHBAcc>
2

>  <nHBDon>
0

>  <Kier1>
10.52

>  <Kier2>
4.24

>  <Lipinski>
1

>  <GhoseFilter>
1

>  <FilterItLogS>
-2.02

>  <VMcGowan>
144.35

>  <LabuteASA>
82.33

>  <PEOE_VSA1>
0

>  <PEOE_VSA2>
14.49

>  <PEOE_VSA3>
0

>  <PEOE_VSA4>
0

>  <PEOE_VSA5>
0

>  <PEOE_VSA6>
30.33

>  <PEOE_VSA7>
5.56

>  <PEOE_VSA8>
13.47

>  <PEOE_VSA9>
5.92

>  <PEOE_VSA10>
0

>  <PEOE_VSA11>
0

>  <PEOE_VSA12>
11.81

>  <PEOE_VSA13>
0

>  <SMR_VSA1>
9.59

>  <SMR_VSA2>
0

>  <SMR_VSA3>
4.9

>  <SMR_VSA4>
0

>  <SMR_VSA5>
12.34

>  <SMR_VSA6>
7.05

>  <SMR_VSA7>
35.9

>  <SMR_VSA8>
0

>  <SMR_VSA9>
0

>  <SlogP_VSA1>
0

>  <SlogP_VSA2>
23.76

>  <SlogP_VSA3>
9.59

>  <SlogP_VSA4>
0

>  <SlogP_VSA5>
17.9

>  <SlogP_VSA6>
30.33

>  <SlogP_VSA7>
0

>  <SlogP_VSA8>
0

>  <SlogP_VSA9>
0

>  <SlogP_VSA10>
0

>  <SlogP_VSA11>
0

>  <EState_VSA1>
0

>  <EState_VSA2>
17.73

>  <EState_VSA3>
6.42

>  <EState_VSA4>
5.56

>  <EState_VSA5>
11.95

>  <EState_VSA6>
0

>  <EState_VSA7>
30.33

>  <EState_VSA8>
0

>  <EState_VSA9>
0

>  <EState_VSA10>
9.59

>  <VSA_EState1>
0

>  <VSA_EState2>
24.1

>  <VSA_EState3>
0

>  <VSA_EState4>
0.93

>  <VSA_EState5>
-0.46

>  <VSA_EState6>
9.43

>  <VSA_EState7>
0.3

>  <VSA_EState8>
0

>  <VSA_EState9>
1.54

>  <apol>
28.41

>  <bpol>
14.48

>  <nRing>
2

>  <nHRing>
1

>  <naRing>
1

>  <naHRing>
0

>  <nARing 2>
1

>  <nAHRing 2>
1

>  <nFRing>
0

>  <nFHRing>
0

>  <nFaRing>
0

>  <nFaHRing>
0

>  <nFARing 2>
0

>  <nFAHRing 2>
0

>  <nRot>
1

>  <SLogP>
1.16

>  <SMR>
51.58

>  <TopoPSA(NO)>
37.38

>  <TopoPSA>
37.38

>  <JGI1>
0.17

>  <JGI2>
0.1

>  <JGI3>
0.07

>  <JGI4>
0.04

>  <JGI5>
0.03

>  <Diameter>
7

>  <Radius>
4

>  <TMWC10>
98.97

>  <TSRW10>
60.01

>  <MW>
189.08

>  <AMW>
7.56

>  <WPath>
289

>  <WPol>
20

>  <Zagreb1>
72

>  <Zagreb2>
85

>  <mZagreb2>
3.11

>  <yes>


>  <nAR-cont>
0.816016

>  <nHA-cont>
0.887625254

>  <MWHBN>
0.145447814

>  <MWHBN-cont>
0.920133106

>  <TPSA-cont>
0.739064388

>  <pka_cont>
0.97

>  <yes.1>


>  <BBB_SCORE>
5.04696969

>  <MMFF94 Energy>
-13.049

$$$$
Compound 1361
Actelion Java MolfileCreator 2.0

  0  0  0  0  0  0              0 V3000
M  V30 BEGIN CTAB
M  V30 COUNTS 48 50 0 0 0
M  V30 BEGIN ATOM
M  V30 1 F 0.0799 -6.8095 -4.2417 0
M  V30 2 C -0.0836 -6.1028 -3.1161 0
M  V30 3 C -0.9542 -6.5645 -2.1371 0
M  V30 4 C 0.6208 -4.9166 -2.9438 0
M  V30 5 C -1.1231 -5.8258 -0.9638 0
M  V30 6 C 0.4549 -4.174 -1.7704 0
M  V30 7 C -0.42 -4.6251 -0.7711 0
M  V30 8 C -0.6362 -3.8715 0.5037 0
M  V30 9 O -1.4224 -4.3187 1.3369 0
M  V30 10 C 0.1308 -2.5791 0.7225 0
M  V30 11 C -0.2249 -1.9187 2.0569 0
M  V30 12 C 0.6172 -0.6684 2.3427 0
M  V30 13 N 0.5728 0.3498 1.2773 0
M  V30 14 C -0.7543 0.9725 1.1688 0
M  V30 15 C 1.6168 1.3604 1.5051 0
M  V30 16 C -0.7975 1.995 0.0293 0
M  V30 17 C 1.6615 2.3672 0.3562 0
M  V30 18 C 0.3084 3.0561 0.1524 0
M  V30 19 C 0.317 3.8994 -1.1076 0
M  V30 20 C -0.0019 4.0861 1.2485 0
M  V30 21 O 0.7287 3.5333 -2.1987 0
M  V30 22 N -0.2439 5.1127 -0.8285 0
M  V30 23 C -0.4958 5.2896 0.4983 0
M  V30 24 C -0.4857 6.1162 -1.8372 0
M  V30 25 O -0.9965 6.2695 1.0287 0
M  V30 26 H -1.4956 -7.4928 -2.2903 0
M  V30 27 H 1.2946 -4.5765 -3.7247 0
M  V30 28 H -1.8069 -6.191 -0.1989 0
M  V30 29 H 1.0174 -3.2507 -1.6642 0
M  V30 30 H 1.2027 -2.8063 0.7062 0
M  V30 31 H -0.1108 -1.8968 -0.0994 0
M  V30 32 H -1.2945 -1.6792 2.0835 0
M  V30 33 H -0.0595 -2.6344 2.8728 0
M  V30 34 H 0.3102 -0.2363 3.3041 0
M  V30 35 H 1.654 -1.007 2.4705 0
M  V30 36 H -1.0397 1.4477 2.1155 0
M  V30 37 H -1.5155 0.2163 0.9484 0
M  V30 38 H 1.4589 1.8797 2.4592 0
M  V30 39 H 2.5987 0.8744 1.56 0
M  V30 40 H -0.6926 1.462 -0.926 0
M  V30 41 H -1.7875 2.4683 5.0E-4 0
M  V30 42 H 2.4484 3.1086 0.5445 0
M  V30 43 H 1.959 1.8433 -0.5625 0
M  V30 44 H -0.7695 3.7543 1.953 0
M  V30 45 H 0.8918 4.3831 1.8078 0
M  V30 46 H -1.1108 6.9237 -1.4479 0
M  V30 47 H 0.4785 6.5229 -2.157 0
M  V30 48 H -0.9668 5.6516 -2.7029 0
M  V30 END ATOM
M  V30 BEGIN BOND
M  V30 1 1 1 2
M  V30 2 2 2 3
M  V30 3 1 2 4
M  V30 4 1 3 5
M  V30 5 2 4 6
M  V30 6 2 5 7
M  V30 7 1 7 8
M  V30 8 2 8 9
M  V30 9 1 8 10
M  V30 10 1 10 11
M  V30 11 1 11 12
M  V30 12 1 12 13
M  V30 13 1 13 14
M  V30 14 1 13 15
M  V30 15 1 14 16
M  V30 16 1 15 17
M  V30 17 1 16 18
M  V30 18 1 18 19
M  V30 19 1 18 20
M  V30 20 2 19 21
M  V30 21 1 19 22
M  V30 22 1 20 23
M  V30 23 1 22 24
M  V30 24 2 23 25
M  V30 25 1 6 7
M  V30 26 1 17 18
M  V30 27 1 22 23
M  V30 28 1 3 26
M  V30 29 1 4 27
M  V30 30 1 5 28
M  V30 31 1 6 29
M  V30 32 1 10 30
M  V30 33 1 10 31
M  V30 34 1 11 32
M  V30 35 1 11 33
M  V30 36 1 12 34
M  V30 37 1 12 35
M  V30 38 1 14 36
M  V30 39 1 14 37
M  V30 40 1 15 38
M  V30 41 1 15 39
M  V30 42 1 16 40
M  V30 43 1 16 41
M  V30 44 1 17 42
M  V30 45 1 17 43
M  V30 46 1 20 44
M  V30 47 1 20 45
M  V30 48 1 24 46
M  V30 49 1 24 47
M  V30 50 1 24 48
M  V30 END BOND
M  V30 END CTAB
M  END
>  <Column 1>
1637

>  <level_0>
1791

>  <index>
1791

>  <Unnamed: 0>
1791

>  <NO.>
1803

>  <Name>
roxoperone

>  <IUPAC_name>
8-[4-(4-fluorophenyl)-4-oxobutyl]-2-methyl-2-8-diazaspiro[4.5]decane-1-3-dione

>  <SMILES>
CN1C(=O)CC2(CCN(CCCC(=O)c3ccc(F)cc3)CC2)C1=O

>  <CID>
71117

>  <logBB>


>  <BBB+/BBB->
BBB+

>  <Inchi>
InChI=1S/C19H23FN2O3/c1-21-17(24)13-19(18(21)25)8-11-22(12-9-19)10-2-3-16(23)14-4-6-15(20)7-5-14/h4-7H-2-3-8-13H2-1H3

>  <threshold>
-1

>  <reference>
R1|R13|R19|R6|R24|R27|R27|R27|R30|R30|

>  <group>
B

>  <Class>
1

>  <ABC>
19.46

>  <ABCGG>
15.19

>  <nAcid>
0

>  <nBase>
1

>  <nAromAtom>
6

>  <nAromBond>
6

>  <nAtom>
48

>  <nHeavyAtom>
25

>  <nSpiro>
1

>  <nBridgehead>
0

>  <nHetero>
6

>  <nN>
2

>  <nO>
3

>  <nF>
1

>  <BalabanJ>
1.36

>  <BertzCT>
678.41

>  <nBonds>
50

>  <nBondsO>
27

>  <nBondsS>
41

>  <nBondsD>
3

>  <nBondsT>
0

>  <nBondsA>
6

>  <nBondsM>
9

>  <nBondsKS>
44

>  <nBondsKD>
6

>  <RNCG>
0.16

>  <RPCG>
0.13

>  <FCSP3>
0.53

>  <SZ>
30.67

>  <Sm>
28.84

>  <Sv>
29.54

>  <Sse>
48.49

>  <Sp>
31.27

>  <Si>
54.53

>  <MZ>
0.64

>  <Mm>
0.6

>  <Mv>
0.62

>  <Mse>
1.01

>  <Mp>
0.65

>  <Mi>
1.14

>  <NsCH3>
1

>  <NdCH2>
0

>  <NssCH2>
8

>  <NtCH>
0

>  <NdsCH>
0

>  <NaaCH>
4

>  <NsssCH>
0

>  <NddC>
0

>  <NtsC>
0

>  <NdssC>
3

>  <NaasC>
2

>  <NaaaC>
0

>  <NssssC>
1

>  <NsNH3>
0

>  <NsNH2>
0

>  <NssNH2>
0

>  <NdNH>
0

>  <NssNH>
0

>  <NaaNH>
0

>  <NtN>
0

>  <NsssNH>
0

>  <NdsN>
0

>  <NaaN>
0

>  <NsssN>
2

>  <NddsN>
0

>  <NaasN>
0

>  <NssssN>
0

>  <NsOH>
0

>  <NdO>
3

>  <NssO>
0

>  <NaaO>
0

>  <NsF>
1

>  <NsSiH3>
0

>  <NssSiH2>
0

>  <NsssSiH>
0

>  <NssssSi>
0

>  <NsPH2>
0

>  <NssPH>
0

>  <NsssP>
0

>  <NdsssP>
0

>  <NsssssP>
0

>  <NsSH>
0

>  <NdS>
0

>  <NssS>
0

>  <NaaS>
0

>  <NdssS>
0

>  <NddssS>
0

>  <NsCl>
0

>  <NsBr>
0

>  <NsI>
0

>  <fragCpx>
129.06

>  <fMF>
0.42

>  <nHBAcc>
4

>  <nHBDon>
0

>  <Kier1>
19.75

>  <Kier2>
8.35

>  <Lipinski>
1

>  <GhoseFilter>
1

>  <FilterItLogS>
-4.24

>  <VMcGowan>
259.52

>  <LabuteASA>
146.33

>  <PEOE_VSA1>
4.9

>  <PEOE_VSA2>
19.28

>  <PEOE_VSA3>
4.39

>  <PEOE_VSA4>
0

>  <PEOE_VSA5>
0

>  <PEOE_VSA6>
0

>  <PEOE_VSA7>
63.16

>  <PEOE_VSA8>
25.45

>  <PEOE_VSA9>
5.41

>  <PEOE_VSA10>
5.82

>  <PEOE_VSA11>
5.78

>  <PEOE_VSA12>
11.81

>  <PEOE_VSA13>
0

>  <SMR_VSA1>
18.77

>  <SMR_VSA2>
0

>  <SMR_VSA3>
9.8

>  <SMR_VSA4>
5.41

>  <SMR_VSA5>
32.1

>  <SMR_VSA6>
26.68

>  <SMR_VSA7>
35.65

>  <SMR_VSA8>
0

>  <SMR_VSA9>
0

>  <SlogP_VSA1>
0

>  <SlogP_VSA2>
54.08

>  <SlogP_VSA3>
9.59

>  <SlogP_VSA4>
11.23

>  <SlogP_VSA5>
42.46

>  <SlogP_VSA6>
24.27

>  <SlogP_VSA7>
0

>  <SlogP_VSA8>
0

>  <SlogP_VSA9>
0

>  <SlogP_VSA10>
4.39

>  <SlogP_VSA11>
0

>  <EState_VSA1>
5.41

>  <EState_VSA2>
23.41

>  <EState_VSA3>
31.25

>  <EState_VSA4>
26.06

>  <EState_VSA5>
29.17

>  <EState_VSA6>
7.05

>  <EState_VSA7>
0

>  <EState_VSA8>
4.9

>  <EState_VSA9>
0

>  <EState_VSA10>
18.77

>  <VSA_EState1>
12.88

>  <VSA_EState2>
39.67

>  <VSA_EState3>
0

>  <VSA_EState4>
0.05

>  <VSA_EState5>
-0.44

>  <VSA_EState6>
5.63

>  <VSA_EState7>
2.89

>  <VSA_EState8>
2.34

>  <VSA_EState9>
1.56

>  <apol>
52.23

>  <bpol>
30.21

>  <nRing>
3

>  <nHRing>
2

>  <naRing>
1

>  <naHRing>
0

>  <nARing 2>
2

>  <nAHRing 2>
2

>  <nFRing>
0

>  <nFHRing>
0

>  <nFaRing>
0

>  <nFaHRing>
0

>  <nFARing 2>
0

>  <nFAHRing 2>
0

>  <nRot>
5

>  <SLogP>
2.26

>  <SMR>
90.47

>  <TopoPSA(NO)>
57.69

>  <TopoPSA>
57.69

>  <JGI1>
0.24

>  <JGI2>
0.11

>  <JGI3>
0.06

>  <JGI4>
0.04

>  <JGI5>
0.03

>  <Diameter>
15

>  <Radius>
8

>  <TMWC10>
127.69

>  <TSRW10>
74.49

>  <MW>
346.17

>  <AMW>
7.21

>  <WPath>
1776

>  <WPol>
40

>  <Zagreb1>
132

>  <Zagreb2>
156

>  <mZagreb2>
5.46

>  <yes>


>  <nAR-cont>
1

>  <nHA-cont>
0.921834225

>  <MWHBN>
0.214988524

>  <MWHBN-cont>
0.997637386

>  <TPSA-cont>
0.597287977

>  <pka_cont>
0.97

>  <yes.1>


>  <BBB_SCORE>
5.097866257

>  <MMFF94 Energy>
-11.636

$$$$
Compound 1362
Actelion Java MolfileCreator 2.0

  0  0  0  0  0  0              0 V3000
M  V30 BEGIN CTAB
M  V30 COUNTS 29 30 0 0 0
M  V30 BEGIN ATOM
M  V30 1 Cl -2.2806 -3.3801 2.9571 0
M  V30 2 C -1.2603 -2.025 2.6277 0
M  V30 3 C -0.6578 -1.2763 3.6416 0
M  V30 4 C -1.05 -1.682 1.285 0
M  V30 5 Cl -0.874 -1.6358 5.3166 0
M  V30 6 C 0.1508 -0.1888 3.3069 0
M  V30 7 C -0.237 -0.5884 0.9326 0
M  V30 8 C 0.357 0.153 1.9668 0
M  V30 9 C -0.0419 -0.2401 -0.5378 0 CFG=2
M  V30 10 S 1.7038 -0.5856 -0.9898 0
M  V30 11 N -0.5683 1.068 -0.9862 0
M  V30 12 O 2.6222 -0.0471 -0.0034 0
M  V30 13 O 1.7973 -1.9713 -1.4141 0
M  V30 14 C 1.8907 0.4193 -2.4439 0
M  V30 15 C -0.3513 1.4933 -2.2921 0
M  V30 16 C -1.5287 1.7953 -0.1661 0
M  V30 17 C 0.5636 0.6276 -3.1369 0
M  V30 18 O -0.8684 2.4982 -2.7719 0
M  V30 19 H -1.5273 -2.2817 0.5106 0
M  V30 20 H 0.6309 0.399 4.0868 0
M  V30 21 H 0.9987 1.0058 1.7427 0
M  V30 22 H -0.6035 -0.9713 -1.1369 0
M  V30 23 H 2.3178 1.3769 -2.127 0
M  V30 24 H 2.6068 -0.0834 -3.1004 0
M  V30 25 H -2.3565 1.1286 0.0928 0
M  V30 26 H -1.0355 2.1588 0.7378 0
M  V30 27 H -1.941 2.6612 -0.6915 0
M  V30 28 H 0.7298 1.1412 -4.0907 0
M  V30 29 H 0.0592 -0.3197 -3.3558 0
M  V30 END ATOM
M  V30 BEGIN BOND
M  V30 1 1 1 2
M  V30 2 2 2 3
M  V30 3 1 2 4
M  V30 4 1 3 5
M  V30 5 1 3 6
M  V30 6 2 4 7
M  V30 7 2 6 8
M  V30 8 1 7 9
M  V30 9 1 9 10
M  V30 10 1 9 11
M  V30 11 2 10 12
M  V30 12 2 10 13
M  V30 13 1 10 14
M  V30 14 1 11 15
M  V30 15 1 11 16
M  V30 16 1 14 17
M  V30 17 2 15 18
M  V30 18 1 7 8
M  V30 19 1 15 17
M  V30 20 1 4 19
M  V30 21 1 6 20
M  V30 22 1 8 21
M  V30 23 1 9 22
M  V30 24 1 14 23
M  V30 25 1 14 24
M  V30 26 1 16 25
M  V30 27 1 16 26
M  V30 28 1 16 27
M  V30 29 1 17 28
M  V30 30 1 17 29
M  V30 END BOND
M  V30 BEGIN COLLECTION
M  V30 MDLV30/STERAC1 ATOMS=(1 9)
M  V30 END COLLECTION
M  V30 END CTAB
M  END
>  <Column 1>
1638

>  <level_0>
1793

>  <index>
1793

>  <Unnamed: 0>
1793

>  <NO.>
1805

>  <Name>
dichlormezanone

>  <IUPAC_name>
2-(3-4-dichlorophenyl)-3-methyl-1-1-dioxo-1-3-thiazinan-4-one

>  <SMILES>
CN1C(=O)CCS(=O)(=O)C1c1ccc(Cl)c(Cl)c1

>  <CID>
71209

>  <logBB>


>  <BBB+/BBB->
BBB+

>  <Inchi>
InChI=1S/C11H11Cl2NO3S/c1-14-10(15)4-5-18(16-17)11(14)7-2-3-8(12)9(13)6-7/h2-3-6-11H-4-5H2-1H3

>  <threshold>
-1

>  <reference>
R1|R19|R6|R27|R27|R30|

>  <group>
B

>  <Class>
1

>  <ABC>
13.97

>  <ABCGG>
12.38

>  <nAcid>
0

>  <nBase>
0

>  <nAromAtom>
6

>  <nAromBond>
6

>  <nAtom>
29

>  <nHeavyAtom>
18

>  <nSpiro>
0

>  <nBridgehead>
0

>  <nHetero>
7

>  <nN>
1

>  <nO>
3

>  <nF>
0

>  <BalabanJ>
2.13

>  <BertzCT>
600.31

>  <nBonds>
30

>  <nBondsO>
19

>  <nBondsS>
21

>  <nBondsD>
3

>  <nBondsT>
0

>  <nBondsA>
6

>  <nBondsM>
9

>  <nBondsKS>
24

>  <nBondsKD>
6

>  <RNCG>
0.24

>  <RPCG>
0.17

>  <FCSP3>
0.36

>  <SZ>
26.33

>  <Sm>
25.66

>  <Sv>
20.25

>  <Sse>
30.15

>  <Sp>
21.84

>  <Si>
32.43

>  <MZ>
0.91

>  <Mm>
0.88

>  <Mv>
0.7

>  <Mse>
1.04

>  <Mp>
0.75

>  <Mi>
1.12

>  <NsCH3>
1

>  <NdCH2>
0

>  <NssCH2>
2

>  <NtCH>
0

>  <NdsCH>
0

>  <NaaCH>
3

>  <NsssCH>
1

>  <NddC>
0

>  <NtsC>
0

>  <NdssC>
1

>  <NaasC>
3

>  <NaaaC>
0

>  <NssssC>
0

>  <NsNH3>
0

>  <NsNH2>
0

>  <NssNH2>
0

>  <NdNH>
0

>  <NssNH>
0

>  <NaaNH>
0

>  <NtN>
0

>  <NsssNH>
0

>  <NdsN>
0

>  <NaaN>
0

>  <NsssN>
1

>  <NddsN>
0

>  <NaasN>
0

>  <NssssN>
0

>  <NsOH>
0

>  <NdO>
3

>  <NssO>
0

>  <NaaO>
0

>  <NsF>
0

>  <NsSiH3>
0

>  <NssSiH2>
0

>  <NsssSiH>
0

>  <NssssSi>
0

>  <NsPH2>
0

>  <NssPH>
0

>  <NsssP>
0

>  <NdsssP>
0

>  <NsssssP>
0

>  <NsSH>
0

>  <NdS>
0

>  <NssS>
0

>  <NaaS>
0

>  <NdssS>
0

>  <NddssS>
1

>  <NsCl>
2

>  <NsBr>
0

>  <NsI>
0

>  <fragCpx>
55.07

>  <fMF>
0.41

>  <nHBAcc>
3

>  <nHBDon>
0

>  <Kier1>
14.41

>  <Kier2>
5.17

>  <Lipinski>
1

>  <GhoseFilter>
1

>  <FilterItLogS>
-3.58

>  <VMcGowan>
195.35

>  <LabuteASA>
115.4

>  <PEOE_VSA1>
4.9

>  <PEOE_VSA2>
4.79

>  <PEOE_VSA3>
8.42

>  <PEOE_VSA4>
0

>  <PEOE_VSA5>
0

>  <PEOE_VSA6>
29.27

>  <PEOE_VSA7>
17.7

>  <PEOE_VSA8>
13.47

>  <PEOE_VSA9>
15.8

>  <PEOE_VSA10>
0

>  <PEOE_VSA11>
15.21

>  <PEOE_VSA12>
5.91

>  <PEOE_VSA13>
0

>  <SMR_VSA1>
13.21

>  <SMR_VSA2>
0

>  <SMR_VSA3>
4.9

>  <SMR_VSA4>
0

>  <SMR_VSA5>
11.79

>  <SMR_VSA6>
12.8

>  <SMR_VSA7>
33.81

>  <SMR_VSA8>
0

>  <SMR_VSA9>
0

>  <SlogP_VSA1>
0

>  <SlogP_VSA2>
32.03

>  <SlogP_VSA3>
14.63

>  <SlogP_VSA4>
0

>  <SlogP_VSA5>
17.36

>  <SlogP_VSA6>
18.2

>  <SlogP_VSA7>
10.05

>  <SlogP_VSA8>
0

>  <SlogP_VSA9>
0

>  <SlogP_VSA10>
0

>  <SlogP_VSA11>
0

>  <EState_VSA1>
15.21

>  <EState_VSA2>
23.1

>  <EState_VSA3>
10.59

>  <EState_VSA4>
0

>  <EState_VSA5>
24.08

>  <EState_VSA6>
6.07

>  <EState_VSA7>
0

>  <EState_VSA8>
0

>  <EState_VSA9>
23.2

>  <EState_VSA10>
13.21

>  <VSA_EState1>
24.13

>  <VSA_EState2>
12.85

>  <VSA_EState3>
-0.35

>  <VSA_EState4>
0.46

>  <VSA_EState5>
-0.33

>  <VSA_EState6>
4.59

>  <VSA_EState7>
0.02

>  <VSA_EState8>
0

>  <VSA_EState9>
-1.91

>  <apol>
36.47

>  <bpol>
21.29

>  <nRing>
2

>  <nHRing>
1

>  <naRing>
1

>  <naHRing>
0

>  <nARing 2>
1

>  <nAHRing 2>
1

>  <nFRing>
0

>  <nFHRing>
0

>  <nFaRing>
0

>  <nFaHRing>
0

>  <nFARing 2>
0

>  <nFAHRing 2>
0

>  <nRot>
1

>  <SLogP>
2.27

>  <SMR>
70.38

>  <TopoPSA(NO)>
54.45

>  <TopoPSA>
62.83

>  <JGI1>
0.29

>  <JGI2>
0.12

>  <JGI3>
0.07

>  <JGI4>
0.06

>  <JGI5>
0.03

>  <Diameter>
8

>  <Radius>
4

>  <TMWC10>
110.31

>  <TSRW10>
51.65

>  <MW>
306.98

>  <AMW>
10.59

>  <WPath>
554

>  <WPol>
31

>  <Zagreb1>
96

>  <Zagreb2>
114

>  <mZagreb2>
3.82

>  <yes>


>  <nAR-cont>
0.816016

>  <nHA-cont>
0.991161285

>  <MWHBN>
0.171224621

>  <MWHBN-cont>
0.975842656

>  <TPSA-cont>
0.561407585

>  <pka_cont>
0.97

>  <yes.1>


>  <BBB_SCORE>
4.878756439

>  <MMFF94 Energy>
67.976

$$$$
Compound 1363
Actelion Java MolfileCreator 2.0

  0  0  0  0  0  0              0 V3000
M  V30 BEGIN CTAB
M  V30 COUNTS 29 30 0 0 0
M  V30 BEGIN ATOM
M  V30 1 Cl 1.3279 1.6601 -5.0696 0
M  V30 2 C 0.8732 1.326 -3.4447 0
M  V30 3 C 0.682 2.3745 -2.5494 0
M  V30 4 C 0.6973 0.0086 -3.0312 0
M  V30 5 C 0.3096 2.1036 -1.23 0
M  V30 6 C 0.3258 -0.2647 -1.7117 0
M  V30 7 C 0.122 0.7794 -0.7925 0
M  V30 8 C -0.2755 0.5169 0.6531 0 CFG=2
M  V30 9 S 1.2364 0.4485 1.6717 0
M  V30 10 N -1.2697 -0.5718 0.8045 0
M  V30 11 O 2.4054 0.1486 0.8651 0
M  V30 12 O 1.2411 1.5797 2.5824 0
M  V30 13 C 0.9153 -0.9998 2.6369 0
M  V30 14 C -0.9655 -1.8507 1.2345 0
M  V30 15 C -2.6274 -0.2814 0.3617 0
M  V30 16 C 0.4395 -2.1095 1.7292 0
M  V30 17 O -1.7807 -2.7708 1.213 0
M  V30 18 H 0.8269 3.4034 -2.8692 0
M  V30 19 H 0.8513 -0.8109 -3.7286 0
M  V30 20 H 0.1772 2.9405 -0.545 0
M  V30 21 H 0.1998 -1.3044 -1.4178 0
M  V30 22 H -0.7927 1.4084 1.0349 0
M  V30 23 H 1.8493 -1.2697 3.1385 0
M  V30 24 H 0.1677 -0.7409 3.3936 0
M  V30 25 H -3.3194 -1.0931 0.6008 0
M  V30 26 H -2.9767 0.6287 0.858 0
M  V30 27 H -2.6278 -0.1302 -0.7211 0
M  V30 28 H 1.0947 -2.2525 0.8637 0
M  V30 29 H 0.4255 -3.0487 2.2943 0
M  V30 END ATOM
M  V30 BEGIN BOND
M  V30 1 1 1 2
M  V30 2 2 2 3
M  V30 3 1 2 4
M  V30 4 1 3 5
M  V30 5 2 4 6
M  V30 6 2 5 7
M  V30 7 1 7 8
M  V30 8 1 8 9
M  V30 9 1 8 10
M  V30 10 2 9 11
M  V30 11 2 9 12
M  V30 12 1 9 13
M  V30 13 1 10 14
M  V30 14 1 10 15
M  V30 15 1 13 16
M  V30 16 2 14 17
M  V30 17 1 6 7
M  V30 18 1 14 16
M  V30 19 1 3 18
M  V30 20 1 4 19
M  V30 21 1 5 20
M  V30 22 1 6 21
M  V30 23 1 8 22
M  V30 24 1 13 23
M  V30 25 1 13 24
M  V30 26 1 15 25
M  V30 27 1 15 26
M  V30 28 1 15 27
M  V30 29 1 16 28
M  V30 30 1 16 29
M  V30 END BOND
M  V30 BEGIN COLLECTION
M  V30 MDLV30/STERAC1 ATOMS=(1 8)
M  V30 END COLLECTION
M  V30 END CTAB
M  END
>  <Column 1>
1639

>  <level_0>
1794

>  <index>
1794

>  <Unnamed: 0>
1794

>  <NO.>
1806

>  <Name>
chlormezanone

>  <IUPAC_name>
2-(4-chlorophenyl)-3-methyl-1-1-dioxo-1-3-thiazinan-4-one

>  <SMILES>
CN1C(=O)CCS(=O)(=O)C1c1ccc(Cl)cc1

>  <CID>
2717

>  <logBB>


>  <BBB+/BBB->
BBB+

>  <Inchi>
InChI=1S/C11H12ClNO3S/c1-13-10(14)6-7-17(15-16)11(13)8-2-4-9(12)5-3-8/h2-5-11H-6-7H2-1H3

>  <threshold>
-1

>  <reference>
R1|R19|R6|R14|R23|R27|R27|R30|

>  <group>
B

>  <Class>
1

>  <ABC>
13.19

>  <ABCGG>
11.6

>  <nAcid>
0

>  <nBase>
0

>  <nAromAtom>
6

>  <nAromBond>
6

>  <nAtom>
29

>  <nHeavyAtom>
17

>  <nSpiro>
0

>  <nBridgehead>
0

>  <nHetero>
6

>  <nN>
1

>  <nO>
3

>  <nF>
0

>  <BalabanJ>
2.09

>  <BertzCT>
538.34

>  <nBonds>
30

>  <nBondsO>
18

>  <nBondsS>
21

>  <nBondsD>
3

>  <nBondsT>
0

>  <nBondsA>
6

>  <nBondsM>
9

>  <nBondsKS>
24

>  <nBondsKD>
6

>  <RNCG>
0.24

>  <RPCG>
0.17

>  <FCSP3>
0.36

>  <SZ>
23.67

>  <Sm>
22.79

>  <Sv>
19.43

>  <Sse>
29.82

>  <Sp>
20.93

>  <Si>
32.48

>  <MZ>
0.82

>  <Mm>
0.79

>  <Mv>
0.67

>  <Mse>
1.03

>  <Mp>
0.72

>  <Mi>
1.12

>  <NsCH3>
1

>  <NdCH2>
0

>  <NssCH2>
2

>  <NtCH>
0

>  <NdsCH>
0

>  <NaaCH>
4

>  <NsssCH>
1

>  <NddC>
0

>  <NtsC>
0

>  <NdssC>
1

>  <NaasC>
2

>  <NaaaC>
0

>  <NssssC>
0

>  <NsNH3>
0

>  <NsNH2>
0

>  <NssNH2>
0

>  <NdNH>
0

>  <NssNH>
0

>  <NaaNH>
0

>  <NtN>
0

>  <NsssNH>
0

>  <NdsN>
0

>  <NaaN>
0

>  <NsssN>
1

>  <NddsN>
0

>  <NaasN>
0

>  <NssssN>
0

>  <NsOH>
0

>  <NdO>
3

>  <NssO>
0

>  <NaaO>
0

>  <NsF>
0

>  <NsSiH3>
0

>  <NssSiH2>
0

>  <NsssSiH>
0

>  <NssssSi>
0

>  <NsPH2>
0

>  <NssPH>
0

>  <NsssP>
0

>  <NdsssP>
0

>  <NsssssP>
0

>  <NsSH>
0

>  <NdS>
0

>  <NssS>
0

>  <NaaS>
0

>  <NdssS>
0

>  <NddssS>
1

>  <NsCl>
1

>  <NsBr>
0

>  <NsI>
0

>  <fragCpx>
52.06

>  <fMF>
0.41

>  <nHBAcc>
3

>  <nHBDon>
0

>  <Kier1>
13.43

>  <Kier2>
4.94

>  <Lipinski>
1

>  <GhoseFilter>
1

>  <FilterItLogS>
-2.82

>  <VMcGowan>
183.11

>  <LabuteASA>
105.1

>  <PEOE_VSA1>
4.9

>  <PEOE_VSA2>
4.79

>  <PEOE_VSA3>
8.42

>  <PEOE_VSA4>
0

>  <PEOE_VSA5>
0

>  <PEOE_VSA6>
23.73

>  <PEOE_VSA7>
17.7

>  <PEOE_VSA8>
18.49

>  <PEOE_VSA9>
5.75

>  <PEOE_VSA10>
0

>  <PEOE_VSA11>
15.21

>  <PEOE_VSA12>
5.91

>  <PEOE_VSA13>
0

>  <SMR_VSA1>
13.21

>  <SMR_VSA2>
0

>  <SMR_VSA3>
4.9

>  <SMR_VSA4>
0

>  <SMR_VSA5>
11.79

>  <SMR_VSA6>
12.8

>  <SMR_VSA7>
34.85

>  <SMR_VSA8>
0

>  <SMR_VSA9>
0

>  <SlogP_VSA1>
0

>  <SlogP_VSA2>
32.03

>  <SlogP_VSA3>
14.63

>  <SlogP_VSA4>
0

>  <SlogP_VSA5>
17.36

>  <SlogP_VSA6>
24.27

>  <SlogP_VSA7>
5.02

>  <SlogP_VSA8>
0

>  <SlogP_VSA9>
0

>  <SlogP_VSA10>
0

>  <SlogP_VSA11>
0

>  <EState_VSA1>
15.21

>  <EState_VSA2>
18.08

>  <EState_VSA3>
10.59

>  <EState_VSA4>
0

>  <EState_VSA5>
11.95

>  <EState_VSA6>
24.27

>  <EState_VSA7>
0

>  <EState_VSA8>
0

>  <EState_VSA9>
11.6

>  <EState_VSA10>
13.21

>  <VSA_EState1>
23.99

>  <VSA_EState2>
12.85

>  <VSA_EState3>
-0.35

>  <VSA_EState4>
0.57

>  <VSA_EState5>
-0.25

>  <VSA_EState6>
6.53

>  <VSA_EState7>
0.06

>  <VSA_EState8>
0

>  <VSA_EState9>
-1.8

>  <apol>
34.96

>  <bpol>
21.78

>  <nRing>
2

>  <nHRing>
1

>  <naRing>
1

>  <naHRing>
0

>  <nARing 2>
1

>  <nAHRing 2>
1

>  <nFRing>
0

>  <nFHRing>
0

>  <nFaRing>
0

>  <nFaHRing>
0

>  <nFARing 2>
0

>  <nFAHRing 2>
0

>  <nRot>
1

>  <SLogP>
1.62

>  <SMR>
65.37

>  <TopoPSA(NO)>
54.45

>  <TopoPSA>
62.83

>  <JGI1>
0.28

>  <JGI2>
0.12

>  <JGI3>
0.07

>  <JGI4>
0.06

>  <JGI5>
0.02

>  <Diameter>
8

>  <Radius>
4

>  <TMWC10>
107.54

>  <TSRW10>
50.28

>  <MW>
273.02

>  <AMW>
9.41

>  <WPath>
478

>  <WPol>
28

>  <Zagreb1>
90

>  <Zagreb2>
106

>  <mZagreb2>
3.63

>  <yes>


>  <nAR-cont>
0.816016

>  <nHA-cont>
0.976740822

>  <MWHBN>
0.181561609

>  <MWHBN-cont>
0.98879309

>  <TPSA-cont>
0.561407585

>  <pka_cont>
0.97

>  <yes.1>


>  <BBB_SCORE>
4.883761627

>  <MMFF94 Energy>
58.838

$$$$
Compound 1364
Actelion Java MolfileCreator 2.0

  0  0  0  0  0  0              0 V3000
M  V30 BEGIN CTAB
M  V30 COUNTS 39 41 0 0 0
M  V30 BEGIN ATOM
M  V30 1 Cl -4.9986 -0.4024 -2.0133 0
M  V30 2 C -3.4669 0.2181 -1.5387 0
M  V30 3 C -2.5067 -0.6372 -1.0035 0
M  V30 4 C -3.1906 1.571 -1.6961 0
M  V30 5 C -1.2473 -0.1441 -0.6046 0
M  V30 6 C -1.9437 2.0707 -1.3157 0
M  V30 7 C -0.9656 1.2229 -0.7718 0
M  V30 8 C -0.2137 -1.1201 -0.0552 0 CFG=1
M  V30 9 N 0.2827 1.7699 -0.3838 0
M  V30 10 N 0.8411 -1.2765 -1.0673 0
M  V30 11 C 0.3007 -0.8327 1.3621 0
M  V30 12 C 1.5144 1.2152 -0.7152 0
M  V30 13 C 0.2724 2.9928 0.4086 0
M  V30 14 C 1.0279 -2.5262 -1.6067 0
M  V30 15 C 1.5457 -0.0789 -1.5406 0
M  V30 16 C -0.552 -0.2882 2.3415 0
M  V30 17 C 1.6049 -1.1846 1.7528 0
M  V30 18 O 2.577 1.8 -0.4742 0
M  V30 19 O 0.4375 -3.5373 -1.24 0
M  V30 20 N 1.9207 -2.6357 -2.6165 0
M  V30 21 C -0.0993 -0.0514 3.6418 0
M  V30 22 C 2.0569 -0.9463 3.053 0
M  V30 23 C 1.2071 -0.3742 3.9951 0
M  V30 24 H -2.7337 -1.6975 -0.9012 0
M  V30 25 H -3.9352 2.2407 -2.1185 0
M  V30 26 H -1.7416 3.1289 -1.4635 0
M  V30 27 H -0.723 -2.0852 0.0673 0
M  V30 28 H 1.1565 3.0443 1.0518 0
M  V30 29 H 0.2862 3.8527 -0.268 0
M  V30 30 H -0.6156 3.0304 1.0478 0
M  V30 31 H 1.1625 0.1528 -2.5423 0
M  V30 32 H 2.6037 -0.3434 -1.657 0
M  V30 33 H -1.5846 -0.0415 2.1038 0
M  V30 34 H 2.2881 -1.6545 1.0486 0
M  V30 35 H 2.0509 -3.5624 -2.9998 0
M  V30 36 H 2.4278 -1.8759 -3.0352 0
M  V30 37 H -0.7707 0.3784 4.3807 0
M  V30 38 H 3.0731 -1.2153 3.33 0
M  V30 39 H 1.5598 -0.1924 5.0067 0
M  V30 END ATOM
M  V30 BEGIN BOND
M  V30 1 1 1 2
M  V30 2 2 2 3
M  V30 3 1 2 4
M  V30 4 1 3 5
M  V30 5 2 4 6
M  V30 6 2 5 7
M  V30 7 1 5 8
M  V30 8 1 7 9
M  V30 9 1 8 10
M  V30 10 1 8 11
M  V30 11 1 9 12
M  V30 12 1 9 13
M  V30 13 1 10 14
M  V30 14 1 10 15
M  V30 15 2 11 16
M  V30 16 1 11 17
M  V30 17 2 12 18
M  V30 18 2 14 19
M  V30 19 1 14 20
M  V30 20 1 16 21
M  V30 21 2 17 22
M  V30 22 2 21 23
M  V30 23 1 6 7
M  V30 24 1 12 15
M  V30 25 1 22 23
M  V30 26 1 3 24
M  V30 27 1 4 25
M  V30 28 1 6 26
M  V30 29 1 8 27
M  V30 30 1 13 28
M  V30 31 1 13 29
M  V30 32 1 13 30
M  V30 33 1 15 31
M  V30 34 1 15 32
M  V30 35 1 16 33
M  V30 36 1 17 34
M  V30 37 1 20 35
M  V30 38 1 20 36
M  V30 39 1 21 37
M  V30 40 1 22 38
M  V30 41 1 23 39
M  V30 END BOND
M  V30 BEGIN COLLECTION
M  V30 MDLV30/STERAC1 ATOMS=(1 8)
M  V30 END COLLECTION
M  V30 END CTAB
M  END
>  <Column 1>
1640

>  <level_0>
1795

>  <index>
1795

>  <Unnamed: 0>
1795

>  <NO.>
1807

>  <Name>
carburazepam

>  <IUPAC_name>
7-chloro-1-methyl-2-oxo-5-phenyl-3-5-dihydro-1-4-benzodiazepine-4-carboxamide

>  <SMILES>
CN1C(=O)CN(C(N)=O)C(c2ccccc2)c2cc(Cl)ccc21

>  <CID>
68787

>  <logBB>


>  <BBB+/BBB->
BBB+

>  <Inchi>
InChI=1S/C17H16ClN3O2/c1-20-14-8-7-12(18)9-13(14)16(11-5-3-2-4-6-11)21(17(19)23)10-15(20)22/h2-9-16H-10H2-1H3-(H2-19-23)

>  <threshold>
-1

>  <reference>
R1|R19|R6|R27|R27|R30|

>  <group>
B

>  <Class>
1

>  <ABC>
17.94

>  <ABCGG>
15.22

>  <nAcid>
0

>  <nBase>
0

>  <nAromAtom>
12

>  <nAromBond>
12

>  <nAtom>
39

>  <nHeavyAtom>
23

>  <nSpiro>
0

>  <nBridgehead>
0

>  <nHetero>
6

>  <nN>
3

>  <nO>
2

>  <nF>
0

>  <BalabanJ>
1.93

>  <BertzCT>
763.69

>  <nBonds>
41

>  <nBondsO>
25

>  <nBondsS>
27

>  <nBondsD>
2

>  <nBondsT>
0

>  <nBondsA>
12

>  <nBondsM>
14

>  <nBondsKS>
33

>  <nBondsKD>
8

>  <RNCG>
0.17

>  <RPCG>
0.16

>  <FCSP3>
0.18

>  <SZ>
28.67

>  <Sm>
27.46

>  <Sv>
26.13

>  <Sse>
39.52

>  <Sp>
27.63

>  <Si>
43.76

>  <MZ>
0.74

>  <Mm>
0.7

>  <Mv>
0.67

>  <Mse>
1.01

>  <Mp>
0.71

>  <Mi>
1.12

>  <NsCH3>
1

>  <NdCH2>
0

>  <NssCH2>
1

>  <NtCH>
0

>  <NdsCH>
0

>  <NaaCH>
8

>  <NsssCH>
1

>  <NddC>
0

>  <NtsC>
0

>  <NdssC>
2

>  <NaasC>
4

>  <NaaaC>
0

>  <NssssC>
0

>  <NsNH3>
0

>  <NsNH2>
1

>  <NssNH2>
0

>  <NdNH>
0

>  <NssNH>
0

>  <NaaNH>
0

>  <NtN>
0

>  <NsssNH>
0

>  <NdsN>
0

>  <NaaN>
0

>  <NsssN>
2

>  <NddsN>
0

>  <NaasN>
0

>  <NssssN>
0

>  <NsOH>
0

>  <NdO>
2

>  <NssO>
0

>  <NaaO>
0

>  <NsF>
0

>  <NsSiH3>
0

>  <NssSiH2>
0

>  <NsssSiH>
0

>  <NssssSi>
0

>  <NsPH2>
0

>  <NssPH>
0

>  <NsssP>
0

>  <NdsssP>
0

>  <NsssssP>
0

>  <NsSH>
0

>  <NdS>
0

>  <NssS>
0

>  <NaaS>
0

>  <NdssS>
0

>  <NddssS>
0

>  <NsCl>
1

>  <NsBr>
0

>  <NsI>
0

>  <fragCpx>
119.06

>  <fMF>
0.44

>  <nHBAcc>
2

>  <nHBDon>
1

>  <Kier1>
17.81

>  <Kier2>
7.49

>  <Lipinski>
1

>  <GhoseFilter>
1

>  <FilterItLogS>
-3.43

>  <VMcGowan>
237.33

>  <LabuteASA>
138.79

>  <PEOE_VSA1>
15.53

>  <PEOE_VSA2>
4.79

>  <PEOE_VSA3>
4.79

>  <PEOE_VSA4>
0

>  <PEOE_VSA5>
0

>  <PEOE_VSA6>
41.93

>  <PEOE_VSA7>
23.76

>  <PEOE_VSA8>
23.32

>  <PEOE_VSA9>
6.04

>  <PEOE_VSA10>
6.54

>  <PEOE_VSA11>
0

>  <PEOE_VSA12>
5.91

>  <PEOE_VSA13>
0

>  <SMR_VSA1>
9.59

>  <SMR_VSA2>
0

>  <SMR_VSA3>
4.9

>  <SMR_VSA4>
5.73

>  <SMR_VSA5>
6.04

>  <SMR_VSA6>
18.49

>  <SMR_VSA7>
64.68

>  <SMR_VSA8>
0

>  <SMR_VSA9>
0

>  <SlogP_VSA1>
10.63

>  <SlogP_VSA2>
30.43

>  <SlogP_VSA3>
4.79

>  <SlogP_VSA4>
0

>  <SlogP_VSA5>
17.17

>  <SlogP_VSA6>
48.53

>  <SlogP_VSA7>
5.02

>  <SlogP_VSA8>
0

>  <SlogP_VSA9>
0

>  <SlogP_VSA10>
10.48

>  <SlogP_VSA11>
0

>  <EState_VSA1>
12.07

>  <EState_VSA2>
12.45

>  <EState_VSA3>
5.02

>  <EState_VSA4>
16.81

>  <EState_VSA5>
9.8

>  <EState_VSA6>
25.25

>  <EState_VSA7>
30.33

>  <EState_VSA8>
0

>  <EState_VSA9>
17.33

>  <EState_VSA10>
9.59

>  <VSA_EState1>
0

>  <VSA_EState2>
27.28

>  <VSA_EState3>
0.54

>  <VSA_EState4>
7.92

>  <VSA_EState5>
-0.2

>  <VSA_EState6>
13.66

>  <VSA_EState7>
0

>  <VSA_EState8>
-0.09

>  <VSA_EState9>
1.68

>  <apol>
46.14

>  <bpol>
21.15

>  <nRing>
3

>  <nHRing>
1

>  <naRing>
2

>  <naHRing>
0

>  <nARing 2>
1

>  <nAHRing 2>
1

>  <nFRing>
1

>  <nFHRing>
1

>  <nFaRing>
0

>  <nFaHRing>
0

>  <nFARing 2>
1

>  <nFAHRing 2>
1

>  <nRot>
1

>  <SLogP>
2.79

>  <SMR>
89.44

>  <TopoPSA(NO)>
66.64

>  <TopoPSA>
66.64

>  <JGI1>
0.18

>  <JGI2>
0.08

>  <JGI3>
0.05

>  <JGI4>
0.05

>  <JGI5>
0.03

>  <Diameter>
8

>  <Radius>
4

>  <TMWC10>
123.64

>  <TSRW10>
65.75

>  <MW>
329.09

>  <AMW>
8.44

>  <WPath>
1013

>  <WPol>
43

>  <Zagreb1>
122

>  <Zagreb2>
146

>  <mZagreb2>
5.03

>  <yes>


>  <nAR-cont>
0.816016

>  <nHA-cont>
0.967789328

>  <MWHBN>
0.165372736

>  <MWHBN-cont>
0.966198138

>  <TPSA-cont>
0.534811419

>  <pka_cont>
0.97

>  <yes.1>


>  <BBB_SCORE>
4.787725374

>  <MMFF94 Energy>
-27.679

$$$$
Compound 1365
Actelion Java MolfileCreator 2.0

  0  0  0  0  0  0              0 V3000
M  V30 BEGIN CTAB
M  V30 COUNTS 39 42 0 0 0
M  V30 BEGIN ATOM
M  V30 1 Cl -0.7324 -1.9541 -4.1559 0
M  V30 2 C -0.5858 -2.0297 -2.4436 0
M  V30 3 C -0.3769 -0.8599 -1.714 0
M  V30 4 C -0.6719 -3.2586 -1.7982 0
M  V30 5 C -0.2631 -0.9001 -0.3109 0
M  V30 6 C -0.535 -3.3225 -0.4112 0
M  V30 7 C -0.3212 -2.155 0.3351 0
M  V30 8 C -0.0421 0.3623 0.5292 0 CFG=1
M  V30 9 N -0.1245 -2.2495 1.7388 0
M  V30 10 N 1.3462 0.4714 1.0405 0
M  V30 11 C -0.5425 1.656 -0.1215 0
M  V30 12 C 0.9209 -1.595 2.4017 0
M  V30 13 C -1.0561 -3.0537 2.514 0
M  V30 14 C 1.9067 -0.8097 1.5223 0
M  V30 15 C 2.2397 1.075 0.0452 0
M  V30 16 C 0.3538 2.6571 -0.5377 0
M  V30 17 C -1.9214 1.8486 -0.3277 0
M  V30 18 O 1.0776 -1.6642 3.6229 0
M  V30 19 C 1.8274 2.5176 -0.2613 0
M  V30 20 C -0.1339 3.8225 -1.1455 0
M  V30 21 C -2.3957 3.007 -0.9427 0
M  V30 22 C -1.5021 3.9922 -1.3527 0
M  V30 23 H -0.3061 0.0858 -2.2471 0
M  V30 24 H -0.8301 -4.1704 -2.368 0
M  V30 25 H -0.5701 -4.2949 0.0731 0
M  V30 26 H -0.6854 0.2746 1.4178 0
M  V30 27 H -1.1035 -2.7066 3.5505 0
M  V30 28 H -0.7111 -4.0921 2.5139 0
M  V30 29 H -2.061 -2.992 2.0844 0
M  V30 30 H 2.7898 -0.5988 2.1382 0
M  V30 31 H 2.2473 -1.4544 0.7021 0
M  V30 32 H 3.2697 1.0964 0.4229 0
M  V30 33 H 2.2549 0.4837 -0.8795 0
M  V30 34 H -2.6334 1.0892 -0.0109 0
M  V30 35 H 2.0752 3.1579 0.5947 0
M  V30 36 H 2.4037 2.8737 -1.1234 0
M  V30 37 H 0.5519 4.6089 -1.4521 0
M  V30 38 H -3.4629 3.1424 -1.0979 0
M  V30 39 H -1.8713 4.8986 -1.825 0
M  V30 END ATOM
M  V30 BEGIN BOND
M  V30 1 1 1 2
M  V30 2 2 2 3
M  V30 3 1 2 4
M  V30 4 1 3 5
M  V30 5 2 4 6
M  V30 6 2 5 7
M  V30 7 1 5 8
M  V30 8 1 7 9
M  V30 9 1 8 10
M  V30 10 1 8 11
M  V30 11 1 9 12
M  V30 12 1 9 13
M  V30 13 1 10 14
M  V30 14 1 10 15
M  V30 15 2 11 16
M  V30 16 1 11 17
M  V30 17 2 12 18
M  V30 18 1 15 19
M  V30 19 1 16 20
M  V30 20 2 17 21
M  V30 21 2 20 22
M  V30 22 1 6 7
M  V30 23 1 12 14
M  V30 24 1 16 19
M  V30 25 1 21 22
M  V30 26 1 3 23
M  V30 27 1 4 24
M  V30 28 1 6 25
M  V30 29 1 8 26
M  V30 30 1 13 27
M  V30 31 1 13 28
M  V30 32 1 13 29
M  V30 33 1 14 30
M  V30 34 1 14 31
M  V30 35 1 15 32
M  V30 36 1 15 33
M  V30 37 1 17 34
M  V30 38 1 19 35
M  V30 39 1 19 36
M  V30 40 1 20 37
M  V30 41 1 21 38
M  V30 42 1 22 39
M  V30 END BOND
M  V30 BEGIN COLLECTION
M  V30 MDLV30/STERAC1 ATOMS=(1 8)
M  V30 END COLLECTION
M  V30 END CTAB
M  END
>  <Column 1>
1641

>  <level_0>
1796

>  <index>
1796

>  <Unnamed: 0>
1796

>  <NO.>
1808

>  <Name>
clazolam

>  <IUPAC_name>
2-chloro-5-methyl-7-9-10-14b-tetrahydroisoquinolino[2-1-d][1-4]benzodiazepin-6-one

>  <SMILES>
CN1C(=O)CN2CCc3ccccc3C2c2cc(Cl)ccc21

>  <CID>
24107

>  <logBB>


>  <BBB+/BBB->
BBB+

>  <Inchi>
InChI=1S/C18H17ClN2O/c1-20-16-7-6-13(19)10-15(16)18-14-5-3-2-4-12(14)8-9-21(18)11-17(20)22/h2-7-10-18H-8-9-11H2-1H3

>  <threshold>
-1

>  <reference>
R1|R19|R6|R27|R27|R30|

>  <group>
B

>  <Class>
1

>  <ABC>
17.72

>  <ABCGG>
13.9

>  <nAcid>
0

>  <nBase>
1

>  <nAromAtom>
12

>  <nAromBond>
12

>  <nAtom>
39

>  <nHeavyAtom>
22

>  <nSpiro>
0

>  <nBridgehead>
0

>  <nHetero>
4

>  <nN>
2

>  <nO>
1

>  <nF>
0

>  <BalabanJ>
1.66

>  <BertzCT>
758.5

>  <nBonds>
42

>  <nBondsO>
25

>  <nBondsS>
29

>  <nBondsD>
1

>  <nBondsT>
0

>  <nBondsA>
12

>  <nBondsM>
13

>  <nBondsKS>
35

>  <nBondsKD>
7

>  <RNCG>
0.23

>  <RPCG>
0.17

>  <FCSP3>
0.28

>  <SZ>
27.33

>  <Sm>
26.04

>  <Sv>
25.93

>  <Sse>
38.97

>  <Sp>
27.89

>  <Si>
43.47

>  <MZ>
0.7

>  <Mm>
0.67

>  <Mv>
0.66

>  <Mse>
1

>  <Mp>
0.72

>  <Mi>
1.11

>  <NsCH3>
1

>  <NdCH2>
0

>  <NssCH2>
3

>  <NtCH>
0

>  <NdsCH>
0

>  <NaaCH>
7

>  <NsssCH>
1

>  <NddC>
0

>  <NtsC>
0

>  <NdssC>
1

>  <NaasC>
5

>  <NaaaC>
0

>  <NssssC>
0

>  <NsNH3>
0

>  <NsNH2>
0

>  <NssNH2>
0

>  <NdNH>
0

>  <NssNH>
0

>  <NaaNH>
0

>  <NtN>
0

>  <NsssNH>
0

>  <NdsN>
0

>  <NaaN>
0

>  <NsssN>
2

>  <NddsN>
0

>  <NaasN>
0

>  <NssssN>
0

>  <NsOH>
0

>  <NdO>
1

>  <NssO>
0

>  <NaaO>
0

>  <NsF>
0

>  <NsSiH3>
0

>  <NssSiH2>
0

>  <NsssSiH>
0

>  <NssssSi>
0

>  <NsPH2>
0

>  <NssPH>
0

>  <NsssP>
0

>  <NdsssP>
0

>  <NsssssP>
0

>  <NsSH>
0

>  <NdS>
0

>  <NssS>
0

>  <NaaS>
0

>  <NdssS>
0

>  <NddssS>
0

>  <NsCl>
1

>  <NsBr>
0

>  <NsI>
0

>  <fragCpx>
163.04

>  <fMF>
0.49

>  <nHBAcc>
2

>  <nHBDon>
0

>  <Kier1>
15.52

>  <Kier2>
6.14

>  <Lipinski>
1

>  <GhoseFilter>
1

>  <FilterItLogS>
-4.55

>  <VMcGowan>
229.01

>  <LabuteASA>
134.65

>  <PEOE_VSA1>
4.9

>  <PEOE_VSA2>
9.69

>  <PEOE_VSA3>
0

>  <PEOE_VSA4>
0

>  <PEOE_VSA5>
0

>  <PEOE_VSA6>
35.87

>  <PEOE_VSA7>
41.31

>  <PEOE_VSA8>
24.3

>  <PEOE_VSA9>
12.59

>  <PEOE_VSA10>
0

>  <PEOE_VSA11>
0

>  <PEOE_VSA12>
5.91

>  <PEOE_VSA13>
0

>  <SMR_VSA1>
4.79

>  <SMR_VSA2>
0

>  <SMR_VSA3>
4.9

>  <SMR_VSA4>
0

>  <SMR_VSA5>
12.46

>  <SMR_VSA6>
25.04

>  <SMR_VSA7>
64.18

>  <SMR_VSA8>
0

>  <SMR_VSA9>
0

>  <SlogP_VSA1>
4.9

>  <SlogP_VSA2>
30.94

>  <SlogP_VSA3>
11.22

>  <SlogP_VSA4>
0

>  <SlogP_VSA5>
22.73

>  <SlogP_VSA6>
42.46

>  <SlogP_VSA7>
5.02

>  <SlogP_VSA8>
0

>  <SlogP_VSA9>
0

>  <SlogP_VSA10>
5.69

>  <SlogP_VSA11>
0

>  <EState_VSA1>
0

>  <EState_VSA2>
11.95

>  <EState_VSA3>
11.57

>  <EState_VSA4>
24.22

>  <EState_VSA5>
11.13

>  <EState_VSA6>
4.9

>  <EState_VSA7>
25.25

>  <EState_VSA8>
29.17

>  <EState_VSA9>
11.6

>  <EState_VSA10>
4.79

>  <VSA_EState1>
0

>  <VSA_EState2>
16.5

>  <VSA_EState3>
0.71

>  <VSA_EState4>
4.73

>  <VSA_EState5>
0.13

>  <VSA_EState6>
14.44

>  <VSA_EState7>
0.99

>  <VSA_EState8>
1.34

>  <VSA_EState9>
1.85

>  <apol>
46.58

>  <bpol>
21.85

>  <nRing>
4

>  <nHRing>
2

>  <naRing>
2

>  <naHRing>
0

>  <nARing 2>
2

>  <nAHRing 2>
2

>  <nFRing>
1

>  <nFHRing>
1

>  <nFaRing>
0

>  <nFaHRing>
0

>  <nFARing 2>
1

>  <nFAHRing 2>
1

>  <nRot>
0

>  <SLogP>
3.26

>  <SMR>
88.42

>  <TopoPSA(NO)>
23.55

>  <TopoPSA>
23.55

>  <JGI1>
0.16

>  <JGI2>
0.08

>  <JGI3>
0.04

>  <JGI4>
0.05

>  <JGI5>
0.02

>  <Diameter>
8

>  <Radius>
4

>  <TMWC10>
123.36

>  <TSRW10>
65.04

>  <MW>
312.1

>  <AMW>
8

>  <WPath>
885

>  <WPol>
44

>  <Zagreb1>
124

>  <Zagreb2>
152

>  <mZagreb2>
4.69

>  <yes>


>  <nAR-cont>
1

>  <nHA-cont>
0.983774276

>  <MWHBN>
0.113209562

>  <MWHBN-cont>
0.798683838

>  <TPSA-cont>
0.835606376

>  <pka_cont>
0.97

>  <yes.1>


>  <BBB_SCORE>
5.338012786

>  <MMFF94 Energy>
96.228

$$$$
Compound 1366
Actelion Java MolfileCreator 2.0

  0  0  0  0  0  0              0 V3000
M  V30 BEGIN CTAB
M  V30 COUNTS 37 39 0 0 0
M  V30 BEGIN ATOM
M  V30 1 Cl -4.4534 0.8894 1.3749 0
M  V30 2 C -3.1029 -0.1553 1.1737 0
M  V30 3 C -1.8398 0.3821 0.9478 0
M  V30 4 C -3.2782 -1.533 1.2435 0
M  V30 5 C -0.7347 -0.4688 0.7738 0
M  V30 6 C -2.1784 -2.3818 1.0917 0
M  V30 7 C 0.5992 0.1541 0.543 0
M  V30 8 C -0.8929 -1.8641 0.8589 0
M  V30 9 N 1.6737 -0.1749 1.1819 0
M  V30 10 C 0.6906 1.2511 -0.4829 0
M  V30 11 N 0.1975 -2.7682 0.7312 0
M  V30 12 C 1.5995 -1.278 2.144 0
M  V30 13 C -0.0279 1.2102 -1.6206 0
M  V30 14 C 1.6628 2.3634 -0.18 0
M  V30 15 C 1.4194 -2.5878 1.3836 0
M  V30 16 C 0.0144 -3.9776 -0.0561 0
M  V30 17 C 0.0639 2.2623 -2.6892 0
M  V30 18 C 1.4489 3.5976 -1.0602 0
M  V30 19 O 2.3061 -3.4453 1.3742 0
M  V30 20 C 1.2589 3.2015 -2.5202 0
M  V30 21 H -1.7146 1.4619 0.9151 0
M  V30 22 H -4.2635 -1.9548 1.4278 0
M  V30 23 H -2.3394 -3.4539 1.1807 0
M  V30 24 H 2.5492 -1.3274 2.6879 0
M  V30 25 H 0.814 -1.1387 2.895 0
M  V30 26 H -0.7027 0.3851 -1.8328 0
M  V30 27 H 1.5737 2.6677 0.8698 0
M  V30 28 H 2.6841 1.9898 -0.3256 0
M  V30 29 H -0.6682 -3.7919 -0.8914 0
M  V30 30 H 0.9699 -4.3192 -0.4662 0
M  V30 31 H -0.3837 -4.7657 0.5904 0
M  V30 32 H -0.8662 2.8433 -2.6781 0
M  V30 33 H 0.1273 1.7788 -3.6707 0
M  V30 34 H 2.3063 4.273 -0.9621 0
M  V30 35 H 0.5659 4.1499 -0.7135 0
M  V30 36 H 2.1687 2.7058 -2.8825 0
M  V30 37 H 1.1167 4.0949 -3.1388 0
M  V30 END ATOM
M  V30 BEGIN BOND
M  V30 1 1 1 2
M  V30 2 2 2 3
M  V30 3 1 2 4
M  V30 4 1 3 5
M  V30 5 2 4 6
M  V30 6 1 5 7
M  V30 7 2 5 8
M  V30 8 2 7 9
M  V30 9 1 7 10
M  V30 10 1 8 11
M  V30 11 1 9 12
M  V30 12 2 10 13
M  V30 13 1 10 14
M  V30 14 1 11 15
M  V30 15 1 11 16
M  V30 16 1 13 17
M  V30 17 1 14 18
M  V30 18 2 15 19
M  V30 19 1 17 20
M  V30 20 1 6 8
M  V30 21 1 12 15
M  V30 22 1 18 20
M  V30 23 1 3 21
M  V30 24 1 4 22
M  V30 25 1 6 23
M  V30 26 1 12 24
M  V30 27 1 12 25
M  V30 28 1 13 26
M  V30 29 1 14 27
M  V30 30 1 14 28
M  V30 31 1 16 29
M  V30 32 1 16 30
M  V30 33 1 16 31
M  V30 34 1 17 32
M  V30 35 1 17 33
M  V30 36 1 18 34
M  V30 37 1 18 35
M  V30 38 1 20 36
M  V30 39 1 20 37
M  V30 END BOND
M  V30 END CTAB
M  END
>  <Column 1>
1642

>  <level_0>
1797

>  <index>
1797

>  <Unnamed: 0>
1797

>  <NO.>
1809

>  <Name>
tetrazepam

>  <IUPAC_name>
7-chloro-5-(cyclohexen-1-yl)-1-methyl-3h-1-4-benzodiazepin-2-one

>  <SMILES>
CN1C(=O)CN=C(C2=CCCCC2)c2cc(Cl)ccc21

>  <CID>
25215

>  <logBB>


>  <BBB+/BBB->
BBB+

>  <Inchi>
InChI=1S/C16H17ClN2O/c1-19-14-8-7-12(17)9-13(14)16(18-10-15(19)20)11-5-3-2-4-6-11/h5-7-9H-2-4-6-10H2-1H3

>  <threshold>
-1

>  <reference>
R1|R13|R19|R6|R23|R24|R27|R27|R27|R30|R30|

>  <group>
B

>  <Class>
1

>  <ABC>
15.68

>  <ABCGG>
12.96

>  <nAcid>
0

>  <nBase>
0

>  <nAromAtom>
6

>  <nAromBond>
6

>  <nAtom>
37

>  <nHeavyAtom>
20

>  <nSpiro>
0

>  <nBridgehead>
0

>  <nHetero>
4

>  <nN>
2

>  <nO>
1

>  <nF>
0

>  <BalabanJ>
1.79

>  <BertzCT>
618.9

>  <nBonds>
39

>  <nBondsO>
22

>  <nBondsS>
30

>  <nBondsD>
3

>  <nBondsT>
0

>  <nBondsA>
6

>  <nBondsM>
9

>  <nBondsKS>
33

>  <nBondsKD>
6

>  <RNCG>
0.24

>  <RPCG>
0.19

>  <FCSP3>
0.38

>  <SZ>
25.33

>  <Sm>
24.04

>  <Sv>
23.93

>  <Sse>
36.97

>  <Sp>
25.89

>  <Si>
41.47

>  <MZ>
0.68

>  <Mm>
0.65

>  <Mv>
0.65

>  <Mse>
1

>  <Mp>
0.7

>  <Mi>
1.12

>  <NsCH3>
1

>  <NdCH2>
0

>  <NssCH2>
5

>  <NtCH>
0

>  <NdsCH>
1

>  <NaaCH>
3

>  <NsssCH>
0

>  <NddC>
0

>  <NtsC>
0

>  <NdssC>
3

>  <NaasC>
3

>  <NaaaC>
0

>  <NssssC>
0

>  <NsNH3>
0

>  <NsNH2>
0

>  <NssNH2>
0

>  <NdNH>
0

>  <NssNH>
0

>  <NaaNH>
0

>  <NtN>
0

>  <NsssNH>
0

>  <NdsN>
1

>  <NaaN>
0

>  <NsssN>
1

>  <NddsN>
0

>  <NaasN>
0

>  <NssssN>
0

>  <NsOH>
0

>  <NdO>
1

>  <NssO>
0

>  <NaaO>
0

>  <NsF>
0

>  <NsSiH3>
0

>  <NssSiH2>
0

>  <NsssSiH>
0

>  <NssssSi>
0

>  <NsPH2>
0

>  <NssPH>
0

>  <NsssP>
0

>  <NdsssP>
0

>  <NsssssP>
0

>  <NsSH>
0

>  <NdS>
0

>  <NssS>
0

>  <NaaS>
0

>  <NdssS>
0

>  <NddssS>
0

>  <NsCl>
1

>  <NsBr>
0

>  <NsI>
0

>  <fragCpx>
104.04

>  <fMF>
0.46

>  <nHBAcc>
2

>  <nHBDon>
0

>  <Kier1>
14.92

>  <Kier2>
6.41

>  <Lipinski>
1

>  <GhoseFilter>
1

>  <FilterItLogS>
-4.45

>  <VMcGowan>
215.99

>  <LabuteASA>
123.5

>  <PEOE_VSA1>
4.9

>  <PEOE_VSA2>
9.79

>  <PEOE_VSA3>
0

>  <PEOE_VSA4>
0

>  <PEOE_VSA5>
0

>  <PEOE_VSA6>
17.68

>  <PEOE_VSA7>
49.46

>  <PEOE_VSA8>
17.63

>  <PEOE_VSA9>
11.4

>  <PEOE_VSA10>
6.54

>  <PEOE_VSA11>
0

>  <PEOE_VSA12>
5.91

>  <PEOE_VSA13>
0

>  <SMR_VSA1>
4.79

>  <SMR_VSA2>
0

>  <SMR_VSA3>
0

>  <SMR_VSA4>
4.99

>  <SMR_VSA5>
25.68

>  <SMR_VSA6>
18.49

>  <SMR_VSA7>
40.43

>  <SMR_VSA8>
0

>  <SMR_VSA9>
0

>  <SlogP_VSA1>
4.9

>  <SlogP_VSA2>
25.21

>  <SlogP_VSA3>
4.79

>  <SlogP_VSA4>
0

>  <SlogP_VSA5>
31.25

>  <SlogP_VSA6>
34.84

>  <SlogP_VSA7>
5.02

>  <SlogP_VSA8>
0

>  <SlogP_VSA9>
0

>  <SlogP_VSA10>
5.69

>  <SlogP_VSA11>
0

>  <EState_VSA1>
0

>  <EState_VSA2>
12.45

>  <EState_VSA3>
5.02

>  <EState_VSA4>
29.8

>  <EState_VSA5>
18.41

>  <EState_VSA6>
11.95

>  <EState_VSA7>
18.2

>  <EState_VSA8>
11.07

>  <EState_VSA9>
11.6

>  <EState_VSA10>
4.79

>  <VSA_EState1>
0

>  <VSA_EState2>
18.29

>  <VSA_EState3>
0.68

>  <VSA_EState4>
4.06

>  <VSA_EState5>
0.01

>  <VSA_EState6>
5.64

>  <VSA_EState7>
6.79

>  <VSA_EState8>
0.2

>  <VSA_EState9>
1.79

>  <apol>
43.24

>  <bpol>
21.28

>  <nRing>
3

>  <nHRing>
1

>  <naRing>
1

>  <naHRing>
0

>  <nARing 2>
2

>  <nAHRing 2>
1

>  <nFRing>
1

>  <nFHRing>
1

>  <nFaRing>
0

>  <nFaHRing>
0

>  <nFARing 2>
1

>  <nFAHRing 2>
1

>  <nRot>
1

>  <SLogP>
3.61

>  <SMR>
82.82

>  <TopoPSA(NO)>
32.67

>  <TopoPSA>
32.67

>  <JGI1>
0.16

>  <JGI2>
0.09

>  <JGI3>
0.05

>  <JGI4>
0.04

>  <JGI5>
0.03

>  <Diameter>
8

>  <Radius>
4

>  <TMWC10>
115.85

>  <TSRW10>
61.88

>  <MW>
288.1

>  <AMW>
7.79

>  <WPath>
726

>  <WPol>
36

>  <Zagreb1>
106

>  <Zagreb2>
126

>  <mZagreb2>
4.39

>  <yes>


>  <nAR-cont>
1

>  <nHA-cont>
0.999629945

>  <MWHBN>
0.117830675

>  <MWHBN-cont>
0.819877708

>  <TPSA-cont>
0.771943113

>  <pka_cont>
0.97

>  <yes.1>


>  <BBB_SCORE>
5.258332733

>  <MMFF94 Energy>
81.97

$$$$
Compound 1367
Actelion Java MolfileCreator 2.0

  0  0  0  0  0  0              0 V3000
M  V30 BEGIN CTAB
M  V30 COUNTS 39 41 0 0 0
M  V30 BEGIN ATOM
M  V30 1 O -1.3658 -4.827 1.8482 0
M  V30 2 N -0.5508 -3.9212 1.6271 0 CHG=1
M  V30 3 O 0.5792 -3.8502 2.1285 0 CHG=-1
M  V30 4 C -0.9556 -2.8498 0.7081 0
M  V30 5 C -0.0401 -1.8519 0.3581 0
M  V30 6 C -2.252 -2.8358 0.1863 0
M  V30 7 C -0.4318 -0.8191 -0.5121 0
M  V30 8 C -2.6292 -1.8173 -0.6942 0
M  V30 9 C 0.5789 0.2156 -0.865 0
M  V30 10 C -1.7292 -0.7997 -1.0577 0
M  V30 11 N 0.8205 0.6184 -2.0683 0
M  V30 12 C 1.3387 0.8172 0.2808 0
M  V30 13 N -2.1617 0.2015 -1.9701 0
M  V30 14 C 0.0168 0.0662 -3.1615 0
M  V30 15 C 2.6591 1.0179 0.1232 0
M  V30 16 C 0.5913 1.2459 1.5149 0
M  V30 17 C -1.3993 0.6227 -3.063 0
M  V30 18 C -3.4935 0.766 -1.8109 0
M  V30 19 C 3.5266 1.6506 1.1714 0
M  V30 20 C 1.3828 2.2469 2.3624 0
M  V30 21 O -1.8454 1.3854 -3.9234 0
M  V30 22 C 2.8318 1.7973 2.527 0
M  V30 23 H 0.9773 -1.8762 0.7459 0
M  V30 24 H -2.9747 -3.609 0.4425 0
M  V30 25 H -3.6348 -1.8437 -1.1104 0
M  V30 26 H 0.0161 -1.029 -3.1811 0
M  V30 27 H 0.4488 0.3983 -4.1117 0
M  V30 28 H 3.1486 0.7417 -0.809 0
M  V30 29 H -0.3666 1.7019 1.2384 0
M  V30 30 H 0.3681 0.3656 2.1287 0
M  V30 31 H -4.2085 0.1519 -2.3669 0
M  V30 32 H -3.7699 0.8048 -0.7525 0
M  V30 33 H -3.5309 1.7844 -2.2103 0
M  V30 34 H 3.8355 2.6386 0.8093 0
M  V30 35 H 4.4384 1.0562 1.2985 0
M  V30 36 H 0.9086 2.3534 3.3446 0
M  V30 37 H 1.3581 3.2356 1.8867 0
M  V30 38 H 2.8546 0.836 3.0561 0
M  V30 39 H 3.3814 2.514 3.1476 0
M  V30 END ATOM
M  V30 BEGIN BOND
M  V30 1 2 1 2
M  V30 2 1 2 3
M  V30 3 1 2 4
M  V30 4 2 4 5
M  V30 5 1 4 6
M  V30 6 1 5 7
M  V30 7 2 6 8
M  V30 8 1 7 9
M  V30 9 2 7 10
M  V30 10 2 9 11
M  V30 11 1 9 12
M  V30 12 1 10 13
M  V30 13 1 11 14
M  V30 14 2 12 15
M  V30 15 1 12 16
M  V30 16 1 13 17
M  V30 17 1 13 18
M  V30 18 1 15 19
M  V30 19 1 16 20
M  V30 20 2 17 21
M  V30 21 1 19 22
M  V30 22 1 8 10
M  V30 23 1 14 17
M  V30 24 1 20 22
M  V30 25 1 5 23
M  V30 26 1 6 24
M  V30 27 1 8 25
M  V30 28 1 14 26
M  V30 29 1 14 27
M  V30 30 1 15 28
M  V30 31 1 16 29
M  V30 32 1 16 30
M  V30 33 1 18 31
M  V30 34 1 18 32
M  V30 35 1 18 33
M  V30 36 1 19 34
M  V30 37 1 19 35
M  V30 38 1 20 36
M  V30 39 1 20 37
M  V30 40 1 22 38
M  V30 41 1 22 39
M  V30 END BOND
M  V30 END CTAB
M  END
>  <Column 1>
1643

>  <level_0>
1798

>  <index>
1798

>  <Unnamed: 0>
1798

>  <NO.>
1810

>  <Name>
menitrazepam

>  <IUPAC_name>
5-(cyclohexen-1-yl)-1-methyl-7-nitro-3h-1-4-benzodiazepin-2-one

>  <SMILES>
CN1C(=O)CN=C(C2=CCCCC2)c2cc([N+](=O)[O-])ccc21

>  <CID>
189875

>  <logBB>


>  <BBB+/BBB->
BBB+

>  <Inchi>
InChI=1S/C16H17N3O3/c1-18-14-8-7-12(19(21)22)9-13(14)16(17-10-15(18)20)11-5-3-2-4-6-11/h5-7-9H-2-4-6-10H2-1H3

>  <threshold>
-1

>  <reference>
R1|R13|R19|R6|R24|R27|R27|R27|R30|R30|

>  <group>
B

>  <Class>
1

>  <ABC>
17.17

>  <ABCGG>
14.16

>  <nAcid>
0

>  <nBase>
0

>  <nAromAtom>
6

>  <nAromBond>
6

>  <nAtom>
39

>  <nHeavyAtom>
22

>  <nSpiro>
0

>  <nBridgehead>
0

>  <nHetero>
6

>  <nN>
3

>  <nO>
3

>  <nF>
0

>  <BalabanJ>
1.8

>  <BertzCT>
706.59

>  <nBonds>
41

>  <nBondsO>
24

>  <nBondsS>
31

>  <nBondsD>
4

>  <nBondsT>
0

>  <nBondsA>
6

>  <nBondsM>
10

>  <nBondsKS>
34

>  <nBondsKD>
7

>  <RNCG>
0.19

>  <RPCG>
0.16

>  <FCSP3>
0.38

>  <SZ>
26.33

>  <Sm>
24.92

>  <Sv>
25.02

>  <Sse>
39.53

>  <Sp>
26.2

>  <Si>
44.03

>  <MZ>
0.68

>  <Mm>
0.64

>  <Mv>
0.64

>  <Mse>
1.01

>  <Mp>
0.67

>  <Mi>
1.13

>  <NsCH3>
1

>  <NdCH2>
0

>  <NssCH2>
5

>  <NtCH>
0

>  <NdsCH>
1

>  <NaaCH>
3

>  <NsssCH>
0

>  <NddC>
0

>  <NtsC>
0

>  <NdssC>
3

>  <NaasC>
3

>  <NaaaC>
0

>  <NssssC>
0

>  <NsNH3>
0

>  <NsNH2>
0

>  <NssNH2>
0

>  <NdNH>
0

>  <NssNH>
0

>  <NaaNH>
0

>  <NtN>
0

>  <NsssNH>
0

>  <NdsN>
1

>  <NaaN>
0

>  <NsssN>
1

>  <NddsN>
1

>  <NaasN>
0

>  <NssssN>
0

>  <NsOH>
0

>  <NdO>
2

>  <NssO>
0

>  <NaaO>
0

>  <NsF>
0

>  <NsSiH3>
0

>  <NssSiH2>
0

>  <NsssSiH>
0

>  <NssssSi>
0

>  <NsPH2>
0

>  <NssPH>
0

>  <NsssP>
0

>  <NdsssP>
0

>  <NsssssP>
0

>  <NsSH>
0

>  <NdS>
0

>  <NssS>
0

>  <NaaS>
0

>  <NdssS>
0

>  <NddssS>
0

>  <NsCl>
0

>  <NsBr>
0

>  <NsI>
0

>  <fragCpx>
114.06

>  <fMF>
0.44

>  <nHBAcc>
4

>  <nHBDon>
0

>  <Kier1>
16.84

>  <Kier2>
7.27

>  <Lipinski>
1

>  <GhoseFilter>
1

>  <FilterItLogS>
-3.83

>  <VMcGowan>
221.17

>  <LabuteASA>
127.85

>  <PEOE_VSA1>
4.9

>  <PEOE_VSA2>
19.9

>  <PEOE_VSA3>
0

>  <PEOE_VSA4>
0

>  <PEOE_VSA5>
0

>  <PEOE_VSA6>
6.08

>  <PEOE_VSA7>
37.32

>  <PEOE_VSA8>
24.74

>  <PEOE_VSA9>
16.32

>  <PEOE_VSA10>
6.54

>  <PEOE_VSA11>
0

>  <PEOE_VSA12>
5.91

>  <PEOE_VSA13>
5.69

>  <SMR_VSA1>
9.72

>  <SMR_VSA2>
0

>  <SMR_VSA3>
0

>  <SMR_VSA4>
4.99

>  <SMR_VSA5>
25.68

>  <SMR_VSA6>
18.49

>  <SMR_VSA7>
45.53

>  <SMR_VSA8>
0

>  <SMR_VSA9>
0

>  <SlogP_VSA1>
4.9

>  <SlogP_VSA2>
30.13

>  <SlogP_VSA3>
4.79

>  <SlogP_VSA4>
10.11

>  <SlogP_VSA5>
31.25

>  <SlogP_VSA6>
34.84

>  <SlogP_VSA7>
0

>  <SlogP_VSA8>
0

>  <SlogP_VSA9>
0

>  <SlogP_VSA10>
11.37

>  <SlogP_VSA11>
0

>  <EState_VSA1>
4.92

>  <EState_VSA2>
18.14

>  <EState_VSA3>
11.25

>  <EState_VSA4>
36.97

>  <EState_VSA5>
17.03

>  <EState_VSA6>
13.11

>  <EState_VSA7>
0

>  <EState_VSA8>
11.07

>  <EState_VSA9>
0

>  <EState_VSA10>
14.91

>  <VSA_EState1>
0

>  <VSA_EState2>
28.73

>  <VSA_EState3>
11.07

>  <VSA_EState4>
3.2

>  <VSA_EState5>
-0.11

>  <VSA_EState6>
4.59

>  <VSA_EState7>
6.26

>  <VSA_EState8>
0.08

>  <VSA_EState9>
1.68

>  <apol>
43.76

>  <bpol>
21.94

>  <nRing>
3

>  <nHRing>
1

>  <naRing>
1

>  <naHRing>
0

>  <nARing 2>
2

>  <nAHRing 2>
1

>  <nFRing>
1

>  <nFHRing>
1

>  <nFaRing>
0

>  <nFaHRing>
0

>  <nFARing 2>
1

>  <nFAHRing 2>
1

>  <nRot>
2

>  <SLogP>
2.86

>  <SMR>
84.46

>  <TopoPSA(NO)>
75.81

>  <TopoPSA>
75.81

>  <JGI1>
0.17

>  <JGI2>
0.09

>  <JGI3>
0.04

>  <JGI4>
0.04

>  <JGI5>
0.03

>  <Diameter>
9

>  <Radius>
5

>  <TMWC10>
120.71

>  <TSRW10>
64.34

>  <MW>
299.13

>  <AMW>
7.67

>  <WPath>
954

>  <WPol>
40

>  <Zagreb1>
116

>  <Zagreb2>
138

>  <mZagreb2>
4.83

>  <yes>


>  <nAR-cont>
1

>  <nHA-cont>
0.983774276

>  <MWHBN>
0.231275701

>  <MWHBN-cont>
0.985461653

>  <TPSA-cont>
0.470799125

>  <pka_cont>
0.97

>  <yes.1>


>  <BBB_SCORE>
4.888565005

>  <MMFF94 Energy>
114.9

$$$$
Compound 1368
Actelion Java MolfileCreator 2.0

  0  0  0  0  0  0              0 V3000
M  V30 BEGIN CTAB
M  V30 COUNTS 35 37 0 0 0
M  V30 BEGIN ATOM
M  V30 1 O 3.954 1.7738 -0.8866 0
M  V30 2 N 3.2431 1.7717 -1.9005 0 CHG=1
M  V30 3 O 3.6236 2.1087 -3.03 0 CHG=-1
M  V30 4 C 1.8492 1.3326 -1.7541 0
M  V30 5 C 1.3615 0.974 -0.4926 0
M  V30 6 C 1.0169 1.2804 -2.8759 0
M  V30 7 C 0.0287 0.5464 -0.3557 0
M  V30 8 C -0.3124 0.8723 -2.7298 0
M  V30 9 C -0.4489 0.1822 1.0098 0
M  V30 10 C -0.8257 0.5043 -1.4735 0
M  V30 11 N -1.5519 0.6176 1.5222 0
M  V30 12 C 0.3963 -0.7229 1.8507 0
M  V30 13 N -2.1907 0.1176 -1.3791 0
M  V30 14 C -2.4277 1.4583 0.7013 0
M  V30 15 C 0.4272 -0.5296 3.237 0
M  V30 16 C 1.13 -1.7708 1.2797 0
M  V30 17 C -3.0546 0.5997 -0.392 0
M  V30 18 C -2.7437 -0.7584 -2.4005 0
M  V30 19 C 1.2094 -1.3582 4.0427 0
M  V30 20 C 1.9114 -2.5974 2.0901 0
M  V30 21 O -4.2666 0.3711 -0.4067 0
M  V30 22 C 1.9539 -2.3879 3.4686 0
M  V30 23 H 2.0042 1.0364 0.3846 0
M  V30 24 H 1.3782 1.5633 -3.8635 0
M  V30 25 H -0.9496 0.8688 -3.6124 0
M  V30 26 H -1.9132 2.3295 0.2813 0
M  V30 27 H -3.233 1.8437 1.3363 0
M  V30 28 H -0.1579 0.266 3.6933 0
M  V30 29 H 1.0898 -1.9709 0.2131 0
M  V30 30 H -3.576 -1.3436 -1.9968 0
M  V30 31 H -3.1212 -0.1475 -3.2263 0
M  V30 32 H -1.9808 -1.455 -2.7624 0
M  V30 33 H 1.2323 -1.2031 5.1186 0
M  V30 34 H 2.4807 -3.412 1.6491 0
M  V30 35 H 2.5597 -3.035 4.0986 0
M  V30 END ATOM
M  V30 BEGIN BOND
M  V30 1 2 1 2
M  V30 2 1 2 3
M  V30 3 1 2 4
M  V30 4 2 4 5
M  V30 5 1 4 6
M  V30 6 1 5 7
M  V30 7 2 6 8
M  V30 8 1 7 9
M  V30 9 2 7 10
M  V30 10 2 9 11
M  V30 11 1 9 12
M  V30 12 1 10 13
M  V30 13 1 11 14
M  V30 14 2 12 15
M  V30 15 1 12 16
M  V30 16 1 13 17
M  V30 17 1 13 18
M  V30 18 1 15 19
M  V30 19 2 16 20
M  V30 20 2 17 21
M  V30 21 2 19 22
M  V30 22 1 8 10
M  V30 23 1 14 17
M  V30 24 1 20 22
M  V30 25 1 5 23
M  V30 26 1 6 24
M  V30 27 1 8 25
M  V30 28 1 14 26
M  V30 29 1 14 27
M  V30 30 1 15 28
M  V30 31 1 16 29
M  V30 32 1 18 30
M  V30 33 1 18 31
M  V30 34 1 18 32
M  V30 35 1 19 33
M  V30 36 1 20 34
M  V30 37 1 22 35
M  V30 END BOND
M  V30 END CTAB
M  END
>  <Column 1>
1644

>  <level_0>
1799

>  <index>
1799

>  <Unnamed: 0>
1799

>  <NO.>
1811

>  <Name>
nimetazepam

>  <IUPAC_name>
1-methyl-7-nitro-5-phenyl-3h-1-4-benzodiazepin-2-one

>  <SMILES>
CN1C(=O)CN=C(c2ccccc2)c2cc([N+](=O)[O-])ccc21

>  <CID>
4496

>  <logBB>


>  <BBB+/BBB->
BBB+

>  <Inchi>
InChI=1S/C16H13N3O3/c1-18-14-8-7-12(19(21)22)9-13(14)16(17-10-15(18)20)11-5-3-2-4-6-11/h2-9H-10H2-1H3

>  <threshold>
-1

>  <reference>
R1|R13|R19|R6|R24|R27|R27|R27|R30|R30|

>  <group>
B

>  <Class>
1

>  <ABC>
17.17

>  <ABCGG>
14.16

>  <nAcid>
0

>  <nBase>
0

>  <nAromAtom>
12

>  <nAromBond>
12

>  <nAtom>
35

>  <nHeavyAtom>
22

>  <nSpiro>
0

>  <nBridgehead>
0

>  <nHetero>
6

>  <nN>
3

>  <nO>
3

>  <nF>
0

>  <BalabanJ>
1.8

>  <BertzCT>
784.48

>  <nBonds>
37

>  <nBondsO>
24

>  <nBondsS>
22

>  <nBondsD>
3

>  <nBondsT>
0

>  <nBondsA>
12

>  <nBondsM>
15

>  <nBondsKS>
28

>  <nBondsKD>
9

>  <RNCG>
0.18

>  <RPCG>
0.16

>  <FCSP3>
0.13

>  <SZ>
25.67

>  <Sm>
24.59

>  <Sv>
23.94

>  <Sse>
35.75

>  <Sp>
24.61

>  <Si>
39.2

>  <MZ>
0.73

>  <Mm>
0.7

>  <Mv>
0.68

>  <Mse>
1.02

>  <Mp>
0.7

>  <Mi>
1.12

>  <NsCH3>
1

>  <NdCH2>
0

>  <NssCH2>
1

>  <NtCH>
0

>  <NdsCH>
0

>  <NaaCH>
8

>  <NsssCH>
0

>  <NddC>
0

>  <NtsC>
0

>  <NdssC>
2

>  <NaasC>
4

>  <NaaaC>
0

>  <NssssC>
0

>  <NsNH3>
0

>  <NsNH2>
0

>  <NssNH2>
0

>  <NdNH>
0

>  <NssNH>
0

>  <NaaNH>
0

>  <NtN>
0

>  <NsssNH>
0

>  <NdsN>
1

>  <NaaN>
0

>  <NsssN>
1

>  <NddsN>
1

>  <NaasN>
0

>  <NssssN>
0

>  <NsOH>
0

>  <NdO>
2

>  <NssO>
0

>  <NaaO>
0

>  <NsF>
0

>  <NsSiH3>
0

>  <NssSiH2>
0

>  <NsssSiH>
0

>  <NssssSi>
0

>  <NsPH2>
0

>  <NssPH>
0

>  <NsssP>
0

>  <NdsssP>
0

>  <NsssssP>
0

>  <NsSH>
0

>  <NdS>
0

>  <NssS>
0

>  <NaaS>
0

>  <NdssS>
0

>  <NddssS>
0

>  <NsCl>
0

>  <NsBr>
0

>  <NsI>
0

>  <fragCpx>
114.06

>  <fMF>
0.49

>  <nHBAcc>
4

>  <nHBDon>
0

>  <Kier1>
16.84

>  <Kier2>
7.27

>  <Lipinski>
1

>  <GhoseFilter>
1

>  <FilterItLogS>
-4.18

>  <VMcGowan>
212.57

>  <LabuteASA>
126.41

>  <PEOE_VSA1>
4.9

>  <PEOE_VSA2>
19.9

>  <PEOE_VSA3>
0

>  <PEOE_VSA4>
0

>  <PEOE_VSA5>
0

>  <PEOE_VSA6>
30.33

>  <PEOE_VSA7>
6.07

>  <PEOE_VSA8>
30.31

>  <PEOE_VSA9>
16.32

>  <PEOE_VSA10>
6.54

>  <PEOE_VSA11>
0

>  <PEOE_VSA12>
5.91

>  <PEOE_VSA13>
5.69

>  <SMR_VSA1>
9.72

>  <SMR_VSA2>
0

>  <SMR_VSA3>
0

>  <SMR_VSA4>
4.99

>  <SMR_VSA5>
0

>  <SMR_VSA6>
18.49

>  <SMR_VSA7>
69.77

>  <SMR_VSA8>
0

>  <SMR_VSA9>
0

>  <SlogP_VSA1>
4.9

>  <SlogP_VSA2>
30.13

>  <SlogP_VSA3>
4.79

>  <SlogP_VSA4>
10.11

>  <SlogP_VSA5>
11.13

>  <SlogP_VSA6>
53.52

>  <SlogP_VSA7>
0

>  <SlogP_VSA8>
0

>  <SlogP_VSA9>
0

>  <SlogP_VSA10>
11.37

>  <SlogP_VSA11>
0

>  <EState_VSA1>
4.92

>  <EState_VSA2>
18.14

>  <EState_VSA3>
16.96

>  <EState_VSA4>
5.56

>  <EState_VSA5>
17.03

>  <EState_VSA6>
13.11

>  <EState_VSA7>
30.33

>  <EState_VSA8>
4.99

>  <EState_VSA9>
0

>  <EState_VSA10>
14.91

>  <VSA_EState1>
0

>  <VSA_EState2>
28.51

>  <VSA_EState3>
11.05

>  <VSA_EState4>
2.61

>  <VSA_EState5>
-0.15

>  <VSA_EState6>
13.82

>  <VSA_EState7>
0

>  <VSA_EState8>
0.02

>  <VSA_EState9>
1.65

>  <apol>
41.09

>  <bpol>
17.93

>  <nRing>
3

>  <nHRing>
1

>  <naRing>
2

>  <naHRing>
0

>  <nARing 2>
1

>  <nAHRing 2>
1

>  <nFRing>
1

>  <nFHRing>
1

>  <nFaRing>
0

>  <nFaHRing>
0

>  <nFARing 2>
1

>  <nFAHRing 2>
1

>  <nRot>
2

>  <SLogP>
2.41

>  <SMR>
83.45

>  <TopoPSA(NO)>
75.81

>  <TopoPSA>
75.81

>  <JGI1>
0.17

>  <JGI2>
0.09

>  <JGI3>
0.04

>  <JGI4>
0.04

>  <JGI5>
0.03

>  <Diameter>
9

>  <Radius>
5

>  <TMWC10>
120.71

>  <TSRW10>
64.34

>  <MW>
295.1

>  <AMW>
8.43

>  <WPath>
954

>  <WPol>
40

>  <Zagreb1>
116

>  <Zagreb2>
138

>  <mZagreb2>
4.83

>  <yes>


>  <nAR-cont>
0.816016

>  <nHA-cont>
0.983774276

>  <MWHBN>
0.232849541

>  <MWHBN-cont>
0.983766131

>  <TPSA-cont>
0.470799125

>  <pka_cont>
0.97

>  <yes.1>


>  <BBB_SCORE>
4.702037722

>  <MMFF94 Energy>
139.59

$$$$
Compound 1369
Actelion Java MolfileCreator 2.0

  0  0  0  0  0  0              0 V3000
M  V30 BEGIN CTAB
M  V30 COUNTS 33 35 0 0 0
M  V30 BEGIN ATOM
M  V30 1 Cl -4.4939 0.9792 0.6527 0
M  V30 2 C -3.0736 0.0103 0.6386 0
M  V30 3 C -1.8251 0.6138 0.5225 0
M  V30 4 C -3.1788 -1.3713 0.749 0
M  V30 5 C -0.6618 -0.1745 0.508 0
M  V30 6 C -2.0239 -2.1579 0.7429 0
M  V30 7 C 0.649 0.5232 0.3851 0
M  V30 8 C -0.7508 -1.5747 0.6205 0
M  V30 9 N 1.695 0.2504 1.0893 0
M  V30 10 C 0.7666 1.6006 -0.6273 0
M  V30 11 N 0.3916 -2.4231 0.6083 0
M  V30 12 C 1.6083 -0.8287 2.0763 0
M  V30 13 C 1.1422 2.8867 -0.2412 0
M  V30 14 C 0.5089 1.3198 -1.9743 0
M  V30 15 C 1.5494 -2.1639 1.3457 0
M  V30 16 C 0.3325 -3.664 -0.1494 0
M  V30 17 F 1.3514 3.1883 1.0482 0
M  V30 18 C 1.258 3.8993 -1.1898 0
M  V30 19 C 0.6266 2.3359 -2.9253 0
M  V30 20 O 2.4741 -2.9763 1.4279 0
M  V30 21 C 1.0007 3.6238 -2.5337 0
M  V30 22 H -1.7628 1.6978 0.4616 0
M  V30 23 H -4.153 -1.8441 0.8489 0
M  V30 24 H -2.1352 -3.2343 0.8539 0
M  V30 25 H 2.5166 -0.813 2.6883 0
M  V30 26 H 0.7632 -0.7119 2.7637 0
M  V30 27 H 0.2375 0.3162 -2.2909 0
M  V30 28 H -0.2908 -3.5403 -1.0406 0
M  V30 29 H 1.333 -3.9664 -0.4741 0
M  V30 30 H -0.0741 -4.4526 0.4912 0
M  V30 31 H 1.5465 4.8973 -0.8738 0
M  V30 32 H 0.4356 2.1229 -3.9748 0
M  V30 33 H 1.0951 4.4124 -3.2768 0
M  V30 END ATOM
M  V30 BEGIN BOND
M  V30 1 1 1 2
M  V30 2 2 2 3
M  V30 3 1 2 4
M  V30 4 1 3 5
M  V30 5 2 4 6
M  V30 6 1 5 7
M  V30 7 2 5 8
M  V30 8 2 7 9
M  V30 9 1 7 10
M  V30 10 1 8 11
M  V30 11 1 9 12
M  V30 12 2 10 13
M  V30 13 1 10 14
M  V30 14 1 11 15
M  V30 15 1 11 16
M  V30 16 1 13 17
M  V30 17 1 13 18
M  V30 18 2 14 19
M  V30 19 2 15 20
M  V30 20 2 18 21
M  V30 21 1 6 8
M  V30 22 1 12 15
M  V30 23 1 19 21
M  V30 24 1 3 22
M  V30 25 1 4 23
M  V30 26 1 6 24
M  V30 27 1 12 25
M  V30 28 1 12 26
M  V30 29 1 14 27
M  V30 30 1 16 28
M  V30 31 1 16 29
M  V30 32 1 16 30
M  V30 33 1 18 31
M  V30 34 1 19 32
M  V30 35 1 21 33
M  V30 END BOND
M  V30 END CTAB
M  END
>  <Column 1>
1645

>  <level_0>
1800

>  <index>
1800

>  <Unnamed: 0>
1800

>  <NO.>
1812

>  <Name>
fludiazepam

>  <IUPAC_name>
7-chloro-5-(2-fluorophenyl)-1-methyl-3h-1-4-benzodiazepin-2-one

>  <SMILES>
CN1C(=O)CN=C(c2ccccc2F)c2cc(Cl)ccc21

>  <CID>
3369

>  <logBB>


>  <BBB+/BBB->
BBB+

>  <Inchi>
InChI=1S/C16H12ClFN2O/c1-20-14-7-6-10(17)8-12(14)16(19-9-15(20)21)11-4-2-3-5-13(11)18/h2-8H-9H2-1H3

>  <threshold>
-1

>  <reference>
R1|R13|R19|R6|R24|R27|R27|R27|R30|R30|

>  <group>
B

>  <Class>
1

>  <ABC>
16.46

>  <ABCGG>
13.74

>  <nAcid>
0

>  <nBase>
0

>  <nAromAtom>
12

>  <nAromBond>
12

>  <nAtom>
33

>  <nHeavyAtom>
21

>  <nSpiro>
0

>  <nBridgehead>
0

>  <nHetero>
5

>  <nN>
2

>  <nO>
1

>  <nF>
1

>  <BalabanJ>
1.83

>  <BertzCT>
757.69

>  <nBonds>
35

>  <nBondsO>
23

>  <nBondsS>
21

>  <nBondsD>
2

>  <nBondsT>
0

>  <nBondsA>
12

>  <nBondsM>
14

>  <nBondsKS>
27

>  <nBondsKD>
8

>  <RNCG>
0.22

>  <RPCG>
0.17

>  <FCSP3>
0.13

>  <SZ>
26

>  <Sm>
25.2

>  <Sv>
23.22

>  <Sse>
33.71

>  <Sp>
24.23

>  <Si>
36.98

>  <MZ>
0.79

>  <Mm>
0.76

>  <Mv>
0.7

>  <Mse>
1.02

>  <Mp>
0.73

>  <Mi>
1.12

>  <NsCH3>
1

>  <NdCH2>
0

>  <NssCH2>
1

>  <NtCH>
0

>  <NdsCH>
0

>  <NaaCH>
7

>  <NsssCH>
0

>  <NddC>
0

>  <NtsC>
0

>  <NdssC>
2

>  <NaasC>
5

>  <NaaaC>
0

>  <NssssC>
0

>  <NsNH3>
0

>  <NsNH2>
0

>  <NssNH2>
0

>  <NdNH>
0

>  <NssNH>
0

>  <NaaNH>
0

>  <NtN>
0

>  <NsssNH>
0

>  <NdsN>
1

>  <NaaN>
0

>  <NsssN>
1

>  <NddsN>
0

>  <NaasN>
0

>  <NssssN>
0

>  <NsOH>
0

>  <NdO>
1

>  <NssO>
0

>  <NaaO>
0

>  <NsF>
1

>  <NsSiH3>
0

>  <NssSiH2>
0

>  <NsssSiH>
0

>  <NssssSi>
0

>  <NsPH2>
0

>  <NssPH>
0

>  <NsssP>
0

>  <NdsssP>
0

>  <NsssssP>
0

>  <NsSH>
0

>  <NdS>
0

>  <NssS>
0

>  <NaaS>
0

>  <NdssS>
0

>  <NddssS>
0

>  <NsCl>
1

>  <NsBr>
0

>  <NsI>
0

>  <fragCpx>
109.05

>  <fMF>
0.52

>  <nHBAcc>
2

>  <nHBDon>
0

>  <Kier1>
15.88

>  <Kier2>
6.63

>  <Lipinski>
1

>  <GhoseFilter>
1

>  <FilterItLogS>
-5.21

>  <VMcGowan>
209.15

>  <LabuteASA>
126.23

>  <PEOE_VSA1>
4.9

>  <PEOE_VSA2>
9.79

>  <PEOE_VSA3>
4.39

>  <PEOE_VSA4>
0

>  <PEOE_VSA5>
0

>  <PEOE_VSA6>
23.73

>  <PEOE_VSA7>
30.33

>  <PEOE_VSA8>
23.2

>  <PEOE_VSA9>
11.4

>  <PEOE_VSA10>
12.36

>  <PEOE_VSA11>
0

>  <PEOE_VSA12>
5.91

>  <PEOE_VSA13>
0

>  <SMR_VSA1>
9.18

>  <SMR_VSA2>
0

>  <SMR_VSA3>
0

>  <SMR_VSA4>
4.99

>  <SMR_VSA5>
0

>  <SMR_VSA6>
18.49

>  <SMR_VSA7>
64.43

>  <SMR_VSA8>
0

>  <SMR_VSA9>
0

>  <SlogP_VSA1>
4.9

>  <SlogP_VSA2>
25.21

>  <SlogP_VSA3>
4.79

>  <SlogP_VSA4>
5.82

>  <SlogP_VSA5>
11.13

>  <SlogP_VSA6>
47.46

>  <SlogP_VSA7>
5.02

>  <SlogP_VSA8>
0

>  <SlogP_VSA9>
0

>  <SlogP_VSA10>
10.08

>  <SlogP_VSA11>
0

>  <EState_VSA1>
0

>  <EState_VSA2>
18.27

>  <EState_VSA3>
27.55

>  <EState_VSA4>
0

>  <EState_VSA5>
10.97

>  <EState_VSA6>
43.45

>  <EState_VSA7>
0

>  <EState_VSA8>
4.99

>  <EState_VSA9>
11.6

>  <EState_VSA10>
9.18

>  <VSA_EState1>
14.08

>  <VSA_EState2>
17.83

>  <VSA_EState3>
0.51

>  <VSA_EState4>
2.14

>  <VSA_EState5>
-0.52

>  <VSA_EState6>
11.53

>  <VSA_EState7>
0

>  <VSA_EState8>
-0.02

>  <VSA_EState9>
1.68

>  <apol>
40.46

>  <bpol>
17.38

>  <nRing>
3

>  <nHRing>
1

>  <naRing>
2

>  <naHRing>
0

>  <nARing 2>
1

>  <nAHRing 2>
1

>  <nFRing>
1

>  <nFHRing>
1

>  <nFaRing>
0

>  <nFaHRing>
0

>  <nFARing 2>
1

>  <nFAHRing 2>
1

>  <nRot>
1

>  <SLogP>
3.29

>  <SMR>
81.77

>  <TopoPSA(NO)>
32.67

>  <TopoPSA>
32.67

>  <JGI1>
0.17

>  <JGI2>
0.09

>  <JGI3>
0.05

>  <JGI4>
0.05

>  <JGI5>
0.03

>  <Diameter>
8

>  <Radius>
4

>  <TMWC10>
118.57

>  <TSRW10>
63.23

>  <MW>
302.06

>  <AMW>
9.15

>  <WPath>
819

>  <WPol>
39

>  <Zagreb1>
112

>  <Zagreb2>
134

>  <mZagreb2>
4.58

>  <yes>


>  <nAR-cont>
0.816016

>  <nHA-cont>
0.994529749

>  <MWHBN>
0.115075637

>  <MWHBN-cont>
0.807400492

>  <TPSA-cont>
0.771943113

>  <pka_cont>
0.97

>  <yes.1>


>  <BBB_SCORE>
5.050532713

>  <MMFF94 Energy>
108.34

$$$$
Compound 1370
Actelion Java MolfileCreator 2.0

  0  0  0  0  0  0              0 V3000
M  V30 BEGIN CTAB
M  V30 COUNTS 19 19 0 0 0
M  V30 BEGIN ATOM
M  V30 1 O 2.8993 0.3131 -0.0782 0
M  V30 2 C 1.6846 0.1956 -0.0464 0
M  V30 3 O 0.9617 0.2418 1.1093 0
M  V30 4 N 0.8681 0.0065 -1.1047 0
M  V30 5 C -0.4289 0.072 0.799 0
M  V30 6 C -0.4229 -0.0807 -0.7037 0
M  V30 7 C 1.3276 -0.0867 -2.4667 0
M  V30 8 C -0.9438 -1.1882 1.4776 0
M  V30 9 C -1.1929 1.3177 1.2218 0
M  V30 10 O -1.4054 -0.2504 -1.4096 0
M  V30 11 H 0.493 -0.2399 -3.1552 0
M  V30 12 H 2.033 -0.9194 -2.5448 0
M  V30 13 H 1.8587 0.8346 -2.7239 0
M  V30 14 H -0.8307 -1.1192 2.5652 0
M  V30 15 H -0.3731 -2.0677 1.1573 0
M  V30 16 H -1.9986 -1.3685 1.2451 0
M  V30 17 H -2.2577 1.2388 0.9789 0
M  V30 18 H -1.0901 1.4911 2.2987 0
M  V30 19 H -0.7982 2.2094 0.7207 0
M  V30 END ATOM
M  V30 BEGIN BOND
M  V30 1 2 1 2
M  V30 2 1 2 3
M  V30 3 1 2 4
M  V30 4 1 3 5
M  V30 5 1 4 6
M  V30 6 1 4 7
M  V30 7 1 5 8
M  V30 8 1 5 9
M  V30 9 2 6 10
M  V30 10 1 5 6
M  V30 11 1 7 11
M  V30 12 1 7 12
M  V30 13 1 7 13
M  V30 14 1 8 14
M  V30 15 1 8 15
M  V30 16 1 8 16
M  V30 17 1 9 17
M  V30 18 1 9 18
M  V30 19 1 9 19
M  V30 END BOND
M  V30 END CTAB
M  END
>  <Column 1>
1646

>  <level_0>
1801

>  <index>
1801

>  <Unnamed: 0>
1801

>  <NO.>
1813

>  <Name>
trimethadione

>  <IUPAC_name>
3-5-5-trimethyl-1-3-oxazolidine-2-4-dione

>  <SMILES>
CN1C(=O)OC(C)(C)C1=O

>  <CID>
5576

>  <logBB>


>  <BBB+/BBB->
BBB+

>  <Inchi>
InChI=1S/C6H9NO3/c1-6(2)4(8)7(3)5(9)10-6/h1-3H3

>  <threshold>
-1

>  <reference>
R1|R13|R19|R6|R14|R23|R24|R26|R27|R27|R27|R30|R30|

>  <group>
B

>  <Class>
1

>  <ABC>
7.57

>  <ABCGG>
7.81

>  <nAcid>
0

>  <nBase>
0

>  <nAromAtom>
0

>  <nAromBond>
0

>  <nAtom>
19

>  <nHeavyAtom>
10

>  <nSpiro>
0

>  <nBridgehead>
0

>  <nHetero>
4

>  <nN>
1

>  <nO>
3

>  <nF>
0

>  <BalabanJ>
2.71

>  <BertzCT>
197.17

>  <nBonds>
19

>  <nBondsO>
10

>  <nBondsS>
17

>  <nBondsD>
2

>  <nBondsT>
0

>  <nBondsA>
0

>  <nBondsM>
2

>  <nBondsKS>
17

>  <nBondsKD>
2

>  <RNCG>
0.36

>  <RPCG>
0.35

>  <FCSP3>
0.67

>  <SZ>
12.67

>  <Sm>
11.92

>  <Sv>
11.34

>  <Sse>
19.65

>  <Sp>
11.69

>  <Si>
21.79

>  <MZ>
0.67

>  <Mm>
0.63

>  <Mv>
0.6

>  <Mse>
1.03

>  <Mp>
0.62

>  <Mi>
1.15

>  <NsCH3>
3

>  <NdCH2>
0

>  <NssCH2>
0

>  <NtCH>
0

>  <NdsCH>
0

>  <NaaCH>
0

>  <NsssCH>
0

>  <NddC>
0

>  <NtsC>
0

>  <NdssC>
2

>  <NaasC>
0

>  <NaaaC>
0

>  <NssssC>
1

>  <NsNH3>
0

>  <NsNH2>
0

>  <NssNH2>
0

>  <NdNH>
0

>  <NssNH>
0

>  <NaaNH>
0

>  <NtN>
0

>  <NsssNH>
0

>  <NdsN>
0

>  <NaaN>
0

>  <NsssN>
1

>  <NddsN>
0

>  <NaasN>
0

>  <NssssN>
0

>  <NsOH>
0

>  <NdO>
2

>  <NssO>
1

>  <NaaO>
0

>  <NsF>
0

>  <NsSiH3>
0

>  <NssSiH2>
0

>  <NsssSiH>
0

>  <NssssSi>
0

>  <NsPH2>
0

>  <NssPH>
0

>  <NsssP>
0

>  <NdsssP>
0

>  <NsssssP>
0

>  <NsSH>
0

>  <NdS>
0

>  <NssS>
0

>  <NaaS>
0

>  <NdssS>
0

>  <NddssS>
0

>  <NsCl>
0

>  <NsBr>
0

>  <NsI>
0

>  <fragCpx>
10.04

>  <fMF>
0.26

>  <nHBAcc>
3

>  <nHBDon>
0

>  <Kier1>
8.1

>  <Kier2>
2.25

>  <Lipinski>
1

>  <GhoseFilter>
0

>  <FilterItLogS>
-0.69

>  <VMcGowan>
103.53

>  <LabuteASA>
58.75

>  <PEOE_VSA1>
4.74

>  <PEOE_VSA2>
4.79

>  <PEOE_VSA3>
9.69

>  <PEOE_VSA4>
0

>  <PEOE_VSA5>
0

>  <PEOE_VSA6>
0

>  <PEOE_VSA7>
13.85

>  <PEOE_VSA8>
7.05

>  <PEOE_VSA9>
0

>  <PEOE_VSA10>
0

>  <PEOE_VSA11>
5.6

>  <PEOE_VSA12>
0

>  <PEOE_VSA13>
5.91

>  <SMR_VSA1>
14.33

>  <SMR_VSA2>
0

>  <SMR_VSA3>
4.9

>  <SMR_VSA4>
0

>  <SMR_VSA5>
19.45

>  <SMR_VSA6>
7.05

>  <SMR_VSA7>
0

>  <SMR_VSA8>
0

>  <SMR_VSA9>
0

>  <SlogP_VSA1>
0

>  <SlogP_VSA2>
29.55

>  <SlogP_VSA3>
9.53

>  <SlogP_VSA4>
0

>  <SlogP_VSA5>
13.85

>  <SlogP_VSA6>
0

>  <SlogP_VSA7>
0

>  <SlogP_VSA8>
0

>  <SlogP_VSA9>
0

>  <SlogP_VSA10>
4.79

>  <SlogP_VSA11>
0

>  <EState_VSA1>
11.69

>  <EState_VSA2>
5.91

>  <EState_VSA3>
0

>  <EState_VSA4>
4.9

>  <EState_VSA5>
7.05

>  <EState_VSA6>
13.85

>  <EState_VSA7>
0

>  <EState_VSA8>
0

>  <EState_VSA9>
4.74

>  <EState_VSA10>
9.59

>  <VSA_EState1>
4.71

>  <VSA_EState2>
22.67

>  <VSA_EState3>
0

>  <VSA_EState4>
-0.97

>  <VSA_EState5>
-0.29

>  <VSA_EState6>
0

>  <VSA_EState7>
-0.57

>  <VSA_EState8>
3.13

>  <VSA_EState9>
1.4

>  <apol>
19.53

>  <bpol>
14.21

>  <nRing>
1

>  <nHRing>
1

>  <naRing>
0

>  <naHRing>
0

>  <nARing 2>
1

>  <nAHRing 2>
1

>  <nFRing>
0

>  <nFHRing>
0

>  <nFaRing>
0

>  <nFaHRing>
0

>  <nFARing 2>
0

>  <nFAHRing 2>
0

>  <nRot>
0

>  <SLogP>
0.37

>  <SMR>
33.33

>  <TopoPSA(NO)>
46.61

>  <TopoPSA>
46.61

>  <JGI1>
0.4

>  <JGI2>
0.15

>  <JGI3>
0.12

>  <JGI4>
0

>  <JGI5>
0

>  <Diameter>
4

>  <Radius>
3

>  <TMWC10>
87.48

>  <TSRW10>
55.01

>  <MW>
143.06

>  <AMW>
7.53

>  <WPath>
104

>  <WPol>
14

>  <Zagreb1>
52

>  <Zagreb2>
61

>  <mZagreb2>
2.1

>  <yes>


>  <nAR-cont>
0.816016

>  <nHA-cont>
0.645914733

>  <MWHBN>
0.250819989

>  <MWHBN-cont>
0.958387681

>  <TPSA-cont>
0.674633257

>  <pka_cont>
0.97

>  <yes.1>


>  <BBB_SCORE>
4.733778768

>  <MMFF94 Energy>
-45.898

$$$$
Compound 1371
Actelion Java MolfileCreator 2.0

  0  0  0  0  0  0              0 V3000
M  V30 BEGIN CTAB
M  V30 COUNTS 33 35 0 0 0
M  V30 BEGIN ATOM
M  V30 1 Cl -3.5321 -2.4633 1.8881 0
M  V30 2 C -1.9747 -1.7407 1.7966 0
M  V30 3 C -1.481 -1.3149 0.5673 0
M  V30 4 C -1.2125 -1.5935 2.9512 0
M  V30 5 C -0.2122 -0.7176 0.4924 0
M  V30 6 C 0.0576 -1.0161 2.8765 0
M  V30 7 C 0.2921 -0.3066 -0.8483 0
M  V30 8 C 0.5739 -0.5692 1.6491 0
M  V30 9 N 1.4647 -0.6215 -1.2931 0
M  V30 10 C -0.6004 0.4983 -1.7409 0
M  V30 11 N 1.8805 0.0065 1.6211 0
M  V30 12 C 2.3687 -1.3674 -0.41 0
M  V30 13 C -1.5083 1.4284 -1.2181 0
M  V30 14 C -0.4999 0.3346 -3.1278 0
M  V30 15 C 2.8435 -0.4076 0.6866 0
M  V30 16 C 2.172 1.0195 2.6413 0
M  V30 17 C -2.3267 2.165 -2.0775 0
M  V30 18 C -1.3195 1.0728 -3.9829 0
M  V30 19 S 4.4659 0.0628 0.7028 0
M  V30 20 C -2.2347 1.9839 -3.4573 0
M  V30 21 H -2.0765 -1.4619 -0.3307 0
M  V30 22 H -1.5933 -1.936 3.9105 0
M  V30 23 H 0.647 -0.9383 3.7874 0
M  V30 24 H 3.2098 -1.7297 -1.011 0
M  V30 25 H 1.8926 -2.2571 0.0185 0
M  V30 26 H -1.5792 1.6065 -0.1488 0
M  V30 27 H 0.2178 -0.3677 -3.5459 0
M  V30 28 H 2.7088 0.5445 3.4684 0
M  V30 29 H 2.7921 1.8172 2.2227 0
M  V30 30 H 1.2498 1.4804 3.0104 0
M  V30 31 H -3.0304 2.8879 -1.672 0
M  V30 32 H -1.2381 0.9405 -5.0588 0
M  V30 33 H -2.8693 2.5615 -4.1251 0
M  V30 END ATOM
M  V30 BEGIN BOND
M  V30 1 1 1 2
M  V30 2 2 2 3
M  V30 3 1 2 4
M  V30 4 1 3 5
M  V30 5 2 4 6
M  V30 6 1 5 7
M  V30 7 2 5 8
M  V30 8 2 7 9
M  V30 9 1 7 10
M  V30 10 1 8 11
M  V30 11 1 9 12
M  V30 12 2 10 13
M  V30 13 1 10 14
M  V30 14 1 11 15
M  V30 15 1 11 16
M  V30 16 1 13 17
M  V30 17 2 14 18
M  V30 18 2 15 19
M  V30 19 2 17 20
M  V30 20 1 6 8
M  V30 21 1 12 15
M  V30 22 1 18 20
M  V30 23 1 3 21
M  V30 24 1 4 22
M  V30 25 1 6 23
M  V30 26 1 12 24
M  V30 27 1 12 25
M  V30 28 1 13 26
M  V30 29 1 14 27
M  V30 30 1 16 28
M  V30 31 1 16 29
M  V30 32 1 16 30
M  V30 33 1 17 31
M  V30 34 1 18 32
M  V30 35 1 20 33
M  V30 END BOND
M  V30 END CTAB
M  END
>  <Column 1>
1647

>  <level_0>
1802

>  <index>
1802

>  <Unnamed: 0>
1802

>  <NO.>
1814

>  <Name>
sulazepam

>  <IUPAC_name>
7-chloro-1-methyl-5-phenyl-3h-1-4-benzodiazepine-2-thione

>  <SMILES>
CN1C(=S)CN=C(c2ccccc2)c2cc(Cl)ccc21

>  <CID>
17931

>  <logBB>


>  <BBB+/BBB->
BBB+

>  <Inchi>
InChI=1S/C16H13ClN2S/c1-19-14-8-7-12(17)9-13(14)16(18-10-15(19)20)11-5-3-2-4-6-11/h2-9H-10H2-1H3

>  <threshold>
-1

>  <reference>
R1|R13|R19|R6|R24|R27|R27|R27|R30|R30|

>  <group>
B

>  <Class>
-1

>  <ABC>
15.68

>  <ABCGG>
12.96

>  <nAcid>
0

>  <nBase>
0

>  <nAromAtom>
12

>  <nAromBond>
12

>  <nAtom>
33

>  <nHeavyAtom>
20

>  <nSpiro>
0

>  <nBridgehead>
0

>  <nHetero>
4

>  <nN>
2

>  <nO>
0

>  <nF>
0

>  <BalabanJ>
1.79

>  <BertzCT>
694.88

>  <nBonds>
35

>  <nBondsO>
22

>  <nBondsS>
21

>  <nBondsD>
2

>  <nBondsT>
0

>  <nBondsA>
12

>  <nBondsM>
14

>  <nBondsKS>
27

>  <nBondsKD>
8

>  <RNCG>
0.29

>  <RPCG>
0.09

>  <FCSP3>
0.13

>  <SZ>
26

>  <Sm>
25.04

>  <Sv>
23.32

>  <Sse>
32.94

>  <Sp>
25.55

>  <Si>
36.35

>  <MZ>
0.79

>  <Mm>
0.76

>  <Mv>
0.71

>  <Mse>
1

>  <Mp>
0.77

>  <Mi>
1.1

>  <NsCH3>
1

>  <NdCH2>
0

>  <NssCH2>
1

>  <NtCH>
0

>  <NdsCH>
0

>  <NaaCH>
8

>  <NsssCH>
0

>  <NddC>
0

>  <NtsC>
0

>  <NdssC>
2

>  <NaasC>
4

>  <NaaaC>
0

>  <NssssC>
0

>  <NsNH3>
0

>  <NsNH2>
0

>  <NssNH2>
0

>  <NdNH>
0

>  <NssNH>
0

>  <NaaNH>
0

>  <NtN>
0

>  <NsssNH>
0

>  <NdsN>
1

>  <NaaN>
0

>  <NsssN>
1

>  <NddsN>
0

>  <NaasN>
0

>  <NssssN>
0

>  <NsOH>
0

>  <NdO>
0

>  <NssO>
0

>  <NaaO>
0

>  <NsF>
0

>  <NsSiH3>
0

>  <NssSiH2>
0

>  <NsssSiH>
0

>  <NssssSi>
0

>  <NsPH2>
0

>  <NssPH>
0

>  <NsssP>
0

>  <NdsssP>
0

>  <NsssssP>
0

>  <NsSH>
0

>  <NdS>
1

>  <NssS>
0

>  <NaaS>
0

>  <NdssS>
0

>  <NddssS>
0

>  <NsCl>
1

>  <NsBr>
0

>  <NsI>
0

>  <fragCpx>
104.04

>  <fMF>
0.52

>  <nHBAcc>
2

>  <nHBDon>
0

>  <Kier1>
14.92

>  <Kier2>
6.41

>  <Lipinski>
1

>  <GhoseFilter>
1

>  <FilterItLogS>
-4.99

>  <VMcGowan>
217.87

>  <LabuteASA>
128.26

>  <PEOE_VSA1>
4.9

>  <PEOE_VSA2>
4.99

>  <PEOE_VSA3>
0

>  <PEOE_VSA4>
0

>  <PEOE_VSA5>
0

>  <PEOE_VSA6>
54.15

>  <PEOE_VSA7>
18.2

>  <PEOE_VSA8>
23.2

>  <PEOE_VSA9>
17.94

>  <PEOE_VSA10>
4.99

>  <PEOE_VSA11>
0

>  <PEOE_VSA12>
0

>  <PEOE_VSA13>
0

>  <SMR_VSA1>
0

>  <SMR_VSA2>
0

>  <SMR_VSA3>
0

>  <SMR_VSA4>
4.99

>  <SMR_VSA5>
0

>  <SMR_VSA6>
18.49

>  <SMR_VSA7>
64.68

>  <SMR_VSA8>
0

>  <SMR_VSA9>
0

>  <SlogP_VSA1>
4.9

>  <SlogP_VSA2>
24.29

>  <SlogP_VSA3>
0

>  <SlogP_VSA4>
0

>  <SlogP_VSA5>
11.13

>  <SlogP_VSA6>
53.52

>  <SlogP_VSA7>
5.02

>  <SlogP_VSA8>
0

>  <SlogP_VSA9>
0

>  <SlogP_VSA10>
5.69

>  <SlogP_VSA11>
0

>  <EState_VSA1>
0

>  <EState_VSA2>
0

>  <EState_VSA3>
11.57

>  <EState_VSA4>
27.51

>  <EState_VSA5>
0

>  <EState_VSA6>
0

>  <EState_VSA7>
48.35

>  <EState_VSA8>
17.13

>  <EState_VSA9>
23.82

>  <EState_VSA10>
0

>  <VSA_EState1>
0

>  <VSA_EState2>
7.49

>  <VSA_EState3>
0.7

>  <VSA_EState4>
4.08

>  <VSA_EState5>
0

>  <VSA_EState6>
15.95

>  <VSA_EState7>
0

>  <VSA_EState8>
0.52

>  <VSA_EState9>
1.97

>  <apol>
42.67

>  <bpol>
17.63

>  <nRing>
3

>  <nHRing>
1

>  <naRing>
2

>  <naHRing>
0

>  <nARing 2>
1

>  <nAHRing 2>
1

>  <nFRing>
1

>  <nFHRing>
1

>  <nFaRing>
0

>  <nFaHRing>
0

>  <nFARing 2>
1

>  <nFAHRing 2>
1

>  <nRot>
1

>  <SLogP>
3.95

>  <SMR>
89.4

>  <TopoPSA(NO)>
15.6

>  <TopoPSA>
47.69

>  <JGI1>
0.16

>  <JGI2>
0.09

>  <JGI3>
0.05

>  <JGI4>
0.04

>  <JGI5>
0.03

>  <Diameter>
8

>  <Radius>
4

>  <TMWC10>
115.85

>  <TSRW10>
61.88

>  <MW>
300.05

>  <AMW>
9.09

>  <WPath>
726

>  <WPol>
36

>  <Zagreb1>
106

>  <Zagreb2>
126

>  <mZagreb2>
4.39

>  <yes>


>  <nAR-cont>
0.816016

>  <nHA-cont>
0.999629945

>  <MWHBN>
0.115460433

>  <MWHBN-cont>
0.809171181

>  <TPSA-cont>
0.667094186

>  <pka_cont>
0.97

>  <yes.1>


>  <BBB_SCORE>
4.848591089

>  <MMFF94 Energy>
110.46

$$$$
Compound 1372
Actelion Java MolfileCreator 2.0

  0  0  0  0  0  0              0 V3000
M  V30 BEGIN CTAB
M  V30 COUNTS 33 35 0 0 0
M  V30 BEGIN ATOM
M  V30 1 S 0.9969 -1.1632 -2.4938 0
M  V30 2 O 1.9524 -1.7513 -1.5812 0
M  V30 3 O 0.4436 -1.8822 -3.6178 0
M  V30 4 N -0.2502 -0.4907 -1.5806 0
M  V30 5 C 1.8034 0.181 -3.1833 0
M  V30 6 C 0.0695 0.7162 -0.8501 0
M  V30 7 C -1.3535 -1.3826 -1.2081 0
M  V30 8 C 1.6442 1.4035 -2.5678 0
M  V30 9 C 2.6169 0.1946 -4.3427 0
M  V30 10 C 0.8997 1.651 -1.3717 0
M  V30 11 C -0.5222 0.9819 0.4992 0
M  V30 12 S 2.515 2.6025 -3.4382 0
M  V30 13 C 3.0747 1.4681 -4.5968 0
M  V30 14 O 1.1571 2.8712 -0.7705 0
M  V30 15 O -0.9291 2.1082 0.7663 0
M  V30 16 N -0.405 -0.099 1.3434 0
M  V30 17 C -0.9464 -0.1593 2.6298 0
M  V30 18 N -2.0015 0.6099 2.949 0
M  V30 19 C -0.3995 -1.0797 3.5183 0
M  V30 20 C -2.5089 0.4941 4.1953 0
M  V30 21 C -0.9435 -1.1876 4.7967 0
M  V30 22 C -2.0192 -0.3827 5.1464 0
M  V30 23 H -1.0283 -2.1214 -0.4706 0
M  V30 24 H -2.1966 -0.815 -0.802 0
M  V30 25 H -1.7319 -1.9095 -2.0893 0
M  V30 26 H 2.8463 -0.6683 -4.956 0
M  V30 27 H 3.711 1.796 -5.4078 0
M  V30 28 H 0.4672 3.0408 -0.0907 0
M  V30 29 H 0.166 -0.8776 1.045 0
M  V30 30 H 0.4443 -1.7016 3.2407 0
M  V30 31 H -3.3488 1.1478 4.4131 0
M  V30 32 H -0.5285 -1.891 5.5129 0
M  V30 33 H -2.4651 -0.4358 6.1333 0
M  V30 END ATOM
M  V30 BEGIN BOND
M  V30 1 2 1 2
M  V30 2 2 1 3
M  V30 3 1 1 4
M  V30 4 1 1 5
M  V30 5 1 4 6
M  V30 6 1 4 7
M  V30 7 2 5 8
M  V30 8 1 5 9
M  V30 9 2 6 10
M  V30 10 1 6 11
M  V30 11 1 8 12
M  V30 12 2 9 13
M  V30 13 1 10 14
M  V30 14 2 11 15
M  V30 15 1 11 16
M  V30 16 1 16 17
M  V30 17 2 17 18
M  V30 18 1 17 19
M  V30 19 1 18 20
M  V30 20 2 19 21
M  V30 21 2 20 22
M  V30 22 1 8 10
M  V30 23 1 12 13
M  V30 24 1 21 22
M  V30 25 1 7 23
M  V30 26 1 7 24
M  V30 27 1 7 25
M  V30 28 1 9 26
M  V30 29 1 13 27
M  V30 30 1 14 28
M  V30 31 1 16 29
M  V30 32 1 19 30
M  V30 33 1 20 31
M  V30 34 1 21 32
M  V30 35 1 22 33
M  V30 END BOND
M  V30 END CTAB
M  END
>  <Column 1>
1648

>  <level_0>
1803

>  <index>
1803

>  <Unnamed: 0>
1803

>  <NO.>
1815

>  <Name>
tenoxicam

>  <IUPAC_name>
4-hydroxy-2-methyl-1-1-dioxo-n-pyridin-2-ylthieno[2-3-e]thiazine-3-carboxamide

>  <SMILES>
CN1C(C(=O)Nc2ccccn2)=C(O)c2sccc2S1(=O)=O

>  <CID>
54677971

>  <logBB>


>  <BBB+/BBB->
BBB-

>  <Inchi>
InChI=1S/C13H11N3O4S2/c1-16-10(13(18)15-9-4-2-3-6-14-9)11(17)12-8(5-7-21-12)22(16-19)20/h2-7-17H-1H3-(H-14-15-18)

>  <threshold>
-1

>  <reference>
R1|R13|R19|R28|R9|R14|R24|R27|R27|R27|R30|R36|

>  <group>
B

>  <Class>
1

>  <ABC>
17.29

>  <ABCGG>
15.17

>  <nAcid>
0

>  <nBase>
0

>  <nAromAtom>
11

>  <nAromBond>
11

>  <nAtom>
33

>  <nHeavyAtom>
22

>  <nSpiro>
0

>  <nBridgehead>
0

>  <nHetero>
9

>  <nN>
3

>  <nO>
4

>  <nF>
0

>  <BalabanJ>
1.73

>  <BertzCT>
871.7

>  <nBonds>
35

>  <nBondsO>
24

>  <nBondsS>
20

>  <nBondsD>
4

>  <nBondsT>
0

>  <nBondsA>
11

>  <nBondsM>
15

>  <nBondsKS>
26

>  <nBondsKD>
9

>  <RNCG>
0.22

>  <RPCG>
0.13

>  <FCSP3>
0.08

>  <SZ>
29

>  <Sm>
28.09

>  <Sv>
23.49

>  <Sse>
34.35

>  <Sp>
24.76

>  <Si>
36.83

>  <MZ>
0.88

>  <Mm>
0.85

>  <Mv>
0.71

>  <Mse>
1.04

>  <Mp>
0.75

>  <Mi>
1.12

>  <NsCH3>
1

>  <NdCH2>
0

>  <NssCH2>
0

>  <NtCH>
0

>  <NdsCH>
0

>  <NaaCH>
6

>  <NsssCH>
0

>  <NddC>
0

>  <NtsC>
0

>  <NdssC>
3

>  <NaasC>
3

>  <NaaaC>
0

>  <NssssC>
0

>  <NsNH3>
0

>  <NsNH2>
0

>  <NssNH2>
0

>  <NdNH>
0

>  <NssNH>
1

>  <NaaNH>
0

>  <NtN>
0

>  <NsssNH>
0

>  <NdsN>
0

>  <NaaN>
1

>  <NsssN>
1

>  <NddsN>
0

>  <NaasN>
0

>  <NssssN>
0

>  <NsOH>
1

>  <NdO>
3

>  <NssO>
0

>  <NaaO>
0

>  <NsF>
0

>  <NsSiH3>
0

>  <NssSiH2>
0

>  <NsssSiH>
0

>  <NssssSi>
0

>  <NsPH2>
0

>  <NssPH>
0

>  <NsssP>
0

>  <NdsssP>
0

>  <NsssssP>
0

>  <NsSH>
0

>  <NdS>
0

>  <NssS>
0

>  <NaaS>
1

>  <NdssS>
0

>  <NddssS>
1

>  <NsCl>
0

>  <NsBr>
0

>  <NsI>
0

>  <fragCpx>
114.09

>  <fMF>
0.52

>  <nHBAcc>
6

>  <nHBDon>
2

>  <Kier1>
16.84

>  <Kier2>
6.48

>  <Lipinski>
1

>  <GhoseFilter>
1

>  <FilterItLogS>
-2.47

>  <VMcGowan>
217.47

>  <LabuteASA>
130.14

>  <PEOE_VSA1>
10.42

>  <PEOE_VSA2>
9.1

>  <PEOE_VSA3>
13.4

>  <PEOE_VSA4>
0

>  <PEOE_VSA5>
11.34

>  <PEOE_VSA6>
6.07

>  <PEOE_VSA7>
23.58

>  <PEOE_VSA8>
13.24

>  <PEOE_VSA9>
4.88

>  <PEOE_VSA10>
10.71

>  <PEOE_VSA11>
11.46

>  <PEOE_VSA12>
0

>  <PEOE_VSA13>
15.93

>  <SMR_VSA1>
18.32

>  <SMR_VSA2>
0

>  <SMR_VSA3>
9.29

>  <SMR_VSA4>
0

>  <SMR_VSA5>
4.9

>  <SMR_VSA6>
12.36

>  <SMR_VSA7>
46.42

>  <SMR_VSA8>
0

>  <SMR_VSA9>
0

>  <SlogP_VSA1>
5.32

>  <SlogP_VSA2>
35.77

>  <SlogP_VSA3>
14.82

>  <SlogP_VSA4>
0

>  <SlogP_VSA5>
4.88

>  <SlogP_VSA6>
46.43

>  <SlogP_VSA7>
0

>  <SlogP_VSA8>
5.76

>  <SlogP_VSA9>
0

>  <SlogP_VSA10>
5.82

>  <SlogP_VSA11>
0

>  <EState_VSA1>
15.93

>  <EState_VSA2>
27.05

>  <EState_VSA3>
0

>  <EState_VSA4>
15.64

>  <EState_VSA5>
19.31

>  <EState_VSA6>
23.58

>  <EState_VSA7>
0

>  <EState_VSA8>
10.3

>  <EState_VSA9>
0

>  <EState_VSA10>
18.32

>  <VSA_EState1>
25.51

>  <VSA_EState2>
16.42

>  <VSA_EState3>
14.28

>  <VSA_EState4>
-0.33

>  <VSA_EState5>
-0.85

>  <VSA_EState6>
6.32

>  <VSA_EState7>
1.49

>  <VSA_EState8>
0

>  <VSA_EState9>
-2.63

>  <apol>
41.35

>  <bpol>
24.44

>  <nRing>
3

>  <nHRing>
3

>  <naRing>
2

>  <naHRing>
2

>  <nARing 2>
1

>  <nAHRing 2>
1

>  <nFRing>
1

>  <nFHRing>
1

>  <nFaRing>
0

>  <nFaHRing>
0

>  <nFARing 2>
1

>  <nFAHRing 2>
1

>  <nRot>
2

>  <SLogP>
1.64

>  <SMR>
81.68

>  <TopoPSA(NO)>
99.6

>  <TopoPSA>
136.22

>  <JGI1>
0.21

>  <JGI2>
0.1

>  <JGI3>
0.07

>  <JGI4>
0.06

>  <JGI5>
0.03

>  <Diameter>
10

>  <Radius>
5

>  <TMWC10>
121.97

>  <TSRW10>
70.44

>  <MW>
337.02

>  <AMW>
10.21

>  <WPath>
988

>  <WPol>
39

>  <Zagreb1>
120

>  <Zagreb2>
146

>  <mZagreb2>
4.72

>  <yes>


>  <nAR-cont>
0.816016

>  <nHA-cont>
0.983774276

>  <MWHBN>
0.435774838

>  <MWHBN-cont>
0.337986084

>  <TPSA-cont>
0

>  <pka_cont>
0.97

>  <yes.1>


>  <BBB_SCORE>
2.791769401

>  <MMFF94 Energy>
-12.348

$$$$
Compound 1373
Actelion Java MolfileCreator 2.0

  0  0  0  0  0  0              0 V3000
M  V30 BEGIN CTAB
M  V30 COUNTS 52 54 0 0 0
M  V30 BEGIN ATOM
M  V30 1 O 1.667 1.5081 -2.0642 0
M  V30 2 C 2.4968 1.304 -1.1797 0
M  V30 3 C 3.9064 1.7486 -1.3915 0
M  V30 4 C 2.1439 0.5765 0.1082 0
M  V30 5 C 4.165 2.6792 -2.4073 0
M  V30 6 C 4.9693 1.2572 -0.6238 0
M  V30 7 C 0.6375 0.6794 0.4576 0
M  V30 8 C 5.4672 3.1235 -2.6431 0
M  V30 9 C 6.2717 1.7045 -0.8632 0
M  V30 10 N 0.2521 -0.1676 1.62 0
M  V30 11 C 0.3066 2.1586 0.7722 0
M  V30 12 C 6.5191 2.6373 -1.8695 0
M  V30 13 C -1.1784 -0.055 1.9966 0
M  V30 14 C 0.7228 -1.5437 1.5361 0
M  V30 15 C -1.1347 2.3612 1.2162 0
M  V30 16 C -1.4622 1.4172 2.3623 0
M  V30 17 C -2.237 -0.5595 0.9773 0
M  V30 18 C -2.4603 -2.0775 0.9311 0
M  V30 19 O -2.8789 -2.5541 2.2102 0
M  V30 20 C -3.5099 -2.4301 -0.1077 0
M  V30 21 C -3.1279 -2.6235 -1.4453 0
M  V30 22 C -4.8698 -2.5328 0.222 0
M  V30 23 C -4.0795 -2.9231 -2.4223 0
M  V30 24 C -5.8203 -2.8335 -0.7554 0
M  V30 25 C -5.4249 -3.0291 -2.0767 0
M  V30 26 H 2.4396 -0.4642 -0.0605 0
M  V30 27 H 2.7299 0.979 0.9418 0
M  V30 28 H 3.3512 3.0637 -3.0198 0
M  V30 29 H 4.8153 0.5182 0.1566 0
M  V30 30 H 0.0617 0.3657 -0.4214 0
M  V30 31 H 5.6586 3.847 -3.4317 0
M  V30 32 H 7.0962 1.3217 -0.2663 0
M  V30 33 H 0.4886 2.792 -0.1028 0
M  V30 34 H 0.9735 2.5239 1.565 0
M  V30 35 H 7.5335 2.9825 -2.0542 0
M  V30 36 H -1.3189 -0.6069 2.9348 0
M  V30 37 H 0.2835 -2.168 2.322 0
M  V30 38 H 0.5091 -1.998 0.5641 0
M  V30 39 H 1.8037 -1.5906 1.7053 0
M  V30 40 H -1.813 2.1897 0.3728 0
M  V30 41 H -1.2821 3.3991 1.5357 0
M  V30 42 H -0.8607 1.694 3.2389 0
M  V30 43 H -2.5098 1.5453 2.6603 0
M  V30 44 H -2.008 -0.1891 -0.0281 0
M  V30 45 H -3.1991 -0.0996 1.2462 0
M  V30 46 H -1.5489 -2.6201 0.6709 0
M  V30 47 H -2.0803 -2.6731 2.7492 0
M  V30 48 H -2.0834 -2.5369 -1.7361 0
M  V30 49 H -5.1938 -2.3803 1.2497 0
M  V30 50 H -3.7707 -3.0708 -3.4537 0
M  V30 51 H -6.8691 -2.9138 -0.4828 0
M  V30 52 H -6.1656 -3.2621 -2.8368 0
M  V30 END ATOM
M  V30 BEGIN BOND
M  V30 1 2 1 2
M  V30 2 1 2 3
M  V30 3 1 2 4
M  V30 4 2 3 5
M  V30 5 1 3 6
M  V30 6 1 4 7
M  V30 7 1 5 8
M  V30 8 2 6 9
M  V30 9 1 7 10
M  V30 10 1 7 11
M  V30 11 2 8 12
M  V30 12 1 10 13
M  V30 13 1 10 14
M  V30 14 1 11 15
M  V30 15 1 13 16
M  V30 16 1 13 17
M  V30 17 1 17 18
M  V30 18 1 18 19
M  V30 19 1 18 20
M  V30 20 2 20 21
M  V30 21 1 20 22
M  V30 22 1 21 23
M  V30 23 2 22 24
M  V30 24 2 23 25
M  V30 25 1 9 12
M  V30 26 1 15 16
M  V30 27 1 24 25
M  V30 28 1 4 26
M  V30 29 1 4 27
M  V30 30 1 5 28
M  V30 31 1 6 29
M  V30 32 1 7 30
M  V30 33 1 8 31
M  V30 34 1 9 32
M  V30 35 1 11 33
M  V30 36 1 11 34
M  V30 37 1 12 35
M  V30 38 1 13 36
M  V30 39 1 14 37
M  V30 40 1 14 38
M  V30 41 1 14 39
M  V30 42 1 15 40
M  V30 43 1 15 41
M  V30 44 1 16 42
M  V30 45 1 16 43
M  V30 46 1 17 44
M  V30 47 1 17 45
M  V30 48 1 18 46
M  V30 49 1 19 47
M  V30 50 1 21 48
M  V30 51 1 22 49
M  V30 52 1 23 50
M  V30 53 1 24 51
M  V30 54 1 25 52
M  V30 END BOND
M  V30 END CTAB
M  END
>  <Column 1>
1649

>  <level_0>
1804

>  <index>
1804

>  <Unnamed: 0>
1804

>  <NO.>
1816

>  <Name>
lobeline

>  <IUPAC_name>
2-[6-(2-hydroxy-2-phenylethyl)-1-methylpiperidin-2-yl]-1-phenylethanone

>  <SMILES>
CN1C(CC(=O)c2ccccc2)CCCC1CC(O)c1ccccc1

>  <CID>
3945

>  <logBB>


>  <BBB+/BBB->
BBB+

>  <Inchi>
InChI=1S/C22H27NO2/c1-23-19(15-21(24)17-9-4-2-5-10-17)13-8-14-20(23)16-22(25)18-11-6-3-7-12-18/h2-7-9-12-19-21-24H-8-13-16H2-1H3

>  <threshold>
-1

>  <reference>
R1|R19|R6|R27|R27|R30|

>  <group>
B

>  <Class>
-1

>  <ABC>
19.26

>  <ABCGG>
15.26

>  <nAcid>
0

>  <nBase>
1

>  <nAromAtom>
12

>  <nAromBond>
12

>  <nAtom>
52

>  <nHeavyAtom>
25

>  <nSpiro>
0

>  <nBridgehead>
0

>  <nHetero>
3

>  <nN>
1

>  <nO>
2

>  <nF>
0

>  <BalabanJ>
1.48

>  <BertzCT>
670.94

>  <nBonds>
54

>  <nBondsO>
27

>  <nBondsS>
41

>  <nBondsD>
1

>  <nBondsT>
0

>  <nBondsA>
12

>  <nBondsM>
13

>  <nBondsKS>
47

>  <nBondsKD>
7

>  <RNCG>
0.22

>  <RPCG>
0.12

>  <FCSP3>
0.41

>  <SZ>
30.33

>  <Sm>
28.1

>  <Sv>
31.5

>  <Sse>
51.31

>  <Sp>
34.4

>  <Si>
58.32

>  <MZ>
0.58

>  <Mm>
0.54

>  <Mv>
0.61

>  <Mse>
0.99

>  <Mp>
0.66

>  <Mi>
1.12

>  <NsCH3>
1

>  <NdCH2>
0

>  <NssCH2>
5

>  <NtCH>
0

>  <NdsCH>
0

>  <NaaCH>
10

>  <NsssCH>
3

>  <NddC>
0

>  <NtsC>
0

>  <NdssC>
1

>  <NaasC>
2

>  <NaaaC>
0

>  <NssssC>
0

>  <NsNH3>
0

>  <NsNH2>
0

>  <NssNH2>
0

>  <NdNH>
0

>  <NssNH>
0

>  <NaaNH>
0

>  <NtN>
0

>  <NsssNH>
0

>  <NdsN>
0

>  <NaaN>
0

>  <NsssN>
1

>  <NddsN>
0

>  <NaasN>
0

>  <NssssN>
0

>  <NsOH>
1

>  <NdO>
1

>  <NssO>
0

>  <NaaO>
0

>  <NsF>
0

>  <NsSiH3>
0

>  <NssSiH2>
0

>  <NsssSiH>
0

>  <NssssSi>
0

>  <NsPH2>
0

>  <NssPH>
0

>  <NsssP>
0

>  <NdsssP>
0

>  <NsssssP>
0

>  <NsSH>
0

>  <NdS>
0

>  <NssS>
0

>  <NaaS>
0

>  <NdssS>
0

>  <NddssS>
0

>  <NsCl>
0

>  <NsBr>
0

>  <NsI>
0

>  <fragCpx>
129.03

>  <fMF>
0.42

>  <nHBAcc>
3

>  <nHBDon>
1

>  <Kier1>
19.75

>  <Kier2>
9.8

>  <Lipinski>
1

>  <GhoseFilter>
1

>  <FilterItLogS>
-4.25

>  <VMcGowan>
279.88

>  <LabuteASA>
149.85

>  <PEOE_VSA1>
5.11

>  <PEOE_VSA2>
9.69

>  <PEOE_VSA3>
0

>  <PEOE_VSA4>
0

>  <PEOE_VSA5>
0

>  <PEOE_VSA6>
67.08

>  <PEOE_VSA7>
31.87

>  <PEOE_VSA8>
24.07

>  <PEOE_VSA9>
6.1

>  <PEOE_VSA10>
0

>  <PEOE_VSA11>
5.78

>  <PEOE_VSA12>
0

>  <PEOE_VSA13>
0

>  <SMR_VSA1>
9.9

>  <SMR_VSA2>
0

>  <SMR_VSA3>
4.9

>  <SMR_VSA4>
0

>  <SMR_VSA5>
50.29

>  <SMR_VSA6>
7.05

>  <SMR_VSA7>
71.79

>  <SMR_VSA8>
0

>  <SMR_VSA9>
0

>  <SlogP_VSA1>
0

>  <SlogP_VSA2>
34.92

>  <SlogP_VSA3>
0

>  <SlogP_VSA4>
0

>  <SlogP_VSA5>
54.13

>  <SlogP_VSA6>
60.66

>  <SlogP_VSA7>
0

>  <SlogP_VSA8>
0

>  <SlogP_VSA9>
0

>  <SlogP_VSA10>
0

>  <SlogP_VSA11>
0

>  <EState_VSA1>
6.1

>  <EState_VSA2>
11.83

>  <EState_VSA3>
12.46

>  <EState_VSA4>
36.81

>  <EState_VSA5>
0

>  <EState_VSA6>
0

>  <EState_VSA7>
60.66

>  <EState_VSA8>
11.95

>  <EState_VSA9>
0

>  <EState_VSA10>
9.9

>  <VSA_EState1>
0

>  <VSA_EState2>
14.85

>  <VSA_EState3>
10.54

>  <VSA_EState4>
1.76

>  <VSA_EState5>
0.21

>  <VSA_EState6>
19.96

>  <VSA_EState7>
4.07

>  <VSA_EState8>
0

>  <VSA_EState9>
2.1

>  <apol>
57.45

>  <bpol>
29.66

>  <nRing>
3

>  <nHRing>
1

>  <naRing>
2

>  <naHRing>
0

>  <nARing 2>
1

>  <nAHRing 2>
1

>  <nFRing>
0

>  <nFHRing>
0

>  <nFaRing>
0

>  <nFaHRing>
0

>  <nFARing 2>
0

>  <nFAHRing 2>
0

>  <nRot>
6

>  <SLogP>
4.24

>  <SMR>
100.6

>  <TopoPSA(NO)>
40.54

>  <TopoPSA>
40.54

>  <JGI1>
0.15

>  <JGI2>
0.08

>  <JGI3>
0.04

>  <JGI4>
0.04

>  <JGI5>
0.03

>  <Diameter>
14

>  <Radius>
7

>  <TMWC10>
126

>  <TSRW10>
59.41

>  <MW>
337.2

>  <AMW>
6.48

>  <WPath>
1634

>  <WPol>
37

>  <Zagreb1>
126

>  <Zagreb2>
145

>  <mZagreb2>
5.61

>  <yes>


>  <nAR-cont>
0.816016

>  <nHA-cont>
0.921834225

>  <MWHBN>
0.217829256

>  <MWHBN-cont>
0.996240184

>  <TPSA-cont>
0.717005626

>  <pka_cont>
0.97

>  <yes.1>


>  <BBB_SCORE>
5.151221754

>  <MMFF94 Energy>
76.178

$$$$
Compound 1374
Actelion Java MolfileCreator 2.0

  0  0  0  0  0  0              0 V3000
M  V30 BEGIN CTAB
M  V30 COUNTS 31 32 0 0 0
M  V30 BEGIN ATOM
M  V30 1 Cl 0.0 -3.9309 -2.0495 0
M  V30 2 C 0.0303 -2.5312 -1.0375 0
M  V30 3 C 0.141 -2.5745 0.3524 0
M  V30 4 C -0.0849 -1.288 -1.684 0
M  V30 5 S 0.3079 -4.098 1.2263 0
M  V30 6 C 0.1359 -1.383 1.0864 0
M  V30 7 C -0.0801 -0.0789 -0.974 0
M  V30 8 O 0.2704 -3.8257 2.6456 0
M  V30 9 O 1.3662 -4.8774 0.6327 0
M  V30 10 N -1.1382 -4.8844 0.9046 0
M  V30 11 C 0.0269 -0.1606 0.4128 0
M  V30 12 N -0.232 1.1072 -1.6603 0
M  V30 13 S -0.0257 1.3231 1.3496 0
M  V30 14 C -0.1338 2.4259 -1.0553 0 CFG=1
M  V30 15 O 1.3368 1.7515 1.5805 0
M  V30 16 O -0.945 1.1275 2.4498 0
M  V30 17 N -0.7379 2.4023 0.2786 0
M  V30 18 C 1.3137 2.9597 -1.1142 0
M  V30 19 C -1.0612 3.7224 0.8408 0
M  V30 20 Cl 1.7746 3.3545 -2.8031 0
M  V30 21 H -0.1846 -1.2677 -2.7683 0
M  V30 22 H 0.2117 -1.394 2.1734 0
M  V30 23 H -1.6454 -5.0495 1.7751 0
M  V30 24 H -0.9607 -5.732 0.363 0
M  V30 25 H -0.2045 1.0905 -2.6751 0
M  V30 26 H -0.7588 3.0872 -1.6706 0
M  V30 27 H 2.0441 2.2246 -0.767 0
M  V30 28 H 1.4324 3.8783 -0.5337 0
M  V30 29 H -1.5658 4.3428 0.0933 0
M  V30 30 H -1.7493 3.6162 1.685 0
M  V30 31 H -0.1608 4.2452 1.1753 0
M  V30 END ATOM
M  V30 BEGIN BOND
M  V30 1 1 1 2
M  V30 2 2 2 3
M  V30 3 1 2 4
M  V30 4 1 3 5
M  V30 5 1 3 6
M  V30 6 2 4 7
M  V30 7 2 5 8
M  V30 8 2 5 9
M  V30 9 1 5 10
M  V30 10 2 6 11
M  V30 11 1 7 12
M  V30 12 1 11 13
M  V30 13 1 12 14
M  V30 14 2 13 15
M  V30 15 2 13 16
M  V30 16 1 13 17
M  V30 17 1 14 18
M  V30 18 1 17 19
M  V30 19 1 18 20
M  V30 20 1 7 11
M  V30 21 1 14 17
M  V30 22 1 4 21
M  V30 23 1 6 22
M  V30 24 1 10 23
M  V30 25 1 10 24
M  V30 26 1 12 25
M  V30 27 1 14 26
M  V30 28 1 18 27
M  V30 29 1 18 28
M  V30 30 1 19 29
M  V30 31 1 19 30
M  V30 32 1 19 31
M  V30 END BOND
M  V30 BEGIN COLLECTION
M  V30 MDLV30/STERAC1 ATOMS=(1 14)
M  V30 END COLLECTION
M  V30 END CTAB
M  END
>  <Column 1>
1650

>  <level_0>
1805

>  <index>
1805

>  <Unnamed: 0>
1805

>  <NO.>
1817

>  <Name>
methyclothiazide

>  <IUPAC_name>
6-chloro-3-(chloromethyl)-2-methyl-1-1-dioxo-3-4-dihydro-1lambda6-2-4-benzothiadiazine-7-sulfonamide

>  <SMILES>
CN1C(CCl)Nc2cc(Cl)c(S(N)(=O)=O)cc2S1(=O)=O

>  <CID>
4121

>  <logBB>


>  <BBB+/BBB->
BBB-

>  <Inchi>
InChI=1S/C9H11Cl2N3O4S2/c1-14-9(4-10)13-6-2-5(11)7(19(12-15)16)3-8(6)20(14-17)18/h2-3-9-13H-4H2-1H3-(H2-12-15-16)

>  <threshold>
-1

>  <reference>
R1|R14|R23|R27|R30|

>  <group>
B

>  <Class>
-1

>  <ABC>
15.56

>  <ABCGG>
13.85

>  <nAcid>
0

>  <nBase>
0

>  <nAromAtom>
6

>  <nAromBond>
6

>  <nAtom>
31

>  <nHeavyAtom>
20

>  <nSpiro>
0

>  <nBridgehead>
0

>  <nHetero>
11

>  <nN>
3

>  <nO>
4

>  <nF>
0

>  <BalabanJ>
2.25

>  <BertzCT>
763.64

>  <nBonds>
32

>  <nBondsO>
21

>  <nBondsS>
22

>  <nBondsD>
4

>  <nBondsT>
0

>  <nBondsA>
6

>  <nBondsM>
10

>  <nBondsKS>
25

>  <nBondsKD>
7

>  <RNCG>
0.2

>  <RPCG>
0.13

>  <FCSP3>
0.33

>  <SZ>
30.67

>  <Sm>
29.99

>  <Sv>
21.67

>  <Sse>
32.88

>  <Sp>
23.37

>  <Si>
35.14

>  <MZ>
0.99

>  <Mm>
0.97

>  <Mv>
0.7

>  <Mse>
1.06

>  <Mp>
0.75

>  <Mi>
1.13

>  <NsCH3>
1

>  <NdCH2>
0

>  <NssCH2>
1

>  <NtCH>
0

>  <NdsCH>
0

>  <NaaCH>
2

>  <NsssCH>
1

>  <NddC>
0

>  <NtsC>
0

>  <NdssC>
0

>  <NaasC>
4

>  <NaaaC>
0

>  <NssssC>
0

>  <NsNH3>
0

>  <NsNH2>
1

>  <NssNH2>
0

>  <NdNH>
0

>  <NssNH>
1

>  <NaaNH>
0

>  <NtN>
0

>  <NsssNH>
0

>  <NdsN>
0

>  <NaaN>
0

>  <NsssN>
1

>  <NddsN>
0

>  <NaasN>
0

>  <NssssN>
0

>  <NsOH>
0

>  <NdO>
4

>  <NssO>
0

>  <NaaO>
0

>  <NsF>
0

>  <NsSiH3>
0

>  <NssSiH2>
0

>  <NsssSiH>
0

>  <NssssSi>
0

>  <NsPH2>
0

>  <NssPH>
0

>  <NsssP>
0

>  <NdsssP>
0

>  <NsssssP>
0

>  <NsSH>
0

>  <NdS>
0

>  <NssS>
0

>  <NaaS>
0

>  <NdssS>
0

>  <NddssS>
2

>  <NsCl>
2

>  <NsBr>
0

>  <NsI>
0

>  <fragCpx>
61.11

>  <fMF>
0.32

>  <nHBAcc>
5

>  <nHBDon>
2

>  <Kier1>
16.37

>  <Kier2>
5.33

>  <Lipinski>
1

>  <GhoseFilter>
1

>  <FilterItLogS>
-2.99

>  <VMcGowan>
213.65

>  <LabuteASA>
126.3

>  <PEOE_VSA1>
5.32

>  <PEOE_VSA2>
0

>  <PEOE_VSA3>
21.97

>  <PEOE_VSA4>
4.31

>  <PEOE_VSA5>
11.6

>  <PEOE_VSA6>
11.6

>  <PEOE_VSA7>
12.13

>  <PEOE_VSA8>
7.05

>  <PEOE_VSA9>
16.59

>  <PEOE_VSA10>
15.96

>  <PEOE_VSA11>
0

>  <PEOE_VSA12>
20.05

>  <PEOE_VSA13>
0

>  <SMR_VSA1>
16.84

>  <SMR_VSA2>
0

>  <SMR_VSA3>
4.31

>  <SMR_VSA4>
5.14

>  <SMR_VSA5>
15.96

>  <SMR_VSA6>
18.24

>  <SMR_VSA7>
17.16

>  <SMR_VSA8>
0

>  <SMR_VSA9>
0

>  <SlogP_VSA1>
10.46

>  <SlogP_VSA2>
40.23

>  <SlogP_VSA3>
20.05

>  <SlogP_VSA4>
0

>  <SlogP_VSA5>
0

>  <SlogP_VSA6>
21.92

>  <SlogP_VSA7>
5.02

>  <SlogP_VSA8>
0

>  <SlogP_VSA9>
0

>  <SlogP_VSA10>
5.69

>  <SlogP_VSA11>
0

>  <EState_VSA1>
31.11

>  <EState_VSA2>
21.49

>  <EState_VSA3>
0

>  <EState_VSA4>
10.37

>  <EState_VSA5>
13.11

>  <EState_VSA6>
0

>  <EState_VSA7>
0

>  <EState_VSA8>
5.32

>  <EState_VSA9>
28.34

>  <EState_VSA10>
16.84

>  <VSA_EState1>
48.43

>  <VSA_EState2>
-0.66

>  <VSA_EState3>
7.71

>  <VSA_EState4>
0.19

>  <VSA_EState5>
0.02

>  <VSA_EState6>
2.15

>  <VSA_EState7>
-0.65

>  <VSA_EState8>
0

>  <VSA_EState9>
-6.66

>  <apol>
39.03

>  <bpol>
27.08

>  <nRing>
2

>  <nHRing>
1

>  <naRing>
1

>  <naHRing>
0

>  <nARing 2>
1

>  <nAHRing 2>
1

>  <nFRing>
1

>  <nFHRing>
1

>  <nFaRing>
0

>  <nFaHRing>
0

>  <nFARing 2>
1

>  <nFAHRing 2>
1

>  <nRot>
2

>  <SLogP>
0.6

>  <SMR>
75.9

>  <TopoPSA(NO)>
109.57

>  <TopoPSA>
126.33

>  <JGI1>
0.36

>  <JGI2>
0.12

>  <JGI3>
0.08

>  <JGI4>
0.06

>  <JGI5>
0.05

>  <Diameter>
9

>  <Radius>
5

>  <TMWC10>
116.43

>  <TSRW10>
54.58

>  <MW>
358.96

>  <AMW>
11.58

>  <WPath>
720

>  <WPol>
38

>  <Zagreb1>
110

>  <Zagreb2>
133

>  <mZagreb2>
4.17

>  <yes>


>  <nAR-cont>
0.816016

>  <nHA-cont>
0.999629945

>  <MWHBN>
0.369466453

>  <MWHBN-cont>
0.59593708

>  <TPSA-cont>
0

>  <pka_cont>
0.97

>  <yes.1>


>  <BBB_SCORE>
3.194551565

>  <MMFF94 Energy>
-169.38

$$$$
Compound 1375
Actelion Java MolfileCreator 2.0

  0  0  0  0  0  0              0 V3000
M  V30 BEGIN CTAB
M  V30 COUNTS 38 39 0 0 0
M  V30 BEGIN ATOM
M  V30 1 Cl 1.5393 -3.0804 3.8516 0
M  V30 2 C 0.8827 -1.7299 2.9975 0
M  V30 3 C 1.118 -0.3986 3.3409 0
M  V30 4 C 0.0755 -2.0254 1.8848 0
M  V30 5 S 2.1008 0.0434 4.7373 0
M  V30 6 C 0.5471 0.6253 2.5774 0
M  V30 7 C -0.5039 -1.0186 1.0996 0
M  V30 8 O 1.6346 -0.6724 5.8993 0
M  V30 9 O 2.2782 1.4779 4.7471 0
M  V30 10 N 3.6147 -0.5665 4.3468 0
M  V30 11 C -0.2427 0.2987 1.4683 0
M  V30 12 N -1.2818 -1.3699 0.0179 0
M  V30 13 S -0.9837 1.5982 0.5475 0
M  V30 14 C -1.7832 -0.4339 -0.9775 0 CFG=1
M  V30 15 O 0.0085 2.0952 -0.3794 0
M  V30 16 O -1.6351 2.4859 1.4875 0
M  V30 17 N -2.1817 0.8022 -0.3111 0
M  V30 18 C -0.7613 -0.3217 -2.1421 0
M  V30 19 C -3.1221 1.6673 -1.0333 0
M  V30 20 S -1.4436 0.4074 -3.6809 0
M  V30 21 C -0.0789 0.0259 -4.8566 0
M  V30 22 C 1.3056 0.5645 -4.5241 0
M  V30 23 F 1.2986 1.8931 -4.2989 0
M  V30 24 F 1.8295 -0.0509 -3.4411 0
M  V30 25 F 2.1506 0.3321 -5.5574 0
M  V30 26 H -0.1014 -3.0689 1.6285 0
M  V30 27 H 0.7035 1.6723 2.8364 0
M  V30 28 H 3.8726 -1.3015 5.0074 0
M  V30 29 H 4.2914 0.1962 4.2949 0
M  V30 30 H -1.4963 -2.3483 -0.136 0
M  V30 31 H -2.6899 -0.9046 -1.3802 0
M  V30 32 H -0.4276 -1.3335 -2.4029 0
M  V30 33 H 0.1275 0.2343 -1.8445 0
M  V30 34 H -3.8356 1.0755 -1.6147 0
M  V30 35 H -2.6003 2.3536 -1.7055 0
M  V30 36 H -3.7071 2.2545 -0.318 0
M  V30 37 H -0.0321 -1.0616 -4.9736 0
M  V30 38 H -0.3883 0.4348 -5.8241 0
M  V30 END ATOM
M  V30 BEGIN BOND
M  V30 1 1 1 2
M  V30 2 2 2 3
M  V30 3 1 2 4
M  V30 4 1 3 5
M  V30 5 1 3 6
M  V30 6 2 4 7
M  V30 7 2 5 8
M  V30 8 2 5 9
M  V30 9 1 5 10
M  V30 10 2 6 11
M  V30 11 1 7 12
M  V30 12 1 11 13
M  V30 13 1 12 14
M  V30 14 2 13 15
M  V30 15 2 13 16
M  V30 16 1 13 17
M  V30 17 1 14 18
M  V30 18 1 17 19
M  V30 19 1 18 20
M  V30 20 1 20 21
M  V30 21 1 21 22
M  V30 22 1 22 23
M  V30 23 1 22 24
M  V30 24 1 22 25
M  V30 25 1 7 11
M  V30 26 1 14 17
M  V30 27 1 4 26
M  V30 28 1 6 27
M  V30 29 1 10 28
M  V30 30 1 10 29
M  V30 31 1 12 30
M  V30 32 1 14 31
M  V30 33 1 18 32
M  V30 34 1 18 33
M  V30 35 1 19 34
M  V30 36 1 19 35
M  V30 37 1 19 36
M  V30 38 1 21 37
M  V30 39 1 21 38
M  V30 END BOND
M  V30 BEGIN COLLECTION
M  V30 MDLV30/STERAC1 ATOMS=(1 14)
M  V30 END COLLECTION
M  V30 END CTAB
M  END
>  <Column 1>
1651

>  <level_0>
1806

>  <index>
1806

>  <Unnamed: 0>
1806

>  <NO.>
1818

>  <Name>
polythiazide

>  <IUPAC_name>
6-chloro-2-methyl-1-1-dioxo-3-(2-2-2-trifluoroethylsulfanylmethyl)-3-4-dihydro-1lambda6-2-4-benzothiadiazine-7-sulfonamide

>  <SMILES>
CN1C(CSCC(F)(F)F)Nc2cc(Cl)c(S(N)(=O)=O)cc2S1(=O)=O

>  <CID>
4870

>  <logBB>


>  <BBB+/BBB->
BBB-

>  <Inchi>
InChI=1S/C11H13ClF3N3O4S3/c1-18-10(4-23-5-11(13-14)15)17-7-2-6(12)8(24(16-19)20)3-9(7)25(18-21)22/h2-3-10-17H-4-5H2-1H3-(H2-16-19-20)

>  <threshold>
-1

>  <reference>
R1|R14|R23|R27|R30|

>  <group>
B

>  <Class>
1

>  <ABC>
19.57

>  <ABCGG>
16.53

>  <nAcid>
0

>  <nBase>
0

>  <nAromAtom>
6

>  <nAromBond>
6

>  <nAtom>
38

>  <nHeavyAtom>
25

>  <nSpiro>
0

>  <nBridgehead>
0

>  <nHetero>
14

>  <nN>
3

>  <nO>
4

>  <nF>
3

>  <BalabanJ>
2.09

>  <BertzCT>
889.81

>  <nBonds>
39

>  <nBondsO>
26

>  <nBondsS>
29

>  <nBondsD>
4

>  <nBondsT>
0

>  <nBondsA>
6

>  <nBondsM>
10

>  <nBondsKS>
32

>  <nBondsKD>
7

>  <RNCG>
0.15

>  <RPCG>
0.17

>  <FCSP3>
0.45

>  <SZ>
37.33

>  <Sm>
36.62

>  <Sv>
26.25

>  <Sse>
40.95

>  <Sp>
27.6

>  <Si>
43.96

>  <MZ>
0.98

>  <Mm>
0.96

>  <Mv>
0.69

>  <Mse>
1.08

>  <Mp>
0.73

>  <Mi>
1.16

>  <NsCH3>
1

>  <NdCH2>
0

>  <NssCH2>
2

>  <NtCH>
0

>  <NdsCH>
0

>  <NaaCH>
2

>  <NsssCH>
1

>  <NddC>
0

>  <NtsC>
0

>  <NdssC>
0

>  <NaasC>
4

>  <NaaaC>
0

>  <NssssC>
1

>  <NsNH3>
0

>  <NsNH2>
1

>  <NssNH2>
0

>  <NdNH>
0

>  <NssNH>
1

>  <NaaNH>
0

>  <NtN>
0

>  <NsssNH>
0

>  <NdsN>
0

>  <NaaN>
0

>  <NsssN>
1

>  <NddsN>
0

>  <NaasN>
0

>  <NssssN>
0

>  <NsOH>
0

>  <NdO>
4

>  <NssO>
0

>  <NaaO>
0

>  <NsF>
3

>  <NsSiH3>
0

>  <NssSiH2>
0

>  <NsssSiH>
0

>  <NssssSi>
0

>  <NsPH2>
0

>  <NssPH>
0

>  <NsssP>
0

>  <NdsssP>
0

>  <NsssssP>
0

>  <NsSH>
0

>  <NdS>
0

>  <NssS>
1

>  <NaaS>
0

>  <NdssS>
0

>  <NddssS>
2

>  <NsCl>
1

>  <NsBr>
0

>  <NsI>
0

>  <fragCpx>
76.14

>  <fMF>
0.26

>  <nHBAcc>
6

>  <nHBDon>
2

>  <Kier1>
21.3

>  <Kier2>
7.2

>  <Lipinski>
1

>  <GhoseFilter>
1

>  <FilterItLogS>
-3.71

>  <VMcGowan>
251.22

>  <LabuteASA>
151.34

>  <PEOE_VSA1>
5.32

>  <PEOE_VSA2>
0

>  <PEOE_VSA3>
21.97

>  <PEOE_VSA4>
17.48

>  <PEOE_VSA5>
11.76

>  <PEOE_VSA6>
11.6

>  <PEOE_VSA7>
12.13

>  <PEOE_VSA8>
12.8

>  <PEOE_VSA9>
16.46

>  <PEOE_VSA10>
15.96

>  <PEOE_VSA11>
0

>  <PEOE_VSA12>
20.05

>  <PEOE_VSA13>
0

>  <SMR_VSA1>
30.01

>  <SMR_VSA2>
0

>  <SMR_VSA3>
4.31

>  <SMR_VSA4>
5.14

>  <SMR_VSA5>
22.13

>  <SMR_VSA6>
23.87

>  <SMR_VSA7>
17.16

>  <SMR_VSA8>
0

>  <SMR_VSA9>
0

>  <SlogP_VSA1>
10.46

>  <SlogP_VSA2>
52.04

>  <SlogP_VSA3>
20.05

>  <SlogP_VSA4>
0

>  <SlogP_VSA5>
0

>  <SlogP_VSA6>
21.92

>  <SlogP_VSA7>
5.02

>  <SlogP_VSA8>
0

>  <SlogP_VSA9>
0

>  <SlogP_VSA10>
18.86

>  <SlogP_VSA11>
0

>  <EState_VSA1>
43.04

>  <EState_VSA2>
21.36

>  <EState_VSA3>
11.76

>  <EState_VSA4>
16.44

>  <EState_VSA5>
7.05

>  <EState_VSA6>
0

>  <EState_VSA7>
0

>  <EState_VSA8>
5.32

>  <EState_VSA9>
16.74

>  <EState_VSA10>
30.01

>  <VSA_EState1>
85.63

>  <VSA_EState2>
-0.93

>  <VSA_EState3>
7.45

>  <VSA_EState4>
-0.01

>  <VSA_EState5>
-1.31

>  <VSA_EState6>
1.9

>  <VSA_EState7>
-5.33

>  <VSA_EState8>
0

>  <VSA_EState9>
-7.21

>  <apol>
46.1

>  <bpol>
34.37

>  <nRing>
2

>  <nHRing>
1

>  <naRing>
1

>  <naHRing>
0

>  <nARing 2>
1

>  <nAHRing 2>
1

>  <nFRing>
1

>  <nFHRing>
1

>  <nFaRing>
0

>  <nFaHRing>
0

>  <nFARing 2>
1

>  <nFAHRing 2>
1

>  <nRot>
4

>  <SLogP>
1.66

>  <SMR>
88.56

>  <TopoPSA(NO)>
109.57

>  <TopoPSA>
151.63

>  <JGI1>
0.38

>  <JGI2>
0.11

>  <JGI3>
0.07

>  <JGI4>
0.05

>  <JGI5>
0.05

>  <Diameter>
12

>  <Radius>
6

>  <TMWC10>
127.72

>  <TSRW10>
60.45

>  <MW>
438.97

>  <AMW>
11.55

>  <WPath>
1486

>  <WPol>
43

>  <Zagreb1>
136

>  <Zagreb2>
159

>  <mZagreb2>
5.04

>  <yes>


>  <nAR-cont>
0.816016

>  <nHA-cont>
0.921834225

>  <MWHBN>
0.381832215

>  <MWHBN-cont>
0.547611482

>  <TPSA-cont>
0

>  <pka_cont>
0.97

>  <yes.1>


>  <BBB_SCORE>
3.044267448

>  <MMFF94 Energy>
-126.32

$$$$
Compound 1376
Actelion Java MolfileCreator 2.0

  0  0  0  0  0  0              0 V3000
M  V30 BEGIN CTAB
M  V30 COUNTS 47 49 0 0 0
M  V30 BEGIN ATOM
M  V30 1 O 1.1148 1.9117 1.2742 0
M  V30 2 C 0.0347 1.5223 0.8472 0
M  V30 3 O -0.3284 0.2068 0.7697 0
M  V30 4 C -1.0882 2.4311 0.3171 0
M  V30 5 C 0.6692 -0.7599 1.1519 0
M  V30 6 C -1.3536 2.1443 -1.1741 0
M  V30 7 C -2.2861 2.1672 1.2707 0
M  V30 8 C -0.6481 3.9054 0.4456 0
M  V30 9 C -0.0549 -2.0687 1.4984 0
M  V30 10 C 1.6889 -0.9519 0.0189 0
M  V30 11 C -0.2707 2.0172 -2.0685 0
M  V30 12 C -2.6496 2.033 -1.7024 0
M  V30 13 O -3.2818 3.1887 1.2046 0
M  V30 14 C 0.8891 -3.2829 1.4936 0
M  V30 15 C 2.4713 -2.2697 0.1509 0
M  V30 16 C -0.4773 1.7588 -3.4253 0
M  V30 17 C -2.8554 1.7755 -3.0612 0
M  V30 18 N 1.5849 -3.4362 0.2126 0
M  V30 19 C 2.0961 -3.0647 2.4156 0
M  V30 20 C 3.1479 -2.3893 1.5231 0
M  V30 21 C -1.7706 1.6339 -3.921 0
M  V30 22 C 0.7415 -3.6549 -0.9486 0
M  V30 23 H 1.1794 -0.407 2.0577 0
M  V30 24 H -1.9415 2.1332 2.3119 0
M  V30 25 H -2.7681 1.2059 1.0569 0
M  V30 26 H 0.2886 4.0989 -0.0905 0
M  V30 27 H -0.4772 4.1764 1.4943 0
M  V30 28 H -1.4012 4.5901 0.0387 0
M  V30 29 H -0.5198 -1.9626 2.4872 0
M  V30 30 H -0.8924 -2.2316 0.8086 0
M  V30 31 H 1.1846 -0.8996 -0.9538 0
M  V30 32 H 2.3917 -0.1094 0.0202 0
M  V30 33 H 0.7548 2.1236 -1.7178 0
M  V30 34 H -3.5274 2.1582 -1.0738 0
M  V30 35 H -3.9667 2.9664 1.8591 0
M  V30 36 H 0.344 -4.1899 1.7764 0
M  V30 37 H 3.2089 -2.3566 -0.654 0
M  V30 38 H 0.3732 1.6619 -4.0947 0
M  V30 39 H -3.8681 1.694 -3.4477 0
M  V30 40 H 1.8569 -2.4598 3.2964 0
M  V30 41 H 2.4875 -4.0261 2.7707 0
M  V30 42 H 4.0346 -3.0321 1.4601 0
M  V30 43 H 3.4678 -1.4231 1.927 0
M  V30 44 H -1.9339 1.4373 -4.9769 0
M  V30 45 H 0.156 -4.5717 -0.8191 0
M  V30 46 H 0.043 -2.8401 -1.1587 0
M  V30 47 H 1.3616 -3.8013 -1.8397 0
M  V30 END ATOM
M  V30 BEGIN BOND
M  V30 1 2 1 2
M  V30 2 1 2 3
M  V30 3 1 2 4
M  V30 4 1 3 5
M  V30 5 1 4 6
M  V30 6 1 4 7
M  V30 7 1 4 8
M  V30 8 1 5 9
M  V30 9 1 5 10
M  V30 10 2 6 11
M  V30 11 1 6 12
M  V30 12 1 7 13
M  V30 13 1 9 14
M  V30 14 1 10 15
M  V30 15 1 11 16
M  V30 16 2 12 17
M  V30 17 1 14 18
M  V30 18 1 14 19
M  V30 19 1 15 20
M  V30 20 2 16 21
M  V30 21 1 18 22
M  V30 22 1 15 18
M  V30 23 1 17 21
M  V30 24 1 19 20
M  V30 25 1 5 23
M  V30 26 1 7 24
M  V30 27 1 7 25
M  V30 28 1 8 26
M  V30 29 1 8 27
M  V30 30 1 8 28
M  V30 31 1 9 29
M  V30 32 1 9 30
M  V30 33 1 10 31
M  V30 34 1 10 32
M  V30 35 1 11 33
M  V30 36 1 12 34
M  V30 37 1 13 35
M  V30 38 1 14 36
M  V30 39 1 15 37
M  V30 40 1 16 38
M  V30 41 1 17 39
M  V30 42 1 19 40
M  V30 43 1 19 41
M  V30 44 1 20 42
M  V30 45 1 20 43
M  V30 46 1 21 44
M  V30 47 1 22 45
M  V30 48 1 22 46
M  V30 49 1 22 47
M  V30 END BOND
M  V30 END CTAB
M  END
>  <Column 1>
1652

>  <level_0>
1807

>  <index>
1807

>  <Unnamed: 0>
1807

>  <NO.>
1819

>  <Name>
atromepine

>  <IUPAC_name>
(8-methyl-8-azabicyclo[3.2.1]octan-3-yl) 3-hydroxy-2-methyl-2-phenylpropanoate

>  <SMILES>
CN1C2CCC1CC(OC(=O)C(C)(CO)c1ccccc1)C2

>  <CID>
71626

>  <logBB>


>  <BBB+/BBB->
BBB+

>  <Inchi>
InChI=1S/C18H25NO3/c1-18(12-20-13-6-4-3-5-7-13)17(21)22-16-10-14-8-9-15(11-16)19(14)2/h3-7-14-16-20H-8-12H2-1-2H3

>  <threshold>
-1

>  <reference>
R1|R19|R6|R27|R27|R30|

>  <group>
B

>  <Class>
1

>  <ABC>
17.14

>  <ABCGG>
14.88

>  <nAcid>
0

>  <nBase>
1

>  <nAromAtom>
6

>  <nAromBond>
6

>  <nAtom>
47

>  <nHeavyAtom>
22

>  <nSpiro>
0

>  <nBridgehead>
2

>  <nHetero>
4

>  <nN>
1

>  <nO>
3

>  <nF>
0

>  <BalabanJ>
1.61

>  <BertzCT>
518.39

>  <nBonds>
49

>  <nBondsO>
24

>  <nBondsS>
42

>  <nBondsD>
1

>  <nBondsT>
0

>  <nBondsA>
6

>  <nBondsM>
7

>  <nBondsKS>
45

>  <nBondsKD>
4

>  <RNCG>
0.25

>  <RPCG>
0.17

>  <FCSP3>
0.61

>  <SZ>
27.33

>  <Sm>
25.26

>  <Sv>
27.68

>  <Sse>
46.75

>  <Sp>
30.08

>  <Si>
53.11

>  <MZ>
0.58

>  <Mm>
0.54

>  <Mv>
0.59

>  <Mse>
0.99

>  <Mp>
0.64

>  <Mi>
1.13

>  <NsCH3>
2

>  <NdCH2>
0

>  <NssCH2>
5

>  <NtCH>
0

>  <NdsCH>
0

>  <NaaCH>
5

>  <NsssCH>
3

>  <NddC>
0

>  <NtsC>
0

>  <NdssC>
1

>  <NaasC>
1

>  <NaaaC>
0

>  <NssssC>
1

>  <NsNH3>
0

>  <NsNH2>
0

>  <NssNH2>
0

>  <NdNH>
0

>  <NssNH>
0

>  <NaaNH>
0

>  <NtN>
0

>  <NsssNH>
0

>  <NdsN>
0

>  <NaaN>
0

>  <NsssN>
1

>  <NddsN>
0

>  <NaasN>
0

>  <NssssN>
0

>  <NsOH>
1

>  <NdO>
1

>  <NssO>
1

>  <NaaO>
0

>  <NsF>
0

>  <NsSiH3>
0

>  <NssSiH2>
0

>  <NsssSiH>
0

>  <NssssSi>
0

>  <NsPH2>
0

>  <NssPH>
0

>  <NsssP>
0

>  <NdsssP>
0

>  <NsssssP>
0

>  <NsSH>
0

>  <NdS>
0

>  <NssS>
0

>  <NaaS>
0

>  <NdssS>
0

>  <NddssS>
0

>  <NsCl>
0

>  <NsBr>
0

>  <NsI>
0

>  <fragCpx>
114.04

>  <fMF>
0.36

>  <nHBAcc>
4

>  <nHBDon>
1

>  <Kier1>
16.84

>  <Kier2>
6.86

>  <Lipinski>
1

>  <GhoseFilter>
1

>  <FilterItLogS>
-2.55

>  <VMcGowan>
242.29

>  <LabuteASA>
131.63

>  <PEOE_VSA1>
14.74

>  <PEOE_VSA2>
4.79

>  <PEOE_VSA3>
0

>  <PEOE_VSA4>
0

>  <PEOE_VSA5>
0

>  <PEOE_VSA6>
30.33

>  <PEOE_VSA7>
45.22

>  <PEOE_VSA8>
12.08

>  <PEOE_VSA9>
6.61

>  <PEOE_VSA10>
11.52

>  <PEOE_VSA11>
0

>  <PEOE_VSA12>
0

>  <PEOE_VSA13>
0

>  <SMR_VSA1>
14.64

>  <SMR_VSA2>
0

>  <SMR_VSA3>
4.9

>  <SMR_VSA4>
0

>  <SMR_VSA5>
56.21

>  <SMR_VSA6>
13.65

>  <SMR_VSA7>
35.9

>  <SMR_VSA8>
0

>  <SMR_VSA9>
0

>  <SlogP_VSA1>
0

>  <SlogP_VSA2>
47.82

>  <SlogP_VSA3>
14.95

>  <SlogP_VSA4>
0

>  <SlogP_VSA5>
38.17

>  <SlogP_VSA6>
30.33

>  <SlogP_VSA7>
0

>  <SlogP_VSA8>
0

>  <SlogP_VSA9>
0

>  <SlogP_VSA10>
0

>  <SlogP_VSA11>
0

>  <EState_VSA1>
5.41

>  <EState_VSA2>
18.68

>  <EState_VSA3>
12.08

>  <EState_VSA4>
18.41

>  <EState_VSA5>
12.84

>  <EState_VSA6>
6.92

>  <EState_VSA7>
30.33

>  <EState_VSA8>
11.95

>  <EState_VSA9>
4.74

>  <EState_VSA10>
9.9

>  <VSA_EState1>
5.81

>  <VSA_EState2>
15.11

>  <VSA_EState3>
9.79

>  <VSA_EState4>
-0.18

>  <VSA_EState5>
-0.31

>  <VSA_EState6>
10.48

>  <VSA_EState7>
4.2

>  <VSA_EState8>
1.52

>  <VSA_EState9>
2.17

>  <apol>
50.24

>  <bpol>
29.39

>  <nRing>
3

>  <nHRing>
2

>  <naRing>
1

>  <naHRing>
0

>  <nARing 2>
2

>  <nAHRing 2>
2

>  <nFRing>
1

>  <nFHRing>
1

>  <nFaRing>
0

>  <nFaHRing>
0

>  <nFARing 2>
1

>  <nFAHRing 2>
1

>  <nRot>
4

>  <SLogP>
2.11

>  <SMR>
84.57

>  <TopoPSA(NO)>
49.77

>  <TopoPSA>
49.77

>  <JGI1>
0.23

>  <JGI2>
0.1

>  <JGI3>
0.06

>  <JGI4>
0.04

>  <JGI5>
0.03

>  <Diameter>
11

>  <Radius>
6

>  <TMWC10>
121.03

>  <TSRW10>
70.75

>  <MW>
303.18

>  <AMW>
6.45

>  <WPath>
1049

>  <WPol>
37

>  <Zagreb1>
118

>  <Zagreb2>
142

>  <mZagreb2>
4.85

>  <yes>


>  <nAR-cont>
1

>  <nHA-cont>
0.983774276

>  <MWHBN>
0.287157213

>  <MWHBN-cont>
0.877334246

>  <TPSA-cont>
0.652574495

>  <pka_cont>
0.97

>  <yes.1>


>  <BBB_SCORE>
5.089924634

>  <MMFF94 Energy>
63.422

$$$$
Compound 1377
Actelion Java MolfileCreator 2.0

  0  0  0  0  0  0              0 V3000
M  V30 BEGIN CTAB
M  V30 COUNTS 48 51 0 0 0
M  V30 BEGIN ATOM
M  V30 1 O -0.6388 -0.0798 0.1596 0
M  V30 2 C 0.2873 1.0081 0.2433 0
M  V30 3 C -0.0483 -1.3341 -0.2192 0
M  V30 4 C -0.5075 2.3107 0.0687 0
M  V30 5 C 1.0454 0.9814 1.5805 0
M  V30 6 C -0.8481 -2.4852 0.3801 0
M  V30 7 C 0.0406 -1.4182 -1.7359 0
M  V30 8 C 0.2683 3.5475 0.5525 0
M  V30 9 C 1.6763 2.3423 1.9276 0
M  V30 10 C -2.187 -2.3326 0.7758 0
M  V30 11 C -0.2489 -3.7483 0.5282 0
M  V30 12 C -1.0556 -1.0792 -2.5454 0
M  V30 13 C 1.2263 -1.8474 -2.3541 0
M  V30 14 N 0.6892 3.4256 1.9524 0
M  V30 15 C 1.6442 3.6501 -0.1191 0
M  V30 16 C 2.5814 2.8479 0.7958 0
M  V30 17 C -2.9013 -3.406 1.3124 0
M  V30 18 C -0.9645 -4.8211 1.0643 0
M  V30 19 C -0.967 -1.1612 -3.9357 0
M  V30 20 C 1.3128 -1.9288 -3.7453 0
M  V30 21 C -0.38 3.2862 2.9252 0
M  V30 22 C -2.2898 -4.649 1.4573 0
M  V30 23 C 0.217 -1.5852 -4.5348 0
M  V30 24 H 1.0044 0.9366 -0.5843 0
M  V30 25 H 0.9582 -1.3892 0.2146 0
M  V30 26 H -1.4727 2.2374 0.5856 0
M  V30 27 H -0.7642 2.4253 -0.9925 0
M  V30 28 H 0.3771 0.6493 2.3845 0
M  V30 29 H 1.8353 0.2216 1.5337 0
M  V30 30 H -0.3172 4.4567 0.3778 0
M  V30 31 H 2.2337 2.2736 2.8681 0
M  V30 32 H -2.6829 -1.3699 0.6675 0
M  V30 33 H 0.7821 -3.9055 0.2201 0
M  V30 34 H -1.9857 -0.7472 -2.0879 0
M  V30 35 H 2.0914 -2.1227 -1.7556 0
M  V30 36 H 1.979 4.6945 -0.1527 0
M  V30 37 H 1.648 3.2686 -1.1454 0
M  V30 38 H 3.0846 2.0381 0.2575 0
M  V30 39 H 3.3573 3.5146 1.1923 0
M  V30 40 H -3.9362 -3.2697 1.615 0
M  V30 41 H -0.4884 -5.7921 1.1714 0
M  V30 42 H -1.8238 -0.896 -4.5494 0
M  V30 43 H 2.2348 -2.2628 -4.214 0
M  V30 44 H -1.0023 2.3974 2.7881 0
M  V30 45 H -1.0364 4.1627 2.8888 0
M  V30 46 H 0.0374 3.2483 3.9374 0
M  V30 47 H -2.8474 -5.4839 1.873 0
M  V30 48 H 0.2843 -1.6507 -5.6175 0
M  V30 END ATOM
M  V30 BEGIN BOND
M  V30 1 1 1 2
M  V30 2 1 1 3
M  V30 3 1 2 4
M  V30 4 1 2 5
M  V30 5 1 3 6
M  V30 6 1 3 7
M  V30 7 1 4 8
M  V30 8 1 5 9
M  V30 9 2 6 10
M  V30 10 1 6 11
M  V30 11 2 7 12
M  V30 12 1 7 13
M  V30 13 1 8 14
M  V30 14 1 8 15
M  V30 15 1 9 16
M  V30 16 1 10 17
M  V30 17 2 11 18
M  V30 18 1 12 19
M  V30 19 2 13 20
M  V30 20 1 14 21
M  V30 21 2 17 22
M  V30 22 2 19 23
M  V30 23 1 9 14
M  V30 24 1 15 16
M  V30 25 1 18 22
M  V30 26 1 20 23
M  V30 27 1 2 24
M  V30 28 1 3 25
M  V30 29 1 4 26
M  V30 30 1 4 27
M  V30 31 1 5 28
M  V30 32 1 5 29
M  V30 33 1 8 30
M  V30 34 1 9 31
M  V30 35 1 10 32
M  V30 36 1 11 33
M  V30 37 1 12 34
M  V30 38 1 13 35
M  V30 39 1 15 36
M  V30 40 1 15 37
M  V30 41 1 16 38
M  V30 42 1 16 39
M  V30 43 1 17 40
M  V30 44 1 18 41
M  V30 45 1 19 42
M  V30 46 1 20 43
M  V30 47 1 21 44
M  V30 48 1 21 45
M  V30 49 1 21 46
M  V30 50 1 22 47
M  V30 51 1 23 48
M  V30 END BOND
M  V30 END CTAB
M  END
>  <Column 1>
1653

>  <level_0>
1809

>  <index>
1809

>  <Unnamed: 0>
1809

>  <NO.>
1821

>  <Name>
benztropine (benzatropine)

>  <IUPAC_name>
3-benzhydryloxy-8-methyl-8-azabicyclo[3.2.1]octane;sulfuric acid

>  <SMILES>
CN1C2CCC1CC(OC(c1ccccc1)c1ccccc1)C2

>  <CID>
2344

>  <logBB>


>  <BBB+/BBB->
BBB+

>  <Inchi>
InChI=1S/C21H25NO/c1-22-18-12-13-19(22)15-20(14-18)23-21(16-8-4-2-5-9-16)17-10-6-3-7-11-17/h2-11-18-21H-12-15H2-1H3

>  <threshold>
-1

>  <reference>
R1|R19|R14|R23|R26|R27|R27|R30|

>  <group>
B

>  <Class>
1

>  <ABC>
18.33

>  <ABCGG>
14.81

>  <nAcid>
0

>  <nBase>
1

>  <nAromAtom>
12

>  <nAromBond>
12

>  <nAtom>
48

>  <nHeavyAtom>
23

>  <nSpiro>
0

>  <nBridgehead>
2

>  <nHetero>
2

>  <nN>
1

>  <nO>
1

>  <nF>
0

>  <BalabanJ>
1.42

>  <BertzCT>
573.3

>  <nBonds>
51

>  <nBondsO>
26

>  <nBondsS>
39

>  <nBondsD>
0

>  <nBondsT>
0

>  <nBondsA>
12

>  <nBondsM>
12

>  <nBondsKS>
45

>  <nBondsKD>
6

>  <RNCG>
0.26

>  <RPCG>
0.08

>  <FCSP3>
0.43

>  <SZ>
27.67

>  <Sm>
25.6

>  <Sv>
29.25

>  <Sse>
47.09

>  <Sp>
32.12

>  <Si>
53.69

>  <MZ>
0.58

>  <Mm>
0.53

>  <Mv>
0.61

>  <Mse>
0.98

>  <Mp>
0.67

>  <Mi>
1.12

>  <NsCH3>
1

>  <NdCH2>
0

>  <NssCH2>
4

>  <NtCH>
0

>  <NdsCH>
0

>  <NaaCH>
10

>  <NsssCH>
4

>  <NddC>
0

>  <NtsC>
0

>  <NdssC>
0

>  <NaasC>
2

>  <NaaaC>
0

>  <NssssC>
0

>  <NsNH3>
0

>  <NsNH2>
0

>  <NssNH2>
0

>  <NdNH>
0

>  <NssNH>
0

>  <NaaNH>
0

>  <NtN>
0

>  <NsssNH>
0

>  <NdsN>
0

>  <NaaN>
0

>  <NsssN>
1

>  <NddsN>
0

>  <NaasN>
0

>  <NssssN>
0

>  <NsOH>
0

>  <NdO>
0

>  <NssO>
1

>  <NaaO>
0

>  <NsF>
0

>  <NsSiH3>
0

>  <NssSiH2>
0

>  <NsssSiH>
0

>  <NssssSi>
0

>  <NsPH2>
0

>  <NssPH>
0

>  <NsssP>
0

>  <NdsssP>
0

>  <NsssssP>
0

>  <NsSH>
0

>  <NdS>
0

>  <NssS>
0

>  <NaaS>
0

>  <NdssS>
0

>  <NddssS>
0

>  <NsCl>
0

>  <NsBr>
0

>  <NsI>
0

>  <fragCpx>
170.02

>  <fMF>
0.46

>  <nHBAcc>
2

>  <nHBDon>
0

>  <Kier1>
16.47

>  <Kier2>
7.49

>  <Lipinski>
1

>  <GhoseFilter>
1

>  <FilterItLogS>
-4.15

>  <VMcGowan>
253.36

>  <LabuteASA>
138.63

>  <PEOE_VSA1>
9.64

>  <PEOE_VSA2>
0

>  <PEOE_VSA3>
0

>  <PEOE_VSA4>
0

>  <PEOE_VSA5>
0

>  <PEOE_VSA6>
60.66

>  <PEOE_VSA7>
43.86

>  <PEOE_VSA8>
12.08

>  <PEOE_VSA9>
6.1

>  <PEOE_VSA10>
6.1

>  <PEOE_VSA11>
0

>  <PEOE_VSA12>
0

>  <PEOE_VSA13>
0

>  <SMR_VSA1>
4.74

>  <SMR_VSA2>
0

>  <SMR_VSA3>
4.9

>  <SMR_VSA4>
0

>  <SMR_VSA5>
49.97

>  <SMR_VSA6>
7.05

>  <SMR_VSA7>
71.79

>  <SMR_VSA8>
0

>  <SMR_VSA9>
0

>  <SlogP_VSA1>
0

>  <SlogP_VSA2>
30.14

>  <SlogP_VSA3>
4.74

>  <SlogP_VSA4>
0

>  <SlogP_VSA5>
42.91

>  <SlogP_VSA6>
60.66

>  <SlogP_VSA7>
0

>  <SlogP_VSA8>
0

>  <SlogP_VSA9>
0

>  <SlogP_VSA10>
0

>  <SlogP_VSA11>
0

>  <EState_VSA1>
0

>  <EState_VSA2>
6.1

>  <EState_VSA3>
18.19

>  <EState_VSA4>
0

>  <EState_VSA5>
36.81

>  <EState_VSA6>
0

>  <EState_VSA7>
0

>  <EState_VSA8>
72.61

>  <EState_VSA9>
4.74

>  <EState_VSA10>
0

>  <VSA_EState1>
6.67

>  <VSA_EState2>
2.57

>  <VSA_EState3>
0

>  <VSA_EState4>
2.51

>  <VSA_EState5>
0

>  <VSA_EState6>
22.71

>  <VSA_EState7>
5.43

>  <VSA_EState8>
0

>  <VSA_EState9>
2.28

>  <apol>
53.64

>  <bpol>
28.53

>  <nRing>
4

>  <nHRing>
2

>  <naRing>
2

>  <naHRing>
0

>  <nARing 2>
2

>  <nAHRing 2>
2

>  <nFRing>
1

>  <nFHRing>
1

>  <nFaRing>
0

>  <nFaHRing>
0

>  <nFARing 2>
1

>  <nFAHRing 2>
1

>  <nRot>
4

>  <SLogP>
4.42

>  <SMR>
93.41

>  <TopoPSA(NO)>
12.47

>  <TopoPSA>
12.47

>  <JGI1>
0.13

>  <JGI2>
0.06

>  <JGI3>
0.04

>  <JGI4>
0.03

>  <JGI5>
0.01

>  <Diameter>
10

>  <Radius>
5

>  <TMWC10>
123.98

>  <TSRW10>
71.74

>  <MW>
307.19

>  <AMW>
6.4

>  <WPath>
1161

>  <WPol>
35

>  <Zagreb1>
124

>  <Zagreb2>
147

>  <mZagreb2>
5.03

>  <yes>


>  <nAR-cont>
1

>  <nHA-cont>
0.967789328

>  <MWHBN>
0.114110723

>  <MWHBN-cont>
0.802920154

>  <TPSA-cont>
0.912951657

>  <pka_cont>
0.97

>  <yes.1>


>  <BBB_SCORE>
5.483072872

>  <MMFF94 Energy>
73.422

$$$$
Compound 1378
Actelion Java MolfileCreator 2.0

  0  0  0  0  0  0              0 V3000
M  V30 BEGIN CTAB
M  V30 COUNTS 29 30 0 0 0
M  V30 BEGIN ATOM
M  V30 1 Cl -2.7973 -3.8379 -3.2775 0
M  V30 2 C -3.0472 -2.8236 -1.908 0
M  V30 3 C -2.0054 -2.0176 -1.4426 0
M  V30 4 C -4.2897 -2.8183 -1.2779 0
M  V30 5 C -2.2035 -1.1938 -0.3327 0
M  V30 6 C -4.4946 -1.999 -0.1708 0
M  V30 7 N -1.2175 -0.3509 0.2047 0
M  V30 8 C -3.4557 -1.1911 0.2981 0
M  V30 9 C 0.0759 -0.1649 -0.1964 0
M  V30 10 O 0.6257 -0.7263 -1.1359 0
M  V30 11 N 0.6645 0.7571 0.6268 0
M  V30 12 C 1.8972 1.0911 0.4557 0
M  V30 13 N 2.5913 1.9958 1.2103 0
M  V30 14 N 2.7251 0.6092 -0.5035 0
M  V30 15 C 3.9483 2.1713 0.7143 0
M  V30 16 C 2.0567 2.8236 2.254 0
M  V30 17 C 3.9691 1.1782 -0.4447 0
M  V30 18 O 4.9123 0.9426 -1.1821 0
M  V30 19 H -1.0541 -2.0516 -1.9628 0
M  V30 20 H -5.0967 -3.4473 -1.6441 0
M  V30 21 H -5.4609 -1.9882 0.3271 0
M  V30 22 H -1.4503 0.2177 1.0062 0
M  V30 23 H -3.6388 -0.5595 1.1644 0
M  V30 24 H 2.4414 -0.0827 -1.1858 0
M  V30 25 H 4.1145 3.1844 0.3388 0
M  V30 26 H 4.6914 1.8886 1.4641 0
M  V30 27 H 1.4778 3.6485 1.827 0
M  V30 28 H 2.857 3.2496 2.8681 0
M  V30 29 H 1.4029 2.2466 2.916 0
M  V30 END ATOM
M  V30 BEGIN BOND
M  V30 1 1 1 2
M  V30 2 2 2 3
M  V30 3 1 2 4
M  V30 4 1 3 5
M  V30 5 2 4 6
M  V30 6 1 5 7
M  V30 7 2 5 8
M  V30 8 1 7 9
M  V30 9 2 9 10
M  V30 10 1 9 11
M  V30 11 2 11 12
M  V30 12 1 12 13
M  V30 13 1 12 14
M  V30 14 1 13 15
M  V30 15 1 13 16
M  V30 16 1 14 17
M  V30 17 2 17 18
M  V30 18 1 6 8
M  V30 19 1 15 17
M  V30 20 1 3 19
M  V30 21 1 4 20
M  V30 22 1 6 21
M  V30 23 1 7 22
M  V30 24 1 8 23
M  V30 25 1 14 24
M  V30 26 1 15 25
M  V30 27 1 15 26
M  V30 28 1 16 27
M  V30 29 1 16 28
M  V30 30 1 16 29
M  V30 END BOND
M  V30 END CTAB
M  END
>  <Column 1>
1654

>  <level_0>
1810

>  <index>
1810

>  <Unnamed: 0>
1810

>  <NO.>
1822

>  <Name>
fenobam

>  <IUPAC_name>
1-(3-chlorophenyl)-3-(1-methyl-4-oxoimidazolidin-2-ylidene)urea

>  <SMILES>
CN1CC(=O)NC1=NC(=O)Nc1cccc(Cl)c1

>  <CID>
135497698

>  <logBB>


>  <BBB+/BBB->
BBB+

>  <Inchi>
InChI=1S/C11H11ClN4O2/c1-16-6-9(17)14-10(16)15-11(18)13-8-4-2-3-7(12)5-8/h2-5H-6H2-1H3-(H2-13-14-15-17-18)

>  <threshold>
-1

>  <reference>
R1|R13|R19|R6|R24|R27|R27|R27|R30|R30|

>  <group>
B

>  <Class>
1

>  <ABC>
13.83

>  <ABCGG>
12.08

>  <nAcid>
0

>  <nBase>
3

>  <nAromAtom>
6

>  <nAromBond>
6

>  <nAtom>
29

>  <nHeavyAtom>
18

>  <nSpiro>
0

>  <nBridgehead>
0

>  <nHetero>
7

>  <nN>
4

>  <nO>
2

>  <nF>
0

>  <BalabanJ>
1.73

>  <BertzCT>
529.53

>  <nBonds>
30

>  <nBondsO>
19

>  <nBondsS>
21

>  <nBondsD>
3

>  <nBondsT>
0

>  <nBondsA>
6

>  <nBondsM>
9

>  <nBondsKS>
24

>  <nBondsKD>
6

>  <RNCG>
0.18

>  <RPCG>
0.19

>  <FCSP3>
0.18

>  <SZ>
23

>  <Sm>
22.2

>  <Sv>
19.53

>  <Sse>
29.96

>  <Sp>
20.29

>  <Si>
33.02

>  <MZ>
0.79

>  <Mm>
0.77

>  <Mv>
0.67

>  <Mse>
1.03

>  <Mp>
0.7

>  <Mi>
1.14

>  <NsCH3>
1

>  <NdCH2>
0

>  <NssCH2>
1

>  <NtCH>
0

>  <NdsCH>
0

>  <NaaCH>
4

>  <NsssCH>
0

>  <NddC>
0

>  <NtsC>
0

>  <NdssC>
3

>  <NaasC>
2

>  <NaaaC>
0

>  <NssssC>
0

>  <NsNH3>
0

>  <NsNH2>
0

>  <NssNH2>
0

>  <NdNH>
0

>  <NssNH>
2

>  <NaaNH>
0

>  <NtN>
0

>  <NsssNH>
0

>  <NdsN>
1

>  <NaaN>
0

>  <NsssN>
1

>  <NddsN>
0

>  <NaasN>
0

>  <NssssN>
0

>  <NsOH>
0

>  <NdO>
2

>  <NssO>
0

>  <NaaO>
0

>  <NsF>
0

>  <NsSiH3>
0

>  <NssSiH2>
0

>  <NsssSiH>
0

>  <NssssSi>
0

>  <NsPH2>
0

>  <NssPH>
0

>  <NsssP>
0

>  <NdsssP>
0

>  <NsssssP>
0

>  <NsSH>
0

>  <NdS>
0

>  <NssS>
0

>  <NaaS>
0

>  <NdssS>
0

>  <NddssS>
0

>  <NsCl>
1

>  <NsBr>
0

>  <NsI>
0

>  <fragCpx>
55.07

>  <fMF>
0.48

>  <nHBAcc>
2

>  <nHBDon>
2

>  <Kier1>
14.41

>  <Kier2>
6.44

>  <Lipinski>
1

>  <GhoseFilter>
1

>  <FilterItLogS>
-2.94

>  <VMcGowan>
182.23

>  <LabuteASA>
108.63

>  <PEOE_VSA1>
10.22

>  <PEOE_VSA2>
10.11

>  <PEOE_VSA3>
4.79

>  <PEOE_VSA4>
4.99

>  <PEOE_VSA5>
0

>  <PEOE_VSA6>
17.67

>  <PEOE_VSA7>
18.2

>  <PEOE_VSA8>
17.76

>  <PEOE_VSA9>
6.54

>  <PEOE_VSA10>
0

>  <PEOE_VSA11>
0

>  <PEOE_VSA12>
11.87

>  <PEOE_VSA13>
0

>  <SMR_VSA1>
9.59

>  <SMR_VSA2>
0

>  <SMR_VSA3>
10.22

>  <SMR_VSA4>
4.99

>  <SMR_VSA5>
0

>  <SMR_VSA6>
18.91

>  <SMR_VSA7>
29.29

>  <SMR_VSA8>
0

>  <SMR_VSA9>
0

>  <SlogP_VSA1>
10.63

>  <SlogP_VSA2>
36.39

>  <SlogP_VSA3>
4.79

>  <SlogP_VSA4>
0

>  <SlogP_VSA5>
0

>  <SlogP_VSA6>
29.26

>  <SlogP_VSA7>
5.02

>  <SlogP_VSA8>
0

>  <SlogP_VSA9>
0

>  <SlogP_VSA10>
10.48

>  <SlogP_VSA11>
0

>  <EState_VSA1>
6.03

>  <EState_VSA2>
18.41

>  <EState_VSA3>
10.71

>  <EState_VSA4>
0

>  <EState_VSA5>
0

>  <EState_VSA6>
36.21

>  <EState_VSA7>
0

>  <EState_VSA8>
15.63

>  <EState_VSA9>
11.6

>  <EState_VSA10>
9.59

>  <VSA_EState1>
0

>  <VSA_EState2>
27.98

>  <VSA_EState3>
5.56

>  <VSA_EState4>
0.55

>  <VSA_EState5>
0.05

>  <VSA_EState6>
6.15

>  <VSA_EState7>
0

>  <VSA_EState8>
0.2

>  <VSA_EState9>
1.67

>  <apol>
33.89

>  <bpol>
17.27

>  <nRing>
2

>  <nHRing>
1

>  <naRing>
1

>  <naHRing>
0

>  <nARing 2>
1

>  <nAHRing 2>
1

>  <nFRing>
0

>  <nFHRing>
0

>  <nFaRing>
0

>  <nFaHRing>
0

>  <nFARing 2>
0

>  <nFAHRing 2>
0

>  <nRot>
1

>  <SLogP>
1.29

>  <SMR>
68.68

>  <TopoPSA(NO)>
73.8

>  <TopoPSA>
73.8

>  <JGI1>
0.26

>  <JGI2>
0.06

>  <JGI3>
0.08

>  <JGI4>
0.03

>  <JGI5>
0.03

>  <Diameter>
10

>  <Radius>
5

>  <TMWC10>
107.6

>  <TSRW10>
64.42

>  <MW>
266.06

>  <AMW>
9.17

>  <WPath>
667

>  <WPol>
22

>  <Zagreb1>
90

>  <Zagreb2>
101

>  <mZagreb2>
3.94

>  <yes>


>  <nAR-cont>
0.816016

>  <nHA-cont>
0.991161285

>  <MWHBN>
0.24522808

>  <MWHBN-cont>
0.967435197

>  <TPSA-cont>
0.484830173

>  <pka_cont>
0.97

>  <yes.1>


>  <BBB_SCORE>
4.712990426

>  <MMFF94 Energy>
-109.04

$$$$
Compound 1379
Actelion Java MolfileCreator 2.0

  0  0  0  0  0  0              0 V3000
M  V30 BEGIN CTAB
M  V30 COUNTS 46 50 0 0 0
M  V30 BEGIN ATOM
M  V30 1 S 0.733 0.5701 3.751 0
M  V30 2 C -0.3655 1.8851 4.2516 0
M  V30 3 C 0.6413 0.7276 1.9268 0
M  V30 4 N -0.8923 2.6904 3.3036 0
M  V30 5 C -0.6409 2.0438 5.6057 0
M  V30 6 C 1.5358 -0.3079 1.2177 0
M  V30 7 C -1.7196 3.6757 3.7156 0
M  V30 8 C -1.4961 3.069 6.0034 0
M  V30 9 C 1.7023 0.08 -0.2334 0
M  V30 10 C 1.0056 -1.7552 1.3224 0
M  V30 11 C -2.0488 3.9033 5.0406 0
M  V30 12 C 1.0897 -0.5917 -1.2256 0
M  V30 13 N -0.1985 -1.9629 0.4982 0
M  V30 14 C 1.295 -0.213 -2.6433 0
M  V30 15 C 0.1136 -1.7794 -0.9515 0
M  V30 16 C -0.7557 -3.2897 0.771 0
M  V30 17 C 0.2532 -0.6023 -3.4957 0
M  V30 18 C 2.3786 0.4581 -3.2213 0
M  V30 19 C -1.2245 -1.6716 -1.7794 0
M  V30 20 C 0.281 -0.338 -4.8546 0
M  V30 21 C -0.9452 -1.2828 -3.1911 0
M  V30 22 C 2.4018 0.7245 -4.5982 0
M  V30 23 N -0.8888 -0.8541 -5.3695 0
M  V30 24 C 1.353 0.3331 -5.4464 0
M  V30 25 C -1.6413 -1.4307 -4.3681 0
M  V30 26 H 0.9755 1.7387 1.6653 0
M  V30 27 H -0.4017 0.6231 1.6072 0
M  V30 28 H -0.2015 1.3827 6.3453 0
M  V30 29 H 2.5379 -0.287 1.6675 0
M  V30 30 H -2.1249 4.2988 2.9233 0
M  V30 31 H -1.7274 3.2122 7.055 0
M  V30 32 H 2.3413 0.9347 -0.434 0
M  V30 33 H 1.7957 -2.4562 1.0165 0
M  V30 34 H 0.7858 -1.9847 2.3715 0
M  V30 35 H -2.7191 4.7102 5.3145 0
M  V30 36 H 0.6517 -2.6736 -1.3053 0
M  V30 37 H -0.0753 -4.0941 0.4701 0
M  V30 38 H -0.9669 -3.4045 1.8406 0
M  V30 39 H -1.7136 -3.4348 0.2633 0
M  V30 40 H 3.2208 0.7708 -2.611 0
M  V30 41 H -1.7583 -2.6281 -1.7727 0
M  V30 42 H -1.8815 -0.9165 -1.3288 0
M  V30 43 H 3.2571 1.2473 -5.0216 0
M  V30 44 H -1.1554 -0.8092 -6.3429 0
M  V30 45 H 1.3817 0.545 -6.5093 0
M  V30 46 H -2.5987 -1.8834 -4.588 0
M  V30 END ATOM
M  V30 BEGIN BOND
M  V30 1 1 1 2
M  V30 2 1 1 3
M  V30 3 2 2 4
M  V30 4 1 2 5
M  V30 5 1 3 6
M  V30 6 1 4 7
M  V30 7 2 5 8
M  V30 8 1 6 9
M  V30 9 1 6 10
M  V30 10 2 7 11
M  V30 11 2 9 12
M  V30 12 1 10 13
M  V30 13 1 12 14
M  V30 14 1 12 15
M  V30 15 1 13 16
M  V30 16 2 14 17
M  V30 17 1 14 18
M  V30 18 1 15 19
M  V30 19 1 17 20
M  V30 20 1 17 21
M  V30 21 2 18 22
M  V30 22 1 20 23
M  V30 23 2 20 24
M  V30 24 2 21 25
M  V30 25 1 8 11
M  V30 26 1 13 15
M  V30 27 1 19 21
M  V30 28 1 22 24
M  V30 29 1 23 25
M  V30 30 1 3 26
M  V30 31 1 3 27
M  V30 32 1 5 28
M  V30 33 1 6 29
M  V30 34 1 7 30
M  V30 35 1 8 31
M  V30 36 1 9 32
M  V30 37 1 10 33
M  V30 38 1 10 34
M  V30 39 1 11 35
M  V30 40 1 15 36
M  V30 41 1 16 37
M  V30 42 1 16 38
M  V30 43 1 16 39
M  V30 44 1 18 40
M  V30 45 1 19 41
M  V30 46 1 19 42
M  V30 47 1 22 43
M  V30 48 1 23 44
M  V30 49 1 24 45
M  V30 50 1 25 46
M  V30 END BOND
M  V30 END CTAB
M  END
>  <Column 1>
1655

>  <level_0>
1811

>  <index>
1811

>  <Unnamed: 0>
1811

>  <NO.>
1823

>  <Name>
7-methyl-9-(pyridin-2-ylsulfanylmethyl)-6-6a-8-9-tetrahydro-4h-indolo[4-3-fg]quinoline

>  <IUPAC_name>
7-methyl-9-(pyridin-2-ylsulfanylmethyl)-6-6a-8-9-tetrahydro-4h-indolo[4-3-fg]quinoline

>  <SMILES>
CN1CC(CSc2ccccn2)C=C2c3cccc4[nH]cc(c34)CC21

>  <CID>
42610

>  <logBB>


>  <BBB+/BBB->
BBB+

>  <Inchi>
InChI=1S/C21H21N3S/c1-24-12-14(13-25-20-7-2-3-8-22-20)9-17-16-5-4-6-18-21(16)15(11-23-18)10-19(17)24/h2-9-11-14-19-23H-10-12-13H2-1H3

>  <threshold>
-1

>  <reference>
R1|R19|R27|R27|R30|

>  <group>
B

>  <Class>
1

>  <ABC>
20.37

>  <ABCGG>
14.93

>  <nAcid>
0

>  <nBase>
1

>  <nAromAtom>
15

>  <nAromBond>
16

>  <nAtom>
46

>  <nHeavyAtom>
25

>  <nSpiro>
0

>  <nBridgehead>
0

>  <nHetero>
4

>  <nN>
3

>  <nO>
0

>  <nF>
0

>  <BalabanJ>
1.25

>  <BertzCT>
944.19

>  <nBonds>
50

>  <nBondsO>
29

>  <nBondsS>
33

>  <nBondsD>
1

>  <nBondsT>
0

>  <nBondsA>
16

>  <nBondsM>
17

>  <nBondsKS>
42

>  <nBondsKD>
8

>  <RNCG>
0.25

>  <RPCG>
0.11

>  <FCSP3>
0.29

>  <SZ>
30.67

>  <Sm>
28.93

>  <Sv>
30.15

>  <Sse>
45.39

>  <Sp>
33.1

>  <Si>
51.15

>  <MZ>
0.67

>  <Mm>
0.63

>  <Mv>
0.66

>  <Mse>
0.99

>  <Mp>
0.72

>  <Mi>
1.11

>  <NsCH3>
1

>  <NdCH2>
0

>  <NssCH2>
3

>  <NtCH>
0

>  <NdsCH>
1

>  <NaaCH>
8

>  <NsssCH>
2

>  <NddC>
0

>  <NtsC>
0

>  <NdssC>
1

>  <NaasC>
3

>  <NaaaC>
2

>  <NssssC>
0

>  <NsNH3>
0

>  <NsNH2>
0

>  <NssNH2>
0

>  <NdNH>
0

>  <NssNH>
0

>  <NaaNH>
1

>  <NtN>
0

>  <NsssNH>
0

>  <NdsN>
0

>  <NaaN>
1

>  <NsssN>
1

>  <NddsN>
0

>  <NaasN>
0

>  <NssssN>
0

>  <NsOH>
0

>  <NdO>
0

>  <NssO>
0

>  <NaaO>
0

>  <NsF>
0

>  <NsSiH3>
0

>  <NssSiH2>
0

>  <NsssSiH>
0

>  <NssssSi>
0

>  <NsPH2>
0

>  <NssPH>
0

>  <NsssP>
0

>  <NdsssP>
0

>  <NsssssP>
0

>  <NsSH>
0

>  <NdS>
0

>  <NssS>
1

>  <NaaS>
0

>  <NdssS>
0

>  <NddssS>
0

>  <NsCl>
0

>  <NsBr>
0

>  <NsI>
0

>  <fragCpx>
241.04

>  <fMF>
0.52

>  <nHBAcc>
3

>  <nHBDon>
1

>  <Kier1>
17.12

>  <Kier2>
7.2

>  <Lipinski>
1

>  <GhoseFilter>
1

>  <FilterItLogS>
-5.37

>  <VMcGowan>
264.34

>  <LabuteASA>
151.7

>  <PEOE_VSA1>
4.98

>  <PEOE_VSA2>
4.9

>  <PEOE_VSA3>
4.98

>  <PEOE_VSA4>
0

>  <PEOE_VSA5>
11.76

>  <PEOE_VSA6>
24.28

>  <PEOE_VSA7>
54.29

>  <PEOE_VSA8>
41.64

>  <PEOE_VSA9>
5.03

>  <PEOE_VSA10>
0

>  <PEOE_VSA11>
0

>  <PEOE_VSA12>
0

>  <PEOE_VSA13>
0

>  <SMR_VSA1>
0

>  <SMR_VSA2>
0

>  <SMR_VSA3>
14.87

>  <SMR_VSA4>
5.92

>  <SMR_VSA5>
17.49

>  <SMR_VSA6>
19.35

>  <SMR_VSA7>
65.99

>  <SMR_VSA8>
0

>  <SMR_VSA9>
0

>  <SlogP_VSA1>
0

>  <SlogP_VSA2>
40.25

>  <SlogP_VSA3>
6.42

>  <SlogP_VSA4>
5.92

>  <SlogP_VSA5>
11.13

>  <SlogP_VSA6>
59.89

>  <SlogP_VSA7>
0

>  <SlogP_VSA8>
16.48

>  <SlogP_VSA9>
0

>  <SlogP_VSA10>
0

>  <SlogP_VSA11>
0

>  <EState_VSA1>
0

>  <EState_VSA2>
0

>  <EState_VSA3>
11.96

>  <EState_VSA4>
23.74

>  <EState_VSA5>
27.6

>  <EState_VSA6>
0

>  <EState_VSA7>
24.03

>  <EState_VSA8>
64.52

>  <EState_VSA9>
0

>  <EState_VSA10>
0

>  <VSA_EState1>
0

>  <VSA_EState2>
10.42

>  <VSA_EState3>
2.54

>  <VSA_EState4>
5.66

>  <VSA_EState5>
1.63

>  <VSA_EState6>
13.29

>  <VSA_EState7>
7.71

>  <VSA_EState8>
1.11

>  <VSA_EState9>
2.27

>  <apol>
55.27

>  <bpol>
26.95

>  <nRing>
5

>  <nHRing>
3

>  <naRing>
3

>  <naHRing>
2

>  <nARing 2>
2

>  <nAHRing 2>
1

>  <nFRing>
1

>  <nFHRing>
1

>  <nFaRing>
0

>  <nFaHRing>
0

>  <nFARing 2>
1

>  <nFAHRing 2>
1

>  <nRot>
3

>  <SLogP>
4.22

>  <SMR>
104.85

>  <TopoPSA(NO)>
31.92

>  <TopoPSA>
57.22

>  <JGI1>
0.14

>  <JGI2>
0.06

>  <JGI3>
0.04

>  <JGI4>
0.05

>  <JGI5>
0.02

>  <Diameter>
12

>  <Radius>
6

>  <TMWC10>
131.36

>  <TSRW10>
74.49

>  <MW>
347.15

>  <AMW>
7.55

>  <WPath>
1490

>  <WPol>
43

>  <Zagreb1>
142

>  <Zagreb2>
173

>  <mZagreb2>
5.33

>  <yes>


>  <nAR-cont>
1

>  <nHA-cont>
0.921834225

>  <MWHBN>
0.214684854

>  <MWHBN-cont>
0.997767999

>  <TPSA-cont>
0.600568869

>  <pka_cont>
0.97

>  <yes.1>


>  <BBB_SCORE>
5.10462396

>  <MMFF94 Energy>
84.158

$$$$
Compound 1380
Actelion Java MolfileCreator 2.0

  0  0  0  0  0  0              0 V3000
M  V30 BEGIN CTAB
M  V30 COUNTS 28 29 0 0 0
M  V30 BEGIN ATOM
M  V30 1 N -0.3151 0.1575 2.6813 0
M  V30 2 C -1.4404 -0.3836 1.9058 0
M  V30 3 C 0.3314 1.2578 1.9547 0
M  V30 4 C -0.7609 0.5882 4.0033 0
M  V30 5 C -1.1222 -0.6082 0.4531 0
M  V30 6 C 0.9341 0.7534 0.6317 0
M  V30 7 C -0.0353 -0.0969 -0.1553 0
M  V30 8 C 0.2507 -0.3497 -1.5826 0
M  V30 9 C 1.5505 -0.6571 -2.0086 0
M  V30 10 C -0.7626 -0.2608 -2.5493 0
M  V30 11 C 1.8279 -0.8805 -3.3604 0
M  V30 12 C -0.4859 -0.4826 -3.9012 0
M  V30 13 C 0.8094 -0.7935 -4.306 0
M  V30 14 H -1.7342 -1.3455 2.3429 0
M  V30 15 H -2.3131 0.2807 1.9567 0
M  V30 16 H 1.144 1.6841 2.5561 0
M  V30 17 H -0.3831 2.0685 1.7565 0
M  V30 18 H 0.0901 0.928 4.6037 0
M  V30 19 H -1.4913 1.4037 3.9504 0
M  V30 20 H -1.2153 -0.2472 4.5475 0
M  V30 21 H -1.8276 -1.2283 -0.0927 0
M  V30 22 H 1.8343 0.1653 0.8509 0
M  V30 23 H 1.243 1.6241 0.0405 0
M  V30 24 H 2.3615 -0.7438 -1.2899 0
M  V30 25 H -1.7784 -0.0027 -2.2598 0
M  V30 26 H 2.8399 -1.1251 -3.6717 0
M  V30 27 H -1.2828 -0.4086 -4.6364 0
M  V30 28 H 1.0252 -0.9671 -5.3567 0
M  V30 END ATOM
M  V30 BEGIN BOND
M  V30 1 1 1 2
M  V30 2 1 1 3
M  V30 3 1 1 4
M  V30 4 1 2 5
M  V30 5 1 3 6
M  V30 6 2 5 7
M  V30 7 1 7 8
M  V30 8 2 8 9
M  V30 9 1 8 10
M  V30 10 1 9 11
M  V30 11 2 10 12
M  V30 12 2 11 13
M  V30 13 1 6 7
M  V30 14 1 12 13
M  V30 15 1 2 14
M  V30 16 1 2 15
M  V30 17 1 3 16
M  V30 18 1 3 17
M  V30 19 1 4 18
M  V30 20 1 4 19
M  V30 21 1 4 20
M  V30 22 1 5 21
M  V30 23 1 6 22
M  V30 24 1 6 23
M  V30 25 1 9 24
M  V30 26 1 10 25
M  V30 27 1 11 26
M  V30 28 1 12 27
M  V30 29 1 13 28
M  V30 END BOND
M  V30 END CTAB
M  END
>  <Column 1>
1656

>  <level_0>
1812

>  <index>
1812

>  <Unnamed: 0>
1812

>  <NO.>
1824

>  <Name>
mptp

>  <IUPAC_name>
1-methyl-4-phenyl-3-6-dihydro-2h-pyridine

>  <SMILES>
CN1CC=C(c2ccccc2)CC1

>  <CID>
1388

>  <logBB>


>  <BBB+/BBB->
BBB+

>  <Inchi>
InChI=1S/C12H15N/c1-13-9-7-12(8-10-13)11-5-3-2-4-6-11/h2-7H-8-10H2-1H3

>  <threshold>
-1

>  <reference>
R1|R13|R27|R30|

>  <group>
B

>  <Class>
1

>  <ABC>
9.97

>  <ABCGG>
8.42

>  <nAcid>
0

>  <nBase>
1

>  <nAromAtom>
6

>  <nAromBond>
6

>  <nAtom>
28

>  <nHeavyAtom>
13

>  <nSpiro>
0

>  <nBridgehead>
0

>  <nHetero>
1

>  <nN>
1

>  <nO>
0

>  <nF>
0

>  <BalabanJ>
1.79

>  <BertzCT>
300.16

>  <nBonds>
29

>  <nBondsO>
14

>  <nBondsS>
22

>  <nBondsD>
1

>  <nBondsT>
0

>  <nBondsA>
6

>  <nBondsM>
7

>  <nBondsKS>
25

>  <nBondsKD>
4

>  <RNCG>
0.4

>  <RPCG>
0.08

>  <FCSP3>
0.33

>  <SZ>
15.67

>  <Sm>
14.43

>  <Sv>
16.82

>  <Sse>
27.32

>  <Sp>
18.65

>  <Si>
31.41

>  <MZ>
0.56

>  <Mm>
0.52

>  <Mv>
0.6

>  <Mse>
0.98

>  <Mp>
0.67

>  <Mi>
1.12

>  <NsCH3>
1

>  <NdCH2>
0

>  <NssCH2>
3

>  <NtCH>
0

>  <NdsCH>
1

>  <NaaCH>
5

>  <NsssCH>
0

>  <NddC>
0

>  <NtsC>
0

>  <NdssC>
1

>  <NaasC>
1

>  <NaaaC>
0

>  <NssssC>
0

>  <NsNH3>
0

>  <NsNH2>
0

>  <NssNH2>
0

>  <NdNH>
0

>  <NssNH>
0

>  <NaaNH>
0

>  <NtN>
0

>  <NsssNH>
0

>  <NdsN>
0

>  <NaaN>
0

>  <NsssN>
1

>  <NddsN>
0

>  <NaasN>
0

>  <NssssN>
0

>  <NsOH>
0

>  <NdO>
0

>  <NssO>
0

>  <NaaO>
0

>  <NsF>
0

>  <NsSiH3>
0

>  <NssSiH2>
0

>  <NsssSiH>
0

>  <NssssSi>
0

>  <NsPH2>
0

>  <NssPH>
0

>  <NsssP>
0

>  <NdsssP>
0

>  <NsssssP>
0

>  <NsSH>
0

>  <NdS>
0

>  <NssS>
0

>  <NaaS>
0

>  <NdssS>
0

>  <NddssS>
0

>  <NsCl>
0

>  <NsBr>
0

>  <NsI>
0

>  <fragCpx>
40.01

>  <fMF>
0.43

>  <nHBAcc>
1

>  <nHBDon>
0

>  <Kier1>
9.55

>  <Kier2>
4.48

>  <Lipinski>
1

>  <GhoseFilter>
1

>  <FilterItLogS>
-2.5

>  <VMcGowan>
151

>  <LabuteASA>
79.69

>  <PEOE_VSA1>
4.9

>  <PEOE_VSA2>
0

>  <PEOE_VSA3>
0

>  <PEOE_VSA4>
0

>  <PEOE_VSA5>
0

>  <PEOE_VSA6>
36.41

>  <PEOE_VSA7>
24.61

>  <PEOE_VSA8>
13.09

>  <PEOE_VSA9>
0

>  <PEOE_VSA10>
0

>  <PEOE_VSA11>
0

>  <PEOE_VSA12>
0

>  <PEOE_VSA13>
0

>  <SMR_VSA1>
0

>  <SMR_VSA2>
0

>  <SMR_VSA3>
4.9

>  <SMR_VSA4>
0

>  <SMR_VSA5>
6.42

>  <SMR_VSA6>
20.14

>  <SMR_VSA7>
41.97

>  <SMR_VSA8>
0

>  <SMR_VSA9>
0

>  <SlogP_VSA1>
0

>  <SlogP_VSA2>
25.04

>  <SlogP_VSA3>
0

>  <SlogP_VSA4>
0

>  <SlogP_VSA5>
11.98

>  <SlogP_VSA6>
36.41

>  <SlogP_VSA7>
0

>  <SlogP_VSA8>
5.57

>  <SlogP_VSA9>
0

>  <SlogP_VSA10>
0

>  <SlogP_VSA11>
0

>  <EState_VSA1>
0

>  <EState_VSA2>
0

>  <EState_VSA3>
0

>  <EState_VSA4>
6.54

>  <EState_VSA5>
24.1

>  <EState_VSA6>
0

>  <EState_VSA7>
0

>  <EState_VSA8>
48.36

>  <EState_VSA9>
0

>  <EState_VSA10>
0

>  <VSA_EState1>
0

>  <VSA_EState2>
2.34

>  <VSA_EState3>
0

>  <VSA_EState4>
2.88

>  <VSA_EState5>
0

>  <VSA_EState6>
10.66

>  <VSA_EState7>
3.51

>  <VSA_EState8>
2.27

>  <VSA_EState9>
2.16

>  <apol>
31.14

>  <bpol>
16.76

>  <nRing>
2

>  <nHRing>
1

>  <naRing>
1

>  <naHRing>
0

>  <nARing 2>
1

>  <nAHRing 2>
1

>  <nFRing>
0

>  <nFHRing>
0

>  <nFaRing>
0

>  <nFaHRing>
0

>  <nFARing 2>
0

>  <nFAHRing 2>
0

>  <nRot>
1

>  <SLogP>
2.41

>  <SMR>
56.53

>  <TopoPSA(NO)>
3.24

>  <TopoPSA>
3.24

>  <JGI1>
0.14

>  <JGI2>
0.07

>  <JGI3>
0.03

>  <JGI4>
0.02

>  <JGI5>
0.03

>  <Diameter>
8

>  <Radius>
4

>  <TMWC10>
94.16

>  <TSRW10>
43.91

>  <MW>
173.12

>  <AMW>
6.18

>  <WPath>
252

>  <WPol>
16

>  <Zagreb1>
64

>  <Zagreb2>
72

>  <mZagreb2>
2.94

>  <yes>


>  <nAR-cont>
0.816016

>  <nHA-cont>
0.841215992

>  <MWHBN>
0.076002238

>  <MWHBN-cont>
0.577883213

>  <TPSA-cont>
0.977382788

>  <pka_cont>
0.97

>  <yes.1>


>  <BBB_SCORE>
4.963822388

>  <MMFF94 Energy>
31.455

$$$$
Compound 1381
Actelion Java MolfileCreator 2.0

  0  0  0  0  0  0              0 V3000
M  V30 BEGIN CTAB
M  V30 COUNTS 43 46 0 0 0
M  V30 BEGIN ATOM
M  V30 1 O -0.8017 -2.0051 3.4507 0
M  V30 2 C -0.5055 -1.3078 2.2409 0
M  V30 3 C -0.8239 -2.182 1.0318 0
M  V30 4 C -1.261 0.0173 2.1769 0
M  V30 5 C -0.9402 -1.5485 -0.228 0
M  V30 6 C -1.004 -3.5689 1.1207 0
M  V30 7 C -1.3714 0.6497 0.9149 0
M  V30 8 C -1.8509 0.6202 3.2969 0
M  V30 9 C -0.7424 -0.0682 -0.2334 0
M  V30 10 C -1.3367 -2.29 -1.3456 0
M  V30 11 C -1.3474 -4.3074 -0.0126 0
M  V30 12 C -2.1428 1.8091 0.7808 0
M  V30 13 C -2.574 1.8068 3.1588 0
M  V30 14 C 0.1225 0.5452 -1.0875 0
M  V30 15 C -1.5258 -3.6685 -1.2393 0
M  V30 16 C -2.7289 2.3935 1.9037 0
M  V30 17 C 0.4965 2.0249 -1.0515 0
M  V30 18 C 0.9225 -0.1533 -2.1841 0
M  V30 19 C 2.0185 2.2424 -0.9901 0
M  V30 20 C 2.43 0.1378 -2.0843 0
M  V30 21 N 2.7161 1.5808 -2.1034 0
M  V30 22 C 4.156 1.8206 -2.0235 0
M  V30 23 H -0.2025 -1.6397 4.1212 0
M  V30 24 H 0.5733 -1.1027 2.2355 0
M  V30 25 H -0.9046 -4.0752 2.078 0
M  V30 26 H -1.7835 0.1578 4.278 0
M  V30 27 H -1.5073 -1.7995 -2.3002 0
M  V30 28 H -1.5001 -5.3806 0.0678 0
M  V30 29 H -2.2998 2.2563 -0.1972 0
M  V30 30 H -3.0415 2.26 4.0296 0
M  V30 31 H -1.8228 -4.2435 -2.1123 0
M  V30 32 H -3.3193 3.2999 1.7969 0
M  V30 33 H 0.0739 2.556 -0.1972 0
M  V30 34 H 0.092 2.506 -1.9515 0
M  V30 35 H 0.5456 0.187 -3.1573 0
M  V30 36 H 0.816 -1.2389 -2.1708 0
M  V30 37 H 2.3988 1.8841 -0.0236 0
M  V30 38 H 2.2075 3.3223 -1.0322 0
M  V30 39 H 2.9242 -0.3426 -2.9378 0
M  V30 40 H 2.8312 -0.3271 -1.1733 0
M  V30 41 H 4.5928 1.4254 -1.0992 0
M  V30 42 H 4.3698 2.894 -2.0741 0
M  V30 43 H 4.6699 1.3577 -2.8731 0
M  V30 END ATOM
M  V30 BEGIN BOND
M  V30 1 1 1 2
M  V30 2 1 2 3
M  V30 3 1 2 4
M  V30 4 2 3 5
M  V30 5 1 3 6
M  V30 6 2 4 7
M  V30 7 1 4 8
M  V30 8 1 5 9
M  V30 9 1 5 10
M  V30 10 2 6 11
M  V30 11 1 7 12
M  V30 12 2 8 13
M  V30 13 2 9 14
M  V30 14 2 10 15
M  V30 15 2 12 16
M  V30 16 1 14 17
M  V30 17 1 14 18
M  V30 18 1 17 19
M  V30 19 1 18 20
M  V30 20 1 19 21
M  V30 21 1 21 22
M  V30 22 1 7 9
M  V30 23 1 11 15
M  V30 24 1 13 16
M  V30 25 1 20 21
M  V30 26 1 1 23
M  V30 27 1 2 24
M  V30 28 1 6 25
M  V30 29 1 8 26
M  V30 30 1 10 27
M  V30 31 1 11 28
M  V30 32 1 12 29
M  V30 33 1 13 30
M  V30 34 1 15 31
M  V30 35 1 16 32
M  V30 36 1 17 33
M  V30 37 1 17 34
M  V30 38 1 18 35
M  V30 39 1 18 36
M  V30 40 1 19 37
M  V30 41 1 19 38
M  V30 42 1 20 39
M  V30 43 1 20 40
M  V30 44 1 22 41
M  V30 45 1 22 42
M  V30 46 1 22 43
M  V30 END BOND
M  V30 END CTAB
M  END
>  <Column 1>
1657

>  <level_0>
1813

>  <index>
1813

>  <Unnamed: 0>
1813

>  <NO.>
1825

>  <Name>
danitracen

>  <IUPAC_name>
10-(1-methylpiperidin-4-ylidene)-9h-anthracen-9-ol

>  <SMILES>
CN1CCC(=C2c3ccccc3C(O)c3ccccc32)CC1

>  <CID>
35758

>  <logBB>


>  <BBB+/BBB->
BBB+

>  <Inchi>
InChI=1S/C20H21NO/c1-21-12-10-14(11-13-21)19-15-6-2-4-8-17(15)20(22)18-9-5-3-7-16(18)19/h2-9-20-22H-10-13H2-1H3

>  <threshold>
-1

>  <reference>
R1|R13|R19|R6|R24|R27|R27|R27|R30|R30|

>  <group>
B

>  <Class>
1

>  <ABC>
17.61

>  <ABCGG>
13.67

>  <nAcid>
0

>  <nBase>
1

>  <nAromAtom>
12

>  <nAromBond>
12

>  <nAtom>
43

>  <nHeavyAtom>
22

>  <nSpiro>
0

>  <nBridgehead>
0

>  <nHetero>
2

>  <nN>
1

>  <nO>
1

>  <nF>
0

>  <BalabanJ>
1.6

>  <BertzCT>
687.38

>  <nBonds>
46

>  <nBondsO>
25

>  <nBondsS>
33

>  <nBondsD>
1

>  <nBondsT>
0

>  <nBondsA>
12

>  <nBondsM>
13

>  <nBondsKS>
39

>  <nBondsKD>
7

>  <RNCG>
0.29

>  <RPCG>
0.16

>  <FCSP3>
0.3

>  <SZ>
26

>  <Sm>
24.26

>  <Sv>
27.16

>  <Sse>
42.32

>  <Sp>
29.52

>  <Si>
47.86

>  <MZ>
0.6

>  <Mm>
0.56

>  <Mv>
0.63

>  <Mse>
0.98

>  <Mp>
0.69

>  <Mi>
1.11

>  <NsCH3>
1

>  <NdCH2>
0

>  <NssCH2>
4

>  <NtCH>
0

>  <NdsCH>
0

>  <NaaCH>
8

>  <NsssCH>
1

>  <NddC>
0

>  <NtsC>
0

>  <NdssC>
2

>  <NaasC>
4

>  <NaaaC>
0

>  <NssssC>
0

>  <NsNH3>
0

>  <NsNH2>
0

>  <NssNH2>
0

>  <NdNH>
0

>  <NssNH>
0

>  <NaaNH>
0

>  <NtN>
0

>  <NsssNH>
0

>  <NdsN>
0

>  <NaaN>
0

>  <NsssN>
1

>  <NddsN>
0

>  <NaasN>
0

>  <NssssN>
0

>  <NsOH>
1

>  <NdO>
0

>  <NssO>
0

>  <NaaO>
0

>  <NsF>
0

>  <NsSiH3>
0

>  <NssSiH2>
0

>  <NsssSiH>
0

>  <NssssSi>
0

>  <NsPH2>
0

>  <NssPH>
0

>  <NsssP>
0

>  <NdsssP>
0

>  <NsssssP>
0

>  <NsSH>
0

>  <NdS>
0

>  <NssS>
0

>  <NaaS>
0

>  <NdssS>
0

>  <NddssS>
0

>  <NsCl>
0

>  <NsBr>
0

>  <NsI>
0

>  <fragCpx>
163.02

>  <fMF>
0.47

>  <nHBAcc>
2

>  <nHBDon>
1

>  <Kier1>
15.52

>  <Kier2>
6.48

>  <Lipinski>
1

>  <GhoseFilter>
1

>  <FilterItLogS>
-4.52

>  <VMcGowan>
234.97

>  <LabuteASA>
131.26

>  <PEOE_VSA1>
10.01

>  <PEOE_VSA2>
0

>  <PEOE_VSA3>
0

>  <PEOE_VSA4>
0

>  <PEOE_VSA5>
0

>  <PEOE_VSA6>
54.1

>  <PEOE_VSA7>
47.72

>  <PEOE_VSA8>
13.09

>  <PEOE_VSA9>
0

>  <PEOE_VSA10>
6.1

>  <PEOE_VSA11>
0

>  <PEOE_VSA12>
0

>  <PEOE_VSA13>
0

>  <SMR_VSA1>
5.11

>  <SMR_VSA2>
0

>  <SMR_VSA3>
4.9

>  <SMR_VSA4>
0

>  <SMR_VSA5>
18.95

>  <SMR_VSA6>
20.14

>  <SMR_VSA7>
76.36

>  <SMR_VSA8>
0

>  <SMR_VSA9>
0

>  <SlogP_VSA1>
0

>  <SlogP_VSA2>
30.14

>  <SlogP_VSA3>
0

>  <SlogP_VSA4>
0

>  <SlogP_VSA5>
41.2

>  <SlogP_VSA6>
54.1

>  <SlogP_VSA7>
0

>  <SlogP_VSA8>
5.57

>  <SlogP_VSA9>
0

>  <SlogP_VSA10>
0

>  <SlogP_VSA11>
0

>  <EState_VSA1>
6.1

>  <EState_VSA2>
0

>  <EState_VSA3>
0

>  <EState_VSA4>
37.06

>  <EState_VSA5>
22.27

>  <EState_VSA6>
0

>  <EState_VSA7>
12.13

>  <EState_VSA8>
48.35

>  <EState_VSA9>
0

>  <EState_VSA10>
5.11

>  <VSA_EState1>
0

>  <VSA_EState2>
2.39

>  <VSA_EState3>
10.74

>  <VSA_EState4>
7.42

>  <VSA_EState5>
0

>  <VSA_EState6>
16.64

>  <VSA_EState7>
1.72

>  <VSA_EState8>
2.23

>  <VSA_EState9>
2.19

>  <apol>
49.3

>  <bpol>
22.78

>  <nRing>
4

>  <nHRing>
1

>  <naRing>
2

>  <naHRing>
0

>  <nARing 2>
2

>  <nAHRing 2>
1

>  <nFRing>
1

>  <nFHRing>
0

>  <nFaRing>
0

>  <nFaHRing>
0

>  <nFARing 2>
1

>  <nFAHRing 2>
0

>  <nRot>
0

>  <SLogP>
3.61

>  <SMR>
89.7

>  <TopoPSA(NO)>
23.47

>  <TopoPSA>
23.47

>  <JGI1>
0.12

>  <JGI2>
0.07

>  <JGI3>
0.05

>  <JGI4>
0.05

>  <JGI5>
0.02

>  <Diameter>
9

>  <Radius>
5

>  <TMWC10>
123.12

>  <TSRW10>
56.84

>  <MW>
291.16

>  <AMW>
6.77

>  <WPath>
927

>  <WPol>
40

>  <Zagreb1>
122

>  <Zagreb2>
149

>  <mZagreb2>
4.78

>  <yes>


>  <nAR-cont>
1

>  <nHA-cont>
0.983774276

>  <MWHBN>
0.175814787

>  <MWHBN-cont>
0.982227225

>  <TPSA-cont>
0.836164826

>  <pka_cont>
0.97

>  <yes.1>


>  <BBB_SCORE>
5.614444765

>  <MMFF94 Energy>
99.599

$$$$
Compound 1382
Actelion Java MolfileCreator 2.0

  0  0  0  0  0  0              0 V3000
M  V30 BEGIN CTAB
M  V30 COUNTS 42 45 0 0 0
M  V30 BEGIN ATOM
M  V30 1 S -3.0842 -3.1655 -0.5676 0
M  V30 2 C -2.2475 -1.6692 -0.7216 0
M  V30 3 C -2.5429 -3.3855 1.0351 0
M  V30 4 C -1.5285 -1.3773 0.4281 0
M  V30 5 C -2.4201 -0.8907 -2.0053 0
M  V30 6 C -1.734 -2.3542 1.4522 0
M  V30 7 C -0.7363 -0.1739 0.5769 0
M  V30 8 C -1.5138 0.3353 -2.1681 0
M  V30 9 C -1.3808 1.1259 0.2348 0
M  V30 10 C 0.5846 -0.1857 0.9055 0
M  V30 11 C -1.7498 1.3825 -1.1014 0
M  V30 12 C -1.6704 2.0686 1.2315 0
M  V30 13 C 1.4041 -1.4446 1.1591 0
M  V30 14 C 1.4799 1.0442 1.0074 0
M  V30 15 C -2.3674 2.5995 -1.4209 0
M  V30 16 C -2.2861 3.2752 0.8999 0
M  V30 17 C 2.6563 -1.4953 0.2665 0
M  V30 18 C 2.7259 0.9134 0.1158 0
M  V30 19 C -2.6286 3.5416 -0.4245 0
M  V30 20 N 3.5008 -0.2995 0.4278 0
M  V30 21 C 4.6834 -0.3871 -0.427 0
M  V30 22 H -2.85 -4.255 1.5993 0
M  V30 23 H -3.4689 -0.5721 -2.0766 0
M  V30 24 H -2.2315 -1.5624 -2.8529 0
M  V30 25 H -1.304 -2.3049 2.4452 0
M  V30 26 H -1.6974 0.7743 -3.1571 0
M  V30 27 H -0.4556 0.0437 -2.1687 0
M  V30 28 H -1.4148 1.8635 2.2682 0
M  V30 29 H 0.8434 -2.3645 0.9787 0
M  V30 30 H 1.7018 -1.4607 2.2155 0
M  V30 31 H 1.7872 1.1631 2.0548 0
M  V30 32 H 0.9749 1.9721 0.7285 0
M  V30 33 H -2.66 2.8179 -2.4452 0
M  V30 34 H -2.5028 4.005 1.6755 0
M  V30 35 H 3.2322 -2.3873 0.5422 0
M  V30 36 H 2.3512 -1.6168 -0.7818 0
M  V30 37 H 3.3537 1.798 0.2793 0
M  V30 38 H 2.4219 0.9208 -0.9398 0
M  V30 39 H -3.1116 4.4813 -0.6805 0
M  V30 40 H 5.2796 -1.269 -0.1683 0
M  V30 41 H 5.3305 0.4841 -0.2776 0
M  V30 42 H 4.4242 -0.4458 -1.4903 0
M  V30 END ATOM
M  V30 BEGIN BOND
M  V30 1 1 1 2
M  V30 2 1 1 3
M  V30 3 2 2 4
M  V30 4 1 2 5
M  V30 5 2 3 6
M  V30 6 1 4 7
M  V30 7 1 5 8
M  V30 8 1 7 9
M  V30 9 2 7 10
M  V30 10 1 8 11
M  V30 11 1 9 12
M  V30 12 1 10 13
M  V30 13 1 10 14
M  V30 14 1 11 15
M  V30 15 2 12 16
M  V30 16 1 13 17
M  V30 17 1 14 18
M  V30 18 2 15 19
M  V30 19 1 17 20
M  V30 20 1 20 21
M  V30 21 1 4 6
M  V30 22 2 9 11
M  V30 23 1 16 19
M  V30 24 1 18 20
M  V30 25 1 3 22
M  V30 26 1 5 23
M  V30 27 1 5 24
M  V30 28 1 6 25
M  V30 29 1 8 26
M  V30 30 1 8 27
M  V30 31 1 12 28
M  V30 32 1 13 29
M  V30 33 1 13 30
M  V30 34 1 14 31
M  V30 35 1 14 32
M  V30 36 1 15 33
M  V30 37 1 16 34
M  V30 38 1 17 35
M  V30 39 1 17 36
M  V30 40 1 18 37
M  V30 41 1 18 38
M  V30 42 1 19 39
M  V30 43 1 21 40
M  V30 44 1 21 41
M  V30 45 1 21 42
M  V30 END BOND
M  V30 END CTAB
M  END
>  <Column 1>
1658

>  <level_0>
1814

>  <index>
1814

>  <Unnamed: 0>
1814

>  <NO.>
1826

>  <Name>
pizotifen

>  <IUPAC_name>
1-methyl-4-(6-thiatricyclo[8.4.0.03-7]tetradeca-1(14)-3(7)-4-10-12-pentaen-2-ylidene)piperidine

>  <SMILES>
CN1CCC(=C2c3ccccc3CCc3sccc32)CC1

>  <CID>
27400

>  <logBB>


>  <BBB+/BBB->
BBB+

>  <Inchi>
InChI=1S/C19H21NS/c1-20-11-8-15(9-12-20)19-16-5-3-2-4-14(16)6-7-18-17(19)10-13-21-18/h2-5-10-13H-6-9-11-12H2-1H3

>  <threshold>
-1

>  <reference>
R1|R13|R19|R6|R14|R23|R24|R27|R27|R27|R30|R30|

>  <group>
B

>  <Class>
1

>  <ABC>
16.88

>  <ABCGG>
13.72

>  <nAcid>
0

>  <nBase>
1

>  <nAromAtom>
11

>  <nAromBond>
11

>  <nAtom>
42

>  <nHeavyAtom>
21

>  <nSpiro>
0

>  <nBridgehead>
0

>  <nHetero>
2

>  <nN>
1

>  <nO>
0

>  <nF>
0

>  <BalabanJ>
1.58

>  <BertzCT>
685.1

>  <nBonds>
45

>  <nBondsO>
24

>  <nBondsS>
33

>  <nBondsD>
1

>  <nBondsT>
0

>  <nBondsA>
11

>  <nBondsM>
12

>  <nBondsKS>
39

>  <nBondsKD>
6

>  <RNCG>
0.32

>  <RPCG>
0.08

>  <FCSP3>
0.37

>  <SZ>
26.33

>  <Sm>
24.6

>  <Sv>
26.63

>  <Sse>
41.06

>  <Sp>
29.78

>  <Si>
46.57

>  <MZ>
0.63

>  <Mm>
0.59

>  <Mv>
0.63

>  <Mse>
0.98

>  <Mp>
0.71

>  <Mi>
1.11

>  <NsCH3>
1

>  <NdCH2>
0

>  <NssCH2>
6

>  <NtCH>
0

>  <NdsCH>
0

>  <NaaCH>
6

>  <NsssCH>
0

>  <NddC>
0

>  <NtsC>
0

>  <NdssC>
2

>  <NaasC>
4

>  <NaaaC>
0

>  <NssssC>
0

>  <NsNH3>
0

>  <NsNH2>
0

>  <NssNH2>
0

>  <NdNH>
0

>  <NssNH>
0

>  <NaaNH>
0

>  <NtN>
0

>  <NsssNH>
0

>  <NdsN>
0

>  <NaaN>
0

>  <NsssN>
1

>  <NddsN>
0

>  <NaasN>
0

>  <NssssN>
0

>  <NsOH>
0

>  <NdO>
0

>  <NssO>
0

>  <NaaO>
0

>  <NsF>
0

>  <NsSiH3>
0

>  <NssSiH2>
0

>  <NsssSiH>
0

>  <NssssSi>
0

>  <NsPH2>
0

>  <NssPH>
0

>  <NsssP>
0

>  <NdsssP>
0

>  <NsssssP>
0

>  <NsSH>
0

>  <NdS>
0

>  <NssS>
0

>  <NaaS>
1

>  <NdssS>
0

>  <NddssS>
0

>  <NsCl>
0

>  <NsBr>
0

>  <NsI>
0

>  <fragCpx>
156.02

>  <fMF>
0.48

>  <nHBAcc>
2

>  <nHBDon>
0

>  <Kier1>
14.58

>  <Kier2>
6.25

>  <Lipinski>
1

>  <GhoseFilter>
1

>  <FilterItLogS>
-5.18

>  <VMcGowan>
235.66

>  <LabuteASA>
130.47

>  <PEOE_VSA1>
4.9

>  <PEOE_VSA2>
0

>  <PEOE_VSA3>
0

>  <PEOE_VSA4>
0

>  <PEOE_VSA5>
11.34

>  <PEOE_VSA6>
29.84

>  <PEOE_VSA7>
66.44

>  <PEOE_VSA8>
17.97

>  <PEOE_VSA9>
0

>  <PEOE_VSA10>
0

>  <PEOE_VSA11>
0

>  <PEOE_VSA12>
0

>  <PEOE_VSA13>
0

>  <SMR_VSA1>
0

>  <SMR_VSA2>
0

>  <SMR_VSA3>
4.9

>  <SMR_VSA4>
0

>  <SMR_VSA5>
25.68

>  <SMR_VSA6>
20.14

>  <SMR_VSA7>
62.85

>  <SMR_VSA8>
0

>  <SMR_VSA9>
0

>  <SlogP_VSA1>
0

>  <SlogP_VSA2>
25.04

>  <SlogP_VSA3>
12.84

>  <SlogP_VSA4>
0

>  <SlogP_VSA5>
34.41

>  <SlogP_VSA6>
41.29

>  <SlogP_VSA7>
0

>  <SlogP_VSA8>
5.57

>  <SlogP_VSA9>
0

>  <SlogP_VSA10>
0

>  <SlogP_VSA11>
0

>  <EState_VSA1>
0

>  <EState_VSA2>
0

>  <EState_VSA3>
0

>  <EState_VSA4>
0

>  <EState_VSA5>
55.46

>  <EState_VSA6>
16.02

>  <EState_VSA7>
11.34

>  <EState_VSA8>
47.66

>  <EState_VSA9>
0

>  <EState_VSA10>
0

>  <VSA_EState1>
0

>  <VSA_EState2>
4.02

>  <VSA_EState3>
2.27

>  <VSA_EState4>
7.77

>  <VSA_EState5>
0

>  <VSA_EState6>
11.4

>  <VSA_EState7>
4.81

>  <VSA_EState8>
2.39

>  <VSA_EState9>
2.23

>  <apol>
49.73

>  <bpol>
25.24

>  <nRing>
4

>  <nHRing>
2

>  <naRing>
2

>  <naHRing>
1

>  <nARing 2>
2

>  <nAHRing 2>
1

>  <nFRing>
1

>  <nFHRing>
1

>  <nFaRing>
0

>  <nFaHRing>
0

>  <nFARing 2>
1

>  <nFAHRing 2>
1

>  <nRot>
0

>  <SLogP>
4.37

>  <SMR>
90.92

>  <TopoPSA(NO)>
3.24

>  <TopoPSA>
31.48

>  <JGI1>
0.13

>  <JGI2>
0.07

>  <JGI3>
0.04

>  <JGI4>
0.04

>  <JGI5>
0.01

>  <Diameter>
9

>  <Radius>
5

>  <TMWC10>
120.14

>  <TSRW10>
69.24

>  <MW>
295.14

>  <AMW>
7.03

>  <WPath>
819

>  <WPol>
37

>  <Zagreb1>
116

>  <Zagreb2>
140

>  <mZagreb2>
4.56

>  <yes>


>  <nAR-cont>
1

>  <nHA-cont>
0.994529749

>  <MWHBN>
0.116416881

>  <MWHBN-cont>
0.813532959

>  <TPSA-cont>
0.780250052

>  <pka_cont>
0.97

>  <yes.1>


>  <BBB_SCORE>
5.260329292

>  <MMFF94 Energy>
82.834

$$$$
Compound 1383
Actelion Java MolfileCreator 2.0

  0  0  0  0  0  0              0 V3000
M  V30 BEGIN CTAB
M  V30 COUNTS 40 43 0 0 0
M  V30 BEGIN ATOM
M  V30 1 Cl -3.7362 -0.7301 4.0616 0
M  V30 2 C -3.2332 -0.8752 2.4216 0
M  V30 3 C -1.8792 -0.7554 2.103 0
M  V30 4 C -4.1848 -1.1143 1.4282 0
M  V30 5 C -1.4708 -0.8439 0.7696 0
M  V30 6 C -3.7782 -1.2713 0.1033 0
M  V30 7 C -0.0699 -0.7338 0.2847 0
M  V30 8 C -2.4241 -1.1682 -0.214 0
M  V30 9 C 0.2516 -1.7081 -0.7912 0
M  V30 10 C 0.7531 0.2991 0.6219 0
M  V30 11 O -2.0613 -1.4398 -1.5228 0
M  V30 12 C -0.7978 -1.984 -1.6863 0
M  V30 13 C 1.4446 -2.426 -0.9114 0
M  V30 14 C 2.137 0.556 0.0268 0
M  V30 15 C 0.4086 1.4247 1.5967 0
M  V30 16 C -0.6163 -2.8581 -2.7574 0
M  V30 17 C 1.6238 -3.3168 -1.9741 0
M  V30 18 C 2.2938 1.9855 -0.5211 0
M  V30 19 C 0.628 2.8237 0.9938 0
M  V30 20 C 0.6025 -3.5186 -2.9047 0
M  V30 21 N 2.0015 3.0018 0.5006 0
M  V30 22 C 2.1805 4.3462 -0.0461 0
M  V30 23 H -1.1499 -0.5998 2.8931 0
M  V30 24 H -5.2372 -1.2053 1.684 0
M  V30 25 H -4.5052 -1.5015 -0.6702 0
M  V30 26 H 2.2394 -2.3049 -0.1801 0
M  V30 27 H 2.887 0.3778 0.8086 0
M  V30 28 H 2.3813 -0.111 -0.7999 0
M  V30 29 H 1.0331 1.3085 2.4921 0
M  V30 30 H -0.6284 1.4017 1.9325 0
M  V30 31 H -1.4287 -3.0455 -3.4533 0
M  V30 32 H 2.561 -3.8596 -2.072 0
M  V30 33 H 1.6431 2.1135 -1.3972 0
M  V30 34 H 3.3285 2.103 -0.8666 0
M  V30 35 H 0.4226 3.5647 1.7767 0
M  V30 36 H -0.1011 2.9922 0.1892 0
M  V30 37 H 0.748 -4.2122 -3.7291 0
M  V30 38 H 3.2133 4.489 -0.3831 0
M  V30 39 H 1.5114 4.5443 -0.8914 0
M  V30 40 H 1.9946 5.1021 0.725 0
M  V30 END ATOM
M  V30 BEGIN BOND
M  V30 1 1 1 2
M  V30 2 2 2 3
M  V30 3 1 2 4
M  V30 4 1 3 5
M  V30 5 2 4 6
M  V30 6 1 5 7
M  V30 7 2 5 8
M  V30 8 1 7 9
M  V30 9 2 7 10
M  V30 10 1 8 11
M  V30 11 2 9 12
M  V30 12 1 9 13
M  V30 13 1 10 14
M  V30 14 1 10 15
M  V30 15 1 12 16
M  V30 16 2 13 17
M  V30 17 1 14 18
M  V30 18 1 15 19
M  V30 19 2 16 20
M  V30 20 1 18 21
M  V30 21 1 21 22
M  V30 22 1 6 8
M  V30 23 1 11 12
M  V30 24 1 17 20
M  V30 25 1 19 21
M  V30 26 1 3 23
M  V30 27 1 4 24
M  V30 28 1 6 25
M  V30 29 1 13 26
M  V30 30 1 14 27
M  V30 31 1 14 28
M  V30 32 1 15 29
M  V30 33 1 15 30
M  V30 34 1 16 31
M  V30 35 1 17 32
M  V30 36 1 18 33
M  V30 37 1 18 34
M  V30 38 1 19 35
M  V30 39 1 19 36
M  V30 40 1 20 37
M  V30 41 1 22 38
M  V30 42 1 22 39
M  V30 43 1 22 40
M  V30 END BOND
M  V30 END CTAB
M  END
>  <Column 1>
1659

>  <level_0>
1815

>  <index>
1815

>  <Unnamed: 0>
1815

>  <NO.>
1827

>  <Name>
clopipazan

>  <IUPAC_name>
4-(2-chloroxanthen-9-ylidene)-1-methylpiperidine

>  <SMILES>
CN1CCC(=C2c3ccccc3Oc3ccc(Cl)cc32)CC1

>  <CID>
43215

>  <logBB>


>  <BBB+/BBB->
BBB+

>  <Inchi>
InChI=1S/C19H18ClNO/c1-21-10-8-13(9-11-21)19-15-4-2-3-5-17(15)22-18-7-6-14(20)12-16(18)19/h2-7-12H-8-11H2-1H3

>  <threshold>
-1

>  <reference>
R1|R13|R19|R6|R24|R27|R27|R27|R30|R30|

>  <group>
B

>  <Class>
1

>  <ABC>
17.69

>  <ABCGG>
13.49

>  <nAcid>
0

>  <nBase>
1

>  <nAromAtom>
12

>  <nAromBond>
12

>  <nAtom>
40

>  <nHeavyAtom>
22

>  <nSpiro>
0

>  <nBridgehead>
0

>  <nHetero>
3

>  <nN>
1

>  <nO>
1

>  <nF>
0

>  <BalabanJ>
1.57

>  <BertzCT>
755.78

>  <nBonds>
43

>  <nBondsO>
25

>  <nBondsS>
30

>  <nBondsD>
1

>  <nBondsT>
0

>  <nBondsA>
12

>  <nBondsM>
13

>  <nBondsKS>
36

>  <nBondsKD>
7

>  <RNCG>
0.37

>  <RPCG>
0.11

>  <FCSP3>
0.26

>  <SZ>
27.33

>  <Sm>
25.96

>  <Sv>
26.44

>  <Sse>
39.75

>  <Sp>
28.63

>  <Si>
44.39

>  <MZ>
0.68

>  <Mm>
0.65

>  <Mv>
0.66

>  <Mse>
0.99

>  <Mp>
0.72

>  <Mi>
1.11

>  <NsCH3>
1

>  <NdCH2>
0

>  <NssCH2>
4

>  <NtCH>
0

>  <NdsCH>
0

>  <NaaCH>
7

>  <NsssCH>
0

>  <NddC>
0

>  <NtsC>
0

>  <NdssC>
2

>  <NaasC>
5

>  <NaaaC>
0

>  <NssssC>
0

>  <NsNH3>
0

>  <NsNH2>
0

>  <NssNH2>
0

>  <NdNH>
0

>  <NssNH>
0

>  <NaaNH>
0

>  <NtN>
0

>  <NsssNH>
0

>  <NdsN>
0

>  <NaaN>
0

>  <NsssN>
1

>  <NddsN>
0

>  <NaasN>
0

>  <NssssN>
0

>  <NsOH>
0

>  <NdO>
0

>  <NssO>
1

>  <NaaO>
0

>  <NsF>
0

>  <NsSiH3>
0

>  <NssSiH2>
0

>  <NsssSiH>
0

>  <NssssSi>
0

>  <NsPH2>
0

>  <NssPH>
0

>  <NsssP>
0

>  <NdsssP>
0

>  <NsssssP>
0

>  <NsSH>
0

>  <NdS>
0

>  <NssS>
0

>  <NaaS>
0

>  <NdssS>
0

>  <NddssS>
0

>  <NsCl>
1

>  <NsBr>
0

>  <NsI>
0

>  <fragCpx>
163.03

>  <fMF>
0.5

>  <nHBAcc>
2

>  <nHBDon>
0

>  <Kier1>
15.52

>  <Kier2>
6.48

>  <Lipinski>
1

>  <GhoseFilter>
1

>  <FilterItLogS>
-5.55

>  <VMcGowan>
233.12

>  <LabuteASA>
135.52

>  <PEOE_VSA1>
9.64

>  <PEOE_VSA2>
0

>  <PEOE_VSA3>
0

>  <PEOE_VSA4>
0

>  <PEOE_VSA5>
0

>  <PEOE_VSA6>
35.37

>  <PEOE_VSA7>
49.73

>  <PEOE_VSA8>
29.24

>  <PEOE_VSA9>
0

>  <PEOE_VSA10>
11.5

>  <PEOE_VSA11>
0

>  <PEOE_VSA12>
0

>  <PEOE_VSA13>
0

>  <SMR_VSA1>
4.74

>  <SMR_VSA2>
0

>  <SMR_VSA3>
4.9

>  <SMR_VSA4>
0

>  <SMR_VSA5>
12.84

>  <SMR_VSA6>
20.14

>  <SMR_VSA7>
64.19

>  <SMR_VSA8>
0

>  <SMR_VSA9>
11.5

>  <SlogP_VSA1>
4.74

>  <SlogP_VSA2>
25.04

>  <SlogP_VSA3>
0

>  <SlogP_VSA4>
0

>  <SlogP_VSA5>
23.97

>  <SlogP_VSA6>
48.04

>  <SlogP_VSA7>
5.02

>  <SlogP_VSA8>
5.57

>  <SlogP_VSA9>
0

>  <SlogP_VSA10>
0

>  <SlogP_VSA11>
11.5

>  <EState_VSA1>
0

>  <EState_VSA2>
0

>  <EState_VSA3>
0

>  <EState_VSA4>
48.02

>  <EState_VSA5>
16.71

>  <EState_VSA6>
0

>  <EState_VSA7>
30.33

>  <EState_VSA8>
24.08

>  <EState_VSA9>
16.34

>  <EState_VSA10>
0

>  <VSA_EState1>
6.07

>  <VSA_EState2>
2.38

>  <VSA_EState3>
0.76

>  <VSA_EState4>
5.16

>  <VSA_EState5>
1.85

>  <VSA_EState6>
14.2

>  <VSA_EState7>
2.21

>  <VSA_EState8>
2.22

>  <VSA_EState9>
2.18

>  <apol>
47.81

>  <bpol>
22.01

>  <nRing>
4

>  <nHRing>
2

>  <naRing>
2

>  <naHRing>
0

>  <nARing 2>
2

>  <nAHRing 2>
2

>  <nFRing>
1

>  <nFHRing>
1

>  <nFaRing>
0

>  <nFaHRing>
0

>  <nFARing 2>
1

>  <nFAHRing 2>
1

>  <nRot>
0

>  <SLogP>
4.97

>  <SMR>
90.72

>  <TopoPSA(NO)>
12.47

>  <TopoPSA>
12.47

>  <JGI1>
0.16

>  <JGI2>
0.07

>  <JGI3>
0.04

>  <JGI4>
0.05

>  <JGI5>
0.02

>  <Diameter>
9

>  <Radius>
5

>  <TMWC10>
122.77

>  <TSRW10>
56.75

>  <MW>
311.11

>  <AMW>
7.78

>  <WPath>
943

>  <WPol>
38

>  <Zagreb1>
122

>  <Zagreb2>
147

>  <mZagreb2>
4.72

>  <yes>


>  <nAR-cont>
1

>  <nHA-cont>
0.983774276

>  <MWHBN>
0.113389544

>  <MWHBN-cont>
0.799533947

>  <TPSA-cont>
0.912951657

>  <pka_cont>
0.97

>  <yes.1>


>  <BBB_SCORE>
5.49397851

>  <MMFF94 Energy>
102.86

$$$$
Compound 1384
Actelion Java MolfileCreator 2.0

  0  0  0  0  0  0              0 V3000
M  V30 BEGIN CTAB
M  V30 COUNTS 40 43 0 0 0
M  V30 BEGIN ATOM
M  V30 1 S -1.7926 0.6515 2.5266 0
M  V30 2 C -2.3399 1.1493 0.8875 0
M  V30 3 C -0.0964 1.2479 2.4926 0
M  V30 4 C -1.4373 1.2841 -0.1858 0
M  V30 5 C -3.6909 1.4674 0.7035 0
M  V30 6 C 0.6203 1.3745 1.2863 0
M  V30 7 C 0.4929 1.6513 3.6968 0
M  V30 8 C -0.0187 0.8858 0.0328 0
M  V30 9 C -1.8848 1.8379 -1.3935 0
M  V30 10 C -4.1347 1.9689 -0.5212 0
M  V30 11 C 1.8735 2.0031 1.2954 0
M  V30 12 C 1.764 2.2282 3.6989 0
M  V30 13 C 0.5811 -0.0572 -0.7478 0
M  V30 14 C -3.2304 2.1688 -1.5626 0
M  V30 15 C 2.4463 2.4184 2.4987 0
M  V30 16 C -0.0577 -0.7421 -1.9542 0
M  V30 17 C 1.9664 -0.6532 -0.506 0
M  V30 18 C -0.0216 -2.276 -1.8388 0
M  V30 19 C 1.9348 -2.19 -0.4391 0
M  V30 20 N 1.3473 -2.7823 -1.6513 0
M  V30 21 C 1.3455 -4.2416 -1.5592 0
M  V30 22 H -4.3999 1.3544 1.5201 0
M  V30 23 H -0.0446 1.5459 4.636 0
M  V30 24 H -1.1876 2.0055 -2.2109 0
M  V30 25 H -5.1827 2.2254 -0.6541 0
M  V30 26 H 2.4124 2.1638 0.3647 0
M  V30 27 H 2.2114 2.5505 4.6359 0
M  V30 28 H -3.5723 2.583 -2.5078 0
M  V30 29 H 3.4254 2.8906 2.4986 0
M  V30 30 H -1.1023 -0.4662 -2.1058 0
M  V30 31 H 0.4824 -0.4277 -2.8567 0
M  V30 32 H 2.4292 -0.3109 0.4208 0
M  V30 33 H 2.6277 -0.3333 -1.3218 0
M  V30 34 H -0.6725 -2.5949 -1.0131 0
M  V30 35 H -0.4409 -2.6942 -2.7622 0
M  V30 36 H 1.3819 -2.5046 0.4567 0
M  V30 37 H 2.9666 -2.5444 -0.3243 0
M  V30 38 H 2.368 -4.6206 -1.4541 0
M  V30 39 H 0.7543 -4.6044 -0.7106 0
M  V30 40 H 0.9397 -4.6834 -2.4759 0
M  V30 END ATOM
M  V30 BEGIN BOND
M  V30 1 1 1 2
M  V30 2 1 1 3
M  V30 3 2 2 4
M  V30 4 1 2 5
M  V30 5 2 3 6
M  V30 6 1 3 7
M  V30 7 1 4 8
M  V30 8 1 4 9
M  V30 9 2 5 10
M  V30 10 1 6 11
M  V30 11 2 7 12
M  V30 12 2 8 13
M  V30 13 2 9 14
M  V30 14 2 11 15
M  V30 15 1 13 16
M  V30 16 1 13 17
M  V30 17 1 16 18
M  V30 18 1 17 19
M  V30 19 1 18 20
M  V30 20 1 20 21
M  V30 21 1 6 8
M  V30 22 1 10 14
M  V30 23 1 12 15
M  V30 24 1 19 20
M  V30 25 1 5 22
M  V30 26 1 7 23
M  V30 27 1 9 24
M  V30 28 1 10 25
M  V30 29 1 11 26
M  V30 30 1 12 27
M  V30 31 1 14 28
M  V30 32 1 15 29
M  V30 33 1 16 30
M  V30 34 1 16 31
M  V30 35 1 17 32
M  V30 36 1 17 33
M  V30 37 1 18 34
M  V30 38 1 18 35
M  V30 39 1 19 36
M  V30 40 1 19 37
M  V30 41 1 21 38
M  V30 42 1 21 39
M  V30 43 1 21 40
M  V30 END BOND
M  V30 END CTAB
M  END
>  <Column 1>
1660

>  <level_0>
1816

>  <index>
1816

>  <Unnamed: 0>
1816

>  <NO.>
1828

>  <Name>
pimethixene

>  <IUPAC_name>
1-methyl-4-thioxanthen-9-ylidenepiperidine

>  <SMILES>
CN1CCC(=C2c3ccccc3Sc3ccccc32)CC1

>  <CID>
4822

>  <logBB>


>  <BBB+/BBB->
BBB+

>  <Inchi>
InChI=1S/C19H19NS/c1-20-12-10-14(11-13-20)19-15-6-2-4-8-17(15)21-18-9-5-3-7-16(18)19/h2-9H-10-13H2-1H3

>  <threshold>
-1

>  <reference>
R1|R13|R19|R6|R24|R27|R27|R27|R30|R30|

>  <group>
B

>  <Class>
1

>  <ABC>
16.88

>  <ABCGG>
12.85

>  <nAcid>
0

>  <nBase>
1

>  <nAromAtom>
12

>  <nAromBond>
12

>  <nAtom>
40

>  <nHeavyAtom>
21

>  <nSpiro>
0

>  <nBridgehead>
0

>  <nHetero>
2

>  <nN>
1

>  <nO>
0

>  <nF>
0

>  <BalabanJ>
1.56

>  <BertzCT>
659.51

>  <nBonds>
43

>  <nBondsO>
24

>  <nBondsS>
30

>  <nBondsD>
1

>  <nBondsT>
0

>  <nBondsA>
12

>  <nBondsM>
13

>  <nBondsKS>
36

>  <nBondsKD>
7

>  <RNCG>
0.32

>  <RPCG>
0.07

>  <FCSP3>
0.26

>  <SZ>
26

>  <Sm>
24.43

>  <Sv>
26.09

>  <Sse>
39.17

>  <Sp>
28.98

>  <Si>
44.16

>  <MZ>
0.65

>  <Mm>
0.61

>  <Mv>
0.65

>  <Mse>
0.98

>  <Mp>
0.72

>  <Mi>
1.1

>  <NsCH3>
1

>  <NdCH2>
0

>  <NssCH2>
4

>  <NtCH>
0

>  <NdsCH>
0

>  <NaaCH>
8

>  <NsssCH>
0

>  <NddC>
0

>  <NtsC>
0

>  <NdssC>
2

>  <NaasC>
4

>  <NaaaC>
0

>  <NssssC>
0

>  <NsNH3>
0

>  <NsNH2>
0

>  <NssNH2>
0

>  <NdNH>
0

>  <NssNH>
0

>  <NaaNH>
0

>  <NtN>
0

>  <NsssNH>
0

>  <NdsN>
0

>  <NaaN>
0

>  <NsssN>
1

>  <NddsN>
0

>  <NaasN>
0

>  <NssssN>
0

>  <NsOH>
0

>  <NdO>
0

>  <NssO>
0

>  <NaaO>
0

>  <NsF>
0

>  <NsSiH3>
0

>  <NssSiH2>
0

>  <NsssSiH>
0

>  <NssssSi>
0

>  <NsPH2>
0

>  <NssPH>
0

>  <NsssP>
0

>  <NdsssP>
0

>  <NsssssP>
0

>  <NsSH>
0

>  <NdS>
0

>  <NssS>
1

>  <NaaS>
0

>  <NdssS>
0

>  <NddssS>
0

>  <NsCl>
0

>  <NsBr>
0

>  <NsI>
0

>  <fragCpx>
156.02

>  <fMF>
0.5

>  <nHBAcc>
2

>  <nHBDon>
0

>  <Kier1>
14.58

>  <Kier2>
6.25

>  <Lipinski>
1

>  <GhoseFilter>
1

>  <FilterItLogS>
-5.16

>  <VMcGowan>
231.36

>  <LabuteASA>
130.22

>  <PEOE_VSA1>
4.9

>  <PEOE_VSA2>
0

>  <PEOE_VSA3>
0

>  <PEOE_VSA4>
0

>  <PEOE_VSA5>
0

>  <PEOE_VSA6>
53.73

>  <PEOE_VSA7>
48.72

>  <PEOE_VSA8>
22.88

>  <PEOE_VSA9>
0

>  <PEOE_VSA10>
0

>  <PEOE_VSA11>
0

>  <PEOE_VSA12>
0

>  <PEOE_VSA13>
0

>  <SMR_VSA1>
0

>  <SMR_VSA2>
0

>  <SMR_VSA3>
4.9

>  <SMR_VSA4>
0

>  <SMR_VSA5>
22.63

>  <SMR_VSA6>
20.14

>  <SMR_VSA7>
65.23

>  <SMR_VSA8>
0

>  <SMR_VSA9>
0

>  <SlogP_VSA1>
0

>  <SlogP_VSA2>
25.04

>  <SlogP_VSA3>
0

>  <SlogP_VSA4>
0

>  <SlogP_VSA5>
23.97

>  <SlogP_VSA6>
63.9

>  <SlogP_VSA7>
0

>  <SlogP_VSA8>
5.57

>  <SlogP_VSA9>
0

>  <SlogP_VSA10>
0

>  <SlogP_VSA11>
0

>  <EState_VSA1>
0

>  <EState_VSA2>
0

>  <EState_VSA3>
0

>  <EState_VSA4>
0

>  <EState_VSA5>
52.42

>  <EState_VSA6>
5.57

>  <EState_VSA7>
11.76

>  <EState_VSA8>
60.48

>  <EState_VSA9>
0

>  <EState_VSA10>
0

>  <VSA_EState1>
0

>  <VSA_EState2>
5.23

>  <VSA_EState3>
0

>  <VSA_EState4>
6

>  <VSA_EState5>
0

>  <VSA_EState6>
17.73

>  <VSA_EState7>
2.39

>  <VSA_EState8>
2.35

>  <VSA_EState9>
2.22

>  <apol>
48.4

>  <bpol>
23.23

>  <nRing>
4

>  <nHRing>
2

>  <naRing>
2

>  <naHRing>
0

>  <nARing 2>
2

>  <nAHRing 2>
2

>  <nFRing>
1

>  <nFHRing>
1

>  <nFaRing>
0

>  <nFaHRing>
0

>  <nFARing 2>
1

>  <nFAHRing 2>
1

>  <nRot>
0

>  <SLogP>
4.68

>  <SMR>
89.76

>  <TopoPSA(NO)>
3.24

>  <TopoPSA>
28.54

>  <JGI1>
0.13

>  <JGI2>
0.07

>  <JGI3>
0.04

>  <JGI4>
0.05

>  <JGI5>
0.01

>  <Diameter>
9

>  <Radius>
5

>  <TMWC10>
120.25

>  <TSRW10>
55.49

>  <MW>
293.12

>  <AMW>
7.33

>  <WPath>
832

>  <WPol>
36

>  <Zagreb1>
116

>  <Zagreb2>
140

>  <mZagreb2>
4.56

>  <yes>


>  <nAR-cont>
1

>  <nHA-cont>
0.994529749

>  <MWHBN>
0.116817328

>  <MWHBN-cont>
0.815342482

>  <TPSA-cont>
0.800773078

>  <pka_cont>
0.97

>  <yes.1>


>  <BBB_SCORE>
5.304089628

>  <MMFF94 Energy>
103.16

$$$$
Compound 1385
Actelion Java MolfileCreator 2.0

  0  0  0  0  0  0              0 V3000
M  V30 BEGIN CTAB
M  V30 COUNTS 44 47 0 0 0
M  V30 BEGIN ATOM
M  V30 1 S -0.1617 1.7808 -2.51 0
M  V30 2 C 0.3107 0.0793 -2.7411 0
M  V30 3 C -1.5375 1.6173 -1.3895 0
M  V30 4 C -0.1106 -0.9543 -1.8799 0
M  V30 5 C 1.1527 -0.1923 -3.8343 0
M  V30 6 C -1.7829 0.4433 -0.646 0
M  V30 7 C -2.3658 2.7451 -1.2493 0
M  V30 8 N -0.9294 -0.6884 -0.7508 0
M  V30 9 C 0.2903 -2.2645 -2.2141 0
M  V30 10 C 1.56 -1.4924 -4.1148 0
M  V30 11 C -2.9225 0.4424 0.1844 0
M  V30 12 C -3.4658 2.7205 -0.3983 0
M  V30 13 C -0.702 -1.4983 0.4755 0
M  V30 14 C 1.1184 -2.5313 -3.3098 0
M  V30 15 C -3.7495 1.5641 0.3122 0
M  V30 16 C 0.3958 -0.9865 1.4477 0 CFG=2
M  V30 17 C 0.277 0.4873 1.8556 0
M  V30 18 C 1.8387 -1.0539 0.9077 0
M  V30 19 C 0.3109 -1.8828 2.7165 0
M  V30 20 N 1.5977 0.7487 2.4438 0
M  V30 21 C 2.5529 0.1681 1.4956 0
M  V30 22 C 1.8326 2.1678 2.6688 0
M  V30 23 H 1.4872 0.6147 -4.4826 0
M  V30 24 H -2.1578 3.652 -1.8133 0
M  V30 25 H -0.0594 -3.121 -1.6471 0
M  V30 26 H 2.2035 -1.6919 -4.9671 0
M  V30 27 H -3.2216 -0.4455 0.7312 0
M  V30 28 H -4.1035 3.5951 -0.3031 0
M  V30 29 H -1.6346 -1.6071 1.0375 0
M  V30 30 H -0.467 -2.5372 0.2234 0
M  V30 31 H 1.4071 -3.555 -3.534 0
M  V30 32 H -4.62 1.5241 0.9624 0
M  V30 33 H -0.5279 0.6564 2.5787 0
M  V30 34 H 0.1259 1.1451 0.9958 0
M  V30 35 H 1.8894 -0.9917 -0.18 0
M  V30 36 H 2.3411 -1.9829 1.2006 0
M  V30 37 H -0.6582 -1.7642 3.2143 0
M  V30 38 H 1.0887 -1.6465 3.4509 0
M  V30 39 H 0.4253 -2.941 2.4544 0
M  V30 40 H 2.8003 0.8638 0.6835 0
M  V30 41 H 3.4831 -0.1162 1.9976 0
M  V30 42 H 2.8265 2.3252 3.1014 0
M  V30 43 H 1.1055 2.5646 3.3856 0
M  V30 44 H 1.7615 2.7571 1.7475 0
M  V30 END ATOM
M  V30 BEGIN BOND
M  V30 1 1 1 2
M  V30 2 1 1 3
M  V30 3 2 2 4
M  V30 4 1 2 5
M  V30 5 2 3 6
M  V30 6 1 3 7
M  V30 7 1 4 8
M  V30 8 1 4 9
M  V30 9 2 5 10
M  V30 10 1 6 11
M  V30 11 2 7 12
M  V30 12 1 8 13
M  V30 13 2 9 14
M  V30 14 2 11 15
M  V30 15 1 13 16
M  V30 16 1 16 17
M  V30 17 1 16 18
M  V30 18 1 16 19
M  V30 19 1 17 20
M  V30 20 1 18 21
M  V30 21 1 20 22
M  V30 22 1 6 8
M  V30 23 1 10 14
M  V30 24 1 12 15
M  V30 25 1 20 21
M  V30 26 1 5 23
M  V30 27 1 7 24
M  V30 28 1 9 25
M  V30 29 1 10 26
M  V30 30 1 11 27
M  V30 31 1 12 28
M  V30 32 1 13 29
M  V30 33 1 13 30
M  V30 34 1 14 31
M  V30 35 1 15 32
M  V30 36 1 17 33
M  V30 37 1 17 34
M  V30 38 1 18 35
M  V30 39 1 18 36
M  V30 40 1 19 37
M  V30 41 1 19 38
M  V30 42 1 19 39
M  V30 43 1 21 40
M  V30 44 1 21 41
M  V30 45 1 22 42
M  V30 46 1 22 43
M  V30 47 1 22 44
M  V30 END BOND
M  V30 BEGIN COLLECTION
M  V30 MDLV30/STERAC1 ATOMS=(1 16)
M  V30 END COLLECTION
M  V30 END CTAB
M  END
>  <Column 1>
1661

>  <level_0>
1817

>  <index>
1817

>  <Unnamed: 0>
1817

>  <NO.>
1829

>  <Name>
dimelazine

>  <IUPAC_name>
10-[(1-3-dimethylpyrrolidin-3-yl)methyl]phenothiazine

>  <SMILES>
CN1CCC(C)(CN2c3ccccc3Sc3ccccc32)C1

>  <CID>
208838

>  <logBB>


>  <BBB+/BBB->
BBB+

>  <Inchi>
InChI=1S/C19H22N2S/c1-19(11-12-20(2)13-19)14-21-15-7-3-5-9-17(15)22-18-10-6-4-8-16(18)21/h3-10H-11-14H2-1-2H3

>  <threshold>
-1

>  <reference>
R1|R13|R19|R6|R27|R27|R30|

>  <group>
B

>  <Class>
1

>  <ABC>
17.78

>  <ABCGG>
14.23

>  <nAcid>
0

>  <nBase>
1

>  <nAromAtom>
12

>  <nAromBond>
12

>  <nAtom>
44

>  <nHeavyAtom>
22

>  <nSpiro>
0

>  <nBridgehead>
0

>  <nHetero>
3

>  <nN>
2

>  <nO>
0

>  <nF>
0

>  <BalabanJ>
1.55

>  <BertzCT>
653.84

>  <nBonds>
47

>  <nBondsO>
25

>  <nBondsS>
35

>  <nBondsD>
0

>  <nBondsT>
0

>  <nBondsA>
12

>  <nBondsM>
12

>  <nBondsKS>
41

>  <nBondsKD>
6

>  <RNCG>
0.27

>  <RPCG>
0.05

>  <FCSP3>
0.37

>  <SZ>
27.67

>  <Sm>
25.85

>  <Sv>
27.66

>  <Sse>
43.17

>  <Sp>
30.84

>  <Si>
49.07

>  <MZ>
0.63

>  <Mm>
0.59

>  <Mv>
0.63

>  <Mse>
0.98

>  <Mp>
0.7

>  <Mi>
1.12

>  <NsCH3>
2

>  <NdCH2>
0

>  <NssCH2>
4

>  <NtCH>
0

>  <NdsCH>
0

>  <NaaCH>
8

>  <NsssCH>
0

>  <NddC>
0

>  <NtsC>
0

>  <NdssC>
0

>  <NaasC>
4

>  <NaaaC>
0

>  <NssssC>
1

>  <NsNH3>
0

>  <NsNH2>
0

>  <NssNH2>
0

>  <NdNH>
0

>  <NssNH>
0

>  <NaaNH>
0

>  <NtN>
0

>  <NsssNH>
0

>  <NdsN>
0

>  <NaaN>
0

>  <NsssN>
2

>  <NddsN>
0

>  <NaasN>
0

>  <NssssN>
0

>  <NsOH>
0

>  <NdO>
0

>  <NssO>
0

>  <NaaO>
0

>  <NsF>
0

>  <NsSiH3>
0

>  <NssSiH2>
0

>  <NsssSiH>
0

>  <NssssSi>
0

>  <NsPH2>
0

>  <NssPH>
0

>  <NsssP>
0

>  <NdsssP>
0

>  <NsssssP>
0

>  <NsSH>
0

>  <NdS>
0

>  <NssS>
1

>  <NaaS>
0

>  <NdssS>
0

>  <NddssS>
0

>  <NsCl>
0

>  <NsBr>
0

>  <NsI>
0

>  <fragCpx>
163.03

>  <fMF>
0.45

>  <nHBAcc>
3

>  <nHBDon>
0

>  <Kier1>
15.52

>  <Kier2>
6.14

>  <Lipinski>
1

>  <GhoseFilter>
1

>  <FilterItLogS>
-4.74

>  <VMcGowan>
245.64

>  <LabuteASA>
136.67

>  <PEOE_VSA1>
9.8

>  <PEOE_VSA2>
0

>  <PEOE_VSA3>
0

>  <PEOE_VSA4>
0

>  <PEOE_VSA5>
0

>  <PEOE_VSA6>
42.95

>  <PEOE_VSA7>
49.69

>  <PEOE_VSA8>
22.88

>  <PEOE_VSA9>
11.37

>  <PEOE_VSA10>
0

>  <PEOE_VSA11>
0

>  <PEOE_VSA12>
0

>  <PEOE_VSA13>
0

>  <SMR_VSA1>
0

>  <SMR_VSA2>
0

>  <SMR_VSA3>
4.9

>  <SMR_VSA4>
5.41

>  <SMR_VSA5>
23.14

>  <SMR_VSA6>
31.58

>  <SMR_VSA7>
48.53

>  <SMR_VSA8>
0

>  <SMR_VSA9>
0

>  <SlogP_VSA1>
4.9

>  <SlogP_VSA2>
31.58

>  <SlogP_VSA3>
0

>  <SlogP_VSA4>
5.41

>  <SlogP_VSA5>
13.34

>  <SlogP_VSA6>
58.32

>  <SlogP_VSA7>
0

>  <SlogP_VSA8>
0

>  <SlogP_VSA9>
0

>  <SlogP_VSA10>
11.37

>  <SlogP_VSA11>
0

>  <EState_VSA1>
0

>  <EState_VSA2>
0

>  <EState_VSA3>
5.41

>  <EState_VSA4>
6.54

>  <EState_VSA5>
40.68

>  <EState_VSA6>
0

>  <EState_VSA7>
11.76

>  <EState_VSA8>
72.3

>  <EState_VSA9>
0

>  <EState_VSA10>
0

>  <VSA_EState1>
0

>  <VSA_EState2>
7.74

>  <VSA_EState3>
0

>  <VSA_EState4>
3.08

>  <VSA_EState5>
0

>  <VSA_EState6>
17.61

>  <VSA_EState7>
1.28

>  <VSA_EState8>
5.92

>  <VSA_EState9>
2.24

>  <apol>
51.5

>  <bpol>
27.95

>  <nRing>
4

>  <nHRing>
2

>  <naRing>
2

>  <naHRing>
0

>  <nARing 2>
2

>  <nAHRing 2>
2

>  <nFRing>
1

>  <nFHRing>
1

>  <nFaRing>
0

>  <nFaHRing>
0

>  <nFARing 2>
1

>  <nFAHRing 2>
1

>  <nRot>
2

>  <SLogP>
4.63

>  <SMR>
94.23

>  <TopoPSA(NO)>
6.48

>  <TopoPSA>
31.78

>  <JGI1>
0.2

>  <JGI2>
0.07

>  <JGI3>
0.06

>  <JGI4>
0.05

>  <JGI5>
0.02

>  <Diameter>
9

>  <Radius>
5

>  <TMWC10>
122.97

>  <TSRW10>
70.74

>  <MW>
310.15

>  <AMW>
7.05

>  <WPath>
951

>  <WPol>
36

>  <Zagreb1>
124

>  <Zagreb2>
149

>  <mZagreb2>
4.65

>  <yes>


>  <nAR-cont>
1

>  <nHA-cont>
0.983774276

>  <MWHBN>
0.170347342

>  <MWHBN-cont>
0.974505177

>  <TPSA-cont>
0.778155866

>  <pka_cont>
0.97

>  <yes.1>


>  <BBB_SCORE>
5.486843773

>  <MMFF94 Energy>
90.136

$$$$
Compound 1386
Actelion Java MolfileCreator 2.0

  0  0  0  0  0  0              0 V3000
M  V30 BEGIN CTAB
M  V30 COUNTS 48 51 0 0 0
M  V30 BEGIN ATOM
M  V30 1 O -0.7987 0.3993 0.559 0
M  V30 2 C 0.1562 -0.6729 0.441 0
M  V30 3 C -1.1787 0.9978 -0.6836 0
M  V30 4 C 1.4723 -0.2556 1.0844 0
M  V30 5 C -0.4048 -1.978 1.0117 0
M  V30 6 C -2.4219 1.8464 -0.4227 0
M  V30 7 C -0.0676 1.8809 -1.2522 0
M  V30 8 C 2.6391 -0.9964 0.8095 0
M  V30 9 C 1.561 0.846 1.9516 0
M  V30 10 C 0.3387 -3.183 1.0493 0
M  V30 11 C -1.7387 -2.0036 1.4803 0
M  V30 12 C -2.8417 2.6064 -1.6771 0
M  V30 13 C -0.5516 2.6434 -2.4834 0
M  V30 14 C 3.8632 -0.6113 1.3756 0
M  V30 15 C 2.5522 -2.229 -0.0529 0
M  V30 16 C 2.7829 1.2211 2.5108 0
M  V30 17 C -0.2809 -4.3494 1.5548 0
M  V30 18 C 1.7938 -3.3592 0.6444 0
M  V30 19 C -2.3278 -3.1684 1.972 0
M  V30 20 N -1.7444 3.4431 -2.1789 0
M  V30 21 C 3.9338 0.496 2.2188 0
M  V30 22 C -1.5979 -4.3449 2.0075 0
M  V30 23 C -2.171 4.2012 -3.3548 0
M  V30 24 H 0.3257 -0.8535 -0.6273 0
M  V30 25 H -1.4437 0.2082 -1.3993 0
M  V30 26 H -2.2298 2.5482 0.4001 0
M  V30 27 H -3.2426 1.2047 -0.0794 0
M  V30 28 H 0.8059 1.2758 -1.5193 0
M  V30 29 H 0.2791 2.584 -0.4835 0
M  V30 30 H 0.6718 1.424 2.1966 0
M  V30 31 H -2.3414 -1.0969 1.4725 0
M  V30 32 H -3.1739 1.8956 -2.4452 0
M  V30 33 H -3.7026 3.2368 -1.4232 0
M  V30 34 H -0.7538 1.9355 -3.2981 0
M  V30 35 H 0.2595 3.3011 -2.8183 0
M  V30 36 H 4.7683 -1.1789 1.1732 0
M  V30 37 H 2.1027 -1.9863 -1.0224 0
M  V30 38 H 3.5642 -2.584 -0.2871 0
M  V30 39 H 2.8323 2.079 3.1761 0
M  V30 40 H 0.2795 -5.2819 1.6057 0
M  V30 41 H 1.8424 -4.2298 -0.0239 0
M  V30 42 H 2.3476 -3.6292 1.5549 0
M  V30 43 H -3.3538 -3.1489 2.3289 0
M  V30 44 H 4.8845 0.7869 2.6572 0
M  V30 45 H -2.0459 -5.2558 2.3938 0
M  V30 46 H -1.3701 4.867 -3.695 0
M  V30 47 H -3.0271 4.8403 -3.1112 0
M  V30 48 H -2.4541 3.5477 -4.1878 0
M  V30 END ATOM
M  V30 BEGIN BOND
M  V30 1 1 1 2
M  V30 2 1 1 3
M  V30 3 1 2 4
M  V30 4 1 2 5
M  V30 5 1 3 6
M  V30 6 1 3 7
M  V30 7 2 4 8
M  V30 8 1 4 9
M  V30 9 2 5 10
M  V30 10 1 5 11
M  V30 11 1 6 12
M  V30 12 1 7 13
M  V30 13 1 8 14
M  V30 14 1 8 15
M  V30 15 2 9 16
M  V30 16 1 10 17
M  V30 17 1 10 18
M  V30 18 2 11 19
M  V30 19 1 12 20
M  V30 20 2 14 21
M  V30 21 2 17 22
M  V30 22 1 20 23
M  V30 23 1 13 20
M  V30 24 1 15 18
M  V30 25 1 16 21
M  V30 26 1 19 22
M  V30 27 1 2 24
M  V30 28 1 3 25
M  V30 29 1 6 26
M  V30 30 1 6 27
M  V30 31 1 7 28
M  V30 32 1 7 29
M  V30 33 1 9 30
M  V30 34 1 11 31
M  V30 35 1 12 32
M  V30 36 1 12 33
M  V30 37 1 13 34
M  V30 38 1 13 35
M  V30 39 1 14 36
M  V30 40 1 15 37
M  V30 41 1 15 38
M  V30 42 1 16 39
M  V30 43 1 17 40
M  V30 44 1 18 41
M  V30 45 1 18 42
M  V30 46 1 19 43
M  V30 47 1 21 44
M  V30 48 1 22 45
M  V30 49 1 23 46
M  V30 50 1 23 47
M  V30 51 1 23 48
M  V30 END BOND
M  V30 END CTAB
M  END
>  <Column 1>
1662

>  <level_0>
1818

>  <index>
1818

>  <Unnamed: 0>
1818

>  <NO.>
1830

>  <Name>
hepzidine

>  <IUPAC_name>
1-methyl-4-(2-tricyclo[9.4.0.03-8]pentadeca-1(15)-3-5-7-11-13-hexaenyloxy)piperidine

>  <SMILES>
CN1CCC(OC2c3ccccc3CCc3ccccc32)CC1

>  <CID>
70593

>  <logBB>


>  <BBB+/BBB->
BBB+

>  <Inchi>
InChI=1S/C21H25NO/c1-22-14-12-18(13-15-22)23-21-19-8-4-2-6-16(19)10-11-17-7-3-5-9-20(17)21/h2-9-18-21H-10-15H2-1H3

>  <threshold>
-1

>  <reference>
R1|R13|R19|R6|R24|R27|R27|R27|R30|R30|

>  <group>
B

>  <Class>
1

>  <ABC>
18.33

>  <ABCGG>
14.02

>  <nAcid>
0

>  <nBase>
1

>  <nAromAtom>
12

>  <nAromBond>
12

>  <nAtom>
48

>  <nHeavyAtom>
23

>  <nSpiro>
0

>  <nBridgehead>
0

>  <nHetero>
2

>  <nN>
1

>  <nO>
1

>  <nF>
0

>  <BalabanJ>
1.5

>  <BertzCT>
625.55

>  <nBonds>
51

>  <nBondsO>
26

>  <nBondsS>
39

>  <nBondsD>
0

>  <nBondsT>
0

>  <nBondsA>
12

>  <nBondsM>
12

>  <nBondsKS>
45

>  <nBondsKD>
6

>  <RNCG>
0.27

>  <RPCG>
0.08

>  <FCSP3>
0.43

>  <SZ>
27.67

>  <Sm>
25.6

>  <Sv>
29.25

>  <Sse>
47.09

>  <Sp>
32.12

>  <Si>
53.69

>  <MZ>
0.58

>  <Mm>
0.53

>  <Mv>
0.61

>  <Mse>
0.98

>  <Mp>
0.67

>  <Mi>
1.12

>  <NsCH3>
1

>  <NdCH2>
0

>  <NssCH2>
6

>  <NtCH>
0

>  <NdsCH>
0

>  <NaaCH>
8

>  <NsssCH>
2

>  <NddC>
0

>  <NtsC>
0

>  <NdssC>
0

>  <NaasC>
4

>  <NaaaC>
0

>  <NssssC>
0

>  <NsNH3>
0

>  <NsNH2>
0

>  <NssNH2>
0

>  <NdNH>
0

>  <NssNH>
0

>  <NaaNH>
0

>  <NtN>
0

>  <NsssNH>
0

>  <NdsN>
0

>  <NaaN>
0

>  <NsssN>
1

>  <NddsN>
0

>  <NaasN>
0

>  <NssssN>
0

>  <NsOH>
0

>  <NdO>
0

>  <NssO>
1

>  <NaaO>
0

>  <NsF>
0

>  <NsSiH3>
0

>  <NssSiH2>
0

>  <NsssSiH>
0

>  <NssssSi>
0

>  <NsPH2>
0

>  <NssPH>
0

>  <NsssP>
0

>  <NdsssP>
0

>  <NsssssP>
0

>  <NsSH>
0

>  <NdS>
0

>  <NssS>
0

>  <NaaS>
0

>  <NdssS>
0

>  <NddssS>
0

>  <NsCl>
0

>  <NsBr>
0

>  <NsI>
0

>  <fragCpx>
170.02

>  <fMF>
0.46

>  <nHBAcc>
2

>  <nHBDon>
0

>  <Kier1>
16.47

>  <Kier2>
7.49

>  <Lipinski>
1

>  <GhoseFilter>
1

>  <FilterItLogS>
-4.91

>  <VMcGowan>
253.36

>  <LabuteASA>
138.63

>  <PEOE_VSA1>
9.64

>  <PEOE_VSA2>
0

>  <PEOE_VSA3>
0

>  <PEOE_VSA4>
0

>  <PEOE_VSA5>
0

>  <PEOE_VSA6>
48.53

>  <PEOE_VSA7>
54.98

>  <PEOE_VSA8>
13.09

>  <PEOE_VSA9>
6.1

>  <PEOE_VSA10>
6.1

>  <PEOE_VSA11>
0

>  <PEOE_VSA12>
0

>  <PEOE_VSA13>
0

>  <SMR_VSA1>
4.74

>  <SMR_VSA2>
0

>  <SMR_VSA3>
4.9

>  <SMR_VSA4>
0

>  <SMR_VSA5>
37.89

>  <SMR_VSA6>
20.14

>  <SMR_VSA7>
70.78

>  <SMR_VSA8>
0

>  <SMR_VSA9>
0

>  <SlogP_VSA1>
0

>  <SlogP_VSA2>
31.14

>  <SlogP_VSA3>
17.58

>  <SlogP_VSA4>
0

>  <SlogP_VSA5>
41.2

>  <SlogP_VSA6>
48.53

>  <SlogP_VSA7>
0

>  <SlogP_VSA8>
0

>  <SlogP_VSA9>
0

>  <SlogP_VSA10>
0

>  <SlogP_VSA11>
0

>  <EState_VSA1>
0

>  <EState_VSA2>
6.1

>  <EState_VSA3>
6.1

>  <EState_VSA4>
38.77

>  <EState_VSA5>
22.25

>  <EState_VSA6>
0

>  <EState_VSA7>
0

>  <EState_VSA8>
60.48

>  <EState_VSA9>
4.74

>  <EState_VSA10>
0

>  <VSA_EState1>
6.69

>  <VSA_EState2>
2.4

>  <VSA_EState3>
0

>  <VSA_EState4>
5.64

>  <VSA_EState5>
0

>  <VSA_EState6>
17.67

>  <VSA_EState7>
4.96

>  <VSA_EState8>
2.28

>  <VSA_EState9>
2.2

>  <apol>
53.64

>  <bpol>
28.53

>  <nRing>
4

>  <nHRing>
1

>  <naRing>
2

>  <naHRing>
0

>  <nARing 2>
2

>  <nAHRing 2>
1

>  <nFRing>
1

>  <nFHRing>
0

>  <nFaRing>
0

>  <nFaHRing>
0

>  <nFARing 2>
1

>  <nFAHRing 2>
0

>  <nRot>
2

>  <SLogP>
3.99

>  <SMR>
93.74

>  <TopoPSA(NO)>
12.47

>  <TopoPSA>
12.47

>  <JGI1>
0.13

>  <JGI2>
0.07

>  <JGI3>
0.03

>  <JGI4>
0.04

>  <JGI5>
0.02

>  <Diameter>
10

>  <Radius>
5

>  <TMWC10>
124.1

>  <TSRW10>
65.62

>  <MW>
307.19

>  <AMW>
6.4

>  <WPath>
1104

>  <WPol>
40

>  <Zagreb1>
124

>  <Zagreb2>
147

>  <mZagreb2>
5.03

>  <yes>


>  <nAR-cont>
1

>  <nHA-cont>
0.967789328

>  <MWHBN>
0.114110723

>  <MWHBN-cont>
0.802920154

>  <TPSA-cont>
0.912951657

>  <pka_cont>
0.97

>  <yes.1>


>  <BBB_SCORE>
5.483072872

>  <MMFF94 Energy>
75.69

$$$$
Compound 1387
Actelion Java MolfileCreator 2.0

  0  0  0  0  0  0              0 V3000
M  V30 BEGIN CTAB
M  V30 COUNTS 38 40 0 0 0
M  V30 BEGIN ATOM
M  V30 1 O 1.3527 -1.0343 4.3817 0
M  V30 2 C 0.7914 -0.3185 3.3655 0
M  V30 3 C 0.2312 -0.9488 2.2568 0
M  V30 4 C 0.7928 1.0622 3.4723 0
M  V30 5 C -0.3496 -0.1955 1.2162 0
M  V30 6 C 0.2337 1.8272 2.4526 0
M  V30 7 C -0.3238 1.2137 1.3175 0
M  V30 8 C -0.9754 -0.9031 0.0032 0
M  V30 9 C -0.91 2.0993 0.2426 0
M  V30 10 C 0.0757 -1.7197 -0.7903 0
M  V30 11 C -1.6888 0.0804 -0.9503 0
M  V30 12 C -2.0597 -1.8987 0.4951 0
M  V30 13 C -0.9452 1.4016 -1.1223 0
M  V30 14 C 1.2364 -0.9444 -1.4199 0
M  V30 15 C 0.472 1.3293 -1.7326 0
M  V30 16 N 0.8166 0.0669 -2.4087 0
M  V30 17 C 1.9221 0.3103 -3.3457 0
M  V30 18 H 1.2578 -1.9797 4.1827 0
M  V30 19 H 0.243 -2.0327 2.1982 0
M  V30 20 H 1.2273 1.5419 4.344 0
M  V30 21 H 0.2393 2.9112 2.5437 0
M  V30 22 H -1.9285 2.3721 0.5476 0
M  V30 23 H -0.3371 3.0317 0.1626 0
M  V30 24 H -0.4346 -2.2723 -1.5925 0
M  V30 25 H 0.5111 -2.4934 -0.1437 0
M  V30 26 H -2.6889 0.3148 -0.5561 0
M  V30 27 H -1.8721 -0.3855 -1.9274 0
M  V30 28 H -2.8024 -1.3972 1.1274 0
M  V30 29 H -2.5922 -2.3494 -0.3507 0
M  V30 30 H -1.6344 -2.7213 1.0802 0
M  V30 31 H -1.5522 2.0223 -1.7964 0
M  V30 32 H 1.8853 -0.5144 -0.6461 0
M  V30 33 H 1.8503 -1.7042 -1.9235 0
M  V30 34 H 0.5071 2.1455 -2.4691 0
M  V30 35 H 1.2464 1.5977 -1.001 0
M  V30 36 H 1.6286 1.0409 -4.1079 0
M  V30 37 H 2.1785 -0.6078 -3.8861 0
M  V30 38 H 2.8215 0.6784 -2.8386 0
M  V30 END ATOM
M  V30 BEGIN BOND
M  V30 1 1 1 2
M  V30 2 2 2 3
M  V30 3 1 2 4
M  V30 4 1 3 5
M  V30 5 2 4 6
M  V30 6 2 5 7
M  V30 7 1 5 8
M  V30 8 1 7 9
M  V30 9 1 8 10
M  V30 10 1 8 11
M  V30 11 1 8 12
M  V30 12 1 9 13
M  V30 13 1 10 14
M  V30 14 1 13 15
M  V30 15 1 14 16
M  V30 16 1 16 17
M  V30 17 1 6 7
M  V30 18 1 11 13
M  V30 19 1 15 16
M  V30 20 1 1 18
M  V30 21 1 3 19
M  V30 22 1 4 20
M  V30 23 1 6 21
M  V30 24 1 9 22
M  V30 25 1 9 23
M  V30 26 1 10 24
M  V30 27 1 10 25
M  V30 28 1 11 26
M  V30 29 1 11 27
M  V30 30 1 12 28
M  V30 31 1 12 29
M  V30 32 1 12 30
M  V30 33 1 13 31
M  V30 34 1 14 32
M  V30 35 1 14 33
M  V30 36 1 15 34
M  V30 37 1 15 35
M  V30 38 1 17 36
M  V30 39 1 17 37
M  V30 40 1 17 38
M  V30 END BOND
M  V30 END CTAB
M  END
>  <Column 1>
1663

>  <level_0>
1819

>  <index>
1819

>  <Unnamed: 0>
1819

>  <NO.>
1831

>  <Name>
eptazocine

>  <IUPAC_name>
1-11-dimethyl-11-azatricyclo[7.4.1.02-7]tetradeca-2(7)-3-5-trien-4-ol

>  <SMILES>
CN1CCC2(C)CC(Cc3ccc(O)cc32)C1

>  <CID>
3246

>  <logBB>


>  <BBB+/BBB->
BBB+

>  <Inchi>
InChI=1S/C15H21NO/c1-15-5-6-16(2)10-11(9-15)7-12-3-4-13(17)8-14(12)15/h3-4-8-11-17H-5-7-9-10H2-1-2H3

>  <threshold>
-1

>  <reference>
R1|R19|R27|R27|R30|

>  <group>
B

>  <Class>
1

>  <ABC>
13.71

>  <ABCGG>
11.16

>  <nAcid>
0

>  <nBase>
1

>  <nAromAtom>
6

>  <nAromBond>
6

>  <nAtom>
38

>  <nHeavyAtom>
17

>  <nSpiro>
0

>  <nBridgehead>
2

>  <nHetero>
2

>  <nN>
1

>  <nO>
1

>  <nF>
0

>  <BalabanJ>
1.84

>  <BertzCT>
442.55

>  <nBonds>
40

>  <nBondsO>
19

>  <nBondsS>
34

>  <nBondsD>
0

>  <nBondsT>
0

>  <nBondsA>
6

>  <nBondsM>
6

>  <nBondsKS>
37

>  <nBondsKD>
3

>  <RNCG>
0.43

>  <RPCG>
0.25

>  <FCSP3>
0.6

>  <SZ>
21

>  <Sm>
19.26

>  <Sv>
22.16

>  <Sse>
37.32

>  <Sp>
24.52

>  <Si>
42.86

>  <MZ>
0.55

>  <Mm>
0.51

>  <Mv>
0.58

>  <Mse>
0.98

>  <Mp>
0.65

>  <Mi>
1.13

>  <NsCH3>
2

>  <NdCH2>
0

>  <NssCH2>
5

>  <NtCH>
0

>  <NdsCH>
0

>  <NaaCH>
3

>  <NsssCH>
1

>  <NddC>
0

>  <NtsC>
0

>  <NdssC>
0

>  <NaasC>
3

>  <NaaaC>
0

>  <NssssC>
1

>  <NsNH3>
0

>  <NsNH2>
0

>  <NssNH2>
0

>  <NdNH>
0

>  <NssNH>
0

>  <NaaNH>
0

>  <NtN>
0

>  <NsssNH>
0

>  <NdsN>
0

>  <NaaN>
0

>  <NsssN>
1

>  <NddsN>
0

>  <NaasN>
0

>  <NssssN>
0

>  <NsOH>
1

>  <NdO>
0

>  <NssO>
0

>  <NaaO>
0

>  <NsF>
0

>  <NsSiH3>
0

>  <NssSiH2>
0

>  <NsssSiH>
0

>  <NssssSi>
0

>  <NsPH2>
0

>  <NssPH>
0

>  <NsssP>
0

>  <NdsssP>
0

>  <NsssssP>
0

>  <NsSH>
0

>  <NdS>
0

>  <NssS>
0

>  <NaaS>
0

>  <NdssS>
0

>  <NddssS>
0

>  <NsCl>
0

>  <NsBr>
0

>  <NsI>
0

>  <fragCpx>
89.02

>  <fMF>
0.37

>  <nHBAcc>
2

>  <nHBDon>
1

>  <Kier1>
12.06

>  <Kier2>
4.28

>  <Lipinski>
1

>  <GhoseFilter>
1

>  <FilterItLogS>
-3.18

>  <VMcGowan>
192.58

>  <LabuteASA>
103.26

>  <PEOE_VSA1>
10.01

>  <PEOE_VSA2>
0

>  <PEOE_VSA3>
0

>  <PEOE_VSA4>
0

>  <PEOE_VSA5>
0

>  <PEOE_VSA6>
12.99

>  <PEOE_VSA7>
67.45

>  <PEOE_VSA8>
6.54

>  <PEOE_VSA9>
0

>  <PEOE_VSA10>
5.75

>  <PEOE_VSA11>
0

>  <PEOE_VSA12>
0

>  <PEOE_VSA13>
0

>  <SMR_VSA1>
5.11

>  <SMR_VSA2>
0

>  <SMR_VSA3>
4.9

>  <SMR_VSA4>
5.92

>  <SMR_VSA5>
31.6

>  <SMR_VSA6>
20.14

>  <SMR_VSA7>
29.33

>  <SMR_VSA8>
0

>  <SMR_VSA9>
5.75

>  <SlogP_VSA1>
0

>  <SlogP_VSA2>
30.14

>  <SlogP_VSA3>
11.84

>  <SlogP_VSA4>
5.92

>  <SlogP_VSA5>
30.89

>  <SlogP_VSA6>
18.2

>  <SlogP_VSA7>
0

>  <SlogP_VSA8>
0

>  <SlogP_VSA9>
0

>  <SlogP_VSA10>
0

>  <SlogP_VSA11>
5.75

>  <EState_VSA1>
0

>  <EState_VSA2>
5.41

>  <EState_VSA3>
5.75

>  <EState_VSA4>
5.92

>  <EState_VSA5>
43.48

>  <EState_VSA6>
0

>  <EState_VSA7>
12.13

>  <EState_VSA8>
24.94

>  <EState_VSA9>
0

>  <EState_VSA10>
5.11

>  <VSA_EState1>
0

>  <VSA_EState2>
2.46

>  <VSA_EState3>
9.71

>  <VSA_EState4>
3.11

>  <VSA_EState5>
1.2

>  <VSA_EState6>
5.96

>  <VSA_EState7>
3.65

>  <VSA_EState8>
4.76

>  <VSA_EState9>
2.23

>  <apol>
40.95

>  <bpol>
22.78

>  <nRing>
3

>  <nHRing>
1

>  <naRing>
1

>  <naHRing>
0

>  <nARing 2>
2

>  <nAHRing 2>
1

>  <nFRing>
1

>  <nFHRing>
1

>  <nFaRing>
0

>  <nFaHRing>
0

>  <nFARing 2>
1

>  <nFAHRing 2>
1

>  <nRot>
0

>  <SLogP>
2.55

>  <SMR>
69.38

>  <TopoPSA(NO)>
23.47

>  <TopoPSA>
23.47

>  <JGI1>
0.29

>  <JGI2>
0.08

>  <JGI3>
0.06

>  <JGI4>
0.06

>  <JGI5>
0.03

>  <Diameter>
8

>  <Radius>
4

>  <TMWC10>
109.73

>  <TSRW10>
58.71

>  <MW>
231.16

>  <AMW>
6.08

>  <WPath>
446

>  <WPol>
32

>  <Zagreb1>
96

>  <Zagreb2>
115

>  <mZagreb2>
3.53

>  <yes>


>  <nAR-cont>
1

>  <nHA-cont>
0.976740822

>  <MWHBN>
0.197317185

>  <MWHBN-cont>
0.998980113

>  <TPSA-cont>
0.836164826

>  <pka_cont>
0.97

>  <yes.1>


>  <BBB_SCORE>
5.632540643

>  <MMFF94 Energy>
44.093

$$$$
Compound 1388
Actelion Java MolfileCreator 2.0

  0  0  0  0  0  0              0 V3000
M  V30 BEGIN CTAB
M  V30 COUNTS 42 46 0 0 0
M  V30 BEGIN ATOM
M  V30 1 O -0.891 -1.2962 -2.2693 0
M  V30 2 C -1.5012 -1.2399 -1.0328 0
M  V30 3 C 0.4378 -0.7139 -2.0172 0
M  V30 4 C -2.5971 -1.9529 -0.6041 0
M  V30 5 C -0.8162 -0.4265 -0.1527 0
M  V30 6 C 0.2803 0.2861 -0.8579 0
M  V30 7 C 1.4648 -1.8596 -1.7846 0
M  V30 8 O -3.2638 -2.7622 -1.4707 0
M  V30 9 C -2.9684 -1.8536 0.7427 0
M  V30 10 C -1.1087 -0.344 1.195 0
M  V30 11 C 1.4748 0.5141 0.0687 0
M  V30 12 C -0.2411 1.6663 -1.3182 0
M  V30 13 O 0.9006 -2.9862 -1.1036 0
M  V30 14 C 2.6822 -1.412 -0.9767 0
M  V30 15 C -2.215 -1.067 1.6435 0
M  V30 16 C -0.1672 0.4217 2.0884 0
M  V30 17 C 0.9351 1.248 1.3306 0
M  V30 18 C 2.2685 -0.7633 0.3499 0
M  V30 19 C -0.5504 2.5929 -0.1295 0
M  V30 20 N 0.5235 2.6022 0.8725 0
M  V30 21 C 0.2116 3.5118 1.9709 0
M  V30 22 H 0.7417 -0.1738 -2.9231 0
M  V30 23 H 1.7907 -2.2389 -2.7598 0
M  V30 24 H -4.0048 -3.1768 -1.0014 0
M  V30 25 H -3.8194 -2.4099 1.1252 0
M  V30 26 H 2.1843 1.1869 -0.4388 0
M  V30 27 H -1.1419 1.5739 -1.9386 0
M  V30 28 H 0.5214 2.1421 -1.9495 0
M  V30 29 H 0.0378 -3.1585 -1.5287 0
M  V30 30 H 3.3186 -2.2771 -0.7554 0
M  V30 31 H 3.2797 -0.7054 -1.5648 0
M  V30 32 H -2.4929 -1.0463 2.6948 0
M  V30 33 H 0.3484 -0.3146 2.7189 0
M  V30 34 H -0.7414 1.0605 2.7667 0
M  V30 35 H 1.7766 1.3864 2.0226 0
M  V30 36 H 3.168 -0.5138 0.9251 0
M  V30 37 H 1.6959 -1.4737 0.9559 0
M  V30 38 H -0.6881 3.607 -0.5253 0
M  V30 39 H -1.508 2.3102 0.3248 0
M  V30 40 H 0.1054 4.5356 1.5948 0
M  V30 41 H 1.0263 3.5332 2.7028 0
M  V30 42 H -0.7152 3.2494 2.4906 0
M  V30 END ATOM
M  V30 BEGIN BOND
M  V30 1 1 1 2
M  V30 2 1 1 3
M  V30 3 2 2 4
M  V30 4 1 2 5
M  V30 5 1 3 6
M  V30 6 1 3 7
M  V30 7 1 4 8
M  V30 8 1 4 9
M  V30 9 2 5 10
M  V30 10 1 6 11
M  V30 11 1 6 12
M  V30 12 1 7 13
M  V30 13 1 7 14
M  V30 14 2 9 15
M  V30 15 1 10 16
M  V30 16 1 11 17
M  V30 17 1 11 18
M  V30 18 1 12 19
M  V30 19 1 17 20
M  V30 20 1 20 21
M  V30 21 1 5 6
M  V30 22 1 10 15
M  V30 23 1 14 18
M  V30 24 1 16 17
M  V30 25 1 19 20
M  V30 26 1 3 22
M  V30 27 1 7 23
M  V30 28 1 8 24
M  V30 29 1 9 25
M  V30 30 1 11 26
M  V30 31 1 12 27
M  V30 32 1 12 28
M  V30 33 1 13 29
M  V30 34 1 14 30
M  V30 35 1 14 31
M  V30 36 1 15 32
M  V30 37 1 16 33
M  V30 38 1 16 34
M  V30 39 1 17 35
M  V30 40 1 18 36
M  V30 41 1 18 37
M  V30 42 1 19 38
M  V30 43 1 19 39
M  V30 44 1 21 40
M  V30 45 1 21 41
M  V30 46 1 21 42
M  V30 END BOND
M  V30 END CTAB
M  END
>  <Column 1>
1664

>  <level_0>
1820

>  <index>
1820

>  <Unnamed: 0>
1820

>  <NO.>
1832

>  <Name>
paramorfan

>  <IUPAC_name>
3-methyl-2-4-4a-5-6-7-7a-13-octahydro-1h-4-12-methanobenzofuro[3-2-e]isoquinoline-7-9-diol

>  <SMILES>
CN1CCC23c4c5ccc(O)c4OC2C(O)CCC3C1C5

>  <CID>
273032

>  <logBB>


>  <BBB+/BBB->
BBB+

>  <Inchi>
InChI=1S/C17H21NO3/c1-18-7-6-17-10-3-5-13(20)16(17)21-15-12(19)4-2-9(14(15)17)8-11(10)18/h2-4-10-11-13-16-19-20H-3-5-8H2-1H3

>  <threshold>
-1

>  <reference>
R1|R27|R30|

>  <group>
B

>  <Class>
1

>  <ABC>
17.58

>  <ABCGG>
13.51

>  <nAcid>
0

>  <nBase>
1

>  <nAromAtom>
6

>  <nAromBond>
6

>  <nAtom>
42

>  <nHeavyAtom>
21

>  <nSpiro>
1

>  <nBridgehead>
2

>  <nHetero>
4

>  <nN>
1

>  <nO>
3

>  <nF>
0

>  <BalabanJ>
1.65

>  <BertzCT>
630.71

>  <nBonds>
46

>  <nBondsO>
25

>  <nBondsS>
40

>  <nBondsD>
0

>  <nBondsT>
0

>  <nBondsA>
6

>  <nBondsM>
6

>  <nBondsKS>
43

>  <nBondsKD>
3

>  <RNCG>
0.26

>  <RPCG>
0.15

>  <FCSP3>
0.65

>  <SZ>
25.67

>  <Sm>
23.92

>  <Sv>
25.59

>  <Sse>
41.98

>  <Sp>
27.48

>  <Si>
47.28

>  <MZ>
0.61

>  <Mm>
0.57

>  <Mv>
0.61

>  <Mse>
1

>  <Mp>
0.65

>  <Mi>
1.13

>  <NsCH3>
1

>  <NdCH2>
0

>  <NssCH2>
5

>  <NtCH>
0

>  <NdsCH>
0

>  <NaaCH>
2

>  <NsssCH>
4

>  <NddC>
0

>  <NtsC>
0

>  <NdssC>
0

>  <NaasC>
4

>  <NaaaC>
0

>  <NssssC>
1

>  <NsNH3>
0

>  <NsNH2>
0

>  <NssNH2>
0

>  <NdNH>
0

>  <NssNH>
0

>  <NaaNH>
0

>  <NtN>
0

>  <NsssNH>
0

>  <NdsN>
0

>  <NaaN>
0

>  <NsssN>
1

>  <NddsN>
0

>  <NaasN>
0

>  <NssssN>
0

>  <NsOH>
2

>  <NdO>
0

>  <NssO>
1

>  <NaaO>
0

>  <NsF>
0

>  <NsSiH3>
0

>  <NssSiH2>
0

>  <NsssSiH>
0

>  <NssssSi>
0

>  <NsPH2>
0

>  <NssPH>
0

>  <NsssP>
0

>  <NdsssP>
0

>  <NsssssP>
0

>  <NsSH>
0

>  <NdS>
0

>  <NssS>
0

>  <NaaS>
0

>  <NdssS>
0

>  <NddssS>
0

>  <NsCl>
0

>  <NsBr>
0

>  <NsI>
0

>  <fragCpx>
205.04

>  <fMF>
0.43

>  <nHBAcc>
4

>  <nHBDon>
2

>  <Kier1>
13.44

>  <Kier2>
4.3

>  <Lipinski>
1

>  <GhoseFilter>
1

>  <FilterItLogS>
-2.23

>  <VMcGowan>
210.78

>  <LabuteASA>
123.88

>  <PEOE_VSA1>
19.85

>  <PEOE_VSA2>
0

>  <PEOE_VSA3>
0

>  <PEOE_VSA4>
0

>  <PEOE_VSA5>
0

>  <PEOE_VSA6>
6.07

>  <PEOE_VSA7>
56.82

>  <PEOE_VSA8>
17.02

>  <PEOE_VSA9>
6.1

>  <PEOE_VSA10>
6.1

>  <PEOE_VSA11>
11.5

>  <PEOE_VSA12>
0

>  <PEOE_VSA13>
0

>  <SMR_VSA1>
14.95

>  <SMR_VSA2>
0

>  <SMR_VSA3>
4.9

>  <SMR_VSA4>
5.92

>  <SMR_VSA5>
49.35

>  <SMR_VSA6>
13.59

>  <SMR_VSA7>
23.26

>  <SMR_VSA8>
0

>  <SMR_VSA9>
11.5

>  <SlogP_VSA1>
4.74

>  <SlogP_VSA2>
46.96

>  <SlogP_VSA3>
11.84

>  <SlogP_VSA4>
5.92

>  <SlogP_VSA5>
30.39

>  <SlogP_VSA6>
12.13

>  <SlogP_VSA7>
0

>  <SlogP_VSA8>
0

>  <SlogP_VSA9>
0

>  <SlogP_VSA10>
0

>  <SlogP_VSA11>
11.5

>  <EState_VSA1>
6.1

>  <EState_VSA2>
17.27

>  <EState_VSA3>
17.71

>  <EState_VSA4>
32.23

>  <EState_VSA5>
11.13

>  <EState_VSA6>
6.07

>  <EState_VSA7>
0

>  <EState_VSA8>
18.01

>  <EState_VSA9>
4.74

>  <EState_VSA10>
10.21

>  <VSA_EState1>
6.14

>  <VSA_EState2>
2.48

>  <VSA_EState3>
20.76

>  <VSA_EState4>
2.46

>  <VSA_EState5>
1.44

>  <VSA_EState6>
4.36

>  <VSA_EState7>
3.35

>  <VSA_EState8>
1.04

>  <VSA_EState9>
2.22

>  <apol>
45.9

>  <bpol>
24.51

>  <nRing>
5

>  <nHRing>
2

>  <naRing>
1

>  <naHRing>
0

>  <nARing 2>
4

>  <nAHRing 2>
2

>  <nFRing>
1

>  <nFHRing>
1

>  <nFaRing>
0

>  <nFaHRing>
0

>  <nFARing 2>
1

>  <nFAHRing 2>
1

>  <nRot>
0

>  <SLogP>
1.42

>  <SMR>
77.67

>  <TopoPSA(NO)>
52.93

>  <TopoPSA>
52.93

>  <JGI1>
0.2

>  <JGI2>
0.1

>  <JGI3>
0.05

>  <JGI4>
0.06

>  <JGI5>
0.03

>  <Diameter>
8

>  <Radius>
4

>  <TMWC10>
125.38

>  <TSRW10>
71.52

>  <MW>
287.15

>  <AMW>
6.84

>  <WPath>
712

>  <WPol>
49

>  <Zagreb1>
132

>  <Zagreb2>
173

>  <mZagreb2>
4.29

>  <yes>


>  <nAR-cont>
0.199399

>  <nHA-cont>
0.994529749

>  <MWHBN>
0.354076285

>  <MWHBN-cont>
0.654932275

>  <TPSA-cont>
0.630515732

>  <pka_cont>
0.97

>  <yes.1>


>  <BBB_SCORE>
3.922358627

>  <MMFF94 Energy>
89.52

$$$$
Compound 1389
Actelion Java MolfileCreator 2.0

  0  0  0  0  0  0              0 V3000
M  V30 BEGIN CTAB
M  V30 COUNTS 41 45 0 0 0
M  V30 BEGIN ATOM
M  V30 1 O -0.8096 -1.7818 1.9439 0
M  V30 2 C 0.4078 -1.8207 1.3001 0
M  V30 3 C -1.3432 -0.4648 1.5695 0
M  V30 4 C 1.4813 -2.6391 1.5656 0
M  V30 5 C 0.5027 -0.8517 0.3203 0
M  V30 6 C -0.7989 -0.147 0.1654 0
M  V30 7 C -0.9334 0.5415 2.6656 0
M  V30 8 O 1.3861 -3.6039 2.5201 0
M  V30 9 C 2.6688 -2.4295 0.8513 0
M  V30 10 C 1.6677 -0.5736 -0.3702 0
M  V30 11 C -0.5708 1.3184 -0.2019 0
M  V30 12 C -1.6118 -0.8112 -0.9668 0
M  V30 13 C -0.8994 1.9885 2.1879 0
M  V30 14 C 2.7673 -1.3888 -0.1001 0
M  V30 15 C 1.6934 0.6226 -1.2884 0
M  V30 16 C 0.3005 1.3276 -1.4908 0
M  V30 17 C -0.0057 2.1463 0.9572 0
M  V30 18 C -0.9327 -0.6463 -2.3378 0
M  V30 19 N -0.4299 0.7066 -2.6307 0
M  V30 20 C -1.487 1.5669 -3.1605 0
M  V30 21 H -2.4374 -0.5391 1.5503 0
M  V30 22 H 0.0512 0.2827 3.0768 0
M  V30 23 H -1.6252 0.4454 3.5118 0
M  V30 24 H 2.2276 -4.0834 2.5639 0
M  V30 25 H 3.5425 -3.0474 1.0375 0
M  V30 26 H -1.5449 1.7746 -0.4261 0
M  V30 27 H -1.7634 -1.8816 -0.7767 0
M  V30 28 H -2.6118 -0.3593 -1.0035 0
M  V30 29 H -0.5256 2.629 2.9949 0
M  V30 30 H -1.9171 2.3266 1.9576 0
M  V30 31 H 3.7114 -1.2215 -0.6134 0
M  V30 32 H 2.1152 0.3363 -2.2597 0
M  V30 33 H 2.3801 1.3577 -0.8482 0
M  V30 34 H 0.5257 2.366 -1.7686 0
M  V30 35 H 0.0303 3.2031 0.6674 0
M  V30 36 H 1.0199 1.8537 1.2074 0
M  V30 37 H -1.6234 -0.9776 -3.1242 0
M  V30 38 H -0.0917 -1.3467 -2.4092 0
M  V30 39 H -1.0939 2.5598 -3.4054 0
M  V30 40 H -1.8767 1.1526 -4.0973 0
M  V30 41 H -2.3296 1.6892 -2.473 0
M  V30 END ATOM
M  V30 BEGIN BOND
M  V30 1 1 1 2
M  V30 2 1 1 3
M  V30 3 2 2 4
M  V30 4 1 2 5
M  V30 5 1 3 6
M  V30 6 1 3 7
M  V30 7 1 4 8
M  V30 8 1 4 9
M  V30 9 2 5 10
M  V30 10 1 6 11
M  V30 11 1 6 12
M  V30 12 1 7 13
M  V30 13 2 9 14
M  V30 14 1 10 15
M  V30 15 1 11 16
M  V30 16 1 11 17
M  V30 17 1 12 18
M  V30 18 1 16 19
M  V30 19 1 19 20
M  V30 20 1 5 6
M  V30 21 1 10 14
M  V30 22 1 13 17
M  V30 23 1 15 16
M  V30 24 1 18 19
M  V30 25 1 3 21
M  V30 26 1 7 22
M  V30 27 1 7 23
M  V30 28 1 8 24
M  V30 29 1 9 25
M  V30 30 1 11 26
M  V30 31 1 12 27
M  V30 32 1 12 28
M  V30 33 1 13 29
M  V30 34 1 13 30
M  V30 35 1 14 31
M  V30 36 1 15 32
M  V30 37 1 15 33
M  V30 38 1 16 34
M  V30 39 1 17 35
M  V30 40 1 17 36
M  V30 41 1 18 37
M  V30 42 1 18 38
M  V30 43 1 20 39
M  V30 44 1 20 40
M  V30 45 1 20 41
M  V30 END BOND
M  V30 END CTAB
M  END
>  <Column 1>
1665

>  <level_0>
1821

>  <index>
1821

>  <Unnamed: 0>
1821

>  <NO.>
1833

>  <Name>
desomorphine

>  <IUPAC_name>
3-methyl-2-4-4a-5-6-7-7a-13-octahydro-1h-4-12-methanobenzofuro[3-2-e]isoquinolin-9-ol

>  <SMILES>
CN1CCC23c4c5ccc(O)c4OC2CCCC3C1C5

>  <CID>
521115

>  <logBB>


>  <BBB+/BBB->
BBB+

>  <Inchi>
InChI=1S/C17H21NO2/c1-18-8-7-17-11-3-2-4-14(17)20-16-13(19)6-5-10(15(16)17)9-12(11)18/h5-6-11-12-14-19H-2-4-7-9H2-1H3

>  <threshold>
-1

>  <reference>
R1|R19|R27|R27|R30|

>  <group>
B

>  <Class>
1

>  <ABC>
16.8

>  <ABCGG>
12.84

>  <nAcid>
0

>  <nBase>
1

>  <nAromAtom>
6

>  <nAromBond>
6

>  <nAtom>
41

>  <nHeavyAtom>
20

>  <nSpiro>
1

>  <nBridgehead>
2

>  <nHetero>
3

>  <nN>
1

>  <nO>
2

>  <nF>
0

>  <BalabanJ>
1.64

>  <BertzCT>
598.9

>  <nBonds>
45

>  <nBondsO>
24

>  <nBondsS>
39

>  <nBondsD>
0

>  <nBondsT>
0

>  <nBondsA>
6

>  <nBondsM>
6

>  <nBondsKS>
42

>  <nBondsKD>
3

>  <RNCG>
0.32

>  <RPCG>
0.19

>  <FCSP3>
0.65

>  <SZ>
24.33

>  <Sm>
22.59

>  <Sv>
24.88

>  <Sse>
40.65

>  <Sp>
27

>  <Si>
46.07

>  <MZ>
0.59

>  <Mm>
0.55

>  <Mv>
0.61

>  <Mse>
0.99

>  <Mp>
0.66

>  <Mi>
1.12

>  <NsCH3>
1

>  <NdCH2>
0

>  <NssCH2>
6

>  <NtCH>
0

>  <NdsCH>
0

>  <NaaCH>
2

>  <NsssCH>
3

>  <NddC>
0

>  <NtsC>
0

>  <NdssC>
0

>  <NaasC>
4

>  <NaaaC>
0

>  <NssssC>
1

>  <NsNH3>
0

>  <NsNH2>
0

>  <NssNH2>
0

>  <NdNH>
0

>  <NssNH>
0

>  <NaaNH>
0

>  <NtN>
0

>  <NsssNH>
0

>  <NdsN>
0

>  <NaaN>
0

>  <NsssN>
1

>  <NddsN>
0

>  <NaasN>
0

>  <NssssN>
0

>  <NsOH>
1

>  <NdO>
0

>  <NssO>
1

>  <NaaO>
0

>  <NsF>
0

>  <NsSiH3>
0

>  <NssSiH2>
0

>  <NsssSiH>
0

>  <NssssSi>
0

>  <NsPH2>
0

>  <NssPH>
0

>  <NsssP>
0

>  <NdsssP>
0

>  <NsssssP>
0

>  <NsSH>
0

>  <NdS>
0

>  <NssS>
0

>  <NaaS>
0

>  <NdssS>
0

>  <NddssS>
0

>  <NsCl>
0

>  <NsBr>
0

>  <NsI>
0

>  <fragCpx>
196.03

>  <fMF>
0.44

>  <nHBAcc>
3

>  <nHBDon>
1

>  <Kier1>
12.53

>  <Kier2>
4.05

>  <Lipinski>
1

>  <GhoseFilter>
1

>  <FilterItLogS>
-3.04

>  <VMcGowan>
204.91

>  <LabuteASA>
119.09

>  <PEOE_VSA1>
14.74

>  <PEOE_VSA2>
0

>  <PEOE_VSA3>
0

>  <PEOE_VSA4>
0

>  <PEOE_VSA5>
0

>  <PEOE_VSA6>
6.07

>  <PEOE_VSA7>
63.24

>  <PEOE_VSA8>
17.02

>  <PEOE_VSA9>
0

>  <PEOE_VSA10>
6.1

>  <PEOE_VSA11>
11.5

>  <PEOE_VSA12>
0

>  <PEOE_VSA13>
0

>  <SMR_VSA1>
9.84

>  <SMR_VSA2>
0

>  <SMR_VSA3>
4.9

>  <SMR_VSA4>
5.92

>  <SMR_VSA5>
49.66

>  <SMR_VSA6>
13.59

>  <SMR_VSA7>
23.26

>  <SMR_VSA8>
0

>  <SMR_VSA9>
11.5

>  <SlogP_VSA1>
4.74

>  <SlogP_VSA2>
35.74

>  <SlogP_VSA3>
11.84

>  <SlogP_VSA4>
5.92

>  <SlogP_VSA5>
36.81

>  <SlogP_VSA6>
12.13

>  <SlogP_VSA7>
0

>  <SlogP_VSA8>
0

>  <SlogP_VSA9>
0

>  <SlogP_VSA10>
0

>  <SlogP_VSA11>
11.5

>  <EState_VSA1>
0

>  <EState_VSA2>
5.41

>  <EState_VSA3>
17.9

>  <EState_VSA4>
31.05

>  <EState_VSA5>
30.39

>  <EState_VSA6>
0

>  <EState_VSA7>
6.07

>  <EState_VSA8>
18.01

>  <EState_VSA9>
4.74

>  <EState_VSA10>
5.11

>  <VSA_EState1>
6.28

>  <VSA_EState2>
2.56

>  <VSA_EState3>
10.22

>  <VSA_EState4>
3.02

>  <VSA_EState5>
1.89

>  <VSA_EState6>
4.63

>  <VSA_EState7>
6.37

>  <VSA_EState8>
1.16

>  <VSA_EState9>
2.28

>  <apol>
45.1

>  <bpol>
24.51

>  <nRing>
5

>  <nHRing>
2

>  <naRing>
1

>  <naHRing>
0

>  <nARing 2>
4

>  <nAHRing 2>
2

>  <nFRing>
1

>  <nFHRing>
1

>  <nFaRing>
0

>  <nFaHRing>
0

>  <nFARing 2>
1

>  <nFAHRing 2>
1

>  <nRot>
0

>  <SLogP>
2.45

>  <SMR>
76.28

>  <TopoPSA(NO)>
32.7

>  <TopoPSA>
32.7

>  <JGI1>
0.19

>  <JGI2>
0.1

>  <JGI3>
0.05

>  <JGI4>
0.05

>  <JGI5>
0.03

>  <Diameter>
8

>  <Radius>
4

>  <TMWC10>
122.86

>  <TSRW10>
70.27

>  <MW>
271.16

>  <AMW>
6.61

>  <WPath>
625

>  <WPol>
46

>  <Zagreb1>
126

>  <Zagreb2>
165

>  <mZagreb2>
4.1

>  <yes>


>  <nAR-cont>
0.199399

>  <nHA-cont>
0.999629945

>  <MWHBN>
0.242910998

>  <MWHBN-cont>
0.9708864

>  <TPSA-cont>
0.771733695

>  <pka_cont>
0.97

>  <yes.1>


>  <BBB_SCORE>
4.683825933

>  <MMFF94 Energy>
72.988

$$$$
Compound 1390
Actelion Java MolfileCreator 2.0

  0  0  0  0  0  0              0 V3000
M  V30 BEGIN CTAB
M  V30 COUNTS 39 42 0 0 0
M  V30 BEGIN ATOM
M  V30 1 N -1.1235 -2.891 0.6419 0
M  V30 2 C 0.2139 -2.2838 0.5308 0
M  V30 3 C -1.8827 -2.6219 -0.5797 0
M  V30 4 C -1.017 -4.3264 0.8899 0
M  V30 5 C 0.2026 -0.8158 0.1213 0
M  V30 6 C -2.1119 -1.1136 -0.7513 0
M  V30 7 C 1.4459 -0.0693 0.4673 0
M  V30 8 C -0.8851 -0.2589 -0.4713 0
M  V30 9 C 1.3953 1.1895 1.1019 0
M  V30 10 C 2.7049 -0.6372 0.2067 0
M  V30 11 C -1.0006 1.1793 -0.8482 0
M  V30 12 C 2.5868 1.8421 1.4632 0
M  V30 13 C 0.0666 1.8656 1.3483 0
M  V30 14 C 3.8829 0.0196 0.57 0
M  V30 15 C -0.6012 2.2047 0.0361 0
M  V30 16 C -1.5461 1.5498 -2.0891 0
M  V30 17 C 3.8234 1.2568 1.2016 0
M  V30 18 C -0.7718 3.5536 -0.3244 0
M  V30 19 C -1.7108 2.893 -2.4386 0
M  V30 20 C -1.3296 3.8944 -1.5538 0
M  V30 21 H 0.6981 -2.3747 1.5121 0
M  V30 22 H 0.8213 -2.8431 -0.1937 0
M  V30 23 H -1.3633 -3.0222 -1.4612 0
M  V30 24 H -2.8634 -3.1118 -0.536 0
M  V30 25 H -2.0114 -4.7675 1.0207 0
M  V30 26 H -0.4649 -4.5168 1.8169 0
M  V30 27 H -0.512 -4.8541 0.0728 0
M  V30 28 H -2.4862 -0.9646 -1.7689 0
M  V30 29 H -2.9091 -0.7941 -0.0664 0
M  V30 30 H 2.7874 -1.5962 -0.2978 0
M  V30 31 H 2.5547 2.818 1.9421 0
M  V30 32 H -0.5843 1.2252 1.9573 0
M  V30 33 H 0.2109 2.7749 1.9459 0
M  V30 34 H 4.846 -0.4353 0.3549 0
M  V30 35 H -1.835 0.797 -2.8171 0
M  V30 36 H 4.739 1.771 1.4813 0
M  V30 37 H -0.4568 4.3463 0.3501 0
M  V30 38 H -2.1325 3.153 -3.4058 0
M  V30 39 H -1.4533 4.9392 -1.8254 0
M  V30 END ATOM
M  V30 BEGIN BOND
M  V30 1 1 1 2
M  V30 2 1 1 3
M  V30 3 1 1 4
M  V30 4 1 2 5
M  V30 5 1 3 6
M  V30 6 1 5 7
M  V30 7 2 5 8
M  V30 8 2 7 9
M  V30 9 1 7 10
M  V30 10 1 8 11
M  V30 11 1 9 12
M  V30 12 1 9 13
M  V30 13 2 10 14
M  V30 14 2 11 15
M  V30 15 1 11 16
M  V30 16 2 12 17
M  V30 17 1 15 18
M  V30 18 2 16 19
M  V30 19 2 18 20
M  V30 20 1 6 8
M  V30 21 1 13 15
M  V30 22 1 14 17
M  V30 23 1 19 20
M  V30 24 1 2 21
M  V30 25 1 2 22
M  V30 26 1 3 23
M  V30 27 1 3 24
M  V30 28 1 4 25
M  V30 29 1 4 26
M  V30 30 1 4 27
M  V30 31 1 6 28
M  V30 32 1 6 29
M  V30 33 1 10 30
M  V30 34 1 12 31
M  V30 35 1 13 32
M  V30 36 1 13 33
M  V30 37 1 14 34
M  V30 38 1 16 35
M  V30 39 1 17 36
M  V30 40 1 18 37
M  V30 41 1 19 38
M  V30 42 1 20 39
M  V30 END BOND
M  V30 END CTAB
M  END
>  <Column 1>
1666

>  <level_0>
1822

>  <index>
1822

>  <Unnamed: 0>
1822

>  <NO.>
1834

>  <Name>
setiptiline

>  <IUPAC_name>
4-methyl-4-azatetracyclo[13.4.0.02-7.08-13]nonadeca-1(19)-2(7)-8-10-12-15-17-heptaene

>  <SMILES>
CN1CCC2=C(C1)c1ccccc1Cc1ccccc12

>  <CID>
5205

>  <logBB>


>  <BBB+/BBB->
BBB+

>  <Inchi>
InChI=1S/C19H19N/c1-20-11-10-18-16-8-4-2-6-14(16)12-15-7-3-5-9-17(15)19(18)13-20/h2-9H-10-13H2-1H3

>  <threshold>
-1

>  <reference>
R1|R13|R19|R6|R14|R23|R24|R27|R27|R27|R30|R30|

>  <group>
B

>  <Class>
1

>  <ABC>
16.17

>  <ABCGG>
12.43

>  <nAcid>
0

>  <nBase>
1

>  <nAromAtom>
12

>  <nAromBond>
12

>  <nAtom>
39

>  <nHeavyAtom>
20

>  <nSpiro>
0

>  <nBridgehead>
0

>  <nHetero>
1

>  <nN>
1

>  <nO>
0

>  <nF>
0

>  <BalabanJ>
1.64

>  <BertzCT>
696.42

>  <nBonds>
42

>  <nBondsO>
23

>  <nBondsS>
29

>  <nBondsD>
1

>  <nBondsT>
0

>  <nBondsA>
12

>  <nBondsM>
13

>  <nBondsKS>
35

>  <nBondsKD>
7

>  <RNCG>
0.31

>  <RPCG>
0.07

>  <FCSP3>
0.26

>  <SZ>
23.33

>  <Sm>
21.76

>  <Sv>
24.91

>  <Sse>
38.1

>  <Sp>
27.24

>  <Si>
43.24

>  <MZ>
0.6

>  <Mm>
0.56

>  <Mv>
0.64

>  <Mse>
0.98

>  <Mp>
0.7

>  <Mi>
1.11

>  <NsCH3>
1

>  <NdCH2>
0

>  <NssCH2>
4

>  <NtCH>
0

>  <NdsCH>
0

>  <NaaCH>
8

>  <NsssCH>
0

>  <NddC>
0

>  <NtsC>
0

>  <NdssC>
2

>  <NaasC>
4

>  <NaaaC>
0

>  <NssssC>
0

>  <NsNH3>
0

>  <NsNH2>
0

>  <NssNH2>
0

>  <NdNH>
0

>  <NssNH>
0

>  <NaaNH>
0

>  <NtN>
0

>  <NsssNH>
0

>  <NdsN>
0

>  <NaaN>
0

>  <NsssN>
1

>  <NddsN>
0

>  <NaasN>
0

>  <NssssN>
0

>  <NsOH>
0

>  <NdO>
0

>  <NssO>
0

>  <NaaO>
0

>  <NsF>
0

>  <NsSiH3>
0

>  <NssSiH2>
0

>  <NsssSiH>
0

>  <NssssSi>
0

>  <NsPH2>
0

>  <NssPH>
0

>  <NsssP>
0

>  <NdsssP>
0

>  <NsssssP>
0

>  <NsSH>
0

>  <NdS>
0

>  <NssS>
0

>  <NaaS>
0

>  <NdssS>
0

>  <NddssS>
0

>  <NsCl>
0

>  <NsBr>
0

>  <NsI>
0

>  <fragCpx>
149.01

>  <fMF>
0.49

>  <nHBAcc>
1

>  <nHBDon>
0

>  <Kier1>
13.65

>  <Kier2>
5.65

>  <Lipinski>
1

>  <GhoseFilter>
1

>  <FilterItLogS>
-5.06

>  <VMcGowan>
215.01

>  <LabuteASA>
120.1

>  <PEOE_VSA1>
4.9

>  <PEOE_VSA2>
0

>  <PEOE_VSA3>
0

>  <PEOE_VSA4>
0

>  <PEOE_VSA5>
0

>  <PEOE_VSA6>
48.53

>  <PEOE_VSA7>
53.29

>  <PEOE_VSA8>
13.09

>  <PEOE_VSA9>
0

>  <PEOE_VSA10>
0

>  <PEOE_VSA11>
0

>  <PEOE_VSA12>
0

>  <PEOE_VSA13>
0

>  <SMR_VSA1>
0

>  <SMR_VSA2>
0

>  <SMR_VSA3>
4.9

>  <SMR_VSA4>
0

>  <SMR_VSA5>
12.84

>  <SMR_VSA6>
20.14

>  <SMR_VSA7>
70.78

>  <SMR_VSA8>
0

>  <SMR_VSA9>
0

>  <SlogP_VSA1>
0

>  <SlogP_VSA2>
25.04

>  <SlogP_VSA3>
6.42

>  <SlogP_VSA4>
0

>  <SlogP_VSA5>
28.67

>  <SlogP_VSA6>
48.53

>  <SlogP_VSA7>
0

>  <SlogP_VSA8>
11.15

>  <SlogP_VSA9>
0

>  <SlogP_VSA10>
0

>  <SlogP_VSA11>
0

>  <EState_VSA1>
0

>  <EState_VSA2>
0

>  <EState_VSA3>
0

>  <EState_VSA4>
25.93

>  <EState_VSA5>
22.25

>  <EState_VSA6>
11.15

>  <EState_VSA7>
0

>  <EState_VSA8>
60.48

>  <EState_VSA9>
0

>  <EState_VSA10>
0

>  <VSA_EState1>
0

>  <VSA_EState2>
2.43

>  <VSA_EState3>
0

>  <VSA_EState4>
9.01

>  <VSA_EState5>
0

>  <VSA_EState6>
17.88

>  <VSA_EState7>
2.22

>  <VSA_EState8>
2.23

>  <VSA_EState9>
2.23

>  <apol>
45.5

>  <bpol>
20.77

>  <nRing>
4

>  <nHRing>
1

>  <naRing>
2

>  <naHRing>
0

>  <nARing 2>
2

>  <nAHRing 2>
1

>  <nFRing>
1

>  <nFHRing>
1

>  <nFaRing>
0

>  <nFaHRing>
0

>  <nFARing 2>
1

>  <nFAHRing 2>
1

>  <nRot>
0

>  <SLogP>
3.84

>  <SMR>
84.62

>  <TopoPSA(NO)>
3.24

>  <TopoPSA>
3.24

>  <JGI1>
0.13

>  <JGI2>
0.07

>  <JGI3>
0.04

>  <JGI4>
0.04

>  <JGI5>
0.02

>  <Diameter>
8

>  <Radius>
5

>  <TMWC10>
118.07

>  <TSRW10>
62.42

>  <MW>
261.15

>  <AMW>
6.7

>  <WPath>
687

>  <WPol>
38

>  <Zagreb1>
112

>  <Zagreb2>
136

>  <mZagreb2>
4.31

>  <yes>


>  <nAR-cont>
1

>  <nHA-cont>
0.999629945

>  <MWHBN>
0.061880667

>  <MWHBN-cont>
0.469220905

>  <TPSA-cont>
0.977382788

>  <pka_cont>
0.97

>  <yes.1>


>  <BBB_SCORE>
5.143226879

>  <MMFF94 Energy>
80.746

$$$$
Compound 1391
Actelion Java MolfileCreator 2.0

  0  0  0  0  0  0              0 V3000
M  V30 BEGIN CTAB
M  V30 COUNTS 41 44 0 0 0
M  V30 BEGIN ATOM
M  V30 1 S 1.063 -1.6358 -1.7995 0
M  V30 2 C 2.1443 -0.7027 -0.7155 0
M  V30 3 C 0.091 -2.445 -0.527 0
M  V30 4 C 1.6632 0.2112 0.2435 0
M  V30 5 C 3.521 -0.9575 -0.813 0
M  V30 6 C -0.6258 -1.7335 0.4558 0
M  V30 7 C 0.1105 -3.8484 -0.5028 0
M  V30 8 C 0.2345 0.619 0.3158 0
M  V30 9 C 2.5837 0.8088 1.1253 0
M  V30 10 C 4.422 -0.3408 0.0565 0
M  V30 11 C -0.7943 -0.2559 0.4132 0
M  V30 12 C -1.2632 -2.4612 1.4772 0
M  V30 13 C -0.5449 -4.5507 0.5076 0
M  V30 14 C -0.0171 2.1179 0.2502 0
M  V30 15 C 3.9536 0.5352 1.0359 0
M  V30 16 C -2.2344 0.2319 0.4623 0
M  V30 17 C -1.222 -3.8567 1.5043 0
M  V30 18 C -0.819 2.5567 -0.987 0
M  V30 19 C 4.8719 1.1601 1.9421 0
M  V30 20 C -2.6784 0.9751 -0.8089 0
M  V30 21 N -2.2767 2.3927 -0.8489 0
M  V30 22 N 5.6162 1.6681 2.6735 0
M  V30 23 C -2.9532 3.0618 -1.966 0
M  V30 24 H 3.8989 -1.6581 -1.5553 0
M  V30 25 H 0.656 -4.4043 -1.2621 0
M  V30 26 H 2.2282 1.4973 1.8917 0
M  V30 27 H 5.4845 -0.5608 -0.0295 0
M  V30 28 H -1.8044 -1.9416 2.2657 0
M  V30 29 H -0.5153 -5.6371 0.5225 0
M  V30 30 H -0.5036 2.4587 1.1736 0
M  V30 31 H 0.9337 2.6645 0.2103 0
M  V30 32 H -2.3911 0.853 1.3541 0
M  V30 33 H -2.923 -0.6144 0.58 0
M  V30 34 H -1.7249 -4.3992 2.301 0
M  V30 35 H -0.4447 2.0532 -1.8887 0
M  V30 36 H -0.6115 3.6272 -1.1198 0
M  V30 37 H -3.7761 0.9358 -0.8165 0
M  V30 38 H -2.3418 0.44 -1.7072 0
M  V30 39 H -2.6781 2.629 -2.9346 0
M  V30 40 H -2.7087 4.1299 -1.982 0
M  V30 41 H -4.0413 2.9964 -1.8539 0
M  V30 END ATOM
M  V30 BEGIN BOND
M  V30 1 1 1 2
M  V30 2 1 1 3
M  V30 3 2 2 4
M  V30 4 1 2 5
M  V30 5 2 3 6
M  V30 6 1 3 7
M  V30 7 1 4 8
M  V30 8 1 4 9
M  V30 9 2 5 10
M  V30 10 1 6 11
M  V30 11 1 6 12
M  V30 12 2 7 13
M  V30 13 1 8 14
M  V30 14 2 9 15
M  V30 15 1 11 16
M  V30 16 2 12 17
M  V30 17 1 14 18
M  V30 18 1 15 19
M  V30 19 1 16 20
M  V30 20 1 18 21
M  V30 21 3 19 22
M  V30 22 1 21 23
M  V30 23 2 8 11
M  V30 24 1 10 15
M  V30 25 1 13 17
M  V30 26 1 20 21
M  V30 27 1 5 24
M  V30 28 1 7 25
M  V30 29 1 9 26
M  V30 30 1 10 27
M  V30 31 1 12 28
M  V30 32 1 13 29
M  V30 33 1 14 30
M  V30 34 1 14 31
M  V30 35 1 16 32
M  V30 36 1 16 33
M  V30 37 1 17 34
M  V30 38 1 18 35
M  V30 39 1 18 36
M  V30 40 1 20 37
M  V30 41 1 20 38
M  V30 42 1 23 39
M  V30 43 1 23 40
M  V30 44 1 23 41
M  V30 END BOND
M  V30 END CTAB
M  END
>  <Column 1>
1667

>  <level_0>
1823

>  <index>
1823

>  <Unnamed: 0>
1823

>  <NO.>
1835

>  <Name>
citatepine

>  <IUPAC_name>
18-methyl-8-thia-18-azatetracyclo[13.5.0.02-7.09-14]icosa-1(15)-2(7)-3-5-9-11-13-heptaene-4-carbonitrile

>  <SMILES>
CN1CCC2=C(CC1)c1cc(C#N)ccc1Sc1ccccc12

>  <CID>
193991

>  <logBB>


>  <BBB+/BBB->
BBB+

>  <Inchi>
InChI=1S/C20H18N2S/c1-22-10-8-15-16(9-11-22)18-12-14(13-21)6-7-20(18)23-19-5-3-2-4-17(15)19/h2-7-12H-8-11H2-1H3

>  <threshold>
-1

>  <reference>
R1|R13|R19|R6|R24|R27|R27|R27|R30|R30|

>  <group>
B

>  <Class>
1

>  <ABC>
18.29

>  <ABCGG>
14.13

>  <nAcid>
0

>  <nBase>
1

>  <nAromAtom>
12

>  <nAromBond>
12

>  <nAtom>
41

>  <nHeavyAtom>
23

>  <nSpiro>
0

>  <nBridgehead>
0

>  <nHetero>
3

>  <nN>
2

>  <nO>
0

>  <nF>
0

>  <BalabanJ>
1.63

>  <BertzCT>
844.96

>  <nBonds>
44

>  <nBondsO>
26

>  <nBondsS>
30

>  <nBondsD>
1

>  <nBondsT>
1

>  <nBondsA>
12

>  <nBondsM>
14

>  <nBondsKS>
36

>  <nBondsKD>
7

>  <RNCG>
0.29

>  <RPCG>
0.09

>  <FCSP3>
0.25

>  <SZ>
28

>  <Sm>
26.51

>  <Sv>
27.58

>  <Sse>
40.39

>  <Sp>
30.24

>  <Si>
45.24

>  <MZ>
0.68

>  <Mm>
0.65

>  <Mv>
0.67

>  <Mse>
0.99

>  <Mp>
0.74

>  <Mi>
1.1

>  <NsCH3>
1

>  <NdCH2>
0

>  <NssCH2>
4

>  <NtCH>
0

>  <NdsCH>
0

>  <NaaCH>
7

>  <NsssCH>
0

>  <NddC>
0

>  <NtsC>
1

>  <NdssC>
2

>  <NaasC>
5

>  <NaaaC>
0

>  <NssssC>
0

>  <NsNH3>
0

>  <NsNH2>
0

>  <NssNH2>
0

>  <NdNH>
0

>  <NssNH>
0

>  <NaaNH>
0

>  <NtN>
1

>  <NsssNH>
0

>  <NdsN>
0

>  <NaaN>
0

>  <NsssN>
1

>  <NddsN>
0

>  <NaasN>
0

>  <NssssN>
0

>  <NsOH>
0

>  <NdO>
0

>  <NssO>
0

>  <NaaO>
0

>  <NsF>
0

>  <NsSiH3>
0

>  <NssSiH2>
0

>  <NsssSiH>
0

>  <NssssSi>
0

>  <NsPH2>
0

>  <NssPH>
0

>  <NsssP>
0

>  <NdsssP>
0

>  <NsssssP>
0

>  <NsSH>
0

>  <NdS>
0

>  <NssS>
1

>  <NaaS>
0

>  <NdssS>
0

>  <NddssS>
0

>  <NsCl>
0

>  <NsBr>
0

>  <NsI>
0

>  <fragCpx>
170.03

>  <fMF>
0.49

>  <nHBAcc>
3

>  <nHBDon>
0

>  <Kier1>
16.47

>  <Kier2>
7.09

>  <Lipinski>
1

>  <GhoseFilter>
1

>  <FilterItLogS>
-5.39

>  <VMcGowan>
246.83

>  <LabuteASA>
140.98

>  <PEOE_VSA1>
4.9

>  <PEOE_VSA2>
0

>  <PEOE_VSA3>
0

>  <PEOE_VSA4>
5.26

>  <PEOE_VSA5>
0

>  <PEOE_VSA6>
29.96

>  <PEOE_VSA7>
66.43

>  <PEOE_VSA8>
22.88

>  <PEOE_VSA9>
11.63

>  <PEOE_VSA10>
0

>  <PEOE_VSA11>
0

>  <PEOE_VSA12>
0

>  <PEOE_VSA13>
0

>  <SMR_VSA1>
0

>  <SMR_VSA2>
5.26

>  <SMR_VSA3>
4.9

>  <SMR_VSA4>
0

>  <SMR_VSA5>
22.63

>  <SMR_VSA6>
20.14

>  <SMR_VSA7>
59.15

>  <SMR_VSA8>
0

>  <SMR_VSA9>
6.07

>  <SlogP_VSA1>
0

>  <SlogP_VSA2>
25.04

>  <SlogP_VSA3>
0

>  <SlogP_VSA4>
11.33

>  <SlogP_VSA5>
29.53

>  <SlogP_VSA6>
52.26

>  <SlogP_VSA7>
0

>  <SlogP_VSA8>
11.15

>  <SlogP_VSA9>
0

>  <SlogP_VSA10>
0

>  <SlogP_VSA11>
0

>  <EState_VSA1>
0

>  <EState_VSA2>
0

>  <EState_VSA3>
0

>  <EState_VSA4>
31.49

>  <EState_VSA5>
32.06

>  <EState_VSA6>
0

>  <EState_VSA7>
17.83

>  <EState_VSA8>
54.42

>  <EState_VSA9>
0

>  <EState_VSA10>
5.26

>  <VSA_EState1>
0

>  <VSA_EState2>
5

>  <VSA_EState3>
9.3

>  <VSA_EState4>
6.28

>  <VSA_EState5>
0

>  <VSA_EState6>
17.13

>  <VSA_EState7>
2.11

>  <VSA_EState8>
2.16

>  <VSA_EState9>
2.19

>  <apol>
50.5

>  <bpol>
22.8

>  <nRing>
4

>  <nHRing>
2

>  <naRing>
2

>  <naHRing>
0

>  <nARing 2>
2

>  <nAHRing 2>
2

>  <nFRing>
1

>  <nFHRing>
1

>  <nFaRing>
0

>  <nFaHRing>
0

>  <nFARing 2>
1

>  <nFAHRing 2>
1

>  <nRot>
0

>  <SLogP>
4.66

>  <SMR>
95.27

>  <TopoPSA(NO)>
27.03

>  <TopoPSA>
52.33

>  <JGI1>
0.15

>  <JGI2>
0.07

>  <JGI3>
0.03

>  <JGI4>
0.04

>  <JGI5>
0.02

>  <Diameter>
9

>  <Radius>
5

>  <TMWC10>
124.94

>  <TSRW10>
67.09

>  <MW>
318.12

>  <AMW>
7.76

>  <WPath>
1027

>  <WPol>
46

>  <Zagreb1>
126

>  <Zagreb2>
152

>  <mZagreb2>
5.06

>  <yes>


>  <nAR-cont>
1

>  <nHA-cont>
0.967789328

>  <MWHBN>
0.168199913

>  <MWHBN-cont>
0.971070646

>  <TPSA-cont>
0.634704105

>  <pka_cont>
0.97

>  <yes.1>


>  <BBB_SCORE>
5.178803507

>  <MMFF94 Energy>
115

$$$$
Compound 1392
Actelion Java MolfileCreator 2.0

  0  0  0  0  0  0              0 V3000
M  V30 BEGIN CTAB
M  V30 COUNTS 44 47 0 0 0
M  V30 BEGIN ATOM
M  V30 1 N -1.0383 -0.2395 1.6777 0
M  V30 2 C 0.3202 -0.2902 2.0722 0
M  V30 3 C -1.5634 -1.2186 0.8004 0
M  V30 4 C -1.9722 0.4901 2.5282 0
M  V30 5 C 1.3571 -0.3399 1.1108 0
M  V30 6 C 0.6651 -0.3992 3.4357 0
M  V30 7 C -0.9543 -1.4791 -0.4495 0
M  V30 8 C -2.6451 -2.0307 1.2008 0
M  V30 9 C 1.102 -0.0446 -0.3276 0
M  V30 10 C 2.6789 -0.5722 1.5407 0
M  V30 11 C 1.9859 -0.5937 3.8433 0
M  V30 12 C 0.0629 -0.5567 -1.0291 0
M  V30 13 C -1.3957 -2.5805 -1.21 0
M  V30 14 C -3.0905 -3.0958 0.416 0
M  V30 15 C 2.0649 0.9376 -0.9814 0
M  V30 16 C 2.9917 -0.6971 2.8938 0
M  V30 17 C -0.158 -0.158 -2.4822 0
M  V30 18 C -2.4542 -3.3812 -0.7828 0
M  V30 19 C 1.4017 2.2604 -1.403 0
M  V30 20 C -0.4729 1.3365 -2.6687 0
M  V30 21 N 0.7174 2.2046 -2.7071 0
M  V30 22 C 0.3253 3.5579 -3.1143 0
M  V30 23 H -2.8752 0.7667 1.9706 0
M  V30 24 H -1.5292 1.43 2.8793 0
M  V30 25 H -2.2739 -0.0963 3.4033 0
M  V30 26 H -0.1041 -0.3862 4.2019 0
M  V30 27 H -3.1253 -1.8751 2.1623 0
M  V30 28 H 3.4849 -0.6569 0.8153 0
M  V30 29 H 2.2197 -0.6931 4.8997 0
M  V30 30 H -0.9128 -2.8244 -2.1536 0
M  V30 31 H -3.914 -3.7163 0.7587 0
M  V30 32 H 2.5705 0.4621 -1.8319 0
M  V30 33 H 2.8717 1.2138 -0.2925 0
M  V30 34 H 4.0192 -0.8716 3.2008 0
M  V30 35 H -1.009 -0.6988 -2.9125 0
M  V30 36 H 0.7042 -0.4577 -3.0919 0
M  V30 37 H -2.7792 -4.2223 -1.3889 0
M  V30 38 H 0.7282 2.6234 -0.6146 0
M  V30 39 H 2.2129 2.9969 -1.4818 0
M  V30 40 H -1.1907 1.6775 -1.9102 0
M  V30 41 H -0.9815 1.4224 -3.6385 0
M  V30 42 H 1.2046 4.2065 -3.1968 0
M  V30 43 H -0.1413 3.5431 -4.1056 0
M  V30 44 H -0.377 4.0154 -2.408 0
M  V30 END ATOM
M  V30 BEGIN BOND
M  V30 1 1 1 2
M  V30 2 1 1 3
M  V30 3 1 1 4
M  V30 4 2 2 5
M  V30 5 1 2 6
M  V30 6 2 3 7
M  V30 7 1 3 8
M  V30 8 1 5 9
M  V30 9 1 5 10
M  V30 10 2 6 11
M  V30 11 1 7 12
M  V30 12 1 7 13
M  V30 13 2 8 14
M  V30 14 1 9 15
M  V30 15 2 10 16
M  V30 16 1 12 17
M  V30 17 2 13 18
M  V30 18 1 15 19
M  V30 19 1 17 20
M  V30 20 1 19 21
M  V30 21 1 21 22
M  V30 22 2 9 12
M  V30 23 1 11 16
M  V30 24 1 14 18
M  V30 25 1 20 21
M  V30 26 1 4 23
M  V30 27 1 4 24
M  V30 28 1 4 25
M  V30 29 1 6 26
M  V30 30 1 8 27
M  V30 31 1 10 28
M  V30 32 1 11 29
M  V30 33 1 13 30
M  V30 34 1 14 31
M  V30 35 1 15 32
M  V30 36 1 15 33
M  V30 37 1 16 34
M  V30 38 1 17 35
M  V30 39 1 17 36
M  V30 40 1 18 37
M  V30 41 1 19 38
M  V30 42 1 19 39
M  V30 43 1 20 40
M  V30 44 1 20 41
M  V30 45 1 22 42
M  V30 46 1 22 43
M  V30 47 1 22 44
M  V30 END BOND
M  V30 END CTAB
M  END
>  <Column 1>
1668

>  <level_0>
1824

>  <index>
1824

>  <Unnamed: 0>
1824

>  <NO.>
1836

>  <Name>
erizepine

>  <IUPAC_name>
8-18-dimethyl-8-18-diazatetracyclo[13.5.0.02-7.09-14]icosa-1(15)-2-4-6-9-11-13-heptaene

>  <SMILES>
CN1CCC2=C(CC1)c1ccccc1N(C)c1ccccc12

>  <CID>
208930

>  <logBB>


>  <BBB+/BBB->
BBB+

>  <Inchi>
InChI=1S/C20H22N2/c1-21-13-11-15-16(12-14-21)18-8-4-6-10-20(18)22(2)19-9-5-3-7-17(15)19/h3-10H-11-14H2-1-2H3

>  <threshold>
-1

>  <reference>
R1|R13|R19|R6|R24|R27|R27|R27|R30|R30|

>  <group>
B

>  <Class>
1

>  <ABC>
17.61

>  <ABCGG>
13.85

>  <nAcid>
0

>  <nBase>
1

>  <nAromAtom>
12

>  <nAromBond>
12

>  <nAtom>
44

>  <nHeavyAtom>
22

>  <nSpiro>
0

>  <nBridgehead>
0

>  <nHetero>
2

>  <nN>
2

>  <nO>
0

>  <nF>
0

>  <BalabanJ>
1.68

>  <BertzCT>
683.38

>  <nBonds>
47

>  <nBondsO>
25

>  <nBondsS>
34

>  <nBondsD>
1

>  <nBondsT>
0

>  <nBondsA>
12

>  <nBondsM>
13

>  <nBondsKS>
40

>  <nBondsKD>
7

>  <RNCG>
0.29

>  <RPCG>
0.05

>  <FCSP3>
0.3

>  <SZ>
26

>  <Sm>
24.18

>  <Sv>
27.48

>  <Sse>
43.09

>  <Sp>
30.1

>  <Si>
49.15

>  <MZ>
0.59

>  <Mm>
0.55

>  <Mv>
0.62

>  <Mse>
0.98

>  <Mp>
0.68

>  <Mi>
1.12

>  <NsCH3>
2

>  <NdCH2>
0

>  <NssCH2>
4

>  <NtCH>
0

>  <NdsCH>
0

>  <NaaCH>
8

>  <NsssCH>
0

>  <NddC>
0

>  <NtsC>
0

>  <NdssC>
2

>  <NaasC>
4

>  <NaaaC>
0

>  <NssssC>
0

>  <NsNH3>
0

>  <NsNH2>
0

>  <NssNH2>
0

>  <NdNH>
0

>  <NssNH>
0

>  <NaaNH>
0

>  <NtN>
0

>  <NsssNH>
0

>  <NdsN>
0

>  <NaaN>
0

>  <NsssN>
2

>  <NddsN>
0

>  <NaasN>
0

>  <NssssN>
0

>  <NsOH>
0

>  <NdO>
0

>  <NssO>
0

>  <NaaO>
0

>  <NsF>
0

>  <NsSiH3>
0

>  <NssSiH2>
0

>  <NsssSiH>
0

>  <NssssSi>
0

>  <NsPH2>
0

>  <NssPH>
0

>  <NsssP>
0

>  <NdsssP>
0

>  <NsssssP>
0

>  <NsSH>
0

>  <NdS>
0

>  <NssS>
0

>  <NaaS>
0

>  <NdssS>
0

>  <NddssS>
0

>  <NsCl>
0

>  <NsBr>
0

>  <NsI>
0

>  <fragCpx>
163.02

>  <fMF>
0.45

>  <nHBAcc>
2

>  <nHBDon>
0

>  <Kier1>
15.52

>  <Kier2>
6.48

>  <Lipinski>
1

>  <GhoseFilter>
1

>  <FilterItLogS>
-4.77

>  <VMcGowan>
239.08

>  <LabuteASA>
132.23

>  <PEOE_VSA1>
9.8

>  <PEOE_VSA2>
0

>  <PEOE_VSA3>
0

>  <PEOE_VSA4>
0

>  <PEOE_VSA5>
0

>  <PEOE_VSA6>
36.4

>  <PEOE_VSA7>
43.17

>  <PEOE_VSA8>
42.64

>  <PEOE_VSA9>
0

>  <PEOE_VSA10>
0

>  <PEOE_VSA11>
0

>  <PEOE_VSA12>
0

>  <PEOE_VSA13>
0

>  <SMR_VSA1>
0

>  <SMR_VSA2>
0

>  <SMR_VSA3>
4.9

>  <SMR_VSA4>
0

>  <SMR_VSA5>
12.84

>  <SMR_VSA6>
32.08

>  <SMR_VSA7>
59.66

>  <SMR_VSA8>
0

>  <SMR_VSA9>
0

>  <SlogP_VSA1>
4.9

>  <SlogP_VSA2>
32.08

>  <SlogP_VSA3>
0

>  <SlogP_VSA4>
0

>  <SlogP_VSA5>
23.97

>  <SlogP_VSA6>
48.53

>  <SlogP_VSA7>
0

>  <SlogP_VSA8>
11.15

>  <SlogP_VSA9>
0

>  <SlogP_VSA10>
11.37

>  <SlogP_VSA11>
0

>  <EState_VSA1>
0

>  <EState_VSA2>
0

>  <EState_VSA3>
0

>  <EState_VSA4>
25.93

>  <EState_VSA5>
33.65

>  <EState_VSA6>
0

>  <EState_VSA7>
0

>  <EState_VSA8>
72.43

>  <EState_VSA9>
0

>  <EState_VSA10>
0

>  <VSA_EState1>
0

>  <VSA_EState2>
4.8

>  <VSA_EState3>
0

>  <VSA_EState4>
8.54

>  <VSA_EState5>
0

>  <VSA_EState6>
17.7

>  <VSA_EState7>
2.26

>  <VSA_EState8>
2.28

>  <VSA_EState9>
4.42

>  <apol>
50.27

>  <bpol>
25.49

>  <nRing>
4

>  <nHRing>
2

>  <naRing>
2

>  <naHRing>
0

>  <nARing 2>
2

>  <nAHRing 2>
2

>  <nFRing>
1

>  <nFHRing>
1

>  <nFaRing>
0

>  <nFaHRing>
0

>  <nFARing 2>
1

>  <nFAHRing 2>
1

>  <nRot>
0

>  <SLogP>
4.4

>  <SMR>
94.49

>  <TopoPSA(NO)>
6.48

>  <TopoPSA>
6.48

>  <JGI1>
0.12

>  <JGI2>
0.08

>  <JGI3>
0.04

>  <JGI4>
0.04

>  <JGI5>
0.02

>  <Diameter>
8

>  <Radius>
5

>  <TMWC10>
123.01

>  <TSRW10>
66.07

>  <MW>
290.18

>  <AMW>
6.59

>  <WPath>
873

>  <WPol>
46

>  <Zagreb1>
122

>  <Zagreb2>
149

>  <mZagreb2>
4.78

>  <yes>


>  <nAR-cont>
1

>  <nHA-cont>
0.983774276

>  <MWHBN>
0.117407613

>  <MWHBN-cont>
0.817991927

>  <TPSA-cont>
0.954765576

>  <pka_cont>
0.97

>  <yes.1>


>  <BBB_SCORE>
5.605293319

>  <MMFF94 Energy>
121.16

$$$$
Compound 1393
Actelion Java MolfileCreator 2.0

  0  0  0  0  0  0              0 V3000
M  V30 BEGIN CTAB
M  V30 COUNTS 40 43 0 0 0
M  V30 BEGIN ATOM
M  V30 1 O 1.0429 -1.4442 -1.3639 0
M  V30 2 C 0.1252 -2.195 -0.6592 0
M  V30 3 C 0.4358 -0.5333 -2.2031 0
M  V30 4 C -0.7258 -1.6143 0.2954 0
M  V30 5 C 0.084 -3.5646 -0.9396 0
M  V30 6 C -0.3236 0.5377 -1.704 0
M  V30 7 C 0.6145 -0.7263 -3.5768 0
M  V30 8 C -0.606 -0.1797 0.6706 0
M  V30 9 C -1.6727 -2.4476 0.913 0
M  V30 10 C -0.8489 -4.3748 -0.2985 0
M  V30 11 C -0.422 0.8044 -0.2437 0
M  V30 12 C -0.9585 1.3733 -2.6372 0
M  V30 13 C -0.0072 0.1285 -4.4826 0
M  V30 14 C -0.6814 0.1367 2.1554 0
M  V30 15 C -1.7345 -3.8144 0.6188 0
M  V30 16 C -0.2853 2.2558 0.1865 0
M  V30 17 C -0.8027 1.1708 -4.0131 0
M  V30 18 C 0.6094 0.7508 2.7243 0
M  V30 19 C 0.9411 2.5255 1.0753 0
M  V30 20 N 0.739 2.2014 2.4988 0
M  V30 21 C 1.8644 2.7206 3.2839 0
M  V30 22 H 0.7663 -3.9896 -1.6698 0
M  V30 23 H 1.2218 -1.5527 -3.9339 0
M  V30 24 H -2.3841 -2.0406 1.628 0
M  V30 25 H -0.8936 -5.4372 -0.5221 0
M  V30 26 H -1.593 2.1916 -2.3042 0
M  V30 27 H 0.118 -0.0246 -5.551 0
M  V30 28 H -0.8632 -0.7743 2.7379 0
M  V30 29 H -1.5455 0.7828 2.359 0
M  V30 30 H -2.4752 -4.4402 1.1108 0
M  V30 31 H -0.1744 2.9106 -0.6859 0
M  V30 32 H -1.2076 2.5906 0.6793 0
M  V30 33 H -1.3029 1.8319 -4.7167 0
M  V30 34 H 1.4904 0.2094 2.3537 0
M  V30 35 H 0.5742 0.5812 3.8091 0
M  V30 36 H 1.1392 3.6035 1.001 0
M  V30 37 H 1.8285 2.0182 0.673 0
M  V30 38 H 1.7087 2.5342 4.3526 0
M  V30 39 H 1.9467 3.8074 3.1695 0
M  V30 40 H 2.8181 2.2681 2.9888 0
M  V30 END ATOM
M  V30 BEGIN BOND
M  V30 1 1 1 2
M  V30 2 1 1 3
M  V30 3 2 2 4
M  V30 4 1 2 5
M  V30 5 2 3 6
M  V30 6 1 3 7
M  V30 7 1 4 8
M  V30 8 1 4 9
M  V30 9 2 5 10
M  V30 10 1 6 11
M  V30 11 1 6 12
M  V30 12 2 7 13
M  V30 13 1 8 14
M  V30 14 2 9 15
M  V30 15 1 11 16
M  V30 16 2 12 17
M  V30 17 1 14 18
M  V30 18 1 16 19
M  V30 19 1 18 20
M  V30 20 1 20 21
M  V30 21 2 8 11
M  V30 22 1 10 15
M  V30 23 1 13 17
M  V30 24 1 19 20
M  V30 25 1 5 22
M  V30 26 1 7 23
M  V30 27 1 9 24
M  V30 28 1 10 25
M  V30 29 1 12 26
M  V30 30 1 13 27
M  V30 31 1 14 28
M  V30 32 1 14 29
M  V30 33 1 15 30
M  V30 34 1 16 31
M  V30 35 1 16 32
M  V30 36 1 17 33
M  V30 37 1 18 34
M  V30 38 1 18 35
M  V30 39 1 19 36
M  V30 40 1 19 37
M  V30 41 1 21 38
M  V30 42 1 21 39
M  V30 43 1 21 40
M  V30 END BOND
M  V30 END CTAB
M  END
>  <Column 1>
1669

>  <level_0>
1825

>  <index>
1825

>  <Unnamed: 0>
1825

>  <NO.>
1837

>  <Name>
maroxepin

>  <IUPAC_name>
18-methyl-8-oxa-18-azatetracyclo[13.5.0.02-7.09-14]icosa-1(15)-2-4-6-9-11-13-heptaene

>  <SMILES>
CN1CCC2=C(CC1)c1ccccc1Oc1ccccc12

>  <CID>
68858

>  <logBB>


>  <BBB+/BBB->
BBB+

>  <Inchi>
InChI=1S/C19H19NO/c1-20-12-10-14-15(11-13-20)17-7-3-5-9-19(17)21-18-8-4-2-6-16(14)18/h2-9H-10-13H2-1H3

>  <threshold>
-1

>  <reference>
R1|R13|R19|R6|R24|R27|R27|R27|R30|R30|

>  <group>
B

>  <Class>
1

>  <ABC>
16.88

>  <ABCGG>
13.03

>  <nAcid>
0

>  <nBase>
1

>  <nAromAtom>
12

>  <nAromBond>
12

>  <nAtom>
40

>  <nHeavyAtom>
21

>  <nSpiro>
0

>  <nBridgehead>
0

>  <nHetero>
2

>  <nN>
1

>  <nO>
1

>  <nF>
0

>  <BalabanJ>
1.64

>  <BertzCT>
657.51

>  <nBonds>
43

>  <nBondsO>
24

>  <nBondsS>
30

>  <nBondsD>
1

>  <nBondsT>
0

>  <nBondsA>
12

>  <nBondsM>
13

>  <nBondsKS>
36

>  <nBondsKD>
7

>  <RNCG>
0.37

>  <RPCG>
0.11

>  <FCSP3>
0.26

>  <SZ>
24.67

>  <Sm>
23.09

>  <Sv>
25.62

>  <Sse>
39.43

>  <Sp>
27.73

>  <Si>
44.45

>  <MZ>
0.62

>  <Mm>
0.58

>  <Mv>
0.64

>  <Mse>
0.99

>  <Mp>
0.69

>  <Mi>
1.11

>  <NsCH3>
1

>  <NdCH2>
0

>  <NssCH2>
4

>  <NtCH>
0

>  <NdsCH>
0

>  <NaaCH>
8

>  <NsssCH>
0

>  <NddC>
0

>  <NtsC>
0

>  <NdssC>
2

>  <NaasC>
4

>  <NaaaC>
0

>  <NssssC>
0

>  <NsNH3>
0

>  <NsNH2>
0

>  <NssNH2>
0

>  <NdNH>
0

>  <NssNH>
0

>  <NaaNH>
0

>  <NtN>
0

>  <NsssNH>
0

>  <NdsN>
0

>  <NaaN>
0

>  <NsssN>
1

>  <NddsN>
0

>  <NaasN>
0

>  <NssssN>
0

>  <NsOH>
0

>  <NdO>
0

>  <NssO>
1

>  <NaaO>
0

>  <NsF>
0

>  <NsSiH3>
0

>  <NssSiH2>
0

>  <NsssSiH>
0

>  <NssssSi>
0

>  <NsPH2>
0

>  <NssPH>
0

>  <NsssP>
0

>  <NdsssP>
0

>  <NsssssP>
0

>  <NsSH>
0

>  <NdS>
0

>  <NssS>
0

>  <NaaS>
0

>  <NdssS>
0

>  <NddssS>
0

>  <NsCl>
0

>  <NsBr>
0

>  <NsI>
0

>  <fragCpx>
156.02

>  <fMF>
0.5

>  <nHBAcc>
2

>  <nHBDon>
0

>  <Kier1>
14.58

>  <Kier2>
6.25

>  <Lipinski>
1

>  <GhoseFilter>
1

>  <FilterItLogS>
-4.8

>  <VMcGowan>
220.88

>  <LabuteASA>
125.22

>  <PEOE_VSA1>
9.64

>  <PEOE_VSA2>
0

>  <PEOE_VSA3>
0

>  <PEOE_VSA4>
0

>  <PEOE_VSA5>
0

>  <PEOE_VSA6>
36.4

>  <PEOE_VSA7>
43.17

>  <PEOE_VSA8>
24.22

>  <PEOE_VSA9>
0

>  <PEOE_VSA10>
11.5

>  <PEOE_VSA11>
0

>  <PEOE_VSA12>
0

>  <PEOE_VSA13>
0

>  <SMR_VSA1>
4.74

>  <SMR_VSA2>
0

>  <SMR_VSA3>
4.9

>  <SMR_VSA4>
0

>  <SMR_VSA5>
12.84

>  <SMR_VSA6>
20.14

>  <SMR_VSA7>
59.66

>  <SMR_VSA8>
0

>  <SMR_VSA9>
11.5

>  <SlogP_VSA1>
4.74

>  <SlogP_VSA2>
25.04

>  <SlogP_VSA3>
0

>  <SlogP_VSA4>
0

>  <SlogP_VSA5>
23.97

>  <SlogP_VSA6>
48.53

>  <SlogP_VSA7>
0

>  <SlogP_VSA8>
11.15

>  <SlogP_VSA9>
0

>  <SlogP_VSA10>
0

>  <SlogP_VSA11>
11.5

>  <EState_VSA1>
0

>  <EState_VSA2>
0

>  <EState_VSA3>
0

>  <EState_VSA4>
37.43

>  <EState_VSA5>
22.27

>  <EState_VSA6>
0

>  <EState_VSA7>
0

>  <EState_VSA8>
60.48

>  <EState_VSA9>
4.74

>  <EState_VSA10>
0

>  <VSA_EState1>
6.21

>  <VSA_EState2>
2.42

>  <VSA_EState3>
0

>  <VSA_EState4>
5.44

>  <VSA_EState5>
1.97

>  <VSA_EState6>
16.87

>  <VSA_EState7>
2.17

>  <VSA_EState8>
2.21

>  <VSA_EState9>
2.21

>  <apol>
46.3

>  <bpol>
22.51

>  <nRing>
4

>  <nHRing>
2

>  <naRing>
2

>  <naHRing>
0

>  <nARing 2>
2

>  <nAHRing 2>
2

>  <nFRing>
1

>  <nFHRing>
1

>  <nFaRing>
0

>  <nFaHRing>
0

>  <nFARing 2>
1

>  <nFAHRing 2>
1

>  <nRot>
0

>  <SLogP>
4.43

>  <SMR>
86.5

>  <TopoPSA(NO)>
12.47

>  <TopoPSA>
12.47

>  <JGI1>
0.13

>  <JGI2>
0.07

>  <JGI3>
0.04

>  <JGI4>
0.04

>  <JGI5>
0.01

>  <Diameter>
8

>  <Radius>
5

>  <TMWC10>
120.15

>  <TSRW10>
64.67

>  <MW>
277.15

>  <AMW>
6.93

>  <WPath>
785

>  <WPol>
42

>  <Zagreb1>
116

>  <Zagreb2>
140

>  <mZagreb2>
4.56

>  <yes>


>  <nAR-cont>
1

>  <nHA-cont>
0.994529749

>  <MWHBN>
0.12013583

>  <MWHBN-cont>
0.829961394

>  <TPSA-cont>
0.912951657

>  <pka_cont>
0.97

>  <yes.1>


>  <BBB_SCORE>
5.550375153

>  <MMFF94 Energy>
107.7

$$$$
Compound 1394
Actelion Java MolfileCreator 2.0

  0  0  0  0  0  0              0 V3000
M  V30 BEGIN CTAB
M  V30 COUNTS 44 47 0 0 0
M  V30 BEGIN ATOM
M  V30 1 S -0.3236 3.6451 -1.7808 0
M  V30 2 C 1.185 2.9961 -1.1153 0
M  V30 3 C -1.5608 2.7459 -0.8832 0
M  V30 4 C 1.2457 1.9902 -0.1299 0
M  V30 5 C 2.3583 3.5684 -1.6525 0
M  V30 6 C -1.2784 1.7593 0.085 0
M  V30 7 C -2.8886 3.0924 -1.2162 0
M  V30 8 N 0.0626 1.4013 0.4262 0
M  V30 9 C 2.5499 1.6099 0.2721 0
M  V30 10 C 3.6173 3.1639 -1.2299 0
M  V30 11 C -2.4124 1.1589 0.6833 0
M  V30 12 C -3.97 2.4764 -0.6031 0
M  V30 13 C 0.2691 0.3259 1.4288 0
M  V30 14 C 3.7124 2.1806 -0.2637 0
M  V30 15 C -3.7298 1.5057 0.3499 0
M  V30 16 C 0.6101 -1.045 0.7982 0 CFG=2
M  V30 17 C -0.5392 -1.6209 -0.0462 0
M  V30 18 C 0.9954 -2.0344 1.911 0
M  V30 19 N -0.2008 -2.9512 -0.5825 0
M  V30 20 C 1.2609 -3.4231 1.3414 0
M  V30 21 C 0.0887 -3.9071 0.4908 0
M  V30 22 C -1.2804 -3.4461 -1.4369 0
M  V30 23 H 2.2902 4.3431 -2.4142 0
M  V30 24 H -3.0831 3.8563 -1.9671 0
M  V30 25 H 2.722 0.8429 1.019 0
M  V30 26 H 4.5105 3.6129 -1.6538 0
M  V30 27 H -2.3325 0.3846 1.4358 0
M  V30 28 H -4.9855 2.7537 -0.8697 0
M  V30 29 H 1.058 0.6244 2.1314 0
M  V30 30 H -0.57 0.2137 2.1198 0
M  V30 31 H 4.6878 1.8463 0.0803 0
M  V30 32 H -4.5618 1.009 0.8429 0
M  V30 33 H 1.4783 -0.9361 0.136 0
M  V30 34 H -0.7343 -0.9452 -0.8868 0
M  V30 35 H -1.4555 -1.681 0.5546 0
M  V30 36 H 1.8879 -1.6801 2.44 0
M  V30 37 H 0.1877 -2.0972 2.6516 0
M  V30 38 H 2.1743 -3.4007 0.7335 0
M  V30 39 H 1.44 -4.1293 2.1601 0
M  V30 40 H 0.3563 -4.8803 0.062 0
M  V30 41 H -0.7923 -4.0619 1.1274 0
M  V30 42 H -1.0091 -4.4108 -1.8796 0
M  V30 43 H -1.4582 -2.7581 -2.2709 0
M  V30 44 H -2.2196 -3.571 -0.886 0
M  V30 END ATOM
M  V30 BEGIN BOND
M  V30 1 1 1 2
M  V30 2 1 1 3
M  V30 3 2 2 4
M  V30 4 1 2 5
M  V30 5 2 3 6
M  V30 6 1 3 7
M  V30 7 1 4 8
M  V30 8 1 4 9
M  V30 9 2 5 10
M  V30 10 1 6 11
M  V30 11 2 7 12
M  V30 12 1 8 13
M  V30 13 2 9 14
M  V30 14 2 11 15
M  V30 15 1 13 16
M  V30 16 1 16 17
M  V30 17 1 16 18
M  V30 18 1 17 19
M  V30 19 1 18 20
M  V30 20 1 19 21
M  V30 21 1 19 22
M  V30 22 1 6 8
M  V30 23 1 10 14
M  V30 24 1 12 15
M  V30 25 1 20 21
M  V30 26 1 5 23
M  V30 27 1 7 24
M  V30 28 1 9 25
M  V30 29 1 10 26
M  V30 30 1 11 27
M  V30 31 1 12 28
M  V30 32 1 13 29
M  V30 33 1 13 30
M  V30 34 1 14 31
M  V30 35 1 15 32
M  V30 36 1 16 33
M  V30 37 1 17 34
M  V30 38 1 17 35
M  V30 39 1 18 36
M  V30 40 1 18 37
M  V30 41 1 20 38
M  V30 42 1 20 39
M  V30 43 1 21 40
M  V30 44 1 21 41
M  V30 45 1 22 42
M  V30 46 1 22 43
M  V30 47 1 22 44
M  V30 END BOND
M  V30 BEGIN COLLECTION
M  V30 MDLV30/STERAC1 ATOMS=(1 16)
M  V30 END COLLECTION
M  V30 END CTAB
M  END
>  <Column 1>
1670

>  <level_0>
1826

>  <index>
1826

>  <Unnamed: 0>
1826

>  <NO.>
1838

>  <Name>
pecazine

>  <IUPAC_name>
10-[(1-methylpiperidin-3-yl)methyl]phenothiazine

>  <SMILES>
CN1CCCC(CN2c3ccccc3Sc3ccccc32)C1

>  <CID>
6075

>  <logBB>


>  <BBB+/BBB->
BBB+

>  <Inchi>
InChI=1S/C19H22N2S/c1-20-12-6-7-15(13-20)14-21-16-8-2-4-10-18(16)22-19-11-5-3-9-17(19)21/h2-5-8-11-15H-6-7-12-14H2-1H3

>  <threshold>
-1

>  <reference>
R1|R19|R6|R27|R27|R30|

>  <group>
B

>  <Class>
1

>  <ABC>
17.63

>  <ABCGG>
13.36

>  <nAcid>
0

>  <nBase>
1

>  <nAromAtom>
12

>  <nAromBond>
12

>  <nAtom>
44

>  <nHeavyAtom>
22

>  <nSpiro>
0

>  <nBridgehead>
0

>  <nHetero>
3

>  <nN>
2

>  <nO>
0

>  <nF>
0

>  <BalabanJ>
1.49

>  <BertzCT>
624.49

>  <nBonds>
47

>  <nBondsO>
25

>  <nBondsS>
35

>  <nBondsD>
0

>  <nBondsT>
0

>  <nBondsA>
12

>  <nBondsM>
12

>  <nBondsKS>
41

>  <nBondsKD>
6

>  <RNCG>
0.27

>  <RPCG>
0.05

>  <FCSP3>
0.37

>  <SZ>
27.67

>  <Sm>
25.85

>  <Sv>
27.66

>  <Sse>
43.17

>  <Sp>
30.84

>  <Si>
49.07

>  <MZ>
0.63

>  <Mm>
0.59

>  <Mv>
0.63

>  <Mse>
0.98

>  <Mp>
0.7

>  <Mi>
1.12

>  <NsCH3>
1

>  <NdCH2>
0

>  <NssCH2>
5

>  <NtCH>
0

>  <NdsCH>
0

>  <NaaCH>
8

>  <NsssCH>
1

>  <NddC>
0

>  <NtsC>
0

>  <NdssC>
0

>  <NaasC>
4

>  <NaaaC>
0

>  <NssssC>
0

>  <NsNH3>
0

>  <NsNH2>
0

>  <NssNH2>
0

>  <NdNH>
0

>  <NssNH>
0

>  <NaaNH>
0

>  <NtN>
0

>  <NsssNH>
0

>  <NdsN>
0

>  <NaaN>
0

>  <NsssN>
2

>  <NddsN>
0

>  <NaasN>
0

>  <NssssN>
0

>  <NsOH>
0

>  <NdO>
0

>  <NssO>
0

>  <NaaO>
0

>  <NsF>
0

>  <NsSiH3>
0

>  <NssSiH2>
0

>  <NsssSiH>
0

>  <NssssSi>
0

>  <NsPH2>
0

>  <NssPH>
0

>  <NsssP>
0

>  <NdsssP>
0

>  <NsssssP>
0

>  <NsSH>
0

>  <NdS>
0

>  <NssS>
1

>  <NaaS>
0

>  <NdssS>
0

>  <NddssS>
0

>  <NsCl>
0

>  <NsBr>
0

>  <NsI>
0

>  <fragCpx>
163.03

>  <fMF>
0.48

>  <nHBAcc>
3

>  <nHBDon>
0

>  <Kier1>
15.52

>  <Kier2>
6.86

>  <Lipinski>
1

>  <GhoseFilter>
1

>  <FilterItLogS>
-4.41

>  <VMcGowan>
245.64

>  <LabuteASA>
136.67

>  <PEOE_VSA1>
9.8

>  <PEOE_VSA2>
0

>  <PEOE_VSA3>
0

>  <PEOE_VSA4>
0

>  <PEOE_VSA5>
0

>  <PEOE_VSA6>
36.03

>  <PEOE_VSA7>
56.62

>  <PEOE_VSA8>
22.88

>  <PEOE_VSA9>
11.37

>  <PEOE_VSA10>
0

>  <PEOE_VSA11>
0

>  <PEOE_VSA12>
0

>  <PEOE_VSA13>
0

>  <SMR_VSA1>
0

>  <SMR_VSA2>
0

>  <SMR_VSA3>
4.9

>  <SMR_VSA4>
5.92

>  <SMR_VSA5>
22.63

>  <SMR_VSA6>
31.58

>  <SMR_VSA7>
48.53

>  <SMR_VSA8>
0

>  <SMR_VSA9>
0

>  <SlogP_VSA1>
4.9

>  <SlogP_VSA2>
31.58

>  <SlogP_VSA3>
0

>  <SlogP_VSA4>
5.92

>  <SlogP_VSA5>
12.84

>  <SlogP_VSA6>
58.32

>  <SlogP_VSA7>
0

>  <SlogP_VSA8>
0

>  <SlogP_VSA9>
0

>  <SlogP_VSA10>
11.37

>  <SlogP_VSA11>
0

>  <EState_VSA1>
0

>  <EState_VSA2>
0

>  <EState_VSA3>
0

>  <EState_VSA4>
12.46

>  <EState_VSA5>
47.1

>  <EState_VSA6>
0

>  <EState_VSA7>
11.76

>  <EState_VSA8>
65.38

>  <EState_VSA9>
0

>  <EState_VSA10>
0

>  <VSA_EState1>
0

>  <VSA_EState2>
7.78

>  <VSA_EState3>
0

>  <VSA_EState4>
2.75

>  <VSA_EState5>
0.75

>  <VSA_EState6>
17.64

>  <VSA_EState7>
2.67

>  <VSA_EState8>
3.59

>  <VSA_EState9>
2.25

>  <apol>
51.5

>  <bpol>
27.95

>  <nRing>
4

>  <nHRing>
2

>  <naRing>
2

>  <naHRing>
0

>  <nARing 2>
2

>  <nAHRing 2>
2

>  <nFRing>
1

>  <nFHRing>
1

>  <nFaRing>
0

>  <nFaHRing>
0

>  <nFARing 2>
1

>  <nFAHRing 2>
1

>  <nRot>
2

>  <SLogP>
4.63

>  <SMR>
94.23

>  <TopoPSA(NO)>
6.48

>  <TopoPSA>
31.78

>  <JGI1>
0.14

>  <JGI2>
0.06

>  <JGI3>
0.04

>  <JGI4>
0.04

>  <JGI5>
0.02

>  <Diameter>
9

>  <Radius>
5

>  <TMWC10>
122.1

>  <TSRW10>
56.55

>  <MW>
310.15

>  <AMW>
7.05

>  <WPath>
982

>  <WPol>
36

>  <Zagreb1>
120

>  <Zagreb2>
143

>  <mZagreb2>
4.78

>  <yes>


>  <nAR-cont>
1

>  <nHA-cont>
0.983774276

>  <MWHBN>
0.170347342

>  <MWHBN-cont>
0.974505177

>  <TPSA-cont>
0.778155866

>  <pka_cont>
0.97

>  <yes.1>


>  <BBB_SCORE>
5.486843773

>  <MMFF94 Energy>
74.556

$$$$
Compound 1395
Actelion Java MolfileCreator 2.0

  0  0  0  0  0  0              0 V3000
M  V30 BEGIN CTAB
M  V30 COUNTS 45 47 0 0 0
M  V30 BEGIN ATOM
M  V30 1 Cl -0.4803 -4.6507 4.4901 0
M  V30 2 C -0.6338 -3.4581 3.2588 0
M  V30 3 C 0.4837 -3.0766 2.5216 0
M  V30 4 C -1.8767 -2.8809 3.007 0
M  V30 5 C 0.357 -2.1082 1.5234 0
M  V30 6 C -2.004 -1.9111 2.0089 0
M  V30 7 C -0.887 -1.5065 1.2569 0
M  V30 8 C -1.0489 -0.4542 0.1464 0 CFG=1
M  V30 9 N 0.0096 0.6056 0.1631 0
M  V30 10 C -1.1597 -1.1921 -1.1986 0
M  V30 11 C -0.2343 1.6208 -0.8911 0
M  V30 12 C 0.0589 1.2982 1.4697 0
M  V30 13 C -2.4256 -1.5082 -1.7219 0
M  V30 14 C -0.0191 -1.5954 -1.9156 0
M  V30 15 C 1.0405 2.2867 -1.464 0
M  V30 16 C 1.3319 2.1092 1.7189 0
M  V30 17 C -2.545 -2.1938 -2.9325 0
M  V30 18 C -0.1413 -2.2796 -3.1258 0
M  V30 19 N 2.1147 2.6827 -0.5405 0
M  V30 20 C 1.628 3.2287 0.7233 0
M  V30 21 C -1.4038 -2.5776 -3.6338 0
M  V30 22 C 3.0399 3.5984 -1.2059 0
M  V30 23 H 1.4537 -3.5257 2.7149 0
M  V30 24 H -2.7491 -3.183 3.5799 0
M  V30 25 H 1.2362 -1.811 0.9545 0
M  V30 26 H -2.9823 -1.4756 1.8188 0
M  V30 27 H -2.0046 0.0642 0.3173 0
M  V30 28 H -0.9223 2.3975 -0.529 0
M  V30 29 H -0.748 1.1946 -1.7601 0
M  V30 30 H 0.022 0.5788 2.2947 0
M  V30 31 H -0.8232 1.9382 1.608 0
M  V30 32 H -3.3283 -1.2249 -1.186 0
M  V30 33 H 0.9732 -1.3665 -1.5316 0
M  V30 34 H 1.4797 1.5887 -2.189 0
M  V30 35 H 0.7014 3.1595 -2.0393 0
M  V30 36 H 1.247 2.5596 2.7169 0
M  V30 37 H 2.1915 1.4272 1.7733 0
M  V30 38 H -3.5294 -2.433 -3.3265 0
M  V30 39 H 0.7502 -2.5813 -3.6689 0
M  V30 40 H 2.4135 3.8428 1.1841 0
M  V30 41 H 0.7652 3.8926 0.5868 0
M  V30 42 H -1.4977 -3.1135 -4.5746 0
M  V30 43 H 3.9124 3.7937 -0.5723 0
M  V30 44 H 2.5672 4.5573 -1.4475 0
M  V30 45 H 3.4226 3.157 -2.1331 0
M  V30 END ATOM
M  V30 BEGIN BOND
M  V30 1 1 1 2
M  V30 2 2 2 3
M  V30 3 1 2 4
M  V30 4 1 3 5
M  V30 5 2 4 6
M  V30 6 2 5 7
M  V30 7 1 7 8
M  V30 8 1 8 9
M  V30 9 1 8 10
M  V30 10 1 9 11
M  V30 11 1 9 12
M  V30 12 2 10 13
M  V30 13 1 10 14
M  V30 14 1 11 15
M  V30 15 1 12 16
M  V30 16 1 13 17
M  V30 17 2 14 18
M  V30 18 1 15 19
M  V30 19 1 16 20
M  V30 20 2 17 21
M  V30 21 1 19 22
M  V30 22 1 6 7
M  V30 23 1 18 21
M  V30 24 1 19 20
M  V30 25 1 3 23
M  V30 26 1 4 24
M  V30 27 1 5 25
M  V30 28 1 6 26
M  V30 29 1 8 27
M  V30 30 1 11 28
M  V30 31 1 11 29
M  V30 32 1 12 30
M  V30 33 1 12 31
M  V30 34 1 13 32
M  V30 35 1 14 33
M  V30 36 1 15 34
M  V30 37 1 15 35
M  V30 38 1 16 36
M  V30 39 1 16 37
M  V30 40 1 17 38
M  V30 41 1 18 39
M  V30 42 1 20 40
M  V30 43 1 20 41
M  V30 44 1 21 42
M  V30 45 1 22 43
M  V30 46 1 22 44
M  V30 47 1 22 45
M  V30 END BOND
M  V30 BEGIN COLLECTION
M  V30 MDLV30/STERAC1 ATOMS=(1 8)
M  V30 END COLLECTION
M  V30 END CTAB
M  END
>  <Column 1>
1671

>  <level_0>
1827

>  <index>
1827

>  <Unnamed: 0>
1827

>  <NO.>
1839

>  <Name>
homochlorcyclizine

>  <IUPAC_name>
1-[(4-chlorophenyl)-phenylmethyl]-4-methyl-1-4-diazepane

>  <SMILES>
CN1CCCN(C(c2ccccc2)c2ccc(Cl)cc2)CC1

>  <CID>
3627

>  <logBB>


>  <BBB+/BBB->
BBB+

>  <Inchi>
InChI=1S/C19H23ClN2/c1-21-12-5-13-22(15-14-21)19(16-6-3-2-4-7-16)17-8-10-18(20)11-9-17/h2-4-6-11-19H-5-12-15H2-1H3

>  <threshold>
-1

>  <reference>
R1|R19|R6|R27|R27|R30|

>  <group>
B

>  <Class>
1

>  <ABC>
17.07

>  <ABCGG>
13.87

>  <nAcid>
0

>  <nBase>
2

>  <nAromAtom>
12

>  <nAromBond>
12

>  <nAtom>
45

>  <nHeavyAtom>
22

>  <nSpiro>
0

>  <nBridgehead>
0

>  <nHetero>
3

>  <nN>
2

>  <nO>
0

>  <nF>
0

>  <BalabanJ>
1.69

>  <BertzCT>
582.14

>  <nBonds>
47

>  <nBondsO>
24

>  <nBondsS>
35

>  <nBondsD>
0

>  <nBondsT>
0

>  <nBondsA>
12

>  <nBondsM>
12

>  <nBondsKS>
41

>  <nBondsKD>
6

>  <RNCG>
0.24

>  <RPCG>
0.05

>  <FCSP3>
0.37

>  <SZ>
28

>  <Sm>
26.21

>  <Sv>
27.84

>  <Sse>
44.3

>  <Sp>
30.81

>  <Si>
50.51

>  <MZ>
0.62

>  <Mm>
0.58

>  <Mv>
0.62

>  <Mse>
0.98

>  <Mp>
0.68

>  <Mi>
1.12

>  <NsCH3>
1

>  <NdCH2>
0

>  <NssCH2>
5

>  <NtCH>
0

>  <NdsCH>
0

>  <NaaCH>
9

>  <NsssCH>
1

>  <NddC>
0

>  <NtsC>
0

>  <NdssC>
0

>  <NaasC>
3

>  <NaaaC>
0

>  <NssssC>
0

>  <NsNH3>
0

>  <NsNH2>
0

>  <NssNH2>
0

>  <NdNH>
0

>  <NssNH>
0

>  <NaaNH>
0

>  <NtN>
0

>  <NsssNH>
0

>  <NdsN>
0

>  <NaaN>
0

>  <NsssN>
2

>  <NddsN>
0

>  <NaasN>
0

>  <NssssN>
0

>  <NsOH>
0

>  <NdO>
0

>  <NssO>
0

>  <NaaO>
0

>  <NsF>
0

>  <NsSiH3>
0

>  <NssSiH2>
0

>  <NsssSiH>
0

>  <NssssSi>
0

>  <NsPH2>
0

>  <NssPH>
0

>  <NsssP>
0

>  <NdsssP>
0

>  <NsssssP>
0

>  <NsSH>
0

>  <NdS>
0

>  <NssS>
0

>  <NaaS>
0

>  <NdssS>
0

>  <NddssS>
0

>  <NsCl>
1

>  <NsBr>
0

>  <NsI>
0

>  <fragCpx>
114.03

>  <fMF>
0.44

>  <nHBAcc>
2

>  <nHBDon>
0

>  <Kier1>
16.84

>  <Kier2>
8.2

>  <Lipinski>
1

>  <GhoseFilter>
1

>  <FilterItLogS>
-4.65

>  <VMcGowan>
252.39

>  <LabuteASA>
137.86

>  <PEOE_VSA1>
4.9

>  <PEOE_VSA2>
4.9

>  <PEOE_VSA3>
0

>  <PEOE_VSA4>
0

>  <PEOE_VSA5>
0

>  <PEOE_VSA6>
54.07

>  <PEOE_VSA7>
43.27

>  <PEOE_VSA8>
24.66

>  <PEOE_VSA9>
6.04

>  <PEOE_VSA10>
0

>  <PEOE_VSA11>
0

>  <PEOE_VSA12>
0

>  <PEOE_VSA13>
0

>  <SMR_VSA1>
0

>  <SMR_VSA2>
0

>  <SMR_VSA3>
9.8

>  <SMR_VSA4>
0

>  <SMR_VSA5>
12.46

>  <SMR_VSA6>
33.23

>  <SMR_VSA7>
70.75

>  <SMR_VSA8>
0

>  <SMR_VSA9>
0

>  <SlogP_VSA1>
0

>  <SlogP_VSA2>
43.03

>  <SlogP_VSA3>
0

>  <SlogP_VSA4>
0

>  <SlogP_VSA5>
23.59

>  <SlogP_VSA6>
54.6

>  <SlogP_VSA7>
5.02

>  <SlogP_VSA8>
0

>  <SlogP_VSA9>
0

>  <SlogP_VSA10>
0

>  <SlogP_VSA11>
0

>  <EState_VSA1>
0

>  <EState_VSA2>
0

>  <EState_VSA3>
6.04

>  <EState_VSA4>
24.66

>  <EState_VSA5>
24.09

>  <EState_VSA6>
0

>  <EState_VSA7>
12.13

>  <EState_VSA8>
59.31

>  <EState_VSA9>
11.6

>  <EState_VSA10>
0

>  <VSA_EState1>
0

>  <VSA_EState2>
5.02

>  <VSA_EState3>
0.8

>  <VSA_EState4>
2.68

>  <VSA_EState5>
0

>  <VSA_EState6>
19.42

>  <VSA_EState7>
1.22

>  <VSA_EState8>
4.53

>  <VSA_EState9>
2.21

>  <apol>
51.45

>  <bpol>
27

>  <nRing>
3

>  <nHRing>
1

>  <naRing>
2

>  <naHRing>
0

>  <nARing 2>
1

>  <nAHRing 2>
1

>  <nFRing>
0

>  <nFHRing>
0

>  <nFaRing>
0

>  <nFaHRing>
0

>  <nFARing 2>
0

>  <nFAHRing 2>
0

>  <nRot>
3

>  <SLogP>
4.07

>  <SMR>
93.42

>  <TopoPSA(NO)>
6.48

>  <TopoPSA>
6.48

>  <JGI1>
0.15

>  <JGI2>
0.07

>  <JGI3>
0.04

>  <JGI4>
0.03

>  <JGI5>
0.01

>  <Diameter>
10

>  <Radius>
5

>  <TMWC10>
119.33

>  <TSRW10>
63.57

>  <MW>
314.15

>  <AMW>
6.98

>  <WPath>
1006

>  <WPol>
35

>  <Zagreb1>
112

>  <Zagreb2>
129

>  <mZagreb2>
4.92

>  <yes>


>  <nAR-cont>
0.816016

>  <nHA-cont>
0.983774276

>  <MWHBN>
0.112839581

>  <MWHBN-cont>
0.796929992

>  <TPSA-cont>
0.954765576

>  <pka_cont>
0.97

>  <yes.1>


>  <BBB_SCORE>
5.389716417

>  <MMFF94 Energy>
90.746

$$$$
Compound 1396
Actelion Java MolfileCreator 2.0

  0  0  0  0  0  0              0 V3000
M  V30 BEGIN CTAB
M  V30 COUNTS 41 43 0 0 0
M  V30 BEGIN ATOM
M  V30 1 O -1.7456 -2.3015 0.4758 0
M  V30 2 C -0.3468 -2.6219 0.6268 0 CFG=2
M  V30 3 C -2.5713 -3.3185 1.0565 0
M  V30 4 C 0.0038 -2.8227 2.1179 0
M  V30 5 C 0.5064 -1.5164 -0.0159 0
M  V30 6 C -2.236 -3.5409 2.5388 0
M  V30 7 N -0.816 -3.8831 2.7433 0
M  V30 8 O 0.4224 -0.3081 0.7588 0
M  V30 9 C 1.242 0.6585 0.22 0
M  V30 10 C 0.7451 1.678 -0.626 0
M  V30 11 C 2.5957 0.5855 0.5862 0
M  V30 12 N -0.5993 1.8572 -0.9513 0
M  V30 13 C 1.7102 2.5812 -1.1453 0
M  V30 14 C 3.5128 1.4868 0.066 0
M  V30 15 C -0.9408 2.6792 -2.1066 0
M  V30 16 C -1.6793 1.1538 -0.2759 0
M  V30 17 C 3.0745 2.4707 -0.8098 0
M  V30 18 C 1.3182 3.6803 -2.1056 0
M  V30 19 C -0.1688 3.9843 -2.0542 0
M  V30 20 H -0.1614 -3.5513 0.0719 0
M  V30 21 H -2.4531 -4.2451 0.4821 0
M  V30 22 H -3.6126 -2.9964 0.9561 0
M  V30 23 H -0.1531 -1.8962 2.6833 0
M  V30 24 H 1.061 -3.0907 2.2213 0
M  V30 25 H 1.5463 -1.8632 -0.065 0
M  V30 26 H 0.145 -1.3218 -1.0335 0
M  V30 27 H -2.86 -4.3447 2.9434 0
M  V30 28 H -2.4644 -2.633 3.1102 0
M  V30 29 H -0.6231 -4.765 2.269 0
M  V30 30 H 2.9289 -0.1843 1.2762 0
M  V30 31 H 4.5618 1.4225 0.3395 0
M  V30 32 H -0.7187 2.1294 -3.0299 0
M  V30 33 H -2.0129 2.9073 -2.125 0
M  V30 34 H -2.6431 1.6418 -0.4617 0
M  V30 35 H -1.5504 1.1568 0.8113 0
M  V30 36 H -1.7679 0.1307 -0.6483 0
M  V30 37 H 3.7958 3.1714 -1.2248 0
M  V30 38 H 1.8746 4.5977 -1.8785 0
M  V30 39 H 1.5965 3.3643 -3.1188 0
M  V30 40 H -0.4488 4.6326 -2.8916 0
M  V30 41 H -0.4095 4.5229 -1.1283 0
M  V30 END ATOM
M  V30 BEGIN BOND
M  V30 1 1 1 2
M  V30 2 1 1 3
M  V30 3 1 2 4
M  V30 4 1 2 5
M  V30 5 1 3 6
M  V30 6 1 4 7
M  V30 7 1 5 8
M  V30 8 1 8 9
M  V30 9 2 9 10
M  V30 10 1 9 11
M  V30 11 1 10 12
M  V30 12 1 10 13
M  V30 13 2 11 14
M  V30 14 1 12 15
M  V30 15 1 12 16
M  V30 16 2 13 17
M  V30 17 1 13 18
M  V30 18 1 15 19
M  V30 19 1 6 7
M  V30 20 1 14 17
M  V30 21 1 18 19
M  V30 22 1 2 20
M  V30 23 1 3 21
M  V30 24 1 3 22
M  V30 25 1 4 23
M  V30 26 1 4 24
M  V30 27 1 5 25
M  V30 28 1 5 26
M  V30 29 1 6 27
M  V30 30 1 6 28
M  V30 31 1 7 29
M  V30 32 1 11 30
M  V30 33 1 14 31
M  V30 34 1 15 32
M  V30 35 1 15 33
M  V30 36 1 16 34
M  V30 37 1 16 35
M  V30 38 1 16 36
M  V30 39 1 17 37
M  V30 40 1 18 38
M  V30 41 1 18 39
M  V30 42 1 19 40
M  V30 43 1 19 41
M  V30 END BOND
M  V30 BEGIN COLLECTION
M  V30 MDLV30/STERAC1 ATOMS=(1 2)
M  V30 END COLLECTION
M  V30 END CTAB
M  END
>  <Column 1>
1672

>  <level_0>
1828

>  <index>
1828

>  <Unnamed: 0>
1828

>  <NO.>
1840

>  <Name>
dabelotine

>  <IUPAC_name>
2-[(1-methyl-3-4-dihydro-2h-quinolin-8-yl)oxymethyl]morpholine

>  <SMILES>
CN1CCCc2cccc(OCC3CNCCO3)c21

>  <CID>
177949

>  <logBB>


>  <BBB+/BBB->
BBB+

>  <Inchi>
InChI=1S/C15H22N2O2/c1-17-8-3-5-12-4-2-6-14(15(12)17)19-11-13-10-16-7-9-18-13/h2-4-6-13-16H-3-5-7-11H2-1H3

>  <threshold>
-1

>  <reference>
R1|R19|R6|R27|R27|R30|

>  <group>
B

>  <Class>
1

>  <ABC>
14.84

>  <ABCGG>
11.7

>  <nAcid>
0

>  <nBase>
1

>  <nAromAtom>
6

>  <nAromBond>
6

>  <nAtom>
41

>  <nHeavyAtom>
19

>  <nSpiro>
0

>  <nBridgehead>
0

>  <nHetero>
4

>  <nN>
2

>  <nO>
2

>  <nF>
0

>  <BalabanJ>
1.53

>  <BertzCT>
430.15

>  <nBonds>
43

>  <nBondsO>
21

>  <nBondsS>
37

>  <nBondsD>
0

>  <nBondsT>
0

>  <nBondsA>
6

>  <nBondsM>
6

>  <nBondsKS>
40

>  <nBondsKD>
3

>  <RNCG>
0.28

>  <RPCG>
0.08

>  <FCSP3>
0.6

>  <SZ>
23.67

>  <Sm>
21.84

>  <Sv>
23.91

>  <Sse>
40.75

>  <Sp>
26.06

>  <Si>
46.57

>  <MZ>
0.58

>  <Mm>
0.53

>  <Mv>
0.58

>  <Mse>
0.99

>  <Mp>
0.64

>  <Mi>
1.14

>  <NsCH3>
1

>  <NdCH2>
0

>  <NssCH2>
7

>  <NtCH>
0

>  <NdsCH>
0

>  <NaaCH>
3

>  <NsssCH>
1

>  <NddC>
0

>  <NtsC>
0

>  <NdssC>
0

>  <NaasC>
3

>  <NaaaC>
0

>  <NssssC>
0

>  <NsNH3>
0

>  <NsNH2>
0

>  <NssNH2>
0

>  <NdNH>
0

>  <NssNH>
1

>  <NaaNH>
0

>  <NtN>
0

>  <NsssNH>
0

>  <NdsN>
0

>  <NaaN>
0

>  <NsssN>
1

>  <NddsN>
0

>  <NaasN>
0

>  <NssssN>
0

>  <NsOH>
0

>  <NdO>
0

>  <NssO>
2

>  <NaaO>
0

>  <NsF>
0

>  <NsSiH3>
0

>  <NssSiH2>
0

>  <NsssSiH>
0

>  <NssssSi>
0

>  <NsPH2>
0

>  <NssPH>
0

>  <NsssP>
0

>  <NdsssP>
0

>  <NsssssP>
0

>  <NsSH>
0

>  <NdS>
0

>  <NssS>
0

>  <NaaS>
0

>  <NdssS>
0

>  <NddssS>
0

>  <NsCl>
0

>  <NsBr>
0

>  <NsI>
0

>  <fragCpx>
99.04

>  <fMF>
0.44

>  <nHBAcc>
4

>  <nHBDon>
1

>  <Kier1>
13.96

>  <Kier2>
6.64

>  <Lipinski>
1

>  <GhoseFilter>
1

>  <FilterItLogS>
-3.32

>  <VMcGowan>
208.43

>  <LabuteASA>
114.24

>  <PEOE_VSA1>
19.69

>  <PEOE_VSA2>
0

>  <PEOE_VSA3>
0

>  <PEOE_VSA4>
0

>  <PEOE_VSA5>
0

>  <PEOE_VSA6>
12.13

>  <PEOE_VSA7>
24.47

>  <PEOE_VSA8>
26.68

>  <PEOE_VSA9>
12.29

>  <PEOE_VSA10>
18.46

>  <PEOE_VSA11>
0

>  <PEOE_VSA12>
0

>  <PEOE_VSA13>
0

>  <SMR_VSA1>
9.47

>  <SMR_VSA2>
0

>  <SMR_VSA3>
5.32

>  <SMR_VSA4>
0

>  <SMR_VSA5>
18.95

>  <SMR_VSA6>
44.8

>  <SMR_VSA7>
23.76

>  <SMR_VSA8>
0

>  <SMR_VSA9>
5.75

>  <SlogP_VSA1>
14.95

>  <SlogP_VSA2>
46

>  <SlogP_VSA3>
11.16

>  <SlogP_VSA4>
0

>  <SlogP_VSA5>
11.98

>  <SlogP_VSA6>
18.2

>  <SlogP_VSA7>
0

>  <SlogP_VSA8>
0

>  <SlogP_VSA9>
0

>  <SlogP_VSA10>
5.69

>  <SlogP_VSA11>
5.75

>  <EState_VSA1>
0

>  <EState_VSA2>
6.1

>  <EState_VSA3>
6.61

>  <EState_VSA4>
38.41

>  <EState_VSA5>
17.67

>  <EState_VSA6>
0

>  <EState_VSA7>
0

>  <EState_VSA8>
35.46

>  <EState_VSA9>
9.47

>  <EState_VSA10>
0

>  <VSA_EState1>
11.68

>  <VSA_EState2>
2.3

>  <VSA_EState3>
3.33

>  <VSA_EState4>
2.66

>  <VSA_EState5>
0.99

>  <VSA_EState6>
6.36

>  <VSA_EState7>
2.54

>  <VSA_EState8>
4.33

>  <VSA_EState9>
2.14

>  <apol>
43.52

>  <bpol>
27.82

>  <nRing>
3

>  <nHRing>
2

>  <naRing>
1

>  <naHRing>
0

>  <nARing 2>
2

>  <nAHRing 2>
2

>  <nFRing>
1

>  <nFHRing>
1

>  <nFaRing>
0

>  <nFaHRing>
0

>  <nFARing 2>
1

>  <nFAHRing 2>
1

>  <nRot>
3

>  <SLogP>
1.44

>  <SMR>
76.14

>  <TopoPSA(NO)>
33.73

>  <TopoPSA>
33.73

>  <JGI1>
0.12

>  <JGI2>
0.06

>  <JGI3>
0.04

>  <JGI4>
0.03

>  <JGI5>
0.02

>  <Diameter>
10

>  <Radius>
5

>  <TMWC10>
112.21

>  <TSRW10>
52.32

>  <MW>
262.17

>  <AMW>
6.39

>  <WPath>
726

>  <WPol>
28

>  <Zagreb1>
98

>  <Zagreb2>
114

>  <mZagreb2>
4.25

>  <yes>


>  <nAR-cont>
1

>  <nHA-cont>
0.998649058

>  <MWHBN>
0.308800864

>  <MWHBN-cont>
0.81367215

>  <TPSA-cont>
0.764543655

>  <pka_cont>
0.97

>  <yes.1>


>  <BBB_SCORE>
5.233244593

>  <MMFF94 Energy>
112.49

$$$$
Compound 1397
Actelion Java MolfileCreator 2.0

  0  0  0  0  0  0              0 V3000
M  V30 BEGIN CTAB
M  V30 COUNTS 54 58 0 0 0
M  V30 BEGIN ATOM
M  V30 1 Cl 2.4394 -4.8018 2.765 0
M  V30 2 C 3.4942 -3.473 2.4457 0
M  V30 3 C 3.0171 -2.2017 2.1071 0
M  V30 4 C 4.8693 -3.6759 2.5845 0
M  V30 5 C 1.5667 -1.9305 1.936 0
M  V30 6 C 3.9088 -1.1411 1.8991 0
M  V30 7 C 5.7596 -2.6184 2.3813 0
M  V30 8 N 1.0041 -2.4338 0.8911 0
M  V30 9 C 0.8991 -1.0719 2.9637 0
M  V30 10 C 5.2803 -1.3535 2.0389 0
M  V30 11 C -0.4164 -2.2047 0.6443 0
M  V30 12 C -0.0072 -0.0505 2.6107 0
M  V30 13 C 1.2285 -1.285 4.3152 0
M  V30 14 C -0.6032 -0.7493 0.3203 0
M  V30 15 N -0.3892 0.1888 1.2757 0
M  V30 16 C -0.5588 0.748 3.6295 0
M  V30 17 C 0.6643 -0.4766 5.3098 0
M  V30 18 N -0.9745 -0.3074 -0.845 0
M  V30 19 C -0.6217 1.4161 0.7114 0
M  V30 20 C -0.2278 0.5424 4.9716 0
M  V30 21 N 1.0159 -0.7004 6.7182 0 CHG=1
M  V30 22 C -1.0095 1.0601 -0.6868 0
M  V30 23 O -0.536 2.5329 1.1897 0
M  V30 24 O 0.4069 -0.0447 7.5742 0
M  V30 25 O 1.9017 -1.5307 6.9623 0 CHG=-1
M  V30 26 C -1.32 2.0004 -1.5903 0
M  V30 27 N -1.7016 1.9292 -2.9289 0
M  V30 28 C -1.7482 3.1394 -3.7775 0
M  V30 29 C -1.7507 0.6715 -3.7044 0
M  V30 30 C -2.9077 3.0836 -4.7938 0
M  V30 31 C -2.8938 0.6848 -4.7463 0
M  V30 32 N -2.8682 1.8684 -5.6323 0
M  V30 33 C -3.9976 1.8425 -6.5584 0
M  V30 34 H 5.2559 -4.6561 2.8535 0
M  V30 35 H 3.5453 -0.1577 1.6108 0
M  V30 36 H 6.8296 -2.7834 2.4869 0
M  V30 37 H 5.9779 -0.5357 1.8719 0
M  V30 38 H -1.0298 -2.4947 1.5044 0
M  V30 39 H -0.7341 -2.809 -0.211 0
M  V30 40 H 1.9123 -2.0846 4.5939 0
M  V30 41 H -1.2648 1.544 3.3923 0
M  V30 42 H -0.6746 1.1827 5.731 0
M  V30 43 H -1.2733 3.037 -1.2552 0
M  V30 44 H -0.7916 3.2375 -4.3055 0
M  V30 45 H -1.8739 4.0392 -3.1631 0
M  V30 46 H -1.9225 -0.195 -3.0617 0
M  V30 47 H -0.7868 0.5275 -4.2073 0
M  V30 48 H -3.8602 3.1407 -4.2495 0
M  V30 49 H -2.8432 3.9717 -5.434 0
M  V30 50 H -3.853 0.6351 -4.2125 0
M  V30 51 H -2.8119 -0.2256 -5.3522 0
M  V30 52 H -3.9521 0.9506 -7.1929 0
M  V30 53 H -4.9633 1.8475 -6.0401 0
M  V30 54 H -3.9627 2.7081 -7.2289 0
M  V30 END ATOM
M  V30 BEGIN BOND
M  V30 1 1 1 2
M  V30 2 2 2 3
M  V30 3 1 2 4
M  V30 4 1 3 5
M  V30 5 1 3 6
M  V30 6 2 4 7
M  V30 7 2 5 8
M  V30 8 1 5 9
M  V30 9 2 6 10
M  V30 10 1 8 11
M  V30 11 2 9 12
M  V30 12 1 9 13
M  V30 13 1 11 14
M  V30 14 1 12 15
M  V30 15 1 12 16
M  V30 16 2 13 17
M  V30 17 2 14 18
M  V30 18 1 15 19
M  V30 19 2 16 20
M  V30 20 1 17 21
M  V30 21 1 18 22
M  V30 22 2 19 23
M  V30 23 2 21 24
M  V30 24 1 21 25
M  V30 25 2 22 26
M  V30 26 1 26 27
M  V30 27 1 27 28
M  V30 28 1 27 29
M  V30 29 1 28 30
M  V30 30 1 29 31
M  V30 31 1 30 32
M  V30 32 1 32 33
M  V30 33 1 7 10
M  V30 34 1 14 15
M  V30 35 1 17 20
M  V30 36 1 19 22
M  V30 37 1 31 32
M  V30 38 1 4 34
M  V30 39 1 6 35
M  V30 40 1 7 36
M  V30 41 1 10 37
M  V30 42 1 11 38
M  V30 43 1 11 39
M  V30 44 1 13 40
M  V30 45 1 16 41
M  V30 46 1 20 42
M  V30 47 1 26 43
M  V30 48 1 28 44
M  V30 49 1 28 45
M  V30 50 1 29 46
M  V30 51 1 29 47
M  V30 52 1 30 48
M  V30 53 1 30 49
M  V30 54 1 31 50
M  V30 55 1 31 51
M  V30 56 1 33 52
M  V30 57 1 33 53
M  V30 58 1 33 54
M  V30 END BOND
M  V30 END CTAB
M  END
>  <Column 1>
1673

>  <level_0>
1829

>  <index>
1829

>  <Unnamed: 0>
1829

>  <NO.>
1841

>  <Name>
loprazolam

>  <IUPAC_name>
(2z)-6-(2-chlorophenyl)-2-[(4-methylpiperazin-1-yl)methylidene]-8-nitro-4h-imidazo[1-2-a][1-4]benzodiazepin-1-one

>  <SMILES>
CN1CCN(/C=C2\N=C3CN=C(c4ccccc4Cl)c4cc([N+](=O)[O-])ccc4N3C2=O)CC1

>  <CID>
3033860

>  <logBB>


>  <BBB+/BBB->
BBB+

>  <Inchi>
InChI=1S/C23H21ClN6O3/c1-27-8-10-28(11-9-27)14-19-23(31)29-20-7-6-15(30(32)33)12-17(20)22(25-13-21(29)26-19)16-4-2-3-5-18(16)24/h2-7-12-14H-8-11-13H2-1H3/b19-14-

>  <threshold>
-1

>  <reference>
R1|R13|R6|R14|R23|R24|R27|R30|

>  <group>
B

>  <Class>
1

>  <ABC>
26.35

>  <ABCGG>
19.5

>  <nAcid>
0

>  <nBase>
3

>  <nAromAtom>
12

>  <nAromBond>
12

>  <nAtom>
54

>  <nHeavyAtom>
33

>  <nSpiro>
0

>  <nBridgehead>
0

>  <nHetero>
10

>  <nN>
6

>  <nO>
3

>  <nF>
0

>  <BalabanJ>
1.34

>  <BertzCT>
1246.51

>  <nBonds>
58

>  <nBondsO>
37

>  <nBondsS>
41

>  <nBondsD>
5

>  <nBondsT>
0

>  <nBondsA>
12

>  <nBondsM>
17

>  <nBondsKS>
47

>  <nBondsKD>
11

>  <RNCG>
0.15

>  <RPCG>
0.11

>  <FCSP3>
0.26

>  <SZ>
40.33

>  <Sm>
38.71

>  <Sv>
36.47

>  <Sse>
55.06

>  <Sp>
38.08

>  <Si>
60.88

>  <MZ>
0.75

>  <Mm>
0.72

>  <Mv>
0.68

>  <Mse>
1.02

>  <Mp>
0.71

>  <Mi>
1.13

>  <NsCH3>
1

>  <NdCH2>
0

>  <NssCH2>
5

>  <NtCH>
0

>  <NdsCH>
1

>  <NaaCH>
7

>  <NsssCH>
0

>  <NddC>
0

>  <NtsC>
0

>  <NdssC>
4

>  <NaasC>
5

>  <NaaaC>
0

>  <NssssC>
0

>  <NsNH3>
0

>  <NsNH2>
0

>  <NssNH2>
0

>  <NdNH>
0

>  <NssNH>
0

>  <NaaNH>
0

>  <NtN>
0

>  <NsssNH>
0

>  <NdsN>
2

>  <NaaN>
0

>  <NsssN>
3

>  <NddsN>
1

>  <NaasN>
0

>  <NssssN>
0

>  <NsOH>
0

>  <NdO>
2

>  <NssO>
0

>  <NaaO>
0

>  <NsF>
0

>  <NsSiH3>
0

>  <NssSiH2>
0

>  <NsssSiH>
0

>  <NssssSi>
0

>  <NsPH2>
0

>  <NssPH>
0

>  <NsssP>
0

>  <NdsssP>
0

>  <NsssssP>
0

>  <NsSH>
0

>  <NdS>
0

>  <NssS>
0

>  <NaaS>
0

>  <NdssS>
0

>  <NddssS>
0

>  <NsCl>
1

>  <NsBr>
0

>  <NsI>
0

>  <fragCpx>
313.1

>  <fMF>
0.5

>  <nHBAcc>
7

>  <nHBDon>
0

>  <Kier1>
24.68

>  <Kier2>
10.55

>  <Lipinski>
1

>  <GhoseFilter>
1

>  <FilterItLogS>
-5.21

>  <VMcGowan>
323.06

>  <LabuteASA>
194.98

>  <PEOE_VSA1>
9.8

>  <PEOE_VSA2>
24.8

>  <PEOE_VSA3>
4.99

>  <PEOE_VSA4>
0

>  <PEOE_VSA5>
0

>  <PEOE_VSA6>
29.8

>  <PEOE_VSA7>
19.18

>  <PEOE_VSA8>
60.66

>  <PEOE_VSA9>
22.87

>  <PEOE_VSA10>
11.53

>  <PEOE_VSA11>
0

>  <PEOE_VSA12>
0

>  <PEOE_VSA13>
11.59

>  <SMR_VSA1>
9.72

>  <SMR_VSA2>
0

>  <SMR_VSA3>
9.8

>  <SMR_VSA4>
9.98

>  <SMR_VSA5>
0

>  <SMR_VSA6>
44.67

>  <SMR_VSA7>
80.63

>  <SMR_VSA8>
0

>  <SMR_VSA9>
0

>  <SlogP_VSA1>
4.9

>  <SlogP_VSA2>
71.95

>  <SlogP_VSA3>
4.79

>  <SlogP_VSA4>
10.11

>  <SlogP_VSA5>
11.13

>  <SlogP_VSA6>
64.35

>  <SlogP_VSA7>
5.02

>  <SlogP_VSA8>
0

>  <SlogP_VSA9>
0

>  <SlogP_VSA10>
11.37

>  <SlogP_VSA11>
0

>  <EState_VSA1>
4.92

>  <EState_VSA2>
18.14

>  <EState_VSA3>
39.08

>  <EState_VSA4>
26.18

>  <EState_VSA5>
17.03

>  <EState_VSA6>
24.4

>  <EState_VSA7>
12.13

>  <EState_VSA8>
21.84

>  <EState_VSA9>
16.59

>  <EState_VSA10>
14.91

>  <VSA_EState1>
0

>  <VSA_EState2>
39.58

>  <VSA_EState3>
11.96

>  <VSA_EState4>
2.36

>  <VSA_EState5>
0.21

>  <VSA_EState6>
11.59

>  <VSA_EState7>
1.81

>  <VSA_EState8>
3.6

>  <VSA_EState9>
2.07

>  <apol>
63.6

>  <bpol>
31.02

>  <nRing>
5

>  <nHRing>
3

>  <naRing>
2

>  <naHRing>
0

>  <nARing 2>
3

>  <nAHRing 2>
3

>  <nFRing>
1

>  <nFHRing>
1

>  <nFaRing>
0

>  <nFaHRing>
0

>  <nFARing 2>
1

>  <nFAHRing 2>
1

>  <nRot>
3

>  <SLogP>
2.93

>  <SMR>
127.13

>  <TopoPSA(NO)>
94.65

>  <TopoPSA>
94.65

>  <JGI1>
0.18

>  <JGI2>
0.08

>  <JGI3>
0.05

>  <JGI4>
0.04

>  <JGI5>
0.02

>  <Diameter>
15

>  <Radius>
8

>  <TMWC10>
149.42

>  <TSRW10>
84.13

>  <MW>
464.14

>  <AMW>
8.6

>  <WPath>
3057

>  <WPol>
61

>  <Zagreb1>
182

>  <Zagreb2>
220

>  <mZagreb2>
7.08

>  <yes>


>  <nAR-cont>
0.691115

>  <nHA-cont>
0.61399562

>  <MWHBN>
0.324917828

>  <MWHBN-cont>
0.760473836

>  <TPSA-cont>
0.339284226

>  <pka_cont>
0.97

>  <yes.1>


>  <BBB_SCORE>
3.609389827

>  <MMFF94 Energy>
263.7

$$$$
Compound 1398
Actelion Java MolfileCreator 2.0

  0  0  0  0  0  0              0 V3000
M  V30 BEGIN CTAB
M  V30 COUNTS 49 51 0 0 0
M  V30 BEGIN ATOM
M  V30 1 Cl 2.9905 -2.9095 -2.5859 0
M  V30 2 C 1.4995 -3.5875 -2.0335 0
M  V30 3 C 1.2045 -4.9482 -2.1545 0
M  V30 4 C 0.5733 -2.7251 -1.4357 0
M  V30 5 Cl 2.2985 -6.0756 -2.8739 0
M  V30 6 C -0.0127 -5.4389 -1.6748 0
M  V30 7 C -0.6564 -3.2074 -0.9584 0
M  V30 8 C -0.9342 -4.5759 -1.0755 0
M  V30 9 C -1.6454 -2.2904 -0.2647 0
M  V30 10 C -1.8386 -0.9546 -0.9752 0
M  V30 11 O -2.2238 -0.9564 -2.1496 0
M  V30 12 N -1.5814 0.2293 -0.2967 0
M  V30 13 C -1.1325 0.3594 1.1133 0 CFG=2
M  V30 14 C -1.588 1.4712 -1.0797 0
M  V30 15 C -1.6526 1.6625 1.7899 0
M  V30 16 C 0.3937 0.0928 1.3285 0
M  V30 17 C -2.1934 2.6646 -0.3242 0
M  V30 18 N -1.5461 2.8855 0.9813 0
M  V30 19 N 1.3757 0.7143 0.4305 0
M  V30 20 C -2.1434 4.0272 1.6701 0
M  V30 21 C 2.7003 0.0972 0.5764 0
M  V30 22 C 1.5972 2.1432 0.6804 0
M  V30 23 C 3.5914 1.0648 -0.1736 0
M  V30 24 C 3.0052 2.4263 0.1592 0
M  V30 25 H 0.8126 -1.6656 -1.3529 0
M  V30 26 H -0.2511 -6.4961 -1.7637 0
M  V30 27 H -1.8746 -4.9818 -0.707 0
M  V30 28 H -2.6369 -2.7611 -0.2421 0
M  V30 29 H -1.33 -2.1972 0.7728 0
M  V30 30 H -1.6408 -0.4377 1.6691 0
M  V30 31 H -2.1425 1.3388 -2.0148 0
M  V30 32 H -0.5523 1.6831 -1.365 0
M  V30 33 H -2.7111 1.4982 2.0401 0
M  V30 34 H -1.13 1.8021 2.7443 0
M  V30 35 H 0.5205 -0.9914 1.2177 0
M  V30 36 H 0.6476 0.2991 2.3773 0
M  V30 37 H -3.2702 2.4936 -0.1911 0
M  V30 38 H -2.0784 3.5589 -0.9484 0
M  V30 39 H -1.6378 4.2053 2.6256 0
M  V30 40 H -3.2118 3.883 1.8671 0
M  V30 41 H -2.0228 4.9395 1.0757 0
M  V30 42 H 2.7421 -0.9049 0.1408 0
M  V30 43 H 3.0063 0.0378 1.6289 0
M  V30 44 H 0.8807 2.768 0.1458 0
M  V30 45 H 1.5496 2.3887 1.7485 0
M  V30 46 H 3.5271 0.885 -1.2539 0
M  V30 47 H 4.6415 0.9822 0.1215 0
M  V30 48 H 2.991 3.0684 -0.7277 0
M  V30 49 H 3.6017 2.9272 0.9298 0
M  V30 END ATOM
M  V30 BEGIN BOND
M  V30 1 1 1 2
M  V30 2 2 2 3
M  V30 3 1 2 4
M  V30 4 1 3 5
M  V30 5 1 3 6
M  V30 6 2 4 7
M  V30 7 2 6 8
M  V30 8 1 7 9
M  V30 9 1 9 10
M  V30 10 2 10 11
M  V30 11 1 10 12
M  V30 12 1 12 13
M  V30 13 1 12 14
M  V30 14 1 13 15
M  V30 15 1 13 16
M  V30 16 1 14 17
M  V30 17 1 15 18
M  V30 18 1 16 19
M  V30 19 1 18 20
M  V30 20 1 19 21
M  V30 21 1 19 22
M  V30 22 1 21 23
M  V30 23 1 22 24
M  V30 24 1 7 8
M  V30 25 1 17 18
M  V30 26 1 23 24
M  V30 27 1 4 25
M  V30 28 1 6 26
M  V30 29 1 8 27
M  V30 30 1 9 28
M  V30 31 1 9 29
M  V30 32 1 13 30
M  V30 33 1 14 31
M  V30 34 1 14 32
M  V30 35 1 15 33
M  V30 36 1 15 34
M  V30 37 1 16 35
M  V30 38 1 16 36
M  V30 39 1 17 37
M  V30 40 1 17 38
M  V30 41 1 20 39
M  V30 42 1 20 40
M  V30 43 1 20 41
M  V30 44 1 21 42
M  V30 45 1 21 43
M  V30 46 1 22 44
M  V30 47 1 22 45
M  V30 48 1 23 46
M  V30 49 1 23 47
M  V30 50 1 24 48
M  V30 51 1 24 49
M  V30 END BOND
M  V30 BEGIN COLLECTION
M  V30 MDLV30/STEABS ATOMS=(1 13)
M  V30 END COLLECTION
M  V30 END CTAB
M  END
>  <Column 1>
1674

>  <level_0>
1830

>  <index>
1830

>  <Unnamed: 0>
1830

>  <NO.>
1842

>  <Name>
sankyo

>  <IUPAC_name>
2-(3-4-dichlorophenyl)-1-[(2r)-4-methyl-2-(pyrrolidin-1-ylmethyl)piperazin-1-yl]ethanone

>  <SMILES>
CN1CCN(C(=O)Cc2ccc(Cl)c(Cl)c2)[C@@H](CN2CCCC2)C1

>  <CID>
44309990

>  <logBB>


>  <BBB+/BBB->
BBB+

>  <Inchi>
InChI=1S/C18H25Cl2N3O/c1-21-8-9-23(15(12-21)13-22-6-2-3-7-22)18(24)11-14-4-5-16(19)17(20)10-14/h4-5-10-15H-2-3-6-9-11-13H2-1H3/t15-/m1/s1

>  <threshold>
-1

>  <reference>
R1|R28|R9|R24|R27|R30|

>  <group>
B

>  <Class>
1

>  <ABC>
18.7

>  <ABCGG>
15.45

>  <nAcid>
0

>  <nBase>
2

>  <nAromAtom>
6

>  <nAromBond>
6

>  <nAtom>
49

>  <nHeavyAtom>
24

>  <nSpiro>
0

>  <nBridgehead>
0

>  <nHetero>
6

>  <nN>
3

>  <nO>
1

>  <nF>
0

>  <BalabanJ>
1.55

>  <BertzCT>
589.63

>  <nBonds>
51

>  <nBondsO>
26

>  <nBondsS>
44

>  <nBondsD>
1

>  <nBondsT>
0

>  <nBondsA>
6

>  <nBondsM>
7

>  <nBondsKS>
47

>  <nBondsKD>
4

>  <RNCG>
0.2

>  <RPCG>
0.14

>  <FCSP3>
0.61

>  <SZ>
32.67

>  <Sm>
30.83

>  <Sv>
29.94

>  <Sse>
48.95

>  <Sp>
33.05

>  <Si>
55.58

>  <MZ>
0.67

>  <Mm>
0.63

>  <Mv>
0.61

>  <Mse>
1

>  <Mp>
0.67

>  <Mi>
1.13

>  <NsCH3>
1

>  <NdCH2>
0

>  <NssCH2>
9

>  <NtCH>
0

>  <NdsCH>
0

>  <NaaCH>
3

>  <NsssCH>
1

>  <NddC>
0

>  <NtsC>
0

>  <NdssC>
1

>  <NaasC>
3

>  <NaaaC>
0

>  <NssssC>
0

>  <NsNH3>
0

>  <NsNH2>
0

>  <NssNH2>
0

>  <NdNH>
0

>  <NssNH>
0

>  <NaaNH>
0

>  <NtN>
0

>  <NsssNH>
0

>  <NdsN>
0

>  <NaaN>
0

>  <NsssN>
3

>  <NddsN>
0

>  <NaasN>
0

>  <NssssN>
0

>  <NsOH>
0

>  <NdO>
1

>  <NssO>
0

>  <NaaO>
0

>  <NsF>
0

>  <NsSiH3>
0

>  <NssSiH2>
0

>  <NsssSiH>
0

>  <NssssSi>
0

>  <NsPH2>
0

>  <NssPH>
0

>  <NsssP>
0

>  <NdsssP>
0

>  <NsssssP>
0

>  <NsSH>
0

>  <NdS>
0

>  <NssS>
0

>  <NaaS>
0

>  <NdssS>
0

>  <NddssS>
0

>  <NsCl>
2

>  <NsBr>
0

>  <NsI>
0

>  <fragCpx>
124.06

>  <fMF>
0.41

>  <nHBAcc>
3

>  <nHBDon>
0

>  <Kier1>
18.78

>  <Kier2>
8.59

>  <Lipinski>
1

>  <GhoseFilter>
1

>  <FilterItLogS>
-4.26

>  <VMcGowan>
274.99

>  <LabuteASA>
153.85

>  <PEOE_VSA1>
14.7

>  <PEOE_VSA2>
4.79

>  <PEOE_VSA3>
0

>  <PEOE_VSA4>
0

>  <PEOE_VSA5>
0

>  <PEOE_VSA6>
29.27

>  <PEOE_VSA7>
50.68

>  <PEOE_VSA8>
26.18

>  <PEOE_VSA9>
22.51

>  <PEOE_VSA10>
0

>  <PEOE_VSA11>
0

>  <PEOE_VSA12>
5.91

>  <PEOE_VSA13>
0

>  <SMR_VSA1>
4.79

>  <SMR_VSA2>
0

>  <SMR_VSA3>
14.7

>  <SMR_VSA4>
0

>  <SMR_VSA5>
25.3

>  <SMR_VSA6>
46.32

>  <SMR_VSA7>
33.81

>  <SMR_VSA8>
0

>  <SMR_VSA9>
0

>  <SlogP_VSA1>
0

>  <SlogP_VSA2>
72.96

>  <SlogP_VSA3>
11.22

>  <SlogP_VSA4>
0

>  <SlogP_VSA5>
18.41

>  <SlogP_VSA6>
18.2

>  <SlogP_VSA7>
10.05

>  <SlogP_VSA8>
0

>  <SlogP_VSA9>
0

>  <SlogP_VSA10>
0

>  <SlogP_VSA11>
0

>  <EState_VSA1>
0

>  <EState_VSA2>
11.95

>  <EState_VSA3>
16.47

>  <EState_VSA4>
44.83

>  <EState_VSA5>
12.84

>  <EState_VSA6>
12.13

>  <EState_VSA7>
6.07

>  <EState_VSA8>
21.75

>  <EState_VSA9>
23.2

>  <EState_VSA10>
4.79

>  <VSA_EState1>
0

>  <VSA_EState2>
19.75

>  <VSA_EState3>
1.04

>  <VSA_EState4>
0.92

>  <VSA_EState5>
0.19

>  <VSA_EState6>
5.72

>  <VSA_EState7>
2.94

>  <VSA_EState8>
5.99

>  <VSA_EState9>
2.14

>  <apol>
55.19

>  <bpol>
32.1

>  <nRing>
3

>  <nHRing>
2

>  <naRing>
1

>  <naHRing>
0

>  <nARing 2>
2

>  <nAHRing 2>
2

>  <nFRing>
0

>  <nFHRing>
0

>  <nFaRing>
0

>  <nFaHRing>
0

>  <nFARing 2>
0

>  <nFAHRing 2>
0

>  <nRot>
4

>  <SLogP>
2.77

>  <SMR>
98.84

>  <TopoPSA(NO)>
26.79

>  <TopoPSA>
26.79

>  <JGI1>
0.21

>  <JGI2>
0.07

>  <JGI3>
0.05

>  <JGI4>
0.04

>  <JGI5>
0.03

>  <Diameter>
12

>  <Radius>
6

>  <TMWC10>
124.17

>  <TSRW10>
71.45

>  <MW>
369.14

>  <AMW>
7.53

>  <WPath>
1400

>  <WPol>
34

>  <Zagreb1>
124

>  <Zagreb2>
143

>  <mZagreb2>
5.25

>  <yes>


>  <nAR-cont>
1

>  <nHA-cont>
0.94700071

>  <MWHBN>
0.156144144

>  <MWHBN-cont>
0.947459466

>  <TPSA-cont>
0.812989164

>  <pka_cont>
0.97

>  <yes.1>


>  <BBB_SCORE>
5.479168237

>  <MMFF94 Energy>
125.8

$$$$
Compound 1399
Actelion Java MolfileCreator 2.0

  0  0  0  0  0  0              0 V3000
M  V30 BEGIN CTAB
M  V30 COUNTS 51 55 0 0 0
M  V30 BEGIN ATOM
M  V30 1 Cl -3.3998 4.9783 2.155 0
M  V30 2 C -3.3458 4.2023 0.6259 0
M  V30 3 N -2.2061 3.5304 0.3793 0
M  V30 4 C -4.4141 4.2903 -0.2432 0
M  V30 5 C -2.086 2.8997 -0.7856 0
M  V30 6 C -4.2973 3.6346 -1.4576 0
M  V30 7 N -0.9539 2.2376 -1.0209 0
M  V30 8 C -3.1205 2.9269 -1.7389 0
M  V30 9 C -0.7746 1.5741 -2.1849 0
M  V30 10 C -2.9431 2.2413 -2.9418 0
M  V30 11 N 0.4439 0.8905 -2.3397 0
M  V30 12 C -1.7562 1.5539 -3.1647 0
M  V30 13 C 0.9869 0.3982 -3.5104 0
M  V30 14 C 1.3161 0.6864 -1.2096 0 CFG=1
M  V30 15 O 0.5178 0.4249 -4.6366 0
M  V30 16 C 2.3129 -0.1796 -3.1675 0
M  V30 17 O 0.6766 -0.2106 -0.3057 0
M  V30 18 C 2.498 0.0029 -1.8564 0
M  V30 19 S 3.3202 -0.8795 -4.3539 0
M  V30 20 C 0.8827 0.067 1.0058 0
M  V30 21 S 3.89 -0.4608 -0.9402 0
M  V30 22 C 4.5861 -1.6809 -3.3296 0
M  V30 23 O 1.6337 0.9463 1.4096 0
M  V30 24 N 0.1623 -0.7657 1.8356 0
M  V30 25 C 5.1184 -0.7555 -2.2458 0
M  V30 26 C 0.183 -0.5527 3.2794 0
M  V30 27 C -0.7911 -1.7711 1.369 0
M  V30 28 C 0.2767 -1.882 4.0503 0
M  V30 29 C -0.6791 -3.0775 2.1782 0
M  V30 30 N -0.7669 -2.845 3.6351 0
M  V30 31 C -0.6271 -4.1016 4.3679 0
M  V30 32 H -5.3069 4.8482 0.0135 0
M  V30 33 H -5.1132 3.6745 -2.1745 0
M  V30 34 H -3.7167 2.2322 -3.7053 0
M  V30 35 H -1.6355 1.012 -4.0959 0
M  V30 36 H 1.5945 1.6612 -0.7884 0
M  V30 37 H 4.1821 -2.6073 -2.9053 0
M  V30 38 H 5.4068 -1.9659 -3.996 0
M  V30 39 H 5.9882 -1.2203 -1.7698 0
M  V30 40 H 5.4534 0.2023 -2.6598 0
M  V30 41 H 1.0156 0.0979 3.566 0
M  V30 42 H -0.7455 -0.0302 3.5403 0
M  V30 43 H -1.793 -1.3398 1.4845 0
M  V30 44 H -0.6504 -1.9907 0.3067 0
M  V30 45 H 0.1765 -1.6679 5.121 0
M  V30 46 H 1.2736 -2.3148 3.8917 0
M  V30 47 H -1.4864 -3.7487 1.862 0
M  V30 48 H 0.2726 -3.5666 1.9307 0
M  V30 49 H 0.3391 -4.5851 4.1845 0
M  V30 50 H -1.4215 -4.8008 4.0847 0
M  V30 51 H -0.7278 -3.9305 5.4454 0
M  V30 END ATOM
M  V30 BEGIN BOND
M  V30 1 1 1 2
M  V30 2 2 2 3
M  V30 3 1 2 4
M  V30 4 1 3 5
M  V30 5 2 4 6
M  V30 6 2 5 7
M  V30 7 1 5 8
M  V30 8 1 7 9
M  V30 9 2 8 10
M  V30 10 1 9 11
M  V30 11 2 9 12
M  V30 12 1 11 13
M  V30 13 1 11 14
M  V30 14 2 13 15
M  V30 15 1 13 16
M  V30 16 1 14 17
M  V30 17 1 14 18
M  V30 18 1 16 19
M  V30 19 1 17 20
M  V30 20 1 18 21
M  V30 21 1 19 22
M  V30 22 2 20 23
M  V30 23 1 20 24
M  V30 24 1 21 25
M  V30 25 1 24 26
M  V30 26 1 24 27
M  V30 27 1 26 28
M  V30 28 1 27 29
M  V30 29 1 28 30
M  V30 30 1 30 31
M  V30 31 1 6 8
M  V30 32 1 10 12
M  V30 33 2 16 18
M  V30 34 1 22 25
M  V30 35 1 29 30
M  V30 36 1 4 32
M  V30 37 1 6 33
M  V30 38 1 10 34
M  V30 39 1 12 35
M  V30 40 1 14 36
M  V30 41 1 22 37
M  V30 42 1 22 38
M  V30 43 1 25 39
M  V30 44 1 25 40
M  V30 45 1 26 41
M  V30 46 1 26 42
M  V30 47 1 27 43
M  V30 48 1 27 44
M  V30 49 1 28 45
M  V30 50 1 28 46
M  V30 51 1 29 47
M  V30 52 1 29 48
M  V30 53 1 31 49
M  V30 54 1 31 50
M  V30 55 1 31 51
M  V30 END BOND
M  V30 BEGIN COLLECTION
M  V30 MDLV30/STERAC1 ATOMS=(1 14)
M  V30 END COLLECTION
M  V30 END CTAB
M  END
>  <Column 1>
1675

>  <level_0>
1831

>  <index>
1831

>  <Unnamed: 0>
1831

>  <NO.>
1843

>  <Name>
suriclone

>  <IUPAC_name>
[6-(7-chloro-1-8-naphthyridin-2-yl)-5-oxo-3-7-dihydro-2h-[1-4]dithiino[2-3-c]pyrrol-7-yl] 4-methylpiperazine-1-carboxylate

>  <SMILES>
CN1CCN(C(=O)OC2C3=C(SCCS3)C(=O)N2c2ccc3ccc(Cl)nc3n2)CC1

>  <CID>
40903

>  <logBB>


>  <BBB+/BBB->
BBB+

>  <Inchi>
InChI=1S/C20H20ClN5O3S2/c1-24-6-8-25(9-7-24)20(28)29-19-16-15(30-10-11-31-16)18(27)26(19)14-5-3-12-2-4-13(21)22-17(12)23-14/h2-5-19H-6-11H2-1H3

>  <threshold>
-1

>  <reference>
R1|R13|R19|R6|R27|R27|R30|

>  <group>
B

>  <Class>
1

>  <ABC>
24.86

>  <ABCGG>
18.73

>  <nAcid>
0

>  <nBase>
1

>  <nAromAtom>
10

>  <nAromBond>
11

>  <nAtom>
51

>  <nHeavyAtom>
31

>  <nSpiro>
0

>  <nBridgehead>
0

>  <nHetero>
11

>  <nN>
5

>  <nO>
3

>  <nF>
0

>  <BalabanJ>
1.31

>  <BertzCT>
1089.67

>  <nBonds>
55

>  <nBondsO>
35

>  <nBondsS>
41

>  <nBondsD>
3

>  <nBondsT>
0

>  <nBondsA>
11

>  <nBondsM>
14

>  <nBondsKS>
47

>  <nBondsKD>
8

>  <RNCG>
0.16

>  <RPCG>
0.16

>  <FCSP3>
0.4

>  <SZ>
41.33

>  <Sm>
39.8

>  <Sv>
34.82

>  <Sse>
52.11

>  <Sp>
37.5

>  <Si>
57.23

>  <MZ>
0.81

>  <Mm>
0.78

>  <Mv>
0.68

>  <Mse>
1.02

>  <Mp>
0.74

>  <Mi>
1.12

>  <NsCH3>
1

>  <NdCH2>
0

>  <NssCH2>
6

>  <NtCH>
0

>  <NdsCH>
0

>  <NaaCH>
4

>  <NsssCH>
1

>  <NddC>
0

>  <NtsC>
0

>  <NdssC>
4

>  <NaasC>
2

>  <NaaaC>
2

>  <NssssC>
0

>  <NsNH3>
0

>  <NsNH2>
0

>  <NssNH2>
0

>  <NdNH>
0

>  <NssNH>
0

>  <NaaNH>
0

>  <NtN>
0

>  <NsssNH>
0

>  <NdsN>
0

>  <NaaN>
2

>  <NsssN>
3

>  <NddsN>
0

>  <NaasN>
0

>  <NssssN>
0

>  <NsOH>
0

>  <NdO>
2

>  <NssO>
1

>  <NaaO>
0

>  <NsF>
0

>  <NsSiH3>
0

>  <NssSiH2>
0

>  <NsssSiH>
0

>  <NssssSi>
0

>  <NsPH2>
0

>  <NssPH>
0

>  <NsssP>
0

>  <NdsssP>
0

>  <NsssssP>
0

>  <NsSH>
0

>  <NdS>
0

>  <NssS>
2

>  <NaaS>
0

>  <NdssS>
0

>  <NddssS>
0

>  <NsCl>
1

>  <NsBr>
0

>  <NsI>
0

>  <fragCpx>
295.11

>  <fMF>
0.53

>  <nHBAcc>
8

>  <nHBDon>
0

>  <Kier1>
22.78

>  <Kier2>
9.7

>  <Lipinski>
1

>  <GhoseFilter>
1

>  <FilterItLogS>
-3.89

>  <VMcGowan>
316.41

>  <LabuteASA>
192.49

>  <PEOE_VSA1>
14.54

>  <PEOE_VSA2>
4.79

>  <PEOE_VSA3>
19.66

>  <PEOE_VSA4>
0

>  <PEOE_VSA5>
23.52

>  <PEOE_VSA6>
11.6

>  <PEOE_VSA7>
31.31

>  <PEOE_VSA8>
43.07

>  <PEOE_VSA9>
9.81

>  <PEOE_VSA10>
10.97

>  <PEOE_VSA11>
5.65

>  <PEOE_VSA12>
6.23

>  <PEOE_VSA13>
5.91

>  <SMR_VSA1>
14.33

>  <SMR_VSA2>
0

>  <SMR_VSA3>
19.77

>  <SMR_VSA4>
0

>  <SMR_VSA5>
6.23

>  <SMR_VSA6>
49.63

>  <SMR_VSA7>
39.23

>  <SMR_VSA8>
0

>  <SMR_VSA9>
0

>  <SlogP_VSA1>
4.9

>  <SlogP_VSA2>
82.73

>  <SlogP_VSA3>
9.53

>  <SlogP_VSA4>
0

>  <SlogP_VSA5>
0

>  <SlogP_VSA6>
34.08

>  <SlogP_VSA7>
5.15

>  <SlogP_VSA8>
11.03

>  <SlogP_VSA9>
0

>  <SlogP_VSA10>
10.61

>  <SlogP_VSA11>
0

>  <EState_VSA1>
12.32

>  <EState_VSA2>
5.91

>  <EState_VSA3>
34.61

>  <EState_VSA4>
34.89

>  <EState_VSA5>
16.66

>  <EState_VSA6>
28.79

>  <EState_VSA7>
19.18

>  <EState_VSA8>
14.87

>  <EState_VSA9>
16.34

>  <EState_VSA10>
9.59

>  <VSA_EState1>
5.92

>  <VSA_EState2>
41.78

>  <VSA_EState3>
1.14

>  <VSA_EState4>
0.44

>  <VSA_EState5>
1.89

>  <VSA_EState6>
7.11

>  <VSA_EState7>
-1.24

>  <VSA_EState8>
2.78

>  <VSA_EState9>
2.03

>  <apol>
62.62

>  <bpol>
36.38

>  <nRing>
5

>  <nHRing>
5

>  <naRing>
2

>  <naHRing>
2

>  <nARing 2>
3

>  <nAHRing 2>
3

>  <nFRing>
2

>  <nFHRing>
2

>  <nFaRing>
1

>  <nFaHRing>
1

>  <nFARing 2>
1

>  <nFAHRing 2>
1

>  <nRot>
2

>  <SLogP>
3.03

>  <SMR>
123.32

>  <TopoPSA(NO)>
78.87

>  <TopoPSA>
129.47

>  <JGI1>
0.17

>  <JGI2>
0.08

>  <JGI3>
0.05

>  <JGI4>
0.04

>  <JGI5>
0.03

>  <Diameter>
14

>  <Radius>
7

>  <TMWC10>
144.87

>  <TSRW10>
81.94

>  <MW>
477.07

>  <AMW>
9.35

>  <WPath>
2592

>  <WPol>
54

>  <Zagreb1>
172

>  <Zagreb2>
208

>  <mZagreb2>
6.64

>  <yes>


>  <nAR-cont>
0.691115

>  <nHA-cont>
0.702745138

>  <MWHBN>
0.366267963

>  <MWHBN-cont>
0.608325285

>  <TPSA-cont>
0

>  <pka_cont>
0.97

>  <yes.1>


>  <BBB_SCORE>
2.791348065

>  <MMFF94 Energy>
-15.329

$$$$
Compound 1400
Actelion Java MolfileCreator 2.0

  0  0  0  0  0  0              0 V3000
M  V30 BEGIN CTAB
M  V30 COUNTS 42 44 0 0 0
M  V30 BEGIN ATOM
M  V30 1 Cl 6.1936 1.0436 0.6421 0
M  V30 2 C 4.5506 0.5493 0.5093 0
M  V30 3 C 3.6679 1.2854 -0.2762 0
M  V30 4 C 4.1127 -0.5849 1.1887 0
M  V30 5 C 2.3344 0.8834 -0.3824 0
M  V30 6 C 2.7785 -0.9871 1.0829 0
M  V30 7 C 1.8681 -0.2547 0.3004 0
M  V30 8 C 0.4101 -0.7272 0.1806 0 CFG=1
M  V30 9 N -0.5861 0.3753 0.3393 0
M  V30 10 C 0.2453 -1.5234 -1.1219 0
M  V30 11 C -1.9759 -0.1487 0.2752 0
M  V30 12 C -0.4279 1.0526 1.6531 0
M  V30 13 C 0.2799 -2.9283 -1.0918 0
M  V30 14 C 0.0894 -0.8854 -2.3649 0
M  V30 15 C -3.0393 0.9488 0.5108 0
M  V30 16 C -1.4888 2.1523 1.8892 0
M  V30 17 C 0.1512 -3.6704 -2.2677 0
M  V30 18 C -0.0393 -1.6292 -3.5391 0
M  V30 19 N -2.8612 1.6225 1.809 0
M  V30 20 C -0.0088 -3.0208 -3.4898 0
M  V30 21 C -3.8412 2.6928 1.9766 0
M  V30 22 H 4.0077 2.1692 -0.8087 0
M  V30 23 H 4.8031 -1.1619 1.7978 0
M  V30 24 H 1.6509 1.4672 -0.9955 0
M  V30 25 H 2.4541 -1.8799 1.613 0
M  V30 26 H 0.2297 -1.427 1.0107 0
M  V30 27 H -2.1187 -0.9482 1.0153 0
M  V30 28 H -2.1813 -0.5785 -0.7106 0
M  V30 29 H -0.4843 0.3212 2.4712 0
M  V30 30 H 0.5505 1.5395 1.7206 0
M  V30 31 H 0.4106 -3.4554 -0.1496 0
M  V30 32 H 0.0578 0.2003 -2.4187 0
M  V30 33 H -4.0296 0.4785 0.4775 0
M  V30 34 H -2.9938 1.6738 -0.3133 0
M  V30 35 H -1.3388 2.9576 1.1571 0
M  V30 36 H -1.3216 2.581 2.8849 0
M  V30 37 H 0.1796 -4.7562 -2.2304 0
M  V30 38 H -0.1621 -1.1206 -4.4916 0
M  V30 39 H -0.1068 -3.5991 -4.4046 0
M  V30 40 H -3.7528 3.4645 1.2033 0
M  V30 41 H -4.8591 2.2887 1.9449 0
M  V30 42 H -3.7227 3.1711 2.9553 0
M  V30 END ATOM
M  V30 BEGIN BOND
M  V30 1 1 1 2
M  V30 2 2 2 3
M  V30 3 1 2 4
M  V30 4 1 3 5
M  V30 5 2 4 6
M  V30 6 2 5 7
M  V30 7 1 7 8
M  V30 8 1 8 9
M  V30 9 1 8 10
M  V30 10 1 9 11
M  V30 11 1 9 12
M  V30 12 2 10 13
M  V30 13 1 10 14
M  V30 14 1 11 15
M  V30 15 1 12 16
M  V30 16 1 13 17
M  V30 17 2 14 18
M  V30 18 1 15 19
M  V30 19 2 17 20
M  V30 20 1 19 21
M  V30 21 1 6 7
M  V30 22 1 16 19
M  V30 23 1 18 20
M  V30 24 1 3 22
M  V30 25 1 4 23
M  V30 26 1 5 24
M  V30 27 1 6 25
M  V30 28 1 8 26
M  V30 29 1 11 27
M  V30 30 1 11 28
M  V30 31 1 12 29
M  V30 32 1 12 30
M  V30 33 1 13 31
M  V30 34 1 14 32
M  V30 35 1 15 33
M  V30 36 1 15 34
M  V30 37 1 16 35
M  V30 38 1 16 36
M  V30 39 1 17 37
M  V30 40 1 18 38
M  V30 41 1 20 39
M  V30 42 1 21 40
M  V30 43 1 21 41
M  V30 44 1 21 42
M  V30 END BOND
M  V30 BEGIN COLLECTION
M  V30 MDLV30/STERAC1 ATOMS=(1 8)
M  V30 END COLLECTION
M  V30 END CTAB
M  END
>  <Column 1>
1676

>  <level_0>
1832

>  <index>
1832

>  <Unnamed: 0>
1832

>  <NO.>
1844

>  <Name>
chlorcyclizine

>  <IUPAC_name>
1-[(4-chlorophenyl)-phenylmethyl]-4-methylpiperazine

>  <SMILES>
CN1CCN(C(c2ccccc2)c2ccc(Cl)cc2)CC1

>  <CID>
2710

>  <logBB>


>  <BBB+/BBB->
BBB+

>  <Inchi>
InChI=1S/C18H21ClN2/c1-20-11-13-21(14-12-20)18(15-5-3-2-4-6-15)16-7-9-17(19)10-8-16/h2-10-18H-11-14H2-1H3

>  <threshold>
-1

>  <reference>
R1|R19|R6|R27|R27|R30|

>  <group>
B

>  <Class>
1

>  <ABC>
16.36

>  <ABCGG>
13.19

>  <nAcid>
0

>  <nBase>
2

>  <nAromAtom>
12

>  <nAromBond>
12

>  <nAtom>
42

>  <nHeavyAtom>
21

>  <nSpiro>
0

>  <nBridgehead>
0

>  <nHetero>
3

>  <nN>
2

>  <nO>
0

>  <nF>
0

>  <BalabanJ>
1.67

>  <BertzCT>
559.53

>  <nBonds>
44

>  <nBondsO>
23

>  <nBondsS>
32

>  <nBondsD>
0

>  <nBondsT>
0

>  <nBondsA>
12

>  <nBondsM>
12

>  <nBondsKS>
38

>  <nBondsKD>
6

>  <RNCG>
0.24

>  <RPCG>
0.05

>  <FCSP3>
0.33

>  <SZ>
26.67

>  <Sm>
25.05

>  <Sv>
26.3

>  <Sse>
41.41

>  <Sp>
29.01

>  <Si>
47.09

>  <MZ>
0.63

>  <Mm>
0.6

>  <Mv>
0.63

>  <Mse>
0.99

>  <Mp>
0.69

>  <Mi>
1.12

>  <NsCH3>
1

>  <NdCH2>
0

>  <NssCH2>
4

>  <NtCH>
0

>  <NdsCH>
0

>  <NaaCH>
9

>  <NsssCH>
1

>  <NddC>
0

>  <NtsC>
0

>  <NdssC>
0

>  <NaasC>
3

>  <NaaaC>
0

>  <NssssC>
0

>  <NsNH3>
0

>  <NsNH2>
0

>  <NssNH2>
0

>  <NdNH>
0

>  <NssNH>
0

>  <NaaNH>
0

>  <NtN>
0

>  <NsssNH>
0

>  <NdsN>
0

>  <NaaN>
0

>  <NsssN>
2

>  <NddsN>
0

>  <NaasN>
0

>  <NssssN>
0

>  <NsOH>
0

>  <NdO>
0

>  <NssO>
0

>  <NaaO>
0

>  <NsF>
0

>  <NsSiH3>
0

>  <NssSiH2>
0

>  <NsssSiH>
0

>  <NssssSi>
0

>  <NsPH2>
0

>  <NssPH>
0

>  <NsssP>
0

>  <NdsssP>
0

>  <NsssssP>
0

>  <NsSH>
0

>  <NdS>
0

>  <NssS>
0

>  <NaaS>
0

>  <NdssS>
0

>  <NddssS>
0

>  <NsCl>
1

>  <NsBr>
0

>  <NsI>
0

>  <fragCpx>
109.03

>  <fMF>
0.45

>  <nHBAcc>
2

>  <nHBDon>
0

>  <Kier1>
15.88

>  <Kier2>
7.51

>  <Lipinski>
1

>  <GhoseFilter>
1

>  <FilterItLogS>
-4.37

>  <VMcGowan>
238.3

>  <LabuteASA>
131.5

>  <PEOE_VSA1>
4.9

>  <PEOE_VSA2>
4.9

>  <PEOE_VSA3>
0

>  <PEOE_VSA4>
0

>  <PEOE_VSA5>
0

>  <PEOE_VSA6>
54.07

>  <PEOE_VSA7>
30.31

>  <PEOE_VSA8>
31.2

>  <PEOE_VSA9>
6.04

>  <PEOE_VSA10>
0

>  <PEOE_VSA11>
0

>  <PEOE_VSA12>
0

>  <PEOE_VSA13>
0

>  <SMR_VSA1>
0

>  <SMR_VSA2>
0

>  <SMR_VSA3>
9.8

>  <SMR_VSA4>
0

>  <SMR_VSA5>
6.04

>  <SMR_VSA6>
33.23

>  <SMR_VSA7>
70.75

>  <SMR_VSA8>
0

>  <SMR_VSA9>
0

>  <SlogP_VSA1>
0

>  <SlogP_VSA2>
43.03

>  <SlogP_VSA3>
0

>  <SlogP_VSA4>
0

>  <SlogP_VSA5>
17.17

>  <SlogP_VSA6>
54.6

>  <SlogP_VSA7>
5.02

>  <SlogP_VSA8>
0

>  <SlogP_VSA9>
0

>  <SlogP_VSA10>
0

>  <SlogP_VSA11>
0

>  <EState_VSA1>
0

>  <EState_VSA2>
0

>  <EState_VSA3>
6.04

>  <EState_VSA4>
31.2

>  <EState_VSA5>
11.13

>  <EState_VSA6>
0

>  <EState_VSA7>
12.13

>  <EState_VSA8>
59.31

>  <EState_VSA9>
11.6

>  <EState_VSA10>
0

>  <VSA_EState1>
0

>  <VSA_EState2>
4.96

>  <VSA_EState3>
0.8

>  <VSA_EState4>
2.67

>  <VSA_EState5>
0

>  <VSA_EState6>
19.35

>  <VSA_EState7>
0

>  <VSA_EState8>
4.44

>  <VSA_EState9>
2.19

>  <apol>
48.44

>  <bpol>
25

>  <nRing>
3

>  <nHRing>
1

>  <naRing>
2

>  <naHRing>
0

>  <nARing 2>
1

>  <nAHRing 2>
1

>  <nFRing>
0

>  <nFHRing>
0

>  <nFaRing>
0

>  <nFaHRing>
0

>  <nFARing 2>
0

>  <nFAHRing 2>
0

>  <nRot>
3

>  <SLogP>
3.68

>  <SMR>
88.81

>  <TopoPSA(NO)>
6.48

>  <TopoPSA>
6.48

>  <JGI1>
0.15

>  <JGI2>
0.07

>  <JGI3>
0.05

>  <JGI4>
0.03

>  <JGI5>
0.01

>  <Diameter>
10

>  <Radius>
5

>  <TMWC10>
117.17

>  <TSRW10>
54.74

>  <MW>
300.14

>  <AMW>
7.15

>  <WPath>
896

>  <WPol>
31

>  <Zagreb1>
108

>  <Zagreb2>
125

>  <mZagreb2>
4.67

>  <yes>


>  <nAR-cont>
0.816016

>  <nHA-cont>
0.994529749

>  <MWHBN>
0.11544312

>  <MWHBN-cont>
0.809091713

>  <TPSA-cont>
0.954765576

>  <pka_cont>
0.97

>  <yes.1>


>  <BBB_SCORE>
5.418714471

>  <MMFF94 Energy>
114.34

$$$$
Compound 1401
Actelion Java MolfileCreator 2.0

  0  0  0  0  0  0              0 V3000
M  V30 BEGIN CTAB
M  V30 COUNTS 46 49 0 0 0
M  V30 BEGIN ATOM
M  V30 1 Cl -5.1914 -1.1339 -3.5669 0
M  V30 2 C -3.706 -1.5112 -2.784 0
M  V30 3 C -3.0308 -0.5226 -2.0687 0
M  V30 4 C -3.1893 -2.8002 -2.8692 0
M  V30 5 C -1.814 -0.8123 -1.4315 0
M  V30 6 C -1.9861 -3.1053 -2.2319 0
M  V30 7 C -1.3007 -2.1227 -1.4984 0
M  V30 8 C -1.1851 0.2532 -0.6262 0
M  V30 9 C 0.0022 -2.4329 -0.8656 0
M  V30 10 C 0.1237 0.5218 -0.4223 0
M  V30 11 C 1.196 -1.6507 -1.2593 0
M  V30 12 C 0.1423 -3.3374 0.1245 0
M  V30 13 N 0.5389 1.5522 0.4363 0
M  V30 14 C 1.2108 -0.2485 -1.1113 0
M  V30 15 C 2.2775 -2.3095 -1.8734 0
M  V30 16 C -0.9162 -4.1139 0.6695 0
M  V30 17 C 1.6541 1.4078 1.3975 0
M  V30 18 C -0.1538 2.8474 0.5804 0
M  V30 19 C 2.3217 0.4569 -1.6148 0
M  V30 20 C 3.374 -1.5881 -2.3426 0
M  V30 21 N -1.7613 -4.7695 1.1184 0
M  V30 22 C 1.1523 1.6421 2.8431 0
M  V30 23 C -0.6374 3.0478 2.0335 0
M  V30 24 C 3.3936 -0.2037 -2.2191 0
M  V30 25 N 0.4674 2.9443 3.0143 0
M  V30 26 C -0.039 3.0845 4.3777 0
M  V30 27 H -3.4532 0.4779 -2.0119 0
M  V30 28 H -3.7142 -3.5698 -3.429 0
M  V30 29 H -1.5862 -4.1133 -2.3192 0
M  V30 30 H -1.9166 0.8582 -0.0952 0
M  V30 31 H 1.1121 -3.4941 0.5863 0
M  V30 32 H 2.2591 -3.3879 -2.0141 0
M  V30 33 H 2.4382 2.1342 1.1509 0
M  V30 34 H 2.1035 0.4094 1.3505 0
M  V30 35 H -1.0015 2.9377 -0.1078 0
M  V30 36 H 0.5457 3.6495 0.3119 0
M  V30 37 H 2.352 1.5423 -1.5343 0
M  V30 38 H 4.2021 -2.104 -2.8216 0
M  V30 39 H 2.0163 1.5946 3.5167 0
M  V30 40 H 0.4754 0.8213 3.1173 0
M  V30 41 H -1.0973 4.0404 2.1084 0
M  V30 42 H -1.4151 2.3049 2.2564 0
M  V30 43 H 4.238 0.3674 -2.5962 0
M  V30 44 H 0.7842 3.0373 5.099 0
M  V30 45 H -0.767 2.3063 4.6344 0
M  V30 46 H -0.5181 4.061 4.5099 0
M  V30 END ATOM
M  V30 BEGIN BOND
M  V30 1 1 1 2
M  V30 2 2 2 3
M  V30 3 1 2 4
M  V30 4 1 3 5
M  V30 5 2 4 6
M  V30 6 2 5 7
M  V30 7 1 5 8
M  V30 8 1 7 9
M  V30 9 2 8 10
M  V30 10 1 9 11
M  V30 11 2 9 12
M  V30 12 1 10 13
M  V30 13 1 10 14
M  V30 14 1 11 15
M  V30 15 1 12 16
M  V30 16 1 13 17
M  V30 17 1 13 18
M  V30 18 1 14 19
M  V30 19 2 15 20
M  V30 20 3 16 21
M  V30 21 1 17 22
M  V30 22 1 18 23
M  V30 23 2 19 24
M  V30 24 1 22 25
M  V30 25 1 25 26
M  V30 26 1 6 7
M  V30 27 2 11 14
M  V30 28 1 20 24
M  V30 29 1 23 25
M  V30 30 1 3 27
M  V30 31 1 4 28
M  V30 32 1 6 29
M  V30 33 1 8 30
M  V30 34 1 12 31
M  V30 35 1 15 32
M  V30 36 1 17 33
M  V30 37 1 17 34
M  V30 38 1 18 35
M  V30 39 1 18 36
M  V30 40 1 19 37
M  V30 41 1 20 38
M  V30 42 1 22 39
M  V30 43 1 22 40
M  V30 44 1 23 41
M  V30 45 1 23 42
M  V30 46 1 24 43
M  V30 47 1 26 44
M  V30 48 1 26 45
M  V30 49 1 26 46
M  V30 END BOND
M  V30 END CTAB
M  END
>  <Column 1>
1677

>  <level_0>
1833

>  <index>
1833

>  <Unnamed: 0>
1833

>  <NO.>
1845

>  <Name>
schembl11084330

>  <IUPAC_name>
(2e)-2-[6-chloro-10-(4-methylpiperazin-1-yl)-2-tricyclo[9.4.0.03-8]pentadeca-1(15)-3(8)-4-6-9-11-13-heptaenylidene]acetonitrile

>  <SMILES>
CN1CCN(C2=Cc3cc(Cl)ccc3/C(=C\C#N)c3ccccc32)CC1

>  <CID>
6446980

>  <logBB>


>  <BBB+/BBB->
BBB+

>  <Inchi>
InChI=1S/C22H20ClN3/c1-25-10-12-26(13-11-25)22-15-16-14-17(23)6-7-18(16)20(8-9-24)19-4-2-3-5-21(19)22/h2-8-14-15H-10-13H2-1H3/b20-8+

>  <threshold>
-1

>  <reference>
R1|R13|R24|R27|R30|

>  <group>
B

>  <Class>
1

>  <ABC>
20.48

>  <ABCGG>
15.92

>  <nAcid>
0

>  <nBase>
1

>  <nAromAtom>
12

>  <nAromBond>
12

>  <nAtom>
46

>  <nHeavyAtom>
26

>  <nSpiro>
0

>  <nBridgehead>
0

>  <nHetero>
4

>  <nN>
3

>  <nO>
0

>  <nF>
0

>  <BalabanJ>
1.61

>  <BertzCT>
944.1

>  <nBonds>
49

>  <nBondsO>
29

>  <nBondsS>
34

>  <nBondsD>
2

>  <nBondsT>
1

>  <nBondsA>
12

>  <nBondsM>
15

>  <nBondsKS>
40

>  <nBondsKD>
8

>  <RNCG>
0.27

>  <RPCG>
0.07

>  <FCSP3>
0.23

>  <SZ>
31.67

>  <Sm>
30.13

>  <Sv>
30.78

>  <Sse>
45.63

>  <Sp>
33.27

>  <Si>
51.18

>  <MZ>
0.69

>  <Mm>
0.65

>  <Mv>
0.67

>  <Mse>
0.99

>  <Mp>
0.72

>  <Mi>
1.11

>  <NsCH3>
1

>  <NdCH2>
0

>  <NssCH2>
4

>  <NtCH>
0

>  <NdsCH>
2

>  <NaaCH>
7

>  <NsssCH>
0

>  <NddC>
0

>  <NtsC>
1

>  <NdssC>
2

>  <NaasC>
5

>  <NaaaC>
0

>  <NssssC>
0

>  <NsNH3>
0

>  <NsNH2>
0

>  <NssNH2>
0

>  <NdNH>
0

>  <NssNH>
0

>  <NaaNH>
0

>  <NtN>
1

>  <NsssNH>
0

>  <NdsN>
0

>  <NaaN>
0

>  <NsssN>
2

>  <NddsN>
0

>  <NaasN>
0

>  <NssssN>
0

>  <NsOH>
0

>  <NdO>
0

>  <NssO>
0

>  <NaaO>
0

>  <NsF>
0

>  <NsSiH3>
0

>  <NssSiH2>
0

>  <NsssSiH>
0

>  <NssssSi>
0

>  <NsPH2>
0

>  <NssPH>
0

>  <NsssP>
0

>  <NdsssP>
0

>  <NsssssP>
0

>  <NsSH>
0

>  <NdS>
0

>  <NssS>
0

>  <NaaS>
0

>  <NdssS>
0

>  <NddssS>
0

>  <NsCl>
1

>  <NsBr>
0

>  <NsI>
0

>  <fragCpx>
191.04

>  <fMF>
0.46

>  <nHBAcc>
3

>  <nHBDon>
0

>  <Kier1>
19.32

>  <Kier2>
8.57

>  <Lipinski>
1

>  <GhoseFilter>
1

>  <FilterItLogS>
-5.29

>  <VMcGowan>
276.58

>  <LabuteASA>
158.96

>  <PEOE_VSA1>
9.8

>  <PEOE_VSA2>
0

>  <PEOE_VSA3>
0

>  <PEOE_VSA4>
5.26

>  <PEOE_VSA5>
0

>  <PEOE_VSA6>
41.93

>  <PEOE_VSA7>
41.95

>  <PEOE_VSA8>
54.11

>  <PEOE_VSA9>
6.07

>  <PEOE_VSA10>
0

>  <PEOE_VSA11>
0

>  <PEOE_VSA12>
0

>  <PEOE_VSA13>
0

>  <SMR_VSA1>
0

>  <SMR_VSA2>
5.26

>  <SMR_VSA3>
9.8

>  <SMR_VSA4>
0

>  <SMR_VSA5>
0

>  <SMR_VSA6>
33.23

>  <SMR_VSA7>
75.82

>  <SMR_VSA8>
0

>  <SMR_VSA9>
6.07

>  <SlogP_VSA1>
0

>  <SlogP_VSA2>
43.03

>  <SlogP_VSA3>
0

>  <SlogP_VSA4>
11.33

>  <SlogP_VSA5>
22.25

>  <SlogP_VSA6>
48.54

>  <SlogP_VSA7>
5.02

>  <SlogP_VSA8>
17.35

>  <SlogP_VSA9>
0

>  <SlogP_VSA10>
0

>  <SlogP_VSA11>
0

>  <EState_VSA1>
0

>  <EState_VSA2>
0

>  <EState_VSA3>
5.02

>  <EState_VSA4>
48.44

>  <EState_VSA5>
11.26

>  <EState_VSA6>
6.08

>  <EState_VSA7>
24.27

>  <EState_VSA8>
47.19

>  <EState_VSA9>
11.6

>  <EState_VSA10>
5.26

>  <VSA_EState1>
0

>  <VSA_EState2>
4.8

>  <VSA_EState3>
10.08

>  <VSA_EState4>
6.54

>  <VSA_EState5>
0

>  <VSA_EState6>
16.47

>  <VSA_EState7>
3.87

>  <VSA_EState8>
4.07

>  <VSA_EState9>
2.16

>  <apol>
55.56

>  <bpol>
24.56

>  <nRing>
4

>  <nHRing>
1

>  <naRing>
2

>  <naHRing>
0

>  <nARing 2>
2

>  <nAHRing 2>
1

>  <nFRing>
1

>  <nFHRing>
0

>  <nFaRing>
0

>  <nFaHRing>
0

>  <nFARing 2>
1

>  <nFAHRing 2>
0

>  <nRot>
1

>  <SLogP>
4.35

>  <SMR>
107.53

>  <TopoPSA(NO)>
30.27

>  <TopoPSA>
30.27

>  <JGI1>
0.16

>  <JGI2>
0.08

>  <JGI3>
0.04

>  <JGI4>
0.04

>  <JGI5>
0.02

>  <Diameter>
11

>  <Radius>
6

>  <TMWC10>
131.87

>  <TSRW10>
69.44

>  <MW>
361.13

>  <AMW>
7.85

>  <WPath>
1470

>  <WPol>
48

>  <Zagreb1>
140

>  <Zagreb2>
168

>  <mZagreb2>
5.75

>  <yes>


>  <nAR-cont>
1

>  <nHA-cont>
0.892715677

>  <MWHBN>
0.157866315

>  <MWHBN-cont>
0.951290526

>  <TPSA-cont>
0.788696603

>  <pka_cont>
0.97

>  <yes.1>


>  <BBB_SCORE>
5.382044673

>  <MMFF94 Energy>
148.45

$$$$
Compound 1402
Actelion Java MolfileCreator 2.0

  0  0  0  0  0  0              0 V3000
M  V30 BEGIN CTAB
M  V30 COUNTS 42 45 0 0 0
M  V30 BEGIN ATOM
M  V30 1 Cl -0.8065 6.5472 -0.1612 0
M  V30 2 C -1.4331 4.9453 -0.1344 0
M  V30 3 C -0.5709 3.8626 0.0021 0
M  V30 4 C -2.8007 4.7376 -0.2348 0
M  V30 5 C -1.0533 2.5432 0.0257 0
M  V30 6 C -3.2963 3.4337 -0.2102 0
M  V30 7 N -0.0922 1.5777 0.3342 0
M  V30 8 C -2.4373 2.3218 -0.0822 0
M  V30 9 C -0.0885 0.32 -0.0025 0
M  V30 10 N -3.0199 1.0489 -0.1984 0
M  V30 11 N 0.9682 -0.4578 0.4876 0
M  V30 12 C -1.0994 -0.3568 -0.8798 0
M  V30 13 C -2.467 -0.0739 -0.8267 0
M  V30 14 C 2.2328 0.1888 0.8815 0
M  V30 15 C 0.7036 -1.6927 1.2484 0
M  V30 16 C -0.6298 -1.3931 -1.714 0
M  V30 17 C -3.3432 -0.8899 -1.5726 0
M  V30 18 C 3.4065 -0.8115 0.804 0
M  V30 19 C 1.9002 -2.6627 1.1525 0
M  V30 20 C -1.5109 -2.1781 -2.4548 0
M  V30 21 C -2.8743 -1.9352 -2.3712 0
M  V30 22 N 3.1695 -2.0435 1.5887 0
M  V30 23 C 4.2826 -2.9766 1.4353 0
M  V30 24 H 0.4972 4.0288 0.1171 0
M  V30 25 H -3.483 5.5761 -0.3406 0
M  V30 26 H -4.368 3.2848 -0.3187 0
M  V30 27 H -4.0141 1.0086 -0.021 0
M  V30 28 H 2.4581 1.0277 0.212 0
M  V30 29 H 2.1416 0.5858 1.9002 0
M  V30 30 H 0.5193 -1.431 2.2982 0
M  V30 31 H -0.1932 -2.2082 0.8905 0
M  V30 32 H 0.4372 -1.5943 -1.7782 0
M  V30 33 H -4.4122 -0.6877 -1.5645 0
M  V30 34 H 4.3088 -0.3105 1.1746 0
M  V30 35 H 3.582 -1.0657 -0.2501 0
M  V30 36 H 1.6854 -3.535 1.7812 0
M  V30 37 H 1.9871 -3.017 0.1165 0
M  V30 38 H -1.1322 -2.9751 -3.0887 0
M  V30 39 H -3.5736 -2.538 -2.9447 0
M  V30 40 H 5.2148 -2.5228 1.7895 0
M  V30 41 H 4.1177 -3.873 2.0432 0
M  V30 42 H 4.4248 -3.288 0.3942 0
M  V30 END ATOM
M  V30 BEGIN BOND
M  V30 1 1 1 2
M  V30 2 2 2 3
M  V30 3 1 2 4
M  V30 4 1 3 5
M  V30 5 2 4 6
M  V30 6 1 5 7
M  V30 7 2 5 8
M  V30 8 2 7 9
M  V30 9 1 8 10
M  V30 10 1 9 11
M  V30 11 1 9 12
M  V30 12 1 10 13
M  V30 13 1 11 14
M  V30 14 1 11 15
M  V30 15 1 12 16
M  V30 16 1 13 17
M  V30 17 1 14 18
M  V30 18 1 15 19
M  V30 19 2 16 20
M  V30 20 2 17 21
M  V30 21 1 18 22
M  V30 22 1 22 23
M  V30 23 1 6 8
M  V30 24 2 12 13
M  V30 25 1 19 22
M  V30 26 1 20 21
M  V30 27 1 3 24
M  V30 28 1 4 25
M  V30 29 1 6 26
M  V30 30 1 10 27
M  V30 31 1 14 28
M  V30 32 1 14 29
M  V30 33 1 15 30
M  V30 34 1 15 31
M  V30 35 1 16 32
M  V30 36 1 17 33
M  V30 37 1 18 34
M  V30 38 1 18 35
M  V30 39 1 19 36
M  V30 40 1 19 37
M  V30 41 1 20 38
M  V30 42 1 21 39
M  V30 43 1 23 40
M  V30 44 1 23 41
M  V30 45 1 23 42
M  V30 END BOND
M  V30 END CTAB
M  END
>  <Column 1>
1678

>  <level_0>
1834

>  <index>
1834

>  <Unnamed: 0>
1834

>  <NO.>
1846

>  <Name>
oxacillin

>  <IUPAC_name>
3-chloro-6-(4-methylpiperazin-1-yl)-11h-benzo[b][1-4]benzodiazepine

>  <SMILES>
CN1CCN(C2=Nc3cc(Cl)ccc3Nc3ccccc32)CC1

>  <CID>
135398737

>  <logBB>


>  <BBB+/BBB->
BBB+

>  <Inchi>
InChI=1S/C18H19ClN4/c1-22-8-10-23(11-9-22)18-14-4-2-3-5-15(14)20-16-7-6-13(19)12-17(16)21-18/h2-7-12-20H-8-11H2-1H3

>  <threshold>
-1

>  <reference>
R1|R7|R13|R13|R19|R6|R14|R15|R24|R27|R27|R27|R27|R29|R30|R30|R34|R36|R37|R50|

>  <group>
B

>  <Class>
1

>  <ABC>
18.44

>  <ABCGG>
14

>  <nAcid>
0

>  <nBase>
3

>  <nAromAtom>
12

>  <nAromBond>
12

>  <nAtom>
42

>  <nHeavyAtom>
23

>  <nSpiro>
0

>  <nBridgehead>
0

>  <nHetero>
5

>  <nN>
4

>  <nO>
0

>  <nF>
0

>  <BalabanJ>
1.54

>  <BertzCT>
763.37

>  <nBonds>
45

>  <nBondsO>
26

>  <nBondsS>
32

>  <nBondsD>
1

>  <nBondsT>
0

>  <nBondsA>
12

>  <nBondsM>
13

>  <nBondsKS>
38

>  <nBondsKD>
7

>  <RNCG>
0.22

>  <RPCG>
0.1

>  <FCSP3>
0.28

>  <SZ>
28.67

>  <Sm>
27.21

>  <Sv>
27.27

>  <Sse>
41.85

>  <Sp>
29.53

>  <Si>
47.26

>  <MZ>
0.68

>  <Mm>
0.65

>  <Mv>
0.65

>  <Mse>
1

>  <Mp>
0.7

>  <Mi>
1.13

>  <NsCH3>
1

>  <NdCH2>
0

>  <NssCH2>
4

>  <NtCH>
0

>  <NdsCH>
0

>  <NaaCH>
7

>  <NsssCH>
0

>  <NddC>
0

>  <NtsC>
0

>  <NdssC>
1

>  <NaasC>
5

>  <NaaaC>
0

>  <NssssC>
0

>  <NsNH3>
0

>  <NsNH2>
0

>  <NssNH2>
0

>  <NdNH>
0

>  <NssNH>
1

>  <NaaNH>
0

>  <NtN>
0

>  <NsssNH>
0

>  <NdsN>
1

>  <NaaN>
0

>  <NsssN>
2

>  <NddsN>
0

>  <NaasN>
0

>  <NssssN>
0

>  <NsOH>
0

>  <NdO>
0

>  <NssO>
0

>  <NaaO>
0

>  <NsF>
0

>  <NsSiH3>
0

>  <NssSiH2>
0

>  <NsssSiH>
0

>  <NssssSi>
0

>  <NsPH2>
0

>  <NssPH>
0

>  <NsssP>
0

>  <NdsssP>
0

>  <NsssssP>
0

>  <NsSH>
0

>  <NdS>
0

>  <NssS>
0

>  <NaaS>
0

>  <NdssS>
0

>  <NddssS>
0

>  <NsCl>
1

>  <NsBr>
0

>  <NsI>
0

>  <fragCpx>
170.05

>  <fMF>
0.5

>  <nHBAcc>
4

>  <nHBDon>
1

>  <Kier1>
16.47

>  <Kier2>
7.09

>  <Lipinski>
1

>  <GhoseFilter>
1

>  <FilterItLogS>
-4.97

>  <VMcGowan>
243.1

>  <LabuteASA>
140.93

>  <PEOE_VSA1>
15.12

>  <PEOE_VSA2>
0

>  <PEOE_VSA3>
4.99

>  <PEOE_VSA4>
0

>  <PEOE_VSA5>
0

>  <PEOE_VSA6>
23.73

>  <PEOE_VSA7>
37.38

>  <PEOE_VSA8>
42.45

>  <PEOE_VSA9>
11.37

>  <PEOE_VSA10>
5.84

>  <PEOE_VSA11>
0

>  <PEOE_VSA12>
0

>  <PEOE_VSA13>
0

>  <SMR_VSA1>
0

>  <SMR_VSA2>
0

>  <SMR_VSA3>
9.8

>  <SMR_VSA4>
4.99

>  <SMR_VSA5>
0

>  <SMR_VSA6>
38.54

>  <SMR_VSA7>
53.05

>  <SMR_VSA8>
0

>  <SMR_VSA9>
0

>  <SlogP_VSA1>
5.32

>  <SlogP_VSA2>
48.86

>  <SlogP_VSA3>
0

>  <SlogP_VSA4>
0

>  <SlogP_VSA5>
5.56

>  <SlogP_VSA6>
47.46

>  <SlogP_VSA7>
5.02

>  <SlogP_VSA8>
0

>  <SlogP_VSA9>
0

>  <SlogP_VSA10>
17.06

>  <SlogP_VSA11>
0

>  <EState_VSA1>
0

>  <EState_VSA2>
0

>  <EState_VSA3>
5.02

>  <EState_VSA4>
54.64

>  <EState_VSA5>
0

>  <EState_VSA6>
0

>  <EState_VSA7>
24.27

>  <EState_VSA8>
40.36

>  <EState_VSA9>
16.59

>  <EState_VSA10>
0

>  <VSA_EState1>
0

>  <VSA_EState2>
9.69

>  <VSA_EState3>
4.2

>  <VSA_EState4>
4.12

>  <VSA_EState5>
1.03

>  <VSA_EState6>
14.16

>  <VSA_EState7>
0

>  <VSA_EState8>
4.08

>  <VSA_EState9>
2.16

>  <apol>
49.31

>  <bpol>
24.7

>  <nRing>
4

>  <nHRing>
2

>  <naRing>
2

>  <naHRing>
0

>  <nARing 2>
2

>  <nAHRing 2>
2

>  <nFRing>
1

>  <nFHRing>
1

>  <nFaRing>
0

>  <nFaHRing>
0

>  <nFARing 2>
1

>  <nFAHRing 2>
1

>  <nRot>
0

>  <SLogP>
3.72

>  <SMR>
96.44

>  <TopoPSA(NO)>
30.87

>  <TopoPSA>
30.87

>  <JGI1>
0.17

>  <JGI2>
0.07

>  <JGI3>
0.03

>  <JGI4>
0.05

>  <JGI5>
0.02

>  <Diameter>
10

>  <Radius>
5

>  <TMWC10>
124.49

>  <TSRW10>
65.76

>  <MW>
326.13

>  <AMW>
7.77

>  <WPath>
1082

>  <WPol>
41

>  <Zagreb1>
126

>  <Zagreb2>
150

>  <mZagreb2>
4.94

>  <yes>


>  <nAR-cont>
1

>  <nHA-cont>
0.967789328

>  <MWHBN>
0.276869189

>  <MWHBN-cont>
0.903884543

>  <TPSA-cont>
0.784508231

>  <pka_cont>
0.97

>  <yes.1>


>  <BBB_SCORE>
5.377632604

>  <MMFF94 Energy>
129.64

$$$$
Compound 1403
Actelion Java MolfileCreator 2.0

  0  0  0  0  0  0              0 V3000
M  V30 BEGIN CTAB
M  V30 COUNTS 43 46 0 0 0
M  V30 BEGIN ATOM
M  V30 1 F 3.6965 -3.3747 3.1333 0
M  V30 2 C 2.584 -3.1048 2.4373 0
M  V30 3 C 2.42 -1.8487 1.8673 0
M  V30 4 C 1.6159 -4.0891 2.2925 0
M  V30 5 C 1.2644 -1.5484 1.1424 0
M  V30 6 C 0.4619 -3.8108 1.5635 0
M  V30 7 N 1.1985 -0.2869 0.5353 0
M  V30 8 C 0.2833 -2.544 0.9808 0
M  V30 9 C 0.1409 0.483 0.5111 0
M  V30 10 C -0.9823 -2.2192 0.2326 0
M  V30 11 N 0.2395 1.7182 -0.1308 0
M  V30 12 C -1.1779 0.1226 1.1407 0
M  V30 13 C -1.7468 -1.1487 0.9644 0
M  V30 14 C 1.5573 2.2914 -0.4561 0
M  V30 15 C -0.8082 2.2195 -1.0361 0
M  V30 16 C -1.8543 1.0992 1.8851 0
M  V30 17 C -3.0031 -1.4187 1.5277 0
M  V30 18 C 1.927 1.97 -1.9201 0
M  V30 19 C -0.4233 1.9096 -2.5034 0
M  V30 20 C -3.1018 0.8183 2.4412 0
M  V30 21 C -3.6768 -0.4376 2.258 0
M  V30 22 N 0.9007 2.4607 -2.875 0
M  V30 23 C 1.2522 2.0798 -4.2411 0
M  V30 24 H 3.1973 -1.1009 1.9833 0
M  V30 25 H 1.7663 -5.0622 2.7482 0
M  V30 26 H -0.299 -4.5801 1.4578 0
M  V30 27 H -1.6002 -3.1186 0.1197 0
M  V30 28 H -0.7495 -1.8919 -0.7886 0
M  V30 29 H 2.337 1.9288 0.2231 0
M  V30 30 H 1.5136 3.3793 -0.318 0
M  V30 31 H -0.9127 3.3029 -0.8992 0
M  V30 32 H -1.7875 1.778 -0.828 0
M  V30 33 H -1.4048 2.0781 2.0334 0
M  V30 34 H -3.4586 -2.3998 1.4143 0
M  V30 35 H 2.8877 2.4477 -2.1454 0
M  V30 36 H 2.0615 0.886 -2.0309 0
M  V30 37 H -1.1912 2.3398 -3.1572 0
M  V30 38 H -0.4359 0.8211 -2.6502 0
M  V30 39 H -3.6221 1.5774 3.0197 0
M  V30 40 H -4.6473 -0.6583 2.6959 0
M  V30 41 H 1.3135 0.9931 -4.3683 0
M  V30 42 H 0.5119 2.4681 -4.9492 0
M  V30 43 H 2.2171 2.5148 -4.5238 0
M  V30 END ATOM
M  V30 BEGIN BOND
M  V30 1 1 1 2
M  V30 2 2 2 3
M  V30 3 1 2 4
M  V30 4 1 3 5
M  V30 5 2 4 6
M  V30 6 1 5 7
M  V30 7 2 5 8
M  V30 8 2 7 9
M  V30 9 1 8 10
M  V30 10 1 9 11
M  V30 11 1 9 12
M  V30 12 1 10 13
M  V30 13 1 11 14
M  V30 14 1 11 15
M  V30 15 1 12 16
M  V30 16 1 13 17
M  V30 17 1 14 18
M  V30 18 1 15 19
M  V30 19 2 16 20
M  V30 20 2 17 21
M  V30 21 1 18 22
M  V30 22 1 22 23
M  V30 23 1 6 8
M  V30 24 2 12 13
M  V30 25 1 19 22
M  V30 26 1 20 21
M  V30 27 1 3 24
M  V30 28 1 4 25
M  V30 29 1 6 26
M  V30 30 1 10 27
M  V30 31 1 10 28
M  V30 32 1 14 29
M  V30 33 1 14 30
M  V30 34 1 15 31
M  V30 35 1 15 32
M  V30 36 1 16 33
M  V30 37 1 17 34
M  V30 38 1 18 35
M  V30 39 1 18 36
M  V30 40 1 19 37
M  V30 41 1 19 38
M  V30 42 1 20 39
M  V30 43 1 21 40
M  V30 44 1 23 41
M  V30 45 1 23 42
M  V30 46 1 23 43
M  V30 END BOND
M  V30 END CTAB
M  END
>  <Column 1>
1679

>  <level_0>
1835

>  <index>
1835

>  <Unnamed: 0>
1835

>  <NO.>
1847

>  <Name>
fluperlapine

>  <IUPAC_name>
3-fluoro-6-(4-methylpiperazin-1-yl)-11h-benzo[c][1]benzazepine

>  <SMILES>
CN1CCN(C2=Nc3cc(F)ccc3Cc3ccccc32)CC1

>  <CID>
49381

>  <logBB>


>  <BBB+/BBB->
BBB+

>  <Inchi>
InChI=1S/C19H20FN3/c1-22-8-10-23(11-9-22)19-17-5-3-2-4-14(17)12-15-6-7-16(20)13-18(15)21-19/h2-7-13H-8-12H2-1H3

>  <threshold>
-1

>  <reference>
R1|R13|R19|R6|R24|R27|R27|R27|R30|R30|

>  <group>
B

>  <Class>
1

>  <ABC>
18.44

>  <ABCGG>
14

>  <nAcid>
0

>  <nBase>
3

>  <nAromAtom>
12

>  <nAromBond>
12

>  <nAtom>
43

>  <nHeavyAtom>
23

>  <nSpiro>
0

>  <nBridgehead>
0

>  <nHetero>
4

>  <nN>
3

>  <nO>
0

>  <nF>
1

>  <BalabanJ>
1.54

>  <BertzCT>
760.96

>  <nBonds>
46

>  <nBondsO>
26

>  <nBondsS>
33

>  <nBondsD>
1

>  <nBondsT>
0

>  <nBondsA>
12

>  <nBondsM>
13

>  <nBondsKS>
39

>  <nBondsKD>
7

>  <RNCG>
0.24

>  <RPCG>
0.09

>  <FCSP3>
0.32

>  <SZ>
27.33

>  <Sm>
25.76

>  <Sv>
27.34

>  <Sse>
42.82

>  <Sp>
29.3

>  <Si>
48.57

>  <MZ>
0.64

>  <Mm>
0.6

>  <Mv>
0.64

>  <Mse>
1

>  <Mp>
0.68

>  <Mi>
1.13

>  <NsCH3>
1

>  <NdCH2>
0

>  <NssCH2>
5

>  <NtCH>
0

>  <NdsCH>
0

>  <NaaCH>
7

>  <NsssCH>
0

>  <NddC>
0

>  <NtsC>
0

>  <NdssC>
1

>  <NaasC>
5

>  <NaaaC>
0

>  <NssssC>
0

>  <NsNH3>
0

>  <NsNH2>
0

>  <NssNH2>
0

>  <NdNH>
0

>  <NssNH>
0

>  <NaaNH>
0

>  <NtN>
0

>  <NsssNH>
0

>  <NdsN>
1

>  <NaaN>
0

>  <NsssN>
2

>  <NddsN>
0

>  <NaasN>
0

>  <NssssN>
0

>  <NsOH>
0

>  <NdO>
0

>  <NssO>
0

>  <NaaO>
0

>  <NsF>
1

>  <NsSiH3>
0

>  <NssSiH2>
0

>  <NsssSiH>
0

>  <NssssSi>
0

>  <NsPH2>
0

>  <NssPH>
0

>  <NsssP>
0

>  <NdsssP>
0

>  <NsssssP>
0

>  <NsSH>
0

>  <NdS>
0

>  <NssS>
0

>  <NaaS>
0

>  <NdssS>
0

>  <NddssS>
0

>  <NsCl>
0

>  <NsBr>
0

>  <NsI>
0

>  <fragCpx>
170.04

>  <fMF>
0.49

>  <nHBAcc>
3

>  <nHBDon>
0

>  <Kier1>
16.47

>  <Kier2>
7.09

>  <Lipinski>
1

>  <GhoseFilter>
1

>  <FilterItLogS>
-4.87

>  <VMcGowan>
236.73

>  <LabuteASA>
135.61

>  <PEOE_VSA1>
9.8

>  <PEOE_VSA2>
0

>  <PEOE_VSA3>
9.38

>  <PEOE_VSA4>
0

>  <PEOE_VSA5>
0

>  <PEOE_VSA6>
30.33

>  <PEOE_VSA7>
30.31

>  <PEOE_VSA8>
38.16

>  <PEOE_VSA9>
5.69

>  <PEOE_VSA10>
11.65

>  <PEOE_VSA11>
0

>  <PEOE_VSA12>
0

>  <PEOE_VSA13>
0

>  <SMR_VSA1>
4.39

>  <SMR_VSA2>
0

>  <SMR_VSA3>
9.8

>  <SMR_VSA4>
4.99

>  <SMR_VSA5>
6.42

>  <SMR_VSA6>
33.23

>  <SMR_VSA7>
64.97

>  <SMR_VSA8>
0

>  <SMR_VSA9>
0

>  <SlogP_VSA1>
0

>  <SlogP_VSA2>
48.86

>  <SlogP_VSA3>
6.42

>  <SlogP_VSA4>
5.82

>  <SlogP_VSA5>
16.69

>  <SlogP_VSA6>
47.46

>  <SlogP_VSA7>
0

>  <SlogP_VSA8>
0

>  <SlogP_VSA9>
0

>  <SlogP_VSA10>
10.08

>  <SlogP_VSA11>
0

>  <EState_VSA1>
0

>  <EState_VSA2>
5.82

>  <EState_VSA3>
0

>  <EState_VSA4>
49.69

>  <EState_VSA5>
17.19

>  <EState_VSA6>
6.07

>  <EState_VSA7>
6.07

>  <EState_VSA8>
41.11

>  <EState_VSA9>
4.99

>  <EState_VSA10>
4.39

>  <VSA_EState1>
13.69

>  <VSA_EState2>
9.53

>  <VSA_EState3>
0

>  <VSA_EState4>
4.28

>  <VSA_EState5>
0.76

>  <VSA_EState6>
13.34

>  <VSA_EState7>
0.8

>  <VSA_EState8>
3.96

>  <VSA_EState9>
2.14

>  <apol>
48.92

>  <bpol>
25.74

>  <nRing>
4

>  <nHRing>
2

>  <naRing>
2

>  <naHRing>
0

>  <nARing 2>
2

>  <nAHRing 2>
2

>  <nFRing>
1

>  <nFHRing>
1

>  <nFaRing>
0

>  <nFaHRing>
0

>  <nFARing 2>
1

>  <nFAHRing 2>
1

>  <nRot>
0

>  <SLogP>
3.06

>  <SMR>
90.92

>  <TopoPSA(NO)>
18.84

>  <TopoPSA>
18.84

>  <JGI1>
0.17

>  <JGI2>
0.07

>  <JGI3>
0.03

>  <JGI4>
0.05

>  <JGI5>
0.02

>  <Diameter>
10

>  <Radius>
5

>  <TMWC10>
124.49

>  <TSRW10>
65.76

>  <MW>
309.16

>  <AMW>
7.19

>  <WPath>
1082

>  <WPol>
41

>  <Zagreb1>
126

>  <Zagreb2>
150

>  <mZagreb2>
4.94

>  <yes>


>  <nAR-cont>
1

>  <nHA-cont>
0.967789328

>  <MWHBN>
0.170619869

>  <MWHBN-cont>
0.974924726

>  <TPSA-cont>
0.868485101

>  <pka_cont>
0.97

>  <yes.1>


>  <BBB_SCORE>
5.652146619

>  <MMFF94 Energy>
101.82

$$$$
Compound 1404
Actelion Java MolfileCreator 2.0

  0  0  0  0  0  0              0 V3000
M  V30 BEGIN CTAB
M  V30 COUNTS 43 46 0 0 0
M  V30 BEGIN ATOM
M  V30 1 N -0.2397 1.0394 -0.7994 0
M  V30 2 C -0.3092 0.58 0.4235 0
M  V30 3 C -1.128 0.7135 -1.8341 0
M  V30 4 N 0.6521 1.0048 1.3425 0
M  V30 5 C -1.3672 -0.3754 0.907 0
M  V30 6 C -1.5425 -0.5964 -2.124 0
M  V30 7 C -1.5416 1.7529 -2.6743 0
M  V30 8 C 1.4921 2.181 1.0569 0
M  V30 9 C 1.3214 0.0719 2.2646 0
M  V30 10 C -1.7259 -1.5071 0.1576 0
M  V30 11 C -1.9698 -0.1346 2.1499 0
M  V30 12 C -2.377 -0.8395 -3.2279 0
M  V30 13 C -1.1356 -1.7204 -1.2106 0
M  V30 14 C -2.3703 1.5091 -3.7708 0
M  V30 15 C 2.8455 1.7332 0.4642 0
M  V30 16 C 2.6852 -0.3598 1.6726 0
M  V30 17 C -2.679 -2.3962 0.6771 0
M  V30 18 C -2.9167 -1.025 2.655 0
M  V30 19 C -2.7879 0.2111 -4.0473 0
M  V30 20 N 3.5637 0.7924 1.3618 0
M  V30 21 C -3.2666 -2.1567 1.9211 0
M  V30 22 C 4.8045 0.3397 0.7369 0
M  V30 23 H -1.2049 2.7652 -2.4667 0
M  V30 24 H 0.9918 2.8828 0.3798 0
M  V30 25 H 1.6634 2.7289 1.9924 0
M  V30 26 H 1.4753 0.5699 3.23 0
M  V30 27 H 0.7234 -0.8229 2.4618 0
M  V30 28 H -1.7018 0.7507 2.7212 0
M  V30 29 H -2.7163 -1.8482 -3.4497 0
M  V30 30 H -1.4644 -2.6834 -1.6207 0
M  V30 31 H -0.0418 -1.7855 -1.1481 0
M  V30 32 H -2.6825 2.3323 -4.407 0
M  V30 33 H 3.464 2.6246 0.3063 0
M  V30 34 H 2.6768 1.2688 -0.5163 0
M  V30 35 H 3.1846 -1.0097 2.4009 0
M  V30 36 H 2.5055 -0.9548 0.7669 0
M  V30 37 H -2.9816 -3.2727 0.1088 0
M  V30 38 H -3.3833 -0.8334 3.6177 0
M  V30 39 H -3.434 0.0172 -4.8992 0
M  V30 40 H -4.009 -2.8482 2.312 0
M  V30 41 H 5.4649 1.1905 0.5362 0
M  V30 42 H 5.3498 -0.3304 1.4105 0
M  V30 43 H 4.6276 -0.1892 -0.2063 0
M  V30 END ATOM
M  V30 BEGIN BOND
M  V30 1 2 1 2
M  V30 2 1 1 3
M  V30 3 1 2 4
M  V30 4 1 2 5
M  V30 5 2 3 6
M  V30 6 1 3 7
M  V30 7 1 4 8
M  V30 8 1 4 9
M  V30 9 2 5 10
M  V30 10 1 5 11
M  V30 11 1 6 12
M  V30 12 1 6 13
M  V30 13 2 7 14
M  V30 14 1 8 15
M  V30 15 1 9 16
M  V30 16 1 10 17
M  V30 17 2 11 18
M  V30 18 2 12 19
M  V30 19 1 15 20
M  V30 20 2 17 21
M  V30 21 1 20 22
M  V30 22 1 10 13
M  V30 23 1 14 19
M  V30 24 1 16 20
M  V30 25 1 18 21
M  V30 26 1 7 23
M  V30 27 1 8 24
M  V30 28 1 8 25
M  V30 29 1 9 26
M  V30 30 1 9 27
M  V30 31 1 11 28
M  V30 32 1 12 29
M  V30 33 1 13 30
M  V30 34 1 13 31
M  V30 35 1 14 32
M  V30 36 1 15 33
M  V30 37 1 15 34
M  V30 38 1 16 35
M  V30 39 1 16 36
M  V30 40 1 17 37
M  V30 41 1 18 38
M  V30 42 1 19 39
M  V30 43 1 21 40
M  V30 44 1 22 41
M  V30 45 1 22 42
M  V30 46 1 22 43
M  V30 END BOND
M  V30 END CTAB
M  END
>  <Column 1>
1680

>  <level_0>
1836

>  <index>
1836

>  <Unnamed: 0>
1836

>  <NO.>
1848

>  <Name>
perlapine

>  <IUPAC_name>
6-(4-methylpiperazin-1-yl)-11h-benzo[c][1]benzazepine

>  <SMILES>
CN1CCN(C2=Nc3ccccc3Cc3ccccc32)CC1

>  <CID>
16106

>  <logBB>


>  <BBB+/BBB->
BBB+

>  <Inchi>
InChI=1S/C19H21N3/c1-21-10-12-22(13-11-21)19-17-8-4-2-6-15(17)14-16-7-3-5-9-18(16)20-19/h2-9H-10-14H2-1H3

>  <threshold>
-1

>  <reference>
R1|R13|R19|R6|R24|R27|R27|R27|R30|R30|

>  <group>
B

>  <Class>
1

>  <ABC>
17.63

>  <ABCGG>
13.39

>  <nAcid>
0

>  <nBase>
3

>  <nAromAtom>
12

>  <nAromBond>
12

>  <nAtom>
43

>  <nHeavyAtom>
22

>  <nSpiro>
0

>  <nBridgehead>
0

>  <nHetero>
3

>  <nN>
3

>  <nO>
0

>  <nF>
0

>  <BalabanJ>
1.53

>  <BertzCT>
712.13

>  <nBonds>
46

>  <nBondsO>
25

>  <nBondsS>
33

>  <nBondsD>
1

>  <nBondsT>
0

>  <nBondsA>
12

>  <nBondsM>
13

>  <nBondsKS>
39

>  <nBondsKD>
7

>  <RNCG>
0.25

>  <RPCG>
0.1

>  <FCSP3>
0.32

>  <SZ>
26

>  <Sm>
24.26

>  <Sv>
26.96

>  <Sse>
42.31

>  <Sp>
29.36

>  <Si>
48.23

>  <MZ>
0.6

>  <Mm>
0.56

>  <Mv>
0.63

>  <Mse>
0.98

>  <Mp>
0.68

>  <Mi>
1.12

>  <NsCH3>
1

>  <NdCH2>
0

>  <NssCH2>
5

>  <NtCH>
0

>  <NdsCH>
0

>  <NaaCH>
8

>  <NsssCH>
0

>  <NddC>
0

>  <NtsC>
0

>  <NdssC>
1

>  <NaasC>
4

>  <NaaaC>
0

>  <NssssC>
0

>  <NsNH3>
0

>  <NsNH2>
0

>  <NssNH2>
0

>  <NdNH>
0

>  <NssNH>
0

>  <NaaNH>
0

>  <NtN>
0

>  <NsssNH>
0

>  <NdsN>
1

>  <NaaN>
0

>  <NsssN>
2

>  <NddsN>
0

>  <NaasN>
0

>  <NssssN>
0

>  <NsOH>
0

>  <NdO>
0

>  <NssO>
0

>  <NaaO>
0

>  <NsF>
0

>  <NsSiH3>
0

>  <NssSiH2>
0

>  <NsssSiH>
0

>  <NssssSi>
0

>  <NsPH2>
0

>  <NssPH>
0

>  <NsssP>
0

>  <NdsssP>
0

>  <NsssssP>
0

>  <NsSH>
0

>  <NdS>
0

>  <NssS>
0

>  <NaaS>
0

>  <NdssS>
0

>  <NddssS>
0

>  <NsCl>
0

>  <NsBr>
0

>  <NsI>
0

>  <fragCpx>
163.03

>  <fMF>
0.49

>  <nHBAcc>
3

>  <nHBDon>
0

>  <Kier1>
15.52

>  <Kier2>
6.86

>  <Lipinski>
1

>  <GhoseFilter>
1

>  <FilterItLogS>
-4.45

>  <VMcGowan>
234.97

>  <LabuteASA>
131.45

>  <PEOE_VSA1>
9.8

>  <PEOE_VSA2>
0

>  <PEOE_VSA3>
4.99

>  <PEOE_VSA4>
0

>  <PEOE_VSA5>
0

>  <PEOE_VSA6>
42.46

>  <PEOE_VSA7>
24.24

>  <PEOE_VSA8>
38.16

>  <PEOE_VSA9>
5.69

>  <PEOE_VSA10>
5.84

>  <PEOE_VSA11>
0

>  <PEOE_VSA12>
0

>  <PEOE_VSA13>
0

>  <SMR_VSA1>
0

>  <SMR_VSA2>
0

>  <SMR_VSA3>
9.8

>  <SMR_VSA4>
4.99

>  <SMR_VSA5>
6.42

>  <SMR_VSA6>
33.23

>  <SMR_VSA7>
65.22

>  <SMR_VSA8>
0

>  <SMR_VSA9>
0

>  <SlogP_VSA1>
0

>  <SlogP_VSA2>
48.86

>  <SlogP_VSA3>
6.42

>  <SlogP_VSA4>
0

>  <SlogP_VSA5>
16.69

>  <SlogP_VSA6>
53.52

>  <SlogP_VSA7>
0

>  <SlogP_VSA8>
0

>  <SlogP_VSA9>
0

>  <SlogP_VSA10>
5.69

>  <SlogP_VSA11>
0

>  <EState_VSA1>
0

>  <EState_VSA2>
0

>  <EState_VSA3>
0

>  <EState_VSA4>
44.12

>  <EState_VSA5>
16.69

>  <EState_VSA6>
0

>  <EState_VSA7>
0

>  <EState_VSA8>
65.38

>  <EState_VSA9>
4.99

>  <EState_VSA10>
0

>  <VSA_EState1>
0

>  <VSA_EState2>
9.88

>  <VSA_EState3>
0

>  <VSA_EState4>
5.11

>  <VSA_EState5>
1.15

>  <VSA_EState6>
17.24

>  <VSA_EState7>
0.97

>  <VSA_EState8>
4.29

>  <VSA_EState9>
2.19

>  <apol>
49.03

>  <bpol>
25.63

>  <nRing>
4

>  <nHRing>
2

>  <naRing>
2

>  <naHRing>
0

>  <nARing 2>
2

>  <nAHRing 2>
2

>  <nFRing>
1

>  <nFHRing>
1

>  <nFaRing>
0

>  <nFaHRing>
0

>  <nFARing 2>
1

>  <nFAHRing 2>
1

>  <nRot>
0

>  <SLogP>
2.92

>  <SMR>
90.96

>  <TopoPSA(NO)>
18.84

>  <TopoPSA>
18.84

>  <JGI1>
0.14

>  <JGI2>
0.07

>  <JGI3>
0.03

>  <JGI4>
0.04

>  <JGI5>
0.02

>  <Diameter>
10

>  <Radius>
5

>  <TMWC10>
121.98

>  <TSRW10>
64.5

>  <MW>
291.17

>  <AMW>
6.77

>  <WPath>
956

>  <WPol>
39

>  <Zagreb1>
120

>  <Zagreb2>
143

>  <mZagreb2>
4.78

>  <yes>


>  <nAR-cont>
1

>  <nHA-cont>
0.983774276

>  <MWHBN>
0.175811768

>  <MWHBN-cont>
0.982223361

>  <TPSA-cont>
0.868485101

>  <pka_cont>
0.97

>  <yes.1>


>  <BBB_SCORE>
5.67907952

>  <MMFF94 Energy>
109.55

$$$$
Compound 1405
Actelion Java MolfileCreator 2.0

  0  0  0  0  0  0              0 V3000
M  V30 BEGIN CTAB
M  V30 COUNTS 41 44 0 0 0
M  V30 BEGIN ATOM
M  V30 1 Cl 1.7254 0.9857 -4.4413 0
M  V30 2 C 0.4118 0.4617 -3.463 0
M  V30 3 C 0.5097 0.5347 -2.0776 0
M  V30 4 C -0.737 -0.0485 -4.0613 0
M  V30 5 C -0.5569 0.0942 -1.278 0
M  V30 6 C -1.8046 -0.4736 -3.2652 0
M  V30 7 C -0.342 0.0867 0.2035 0
M  V30 8 C -1.7308 -0.3923 -1.8666 0
M  V30 9 N -1.1618 0.6319 1.0599 0
M  V30 10 N 0.8261 -0.5065 0.6887 0
M  V30 11 S -3.1701 -0.8667 -0.9284 0
M  V30 12 C -2.3758 1.2556 0.7324 0
M  V30 13 C 1.3496 -1.7748 0.1502 0
M  V30 14 C 1.2586 -0.256 2.0771 0
M  V30 15 C -3.3958 0.6702 -0.0395 0
M  V30 16 C -2.6262 2.4907 1.346 0
M  V30 17 C 2.8833 -1.8492 0.3051 0
M  V30 18 C 2.7929 -0.3739 2.2078 0
M  V30 19 C -4.6329 1.3208 -0.1757 0
M  V30 20 C -3.8511 3.1432 1.1935 0
M  V30 21 N 3.3197 -1.6606 1.7039 0
M  V30 22 C -4.8576 2.5546 0.4356 0
M  V30 23 C 4.777 -1.6963 1.8022 0
M  V30 24 H 1.4124 0.9199 -1.6098 0
M  V30 25 H -0.8145 -0.1105 -5.1439 0
M  V30 26 H -2.7041 -0.8518 -3.7476 0
M  V30 27 H 1.1049 -1.9071 -0.9078 0
M  V30 28 H 0.8797 -2.6079 0.6882 0
M  V30 29 H 0.765 -0.9714 2.7463 0
M  V30 30 H 0.9748 0.7534 2.3976 0
M  V30 31 H -1.8538 2.9364 1.9684 0
M  V30 32 H 3.2162 -2.8313 -0.0515 0
M  V30 33 H 3.3426 -1.0904 -0.3428 0
M  V30 34 H 3.0559 -0.2608 3.2666 0
M  V30 35 H 3.2564 0.4608 1.6643 0
M  V30 36 H -5.4267 0.8744 -0.7701 0
M  V30 37 H -4.0203 4.0997 1.6811 0
M  V30 38 H -5.817 3.0526 0.3211 0
M  V30 39 H 5.2541 -0.9057 1.2117 0
M  V30 40 H 5.0936 -1.5858 2.8452 0
M  V30 41 H 5.1606 -2.6627 1.4571 0
M  V30 END ATOM
M  V30 BEGIN BOND
M  V30 1 1 1 2
M  V30 2 2 2 3
M  V30 3 1 2 4
M  V30 4 1 3 5
M  V30 5 2 4 6
M  V30 6 1 5 7
M  V30 7 2 5 8
M  V30 8 2 7 9
M  V30 9 1 7 10
M  V30 10 1 8 11
M  V30 11 1 9 12
M  V30 12 1 10 13
M  V30 13 1 10 14
M  V30 14 1 11 15
M  V30 15 1 12 16
M  V30 16 1 13 17
M  V30 17 1 14 18
M  V30 18 1 15 19
M  V30 19 2 16 20
M  V30 20 1 17 21
M  V30 21 2 19 22
M  V30 22 1 21 23
M  V30 23 1 6 8
M  V30 24 2 12 15
M  V30 25 1 18 21
M  V30 26 1 20 22
M  V30 27 1 3 24
M  V30 28 1 4 25
M  V30 29 1 6 26
M  V30 30 1 13 27
M  V30 31 1 13 28
M  V30 32 1 14 29
M  V30 33 1 14 30
M  V30 34 1 16 31
M  V30 35 1 17 32
M  V30 36 1 17 33
M  V30 37 1 18 34
M  V30 38 1 18 35
M  V30 39 1 19 36
M  V30 40 1 20 37
M  V30 41 1 22 38
M  V30 42 1 23 39
M  V30 43 1 23 40
M  V30 44 1 23 41
M  V30 END BOND
M  V30 END CTAB
M  END
>  <Column 1>
1681

>  <level_0>
1837

>  <index>
1837

>  <Unnamed: 0>
1837

>  <NO.>
1849

>  <Name>
clothiapine (clotiapine)

>  <IUPAC_name>
8-chloro-6-(4-methylpiperazin-1-yl)benzo[b][1-4]benzothiazepine

>  <SMILES>
CN1CCN(C2=Nc3ccccc3Sc3ccc(Cl)cc32)CC1

>  <CID>
16351

>  <logBB>


>  <BBB+/BBB->
BBB+

>  <Inchi>
InChI=1S/C18H18ClN3S/c1-21-8-10-22(11-9-21)18-14-12-13(19)6-7-16(14)23-17-5-3-2-4-15(17)20-18/h2-7-12H-8-11H2-1H3

>  <threshold>
-1

>  <reference>
R1|R13|R19|R6|R14|R23|R24|R27|R27|R27|R30|R30|

>  <group>
B

>  <Class>
1

>  <ABC>
18.44

>  <ABCGG>
14.03

>  <nAcid>
0

>  <nBase>
3

>  <nAromAtom>
12

>  <nAromBond>
12

>  <nAtom>
41

>  <nHeavyAtom>
23

>  <nSpiro>
0

>  <nBridgehead>
0

>  <nHetero>
5

>  <nN>
3

>  <nO>
0

>  <nF>
0

>  <BalabanJ>
1.55

>  <BertzCT>
766.61

>  <nBonds>
44

>  <nBondsO>
26

>  <nBondsS>
31

>  <nBondsD>
1

>  <nBondsT>
0

>  <nBondsA>
12

>  <nBondsM>
13

>  <nBondsKS>
37

>  <nBondsKD>
7

>  <RNCG>
0.25

>  <RPCG>
0.1

>  <FCSP3>
0.28

>  <SZ>
30

>  <Sm>
28.63

>  <Sv>
27.43

>  <Sse>
40.82

>  <Sp>
30.2

>  <Si>
45.68

>  <MZ>
0.73

>  <Mm>
0.7

>  <Mv>
0.67

>  <Mse>
1

>  <Mp>
0.74

>  <Mi>
1.11

>  <NsCH3>
1

>  <NdCH2>
0

>  <NssCH2>
4

>  <NtCH>
0

>  <NdsCH>
0

>  <NaaCH>
7

>  <NsssCH>
0

>  <NddC>
0

>  <NtsC>
0

>  <NdssC>
1

>  <NaasC>
5

>  <NaaaC>
0

>  <NssssC>
0

>  <NsNH3>
0

>  <NsNH2>
0

>  <NssNH2>
0

>  <NdNH>
0

>  <NssNH>
0

>  <NaaNH>
0

>  <NtN>
0

>  <NsssNH>
0

>  <NdsN>
1

>  <NaaN>
0

>  <NsssN>
2

>  <NddsN>
0

>  <NaasN>
0

>  <NssssN>
0

>  <NsOH>
0

>  <NdO>
0

>  <NssO>
0

>  <NaaO>
0

>  <NsF>
0

>  <NsSiH3>
0

>  <NssSiH2>
0

>  <NsssSiH>
0

>  <NssssSi>
0

>  <NsPH2>
0

>  <NssPH>
0

>  <NsssP>
0

>  <NdsssP>
0

>  <NsssssP>
0

>  <NsSH>
0

>  <NdS>
0

>  <NssS>
1

>  <NaaS>
0

>  <NdssS>
0

>  <NddssS>
0

>  <NsCl>
1

>  <NsBr>
0

>  <NsI>
0

>  <fragCpx>
170.05

>  <fMF>
0.51

>  <nHBAcc>
4

>  <nHBDon>
0

>  <Kier1>
16.47

>  <Kier2>
7.09

>  <Lipinski>
1

>  <GhoseFilter>
1

>  <FilterItLogS>
-5.02

>  <VMcGowan>
249.47

>  <LabuteASA>
145.51

>  <PEOE_VSA1>
9.8

>  <PEOE_VSA2>
0

>  <PEOE_VSA3>
4.99

>  <PEOE_VSA4>
0

>  <PEOE_VSA5>
0

>  <PEOE_VSA6>
35.5

>  <PEOE_VSA7>
37.38

>  <PEOE_VSA8>
46.56

>  <PEOE_VSA9>
5.69

>  <PEOE_VSA10>
5.84

>  <PEOE_VSA11>
0

>  <PEOE_VSA12>
0

>  <PEOE_VSA13>
0

>  <SMR_VSA1>
0

>  <SMR_VSA2>
0

>  <SMR_VSA3>
9.8

>  <SMR_VSA4>
4.99

>  <SMR_VSA5>
9.79

>  <SMR_VSA6>
33.23

>  <SMR_VSA7>
53.05

>  <SMR_VSA8>
0

>  <SMR_VSA9>
0

>  <SlogP_VSA1>
0

>  <SlogP_VSA2>
48.86

>  <SlogP_VSA3>
0

>  <SlogP_VSA4>
0

>  <SlogP_VSA5>
5.56

>  <SlogP_VSA6>
57.25

>  <SlogP_VSA7>
5.02

>  <SlogP_VSA8>
0

>  <SlogP_VSA9>
0

>  <SlogP_VSA10>
5.69

>  <SlogP_VSA11>
0

>  <EState_VSA1>
0

>  <EState_VSA2>
0

>  <EState_VSA3>
0

>  <EState_VSA4>
48.29

>  <EState_VSA5>
9.79

>  <EState_VSA6>
11.76

>  <EState_VSA7>
18.2

>  <EState_VSA8>
41.11

>  <EState_VSA9>
16.59

>  <EState_VSA10>
0

>  <VSA_EState1>
0

>  <VSA_EState2>
12.17

>  <VSA_EState3>
0.76

>  <VSA_EState4>
2.18

>  <VSA_EState5>
1.05

>  <VSA_EState6>
14.46

>  <VSA_EState7>
0

>  <VSA_EState8>
4.11

>  <VSA_EState9>
2.17

>  <apol>
50.44

>  <bpol>
25.59

>  <nRing>
4

>  <nHRing>
2

>  <naRing>
2

>  <naHRing>
0

>  <nARing 2>
2

>  <nAHRing 2>
2

>  <nFRing>
1

>  <nFHRing>
1

>  <nFaRing>
0

>  <nFaHRing>
0

>  <nFARing 2>
1

>  <nFAHRing 2>
1

>  <nRot>
0

>  <SLogP>
4.13

>  <SMR>
97.28

>  <TopoPSA(NO)>
18.84

>  <TopoPSA>
44.14

>  <JGI1>
0.17

>  <JGI2>
0.07

>  <JGI3>
0.03

>  <JGI4>
0.05

>  <JGI5>
0.02

>  <Diameter>
10

>  <Radius>
5

>  <TMWC10>
124.51

>  <TSRW10>
65.77

>  <MW>
343.09

>  <AMW>
8.37

>  <WPath>
1075

>  <WPol>
41

>  <Zagreb1>
126

>  <Zagreb2>
150

>  <mZagreb2>
4.94

>  <yes>


>  <nAR-cont>
1

>  <nHA-cont>
0.967789328

>  <MWHBN>
0.215951369

>  <MWHBN-cont>
0.997199226

>  <TPSA-cont>
0.691875391

>  <pka_cont>
0.97

>  <yes.1>


>  <BBB_SCORE>
5.332338948

>  <MMFF94 Energy>
115.73

$$$$
Compound 1406
Actelion Java MolfileCreator 2.0

  0  0  0  0  0  0              0 V3000
M  V30 BEGIN CTAB
M  V30 COUNTS 38 41 0 0 0
M  V30 BEGIN ATOM
M  V30 1 S 0.5685 0.4873 3.6591 0
M  V30 2 C -1.1802 0.2605 3.4266 0
M  V30 3 C 1.0769 -0.7675 2.5829 0
M  V30 4 C -1.7865 0.2958 2.1608 0
M  V30 5 C -1.9605 0.0315 4.5728 0
M  V30 6 N 1.8958 -1.7388 2.9261 0
M  V30 7 N 0.7725 -0.7781 1.2402 0
M  V30 8 N -1.1528 0.6215 0.9502 0
M  V30 9 C -3.173 0.0918 2.0823 0
M  V30 10 C -3.335 -0.1793 4.4699 0
M  V30 11 C 2.145 -2.4228 1.7708 0
M  V30 12 C -0.035 0.1176 0.5028 0
M  V30 13 C 1.4892 -1.8432 0.7139 0
M  V30 14 C -3.9429 -0.1521 3.221 0
M  V30 15 N 0.3751 0.4297 -0.7958 0
M  V30 16 C -0.6051 0.9523 -1.7656 0
M  V30 17 C 1.7519 0.8763 -1.0818 0
M  V30 18 C -0.1684 0.6393 -3.2132 0
M  V30 19 C 2.1455 0.55 -2.5377 0
M  V30 20 N 1.1967 1.1184 -3.5168 0
M  V30 21 C 1.5801 0.7586 -4.8802 0
M  V30 22 H -1.4961 0.0046 5.5567 0
M  V30 23 H -3.6599 0.139 1.1107 0
M  V30 24 H -3.9267 -0.3617 5.3633 0
M  V30 25 H 2.7893 -3.2927 1.7591 0
M  V30 26 H 1.4336 -2.0929 -0.3354 0
M  V30 27 H -5.0148 -0.3071 3.1297 0
M  V30 28 H -1.5879 0.4937 -1.6035 0
M  V30 29 H -0.7133 2.0354 -1.6286 0
M  V30 30 H 1.8141 1.9591 -0.9132 0
M  V30 31 H 2.4814 0.4128 -0.4109 0
M  V30 32 H -0.8835 1.1126 -3.8967 0
M  V30 33 H -0.2309 -0.4457 -3.3728 0
M  V30 34 H 3.1474 0.9561 -2.721 0
M  V30 35 H 2.2051 -0.5404 -2.654 0
M  V30 36 H 0.892 1.21 -5.6035 0
M  V30 37 H 1.5846 -0.3256 -5.0389 0
M  V30 38 H 2.5787 1.1449 -5.1119 0
M  V30 END ATOM
M  V30 BEGIN BOND
M  V30 1 1 1 2
M  V30 2 1 1 3
M  V30 3 2 2 4
M  V30 4 1 2 5
M  V30 5 2 3 6
M  V30 6 1 3 7
M  V30 7 1 4 8
M  V30 8 1 4 9
M  V30 9 2 5 10
M  V30 10 1 6 11
M  V30 11 1 7 12
M  V30 12 1 7 13
M  V30 13 2 9 14
M  V30 14 1 12 15
M  V30 15 1 15 16
M  V30 16 1 15 17
M  V30 17 1 16 18
M  V30 18 1 17 19
M  V30 19 1 18 20
M  V30 20 1 20 21
M  V30 21 2 8 12
M  V30 22 1 10 14
M  V30 23 2 11 13
M  V30 24 1 19 20
M  V30 25 1 5 22
M  V30 26 1 9 23
M  V30 27 1 10 24
M  V30 28 1 11 25
M  V30 29 1 13 26
M  V30 30 1 14 27
M  V30 31 1 16 28
M  V30 32 1 16 29
M  V30 33 1 17 30
M  V30 34 1 17 31
M  V30 35 1 18 32
M  V30 36 1 18 33
M  V30 37 1 19 34
M  V30 38 1 19 35
M  V30 39 1 21 36
M  V30 40 1 21 37
M  V30 41 1 21 38
M  V30 END BOND
M  V30 END CTAB
M  END
>  <Column 1>
1682

>  <level_0>
1838

>  <index>
1838

>  <Unnamed: 0>
1838

>  <NO.>
1850

>  <Name>
pentiapine

>  <IUPAC_name>
5-(4-methylpiperazin-1-yl)imidazo[2-1-b][1-3-5]benzothiadiazepine

>  <SMILES>
CN1CCN(C2=Nc3ccccc3Sc3nccn32)CC1

>  <CID>
54742

>  <logBB>


>  <BBB+/BBB->
BBB+

>  <Inchi>
InChI=1S/C15H17N5S/c1-18-8-10-19(11-9-18)14-17-12-4-2-3-5-13(12)21-15-16-6-7-20(14)15/h2-7H-8-11H2-1H3

>  <threshold>
-1

>  <reference>
R1|R13|R19|R6|R24|R27|R27|R27|R30|R30|

>  <group>
B

>  <Class>
1

>  <ABC>
16.92

>  <ABCGG>
13.49

>  <nAcid>
0

>  <nBase>
3

>  <nAromAtom>
11

>  <nAromBond>
11

>  <nAtom>
38

>  <nHeavyAtom>
21

>  <nSpiro>
0

>  <nBridgehead>
0

>  <nHetero>
6

>  <nN>
5

>  <nO>
0

>  <nF>
0

>  <BalabanJ>
1.52

>  <BertzCT>
684.88

>  <nBonds>
41

>  <nBondsO>
24

>  <nBondsS>
29

>  <nBondsD>
1

>  <nBondsT>
0

>  <nBondsA>
11

>  <nBondsM>
12

>  <nBondsKS>
35

>  <nBondsKD>
6

>  <RNCG>
0.21

>  <RPCG>
0.13

>  <FCSP3>
0.33

>  <SZ>
26.33

>  <Sm>
24.93

>  <Sv>
24.58

>  <Sse>
37.94

>  <Sp>
26.82

>  <Si>
42.9

>  <MZ>
0.69

>  <Mm>
0.66

>  <Mv>
0.65

>  <Mse>
1

>  <Mp>
0.71

>  <Mi>
1.13

>  <NsCH3>
1

>  <NdCH2>
0

>  <NssCH2>
4

>  <NtCH>
0

>  <NdsCH>
0

>  <NaaCH>
6

>  <NsssCH>
0

>  <NddC>
0

>  <NtsC>
0

>  <NdssC>
1

>  <NaasC>
3

>  <NaaaC>
0

>  <NssssC>
0

>  <NsNH3>
0

>  <NsNH2>
0

>  <NssNH2>
0

>  <NdNH>
0

>  <NssNH>
0

>  <NaaNH>
0

>  <NtN>
0

>  <NsssNH>
0

>  <NdsN>
1

>  <NaaN>
1

>  <NsssN>
2

>  <NddsN>
0

>  <NaasN>
1

>  <NssssN>
0

>  <NsOH>
0

>  <NdO>
0

>  <NssO>
0

>  <NaaO>
0

>  <NsF>
0

>  <NsSiH3>
0

>  <NssSiH2>
0

>  <NsssSiH>
0

>  <NssssSi>
0

>  <NsPH2>
0

>  <NssPH>
0

>  <NsssP>
0

>  <NdsssP>
0

>  <NsssssP>
0

>  <NsSH>
0

>  <NdS>
0

>  <NssS>
1

>  <NaaS>
0

>  <NdssS>
0

>  <NddssS>
0

>  <NsCl>
0

>  <NsBr>
0

>  <NsI>
0

>  <fragCpx>
156.06

>  <fMF>
0.53

>  <nHBAcc>
6

>  <nHBDon>
0

>  <Kier1>
14.58

>  <Kier2>
6.25

>  <Lipinski>
1

>  <GhoseFilter>
1

>  <FilterItLogS>
-2.59

>  <VMcGowan>
219.22

>  <LabuteASA>
127.84

>  <PEOE_VSA1>
9.8

>  <PEOE_VSA2>
4.57

>  <PEOE_VSA3>
9.98

>  <PEOE_VSA4>
0

>  <PEOE_VSA5>
0

>  <PEOE_VSA6>
12.13

>  <PEOE_VSA7>
30.94

>  <PEOE_VSA8>
43.47

>  <PEOE_VSA9>
5.69

>  <PEOE_VSA10>
0

>  <PEOE_VSA11>
5.16

>  <PEOE_VSA12>
5.96

>  <PEOE_VSA13>
0

>  <SMR_VSA1>
0

>  <SMR_VSA2>
0

>  <SMR_VSA3>
19.35

>  <SMR_VSA4>
4.99

>  <SMR_VSA5>
10.05

>  <SMR_VSA6>
33.23

>  <SMR_VSA7>
36.66

>  <SMR_VSA8>
0

>  <SMR_VSA9>
0

>  <SlogP_VSA1>
0

>  <SlogP_VSA2>
58.54

>  <SlogP_VSA3>
0

>  <SlogP_VSA4>
0

>  <SlogP_VSA5>
0

>  <SlogP_VSA6>
51.7

>  <SlogP_VSA7>
0

>  <SlogP_VSA8>
0

>  <SlogP_VSA9>
0

>  <SlogP_VSA10>
5.69

>  <SlogP_VSA11>
0

>  <EState_VSA1>
0

>  <EState_VSA2>
0

>  <EState_VSA3>
0

>  <EState_VSA4>
47.88

>  <EState_VSA5>
0

>  <EState_VSA6>
11.76

>  <EState_VSA7>
18.46

>  <EState_VSA8>
44.6

>  <EState_VSA9>
4.99

>  <EState_VSA10>
0

>  <VSA_EState1>
2.11

>  <VSA_EState2>
15.28

>  <VSA_EState3>
0.98

>  <VSA_EState4>
1.03

>  <VSA_EState5>
0.99

>  <VSA_EState6>
8.27

>  <VSA_EState7>
3.85

>  <VSA_EState8>
4.13

>  <VSA_EState9>
2.17

>  <apol>
44.79

>  <bpol>
26.92

>  <nRing>
4

>  <nHRing>
3

>  <naRing>
2

>  <naHRing>
1

>  <nARing 2>
2

>  <nAHRing 2>
2

>  <nFRing>
1

>  <nFHRing>
1

>  <nFaRing>
0

>  <nFaHRing>
0

>  <nFARing 2>
1

>  <nFAHRing 2>
1

>  <nRot>
0

>  <SLogP>
2.13

>  <SMR>
84.36

>  <TopoPSA(NO)>
36.66

>  <TopoPSA>
61.96

>  <JGI1>
0.15

>  <JGI2>
0.07

>  <JGI3>
0.03

>  <JGI4>
0.04

>  <JGI5>
0.02

>  <Diameter>
10

>  <Radius>
5

>  <TMWC10>
119.83

>  <TSRW10>
69.17

>  <MW>
299.12

>  <AMW>
7.87

>  <WPath>
847

>  <WPol>
36

>  <Zagreb1>
116

>  <Zagreb2>
139

>  <mZagreb2>
4.53

>  <yes>


>  <nAR-cont>
1

>  <nHA-cont>
0.994529749

>  <MWHBN>
0.34691935

>  <MWHBN-cont>
0.681724186

>  <TPSA-cont>
0.567480725

>  <pka_cont>
0.97

>  <yes.1>


>  <BBB_SCORE>
4.637077479

>  <MMFF94 Energy>
127.54

$$$$
Compound 1407
Actelion Java MolfileCreator 2.0

  0  0  0  0  0  0              0 V3000
M  V30 BEGIN CTAB
M  V30 COUNTS 39 42 0 0 0
M  V30 BEGIN ATOM
M  V30 1 S 4.3039 -2.3986 -1.1574 0
M  V30 2 C 3.4789 -0.9023 -1.2163 0
M  V30 3 C 3.0549 -3.1091 -0.2251 0
M  V30 4 C 2.2892 -0.9365 -0.5255 0
M  V30 5 C 2.0281 -2.2212 0.0365 0
M  V30 6 N 1.4457 0.1812 -0.5489 0
M  V30 7 C 0.8823 -2.5535 0.8407 0
M  V30 8 C 0.7013 0.5102 0.4678 0
M  V30 9 C 0.6613 -1.6345 1.9258 0
M  V30 10 C 0.1076 -3.6182 0.5531 0
M  V30 11 N -0.1131 1.6342 0.4234 0
M  V30 12 C 0.6261 -0.2091 1.746 0
M  V30 13 C 0.5375 -2.0108 3.2478 0
M  V30 14 C -1.0657 -3.976 1.2673 0
M  V30 15 C 0.1868 2.7167 -0.5299 0
M  V30 16 C -1.555 1.564 0.7289 0
M  V30 17 C 0.4987 0.4244 2.9734 0
M  V30 18 S 0.3819 -0.6622 4.2853 0
M  V30 19 N -2.0241 -4.2865 1.8418 0
M  V30 20 C -0.6286 2.5311 -1.828 0
M  V30 21 C -2.3642 1.3912 -0.5789 0
M  V30 22 N -2.0859 2.4621 -1.5631 0
M  V30 23 C -2.8219 2.2259 -2.8035 0
M  V30 24 H 3.8985 -0.0679 -1.7599 0
M  V30 25 H 3.1526 -4.138 0.0939 0
M  V30 26 H 0.344 -4.247 -0.2988 0
M  V30 27 H 0.5474 -3.0065 3.6712 0
M  V30 28 H 1.2582 2.7623 -0.7571 0
M  V30 29 H -0.0715 3.6775 -0.0666 0
M  V30 30 H -1.8582 2.4892 1.2348 0
M  V30 31 H -1.8 0.7381 1.4042 0
M  V30 32 H 0.4597 1.4898 3.1583 0
M  V30 33 H -0.4202 3.3805 -2.4892 0
M  V30 34 H -0.2925 1.6215 -2.3426 0
M  V30 35 H -3.431 1.3988 -0.3255 0
M  V30 36 H -2.1339 0.4083 -1.0119 0
M  V30 37 H -2.5423 1.2793 -3.2798 0
M  V30 38 H -3.9005 2.2096 -2.6117 0
M  V30 39 H -2.6409 3.0375 -3.5169 0
M  V30 END ATOM
M  V30 BEGIN BOND
M  V30 1 1 1 2
M  V30 2 1 1 3
M  V30 3 2 2 4
M  V30 4 2 3 5
M  V30 5 1 4 6
M  V30 6 1 5 7
M  V30 7 2 6 8
M  V30 8 1 7 9
M  V30 9 2 7 10
M  V30 10 1 8 11
M  V30 11 1 8 12
M  V30 12 2 9 13
M  V30 13 1 10 14
M  V30 14 1 11 15
M  V30 15 1 11 16
M  V30 16 2 12 17
M  V30 17 1 13 18
M  V30 18 3 14 19
M  V30 19 1 15 20
M  V30 20 1 16 21
M  V30 21 1 20 22
M  V30 22 1 22 23
M  V30 23 1 4 5
M  V30 24 1 9 12
M  V30 25 1 17 18
M  V30 26 1 21 22
M  V30 27 1 2 24
M  V30 28 1 3 25
M  V30 29 1 10 26
M  V30 30 1 13 27
M  V30 31 1 15 28
M  V30 32 1 15 29
M  V30 33 1 16 30
M  V30 34 1 16 31
M  V30 35 1 17 32
M  V30 36 1 20 33
M  V30 37 1 20 34
M  V30 38 1 21 35
M  V30 39 1 21 36
M  V30 40 1 23 37
M  V30 41 1 23 38
M  V30 42 1 23 39
M  V30 END BOND
M  V30 END CTAB
M  END
>  <Column 1>
1683

>  <level_0>
1839

>  <index>
1839

>  <Unnamed: 0>
1839

>  <NO.>
1851

>  <Name>
tenilapine

>  <IUPAC_name>
(2e)-2-[9-(4-methylpiperazin-1-yl)-5-12-dithia-8-azatricyclo[8.3.0.03-7]trideca-1(13)-3-6-8-10-pentaen-2-ylidene]acetonitrile

>  <SMILES>
CN1CCN(C2=Nc3cscc3/C(=C/C#N)c3cscc32)CC1

>  <CID>
6450478

>  <logBB>


>  <BBB+/BBB->
BBB+

>  <Inchi>
InChI=1S/C17H16N4S2/c1-20-4-6-21(7-5-20)17-15-10-22-8-13(15)12(2-3-18)14-9-23-11-16(14)19-17/h2-8-11H-4-7H2-1H3/b12-2+

>  <threshold>
-1

>  <reference>
R1|R13|R6|R27|R27|R30|R30|

>  <group>
B

>  <Class>
1

>  <ABC>
18.25

>  <ABCGG>
15.56

>  <nAcid>
0

>  <nBase>
3

>  <nAromAtom>
10

>  <nAromBond>
10

>  <nAtom>
39

>  <nHeavyAtom>
23

>  <nSpiro>
0

>  <nBridgehead>
0

>  <nHetero>
6

>  <nN>
4

>  <nO>
0

>  <nF>
0

>  <BalabanJ>
1.57

>  <BertzCT>
828.9

>  <nBonds>
42

>  <nBondsO>
26

>  <nBondsS>
29

>  <nBondsD>
2

>  <nBondsT>
1

>  <nBondsA>
10

>  <nBondsM>
13

>  <nBondsKS>
35

>  <nBondsKD>
6

>  <RNCG>
0.25

>  <RPCG>
0.1

>  <FCSP3>
0.29

>  <SZ>
29.67

>  <Sm>
28.35

>  <Sv>
26.74

>  <Sse>
38.91

>  <Sp>
29.5

>  <Si>
43.33

>  <MZ>
0.76

>  <Mm>
0.73

>  <Mv>
0.69

>  <Mse>
1

>  <Mp>
0.76

>  <Mi>
1.11

>  <NsCH3>
1

>  <NdCH2>
0

>  <NssCH2>
4

>  <NtCH>
0

>  <NdsCH>
1

>  <NaaCH>
4

>  <NsssCH>
0

>  <NddC>
0

>  <NtsC>
1

>  <NdssC>
2

>  <NaasC>
4

>  <NaaaC>
0

>  <NssssC>
0

>  <NsNH3>
0

>  <NsNH2>
0

>  <NssNH2>
0

>  <NdNH>
0

>  <NssNH>
0

>  <NaaNH>
0

>  <NtN>
1

>  <NsssNH>
0

>  <NdsN>
1

>  <NaaN>
0

>  <NsssN>
2

>  <NddsN>
0

>  <NaasN>
0

>  <NssssN>
0

>  <NsOH>
0

>  <NdO>
0

>  <NssO>
0

>  <NaaO>
0

>  <NsF>
0

>  <NsSiH3>
0

>  <NssSiH2>
0

>  <NsssSiH>
0

>  <NssssSi>
0

>  <NsPH2>
0

>  <NssPH>
0

>  <NsssP>
0

>  <NdsssP>
0

>  <NsssssP>
0

>  <NsSH>
0

>  <NdS>
0

>  <NssS>
0

>  <NaaS>
2

>  <NdssS>
0

>  <NddssS>
0

>  <NsCl>
0

>  <NsBr>
0

>  <NsI>
0

>  <fragCpx>
170.06

>  <fMF>
0.49

>  <nHBAcc>
6

>  <nHBDon>
0

>  <Kier1>
16.47

>  <Kier2>
7.09

>  <Lipinski>
1

>  <GhoseFilter>
1

>  <FilterItLogS>
-3.68

>  <VMcGowan>
245.17

>  <LabuteASA>
143.16

>  <PEOE_VSA1>
9.8

>  <PEOE_VSA2>
0

>  <PEOE_VSA3>
4.99

>  <PEOE_VSA4>
16.6

>  <PEOE_VSA5>
11.34

>  <PEOE_VSA6>
0

>  <PEOE_VSA7>
12.43

>  <PEOE_VSA8>
70.66

>  <PEOE_VSA9>
11.76

>  <PEOE_VSA10>
5.84

>  <PEOE_VSA11>
0

>  <PEOE_VSA12>
0

>  <PEOE_VSA13>
0

>  <SMR_VSA1>
0

>  <SMR_VSA2>
5.26

>  <SMR_VSA3>
9.8

>  <SMR_VSA4>
4.99

>  <SMR_VSA5>
0

>  <SMR_VSA6>
33.23

>  <SMR_VSA7>
44.29

>  <SMR_VSA8>
0

>  <SMR_VSA9>
6.07

>  <SlogP_VSA1>
0

>  <SlogP_VSA2>
48.86

>  <SlogP_VSA3>
0

>  <SlogP_VSA4>
11.33

>  <SlogP_VSA5>
16.69

>  <SlogP_VSA6>
32.59

>  <SlogP_VSA7>
0

>  <SlogP_VSA8>
5.57

>  <SlogP_VSA9>
0

>  <SlogP_VSA10>
5.69

>  <SlogP_VSA11>
0

>  <EState_VSA1>
0

>  <EState_VSA2>
0

>  <EState_VSA3>
0

>  <EState_VSA4>
59.97

>  <EState_VSA5>
0

>  <EState_VSA6>
28.75

>  <EState_VSA7>
0

>  <EState_VSA8>
44.44

>  <EState_VSA9>
4.99

>  <EState_VSA10>
5.26

>  <VSA_EState1>
0

>  <VSA_EState2>
9.71

>  <VSA_EState3>
17.67

>  <VSA_EState4>
5.33

>  <VSA_EState5>
1.05

>  <VSA_EState6>
2.2

>  <VSA_EState7>
1.65

>  <VSA_EState8>
4.08

>  <VSA_EState9>
2.16

>  <apol>
49.26

>  <bpol>
26.1

>  <nRing>
4

>  <nHRing>
4

>  <naRing>
2

>  <naHRing>
2

>  <nARing 2>
2

>  <nAHRing 2>
2

>  <nFRing>
1

>  <nFHRing>
1

>  <nFaRing>
0

>  <nFaHRing>
0

>  <nFARing 2>
1

>  <nFAHRing 2>
1

>  <nRot>
0

>  <SLogP>
3.4

>  <SMR>
96.6

>  <TopoPSA(NO)>
42.63

>  <TopoPSA>
99.11

>  <JGI1>
0.13

>  <JGI2>
0.08

>  <JGI3>
0.03

>  <JGI4>
0.03

>  <JGI5>
0.02

>  <Diameter>
11

>  <Radius>
6

>  <TMWC10>
125.17

>  <TSRW10>
73.49

>  <MW>
340.08

>  <AMW>
8.72

>  <WPath>
1069

>  <WPol>
40

>  <Zagreb1>
126

>  <Zagreb2>
153

>  <mZagreb2>
5.08

>  <yes>


>  <nAR-cont>
1

>  <nHA-cont>
0.967789328

>  <MWHBN>
0.325357412

>  <MWHBN-cont>
0.75896389

>  <TPSA-cont>
0.308150656

>  <pka_cont>
0.97

>  <yes.1>


>  <BBB_SCORE>
4.207536476

>  <MMFF94 Energy>
76.491

$$$$
Compound 1408
Actelion Java MolfileCreator 2.0

  0  0  0  0  0  0              0 V3000
M  V30 BEGIN CTAB
M  V30 COUNTS 44 47 0 0 0
M  V30 BEGIN ATOM
M  V30 1 Cl -1.8868 0.738 4.6809 0
M  V30 2 C -2.1159 0.0919 3.1031 0
M  V30 3 C -1.1147 0.2316 2.1438 0
M  V30 4 C -3.3008 -0.5637 2.7902 0
M  V30 5 C -1.2894 -0.2731 0.8382 0
M  V30 6 C -3.473 -1.1017 1.5142 0
M  V30 7 C -2.4656 -0.9808 0.5456 0
M  V30 8 C -0.2089 -0.1048 -0.2347 0 CFG=1
M  V30 9 S -2.7204 -1.7704 -1.0285 0
M  V30 10 N 0.5868 1.1442 -0.0041 0
M  V30 11 C 0.6099 -1.4216 -0.2614 0
M  V30 12 C -1.377 -2.9559 -1.0591 0
M  V30 13 C 1.8521 1.2037 -0.7653 0
M  V30 14 C -0.2246 2.3403 -0.3631 0
M  V30 15 C -0.0384 -2.7375 -0.6796 0
M  V30 16 C -1.7607 -4.2356 -1.5118 0
M  V30 17 C 2.6105 2.541 -0.5776 0
M  V30 18 C 0.5371 3.667 -0.1496 0
M  V30 19 C 0.8551 -3.8361 -0.7282 0
M  V30 20 C -0.8585 -5.2977 -1.5602 0
M  V30 21 N 1.7867 3.71 -0.929 0
M  V30 22 C 0.4523 -5.099 -1.159 0
M  V30 23 C 2.5124 4.9523 -0.6762 0
M  V30 24 H -0.1937 0.7483 2.4068 0
M  V30 25 H -4.0858 -0.6731 3.5334 0
M  V30 26 H -4.3933 -1.6361 1.2871 0
M  V30 27 H -0.6744 0.0136 -1.2215 0
M  V30 28 H 1.4275 -1.2961 -0.9821 0
M  V30 29 H 1.0699 -1.5746 0.7254 0
M  V30 30 H 1.6636 1.0433 -1.8351 0
M  V30 31 H 2.5319 0.4179 -0.4185 0
M  V30 32 H -0.5441 2.2818 -1.4128 0
M  V30 33 H -1.1337 2.3843 0.247 0
M  V30 34 H -2.7881 -4.4228 -1.8216 0
M  V30 35 H 3.5035 2.5189 -1.2141 0
M  V30 36 H 2.9542 2.6102 0.4638 0
M  V30 37 H 0.7399 3.7974 0.9221 0
M  V30 38 H -0.1161 4.4911 -0.4616 0
M  V30 39 H 1.8957 -3.7001 -0.4343 0
M  V30 40 H -1.1851 -6.275 -1.9049 0
M  V30 41 H 1.1647 -5.9191 -1.1879 0
M  V30 42 H 2.7898 5.0665 0.378 0
M  V30 43 H 3.4266 4.9914 -1.2788 0
M  V30 44 H 1.9057 5.8168 -0.9678 0
M  V30 END ATOM
M  V30 BEGIN BOND
M  V30 1 1 1 2
M  V30 2 2 2 3
M  V30 3 1 2 4
M  V30 4 1 3 5
M  V30 5 2 4 6
M  V30 6 2 5 7
M  V30 7 1 5 8
M  V30 8 1 7 9
M  V30 9 1 8 10
M  V30 10 1 8 11
M  V30 11 1 9 12
M  V30 12 1 10 13
M  V30 13 1 10 14
M  V30 14 1 11 15
M  V30 15 1 12 16
M  V30 16 1 13 17
M  V30 17 1 14 18
M  V30 18 1 15 19
M  V30 19 2 16 20
M  V30 20 1 17 21
M  V30 21 2 19 22
M  V30 22 1 21 23
M  V30 23 1 6 7
M  V30 24 2 12 15
M  V30 25 1 18 21
M  V30 26 1 20 22
M  V30 27 1 3 24
M  V30 28 1 4 25
M  V30 29 1 6 26
M  V30 30 1 8 27
M  V30 31 1 11 28
M  V30 32 1 11 29
M  V30 33 1 13 30
M  V30 34 1 13 31
M  V30 35 1 14 32
M  V30 36 1 14 33
M  V30 37 1 16 34
M  V30 38 1 17 35
M  V30 39 1 17 36
M  V30 40 1 18 37
M  V30 41 1 18 38
M  V30 42 1 19 39
M  V30 43 1 20 40
M  V30 44 1 22 41
M  V30 45 1 23 42
M  V30 46 1 23 43
M  V30 47 1 23 44
M  V30 END BOND
M  V30 BEGIN COLLECTION
M  V30 MDLV30/STERAC1 ATOMS=(1 8)
M  V30 END COLLECTION
M  V30 END CTAB
M  END
>  <Column 1>
1684

>  <level_0>
1840

>  <index>
1840

>  <Unnamed: 0>
1840

>  <NO.>
1852

>  <Name>
clorotepine

>  <IUPAC_name>
1-(3-chloro-5-6-dihydrobenzo[b][1]benzothiepin-5-yl)-4-methylpiperazine

>  <SMILES>
CN1CCN(C2Cc3ccccc3Sc3ccc(Cl)cc32)CC1

>  <CID>
1238

>  <logBB>


>  <BBB+/BBB->
BBB+

>  <Inchi>
InChI=1S/C19H21ClN2S/c1-21-8-10-22(11-9-21)17-12-14-4-2-3-5-18(14)23-19-7-6-15(20)13-16(17)19/h2-7-13-17H-8-12H2-1H3

>  <threshold>
-1

>  <reference>
R1|R19|R6|R27|R27|R30|

>  <group>
B

>  <Class>
1

>  <ABC>
18.44

>  <ABCGG>
14.03

>  <nAcid>
0

>  <nBase>
2

>  <nAromAtom>
12

>  <nAromBond>
12

>  <nAtom>
44

>  <nHeavyAtom>
23

>  <nSpiro>
0

>  <nBridgehead>
0

>  <nHetero>
4

>  <nN>
2

>  <nO>
0

>  <nF>
0

>  <BalabanJ>
1.55

>  <BertzCT>
710.27

>  <nBonds>
47

>  <nBondsO>
26

>  <nBondsS>
35

>  <nBondsD>
0

>  <nBondsT>
0

>  <nBondsA>
12

>  <nBondsM>
12

>  <nBondsKS>
41

>  <nBondsKD>
6

>  <RNCG>
0.25

>  <RPCG>
0.05

>  <FCSP3>
0.37

>  <SZ>
30.33

>  <Sm>
28.72

>  <Sv>
28.48

>  <Sse>
43.49

>  <Sp>
31.74

>  <Si>
49.01

>  <MZ>
0.69

>  <Mm>
0.65

>  <Mv>
0.65

>  <Mse>
0.99

>  <Mp>
0.72

>  <Mi>
1.11

>  <NsCH3>
1

>  <NdCH2>
0

>  <NssCH2>
5

>  <NtCH>
0

>  <NdsCH>
0

>  <NaaCH>
7

>  <NsssCH>
1

>  <NddC>
0

>  <NtsC>
0

>  <NdssC>
0

>  <NaasC>
5

>  <NaaaC>
0

>  <NssssC>
0

>  <NsNH3>
0

>  <NsNH2>
0

>  <NssNH2>
0

>  <NdNH>
0

>  <NssNH>
0

>  <NaaNH>
0

>  <NtN>
0

>  <NsssNH>
0

>  <NdsN>
0

>  <NaaN>
0

>  <NsssN>
2

>  <NddsN>
0

>  <NaasN>
0

>  <NssssN>
0

>  <NsOH>
0

>  <NdO>
0

>  <NssO>
0

>  <NaaO>
0

>  <NsF>
0

>  <NsSiH3>
0

>  <NssSiH2>
0

>  <NsssSiH>
0

>  <NssssSi>
0

>  <NsPH2>
0

>  <NssPH>
0

>  <NsssP>
0

>  <NdsssP>
0

>  <NsssssP>
0

>  <NsSH>
0

>  <NdS>
0

>  <NssS>
1

>  <NaaS>
0

>  <NdssS>
0

>  <NddssS>
0

>  <NsCl>
1

>  <NsBr>
0

>  <NsI>
0

>  <fragCpx>
170.04

>  <fMF>
0.48

>  <nHBAcc>
3

>  <nHBDon>
0

>  <Kier1>
16.47

>  <Kier2>
7.09

>  <Lipinski>
1

>  <GhoseFilter>
1

>  <FilterItLogS>
-5.03

>  <VMcGowan>
257.88

>  <LabuteASA>
146.98

>  <PEOE_VSA1>
4.9

>  <PEOE_VSA2>
4.9

>  <PEOE_VSA3>
0

>  <PEOE_VSA4>
0

>  <PEOE_VSA5>
0

>  <PEOE_VSA6>
41.56

>  <PEOE_VSA7>
48.86

>  <PEOE_VSA8>
47.03

>  <PEOE_VSA9>
0

>  <PEOE_VSA10>
0

>  <PEOE_VSA11>
0

>  <PEOE_VSA12>
0

>  <PEOE_VSA13>
0

>  <SMR_VSA1>
0

>  <SMR_VSA2>
0

>  <SMR_VSA3>
9.8

>  <SMR_VSA4>
0

>  <SMR_VSA5>
22.25

>  <SMR_VSA6>
33.23

>  <SMR_VSA7>
58.61

>  <SMR_VSA8>
0

>  <SMR_VSA9>
0

>  <SlogP_VSA1>
0

>  <SlogP_VSA2>
43.03

>  <SlogP_VSA3>
6.42

>  <SlogP_VSA4>
0

>  <SlogP_VSA5>
17.17

>  <SlogP_VSA6>
52.26

>  <SlogP_VSA7>
5.02

>  <SlogP_VSA8>
0

>  <SlogP_VSA9>
0

>  <SlogP_VSA10>
0

>  <SlogP_VSA11>
0

>  <EState_VSA1>
0

>  <EState_VSA2>
0

>  <EState_VSA3>
6.04

>  <EState_VSA4>
37.62

>  <EState_VSA5>
20.92

>  <EState_VSA6>
0

>  <EState_VSA7>
17.83

>  <EState_VSA8>
53.25

>  <EState_VSA9>
11.6

>  <EState_VSA10>
0

>  <VSA_EState1>
0

>  <VSA_EState2>
7.78

>  <VSA_EState3>
0.84

>  <VSA_EState4>
2.84

>  <VSA_EState5>
0

>  <VSA_EState6>
15.62

>  <VSA_EState7>
1.07

>  <VSA_EState8>
4.53

>  <VSA_EState9>
2.21

>  <apol>
53.01

>  <bpol>
27.46

>  <nRing>
4

>  <nHRing>
2

>  <naRing>
2

>  <naHRing>
0

>  <nARing 2>
2

>  <nAHRing 2>
2

>  <nFRing>
1

>  <nFHRing>
1

>  <nFaRing>
0

>  <nFaHRing>
0

>  <nFARing 2>
1

>  <nFAHRing 2>
1

>  <nRot>
1

>  <SLogP>
4.34

>  <SMR>
97.53

>  <TopoPSA(NO)>
6.48

>  <TopoPSA>
31.78

>  <JGI1>
0.17

>  <JGI2>
0.07

>  <JGI3>
0.03

>  <JGI4>
0.05

>  <JGI5>
0.02

>  <Diameter>
10

>  <Radius>
5

>  <TMWC10>
124.51

>  <TSRW10>
65.77

>  <MW>
344.11

>  <AMW>
7.82

>  <WPath>
1075

>  <WPol>
41

>  <Zagreb1>
126

>  <Zagreb2>
150

>  <mZagreb2>
4.94

>  <yes>


>  <nAR-cont>
1

>  <nHA-cont>
0.967789328

>  <MWHBN>
0.161723305

>  <MWHBN-cont>
0.959311409

>  <TPSA-cont>
0.778155866

>  <pka_cont>
0.97

>  <yes.1>


>  <BBB_SCORE>
5.448068174

>  <MMFF94 Energy>
130.19

$$$$
Compound 1409
Actelion Java MolfileCreator 2.0

  0  0  0  0  0  0              0 V3000
M  V30 BEGIN CTAB
M  V30 COUNTS 70 74 0 0 0
M  V30 BEGIN ATOM
M  V30 1 O 1.8502 5.6391 4.2674 0
M  V30 2 C 1.1197 4.7629 3.8222 0
M  V30 3 C 0.0215 5.0778 2.8867 0
M  V30 4 C 1.3071 3.348 4.1926 0
M  V30 5 C -0.7861 4.1225 2.3928 0
M  V30 6 C 0.503 2.3954 3.7028 0
M  V30 7 C -0.6618 2.6319 2.7464 0 CFG=2
M  V30 8 C -1.8568 4.4716 1.3913 0
M  V30 9 C -0.4249 1.854 1.3944 0 CFG=1
M  V30 10 C -1.9382 2.2096 3.5085 0
M  V30 11 C -1.6344 3.7037 0.0939 0
M  V30 12 C -0.1806 0.3208 1.5262 0 CFG=1
M  V30 13 C -1.5214 2.1847 0.3224 0 CFG=1
M  V30 14 O -1.231 -0.307 2.2467 0
M  V30 15 C 0.0179 -0.3884 0.1673 0
M  V30 16 C -1.1606 1.4697 -0.9884 0 CFG=1
M  V30 17 C -1.0876 -0.072 -0.863 0 CFG=1
M  V30 18 C -2.0487 1.6847 -2.2097 0
M  V30 19 C -0.768 -0.4389 -2.3535 0 CFG=1
M  V30 20 C -2.4344 -0.6999 -0.4161 0
M  V30 21 C -1.6794 0.5281 -3.1597 0
M  V30 22 O 0.5804 -0.0583 -2.6634 0
M  V30 23 C -1.052 -1.9076 -2.7849 0
M  V30 24 O -2.1719 -2.4217 -2.7116 0
M  V30 25 C 0.1152 -2.7064 -3.3594 0
M  V30 26 N 1.1696 -2.871 -2.3343 0
M  V30 27 C 0.7722 -3.9075 -1.3473 0
M  V30 28 C 2.4298 -3.3099 -2.9795 0
M  V30 29 C 1.8855 -4.1753 -0.308 0
M  V30 30 C 3.5496 -3.5779 -1.9476 0
M  V30 31 N 3.1489 -4.5835 -0.9472 0
M  V30 32 C 4.2001 -4.7748 0.0489 0
M  V30 33 H -0.0715 6.1238 2.6174 0
M  V30 34 H 2.1118 3.1335 4.8849 0
M  V30 35 H 0.6671 1.3739 4.0393 0
M  V30 36 H -1.8621 5.5462 1.171 0
M  V30 37 H -2.8452 4.2401 1.8042 0
M  V30 38 H 0.5193 2.248 0.9804 0
M  V30 39 H -1.8243 1.2425 4.01 0
M  V30 40 H -2.184 2.9332 4.2973 0
M  V30 41 H -2.8143 2.1378 2.857 0
M  V30 42 H -2.4656 3.9195 -0.5877 0
M  V30 43 H -0.7229 4.0744 -0.3937 0
M  V30 44 H 0.7332 0.1557 2.1081 0
M  V30 45 H -2.4975 1.8365 0.6747 0
M  V30 46 H -1.0311 -1.2568 2.3099 0
M  V30 47 H 0.0707 -1.4713 0.3227 0
M  V30 48 H 0.9956 -0.0753 -0.2175 0
M  V30 49 H -0.1636 1.8465 -1.2702 0
M  V30 50 H -1.8673 2.6552 -2.6831 0
M  V30 51 H -3.1115 1.6394 -1.9464 0
M  V30 52 H -2.3102 -1.7681 -0.2054 0
M  V30 53 H -3.2158 -0.6034 -1.1767 0
M  V30 54 H -2.845 -0.247 0.4878 0
M  V30 55 H -1.158 0.9212 -4.0406 0
M  V30 56 H -2.5981 0.0466 -3.5134 0
M  V30 57 H 1.1627 -0.7462 -2.2784 0
M  V30 58 H 0.4847 -2.1451 -4.2265 0
M  V30 59 H -0.2487 -3.671 -3.7338 0
M  V30 60 H -0.1258 -3.585 -0.8084 0
M  V30 61 H 0.525 -4.8501 -1.8548 0
M  V30 62 H 2.7777 -2.5261 -3.6633 0
M  V30 63 H 2.2631 -4.2169 -3.5766 0
M  V30 64 H 1.5422 -4.9702 0.365 0
M  V30 65 H 2.0335 -3.2722 0.2995 0
M  V30 66 H 3.8185 -2.6317 -1.4583 0
M  V30 67 H 4.4364 -3.9313 -2.4875 0
M  V30 68 H 4.4182 -3.8558 0.6051 0
M  V30 69 H 3.9119 -5.5512 0.7663 0
M  V30 70 H 5.1248 -5.1155 -0.4296 0
M  V30 END ATOM
M  V30 BEGIN BOND
M  V30 1 2 1 2
M  V30 2 1 2 3
M  V30 3 1 2 4
M  V30 4 2 3 5
M  V30 5 2 4 6
M  V30 6 1 5 7
M  V30 7 1 5 8
M  V30 8 1 7 9
M  V30 9 1 7 10
M  V30 10 1 8 11
M  V30 11 1 9 12
M  V30 12 1 9 13
M  V30 13 1 12 14
M  V30 14 1 12 15
M  V30 15 1 13 16
M  V30 16 1 15 17
M  V30 17 1 16 18
M  V30 18 1 17 19
M  V30 19 1 17 20
M  V30 20 1 18 21
M  V30 21 1 19 22
M  V30 22 1 19 23
M  V30 23 2 23 24
M  V30 24 1 23 25
M  V30 25 1 25 26
M  V30 26 1 26 27
M  V30 27 1 26 28
M  V30 28 1 27 29
M  V30 29 1 28 30
M  V30 30 1 29 31
M  V30 31 1 31 32
M  V30 32 1 6 7
M  V30 33 1 11 13
M  V30 34 1 16 17
M  V30 35 1 19 21
M  V30 36 1 30 31
M  V30 37 1 3 33
M  V30 38 1 4 34
M  V30 39 1 6 35
M  V30 40 1 8 36
M  V30 41 1 8 37
M  V30 42 1 9 38
M  V30 43 1 10 39
M  V30 44 1 10 40
M  V30 45 1 10 41
M  V30 46 1 11 42
M  V30 47 1 11 43
M  V30 48 1 12 44
M  V30 49 1 13 45
M  V30 50 1 14 46
M  V30 51 1 15 47
M  V30 52 1 15 48
M  V30 53 1 16 49
M  V30 54 1 18 50
M  V30 55 1 18 51
M  V30 56 1 20 52
M  V30 57 1 20 53
M  V30 58 1 20 54
M  V30 59 1 21 55
M  V30 60 1 21 56
M  V30 61 1 22 57
M  V30 62 1 25 58
M  V30 63 1 25 59
M  V30 64 1 27 60
M  V30 65 1 27 61
M  V30 66 1 28 62
M  V30 67 1 28 63
M  V30 68 1 29 64
M  V30 69 1 29 65
M  V30 70 1 30 66
M  V30 71 1 30 67
M  V30 72 1 32 68
M  V30 73 1 32 69
M  V30 74 1 32 70
M  V30 END BOND
M  V30 BEGIN COLLECTION
M  V30 MDLV30/STEABS ATOMS=(7 7 9 12 13 16 17 19)
M  V30 END COLLECTION
M  V30 END CTAB
M  END
>  <Column 1>
1685

>  <level_0>
1841

>  <index>
1841

>  <Unnamed: 0>
1841

>  <NO.>
1853

>  <Name>
mazipredone

>  <IUPAC_name>
(8s-9s-10r-11s-13s-14s-17r)-11-17-dihydroxy-10-13-dimethyl-17-[2-(4-methylpiperazin-1-yl)acetyl]-7-8-9-11-12-14-15-16-octahydro-6h-cyclopenta[a]phenanthren-3-one

>  <SMILES>
CN1CCN(CC(=O)[C@@]2(O)CC[C@H]3[C@@H]4CCC5=CC(=O)C=C[C@]5(C)[C@H]4[C@@H](O)C[C@@]32C)CC1

>  <CID>
6064

>  <logBB>


>  <BBB+/BBB->
BBB+

>  <Inchi>
InChI=1S/C26H38N2O4/c1-24-8-6-18(29)14-17(24)4-5-19-20-7-9-26(32-25(20-2)15-21(30)23(19)24)22(31)16-28-12-10-27(3)11-13-28/h6-8-14-19-21-23-30-32H-4-5-7-9-13-15-16H2-1-3H3/t19--20--21--23+-24--25--26-/m0/s1

>  <threshold>
-1

>  <reference>
R1|R6|R27|R30|

>  <group>
B

>  <Class>
1

>  <ABC>
25.91

>  <ABCGG>
19.9

>  <nAcid>
0

>  <nBase>
2

>  <nAromAtom>
0

>  <nAromBond>
0

>  <nAtom>
70

>  <nHeavyAtom>
32

>  <nSpiro>
0

>  <nBridgehead>
0

>  <nHetero>
6

>  <nN>
2

>  <nO>
4

>  <nF>
0

>  <BalabanJ>
1.36

>  <BertzCT>
875.05

>  <nBonds>
74

>  <nBondsO>
36

>  <nBondsS>
70

>  <nBondsD>
4

>  <nBondsT>
0

>  <nBondsA>
0

>  <nBondsM>
4

>  <nBondsKS>
70

>  <nBondsKD>
4

>  <RNCG>
0.16

>  <RPCG>
0.09

>  <FCSP3>
0.77

>  <SZ>
40

>  <Sm>
36.85

>  <Sv>
40.67

>  <Sse>
69.52

>  <Sp>
44.41

>  <Si>
79.31

>  <MZ>
0.57

>  <Mm>
0.53

>  <Mv>
0.58

>  <Mse>
0.99

>  <Mp>
0.63

>  <Mi>
1.13

>  <NsCH3>
3

>  <NdCH2>
0

>  <NssCH2>
10

>  <NtCH>
0

>  <NdsCH>
3

>  <NaaCH>
0

>  <NsssCH>
4

>  <NddC>
0

>  <NtsC>
0

>  <NdssC>
3

>  <NaasC>
0

>  <NaaaC>
0

>  <NssssC>
3

>  <NsNH3>
0

>  <NsNH2>
0

>  <NssNH2>
0

>  <NdNH>
0

>  <NssNH>
0

>  <NaaNH>
0

>  <NtN>
0

>  <NsssNH>
0

>  <NdsN>
0

>  <NaaN>
0

>  <NsssN>
2

>  <NddsN>
0

>  <NaasN>
0

>  <NssssN>
0

>  <NsOH>
2

>  <NdO>
2

>  <NssO>
0

>  <NaaO>
0

>  <NsF>
0

>  <NsSiH3>
0

>  <NssSiH2>
0

>  <NsssSiH>
0

>  <NssssSi>
0

>  <NsPH2>
0

>  <NssPH>
0

>  <NsssP>
0

>  <NdsssP>
0

>  <NsssssP>
0

>  <NsSH>
0

>  <NdS>
0

>  <NssS>
0

>  <NaaS>
0

>  <NdssS>
0

>  <NddssS>
0

>  <NsCl>
0

>  <NsBr>
0

>  <NsI>
0

>  <fragCpx>
304.06

>  <fMF>
0.36

>  <nHBAcc>
6

>  <nHBDon>
2

>  <Kier1>
23.73

>  <Kier2>
8.29

>  <Lipinski>
1

>  <GhoseFilter>
1

>  <FilterItLogS>
-2.84

>  <VMcGowan>
349.14

>  <LabuteASA>
190.89

>  <PEOE_VSA1>
15.11

>  <PEOE_VSA2>
14.49

>  <PEOE_VSA3>
0

>  <PEOE_VSA4>
0

>  <PEOE_VSA5>
0

>  <PEOE_VSA6>
25.5

>  <PEOE_VSA7>
63.14

>  <PEOE_VSA8>
42.93

>  <PEOE_VSA9>
12.65

>  <PEOE_VSA10>
5.6

>  <PEOE_VSA11>
11.57

>  <PEOE_VSA12>
0

>  <PEOE_VSA13>
0

>  <SMR_VSA1>
19.8

>  <SMR_VSA2>
0

>  <SMR_VSA3>
9.8

>  <SMR_VSA4>
28.58

>  <SMR_VSA5>
57.66

>  <SMR_VSA6>
39.77

>  <SMR_VSA7>
23.8

>  <SMR_VSA8>
0

>  <SMR_VSA9>
0

>  <SlogP_VSA1>
0

>  <SlogP_VSA2>
83.06

>  <SlogP_VSA3>
9.59

>  <SlogP_VSA4>
28.58

>  <SlogP_VSA5>
45.95

>  <SlogP_VSA6>
23.8

>  <SlogP_VSA7>
0

>  <SlogP_VSA8>
0

>  <SlogP_VSA9>
0

>  <SlogP_VSA10>
0

>  <SlogP_VSA11>
0

>  <EState_VSA1>
17.12

>  <EState_VSA2>
34.74

>  <EState_VSA3>
19.39

>  <EState_VSA4>
51.01

>  <EState_VSA5>
0

>  <EState_VSA6>
12.15

>  <EState_VSA7>
6.08

>  <EState_VSA8>
30.69

>  <EState_VSA9>
0

>  <EState_VSA10>
19.8

>  <VSA_EState1>
0

>  <VSA_EState2>
29.93

>  <VSA_EState3>
23.34

>  <VSA_EState4>
-1.17

>  <VSA_EState5>
0.45

>  <VSA_EState6>
0

>  <VSA_EState7>
8.33

>  <VSA_EState8>
8.1

>  <VSA_EState9>
2.1

>  <apol>
74.17

>  <bpol>
43.28

>  <nRing>
5

>  <nHRing>
1

>  <naRing>
0

>  <naHRing>
0

>  <nARing 2>
5

>  <nAHRing 2>
1

>  <nFRing>
1

>  <nFHRing>
0

>  <nFaRing>
0

>  <nFaHRing>
0

>  <nFARing 2>
1

>  <nFAHRing 2>
0

>  <nRot>
3

>  <SLogP>
1.81

>  <SMR>
121.9

>  <TopoPSA(NO)>
81.08

>  <TopoPSA>
81.08

>  <JGI1>
0.28

>  <JGI2>
0.13

>  <JGI3>
0.07

>  <JGI4>
0.06

>  <JGI5>
0.03

>  <Diameter>
16

>  <Radius>
8

>  <TMWC10>
149.42

>  <TSRW10>
84.01

>  <MW>
442.28

>  <AMW>
6.32

>  <WPath>
2752

>  <WPol>
68

>  <Zagreb1>
188

>  <Zagreb2>
237

>  <mZagreb2>
6.6

>  <yes>


>  <nAR-cont>
0

>  <nHA-cont>
0.658856097

>  <MWHBN>
0.380400725

>  <MWHBN-cont>
0.553232654

>  <TPSA-cont>
0.434011252

>  <pka_cont>
0.97

>  <yes.1>


>  <BBB_SCORE>
2.841727583

>  <MMFF94 Energy>
212.06

$$$$
Compound 1410
Actelion Java MolfileCreator 2.0

  0  0  0  0  0  0              0 V3000
M  V30 BEGIN CTAB
M  V30 COUNTS 59 62 0 0 0
M  V30 BEGIN ATOM
M  V30 1 S -1.1403 4.1588 0.2442 0
M  V30 2 O -1.4635 5.1207 1.2764 0
M  V30 3 O -2.1014 3.1621 -0.1792 0
M  V30 4 N -0.6444 5.0165 -1.1539 0
M  V30 5 C 0.3509 3.3369 0.7447 0
M  V30 6 C -0.247 4.1666 -2.2993 0
M  V30 7 C -1.6181 6.0546 -1.5636 0
M  V30 8 C 0.4448 1.9453 0.6703 0
M  V30 9 C 1.4154 4.1029 1.2247 0
M  V30 10 C 1.6316 1.3051 1.0608 0
M  V30 11 C 2.5872 3.4676 1.6373 0
M  V30 12 C 2.6984 2.0709 1.5736 0
M  V30 13 C 1.7947 -0.1704 0.9531 0
M  V30 14 S 4.2143 1.3221 2.1725 0
M  V30 15 C 2.5057 -0.9079 2.0267 0
M  V30 16 C 1.4871 -0.7242 -0.2433 0
M  V30 17 C 3.6532 -0.3274 2.6006 0
M  V30 18 C 2.0395 -2.1286 2.5343 0
M  V30 19 C 1.696 -2.1354 -0.7394 0
M  V30 20 C 4.3709 -1.0245 3.5828 0
M  V30 21 C 2.7505 -2.8093 3.5248 0
M  V30 22 C 0.6916 -2.5483 -1.8401 0
M  V30 23 C 3.9249 -2.2658 4.0365 0
M  V30 24 N -0.7267 -2.3519 -1.4951 0
M  V30 25 C -1.5816 -2.5862 -2.6785 0
M  V30 26 C -1.1662 -3.2446 -0.4034 0
M  V30 27 C -3.0863 -2.431 -2.3605 0
M  V30 28 C -2.6734 -3.0936 -0.0887 0
M  V30 29 N -3.518 -3.3317 -1.2747 0
M  V30 30 C -4.9274 -3.1166 -0.9556 0
M  V30 31 H 0.5467 3.471 -2.0168 0
M  V30 32 H -1.1016 3.6086 -2.6932 0
M  V30 33 H 0.1542 4.7951 -3.1014 0
M  V30 34 H -1.7753 6.7744 -0.7551 0
M  V30 35 H -2.5743 5.6055 -1.8487 0
M  V30 36 H -1.2278 6.6154 -2.4192 0
M  V30 37 H -0.3988 1.3588 0.3102 0
M  V30 38 H 1.3318 5.1861 1.2883 0
M  V30 39 H 3.4072 4.0684 2.0252 0
M  V30 40 H 1.076 -0.0769 -1.0193 0
M  V30 41 H 1.1086 -2.555 2.1717 0
M  V30 42 H 1.6576 -2.8728 0.0628 0
M  V30 43 H 2.7028 -2.1934 -1.1715 0
M  V30 44 H 5.268 -0.5924 4.0203 0
M  V30 45 H 2.3825 -3.7611 3.8997 0
M  V30 46 H 0.9215 -1.943 -2.7277 0
M  V30 47 H 0.8828 -3.5924 -2.1205 0
M  V30 48 H 4.4804 -2.7942 4.807 0
M  V30 49 H -1.3253 -1.8627 -3.462 0
M  V30 50 H -1.4032 -3.5896 -3.0884 0
M  V30 51 H -0.6171 -3.0127 0.5146 0
M  V30 52 H -0.9557 -4.2924 -0.6561 0
M  V30 53 H -3.6542 -2.6585 -3.2707 0
M  V30 54 H -3.2911 -1.3835 -2.1 0
M  V30 55 H -2.8536 -2.0897 0.3198 0
M  V30 56 H -2.9333 -3.8161 0.6945 0
M  V30 57 H -5.1282 -2.0925 -0.6204 0
M  V30 58 H -5.5538 -3.3213 -1.8308 0
M  V30 59 H -5.2515 -3.806 -0.1682 0
M  V30 END ATOM
M  V30 BEGIN BOND
M  V30 1 2 1 2
M  V30 2 2 1 3
M  V30 3 1 1 4
M  V30 4 1 1 5
M  V30 5 1 4 6
M  V30 6 1 4 7
M  V30 7 2 5 8
M  V30 8 1 5 9
M  V30 9 1 8 10
M  V30 10 2 9 11
M  V30 11 2 10 12
M  V30 12 1 10 13
M  V30 13 1 12 14
M  V30 14 1 13 15
M  V30 15 2 13 16
M  V30 16 1 14 17
M  V30 17 1 15 18
M  V30 18 1 16 19
M  V30 19 1 17 20
M  V30 20 2 18 21
M  V30 21 1 19 22
M  V30 22 2 20 23
M  V30 23 1 22 24
M  V30 24 1 24 25
M  V30 25 1 24 26
M  V30 26 1 25 27
M  V30 27 1 26 28
M  V30 28 1 27 29
M  V30 29 1 29 30
M  V30 30 1 11 12
M  V30 31 2 15 17
M  V30 32 1 21 23
M  V30 33 1 28 29
M  V30 34 1 6 31
M  V30 35 1 6 32
M  V30 36 1 6 33
M  V30 37 1 7 34
M  V30 38 1 7 35
M  V30 39 1 7 36
M  V30 40 1 8 37
M  V30 41 1 9 38
M  V30 42 1 11 39
M  V30 43 1 16 40
M  V30 44 1 18 41
M  V30 45 1 19 42
M  V30 46 1 19 43
M  V30 47 1 20 44
M  V30 48 1 21 45
M  V30 49 1 22 46
M  V30 50 1 22 47
M  V30 51 1 23 48
M  V30 52 1 25 49
M  V30 53 1 25 50
M  V30 54 1 26 51
M  V30 55 1 26 52
M  V30 56 1 27 53
M  V30 57 1 27 54
M  V30 58 1 28 55
M  V30 59 1 28 56
M  V30 60 1 30 57
M  V30 61 1 30 58
M  V30 62 1 30 59
M  V30 END BOND
M  V30 END CTAB
M  END
>  <Column 1>
1686

>  <level_0>
1842

>  <index>
1842

>  <Unnamed: 0>
1842

>  <NO.>
1854

>  <Name>
trans-thiothixene

>  <IUPAC_name>
(9e)-n-n-dimethyl-9-[3-(4-methylpiperazin-1-yl)propylidene]thioxanthene-2-sulfonamide

>  <SMILES>
CN1CCN(CC/C=C2\c3ccccc3Sc3ccc(S(=O)(=O)N(C)C)cc32)CC1

>  <CID>
941650

>  <logBB>


>  <BBB+/BBB->
BBB+

>  <Inchi>
InChI=1S/C23H29N3O2S2/c1-24(2)30(27-28)18-10-11-23-21(17-18)19(20-7-4-5-9-22(20)29-23)8-6-12-26-15-13-25(3)14-16-26/h4-5-7-11-17H-6-12-16H2-1-3H3/b19-8+

>  <threshold>
-1

>  <reference>
R1|R13|R14|R24|R27|R30|

>  <group>
B

>  <Class>
1

>  <ABC>
23.7

>  <ABCGG>
17.74

>  <nAcid>
0

>  <nBase>
2

>  <nAromAtom>
12

>  <nAromBond>
12

>  <nAtom>
59

>  <nHeavyAtom>
30

>  <nSpiro>
0

>  <nBridgehead>
0

>  <nHetero>
7

>  <nN>
3

>  <nO>
2

>  <nF>
0

>  <BalabanJ>
1.41

>  <BertzCT>
1055.87

>  <nBonds>
62

>  <nBondsO>
33

>  <nBondsS>
47

>  <nBondsD>
3

>  <nBondsT>
0

>  <nBondsA>
12

>  <nBondsM>
15

>  <nBondsKS>
53

>  <nBondsKD>
9

>  <RNCG>
0.17

>  <RPCG>
0.14

>  <FCSP3>
0.39

>  <SZ>
39.33

>  <Sm>
36.93

>  <Sv>
36.93

>  <Sse>
58.68

>  <Sp>
40.99

>  <Si>
66.15

>  <MZ>
0.67

>  <Mm>
0.63

>  <Mv>
0.63

>  <Mse>
0.99

>  <Mp>
0.69

>  <Mi>
1.12

>  <NsCH3>
3

>  <NdCH2>
0

>  <NssCH2>
6

>  <NtCH>
0

>  <NdsCH>
1

>  <NaaCH>
7

>  <NsssCH>
0

>  <NddC>
0

>  <NtsC>
0

>  <NdssC>
1

>  <NaasC>
5

>  <NaaaC>
0

>  <NssssC>
0

>  <NsNH3>
0

>  <NsNH2>
0

>  <NssNH2>
0

>  <NdNH>
0

>  <NssNH>
0

>  <NaaNH>
0

>  <NtN>
0

>  <NsssNH>
0

>  <NdsN>
0

>  <NaaN>
0

>  <NsssN>
3

>  <NddsN>
0

>  <NaasN>
0

>  <NssssN>
0

>  <NsOH>
0

>  <NdO>
2

>  <NssO>
0

>  <NaaO>
0

>  <NsF>
0

>  <NsSiH3>
0

>  <NssSiH2>
0

>  <NsssSiH>
0

>  <NssssSi>
0

>  <NsPH2>
0

>  <NssPH>
0

>  <NsssP>
0

>  <NdsssP>
0

>  <NsssssP>
0

>  <NsSH>
0

>  <NdS>
0

>  <NssS>
1

>  <NaaS>
0

>  <NdssS>
0

>  <NddssS>
1

>  <NsCl>
0

>  <NsBr>
0

>  <NsI>
0

>  <fragCpx>
219.07

>  <fMF>
0.39

>  <nHBAcc>
5

>  <nHBDon>
0

>  <Kier1>
23.17

>  <Kier2>
9.87

>  <Lipinski>
1

>  <GhoseFilter>
1

>  <FilterItLogS>
-5.16

>  <VMcGowan>
335.77

>  <LabuteASA>
183.96

>  <PEOE_VSA1>
9.8

>  <PEOE_VSA2>
0

>  <PEOE_VSA3>
12.72

>  <PEOE_VSA4>
0

>  <PEOE_VSA5>
0

>  <PEOE_VSA6>
36.04

>  <PEOE_VSA7>
54.43

>  <PEOE_VSA8>
56.61

>  <PEOE_VSA9>
4.9

>  <PEOE_VSA10>
0

>  <PEOE_VSA11>
0

>  <PEOE_VSA12>
10.02

>  <PEOE_VSA13>
0

>  <SMR_VSA1>
8.42

>  <SMR_VSA2>
0

>  <SMR_VSA3>
14.11

>  <SMR_VSA4>
0

>  <SMR_VSA5>
21.11

>  <SMR_VSA6>
53.87

>  <SMR_VSA7>
59.67

>  <SMR_VSA8>
0

>  <SMR_VSA9>
0

>  <SlogP_VSA1>
0

>  <SlogP_VSA2>
76.39

>  <SlogP_VSA3>
10.02

>  <SlogP_VSA4>
0

>  <SlogP_VSA5>
17.55

>  <SlogP_VSA6>
63.23

>  <SlogP_VSA7>
0

>  <SlogP_VSA8>
5.57

>  <SlogP_VSA9>
0

>  <SlogP_VSA10>
0

>  <SlogP_VSA11>
0

>  <EState_VSA1>
10.02

>  <EState_VSA2>
0

>  <EState_VSA3>
4.9

>  <EState_VSA4>
55.18

>  <EState_VSA5>
14.76

>  <EState_VSA6>
31.92

>  <EState_VSA7>
12.13

>  <EState_VSA8>
47.19

>  <EState_VSA9>
0

>  <EState_VSA10>
8.42

>  <VSA_EState1>
26.69

>  <VSA_EState2>
7.55

>  <VSA_EState3>
0

>  <VSA_EState4>
3.34

>  <VSA_EState5>
0

>  <VSA_EState6>
13.9

>  <VSA_EState7>
3.24

>  <VSA_EState8>
5.47

>  <VSA_EState9>
1.85

>  <apol>
68.45

>  <bpol>
43.34

>  <nRing>
4

>  <nHRing>
2

>  <naRing>
2

>  <naHRing>
0

>  <nARing 2>
2

>  <nAHRing 2>
2

>  <nFRing>
1

>  <nFHRing>
1

>  <nFaRing>
0

>  <nFaHRing>
0

>  <nFARing 2>
1

>  <nFAHRing 2>
1

>  <nRot>
5

>  <SLogP>
3.47

>  <SMR>
123.51

>  <TopoPSA(NO)>
43.86

>  <TopoPSA>
77.54

>  <JGI1>
0.21

>  <JGI2>
0.09

>  <JGI3>
0.04

>  <JGI4>
0.04

>  <JGI5>
0.03

>  <Diameter>
14

>  <Radius>
7

>  <TMWC10>
140.85

>  <TSRW10>
66.12

>  <MW>
443.17

>  <AMW>
7.51

>  <WPath>
2491

>  <WPol>
52

>  <Zagreb1>
162

>  <Zagreb2>
193

>  <mZagreb2>
6.44

>  <yes>


>  <nAR-cont>
1

>  <nHA-cont>
0.74523694

>  <MWHBN>
0.237511601

>  <MWHBN-cont>
0.978231119

>  <TPSA-cont>
0.458722651

>  <pka_cont>
0.97

>  <yes.1>


>  <BBB_SCORE>
4.61502892

>  <MMFF94 Energy>
103.09

$$$$
Compound 1411
Actelion Java MolfileCreator 2.0

  0  0  0  0  0  0              0 V3000
M  V30 BEGIN CTAB
M  V30 COUNTS 51 54 0 0 0
M  V30 BEGIN ATOM
M  V30 1 S -1.4699 1.4699 4.2509 0
M  V30 2 C -1.1308 0.1634 3.0849 0
M  V30 3 C 0.1265 2.2743 4.2257 0
M  V30 4 C -0.1286 0.2977 2.1104 0
M  V30 5 C -1.845 -1.0354 3.1873 0
M  V30 6 C 0.9715 2.1924 3.103 0
M  V30 7 C 0.5424 2.9777 5.3628 0
M  V30 8 N 0.5269 1.5471 1.9075 0
M  V30 9 C 0.2153 -0.8127 1.3252 0
M  V30 10 C -1.5387 -2.1137 2.3536 0
M  V30 11 C 2.2391 2.7886 3.156 0
M  V30 12 C 1.8027 3.5755 5.3986 0
M  V30 13 C 0.5451 2.2495 0.693 0
M  V30 14 C -0.4938 -2.0197 1.4243 0
M  V30 15 C 2.6521 3.4754 4.2993 0
M  V30 16 O 1.162 3.3068 0.5198 0
M  V30 17 C -0.2553 1.6978 -0.4752 0
M  V30 18 C -0.1678 -3.1855 0.5217 0
M  V30 19 C 0.6881 1.0672 -1.5019 0
M  V30 20 F 1.0325 -3.0688 -0.1115 0
M  V30 21 F -0.1138 -4.367 1.1987 0
M  V30 22 F -1.0963 -3.3615 -0.4579 0
M  V30 23 N 0.094 -0.121 -2.1379 0
M  V30 24 C -1.0371 0.2309 -3.0245 0
M  V30 25 C 1.1105 -0.8457 -2.9325 0
M  V30 26 C -1.6256 -1.0086 -3.7384 0
M  V30 27 C 0.5239 -2.084 -3.6476 0
M  V30 28 N -0.6091 -1.7327 -4.5244 0
M  V30 29 C -1.1825 -2.9313 -5.1313 0
M  V30 30 H -2.6341 -1.1446 3.9289 0
M  V30 31 H -0.1061 3.055 6.2323 0
M  V30 32 H 1.0348 -0.7425 0.6135 0
M  V30 33 H -2.108 -3.0382 2.4459 0
M  V30 34 H 2.9086 2.7379 2.3007 0
M  V30 35 H 2.1221 4.1178 6.2851 0
M  V30 36 H 3.6332 3.9434 4.324 0
M  V30 37 H -0.7951 2.5358 -0.9346 0
M  V30 38 H -1.0353 1.0114 -0.1372 0
M  V30 39 H 0.9699 1.8158 -2.2543 0
M  V30 40 H 1.6222 0.7744 -1.006 0
M  V30 41 H -1.8421 0.6912 -2.4404 0
M  V30 42 H -0.7205 0.9638 -3.7788 0
M  V30 43 H 1.9141 -1.188 -2.2691 0
M  V30 44 H 1.5626 -0.1782 -3.6784 0
M  V30 45 H -2.4289 -0.6707 -4.4042 0
M  V30 46 H -2.0788 -1.6707 -2.9879 0
M  V30 47 H 0.2156 -2.8201 -2.8929 0
M  V30 48 H 1.3198 -2.5433 -4.246 0
M  V30 49 H -1.5659 -3.6349 -4.3835 0
M  V30 50 H -2.0039 -2.664 -5.8053 0
M  V30 51 H -0.4325 -3.4494 -5.7388 0
M  V30 END ATOM
M  V30 BEGIN BOND
M  V30 1 1 1 2
M  V30 2 1 1 3
M  V30 3 2 2 4
M  V30 4 1 2 5
M  V30 5 2 3 6
M  V30 6 1 3 7
M  V30 7 1 4 8
M  V30 8 1 4 9
M  V30 9 2 5 10
M  V30 10 1 6 11
M  V30 11 2 7 12
M  V30 12 1 8 13
M  V30 13 2 9 14
M  V30 14 2 11 15
M  V30 15 2 13 16
M  V30 16 1 13 17
M  V30 17 1 14 18
M  V30 18 1 17 19
M  V30 19 1 18 20
M  V30 20 1 18 21
M  V30 21 1 18 22
M  V30 22 1 19 23
M  V30 23 1 23 24
M  V30 24 1 23 25
M  V30 25 1 24 26
M  V30 26 1 25 27
M  V30 27 1 26 28
M  V30 28 1 28 29
M  V30 29 1 6 8
M  V30 30 1 10 14
M  V30 31 1 12 15
M  V30 32 1 27 28
M  V30 33 1 5 30
M  V30 34 1 7 31
M  V30 35 1 9 32
M  V30 36 1 10 33
M  V30 37 1 11 34
M  V30 38 1 12 35
M  V30 39 1 15 36
M  V30 40 1 17 37
M  V30 41 1 17 38
M  V30 42 1 19 39
M  V30 43 1 19 40
M  V30 44 1 24 41
M  V30 45 1 24 42
M  V30 46 1 25 43
M  V30 47 1 25 44
M  V30 48 1 26 45
M  V30 49 1 26 46
M  V30 50 1 27 47
M  V30 51 1 27 48
M  V30 52 1 29 49
M  V30 53 1 29 50
M  V30 54 1 29 51
M  V30 END BOND
M  V30 END CTAB
M  END
>  <Column 1>
1687

>  <level_0>
1843

>  <index>
1843

>  <Unnamed: 0>
1843

>  <NO.>
1855

>  <Name>
ftormetazine

>  <IUPAC_name>
3-(4-methylpiperazin-1-yl)-1-[2-(trifluoromethyl)phenothiazin-10-yl]propan-1-one

>  <SMILES>
CN1CCN(CCC(=O)N2c3ccccc3Sc3ccc(C(F)(F)F)cc32)CC1

>  <CID>
969494

>  <logBB>


>  <BBB+/BBB->
BBB+

>  <Inchi>
InChI=1S/C21H22F3N3OS/c1-25-10-12-26(13-11-25)9-8-20(28)27-16-4-2-3-5-18(16)29-19-7-6-15(14-17(19)27)21(22-23)24/h2-7-14H-8-13H2-1H3

>  <threshold>
-1

>  <reference>
R1|R13|R19|R6|R24|R27|R27|R27|R30|R30|

>  <group>
B

>  <Class>
1

>  <ABC>
23.06

>  <ABCGG>
17.4

>  <nAcid>
0

>  <nBase>
2

>  <nAromAtom>
12

>  <nAromBond>
12

>  <nAtom>
51

>  <nHeavyAtom>
29

>  <nSpiro>
0

>  <nBridgehead>
0

>  <nHetero>
8

>  <nN>
3

>  <nO>
1

>  <nF>
3

>  <BalabanJ>
1.45

>  <BertzCT>
910.28

>  <nBonds>
54

>  <nBondsO>
32

>  <nBondsS>
41

>  <nBondsD>
1

>  <nBondsT>
0

>  <nBondsA>
12

>  <nBondsM>
13

>  <nBondsKS>
47

>  <nBondsKD>
7

>  <RNCG>
0.15

>  <RPCG>
0.2

>  <FCSP3>
0.38

>  <SZ>
36.67

>  <Sm>
35.09

>  <Sv>
33.08

>  <Sse>
52.03

>  <Sp>
34.98

>  <Si>
58.21

>  <MZ>
0.72

>  <Mm>
0.69

>  <Mv>
0.65

>  <Mse>
1.02

>  <Mp>
0.69

>  <Mi>
1.14

>  <NsCH3>
1

>  <NdCH2>
0

>  <NssCH2>
6

>  <NtCH>
0

>  <NdsCH>
0

>  <NaaCH>
7

>  <NsssCH>
0

>  <NddC>
0

>  <NtsC>
0

>  <NdssC>
1

>  <NaasC>
5

>  <NaaaC>
0

>  <NssssC>
1

>  <NsNH3>
0

>  <NsNH2>
0

>  <NssNH2>
0

>  <NdNH>
0

>  <NssNH>
0

>  <NaaNH>
0

>  <NtN>
0

>  <NsssNH>
0

>  <NdsN>
0

>  <NaaN>
0

>  <NsssN>
3

>  <NddsN>
0

>  <NaasN>
0

>  <NssssN>
0

>  <NsOH>
0

>  <NdO>
1

>  <NssO>
0

>  <NaaO>
0

>  <NsF>
3

>  <NsSiH3>
0

>  <NssSiH2>
0

>  <NsssSiH>
0

>  <NssssSi>
0

>  <NsPH2>
0

>  <NssPH>
0

>  <NsssP>
0

>  <NdsssP>
0

>  <NsssssP>
0

>  <NsSH>
0

>  <NdS>
0

>  <NssS>
1

>  <NaaS>
0

>  <NdssS>
0

>  <NddssS>
0

>  <NsCl>
0

>  <NsBr>
0

>  <NsI>
0

>  <fragCpx>
212.08

>  <fMF>
0.45

>  <nHBAcc>
4

>  <nHBDon>
0

>  <Kier1>
22.2

>  <Kier2>
9.24

>  <Lipinski>
1

>  <GhoseFilter>
1

>  <FilterItLogS>
-5.01

>  <VMcGowan>
290.65

>  <LabuteASA>
171.82

>  <PEOE_VSA1>
9.8

>  <PEOE_VSA2>
9.69

>  <PEOE_VSA3>
0

>  <PEOE_VSA4>
13.17

>  <PEOE_VSA5>
0

>  <PEOE_VSA6>
23.89

>  <PEOE_VSA7>
37.38

>  <PEOE_VSA8>
48.94

>  <PEOE_VSA9>
16.94

>  <PEOE_VSA10>
0

>  <PEOE_VSA11>
0

>  <PEOE_VSA12>
5.91

>  <PEOE_VSA13>
0

>  <SMR_VSA1>
17.97

>  <SMR_VSA2>
0

>  <SMR_VSA3>
9.8

>  <SMR_VSA4>
0

>  <SMR_VSA5>
22.39

>  <SMR_VSA6>
44.67

>  <SMR_VSA7>
48.03

>  <SMR_VSA8>
0

>  <SMR_VSA9>
0

>  <SlogP_VSA1>
4.9

>  <SlogP_VSA2>
55.48

>  <SlogP_VSA3>
10.97

>  <SlogP_VSA4>
0

>  <SlogP_VSA5>
11.98

>  <SlogP_VSA6>
52.26

>  <SlogP_VSA7>
0

>  <SlogP_VSA8>
0

>  <SlogP_VSA9>
0

>  <SlogP_VSA10>
24.55

>  <SlogP_VSA11>
0

>  <EState_VSA1>
11.74

>  <EState_VSA2>
12.33

>  <EState_VSA3>
22.82

>  <EState_VSA4>
43.21

>  <EState_VSA5>
22.73

>  <EState_VSA6>
12.13

>  <EState_VSA7>
12.13

>  <EState_VSA8>
16.85

>  <EState_VSA9>
0

>  <EState_VSA10>
17.97

>  <VSA_EState1>
39.85

>  <VSA_EState2>
20.65

>  <VSA_EState3>
0

>  <VSA_EState4>
0.22

>  <VSA_EState5>
-0.18

>  <VSA_EState6>
10.98

>  <VSA_EState7>
-4.19

>  <VSA_EState8>
4.3

>  <VSA_EState9>
2.07

>  <apol>
58.41

>  <bpol>
33.87

>  <nRing>
4

>  <nHRing>
2

>  <naRing>
2

>  <naHRing>
0

>  <nARing 2>
2

>  <nAHRing 2>
2

>  <nFRing>
1

>  <nFHRing>
1

>  <nFaRing>
0

>  <nFaHRing>
0

>  <nFARing 2>
1

>  <nFAHRing 2>
1

>  <nRot>
3

>  <SLogP>
4.47

>  <SMR>
107.71

>  <TopoPSA(NO)>
26.79

>  <TopoPSA>
52.09

>  <JGI1>
0.22

>  <JGI2>
0.08

>  <JGI3>
0.04

>  <JGI4>
0.05

>  <JGI5>
0.03

>  <Diameter>
13

>  <Radius>
7

>  <TMWC10>
138.69

>  <TSRW10>
64.97

>  <MW>
421.14

>  <AMW>
8.26

>  <WPath>
2210

>  <WPol>
49

>  <Zagreb1>
158

>  <Zagreb2>
187

>  <mZagreb2>
6.14

>  <yes>


>  <nAR-cont>
1

>  <nHA-cont>
0.785905698

>  <MWHBN>
0.194915665

>  <MWHBN-cont>
0.998144407

>  <TPSA-cont>
0.636379454

>  <pka_cont>
0.97

>  <yes.1>


>  <BBB_SCORE>
5.040881217

>  <MMFF94 Energy>
159.85

$$$$
Compound 1412
Actelion Java MolfileCreator 2.0

  0  0  0  0  0  0              0 V3000
M  V30 BEGIN CTAB
M  V30 COUNTS 49 52 0 0 0
M  V30 BEGIN ATOM
M  V30 1 Cl -5.4593 0.9761 2.5231 0
M  V30 2 C -4.628 0.925 1.0169 0
M  V30 3 C -3.7726 -0.1416 0.7336 0
M  V30 4 C -4.8169 1.9416 0.0924 0
M  V30 5 C -3.0679 -0.2159 -0.4846 0
M  V30 6 C -4.1568 1.8766 -1.1319 0
M  V30 7 N -2.1858 -1.297 -0.7541 0
M  V30 8 C -3.2999 0.8024 -1.4317 0
M  V30 9 C -1.7725 -1.6914 -2.0554 0
M  V30 10 C -1.2687 -1.673 0.3512 0
M  V30 11 S -2.5261 0.83 -3.0351 0
M  V30 12 C -1.872 -0.8217 -3.1589 0
M  V30 13 C -1.2786 -2.9893 -2.2986 0
M  V30 14 C -0.0892 -0.6914 0.446 0
M  V30 15 C -1.4298 -1.2281 -4.4303 0
M  V30 16 C -0.85 -3.3913 -3.5674 0
M  V30 17 C 0.8551 -1.0977 1.5845 0
M  V30 18 C -0.9161 -2.5059 -4.6332 0
M  V30 19 N 2.0312 -0.2538 1.8157 0
M  V30 20 C 2.9625 -0.2152 0.6745 0
M  V30 21 C 1.6975 1.1211 2.2276 0
M  V30 22 C 4.2318 0.6084 0.9987 0
M  V30 23 C 2.9661 1.9456 2.5523 0
M  V30 24 N 3.9101 1.9871 1.4181 0
M  V30 25 C 5.1231 2.7156 1.7794 0
M  V30 26 H -3.6912 -0.9365 1.4682 0
M  V30 27 H -5.48 2.7747 0.3079 0
M  V30 28 H -4.3195 2.669 -1.8599 0
M  V30 29 H -0.8812 -2.6899 0.2328 0
M  V30 30 H -1.7876 -1.7088 1.3147 0
M  V30 31 H -1.2519 -3.7316 -1.5064 0
M  V30 32 H -0.4723 0.321 0.6131 0
M  V30 33 H 0.449 -0.6789 -0.5078 0
M  V30 34 H -1.4929 -0.5468 -5.2764 0
M  V30 35 H -0.4754 -4.4004 -3.7191 0
M  V30 36 H 0.2834 -1.1487 2.5205 0
M  V30 37 H 1.2029 -2.124 1.4078 0
M  V30 38 H -0.585 -2.8104 -5.6222 0
M  V30 39 H 3.2726 -1.2349 0.4172 0
M  V30 40 H 2.4832 0.2179 -0.2121 0
M  V30 41 H 1.0678 1.0947 3.1249 0
M  V30 42 H 1.1338 1.6427 1.4441 0
M  V30 43 H 4.8598 0.638 0.1002 0
M  V30 44 H 4.8034 0.0907 1.7811 0
M  V30 45 H 3.4503 1.5205 3.4421 0
M  V30 46 H 2.6556 2.9666 2.8057 0
M  V30 47 H 5.6563 2.2489 2.6155 0
M  V30 48 H 5.8056 2.7716 0.9242 0
M  V30 49 H 4.882 3.7474 2.058 0
M  V30 END ATOM
M  V30 BEGIN BOND
M  V30 1 1 1 2
M  V30 2 2 2 3
M  V30 3 1 2 4
M  V30 4 1 3 5
M  V30 5 2 4 6
M  V30 6 1 5 7
M  V30 7 2 5 8
M  V30 8 1 7 9
M  V30 9 1 7 10
M  V30 10 1 8 11
M  V30 11 2 9 12
M  V30 12 1 9 13
M  V30 13 1 10 14
M  V30 14 1 12 15
M  V30 15 2 13 16
M  V30 16 1 14 17
M  V30 17 2 15 18
M  V30 18 1 17 19
M  V30 19 1 19 20
M  V30 20 1 19 21
M  V30 21 1 20 22
M  V30 22 1 21 23
M  V30 23 1 22 24
M  V30 24 1 24 25
M  V30 25 1 6 8
M  V30 26 1 11 12
M  V30 27 1 16 18
M  V30 28 1 23 24
M  V30 29 1 3 26
M  V30 30 1 4 27
M  V30 31 1 6 28
M  V30 32 1 10 29
M  V30 33 1 10 30
M  V30 34 1 13 31
M  V30 35 1 14 32
M  V30 36 1 14 33
M  V30 37 1 15 34
M  V30 38 1 16 35
M  V30 39 1 17 36
M  V30 40 1 17 37
M  V30 41 1 18 38
M  V30 42 1 20 39
M  V30 43 1 20 40
M  V30 44 1 21 41
M  V30 45 1 21 42
M  V30 46 1 22 43
M  V30 47 1 22 44
M  V30 48 1 23 45
M  V30 49 1 23 46
M  V30 50 1 25 47
M  V30 51 1 25 48
M  V30 52 1 25 49
M  V30 END BOND
M  V30 END CTAB
M  END
>  <Column 1>
1688

>  <level_0>
1844

>  <index>
1844

>  <Unnamed: 0>
1844

>  <NO.>
1856

>  <Name>
phenobarbital

>  <IUPAC_name>
2-chloro-10-[3-(4-methylpiperazin-1-yl)propyl]phenothiazine

>  <SMILES>
CN1CCN(CCCN2c3ccccc3Sc3ccc(Cl)cc32)CC1

>  <CID>
4917

>  <logBB>


>  <BBB+/BBB->
BBB+

>  <Inchi>
InChI=1S/C20H24ClN3S/c1-22-11-13-23(14-12-22)9-4-10-24-17-5-2-3-6-19(17)25-20-8-7-16(21)15-18(20)24/h2-3-5-8-15H-4-9-14H2-1H3

>  <threshold>
-1

>  <reference>
R1|R13|R19|R6|R14|R24|R26|R27|R27|R27|R30|R30|R36|

>  <group>
B

>  <Class>
1

>  <ABC>
19.86

>  <ABCGG>
14.57

>  <nAcid>
0

>  <nBase>
2

>  <nAromAtom>
12

>  <nAromBond>
12

>  <nAtom>
49

>  <nHeavyAtom>
25

>  <nSpiro>
0

>  <nBridgehead>
0

>  <nHetero>
5

>  <nN>
3

>  <nO>
0

>  <nF>
0

>  <BalabanJ>
1.35

>  <BertzCT>
743.47

>  <nBonds>
52

>  <nBondsO>
28

>  <nBondsS>
40

>  <nBondsD>
0

>  <nBondsT>
0

>  <nBondsA>
12

>  <nBondsM>
12

>  <nBondsKS>
46

>  <nBondsKD>
6

>  <RNCG>
0.23

>  <RPCG>
0.05

>  <FCSP3>
0.4

>  <SZ>
33

>  <Sm>
31.13

>  <Sv>
31.05

>  <Sse>
48.49

>  <Sp>
34.6

>  <Si>
54.93

>  <MZ>
0.67

>  <Mm>
0.64

>  <Mv>
0.63

>  <Mse>
0.99

>  <Mp>
0.71

>  <Mi>
1.12

>  <NsCH3>
1

>  <NdCH2>
0

>  <NssCH2>
7

>  <NtCH>
0

>  <NdsCH>
0

>  <NaaCH>
7

>  <NsssCH>
0

>  <NddC>
0

>  <NtsC>
0

>  <NdssC>
0

>  <NaasC>
5

>  <NaaaC>
0

>  <NssssC>
0

>  <NsNH3>
0

>  <NsNH2>
0

>  <NssNH2>
0

>  <NdNH>
0

>  <NssNH>
0

>  <NaaNH>
0

>  <NtN>
0

>  <NsssNH>
0

>  <NdsN>
0

>  <NaaN>
0

>  <NsssN>
3

>  <NddsN>
0

>  <NaasN>
0

>  <NssssN>
0

>  <NsOH>
0

>  <NdO>
0

>  <NssO>
0

>  <NaaO>
0

>  <NsF>
0

>  <NsSiH3>
0

>  <NssSiH2>
0

>  <NsssSiH>
0

>  <NssssSi>
0

>  <NsPH2>
0

>  <NssPH>
0

>  <NsssP>
0

>  <NdsssP>
0

>  <NsssssP>
0

>  <NsSH>
0

>  <NdS>
0

>  <NssS>
1

>  <NaaS>
0

>  <NdssS>
0

>  <NddssS>
0

>  <NsCl>
1

>  <NsBr>
0

>  <NsI>
0

>  <fragCpx>
184.05

>  <fMF>
0.47

>  <nHBAcc>
4

>  <nHBDon>
0

>  <Kier1>
18.37

>  <Kier2>
8.35

>  <Lipinski>
1

>  <GhoseFilter>
1

>  <FilterItLogS>
-5.24

>  <VMcGowan>
281.95

>  <LabuteASA>
159.1

>  <PEOE_VSA1>
14.7

>  <PEOE_VSA2>
0

>  <PEOE_VSA3>
0

>  <PEOE_VSA4>
0

>  <PEOE_VSA5>
0

>  <PEOE_VSA6>
35.5

>  <PEOE_VSA7>
50.35

>  <PEOE_VSA8>
47.54

>  <PEOE_VSA9>
11.37

>  <PEOE_VSA10>
0

>  <PEOE_VSA11>
0

>  <PEOE_VSA12>
0

>  <PEOE_VSA13>
0

>  <SMR_VSA1>
0

>  <SMR_VSA2>
0

>  <SMR_VSA3>
9.8

>  <SMR_VSA4>
0

>  <SMR_VSA5>
16.21

>  <SMR_VSA6>
51.22

>  <SMR_VSA7>
47.49

>  <SMR_VSA8>
0

>  <SMR_VSA9>
0

>  <SlogP_VSA1>
4.9

>  <SlogP_VSA2>
56.12

>  <SlogP_VSA3>
0

>  <SlogP_VSA4>
0

>  <SlogP_VSA5>
6.42

>  <SlogP_VSA6>
52.26

>  <SlogP_VSA7>
5.02

>  <SlogP_VSA8>
0

>  <SlogP_VSA9>
0

>  <SlogP_VSA10>
11.37

>  <SlogP_VSA11>
0

>  <EState_VSA1>
0

>  <EState_VSA2>
0

>  <EState_VSA3>
0

>  <EState_VSA4>
24.53

>  <EState_VSA5>
47.34

>  <EState_VSA6>
0

>  <EState_VSA7>
17.83

>  <EState_VSA8>
58.15

>  <EState_VSA9>
11.6

>  <EState_VSA10>
0

>  <VSA_EState1>
0

>  <VSA_EState2>
10.07

>  <VSA_EState3>
0.81

>  <VSA_EState4>
2.55

>  <VSA_EState5>
0

>  <VSA_EState6>
14.93

>  <VSA_EState7>
1.16

>  <VSA_EState8>
6.92

>  <VSA_EState9>
2.21

>  <apol>
57.78

>  <bpol>
32.18

>  <nRing>
4

>  <nHRing>
2

>  <naRing>
2

>  <naHRing>
0

>  <nARing 2>
2

>  <nAHRing 2>
2

>  <nFRing>
1

>  <nFHRing>
1

>  <nFaRing>
0

>  <nFaHRing>
0

>  <nFARing 2>
1

>  <nFAHRing 2>
1

>  <nRot>
4

>  <SLogP>
4.58

>  <SMR>
107.58

>  <TopoPSA(NO)>
9.72

>  <TopoPSA>
35.02

>  <JGI1>
0.16

>  <JGI2>
0.07

>  <JGI3>
0.03

>  <JGI4>
0.05

>  <JGI5>
0.02

>  <Diameter>
12

>  <Radius>
6

>  <TMWC10>
128.75

>  <TSRW10>
60.02

>  <MW>
373.14

>  <AMW>
7.62

>  <WPath>
1544

>  <WPol>
40

>  <Zagreb1>
134

>  <Zagreb2>
158

>  <mZagreb2>
5.44

>  <yes>


>  <nAR-cont>
1

>  <nHA-cont>
0.921834225

>  <MWHBN>
0.207073292

>  <MWHBN-cont>
0.999835138

>  <TPSA-cont>
0.755538654

>  <pka_cont>
0.97

>  <yes.1>


>  <BBB_SCORE>
5.417664239

>  <MMFF94 Energy>
131.59

$$$$
Compound 1413
Actelion Java MolfileCreator 2.0

  0  0  0  0  0  0              0 V3000
M  V30 BEGIN CTAB
M  V30 COUNTS 60 63 0 0 0
M  V30 BEGIN ATOM
M  V30 1 S 0.4873 -0.9749 4.1482 0
M  V30 2 O -0.7681 -0.8335 3.4401 0
M  V30 3 O 0.6871 -0.3612 5.444 0
M  V30 4 N 0.8405 -2.6339 4.2792 0
M  V30 5 C 1.7733 -0.3742 3.071 0
M  V30 6 C 0.6364 -3.4591 3.0771 0
M  V30 7 C 2.047 -3.0028 5.0393 0
M  V30 8 C 1.5454 -0.3218 1.6874 0
M  V30 9 C 2.9611 0.0962 3.6116 0
M  V30 10 C 2.5148 0.166 0.7835 0
M  V30 11 C 3.9344 0.5848 2.7488 0
M  V30 12 N 2.285 0.2132 -0.6226 0
M  V30 13 C 3.7223 0.623 1.354 0
M  V30 14 C 3.1109 0.8837 -1.573 0
M  V30 15 C 1.1222 -0.5396 -1.1503 0
M  V30 16 S 5.078 1.2661 0.4039 0
M  V30 17 C 4.3788 1.3923 -1.2241 0
M  V30 18 C 2.707 1.0921 -2.9124 0
M  V30 19 C -0.1493 0.3206 -1.1886 0
M  V30 20 C 5.1915 2.0392 -2.1775 0
M  V30 21 C 3.5152 1.7408 -3.8547 0
M  V30 22 C -1.3433 -0.5148 -1.6656 0
M  V30 23 C 4.7636 2.2118 -3.4881 0
M  V30 24 N -2.5705 0.2804 -1.8197 0
M  V30 25 C -3.5998 -0.5041 -2.5386 0
M  V30 26 C -3.1274 0.7046 -0.5138 0
M  V30 27 C -4.9341 0.2612 -2.6876 0
M  V30 28 C -4.4722 1.4573 -0.6558 0
M  V30 29 N -5.4845 0.6666 -1.3818 0
M  V30 30 C -6.7155 1.434 -1.5519 0
M  V30 31 H -0.3144 -3.2242 2.5911 0
M  V30 32 H 1.454 -3.324 2.3634 0
M  V30 33 H 0.5948 -4.5162 3.3598 0
M  V30 34 H 2.119 -2.4348 5.9708 0
M  V30 35 H 2.9508 -2.8451 4.4443 0
M  V30 36 H 1.9961 -4.0608 5.3173 0
M  V30 37 H 0.5728 -0.6566 1.3415 0
M  V30 38 H 3.1339 0.0953 4.6849 0
M  V30 39 H 4.8692 0.9524 3.1704 0
M  V30 40 H 0.9496 -1.4504 -0.5618 0
M  V30 41 H 1.3351 -0.952 -2.145 0
M  V30 42 H 1.7342 0.7727 -3.2716 0
M  V30 43 H -0.0106 1.179 -1.8558 0
M  V30 44 H -0.3456 0.7378 -0.1962 0
M  V30 45 H 6.1712 2.4202 -1.8947 0
M  V30 46 H 3.1573 1.8786 -4.872 0
M  V30 47 H -1.0751 -0.9409 -2.6413 0
M  V30 48 H -1.5082 -1.3604 -0.9849 0
M  V30 49 H 5.3979 2.7169 -4.2108 0
M  V30 50 H -3.2354 -0.7453 -3.5447 0
M  V30 51 H -3.7874 -1.4554 -2.022 0
M  V30 52 H -2.4294 1.3816 -0.0097 0
M  V30 53 H -3.273 -0.1652 0.1409 0
M  V30 54 H -5.65 -0.3946 -3.1979 0
M  V30 55 H -4.7759 1.137 -3.3317 0
M  V30 56 H -4.2921 2.4141 -1.165 0
M  V30 57 H -4.8429 1.688 0.3504 0
M  V30 58 H -6.5582 2.3529 -2.1283 0
M  V30 59 H -7.4744 0.8323 -2.0641 0
M  V30 60 H -7.1352 1.7068 -0.5771 0
M  V30 END ATOM
M  V30 BEGIN BOND
M  V30 1 2 1 2
M  V30 2 2 1 3
M  V30 3 1 1 4
M  V30 4 1 1 5
M  V30 5 1 4 6
M  V30 6 1 4 7
M  V30 7 2 5 8
M  V30 8 1 5 9
M  V30 9 1 8 10
M  V30 10 2 9 11
M  V30 11 1 10 12
M  V30 12 2 10 13
M  V30 13 1 12 14
M  V30 14 1 12 15
M  V30 15 1 13 16
M  V30 16 2 14 17
M  V30 17 1 14 18
M  V30 18 1 15 19
M  V30 19 1 17 20
M  V30 20 2 18 21
M  V30 21 1 19 22
M  V30 22 2 20 23
M  V30 23 1 22 24
M  V30 24 1 24 25
M  V30 25 1 24 26
M  V30 26 1 25 27
M  V30 27 1 26 28
M  V30 28 1 27 29
M  V30 29 1 29 30
M  V30 30 1 11 13
M  V30 31 1 16 17
M  V30 32 1 21 23
M  V30 33 1 28 29
M  V30 34 1 6 31
M  V30 35 1 6 32
M  V30 36 1 6 33
M  V30 37 1 7 34
M  V30 38 1 7 35
M  V30 39 1 7 36
M  V30 40 1 8 37
M  V30 41 1 9 38
M  V30 42 1 11 39
M  V30 43 1 15 40
M  V30 44 1 15 41
M  V30 45 1 18 42
M  V30 46 1 19 43
M  V30 47 1 19 44
M  V30 48 1 20 45
M  V30 49 1 21 46
M  V30 50 1 22 47
M  V30 51 1 22 48
M  V30 52 1 23 49
M  V30 53 1 25 50
M  V30 54 1 25 51
M  V30 55 1 26 52
M  V30 56 1 26 53
M  V30 57 1 27 54
M  V30 58 1 27 55
M  V30 59 1 28 56
M  V30 60 1 28 57
M  V30 61 1 30 58
M  V30 62 1 30 59
M  V30 63 1 30 60
M  V30 END BOND
M  V30 END CTAB
M  END
>  <Column 1>
1689

>  <level_0>
1845

>  <index>
1845

>  <Unnamed: 0>
1845

>  <NO.>
1857

>  <Name>
thioproperazine

>  <IUPAC_name>
n-n-dimethyl-10-[3-(4-methylpiperazin-1-yl)propyl]phenothiazine-2-sulfonamide

>  <SMILES>
CN1CCN(CCCN2c3ccccc3Sc3ccc(S(=O)(=O)N(C)C)cc32)CC1

>  <CID>
9429

>  <logBB>


>  <BBB+/BBB->
BBB+

>  <Inchi>
InChI=1S/C22H30N4O2S2/c1-23(2)30(27-28)18-9-10-22-20(17-18)26(19-7-4-5-8-21(19)29-22)12-6-11-25-15-13-24(3)14-16-25/h4-5-7-10-17H-6-11-16H2-1-3H3

>  <threshold>
-1

>  <reference>
R1|R13|R19|R6|R14|R23|R24|R27|R27|R27|R30|R30|

>  <group>
B

>  <Class>
1

>  <ABC>
23.7

>  <ABCGG>
17.74

>  <nAcid>
0

>  <nBase>
2

>  <nAromAtom>
12

>  <nAromBond>
12

>  <nAtom>
60

>  <nHeavyAtom>
30

>  <nSpiro>
0

>  <nBridgehead>
0

>  <nHetero>
8

>  <nN>
4

>  <nO>
2

>  <nF>
0

>  <BalabanJ>
1.41

>  <BertzCT>
1001.95

>  <nBonds>
63

>  <nBondsO>
33

>  <nBondsS>
49

>  <nBondsD>
2

>  <nBondsT>
0

>  <nBondsA>
12

>  <nBondsM>
14

>  <nBondsKS>
55

>  <nBondsKD>
8

>  <RNCG>
0.17

>  <RPCG>
0.12

>  <FCSP3>
0.45

>  <SZ>
39.67

>  <Sm>
37.18

>  <Sv>
36.96

>  <Sse>
59.79

>  <Sp>
41.05

>  <Si>
67.65

>  <MZ>
0.66

>  <Mm>
0.62

>  <Mv>
0.62

>  <Mse>
1

>  <Mp>
0.68

>  <Mi>
1.13

>  <NsCH3>
3

>  <NdCH2>
0

>  <NssCH2>
7

>  <NtCH>
0

>  <NdsCH>
0

>  <NaaCH>
7

>  <NsssCH>
0

>  <NddC>
0

>  <NtsC>
0

>  <NdssC>
0

>  <NaasC>
5

>  <NaaaC>
0

>  <NssssC>
0

>  <NsNH3>
0

>  <NsNH2>
0

>  <NssNH2>
0

>  <NdNH>
0

>  <NssNH>
0

>  <NaaNH>
0

>  <NtN>
0

>  <NsssNH>
0

>  <NdsN>
0

>  <NaaN>
0

>  <NsssN>
4

>  <NddsN>
0

>  <NaasN>
0

>  <NssssN>
0

>  <NsOH>
0

>  <NdO>
2

>  <NssO>
0

>  <NaaO>
0

>  <NsF>
0

>  <NsSiH3>
0

>  <NssSiH2>
0

>  <NsssSiH>
0

>  <NssssSi>
0

>  <NsPH2>
0

>  <NssPH>
0

>  <NsssP>
0

>  <NdsssP>
0

>  <NsssssP>
0

>  <NsSH>
0

>  <NdS>
0

>  <NssS>
1

>  <NaaS>
0

>  <NdssS>
0

>  <NddssS>
1

>  <NsCl>
0

>  <NsBr>
0

>  <NsI>
0

>  <fragCpx>
219.08

>  <fMF>
0.38

>  <nHBAcc>
6

>  <nHBDon>
0

>  <Kier1>
23.17

>  <Kier2>
9.87

>  <Lipinski>
1

>  <GhoseFilter>
1

>  <FilterItLogS>
-4.59

>  <VMcGowan>
335.96

>  <LabuteASA>
184.05

>  <PEOE_VSA1>
14.7

>  <PEOE_VSA2>
0

>  <PEOE_VSA3>
12.72

>  <PEOE_VSA4>
0

>  <PEOE_VSA5>
0

>  <PEOE_VSA6>
23.89

>  <PEOE_VSA7>
50.35

>  <PEOE_VSA8>
56.61

>  <PEOE_VSA9>
16.27

>  <PEOE_VSA10>
0

>  <PEOE_VSA11>
0

>  <PEOE_VSA12>
10.02

>  <PEOE_VSA13>
0

>  <SMR_VSA1>
8.42

>  <SMR_VSA2>
0

>  <SMR_VSA3>
14.11

>  <SMR_VSA4>
0

>  <SMR_VSA5>
21.11

>  <SMR_VSA6>
65.31

>  <SMR_VSA7>
42.46

>  <SMR_VSA8>
0

>  <SMR_VSA9>
0

>  <SlogP_VSA1>
4.9

>  <SlogP_VSA2>
82.93

>  <SlogP_VSA3>
10.02

>  <SlogP_VSA4>
0

>  <SlogP_VSA5>
6.42

>  <SlogP_VSA6>
57.15

>  <SlogP_VSA7>
0

>  <SlogP_VSA8>
0

>  <SlogP_VSA9>
0

>  <SlogP_VSA10>
11.37

>  <SlogP_VSA11>
0

>  <EState_VSA1>
10.02

>  <EState_VSA2>
0

>  <EState_VSA3>
4.9

>  <EState_VSA4>
61.96

>  <EState_VSA5>
9.2

>  <EState_VSA6>
31.92

>  <EState_VSA7>
12.13

>  <EState_VSA8>
46.01

>  <EState_VSA9>
0

>  <EState_VSA10>
8.42

>  <VSA_EState1>
26.69

>  <VSA_EState2>
9.86

>  <VSA_EState3>
0

>  <VSA_EState4>
2.15

>  <VSA_EState5>
0

>  <VSA_EState6>
13.89

>  <VSA_EState7>
1.03

>  <VSA_EState8>
6.4

>  <VSA_EState9>
1.86

>  <apol>
68.55

>  <bpol>
46.05

>  <nRing>
4

>  <nHRing>
2

>  <naRing>
2

>  <naHRing>
0

>  <nARing 2>
2

>  <nAHRing 2>
2

>  <nFRing>
1

>  <nFHRing>
1

>  <nFaRing>
0

>  <nFaHRing>
0

>  <nFARing 2>
1

>  <nFAHRing 2>
1

>  <nRot>
6

>  <SLogP>
3.18

>  <SMR>
123.44

>  <TopoPSA(NO)>
47.1

>  <TopoPSA>
80.78

>  <JGI1>
0.21

>  <JGI2>
0.09

>  <JGI3>
0.04

>  <JGI4>
0.04

>  <JGI5>
0.03

>  <Diameter>
14

>  <Radius>
7

>  <TMWC10>
140.85

>  <TSRW10>
66.12

>  <MW>
446.18

>  <AMW>
7.44

>  <WPath>
2491

>  <WPol>
52

>  <Zagreb1>
162

>  <Zagreb2>
193

>  <mZagreb2>
6.44

>  <yes>


>  <nAR-cont>
1

>  <nHA-cont>
0.74523694

>  <MWHBN>
0.28405092

>  <MWHBN-cont>
0.885623061

>  <TPSA-cont>
0.436105439

>  <pka_cont>
0.97

>  <yes.1>


>  <BBB_SCORE>
4.430882409

>  <MMFF94 Energy>
88.513

$$$$
Compound 1414
Actelion Java MolfileCreator 2.0

  0  0  0  0  0  0              0 V3000
M  V30 BEGIN CTAB
M  V30 COUNTS 65 69 0 0 0
M  V30 BEGIN ATOM
M  V30 1 Cl -1.2947 -7.2182 -2.7528 0
M  V30 2 C -1.6241 -6.3896 -1.2803 0
M  V30 3 C -2.4999 -5.3014 -1.2788 0
M  V30 4 C -1.02 -6.8101 -0.1051 0
M  V30 5 C -2.7931 -4.5921 -0.0959 0
M  V30 6 C -1.3079 -6.1418 1.0816 0
M  V30 7 N -3.6729 -3.4764 -0.1013 0
M  V30 8 C -2.1954 -5.0507 1.0966 0
M  V30 9 C -4.3578 -2.9901 1.0428 0
M  V30 10 C -3.6335 -2.5929 -1.2919 0
M  V30 11 S -2.4772 -4.2832 2.6792 0
M  V30 12 C -3.9078 -3.2754 2.3474 0
M  V30 13 C -5.5454 -2.2388 0.9264 0
M  V30 14 C -2.268 -1.9183 -1.5068 0
M  V30 15 C -4.5802 -2.7562 3.4682 0
M  V30 16 C -6.2173 -1.734 2.0446 0
M  V30 17 C -1.8864 -0.9791 -0.3559 0
M  V30 18 C -5.7268 -1.9822 3.3177 0
M  V30 19 N -0.6049 -0.2904 -0.5937 0
M  V30 20 C -0.72 0.7784 -1.6056 0
M  V30 21 C -0.113 0.3051 0.6682 0
M  V30 22 C 0.6024 1.5589 -1.7887 0
M  V30 23 C 1.2043 1.0946 0.486 0
M  V30 24 N 1.0838 2.1644 -0.5285 0
M  V30 25 C 2.3737 2.8443 -0.7587 0
M  V30 26 C 2.8532 3.6877 0.4378 0
M  V30 27 N 4.031 4.4743 0.1172 0
M  V30 28 C 5.3338 3.9883 0.1728 0
M  V30 29 C 3.971 5.7752 -0.5097 0
M  V30 30 O 5.6737 2.882 0.5555 0
M  V30 31 N 6.1667 4.9966 -0.2997 0
M  V30 32 C 5.4317 6.2024 -0.6052 0
M  V30 33 C 7.6042 4.9208 -0.3594 0
M  V30 34 H -2.9662 -5.0285 -2.2194 0
M  V30 35 H -0.3355 -7.6533 -0.1012 0
M  V30 36 H -0.8372 -6.4796 2.0028 0
M  V30 37 H -4.3758 -1.7897 -1.2517 0
M  V30 38 H -3.9091 -3.1582 -2.1895 0
M  V30 39 H -6.0007 -2.0614 -0.0436 0
M  V30 40 H -2.3332 -1.3577 -2.446 0
M  V30 41 H -1.4786 -2.6652 -1.6471 0
M  V30 42 H -4.2158 -2.9653 4.4719 0
M  V30 43 H -7.1299 -1.1577 1.9149 0
M  V30 44 H -2.6898 -0.2553 -0.1678 0
M  V30 45 H -1.7867 -1.5873 0.5503 0
M  V30 46 H -6.2429 -1.5941 4.1916 0
M  V30 47 H -0.9822 0.3502 -2.5786 0
M  V30 48 H -1.5165 1.4838 -1.3329 0
M  V30 49 H -0.8726 0.9731 1.0974 0
M  V30 50 H 0.0712 -0.4916 1.3993 0
M  V30 51 H 1.3612 0.8836 -2.2072 0
M  V30 52 H 0.4271 2.3503 -2.5277 0
M  V30 53 H 2.0064 0.3948 0.2156 0
M  V30 54 H 1.4606 1.529 1.4584 0
M  V30 55 H 2.2584 3.5239 -1.6133 0
M  V30 56 H 3.1533 2.1248 -1.0421 0
M  V30 57 H 2.0691 4.3736 0.7773 0
M  V30 58 H 3.1171 3.0304 1.273 0
M  V30 59 H 3.3728 6.4644 0.0928 0
M  V30 60 H 3.5222 5.6677 -1.5022 0
M  V30 61 H 5.6937 6.5698 -1.6013 0
M  V30 62 H 5.679 6.9603 0.145 0
M  V30 63 H 7.9487 3.916 -0.1021 0
M  V30 64 H 8.0239 5.6393 0.3497 0
M  V30 65 H 7.9296 5.1713 -1.3723 0
M  V30 END ATOM
M  V30 BEGIN BOND
M  V30 1 1 1 2
M  V30 2 2 2 3
M  V30 3 1 2 4
M  V30 4 1 3 5
M  V30 5 2 4 6
M  V30 6 1 5 7
M  V30 7 2 5 8
M  V30 8 1 7 9
M  V30 9 1 7 10
M  V30 10 1 8 11
M  V30 11 2 9 12
M  V30 12 1 9 13
M  V30 13 1 10 14
M  V30 14 1 12 15
M  V30 15 2 13 16
M  V30 16 1 14 17
M  V30 17 2 15 18
M  V30 18 1 17 19
M  V30 19 1 19 20
M  V30 20 1 19 21
M  V30 21 1 20 22
M  V30 22 1 21 23
M  V30 23 1 22 24
M  V30 24 1 24 25
M  V30 25 1 25 26
M  V30 26 1 26 27
M  V30 27 1 27 28
M  V30 28 1 27 29
M  V30 29 2 28 30
M  V30 30 1 28 31
M  V30 31 1 29 32
M  V30 32 1 31 33
M  V30 33 1 6 8
M  V30 34 1 11 12
M  V30 35 1 16 18
M  V30 36 1 23 24
M  V30 37 1 31 32
M  V30 38 1 3 34
M  V30 39 1 4 35
M  V30 40 1 6 36
M  V30 41 1 10 37
M  V30 42 1 10 38
M  V30 43 1 13 39
M  V30 44 1 14 40
M  V30 45 1 14 41
M  V30 46 1 15 42
M  V30 47 1 16 43
M  V30 48 1 17 44
M  V30 49 1 17 45
M  V30 50 1 18 46
M  V30 51 1 20 47
M  V30 52 1 20 48
M  V30 53 1 21 49
M  V30 54 1 21 50
M  V30 55 1 22 51
M  V30 56 1 22 52
M  V30 57 1 23 53
M  V30 58 1 23 54
M  V30 59 1 25 55
M  V30 60 1 25 56
M  V30 61 1 26 57
M  V30 62 1 26 58
M  V30 63 1 29 59
M  V30 64 1 29 60
M  V30 65 1 32 61
M  V30 66 1 32 62
M  V30 67 1 33 63
M  V30 68 1 33 64
M  V30 69 1 33 65
M  V30 END BOND
M  V30 END CTAB
M  END
>  <Column 1>
1690

>  <level_0>
1846

>  <index>
1846

>  <Unnamed: 0>
1846

>  <NO.>
1858

>  <Name>
imiclopazine

>  <IUPAC_name>
1-[2-[4-[3-(2-chlorophenothiazin-10-yl)propyl]piperazin-1-yl]ethyl]-3-methylimidazolidin-2-one

>  <SMILES>
CN1CCN(CCN2CCN(CCCN3c4ccccc4Sc4ccc(Cl)cc43)CC2)C1=O

>  <CID>
23896

>  <logBB>


>  <BBB+/BBB->
BBB+

>  <Inchi>
InChI=1S/C25H32ClN5OS/c1-27-11-17-30(25(27)32)18-16-29-14-12-28(13-15-29)9-4-10-31-21-5-2-3-6-23(21)33-24-8-7-20(26)19-22(24)31/h2-3-5-8-19H-4-9-18H2-1H3

>  <threshold>
-1

>  <reference>
R1|R13|R19|R6|R24|R27|R27|R27|R30|R30|

>  <group>
B

>  <Class>
-1

>  <ABC>
26.25

>  <ABCGG>
18.38

>  <nAcid>
0

>  <nBase>
2

>  <nAromAtom>
12

>  <nAromBond>
12

>  <nAtom>
65

>  <nHeavyAtom>
33

>  <nSpiro>
0

>  <nBridgehead>
0

>  <nHetero>
8

>  <nN>
5

>  <nO>
1

>  <nF>
0

>  <BalabanJ>
1.05

>  <BertzCT>
996.51

>  <nBonds>
69

>  <nBondsO>
37

>  <nBondsS>
56

>  <nBondsD>
1

>  <nBondsT>
0

>  <nBondsA>
12

>  <nBondsM>
13

>  <nBondsKS>
62

>  <nBondsKD>
7

>  <RNCG>
0.15

>  <RPCG>
0.14

>  <FCSP3>
0.48

>  <SZ>
43

>  <Sm>
40.47

>  <Sv>
40.45

>  <Sse>
64.69

>  <Sp>
44.59

>  <Si>
73.38

>  <MZ>
0.66

>  <Mm>
0.62

>  <Mv>
0.62

>  <Mse>
1

>  <Mp>
0.69

>  <Mi>
1.13

>  <NsCH3>
1

>  <NdCH2>
0

>  <NssCH2>
11

>  <NtCH>
0

>  <NdsCH>
0

>  <NaaCH>
7

>  <NsssCH>
0

>  <NddC>
0

>  <NtsC>
0

>  <NdssC>
1

>  <NaasC>
5

>  <NaaaC>
0

>  <NssssC>
0

>  <NsNH3>
0

>  <NsNH2>
0

>  <NssNH2>
0

>  <NdNH>
0

>  <NssNH>
0

>  <NaaNH>
0

>  <NtN>
0

>  <NsssNH>
0

>  <NdsN>
0

>  <NaaN>
0

>  <NsssN>
5

>  <NddsN>
0

>  <NaasN>
0

>  <NssssN>
0

>  <NsOH>
0

>  <NdO>
1

>  <NssO>
0

>  <NaaO>
0

>  <NsF>
0

>  <NsSiH3>
0

>  <NssSiH2>
0

>  <NsssSiH>
0

>  <NssssSi>
0

>  <NsPH2>
0

>  <NssPH>
0

>  <NsssP>
0

>  <NdsssP>
0

>  <NsssssP>
0

>  <NsSH>
0

>  <NdS>
0

>  <NssS>
1

>  <NaaS>
0

>  <NdssS>
0

>  <NddssS>
0

>  <NsCl>
1

>  <NsBr>
0

>  <NsI>
0

>  <fragCpx>
313.08

>  <fMF>
0.46

>  <nHBAcc>
5

>  <nHBDon>
0

>  <Kier1>
24.68

>  <Kier2>
11.37

>  <Lipinski>
1

>  <GhoseFilter>
0

>  <FilterItLogS>
-5.33

>  <VMcGowan>
363.07

>  <LabuteASA>
205.6

>  <PEOE_VSA1>
19.6

>  <PEOE_VSA2>
4.9

>  <PEOE_VSA3>
4.79

>  <PEOE_VSA4>
0

>  <PEOE_VSA5>
0

>  <PEOE_VSA6>
35.5

>  <PEOE_VSA7>
43.3

>  <PEOE_VSA8>
80.76

>  <PEOE_VSA9>
11.37

>  <PEOE_VSA10>
0

>  <PEOE_VSA11>
0

>  <PEOE_VSA12>
0

>  <PEOE_VSA13>
0

>  <SMR_VSA1>
4.79

>  <SMR_VSA2>
0

>  <SMR_VSA3>
19.6

>  <SMR_VSA4>
0

>  <SMR_VSA5>
16.21

>  <SMR_VSA6>
77.4

>  <SMR_VSA7>
47.49

>  <SMR_VSA8>
0

>  <SMR_VSA9>
0

>  <SlogP_VSA1>
4.9

>  <SlogP_VSA2>
98.13

>  <SlogP_VSA3>
0

>  <SlogP_VSA4>
0

>  <SlogP_VSA5>
6.42

>  <SlogP_VSA6>
52.26

>  <SlogP_VSA7>
5.02

>  <SlogP_VSA8>
0

>  <SlogP_VSA9>
0

>  <SlogP_VSA10>
16.17

>  <SlogP_VSA11>
0

>  <EState_VSA1>
0

>  <EState_VSA2>
6.03

>  <EState_VSA3>
0

>  <EState_VSA4>
76.89

>  <EState_VSA5>
21.17

>  <EState_VSA6>
0

>  <EState_VSA7>
34.68

>  <EState_VSA8>
51.1

>  <EState_VSA9>
11.6

>  <EState_VSA10>
4.79

>  <VSA_EState1>
0

>  <VSA_EState2>
25.95

>  <VSA_EState3>
0.79

>  <VSA_EState4>
2.5

>  <VSA_EState5>
0

>  <VSA_EState6>
15.05

>  <VSA_EState7>
1.11

>  <VSA_EState8>
9.99

>  <VSA_EState9>
1.88

>  <apol>
74.47

>  <bpol>
44.49

>  <nRing>
5

>  <nHRing>
3

>  <naRing>
2

>  <naHRing>
0

>  <nARing 2>
3

>  <nAHRing 2>
3

>  <nFRing>
1

>  <nFHRing>
1

>  <nFaRing>
0

>  <nFaHRing>
0

>  <nFARing 2>
1

>  <nFAHRing 2>
1

>  <nRot>
7

>  <SLogP>
4.32

>  <SMR>
136.12

>  <TopoPSA(NO)>
33.27

>  <TopoPSA>
58.57

>  <JGI1>
0.16

>  <JGI2>
0.08

>  <JGI3>
0.04

>  <JGI4>
0.04

>  <JGI5>
0.02

>  <Diameter>
17

>  <Radius>
9

>  <TMWC10>
148.26

>  <TSRW10>
83.26

>  <MW>
485.2

>  <AMW>
7.46

>  <WPath>
3772

>  <WPol>
53

>  <Zagreb1>
178

>  <Zagreb2>
211

>  <mZagreb2>
7.17

>  <yes>


>  <nAR-cont>
0.691115

>  <nHA-cont>
0.61399562

>  <MWHBN>
0.226991507

>  <MWHBN-cont>
0.989624886

>  <TPSA-cont>
0.59114503

>  <pka_cont>
0.97

>  <yes.1>


>  <BBB_SCORE>
4.456838009

>  <MMFF94 Energy>
98.331

$$$$
Compound 1415
Actelion Java MolfileCreator 2.0

  0  0  0  0  0  0              0 V3000
M  V30 BEGIN CTAB
M  V30 COUNTS 43 46 0 0 0
M  V30 BEGIN ATOM
M  V30 1 S 0.4094 0.737 1.8844 0
M  V30 2 C 0.1446 -0.3588 0.4623 0
M  V30 3 C 0.0777 -0.4393 3.2086 0
M  V30 4 C -0.0961 0.2552 -0.8044 0
M  V30 5 C 0.1792 -1.7771 0.5984 0
M  V30 6 C 0.9144 -1.6807 2.9757 0
M  V30 7 N -0.1252 1.6515 -0.9356 0
M  V30 8 C -0.3356 -0.5801 -1.9078 0
M  V30 9 N 0.4526 -2.4591 1.8135 0
M  V30 10 C -0.0876 -2.551 -0.5548 0
M  V30 11 C -1.455 2.2731 -0.8303 0
M  V30 12 C 0.7513 2.2697 -1.9416 0
M  V30 13 F -0.6005 -0.0506 -3.1125 0
M  V30 14 C -0.34 -1.9592 -1.7948 0
M  V30 15 C 0.4468 -3.8456 1.8426 0
M  V30 16 C -0.1141 -4.036 -0.4795 0
M  V30 17 C -1.3159 3.7998 -0.6206 0
M  V30 18 C 0.8462 3.7946 -1.6955 0
M  V30 19 C 0.1859 -4.6758 0.8217 0
M  V30 20 O -0.3883 -4.6853 -1.4828 0
M  V30 21 N -0.4816 4.452 -1.6572 0
M  V30 22 C 0.2247 -6.1415 0.9923 0
M  V30 23 C -0.3402 5.8794 -1.3797 0
M  V30 24 O 0.1374 -6.9918 0.1265 0
M  V30 25 O 0.3778 -6.526 2.2776 0
M  V30 26 H -0.9918 -0.674 3.2383 0
M  V30 27 H 0.3484 0.0281 4.1603 0
M  V30 28 H 1.9792 -1.4383 2.8577 0
M  V30 29 H 0.8436 -2.2975 3.8814 0
M  V30 30 H -2.0314 2.0762 -1.7436 0
M  V30 31 H -2.0172 1.8554 0.0137 0
M  V30 32 H 1.7591 1.8413 -1.882 0
M  V30 33 H 0.3659 2.094 -2.953 0
M  V30 34 H -0.5444 -2.5605 -2.6768 0
M  V30 35 H 0.6962 -4.2465 2.8232 0
M  V30 36 H -2.3206 4.2394 -0.6311 0
M  V30 37 H -0.8888 3.9808 0.3752 0
M  V30 38 H 1.3808 3.968 -0.7514 0
M  V30 39 H 1.4485 4.2342 -2.4996 0
M  V30 40 H 0.2531 6.3649 -2.1624 0
M  V30 41 H 0.141 6.0713 -0.4138 0
M  V30 42 H -1.3206 6.3685 -1.3788 0
M  V30 43 H 0.3756 -7.5053 2.2104 0
M  V30 END ATOM
M  V30 BEGIN BOND
M  V30 1 1 1 2
M  V30 2 1 1 3
M  V30 3 2 2 4
M  V30 4 1 2 5
M  V30 5 1 3 6
M  V30 6 1 4 7
M  V30 7 1 4 8
M  V30 8 1 5 9
M  V30 9 2 5 10
M  V30 10 1 7 11
M  V30 11 1 7 12
M  V30 12 1 8 13
M  V30 13 2 8 14
M  V30 14 1 9 15
M  V30 15 1 10 16
M  V30 16 1 11 17
M  V30 17 1 12 18
M  V30 18 2 15 19
M  V30 19 2 16 20
M  V30 20 1 17 21
M  V30 21 1 19 22
M  V30 22 1 21 23
M  V30 23 2 22 24
M  V30 24 1 22 25
M  V30 25 1 6 9
M  V30 26 1 10 14
M  V30 27 1 16 19
M  V30 28 1 18 21
M  V30 29 1 3 26
M  V30 30 1 3 27
M  V30 31 1 6 28
M  V30 32 1 6 29
M  V30 33 1 11 30
M  V30 34 1 11 31
M  V30 35 1 12 32
M  V30 36 1 12 33
M  V30 37 1 14 34
M  V30 38 1 15 35
M  V30 39 1 17 36
M  V30 40 1 17 37
M  V30 41 1 18 38
M  V30 42 1 18 39
M  V30 43 1 23 40
M  V30 44 1 23 41
M  V30 45 1 23 42
M  V30 46 1 25 43
M  V30 END BOND
M  V30 END CTAB
M  END
>  <Column 1>
1691

>  <level_0>
1847

>  <index>
1847

>  <Unnamed: 0>
1847

>  <NO.>
1859

>  <Name>
flupentixol

>  <IUPAC_name>
7-fluoro-6-(4-methylpiperazin-1-yl)-10-oxo-4-thia-1-azatricyclo[7.3.1.05-13]trideca-5(13)-6-8-11-tetraene-11-carboxylic acid

>  <SMILES>
CN1CCN(c2c(F)cc3c(=O)c(C(=O)O)cn4c3c2SCC4)CC1

>  <CID>
58258

>  <logBB>


>  <BBB+/BBB->
BBB-

>  <Inchi>
InChI=1S/C17H18FN3O3S/c1-19-2-4-20(5-3-19)14-12(18)8-10-13-16(14)25-7-6-21(13)9-11(15(10)22)17(23)24/h8-9H-2-7H2-1H3-(H-23-24)

>  <threshold>
-1

>  <reference>
R1|R13|R19|R28|R9|R24|R27|R27|R30|R36|

>  <group>
B

>  <Class>
-1

>  <ABC>
19.98

>  <ABCGG>
15.42

>  <nAcid>
1

>  <nBase>
1

>  <nAromAtom>
10

>  <nAromBond>
11

>  <nAtom>
43

>  <nHeavyAtom>
25

>  <nSpiro>
0

>  <nBridgehead>
0

>  <nHetero>
8

>  <nN>
3

>  <nO>
3

>  <nF>
1

>  <BalabanJ>
1.58

>  <BertzCT>
935.11

>  <nBonds>
46

>  <nBondsO>
28

>  <nBondsS>
33

>  <nBondsD>
2

>  <nBondsT>
0

>  <nBondsA>
11

>  <nBondsM>
13

>  <nBondsKS>
40

>  <nBondsKD>
6

>  <RNCG>
0.2

>  <RPCG>
0.14

>  <FCSP3>
0.41

>  <SZ>
31.67

>  <Sm>
30.26

>  <Sv>
28.13

>  <Sse>
44.01

>  <Sp>
29.67

>  <Si>
48.71

>  <MZ>
0.74

>  <Mm>
0.7

>  <Mv>
0.65

>  <Mse>
1.02

>  <Mp>
0.69

>  <Mi>
1.13

>  <NsCH3>
1

>  <NdCH2>
0

>  <NssCH2>
6

>  <NtCH>
0

>  <NdsCH>
0

>  <NaaCH>
2

>  <NsssCH>
0

>  <NddC>
0

>  <NtsC>
0

>  <NdssC>
1

>  <NaasC>
4

>  <NaaaC>
2

>  <NssssC>
0

>  <NsNH3>
0

>  <NsNH2>
0

>  <NssNH2>
0

>  <NdNH>
0

>  <NssNH>
0

>  <NaaNH>
0

>  <NtN>
0

>  <NsssNH>
0

>  <NdsN>
0

>  <NaaN>
0

>  <NsssN>
2

>  <NddsN>
0

>  <NaasN>
1

>  <NssssN>
0

>  <NsOH>
1

>  <NdO>
2

>  <NssO>
0

>  <NaaO>
0

>  <NsF>
1

>  <NsSiH3>
0

>  <NssSiH2>
0

>  <NsssSiH>
0

>  <NssssSi>
0

>  <NsPH2>
0

>  <NssPH>
0

>  <NsssP>
0

>  <NdsssP>
0

>  <NsssssP>
0

>  <NsSH>
0

>  <NdS>
0

>  <NssS>
1

>  <NaaS>
0

>  <NdssS>
0

>  <NddssS>
0

>  <NsCl>
0

>  <NsBr>
0

>  <NsI>
0

>  <fragCpx>
184.08

>  <fMF>
0.44

>  <nHBAcc>
6

>  <nHBDon>
1

>  <Kier1>
18.37

>  <Kier2>
7.2

>  <Lipinski>
1

>  <GhoseFilter>
1

>  <FilterItLogS>
-2.91

>  <VMcGowan>
246.81

>  <LabuteASA>
147.38

>  <PEOE_VSA1>
19.47

>  <PEOE_VSA2>
4.79

>  <PEOE_VSA3>
9.18

>  <PEOE_VSA4>
0

>  <PEOE_VSA5>
11.76

>  <PEOE_VSA6>
0

>  <PEOE_VSA7>
13.11

>  <PEOE_VSA8>
44.67

>  <PEOE_VSA9>
21.49

>  <PEOE_VSA10>
11.38

>  <PEOE_VSA11>
0

>  <PEOE_VSA12>
5.43

>  <PEOE_VSA13>
0

>  <SMR_VSA1>
14.29

>  <SMR_VSA2>
0

>  <SMR_VSA3>
9.47

>  <SMR_VSA4>
0

>  <SMR_VSA5>
11.44

>  <SMR_VSA6>
43.88

>  <SMR_VSA7>
33.87

>  <SMR_VSA8>
0

>  <SMR_VSA9>
0

>  <SlogP_VSA1>
10.33

>  <SlogP_VSA2>
59.52

>  <SlogP_VSA3>
6.54

>  <SlogP_VSA4>
5.82

>  <SlogP_VSA5>
10.36

>  <SlogP_VSA6>
21.95

>  <SlogP_VSA7>
0

>  <SlogP_VSA8>
10.9

>  <SlogP_VSA9>
0

>  <SlogP_VSA10>
10.08

>  <SlogP_VSA11>
0

>  <EState_VSA1>
17.22

>  <EState_VSA2>
10.95

>  <EState_VSA3>
23.5

>  <EState_VSA4>
31.07

>  <EState_VSA5>
24.03

>  <EState_VSA6>
4.57

>  <EState_VSA7>
11.95

>  <EState_VSA8>
4.9

>  <EState_VSA9>
0

>  <EState_VSA10>
19.09

>  <VSA_EState1>
16.74

>  <VSA_EState2>
28.83

>  <VSA_EState3>
9.41

>  <VSA_EState4>
0.27

>  <VSA_EState5>
-1.01

>  <VSA_EState6>
1.21

>  <VSA_EState7>
1.39

>  <VSA_EState8>
3.76

>  <VSA_EState9>
2.04

>  <apol>
49.56

>  <bpol>
28.5

>  <nRing>
4

>  <nHRing>
3

>  <naRing>
2

>  <naHRing>
1

>  <nARing 2>
2

>  <nAHRing 2>
2

>  <nFRing>
1

>  <nFHRing>
1

>  <nFaRing>
0

>  <nFaHRing>
0

>  <nFARing 2>
1

>  <nFAHRing 2>
1

>  <nRot>
2

>  <SLogP>
1.7

>  <SMR>
95.56

>  <TopoPSA(NO)>
65.78

>  <TopoPSA>
91.08

>  <JGI1>
0.18

>  <JGI2>
0.08

>  <JGI3>
0.05

>  <JGI4>
0.05

>  <JGI5>
0.03

>  <Diameter>
12

>  <Radius>
6

>  <TMWC10>
130.69

>  <TSRW10>
60.61

>  <MW>
363.11

>  <AMW>
8.44

>  <WPath>
1352

>  <WPol>
48

>  <Zagreb1>
140

>  <Zagreb2>
172

>  <mZagreb2>
5.33

>  <yes>


>  <nAR-cont>
1

>  <nHA-cont>
0.921834225

>  <MWHBN>
0.367349062

>  <MWHBN-cont>
0.604144392

>  <TPSA-cont>
0.364205043

>  <pka_cont>
0.97

>  <yes.1>


>  <BBB_SCORE>
4.041460899

>  <MMFF94 Energy>
160.15

$$$$
Compound 1416
Actelion Java MolfileCreator 2.0

  0  0  0  0  0  0              0 V3000
M  V30 BEGIN CTAB
M  V30 COUNTS 48 51 0 0 0
M  V30 BEGIN ATOM
M  V30 1 F -2.8263 2.3414 1.049 0
M  V30 2 C -1.5658 1.9607 0.7858 0
M  V30 3 C -1.2878 0.6351 0.4043 0
M  V30 4 C -0.5781 2.9373 0.8544 0
M  V30 5 N -2.2868 -0.3317 0.3199 0
M  V30 6 C 0.0538 0.3429 0.0893 0
M  V30 7 C 0.7425 2.6081 0.5436 0
M  V30 8 C -3.1758 -0.5205 1.4845 0
M  V30 9 C -2.1241 -1.5291 -0.5216 0
M  V30 10 C 1.0903 1.2989 0.1745 0
M  V30 11 C 1.7736 3.6735 0.579 0
M  V30 12 C -4.5135 -1.171 1.0649 0
M  V30 13 C -3.494 -2.1514 -0.8786 0
M  V30 14 N 2.4545 0.9813 -0.1345 0
M  V30 15 O 1.4543 4.8126 0.898 0
M  V30 16 C 3.1583 3.3085 0.1977 0
M  V30 17 N -4.3261 -2.4307 0.3111 0
M  V30 18 C 2.9296 -0.3413 -0.4012 0
M  V30 19 C 3.3808 2.0226 -0.1187 0
M  V30 20 C 4.2594 4.2902 0.2022 0
M  V30 21 C -5.6182 -2.9873 -0.0844 0
M  V30 22 C 3.5707 -0.6397 -1.6168 0
M  V30 23 C 2.7893 -1.3615 0.5567 0
M  V30 24 O 4.2599 5.3994 0.7017 0
M  V30 25 O 5.3643 3.8518 -0.4362 0
M  V30 26 C 4.0444 -1.9281 -1.873 0
M  V30 27 C 3.2642 -2.6492 0.2995 0
M  V30 28 C 3.8855 -2.92 -0.913 0
M  V30 29 F 4.34 -4.1551 -1.1598 0
M  V30 30 H -0.8555 3.9504 1.1334 0
M  V30 31 H 0.2996 -0.6663 -0.2245 0
M  V30 32 H -2.6676 -1.1647 2.2137 0
M  V30 33 H -3.4074 0.4168 1.9984 0
M  V30 34 H -1.6222 -1.2741 -1.4629 0
M  V30 35 H -1.5089 -2.2694 0.0051 0
M  V30 36 H -5.0845 -0.4499 0.4642 0
M  V30 37 H -5.0939 -1.3728 1.9733 0
M  V30 38 H -3.3118 -3.0843 -1.4255 0
M  V30 39 H -4.0236 -1.4713 -1.5599 0
M  V30 40 H 4.3885 1.693 -0.3664 0
M  V30 41 H -6.188 -2.3055 -0.726 0
M  V30 42 H -5.4795 -3.9314 -0.6227 0
M  V30 43 H -6.224 -3.215 0.7996 0
M  V30 44 H 3.688 0.1297 -2.3764 0
M  V30 45 H 2.3193 -1.1505 1.5149 0
M  V30 46 H 5.9812 4.6109 -0.3522 0
M  V30 47 H 4.5333 -2.163 -2.8131 0
M  V30 48 H 3.1577 -3.4378 1.0377 0
M  V30 END ATOM
M  V30 BEGIN BOND
M  V30 1 1 1 2
M  V30 2 2 2 3
M  V30 3 1 2 4
M  V30 4 1 3 5
M  V30 5 1 3 6
M  V30 6 2 4 7
M  V30 7 1 5 8
M  V30 8 1 5 9
M  V30 9 2 6 10
M  V30 10 1 7 11
M  V30 11 1 8 12
M  V30 12 1 9 13
M  V30 13 1 10 14
M  V30 14 2 11 15
M  V30 15 1 11 16
M  V30 16 1 12 17
M  V30 17 1 14 18
M  V30 18 1 14 19
M  V30 19 1 16 20
M  V30 20 1 17 21
M  V30 21 2 18 22
M  V30 22 1 18 23
M  V30 23 2 20 24
M  V30 24 1 20 25
M  V30 25 1 22 26
M  V30 26 2 23 27
M  V30 27 2 26 28
M  V30 28 1 28 29
M  V30 29 1 7 10
M  V30 30 1 13 17
M  V30 31 2 16 19
M  V30 32 1 27 28
M  V30 33 1 4 30
M  V30 34 1 6 31
M  V30 35 1 8 32
M  V30 36 1 8 33
M  V30 37 1 9 34
M  V30 38 1 9 35
M  V30 39 1 12 36
M  V30 40 1 12 37
M  V30 41 1 13 38
M  V30 42 1 13 39
M  V30 43 1 19 40
M  V30 44 1 21 41
M  V30 45 1 21 42
M  V30 46 1 21 43
M  V30 47 1 22 44
M  V30 48 1 23 45
M  V30 49 1 25 46
M  V30 50 1 26 47
M  V30 51 1 27 48
M  V30 END BOND
M  V30 END CTAB
M  END
>  <Column 1>
1692

>  <level_0>
1848

>  <index>
1848

>  <Unnamed: 0>
1848

>  <NO.>
1860

>  <Name>
sevoflurane

>  <IUPAC_name>
6-fluoro-1-(4-fluorophenyl)-7-(4-methylpiperazin-1-yl)-4-oxoquinoline-3-carboxylic acid

>  <SMILES>
CN1CCN(c2cc3c(cc2F)c(=O)c(C(=O)O)cn3-c2ccc(F)cc2)CC1

>  <CID>
56206

>  <logBB>


>  <BBB+/BBB->
BBB-

>  <Inchi>
InChI=1S/C21H19F2N3O3/c1-24-6-8-25(9-7-24)19-11-18-15(10-17(19)23)20(27)16(21(28)29)12-26(18)14-4-2-13(22)3-5-14/h2-5-10-12H-6-9H2-1H3-(H-28-29)

>  <threshold>
-1

>  <reference>
R1|R13|R19|R28|R9|R24|R27|R27|R30|R36|

>  <group>
B

>  <Class>
1

>  <ABC>
22.96

>  <ABCGG>
17.72

>  <nAcid>
1

>  <nBase>
1

>  <nAromAtom>
16

>  <nAromBond>
17

>  <nAtom>
48

>  <nHeavyAtom>
29

>  <nSpiro>
0

>  <nBridgehead>
0

>  <nHetero>
8

>  <nN>
3

>  <nO>
3

>  <nF>
2

>  <BalabanJ>
1.53

>  <BertzCT>
1150.53

>  <nBonds>
51

>  <nBondsO>
32

>  <nBondsS>
32

>  <nBondsD>
2

>  <nBondsT>
0

>  <nBondsA>
17

>  <nBondsM>
19

>  <nBondsKS>
42

>  <nBondsKD>
9

>  <RNCG>
0.19

>  <RPCG>
0.13

>  <FCSP3>
0.24

>  <SZ>
34.67

>  <Sm>
33.25

>  <Sv>
31.86

>  <Sse>
49.33

>  <Sp>
32.67

>  <Si>
54.54

>  <MZ>
0.72

>  <Mm>
0.69

>  <Mv>
0.66

>  <Mse>
1.03

>  <Mp>
0.68

>  <Mi>
1.14

>  <NsCH3>
1

>  <NdCH2>
0

>  <NssCH2>
4

>  <NtCH>
0

>  <NdsCH>
0

>  <NaaCH>
7

>  <NsssCH>
0

>  <NddC>
0

>  <NtsC>
0

>  <NdssC>
1

>  <NaasC>
5

>  <NaaaC>
2

>  <NssssC>
0

>  <NsNH3>
0

>  <NsNH2>
0

>  <NssNH2>
0

>  <NdNH>
0

>  <NssNH>
0

>  <NaaNH>
0

>  <NtN>
0

>  <NsssNH>
0

>  <NdsN>
0

>  <NaaN>
0

>  <NsssN>
2

>  <NddsN>
0

>  <NaasN>
1

>  <NssssN>
0

>  <NsOH>
1

>  <NdO>
2

>  <NssO>
0

>  <NaaO>
0

>  <NsF>
2

>  <NsSiH3>
0

>  <NssSiH2>
0

>  <NsssSiH>
0

>  <NssssSi>
0

>  <NsPH2>
0

>  <NssPH>
0

>  <NsssP>
0

>  <NdsssP>
0

>  <NsssssP>
0

>  <NsSH>
0

>  <NdS>
0

>  <NssS>
0

>  <NaaS>
0

>  <NdssS>
0

>  <NddssS>
0

>  <NsCl>
0

>  <NsBr>
0

>  <NsI>
0

>  <fragCpx>
212.08

>  <fMF>
0.46

>  <nHBAcc>
5

>  <nHBDon>
1

>  <Kier1>
22.2

>  <Kier2>
9.24

>  <Lipinski>
1

>  <GhoseFilter>
1

>  <FilterItLogS>
-4.26

>  <VMcGowan>
275.68

>  <LabuteASA>
164.75

>  <PEOE_VSA1>
19.47

>  <PEOE_VSA2>
4.79

>  <PEOE_VSA3>
13.58

>  <PEOE_VSA4>
0

>  <PEOE_VSA5>
0

>  <PEOE_VSA6>
0

>  <PEOE_VSA7>
43.45

>  <PEOE_VSA8>
43.45

>  <PEOE_VSA9>
11.2

>  <PEOE_VSA10>
17.2

>  <PEOE_VSA11>
0

>  <PEOE_VSA12>
5.43

>  <PEOE_VSA13>
0

>  <SMR_VSA1>
18.68

>  <SMR_VSA2>
0

>  <SMR_VSA3>
9.47

>  <SMR_VSA4>
0

>  <SMR_VSA5>
0

>  <SMR_VSA6>
38.13

>  <SMR_VSA7>
70.02

>  <SMR_VSA8>
0

>  <SMR_VSA9>
5.69

>  <SlogP_VSA1>
10.33

>  <SlogP_VSA2>
53.77

>  <SlogP_VSA3>
0

>  <SlogP_VSA4>
11.63

>  <SlogP_VSA5>
10.36

>  <SlogP_VSA6>
47.39

>  <SlogP_VSA7>
0

>  <SlogP_VSA8>
16.59

>  <SlogP_VSA9>
0

>  <SlogP_VSA10>
14.47

>  <SlogP_VSA11>
0

>  <EState_VSA1>
28.6

>  <EState_VSA2>
5.39

>  <EState_VSA3>
29.98

>  <EState_VSA4>
19.16

>  <EState_VSA5>
35.03

>  <EState_VSA6>
6.07

>  <EState_VSA7>
11.95

>  <EState_VSA8>
4.9

>  <EState_VSA9>
0

>  <EState_VSA10>
23.48

>  <VSA_EState1>
29.75

>  <VSA_EState2>
28.25

>  <VSA_EState3>
9.38

>  <VSA_EState4>
-0.05

>  <VSA_EState5>
-2.43

>  <VSA_EState6>
8.09

>  <VSA_EState7>
1.2

>  <VSA_EState8>
2.82

>  <VSA_EState9>
1.99

>  <apol>
54.56

>  <bpol>
28.15

>  <nRing>
4

>  <nHRing>
2

>  <naRing>
3

>  <naHRing>
1

>  <nARing 2>
1

>  <nAHRing 2>
1

>  <nFRing>
1

>  <nFHRing>
1

>  <nFaRing>
1

>  <nFaHRing>
1

>  <nFARing 2>
0

>  <nFAHRing 2>
0

>  <nRot>
3

>  <SLogP>
2.72

>  <SMR>
106.13

>  <TopoPSA(NO)>
65.78

>  <TopoPSA>
65.78

>  <JGI1>
0.2

>  <JGI2>
0.09

>  <JGI3>
0.04

>  <JGI4>
0.05

>  <JGI5>
0.03

>  <Diameter>
13

>  <Radius>
7

>  <TMWC10>
139.03

>  <TSRW10>
65.01

>  <MW>
399.14

>  <AMW>
8.32

>  <WPath>
2102

>  <WPol>
52

>  <Zagreb1>
158

>  <Zagreb2>
190

>  <mZagreb2>
6.22

>  <yes>


>  <nAR-cont>
0.816016

>  <nHA-cont>
0.785905698

>  <MWHBN>
0.300323021

>  <MWHBN-cont>
0.839772563

>  <TPSA-cont>
0.540814753

>  <pka_cont>
0.97

>  <yes.1>


>  <BBB_SCORE>
4.428210049

>  <MMFF94 Energy>
124.95

$$$$
Compound 1417
Actelion Java MolfileCreator 2.0

  0  0  0  0  0  0              0 V3000
M  V30 BEGIN CTAB
M  V30 COUNTS 41 44 0 0 0
M  V30 BEGIN ATOM
M  V30 1 O -3.1236 -2.0014 -0.48 0
M  V30 2 C -1.844 -1.4977 -0.3921 0
M  V30 3 C -4.1386 -1.2679 0.0993 0
M  V30 4 N -0.9173 -2.1875 -1.0845 0
M  V30 5 C -1.5353 -0.3652 0.3616 0
M  V30 6 C -3.8963 -0.1192 0.8801 0
M  V30 7 C -5.4346 -1.7373 -0.1357 0
M  V30 8 N 0.3854 -1.7591 -1.0764 0
M  V30 9 N -2.5611 0.2782 1.0804 0
M  V30 10 C -0.1993 0.0512 0.3279 0
M  V30 11 C -5.0135 0.5568 1.3909 0
M  V30 12 C -6.5245 -1.0557 0.395 0
M  V30 13 C 0.7595 -0.6451 -0.4089 0
M  V30 14 C -2.2541 1.3987 1.9633 0
M  V30 15 C -6.314 0.0923 1.1535 0
M  V30 16 N 2.0938 -0.2337 -0.432 0
M  V30 17 C 2.3884 1.1861 -0.6801 0
M  V30 18 C 3.0332 -1.1743 -1.0709 0
M  V30 19 C 3.8746 1.505 -0.393 0
M  V30 20 C 4.499 -0.7862 -0.7729 0
M  V30 21 N 4.8044 0.6186 -1.1215 0
M  V30 22 C 6.1914 0.94 -0.7928 0
M  V30 23 H -5.5879 -2.6297 -0.7363 0
M  V30 24 H 0.1148 0.9173 0.8926 0
M  V30 25 H -4.9094 1.4661 1.9736 0
M  V30 26 H -7.5341 -1.4144 0.2125 0
M  V30 27 H -1.2742 1.2951 2.4413 0
M  V30 28 H -2.2762 2.3416 1.4067 0
M  V30 29 H -2.9517 1.4701 2.8047 0
M  V30 30 H -7.164 0.6342 1.5618 0
M  V30 31 H 1.7871 1.847 -0.0476 0
M  V30 32 H 2.1558 1.4283 -1.7253 0
M  V30 33 H 2.8713 -1.1816 -2.1569 0
M  V30 34 H 2.8789 -2.1936 -0.6946 0
M  V30 35 H 4.0607 2.5468 -0.6811 0
M  V30 36 H 4.0484 1.4293 0.6891 0
M  V30 37 H 5.1524 -1.4562 -1.3446 0
M  V30 38 H 4.7011 -0.963 0.2924 0
M  V30 39 H 6.4056 0.8201 0.2753 0
M  V30 40 H 6.8773 0.2976 -1.3559 0
M  V30 41 H 6.4227 1.9727 -1.0764 0
M  V30 END ATOM
M  V30 BEGIN BOND
M  V30 1 1 1 2
M  V30 2 1 1 3
M  V30 3 2 2 4
M  V30 4 1 2 5
M  V30 5 2 3 6
M  V30 6 1 3 7
M  V30 7 1 4 8
M  V30 8 1 5 9
M  V30 9 2 5 10
M  V30 10 1 6 11
M  V30 11 2 7 12
M  V30 12 2 8 13
M  V30 13 1 9 14
M  V30 14 2 11 15
M  V30 15 1 13 16
M  V30 16 1 16 17
M  V30 17 1 16 18
M  V30 18 1 17 19
M  V30 19 1 18 20
M  V30 20 1 19 21
M  V30 21 1 21 22
M  V30 22 1 6 9
M  V30 23 1 10 13
M  V30 24 1 12 15
M  V30 25 1 20 21
M  V30 26 1 7 23
M  V30 27 1 10 24
M  V30 28 1 11 25
M  V30 29 1 12 26
M  V30 30 1 14 27
M  V30 31 1 14 28
M  V30 32 1 14 29
M  V30 33 1 15 30
M  V30 34 1 17 31
M  V30 35 1 17 32
M  V30 36 1 18 33
M  V30 37 1 18 34
M  V30 38 1 19 35
M  V30 39 1 19 36
M  V30 40 1 20 37
M  V30 41 1 20 38
M  V30 42 1 22 39
M  V30 43 1 22 40
M  V30 44 1 22 41
M  V30 END BOND
M  V30 END CTAB
M  END
>  <Column 1>
1693

>  <level_0>
1849

>  <index>
1849

>  <Unnamed: 0>
1849

>  <NO.>
1861

>  <Name>
pipofezine

>  <IUPAC_name>
5-methyl-3-(4-methylpiperazin-1-yl)pyridazino[3-4-b][1-4]benzoxazine

>  <SMILES>
CN1CCN(c2cc3c(nn2)Oc2ccccc2N3C)CC1

>  <CID>
159977

>  <logBB>


>  <BBB+/BBB->
BBB+

>  <Inchi>
InChI=1S/C16H19N5O/c1-19-7-9-21(10-8-19)15-11-13-16(18-17-15)22-14-6-4-3-5-12(14)20(13)2/h3-6-11H-7-10H2-1-2H3

>  <threshold>
-1

>  <reference>
R1|R13|R19|R6|R24|R27|R27|R27|R30|R30|

>  <group>
B

>  <Class>
1

>  <ABC>
17.69

>  <ABCGG>
13.02

>  <nAcid>
0

>  <nBase>
1

>  <nAromAtom>
12

>  <nAromBond>
12

>  <nAtom>
41

>  <nHeavyAtom>
22

>  <nSpiro>
0

>  <nBridgehead>
0

>  <nHetero>
6

>  <nN>
5

>  <nO>
1

>  <nF>
0

>  <BalabanJ>
1.41

>  <BertzCT>
696.69

>  <nBonds>
44

>  <nBondsO>
25

>  <nBondsS>
32

>  <nBondsD>
0

>  <nBondsT>
0

>  <nBondsA>
12

>  <nBondsM>
12

>  <nBondsKS>
38

>  <nBondsKD>
6

>  <RNCG>
0.24

>  <RPCG>
0.14

>  <FCSP3>
0.38

>  <SZ>
26.33

>  <Sm>
24.76

>  <Sv>
25.65

>  <Sse>
41.08

>  <Sp>
27.36

>  <Si>
46.61

>  <MZ>
0.64

>  <Mm>
0.6

>  <Mv>
0.63

>  <Mse>
1

>  <Mp>
0.67

>  <Mi>
1.14

>  <NsCH3>
2

>  <NdCH2>
0

>  <NssCH2>
4

>  <NtCH>
0

>  <NdsCH>
0

>  <NaaCH>
5

>  <NsssCH>
0

>  <NddC>
0

>  <NtsC>
0

>  <NdssC>
0

>  <NaasC>
5

>  <NaaaC>
0

>  <NssssC>
0

>  <NsNH3>
0

>  <NsNH2>
0

>  <NssNH2>
0

>  <NdNH>
0

>  <NssNH>
0

>  <NaaNH>
0

>  <NtN>
0

>  <NsssNH>
0

>  <NdsN>
0

>  <NaaN>
2

>  <NsssN>
3

>  <NddsN>
0

>  <NaasN>
0

>  <NssssN>
0

>  <NsOH>
0

>  <NdO>
0

>  <NssO>
1

>  <NaaO>
0

>  <NsF>
0

>  <NsSiH3>
0

>  <NssSiH2>
0

>  <NsssSiH>
0

>  <NssssSi>
0

>  <NsPH2>
0

>  <NssPH>
0

>  <NsssP>
0

>  <NdsssP>
0

>  <NsssssP>
0

>  <NsSH>
0

>  <NdS>
0

>  <NssS>
0

>  <NaaS>
0

>  <NdssS>
0

>  <NddssS>
0

>  <NsCl>
0

>  <NsBr>
0

>  <NsI>
0

>  <fragCpx>
163.06

>  <fMF>
0.49

>  <nHBAcc>
6

>  <nHBDon>
0

>  <Kier1>
15.52

>  <Kier2>
6.48

>  <Lipinski>
1

>  <GhoseFilter>
1

>  <FilterItLogS>
-3.03

>  <VMcGowan>
222.83

>  <LabuteASA>
129.47

>  <PEOE_VSA1>
19.44

>  <PEOE_VSA2>
0

>  <PEOE_VSA3>
0

>  <PEOE_VSA4>
0

>  <PEOE_VSA5>
10.2

>  <PEOE_VSA6>
12.13

>  <PEOE_VSA7>
19.18

>  <PEOE_VSA8>
39.29

>  <PEOE_VSA9>
5.69

>  <PEOE_VSA10>
5.69

>  <PEOE_VSA11>
11.57

>  <PEOE_VSA12>
0

>  <PEOE_VSA13>
5.88

>  <SMR_VSA1>
4.74

>  <SMR_VSA2>
0

>  <SMR_VSA3>
15.1

>  <SMR_VSA4>
0

>  <SMR_VSA5>
0

>  <SMR_VSA6>
50.07

>  <SMR_VSA7>
30.33

>  <SMR_VSA8>
0

>  <SMR_VSA9>
11.63

>  <SlogP_VSA1>
14.54

>  <SlogP_VSA2>
55.37

>  <SlogP_VSA3>
0

>  <SlogP_VSA4>
0

>  <SlogP_VSA5>
0

>  <SlogP_VSA6>
30.33

>  <SlogP_VSA7>
0

>  <SlogP_VSA8>
0

>  <SlogP_VSA9>
0

>  <SlogP_VSA10>
17.19

>  <SlogP_VSA11>
11.63

>  <EState_VSA1>
0

>  <EState_VSA2>
0

>  <EState_VSA3>
5.88

>  <EState_VSA4>
49.12

>  <EState_VSA5>
0

>  <EState_VSA6>
0

>  <EState_VSA7>
31.31

>  <EState_VSA8>
38.01

>  <EState_VSA9>
4.74

>  <EState_VSA10>
0

>  <VSA_EState1>
5.87

>  <VSA_EState2>
6.72

>  <VSA_EState3>
8.65

>  <VSA_EState4>
2.01

>  <VSA_EState5>
2.31

>  <VSA_EState6>
10.05

>  <VSA_EState7>
0

>  <VSA_EState8>
4.05

>  <VSA_EState9>
4.18

>  <apol>
45.69

>  <bpol>
27.07

>  <nRing>
4

>  <nHRing>
3

>  <naRing>
2

>  <naHRing>
1

>  <nARing 2>
2

>  <nAHRing 2>
2

>  <nFRing>
1

>  <nFHRing>
1

>  <nFaRing>
0

>  <nFaHRing>
0

>  <nFARing 2>
1

>  <nFAHRing 2>
1

>  <nRot>
1

>  <SLogP>
2.1

>  <SMR>
86.32

>  <TopoPSA(NO)>
44.73

>  <TopoPSA>
44.73

>  <JGI1>
0.16

>  <JGI2>
0.08

>  <JGI3>
0.04

>  <JGI4>
0.05

>  <JGI5>
0.03

>  <Diameter>
12

>  <Radius>
6

>  <TMWC10>
122.42

>  <TSRW10>
56.72

>  <MW>
297.16

>  <AMW>
7.25

>  <WPath>
1039

>  <WPol>
38

>  <Zagreb1>
122

>  <Zagreb2>
147

>  <mZagreb2>
4.72

>  <yes>


>  <nAR-cont>
1

>  <nHA-cont>
0.983774276

>  <MWHBN>
0.348061571

>  <MWHBN-cont>
0.677481103

>  <TPSA-cont>
0.687756824

>  <pka_cont>
0.97

>  <yes.1>


>  <BBB_SCORE>
4.860509579

>  <MMFF94 Energy>
147.71

$$$$
Compound 1418
Actelion Java MolfileCreator 2.0

  0  0  0  0  0  0              0 V3000
M  V30 BEGIN CTAB
M  V30 COUNTS 42 44 0 0 0
M  V30 BEGIN ATOM
M  V30 1 N -0.554 -0.1582 -0.8708 0
M  V30 2 C 0.5967 0.3315 -1.4891 0
M  V30 3 C -1.8051 -0.0353 -1.6289 0
M  V30 4 C -0.3812 -1.4054 -0.1098 0
M  V30 5 C 1.2546 1.4702 -0.9817 0
M  V30 6 C 1.123 -0.2999 -2.6283 0
M  V30 7 C -3.0189 -0.3849 -0.7351 0
M  V30 8 C -1.6453 -1.7175 0.7267 0
M  V30 9 C 2.4132 1.9448 -1.6269 0
M  V30 10 C 0.7461 2.2037 0.2443 0
M  V30 11 C 2.2727 0.1793 -3.2576 0
M  V30 12 N -2.9312 -1.6746 -0.0109 0
M  V30 13 C 2.9181 1.3032 -2.7565 0
M  V30 14 C 1.0766 1.555 1.5725 0
M  V30 15 C -3.0652 -2.8112 -0.9186 0
M  V30 16 C 2.3972 1.2407 1.9243 0
M  V30 17 C 0.0547 1.2934 2.4974 0
M  V30 18 C 2.6851 0.6612 3.1618 0
M  V30 19 C 0.3432 0.7139 3.7343 0
M  V30 20 C 1.6584 0.3968 4.0657 0
M  V30 21 H -1.9262 0.9933 -1.9908 0
M  V30 22 H -1.7882 -0.6947 -2.505 0
M  V30 23 H 0.4752 -1.3243 0.57 0
M  V30 24 H -0.1781 -2.2387 -0.7937 0
M  V30 25 H 0.633 -1.1818 -3.0317 0
M  V30 26 H -3.1328 0.408 0.0163 0
M  V30 27 H -3.9365 -0.355 -1.3356 0
M  V30 28 H -1.7129 -0.9859 1.5416 0
M  V30 29 H -1.5278 -2.6916 1.2173 0
M  V30 30 H 2.9292 2.823 -1.2448 0
M  V30 31 H -0.3386 2.3405 0.1425 0
M  V30 32 H 1.1518 3.2244 0.2621 0
M  V30 33 H 2.6613 -0.327 -4.1366 0
M  V30 34 H 3.8136 1.6807 -3.2423 0
M  V30 35 H -4.0362 -2.7796 -1.4253 0
M  V30 36 H -2.2844 -2.853 -1.6844 0
M  V30 37 H -3.0391 -3.751 -0.356 0
M  V30 38 H 3.2122 1.4396 1.2329 0
M  V30 39 H -0.9781 1.5308 2.2515 0
M  V30 40 H 3.7122 0.4167 3.4188 0
M  V30 41 H -0.4598 0.5107 4.4376 0
M  V30 42 H 1.8835 -0.0538 5.0284 0
M  V30 END ATOM
M  V30 BEGIN BOND
M  V30 1 1 1 2
M  V30 2 1 1 3
M  V30 3 1 1 4
M  V30 4 2 2 5
M  V30 5 1 2 6
M  V30 6 1 3 7
M  V30 7 1 4 8
M  V30 8 1 5 9
M  V30 9 1 5 10
M  V30 10 2 6 11
M  V30 11 1 7 12
M  V30 12 2 9 13
M  V30 13 1 10 14
M  V30 14 1 12 15
M  V30 15 2 14 16
M  V30 16 1 14 17
M  V30 17 1 16 18
M  V30 18 2 17 19
M  V30 19 2 18 20
M  V30 20 1 8 12
M  V30 21 1 11 13
M  V30 22 1 19 20
M  V30 23 1 3 21
M  V30 24 1 3 22
M  V30 25 1 4 23
M  V30 26 1 4 24
M  V30 27 1 6 25
M  V30 28 1 7 26
M  V30 29 1 7 27
M  V30 30 1 8 28
M  V30 31 1 8 29
M  V30 32 1 9 30
M  V30 33 1 10 31
M  V30 34 1 10 32
M  V30 35 1 11 33
M  V30 36 1 13 34
M  V30 37 1 15 35
M  V30 38 1 15 36
M  V30 39 1 15 37
M  V30 40 1 16 38
M  V30 41 1 17 39
M  V30 42 1 18 40
M  V30 43 1 19 41
M  V30 44 1 20 42
M  V30 END BOND
M  V30 END CTAB
M  END
>  <Column 1>
1694

>  <level_0>
1850

>  <index>
1850

>  <Unnamed: 0>
1850

>  <NO.>
1862

>  <Name>
sifaprazine

>  <IUPAC_name>
1-(2-benzylphenyl)-4-methylpiperazine

>  <SMILES>
CN1CCN(c2ccccc2Cc2ccccc2)CC1

>  <CID>
3058753

>  <logBB>


>  <BBB+/BBB->
BBB+

>  <Inchi>
InChI=1S/C18H22N2/c1-19-11-13-20(14-12-19)18-10-6-5-9-17(18)15-16-7-3-2-4-8-16/h2-10H-11-15H2-1H3

>  <threshold>
-1

>  <reference>
R1|R13|R19|R6|R24|R27|R27|R27|R30|R30|

>  <group>
B

>  <Class>
1

>  <ABC>
15.58

>  <ABCGG>
12.3

>  <nAcid>
0

>  <nBase>
1

>  <nAromAtom>
12

>  <nAromBond>
12

>  <nAtom>
42

>  <nHeavyAtom>
20

>  <nSpiro>
0

>  <nBridgehead>
0

>  <nHetero>
2

>  <nN>
2

>  <nO>
0

>  <nF>
0

>  <BalabanJ>
1.55

>  <BertzCT>
542.35

>  <nBonds>
44

>  <nBondsO>
22

>  <nBondsS>
32

>  <nBondsD>
0

>  <nBondsT>
0

>  <nBondsA>
12

>  <nBondsM>
12

>  <nBondsKS>
38

>  <nBondsKD>
6

>  <RNCG>
0.29

>  <RPCG>
0.05

>  <FCSP3>
0.33

>  <SZ>
24

>  <Sm>
22.18

>  <Sv>
25.48

>  <Sse>
41.09

>  <Sp>
28.1

>  <Si>
47.15

>  <MZ>
0.57

>  <Mm>
0.53

>  <Mv>
0.61

>  <Mse>
0.98

>  <Mp>
0.67

>  <Mi>
1.12

>  <NsCH3>
1

>  <NdCH2>
0

>  <NssCH2>
5

>  <NtCH>
0

>  <NdsCH>
0

>  <NaaCH>
9

>  <NsssCH>
0

>  <NddC>
0

>  <NtsC>
0

>  <NdssC>
0

>  <NaasC>
3

>  <NaaaC>
0

>  <NssssC>
0

>  <NsNH3>
0

>  <NsNH2>
0

>  <NssNH2>
0

>  <NdNH>
0

>  <NssNH>
0

>  <NaaNH>
0

>  <NtN>
0

>  <NsssNH>
0

>  <NdsN>
0

>  <NaaN>
0

>  <NsssN>
2

>  <NddsN>
0

>  <NaasN>
0

>  <NssssN>
0

>  <NsOH>
0

>  <NdO>
0

>  <NssO>
0

>  <NaaO>
0

>  <NsF>
0

>  <NsSiH3>
0

>  <NssSiH2>
0

>  <NsssSiH>
0

>  <NssssSi>
0

>  <NsPH2>
0

>  <NssPH>
0

>  <NsssP>
0

>  <NdsssP>
0

>  <NsssssP>
0

>  <NsSH>
0

>  <NdS>
0

>  <NssS>
0

>  <NaaS>
0

>  <NdssS>
0

>  <NddssS>
0

>  <NsCl>
0

>  <NsBr>
0

>  <NsI>
0

>  <fragCpx>
104.02

>  <fMF>
0.45

>  <nHBAcc>
2

>  <nHBDon>
0

>  <Kier1>
14.92

>  <Kier2>
7.32

>  <Lipinski>
1

>  <GhoseFilter>
1

>  <FilterItLogS>
-4.13

>  <VMcGowan>
226.06

>  <LabuteASA>
121.19

>  <PEOE_VSA1>
9.8

>  <PEOE_VSA2>
0

>  <PEOE_VSA3>
0

>  <PEOE_VSA4>
0

>  <PEOE_VSA5>
0

>  <PEOE_VSA6>
48.53

>  <PEOE_VSA7>
30.66

>  <PEOE_VSA8>
31.87

>  <PEOE_VSA9>
0

>  <PEOE_VSA10>
0

>  <PEOE_VSA11>
0

>  <PEOE_VSA12>
0

>  <PEOE_VSA13>
0

>  <SMR_VSA1>
0

>  <SMR_VSA2>
0

>  <SMR_VSA3>
4.9

>  <SMR_VSA4>
0

>  <SMR_VSA5>
6.42

>  <SMR_VSA6>
38.13

>  <SMR_VSA7>
65.72

>  <SMR_VSA8>
0

>  <SMR_VSA9>
0

>  <SlogP_VSA1>
4.9

>  <SlogP_VSA2>
38.13

>  <SlogP_VSA3>
6.42

>  <SlogP_VSA4>
0

>  <SlogP_VSA5>
11.13

>  <SlogP_VSA6>
54.6

>  <SlogP_VSA7>
0

>  <SlogP_VSA8>
0

>  <SlogP_VSA9>
0

>  <SlogP_VSA10>
5.69

>  <SlogP_VSA11>
0

>  <EState_VSA1>
0

>  <EState_VSA2>
0

>  <EState_VSA3>
0

>  <EState_VSA4>
32.6

>  <EState_VSA5>
16.81

>  <EState_VSA6>
0

>  <EState_VSA7>
0

>  <EState_VSA8>
71.44

>  <EState_VSA9>
0

>  <EState_VSA10>
0

>  <VSA_EState1>
0

>  <VSA_EState2>
4.93

>  <VSA_EState3>
0

>  <VSA_EState4>
4.22

>  <VSA_EState5>
0

>  <VSA_EState6>
19.57

>  <VSA_EState7>
1.02

>  <VSA_EState8>
4.56

>  <VSA_EState9>
2.2

>  <apol>
46.93

>  <bpol>
25.49

>  <nRing>
3

>  <nHRing>
1

>  <naRing>
2

>  <naHRing>
0

>  <nARing 2>
1

>  <nAHRing 2>
1

>  <nFRing>
0

>  <nFHRing>
0

>  <nFaRing>
0

>  <nFaHRing>
0

>  <nFARing 2>
0

>  <nFAHRing 2>
0

>  <nRot>
3

>  <SLogP>
3.03

>  <SMR>
85.4

>  <TopoPSA(NO)>
6.48

>  <TopoPSA>
6.48

>  <JGI1>
0.14

>  <JGI2>
0.06

>  <JGI3>
0.03

>  <JGI4>
0.03

>  <JGI5>
0.02

>  <Diameter>
11

>  <Radius>
6

>  <TMWC10>
114.16

>  <TSRW10>
53.35

>  <MW>
266.18

>  <AMW>
6.34

>  <WPath>
832

>  <WPol>
28

>  <Zagreb1>
102

>  <Zagreb2>
117

>  <mZagreb2>
4.47

>  <yes>


>  <nAR-cont>
0.816016

>  <nHA-cont>
0.999629945

>  <MWHBN>
0.122586398

>  <MWHBN-cont>
0.840328662

>  <TPSA-cont>
0.954765576

>  <pka_cont>
0.97

>  <yes.1>


>  <BBB_SCORE>
5.47067009

>  <MMFF94 Energy>
130.94

$$$$
Compound 1419
Actelion Java MolfileCreator 2.0

  0  0  0  0  0  0              0 V3000
M  V30 BEGIN CTAB
M  V30 COUNTS 39 41 0 0 0
M  V30 BEGIN ATOM
M  V30 1 Cl 2.0503 -4.1037 -0.6557 0
M  V30 2 C 0.5475 -4.3533 -1.4918 0
M  V30 3 C 0.2729 -5.5884 -2.1052 0
M  V30 4 C -0.4008 -3.3086 -1.5521 0
M  V30 5 Cl 1.3876 -6.9114 -2.0684 0
M  V30 6 C -0.934 -5.7931 -2.7772 0
M  V30 7 C -0.1807 -1.9948 -0.9355 0
M  V30 8 C -1.6117 -3.5383 -2.2336 0
M  V30 9 C -1.8699 -4.7676 -2.8372 0
M  V30 10 C -0.4703 -1.6932 0.3857 0
M  V30 11 C 0.3215 -0.9319 -1.6562 0
M  V30 12 Cl -3.3578 -5.0171 -3.6623 0
M  V30 13 N -0.3119 -0.466 0.9069 0
M  V30 14 N -1.0097 -2.6323 1.2523 0
M  V30 15 N 0.5108 0.3035 -1.156 0
M  V30 16 C 0.1824 0.5109 0.128 0
M  V30 17 N 0.3703 1.768 0.6696 0
M  V30 18 C 0.5837 2.8819 -0.2544 0
M  V30 19 C -0.3049 2.0714 1.9314 0
M  V30 20 C 1.1229 4.1292 0.481 0
M  V30 21 C 0.2679 3.3492 2.5844 0
M  V30 22 N 0.3118 4.5024 1.6599 0
M  V30 23 C 0.8804 5.6728 2.3249 0
M  V30 24 H -1.1432 -6.7495 -3.2504 0
M  V30 25 H -2.3625 -2.7494 -2.2843 0
M  V30 26 H 0.5959 -1.0381 -2.7023 0
M  V30 27 H -1.185 -2.2437 2.1718 0
M  V30 28 H -0.6345 -3.5688 1.2237 0
M  V30 29 H 1.3138 2.6256 -1.0318 0
M  V30 30 H -0.363 3.1313 -0.7507 0
M  V30 31 H -1.3789 2.2048 1.7481 0
M  V30 32 H -0.1862 1.2577 2.6574 0
M  V30 33 H 1.1406 4.9632 -0.2311 0
M  V30 34 H 2.1618 3.9381 0.7832 0
M  V30 35 H -0.356 3.5974 3.4516 0
M  V30 36 H 1.2762 3.13 2.962 0
M  V30 37 H 0.8918 6.5318 1.6449 0
M  V30 38 H 1.9038 5.4979 2.676 0
M  V30 39 H 0.2659 5.9607 3.1852 0
M  V30 END ATOM
M  V30 BEGIN BOND
M  V30 1 1 1 2
M  V30 2 2 2 3
M  V30 3 1 2 4
M  V30 4 1 3 5
M  V30 5 1 3 6
M  V30 6 1 4 7
M  V30 7 2 4 8
M  V30 8 2 6 9
M  V30 9 2 7 10
M  V30 10 1 7 11
M  V30 11 1 9 12
M  V30 12 1 10 13
M  V30 13 1 10 14
M  V30 14 2 11 15
M  V30 15 2 13 16
M  V30 16 1 16 17
M  V30 17 1 17 18
M  V30 18 1 17 19
M  V30 19 1 18 20
M  V30 20 1 19 21
M  V30 21 1 20 22
M  V30 22 1 22 23
M  V30 23 1 8 9
M  V30 24 1 15 16
M  V30 25 1 21 22
M  V30 26 1 6 24
M  V30 27 1 8 25
M  V30 28 1 11 26
M  V30 29 1 14 27
M  V30 30 1 14 28
M  V30 31 1 18 29
M  V30 32 1 18 30
M  V30 33 1 19 31
M  V30 34 1 19 32
M  V30 35 1 20 33
M  V30 36 1 20 34
M  V30 37 1 21 35
M  V30 38 1 21 36
M  V30 39 1 23 37
M  V30 40 1 23 38
M  V30 41 1 23 39
M  V30 END BOND
M  V30 END CTAB
M  END
>  <Column 1>
1695

>  <level_0>
1851

>  <index>
1851

>  <Unnamed: 0>
1851

>  <NO.>
1863

>  <Name>
sipatrigine

>  <IUPAC_name>
2-(4-methylpiperazin-1-yl)-5-(2-3-5-trichlorophenyl)pyrimidin-4-amine

>  <SMILES>
CN1CCN(c2ncc(-c3cc(Cl)cc(Cl)c3Cl)c(N)n2)CC1

>  <CID>
60803

>  <logBB>


>  <BBB+/BBB->
BBB+

>  <Inchi>
InChI=1S/C15H16Cl3N5/c1-22-2-4-23(5-3-22)15-20-8-11(14(19)21-15)10-6-9(16)7-12(17)13(10)18/h6-8H-2-5H2-1H3-(H2-19-20-21)

>  <threshold>
-1

>  <reference>
R1|R13|R19|R6|R24|R27|R27|R27|R30|R30|

>  <group>
B

>  <Class>
1

>  <ABC>
18.02

>  <ABCGG>
14.27

>  <nAcid>
0

>  <nBase>
1

>  <nAromAtom>
12

>  <nAromBond>
12

>  <nAtom>
39

>  <nHeavyAtom>
23

>  <nSpiro>
0

>  <nBridgehead>
0

>  <nHetero>
8

>  <nN>
5

>  <nO>
0

>  <nF>
0

>  <BalabanJ>
1.58

>  <BertzCT>
729.29

>  <nBonds>
41

>  <nBondsO>
25

>  <nBondsS>
29

>  <nBondsD>
0

>  <nBondsT>
0

>  <nBondsA>
12

>  <nBondsM>
12

>  <nBondsKS>
35

>  <nBondsKD>
6

>  <RNCG>
0.22

>  <RPCG>
0.13

>  <FCSP3>
0.33

>  <SZ>
32

>  <Sm>
31.03

>  <Sv>
26.4

>  <Sse>
39.71

>  <Sp>
28.6

>  <Si>
44.23

>  <MZ>
0.82

>  <Mm>
0.8

>  <Mv>
0.68

>  <Mse>
1.02

>  <Mp>
0.73

>  <Mi>
1.13

>  <NsCH3>
1

>  <NdCH2>
0

>  <NssCH2>
4

>  <NtCH>
0

>  <NdsCH>
0

>  <NaaCH>
3

>  <NsssCH>
0

>  <NddC>
0

>  <NtsC>
0

>  <NdssC>
0

>  <NaasC>
7

>  <NaaaC>
0

>  <NssssC>
0

>  <NsNH3>
0

>  <NsNH2>
1

>  <NssNH2>
0

>  <NdNH>
0

>  <NssNH>
0

>  <NaaNH>
0

>  <NtN>
0

>  <NsssNH>
0

>  <NdsN>
0

>  <NaaN>
2

>  <NsssN>
2

>  <NddsN>
0

>  <NaasN>
0

>  <NssssN>
0

>  <NsOH>
0

>  <NdO>
0

>  <NssO>
0

>  <NaaO>
0

>  <NsF>
0

>  <NsSiH3>
0

>  <NssSiH2>
0

>  <NsssSiH>
0

>  <NssssSi>
0

>  <NsPH2>
0

>  <NssPH>
0

>  <NsssP>
0

>  <NdsssP>
0

>  <NsssssP>
0

>  <NsSH>
0

>  <NdS>
0

>  <NssS>
0

>  <NaaS>
0

>  <NdssS>
0

>  <NddssS>
0

>  <NsCl>
3

>  <NsBr>
0

>  <NsI>
0

>  <fragCpx>
119.08

>  <fMF>
0.46

>  <nHBAcc>
5

>  <nHBDon>
1

>  <Kier1>
17.81

>  <Kier2>
7.49

>  <Lipinski>
1

>  <GhoseFilter>
1

>  <FilterItLogS>
-5.32

>  <VMcGowan>
250.45

>  <LabuteASA>
149.52

>  <PEOE_VSA1>
15.53

>  <PEOE_VSA2>
0

>  <PEOE_VSA3>
4.98

>  <PEOE_VSA4>
4.98

>  <PEOE_VSA5>
0

>  <PEOE_VSA6>
34.8

>  <PEOE_VSA7>
19.18

>  <PEOE_VSA8>
48.53

>  <PEOE_VSA9>
10.05

>  <PEOE_VSA10>
5.82

>  <PEOE_VSA11>
0

>  <PEOE_VSA12>
5.95

>  <PEOE_VSA13>
0

>  <SMR_VSA1>
0

>  <SMR_VSA2>
0

>  <SMR_VSA3>
14.87

>  <SMR_VSA4>
0

>  <SMR_VSA5>
0

>  <SMR_VSA6>
43.86

>  <SMR_VSA7>
33.4

>  <SMR_VSA8>
0

>  <SMR_VSA9>
11.13

>  <SlogP_VSA1>
10.63

>  <SlogP_VSA2>
48.09

>  <SlogP_VSA3>
0

>  <SlogP_VSA4>
0

>  <SlogP_VSA5>
0

>  <SlogP_VSA6>
18.33

>  <SlogP_VSA7>
15.07

>  <SlogP_VSA8>
11.13

>  <SlogP_VSA9>
0

>  <SlogP_VSA10>
11.77

>  <SlogP_VSA11>
0

>  <EState_VSA1>
0

>  <EState_VSA2>
0

>  <EState_VSA3>
37.96

>  <EState_VSA4>
26.18

>  <EState_VSA5>
0

>  <EState_VSA6>
18.33

>  <EState_VSA7>
0

>  <EState_VSA8>
26.82

>  <EState_VSA9>
40.54

>  <EState_VSA10>
0

>  <VSA_EState1>
0

>  <VSA_EState2>
13.25

>  <VSA_EState3>
1.24

>  <VSA_EState4>
7.38

>  <VSA_EState5>
0.98

>  <VSA_EState6>
3.3

>  <VSA_EState7>
1.67

>  <VSA_EState8>
3.69

>  <VSA_EState9>
2.1

>  <apol>
47.76

>  <bpol>
22.71

>  <nRing>
3

>  <nHRing>
2

>  <naRing>
2

>  <naHRing>
1

>  <nARing 2>
1

>  <nAHRing 2>
1

>  <nFRing>
0

>  <nFHRing>
0

>  <nFaRing>
0

>  <nFaHRing>
0

>  <nFARing 2>
0

>  <nFAHRing 2>
0

>  <nRot>
2

>  <SLogP>
3.44

>  <SMR>
96.62

>  <TopoPSA(NO)>
58.28

>  <TopoPSA>
58.28

>  <JGI1>
0.22

>  <JGI2>
0.09

>  <JGI3>
0.05

>  <JGI4>
0.05

>  <JGI5>
0.03

>  <Diameter>
12

>  <Radius>
6

>  <TMWC10>
122.85

>  <TSRW10>
57.57

>  <MW>
371.05

>  <AMW>
9.51

>  <WPath>
1224

>  <WPol>
38

>  <Zagreb1>
122

>  <Zagreb2>
144

>  <mZagreb2>
4.97

>  <yes>


>  <nAR-cont>
0.816016

>  <nHA-cont>
0.967789328

>  <MWHBN>
0.31148349

>  <MWHBN-cont>
0.805128004

>  <TPSA-cont>
0.59316941

>  <pka_cont>
0.97

>  <yes.1>


>  <BBB_SCORE>
4.662836155

>  <MMFF94 Energy>
-0.51401

$$$$
Compound 1420
Actelion Java MolfileCreator 2.0

  0  0  0  0  0  0              0 V3000
M  V30 BEGIN CTAB
M  V30 COUNTS 40 43 0 0 0
M  V30 BEGIN ATOM
M  V30 1 S -1.6335 -1.8787 3.4327 0
M  V30 2 C -0.3532 -1.5865 2.3248 0
M  V30 3 C -1.1884 -3.516 3.6306 0
M  V30 4 C -0.171 -0.2565 1.7429 0
M  V30 5 C 0.3831 -2.74 2.1096 0
M  V30 6 C -0.0956 -3.8499 2.8654 0
M  V30 7 N -1.2045 0.5148 1.6228 0
M  V30 8 C 1.2096 0.1262 1.3074 0
M  V30 9 C -0.9983 1.8237 0.9974 0
M  V30 10 C 1.4342 0.6168 0.0015 0
M  V30 11 C 2.2659 -0.0335 2.2245 0
M  V30 12 C -0.744 1.704 -0.5186 0 CFG=1
M  V30 13 N 0.3932 0.8122 -0.8904 0
M  V30 14 C 2.7631 0.8929 -0.3557 0
M  V30 15 C 3.5696 0.2632 1.8411 0
M  V30 16 C -2.0338 1.2398 -1.2536 0
M  V30 17 C 0.589 0.659 -2.3401 0
M  V30 18 C 3.8058 0.7177 0.5526 0
M  V30 19 N -1.8516 1.1749 -2.7266 0
M  V30 20 C -0.7347 0.2539 -3.0303 0
M  V30 21 F 5.0592 1.0038 0.1766 0
M  V30 22 C -3.0822 0.7171 -3.3695 0
M  V30 23 H -1.7553 -4.1552 4.2934 0
M  V30 24 H 1.2248 -2.7951 1.4295 0
M  V30 25 H 0.3352 -4.8432 2.8421 0
M  V30 26 H -0.1882 2.3732 1.4945 0
M  V30 27 H -1.8989 2.4256 1.1685 0
M  V30 28 H 2.0735 -0.3868 3.2351 0
M  V30 29 H -0.4983 2.7137 -0.8775 0
M  V30 30 H 3.0098 1.2785 -1.3397 0
M  V30 31 H 4.3971 0.1443 2.533 0
M  V30 32 H -2.8391 1.9501 -1.0281 0
M  V30 33 H -2.3442 0.2576 -0.8721 0
M  V30 34 H 1.3283 -0.123 -2.552 0
M  V30 35 H 0.9593 1.6003 -2.7647 0
M  V30 36 H -0.5617 0.2339 -4.113 0
M  V30 37 H -0.9936 -0.7682 -2.7215 0
M  V30 38 H -3.384 -0.2807 -3.0314 0
M  V30 39 H -3.9032 1.4131 -3.1645 0
M  V30 40 H -2.9578 0.6891 -4.4575 0
M  V30 END ATOM
M  V30 BEGIN BOND
M  V30 1 1 1 2
M  V30 2 1 1 3
M  V30 3 1 2 4
M  V30 4 2 2 5
M  V30 5 2 3 6
M  V30 6 2 4 7
M  V30 7 1 4 8
M  V30 8 1 7 9
M  V30 9 2 8 10
M  V30 10 1 8 11
M  V30 11 1 9 12
M  V30 12 1 10 13
M  V30 13 1 10 14
M  V30 14 2 11 15
M  V30 15 1 12 16
M  V30 16 1 13 17
M  V30 17 2 14 18
M  V30 18 1 16 19
M  V30 19 1 17 20
M  V30 20 1 18 21
M  V30 21 1 19 22
M  V30 22 1 5 6
M  V30 23 1 12 13
M  V30 24 1 15 18
M  V30 25 1 19 20
M  V30 26 1 3 23
M  V30 27 1 5 24
M  V30 28 1 6 25
M  V30 29 1 9 26
M  V30 30 1 9 27
M  V30 31 1 11 28
M  V30 32 1 12 29
M  V30 33 1 14 30
M  V30 34 1 15 31
M  V30 35 1 16 32
M  V30 36 1 16 33
M  V30 37 1 17 34
M  V30 38 1 17 35
M  V30 39 1 20 36
M  V30 40 1 20 37
M  V30 41 1 22 38
M  V30 42 1 22 39
M  V30 43 1 22 40
M  V30 END BOND
M  V30 BEGIN COLLECTION
M  V30 MDLV30/STERAC1 ATOMS=(1 12)
M  V30 END COLLECTION
M  V30 END CTAB
M  END
>  <Column 1>
1696

>  <level_0>
1852

>  <index>
1852

>  <Unnamed: 0>
1852

>  <NO.>
1864

>  <Name>
timelotem

>  <IUPAC_name>
10-fluoro-3-methyl-7-thiophen-2-yl-2-4-4a-5-tetrahydro-1h-pyrazino[1-2-a][1-4]benzodiazepine

>  <SMILES>
CN1CCN2c3cc(F)ccc3C(c3cccs3)=NCC2C1

>  <CID>
65844

>  <logBB>


>  <BBB+/BBB->
BBB+

>  <Inchi>
InChI=1S/C17H18FN3S/c1-20-6-7-21-13(11-20)10-19-17(16-3-2-8-22-16)14-5-4-12(18)9-15(14)21/h2-5-8-9-13H-6-7-10-11H2-1H3

>  <threshold>
-1

>  <reference>
R1|R19|R6|R27|R27|R30|

>  <group>
B

>  <Class>
1

>  <ABC>
17.69

>  <ABCGG>
14.21

>  <nAcid>
0

>  <nBase>
1

>  <nAromAtom>
11

>  <nAromBond>
11

>  <nAtom>
40

>  <nHeavyAtom>
22

>  <nSpiro>
0

>  <nBridgehead>
0

>  <nHetero>
5

>  <nN>
3

>  <nO>
0

>  <nF>
1

>  <BalabanJ>
1.58

>  <BertzCT>
710.7

>  <nBonds>
43

>  <nBondsO>
25

>  <nBondsS>
31

>  <nBondsD>
1

>  <nBondsT>
0

>  <nBondsA>
11

>  <nBondsM>
12

>  <nBondsKS>
37

>  <nBondsKD>
6

>  <RNCG>
0.24

>  <RPCG>
0.08

>  <FCSP3>
0.35

>  <SZ>
27.67

>  <Sm>
26.26

>  <Sv>
25.98

>  <Sse>
40.01

>  <Sp>
28.23

>  <Si>
45.08

>  <MZ>
0.69

>  <Mm>
0.66

>  <Mv>
0.65

>  <Mse>
1

>  <Mp>
0.71

>  <Mi>
1.13

>  <NsCH3>
1

>  <NdCH2>
0

>  <NssCH2>
4

>  <NtCH>
0

>  <NdsCH>
0

>  <NaaCH>
6

>  <NsssCH>
1

>  <NddC>
0

>  <NtsC>
0

>  <NdssC>
1

>  <NaasC>
4

>  <NaaaC>
0

>  <NssssC>
0

>  <NsNH3>
0

>  <NsNH2>
0

>  <NssNH2>
0

>  <NdNH>
0

>  <NssNH>
0

>  <NaaNH>
0

>  <NtN>
0

>  <NsssNH>
0

>  <NdsN>
1

>  <NaaN>
0

>  <NsssN>
2

>  <NddsN>
0

>  <NaasN>
0

>  <NssssN>
0

>  <NsOH>
0

>  <NdO>
0

>  <NssO>
0

>  <NaaO>
0

>  <NsF>
1

>  <NsSiH3>
0

>  <NssSiH2>
0

>  <NsssSiH>
0

>  <NssssSi>
0

>  <NsPH2>
0

>  <NssPH>
0

>  <NsssP>
0

>  <NdsssP>
0

>  <NsssssP>
0

>  <NsSH>
0

>  <NdS>
0

>  <NssS>
0

>  <NaaS>
1

>  <NdssS>
0

>  <NddssS>
0

>  <NsCl>
0

>  <NsBr>
0

>  <NsI>
0

>  <fragCpx>
163.05

>  <fMF>
0.5

>  <nHBAcc>
4

>  <nHBDon>
0

>  <Kier1>
15.52

>  <Kier2>
6.48

>  <Lipinski>
1

>  <GhoseFilter>
1

>  <FilterItLogS>
-4.06

>  <VMcGowan>
229.2

>  <LabuteASA>
133.25

>  <PEOE_VSA1>
9.8

>  <PEOE_VSA2>
4.99

>  <PEOE_VSA3>
4.39

>  <PEOE_VSA4>
0

>  <PEOE_VSA5>
11.34

>  <PEOE_VSA6>
6.07

>  <PEOE_VSA7>
36.69

>  <PEOE_VSA8>
30.89

>  <PEOE_VSA9>
23.18

>  <PEOE_VSA10>
5.82

>  <PEOE_VSA11>
0

>  <PEOE_VSA12>
0

>  <PEOE_VSA13>
0

>  <SMR_VSA1>
4.39

>  <SMR_VSA2>
0

>  <SMR_VSA3>
4.9

>  <SMR_VSA4>
4.99

>  <SMR_VSA5>
6.04

>  <SMR_VSA6>
38.13

>  <SMR_VSA7>
51.97

>  <SMR_VSA8>
0

>  <SMR_VSA9>
0

>  <SlogP_VSA1>
4.9

>  <SlogP_VSA2>
49.88

>  <SlogP_VSA3>
0

>  <SlogP_VSA4>
5.82

>  <SlogP_VSA5>
10.44

>  <SlogP_VSA6>
40.7

>  <SlogP_VSA7>
0

>  <SlogP_VSA8>
0

>  <SlogP_VSA9>
0

>  <SlogP_VSA10>
10.08

>  <SlogP_VSA11>
0

>  <EState_VSA1>
0

>  <EState_VSA2>
5.82

>  <EState_VSA3>
6.04

>  <EState_VSA4>
48.02

>  <EState_VSA5>
0

>  <EState_VSA6>
23.47

>  <EState_VSA7>
12.13

>  <EState_VSA8>
28.29

>  <EState_VSA9>
4.99

>  <EState_VSA10>
4.39

>  <VSA_EState1>
13.86

>  <VSA_EState2>
10.71

>  <VSA_EState3>
2.06

>  <VSA_EState4>
3.04

>  <VSA_EState5>
-0.18

>  <VSA_EState6>
9.53

>  <VSA_EState7>
0

>  <VSA_EState8>
3.65

>  <VSA_EState9>
2.14

>  <apol>
47.15

>  <bpol>
26.19

>  <nRing>
4

>  <nHRing>
3

>  <naRing>
2

>  <naHRing>
1

>  <nARing 2>
2

>  <nAHRing 2>
2

>  <nFRing>
1

>  <nFHRing>
1

>  <nFaRing>
0

>  <nFaHRing>
0

>  <nFARing 2>
1

>  <nFAHRing 2>
1

>  <nRot>
1

>  <SLogP>
2.86

>  <SMR>
89.86

>  <TopoPSA(NO)>
18.84

>  <TopoPSA>
47.08

>  <JGI1>
0.16

>  <JGI2>
0.07

>  <JGI3>
0.04

>  <JGI4>
0.04

>  <JGI5>
0.02

>  <Diameter>
9

>  <Radius>
5

>  <TMWC10>
122.62

>  <TSRW10>
70.18

>  <MW>
315.12

>  <AMW>
7.88

>  <WPath>
931

>  <WPol>
39

>  <Zagreb1>
122

>  <Zagreb2>
147

>  <mZagreb2>
4.72

>  <yes>


>  <nAR-cont>
1

>  <nHA-cont>
0.983774276

>  <MWHBN>
0.225331552

>  <MWHBN-cont>
0.991057446

>  <TPSA-cont>
0.671352365

>  <pka_cont>
0.97

>  <yes.1>


>  <BBB_SCORE>
5.298065175

>  <MMFF94 Energy>
183.44

$$$$
Compound 1421
Actelion Java MolfileCreator 2.0

  0  0  0  0  0  0              0 V3000
M  V30 BEGIN CTAB
M  V30 COUNTS 38 41 0 0 0
M  V30 BEGIN ATOM
M  V30 1 N -0.3199 -0.7999 -0.1599 0
M  V30 2 C 0.536 -1.0021 -1.2407 0
M  V30 3 C -0.8172 0.5763 0.1368 0 CFG=2
M  V30 4 C -1.2737 -1.8735 0.1751 0
M  V30 5 C 1.8244 -0.4321 -1.2333 0
M  V30 6 C 0.1784 -1.7859 -2.3492 0
M  V30 7 C 0.1221 1.7566 -0.0205 0
M  V30 8 C -1.3885 0.6165 1.6049 0
M  V30 9 C -1.7568 -1.7575 1.635 0
M  V30 10 C 2.7068 -0.6384 -2.3089 0
M  V30 11 C 2.249 0.4142 -0.0641 0
M  V30 12 C 1.0588 -1.9924 -3.4157 0
M  V30 13 N 1.4949 1.658 -0.0639 0
M  V30 14 C -0.1858 3.1039 -0.1381 0
M  V30 15 N -2.3755 -0.4477 1.9133 0
M  V30 16 C 2.3236 -1.4182 -3.3956 0
M  V30 17 C 2.0493 2.9096 -0.1648 0
M  V30 18 C 1.0257 3.8266 -0.2185 0
M  V30 19 C -2.8017 -0.3625 3.3084 0
M  V30 20 H -1.659 0.7571 -0.5483 0
M  V30 21 H -0.8002 -2.8568 0.0612 0
M  V30 22 H -2.1376 -1.8316 -0.5006 0
M  V30 23 H -0.8088 -2.234 -2.4128 0
M  V30 24 H -1.8701 1.59 1.7672 0
M  V30 25 H -0.547 0.5566 2.311 0
M  V30 26 H -2.4884 -2.5539 1.8172 0
M  V30 27 H -0.9068 -1.9315 2.3087 0
M  V30 28 H 3.6954 -0.1857 -2.3042 0
M  V30 29 H 3.3162 0.6585 -0.1132 0
M  V30 30 H 2.0729 -0.0903 0.8928 0
M  V30 31 H 0.7482 -2.5966 -4.2637 0
M  V30 32 H -1.1853 3.5204 -0.153 0
M  V30 33 H 3.007 -1.5722 -4.226 0
M  V30 34 H 3.1216 3.0467 -0.209 0
M  V30 35 H 1.1399 4.8985 -0.3124 0
M  V30 36 H -1.967 -0.4823 4.0085 0
M  V30 37 H -3.28 0.6034 3.5048 0
M  V30 38 H -3.5483 -1.1337 3.5282 0
M  V30 END ATOM
M  V30 BEGIN BOND
M  V30 1 1 1 2
M  V30 2 1 1 3
M  V30 3 1 1 4
M  V30 4 2 2 5
M  V30 5 1 2 6
M  V30 6 1 3 7
M  V30 7 1 3 8
M  V30 8 1 4 9
M  V30 9 1 5 10
M  V30 10 1 5 11
M  V30 11 2 6 12
M  V30 12 1 7 13
M  V30 13 2 7 14
M  V30 14 1 8 15
M  V30 15 2 10 16
M  V30 16 1 13 17
M  V30 17 1 14 18
M  V30 18 1 15 19
M  V30 19 1 9 15
M  V30 20 1 11 13
M  V30 21 1 12 16
M  V30 22 2 17 18
M  V30 23 1 3 20
M  V30 24 1 4 21
M  V30 25 1 4 22
M  V30 26 1 6 23
M  V30 27 1 8 24
M  V30 28 1 8 25
M  V30 29 1 9 26
M  V30 30 1 9 27
M  V30 31 1 10 28
M  V30 32 1 11 29
M  V30 33 1 11 30
M  V30 34 1 12 31
M  V30 35 1 14 32
M  V30 36 1 16 33
M  V30 37 1 17 34
M  V30 38 1 18 35
M  V30 39 1 19 36
M  V30 40 1 19 37
M  V30 41 1 19 38
M  V30 END BOND
M  V30 BEGIN COLLECTION
M  V30 MDLV30/STERAC1 ATOMS=(1 3)
M  V30 END COLLECTION
M  V30 END CTAB
M  END
>  <Column 1>
1697

>  <level_0>
1853

>  <index>
1853

>  <Unnamed: 0>
1853

>  <NO.>
1865

>  <Name>
aptazapine maleate

>  <IUPAC_name>
(z)-but-2-enedioic acid;17-methyl-6-14-17-triazatetracyclo[12.4.0.02-6.08-13]octadeca-2-4-8-10-12-pentaene

>  <SMILES>
CN1CCN2c3ccccc3Cn3cccc3C2C1

>  <CID>
51355

>  <logBB>


>  <BBB+/BBB->
BBB+

>  <Inchi>
InChI=1S/C16H19N3/c1-17-9-10-19-14-6-3-2-5-13(14)11-18-8-4-7-15(18)16(19)12-17/h2-8-16H-9-12H2-1H3

>  <threshold>
-1

>  <reference>
R1|R19|R6|R27|R27|R30|

>  <group>
B

>  <Class>
1

>  <ABC>
15.46

>  <ABCGG>
12.52

>  <nAcid>
0

>  <nBase>
1

>  <nAromAtom>
11

>  <nAromBond>
11

>  <nAtom>
38

>  <nHeavyAtom>
19

>  <nSpiro>
0

>  <nBridgehead>
0

>  <nHetero>
3

>  <nN>
3

>  <nO>
0

>  <nF>
0

>  <BalabanJ>
1.64

>  <BertzCT>
601.55

>  <nBonds>
41

>  <nBondsO>
22

>  <nBondsS>
30

>  <nBondsD>
0

>  <nBondsT>
0

>  <nBondsA>
11

>  <nBondsM>
11

>  <nBondsKS>
36

>  <nBondsKD>
5

>  <RNCG>
0.27

>  <RPCG>
0.06

>  <FCSP3>
0.38

>  <SZ>
22.67

>  <Sm>
21.09

>  <Sv>
23.42

>  <Sse>
37.42

>  <Sp>
25.56

>  <Si>
42.82

>  <MZ>
0.6

>  <Mm>
0.56

>  <Mv>
0.62

>  <Mse>
0.98

>  <Mp>
0.67

>  <Mi>
1.13

>  <NsCH3>
1

>  <NdCH2>
0

>  <NssCH2>
4

>  <NtCH>
0

>  <NdsCH>
0

>  <NaaCH>
7

>  <NsssCH>
1

>  <NddC>
0

>  <NtsC>
0

>  <NdssC>
0

>  <NaasC>
3

>  <NaaaC>
0

>  <NssssC>
0

>  <NsNH3>
0

>  <NsNH2>
0

>  <NssNH2>
0

>  <NdNH>
0

>  <NssNH>
0

>  <NaaNH>
0

>  <NtN>
0

>  <NsssNH>
0

>  <NdsN>
0

>  <NaaN>
0

>  <NsssN>
2

>  <NddsN>
0

>  <NaasN>
1

>  <NssssN>
0

>  <NsOH>
0

>  <NdO>
0

>  <NssO>
0

>  <NaaO>
0

>  <NsF>
0

>  <NsSiH3>
0

>  <NssSiH2>
0

>  <NsssSiH>
0

>  <NssssSi>
0

>  <NsPH2>
0

>  <NssPH>
0

>  <NsssP>
0

>  <NdsssP>
0

>  <NsssssP>
0

>  <NsSH>
0

>  <NdS>
0

>  <NssS>
0

>  <NaaS>
0

>  <NdssS>
0

>  <NddssS>
0

>  <NsCl>
0

>  <NsBr>
0

>  <NsI>
0

>  <fragCpx>
142.03

>  <fMF>
0.47

>  <nHBAcc>
3

>  <nHBDon>
0

>  <Kier1>
12.72

>  <Kier2>
5.08

>  <Lipinski>
1

>  <GhoseFilter>
1

>  <FilterItLogS>
-2.45

>  <VMcGowan>
201.3

>  <LabuteASA>
113.61

>  <PEOE_VSA1>
14.37

>  <PEOE_VSA2>
0

>  <PEOE_VSA3>
0

>  <PEOE_VSA4>
0

>  <PEOE_VSA5>
0

>  <PEOE_VSA6>
18.2

>  <PEOE_VSA7>
30.81

>  <PEOE_VSA8>
43.76

>  <PEOE_VSA9>
6.04

>  <PEOE_VSA10>
0

>  <PEOE_VSA11>
0

>  <PEOE_VSA12>
0

>  <PEOE_VSA13>
0

>  <SMR_VSA1>
0

>  <SMR_VSA2>
0

>  <SMR_VSA3>
9.47

>  <SMR_VSA4>
0

>  <SMR_VSA5>
12.59

>  <SMR_VSA6>
31.58

>  <SMR_VSA7>
53.85

>  <SMR_VSA8>
0

>  <SMR_VSA9>
0

>  <SlogP_VSA1>
4.9

>  <SlogP_VSA2>
36.15

>  <SlogP_VSA3>
6.54

>  <SlogP_VSA4>
0

>  <SlogP_VSA5>
17.3

>  <SlogP_VSA6>
42.6

>  <SlogP_VSA7>
0

>  <SlogP_VSA8>
0

>  <SlogP_VSA9>
0

>  <SlogP_VSA10>
5.69

>  <SlogP_VSA11>
0

>  <EState_VSA1>
0

>  <EState_VSA2>
0

>  <EState_VSA3>
6.04

>  <EState_VSA4>
26.18

>  <EState_VSA5>
16.94

>  <EState_VSA6>
0

>  <EState_VSA7>
0

>  <EState_VSA8>
64.01

>  <EState_VSA9>
0

>  <EState_VSA10>
0

>  <VSA_EState1>
2.41

>  <VSA_EState2>
5.03

>  <VSA_EState3>
0

>  <VSA_EState4>
4.3

>  <VSA_EState5>
0

>  <VSA_EState6>
13.8

>  <VSA_EState7>
2.21

>  <VSA_EState8>
4.36

>  <VSA_EState9>
2.22

>  <apol>
42.69

>  <bpol>
24.19

>  <nRing>
4

>  <nHRing>
3

>  <naRing>
2

>  <naHRing>
1

>  <nARing 2>
2

>  <nAHRing 2>
2

>  <nFRing>
1

>  <nFHRing>
1

>  <nFaRing>
0

>  <nFaHRing>
0

>  <nFARing 2>
1

>  <nFAHRing 2>
1

>  <nRot>
0

>  <SLogP>
2.34

>  <SMR>
77.56

>  <TopoPSA(NO)>
11.41

>  <TopoPSA>
11.41

>  <JGI1>
0.14

>  <JGI2>
0.07

>  <JGI3>
0.04

>  <JGI4>
0.04

>  <JGI5>
0.02

>  <Diameter>
8

>  <Radius>
4

>  <TMWC10>
115.92

>  <TSRW10>
67.02

>  <MW>
253.16

>  <AMW>
6.66

>  <WPath>
595

>  <WPol>
35

>  <Zagreb1>
108

>  <Zagreb2>
132

>  <mZagreb2>
4.06

>  <yes>


>  <nAR-cont>
1

>  <nHA-cont>
0.998649058

>  <MWHBN>
0.188548773

>  <MWHBN-cont>
0.994695005

>  <TPSA-cont>
0.920351115

>  <pka_cont>
0.97

>  <yes.1>


>  <BBB_SCORE>
5.816393794

>  <MMFF94 Energy>
129.93

$$$$
Compound 1422
Actelion Java MolfileCreator 2.0

  0  0  0  0  0  0              0 V3000
M  V30 BEGIN CTAB
M  V30 COUNTS 34 36 0 0 0
M  V30 BEGIN ATOM
M  V30 1 Cl -0.2421 4.5267 -1.2109 0
M  V30 2 C 0.3814 3.0946 -0.4924 0
M  V30 3 C -0.437 1.9848 -0.3344 0
M  V30 4 C 1.7044 3.0484 -0.0764 0
M  V30 5 C 0.078 0.8106 0.2448 0
M  V30 6 C 2.2064 1.8847 0.5176 0
M  V30 7 C -0.8408 -0.3671 0.3259 0
M  V30 8 C 1.4093 0.7405 0.7137 0
M  V30 9 N -1.0492 -1.053 1.4042 0
M  V30 10 C -1.5838 -0.7771 -0.9085 0
M  V30 11 N 1.9317 -0.3862 1.3294 0
M  V30 12 C -0.2683 -0.6853 2.5862 0
M  V30 13 C -1.0036 -0.66 -2.1781 0
M  V30 14 C -2.8712 -1.313 -0.7823 0
M  V30 15 C 1.1989 -1.0852 2.4034 0
M  V30 16 C 3.3467 -0.711 1.2059 0
M  V30 17 C -1.7198 -1.05 -3.3119 0
M  V30 18 C -3.5835 -1.7016 -1.918 0
M  V30 19 C -3.0092 -1.5659 -3.1816 0
M  V30 20 H -1.4732 2.0287 -0.6603 0
M  V30 21 H 2.3522 3.9127 -0.1964 0
M  V30 22 H 3.2389 1.8996 0.8574 0
M  V30 23 H -0.676 -1.2412 3.4386 0
M  V30 24 H -0.3837 0.3758 2.8395 0
M  V30 25 H 0.0093 -0.2856 -2.2975 0
M  V30 26 H -3.3207 -1.4278 0.2014 0
M  V30 27 H 1.7203 -0.8989 3.3507 0
M  V30 28 H 1.2546 -2.1643 2.2129 0
M  V30 29 H 3.5241 -1.7637 1.4529 0
M  V30 30 H 3.948 -0.1029 1.8901 0
M  V30 31 H 3.7027 -0.56 0.1807 0
M  V30 32 H -1.2684 -0.9594 -4.2967 0
M  V30 33 H -4.5837 -2.1146 -1.8147 0
M  V30 34 H -3.5637 -1.8725 -4.0651 0
M  V30 END ATOM
M  V30 BEGIN BOND
M  V30 1 1 1 2
M  V30 2 2 2 3
M  V30 3 1 2 4
M  V30 4 1 3 5
M  V30 5 2 4 6
M  V30 6 1 5 7
M  V30 7 2 5 8
M  V30 8 2 7 9
M  V30 9 1 7 10
M  V30 10 1 8 11
M  V30 11 1 9 12
M  V30 12 2 10 13
M  V30 13 1 10 14
M  V30 14 1 11 15
M  V30 15 1 11 16
M  V30 16 1 13 17
M  V30 17 2 14 18
M  V30 18 2 17 19
M  V30 19 1 6 8
M  V30 20 1 12 15
M  V30 21 1 18 19
M  V30 22 1 3 20
M  V30 23 1 4 21
M  V30 24 1 6 22
M  V30 25 1 12 23
M  V30 26 1 12 24
M  V30 27 1 13 25
M  V30 28 1 14 26
M  V30 29 1 15 27
M  V30 30 1 15 28
M  V30 31 1 16 29
M  V30 32 1 16 30
M  V30 33 1 16 31
M  V30 34 1 17 32
M  V30 35 1 18 33
M  V30 36 1 19 34
M  V30 END BOND
M  V30 END CTAB
M  END
>  <Column 1>
1698

>  <level_0>
1854

>  <index>
1854

>  <Unnamed: 0>
1854

>  <NO.>
1866

>  <Name>
medazepam

>  <IUPAC_name>
7-chloro-1-methyl-5-phenyl-2-3-dihydro-1-4-benzodiazepine

>  <SMILES>
CN1CCN=C(c2ccccc2)c2cc(Cl)ccc21

>  <CID>
4041

>  <logBB>


>  <BBB+/BBB->
BBB+

>  <Inchi>
InChI=1S/C16H15ClN2/c1-19-10-9-18-16(12-5-3-2-4-6-12)14-11-13(17)7-8-15(14)19/h2-8-11H-9-10H2-1H3

>  <threshold>
-1

>  <reference>
R1|R13|R19|R6|R14|R23|R24|R27|R27|R27|R30|R30|R50|

>  <group>
B

>  <Class>
1

>  <ABC>
14.91

>  <ABCGG>
12.27

>  <nAcid>
0

>  <nBase>
0

>  <nAromAtom>
12

>  <nAromBond>
12

>  <nAtom>
34

>  <nHeavyAtom>
19

>  <nSpiro>
0

>  <nBridgehead>
0

>  <nHetero>
3

>  <nN>
2

>  <nO>
0

>  <nF>
0

>  <BalabanJ>
1.76

>  <BertzCT>
619.9

>  <nBonds>
36

>  <nBondsO>
21

>  <nBondsS>
23

>  <nBondsD>
1

>  <nBondsT>
0

>  <nBondsA>
12

>  <nBondsM>
13

>  <nBondsKS>
29

>  <nBondsKD>
7

>  <RNCG>
0.33

>  <RPCG>
0.06

>  <FCSP3>
0.19

>  <SZ>
23.67

>  <Sm>
22.54

>  <Sv>
22.67

>  <Sse>
33.75

>  <Sp>
24.61

>  <Si>
37.85

>  <MZ>
0.7

>  <Mm>
0.66

>  <Mv>
0.67

>  <Mse>
0.99

>  <Mp>
0.72

>  <Mi>
1.11

>  <NsCH3>
1

>  <NdCH2>
0

>  <NssCH2>
2

>  <NtCH>
0

>  <NdsCH>
0

>  <NaaCH>
8

>  <NsssCH>
0

>  <NddC>
0

>  <NtsC>
0

>  <NdssC>
1

>  <NaasC>
4

>  <NaaaC>
0

>  <NssssC>
0

>  <NsNH3>
0

>  <NsNH2>
0

>  <NssNH2>
0

>  <NdNH>
0

>  <NssNH>
0

>  <NaaNH>
0

>  <NtN>
0

>  <NsssNH>
0

>  <NdsN>
1

>  <NaaN>
0

>  <NsssN>
1

>  <NddsN>
0

>  <NaasN>
0

>  <NssssN>
0

>  <NsOH>
0

>  <NdO>
0

>  <NssO>
0

>  <NaaO>
0

>  <NsF>
0

>  <NsSiH3>
0

>  <NssSiH2>
0

>  <NsssSiH>
0

>  <NssssSi>
0

>  <NsPH2>
0

>  <NssPH>
0

>  <NsssP>
0

>  <NdsssP>
0

>  <NsssssP>
0

>  <NsSH>
0

>  <NdS>
0

>  <NssS>
0

>  <NaaS>
0

>  <NdssS>
0

>  <NddssS>
0

>  <NsCl>
1

>  <NsBr>
0

>  <NsI>
0

>  <fragCpx>
99.03

>  <fMF>
0.5

>  <nHBAcc>
2

>  <nHBDon>
0

>  <Kier1>
13.96

>  <Kier2>
6.19

>  <Lipinski>
1

>  <GhoseFilter>
1

>  <FilterItLogS>
-4.91

>  <VMcGowan>
205.82

>  <LabuteASA>
117.9

>  <PEOE_VSA1>
4.9

>  <PEOE_VSA2>
4.99

>  <PEOE_VSA3>
0

>  <PEOE_VSA4>
0

>  <PEOE_VSA5>
0

>  <PEOE_VSA6>
41.93

>  <PEOE_VSA7>
18.2

>  <PEOE_VSA8>
35.43

>  <PEOE_VSA9>
12.26

>  <PEOE_VSA10>
0

>  <PEOE_VSA11>
0

>  <PEOE_VSA12>
0

>  <PEOE_VSA13>
0

>  <SMR_VSA1>
0

>  <SMR_VSA2>
0

>  <SMR_VSA3>
0

>  <SMR_VSA4>
4.99

>  <SMR_VSA5>
0

>  <SMR_VSA6>
25.04

>  <SMR_VSA7>
64.68

>  <SMR_VSA8>
0

>  <SMR_VSA9>
0

>  <SlogP_VSA1>
4.9

>  <SlogP_VSA2>
25.85

>  <SlogP_VSA3>
0

>  <SlogP_VSA4>
0

>  <SlogP_VSA5>
11.13

>  <SlogP_VSA6>
53.52

>  <SlogP_VSA7>
5.02

>  <SlogP_VSA8>
0

>  <SlogP_VSA9>
0

>  <SlogP_VSA10>
5.69

>  <SlogP_VSA11>
0

>  <EState_VSA1>
0

>  <EState_VSA2>
0

>  <EState_VSA3>
0

>  <EState_VSA4>
34.95

>  <EState_VSA5>
5.69

>  <EState_VSA6>
0

>  <EState_VSA7>
30.33

>  <EState_VSA8>
30.15

>  <EState_VSA9>
16.59

>  <EState_VSA10>
0

>  <VSA_EState1>
0

>  <VSA_EState2>
6.97

>  <VSA_EState3>
0.75

>  <VSA_EState4>
4.46

>  <VSA_EState5>
0

>  <VSA_EState6>
16.29

>  <VSA_EState7>
0

>  <VSA_EState8>
1.72

>  <VSA_EState9>
2.09

>  <apol>
41.1

>  <bpol>
18.41

>  <nRing>
3

>  <nHRing>
1

>  <naRing>
2

>  <naHRing>
0

>  <nARing 2>
1

>  <nAHRing 2>
1

>  <nFRing>
1

>  <nFHRing>
1

>  <nFaRing>
0

>  <nFaHRing>
0

>  <nFARing 2>
1

>  <nFAHRing 2>
1

>  <nRot>
1

>  <SLogP>
3.63

>  <SMR>
81.67

>  <TopoPSA(NO)>
15.6

>  <TopoPSA>
15.6

>  <JGI1>
0.14

>  <JGI2>
0.08

>  <JGI3>
0.05

>  <JGI4>
0.03

>  <JGI5>
0.02

>  <Diameter>
8

>  <Radius>
4

>  <TMWC10>
113.09

>  <TSRW10>
60.44

>  <MW>
270.09

>  <AMW>
7.94

>  <WPath>
638

>  <WPol>
33

>  <Zagreb1>
100

>  <Zagreb2>
118

>  <mZagreb2>
4.19

>  <yes>


>  <nAR-cont>
0.816016

>  <nHA-cont>
0.998649058

>  <MWHBN>
0.121695843

>  <MWHBN-cont>
0.83660294

>  <TPSA-cont>
0.891102313

>  <pka_cont>
0.97

>  <yes.1>


>  <BBB_SCORE>
5.336774094

>  <MMFF94 Energy>
113.45

$$$$
Compound 1423
Actelion Java MolfileCreator 2.0

  0  0  0  0  0  0              0 V3000
M  V30 BEGIN CTAB
M  V30 COUNTS 38 40 0 0 0
M  V30 BEGIN ATOM
M  V30 1 O 0.1591 0.0795 1.6724 0
M  V30 2 C -0.6127 -0.7313 0.7871 0 CFG=2
M  V30 3 C 1.4116 -0.5065 2.0284 0
M  V30 4 C -0.0263 -0.914 -0.6148 0
M  V30 5 C -2.0231 -0.1542 0.7646 0
M  V30 6 C 2.533 0.4943 1.7242 0
M  V30 7 C 0.9957 -0.1188 -1.1807 0
M  V30 8 C -0.5529 -1.9803 -1.382 0
M  V30 9 C -3.1097 -0.9216 1.2171 0
M  V30 10 C -2.2722 1.1458 0.2964 0
M  V30 11 N 2.8346 0.6643 0.2866 0
M  V30 12 C 1.4772 -0.4474 -2.4677 0
M  V30 13 C 1.6466 1.0659 -0.4875 0
M  V30 14 C -0.0761 -2.2715 -2.6589 0
M  V30 15 C -4.407 -0.4049 1.1942 0
M  V30 16 C -3.5698 1.6608 0.2738 0
M  V30 17 C 3.9092 1.6458 0.1281 0
M  V30 18 C 0.9463 -1.5076 -3.2001 0
M  V30 19 C -4.6365 0.8851 0.7215 0
M  V30 20 H -0.6651 -1.728 1.2492 0
M  V30 21 H 1.3814 -0.6919 3.1076 0
M  V30 22 H 1.5979 -1.4694 1.5374 0
M  V30 23 H 3.4393 0.1331 2.2254 0
M  V30 24 H 2.2725 1.4652 2.1666 0
M  V30 25 H -1.3513 -2.5995 -0.9755 0
M  V30 26 H -2.9527 -1.9294 1.594 0
M  V30 27 H -1.4508 1.766 -0.052 0
M  V30 28 H 2.2866 0.134 -2.906 0
M  V30 29 H 0.9302 1.6565 0.094 0
M  V30 30 H 1.9378 1.764 -1.2867 0
M  V30 31 H -0.4992 -3.0974 -3.2237 0
M  V30 32 H -5.2385 -1.009 1.5475 0
M  V30 33 H -3.7457 2.6687 -0.0921 0
M  V30 34 H 3.614 2.642 0.4772 0
M  V30 35 H 4.8021 1.3355 0.6824 0
M  V30 36 H 4.2096 1.7213 -0.9229 0
M  V30 37 H 1.334 -1.7335 -4.1893 0
M  V30 38 H -5.6458 1.2874 0.7046 0
M  V30 END ATOM
M  V30 BEGIN BOND
M  V30 1 1 1 2
M  V30 2 1 1 3
M  V30 3 1 2 4
M  V30 4 1 2 5
M  V30 5 1 3 6
M  V30 6 2 4 7
M  V30 7 1 4 8
M  V30 8 2 5 9
M  V30 9 1 5 10
M  V30 10 1 6 11
M  V30 11 1 7 12
M  V30 12 1 7 13
M  V30 13 2 8 14
M  V30 14 1 9 15
M  V30 15 2 10 16
M  V30 16 1 11 17
M  V30 17 2 12 18
M  V30 18 2 15 19
M  V30 19 1 11 13
M  V30 20 1 14 18
M  V30 21 1 16 19
M  V30 22 1 2 20
M  V30 23 1 3 21
M  V30 24 1 3 22
M  V30 25 1 6 23
M  V30 26 1 6 24
M  V30 27 1 8 25
M  V30 28 1 9 26
M  V30 29 1 10 27
M  V30 30 1 12 28
M  V30 31 1 13 29
M  V30 32 1 13 30
M  V30 33 1 14 31
M  V30 34 1 15 32
M  V30 35 1 16 33
M  V30 36 1 17 34
M  V30 37 1 17 35
M  V30 38 1 17 36
M  V30 39 1 18 37
M  V30 40 1 19 38
M  V30 END BOND
M  V30 BEGIN COLLECTION
M  V30 MDLV30/STERAC1 ATOMS=(1 2)
M  V30 END COLLECTION
M  V30 END CTAB
M  END
>  <Column 1>
1699

>  <level_0>
1855

>  <index>
1855

>  <Unnamed: 0>
1855

>  <NO.>
1867

>  <Name>
nefopam

>  <IUPAC_name>
5-methyl-1-phenyl-1-3-4-6-tetrahydro-2-5-benzoxazocine

>  <SMILES>
CN1CCOC(c2ccccc2)c2ccccc2C1

>  <CID>
4450

>  <logBB>


>  <BBB+/BBB->
BBB+

>  <Inchi>
InChI=1S/C17H19NO/c1-18-11-12-19-17(14-7-3-2-4-8-14)16-10-6-5-9-15(16)13-18/h2-10-17H-11-13H2-1H3

>  <threshold>
-1

>  <reference>
R1|R19|R6|R14|R23|R27|R27|R30|

>  <group>
B

>  <Class>
1

>  <ABC>
14.84

>  <ABCGG>
11.58

>  <nAcid>
0

>  <nBase>
1

>  <nAromAtom>
12

>  <nAromBond>
12

>  <nAtom>
38

>  <nHeavyAtom>
19

>  <nSpiro>
0

>  <nBridgehead>
0

>  <nHetero>
2

>  <nN>
1

>  <nO>
1

>  <nF>
0

>  <BalabanJ>
1.71

>  <BertzCT>
537.97

>  <nBonds>
40

>  <nBondsO>
21

>  <nBondsS>
28

>  <nBondsD>
0

>  <nBondsT>
0

>  <nBondsA>
12

>  <nBondsM>
12

>  <nBondsKS>
34

>  <nBondsKD>
6

>  <RNCG>
0.29

>  <RPCG>
0.09

>  <FCSP3>
0.29

>  <SZ>
22.67

>  <Sm>
21.09

>  <Sv>
23.62

>  <Sse>
37.43

>  <Sp>
25.73

>  <Si>
42.45

>  <MZ>
0.6

>  <Mm>
0.56

>  <Mv>
0.62

>  <Mse>
0.98

>  <Mp>
0.68

>  <Mi>
1.12

>  <NsCH3>
1

>  <NdCH2>
0

>  <NssCH2>
3

>  <NtCH>
0

>  <NdsCH>
0

>  <NaaCH>
9

>  <NsssCH>
1

>  <NddC>
0

>  <NtsC>
0

>  <NdssC>
0

>  <NaasC>
3

>  <NaaaC>
0

>  <NssssC>
0

>  <NsNH3>
0

>  <NsNH2>
0

>  <NssNH2>
0

>  <NdNH>
0

>  <NssNH>
0

>  <NaaNH>
0

>  <NtN>
0

>  <NsssNH>
0

>  <NdsN>
0

>  <NaaN>
0

>  <NsssN>
1

>  <NddsN>
0

>  <NaasN>
0

>  <NssssN>
0

>  <NsOH>
0

>  <NdO>
0

>  <NssO>
1

>  <NaaO>
0

>  <NsF>
0

>  <NsSiH3>
0

>  <NssSiH2>
0

>  <NsssSiH>
0

>  <NssssSi>
0

>  <NsPH2>
0

>  <NssPH>
0

>  <NsssP>
0

>  <NdsssP>
0

>  <NsssssP>
0

>  <NsSH>
0

>  <NdS>
0

>  <NssS>
0

>  <NaaS>
0

>  <NdssS>
0

>  <NddssS>
0

>  <NsCl>
0

>  <NsBr>
0

>  <NsI>
0

>  <fragCpx>
99.02

>  <fMF>
0.47

>  <nHBAcc>
2

>  <nHBDon>
0

>  <Kier1>
13.96

>  <Kier2>
6.64

>  <Lipinski>
1

>  <GhoseFilter>
1

>  <FilterItLogS>
-3.9

>  <VMcGowan>
207.86

>  <LabuteASA>
114.18

>  <PEOE_VSA1>
4.74

>  <PEOE_VSA2>
4.9

>  <PEOE_VSA3>
0

>  <PEOE_VSA4>
0

>  <PEOE_VSA5>
0

>  <PEOE_VSA6>
54.6

>  <PEOE_VSA7>
23.74

>  <PEOE_VSA8>
13.09

>  <PEOE_VSA9>
6.61

>  <PEOE_VSA10>
6.1

>  <PEOE_VSA11>
0

>  <PEOE_VSA12>
0

>  <PEOE_VSA13>
0

>  <SMR_VSA1>
4.74

>  <SMR_VSA2>
0

>  <SMR_VSA3>
4.9

>  <SMR_VSA4>
0

>  <SMR_VSA5>
12.65

>  <SMR_VSA6>
20.2

>  <SMR_VSA7>
71.29

>  <SMR_VSA8>
0

>  <SMR_VSA9>
0

>  <SlogP_VSA1>
0

>  <SlogP_VSA2>
25.1

>  <SlogP_VSA3>
11.28

>  <SlogP_VSA4>
0

>  <SlogP_VSA5>
22.79

>  <SlogP_VSA6>
54.6

>  <SlogP_VSA7>
0

>  <SlogP_VSA8>
0

>  <SlogP_VSA9>
0

>  <SlogP_VSA10>
0

>  <SlogP_VSA11>
0

>  <EState_VSA1>
0

>  <EState_VSA2>
6.1

>  <EState_VSA3>
0

>  <EState_VSA4>
19.7

>  <EState_VSA5>
16.69

>  <EState_VSA6>
0

>  <EState_VSA7>
6.07

>  <EState_VSA8>
60.48

>  <EState_VSA9>
4.74

>  <EState_VSA10>
0

>  <VSA_EState1>
6.12

>  <VSA_EState2>
2.31

>  <VSA_EState3>
0

>  <VSA_EState4>
3.89

>  <VSA_EState5>
0

>  <VSA_EState6>
19.09

>  <VSA_EState7>
0.06

>  <VSA_EState8>
2.73

>  <VSA_EState9>
2.14

>  <apol>
42.96

>  <bpol>
22.51

>  <nRing>
3

>  <nHRing>
1

>  <naRing>
2

>  <naHRing>
0

>  <nARing 2>
1

>  <nAHRing 2>
1

>  <nFRing>
1

>  <nFHRing>
1

>  <nFaRing>
0

>  <nFaHRing>
0

>  <nFARing 2>
1

>  <nFAHRing 2>
1

>  <nRot>
1

>  <SLogP>
3.24

>  <SMR>
77.01

>  <TopoPSA(NO)>
12.47

>  <TopoPSA>
12.47

>  <JGI1>
0.12

>  <JGI2>
0.06

>  <JGI3>
0.04

>  <JGI4>
0.03

>  <JGI5>
0.01

>  <Diameter>
9

>  <Radius>
5

>  <TMWC10>
112.35

>  <TSRW10>
52.2

>  <MW>
253.15

>  <AMW>
6.66

>  <WPath>
650

>  <WPol>
31

>  <Zagreb1>
98

>  <Zagreb2>
114

>  <mZagreb2>
4.25

>  <yes>


>  <nAR-cont>
0.816016

>  <nHA-cont>
0.998649058

>  <MWHBN>
0.125701665

>  <MWHBN-cont>
0.85298856

>  <TPSA-cont>
0.912951657

>  <pka_cont>
0.97

>  <yes.1>


>  <BBB_SCORE>
5.40505121

>  <MMFF94 Energy>
89.495

$$$$
Compound 1424
Actelion Java MolfileCreator 2.0

  0  0  0  0  0  0              0 V3000
M  V30 BEGIN CTAB
M  V30 COUNTS 55 59 0 0 0
M  V30 BEGIN ATOM
M  V30 1 O 0.0 1.7609 0.3199 0
M  V30 2 C 0.8822 1.2973 1.0364 0
M  V30 3 O 1.0531 -0.0597 1.2995 0
M  V30 4 N 1.8278 2.0835 1.6751 0
M  V30 5 C 0.1648 -0.9496 0.6772 0
M  V30 6 C 1.7966 3.5213 1.4507 0
M  V30 7 C 2.9636 1.5525 2.4201 0
M  V30 8 C 0.0844 -1.0383 -0.7103 0
M  V30 9 C -0.569 -1.8046 1.5068 0
M  V30 10 C 2.4544 4.3391 2.5404 0
M  V30 11 C 3.0886 2.233 3.7808 0
M  V30 12 C -0.7833 -1.9818 -1.2457 0
M  V30 13 C -1.4309 -2.7513 0.9441 0
M  V30 14 C 3.0864 3.7338 3.6425 0
M  V30 15 C 2.4424 5.7392 2.4436 0
M  V30 16 C -1.5378 -2.8367 -0.4354 0
M  V30 17 C -1.0916 -2.2543 -2.6977 0 CFG=1
M  V30 18 C 3.6674 4.5317 4.6377 0
M  V30 19 C 3.036 6.5249 3.4317 0
M  V30 20 N -2.318 -3.6979 -1.1747 0
M  V30 21 C -2.2101 -3.3634 -2.5965 0 CFG=1
M  V30 22 C -1.7814 -1.0722 -3.3836 0
M  V30 23 C 0.1484 -2.7257 -3.4557 0
M  V30 24 C 3.6456 5.9216 4.5287 0
M  V30 25 C -3.4124 -4.4778 -0.6609 0
M  V30 26 N -3.398 -2.8198 -3.293 0
M  V30 27 C -3.2628 -1.3606 -3.2011 0
M  V30 28 C -3.4646 -3.2767 -4.6781 0
M  V30 29 H 0.7568 3.8484 1.3322 0
M  V30 30 H 2.3206 3.7035 0.5044 0
M  V30 31 H 3.8586 1.7358 1.8121 0
M  V30 32 H 2.8869 0.4708 2.5606 0
M  V30 33 H 0.6656 -0.3839 -1.3494 0
M  V30 34 H -0.4731 -1.7337 2.5859 0
M  V30 35 H 4.0125 1.8963 4.2648 0
M  V30 36 H 2.245 1.9464 4.4206 0
M  V30 37 H -2.0019 -3.4097 1.589 0
M  V30 38 H 1.963 6.2256 1.5963 0
M  V30 39 H 4.1397 4.0738 5.5038 0
M  V30 40 H 3.0175 7.6085 3.3482 0
M  V30 41 H -1.8768 -4.2817 -3.0997 0
M  V30 42 H -1.5084 -0.0976 -2.9655 0
M  V30 43 H -1.5436 -1.0472 -4.4543 0
M  V30 44 H -0.1025 -3.025 -4.479 0
M  V30 45 H 0.6144 -3.587 -2.9632 0
M  V30 46 H 0.9024 -1.9327 -3.5158 0
M  V30 47 H 4.1012 6.5343 5.3023 0
M  V30 48 H -3.7935 -5.1652 -1.4238 0
M  V30 49 H -3.0971 -5.0869 0.1926 0
M  V30 50 H -4.2367 -3.8302 -0.3442 0
M  V30 51 H -3.5919 -1.0328 -2.207 0
M  V30 52 H -3.8819 -0.826 -3.9301 0
M  V30 53 H -3.5994 -4.3637 -4.711 0
M  V30 54 H -4.335 -2.841 -5.1811 0
M  V30 55 H -2.5722 -3.0273 -5.2615 0
M  V30 END ATOM
M  V30 BEGIN BOND
M  V30 1 2 1 2
M  V30 2 1 2 3
M  V30 3 1 2 4
M  V30 4 1 3 5
M  V30 5 1 4 6
M  V30 6 1 4 7
M  V30 7 2 5 8
M  V30 8 1 5 9
M  V30 9 1 6 10
M  V30 10 1 7 11
M  V30 11 1 8 12
M  V30 12 2 9 13
M  V30 13 2 10 14
M  V30 14 1 10 15
M  V30 15 2 12 16
M  V30 16 1 12 17
M  V30 17 1 14 18
M  V30 18 2 15 19
M  V30 19 1 16 20
M  V30 20 1 17 21
M  V30 21 1 17 22
M  V30 22 1 17 23
M  V30 23 2 18 24
M  V30 24 1 20 25
M  V30 25 1 21 26
M  V30 26 1 22 27
M  V30 27 1 26 28
M  V30 28 1 11 14
M  V30 29 1 13 16
M  V30 30 1 19 24
M  V30 31 1 20 21
M  V30 32 1 26 27
M  V30 33 1 6 29
M  V30 34 1 6 30
M  V30 35 1 7 31
M  V30 36 1 7 32
M  V30 37 1 8 33
M  V30 38 1 9 34
M  V30 39 1 11 35
M  V30 40 1 11 36
M  V30 41 1 13 37
M  V30 42 1 15 38
M  V30 43 1 18 39
M  V30 44 1 19 40
M  V30 45 1 21 41
M  V30 46 1 22 42
M  V30 47 1 22 43
M  V30 48 1 23 44
M  V30 49 1 23 45
M  V30 50 1 23 46
M  V30 51 1 24 47
M  V30 52 1 25 48
M  V30 53 1 25 49
M  V30 54 1 25 50
M  V30 55 1 27 51
M  V30 56 1 27 52
M  V30 57 1 28 53
M  V30 58 1 28 54
M  V30 59 1 28 55
M  V30 END BOND
M  V30 BEGIN COLLECTION
M  V30 MDLV30/STEABS ATOMS=(2 17 21)
M  V30 END COLLECTION
M  V30 END CTAB
M  END
>  <Column 1>
1700

>  <level_0>
1857

>  <index>
1857

>  <Unnamed: 0>
1857

>  <NO.>
1869

>  <Name>
quilostigmine

>  <IUPAC_name>
[(3ar-8bs)-3-4-8b-trimethyl-2-3a-dihydro-1h-pyrrolo[2-3-b]indol-7-yl] 3-4-dihydro-1h-isoquinoline-2-carboxylate

>  <SMILES>
CN1CC[C@@]2(C)c3cc(OC(=O)N4CCc5ccccc5C4)ccc3N(C)[C@@H]12

>  <CID>
132228

>  <logBB>


>  <BBB+/BBB->
BBB+

>  <Inchi>
InChI=1S/C23H27N3O2/c1-23-11-13-24(2)21(23)25(3)20-9-8-18(14-19(20)23)28-22(27)26-12-10-16-6-4-5-7-17(16)15-26/h4-9-14-21H-10-13-15H2-1-3H3/t21--23+/m1/s1

>  <threshold>
-1

>  <reference>
R1|R24|R27|R27|R30|R30|

>  <group>
B

>  <Class>
1

>  <ABC>
22.75

>  <ABCGG>
17.42

>  <nAcid>
0

>  <nBase>
1

>  <nAromAtom>
12

>  <nAromBond>
12

>  <nAtom>
55

>  <nHeavyAtom>
28

>  <nSpiro>
0

>  <nBridgehead>
0

>  <nHetero>
5

>  <nN>
3

>  <nO>
2

>  <nF>
0

>  <BalabanJ>
1.2

>  <BertzCT>
943.19

>  <nBonds>
59

>  <nBondsO>
32

>  <nBondsS>
46

>  <nBondsD>
1

>  <nBondsT>
0

>  <nBondsA>
12

>  <nBondsM>
13

>  <nBondsKS>
52

>  <nBondsKD>
7

>  <RNCG>
0.2

>  <RPCG>
0.2

>  <FCSP3>
0.43

>  <SZ>
33.67

>  <Sm>
31.43

>  <Sv>
34.02

>  <Sse>
54.64

>  <Sp>
36.72

>  <Si>
61.9

>  <MZ>
0.61

>  <Mm>
0.57

>  <Mv>
0.62

>  <Mse>
0.99

>  <Mp>
0.67

>  <Mi>
1.13

>  <NsCH3>
3

>  <NdCH2>
0

>  <NssCH2>
5

>  <NtCH>
0

>  <NdsCH>
0

>  <NaaCH>
7

>  <NsssCH>
1

>  <NddC>
0

>  <NtsC>
0

>  <NdssC>
1

>  <NaasC>
5

>  <NaaaC>
0

>  <NssssC>
1

>  <NsNH3>
0

>  <NsNH2>
0

>  <NssNH2>
0

>  <NdNH>
0

>  <NssNH>
0

>  <NaaNH>
0

>  <NtN>
0

>  <NsssNH>
0

>  <NdsN>
0

>  <NaaN>
0

>  <NsssN>
3

>  <NddsN>
0

>  <NaasN>
0

>  <NssssN>
0

>  <NsOH>
0

>  <NdO>
1

>  <NssO>
1

>  <NaaO>
0

>  <NsF>
0

>  <NsSiH3>
0

>  <NssSiH2>
0

>  <NsssSiH>
0

>  <NssssSi>
0

>  <NsPH2>
0

>  <NssPH>
0

>  <NsssP>
0

>  <NdsssP>
0

>  <NsssssP>
0

>  <NsSH>
0

>  <NdS>
0

>  <NssS>
0

>  <NaaS>
0

>  <NdssS>
0

>  <NddssS>
0

>  <NsCl>
0

>  <NsBr>
0

>  <NsI>
0

>  <fragCpx>
268.05

>  <fMF>
0.44

>  <nHBAcc>
4

>  <nHBDon>
0

>  <Kier1>
19.93

>  <Kier2>
7.6

>  <Lipinski>
1

>  <GhoseFilter>
1

>  <FilterItLogS>
-4.35

>  <VMcGowan>
292.21

>  <LabuteASA>
166.04

>  <PEOE_VSA1>
14.54

>  <PEOE_VSA2>
4.9

>  <PEOE_VSA3>
4.79

>  <PEOE_VSA4>
0

>  <PEOE_VSA5>
0

>  <PEOE_VSA6>
31.19

>  <PEOE_VSA7>
54.78

>  <PEOE_VSA8>
37.78

>  <PEOE_VSA9>
6.17

>  <PEOE_VSA10>
5.75

>  <PEOE_VSA11>
0

>  <PEOE_VSA12>
0

>  <PEOE_VSA13>
0

>  <SMR_VSA1>
9.53

>  <SMR_VSA2>
0

>  <SMR_VSA3>
9.8

>  <SMR_VSA4>
0

>  <SMR_VSA5>
37.89

>  <SMR_VSA6>
32.08

>  <SMR_VSA7>
59.15

>  <SMR_VSA8>
0

>  <SMR_VSA9>
5.75

>  <SlogP_VSA1>
9.64

>  <SlogP_VSA2>
49.24

>  <SlogP_VSA3>
18.38

>  <SlogP_VSA4>
0

>  <SlogP_VSA5>
30.03

>  <SlogP_VSA6>
42.46

>  <SlogP_VSA7>
0

>  <SlogP_VSA8>
0

>  <SlogP_VSA9>
0

>  <SlogP_VSA10>
10.48

>  <SlogP_VSA11>
5.75

>  <EState_VSA1>
0

>  <EState_VSA2>
11.51

>  <EState_VSA3>
25

>  <EState_VSA4>
19.39

>  <EState_VSA5>
22.38

>  <EState_VSA6>
4.9

>  <EState_VSA7>
12.13

>  <EState_VSA8>
61.15

>  <EState_VSA9>
4.74

>  <EState_VSA10>
4.79

>  <VSA_EState1>
5.8

>  <VSA_EState2>
19.36

>  <VSA_EState3>
0

>  <VSA_EState4>
5.15

>  <VSA_EState5>
0.65

>  <VSA_EState6>
14.43

>  <VSA_EState7>
2.11

>  <VSA_EState8>
4.74

>  <VSA_EState9>
4.35

>  <apol>
61.32

>  <bpol>
34.82

>  <nRing>
5

>  <nHRing>
3

>  <naRing>
2

>  <naHRing>
0

>  <nARing 2>
3

>  <nAHRing 2>
3

>  <nFRing>
2

>  <nFHRing>
2

>  <nFaRing>
0

>  <nFaHRing>
0

>  <nFARing 2>
2

>  <nFAHRing 2>
2

>  <nRot>
1

>  <SLogP>
3.61

>  <SMR>
109.81

>  <TopoPSA(NO)>
36.02

>  <TopoPSA>
36.02

>  <JGI1>
0.2

>  <JGI2>
0.1

>  <JGI3>
0.07

>  <JGI4>
0.05

>  <JGI5>
0.03

>  <Diameter>
14

>  <Radius>
7

>  <TMWC10>
139.23

>  <TSRW10>
80.93

>  <MW>
377.21

>  <AMW>
6.86

>  <WPath>
2092

>  <WPol>
52

>  <Zagreb1>
162

>  <Zagreb2>
201

>  <mZagreb2>
5.88

>  <yes>


>  <nAR-cont>
0.691115

>  <nHA-cont>
0.82432561

>  <MWHBN>
0.205953128

>  <MWHBN-cont>
0.999940174

>  <TPSA-cont>
0.748558033

>  <pka_cont>
0.97

>  <yes.1>


>  <BBB_SCORE>
4.997466937

>  <MMFF94 Energy>
19.976

$$$$
Compound 1425
Actelion Java MolfileCreator 2.0

  0  0  0  0  0  0              0 V3000
M  V30 BEGIN CTAB
M  V30 COUNTS 37 40 0 0 0
M  V30 BEGIN ATOM
M  V30 1 Cl -0.9775 2.853 5.3034 0
M  V30 2 C -1.1021 1.7541 3.9853 0
M  V30 3 C -0.215 1.8572 2.9134 0
M  V30 4 C -2.0879 0.7693 3.9968 0
M  V30 5 C -0.3138 0.9667 1.835 0
M  V30 6 C -2.1872 -0.1223 2.9278 0
M  V30 7 C -1.3018 -0.0269 1.8545 0
M  V30 8 C 0.6449 1.0512 0.6661 0
M  V30 9 O -1.4719 -0.939 0.8466 0
M  V30 10 C -0.0919 0.5237 -0.568 0
M  V30 11 C 1.9074 0.2383 0.9675 0
M  V30 12 C -0.509 -0.9082 -0.2246 0 CFG=1
M  V30 13 C 0.7236 0.588 -1.8635 0
M  V30 14 C 1.7008 -1.2609 0.8931 0
M  V30 15 N 0.6166 -1.7218 0.2096 0
M  V30 16 C -1.1912 -1.552 -1.4378 0
M  V30 17 N -0.0448 0.0028 -2.9705 0
M  V30 18 O 2.5181 -2.0517 1.3578 0
M  V30 19 C -0.3563 -1.4086 -2.7071 0
M  V30 20 C 0.6888 0.1363 -4.2311 0
M  V30 21 H 0.5505 2.6293 2.9192 0
M  V30 22 H -2.7786 0.6888 4.8318 0
M  V30 23 H -2.953 -0.8936 2.9335 0
M  V30 24 H 0.9166 2.1019 0.5029 0
M  V30 25 H -0.9982 1.1332 -0.7151 0
M  V30 26 H 2.694 0.4891 0.2464 0
M  V30 27 H 2.2965 0.4769 1.9648 0
M  V30 28 H 1.6886 0.077 -1.7642 0
M  V30 29 H 0.9399 1.6416 -2.0811 0
M  V30 30 H 0.5025 -2.7263 0.2405 0
M  V30 31 H -2.1745 -1.0862 -1.5935 0
M  V30 32 H -1.3965 -2.6132 -1.2464 0
M  V30 33 H -0.9361 -1.821 -3.5421 0
M  V30 34 H 0.5608 -2.0063 -2.6255 0
M  V30 35 H 0.8819 1.1917 -4.4532 0
M  V30 36 H 1.6479 -0.3936 -4.21 0
M  V30 37 H 0.0953 -0.2558 -5.0645 0
M  V30 END ATOM
M  V30 BEGIN BOND
M  V30 1 1 1 2
M  V30 2 2 2 3
M  V30 3 1 2 4
M  V30 4 1 3 5
M  V30 5 2 4 6
M  V30 6 2 5 7
M  V30 7 1 5 8
M  V30 8 1 7 9
M  V30 9 1 8 10
M  V30 10 1 8 11
M  V30 11 1 9 12
M  V30 12 1 10 13
M  V30 13 1 11 14
M  V30 14 1 12 15
M  V30 15 1 12 16
M  V30 16 1 13 17
M  V30 17 2 14 18
M  V30 18 1 16 19
M  V30 19 1 17 20
M  V30 20 1 6 7
M  V30 21 1 10 12
M  V30 22 1 14 15
M  V30 23 1 17 19
M  V30 24 1 3 21
M  V30 25 1 4 22
M  V30 26 1 6 23
M  V30 27 1 8 24
M  V30 28 1 10 25
M  V30 29 1 11 26
M  V30 30 1 11 27
M  V30 31 1 13 28
M  V30 32 1 13 29
M  V30 33 1 15 30
M  V30 34 1 16 31
M  V30 35 1 16 32
M  V30 36 1 19 33
M  V30 37 1 19 34
M  V30 38 1 20 35
M  V30 39 1 20 36
M  V30 40 1 20 37
M  V30 END BOND
M  V30 BEGIN COLLECTION
M  V30 MDLV30/STEABS ATOMS=(1 12)
M  V30 END COLLECTION
M  V30 END CTAB
M  END
>  <Column 1>
1701

>  <level_0>
1859

>  <index>
1859

>  <Unnamed: 0>
1859

>  <NO.>
1871

>  <Name>
lortalamine

>  <IUPAC_name>
(1s)-6-chloro-12-methyl-2-oxa-12-15-diazatetracyclo[7.5.3.01-10.03-8]heptadeca-3(8)-4-6-trien-16-one

>  <SMILES>
CN1CC[C@]23NC(=O)CC(c4cc(Cl)ccc4O2)C3C1

>  <CID>
51047

>  <logBB>


>  <BBB+/BBB->
BBB+

>  <Inchi>
InChI=1S/C15H17ClN2O2/c1-18-5-4-15-12(8-18)10(7-14(19)17-15)11-6-9(16)2-3-13(11)20-15/h2-3-6-10-12H-4-5-7-8H2-1H3-(H-17-19)/t10?-12?-15-/m0/s1

>  <threshold>
-1

>  <reference>
R1|R27|R30|

>  <group>
B

>  <Class>
1

>  <ABC>
16.41

>  <ABCGG>
12.53

>  <nAcid>
0

>  <nBase>
1

>  <nAromAtom>
6

>  <nAromBond>
6

>  <nAtom>
37

>  <nHeavyAtom>
20

>  <nSpiro>
0

>  <nBridgehead>
2

>  <nHetero>
5

>  <nN>
2

>  <nO>
2

>  <nF>
0

>  <BalabanJ>
1.67

>  <BertzCT>
591.24

>  <nBonds>
40

>  <nBondsO>
23

>  <nBondsS>
33

>  <nBondsD>
1

>  <nBondsT>
0

>  <nBondsA>
6

>  <nBondsM>
7

>  <nBondsKS>
36

>  <nBondsKD>
4

>  <RNCG>
0.3

>  <RPCG>
0.14

>  <FCSP3>
0.53

>  <SZ>
25.67

>  <Sm>
24.37

>  <Sv>
23.64

>  <Sse>
37.3

>  <Sp>
25.37

>  <Si>
41.68

>  <MZ>
0.69

>  <Mm>
0.66

>  <Mv>
0.64

>  <Mse>
1.01

>  <Mp>
0.69

>  <Mi>
1.13

>  <NsCH3>
1

>  <NdCH2>
0

>  <NssCH2>
4

>  <NtCH>
0

>  <NdsCH>
0

>  <NaaCH>
3

>  <NsssCH>
2

>  <NddC>
0

>  <NtsC>
0

>  <NdssC>
1

>  <NaasC>
3

>  <NaaaC>
0

>  <NssssC>
1

>  <NsNH3>
0

>  <NsNH2>
0

>  <NssNH2>
0

>  <NdNH>
0

>  <NssNH>
1

>  <NaaNH>
0

>  <NtN>
0

>  <NsssNH>
0

>  <NdsN>
0

>  <NaaN>
0

>  <NsssN>
1

>  <NddsN>
0

>  <NaasN>
0

>  <NssssN>
0

>  <NsOH>
0

>  <NdO>
1

>  <NssO>
1

>  <NaaO>
0

>  <NsF>
0

>  <NsSiH3>
0

>  <NssSiH2>
0

>  <NsssSiH>
0

>  <NssssSi>
0

>  <NsPH2>
0

>  <NssPH>
0

>  <NsssP>
0

>  <NdsssP>
0

>  <NsssssP>
0

>  <NsSH>
0

>  <NdS>
0

>  <NssS>
0

>  <NaaS>
0

>  <NdssS>
0

>  <NddssS>
0

>  <NsCl>
1

>  <NsBr>
0

>  <NsI>
0

>  <fragCpx>
149.05

>  <fMF>
0.46

>  <nHBAcc>
3

>  <nHBDon>
1

>  <Kier1>
13.65

>  <Kier2>
4.75

>  <Lipinski>
1

>  <GhoseFilter>
1

>  <FilterItLogS>
-3.69

>  <VMcGowan>
205.51

>  <LabuteASA>
122.59

>  <PEOE_VSA1>
14.95

>  <PEOE_VSA2>
4.79

>  <PEOE_VSA3>
0

>  <PEOE_VSA4>
0

>  <PEOE_VSA5>
0

>  <PEOE_VSA6>
11.6

>  <PEOE_VSA7>
30.81

>  <PEOE_VSA8>
42.79

>  <PEOE_VSA9>
0

>  <PEOE_VSA10>
5.75

>  <PEOE_VSA11>
5.72

>  <PEOE_VSA12>
5.91

>  <PEOE_VSA13>
0

>  <SMR_VSA1>
9.53

>  <SMR_VSA2>
0

>  <SMR_VSA3>
10.22

>  <SMR_VSA4>
5.92

>  <SMR_VSA5>
24.48

>  <SMR_VSA6>
20.14

>  <SMR_VSA7>
28.79

>  <SMR_VSA8>
0

>  <SMR_VSA9>
5.75

>  <SlogP_VSA1>
10.05

>  <SlogP_VSA2>
36.67

>  <SlogP_VSA3>
4.79

>  <SlogP_VSA4>
5.92

>  <SlogP_VSA5>
24.32

>  <SlogP_VSA6>
18.2

>  <SlogP_VSA7>
5.02

>  <SlogP_VSA8>
0

>  <SlogP_VSA9>
0

>  <SlogP_VSA10>
0

>  <SlogP_VSA11>
5.75

>  <EState_VSA1>
5.72

>  <EState_VSA2>
11.83

>  <EState_VSA3>
17.36

>  <EState_VSA4>
30.82

>  <EState_VSA5>
0

>  <EState_VSA6>
0

>  <EState_VSA7>
18.2

>  <EState_VSA8>
17.26

>  <EState_VSA9>
16.34

>  <EState_VSA10>
4.79

>  <VSA_EState1>
6.25

>  <VSA_EState2>
14.38

>  <VSA_EState3>
3.82

>  <VSA_EState4>
0.57

>  <VSA_EState5>
1.46

>  <VSA_EState6>
5.74

>  <VSA_EState7>
1.36

>  <VSA_EState8>
1.88

>  <VSA_EState9>
2.12

>  <apol>
42.37

>  <bpol>
22.45

>  <nRing>
4

>  <nHRing>
3

>  <naRing>
1

>  <naHRing>
0

>  <nARing 2>
3

>  <nAHRing 2>
3

>  <nFRing>
1

>  <nFHRing>
1

>  <nFaRing>
0

>  <nFaHRing>
0

>  <nFARing 2>
1

>  <nFAHRing 2>
1

>  <nRot>
0

>  <SLogP>
1.98

>  <SMR>
75.92

>  <TopoPSA(NO)>
41.57

>  <TopoPSA>
41.57

>  <JGI1>
0.26

>  <JGI2>
0.08

>  <JGI3>
0.05

>  <JGI4>
0.06

>  <JGI5>
0.02

>  <Diameter>
8

>  <Radius>
4

>  <TMWC10>
119.74

>  <TSRW10>
55

>  <MW>
292.1

>  <AMW>
7.89

>  <WPath>
684

>  <WPol>
39

>  <Zagreb1>
118

>  <Zagreb2>
146

>  <mZagreb2>
4.13

>  <yes>


>  <nAR-cont>
0.691115

>  <nHA-cont>
0.999629945

>  <MWHBN>
0.234042222

>  <MWHBN-cont>
0.982422647

>  <TPSA-cont>
0.709815587

>  <pka_cont>
0.97

>  <yes.1>


>  <BBB_SCORE>
5.069010089

>  <MMFF94 Energy>
-29.175

$$$$
Compound 1426
Actelion Java MolfileCreator 2.0

  0  0  0  0  0  0              0 V3000
M  V30 BEGIN CTAB
M  V30 COUNTS 43 47 0 0 0
M  V30 BEGIN ATOM
M  V30 1 O -0.4058 1.7053 -3.4942 0
M  V30 2 C -0.338 1.7076 -2.2627 0
M  V30 3 C 0.8866 1.152 -1.4953 0 CFG=2
M  V30 4 C -1.4266 2.3643 -1.444 0
M  V30 5 O 1.4609 0.0555 -2.2916 0
M  V30 6 C 0.5047 0.5489 -0.1155 0 CFG=2
M  V30 7 C 1.9255 2.2722 -1.4371 0
M  V30 8 C -1.8876 1.4371 -0.3308 0
M  V30 9 C 0.807 -1.0532 -1.8134 0
M  V30 10 C 0.184 -0.8214 -0.6072 0
M  V30 11 C -0.7212 1.1205 0.6132 0 CFG=1
M  V30 12 C 1.6769 0.4577 0.8924 0
M  V30 13 C 0.6912 -2.2745 -2.4327 0
M  V30 14 C -0.6589 -1.7391 -0.0064 0
M  V30 15 C -1.0935 0.118 1.7497 0 CFG=1
M  V30 16 C 1.3023 -0.2952 2.178 0
M  V30 17 O 1.2955 -2.5261 -3.6239 0
M  V30 18 C -0.0978 -3.2554 -1.8316 0
M  V30 19 C -0.7878 -2.9835 -0.6299 0
M  V30 20 C -1.4523 -1.3118 1.2021 0
M  V30 21 N 0.0228 0.1673 2.7263 0
M  V30 22 C -0.2844 -0.509 3.9844 0
M  V30 23 H -2.2715 2.594 -2.1024 0
M  V30 24 H -1.0435 3.3103 -1.0469 0
M  V30 25 H 2.1001 2.6925 -2.4349 0
M  V30 26 H 2.8974 1.9031 -1.0933 0
M  V30 27 H 1.6008 3.0889 -0.784 0
M  V30 28 H -2.6937 1.9204 0.2339 0
M  V30 29 H -2.3126 0.5267 -0.7677 0
M  V30 30 H -0.4365 2.0794 1.0741 0
M  V30 31 H 1.9887 1.4725 1.1735 0
M  V30 32 H 2.5534 -0.0288 0.4454 0
M  V30 33 H -1.9845 0.5088 2.2596 0
M  V30 34 H 1.2894 -1.3764 1.9943 0
M  V30 35 H 2.1002 -0.1194 2.9108 0
M  V30 36 H 1.703 -1.6821 -3.899 0
M  V30 37 H -0.2091 -4.2233 -2.3134 0
M  V30 38 H -1.4365 -3.7473 -0.2069 0
M  V30 39 H -1.3648 -2.0704 1.9861 0
M  V30 40 H -2.5095 -1.2944 0.9051 0
M  V30 41 H -1.2298 -0.1451 4.4016 0
M  V30 42 H -0.347 -1.5967 3.8796 0
M  V30 43 H 0.4882 -0.2887 4.7298 0
M  V30 END ATOM
M  V30 BEGIN BOND
M  V30 1 2 1 2
M  V30 2 1 2 3
M  V30 3 1 2 4
M  V30 4 1 3 5
M  V30 5 1 3 6
M  V30 6 1 3 7
M  V30 7 1 4 8
M  V30 8 1 5 9
M  V30 9 1 6 10
M  V30 10 1 6 11
M  V30 11 1 6 12
M  V30 12 1 9 13
M  V30 13 1 10 14
M  V30 14 1 11 15
M  V30 15 1 12 16
M  V30 16 1 13 17
M  V30 17 2 13 18
M  V30 18 2 14 19
M  V30 19 1 14 20
M  V30 20 1 15 21
M  V30 21 1 21 22
M  V30 22 1 8 11
M  V30 23 2 9 10
M  V30 24 1 15 20
M  V30 25 1 16 21
M  V30 26 1 18 19
M  V30 27 1 4 23
M  V30 28 1 4 24
M  V30 29 1 7 25
M  V30 30 1 7 26
M  V30 31 1 7 27
M  V30 32 1 8 28
M  V30 33 1 8 29
M  V30 34 1 11 30
M  V30 35 1 12 31
M  V30 36 1 12 32
M  V30 37 1 15 33
M  V30 38 1 16 34
M  V30 39 1 16 35
M  V30 40 1 17 36
M  V30 41 1 18 37
M  V30 42 1 19 38
M  V30 43 1 20 39
M  V30 44 1 20 40
M  V30 45 1 22 41
M  V30 46 1 22 42
M  V30 47 1 22 43
M  V30 END BOND
M  V30 BEGIN COLLECTION
M  V30 MDLV30/STEABS ATOMS=(4 3 6 11 15)
M  V30 END COLLECTION
M  V30 END CTAB
M  END
>  <Column 1>
1702

>  <level_0>
1860

>  <index>
1860

>  <Unnamed: 0>
1860

>  <NO.>
1872

>  <Name>
metopon

>  <IUPAC_name>
(4r-4ar-7ar-12bs)-9-hydroxy-3-7a-dimethyl-2-4-4a-5-6-13-hexahydro-1h-4-12-methanobenzofuro[3-2-e]isoquinolin-7-one

>  <SMILES>
CN1CC[C@]23c4c5ccc(O)c4O[C@@]2(C)C(=O)CC[C@H]3[C@H]1C5

>  <CID>
5359353

>  <logBB>


>  <BBB+/BBB->
BBB+

>  <Inchi>
InChI=1S/C18H21NO3/c1-17-14(21)6-4-11-12-9-10-3-5-13(20)16(22-17)15(10)18(11-17)7-8-19(12)2/h3-5-11-12-20H-4-6-9H2-1-2H3/t11--12+-17--18-/m0/s1

>  <threshold>
-1

>  <reference>
R1|R6|R27|R30|

>  <group>
B

>  <Class>
1

>  <ABC>
18.39

>  <ABCGG>
14.34

>  <nAcid>
0

>  <nBase>
1

>  <nAromAtom>
6

>  <nAromBond>
6

>  <nAtom>
43

>  <nHeavyAtom>
22

>  <nSpiro>
1

>  <nBridgehead>
2

>  <nHetero>
4

>  <nN>
1

>  <nO>
3

>  <nF>
0

>  <BalabanJ>
1.7

>  <BertzCT>
714.53

>  <nBonds>
47

>  <nBondsO>
26

>  <nBondsS>
40

>  <nBondsD>
1

>  <nBondsT>
0

>  <nBondsA>
6

>  <nBondsM>
7

>  <nBondsKS>
43

>  <nBondsKD>
4

>  <RNCG>
0.28

>  <RPCG>
0.16

>  <FCSP3>
0.61

>  <SZ>
26.67

>  <Sm>
24.92

>  <Sv>
26.59

>  <Sse>
42.98

>  <Sp>
28.48

>  <Si>
48.28

>  <MZ>
0.62

>  <Mm>
0.58

>  <Mv>
0.62

>  <Mse>
1

>  <Mp>
0.66

>  <Mi>
1.12

>  <NsCH3>
2

>  <NdCH2>
0

>  <NssCH2>
5

>  <NtCH>
0

>  <NdsCH>
0

>  <NaaCH>
2

>  <NsssCH>
2

>  <NddC>
0

>  <NtsC>
0

>  <NdssC>
1

>  <NaasC>
4

>  <NaaaC>
0

>  <NssssC>
2

>  <NsNH3>
0

>  <NsNH2>
0

>  <NssNH2>
0

>  <NdNH>
0

>  <NssNH>
0

>  <NaaNH>
0

>  <NtN>
0

>  <NsssNH>
0

>  <NdsN>
0

>  <NaaN>
0

>  <NsssN>
1

>  <NddsN>
0

>  <NaasN>
0

>  <NssssN>
0

>  <NsOH>
1

>  <NdO>
1

>  <NssO>
1

>  <NaaO>
0

>  <NsF>
0

>  <NsSiH3>
0

>  <NssSiH2>
0

>  <NsssSiH>
0

>  <NssssSi>
0

>  <NsPH2>
0

>  <NssPH>
0

>  <NsssP>
0

>  <NdsssP>
0

>  <NsssssP>
0

>  <NsSH>
0

>  <NdS>
0

>  <NssS>
0

>  <NaaS>
0

>  <NdssS>
0

>  <NddssS>
0

>  <NsCl>
0

>  <NsBr>
0

>  <NsI>
0

>  <fragCpx>
214.04

>  <fMF>
0.42

>  <nHBAcc>
4

>  <nHBDon>
1

>  <Kier1>
14.35

>  <Kier2>
4.34

>  <Lipinski>
1

>  <GhoseFilter>
1

>  <FilterItLogS>
-3.53

>  <VMcGowan>
220.57

>  <LabuteASA>
129.62

>  <PEOE_VSA1>
14.74

>  <PEOE_VSA2>
4.79

>  <PEOE_VSA3>
0

>  <PEOE_VSA4>
0

>  <PEOE_VSA5>
0

>  <PEOE_VSA6>
6.07

>  <PEOE_VSA7>
57.33

>  <PEOE_VSA8>
18.03

>  <PEOE_VSA9>
5.41

>  <PEOE_VSA10>
0

>  <PEOE_VSA11>
22.88

>  <PEOE_VSA12>
0

>  <PEOE_VSA13>
0

>  <SMR_VSA1>
14.64

>  <SMR_VSA2>
0

>  <SMR_VSA3>
4.9

>  <SMR_VSA4>
5.92

>  <SMR_VSA5>
49.66

>  <SMR_VSA6>
13.59

>  <SMR_VSA7>
23.26

>  <SMR_VSA8>
0

>  <SMR_VSA9>
11.5

>  <SlogP_VSA1>
4.74

>  <SlogP_VSA2>
41.03

>  <SlogP_VSA3>
16.63

>  <SlogP_VSA4>
5.92

>  <SlogP_VSA5>
37.31

>  <SlogP_VSA6>
12.13

>  <SlogP_VSA7>
0

>  <SlogP_VSA8>
0

>  <SlogP_VSA9>
0

>  <SlogP_VSA10>
0

>  <SlogP_VSA11>
11.5

>  <EState_VSA1>
5.6

>  <EState_VSA2>
16.95

>  <EState_VSA3>
24.13

>  <EState_VSA4>
31.37

>  <EState_VSA5>
5.56

>  <EState_VSA6>
6.07

>  <EState_VSA7>
12.99

>  <EState_VSA8>
11.95

>  <EState_VSA9>
4.74

>  <EState_VSA10>
9.9

>  <VSA_EState1>
6.23

>  <VSA_EState2>
15.27

>  <VSA_EState3>
10.31

>  <VSA_EState4>
1.38

>  <VSA_EState5>
1.43

>  <VSA_EState6>
4.24

>  <VSA_EState7>
3.48

>  <VSA_EState8>
2.96

>  <VSA_EState9>
2.2

>  <apol>
47.57

>  <bpol>
25.38

>  <nRing>
5

>  <nHRing>
2

>  <naRing>
1

>  <naHRing>
0

>  <nARing 2>
4

>  <nAHRing 2>
2

>  <nFRing>
1

>  <nFHRing>
1

>  <nFaRing>
0

>  <nFaHRing>
0

>  <nFARing 2>
1

>  <nFAHRing 2>
1

>  <nRot>
0

>  <SLogP>
2.02

>  <SMR>
81.29

>  <TopoPSA(NO)>
49.77

>  <TopoPSA>
49.77

>  <JGI1>
0.23

>  <JGI2>
0.13

>  <JGI3>
0.07

>  <JGI4>
0.06

>  <JGI5>
0.03

>  <Diameter>
8

>  <Radius>
4

>  <TMWC10>
128.43

>  <TSRW10>
73.24

>  <MW>
299.15

>  <AMW>
6.96

>  <WPath>
788

>  <WPol>
55

>  <Zagreb1>
140

>  <Zagreb2>
186

>  <mZagreb2>
4.45

>  <yes>


>  <nAR-cont>
0.199399

>  <nHA-cont>
0.983774276

>  <MWHBN>
0.289084962

>  <MWHBN-cont>
0.872076138

>  <TPSA-cont>
0.652574495

>  <pka_cont>
0.97

>  <yes.1>


>  <BBB_SCORE>
4.281436472

>  <MMFF94 Energy>
81.533

$$$$
Compound 1427
Actelion Java MolfileCreator 2.0

  0  0  0  0  0  0              0 V3000
M  V30 BEGIN CTAB
M  V30 COUNTS 40 44 0 0 0
M  V30 BEGIN ATOM
M  V30 1 O -3.3392 -2.4425 0.0 0
M  V30 2 C -2.1478 -2.1839 0.185 0
M  V30 3 C -1.6889 -1.0794 1.1528 0 CFG=2
M  V30 4 C -1.0762 -3.0348 -0.4597 0
M  V30 5 O -2.6727 0.0065 1.1424 0
M  V30 6 C -0.3253 -0.4659 0.793 0 CFG=2
M  V30 7 C 0.0137 -2.1666 -1.0736 0
M  V30 8 C -2.1642 0.873 0.2056 0
M  V30 9 C -0.8423 0.6179 -0.0842 0
M  V30 10 C 0.6804 -1.321 0.0165 0 CFG=1
M  V30 11 C 0.3866 0.1518 2.0149 0
M  V30 12 C -2.8377 1.8727 -0.4533 0
M  V30 13 C -0.1507 1.2606 -1.0938 0
M  V30 14 C 1.7891 -0.357 -0.5039 0 CFG=1
M  V30 15 C 1.6679 0.9046 1.6227 0
M  V30 16 O -4.1422 2.1457 -0.1865 0
M  V30 17 C -2.1635 2.5921 -1.4409 0
M  V30 18 C -0.8276 2.2758 -1.7747 0
M  V30 19 C 1.2248 0.7618 -1.4554 0
M  V30 20 N 2.5071 0.1264 0.7032 0
M  V30 21 C 3.7425 0.84 0.389 0
M  V30 22 H -1.6757 -1.5225 2.1557 0
M  V30 23 H -1.5382 -3.6468 -1.2421 0
M  V30 24 H -0.6685 -3.7097 0.3004 0
M  V30 25 H 0.7642 -2.8081 -1.5502 0
M  V30 26 H -0.4162 -1.5421 -1.8645 0
M  V30 27 H 1.1434 -2.0382 0.7123 0
M  V30 28 H 0.6487 -0.652 2.7161 0
M  V30 29 H -0.2727 0.8379 2.5622 0
M  V30 30 H 2.5039 -0.9542 -1.0857 0
M  V30 31 H 2.2277 1.1115 2.5436 0
M  V30 32 H 1.413 1.8812 1.193 0
M  V30 33 H -4.4283 1.4743 0.4625 0
M  V30 34 H -2.6844 3.3794 -1.9798 0
M  V30 35 H -0.34 2.8191 -2.5808 0
M  V30 36 H 1.1569 0.3314 -2.4634 0
M  V30 37 H 1.9158 1.6076 -1.526 0
M  V30 38 H 4.324 1.0082 1.3025 0
M  V30 39 H 3.5647 1.8138 -0.078 0
M  V30 40 H 4.3769 0.2455 -0.2772 0
M  V30 END ATOM
M  V30 BEGIN BOND
M  V30 1 2 1 2
M  V30 2 1 2 3
M  V30 3 1 2 4
M  V30 4 1 3 5
M  V30 5 1 3 6
M  V30 6 1 4 7
M  V30 7 1 5 8
M  V30 8 1 6 9
M  V30 9 1 6 10
M  V30 10 1 6 11
M  V30 11 1 8 12
M  V30 12 1 9 13
M  V30 13 1 10 14
M  V30 14 1 11 15
M  V30 15 1 12 16
M  V30 16 2 12 17
M  V30 17 2 13 18
M  V30 18 1 13 19
M  V30 19 1 14 20
M  V30 20 1 20 21
M  V30 21 1 7 10
M  V30 22 2 8 9
M  V30 23 1 14 19
M  V30 24 1 15 20
M  V30 25 1 17 18
M  V30 26 1 3 22
M  V30 27 1 4 23
M  V30 28 1 4 24
M  V30 29 1 7 25
M  V30 30 1 7 26
M  V30 31 1 10 27
M  V30 32 1 11 28
M  V30 33 1 11 29
M  V30 34 1 14 30
M  V30 35 1 15 31
M  V30 36 1 15 32
M  V30 37 1 16 33
M  V30 38 1 17 34
M  V30 39 1 18 35
M  V30 40 1 19 36
M  V30 41 1 19 37
M  V30 42 1 21 38
M  V30 43 1 21 39
M  V30 44 1 21 40
M  V30 END BOND
M  V30 BEGIN COLLECTION
M  V30 MDLV30/STEABS ATOMS=(4 3 6 10 14)
M  V30 END COLLECTION
M  V30 END CTAB
M  END
>  <Column 1>
1703

>  <level_0>
1861

>  <index>
1861

>  <Unnamed: 0>
1861

>  <NO.>
1873

>  <Name>
hydromorphone

>  <IUPAC_name>
(4r-4ar-7ar-12bs)-9-hydroxy-3-methyl-1-2-4-4a-5-6-7a-13-octahydro-4-12-methanobenzofuro[3-2-e]isoquinolin-7-one

>  <SMILES>
CN1CC[C@]23c4c5ccc(O)c4O[C@H]2C(=O)CC[C@H]3[C@H]1C5

>  <CID>
5284570

>  <logBB>


>  <BBB+/BBB->
BBB+

>  <Inchi>
InChI=1S/C17H19NO3/c1-18-7-6-17-10-3-5-13(20)16(17)21-15-12(19)4-2-9(14(15)17)8-11(10)18/h2-4-10-11-16-19H-3-5-8H2-1H3/t10--11+-16--17-/m0/s1

>  <threshold>
-1

>  <reference>
R1|R6|R15|R27|R30|

>  <group>
B

>  <Class>
1

>  <ABC>
17.58

>  <ABCGG>
13.51

>  <nAcid>
0

>  <nBase>
1

>  <nAromAtom>
6

>  <nAromBond>
6

>  <nAtom>
40

>  <nHeavyAtom>
21

>  <nSpiro>
1

>  <nBridgehead>
2

>  <nHetero>
4

>  <nN>
1

>  <nO>
3

>  <nF>
0

>  <BalabanJ>
1.65

>  <BertzCT>
670.24

>  <nBonds>
44

>  <nBondsO>
25

>  <nBondsS>
37

>  <nBondsD>
1

>  <nBondsT>
0

>  <nBondsA>
6

>  <nBondsM>
7

>  <nBondsKS>
40

>  <nBondsKD>
4

>  <RNCG>
0.28

>  <RPCG>
0.16

>  <FCSP3>
0.59

>  <SZ>
25.33

>  <Sm>
23.76

>  <Sv>
25.05

>  <Sse>
40.09

>  <Sp>
26.69

>  <Si>
44.86

>  <MZ>
0.63

>  <Mm>
0.59

>  <Mv>
0.63

>  <Mse>
1

>  <Mp>
0.67

>  <Mi>
1.12

>  <NsCH3>
1

>  <NdCH2>
0

>  <NssCH2>
5

>  <NtCH>
0

>  <NdsCH>
0

>  <NaaCH>
2

>  <NsssCH>
3

>  <NddC>
0

>  <NtsC>
0

>  <NdssC>
1

>  <NaasC>
4

>  <NaaaC>
0

>  <NssssC>
1

>  <NsNH3>
0

>  <NsNH2>
0

>  <NssNH2>
0

>  <NdNH>
0

>  <NssNH>
0

>  <NaaNH>
0

>  <NtN>
0

>  <NsssNH>
0

>  <NdsN>
0

>  <NaaN>
0

>  <NsssN>
1

>  <NddsN>
0

>  <NaasN>
0

>  <NssssN>
0

>  <NsOH>
1

>  <NdO>
1

>  <NssO>
1

>  <NaaO>
0

>  <NsF>
0

>  <NsSiH3>
0

>  <NssSiH2>
0

>  <NsssSiH>
0

>  <NssssSi>
0

>  <NsPH2>
0

>  <NssPH>
0

>  <NsssP>
0

>  <NdsssP>
0

>  <NsssssP>
0

>  <NsSH>
0

>  <NdS>
0

>  <NssS>
0

>  <NaaS>
0

>  <NdssS>
0

>  <NddssS>
0

>  <NsCl>
0

>  <NsBr>
0

>  <NsI>
0

>  <fragCpx>
205.04

>  <fMF>
0.45

>  <nHBAcc>
4

>  <nHBDon>
1

>  <Kier1>
13.44

>  <Kier2>
4.3

>  <Lipinski>
1

>  <GhoseFilter>
1

>  <FilterItLogS>
-2.93

>  <VMcGowan>
206.48

>  <LabuteASA>
123.25

>  <PEOE_VSA1>
14.74

>  <PEOE_VSA2>
4.79

>  <PEOE_VSA3>
0

>  <PEOE_VSA4>
0

>  <PEOE_VSA5>
0

>  <PEOE_VSA6>
6.07

>  <PEOE_VSA7>
50.4

>  <PEOE_VSA8>
23.44

>  <PEOE_VSA9>
0

>  <PEOE_VSA10>
0

>  <PEOE_VSA11>
23.39

>  <PEOE_VSA12>
0

>  <PEOE_VSA13>
0

>  <SMR_VSA1>
14.64

>  <SMR_VSA2>
0

>  <SMR_VSA3>
4.9

>  <SMR_VSA4>
5.92

>  <SMR_VSA5>
43.24

>  <SMR_VSA6>
13.59

>  <SMR_VSA7>
23.26

>  <SMR_VSA8>
0

>  <SMR_VSA9>
11.5

>  <SlogP_VSA1>
4.74

>  <SlogP_VSA2>
41.53

>  <SlogP_VSA3>
16.63

>  <SlogP_VSA4>
5.92

>  <SlogP_VSA5>
30.39

>  <SlogP_VSA6>
12.13

>  <SlogP_VSA7>
0

>  <SlogP_VSA8>
0

>  <SlogP_VSA9>
0

>  <SlogP_VSA10>
0

>  <SlogP_VSA11>
11.5

>  <EState_VSA1>
0

>  <EState_VSA2>
23.05

>  <EState_VSA3>
24.13

>  <EState_VSA4>
31.37

>  <EState_VSA5>
5.56

>  <EState_VSA6>
6.07

>  <EState_VSA7>
6.07

>  <EState_VSA8>
11.95

>  <EState_VSA9>
4.74

>  <EState_VSA10>
9.9

>  <VSA_EState1>
6.04

>  <VSA_EState2>
14.95

>  <VSA_EState3>
10.2

>  <VSA_EState4>
2.26

>  <VSA_EState5>
1.5

>  <VSA_EState6>
4.26

>  <VSA_EState7>
3.18

>  <VSA_EState8>
1

>  <VSA_EState9>
2.2

>  <apol>
44.57

>  <bpol>
23.37

>  <nRing>
5

>  <nHRing>
2

>  <naRing>
1

>  <naHRing>
0

>  <nARing 2>
4

>  <nAHRing 2>
2

>  <nFRing>
1

>  <nFHRing>
1

>  <nFaRing>
0

>  <nFaHRing>
0

>  <nFARing 2>
1

>  <nFAHRing 2>
1

>  <nRot>
0

>  <SLogP>
1.63

>  <SMR>
76.67

>  <TopoPSA(NO)>
49.77

>  <TopoPSA>
49.77

>  <JGI1>
0.2

>  <JGI2>
0.1

>  <JGI3>
0.05

>  <JGI4>
0.06

>  <JGI5>
0.03

>  <Diameter>
8

>  <Radius>
4

>  <TMWC10>
125.38

>  <TSRW10>
71.52

>  <MW>
285.14

>  <AMW>
7.13

>  <WPath>
712

>  <WPol>
49

>  <Zagreb1>
132

>  <Zagreb2>
173

>  <mZagreb2>
4.29

>  <yes>


>  <nAR-cont>
0.199399

>  <nHA-cont>
0.994529749

>  <MWHBN>
0.296101721

>  <MWHBN-cont>
0.85222727

>  <TPSA-cont>
0.652574495

>  <pka_cont>
0.97

>  <yes.1>


>  <BBB_SCORE>
4.262418643

>  <MMFF94 Energy>
74.415

$$$$
Compound 1428
Actelion Java MolfileCreator 2.0

  0  0  0  0  0  0              0 V3000
M  V30 BEGIN CTAB
M  V30 COUNTS 43 47 0 0 0
M  V30 BEGIN ATOM
M  V30 1 O 0.2432 0.4866 2.7599 0
M  V30 2 C -0.7807 0.9884 1.981 0
M  V30 3 C 0.8846 -0.5044 1.8733 0 CFG=2
M  V30 4 C -1.9084 1.6559 2.3996 0
M  V30 5 C -0.6303 0.6513 0.651 0
M  V30 6 C 0.6897 -5.0E-4 0.4331 0 CFG=2
M  V30 7 C 0.2958 -1.9138 2.1888 0 CFG=1
M  V30 8 O -2.0619 1.9755 3.7129 0
M  V30 9 C -2.8974 1.9479 1.4509 0
M  V30 10 C -1.6019 0.8678 -0.3086 0
M  V30 11 C 0.6094 -1.0457 -0.6802 0 CFG=2
M  V30 12 C 1.7106 1.0919 0.0269 0
M  V30 13 O -1.0841 -1.8663 2.576 0
M  V30 14 C 0.3817 -2.8919 1.0193 0
M  V30 15 C -2.753 1.5388 0.1051 0
M  V30 16 C -1.3889 0.2968 -1.6885 0
M  V30 17 O 1.9348 -1.5532 -0.9444 0
M  V30 18 C 0.0541 -0.2812 -1.9392 0 CFG=1
M  V30 19 C -0.2017 -2.2838 -0.2674 0
M  V30 20 C 1.3485 1.7483 -1.3191 0
M  V30 21 N 0.9452 0.8282 -2.3969 0
M  V30 22 C 2.1001 0.3856 -3.1721 0
M  V30 23 H 1.9555 -0.5252 2.1119 0
M  V30 24 H 0.8273 -2.328 3.0533 0
M  V30 25 H -2.8984 2.4555 3.8201 0
M  V30 26 H -3.8086 2.4633 1.7417 0
M  V30 27 H 2.7152 0.6558 -0.0402 0
M  V30 28 H 1.7753 1.8796 0.7893 0
M  V30 29 H -1.1585 -1.1439 3.2304 0
M  V30 30 H -0.1819 -3.8031 1.2546 0
M  V30 31 H 1.4239 -3.1918 0.8626 0
M  V30 32 H -3.554 1.7394 -0.6027 0
M  V30 33 H -2.1099 -0.5197 -1.8235 0
M  V30 34 H -1.6262 1.0564 -2.444 0
M  V30 35 H 1.8866 -2.0717 -1.7667 0
M  V30 36 H -0.036 -0.9878 -2.7751 0
M  V30 37 H -0.1479 -3.0422 -1.0584 0
M  V30 38 H -1.2621 -2.0536 -0.1204 0
M  V30 39 H 2.1838 2.3825 -1.644 0
M  V30 40 H 0.5269 2.4575 -1.1591 0
M  V30 41 H 2.8916 -0.059 -2.5632 0
M  V30 42 H 1.8064 -0.3332 -3.9446 0
M  V30 43 H 2.5383 1.2394 -3.7021 0
M  V30 END ATOM
M  V30 BEGIN BOND
M  V30 1 1 1 2
M  V30 2 1 1 3
M  V30 3 2 2 4
M  V30 4 1 2 5
M  V30 5 1 3 6
M  V30 6 1 3 7
M  V30 7 1 4 8
M  V30 8 1 4 9
M  V30 9 2 5 10
M  V30 10 1 6 11
M  V30 11 1 6 12
M  V30 12 1 7 13
M  V30 13 1 7 14
M  V30 14 2 9 15
M  V30 15 1 10 16
M  V30 16 1 11 17
M  V30 17 1 11 18
M  V30 18 1 11 19
M  V30 19 1 12 20
M  V30 20 1 18 21
M  V30 21 1 21 22
M  V30 22 1 5 6
M  V30 23 1 10 15
M  V30 24 1 14 19
M  V30 25 1 16 18
M  V30 26 1 20 21
M  V30 27 1 3 23
M  V30 28 1 7 24
M  V30 29 1 8 25
M  V30 30 1 9 26
M  V30 31 1 12 27
M  V30 32 1 12 28
M  V30 33 1 13 29
M  V30 34 1 14 30
M  V30 35 1 14 31
M  V30 36 1 15 32
M  V30 37 1 16 33
M  V30 38 1 16 34
M  V30 39 1 17 35
M  V30 40 1 18 36
M  V30 41 1 19 37
M  V30 42 1 19 38
M  V30 43 1 20 39
M  V30 44 1 20 40
M  V30 45 1 22 41
M  V30 46 1 22 42
M  V30 47 1 22 43
M  V30 END BOND
M  V30 BEGIN COLLECTION
M  V30 MDLV30/STEABS ATOMS=(5 3 6 7 11 18)
M  V30 END COLLECTION
M  V30 END CTAB
M  END
>  <Column 1>
1704

>  <level_0>
1863

>  <index>
1863

>  <Unnamed: 0>
1863

>  <NO.>
1875

>  <Name>
hydromorphinol

>  <IUPAC_name>
(4r-4as-7s-7ar-12bs)-3-methyl-1-2-4-5-6-7-7a-13-octahydro-4-12-methanobenzofuro[3-2-e]isoquinoline-4a-7-9-triol

>  <SMILES>
CN1CC[C@]23c4c5ccc(O)c4O[C@H]2[C@@H](O)CC[C@@]3(O)[C@H]1C5

>  <CID>
5463858

>  <logBB>


>  <BBB+/BBB->
BBB+

>  <Inchi>
InChI=1S/C17H21NO4/c1-18-7-6-16-13-9-2-3-10(19)14(13)22-15(16)11(20)4-5-17(16-21)12(18)8-9/h2-3-11-12-15-19-21H-4-8H2-1H3/t11--12+-15--16--17+/m0/s1

>  <threshold>
-1

>  <reference>
R1|R6|R27|R30|

>  <group>
B

>  <Class>
1

>  <ABC>
18.39

>  <ABCGG>
14.37

>  <nAcid>
0

>  <nBase>
1

>  <nAromAtom>
6

>  <nAromBond>
6

>  <nAtom>
43

>  <nHeavyAtom>
22

>  <nSpiro>
1

>  <nBridgehead>
2

>  <nHetero>
5

>  <nN>
1

>  <nO>
4

>  <nF>
0

>  <BalabanJ>
1.7

>  <BertzCT>
676.87

>  <nBonds>
47

>  <nBondsO>
26

>  <nBondsS>
41

>  <nBondsD>
0

>  <nBondsT>
0

>  <nBondsA>
6

>  <nBondsM>
6

>  <nBondsKS>
44

>  <nBondsKD>
3

>  <RNCG>
0.22

>  <RPCG>
0.13

>  <FCSP3>
0.65

>  <SZ>
27

>  <Sm>
25.26

>  <Sv>
26.31

>  <Sse>
43.31

>  <Sp>
27.96

>  <Si>
48.49

>  <MZ>
0.63

>  <Mm>
0.59

>  <Mv>
0.61

>  <Mse>
1.01

>  <Mp>
0.65

>  <Mi>
1.13

>  <NsCH3>
1

>  <NdCH2>
0

>  <NssCH2>
5

>  <NtCH>
0

>  <NdsCH>
0

>  <NaaCH>
2

>  <NsssCH>
3

>  <NddC>
0

>  <NtsC>
0

>  <NdssC>
0

>  <NaasC>
4

>  <NaaaC>
0

>  <NssssC>
2

>  <NsNH3>
0

>  <NsNH2>
0

>  <NssNH2>
0

>  <NdNH>
0

>  <NssNH>
0

>  <NaaNH>
0

>  <NtN>
0

>  <NsssNH>
0

>  <NdsN>
0

>  <NaaN>
0

>  <NsssN>
1

>  <NddsN>
0

>  <NaasN>
0

>  <NssssN>
0

>  <NsOH>
3

>  <NdO>
0

>  <NssO>
1

>  <NaaO>
0

>  <NsF>
0

>  <NsSiH3>
0

>  <NssSiH2>
0

>  <NsssSiH>
0

>  <NssssSi>
0

>  <NsPH2>
0

>  <NssPH>
0

>  <NsssP>
0

>  <NdsssP>
0

>  <NsssssP>
0

>  <NsSH>
0

>  <NdS>
0

>  <NssS>
0

>  <NaaS>
0

>  <NdssS>
0

>  <NddssS>
0

>  <NsCl>
0

>  <NsBr>
0

>  <NsI>
0

>  <fragCpx>
214.05

>  <fMF>
0.42

>  <nHBAcc>
5

>  <nHBDon>
3

>  <Kier1>
14.35

>  <Kier2>
4.34

>  <Lipinski>
1

>  <GhoseFilter>
1

>  <FilterItLogS>
-1.87

>  <VMcGowan>
216.65

>  <LabuteASA>
128.68

>  <PEOE_VSA1>
24.96

>  <PEOE_VSA2>
0

>  <PEOE_VSA3>
0

>  <PEOE_VSA4>
0

>  <PEOE_VSA5>
0

>  <PEOE_VSA6>
6.07

>  <PEOE_VSA7>
50.91

>  <PEOE_VSA8>
11.61

>  <PEOE_VSA9>
17.12

>  <PEOE_VSA10>
6.1

>  <PEOE_VSA11>
11.5

>  <PEOE_VSA12>
0

>  <PEOE_VSA13>
0

>  <SMR_VSA1>
20.06

>  <SMR_VSA2>
0

>  <SMR_VSA3>
4.9

>  <SMR_VSA4>
0

>  <SMR_VSA5>
54.95

>  <SMR_VSA6>
13.59

>  <SMR_VSA7>
23.26

>  <SMR_VSA8>
0

>  <SMR_VSA9>
11.5

>  <SlogP_VSA1>
4.74

>  <SlogP_VSA2>
57.66

>  <SlogP_VSA3>
11.84

>  <SlogP_VSA4>
0

>  <SlogP_VSA5>
30.39

>  <SlogP_VSA6>
12.13

>  <SlogP_VSA7>
0

>  <SlogP_VSA8>
0

>  <SlogP_VSA9>
0

>  <SlogP_VSA10>
0

>  <SlogP_VSA11>
11.5

>  <EState_VSA1>
23.22

>  <EState_VSA2>
11.79

>  <EState_VSA3>
18.59

>  <EState_VSA4>
30.51

>  <EState_VSA5>
0

>  <EState_VSA6>
6.07

>  <EState_VSA7>
6.07

>  <EState_VSA8>
11.95

>  <EState_VSA9>
4.74

>  <EState_VSA10>
15.32

>  <VSA_EState1>
6.04

>  <VSA_EState2>
2.24

>  <VSA_EState3>
32.44

>  <VSA_EState4>
0.63

>  <VSA_EState5>
0.61

>  <VSA_EState6>
3.67

>  <VSA_EState7>
1.59

>  <VSA_EState8>
0.87

>  <VSA_EState9>
2.07

>  <apol>
46.7

>  <bpol>
24.51

>  <nRing>
5

>  <nHRing>
2

>  <naRing>
1

>  <naHRing>
0

>  <nARing 2>
4

>  <nAHRing 2>
2

>  <nFRing>
1

>  <nFHRing>
1

>  <nFaRing>
0

>  <nFaHRing>
0

>  <nFARing 2>
1

>  <nFAHRing 2>
1

>  <nRot>
0

>  <SLogP>
0.54

>  <SMR>
79.13

>  <TopoPSA(NO)>
73.16

>  <TopoPSA>
73.16

>  <JGI1>
0.23

>  <JGI2>
0.13

>  <JGI3>
0.06

>  <JGI4>
0.06

>  <JGI5>
0.03

>  <Diameter>
8

>  <Radius>
4

>  <TMWC10>
128.45

>  <TSRW10>
73.02

>  <MW>
303.15

>  <AMW>
7.05

>  <WPath>
788

>  <WPol>
55

>  <Zagreb1>
140

>  <Zagreb2>
186

>  <mZagreb2>
4.45

>  <yes>


>  <nAR-cont>
0.199399

>  <nHA-cont>
0.983774276

>  <MWHBN>
0.459474275

>  <MWHBN-cont>
0

>  <TPSA-cont>
0.48929777

>  <pka_cont>
0.97

>  <yes.1>


>  <BBB_SCORE>
2.646768817

>  <MMFF94 Energy>
120.96

$$$$
Compound 1429
Actelion Java MolfileCreator 2.0

  0  0  0  0  0  0              0 V3000
M  V30 BEGIN CTAB
M  V30 COUNTS 62 68 0 0 0
M  V30 BEGIN ATOM
M  V30 1 O 1.3044 -1.3859 2.855 0
M  V30 2 C 1.0898 -0.1921 2.9973 0
M  V30 3 O 1.4209 0.8401 2.1412 0
M  V30 4 C 0.3808 0.3667 4.1667 0
M  V30 5 C 1.8193 0.4284 0.8717 0
M  V30 6 C 0.5263 1.6893 4.5667 0
M  V30 7 C -0.4693 -0.4522 4.9118 0
M  V30 8 C 0.965 -0.2399 0.0205 0
M  V30 9 C 3.0687 0.8373 0.3925 0
M  V30 10 N -0.1173 2.2346 5.6298 0
M  V30 11 C -1.1474 0.0809 6.0054 0
M  V30 12 O -0.3326 -0.5994 0.262 0
M  V30 13 C 1.368 -0.5523 -1.2565 0
M  V30 14 C 3.4403 0.5706 -0.9408 0
M  V30 15 C -0.9421 1.4153 6.3212 0
M  V30 16 C -0.8864 -0.8917 -1.0737 0 CFG=2
M  V30 17 C 2.571 -0.1195 -1.791 0
M  V30 18 C 0.2952 -1.2993 -1.981 0 CFG=1
M  V30 19 C -1.7355 0.3124 -1.5964 0 CFG=1
M  V30 20 C 2.8181 -0.3124 -3.266 0
M  V30 21 C 0.267 -0.8274 -3.4395 0 CFG=2
M  V30 22 C 0.5835 -2.8135 -1.9372 0
M  V30 23 O -2.0486 1.2294 -0.5318 0
M  V30 24 C -1.1051 1.114 -2.7098 0
M  V30 25 C 1.692 -1.1085 -4.0198 0 CFG=2
M  V30 26 C -0.2049 0.6022 -3.5643 0
M  V30 27 C 1.865 -3.1894 -2.6977 0
M  V30 28 C -2.9573 0.7689 0.3628 0
M  V30 29 N 2.0045 -2.5651 -4.0231 0
M  V30 30 O -3.6405 -0.2347 0.2359 0
M  V30 31 C -2.9944 1.6395 1.556 0
M  V30 32 C 1.2608 -3.3011 -5.0446 0
M  V30 33 C -3.9027 1.3415 2.5644 0
M  V30 34 C -2.1422 2.7305 1.7454 0
M  V30 35 N -4.0154 2.0488 3.717 0
M  V30 36 C -2.2356 3.4734 2.9204 0
M  V30 37 C -3.1754 3.0967 3.8675 0
M  V30 38 H 1.1817 2.3793 4.0428 0
M  V30 39 H -0.6124 -1.4949 4.6367 0
M  V30 40 H 3.7431 1.3937 1.0373 0
M  V30 41 H -1.825 -0.5285 6.5936 0
M  V30 42 H 4.3966 0.9327 -1.3116 0
M  V30 43 H -1.4536 1.8734 7.1636 0
M  V30 44 H -1.5689 -1.7398 -0.9331 0
M  V30 45 H -2.6729 -0.0727 -2.0229 0
M  V30 46 H 2.8801 0.6861 -3.7189 0
M  V30 47 H 3.7929 -0.7911 -3.4209 0
M  V30 48 H -0.4668 -1.4183 -4.0037 0
M  V30 49 H -0.266 -3.3514 -2.3779 0
M  V30 50 H 0.6731 -3.1693 -0.9024 0
M  V30 51 H -1.4552 2.1341 -2.8471 0
M  V30 52 H 1.731 -0.7645 -5.0627 0
M  V30 53 H 0.1683 1.2077 -4.3864 0
M  V30 54 H 2.7376 -2.9142 -2.0928 0
M  V30 55 H 1.9295 -4.2821 -2.7799 0
M  V30 56 H 0.187 -3.3565 -4.8408 0
M  V30 57 H 1.4019 -2.8457 -6.0309 0
M  V30 58 H 1.6405 -4.3262 -5.1229 0
M  V30 59 H -4.5861 0.4997 2.4801 0
M  V30 60 H -1.4002 3.0013 0.9992 0
M  V30 61 H -1.5801 4.3181 3.104 0
M  V30 62 H -3.2723 3.6407 4.8033 0
M  V30 END ATOM
M  V30 BEGIN BOND
M  V30 1 2 1 2
M  V30 2 1 2 3
M  V30 3 1 2 4
M  V30 4 1 3 5
M  V30 5 2 4 6
M  V30 6 1 4 7
M  V30 7 2 5 8
M  V30 8 1 5 9
M  V30 9 1 6 10
M  V30 10 2 7 11
M  V30 11 1 8 12
M  V30 12 1 8 13
M  V30 13 2 9 14
M  V30 14 2 10 15
M  V30 15 1 12 16
M  V30 16 2 13 17
M  V30 17 1 13 18
M  V30 18 1 16 19
M  V30 19 1 17 20
M  V30 20 1 18 21
M  V30 21 1 18 22
M  V30 22 1 19 23
M  V30 23 1 19 24
M  V30 24 1 20 25
M  V30 25 1 21 26
M  V30 26 1 22 27
M  V30 27 1 23 28
M  V30 28 1 25 29
M  V30 29 2 28 30
M  V30 30 1 28 31
M  V30 31 1 29 32
M  V30 32 2 31 33
M  V30 33 1 31 34
M  V30 34 1 33 35
M  V30 35 2 34 36
M  V30 36 2 35 37
M  V30 37 1 11 15
M  V30 38 1 14 17
M  V30 39 1 16 18
M  V30 40 1 21 25
M  V30 41 2 24 26
M  V30 42 1 27 29
M  V30 43 1 36 37
M  V30 44 1 6 38
M  V30 45 1 7 39
M  V30 46 1 9 40
M  V30 47 1 11 41
M  V30 48 1 14 42
M  V30 49 1 15 43
M  V30 50 1 16 44
M  V30 51 1 19 45
M  V30 52 1 20 46
M  V30 53 1 20 47
M  V30 54 1 21 48
M  V30 55 1 22 49
M  V30 56 1 22 50
M  V30 57 1 24 51
M  V30 58 1 25 52
M  V30 59 1 26 53
M  V30 60 1 27 54
M  V30 61 1 27 55
M  V30 62 1 32 56
M  V30 63 1 32 57
M  V30 64 1 32 58
M  V30 65 1 33 59
M  V30 66 1 34 60
M  V30 67 1 36 61
M  V30 68 1 37 62
M  V30 END BOND
M  V30 BEGIN COLLECTION
M  V30 MDLV30/STEABS ATOMS=(5 16 18 19 21 25)
M  V30 END COLLECTION
M  V30 END CTAB
M  END
>  <Column 1>
1705

>  <level_0>
1864

>  <index>
1864

>  <Unnamed: 0>
1864

>  <NO.>
1876

>  <Name>
nicomorphine

>  <IUPAC_name>
[(4r-4ar-7s-7ar-12bs)-3-methyl-9-(pyridine-3-carbonyloxy)-2-4-4a-7-7a-13-hexahydro-1h-4-12-methanobenzofuro[3-2-e]isoquinolin-7-yl] pyridine-3-carboxylate

>  <SMILES>
CN1CC[C@]23c4c5ccc(OC(=O)c6cccnc6)c4O[C@H]2[C@@H](OC(=O)c2cccnc2)C=C[C@H]3[C@H]1C5

>  <CID>
5362460

>  <logBB>


>  <BBB+/BBB->
BBB+

>  <Inchi>
InChI=1S/C29H25N3O5/c1-32-13-10-29-20-7-9-23(36-28(34)19-5-3-12-31-16-19)26(29)37-25-22(8-6-17(24(25)29)14-21(20)32)35-27(33)18-4-2-11-30-15-18/h2-9-11-12-15-16-20-21-23-26H-10-13-14H2-1H3/t20--21+-23--26--29-/m0/s1

>  <threshold>
-1

>  <reference>
R1|R6|R27|R30|

>  <group>
B

>  <Class>
1

>  <ABC>
30.23

>  <ABCGG>
20.9

>  <nAcid>
0

>  <nBase>
1

>  <nAromAtom>
18

>  <nAromBond>
18

>  <nAtom>
62

>  <nHeavyAtom>
37

>  <nSpiro>
1

>  <nBridgehead>
2

>  <nHetero>
8

>  <nN>
3

>  <nO>
5

>  <nF>
0

>  <BalabanJ>
1.15

>  <BertzCT>
1426.21

>  <nBonds>
68

>  <nBondsO>
43

>  <nBondsS>
47

>  <nBondsD>
3

>  <nBondsT>
0

>  <nBondsA>
18

>  <nBondsM>
21

>  <nBondsKS>
56

>  <nBondsKD>
12

>  <RNCG>
0.15

>  <RPCG>
0.11

>  <FCSP3>
0.31

>  <SZ>
43.33

>  <Sm>
41.26

>  <Sv>
41.62

>  <Sse>
62.74

>  <Sp>
43.36

>  <Si>
69.11

>  <MZ>
0.7

>  <Mm>
0.67

>  <Mv>
0.67

>  <Mse>
1.01

>  <Mp>
0.7

>  <Mi>
1.11

>  <NsCH3>
1

>  <NdCH2>
0

>  <NssCH2>
3

>  <NtCH>
0

>  <NdsCH>
2

>  <NaaCH>
10

>  <NsssCH>
4

>  <NddC>
0

>  <NtsC>
0

>  <NdssC>
2

>  <NaasC>
6

>  <NaaaC>
0

>  <NssssC>
1

>  <NsNH3>
0

>  <NsNH2>
0

>  <NssNH2>
0

>  <NdNH>
0

>  <NssNH>
0

>  <NaaNH>
0

>  <NtN>
0

>  <NsssNH>
0

>  <NdsN>
0

>  <NaaN>
2

>  <NsssN>
1

>  <NddsN>
0

>  <NaasN>
0

>  <NssssN>
0

>  <NsOH>
0

>  <NdO>
2

>  <NssO>
3

>  <NaaO>
0

>  <NsF>
0

>  <NsSiH3>
0

>  <NssSiH2>
0

>  <NsssSiH>
0

>  <NssssSi>
0

>  <NsPH2>
0

>  <NssPH>
0

>  <NsssP>
0

>  <NdsssP>
0

>  <NsssssP>
0

>  <NsSH>
0

>  <NdS>
0

>  <NssS>
0

>  <NaaS>
0

>  <NdssS>
0

>  <NddssS>
0

>  <NsCl>
0

>  <NsBr>
0

>  <NsI>
0

>  <fragCpx>
517.08

>  <fMF>
0.55

>  <nHBAcc>
8

>  <nHBDon>
0

>  <Kier1>
25.93

>  <Kier2>
10.44

>  <Lipinski>
1

>  <GhoseFilter>
0

>  <FilterItLogS>
-5.2

>  <VMcGowan>
351.14

>  <LabuteASA>
213.44

>  <PEOE_VSA1>
19.11

>  <PEOE_VSA2>
9.97

>  <PEOE_VSA3>
9.59

>  <PEOE_VSA4>
0

>  <PEOE_VSA5>
0

>  <PEOE_VSA6>
12.14

>  <PEOE_VSA7>
68.41

>  <PEOE_VSA8>
47.73

>  <PEOE_VSA9>
11.13

>  <PEOE_VSA10>
6.1

>  <PEOE_VSA11>
17.6

>  <PEOE_VSA12>
0

>  <PEOE_VSA13>
0

>  <SMR_VSA1>
23.8

>  <SMR_VSA2>
0

>  <SMR_VSA3>
14.87

>  <SMR_VSA4>
5.92

>  <SMR_VSA5>
36.51

>  <SMR_VSA6>
13.59

>  <SMR_VSA7>
95.59

>  <SMR_VSA8>
0

>  <SMR_VSA9>
11.5

>  <SlogP_VSA1>
9.47

>  <SlogP_VSA2>
58.65

>  <SlogP_VSA3>
16.57

>  <SlogP_VSA4>
5.92

>  <SlogP_VSA5>
38.26

>  <SlogP_VSA6>
73.34

>  <SlogP_VSA7>
0

>  <SlogP_VSA8>
0

>  <SlogP_VSA9>
0

>  <SlogP_VSA10>
0

>  <SlogP_VSA11>
11.5

>  <EState_VSA1>
24.15

>  <EState_VSA2>
11.33

>  <EState_VSA3>
28.67

>  <EState_VSA4>
24.95

>  <EState_VSA5>
17.96

>  <EState_VSA6>
36.66

>  <EState_VSA7>
12.14

>  <EState_VSA8>
34.06

>  <EState_VSA9>
14.21

>  <EState_VSA10>
9.59

>  <VSA_EState1>
18.55

>  <VSA_EState2>
36.38

>  <VSA_EState3>
0

>  <VSA_EState4>
2.67

>  <VSA_EState5>
0.22

>  <VSA_EState6>
10.94

>  <VSA_EState7>
11.09

>  <VSA_EState8>
0.9

>  <VSA_EState9>
2.17

>  <apol>
72.41

>  <bpol>
36.01

>  <nRing>
7

>  <nHRing>
4

>  <naRing>
3

>  <naHRing>
2

>  <nARing 2>
4

>  <nAHRing 2>
2

>  <nFRing>
1

>  <nFHRing>
1

>  <nFaRing>
0

>  <nFaHRing>
0

>  <nFARing 2>
1

>  <nFAHRing 2>
1

>  <nRot>
4

>  <SLogP>
3.37

>  <SMR>
132.54

>  <TopoPSA(NO)>
90.85

>  <TopoPSA>
90.85

>  <JGI1>
0.16

>  <JGI2>
0.09

>  <JGI3>
0.04

>  <JGI4>
0.04

>  <JGI5>
0.03

>  <Diameter>
16

>  <Radius>
8

>  <TMWC10>
162.51

>  <TSRW10>
89.58

>  <MW>
495.18

>  <AMW>
7.99

>  <WPath>
4040

>  <WPol>
75

>  <Zagreb1>
216

>  <Zagreb2>
271

>  <mZagreb2>
7.85

>  <yes>


>  <nAR-cont>
0.199399

>  <nHA-cont>
0.433355441

>  <MWHBN>
0.359507901

>  <MWHBN-cont>
0.634301515

>  <TPSA-cont>
0.365810586

>  <pka_cont>
0.97

>  <yes.1>


>  <BBB_SCORE>
2.800827885

>  <MMFF94 Energy>
167.07

$$$$
Compound 1430
Actelion Java MolfileCreator 2.0

  0  0  0  0  0  0              0 V3000
M  V30 BEGIN CTAB
M  V30 COUNTS 43 46 0 0 0
M  V30 BEGIN ATOM
M  V30 1 Br -0.9025 4.0253 3.8607 0
M  V30 2 C -1.26 2.4831 2.825 0
M  V30 3 C -0.2249 1.9003 2.0747 0
M  V30 4 C -2.5489 1.9517 2.8092 0
M  V30 5 C -0.4533 0.7527 1.2881 0
M  V30 6 C -2.7718 0.8273 2.0355 0
M  V30 7 C -1.7484 0.2463 1.2943 0
M  V30 8 C 0.6926 0.1564 0.4703 0 CFG=2
M  V30 9 C -4.0409 0.1102 1.7756 0
M  V30 10 O -2.177 -0.8277 0.5538 0
M  V30 11 C 0.7997 0.6791 -0.9702 0
M  V30 12 C 0.7167 -1.4018 0.5249 0
M  V30 13 C -3.4747 -1.1412 1.1098 0
M  V30 14 C 1.9658 0.4184 -1.724 0
M  V30 15 C -0.2359 1.4175 -1.5795 0
M  V30 16 N 2.0699 -2.0093 0.4737 0
M  V30 17 C 2.0758 0.9077 -3.0398 0
M  V30 18 C 3.1113 -0.3859 -1.1534 0
M  V30 19 C -0.1145 1.8924 -2.8878 0
M  V30 20 C 2.7252 -1.8362 -0.8341 0
M  V30 21 C 1.9725 -3.4404 0.7865 0
M  V30 22 C 1.0418 1.6407 -3.6192 0
M  V30 23 O -1.1385 2.6075 -3.4479 0
M  V30 24 Cl 1.2329 2.2097 -5.2367 0
M  V30 25 H 0.768 2.3465 2.0993 0
M  V30 26 H -3.3551 2.4094 3.3733 0
M  V30 27 H 1.6004 0.4998 0.9894 0
M  V30 28 H -4.6091 -0.1283 2.6782 0
M  V30 29 H -4.6619 0.6823 1.0788 0
M  V30 30 H 0.081 -1.8286 -0.2628 0
M  V30 31 H 0.2802 -1.7052 1.4864 0
M  V30 32 H -4.1314 -1.5073 0.314 0
M  V30 33 H -3.34 -1.9519 1.8375 0
M  V30 34 H -1.1512 1.6275 -1.035 0
M  V30 35 H 2.9746 0.7123 -3.6208 0
M  V30 36 H 3.9322 -0.4113 -1.8823 0
M  V30 37 H 3.5245 0.1226 -0.2734 0
M  V30 38 H 2.1184 -2.2664 -1.6423 0
M  V30 39 H 3.6665 -2.4018 -0.8125 0
M  V30 40 H 2.9669 -3.9003 0.807 0
M  V30 41 H 1.3557 -3.9806 0.059 0
M  V30 42 H 1.5437 -3.5907 1.7838 0
M  V30 43 H -1.856 2.6964 -2.8001 0
M  V30 END ATOM
M  V30 BEGIN BOND
M  V30 1 1 1 2
M  V30 2 2 2 3
M  V30 3 1 2 4
M  V30 4 1 3 5
M  V30 5 2 4 6
M  V30 6 2 5 7
M  V30 7 1 5 8
M  V30 8 1 6 9
M  V30 9 1 7 10
M  V30 10 1 8 11
M  V30 11 1 8 12
M  V30 12 1 9 13
M  V30 13 2 11 14
M  V30 14 1 11 15
M  V30 15 1 12 16
M  V30 16 1 14 17
M  V30 17 1 14 18
M  V30 18 2 15 19
M  V30 19 1 16 20
M  V30 20 1 16 21
M  V30 21 2 17 22
M  V30 22 1 19 23
M  V30 23 1 22 24
M  V30 24 1 6 7
M  V30 25 1 10 13
M  V30 26 1 18 20
M  V30 27 1 19 22
M  V30 28 1 3 25
M  V30 29 1 4 26
M  V30 30 1 8 27
M  V30 31 1 9 28
M  V30 32 1 9 29
M  V30 33 1 12 30
M  V30 34 1 12 31
M  V30 35 1 13 32
M  V30 36 1 13 33
M  V30 37 1 15 34
M  V30 38 1 17 35
M  V30 39 1 18 36
M  V30 40 1 18 37
M  V30 41 1 20 38
M  V30 42 1 20 39
M  V30 43 1 21 40
M  V30 44 1 21 41
M  V30 45 1 21 42
M  V30 46 1 23 43
M  V30 END BOND
M  V30 BEGIN COLLECTION
M  V30 MDLV30/STEABS ATOMS=(1 8)
M  V30 END COLLECTION
M  V30 END CTAB
M  END
>  <Column 1>
1706

>  <level_0>
1865

>  <index>
1865

>  <Unnamed: 0>
1865

>  <NO.>
1877

>  <Name>
berupipam

>  <IUPAC_name>
(5s)-5-(5-bromo-2-3-dihydro-1-benzofuran-7-yl)-8-chloro-3-methyl-1-2-4-5-tetrahydro-3-benzazepin-7-ol

>  <SMILES>
CN1CCc2cc(Cl)c(O)cc2[C@@H](c2cc(Br)cc3c2OCC3)C1

>  <CID>
66002

>  <logBB>


>  <BBB+/BBB->
BBB+

>  <Inchi>
InChI=1S/C19H19BrClNO2/c1-22-4-2-11-7-17(21)18(23)9-14(11)16(10-22)15-8-13(20)6-12-3-5-24-19(12)15/h6-9-16-23H-2-5-10H2-1H3/t16-/m0/s1

>  <threshold>
-1

>  <reference>
R1|R13|R6|R24|R27|R30|

>  <group>
B

>  <Class>
1

>  <ABC>
19.29

>  <ABCGG>
15.9

>  <nAcid>
0

>  <nBase>
1

>  <nAromAtom>
12

>  <nAromBond>
12

>  <nAtom>
43

>  <nHeavyAtom>
24

>  <nSpiro>
0

>  <nBridgehead>
0

>  <nHetero>
5

>  <nN>
1

>  <nO>
2

>  <nF>
0

>  <BalabanJ>
1.6

>  <BertzCT>
808.44

>  <nBonds>
46

>  <nBondsO>
27

>  <nBondsS>
34

>  <nBondsD>
0

>  <nBondsT>
0

>  <nBondsA>
12

>  <nBondsM>
12

>  <nBondsKS>
40

>  <nBondsKD>
6

>  <RNCG>
0.3

>  <RPCG>
0.18

>  <FCSP3>
0.37

>  <SZ>
34.67

>  <Sm>
34.03

>  <Sv>
28.71

>  <Sse>
43.2

>  <Sp>
31.34

>  <Si>
47.86

>  <MZ>
0.81

>  <Mm>
0.79

>  <Mv>
0.67

>  <Mse>
1

>  <Mp>
0.73

>  <Mi>
1.11

>  <NsCH3>
1

>  <NdCH2>
0

>  <NssCH2>
5

>  <NtCH>
0

>  <NdsCH>
0

>  <NaaCH>
4

>  <NsssCH>
1

>  <NddC>
0

>  <NtsC>
0

>  <NdssC>
0

>  <NaasC>
8

>  <NaaaC>
0

>  <NssssC>
0

>  <NsNH3>
0

>  <NsNH2>
0

>  <NssNH2>
0

>  <NdNH>
0

>  <NssNH>
0

>  <NaaNH>
0

>  <NtN>
0

>  <NsssNH>
0

>  <NdsN>
0

>  <NaaN>
0

>  <NsssN>
1

>  <NddsN>
0

>  <NaasN>
0

>  <NssssN>
0

>  <NsOH>
1

>  <NdO>
0

>  <NssO>
1

>  <NaaO>
0

>  <NsF>
0

>  <NsSiH3>
0

>  <NssSiH2>
0

>  <NsssSiH>
0

>  <NssssSi>
0

>  <NsPH2>
0

>  <NssPH>
0

>  <NsssP>
0

>  <NdsssP>
0

>  <NsssssP>
0

>  <NsSH>
0

>  <NdS>
0

>  <NssS>
0

>  <NaaS>
0

>  <NdssS>
0

>  <NddssS>
0

>  <NsCl>
1

>  <NsBr>
1

>  <NsI>
0

>  <fragCpx>
177.05

>  <fMF>
0.47

>  <nHBAcc>
3

>  <nHBDon>
1

>  <Kier1>
17.42

>  <Kier2>
6.96

>  <Lipinski>
1

>  <GhoseFilter>
1

>  <FilterItLogS>
-6.01

>  <VMcGowan>
260.79

>  <LabuteASA>
154.87

>  <PEOE_VSA1>
14.74

>  <PEOE_VSA2>
0

>  <PEOE_VSA3>
0

>  <PEOE_VSA4>
0

>  <PEOE_VSA5>
0

>  <PEOE_VSA6>
27.53

>  <PEOE_VSA7>
54.42

>  <PEOE_VSA8>
35.46

>  <PEOE_VSA9>
11.63

>  <PEOE_VSA10>
11.5

>  <PEOE_VSA11>
0

>  <PEOE_VSA12>
0

>  <PEOE_VSA13>
0

>  <SMR_VSA1>
9.84

>  <SMR_VSA2>
0

>  <SMR_VSA3>
4.9

>  <SMR_VSA4>
0

>  <SMR_VSA5>
18.76

>  <SMR_VSA6>
26.74

>  <SMR_VSA7>
56.01

>  <SMR_VSA8>
0

>  <SMR_VSA9>
11.5

>  <SlogP_VSA1>
4.74

>  <SlogP_VSA2>
36.75

>  <SlogP_VSA3>
12.84

>  <SlogP_VSA4>
0

>  <SlogP_VSA5>
28.17

>  <SlogP_VSA6>
28.74

>  <SlogP_VSA7>
5.02

>  <SlogP_VSA8>
0

>  <SlogP_VSA9>
0

>  <SlogP_VSA10>
0

>  <SlogP_VSA11>
11.5

>  <EState_VSA1>
0

>  <EState_VSA2>
11.67

>  <EState_VSA3>
5.02

>  <EState_VSA4>
48.32

>  <EState_VSA5>
16.69

>  <EState_VSA6>
0

>  <EState_VSA7>
12.13

>  <EState_VSA8>
40.01

>  <EState_VSA9>
16.34

>  <EState_VSA10>
5.11

>  <VSA_EState1>
7.03

>  <VSA_EState2>
2.33

>  <VSA_EState3>
10.58

>  <VSA_EState4>
4.8

>  <VSA_EState5>
1.32

>  <VSA_EState6>
8.05

>  <VSA_EState7>
1.88

>  <VSA_EState8>
2.6

>  <VSA_EState9>
2.14

>  <apol>
52.33

>  <bpol>
24.4

>  <nRing>
4

>  <nHRing>
2

>  <naRing>
2

>  <naHRing>
0

>  <nARing 2>
2

>  <nAHRing 2>
2

>  <nFRing>
2

>  <nFHRing>
2

>  <nFaRing>
0

>  <nFaHRing>
0

>  <nFARing 2>
2

>  <nFAHRing 2>
2

>  <nRot>
1

>  <SLogP>
4.36

>  <SMR>
99.5

>  <TopoPSA(NO)>
32.7

>  <TopoPSA>
32.7

>  <JGI1>
0.2

>  <JGI2>
0.08

>  <JGI3>
0.04

>  <JGI4>
0.05

>  <JGI5>
0.02

>  <Diameter>
9

>  <Radius>
5

>  <TMWC10>
127.68

>  <TSRW10>
73.07

>  <MW>
407.03

>  <AMW>
9.47

>  <WPath>
1170

>  <WPol>
44

>  <Zagreb1>
134

>  <Zagreb2>
162

>  <mZagreb2>
5.08

>  <yes>


>  <nAR-cont>
1

>  <nHA-cont>
0.94700071

>  <MWHBN>
0.198265332

>  <MWHBN-cont>
0.999241012

>  <TPSA-cont>
0.771733695

>  <pka_cont>
0.97

>  <yes.1>


>  <BBB_SCORE>
5.474329616

>  <MMFF94 Energy>
107.15

$$$$
Compound 1431
Actelion Java MolfileCreator 2.0

  0  0  0  0  0  0              0 V3000
M  V30 BEGIN CTAB
M  V30 COUNTS 43 46 0 0 0
M  V30 BEGIN ATOM
M  V30 1 Cl 1.2955 2.1869 -5.2709 0
M  V30 2 C 1.1097 1.6301 -3.6484 0
M  V30 3 C -0.0379 1.9 -2.9102 0
M  V30 4 C 2.1404 0.8912 -3.071 0
M  V30 5 O -1.0573 2.625 -3.4658 0
M  V30 6 C -0.1552 1.4341 -1.5983 0
M  V30 7 C 2.0351 0.4123 -1.7508 0
M  V30 8 C 0.8756 0.6869 -0.9916 0
M  V30 9 C 3.1808 -0.3918 -1.1806 0
M  V30 10 C 0.7705 0.1747 0.4536 0 CFG=1
M  V30 11 C 2.7921 -1.8373 -0.8456 0
M  V30 12 C -0.3778 0.7733 1.2666 0
M  V30 13 C 0.7959 -1.383 0.5235 0
M  V30 14 N 2.1481 -1.9936 0.4694 0
M  V30 15 C -1.6737 0.2697 1.2672 0
M  V30 16 C -0.1541 1.9243 2.0477 0
M  V30 17 C 2.0493 -3.4206 0.7997 0
M  V30 18 O -2.0949 -0.8204 0.5459 0
M  V30 19 C -2.6934 0.8436 2.018 0
M  V30 20 C -1.1843 2.507 2.8063 0
M  V30 21 C -3.5369 -0.7686 0.6363 0
M  V30 22 C -2.4666 1.959 2.8025 0
M  V30 23 C -3.929 0.0428 1.868 0
M  V30 24 H 3.0336 0.6841 -3.6564 0
M  V30 25 H -1.7612 2.7381 -2.8069 0
M  V30 26 H -1.0628 1.6596 -1.0471 0
M  V30 27 H 3.9969 -0.4267 -1.9143 0
M  V30 28 H 3.6014 0.1232 -0.3079 0
M  V30 29 H 1.6781 0.5243 0.9689 0
M  V30 30 H 2.1766 -2.2725 -1.6443 0
M  V30 31 H 3.7312 -2.4063 -0.827 0
M  V30 32 H 0.1555 -1.8173 -0.2562 0
M  V30 33 H 0.365 -1.6767 1.4906 0
M  V30 34 H 0.8349 2.3792 2.0764 0
M  V30 35 H 3.0426 -3.883 0.8174 0
M  V30 36 H 1.4252 -3.9677 0.0837 0
M  V30 37 H 1.6285 -3.5581 1.8022 0
M  V30 38 H -0.9743 3.3888 3.4076 0
M  V30 39 H -3.9343 -1.7878 0.6813 0
M  V30 40 H -3.9118 -0.2999 -0.2825 0
M  V30 41 H -3.2578 2.3976 3.4019 0
M  V30 42 H -4.0691 -0.6033 2.7405 0
M  V30 43 H -4.8274 0.6403 1.694 0
M  V30 END ATOM
M  V30 BEGIN BOND
M  V30 1 1 1 2
M  V30 2 2 2 3
M  V30 3 1 2 4
M  V30 4 1 3 5
M  V30 5 1 3 6
M  V30 6 2 4 7
M  V30 7 2 6 8
M  V30 8 1 7 9
M  V30 9 1 8 10
M  V30 10 1 9 11
M  V30 11 1 10 12
M  V30 12 1 10 13
M  V30 13 1 11 14
M  V30 14 2 12 15
M  V30 15 1 12 16
M  V30 16 1 14 17
M  V30 17 1 15 18
M  V30 18 1 15 19
M  V30 19 2 16 20
M  V30 20 1 18 21
M  V30 21 2 19 22
M  V30 22 1 19 23
M  V30 23 1 7 8
M  V30 24 1 13 14
M  V30 25 1 20 22
M  V30 26 1 21 23
M  V30 27 1 4 24
M  V30 28 1 5 25
M  V30 29 1 6 26
M  V30 30 1 9 27
M  V30 31 1 9 28
M  V30 32 1 10 29
M  V30 33 1 11 30
M  V30 34 1 11 31
M  V30 35 1 13 32
M  V30 36 1 13 33
M  V30 37 1 16 34
M  V30 38 1 17 35
M  V30 39 1 17 36
M  V30 40 1 17 37
M  V30 41 1 20 38
M  V30 42 1 21 39
M  V30 43 1 21 40
M  V30 44 1 22 41
M  V30 45 1 23 42
M  V30 46 1 23 43
M  V30 END BOND
M  V30 BEGIN COLLECTION
M  V30 MDLV30/STEABS ATOMS=(1 10)
M  V30 END COLLECTION
M  V30 END CTAB
M  END
>  <Column 1>
1707

>  <level_0>
1866

>  <index>
1866

>  <Unnamed: 0>
1866

>  <NO.>
1878

>  <Name>
odapipam acetate

>  <IUPAC_name>
acetic acid;(5s)-8-chloro-5-(2-3-dihydro-1-benzofuran-7-yl)-3-methyl-1-2-4-5-tetrahydro-3-benzazepin-7-ol

>  <SMILES>
CN1CCc2cc(Cl)c(O)cc2[C@@H](c2cccc3c2OCC3)C1

>  <CID>
132421

>  <logBB>


>  <BBB+/BBB->
BBB+

>  <Inchi>
InChI=1S/C19H20ClNO2/c1-21-7-5-13-9-17(20)18(22)10-15(13)16(11-21)14-4-2-3-12-6-8-23-19(12)14/h2-4-9-10-16-22H-5-8-11H2-1H3/t16-/m1/s1

>  <threshold>
-1

>  <reference>
R1|R13|R27|R30|

>  <group>
B

>  <Class>
1

>  <ABC>
18.47

>  <ABCGG>
15.18

>  <nAcid>
0

>  <nBase>
1

>  <nAromAtom>
12

>  <nAromBond>
12

>  <nAtom>
43

>  <nHeavyAtom>
23

>  <nSpiro>
0

>  <nBridgehead>
0

>  <nHetero>
4

>  <nN>
1

>  <nO>
2

>  <nF>
0

>  <BalabanJ>
1.58

>  <BertzCT>
759.28

>  <nBonds>
46

>  <nBondsO>
26

>  <nBondsS>
34

>  <nBondsD>
0

>  <nBondsT>
0

>  <nBondsA>
12

>  <nBondsM>
12

>  <nBondsKS>
40

>  <nBondsKD>
6

>  <RNCG>
0.3

>  <RPCG>
0.17

>  <FCSP3>
0.37

>  <SZ>
29

>  <Sm>
27.46

>  <Sv>
27.7

>  <Sse>
42.97

>  <Sp>
29.91

>  <Si>
48.01

>  <MZ>
0.67

>  <Mm>
0.64

>  <Mv>
0.64

>  <Mse>
1

>  <Mp>
0.7

>  <Mi>
1.12

>  <NsCH3>
1

>  <NdCH2>
0

>  <NssCH2>
5

>  <NtCH>
0

>  <NdsCH>
0

>  <NaaCH>
5

>  <NsssCH>
1

>  <NddC>
0

>  <NtsC>
0

>  <NdssC>
0

>  <NaasC>
7

>  <NaaaC>
0

>  <NssssC>
0

>  <NsNH3>
0

>  <NsNH2>
0

>  <NssNH2>
0

>  <NdNH>
0

>  <NssNH>
0

>  <NaaNH>
0

>  <NtN>
0

>  <NsssNH>
0

>  <NdsN>
0

>  <NaaN>
0

>  <NsssN>
1

>  <NddsN>
0

>  <NaasN>
0

>  <NssssN>
0

>  <NsOH>
1

>  <NdO>
0

>  <NssO>
1

>  <NaaO>
0

>  <NsF>
0

>  <NsSiH3>
0

>  <NssSiH2>
0

>  <NsssSiH>
0

>  <NssssSi>
0

>  <NsPH2>
0

>  <NssPH>
0

>  <NsssP>
0

>  <NdsssP>
0

>  <NsssssP>
0

>  <NsSH>
0

>  <NdS>
0

>  <NssS>
0

>  <NaaS>
0

>  <NdssS>
0

>  <NddssS>
0

>  <NsCl>
1

>  <NsBr>
0

>  <NsI>
0

>  <fragCpx>
170.04

>  <fMF>
0.47

>  <nHBAcc>
3

>  <nHBDon>
1

>  <Kier1>
16.47

>  <Kier2>
6.72

>  <Lipinski>
1

>  <GhoseFilter>
1

>  <FilterItLogS>
-5.07

>  <VMcGowan>
243.29

>  <LabuteASA>
141

>  <PEOE_VSA1>
14.74

>  <PEOE_VSA2>
0

>  <PEOE_VSA3>
0

>  <PEOE_VSA4>
0

>  <PEOE_VSA5>
0

>  <PEOE_VSA6>
29.8

>  <PEOE_VSA7>
42.29

>  <PEOE_VSA8>
30.99

>  <PEOE_VSA9>
11.63

>  <PEOE_VSA10>
11.5

>  <PEOE_VSA11>
0

>  <PEOE_VSA12>
0

>  <PEOE_VSA13>
0

>  <SMR_VSA1>
9.84

>  <SMR_VSA2>
0

>  <SMR_VSA3>
4.9

>  <SMR_VSA4>
0

>  <SMR_VSA5>
18.76

>  <SMR_VSA6>
26.74

>  <SMR_VSA7>
57.61

>  <SMR_VSA8>
0

>  <SMR_VSA9>
11.5

>  <SlogP_VSA1>
4.74

>  <SlogP_VSA2>
36.75

>  <SlogP_VSA3>
12.84

>  <SlogP_VSA4>
0

>  <SlogP_VSA5>
28.17

>  <SlogP_VSA6>
30.33

>  <SlogP_VSA7>
5.02

>  <SlogP_VSA8>
0

>  <SlogP_VSA9>
0

>  <SlogP_VSA10>
0

>  <SlogP_VSA11>
11.5

>  <EState_VSA1>
0

>  <EState_VSA2>
11.67

>  <EState_VSA3>
5.02

>  <EState_VSA4>
38.29

>  <EState_VSA5>
22.25

>  <EState_VSA6>
0

>  <EState_VSA7>
12.13

>  <EState_VSA8>
30.15

>  <EState_VSA9>
16.34

>  <EState_VSA10>
5.11

>  <VSA_EState1>
5.92

>  <VSA_EState2>
2.34

>  <VSA_EState3>
10.55

>  <VSA_EState4>
4.89

>  <VSA_EState5>
1.38

>  <VSA_EState6>
10.18

>  <VSA_EState7>
1.92

>  <VSA_EState8>
2.65

>  <VSA_EState9>
2.14

>  <apol>
49.95

>  <bpol>
24.02

>  <nRing>
4

>  <nHRing>
2

>  <naRing>
2

>  <naHRing>
0

>  <nARing 2>
2

>  <nAHRing 2>
2

>  <nFRing>
2

>  <nFHRing>
2

>  <nFaRing>
0

>  <nFaHRing>
0

>  <nFARing 2>
2

>  <nFAHRing 2>
2

>  <nRot>
1

>  <SLogP>
3.6

>  <SMR>
91.8

>  <TopoPSA(NO)>
32.7

>  <TopoPSA>
32.7

>  <JGI1>
0.17

>  <JGI2>
0.08

>  <JGI3>
0.04

>  <JGI4>
0.04

>  <JGI5>
0.02

>  <Diameter>
9

>  <Radius>
5

>  <TMWC10>
125.17

>  <TSRW10>
71.82

>  <MW>
329.12

>  <AMW>
7.65

>  <WPath>
1049

>  <WPol>
42

>  <Zagreb1>
128

>  <Zagreb2>
155

>  <mZagreb2>
4.92

>  <yes>


>  <nAR-cont>
1

>  <nHA-cont>
0.967789328

>  <MWHBN>
0.220486932

>  <MWHBN-cont>
0.994649281

>  <TPSA-cont>
0.771733695

>  <pka_cont>
0.97

>  <yes.1>


>  <BBB_SCORE>
5.488230638

>  <MMFF94 Energy>
109.38

$$$$
Compound 1432
Actelion Java MolfileCreator 2.0

  0  0  0  0  0  0              0 V3000
M  V30 BEGIN CTAB
M  V30 COUNTS 37 40 0 0 0
M  V30 BEGIN ATOM
M  V30 1 O 2.8988 -1.4486 2.0929 0
M  V30 2 C 1.7873 -1.959 1.4687 0
M  V30 3 C 0.7816 -1.1312 0.942 0
M  V30 4 C 1.7227 -3.3551 1.3552 0
M  V30 5 C 0.736 0.3528 1.0554 0
M  V30 6 C -0.2653 -1.7803 0.24 0
M  V30 7 O 2.7495 -4.0801 1.9036 0
M  V30 8 C 0.665 -3.9759 0.7102 0
M  V30 9 C -0.0334 1.104 0.1268 0
M  V30 10 C 1.3766 1.0594 2.088 0
M  V30 11 C -0.3309 -3.184 0.1485 0
M  V30 12 C -1.3476 -0.9407 -0.4093 0
M  V30 13 C -0.0979 2.5101 0.2187 0
M  V30 14 C -0.7557 0.3605 -1.0028 0 CFG=1
M  V30 15 C 1.2997 2.4506 2.1849 0
M  V30 16 C 0.5659 3.174 1.254 0
M  V30 17 C -0.9402 3.2958 -0.7479 0
M  V30 18 N -1.8001 1.1777 -1.6857 0
M  V30 19 C -1.2511 2.5042 -2.0174 0
M  V30 20 C -2.275 0.5359 -2.915 0
M  V30 21 H 3.4299 -2.2335 2.3341 0
M  V30 22 H 2.5629 -5.0238 1.7592 0
M  V30 23 H 0.6038 -5.0554 0.6239 0
M  V30 24 H 1.9377 0.5334 2.8555 0
M  V30 25 H -1.1596 -3.6598 -0.3718 0
M  V30 26 H -1.82 -1.5367 -1.1971 0
M  V30 27 H -2.1159 -0.7179 0.343 0
M  V30 28 H 0.0229 0.1018 -1.7371 0
M  V30 29 H 1.8076 2.9632 2.9974 0
M  V30 30 H 0.503 4.2555 1.3457 0
M  V30 31 H -0.4232 4.2218 -1.027 0
M  V30 32 H -1.8759 3.5725 -0.2455 0
M  V30 33 H -0.3484 2.408 -2.6365 0
M  V30 34 H -1.9794 3.0837 -2.599 0
M  V30 35 H -3.0015 1.1779 -3.4271 0
M  V30 36 H -1.4584 0.3221 -3.6138 0
M  V30 37 H -2.807 -0.3955 -2.7023 0
M  V30 END ATOM
M  V30 BEGIN BOND
M  V30 1 1 1 2
M  V30 2 2 2 3
M  V30 3 1 2 4
M  V30 4 1 3 5
M  V30 5 1 3 6
M  V30 6 1 4 7
M  V30 7 2 4 8
M  V30 8 2 5 9
M  V30 9 1 5 10
M  V30 10 2 6 11
M  V30 11 1 6 12
M  V30 12 1 9 13
M  V30 13 1 9 14
M  V30 14 2 10 15
M  V30 15 2 13 16
M  V30 16 1 13 17
M  V30 17 1 14 18
M  V30 18 1 17 19
M  V30 19 1 18 20
M  V30 20 1 8 11
M  V30 21 1 12 14
M  V30 22 1 15 16
M  V30 23 1 18 19
M  V30 24 1 1 21
M  V30 25 1 7 22
M  V30 26 1 8 23
M  V30 27 1 10 24
M  V30 28 1 11 25
M  V30 29 1 12 26
M  V30 30 1 12 27
M  V30 31 1 14 28
M  V30 32 1 15 29
M  V30 33 1 16 30
M  V30 34 1 17 31
M  V30 35 1 17 32
M  V30 36 1 19 33
M  V30 37 1 19 34
M  V30 38 1 20 35
M  V30 39 1 20 36
M  V30 40 1 20 37
M  V30 END BOND
M  V30 BEGIN COLLECTION
M  V30 MDLV30/STEABS ATOMS=(1 14)
M  V30 END COLLECTION
M  V30 END CTAB
M  END
>  <Column 1>
1708

>  <level_0>
1867

>  <index>
1867

>  <Unnamed: 0>
1867

>  <NO.>
1879

>  <Name>
apomorphine

>  <IUPAC_name>
(6ar)-6-methyl-5-6-6a-7-tetrahydro-4h-dibenzo[de-g]quinoline-10-11-diol

>  <SMILES>
CN1CCc2cccc3c2[C@H]1Cc1ccc(O)c(O)c1-3

>  <CID>
6005

>  <logBB>


>  <BBB+/BBB->
BBB+

>  <Inchi>
InChI=1S/C17H17NO2/c1-18-8-7-10-3-2-4-12-15(10)13(18)9-11-5-6-14(19)17(20)16(11)12/h2-6-13-19-20H-7-9H2-1H3/t13-/m1/s1

>  <threshold>
-1

>  <reference>
R1|R7|R6|R24|R26|R27|R27|R29|R30|R30|R37|

>  <group>
B

>  <Class>
1

>  <ABC>
16.27

>  <ABCGG>
12.54

>  <nAcid>
0

>  <nBase>
1

>  <nAromAtom>
12

>  <nAromBond>
12

>  <nAtom>
37

>  <nHeavyAtom>
20

>  <nSpiro>
0

>  <nBridgehead>
0

>  <nHetero>
3

>  <nN>
1

>  <nO>
2

>  <nF>
0

>  <BalabanJ>
1.66

>  <BertzCT>
708.38

>  <nBonds>
40

>  <nBondsO>
23

>  <nBondsS>
28

>  <nBondsD>
0

>  <nBondsT>
0

>  <nBondsA>
12

>  <nBondsM>
12

>  <nBondsKS>
34

>  <nBondsKD>
6

>  <RNCG>
0.3

>  <RPCG>
0.17

>  <FCSP3>
0.29

>  <SZ>
23.67

>  <Sm>
22.26

>  <Sv>
23.79

>  <Sse>
36.87

>  <Sp>
25.41

>  <Si>
41.24

>  <MZ>
0.64

>  <Mm>
0.6

>  <Mv>
0.64

>  <Mse>
1

>  <Mp>
0.69

>  <Mi>
1.11

>  <NsCH3>
1

>  <NdCH2>
0

>  <NssCH2>
3

>  <NtCH>
0

>  <NdsCH>
0

>  <NaaCH>
5

>  <NsssCH>
1

>  <NddC>
0

>  <NtsC>
0

>  <NdssC>
0

>  <NaasC>
7

>  <NaaaC>
0

>  <NssssC>
0

>  <NsNH3>
0

>  <NsNH2>
0

>  <NssNH2>
0

>  <NdNH>
0

>  <NssNH>
0

>  <NaaNH>
0

>  <NtN>
0

>  <NsssNH>
0

>  <NdsN>
0

>  <NaaN>
0

>  <NsssN>
1

>  <NddsN>
0

>  <NaasN>
0

>  <NssssN>
0

>  <NsOH>
2

>  <NdO>
0

>  <NssO>
0

>  <NaaO>
0

>  <NsF>
0

>  <NsSiH3>
0

>  <NssSiH2>
0

>  <NsssSiH>
0

>  <NssssSi>
0

>  <NsPH2>
0

>  <NssPH>
0

>  <NsssP>
0

>  <NdsssP>
0

>  <NsssssP>
0

>  <NsSH>
0

>  <NdS>
0

>  <NssS>
0

>  <NaaS>
0

>  <NdssS>
0

>  <NddssS>
0

>  <NsCl>
0

>  <NsBr>
0

>  <NsI>
0

>  <fragCpx>
149.03

>  <fMF>
0.46

>  <nHBAcc>
3

>  <nHBDon>
2

>  <Kier1>
13.65

>  <Kier2>
5.03

>  <Lipinski>
1

>  <GhoseFilter>
1

>  <FilterItLogS>
-3.6

>  <VMcGowan>
202.87

>  <LabuteASA>
117.65

>  <PEOE_VSA1>
10.21

>  <PEOE_VSA2>
4.9

>  <PEOE_VSA3>
0

>  <PEOE_VSA4>
0

>  <PEOE_VSA5>
0

>  <PEOE_VSA6>
24.27

>  <PEOE_VSA7>
48.21

>  <PEOE_VSA8>
18.15

>  <PEOE_VSA9>
0

>  <PEOE_VSA10>
0

>  <PEOE_VSA11>
11.5

>  <PEOE_VSA12>
0

>  <PEOE_VSA13>
0

>  <SMR_VSA1>
10.21

>  <SMR_VSA2>
0

>  <SMR_VSA3>
4.9

>  <SMR_VSA4>
0

>  <SMR_VSA5>
18.88

>  <SMR_VSA6>
13.59

>  <SMR_VSA7>
47.02

>  <SMR_VSA8>
0

>  <SMR_VSA9>
22.63

>  <SlogP_VSA1>
0

>  <SlogP_VSA2>
28.71

>  <SlogP_VSA3>
12.84

>  <SlogP_VSA4>
0

>  <SlogP_VSA5>
22.73

>  <SlogP_VSA6>
30.33

>  <SlogP_VSA7>
0

>  <SlogP_VSA8>
11.13

>  <SlogP_VSA9>
0

>  <SlogP_VSA10>
0

>  <SlogP_VSA11>
11.5

>  <EState_VSA1>
0

>  <EState_VSA2>
11.5

>  <EState_VSA3>
6.04

>  <EState_VSA4>
36.08

>  <EState_VSA5>
11.13

>  <EState_VSA6>
6.07

>  <EState_VSA7>
6.07

>  <EState_VSA8>
30.15

>  <EState_VSA9>
0

>  <EState_VSA10>
10.21

>  <VSA_EState1>
0

>  <VSA_EState2>
2.39

>  <VSA_EState3>
20.06

>  <VSA_EState4>
5.71

>  <VSA_EState5>
-0.02

>  <VSA_EState6>
10.2

>  <VSA_EState7>
1.94

>  <VSA_EState8>
1.07

>  <VSA_EState9>
2.16

>  <apol>
42.43

>  <bpol>
18.76

>  <nRing>
4

>  <nHRing>
1

>  <naRing>
2

>  <naHRing>
0

>  <nARing 2>
2

>  <nAHRing 2>
1

>  <nFRing>
1

>  <nFHRing>
1

>  <nFaRing>
0

>  <nFaHRing>
0

>  <nFARing 2>
1

>  <nFAHRing 2>
1

>  <nRot>
0

>  <SLogP>
2.85

>  <SMR>
77.99

>  <TopoPSA(NO)>
43.7

>  <TopoPSA>
43.7

>  <JGI1>
0.15

>  <JGI2>
0.08

>  <JGI3>
0.05

>  <JGI4>
0.06

>  <JGI5>
0.03

>  <Diameter>
8

>  <Radius>
4

>  <TMWC10>
119.33

>  <TSRW10>
54.82

>  <MW>
267.13

>  <AMW>
7.22

>  <WPath>
680

>  <WPol>
40

>  <Zagreb1>
116

>  <Zagreb2>
145

>  <mZagreb2>
4.22

>  <yes>


>  <nAR-cont>
1

>  <nHA-cont>
0.999629945

>  <MWHBN>
0.305920565

>  <MWHBN-cont>
0.822696546

>  <TPSA-cont>
0.694946864

>  <pka_cont>
0.97

>  <yes.1>


>  <BBB_SCORE>
5.108568491

>  <MMFF94 Energy>
77.28

$$$$
Compound 1433
Actelion Java MolfileCreator 2.0

  0  0  0  0  0  0              0 V3000
M  V30 BEGIN CTAB
M  V30 COUNTS 39 42 0 0 0
M  V30 BEGIN ATOM
M  V30 1 N -2.979 -4.0273 1.7705 0
M  V30 2 C -2.0798 -3.747 1.0929 0
M  V30 3 C -0.9477 -3.3903 0.2251 0
M  V30 4 C -1.3348 -2.3118 -0.8078 0 CFG=2
M  V30 5 C -0.2315 -2.1545 -1.8626 0
M  V30 6 C -1.6399 -0.9434 -0.1755 0
M  V30 7 N 1.0033 -1.5947 -1.2872 0
M  V30 8 C -0.3759 -0.2539 0.3624 0
M  V30 9 C 0.7511 -0.2177 -0.7633 0 CFG=1
M  V30 10 C 2.0575 -1.6159 -2.3075 0
M  V30 11 C -0.639 1.1364 0.917 0
M  V30 12 C 2.0595 0.5043 -0.2514 0
M  V30 13 C 0.4347 2.035 0.8899 0
M  V30 14 C -1.8134 1.5959 1.5281 0
M  V30 15 C 1.7252 1.8216 0.3659 0
M  V30 16 C 0.3558 3.3159 1.3994 0
M  V30 17 C -1.8973 2.8998 2.0426 0
M  V30 18 C 2.4339 2.9841 0.5629 0
M  V30 19 N 1.5938 3.8834 1.1886 0
M  V30 20 C -0.8152 3.7932 1.9872 0
M  V30 21 H -0.6245 -4.2969 -0.3015 0
M  V30 22 H -0.0999 -3.0732 0.8411 0
M  V30 23 H -2.2443 -2.6482 -1.3249 0
M  V30 24 H -0.595 -1.5224 -2.6846 0
M  V30 25 H -0.0276 -3.1424 -2.2957 0
M  V30 26 H -2.1047 -0.3018 -0.9369 0
M  V30 27 H -2.386 -1.0606 0.6182 0
M  V30 28 H 0.01 -0.8425 1.2063 0
M  V30 29 H 0.3635 0.3984 -1.5912 0
M  V30 30 H 3.0324 -1.374 -1.8735 0
M  V30 31 H 2.1677 -2.6218 -2.7291 0
M  V30 32 H 1.8507 -0.9216 -3.1296 0
M  V30 33 H 2.5649 -0.125 0.491 0
M  V30 34 H 2.7522 0.6756 -1.0825 0
M  V30 35 H -2.6806 0.9476 1.6218 0
M  V30 36 H -2.8267 3.2256 2.5065 0
M  V30 37 H 3.4511 3.2596 0.3197 0
M  V30 38 H 1.8474 4.8229 1.46 0
M  V30 39 H -0.8905 4.7955 2.3931 0
M  V30 END ATOM
M  V30 BEGIN BOND
M  V30 1 3 1 2
M  V30 2 1 2 3
M  V30 3 1 3 4
M  V30 4 1 4 5
M  V30 5 1 4 6
M  V30 6 1 5 7
M  V30 7 1 6 8
M  V30 8 1 7 9
M  V30 9 1 7 10
M  V30 10 1 8 11
M  V30 11 1 9 12
M  V30 12 2 11 13
M  V30 13 1 11 14
M  V30 14 1 12 15
M  V30 15 1 13 16
M  V30 16 2 14 17
M  V30 17 2 15 18
M  V30 18 1 16 19
M  V30 19 2 16 20
M  V30 20 1 8 9
M  V30 21 1 13 15
M  V30 22 1 17 20
M  V30 23 1 18 19
M  V30 24 1 3 21
M  V30 25 1 3 22
M  V30 26 1 4 23
M  V30 27 1 5 24
M  V30 28 1 5 25
M  V30 29 1 6 26
M  V30 30 1 6 27
M  V30 31 1 8 28
M  V30 32 1 9 29
M  V30 33 1 10 30
M  V30 34 1 10 31
M  V30 35 1 10 32
M  V30 36 1 12 33
M  V30 37 1 12 34
M  V30 38 1 14 35
M  V30 39 1 17 36
M  V30 40 1 18 37
M  V30 41 1 19 38
M  V30 42 1 20 39
M  V30 END BOND
M  V30 BEGIN COLLECTION
M  V30 MDLV30/STEABS ATOMS=(2 4 9)
M  V30 END COLLECTION
M  V30 END CTAB
M  END
>  <Column 1>
1709

>  <level_0>
1868

>  <index>
1868

>  <Unnamed: 0>
1868

>  <NO.>
1880

>  <Name>
delergotrile

>  <IUPAC_name>
2-[(6ar-9r)-7-methyl-6-6a-8-9-10-10a-hexahydro-4h-indolo[4-3-fg]quinolin-9-yl]acetonitrile

>  <SMILES>
CN1C[C@@H](CC#N)CC2c3cccc4[nH]cc(c34)C[C@H]21

>  <CID>
205970

>  <logBB>


>  <BBB+/BBB->
BBB+

>  <Inchi>
InChI=1S/C17H19N3/c1-20-10-11(5-6-18)7-14-13-3-2-4-15-17(13)12(9-19-15)8-16(14)20/h2-4-9-11-14-16-19H-5-7-8-10H2-1H3/t11--14?-16+/m0/s1

>  <threshold>
-1

>  <reference>
R1|R27|R30|

>  <group>
B

>  <Class>
1

>  <ABC>
16.13

>  <ABCGG>
12.83

>  <nAcid>
0

>  <nBase>
1

>  <nAromAtom>
9

>  <nAromBond>
10

>  <nAtom>
39

>  <nHeavyAtom>
20

>  <nSpiro>
0

>  <nBridgehead>
0

>  <nHetero>
3

>  <nN>
3

>  <nO>
0

>  <nF>
0

>  <BalabanJ>
1.57

>  <BertzCT>
693.81

>  <nBonds>
42

>  <nBondsO>
23

>  <nBondsS>
31

>  <nBondsD>
0

>  <nBondsT>
1

>  <nBondsA>
10

>  <nBondsM>
11

>  <nBondsKS>
37

>  <nBondsKD>
4

>  <RNCG>
0.31

>  <RPCG>
0.14

>  <FCSP3>
0.47

>  <SZ>
23.67

>  <Sm>
22.09

>  <Sv>
24.42

>  <Sse>
38.42

>  <Sp>
26.56

>  <Si>
43.82

>  <MZ>
0.61

>  <Mm>
0.57

>  <Mv>
0.63

>  <Mse>
0.99

>  <Mp>
0.68

>  <Mi>
1.12

>  <NsCH3>
1

>  <NdCH2>
0

>  <NssCH2>
4

>  <NtCH>
0

>  <NdsCH>
0

>  <NaaCH>
4

>  <NsssCH>
3

>  <NddC>
0

>  <NtsC>
1

>  <NdssC>
0

>  <NaasC>
2

>  <NaaaC>
2

>  <NssssC>
0

>  <NsNH3>
0

>  <NsNH2>
0

>  <NssNH2>
0

>  <NdNH>
0

>  <NssNH>
0

>  <NaaNH>
1

>  <NtN>
1

>  <NsssNH>
0

>  <NdsN>
0

>  <NaaN>
0

>  <NsssN>
1

>  <NddsN>
0

>  <NaasN>
0

>  <NssssN>
0

>  <NsOH>
0

>  <NdO>
0

>  <NssO>
0

>  <NaaO>
0

>  <NsF>
0

>  <NsSiH3>
0

>  <NssSiH2>
0

>  <NsssSiH>
0

>  <NssssSi>
0

>  <NsPH2>
0

>  <NssPH>
0

>  <NsssP>
0

>  <NdsssP>
0

>  <NsssssP>
0

>  <NsSH>
0

>  <NdS>
0

>  <NssS>
0

>  <NaaS>
0

>  <NdssS>
0

>  <NddssS>
0

>  <NsCl>
0

>  <NsBr>
0

>  <NsI>
0

>  <fragCpx>
149.03

>  <fMF>
0.41

>  <nHBAcc>
2

>  <nHBDon>
1

>  <Kier1>
13.65

>  <Kier2>
5.33

>  <Lipinski>
1

>  <GhoseFilter>
1

>  <FilterItLogS>
-3.86

>  <VMcGowan>
211.09

>  <LabuteASA>
118.75

>  <PEOE_VSA1>
9.88

>  <PEOE_VSA2>
0

>  <PEOE_VSA3>
0

>  <PEOE_VSA4>
5.26

>  <PEOE_VSA5>
0

>  <PEOE_VSA6>
12.13

>  <PEOE_VSA7>
43

>  <PEOE_VSA8>
42.03

>  <PEOE_VSA9>
6.07

>  <PEOE_VSA10>
0

>  <PEOE_VSA11>
0

>  <PEOE_VSA12>
0

>  <PEOE_VSA13>
0

>  <SMR_VSA1>
0

>  <SMR_VSA2>
5.26

>  <SMR_VSA3>
9.88

>  <SMR_VSA4>
5.92

>  <SMR_VSA5>
31.22

>  <SMR_VSA6>
13.59

>  <SMR_VSA7>
35.52

>  <SMR_VSA8>
0

>  <SMR_VSA9>
6.07

>  <SlogP_VSA1>
0

>  <SlogP_VSA2>
29.52

>  <SlogP_VSA3>
6.42

>  <SlogP_VSA4>
17.25

>  <SlogP_VSA5>
29.89

>  <SlogP_VSA6>
24.4

>  <SlogP_VSA7>
0

>  <SlogP_VSA8>
10.9

>  <SlogP_VSA9>
0

>  <SlogP_VSA10>
0

>  <SlogP_VSA11>
0

>  <EState_VSA1>
0

>  <EState_VSA2>
0

>  <EState_VSA3>
24.3

>  <EState_VSA4>
19.39

>  <EState_VSA5>
22.03

>  <EState_VSA6>
0

>  <EState_VSA7>
0

>  <EState_VSA8>
47.4

>  <EState_VSA9>
5.26

>  <EState_VSA10>
0

>  <VSA_EState1>
0

>  <VSA_EState2>
5.89

>  <VSA_EState3>
10.45

>  <VSA_EState4>
4.22

>  <VSA_EState5>
1.1

>  <VSA_EState6>
9.58

>  <VSA_EState7>
5.16

>  <VSA_EState8>
1.06

>  <VSA_EState9>
2.22

>  <apol>
44.36

>  <bpol>
21.91

>  <nRing>
4

>  <nHRing>
2

>  <naRing>
2

>  <naHRing>
1

>  <nARing 2>
2

>  <nAHRing 2>
1

>  <nFRing>
1

>  <nFHRing>
1

>  <nFaRing>
0

>  <nFaHRing>
0

>  <nFARing 2>
1

>  <nFAHRing 2>
1

>  <nRot>
1

>  <SLogP>
3.04

>  <SMR>
79.5

>  <TopoPSA(NO)>
42.82

>  <TopoPSA>
42.82

>  <JGI1>
0.15

>  <JGI2>
0.07

>  <JGI3>
0.04

>  <JGI4>
0.05

>  <JGI5>
0.03

>  <Diameter>
9

>  <Radius>
5

>  <TMWC10>
118.96

>  <TSRW10>
68.54

>  <MW>
265.16

>  <AMW>
6.8

>  <WPath>
722

>  <WPol>
36

>  <Zagreb1>
114

>  <Zagreb2>
141

>  <mZagreb2>
4.33

>  <yes>


>  <nAR-cont>
1

>  <nHA-cont>
0.999629945

>  <MWHBN>
0.184232926

>  <MWHBN-cont>
0.991315563

>  <TPSA-cont>
0.70108981

>  <pka_cont>
0.97

>  <yes.1>


>  <BBB_SCORE>
5.373782911

>  <MMFF94 Energy>
56.233

$$$$
Compound 1434
Actelion Java MolfileCreator 2.0

  0  0  0  0  0  0              0 V3000
M  V30 BEGIN CTAB
M  V30 COUNTS 51 54 0 0 0
M  V30 BEGIN ATOM
M  V30 1 S -0.3225 0.1612 -4.3617 0
M  V30 2 O 0.8457 -0.475 -4.9197 0
M  V30 3 O -0.6521 1.5359 -4.6502 0
M  V30 4 N -1.6593 -0.808 -4.6758 0
M  V30 5 N -0.2004 -0.027 -2.702 0
M  V30 6 C -2.9842 -0.3057 -4.2951 0
M  V30 7 C -1.4894 -2.2504 -4.4339 0
M  V30 8 C -0.8925 0.9698 -1.8341 0 CFG=2
M  V30 9 C 0.0667 2.1384 -1.5404 0
M  V30 10 C -1.2956 0.2745 -0.5313 0
M  V30 11 N 1.2902 1.6577 -0.8531 0
M  V30 12 C -0.075 -0.1329 0.3119 0 CFG=1
M  V30 13 C 0.9271 1.0949 0.4831 0 CFG=1
M  V30 14 C 2.2427 2.7688 -0.7533 0
M  V30 15 C -0.4496 -0.7239 1.6625 0
M  V30 16 C 2.1825 0.6988 1.3549 0
M  V30 17 C 0.5014 -0.6047 2.6847 0
M  V30 18 C -1.6097 -1.4444 1.9751 0
M  V30 19 C 1.7524 0.0409 2.6238 0
M  V30 20 C 0.3188 -1.1302 3.951 0
M  V30 21 C -1.8039 -1.9761 3.2589 0
M  V30 22 C 2.3352 -0.0964 3.8626 0
M  V30 23 N 1.4593 -0.806 4.6584 0
M  V30 24 C -0.8478 -1.8286 4.2764 0
M  V30 25 C 1.7044 -1.1637 6.0371 0
M  V30 26 H 0.7995 -0.0432 -2.4638 0
M  V30 27 H -3.1756 -0.4657 -3.2304 0
M  V30 28 H -3.0935 0.7564 -4.5296 0
M  V30 29 H -3.7545 -0.8341 -4.8666 0
M  V30 30 H -1.4681 -2.4688 -3.3622 0
M  V30 31 H -0.5748 -2.6248 -4.9018 0
M  V30 32 H -2.322 -2.8028 -4.8821 0
M  V30 33 H -1.8014 1.3401 -2.3183 0
M  V30 34 H 0.3477 2.6113 -2.4886 0
M  V30 35 H -0.4451 2.9021 -0.9399 0
M  V30 36 H -1.9042 -0.6068 -0.7689 0
M  V30 37 H -1.9338 0.9528 0.0508 0
M  V30 38 H 0.4627 -0.9287 -0.2238 0
M  V30 39 H 0.3923 1.8745 1.0503 0
M  V30 40 H 2.4274 3.2097 -1.7399 0
M  V30 41 H 3.219 2.4213 -0.402 0
M  V30 42 H 1.8851 3.561 -0.0859 0
M  V30 43 H 2.7704 1.5886 1.6059 0
M  V30 44 H 2.8252 0.0121 0.7908 0
M  V30 45 H -2.378 -1.6108 1.2254 0
M  V30 46 H -2.7185 -2.5266 3.4712 0
M  V30 47 H 3.2883 0.2454 4.2441 0
M  V30 48 H -1.0099 -2.2501 5.262 0
M  V30 49 H 1.6899 -2.2534 6.1191 0
M  V30 50 H 0.9198 -0.7186 6.6543 0
M  V30 51 H 2.6804 -0.7818 6.3471 0
M  V30 END ATOM
M  V30 BEGIN BOND
M  V30 1 2 1 2
M  V30 2 2 1 3
M  V30 3 1 1 4
M  V30 4 1 1 5
M  V30 5 1 4 6
M  V30 6 1 4 7
M  V30 7 1 5 8
M  V30 8 1 8 9
M  V30 9 1 8 10
M  V30 10 1 9 11
M  V30 11 1 10 12
M  V30 12 1 11 13
M  V30 13 1 11 14
M  V30 14 1 12 15
M  V30 15 1 13 16
M  V30 16 2 15 17
M  V30 17 1 15 18
M  V30 18 1 16 19
M  V30 19 1 17 20
M  V30 20 2 18 21
M  V30 21 2 19 22
M  V30 22 1 20 23
M  V30 23 2 20 24
M  V30 24 1 23 25
M  V30 25 1 12 13
M  V30 26 1 17 19
M  V30 27 1 21 24
M  V30 28 1 22 23
M  V30 29 1 5 26
M  V30 30 1 6 27
M  V30 31 1 6 28
M  V30 32 1 6 29
M  V30 33 1 7 30
M  V30 34 1 7 31
M  V30 35 1 7 32
M  V30 36 1 8 33
M  V30 37 1 9 34
M  V30 38 1 9 35
M  V30 39 1 10 36
M  V30 40 1 10 37
M  V30 41 1 12 38
M  V30 42 1 13 39
M  V30 43 1 14 40
M  V30 44 1 14 41
M  V30 45 1 14 42
M  V30 46 1 16 43
M  V30 47 1 16 44
M  V30 48 1 18 45
M  V30 49 1 21 46
M  V30 50 1 22 47
M  V30 51 1 24 48
M  V30 52 1 25 49
M  V30 53 1 25 50
M  V30 54 1 25 51
M  V30 END BOND
M  V30 BEGIN COLLECTION
M  V30 MDLV30/STEABS ATOMS=(3 8 12 13)
M  V30 END COLLECTION
M  V30 END CTAB
M  END
>  <Column 1>
1710

>  <level_0>
1869

>  <index>
1869

>  <Unnamed: 0>
1869

>  <NO.>
1881

>  <Name>
mesulergine

>  <IUPAC_name>
(6ar-9s-10ar)-9-(dimethylsulfamoylamino)-4-7-dimethyl-6-6a-8-9-10-10a-hexahydroindolo[4-3-fg]quinoline

>  <SMILES>
CN1C[C@@H](NS(=O)(=O)N(C)C)C[C@@H]2c3cccc4c3c(cn4C)C[C@H]21

>  <CID>
68848

>  <logBB>


>  <BBB+/BBB->
BBB+

>  <Inchi>
InChI=1S/C18H26N4O2S/c1-20(2)25(23-24)19-13-9-15-14-6-5-7-16-18(14)12(10-21(16)3)8-17(15)22(4)11-13/h5-7-10-13-15-17-19H-8-9-11H2-1-4H3/t13--15+-17+/m0/s1

>  <threshold>
-1

>  <reference>
R1|R6|R27|R30|

>  <group>
B

>  <Class>
1

>  <ABC>
20.21

>  <ABCGG>
16.08

>  <nAcid>
0

>  <nBase>
1

>  <nAromAtom>
9

>  <nAromBond>
10

>  <nAtom>
51

>  <nHeavyAtom>
25

>  <nSpiro>
0

>  <nBridgehead>
0

>  <nHetero>
7

>  <nN>
4

>  <nO>
2

>  <nF>
0

>  <BalabanJ>
1.53

>  <BertzCT>
918.54

>  <nBonds>
54

>  <nBondsO>
28

>  <nBondsS>
42

>  <nBondsD>
2

>  <nBondsT>
0

>  <nBondsA>
10

>  <nBondsM>
12

>  <nBondsKS>
48

>  <nBondsKD>
6

>  <RNCG>
0.21

>  <RPCG>
0.16

>  <FCSP3>
0.56

>  <SZ>
32.33

>  <Sm>
30.18

>  <Sv>
30.69

>  <Sse>
50.93

>  <Sp>
33.71

>  <Si>
57.9

>  <MZ>
0.63

>  <Mm>
0.59

>  <Mv>
0.6

>  <Mse>
1

>  <Mp>
0.66

>  <Mi>
1.14

>  <NsCH3>
4

>  <NdCH2>
0

>  <NssCH2>
3

>  <NtCH>
0

>  <NdsCH>
0

>  <NaaCH>
4

>  <NsssCH>
3

>  <NddC>
0

>  <NtsC>
0

>  <NdssC>
0

>  <NaasC>
2

>  <NaaaC>
2

>  <NssssC>
0

>  <NsNH3>
0

>  <NsNH2>
0

>  <NssNH2>
0

>  <NdNH>
0

>  <NssNH>
1

>  <NaaNH>
0

>  <NtN>
0

>  <NsssNH>
0

>  <NdsN>
0

>  <NaaN>
0

>  <NsssN>
2

>  <NddsN>
0

>  <NaasN>
1

>  <NssssN>
0

>  <NsOH>
0

>  <NdO>
2

>  <NssO>
0

>  <NaaO>
0

>  <NsF>
0

>  <NsSiH3>
0

>  <NssSiH2>
0

>  <NsssSiH>
0

>  <NssssSi>
0

>  <NsPH2>
0

>  <NssPH>
0

>  <NsssP>
0

>  <NdsssP>
0

>  <NsssssP>
0

>  <NsSH>
0

>  <NdS>
0

>  <NssS>
0

>  <NaaS>
0

>  <NdssS>
0

>  <NddssS>
1

>  <NsCl>
0

>  <NsBr>
0

>  <NsI>
0

>  <fragCpx>
184.07

>  <fMF>
0.31

>  <nHBAcc>
4

>  <nHBDon>
1

>  <Kier1>
18.37

>  <Kier2>
6.56

>  <Lipinski>
1

>  <GhoseFilter>
1

>  <FilterItLogS>
-2.97

>  <VMcGowan>
271.85

>  <LabuteASA>
149.14

>  <PEOE_VSA1>
9.47

>  <PEOE_VSA2>
0

>  <PEOE_VSA3>
0

>  <PEOE_VSA4>
17.45

>  <PEOE_VSA5>
0

>  <PEOE_VSA6>
12.13

>  <PEOE_VSA7>
37.08

>  <PEOE_VSA8>
62.79

>  <PEOE_VSA9>
0

>  <PEOE_VSA10>
0

>  <PEOE_VSA11>
0

>  <PEOE_VSA12>
0

>  <PEOE_VSA13>
10.21

>  <SMR_VSA1>
8.42

>  <SMR_VSA2>
0

>  <SMR_VSA3>
18.49

>  <SMR_VSA4>
7.05

>  <SMR_VSA5>
30.84

>  <SMR_VSA6>
27.69

>  <SMR_VSA7>
35.52

>  <SMR_VSA8>
0

>  <SMR_VSA9>
0

>  <SlogP_VSA1>
4.72

>  <SlogP_VSA2>
61.96

>  <SlogP_VSA3>
23.68

>  <SlogP_VSA4>
0

>  <SlogP_VSA5>
23.47

>  <SlogP_VSA6>
24.4

>  <SlogP_VSA7>
0

>  <SlogP_VSA8>
10.9

>  <SlogP_VSA9>
0

>  <SlogP_VSA10>
0

>  <SlogP_VSA11>
0

>  <EState_VSA1>
10.21

>  <EState_VSA2>
6.04

>  <EState_VSA3>
11.96

>  <EState_VSA4>
19.39

>  <EState_VSA5>
26.34

>  <EState_VSA6>
14.1

>  <EState_VSA7>
0

>  <EState_VSA8>
52.68

>  <EState_VSA9>
0

>  <EState_VSA10>
8.42

>  <VSA_EState1>
30.82

>  <VSA_EState2>
2.33

>  <VSA_EState3>
1.37

>  <VSA_EState4>
4.04

>  <VSA_EState5>
0.35

>  <VSA_EState6>
6.87

>  <VSA_EState7>
4.12

>  <VSA_EState8>
0.74

>  <VSA_EState9>
3.93

>  <apol>
56.3

>  <bpol>
38.44

>  <nRing>
4

>  <nHRing>
2

>  <naRing>
2

>  <naHRing>
1

>  <nARing 2>
2

>  <nAHRing 2>
1

>  <nFRing>
1

>  <nFHRing>
1

>  <nFaRing>
0

>  <nFaHRing>
0

>  <nFARing 2>
1

>  <nFAHRing 2>
1

>  <nRot>
3

>  <SLogP>
1.29

>  <SMR>
99.93

>  <TopoPSA(NO)>
57.58

>  <TopoPSA>
65.96

>  <JGI1>
0.25

>  <JGI2>
0.09

>  <JGI3>
0.06

>  <JGI4>
0.05

>  <JGI5>
0.03

>  <Diameter>
11

>  <Radius>
6

>  <TMWC10>
131.08

>  <TSRW10>
75.07

>  <MW>
362.18

>  <AMW>
7.1

>  <WPath>
1381

>  <WPol>
47

>  <Zagreb1>
144

>  <Zagreb2>
177

>  <mZagreb2>
5.15

>  <yes>


>  <nAR-cont>
1

>  <nHA-cont>
0.921834225

>  <MWHBN>
0.262728854

>  <MWHBN-cont>
0.935886059

>  <TPSA-cont>
0.539558241

>  <pka_cont>
0.97

>  <yes.1>


>  <BBB_SCORE>
4.889779796

>  <MMFF94 Energy>
-109.83

$$$$
Compound 1435
Actelion Java MolfileCreator 2.0

  0  0  0  0  0  0              0 V3000
M  V30 BEGIN CTAB
M  V30 COUNTS 41 44 0 0 0
M  V30 BEGIN ATOM
M  V30 1 Cl -1.1344 -2.2698 4.8686 0
M  V30 2 C -0.5215 -2.2612 3.2597 0
M  V30 3 C -0.8514 -1.213 2.3992 0
M  V30 4 C 0.2904 -3.3061 2.8278 0
M  V30 5 C -0.3488 -1.185 1.0891 0
M  V30 6 C 0.7726 -3.3111 1.5202 0
M  V30 7 C 0.4593 -2.258 0.6515 0
M  V30 8 C -0.6948 -0.0965 0.0716 0 CFG=1
M  V30 9 C 0.915 -2.286 -0.7856 0
M  V30 10 C -1.3638 1.1527 0.6394 0
M  V30 11 C 0.5557 0.2769 -0.7628 0 CFG=1
M  V30 12 C 1.4254 -0.9133 -1.2146 0 CFG=2
M  V30 13 C -0.6779 2.041 1.4852 0
M  V30 14 C -2.7021 1.433 0.319 0
M  V30 15 C 0.2134 1.0124 -2.0631 0
M  V30 16 C 1.5397 -0.7702 -2.7323 0
M  V30 17 C -1.3111 3.1784 1.9896 0
M  V30 18 C -3.3329 2.5716 0.8242 0
M  V30 19 N 1.2637 0.6429 -3.0261 0
M  V30 20 C -2.6373 3.4441 1.6578 0
M  V30 21 C 2.4566 1.4763 -2.8763 0
M  V30 22 H -1.5081 -0.4259 2.762 0
M  V30 23 H 0.5388 -4.1238 3.4986 0
M  V30 24 H 1.3865 -4.1428 1.1824 0
M  V30 25 H -1.4192 -0.5735 -0.6058 0
M  V30 26 H 1.7098 -3.0278 -0.9296 0
M  V30 27 H 0.0653 -2.605 -1.4025 0
M  V30 28 H 1.214 0.9253 -0.167 0
M  V30 29 H 2.4232 -0.771 -0.7731 0
M  V30 30 H 0.3537 1.8466 1.7709 0
M  V30 31 H -3.2671 0.7648 -0.3275 0
M  V30 32 H 0.1293 2.0961 -1.9212 0
M  V30 33 H -0.7491 0.6701 -2.4635 0
M  V30 34 H 2.5133 -1.1044 -3.1086 0
M  V30 35 H 0.7809 -1.3783 -3.2404 0
M  V30 36 H -0.7694 3.8551 2.6457 0
M  V30 37 H -4.3692 2.7767 0.5676 0
M  V30 38 H -3.13 4.3292 2.0518 0
M  V30 39 H 2.2153 2.5232 -3.0917 0
M  V30 40 H 3.2199 1.1754 -3.6024 0
M  V30 41 H 2.9007 1.4279 -1.8763 0
M  V30 END ATOM
M  V30 BEGIN BOND
M  V30 1 1 1 2
M  V30 2 2 2 3
M  V30 3 1 2 4
M  V30 4 1 3 5
M  V30 5 2 4 6
M  V30 6 2 5 7
M  V30 7 1 5 8
M  V30 8 1 7 9
M  V30 9 1 8 10
M  V30 10 1 8 11
M  V30 11 1 9 12
M  V30 12 2 10 13
M  V30 13 1 10 14
M  V30 14 1 11 15
M  V30 15 1 12 16
M  V30 16 1 13 17
M  V30 17 2 14 18
M  V30 18 1 15 19
M  V30 19 2 17 20
M  V30 20 1 19 21
M  V30 21 1 6 7
M  V30 22 1 11 12
M  V30 23 1 16 19
M  V30 24 1 18 20
M  V30 25 1 3 22
M  V30 26 1 4 23
M  V30 27 1 6 24
M  V30 28 1 8 25
M  V30 29 1 9 26
M  V30 30 1 9 27
M  V30 31 1 11 28
M  V30 32 1 12 29
M  V30 33 1 13 30
M  V30 34 1 14 31
M  V30 35 1 15 32
M  V30 36 1 15 33
M  V30 37 1 16 34
M  V30 38 1 16 35
M  V30 39 1 17 36
M  V30 40 1 18 37
M  V30 41 1 20 38
M  V30 42 1 21 39
M  V30 43 1 21 40
M  V30 44 1 21 41
M  V30 END BOND
M  V30 BEGIN COLLECTION
M  V30 MDLV30/STEABS ATOMS=(3 8 11 12)
M  V30 END COLLECTION
M  V30 END CTAB
M  END
>  <Column 1>
1711

>  <level_0>
1870

>  <index>
1870

>  <Unnamed: 0>
1870

>  <NO.>
1882

>  <Name>
losindole

>  <IUPAC_name>
(3as-4r-9ar)-6-chloro-2-methyl-4-phenyl-1-3-3a-4-9-9a-hexahydrobenzo[f]isoindole

>  <SMILES>
CN1C[C@@H]2[C@@H](Cc3ccc(Cl)cc3[C@H]2c2ccccc2)C1

>  <CID>
3045392

>  <logBB>


>  <BBB+/BBB->
BBB+

>  <Inchi>
InChI=1S/C19H20ClN/c1-21-11-15-9-14-7-8-16(20)10-17(14)19(18(15)12-21)13-5-3-2-4-6-13/h2-8-10-15-18-19H-9-11-12H2-1H3/t15--18+-19+/m0/s1

>  <threshold>
-1

>  <reference>
R1|R6|R27|R30|

>  <group>
B

>  <Class>
1

>  <ABC>
16.99

>  <ABCGG>
13.63

>  <nAcid>
0

>  <nBase>
1

>  <nAromAtom>
12

>  <nAromBond>
12

>  <nAtom>
41

>  <nHeavyAtom>
21

>  <nSpiro>
0

>  <nBridgehead>
0

>  <nHetero>
2

>  <nN>
1

>  <nO>
0

>  <nF>
0

>  <BalabanJ>
1.6

>  <BertzCT>
651.87

>  <nBonds>
44

>  <nBondsO>
24

>  <nBondsS>
32

>  <nBondsD>
0

>  <nBondsT>
0

>  <nBondsA>
12

>  <nBondsM>
12

>  <nBondsKS>
38

>  <nBondsKD>
6

>  <RNCG>
0.3

>  <RPCG>
0.06

>  <FCSP3>
0.37

>  <SZ>
26.33

>  <Sm>
24.8

>  <Sv>
26.27

>  <Sse>
40.31

>  <Sp>
28.95

>  <Si>
45.6

>  <MZ>
0.64

>  <Mm>
0.6

>  <Mv>
0.64

>  <Mse>
0.98

>  <Mp>
0.71

>  <Mi>
1.11

>  <NsCH3>
1

>  <NdCH2>
0

>  <NssCH2>
3

>  <NtCH>
0

>  <NdsCH>
0

>  <NaaCH>
8

>  <NsssCH>
3

>  <NddC>
0

>  <NtsC>
0

>  <NdssC>
0

>  <NaasC>
4

>  <NaaaC>
0

>  <NssssC>
0

>  <NsNH3>
0

>  <NsNH2>
0

>  <NssNH2>
0

>  <NdNH>
0

>  <NssNH>
0

>  <NaaNH>
0

>  <NtN>
0

>  <NsssNH>
0

>  <NdsN>
0

>  <NaaN>
0

>  <NsssN>
1

>  <NddsN>
0

>  <NaasN>
0

>  <NssssN>
0

>  <NsOH>
0

>  <NdO>
0

>  <NssO>
0

>  <NaaO>
0

>  <NsF>
0

>  <NsSiH3>
0

>  <NssSiH2>
0

>  <NsssSiH>
0

>  <NssssSi>
0

>  <NsPH2>
0

>  <NssPH>
0

>  <NsssP>
0

>  <NdsssP>
0

>  <NsssssP>
0

>  <NsSH>
0

>  <NdS>
0

>  <NssS>
0

>  <NaaS>
0

>  <NdssS>
0

>  <NddssS>
0

>  <NsCl>
1

>  <NsBr>
0

>  <NsI>
0

>  <fragCpx>
156.02

>  <fMF>
0.46

>  <nHBAcc>
1

>  <nHBDon>
0

>  <Kier1>
14.58

>  <Kier2>
5.89

>  <Lipinski>
1

>  <GhoseFilter>
1

>  <FilterItLogS>
-5

>  <VMcGowan>
231.55

>  <LabuteASA>
131.09

>  <PEOE_VSA1>
4.9

>  <PEOE_VSA2>
0

>  <PEOE_VSA3>
0

>  <PEOE_VSA4>
0

>  <PEOE_VSA5>
0

>  <PEOE_VSA6>
48

>  <PEOE_VSA7>
54.13

>  <PEOE_VSA8>
24.03

>  <PEOE_VSA9>
0

>  <PEOE_VSA10>
0

>  <PEOE_VSA11>
0

>  <PEOE_VSA12>
0

>  <PEOE_VSA13>
0

>  <SMR_VSA1>
0

>  <SMR_VSA2>
0

>  <SMR_VSA3>
4.9

>  <SMR_VSA4>
11.84

>  <SMR_VSA5>
12.34

>  <SMR_VSA6>
20.14

>  <SMR_VSA7>
70.24

>  <SMR_VSA8>
0

>  <SMR_VSA9>
0

>  <SlogP_VSA1>
0

>  <SlogP_VSA2>
25.04

>  <SlogP_VSA3>
6.42

>  <SlogP_VSA4>
11.84

>  <SlogP_VSA5>
22.61

>  <SlogP_VSA6>
48.53

>  <SlogP_VSA7>
5.02

>  <SlogP_VSA8>
0

>  <SlogP_VSA9>
0

>  <SlogP_VSA10>
0

>  <SlogP_VSA11>
0

>  <EState_VSA1>
0

>  <EState_VSA2>
0

>  <EState_VSA3>
11.84

>  <EState_VSA4>
10.94

>  <EState_VSA5>
36.2

>  <EState_VSA6>
0

>  <EState_VSA7>
6.07

>  <EState_VSA8>
54.41

>  <EState_VSA9>
11.6

>  <EState_VSA10>
0

>  <VSA_EState1>
0

>  <VSA_EState2>
2.48

>  <VSA_EState3>
0.86

>  <VSA_EState4>
4.38

>  <VSA_EState5>
1.97

>  <VSA_EState6>
17.44

>  <VSA_EState7>
1.2

>  <VSA_EState8>
2.41

>  <VSA_EState9>
2.25

>  <apol>
48.35

>  <bpol>
22.28

>  <nRing>
4

>  <nHRing>
1

>  <naRing>
2

>  <naHRing>
0

>  <nARing 2>
2

>  <nAHRing 2>
1

>  <nFRing>
1

>  <nFHRing>
1

>  <nFaRing>
0

>  <nFaHRing>
0

>  <nFARing 2>
1

>  <nFAHRing 2>
1

>  <nRot>
1

>  <SLogP>
4.21

>  <SMR>
87.92

>  <TopoPSA(NO)>
3.24

>  <TopoPSA>
3.24

>  <JGI1>
0.17

>  <JGI2>
0.06

>  <JGI3>
0.05

>  <JGI4>
0.04

>  <JGI5>
0.02

>  <Diameter>
8

>  <Radius>
4

>  <TMWC10>
120.77

>  <TSRW10>
69.5

>  <MW>
297.13

>  <AMW>
7.25

>  <WPath>
815

>  <WPol>
35

>  <Zagreb1>
118

>  <Zagreb2>
143

>  <mZagreb2>
4.47

>  <yes>


>  <nAR-cont>
1

>  <nHA-cont>
0.994529749

>  <MWHBN>
0.05801319

>  <MWHBN-cont>
0.436933332

>  <TPSA-cont>
0.977382788

>  <pka_cont>
0.97

>  <yes.1>


>  <BBB_SCORE>
5.089695324

>  <MMFF94 Energy>
69.543

$$$$
Compound 1436
Actelion Java MolfileCreator 2.0

  0  0  0  0  0  0              0 V3000
M  V30 BEGIN CTAB
M  V30 COUNTS 80 87 0 0 0
M  V30 BEGIN ATOM
M  V30 1 O -1.7769 5.6621 0.8073 0
M  V30 2 C -1.4233 4.671 1.4443 0
M  V30 3 N -2.333 3.8806 2.1145 0
M  V30 4 C 0.0777 4.3017 1.6476 0 CFG=1
M  V30 5 C -1.9583 2.696 2.8899 0 CFG=2
M  V30 6 C -3.7698 4.0227 2.0002 0
M  V30 7 N 0.3242 2.9248 2.1044 0
M  V30 8 C 0.9287 4.6953 0.4188 0
M  V30 9 C -0.7294 1.9881 2.2898 0 CFG=1
M  V30 10 C -3.251 1.8801 2.9347 0
M  V30 11 C -4.3254 2.9684 2.9505 0
M  V30 12 C 1.5005 2.4362 2.6149 0
M  V30 13 C 0.914 3.6797 -0.7033 0
M  V30 14 O -0.2232 0.9946 3.1663 0
M  V30 15 O -1.0296 1.426 1.0331 0
M  V30 16 O 2.5814 3.0024 2.5947 0
M  V30 17 C 1.2076 1.0009 3.0715 0 CFG=1
M  V30 18 C 2.0031 2.8125 -0.8836 0
M  V30 19 C -0.1877 3.5736 -1.5614 0
M  V30 20 N 1.6188 0.0908 2.0227 0
M  V30 21 C 1.838 0.7357 4.4293 0
M  V30 22 C 1.9818 1.8464 -1.8893 0
M  V30 23 C -0.2065 2.6056 -2.5665 0
M  V30 24 C 1.4556 -1.2729 2.081 0
M  V30 25 C 0.8753 1.7418 -2.7285 0
M  V30 26 O 1.0733 -1.8762 3.0759 0
M  V30 27 C 1.7613 -1.9594 0.7572 0 CFG=1
M  V30 28 C 2.0158 -3.4522 0.9565 0
M  V30 29 C 0.5897 -1.7383 -0.2016 0
M  V30 30 N 2.3326 -4.1145 -0.3275 0
M  V30 31 C 0.8221 -2.4691 -1.5273 0 CFG=1
M  V30 32 C 1.1827 -3.9992 -1.273 0 CFG=1
M  V30 33 C 2.6954 -5.5107 -0.0602 0
M  V30 34 C -0.3415 -2.337 -2.4958 0
M  V30 35 C 1.4311 -4.7639 -2.6344 0
M  V30 36 C -0.4655 -3.3444 -3.4599 0
M  V30 37 C -1.2704 -1.2905 -2.5728 0
M  V30 38 C 0.32 -4.5059 -3.5984 0
M  V30 39 C -1.4416 -3.334 -4.4364 0
M  V30 40 C -2.2657 -1.2791 -3.5629 0
M  V30 41 C -0.1749 -5.1955 -4.681 0
M  V30 42 N -1.2418 -4.4759 -5.1816 0
M  V30 43 C -2.3742 -2.3004 -4.5207 0
M  V30 44 H 0.4048 4.9447 2.4772 0
M  V30 45 H -1.7223 3.0515 3.9027 0
M  V30 46 H -4.0491 3.8181 0.961 0
M  V30 47 H -4.0782 5.0403 2.2565 0
M  V30 48 H 1.9682 4.8413 0.7411 0
M  V30 49 H 0.6186 5.6685 0.0179 0
M  V30 50 H -3.3022 1.2254 3.8093 0
M  V30 51 H -3.3723 1.2638 2.0365 0
M  V30 52 H -4.4142 3.3843 3.9616 0
M  V30 53 H -5.3088 2.602 2.6436 0
M  V30 54 H -0.2904 1.6689 0.455 0
M  V30 55 H 2.8813 2.8943 -0.2444 0
M  V30 56 H -1.0378 4.2467 -1.4598 0
M  V30 57 H 2.0204 0.494 1.1861 0
M  V30 58 H 1.5888 1.5369 5.1352 0
M  V30 59 H 1.4655 -0.1903 4.8776 0
M  V30 60 H 2.9291 0.6744 4.3597 0
M  V30 61 H 2.8329 1.1849 -2.0308 0
M  V30 62 H -1.0642 2.53 -3.2307 0
M  V30 63 H 0.859 0.9937 -3.5183 0
M  V30 64 H 2.6671 -1.4997 0.3377 0
M  V30 65 H 1.1532 -3.9352 1.4363 0
M  V30 66 H 2.8638 -3.5639 1.6451 0
M  V30 67 H -0.345 -2.0817 0.2628 0
M  V30 68 H 0.4656 -0.6637 -0.3796 0
M  V30 69 H 1.6873 -2.0007 -2.0201 0
M  V30 70 H 0.3017 -4.468 -0.8052 0
M  V30 71 H 3.49 -5.5667 0.693 0
M  V30 72 H 3.1066 -5.9906 -0.9533 0
M  V30 73 H 1.8425 -6.0978 0.2985 0
M  V30 74 H 1.4965 -5.8433 -2.4593 0
M  V30 75 H 2.3774 -4.4321 -3.079 0
M  V30 76 H -1.2388 -0.4666 -1.8643 0
M  V30 77 H -2.9742 -0.4531 -3.5898 0
M  V30 78 H 0.1223 -6.1289 -5.1392 0
M  V30 79 H -1.8031 -4.7477 -5.9765 0
M  V30 80 H -3.1464 -2.2807 -5.2811 0
M  V30 END ATOM
M  V30 BEGIN BOND
M  V30 1 2 1 2
M  V30 2 1 2 3
M  V30 3 1 2 4
M  V30 4 1 3 5
M  V30 5 1 3 6
M  V30 6 1 4 7
M  V30 7 1 4 8
M  V30 8 1 5 9
M  V30 9 1 5 10
M  V30 10 1 6 11
M  V30 11 1 7 12
M  V30 12 1 8 13
M  V30 13 1 9 14
M  V30 14 1 9 15
M  V30 15 2 12 16
M  V30 16 1 12 17
M  V30 17 2 13 18
M  V30 18 1 13 19
M  V30 19 1 17 20
M  V30 20 1 17 21
M  V30 21 1 18 22
M  V30 22 2 19 23
M  V30 23 1 20 24
M  V30 24 2 22 25
M  V30 25 2 24 26
M  V30 26 1 24 27
M  V30 27 1 27 28
M  V30 28 1 27 29
M  V30 29 1 28 30
M  V30 30 1 29 31
M  V30 31 1 30 32
M  V30 32 1 30 33
M  V30 33 1 31 34
M  V30 34 1 32 35
M  V30 35 2 34 36
M  V30 36 1 34 37
M  V30 37 1 35 38
M  V30 38 1 36 39
M  V30 39 2 37 40
M  V30 40 2 38 41
M  V30 41 1 39 42
M  V30 42 2 39 43
M  V30 43 1 7 9
M  V30 44 1 10 11
M  V30 45 1 14 17
M  V30 46 1 23 25
M  V30 47 1 31 32
M  V30 48 1 36 38
M  V30 49 1 40 43
M  V30 50 1 41 42
M  V30 51 1 4 44
M  V30 52 1 5 45
M  V30 53 1 6 46
M  V30 54 1 6 47
M  V30 55 1 8 48
M  V30 56 1 8 49
M  V30 57 1 10 50
M  V30 58 1 10 51
M  V30 59 1 11 52
M  V30 60 1 11 53
M  V30 61 1 15 54
M  V30 62 1 18 55
M  V30 63 1 19 56
M  V30 64 1 20 57
M  V30 65 1 21 58
M  V30 66 1 21 59
M  V30 67 1 21 60
M  V30 68 1 22 61
M  V30 69 1 23 62
M  V30 70 1 25 63
M  V30 71 1 27 64
M  V30 72 1 28 65
M  V30 73 1 28 66
M  V30 74 1 29 67
M  V30 75 1 29 68
M  V30 76 1 31 69
M  V30 77 1 32 70
M  V30 78 1 33 71
M  V30 79 1 33 72
M  V30 80 1 33 73
M  V30 81 1 35 74
M  V30 82 1 35 75
M  V30 83 1 37 76
M  V30 84 1 40 77
M  V30 85 1 41 78
M  V30 86 1 42 79
M  V30 87 1 43 80
M  V30 END BOND
M  V30 BEGIN COLLECTION
M  V30 MDLV30/STEABS ATOMS=(7 4 5 9 17 27 31 32)
M  V30 END COLLECTION
M  V30 END CTAB
M  END
>  <Column 1>
1712

>  <level_0>
1872

>  <index>
1872

>  <Unnamed: 0>
1872

>  <NO.>
1884

>  <Name>
dihydroergotamine

>  <IUPAC_name>
(6ar-9r-10ar)-n-[(1s-2s-4r-7s)-7-benzyl-2-hydroxy-4-methyl-5-8-dioxo-3-oxa-6-9-diazatricyclo[7.3.0.02-6]dodecan-4-yl]-7-methyl-6-6a-8-9-10-10a-hexahydro-4h-indolo[4-3-fg]quinoline-9-carboxamide

>  <SMILES>
CN1C[C@H](C(=O)N[C@]2(C)O[C@@]3(O)[C@@H]4CCCN4C(=O)[C@H](Cc4ccccc4)N3C2=O)C[C@@H]2c3cccc4[nH]cc(c34)C[C@H]21

>  <CID>
10531

>  <logBB>


>  <BBB+/BBB->
BBB-

>  <Inchi>
InChI=1S/C33H37N5O5/c1-32(35-29(39)21-15-23-22-10-6-11-24-28(22)20(17-34-24)16-25(23)36(2)18-21)31(41)38-26(14-19-8-4-3-5-9-19)30(40)37-13-7-12-27(37)33(38-42)43-32/h3-6-8-11-17-21-23-25-27-34-42H-7-12-16-18H2-1-2H3-(H-35-39)/t21--23--25--26+-27+-32--33+/m1/s1

>  <threshold>
-1

>  <reference>
R1|R24|R27|R30|

>  <group>
B

>  <Class>
1

>  <ABC>
35.44

>  <ABCGG>
26.29

>  <nAcid>
0

>  <nBase>
1

>  <nAromAtom>
15

>  <nAromBond>
16

>  <nAtom>
80

>  <nHeavyAtom>
43

>  <nSpiro>
0

>  <nBridgehead>
0

>  <nHetero>
10

>  <nN>
5

>  <nO>
5

>  <nF>
0

>  <BalabanJ>
1.02

>  <BertzCT>
1640.79

>  <nBonds>
87

>  <nBondsO>
50

>  <nBondsS>
68

>  <nBondsD>
3

>  <nBondsT>
0

>  <nBondsA>
16

>  <nBondsM>
19

>  <nBondsKS>
77

>  <nBondsKD>
10

>  <RNCG>
0.1

>  <RPCG>
0.08

>  <FCSP3>
0.48

>  <SZ>
51.67

>  <Sm>
48.6

>  <Sv>
50.39

>  <Sse>
80.39

>  <Sp>
53.47

>  <Si>
90.18

>  <MZ>
0.65

>  <Mm>
0.61

>  <Mv>
0.63

>  <Mse>
1

>  <Mp>
0.67

>  <Mi>
1.13

>  <NsCH3>
2

>  <NdCH2>
0

>  <NssCH2>
7

>  <NtCH>
0

>  <NdsCH>
0

>  <NaaCH>
9

>  <NsssCH>
5

>  <NddC>
0

>  <NtsC>
0

>  <NdssC>
3

>  <NaasC>
3

>  <NaaaC>
2

>  <NssssC>
2

>  <NsNH3>
0

>  <NsNH2>
0

>  <NssNH2>
0

>  <NdNH>
0

>  <NssNH>
1

>  <NaaNH>
1

>  <NtN>
0

>  <NsssNH>
0

>  <NdsN>
0

>  <NaaN>
0

>  <NsssN>
3

>  <NddsN>
0

>  <NaasN>
0

>  <NssssN>
0

>  <NsOH>
1

>  <NdO>
3

>  <NssO>
1

>  <NaaO>
0

>  <NsF>
0

>  <NsSiH3>
0

>  <NssSiH2>
0

>  <NsssSiH>
0

>  <NssssSi>
0

>  <NsPH2>
0

>  <NssPH>
0

>  <NsssP>
0

>  <NdsssP>
0

>  <NsssssP>
0

>  <NsSH>
0

>  <NdS>
0

>  <NssS>
0

>  <NaaS>
0

>  <NdssS>
0

>  <NddssS>
0

>  <NsCl>
0

>  <NsBr>
0

>  <NsI>
0

>  <fragCpx>
694.1

>  <fMF>
0.46

>  <nHBAcc>
6

>  <nHBDon>
3

>  <Kier1>
30.34

>  <Kier2>
11.31

>  <Lipinski>
0

>  <GhoseFilter>
0

>  <FilterItLogS>
-5.26

>  <VMcGowan>
425.2

>  <LabuteASA>
249.51

>  <PEOE_VSA1>
25.21

>  <PEOE_VSA2>
24.02

>  <PEOE_VSA3>
0

>  <PEOE_VSA4>
0

>  <PEOE_VSA5>
0

>  <PEOE_VSA6>
42.46

>  <PEOE_VSA7>
62.41

>  <PEOE_VSA8>
48.57

>  <PEOE_VSA9>
5.92

>  <PEOE_VSA10>
12.08

>  <PEOE_VSA11>
0

>  <PEOE_VSA12>
17.54

>  <PEOE_VSA13>
11.82

>  <SMR_VSA1>
24.23

>  <SMR_VSA2>
0

>  <SMR_VSA3>
25

>  <SMR_VSA4>
5.92

>  <SMR_VSA5>
74.71

>  <SMR_VSA6>
20.14

>  <SMR_VSA7>
71.42

>  <SMR_VSA8>
0

>  <SMR_VSA9>
0

>  <SlogP_VSA1>
5.32

>  <SlogP_VSA2>
92.41

>  <SlogP_VSA3>
31.96

>  <SlogP_VSA4>
5.92

>  <SlogP_VSA5>
48.79

>  <SlogP_VSA6>
54.73

>  <SlogP_VSA7>
0

>  <SlogP_VSA8>
10.9

>  <SlogP_VSA9>
0

>  <SlogP_VSA10>
0

>  <SlogP_VSA11>
0

>  <EState_VSA1>
29.63

>  <EState_VSA2>
36.11

>  <EState_VSA3>
32.35

>  <EState_VSA4>
17.5

>  <EState_VSA5>
28.34

>  <EState_VSA6>
4.9

>  <EState_VSA7>
30.33

>  <EState_VSA8>
46.64

>  <EState_VSA9>
4.74

>  <EState_VSA10>
19.49

>  <VSA_EState1>
6.25

>  <VSA_EState2>
50.4

>  <VSA_EState3>
16.23

>  <VSA_EState4>
2.74

>  <VSA_EState5>
-3.31

>  <VSA_EState6>
14.44

>  <VSA_EState7>
5.13

>  <VSA_EState8>
2.56

>  <VSA_EState9>
2.06

>  <apol>
89.29

>  <bpol>
47.73

>  <nRing>
8

>  <nHRing>
5

>  <naRing>
3

>  <naHRing>
1

>  <nARing 2>
5

>  <nAHRing 2>
4

>  <nFRing>
2

>  <nFHRing>
2

>  <nFaRing>
0

>  <nFaHRing>
0

>  <nFARing 2>
2

>  <nFAHRing 2>
2

>  <nRot>
4

>  <SLogP>
2.08

>  <SMR>
157.37

>  <TopoPSA(NO)>
118.21

>  <TopoPSA>
118.21

>  <JGI1>
0.2

>  <JGI2>
0.09

>  <JGI3>
0.06

>  <JGI4>
0.05

>  <JGI5>
0.03

>  <Diameter>
17

>  <Radius>
9

>  <TMWC10>
177.2

>  <TSRW10>
99.27

>  <MW>
583.28

>  <AMW>
7.29

>  <WPath>
6191

>  <WPol>
88

>  <Zagreb1>
258

>  <Zagreb2>
326

>  <mZagreb2>
8.88

>  <yes>


>  <nAR-cont>
0

>  <nHA-cont>
0.205638778

>  <MWHBN>
0.372652438

>  <MWHBN-cont>
0.583544825

>  <TPSA-cont>
0.174820796

>  <pka_cont>
0.97

>  <yes.1>


>  <BBB_SCORE>
1.915597608

>  <MMFF94 Energy>
75.176

$$$$
Compound 1437
Actelion Java MolfileCreator 2.0

  0  0  0  0  0  0              0 V3000
M  V30 BEGIN CTAB
M  V30 COUNTS 48 52 0 0 0
M  V30 BEGIN ATOM
M  V30 1 O 5.1656 1.0476 -3.5492 0
M  V30 2 C 4.0881 0.4968 -3.7678 0
M  V30 3 N 3.6001 0.3986 -5.0452 0
M  V30 4 C 3.2766 -0.186 -2.6673 0
M  V30 5 C 2.4696 -0.2788 -5.4221 0
M  V30 6 N 1.8429 -0.2528 -3.0246 0
M  V30 7 O 2.1605 -0.3782 -6.608 0
M  V30 8 C 1.688 -0.9704 -4.3089 0
M  V30 9 C 1.0499 -0.9295 -1.9778 0
M  V30 10 C 0.9397 -0.1695 -0.6301 0 CFG=2
M  V30 11 C 0.1072 -0.9653 0.3477 0
M  V30 12 C 0.3511 1.2417 -0.8411 0
M  V30 13 C -0.7936 -0.3773 1.1565 0
M  V30 14 N 0.0702 1.9097 0.4429 0
M  V30 15 C -1.6388 -1.185 2.0678 0
M  V30 16 C -0.9816 1.172 1.2066 0 CFG=2
M  V30 17 C -0.3146 3.3014 0.1919 0
M  V30 18 C -2.1349 -0.4765 3.1699 0
M  V30 19 C -2.0076 -2.5308 1.9544 0
M  V30 20 C -1.0661 1.7336 2.6788 0
M  V30 21 C -2.9526 -1.0713 4.116 0
M  V30 22 C -1.9312 0.8717 3.5318 0
M  V30 23 C -2.8345 -3.1295 2.9163 0
M  V30 24 N -3.2433 -0.0925 5.0421 0
M  V30 25 C -3.3254 -2.4134 4.0198 0
M  V30 26 C -2.6281 1.092 4.6971 0
M  V30 27 H 4.1353 0.8422 -5.7758 0
M  V30 28 H 3.7004 -1.1833 -2.5003 0
M  V30 29 H 3.4152 0.416 -1.7637 0
M  V30 30 H 2.0361 -2.0079 -4.2397 0
M  V30 31 H 0.6335 -0.9685 -4.6083 0
M  V30 32 H 0.0283 -1.0754 -2.3568 0
M  V30 33 H 1.4554 -1.9351 -1.7981 0
M  V30 34 H 1.9388 -0.08 -0.1849 0
M  V30 35 H 0.2769 -2.0369 0.3831 0
M  V30 36 H -0.5598 1.1929 -1.4543 0
M  V30 37 H 1.0835 1.8355 -1.4023 0
M  V30 38 H -1.9556 1.3562 0.7255 0
M  V30 39 H -0.4063 3.8666 1.124 0
M  V30 40 H 0.4594 3.8154 -0.3896 0
M  V30 41 H -1.2596 3.3768 -0.3577 0
M  V30 42 H -1.668 -3.1259 1.1121 0
M  V30 43 H -1.471 2.7516 2.6773 0
M  V30 44 H -0.0623 1.7715 3.1211 0
M  V30 45 H -3.1064 -4.1772 2.8031 0
M  V30 46 H -3.8214 -0.2295 5.8593 0
M  V30 47 H -3.9645 -2.8862 4.7573 0
M  V30 48 H -2.7401 1.9726 5.3152 0
M  V30 END ATOM
M  V30 BEGIN BOND
M  V30 1 2 1 2
M  V30 2 1 2 3
M  V30 3 1 2 4
M  V30 4 1 3 5
M  V30 5 1 4 6
M  V30 6 2 5 7
M  V30 7 1 5 8
M  V30 8 1 6 9
M  V30 9 1 9 10
M  V30 10 1 10 11
M  V30 11 1 10 12
M  V30 12 2 11 13
M  V30 13 1 12 14
M  V30 14 1 13 15
M  V30 15 1 13 16
M  V30 16 1 14 17
M  V30 17 2 15 18
M  V30 18 1 15 19
M  V30 19 1 16 20
M  V30 20 1 18 21
M  V30 21 1 18 22
M  V30 22 2 19 23
M  V30 23 1 21 24
M  V30 24 2 21 25
M  V30 25 2 22 26
M  V30 26 1 6 8
M  V30 27 1 14 16
M  V30 28 1 20 22
M  V30 29 1 23 25
M  V30 30 1 24 26
M  V30 31 1 3 27
M  V30 32 1 4 28
M  V30 33 1 4 29
M  V30 34 1 8 30
M  V30 35 1 8 31
M  V30 36 1 9 32
M  V30 37 1 9 33
M  V30 38 1 10 34
M  V30 39 1 11 35
M  V30 40 1 12 36
M  V30 41 1 12 37
M  V30 42 1 16 38
M  V30 43 1 17 39
M  V30 44 1 17 40
M  V30 45 1 17 41
M  V30 46 1 19 42
M  V30 47 1 20 43
M  V30 48 1 20 44
M  V30 49 1 23 45
M  V30 50 1 24 46
M  V30 51 1 25 47
M  V30 52 1 26 48
M  V30 END BOND
M  V30 BEGIN COLLECTION
M  V30 MDLV30/STEABS ATOMS=(2 10 16)
M  V30 END COLLECTION
M  V30 END CTAB
M  END
>  <Column 1>
1713

>  <level_0>
1873

>  <index>
1873

>  <Unnamed: 0>
1873

>  <NO.>
1885

>  <Name>
romergoline

>  <IUPAC_name>
4-[[(6ar-9s)-7-methyl-6-6a-8-9-tetrahydro-4h-indolo[4-3-fg]quinolin-9-yl]methyl]piperazine-2-6-dione

>  <SMILES>
CN1C[C@H](CN2CC(=O)NC(=O)C2)C=C2c3cccc4[nH]cc(c34)C[C@H]21

>  <CID>
65898

>  <logBB>


>  <BBB+/BBB->
BBB+

>  <Inchi>
InChI=1S/C20H22N4O2/c1-23-8-12(9-24-10-18(25)22-19(26)11-24)5-15-14-3-2-4-16-20(14)13(7-21-16)6-17(15)23/h2-5-7-12-17-21H-6-8-11H2-1H3-(H-22-25-26)/t12--17-/m1/s1

>  <threshold>
-1

>  <reference>
R1|R6|R27|R30|

>  <group>
B

>  <Class>
1

>  <ABC>
21.3

>  <ABCGG>
15.85

>  <nAcid>
0

>  <nBase>
2

>  <nAromAtom>
9

>  <nAromBond>
10

>  <nAtom>
48

>  <nHeavyAtom>
26

>  <nSpiro>
0

>  <nBridgehead>
0

>  <nHetero>
6

>  <nN>
4

>  <nO>
2

>  <nF>
0

>  <BalabanJ>
1.29

>  <BertzCT>
928.43

>  <nBonds>
52

>  <nBondsO>
30

>  <nBondsS>
39

>  <nBondsD>
3

>  <nBondsT>
0

>  <nBondsA>
10

>  <nBondsM>
13

>  <nBondsKS>
45

>  <nBondsKD>
7

>  <RNCG>
0.17

>  <RPCG>
0.12

>  <FCSP3>
0.4

>  <SZ>
31

>  <Sm>
29.18

>  <Sv>
30.42

>  <Sse>
48.08

>  <Sp>
32.38

>  <Si>
54.15

>  <MZ>
0.65

>  <Mm>
0.61

>  <Mv>
0.63

>  <Mse>
1

>  <Mp>
0.67

>  <Mi>
1.13

>  <NsCH3>
1

>  <NdCH2>
0

>  <NssCH2>
5

>  <NtCH>
0

>  <NdsCH>
1

>  <NaaCH>
4

>  <NsssCH>
2

>  <NddC>
0

>  <NtsC>
0

>  <NdssC>
3

>  <NaasC>
2

>  <NaaaC>
2

>  <NssssC>
0

>  <NsNH3>
0

>  <NsNH2>
0

>  <NssNH2>
0

>  <NdNH>
0

>  <NssNH>
1

>  <NaaNH>
1

>  <NtN>
0

>  <NsssNH>
0

>  <NdsN>
0

>  <NaaN>
0

>  <NsssN>
2

>  <NddsN>
0

>  <NaasN>
0

>  <NssssN>
0

>  <NsOH>
0

>  <NdO>
2

>  <NssO>
0

>  <NaaO>
0

>  <NsF>
0

>  <NsSiH3>
0

>  <NssSiH2>
0

>  <NsssSiH>
0

>  <NssssSi>
0

>  <NsPH2>
0

>  <NssPH>
0

>  <NsssP>
0

>  <NdsssP>
0

>  <NsssssP>
0

>  <NsSH>
0

>  <NdS>
0

>  <NssS>
0

>  <NaaS>
0

>  <NdssS>
0

>  <NddssS>
0

>  <NsCl>
0

>  <NsBr>
0

>  <NsI>
0

>  <fragCpx>
250.06

>  <fMF>
0.48

>  <nHBAcc>
4

>  <nHBDon>
2

>  <Kier1>
18.06

>  <Kier2>
7.11

>  <Lipinski>
1

>  <GhoseFilter>
1

>  <FilterItLogS>
-3.99

>  <VMcGowan>
259.92

>  <LabuteASA>
151.39

>  <PEOE_VSA1>
4.98

>  <PEOE_VSA2>
24.71

>  <PEOE_VSA3>
0

>  <PEOE_VSA4>
0

>  <PEOE_VSA5>
0

>  <PEOE_VSA6>
18.21

>  <PEOE_VSA7>
36.23

>  <PEOE_VSA8>
42.15

>  <PEOE_VSA9>
13.09

>  <PEOE_VSA10>
0

>  <PEOE_VSA11>
0

>  <PEOE_VSA12>
11.81

>  <PEOE_VSA13>
0

>  <SMR_VSA1>
9.59

>  <SMR_VSA2>
0

>  <SMR_VSA3>
20.1

>  <SMR_VSA4>
5.92

>  <SMR_VSA5>
12.46

>  <SMR_VSA6>
33.23

>  <SMR_VSA7>
41.6

>  <SMR_VSA8>
0

>  <SMR_VSA9>
0

>  <SlogP_VSA1>
5.32

>  <SlogP_VSA2>
65.87

>  <SlogP_VSA3>
16.01

>  <SlogP_VSA4>
5.92

>  <SlogP_VSA5>
11.13

>  <SlogP_VSA6>
30.47

>  <SlogP_VSA7>
0

>  <SlogP_VSA8>
16.48

>  <SlogP_VSA9>
0

>  <SlogP_VSA10>
0

>  <SlogP_VSA11>
0

>  <EState_VSA1>
0

>  <EState_VSA2>
11.81

>  <EState_VSA3>
25.05

>  <EState_VSA4>
19.51

>  <EState_VSA5>
27.6

>  <EState_VSA6>
0

>  <EState_VSA7>
4.9

>  <EState_VSA8>
52.72

>  <EState_VSA9>
0

>  <EState_VSA10>
9.59

>  <VSA_EState1>
0

>  <VSA_EState2>
31.07

>  <VSA_EState3>
3.72

>  <VSA_EState4>
5.29

>  <VSA_EState5>
-0.09

>  <VSA_EState6>
6.85

>  <VSA_EState7>
5.55

>  <VSA_EState8>
2.28

>  <VSA_EState9>
2.18

>  <apol>
54.07

>  <bpol>
28.37

>  <nRing>
5

>  <nHRing>
3

>  <naRing>
2

>  <naHRing>
1

>  <nARing 2>
3

>  <nAHRing 2>
2

>  <nFRing>
1

>  <nFHRing>
1

>  <nFaRing>
0

>  <nFaHRing>
0

>  <nFARing 2>
1

>  <nFAHRing 2>
1

>  <nRot>
2

>  <SLogP>
1

>  <SMR>
99.48

>  <TopoPSA(NO)>
68.44

>  <TopoPSA>
68.44

>  <JGI1>
0.2

>  <JGI2>
0.05

>  <JGI3>
0.06

>  <JGI4>
0.04

>  <JGI5>
0.02

>  <Diameter>
11

>  <Radius>
6

>  <TMWC10>
134.03

>  <TSRW10>
75.82

>  <MW>
350.17

>  <AMW>
7.3

>  <WPath>
1604

>  <WPol>
46

>  <Zagreb1>
150

>  <Zagreb2>
183

>  <mZagreb2>
5.42

>  <yes>


>  <nAR-cont>
0.691115

>  <nHA-cont>
0.892715677

>  <MWHBN>
0.320635631

>  <MWHBN-cont>
0.775027933

>  <TPSA-cont>
0.522246301

>  <pka_cont>
0.97

>  <yes.1>


>  <BBB_SCORE>
4.275865179

>  <MMFF94 Energy>
133.39

$$$$
Compound 1438
Actelion Java MolfileCreator 2.0

  0  0  0  0  0  0              0 V3000
M  V30 BEGIN CTAB
M  V30 COUNTS 36 38 0 0 0
M  V30 BEGIN ATOM
M  V30 1 N -1.5872 1.1902 1.4284 0
M  V30 2 C -1.4676 -0.2093 1.8783 0
M  V30 3 C -0.3705 1.5706 0.6977 0
M  V30 4 C -1.8039 2.0742 2.5719 0
M  V30 5 C -1.0991 -1.1941 0.7824 0
M  V30 6 C -0.2413 0.7638 -0.6172 0 CFG=2
M  V30 7 C -1.3167 -2.5785 0.9621 0
M  V30 8 C -0.4837 -0.7299 -0.4076 0
M  V30 9 C 1.0902 1.1084 -1.2814 0
M  V30 10 N -1.8095 -3.1118 2.1477 0
M  V30 11 C -0.9302 -3.4665 -0.0507 0
M  V30 12 C -0.1629 -1.6458 -1.4238 0
M  V30 13 C 1.112 1.9201 -2.4264 0
M  V30 14 C 2.3101 0.6464 -0.7597 0
M  V30 15 C -0.3762 -3.0065 -1.242 0
M  V30 16 C 2.3221 2.2554 -3.0366 0
M  V30 17 C 3.5182 0.9825 -1.3723 0
M  V30 18 C 3.5238 1.7867 -2.5099 0
M  V30 19 H -0.7169 -0.2996 2.675 0
M  V30 20 H -2.4428 -0.4938 2.2906 0
M  V30 21 H -0.4073 2.6386 0.4427 0
M  V30 22 H 0.5127 1.4326 1.3376 0
M  V30 23 H -1.9376 3.1088 2.2367 0
M  V30 24 H -0.9702 2.0482 3.283 0
M  V30 25 H -2.7203 1.7966 3.1046 0
M  V30 26 H -1.055 1.0914 -1.2818 0
M  V30 27 H -2.225 -2.5223 2.8529 0
M  V30 28 H -2.0264 -4.0988 2.1892 0
M  V30 29 H -1.0674 -4.5365 0.0807 0
M  V30 30 H 0.2713 -1.3021 -2.3604 0
M  V30 31 H 0.1843 2.297 -2.8519 0
M  V30 32 H 2.3238 0.012 0.1246 0
M  V30 33 H -0.1029 -3.7098 -2.0234 0
M  V30 34 H 2.3263 2.883 -3.9239 0
M  V30 35 H 4.4546 0.6139 -0.9619 0
M  V30 36 H 4.4649 2.0473 -2.9866 0
M  V30 END ATOM
M  V30 BEGIN BOND
M  V30 1 1 1 2
M  V30 2 1 1 3
M  V30 3 1 1 4
M  V30 4 1 2 5
M  V30 5 1 3 6
M  V30 6 2 5 7
M  V30 7 1 5 8
M  V30 8 1 6 9
M  V30 9 1 7 10
M  V30 10 1 7 11
M  V30 11 2 8 12
M  V30 12 2 9 13
M  V30 13 1 9 14
M  V30 14 2 11 15
M  V30 15 1 13 16
M  V30 16 2 14 17
M  V30 17 2 16 18
M  V30 18 1 6 8
M  V30 19 1 12 15
M  V30 20 1 17 18
M  V30 21 1 2 19
M  V30 22 1 2 20
M  V30 23 1 3 21
M  V30 24 1 3 22
M  V30 25 1 4 23
M  V30 26 1 4 24
M  V30 27 1 4 25
M  V30 28 1 6 26
M  V30 29 1 10 27
M  V30 30 1 10 28
M  V30 31 1 11 29
M  V30 32 1 12 30
M  V30 33 1 13 31
M  V30 34 1 14 32
M  V30 35 1 15 33
M  V30 36 1 16 34
M  V30 37 1 17 35
M  V30 38 1 18 36
M  V30 END BOND
M  V30 BEGIN COLLECTION
M  V30 MDLV30/STERAC1 ATOMS=(1 6)
M  V30 END COLLECTION
M  V30 END CTAB
M  END
>  <Column 1>
1714

>  <level_0>
1874

>  <index>
1874

>  <Unnamed: 0>
1874

>  <NO.>
1886

>  <Name>
nomifensine

>  <IUPAC_name>
2-methyl-4-phenyl-3-4-dihydro-1h-isoquinolin-8-amine

>  <SMILES>
CN1Cc2c(N)cccc2C(c2ccccc2)C1

>  <CID>
4528

>  <logBB>


>  <BBB+/BBB->
BBB+

>  <Inchi>
InChI=1S/C16H18N2/c1-18-10-14(12-6-3-2-4-7-12)13-8-5-9-16(17)15(13)11-18/h2-9-14H-10-11-17H2-1H3

>  <threshold>
-1

>  <reference>
R1|R19|R6|R27|R27|R30|

>  <group>
B

>  <Class>
1

>  <ABC>
14.2

>  <ABCGG>
11.58

>  <nAcid>
0

>  <nBase>
1

>  <nAromAtom>
12

>  <nAromBond>
12

>  <nAtom>
36

>  <nHeavyAtom>
18

>  <nSpiro>
0

>  <nBridgehead>
0

>  <nHetero>
2

>  <nN>
2

>  <nO>
0

>  <nF>
0

>  <BalabanJ>
1.74

>  <BertzCT>
548.28

>  <nBonds>
38

>  <nBondsO>
20

>  <nBondsS>
26

>  <nBondsD>
0

>  <nBondsT>
0

>  <nBondsA>
12

>  <nBondsM>
12

>  <nBondsKS>
32

>  <nBondsKD>
6

>  <RNCG>
0.32

>  <RPCG>
0.12

>  <FCSP3>
0.25

>  <SZ>
21.33

>  <Sm>
19.84

>  <Sv>
22.39

>  <Sse>
35.32

>  <Sp>
24.5

>  <Si>
40.32

>  <MZ>
0.59

>  <Mm>
0.55

>  <Mv>
0.62

>  <Mse>
0.98

>  <Mp>
0.68

>  <Mi>
1.12

>  <NsCH3>
1

>  <NdCH2>
0

>  <NssCH2>
2

>  <NtCH>
0

>  <NdsCH>
0

>  <NaaCH>
8

>  <NsssCH>
1

>  <NddC>
0

>  <NtsC>
0

>  <NdssC>
0

>  <NaasC>
4

>  <NaaaC>
0

>  <NssssC>
0

>  <NsNH3>
0

>  <NsNH2>
1

>  <NssNH2>
0

>  <NdNH>
0

>  <NssNH>
0

>  <NaaNH>
0

>  <NtN>
0

>  <NsssNH>
0

>  <NdsN>
0

>  <NaaN>
0

>  <NsssN>
1

>  <NddsN>
0

>  <NaasN>
0

>  <NssssN>
0

>  <NsOH>
0

>  <NdO>
0

>  <NssO>
0

>  <NaaO>
0

>  <NsF>
0

>  <NsSiH3>
0

>  <NssSiH2>
0

>  <NsssSiH>
0

>  <NssssSi>
0

>  <NsPH2>
0

>  <NssPH>
0

>  <NsssP>
0

>  <NdsssP>
0

>  <NsssssP>
0

>  <NsSH>
0

>  <NdS>
0

>  <NssS>
0

>  <NaaS>
0

>  <NdssS>
0

>  <NddssS>
0

>  <NsCl>
0

>  <NsBr>
0

>  <NsI>
0

>  <fragCpx>
94.02

>  <fMF>
0.44

>  <nHBAcc>
2

>  <nHBDon>
1

>  <Kier1>
13.01

>  <Kier2>
5.55

>  <Lipinski>
1

>  <GhoseFilter>
1

>  <FilterItLogS>
-3.67

>  <VMcGowan>
197.88

>  <LabuteASA>
108.04

>  <PEOE_VSA1>
10.63

>  <PEOE_VSA2>
0

>  <PEOE_VSA3>
0

>  <PEOE_VSA4>
0

>  <PEOE_VSA5>
0

>  <PEOE_VSA6>
42.46

>  <PEOE_VSA7>
29.8

>  <PEOE_VSA8>
24.69

>  <PEOE_VSA9>
0

>  <PEOE_VSA10>
0

>  <PEOE_VSA11>
0

>  <PEOE_VSA12>
0

>  <PEOE_VSA13>
0

>  <SMR_VSA1>
0

>  <SMR_VSA2>
0

>  <SMR_VSA3>
4.9

>  <SMR_VSA4>
0

>  <SMR_VSA5>
12.46

>  <SMR_VSA6>
19.33

>  <SMR_VSA7>
65.22

>  <SMR_VSA8>
0

>  <SMR_VSA9>
0

>  <SlogP_VSA1>
5.73

>  <SlogP_VSA2>
18.49

>  <SlogP_VSA3>
6.54

>  <SlogP_VSA4>
0

>  <SlogP_VSA5>
22.61

>  <SlogP_VSA6>
48.53

>  <SlogP_VSA7>
0

>  <SlogP_VSA8>
0

>  <SlogP_VSA9>
0

>  <SlogP_VSA10>
5.69

>  <SlogP_VSA11>
0

>  <EState_VSA1>
0

>  <EState_VSA2>
0

>  <EState_VSA3>
5.92

>  <EState_VSA4>
18.78

>  <EState_VSA5>
16.69

>  <EState_VSA6>
0

>  <EState_VSA7>
6.07

>  <EState_VSA8>
54.41

>  <EState_VSA9>
5.73

>  <EState_VSA10>
0

>  <VSA_EState1>
0

>  <VSA_EState2>
2.34

>  <VSA_EState3>
0

>  <VSA_EState4>
11.09

>  <VSA_EState5>
0.43

>  <VSA_EState6>
16.97

>  <VSA_EState7>
0

>  <VSA_EState8>
2.01

>  <VSA_EState9>
2.16

>  <apol>
40.92

>  <bpol>
19.2

>  <nRing>
3

>  <nHRing>
1

>  <naRing>
2

>  <naHRing>
0

>  <nARing 2>
1

>  <nAHRing 2>
1

>  <nFRing>
1

>  <nFHRing>
1

>  <nFaRing>
0

>  <nFaHRing>
0

>  <nFARing 2>
1

>  <nFAHRing 2>
1

>  <nRot>
1

>  <SLogP>
2.85

>  <SMR>
75.47

>  <TopoPSA(NO)>
29.26

>  <TopoPSA>
29.26

>  <JGI1>
0.15

>  <JGI2>
0.07

>  <JGI3>
0.04

>  <JGI4>
0.05

>  <JGI5>
0.02

>  <Diameter>
8

>  <Radius>
4

>  <TMWC10>
110.99

>  <TSRW10>
51.44

>  <MW>
238.15

>  <AMW>
6.62

>  <WPath>
555

>  <WPol>
29

>  <Zagreb1>
96

>  <Zagreb2>
114

>  <mZagreb2>
3.94

>  <yes>


>  <nAR-cont>
0.816016

>  <nHA-cont>
0.991161285

>  <MWHBN>
0.194399866

>  <MWHBN-cont>
0.997931984

>  <TPSA-cont>
0.795747031

>  <pka_cont>
0.97

>  <yes.1>


>  <BBB_SCORE>
5.380569323

>  <MMFF94 Energy>
79.039

$$$$
Compound 1439
Actelion Java MolfileCreator 2.0

  0  0  0  0  0  0              0 V3000
M  V30 BEGIN CTAB
M  V30 COUNTS 50 53 0 0 0
M  V30 BEGIN ATOM
M  V30 1 O 1.7507 1.3526 -0.7159 0
M  V30 2 C 1.1022 0.311 -0.6214 0
M  V30 3 N 1.6612 -0.9225 -0.8586 0
M  V30 4 N -0.2047 0.3084 -0.2198 0
M  V30 5 C 1.0752 -2.179 -1.0867 0
M  V30 6 C 3.1181 -1.0777 -0.9394 0
M  V30 7 C -0.9502 1.5296 0.0473 0
M  V30 8 C 2.0539 -3.1777 -1.0153 0
M  V30 9 C -0.2293 -2.4907 -1.4356 0
M  V30 10 C 3.412 -2.5817 -0.7139 0
M  V30 11 C -2.4498 1.3247 -0.2266 0
M  V30 12 C -0.6909 2.0381 1.4772 0
M  V30 13 C 1.7274 -4.5134 -1.2141 0
M  V30 14 C -0.5637 -3.8326 -1.6421 0
M  V30 15 C 3.8008 -2.8542 0.7444 0
M  V30 16 C 4.5062 -3.0751 -1.6629 0
M  V30 17 C -3.3124 2.449 0.3769 0 CFG=1
M  V30 18 C -1.7252 3.0903 1.9181 0 CFG=2
M  V30 19 C 0.4056 -4.8378 -1.5218 0
M  V30 20 N -3.0456 2.4384 1.8266 0
M  V30 21 C -2.86 3.8372 -0.0889 0
M  V30 22 C -1.8063 4.2638 0.9356 0
M  V30 23 C -4.0735 3.1368 2.5961 0
M  V30 24 H -0.551 -0.5537 0.1733 0
M  V30 25 H 3.417 -0.7413 -1.941 0
M  V30 26 H 3.615 -0.4287 -0.2089 0
M  V30 27 H -0.5787 2.2879 -0.654 0
M  V30 28 H -0.9845 -1.7284 -1.5882 0
M  V30 29 H -2.7773 0.3607 0.187 0
M  V30 30 H -2.6166 1.2633 -1.3095 0
M  V30 31 H 0.32 2.4595 1.5406 0
M  V30 32 H -0.7144 1.1944 2.181 0
M  V30 33 H 2.479 -5.2931 -1.1416 0
M  V30 34 H -1.583 -4.0987 -1.9129 0
M  V30 35 H 4.7445 -2.3581 0.9972 0
M  V30 36 H 3.9273 -3.9274 0.9284 0
M  V30 37 H 3.0369 -2.4918 1.4426 0
M  V30 38 H 4.2235 -2.9303 -2.7122 0
M  V30 39 H 4.706 -4.1436 -1.5242 0
M  V30 40 H 5.4444 -2.5359 -1.491 0
M  V30 41 H -4.3644 2.2575 0.1367 0
M  V30 42 H -1.4845 3.4212 2.9348 0
M  V30 43 H 0.1282 -5.8762 -1.6875 0
M  V30 44 H -2.4606 3.833 -1.1083 0
M  V30 45 H -3.6977 4.5445 -0.0665 0
M  V30 46 H -0.8445 4.4884 0.4631 0
M  V30 47 H -2.1422 5.1738 1.4471 0
M  V30 48 H -5.0358 2.6244 2.4872 0
M  V30 49 H -4.2127 4.183 2.3048 0
M  V30 50 H -3.8243 3.1127 3.6627 0
M  V30 END ATOM
M  V30 BEGIN BOND
M  V30 1 2 1 2
M  V30 2 1 2 3
M  V30 3 1 2 4
M  V30 4 1 3 5
M  V30 5 1 3 6
M  V30 6 1 4 7
M  V30 7 2 5 8
M  V30 8 1 5 9
M  V30 9 1 6 10
M  V30 10 1 7 11
M  V30 11 1 7 12
M  V30 12 1 8 13
M  V30 13 2 9 14
M  V30 14 1 10 15
M  V30 15 1 10 16
M  V30 16 1 11 17
M  V30 17 1 12 18
M  V30 18 2 13 19
M  V30 19 1 17 20
M  V30 20 1 17 21
M  V30 21 1 18 22
M  V30 22 1 20 23
M  V30 23 1 8 10
M  V30 24 1 14 19
M  V30 25 1 18 20
M  V30 26 1 21 22
M  V30 27 1 4 24
M  V30 28 1 6 25
M  V30 29 1 6 26
M  V30 30 1 7 27
M  V30 31 1 9 28
M  V30 32 1 11 29
M  V30 33 1 11 30
M  V30 34 1 12 31
M  V30 35 1 12 32
M  V30 36 1 13 33
M  V30 37 1 14 34
M  V30 38 1 15 35
M  V30 39 1 15 36
M  V30 40 1 15 37
M  V30 41 1 16 38
M  V30 42 1 16 39
M  V30 43 1 16 40
M  V30 44 1 17 41
M  V30 45 1 18 42
M  V30 46 1 19 43
M  V30 47 1 21 44
M  V30 48 1 21 45
M  V30 49 1 22 46
M  V30 50 1 22 47
M  V30 51 1 23 48
M  V30 52 1 23 49
M  V30 53 1 23 50
M  V30 END BOND
M  V30 BEGIN COLLECTION
M  V30 MDLV30/STEABS ATOMS=(2 17 18)
M  V30 END COLLECTION
M  V30 END CTAB
M  END
>  <Column 1>
1715

>  <level_0>
1876

>  <index>
1876

>  <Unnamed: 0>
1876

>  <NO.>
1888

>  <Name>
ricasetron

>  <IUPAC_name>
3-3-dimethyl-n-[(1s-5r)-8-methyl-8-azabicyclo[3.2.1]octan-3-yl]-2h-indole-1-carboxamide

>  <SMILES>
CN1[C@H]2CC[C@@H]1CC(NC(=O)N1CC(C)(C)c3ccccc31)C2

>  <CID>
71785

>  <logBB>


>  <BBB+/BBB->
BBB+

>  <Inchi>
InChI=1S/C19H27N3O/c1-19(2)12-22(17-7-5-4-6-16(17)19)18(23)20-13-10-14-8-9-15(11-13)21(14)3/h4-7-13-15H-8-12H2-1-3H3-(H-20-23)/t13?-14--15+

>  <threshold>
-1

>  <reference>
R1|R6|R24|R27|R30|

>  <group>
B

>  <Class>
1

>  <ABC>
18.66

>  <ABCGG>
15.44

>  <nAcid>
0

>  <nBase>
1

>  <nAromAtom>
6

>  <nAromBond>
6

>  <nAtom>
50

>  <nHeavyAtom>
23

>  <nSpiro>
0

>  <nBridgehead>
2

>  <nHetero>
4

>  <nN>
3

>  <nO>
1

>  <nF>
0

>  <BalabanJ>
1.4

>  <BertzCT>
612.8

>  <nBonds>
53

>  <nBondsO>
26

>  <nBondsS>
46

>  <nBondsD>
1

>  <nBondsT>
0

>  <nBondsA>
6

>  <nBondsM>
7

>  <nBondsKS>
49

>  <nBondsKD>
4

>  <RNCG>
0.2

>  <RPCG>
0.2

>  <FCSP3>
0.63

>  <SZ>
28.33

>  <Sm>
26.1

>  <Sv>
29.3

>  <Sse>
49.31

>  <Sp>
32.24

>  <Si>
56.69

>  <MZ>
0.57

>  <Mm>
0.52

>  <Mv>
0.59

>  <Mse>
0.99

>  <Mp>
0.64

>  <Mi>
1.13

>  <NsCH3>
3

>  <NdCH2>
0

>  <NssCH2>
5

>  <NtCH>
0

>  <NdsCH>
0

>  <NaaCH>
4

>  <NsssCH>
3

>  <NddC>
0

>  <NtsC>
0

>  <NdssC>
1

>  <NaasC>
2

>  <NaaaC>
0

>  <NssssC>
1

>  <NsNH3>
0

>  <NsNH2>
0

>  <NssNH2>
0

>  <NdNH>
0

>  <NssNH>
1

>  <NaaNH>
0

>  <NtN>
0

>  <NsssNH>
0

>  <NdsN>
0

>  <NaaN>
0

>  <NsssN>
2

>  <NddsN>
0

>  <NaasN>
0

>  <NssssN>
0

>  <NsOH>
0

>  <NdO>
1

>  <NssO>
0

>  <NaaO>
0

>  <NsF>
0

>  <NsSiH3>
0

>  <NssSiH2>
0

>  <NsssSiH>
0

>  <NssssSi>
0

>  <NsPH2>
0

>  <NssPH>
0

>  <NsssP>
0

>  <NdsssP>
0

>  <NsssssP>
0

>  <NsSH>
0

>  <NdS>
0

>  <NssS>
0

>  <NaaS>
0

>  <NdssS>
0

>  <NddssS>
0

>  <NsCl>
0

>  <NsBr>
0

>  <NsI>
0

>  <fragCpx>
170.04

>  <fMF>
0.38

>  <nHBAcc>
2

>  <nHBDon>
1

>  <Kier1>
16.47

>  <Kier2>
6.06

>  <Lipinski>
1

>  <GhoseFilter>
1

>  <FilterItLogS>
-3.4

>  <VMcGowan>
253.74

>  <LabuteASA>
138.39

>  <PEOE_VSA1>
10.22

>  <PEOE_VSA2>
4.9

>  <PEOE_VSA3>
4.79

>  <PEOE_VSA4>
0

>  <PEOE_VSA5>
0

>  <PEOE_VSA6>
32.05

>  <PEOE_VSA7>
44.36

>  <PEOE_VSA8>
35.77

>  <PEOE_VSA9>
0

>  <PEOE_VSA10>
0

>  <PEOE_VSA11>
0

>  <PEOE_VSA12>
0

>  <PEOE_VSA13>
0

>  <SMR_VSA1>
4.79

>  <SMR_VSA2>
0

>  <SMR_VSA3>
10.22

>  <SMR_VSA4>
0

>  <SMR_VSA5>
63.07

>  <SMR_VSA6>
18.49

>  <SMR_VSA7>
29.83

>  <SMR_VSA8>
0

>  <SMR_VSA9>
0

>  <SlogP_VSA1>
10.22

>  <SlogP_VSA2>
42.65

>  <SlogP_VSA3>
5.41

>  <SlogP_VSA4>
0

>  <SlogP_VSA5>
45.09

>  <SlogP_VSA6>
24.27

>  <SlogP_VSA7>
0

>  <SlogP_VSA8>
0

>  <SlogP_VSA9>
0

>  <SlogP_VSA10>
10.48

>  <SlogP_VSA11>
0

>  <EState_VSA1>
0

>  <EState_VSA2>
11.45

>  <EState_VSA3>
18.13

>  <EState_VSA4>
25.07

>  <EState_VSA5>
18.41

>  <EState_VSA6>
0

>  <EState_VSA7>
10.97

>  <EState_VSA8>
49.31

>  <EState_VSA9>
0

>  <EState_VSA10>
4.79

>  <VSA_EState1>
0

>  <VSA_EState2>
17.33

>  <VSA_EState3>
3.32

>  <VSA_EState4>
2.38

>  <VSA_EState5>
0

>  <VSA_EState6>
10.03

>  <VSA_EState7>
4.76

>  <VSA_EState8>
5.2

>  <VSA_EState9>
2.24

>  <apol>
53.84

>  <bpol>
31.94

>  <nRing>
4

>  <nHRing>
3

>  <naRing>
1

>  <naHRing>
0

>  <nARing 2>
3

>  <nAHRing 2>
3

>  <nFRing>
2

>  <nFHRing>
2

>  <nFaRing>
0

>  <nFaHRing>
0

>  <nFARing 2>
2

>  <nFAHRing 2>
2

>  <nRot>
1

>  <SLogP>
3.12

>  <SMR>
92.94

>  <TopoPSA(NO)>
35.58

>  <TopoPSA>
35.58

>  <JGI1>
0.23

>  <JGI2>
0.09

>  <JGI3>
0.08

>  <JGI4>
0.05

>  <JGI5>
0.02

>  <Diameter>
11

>  <Radius>
6

>  <TMWC10>
125.85

>  <TSRW10>
74.6

>  <MW>
313.22

>  <AMW>
6.26

>  <WPath>
1174

>  <WPol>
39

>  <Zagreb1>
132

>  <Zagreb2>
161

>  <mZagreb2>
4.76

>  <yes>


>  <nAR-cont>
0.691115

>  <nHA-cont>
0.967789328

>  <MWHBN>
0.169510464

>  <MWHBN-cont>
0.973193889

>  <TPSA-cont>
0.751629506

>  <pka_cont>
0.97

>  <yes.1>


>  <BBB_SCORE>
5.106954174

>  <MMFF94 Energy>
-11.487

$$$$
Compound 1440
Actelion Java MolfileCreator 2.0

  0  0  0  0  0  0              0 V3000
M  V30 BEGIN CTAB
M  V30 COUNTS 60 64 0 0 0
M  V30 BEGIN ATOM
M  V30 1 O -0.4003 -2.1632 1.1212 0
M  V30 2 C -0.9053 -1.3934 0.3054 0
M  V30 3 C -0.3299 -0.0567 0.0512 0
M  V30 4 C -2.1163 -1.783 -0.458 0
M  V30 5 C 0.8772 0.495 0.7314 0
M  V30 6 C -0.9527 0.6987 -0.864 0
M  V30 7 C -2.6821 -0.8902 -1.3998 0
M  V30 8 C -2.6635 -3.0545 -0.2075 0
M  V30 9 O 1.3283 1.6029 0.4517 0
M  V30 10 N 1.4398 -0.3218 1.6791 0
M  V30 11 N -2.0878 0.3763 -1.6097 0
M  V30 12 C -3.8259 -1.3555 -2.0683 0
M  V30 13 C -3.7958 -3.4733 -0.8923 0
M  V30 14 C 2.6484 0.0263 2.411 0
M  V30 15 C -2.6087 1.382 -2.582 0
M  V30 16 C -4.376 -2.6228 -1.8222 0
M  V30 17 C 2.6674 -0.6484 3.7919 0
M  V30 18 C 3.9054 -0.2979 1.5858 0
M  V30 19 C -2.4874 0.9296 -4.0447 0
M  V30 20 C -3.9838 1.9446 -2.1929 0
M  V30 21 C 4.0649 -0.6248 4.438 0 CFG=1
M  V30 22 C 5.1838 -0.3097 2.4437 0 CFG=2
M  V30 23 C -3.0005 2.0038 -5.0034 0
M  V30 24 C -4.4602 2.9936 -3.1972 0
M  V30 25 N 5.0859 -1.233 3.5794 0
M  V30 26 C 4.622 0.8021 4.5288 0
M  V30 27 C 5.3667 1.0116 3.2024 0
M  V30 28 C -4.4046 2.4719 -4.6305 0
M  V30 29 C 4.8872 -2.6314 3.2458 0
M  V30 30 H -0.5588 1.6907 -1.0818 0
M  V30 31 H -2.2047 -3.7177 0.5229 0
M  V30 32 H 1.0281 -1.2465 1.8163 0
M  V30 33 H -4.3411 -0.7567 -2.8089 0
M  V30 34 H -4.2215 -4.4547 -0.7015 0
M  V30 35 H 2.6193 1.1126 2.5672 0
M  V30 36 H -1.9438 2.2578 -2.525 0
M  V30 37 H -5.2638 -2.9392 -2.3655 0
M  V30 38 H 2.3134 -1.6842 3.7156 0
M  V30 39 H 1.9488 -0.14 4.4478 0
M  V30 40 H 3.7871 -1.2651 1.0813 0
M  V30 41 H 4.0105 0.4421 0.7821 0
M  V30 42 H -3.0353 0.0057 -4.2418 0
M  V30 43 H -1.4379 0.7092 -4.2762 0
M  V30 44 H -4.7474 1.167 -2.1226 0
M  V30 45 H -3.9275 2.398 -1.1953 0
M  V30 46 H 4.0322 -1.0908 5.4289 0
M  V30 47 H 6.058 -0.5207 1.8184 0
M  V30 48 H -3.0007 1.6124 -6.027 0
M  V30 49 H -2.3155 2.8606 -4.9912 0
M  V30 50 H -5.4847 3.2969 -2.9533 0
M  V30 51 H -3.8347 3.8909 -3.1115 0
M  V30 52 H 5.3338 0.885 5.3597 0
M  V30 53 H 3.843 1.5556 4.6848 0
M  V30 54 H 4.9852 1.8771 2.6508 0
M  V30 55 H 6.4289 1.1925 3.409 0
M  V30 56 H -5.112 1.6418 -4.7471 0
M  V30 57 H -4.7215 3.2627 -5.3198 0
M  V30 58 H 3.9653 -2.8372 2.6946 0
M  V30 59 H 4.8722 -3.2361 4.1592 0
M  V30 60 H 5.7255 -2.9953 2.6418 0
M  V30 END ATOM
M  V30 BEGIN BOND
M  V30 1 2 1 2
M  V30 2 1 2 3
M  V30 3 1 2 4
M  V30 4 1 3 5
M  V30 5 2 3 6
M  V30 6 2 4 7
M  V30 7 1 4 8
M  V30 8 2 5 9
M  V30 9 1 5 10
M  V30 10 1 6 11
M  V30 11 1 7 12
M  V30 12 2 8 13
M  V30 13 1 10 14
M  V30 14 1 11 15
M  V30 15 2 12 16
M  V30 16 1 14 17
M  V30 17 1 14 18
M  V30 18 1 15 19
M  V30 19 1 15 20
M  V30 20 1 17 21
M  V30 21 1 18 22
M  V30 22 1 19 23
M  V30 23 1 20 24
M  V30 24 1 21 25
M  V30 25 1 21 26
M  V30 26 1 22 27
M  V30 27 1 23 28
M  V30 28 1 25 29
M  V30 29 1 7 11
M  V30 30 1 13 16
M  V30 31 1 22 25
M  V30 32 1 24 28
M  V30 33 1 26 27
M  V30 34 1 6 30
M  V30 35 1 8 31
M  V30 36 1 10 32
M  V30 37 1 12 33
M  V30 38 1 13 34
M  V30 39 1 14 35
M  V30 40 1 15 36
M  V30 41 1 16 37
M  V30 42 1 17 38
M  V30 43 1 17 39
M  V30 44 1 18 40
M  V30 45 1 18 41
M  V30 46 1 19 42
M  V30 47 1 19 43
M  V30 48 1 20 44
M  V30 49 1 20 45
M  V30 50 1 21 46
M  V30 51 1 22 47
M  V30 52 1 23 48
M  V30 53 1 23 49
M  V30 54 1 24 50
M  V30 55 1 24 51
M  V30 56 1 26 52
M  V30 57 1 26 53
M  V30 58 1 27 54
M  V30 59 1 27 55
M  V30 60 1 28 56
M  V30 61 1 28 57
M  V30 62 1 29 58
M  V30 63 1 29 59
M  V30 64 1 29 60
M  V30 END BOND
M  V30 BEGIN COLLECTION
M  V30 MDLV30/STEABS ATOMS=(2 21 22)
M  V30 END COLLECTION
M  V30 END CTAB
M  END
>  <Column 1>
1716

>  <level_0>
1877

>  <index>
1877

>  <Unnamed: 0>
1877

>  <NO.>
1889

>  <Name>
mirisetron

>  <IUPAC_name>
1-cyclohexyl-n-[(1r-5s)-8-methyl-8-azabicyclo[3.2.1]octan-3-yl]-4-oxoquinoline-3-carboxamide

>  <SMILES>
CN1[C@H]2CC[C@@H]1CC(NC(=O)c1cn(C3CCCCC3)c3ccccc3c1=O)C2

>  <CID>
60931

>  <logBB>


>  <BBB+/BBB->
BBB+

>  <Inchi>
InChI=1S/C24H31N3O2/c1-26-18-11-12-19(26)14-16(13-18)25-24(29)21-15-27(17-7-3-2-4-8-17)22-10-6-5-9-20(22)23(21)28/h5-6-9-10-15-19H-2-4-7-8-11-14H2-1H3-(H-25-29)/t16?-18--19+

>  <threshold>
-1

>  <reference>
R1|R6|R24|R27|R30|

>  <group>
B

>  <Class>
1

>  <ABC>
23.34

>  <ABCGG>
17.99

>  <nAcid>
0

>  <nBase>
1

>  <nAromAtom>
10

>  <nAromBond>
11

>  <nAtom>
60

>  <nHeavyAtom>
29

>  <nSpiro>
0

>  <nBridgehead>
2

>  <nHetero>
5

>  <nN>
3

>  <nO>
2

>  <nF>
0

>  <BalabanJ>
1.28

>  <BertzCT>
961.74

>  <nBonds>
64

>  <nBondsO>
33

>  <nBondsS>
51

>  <nBondsD>
2

>  <nBondsT>
0

>  <nBondsA>
11

>  <nBondsM>
13

>  <nBondsKS>
58

>  <nBondsKD>
6

>  <RNCG>
0.17

>  <RPCG>
0.12

>  <FCSP3>
0.58

>  <SZ>
35.33

>  <Sm>
32.76

>  <Sv>
36.1

>  <Sse>
59.41

>  <Sp>
39.31

>  <Si>
67.73

>  <MZ>
0.59

>  <Mm>
0.55

>  <Mv>
0.6

>  <Mse>
0.99

>  <Mp>
0.66

>  <Mi>
1.13

>  <NsCH3>
1

>  <NdCH2>
0

>  <NssCH2>
9

>  <NtCH>
0

>  <NdsCH>
0

>  <NaaCH>
5

>  <NsssCH>
4

>  <NddC>
0

>  <NtsC>
0

>  <NdssC>
1

>  <NaasC>
1

>  <NaaaC>
2

>  <NssssC>
0

>  <NsNH3>
0

>  <NsNH2>
0

>  <NssNH2>
0

>  <NdNH>
0

>  <NssNH>
1

>  <NaaNH>
0

>  <NtN>
0

>  <NsssNH>
0

>  <NdsN>
0

>  <NaaN>
0

>  <NsssN>
1

>  <NddsN>
0

>  <NaasN>
1

>  <NssssN>
0

>  <NsOH>
0

>  <NdO>
2

>  <NssO>
0

>  <NaaO>
0

>  <NsF>
0

>  <NsSiH3>
0

>  <NssSiH2>
0

>  <NsssSiH>
0

>  <NssssSi>
0

>  <NsPH2>
0

>  <NssPH>
0

>  <NsssP>
0

>  <NdsssP>
0

>  <NsssssP>
0

>  <NsSH>
0

>  <NdS>
0

>  <NssS>
0

>  <NaaS>
0

>  <NdssS>
0

>  <NddssS>
0

>  <NsCl>
0

>  <NsBr>
0

>  <NsI>
0

>  <fragCpx>
277.05

>  <fMF>
0.43

>  <nHBAcc>
4

>  <nHBDon>
1

>  <Kier1>
20.88

>  <Kier2>
8.86

>  <Lipinski>
1

>  <GhoseFilter>
1

>  <FilterItLogS>
-4.36

>  <VMcGowan>
310.6

>  <LabuteASA>
171.63

>  <PEOE_VSA1>
14.78

>  <PEOE_VSA2>
9.59

>  <PEOE_VSA3>
0

>  <PEOE_VSA4>
0

>  <PEOE_VSA5>
0

>  <PEOE_VSA6>
31.4

>  <PEOE_VSA7>
57.71

>  <PEOE_VSA8>
35.75

>  <PEOE_VSA9>
5.52

>  <PEOE_VSA10>
5.56

>  <PEOE_VSA11>
0

>  <PEOE_VSA12>
5.43

>  <PEOE_VSA13>
5.91

>  <SMR_VSA1>
4.79

>  <SMR_VSA2>
0

>  <SMR_VSA3>
14.78

>  <SMR_VSA4>
0

>  <SMR_VSA5>
81.95

>  <SMR_VSA6>
7.05

>  <SMR_VSA7>
46.25

>  <SMR_VSA8>
0

>  <SMR_VSA9>
0

>  <SlogP_VSA1>
10.75

>  <SlogP_VSA2>
40.55

>  <SlogP_VSA3>
0

>  <SlogP_VSA4>
0

>  <SlogP_VSA5>
74.19

>  <SlogP_VSA6>
35.26

>  <SlogP_VSA7>
0

>  <SlogP_VSA8>
10.9

>  <SlogP_VSA9>
0

>  <SlogP_VSA10>
0

>  <SlogP_VSA11>
0

>  <EState_VSA1>
0

>  <EState_VSA2>
17.38

>  <EState_VSA3>
29.08

>  <EState_VSA4>
31.2

>  <EState_VSA5>
32.1

>  <EState_VSA6>
0

>  <EState_VSA7>
30.46

>  <EState_VSA8>
21.83

>  <EState_VSA9>
0

>  <EState_VSA10>
9.59

>  <VSA_EState1>
2.21

>  <VSA_EState2>
28.81

>  <VSA_EState3>
3.87

>  <VSA_EState4>
1.12

>  <VSA_EState5>
-0.2

>  <VSA_EState6>
9.43

>  <VSA_EState7>
12.21

>  <VSA_EState8>
0

>  <VSA_EState9>
2.2

>  <apol>
65.65

>  <bpol>
36.83

>  <nRing>
5

>  <nHRing>
3

>  <naRing>
2

>  <naHRing>
1

>  <nARing 2>
3

>  <nAHRing 2>
2

>  <nFRing>
2

>  <nFHRing>
2

>  <nFaRing>
1

>  <nFaHRing>
1

>  <nFARing 2>
1

>  <nFAHRing 2>
1

>  <nRot>
3

>  <SLogP>
3.86

>  <SMR>
115.39

>  <TopoPSA(NO)>
54.34

>  <TopoPSA>
54.34

>  <JGI1>
0.15

>  <JGI2>
0.07

>  <JGI3>
0.05

>  <JGI4>
0.04

>  <JGI5>
0.03

>  <Diameter>
13

>  <Radius>
7

>  <TMWC10>
140.29

>  <TSRW10>
79.33

>  <MW>
393.24

>  <AMW>
6.55

>  <WPath>
2187

>  <WPol>
51

>  <Zagreb1>
162

>  <Zagreb2>
197

>  <mZagreb2>
6.22

>  <yes>


>  <nAR-cont>
0.691115

>  <nHA-cont>
0.785905698

>  <MWHBN>
0.252139659

>  <MWHBN-cont>
0.956107418

>  <TPSA-cont>
0.620673057

>  <pka_cont>
0.97

>  <yes.1>


>  <BBB_SCORE>
4.637527939

>  <MMFF94 Energy>
47.287

$$$$
Compound 1441
Actelion Java MolfileCreator 2.0

  0  0  0  0  0  0              0 V3000
M  V30 BEGIN CTAB
M  V30 COUNTS 48 51 0 0 0
M  V30 BEGIN ATOM
M  V30 1 F 2.729 2.0061 -4.4174 0
M  V30 2 C 1.8261 1.885 -3.4351 0
M  V30 3 C 1.4518 0.6133 -3.0048 0
M  V30 4 C 1.2884 3.0274 -2.8605 0
M  V30 5 C 0.5194 0.4452 -1.9699 0
M  V30 6 C 0.3459 2.8954 -1.8456 0
M  V30 7 N 0.1701 -0.8211 -1.5255 0
M  V30 8 C -0.0472 1.615 -1.4167 0
M  V30 9 C 0.3002 -1.1775 -0.0852 0 CFG=2
M  V30 10 C -0.0768 -1.8807 -2.492 0
M  V30 11 C -1.1186 1.5113 -0.3793 0
M  V30 12 C 0.2249 0.0309 0.876 0
M  V30 13 C 1.6197 -1.9615 0.1409 0
M  V30 14 N -1.0205 0.7883 0.6906 0
M  V30 15 C -2.3856 2.2829 -0.5827 0
M  V30 16 N 1.6802 -2.6554 1.418 0
M  V30 17 C -2.9124 2.4954 -1.8631 0
M  V30 18 C -3.0682 2.7753 0.5364 0
M  V30 19 C 2.379 -2.1507 2.4924 0
M  V30 20 C -4.0974 3.2181 -2.0203 0
M  V30 21 C -4.252 3.4973 0.3751 0
M  V30 22 O 2.9841 -1.085 2.4467 0
M  V30 23 C 2.3437 -2.9711 3.6924 0
M  V30 24 C -4.7634 3.7213 -0.9026 0
M  V30 25 C 2.9898 -2.6317 4.8666 0
M  V30 26 C 1.7053 -4.2166 3.9727 0
M  V30 27 O 2.7931 -3.5708 5.8251 0
M  V30 28 C 2.0104 -4.532 5.2768 0
M  V30 29 H 1.9271 -0.2419 -3.4735 0
M  V30 30 H 1.6036 4.0066 -3.2061 0
M  V30 31 H -0.0804 3.7867 -1.3914 0
M  V30 32 H -0.5417 -1.8396 0.1595 0
M  V30 33 H -0.6814 -1.5159 -3.33 0
M  V30 34 H 0.8621 -2.2853 -2.8837 0
M  V30 35 H -0.6305 -2.7059 -2.0313 0
M  V30 36 H 0.2223 -0.3286 1.9112 0
M  V30 37 H 1.1036 0.6837 0.7926 0
M  V30 38 H 1.7284 -2.7449 -0.6169 0
M  V30 39 H 2.4834 -1.2949 0.0331 0
M  V30 40 H 1.1945 -3.535 1.5068 0
M  V30 41 H -2.4226 2.0895 -2.7438 0
M  V30 42 H -2.6772 2.5974 1.5358 0
M  V30 43 H -4.506 3.3814 -3.0143 0
M  V30 44 H -4.7759 3.8794 1.2476 0
M  V30 45 H -5.6875 4.2805 -1.0264 0
M  V30 46 H 3.6017 -1.7871 5.1555 0
M  V30 47 H 1.0946 -4.8199 3.3176 0
M  V30 48 H 1.7614 -5.359 5.9276 0
M  V30 END ATOM
M  V30 BEGIN BOND
M  V30 1 1 1 2
M  V30 2 2 2 3
M  V30 3 1 2 4
M  V30 4 1 3 5
M  V30 5 2 4 6
M  V30 6 1 5 7
M  V30 7 2 5 8
M  V30 8 1 7 9
M  V30 9 1 7 10
M  V30 10 1 8 11
M  V30 11 1 9 12
M  V30 12 1 9 13
M  V30 13 2 11 14
M  V30 14 1 11 15
M  V30 15 1 13 16
M  V30 16 2 15 17
M  V30 17 1 15 18
M  V30 18 1 16 19
M  V30 19 1 17 20
M  V30 20 2 18 21
M  V30 21 2 19 22
M  V30 22 1 19 23
M  V30 23 2 20 24
M  V30 24 2 23 25
M  V30 25 1 23 26
M  V30 26 1 25 27
M  V30 27 2 26 28
M  V30 28 1 6 8
M  V30 29 1 12 14
M  V30 30 1 21 24
M  V30 31 1 27 28
M  V30 32 1 3 29
M  V30 33 1 4 30
M  V30 34 1 6 31
M  V30 35 1 9 32
M  V30 36 1 10 33
M  V30 37 1 10 34
M  V30 38 1 10 35
M  V30 39 1 12 36
M  V30 40 1 12 37
M  V30 41 1 13 38
M  V30 42 1 13 39
M  V30 43 1 16 40
M  V30 44 1 17 41
M  V30 45 1 18 42
M  V30 46 1 20 43
M  V30 47 1 21 44
M  V30 48 1 24 45
M  V30 49 1 25 46
M  V30 50 1 26 47
M  V30 51 1 28 48
M  V30 END BOND
M  V30 BEGIN COLLECTION
M  V30 MDLV30/STERAC1 ATOMS=(1 9)
M  V30 END COLLECTION
M  V30 END CTAB
M  END
>  <Column 1>
1717

>  <level_0>
1878

>  <index>
1878

>  <Unnamed: 0>
1878

>  <NO.>
1890

>  <Name>
lufuradom

>  <IUPAC_name>
n-[(8-fluoro-1-methyl-5-phenyl-2-3-dihydro-1-4-benzodiazepin-2-yl)methyl]furan-3-carboxamide

>  <SMILES>
CN1c2cc(F)ccc2C(c2ccccc2)=NCC1CNC(=O)c1ccoc1

>  <CID>
3045400

>  <logBB>


>  <BBB+/BBB->
BBB+

>  <Inchi>
InChI=1S/C22H20FN3O2/c1-26-18(13-25-22(27)16-9-10-28-14-16)12-24-21(15-5-3-2-4-6-15)19-8-7-17(23)11-20(19)26/h2-11-14-18H-12-13H2-1H3-(H-25-27)

>  <threshold>
-1

>  <reference>
R1|R19|R6|R27|R27|R30|

>  <group>
B

>  <Class>
1

>  <ABC>
22.01

>  <ABCGG>
17.38

>  <nAcid>
0

>  <nBase>
0

>  <nAromAtom>
17

>  <nAromBond>
17

>  <nAtom>
48

>  <nHeavyAtom>
28

>  <nSpiro>
0

>  <nBridgehead>
0

>  <nHetero>
6

>  <nN>
3

>  <nO>
2

>  <nF>
1

>  <BalabanJ>
1.42

>  <BertzCT>
999.89

>  <nBonds>
51

>  <nBondsO>
31

>  <nBondsS>
32

>  <nBondsD>
2

>  <nBondsT>
0

>  <nBondsA>
17

>  <nBondsM>
19

>  <nBondsKS>
41

>  <nBondsKD>
10

>  <RNCG>
0.2

>  <RPCG>
0.11

>  <FCSP3>
0.18

>  <SZ>
33

>  <Sm>
31.42

>  <Sv>
31.77

>  <Sse>
48.49

>  <Sp>
33.26

>  <Si>
53.99

>  <MZ>
0.69

>  <Mm>
0.65

>  <Mv>
0.66

>  <Mse>
1.01

>  <Mp>
0.69

>  <Mi>
1.12

>  <NsCH3>
1

>  <NdCH2>
0

>  <NssCH2>
2

>  <NtCH>
0

>  <NdsCH>
0

>  <NaaCH>
11

>  <NsssCH>
1

>  <NddC>
0

>  <NtsC>
0

>  <NdssC>
2

>  <NaasC>
5

>  <NaaaC>
0

>  <NssssC>
0

>  <NsNH3>
0

>  <NsNH2>
0

>  <NssNH2>
0

>  <NdNH>
0

>  <NssNH>
1

>  <NaaNH>
0

>  <NtN>
0

>  <NsssNH>
0

>  <NdsN>
1

>  <NaaN>
0

>  <NsssN>
1

>  <NddsN>
0

>  <NaasN>
0

>  <NssssN>
0

>  <NsOH>
0

>  <NdO>
1

>  <NssO>
0

>  <NaaO>
1

>  <NsF>
1

>  <NsSiH3>
0

>  <NssSiH2>
0

>  <NsssSiH>
0

>  <NssssSi>
0

>  <NsPH2>
0

>  <NssPH>
0

>  <NsssP>
0

>  <NdsssP>
0

>  <NsssssP>
0

>  <NsSH>
0

>  <NdS>
0

>  <NssS>
0

>  <NaaS>
0

>  <NdssS>
0

>  <NddssS>
0

>  <NsCl>
0

>  <NsBr>
0

>  <NsI>
0

>  <fragCpx>
205.06

>  <fMF>
0.52

>  <nHBAcc>
4

>  <nHBDon>
1

>  <Kier1>
21.24

>  <Kier2>
9.87

>  <Lipinski>
1

>  <GhoseFilter>
1

>  <FilterItLogS>
-5.96

>  <VMcGowan>
277.84

>  <LabuteASA>
162.06

>  <PEOE_VSA1>
14.63

>  <PEOE_VSA2>
9.79

>  <PEOE_VSA3>
4.39

>  <PEOE_VSA4>
0

>  <PEOE_VSA5>
0

>  <PEOE_VSA6>
30.33

>  <PEOE_VSA7>
24.27

>  <PEOE_VSA8>
30.41

>  <PEOE_VSA9>
30.12

>  <PEOE_VSA10>
12.08

>  <PEOE_VSA11>
0

>  <PEOE_VSA12>
0

>  <PEOE_VSA13>
5.91

>  <SMR_VSA1>
13.6

>  <SMR_VSA2>
0

>  <SMR_VSA3>
5.32

>  <SMR_VSA4>
4.99

>  <SMR_VSA5>
6.04

>  <SMR_VSA6>
25.04

>  <SMR_VSA7>
89.63

>  <SMR_VSA8>
0

>  <SMR_VSA9>
0

>  <SlogP_VSA1>
10.22

>  <SlogP_VSA2>
37.8

>  <SlogP_VSA3>
0

>  <SlogP_VSA4>
5.82

>  <SlogP_VSA5>
21.48

>  <SlogP_VSA6>
76.53

>  <SlogP_VSA7>
0

>  <SlogP_VSA8>
0

>  <SlogP_VSA9>
0

>  <SlogP_VSA10>
10.08

>  <SlogP_VSA11>
0

>  <EState_VSA1>
0

>  <EState_VSA2>
17.77

>  <EState_VSA3>
18.65

>  <EState_VSA4>
22.53

>  <EState_VSA5>
24.66

>  <EState_VSA6>
12.13

>  <EState_VSA7>
42.28

>  <EState_VSA8>
5.32

>  <EState_VSA9>
9.41

>  <EState_VSA10>
9.18

>  <VSA_EState1>
18.97

>  <VSA_EState2>
19.04

>  <VSA_EState3>
2.91

>  <VSA_EState4>
3.9

>  <VSA_EState5>
-0.51

>  <VSA_EState6>
16.08

>  <VSA_EState7>
2.87

>  <VSA_EState8>
0.85

>  <VSA_EState9>
1.9

>  <apol>
55.54

>  <bpol>
27.2

>  <nRing>
4

>  <nHRing>
2

>  <naRing>
3

>  <naHRing>
1

>  <nARing 2>
1

>  <nAHRing 2>
1

>  <nFRing>
1

>  <nFHRing>
1

>  <nFaRing>
0

>  <nFaHRing>
0

>  <nFARing 2>
1

>  <nFAHRing 2>
1

>  <nRot>
4

>  <SLogP>
3.5

>  <SMR>
106.58

>  <TopoPSA(NO)>
57.84

>  <TopoPSA>
57.84

>  <JGI1>
0.15

>  <JGI2>
0.08

>  <JGI3>
0.04

>  <JGI4>
0.03

>  <JGI5>
0.02

>  <Diameter>
13

>  <Radius>
7

>  <TMWC10>
135.56

>  <TSRW10>
76.94

>  <MW>
377.15

>  <AMW>
7.86

>  <WPath>
2028

>  <WPol>
47

>  <Zagreb1>
148

>  <Zagreb2>
175

>  <mZagreb2>
6.17

>  <yes>


>  <nAR-cont>
0.816016

>  <nHA-cont>
0.82432561

>  <MWHBN>
0.257461887

>  <MWHBN-cont>
0.946364826

>  <TPSA-cont>
0.596240884

>  <pka_cont>
0.97

>  <yes.1>


>  <BBB_SCORE>
4.737370617

>  <MMFF94 Energy>
119.56

$$$$
Compound 1442
Actelion Java MolfileCreator 2.0

  0  0  0  0  0  0              0 V3000
M  V30 BEGIN CTAB
M  V30 COUNTS 54 56 0 0 0
M  V30 BEGIN ATOM
M  V30 1 Cl -1.9489 4.7962 5.6924 0
M  V30 2 C -1.4442 3.7248 4.4458 0
M  V30 3 C -1.0395 2.4342 4.7624 0
M  V30 4 C -1.4301 4.1573 3.1262 0
M  V30 5 C -0.625 1.5525 3.7461 0
M  V30 6 C -1.0174 3.2876 2.1127 0
M  V30 7 S -0.0837 -0.048 4.3424 0
M  V30 8 C -0.6262 1.9597 2.3919 0
M  V30 9 O -1.2973 -0.7732 4.6631 0
M  V30 10 O 0.9159 0.2005 5.3625 0
M  V30 11 N 0.6825 -0.893 3.0722 0
M  V30 12 C -0.1478 1.0315 1.2724 0 CFG=1
M  V30 13 C 1.7329 -0.1755 2.4031 0
M  V30 14 C 0.936 -2.3165 3.3854 0
M  V30 15 N -0.5046 1.5134 -0.083 0
M  V30 16 C 1.341 0.7977 1.4717 0
M  V30 17 C 3.0808 -0.3348 2.7346 0
M  V30 18 C -0.2907 0.4817 -1.1079 0
M  V30 19 C 2.3249 1.5897 0.8586 0
M  V30 20 C 4.0504 0.4433 2.1007 0
M  V30 21 C -0.7286 1.0289 -2.47 0
M  V30 22 C 3.6736 1.4007 1.1608 0
M  V30 23 C -0.4463 0.0668 -3.6285 0
M  V30 24 C -1.267 -1.2232 -3.5627 0
M  V30 25 C -1.0315 -2.0924 -4.7992 0
M  V30 26 C -1.8455 -3.379 -4.7364 0
M  V30 27 C -1.6206 -4.208 -5.9671 0
M  V30 28 O -2.3194 -4.2208 -6.9661 0
M  V30 29 O -0.5085 -4.9623 -5.8914 0
M  V30 30 H -1.0365 2.1099 5.8022 0
M  V30 31 H -1.7275 5.1728 2.8758 0
M  V30 32 H -0.9865 3.6738 1.0947 0
M  V30 33 H -0.7103 0.0957 1.3897 0
M  V30 34 H -0.011 -2.8368 3.559 0
M  V30 35 H 1.4194 -2.8139 2.5375 0
M  V30 36 H 1.5734 -2.4266 4.2681 0
M  V30 37 H -1.5014 1.7324 -0.0756 0
M  V30 38 H 3.3912 -1.0439 3.496 0
M  V30 39 H 0.7647 0.1955 -1.1627 0
M  V30 40 H -0.8747 -0.4114 -0.8607 0
M  V30 41 H 2.0388 2.3678 0.1533 0
M  V30 42 H 5.0998 0.3169 2.3559 0
M  V30 43 H -0.194 1.9667 -2.6707 0
M  V30 44 H -1.7984 1.2731 -2.4511 0
M  V30 45 H 4.4285 2.0182 0.68 0
M  V30 46 H 0.6232 -0.175 -3.653 0
M  V30 47 H -0.6733 0.5878 -4.567 0
M  V30 48 H -2.333 -0.9775 -3.4844 0
M  V30 49 H -0.9977 -1.795 -2.6677 0
M  V30 50 H 0.0355 -2.3327 -4.8845 0
M  V30 51 H -1.2986 -1.5321 -5.7041 0
M  V30 52 H -1.5872 -3.9749 -3.8534 0
M  V30 53 H -2.9178 -3.1621 -4.6657 0
M  V30 54 H -0.4805 -5.4315 -6.7517 0
M  V30 END ATOM
M  V30 BEGIN BOND
M  V30 1 1 1 2
M  V30 2 2 2 3
M  V30 3 1 2 4
M  V30 4 1 3 5
M  V30 5 2 4 6
M  V30 6 1 5 7
M  V30 7 2 5 8
M  V30 8 2 7 9
M  V30 9 2 7 10
M  V30 10 1 7 11
M  V30 11 1 8 12
M  V30 12 1 11 13
M  V30 13 1 11 14
M  V30 14 1 12 15
M  V30 15 1 12 16
M  V30 16 1 13 17
M  V30 17 1 15 18
M  V30 18 1 16 19
M  V30 19 2 17 20
M  V30 20 1 18 21
M  V30 21 2 19 22
M  V30 22 1 21 23
M  V30 23 1 23 24
M  V30 24 1 24 25
M  V30 25 1 25 26
M  V30 26 1 26 27
M  V30 27 2 27 28
M  V30 28 1 27 29
M  V30 29 1 6 8
M  V30 30 2 13 16
M  V30 31 1 20 22
M  V30 32 1 3 30
M  V30 33 1 4 31
M  V30 34 1 6 32
M  V30 35 1 12 33
M  V30 36 1 14 34
M  V30 37 1 14 35
M  V30 38 1 14 36
M  V30 39 1 15 37
M  V30 40 1 17 38
M  V30 41 1 18 39
M  V30 42 1 18 40
M  V30 43 1 19 41
M  V30 44 1 20 42
M  V30 45 1 21 43
M  V30 46 1 21 44
M  V30 47 1 22 45
M  V30 48 1 23 46
M  V30 49 1 23 47
M  V30 50 1 24 48
M  V30 51 1 24 49
M  V30 52 1 25 50
M  V30 53 1 25 51
M  V30 54 1 26 52
M  V30 55 1 26 53
M  V30 56 1 29 54
M  V30 END BOND
M  V30 BEGIN COLLECTION
M  V30 MDLV30/STERAC1 ATOMS=(1 12)
M  V30 END COLLECTION
M  V30 END CTAB
M  END
>  <Column 1>
1718

>  <level_0>
1879

>  <index>
1879

>  <Unnamed: 0>
1879

>  <NO.>
1891

>  <Name>
tianeptine

>  <IUPAC_name>
7-[(3-chloro-6-methyl-5-5-dioxo-11h-benzo[c][2-1]benzothiazepin-11-yl)amino]heptanoic acid

>  <SMILES>
CN1c2ccccc2C(NCCCCCCC(=O)O)c2ccc(Cl)cc2S1(=O)=O

>  <CID>
68870

>  <logBB>


>  <BBB+/BBB->
BBB+

>  <Inchi>
InChI=1S/C21H25ClN2O4S/c1-24-18-9-6-5-8-16(18)21(23-13-7-3-2-4-10-20(25)26)17-12-11-15(22)14-19(17)29(24-27)28/h5-6-8-9-11-12-14-21-23H-2-4-7-10-13H2-1H3-(H-25-26)

>  <threshold>
-1

>  <reference>
R1|R19|R6|R14|R23|R27|R27|R30|R37|

>  <group>
B

>  <Class>
1

>  <ABC>
22.35

>  <ABCGG>
17.59

>  <nAcid>
1

>  <nBase>
1

>  <nAromAtom>
12

>  <nAromBond>
12

>  <nAtom>
54

>  <nHeavyAtom>
29

>  <nSpiro>
0

>  <nBridgehead>
0

>  <nHetero>
8

>  <nN>
2

>  <nO>
4

>  <nF>
0

>  <BalabanJ>
1.66

>  <BertzCT>
993.93

>  <nBonds>
56

>  <nBondsO>
31

>  <nBondsS>
41

>  <nBondsD>
3

>  <nBondsT>
0

>  <nBondsA>
12

>  <nBondsM>
15

>  <nBondsKS>
47

>  <nBondsKD>
9

>  <RNCG>
0.21

>  <RPCG>
0.13

>  <FCSP3>
0.38

>  <SZ>
38.33

>  <Sm>
36.38

>  <Sv>
34.43

>  <Sse>
54.59

>  <Sp>
37.26

>  <Si>
60.68

>  <MZ>
0.71

>  <Mm>
0.67

>  <Mv>
0.64

>  <Mse>
1.01

>  <Mp>
0.69

>  <Mi>
1.12

>  <NsCH3>
1

>  <NdCH2>
0

>  <NssCH2>
6

>  <NtCH>
0

>  <NdsCH>
0

>  <NaaCH>
7

>  <NsssCH>
1

>  <NddC>
0

>  <NtsC>
0

>  <NdssC>
1

>  <NaasC>
5

>  <NaaaC>
0

>  <NssssC>
0

>  <NsNH3>
0

>  <NsNH2>
0

>  <NssNH2>
0

>  <NdNH>
0

>  <NssNH>
1

>  <NaaNH>
0

>  <NtN>
0

>  <NsssNH>
0

>  <NdsN>
0

>  <NaaN>
0

>  <NsssN>
1

>  <NddsN>
0

>  <NaasN>
0

>  <NssssN>
0

>  <NsOH>
1

>  <NdO>
3

>  <NssO>
0

>  <NaaO>
0

>  <NsF>
0

>  <NsSiH3>
0

>  <NssSiH2>
0

>  <NsssSiH>
0

>  <NssssSi>
0

>  <NsPH2>
0

>  <NssPH>
0

>  <NsssP>
0

>  <NdsssP>
0

>  <NsssssP>
0

>  <NsSH>
0

>  <NdS>
0

>  <NssS>
0

>  <NaaS>
0

>  <NdssS>
0

>  <NddssS>
1

>  <NsCl>
1

>  <NsBr>
0

>  <NsI>
0

>  <fragCpx>
149.08

>  <fMF>
0.28

>  <nHBAcc>
4

>  <nHBDon>
2

>  <Kier1>
23.66

>  <Kier2>
10.54

>  <Lipinski>
1

>  <GhoseFilter>
1

>  <FilterItLogS>
-5.9

>  <VMcGowan>
316.1

>  <LabuteASA>
176.1

>  <PEOE_VSA1>
10.42

>  <PEOE_VSA2>
9.1

>  <PEOE_VSA3>
8.42

>  <PEOE_VSA4>
0

>  <PEOE_VSA5>
0

>  <PEOE_VSA6>
48.71

>  <PEOE_VSA7>
48.71

>  <PEOE_VSA8>
18.49

>  <PEOE_VSA9>
16.62

>  <PEOE_VSA10>
0

>  <PEOE_VSA11>
0

>  <PEOE_VSA12>
0

>  <PEOE_VSA13>
10.02

>  <SMR_VSA1>
18.32

>  <SMR_VSA2>
0

>  <SMR_VSA3>
5.32

>  <SMR_VSA4>
0

>  <SMR_VSA5>
43.04

>  <SMR_VSA6>
17.9

>  <SMR_VSA7>
58.61

>  <SMR_VSA8>
0

>  <SMR_VSA9>
0

>  <SlogP_VSA1>
9.62

>  <SlogP_VSA2>
33.09

>  <SlogP_VSA3>
14.82

>  <SlogP_VSA4>
0

>  <SlogP_VSA5>
49.27

>  <SlogP_VSA6>
47.36

>  <SlogP_VSA7>
5.02

>  <SlogP_VSA8>
0

>  <SlogP_VSA9>
0

>  <SlogP_VSA10>
5.69

>  <SlogP_VSA11>
0

>  <EState_VSA1>
15.99

>  <EState_VSA2>
17.36

>  <EState_VSA3>
29.24

>  <EState_VSA4>
24.83

>  <EState_VSA5>
10.37

>  <EState_VSA6>
25.25

>  <EState_VSA7>
18.2

>  <EState_VSA8>
5.32

>  <EState_VSA9>
16.71

>  <EState_VSA10>
13.21

>  <VSA_EState1>
27.67

>  <VSA_EState2>
10.8

>  <VSA_EState3>
12.59

>  <VSA_EState4>
2.21

>  <VSA_EState5>
-0.77

>  <VSA_EState6>
12.19

>  <VSA_EState7>
3.52

>  <VSA_EState8>
0.69

>  <VSA_EState9>
-2.16

>  <apol>
62.23

>  <bpol>
35.39

>  <nRing>
3

>  <nHRing>
1

>  <naRing>
2

>  <naHRing>
0

>  <nARing 2>
1

>  <nAHRing 2>
1

>  <nFRing>
1

>  <nFHRing>
1

>  <nFaRing>
0

>  <nFaHRing>
0

>  <nFARing 2>
1

>  <nFAHRing 2>
1

>  <nRot>
8

>  <SLogP>
4.19

>  <SMR>
114.05

>  <TopoPSA(NO)>
86.71

>  <TopoPSA>
95.09

>  <JGI1>
0.19

>  <JGI2>
0.09

>  <JGI3>
0.05

>  <JGI4>
0.05

>  <JGI5>
0.02

>  <Diameter>
14

>  <Radius>
7

>  <TMWC10>
137.41

>  <TSRW10>
72.93

>  <MW>
436.12

>  <AMW>
8.08

>  <WPath>
2308

>  <WPol>
52

>  <Zagreb1>
150

>  <Zagreb2>
177

>  <mZagreb2>
6.39

>  <yes>


>  <nAR-cont>
0.816016

>  <nHA-cont>
0.785905698

>  <MWHBN>
0.28730835

>  <MWHBN-cont>
0.876925131

>  <TPSA-cont>
0.336212753

>  <pka_cont>
0.97

>  <yes.1>


>  <BBB_SCORE>
4.074734899

>  <MMFF94 Energy>
-15.749

$$$$
Compound 1443
Actelion Java MolfileCreator 2.0

  0  0  0  0  0  0              0 V3000
M  V30 BEGIN CTAB
M  V30 COUNTS 38 40 0 0 0
M  V30 BEGIN ATOM
M  V30 1 Cl -2.5366 3.3559 -0.327 0
M  V30 2 C -1.5931 3.025 1.0807 0
M  V30 3 C -0.8299 1.8616 1.2218 0
M  V30 4 C -1.5616 3.9936 2.0888 0
M  V30 5 C -0.833 0.7846 0.2016 0
M  V30 6 C -0.0449 1.6654 2.3667 0
M  V30 7 C -0.7775 3.7992 3.2291 0
M  V30 8 N -1.9311 0.1249 0.0346 0
M  V30 9 C 0.4389 0.5308 -0.5324 0
M  V30 10 C -0.0197 2.6367 3.3677 0
M  V30 11 C -1.8837 -0.9894 -0.9276 0
M  V30 12 C 0.9767 -0.7694 -0.6471 0
M  V30 13 C 1.0886 1.6478 -1.0928 0
M  V30 14 C -1.0685 -2.1981 -0.392 0 CFG=1
M  V30 15 N 0.3681 -1.899 -0.0928 0
M  V30 16 C 2.2001 -0.8771 -1.3398 0
M  V30 17 C 2.2928 1.4967 -1.771 0
M  V30 18 Cl -1.8115 -2.7363 1.1786 0
M  V30 19 C -1.2071 -3.378 -1.4002 0
M  V30 20 C 1.2319 -2.9846 0.3652 0
M  V30 21 C 2.8495 0.2325 -1.8935 0
M  V30 22 O -0.6908 -3.0711 -2.6997 0
M  V30 23 H -2.1463 4.9051 1.9914 0
M  V30 24 H 0.53 0.7497 2.4865 0
M  V30 25 H -0.7615 4.5547 4.0114 0
M  V30 26 H 0.5831 2.4818 4.2593 0
M  V30 27 H -1.5188 -0.644 -1.904 0
M  V30 28 H -2.9214 -1.3006 -1.105 0
M  V30 29 H 0.6524 2.6407 -1.0178 0
M  V30 30 H 2.6649 -1.8478 -1.4901 0
M  V30 31 H 2.788 2.3598 -2.2075 0
M  V30 32 H -0.6854 -4.2719 -1.0417 0
M  V30 33 H -2.2634 -3.6433 -1.5279 0
M  V30 34 H 0.7101 -3.6768 1.0325 0
M  V30 35 H 1.61 -3.5732 -0.4777 0
M  V30 36 H 2.0835 -2.5948 0.9353 0
M  V30 37 H 3.7857 0.0985 -2.4294 0
M  V30 38 H -0.8026 -3.8664 -3.2478 0
M  V30 END ATOM
M  V30 BEGIN BOND
M  V30 1 1 1 2
M  V30 2 2 2 3
M  V30 3 1 2 4
M  V30 4 1 3 5
M  V30 5 1 3 6
M  V30 6 2 4 7
M  V30 7 2 5 8
M  V30 8 1 5 9
M  V30 9 2 6 10
M  V30 10 1 8 11
M  V30 11 2 9 12
M  V30 12 1 9 13
M  V30 13 1 11 14
M  V30 14 1 12 15
M  V30 15 1 12 16
M  V30 16 2 13 17
M  V30 17 1 14 18
M  V30 18 1 14 19
M  V30 19 1 15 20
M  V30 20 2 16 21
M  V30 21 1 19 22
M  V30 22 1 7 10
M  V30 23 1 14 15
M  V30 24 1 17 21
M  V30 25 1 4 23
M  V30 26 1 6 24
M  V30 27 1 7 25
M  V30 28 1 10 26
M  V30 29 1 11 27
M  V30 30 1 11 28
M  V30 31 1 13 29
M  V30 32 1 16 30
M  V30 33 1 17 31
M  V30 34 1 19 32
M  V30 35 1 19 33
M  V30 36 1 20 34
M  V30 37 1 20 35
M  V30 38 1 20 36
M  V30 39 1 21 37
M  V30 40 1 22 38
M  V30 END BOND
M  V30 BEGIN COLLECTION
M  V30 MDLV30/STERAC1 ATOMS=(1 14)
M  V30 END COLLECTION
M  V30 END CTAB
M  END
>  <Column 1>
1719

>  <level_0>
1880

>  <index>
1880

>  <Unnamed: 0>
1880

>  <NO.>
1892

>  <Name>
tuclazepam

>  <IUPAC_name>
[2-chloro-5-(2-chlorophenyl)-1-methyl-3h-1-4-benzodiazepin-2-yl]methanol

>  <SMILES>
CN1c2ccccc2C(c2ccccc2Cl)=NCC1(Cl)CO

>  <CID>
3050405

>  <logBB>


>  <BBB+/BBB->
BBB+

>  <Inchi>
InChI=1S/C17H16Cl2N2O/c1-21-15-9-5-3-7-13(15)16(20-10-17(21-19)11-22)12-6-2-4-8-14(12)18/h2-9-22H-10-11H2-1H3

>  <threshold>
-1

>  <reference>
R1|R13|R27|R30|

>  <group>
B

>  <Class>
1

>  <ABC>
17.08

>  <ABCGG>
14.41

>  <nAcid>
0

>  <nBase>
0

>  <nAromAtom>
12

>  <nAromBond>
12

>  <nAtom>
38

>  <nHeavyAtom>
22

>  <nSpiro>
0

>  <nBridgehead>
0

>  <nHetero>
5

>  <nN>
2

>  <nO>
1

>  <nF>
0

>  <BalabanJ>
1.86

>  <BertzCT>
732.1

>  <nBonds>
40

>  <nBondsO>
24

>  <nBondsS>
27

>  <nBondsD>
1

>  <nBondsT>
0

>  <nBondsA>
12

>  <nBondsM>
13

>  <nBondsKS>
33

>  <nBondsKD>
7

>  <RNCG>
0.24

>  <RPCG>
0.13

>  <FCSP3>
0.24

>  <SZ>
29

>  <Sm>
27.91

>  <Sv>
25.75

>  <Sse>
38.29

>  <Sp>
27.8

>  <Si>
42.42

>  <MZ>
0.76

>  <Mm>
0.73

>  <Mv>
0.68

>  <Mse>
1.01

>  <Mp>
0.73

>  <Mi>
1.12

>  <NsCH3>
1

>  <NdCH2>
0

>  <NssCH2>
2

>  <NtCH>
0

>  <NdsCH>
0

>  <NaaCH>
8

>  <NsssCH>
0

>  <NddC>
0

>  <NtsC>
0

>  <NdssC>
1

>  <NaasC>
4

>  <NaaaC>
0

>  <NssssC>
1

>  <NsNH3>
0

>  <NsNH2>
0

>  <NssNH2>
0

>  <NdNH>
0

>  <NssNH>
0

>  <NaaNH>
0

>  <NtN>
0

>  <NsssNH>
0

>  <NdsN>
1

>  <NaaN>
0

>  <NsssN>
1

>  <NddsN>
0

>  <NaasN>
0

>  <NssssN>
0

>  <NsOH>
1

>  <NdO>
0

>  <NssO>
0

>  <NaaO>
0

>  <NsF>
0

>  <NsSiH3>
0

>  <NssSiH2>
0

>  <NsssSiH>
0

>  <NssssSi>
0

>  <NsPH2>
0

>  <NssPH>
0

>  <NsssP>
0

>  <NdsssP>
0

>  <NsssssP>
0

>  <NsSH>
0

>  <NdS>
0

>  <NssS>
0

>  <NaaS>
0

>  <NdssS>
0

>  <NddssS>
0

>  <NsCl>
2

>  <NsBr>
0

>  <NsI>
0

>  <fragCpx>
114.05

>  <fMF>
0.45

>  <nHBAcc>
3

>  <nHBDon>
1

>  <Kier1>
16.84

>  <Kier2>
6.86

>  <Lipinski>
1

>  <GhoseFilter>
1

>  <FilterItLogS>
-5.31

>  <VMcGowan>
238.02

>  <LabuteASA>
139.36

>  <PEOE_VSA1>
10.01

>  <PEOE_VSA2>
4.99

>  <PEOE_VSA3>
0

>  <PEOE_VSA4>
0

>  <PEOE_VSA5>
0

>  <PEOE_VSA6>
59.6

>  <PEOE_VSA7>
12.13

>  <PEOE_VSA8>
28.88

>  <PEOE_VSA9>
18.86

>  <PEOE_VSA10>
0

>  <PEOE_VSA11>
5

>  <PEOE_VSA12>
0

>  <PEOE_VSA13>
0

>  <SMR_VSA1>
5.11

>  <SMR_VSA2>
0

>  <SMR_VSA3>
0

>  <SMR_VSA4>
4.99

>  <SMR_VSA5>
5

>  <SMR_VSA6>
25.1

>  <SMR_VSA7>
64.68

>  <SMR_VSA8>
0

>  <SMR_VSA9>
0

>  <SlogP_VSA1>
4.9

>  <SlogP_VSA2>
36.02

>  <SlogP_VSA3>
0

>  <SlogP_VSA4>
0

>  <SlogP_VSA5>
11.13

>  <SlogP_VSA6>
53.52

>  <SlogP_VSA7>
5.02

>  <SlogP_VSA8>
0

>  <SlogP_VSA9>
0

>  <SlogP_VSA10>
5.69

>  <SlogP_VSA11>
0

>  <EState_VSA1>
5

>  <EState_VSA2>
13.15

>  <EState_VSA3>
5.02

>  <EState_VSA4>
22.53

>  <EState_VSA5>
0

>  <EState_VSA6>
0

>  <EState_VSA7>
60.48

>  <EState_VSA8>
4.99

>  <EState_VSA9>
23.2

>  <EState_VSA10>
5.11

>  <VSA_EState1>
0

>  <VSA_EState2>
5.58

>  <VSA_EState3>
10.36

>  <VSA_EState4>
3.53

>  <VSA_EState5>
0

>  <VSA_EState6>
15.48

>  <VSA_EState7>
0

>  <VSA_EState8>
0.08

>  <VSA_EState9>
1.87

>  <apol>
46.42

>  <bpol>
19.92

>  <nRing>
3

>  <nHRing>
1

>  <naRing>
2

>  <naHRing>
0

>  <nARing 2>
1

>  <nAHRing 2>
1

>  <nFRing>
1

>  <nFHRing>
1

>  <nFaRing>
0

>  <nFaHRing>
0

>  <nFARing 2>
1

>  <nFAHRing 2>
1

>  <nRot>
2

>  <SLogP>
3.55

>  <SMR>
92.47

>  <TopoPSA(NO)>
35.83

>  <TopoPSA>
35.83

>  <JGI1>
0.19

>  <JGI2>
0.11

>  <JGI3>
0.06

>  <JGI4>
0.04

>  <JGI5>
0.03

>  <Diameter>
9

>  <Radius>
5

>  <TMWC10>
121.45

>  <TSRW10>
64.75

>  <MW>
334.06

>  <AMW>
8.79

>  <WPath>
920

>  <WPol>
43

>  <Zagreb1>
118

>  <Zagreb2>
143

>  <mZagreb2>
4.89

>  <yes>


>  <nAR-cont>
0.816016

>  <nHA-cont>
0.983774276

>  <MWHBN>
0.218850606

>  <MWHBN-cont>
0.995661009

>  <TPSA-cont>
0.749884351

>  <pka_cont>
0.97

>  <yes.1>


>  <BBB_SCORE>
5.278050491

>  <MMFF94 Energy>
182.25

$$$$
Compound 1444
Actelion Java MolfileCreator 2.0

  0  0  0  0  0  0              0 V3000
M  V30 BEGIN CTAB
M  V30 COUNTS 48 51 0 0 0
M  V30 BEGIN ATOM
M  V30 1 S -0.6491 -3.4113 3.818 0
M  V30 2 C 0.5575 -2.2152 3.6351 0
M  V30 3 C -0.5442 -3.8422 2.1704 0
M  V30 4 C 1.0317 -2.1087 2.3377 0
M  V30 5 C 0.3835 -3.0792 1.4956 0
M  V30 6 C 2.0619 -1.1306 1.9733 0
M  V30 7 O 2.7091 -0.521 2.82 0
M  V30 8 N 2.2279 -0.9453 0.6262 0
M  V30 9 C 3.1368 0.026 0.0466 0
M  V30 10 C 2.4027 1.116 -0.7866 0 CFG=2
M  V30 11 N 1.4043 1.8804 0.0253 0
M  V30 12 C 1.8183 0.4672 -2.0686 0
M  V30 13 C 0.2353 2.3441 -0.5831 0
M  V30 14 C 1.9001 2.5941 1.202 0
M  V30 15 N 0.7472 -0.4917 -1.7448 0
M  V30 16 C -0.648 1.4897 -1.2769 0
M  V30 17 C -0.1343 3.7013 -0.5169 0
M  V30 18 C -0.3809 0.0254 -1.3715 0
M  V30 19 C -1.819 1.9748 -1.8883 0
M  V30 20 C -1.3028 4.1868 -1.1169 0
M  V30 21 C -1.4788 -0.8967 -0.9815 0
M  V30 22 C -2.1443 3.324 -1.806 0
M  V30 23 C -1.8341 -1.964 -1.8053 0
M  V30 24 C -2.1421 -0.7098 0.2383 0
M  V30 25 F -1.2366 -2.1566 -2.99 0
M  V30 26 C -2.8502 -2.839 -1.4272 0
M  V30 27 C -3.1596 -1.5881 0.6179 0
M  V30 28 C -3.5141 -2.6512 -0.2142 0
M  V30 29 H 0.8663 -1.628 4.4905 0
M  V30 30 H -1.1658 -4.6318 1.7713 0
M  V30 31 H 0.5863 -3.2208 0.441 0
M  V30 32 H 1.5762 -1.3626 -0.0304 0
M  V30 33 H 3.8207 -0.535 -0.6003 0
M  V30 34 H 3.7512 0.4799 0.8295 0
M  V30 35 H 3.1633 1.8339 -1.1223 0
M  V30 36 H 2.6102 -0.0833 -2.5908 0
M  V30 37 H 1.4764 1.2236 -2.787 0
M  V30 38 H 1.0795 2.8692 1.875 0
M  V30 39 H 2.442 3.4993 0.9072 0
M  V30 40 H 2.5825 1.9823 1.7951 0
M  V30 41 H 0.5007 4.4223 -0.0089 0
M  V30 42 H -2.4763 1.3051 -2.4374 0
M  V30 43 H -1.5452 5.2446 -1.048 0
M  V30 44 H -3.0476 3.7002 -2.279 0
M  V30 45 H -1.8566 0.0991 0.9074 0
M  V30 46 H -3.1186 -3.6608 -2.0838 0
M  V30 47 H -3.6668 -1.4496 1.5705 0
M  V30 48 H -4.3049 -3.3351 0.085 0
M  V30 END ATOM
M  V30 BEGIN BOND
M  V30 1 1 1 2
M  V30 2 1 1 3
M  V30 3 2 2 4
M  V30 4 2 3 5
M  V30 5 1 4 6
M  V30 6 2 6 7
M  V30 7 1 6 8
M  V30 8 1 8 9
M  V30 9 1 9 10
M  V30 10 1 10 11
M  V30 11 1 10 12
M  V30 12 1 11 13
M  V30 13 1 11 14
M  V30 14 1 12 15
M  V30 15 2 13 16
M  V30 16 1 13 17
M  V30 17 2 15 18
M  V30 18 1 16 19
M  V30 19 2 17 20
M  V30 20 1 18 21
M  V30 21 2 19 22
M  V30 22 2 21 23
M  V30 23 1 21 24
M  V30 24 1 23 25
M  V30 25 1 23 26
M  V30 26 2 24 27
M  V30 27 2 26 28
M  V30 28 1 4 5
M  V30 29 1 16 18
M  V30 30 1 20 22
M  V30 31 1 27 28
M  V30 32 1 2 29
M  V30 33 1 3 30
M  V30 34 1 5 31
M  V30 35 1 8 32
M  V30 36 1 9 33
M  V30 37 1 9 34
M  V30 38 1 10 35
M  V30 39 1 12 36
M  V30 40 1 12 37
M  V30 41 1 14 38
M  V30 42 1 14 39
M  V30 43 1 14 40
M  V30 44 1 17 41
M  V30 45 1 19 42
M  V30 46 1 20 43
M  V30 47 1 22 44
M  V30 48 1 24 45
M  V30 49 1 26 46
M  V30 50 1 27 47
M  V30 51 1 28 48
M  V30 END BOND
M  V30 BEGIN COLLECTION
M  V30 MDLV30/STERAC1 ATOMS=(1 10)
M  V30 END COLLECTION
M  V30 END CTAB
M  END
>  <Column 1>
1720

>  <level_0>
1881

>  <index>
1881

>  <Unnamed: 0>
1881

>  <NO.>
1893

>  <Name>
tifluadom

>  <IUPAC_name>
n-[[5-(2-fluorophenyl)-1-methyl-2-3-dihydro-1-4-benzodiazepin-2-yl]methyl]thiophene-3-carboxamide

>  <SMILES>
CN1c2ccccc2C(c2ccccc2F)=NCC1CNC(=O)c1ccsc1

>  <CID>
115208

>  <logBB>


>  <BBB+/BBB->
BBB+

>  <Inchi>
InChI=1S/C22H20FN3OS/c1-26-16(13-25-22(27)15-10-11-28-14-15)12-24-21(17-6-2-4-8-19(17)23)18-7-3-5-9-20(18)26/h2-11-14-16H-12-13H2-1H3-(H-25-27)

>  <threshold>
-1

>  <reference>
R1|R7|R19|R28|R27|R27|R29|R30|

>  <group>
B

>  <Class>
1

>  <ABC>
21.97

>  <ABCGG>
17.49

>  <nAcid>
0

>  <nBase>
0

>  <nAromAtom>
17

>  <nAromBond>
17

>  <nAtom>
48

>  <nHeavyAtom>
28

>  <nSpiro>
0

>  <nBridgehead>
0

>  <nHetero>
6

>  <nN>
3

>  <nO>
1

>  <nF>
1

>  <BalabanJ>
1.42

>  <BertzCT>
1016.14

>  <nBonds>
51

>  <nBondsO>
31

>  <nBondsS>
32

>  <nBondsD>
2

>  <nBondsT>
0

>  <nBondsA>
17

>  <nBondsM>
19

>  <nBondsKS>
41

>  <nBondsKD>
10

>  <RNCG>
0.18

>  <RPCG>
0.12

>  <FCSP3>
0.18

>  <SZ>
34.33

>  <Sm>
32.76

>  <Sv>
32.24

>  <Sse>
48.23

>  <Sp>
34.51

>  <Si>
53.7

>  <MZ>
0.72

>  <Mm>
0.68

>  <Mv>
0.67

>  <Mse>
1

>  <Mp>
0.72

>  <Mi>
1.12

>  <NsCH3>
1

>  <NdCH2>
0

>  <NssCH2>
2

>  <NtCH>
0

>  <NdsCH>
0

>  <NaaCH>
11

>  <NsssCH>
1

>  <NddC>
0

>  <NtsC>
0

>  <NdssC>
2

>  <NaasC>
5

>  <NaaaC>
0

>  <NssssC>
0

>  <NsNH3>
0

>  <NsNH2>
0

>  <NssNH2>
0

>  <NdNH>
0

>  <NssNH>
1

>  <NaaNH>
0

>  <NtN>
0

>  <NsssNH>
0

>  <NdsN>
1

>  <NaaN>
0

>  <NsssN>
1

>  <NddsN>
0

>  <NaasN>
0

>  <NssssN>
0

>  <NsOH>
0

>  <NdO>
1

>  <NssO>
0

>  <NaaO>
0

>  <NsF>
1

>  <NsSiH3>
0

>  <NssSiH2>
0

>  <NsssSiH>
0

>  <NssssSi>
0

>  <NsPH2>
0

>  <NssPH>
0

>  <NsssP>
0

>  <NdsssP>
0

>  <NsssssP>
0

>  <NsSH>
0

>  <NdS>
0

>  <NssS>
0

>  <NaaS>
1

>  <NdssS>
0

>  <NddssS>
0

>  <NsCl>
0

>  <NsBr>
0

>  <NsI>
0

>  <fragCpx>
205.06

>  <fMF>
0.52

>  <nHBAcc>
4

>  <nHBDon>
1

>  <Kier1>
21.24

>  <Kier2>
9.87

>  <Lipinski>
1

>  <GhoseFilter>
1

>  <FilterItLogS>
-6

>  <VMcGowan>
288.32

>  <LabuteASA>
166.9

>  <PEOE_VSA1>
10.22

>  <PEOE_VSA2>
9.79

>  <PEOE_VSA3>
4.39

>  <PEOE_VSA4>
11.34

>  <PEOE_VSA5>
0

>  <PEOE_VSA6>
30.33

>  <PEOE_VSA7>
29.65

>  <PEOE_VSA8>
41.35

>  <PEOE_VSA9>
18.3

>  <PEOE_VSA10>
5.82

>  <PEOE_VSA11>
0

>  <PEOE_VSA12>
0

>  <PEOE_VSA13>
5.91

>  <SMR_VSA1>
9.18

>  <SMR_VSA2>
0

>  <SMR_VSA3>
5.32

>  <SMR_VSA4>
4.99

>  <SMR_VSA5>
6.04

>  <SMR_VSA6>
25.04

>  <SMR_VSA7>
87.87

>  <SMR_VSA8>
0

>  <SMR_VSA9>
0

>  <SlogP_VSA1>
10.22

>  <SlogP_VSA2>
37.8

>  <SlogP_VSA3>
0

>  <SlogP_VSA4>
5.82

>  <SlogP_VSA5>
21.48

>  <SlogP_VSA6>
70.35

>  <SlogP_VSA7>
0

>  <SlogP_VSA8>
0

>  <SlogP_VSA9>
0

>  <SlogP_VSA10>
10.08

>  <SlogP_VSA11>
0

>  <EState_VSA1>
0

>  <EState_VSA2>
17.77

>  <EState_VSA3>
29.93

>  <EState_VSA4>
11.25

>  <EState_VSA5>
17.4

>  <EState_VSA6>
18.2

>  <EState_VSA7>
48.14

>  <EState_VSA8>
10.22

>  <EState_VSA9>
4.99

>  <EState_VSA10>
9.18

>  <VSA_EState1>
14.46

>  <VSA_EState2>
19.17

>  <VSA_EState3>
6.7

>  <VSA_EState4>
3.66

>  <VSA_EState5>
-0.38

>  <VSA_EState6>
16.33

>  <VSA_EState7>
0

>  <VSA_EState8>
0.91

>  <VSA_EState9>
1.99

>  <apol>
57.63

>  <bpol>
27.93

>  <nRing>
4

>  <nHRing>
2

>  <naRing>
3

>  <naHRing>
1

>  <nARing 2>
1

>  <nAHRing 2>
1

>  <nFRing>
1

>  <nFHRing>
1

>  <nFaRing>
0

>  <nFaHRing>
0

>  <nFARing 2>
1

>  <nFAHRing 2>
1

>  <nRot>
4

>  <SLogP>
3.97

>  <SMR>
112.19

>  <TopoPSA(NO)>
44.7

>  <TopoPSA>
72.94

>  <JGI1>
0.13

>  <JGI2>
0.09

>  <JGI3>
0.04

>  <JGI4>
0.03

>  <JGI5>
0.02

>  <Diameter>
13

>  <Radius>
7

>  <TMWC10>
135.65

>  <TSRW10>
76.98

>  <MW>
393.13

>  <AMW>
8.19

>  <WPath>
2025

>  <WPol>
48

>  <Zagreb1>
148

>  <Zagreb2>
176

>  <mZagreb2>
6.19

>  <yes>


>  <nAR-cont>
0.816016

>  <nHA-cont>
0.82432561

>  <MWHBN>
0.252174931

>  <MWHBN-cont>
0.956045722

>  <TPSA-cont>
0.490833507

>  <pka_cont>
0.97

>  <yes.1>


>  <BBB_SCORE>
4.541077207

>  <MMFF94 Energy>
123.48

$$$$
Compound 1445
Actelion Java MolfileCreator 2.0

  0  0  0  0  0  0              0 V3000
M  V30 BEGIN CTAB
M  V30 COUNTS 32 33 0 0 0
M  V30 BEGIN ATOM
M  V30 1 N 0.1568 -0.4705 3.4545 0
M  V30 2 C -0.4529 -1.004 2.4416 0
M  V30 3 C -0.0968 0.9164 3.8052 0
M  V30 4 N -0.1423 -2.3168 2.1966 0
M  V30 5 C -1.4563 -0.2715 1.545 0
M  V30 6 C -0.5805 -3.1367 1.1027 0
M  V30 7 C -0.929 0.0811 0.1698 0
M  V30 8 C 0.3929 0.5075 -0.0294 0
M  V30 9 C -1.7934 0.0408 -0.9312 0
M  V30 10 C 0.8641 0.8585 -1.3065 0
M  V30 11 C -1.3406 0.3883 -2.2063 0
M  V30 12 C -0.0145 0.7961 -2.4103 0
M  V30 13 C 2.191 1.2713 -1.5089 0
M  V30 14 C 0.4568 1.1475 -3.6858 0
M  V30 15 C 2.6452 1.6168 -2.7826 0
M  V30 16 C 1.779 1.5549 -3.8701 0
M  V30 17 H 0.577 1.2044 4.6184 0
M  V30 18 H -1.12 1.0544 4.1687 0
M  V30 19 H 0.1007 1.5958 2.9705 0
M  V30 20 H 0.5365 -2.7104 2.8388 0
M  V30 21 H -1.8226 0.6439 2.0171 0
M  V30 22 H -2.3294 -0.9288 1.4458 0
M  V30 23 H -0.1956 -2.7609 0.1509 0
M  V30 24 H -0.2069 -4.1569 1.2332 0
M  V30 25 H -1.6723 -3.1857 1.0574 0
M  V30 26 H 1.0734 0.5629 0.8192 0
M  V30 27 H -2.8309 -0.2615 -0.806 0
M  V30 28 H -2.0353 0.342 -3.0418 0
M  V30 29 H 2.8824 1.3256 -0.6708 0
M  V30 30 H -0.2057 1.1068 -4.5472 0
M  V30 31 H 3.6749 1.9343 -2.9236 0
M  V30 32 H 2.1309 1.8244 -4.8622 0
M  V30 END ATOM
M  V30 BEGIN BOND
M  V30 1 2 1 2
M  V30 2 1 1 3
M  V30 3 1 2 4
M  V30 4 1 2 5
M  V30 5 1 4 6
M  V30 6 1 5 7
M  V30 7 2 7 8
M  V30 8 1 7 9
M  V30 9 1 8 10
M  V30 10 2 9 11
M  V30 11 1 10 12
M  V30 12 2 10 13
M  V30 13 2 12 14
M  V30 14 1 13 15
M  V30 15 1 14 16
M  V30 16 1 11 12
M  V30 17 2 15 16
M  V30 18 1 3 17
M  V30 19 1 3 18
M  V30 20 1 3 19
M  V30 21 1 4 20
M  V30 22 1 5 21
M  V30 23 1 5 22
M  V30 24 1 6 23
M  V30 25 1 6 24
M  V30 26 1 6 25
M  V30 27 1 8 26
M  V30 28 1 9 27
M  V30 29 1 11 28
M  V30 30 1 13 29
M  V30 31 1 14 30
M  V30 32 1 15 31
M  V30 33 1 16 32
M  V30 END BOND
M  V30 END CTAB
M  END
>  <Column 1>
1721

>  <level_0>
1882

>  <index>
1882

>  <Unnamed: 0>
1882

>  <NO.>
1894

>  <Name>
napactadine hydrochloride

>  <IUPAC_name>
methyl-[n-methyl-c-(naphthalen-2-ylmethyl)carbonimidoyl]azanium;chloride

>  <SMILES>
CN=C(Cc1ccc2ccccc2c1)NC

>  <CID>
42153

>  <logBB>


>  <BBB+/BBB->
BBB+

>  <Inchi>
InChI=1S/C14H16N2/c1-15-14(16-2)10-11-7-8-12-5-3-4-6-13(12)9-11/h3-9H-10H2-1-2H3-(H-15-16)

>  <threshold>
-1

>  <reference>
R1|R13|R19|R6|R24|R27|R27|R27|R30|R30|

>  <group>
B

>  <Class>
1

>  <ABC>
11.98

>  <ABCGG>
10.13

>  <nAcid>
0

>  <nBase>
2

>  <nAromAtom>
10

>  <nAromBond>
11

>  <nAtom>
32

>  <nHeavyAtom>
16

>  <nSpiro>
0

>  <nBridgehead>
0

>  <nHetero>
2

>  <nN>
2

>  <nO>
0

>  <nF>
0

>  <BalabanJ>
1.8

>  <BertzCT>
514.88

>  <nBonds>
33

>  <nBondsO>
17

>  <nBondsS>
21

>  <nBondsD>
1

>  <nBondsT>
0

>  <nBondsA>
11

>  <nBondsM>
12

>  <nBondsKS>
27

>  <nBondsKD>
6

>  <RNCG>
0.34

>  <RPCG>
0.14

>  <FCSP3>
0.21

>  <SZ>
19

>  <Sm>
17.68

>  <Sv>
19.85

>  <Sse>
31.43

>  <Sp>
21.71

>  <Si>
35.9

>  <MZ>
0.59

>  <Mm>
0.55

>  <Mv>
0.62

>  <Mse>
0.98

>  <Mp>
0.68

>  <Mi>
1.12

>  <NsCH3>
2

>  <NdCH2>
0

>  <NssCH2>
1

>  <NtCH>
0

>  <NdsCH>
0

>  <NaaCH>
7

>  <NsssCH>
0

>  <NddC>
0

>  <NtsC>
0

>  <NdssC>
1

>  <NaasC>
1

>  <NaaaC>
2

>  <NssssC>
0

>  <NsNH3>
0

>  <NsNH2>
0

>  <NssNH2>
0

>  <NdNH>
0

>  <NssNH>
1

>  <NaaNH>
0

>  <NtN>
0

>  <NsssNH>
0

>  <NdsN>
1

>  <NaaN>
0

>  <NsssN>
0

>  <NddsN>
0

>  <NaasN>
0

>  <NssssN>
0

>  <NsOH>
0

>  <NdO>
0

>  <NssO>
0

>  <NaaO>
0

>  <NsF>
0

>  <NsSiH3>
0

>  <NssSiH2>
0

>  <NsssSiH>
0

>  <NssssSi>
0

>  <NsPH2>
0

>  <NssPH>
0

>  <NsssP>
0

>  <NdsssP>
0

>  <NsssssP>
0

>  <NsSH>
0

>  <NdS>
0

>  <NssS>
0

>  <NaaS>
0

>  <NdssS>
0

>  <NddssS>
0

>  <NsCl>
0

>  <NsBr>
0

>  <NsI>
0

>  <fragCpx>
49.02

>  <fMF>
0.31

>  <nHBAcc>
1

>  <nHBDon>
1

>  <Kier1>
12.46

>  <Kier2>
6.07

>  <Lipinski>
1

>  <GhoseFilter>
1

>  <FilterItLogS>
-4.34

>  <VMcGowan>
180.56

>  <LabuteASA>
96.02

>  <PEOE_VSA1>
5.32

>  <PEOE_VSA2>
4.99

>  <PEOE_VSA3>
0

>  <PEOE_VSA4>
0

>  <PEOE_VSA5>
0

>  <PEOE_VSA6>
42.46

>  <PEOE_VSA7>
16.34

>  <PEOE_VSA8>
20.52

>  <PEOE_VSA9>
0

>  <PEOE_VSA10>
5.84

>  <PEOE_VSA11>
0

>  <PEOE_VSA12>
0

>  <PEOE_VSA13>
0

>  <SMR_VSA1>
0

>  <SMR_VSA2>
0

>  <SMR_VSA3>
5.32

>  <SMR_VSA4>
4.99

>  <SMR_VSA5>
6.42

>  <SMR_VSA6>
14.1

>  <SMR_VSA7>
48.03

>  <SMR_VSA8>
0

>  <SMR_VSA9>
0

>  <SlogP_VSA1>
5.32

>  <SlogP_VSA2>
19.93

>  <SlogP_VSA3>
6.42

>  <SlogP_VSA4>
0

>  <SlogP_VSA5>
5.56

>  <SlogP_VSA6>
47.46

>  <SlogP_VSA7>
0

>  <SlogP_VSA8>
10.77

>  <SlogP_VSA9>
0

>  <SlogP_VSA10>
0

>  <SlogP_VSA11>
0

>  <EState_VSA1>
0

>  <EState_VSA2>
0

>  <EState_VSA3>
0

>  <EState_VSA4>
12.26

>  <EState_VSA5>
16.34

>  <EState_VSA6>
0

>  <EState_VSA7>
14.1

>  <EState_VSA8>
52.77

>  <EState_VSA9>
0

>  <EState_VSA10>
0

>  <VSA_EState1>
0

>  <VSA_EState2>
4.19

>  <VSA_EState3>
5.67

>  <VSA_EState4>
1.29

>  <VSA_EState5>
1.01

>  <VSA_EState6>
14.94

>  <VSA_EState7>
0.86

>  <VSA_EState8>
0

>  <VSA_EState9>
3.72

>  <apol>
36.25

>  <bpol>
17.76

>  <nRing>
2

>  <nHRing>
0

>  <naRing>
2

>  <naHRing>
0

>  <nARing 2>
0

>  <nAHRing 2>
0

>  <nFRing>
1

>  <nFHRing>
0

>  <nFaRing>
1

>  <nFaHRing>
0

>  <nFARing 2>
0

>  <nFAHRing 2>
0

>  <nRot>
2

>  <SLogP>
2.63

>  <SMR>
70.07

>  <TopoPSA(NO)>
24.39

>  <TopoPSA>
24.39

>  <JGI1>
0.18

>  <JGI2>
0.06

>  <JGI3>
0.04

>  <JGI4>
0.04

>  <JGI5>
0.02

>  <Diameter>
9

>  <Radius>
5

>  <TMWC10>
102.51

>  <TSRW10>
48.01

>  <MW>
212.13

>  <AMW>
6.63

>  <WPath>
460

>  <WPol>
22

>  <Zagreb1>
78

>  <Zagreb2>
89

>  <mZagreb2>
3.78

>  <yes>


>  <nAR-cont>
0.336376

>  <nHA-cont>
0.954961865

>  <MWHBN>
0.137318468

>  <MWHBN-cont>
0.895179273

>  <TPSA-cont>
0.829742655

>  <pka_cont>
0.97

>  <yes.1>


>  <BBB_SCORE>
4.778592085

>  <MMFF94 Energy>
31.693

$$$$
Compound 1446
Actelion Java MolfileCreator 2.0

  0  0  0  0  0  0              0 V3000
M  V30 BEGIN CTAB
M  V30 COUNTS 35 37 0 0 0
M  V30 BEGIN ATOM
M  V30 1 Cl -0.9712 -4.4576 1.0522 0
M  V30 2 C -1.2964 -2.9019 0.3851 0
M  V30 3 C -0.3819 -1.9252 0.4438 0
M  V30 4 C -2.5641 -2.6949 -0.2611 0
M  V30 5 C -0.6203 -0.5948 -0.1399 0
M  V30 6 C -2.951 -1.479 -0.6636 0
M  V30 7 C 0.3861 0.2782 -0.4241 0
M  V30 8 C -2.0792 -0.2792 -0.458 0
M  V30 9 N 0.3062 1.5512 -0.9947 0
M  V30 10 C 1.7841 -0.1527 -0.1258 0
M  V30 11 N -2.7027 0.8531 -0.5405 0
M  V30 12 O 1.4638 2.2853 -1.2952 0
M  V30 13 C -0.8988 2.319 -1.2941 0
M  V30 14 C 2.4765 -0.9939 -1.0107 0
M  V30 15 C 2.4217 0.2923 1.0404 0
M  V30 16 C -1.9952 1.9967 -0.3056 0
M  V30 17 C 3.7824 -1.3934 -0.723 0
M  V30 18 C 3.728 -0.1082 1.3236 0
M  V30 19 N -2.2584 2.7818 0.6833 0
M  V30 20 C 4.4057 -0.9519 0.4438 0
M  V30 21 C -3.3493 2.3854 1.5641 0
M  V30 22 H 0.5697 -2.1265 0.9269 0
M  V30 23 H -3.2242 -3.5469 -0.3931 0
M  V30 24 H -3.9279 -1.3065 -1.101 0
M  V30 25 H 1.9694 1.6972 -1.8867 0
M  V30 26 H -0.6929 3.3949 -1.2488 0
M  V30 27 H -1.2419 2.0826 -2.3072 0
M  V30 28 H 1.9992 -1.3429 -1.9233 0
M  V30 29 H 1.9032 0.9628 1.7228 0
M  V30 30 H 4.3146 -2.0484 -1.408 0
M  V30 31 H 4.2181 0.2433 2.228 0
M  V30 32 H 5.4238 -1.2615 0.6666 0
M  V30 33 H -4.3 2.3149 1.0251 0
M  V30 34 H -3.4718 3.147 2.3407 0
M  V30 35 H -3.1351 1.4374 2.0688 0
M  V30 END ATOM
M  V30 BEGIN BOND
M  V30 1 1 1 2
M  V30 2 2 2 3
M  V30 3 1 2 4
M  V30 4 1 3 5
M  V30 5 2 4 6
M  V30 6 2 5 7
M  V30 7 1 5 8
M  V30 8 1 7 9
M  V30 9 1 7 10
M  V30 10 2 8 11
M  V30 11 1 9 12
M  V30 12 1 9 13
M  V30 13 2 10 14
M  V30 14 1 10 15
M  V30 15 1 11 16
M  V30 16 1 14 17
M  V30 17 2 15 18
M  V30 18 2 16 19
M  V30 19 2 17 20
M  V30 20 1 19 21
M  V30 21 1 6 8
M  V30 22 1 13 16
M  V30 23 1 18 20
M  V30 24 1 3 22
M  V30 25 1 4 23
M  V30 26 1 6 24
M  V30 27 1 12 25
M  V30 28 1 13 26
M  V30 29 1 13 27
M  V30 30 1 14 28
M  V30 31 1 15 29
M  V30 32 1 17 30
M  V30 33 1 18 31
M  V30 34 1 20 32
M  V30 35 1 21 33
M  V30 36 1 21 34
M  V30 37 1 21 35
M  V30 END BOND
M  V30 END CTAB
M  END
>  <Column 1>
1722

>  <level_0>
1883

>  <index>
1883

>  <Unnamed: 0>
1883

>  <NO.>
1895

>  <Name>
sertraline

>  <IUPAC_name>
7-chloro-4-hydroxy-n-methyl-5-phenyl-3h-1-4-benzodiazepin-2-imine

>  <SMILES>
CN=C1CN(O)C(c2ccccc2)=c2cc(Cl)ccc2=N1

>  <CID>
2712

>  <logBB>


>  <BBB+/BBB->
BBB+

>  <Inchi>
InChI=1S/C16H14ClN3O/c1-18-15-10-20(21)16(11-5-3-2-4-6-11)13-9-12(17)7-8-14(13)19-15/h2-9-21H-10H2-1H3

>  <threshold>
-1

>  <reference>
R1|R7|R6|R14|R14|R15|R23|R26|R27|R27|R29|R30|R30|R36|R50|

>  <group>
B

>  <Class>
1

>  <ABC>
16.32

>  <ABCGG>
13.52

>  <nAcid>
0

>  <nBase>
2

>  <nAromAtom>
12

>  <nAromBond>
12

>  <nAtom>
35

>  <nHeavyAtom>
21

>  <nSpiro>
0

>  <nBridgehead>
0

>  <nHetero>
5

>  <nN>
3

>  <nO>
1

>  <nF>
0

>  <BalabanJ>
1.81

>  <BertzCT>
815.16

>  <nBonds>
37

>  <nBondsO>
23

>  <nBondsS>
22

>  <nBondsD>
3

>  <nBondsT>
0

>  <nBondsA>
12

>  <nBondsM>
15

>  <nBondsKS>
29

>  <nBondsKD>
8

>  <RNCG>
0.19

>  <RPCG>
0.16

>  <FCSP3>
0.13

>  <SZ>
26

>  <Sm>
24.96

>  <Sv>
23.87

>  <Sse>
35.3

>  <Sp>
25.35

>  <Si>
39.14

>  <MZ>
0.74

>  <Mm>
0.71

>  <Mv>
0.68

>  <Mse>
1.01

>  <Mp>
0.72

>  <Mi>
1.12

>  <NsCH3>
1

>  <NdCH2>
0

>  <NssCH2>
1

>  <NtCH>
0

>  <NdsCH>
0

>  <NaaCH>
8

>  <NsssCH>
0

>  <NddC>
0

>  <NtsC>
0

>  <NdssC>
2

>  <NaasC>
2

>  <NaaaC>
0

>  <NssssC>
0

>  <NsNH3>
0

>  <NsNH2>
0

>  <NssNH2>
0

>  <NdNH>
0

>  <NssNH>
0

>  <NaaNH>
0

>  <NtN>
0

>  <NsssNH>
0

>  <NdsN>
2

>  <NaaN>
0

>  <NsssN>
1

>  <NddsN>
0

>  <NaasN>
0

>  <NssssN>
0

>  <NsOH>
1

>  <NdO>
0

>  <NssO>
0

>  <NaaO>
0

>  <NsF>
0

>  <NsSiH3>
0

>  <NssSiH2>
0

>  <NsssSiH>
0

>  <NssssSi>
0

>  <NsPH2>
0

>  <NssPH>
0

>  <NsssP>
0

>  <NdsssP>
0

>  <NsssssP>
0

>  <NsSH>
0

>  <NdS>
0

>  <NssS>
0

>  <NaaS>
0

>  <NdssS>
0

>  <NddssS>
0

>  <NsCl>
1

>  <NsBr>
0

>  <NsI>
0

>  <fragCpx>
109.05

>  <fMF>
0.49

>  <nHBAcc>
3

>  <nHBDon>
1

>  <Kier1>
15.88

>  <Kier2>
7.05

>  <Lipinski>
1

>  <GhoseFilter>
1

>  <FilterItLogS>
-4.35

>  <VMcGowan>
217.37

>  <LabuteASA>
126.85

>  <PEOE_VSA1>
0

>  <PEOE_VSA2>
10.2

>  <PEOE_VSA3>
10.06

>  <PEOE_VSA4>
0

>  <PEOE_VSA5>
0

>  <PEOE_VSA6>
41.93

>  <PEOE_VSA7>
18.2

>  <PEOE_VSA8>
22.85

>  <PEOE_VSA9>
11.05

>  <PEOE_VSA10>
12.38

>  <PEOE_VSA11>
0

>  <PEOE_VSA12>
0

>  <PEOE_VSA13>
0

>  <SMR_VSA1>
5.21

>  <SMR_VSA2>
0

>  <SMR_VSA3>
5.06

>  <SMR_VSA4>
9.98

>  <SMR_VSA5>
0

>  <SMR_VSA6>
13.59

>  <SMR_VSA7>
69.69

>  <SMR_VSA8>
0

>  <SMR_VSA9>
0

>  <SlogP_VSA1>
10.58

>  <SlogP_VSA2>
29.7

>  <SlogP_VSA3>
0

>  <SlogP_VSA4>
0

>  <SlogP_VSA5>
5.56

>  <SlogP_VSA6>
58.52

>  <SlogP_VSA7>
5.02

>  <SlogP_VSA8>
5.7

>  <SlogP_VSA9>
0

>  <SlogP_VSA10>
0

>  <SlogP_VSA11>
0

>  <EState_VSA1>
0

>  <EState_VSA2>
6.54

>  <EState_VSA3>
16.56

>  <EState_VSA4>
16.14

>  <EState_VSA5>
5.06

>  <EState_VSA6>
13.11

>  <EState_VSA7>
42.46

>  <EState_VSA8>
9.98

>  <EState_VSA9>
11.6

>  <EState_VSA10>
5.21

>  <VSA_EState1>
0

>  <VSA_EState2>
8.6

>  <VSA_EState3>
13.76

>  <VSA_EState4>
1.58

>  <VSA_EState5>
0.56

>  <VSA_EState6>
15.11

>  <VSA_EState7>
0

>  <VSA_EState8>
0.23

>  <VSA_EState9>
1.66

>  <apol>
42.34

>  <bpol>
17.4

>  <nRing>
3

>  <nHRing>
1

>  <naRing>
2

>  <naHRing>
0

>  <nARing 2>
1

>  <nAHRing 2>
1

>  <nFRing>
1

>  <nFHRing>
1

>  <nFaRing>
0

>  <nFaHRing>
0

>  <nFARing 2>
1

>  <nFAHRing 2>
1

>  <nRot>
1

>  <SLogP>
1.85

>  <SMR>
83.04

>  <TopoPSA(NO)>
48.19

>  <TopoPSA>
48.19

>  <JGI1>
0.17

>  <JGI2>
0.06

>  <JGI3>
0.05

>  <JGI4>
0.04

>  <JGI5>
0.02

>  <Diameter>
9

>  <Radius>
5

>  <TMWC10>
118.17

>  <TSRW10>
63.02

>  <MW>
299.08

>  <AMW>
8.55

>  <WPath>
828

>  <WPol>
37

>  <Zagreb1>
110

>  <Zagreb2>
130

>  <mZagreb2>
4.69

>  <yes>


>  <nAR-cont>
0.816016

>  <nHA-cont>
0.994529749

>  <MWHBN>
0.231295032

>  <MWHBN-cont>
0.985441364

>  <TPSA-cont>
0.663603876

>  <pka_cont>
0.97

>  <yes.1>


>  <BBB_SCORE>
5.100915547

>  <MMFF94 Energy>
118.03

$$$$
Compound 1447
Actelion Java MolfileCreator 2.0

  0  0  0  0  0  0              0 V3000
M  V30 BEGIN CTAB
M  V30 COUNTS 58 61 0 0 0
M  V30 BEGIN ATOM
M  V30 1 Cl -3.6506 -2.595 4.2194 0
M  V30 2 C -2.0265 -3.118 3.9985 0
M  V30 3 C -1.5552 -3.3862 2.7144 0
M  V30 4 C -1.1945 -3.2712 5.1031 0
M  V30 5 C -0.2266 -3.794 2.5176 0
M  V30 6 C 0.1132 -3.7246 4.9243 0
M  V30 7 C 0.5957 -4.0126 3.6395 0
M  V30 8 C 0.3162 -4.0639 1.1623 0
M  V30 9 S 2.243 -4.7041 3.5044 0
M  V30 10 C 1.2059 -5.2391 0.945 0
M  V30 11 C 0.1975 -3.1832 0.1408 0
M  V30 12 C 2.139 -5.5793 1.943 0
M  V30 13 C 1.136 -6.0213 -0.22 0
M  V30 14 C -0.4516 -1.8185 0.1183 0
M  V30 15 C 3.0214 -6.6482 1.7337 0
M  V30 16 C 2.0093 -7.0934 -0.4112 0
M  V30 17 C 0.5069 -0.7555 -0.4545 0
M  V30 18 C 2.9576 -7.4005 0.5603 0
M  V30 19 N -0.0445 0.6103 -0.4094 0
M  V30 20 C -1.1675 0.7931 -1.3513 0
M  V30 21 C 1.0107 1.5936 -0.7322 0
M  V30 22 C -1.6877 2.2496 -1.3747 0
M  V30 23 C 0.4863 3.0484 -0.753 0
M  V30 24 N -0.6286 3.2287 -1.7064 0
M  V30 25 C -1.1831 4.5968 -1.6591 0
M  V30 26 C -0.2374 5.6357 -2.2625 0
M  V30 27 C -0.8826 7.0055 -2.3138 0
M  V30 28 O -1.9695 7.269 -1.8119 0
M  V30 29 N -0.1089 7.939 -2.9712 0
M  V30 30 C -0.5516 9.3014 -3.1168 0
M  V30 31 H -2.2245 -3.2742 1.8653 0
M  V30 32 H -1.5604 -3.0593 6.1043 0
M  V30 33 H 0.7457 -3.8732 5.7969 0
M  V30 34 H 0.6737 -3.4259 -0.8098 0
M  V30 35 H 0.3968 -5.8042 -0.9874 0
M  V30 36 H -0.7589 -1.4912 1.1148 0
M  V30 37 H -1.353 -1.8929 -0.4994 0
M  V30 38 H 3.7554 -6.9124 2.4917 0
M  V30 39 H 1.9484 -7.688 -1.3193 0
M  V30 40 H 1.4245 -0.7835 0.1488 0
M  V30 41 H 0.7965 -1.0218 -1.4799 0
M  V30 42 H 3.6405 -8.233 0.4117 0
M  V30 43 H -2.0078 0.1529 -1.062 0
M  V30 44 H -0.8681 0.5042 -2.3676 0
M  V30 45 H 1.8065 1.5333 0.0201 0
M  V30 46 H 1.464 1.364 -1.7062 0
M  V30 47 H -2.4861 2.3096 -2.1245 0
M  V30 48 H -2.1366 2.4845 -0.3997 0
M  V30 49 H 1.3262 3.6935 -1.0322 0
M  V30 50 H 0.1769 3.3326 0.2618 0
M  V30 51 H -1.4522 4.8756 -0.6315 0
M  V30 52 H -2.1144 4.6198 -2.2412 0
M  V30 53 H 0.6796 5.7279 -1.6707 0
M  V30 54 H 0.0413 5.3455 -3.2827 0
M  V30 55 H 0.7784 7.6623 -3.3707 0
M  V30 56 H -0.7308 9.7325 -2.1281 0
M  V30 57 H -1.4796 9.3184 -3.6946 0
M  V30 58 H 0.2229 9.869 -3.6372 0
M  V30 END ATOM
M  V30 BEGIN BOND
M  V30 1 1 1 2
M  V30 2 2 2 3
M  V30 3 1 2 4
M  V30 4 1 3 5
M  V30 5 2 4 6
M  V30 6 2 5 7
M  V30 7 1 5 8
M  V30 8 1 7 9
M  V30 9 1 8 10
M  V30 10 2 8 11
M  V30 11 1 9 12
M  V30 12 1 10 13
M  V30 13 1 11 14
M  V30 14 1 12 15
M  V30 15 2 13 16
M  V30 16 1 14 17
M  V30 17 2 15 18
M  V30 18 1 17 19
M  V30 19 1 19 20
M  V30 20 1 19 21
M  V30 21 1 20 22
M  V30 22 1 21 23
M  V30 23 1 22 24
M  V30 24 1 24 25
M  V30 25 1 25 26
M  V30 26 1 26 27
M  V30 27 2 27 28
M  V30 28 1 27 29
M  V30 29 1 29 30
M  V30 30 1 6 7
M  V30 31 2 10 12
M  V30 32 1 16 18
M  V30 33 1 23 24
M  V30 34 1 3 31
M  V30 35 1 4 32
M  V30 36 1 6 33
M  V30 37 1 11 34
M  V30 38 1 13 35
M  V30 39 1 14 36
M  V30 40 1 14 37
M  V30 41 1 15 38
M  V30 42 1 16 39
M  V30 43 1 17 40
M  V30 44 1 17 41
M  V30 45 1 18 42
M  V30 46 1 20 43
M  V30 47 1 20 44
M  V30 48 1 21 45
M  V30 49 1 21 46
M  V30 50 1 22 47
M  V30 51 1 22 48
M  V30 52 1 23 49
M  V30 53 1 23 50
M  V30 54 1 25 51
M  V30 55 1 25 52
M  V30 56 1 26 53
M  V30 57 1 26 54
M  V30 58 1 29 55
M  V30 59 1 30 56
M  V30 60 1 30 57
M  V30 61 1 30 58
M  V30 END BOND
M  V30 END CTAB
M  END
>  <Column 1>
1723

>  <level_0>
1884

>  <index>
1884

>  <Unnamed: 0>
1884

>  <NO.>
1896

>  <Name>
clothixamide

>  <IUPAC_name>
3-[4-[3-(2-chlorothioxanthen-9-ylidene)propyl]piperazin-1-yl]-n-methylpropanamide

>  <SMILES>
CNC(=O)CCN1CCN(CCC=C2c3ccccc3Sc3ccc(Cl)cc32)CC1

>  <CID>
20495

>  <logBB>


>  <BBB+/BBB->
BBB+

>  <Inchi>
InChI=1S/C24H28ClN3OS/c1-26-24(29)10-12-28-15-13-27(14-16-28)11-4-6-19-20-5-2-3-7-22(20)30-23-9-8-18(25)17-21(19)23/h2-3-5-9-17H-4-10-16H2-1H3-(H-26-29)

>  <threshold>
-1

>  <reference>
R1|R19|R27|R30|

>  <group>
B

>  <Class>
-1

>  <ABC>
23.39

>  <ABCGG>
16.55

>  <nAcid>
0

>  <nBase>
2

>  <nAromAtom>
12

>  <nAromBond>
12

>  <nAtom>
58

>  <nHeavyAtom>
30

>  <nSpiro>
0

>  <nBridgehead>
0

>  <nHetero>
6

>  <nN>
3

>  <nO>
1

>  <nF>
0

>  <BalabanJ>
1.23

>  <BertzCT>
937.8

>  <nBonds>
61

>  <nBondsO>
33

>  <nBondsS>
47

>  <nBondsD>
2

>  <nBondsT>
0

>  <nBondsA>
12

>  <nBondsM>
14

>  <nBondsKS>
53

>  <nBondsKD>
8

>  <RNCG>
0.19

>  <RPCG>
0.12

>  <FCSP3>
0.38

>  <SZ>
39

>  <Sm>
36.8

>  <Sv>
36.85

>  <Sse>
57.59

>  <Sp>
40.68

>  <Si>
64.97

>  <MZ>
0.67

>  <Mm>
0.63

>  <Mv>
0.64

>  <Mse>
0.99

>  <Mp>
0.7

>  <Mi>
1.12

>  <NsCH3>
1

>  <NdCH2>
0

>  <NssCH2>
8

>  <NtCH>
0

>  <NdsCH>
1

>  <NaaCH>
7

>  <NsssCH>
0

>  <NddC>
0

>  <NtsC>
0

>  <NdssC>
2

>  <NaasC>
5

>  <NaaaC>
0

>  <NssssC>
0

>  <NsNH3>
0

>  <NsNH2>
0

>  <NssNH2>
0

>  <NdNH>
0

>  <NssNH>
1

>  <NaaNH>
0

>  <NtN>
0

>  <NsssNH>
0

>  <NdsN>
0

>  <NaaN>
0

>  <NsssN>
2

>  <NddsN>
0

>  <NaasN>
0

>  <NssssN>
0

>  <NsOH>
0

>  <NdO>
1

>  <NssO>
0

>  <NaaO>
0

>  <NsF>
0

>  <NsSiH3>
0

>  <NssSiH2>
0

>  <NsssSiH>
0

>  <NssssSi>
0

>  <NsPH2>
0

>  <NssPH>
0

>  <NsssP>
0

>  <NdsssP>
0

>  <NsssssP>
0

>  <NsSH>
0

>  <NdS>
0

>  <NssS>
1

>  <NaaS>
0

>  <NdssS>
0

>  <NddssS>
0

>  <NsCl>
1

>  <NsBr>
0

>  <NsI>
0

>  <fragCpx>
219.06

>  <fMF>
0.4

>  <nHBAcc>
4

>  <nHBDon>
1

>  <Kier1>
23.17

>  <Kier2>
11.23

>  <Lipinski>
1

>  <GhoseFilter>
1

>  <FilterItLogS>
-6.56

>  <VMcGowan>
335.58

>  <LabuteASA>
187.82

>  <PEOE_VSA1>
15.12

>  <PEOE_VSA2>
4.79

>  <PEOE_VSA3>
0

>  <PEOE_VSA4>
0

>  <PEOE_VSA5>
0

>  <PEOE_VSA6>
47.64

>  <PEOE_VSA7>
47.39

>  <PEOE_VSA8>
67.55

>  <PEOE_VSA9>
0

>  <PEOE_VSA10>
0

>  <PEOE_VSA11>
0

>  <PEOE_VSA12>
5.91

>  <PEOE_VSA13>
0

>  <SMR_VSA1>
4.79

>  <SMR_VSA2>
0

>  <SMR_VSA3>
15.12

>  <SMR_VSA4>
0

>  <SMR_VSA5>
22.63

>  <SMR_VSA6>
46.32

>  <SMR_VSA7>
64.69

>  <SMR_VSA8>
0

>  <SMR_VSA9>
0

>  <SlogP_VSA1>
5.32

>  <SlogP_VSA2>
62.02

>  <SlogP_VSA3>
4.79

>  <SlogP_VSA4>
0

>  <SlogP_VSA5>
23.97

>  <SlogP_VSA6>
58.33

>  <SlogP_VSA7>
5.02

>  <SlogP_VSA8>
5.57

>  <SlogP_VSA9>
0

>  <SlogP_VSA10>
0

>  <SlogP_VSA11>
0

>  <EState_VSA1>
0

>  <EState_VSA2>
5.91

>  <EState_VSA3>
6.42

>  <EState_VSA4>
50.71

>  <EState_VSA5>
26.49

>  <EState_VSA6>
7.05

>  <EState_VSA7>
17.83

>  <EState_VSA8>
57.59

>  <EState_VSA9>
11.6

>  <EState_VSA10>
4.79

>  <VSA_EState1>
0

>  <VSA_EState2>
18.93

>  <VSA_EState3>
3.48

>  <VSA_EState4>
3.84

>  <VSA_EState5>
0.12

>  <VSA_EState6>
14.82

>  <VSA_EState7>
3.98

>  <VSA_EState8>
6.09

>  <VSA_EState9>
1.7

>  <apol>
67.93

>  <bpol>
35.92

>  <nRing>
4

>  <nHRing>
2

>  <naRing>
2

>  <naHRing>
0

>  <nARing 2>
2

>  <nAHRing 2>
2

>  <nFRing>
1

>  <nFHRing>
1

>  <nFaRing>
0

>  <nFaHRing>
0

>  <nFARing 2>
1

>  <nFAHRing 2>
1

>  <nRot>
6

>  <SLogP>
4.38

>  <SMR>
125.28

>  <TopoPSA(NO)>
35.58

>  <TopoPSA>
60.88

>  <JGI1>
0.17

>  <JGI2>
0.07

>  <JGI3>
0.03

>  <JGI4>
0.04

>  <JGI5>
0.02

>  <Diameter>
16

>  <Radius>
8

>  <TMWC10>
139.78

>  <TSRW10>
65.66

>  <MW>
441.16

>  <AMW>
7.61

>  <WPath>
2837

>  <WPol>
47

>  <Zagreb1>
156

>  <Zagreb2>
182

>  <mZagreb2>
6.69

>  <yes>


>  <nAR-cont>
1

>  <nHA-cont>
0.74523694

>  <MWHBN>
0.238052058

>  <MWHBN-cont>
0.977540602

>  <TPSA-cont>
0.575019796

>  <pka_cont>
0.97

>  <yes.1>


>  <BBB_SCORE>
4.846587434

>  <MMFF94 Energy>
112.74

$$$$
Compound 1448
Actelion Java MolfileCreator 2.0

  0  0  0  0  0  0              0 V3000
M  V30 BEGIN CTAB
M  V30 COUNTS 32 33 0 0 0
M  V30 BEGIN ATOM
M  V30 1 F -3.1268 -4.4118 2.0837 0
M  V30 2 C -1.7757 -4.5361 2.2021 0
M  V30 3 F -1.5205 -5.8735 2.1458 0
M  V30 4 F -1.4738 -4.1521 3.4731 0
M  V30 5 C -1.0142 -3.7437 1.17 0
M  V30 6 C -1.5123 -2.515 0.7091 0
M  V30 7 C 0.218 -4.1993 0.6801 0
M  V30 8 C -0.8012 -1.7605 -0.2263 0
M  V30 9 C 0.9226 -3.4513 -0.264 0
M  V30 10 O -1.3973 -0.5835 -0.6037 0
M  V30 11 C 0.412 -2.2344 -0.721 0
M  V30 12 C -0.5835 0.4404 -1.2213 0
M  V30 13 C -1.2676 1.8143 -1.3819 0
M  V30 14 C 0.4626 1.1462 -0.3283 0
M  V30 15 N -0.0601 2.3931 -0.8306 0
M  V30 16 C 0.3477 3.6885 -0.8125 0
M  V30 17 O -0.2935 4.5915 -1.3402 0
M  V30 18 N 1.5333 3.8962 -0.162 0
M  V30 19 C 2.1105 5.2097 -0.0528 0
M  V30 20 H -2.4642 -2.1386 1.0819 0
M  V30 21 H 0.6304 -5.1458 1.0276 0
M  V30 22 H 1.8704 -3.8206 -0.6494 0
M  V30 23 H 0.9767 -1.6892 -1.4696 0
M  V30 24 H -0.1804 0.1018 -2.1863 0
M  V30 25 H -2.1465 1.9848 -0.7533 0
M  V30 26 H -1.474 2.1111 -2.4133 0
M  V30 27 H 0.3246 1.0308 0.7506 0
M  V30 28 H 1.5025 0.9515 -0.602 0
M  V30 29 H 1.964 3.1236 0.3197 0
M  V30 30 H 3.1369 5.1122 0.3078 0
M  V30 31 H 1.5212 5.7966 0.6568 0
M  V30 32 H 2.1028 5.7036 -1.0284 0
M  V30 END ATOM
M  V30 BEGIN BOND
M  V30 1 1 1 2
M  V30 2 1 2 3
M  V30 3 1 2 4
M  V30 4 1 2 5
M  V30 5 2 5 6
M  V30 6 1 5 7
M  V30 7 1 6 8
M  V30 8 2 7 9
M  V30 9 1 8 10
M  V30 10 2 8 11
M  V30 11 1 10 12
M  V30 12 1 12 13
M  V30 13 1 12 14
M  V30 14 1 13 15
M  V30 15 1 15 16
M  V30 16 2 16 17
M  V30 17 1 16 18
M  V30 18 1 18 19
M  V30 19 1 9 11
M  V30 20 1 14 15
M  V30 21 1 6 20
M  V30 22 1 7 21
M  V30 23 1 9 22
M  V30 24 1 11 23
M  V30 25 1 12 24
M  V30 26 1 13 25
M  V30 27 1 13 26
M  V30 28 1 14 27
M  V30 29 1 14 28
M  V30 30 1 18 29
M  V30 31 1 19 30
M  V30 32 1 19 31
M  V30 33 1 19 32
M  V30 END BOND
M  V30 END CTAB
M  END
>  <Column 1>
1725

>  <level_0>
1886

>  <index>
1886

>  <Unnamed: 0>
1886

>  <NO.>
1898

>  <Name>
fluzinamide

>  <IUPAC_name>
n-methyl-3-[3-(trifluoromethyl)phenoxy]azetidine-1-carboxamide

>  <SMILES>
CNC(=O)N1CC(Oc2cccc(C(F)(F)F)c2)C1

>  <CID>
53467

>  <logBB>


>  <BBB+/BBB->
BBB+

>  <Inchi>
InChI=1S/C12H13F3N2O2/c1-16-11(18)17-6-10(7-17)19-9-4-2-3-8(5-9)12(13-14)15/h2-5-10H-6-7H2-1H3-(H-16-18)

>  <threshold>
-1

>  <reference>
R1|R13|R19|R6|R24|R27|R27|R27|R30|R30|

>  <group>
B

>  <Class>
1

>  <ABC>
14.63

>  <ABCGG>
12.36

>  <nAcid>
0

>  <nBase>
0

>  <nAromAtom>
6

>  <nAromBond>
6

>  <nAtom>
32

>  <nHeavyAtom>
19

>  <nSpiro>
0

>  <nBridgehead>
0

>  <nHetero>
7

>  <nN>
2

>  <nO>
2

>  <nF>
3

>  <BalabanJ>
1.73

>  <BertzCT>
470.29

>  <nBonds>
33

>  <nBondsO>
20

>  <nBondsS>
26

>  <nBondsD>
1

>  <nBondsT>
0

>  <nBondsA>
6

>  <nBondsM>
7

>  <nBondsKS>
29

>  <nBondsKD>
4

>  <RNCG>
0.24

>  <RPCG>
0.21

>  <FCSP3>
0.42

>  <SZ>
23.67

>  <Sm>
22.83

>  <Sv>
20.41

>  <Sse>
33.63

>  <Sp>
20.47

>  <Si>
37.34

>  <MZ>
0.74

>  <Mm>
0.71

>  <Mv>
0.64

>  <Mse>
1.05

>  <Mp>
0.64

>  <Mi>
1.17

>  <NsCH3>
1

>  <NdCH2>
0

>  <NssCH2>
2

>  <NtCH>
0

>  <NdsCH>
0

>  <NaaCH>
4

>  <NsssCH>
1

>  <NddC>
0

>  <NtsC>
0

>  <NdssC>
1

>  <NaasC>
2

>  <NaaaC>
0

>  <NssssC>
1

>  <NsNH3>
0

>  <NsNH2>
0

>  <NssNH2>
0

>  <NdNH>
0

>  <NssNH>
1

>  <NaaNH>
0

>  <NtN>
0

>  <NsssNH>
0

>  <NdsN>
0

>  <NaaN>
0

>  <NsssN>
1

>  <NddsN>
0

>  <NaasN>
0

>  <NssssN>
0

>  <NsOH>
0

>  <NdO>
1

>  <NssO>
1

>  <NaaO>
0

>  <NsF>
3

>  <NsSiH3>
0

>  <NssSiH2>
0

>  <NsssSiH>
0

>  <NssssSi>
0

>  <NsPH2>
0

>  <NssPH>
0

>  <NsssP>
0

>  <NdsssP>
0

>  <NsssssP>
0

>  <NsSH>
0

>  <NdS>
0

>  <NssS>
0

>  <NaaS>
0

>  <NdssS>
0

>  <NddssS>
0

>  <NsCl>
0

>  <NsBr>
0

>  <NsI>
0

>  <fragCpx>
58.07

>  <fMF>
0.34

>  <nHBAcc>
2

>  <nHBDon>
1

>  <Kier1>
15.39

>  <Kier2>
6.19

>  <Lipinski>
1

>  <GhoseFilter>
1

>  <FilterItLogS>
-2.74

>  <VMcGowan>
178

>  <LabuteASA>
107.7

>  <PEOE_VSA1>
14.95

>  <PEOE_VSA2>
0

>  <PEOE_VSA3>
4.79

>  <PEOE_VSA4>
13.17

>  <PEOE_VSA5>
0

>  <PEOE_VSA6>
6.07

>  <PEOE_VSA7>
18.2

>  <PEOE_VSA8>
7.05

>  <PEOE_VSA9>
18.65

>  <PEOE_VSA10>
11.85

>  <PEOE_VSA11>
0

>  <PEOE_VSA12>
0

>  <PEOE_VSA13>
0

>  <SMR_VSA1>
22.7

>  <SMR_VSA2>
0

>  <SMR_VSA3>
10.22

>  <SMR_VSA4>
0

>  <SMR_VSA5>
12.28

>  <SMR_VSA6>
20.14

>  <SMR_VSA7>
29.83

>  <SMR_VSA8>
0

>  <SMR_VSA9>
5.75

>  <SlogP_VSA1>
10.05

>  <SlogP_VSA2>
37.17

>  <SlogP_VSA3>
6.18

>  <SlogP_VSA4>
0

>  <SlogP_VSA5>
5.56

>  <SlogP_VSA6>
24.27

>  <SlogP_VSA7>
0

>  <SlogP_VSA8>
0

>  <SlogP_VSA9>
0

>  <SlogP_VSA10>
17.97

>  <SlogP_VSA11>
5.75

>  <EState_VSA1>
11.74

>  <EState_VSA2>
17.88

>  <EState_VSA3>
13.09

>  <EState_VSA4>
12.13

>  <EState_VSA5>
24.08

>  <EState_VSA6>
0

>  <EState_VSA7>
0

>  <EState_VSA8>
5.32

>  <EState_VSA9>
4.74

>  <EState_VSA10>
17.97

>  <VSA_EState1>
42.88

>  <VSA_EState2>
12.7

>  <VSA_EState3>
2.46

>  <VSA_EState4>
-0.74

>  <VSA_EState5>
0.16

>  <VSA_EState6>
4.5

>  <VSA_EState7>
-4.64

>  <VSA_EState8>
0.74

>  <VSA_EState9>
1.52

>  <apol>
34.18

>  <bpol>
21.26

>  <nRing>
2

>  <nHRing>
1

>  <naRing>
1

>  <naHRing>
0

>  <nARing 2>
1

>  <nAHRing 2>
1

>  <nFRing>
0

>  <nFHRing>
0

>  <nFaRing>
0

>  <nFaHRing>
0

>  <nFARing 2>
0

>  <nFAHRing 2>
0

>  <nRot>
2

>  <SLogP>
2.11

>  <SMR>
61.89

>  <TopoPSA(NO)>
41.57

>  <TopoPSA>
41.57

>  <JGI1>
0.3

>  <JGI2>
0.08

>  <JGI3>
0.07

>  <JGI4>
0.05

>  <JGI5>
0.03

>  <Diameter>
11

>  <Radius>
6

>  <TMWC10>
111.26

>  <TSRW10>
52.73

>  <MW>
274.09

>  <AMW>
8.57

>  <WPath>
794

>  <WPol>
25

>  <Zagreb1>
98

>  <Zagreb2>
112

>  <mZagreb2>
4.11

>  <yes>


>  <nAR-cont>
0.816016

>  <nHA-cont>
0.998649058

>  <MWHBN>
0.18120687

>  <MWHBN-cont>
0.988433052

>  <TPSA-cont>
0.709815587

>  <pka_cont>
0.97

>  <yes.1>


>  <BBB_SCORE>
5.201945809

>  <MMFF94 Energy>
-17.417

$$$$
Compound 1449
Actelion Java MolfileCreator 2.0

  0  0  0  0  0  0              0 V3000
M  V30 BEGIN CTAB
M  V30 COUNTS 18 17 0 0 0
M  V30 BEGIN ATOM
M  V30 1 Cl 0.3322 -3.0763 -2.7434 0
M  V30 2 C -0.3154 -1.6805 -1.8108 0
M  V30 3 Cl -1.8809 -2.1816 -1.0639 0
M  V30 4 Cl -0.6661 -0.3571 -2.9735 0
M  V30 5 C 0.7093 -1.234 -0.7027 0 CFG=2
M  V30 6 O 1.0221 -2.2828 0.211 0
M  V30 7 N 0.2515 -0.1697 0.16 0
M  V30 8 C 0.5799 1.1253 -0.0626 0
M  V30 9 O 1.3484 1.4775 -0.9491 0
M  V30 10 N 0.0184 2.04 0.7625 0
M  V30 11 C -0.9034 1.8257 1.8509 0
M  V30 12 H 1.6469 -0.938 -1.189 0
M  V30 13 H 1.694 -1.9041 0.8041 0
M  V30 14 H -0.4258 -0.4073 0.8662 0
M  V30 15 H 0.2972 2.9906 0.5484 0
M  V30 16 H -0.443 1.1661 2.591 0
M  V30 17 H -1.8167 1.366 1.4645 0
M  V30 18 H -1.1369 2.7905 2.3069 0
M  V30 END ATOM
M  V30 BEGIN BOND
M  V30 1 1 1 2
M  V30 2 1 2 3
M  V30 3 1 2 4
M  V30 4 1 2 5
M  V30 5 1 5 6
M  V30 6 1 5 7
M  V30 7 1 7 8
M  V30 8 2 8 9
M  V30 9 1 8 10
M  V30 10 1 10 11
M  V30 11 1 5 12
M  V30 12 1 6 13
M  V30 13 1 7 14
M  V30 14 1 10 15
M  V30 15 1 11 16
M  V30 16 1 11 17
M  V30 17 1 11 18
M  V30 END BOND
M  V30 BEGIN COLLECTION
M  V30 MDLV30/STERAC1 ATOMS=(1 5)
M  V30 END COLLECTION
M  V30 END CTAB
M  END
>  <Column 1>
1726

>  <level_0>
1887

>  <index>
1887

>  <Unnamed: 0>
1887

>  <NO.>
1899

>  <Name>
mecloralurea

>  <IUPAC_name>
1-methyl-3-(2-2-2-trichloro-1-hydroxyethyl)urea

>  <SMILES>
CNC(=O)NC(O)C(Cl)(Cl)Cl

>  <CID>
71808

>  <logBB>


>  <BBB+/BBB->
BBB+

>  <Inchi>
InChI=1S/C4H7Cl3N2O2/c1-8-3(11)9-2(10)4(5-6)7/h2-10H-1H3-(H2-8-9-11)

>  <threshold>
-1

>  <reference>
R1|R19|R6|R27|R27|R30|

>  <group>
B

>  <Class>
1

>  <ABC>
7.7

>  <ABCGG>
8.08

>  <nAcid>
0

>  <nBase>
0

>  <nAromAtom>
0

>  <nAromBond>
0

>  <nAtom>
18

>  <nHeavyAtom>
11

>  <nSpiro>
0

>  <nBridgehead>
0

>  <nHetero>
7

>  <nN>
2

>  <nO>
2

>  <nF>
0

>  <BalabanJ>
3.77

>  <BertzCT>
146.76

>  <nBonds>
17

>  <nBondsO>
10

>  <nBondsS>
16

>  <nBondsD>
1

>  <nBondsT>
0

>  <nBondsA>
0

>  <nBondsM>
1

>  <nBondsKS>
16

>  <nBondsKD>
1

>  <RNCG>
0.25

>  <RPCG>
0.21

>  <FCSP3>
0.75

>  <SZ>
18.67

>  <Sm>
18.44

>  <Sv>
12.11

>  <Sse>
19.39

>  <Sp>
12.99

>  <Si>
20.91

>  <MZ>
1.04

>  <Mm>
1.02

>  <Mv>
0.67

>  <Mse>
1.08

>  <Mp>
0.72

>  <Mi>
1.16

>  <NsCH3>
1

>  <NdCH2>
0

>  <NssCH2>
0

>  <NtCH>
0

>  <NdsCH>
0

>  <NaaCH>
0

>  <NsssCH>
1

>  <NddC>
0

>  <NtsC>
0

>  <NdssC>
1

>  <NaasC>
0

>  <NaaaC>
0

>  <NssssC>
1

>  <NsNH3>
0

>  <NsNH2>
0

>  <NssNH2>
0

>  <NdNH>
0

>  <NssNH>
2

>  <NaaNH>
0

>  <NtN>
0

>  <NsssNH>
0

>  <NdsN>
0

>  <NaaN>
0

>  <NsssN>
0

>  <NddsN>
0

>  <NaasN>
0

>  <NssssN>
0

>  <NsOH>
1

>  <NdO>
1

>  <NssO>
0

>  <NaaO>
0

>  <NsF>
0

>  <NsSiH3>
0

>  <NssSiH2>
0

>  <NsssSiH>
0

>  <NssssSi>
0

>  <NsPH2>
0

>  <NssPH>
0

>  <NsssP>
0

>  <NdsssP>
0

>  <NsssssP>
0

>  <NsSH>
0

>  <NdS>
0

>  <NssS>
0

>  <NaaS>
0

>  <NdssS>
0

>  <NddssS>
0

>  <NsCl>
3

>  <NsBr>
0

>  <NsI>
0

>  <fragCpx>
10.07

>  <fMF>
0

>  <nHBAcc>
2

>  <nHBDon>
3

>  <Kier1>
11

>  <Kier2>
4.13

>  <Lipinski>
1

>  <GhoseFilter>
0

>  <FilterItLogS>
-1.7

>  <VMcGowan>
131.34

>  <LabuteASA>
78.8

>  <PEOE_VSA1>
15.74

>  <PEOE_VSA2>
0

>  <PEOE_VSA3>
4.79

>  <PEOE_VSA4>
0

>  <PEOE_VSA5>
0

>  <PEOE_VSA6>
34.8

>  <PEOE_VSA7>
0

>  <PEOE_VSA8>
7.05

>  <PEOE_VSA9>
0

>  <PEOE_VSA10>
0

>  <PEOE_VSA11>
6.23

>  <PEOE_VSA12>
3.79

>  <PEOE_VSA13>
0

>  <SMR_VSA1>
9.9

>  <SMR_VSA2>
0

>  <SMR_VSA3>
10.63

>  <SMR_VSA4>
0

>  <SMR_VSA5>
10.02

>  <SMR_VSA6>
7.05

>  <SMR_VSA7>
0

>  <SMR_VSA8>
0

>  <SMR_VSA9>
0

>  <SlogP_VSA1>
10.63

>  <SlogP_VSA2>
28.21

>  <SlogP_VSA3>
0

>  <SlogP_VSA4>
0

>  <SlogP_VSA5>
0

>  <SlogP_VSA6>
0

>  <SlogP_VSA7>
0

>  <SlogP_VSA8>
0

>  <SlogP_VSA9>
0

>  <SlogP_VSA10>
4.79

>  <SlogP_VSA11>
0

>  <EState_VSA1>
16.05

>  <EState_VSA2>
0

>  <EState_VSA3>
0

>  <EState_VSA4>
0

>  <EState_VSA5>
7.05

>  <EState_VSA6>
0

>  <EState_VSA7>
5.32

>  <EState_VSA8>
5.32

>  <EState_VSA9>
39.91

>  <EState_VSA10>
4.79

>  <VSA_EState1>
-1.91

>  <VSA_EState2>
10.51

>  <VSA_EState3>
13.08

>  <VSA_EState4>
0

>  <VSA_EState5>
0

>  <VSA_EState6>
-0.62

>  <VSA_EState7>
-1.52

>  <VSA_EState8>
0

>  <VSA_EState9>
1.38

>  <apol>
21.69

>  <bpol>
10.56

>  <nRing>
0

>  <nHRing>
0

>  <naRing>
0

>  <naHRing>
0

>  <nARing 2>
0

>  <nAHRing 2>
0

>  <nFRing>
0

>  <nFHRing>
0

>  <nFaRing>
0

>  <nFaHRing>
0

>  <nFARing 2>
0

>  <nFAHRing 2>
0

>  <nRot>
1

>  <SLogP>
0.6

>  <SMR>
43.89

>  <TopoPSA(NO)>
61.36

>  <TopoPSA>
61.36

>  <JGI1>
0.45

>  <JGI2>
0.13

>  <JGI3>
0.05

>  <JGI4>
0.07

>  <JGI5>
0.02

>  <Diameter>
6

>  <Radius>
3

>  <TMWC10>
84.39

>  <TSRW10>
40.42

>  <MW>
219.96

>  <AMW>
12.22

>  <WPath>
164

>  <WPol>
12

>  <Zagreb1>
48

>  <Zagreb2>
50

>  <mZagreb2>
2.5

>  <yes>


>  <nAR-cont>
0.336376

>  <nHA-cont>
0.720786536

>  <MWHBN>
0.337130581

>  <MWHBN-cont>
0.71750914

>  <TPSA-cont>
0.571669098

>  <pka_cont>
0.97

>  <yes.1>


>  <BBB_SCORE>
3.761764442

>  <MMFF94 Energy>
-57.694

$$$$
Compound 1450
Actelion Java MolfileCreator 2.0

  0  0  0  0  0  0              0 V3000
M  V30 BEGIN CTAB
M  V30 COUNTS 32 34 0 0 0
M  V30 BEGIN ATOM
M  V30 1 O -1.0461 1.4487 3.141 0
M  V30 2 C -0.7962 1.0482 2.014 0
M  V30 3 O -1.7247 0.9473 1.028 0
M  V30 4 C 0.5616 0.6113 1.5322 0 CFG=1
M  V30 5 C -1.1756 0.3377 -0.1457 0 CFG=1
M  V30 6 C 0.3283 0.2642 0.0448 0 CFG=1
M  V30 7 C 1.5943 1.7703 1.4581 0 CFG=2
M  V30 8 C 1.0432 -0.5842 2.3475 0
M  V30 9 O -1.7311 -0.9779 -0.2662 0
M  V30 10 C 1.1748 1.336 -0.6941 0 CFG=2
M  V30 11 C 0.9369 3.0014 0.8677 0
M  V30 12 C 2.4096 1.3672 0.2188 0
M  V30 13 C -1.5845 -1.5311 -1.4921 0
M  V30 14 C 0.6675 2.7306 -0.4175 0
M  V30 15 O -0.9937 -1.016 -2.4282 0
M  V30 16 N -2.1904 -2.7479 -1.5075 0
M  V30 17 C -2.2282 -3.5837 -2.676 0
M  V30 18 H -1.4747 0.9483 -1.0058 0
M  V30 19 H 0.731 -0.7256 -0.2057 0
M  V30 20 H 2.1852 1.9573 2.3561 0
M  V30 21 H 1.9758 -0.9995 1.9532 0
M  V30 22 H 1.2192 -0.2978 3.3904 0
M  V30 23 H 0.2958 -1.3859 2.352 0
M  V30 24 H 1.3881 1.1276 -1.7433 0
M  V30 25 H 0.6816 3.9016 1.4088 0
M  V30 26 H 3.1565 2.1155 -0.078 0
M  V30 27 H 2.9073 0.3962 0.312 0
M  V30 28 H 0.1629 3.3759 -1.1219 0
M  V30 29 H -2.6727 -3.0238 -0.663 0
M  V30 30 H -1.3243 -3.4497 -3.276 0
M  V30 31 H -3.104 -3.3097 -3.2696 0
M  V30 32 H -2.3128 -4.6247 -2.3562 0
M  V30 END ATOM
M  V30 BEGIN BOND
M  V30 1 2 1 2
M  V30 2 1 2 3
M  V30 3 1 2 4
M  V30 4 1 3 5
M  V30 5 1 4 6
M  V30 6 1 4 7
M  V30 7 1 4 8
M  V30 8 1 5 9
M  V30 9 1 6 10
M  V30 10 1 7 11
M  V30 11 1 7 12
M  V30 12 1 9 13
M  V30 13 1 10 14
M  V30 14 2 13 15
M  V30 15 1 13 16
M  V30 16 1 16 17
M  V30 17 1 5 6
M  V30 18 1 10 12
M  V30 19 2 11 14
M  V30 20 1 5 18
M  V30 21 1 6 19
M  V30 22 1 7 20
M  V30 23 1 8 21
M  V30 24 1 8 22
M  V30 25 1 8 23
M  V30 26 1 10 24
M  V30 27 1 11 25
M  V30 28 1 12 26
M  V30 29 1 12 27
M  V30 30 1 14 28
M  V30 31 1 16 29
M  V30 32 1 17 30
M  V30 33 1 17 31
M  V30 34 1 17 32
M  V30 END BOND
M  V30 BEGIN COLLECTION
M  V30 MDLV30/STEABS ATOMS=(5 4 5 6 7 10)
M  V30 END COLLECTION
M  V30 END CTAB
M  END
>  <Column 1>
1727

>  <level_0>
1888

>  <index>
1888

>  <Unnamed: 0>
1888

>  <NO.>
1900

>  <Name>
moxadolen

>  <IUPAC_name>
[(1r-2s-3r-6r-7s)-6-methyl-5-oxo-4-oxatricyclo[5.2.1.02-6]dec-8-en-3-yl] n-methylcarbamate

>  <SMILES>
CNC(=O)O[C@H]1OC(=O)[C@]2(C)[C@@H]3C=C[C@@H](C3)[C@H]12

>  <CID>
71145

>  <logBB>


>  <BBB+/BBB->
BBB+

>  <Inchi>
InChI=1S/C12H15NO4/c1-12-7-4-3-6(5-7)8(12)9(16-10(12)14)17-11(15)13-2/h3-4-6-9H-5H2-1-2H3-(H-13-15)/t6--7+-8+-9+-12+/m0/s1

>  <threshold>
-1

>  <reference>
R1|R27|R30|

>  <group>
B

>  <Class>
-1

>  <ABC>
13.55

>  <ABCGG>
12.7

>  <nAcid>
0

>  <nBase>
0

>  <nAromAtom>
0

>  <nAromBond>
0

>  <nAtom>
32

>  <nHeavyAtom>
17

>  <nSpiro>
0

>  <nBridgehead>
2

>  <nHetero>
5

>  <nN>
1

>  <nO>
4

>  <nF>
0

>  <BalabanJ>
1.81

>  <BertzCT>
418.73

>  <nBonds>
34

>  <nBondsO>
19

>  <nBondsS>
31

>  <nBondsD>
3

>  <nBondsT>
0

>  <nBondsA>
0

>  <nBondsM>
3

>  <nBondsKS>
31

>  <nBondsKD>
3

>  <RNCG>
0.22

>  <RPCG>
0.21

>  <FCSP3>
0.67

>  <SZ>
21

>  <Sm>
19.75

>  <Sv>
19.68

>  <Sse>
32.64

>  <Sp>
20.57

>  <Si>
36.24

>  <MZ>
0.66

>  <Mm>
0.62

>  <Mv>
0.62

>  <Mse>
1.02

>  <Mp>
0.64

>  <Mi>
1.13

>  <NsCH3>
2

>  <NdCH2>
0

>  <NssCH2>
1

>  <NtCH>
0

>  <NdsCH>
2

>  <NaaCH>
0

>  <NsssCH>
4

>  <NddC>
0

>  <NtsC>
0

>  <NdssC>
2

>  <NaasC>
0

>  <NaaaC>
0

>  <NssssC>
1

>  <NsNH3>
0

>  <NsNH2>
0

>  <NssNH2>
0

>  <NdNH>
0

>  <NssNH>
1

>  <NaaNH>
0

>  <NtN>
0

>  <NsssNH>
0

>  <NdsN>
0

>  <NaaN>
0

>  <NsssN>
0

>  <NddsN>
0

>  <NaasN>
0

>  <NssssN>
0

>  <NsOH>
0

>  <NdO>
2

>  <NssO>
2

>  <NaaO>
0

>  <NsF>
0

>  <NsSiH3>
0

>  <NssSiH2>
0

>  <NsssSiH>
0

>  <NssssSi>
0

>  <NsPH2>
0

>  <NssPH>
0

>  <NsssP>
0

>  <NdsssP>
0

>  <NsssssP>
0

>  <NsSH>
0

>  <NdS>
0

>  <NssS>
0

>  <NaaS>
0

>  <NdssS>
0

>  <NddssS>
0

>  <NsCl>
0

>  <NsBr>
0

>  <NsI>
0

>  <fragCpx>
89.05

>  <fMF>
0.31

>  <nHBAcc>
4

>  <nHBDon>
1

>  <Kier1>
12.06

>  <Kier2>
4

>  <Lipinski>
1

>  <GhoseFilter>
1

>  <FilterItLogS>
-1.12

>  <VMcGowan>
167.92

>  <LabuteASA>
99.15

>  <PEOE_VSA1>
14.79

>  <PEOE_VSA2>
4.79

>  <PEOE_VSA3>
4.79

>  <PEOE_VSA4>
0

>  <PEOE_VSA5>
0

>  <PEOE_VSA6>
12.15

>  <PEOE_VSA7>
25.18

>  <PEOE_VSA8>
7.05

>  <PEOE_VSA9>
11.33

>  <PEOE_VSA10>
0

>  <PEOE_VSA11>
0

>  <PEOE_VSA12>
0

>  <PEOE_VSA13>
6.29

>  <SMR_VSA1>
19.06

>  <SMR_VSA2>
0

>  <SMR_VSA3>
5.32

>  <SMR_VSA4>
23.17

>  <SMR_VSA5>
19.63

>  <SMR_VSA6>
7.05

>  <SMR_VSA7>
12.15

>  <SMR_VSA8>
0

>  <SMR_VSA9>
0

>  <SlogP_VSA1>
5.32

>  <SlogP_VSA2>
25.4

>  <SlogP_VSA3>
14.27

>  <SlogP_VSA4>
23.17

>  <SlogP_VSA5>
13.34

>  <SlogP_VSA6>
12.15

>  <SlogP_VSA7>
0

>  <SlogP_VSA8>
0

>  <SlogP_VSA9>
0

>  <SlogP_VSA10>
4.79

>  <SlogP_VSA11>
0

>  <EState_VSA1>
17.8

>  <EState_VSA2>
23.72

>  <EState_VSA3>
0

>  <EState_VSA4>
6.42

>  <EState_VSA5>
7.05

>  <EState_VSA6>
0

>  <EState_VSA7>
6.92

>  <EState_VSA8>
17.47

>  <EState_VSA9>
9.47

>  <EState_VSA10>
9.59

>  <VSA_EState1>
10.36

>  <VSA_EState2>
23.21

>  <VSA_EState3>
2.37

>  <VSA_EState4>
-0.52

>  <VSA_EState5>
0.23

>  <VSA_EState6>
0

>  <VSA_EState7>
3.86

>  <VSA_EState8>
1.92

>  <VSA_EState9>
1.49

>  <apol>
34.35

>  <bpol>
20.83

>  <nRing>
3

>  <nHRing>
1

>  <naRing>
0

>  <naHRing>
0

>  <nARing 2>
3

>  <nAHRing 2>
1

>  <nFRing>
1

>  <nFHRing>
1

>  <nFaRing>
0

>  <nFaHRing>
0

>  <nFARing 2>
1

>  <nFAHRing 2>
1

>  <nRot>
1

>  <SLogP>
1.05

>  <SMR>
57.75

>  <TopoPSA(NO)>
64.63

>  <TopoPSA>
64.63

>  <JGI1>
0.26

>  <JGI2>
0.1

>  <JGI3>
0.08

>  <JGI4>
0.04

>  <JGI5>
0.05

>  <Diameter>
8

>  <Radius>
4

>  <TMWC10>
111.68

>  <TSRW10>
68.58

>  <MW>
237.1

>  <AMW>
7.41

>  <WPath>
467

>  <WPol>
28

>  <Zagreb1>
98

>  <Zagreb2>
124

>  <mZagreb2>
3.64

>  <yes>


>  <nAR-cont>
0.691115

>  <nHA-cont>
0.976740822

>  <MWHBN>
0.324716403

>  <MWHBN-cont>
0.761164749

>  <TPSA-cont>
0.548842467

>  <pka_cont>
0.97

>  <yes.1>


>  <BBB_SCORE>
4.39228788

>  <MMFF94 Energy>
-53.593

$$$$
Compound 1451
Actelion Java MolfileCreator 2.0

  0  0  0  0  0  0              0 V3000
M  V30 BEGIN CTAB
M  V30 COUNTS 29 29 0 0 0
M  V30 BEGIN ATOM
M  V30 1 O -0.7809 1.2497 -2.0314 0
M  V30 2 C -0.0012 0.8312 -1.171 0
M  V30 3 C -0.534 -0.041 -0.0801 0
M  V30 4 C 1.4921 1.2102 -1.1852 0 CFG=1
M  V30 5 C -1.7814 -0.6509 -0.2739 0
M  V30 6 C 0.1451 -0.2554 1.1223 0
M  V30 7 N 1.9531 1.1272 -2.5852 0
M  V30 8 C 1.6309 2.6038 -0.5719 0
M  V30 9 C -2.338 -1.4752 0.7114 0
M  V30 10 C -0.4156 -1.0798 2.1043 0
M  V30 11 C 3.327 1.5499 -2.7871 0
M  V30 12 C -1.6546 -1.6943 1.9059 0
M  V30 13 O -2.08 -2.4709 2.9472 0
M  V30 14 C -3.3348 -3.1229 2.7922 0
M  V30 15 H 2.066 0.4791 -0.6085 0
M  V30 16 H -2.3297 -0.4892 -1.2012 0
M  V30 17 H 1.1012 0.2107 1.3363 0
M  V30 18 H 1.3176 1.6787 -3.1688 0
M  V30 19 H 2.6814 2.8795 -0.4355 0
M  V30 20 H 1.1499 2.6505 0.4112 0
M  V30 21 H 1.1545 3.3656 -1.1997 0
M  V30 22 H -3.3045 -1.9257 0.5108 0
M  V30 23 H 0.1177 -1.2431 3.0387 0
M  V30 24 H 3.6244 1.3302 -3.8172 0
M  V30 25 H 3.4528 2.6258 -2.6333 0
M  V30 26 H 4.0118 1.0084 -2.1266 0
M  V30 27 H -4.1464 -2.3958 2.6837 0
M  V30 28 H -3.5254 -3.7011 3.7015 0
M  V30 29 H -3.3147 -3.8229 1.9504 0
M  V30 END ATOM
M  V30 BEGIN BOND
M  V30 1 2 1 2
M  V30 2 1 2 3
M  V30 3 1 2 4
M  V30 4 2 3 5
M  V30 5 1 3 6
M  V30 6 1 4 7
M  V30 7 1 4 8
M  V30 8 1 5 9
M  V30 9 2 6 10
M  V30 10 1 7 11
M  V30 11 2 9 12
M  V30 12 1 12 13
M  V30 13 1 13 14
M  V30 14 1 10 12
M  V30 15 1 4 15
M  V30 16 1 5 16
M  V30 17 1 6 17
M  V30 18 1 7 18
M  V30 19 1 8 19
M  V30 20 1 8 20
M  V30 21 1 8 21
M  V30 22 1 9 22
M  V30 23 1 10 23
M  V30 24 1 11 24
M  V30 25 1 11 25
M  V30 26 1 11 26
M  V30 27 1 14 27
M  V30 28 1 14 28
M  V30 29 1 14 29
M  V30 END BOND
M  V30 BEGIN COLLECTION
M  V30 MDLV30/STERAC1 ATOMS=(1 4)
M  V30 END COLLECTION
M  V30 END CTAB
M  END
>  <Column 1>
1728

>  <level_0>
1889

>  <index>
1889

>  <Unnamed: 0>
1889

>  <NO.>
1901

>  <Name>
methoxyphedrine

>  <IUPAC_name>
1-(4-methoxyphenyl)-2-(methylamino)propan-1-one

>  <SMILES>
CNC(C)C(=O)c1ccc(OC)cc1

>  <CID>
216281

>  <logBB>


>  <BBB+/BBB->
BBB-

>  <Inchi>
InChI=1S/C11H15NO2/c1-8(12-2)11(13)9-4-6-10(14-3)7-5-9/h4-8-12H-1-3H3

>  <threshold>
-1

>  <reference>
R1|R19|R6|R27|R27|R30|

>  <group>
B

>  <Class>
-1

>  <ABC>
10.04

>  <ABCGG>
9.4

>  <nAcid>
0

>  <nBase>
1

>  <nAromAtom>
6

>  <nAromBond>
6

>  <nAtom>
29

>  <nHeavyAtom>
14

>  <nSpiro>
0

>  <nBridgehead>
0

>  <nHetero>
3

>  <nN>
1

>  <nO>
2

>  <nF>
0

>  <BalabanJ>
2.33

>  <BertzCT>
305.57

>  <nBonds>
29

>  <nBondsO>
14

>  <nBondsS>
22

>  <nBondsD>
1

>  <nBondsT>
0

>  <nBondsA>
6

>  <nBondsM>
7

>  <nBondsKS>
25

>  <nBondsKD>
4

>  <RNCG>
0.38

>  <RPCG>
0.14

>  <FCSP3>
0.36

>  <SZ>
17.33

>  <Sm>
16.09

>  <Sv>
17.25

>  <Sse>
28.98

>  <Sp>
18.61

>  <Si>
32.82

>  <MZ>
0.6

>  <Mm>
0.55

>  <Mv>
0.59

>  <Mse>
1

>  <Mp>
0.64

>  <Mi>
1.13

>  <NsCH3>
3

>  <NdCH2>
0

>  <NssCH2>
0

>  <NtCH>
0

>  <NdsCH>
0

>  <NaaCH>
4

>  <NsssCH>
1

>  <NddC>
0

>  <NtsC>
0

>  <NdssC>
1

>  <NaasC>
2

>  <NaaaC>
0

>  <NssssC>
0

>  <NsNH3>
0

>  <NsNH2>
0

>  <NssNH2>
0

>  <NdNH>
0

>  <NssNH>
1

>  <NaaNH>
0

>  <NtN>
0

>  <NsssNH>
0

>  <NdsN>
0

>  <NaaN>
0

>  <NsssN>
0

>  <NddsN>
0

>  <NaasN>
0

>  <NssssN>
0

>  <NsOH>
0

>  <NdO>
1

>  <NssO>
1

>  <NaaO>
0

>  <NsF>
0

>  <NsSiH3>
0

>  <NssSiH2>
0

>  <NsssSiH>
0

>  <NssssSi>
0

>  <NsPH2>
0

>  <NssPH>
0

>  <NsssP>
0

>  <NdsssP>
0

>  <NsssssP>
0

>  <NsSH>
0

>  <NdS>
0

>  <NssS>
0

>  <NaaS>
0

>  <NdssS>
0

>  <NddssS>
0

>  <NsCl>
0

>  <NsBr>
0

>  <NsI>
0

>  <fragCpx>
14.03

>  <fMF>
0.21

>  <nHBAcc>
3

>  <nHBDon>
1

>  <Kier1>
12.07

>  <Kier2>
5.78

>  <Lipinski>
1

>  <GhoseFilter>
1

>  <FilterItLogS>
-2.75

>  <VMcGowan>
159.51

>  <LabuteASA>
84.08

>  <PEOE_VSA1>
10.05

>  <PEOE_VSA2>
4.79

>  <PEOE_VSA3>
0

>  <PEOE_VSA4>
0

>  <PEOE_VSA5>
0

>  <PEOE_VSA6>
0

>  <PEOE_VSA7>
38.24

>  <PEOE_VSA8>
5.56

>  <PEOE_VSA9>
13.15

>  <PEOE_VSA10>
5.75

>  <PEOE_VSA11>
5.78

>  <PEOE_VSA12>
0

>  <PEOE_VSA13>
0

>  <SMR_VSA1>
9.53

>  <SMR_VSA2>
0

>  <SMR_VSA3>
5.32

>  <SMR_VSA4>
0

>  <SMR_VSA5>
12.97

>  <SMR_VSA6>
14.16

>  <SMR_VSA7>
29.83

>  <SMR_VSA8>
0

>  <SMR_VSA9>
5.75

>  <SlogP_VSA1>
10.05

>  <SlogP_VSA2>
25.98

>  <SlogP_VSA3>
0

>  <SlogP_VSA4>
0

>  <SlogP_VSA5>
17.28

>  <SlogP_VSA6>
24.27

>  <SlogP_VSA7>
0

>  <SlogP_VSA8>
0

>  <SlogP_VSA9>
0

>  <SlogP_VSA10>
0

>  <SlogP_VSA11>
5.75

>  <EState_VSA1>
0

>  <EState_VSA2>
11.83

>  <EState_VSA3>
5.56

>  <EState_VSA4>
5.75

>  <EState_VSA5>
0

>  <EState_VSA6>
38.42

>  <EState_VSA7>
6.92

>  <EState_VSA8>
5.32

>  <EState_VSA9>
4.74

>  <EState_VSA10>
4.79

>  <VSA_EState1>
5.01

>  <VSA_EState2>
11.67

>  <VSA_EState3>
2.91

>  <VSA_EState4>
0.7

>  <VSA_EState5>
0.86

>  <VSA_EState6>
6.97

>  <VSA_EState7>
0

>  <VSA_EState8>
1.84

>  <VSA_EState9>
3.37

>  <apol>
31.08

>  <bpol>
18.22

>  <nRing>
1

>  <nHRing>
0

>  <naRing>
1

>  <naHRing>
0

>  <nARing 2>
0

>  <nAHRing 2>
0

>  <nFRing>
0

>  <nFHRing>
0

>  <nFaRing>
0

>  <nFaHRing>
0

>  <nFARing 2>
0

>  <nFAHRing 2>
0

>  <nRot>
4

>  <SLogP>
1.49

>  <SMR>
55.85

>  <TopoPSA(NO)>
38.33

>  <TopoPSA>
38.33

>  <JGI1>
0.21

>  <JGI2>
0.11

>  <JGI3>
0.05

>  <JGI4>
0.04

>  <JGI5>
0.04

>  <Diameter>
9

>  <Radius>
5

>  <TMWC10>
95.09

>  <TSRW10>
44.9

>  <MW>
193.11

>  <AMW>
6.66

>  <WPath>
323

>  <WPol>
19

>  <Zagreb1>
64

>  <Zagreb2>
72

>  <mZagreb2>
3.39

>  <yes>


>  <nAR-cont>
0.336376

>  <nHA-cont>
0.887625254

>  <MWHBN>
0.287844284

>  <MWHBN-cont>
0.875470103

>  <TPSA-cont>
0.732432798

>  <pka_cont>
0.97

>  <yes.1>


>  <BBB_SCORE>
4.487072006

>  <MMFF94 Energy>
73.424

$$$$
Compound 1452
Actelion Java MolfileCreator 2.0

  0  0  0  0  0  0              0 V3000
M  V30 BEGIN CTAB
M  V30 COUNTS 28 28 0 0 0
M  V30 BEGIN ATOM
M  V30 1 O 1.2442 -1.3998 -4.2822 0
M  V30 2 C 1.149 -1.1013 -2.9553 0
M  V30 3 C 1.792 0.0422 -2.5008 0
M  V30 4 C 0.4364 -1.9116 -2.0794 0
M  V30 5 C 1.7231 0.3843 -1.1487 0
M  V30 6 C 0.3656 -1.5661 -0.7272 0
M  V30 7 C 1.0043 -0.4126 -0.2418 0
M  V30 8 C 0.921 -0.0077 1.2187 0
M  V30 9 O 0.9661 -1.1869 2.0381 0
M  V30 10 C -0.3396 0.8269 1.6262 0
M  V30 11 N -1.5384 -0.0493 1.6318 0
M  V30 12 C -0.5143 2.0828 0.7708 0
M  V30 13 C -2.6752 0.5487 2.3203 0
M  V30 14 H 0.7907 -2.2439 -4.4403 0
M  V30 15 H 2.3502 0.6635 -3.1952 0
M  V30 16 H -0.063 -2.8117 -2.4225 0
M  V30 17 H 2.2383 1.2796 -0.8079 0
M  V30 18 H -0.1831 -2.2127 -0.0453 0
M  V30 19 H 1.8203 0.5657 1.4751 0
M  V30 20 H 0.0324 -1.334 2.2947 0
M  V30 21 H -0.1657 1.1378 2.6657 0
M  V30 22 H -1.8023 -0.244 0.663 0
M  V30 23 H 0.4217 2.6492 0.721 0
M  V30 24 H -0.8226 1.8408 -0.2516 0
M  V30 25 H -1.2708 2.7504 1.1958 0
M  V30 26 H -3.4926 -0.178 2.3608 0
M  V30 27 H -3.0503 1.4359 1.802 0
M  V30 28 H -2.4222 0.8129 3.352 0
M  V30 END ATOM
M  V30 BEGIN BOND
M  V30 1 1 1 2
M  V30 2 2 2 3
M  V30 3 1 2 4
M  V30 4 1 3 5
M  V30 5 2 4 6
M  V30 6 2 5 7
M  V30 7 1 7 8
M  V30 8 1 8 9
M  V30 9 1 8 10
M  V30 10 1 10 11
M  V30 11 1 10 12
M  V30 12 1 11 13
M  V30 13 1 6 7
M  V30 14 1 1 14
M  V30 15 1 3 15
M  V30 16 1 4 16
M  V30 17 1 5 17
M  V30 18 1 6 18
M  V30 19 1 8 19
M  V30 20 1 9 20
M  V30 21 1 10 21
M  V30 22 1 11 22
M  V30 23 1 12 23
M  V30 24 1 12 24
M  V30 25 1 12 25
M  V30 26 1 13 26
M  V30 27 1 13 27
M  V30 28 1 13 28
M  V30 END BOND
M  V30 END CTAB
M  END
>  <Column 1>
1729

>  <level_0>
1890

>  <index>
1890

>  <Unnamed: 0>
1890

>  <NO.>
1902

>  <Name>
hydroxyephedrine

>  <IUPAC_name>
4-[1-hydroxy-2-(methylamino)propyl]phenol

>  <SMILES>
CNC(C)C(O)c1ccc(O)cc1

>  <CID>
9701

>  <logBB>


>  <BBB+/BBB->
BBB-

>  <Inchi>
InChI=1S/C10H15NO2/c1-7(11-2)10(13)8-3-5-9(12)6-4-8/h3-7-10-13H-1-2H3

>  <threshold>
-1

>  <reference>
R1|R19|R6|R14|R27|R27|R30|

>  <group>
B

>  <Class>
-1

>  <ABC>
9.44

>  <ABCGG>
8.92

>  <nAcid>
0

>  <nBase>
1

>  <nAromAtom>
6

>  <nAromBond>
6

>  <nAtom>
28

>  <nHeavyAtom>
13

>  <nSpiro>
0

>  <nBridgehead>
0

>  <nHetero>
3

>  <nN>
1

>  <nO>
2

>  <nF>
0

>  <BalabanJ>
2.35

>  <BertzCT>
258.13

>  <nBonds>
28

>  <nBondsO>
13

>  <nBondsS>
22

>  <nBondsD>
0

>  <nBondsT>
0

>  <nBondsA>
6

>  <nBondsM>
6

>  <nBondsKS>
25

>  <nBondsKD>
3

>  <RNCG>
0.35

>  <RPCG>
0.2

>  <FCSP3>
0.4

>  <SZ>
16.33

>  <Sm>
15.09

>  <Sv>
16.25

>  <Sse>
27.98

>  <Sp>
17.61

>  <Si>
31.82

>  <MZ>
0.58

>  <Mm>
0.54

>  <Mv>
0.58

>  <Mse>
1

>  <Mp>
0.63

>  <Mi>
1.14

>  <NsCH3>
2

>  <NdCH2>
0

>  <NssCH2>
0

>  <NtCH>
0

>  <NdsCH>
0

>  <NaaCH>
4

>  <NsssCH>
2

>  <NddC>
0

>  <NtsC>
0

>  <NdssC>
0

>  <NaasC>
2

>  <NaaaC>
0

>  <NssssC>
0

>  <NsNH3>
0

>  <NsNH2>
0

>  <NssNH2>
0

>  <NdNH>
0

>  <NssNH>
1

>  <NaaNH>
0

>  <NtN>
0

>  <NsssNH>
0

>  <NdsN>
0

>  <NaaN>
0

>  <NsssN>
0

>  <NddsN>
0

>  <NaasN>
0

>  <NssssN>
0

>  <NsOH>
2

>  <NdO>
0

>  <NssO>
0

>  <NaaO>
0

>  <NsF>
0

>  <NsSiH3>
0

>  <NssSiH2>
0

>  <NsssSiH>
0

>  <NssssSi>
0

>  <NsPH2>
0

>  <NssPH>
0

>  <NsssP>
0

>  <NdsssP>
0

>  <NsssssP>
0

>  <NsSH>
0

>  <NdS>
0

>  <NssS>
0

>  <NaaS>
0

>  <NdssS>
0

>  <NddssS>
0

>  <NsCl>
0

>  <NsBr>
0

>  <NsI>
0

>  <fragCpx>
13.03

>  <fMF>
0.21

>  <nHBAcc>
3

>  <nHBDon>
3

>  <Kier1>
11.08

>  <Kier2>
5.02

>  <Lipinski>
1

>  <GhoseFilter>
1

>  <FilterItLogS>
-1.56

>  <VMcGowan>
149.72

>  <LabuteASA>
78.03

>  <PEOE_VSA1>
15.53

>  <PEOE_VSA2>
0

>  <PEOE_VSA3>
0

>  <PEOE_VSA4>
0

>  <PEOE_VSA5>
0

>  <PEOE_VSA6>
12.13

>  <PEOE_VSA7>
31.67

>  <PEOE_VSA8>
6.04

>  <PEOE_VSA9>
6.1

>  <PEOE_VSA10>
5.75

>  <PEOE_VSA11>
0

>  <PEOE_VSA12>
0

>  <PEOE_VSA13>
0

>  <SMR_VSA1>
10.21

>  <SMR_VSA2>
0

>  <SMR_VSA3>
5.32

>  <SMR_VSA4>
0

>  <SMR_VSA5>
19.07

>  <SMR_VSA6>
7.05

>  <SMR_VSA7>
29.83

>  <SMR_VSA8>
0

>  <SMR_VSA9>
5.75

>  <SlogP_VSA1>
5.32

>  <SlogP_VSA2>
23.3

>  <SlogP_VSA3>
0

>  <SlogP_VSA4>
0

>  <SlogP_VSA5>
18.59

>  <SlogP_VSA6>
24.27

>  <SlogP_VSA7>
0

>  <SlogP_VSA8>
0

>  <SlogP_VSA9>
0

>  <SlogP_VSA10>
0

>  <SlogP_VSA11>
5.75

>  <EState_VSA1>
6.1

>  <EState_VSA2>
11.79

>  <EState_VSA3>
0

>  <EState_VSA4>
5.56

>  <EState_VSA5>
0

>  <EState_VSA6>
31.31

>  <EState_VSA7>
6.92

>  <EState_VSA8>
5.32

>  <EState_VSA9>
5.11

>  <EState_VSA10>
5.11

>  <VSA_EState1>
0

>  <VSA_EState2>
0

>  <VSA_EState3>
21.74

>  <VSA_EState4>
0.81

>  <VSA_EState5>
0.22

>  <VSA_EState6>
6.58

>  <VSA_EState7>
-0.54

>  <VSA_EState8>
1.9

>  <VSA_EState9>
1.8

>  <apol>
29.41

>  <bpol>
15.62

>  <nRing>
1

>  <nHRing>
0

>  <naRing>
1

>  <naHRing>
0

>  <nARing 2>
0

>  <nAHRing 2>
0

>  <nFRing>
0

>  <nFHRing>
0

>  <nFaRing>
0

>  <nFaHRing>
0

>  <nFARing 2>
0

>  <nFAHRing 2>
0

>  <nRot>
3

>  <SLogP>
1.03

>  <SMR>
51.59

>  <TopoPSA(NO)>
52.49

>  <TopoPSA>
52.49

>  <JGI1>
0.23

>  <JGI2>
0.12

>  <JGI3>
0.05

>  <JGI4>
0.05

>  <JGI5>
0.03

>  <Diameter>
8

>  <Radius>
4

>  <TMWC10>
92.4

>  <TSRW10>
43.58

>  <MW>
181.11

>  <AMW>
6.47

>  <WPath>
256

>  <WPol>
17

>  <Zagreb1>
60

>  <Zagreb2>
67

>  <mZagreb2>
3.06

>  <yes>


>  <nAR-cont>
0.336376

>  <nHA-cont>
0.841215992

>  <MWHBN>
0.445841032

>  <MWHBN-cont>
0.300901792

>  <TPSA-cont>
0.633587206

>  <pka_cont>
0.97

>  <yes.1>


>  <BBB_SCORE>
3.381119092

>  <MMFF94 Energy>
42.886

$$$$
Compound 1453
Actelion Java MolfileCreator 2.0

  0  0  0  0  0  0              0 V3000
M  V30 BEGIN CTAB
M  V30 COUNTS 33 34 0 0 0
M  V30 BEGIN ATOM
M  V30 1 Br 5.8589 -1.4422 2.4046 0
M  V30 2 C 4.1824 -1.0515 1.6242 0
M  V30 3 C 4.0273 -1.1307 0.2425 0
M  V30 4 C 3.1092 -0.6903 2.4351 0
M  V30 5 C 2.7867 -0.8422 -0.333 0
M  V30 6 C 1.8694 -0.4021 1.8572 0
M  V30 7 C 1.6962 -0.4658 0.4669 0
M  V30 8 C 0.3633 -0.1803 -0.1278 0
M  V30 9 C -0.8686 -0.8385 0.3548 0
M  V30 10 C 0.3062 0.7188 -1.1359 0
M  V30 11 C -1.0784 -2.1992 0.1486 0
M  V30 12 C -1.8493 -0.1371 1.062 0
M  V30 13 C -0.8845 1.1405 -1.9465 0
M  V30 14 N -2.1757 -2.8734 0.5703 0
M  V30 15 C -2.9865 -0.8042 1.5109 0
M  V30 16 N -1.0847 2.5787 -1.7854 0
M  V30 17 C -3.1035 -2.1583 1.2416 0
M  V30 18 C -2.187 3.0449 -2.616 0
M  V30 19 H 4.8596 -1.4181 -0.394 0
M  V30 20 H 3.2235 -0.6311 3.5141 0
M  V30 21 H 2.6769 -0.9217 -1.4124 0
M  V30 22 H 1.0408 -0.1223 2.504 0
M  V30 23 H 1.2258 1.2123 -1.4523 0
M  V30 24 H -0.3488 -2.8064 -0.3805 0
M  V30 25 H -1.7286 0.9229 1.2679 0
M  V30 26 H -0.6682 0.9095 -2.9966 0
M  V30 27 H -1.7928 0.593 -1.6779 0
M  V30 28 H -3.7613 -0.2815 2.0603 0
M  V30 29 H -1.3015 2.7705 -0.8085 0
M  V30 30 H -3.9719 -2.7216 1.5713 0
M  V30 31 H -3.1286 2.5554 -2.3466 0
M  V30 32 H -1.9838 2.8721 -3.6776 0
M  V30 33 H -2.3167 4.1227 -2.4772 0
M  V30 END ATOM
M  V30 BEGIN BOND
M  V30 1 1 1 2
M  V30 2 2 2 3
M  V30 3 1 2 4
M  V30 4 1 3 5
M  V30 5 2 4 6
M  V30 6 2 5 7
M  V30 7 1 7 8
M  V30 8 1 8 9
M  V30 9 2 8 10
M  V30 10 2 9 11
M  V30 11 1 9 12
M  V30 12 1 10 13
M  V30 13 1 11 14
M  V30 14 2 12 15
M  V30 15 1 13 16
M  V30 16 2 14 17
M  V30 17 1 16 18
M  V30 18 1 6 7
M  V30 19 1 15 17
M  V30 20 1 3 19
M  V30 21 1 4 20
M  V30 22 1 5 21
M  V30 23 1 6 22
M  V30 24 1 10 23
M  V30 25 1 11 24
M  V30 26 1 12 25
M  V30 27 1 13 26
M  V30 28 1 13 27
M  V30 29 1 15 28
M  V30 30 1 16 29
M  V30 31 1 17 30
M  V30 32 1 18 31
M  V30 33 1 18 32
M  V30 34 1 18 33
M  V30 END BOND
M  V30 END CTAB
M  END
>  <Column 1>
1731

>  <level_0>
1892

>  <index>
1892

>  <Unnamed: 0>
1892

>  <NO.>
1904

>  <Name>
nomelidine

>  <IUPAC_name>
(z)-3-(4-bromophenyl)-n-methyl-3-pyridin-3-ylprop-2-en-1-amine

>  <SMILES>
CNC/C=C(/c1ccc(Br)cc1)c1cccnc1

>  <CID>
5378630

>  <logBB>


>  <BBB+/BBB->
BBB+

>  <Inchi>
InChI=1S/C15H15BrN2/c1-17-10-8-15(13-3-2-9-18-11-13)12-4-6-14(16)7-5-12/h2-9-11-17H-10H2-1H3/b15-8-

>  <threshold>
-1

>  <reference>
R1|R13|R6|R24|R27|R27|R30|R30|

>  <group>
B

>  <Class>
1

>  <ABC>
13.46

>  <ABCGG>
11.49

>  <nAcid>
0

>  <nBase>
1

>  <nAromAtom>
12

>  <nAromBond>
12

>  <nAtom>
33

>  <nHeavyAtom>
18

>  <nSpiro>
0

>  <nBridgehead>
0

>  <nHetero>
3

>  <nN>
2

>  <nO>
0

>  <nF>
0

>  <BalabanJ>
1.9

>  <BertzCT>
517.95

>  <nBonds>
34

>  <nBondsO>
19

>  <nBondsS>
21

>  <nBondsD>
1

>  <nBondsT>
0

>  <nBondsA>
12

>  <nBondsM>
13

>  <nBondsKS>
27

>  <nBondsKD>
7

>  <RNCG>
0.31

>  <RPCG>
0.12

>  <FCSP3>
0.13

>  <SZ>
25.67

>  <Sm>
25.24

>  <Sv>
21.87

>  <Sse>
32.66

>  <Sp>
24.13

>  <Si>
36.75

>  <MZ>
0.78

>  <Mm>
0.76

>  <Mv>
0.66

>  <Mse>
0.99

>  <Mp>
0.73

>  <Mi>
1.11

>  <NsCH3>
1

>  <NdCH2>
0

>  <NssCH2>
1

>  <NtCH>
0

>  <NdsCH>
1

>  <NaaCH>
8

>  <NsssCH>
0

>  <NddC>
0

>  <NtsC>
0

>  <NdssC>
1

>  <NaasC>
3

>  <NaaaC>
0

>  <NssssC>
0

>  <NsNH3>
0

>  <NsNH2>
0

>  <NssNH2>
0

>  <NdNH>
0

>  <NssNH>
1

>  <NaaNH>
0

>  <NtN>
0

>  <NsssNH>
0

>  <NdsN>
0

>  <NaaN>
1

>  <NsssN>
0

>  <NddsN>
0

>  <NaasN>
0

>  <NssssN>
0

>  <NsOH>
0

>  <NdO>
0

>  <NssO>
0

>  <NaaO>
0

>  <NsF>
0

>  <NsSiH3>
0

>  <NssSiH2>
0

>  <NsssSiH>
0

>  <NssssSi>
0

>  <NsPH2>
0

>  <NssPH>
0

>  <NsssP>
0

>  <NdsssP>
0

>  <NsssssP>
0

>  <NsSH>
0

>  <NdS>
0

>  <NssS>
0

>  <NaaS>
0

>  <NdssS>
0

>  <NddssS>
0

>  <NsCl>
0

>  <NsBr>
1

>  <NsI>
0

>  <fragCpx>
55.03

>  <fMF>
0.39

>  <nHBAcc>
2

>  <nHBDon>
1

>  <Kier1>
14.41

>  <Kier2>
7.56

>  <Lipinski>
1

>  <GhoseFilter>
1

>  <FilterItLogS>
-5.1

>  <VMcGowan>
207.85

>  <LabuteASA>
115.9

>  <PEOE_VSA1>
5.32

>  <PEOE_VSA2>
4.98

>  <PEOE_VSA3>
0

>  <PEOE_VSA4>
0

>  <PEOE_VSA5>
0

>  <PEOE_VSA6>
40.21

>  <PEOE_VSA7>
36.38

>  <PEOE_VSA8>
28.97

>  <PEOE_VSA9>
0

>  <PEOE_VSA10>
0

>  <PEOE_VSA11>
0

>  <PEOE_VSA12>
0

>  <PEOE_VSA13>
0

>  <SMR_VSA1>
0

>  <SMR_VSA2>
0

>  <SMR_VSA3>
10.3

>  <SMR_VSA4>
0

>  <SMR_VSA5>
0

>  <SMR_VSA6>
13.59

>  <SMR_VSA7>
70.47

>  <SMR_VSA8>
0

>  <SMR_VSA9>
0

>  <SlogP_VSA1>
5.32

>  <SlogP_VSA2>
18.58

>  <SlogP_VSA3>
0

>  <SlogP_VSA4>
0

>  <SlogP_VSA5>
11.13

>  <SlogP_VSA6>
59.34

>  <SlogP_VSA7>
0

>  <SlogP_VSA8>
5.57

>  <SlogP_VSA9>
0

>  <SlogP_VSA10>
0

>  <SlogP_VSA11>
0

>  <EState_VSA1>
0

>  <EState_VSA2>
0

>  <EState_VSA3>
0

>  <EState_VSA4>
16.58

>  <EState_VSA5>
11.14

>  <EState_VSA6>
6.2

>  <EState_VSA7>
19.31

>  <EState_VSA8>
62.64

>  <EState_VSA9>
0

>  <EState_VSA10>
0

>  <VSA_EState1>
1.09

>  <VSA_EState2>
4.19

>  <VSA_EState3>
3.14

>  <VSA_EState4>
3.53

>  <VSA_EState5>
0

>  <VSA_EState6>
12.37

>  <VSA_EState7>
5.87

>  <VSA_EState8>
0.83

>  <VSA_EState9>
1.94

>  <apol>
40.3

>  <bpol>
18.14

>  <nRing>
2

>  <nHRing>
1

>  <naRing>
2

>  <naHRing>
1

>  <nARing 2>
0

>  <nAHRing 2>
0

>  <nFRing>
0

>  <nFHRing>
0

>  <nFaRing>
0

>  <nFaHRing>
0

>  <nFARing 2>
0

>  <nFAHRing 2>
0

>  <nRot>
4

>  <SLogP>
3.5

>  <SMR>
79.38

>  <TopoPSA(NO)>
24.92

>  <TopoPSA>
24.92

>  <JGI1>
0.13

>  <JGI2>
0.07

>  <JGI3>
0.04

>  <JGI4>
0.03

>  <JGI5>
0.01

>  <Diameter>
9

>  <Radius>
5

>  <TMWC10>
107.22

>  <TSRW10>
50.36

>  <MW>
302.04

>  <AMW>
9.15

>  <WPath>
619

>  <WPol>
24

>  <Zagreb1>
86

>  <Zagreb2>
97

>  <mZagreb2>
4.22

>  <yes>


>  <nAR-cont>
0.336376

>  <nHA-cont>
0.991161285

>  <MWHBN>
0.17261917

>  <MWHBN-cont>
0.977890931

>  <TPSA-cont>
0.826042926

>  <pka_cont>
0.97

>  <yes.1>


>  <BBB_SCORE>
4.931459533

>  <MMFF94 Energy>
40.193

$$$$
Compound 1454
Actelion Java MolfileCreator 2.0

  0  0  0  0  0  0              0 V3000
M  V30 BEGIN CTAB
M  V30 COUNTS 32 33 0 0 0
M  V30 BEGIN ATOM
M  V30 1 Cl -2.0961 -1.7734 -1.6927 0
M  V30 2 C -2.1846 -1.124 -0.0867 0
M  V30 3 C -1.1442 -0.3699 0.5093 0
M  V30 4 C -3.365 -1.4111 0.6152 0
M  V30 5 C -1.3548 0.0607 1.839 0
M  V30 6 C 0.1697 -0.0311 -0.2378 0 CFG=1
M  V30 7 C -3.5411 -0.9646 1.9206 0
M  V30 8 C -2.5346 -0.2308 2.5324 0
M  V30 9 N 0.857 -1.2781 -0.6883 0
M  V30 10 C -0.1454 0.8667 -1.4881 0
M  V30 11 C 1.1668 0.8646 0.5702 0
M  V30 12 C 1.2162 -2.208 0.375 0
M  V30 13 O -1.2542 1.3463 -1.7372 0
M  V30 14 C 1.0406 1.2521 -2.3517 0
M  V30 15 C 2.4102 1.2978 -0.2226 0
M  V30 16 C 2.0354 2.034 -1.5074 0
M  V30 17 H -4.1552 -1.9878 0.1403 0
M  V30 18 H -0.6069 0.638 2.3753 0
M  V30 19 H -4.4598 -1.1893 2.4552 0
M  V30 20 H -2.6647 0.1216 3.553 0
M  V30 21 H 1.6938 -1.0639 -1.2227 0
M  V30 22 H 1.4974 0.3637 1.4878 0
M  V30 23 H 0.6549 1.7838 0.8897 0
M  V30 24 H 0.3482 -2.5531 0.9436 0
M  V30 25 H 1.6694 -3.0976 -0.0746 0
M  V30 26 H 1.9531 -1.7847 1.063 0
M  V30 27 H 1.4899 0.3562 -2.7888 0
M  V30 28 H 0.6891 1.8705 -3.185 0
M  V30 29 H 3.0372 0.4308 -0.4574 0
M  V30 30 H 3.022 1.9585 0.4029 0
M  V30 31 H 1.5971 3.0046 -1.2416 0
M  V30 32 H 2.9377 2.2426 -2.0926 0
M  V30 END ATOM
M  V30 BEGIN BOND
M  V30 1 1 1 2
M  V30 2 2 2 3
M  V30 3 1 2 4
M  V30 4 1 3 5
M  V30 5 1 3 6
M  V30 6 2 4 7
M  V30 7 2 5 8
M  V30 8 1 6 9
M  V30 9 1 6 10
M  V30 10 1 6 11
M  V30 11 1 9 12
M  V30 12 2 10 13
M  V30 13 1 10 14
M  V30 14 1 11 15
M  V30 15 1 14 16
M  V30 16 1 7 8
M  V30 17 1 15 16
M  V30 18 1 4 17
M  V30 19 1 5 18
M  V30 20 1 7 19
M  V30 21 1 8 20
M  V30 22 1 9 21
M  V30 23 1 11 22
M  V30 24 1 11 23
M  V30 25 1 12 24
M  V30 26 1 12 25
M  V30 27 1 12 26
M  V30 28 1 14 27
M  V30 29 1 14 28
M  V30 30 1 15 29
M  V30 31 1 15 30
M  V30 32 1 16 31
M  V30 33 1 16 32
M  V30 END BOND
M  V30 BEGIN COLLECTION
M  V30 MDLV30/STERAC1 ATOMS=(1 6)
M  V30 END COLLECTION
M  V30 END CTAB
M  END
>  <Column 1>
1732

>  <level_0>
1893

>  <index>
1893

>  <Unnamed: 0>
1893

>  <NO.>
1905

>  <Name>
ketamine

>  <IUPAC_name>
2-(2-chlorophenyl)-2-(methylamino)cyclohexan-1-one

>  <SMILES>
CNC1(c2ccccc2Cl)CCCCC1=O

>  <CID>
3821

>  <logBB>


>  <BBB+/BBB->
BBB+

>  <Inchi>
InChI=1S/C13H16ClNO/c1-15-13(9-5-4-8-12(13)16)10-6-2-3-7-11(10)14/h2-3-6-7-15H-4-5-8-9H2-1H3

>  <threshold>
-1

>  <reference>
R1|R7|R13|R19|R26|R27|R27|R29|R30|R36|

>  <group>
B

>  <Class>
-1

>  <ABC>
12.08

>  <ABCGG>
11.03

>  <nAcid>
0

>  <nBase>
1

>  <nAromAtom>
6

>  <nAromBond>
6

>  <nAtom>
32

>  <nHeavyAtom>
16

>  <nSpiro>
0

>  <nBridgehead>
0

>  <nHetero>
3

>  <nN>
1

>  <nO>
1

>  <nF>
0

>  <BalabanJ>
2.17

>  <BertzCT>
404.67

>  <nBonds>
33

>  <nBondsO>
17

>  <nBondsS>
26

>  <nBondsD>
1

>  <nBondsT>
0

>  <nBondsA>
6

>  <nBondsM>
7

>  <nBondsKS>
29

>  <nBondsKD>
4

>  <RNCG>
0.29

>  <RPCG>
0.15

>  <FCSP3>
0.46

>  <SZ>
21

>  <Sm>
19.79

>  <Sv>
19.9

>  <Sse>
31.86

>  <Sp>
21.83

>  <Si>
35.97

>  <MZ>
0.66

>  <Mm>
0.62

>  <Mv>
0.62

>  <Mse>
1

>  <Mp>
0.68

>  <Mi>
1.12

>  <NsCH3>
1

>  <NdCH2>
0

>  <NssCH2>
4

>  <NtCH>
0

>  <NdsCH>
0

>  <NaaCH>
4

>  <NsssCH>
0

>  <NddC>
0

>  <NtsC>
0

>  <NdssC>
1

>  <NaasC>
2

>  <NaaaC>
0

>  <NssssC>
1

>  <NsNH3>
0

>  <NsNH2>
0

>  <NssNH2>
0

>  <NdNH>
0

>  <NssNH>
1

>  <NaaNH>
0

>  <NtN>
0

>  <NsssNH>
0

>  <NdsN>
0

>  <NaaN>
0

>  <NsssN>
0

>  <NddsN>
0

>  <NaasN>
0

>  <NssssN>
0

>  <NsOH>
0

>  <NdO>
1

>  <NssO>
0

>  <NaaO>
0

>  <NsF>
0

>  <NsSiH3>
0

>  <NssSiH2>
0

>  <NsssSiH>
0

>  <NssssSi>
0

>  <NsPH2>
0

>  <NssPH>
0

>  <NsssP>
0

>  <NdsssP>
0

>  <NsssssP>
0

>  <NsSH>
0

>  <NdS>
0

>  <NssS>
0

>  <NaaS>
0

>  <NdssS>
0

>  <NddssS>
0

>  <NsCl>
1

>  <NsBr>
0

>  <NsI>
0

>  <fragCpx>
49.03

>  <fMF>
0.38

>  <nHBAcc>
2

>  <nHBDon>
1

>  <Kier1>
12.46

>  <Kier2>
5.1

>  <Lipinski>
1

>  <GhoseFilter>
1

>  <FilterItLogS>
-4.4

>  <VMcGowan>
183.2

>  <LabuteASA>
100.99

>  <PEOE_VSA1>
5.32

>  <PEOE_VSA2>
4.79

>  <PEOE_VSA3>
0

>  <PEOE_VSA4>
0

>  <PEOE_VSA5>
0

>  <PEOE_VSA6>
36.22

>  <PEOE_VSA7>
31.52

>  <PEOE_VSA8>
11.44

>  <PEOE_VSA9>
0

>  <PEOE_VSA10>
5.54

>  <PEOE_VSA11>
5.78

>  <PEOE_VSA12>
0

>  <PEOE_VSA13>
0

>  <SMR_VSA1>
4.79

>  <SMR_VSA2>
0

>  <SMR_VSA3>
5.32

>  <SMR_VSA4>
0

>  <SMR_VSA5>
31.22

>  <SMR_VSA6>
7.05

>  <SMR_VSA7>
34.85

>  <SMR_VSA8>
0

>  <SMR_VSA9>
0

>  <SlogP_VSA1>
5.32

>  <SlogP_VSA2>
12.83

>  <SlogP_VSA3>
10.33

>  <SlogP_VSA4>
0

>  <SlogP_VSA5>
31.25

>  <SlogP_VSA6>
24.27

>  <SlogP_VSA7>
5.02

>  <SlogP_VSA8>
0

>  <SlogP_VSA9>
0

>  <SlogP_VSA10>
0

>  <SlogP_VSA11>
0

>  <EState_VSA1>
5.54

>  <EState_VSA2>
5.78

>  <EState_VSA3>
11.44

>  <EState_VSA4>
24.83

>  <EState_VSA5>
0

>  <EState_VSA6>
0

>  <EState_VSA7>
31.31

>  <EState_VSA8>
5.32

>  <EState_VSA9>
11.6

>  <EState_VSA10>
4.79

>  <VSA_EState1>
0

>  <VSA_EState2>
12.18

>  <VSA_EState3>
3.86

>  <VSA_EState4>
0.36

>  <VSA_EState5>
0.26

>  <VSA_EState6>
7.62

>  <VSA_EState7>
3.54

>  <VSA_EState8>
0

>  <VSA_EState9>
1.84

>  <apol>
36.46

>  <bpol>
18

>  <nRing>
2

>  <nHRing>
0

>  <naRing>
1

>  <naHRing>
0

>  <nARing 2>
1

>  <nAHRing 2>
0

>  <nFRing>
0

>  <nFHRing>
0

>  <nFaRing>
0

>  <nFaHRing>
0

>  <nFARing 2>
0

>  <nFAHRing 2>
0

>  <nRot>
2

>  <SLogP>
2.9

>  <SMR>
65.66

>  <TopoPSA(NO)>
29.1

>  <TopoPSA>
29.1

>  <JGI1>
0.21

>  <JGI2>
0.12

>  <JGI3>
0.06

>  <JGI4>
0.04

>  <JGI5>
0.02

>  <Diameter>
7

>  <Radius>
4

>  <TMWC10>
105.02

>  <TSRW10>
48.92

>  <MW>
237.09

>  <AMW>
7.41

>  <WPath>
388

>  <WPol>
28

>  <Zagreb1>
82

>  <Zagreb2>
99

>  <mZagreb2>
3.69

>  <yes>


>  <nAR-cont>
0.816016

>  <nHA-cont>
0.954961865

>  <MWHBN>
0.19483395

>  <MWHBN-cont>
0.998111533

>  <TPSA-cont>
0.79686393

>  <pka_cont>
0.97

>  <yes.1>


>  <BBB_SCORE>
5.346873025

>  <MMFF94 Energy>
76.535

$$$$
Compound 1455
Actelion Java MolfileCreator 2.0

  0  0  0  0  0  0              0 V3000
M  V30 BEGIN CTAB
M  V30 COUNTS 37 39 0 0 0
M  V30 BEGIN ATOM
M  V30 1 N 3.0223 1.1126 -0.6356 0
M  V30 2 C 1.6222 1.38 -0.2755 0
M  V30 3 C 3.5457 1.9882 -1.6688 0
M  V30 4 C 1.2905 0.5827 0.9802 0
M  V30 5 C 0.618 1.0805 -1.4029 0
M  V30 6 C 0.4912 -0.5794 0.949 0
M  V30 7 C 1.8417 0.9996 2.2069 0
M  V30 8 C 0.4208 -0.4191 -1.5997 0
M  V30 9 C 0.262 -1.2857 2.1459 0
M  V30 10 C -0.1527 -1.0871 -0.3355 0
M  V30 11 C 1.6008 0.2906 3.3829 0
M  V30 12 C 0.8102 -0.8522 3.3524 0
M  V30 13 C -1.6808 -1.0186 -0.3382 0
M  V30 14 C -2.4117 -2.0367 -0.9744 0
M  V30 15 C -2.389 0.0428 0.2476 0
M  V30 16 C -3.807 -1.9989 -1.0139 0
M  V30 17 C -3.7847 0.0786 0.208 0
M  V30 18 C -4.493 -0.9415 -0.4218 0
M  V30 19 H 3.1335 0.1369 -0.902 0
M  V30 20 H 1.5208 2.4441 -0.0209 0
M  V30 21 H 3.0966 1.7904 -2.6459 0
M  V30 22 H 4.6233 1.8228 -1.7672 0
M  V30 23 H 3.4013 3.0426 -1.4122 0
M  V30 24 H -0.3444 1.5487 -1.1614 0
M  V30 25 H 0.9311 1.5388 -2.3469 0
M  V30 26 H 2.4805 1.8806 2.239 0
M  V30 27 H 1.387 -0.8789 -1.843 0
M  V30 28 H -0.2253 -0.5969 -2.4681 0
M  V30 29 H -0.3596 -2.1792 2.1404 0
M  V30 30 H 0.1188 -2.1515 -0.4013 0
M  V30 31 H 2.0375 0.6276 4.319 0
M  V30 32 H 0.6202 -1.4083 4.2663 0
M  V30 33 H -1.8953 -2.8698 -1.4466 0
M  V30 34 H -1.8614 0.8518 0.7486 0
M  V30 35 H -4.3579 -2.7951 -1.5076 0
M  V30 36 H -4.3177 0.9047 0.6718 0
M  V30 37 H -5.5789 -0.912 -0.4511 0
M  V30 END ATOM
M  V30 BEGIN BOND
M  V30 1 1 1 2
M  V30 2 1 1 3
M  V30 3 1 2 4
M  V30 4 1 2 5
M  V30 5 2 4 6
M  V30 6 1 4 7
M  V30 7 1 5 8
M  V30 8 1 6 9
M  V30 9 1 6 10
M  V30 10 2 7 11
M  V30 11 2 9 12
M  V30 12 1 10 13
M  V30 13 2 13 14
M  V30 14 1 13 15
M  V30 15 1 14 16
M  V30 16 2 15 17
M  V30 17 2 16 18
M  V30 18 1 8 10
M  V30 19 1 11 12
M  V30 20 1 17 18
M  V30 21 1 1 19
M  V30 22 1 2 20
M  V30 23 1 3 21
M  V30 24 1 3 22
M  V30 25 1 3 23
M  V30 26 1 5 24
M  V30 27 1 5 25
M  V30 28 1 7 26
M  V30 29 1 8 27
M  V30 30 1 8 28
M  V30 31 1 9 29
M  V30 32 1 10 30
M  V30 33 1 11 31
M  V30 34 1 12 32
M  V30 35 1 14 33
M  V30 36 1 15 34
M  V30 37 1 16 35
M  V30 38 1 17 36
M  V30 39 1 18 37
M  V30 END BOND
M  V30 END CTAB
M  END
>  <Column 1>
1734

>  <level_0>
1895

>  <index>
1895

>  <Unnamed: 0>
1895

>  <NO.>
1907

>  <Name>
schembl1237910

>  <IUPAC_name>
n-methyl-4-phenyl-1-2-3-4-tetrahydronaphthalen-1-amine

>  <SMILES>
CNC1CCC(c2ccccc2)c2ccccc21

>  <CID>
104181

>  <logBB>


>  <BBB+/BBB->
BBB+

>  <Inchi>
InChI=1S/C17H19N/c1-18-17-12-11-14(13-7-3-2-4-8-13)15-9-5-6-10-16(15)17/h2-10-14-17-18H-11-12H2-1H3

>  <threshold>
-1

>  <reference>
R1|R19|R27|R27|R30|

>  <group>
B

>  <Class>
1

>  <ABC>
13.98

>  <ABCGG>
11.36

>  <nAcid>
0

>  <nBase>
1

>  <nAromAtom>
12

>  <nAromBond>
12

>  <nAtom>
37

>  <nHeavyAtom>
18

>  <nSpiro>
0

>  <nBridgehead>
0

>  <nHetero>
1

>  <nN>
1

>  <nO>
0

>  <nF>
0

>  <BalabanJ>
1.7

>  <BertzCT>
518.14

>  <nBonds>
39

>  <nBondsO>
20

>  <nBondsS>
27

>  <nBondsD>
0

>  <nBondsT>
0

>  <nBondsA>
12

>  <nBondsM>
12

>  <nBondsKS>
33

>  <nBondsKD>
6

>  <RNCG>
0.3

>  <RPCG>
0.12

>  <FCSP3>
0.29

>  <SZ>
21.33

>  <Sm>
19.76

>  <Sv>
22.91

>  <Sse>
36.1

>  <Sp>
25.24

>  <Si>
41.24

>  <MZ>
0.58

>  <Mm>
0.53

>  <Mv>
0.62

>  <Mse>
0.98

>  <Mp>
0.68

>  <Mi>
1.11

>  <NsCH3>
1

>  <NdCH2>
0

>  <NssCH2>
2

>  <NtCH>
0

>  <NdsCH>
0

>  <NaaCH>
9

>  <NsssCH>
2

>  <NddC>
0

>  <NtsC>
0

>  <NdssC>
0

>  <NaasC>
3

>  <NaaaC>
0

>  <NssssC>
0

>  <NsNH3>
0

>  <NsNH2>
0

>  <NssNH2>
0

>  <NdNH>
0

>  <NssNH>
1

>  <NaaNH>
0

>  <NtN>
0

>  <NsssNH>
0

>  <NdsN>
0

>  <NaaN>
0

>  <NsssN>
0

>  <NddsN>
0

>  <NaasN>
0

>  <NssssN>
0

>  <NsOH>
0

>  <NdO>
0

>  <NssO>
0

>  <NaaO>
0

>  <NsF>
0

>  <NsSiH3>
0

>  <NssSiH2>
0

>  <NsssSiH>
0

>  <NssssSi>
0

>  <NsPH2>
0

>  <NssPH>
0

>  <NsssP>
0

>  <NdsssP>
0

>  <NsssssP>
0

>  <NsSH>
0

>  <NdS>
0

>  <NssS>
0

>  <NaaS>
0

>  <NdssS>
0

>  <NddssS>
0

>  <NsCl>
0

>  <NsBr>
0

>  <NsI>
0

>  <fragCpx>
94.01

>  <fMF>
0.43

>  <nHBAcc>
1

>  <nHBDon>
1

>  <Kier1>
13.01

>  <Kier2>
5.97

>  <Lipinski>
1

>  <GhoseFilter>
1

>  <FilterItLogS>
-4.65

>  <VMcGowan>
201.99

>  <LabuteASA>
108.86

>  <PEOE_VSA1>
5.32

>  <PEOE_VSA2>
0

>  <PEOE_VSA3>
0

>  <PEOE_VSA4>
0

>  <PEOE_VSA5>
0

>  <PEOE_VSA6>
54.6

>  <PEOE_VSA7>
36.58

>  <PEOE_VSA8>
11.96

>  <PEOE_VSA9>
0

>  <PEOE_VSA10>
0

>  <PEOE_VSA11>
0

>  <PEOE_VSA12>
0

>  <PEOE_VSA13>
0

>  <SMR_VSA1>
0

>  <SMR_VSA2>
0

>  <SMR_VSA3>
5.32

>  <SMR_VSA4>
0

>  <SMR_VSA5>
24.8

>  <SMR_VSA6>
7.05

>  <SMR_VSA7>
71.29

>  <SMR_VSA8>
0

>  <SMR_VSA9>
0

>  <SlogP_VSA1>
5.32

>  <SlogP_VSA2>
7.05

>  <SlogP_VSA3>
0

>  <SlogP_VSA4>
0

>  <SlogP_VSA5>
41.49

>  <SlogP_VSA6>
54.6

>  <SlogP_VSA7>
0

>  <SlogP_VSA8>
0

>  <SlogP_VSA9>
0

>  <SlogP_VSA10>
0

>  <SlogP_VSA11>
0

>  <EState_VSA1>
0

>  <EState_VSA2>
0

>  <EState_VSA3>
11.96

>  <EState_VSA4>
0

>  <EState_VSA5>
29.53

>  <EState_VSA6>
0

>  <EState_VSA7>
0

>  <EState_VSA8>
66.96

>  <EState_VSA9>
0

>  <EState_VSA10>
0

>  <VSA_EState1>
0

>  <VSA_EState2>
0

>  <VSA_EState3>
3.43

>  <VSA_EState4>
4.41

>  <VSA_EState5>
0.56

>  <VSA_EState6>
20.26

>  <VSA_EState7>
2.44

>  <VSA_EState8>
0

>  <VSA_EState9>
2.06

>  <apol>
42.16

>  <bpol>
19.63

>  <nRing>
3

>  <nHRing>
0

>  <naRing>
2

>  <naHRing>
0

>  <nARing 2>
1

>  <nAHRing 2>
0

>  <nFRing>
1

>  <nFHRing>
0

>  <nFaRing>
0

>  <nFaHRing>
0

>  <nFARing 2>
1

>  <nFAHRing 2>
0

>  <nRot>
2

>  <SLogP>
3.87

>  <SMR>
75.76

>  <TopoPSA(NO)>
12.03

>  <TopoPSA>
12.03

>  <JGI1>
0.1

>  <JGI2>
0.07

>  <JGI3>
0.04

>  <JGI4>
0.03

>  <JGI5>
0.02

>  <Diameter>
9

>  <Radius>
5

>  <TMWC10>
110.69

>  <TSRW10>
51.3

>  <MW>
237.15

>  <AMW>
6.41

>  <WPath>
569

>  <WPol>
29

>  <Zagreb1>
94

>  <Zagreb2>
112

>  <mZagreb2>
4.11

>  <yes>


>  <nAR-cont>
0.816016

>  <nHA-cont>
0.991161285

>  <MWHBN>
0.129872868

>  <MWHBN-cont>
0.86904007

>  <TPSA-cont>
0.91602313

>  <pka_cont>
0.97

>  <yes.1>


>  <BBB_SCORE>
5.42778365

>  <MMFF94 Energy>
53.684

$$$$
Compound 1456
Actelion Java MolfileCreator 2.0

  0  0  0  0  0  0              0 V3000
M  V30 BEGIN CTAB
M  V30 COUNTS 40 43 0 0 0
M  V30 BEGIN ATOM
M  V30 1 N -0.4796 0.3997 -0.3197 0
M  V30 2 C 0.7673 -0.2125 0.011 0
M  V30 3 C -1.2154 1.4213 0.3548 0
M  V30 4 C -1.2413 -0.1842 -1.4453 0
M  V30 5 C 1.184 -1.4026 -0.6641 0
M  V30 6 C 1.6551 0.2938 0.9959 0
M  V30 7 C -0.6033 2.5688 0.8829 0
M  V30 8 C -2.6189 1.3295 0.503 0
M  V30 9 C -0.3537 -0.8396 -2.4843 0
M  V30 10 C 2.3867 -2.0595 -0.3193 0
M  V30 11 C 0.4005 -1.9859 -1.8268 0 CFG=2
M  V30 12 C 2.8277 -0.4192 1.3471 0
M  V30 13 C 1.4783 1.604 1.7281 0
M  V30 14 C -1.3727 3.5913 1.4773 0
M  V30 15 C 0.8884 2.7101 0.8686 0
M  V30 16 C -3.3791 2.3396 1.1019 0
M  V30 17 C 3.1919 -1.5856 0.6982 0
M  V30 18 N -0.5464 -3.0622 -1.4716 0
M  V30 19 C -2.7545 3.4797 1.5805 0
M  V30 20 C 0.0869 -4.2672 -0.958 0
M  V30 21 H -1.8038 0.6015 -1.9689 0
M  V30 22 H -1.9733 -0.9092 -1.0674 0
M  V30 23 H -3.1534 0.4439 0.1707 0
M  V30 24 H 0.3494 -0.1034 -2.8971 0
M  V30 25 H -0.9593 -1.2006 -3.3249 0
M  V30 26 H 2.6926 -2.9559 -0.8534 0
M  V30 27 H 1.1032 -2.3708 -2.5787 0
M  V30 28 H 3.4825 -0.0395 2.1299 0
M  V30 29 H 0.8934 1.4281 2.6404 0
M  V30 30 H 2.4651 1.9596 2.0548 0
M  V30 31 H -0.8876 4.4787 1.8783 0
M  V30 32 H 1.2691 2.7008 -0.1598 0
M  V30 33 H 1.1743 3.6798 1.2953 0
M  V30 34 H -4.4554 2.2251 1.1951 0
M  V30 35 H 4.1051 -2.1059 0.9699 0
M  V30 36 H -1.0799 -3.312 -2.3031 0
M  V30 37 H -3.3352 4.27 2.0473 0
M  V30 38 H -0.6704 -5.0505 -0.8482 0
M  V30 39 H 0.8553 -4.6449 -1.6399 0
M  V30 40 H 0.5181 -4.1095 0.0344 0
M  V30 END ATOM
M  V30 BEGIN BOND
M  V30 1 1 1 2
M  V30 2 1 1 3
M  V30 3 1 1 4
M  V30 4 2 2 5
M  V30 5 1 2 6
M  V30 6 2 3 7
M  V30 7 1 3 8
M  V30 8 1 4 9
M  V30 9 1 5 10
M  V30 10 1 5 11
M  V30 11 2 6 12
M  V30 12 1 6 13
M  V30 13 1 7 14
M  V30 14 1 7 15
M  V30 15 2 8 16
M  V30 16 2 10 17
M  V30 17 1 11 18
M  V30 18 2 14 19
M  V30 19 1 18 20
M  V30 20 1 9 11
M  V30 21 1 12 17
M  V30 22 1 13 15
M  V30 23 1 16 19
M  V30 24 1 4 21
M  V30 25 1 4 22
M  V30 26 1 8 23
M  V30 27 1 9 24
M  V30 28 1 9 25
M  V30 29 1 10 26
M  V30 30 1 11 27
M  V30 31 1 12 28
M  V30 32 1 13 29
M  V30 33 1 13 30
M  V30 34 1 14 31
M  V30 35 1 15 32
M  V30 36 1 15 33
M  V30 37 1 16 34
M  V30 38 1 17 35
M  V30 39 1 18 36
M  V30 40 1 19 37
M  V30 41 1 20 38
M  V30 42 1 20 39
M  V30 43 1 20 40
M  V30 END BOND
M  V30 BEGIN COLLECTION
M  V30 MDLV30/STERAC1 ATOMS=(1 11)
M  V30 END COLLECTION
M  V30 END CTAB
M  END
>  <Column 1>
1735

>  <level_0>
1896

>  <index>
1896

>  <Unnamed: 0>
1896

>  <NO.>
1908

>  <Name>
ciclopramine

>  <IUPAC_name>
n-methyl-1-azatetracyclo[8.7.1.02-7.014-18]octadeca-2-4-6-10(18)-11-13-hexaen-15-amine

>  <SMILES>
CNC1CCN2c3ccccc3CCc3cccc1c32

>  <CID>
160410

>  <logBB>


>  <BBB+/BBB->
BBB+

>  <Inchi>
InChI=1S/C18H20N2/c1-19-16-11-12-20-17-8-3-2-5-13(17)9-10-14-6-4-7-15(16)18(14)20/h2-8-16-19H-9-12H2-1H3

>  <threshold>
-1

>  <reference>
R1|R19|R6|R27|R27|R30|

>  <group>
B

>  <Class>
1

>  <ABC>
16.02

>  <ABCGG>
12.36

>  <nAcid>
0

>  <nBase>
1

>  <nAromAtom>
12

>  <nAromBond>
12

>  <nAtom>
40

>  <nHeavyAtom>
20

>  <nSpiro>
0

>  <nBridgehead>
0

>  <nHetero>
2

>  <nN>
2

>  <nO>
0

>  <nF>
0

>  <BalabanJ>
1.64

>  <BertzCT>
647.62

>  <nBonds>
43

>  <nBondsO>
23

>  <nBondsS>
31

>  <nBondsD>
0

>  <nBondsT>
0

>  <nBondsA>
12

>  <nBondsM>
12

>  <nBondsKS>
37

>  <nBondsKD>
6

>  <RNCG>
0.29

>  <RPCG>
0.1

>  <FCSP3>
0.33

>  <SZ>
23.67

>  <Sm>
22.01

>  <Sv>
24.93

>  <Sse>
39.2

>  <Sp>
27.3

>  <Si>
44.73

>  <MZ>
0.59

>  <Mm>
0.55

>  <Mv>
0.62

>  <Mse>
0.98

>  <Mp>
0.68

>  <Mi>
1.12

>  <NsCH3>
1

>  <NdCH2>
0

>  <NssCH2>
4

>  <NtCH>
0

>  <NdsCH>
0

>  <NaaCH>
7

>  <NsssCH>
1

>  <NddC>
0

>  <NtsC>
0

>  <NdssC>
0

>  <NaasC>
5

>  <NaaaC>
0

>  <NssssC>
0

>  <NsNH3>
0

>  <NsNH2>
0

>  <NssNH2>
0

>  <NdNH>
0

>  <NssNH>
1

>  <NaaNH>
0

>  <NtN>
0

>  <NsssNH>
0

>  <NdsN>
0

>  <NaaN>
0

>  <NsssN>
1

>  <NddsN>
0

>  <NaasN>
0

>  <NssssN>
0

>  <NsOH>
0

>  <NdO>
0

>  <NssO>
0

>  <NaaO>
0

>  <NsF>
0

>  <NsSiH3>
0

>  <NssSiH2>
0

>  <NsssSiH>
0

>  <NssssSi>
0

>  <NsPH2>
0

>  <NssPH>
0

>  <NsssP>
0

>  <NdsssP>
0

>  <NsssssP>
0

>  <NsSH>
0

>  <NdS>
0

>  <NssS>
0

>  <NaaS>
0

>  <NdssS>
0

>  <NddssS>
0

>  <NsCl>
0

>  <NsBr>
0

>  <NsI>
0

>  <fragCpx>
149.02

>  <fMF>
0.45

>  <nHBAcc>
2

>  <nHBDon>
1

>  <Kier1>
13.65

>  <Kier2>
5.65

>  <Lipinski>
1

>  <GhoseFilter>
1

>  <FilterItLogS>
-4.78

>  <VMcGowan>
215.2

>  <LabuteASA>
119.98

>  <PEOE_VSA1>
10.22

>  <PEOE_VSA2>
0

>  <PEOE_VSA3>
0

>  <PEOE_VSA4>
0

>  <PEOE_VSA5>
0

>  <PEOE_VSA6>
36.4

>  <PEOE_VSA7>
49.07

>  <PEOE_VSA8>
23.96

>  <PEOE_VSA9>
0

>  <PEOE_VSA10>
0

>  <PEOE_VSA11>
0

>  <PEOE_VSA12>
0

>  <PEOE_VSA13>
0

>  <SMR_VSA1>
0

>  <SMR_VSA2>
0

>  <SMR_VSA3>
5.32

>  <SMR_VSA4>
0

>  <SMR_VSA5>
25.3

>  <SMR_VSA6>
18.49

>  <SMR_VSA7>
59.15

>  <SMR_VSA8>
0

>  <SMR_VSA9>
0

>  <SlogP_VSA1>
10.22

>  <SlogP_VSA2>
13.59

>  <SlogP_VSA3>
12.84

>  <SlogP_VSA4>
0

>  <SlogP_VSA5>
29.15

>  <SlogP_VSA6>
42.46

>  <SlogP_VSA7>
0

>  <SlogP_VSA8>
0

>  <SlogP_VSA9>
0

>  <SlogP_VSA10>
11.37

>  <SlogP_VSA11>
0

>  <EState_VSA1>
0

>  <EState_VSA2>
0

>  <EState_VSA3>
6.04

>  <EState_VSA4>
19.39

>  <EState_VSA5>
34.49

>  <EState_VSA6>
0

>  <EState_VSA7>
0

>  <EState_VSA8>
59.73

>  <EState_VSA9>
0

>  <EState_VSA10>
0

>  <VSA_EState1>
0

>  <VSA_EState2>
2.54

>  <VSA_EState3>
3.47

>  <VSA_EState4>
7.32

>  <VSA_EState5>
0

>  <VSA_EState6>
16.19

>  <VSA_EState7>
3.46

>  <VSA_EState8>
1.1

>  <VSA_EState9>
2.07

>  <apol>
45.6

>  <bpol>
22.34

>  <nRing>
4

>  <nHRing>
2

>  <naRing>
2

>  <naHRing>
0

>  <nARing 2>
2

>  <nAHRing 2>
2

>  <nFRing>
1

>  <nFHRing>
1

>  <nFaRing>
0

>  <nFaHRing>
0

>  <nFARing 2>
1

>  <nFAHRing 2>
1

>  <nRot>
1

>  <SLogP>
3.59

>  <SMR>
83.72

>  <TopoPSA(NO)>
15.27

>  <TopoPSA>
15.27

>  <JGI1>
0.11

>  <JGI2>
0.07

>  <JGI3>
0.04

>  <JGI4>
0.04

>  <JGI5>
0.02

>  <Diameter>
9

>  <Radius>
5

>  <TMWC10>
118.41

>  <TSRW10>
62.46

>  <MW>
264.16

>  <AMW>
6.6

>  <WPath>
690

>  <WPol>
40

>  <Zagreb1>
112

>  <Zagreb2>
138

>  <mZagreb2>
4.42

>  <yes>


>  <nAR-cont>
1

>  <nHA-cont>
0.999629945

>  <MWHBN>
0.184581311

>  <MWHBN-cont>
0.991620104

>  <TPSA-cont>
0.893405918

>  <pka_cont>
0.97

>  <yes.1>


>  <BBB_SCORE>
5.758871936

>  <MMFF94 Energy>
50.445

$$$$
Compound 1457
Actelion Java MolfileCreator 2.0

  0  0  0  0  0  0              0 V3000
M  V30 BEGIN CTAB
M  V30 COUNTS 23 24 0 0 0
M  V30 BEGIN ATOM
M  V30 1 S -1.9464 -0.6485 -2.9207 0
M  V30 2 C -1.0907 -0.3934 -1.4721 0
M  V30 3 C -2.4851 -2.1592 -2.299 0
M  V30 4 C -1.272 -1.4569 -0.6125 0
M  V30 5 C -0.2894 0.8287 -1.172 0
M  V30 6 N -2.0695 -2.4747 -1.0896 0
M  V30 7 C -0.6314 -1.5341 0.7296 0
M  V30 8 C 0.6546 0.569 0.0388 0 CFG=2
M  V30 9 C -0.1034 -0.1589 1.1795 0
M  V30 10 N 1.2171 1.8579 0.4734 0
M  V30 11 C 2.4034 1.712 1.305 0
M  V30 12 H -3.1298 -2.8085 -2.8765 0
M  V30 13 H 0.3036 1.1308 -2.0437 0
M  V30 14 H -0.9817 1.6497 -0.9419 0
M  V30 15 H 0.2019 -2.2449 0.6789 0
M  V30 16 H -1.344 -1.915 1.4696 0
M  V30 17 H 1.4681 -0.081 -0.3129 0
M  V30 18 H -0.9474 0.4624 1.5093 0
M  V30 19 H 0.5408 -0.3079 2.0529 0
M  V30 20 H 0.5116 2.3964 0.9768 0
M  V30 21 H 2.8124 2.7032 1.5252 0
M  V30 22 H 2.1812 1.2282 2.2604 0
M  V30 23 H 3.1844 1.1454 0.7881 0
M  V30 END ATOM
M  V30 BEGIN BOND
M  V30 1 1 1 2
M  V30 2 1 1 3
M  V30 3 2 2 4
M  V30 4 1 2 5
M  V30 5 2 3 6
M  V30 6 1 4 7
M  V30 7 1 5 8
M  V30 8 1 7 9
M  V30 9 1 8 10
M  V30 10 1 10 11
M  V30 11 1 4 6
M  V30 12 1 8 9
M  V30 13 1 3 12
M  V30 14 1 5 13
M  V30 15 1 5 14
M  V30 16 1 7 15
M  V30 17 1 7 16
M  V30 18 1 8 17
M  V30 19 1 9 18
M  V30 20 1 9 19
M  V30 21 1 10 20
M  V30 22 1 11 21
M  V30 23 1 11 22
M  V30 24 1 11 23
M  V30 END BOND
M  V30 BEGIN COLLECTION
M  V30 MDLV30/STERAC1 ATOMS=(1 8)
M  V30 END COLLECTION
M  V30 END CTAB
M  END
>  <Column 1>
1736

>  <level_0>
1897

>  <index>
1897

>  <Unnamed: 0>
1897

>  <NO.>
1909

>  <Name>
etrabamine

>  <IUPAC_name>
n-methyl-4-5-6-7-tetrahydro-1-3-benzothiazol-6-amine

>  <SMILES>
CNC1CCc2ncsc2C1

>  <CID>
68895

>  <logBB>


>  <BBB+/BBB->
BBB+

>  <Inchi>
InChI=1S/C8H12N2S/c1-9-6-2-3-7-8(4-6)11-5-10-7/h5-6-9H-2-4H2-1H3

>  <threshold>
-1

>  <reference>
R1|R19|R6|R27|R27|R30|

>  <group>
B

>  <Class>
1

>  <ABC>
8.44

>  <ABCGG>
7.83

>  <nAcid>
0

>  <nBase>
1

>  <nAromAtom>
5

>  <nAromBond>
5

>  <nAtom>
23

>  <nHeavyAtom>
11

>  <nSpiro>
0

>  <nBridgehead>
0

>  <nHetero>
3

>  <nN>
2

>  <nO>
0

>  <nF>
0

>  <BalabanJ>
1.91

>  <BertzCT>
244

>  <nBonds>
24

>  <nBondsO>
12

>  <nBondsS>
19

>  <nBondsD>
0

>  <nBondsT>
0

>  <nBondsA>
5

>  <nBondsM>
5

>  <nBondsKS>
22

>  <nBondsKD>
2

>  <RNCG>
0.42

>  <RPCG>
0.16

>  <FCSP3>
0.63

>  <SZ>
15

>  <Sm>
14.01

>  <Sv>
13.95

>  <Sse>
22.73

>  <Sp>
15.85

>  <Si>
25.99

>  <MZ>
0.65

>  <Mm>
0.61

>  <Mv>
0.61

>  <Mse>
0.99

>  <Mp>
0.69

>  <Mi>
1.13

>  <NsCH3>
1

>  <NdCH2>
0

>  <NssCH2>
3

>  <NtCH>
0

>  <NdsCH>
0

>  <NaaCH>
1

>  <NsssCH>
1

>  <NddC>
0

>  <NtsC>
0

>  <NdssC>
0

>  <NaasC>
2

>  <NaaaC>
0

>  <NssssC>
0

>  <NsNH3>
0

>  <NsNH2>
0

>  <NssNH2>
0

>  <NdNH>
0

>  <NssNH>
1

>  <NaaNH>
0

>  <NtN>
0

>  <NsssNH>
0

>  <NdsN>
0

>  <NaaN>
1

>  <NsssN>
0

>  <NddsN>
0

>  <NaasN>
0

>  <NssssN>
0

>  <NsOH>
0

>  <NdO>
0

>  <NssO>
0

>  <NaaO>
0

>  <NsF>
0

>  <NsSiH3>
0

>  <NssSiH2>
0

>  <NsssSiH>
0

>  <NssssSi>
0

>  <NsPH2>
0

>  <NssPH>
0

>  <NsssP>
0

>  <NdsssP>
0

>  <NsssssP>
0

>  <NsSH>
0

>  <NdS>
0

>  <NssS>
0

>  <NaaS>
1

>  <NdssS>
0

>  <NddssS>
0

>  <NsCl>
0

>  <NsBr>
0

>  <NsI>
0

>  <fragCpx>
34.03

>  <fMF>
0.39

>  <nHBAcc>
3

>  <nHBDon>
1

>  <Kier1>
7.64

>  <Kier2>
3.16

>  <Lipinski>
1

>  <GhoseFilter>
1

>  <FilterItLogS>
-2.45

>  <VMcGowan>
129.57

>  <LabuteASA>
70.66

>  <PEOE_VSA1>
5.32

>  <PEOE_VSA2>
0

>  <PEOE_VSA3>
4.98

>  <PEOE_VSA4>
0

>  <PEOE_VSA5>
11.34

>  <PEOE_VSA6>
0

>  <PEOE_VSA7>
26.31

>  <PEOE_VSA8>
10.92

>  <PEOE_VSA9>
11.2

>  <PEOE_VSA10>
0

>  <PEOE_VSA11>
0

>  <PEOE_VSA12>
0

>  <PEOE_VSA13>
0

>  <SMR_VSA1>
0

>  <SMR_VSA2>
0

>  <SMR_VSA3>
10.3

>  <SMR_VSA4>
0

>  <SMR_VSA5>
25.3

>  <SMR_VSA6>
7.05

>  <SMR_VSA7>
16.08

>  <SMR_VSA8>
0

>  <SMR_VSA9>
0

>  <SlogP_VSA1>
5.32

>  <SlogP_VSA2>
18.07

>  <SlogP_VSA3>
12.84

>  <SlogP_VSA4>
0

>  <SlogP_VSA5>
16.99

>  <SlogP_VSA6>
5.51

>  <SlogP_VSA7>
0

>  <SlogP_VSA8>
0

>  <SlogP_VSA9>
0

>  <SlogP_VSA10>
0

>  <SlogP_VSA11>
0

>  <EState_VSA1>
0

>  <EState_VSA2>
0

>  <EState_VSA3>
6.04

>  <EState_VSA4>
6.42

>  <EState_VSA5>
23.41

>  <EState_VSA6>
11.34

>  <EState_VSA7>
12.56

>  <EState_VSA8>
10.3

>  <EState_VSA9>
0

>  <EState_VSA10>
0

>  <VSA_EState1>
0

>  <VSA_EState2>
5.8

>  <VSA_EState3>
3.31

>  <VSA_EState4>
3.3

>  <VSA_EState5>
0

>  <VSA_EState6>
0.68

>  <VSA_EState7>
3.58

>  <VSA_EState8>
0

>  <VSA_EState9>
2.04

>  <apol>
26.46

>  <bpol>
16.21

>  <nRing>
2

>  <nHRing>
1

>  <naRing>
1

>  <naHRing>
1

>  <nARing 2>
1

>  <nAHRing 2>
0

>  <nFRing>
1

>  <nFHRing>
1

>  <nFaRing>
0

>  <nFaHRing>
0

>  <nFARing 2>
1

>  <nFAHRing 2>
1

>  <nRot>
1

>  <SLogP>
1.22

>  <SMR>
46.99

>  <TopoPSA(NO)>
24.92

>  <TopoPSA>
53.16

>  <JGI1>
0.17

>  <JGI2>
0.07

>  <JGI3>
0.04

>  <JGI4>
0.05

>  <JGI5>
0.04

>  <Diameter>
6

>  <Radius>
3

>  <TMWC10>
89.97

>  <TSRW10>
54.96

>  <MW>
168.07

>  <AMW>
7.31

>  <WPath>
147

>  <WPol>
13

>  <Zagreb1>
56

>  <Zagreb2>
65

>  <mZagreb2>
2.53

>  <yes>


>  <nAR-cont>
0.816016

>  <nHA-cont>
0.720786536

>  <MWHBN>
0.308542427

>  <MWHBN-cont>
0.814488261

>  <TPSA-cont>
0.62891019

>  <pka_cont>
0.97

>  <yes.1>


>  <BBB_SCORE>
4.501355307

>  <MMFF94 Energy>
20.687

$$$$
Compound 1458
Actelion Java MolfileCreator 2.0

  0  0  0  0  0  0              0 V3000
M  V30 BEGIN CTAB
M  V30 COUNTS 36 38 0 0 0
M  V30 BEGIN ATOM
M  V30 1 N 1.3493 0.476 0.0793 0
M  V30 2 C 0.5988 0.5325 -1.1199 0
M  V30 3 C 1.3346 -0.5686 1.0359 0
M  V30 4 C 2.3818 1.5118 0.1907 0
M  V30 5 C -0.8042 0.4401 -1.1039 0
M  V30 6 C 1.2496 0.6614 -2.363 0
M  V30 7 C 0.1887 -1.3424 1.3343 0
M  V30 8 C 2.53 -0.9136 1.7122 0
M  V30 9 C -1.5105 0.4339 -2.323 0
M  V30 10 C -1.5008 0.3081 0.239 0 CFG=2
M  V30 11 C 0.5357 0.6808 -3.562 0
M  V30 12 C 0.29 -2.4267 2.2409 0
M  V30 13 C -1.2036 -1.1088 0.7686 0
M  V30 14 C 2.6072 -1.9725 2.6214 0
M  V30 15 C -0.8468 0.5615 -3.5416 0
M  V30 16 N -2.9694 0.5362 0.1847 0
M  V30 17 C 1.4841 -2.7365 2.8817 0
M  V30 18 C -3.2858 1.9624 0.1414 0
M  V30 19 H 2.0851 2.4352 -0.3229 0
M  V30 20 H 2.5453 1.7983 1.2368 0
M  V30 21 H 3.3325 1.1735 -0.2368 0
M  V30 22 H 2.334 0.711 -2.409 0
M  V30 23 H 3.4541 -0.3787 1.5119 0
M  V30 24 H -2.5932 0.3269 -2.3265 0
M  V30 25 H -1.0859 1.0426 0.9433 0
M  V30 26 H 1.0624 0.7692 -4.5077 0
M  V30 27 H -0.5863 -3.0361 2.4567 0
M  V30 28 H -1.3941 -1.865 -0.0054 0
M  V30 29 H -1.9086 -1.313 1.5875 0
M  V30 30 H 3.5512 -2.2045 3.1063 0
M  V30 31 H -1.411 0.5589 -4.4699 0
M  V30 32 H -3.3892 0.1502 1.0291 0
M  V30 33 H 1.5335 -3.5701 3.576 0
M  V30 34 H -4.372 2.0866 0.0892 0
M  V30 35 H -2.9355 2.4766 1.0424 0
M  V30 36 H -2.8599 2.4552 -0.7372 0
M  V30 END ATOM
M  V30 BEGIN BOND
M  V30 1 1 1 2
M  V30 2 1 1 3
M  V30 3 1 1 4
M  V30 4 2 2 5
M  V30 5 1 2 6
M  V30 6 2 3 7
M  V30 7 1 3 8
M  V30 8 1 5 9
M  V30 9 1 5 10
M  V30 10 2 6 11
M  V30 11 1 7 12
M  V30 12 1 7 13
M  V30 13 2 8 14
M  V30 14 2 9 15
M  V30 15 1 10 16
M  V30 16 2 12 17
M  V30 17 1 16 18
M  V30 18 1 10 13
M  V30 19 1 11 15
M  V30 20 1 14 17
M  V30 21 1 4 19
M  V30 22 1 4 20
M  V30 23 1 4 21
M  V30 24 1 6 22
M  V30 25 1 8 23
M  V30 26 1 9 24
M  V30 27 1 10 25
M  V30 28 1 11 26
M  V30 29 1 12 27
M  V30 30 1 13 28
M  V30 31 1 13 29
M  V30 32 1 14 30
M  V30 33 1 15 31
M  V30 34 1 16 32
M  V30 35 1 17 33
M  V30 36 1 18 34
M  V30 37 1 18 35
M  V30 38 1 18 36
M  V30 END BOND
M  V30 BEGIN COLLECTION
M  V30 MDLV30/STERAC1 ATOMS=(1 10)
M  V30 END COLLECTION
M  V30 END CTAB
M  END
>  <Column 1>
1737

>  <level_0>
1898

>  <index>
1898

>  <Unnamed: 0>
1898

>  <NO.>
1910

>  <Name>
metapramine

>  <IUPAC_name>
n-11-dimethyl-5-6-dihydrobenzo[b][1]benzazepin-5-amine

>  <SMILES>
CNC1Cc2ccccc2N(C)c2ccccc21

>  <CID>
65700

>  <logBB>


>  <BBB+/BBB->
BBB+

>  <Inchi>
InChI=1S/C16H18N2/c1-17-14-11-12-7-3-5-9-15(12)18(2)16-10-6-4-8-13(14)16/h3-10-14-17H-11H2-1-2H3

>  <threshold>
-1

>  <reference>
R1|R19|R6|R27|R27|R30|

>  <group>
B

>  <Class>
-1

>  <ABC>
14.05

>  <ABCGG>
11.72

>  <nAcid>
0

>  <nBase>
1

>  <nAromAtom>
12

>  <nAromBond>
12

>  <nAtom>
36

>  <nHeavyAtom>
18

>  <nSpiro>
0

>  <nBridgehead>
0

>  <nHetero>
2

>  <nN>
2

>  <nO>
0

>  <nF>
0

>  <BalabanJ>
1.84

>  <BertzCT>
562.53

>  <nBonds>
38

>  <nBondsO>
20

>  <nBondsS>
26

>  <nBondsD>
0

>  <nBondsT>
0

>  <nBondsA>
12

>  <nBondsM>
12

>  <nBondsKS>
32

>  <nBondsKD>
6

>  <RNCG>
0.3

>  <RPCG>
0.11

>  <FCSP3>
0.25

>  <SZ>
21.33

>  <Sm>
19.84

>  <Sv>
22.39

>  <Sse>
35.32

>  <Sp>
24.5

>  <Si>
40.32

>  <MZ>
0.59

>  <Mm>
0.55

>  <Mv>
0.62

>  <Mse>
0.98

>  <Mp>
0.68

>  <Mi>
1.12

>  <NsCH3>
2

>  <NdCH2>
0

>  <NssCH2>
1

>  <NtCH>
0

>  <NdsCH>
0

>  <NaaCH>
8

>  <NsssCH>
1

>  <NddC>
0

>  <NtsC>
0

>  <NdssC>
0

>  <NaasC>
4

>  <NaaaC>
0

>  <NssssC>
0

>  <NsNH3>
0

>  <NsNH2>
0

>  <NssNH2>
0

>  <NdNH>
0

>  <NssNH>
1

>  <NaaNH>
0

>  <NtN>
0

>  <NsssNH>
0

>  <NdsN>
0

>  <NaaN>
0

>  <NsssN>
1

>  <NddsN>
0

>  <NaasN>
0

>  <NssssN>
0

>  <NsOH>
0

>  <NdO>
0

>  <NssO>
0

>  <NaaO>
0

>  <NsF>
0

>  <NsSiH3>
0

>  <NssSiH2>
0

>  <NsssSiH>
0

>  <NssssSi>
0

>  <NsPH2>
0

>  <NssPH>
0

>  <NsssP>
0

>  <NdsssP>
0

>  <NsssssP>
0

>  <NsSH>
0

>  <NdS>
0

>  <NssS>
0

>  <NaaS>
0

>  <NdssS>
0

>  <NddssS>
0

>  <NsCl>
0

>  <NsBr>
0

>  <NsI>
0

>  <fragCpx>
94.02

>  <fMF>
0.42

>  <nHBAcc>
2

>  <nHBDon>
1

>  <Kier1>
13.01

>  <Kier2>
5.55

>  <Lipinski>
1

>  <GhoseFilter>
1

>  <FilterItLogS>
-4.19

>  <VMcGowan>
197.88

>  <LabuteASA>
108.25

>  <PEOE_VSA1>
10.22

>  <PEOE_VSA2>
0

>  <PEOE_VSA3>
0

>  <PEOE_VSA4>
0

>  <PEOE_VSA5>
0

>  <PEOE_VSA6>
36.4

>  <PEOE_VSA7>
36.73

>  <PEOE_VSA8>
24.46

>  <PEOE_VSA9>
0

>  <PEOE_VSA10>
0

>  <PEOE_VSA11>
0

>  <PEOE_VSA12>
0

>  <PEOE_VSA13>
0

>  <SMR_VSA1>
0

>  <SMR_VSA2>
0

>  <SMR_VSA3>
5.32

>  <SMR_VSA4>
0

>  <SMR_VSA5>
12.46

>  <SMR_VSA6>
19

>  <SMR_VSA7>
59.66

>  <SMR_VSA8>
0

>  <SMR_VSA9>
0

>  <SlogP_VSA1>
10.22

>  <SlogP_VSA2>
14.1

>  <SlogP_VSA3>
6.42

>  <SlogP_VSA4>
0

>  <SlogP_VSA5>
17.17

>  <SlogP_VSA6>
48.53

>  <SlogP_VSA7>
0

>  <SlogP_VSA8>
0

>  <SlogP_VSA9>
0

>  <SlogP_VSA10>
11.37

>  <SlogP_VSA11>
0

>  <EState_VSA1>
0

>  <EState_VSA2>
0

>  <EState_VSA3>
6.04

>  <EState_VSA4>
6.42

>  <EState_VSA5>
22.5

>  <EState_VSA6>
0

>  <EState_VSA7>
7.05

>  <EState_VSA8>
65.8

>  <EState_VSA9>
0

>  <EState_VSA10>
0

>  <VSA_EState1>
0

>  <VSA_EState2>
2.29

>  <VSA_EState3>
3.43

>  <VSA_EState4>
5.37

>  <VSA_EState5>
0

>  <VSA_EState6>
17.68

>  <VSA_EState7>
1.04

>  <VSA_EState8>
0

>  <VSA_EState9>
4.19

>  <apol>
40.92

>  <bpol>
20.34

>  <nRing>
3

>  <nHRing>
1

>  <naRing>
2

>  <naHRing>
0

>  <nARing 2>
1

>  <nAHRing 2>
1

>  <nFRing>
1

>  <nFHRing>
1

>  <nFaRing>
0

>  <nFaHRing>
0

>  <nFARing 2>
1

>  <nFAHRing 2>
1

>  <nRot>
1

>  <SLogP>
3.27

>  <SMR>
76.45

>  <TopoPSA(NO)>
15.27

>  <TopoPSA>
15.27

>  <JGI1>
0.13

>  <JGI2>
0.08

>  <JGI3>
0.05

>  <JGI4>
0.04

>  <JGI5>
0.02

>  <Diameter>
7

>  <Radius>
5

>  <TMWC10>
111.32

>  <TSRW10>
59.57

>  <MW>
238.15

>  <AMW>
6.62

>  <WPath>
522

>  <WPol>
34

>  <Zagreb1>
96

>  <Zagreb2>
116

>  <mZagreb2>
4.06

>  <yes>


>  <nAR-cont>
0.816016

>  <nHA-cont>
0.991161285

>  <MWHBN>
0.194399866

>  <MWHBN-cont>
0.997931984

>  <TPSA-cont>
0.893405918

>  <pka_cont>
0.97

>  <yes.1>


>  <BBB_SCORE>
5.575887097

>  <MMFF94 Energy>
67.624

$$$$
Compound 1459
Actelion Java MolfileCreator 2.0

  0  0  0  0  0  0              0 V3000
M  V30 BEGIN CTAB
M  V30 COUNTS 26 26 0 0 0
M  V30 BEGIN ATOM
M  V30 1 O 3.425 -0.1554 0.3887 0
M  V30 2 C 2.2571 0.3724 0.866 0
M  V30 3 C 2.3001 1.2931 1.911 0
M  V30 4 C 1.0349 -0.0071 0.3063 0
M  V30 5 O 3.5063 1.65 2.4444 0
M  V30 6 C 1.1217 1.847 2.4 0
M  V30 7 C -0.1664 0.5312 0.7913 0
M  V30 8 C -0.1018 1.4698 1.8393 0
M  V30 9 C -1.5307 0.1805 0.2238 0 CFG=1
M  V30 10 O -2.0164 1.2972 -0.5356 0
M  V30 11 C -1.6468 -1.0996 -0.6473 0
M  V30 12 N -1.0986 -0.9216 -2.0081 0
M  V30 13 C -1.3139 -2.1167 -2.8135 0
M  V30 14 H 3.2231 -0.7386 -0.359 0
M  V30 15 H 1.0252 -0.7197 -0.5128 0
M  V30 16 H 3.3599 2.2937 3.1538 0
M  V30 17 H 1.1334 2.5715 3.2081 0
M  V30 18 H -1.0184 1.9178 2.2219 0
M  V30 19 H -2.2178 0.0469 1.0693 0
M  V30 20 H -1.2319 1.695 -0.9546 0
M  V30 21 H -1.1632 -1.9437 -0.1415 0
M  V30 22 H -2.7151 -1.3334 -0.7447 0
M  V30 23 H -1.5973 -0.1368 -2.4353 0
M  V30 24 H -2.3794 -2.3456 -2.9188 0
M  V30 25 H -0.8022 -2.9818 -2.3794 0
M  V30 26 H -0.903 -1.9589 -3.8154 0
M  V30 END ATOM
M  V30 BEGIN BOND
M  V30 1 1 1 2
M  V30 2 2 2 3
M  V30 3 1 2 4
M  V30 4 1 3 5
M  V30 5 1 3 6
M  V30 6 2 4 7
M  V30 7 2 6 8
M  V30 8 1 7 9
M  V30 9 1 9 10
M  V30 10 1 9 11
M  V30 11 1 11 12
M  V30 12 1 12 13
M  V30 13 1 7 8
M  V30 14 1 1 14
M  V30 15 1 4 15
M  V30 16 1 5 16
M  V30 17 1 6 17
M  V30 18 1 8 18
M  V30 19 1 9 19
M  V30 20 1 10 20
M  V30 21 1 11 21
M  V30 22 1 11 22
M  V30 23 1 12 23
M  V30 24 1 13 24
M  V30 25 1 13 25
M  V30 26 1 13 26
M  V30 END BOND
M  V30 BEGIN COLLECTION
M  V30 MDLV30/STERAC1 ATOMS=(1 9)
M  V30 END COLLECTION
M  V30 END CTAB
M  END
>  <Column 1>
1738

>  <level_0>
1899

>  <index>
1899

>  <Unnamed: 0>
1899

>  <NO.>
1911

>  <Name>
dl-adrenaline

>  <IUPAC_name>
4-[1-hydroxy-2-(methylamino)ethyl]benzene-1-2-diol

>  <SMILES>
CNCC(O)c1ccc(O)c(O)c1

>  <CID>
838

>  <logBB>


>  <BBB+/BBB->
BBB-

>  <Inchi>
InChI=1S/C9H13NO3/c1-10-5-9(13)6-2-3-7(11)8(12)4-6/h2-4-9-13H-5H2-1H3

>  <threshold>
-1

>  <reference>
R1|R19|R19|R28|R27|R27|R30|R36|

>  <group>
B

>  <Class>
-1

>  <ABC>
9.44

>  <ABCGG>
8.87

>  <nAcid>
0

>  <nBase>
1

>  <nAromAtom>
6

>  <nAromBond>
6

>  <nAtom>
26

>  <nHeavyAtom>
13

>  <nSpiro>
0

>  <nBridgehead>
0

>  <nHetero>
4

>  <nN>
1

>  <nO>
3

>  <nF>
0

>  <BalabanJ>
2.36

>  <BertzCT>
288.19

>  <nBonds>
26

>  <nBondsO>
13

>  <nBondsS>
20

>  <nBondsD>
0

>  <nBondsT>
0

>  <nBondsA>
6

>  <nBondsM>
6

>  <nBondsKS>
23

>  <nBondsKD>
3

>  <RNCG>
0.28

>  <RPCG>
0.16

>  <FCSP3>
0.33

>  <SZ>
16.33

>  <Sm>
15.25

>  <Sv>
15.42

>  <Sse>
26.43

>  <Sp>
16.29

>  <Si>
29.62

>  <MZ>
0.63

>  <Mm>
0.59

>  <Mv>
0.59

>  <Mse>
1.02

>  <Mp>
0.63

>  <Mi>
1.14

>  <NsCH3>
1

>  <NdCH2>
0

>  <NssCH2>
1

>  <NtCH>
0

>  <NdsCH>
0

>  <NaaCH>
3

>  <NsssCH>
1

>  <NddC>
0

>  <NtsC>
0

>  <NdssC>
0

>  <NaasC>
3

>  <NaaaC>
0

>  <NssssC>
0

>  <NsNH3>
0

>  <NsNH2>
0

>  <NssNH2>
0

>  <NdNH>
0

>  <NssNH>
1

>  <NaaNH>
0

>  <NtN>
0

>  <NsssNH>
0

>  <NdsN>
0

>  <NaaN>
0

>  <NsssN>
0

>  <NddsN>
0

>  <NaasN>
0

>  <NssssN>
0

>  <NsOH>
3

>  <NdO>
0

>  <NssO>
0

>  <NaaO>
0

>  <NsF>
0

>  <NsSiH3>
0

>  <NssSiH2>
0

>  <NsssSiH>
0

>  <NssssSi>
0

>  <NsPH2>
0

>  <NssPH>
0

>  <NsssP>
0

>  <NdsssP>
0

>  <NsssssP>
0

>  <NsSH>
0

>  <NdS>
0

>  <NssS>
0

>  <NaaS>
0

>  <NdssS>
0

>  <NddssS>
0

>  <NsCl>
0

>  <NsBr>
0

>  <NsI>
0

>  <fragCpx>
13.04

>  <fMF>
0.23

>  <nHBAcc>
4

>  <nHBDon>
4

>  <Kier1>
11.08

>  <Kier2>
5.02

>  <Lipinski>
1

>  <GhoseFilter>
1

>  <FilterItLogS>
-1.11

>  <VMcGowan>
141.5

>  <LabuteASA>
76.46

>  <PEOE_VSA1>
20.64

>  <PEOE_VSA2>
0

>  <PEOE_VSA3>
0

>  <PEOE_VSA4>
0

>  <PEOE_VSA5>
0

>  <PEOE_VSA6>
6.07

>  <PEOE_VSA7>
24.74

>  <PEOE_VSA8>
6.54

>  <PEOE_VSA9>
6.1

>  <PEOE_VSA10>
0

>  <PEOE_VSA11>
11.5

>  <PEOE_VSA12>
0

>  <PEOE_VSA13>
0

>  <SMR_VSA1>
15.32

>  <SMR_VSA2>
0

>  <SMR_VSA3>
5.32

>  <SMR_VSA4>
0

>  <SMR_VSA5>
6.1

>  <SMR_VSA6>
13.59

>  <SMR_VSA7>
23.76

>  <SMR_VSA8>
0

>  <SMR_VSA9>
11.5

>  <SlogP_VSA1>
5.32

>  <SlogP_VSA2>
28.91

>  <SlogP_VSA3>
0

>  <SlogP_VSA4>
0

>  <SlogP_VSA5>
11.67

>  <SlogP_VSA6>
18.2

>  <SlogP_VSA7>
0

>  <SlogP_VSA8>
0

>  <SlogP_VSA9>
0

>  <SlogP_VSA10>
0

>  <SlogP_VSA11>
11.5

>  <EState_VSA1>
6.1

>  <EState_VSA2>
11.5

>  <EState_VSA3>
12.11

>  <EState_VSA4>
0

>  <EState_VSA5>
12.13

>  <EState_VSA6>
13.11

>  <EState_VSA7>
0

>  <EState_VSA8>
5.32

>  <EState_VSA9>
10.21

>  <EState_VSA10>
5.11

>  <VSA_EState1>
0

>  <VSA_EState2>
0

>  <VSA_EState3>
30.43

>  <VSA_EState4>
0.57

>  <VSA_EState5>
-0.4

>  <VSA_EState6>
4.26

>  <VSA_EState7>
-0.67

>  <VSA_EState8>
0.41

>  <VSA_EState9>
1.73

>  <apol>
27.2

>  <bpol>
13.61

>  <nRing>
1

>  <nHRing>
0

>  <naRing>
1

>  <naHRing>
0

>  <nARing 2>
0

>  <nAHRing 2>
0

>  <nFRing>
0

>  <nFHRing>
0

>  <nFaRing>
0

>  <nFaHRing>
0

>  <nFARing 2>
0

>  <nFAHRing 2>
0

>  <nRot>
3

>  <SLogP>
0.35

>  <SMR>
48.66

>  <TopoPSA(NO)>
72.72

>  <TopoPSA>
72.72

>  <JGI1>
0.23

>  <JGI2>
0.12

>  <JGI3>
0.05

>  <JGI4>
0.05

>  <JGI5>
0.04

>  <Diameter>
8

>  <Radius>
4

>  <TMWC10>
92.57

>  <TSRW10>
43.62

>  <MW>
183.09

>  <AMW>
7.04

>  <WPath>
256

>  <WPol>
17

>  <Zagreb1>
60

>  <Zagreb2>
67

>  <mZagreb2>
3.06

>  <yes>


>  <nAR-cont>
0.336376

>  <nHA-cont>
0.841215992

>  <MWHBN>
0.59123165

>  <MWHBN-cont>
0

>  <TPSA-cont>
0.492369244

>  <pka_cont>
0.97

>  <yes.1>


>  <BBB_SCORE>
2.647330479

>  <MMFF94 Energy>
48.688

$$$$
Compound 1460
Actelion Java MolfileCreator 2.0

  0  0  0  0  0  0              0 V3000
M  V30 BEGIN CTAB
M  V30 COUNTS 39 39 0 0 0
M  V30 BEGIN ATOM
M  V30 1 O 0.7035 -2.1118 1.4857 0
M  V30 2 C 0.263 -2.6083 0.4562 0
M  V30 3 O -0.5412 -1.9625 -0.4822 0
M  V30 4 C 0.5168 -4.053 0.009 0
M  V30 5 C -0.8279 -0.6251 -0.1941 0
M  V30 6 C 1.4043 -4.76 1.046 0
M  V30 7 C -0.8193 -4.7999 -0.0953 0
M  V30 8 C 1.2381 -4.051 -1.3451 0
M  V30 9 C 0.1688 0.3479 -0.2678 0
M  V30 10 C -2.148 -0.2851 0.0788 0
M  V30 11 C -0.1386 1.6971 -0.0194 0
M  V30 12 C -2.4677 1.0494 0.3119 0
M  V30 13 C -1.4721 2.0322 0.2631 0
M  V30 14 C 0.983 2.7156 -0.1021 0 CFG=1
M  V30 15 O 1.3265 2.9076 -1.4825 0
M  V30 16 C 0.7455 4.1047 0.5494 0
M  V30 17 N -0.1052 4.9893 -0.2744 0
M  V30 18 C -0.2428 6.2997 0.3469 0
M  V30 19 H 0.9271 -4.7755 2.0329 0
M  V30 20 H 1.6061 -5.7972 0.7562 0
M  V30 21 H 2.3683 -4.2502 1.1573 0
M  V30 22 H -1.3692 -4.7571 0.8519 0
M  V30 23 H -1.4665 -4.3655 -0.8655 0
M  V30 24 H -0.6654 -5.8543 -0.3501 0
M  V30 25 H 2.1658 -3.4693 -1.2959 0
M  V30 26 H 0.6187 -3.6073 -2.1327 0
M  V30 27 H 1.4929 -5.0689 -1.6603 0
M  V30 28 H 1.1883 0.0593 -0.5125 0
M  V30 29 H -2.9202 -1.0471 0.109 0
M  V30 30 H -3.4947 1.3326 0.5289 0
M  V30 31 H -1.7634 3.065 0.4428 0
M  V30 32 H 1.8637 2.2838 0.39 0
M  V30 33 H 0.4786 2.9005 -1.9625 0
M  V30 34 H 0.3245 3.983 1.5545 0
M  V30 35 H 1.7253 4.589 0.6537 0
M  V30 36 H 0.3565 5.0955 -1.1808 0
M  V30 37 H 0.7267 6.7944 0.4643 0
M  V30 38 H -0.7272 6.2231 1.3256 0
M  V30 39 H -0.8713 6.9369 -0.2829 0
M  V30 END ATOM
M  V30 BEGIN BOND
M  V30 1 2 1 2
M  V30 2 1 2 3
M  V30 3 1 2 4
M  V30 4 1 3 5
M  V30 5 1 4 6
M  V30 6 1 4 7
M  V30 7 1 4 8
M  V30 8 2 5 9
M  V30 9 1 5 10
M  V30 10 1 9 11
M  V30 11 2 10 12
M  V30 12 2 11 13
M  V30 13 1 11 14
M  V30 14 1 14 15
M  V30 15 1 14 16
M  V30 16 1 16 17
M  V30 17 1 17 18
M  V30 18 1 12 13
M  V30 19 1 6 19
M  V30 20 1 6 20
M  V30 21 1 6 21
M  V30 22 1 7 22
M  V30 23 1 7 23
M  V30 24 1 7 24
M  V30 25 1 8 25
M  V30 26 1 8 26
M  V30 27 1 8 27
M  V30 28 1 9 28
M  V30 29 1 10 29
M  V30 30 1 12 30
M  V30 31 1 13 31
M  V30 32 1 14 32
M  V30 33 1 15 33
M  V30 34 1 16 34
M  V30 35 1 16 35
M  V30 36 1 17 36
M  V30 37 1 18 37
M  V30 38 1 18 38
M  V30 39 1 18 39
M  V30 END BOND
M  V30 BEGIN COLLECTION
M  V30 MDLV30/STERAC1 ATOMS=(1 14)
M  V30 END COLLECTION
M  V30 END CTAB
M  END
>  <Column 1>
1739

>  <level_0>
1900

>  <index>
1900

>  <Unnamed: 0>
1900

>  <NO.>
1912

>  <Name>
pivenfrine

>  <IUPAC_name>
[3-[1-hydroxy-2-(methylamino)ethyl]phenyl] 2-2-dimethylpropanoate

>  <SMILES>
CNCC(O)c1cccc(OC(=O)C(C)(C)C)c1

>  <CID>
130545

>  <logBB>


>  <BBB+/BBB->
BBB-

>  <Inchi>
InChI=1S/C14H21NO3/c1-14(2-3)13(17)18-11-7-5-6-10(8-11)12(16)9-15-4/h5-8-12-15-16H-9H2-1-4H3

>  <threshold>
-1

>  <reference>
R1|R19|R6|R27|R27|R30|

>  <group>
B

>  <Class>
1

>  <ABC>
13.32

>  <ABCGG>
12.06

>  <nAcid>
0

>  <nBase>
1

>  <nAromAtom>
6

>  <nAromBond>
6

>  <nAtom>
39

>  <nHeavyAtom>
18

>  <nSpiro>
0

>  <nBridgehead>
0

>  <nHetero>
4

>  <nN>
1

>  <nO>
3

>  <nF>
0

>  <BalabanJ>
2.44

>  <BertzCT>
409.75

>  <nBonds>
39

>  <nBondsO>
18

>  <nBondsS>
32

>  <nBondsD>
1

>  <nBondsT>
0

>  <nBondsA>
6

>  <nBondsM>
7

>  <nBondsKS>
35

>  <nBondsKD>
4

>  <RNCG>
0.25

>  <RPCG>
0.19

>  <FCSP3>
0.5

>  <SZ>
22.67

>  <Sm>
20.92

>  <Sv>
22.59

>  <Sse>
38.98

>  <Sp>
24.48

>  <Si>
44.28

>  <MZ>
0.58

>  <Mm>
0.54

>  <Mv>
0.58

>  <Mse>
1

>  <Mp>
0.63

>  <Mi>
1.14

>  <NsCH3>
4

>  <NdCH2>
0

>  <NssCH2>
1

>  <NtCH>
0

>  <NdsCH>
0

>  <NaaCH>
4

>  <NsssCH>
1

>  <NddC>
0

>  <NtsC>
0

>  <NdssC>
1

>  <NaasC>
2

>  <NaaaC>
0

>  <NssssC>
1

>  <NsNH3>
0

>  <NsNH2>
0

>  <NssNH2>
0

>  <NdNH>
0

>  <NssNH>
1

>  <NaaNH>
0

>  <NtN>
0

>  <NsssNH>
0

>  <NdsN>
0

>  <NaaN>
0

>  <NsssN>
0

>  <NddsN>
0

>  <NaasN>
0

>  <NssssN>
0

>  <NsOH>
1

>  <NdO>
1

>  <NssO>
1

>  <NaaO>
0

>  <NsF>
0

>  <NsSiH3>
0

>  <NssSiH2>
0

>  <NsssSiH>
0

>  <NssssSi>
0

>  <NsPH2>
0

>  <NssPH>
0

>  <NsssP>
0

>  <NdsssP>
0

>  <NsssssP>
0

>  <NsSH>
0

>  <NdS>
0

>  <NssS>
0

>  <NaaS>
0

>  <NdssS>
0

>  <NddssS>
0

>  <NsCl>
0

>  <NsBr>
0

>  <NsI>
0

>  <fragCpx>
18.04

>  <fMF>
0.15

>  <nHBAcc>
4

>  <nHBDon>
2

>  <Kier1>
16.06

>  <Kier2>
6.96

>  <Lipinski>
1

>  <GhoseFilter>
1

>  <FilterItLogS>
-3.01

>  <VMcGowan>
207.65

>  <LabuteASA>
107.97

>  <PEOE_VSA1>
15.16

>  <PEOE_VSA2>
4.79

>  <PEOE_VSA3>
0

>  <PEOE_VSA4>
0

>  <PEOE_VSA5>
0

>  <PEOE_VSA6>
12.13

>  <PEOE_VSA7>
45.52

>  <PEOE_VSA8>
6.54

>  <PEOE_VSA9>
11.52

>  <PEOE_VSA10>
5.75

>  <PEOE_VSA11>
0

>  <PEOE_VSA12>
0

>  <PEOE_VSA13>
0

>  <SMR_VSA1>
14.64

>  <SMR_VSA2>
0

>  <SMR_VSA3>
5.32

>  <SMR_VSA4>
5.41

>  <SMR_VSA5>
26.88

>  <SMR_VSA6>
13.59

>  <SMR_VSA7>
29.83

>  <SMR_VSA8>
0

>  <SMR_VSA9>
5.75

>  <SlogP_VSA1>
10.05

>  <SlogP_VSA2>
24.67

>  <SlogP_VSA3>
4.79

>  <SlogP_VSA4>
5.41

>  <SlogP_VSA5>
32.44

>  <SlogP_VSA6>
24.27

>  <SlogP_VSA7>
0

>  <SlogP_VSA8>
0

>  <SlogP_VSA9>
0

>  <SlogP_VSA10>
0

>  <SlogP_VSA11>
5.75

>  <EState_VSA1>
11.52

>  <EState_VSA2>
5.97

>  <EState_VSA3>
12.29

>  <EState_VSA4>
5.56

>  <EState_VSA5>
0

>  <EState_VSA6>
52.08

>  <EState_VSA7>
0

>  <EState_VSA8>
5.32

>  <EState_VSA9>
4.74

>  <EState_VSA10>
9.9

>  <VSA_EState1>
5.28

>  <VSA_EState2>
11.74

>  <VSA_EState3>
12.73

>  <VSA_EState4>
0.18

>  <VSA_EState5>
0.17

>  <VSA_EState6>
6.96

>  <VSA_EState7>
-0.61

>  <VSA_EState8>
5.86

>  <VSA_EState9>
1.77

>  <apol>
40.89

>  <bpol>
24.24

>  <nRing>
1

>  <nHRing>
0

>  <naRing>
1

>  <naHRing>
0

>  <nARing 2>
0

>  <nAHRing 2>
0

>  <nFRing>
0

>  <nFHRing>
0

>  <nFaRing>
0

>  <nFaHRing>
0

>  <nFARing 2>
0

>  <nFAHRing 2>
0

>  <nRot>
4

>  <SLogP>
1.89

>  <SMR>
70.42

>  <TopoPSA(NO)>
58.56

>  <TopoPSA>
58.56

>  <JGI1>
0.31

>  <JGI2>
0.1

>  <JGI3>
0.05

>  <JGI4>
0.05

>  <JGI5>
0.03

>  <Diameter>
10

>  <Radius>
5

>  <TMWC10>
106

>  <TSRW10>
50.48

>  <MW>
251.15

>  <AMW>
6.44

>  <WPath>
654

>  <WPol>
24

>  <Zagreb1>
86

>  <Zagreb2>
95

>  <mZagreb2>
4.03

>  <yes>


>  <nAR-cont>
0.336376

>  <nHA-cont>
0.991161285

>  <MWHBN>
0.37860353

>  <MWHBN-cont>
0.560281874

>  <TPSA-cont>
0.591214836

>  <pka_cont>
0.97

>  <yes.1>


>  <BBB_SCORE>
3.835389768

>  <MMFF94 Energy>
71.281

$$$$
Compound 1461
Actelion Java MolfileCreator 2.0

  0  0  0  0  0  0              0 V3000
M  V30 BEGIN CTAB
M  V30 COUNTS 38 41 0 0 0
M  V30 BEGIN ATOM
M  V30 1 N -1.288 -2.013 1.9325 0
M  V30 2 C -1.5402 -1.2152 0.7189 0
M  V30 3 C -2.2487 -3.0977 2.0639 0
M  V30 4 C -0.4571 -0.1411 0.401 0
M  V30 5 C 0.9294 -0.6901 -0.0246 0
M  V30 6 C -0.881 0.8617 -0.7068 0
M  V30 7 C -0.1832 0.7563 1.6641 0
M  V30 8 C 1.8883 0.333 -0.2692 0
M  V30 9 C 1.2876 -2.0201 -0.2278 0
M  V30 10 C 0.0923 1.8689 -0.9584 0
M  V30 11 C -2.0594 0.8503 -1.4484 0
M  V30 12 C 0.8722 1.8588 1.3621 0
M  V30 13 C 3.185 0.0254 -0.6667 0
M  V30 14 C 1.3478 1.749 -0.1013 0
M  V30 15 C 2.5931 -2.3262 -0.6246 0
M  V30 16 C -0.1178 2.848 -1.923 0
M  V30 17 C -2.2683 1.8382 -2.4157 0
M  V30 18 C 3.5355 -1.3127 -0.8361 0
M  V30 19 C -1.307 2.8292 -2.6499 0
M  V30 20 H -0.3398 -2.3861 1.9188 0
M  V30 21 H -1.6526 -1.879 -0.1485 0
M  V30 22 H -2.5049 -0.7125 0.8653 0
M  V30 23 H -2.1746 -3.8021 1.2293 0
M  V30 24 H -3.273 -2.7155 2.1207 0
M  V30 25 H -2.0516 -3.6494 2.9882 0
M  V30 26 H 0.1842 0.1516 2.503 0
M  V30 27 H -1.1127 1.2333 2.0026 0
M  V30 28 H 0.5772 -2.8297 -0.1003 0
M  V30 29 H -2.8222 0.0932 -1.2999 0
M  V30 30 H 0.4323 2.846 1.5527 0
M  V30 31 H 1.7193 1.7503 2.0512 0
M  V30 32 H 3.912 0.8091 -0.8553 0
M  V30 33 H 2.0937 2.5108 -0.3481 0
M  V30 34 H 2.8785 -3.3638 -0.7807 0
M  V30 35 H 0.6287 3.6122 -2.1153 0
M  V30 36 H -3.1872 1.8355 -2.9972 0
M  V30 37 H 4.5434 -1.5717 -1.1502 0
M  V30 38 H -1.488 3.5857 -3.4094 0
M  V30 END ATOM
M  V30 BEGIN BOND
M  V30 1 1 1 2
M  V30 2 1 1 3
M  V30 3 1 2 4
M  V30 4 1 4 5
M  V30 5 1 4 6
M  V30 6 1 4 7
M  V30 7 2 5 8
M  V30 8 1 5 9
M  V30 9 2 6 10
M  V30 10 1 6 11
M  V30 11 1 7 12
M  V30 12 1 8 13
M  V30 13 1 8 14
M  V30 14 2 9 15
M  V30 15 1 10 16
M  V30 16 2 11 17
M  V30 17 2 13 18
M  V30 18 2 16 19
M  V30 19 1 10 14
M  V30 20 1 12 14
M  V30 21 1 15 18
M  V30 22 1 17 19
M  V30 23 1 1 20
M  V30 24 1 2 21
M  V30 25 1 2 22
M  V30 26 1 3 23
M  V30 27 1 3 24
M  V30 28 1 3 25
M  V30 29 1 7 26
M  V30 30 1 7 27
M  V30 31 1 9 28
M  V30 32 1 11 29
M  V30 33 1 12 30
M  V30 34 1 12 31
M  V30 35 1 13 32
M  V30 36 1 14 33
M  V30 37 1 15 34
M  V30 38 1 16 35
M  V30 39 1 17 36
M  V30 40 1 18 37
M  V30 41 1 19 38
M  V30 END BOND
M  V30 END CTAB
M  END
>  <Column 1>
1740

>  <level_0>
1901

>  <index>
1901

>  <Unnamed: 0>
1901

>  <NO.>
1913

>  <Name>
benzoctamine

>  <IUPAC_name>
n-methyl-1-(1-tetracyclo[6.6.2.02-7.09-14]hexadeca-2-4-6-9-11-13-hexaenyl)methanamine

>  <SMILES>
CNCC12CCC(c3ccccc31)c1ccccc12

>  <CID>
28425

>  <logBB>


>  <BBB+/BBB->
BBB+

>  <Inchi>
InChI=1S/C18H19N/c1-19-12-18-11-10-13(14-6-2-4-8-16(14)18)15-7-3-5-9-17(15)18/h2-9-13-19H-10-12H2-1H3

>  <threshold>
-1

>  <reference>
R1|R13|R19|R6|R24|R27|R27|R27|R30|R30|

>  <group>
B

>  <Class>
1

>  <ABC>
15.27

>  <ABCGG>
12.06

>  <nAcid>
0

>  <nBase>
1

>  <nAromAtom>
12

>  <nAromBond>
12

>  <nAtom>
38

>  <nHeavyAtom>
19

>  <nSpiro>
0

>  <nBridgehead>
2

>  <nHetero>
1

>  <nN>
1

>  <nO>
0

>  <nF>
0

>  <BalabanJ>
1.72

>  <BertzCT>
581.59

>  <nBonds>
41

>  <nBondsO>
22

>  <nBondsS>
29

>  <nBondsD>
0

>  <nBondsT>
0

>  <nBondsA>
12

>  <nBondsM>
12

>  <nBondsKS>
35

>  <nBondsKD>
6

>  <RNCG>
0.31

>  <RPCG>
0.12

>  <FCSP3>
0.33

>  <SZ>
22.33

>  <Sm>
20.76

>  <Sv>
23.91

>  <Sse>
37.1

>  <Sp>
26.24

>  <Si>
42.24

>  <MZ>
0.59

>  <Mm>
0.55

>  <Mv>
0.63

>  <Mse>
0.98

>  <Mp>
0.69

>  <Mi>
1.11

>  <NsCH3>
1

>  <NdCH2>
0

>  <NssCH2>
3

>  <NtCH>
0

>  <NdsCH>
0

>  <NaaCH>
8

>  <NsssCH>
1

>  <NddC>
0

>  <NtsC>
0

>  <NdssC>
0

>  <NaasC>
4

>  <NaaaC>
0

>  <NssssC>
1

>  <NsNH3>
0

>  <NsNH2>
0

>  <NssNH2>
0

>  <NdNH>
0

>  <NssNH>
1

>  <NaaNH>
0

>  <NtN>
0

>  <NsssNH>
0

>  <NdsN>
0

>  <NaaN>
0

>  <NsssN>
0

>  <NddsN>
0

>  <NaasN>
0

>  <NssssN>
0

>  <NsOH>
0

>  <NdO>
0

>  <NssO>
0

>  <NaaO>
0

>  <NsF>
0

>  <NsSiH3>
0

>  <NssSiH2>
0

>  <NsssSiH>
0

>  <NssssSi>
0

>  <NsPH2>
0

>  <NssPH>
0

>  <NsssP>
0

>  <NdsssP>
0

>  <NsssssP>
0

>  <NsSH>
0

>  <NdS>
0

>  <NssS>
0

>  <NaaS>
0

>  <NdssS>
0

>  <NddssS>
0

>  <NsCl>
0

>  <NsBr>
0

>  <NsI>
0

>  <fragCpx>
142.01

>  <fMF>
0.42

>  <nHBAcc>
1

>  <nHBDon>
1

>  <Kier1>
12.72

>  <Kier2>
4.78

>  <Lipinski>
1

>  <GhoseFilter>
1

>  <FilterItLogS>
-5.41

>  <VMcGowan>
205.22

>  <LabuteASA>
114.22

>  <PEOE_VSA1>
5.32

>  <PEOE_VSA2>
0

>  <PEOE_VSA3>
0

>  <PEOE_VSA4>
0

>  <PEOE_VSA5>
0

>  <PEOE_VSA6>
48.53

>  <PEOE_VSA7>
42.14

>  <PEOE_VSA8>
17.88

>  <PEOE_VSA9>
0

>  <PEOE_VSA10>
0

>  <PEOE_VSA11>
0

>  <PEOE_VSA12>
0

>  <PEOE_VSA13>
0

>  <SMR_VSA1>
0

>  <SMR_VSA2>
0

>  <SMR_VSA3>
5.32

>  <SMR_VSA4>
0

>  <SMR_VSA5>
24.17

>  <SMR_VSA6>
13.59

>  <SMR_VSA7>
70.78

>  <SMR_VSA8>
0

>  <SMR_VSA9>
0

>  <SlogP_VSA1>
5.32

>  <SlogP_VSA2>
13.59

>  <SlogP_VSA3>
5.41

>  <SlogP_VSA4>
0

>  <SlogP_VSA5>
41.01

>  <SlogP_VSA6>
48.53

>  <SlogP_VSA7>
0

>  <SlogP_VSA8>
0

>  <SlogP_VSA9>
0

>  <SlogP_VSA10>
0

>  <SlogP_VSA11>
0

>  <EState_VSA1>
0

>  <EState_VSA2>
5.41

>  <EState_VSA3>
5.92

>  <EState_VSA4>
6.54

>  <EState_VSA5>
12.84

>  <EState_VSA6>
22.25

>  <EState_VSA7>
0

>  <EState_VSA8>
60.9

>  <EState_VSA9>
0

>  <EState_VSA10>
0

>  <VSA_EState1>
0

>  <VSA_EState2>
0

>  <VSA_EState3>
3.44

>  <VSA_EState4>
6.42

>  <VSA_EState5>
0.62

>  <VSA_EState6>
18.12

>  <VSA_EState7>
2.56

>  <VSA_EState8>
1.04

>  <VSA_EState9>
2.07

>  <apol>
43.83

>  <bpol>
19.63

>  <nRing>
5

>  <nHRing>
0

>  <naRing>
2

>  <naHRing>
0

>  <nARing 2>
3

>  <nAHRing 2>
0

>  <nFRing>
1

>  <nFHRing>
0

>  <nFaRing>
0

>  <nFaHRing>
0

>  <nFARing 2>
1

>  <nFAHRing 2>
0

>  <nRot>
2

>  <SLogP>
3.43

>  <SMR>
78.67

>  <TopoPSA(NO)>
12.03

>  <TopoPSA>
12.03

>  <JGI1>
0.14

>  <JGI2>
0.09

>  <JGI3>
0.05

>  <JGI4>
0.04

>  <JGI5>
0.02

>  <Diameter>
7

>  <Radius>
4

>  <TMWC10>
117.71

>  <TSRW10>
53.89

>  <MW>
249.15

>  <AMW>
6.56

>  <WPath>
578

>  <WPol>
38

>  <Zagreb1>
110

>  <Zagreb2>
140

>  <mZagreb2>
4.19

>  <yes>


>  <nAR-cont>
0.691115

>  <nHA-cont>
0.998649058

>  <MWHBN>
0.126706691

>  <MWHBN-cont>
0.856949767

>  <TPSA-cont>
0.91602313

>  <pka_cont>
0.97

>  <yes.1>


>  <BBB_SCORE>
5.292234968

>  <MMFF94 Energy>
115.06

$$$$
Compound 1462
Actelion Java MolfileCreator 2.0

  0  0  0  0  0  0              0 V3000
M  V30 BEGIN CTAB
M  V30 COUNTS 40 42 0 0 0
M  V30 BEGIN ATOM
M  V30 1 S 0.7235 2.2522 3.4604 0
M  V30 2 C 1.2391 1.8006 1.8843 0
M  V30 3 C 2.3046 2.1425 4.0945 0
M  V30 4 C 2.6121 1.6082 1.86 0
M  V30 5 C 0.2712 1.709 0.7167 0 CFG=1
M  V30 6 C 3.2227 1.7925 3.1327 0
M  V30 7 O 0.7868 0.8013 -0.2768 0
M  V30 8 C -1.2209 1.5064 1.0361 0
M  V30 9 C 0.7102 -0.5634 -0.1491 0
M  V30 10 C -2.0776 1.478 -0.2345 0
M  V30 11 C 0.8254 -1.3022 -1.3567 0
M  V30 12 C 0.5634 -1.2368 1.0656 0
M  V30 13 N -3.4951 1.3809 0.1288 0
M  V30 14 C 0.7617 -2.7169 -1.3112 0
M  V30 15 C 0.995 -0.6893 -2.6185 0
M  V30 16 C 0.503 -2.6289 1.1001 0
M  V30 17 C -4.3352 1.3552 -1.0621 0
M  V30 18 C 0.5975 -3.3631 -0.0789 0
M  V30 19 C 0.8647 -3.4615 -2.4984 0
M  V30 20 C 1.0966 -1.442 -3.7903 0
M  V30 21 C 1.0308 -2.8283 -3.7297 0
M  V30 22 H 2.4869 2.3473 5.1407 0
M  V30 23 H 3.1528 1.3343 0.9607 0
M  V30 24 H 0.3396 2.6933 0.2306 0
M  V30 25 H 4.2816 1.6783 3.3297 0
M  V30 26 H -1.3851 0.5827 1.602 0
M  V30 27 H -1.572 2.3261 1.6767 0
M  V30 28 H -1.8 0.6263 -0.8643 0
M  V30 29 H -1.905 2.3966 -0.8078 0
M  V30 30 H 0.5068 -0.7118 2.0123 0
M  V30 31 H -3.648 0.523 0.66 0
M  V30 32 H 1.0514 0.3949 -2.6937 0
M  V30 33 H 0.389 -3.1425 2.0516 0
M  V30 34 H -4.1079 0.4915 -1.6955 0
M  V30 35 H -4.2177 2.2718 -1.6491 0
M  V30 36 H -5.3864 1.2874 -0.7646 0
M  V30 37 H 0.5494 -4.4486 -0.027 0
M  V30 38 H 0.8173 -4.5481 -2.4716 0
M  V30 39 H 1.228 -0.9421 -4.7462 0
M  V30 40 H 1.11 -3.4184 -4.6388 0
M  V30 END ATOM
M  V30 BEGIN BOND
M  V30 1 1 1 2
M  V30 2 1 1 3
M  V30 3 2 2 4
M  V30 4 1 2 5
M  V30 5 2 3 6
M  V30 6 1 5 7
M  V30 7 1 5 8
M  V30 8 1 7 9
M  V30 9 1 8 10
M  V30 10 1 9 11
M  V30 11 2 9 12
M  V30 12 1 10 13
M  V30 13 1 11 14
M  V30 14 2 11 15
M  V30 15 1 12 16
M  V30 16 1 13 17
M  V30 17 1 14 18
M  V30 18 2 14 19
M  V30 19 1 15 20
M  V30 20 1 19 21
M  V30 21 1 4 6
M  V30 22 2 16 18
M  V30 23 2 20 21
M  V30 24 1 3 22
M  V30 25 1 4 23
M  V30 26 1 5 24
M  V30 27 1 6 25
M  V30 28 1 8 26
M  V30 29 1 8 27
M  V30 30 1 10 28
M  V30 31 1 10 29
M  V30 32 1 12 30
M  V30 33 1 13 31
M  V30 34 1 15 32
M  V30 35 1 16 33
M  V30 36 1 17 34
M  V30 37 1 17 35
M  V30 38 1 17 36
M  V30 39 1 18 37
M  V30 40 1 19 38
M  V30 41 1 20 39
M  V30 42 1 21 40
M  V30 END BOND
M  V30 BEGIN COLLECTION
M  V30 MDLV30/STERAC1 ATOMS=(1 5)
M  V30 END COLLECTION
M  V30 END CTAB
M  END
>  <Column 1>
1741

>  <level_0>
1902

>  <index>
1902

>  <Unnamed: 0>
1902

>  <NO.>
1914

>  <Name>
duloxetine

>  <IUPAC_name>
n-methyl-3-naphthalen-1-yloxy-3-thiophen-2-ylpropan-1-amine

>  <SMILES>
CNCCC(Oc1cccc2ccccc12)c1cccs1

>  <CID>
122252

>  <logBB>


>  <BBB+/BBB->
BBB+

>  <Inchi>
InChI=1S/C18H19NOS/c1-19-12-11-17(18-10-5-13-21-18)20-16-9-4-7-14-6-2-3-8-15(14)16/h2-10-13-17-19H-11-12H2-1H3

>  <threshold>
-1

>  <reference>
R1|R19|R14|R23|R27|R27|R30|R37|

>  <group>
B

>  <Class>
1

>  <ABC>
16.14

>  <ABCGG>
13.56

>  <nAcid>
0

>  <nBase>
1

>  <nAromAtom>
15

>  <nAromBond>
16

>  <nAtom>
40

>  <nHeavyAtom>
21

>  <nSpiro>
0

>  <nBridgehead>
0

>  <nHetero>
3

>  <nN>
1

>  <nO>
1

>  <nF>
0

>  <BalabanJ>
1.59

>  <BertzCT>
688.02

>  <nBonds>
42

>  <nBondsO>
23

>  <nBondsS>
26

>  <nBondsD>
0

>  <nBondsT>
0

>  <nBondsA>
16

>  <nBondsM>
16

>  <nBondsKS>
35

>  <nBondsKD>
7

>  <RNCG>
0.34

>  <RPCG>
0.09

>  <FCSP3>
0.22

>  <SZ>
26.33

>  <Sm>
24.76

>  <Sv>
25.81

>  <Sse>
39.51

>  <Sp>
28.46

>  <Si>
44.37

>  <MZ>
0.66

>  <Mm>
0.62

>  <Mv>
0.65

>  <Mse>
0.99

>  <Mp>
0.71

>  <Mi>
1.11

>  <NsCH3>
1

>  <NdCH2>
0

>  <NssCH2>
2

>  <NtCH>
0

>  <NdsCH>
0

>  <NaaCH>
10

>  <NsssCH>
1

>  <NddC>
0

>  <NtsC>
0

>  <NdssC>
0

>  <NaasC>
2

>  <NaaaC>
2

>  <NssssC>
0

>  <NsNH3>
0

>  <NsNH2>
0

>  <NssNH2>
0

>  <NdNH>
0

>  <NssNH>
1

>  <NaaNH>
0

>  <NtN>
0

>  <NsssNH>
0

>  <NdsN>
0

>  <NaaN>
0

>  <NsssN>
0

>  <NddsN>
0

>  <NaasN>
0

>  <NssssN>
0

>  <NsOH>
0

>  <NdO>
0

>  <NssO>
1

>  <NaaO>
0

>  <NsF>
0

>  <NsSiH3>
0

>  <NssSiH2>
0

>  <NsssSiH>
0

>  <NssssSi>
0

>  <NsPH2>
0

>  <NssPH>
0

>  <NsssP>
0

>  <NdsssP>
0

>  <NsssssP>
0

>  <NsSH>
0

>  <NdS>
0

>  <NssS>
0

>  <NaaS>
1

>  <NdssS>
0

>  <NddssS>
0

>  <NsCl>
0

>  <NsBr>
0

>  <NsI>
0

>  <fragCpx>
109.03

>  <fMF>
0.43

>  <nHBAcc>
3

>  <nHBDon>
1

>  <Kier1>
15.88

>  <Kier2>
8.02

>  <Lipinski>
1

>  <GhoseFilter>
1

>  <FilterItLogS>
-5.37

>  <VMcGowan>
234

>  <LabuteASA>
128.93

>  <PEOE_VSA1>
10.05

>  <PEOE_VSA2>
0

>  <PEOE_VSA3>
0

>  <PEOE_VSA4>
0

>  <PEOE_VSA5>
11.34

>  <PEOE_VSA6>
42.46

>  <PEOE_VSA7>
36.49

>  <PEOE_VSA8>
16.68

>  <PEOE_VSA9>
0

>  <PEOE_VSA10>
11.85

>  <PEOE_VSA11>
0

>  <PEOE_VSA12>
0

>  <PEOE_VSA13>
0

>  <SMR_VSA1>
4.74

>  <SMR_VSA2>
0

>  <SMR_VSA3>
5.32

>  <SMR_VSA4>
0

>  <SMR_VSA5>
12.52

>  <SMR_VSA6>
13.59

>  <SMR_VSA7>
64.85

>  <SMR_VSA8>
0

>  <SMR_VSA9>
5.75

>  <SlogP_VSA1>
10.05

>  <SlogP_VSA2>
13.59

>  <SlogP_VSA3>
0

>  <SlogP_VSA4>
0

>  <SlogP_VSA5>
17.4

>  <SlogP_VSA6>
59.98

>  <SlogP_VSA7>
0

>  <SlogP_VSA8>
10.77

>  <SlogP_VSA9>
0

>  <SlogP_VSA10>
0

>  <SlogP_VSA11>
5.75

>  <EState_VSA1>
0

>  <EState_VSA2>
6.1

>  <EState_VSA3>
0

>  <EState_VSA4>
18.72

>  <EState_VSA5>
15.65

>  <EState_VSA6>
11.34

>  <EState_VSA7>
7.05

>  <EState_VSA8>
65.29

>  <EState_VSA9>
4.74

>  <EState_VSA10>
0

>  <VSA_EState1>
6.34

>  <VSA_EState2>
1.28

>  <VSA_EState3>
7.7

>  <VSA_EState4>
0

>  <VSA_EState5>
0.96

>  <VSA_EState6>
18.82

>  <VSA_EState7>
1.06

>  <VSA_EState8>
0.94

>  <VSA_EState9>
1.98

>  <apol>
47.53

>  <bpol>
23.83

>  <nRing>
3

>  <nHRing>
1

>  <naRing>
3

>  <naHRing>
1

>  <nARing 2>
0

>  <nAHRing 2>
0

>  <nFRing>
1

>  <nFHRing>
0

>  <nFaRing>
1

>  <nFaHRing>
0

>  <nFARing 2>
0

>  <nFAHRing 2>
0

>  <nRot>
6

>  <SLogP>
4.63

>  <SMR>
90.18

>  <TopoPSA(NO)>
21.26

>  <TopoPSA>
49.5

>  <JGI1>
0.11

>  <JGI2>
0.07

>  <JGI3>
0.03

>  <JGI4>
0.03

>  <JGI5>
0.02

>  <Diameter>
10

>  <Radius>
5

>  <TMWC10>
116.9

>  <TSRW10>
67.68

>  <MW>
297.12

>  <AMW>
7.43

>  <WPath>
931

>  <WPol>
29

>  <Zagreb1>
106

>  <Zagreb2>
123

>  <mZagreb2>
4.83

>  <yes>


>  <nAR-cont>
0.336376

>  <nHA-cont>
0.994529749

>  <MWHBN>
0.232056666

>  <MWHBN-cont>
0.984631349

>  <TPSA-cont>
0.654459262

>  <pka_cont>
0.97

>  <yes.1>


>  <BBB_SCORE>
4.601771297

>  <MMFF94 Energy>
61.216

$$$$
Compound 1463
Actelion Java MolfileCreator 2.0

  0  0  0  0  0  0              0 V3000
M  V30 BEGIN CTAB
M  V30 COUNTS 41 42 0 0 0
M  V30 BEGIN ATOM
M  V30 1 O -0.3925 -0.7066 -0.7066 0
M  V30 2 C 0.7036 -1.4966 -0.4542 0
M  V30 3 C -0.6143 0.2622 0.3382 0 CFG=2
M  V30 4 C 2.0148 -1.0357 -0.6532 0
M  V30 5 C 0.4581 -2.8154 -0.0663 0
M  V30 6 C -1.4891 -0.343 1.4295 0
M  V30 7 C -1.3116 1.4895 -0.2774 0
M  V30 8 O 2.1491 0.2587 -1.0797 0
M  V30 9 C 3.0768 -1.911 -0.4064 0
M  V30 10 C 1.524 -3.678 0.1736 0
M  V30 11 C -2.6944 -0.9933 1.1192 0
M  V30 12 C -1.0982 -0.2546 2.774 0
M  V30 13 C -0.4145 2.1977 -1.2952 0
M  V30 14 C 3.4592 0.7094 -1.3955 0
M  V30 15 C 2.831 -3.2249 0.0082 0
M  V30 16 C -3.4879 -1.5405 2.1283 0
M  V30 17 C -1.8936 -0.8026 3.7821 0
M  V30 18 N -1.0961 3.3899 -1.8132 0
M  V30 19 C -3.0876 -1.4444 3.4592 0
M  V30 20 C -0.2669 4.0722 -2.7978 0
M  V30 21 H 0.3356 0.5953 0.7783 0
M  V30 22 H -0.5635 -3.1633 0.0573 0
M  V30 23 H -2.238 1.1829 -0.781 0
M  V30 24 H -1.5916 2.1927 0.5181 0
M  V30 25 H 4.1103 -1.6058 -0.5294 0
M  V30 26 H 1.3346 -4.701 0.4874 0
M  V30 27 H -3.0146 -1.0815 0.0831 0
M  V30 28 H -0.1684 0.2402 3.0454 0
M  V30 29 H -0.1756 1.5174 -2.1206 0
M  V30 30 H 0.5214 2.4951 -0.8087 0
M  V30 31 H 4.0936 0.7289 -0.5035 0
M  V30 32 H 3.378 1.7354 -1.7674 0
M  V30 33 H 3.9076 0.1026 -2.1888 0
M  V30 34 H 3.6641 -3.8979 0.1958 0
M  V30 35 H -4.4178 -2.0424 1.8746 0
M  V30 36 H -1.5804 -0.7289 4.8202 0
M  V30 37 H -1.9728 3.1088 -2.2526 0
M  V30 38 H -3.7056 -1.8704 4.245 0
M  V30 39 H -0.0514 3.4288 -3.657 0
M  V30 40 H 0.6766 4.4082 -2.356 0
M  V30 41 H -0.7926 4.959 -3.1649 0
M  V30 END ATOM
M  V30 BEGIN BOND
M  V30 1 1 1 2
M  V30 2 1 1 3
M  V30 3 2 2 4
M  V30 4 1 2 5
M  V30 5 1 3 6
M  V30 6 1 3 7
M  V30 7 1 4 8
M  V30 8 1 4 9
M  V30 9 2 5 10
M  V30 10 2 6 11
M  V30 11 1 6 12
M  V30 12 1 7 13
M  V30 13 1 8 14
M  V30 14 2 9 15
M  V30 15 1 11 16
M  V30 16 2 12 17
M  V30 17 1 13 18
M  V30 18 2 16 19
M  V30 19 1 18 20
M  V30 20 1 10 15
M  V30 21 1 17 19
M  V30 22 1 3 21
M  V30 23 1 5 22
M  V30 24 1 7 23
M  V30 25 1 7 24
M  V30 26 1 9 25
M  V30 27 1 10 26
M  V30 28 1 11 27
M  V30 29 1 12 28
M  V30 30 1 13 29
M  V30 31 1 13 30
M  V30 32 1 14 31
M  V30 33 1 14 32
M  V30 34 1 14 33
M  V30 35 1 15 34
M  V30 36 1 16 35
M  V30 37 1 17 36
M  V30 38 1 18 37
M  V30 39 1 19 38
M  V30 40 1 20 39
M  V30 41 1 20 40
M  V30 42 1 20 41
M  V30 END BOND
M  V30 BEGIN COLLECTION
M  V30 MDLV30/STERAC1 ATOMS=(1 3)
M  V30 END COLLECTION
M  V30 END CTAB
M  END
>  <Column 1>
1742

>  <level_0>
1903

>  <index>
1903

>  <Unnamed: 0>
1903

>  <NO.>
1915

>  <Name>
nisoxetine

>  <IUPAC_name>
3-(2-methoxyphenoxy)-n-methyl-3-phenylpropan-1-amine

>  <SMILES>
CNCCC(Oc1ccccc1OC)c1ccccc1

>  <CID>
4500

>  <logBB>


>  <BBB+/BBB->
BBB+

>  <Inchi>
InChI=1S/C17H21NO2/c1-18-13-12-15(14-8-4-3-5-9-14)20-17-11-7-6-10-16(17)19-2/h3-11-15-18H-12-13H2-1-2H3

>  <threshold>
-1

>  <reference>
R1|R19|R6|R27|R27|R30|

>  <group>
B

>  <Class>
1

>  <ABC>
14.77

>  <ABCGG>
12.73

>  <nAcid>
0

>  <nBase>
1

>  <nAromAtom>
12

>  <nAromBond>
12

>  <nAtom>
41

>  <nHeavyAtom>
20

>  <nSpiro>
0

>  <nBridgehead>
0

>  <nHetero>
3

>  <nN>
1

>  <nO>
2

>  <nF>
0

>  <BalabanJ>
1.9

>  <BertzCT>
513.41

>  <nBonds>
42

>  <nBondsO>
21

>  <nBondsS>
30

>  <nBondsD>
0

>  <nBondsT>
0

>  <nBondsA>
12

>  <nBondsM>
12

>  <nBondsKS>
36

>  <nBondsKD>
6

>  <RNCG>
0.28

>  <RPCG>
0.09

>  <FCSP3>
0.29

>  <SZ>
24.33

>  <Sm>
22.59

>  <Sv>
24.88

>  <Sse>
40.65

>  <Sp>
27

>  <Si>
46.07

>  <MZ>
0.59

>  <Mm>
0.55

>  <Mv>
0.61

>  <Mse>
0.99

>  <Mp>
0.66

>  <Mi>
1.12

>  <NsCH3>
2

>  <NdCH2>
0

>  <NssCH2>
2

>  <NtCH>
0

>  <NdsCH>
0

>  <NaaCH>
9

>  <NsssCH>
1

>  <NddC>
0

>  <NtsC>
0

>  <NdssC>
0

>  <NaasC>
3

>  <NaaaC>
0

>  <NssssC>
0

>  <NsNH3>
0

>  <NsNH2>
0

>  <NssNH2>
0

>  <NdNH>
0

>  <NssNH>
1

>  <NaaNH>
0

>  <NtN>
0

>  <NsssNH>
0

>  <NdsN>
0

>  <NaaN>
0

>  <NsssN>
0

>  <NddsN>
0

>  <NaasN>
0

>  <NssssN>
0

>  <NsOH>
0

>  <NdO>
0

>  <NssO>
2

>  <NaaO>
0

>  <NsF>
0

>  <NsSiH3>
0

>  <NssSiH2>
0

>  <NsssSiH>
0

>  <NssssSi>
0

>  <NsPH2>
0

>  <NssPH>
0

>  <NsssP>
0

>  <NdsssP>
0

>  <NsssssP>
0

>  <NsSH>
0

>  <NdS>
0

>  <NssS>
0

>  <NaaS>
0

>  <NdssS>
0

>  <NddssS>
0

>  <NsCl>
0

>  <NsBr>
0

>  <NsI>
0

>  <fragCpx>
61.03

>  <fMF>
0.34

>  <nHBAcc>
3

>  <nHBDon>
1

>  <Kier1>
16.37

>  <Kier2>
9.11

>  <Lipinski>
1

>  <GhoseFilter>
1

>  <FilterItLogS>
-4.72

>  <VMcGowan>
224.59

>  <LabuteASA>
120.09

>  <PEOE_VSA1>
14.79

>  <PEOE_VSA2>
0

>  <PEOE_VSA3>
0

>  <PEOE_VSA4>
0

>  <PEOE_VSA5>
0

>  <PEOE_VSA6>
42.46

>  <PEOE_VSA7>
31.29

>  <PEOE_VSA8>
6.42

>  <PEOE_VSA9>
7.11

>  <PEOE_VSA10>
6.1

>  <PEOE_VSA11>
11.5

>  <PEOE_VSA12>
0

>  <PEOE_VSA13>
0

>  <SMR_VSA1>
9.47

>  <SMR_VSA2>
0

>  <SMR_VSA3>
5.32

>  <SMR_VSA4>
0

>  <SMR_VSA5>
12.52

>  <SMR_VSA6>
20.7

>  <SMR_VSA7>
60.16

>  <SMR_VSA8>
0

>  <SMR_VSA9>
11.5

>  <SlogP_VSA1>
14.79

>  <SlogP_VSA2>
20.7

>  <SlogP_VSA3>
0

>  <SlogP_VSA4>
0

>  <SlogP_VSA5>
18.09

>  <SlogP_VSA6>
54.6

>  <SlogP_VSA7>
0

>  <SlogP_VSA8>
0

>  <SlogP_VSA9>
0

>  <SlogP_VSA10>
0

>  <SlogP_VSA11>
11.5

>  <EState_VSA1>
0

>  <EState_VSA2>
6.1

>  <EState_VSA3>
0

>  <EState_VSA4>
24.46

>  <EState_VSA5>
5.56

>  <EState_VSA6>
7.11

>  <EState_VSA7>
49.51

>  <EState_VSA8>
17.45

>  <EState_VSA9>
9.47

>  <EState_VSA10>
0

>  <VSA_EState1>
11.51

>  <VSA_EState2>
0

>  <VSA_EState3>
3.17

>  <VSA_EState4>
1.17

>  <VSA_EState5>
1.54

>  <VSA_EState6>
18.02

>  <VSA_EState7>
0.92

>  <VSA_EState8>
0.9

>  <VSA_EState9>
3.61

>  <apol>
45.1

>  <bpol>
25.11

>  <nRing>
2

>  <nHRing>
0

>  <naRing>
2

>  <naHRing>
0

>  <nARing 2>
0

>  <nAHRing 2>
0

>  <nFRing>
0

>  <nFHRing>
0

>  <nFaRing>
0

>  <nFaHRing>
0

>  <nFARing 2>
0

>  <nFAHRing 2>
0

>  <nRot>
7

>  <SLogP>
3.42

>  <SMR>
81.35

>  <TopoPSA(NO)>
30.49

>  <TopoPSA>
30.49

>  <JGI1>
0.12

>  <JGI2>
0.07

>  <JGI3>
0.03

>  <JGI4>
0.03

>  <JGI5>
0.02

>  <Diameter>
9

>  <Radius>
5

>  <TMWC10>
111.84

>  <TSRW10>
52.75

>  <MW>
271.16

>  <AMW>
6.61

>  <WPath>
834

>  <WPol>
27

>  <Zagreb1>
94

>  <Zagreb2>
106

>  <mZagreb2>
4.81

>  <yes>


>  <nAR-cont>
0.336376

>  <nHA-cont>
0.999629945

>  <MWHBN>
0.242910998

>  <MWHBN-cont>
0.9708864

>  <TPSA-cont>
0.787160867

>  <pka_cont>
0.97

>  <yes.1>


>  <BBB_SCORE>
4.851657278

>  <MMFF94 Energy>
64.104

$$$$
Compound 1464
Actelion Java MolfileCreator 2.0

  0  0  0  0  0  0              0 V3000
M  V30 BEGIN CTAB
M  V30 COUNTS 44 46 0 0 0
M  V30 BEGIN ATOM
M  V30 1 N 2.4601 3.0958 2.8574 0
M  V30 2 C 1.8248 1.7837 2.7017 0
M  V30 3 C 3.5957 3.0222 3.7667 0
M  V30 4 C 0.6473 1.8711 1.7209 0
M  V30 5 C -0.0391 0.5388 1.5592 0
M  V30 6 C -0.1036 -0.2699 0.477 0
M  V30 7 C -1.037 -1.423 0.5263 0
M  V30 8 C 0.5392 0.0375 -0.8204 0
M  V30 9 C -1.8208 -1.6663 -0.6264 0
M  V30 10 C -1.1205 -2.2759 1.6389 0
M  V30 11 C -0.2287 -0.1811 -1.9887 0
M  V30 12 C 1.8812 0.4334 -0.9209 0
M  V30 13 C -2.7251 -2.7446 -0.5876 0
M  V30 14 C -1.6823 -0.7183 -1.8528 0
M  V30 15 C -2.0103 -3.3466 1.6424 0
M  V30 16 C 0.3636 0.1192 -3.2304 0
M  V30 17 C 2.4506 0.7024 -2.1627 0
M  V30 18 C -2.8169 -3.5746 0.5339 0
M  V30 19 C -2.1347 -1.4307 -3.1556 0
M  V30 20 C -2.6263 0.4888 -1.6414 0
M  V30 21 C 1.6874 0.5594 -3.3145 0
M  V30 22 H 2.7773 3.4301 1.9474 0
M  V30 23 H 2.5565 1.0528 2.3367 0
M  V30 24 H 1.4605 1.4329 3.6755 0
M  V30 25 H 4.3676 2.3428 3.3909 0
M  V30 26 H 3.2841 2.6947 4.7638 0
M  V30 27 H 4.0434 4.0153 3.8716 0
M  V30 28 H -0.0949 2.5825 2.1071 0
M  V30 29 H 0.9753 2.284 0.7622 0
M  V30 30 H -0.617 0.2702 2.4442 0
M  V30 31 H -0.4851 -2.117 2.5063 0
M  V30 32 H 2.4977 0.5237 -0.0318 0
M  V30 33 H -3.3812 -2.9687 -1.4226 0
M  V30 34 H -2.0731 -4.0003 2.5079 0
M  V30 35 H -0.1822 0.0144 -4.1625 0
M  V30 36 H 3.4876 1.0191 -2.23 0
M  V30 37 H -3.5186 -4.4051 0.5358 0
M  V30 38 H -1.5073 -2.3033 -3.3723 0
M  V30 39 H -3.1763 -1.7659 -3.1058 0
M  V30 40 H -2.1033 -0.7658 -4.0254 0
M  V30 41 H -2.572 1.1874 -2.4851 0
M  V30 42 H -2.3815 1.0578 -0.737 0
M  V30 43 H -3.6696 0.1648 -1.5447 0
M  V30 44 H 2.125 0.7755 -4.2859 0
M  V30 END ATOM
M  V30 BEGIN BOND
M  V30 1 1 1 2
M  V30 2 1 1 3
M  V30 3 1 2 4
M  V30 4 1 4 5
M  V30 5 2 5 6
M  V30 6 1 6 7
M  V30 7 1 6 8
M  V30 8 2 7 9
M  V30 9 1 7 10
M  V30 10 2 8 11
M  V30 11 1 8 12
M  V30 12 1 9 13
M  V30 13 1 9 14
M  V30 14 2 10 15
M  V30 15 1 11 16
M  V30 16 2 12 17
M  V30 17 2 13 18
M  V30 18 1 14 19
M  V30 19 1 14 20
M  V30 20 2 16 21
M  V30 21 1 11 14
M  V30 22 1 15 18
M  V30 23 1 17 21
M  V30 24 1 1 22
M  V30 25 1 2 23
M  V30 26 1 2 24
M  V30 27 1 3 25
M  V30 28 1 3 26
M  V30 29 1 3 27
M  V30 30 1 4 28
M  V30 31 1 4 29
M  V30 32 1 5 30
M  V30 33 1 10 31
M  V30 34 1 12 32
M  V30 35 1 13 33
M  V30 36 1 15 34
M  V30 37 1 16 35
M  V30 38 1 17 36
M  V30 39 1 18 37
M  V30 40 1 19 38
M  V30 41 1 19 39
M  V30 42 1 19 40
M  V30 43 1 20 41
M  V30 44 1 20 42
M  V30 45 1 20 43
M  V30 46 1 21 44
M  V30 END BOND
M  V30 END CTAB
M  END
>  <Column 1>
1743

>  <level_0>
1904

>  <index>
1904

>  <Unnamed: 0>
1904

>  <NO.>
1916

>  <Name>
litracen

>  <IUPAC_name>
3-(10-10-dimethylanthracen-9-ylidene)-n-methylpropan-1-amine

>  <SMILES>
CNCCC=C1c2ccccc2C(C)(C)c2ccccc21

>  <CID>
82730

>  <logBB>


>  <BBB+/BBB->
BBB+

>  <Inchi>
InChI=1S/C20H23N/c1-20(2)18-12-6-4-9-16(18)15(11-8-14-21-3)17-10-5-7-13-19(17)20/h4-7-9-13-21H-8-14H2-1-3H3

>  <threshold>
-1

>  <reference>
R1|R13|R19|R6|R24|R27|R27|R27|R30|R30|

>  <group>
B

>  <Class>
1

>  <ABC>
16.3

>  <ABCGG>
13.34

>  <nAcid>
0

>  <nBase>
1

>  <nAromAtom>
12

>  <nAromBond>
12

>  <nAtom>
44

>  <nHeavyAtom>
21

>  <nSpiro>
0

>  <nBridgehead>
0

>  <nHetero>
1

>  <nN>
1

>  <nO>
0

>  <nF>
0

>  <BalabanJ>
1.81

>  <BertzCT>
628.24

>  <nBonds>
46

>  <nBondsO>
23

>  <nBondsS>
33

>  <nBondsD>
1

>  <nBondsT>
0

>  <nBondsA>
12

>  <nBondsM>
13

>  <nBondsKS>
39

>  <nBondsKD>
7

>  <RNCG>
0.29

>  <RPCG>
0.11

>  <FCSP3>
0.3

>  <SZ>
25

>  <Sm>
23.1

>  <Sv>
26.99

>  <Sse>
42.87

>  <Sp>
29.84

>  <Si>
49.07

>  <MZ>
0.57

>  <Mm>
0.52

>  <Mv>
0.61

>  <Mse>
0.97

>  <Mp>
0.68

>  <Mi>
1.12

>  <NsCH3>
3

>  <NdCH2>
0

>  <NssCH2>
2

>  <NtCH>
0

>  <NdsCH>
1

>  <NaaCH>
8

>  <NsssCH>
0

>  <NddC>
0

>  <NtsC>
0

>  <NdssC>
1

>  <NaasC>
4

>  <NaaaC>
0

>  <NssssC>
1

>  <NsNH3>
0

>  <NsNH2>
0

>  <NssNH2>
0

>  <NdNH>
0

>  <NssNH>
1

>  <NaaNH>
0

>  <NtN>
0

>  <NsssNH>
0

>  <NdsN>
0

>  <NaaN>
0

>  <NsssN>
0

>  <NddsN>
0

>  <NaasN>
0

>  <NssssN>
0

>  <NsOH>
0

>  <NdO>
0

>  <NssO>
0

>  <NaaO>
0

>  <NsF>
0

>  <NsSiH3>
0

>  <NssSiH2>
0

>  <NsssSiH>
0

>  <NssssSi>
0

>  <NsPH2>
0

>  <NssPH>
0

>  <NsssP>
0

>  <NdsssP>
0

>  <NsssssP>
0

>  <NsSH>
0

>  <NdS>
0

>  <NssS>
0

>  <NaaS>
0

>  <NdssS>
0

>  <NddssS>
0

>  <NsCl>
0

>  <NsBr>
0

>  <NsI>
0

>  <fragCpx>
109.01

>  <fMF>
0.32

>  <nHBAcc>
1

>  <nHBDon>
1

>  <Kier1>
15.88

>  <Kier2>
6.63

>  <Lipinski>
1

>  <GhoseFilter>
1

>  <FilterItLogS>
-6.29

>  <VMcGowan>
239.96

>  <LabuteASA>
127.26

>  <PEOE_VSA1>
5.32

>  <PEOE_VSA2>
0

>  <PEOE_VSA3>
0

>  <PEOE_VSA4>
0

>  <PEOE_VSA5>
0

>  <PEOE_VSA6>
68.45

>  <PEOE_VSA7>
47.84

>  <PEOE_VSA8>
5.41

>  <PEOE_VSA9>
0

>  <PEOE_VSA10>
0

>  <PEOE_VSA11>
0

>  <PEOE_VSA12>
0

>  <PEOE_VSA13>
0

>  <SMR_VSA1>
0

>  <SMR_VSA2>
0

>  <SMR_VSA3>
5.32

>  <SMR_VSA4>
0

>  <SMR_VSA5>
25.68

>  <SMR_VSA6>
13.59

>  <SMR_VSA7>
76.86

>  <SMR_VSA8>
0

>  <SMR_VSA9>
0

>  <SlogP_VSA1>
5.32

>  <SlogP_VSA2>
13.59

>  <SlogP_VSA3>
5.41

>  <SlogP_VSA4>
0

>  <SlogP_VSA5>
42.52

>  <SlogP_VSA6>
54.61

>  <SlogP_VSA7>
0

>  <SlogP_VSA8>
5.57

>  <SlogP_VSA9>
0

>  <SlogP_VSA10>
0

>  <SlogP_VSA11>
0

>  <EState_VSA1>
0

>  <EState_VSA2>
5.41

>  <EState_VSA3>
0

>  <EState_VSA4>
12.97

>  <EState_VSA5>
27.83

>  <EState_VSA6>
0

>  <EState_VSA7>
7.05

>  <EState_VSA8>
73.77

>  <EState_VSA9>
0

>  <EState_VSA10>
0

>  <VSA_EState1>
0

>  <VSA_EState2>
0

>  <VSA_EState3>
3.23

>  <VSA_EState4>
7.08

>  <VSA_EState5>
0

>  <VSA_EState6>
17.67

>  <VSA_EState7>
3.43

>  <VSA_EState8>
5.67

>  <VSA_EState9>
2

>  <apol>
49.84

>  <bpol>
23.64

>  <nRing>
3

>  <nHRing>
0

>  <naRing>
2

>  <naHRing>
0

>  <nARing 2>
1

>  <nAHRing 2>
0

>  <nFRing>
1

>  <nFHRing>
0

>  <nFaRing>
0

>  <nFaHRing>
0

>  <nFARing 2>
1

>  <nFAHRing 2>
0

>  <nRot>
3

>  <SLogP>
4.37

>  <SMR>
90.63

>  <TopoPSA(NO)>
12.03

>  <TopoPSA>
12.03

>  <JGI1>
0.15

>  <JGI2>
0.09

>  <JGI3>
0.06

>  <JGI4>
0.05

>  <JGI5>
0.02

>  <Diameter>
9

>  <Radius>
5

>  <TMWC10>
119.57

>  <TSRW10>
55.53

>  <MW>
277.18

>  <AMW>
6.3

>  <WPath>
840

>  <WPol>
38

>  <Zagreb1>
112

>  <Zagreb2>
136

>  <mZagreb2>
4.69

>  <yes>


>  <nAR-cont>
0.816016

>  <nHA-cont>
0.994529749

>  <MWHBN>
0.120129329

>  <MWHBN-cont>
0.829933407

>  <TPSA-cont>
0.91602313

>  <pka_cont>
0.97

>  <yes.1>


>  <BBB_SCORE>
5.372492119

>  <MMFF94 Energy>
87.593

$$$$
Compound 1465
Actelion Java MolfileCreator 2.0

  0  0  0  0  0  0              0 V3000
M  V30 BEGIN CTAB
M  V30 COUNTS 42 45 0 0 0
M  V30 BEGIN ATOM
M  V30 1 N 1.6775 -3.4372 -2.557 0
M  V30 2 C 0.536 -2.6572 -2.0684 0
M  V30 3 C 1.2866 -4.8091 -2.8501 0
M  V30 4 C 0.9546 -1.2088 -1.7792 0
M  V30 5 C -0.2202 -0.3791 -1.3268 0
M  V30 6 C -0.416 0.1923 -0.1188 0
M  V30 7 C -1.6239 1.0343 0.0522 0
M  V30 8 C 0.558 0.0525 0.9859 0
M  V30 9 C -1.4898 2.4228 0.2654 0
M  V30 10 C -2.8929 0.4286 0.0463 0
M  V30 11 C 1.2706 1.1809 1.4433 0
M  V30 12 C 0.7152 -1.1959 1.6127 0
M  V30 13 C -2.6703 3.16 0.4866 0
M  V30 14 C -0.1553 3.1394 0.2846 0
M  V30 15 C -4.0415 1.189 0.2534 0
M  V30 16 C 2.1311 1.0004 2.5448 0
M  V30 17 C 1.1317 2.5596 0.8317 0
M  V30 18 C 1.5863 -1.3442 2.6893 0
M  V30 19 C -3.93 2.5562 0.4768 0
M  V30 20 C 0.3956 3.6292 1.6009 0
M  V30 21 C 2.2941 -0.244 3.1575 0
M  V30 22 H 2.0496 -3.0036 -3.4015 0
M  V30 23 H -0.2676 -2.6639 -2.8157 0
M  V30 24 H 0.1432 -3.1115 -1.1505 0
M  V30 25 H 0.5211 -4.8504 -3.6318 0
M  V30 26 H 0.9116 -5.314 -1.954 0
M  V30 27 H 2.1583 -5.3689 -3.2025 0
M  V30 28 H 1.7726 -1.1949 -1.0512 0
M  V30 29 H 1.3542 -0.7504 -2.6931 0
M  V30 30 H -0.9629 -0.2084 -2.1067 0
M  V30 31 H -2.9847 -0.6442 -0.104 0
M  V30 32 H 0.1494 -2.0566 1.2651 0
M  V30 33 H -2.6018 4.2313 0.6663 0
M  V30 34 H -0.0185 3.8134 -0.561 0
M  V30 35 H -5.018 0.7129 0.2516 0
M  V30 36 H 2.6884 1.8526 2.9289 0
M  V30 37 H 2.0289 2.889 0.3077 0
M  V30 38 H 1.7043 -2.3139 3.1645 0
M  V30 39 H -4.8202 3.1557 0.6478 0
M  V30 40 H 0.8304 4.6213 1.6309 0
M  V30 41 H -0.1194 3.347 2.513 0
M  V30 42 H 2.9705 -0.3492 4.0014 0
M  V30 END ATOM
M  V30 BEGIN BOND
M  V30 1 1 1 2
M  V30 2 1 1 3
M  V30 3 1 2 4
M  V30 4 1 4 5
M  V30 5 2 5 6
M  V30 6 1 6 7
M  V30 7 1 6 8
M  V30 8 2 7 9
M  V30 9 1 7 10
M  V30 10 2 8 11
M  V30 11 1 8 12
M  V30 12 1 9 13
M  V30 13 1 9 14
M  V30 14 2 10 15
M  V30 15 1 11 16
M  V30 16 1 11 17
M  V30 17 2 12 18
M  V30 18 2 13 19
M  V30 19 1 14 20
M  V30 20 2 16 21
M  V30 21 1 14 17
M  V30 22 1 15 19
M  V30 23 1 17 20
M  V30 24 1 18 21
M  V30 25 1 1 22
M  V30 26 1 2 23
M  V30 27 1 2 24
M  V30 28 1 3 25
M  V30 29 1 3 26
M  V30 30 1 3 27
M  V30 31 1 4 28
M  V30 32 1 4 29
M  V30 33 1 5 30
M  V30 34 1 10 31
M  V30 35 1 12 32
M  V30 36 1 13 33
M  V30 37 1 14 34
M  V30 38 1 15 35
M  V30 39 1 16 36
M  V30 40 1 17 37
M  V30 41 1 18 38
M  V30 42 1 19 39
M  V30 43 1 20 40
M  V30 44 1 20 41
M  V30 45 1 21 42
M  V30 END BOND
M  V30 END CTAB
M  END
>  <Column 1>
1744

>  <level_0>
1905

>  <index>
1905

>  <Unnamed: 0>
1905

>  <NO.>
1917

>  <Name>
octriptyline

>  <IUPAC_name>
n-methyl-3-(11-tetracyclo[10.4.0.02-4.05-10]hexadeca-1(16)-5-7-9-12-14-hexaenylidene)propan-1-amine

>  <SMILES>
CNCCC=C1c2ccccc2C2CC2c2ccccc21

>  <CID>
40029

>  <logBB>


>  <BBB+/BBB->
BBB+

>  <Inchi>
InChI=1S/C20H21N/c1-21-12-6-11-16-14-7-2-4-9-17(14)19-13-20(19)18-10-5-3-8-15(16)18/h2-5-7-11-19-21H-6-12-13H2-1H3

>  <threshold>
-1

>  <reference>
R1|R13|R19|R6|R27|R27|R30|

>  <group>
B

>  <Class>
1

>  <ABC>
16.69

>  <ABCGG>
14.15

>  <nAcid>
0

>  <nBase>
1

>  <nAromAtom>
12

>  <nAromBond>
12

>  <nAtom>
42

>  <nHeavyAtom>
21

>  <nSpiro>
0

>  <nBridgehead>
0

>  <nHetero>
1

>  <nN>
1

>  <nO>
0

>  <nF>
0

>  <BalabanJ>
1.56

>  <BertzCT>
644.99

>  <nBonds>
45

>  <nBondsO>
24

>  <nBondsS>
32

>  <nBondsD>
1

>  <nBondsT>
0

>  <nBondsA>
12

>  <nBondsM>
13

>  <nBondsKS>
38

>  <nBondsKD>
7

>  <RNCG>
0.3

>  <RPCG>
0.11

>  <FCSP3>
0.3

>  <SZ>
24.67

>  <Sm>
22.93

>  <Sv>
26.45

>  <Sse>
40.99

>  <Sp>
29.04

>  <Si>
46.65

>  <MZ>
0.59

>  <Mm>
0.55

>  <Mv>
0.63

>  <Mse>
0.98

>  <Mp>
0.69

>  <Mi>
1.11

>  <NsCH3>
1

>  <NdCH2>
0

>  <NssCH2>
3

>  <NtCH>
0

>  <NdsCH>
1

>  <NaaCH>
8

>  <NsssCH>
2

>  <NddC>
0

>  <NtsC>
0

>  <NdssC>
1

>  <NaasC>
4

>  <NaaaC>
0

>  <NssssC>
0

>  <NsNH3>
0

>  <NsNH2>
0

>  <NssNH2>
0

>  <NdNH>
0

>  <NssNH>
1

>  <NaaNH>
0

>  <NtN>
0

>  <NsssNH>
0

>  <NdsN>
0

>  <NaaN>
0

>  <NsssN>
0

>  <NddsN>
0

>  <NaasN>
0

>  <NssssN>
0

>  <NsOH>
0

>  <NdO>
0

>  <NssO>
0

>  <NaaO>
0

>  <NsF>
0

>  <NsSiH3>
0

>  <NssSiH2>
0

>  <NsssSiH>
0

>  <NssssSi>
0

>  <NsPH2>
0

>  <NssPH>
0

>  <NsssP>
0

>  <NdsssP>
0

>  <NsssssP>
0

>  <NsSH>
0

>  <NdS>
0

>  <NssS>
0

>  <NaaS>
0

>  <NdssS>
0

>  <NddssS>
0

>  <NsCl>
0

>  <NsBr>
0

>  <NsI>
0

>  <fragCpx>
156.01

>  <fMF>
0.38

>  <nHBAcc>
1

>  <nHBDon>
1

>  <Kier1>
14.58

>  <Kier2>
6.25

>  <Lipinski>
1

>  <GhoseFilter>
1

>  <FilterItLogS>
-5.62

>  <VMcGowan>
229.1

>  <LabuteASA>
126.26

>  <PEOE_VSA1>
5.32

>  <PEOE_VSA2>
0

>  <PEOE_VSA3>
0

>  <PEOE_VSA4>
0

>  <PEOE_VSA5>
0

>  <PEOE_VSA6>
54.61

>  <PEOE_VSA7>
66.1

>  <PEOE_VSA8>
0

>  <PEOE_VSA9>
0

>  <PEOE_VSA10>
0

>  <PEOE_VSA11>
0

>  <PEOE_VSA12>
0

>  <PEOE_VSA13>
0

>  <SMR_VSA1>
0

>  <SMR_VSA2>
0

>  <SMR_VSA3>
5.32

>  <SMR_VSA4>
0

>  <SMR_VSA5>
24.68

>  <SMR_VSA6>
13.59

>  <SMR_VSA7>
76.86

>  <SMR_VSA8>
0

>  <SMR_VSA9>
0

>  <SlogP_VSA1>
5.32

>  <SlogP_VSA2>
13.59

>  <SlogP_VSA3>
0

>  <SlogP_VSA4>
0

>  <SlogP_VSA5>
46.93

>  <SlogP_VSA6>
54.61

>  <SlogP_VSA7>
0

>  <SlogP_VSA8>
5.57

>  <SlogP_VSA9>
0

>  <SlogP_VSA10>
0

>  <SlogP_VSA11>
0

>  <EState_VSA1>
0

>  <EState_VSA2>
0

>  <EState_VSA3>
0

>  <EState_VSA4>
24.8

>  <EState_VSA5>
23.12

>  <EState_VSA6>
11.13

>  <EState_VSA7>
7.05

>  <EState_VSA8>
59.92

>  <EState_VSA9>
0

>  <EState_VSA10>
0

>  <VSA_EState1>
0

>  <VSA_EState2>
0

>  <VSA_EState3>
3.24

>  <VSA_EState4>
7.43

>  <VSA_EState5>
1.47

>  <VSA_EState6>
18

>  <VSA_EState7>
4.81

>  <VSA_EState8>
1.03

>  <VSA_EState9>
2.02

>  <apol>
48.5

>  <bpol>
21.64

>  <nRing>
4

>  <nHRing>
0

>  <naRing>
2

>  <naHRing>
0

>  <nARing 2>
2

>  <nAHRing 2>
0

>  <nFRing>
1

>  <nFHRing>
0

>  <nFaRing>
0

>  <nFaHRing>
0

>  <nFARing 2>
1

>  <nFAHRing 2>
0

>  <nRot>
3

>  <SLogP>
4.31

>  <SMR>
88.61

>  <TopoPSA(NO)>
12.03

>  <TopoPSA>
12.03

>  <JGI1>
0.08

>  <JGI2>
0.07

>  <JGI3>
0.04

>  <JGI4>
0.04

>  <JGI5>
0.02

>  <Diameter>
9

>  <Radius>
5

>  <TMWC10>
121.18

>  <TSRW10>
75.27

>  <MW>
275.17

>  <AMW>
6.55

>  <WPath>
842

>  <WPol>
38

>  <Zagreb1>
116

>  <Zagreb2>
143

>  <mZagreb2>
4.69

>  <yes>


>  <nAR-cont>
1

>  <nHA-cont>
0.994529749

>  <MWHBN>
0.120567277

>  <MWHBN-cont>
0.831812917

>  <TPSA-cont>
0.91602313

>  <pka_cont>
0.97

>  <yes.1>


>  <BBB_SCORE>
5.559295384

>  <MMFF94 Energy>
65.476

$$$$
Compound 1466
Actelion Java MolfileCreator 2.0

  0  0  0  0  0  0              0 V3000
M  V30 BEGIN CTAB
M  V30 COUNTS 44 46 0 0 0
M  V30 BEGIN ATOM
M  V30 1 O 1.505 0.7919 1.9806 0
M  V30 2 C 0.5852 0.2043 1.4275 0
M  V30 3 N 0.5136 -1.1509 1.0709 0
M  V30 4 C -0.7541 0.8511 0.9966 0 CFG=2
M  V30 5 C 1.5222 -2.0958 1.3109 0
M  V30 6 C -0.68 -1.4517 0.3982 0
M  V30 7 C -1.4722 -0.3016 0.3307 0
M  V30 8 C -0.5181 2.0572 0.065 0
M  V30 9 C -1.5074 1.2887 2.2594 0
M  V30 10 C 2.819 -1.8648 0.8408 0
M  V30 11 C 1.2536 -3.2549 2.0491 0
M  V30 12 C -1.0912 -2.6377 -0.1879 0
M  V30 13 C -2.7092 -0.3187 -0.2972 0
M  V30 14 C 0.2858 1.7428 -1.2088 0
M  V30 15 C 3.8305 -2.7962 1.0829 0
M  V30 16 C 2.2664 -4.1854 2.2901 0
M  V30 17 C -2.3368 -2.6644 -0.8221 0
M  V30 18 C -3.141 -1.5149 -0.8726 0
M  V30 19 C 0.5108 2.9805 -2.0851 0
M  V30 20 C 3.5529 -3.9571 1.8037 0
M  V30 21 N -0.7564 3.484 -2.6167 0
M  V30 22 C -0.542 4.6598 -3.4498 0
M  V30 23 H 0.0159 2.8397 0.6207 0
M  V30 24 H -1.4889 2.4847 -0.2166 0
M  V30 25 H -1.6484 0.4525 2.9551 0
M  V30 26 H -0.9539 2.0661 2.7988 0
M  V30 27 H -2.4987 1.6885 2.0173 0
M  V30 28 H 3.0498 -0.9574 0.2883 0
M  V30 29 H 0.2602 -3.4333 2.4527 0
M  V30 30 H -0.473 -3.5283 -0.1752 0
M  V30 31 H -3.3261 0.5733 -0.3512 0
M  V30 32 H 1.2684 1.3415 -0.9341 0
M  V30 33 H -0.2176 0.9687 -1.7997 0
M  V30 34 H 4.8364 -2.6103 0.7157 0
M  V30 35 H 2.0538 -5.0828 2.8653 0
M  V30 36 H -2.6848 -3.584 -1.2874 0
M  V30 37 H -4.106 -1.5556 -1.3733 0
M  V30 38 H 1.1789 2.7065 -2.9105 0
M  V30 39 H 1.0108 3.7565 -1.4933 0
M  V30 40 H 4.343 -4.6785 1.9962 0
M  V30 41 H -1.2019 2.755 -3.1736 0
M  V30 42 H 0.095 4.4318 -4.3104 0
M  V30 43 H -0.0906 5.4752 -2.8751 0
M  V30 44 H -1.5043 5.018 -3.8287 0
M  V30 END ATOM
M  V30 BEGIN BOND
M  V30 1 2 1 2
M  V30 2 1 2 3
M  V30 3 1 2 4
M  V30 4 1 3 5
M  V30 5 1 3 6
M  V30 6 1 4 7
M  V30 7 1 4 8
M  V30 8 1 4 9
M  V30 9 2 5 10
M  V30 10 1 5 11
M  V30 11 1 6 12
M  V30 12 1 7 13
M  V30 13 1 8 14
M  V30 14 1 10 15
M  V30 15 2 11 16
M  V30 16 2 12 17
M  V30 17 2 13 18
M  V30 18 1 14 19
M  V30 19 2 15 20
M  V30 20 1 19 21
M  V30 21 1 21 22
M  V30 22 2 6 7
M  V30 23 1 16 20
M  V30 24 1 17 18
M  V30 25 1 8 23
M  V30 26 1 8 24
M  V30 27 1 9 25
M  V30 28 1 9 26
M  V30 29 1 9 27
M  V30 30 1 10 28
M  V30 31 1 11 29
M  V30 32 1 12 30
M  V30 33 1 13 31
M  V30 34 1 14 32
M  V30 35 1 14 33
M  V30 36 1 15 34
M  V30 37 1 16 35
M  V30 38 1 17 36
M  V30 39 1 18 37
M  V30 40 1 19 38
M  V30 41 1 19 39
M  V30 42 1 20 40
M  V30 43 1 21 41
M  V30 44 1 22 42
M  V30 45 1 22 43
M  V30 46 1 22 44
M  V30 END BOND
M  V30 BEGIN COLLECTION
M  V30 MDLV30/STERAC1 ATOMS=(1 4)
M  V30 END COLLECTION
M  V30 END CTAB
M  END
>  <Column 1>
1745

>  <level_0>
1906

>  <index>
1906

>  <Unnamed: 0>
1906

>  <NO.>
1918

>  <Name>
amedalin

>  <IUPAC_name>
3-methyl-3-[3-(methylamino)propyl]-1-phenylindol-2-one

>  <SMILES>
CNCCCC1(C)C(=O)N(c2ccccc2)c2ccccc21

>  <CID>
31075

>  <logBB>


>  <BBB+/BBB->
BBB+

>  <Inchi>
InChI=1S/C19H22N2O/c1-19(13-8-14-20-2)16-11-6-7-12-17(16)21(18(19)22)15-9-4-3-5-10-15/h3-7-9-12-20H-8-13-14H2-1-2H3

>  <threshold>
-1

>  <reference>
R1|R13|R19|R6|R27|R27|R30|

>  <group>
B

>  <Class>
1

>  <ABC>
16.95

>  <ABCGG>
14.32

>  <nAcid>
0

>  <nBase>
1

>  <nAromAtom>
12

>  <nAromBond>
12

>  <nAtom>
44

>  <nHeavyAtom>
22

>  <nSpiro>
0

>  <nBridgehead>
0

>  <nHetero>
3

>  <nN>
2

>  <nO>
1

>  <nF>
0

>  <BalabanJ>
1.78

>  <BertzCT>
668.15

>  <nBonds>
46

>  <nBondsO>
24

>  <nBondsS>
33

>  <nBondsD>
1

>  <nBondsT>
0

>  <nBondsA>
12

>  <nBondsM>
13

>  <nBondsKS>
39

>  <nBondsKD>
7

>  <RNCG>
0.21

>  <RPCG>
0.16

>  <FCSP3>
0.32

>  <SZ>
26.33

>  <Sm>
24.51

>  <Sv>
27.19

>  <Sse>
43.42

>  <Sp>
29.58

>  <Si>
49.36

>  <MZ>
0.6

>  <Mm>
0.56

>  <Mv>
0.62

>  <Mse>
0.99

>  <Mp>
0.67

>  <Mi>
1.12

>  <NsCH3>
2

>  <NdCH2>
0

>  <NssCH2>
3

>  <NtCH>
0

>  <NdsCH>
0

>  <NaaCH>
9

>  <NsssCH>
0

>  <NddC>
0

>  <NtsC>
0

>  <NdssC>
1

>  <NaasC>
3

>  <NaaaC>
0

>  <NssssC>
1

>  <NsNH3>
0

>  <NsNH2>
0

>  <NssNH2>
0

>  <NdNH>
0

>  <NssNH>
1

>  <NaaNH>
0

>  <NtN>
0

>  <NsssNH>
0

>  <NdsN>
0

>  <NaaN>
0

>  <NsssN>
1

>  <NddsN>
0

>  <NaasN>
0

>  <NssssN>
0

>  <NsOH>
0

>  <NdO>
1

>  <NssO>
0

>  <NaaO>
0

>  <NsF>
0

>  <NsSiH3>
0

>  <NssSiH2>
0

>  <NsssSiH>
0

>  <NssssSi>
0

>  <NsPH2>
0

>  <NssPH>
0

>  <NsssP>
0

>  <NdsssP>
0

>  <NsssssP>
0

>  <NsSH>
0

>  <NdS>
0

>  <NssS>
0

>  <NaaS>
0

>  <NdssS>
0

>  <NddssS>
0

>  <NsCl>
0

>  <NsBr>
0

>  <NsI>
0

>  <fragCpx>
114.03

>  <fMF>
0.34

>  <nHBAcc>
2

>  <nHBDon>
1

>  <Kier1>
16.84

>  <Kier2>
7.27

>  <Lipinski>
1

>  <GhoseFilter>
1

>  <FilterItLogS>
-5.35

>  <VMcGowan>
241.72

>  <LabuteASA>
131.51

>  <PEOE_VSA1>
5.32

>  <PEOE_VSA2>
9.69

>  <PEOE_VSA3>
0

>  <PEOE_VSA4>
0

>  <PEOE_VSA5>
0

>  <PEOE_VSA6>
36.4

>  <PEOE_VSA7>
57.12

>  <PEOE_VSA8>
5.69

>  <PEOE_VSA9>
11.1

>  <PEOE_VSA10>
0

>  <PEOE_VSA11>
0

>  <PEOE_VSA12>
5.91

>  <PEOE_VSA13>
0

>  <SMR_VSA1>
4.79

>  <SMR_VSA2>
0

>  <SMR_VSA3>
5.32

>  <SMR_VSA4>
0

>  <SMR_VSA5>
25.18

>  <SMR_VSA6>
18.49

>  <SMR_VSA7>
60.16

>  <SMR_VSA8>
0

>  <SMR_VSA9>
0

>  <SlogP_VSA1>
10.22

>  <SlogP_VSA2>
19.5

>  <SlogP_VSA3>
10.21

>  <SlogP_VSA4>
0

>  <SlogP_VSA5>
25.33

>  <SlogP_VSA6>
54.6

>  <SlogP_VSA7>
0

>  <SlogP_VSA8>
0

>  <SlogP_VSA9>
0

>  <SlogP_VSA10>
11.37

>  <SlogP_VSA11>
0

>  <EState_VSA1>
5.41

>  <EState_VSA2>
5.91

>  <EState_VSA3>
0

>  <EState_VSA4>
36.32

>  <EState_VSA5>
0

>  <EState_VSA6>
0

>  <EState_VSA7>
60.48

>  <EState_VSA8>
18.31

>  <EState_VSA9>
0

>  <EState_VSA10>
4.79

>  <VSA_EState1>
0

>  <VSA_EState2>
15.05

>  <VSA_EState3>
3.17

>  <VSA_EState4>
2.66

>  <VSA_EState5>
0.18

>  <VSA_EState6>
18.07

>  <VSA_EState7>
1.84

>  <VSA_EState8>
3

>  <VSA_EState9>
1.95

>  <apol>
49.4

>  <bpol>
25.22

>  <nRing>
3

>  <nHRing>
1

>  <naRing>
2

>  <naHRing>
0

>  <nARing 2>
1

>  <nAHRing 2>
1

>  <nFRing>
1

>  <nFHRing>
1

>  <nFaRing>
0

>  <nFaHRing>
0

>  <nFARing 2>
1

>  <nFAHRing 2>
1

>  <nRot>
5

>  <SLogP>
3.62

>  <SMR>
90.54

>  <TopoPSA(NO)>
32.34

>  <TopoPSA>
32.34

>  <JGI1>
0.15

>  <JGI2>
0.09

>  <JGI3>
0.08

>  <JGI4>
0.04

>  <JGI5>
0.02

>  <Diameter>
11

>  <Radius>
6

>  <TMWC10>
121.95

>  <TSRW10>
71.37

>  <MW>
294.17

>  <AMW>
6.69

>  <WPath>
983

>  <WPol>
38

>  <Zagreb1>
116

>  <Zagreb2>
141

>  <mZagreb2>
4.99

>  <yes>


>  <nAR-cont>
0.816016

>  <nHA-cont>
0.983774276

>  <MWHBN>
0.17491299

>  <MWHBN-cont>
0.981053642

>  <TPSA-cont>
0.774246718

>  <pka_cont>
0.97

>  <yes.1>


>  <BBB_SCORE>
5.304864175

>  <MMFF94 Energy>
66.451

$$$$
Compound 1467
Actelion Java MolfileCreator 2.0

  0  0  0  0  0  0              0 V3000
M  V30 BEGIN CTAB
M  V30 COUNTS 45 47 0 0 0
M  V30 BEGIN ATOM
M  V30 1 N 0.7103 1.2631 0.9472 0
M  V30 2 C 1.4251 2.4208 1.2687 0
M  V30 3 C -0.6127 1.0577 0.5012 0
M  V30 4 C 1.1036 -0.003 1.5969 0
M  V30 5 C 0.7997 3.5638 1.7852 0
M  V30 6 C 2.8174 2.4676 1.0963 0
M  V30 7 C -1.0045 -0.2846 0.5919 0
M  V30 8 C -1.49 1.9982 -0.0176 0
M  V30 9 C 0.1568 -1.1265 1.0556 0 CFG=1
M  V30 10 C 1.5311 4.711 2.1108 0
M  V30 11 C 3.5547 3.6119 1.4172 0
M  V30 12 C -2.2915 -0.6859 0.2526 0
M  V30 13 C -2.7817 1.6026 -0.3782 0
M  V30 14 C 0.8797 -1.857 -0.111 0
M  V30 15 C -0.2161 -2.0852 2.1934 0
M  V30 16 C 2.9097 4.7351 1.9248 0
M  V30 17 C -3.1838 0.27 -0.2317 0
M  V30 18 C 0.081 -2.9333 -0.8632 0
M  V30 19 C -0.4396 -2.439 -2.2176 0
M  V30 20 N -1.211 -3.5056 -2.8608 0
M  V30 21 C -1.7401 -3.0606 -4.1434 0
M  V30 22 H 2.1566 -0.2516 1.4187 0
M  V30 23 H 0.9797 0.1121 2.6836 0
M  V30 24 H -0.2701 3.5622 1.9741 0
M  V30 25 H 3.3412 1.6121 0.6785 0
M  V30 26 H -1.187 3.0301 -0.1552 0
M  V30 27 H 1.0202 5.5805 2.5154 0
M  V30 28 H 4.6303 3.6239 1.2636 0
M  V30 29 H -2.5986 -1.7242 0.3307 0
M  V30 30 H -3.4773 2.3357 -0.7788 0
M  V30 31 H 1.7655 -2.3506 0.3133 0
M  V30 32 H 1.2701 -1.1244 -0.8305 0
M  V30 33 H -0.6686 -1.5479 3.0357 0
M  V30 34 H 0.6705 -2.607 2.5701 0
M  V30 35 H -0.9416 -2.8419 1.8795 0
M  V30 36 H 3.4791 5.6259 2.1755 0
M  V30 37 H -4.1905 -0.0254 -0.517 0
M  V30 38 H 0.7515 -3.7838 -1.0474 0
M  V30 39 H -0.7422 -3.322 -0.2563 0
M  V30 40 H 0.4087 -2.1551 -2.8521 0
M  V30 41 H -1.0672 -1.5536 -2.0847 0
M  V30 42 H -0.6106 -4.3161 -3.0086 0
M  V30 43 H -0.9376 -2.7834 -4.8346 0
M  V30 44 H -2.4166 -2.2089 -4.0186 0
M  V30 45 H -2.3141 -3.8719 -4.6016 0
M  V30 END ATOM
M  V30 BEGIN BOND
M  V30 1 1 1 2
M  V30 2 1 1 3
M  V30 3 1 1 4
M  V30 4 2 2 5
M  V30 5 1 2 6
M  V30 6 2 3 7
M  V30 7 1 3 8
M  V30 8 1 4 9
M  V30 9 1 5 10
M  V30 10 2 6 11
M  V30 11 1 7 12
M  V30 12 2 8 13
M  V30 13 1 9 14
M  V30 14 1 9 15
M  V30 15 2 10 16
M  V30 16 2 12 17
M  V30 17 1 14 18
M  V30 18 1 18 19
M  V30 19 1 19 20
M  V30 20 1 20 21
M  V30 21 1 7 9
M  V30 22 1 11 16
M  V30 23 1 13 17
M  V30 24 1 4 22
M  V30 25 1 4 23
M  V30 26 1 5 24
M  V30 27 1 6 25
M  V30 28 1 8 26
M  V30 29 1 10 27
M  V30 30 1 11 28
M  V30 31 1 12 29
M  V30 32 1 13 30
M  V30 33 1 14 31
M  V30 34 1 14 32
M  V30 35 1 15 33
M  V30 36 1 15 34
M  V30 37 1 15 35
M  V30 38 1 16 36
M  V30 39 1 17 37
M  V30 40 1 18 38
M  V30 41 1 18 39
M  V30 42 1 19 40
M  V30 43 1 19 41
M  V30 44 1 20 42
M  V30 45 1 21 43
M  V30 46 1 21 44
M  V30 47 1 21 45
M  V30 END BOND
M  V30 BEGIN COLLECTION
M  V30 MDLV30/STERAC1 ATOMS=(1 9)
M  V30 END COLLECTION
M  V30 END CTAB
M  END
>  <Column 1>
1746

>  <level_0>
1907

>  <index>
1907

>  <Unnamed: 0>
1907

>  <NO.>
1919

>  <Name>
daledalin

>  <IUPAC_name>
n-methyl-3-(3-methyl-1-phenyl-2h-indol-3-yl)propan-1-amine

>  <SMILES>
CNCCCC1(C)CN(c2ccccc2)c2ccccc21

>  <CID>
31707

>  <logBB>


>  <BBB+/BBB->
BBB+

>  <Inchi>
InChI=1S/C19H24N2/c1-19(13-8-14-20-2)15-21(16-9-4-3-5-10-16)18-12-7-6-11-17(18)19/h3-7-9-12-20H-8-13-15H2-1-2H3

>  <threshold>
-1

>  <reference>
R1|R13|R19|R6|R27|R27|R30|

>  <group>
B

>  <Class>
1

>  <ABC>
16.24

>  <ABCGG>
13.4

>  <nAcid>
0

>  <nBase>
1

>  <nAromAtom>
12

>  <nAromBond>
12

>  <nAtom>
45

>  <nHeavyAtom>
21

>  <nSpiro>
0

>  <nBridgehead>
0

>  <nHetero>
2

>  <nN>
2

>  <nO>
0

>  <nF>
0

>  <BalabanJ>
1.7

>  <BertzCT>
593.53

>  <nBonds>
47

>  <nBondsO>
23

>  <nBondsS>
35

>  <nBondsD>
0

>  <nBondsT>
0

>  <nBondsA>
12

>  <nBondsM>
12

>  <nBondsKS>
41

>  <nBondsKD>
6

>  <RNCG>
0.26

>  <RPCG>
0.09

>  <FCSP3>
0.37

>  <SZ>
25.33

>  <Sm>
23.35

>  <Sv>
27.02

>  <Sse>
43.98

>  <Sp>
29.9

>  <Si>
50.56

>  <MZ>
0.56

>  <Mm>
0.52

>  <Mv>
0.6

>  <Mse>
0.98

>  <Mp>
0.66

>  <Mi>
1.12

>  <NsCH3>
2

>  <NdCH2>
0

>  <NssCH2>
4

>  <NtCH>
0

>  <NdsCH>
0

>  <NaaCH>
9

>  <NsssCH>
0

>  <NddC>
0

>  <NtsC>
0

>  <NdssC>
0

>  <NaasC>
3

>  <NaaaC>
0

>  <NssssC>
1

>  <NsNH3>
0

>  <NsNH2>
0

>  <NssNH2>
0

>  <NdNH>
0

>  <NssNH>
1

>  <NaaNH>
0

>  <NtN>
0

>  <NsssNH>
0

>  <NdsN>
0

>  <NaaN>
0

>  <NsssN>
1

>  <NddsN>
0

>  <NaasN>
0

>  <NssssN>
0

>  <NsOH>
0

>  <NdO>
0

>  <NssO>
0

>  <NaaO>
0

>  <NsF>
0

>  <NsSiH3>
0

>  <NssSiH2>
0

>  <NsssSiH>
0

>  <NssssSi>
0

>  <NsPH2>
0

>  <NssPH>
0

>  <NsssP>
0

>  <NdsssP>
0

>  <NsssssP>
0

>  <NsSH>
0

>  <NdS>
0

>  <NssS>
0

>  <NaaS>
0

>  <NdssS>
0

>  <NddssS>
0

>  <NsCl>
0

>  <NsBr>
0

>  <NsI>
0

>  <fragCpx>
109.02

>  <fMF>
0.33

>  <nHBAcc>
2

>  <nHBDon>
1

>  <Kier1>
15.88

>  <Kier2>
7.05

>  <Lipinski>
1

>  <GhoseFilter>
1

>  <FilterItLogS>
-5.47

>  <VMcGowan>
240.15

>  <LabuteASA>
127.35

>  <PEOE_VSA1>
10.22

>  <PEOE_VSA2>
0

>  <PEOE_VSA3>
0

>  <PEOE_VSA4>
0

>  <PEOE_VSA5>
0

>  <PEOE_VSA6>
43.32

>  <PEOE_VSA7>
50.2

>  <PEOE_VSA8>
23.33

>  <PEOE_VSA9>
0

>  <PEOE_VSA10>
0

>  <PEOE_VSA11>
0

>  <PEOE_VSA12>
0

>  <PEOE_VSA13>
0

>  <SMR_VSA1>
0

>  <SMR_VSA2>
0

>  <SMR_VSA3>
5.32

>  <SMR_VSA4>
0

>  <SMR_VSA5>
25.18

>  <SMR_VSA6>
25.04

>  <SMR_VSA7>
60.16

>  <SMR_VSA8>
0

>  <SMR_VSA9>
0

>  <SlogP_VSA1>
10.22

>  <SlogP_VSA2>
20.14

>  <SlogP_VSA3>
5.41

>  <SlogP_VSA4>
0

>  <SlogP_VSA5>
25.33

>  <SlogP_VSA6>
54.6

>  <SlogP_VSA7>
0

>  <SlogP_VSA8>
0

>  <SlogP_VSA9>
0

>  <SlogP_VSA10>
11.37

>  <SlogP_VSA11>
0

>  <EState_VSA1>
0

>  <EState_VSA2>
5.41

>  <EState_VSA3>
0

>  <EState_VSA4>
13.09

>  <EState_VSA5>
29.78

>  <EState_VSA6>
0

>  <EState_VSA7>
7.05

>  <EState_VSA8>
71.74

>  <EState_VSA9>
0

>  <EState_VSA10>
0

>  <VSA_EState1>
0

>  <VSA_EState2>
2.47

>  <VSA_EState3>
3.26

>  <VSA_EState4>
4.39

>  <VSA_EState5>
0

>  <VSA_EState6>
19.61

>  <VSA_EState7>
2.43

>  <VSA_EState8>
4.56

>  <VSA_EState9>
2.03

>  <apol>
49.93

>  <bpol>
26.36

>  <nRing>
3

>  <nHRing>
1

>  <naRing>
2

>  <naHRing>
0

>  <nARing 2>
1

>  <nAHRing 2>
1

>  <nFRing>
1

>  <nFHRing>
1

>  <nFaRing>
0

>  <nFaHRing>
0

>  <nFARing 2>
1

>  <nFAHRing 2>
1

>  <nRot>
5

>  <SLogP>
4.1

>  <SMR>
90.4

>  <TopoPSA(NO)>
15.27

>  <TopoPSA>
15.27

>  <JGI1>
0.15

>  <JGI2>
0.08

>  <JGI3>
0.07

>  <JGI4>
0.04

>  <JGI5>
0.02

>  <Diameter>
11

>  <Radius>
6

>  <TMWC10>
118.85

>  <TSRW10>
69.69

>  <MW>
280.19

>  <AMW>
6.23

>  <WPath>
899

>  <WPol>
33

>  <Zagreb1>
110

>  <Zagreb2>
131

>  <mZagreb2>
4.75

>  <yes>


>  <nAR-cont>
0.816016

>  <nHA-cont>
0.994529749

>  <MWHBN>
0.179223494

>  <MWHBN-cont>
0.986310907

>  <TPSA-cont>
0.893405918

>  <pka_cont>
0.97

>  <yes.1>


>  <BBB_SCORE>
5.561823945

>  <MMFF94 Energy>
61.345

$$$$
Compound 1468
Actelion Java MolfileCreator 2.0

  0  0  0  0  0  0              0 V3000
M  V30 BEGIN CTAB
M  V30 COUNTS 47 49 0 0 0
M  V30 BEGIN ATOM
M  V30 1 O 1.1874 -1.029 0.2374 0
M  V30 2 C -0.1184 -0.3941 0.0511 0 CFG=2
M  V30 3 C 1.6054 -1.7393 -0.9546 0
M  V30 4 C -1.06 -0.8158 1.186 0
M  V30 5 C -0.5731 -0.9085 -1.2923 0
M  V30 6 C 0.143 1.1338 -0.0248 0
M  V30 7 C 0.4285 -1.679 -1.87 0
M  V30 8 C 2.8257 -1.023 -1.5326 0
M  V30 9 C 1.959 -3.1705 -0.5533 0
M  V30 10 C -0.7928 -1.952 1.9708 0
M  V30 11 C -2.2388 -0.0981 1.4664 0
M  V30 12 C -1.7703 -0.6893 -1.964 0
M  V30 13 C 0.7796 1.7161 1.2481 0
M  V30 14 C 0.261 -2.2539 -3.1231 0
M  V30 15 C -1.6575 -2.3488 2.9946 0
M  V30 16 C -3.1038 -0.4937 2.4908 0
M  V30 17 C -1.9515 -1.2647 -3.2232 0
M  V30 18 C 1.2272 3.1738 1.0925 0
M  V30 19 C -0.9405 -2.0436 -3.8 0
M  V30 20 C -2.8127 -1.619 3.2548 0
M  V30 21 N 0.0983 4.0681 0.8292 0
M  V30 22 C 0.5347 5.4583 0.7937 0
M  V30 23 H -0.7843 1.6697 -0.258 0
M  V30 24 H 0.8272 1.3399 -0.8589 0
M  V30 25 H 3.6368 -0.9843 -0.7965 0
M  V30 26 H 3.1996 -1.52 -2.4341 0
M  V30 27 H 2.5945 0.0159 -1.7929 0
M  V30 28 H 2.3154 -3.757 -1.4067 0
M  V30 29 H 1.0922 -3.6896 -0.1283 0
M  V30 30 H 2.7357 -3.1766 0.2197 0
M  V30 31 H 0.1031 -2.5422 1.7964 0
M  V30 32 H -2.5018 0.786 0.8915 0
M  V30 33 H -2.5597 -0.0875 -1.5254 0
M  V30 34 H 0.0791 1.6434 2.0882 0
M  V30 35 H 1.6612 1.1249 1.5228 0
M  V30 36 H 1.044 -2.8559 -3.5734 0
M  V30 37 H -1.4241 -3.2286 3.5881 0
M  V30 38 H -4.0046 0.0802 2.6912 0
M  V30 39 H -2.8844 -1.109 -3.7594 0
M  V30 40 H 1.9646 3.2457 0.284 0
M  V30 41 H 1.7257 3.4735 2.0224 0
M  V30 42 H -1.0948 -2.4866 -4.7806 0
M  V30 43 H -3.484 -1.9264 4.0517 0
M  V30 44 H -0.3199 3.8339 -0.0696 0
M  V30 45 H 1.2736 5.627 0.0037 0
M  V30 46 H 0.96 5.765 1.7548 0
M  V30 47 H -0.3254 6.1048 0.594 0
M  V30 END ATOM
M  V30 BEGIN BOND
M  V30 1 1 1 2
M  V30 2 1 1 3
M  V30 3 1 2 4
M  V30 4 1 2 5
M  V30 5 1 2 6
M  V30 6 1 3 7
M  V30 7 1 3 8
M  V30 8 1 3 9
M  V30 9 2 4 10
M  V30 10 1 4 11
M  V30 11 1 5 12
M  V30 12 1 6 13
M  V30 13 1 7 14
M  V30 14 1 10 15
M  V30 15 2 11 16
M  V30 16 2 12 17
M  V30 17 1 13 18
M  V30 18 2 14 19
M  V30 19 2 15 20
M  V30 20 1 18 21
M  V30 21 1 21 22
M  V30 22 2 5 7
M  V30 23 1 16 20
M  V30 24 1 17 19
M  V30 25 1 6 23
M  V30 26 1 6 24
M  V30 27 1 8 25
M  V30 28 1 8 26
M  V30 29 1 8 27
M  V30 30 1 9 28
M  V30 31 1 9 29
M  V30 32 1 9 30
M  V30 33 1 10 31
M  V30 34 1 11 32
M  V30 35 1 12 33
M  V30 36 1 13 34
M  V30 37 1 13 35
M  V30 38 1 14 36
M  V30 39 1 15 37
M  V30 40 1 16 38
M  V30 41 1 17 39
M  V30 42 1 18 40
M  V30 43 1 18 41
M  V30 44 1 19 42
M  V30 45 1 20 43
M  V30 46 1 21 44
M  V30 47 1 22 45
M  V30 48 1 22 46
M  V30 49 1 22 47
M  V30 END BOND
M  V30 BEGIN COLLECTION
M  V30 MDLV30/STERAC1 ATOMS=(1 2)
M  V30 END COLLECTION
M  V30 END CTAB
M  END
>  <Column 1>
1747

>  <level_0>
1908

>  <index>
1908

>  <Unnamed: 0>
1908

>  <NO.>
1920

>  <Name>
talopram

>  <IUPAC_name>
3-(3-3-dimethyl-1-phenyl-2-benzofuran-1-yl)-n-methylpropan-1-amine

>  <SMILES>
CNCCCC1(c2ccccc2)OC(C)(C)c2ccccc21

>  <CID>
23573

>  <logBB>


>  <BBB+/BBB->
BBB+

>  <Inchi>
InChI=1S/C20H25NO/c1-19(2)17-12-7-8-13-18(17)20(22-19-14-9-15-21-3)16-10-5-4-6-11-16/h4-8-10-13-21H-9-14-15H2-1-3H3

>  <threshold>
-1

>  <reference>
R1|R13|R19|R6|R27|R27|R30|

>  <group>
B

>  <Class>
1

>  <ABC>
17.06

>  <ABCGG>
14.58

>  <nAcid>
0

>  <nBase>
1

>  <nAromAtom>
12

>  <nAromBond>
12

>  <nAtom>
47

>  <nHeavyAtom>
22

>  <nSpiro>
0

>  <nBridgehead>
0

>  <nHetero>
2

>  <nN>
1

>  <nO>
1

>  <nF>
0

>  <BalabanJ>
1.86

>  <BertzCT>
635.17

>  <nBonds>
49

>  <nBondsO>
24

>  <nBondsS>
37

>  <nBondsD>
0

>  <nBondsT>
0

>  <nBondsA>
12

>  <nBondsM>
12

>  <nBondsKS>
43

>  <nBondsKD>
6

>  <RNCG>
0.26

>  <RPCG>
0.09

>  <FCSP3>
0.4

>  <SZ>
26.67

>  <Sm>
24.6

>  <Sv>
28.25

>  <Sse>
46.09

>  <Sp>
31.12

>  <Si>
52.69

>  <MZ>
0.57

>  <Mm>
0.52

>  <Mv>
0.6

>  <Mse>
0.98

>  <Mp>
0.66

>  <Mi>
1.12

>  <NsCH3>
3

>  <NdCH2>
0

>  <NssCH2>
3

>  <NtCH>
0

>  <NdsCH>
0

>  <NaaCH>
9

>  <NsssCH>
0

>  <NddC>
0

>  <NtsC>
0

>  <NdssC>
0

>  <NaasC>
3

>  <NaaaC>
0

>  <NssssC>
2

>  <NsNH3>
0

>  <NsNH2>
0

>  <NssNH2>
0

>  <NdNH>
0

>  <NssNH>
1

>  <NaaNH>
0

>  <NtN>
0

>  <NsssNH>
0

>  <NdsN>
0

>  <NaaN>
0

>  <NsssN>
0

>  <NddsN>
0

>  <NaasN>
0

>  <NssssN>
0

>  <NsOH>
0

>  <NdO>
0

>  <NssO>
1

>  <NaaO>
0

>  <NsF>
0

>  <NsSiH3>
0

>  <NssSiH2>
0

>  <NsssSiH>
0

>  <NssssSi>
0

>  <NsPH2>
0

>  <NssPH>
0

>  <NsssP>
0

>  <NdsssP>
0

>  <NsssssP>
0

>  <NsSH>
0

>  <NdS>
0

>  <NssS>
0

>  <NaaS>
0

>  <NdssS>
0

>  <NddssS>
0

>  <NsCl>
0

>  <NsBr>
0

>  <NsI>
0

>  <fragCpx>
114.02

>  <fMF>
0.32

>  <nHBAcc>
2

>  <nHBDon>
1

>  <Kier1>
16.84

>  <Kier2>
6.86

>  <Lipinski>
1

>  <GhoseFilter>
1

>  <FilterItLogS>
-6.24

>  <VMcGowan>
250.13

>  <LabuteASA>
133.07

>  <PEOE_VSA1>
10.05

>  <PEOE_VSA2>
0

>  <PEOE_VSA3>
0

>  <PEOE_VSA4>
0

>  <PEOE_VSA5>
0

>  <PEOE_VSA6>
54.6

>  <PEOE_VSA7>
56.97

>  <PEOE_VSA8>
0

>  <PEOE_VSA9>
5.6

>  <PEOE_VSA10>
5.6

>  <PEOE_VSA11>
0

>  <PEOE_VSA12>
0

>  <PEOE_VSA13>
0

>  <SMR_VSA1>
4.74

>  <SMR_VSA2>
0

>  <SMR_VSA3>
5.32

>  <SMR_VSA4>
0

>  <SMR_VSA5>
37.89

>  <SMR_VSA6>
13.59

>  <SMR_VSA7>
71.29

>  <SMR_VSA8>
0

>  <SMR_VSA9>
0

>  <SlogP_VSA1>
5.32

>  <SlogP_VSA2>
13.59

>  <SlogP_VSA3>
15.94

>  <SlogP_VSA4>
0

>  <SlogP_VSA5>
43.38

>  <SlogP_VSA6>
54.6

>  <SlogP_VSA7>
0

>  <SlogP_VSA8>
0

>  <SlogP_VSA9>
0

>  <SlogP_VSA10>
0

>  <SlogP_VSA11>
0

>  <EState_VSA1>
0

>  <EState_VSA2>
11.2

>  <EState_VSA3>
0

>  <EState_VSA4>
19.39

>  <EState_VSA5>
16.69

>  <EState_VSA6>
0

>  <EState_VSA7>
7.05

>  <EState_VSA8>
73.76

>  <EState_VSA9>
4.74

>  <EState_VSA10>
0

>  <VSA_EState1>
6.71

>  <VSA_EState2>
0

>  <VSA_EState3>
3.25

>  <VSA_EState4>
3.29

>  <VSA_EState5>
0

>  <VSA_EState6>
19.33

>  <VSA_EState7>
2.06

>  <VSA_EState8>
5.35

>  <VSA_EState9>
2

>  <apol>
51.97

>  <bpol>
27.39

>  <nRing>
3

>  <nHRing>
1

>  <naRing>
2

>  <naHRing>
0

>  <nARing 2>
1

>  <nAHRing 2>
1

>  <nFRing>
1

>  <nFHRing>
1

>  <nFaRing>
0

>  <nFaHRing>
0

>  <nFARing 2>
1

>  <nFAHRing 2>
1

>  <nRot>
5

>  <SLogP>
4.2

>  <SMR>
90.94

>  <TopoPSA(NO)>
21.26

>  <TopoPSA>
21.26

>  <JGI1>
0.21

>  <JGI2>
0.1

>  <JGI3>
0.08

>  <JGI4>
0.03

>  <JGI5>
0.02

>  <Diameter>
9

>  <Radius>
5

>  <TMWC10>
122.43

>  <TSRW10>
71.59

>  <MW>
295.19

>  <AMW>
6.28

>  <WPath>
941

>  <WPol>
38

>  <Zagreb1>
118

>  <Zagreb2>
143

>  <mZagreb2>
4.9

>  <yes>


>  <nAR-cont>
0.816016

>  <nHA-cont>
0.983774276

>  <MWHBN>
0.174610531

>  <MWHBN-cont>
0.98065123

>  <TPSA-cont>
0.851591998

>  <pka_cont>
0.97

>  <yes.1>


>  <BBB_SCORE>
5.458951118

>  <MMFF94 Energy>
75.933

$$$$
Compound 1469
Actelion Java MolfileCreator 2.0

  0  0  0  0  0  0              0 V3000
M  V30 BEGIN CTAB
M  V30 COUNTS 41 43 0 0 0
M  V30 BEGIN ATOM
M  V30 1 N 1.1902 -2.6199 3.0969 0
M  V30 2 C 0.8824 -1.2 3.2657 0
M  V30 3 C 1.0352 -3.3417 4.3532 0
M  V30 4 C 1.1002 -0.4091 1.9704 0
M  V30 5 C 0.1321 -0.804 0.8421 0
M  V30 6 C 0.2831 0.0874 -0.4213 0
M  V30 7 C -0.3601 -0.4944 -1.6849 0
M  V30 8 C -0.1266 1.5553 -0.2747 0
M  V30 9 C 0.0607 -0.0227 -2.9508 0
M  V30 10 C -1.3756 -1.4663 -1.6327 0
M  V30 11 C 0.3552 2.4992 -1.2125 0
M  V30 12 C -0.9969 2.0009 0.7361 0
M  V30 13 C 1.0861 1.0249 -3.1097 0
M  V30 14 C -0.4913 -0.5741 -4.1172 0
M  V30 15 C -1.9268 -1.9934 -2.8023 0
M  V30 16 C 1.2168 2.1256 -2.3489 0
M  V30 17 C 0.0213 3.8554 -1.0714 0
M  V30 18 C -1.3336 3.3512 0.8539 0
M  V30 19 C -1.4798 -1.5543 -4.0433 0
M  V30 20 C -0.8174 4.2795 -0.0424 0
M  V30 21 H 0.5697 -3.0303 2.4007 0
M  V30 22 H -0.1533 -1.0701 3.6023 0
M  V30 23 H 1.5371 -0.7736 4.0356 0
M  V30 24 H 0.0073 -3.2826 4.7257 0
M  V30 25 H 1.7169 -2.9566 5.1185 0
M  V30 26 H 1.2773 -4.3977 4.1988 0
M  V30 27 H 2.1345 -0.5422 1.628 0
M  V30 28 H 0.9889 0.6543 2.2083 0
M  V30 29 H -0.8989 -0.7978 1.2142 0
M  V30 30 H 0.3522 -1.8418 0.5603 0
M  V30 31 H 1.37 0.075 -0.5981 0
M  V30 32 H -1.7568 -1.8293 -0.6825 0
M  V30 33 H -1.4291 1.3085 1.4521 0
M  V30 34 H 1.7698 0.8859 -3.9442 0
M  V30 35 H -0.1677 -0.2275 -5.096 0
M  V30 36 H -2.7073 -2.7474 -2.7419 0
M  V30 37 H 2.0008 2.8381 -2.5954 0
M  V30 38 H 0.396 4.5907 -1.7799 0
M  V30 39 H -2.0022 3.6761 1.6471 0
M  V30 40 H -1.9075 -1.9648 -4.9538 0
M  V30 41 H -1.0785 5.3303 0.0486 0
M  V30 END ATOM
M  V30 BEGIN BOND
M  V30 1 1 1 2
M  V30 2 1 1 3
M  V30 3 1 2 4
M  V30 4 1 4 5
M  V30 5 1 5 6
M  V30 6 1 6 7
M  V30 7 1 6 8
M  V30 8 2 7 9
M  V30 9 1 7 10
M  V30 10 2 8 11
M  V30 11 1 8 12
M  V30 12 1 9 13
M  V30 13 1 9 14
M  V30 14 2 10 15
M  V30 15 1 11 16
M  V30 16 1 11 17
M  V30 17 2 12 18
M  V30 18 2 14 19
M  V30 19 2 17 20
M  V30 20 2 13 16
M  V30 21 1 15 19
M  V30 22 1 18 20
M  V30 23 1 1 21
M  V30 24 1 2 22
M  V30 25 1 2 23
M  V30 26 1 3 24
M  V30 27 1 3 25
M  V30 28 1 3 26
M  V30 29 1 4 27
M  V30 30 1 4 28
M  V30 31 1 5 29
M  V30 32 1 5 30
M  V30 33 1 6 31
M  V30 34 1 10 32
M  V30 35 1 12 33
M  V30 36 1 13 34
M  V30 37 1 14 35
M  V30 38 1 15 36
M  V30 39 1 16 37
M  V30 40 1 17 38
M  V30 41 1 18 39
M  V30 42 1 19 40
M  V30 43 1 20 41
M  V30 END BOND
M  V30 END CTAB
M  END
>  <Column 1>
1748

>  <level_0>
1909

>  <index>
1909

>  <Unnamed: 0>
1909

>  <NO.>
1921

>  <Name>
protriptyline

>  <IUPAC_name>
n-methyl-3-(2-tricyclo[9.4.0.03-8]pentadeca-1(15)-3-5-7-9-11-13-heptaenyl)propan-1-amine

>  <SMILES>
CNCCCC1c2ccccc2C=Cc2ccccc21

>  <CID>
4976

>  <logBB>


>  <BBB+/BBB->
BBB+

>  <Inchi>
InChI=1S/C19H21N/c1-20-14-6-11-19-17-9-4-2-7-15(17)12-13-16-8-3-5-10-18(16)19/h2-5-7-10-12-13-19-20H-6-11-14H2-1H3

>  <threshold>
-1

>  <reference>
R1|R13|R19|R6|R14|R23|R24|R26|R27|R27|R27|R27|R30|R30|R36|

>  <group>
B

>  <Class>
1

>  <ABC>
15.39

>  <ABCGG>
12.44

>  <nAcid>
0

>  <nBase>
1

>  <nAromAtom>
12

>  <nAromBond>
12

>  <nAtom>
41

>  <nHeavyAtom>
20

>  <nSpiro>
0

>  <nBridgehead>
0

>  <nHetero>
1

>  <nN>
1

>  <nO>
0

>  <nF>
0

>  <BalabanJ>
1.73

>  <BertzCT>
563.17

>  <nBonds>
43

>  <nBondsO>
22

>  <nBondsS>
30

>  <nBondsD>
1

>  <nBondsT>
0

>  <nBondsA>
12

>  <nBondsM>
13

>  <nBondsKS>
36

>  <nBondsKD>
7

>  <RNCG>
0.29

>  <RPCG>
0.11

>  <FCSP3>
0.26

>  <SZ>
23.67

>  <Sm>
21.93

>  <Sv>
25.45

>  <Sse>
39.99

>  <Sp>
28.04

>  <Si>
45.65

>  <MZ>
0.58

>  <Mm>
0.53

>  <Mv>
0.62

>  <Mse>
0.98

>  <Mp>
0.68

>  <Mi>
1.11

>  <NsCH3>
1

>  <NdCH2>
0

>  <NssCH2>
3

>  <NtCH>
0

>  <NdsCH>
2

>  <NaaCH>
8

>  <NsssCH>
1

>  <NddC>
0

>  <NtsC>
0

>  <NdssC>
0

>  <NaasC>
4

>  <NaaaC>
0

>  <NssssC>
0

>  <NsNH3>
0

>  <NsNH2>
0

>  <NssNH2>
0

>  <NdNH>
0

>  <NssNH>
1

>  <NaaNH>
0

>  <NtN>
0

>  <NsssNH>
0

>  <NdsN>
0

>  <NaaN>
0

>  <NsssN>
0

>  <NddsN>
0

>  <NaasN>
0

>  <NssssN>
0

>  <NsOH>
0

>  <NdO>
0

>  <NssO>
0

>  <NaaO>
0

>  <NsF>
0

>  <NsSiH3>
0

>  <NssSiH2>
0

>  <NsssSiH>
0

>  <NssssSi>
0

>  <NsPH2>
0

>  <NssPH>
0

>  <NsssP>
0

>  <NdsssP>
0

>  <NsssssP>
0

>  <NsSH>
0

>  <NdS>
0

>  <NssS>
0

>  <NaaS>
0

>  <NdssS>
0

>  <NddssS>
0

>  <NsCl>
0

>  <NsBr>
0

>  <NsI>
0

>  <fragCpx>
104.01

>  <fMF>
0.37

>  <nHBAcc>
1

>  <nHBDon>
1

>  <Kier1>
14.92

>  <Kier2>
7.32

>  <Lipinski>
1

>  <GhoseFilter>
1

>  <FilterItLogS>
-5.49

>  <VMcGowan>
225.87

>  <LabuteASA>
120.9

>  <PEOE_VSA1>
5.32

>  <PEOE_VSA2>
0

>  <PEOE_VSA3>
0

>  <PEOE_VSA4>
0

>  <PEOE_VSA5>
0

>  <PEOE_VSA6>
60.68

>  <PEOE_VSA7>
48.69

>  <PEOE_VSA8>
5.92

>  <PEOE_VSA9>
0

>  <PEOE_VSA10>
0

>  <PEOE_VSA11>
0

>  <PEOE_VSA12>
0

>  <PEOE_VSA13>
0

>  <SMR_VSA1>
0

>  <SMR_VSA2>
0

>  <SMR_VSA3>
5.32

>  <SMR_VSA4>
0

>  <SMR_VSA5>
18.76

>  <SMR_VSA6>
13.59

>  <SMR_VSA7>
70.78

>  <SMR_VSA8>
0

>  <SMR_VSA9>
0

>  <SlogP_VSA1>
5.32

>  <SlogP_VSA2>
13.59

>  <SlogP_VSA3>
0

>  <SlogP_VSA4>
0

>  <SlogP_VSA5>
41.01

>  <SlogP_VSA6>
48.53

>  <SlogP_VSA7>
0

>  <SlogP_VSA8>
12.15

>  <SlogP_VSA9>
0

>  <SlogP_VSA10>
0

>  <SlogP_VSA11>
0

>  <EState_VSA1>
0

>  <EState_VSA2>
0

>  <EState_VSA3>
5.92

>  <EState_VSA4>
6.54

>  <EState_VSA5>
35.1

>  <EState_VSA6>
0

>  <EState_VSA7>
7.05

>  <EState_VSA8>
66

>  <EState_VSA9>
0

>  <EState_VSA10>
0

>  <VSA_EState1>
0

>  <VSA_EState2>
0

>  <VSA_EState3>
3.26

>  <VSA_EState4>
5.64

>  <VSA_EState5>
0.51

>  <VSA_EState6>
17.59

>  <VSA_EState7>
6.9

>  <VSA_EState8>
1.08

>  <VSA_EState9>
2.02

>  <apol>
46.83

>  <bpol>
21.64

>  <nRing>
3

>  <nHRing>
0

>  <naRing>
2

>  <naHRing>
0

>  <nARing 2>
1

>  <nAHRing 2>
0

>  <nFRing>
1

>  <nFHRing>
0

>  <nFaRing>
0

>  <nFaHRing>
0

>  <nFARing 2>
1

>  <nFAHRing 2>
0

>  <nRot>
4

>  <SLogP>
4.3

>  <SMR>
86.82

>  <TopoPSA(NO)>
12.03

>  <TopoPSA>
12.03

>  <JGI1>
0.09

>  <JGI2>
0.07

>  <JGI3>
0.04

>  <JGI4>
0.03

>  <JGI5>
0.02

>  <Diameter>
9

>  <Radius>
5

>  <TMWC10>
115.19

>  <TSRW10>
61.56

>  <MW>
263.17

>  <AMW>
6.42

>  <WPath>
759

>  <WPol>
34

>  <Zagreb1>
102

>  <Zagreb2>
120

>  <mZagreb2>
4.61

>  <yes>


>  <nAR-cont>
0.816016

>  <nHA-cont>
0.999629945

>  <MWHBN>
0.123285445

>  <MWHBN-cont>
0.843219865

>  <TPSA-cont>
0.91602313

>  <pka_cont>
0.97

>  <yes.1>


>  <BBB_SCORE>
5.397522001

>  <MMFF94 Energy>
62.614

$$$$
Compound 1470
Actelion Java MolfileCreator 2.0

  0  0  0  0  0  0              0 V3000
M  V30 BEGIN CTAB
M  V30 COUNTS 43 44 0 0 0
M  V30 BEGIN ATOM
M  V30 1 O -1.8038 -0.3135 -1.1761 0
M  V30 2 C -1.1188 -1.2136 -1.952 0
M  V30 3 C -1.7029 -0.6291 0.2192 0
M  V30 4 C -0.0934 -0.7393 -2.7829 0
M  V30 5 C -1.4856 -2.5625 -1.9746 0
M  V30 6 C -2.2288 0.5655 1.0104 0
M  V30 7 C 0.5844 -1.6556 -3.6049 0
M  V30 8 C 0.2999 0.7214 -2.8023 0
M  V30 9 C -0.803 -3.4592 -2.7958 0
M  V30 10 C -2.3053 0.3181 2.5189 0
M  V30 11 C 0.2346 -3.0069 -3.6068 0
M  V30 12 C 1.117 1.1847 -1.6141 0
M  V30 13 C -0.9893 -0.0737 3.2 0
M  V30 14 C 0.7361 2.3364 -0.9097 0
M  V30 15 C 2.2895 0.5185 -1.228 0
M  V30 16 N 0.0234 0.9703 3.0629 0
M  V30 17 C 1.5008 2.8027 0.1609 0
M  V30 18 C 3.052 0.9839 -0.1547 0
M  V30 19 C 1.2493 0.6018 3.7595 0
M  V30 20 C 2.6586 2.1265 0.5378 0
M  V30 21 H -0.6573 -0.8284 0.483 0
M  V30 22 H -2.3125 -1.5105 0.4489 0
M  V30 23 H -2.3142 -2.9201 -1.3712 0
M  V30 24 H -1.6167 1.4486 0.7958 0
M  V30 25 H -3.2319 0.8201 0.6444 0
M  V30 26 H 1.3901 -1.3178 -4.2531 0
M  V30 27 H -0.6154 1.321 -2.8947 0
M  V30 28 H 0.8753 0.9425 -3.7112 0
M  V30 29 H -1.0883 -4.5076 -2.8106 0
M  V30 30 H -2.7037 1.2214 2.9987 0
M  V30 31 H -3.0387 -0.4761 2.7076 0
M  V30 32 H 0.7651 -3.704 -4.2503 0
M  V30 33 H -0.6237 -1.023 2.7924 0
M  V30 34 H -1.2005 -0.24 4.2636 0
M  V30 35 H -0.1648 2.8782 -1.1905 0
M  V30 36 H 2.6196 -0.369 -1.7622 0
M  V30 37 H 0.2438 1.1132 2.075 0
M  V30 38 H 1.1907 3.6934 0.702 0
M  V30 39 H 3.957 0.4569 0.1353 0
M  V30 40 H 1.6904 -0.3079 3.3398 0
M  V30 41 H 1.0687 0.453 4.8291 0
M  V30 42 H 1.9817 1.4087 3.6605 0
M  V30 43 H 3.2534 2.4915 1.3708 0
M  V30 END ATOM
M  V30 BEGIN BOND
M  V30 1 1 1 2
M  V30 2 1 1 3
M  V30 3 2 2 4
M  V30 4 1 2 5
M  V30 5 1 3 6
M  V30 6 1 4 7
M  V30 7 1 4 8
M  V30 8 2 5 9
M  V30 9 1 6 10
M  V30 10 2 7 11
M  V30 11 1 8 12
M  V30 12 1 10 13
M  V30 13 2 12 14
M  V30 14 1 12 15
M  V30 15 1 13 16
M  V30 16 1 14 17
M  V30 17 2 15 18
M  V30 18 1 16 19
M  V30 19 2 17 20
M  V30 20 1 9 11
M  V30 21 1 18 20
M  V30 22 1 3 21
M  V30 23 1 3 22
M  V30 24 1 5 23
M  V30 25 1 6 24
M  V30 26 1 6 25
M  V30 27 1 7 26
M  V30 28 1 8 27
M  V30 29 1 8 28
M  V30 30 1 9 29
M  V30 31 1 10 30
M  V30 32 1 10 31
M  V30 33 1 11 32
M  V30 34 1 13 33
M  V30 35 1 13 34
M  V30 36 1 14 35
M  V30 37 1 15 36
M  V30 38 1 16 37
M  V30 39 1 17 38
M  V30 40 1 18 39
M  V30 41 1 19 40
M  V30 42 1 19 41
M  V30 43 1 19 42
M  V30 44 1 20 43
M  V30 END BOND
M  V30 END CTAB
M  END
>  <Column 1>
1749

>  <level_0>
1910

>  <index>
1910

>  <Unnamed: 0>
1910

>  <NO.>
1922

>  <Name>
bifemelane

>  <IUPAC_name>
4-(2-benzylphenoxy)-n-methylbutan-1-amine

>  <SMILES>
CNCCCCOc1ccccc1Cc1ccccc1

>  <CID>
2377

>  <logBB>


>  <BBB+/BBB->
BBB+

>  <Inchi>
InChI=1S/C18H23NO/c1-19-13-7-8-14-20-18-12-6-5-11-17(18)15-16-9-3-2-4-10-16/h2-6-9-12-19H-7-8-13-15H2-1H3

>  <threshold>
-1

>  <reference>
R1|R13|R19|R6|R24|R27|R27|R27|R27|R30|R30|

>  <group>
B

>  <Class>
1

>  <ABC>
14.81

>  <ABCGG>
11.9

>  <nAcid>
0

>  <nBase>
1

>  <nAromAtom>
12

>  <nAromBond>
12

>  <nAtom>
43

>  <nHeavyAtom>
20

>  <nSpiro>
0

>  <nBridgehead>
0

>  <nHetero>
2

>  <nN>
1

>  <nO>
1

>  <nF>
0

>  <BalabanJ>
1.67

>  <BertzCT>
495.78

>  <nBonds>
44

>  <nBondsO>
21

>  <nBondsS>
32

>  <nBondsD>
0

>  <nBondsT>
0

>  <nBondsA>
12

>  <nBondsM>
12

>  <nBondsKS>
38

>  <nBondsKD>
6

>  <RNCG>
0.34

>  <RPCG>
0.09

>  <FCSP3>
0.33

>  <SZ>
24.33

>  <Sm>
22.43

>  <Sv>
25.7

>  <Sse>
42.2

>  <Sp>
28.32

>  <Si>
48.28

>  <MZ>
0.57

>  <Mm>
0.52

>  <Mv>
0.6

>  <Mse>
0.98

>  <Mp>
0.66

>  <Mi>
1.12

>  <NsCH3>
1

>  <NdCH2>
0

>  <NssCH2>
5

>  <NtCH>
0

>  <NdsCH>
0

>  <NaaCH>
9

>  <NsssCH>
0

>  <NddC>
0

>  <NtsC>
0

>  <NdssC>
0

>  <NaasC>
3

>  <NaaaC>
0

>  <NssssC>
0

>  <NsNH3>
0

>  <NsNH2>
0

>  <NssNH2>
0

>  <NdNH>
0

>  <NssNH>
1

>  <NaaNH>
0

>  <NtN>
0

>  <NsssNH>
0

>  <NdsN>
0

>  <NaaN>
0

>  <NsssN>
0

>  <NddsN>
0

>  <NaasN>
0

>  <NssssN>
0

>  <NsOH>
0

>  <NdO>
0

>  <NssO>
1

>  <NaaO>
0

>  <NsF>
0

>  <NsSiH3>
0

>  <NssSiH2>
0

>  <NsssSiH>
0

>  <NssssSi>
0

>  <NsPH2>
0

>  <NssPH>
0

>  <NsssP>
0

>  <NdsssP>
0

>  <NsssssP>
0

>  <NsSH>
0

>  <NdS>
0

>  <NssS>
0

>  <NaaS>
0

>  <NdssS>
0

>  <NddssS>
0

>  <NsCl>
0

>  <NsBr>
0

>  <NsI>
0

>  <fragCpx>
61.02

>  <fMF>
0.3

>  <nHBAcc>
2

>  <nHBDon>
1

>  <Kier1>
16.37

>  <Kier2>
9.85

>  <Lipinski>
1

>  <GhoseFilter>
1

>  <FilterItLogS>
-5.76

>  <VMcGowan>
232.81

>  <LabuteASA>
121.34

>  <PEOE_VSA1>
10.05

>  <PEOE_VSA2>
0

>  <PEOE_VSA3>
0

>  <PEOE_VSA4>
0

>  <PEOE_VSA5>
0

>  <PEOE_VSA6>
48.53

>  <PEOE_VSA7>
43.63

>  <PEOE_VSA8>
6.42

>  <PEOE_VSA9>
6.61

>  <PEOE_VSA10>
5.75

>  <PEOE_VSA11>
0

>  <PEOE_VSA12>
0

>  <PEOE_VSA13>
0

>  <SMR_VSA1>
4.74

>  <SMR_VSA2>
0

>  <SMR_VSA3>
5.32

>  <SMR_VSA4>
0

>  <SMR_VSA5>
19.26

>  <SMR_VSA6>
20.2

>  <SMR_VSA7>
65.72

>  <SMR_VSA8>
0

>  <SMR_VSA9>
5.75

>  <SlogP_VSA1>
10.05

>  <SlogP_VSA2>
20.2

>  <SlogP_VSA3>
6.42

>  <SlogP_VSA4>
0

>  <SlogP_VSA5>
23.97

>  <SlogP_VSA6>
54.6

>  <SlogP_VSA7>
0

>  <SlogP_VSA8>
0

>  <SlogP_VSA9>
0

>  <SlogP_VSA10>
0

>  <SlogP_VSA11>
5.75

>  <EState_VSA1>
0

>  <EState_VSA2>
0

>  <EState_VSA3>
0

>  <EState_VSA4>
38.16

>  <EState_VSA5>
11.13

>  <EState_VSA6>
0

>  <EState_VSA7>
19.18

>  <EState_VSA8>
47.78

>  <EState_VSA9>
4.74

>  <EState_VSA10>
0

>  <VSA_EState1>
5.93

>  <VSA_EState2>
0

>  <VSA_EState3>
3.15

>  <VSA_EState4>
2.58

>  <VSA_EState5>
1.01

>  <VSA_EState6>
18.85

>  <VSA_EState7>
3.16

>  <VSA_EState8>
1.84

>  <VSA_EState9>
1.98

>  <apol>
47.3

>  <bpol>
25.38

>  <nRing>
2

>  <nHRing>
0

>  <naRing>
2

>  <naHRing>
0

>  <nARing 2>
0

>  <nAHRing 2>
0

>  <nFRing>
0

>  <nFHRing>
0

>  <nFaRing>
0

>  <nFaHRing>
0

>  <nFARing 2>
0

>  <nFAHRing 2>
0

>  <nRot>
8

>  <SLogP>
3.66

>  <SMR>
84.35

>  <TopoPSA(NO)>
21.26

>  <TopoPSA>
21.26

>  <JGI1>
0.1

>  <JGI2>
0.04

>  <JGI3>
0.02

>  <JGI4>
0.03

>  <JGI5>
0.01

>  <Diameter>
13

>  <Radius>
7

>  <TMWC10>
110.79

>  <TSRW10>
52.39

>  <MW>
269.18

>  <AMW>
6.26

>  <WPath>
950

>  <WPol>
24

>  <Zagreb1>
92

>  <Zagreb2>
101

>  <mZagreb2>
4.78

>  <yes>


>  <nAR-cont>
0.336376

>  <nHA-cont>
0.999629945

>  <MWHBN>
0.182852061

>  <MWHBN-cont>
0.990053139

>  <TPSA-cont>
0.851591998

>  <pka_cont>
0.97

>  <yes.1>


>  <BBB_SCORE>
5.009269649

>  <MMFF94 Energy>
46.343

$$$$
Compound 1471
Actelion Java MolfileCreator 2.0

  0  0  0  0  0  0              0 V3000
M  V30 BEGIN CTAB
M  V30 COUNTS 42 44 0 0 0
M  V30 BEGIN ATOM
M  V30 1 N 0.4742 0.5532 0.079 0
M  V30 2 C -0.2877 0.6296 -1.0871 0
M  V30 3 C 1.9224 0.6035 -0.1465 0
M  V30 4 C -0.0464 1.1039 1.3323 0
M  V30 5 C -0.3219 -0.484 -1.943 0
M  V30 6 C -0.996 1.7804 -1.458 0
M  V30 7 C 2.5677 -0.603 -0.8148 0
M  V30 8 C -1.3121 0.3687 1.7864 0
M  V30 9 C -1.0377 -0.429 -3.1492 0
M  V30 10 C 0.3755 -1.751 -1.5139 0
M  V30 11 C -1.7125 1.8298 -2.6566 0
M  V30 12 C 1.8844 -1.6529 -1.464 0
M  V30 13 C 3.9812 -0.6259 -0.8105 0
M  V30 14 C -1.8211 0.9383 3.1117 0
M  V30 15 C -1.73 0.7265 -3.5039 0
M  V30 16 C 2.6283 -2.6967 -2.053 0
M  V30 17 C 4.7001 -1.6611 -1.407 0
M  V30 18 N -3.0088 0.2055 3.5521 0
M  V30 19 C 4.0217 -2.6998 -2.0274 0
M  V30 20 C -3.552 0.7688 4.78 0
M  V30 21 H 2.4223 0.723 0.8238 0
M  V30 22 H 2.1688 1.4998 -0.7327 0
M  V30 23 H -0.2266 2.1815 1.2419 0
M  V30 24 H 0.7065 0.9868 2.122 0
M  V30 25 H -0.9776 2.6654 -0.83 0
M  V30 26 H -1.0925 -0.7013 1.8956 0
M  V30 27 H -2.0987 0.4545 1.0268 0
M  V30 28 H -1.0637 -1.2902 -3.8119 0
M  V30 29 H 0.0053 -2.0621 -0.5276 0
M  V30 30 H 0.0799 -2.5596 -2.1955 0
M  V30 31 H -2.2485 2.7345 -2.9304 0
M  V30 32 H 4.5351 0.1807 -0.3326 0
M  V30 33 H -2.0585 2.0013 2.9816 0
M  V30 34 H -1.0344 0.8568 3.8712 0
M  V30 35 H -2.2835 0.7644 -4.4381 0
M  V30 36 H 2.1163 -3.5235 -2.5419 0
M  V30 37 H 5.7863 -1.6537 -1.3858 0
M  V30 38 H -3.7199 0.2319 2.8211 0
M  V30 39 H 4.5727 -3.5128 -2.4918 0
M  V30 40 H -3.8672 1.808 4.6401 0
M  V30 41 H -2.8215 0.7224 5.5941 0
M  V30 42 H -4.4278 0.1903 5.0904 0
M  V30 END ATOM
M  V30 BEGIN BOND
M  V30 1 1 1 2
M  V30 2 1 1 3
M  V30 3 1 1 4
M  V30 4 2 2 5
M  V30 5 1 2 6
M  V30 6 1 3 7
M  V30 7 1 4 8
M  V30 8 1 5 9
M  V30 9 1 5 10
M  V30 10 2 6 11
M  V30 11 2 7 12
M  V30 12 1 7 13
M  V30 13 1 8 14
M  V30 14 2 9 15
M  V30 15 1 12 16
M  V30 16 2 13 17
M  V30 17 1 14 18
M  V30 18 2 16 19
M  V30 19 1 18 20
M  V30 20 1 10 12
M  V30 21 1 11 15
M  V30 22 1 17 19
M  V30 23 1 3 21
M  V30 24 1 3 22
M  V30 25 1 4 23
M  V30 26 1 4 24
M  V30 27 1 6 25
M  V30 28 1 8 26
M  V30 29 1 8 27
M  V30 30 1 9 28
M  V30 31 1 10 29
M  V30 32 1 10 30
M  V30 33 1 11 31
M  V30 34 1 13 32
M  V30 35 1 14 33
M  V30 36 1 14 34
M  V30 37 1 15 35
M  V30 38 1 16 36
M  V30 39 1 17 37
M  V30 40 1 18 38
M  V30 41 1 19 39
M  V30 42 1 20 40
M  V30 43 1 20 41
M  V30 44 1 20 42
M  V30 END BOND
M  V30 END CTAB
M  END
>  <Column 1>
1750

>  <level_0>
1911

>  <index>
1911

>  <Unnamed: 0>
1911

>  <NO.>
1923

>  <Name>
mezepine

>  <IUPAC_name>
3-(6-11-dihydrobenzo[c][1]benzazepin-5-yl)-n-methylpropan-1-amine

>  <SMILES>
CNCCCN1Cc2ccccc2Cc2ccccc21

>  <CID>
3047746

>  <logBB>


>  <BBB+/BBB->
BBB+

>  <Inchi>
InChI=1S/C18H22N2/c1-19-11-6-12-20-14-17-9-3-2-7-15(17)13-16-8-4-5-10-18(16)20/h2-5-7-10-19H-6-11-14H2-1H3

>  <threshold>
-1

>  <reference>
R1|R13|R19|R6|R24|R27|R27|R27|R30|R30|

>  <group>
B

>  <Class>
1

>  <ABC>
15.44

>  <ABCGG>
12.22

>  <nAcid>
0

>  <nBase>
1

>  <nAromAtom>
12

>  <nAromBond>
12

>  <nAtom>
42

>  <nHeavyAtom>
20

>  <nSpiro>
0

>  <nBridgehead>
0

>  <nHetero>
2

>  <nN>
2

>  <nO>
0

>  <nF>
0

>  <BalabanJ>
1.68

>  <BertzCT>
577.14

>  <nBonds>
44

>  <nBondsO>
22

>  <nBondsS>
32

>  <nBondsD>
0

>  <nBondsT>
0

>  <nBondsA>
12

>  <nBondsM>
12

>  <nBondsKS>
38

>  <nBondsKD>
6

>  <RNCG>
0.29

>  <RPCG>
0.1

>  <FCSP3>
0.33

>  <SZ>
24

>  <Sm>
22.18

>  <Sv>
25.48

>  <Sse>
41.09

>  <Sp>
28.1

>  <Si>
47.15

>  <MZ>
0.57

>  <Mm>
0.53

>  <Mv>
0.61

>  <Mse>
0.98

>  <Mp>
0.67

>  <Mi>
1.12

>  <NsCH3>
1

>  <NdCH2>
0

>  <NssCH2>
5

>  <NtCH>
0

>  <NdsCH>
0

>  <NaaCH>
8

>  <NsssCH>
0

>  <NddC>
0

>  <NtsC>
0

>  <NdssC>
0

>  <NaasC>
4

>  <NaaaC>
0

>  <NssssC>
0

>  <NsNH3>
0

>  <NsNH2>
0

>  <NssNH2>
0

>  <NdNH>
0

>  <NssNH>
1

>  <NaaNH>
0

>  <NtN>
0

>  <NsssNH>
0

>  <NdsN>
0

>  <NaaN>
0

>  <NsssN>
1

>  <NddsN>
0

>  <NaasN>
0

>  <NssssN>
0

>  <NsOH>
0

>  <NdO>
0

>  <NssO>
0

>  <NaaO>
0

>  <NsF>
0

>  <NsSiH3>
0

>  <NssSiH2>
0

>  <NsssSiH>
0

>  <NssssSi>
0

>  <NsPH2>
0

>  <NssPH>
0

>  <NsssP>
0

>  <NdsssP>
0

>  <NsssssP>
0

>  <NsSH>
0

>  <NdS>
0

>  <NssS>
0

>  <NaaS>
0

>  <NdssS>
0

>  <NddssS>
0

>  <NsCl>
0

>  <NsBr>
0

>  <NsI>
0

>  <fragCpx>
104.02

>  <fMF>
0.36

>  <nHBAcc>
2

>  <nHBDon>
1

>  <Kier1>
14.92

>  <Kier2>
7.32

>  <Lipinski>
1

>  <GhoseFilter>
1

>  <FilterItLogS>
-5.25

>  <VMcGowan>
226.06

>  <LabuteASA>
120.98

>  <PEOE_VSA1>
10.22

>  <PEOE_VSA2>
0

>  <PEOE_VSA3>
0

>  <PEOE_VSA4>
0

>  <PEOE_VSA5>
0

>  <PEOE_VSA6>
42.46

>  <PEOE_VSA7>
49.19

>  <PEOE_VSA8>
18.78

>  <PEOE_VSA9>
0

>  <PEOE_VSA10>
0

>  <PEOE_VSA11>
0

>  <PEOE_VSA12>
0

>  <PEOE_VSA13>
0

>  <SMR_VSA1>
0

>  <SMR_VSA2>
0

>  <SMR_VSA3>
5.32

>  <SMR_VSA4>
0

>  <SMR_VSA5>
19.39

>  <SMR_VSA6>
25.04

>  <SMR_VSA7>
65.22

>  <SMR_VSA8>
0

>  <SMR_VSA9>
0

>  <SlogP_VSA1>
10.22

>  <SlogP_VSA2>
20.14

>  <SlogP_VSA3>
12.97

>  <SlogP_VSA4>
0

>  <SlogP_VSA5>
23.11

>  <SlogP_VSA6>
48.53

>  <SlogP_VSA7>
0

>  <SlogP_VSA8>
0

>  <SlogP_VSA9>
0

>  <SlogP_VSA10>
5.69

>  <SlogP_VSA11>
0

>  <EState_VSA1>
0

>  <EState_VSA2>
0

>  <EState_VSA3>
0

>  <EState_VSA4>
26.06

>  <EState_VSA5>
28.8

>  <EState_VSA6>
0

>  <EState_VSA7>
7.05

>  <EState_VSA8>
58.75

>  <EState_VSA9>
0

>  <EState_VSA10>
0

>  <VSA_EState1>
0

>  <VSA_EState2>
2.53

>  <VSA_EState3>
3.24

>  <VSA_EState4>
5.78

>  <VSA_EState5>
0

>  <VSA_EState6>
17.68

>  <VSA_EState7>
2.22

>  <VSA_EState8>
3.2

>  <VSA_EState9>
2.02

>  <apol>
46.93

>  <bpol>
24.35

>  <nRing>
3

>  <nHRing>
1

>  <naRing>
2

>  <naHRing>
0

>  <nARing 2>
1

>  <nAHRing 2>
1

>  <nFRing>
1

>  <nFHRing>
1

>  <nFaRing>
0

>  <nFaHRing>
0

>  <nFARing 2>
1

>  <nFAHRing 2>
1

>  <nRot>
4

>  <SLogP>
3.21

>  <SMR>
85.28

>  <TopoPSA(NO)>
15.27

>  <TopoPSA>
15.27

>  <JGI1>
0.11

>  <JGI2>
0.06

>  <JGI3>
0.03

>  <JGI4>
0.04

>  <JGI5>
0.01

>  <Diameter>
10

>  <Radius>
5

>  <TMWC10>
114.91

>  <TSRW10>
61.49

>  <MW>
266.18

>  <AMW>
6.34

>  <WPath>
779

>  <WPol>
33

>  <Zagreb1>
102

>  <Zagreb2>
119

>  <mZagreb2>
4.58

>  <yes>


>  <nAR-cont>
0.816016

>  <nHA-cont>
0.999629945

>  <MWHBN>
0.183879597

>  <MWHBN-cont>
0.991000965

>  <TPSA-cont>
0.893405918

>  <pka_cont>
0.97

>  <yes.1>


>  <BBB_SCORE>
5.573959228

>  <MMFF94 Energy>
64.018

$$$$
Compound 1472
Actelion Java MolfileCreator 2.0

  0  0  0  0  0  0              0 V3000
M  V30 BEGIN CTAB
M  V30 COUNTS 45 47 0 0 0
M  V30 BEGIN ATOM
M  V30 1 N -0.3952 -0.3162 -0.3162 0
M  V30 2 C -0.5808 1.0669 -0.5532 0
M  V30 3 C -0.5665 -0.9232 0.9509 0
M  V30 4 C -0.0649 -1.1832 -1.4664 0
M  V30 5 C -1.1009 1.889 0.466 0
M  V30 6 C -0.2576 1.6845 -1.7822 0
M  V30 7 C -1.0861 -0.1715 2.0236 0
M  V30 8 C -0.2295 -2.271 1.2074 0
M  V30 9 C 1.4529 -1.3114 -1.6513 0
M  V30 10 C -1.3192 3.2661 0.2056 0
M  V30 11 C -1.4488 1.3132 1.8495 0
M  V30 12 C -0.4658 3.0465 -2.017 0
M  V30 13 C -1.2898 -0.7996 3.2789 0
M  V30 14 C -0.4236 -2.8703 2.4551 0
M  V30 15 C 1.7725 -2.2049 -2.8514 0
M  V30 16 C -1.006 3.8391 -1.022 0
M  V30 17 C -2.974 1.4687 2.0697 0
M  V30 18 C -0.6779 2.13 2.9226 0
M  V30 19 C -0.9631 -2.1341 3.493 0
M  V30 20 N 3.2048 -2.4342 -3.045 0
M  V30 21 C 3.896 -1.2726 -3.587 0
M  V30 22 H -0.5327 -0.8153 -2.3883 0
M  V30 23 H -0.5232 -2.1746 -1.3612 0
M  V30 24 H 0.1819 1.125 -2.6008 0
M  V30 25 H 0.21 -2.9022 0.4428 0
M  V30 26 H 1.911 -1.7294 -0.7471 0
M  V30 27 H 1.8953 -0.3188 -1.7879 0
M  V30 28 H -1.743 3.9133 0.9701 0
M  V30 29 H -0.2042 3.4785 -2.979 0
M  V30 30 H -1.7128 -0.2444 4.1131 0
M  V30 31 H -0.1515 -3.9112 2.6063 0
M  V30 32 H 1.3252 -1.7984 -3.7667 0
M  V30 33 H 1.3062 -3.1849 -2.694 0
M  V30 34 H -1.1791 4.8977 -1.1934 0
M  V30 35 H -3.2992 2.5128 1.9994 0
M  V30 36 H -3.54 0.8992 1.3217 0
M  V30 37 H -3.2891 1.1133 3.0572 0
M  V30 38 H -0.9173 3.1982 2.8909 0
M  V30 39 H 0.4064 2.0335 2.7845 0
M  V30 40 H -0.9073 1.806 3.9433 0
M  V30 41 H -1.1252 -2.5893 4.4658 0
M  V30 42 H 3.6369 -2.7015 -2.1604 0
M  V30 43 H 3.8931 -0.4295 -2.8899 0
M  V30 44 H 3.4549 -0.9547 -4.5373 0
M  V30 45 H 4.9405 -1.5343 -3.7836 0
M  V30 END ATOM
M  V30 BEGIN BOND
M  V30 1 1 1 2
M  V30 2 1 1 3
M  V30 3 1 1 4
M  V30 4 2 2 5
M  V30 5 1 2 6
M  V30 6 2 3 7
M  V30 7 1 3 8
M  V30 8 1 4 9
M  V30 9 1 5 10
M  V30 10 1 5 11
M  V30 11 2 6 12
M  V30 12 1 7 13
M  V30 13 2 8 14
M  V30 14 1 9 15
M  V30 15 2 10 16
M  V30 16 1 11 17
M  V30 17 1 11 18
M  V30 18 2 13 19
M  V30 19 1 15 20
M  V30 20 1 20 21
M  V30 21 1 7 11
M  V30 22 1 12 16
M  V30 23 1 14 19
M  V30 24 1 4 22
M  V30 25 1 4 23
M  V30 26 1 6 24
M  V30 27 1 8 25
M  V30 28 1 9 26
M  V30 29 1 9 27
M  V30 30 1 10 28
M  V30 31 1 12 29
M  V30 32 1 13 30
M  V30 33 1 14 31
M  V30 34 1 15 32
M  V30 35 1 15 33
M  V30 36 1 16 34
M  V30 37 1 17 35
M  V30 38 1 17 36
M  V30 39 1 17 37
M  V30 40 1 18 38
M  V30 41 1 18 39
M  V30 42 1 18 40
M  V30 43 1 19 41
M  V30 44 1 20 42
M  V30 45 1 21 43
M  V30 46 1 21 44
M  V30 47 1 21 45
M  V30 END BOND
M  V30 END CTAB
M  END
>  <Column 1>
1751

>  <level_0>
1912

>  <index>
1912

>  <Unnamed: 0>
1912

>  <NO.>
1924

>  <Name>
monometacrine

>  <IUPAC_name>
3-(9-9-dimethylacridin-10-yl)-n-methylpropan-1-amine

>  <SMILES>
CNCCCN1c2ccccc2C(C)(C)c2ccccc21

>  <CID>
145765

>  <logBB>


>  <BBB+/BBB->
BBB+

>  <Inchi>
InChI=1S/C19H24N2/c1-19(2)15-9-4-6-11-17(15)21(14-8-13-20-3)18-12-7-5-10-16(18)19/h4-7-9-12-20H-8-13-14H2-1-3H3

>  <threshold>
-1

>  <reference>
R1|R13|R19|R6|R24|R27|R27|R27|R30|R30|

>  <group>
B

>  <Class>
1

>  <ABC>
16.3

>  <ABCGG>
13.34

>  <nAcid>
0

>  <nBase>
1

>  <nAromAtom>
12

>  <nAromBond>
12

>  <nAtom>
45

>  <nHeavyAtom>
21

>  <nSpiro>
0

>  <nBridgehead>
0

>  <nHetero>
2

>  <nN>
2

>  <nO>
0

>  <nF>
0

>  <BalabanJ>
1.81

>  <BertzCT>
581.47

>  <nBonds>
47

>  <nBondsO>
23

>  <nBondsS>
35

>  <nBondsD>
0

>  <nBondsT>
0

>  <nBondsA>
12

>  <nBondsM>
12

>  <nBondsKS>
41

>  <nBondsKD>
6

>  <RNCG>
0.27

>  <RPCG>
0.1

>  <FCSP3>
0.37

>  <SZ>
25.33

>  <Sm>
23.35

>  <Sv>
27.02

>  <Sse>
43.98

>  <Sp>
29.9

>  <Si>
50.56

>  <MZ>
0.56

>  <Mm>
0.52

>  <Mv>
0.6

>  <Mse>
0.98

>  <Mp>
0.66

>  <Mi>
1.12

>  <NsCH3>
3

>  <NdCH2>
0

>  <NssCH2>
3

>  <NtCH>
0

>  <NdsCH>
0

>  <NaaCH>
8

>  <NsssCH>
0

>  <NddC>
0

>  <NtsC>
0

>  <NdssC>
0

>  <NaasC>
4

>  <NaaaC>
0

>  <NssssC>
1

>  <NsNH3>
0

>  <NsNH2>
0

>  <NssNH2>
0

>  <NdNH>
0

>  <NssNH>
1

>  <NaaNH>
0

>  <NtN>
0

>  <NsssNH>
0

>  <NdsN>
0

>  <NaaN>
0

>  <NsssN>
1

>  <NddsN>
0

>  <NaasN>
0

>  <NssssN>
0

>  <NsOH>
0

>  <NdO>
0

>  <NssO>
0

>  <NaaO>
0

>  <NsF>
0

>  <NsSiH3>
0

>  <NssSiH2>
0

>  <NsssSiH>
0

>  <NssssSi>
0

>  <NsPH2>
0

>  <NssPH>
0

>  <NsssP>
0

>  <NdsssP>
0

>  <NsssssP>
0

>  <NsSH>
0

>  <NdS>
0

>  <NssS>
0

>  <NaaS>
0

>  <NdssS>
0

>  <NddssS>
0

>  <NsCl>
0

>  <NsBr>
0

>  <NsI>
0

>  <fragCpx>
109.02

>  <fMF>
0.31

>  <nHBAcc>
2

>  <nHBDon>
1

>  <Kier1>
15.88

>  <Kier2>
6.63

>  <Lipinski>
1

>  <GhoseFilter>
1

>  <FilterItLogS>
-5.73

>  <VMcGowan>
240.15

>  <LabuteASA>
127.35

>  <PEOE_VSA1>
10.22

>  <PEOE_VSA2>
0

>  <PEOE_VSA3>
0

>  <PEOE_VSA4>
0

>  <PEOE_VSA5>
0

>  <PEOE_VSA6>
50.25

>  <PEOE_VSA7>
43.27

>  <PEOE_VSA8>
23.33

>  <PEOE_VSA9>
0

>  <PEOE_VSA10>
0

>  <PEOE_VSA11>
0

>  <PEOE_VSA12>
0

>  <PEOE_VSA13>
0

>  <SMR_VSA1>
0

>  <SMR_VSA2>
0

>  <SMR_VSA3>
5.32

>  <SMR_VSA4>
0

>  <SMR_VSA5>
25.68

>  <SMR_VSA6>
25.04

>  <SMR_VSA7>
59.66

>  <SMR_VSA8>
0

>  <SMR_VSA9>
0

>  <SlogP_VSA1>
10.22

>  <SlogP_VSA2>
20.14

>  <SlogP_VSA3>
5.41

>  <SlogP_VSA4>
0

>  <SlogP_VSA5>
31.4

>  <SlogP_VSA6>
48.53

>  <SlogP_VSA7>
0

>  <SlogP_VSA8>
0

>  <SlogP_VSA9>
0

>  <SlogP_VSA10>
11.37

>  <SlogP_VSA11>
0

>  <EState_VSA1>
0

>  <EState_VSA2>
5.41

>  <EState_VSA3>
0

>  <EState_VSA4>
19.51

>  <EState_VSA5>
22.5

>  <EState_VSA6>
0

>  <EState_VSA7>
7.05

>  <EState_VSA8>
72.6

>  <EState_VSA9>
0

>  <EState_VSA10>
0

>  <VSA_EState1>
0

>  <VSA_EState2>
2.48

>  <VSA_EState3>
3.24

>  <VSA_EState4>
5.63

>  <VSA_EState5>
0

>  <VSA_EState6>
17.66

>  <VSA_EState7>
1.14

>  <VSA_EState8>
6.75

>  <VSA_EState9>
2.02

>  <apol>
49.93

>  <bpol>
26.36

>  <nRing>
3

>  <nHRing>
1

>  <naRing>
2

>  <naHRing>
0

>  <nARing 2>
1

>  <nAHRing 2>
1

>  <nFRing>
1

>  <nFHRing>
1

>  <nFaRing>
0

>  <nFaHRing>
0

>  <nFARing 2>
1

>  <nFAHRing 2>
1

>  <nRot>
4

>  <SLogP>
4.07

>  <SMR>
90.56

>  <TopoPSA(NO)>
15.27

>  <TopoPSA>
15.27

>  <JGI1>
0.15

>  <JGI2>
0.09

>  <JGI3>
0.06

>  <JGI4>
0.05

>  <JGI5>
0.02

>  <Diameter>
9

>  <Radius>
5

>  <TMWC10>
119.57

>  <TSRW10>
55.53

>  <MW>
280.19

>  <AMW>
6.23

>  <WPath>
840

>  <WPol>
38

>  <Zagreb1>
112

>  <Zagreb2>
136

>  <mZagreb2>
4.69

>  <yes>


>  <nAR-cont>
0.816016

>  <nHA-cont>
0.994529749

>  <MWHBN>
0.179223494

>  <MWHBN-cont>
0.986310907

>  <TPSA-cont>
0.893405918

>  <pka_cont>
0.97

>  <yes.1>


>  <BBB_SCORE>
5.561823945

>  <MMFF94 Energy>
58.588

$$$$
Compound 1473
Actelion Java MolfileCreator 2.0

  0  0  0  0  0  0              0 V3000
M  V30 BEGIN CTAB
M  V30 COUNTS 40 41 0 0 0
M  V30 BEGIN ATOM
M  V30 1 O 0.0785 0.8645 0.4715 0
M  V30 2 C -0.2448 -0.5058 0.1776 0 CFG=2
M  V30 3 C 1.1473 0.9922 1.4167 0
M  V30 4 C 0.7665 -1.0647 -0.8213 0
M  V30 5 C -1.6838 -0.6047 -0.3298 0
M  V30 6 C 1.3575 2.4803 1.7241 0
M  V30 7 C 1.5559 -2.2052 -0.5479 0
M  V30 8 C 0.9268 -0.4119 -2.0607 0
M  V30 9 C -2.4238 0.5294 -0.7031 0
M  V30 10 C -2.2994 -1.8644 -0.4369 0
M  V30 11 N 0.1789 3.0311 2.4093 0
M  V30 12 C 2.4671 -2.6585 -1.5177 0
M  V30 13 C 1.464 -2.9507 0.7553 0
M  V30 14 C 1.8349 -0.8756 -3.0108 0
M  V30 15 C -3.7367 0.4086 -1.1641 0
M  V30 16 C -3.612 -1.984 -0.8987 0
M  V30 17 C 0.2779 4.4764 2.5434 0
M  V30 18 C 2.6041 -2.0 -2.7392 0
M  V30 19 C -4.3302 -0.8473 -1.2611 0
M  V30 20 H -0.2277 -1.0586 1.1239 0
M  V30 21 H 2.0684 0.5815 0.9899 0
M  V30 22 H 0.9064 0.4451 2.3359 0
M  V30 23 H 1.5226 3.0151 0.781 0
M  V30 24 H 2.2429 2.5986 2.3578 0
M  V30 25 H 0.3328 0.4725 -2.286 0
M  V30 26 H -1.9791 1.5202 -0.6391 0
M  V30 27 H -1.7543 -2.7655 -0.1664 0
M  V30 28 H -0.6433 2.7925 1.8492 0
M  V30 29 H 3.0828 -3.5351 -1.3263 0
M  V30 30 H 2.1445 -3.8086 0.778 0
M  V30 31 H 1.7379 -2.2949 1.5878 0
M  V30 32 H 0.4511 -3.3357 0.9061 0
M  V30 33 H 1.9384 -0.3581 -3.9604 0
M  V30 34 H -4.2942 1.2971 -1.4484 0
M  V30 35 H -4.0718 -2.9654 -0.9782 0
M  V30 36 H 0.3298 4.9691 1.5671 0
M  V30 37 H 1.1551 4.7593 3.1342 0
M  V30 38 H -0.6066 4.8558 3.0642 0
M  V30 39 H 3.3127 -2.3654 -3.4774 0
M  V30 40 H -5.3511 -0.9401 -1.6213 0
M  V30 END ATOM
M  V30 BEGIN BOND
M  V30 1 1 1 2
M  V30 2 1 1 3
M  V30 3 1 2 4
M  V30 4 1 2 5
M  V30 5 1 3 6
M  V30 6 2 4 7
M  V30 7 1 4 8
M  V30 8 2 5 9
M  V30 9 1 5 10
M  V30 10 1 6 11
M  V30 11 1 7 12
M  V30 12 1 7 13
M  V30 13 2 8 14
M  V30 14 1 9 15
M  V30 15 2 10 16
M  V30 16 1 11 17
M  V30 17 2 12 18
M  V30 18 2 15 19
M  V30 19 1 14 18
M  V30 20 1 16 19
M  V30 21 1 2 20
M  V30 22 1 3 21
M  V30 23 1 3 22
M  V30 24 1 6 23
M  V30 25 1 6 24
M  V30 26 1 8 25
M  V30 27 1 9 26
M  V30 28 1 10 27
M  V30 29 1 11 28
M  V30 30 1 12 29
M  V30 31 1 13 30
M  V30 32 1 13 31
M  V30 33 1 13 32
M  V30 34 1 14 33
M  V30 35 1 15 34
M  V30 36 1 16 35
M  V30 37 1 17 36
M  V30 38 1 17 37
M  V30 39 1 17 38
M  V30 40 1 18 39
M  V30 41 1 19 40
M  V30 END BOND
M  V30 BEGIN COLLECTION
M  V30 MDLV30/STERAC1 ATOMS=(1 2)
M  V30 END COLLECTION
M  V30 END CTAB
M  END
>  <Column 1>
1752

>  <level_0>
1913

>  <index>
1913

>  <Unnamed: 0>
1913

>  <NO.>
1925

>  <Name>
tofenacin

>  <IUPAC_name>
n-methyl-2-[(2-methylphenyl)-phenylmethoxy]ethanamine

>  <SMILES>
CNCCOC(c1ccccc1)c1ccccc1C

>  <CID>
25315

>  <logBB>


>  <BBB+/BBB->
BBB+

>  <Inchi>
InChI=1S/C17H21NO/c1-14-8-6-7-11-16(14)17(19-13-12-18-2)15-9-4-3-5-10-15/h3-11-17-18H-12-13H2-1-2H3

>  <threshold>
-1

>  <reference>
R1|R19|R6|R27|R27|R30|

>  <group>
B

>  <Class>
1

>  <ABC>
14.13

>  <ABCGG>
12.2

>  <nAcid>
0

>  <nBase>
1

>  <nAromAtom>
12

>  <nAromBond>
12

>  <nAtom>
40

>  <nHeavyAtom>
19

>  <nSpiro>
0

>  <nBridgehead>
0

>  <nHetero>
2

>  <nN>
1

>  <nO>
1

>  <nF>
0

>  <BalabanJ>
1.94

>  <BertzCT>
495.63

>  <nBonds>
41

>  <nBondsO>
20

>  <nBondsS>
29

>  <nBondsD>
0

>  <nBondsT>
0

>  <nBondsA>
12

>  <nBondsM>
12

>  <nBondsKS>
35

>  <nBondsKD>
6

>  <RNCG>
0.27

>  <RPCG>
0.09

>  <FCSP3>
0.29

>  <SZ>
23

>  <Sm>
21.26

>  <Sv>
24.16

>  <Sse>
39.32

>  <Sp>
26.52

>  <Si>
44.86

>  <MZ>
0.58

>  <Mm>
0.53

>  <Mv>
0.6

>  <Mse>
0.98

>  <Mp>
0.66

>  <Mi>
1.12

>  <NsCH3>
2

>  <NdCH2>
0

>  <NssCH2>
2

>  <NtCH>
0

>  <NdsCH>
0

>  <NaaCH>
9

>  <NsssCH>
1

>  <NddC>
0

>  <NtsC>
0

>  <NdssC>
0

>  <NaasC>
3

>  <NaaaC>
0

>  <NssssC>
0

>  <NsNH3>
0

>  <NsNH2>
0

>  <NssNH2>
0

>  <NdNH>
0

>  <NssNH>
1

>  <NaaNH>
0

>  <NtN>
0

>  <NsssNH>
0

>  <NdsN>
0

>  <NaaN>
0

>  <NsssN>
0

>  <NddsN>
0

>  <NaasN>
0

>  <NssssN>
0

>  <NsOH>
0

>  <NdO>
0

>  <NssO>
1

>  <NaaO>
0

>  <NsF>
0

>  <NsSiH3>
0

>  <NssSiH2>
0

>  <NsssSiH>
0

>  <NssssSi>
0

>  <NsPH2>
0

>  <NssPH>
0

>  <NsssP>
0

>  <NdsssP>
0

>  <NsssssP>
0

>  <NsSH>
0

>  <NdS>
0

>  <NssS>
0

>  <NaaS>
0

>  <NdssS>
0

>  <NddssS>
0

>  <NsCl>
0

>  <NsBr>
0

>  <NsI>
0

>  <fragCpx>
58.02

>  <fMF>
0.33

>  <nHBAcc>
2

>  <nHBDon>
1

>  <Kier1>
15.39

>  <Kier2>
8.32

>  <Lipinski>
1

>  <GhoseFilter>
1

>  <FilterItLogS>
-4.98

>  <VMcGowan>
218.72

>  <LabuteASA>
114.98

>  <PEOE_VSA1>
10.05

>  <PEOE_VSA2>
0

>  <PEOE_VSA3>
0

>  <PEOE_VSA4>
0

>  <PEOE_VSA5>
0

>  <PEOE_VSA6>
54.6

>  <PEOE_VSA7>
30.66

>  <PEOE_VSA8>
6.54

>  <PEOE_VSA9>
6.61

>  <PEOE_VSA10>
6.1

>  <PEOE_VSA11>
0

>  <PEOE_VSA12>
0

>  <PEOE_VSA13>
0

>  <SMR_VSA1>
4.74

>  <SMR_VSA2>
0

>  <SMR_VSA3>
5.32

>  <SMR_VSA4>
0

>  <SMR_VSA5>
13.03

>  <SMR_VSA6>
20.2

>  <SMR_VSA7>
71.29

>  <SMR_VSA8>
0

>  <SMR_VSA9>
0

>  <SlogP_VSA1>
5.32

>  <SlogP_VSA2>
20.2

>  <SlogP_VSA3>
4.74

>  <SlogP_VSA4>
6.92

>  <SlogP_VSA5>
22.79

>  <SlogP_VSA6>
54.6

>  <SlogP_VSA7>
0

>  <SlogP_VSA8>
0

>  <SlogP_VSA9>
0

>  <SlogP_VSA10>
0

>  <SlogP_VSA11>
0

>  <EState_VSA1>
0

>  <EState_VSA2>
6.1

>  <EState_VSA3>
6.61

>  <EState_VSA4>
6.54

>  <EState_VSA5>
16.69

>  <EState_VSA6>
0

>  <EState_VSA7>
13.11

>  <EState_VSA8>
60.77

>  <EState_VSA9>
4.74

>  <EState_VSA10>
0

>  <VSA_EState1>
6.07

>  <VSA_EState2>
0

>  <VSA_EState3>
3.12

>  <VSA_EState4>
3.71

>  <VSA_EState5>
0

>  <VSA_EState6>
18.8

>  <VSA_EState7>
0.01

>  <VSA_EState8>
3.69

>  <VSA_EState9>
1.94

>  <apol>
44.29

>  <bpol>
23.37

>  <nRing>
2

>  <nHRing>
0

>  <naRing>
2

>  <naHRing>
0

>  <nARing 2>
0

>  <nAHRing 2>
0

>  <nFRing>
0

>  <nFHRing>
0

>  <nFaRing>
0

>  <nFaHRing>
0

>  <nFARing 2>
0

>  <nFAHRing 2>
0

>  <nRot>
6

>  <SLogP>
3.32

>  <SMR>
79.34

>  <TopoPSA(NO)>
21.26

>  <TopoPSA>
21.26

>  <JGI1>
0.1

>  <JGI2>
0.07

>  <JGI3>
0.05

>  <JGI4>
0.03

>  <JGI5>
0.01

>  <Diameter>
9

>  <Radius>
5

>  <TMWC10>
109.82

>  <TSRW10>
51.62

>  <MW>
255.16

>  <AMW>
6.38

>  <WPath>
710

>  <WPol>
26

>  <Zagreb1>
90

>  <Zagreb2>
102

>  <mZagreb2>
4.5

>  <yes>


>  <nAR-cont>
0.336376

>  <nHA-cont>
0.998649058

>  <MWHBN>
0.187808376

>  <MWHBN-cont>
0.994175733

>  <TPSA-cont>
0.851591998

>  <pka_cont>
0.97

>  <yes.1>


>  <BBB_SCORE>
5.014472653

>  <MMFF94 Energy>
77.33

$$$$
Compound 1474
Actelion Java MolfileCreator 2.0

  0  0  0  0  0  0              0 V3000
M  V30 BEGIN CTAB
M  V30 COUNTS 39 41 0 0 0
M  V30 BEGIN ATOM
M  V30 1 O -1.5127 0.6367 0.0 0
M  V30 2 N -0.4807 1.0362 0.8605 0
M  V30 3 C -2.7225 1.2809 0.4042 0
M  V30 4 C 0.634 0.4032 0.6202 0
M  V30 5 C -3.8163 0.9668 -0.622 0
M  V30 6 C 1.8284 0.7783 1.4171 0
M  V30 7 C 0.7938 -0.7227 -0.3386 0
M  V30 8 N -4.1487 -0.4673 -0.6342 0
M  V30 9 C 3.0505 1.1058 0.8131 0
M  V30 10 C 1.6854 0.8175 2.8128 0
M  V30 11 C 1.7741 -0.7087 -1.3396 0
M  V30 12 C -0.051 -1.8349 -0.1857 0
M  V30 13 C -5.0884 -0.7765 -1.7017 0
M  V30 14 C 3.2473 1.1949 -0.6397 0
M  V30 15 C 4.1264 1.4648 1.6418 0
M  V30 16 C 2.7677 1.1644 3.6187 0
M  V30 17 C 2.6881 0.4146 -1.5753 0
M  V30 18 C 1.8564 -1.8096 -2.2087 0
M  V30 19 C 0.0542 -2.9242 -1.0477 0
M  V30 20 C 3.9891 1.4848 3.0331 0
M  V30 21 C 1.0062 -2.9094 -2.0622 0
M  V30 22 H -2.5607 2.3645 0.4417 0
M  V30 23 H -3.0087 0.9292 1.4023 0
M  V30 24 H -3.4627 1.2685 -1.6154 0
M  V30 25 H -4.7122 1.5482 -0.3777 0
M  V30 26 H -3.2817 -0.989 -0.7807 0
M  V30 27 H 0.7276 0.5777 3.2692 0
M  V30 28 H -0.7955 -1.8464 0.6075 0
M  V30 29 H -4.671 -0.5419 -2.6862 0
M  V30 30 H -6.0283 -0.2304 -1.5716 0
M  V30 31 H -5.3229 -1.8452 -1.6824 0
M  V30 32 H 3.9317 1.9751 -0.9681 0
M  V30 33 H 5.0873 1.736 1.2093 0
M  V30 34 H 2.6549 1.1907 4.6994 0
M  V30 35 H 2.9469 0.5962 -2.6167 0
M  V30 36 H 2.5958 -1.8257 -3.007 0
M  V30 37 H -0.6055 -3.7793 -0.9275 0
M  V30 38 H 4.8348 1.7621 3.6575 0
M  V30 39 H 1.0913 -3.7548 -2.7404 0
M  V30 END ATOM
M  V30 BEGIN BOND
M  V30 1 1 1 2
M  V30 2 1 1 3
M  V30 3 2 2 4
M  V30 4 1 3 5
M  V30 5 1 4 6
M  V30 6 1 4 7
M  V30 7 1 5 8
M  V30 8 2 6 9
M  V30 9 1 6 10
M  V30 10 2 7 11
M  V30 11 1 7 12
M  V30 12 1 8 13
M  V30 13 1 9 14
M  V30 14 1 9 15
M  V30 15 2 10 16
M  V30 16 1 11 17
M  V30 17 1 11 18
M  V30 18 2 12 19
M  V30 19 2 15 20
M  V30 20 2 18 21
M  V30 21 2 14 17
M  V30 22 1 16 20
M  V30 23 1 19 21
M  V30 24 1 3 22
M  V30 25 1 3 23
M  V30 26 1 5 24
M  V30 27 1 5 25
M  V30 28 1 8 26
M  V30 29 1 10 27
M  V30 30 1 12 28
M  V30 31 1 13 29
M  V30 32 1 13 30
M  V30 33 1 13 31
M  V30 34 1 14 32
M  V30 35 1 15 33
M  V30 36 1 16 34
M  V30 37 1 17 35
M  V30 38 1 18 36
M  V30 39 1 19 37
M  V30 40 1 20 38
M  V30 41 1 21 39
M  V30 END BOND
M  V30 END CTAB
M  END
>  <Column 1>
1753

>  <level_0>
1914

>  <index>
1914

>  <Unnamed: 0>
1914

>  <NO.>
1926

>  <Name>
demexiptiline

>  <IUPAC_name>
n-methyl-2-(2-tricyclo[9.4.0.03-8]pentadeca-1(15)-3-5-7-9-11-13-heptaenylideneamino)oxyethanamine

>  <SMILES>
CNCCON=c1c2ccccc2ccc2ccccc12

>  <CID>
28876

>  <logBB>


>  <BBB+/BBB->
BBB+

>  <Inchi>
InChI=1S/C18H18N2O/c1-19-12-13-21-20-18-16-8-4-2-6-14(16)10-11-15-7-3-5-9-17(15)18/h2-11-19H-12-13H2-1H3

>  <threshold>
-1

>  <reference>
R1|R13|R19|R6|R24|R27|R27|R27|R30|R30|

>  <group>
B

>  <Class>
1

>  <ABC>
16.1

>  <ABCGG>
12.86

>  <nAcid>
0

>  <nBase>
1

>  <nAromAtom>
15

>  <nAromBond>
17

>  <nAtom>
39

>  <nHeavyAtom>
21

>  <nSpiro>
0

>  <nBridgehead>
0

>  <nHetero>
3

>  <nN>
2

>  <nO>
1

>  <nF>
0

>  <BalabanJ>
1.68

>  <BertzCT>
765.81

>  <nBonds>
41

>  <nBondsO>
23

>  <nBondsS>
23

>  <nBondsD>
1

>  <nBondsT>
0

>  <nBondsA>
17

>  <nBondsM>
18

>  <nBondsKS>
33

>  <nBondsKD>
8

>  <RNCG>
0.28

>  <RPCG>
0.09

>  <FCSP3>
0.17

>  <SZ>
24.67

>  <Sm>
23.18

>  <Sv>
25.11

>  <Sse>
38.65

>  <Sp>
26.98

>  <Si>
43.53

>  <MZ>
0.63

>  <Mm>
0.59

>  <Mv>
0.64

>  <Mse>
0.99

>  <Mp>
0.69

>  <Mi>
1.12

>  <NsCH3>
1

>  <NdCH2>
0

>  <NssCH2>
2

>  <NtCH>
0

>  <NdsCH>
0

>  <NaaCH>
10

>  <NsssCH>
0

>  <NddC>
0

>  <NtsC>
0

>  <NdssC>
0

>  <NaasC>
0

>  <NaaaC>
4

>  <NssssC>
0

>  <NsNH3>
0

>  <NsNH2>
0

>  <NssNH2>
0

>  <NdNH>
0

>  <NssNH>
1

>  <NaaNH>
0

>  <NtN>
0

>  <NsssNH>
0

>  <NdsN>
1

>  <NaaN>
0

>  <NsssN>
0

>  <NddsN>
0

>  <NaasN>
0

>  <NssssN>
0

>  <NsOH>
0

>  <NdO>
0

>  <NssO>
1

>  <NaaO>
0

>  <NsF>
0

>  <NsSiH3>
0

>  <NssSiH2>
0

>  <NsssSiH>
0

>  <NssssSi>
0

>  <NsPH2>
0

>  <NssPH>
0

>  <NsssP>
0

>  <NdsssP>
0

>  <NsssssP>
0

>  <NsSH>
0

>  <NdS>
0

>  <NssS>
0

>  <NaaS>
0

>  <NdssS>
0

>  <NddssS>
0

>  <NsCl>
0

>  <NsBr>
0

>  <NsI>
0

>  <fragCpx>
109.03

>  <fMF>
0.38

>  <nHBAcc>
3

>  <nHBDon>
1

>  <Kier1>
15.88

>  <Kier2>
8.02

>  <Lipinski>
1

>  <GhoseFilter>
1

>  <FilterItLogS>
-5.69

>  <VMcGowan>
223.33

>  <LabuteASA>
123.41

>  <PEOE_VSA1>
10.15

>  <PEOE_VSA2>
0

>  <PEOE_VSA3>
0

>  <PEOE_VSA4>
0

>  <PEOE_VSA5>
0

>  <PEOE_VSA6>
65.82

>  <PEOE_VSA7>
17.82

>  <PEOE_VSA8>
17.32

>  <PEOE_VSA9>
0

>  <PEOE_VSA10>
11.96

>  <PEOE_VSA11>
0

>  <PEOE_VSA12>
0

>  <PEOE_VSA13>
0

>  <SMR_VSA1>
4.84

>  <SMR_VSA2>
0

>  <SMR_VSA3>
5.32

>  <SMR_VSA4>
5.16

>  <SMR_VSA5>
0

>  <SMR_VSA6>
20.2

>  <SMR_VSA7>
66.02

>  <SMR_VSA8>
0

>  <SMR_VSA9>
0

>  <SlogP_VSA1>
10.67

>  <SlogP_VSA2>
20.2

>  <SlogP_VSA3>
4.84

>  <SlogP_VSA4>
0

>  <SlogP_VSA5>
0

>  <SlogP_VSA6>
65.82

>  <SlogP_VSA7>
0

>  <SlogP_VSA8>
21.54

>  <SlogP_VSA9>
0

>  <SlogP_VSA10>
0

>  <SlogP_VSA11>
0

>  <EState_VSA1>
0

>  <EState_VSA2>
0

>  <EState_VSA3>
6.61

>  <EState_VSA4>
33.45

>  <EState_VSA5>
0

>  <EState_VSA6>
0

>  <EState_VSA7>
31.31

>  <EState_VSA8>
46.87

>  <EState_VSA9>
4.84

>  <EState_VSA10>
0

>  <VSA_EState1>
0

>  <VSA_EState2>
5.48

>  <VSA_EState3>
12.86

>  <VSA_EState4>
0

>  <VSA_EState5>
0

>  <VSA_EState6>
20.77

>  <VSA_EState7>
0

>  <VSA_EState8>
1.33

>  <VSA_EState9>
1.9

>  <apol>
45.06

>  <bpol>
20.36

>  <nRing>
3

>  <nHRing>
0

>  <naRing>
3

>  <naHRing>
0

>  <nARing 2>
0

>  <nAHRing 2>
0

>  <nFRing>
1

>  <nFHRing>
0

>  <nFaRing>
1

>  <nFaHRing>
0

>  <nFARing 2>
0

>  <nFAHRing 2>
0

>  <nRot>
4

>  <SLogP>
3.04

>  <SMR>
86.9

>  <TopoPSA(NO)>
33.62

>  <TopoPSA>
33.62

>  <JGI1>
0.09

>  <JGI2>
0.07

>  <JGI3>
0.04

>  <JGI4>
0.03

>  <JGI5>
0.01

>  <Diameter>
10

>  <Radius>
5

>  <TMWC10>
117.38

>  <TSRW10>
62.7

>  <MW>
278.14

>  <AMW>
7.13

>  <WPath>
900

>  <WPol>
35

>  <Zagreb1>
106

>  <Zagreb2>
124

>  <mZagreb2>
4.86

>  <yes>


>  <nAR-cont>
0.336376

>  <nHA-cont>
0.994529749

>  <MWHBN>
0.239843673

>  <MWHBN-cont>
0.975180009

>  <TPSA-cont>
0.765311523

>  <pka_cont>
0.97

>  <yes.1>


>  <BBB_SCORE>
4.809298809

>  <MMFF94 Energy>
115.4

$$$$
Compound 1475
Actelion Java MolfileCreator 2.0

  0  0  0  0  0  0              0 V3000
M  V30 BEGIN CTAB
M  V30 COUNTS 37 39 0 0 0
M  V30 BEGIN ATOM
M  V30 1 S -2.3528 0.0 1.2976 0
M  V30 2 C -0.6457 0.3392 1.1567 0
M  V30 3 C -2.3911 -1.7416 0.7467 0
M  V30 4 C -0.1275 0.763 -0.1673 0
M  V30 5 C 0.1194 0.2312 2.2584 0
M  V30 6 C -2.3746 -1.9388 -0.7783 0
M  V30 7 C 1.1294 0.3387 -0.6329 0
M  V30 8 C -0.8819 1.5924 -1.0183 0
M  V30 9 C 1.5697 0.4518 2.3172 0
M  V30 10 N -3.516 -1.3106 -1.454 0
M  V30 11 O 1.9566 -0.4817 0.1042 0
M  V30 12 C 1.5917 0.6838 -1.909 0
M  V30 13 C -0.4141 1.9557 -2.286 0
M  V30 14 C 2.4259 0.089 1.2663 0
M  V30 15 C 2.1316 0.97 3.4905 0
M  V30 16 C -3.4708 -1.5414 -2.8897 0
M  V30 17 C 0.8201 1.4968 -2.7337 0
M  V30 18 C 3.813 0.2284 1.384 0
M  V30 19 C 3.5117 1.1257 3.5918 0
M  V30 20 C 4.3573 0.7589 2.5514 0
M  V30 21 F 4.0353 1.6275 4.718 0
M  V30 22 H -3.306 -2.1852 1.1561 0
M  V30 23 H -1.552 -2.2827 1.198 0
M  V30 24 H -0.338 -0.0443 3.2069 0
M  V30 25 H -2.3926 -3.0187 -0.9725 0
M  V30 26 H -1.4345 -1.5599 -1.1926 0
M  V30 27 H -1.8566 1.9644 -0.7071 0
M  V30 28 H -4.389 -1.6695 -1.0703 0
M  V30 29 H 2.5569 0.3225 -2.2525 0
M  V30 30 H -1.0243 2.5917 -2.9227 0
M  V30 31 H 1.5102 1.2589 4.3331 0
M  V30 32 H -3.5222 -2.6089 -3.1268 0
M  V30 33 H -2.5616 -1.1194 -3.33 0
M  V30 34 H -4.3248 -1.0493 -3.3653 0
M  V30 35 H 1.1796 1.7724 -3.7214 0
M  V30 36 H 4.4619 -0.0738 0.567 0
M  V30 37 H 5.4299 0.8825 2.6596 0
M  V30 END ATOM
M  V30 BEGIN BOND
M  V30 1 1 1 2
M  V30 2 1 1 3
M  V30 3 1 2 4
M  V30 4 2 2 5
M  V30 5 1 3 6
M  V30 6 2 4 7
M  V30 7 1 4 8
M  V30 8 1 5 9
M  V30 9 1 6 10
M  V30 10 1 7 11
M  V30 11 1 7 12
M  V30 12 2 8 13
M  V30 13 2 9 14
M  V30 14 1 9 15
M  V30 15 1 10 16
M  V30 16 2 12 17
M  V30 17 1 14 18
M  V30 18 2 15 19
M  V30 19 2 18 20
M  V30 20 1 19 21
M  V30 21 1 11 14
M  V30 22 1 13 17
M  V30 23 1 19 20
M  V30 24 1 3 22
M  V30 25 1 3 23
M  V30 26 1 5 24
M  V30 27 1 6 25
M  V30 28 1 6 26
M  V30 29 1 8 27
M  V30 30 1 10 28
M  V30 31 1 12 29
M  V30 32 1 13 30
M  V30 33 1 15 31
M  V30 34 1 16 32
M  V30 35 1 16 33
M  V30 36 1 16 34
M  V30 37 1 17 35
M  V30 38 1 18 36
M  V30 39 1 20 37
M  V30 END BOND
M  V30 END CTAB
M  END
>  <Column 1>
1754

>  <level_0>
1915

>  <index>
1915

>  <Unnamed: 0>
1915

>  <NO.>
1927

>  <Name>
fluradoline

>  <IUPAC_name>
2-(3-fluorobenzo[b][1]benzoxepin-6-yl)sulfanyl-n-methylethanamine

>  <SMILES>
CNCCSC1=Cc2cc(F)ccc2Oc2ccccc21

>  <CID>
53701

>  <logBB>


>  <BBB+/BBB->
BBB+

>  <Inchi>
InChI=1S/C17H16FNOS/c1-19-8-9-21-17-11-12-10-13(18)6-7-15(12)20-16-5-3-2-4-14(16)17/h2-7-10-11-19H-8-9H2-1H3

>  <threshold>
-1

>  <reference>
R1|R13|R27|R30|

>  <group>
B

>  <Class>
-1

>  <ABC>
16.25

>  <ABCGG>
12.84

>  <nAcid>
0

>  <nBase>
1

>  <nAromAtom>
12

>  <nAromBond>
12

>  <nAtom>
37

>  <nHeavyAtom>
21

>  <nSpiro>
0

>  <nBridgehead>
0

>  <nHetero>
4

>  <nN>
1

>  <nO>
1

>  <nF>
1

>  <BalabanJ>
1.69

>  <BertzCT>
684.24

>  <nBonds>
39

>  <nBondsO>
23

>  <nBondsS>
26

>  <nBondsD>
1

>  <nBondsT>
0

>  <nBondsA>
12

>  <nBondsM>
13

>  <nBondsKS>
32

>  <nBondsKD>
7

>  <RNCG>
0.33

>  <RPCG>
0.1

>  <FCSP3>
0.18

>  <SZ>
26.33

>  <Sm>
25.09

>  <Sv>
24.64

>  <Sse>
37.13

>  <Sp>
26.6

>  <Si>
41.29

>  <MZ>
0.71

>  <Mm>
0.68

>  <Mv>
0.67

>  <Mse>
1

>  <Mp>
0.72

>  <Mi>
1.12

>  <NsCH3>
1

>  <NdCH2>
0

>  <NssCH2>
2

>  <NtCH>
0

>  <NdsCH>
1

>  <NaaCH>
7

>  <NsssCH>
0

>  <NddC>
0

>  <NtsC>
0

>  <NdssC>
1

>  <NaasC>
5

>  <NaaaC>
0

>  <NssssC>
0

>  <NsNH3>
0

>  <NsNH2>
0

>  <NssNH2>
0

>  <NdNH>
0

>  <NssNH>
1

>  <NaaNH>
0

>  <NtN>
0

>  <NsssNH>
0

>  <NdsN>
0

>  <NaaN>
0

>  <NsssN>
0

>  <NddsN>
0

>  <NaasN>
0

>  <NssssN>
0

>  <NsOH>
0

>  <NdO>
0

>  <NssO>
1

>  <NaaO>
0

>  <NsF>
1

>  <NsSiH3>
0

>  <NssSiH2>
0

>  <NsssSiH>
0

>  <NssssSi>
0

>  <NsPH2>
0

>  <NssPH>
0

>  <NsssP>
0

>  <NdsssP>
0

>  <NsssssP>
0

>  <NsSH>
0

>  <NdS>
0

>  <NssS>
1

>  <NaaS>
0

>  <NdssS>
0

>  <NddssS>
0

>  <NsCl>
0

>  <NsBr>
0

>  <NsI>
0

>  <fragCpx>
109.04

>  <fMF>
0.41

>  <nHBAcc>
3

>  <nHBDon>
1

>  <Kier1>
15.88

>  <Kier2>
7.51

>  <Lipinski>
1

>  <GhoseFilter>
1

>  <FilterItLogS>
-5.52

>  <VMcGowan>
221.67

>  <LabuteASA>
127.57

>  <PEOE_VSA1>
10.05

>  <PEOE_VSA2>
0

>  <PEOE_VSA3>
4.39

>  <PEOE_VSA4>
0

>  <PEOE_VSA5>
11.76

>  <PEOE_VSA6>
18.2

>  <PEOE_VSA7>
37.39

>  <PEOE_VSA8>
28.33

>  <PEOE_VSA9>
0

>  <PEOE_VSA10>
17.32

>  <PEOE_VSA11>
0

>  <PEOE_VSA12>
0

>  <PEOE_VSA13>
0

>  <SMR_VSA1>
9.13

>  <SMR_VSA2>
0

>  <SMR_VSA3>
5.32

>  <SMR_VSA4>
0

>  <SMR_VSA5>
0

>  <SMR_VSA6>
19.35

>  <SMR_VSA7>
59.41

>  <SMR_VSA8>
0

>  <SMR_VSA9>
11.5

>  <SlogP_VSA1>
10.05

>  <SlogP_VSA2>
19.35

>  <SlogP_VSA3>
0

>  <SlogP_VSA4>
5.82

>  <SlogP_VSA5>
11.13

>  <SlogP_VSA6>
42.46

>  <SlogP_VSA7>
0

>  <SlogP_VSA8>
10.98

>  <SlogP_VSA9>
0

>  <SlogP_VSA10>
4.39

>  <SlogP_VSA11>
11.5

>  <EState_VSA1>
0

>  <EState_VSA2>
5.82

>  <EState_VSA3>
5.75

>  <EState_VSA4>
34.08

>  <EState_VSA5>
12.13

>  <EState_VSA6>
17.83

>  <EState_VSA7>
37.39

>  <EState_VSA8>
5.32

>  <EState_VSA9>
4.74

>  <EState_VSA10>
4.39

>  <VSA_EState1>
19.43

>  <VSA_EState2>
1.1

>  <VSA_EState3>
3.14

>  <VSA_EState4>
1.83

>  <VSA_EState5>
2.19

>  <VSA_EState6>
12.54

>  <VSA_EState7>
2

>  <VSA_EState8>
0.92

>  <VSA_EState9>
1.93

>  <apol>
44.42

>  <bpol>
21.93

>  <nRing>
3

>  <nHRing>
1

>  <naRing>
2

>  <naHRing>
0

>  <nARing 2>
1

>  <nAHRing 2>
1

>  <nFRing>
1

>  <nFHRing>
1

>  <nFaRing>
0

>  <nFaHRing>
0

>  <nFARing 2>
1

>  <nFAHRing 2>
1

>  <nRot>
4

>  <SLogP>
4.38

>  <SMR>
87.17

>  <TopoPSA(NO)>
21.26

>  <TopoPSA>
46.56

>  <JGI1>
0.15

>  <JGI2>
0.06

>  <JGI3>
0.03

>  <JGI4>
0.04

>  <JGI5>
0.02

>  <Diameter>
10

>  <Radius>
5

>  <TMWC10>
117.55

>  <TSRW10>
62.81

>  <MW>
301.09

>  <AMW>
8.14

>  <WPath>
890

>  <WPol>
35

>  <Zagreb1>
108

>  <Zagreb2>
126

>  <mZagreb2>
4.75

>  <yes>


>  <nAR-cont>
0.816016

>  <nHA-cont>
0.994529749

>  <MWHBN>
0.230521706

>  <MWHBN-cont>
0.986242548

>  <TPSA-cont>
0.674982288

>  <pka_cont>
0.97

>  <yes.1>


>  <BBB_SCORE>
5.124874147

>  <MMFF94 Energy>
79.711

$$$$
Compound 1476
Actelion Java MolfileCreator 2.0

  0  0  0  0  0  0              0 V3000
M  V30 BEGIN CTAB
M  V30 COUNTS 40 41 0 0 0
M  V30 BEGIN ATOM
M  V30 1 O -0.7063 -0.3138 0.2354 0
M  V30 2 C -0.4822 0.4604 1.3448 0
M  V30 3 C 0.3898 -0.4815 -0.6809 0 CFG=1
M  V30 4 C -1.5857 1.1725 1.8459 0
M  V30 5 C 0.7456 0.527 2.0103 0
M  V30 6 C 1.1203 -1.7968 -0.441 0
M  V30 7 C -0.1779 -0.4655 -2.1115 0
M  V30 8 C -1.4197 1.9904 2.9745 0
M  V30 9 C -2.9249 1.1145 1.166 0
M  V30 10 C 0.8941 1.3341 3.1399 0
M  V30 11 C 2.4757 -1.9126 -0.7905 0
M  V30 12 C 0.467 -2.9147 0.0996 0
M  V30 13 C -1.0199 0.7702 -2.4476 0
M  V30 14 C -0.1852 2.0711 3.6173 0
M  V30 15 C 3.1616 -3.1119 -0.5916 0
M  V30 16 C 1.1551 -4.1129 0.2987 0
M  V30 17 N -0.2615 2.016 -2.307 0
M  V30 18 C 2.5015 -4.2108 -0.0458 0
M  V30 19 C -1.0415 3.1513 -2.7884 0
M  V30 20 H 1.1017 0.3493 -0.5857 0
M  V30 21 H 1.5998 -0.0571 1.6833 0
M  V30 22 H -0.8219 -1.3434 -2.2582 0
M  V30 23 H 0.6408 -0.5563 -2.8376 0
M  V30 24 H -2.2569 2.566 3.3634 0
M  V30 25 H -2.9126 1.7313 0.2623 0
M  V30 26 H -3.7197 1.4847 1.8226 0
M  V30 27 H -3.1844 0.0846 0.9001 0
M  V30 28 H 1.8525 1.3796 3.6507 0
M  V30 29 H 3.0051 -1.066 -1.2233 0
M  V30 30 H -0.5845 -2.8562 0.3738 0
M  V30 31 H -1.9155 0.7972 -1.8167 0
M  V30 32 H -1.3615 0.6636 -3.4849 0
M  V30 33 H -0.0694 2.7005 4.4959 0
M  V30 34 H 4.2108 -3.1893 -0.8646 0
M  V30 35 H 0.6382 -4.9696 0.7231 0
M  V30 36 H -0.0599 2.1712 -1.3172 0
M  V30 37 H 3.0354 -5.1445 0.1092 0
M  V30 38 H -1.9759 3.2624 -2.2282 0
M  V30 39 H -1.2708 3.051 -3.8541 0
M  V30 40 H -0.4613 4.0706 -2.6617 0
M  V30 END ATOM
M  V30 BEGIN BOND
M  V30 1 1 1 2
M  V30 2 1 1 3
M  V30 3 2 2 4
M  V30 4 1 2 5
M  V30 5 1 3 6
M  V30 6 1 3 7
M  V30 7 1 4 8
M  V30 8 1 4 9
M  V30 9 2 5 10
M  V30 10 2 6 11
M  V30 11 1 6 12
M  V30 12 1 7 13
M  V30 13 2 8 14
M  V30 14 1 11 15
M  V30 15 2 12 16
M  V30 16 1 13 17
M  V30 17 2 15 18
M  V30 18 1 17 19
M  V30 19 1 10 14
M  V30 20 1 16 18
M  V30 21 1 3 20
M  V30 22 1 5 21
M  V30 23 1 7 22
M  V30 24 1 7 23
M  V30 25 1 8 24
M  V30 26 1 9 25
M  V30 27 1 9 26
M  V30 28 1 9 27
M  V30 29 1 10 28
M  V30 30 1 11 29
M  V30 31 1 12 30
M  V30 32 1 13 31
M  V30 33 1 13 32
M  V30 34 1 14 33
M  V30 35 1 15 34
M  V30 36 1 16 35
M  V30 37 1 17 36
M  V30 38 1 18 37
M  V30 39 1 19 38
M  V30 40 1 19 39
M  V30 41 1 19 40
M  V30 END BOND
M  V30 BEGIN COLLECTION
M  V30 MDLV30/STEABS ATOMS=(1 3)
M  V30 END COLLECTION
M  V30 END CTAB
M  END
>  <Column 1>
1756

>  <level_0>
1917

>  <index>
1917

>  <Unnamed: 0>
1917

>  <NO.>
1929

>  <Name>
tomoxetine

>  <IUPAC_name>
(3r)-n-methyl-3-(2-methylphenoxy)-3-phenylpropan-1-amine

>  <SMILES>
CNCC[C@@H](Oc1ccccc1C)c1ccccc1

>  <CID>
54841

>  <logBB>


>  <BBB+/BBB->
BBB+

>  <Inchi>
InChI=1S/C17H21NO/c1-14-8-6-7-11-16(14)19-17(12-13-18-2)15-9-4-3-5-10-15/h3-11-17-18H-12-13H2-1-2H3/t17-/m1/s1

>  <threshold>
-1

>  <reference>
R1|R27|R27|R30|R30|R34|

>  <group>
B

>  <Class>
1

>  <ABC>
14.17

>  <ABCGG>
12.15

>  <nAcid>
0

>  <nBase>
1

>  <nAromAtom>
12

>  <nAromBond>
12

>  <nAtom>
40

>  <nHeavyAtom>
19

>  <nSpiro>
0

>  <nBridgehead>
0

>  <nHetero>
2

>  <nN>
1

>  <nO>
1

>  <nF>
0

>  <BalabanJ>
1.87

>  <BertzCT>
495.63

>  <nBonds>
41

>  <nBondsO>
20

>  <nBondsS>
29

>  <nBondsD>
0

>  <nBondsT>
0

>  <nBondsA>
12

>  <nBondsM>
12

>  <nBondsKS>
35

>  <nBondsKD>
6

>  <RNCG>
0.35

>  <RPCG>
0.09

>  <FCSP3>
0.29

>  <SZ>
23

>  <Sm>
21.26

>  <Sv>
24.16

>  <Sse>
39.32

>  <Sp>
26.52

>  <Si>
44.86

>  <MZ>
0.58

>  <Mm>
0.53

>  <Mv>
0.6

>  <Mse>
0.98

>  <Mp>
0.66

>  <Mi>
1.12

>  <NsCH3>
2

>  <NdCH2>
0

>  <NssCH2>
2

>  <NtCH>
0

>  <NdsCH>
0

>  <NaaCH>
9

>  <NsssCH>
1

>  <NddC>
0

>  <NtsC>
0

>  <NdssC>
0

>  <NaasC>
3

>  <NaaaC>
0

>  <NssssC>
0

>  <NsNH3>
0

>  <NsNH2>
0

>  <NssNH2>
0

>  <NdNH>
0

>  <NssNH>
1

>  <NaaNH>
0

>  <NtN>
0

>  <NsssNH>
0

>  <NdsN>
0

>  <NaaN>
0

>  <NsssN>
0

>  <NddsN>
0

>  <NaasN>
0

>  <NssssN>
0

>  <NsOH>
0

>  <NdO>
0

>  <NssO>
1

>  <NaaO>
0

>  <NsF>
0

>  <NsSiH3>
0

>  <NssSiH2>
0

>  <NsssSiH>
0

>  <NssssSi>
0

>  <NsPH2>
0

>  <NssPH>
0

>  <NsssP>
0

>  <NdsssP>
0

>  <NsssssP>
0

>  <NsSH>
0

>  <NdS>
0

>  <NssS>
0

>  <NaaS>
0

>  <NdssS>
0

>  <NddssS>
0

>  <NsCl>
0

>  <NsBr>
0

>  <NsI>
0

>  <fragCpx>
58.02

>  <fMF>
0.35

>  <nHBAcc>
2

>  <nHBDon>
1

>  <Kier1>
15.39

>  <Kier2>
8.32

>  <Lipinski>
1

>  <GhoseFilter>
1

>  <FilterItLogS>
-4.98

>  <VMcGowan>
218.72

>  <LabuteASA>
114.98

>  <PEOE_VSA1>
10.05

>  <PEOE_VSA2>
0

>  <PEOE_VSA3>
0

>  <PEOE_VSA4>
0

>  <PEOE_VSA5>
0

>  <PEOE_VSA6>
48.53

>  <PEOE_VSA7>
37.71

>  <PEOE_VSA8>
6.42

>  <PEOE_VSA9>
0

>  <PEOE_VSA10>
11.85

>  <PEOE_VSA11>
0

>  <PEOE_VSA12>
0

>  <PEOE_VSA13>
0

>  <SMR_VSA1>
4.74

>  <SMR_VSA2>
0

>  <SMR_VSA3>
5.32

>  <SMR_VSA4>
0

>  <SMR_VSA5>
19.45

>  <SMR_VSA6>
13.59

>  <SMR_VSA7>
65.72

>  <SMR_VSA8>
0

>  <SMR_VSA9>
5.75

>  <SlogP_VSA1>
10.05

>  <SlogP_VSA2>
13.59

>  <SlogP_VSA3>
0

>  <SlogP_VSA4>
6.92

>  <SlogP_VSA5>
23.65

>  <SlogP_VSA6>
54.6

>  <SlogP_VSA7>
0

>  <SlogP_VSA8>
0

>  <SlogP_VSA9>
0

>  <SlogP_VSA10>
0

>  <SlogP_VSA11>
5.75

>  <EState_VSA1>
0

>  <EState_VSA2>
6.1

>  <EState_VSA3>
0

>  <EState_VSA4>
18.72

>  <EState_VSA5>
11.13

>  <EState_VSA6>
0

>  <EState_VSA7>
31.31

>  <EState_VSA8>
42.57

>  <EState_VSA9>
4.74

>  <EState_VSA10>
0

>  <VSA_EState1>
6.19

>  <VSA_EState2>
0

>  <VSA_EState3>
3.19

>  <VSA_EState4>
2.4

>  <VSA_EState5>
0.97

>  <VSA_EState6>
18.56

>  <VSA_EState7>
1.05

>  <VSA_EState8>
3.01

>  <VSA_EState9>
1.97

>  <apol>
44.29

>  <bpol>
23.37

>  <nRing>
2

>  <nHRing>
0

>  <naRing>
2

>  <naHRing>
0

>  <nARing 2>
0

>  <nAHRing 2>
0

>  <nFRing>
0

>  <nFHRing>
0

>  <nFaRing>
0

>  <nFaHRing>
0

>  <nFARing 2>
0

>  <nFAHRing 2>
0

>  <nRot>
6

>  <SLogP>
3.72

>  <SMR>
79.53

>  <TopoPSA(NO)>
21.26

>  <TopoPSA>
21.26

>  <JGI1>
0.13

>  <JGI2>
0.07

>  <JGI3>
0.03

>  <JGI4>
0.03

>  <JGI5>
0.02

>  <Diameter>
9

>  <Radius>
5

>  <TMWC10>
109.31

>  <TSRW10>
51.52

>  <MW>
255.16

>  <AMW>
6.38

>  <WPath>
728

>  <WPol>
25

>  <Zagreb1>
90

>  <Zagreb2>
101

>  <mZagreb2>
4.47

>  <yes>


>  <nAR-cont>
0.336376

>  <nHA-cont>
0.998649058

>  <MWHBN>
0.187808376

>  <MWHBN-cont>
0.994175733

>  <TPSA-cont>
0.851591998

>  <pka_cont>
0.97

>  <yes.1>


>  <BBB_SCORE>
5.014472653

>  <MMFF94 Energy>
52.114

$$$$
Compound 1477
Actelion Java MolfileCreator 2.0

  0  0  0  0  0  0              0 V3000
M  V30 BEGIN CTAB
M  V30 COUNTS 43 45 0 0 0
M  V30 BEGIN ATOM
M  V30 1 Cl 3.4507 -7.4747 -3.29 0
M  V30 2 C 3.3185 -6.5497 -1.8443 0
M  V30 3 C 2.4396 -5.4667 -1.7949 0
M  V30 4 C 4.0872 -6.8905 -0.7336 0
M  V30 5 C 2.3239 -4.7058 -0.6225 0
M  V30 6 C 3.9775 -6.1423 0.4375 0
M  V30 7 C 3.0997 -5.0578 0.4932 0
M  V30 8 C 1.3627 -3.5427 -0.5478 0
M  V30 9 O 2.0876 -2.3744 -0.1686 0
M  V30 10 C 1.3705 -1.2253 0.01 0
M  V30 11 C 0.0011 -1.0683 -0.1892 0
M  V30 12 C 2.1218 -0.1279 0.4293 0
M  V30 13 C -0.6063 0.1761 0.0329 0
M  V30 14 C 1.5156 1.1134 0.6526 0
M  V30 15 C 0.1413 1.2812 0.4615 0
M  V30 16 N -0.4766 2.534 0.6665 0
M  V30 17 C -0.054 3.5324 1.5278 0
M  V30 18 C -1.73 2.9027 0.0833 0
M  V30 19 O 0.8999 3.5269 2.289 0
M  V30 20 O -0.905 4.6064 1.4407 0
M  V30 21 C -1.7705 4.3974 0.3158 0 CFG=2
M  V30 22 C -3.1715 4.9309 0.6286 0
M  V30 23 N -4.0944 4.7285 -0.4938 0
M  V30 24 C -5.4457 5.1442 -0.1299 0
M  V30 25 H 1.8492 -5.2154 -2.6727 0
M  V30 26 H 4.772 -7.7329 -0.7742 0
M  V30 27 H 4.577 -6.4004 1.307 0
M  V30 28 H 3.0265 -4.4769 1.4116 0
M  V30 29 H 0.8927 -3.384 -1.5259 0
M  V30 30 H 0.5915 -3.7826 0.1949 0
M  V30 31 H -0.6295 -1.888 -0.516 0
M  V30 32 H 3.1928 -0.2343 0.5859 0
M  V30 33 H -1.6785 0.252 -0.1246 0
M  V30 34 H 2.1466 1.9402 0.9691 0
M  V30 35 H -2.5284 2.3808 0.6235 0
M  V30 36 H -1.7757 2.6532 -0.9814 0
M  V30 37 H -1.3374 4.941 -0.5335 0
M  V30 38 H -3.0999 5.9977 0.8762 0
M  V30 39 H -3.5489 4.4324 1.5311 0
M  V30 40 H -3.7888 5.2929 -1.2888 0
M  V30 41 H -5.4801 6.2046 0.1406 0
M  V30 42 H -5.8319 4.5477 0.7028 0
M  V30 43 H -6.1147 4.9914 -0.9823 0
M  V30 END ATOM
M  V30 BEGIN BOND
M  V30 1 1 1 2
M  V30 2 2 2 3
M  V30 3 1 2 4
M  V30 4 1 3 5
M  V30 5 2 4 6
M  V30 6 2 5 7
M  V30 7 1 5 8
M  V30 8 1 8 9
M  V30 9 1 9 10
M  V30 10 2 10 11
M  V30 11 1 10 12
M  V30 12 1 11 13
M  V30 13 2 12 14
M  V30 14 2 13 15
M  V30 15 1 15 16
M  V30 16 1 16 17
M  V30 17 1 16 18
M  V30 18 2 17 19
M  V30 19 1 17 20
M  V30 20 1 18 21
M  V30 21 1 21 22
M  V30 22 1 22 23
M  V30 23 1 23 24
M  V30 24 1 6 7
M  V30 25 1 14 15
M  V30 26 1 20 21
M  V30 27 1 3 25
M  V30 28 1 4 26
M  V30 29 1 6 27
M  V30 30 1 7 28
M  V30 31 1 8 29
M  V30 32 1 8 30
M  V30 33 1 11 31
M  V30 34 1 12 32
M  V30 35 1 13 33
M  V30 36 1 14 34
M  V30 37 1 18 35
M  V30 38 1 18 36
M  V30 39 1 21 37
M  V30 40 1 22 38
M  V30 41 1 22 39
M  V30 42 1 23 40
M  V30 43 1 24 41
M  V30 44 1 24 42
M  V30 45 1 24 43
M  V30 END BOND
M  V30 BEGIN COLLECTION
M  V30 MDLV30/STEABS ATOMS=(1 21)
M  V30 END COLLECTION
M  V30 END CTAB
M  END
>  <Column 1>
1757

>  <level_0>
1918

>  <index>
1918

>  <Unnamed: 0>
1918

>  <NO.>
1930

>  <Name>
almoxatone

>  <IUPAC_name>
(5r)-3-[4-[(3-chlorophenyl)methoxy]phenyl]-5-(methylaminomethyl)-1-3-oxazolidin-2-one

>  <SMILES>
CNC[C@@H]1CN(c2ccc(OCc3cccc(Cl)c3)cc2)C(=O)O1

>  <CID>
172287

>  <logBB>


>  <BBB+/BBB->
BBB+

>  <Inchi>
InChI=1S/C18H19ClN2O3/c1-20-10-17-11-21(18(22)24-17)15-5-7-16(8-6-15)23-12-13-3-2-4-14(19)9-13/h2-9-17-20H-10-12H2-1H3/t17-/m1/s1

>  <threshold>
-1

>  <reference>
R1|R6|R24|R27|R30|

>  <group>
B

>  <Class>
1

>  <ABC>
18.52

>  <ABCGG>
14.19

>  <nAcid>
0

>  <nBase>
1

>  <nAromAtom>
12

>  <nAromBond>
12

>  <nAtom>
43

>  <nHeavyAtom>
24

>  <nSpiro>
0

>  <nBridgehead>
0

>  <nHetero>
6

>  <nN>
2

>  <nO>
3

>  <nF>
0

>  <BalabanJ>
1.36

>  <BertzCT>
705.66

>  <nBonds>
45

>  <nBondsO>
26

>  <nBondsS>
32

>  <nBondsD>
1

>  <nBondsT>
0

>  <nBondsA>
12

>  <nBondsM>
13

>  <nBondsKS>
38

>  <nBondsKD>
7

>  <RNCG>
0.23

>  <RPCG>
0.19

>  <FCSP3>
0.28

>  <SZ>
30.33

>  <Sm>
28.87

>  <Sv>
27.9

>  <Sse>
43.52

>  <Sp>
29.65

>  <Si>
48.31

>  <MZ>
0.71

>  <Mm>
0.67

>  <Mv>
0.65

>  <Mse>
1.01

>  <Mp>
0.69

>  <Mi>
1.12

>  <NsCH3>
1

>  <NdCH2>
0

>  <NssCH2>
3

>  <NtCH>
0

>  <NdsCH>
0

>  <NaaCH>
8

>  <NsssCH>
1

>  <NddC>
0

>  <NtsC>
0

>  <NdssC>
1

>  <NaasC>
4

>  <NaaaC>
0

>  <NssssC>
0

>  <NsNH3>
0

>  <NsNH2>
0

>  <NssNH2>
0

>  <NdNH>
0

>  <NssNH>
1

>  <NaaNH>
0

>  <NtN>
0

>  <NsssNH>
0

>  <NdsN>
0

>  <NaaN>
0

>  <NsssN>
1

>  <NddsN>
0

>  <NaasN>
0

>  <NssssN>
0

>  <NsOH>
0

>  <NdO>
1

>  <NssO>
2

>  <NaaO>
0

>  <NsF>
0

>  <NsSiH3>
0

>  <NssSiH2>
0

>  <NsssSiH>
0

>  <NssssSi>
0

>  <NsPH2>
0

>  <NssPH>
0

>  <NsssP>
0

>  <NdsssP>
0

>  <NsssssP>
0

>  <NsSH>
0

>  <NdS>
0

>  <NssS>
0

>  <NaaS>
0

>  <NdssS>
0

>  <NddssS>
0

>  <NsCl>
1

>  <NsBr>
0

>  <NsI>
0

>  <fragCpx>
124.06

>  <fMF>
0.44

>  <nHBAcc>
4

>  <nHBDon>
1

>  <Kier1>
18.78

>  <Kier2>
9.09

>  <Lipinski>
1

>  <GhoseFilter>
1

>  <FilterItLogS>
-4.84

>  <VMcGowan>
251.61

>  <LabuteASA>
145.67

>  <PEOE_VSA1>
14.79

>  <PEOE_VSA2>
4.9

>  <PEOE_VSA3>
4.79

>  <PEOE_VSA4>
0

>  <PEOE_VSA5>
0

>  <PEOE_VSA6>
23.73

>  <PEOE_VSA7>
49.01

>  <PEOE_VSA8>
17.25

>  <PEOE_VSA9>
6.54

>  <PEOE_VSA10>
18.46

>  <PEOE_VSA11>
0

>  <PEOE_VSA12>
0

>  <PEOE_VSA13>
0

>  <SMR_VSA1>
14.27

>  <SMR_VSA2>
0

>  <SMR_VSA3>
5.32

>  <SMR_VSA4>
0

>  <SMR_VSA5>
12.71

>  <SMR_VSA6>
25.04

>  <SMR_VSA7>
59.12

>  <SMR_VSA8>
0

>  <SMR_VSA9>
5.75

>  <SlogP_VSA1>
14.95

>  <SlogP_VSA2>
32.33

>  <SlogP_VSA3>
11.34

>  <SlogP_VSA4>
0

>  <SlogP_VSA5>
5.56

>  <SlogP_VSA6>
48.53

>  <SlogP_VSA7>
5.02

>  <SlogP_VSA8>
0

>  <SlogP_VSA9>
0

>  <SlogP_VSA10>
10.48

>  <SlogP_VSA11>
5.75

>  <EState_VSA1>
0

>  <EState_VSA2>
12.2

>  <EState_VSA3>
24.72

>  <EState_VSA4>
17

>  <EState_VSA5>
0

>  <EState_VSA6>
4.9

>  <EState_VSA7>
55.58

>  <EState_VSA8>
5.32

>  <EState_VSA9>
21.07

>  <EState_VSA10>
4.79

>  <VSA_EState1>
11.04

>  <VSA_EState2>
13.55

>  <VSA_EState3>
3.7

>  <VSA_EState4>
1.8

>  <VSA_EState5>
0.73

>  <VSA_EState6>
14.96

>  <VSA_EState7>
-0.44

>  <VSA_EState8>
1.63

>  <VSA_EState9>
1.84

>  <apol>
49.52

>  <bpol>
26.19

>  <nRing>
3

>  <nHRing>
1

>  <naRing>
2

>  <naHRing>
0

>  <nARing 2>
1

>  <nAHRing 2>
1

>  <nFRing>
0

>  <nFHRing>
0

>  <nFaRing>
0

>  <nFaHRing>
0

>  <nFARing 2>
0

>  <nFAHRing 2>
0

>  <nRot>
6

>  <SLogP>
3.46

>  <SMR>
93.77

>  <TopoPSA(NO)>
50.8

>  <TopoPSA>
50.8

>  <JGI1>
0.19

>  <JGI2>
0.06

>  <JGI3>
0.04

>  <JGI4>
0.04

>  <JGI5>
0.03

>  <Diameter>
15

>  <Radius>
8

>  <TMWC10>
123.89

>  <TSRW10>
72.1

>  <MW>
346.11

>  <AMW>
8.05

>  <WPath>
1588

>  <WPol>
33

>  <Zagreb1>
122

>  <Zagreb2>
140

>  <mZagreb2>
5.39

>  <yes>


>  <nAR-cont>
0.816016

>  <nHA-cont>
0.94700071

>  <MWHBN>
0.268758947

>  <MWHBN-cont>
0.922908181

>  <TPSA-cont>
0.645384455

>  <pka_cont>
0.97

>  <yes.1>


>  <BBB_SCORE>
4.923147891

>  <MMFF94 Energy>
42.196

$$$$
Compound 1478
Actelion Java MolfileCreator 2.0

  0  0  0  0  0  0              0 V3000
M  V30 BEGIN CTAB
M  V30 COUNTS 45 48 0 0 0
M  V30 BEGIN ATOM
M  V30 1 O -1.9253 1.524 2.0056 0
M  V30 2 C -0.9647 1.8851 1.0047 0 CFG=1
M  V30 3 C -0.3721 3.2648 1.3728 0
M  V30 4 C 0.1234 0.7969 0.903 0
M  V30 5 N 0.1833 3.2752 2.7382 0
M  V30 6 C -0.2449 -0.4558 0.0643 0
M  V30 7 C 0.9396 4.5014 2.9719 0
M  V30 8 C -0.3464 -0.2242 -1.4664 0
M  V30 9 C 0.7631 -1.6272 0.2502 0
M  V30 10 C -1.6349 -1.0571 0.4827 0
M  V30 11 C -0.6871 -1.3998 -2.1934 0
M  V30 12 C -0.1035 0.9569 -2.1627 0
M  V30 13 C 0.4245 -2.7903 -0.4954 0
M  V30 14 C 1.9215 -1.6284 1.0238 0
M  V30 15 C -1.9726 -2.3422 -0.3269 0
M  V30 16 C -0.8171 -1.3798 -3.5781 0
M  V30 17 C -0.8421 -2.6467 -1.3298 0
M  V30 18 C -0.2379 0.9745 -3.5546 0
M  V30 19 C 1.2189 -3.9311 -0.4528 0
M  V30 20 C 2.7167 -2.7778 1.0665 0
M  V30 21 C -0.5972 -0.1822 -4.2559 0
M  V30 22 C 2.3674 -3.9202 0.3366 0
M  V30 23 H -1.4197 1.4105 2.8308 0
M  V30 24 H -1.5084 1.9899 0.0616 0
M  V30 25 H 0.3956 3.5303 0.6363 0
M  V30 26 H -1.1676 4.0182 1.3174 0
M  V30 27 H 1.0442 1.2326 0.4931 0
M  V30 28 H 0.3583 0.4739 1.926 0
M  V30 29 H -0.5992 3.2612 3.3948 0
M  V30 30 H 0.314 5.3905 2.8421 0
M  V30 31 H 1.8019 4.567 2.3007 0
M  V30 32 H 1.3203 4.5034 3.9979 0
M  V30 33 H -2.4422 -0.3347 0.3101 0
M  V30 34 H -1.6422 -1.2968 1.554 0
M  V30 35 H 0.1983 1.8672 -1.6572 0
M  V30 36 H 2.23 -0.7574 1.5927 0
M  V30 37 H -2.1133 -3.1823 0.3649 0
M  V30 38 H -2.9258 -2.2013 -0.8524 0
M  V30 39 H -1.0731 -2.2801 -4.1277 0
M  V30 40 H -1.0517 -3.5412 -1.9244 0
M  V30 41 H -0.053 1.8961 -4.1012 0
M  V30 42 H 0.9583 -4.8146 -1.0269 0
M  V30 43 H 3.6211 -2.7829 1.6703 0
M  V30 44 H -0.6908 -0.1488 -5.3384 0
M  V30 45 H 3.0018 -4.8018 0.3803 0
M  V30 END ATOM
M  V30 BEGIN BOND
M  V30 1 1 1 2
M  V30 2 1 2 3
M  V30 3 1 2 4
M  V30 4 1 3 5
M  V30 5 1 4 6
M  V30 6 1 5 7
M  V30 7 1 6 8
M  V30 8 1 6 9
M  V30 9 1 6 10
M  V30 10 2 8 11
M  V30 11 1 8 12
M  V30 12 2 9 13
M  V30 13 1 9 14
M  V30 14 1 10 15
M  V30 15 1 11 16
M  V30 16 1 11 17
M  V30 17 2 12 18
M  V30 18 1 13 19
M  V30 19 2 14 20
M  V30 20 2 16 21
M  V30 21 2 19 22
M  V30 22 1 13 17
M  V30 23 1 15 17
M  V30 24 1 18 21
M  V30 25 1 20 22
M  V30 26 1 1 23
M  V30 27 1 2 24
M  V30 28 1 3 25
M  V30 29 1 3 26
M  V30 30 1 4 27
M  V30 31 1 4 28
M  V30 32 1 5 29
M  V30 33 1 7 30
M  V30 34 1 7 31
M  V30 35 1 7 32
M  V30 36 1 10 33
M  V30 37 1 10 34
M  V30 38 1 12 35
M  V30 39 1 14 36
M  V30 40 1 15 37
M  V30 41 1 15 38
M  V30 42 1 16 39
M  V30 43 1 17 40
M  V30 44 1 18 41
M  V30 45 1 19 42
M  V30 46 1 20 43
M  V30 47 1 21 44
M  V30 48 1 22 45
M  V30 END BOND
M  V30 BEGIN COLLECTION
M  V30 MDLV30/STEABS ATOMS=(1 2)
M  V30 END COLLECTION
M  V30 END CTAB
M  END
>  <Column 1>
1758

>  <level_0>
1919

>  <index>
1919

>  <Unnamed: 0>
1919

>  <NO.>
1931

>  <Name>
levoprotiline

>  <IUPAC_name>
(2r)-1-(methylamino)-3-(1-tetracyclo[6.6.2.02-7.09-14]hexadeca-2-4-6-9-11-13-hexaenyl)propan-2-ol

>  <SMILES>
CNC[C@H](O)CC12CCC(c3ccccc31)c1ccccc12

>  <CID>
53511

>  <logBB>


>  <BBB+/BBB->
BBB+

>  <Inchi>
InChI=1S/C20H23NO/c1-21-13-14(22)12-20-11-10-15(16-6-2-4-8-18(16)20)17-7-3-5-9-19(17)20/h2-9-14-15-21-22H-10-13H2-1H3/t14--15?-20?/m1/s1

>  <threshold>
-1

>  <reference>
R1|R6|R27|R27|R30|R30|

>  <group>
B

>  <Class>
-1

>  <ABC>
17.5

>  <ABCGG>
13.75

>  <nAcid>
0

>  <nBase>
1

>  <nAromAtom>
12

>  <nAromBond>
12

>  <nAtom>
45

>  <nHeavyAtom>
22

>  <nSpiro>
0

>  <nBridgehead>
2

>  <nHetero>
2

>  <nN>
1

>  <nO>
1

>  <nF>
0

>  <BalabanJ>
1.66

>  <BertzCT>
646.11

>  <nBonds>
48

>  <nBondsO>
25

>  <nBondsS>
36

>  <nBondsD>
0

>  <nBondsT>
0

>  <nBondsA>
12

>  <nBondsM>
12

>  <nBondsKS>
42

>  <nBondsKD>
6

>  <RNCG>
0.27

>  <RPCG>
0.15

>  <FCSP3>
0.4

>  <SZ>
26.33

>  <Sm>
24.43

>  <Sv>
27.7

>  <Sse>
44.2

>  <Sp>
30.32

>  <Si>
50.28

>  <MZ>
0.59

>  <Mm>
0.54

>  <Mv>
0.62

>  <Mse>
0.98

>  <Mp>
0.67

>  <Mi>
1.12

>  <NsCH3>
1

>  <NdCH2>
0

>  <NssCH2>
4

>  <NtCH>
0

>  <NdsCH>
0

>  <NaaCH>
8

>  <NsssCH>
2

>  <NddC>
0

>  <NtsC>
0

>  <NdssC>
0

>  <NaasC>
4

>  <NaaaC>
0

>  <NssssC>
1

>  <NsNH3>
0

>  <NsNH2>
0

>  <NssNH2>
0

>  <NdNH>
0

>  <NssNH>
1

>  <NaaNH>
0

>  <NtN>
0

>  <NsssNH>
0

>  <NdsN>
0

>  <NaaN>
0

>  <NsssN>
0

>  <NddsN>
0

>  <NaasN>
0

>  <NssssN>
0

>  <NsOH>
1

>  <NdO>
0

>  <NssO>
0

>  <NaaO>
0

>  <NsF>
0

>  <NsSiH3>
0

>  <NssSiH2>
0

>  <NsssSiH>
0

>  <NssssSi>
0

>  <NsPH2>
0

>  <NssPH>
0

>  <NsssP>
0

>  <NdsssP>
0

>  <NsssssP>
0

>  <NsSH>
0

>  <NdS>
0

>  <NssS>
0

>  <NaaS>
0

>  <NdssS>
0

>  <NddssS>
0

>  <NsCl>
0

>  <NsBr>
0

>  <NsI>
0

>  <fragCpx>
163.02

>  <fMF>
0.36

>  <nHBAcc>
2

>  <nHBDon>
2

>  <Kier1>
15.52

>  <Kier2>
6.14

>  <Lipinski>
1

>  <GhoseFilter>
1

>  <FilterItLogS>
-5.28

>  <VMcGowan>
239.27

>  <LabuteASA>
131.74

>  <PEOE_VSA1>
10.42

>  <PEOE_VSA2>
0

>  <PEOE_VSA3>
0

>  <PEOE_VSA4>
0

>  <PEOE_VSA5>
0

>  <PEOE_VSA6>
48.53

>  <PEOE_VSA7>
48.56

>  <PEOE_VSA8>
17.88

>  <PEOE_VSA9>
6.1

>  <PEOE_VSA10>
0

>  <PEOE_VSA11>
0

>  <PEOE_VSA12>
0

>  <PEOE_VSA13>
0

>  <SMR_VSA1>
5.11

>  <SMR_VSA2>
0

>  <SMR_VSA3>
5.32

>  <SMR_VSA4>
0

>  <SMR_VSA5>
36.7

>  <SMR_VSA6>
13.59

>  <SMR_VSA7>
70.78

>  <SMR_VSA8>
0

>  <SMR_VSA9>
0

>  <SlogP_VSA1>
5.32

>  <SlogP_VSA2>
24.8

>  <SlogP_VSA3>
5.41

>  <SlogP_VSA4>
0

>  <SlogP_VSA5>
47.43

>  <SlogP_VSA6>
48.53

>  <SlogP_VSA7>
0

>  <SlogP_VSA8>
0

>  <SlogP_VSA9>
0

>  <SlogP_VSA10>
0

>  <SlogP_VSA11>
0

>  <EState_VSA1>
0

>  <EState_VSA2>
11.52

>  <EState_VSA3>
12.46

>  <EState_VSA4>
12.84

>  <EState_VSA5>
28.67

>  <EState_VSA6>
0

>  <EState_VSA7>
7.05

>  <EState_VSA8>
53.85

>  <EState_VSA9>
0

>  <EState_VSA10>
5.11

>  <VSA_EState1>
0

>  <VSA_EState2>
0

>  <VSA_EState3>
13.61

>  <VSA_EState4>
5.83

>  <VSA_EState5>
0.54

>  <VSA_EState6>
17.73

>  <VSA_EState7>
2.82

>  <VSA_EState8>
0.65

>  <VSA_EState9>
1.9

>  <apol>
50.64

>  <bpol>
23.64

>  <nRing>
5

>  <nHRing>
0

>  <naRing>
2

>  <naHRing>
0

>  <nARing 2>
3

>  <nAHRing 2>
0

>  <nFRing>
1

>  <nFHRing>
0

>  <nFaRing>
0

>  <nFaHRing>
0

>  <nFARing 2>
1

>  <nFAHRing 2>
0

>  <nRot>
4

>  <SLogP>
3.18

>  <SMR>
89.29

>  <TopoPSA(NO)>
32.26

>  <TopoPSA>
32.26

>  <JGI1>
0.16

>  <JGI2>
0.09

>  <JGI3>
0.05

>  <JGI4>
0.04

>  <JGI5>
0.02

>  <Diameter>
9

>  <Radius>
5

>  <TMWC10>
124.49

>  <TSRW10>
57.35

>  <MW>
293.18

>  <AMW>
6.52

>  <WPath>
906

>  <WPol>
42

>  <Zagreb1>
124

>  <Zagreb2>
155

>  <mZagreb2>
4.86

>  <yes>


>  <nAR-cont>
0.691115

>  <nHA-cont>
0.983774276

>  <MWHBN>
0.233610749

>  <MWHBN-cont>
0.98291448

>  <TPSA-cont>
0.774805168

>  <pka_cont>
0.97

>  <yes.1>


>  <BBB_SCORE>
5.183871332

>  <MMFF94 Energy>
113.38

$$$$
Compound 1479
Actelion Java MolfileCreator 2.0

  0  0  0  0  0  0              0 V3000
M  V30 BEGIN CTAB
M  V30 COUNTS 59 58 0 0 0
M  V30 BEGIN ATOM
M  V30 1 O 0.0 -0.2312 3.7053 0
M  V30 2 C 0.03 0.4013 2.4945 0
M  V30 3 C 1.0122 0.2617 4.4604 0
M  V30 4 C 1.0635 1.3346 2.4858 0
M  V30 5 C -1.075 0.0182 1.4885 0
M  V30 6 C 1.7061 1.2326 3.7653 0
M  V30 7 C 1.1517 -0.3149 5.8137 0
M  V30 8 C 1.4256 2.2561 1.3787 0
M  V30 9 N -0.4718 -0.2276 0.0992 0
M  V30 10 C -2.066 1.2287 1.6693 0
M  V30 11 C -1.8972 -1.2075 1.9924 0
M  V30 12 C 2.8722 2.0152 4.2472 0
M  V30 13 C 0.437 -1.4136 -0.0321 0
M  V30 14 C -1.2895 0.1934 -1.0701 0
M  V30 15 N -0.3576 -2.5834 -0.3989 0
M  V30 16 C 1.5616 -1.2057 -1.0896 0
M  V30 17 C 1.2684 -1.862 1.2101 0
M  V30 18 N -1.4074 1.6485 -0.9782 0
M  V30 19 C -0.6932 0.0238 -2.4944 0
M  V30 20 C -2.704 -0.4262 -1.1648 0
M  V30 21 O 1.1452 0.9929 -7.0402 0
M  V30 22 N -0.2496 0.6977 -7.3287 0
M  V30 23 C -0.3271 -0.7585 -7.3533 0
M  V30 24 H 0.4066 -1.096 5.9944 0
M  V30 25 H 1.021 0.461 6.5742 0
M  V30 26 H 2.1442 -0.7583 5.939 0
M  V30 27 H 1.641 1.7 0.4628 0
M  V30 28 H 0.6124 2.9599 1.1791 0
M  V30 29 H 2.3167 2.8437 1.6199 0
M  V30 30 H -1.6052 2.1919 1.4264 0
M  V30 31 H -2.9948 1.1336 1.1069 0
M  V30 32 H -2.3731 1.3178 2.7219 0
M  V30 33 H -2.7145 -1.4622 1.3137 0
M  V30 34 H -1.3107 -2.115 2.1359 0
M  V30 35 H -2.3598 -1.0002 2.9665 0
M  V30 36 H 3.1491 1.7409 5.2699 0
M  V30 37 H 3.7409 1.8389 3.6048 0
M  V30 38 H 2.6441 3.0859 4.2365 0
M  V30 39 H 0.2239 -3.4181 -0.3647 0
M  V30 40 H -0.6632 -2.5072 -1.3616 0
M  V30 41 H 2.4139 -1.8783 -0.9255 0
M  V30 42 H 1.9602 -0.1862 -1.0431 0
M  V30 43 H 1.2578 -1.4221 -2.1145 0
M  V30 44 H 1.8628 -2.7595 0.9842 0
M  V30 45 H 1.9972 -1.0986 1.5008 0
M  V30 46 H 0.6795 -2.1461 2.0811 0
M  V30 47 H -1.8801 2.0284 -1.7932 0
M  V30 48 H -0.4675 2.0341 -0.9615 0
M  V30 49 H -1.3254 0.5088 -3.2528 0
M  V30 50 H -0.6444 -1.0226 -2.8059 0
M  V30 51 H 0.291 0.4942 -2.5946 0
M  V30 52 H -3.2378 -0.0554 -2.0501 0
M  V30 53 H -2.6628 -1.5151 -1.2622 0
M  V30 54 H -3.3551 -0.1997 -0.3221 0
M  V30 55 H 1.0674 1.5754 -6.2592 0
M  V30 56 H -0.3512 1.0508 -8.2841 0
M  V30 57 H -0.1143 -1.1737 -6.3633 0
M  V30 58 H -1.3377 -1.0669 -7.6369 0
M  V30 59 H 0.375 -1.1841 -8.0775 0
M  V30 END ATOM
M  V30 BEGIN BOND
M  V30 1 1 1 2
M  V30 2 1 1 3
M  V30 3 2 2 4
M  V30 4 1 2 5
M  V30 5 2 3 6
M  V30 6 1 3 7
M  V30 7 1 4 8
M  V30 8 1 5 9
M  V30 9 1 5 10
M  V30 10 1 5 11
M  V30 11 1 6 12
M  V30 12 1 9 13
M  V30 13 1 9 14
M  V30 14 1 13 15
M  V30 15 1 13 16
M  V30 16 1 13 17
M  V30 17 1 14 18
M  V30 18 1 14 19
M  V30 19 1 14 20
M  V30 20 1 21 22
M  V30 21 1 22 23
M  V30 22 1 4 6
M  V30 23 1 7 24
M  V30 24 1 7 25
M  V30 25 1 7 26
M  V30 26 1 8 27
M  V30 27 1 8 28
M  V30 28 1 8 29
M  V30 29 1 10 30
M  V30 30 1 10 31
M  V30 31 1 10 32
M  V30 32 1 11 33
M  V30 33 1 11 34
M  V30 34 1 11 35
M  V30 35 1 12 36
M  V30 36 1 12 37
M  V30 37 1 12 38
M  V30 38 1 15 39
M  V30 39 1 15 40
M  V30 40 1 16 41
M  V30 41 1 16 42
M  V30 42 1 16 43
M  V30 43 1 17 44
M  V30 44 1 17 45
M  V30 45 1 17 46
M  V30 46 1 18 47
M  V30 47 1 18 48
M  V30 48 1 19 49
M  V30 49 1 19 50
M  V30 50 1 19 51
M  V30 51 1 20 52
M  V30 52 1 20 53
M  V30 53 1 20 54
M  V30 54 1 21 55
M  V30 55 1 22 56
M  V30 56 1 23 57
M  V30 57 1 23 58
M  V30 58 1 23 59
M  V30 END BOND
M  V30 END CTAB
M  END
>  <Column 1>
1759

>  <level_0>
1921

>  <index>
1921

>  <Unnamed: 0>
1921

>  <NO.>
1933

>  <Name>


>  <IUPAC_name>


>  <SMILES>
CNO.Cc1oc(C(C)(C)N(C(C)(C)N)C(C)(C)N)c(C)c1C

>  <CID>


>  <logBB>


>  <BBB+/BBB->
BBB+

>  <Inchi>
InChI=1S/C16H31N3O.CH5NO/c1-10-11(2)13(20-12(10)3)14(4-5)19(15(6-7)17)16(8-9)18;1-2-3/h17-18H2-1-9H3;2-3H-1H3

>  <threshold>
-1

>  <reference>
R1|R28|R9|R27|R30|

>  <group>
B

>  <Class>
-1

>  <ABC>
16.79

>  <ABCGG>
16.88

>  <nAcid>
0

>  <nBase>
3

>  <nAromAtom>
5

>  <nAromBond>
5

>  <nAtom>
59

>  <nHeavyAtom>
23

>  <nSpiro>
0

>  <nBridgehead>
0

>  <nHetero>
6

>  <nN>
4

>  <nO>
2

>  <nF>
0

>  <BalabanJ>
0

>  <BertzCT>
493.89

>  <nBonds>
58

>  <nBondsO>
22

>  <nBondsS>
53

>  <nBondsD>
0

>  <nBondsT>
0

>  <nBondsA>
5

>  <nBondsM>
5

>  <nBondsKS>
56

>  <nBondsKD>
2

>  <RNCG>
0.21

>  <RPCG>
0.11

>  <FCSP3>
0.76

>  <SZ>
30.33

>  <Sm>
27.35

>  <Sv>
31.21

>  <Sse>
58.29

>  <Sp>
34.97

>  <Si>
68.06

>  <MZ>
0.51

>  <Mm>
0.46

>  <Mv>
0.53

>  <Mse>
0.99

>  <Mp>
0.59

>  <Mi>
1.15

>  <NsCH3>
10

>  <NdCH2>
0

>  <NssCH2>
0

>  <NtCH>
0

>  <NdsCH>
0

>  <NaaCH>
0

>  <NsssCH>
0

>  <NddC>
0

>  <NtsC>
0

>  <NdssC>
0

>  <NaasC>
4

>  <NaaaC>
0

>  <NssssC>
3

>  <NsNH3>
0

>  <NsNH2>
2

>  <NssNH2>
0

>  <NdNH>
0

>  <NssNH>
1

>  <NaaNH>
0

>  <NtN>
0

>  <NsssNH>
0

>  <NdsN>
0

>  <NaaN>
0

>  <NsssN>
1

>  <NddsN>
0

>  <NaasN>
0

>  <NssssN>
0

>  <NsOH>
1

>  <NdO>
0

>  <NssO>
0

>  <NaaO>
1

>  <NsF>
0

>  <NsSiH3>
0

>  <NssSiH2>
0

>  <NsssSiH>
0

>  <NssssSi>
0

>  <NsPH2>
0

>  <NssPH>
0

>  <NsssP>
0

>  <NdsssP>
0

>  <NsssssP>
0

>  <NsSH>
0

>  <NdS>
0

>  <NssS>
0

>  <NaaS>
0

>  <NdssS>
0

>  <NddssS>
0

>  <NsCl>
0

>  <NsBr>
0

>  <NsI>
0

>  <fragCpx>
22.06

>  <fMF>
0.08

>  <nHBAcc>
6

>  <nHBDon>
4

>  <Kier1>
23

>  <Kier2>
7.92

>  <Lipinski>
1

>  <GhoseFilter>
1

>  <FilterItLogS>
-3.71

>  <VMcGowan>
293.45

>  <LabuteASA>
140.71

>  <PEOE_VSA1>
21.09

>  <PEOE_VSA2>
4.9

>  <PEOE_VSA3>
5.48

>  <PEOE_VSA4>
0

>  <PEOE_VSA5>
0

>  <PEOE_VSA6>
0

>  <PEOE_VSA7>
73.44

>  <PEOE_VSA8>
7.05

>  <PEOE_VSA9>
16.86

>  <PEOE_VSA10>
11.52

>  <PEOE_VSA11>
0

>  <PEOE_VSA12>
0

>  <PEOE_VSA13>
0

>  <SMR_VSA1>
9.62

>  <SMR_VSA2>
0

>  <SMR_VSA3>
10.38

>  <SMR_VSA4>
11.47

>  <SMR_VSA5>
79.18

>  <SMR_VSA6>
7.05

>  <SMR_VSA7>
22.65

>  <SMR_VSA8>
0

>  <SMR_VSA9>
0

>  <SlogP_VSA1>
16.95

>  <SlogP_VSA2>
28.48

>  <SlogP_VSA3>
5.54

>  <SlogP_VSA4>
20.77

>  <SlogP_VSA5>
64.19

>  <SlogP_VSA6>
4.42

>  <SlogP_VSA7>
0

>  <SlogP_VSA8>
0

>  <SlogP_VSA9>
0

>  <SlogP_VSA10>
0

>  <SlogP_VSA11>
0

>  <EState_VSA1>
16.86

>  <EState_VSA2>
0

>  <EState_VSA3>
0

>  <EState_VSA4>
11.52

>  <EState_VSA5>
18.17

>  <EState_VSA6>
5.48

>  <EState_VSA7>
34.62

>  <EState_VSA8>
32.59

>  <EState_VSA9>
21.09

>  <EState_VSA10>
0

>  <VSA_EState1>
6.03

>  <VSA_EState2>
2.11

>  <VSA_EState3>
7.32

>  <VSA_EState4>
15.36

>  <VSA_EState5>
1.89

>  <VSA_EState6>
0

>  <VSA_EState7>
0

>  <VSA_EState8>
18.29

>  <VSA_EState9>
1.43

>  <apol>
58.4

>  <bpol>
37.85

>  <nRing>
1

>  <nHRing>
1

>  <naRing>
1

>  <naHRing>
1

>  <nARing 2>
0

>  <nAHRing 2>
0

>  <nFRing>
0

>  <nFHRing>
0

>  <nFaRing>
0

>  <nFaHRing>
0

>  <nFARing 2>
0

>  <nFAHRing 2>
0

>  <nRot>
4

>  <SLogP>
2.73

>  <SMR>
95.16

>  <TopoPSA(NO)>
100.68

>  <TopoPSA>
100.68

>  <JGI1>
0.43

>  <JGI2>
0.11

>  <JGI3>
0.13

>  <JGI4>
0.03

>  <JGI5>
0.04

>  <Diameter>
100000000

>  <Radius>
100000000

>  <TMWC10>
120.5

>  <TSRW10>
71.83

>  <MW>
328.28

>  <AMW>
5.56

>  <WPath>
6000000705

>  <WPol>
35

>  <Zagreb1>
114

>  <Zagreb2>
132

>  <mZagreb2>
5

>  <yes>


>  <nAR-cont>
0.336376

>  <nHA-cont>
0.967789328

>  <MWHBN>
0.551922104

>  <MWHBN-cont>
0

>  <TPSA-cont>
0.297191081

>  <pka_cont>
0.97

>  <yes.1>


>  <BBB_SCORE>
2.383547491

>  <MMFF94 Energy>
-44.764

$$$$
Compound 1480
Actelion Java MolfileCreator 2.0

  0  0  0  0  0  0              0 V3000
M  V30 BEGIN CTAB
M  V30 COUNTS 27 27 0 0 0
M  V30 BEGIN ATOM
M  V30 1 O -0.2333 1.8677 0.7778 0
M  V30 2 C 0.1636 0.8106 -0.1153 0 CFG=2
M  V30 3 C -1.0298 -0.0781 -0.4428 0
M  V30 4 C 1.437 0.1231 0.489 0 CFG=1
M  V30 5 C -2.3155 0.4885 -0.532 0
M  V30 6 C -0.8951 -1.441 -0.7504 0
M  V30 7 N 2.5339 1.0917 0.7335 0
M  V30 8 C 1.1539 -0.5194 1.8558 0
M  V30 9 C -3.4286 -0.2871 -0.8636 0
M  V30 10 C -2.0095 -2.2182 -1.0816 0
M  V30 11 C 3.2328 1.4649 -0.4884 0
M  V30 12 C -3.2758 -1.6431 -1.1324 0
M  V30 13 H -0.7696 1.4522 1.4756 0
M  V30 14 H 0.4423 1.295 -1.0584 0
M  V30 15 H 1.8005 -0.6633 -0.1824 0
M  V30 16 H -2.4587 1.5532 -0.3513 0
M  V30 17 H 0.0757 -1.929 -0.7435 0
M  V30 18 H 2.1091 1.933 1.1373 0
M  V30 19 H 0.369 -1.2783 1.7908 0
M  V30 20 H 2.0512 -1.0186 2.2404 0
M  V30 21 H 0.8424 0.2201 2.602 0
M  V30 22 H -4.4124 0.1717 -0.9199 0
M  V30 23 H -1.8854 -3.2745 -1.3075 0
M  V30 24 H 4.054 2.1445 -0.2397 0
M  V30 25 H 3.671 0.5889 -0.977 0
M  V30 26 H 2.5807 1.9824 -1.1977 0
M  V30 27 H -4.1399 -2.2481 -1.3934 0
M  V30 END ATOM
M  V30 BEGIN BOND
M  V30 1 1 1 2
M  V30 2 1 2 3
M  V30 3 1 2 4
M  V30 4 2 3 5
M  V30 5 1 3 6
M  V30 6 1 4 7
M  V30 7 1 4 8
M  V30 8 1 5 9
M  V30 9 2 6 10
M  V30 10 1 7 11
M  V30 11 2 9 12
M  V30 12 1 10 12
M  V30 13 1 1 13
M  V30 14 1 2 14
M  V30 15 1 4 15
M  V30 16 1 5 16
M  V30 17 1 6 17
M  V30 18 1 7 18
M  V30 19 1 8 19
M  V30 20 1 8 20
M  V30 21 1 8 21
M  V30 22 1 9 22
M  V30 23 1 10 23
M  V30 24 1 11 24
M  V30 25 1 11 25
M  V30 26 1 11 26
M  V30 27 1 12 27
M  V30 END BOND
M  V30 BEGIN COLLECTION
M  V30 MDLV30/STEABS ATOMS=(2 2 4)
M  V30 END COLLECTION
M  V30 END CTAB
M  END
>  <Column 1>
1760

>  <level_0>
1922

>  <index>
1922

>  <Unnamed: 0>
1922

>  <NO.>
1934

>  <Name>
ephedrine

>  <IUPAC_name>
(1r-2s)-2-(methylamino)-1-phenylpropan-1-ol

>  <SMILES>
CN[C@@H](C)[C@H](O)c1ccccc1

>  <CID>
9294

>  <logBB>


>  <BBB+/BBB->
BBB-

>  <Inchi>
InChI=1S/C10H15NO/c1-8(11-2)10(12)9-6-4-3-5-7-9/h3-8-10-12H-1-2H3/t8--10-/m0/s1

>  <threshold>
-1

>  <reference>
R1|R15|R27|R30|

>  <group>
B

>  <Class>
1

>  <ABC>
8.62

>  <ABCGG>
8.31

>  <nAcid>
0

>  <nBase>
1

>  <nAromAtom>
6

>  <nAromBond>
6

>  <nAtom>
27

>  <nHeavyAtom>
12

>  <nSpiro>
0

>  <nBridgehead>
0

>  <nHetero>
2

>  <nN>
1

>  <nO>
1

>  <nF>
0

>  <BalabanJ>
2.33

>  <BertzCT>
222.54

>  <nBonds>
27

>  <nBondsO>
12

>  <nBondsS>
21

>  <nBondsD>
0

>  <nBondsT>
0

>  <nBondsA>
6

>  <nBondsM>
6

>  <nBondsKS>
24

>  <nBondsKD>
3

>  <RNCG>
0.36

>  <RPCG>
0.2

>  <FCSP3>
0.4

>  <SZ>
15

>  <Sm>
13.76

>  <Sv>
15.54

>  <Sse>
26.65

>  <Sp>
17.13

>  <Si>
30.61

>  <MZ>
0.56

>  <Mm>
0.51

>  <Mv>
0.58

>  <Mse>
0.99

>  <Mp>
0.63

>  <Mi>
1.13

>  <NsCH3>
2

>  <NdCH2>
0

>  <NssCH2>
0

>  <NtCH>
0

>  <NdsCH>
0

>  <NaaCH>
5

>  <NsssCH>
2

>  <NddC>
0

>  <NtsC>
0

>  <NdssC>
0

>  <NaasC>
1

>  <NaaaC>
0

>  <NssssC>
0

>  <NsNH3>
0

>  <NsNH2>
0

>  <NssNH2>
0

>  <NdNH>
0

>  <NssNH>
1

>  <NaaNH>
0

>  <NtN>
0

>  <NsssNH>
0

>  <NdsN>
0

>  <NaaN>
0

>  <NsssN>
0

>  <NddsN>
0

>  <NaasN>
0

>  <NssssN>
0

>  <NsOH>
1

>  <NdO>
0

>  <NssO>
0

>  <NaaO>
0

>  <NsF>
0

>  <NsSiH3>
0

>  <NssSiH2>
0

>  <NsssSiH>
0

>  <NssssSi>
0

>  <NsPH2>
0

>  <NssPH>
0

>  <NsssP>
0

>  <NdsssP>
0

>  <NsssssP>
0

>  <NsSH>
0

>  <NdS>
0

>  <NssS>
0

>  <NaaS>
0

>  <NdssS>
0

>  <NddssS>
0

>  <NsCl>
0

>  <NsBr>
0

>  <NsI>
0

>  <fragCpx>
12.02

>  <fMF>
0.22

>  <nHBAcc>
2

>  <nHBDon>
2

>  <Kier1>
10.08

>  <Kier2>
4.89

>  <Lipinski>
1

>  <GhoseFilter>
1

>  <FilterItLogS>
-1.98

>  <VMcGowan>
143.85

>  <LabuteASA>
73.24

>  <PEOE_VSA1>
10.42

>  <PEOE_VSA2>
0

>  <PEOE_VSA3>
0

>  <PEOE_VSA4>
0

>  <PEOE_VSA5>
0

>  <PEOE_VSA6>
30.33

>  <PEOE_VSA7>
19.53

>  <PEOE_VSA8>
6.04

>  <PEOE_VSA9>
6.1

>  <PEOE_VSA10>
0

>  <PEOE_VSA11>
0

>  <PEOE_VSA12>
0

>  <PEOE_VSA13>
0

>  <SMR_VSA1>
5.11

>  <SMR_VSA2>
0

>  <SMR_VSA3>
5.32

>  <SMR_VSA4>
0

>  <SMR_VSA5>
19.07

>  <SMR_VSA6>
7.05

>  <SMR_VSA7>
35.9

>  <SMR_VSA8>
0

>  <SMR_VSA9>
0

>  <SlogP_VSA1>
5.32

>  <SlogP_VSA2>
18.2

>  <SlogP_VSA3>
0

>  <SlogP_VSA4>
0

>  <SlogP_VSA5>
18.59

>  <SlogP_VSA6>
30.33

>  <SlogP_VSA7>
0

>  <SlogP_VSA8>
0

>  <SlogP_VSA9>
0

>  <SlogP_VSA10>
0

>  <SlogP_VSA11>
0

>  <EState_VSA1>
6.1

>  <EState_VSA2>
6.04

>  <EState_VSA3>
0

>  <EState_VSA4>
5.56

>  <EState_VSA5>
0

>  <EState_VSA6>
0

>  <EState_VSA7>
44.3

>  <EState_VSA8>
5.32

>  <EState_VSA9>
0

>  <EState_VSA10>
5.11

>  <VSA_EState1>
0

>  <VSA_EState2>
0

>  <VSA_EState3>
12.74

>  <VSA_EState4>
0.96

>  <VSA_EState5>
0

>  <VSA_EState6>
9.76

>  <VSA_EState7>
-0.42

>  <VSA_EState8>
1.96

>  <VSA_EState9>
1.84

>  <apol>
28.6

>  <bpol>
15.62

>  <nRing>
1

>  <nHRing>
0

>  <naRing>
1

>  <naHRing>
0

>  <nARing 2>
0

>  <nAHRing 2>
0

>  <nFRing>
0

>  <nFHRing>
0

>  <nFaRing>
0

>  <nFaHRing>
0

>  <nFARing 2>
0

>  <nFAHRing 2>
0

>  <nRot>
3

>  <SLogP>
1.33

>  <SMR>
49.92

>  <TopoPSA(NO)>
32.26

>  <TopoPSA>
32.26

>  <JGI1>
0.17

>  <JGI2>
0.1

>  <JGI3>
0.05

>  <JGI4>
0.03

>  <JGI5>
0.02

>  <Diameter>
7

>  <Radius>
4

>  <TMWC10>
89.11

>  <TSRW10>
41.96

>  <MW>
165.12

>  <AMW>
6.12

>  <WPath>
202

>  <WPol>
15

>  <Zagreb1>
54

>  <Zagreb2>
60

>  <mZagreb2>
2.89

>  <yes>


>  <nAR-cont>
0.336376

>  <nHA-cont>
0.785745021

>  <MWHBN>
0.311286403

>  <MWHBN-cont>
0.805760194

>  <TPSA-cont>
0.774805168

>  <pka_cont>
0.97

>  <yes.1>


>  <BBB_SCORE>
4.365371647

>  <MMFF94 Energy>
55.336

$$$$
Compound 1481
Actelion Java MolfileCreator 2.0

  0  0  0  0  0  0              0 V3000
M  V30 BEGIN CTAB
M  V30 COUNTS 34 36 0 0 0
M  V30 BEGIN ATOM
M  V30 1 Cl -4.5848 -0.3269 0.3269 0
M  V30 2 C -3.1701 -1.2137 0.7738 0
M  V30 3 C -3.2191 -2.3192 1.627 0
M  V30 4 C -1.9421 -0.7874 0.2518 0
M  V30 5 Cl -4.6947 -2.9022 2.3106 0
M  V30 6 C -2.0403 -2.9912 1.9554 0
M  V30 7 C -0.7488 -1.4591 0.5678 0
M  V30 8 C -0.8168 -2.5632 1.4329 0
M  V30 9 C 0.6088 -1.0235 0.0465 0 CFG=1
M  V30 10 C 0.6133 -0.287 -1.2677 0
M  V30 11 C 1.2886 0.0211 0.9625 0
M  V30 12 C 0.8183 1.0875 -1.0755 0
M  V30 13 C 0.4291 -0.8134 -2.5378 0
M  V30 14 C 0.9308 1.413 0.3918 0 CFG=2
M  V30 15 C 0.825 1.9591 -2.1543 0
M  V30 16 C 0.4503 0.0596 -3.627 0
M  V30 17 N 1.9271 2.4446 0.6669 0
M  V30 18 C 0.6462 1.4362 -3.4367 0
M  V30 19 C 1.9868 2.7949 2.0774 0
M  V30 20 H -1.9278 0.0768 -0.4102 0
M  V30 21 H -2.0659 -3.8513 2.6206 0
M  V30 22 H 0.0885 -3.1026 1.7077 0
M  V30 23 H 1.2595 -1.9032 -0.043 0
M  V30 24 H 1.0106 -0.0761 2.0182 0
M  V30 25 H 2.3771 -0.1318 0.9058 0
M  V30 26 H 0.266 -1.8761 -2.6868 0
M  V30 27 H -0.06 1.7302 0.7415 0
M  V30 28 H 0.9636 3.026 -2.0042 0
M  V30 29 H 0.3074 -0.3277 -4.6329 0
M  V30 30 H 2.8415 2.1242 0.3509 0
M  V30 31 H 0.6523 2.103 -4.2955 0
M  V30 32 H 2.7014 3.6121 2.2174 0
M  V30 33 H 1.0151 3.1444 2.4415 0
M  V30 34 H 2.3195 1.9547 2.6946 0
M  V30 END ATOM
M  V30 BEGIN BOND
M  V30 1 1 1 2
M  V30 2 2 2 3
M  V30 3 1 2 4
M  V30 4 1 3 5
M  V30 5 1 3 6
M  V30 6 2 4 7
M  V30 7 2 6 8
M  V30 8 1 7 9
M  V30 9 1 9 10
M  V30 10 1 9 11
M  V30 11 2 10 12
M  V30 12 1 10 13
M  V30 13 1 11 14
M  V30 14 1 12 15
M  V30 15 2 13 16
M  V30 16 1 14 17
M  V30 17 2 15 18
M  V30 18 1 17 19
M  V30 19 1 7 8
M  V30 20 1 12 14
M  V30 21 1 16 18
M  V30 22 1 4 20
M  V30 23 1 6 21
M  V30 24 1 8 22
M  V30 25 1 9 23
M  V30 26 1 11 24
M  V30 27 1 11 25
M  V30 28 1 13 26
M  V30 29 1 14 27
M  V30 30 1 15 28
M  V30 31 1 16 29
M  V30 32 1 17 30
M  V30 33 1 18 31
M  V30 34 1 19 32
M  V30 35 1 19 33
M  V30 36 1 19 34
M  V30 END BOND
M  V30 BEGIN COLLECTION
M  V30 MDLV30/STEABS ATOMS=(2 9 14)
M  V30 END COLLECTION
M  V30 END CTAB
M  END
>  <Column 1>
1761

>  <level_0>
1923

>  <index>
1923

>  <Unnamed: 0>
1923

>  <NO.>
1935

>  <Name>
indatraline

>  <IUPAC_name>
(1r-3s)-3-(3-4-dichlorophenyl)-n-methyl-2-3-dihydro-1h-inden-1-amine

>  <SMILES>
CN[C@@H]1C[C@@H](c2ccc(Cl)c(Cl)c2)c2ccccc21

>  <CID>
126280

>  <logBB>


>  <BBB+/BBB->
BBB+

>  <Inchi>
InChI=1S/C16H15Cl2N/c1-19-16-9-13(11-4-2-3-5-12(11)16)10-6-7-14(17)15(18)8-10/h2-8-13-16-19H-9H2-1H3/t13--16+/m0/s1

>  <threshold>
-1

>  <reference>
R1|R6|R27|R30|

>  <group>
B

>  <Class>
-1

>  <ABC>
14.87

>  <ABCGG>
12.5

>  <nAcid>
0

>  <nBase>
1

>  <nAromAtom>
12

>  <nAromBond>
12

>  <nAtom>
34

>  <nHeavyAtom>
19

>  <nSpiro>
0

>  <nBridgehead>
0

>  <nHetero>
3

>  <nN>
1

>  <nO>
0

>  <nF>
0

>  <BalabanJ>
1.7

>  <BertzCT>
609.45

>  <nBonds>
36

>  <nBondsO>
21

>  <nBondsS>
24

>  <nBondsD>
0

>  <nBondsT>
0

>  <nBondsA>
12

>  <nBondsM>
12

>  <nBondsKS>
30

>  <nBondsKD>
6

>  <RNCG>
0.31

>  <RPCG>
0.12

>  <FCSP3>
0.25

>  <SZ>
25.33

>  <Sm>
24.33

>  <Sv>
23

>  <Sse>
33.85

>  <Sp>
25.26

>  <Si>
37.71

>  <MZ>
0.75

>  <Mm>
0.72

>  <Mv>
0.68

>  <Mse>
1

>  <Mp>
0.74

>  <Mi>
1.11

>  <NsCH3>
1

>  <NdCH2>
0

>  <NssCH2>
1

>  <NtCH>
0

>  <NdsCH>
0

>  <NaaCH>
7

>  <NsssCH>
2

>  <NddC>
0

>  <NtsC>
0

>  <NdssC>
0

>  <NaasC>
5

>  <NaaaC>
0

>  <NssssC>
0

>  <NsNH3>
0

>  <NsNH2>
0

>  <NssNH2>
0

>  <NdNH>
0

>  <NssNH>
1

>  <NaaNH>
0

>  <NtN>
0

>  <NsssNH>
0

>  <NdsN>
0

>  <NaaN>
0

>  <NsssN>
0

>  <NddsN>
0

>  <NaasN>
0

>  <NssssN>
0

>  <NsOH>
0

>  <NdO>
0

>  <NssO>
0

>  <NaaO>
0

>  <NsF>
0

>  <NsSiH3>
0

>  <NssSiH2>
0

>  <NsssSiH>
0

>  <NssssSi>
0

>  <NsPH2>
0

>  <NssPH>
0

>  <NsssP>
0

>  <NdsssP>
0

>  <NsssssP>
0

>  <NsSH>
0

>  <NdS>
0

>  <NssS>
0

>  <NaaS>
0

>  <NdssS>
0

>  <NddssS>
0

>  <NsCl>
2

>  <NsBr>
0

>  <NsI>
0

>  <fragCpx>
99.03

>  <fMF>
0.44

>  <nHBAcc>
1

>  <nHBDon>
1

>  <Kier1>
13.96

>  <Kier2>
5.78

>  <Lipinski>
1

>  <GhoseFilter>
1

>  <FilterItLogS>
-5.89

>  <VMcGowan>
212.38

>  <LabuteASA>
123.1

>  <PEOE_VSA1>
5.32

>  <PEOE_VSA2>
0

>  <PEOE_VSA3>
0

>  <PEOE_VSA4>
0

>  <PEOE_VSA5>
0

>  <PEOE_VSA6>
53.53

>  <PEOE_VSA7>
42.29

>  <PEOE_VSA8>
11.96

>  <PEOE_VSA9>
10.05

>  <PEOE_VSA10>
0

>  <PEOE_VSA11>
0

>  <PEOE_VSA12>
0

>  <PEOE_VSA13>
0

>  <SMR_VSA1>
0

>  <SMR_VSA2>
0

>  <SMR_VSA3>
5.32

>  <SMR_VSA4>
0

>  <SMR_VSA5>
18.38

>  <SMR_VSA6>
7.05

>  <SMR_VSA7>
69.2

>  <SMR_VSA8>
0

>  <SMR_VSA9>
0

>  <SlogP_VSA1>
5.32

>  <SlogP_VSA2>
7.05

>  <SlogP_VSA3>
0

>  <SlogP_VSA4>
0

>  <SlogP_VSA5>
35.07

>  <SlogP_VSA6>
42.46

>  <SlogP_VSA7>
10.05

>  <SlogP_VSA8>
0

>  <SlogP_VSA9>
0

>  <SlogP_VSA10>
0

>  <SlogP_VSA11>
0

>  <EState_VSA1>
0

>  <EState_VSA2>
0

>  <EState_VSA3>
22.01

>  <EState_VSA4>
6.42

>  <EState_VSA5>
16.69

>  <EState_VSA6>
0

>  <EState_VSA7>
19.18

>  <EState_VSA8>
35.65

>  <EState_VSA9>
23.2

>  <EState_VSA10>
0

>  <VSA_EState1>
0

>  <VSA_EState2>
0

>  <VSA_EState3>
4.63

>  <VSA_EState4>
4.01

>  <VSA_EState5>
0.39

>  <VSA_EState6>
14.97

>  <VSA_EState7>
1.06

>  <VSA_EState8>
0

>  <VSA_EState9>
2.01

>  <apol>
42.18

>  <bpol>
16.64

>  <nRing>
3

>  <nHRing>
0

>  <naRing>
2

>  <naHRing>
0

>  <nARing 2>
1

>  <nAHRing 2>
0

>  <nFRing>
1

>  <nFHRing>
0

>  <nFaRing>
0

>  <nFaHRing>
0

>  <nFARing 2>
1

>  <nFAHRing 2>
0

>  <nRot>
2

>  <SLogP>
4.79

>  <SMR>
81.16

>  <TopoPSA(NO)>
12.03

>  <TopoPSA>
12.03

>  <JGI1>
0.17

>  <JGI2>
0.09

>  <JGI3>
0.05

>  <JGI4>
0.04

>  <JGI5>
0.02

>  <Diameter>
9

>  <Radius>
5

>  <TMWC10>
113.96

>  <TSRW10>
67.01

>  <MW>
291.06

>  <AMW>
8.56

>  <WPath>
667

>  <WPol>
31

>  <Zagreb1>
102

>  <Zagreb2>
123

>  <mZagreb2>
4.22

>  <yes>


>  <nAR-cont>
0.816016

>  <nHA-cont>
0.998649058

>  <MWHBN>
0.117229991

>  <MWHBN-cont>
0.81719693

>  <TPSA-cont>
0.91602313

>  <pka_cont>
0.97

>  <yes.1>


>  <BBB_SCORE>
5.357506712

>  <MMFF94 Energy>
57.395

$$$$
Compound 1482
Actelion Java MolfileCreator 2.0

  0  0  0  0  0  0              0 V3000
M  V30 BEGIN CTAB
M  V30 COUNTS 53 55 0 0 0
M  V30 BEGIN ATOM
M  V30 1 Cl -5.1037 3.5864 -2.7088 0
M  V30 2 C -4.305 2.7443 -1.4204 0
M  V30 3 C -4.6346 3.0168 -0.0759 0
M  V30 4 C -3.3421 1.7908 -1.7636 0
M  V30 5 N -5.6042 3.9567 0.2348 0
M  V30 6 C -3.9431 2.3006 0.909 0
M  V30 7 C -2.6673 1.0755 -0.7672 0
M  V30 8 C -6.0315 4.3037 1.5677 0
M  V30 9 C -2.9542 1.3608 0.5745 0
M  V30 10 C -1.6646 0.0645 -1.2184 0
M  V30 11 O -2.3159 0.6866 1.588 0
M  V30 12 O -1.2405 0.0887 -2.3696 0
M  V30 13 N -1.2606 -0.8744 -0.2987 0
M  V30 14 C -1.4498 1.5607 2.3194 0
M  V30 15 C -0.2582 -1.8694 -0.6096 0 CFG=1
M  V30 16 C 1.2212 -1.4075 -0.5347 0 CFG=2
M  V30 17 C -0.3035 -3.0629 0.3279 0
M  V30 18 N 1.9723 -2.5769 -0.0037 0
M  V30 19 C 1.4427 -0.2243 0.412 0
M  V30 20 C 1.039 -3.7097 0.0566 0
M  V30 21 C 3.1588 -2.9208 -0.7997 0
M  V30 22 C 4.2864 -1.9225 -0.661 0
M  V30 23 C 4.6669 -1.1143 -1.7417 0
M  V30 24 C 4.9698 -1.7908 0.5572 0
M  V30 25 C 5.7107 -0.1971 -1.6066 0
M  V30 26 C 6.0133 -0.8737 0.6903 0
M  V30 27 C 6.3839 -0.0781 -0.3919 0
M  V30 28 H -3.1229 1.5999 -2.8125 0
M  V30 29 H -6.0542 4.4247 -0.5482 0
M  V30 30 H -4.1726 2.459 1.9585 0
M  V30 31 H -6.8094 5.072 1.5151 0
M  V30 32 H -5.202 4.7097 2.1553 0
M  V30 33 H -6.4543 3.4367 2.0852 0
M  V30 34 H -1.6152 -0.806 0.6506 0
M  V30 35 H -0.8186 2.1555 1.6495 0
M  V30 36 H -0.7956 0.9386 2.9375 0
M  V30 37 H -2.0243 2.212 2.9857 0
M  V30 38 H -0.4499 -2.2302 -1.6303 0
M  V30 39 H 1.5454 -1.121 -1.5431 0
M  V30 40 H -1.1421 -3.7313 0.1093 0
M  V30 41 H -0.3831 -2.7474 1.376 0
M  V30 42 H 1.0771 -0.4405 1.4222 0
M  V30 43 H 2.5026 0.0354 0.4901 0
M  V30 44 H 0.9259 0.6697 0.0485 0
M  V30 45 H 1.3157 -4.4136 0.8477 0
M  V30 46 H 0.9968 -4.2544 -0.8957 0
M  V30 47 H 3.5562 -3.889 -0.4646 0
M  V30 48 H 2.8958 -3.0565 -1.8574 0
M  V30 49 H 4.1477 -1.1904 -2.6943 0
M  V30 50 H 4.6775 -2.4 1.4099 0
M  V30 51 H 5.9964 0.4267 -2.4494 0
M  V30 52 H 6.5328 -0.778 1.6398 0
M  V30 53 H 7.1949 0.6375 -0.2878 0
M  V30 END ATOM
M  V30 BEGIN BOND
M  V30 1 1 1 2
M  V30 2 2 2 3
M  V30 3 1 2 4
M  V30 4 1 3 5
M  V30 5 1 3 6
M  V30 6 2 4 7
M  V30 7 1 5 8
M  V30 8 2 6 9
M  V30 9 1 7 10
M  V30 10 1 9 11
M  V30 11 2 10 12
M  V30 12 1 10 13
M  V30 13 1 11 14
M  V30 14 1 13 15
M  V30 15 1 15 16
M  V30 16 1 15 17
M  V30 17 1 16 18
M  V30 18 1 16 19
M  V30 19 1 17 20
M  V30 20 1 18 21
M  V30 21 1 21 22
M  V30 22 2 22 23
M  V30 23 1 22 24
M  V30 24 1 23 25
M  V30 25 2 24 26
M  V30 26 2 25 27
M  V30 27 1 7 9
M  V30 28 1 18 20
M  V30 29 1 26 27
M  V30 30 1 4 28
M  V30 31 1 5 29
M  V30 32 1 6 30
M  V30 33 1 8 31
M  V30 34 1 8 32
M  V30 35 1 8 33
M  V30 36 1 13 34
M  V30 37 1 14 35
M  V30 38 1 14 36
M  V30 39 1 14 37
M  V30 40 1 15 38
M  V30 41 1 16 39
M  V30 42 1 17 40
M  V30 43 1 17 41
M  V30 44 1 19 42
M  V30 45 1 19 43
M  V30 46 1 19 44
M  V30 47 1 20 45
M  V30 48 1 20 46
M  V30 49 1 21 47
M  V30 50 1 21 48
M  V30 51 1 23 49
M  V30 52 1 24 50
M  V30 53 1 25 51
M  V30 54 1 26 52
M  V30 55 1 27 53
M  V30 END BOND
M  V30 BEGIN COLLECTION
M  V30 MDLV30/STEABS ATOMS=(2 15 16)
M  V30 END COLLECTION
M  V30 END CTAB
M  END
>  <Column 1>
1767

>  <level_0>
1929

>  <index>
1929

>  <Unnamed: 0>
1929

>  <NO.>
1941

>  <Name>
nemonapride

>  <IUPAC_name>
n-[(2r-3r)-1-benzyl-2-methylpyrrolidin-3-yl]-5-chloro-2-methoxy-4-(methylamino)benzamide

>  <SMILES>
CNc1cc(OC)c(C(=O)N[C@@H]2CCN(Cc3ccccc3)[C@@H]2C)cc1Cl

>  <CID>
156333

>  <logBB>


>  <BBB+/BBB->
BBB+

>  <Inchi>
InChI=1S/C21H26ClN3O2/c1-14-18(9-10-25(14)13-15-7-5-4-6-8-15)24-21(26)16-11-17(22)19(23-2)12-20(16)27-3/h4-8-11-12-14-18-23H-9-10-13H2-1-3H3-(H-24-26)/t14--18-/m1/s1

>  <threshold>
-1

>  <reference>
R1|R24|R27|R30|

>  <group>
B

>  <Class>
1

>  <ABC>
20.63

>  <ABCGG>
17.06

>  <nAcid>
0

>  <nBase>
1

>  <nAromAtom>
12

>  <nAromBond>
12

>  <nAtom>
53

>  <nHeavyAtom>
27

>  <nSpiro>
0

>  <nBridgehead>
0

>  <nHetero>
6

>  <nN>
3

>  <nO>
2

>  <nF>
0

>  <BalabanJ>
1.51

>  <BertzCT>
797.51

>  <nBonds>
55

>  <nBondsO>
29

>  <nBondsS>
42

>  <nBondsD>
1

>  <nBondsT>
0

>  <nBondsA>
12

>  <nBondsM>
13

>  <nBondsKS>
48

>  <nBondsKD>
7

>  <RNCG>
0.22

>  <RPCG>
0.11

>  <FCSP3>
0.38

>  <SZ>
34.33

>  <Sm>
32.3

>  <Sv>
32.84

>  <Sse>
52.96

>  <Sp>
35.62

>  <Si>
59.84

>  <MZ>
0.65

>  <Mm>
0.61

>  <Mv>
0.62

>  <Mse>
1

>  <Mp>
0.67

>  <Mi>
1.13

>  <NsCH3>
3

>  <NdCH2>
0

>  <NssCH2>
3

>  <NtCH>
0

>  <NdsCH>
0

>  <NaaCH>
7

>  <NsssCH>
2

>  <NddC>
0

>  <NtsC>
0

>  <NdssC>
1

>  <NaasC>
5

>  <NaaaC>
0

>  <NssssC>
0

>  <NsNH3>
0

>  <NsNH2>
0

>  <NssNH2>
0

>  <NdNH>
0

>  <NssNH>
2

>  <NaaNH>
0

>  <NtN>
0

>  <NsssNH>
0

>  <NdsN>
0

>  <NaaN>
0

>  <NsssN>
1

>  <NddsN>
0

>  <NaasN>
0

>  <NssssN>
0

>  <NsOH>
0

>  <NdO>
1

>  <NssO>
1

>  <NaaO>
0

>  <NsF>
0

>  <NsSiH3>
0

>  <NssSiH2>
0

>  <NsssSiH>
0

>  <NssssSi>
0

>  <NsPH2>
0

>  <NssPH>
0

>  <NsssP>
0

>  <NdsssP>
0

>  <NsssssP>
0

>  <NsSH>
0

>  <NdS>
0

>  <NssS>
0

>  <NaaS>
0

>  <NdssS>
0

>  <NddssS>
0

>  <NsCl>
1

>  <NsBr>
0

>  <NsI>
0

>  <fragCpx>
139.06

>  <fMF>
0.38

>  <nHBAcc>
4

>  <nHBDon>
2

>  <Kier1>
21.7

>  <Kier2>
10.16

>  <Lipinski>
1

>  <GhoseFilter>
1

>  <FilterItLogS>
-5.75

>  <VMcGowan>
297.99

>  <LabuteASA>
165.21

>  <PEOE_VSA1>
15.37

>  <PEOE_VSA2>
9.69

>  <PEOE_VSA3>
0

>  <PEOE_VSA4>
0

>  <PEOE_VSA5>
0

>  <PEOE_VSA6>
41.93

>  <PEOE_VSA7>
24.97

>  <PEOE_VSA8>
38.29

>  <PEOE_VSA9>
23.38

>  <PEOE_VSA10>
5.75

>  <PEOE_VSA11>
0

>  <PEOE_VSA12>
0

>  <PEOE_VSA13>
5.91

>  <SMR_VSA1>
9.53

>  <SMR_VSA2>
0

>  <SMR_VSA3>
10.22

>  <SMR_VSA4>
0

>  <SMR_VSA5>
31.97

>  <SMR_VSA6>
26.02

>  <SMR_VSA7>
58.61

>  <SMR_VSA8>
0

>  <SMR_VSA9>
5.75

>  <SlogP_VSA1>
15.37

>  <SlogP_VSA2>
43.59

>  <SlogP_VSA3>
6.54

>  <SlogP_VSA4>
0

>  <SlogP_VSA5>
29.27

>  <SlogP_VSA6>
42.46

>  <SlogP_VSA7>
5.02

>  <SlogP_VSA8>
0

>  <SlogP_VSA9>
0

>  <SlogP_VSA10>
5.69

>  <SlogP_VSA11>
5.75

>  <EState_VSA1>
0

>  <EState_VSA2>
17.99

>  <EState_VSA3>
16.34

>  <EState_VSA4>
25.2

>  <EState_VSA5>
5.56

>  <EState_VSA6>
26.29

>  <EState_VSA7>
6.07

>  <EState_VSA8>
46.72

>  <EState_VSA9>
16.34

>  <EState_VSA10>
4.79

>  <VSA_EState1>
5.39

>  <VSA_EState2>
15.25

>  <VSA_EState3>
6.65

>  <VSA_EState4>
2.47

>  <VSA_EState5>
0.35

>  <VSA_EState6>
14.16

>  <VSA_EState7>
0.92

>  <VSA_EState8>
4.01

>  <VSA_EState9>
3.33

>  <apol>
59.49

>  <bpol>
32.05

>  <nRing>
3

>  <nHRing>
1

>  <naRing>
2

>  <naHRing>
0

>  <nARing 2>
1

>  <nAHRing 2>
1

>  <nFRing>
0

>  <nFHRing>
0

>  <nFaRing>
0

>  <nFaHRing>
0

>  <nFARing 2>
0

>  <nFAHRing 2>
0

>  <nRot>
6

>  <SLogP>
3.78

>  <SMR>
109.74

>  <TopoPSA(NO)>
53.6

>  <TopoPSA>
53.6

>  <JGI1>
0.19

>  <JGI2>
0.08

>  <JGI3>
0.05

>  <JGI4>
0.05

>  <JGI5>
0.03

>  <Diameter>
15

>  <Radius>
8

>  <TMWC10>
131.64

>  <TSRW10>
75.89

>  <MW>
387.17

>  <AMW>
7.31

>  <WPath>
2008

>  <WPol>
42

>  <Zagreb1>
138

>  <Zagreb2>
162

>  <mZagreb2>
6.14

>  <yes>


>  <nAR-cont>
0.816016

>  <nHA-cont>
0.860070871

>  <MWHBN>
0.304930174

>  <MWHBN-cont>
0.825762924

>  <TPSA-cont>
0.625838716

>  <pka_cont>
0.97

>  <yes.1>


>  <BBB_SCORE>
4.651408691

>  <MMFF94 Energy>
71.705

$$$$
Compound 1483
Actelion Java MolfileCreator 2.0

  0  0  0  0  0  0              0 V3000
M  V30 BEGIN CTAB
M  V30 COUNTS 36 37 0 0 0
M  V30 BEGIN ATOM
M  V30 1 Cl 2.2614 -4.1219 2.0997 0
M  V30 2 C 1.9904 -2.5044 1.5489 0
M  V30 3 N 3.0166 -1.7005 1.8816 0
M  V30 4 C 0.8431 -2.1169 0.8753 0
M  V30 5 C 2.8954 -0.4277 1.5303 0
M  V30 6 S -0.5105 -3.2504 0.5552 0
M  V30 7 C 0.8339 -0.7673 0.521 0
M  V30 8 N 1.8409 0.0624 0.8718 0
M  V30 9 N 3.9289 0.3931 1.8792 0
M  V30 10 C -1.7701 -2.5065 1.6244 0
M  V30 11 N -0.2204 -0.2047 -0.2068 0
M  V30 12 C 3.9401 1.7828 1.529 0
M  V30 13 C -0.2481 -0.5533 -1.6392 0
M  V30 14 C -0.493 1.2195 0.0477 0
M  V30 15 C -1.5891 -0.11 -2.2691 0
M  V30 16 C -1.8298 1.6314 -0.612 0
M  V30 17 N -1.8712 1.3283 -2.0604 0
M  V30 18 C -3.1693 1.6869 -2.6264 0
M  V30 19 H 4.6961 -0.0466 2.3623 0
M  V30 20 H -1.3889 -2.3868 2.6423 0
M  V30 21 H -2.6408 -3.167 1.6578 0
M  V30 22 H -2.0945 -1.5365 1.241 0
M  V30 23 H 3.0929 2.3132 1.9765 0
M  V30 24 H 3.9149 1.92 0.4429 0
M  V30 25 H 4.8574 2.2492 1.9015 0
M  V30 26 H -0.1287 -1.6285 -1.8058 0
M  V30 27 H 0.5824 -0.0531 -2.1549 0
M  V30 28 H 0.3167 1.8441 -0.3518 0
M  V30 29 H -0.5692 1.4062 1.1262 0
M  V30 30 H -2.3977 -0.7195 -1.8433 0
M  V30 31 H -1.5488 -0.321 -3.3443 0
M  V30 32 H -1.9698 2.7083 -0.4597 0
M  V30 33 H -2.6514 1.1166 -0.0956 0
M  V30 34 H -3.9934 1.1323 -2.1634 0
M  V30 35 H -3.3605 2.758 -2.4982 0
M  V30 36 H -3.1849 1.4908 -3.704 0
M  V30 END ATOM
M  V30 BEGIN BOND
M  V30 1 1 1 2
M  V30 2 2 2 3
M  V30 3 1 2 4
M  V30 4 1 3 5
M  V30 5 1 4 6
M  V30 6 2 4 7
M  V30 7 2 5 8
M  V30 8 1 5 9
M  V30 9 1 6 10
M  V30 10 1 7 11
M  V30 11 1 9 12
M  V30 12 1 11 13
M  V30 13 1 11 14
M  V30 14 1 13 15
M  V30 15 1 14 16
M  V30 16 1 15 17
M  V30 17 1 17 18
M  V30 18 1 7 8
M  V30 19 1 16 17
M  V30 20 1 9 19
M  V30 21 1 10 20
M  V30 22 1 10 21
M  V30 23 1 10 22
M  V30 24 1 12 23
M  V30 25 1 12 24
M  V30 26 1 12 25
M  V30 27 1 13 26
M  V30 28 1 13 27
M  V30 29 1 14 28
M  V30 30 1 14 29
M  V30 31 1 15 30
M  V30 32 1 15 31
M  V30 33 1 16 32
M  V30 34 1 16 33
M  V30 35 1 18 34
M  V30 36 1 18 35
M  V30 37 1 18 36
M  V30 END BOND
M  V30 END CTAB
M  END
>  <Column 1>
1768

>  <level_0>
1930

>  <index>
1930

>  <Unnamed: 0>
1930

>  <NO.>
1942

>  <Name>
mezilamine

>  <IUPAC_name>
4-chloro-n-methyl-6-(4-methylpiperazin-1-yl)-5-methylsulfanylpyrimidin-2-amine

>  <SMILES>
CNc1nc(Cl)c(SC)c(N2CCN(C)CC2)n1

>  <CID>
68678

>  <logBB>


>  <BBB+/BBB->
BBB+

>  <Inchi>
InChI=1S/C11H18ClN5S/c1-13-11-14-9(12)8(18-3)10(15-11)17-6-4-16(2)5-7-17/h4-7H2-1-3H3-(H-13-14-15)

>  <threshold>
-1

>  <reference>
R1|R13|R19|R6|R24|R27|R27|R27|R30|R30|

>  <group>
B

>  <Class>
-1

>  <ABC>
13.53

>  <ABCGG>
11.84

>  <nAcid>
0

>  <nBase>
1

>  <nAromAtom>
6

>  <nAromBond>
6

>  <nAtom>
36

>  <nHeavyAtom>
18

>  <nSpiro>
0

>  <nBridgehead>
0

>  <nHetero>
7

>  <nN>
5

>  <nO>
0

>  <nF>
0

>  <BalabanJ>
2.02

>  <BertzCT>
420.14

>  <nBonds>
37

>  <nBondsO>
19

>  <nBondsS>
31

>  <nBondsD>
0

>  <nBondsT>
0

>  <nBondsA>
6

>  <nBondsM>
6

>  <nBondsKS>
34

>  <nBondsKD>
3

>  <RNCG>
0.22

>  <RPCG>
0.14

>  <FCSP3>
0.64

>  <SZ>
25.33

>  <Sm>
23.96

>  <Sv>
21.94

>  <Sse>
36.15

>  <Sp>
24.52

>  <Si>
41.26

>  <MZ>
0.7

>  <Mm>
0.67

>  <Mv>
0.61

>  <Mse>
1

>  <Mp>
0.68

>  <Mi>
1.15

>  <NsCH3>
3

>  <NdCH2>
0

>  <NssCH2>
4

>  <NtCH>
0

>  <NdsCH>
0

>  <NaaCH>
0

>  <NsssCH>
0

>  <NddC>
0

>  <NtsC>
0

>  <NdssC>
0

>  <NaasC>
4

>  <NaaaC>
0

>  <NssssC>
0

>  <NsNH3>
0

>  <NsNH2>
0

>  <NssNH2>
0

>  <NdNH>
0

>  <NssNH>
1

>  <NaaNH>
0

>  <NtN>
0

>  <NsssNH>
0

>  <NdsN>
0

>  <NaaN>
2

>  <NsssN>
2

>  <NddsN>
0

>  <NaasN>
0

>  <NssssN>
0

>  <NsOH>
0

>  <NdO>
0

>  <NssO>
0

>  <NaaO>
0

>  <NsF>
0

>  <NsSiH3>
0

>  <NssSiH2>
0

>  <NsssSiH>
0

>  <NssssSi>
0

>  <NsPH2>
0

>  <NssPH>
0

>  <NsssP>
0

>  <NdsssP>
0

>  <NsssssP>
0

>  <NsSH>
0

>  <NdS>
0

>  <NssS>
1

>  <NaaS>
0

>  <NdssS>
0

>  <NddssS>
0

>  <NsCl>
1

>  <NsBr>
0

>  <NsI>
0

>  <fragCpx>
55.07

>  <fMF>
0.33

>  <nHBAcc>
6

>  <nHBDon>
1

>  <Kier1>
14.41

>  <Kier2>
6.44

>  <Lipinski>
1

>  <GhoseFilter>
1

>  <FilterItLogS>
-3.37

>  <VMcGowan>
209.72

>  <LabuteASA>
116.92

>  <PEOE_VSA1>
15.12

>  <PEOE_VSA2>
0

>  <PEOE_VSA3>
0

>  <PEOE_VSA4>
9.97

>  <PEOE_VSA5>
11.76

>  <PEOE_VSA6>
11.6

>  <PEOE_VSA7>
13.3

>  <PEOE_VSA8>
33.23

>  <PEOE_VSA9>
4.9

>  <PEOE_VSA10>
10.97

>  <PEOE_VSA11>
0

>  <PEOE_VSA12>
5.95

>  <PEOE_VSA13>
0

>  <SMR_VSA1>
0

>  <SMR_VSA2>
0

>  <SMR_VSA3>
14.87

>  <SMR_VSA4>
0

>  <SMR_VSA5>
4.9

>  <SMR_VSA6>
56.75

>  <SMR_VSA7>
5.15

>  <SMR_VSA8>
0

>  <SMR_VSA9>
0

>  <SlogP_VSA1>
10.22

>  <SlogP_VSA2>
61.4

>  <SlogP_VSA3>
0

>  <SlogP_VSA4>
0

>  <SlogP_VSA5>
0

>  <SlogP_VSA6>
4.9

>  <SlogP_VSA7>
5.15

>  <SlogP_VSA8>
0

>  <SlogP_VSA9>
0

>  <SlogP_VSA10>
11.77

>  <SlogP_VSA11>
0

>  <EState_VSA1>
0

>  <EState_VSA2>
0

>  <EState_VSA3>
11.1

>  <EState_VSA4>
36.89

>  <EState_VSA5>
0

>  <EState_VSA6>
18.81

>  <EState_VSA7>
6.26

>  <EState_VSA8>
32.13

>  <EState_VSA9>
11.6

>  <EState_VSA10>
0

>  <VSA_EState1>
0

>  <VSA_EState2>
14.32

>  <VSA_EState3>
3.48

>  <VSA_EState4>
0

>  <VSA_EState5>
1.52

>  <VSA_EState6>
0

>  <VSA_EState7>
2

>  <VSA_EState8>
4.04

>  <VSA_EState9>
3.94

>  <apol>
40.95

>  <bpol>
27.3

>  <nRing>
2

>  <nHRing>
2

>  <naRing>
1

>  <naHRing>
1

>  <nARing 2>
1

>  <nAHRing 2>
1

>  <nFRing>
0

>  <nFHRing>
0

>  <nFaRing>
0

>  <nFaHRing>
0

>  <nFARing 2>
0

>  <nFAHRing 2>
0

>  <nRot>
3

>  <SLogP>
1.65

>  <SMR>
78.08

>  <TopoPSA(NO)>
44.29

>  <TopoPSA>
69.59

>  <JGI1>
0.21

>  <JGI2>
0.09

>  <JGI3>
0.05

>  <JGI4>
0.05

>  <JGI5>
0.03

>  <Diameter>
9

>  <Radius>
5

>  <TMWC10>
108.79

>  <TSRW10>
50.96

>  <MW>
287.1

>  <AMW>
7.97

>  <WPath>
586

>  <WPol>
28

>  <Zagreb1>
90

>  <Zagreb2>
105

>  <mZagreb2>
4.17

>  <yes>


>  <nAR-cont>
0.816016

>  <nHA-cont>
0.991161285

>  <MWHBN>
0.413124969

>  <MWHBN-cont>
0.424626011

>  <TPSA-cont>
0.514218587

>  <pka_cont>
0.97

>  <yes.1>


>  <BBB_SCORE>
3.957553476

>  <MMFF94 Energy>
-7.6966

$$$$
Compound 1484
Actelion Java MolfileCreator 2.0

  0  0  0  0  0  0              0 V3000
M  V30 BEGIN CTAB
M  V30 COUNTS 25 25 0 0 0
M  V30 BEGIN ATOM
M  V30 1 O 2.659 1.1724 0.4688 0
M  V30 2 N 1.8354 2.3063 0.5097 0
M  V30 3 C 3.987 1.5706 0.7842 0
M  V30 4 C 0.607 2.0162 0.2199 0
M  V30 5 C -8.0E-4 0.7187 -0.1779 0
M  V30 6 C 0.5185 0.0152 -1.1977 0
M  V30 7 C -1.2586 0.3155 0.5422 0
M  V30 8 C -0.1108 -1.2758 -1.6355 0
M  V30 9 N -2.0479 -0.6993 -0.1861 0
M  V30 10 C -1.1755 -1.7915 -0.648 0
M  V30 11 C -3.1263 -1.2116 0.656 0
M  V30 12 H 4.0258 1.9991 1.7905 0
M  V30 13 H 4.3496 2.2968 0.0502 0
M  V30 14 H 4.6296 0.6869 0.7525 0
M  V30 15 H -0.1194 2.8446 0.288 0
M  V30 16 H 1.3969 0.3638 -1.7327 0
M  V30 17 H -1.8922 1.1993 0.6869 0
M  V30 18 H -0.9755 -0.0538 1.5372 0
M  V30 19 H 0.6673 -2.0385 -1.7519 0
M  V30 20 H -0.5657 -1.1193 -2.6212 0
M  V30 21 H -0.6825 -2.2778 0.205 0
M  V30 22 H -1.7679 -2.5609 -1.1584 0
M  V30 23 H -3.7869 -0.3968 0.9729 0
M  V30 24 H -2.7493 -1.7187 1.5516 0
M  V30 25 H -3.7471 -1.9196 0.0957 0
M  V30 END ATOM
M  V30 BEGIN BOND
M  V30 1 1 1 2
M  V30 2 1 1 3
M  V30 3 2 2 4
M  V30 4 1 4 5
M  V30 5 2 5 6
M  V30 6 1 5 7
M  V30 7 1 6 8
M  V30 8 1 7 9
M  V30 9 1 8 10
M  V30 10 1 9 11
M  V30 11 1 9 10
M  V30 12 1 3 12
M  V30 13 1 3 13
M  V30 14 1 3 14
M  V30 15 1 4 15
M  V30 16 1 6 16
M  V30 17 1 7 17
M  V30 18 1 7 18
M  V30 19 1 8 19
M  V30 20 1 8 20
M  V30 21 1 10 21
M  V30 22 1 10 22
M  V30 23 1 11 23
M  V30 24 1 11 24
M  V30 25 1 11 25
M  V30 END BOND
M  V30 END CTAB
M  END
>  <Column 1>
1786

>  <level_0>
1948

>  <index>
1948

>  <Unnamed: 0>
1948

>  <NO.>
1960

>  <Name>
milameline

>  <IUPAC_name>
(z)-n-methoxy-1-(1-methyl-3-6-dihydro-2h-pyridin-5-yl)methanimine

>  <SMILES>
CO/N=C\C1=CCCN(C)C1

>  <CID>
9571002

>  <logBB>


>  <BBB+/BBB->
BBB+

>  <Inchi>
InChI=1S/C8H14N2O/c1-10-5-3-4-8(7-10)6-9-11-2/h4-6H-3-5-7H2-1-2H3/b9-6-

>  <threshold>
-1

>  <reference>
R1|R13|R6|R24|R27|R27|R30|R30|

>  <group>
B

>  <Class>
1

>  <ABC>
7.89

>  <ABCGG>
7.28

>  <nAcid>
0

>  <nBase>
1

>  <nAromAtom>
0

>  <nAromBond>
0

>  <nAtom>
25

>  <nHeavyAtom>
11

>  <nSpiro>
0

>  <nBridgehead>
0

>  <nHetero>
3

>  <nN>
2

>  <nO>
1

>  <nF>
0

>  <BalabanJ>
2.12

>  <BertzCT>
174.93

>  <nBonds>
25

>  <nBondsO>
11

>  <nBondsS>
23

>  <nBondsD>
2

>  <nBondsT>
0

>  <nBondsA>
0

>  <nBondsM>
2

>  <nBondsKS>
23

>  <nBondsKD>
2

>  <RNCG>
0.43

>  <RPCG>
0.11

>  <FCSP3>
0.63

>  <SZ>
14

>  <Sm>
12.84

>  <Sv>
14.02

>  <Sse>
24.87

>  <Sp>
15.39

>  <Si>
28.7

>  <MZ>
0.56

>  <Mm>
0.51

>  <Mv>
0.56

>  <Mse>
0.99

>  <Mp>
0.62

>  <Mi>
1.15

>  <NsCH3>
2

>  <NdCH2>
0

>  <NssCH2>
3

>  <NtCH>
0

>  <NdsCH>
2

>  <NaaCH>
0

>  <NsssCH>
0

>  <NddC>
0

>  <NtsC>
0

>  <NdssC>
1

>  <NaasC>
0

>  <NaaaC>
0

>  <NssssC>
0

>  <NsNH3>
0

>  <NsNH2>
0

>  <NssNH2>
0

>  <NdNH>
0

>  <NssNH>
0

>  <NaaNH>
0

>  <NtN>
0

>  <NsssNH>
0

>  <NdsN>
1

>  <NaaN>
0

>  <NsssN>
1

>  <NddsN>
0

>  <NaasN>
0

>  <NssssN>
0

>  <NsOH>
0

>  <NdO>
0

>  <NssO>
1

>  <NaaO>
0

>  <NsF>
0

>  <NsSiH3>
0

>  <NssSiH2>
0

>  <NsssSiH>
0

>  <NssssSi>
0

>  <NsPH2>
0

>  <NssPH>
0

>  <NsssP>
0

>  <NdsssP>
0

>  <NsssssP>
0

>  <NsSH>
0

>  <NdS>
0

>  <NssS>
0

>  <NaaS>
0

>  <NdssS>
0

>  <NddssS>
0

>  <NsCl>
0

>  <NsBr>
0

>  <NsI>
0

>  <fragCpx>
11.03

>  <fMF>
0.24

>  <nHBAcc>
3

>  <nHBDon>
0

>  <Kier1>
9.09

>  <Kier2>
4.79

>  <Lipinski>
1

>  <GhoseFilter>
0

>  <FilterItLogS>
-0.95

>  <VMcGowan>
129.95

>  <LabuteASA>
67.32

>  <PEOE_VSA1>
9.74

>  <PEOE_VSA2>
0

>  <PEOE_VSA3>
0

>  <PEOE_VSA4>
0

>  <PEOE_VSA5>
0

>  <PEOE_VSA6>
11.23

>  <PEOE_VSA7>
19.04

>  <PEOE_VSA8>
13.09

>  <PEOE_VSA9>
6.21

>  <PEOE_VSA10>
7.11

>  <PEOE_VSA11>
0

>  <PEOE_VSA12>
0

>  <PEOE_VSA13>
0

>  <SMR_VSA1>
4.84

>  <SMR_VSA2>
0

>  <SMR_VSA3>
4.9

>  <SMR_VSA4>
5.16

>  <SMR_VSA5>
6.42

>  <SMR_VSA6>
27.25

>  <SMR_VSA7>
11.65

>  <SMR_VSA8>
0

>  <SMR_VSA9>
0

>  <SlogP_VSA1>
0

>  <SlogP_VSA2>
38.36

>  <SlogP_VSA3>
4.84

>  <SlogP_VSA4>
0

>  <SlogP_VSA5>
6.42

>  <SlogP_VSA6>
16.8

>  <SlogP_VSA7>
0

>  <SlogP_VSA8>
0

>  <SlogP_VSA9>
0

>  <SlogP_VSA10>
0

>  <SlogP_VSA11>
0

>  <EState_VSA1>
0

>  <EState_VSA2>
0

>  <EState_VSA3>
0

>  <EState_VSA4>
19.51

>  <EState_VSA5>
5.57

>  <EState_VSA6>
13.32

>  <EState_VSA7>
0

>  <EState_VSA8>
28.02

>  <EState_VSA9>
0

>  <EState_VSA10>
0

>  <VSA_EState1>
0

>  <VSA_EState2>
6.85

>  <VSA_EState3>
3.71

>  <VSA_EState4>
1.24

>  <VSA_EState5>
0

>  <VSA_EState6>
0

>  <VSA_EState7>
5.08

>  <VSA_EState8>
2.12

>  <VSA_EState9>
3.66

>  <apol>
25.7

>  <bpol>
17.49

>  <nRing>
1

>  <nHRing>
1

>  <naRing>
0

>  <naHRing>
0

>  <nARing 2>
1

>  <nAHRing 2>
1

>  <nFRing>
0

>  <nFHRing>
0

>  <nFaRing>
0

>  <nFaHRing>
0

>  <nFARing 2>
0

>  <nFAHRing 2>
0

>  <nRot>
2

>  <SLogP>
0.88

>  <SMR>
45.7

>  <TopoPSA(NO)>
24.83

>  <TopoPSA>
24.83

>  <JGI1>
0.18

>  <JGI2>
0.05

>  <JGI3>
0.05

>  <JGI4>
0.04

>  <JGI5>
0.02

>  <Diameter>
7

>  <Radius>
4

>  <TMWC10>
84.99

>  <TSRW10>
40.05

>  <MW>
154.11

>  <AMW>
6.16

>  <WPath>
170

>  <WPol>
11

>  <Zagreb1>
48

>  <Zagreb2>
51

>  <mZagreb2>
2.67

>  <yes>


>  <nAR-cont>
0.816016

>  <nHA-cont>
0.720786536

>  <MWHBN>
0.241660597

>  <MWHBN-cont>
0.972674833

>  <TPSA-cont>
0.826671181

>  <pka_cont>
0.97

>  <yes.1>


>  <BBB_SCORE>
5.134157149

>  <MMFF94 Energy>
43.419

$$$$
Compound 1485
Actelion Java MolfileCreator 2.0

  0  0  0  0  0  0              0 V3000
M  V30 BEGIN CTAB
M  V30 COUNTS 24 24 0 0 0
M  V30 BEGIN ATOM
M  V30 1 O -1.0957 -1.4873 -2.0357 0
M  V30 2 C -0.5526 -1.6548 -0.953 0
M  V30 3 O -0.2988 -2.8585 -0.3793 0
M  V30 4 C -0.088 -0.5316 -0.0957 0
M  V30 5 C -0.7182 -3.9754 -1.163 0
M  V30 6 C 0.3945 -0.7059 1.1498 0
M  V30 7 C -0.2002 0.8347 -0.7281 0
M  V30 8 C 0.8175 0.466 1.9898 0
M  V30 9 N 0.5807 1.8798 -0.0285 0
M  V30 10 C 0.3471 1.8158 1.4201 0
M  V30 11 C 0.2526 3.2016 -0.5574 0
M  V30 12 H -0.4644 -4.8874 -0.6157 0
M  V30 13 H -1.802 -3.9527 -1.314 0
M  V30 14 H -0.1923 -3.9901 -2.1227 0
M  V30 15 H 0.4936 -1.6922 1.5925 0
M  V30 16 H 0.1661 0.7855 -1.761 0
M  V30 17 H -1.2635 1.1085 -0.7631 0
M  V30 18 H 0.4155 0.3491 3.0026 0
M  V30 19 H 1.9112 0.456 2.0697 0
M  V30 20 H -0.7172 1.9642 1.648 0
M  V30 21 H 0.9005 2.6128 1.9316 0
M  V30 22 H 0.459 3.2481 -1.6323 0
M  V30 23 H -0.799 3.4644 -0.3957 0
M  V30 24 H 0.8751 3.9691 -0.0844 0
M  V30 END ATOM
M  V30 BEGIN BOND
M  V30 1 2 1 2
M  V30 2 1 2 3
M  V30 3 1 2 4
M  V30 4 1 3 5
M  V30 5 2 4 6
M  V30 6 1 4 7
M  V30 7 1 6 8
M  V30 8 1 7 9
M  V30 9 1 8 10
M  V30 10 1 9 11
M  V30 11 1 9 10
M  V30 12 1 5 12
M  V30 13 1 5 13
M  V30 14 1 5 14
M  V30 15 1 6 15
M  V30 16 1 7 16
M  V30 17 1 7 17
M  V30 18 1 8 18
M  V30 19 1 8 19
M  V30 20 1 10 20
M  V30 21 1 10 21
M  V30 22 1 11 22
M  V30 23 1 11 23
M  V30 24 1 11 24
M  V30 END BOND
M  V30 END CTAB
M  END
>  <Column 1>
1787

>  <level_0>
1949

>  <index>
1949

>  <Unnamed: 0>
1949

>  <NO.>
1961

>  <Name>
arecoline

>  <IUPAC_name>
methyl 1-methyl-3-6-dihydro-2h-pyridine-5-carboxylate

>  <SMILES>
COC(=O)C1=CCCN(C)C1

>  <CID>
2230

>  <logBB>


>  <BBB+/BBB->
BBB+

>  <Inchi>
InChI=1S/C8H13NO2/c1-9-5-3-4-7(6-9)8(10)11-2/h4H-3-5-6H2-1-2H3

>  <threshold>
-1

>  <reference>
R1|R13|R27|R30|

>  <group>
B

>  <Class>
1

>  <ABC>
7.96

>  <ABCGG>
7.61

>  <nAcid>
0

>  <nBase>
1

>  <nAromAtom>
0

>  <nAromBond>
0

>  <nAtom>
24

>  <nHeavyAtom>
11

>  <nSpiro>
0

>  <nBridgehead>
0

>  <nHetero>
3

>  <nN>
1

>  <nO>
2

>  <nF>
0

>  <BalabanJ>
2.33

>  <BertzCT>
186.53

>  <nBonds>
24

>  <nBondsO>
11

>  <nBondsS>
22

>  <nBondsD>
2

>  <nBondsT>
0

>  <nBondsA>
0

>  <nBondsM>
2

>  <nBondsKS>
22

>  <nBondsKD>
2

>  <RNCG>
0.42

>  <RPCG>
0.3

>  <FCSP3>
0.63

>  <SZ>
14

>  <Sm>
12.92

>  <Sv>
13.71

>  <Sse>
24.1

>  <Sp>
14.81

>  <Si>
27.41

>  <MZ>
0.58

>  <Mm>
0.54

>  <Mv>
0.57

>  <Mse>
1

>  <Mp>
0.62

>  <Mi>
1.14

>  <NsCH3>
2

>  <NdCH2>
0

>  <NssCH2>
3

>  <NtCH>
0

>  <NdsCH>
1

>  <NaaCH>
0

>  <NsssCH>
0

>  <NddC>
0

>  <NtsC>
0

>  <NdssC>
2

>  <NaasC>
0

>  <NaaaC>
0

>  <NssssC>
0

>  <NsNH3>
0

>  <NsNH2>
0

>  <NssNH2>
0

>  <NdNH>
0

>  <NssNH>
0

>  <NaaNH>
0

>  <NtN>
0

>  <NsssNH>
0

>  <NdsN>
0

>  <NaaN>
0

>  <NsssN>
1

>  <NddsN>
0

>  <NaasN>
0

>  <NssssN>
0

>  <NsOH>
0

>  <NdO>
1

>  <NssO>
1

>  <NaaO>
0

>  <NsF>
0

>  <NsSiH3>
0

>  <NssSiH2>
0

>  <NsssSiH>
0

>  <NssssSi>
0

>  <NsPH2>
0

>  <NssPH>
0

>  <NsssP>
0

>  <NdsssP>
0

>  <NsssssP>
0

>  <NsSH>
0

>  <NdS>
0

>  <NssS>
0

>  <NaaS>
0

>  <NdssS>
0

>  <NddssS>
0

>  <NsCl>
0

>  <NsBr>
0

>  <NsI>
0

>  <fragCpx>
11.03

>  <fMF>
0.25

>  <nHBAcc>
3

>  <nHBDon>
0

>  <Kier1>
9.09

>  <Kier2>
4.13

>  <Lipinski>
1

>  <GhoseFilter>
0

>  <FilterItLogS>
-0.8

>  <VMcGowan>
125.84

>  <LabuteASA>
66.63

>  <PEOE_VSA1>
9.64

>  <PEOE_VSA2>
0

>  <PEOE_VSA3>
4.79

>  <PEOE_VSA4>
0

>  <PEOE_VSA5>
0

>  <PEOE_VSA6>
6.08

>  <PEOE_VSA7>
13.47

>  <PEOE_VSA8>
18.66

>  <PEOE_VSA9>
7.11

>  <PEOE_VSA10>
0

>  <PEOE_VSA11>
0

>  <PEOE_VSA12>
0

>  <PEOE_VSA13>
0

>  <SMR_VSA1>
9.53

>  <SMR_VSA2>
0

>  <SMR_VSA3>
4.9

>  <SMR_VSA4>
0

>  <SMR_VSA5>
6.42

>  <SMR_VSA6>
27.25

>  <SMR_VSA7>
11.65

>  <SMR_VSA8>
0

>  <SMR_VSA9>
0

>  <SlogP_VSA1>
0

>  <SlogP_VSA2>
38.12

>  <SlogP_VSA3>
9.53

>  <SlogP_VSA4>
0

>  <SlogP_VSA5>
6.42

>  <SlogP_VSA6>
11.65

>  <SlogP_VSA7>
0

>  <SlogP_VSA8>
0

>  <SlogP_VSA9>
0

>  <SlogP_VSA10>
0

>  <SlogP_VSA11>
0

>  <EState_VSA1>
0

>  <EState_VSA2>
5.97

>  <EState_VSA3>
6.54

>  <EState_VSA4>
18.54

>  <EState_VSA5>
7.11

>  <EState_VSA6>
0

>  <EState_VSA7>
13.12

>  <EState_VSA8>
9.64

>  <EState_VSA9>
0

>  <EState_VSA10>
4.79

>  <VSA_EState1>
4.6

>  <VSA_EState2>
13.1

>  <VSA_EState3>
0

>  <VSA_EState4>
0.78

>  <VSA_EState5>
-0.2

>  <VSA_EState6>
0

>  <VSA_EState7>
2.9

>  <VSA_EState8>
1.74

>  <VSA_EState9>
3.41

>  <apol>
24.73

>  <bpol>
17.36

>  <nRing>
1

>  <nHRing>
1

>  <naRing>
0

>  <naHRing>
0

>  <nARing 2>
1

>  <nAHRing 2>
1

>  <nFRing>
0

>  <nFHRing>
0

>  <nFaRing>
0

>  <nFaHRing>
0

>  <nFARing 2>
0

>  <nFAHRing 2>
0

>  <nRot>
1

>  <SLogP>
0.42

>  <SMR>
42.21

>  <TopoPSA(NO)>
29.54

>  <TopoPSA>
29.54

>  <JGI1>
0.23

>  <JGI2>
0.1

>  <JGI3>
0.05

>  <JGI4>
0.05

>  <JGI5>
0.03

>  <Diameter>
6

>  <Radius>
3

>  <TMWC10>
86.34

>  <TSRW10>
40.59

>  <MW>
155.09

>  <AMW>
6.46

>  <WPath>
156

>  <WPol>
13

>  <Zagreb1>
50

>  <Zagreb2>
55

>  <mZagreb2>
2.61

>  <yes>


>  <nAR-cont>
0.816016

>  <nHA-cont>
0.720786536

>  <MWHBN>
0.240895871

>  <MWHBN-cont>
0.973742804

>  <TPSA-cont>
0.793792457

>  <pka_cont>
0.97

>  <yes.1>


>  <BBB_SCORE>
5.070001656

>  <MMFF94 Energy>
15.458

$$$$
Compound 1486
Actelion Java MolfileCreator 2.0

  0  0  0  0  0  0              0 V3000
M  V30 BEGIN CTAB
M  V30 COUNTS 63 67 0 0 0
M  V30 BEGIN ATOM
M  V30 1 O 1.602 -1.1212 -3.0455 0
M  V30 2 C 2.1836 -1.3782 -2.0011 0
M  V30 3 O 3.5209 -1.1834 -1.7943 0
M  V30 4 C 1.5427 -1.9003 -0.7232 0
M  V30 5 C 4.2196 -0.6982 -2.9419 0
M  V30 6 C 2.0405 -3.3434 -0.4941 0
M  V30 7 C -0.0114 -1.8377 -0.7428 0
M  V30 8 O 1.5669 -4.1331 -1.6006 0
M  V30 9 C 1.5075 -3.8359 0.8743 0
M  V30 10 C -0.6238 -2.4651 0.5371 0
M  V30 11 C -0.5776 -0.4109 -0.9213 0
M  V30 12 C 2.1601 -5.4196 -1.7073 0
M  V30 13 O 2.0562 -5.1267 1.167 0
M  V30 14 C -0.0261 -3.8458 0.8609 0
M  V30 15 C -0.5126 -1.5205 1.7565 0
M  V30 16 C -0.4248 0.4509 0.337 0
M  V30 17 C 1.8981 -5.5332 2.5193 0
M  V30 18 N -1.1149 -0.2203 1.4662 0
M  V30 19 C -0.9888 1.8295 0.1659 0
M  V30 20 C -1.1639 0.6455 2.6679 0
M  V30 21 N -0.8521 2.6333 -0.9331 0
M  V30 22 C -1.6905 2.536 1.1225 0
M  V30 23 C -2.0134 1.9231 2.4408 0
M  V30 24 C -1.4608 3.8492 -0.7022 0
M  V30 25 C -1.9999 3.8122 0.5849 0
M  V30 26 C -1.5765 4.9717 -1.532 0
M  V30 27 C -2.6859 4.9454 1.06 0
M  V30 28 C -2.2614 6.0923 -1.0442 0
M  V30 29 C -2.8092 6.0768 0.2382 0
M  V30 30 O -2.3215 7.1389 -1.9274 0
M  V30 31 C -3.0277 8.2981 -1.5045 0
M  V30 32 H 1.9096 -1.2599 0.0891 0
M  V30 33 H 5.2768 -0.6034 -2.6792 0
M  V30 34 H 4.1314 -1.4051 -3.7728 0
M  V30 35 H 3.844 0.289 -3.2289 0
M  V30 36 H 3.1375 -3.3753 -0.4932 0
M  V30 37 H -0.3606 -2.4229 -1.6053 0
M  V30 38 H 1.8749 -3.1456 1.6438 0
M  V30 39 H -1.6969 -2.6181 0.3489 0
M  V30 40 H -0.1106 0.0839 -1.7782 0
M  V30 41 H -1.6439 -0.4918 -1.179 0
M  V30 42 H 1.6809 -6.1215 -1.0211 0
M  V30 43 H 3.2397 -5.3816 -1.535 0
M  V30 44 H 1.987 -5.7852 -2.7236 0
M  V30 45 H -0.3794 -4.5805 0.1258 0
M  V30 46 H -0.4188 -4.1956 1.8222 0
M  V30 47 H 0.5298 -1.3949 2.0716 0
M  V30 48 H -1.0442 -1.9873 2.5956 0
M  V30 49 H 0.6409 0.5719 0.5743 0
M  V30 50 H 2.469 -6.4544 2.6652 0
M  V30 51 H 0.8501 -5.7468 2.7435 0
M  V30 52 H 2.287 -4.7735 3.2039 0
M  V30 53 H -1.607 0.0995 3.5099 0
M  V30 54 H -0.1453 0.9269 2.968 0
M  V30 55 H -0.3853 2.385 -1.7945 0
M  V30 56 H -3.0784 1.6606 2.4569 0
M  V30 57 H -1.8306 2.6347 3.2535 0
M  V30 58 H -1.1516 4.9795 -2.5306 0
M  V30 59 H -3.1192 4.9461 2.0555 0
M  V30 60 H -3.3447 6.9306 0.6397 0
M  V30 61 H -4.0805 8.0701 -1.3072 0
M  V30 62 H -2.993 9.0267 -2.3203 0
M  V30 63 H -2.5503 8.7544 -0.631 0
M  V30 END ATOM
M  V30 BEGIN BOND
M  V30 1 2 1 2
M  V30 2 1 2 3
M  V30 3 1 2 4
M  V30 4 1 3 5
M  V30 5 1 4 6
M  V30 6 1 4 7
M  V30 7 1 6 8
M  V30 8 1 6 9
M  V30 9 1 7 10
M  V30 10 1 7 11
M  V30 11 1 8 12
M  V30 12 1 9 13
M  V30 13 1 9 14
M  V30 14 1 10 15
M  V30 15 1 11 16
M  V30 16 1 13 17
M  V30 17 1 15 18
M  V30 18 1 16 19
M  V30 19 1 18 20
M  V30 20 1 19 21
M  V30 21 2 19 22
M  V30 22 1 20 23
M  V30 23 1 21 24
M  V30 24 1 22 25
M  V30 25 1 24 26
M  V30 26 1 25 27
M  V30 27 2 26 28
M  V30 28 2 27 29
M  V30 29 1 28 30
M  V30 30 1 30 31
M  V30 31 1 10 14
M  V30 32 1 16 18
M  V30 33 1 22 23
M  V30 34 2 24 25
M  V30 35 1 28 29
M  V30 36 1 4 32
M  V30 37 1 5 33
M  V30 38 1 5 34
M  V30 39 1 5 35
M  V30 40 1 6 36
M  V30 41 1 7 37
M  V30 42 1 9 38
M  V30 43 1 10 39
M  V30 44 1 11 40
M  V30 45 1 11 41
M  V30 46 1 12 42
M  V30 47 1 12 43
M  V30 48 1 12 44
M  V30 49 1 14 45
M  V30 50 1 14 46
M  V30 51 1 15 47
M  V30 52 1 15 48
M  V30 53 1 16 49
M  V30 54 1 17 50
M  V30 55 1 17 51
M  V30 56 1 17 52
M  V30 57 1 20 53
M  V30 58 1 20 54
M  V30 59 1 21 55
M  V30 60 1 23 56
M  V30 61 1 23 57
M  V30 62 1 26 58
M  V30 63 1 27 59
M  V30 64 1 29 60
M  V30 65 1 31 61
M  V30 66 1 31 62
M  V30 67 1 31 63
M  V30 END BOND
M  V30 END CTAB
M  END
>  <Column 1>
1788

>  <level_0>
1950

>  <index>
1950

>  <Unnamed: 0>
1950

>  <NO.>
1962

>  <Name>
metoserpate

>  <IUPAC_name>
methyl 6-17-18-trimethoxy-1-3-11-12-14-15-16-17-18-19-20-21-dodecahydroyohimban-19-carboxylate

>  <SMILES>
COC(=O)C1C2CC3c4[nH]c5cc(OC)ccc5c4CCN3CC2CC(OC)C1OC

>  <CID>
14443

>  <logBB>


>  <BBB+/BBB->
BBB+

>  <Inchi>
InChI=1S/C24H32N2O5/c1-28-14-5-6-15-16-7-8-26-12-13-9-20(29-2)23(30-3)21(24(27)31-4)17(13)11-19(26)22(16)25-18(15)10-14/h5-6-10-13-17-19-21-23-25H-7-9-11-12H2-1-4H3

>  <threshold>
-1

>  <reference>
R1|R19|R27|R27|R30|

>  <group>
B

>  <Class>
1

>  <ABC>
24.45

>  <ABCGG>
18.54

>  <nAcid>
0

>  <nBase>
1

>  <nAromAtom>
9

>  <nAromBond>
10

>  <nAtom>
63

>  <nHeavyAtom>
31

>  <nSpiro>
0

>  <nBridgehead>
0

>  <nHetero>
7

>  <nN>
2

>  <nO>
5

>  <nF>
0

>  <BalabanJ>
1.37

>  <BertzCT>
972.28

>  <nBonds>
67

>  <nBondsO>
35

>  <nBondsS>
56

>  <nBondsD>
1

>  <nBondsT>
0

>  <nBondsA>
10

>  <nBondsM>
11

>  <nBondsKS>
62

>  <nBondsKD>
5

>  <RNCG>
0.18

>  <RPCG>
0.11

>  <FCSP3>
0.63

>  <SZ>
38.33

>  <Sm>
35.68

>  <Sv>
37.76

>  <Sse>
63.19

>  <Sp>
40.5

>  <Si>
71.27

>  <MZ>
0.61

>  <Mm>
0.57

>  <Mv>
0.6

>  <Mse>
1

>  <Mp>
0.64

>  <Mi>
1.13

>  <NsCH3>
4

>  <NdCH2>
0

>  <NssCH2>
5

>  <NtCH>
0

>  <NdsCH>
0

>  <NaaCH>
3

>  <NsssCH>
6

>  <NddC>
0

>  <NtsC>
0

>  <NdssC>
1

>  <NaasC>
3

>  <NaaaC>
2

>  <NssssC>
0

>  <NsNH3>
0

>  <NsNH2>
0

>  <NssNH2>
0

>  <NdNH>
0

>  <NssNH>
0

>  <NaaNH>
1

>  <NtN>
0

>  <NsssNH>
0

>  <NdsN>
0

>  <NaaN>
0

>  <NsssN>
1

>  <NddsN>
0

>  <NaasN>
0

>  <NssssN>
0

>  <NsOH>
0

>  <NdO>
1

>  <NssO>
4

>  <NaaO>
0

>  <NsF>
0

>  <NsSiH3>
0

>  <NssSiH2>
0

>  <NsssSiH>
0

>  <NssssSi>
0

>  <NsPH2>
0

>  <NssPH>
0

>  <NsssP>
0

>  <NdsssP>
0

>  <NsssssP>
0

>  <NsSH>
0

>  <NdS>
0

>  <NssS>
0

>  <NaaS>
0

>  <NdssS>
0

>  <NddssS>
0

>  <NsCl>
0

>  <NsBr>
0

>  <NsI>
0

>  <fragCpx>
295.07

>  <fMF>
0.33

>  <nHBAcc>
6

>  <nHBDon>
1

>  <Kier1>
22.78

>  <Kier2>
9.33

>  <Lipinski>
1

>  <GhoseFilter>
1

>  <FilterItLogS>
-4.19

>  <VMcGowan>
322.53

>  <LabuteASA>
182.52

>  <PEOE_VSA1>
23.93

>  <PEOE_VSA2>
9.69

>  <PEOE_VSA3>
0

>  <PEOE_VSA4>
0

>  <PEOE_VSA5>
0

>  <PEOE_VSA6>
0

>  <PEOE_VSA7>
48.79

>  <PEOE_VSA8>
49.97

>  <PEOE_VSA9>
38.39

>  <PEOE_VSA10>
5.75

>  <PEOE_VSA11>
0

>  <PEOE_VSA12>
0

>  <PEOE_VSA13>
0

>  <SMR_VSA1>
23.74

>  <SMR_VSA2>
0

>  <SMR_VSA3>
9.88

>  <SMR_VSA4>
17.75

>  <SMR_VSA5>
37.51

>  <SMR_VSA6>
41.53

>  <SMR_VSA7>
29.46

>  <SMR_VSA8>
0

>  <SMR_VSA9>
5.75

>  <SlogP_VSA1>
4.74

>  <SlogP_VSA2>
69.59

>  <SlogP_VSA3>
25.43

>  <SlogP_VSA4>
17.75

>  <SlogP_VSA5>
30.14

>  <SlogP_VSA6>
18.2

>  <SlogP_VSA7>
0

>  <SlogP_VSA8>
10.9

>  <SlogP_VSA9>
0

>  <SlogP_VSA10>
0

>  <SlogP_VSA11>
5.75

>  <EState_VSA1>
0

>  <EState_VSA2>
36.05

>  <EState_VSA3>
5.92

>  <EState_VSA4>
43.62

>  <EState_VSA5>
23.75

>  <EState_VSA6>
21.33

>  <EState_VSA7>
6.07

>  <EState_VSA8>
22.02

>  <EState_VSA9>
18.95

>  <EState_VSA10>
4.79

>  <VSA_EState1>
22.2

>  <VSA_EState2>
19.16

>  <VSA_EState3>
1.28

>  <VSA_EState4>
3.82

>  <VSA_EState5>
0.96

>  <VSA_EState6>
6.54

>  <VSA_EState7>
2.49

>  <VSA_EState8>
2.01

>  <VSA_EState9>
6.55

>  <apol>
67.63

>  <bpol>
42.19

>  <nRing>
5

>  <nHRing>
3

>  <naRing>
2

>  <naHRing>
1

>  <nARing 2>
3

>  <nAHRing 2>
2

>  <nFRing>
1

>  <nFHRing>
1

>  <nFaRing>
0

>  <nFaHRing>
0

>  <nFARing 2>
1

>  <nFAHRing 2>
1

>  <nRot>
4

>  <SLogP>
2.93

>  <SMR>
116.18

>  <TopoPSA(NO)>
73.02

>  <TopoPSA>
73.02

>  <JGI1>
0.17

>  <JGI2>
0.08

>  <JGI3>
0.05

>  <JGI4>
0.05

>  <JGI5>
0.03

>  <Diameter>
14

>  <Radius>
7

>  <TMWC10>
145.97

>  <TSRW10>
82

>  <MW>
428.23

>  <AMW>
6.8

>  <WPath>
2495

>  <WPol>
61

>  <Zagreb1>
174

>  <Zagreb2>
217

>  <mZagreb2>
6.94

>  <yes>


>  <nAR-cont>
0.691115

>  <nHA-cont>
0.702745138

>  <MWHBN>
0.338266894

>  <MWHBN-cont>
0.713411781

>  <TPSA-cont>
0.490275057

>  <pka_cont>
0.97

>  <yes.1>


>  <BBB_SCORE>
3.929527923

>  <MMFF94 Energy>
71.084

$$$$
Compound 1487
Actelion Java MolfileCreator 2.0

  0  0  0  0  0  0              0 V3000
M  V30 BEGIN CTAB
M  V30 COUNTS 52 54 0 0 0
M  V30 BEGIN ATOM
M  V30 1 Cl -5.0155 -5.1776 0.0 0
M  V30 2 C -3.7076 -4.8728 -1.0879 0
M  V30 3 C -3.7401 -5.2671 -2.4288 0
M  V30 4 C -2.5845 -4.2069 -0.5837 0
M  V30 5 Cl -5.0892 -6.0961 -3.1202 0
M  V30 6 C -2.6512 -4.9901 -3.2595 0
M  V30 7 C -1.484 -3.9343 -1.4104 0
M  V30 8 C -1.5309 -4.3253 -2.7548 0
M  V30 9 C -0.281 -3.1961 -0.8662 0
M  V30 10 C -0.3685 -1.678 -0.9913 0
M  V30 11 O -1.3269 -1.1268 -1.5351 0
M  V30 12 N 0.688 -0.9365 -0.4635 0
M  V30 13 C 0.5742 0.5517 -0.4879 0 CFG=2
M  V30 14 C 1.7858 -1.5018 0.3442 0
M  V30 15 C 1.9521 1.2352 -0.6571 0
M  V30 16 C -0.1826 1.059 0.7721 0
M  V30 17 C 3.1205 -0.783 0.1172 0
M  V30 18 N 2.9528 0.6559 0.2406 0
M  V30 19 N -0.4818 2.4974 0.764 0
M  V30 20 C 3.6222 1.3574 1.2198 0
M  V30 21 C -1.0354 2.9459 2.044 0
M  V30 22 C -1.494 2.8699 -0.2291 0
M  V30 23 O 4.3922 0.8388 2.0202 0
M  V30 24 O 3.3296 2.6836 1.2055 0
M  V30 25 C -1.5876 4.3209 1.7083 0
M  V30 26 C -1.9519 4.2478 0.2302 0
M  V30 27 C 3.9826 3.444 2.2209 0
M  V30 28 H -2.5721 -3.8915 0.4575 0
M  V30 29 H -2.6711 -5.2838 -4.3063 0
M  V30 30 H -0.7005 -4.1051 -3.423 0
M  V30 31 H -0.1582 -3.4593 0.1911 0
M  V30 32 H 0.6154 -3.5397 -1.396 0
M  V30 33 H -0.0226 0.8202 -1.3676 0
M  V30 34 H 1.4808 -1.4057 1.393 0
M  V30 35 H 1.918 -2.5663 0.1407 0
M  V30 36 H 2.317 1.0514 -1.6756 0
M  V30 37 H 1.876 2.3197 -0.5431 0
M  V30 38 H 0.4349 0.8359 1.6521 0
M  V30 39 H -1.1073 0.4801 0.9011 0
M  V30 40 H 3.4843 -0.9807 -0.8979 0
M  V30 41 H 3.8712 -1.1609 0.818 0
M  V30 42 H -0.2726 2.9994 2.8272 0
M  V30 43 H -1.8466 2.2912 2.3874 0
M  V30 44 H -1.0864 2.91 -1.2437 0
M  V30 45 H -2.3451 2.1771 -0.221 0
M  V30 46 H -0.8237 5.0922 1.863 0
M  V30 47 H -2.4518 4.5749 2.3301 0
M  V30 48 H -1.4318 5.0393 -0.3213 0
M  V30 49 H -3.0274 4.3804 0.0738 0
M  V30 50 H 3.6885 3.091 3.2143 0
M  V30 51 H 5.0689 3.3968 2.097 0
M  V30 52 H 3.6681 4.4863 2.1183 0
M  V30 END ATOM
M  V30 BEGIN BOND
M  V30 1 1 1 2
M  V30 2 2 2 3
M  V30 3 1 2 4
M  V30 4 1 3 5
M  V30 5 1 3 6
M  V30 6 2 4 7
M  V30 7 2 6 8
M  V30 8 1 7 9
M  V30 9 1 9 10
M  V30 10 2 10 11
M  V30 11 1 10 12
M  V30 12 1 12 13
M  V30 13 1 12 14
M  V30 14 1 13 15
M  V30 15 1 13 16
M  V30 16 1 14 17
M  V30 17 1 15 18
M  V30 18 1 16 19
M  V30 19 1 18 20
M  V30 20 1 19 21
M  V30 21 1 19 22
M  V30 22 2 20 23
M  V30 23 1 20 24
M  V30 24 1 21 25
M  V30 25 1 22 26
M  V30 26 1 24 27
M  V30 27 1 7 8
M  V30 28 1 17 18
M  V30 29 1 25 26
M  V30 30 1 4 28
M  V30 31 1 6 29
M  V30 32 1 8 30
M  V30 33 1 9 31
M  V30 34 1 9 32
M  V30 35 1 13 33
M  V30 36 1 14 34
M  V30 37 1 14 35
M  V30 38 1 15 36
M  V30 39 1 15 37
M  V30 40 1 16 38
M  V30 41 1 16 39
M  V30 42 1 17 40
M  V30 43 1 17 41
M  V30 44 1 21 42
M  V30 45 1 21 43
M  V30 46 1 22 44
M  V30 47 1 22 45
M  V30 48 1 25 46
M  V30 49 1 25 47
M  V30 50 1 26 48
M  V30 51 1 26 49
M  V30 52 1 27 50
M  V30 53 1 27 51
M  V30 54 1 27 52
M  V30 END BOND
M  V30 BEGIN COLLECTION
M  V30 MDLV30/STEABS ATOMS=(1 13)
M  V30 END COLLECTION
M  V30 END CTAB
M  END
>  <Column 1>
1789

>  <level_0>
1951

>  <index>
1951

>  <Unnamed: 0>
1951

>  <NO.>
1963

>  <Name>
gr89696

>  <IUPAC_name>
methyl (3s)-4-[2-(3-4-dichlorophenyl)acetyl]-3-(pyrrolidin-1-ylmethyl)piperazine-1-carboxylate

>  <SMILES>
COC(=O)N1CCN(C(=O)Cc2ccc(Cl)c(Cl)c2)[C@@H](CN2CCCC2)C1

>  <CID>
15645963

>  <logBB>


>  <BBB+/BBB->
BBB+

>  <Inchi>
InChI=1S/C19H25Cl2N3O3/c1-27-19(26)23-8-9-24(15(13-23)12-22-6-2-3-7-22)18(25)11-14-4-5-16(20)17(21)10-14/h4-5-10-15H-2-3-6-9-11-13H2-1H3/t15-/m0/s1

>  <threshold>
-1

>  <reference>
R1|R13|R9|R24|R27|R30|

>  <group>
B

>  <Class>
1

>  <ABC>
20.78

>  <ABCGG>
17.15

>  <nAcid>
0

>  <nBase>
1

>  <nAromAtom>
6

>  <nAromBond>
6

>  <nAtom>
52

>  <nHeavyAtom>
27

>  <nSpiro>
0

>  <nBridgehead>
0

>  <nHetero>
8

>  <nN>
3

>  <nO>
3

>  <nF>
0

>  <BalabanJ>
1.59

>  <BertzCT>
694.78

>  <nBonds>
54

>  <nBondsO>
29

>  <nBondsS>
46

>  <nBondsD>
2

>  <nBondsT>
0

>  <nBondsA>
6

>  <nBondsM>
8

>  <nBondsKS>
49

>  <nBondsKD>
5

>  <RNCG>
0.2

>  <RPCG>
0.18

>  <FCSP3>
0.58

>  <SZ>
36.33

>  <Sm>
34.5

>  <Sv>
32.37

>  <Sse>
52.61

>  <Sp>
35.01

>  <Si>
58.99

>  <MZ>
0.7

>  <Mm>
0.66

>  <Mv>
0.62

>  <Mse>
1.01

>  <Mp>
0.67

>  <Mi>
1.13

>  <NsCH3>
1

>  <NdCH2>
0

>  <NssCH2>
9

>  <NtCH>
0

>  <NdsCH>
0

>  <NaaCH>
3

>  <NsssCH>
1

>  <NddC>
0

>  <NtsC>
0

>  <NdssC>
2

>  <NaasC>
3

>  <NaaaC>
0

>  <NssssC>
0

>  <NsNH3>
0

>  <NsNH2>
0

>  <NssNH2>
0

>  <NdNH>
0

>  <NssNH>
0

>  <NaaNH>
0

>  <NtN>
0

>  <NsssNH>
0

>  <NdsN>
0

>  <NaaN>
0

>  <NsssN>
3

>  <NddsN>
0

>  <NaasN>
0

>  <NssssN>
0

>  <NsOH>
0

>  <NdO>
2

>  <NssO>
1

>  <NaaO>
0

>  <NsF>
0

>  <NsSiH3>
0

>  <NssSiH2>
0

>  <NsssSiH>
0

>  <NssssSi>
0

>  <NsPH2>
0

>  <NssPH>
0

>  <NsssP>
0

>  <NdsssP>
0

>  <NsssssP>
0

>  <NsSH>
0

>  <NdS>
0

>  <NssS>
0

>  <NaaS>
0

>  <NdssS>
0

>  <NddssS>
0

>  <NsCl>
2

>  <NsBr>
0

>  <NsI>
0

>  <fragCpx>
139.08

>  <fMF>
0.38

>  <nHBAcc>
4

>  <nHBDon>
0

>  <Kier1>
21.7

>  <Kier2>
10.16

>  <Lipinski>
1

>  <GhoseFilter>
1

>  <FilterItLogS>
-3.92

>  <VMcGowan>
296.52

>  <LabuteASA>
169.49

>  <PEOE_VSA1>
19.44

>  <PEOE_VSA2>
4.79

>  <PEOE_VSA3>
4.79

>  <PEOE_VSA4>
0

>  <PEOE_VSA5>
0

>  <PEOE_VSA6>
29.27

>  <PEOE_VSA7>
43.63

>  <PEOE_VSA8>
26.18

>  <PEOE_VSA9>
29.62

>  <PEOE_VSA10>
0

>  <PEOE_VSA11>
0

>  <PEOE_VSA12>
5.91

>  <PEOE_VSA13>
0

>  <SMR_VSA1>
14.33

>  <SMR_VSA2>
0

>  <SMR_VSA3>
14.7

>  <SMR_VSA4>
0

>  <SMR_VSA5>
25.3

>  <SMR_VSA6>
46.38

>  <SMR_VSA7>
33.81

>  <SMR_VSA8>
0

>  <SMR_VSA9>
0

>  <SlogP_VSA1>
0

>  <SlogP_VSA2>
79.12

>  <SlogP_VSA3>
15.95

>  <SlogP_VSA4>
0

>  <SlogP_VSA5>
18.41

>  <SlogP_VSA6>
18.2

>  <SlogP_VSA7>
10.05

>  <SlogP_VSA8>
0

>  <SlogP_VSA9>
0

>  <SlogP_VSA10>
4.79

>  <SlogP_VSA11>
0

>  <EState_VSA1>
0

>  <EState_VSA2>
24.46

>  <EState_VSA3>
29.68

>  <EState_VSA4>
25.2

>  <EState_VSA5>
19.95

>  <EState_VSA6>
17.03

>  <EState_VSA7>
10.97

>  <EState_VSA8>
4.9

>  <EState_VSA9>
27.94

>  <EState_VSA10>
9.59

>  <VSA_EState1>
4.87

>  <VSA_EState2>
30.89

>  <VSA_EState3>
0.93

>  <VSA_EState4>
0.84

>  <VSA_EState5>
0.04

>  <VSA_EState6>
5.24

>  <VSA_EState7>
2.3

>  <VSA_EState8>
4.36

>  <VSA_EState9>
1.39

>  <apol>
58.47

>  <bpol>
34.7

>  <nRing>
3

>  <nHRing>
2

>  <naRing>
1

>  <naHRing>
0

>  <nARing 2>
2

>  <nAHRing 2>
2

>  <nFRing>
0

>  <nFHRing>
0

>  <nFaRing>
0

>  <nFaHRing>
0

>  <nFARing 2>
0

>  <nFAHRing 2>
0

>  <nRot>
4

>  <SLogP>
2.91

>  <SMR>
105.32

>  <TopoPSA(NO)>
53.09

>  <TopoPSA>
53.09

>  <JGI1>
0.21

>  <JGI2>
0.08

>  <JGI3>
0.05

>  <JGI4>
0.04

>  <JGI5>
0.03

>  <Diameter>
13

>  <Radius>
7

>  <TMWC10>
131.27

>  <TSRW10>
75

>  <MW>
413.13

>  <AMW>
7.94

>  <WPath>
1919

>  <WPol>
40

>  <Zagreb1>
138

>  <Zagreb2>
160

>  <mZagreb2>
6.03

>  <yes>


>  <nAR-cont>
1

>  <nHA-cont>
0.860070871

>  <MWHBN>
0.196796162

>  <MWHBN-cont>
0.998820156

>  <TPSA-cont>
0.629398833

>  <pka_cont>
0.97

>  <yes.1>


>  <BBB_SCORE>
5.102098771

>  <MMFF94 Energy>
47.177

$$$$
Compound 1488
Actelion Java MolfileCreator 2.0

  0  0  0  0  0  0              0 V3000
M  V30 BEGIN CTAB
M  V30 COUNTS 55 58 0 0 0
M  V30 BEGIN ATOM
M  V30 1 O 1.4543 0.5653 -4.854 0
M  V30 2 C 1.3679 0.0343 -3.7471 0
M  V30 3 C 2.4511 0.1166 -2.7158 0
M  V30 4 C 0.0886 -0.676 -3.3581 0
M  V30 5 C 3.7871 0.646 -3.14 0
M  V30 6 C 2.0611 1.0313 -1.5264 0
M  V30 7 C 0.1054 -1.4112 -2.0191 0
M  V30 8 O 4.3992 0.3686 -4.1584 0
M  V30 9 C 4.3789 1.4625 -2.0734 0
M  V30 10 C 3.42 1.6152 -1.1555 0
M  V30 11 C 1.4047 0.1804 -0.3766 0 CFG=2
M  V30 12 C 1.1769 2.2326 -1.9437 0
M  V30 13 C 0.0415 -0.5108 -0.7525 0
M  V30 14 C 1.2992 1.0023 0.9455 0
M  V30 15 C -0.4202 -1.384 0.455 0 CFG=1
M  V30 16 O 2.4117 0.659 1.7729 0
M  V30 17 C -0.0103 0.8311 1.7146 0
M  V30 18 C -0.507 -0.6232 1.8133 0
M  V30 19 C -1.7926 -2.0661 0.2689 0
M  V30 20 C -2.0141 -0.7245 2.2398 0 CFG=1
M  V30 21 C 0.3874 -1.3775 2.8404 0
M  V30 22 C -2.4512 -2.0623 1.6412 0
M  V30 23 O -2.1208 -0.7792 3.6636 0
M  V30 24 C -2.9617 0.3721 1.6646 0
M  V30 25 O -2.9241 0.8301 0.5304 0
M  V30 26 O -3.8996 0.7105 2.6037 0
M  V30 27 C -4.8323 1.6991 2.163 0
M  V30 28 H 2.6835 -0.9037 -2.384 0
M  V30 29 H -0.728 0.0537 -3.3736 0
M  V30 30 H -0.1065 -1.4107 -4.1488 0
M  V30 31 H -0.7769 -2.0603 -2.0435 0
M  V30 32 H 0.9593 -2.0952 -1.9523 0
M  V30 33 H 5.3939 1.8172 -2.0722 0
M  V30 34 H 3.5862 2.1791 -0.2445 0
M  V30 35 H 2.1088 -0.6424 -0.1737 0
M  V30 36 H 1.1069 2.9881 -1.154 0
M  V30 37 H 0.1545 1.9347 -2.1892 0
M  V30 38 H 1.5862 2.7434 -2.8243 0
M  V30 39 H -0.7166 0.2621 -0.925 0
M  V30 40 H 1.4064 2.0735 0.7543 0
M  V30 41 H 0.3155 -2.1963 0.5497 0
M  V30 42 H 2.3216 1.1393 2.6148 0
M  V30 43 H -0.7414 1.4573 1.1971 0
M  V30 44 H 0.0833 1.2552 2.7226 0
M  V30 45 H -1.6879 -3.0886 -0.1089 0
M  V30 46 H -2.4145 -1.5167 -0.4466 0
M  V30 47 H 0.4388 -0.8435 3.7957 0
M  V30 48 H 1.412 -1.4982 2.4752 0
M  V30 49 H 0.0105 -2.3857 3.0435 0
M  V30 50 H -2.1001 -2.9057 2.2471 0
M  V30 51 H -3.5396 -2.1602 1.5631 0
M  V30 52 H -3.0675 -0.676 3.879 0
M  V30 53 H -5.5172 1.9102 2.9888 0
M  V30 54 H -4.3132 2.6254 1.898 0
M  V30 55 H -5.4152 1.3235 1.3163 0
M  V30 END ATOM
M  V30 BEGIN BOND
M  V30 1 2 1 2
M  V30 2 1 2 3
M  V30 3 1 2 4
M  V30 4 1 3 5
M  V30 5 1 3 6
M  V30 6 1 4 7
M  V30 7 2 5 8
M  V30 8 1 5 9
M  V30 9 1 6 10
M  V30 10 1 6 11
M  V30 11 1 6 12
M  V30 12 1 7 13
M  V30 13 1 11 14
M  V30 14 1 13 15
M  V30 15 1 14 16
M  V30 16 1 14 17
M  V30 17 1 15 18
M  V30 18 1 15 19
M  V30 19 1 18 20
M  V30 20 1 18 21
M  V30 21 1 19 22
M  V30 22 1 20 23
M  V30 23 1 20 24
M  V30 24 2 24 25
M  V30 25 1 24 26
M  V30 26 1 26 27
M  V30 27 2 9 10
M  V30 28 1 11 13
M  V30 29 1 17 18
M  V30 30 1 20 22
M  V30 31 1 3 28
M  V30 32 1 4 29
M  V30 33 1 4 30
M  V30 34 1 7 31
M  V30 35 1 7 32
M  V30 36 1 9 33
M  V30 37 1 10 34
M  V30 38 1 11 35
M  V30 39 1 12 36
M  V30 40 1 12 37
M  V30 41 1 12 38
M  V30 42 1 13 39
M  V30 43 1 14 40
M  V30 44 1 15 41
M  V30 45 1 16 42
M  V30 46 1 17 43
M  V30 47 1 17 44
M  V30 48 1 19 45
M  V30 49 1 19 46
M  V30 50 1 21 47
M  V30 51 1 21 48
M  V30 52 1 21 49
M  V30 53 1 22 50
M  V30 54 1 22 51
M  V30 55 1 23 52
M  V30 56 1 27 53
M  V30 57 1 27 54
M  V30 58 1 27 55
M  V30 END BOND
M  V30 BEGIN COLLECTION
M  V30 MDLV30/STEABS ATOMS=(3 11 15 20)
M  V30 END COLLECTION
M  V30 END CTAB
M  END
>  <Column 1>
1790

>  <level_0>
1952

>  <index>
1952

>  <Unnamed: 0>
1952

>  <NO.>
1964

>  <Name>
oxisopred

>  <IUPAC_name>
methyl (1s-11s-14r)-14-17-dihydroxy-2-15-dimethyl-5-7-dioxotetracyclo[8.7.0.02-6.011-15]heptadec-3-ene-14-carboxylate

>  <SMILES>
COC(=O)[C@@]1(O)CC[C@H]2C3CCC(=O)C4C(=O)C=CC4(C)[C@H]3C(O)CC21C

>  <CID>
3047809

>  <logBB>


>  <BBB+/BBB->
BBB+

>  <Inchi>
InChI=1S/C21H28O6/c1-19-8-7-14(23)17(19)13(22)5-4-11-12-6-9-21(26-18(25)27-3)20(12-2)10-15(24)16(11)19/h7-8-11-12-15-17-24-26H-4-6-9-10H2-1-3H3/t11?-12--15?-16+-17?-19?-20?-21-/m0/s1

>  <threshold>
-1

>  <reference>
R1|R27|R30|

>  <group>
B

>  <Class>
-1

>  <ABC>
21.58

>  <ABCGG>
18.98

>  <nAcid>
0

>  <nBase>
0

>  <nAromAtom>
0

>  <nAromBond>
0

>  <nAtom>
55

>  <nHeavyAtom>
27

>  <nSpiro>
0

>  <nBridgehead>
0

>  <nHetero>
6

>  <nN>
0

>  <nO>
6

>  <nF>
0

>  <BalabanJ>
1.75

>  <BertzCT>
742.95

>  <nBonds>
58

>  <nBondsO>
30

>  <nBondsS>
54

>  <nBondsD>
4

>  <nBondsT>
0

>  <nBondsA>
0

>  <nBondsM>
4

>  <nBondsKS>
54

>  <nBondsKD>
4

>  <RNCG>
0.19

>  <RPCG>
0.14

>  <FCSP3>
0.76

>  <SZ>
33.67

>  <Sm>
31.34

>  <Sv>
32.87

>  <Sse>
55.41

>  <Sp>
35.06

>  <Si>
62.07

>  <MZ>
0.61

>  <Mm>
0.57

>  <Mv>
0.6

>  <Mse>
1.01

>  <Mp>
0.64

>  <Mi>
1.13

>  <NsCH3>
3

>  <NdCH2>
0

>  <NssCH2>
5

>  <NtCH>
0

>  <NdsCH>
2

>  <NaaCH>
0

>  <NsssCH>
5

>  <NddC>
0

>  <NtsC>
0

>  <NdssC>
3

>  <NaasC>
0

>  <NaaaC>
0

>  <NssssC>
3

>  <NsNH3>
0

>  <NsNH2>
0

>  <NssNH2>
0

>  <NdNH>
0

>  <NssNH>
0

>  <NaaNH>
0

>  <NtN>
0

>  <NsssNH>
0

>  <NdsN>
0

>  <NaaN>
0

>  <NsssN>
0

>  <NddsN>
0

>  <NaasN>
0

>  <NssssN>
0

>  <NsOH>
2

>  <NdO>
3

>  <NssO>
1

>  <NaaO>
0

>  <NsF>
0

>  <NsSiH3>
0

>  <NssSiH2>
0

>  <NsssSiH>
0

>  <NssssSi>
0

>  <NsPH2>
0

>  <NssPH>
0

>  <NsssP>
0

>  <NdsssP>
0

>  <NsssssP>
0

>  <NsSH>
0

>  <NdS>
0

>  <NssS>
0

>  <NaaS>
0

>  <NdssS>
0

>  <NddssS>
0

>  <NsCl>
0

>  <NsBr>
0

>  <NsI>
0

>  <fragCpx>
198.06

>  <fMF>
0.31

>  <nHBAcc>
6

>  <nHBDon>
2

>  <Kier1>
20.28

>  <Kier2>
6.5

>  <Lipinski>
1

>  <GhoseFilter>
1

>  <FilterItLogS>
-2.36

>  <VMcGowan>
281.33

>  <LabuteASA>
158.51

>  <PEOE_VSA1>
14.95

>  <PEOE_VSA2>
9.59

>  <PEOE_VSA3>
4.79

>  <PEOE_VSA4>
0

>  <PEOE_VSA5>
0

>  <PEOE_VSA6>
19.92

>  <PEOE_VSA7>
49.51

>  <PEOE_VSA8>
17.25

>  <PEOE_VSA9>
19.13

>  <PEOE_VSA10>
5.78

>  <PEOE_VSA11>
11.38

>  <PEOE_VSA12>
0

>  <PEOE_VSA13>
0

>  <SMR_VSA1>
29.33

>  <SMR_VSA2>
0

>  <SMR_VSA3>
0

>  <SMR_VSA4>
34.5

>  <SMR_VSA5>
57.66

>  <SMR_VSA6>
7.11

>  <SMR_VSA7>
12.15

>  <SMR_VSA8>
0

>  <SMR_VSA9>
0

>  <SlogP_VSA1>
0

>  <SlogP_VSA2>
46.56

>  <SlogP_VSA3>
19.12

>  <SlogP_VSA4>
34.5

>  <SlogP_VSA5>
45.95

>  <SlogP_VSA6>
12.15

>  <SlogP_VSA7>
0

>  <SlogP_VSA8>
0

>  <SlogP_VSA9>
0

>  <SlogP_VSA10>
0

>  <SlogP_VSA11>
0

>  <EState_VSA1>
34.42

>  <EState_VSA2>
35.74

>  <EState_VSA3>
25.68

>  <EState_VSA4>
0

>  <EState_VSA5>
13.19

>  <EState_VSA6>
0

>  <EState_VSA7>
19.92

>  <EState_VSA8>
0

>  <EState_VSA9>
4.74

>  <EState_VSA10>
24.6

>  <VSA_EState1>
4.89

>  <VSA_EState2>
37.55

>  <VSA_EState3>
22.41

>  <VSA_EState4>
-3.15

>  <VSA_EState5>
-1.88

>  <VSA_EState6>
0

>  <VSA_EState7>
4.56

>  <VSA_EState8>
3.77

>  <VSA_EState9>
1.27

>  <apol>
58.55

>  <bpol>
32.43

>  <nRing>
4

>  <nHRing>
0

>  <naRing>
0

>  <naHRing>
0

>  <nARing 2>
4

>  <nAHRing 2>
0

>  <nFRing>
1

>  <nFHRing>
0

>  <nFaRing>
0

>  <nFaHRing>
0

>  <nFARing 2>
1

>  <nFAHRing 2>
0

>  <nRot>
1

>  <SLogP>
1.43

>  <SMR>
95.39

>  <TopoPSA(NO)>
100.9

>  <TopoPSA>
100.9

>  <JGI1>
0.28

>  <JGI2>
0.15

>  <JGI3>
0.08

>  <JGI4>
0.05

>  <JGI5>
0.04

>  <Diameter>
11

>  <Radius>
6

>  <TMWC10>
137.7

>  <TSRW10>
80.3

>  <MW>
376.19

>  <AMW>
6.84

>  <WPath>
1517

>  <WPol>
64

>  <Zagreb1>
160

>  <Zagreb2>
207

>  <mZagreb2>
5.66

>  <yes>


>  <nAR-cont>
0.199399

>  <nHA-cont>
0.860070871

>  <MWHBN>
0.412464299

>  <MWHBN-cont>
0.427200618

>  <TPSA-cont>
0.295655345

>  <pka_cont>
0.97

>  <yes.1>


>  <BBB_SCORE>
2.776581489

>  <MMFF94 Energy>
113.42

$$$$
Compound 1489
Actelion Java MolfileCreator 2.0

  0  0  0  0  0  0              0 V3000
M  V30 BEGIN CTAB
M  V30 COUNTS 52 56 0 0 0
M  V30 BEGIN ATOM
M  V30 1 O -3.3786 2.7344 0.241 0
M  V30 2 C -2.6487 2.0991 0.9922 0
M  V30 3 O -1.6962 2.6383 1.8011 0
M  V30 4 C -2.6795 0.5916 1.1388 0 CFG=1
M  V30 5 C -1.5909 4.0603 1.7142 0
M  V30 6 C -4.1458 0.1197 1.1534 0 CFG=1
M  V30 7 C -1.8797 -0.1197 0.0291 0 CFG=2
M  V30 8 O -4.8085 0.413 -0.0796 0
M  V30 9 C -4.2154 -1.3966 1.3478 0
M  V30 10 C -1.9477 -1.6478 0.2408 0 CFG=1
M  V30 11 C -0.4066 0.3116 -0.0267 0
M  V30 12 C -3.4004 -2.1425 0.2866 0
M  V30 13 C -1.1509 -2.3732 -0.8533 0
M  V30 14 C 0.3768 -0.4803 -1.0949 0 CFG=2
M  V30 15 N 0.2492 -1.9505 -0.9447 0
M  V30 16 C 1.8266 -0.1053 -1.0559 0
M  V30 17 C 1.0906 -2.4957 0.1466 0
M  V30 18 N 2.3559 1.0807 -1.483 0
M  V30 19 C 2.8586 -0.8877 -0.5817 0
M  V30 20 C 2.6061 -2.271 -0.0939 0
M  V30 21 C 3.7175 1.0918 -1.2622 0
M  V30 22 C 4.0602 -0.141 -0.6989 0
M  V30 23 C 4.6643 2.0893 -1.525 0
M  V30 24 C 5.411 -0.3911 -0.3891 0
M  V30 25 C 5.9979 1.8183 -1.2038 0
M  V30 26 C 6.3686 0.5971 -0.6449 0
M  V30 27 H -2.2447 0.3444 2.1178 0
M  V30 28 H -0.8029 4.3841 2.3997 0
M  V30 29 H -1.3134 4.3617 0.6994 0
M  V30 30 H -2.5304 4.5332 2.0171 0
M  V30 31 H -4.705 0.6201 1.9525 0
M  V30 32 H -2.3287 0.1271 -0.9437 0
M  V30 33 H -4.7304 1.3773 -0.2366 0
M  V30 34 H -3.8425 -1.6582 2.3453 0
M  V30 35 H -5.2571 -1.7337 1.2869 0
M  V30 36 H -1.4968 -1.886 1.2146 0
M  V30 37 H 0.0542 0.1892 0.9626 0
M  V30 38 H -0.3428 1.3813 -0.2632 0
M  V30 39 H -3.4213 -3.2162 0.5083 0
M  V30 40 H -3.8708 -2.0153 -0.6964 0
M  V30 41 H -1.2038 -3.4587 -0.7019 0
M  V30 42 H -1.6257 -2.1942 -1.8273 0
M  V30 43 H -0.0153 -0.2136 -2.0858 0
M  V30 44 H 0.9296 -3.577 0.239 0
M  V30 45 H 0.8121 -2.0518 1.1106 0
M  V30 46 H 1.8372 1.843 -1.8956 0
M  V30 47 H 2.9637 -2.9816 -0.8491 0
M  V30 48 H 3.1575 -2.4613 0.8332 0
M  V30 49 H 4.3808 3.0393 -1.9655 0
M  V30 50 H 5.7086 -1.3412 0.0434 0
M  V30 51 H 6.7576 2.572 -1.3972 0
M  V30 52 H 7.4118 0.4063 -0.4065 0
M  V30 END ATOM
M  V30 BEGIN BOND
M  V30 1 2 1 2
M  V30 2 1 2 3
M  V30 3 1 2 4
M  V30 4 1 3 5
M  V30 5 1 4 6
M  V30 6 1 4 7
M  V30 7 1 6 8
M  V30 8 1 6 9
M  V30 9 1 7 10
M  V30 10 1 7 11
M  V30 11 1 9 12
M  V30 12 1 10 13
M  V30 13 1 11 14
M  V30 14 1 13 15
M  V30 15 1 14 16
M  V30 16 1 15 17
M  V30 17 1 16 18
M  V30 18 2 16 19
M  V30 19 1 17 20
M  V30 20 1 18 21
M  V30 21 1 19 22
M  V30 22 1 21 23
M  V30 23 1 22 24
M  V30 24 2 23 25
M  V30 25 2 24 26
M  V30 26 1 10 12
M  V30 27 1 14 15
M  V30 28 1 19 20
M  V30 29 2 21 22
M  V30 30 1 25 26
M  V30 31 1 4 27
M  V30 32 1 5 28
M  V30 33 1 5 29
M  V30 34 1 5 30
M  V30 35 1 6 31
M  V30 36 1 7 32
M  V30 37 1 8 33
M  V30 38 1 9 34
M  V30 39 1 9 35
M  V30 40 1 10 36
M  V30 41 1 11 37
M  V30 42 1 11 38
M  V30 43 1 12 39
M  V30 44 1 12 40
M  V30 45 1 13 41
M  V30 46 1 13 42
M  V30 47 1 14 43
M  V30 48 1 17 44
M  V30 49 1 17 45
M  V30 50 1 18 46
M  V30 51 1 20 47
M  V30 52 1 20 48
M  V30 53 1 23 49
M  V30 54 1 24 50
M  V30 55 1 25 51
M  V30 56 1 26 52
M  V30 END BOND
M  V30 BEGIN COLLECTION
M  V30 MDLV30/STEABS ATOMS=(5 4 6 7 10 14)
M  V30 END COLLECTION
M  V30 END CTAB
M  END
>  <Column 1>
1791

>  <level_0>
1953

>  <index>
1953

>  <Unnamed: 0>
1953

>  <NO.>
1965

>  <Name>
yohimbine

>  <IUPAC_name>
methyl (1s-15r-18s-19r-20s)-18-hydroxy-1-3-11-12-14-15-16-17-18-19-20-21-dodecahydroyohimban-19-carboxylate

>  <SMILES>
COC(=O)[C@H]1[C@@H](O)CC[C@H]2CN3CCc4c([nH]c5ccccc45)[C@@H]3C[C@@H]21

>  <CID>
8969

>  <logBB>


>  <BBB+/BBB->
BBB-

>  <Inchi>
InChI=1S/C21H26N2O3/c1-26-21(25)19-15-10-17-20-14(13-4-2-3-5-16(13)22-20)8-9-23(17)11-12(15)6-7-18(19)24/h2-5-12-15-17-19-22-24H-6-11H2-1H3/t12--15--17--18--19+/m0/s1

>  <threshold>
-1

>  <reference>
R1|R27|R30|

>  <group>
B

>  <Class>
1

>  <ABC>
21.07

>  <ABCGG>
15.87

>  <nAcid>
0

>  <nBase>
1

>  <nAromAtom>
9

>  <nAromBond>
10

>  <nAtom>
52

>  <nHeavyAtom>
26

>  <nSpiro>
0

>  <nBridgehead>
0

>  <nHetero>
5

>  <nN>
2

>  <nO>
3

>  <nF>
0

>  <BalabanJ>
1.37

>  <BertzCT>
844.89

>  <nBonds>
56

>  <nBondsO>
30

>  <nBondsS>
45

>  <nBondsD>
1

>  <nBondsT>
0

>  <nBondsA>
10

>  <nBondsM>
11

>  <nBondsKS>
51

>  <nBondsKD>
5

>  <RNCG>
0.22

>  <RPCG>
0.14

>  <FCSP3>
0.57

>  <SZ>
31.67

>  <Sm>
29.51

>  <Sv>
31.7

>  <Sse>
51.86

>  <Sp>
34.14

>  <Si>
58.61

>  <MZ>
0.61

>  <Mm>
0.57

>  <Mv>
0.61

>  <Mse>
1

>  <Mp>
0.66

>  <Mi>
1.13

>  <NsCH3>
1

>  <NdCH2>
0

>  <NssCH2>
6

>  <NtCH>
0

>  <NdsCH>
0

>  <NaaCH>
4

>  <NsssCH>
5

>  <NddC>
0

>  <NtsC>
0

>  <NdssC>
1

>  <NaasC>
2

>  <NaaaC>
2

>  <NssssC>
0

>  <NsNH3>
0

>  <NsNH2>
0

>  <NssNH2>
0

>  <NdNH>
0

>  <NssNH>
0

>  <NaaNH>
1

>  <NtN>
0

>  <NsssNH>
0

>  <NdsN>
0

>  <NaaN>
0

>  <NsssN>
1

>  <NddsN>
0

>  <NaasN>
0

>  <NssssN>
0

>  <NsOH>
1

>  <NdO>
1

>  <NssO>
1

>  <NaaO>
0

>  <NsF>
0

>  <NsSiH3>
0

>  <NssSiH2>
0

>  <NsssSiH>
0

>  <NssssSi>
0

>  <NsPH2>
0

>  <NssPH>
0

>  <NsssP>
0

>  <NdsssP>
0

>  <NsssssP>
0

>  <NsSH>
0

>  <NdS>
0

>  <NssS>
0

>  <NaaS>
0

>  <NdssS>
0

>  <NddssS>
0

>  <NsCl>
0

>  <NsBr>
0

>  <NsI>
0

>  <fragCpx>
250.05

>  <fMF>
0.4

>  <nHBAcc>
4

>  <nHBDon>
2

>  <Kier1>
18.06

>  <Kier2>
7.11

>  <Lipinski>
1

>  <GhoseFilter>
1

>  <FilterItLogS>
-3.37

>  <VMcGowan>
268.52

>  <LabuteASA>
152.88

>  <PEOE_VSA1>
14.83

>  <PEOE_VSA2>
9.69

>  <PEOE_VSA3>
0

>  <PEOE_VSA4>
0

>  <PEOE_VSA5>
0

>  <PEOE_VSA6>
18.2

>  <PEOE_VSA7>
49.15

>  <PEOE_VSA8>
29.69

>  <PEOE_VSA9>
25.17

>  <PEOE_VSA10>
0

>  <PEOE_VSA11>
0

>  <PEOE_VSA12>
0

>  <PEOE_VSA13>
0

>  <SMR_VSA1>
14.64

>  <SMR_VSA2>
0

>  <SMR_VSA3>
9.88

>  <SMR_VSA4>
17.75

>  <SMR_VSA5>
37.83

>  <SMR_VSA6>
20.2

>  <SMR_VSA7>
35.52

>  <SMR_VSA8>
0

>  <SMR_VSA9>
0

>  <SlogP_VSA1>
0

>  <SlogP_VSA2>
47.26

>  <SlogP_VSA3>
15.95

>  <SlogP_VSA4>
17.75

>  <SlogP_VSA5>
36.56

>  <SlogP_VSA6>
24.27

>  <SlogP_VSA7>
0

>  <SlogP_VSA8>
10.9

>  <SlogP_VSA9>
0

>  <SlogP_VSA10>
0

>  <SlogP_VSA11>
0

>  <EState_VSA1>
6.1

>  <EState_VSA2>
17.81

>  <EState_VSA3>
18.38

>  <EState_VSA4>
32.35

>  <EState_VSA5>
29.27

>  <EState_VSA6>
0

>  <EState_VSA7>
0

>  <EState_VSA8>
34.15

>  <EState_VSA9>
4.74

>  <EState_VSA10>
9.9

>  <VSA_EState1>
5.04

>  <VSA_EState2>
18.62

>  <VSA_EState3>
11.82

>  <VSA_EState4>
3.96

>  <VSA_EState5>
0.05

>  <VSA_EState6>
8.83

>  <VSA_EState7>
3.14

>  <VSA_EState8>
2.1

>  <VSA_EState9>
1.43

>  <apol>
57.01

>  <bpol>
30.97

>  <nRing>
5

>  <nHRing>
3

>  <naRing>
2

>  <naHRing>
1

>  <nARing 2>
3

>  <nAHRing 2>
2

>  <nFRing>
1

>  <nFHRing>
1

>  <nFaRing>
0

>  <nFaHRing>
0

>  <nFARing 2>
1

>  <nFAHRing 2>
1

>  <nRot>
1

>  <SLogP>
2.65

>  <SMR>
98.66

>  <TopoPSA(NO)>
65.56

>  <TopoPSA>
65.56

>  <JGI1>
0.15

>  <JGI2>
0.08

>  <JGI3>
0.05

>  <JGI4>
0.04

>  <JGI5>
0.02

>  <Diameter>
11

>  <Radius>
6

>  <TMWC10>
134.54

>  <TSRW10>
76.26

>  <MW>
354.19

>  <AMW>
6.81

>  <WPath>
1517

>  <WPol>
50

>  <Zagreb1>
150

>  <Zagreb2>
187

>  <mZagreb2>
5.58

>  <yes>


>  <nAR-cont>
0.691115

>  <nHA-cont>
0.892715677

>  <MWHBN>
0.318810857

>  <MWHBN-cont>
0.781141743

>  <TPSA-cont>
0.54235049

>  <pka_cont>
0.97

>  <yes.1>


>  <BBB_SCORE>
4.325244271

>  <MMFF94 Energy>
38.479

$$$$
Compound 1490
Actelion Java MolfileCreator 2.0

  0  0  0  0  0  0              0 V3000
M  V30 BEGIN CTAB
M  V30 COUNTS 88 93 0 0 0
M  V30 BEGIN ATOM
M  V30 1 O 3.282 2.8012 -0.0799 0
M  V30 2 C 2.1465 2.9626 0.3406 0
M  V30 3 O 1.2843 1.9907 0.7206 0
M  V30 4 C 1.5525 4.3082 0.4849 0
M  V30 5 C 1.7768 0.634 0.6355 0 CFG=1
M  V30 6 C 0.2925 4.5429 0.884 0
M  V30 7 C 1.0282 -0.2183 1.6846 0 CFG=2
M  V30 8 C 1.5519 0.1296 -0.7918 0
M  V30 9 C -0.2733 5.8925 1.027 0
M  V30 10 O 1.5133 0.1514 2.9932 0
M  V30 11 C 1.3381 -1.7111 1.4995 0 CFG=1
M  V30 12 C 1.8911 -1.3605 -0.9365 0 CFG=1
M  V30 13 C -0.048 6.8938 0.0694 0
M  V30 14 C -1.1016 6.1602 2.1277 0
M  V30 15 C 0.6207 1.0063 3.6969 0
M  V30 16 C 0.5445 -2.5345 2.4961 0
M  V30 17 C 1.1011 -2.2229 0.0636 0 CFG=2
M  V30 18 C 1.6586 -1.8611 -2.3693 0
M  V30 19 C -0.621 8.16 0.2143 0
M  V30 20 C -1.6842 7.4193 2.2926 0
M  V30 21 O -0.5964 -2.285 2.864 0
M  V30 22 O 1.2611 -3.6314 2.8729 0
M  V30 23 C -0.3848 -2.2756 -0.3466 0
M  V30 24 N 0.2363 -1.8788 -2.741 0
M  V30 25 O -0.455 9.1995 -0.6643 0
M  V30 26 C -1.4523 8.4059 1.3199 0
M  V30 27 O -2.4987 7.7745 3.3369 0
M  V30 28 C 0.5946 -4.4673 3.8192 0
M  V30 29 C -0.5977 -2.687 -1.8131 0 CFG=1
M  V30 30 C 0.0636 -2.3547 -4.1416 0
M  V30 31 C 0.5294 9.0491 -1.6776 0
M  V30 32 O -1.9892 9.6633 1.4939 0
M  V30 33 C -2.5819 6.8778 4.4358 0
M  V30 34 C -0.4155 -4.1543 -2.0833 0
M  V30 35 C 0.4625 -3.8323 -4.4065 0
M  V30 36 C -3.2664 9.7346 0.8626 0
M  V30 37 N -0.7409 -5.1871 -1.2471 0
M  V30 38 C 0.0398 -4.6991 -3.2686 0
M  V30 39 C -0.4623 -6.393 -1.8571 0
M  V30 40 C 0.0302 -6.1115 -3.1331 0
M  V30 41 C -0.6164 -7.7029 -1.3746 0
M  V30 42 C 0.3892 -7.1832 -3.9695 0
M  V30 43 C -0.2531 -8.7569 -2.2209 0
M  V30 44 C 0.2427 -8.4942 -3.4992 0
M  V30 45 O -0.3367 -10.0899 -1.9127 0
M  V30 46 C -0.8434 -10.423 -0.627 0
M  V30 47 H 2.2384 5.1128 0.2415 0
M  V30 48 H 2.8474 0.6183 0.8815 0
M  V30 49 H -0.3741 3.724 1.1446 0
M  V30 50 H -0.0518 -0.0303 1.6233 0
M  V30 51 H 2.17 0.7139 -1.4852 0
M  V30 52 H 0.5176 0.3393 -1.0917 0
M  V30 53 H 2.3994 -1.8539 1.7534 0
M  V30 54 H 2.9619 -1.4777 -0.7181 0
M  V30 55 H 0.5658 6.6621 -0.7945 0
M  V30 56 H -1.2758 5.3691 2.8502 0
M  V30 57 H -0.3331 0.4999 3.8723 0
M  V30 58 H 1.0686 1.2444 4.6655 0
M  V30 59 H 0.4567 1.9397 3.153 0
M  V30 60 H 1.4894 -3.25 0.0113 0
M  V30 61 H 2.2035 -1.2051 -3.0601 0
M  V30 62 H 2.1152 -2.8542 -2.4606 0
M  V30 63 H -0.9346 -2.9562 0.3126 0
M  V30 64 H -0.8437 -1.2899 -0.1994 0
M  V30 65 H 1.2677 -5.289 4.0788 0
M  V30 66 H 0.3629 -3.908 4.7312 0
M  V30 67 H -0.3149 -4.8894 3.3806 0
M  V30 68 H -1.6489 -2.463 -2.0455 0
M  V30 69 H -0.9937 -2.2232 -4.4101 0
M  V30 70 H 0.6177 -1.7015 -4.8272 0
M  V30 71 H 1.5131 8.8304 -1.249 0
M  V30 72 H 0.6044 9.9996 -2.2146 0
M  V30 73 H 0.2327 8.2821 -2.4002 0
M  V30 74 H -3.0936 5.9535 4.1486 0
M  V30 75 H -3.1797 7.3592 5.2159 0
M  V30 76 H -1.5925 6.6687 4.8561 0
M  V30 77 H 0.0 -4.1735 -5.3393 0
M  V30 78 H 1.5495 -3.9067 -4.528 0
M  V30 79 H -3.1889 9.5693 -0.2174 0
M  V30 80 H -3.6618 10.7425 1.0212 0
M  V30 81 H -3.9717 9.0225 1.3048 0
M  V30 82 H -1.131 -5.0977 -0.3194 0
M  V30 83 H -1.0055 -7.8659 -0.3778 0
M  V30 84 H 0.7755 -7.0021 -4.9675 0
M  V30 85 H 0.5206 -9.3235 -4.1456 0
M  V30 86 H -0.1978 -10.0308 0.1656 0
M  V30 87 H -0.8487 -11.5139 -0.5421 0
M  V30 88 H -1.8748 -10.0751 -0.5064 0
M  V30 END ATOM
M  V30 BEGIN BOND
M  V30 1 2 1 2
M  V30 2 1 2 3
M  V30 3 1 2 4
M  V30 4 1 3 5
M  V30 5 2 4 6
M  V30 6 1 5 7
M  V30 7 1 5 8
M  V30 8 1 6 9
M  V30 9 1 7 10
M  V30 10 1 7 11
M  V30 11 1 8 12
M  V30 12 2 9 13
M  V30 13 1 9 14
M  V30 14 1 10 15
M  V30 15 1 11 16
M  V30 16 1 11 17
M  V30 17 1 12 18
M  V30 18 1 13 19
M  V30 19 2 14 20
M  V30 20 2 16 21
M  V30 21 1 16 22
M  V30 22 1 17 23
M  V30 23 1 18 24
M  V30 24 1 19 25
M  V30 25 2 19 26
M  V30 26 1 20 27
M  V30 27 1 22 28
M  V30 28 1 23 29
M  V30 29 1 24 30
M  V30 30 1 25 31
M  V30 31 1 26 32
M  V30 32 1 27 33
M  V30 33 1 29 34
M  V30 34 1 30 35
M  V30 35 1 32 36
M  V30 36 1 34 37
M  V30 37 2 34 38
M  V30 38 1 37 39
M  V30 39 1 38 40
M  V30 40 1 39 41
M  V30 41 1 40 42
M  V30 42 2 41 43
M  V30 43 2 42 44
M  V30 44 1 43 45
M  V30 45 1 45 46
M  V30 46 1 12 17
M  V30 47 1 20 26
M  V30 48 1 24 29
M  V30 49 1 35 38
M  V30 50 2 39 40
M  V30 51 1 43 44
M  V30 52 1 4 47
M  V30 53 1 5 48
M  V30 54 1 6 49
M  V30 55 1 7 50
M  V30 56 1 8 51
M  V30 57 1 8 52
M  V30 58 1 11 53
M  V30 59 1 12 54
M  V30 60 1 13 55
M  V30 61 1 14 56
M  V30 62 1 15 57
M  V30 63 1 15 58
M  V30 64 1 15 59
M  V30 65 1 17 60
M  V30 66 1 18 61
M  V30 67 1 18 62
M  V30 68 1 23 63
M  V30 69 1 23 64
M  V30 70 1 28 65
M  V30 71 1 28 66
M  V30 72 1 28 67
M  V30 73 1 29 68
M  V30 74 1 30 69
M  V30 75 1 30 70
M  V30 76 1 31 71
M  V30 77 1 31 72
M  V30 78 1 31 73
M  V30 79 1 33 74
M  V30 80 1 33 75
M  V30 81 1 33 76
M  V30 82 1 35 77
M  V30 83 1 35 78
M  V30 84 1 36 79
M  V30 85 1 36 80
M  V30 86 1 36 81
M  V30 87 1 37 82
M  V30 88 1 41 83
M  V30 89 1 42 84
M  V30 90 1 44 85
M  V30 91 1 46 86
M  V30 92 1 46 87
M  V30 93 1 46 88
M  V30 END BOND
M  V30 BEGIN COLLECTION
M  V30 MDLV30/STEABS ATOMS=(6 5 7 11 12 17 29)
M  V30 END COLLECTION
M  V30 END CTAB
M  END
>  <Column 1>
1792

>  <level_0>
1954

>  <index>
1954

>  <Unnamed: 0>
1954

>  <NO.>
1966

>  <Name>
rescinnamine

>  <IUPAC_name>
methyl (1r-15s-17r-18r-19s-20s)-6-18-dimethoxy-17-[(e)-3-(3-4-5-trimethoxyphenyl)prop-2-enoyl]oxy-1-3-11-12-14-15-16-17-18-19-20-21-dodecahydroyohimban-19-carboxylate

>  <SMILES>
COC(=O)[C@H]1[C@H]2C[C@@H]3c4[nH]c5cc(OC)ccc5c4CCN3C[C@H]2C[C@@H](OC(=O)/C=C/c2cc(OC)c(OC)c(OC)c2)[C@@H]1OC

>  <CID>
5280954

>  <logBB>


>  <BBB+/BBB->
BBB+

>  <Inchi>
InChI=1S/C35H42N2O9/c1-40-21-8-9-22-23-11-12-37-18-20-15-29(46-30(38)10-7-19-13-27(41-2)33(43-4)28(14-19)42-3)34(44-5)31(35(39)45-6)24(20)17-26(37)32(23)36-25(22)16-21/h7-10-13-14-16-20-24-26-29-31-34-36H-11-12-15-17-18H2-1-6H3/b10-7+/t20--24+-26--29--31+-34+/m1/s1

>  <threshold>
-1

>  <reference>
R1|R27|R30|

>  <group>
B

>  <Class>
1

>  <ABC>
35.8

>  <ABCGG>
25.71

>  <nAcid>
0

>  <nBase>
1

>  <nAromAtom>
15

>  <nAromBond>
16

>  <nAtom>
88

>  <nHeavyAtom>
46

>  <nSpiro>
0

>  <nBridgehead>
0

>  <nHetero>
11

>  <nN>
2

>  <nO>
9

>  <nF>
0

>  <BalabanJ>
1.11

>  <BertzCT>
1606.45

>  <nBonds>
93

>  <nBondsO>
51

>  <nBondsS>
74

>  <nBondsD>
3

>  <nBondsT>
0

>  <nBondsA>
16

>  <nBondsM>
19

>  <nBondsKS>
83

>  <nBondsKD>
10

>  <RNCG>
0.11

>  <RPCG>
0.07

>  <FCSP3>
0.49

>  <SZ>
56.33

>  <Sm>
52.85

>  <Sv>
54.33

>  <Sse>
88.95

>  <Sp>
57.41

>  <Si>
99.19

>  <MZ>
0.64

>  <Mm>
0.6

>  <Mv>
0.62

>  <Mse>
1.01

>  <Mp>
0.65

>  <Mi>
1.13

>  <NsCH3>
6

>  <NdCH2>
0

>  <NssCH2>
5

>  <NtCH>
0

>  <NdsCH>
2

>  <NaaCH>
5

>  <NsssCH>
6

>  <NddC>
0

>  <NtsC>
0

>  <NdssC>
2

>  <NaasC>
7

>  <NaaaC>
2

>  <NssssC>
0

>  <NsNH3>
0

>  <NsNH2>
0

>  <NssNH2>
0

>  <NdNH>
0

>  <NssNH>
0

>  <NaaNH>
1

>  <NtN>
0

>  <NsssNH>
0

>  <NdsN>
0

>  <NaaN>
0

>  <NsssN>
1

>  <NddsN>
0

>  <NaasN>
0

>  <NssssN>
0

>  <NsOH>
0

>  <NdO>
2

>  <NssO>
7

>  <NaaO>
0

>  <NsF>
0

>  <NsSiH3>
0

>  <NssSiH2>
0

>  <NsssSiH>
0

>  <NssssSi>
0

>  <NsPH2>
0

>  <NssPH>
0

>  <NsssP>
0

>  <NdsssP>
0

>  <NsssssP>
0

>  <NsSH>
0

>  <NdS>
0

>  <NssS>
0

>  <NaaS>
0

>  <NdssS>
0

>  <NddssS>
0

>  <NsCl>
0

>  <NsBr>
0

>  <NsI>
0

>  <fragCpx>
531.11

>  <fMF>
0.35

>  <nHBAcc>
10

>  <nHBDon>
1

>  <Kier1>
35.81

>  <Kier2>
15.91

>  <Lipinski>
0

>  <GhoseFilter>
0

>  <FilterItLogS>
-6.19

>  <VMcGowan>
468.64

>  <LabuteASA>
268.21

>  <PEOE_VSA1>
38.14

>  <PEOE_VSA2>
9.69

>  <PEOE_VSA3>
4.79

>  <PEOE_VSA4>
0

>  <PEOE_VSA5>
0

>  <PEOE_VSA6>
0

>  <PEOE_VSA7>
72.57

>  <PEOE_VSA8>
48.94

>  <PEOE_VSA9>
47.51

>  <PEOE_VSA10>
17.96

>  <PEOE_VSA11>
11.5

>  <PEOE_VSA12>
5.75

>  <PEOE_VSA13>
0

>  <SMR_VSA1>
42.75

>  <SMR_VSA2>
0

>  <SMR_VSA3>
9.88

>  <SMR_VSA4>
17.75

>  <SMR_VSA5>
37.51

>  <SMR_VSA6>
55.75

>  <SMR_VSA7>
53.23

>  <SMR_VSA8>
0

>  <SMR_VSA9>
23

>  <SlogP_VSA1>
18.95

>  <SlogP_VSA2>
89.78

>  <SlogP_VSA3>
30.22

>  <SlogP_VSA4>
17.75

>  <SlogP_VSA5>
35.7

>  <SlogP_VSA6>
36.41

>  <SlogP_VSA7>
0

>  <SlogP_VSA8>
16.98

>  <SlogP_VSA9>
0

>  <SlogP_VSA10>
0

>  <SlogP_VSA11>
23

>  <EState_VSA1>
24.1

>  <EState_VSA2>
23.85

>  <EState_VSA3>
29.23

>  <EState_VSA4>
37.2

>  <EState_VSA5>
51.16

>  <EState_VSA6>
32.43

>  <EState_VSA7>
12.13

>  <EState_VSA8>
15.95

>  <EState_VSA9>
33.16

>  <EState_VSA10>
9.59

>  <VSA_EState1>
38.99

>  <VSA_EState2>
32.77

>  <VSA_EState3>
1.21

>  <VSA_EState4>
4.26

>  <VSA_EState5>
0.87

>  <VSA_EState6>
9.78

>  <VSA_EState7>
4.01

>  <VSA_EState8>
1.7

>  <VSA_EState9>
9.24

>  <apol>
95.87

>  <bpol>
58.3

>  <nRing>
6

>  <nHRing>
3

>  <naRing>
3

>  <naHRing>
1

>  <nARing 2>
3

>  <nAHRing 2>
2

>  <nFRing>
1

>  <nFHRing>
1

>  <nFaRing>
0

>  <nFaHRing>
0

>  <nFARing 2>
1

>  <nFAHRing 2>
1

>  <nRot>
9

>  <SLogP>
4.57

>  <SMR>
170.4

>  <TopoPSA(NO)>
117.78

>  <TopoPSA>
117.78

>  <JGI1>
0.19

>  <JGI2>
0.08

>  <JGI3>
0.05

>  <JGI4>
0.05

>  <JGI5>
0.03

>  <Diameter>
22

>  <Radius>
11

>  <TMWC10>
179.65

>  <TSRW10>
98.65

>  <MW>
634.29

>  <AMW>
7.21

>  <WPath>
8298

>  <WPol>
87

>  <Zagreb1>
250

>  <Zagreb2>
306

>  <mZagreb2>
10.42

>  <yes>


>  <nAR-cont>
0.691115

>  <nHA-cont>
0

>  <MWHBN>
0.436765929

>  <MWHBN-cont>
0.334288191

>  <TPSA-cont>
0.177822463

>  <pka_cont>
0.97

>  <yes.1>


>  <BBB_SCORE>
2.033192213

>  <MMFF94 Energy>
105.44

$$$$
Compound 1491
Actelion Java MolfileCreator 2.0

  0  0  0  0  0  0              0 V3000
M  V30 BEGIN CTAB
M  V30 COUNTS 84 89 0 0 0
M  V30 BEGIN ATOM
M  V30 1 O -3.7674 -2.7243 0.6405 0
M  V30 2 C -3.7243 -1.5325 0.3815 0
M  V30 3 O -2.742 -0.903 -0.3082 0
M  V30 4 C -4.7748 -0.5643 0.8018 0
M  V30 5 C -1.6792 -1.7437 -0.8155 0 CFG=1
M  V30 6 C -4.6701 0.8112 0.5425 0
M  V30 7 C -5.8944 -1.071 1.4807 0
M  V30 8 C -1.0752 -1.054 -2.0584 0 CFG=2
M  V30 9 C -0.6474 -1.9404 0.2984 0
M  V30 10 C -5.6807 1.6823 0.953 0
M  V30 11 C -6.9135 -0.2153 1.8992 0
M  V30 12 O -2.0285 -1.1644 -3.1364 0
M  V30 13 C 0.2084 -1.7613 -2.5191 0 CFG=1
M  V30 14 C 0.5873 -2.7051 -0.1951 0 CFG=1
M  V30 15 O -5.677 3.0376 0.7472 0
M  V30 16 C -6.8055 1.1566 1.6133 0
M  V30 17 O -8.0423 -0.6101 2.5687 0
M  V30 18 C -2.7255 0.0484 -3.3922 0
M  V30 19 C 0.8398 -0.9859 -3.6607 0
M  V30 20 C 1.2347 -1.9813 -1.3889 0 CFG=2
M  V30 21 C 1.6044 -2.9566 0.943 0
M  V30 22 C -4.4898 3.6228 0.2305 0
M  V30 23 O -7.7838 2.0179 2.0607 0
M  V30 24 C -8.1173 -1.9668 2.9862 0
M  V30 25 O 0.8308 0.2345 -3.765 0
M  V30 26 O 1.4661 -1.8394 -4.5184 0
M  V30 27 C 1.9544 -0.6853 -0.9377 0
M  V30 28 N 2.8331 -2.1633 0.8191 0
M  V30 29 C -8.7985 2.1567 1.0676 0
M  V30 30 C 2.1213 -1.1922 -5.6093 0
M  V30 31 C 2.526 -0.7561 0.4915 0 CFG=1
M  V30 32 C 3.6795 -2.2999 2.0281 0
M  V30 33 C 3.753 0.0917 0.6401 0
M  V30 34 C 5.0693 -1.6352 1.864 0
M  V30 35 N 3.8977 1.383 0.2106 0
M  V30 36 C 4.9192 -0.2751 1.2798 0
M  V30 37 C 5.1484 1.852 0.5526 0
M  V30 38 C 5.8128 0.8253 1.2261 0
M  V30 39 C 5.7391 3.0998 0.317 0
M  V30 40 C 7.1235 1.0578 1.682 0
M  V30 41 C 7.0443 3.3158 0.7775 0
M  V30 42 C 7.727 2.3042 1.4524 0
M  V30 43 O 7.5351 4.5653 0.5001 0
M  V30 44 C 8.8608 4.8458 0.9301 0
M  V30 45 H -2.0976 -2.7108 -1.1261 0
M  V30 46 H -3.7974 1.186 0.02 0
M  V30 47 H -5.9456 -2.1398 1.6678 0
M  V30 48 H -0.8852 0.0049 -1.8389 0
M  V30 49 H -0.3748 -0.9643 0.7169 0
M  V30 50 H -1.1105 -2.4882 1.1287 0
M  V30 51 H -0.0871 -2.7399 -2.9257 0
M  V30 52 H 0.2412 -3.6889 -0.5431 0
M  V30 53 H -2.0273 0.8315 -3.7022 0
M  V30 54 H -3.4313 -0.1286 -4.208 0
M  V30 55 H -3.287 0.3717 -2.5122 0
M  V30 56 H 2.0156 -2.6457 -1.7889 0
M  V30 57 H 1.1257 -2.7897 1.9168 0
M  V30 58 H 1.8866 -4.0169 0.9148 0
M  V30 59 H -3.63 3.4138 0.8756 0
M  V30 60 H -4.6336 4.7074 0.2084 0
M  V30 61 H -4.3045 3.2911 -0.7961 0
M  V30 62 H -8.1676 -2.64 2.1244 0
M  V30 63 H -9.0421 -2.0898 3.5581 0
M  V30 64 H -7.2818 -2.2266 3.6446 0
M  V30 65 H 1.2745 0.1741 -0.9847 0
M  V30 66 H 2.7532 -0.4804 -1.6638 0
M  V30 67 H -8.3949 2.5773 0.1401 0
M  V30 68 H -9.5508 2.8514 1.4531 0
M  V30 69 H -9.2942 1.2011 0.8656 0
M  V30 70 H 2.5765 -1.9632 -6.2367 0
M  V30 71 H 1.3995 -0.6345 -6.2142 0
M  V30 72 H 2.913 -0.5317 -5.2422 0
M  V30 73 H 1.7856 -0.369 1.2053 0
M  V30 74 H 3.8414 -3.3613 2.2528 0
M  V30 75 H 3.1652 -1.8612 2.8945 0
M  V30 76 H 5.6908 -2.2434 1.1958 0
M  V30 77 H 5.5697 -1.5859 2.8372 0
M  V30 78 H 3.2061 1.9199 -0.294 0
M  V30 79 H 5.2062 3.8848 -0.2097 0
M  V30 80 H 7.667 0.2786 2.2074 0
M  V30 81 H 8.7382 2.4451 1.8187 0
M  V30 82 H 8.942 4.7916 2.0207 0
M  V30 83 H 9.0994 5.8707 0.6299 0
M  V30 84 H 9.5826 4.1807 0.4449 0
M  V30 END ATOM
M  V30 BEGIN BOND
M  V30 1 2 1 2
M  V30 2 1 2 3
M  V30 3 1 2 4
M  V30 4 1 3 5
M  V30 5 2 4 6
M  V30 6 1 4 7
M  V30 7 1 5 8
M  V30 8 1 5 9
M  V30 9 1 6 10
M  V30 10 2 7 11
M  V30 11 1 8 12
M  V30 12 1 8 13
M  V30 13 1 9 14
M  V30 14 1 10 15
M  V30 15 2 10 16
M  V30 16 1 11 17
M  V30 17 1 12 18
M  V30 18 1 13 19
M  V30 19 1 13 20
M  V30 20 1 14 21
M  V30 21 1 15 22
M  V30 22 1 16 23
M  V30 23 1 17 24
M  V30 24 2 19 25
M  V30 25 1 19 26
M  V30 26 1 20 27
M  V30 27 1 21 28
M  V30 28 1 23 29
M  V30 29 1 26 30
M  V30 30 1 27 31
M  V30 31 1 28 32
M  V30 32 1 31 33
M  V30 33 1 32 34
M  V30 34 1 33 35
M  V30 35 2 33 36
M  V30 36 1 35 37
M  V30 37 1 36 38
M  V30 38 1 37 39
M  V30 39 1 38 40
M  V30 40 2 39 41
M  V30 41 2 40 42
M  V30 42 1 41 43
M  V30 43 1 43 44
M  V30 44 1 11 16
M  V30 45 1 14 20
M  V30 46 1 28 31
M  V30 47 1 34 36
M  V30 48 2 37 38
M  V30 49 1 41 42
M  V30 50 1 5 45
M  V30 51 1 6 46
M  V30 52 1 7 47
M  V30 53 1 8 48
M  V30 54 1 9 49
M  V30 55 1 9 50
M  V30 56 1 13 51
M  V30 57 1 14 52
M  V30 58 1 18 53
M  V30 59 1 18 54
M  V30 60 1 18 55
M  V30 61 1 20 56
M  V30 62 1 21 57
M  V30 63 1 21 58
M  V30 64 1 22 59
M  V30 65 1 22 60
M  V30 66 1 22 61
M  V30 67 1 24 62
M  V30 68 1 24 63
M  V30 69 1 24 64
M  V30 70 1 27 65
M  V30 71 1 27 66
M  V30 72 1 29 67
M  V30 73 1 29 68
M  V30 74 1 29 69
M  V30 75 1 30 70
M  V30 76 1 30 71
M  V30 77 1 30 72
M  V30 78 1 31 73
M  V30 79 1 32 74
M  V30 80 1 32 75
M  V30 81 1 34 76
M  V30 82 1 34 77
M  V30 83 1 35 78
M  V30 84 1 39 79
M  V30 85 1 40 80
M  V30 86 1 42 81
M  V30 87 1 44 82
M  V30 88 1 44 83
M  V30 89 1 44 84
M  V30 END BOND
M  V30 BEGIN COLLECTION
M  V30 MDLV30/STEABS ATOMS=(6 5 8 13 14 20 31)
M  V30 END COLLECTION
M  V30 END CTAB
M  END
>  <Column 1>
1793

>  <level_0>
1955

>  <index>
1955

>  <Unnamed: 0>
1955

>  <NO.>
1967

>  <Name>
reserpine

>  <IUPAC_name>
methyl (1r-15s-17r-18r-19s-20s)-6-18-dimethoxy-17-(3-4-5-trimethoxybenzoyl)oxy-1-3-11-12-14-15-16-17-18-19-20-21-dodecahydroyohimban-19-carboxylate

>  <SMILES>
COC(=O)[C@H]1[C@H]2C[C@@H]3c4[nH]c5cc(OC)ccc5c4CCN3C[C@H]2C[C@@H](OC(=O)c2cc(OC)c(OC)c(OC)c2)[C@@H]1OC

>  <CID>
5770

>  <logBB>


>  <BBB+/BBB->
BBB+

>  <Inchi>
InChI=1S/C33H40N2O9/c1-38-19-7-8-20-21-9-10-35-16-18-13-27(44-32(36)17-11-25(39-2)30(41-4)26(12-17)40-3)31(42-5)28(33(37)43-6)22(18)15-24(35)29(21)34-23(20)14-19/h7-8-11-12-14-18-22-24-27-28-31-34H-9-10-13-15-16H2-1-6H3/t18--22+-24--27--28+-31+/m1/s1

>  <threshold>
-1

>  <reference>
R1|R6|R27|R30|R34|

>  <group>
B

>  <Class>
1

>  <ABC>
34.34

>  <ABCGG>
25.18

>  <nAcid>
0

>  <nBase>
1

>  <nAromAtom>
15

>  <nAromBond>
16

>  <nAtom>
84

>  <nHeavyAtom>
44

>  <nSpiro>
0

>  <nBridgehead>
0

>  <nHetero>
11

>  <nN>
2

>  <nO>
9

>  <nF>
0

>  <BalabanJ>
1.18

>  <BertzCT>
1526.48

>  <nBonds>
89

>  <nBondsO>
49

>  <nBondsS>
71

>  <nBondsD>
2

>  <nBondsT>
0

>  <nBondsA>
16

>  <nBondsM>
18

>  <nBondsKS>
80

>  <nBondsKD>
9

>  <RNCG>
0.11

>  <RPCG>
0.07

>  <FCSP3>
0.52

>  <SZ>
54

>  <Sm>
50.68

>  <Sv>
51.79

>  <Sse>
85.06

>  <Sp>
54.61

>  <Si>
94.77

>  <MZ>
0.64

>  <Mm>
0.6

>  <Mv>
0.62

>  <Mse>
1.01

>  <Mp>
0.65

>  <Mi>
1.13

>  <NsCH3>
6

>  <NdCH2>
0

>  <NssCH2>
5

>  <NtCH>
0

>  <NdsCH>
0

>  <NaaCH>
5

>  <NsssCH>
6

>  <NddC>
0

>  <NtsC>
0

>  <NdssC>
2

>  <NaasC>
7

>  <NaaaC>
2

>  <NssssC>
0

>  <NsNH3>
0

>  <NsNH2>
0

>  <NssNH2>
0

>  <NdNH>
0

>  <NssNH>
0

>  <NaaNH>
1

>  <NtN>
0

>  <NsssNH>
0

>  <NdsN>
0

>  <NaaN>
0

>  <NsssN>
1

>  <NddsN>
0

>  <NaasN>
0

>  <NssssN>
0

>  <NsOH>
0

>  <NdO>
2

>  <NssO>
7

>  <NaaO>
0

>  <NsF>
0

>  <NsSiH3>
0

>  <NssSiH2>
0

>  <NsssSiH>
0

>  <NssssSi>
0

>  <NsPH2>
0

>  <NssPH>
0

>  <NsssP>
0

>  <NdsssP>
0

>  <NsssssP>
0

>  <NsSH>
0

>  <NdS>
0

>  <NssS>
0

>  <NaaS>
0

>  <NdssS>
0

>  <NddssS>
0

>  <NsCl>
0

>  <NsBr>
0

>  <NsI>
0

>  <fragCpx>
509.11

>  <fMF>
0.35

>  <nHBAcc>
10

>  <nHBDon>
1

>  <Kier1>
33.88

>  <Kier2>
14.63

>  <Lipinski>
0

>  <GhoseFilter>
0

>  <FilterItLogS>
-6.14

>  <VMcGowan>
444.76

>  <LabuteASA>
256.17

>  <PEOE_VSA1>
38.14

>  <PEOE_VSA2>
9.69

>  <PEOE_VSA3>
4.79

>  <PEOE_VSA4>
0

>  <PEOE_VSA5>
0

>  <PEOE_VSA6>
0

>  <PEOE_VSA7>
60.93

>  <PEOE_VSA8>
42.86

>  <PEOE_VSA9>
53.07

>  <PEOE_VSA10>
17.96

>  <PEOE_VSA11>
11.5

>  <PEOE_VSA12>
5.75

>  <PEOE_VSA13>
0

>  <SMR_VSA1>
42.75

>  <SMR_VSA2>
0

>  <SMR_VSA3>
9.88

>  <SMR_VSA4>
17.75

>  <SMR_VSA5>
37.51

>  <SMR_VSA6>
55.75

>  <SMR_VSA7>
47.15

>  <SMR_VSA8>
0

>  <SMR_VSA9>
23

>  <SlogP_VSA1>
18.95

>  <SlogP_VSA2>
89.78

>  <SlogP_VSA3>
25.43

>  <SlogP_VSA4>
17.75

>  <SlogP_VSA5>
40.5

>  <SlogP_VSA6>
30.33

>  <SlogP_VSA7>
0

>  <SlogP_VSA8>
10.9

>  <SlogP_VSA9>
0

>  <SlogP_VSA10>
0

>  <SlogP_VSA11>
23

>  <EState_VSA1>
24.1

>  <EState_VSA2>
29.41

>  <EState_VSA3>
23.67

>  <EState_VSA4>
37.2

>  <EState_VSA5>
45.08

>  <EState_VSA6>
26.35

>  <EState_VSA7>
12.13

>  <EState_VSA8>
15.95

>  <EState_VSA9>
33.16

>  <EState_VSA10>
9.59

>  <VSA_EState1>
39.11

>  <VSA_EState2>
33.14

>  <VSA_EState3>
1.21

>  <VSA_EState4>
3.83

>  <VSA_EState5>
0.44

>  <VSA_EState6>
9.4

>  <VSA_EState7>
0.92

>  <VSA_EState8>
1.68

>  <VSA_EState9>
9.1

>  <apol>
91.2

>  <bpol>
56.3

>  <nRing>
6

>  <nHRing>
3

>  <naRing>
3

>  <naHRing>
1

>  <nARing 2>
3

>  <nAHRing 2>
2

>  <nFRing>
1

>  <nFHRing>
1

>  <nFaRing>
0

>  <nFaHRing>
0

>  <nFARing 2>
1

>  <nFAHRing 2>
1

>  <nRot>
8

>  <SLogP>
4.17

>  <SMR>
160.69

>  <TopoPSA(NO)>
117.78

>  <TopoPSA>
117.78

>  <JGI1>
0.18

>  <JGI2>
0.08

>  <JGI3>
0.05

>  <JGI4>
0.05

>  <JGI5>
0.03

>  <Diameter>
20

>  <Radius>
10

>  <TMWC10>
175.6

>  <TSRW10>
96.56

>  <MW>
608.27

>  <AMW>
7.24

>  <WPath>
6905

>  <WPol>
86

>  <Zagreb1>
242

>  <Zagreb2>
299

>  <mZagreb2>
9.94

>  <yes>


>  <nAR-cont>
0.691115

>  <nHA-cont>
0.178195572

>  <MWHBN>
0.446009887

>  <MWHBN-cont>
0.30028928

>  <TPSA-cont>
0.177822463

>  <pka_cont>
0.97

>  <yes.1>


>  <BBB_SCORE>
2.160389418

>  <MMFF94 Energy>
122.25

$$$$
Compound 1492
Actelion Java MolfileCreator 2.0

  0  0  0  0  0  0              0 V3000
M  V30 BEGIN CTAB
M  V30 COUNTS 80 85 0 0 0
M  V30 BEGIN ATOM
M  V30 1 Cl 9.0605 5.6555 0.4838 0
M  V30 2 C 7.9531 4.345 0.6466 0
M  V30 3 C 6.9222 4.2009 -0.2866 0
M  V30 4 C 8.1007 3.451 1.7045 0
M  V30 5 C 6.0225 3.1266 -0.1468 0
M  V30 6 C 7.2174 2.3784 1.863 0
M  V30 7 C 6.1892 2.242 0.9222 0
M  V30 8 C 4.8886 2.6814 -0.875 0
M  V30 9 N 5.1889 1.2951 0.8364 0
M  V30 10 C 4.3919 1.5562 -0.2446 0
M  V30 11 C 4.2216 3.2511 -2.0824 0
M  V30 12 C 3.2142 0.7499 -0.7159 0 CFG=2
M  V30 13 C 3.1164 2.2923 -2.604 0
M  V30 14 N 2.3221 1.5842 -1.5618 0
M  V30 15 C 2.4297 0.0386 0.3968 0
M  V30 16 C 1.5206 2.5366 -0.7768 0
M  V30 17 C 1.5547 0.9977 1.2277 0 CFG=1
M  V30 18 C 0.6679 1.8475 0.3004 0 CFG=2
M  V30 19 C 0.696 0.2824 2.293 0 CFG=2
M  V30 20 C -0.4623 1.0177 -0.3193 0
M  V30 21 C 1.597 -0.5252 3.2142 0
M  V30 22 C -0.4734 -0.5311 1.7097 0 CFG=2
M  V30 23 C -1.3205 0.3322 0.7457 0 CFG=2
M  V30 24 O 2.3446 -0.0079 4.0376 0
M  V30 25 O 1.5601 -1.8589 2.9489 0
M  V30 26 O -1.2973 -0.9251 2.8278 0
M  V30 27 O -2.2648 -0.5287 0.0673 0
M  V30 28 C 2.4004 -2.6476 3.7928 0
M  V30 29 C -1.8818 -2.2125 2.6822 0
M  V30 30 C -3.4156 0.0558 -0.3473 0
M  V30 31 O -3.7148 1.2309 -0.21 0
M  V30 32 C -4.3035 -0.9435 -1.0029 0
M  V30 33 C -3.8807 -2.2548 -1.2714 0
M  V30 34 C -5.5982 -0.5325 -1.3577 0
M  V30 35 C -4.7482 -3.1598 -1.8852 0
M  V30 36 C -6.479 -1.4243 -1.9703 0
M  V30 37 O -4.4352 -4.4606 -2.1842 0
M  V30 38 C -6.0509 -2.7415 -2.2099 0
M  V30 39 O -7.7597 -1.1212 -2.3531 0
M  V30 40 C -3.0678 -4.8396 -2.1056 0
M  V30 41 O -6.8957 -3.6196 -2.8536 0
M  V30 42 C -8.166 0.2383 -2.2649 0
M  V30 43 C -7.6849 -4.3229 -1.8957 0
M  V30 44 H 6.8138 4.904 -1.1061 0
M  V30 45 H 8.9083 3.5831 2.4205 0
M  V30 46 H 7.3284 1.6833 2.6891 0
M  V30 47 H 5.0716 0.5358 1.4932 0
M  V30 48 H 3.7751 4.2173 -1.8182 0
M  V30 49 H 4.9555 3.4302 -2.8759 0
M  V30 50 H 3.6235 -0.0434 -1.3579 0
M  V30 51 H 2.444 2.8443 -3.2727 0
M  V30 52 H 3.588 1.5285 -3.2376 0
M  V30 53 H 3.1226 -0.505 1.0489 0
M  V30 54 H 1.7973 -0.7296 -0.0657 0
M  V30 55 H 0.8525 3.0871 -1.4516 0
M  V30 56 H 2.1487 3.2889 -0.284 0
M  V30 57 H 2.2351 1.6793 1.7584 0
M  V30 58 H 0.2019 2.6386 0.9049 0
M  V30 59 H 0.2513 1.0477 2.9479 0
M  V30 60 H -1.0973 1.6671 -0.9354 0
M  V30 61 H -0.0734 0.2624 -1.0138 0
M  V30 62 H -0.1118 -1.4249 1.1854 0
M  V30 63 H -1.8659 1.0775 1.3404 0
M  V30 64 H 2.2534 -3.6985 3.5288 0
M  V30 65 H 3.4518 -2.3924 3.6285 0
M  V30 66 H 2.1265 -2.5135 4.8441 0
M  V30 67 H -2.5718 -2.2431 1.8368 0
M  V30 68 H -2.4467 -2.4335 3.5921 0
M  V30 69 H -1.107 -2.9758 2.5647 0
M  V30 70 H -2.8758 -2.5537 -0.9951 0
M  V30 71 H -5.894 0.4899 -1.1398 0
M  V30 72 H -2.4375 -4.192 -2.7244 0
M  V30 73 H -2.9804 -5.859 -2.4937 0
M  V30 74 H -2.7246 -4.8493 -1.0661 0
M  V30 75 H -8.2105 0.5671 -1.2215 0
M  V30 76 H -9.1758 0.3128 -2.6799 0
M  V30 77 H -7.5135 0.8877 -2.858 0
M  V30 78 H -7.0582 -4.9107 -1.216 0
M  V30 79 H -8.333 -5.0159 -2.4406 0
M  V30 80 H -8.3248 -3.6405 -1.3255 0
M  V30 END ATOM
M  V30 BEGIN BOND
M  V30 1 1 1 2
M  V30 2 2 2 3
M  V30 3 1 2 4
M  V30 4 1 3 5
M  V30 5 2 4 6
M  V30 6 2 5 7
M  V30 7 1 5 8
M  V30 8 1 7 9
M  V30 9 2 8 10
M  V30 10 1 8 11
M  V30 11 1 10 12
M  V30 12 1 11 13
M  V30 13 1 12 14
M  V30 14 1 12 15
M  V30 15 1 14 16
M  V30 16 1 15 17
M  V30 17 1 16 18
M  V30 18 1 17 19
M  V30 19 1 18 20
M  V30 20 1 19 21
M  V30 21 1 19 22
M  V30 22 1 20 23
M  V30 23 2 21 24
M  V30 24 1 21 25
M  V30 25 1 22 26
M  V30 26 1 23 27
M  V30 27 1 25 28
M  V30 28 1 26 29
M  V30 29 1 27 30
M  V30 30 2 30 31
M  V30 31 1 30 32
M  V30 32 2 32 33
M  V30 33 1 32 34
M  V30 34 1 33 35
M  V30 35 2 34 36
M  V30 36 1 35 37
M  V30 37 2 35 38
M  V30 38 1 36 39
M  V30 39 1 37 40
M  V30 40 1 38 41
M  V30 41 1 39 42
M  V30 42 1 41 43
M  V30 43 1 6 7
M  V30 44 1 9 10
M  V30 45 1 13 14
M  V30 46 1 17 18
M  V30 47 1 22 23
M  V30 48 1 36 38
M  V30 49 1 3 44
M  V30 50 1 4 45
M  V30 51 1 6 46
M  V30 52 1 9 47
M  V30 53 1 11 48
M  V30 54 1 11 49
M  V30 55 1 12 50
M  V30 56 1 13 51
M  V30 57 1 13 52
M  V30 58 1 15 53
M  V30 59 1 15 54
M  V30 60 1 16 55
M  V30 61 1 16 56
M  V30 62 1 17 57
M  V30 63 1 18 58
M  V30 64 1 19 59
M  V30 65 1 20 60
M  V30 66 1 20 61
M  V30 67 1 22 62
M  V30 68 1 23 63
M  V30 69 1 28 64
M  V30 70 1 28 65
M  V30 71 1 28 66
M  V30 72 1 29 67
M  V30 73 1 29 68
M  V30 74 1 29 69
M  V30 75 1 33 70
M  V30 76 1 34 71
M  V30 77 1 40 72
M  V30 78 1 40 73
M  V30 79 1 40 74
M  V30 80 1 42 75
M  V30 81 1 42 76
M  V30 82 1 42 77
M  V30 83 1 43 78
M  V30 84 1 43 79
M  V30 85 1 43 80
M  V30 END BOND
M  V30 BEGIN COLLECTION
M  V30 MDLV30/STEABS ATOMS=(6 12 17 18 19 22 23)
M  V30 END COLLECTION
M  V30 END CTAB
M  END
>  <Column 1>
1794

>  <level_0>
1956

>  <index>
1956

>  <Unnamed: 0>
1956

>  <NO.>
1968

>  <Name>
chloroserpidine

>  <IUPAC_name>
methyl (1r-15s-17r-18r-19s-20s)-7-chloro-18-methoxy-17-(3-4-5-trimethoxybenzoyl)oxy-1-3-11-12-14-15-16-17-18-19-20-21-dodecahydroyohimban-19-carboxylate

>  <SMILES>
COC(=O)[C@H]1[C@H]2C[C@@H]3c4[nH]c5ccc(Cl)cc5c4CCN3C[C@H]2C[C@@H](OC(=O)c2cc(OC)c(OC)c(OC)c2)[C@@H]1OC

>  <CID>
71844

>  <logBB>


>  <BBB+/BBB->
BBB+

>  <Inchi>
InChI=1S/C32H37ClN2O8/c1-38-24-10-16(11-25(39-2)29(24)40-3)31(36)43-26-12-17-15-35-9-8-19-21-13-18(33)6-7-22(21)34-28(19)23(35)14-20(17)27(30(26)41-4)32(37)42-5/h6-7-10-11-13-17-20-23-26-27-30-34H-8-9-12-14-15H2-1-5H3/t17--20+-23--26--27+-30+/m1/s1

>  <threshold>
-1

>  <reference>
R1|R6|R27|R30|

>  <group>
B

>  <Class>
1

>  <ABC>
33.74

>  <ABCGG>
24.9

>  <nAcid>
0

>  <nBase>
1

>  <nAromAtom>
15

>  <nAromBond>
16

>  <nAtom>
80

>  <nHeavyAtom>
43

>  <nSpiro>
0

>  <nBridgehead>
0

>  <nHetero>
11

>  <nN>
2

>  <nO>
8

>  <nF>
0

>  <BalabanJ>
1.18

>  <BertzCT>
1514.03

>  <nBonds>
85

>  <nBondsO>
48

>  <nBondsS>
67

>  <nBondsD>
2

>  <nBondsT>
0

>  <nBondsA>
16

>  <nBondsM>
18

>  <nBondsKS>
76

>  <nBondsKD>
9

>  <RNCG>
0.12

>  <RPCG>
0.08

>  <FCSP3>
0.5

>  <SZ>
54

>  <Sm>
51.05

>  <Sv>
50.35

>  <Sse>
81.16

>  <Sp>
53.24

>  <Si>
90.09

>  <MZ>
0.68

>  <Mm>
0.64

>  <Mv>
0.63

>  <Mse>
1.01

>  <Mp>
0.67

>  <Mi>
1.13

>  <NsCH3>
5

>  <NdCH2>
0

>  <NssCH2>
5

>  <NtCH>
0

>  <NdsCH>
0

>  <NaaCH>
5

>  <NsssCH>
6

>  <NddC>
0

>  <NtsC>
0

>  <NdssC>
2

>  <NaasC>
7

>  <NaaaC>
2

>  <NssssC>
0

>  <NsNH3>
0

>  <NsNH2>
0

>  <NssNH2>
0

>  <NdNH>
0

>  <NssNH>
0

>  <NaaNH>
1

>  <NtN>
0

>  <NsssNH>
0

>  <NdsN>
0

>  <NaaN>
0

>  <NsssN>
1

>  <NddsN>
0

>  <NaasN>
0

>  <NssssN>
0

>  <NsOH>
0

>  <NdO>
2

>  <NssO>
6

>  <NaaO>
0

>  <NsF>
0

>  <NsSiH3>
0

>  <NssSiH2>
0

>  <NsssSiH>
0

>  <NssssSi>
0

>  <NsPH2>
0

>  <NssPH>
0

>  <NsssP>
0

>  <NdsssP>
0

>  <NsssssP>
0

>  <NsSH>
0

>  <NdS>
0

>  <NssS>
0

>  <NaaS>
0

>  <NdssS>
0

>  <NddssS>
0

>  <NsCl>
1

>  <NsBr>
0

>  <NsI>
0

>  <fragCpx>
498.11

>  <fMF>
0.36

>  <nHBAcc>
9

>  <nHBDon>
1

>  <Kier1>
32.92

>  <Kier2>
14.01

>  <Lipinski>
0

>  <GhoseFilter>
0

>  <FilterItLogS>
-6.62

>  <VMcGowan>
437.04

>  <LabuteASA>
255

>  <PEOE_VSA1>
33.41

>  <PEOE_VSA2>
9.69

>  <PEOE_VSA3>
4.79

>  <PEOE_VSA4>
0

>  <PEOE_VSA5>
0

>  <PEOE_VSA6>
11.6

>  <PEOE_VSA7>
66.99

>  <PEOE_VSA8>
41.82

>  <PEOE_VSA9>
45.96

>  <PEOE_VSA10>
12.21

>  <PEOE_VSA11>
11.5

>  <PEOE_VSA12>
5.75

>  <PEOE_VSA13>
0

>  <SMR_VSA1>
38.01

>  <SMR_VSA2>
0

>  <SMR_VSA3>
9.88

>  <SMR_VSA4>
17.75

>  <SMR_VSA5>
37.51

>  <SMR_VSA6>
48.64

>  <SMR_VSA7>
52.18

>  <SMR_VSA8>
0

>  <SMR_VSA9>
17.25

>  <SlogP_VSA1>
14.21

>  <SlogP_VSA2>
82.67

>  <SlogP_VSA3>
25.43

>  <SlogP_VSA4>
17.75

>  <SlogP_VSA5>
40.5

>  <SlogP_VSA6>
30.33

>  <SlogP_VSA7>
5.02

>  <SlogP_VSA8>
10.9

>  <SlogP_VSA9>
0

>  <SlogP_VSA10>
0

>  <SlogP_VSA11>
17.25

>  <EState_VSA1>
24.1

>  <EState_VSA2>
29.41

>  <EState_VSA3>
28.69

>  <EState_VSA4>
36.83

>  <EState_VSA5>
39.7

>  <EState_VSA6>
19.24

>  <EState_VSA7>
18.2

>  <EState_VSA8>
9.88

>  <EState_VSA9>
40.02

>  <EState_VSA10>
9.59

>  <VSA_EState1>
33.6

>  <VSA_EState2>
33.05

>  <VSA_EState3>
1.87

>  <VSA_EState4>
3.8

>  <VSA_EState5>
-0.38

>  <VSA_EState6>
9.19

>  <VSA_EState7>
0.89

>  <VSA_EState8>
1.67

>  <VSA_EState9>
7.42

>  <apol>
88.91

>  <bpol>
52.06

>  <nRing>
6

>  <nHRing>
3

>  <naRing>
3

>  <naHRing>
1

>  <nARing 2>
3

>  <nAHRing 2>
2

>  <nFRing>
1

>  <nFHRing>
1

>  <nFaRing>
0

>  <nFaHRing>
0

>  <nFARing 2>
1

>  <nFAHRing 2>
1

>  <nRot>
7

>  <SLogP>
4.82

>  <SMR>
159.15

>  <TopoPSA(NO)>
108.55

>  <TopoPSA>
108.55

>  <JGI1>
0.19

>  <JGI2>
0.08

>  <JGI3>
0.05

>  <JGI4>
0.05

>  <JGI5>
0.03

>  <Diameter>
19

>  <Radius>
10

>  <TMWC10>
173.47

>  <TSRW10>
95.49

>  <MW>
612.22

>  <AMW>
7.65

>  <WPath>
6427

>  <WPol>
84

>  <Zagreb1>
238

>  <Zagreb2>
294

>  <mZagreb2>
9.61

>  <yes>


>  <nAR-cont>
0.691115

>  <nHA-cont>
0.205638778

>  <MWHBN>
0.404153406

>  <MWHBN-cont>
0.459730243

>  <TPSA-cont>
0.242253594

>  <pka_cont>
0.97

>  <yes.1>


>  <BBB_SCORE>
2.555856331

>  <MMFF94 Energy>
108.97

$$$$
Compound 1493
Actelion Java MolfileCreator 2.0

  0  0  0  0  0  0              0 V3000
M  V30 BEGIN CTAB
M  V30 COUNTS 80 85 0 0 0
M  V30 BEGIN ATOM
M  V30 1 O 1.9249 -3.1294 1.4434 0
M  V30 2 C 1.3364 -2.357 2.1828 0
M  V30 3 O 0.3552 -1.4956 1.82 0
M  V30 4 C 1.6142 -2.2482 3.6417 0
M  V30 5 C -0.034 -1.52 0.4271 0 CFG=1
M  V30 6 C 2.5285 -3.1546 4.2011 0
M  V30 7 C 0.9984 -1.2785 4.4487 0
M  V30 8 C -1.507 -1.064 0.3295 0 CFG=2
M  V30 9 C 0.9116 -0.6029 -0.3514 0
M  V30 10 C 2.8275 -3.1059 5.5629 0
M  V30 11 C 1.2859 -1.2148 5.8131 0
M  V30 12 O -2.3399 -2.1222 0.85 0
M  V30 13 C -1.919 -0.8504 -1.1344 0 CFG=1
M  V30 14 C 0.4751 -0.4331 -1.8132 0 CFG=1
M  V30 15 O 3.7032 -3.944 6.2027 0
M  V30 16 C 2.185 -2.1454 6.3634 0
M  V30 17 O 0.737 -0.3114 6.6862 0
M  V30 18 C -2.8122 -1.8637 2.1665 0
M  V30 19 C -3.3453 -0.3385 -1.2032 0
M  V30 20 C -0.9716 0.0812 -1.9185 0 CFG=2
M  V30 21 C 1.4257 0.4912 -2.5873 0
M  V30 22 C 4.4778 -4.8216 5.3963 0
M  V30 23 O 2.5044 -2.0595 7.7012 0
M  V30 24 C -0.0099 0.7644 6.1345 0
M  V30 25 O -3.8547 0.4329 -0.4003 0
M  V30 26 O -3.9579 -0.8092 -2.3265 0
M  V30 27 C -1.0382 1.5581 -1.4785 0
M  V30 28 N 1.3578 1.8871 -2.1304 0
M  V30 29 C 1.6322 -2.8938 8.4617 0
M  V30 30 C -5.3112 -0.3796 -2.4771 0
M  V30 31 C -0.0148 2.4542 -2.196 0 CFG=1
M  V30 32 C 2.3076 2.7395 -2.8983 0
M  V30 33 C -0.3738 2.8028 -3.613 0
M  V30 34 C 1.9977 2.9017 -4.4116 0
M  V30 35 N -1.63 3.0224 -4.109 0
M  V30 36 C 0.529 3.0389 -4.6323 0
M  V30 37 C -1.5572 3.355 -5.4454 0
M  V30 38 C -0.2059 3.3735 -5.7995 0
M  V30 39 C -2.5793 3.6445 -6.3575 0
M  V30 40 C 0.142 3.6937 -7.1259 0
M  V30 41 C -2.2084 3.9584 -7.6685 0
M  V30 42 C -0.8687 3.9832 -8.0498 0
M  V30 43 H 0.0328 -2.5486 0.0476 0
M  V30 44 H 2.9902 -3.8911 3.5498 0
M  V30 45 H 0.2985 -0.5831 3.9988 0
M  V30 46 H -1.6589 -0.1496 0.9183 0
M  V30 47 H 1.9274 -1.0167 -0.3191 0
M  V30 48 H 0.9848 0.3633 0.1628 0
M  V30 49 H -1.9197 -1.8394 -1.617 0
M  V30 50 H 0.5215 -1.4231 -2.2883 0
M  V30 51 H -3.4398 -0.9674 2.1771 0
M  V30 52 H -3.4201 -2.715 2.4843 0
M  V30 53 H -1.9823 -1.7501 2.8679 0
M  V30 54 H -1.272 0.0432 -2.9754 0
M  V30 55 H 2.4509 0.1204 -2.4619 0
M  V30 56 H 1.1926 0.401 -3.6554 0
M  V30 57 H 3.8427 -5.5672 4.9071 0
M  V30 58 H 5.1704 -5.3555 6.054 0
M  V30 59 H 5.0743 -4.2669 4.6644 0
M  V30 60 H 0.5869 1.3375 5.4173 0
M  V30 61 H -0.2824 1.437 6.9536 0
M  V30 62 H -0.9374 0.4032 5.6787 0
M  V30 63 H -2.0484 1.953 -1.6327 0
M  V30 64 H -0.8564 1.6302 -0.3989 0
M  V30 65 H 0.5876 -2.5806 8.3571 0
M  V30 66 H 1.9095 -2.7947 9.5155 0
M  V30 67 H 1.7412 -3.9471 8.1819 0
M  V30 68 H -5.714 -0.8398 -3.3834 0
M  V30 69 H -5.9158 -0.7056 -1.6249 0
M  V30 70 H -5.3553 0.7079 -2.5913 0
M  V30 71 H 0.0015 3.4049 -1.6435 0
M  V30 72 H 3.3296 2.3597 -2.7765 0
M  V30 73 H 2.3128 3.7348 -2.4327 0
M  V30 74 H 2.3614 2.0251 -4.9603 0
M  V30 75 H 2.5262 3.7793 -4.8002 0
M  V30 76 H -2.4934 2.9579 -3.5883 0
M  V30 77 H -3.6238 3.6281 -6.0646 0
M  V30 78 H 1.1834 3.7166 -7.4315 0
M  V30 79 H -2.9788 4.1877 -8.4012 0
M  V30 80 H -0.6031 4.2306 -9.0745 0
M  V30 END ATOM
M  V30 BEGIN BOND
M  V30 1 2 1 2
M  V30 2 1 2 3
M  V30 3 1 2 4
M  V30 4 1 3 5
M  V30 5 2 4 6
M  V30 6 1 4 7
M  V30 7 1 5 8
M  V30 8 1 5 9
M  V30 9 1 6 10
M  V30 10 2 7 11
M  V30 11 1 8 12
M  V30 12 1 8 13
M  V30 13 1 9 14
M  V30 14 1 10 15
M  V30 15 2 10 16
M  V30 16 1 11 17
M  V30 17 1 12 18
M  V30 18 1 13 19
M  V30 19 1 13 20
M  V30 20 1 14 21
M  V30 21 1 15 22
M  V30 22 1 16 23
M  V30 23 1 17 24
M  V30 24 2 19 25
M  V30 25 1 19 26
M  V30 26 1 20 27
M  V30 27 1 21 28
M  V30 28 1 23 29
M  V30 29 1 26 30
M  V30 30 1 27 31
M  V30 31 1 28 32
M  V30 32 1 31 33
M  V30 33 1 32 34
M  V30 34 1 33 35
M  V30 35 2 33 36
M  V30 36 1 35 37
M  V30 37 1 36 38
M  V30 38 1 37 39
M  V30 39 1 38 40
M  V30 40 2 39 41
M  V30 41 2 40 42
M  V30 42 1 11 16
M  V30 43 1 14 20
M  V30 44 1 28 31
M  V30 45 1 34 36
M  V30 46 2 37 38
M  V30 47 1 41 42
M  V30 48 1 5 43
M  V30 49 1 6 44
M  V30 50 1 7 45
M  V30 51 1 8 46
M  V30 52 1 9 47
M  V30 53 1 9 48
M  V30 54 1 13 49
M  V30 55 1 14 50
M  V30 56 1 18 51
M  V30 57 1 18 52
M  V30 58 1 18 53
M  V30 59 1 20 54
M  V30 60 1 21 55
M  V30 61 1 21 56
M  V30 62 1 22 57
M  V30 63 1 22 58
M  V30 64 1 22 59
M  V30 65 1 24 60
M  V30 66 1 24 61
M  V30 67 1 24 62
M  V30 68 1 27 63
M  V30 69 1 27 64
M  V30 70 1 29 65
M  V30 71 1 29 66
M  V30 72 1 29 67
M  V30 73 1 30 68
M  V30 74 1 30 69
M  V30 75 1 30 70
M  V30 76 1 31 71
M  V30 77 1 32 72
M  V30 78 1 32 73
M  V30 79 1 34 74
M  V30 80 1 34 75
M  V30 81 1 35 76
M  V30 82 1 39 77
M  V30 83 1 40 78
M  V30 84 1 41 79
M  V30 85 1 42 80
M  V30 END BOND
M  V30 BEGIN COLLECTION
M  V30 MDLV30/STEABS ATOMS=(6 5 8 13 14 20 31)
M  V30 END COLLECTION
M  V30 END CTAB
M  END
>  <Column 1>
1795

>  <level_0>
1957

>  <index>
1957

>  <Unnamed: 0>
1957

>  <NO.>
1969

>  <Name>
deserpidine

>  <IUPAC_name>
methyl (1r-15s-17r-18r-19s-20s)-18-methoxy-17-(3-4-5-trimethoxybenzoyl)oxy-1-3-11-12-14-15-16-17-18-19-20-21-dodecahydroyohimban-19-carboxylate

>  <SMILES>
COC(=O)[C@H]1[C@H]2C[C@@H]3c4[nH]c5ccccc5c4CCN3C[C@H]2C[C@@H](OC(=O)c2cc(OC)c(OC)c(OC)c2)[C@@H]1OC

>  <CID>
8550

>  <logBB>


>  <BBB+/BBB->
BBB+

>  <Inchi>
InChI=1S/C32H38N2O8/c1-37-24-12-17(13-25(38-2)29(24)39-3)31(35)42-26-14-18-16-34-11-10-20-19-8-6-7-9-22(19)33-28(20)23(34)15-21(18)27(30(26)40-4)32(36)41-5/h6-9-12-13-18-21-23-26-27-30-33H-10-11-14-16H2-1-5H3/t18--21+-23--26--27+-30+/m1/s1

>  <threshold>
-1

>  <reference>
R1|R27|R30|

>  <group>
B

>  <Class>
1

>  <ABC>
32.93

>  <ABCGG>
24.42

>  <nAcid>
0

>  <nBase>
1

>  <nAromAtom>
15

>  <nAromBond>
16

>  <nAtom>
80

>  <nHeavyAtom>
42

>  <nSpiro>
0

>  <nBridgehead>
0

>  <nHetero>
10

>  <nN>
2

>  <nO>
8

>  <nF>
0

>  <BalabanJ>
1.18

>  <BertzCT>
1459.42

>  <nBonds>
85

>  <nBondsO>
47

>  <nBondsS>
67

>  <nBondsD>
2

>  <nBondsT>
0

>  <nBondsA>
16

>  <nBondsM>
18

>  <nBondsKS>
76

>  <nBondsKD>
9

>  <RNCG>
0.12

>  <RPCG>
0.08

>  <FCSP3>
0.5

>  <SZ>
51.33

>  <Sm>
48.18

>  <Sv>
49.53

>  <Sse>
80.84

>  <Sp>
52.33

>  <Si>
90.15

>  <MZ>
0.64

>  <Mm>
0.6

>  <Mv>
0.62

>  <Mse>
1.01

>  <Mp>
0.65

>  <Mi>
1.13

>  <NsCH3>
5

>  <NdCH2>
0

>  <NssCH2>
5

>  <NtCH>
0

>  <NdsCH>
0

>  <NaaCH>
6

>  <NsssCH>
6

>  <NddC>
0

>  <NtsC>
0

>  <NdssC>
2

>  <NaasC>
6

>  <NaaaC>
2

>  <NssssC>
0

>  <NsNH3>
0

>  <NsNH2>
0

>  <NssNH2>
0

>  <NdNH>
0

>  <NssNH>
0

>  <NaaNH>
1

>  <NtN>
0

>  <NsssNH>
0

>  <NdsN>
0

>  <NaaN>
0

>  <NsssN>
1

>  <NddsN>
0

>  <NaasN>
0

>  <NssssN>
0

>  <NsOH>
0

>  <NdO>
2

>  <NssO>
6

>  <NaaO>
0

>  <NsF>
0

>  <NsSiH3>
0

>  <NssSiH2>
0

>  <NsssSiH>
0

>  <NssssSi>
0

>  <NsPH2>
0

>  <NssPH>
0

>  <NsssP>
0

>  <NdsssP>
0

>  <NsssssP>
0

>  <NsSH>
0

>  <NdS>
0

>  <NssS>
0

>  <NaaS>
0

>  <NdssS>
0

>  <NddssS>
0

>  <NsCl>
0

>  <NsBr>
0

>  <NsI>
0

>  <fragCpx>
487.1

>  <fMF>
0.36

>  <nHBAcc>
9

>  <nHBDon>
1

>  <Kier1>
31.96

>  <Kier2>
13.78

>  <Lipinski>
0

>  <GhoseFilter>
0

>  <FilterItLogS>
-5.9

>  <VMcGowan>
424.8

>  <LabuteASA>
244.69

>  <PEOE_VSA1>
33.41

>  <PEOE_VSA2>
9.69

>  <PEOE_VSA3>
4.79

>  <PEOE_VSA4>
0

>  <PEOE_VSA5>
0

>  <PEOE_VSA6>
18.2

>  <PEOE_VSA7>
54.86

>  <PEOE_VSA8>
36.8

>  <PEOE_VSA9>
45.96

>  <PEOE_VSA10>
12.21

>  <PEOE_VSA11>
11.5

>  <PEOE_VSA12>
5.75

>  <PEOE_VSA13>
0

>  <SMR_VSA1>
38.01

>  <SMR_VSA2>
0

>  <SMR_VSA3>
9.88

>  <SMR_VSA4>
17.75

>  <SMR_VSA5>
37.51

>  <SMR_VSA6>
48.64

>  <SMR_VSA7>
53.22

>  <SMR_VSA8>
0

>  <SMR_VSA9>
17.25

>  <SlogP_VSA1>
14.21

>  <SlogP_VSA2>
82.67

>  <SlogP_VSA3>
25.43

>  <SlogP_VSA4>
17.75

>  <SlogP_VSA5>
40.5

>  <SlogP_VSA6>
36.4

>  <SlogP_VSA7>
0

>  <SlogP_VSA8>
10.9

>  <SlogP_VSA9>
0

>  <SlogP_VSA10>
0

>  <SlogP_VSA11>
17.25

>  <EState_VSA1>
24.1

>  <EState_VSA2>
29.41

>  <EState_VSA3>
23.67

>  <EState_VSA4>
31.45

>  <EState_VSA5>
45.08

>  <EState_VSA6>
19.24

>  <EState_VSA7>
0

>  <EState_VSA8>
34.15

>  <EState_VSA9>
28.42

>  <EState_VSA10>
9.59

>  <VSA_EState1>
33.61

>  <VSA_EState2>
33.07

>  <VSA_EState3>
1.27

>  <VSA_EState4>
4.01

>  <VSA_EState5>
-0.25

>  <VSA_EState6>
11.72

>  <VSA_EState7>
1.04

>  <VSA_EState8>
1.74

>  <VSA_EState9>
7.45

>  <apol>
87.39

>  <bpol>
52.55

>  <nRing>
6

>  <nHRing>
3

>  <naRing>
3

>  <naHRing>
1

>  <nARing 2>
3

>  <nAHRing 2>
2

>  <nFRing>
1

>  <nFHRing>
1

>  <nFaRing>
0

>  <nFaHRing>
0

>  <nFARing 2>
1

>  <nFAHRing 2>
1

>  <nRot>
7

>  <SLogP>
4.16

>  <SMR>
154.14

>  <TopoPSA(NO)>
108.55

>  <TopoPSA>
108.55

>  <JGI1>
0.17

>  <JGI2>
0.08

>  <JGI3>
0.05

>  <JGI4>
0.05

>  <JGI5>
0.03

>  <Diameter>
18

>  <Radius>
9

>  <TMWC10>
171.24

>  <TSRW10>
94.36

>  <MW>
578.26

>  <AMW>
7.23

>  <WPath>
5996

>  <WPol>
82

>  <Zagreb1>
232

>  <Zagreb2>
287

>  <mZagreb2>
9.44

>  <yes>


>  <nAR-cont>
0.691115

>  <nHA-cont>
0.236794392

>  <MWHBN>
0.415851645

>  <MWHBN-cont>
0.414021881

>  <TPSA-cont>
0.242253594

>  <pka_cont>
0.97

>  <yes.1>


>  <BBB_SCORE>
2.518449402

>  <MMFF94 Energy>
111.31

$$$$
Compound 1494
Actelion Java MolfileCreator 2.0

  0  0  0  0  0  0              0 V3000
M  V30 BEGIN CTAB
M  V30 COUNTS 24 24 0 0 0
M  V30 BEGIN ATOM
M  V30 1 O 0.4737 2.4496 -2.9243 0
M  V30 2 C 0.0161 2.3053 -1.8016 0
M  V30 3 O -0.6294 3.2543 -1.0788 0
M  V30 4 C 0.1013 1.03 -1.0376 0
M  V30 5 C -0.7504 4.5102 -1.749 0
M  V30 6 C 0.741 -0.0613 -1.6407 0
M  V30 7 C -0.4313 0.8864 0.2511 0
M  V30 8 C 0.8471 -1.2811 -0.9644 0
M  V30 9 C -0.3251 -0.3349 0.9282 0
M  V30 10 C 0.3149 -1.4258 0.324 0
M  V30 11 C 0.4553 -2.7459 0.9988 0
M  V30 12 O 1.009 -3.707 0.4891 0
M  V30 13 O -0.1102 -2.7162 2.2312 0
M  V30 14 C -0.0145 -3.9517 2.9421 0
M  V30 15 H -1.2815 5.1983 -1.0853 0
M  V30 16 H 0.2384 4.9281 -1.9617 0
M  V30 17 H -1.3318 4.3991 -2.6697 0
M  V30 18 H 1.1608 0.0321 -2.6413 0
M  V30 19 H -0.9331 1.7164 0.7438 0
M  V30 20 H 1.3477 -2.118 -1.4493 0
M  V30 21 H -0.7475 -0.4183 1.9273 0
M  V30 22 H -0.4971 -3.8208 3.9147 0
M  V30 23 H -0.5364 -4.747 2.4007 0
M  V30 24 H 1.0339 -4.218 3.1087 0
M  V30 END ATOM
M  V30 BEGIN BOND
M  V30 1 2 1 2
M  V30 2 1 2 3
M  V30 3 1 2 4
M  V30 4 1 3 5
M  V30 5 2 4 6
M  V30 6 1 4 7
M  V30 7 1 6 8
M  V30 8 2 7 9
M  V30 9 2 8 10
M  V30 10 1 10 11
M  V30 11 2 11 12
M  V30 12 1 11 13
M  V30 13 1 13 14
M  V30 14 1 9 10
M  V30 15 1 5 15
M  V30 16 1 5 16
M  V30 17 1 5 17
M  V30 18 1 6 18
M  V30 19 1 7 19
M  V30 20 1 8 20
M  V30 21 1 9 21
M  V30 22 1 14 22
M  V30 23 1 14 23
M  V30 24 1 14 24
M  V30 END BOND
M  V30 END CTAB
M  END
>  <Column 1>
1796

>  <level_0>
1958

>  <index>
1958

>  <Unnamed: 0>
1958

>  <NO.>
1970

>  <Name>
dimethyl terephthalate

>  <IUPAC_name>
dimethyl benzene-1-4-dicarboxylate

>  <SMILES>
COC(=O)c1ccc(C(=O)OC)cc1

>  <CID>
8441

>  <logBB>


>  <BBB+/BBB->
BBB+

>  <Inchi>
InChI=1S/C10H10O4/c1-13-9(11)7-3-5-8(6-4-7)10(12)14-2/h3-6H-1-2H3

>  <threshold>
-1

>  <reference>
R1|R13|R27|R30|

>  <group>
B

>  <Class>
1

>  <ABC>
10.04

>  <ABCGG>
9.32

>  <nAcid>
0

>  <nBase>
0

>  <nAromAtom>
6

>  <nAromBond>
6

>  <nAtom>
24

>  <nHeavyAtom>
14

>  <nSpiro>
0

>  <nBridgehead>
0

>  <nHetero>
4

>  <nN>
0

>  <nO>
4

>  <nF>
0

>  <BalabanJ>
2.31

>  <BertzCT>
304.64

>  <nBonds>
24

>  <nBondsO>
14

>  <nBondsS>
16

>  <nBondsD>
2

>  <nBondsT>
0

>  <nBondsA>
6

>  <nBondsM>
8

>  <nBondsKS>
19

>  <nBondsKD>
5

>  <RNCG>
0.29

>  <RPCG>
0.21

>  <FCSP3>
0.2

>  <SZ>
17

>  <Sm>
16.17

>  <Sv>
15.57

>  <Sse>
24.76

>  <Sp>
15.91

>  <Si>
26.91

>  <MZ>
0.71

>  <Mm>
0.67

>  <Mv>
0.65

>  <Mse>
1.03

>  <Mp>
0.66

>  <Mi>
1.12

>  <NsCH3>
2

>  <NdCH2>
0

>  <NssCH2>
0

>  <NtCH>
0

>  <NdsCH>
0

>  <NaaCH>
4

>  <NsssCH>
0

>  <NddC>
0

>  <NtsC>
0

>  <NdssC>
2

>  <NaasC>
2

>  <NaaaC>
0

>  <NssssC>
0

>  <NsNH3>
0

>  <NsNH2>
0

>  <NssNH2>
0

>  <NdNH>
0

>  <NssNH>
0

>  <NaaNH>
0

>  <NtN>
0

>  <NsssNH>
0

>  <NdsN>
0

>  <NaaN>
0

>  <NsssN>
0

>  <NddsN>
0

>  <NaasN>
0

>  <NssssN>
0

>  <NsOH>
0

>  <NdO>
2

>  <NssO>
2

>  <NaaO>
0

>  <NsF>
0

>  <NsSiH3>
0

>  <NssSiH2>
0

>  <NsssSiH>
0

>  <NssssSi>
0

>  <NsPH2>
0

>  <NssPH>
0

>  <NsssP>
0

>  <NdsssP>
0

>  <NsssssP>
0

>  <NsSH>
0

>  <NdS>
0

>  <NssS>
0

>  <NaaS>
0

>  <NdssS>
0

>  <NddssS>
0

>  <NsCl>
0

>  <NsBr>
0

>  <NsI>
0

>  <fragCpx>
14.04

>  <fMF>
0.25

>  <nHBAcc>
4

>  <nHBDon>
0

>  <Kier1>
12.07

>  <Kier2>
5.78

>  <Lipinski>
1

>  <GhoseFilter>
1

>  <FilterItLogS>
-1.95

>  <VMcGowan>
142.88

>  <LabuteASA>
81.44

>  <PEOE_VSA1>
9.47

>  <PEOE_VSA2>
0

>  <PEOE_VSA3>
9.59

>  <PEOE_VSA4>
0

>  <PEOE_VSA5>
0

>  <PEOE_VSA6>
0

>  <PEOE_VSA7>
24.27

>  <PEOE_VSA8>
0

>  <PEOE_VSA9>
25.35

>  <PEOE_VSA10>
0

>  <PEOE_VSA11>
0

>  <PEOE_VSA12>
0

>  <PEOE_VSA13>
0

>  <SMR_VSA1>
19.06

>  <SMR_VSA2>
0

>  <SMR_VSA3>
0

>  <SMR_VSA4>
0

>  <SMR_VSA5>
0

>  <SMR_VSA6>
14.22

>  <SMR_VSA7>
35.39

>  <SMR_VSA8>
0

>  <SMR_VSA9>
0

>  <SlogP_VSA1>
0

>  <SlogP_VSA2>
26.16

>  <SlogP_VSA3>
9.47

>  <SlogP_VSA4>
0

>  <SlogP_VSA5>
20.72

>  <SlogP_VSA6>
24.27

>  <SlogP_VSA7>
0

>  <SlogP_VSA8>
0

>  <SlogP_VSA9>
0

>  <SlogP_VSA10>
0

>  <SlogP_VSA11>
0

>  <EState_VSA1>
11.94

>  <EState_VSA2>
0

>  <EState_VSA3>
11.13

>  <EState_VSA4>
0

>  <EState_VSA5>
38.49

>  <EState_VSA6>
0

>  <EState_VSA7>
0

>  <EState_VSA8>
9.47

>  <EState_VSA9>
0

>  <EState_VSA10>
9.59

>  <VSA_EState1>
9.02

>  <VSA_EState2>
22.05

>  <VSA_EState3>
0

>  <VSA_EState4>
0.81

>  <VSA_EState5>
-0.86

>  <VSA_EState6>
6.05

>  <VSA_EState7>
0

>  <VSA_EState8>
0

>  <VSA_EState9>
2.6

>  <apol>
26.58

>  <bpol>
15.24

>  <nRing>
1

>  <nHRing>
0

>  <naRing>
1

>  <naHRing>
0

>  <nARing 2>
0

>  <nAHRing 2>
0

>  <nFRing>
0

>  <nFHRing>
0

>  <nFaRing>
0

>  <nFaHRing>
0

>  <nFARing 2>
0

>  <nFAHRing 2>
0

>  <nRot>
2

>  <SLogP>
1.26

>  <SMR>
49.12

>  <TopoPSA(NO)>
52.6

>  <TopoPSA>
52.6

>  <JGI1>
0.21

>  <JGI2>
0.12

>  <JGI3>
0.04

>  <JGI4>
0.03

>  <JGI5>
0.05

>  <Diameter>
9

>  <Radius>
5

>  <TMWC10>
95.09

>  <TSRW10>
44.9

>  <MW>
194.06

>  <AMW>
8.09

>  <WPath>
327

>  <WPol>
19

>  <Zagreb1>
64

>  <Zagreb2>
72

>  <mZagreb2>
3.39

>  <yes>


>  <nAR-cont>
0.336376

>  <nHA-cont>
0.887625254

>  <MWHBN>
0.287138864

>  <MWHBN-cont>
0.877383879

>  <TPSA-cont>
0.632819337

>  <pka_cont>
0.97

>  <yes.1>


>  <BBB_SCORE>
4.290715748

>  <MMFF94 Energy>
44.255

$$$$
Compound 1495
Actelion Java MolfileCreator 2.0

  0  0  0  0  0  0              0 V3000
M  V30 BEGIN CTAB
M  V30 COUNTS 31 32 0 0 0
M  V30 BEGIN ATOM
M  V30 1 O -1.1859 1.5815 0.0 0
M  V30 2 C -0.1806 1.8204 0.6544 0
M  V30 3 O 0.4625 3.0237 0.6544 0
M  V30 4 C 0.4883 0.913 1.5509 0
M  V30 5 C -0.1203 3.9962 -0.2128 0
M  V30 6 N 0.3181 -0.4539 1.6675 0
M  V30 7 C 1.4533 1.2031 2.5028 0
M  V30 8 C 1.1357 -0.8863 2.6838 0
M  V30 9 C -0.5123 -1.3711 0.8749 0 CFG=2
M  V30 10 N 1.8371 0.0917 3.2003 0
M  V30 11 C -0.1236 -1.3609 -0.5981 0
M  V30 12 C -1.9981 -1.2402 1.2272 0
M  V30 13 C -1.0236 -1.0179 -1.6185 0
M  V30 14 C 1.182 -1.7368 -0.9697 0
M  V30 15 C -0.6312 -1.0392 -2.9598 0
M  V30 16 C 1.5726 -1.7587 -2.3103 0
M  V30 17 C 0.6651 -1.4098 -3.3055 0
M  V30 18 H 0.4786 4.9089 -0.1494 0
M  V30 19 H -0.1062 3.6448 -1.2494 0
M  V30 20 H -1.1414 4.2299 0.1047 0
M  V30 21 H 1.8807 2.1731 2.7278 0
M  V30 22 H 1.1868 -1.9222 2.9955 0
M  V30 23 H -0.238 -2.3796 1.2217 0
M  V30 24 H -2.4215 -0.2731 0.9463 0
M  V30 25 H -2.586 -2.0177 0.7268 0
M  V30 26 H -2.1488 -1.3543 2.3071 0
M  V30 27 H -2.0402 -0.7059 -1.389 0
M  V30 28 H 1.9135 -2.0149 -0.2126 0
M  V30 29 H -1.3408 -0.7588 -3.7343 0
M  V30 30 H 2.5866 -2.0469 -2.5758 0
M  V30 31 H 0.9679 -1.4231 -4.349 0
M  V30 END ATOM
M  V30 BEGIN BOND
M  V30 1 2 1 2
M  V30 2 1 2 3
M  V30 3 1 2 4
M  V30 4 1 3 5
M  V30 5 1 4 6
M  V30 6 2 4 7
M  V30 7 1 6 8
M  V30 8 1 6 9
M  V30 9 1 7 10
M  V30 10 1 9 11
M  V30 11 1 9 12
M  V30 12 2 11 13
M  V30 13 1 11 14
M  V30 14 1 13 15
M  V30 15 2 14 16
M  V30 16 2 15 17
M  V30 17 2 8 10
M  V30 18 1 16 17
M  V30 19 1 5 18
M  V30 20 1 5 19
M  V30 21 1 5 20
M  V30 22 1 7 21
M  V30 23 1 8 22
M  V30 24 1 9 23
M  V30 25 1 12 24
M  V30 26 1 12 25
M  V30 27 1 12 26
M  V30 28 1 13 27
M  V30 29 1 14 28
M  V30 30 1 15 29
M  V30 31 1 16 30
M  V30 32 1 17 31
M  V30 END BOND
M  V30 BEGIN COLLECTION
M  V30 MDLV30/STERAC1 ATOMS=(1 9)
M  V30 END COLLECTION
M  V30 END CTAB
M  END
>  <Column 1>
1797

>  <level_0>
1959

>  <index>
1959

>  <Unnamed: 0>
1959

>  <NO.>
1971

>  <Name>
metomidate

>  <IUPAC_name>
methyl 3-(1-phenylethyl)imidazole-4-carboxylate

>  <SMILES>
COC(=O)c1cncn1C(C)c1ccccc1

>  <CID>
21474

>  <logBB>


>  <BBB+/BBB->
BBB+

>  <Inchi>
InChI=1S/C13H14N2O2/c1-10(11-6-4-3-5-7-11)15-9-14-8-12(15)13(16)17-2/h3-10H-1-2H3

>  <threshold>
-1

>  <reference>
R1|R19|R6|R27|R27|R30|

>  <group>
B

>  <Class>
-1

>  <ABC>
12.78

>  <ABCGG>
11.98

>  <nAcid>
0

>  <nBase>
0

>  <nAromAtom>
11

>  <nAromBond>
11

>  <nAtom>
31

>  <nHeavyAtom>
17

>  <nSpiro>
0

>  <nBridgehead>
0

>  <nHetero>
4

>  <nN>
2

>  <nO>
2

>  <nF>
0

>  <BalabanJ>
1.94

>  <BertzCT>
505.15

>  <nBonds>
32

>  <nBondsO>
18

>  <nBondsS>
20

>  <nBondsD>
1

>  <nBondsT>
0

>  <nBondsA>
11

>  <nBondsM>
12

>  <nBondsKS>
26

>  <nBondsKD>
6

>  <RNCG>
0.28

>  <RPCG>
0.22

>  <FCSP3>
0.23

>  <SZ>
20.33

>  <Sm>
19.17

>  <Sv>
19.74

>  <Sse>
31.2

>  <Sp>
20.87

>  <Si>
34.91

>  <MZ>
0.66

>  <Mm>
0.62

>  <Mv>
0.64

>  <Mse>
1.01

>  <Mp>
0.67

>  <Mi>
1.13

>  <NsCH3>
2

>  <NdCH2>
0

>  <NssCH2>
0

>  <NtCH>
0

>  <NdsCH>
0

>  <NaaCH>
7

>  <NsssCH>
1

>  <NddC>
0

>  <NtsC>
0

>  <NdssC>
1

>  <NaasC>
2

>  <NaaaC>
0

>  <NssssC>
0

>  <NsNH3>
0

>  <NsNH2>
0

>  <NssNH2>
0

>  <NdNH>
0

>  <NssNH>
0

>  <NaaNH>
0

>  <NtN>
0

>  <NsssNH>
0

>  <NdsN>
0

>  <NaaN>
1

>  <NsssN>
0

>  <NddsN>
0

>  <NaasN>
1

>  <NssssN>
0

>  <NsOH>
0

>  <NdO>
1

>  <NssO>
1

>  <NaaO>
0

>  <NsF>
0

>  <NsSiH3>
0

>  <NssSiH2>
0

>  <NsssSiH>
0

>  <NssssSi>
0

>  <NsPH2>
0

>  <NssPH>
0

>  <NsssP>
0

>  <NdsssP>
0

>  <NsssssP>
0

>  <NsSH>
0

>  <NdS>
0

>  <NssS>
0

>  <NaaS>
0

>  <NdssS>
0

>  <NddssS>
0

>  <NsCl>
0

>  <NsBr>
0

>  <NsI>
0

>  <fragCpx>
52.04

>  <fMF>
0.39

>  <nHBAcc>
4

>  <nHBDon>
0

>  <Kier1>
13.43

>  <Kier2>
6.25

>  <Lipinski>
1

>  <GhoseFilter>
1

>  <FilterItLogS>
-2.39

>  <VMcGowan>
178.21

>  <LabuteASA>
99.86

>  <PEOE_VSA1>
9.3

>  <PEOE_VSA2>
0

>  <PEOE_VSA3>
9.78

>  <PEOE_VSA4>
0

>  <PEOE_VSA5>
0

>  <PEOE_VSA6>
30.33

>  <PEOE_VSA7>
12.49

>  <PEOE_VSA8>
0

>  <PEOE_VSA9>
25.68

>  <PEOE_VSA10>
5.69

>  <PEOE_VSA11>
0

>  <PEOE_VSA12>
0

>  <PEOE_VSA13>
0

>  <SMR_VSA1>
9.53

>  <SMR_VSA2>
0

>  <SMR_VSA3>
9.55

>  <SMR_VSA4>
0

>  <SMR_VSA5>
12.97

>  <SMR_VSA6>
7.11

>  <SMR_VSA7>
54.11

>  <SMR_VSA8>
0

>  <SMR_VSA9>
0

>  <SlogP_VSA1>
0

>  <SlogP_VSA2>
22.63

>  <SlogP_VSA3>
4.74

>  <SlogP_VSA4>
0

>  <SlogP_VSA5>
29.02

>  <SlogP_VSA6>
42.86

>  <SlogP_VSA7>
0

>  <SlogP_VSA8>
0

>  <SlogP_VSA9>
0

>  <SlogP_VSA10>
0

>  <SlogP_VSA11>
0

>  <EState_VSA1>
0

>  <EState_VSA2>
12.01

>  <EState_VSA3>
5.69

>  <EState_VSA4>
5.56

>  <EState_VSA5>
13.31

>  <EState_VSA6>
10.89

>  <EState_VSA7>
37.26

>  <EState_VSA8>
4.98

>  <EState_VSA9>
4.74

>  <EState_VSA10>
4.79

>  <VSA_EState1>
6.53

>  <VSA_EState2>
15.55

>  <VSA_EState3>
0

>  <VSA_EState4>
1.58

>  <VSA_EState5>
-0.37

>  <VSA_EState6>
10

>  <VSA_EState7>
3.16

>  <VSA_EState8>
2.02

>  <VSA_EState9>
1.37

>  <apol>
34.85

>  <bpol>
19.5

>  <nRing>
2

>  <nHRing>
1

>  <naRing>
2

>  <naHRing>
1

>  <nARing 2>
0

>  <nAHRing 2>
0

>  <nFRing>
0

>  <nFHRing>
0

>  <nFaRing>
0

>  <nFaHRing>
0

>  <nFARing 2>
0

>  <nFAHRing 2>
0

>  <nRot>
3

>  <SLogP>
2.28

>  <SMR>
63.82

>  <TopoPSA(NO)>
44.12

>  <TopoPSA>
44.12

>  <JGI1>
0.14

>  <JGI2>
0.09

>  <JGI3>
0.05

>  <JGI4>
0.04

>  <JGI5>
0.03

>  <Diameter>
9

>  <Radius>
5

>  <TMWC10>
105.93

>  <TSRW10>
63.02

>  <MW>
230.11

>  <AMW>
7.42

>  <WPath>
513

>  <WPol>
24

>  <Zagreb1>
84

>  <Zagreb2>
98

>  <mZagreb2>
3.94

>  <yes>


>  <nAR-cont>
0.336376

>  <nHA-cont>
0.976740822

>  <MWHBN>
0.263689141

>  <MWHBN-cont>
0.933888321

>  <TPSA-cont>
0.692015003

>  <pka_cont>
0.97

>  <yes.1>


>  <BBB_SCORE>
4.58297931

>  <MMFF94 Energy>
17.668

$$$$
Compound 1496
Actelion Java MolfileCreator 2.0

  0  0  0  0  0  0              0 V3000
M  V30 BEGIN CTAB
M  V30 COUNTS 45 47 0 0 0
M  V30 BEGIN ATOM
M  V30 1 Cl 5.4033 4.9037 1.4941 0
M  V30 2 C 4.6855 3.376 1.8654 0
M  V30 3 C 4.945 2.6962 3.0594 0
M  V30 4 C 3.8171 2.8185 0.9189 0
M  V30 5 Cl 6.0073 3.3194 4.271 0
M  V30 6 C 4.332 1.4646 3.3026 0
M  V30 7 C 3.2051 1.5752 1.1492 0
M  V30 8 C 3.4661 0.9096 2.3568 0
M  V30 9 C 2.2518 0.9952 0.1179 0
M  V30 10 O 2.3931 -0.4352 0.0541 0
M  V30 11 C 0.7895 1.3627 0.4568 0
M  V30 12 C 3.3851 -0.8375 -0.8837 0
M  V30 13 O 0.3513 2.5105 0.4133 0
M  V30 14 N 0.0105 0.2877 0.8271 0
M  V30 15 C -1.4297 0.4301 1.1343 0 CFG=2
M  V30 16 C -2.2019 -0.8932 1.3825 0
M  V30 17 C -2.4063 0.5957 -0.0661 0 CFG=2
M  V30 18 O -2.0412 -1.904 2.0249 0
M  V30 19 N -3.1163 -0.5809 0.4311 0
M  V30 20 S -1.8135 0.0773 -1.7349 0
M  V30 21 C -3.6994 -1.5057 -0.5195 0 CFG=2
M  V30 22 C -2.7379 -1.5411 -1.7292 0
M  V30 23 C -5.1054 -1.0178 -0.8534 0
M  V30 24 C -3.4224 -1.7116 -3.09 0
M  V30 25 C -1.6921 -2.6566 -1.559 0
M  V30 26 O -5.4961 0.1372 -0.9147 0
M  V30 27 O -5.9515 -2.0318 -1.1363 0
M  V30 28 H 3.609 3.3636 -7.0E-4 0
M  V30 29 H 4.5226 0.9298 4.2305 0
M  V30 30 H 2.9963 -0.0501 2.5683 0
M  V30 31 H 2.4475 1.4217 -0.8751 0
M  V30 32 H 4.3593 -0.409 -0.63 0
M  V30 33 H 3.0935 -0.5423 -1.8963 0
M  V30 34 H 3.4644 -1.9274 -0.8502 0
M  V30 35 H 0.4678 -0.6222 0.8124 0
M  V30 36 H -1.592 1.1525 1.9442 0
M  V30 37 H -3.0139 1.5051 -0.0552 0
M  V30 38 H -3.7825 -2.4876 -0.0376 0
M  V30 39 H -4.107 -0.8873 -3.3198 0
M  V30 40 H -3.9992 -2.6431 -3.119 0
M  V30 41 H -2.6903 -1.762 -3.9051 0
M  V30 42 H -0.9759 -2.671 -2.3894 0
M  V30 43 H -1.1197 -2.5579 -0.6306 0
M  V30 44 H -2.1801 -3.6382 -1.5363 0
M  V30 45 H -6.8065 -1.5857 -1.3204 0
M  V30 END ATOM
M  V30 BEGIN BOND
M  V30 1 1 1 2
M  V30 2 2 2 3
M  V30 3 1 2 4
M  V30 4 1 3 5
M  V30 5 1 3 6
M  V30 6 2 4 7
M  V30 7 2 6 8
M  V30 8 1 7 9
M  V30 9 1 9 10
M  V30 10 1 9 11
M  V30 11 1 10 12
M  V30 12 2 11 13
M  V30 13 1 11 14
M  V30 14 1 14 15
M  V30 15 1 15 16
M  V30 16 1 15 17
M  V30 17 2 16 18
M  V30 18 1 16 19
M  V30 19 1 17 20
M  V30 20 1 19 21
M  V30 21 1 20 22
M  V30 22 1 21 23
M  V30 23 1 22 24
M  V30 24 1 22 25
M  V30 25 2 23 26
M  V30 26 1 23 27
M  V30 27 1 7 8
M  V30 28 1 17 19
M  V30 29 1 21 22
M  V30 30 1 4 28
M  V30 31 1 6 29
M  V30 32 1 8 30
M  V30 33 1 9 31
M  V30 34 1 12 32
M  V30 35 1 12 33
M  V30 36 1 12 34
M  V30 37 1 14 35
M  V30 38 1 15 36
M  V30 39 1 17 37
M  V30 40 1 21 38
M  V30 41 1 24 39
M  V30 42 1 24 40
M  V30 43 1 24 41
M  V30 44 1 25 42
M  V30 45 1 25 43
M  V30 46 1 25 44
M  V30 47 1 27 45
M  V30 END BOND
M  V30 BEGIN COLLECTION
M  V30 MDLV30/STEABS ATOMS=(3 15 17 21)
M  V30 END COLLECTION
M  V30 END CTAB
M  END
>  <Column 1>
1798

>  <level_0>
1960

>  <index>
1960

>  <Unnamed: 0>
1960

>  <NO.>
1972

>  <Name>
clometocillin

>  <IUPAC_name>
(2s-5r-6r)-6-[[2-(3-4-dichlorophenyl)-2-methoxyacetyl]amino]-3-3-dimethyl-7-oxo-4-thia-1-azabicyclo[3.2.0]heptane-2-carboxylic acid

>  <SMILES>
COC(C(=O)N[C@@H]1C(=O)N2[C@@H](C(=O)O)C(C)(C)S[C@H]12)c1ccc(Cl)c(Cl)c1

>  <CID>
71807

>  <logBB>


>  <BBB+/BBB->
BBB-

>  <Inchi>
InChI=1S/C17H18Cl2N2O5S/c1-17(2)12(16(24)25)21-14(23)10(15(21)27-17)20-13(22)11(26-3)7-4-5-8(18)9(19)6-7/h4-6-10-12-15H-1-3H3-(H-20-22)(H-24-25)/t10--11?-12+-15-/m1/s1

>  <threshold>
-1

>  <reference>
R1|R6|R27|R30|

>  <group>
B

>  <Class>
1

>  <ABC>
21.05

>  <ABCGG>
18.17

>  <nAcid>
1

>  <nBase>
0

>  <nAromAtom>
6

>  <nAromBond>
6

>  <nAtom>
45

>  <nHeavyAtom>
27

>  <nSpiro>
0

>  <nBridgehead>
0

>  <nHetero>
10

>  <nN>
2

>  <nO>
5

>  <nF>
0

>  <BalabanJ>
1.63

>  <BertzCT>
818.51

>  <nBonds>
47

>  <nBondsO>
29

>  <nBondsS>
38

>  <nBondsD>
3

>  <nBondsT>
0

>  <nBondsA>
6

>  <nBondsM>
9

>  <nBondsKS>
41

>  <nBondsKD>
6

>  <RNCG>
0.17

>  <RPCG>
0.12

>  <FCSP3>
0.47

>  <SZ>
37.33

>  <Sm>
36.08

>  <Sv>
30.34

>  <Sse>
46.58

>  <Sp>
32.25

>  <Si>
50.59

>  <MZ>
0.83

>  <Mm>
0.8

>  <Mv>
0.67

>  <Mse>
1.04

>  <Mp>
0.72

>  <Mi>
1.12

>  <NsCH3>
3

>  <NdCH2>
0

>  <NssCH2>
0

>  <NtCH>
0

>  <NdsCH>
0

>  <NaaCH>
3

>  <NsssCH>
4

>  <NddC>
0

>  <NtsC>
0

>  <NdssC>
3

>  <NaasC>
3

>  <NaaaC>
0

>  <NssssC>
1

>  <NsNH3>
0

>  <NsNH2>
0

>  <NssNH2>
0

>  <NdNH>
0

>  <NssNH>
1

>  <NaaNH>
0

>  <NtN>
0

>  <NsssNH>
0

>  <NdsN>
0

>  <NaaN>
0

>  <NsssN>
1

>  <NddsN>
0

>  <NaasN>
0

>  <NssssN>
0

>  <NsOH>
1

>  <NdO>
3

>  <NssO>
1

>  <NaaO>
0

>  <NsF>
0

>  <NsSiH3>
0

>  <NssSiH2>
0

>  <NsssSiH>
0

>  <NssssSi>
0

>  <NsPH2>
0

>  <NssPH>
0

>  <NsssP>
0

>  <NdsssP>
0

>  <NsssssP>
0

>  <NsSH>
0

>  <NdS>
0

>  <NssS>
1

>  <NaaS>
0

>  <NdssS>
0

>  <NddssS>
0

>  <NsCl>
2

>  <NsBr>
0

>  <NsI>
0

>  <fragCpx>
139.1

>  <fMF>
0.36

>  <nHBAcc>
5

>  <nHBDon>
2

>  <Kier1>
21.7

>  <Kier2>
8.02

>  <Lipinski>
1

>  <GhoseFilter>
1

>  <FilterItLogS>
-3.41

>  <VMcGowan>
282.15

>  <LabuteASA>
169.87

>  <PEOE_VSA1>
20.06

>  <PEOE_VSA2>
9.59

>  <PEOE_VSA3>
4.79

>  <PEOE_VSA4>
0

>  <PEOE_VSA5>
11.76

>  <PEOE_VSA6>
29.27

>  <PEOE_VSA7>
31.54

>  <PEOE_VSA8>
11.86

>  <PEOE_VSA9>
10.05

>  <PEOE_VSA10>
17.46

>  <PEOE_VSA11>
6.1

>  <PEOE_VSA12>
5.91

>  <PEOE_VSA13>
5.91

>  <SMR_VSA1>
24.23

>  <SMR_VSA2>
0

>  <SMR_VSA3>
10.22

>  <SMR_VSA4>
0

>  <SMR_VSA5>
42.16

>  <SMR_VSA6>
7.11

>  <SMR_VSA7>
33.81

>  <SMR_VSA8>
0

>  <SMR_VSA9>
0

>  <SlogP_VSA1>
5.32

>  <SlogP_VSA2>
57.1

>  <SlogP_VSA3>
19.12

>  <SlogP_VSA4>
0

>  <SlogP_VSA5>
25.51

>  <SlogP_VSA6>
18.2

>  <SlogP_VSA7>
10.05

>  <SlogP_VSA8>
0

>  <SlogP_VSA9>
0

>  <SlogP_VSA10>
0

>  <SlogP_VSA11>
0

>  <EState_VSA1>
46.09

>  <EState_VSA2>
5.02

>  <EState_VSA3>
10.59

>  <EState_VSA4>
0

>  <EState_VSA5>
29.84

>  <EState_VSA6>
25.98

>  <EState_VSA7>
0

>  <EState_VSA8>
5.32

>  <EState_VSA9>
27.94

>  <EState_VSA10>
19.49

>  <VSA_EState1>
4.61

>  <VSA_EState2>
38.02

>  <VSA_EState3>
12.33

>  <VSA_EState4>
0.5

>  <VSA_EState5>
-1.98

>  <VSA_EState6>
2.97

>  <VSA_EState7>
-0.98

>  <VSA_EState8>
3.54

>  <VSA_EState9>
1.37

>  <apol>
53.86

>  <bpol>
28.16

>  <nRing>
3

>  <nHRing>
2

>  <naRing>
1

>  <naHRing>
0

>  <nARing 2>
2

>  <nAHRing 2>
2

>  <nFRing>
1

>  <nFHRing>
1

>  <nFaRing>
0

>  <nFaHRing>
0

>  <nFARing 2>
1

>  <nFAHRing 2>
1

>  <nRot>
5

>  <SLogP>
2.31

>  <SMR>
101.87

>  <TopoPSA(NO)>
95.94

>  <TopoPSA>
121.24

>  <JGI1>
0.26

>  <JGI2>
0.11

>  <JGI3>
0.09

>  <JGI4>
0.06

>  <JGI5>
0.03

>  <Diameter>
13

>  <Radius>
7

>  <TMWC10>
134.38

>  <TSRW10>
78.05

>  <MW>
432.03

>  <AMW>
9.6

>  <WPath>
1877

>  <WPol>
46

>  <Zagreb1>
148

>  <Zagreb2>
181

>  <mZagreb2>
5.79

>  <yes>


>  <nAR-cont>
1

>  <nHA-cont>
0.860070871

>  <MWHBN>
0.336775964

>  <MWHBN-cont>
0.718784586

>  <TPSA-cont>
0

>  <pka_cont>
0.97

>  <yes.1>


>  <BBB_SCORE>
3.423247751

>  <MMFF94 Energy>
98.445

$$$$
Compound 1497
Actelion Java MolfileCreator 2.0

  0  0  0  0  0  0              0 V3000
M  V30 BEGIN CTAB
M  V30 COUNTS 12 11 0 0 0
M  V30 BEGIN ATOM
M  V30 1 Br -0.1679 0.0 -3.1953 0
M  V30 2 C -0.6993 0.2057 -1.3274 0 CFG=2
M  V30 3 F -1.6668 1.1604 -1.2471 0
M  V30 4 C 0.501 0.5527 -0.4416 0
M  V30 5 F 1.0818 1.7141 -0.8355 0
M  V30 6 F 1.4607 -0.4067 -0.5305 0
M  V30 7 O 0.1593 0.7159 0.9345 0
M  V30 8 C 0.1369 -0.506 1.6521 0
M  V30 9 H -1.1479 -0.748 -1.0379 0
M  V30 10 H -0.5451 -1.2249 1.1896 0
M  V30 11 H 1.1428 -0.9304 1.7234 0
M  V30 12 H -0.2168 -0.3 2.6664 0
M  V30 END ATOM
M  V30 BEGIN BOND
M  V30 1 1 1 2
M  V30 2 1 2 3
M  V30 3 1 2 4
M  V30 4 1 4 5
M  V30 5 1 4 6
M  V30 6 1 4 7
M  V30 7 1 7 8
M  V30 8 1 2 9
M  V30 9 1 8 10
M  V30 10 1 8 11
M  V30 11 1 8 12
M  V30 END BOND
M  V30 BEGIN COLLECTION
M  V30 MDLV30/STERAC1 ATOMS=(1 2)
M  V30 END COLLECTION
M  V30 END CTAB
M  END
>  <Column 1>
1799

>  <level_0>
1961

>  <index>
1961

>  <Unnamed: 0>
1961

>  <NO.>
1973

>  <Name>
roflurane

>  <IUPAC_name>
2-bromo-1-1-2-trifluoro-1-methoxyethane

>  <SMILES>
COC(F)(F)C(F)Br

>  <CID>
12676

>  <logBB>


>  <BBB+/BBB->
BBB+

>  <Inchi>
InChI=1S/C3H4BrF3O/c1-8-3(6-7)2(4)5/h2H-1H3

>  <threshold>
-1

>  <reference>
R1|R19|R6|R27|R27|R30|

>  <group>
B

>  <Class>
1

>  <ABC>
5.42

>  <ABCGG>
5.97

>  <nAcid>
0

>  <nBase>
0

>  <nAromAtom>
0

>  <nAromBond>
0

>  <nAtom>
12

>  <nHeavyAtom>
8

>  <nSpiro>
0

>  <nBridgehead>
0

>  <nHetero>
5

>  <nN>
0

>  <nO>
1

>  <nF>
3

>  <BalabanJ>
3.71

>  <BertzCT>
74.93

>  <nBonds>
11

>  <nBondsO>
7

>  <nBondsS>
11

>  <nBondsD>
0

>  <nBondsT>
0

>  <nBondsA>
0

>  <nBondsM>
0

>  <nBondsKS>
11

>  <nBondsKD>
0

>  <RNCG>
0.34

>  <RPCG>
0.43

>  <FCSP3>
1

>  <SZ>
15.33

>  <Sm>
16.07

>  <Sv>
8.03

>  <Sse>
13.65

>  <Sp>
7.9

>  <Si>
14.73

>  <MZ>
1.28

>  <Mm>
1.34

>  <Mv>
0.67

>  <Mse>
1.14

>  <Mp>
0.66

>  <Mi>
1.23

>  <NsCH3>
1

>  <NdCH2>
0

>  <NssCH2>
0

>  <NtCH>
0

>  <NdsCH>
0

>  <NaaCH>
0

>  <NsssCH>
1

>  <NddC>
0

>  <NtsC>
0

>  <NdssC>
0

>  <NaasC>
0

>  <NaaaC>
0

>  <NssssC>
1

>  <NsNH3>
0

>  <NsNH2>
0

>  <NssNH2>
0

>  <NdNH>
0

>  <NssNH>
0

>  <NaaNH>
0

>  <NtN>
0

>  <NsssNH>
0

>  <NdsN>
0

>  <NaaN>
0

>  <NsssN>
0

>  <NddsN>
0

>  <NaasN>
0

>  <NssssN>
0

>  <NsOH>
0

>  <NdO>
0

>  <NssO>
1

>  <NaaO>
0

>  <NsF>
3

>  <NsSiH3>
0

>  <NssSiH2>
0

>  <NsssSiH>
0

>  <NssssSi>
0

>  <NsPH2>
0

>  <NssPH>
0

>  <NsssP>
0

>  <NdsssP>
0

>  <NsssssP>
0

>  <NsSH>
0

>  <NdS>
0

>  <NssS>
0

>  <NaaS>
0

>  <NdssS>
0

>  <NddssS>
0

>  <NsCl>
0

>  <NsBr>
1

>  <NsI>
0

>  <fragCpx>
7.05

>  <fMF>
0

>  <nHBAcc>
1

>  <nHBDon>
0

>  <Kier1>
8

>  <Kier2>
2.52

>  <Lipinski>
1

>  <GhoseFilter>
0

>  <FilterItLogS>
-1.8

>  <VMcGowan>
81.78

>  <LabuteASA>
52.95

>  <PEOE_VSA1>
4.74

>  <PEOE_VSA2>
0

>  <PEOE_VSA3>
4.39

>  <PEOE_VSA4>
8.78

>  <PEOE_VSA5>
0

>  <PEOE_VSA6>
0

>  <PEOE_VSA7>
15.93

>  <PEOE_VSA8>
7.11

>  <PEOE_VSA9>
0

>  <PEOE_VSA10>
0

>  <PEOE_VSA11>
0

>  <PEOE_VSA12>
5.08

>  <PEOE_VSA13>
0

>  <SMR_VSA1>
17.91

>  <SMR_VSA2>
0

>  <SMR_VSA3>
0

>  <SMR_VSA4>
0

>  <SMR_VSA5>
11.19

>  <SMR_VSA6>
7.11

>  <SMR_VSA7>
0

>  <SMR_VSA8>
0

>  <SMR_VSA9>
0

>  <SlogP_VSA1>
0

>  <SlogP_VSA2>
18.3

>  <SlogP_VSA3>
4.74

>  <SlogP_VSA4>
0

>  <SlogP_VSA5>
0

>  <SlogP_VSA6>
0

>  <SlogP_VSA7>
0

>  <SlogP_VSA8>
0

>  <SlogP_VSA9>
0

>  <SlogP_VSA10>
13.17

>  <SlogP_VSA11>
0

>  <EState_VSA1>
11.19

>  <EState_VSA2>
0

>  <EState_VSA3>
0

>  <EState_VSA4>
7.11

>  <EState_VSA5>
0

>  <EState_VSA6>
0

>  <EState_VSA7>
15.93

>  <EState_VSA8>
4.74

>  <EState_VSA9>
0

>  <EState_VSA10>
13.17

>  <VSA_EState1>
38.23

>  <VSA_EState2>
0

>  <VSA_EState3>
-2.43

>  <VSA_EState4>
0

>  <VSA_EState5>
0

>  <VSA_EState6>
0

>  <VSA_EState7>
-3.71

>  <VSA_EState8>
0

>  <VSA_EState9>
0.73

>  <apol>
13.2

>  <bpol>
10.47

>  <nRing>
0

>  <nHRing>
0

>  <naRing>
0

>  <naHRing>
0

>  <nARing 2>
0

>  <nAHRing 2>
0

>  <nFRing>
0

>  <nFHRing>
0

>  <nFaRing>
0

>  <nFaHRing>
0

>  <nFARing 2>
0

>  <nFAHRing 2>
0

>  <nRot>
2

>  <SLogP>
1.92

>  <SMR>
25.78

>  <TopoPSA(NO)>
9.23

>  <TopoPSA>
9.23

>  <JGI1>
0.5

>  <JGI2>
0.18

>  <JGI3>
0.03

>  <JGI4>
0

>  <JGI5>
0

>  <Diameter>
4

>  <Radius>
2

>  <TMWC10>
75.26

>  <TSRW10>
36

>  <MW>
191.94

>  <AMW>
15.99

>  <WPath>
62

>  <WPol>
9

>  <Zagreb1>
34

>  <Zagreb2>
36

>  <mZagreb2>
1.88

>  <yes>


>  <nAR-cont>
0.336376

>  <nHA-cont>
0.464727961

>  <MWHBN>
0.072180063

>  <MWHBN-cont>
0.549882344

>  <TPSA-cont>
0.935568869

>  <pka_cont>
0.97

>  <yes.1>


>  <BBB_SCORE>
3.982065215

>  <MMFF94 Energy>
47.512

$$$$
Compound 1498
Actelion Java MolfileCreator 2.0

  0  0  0  0  0  0              0 V3000
M  V30 BEGIN CTAB
M  V30 COUNTS 69 73 0 0 0
M  V30 BEGIN ATOM
M  V30 1 F -2.1909 -1.8661 0.7299 0
M  V30 2 C -2.1997 -1.251 -0.5041 0 CFG=2
M  V30 3 C -3.5175 -1.7393 -1.2266 0
M  V30 4 C -0.8822 -1.7025 -1.1899 0
M  V30 5 C -2.2097 0.2865 -0.254 0
M  V30 6 C -3.8212 -0.8708 -2.4472 0
M  V30 7 C -3.4211 -3.2184 -1.5985 0
M  V30 8 C -4.72 -1.6704 -0.2479 0
M  V30 9 O -0.8041 -1.3051 -2.5524 0
M  V30 10 C 0.3547 -1.227 -0.4082 0
M  V30 11 C -0.9095 0.8266 0.403 0
M  V30 12 C -2.5598 1.0909 -1.5257 0
M  V30 13 C -4.0139 -1.3699 -3.6818 0
M  V30 14 C -3.8384 0.6146 -2.207 0 CFG=2
M  V30 15 C -3.6108 -3.7113 -2.8293 0
M  V30 16 C 0.4416 0.3024 -0.1498 0
M  V30 17 C -0.8501 0.4986 1.9129 0
M  V30 18 C -3.9313 -2.8187 -3.9598 0
M  V30 19 F -4.8947 0.9499 -1.4159 0
M  V30 20 C 1.4393 0.6607 1.0226 0 CFG=1
M  V30 21 C 0.885 1.0065 -1.4492 0
M  V30 22 C 0.6222 0.5243 2.306 0 CFG=2
M  V30 23 O -4.1101 -3.2608 -5.0875 0
M  V30 24 O 2.5018 -0.2895 1.1384 0
M  V30 25 C 1.9727 2.1142 0.948 0
M  V30 26 O 1.0267 -0.7214 2.8776 0
M  V30 27 C 2.3656 -0.9113 2.424 0
M  V30 28 O 1.2412 3.0674 1.2392 0
M  V30 29 C 3.4301 2.297 0.4357 0
M  V30 30 C 2.6542 -2.4017 2.2957 0
M  V30 31 C 3.34 -0.2806 3.4199 0
M  V30 32 O 3.7126 3.4897 -0.2866 0
M  V30 33 O 4.3289 2.1191 1.5306 0
M  V30 34 C 3.5906 4.6827 0.4753 0
M  V30 35 C 5.6406 1.7897 1.094 0
M  V30 36 H -0.8437 -2.7985 -1.1805 0
M  V30 37 H -3.0106 0.4941 0.4688 0
M  V30 38 H -3.1946 -3.9123 -0.7899 0
M  V30 39 H -4.5949 -2.3672 0.5905 0
M  V30 40 H -4.858 -0.6793 0.1922 0
M  V30 41 H -5.6595 -1.9346 -0.7503 0
M  V30 42 H -0.0419 -1.7647 -2.9489 0
M  V30 43 H 0.3322 -1.7583 0.5478 0
M  V30 44 H 1.262 -1.5566 -0.9305 0
M  V30 45 H -0.925 1.9226 0.3228 0
M  V30 46 H -2.6872 2.1451 -1.249 0
M  V30 47 H -1.7495 1.0548 -2.2541 0
M  V30 48 H -4.2181 -0.7461 -4.5447 0
M  V30 49 H -3.9687 1.1684 -3.1434 0
M  V30 50 H -3.5446 -4.7691 -3.052 0
M  V30 51 H -1.4105 1.2583 2.4705 0
M  V30 52 H -1.2967 -0.4663 2.1631 0
M  V30 53 H 0.8259 2.0966 -1.3658 0
M  V30 54 H 1.9174 0.7392 -1.6992 0
M  V30 55 H 0.2873 0.7397 -2.3182 0
M  V30 56 H 0.8116 1.309 3.0475 0
M  V30 57 H 3.5921 1.489 -0.2864 0
M  V30 58 H 1.9638 -2.8787 1.5934 0
M  V30 59 H 2.5346 -2.9133 3.2566 0
M  V30 60 H 3.6668 -2.578 1.9179 0
M  V30 61 H 3.1427 0.7881 3.5517 0
M  V30 62 H 3.2448 -0.742 4.4087 0
M  V30 63 H 4.375 -0.3801 3.077 0
M  V30 64 H 4.0949 5.4824 -0.0749 0
M  V30 65 H 4.0648 4.5957 1.457 0
M  V30 66 H 2.5429 4.9718 0.5808 0
M  V30 67 H 5.6369 0.8404 0.5498 0
M  V30 68 H 6.0557 2.5842 0.4671 0
M  V30 69 H 6.2758 1.6783 1.977 0
M  V30 END ATOM
M  V30 BEGIN BOND
M  V30 1 1 1 2
M  V30 2 1 2 3
M  V30 3 1 2 4
M  V30 4 1 2 5
M  V30 5 1 3 6
M  V30 6 1 3 7
M  V30 7 1 3 8
M  V30 8 1 4 9
M  V30 9 1 4 10
M  V30 10 1 5 11
M  V30 11 1 5 12
M  V30 12 2 6 13
M  V30 13 1 6 14
M  V30 14 2 7 15
M  V30 15 1 10 16
M  V30 16 1 11 17
M  V30 17 1 13 18
M  V30 18 1 14 19
M  V30 19 1 16 20
M  V30 20 1 16 21
M  V30 21 1 17 22
M  V30 22 2 18 23
M  V30 23 1 20 24
M  V30 24 1 20 25
M  V30 25 1 22 26
M  V30 26 1 24 27
M  V30 27 2 25 28
M  V30 28 1 25 29
M  V30 29 1 27 30
M  V30 30 1 27 31
M  V30 31 1 29 32
M  V30 32 1 29 33
M  V30 33 1 32 34
M  V30 34 1 33 35
M  V30 35 1 11 16
M  V30 36 1 12 14
M  V30 37 1 15 18
M  V30 38 1 20 22
M  V30 39 1 26 27
M  V30 40 1 4 36
M  V30 41 1 5 37
M  V30 42 1 7 38
M  V30 43 1 8 39
M  V30 44 1 8 40
M  V30 45 1 8 41
M  V30 46 1 9 42
M  V30 47 1 10 43
M  V30 48 1 10 44
M  V30 49 1 11 45
M  V30 50 1 12 46
M  V30 51 1 12 47
M  V30 52 1 13 48
M  V30 53 1 14 49
M  V30 54 1 15 50
M  V30 55 1 17 51
M  V30 56 1 17 52
M  V30 57 1 21 53
M  V30 58 1 21 54
M  V30 59 1 21 55
M  V30 60 1 22 56
M  V30 61 1 29 57
M  V30 62 1 30 58
M  V30 63 1 30 59
M  V30 64 1 30 60
M  V30 65 1 31 61
M  V30 66 1 31 62
M  V30 67 1 31 63
M  V30 68 1 34 64
M  V30 69 1 34 65
M  V30 70 1 34 66
M  V30 71 1 35 67
M  V30 72 1 35 68
M  V30 73 1 35 69
M  V30 END BOND
M  V30 BEGIN COLLECTION
M  V30 MDLV30/STEABS ATOMS=(4 2 14 20 22)
M  V30 END COLLECTION
M  V30 END CTAB
M  END
>  <Column 1>
1800

>  <level_0>
1962

>  <index>
1962

>  <Unnamed: 0>
1962

>  <NO.>
1974

>  <Name>
flumoxonide

>  <IUPAC_name>
(4r-8s-12r-19s)-8-(2-2-dimethoxyacetyl)-12-19-difluoro-11-hydroxy-6-6-9-13-tetramethyl-5-7-dioxapentacyclo[10.8.0.02-9.04-8.013-18]icosa-14-17-dien-16-one

>  <SMILES>
COC(OC)C(=O)[C@@]12OC(C)(C)O[C@@H]1CC1C3C[C@H](F)C4=CC(=O)C=CC4(C)[C@@]3(F)C(O)CC12C

>  <CID>
43220

>  <logBB>


>  <BBB+/BBB->
BBB+

>  <Inchi>
InChI=1S/C26H34F2O7/c1-22(2)34-19-11-14-15-10-17(27)16-9-13(29)7-8-23(16-3)25(15-28)18(30)12-24(14-4)26(19-35-22)20(31)21(32-5)33-6/h7-9-14-15-17-19-21-30H-10-12H2-1-6H3/t14?-15?-17--18?-19+-23?-24?-25--26-/m0/s1

>  <threshold>
-1

>  <reference>
R1|R27|R30|

>  <group>
B

>  <Class>
1

>  <ABC>
28.13

>  <ABCGG>
23.32

>  <nAcid>
0

>  <nBase>
0

>  <nAromAtom>
0

>  <nAromBond>
0

>  <nAtom>
69

>  <nHeavyAtom>
35

>  <nSpiro>
0

>  <nBridgehead>
0

>  <nHetero>
9

>  <nN>
0

>  <nO>
7

>  <nF>
2

>  <BalabanJ>
1.61

>  <BertzCT>
1021.17

>  <nBonds>
73

>  <nBondsO>
39

>  <nBondsS>
69

>  <nBondsD>
4

>  <nBondsT>
0

>  <nBondsA>
0

>  <nBondsM>
4

>  <nBondsKS>
69

>  <nBondsKD>
4

>  <RNCG>
0.12

>  <RPCG>
0.07

>  <FCSP3>
0.77

>  <SZ>
44

>  <Sm>
41.34

>  <Sv>
41.51

>  <Sse>
70.32

>  <Sp>
43.6

>  <Si>
78.62

>  <MZ>
0.64

>  <Mm>
0.6

>  <Mv>
0.6

>  <Mse>
1.02

>  <Mp>
0.63

>  <Mi>
1.14

>  <NsCH3>
6

>  <NdCH2>
0

>  <NssCH2>
3

>  <NtCH>
0

>  <NdsCH>
3

>  <NaaCH>
0

>  <NsssCH>
6

>  <NddC>
0

>  <NtsC>
0

>  <NdssC>
3

>  <NaasC>
0

>  <NaaaC>
0

>  <NssssC>
5

>  <NsNH3>
0

>  <NsNH2>
0

>  <NssNH2>
0

>  <NdNH>
0

>  <NssNH>
0

>  <NaaNH>
0

>  <NtN>
0

>  <NsssNH>
0

>  <NdsN>
0

>  <NaaN>
0

>  <NsssN>
0

>  <NddsN>
0

>  <NaasN>
0

>  <NssssN>
0

>  <NsOH>
1

>  <NdO>
2

>  <NssO>
4

>  <NaaO>
0

>  <NsF>
2

>  <NsSiH3>
0

>  <NssSiH2>
0

>  <NsssSiH>
0

>  <NssssSi>
0

>  <NsPH2>
0

>  <NssPH>
0

>  <NsssP>
0

>  <NdsssP>
0

>  <NsssssP>
0

>  <NsSH>
0

>  <NdS>
0

>  <NssS>
0

>  <NaaS>
0

>  <NdssS>
0

>  <NddssS>
0

>  <NsCl>
0

>  <NsBr>
0

>  <NsI>
0

>  <fragCpx>
331.09

>  <fMF>
0.29

>  <nHBAcc>
7

>  <nHBDon>
1

>  <Kier1>
26.6

>  <Kier2>
8.25

>  <Lipinski>
1

>  <GhoseFilter>
0

>  <FilterItLogS>
-3.92

>  <VMcGowan>
350.31

>  <LabuteASA>
203.36

>  <PEOE_VSA1>
24.05

>  <PEOE_VSA2>
9.59

>  <PEOE_VSA3>
8.78

>  <PEOE_VSA4>
0

>  <PEOE_VSA5>
0

>  <PEOE_VSA6>
13

>  <PEOE_VSA7>
63.68

>  <PEOE_VSA8>
30.97

>  <PEOE_VSA9>
12.21

>  <PEOE_VSA10>
6.17

>  <PEOE_VSA11>
22.84

>  <PEOE_VSA12>
12.07

>  <PEOE_VSA13>
0

>  <SMR_VSA1>
42.42

>  <SMR_VSA2>
0

>  <SMR_VSA3>
0

>  <SMR_VSA4>
22.67

>  <SMR_VSA5>
88.68

>  <SMR_VSA6>
14.22

>  <SMR_VSA7>
23.8

>  <SMR_VSA8>
0

>  <SMR_VSA9>
0

>  <SlogP_VSA1>
0

>  <SlogP_VSA2>
72.62

>  <SlogP_VSA3>
28.54

>  <SlogP_VSA4>
22.67

>  <SlogP_VSA5>
46.96

>  <SlogP_VSA6>
23.8

>  <SlogP_VSA7>
0

>  <SlogP_VSA8>
0

>  <SlogP_VSA9>
0

>  <SlogP_VSA10>
8.78

>  <SlogP_VSA11>
0

>  <EState_VSA1>
75.96

>  <EState_VSA2>
24.84

>  <EState_VSA3>
0

>  <EState_VSA4>
6.08

>  <EState_VSA5>
26.37

>  <EState_VSA6>
27.69

>  <EState_VSA7>
0

>  <EState_VSA8>
0

>  <EState_VSA9>
18.95

>  <EState_VSA10>
14.7

>  <VSA_EState1>
56.11

>  <VSA_EState2>
25.94

>  <VSA_EState3>
11.52

>  <VSA_EState4>
-6.36

>  <VSA_EState5>
-3.49

>  <VSA_EState6>
0

>  <VSA_EState7>
-1.4

>  <VSA_EState8>
6.75

>  <VSA_EState9>
2.69

>  <apol>
72.82

>  <bpol>
45.02

>  <nRing>
5

>  <nHRing>
1

>  <naRing>
0

>  <naHRing>
0

>  <nARing 2>
5

>  <nAHRing 2>
1

>  <nFRing>
1

>  <nFHRing>
1

>  <nFaRing>
0

>  <nFaHRing>
0

>  <nFARing 2>
1

>  <nFAHRing 2>
1

>  <nRot>
4

>  <SLogP>
2.99

>  <SMR>
119.6

>  <TopoPSA(NO)>
91.29

>  <TopoPSA>
91.29

>  <JGI1>
0.33

>  <JGI2>
0.14

>  <JGI3>
0.09

>  <JGI4>
0.06

>  <JGI5>
0.04

>  <Diameter>
13

>  <Radius>
7

>  <TMWC10>
158.05

>  <TSRW10>
90.1

>  <MW>
496.23

>  <AMW>
7.19

>  <WPath>
3024

>  <WPol>
85

>  <Zagreb1>
212

>  <Zagreb2>
277

>  <mZagreb2>
7.25

>  <yes>


>  <nAR-cont>
0

>  <nHA-cont>
0.523063577

>  <MWHBN>
0.359127348

>  <MWHBN-cont>
0.635754455

>  <TPSA-cont>
0.362739112

>  <pka_cont>
0.97

>  <yes.1>


>  <BBB_SCORE>
2.687173484

>  <MMFF94 Energy>
180.5

$$$$
Compound 1499
Actelion Java MolfileCreator 2.0

  0  0  0  0  0  0              0 V3000
M  V30 BEGIN CTAB
M  V30 COUNTS 13 13 0 0 0
M  V30 BEGIN ATOM
M  V30 1 Cl 1.728 -2.2469 -0.1727 0
M  V30 2 C 1.0255 -0.7778 0.4907 0
M  V30 3 F 1.912 0.2904 0.6242 0
M  V30 4 C -0.0692 -0.8729 1.4978 0
M  V30 5 C -0.4046 -0.418 0.1156 0
M  V30 6 F -0.516 -2.0941 1.9622 0
M  V30 7 F -0.1184 0.0 2.5667 0
M  V30 8 F -1.1094 -1.3136 -0.684 0
M  V30 9 O -0.7196 0.9823 -0.0656 0
M  V30 10 C -0.5824 1.3921 -1.4185 0
M  V30 11 H 0.4388 1.2163 -1.7698 0
M  V30 12 H -1.2957 0.8563 -2.0517 0
M  V30 13 H -0.795 2.4628 -1.479 0
M  V30 END ATOM
M  V30 BEGIN BOND
M  V30 1 1 1 2
M  V30 2 1 2 3
M  V30 3 1 2 4
M  V30 4 1 2 5
M  V30 5 1 4 6
M  V30 6 1 4 7
M  V30 7 1 5 8
M  V30 8 1 5 9
M  V30 9 1 9 10
M  V30 10 1 4 5
M  V30 11 1 10 11
M  V30 12 1 10 12
M  V30 13 1 10 13
M  V30 END BOND
M  V30 END CTAB
M  END
>  <Column 1>
1801

>  <level_0>
1963

>  <index>
1963

>  <Unnamed: 0>
1963

>  <NO.>
1975

>  <Name>
aliflurane

>  <IUPAC_name>
1-chloro-1-2-2-3-tetrafluoro-3-methoxycyclopropane

>  <SMILES>
COC1(F)C(F)(F)C1(F)Cl

>  <CID>
41967

>  <logBB>


>  <BBB+/BBB->
BBB+

>  <Inchi>
InChI=1S/C4H3ClF4O/c1-10-4(9)2(5-6)3(4-7)8/h1H3

>  <threshold>
-1

>  <reference>
R1|R13|R19|R6|R27|R27|R30|

>  <group>
B

>  <Class>
1

>  <ABC>
7.58

>  <ABCGG>
8.32

>  <nAcid>
0

>  <nBase>
0

>  <nAromAtom>
0

>  <nAromBond>
0

>  <nAtom>
13

>  <nHeavyAtom>
10

>  <nSpiro>
0

>  <nBridgehead>
0

>  <nHetero>
6

>  <nN>
0

>  <nO>
1

>  <nF>
4

>  <BalabanJ>
2.9

>  <BertzCT>
154.64

>  <nBonds>
13

>  <nBondsO>
10

>  <nBondsS>
13

>  <nBondsD>
0

>  <nBondsT>
0

>  <nBondsA>
0

>  <nBondsM>
0

>  <nBondsKS>
13

>  <nBondsKD>
0

>  <RNCG>
0.28

>  <RPCG>
0.3

>  <FCSP3>
1

>  <SZ>
14.67

>  <Sm>
14.86

>  <Sv>
9.2

>  <Sse>
15.25

>  <Sp>
8.32

>  <Si>
16.17

>  <MZ>
1.13

>  <Mm>
1.14

>  <Mv>
0.71

>  <Mse>
1.17

>  <Mp>
0.64

>  <Mi>
1.24

>  <NsCH3>
1

>  <NdCH2>
0

>  <NssCH2>
0

>  <NtCH>
0

>  <NdsCH>
0

>  <NaaCH>
0

>  <NsssCH>
0

>  <NddC>
0

>  <NtsC>
0

>  <NdssC>
0

>  <NaasC>
0

>  <NaaaC>
0

>  <NssssC>
3

>  <NsNH3>
0

>  <NsNH2>
0

>  <NssNH2>
0

>  <NdNH>
0

>  <NssNH>
0

>  <NaaNH>
0

>  <NtN>
0

>  <NsssNH>
0

>  <NdsN>
0

>  <NaaN>
0

>  <NsssN>
0

>  <NddsN>
0

>  <NaasN>
0

>  <NssssN>
0

>  <NsOH>
0

>  <NdO>
0

>  <NssO>
1

>  <NaaO>
0

>  <NsF>
4

>  <NsSiH3>
0

>  <NssSiH2>
0

>  <NsssSiH>
0

>  <NssssSi>
0

>  <NsPH2>
0

>  <NssPH>
0

>  <NsssP>
0

>  <NdsssP>
0

>  <NsssssP>
0

>  <NsSH>
0

>  <NdS>
0

>  <NssS>
0

>  <NaaS>
0

>  <NdssS>
0

>  <NddssS>
0

>  <NsCl>
1

>  <NsBr>
0

>  <NsI>
0

>  <fragCpx>
10.06

>  <fMF>
0.23

>  <nHBAcc>
1

>  <nHBDon>
0

>  <Kier1>
8.1

>  <Kier2>
1.6

>  <Lipinski>
1

>  <GhoseFilter>
0

>  <FilterItLogS>
-2.54

>  <VMcGowan>
81.51

>  <LabuteASA>
58.91

>  <PEOE_VSA1>
4.74

>  <PEOE_VSA2>
0

>  <PEOE_VSA3>
4.39

>  <PEOE_VSA4>
13.17

>  <PEOE_VSA5>
0

>  <PEOE_VSA6>
11.6

>  <PEOE_VSA7>
0

>  <PEOE_VSA8>
7.11

>  <PEOE_VSA9>
0

>  <PEOE_VSA10>
0

>  <PEOE_VSA11>
0

>  <PEOE_VSA12>
0

>  <PEOE_VSA13>
0

>  <SMR_VSA1>
22.3

>  <SMR_VSA2>
0

>  <SMR_VSA3>
0

>  <SMR_VSA4>
0

>  <SMR_VSA5>
16.91

>  <SMR_VSA6>
7.11

>  <SMR_VSA7>
0

>  <SMR_VSA8>
0

>  <SMR_VSA9>
0

>  <SlogP_VSA1>
0

>  <SlogP_VSA2>
24.02

>  <SlogP_VSA3>
4.74

>  <SlogP_VSA4>
0

>  <SlogP_VSA5>
0

>  <SlogP_VSA6>
0

>  <SlogP_VSA7>
0

>  <SlogP_VSA8>
0

>  <SlogP_VSA9>
0

>  <SlogP_VSA10>
17.56

>  <SlogP_VSA11>
0

>  <EState_VSA1>
16.91

>  <EState_VSA2>
0

>  <EState_VSA3>
7.11

>  <EState_VSA4>
0

>  <EState_VSA5>
0

>  <EState_VSA6>
0

>  <EState_VSA7>
0

>  <EState_VSA8>
16.34

>  <EState_VSA9>
0

>  <EState_VSA10>
17.56

>  <VSA_EState1>
51.91

>  <VSA_EState2>
0

>  <VSA_EState3>
-3.7

>  <VSA_EState4>
0

>  <VSA_EState5>
-7.89

>  <VSA_EState6>
0

>  <VSA_EState7>
0

>  <VSA_EState8>
0

>  <VSA_EState9>
0.62

>  <apol>
13.89

>  <bpol>
9.71

>  <nRing>
1

>  <nHRing>
0

>  <naRing>
0

>  <naHRing>
0

>  <nARing 2>
1

>  <nAHRing 2>
0

>  <nFRing>
0

>  <nFHRing>
0

>  <nFaRing>
0

>  <nFaHRing>
0

>  <nFARing 2>
0

>  <nFAHRing 2>
0

>  <nRot>
1

>  <SLogP>
1.85

>  <SMR>
25.49

>  <TopoPSA(NO)>
9.23

>  <TopoPSA>
9.23

>  <JGI1>
0.45

>  <JGI2>
0.37

>  <JGI3>
0.05

>  <JGI4>
0

>  <JGI5>
0

>  <Diameter>
4

>  <Radius>
2

>  <TMWC10>
92.79

>  <TSRW10>
64.64

>  <MW>
177.98

>  <AMW>
13.69

>  <WPath>
103

>  <WPol>
15

>  <Zagreb1>
58

>  <Zagreb2>
78

>  <mZagreb2>
2.06

>  <yes>


>  <nAR-cont>
0.816016

>  <nHA-cont>
0.645914733

>  <MWHBN>
0.07495738

>  <MWHBN-cont>
0.570331221

>  <TPSA-cont>
0.935568869

>  <pka_cont>
0.97

>  <yes.1>


>  <BBB_SCORE>
4.673565302

>  <MMFF94 Energy>
63.797

$$$$
Compound 1500
Actelion Java MolfileCreator 2.0

  0  0  0  0  0  0              0 V3000
M  V30 BEGIN CTAB
M  V30 COUNTS 64 70 0 0 0
M  V30 BEGIN ATOM
M  V30 1 O -1.5408 0.3242 2.921 0
M  V30 2 C -0.6414 1.3567 2.8692 0
M  V30 3 C -1.5846 -0.234 1.5614 0 CFG=2
M  V30 4 C -0.1453 2.0569 3.9456 0
M  V30 5 C -0.1332 1.5775 1.6139 0
M  V30 6 C -0.9938 -1.6925 1.3926 0
M  V30 7 C -0.8013 0.7077 0.6145 0 CFG=1
M  V30 8 O -0.6394 1.8716 5.1996 0
M  V30 9 C 0.9156 2.9409 3.7437 0
M  V30 10 C 1.0078 2.332 1.3896 0
M  V30 11 O -1.616 -2.7141 2.1724 0
M  V30 12 C 0.5104 -1.6642 1.6102 0
M  V30 13 C -1.2179 -2.0463 -0.1541 0
M  V30 14 C 0.3248 -0.0143 -0.1723 0
M  V30 15 C -1.7295 1.5251 -0.3005 0
M  V30 16 C 1.5126 3.0588 2.4711 0
M  V30 17 C 1.7334 2.1701 0.0703 0
M  V30 18 C -1.7496 -2.4575 3.5628 0
M  V30 19 C 1.1923 -0.8342 0.8007 0
M  V30 20 C -1.1555 -3.5551 -0.5536 0
M  V30 21 C -0.3221 -1.1171 -1.0521 0
M  V30 22 C 1.0899 1.1221 -0.932 0 CFG=2
M  V30 23 C -0.9641 2.4282 -1.2754 0
M  V30 24 O -2.2048 -4.256 0.1318 0
M  V30 25 C 0.1586 -4.2602 -0.2109 0
M  V30 26 C -1.4566 -3.7436 -2.0483 0
M  V30 27 N 0.1548 1.7263 -1.9221 0
M  V30 28 C 0.7962 2.5933 -2.918 0
M  V30 29 C 1.7192 1.8093 -3.8035 0
M  V30 30 C 2.6171 2.538 -4.7733 0
M  V30 31 C 3.214 1.8278 -3.5922 0
M  V30 32 H -2.6533 -0.2667 1.3111 0
M  V30 33 H -1.3505 1.2103 5.1082 0
M  V30 34 H 1.3232 3.4921 4.587 0
M  V30 35 H 0.993 -2.2935 2.3475 0
M  V30 36 H -2.2638 -1.7627 -0.3566 0
M  V30 37 H -2.364 0.8436 -0.8815 0
M  V30 38 H -2.4153 2.1457 0.2914 0
M  V30 39 H 2.3998 3.6769 2.3553 0
M  V30 40 H 1.8622 3.152 -0.3948 0
M  V30 41 H 2.7437 1.8065 0.3028 0
M  V30 42 H -0.8261 -2.0697 4.0012 0
M  V30 43 H -1.9886 -3.4043 4.0558 0
M  V30 44 H -2.5846 -1.7754 3.743 0
M  V30 45 H 2.2717 -0.7396 0.8312 0
M  V30 46 H -0.9406 -0.7016 -1.8556 0
M  V30 47 H 0.4701 -1.6883 -1.5517 0
M  V30 48 H 1.9103 0.6428 -1.4791 0
M  V30 49 H -0.6202 3.3331 -0.7593 0
M  V30 50 H -1.678 2.7657 -2.0376 0
M  V30 51 H -2.12 -4.0205 1.08 0
M  V30 52 H 0.1373 -5.3006 -0.5579 0
M  V30 53 H 0.3138 -4.3207 0.8706 0
M  V30 54 H 1.023 -3.772 -0.6697 0
M  V30 55 H -2.4043 -3.2627 -2.3175 0
M  V30 56 H -0.6675 -3.3381 -2.6881 0
M  V30 57 H -1.5752 -4.8066 -2.2903 0
M  V30 58 H 0.0241 3.0138 -3.5753 0
M  V30 59 H 1.3084 3.4462 -2.4589 0
M  V30 60 H 1.2589 0.8953 -4.1649 0
M  V30 61 H 2.62 3.6222 -4.768 0
M  V30 62 H 2.7609 2.1008 -5.7551 0
M  V30 63 H 3.6206 2.4329 -2.7902 0
M  V30 64 H 3.7591 0.9083 -3.7736 0
M  V30 END ATOM
M  V30 BEGIN BOND
M  V30 1 1 1 2
M  V30 2 1 1 3
M  V30 3 2 2 4
M  V30 4 1 2 5
M  V30 5 1 3 6
M  V30 6 1 3 7
M  V30 7 1 4 8
M  V30 8 1 4 9
M  V30 9 2 5 10
M  V30 10 1 6 11
M  V30 11 1 6 12
M  V30 12 1 6 13
M  V30 13 1 7 14
M  V30 14 1 7 15
M  V30 15 2 9 16
M  V30 16 1 10 17
M  V30 17 1 11 18
M  V30 18 2 12 19
M  V30 19 1 13 20
M  V30 20 1 13 21
M  V30 21 1 14 22
M  V30 22 1 15 23
M  V30 23 1 20 24
M  V30 24 1 20 25
M  V30 25 1 20 26
M  V30 26 1 22 27
M  V30 27 1 27 28
M  V30 28 1 28 29
M  V30 29 1 29 30
M  V30 30 1 29 31
M  V30 31 1 5 7
M  V30 32 1 10 16
M  V30 33 1 14 19
M  V30 34 1 14 21
M  V30 35 1 17 22
M  V30 36 1 23 27
M  V30 37 1 30 31
M  V30 38 1 3 32
M  V30 39 1 8 33
M  V30 40 1 9 34
M  V30 41 1 12 35
M  V30 42 1 13 36
M  V30 43 1 15 37
M  V30 44 1 15 38
M  V30 45 1 16 39
M  V30 46 1 17 40
M  V30 47 1 17 41
M  V30 48 1 18 42
M  V30 49 1 18 43
M  V30 50 1 18 44
M  V30 51 1 19 45
M  V30 52 1 21 46
M  V30 53 1 21 47
M  V30 54 1 22 48
M  V30 55 1 23 49
M  V30 56 1 23 50
M  V30 57 1 24 51
M  V30 58 1 25 52
M  V30 59 1 25 53
M  V30 60 1 25 54
M  V30 61 1 26 55
M  V30 62 1 26 56
M  V30 63 1 26 57
M  V30 64 1 28 58
M  V30 65 1 28 59
M  V30 66 1 29 60
M  V30 67 1 30 61
M  V30 68 1 30 62
M  V30 69 1 31 63
M  V30 70 1 31 64
M  V30 END BOND
M  V30 BEGIN COLLECTION
M  V30 MDLV30/STEABS ATOMS=(3 3 7 22)
M  V30 END COLLECTION
M  V30 END CTAB
M  END
>  <Column 1>
1802

>  <level_0>
1964

>  <index>
1964

>  <Unnamed: 0>
1964

>  <NO.>
1976

>  <Name>
cyprenorphine

>  <IUPAC_name>
(2r-6s-14s)-5-(cyclopropylmethyl)-19-(2-hydroxypropan-2-yl)-15-methoxy-13-oxa-5-azahexacyclo[13.2.2.12-8.01-6.02-14.012-20]icosa-8(20)-9-11-16-tetraen-11-ol

>  <SMILES>
COC12C=CC3(CC1C(C)(C)O)[C@@H]1Cc4ccc(O)c5c4[C@]3(CCN1CC1CC1)[C@@H]2O5

>  <CID>
20435

>  <logBB>


>  <BBB+/BBB->
BBB+

>  <Inchi>
InChI=1S/C26H33NO4/c1-23(2-29)18-13-24-8-9-26(18-30-3)22-25(24)10-11-27(14-15-4-5-15)19(24)12-16-6-7-17(28)21(31-22)20(16)25/h6-9-15-18-19-22-28-29H-4-5-10-14H2-1-3H3/t18?-19--22--24?-25+-26?/m0/s1

>  <threshold>
-1

>  <reference>
R1|R27|R30|

>  <group>
B

>  <Class>
-1

>  <ABC>
26.12

>  <ABCGG>
19.39

>  <nAcid>
0

>  <nBase>
1

>  <nAromAtom>
6

>  <nAromBond>
6

>  <nAtom>
64

>  <nHeavyAtom>
31

>  <nSpiro>
2

>  <nBridgehead>
4

>  <nHetero>
5

>  <nN>
1

>  <nO>
4

>  <nF>
0

>  <BalabanJ>
1.42

>  <BertzCT>
1009.39

>  <nBonds>
70

>  <nBondsO>
37

>  <nBondsS>
63

>  <nBondsD>
1

>  <nBondsT>
0

>  <nBondsA>
6

>  <nBondsM>
7

>  <nBondsKS>
66

>  <nBondsKD>
4

>  <RNCG>
0.2

>  <RPCG>
0.11

>  <FCSP3>
0.69

>  <SZ>
38

>  <Sm>
35.26

>  <Sv>
38.56

>  <Sse>
63.64

>  <Sp>
41.76

>  <Si>
71.98

>  <MZ>
0.59

>  <Mm>
0.55

>  <Mv>
0.6

>  <Mse>
0.99

>  <Mp>
0.65

>  <Mi>
1.12

>  <NsCH3>
3

>  <NdCH2>
0

>  <NssCH2>
7

>  <NtCH>
0

>  <NdsCH>
2

>  <NaaCH>
2

>  <NsssCH>
4

>  <NddC>
0

>  <NtsC>
0

>  <NdssC>
0

>  <NaasC>
4

>  <NaaaC>
0

>  <NssssC>
4

>  <NsNH3>
0

>  <NsNH2>
0

>  <NssNH2>
0

>  <NdNH>
0

>  <NssNH>
0

>  <NaaNH>
0

>  <NtN>
0

>  <NsssNH>
0

>  <NdsN>
0

>  <NaaN>
0

>  <NsssN>
1

>  <NddsN>
0

>  <NaasN>
0

>  <NssssN>
0

>  <NsOH>
2

>  <NdO>
0

>  <NssO>
2

>  <NaaO>
0

>  <NsF>
0

>  <NsSiH3>
0

>  <NssSiH2>
0

>  <NsssSiH>
0

>  <NssssSi>
0

>  <NsPH2>
0

>  <NssPH>
0

>  <NsssP>
0

>  <NdsssP>
0

>  <NsssssP>
0

>  <NsSH>
0

>  <NdS>
0

>  <NssS>
0

>  <NaaS>
0

>  <NdssS>
0

>  <NddssS>
0

>  <NsCl>
0

>  <NsBr>
0

>  <NsI>
0

>  <fragCpx>
439.05

>  <fMF>
0.38

>  <nHBAcc>
5

>  <nHBDon>
2

>  <Kier1>
20.38

>  <Kier2>
6.16

>  <Lipinski>
1

>  <GhoseFilter>
1

>  <FilterItLogS>
-4

>  <VMcGowan>
317.44

>  <LabuteASA>
183.58

>  <PEOE_VSA1>
19.69

>  <PEOE_VSA2>
4.9

>  <PEOE_VSA3>
0

>  <PEOE_VSA4>
0

>  <PEOE_VSA5>
0

>  <PEOE_VSA6>
18.22

>  <PEOE_VSA7>
70.04

>  <PEOE_VSA8>
36.59

>  <PEOE_VSA9>
11.02

>  <PEOE_VSA10>
11.71

>  <PEOE_VSA11>
11.5

>  <PEOE_VSA12>
0

>  <PEOE_VSA13>
0

>  <SMR_VSA1>
19.69

>  <SMR_VSA2>
0

>  <SMR_VSA3>
4.9

>  <SMR_VSA4>
17.25

>  <SMR_VSA5>
74.71

>  <SMR_VSA6>
20.2

>  <SMR_VSA7>
35.41

>  <SMR_VSA8>
0

>  <SMR_VSA9>
11.5

>  <SlogP_VSA1>
4.74

>  <SlogP_VSA2>
58.66

>  <SlogP_VSA3>
16.57

>  <SlogP_VSA4>
17.25

>  <SlogP_VSA5>
50.66

>  <SlogP_VSA6>
24.28

>  <SlogP_VSA7>
0

>  <SlogP_VSA8>
0

>  <SlogP_VSA9>
0

>  <SlogP_VSA10>
0

>  <SlogP_VSA11>
11.5

>  <EState_VSA1>
11.2

>  <EState_VSA2>
28.6

>  <EState_VSA3>
11.79

>  <EState_VSA4>
31.73

>  <EState_VSA5>
30.51

>  <EState_VSA6>
7.11

>  <EState_VSA7>
19.91

>  <EState_VSA8>
23.12

>  <EState_VSA9>
9.47

>  <EState_VSA10>
10.21

>  <VSA_EState1>
13.05

>  <VSA_EState2>
2.75

>  <VSA_EState3>
22.14

>  <VSA_EState4>
0.65

>  <VSA_EState5>
1.68

>  <VSA_EState6>
4.33

>  <VSA_EState7>
10.05

>  <VSA_EState8>
6.09

>  <VSA_EState9>
1.76

>  <apol>
69.73

>  <bpol>
38.29

>  <nRing>
8

>  <nHRing>
2

>  <naRing>
1

>  <naHRing>
0

>  <nARing 2>
7

>  <nAHRing 2>
2

>  <nFRing>
1

>  <nFHRing>
1

>  <nFaRing>
0

>  <nFaHRing>
0

>  <nFARing 2>
1

>  <nFAHRing 2>
1

>  <nRot>
4

>  <SLogP>
3.16

>  <SMR>
116.32

>  <TopoPSA(NO)>
62.16

>  <TopoPSA>
62.16

>  <JGI1>
0.27

>  <JGI2>
0.11

>  <JGI3>
0.06

>  <JGI4>
0.06

>  <JGI5>
0.04

>  <Diameter>
10

>  <Radius>
5

>  <TMWC10>
152.23

>  <TSRW10>
88.98

>  <MW>
423.24

>  <AMW>
6.61

>  <WPath>
2039

>  <WPol>
77

>  <Zagreb1>
202

>  <Zagreb2>
269

>  <mZagreb2>
6.22

>  <yes>


>  <nAR-cont>
0

>  <nHA-cont>
0.702745138

>  <MWHBN>
0.340255134

>  <MWHBN-cont>
0.706205166

>  <TPSA-cont>
0.566084601

>  <pka_cont>
0.97

>  <yes.1>


>  <BBB_SCORE>
3.379222089

>  <MMFF94 Energy>
163.19

$$$$
Compound 1501
Actelion Java MolfileCreator 2.0

  0  0  0  0  0  0              0 V3000
M  V30 BEGIN CTAB
M  V30 COUNTS 28 29 0 0 0
M  V30 BEGIN ATOM
M  V30 1 Cl -0.162 2.5144 -1.9462 0
M  V30 2 C -0.8722 2.4264 -0.3715 0
M  V30 3 C -0.4806 1.4637 0.5755 0
M  V30 4 C -1.8679 3.3628 -0.0687 0
M  V30 5 C -1.1265 1.4694 1.8281 0
M  V30 6 C 0.5686 0.4076 0.2735 0
M  V30 7 C -2.4899 3.3525 1.1785 0
M  V30 8 C -2.1184 2.4057 2.1273 0
M  V30 9 O 1.3552 0.2111 1.463 0
M  V30 10 C -0.0742 -0.9283 -0.1823 0
M  V30 11 O -0.9127 -0.7505 -1.3329 0
M  V30 12 C 0.9353 -1.9197 -0.6588 0
M  V30 13 C -0.4584 -1.5188 -2.3563 0
M  V30 14 O 1.9111 -2.3289 0.2079 0
M  V30 15 C 0.7171 -2.2682 -1.9254 0
M  V30 16 O -0.9483 -1.59 -3.4679 0
M  V30 17 C 2.8233 -3.3067 -0.2883 0
M  V30 18 H -2.1654 4.1044 -0.8062 0
M  V30 19 H -0.8479 0.7405 2.5879 0
M  V30 20 H 1.2667 0.7771 -0.4847 0
M  V30 21 H -3.262 4.0822 1.4083 0
M  V30 22 H -2.5982 2.3943 3.103 0
M  V30 23 H 1.9632 -0.5296 1.2794 0
M  V30 24 H -0.6756 -1.3675 0.6231 0
M  V30 25 H 1.2457 -2.947 -2.5677 0
M  V30 26 H 2.298 -4.2283 -0.5596 0
M  V30 27 H 3.5322 -3.5416 0.511 0
M  V30 28 H 3.3886 -2.9149 -1.1402 0
M  V30 END ATOM
M  V30 BEGIN BOND
M  V30 1 1 1 2
M  V30 2 2 2 3
M  V30 3 1 2 4
M  V30 4 1 3 5
M  V30 5 1 3 6
M  V30 6 2 4 7
M  V30 7 2 5 8
M  V30 8 1 6 9
M  V30 9 1 6 10
M  V30 10 1 10 11
M  V30 11 1 10 12
M  V30 12 1 11 13
M  V30 13 1 12 14
M  V30 14 2 12 15
M  V30 15 2 13 16
M  V30 16 1 14 17
M  V30 17 1 7 8
M  V30 18 1 13 15
M  V30 19 1 4 18
M  V30 20 1 5 19
M  V30 21 1 6 20
M  V30 22 1 7 21
M  V30 23 1 8 22
M  V30 24 1 9 23
M  V30 25 1 10 24
M  V30 26 1 15 25
M  V30 27 1 17 26
M  V30 28 1 17 27
M  V30 29 1 17 28
M  V30 END BOND
M  V30 END CTAB
M  END
>  <Column 1>
1804

>  <level_0>
1966

>  <index>
1966

>  <Unnamed: 0>
1966

>  <NO.>
1978

>  <Name>
losigamone

>  <IUPAC_name>
2-[(2-chlorophenyl)-hydroxymethyl]-3-methoxy-2h-furan-5-one

>  <SMILES>
COC1=CC(=O)OC1C(O)c1ccccc1Cl

>  <CID>
60572

>  <logBB>


>  <BBB+/BBB->
BBB+

>  <Inchi>
InChI=1S/C12H11ClO4/c1-16-9-6-10(14)17-12(9)11(15)7-4-2-3-5-8(7)13/h2-6-11-12-15H-1H3

>  <threshold>
-1

>  <reference>
R1|R19|R27|R27|R30|

>  <group>
B

>  <Class>
1

>  <ABC>
12.89

>  <ABCGG>
11.95

>  <nAcid>
0

>  <nBase>
0

>  <nAromAtom>
6

>  <nAromBond>
6

>  <nAtom>
28

>  <nHeavyAtom>
17

>  <nSpiro>
0

>  <nBridgehead>
0

>  <nHetero>
5

>  <nN>
0

>  <nO>
4

>  <nF>
0

>  <BalabanJ>
2

>  <BertzCT>
469.33

>  <nBonds>
29

>  <nBondsO>
18

>  <nBondsS>
21

>  <nBondsD>
2

>  <nBondsT>
0

>  <nBondsA>
6

>  <nBondsM>
8

>  <nBondsKS>
24

>  <nBondsKD>
5

>  <RNCG>
0.26

>  <RPCG>
0.18

>  <FCSP3>
0.25

>  <SZ>
22

>  <Sm>
21.2

>  <Sv>
18.93

>  <Sse>
28.97

>  <Sp>
19.62

>  <Si>
31.27

>  <MZ>
0.79

>  <Mm>
0.76

>  <Mv>
0.68

>  <Mse>
1.03

>  <Mp>
0.7

>  <Mi>
1.12

>  <NsCH3>
1

>  <NdCH2>
0

>  <NssCH2>
0

>  <NtCH>
0

>  <NdsCH>
1

>  <NaaCH>
4

>  <NsssCH>
2

>  <NddC>
0

>  <NtsC>
0

>  <NdssC>
2

>  <NaasC>
2

>  <NaaaC>
0

>  <NssssC>
0

>  <NsNH3>
0

>  <NsNH2>
0

>  <NssNH2>
0

>  <NdNH>
0

>  <NssNH>
0

>  <NaaNH>
0

>  <NtN>
0

>  <NsssNH>
0

>  <NdsN>
0

>  <NaaN>
0

>  <NsssN>
0

>  <NddsN>
0

>  <NaasN>
0

>  <NssssN>
0

>  <NsOH>
1

>  <NdO>
1

>  <NssO>
2

>  <NaaO>
0

>  <NsF>
0

>  <NsSiH3>
0

>  <NssSiH2>
0

>  <NsssSiH>
0

>  <NssssSi>
0

>  <NsPH2>
0

>  <NssPH>
0

>  <NsssP>
0

>  <NdsssP>
0

>  <NsssssP>
0

>  <NsSH>
0

>  <NdS>
0

>  <NssS>
0

>  <NaaS>
0

>  <NdssS>
0

>  <NddssS>
0

>  <NsCl>
1

>  <NsBr>
0

>  <NsI>
0

>  <fragCpx>
52.05

>  <fMF>
0.43

>  <nHBAcc>
4

>  <nHBDon>
1

>  <Kier1>
13.43

>  <Kier2>
5.76

>  <Lipinski>
1

>  <GhoseFilter>
1

>  <FilterItLogS>
-2.27

>  <VMcGowan>
172.44

>  <LabuteASA>
103.41

>  <PEOE_VSA1>
14.58

>  <PEOE_VSA2>
0

>  <PEOE_VSA3>
4.79

>  <PEOE_VSA4>
0

>  <PEOE_VSA5>
0

>  <PEOE_VSA6>
29.8

>  <PEOE_VSA7>
6.07

>  <PEOE_VSA8>
10.59

>  <PEOE_VSA9>
13.19

>  <PEOE_VSA10>
11.86

>  <PEOE_VSA11>
6.1

>  <PEOE_VSA12>
0

>  <PEOE_VSA13>
0

>  <SMR_VSA1>
19.37

>  <SMR_VSA2>
0

>  <SMR_VSA3>
0

>  <SMR_VSA4>
0

>  <SMR_VSA5>
12.21

>  <SMR_VSA6>
7.11

>  <SMR_VSA7>
46.69

>  <SMR_VSA8>
0

>  <SMR_VSA9>
0

>  <SlogP_VSA1>
0

>  <SlogP_VSA2>
24.29

>  <SlogP_VSA3>
14.27

>  <SlogP_VSA4>
0

>  <SlogP_VSA5>
11.67

>  <SlogP_VSA6>
36.1

>  <SlogP_VSA7>
5.02

>  <SlogP_VSA8>
0

>  <SlogP_VSA9>
0

>  <SlogP_VSA10>
0

>  <SlogP_VSA11>
0

>  <EState_VSA1>
18.18

>  <EState_VSA2>
0

>  <EState_VSA3>
16.35

>  <EState_VSA4>
0

>  <EState_VSA5>
13.19

>  <EState_VSA6>
24.27

>  <EState_VSA7>
0

>  <EState_VSA8>
0

>  <EState_VSA9>
21.07

>  <EState_VSA10>
9.9

>  <VSA_EState1>
9.96

>  <VSA_EState2>
11.12

>  <VSA_EState3>
10.55

>  <VSA_EState4>
0.5

>  <VSA_EState5>
-0.24

>  <VSA_EState6>
6.84

>  <VSA_EState7>
-0.67

>  <VSA_EState8>
0

>  <VSA_EState9>
1.42

>  <apol>
32.76

>  <bpol>
15.89

>  <nRing>
2

>  <nHRing>
1

>  <naRing>
1

>  <naHRing>
0

>  <nARing 2>
1

>  <nAHRing 2>
1

>  <nFRing>
0

>  <nFHRing>
0

>  <nFaRing>
0

>  <nFaHRing>
0

>  <nFARing 2>
0

>  <nFAHRing 2>
0

>  <nRot>
3

>  <SLogP>
1.83

>  <SMR>
61.38

>  <TopoPSA(NO)>
55.76

>  <TopoPSA>
55.76

>  <JGI1>
0.19

>  <JGI2>
0.09

>  <JGI3>
0.07

>  <JGI4>
0.05

>  <JGI5>
0.02

>  <Diameter>
8

>  <Radius>
4

>  <TMWC10>
106.54

>  <TSRW10>
63.58

>  <MW>
254.03

>  <AMW>
9.07

>  <WPath>
499

>  <WPol>
25

>  <Zagreb1>
86

>  <Zagreb2>
101

>  <mZagreb2>
3.86

>  <yes>


>  <nAR-cont>
0.816016

>  <nHA-cont>
0.976740822

>  <MWHBN>
0.313709377

>  <MWHBN-cont>
0.797939885

>  <TPSA-cont>
0.610760575

>  <pka_cont>
0.97

>  <yes.1>


>  <BBB_SCORE>
4.696187799

>  <MMFF94 Energy>
44.804

$$$$
Compound 1502
Actelion Java MolfileCreator 2.0

  0  0  0  0  0  0              0 V3000
M  V30 BEGIN CTAB
M  V30 COUNTS 44 48 0 0 0
M  V30 BEGIN ATOM
M  V30 1 O 1.375 -1.5369 0.9705 0
M  V30 2 C 1.4651 -0.8761 -0.23 0
M  V30 3 C 0.1587 -1.0307 1.6135 0 CFG=1
M  V30 4 C 2.5489 -0.8781 -1.0912 0
M  V30 5 C 0.3592 -0.0989 -0.4935 0
M  V30 6 C 0.4826 -0.1875 2.8455 0
M  V30 7 C -0.6848 -0.2768 0.5498 0 CFG=2
M  V30 8 O 3.5843 -1.7078 -0.7715 0
M  V30 9 C 2.4894 -0.0184 -2.2019 0
M  V30 10 C 0.3157 0.8359 -1.518 0
M  V30 11 O 1.3424 -0.6726 3.8231 0
M  V30 12 C -0.038 1.041 3.0188 0
M  V30 13 C -1.1734 1.1091 0.8777 0
M  V30 14 C -1.8617 -1.145 0.0619 0
M  V30 15 C 4.7333 -1.6558 -1.6044 0
M  V30 16 C 1.3925 0.851 -2.4017 0
M  V30 17 C -0.7994 1.865 -1.5175 0
M  V30 18 C 1.2801 -2.0744 4.0597 0
M  V30 19 C -0.8911 1.695 2.0503 0
M  V30 20 C -1.844 1.7328 -0.3332 0 CFG=1
M  V30 21 C -2.7115 -0.458 -1.0143 0
M  V30 22 N -3.0452 0.9183 -0.6314 0
M  V30 23 C -3.9243 1.5436 -1.6143 0
M  V30 24 H -0.3929 -1.9152 1.9575 0
M  V30 25 H 3.3054 0.0344 -2.9159 0
M  V30 26 H 0.2213 1.6124 3.9064 0
M  V30 27 H -2.5112 -1.3772 0.9178 0
M  V30 28 H -1.5051 -2.1063 -0.3307 0
M  V30 29 H 4.4966 -1.9802 -2.6231 0
M  V30 30 H 5.4735 -2.3517 -1.1977 0
M  V30 31 H 5.1801 -0.656 -1.6015 0
M  V30 32 H 1.4159 1.5568 -3.2288 0
M  V30 33 H -1.2967 1.8628 -2.4926 0
M  V30 34 H -0.3221 2.8493 -1.4127 0
M  V30 35 H 0.2484 -2.4025 4.2245 0
M  V30 36 H 1.8493 -2.2853 4.9701 0
M  V30 37 H 1.7414 -2.6356 3.2427 0
M  V30 38 H -1.2075 2.7118 2.2638 0
M  V30 39 H -2.1827 2.7444 -0.0717 0
M  V30 40 H -2.1976 -0.4925 -1.9827 0
M  V30 41 H -3.6336 -1.0407 -1.1348 0
M  V30 42 H -4.8663 0.988 -1.6865 0
M  V30 43 H -4.1886 2.5617 -1.3077 0
M  V30 44 H -3.4842 1.5871 -2.6154 0
M  V30 END ATOM
M  V30 BEGIN BOND
M  V30 1 1 1 2
M  V30 2 1 1 3
M  V30 3 2 2 4
M  V30 4 1 2 5
M  V30 5 1 3 6
M  V30 6 1 3 7
M  V30 7 1 4 8
M  V30 8 1 4 9
M  V30 9 2 5 10
M  V30 10 1 6 11
M  V30 11 2 6 12
M  V30 12 1 7 13
M  V30 13 1 7 14
M  V30 14 1 8 15
M  V30 15 2 9 16
M  V30 16 1 10 17
M  V30 17 1 11 18
M  V30 18 1 12 19
M  V30 19 1 13 20
M  V30 20 1 14 21
M  V30 21 1 20 22
M  V30 22 1 22 23
M  V30 23 1 5 7
M  V30 24 1 10 16
M  V30 25 2 13 19
M  V30 26 1 17 20
M  V30 27 1 21 22
M  V30 28 1 3 24
M  V30 29 1 9 25
M  V30 30 1 12 26
M  V30 31 1 14 27
M  V30 32 1 14 28
M  V30 33 1 15 29
M  V30 34 1 15 30
M  V30 35 1 15 31
M  V30 36 1 16 32
M  V30 37 1 17 33
M  V30 38 1 17 34
M  V30 39 1 18 35
M  V30 40 1 18 36
M  V30 41 1 18 37
M  V30 42 1 19 38
M  V30 43 1 20 39
M  V30 44 1 21 40
M  V30 45 1 21 41
M  V30 46 1 23 42
M  V30 47 1 23 43
M  V30 48 1 23 44
M  V30 END BOND
M  V30 BEGIN COLLECTION
M  V30 MDLV30/STEABS ATOMS=(3 3 7 20)
M  V30 END COLLECTION
M  V30 END CTAB
M  END
>  <Column 1>
1805

>  <level_0>
1967

>  <index>
1967

>  <Unnamed: 0>
1967

>  <NO.>
1979

>  <Name>
thebaine

>  <IUPAC_name>
(4r-7ar-12bs)-7-9-dimethoxy-3-methyl-2-4-7a-13-tetrahydro-1h-4-12-methanobenzofuro[3-2-e]isoquinoline

>  <SMILES>
COC1=CC=C2[C@H]3Cc4ccc(OC)c5c4[C@@]2(CCN3C)[C@H]1O5

>  <CID>
5324289

>  <logBB>


>  <BBB+/BBB->
BBB+

>  <Inchi>
InChI=1S/C19H21NO3/c1-20-9-8-19-12-5-7-15(22-3)18(19)23-17-14(21-2)6-4-11(16(17)19)10-13(12)20/h4-7-13-18H-8-10H2-1-3H3/t13--18+-19+/m1/s1

>  <threshold>
-1

>  <reference>
R1|R27|R30|

>  <group>
B

>  <Class>
-1

>  <ABC>
18.77

>  <ABCGG>
14.45

>  <nAcid>
0

>  <nBase>
1

>  <nAromAtom>
6

>  <nAromBond>
6

>  <nAtom>
44

>  <nHeavyAtom>
23

>  <nSpiro>
1

>  <nBridgehead>
2

>  <nHetero>
4

>  <nN>
1

>  <nO>
3

>  <nF>
0

>  <BalabanJ>
1.62

>  <BertzCT>
766.12

>  <nBonds>
48

>  <nBondsO>
27

>  <nBondsS>
40

>  <nBondsD>
2

>  <nBondsT>
0

>  <nBondsA>
6

>  <nBondsM>
8

>  <nBondsKS>
43

>  <nBondsKD>
5

>  <RNCG>
0.24

>  <RPCG>
0.08

>  <FCSP3>
0.47

>  <SZ>
27.67

>  <Sm>
25.92

>  <Sv>
27.59

>  <Sse>
43.98

>  <Sp>
29.48

>  <Si>
49.28

>  <MZ>
0.63

>  <Mm>
0.59

>  <Mv>
0.63

>  <Mse>
1

>  <Mp>
0.67

>  <Mi>
1.12

>  <NsCH3>
3

>  <NdCH2>
0

>  <NssCH2>
3

>  <NtCH>
0

>  <NdsCH>
2

>  <NaaCH>
2

>  <NsssCH>
2

>  <NddC>
0

>  <NtsC>
0

>  <NdssC>
2

>  <NaasC>
4

>  <NaaaC>
0

>  <NssssC>
1

>  <NsNH3>
0

>  <NsNH2>
0

>  <NssNH2>
0

>  <NdNH>
0

>  <NssNH>
0

>  <NaaNH>
0

>  <NtN>
0

>  <NsssNH>
0

>  <NdsN>
0

>  <NaaN>
0

>  <NsssN>
1

>  <NddsN>
0

>  <NaasN>
0

>  <NssssN>
0

>  <NsOH>
0

>  <NdO>
0

>  <NssO>
3

>  <NaaO>
0

>  <NsF>
0

>  <NsSiH3>
0

>  <NssSiH2>
0

>  <NsssSiH>
0

>  <NssssSi>
0

>  <NsPH2>
0

>  <NssPH>
0

>  <NsssP>
0

>  <NdsssP>
0

>  <NsssssP>
0

>  <NsSH>
0

>  <NdS>
0

>  <NssS>
0

>  <NaaS>
0

>  <NdssS>
0

>  <NddssS>
0

>  <NsCl>
0

>  <NsBr>
0

>  <NsI>
0

>  <fragCpx>
223.04

>  <fMF>
0.41

>  <nHBAcc>
4

>  <nHBDon>
0

>  <Kier1>
15.27

>  <Kier2>
5.25

>  <Lipinski>
1

>  <GhoseFilter>
1

>  <FilterItLogS>
-3.59

>  <VMcGowan>
230.36

>  <LabuteASA>
135.87

>  <PEOE_VSA1>
14.21

>  <PEOE_VSA2>
4.9

>  <PEOE_VSA3>
0

>  <PEOE_VSA4>
0

>  <PEOE_VSA5>
0

>  <PEOE_VSA6>
12.14

>  <PEOE_VSA7>
49.71

>  <PEOE_VSA8>
11.61

>  <PEOE_VSA9>
19.63

>  <PEOE_VSA10>
5.76

>  <PEOE_VSA11>
17.6

>  <PEOE_VSA12>
0

>  <PEOE_VSA13>
0

>  <SMR_VSA1>
14.21

>  <SMR_VSA2>
0

>  <SMR_VSA3>
4.9

>  <SMR_VSA4>
0

>  <SMR_VSA5>
30.4

>  <SMR_VSA6>
27.81

>  <SMR_VSA7>
46.74

>  <SMR_VSA8>
0

>  <SMR_VSA9>
11.5

>  <SlogP_VSA1>
9.47

>  <SlogP_VSA2>
44.86

>  <SlogP_VSA3>
16.57

>  <SlogP_VSA4>
0

>  <SlogP_VSA5>
17.55

>  <SlogP_VSA6>
35.62

>  <SlogP_VSA7>
0

>  <SlogP_VSA8>
0

>  <SlogP_VSA9>
0

>  <SlogP_VSA10>
0

>  <SlogP_VSA11>
11.5

>  <EState_VSA1>
0

>  <EState_VSA2>
11.52

>  <EState_VSA3>
6.04

>  <EState_VSA4>
36.64

>  <EState_VSA5>
16.7

>  <EState_VSA6>
14.22

>  <EState_VSA7>
6.07

>  <EState_VSA8>
30.17

>  <EState_VSA9>
14.21

>  <EState_VSA10>
0

>  <VSA_EState1>
17.72

>  <VSA_EState2>
2.48

>  <VSA_EState3>
0

>  <VSA_EState4>
4.15

>  <VSA_EState5>
2.68

>  <VSA_EState6>
4.72

>  <VSA_EState7>
6.41

>  <VSA_EState8>
1.08

>  <VSA_EState9>
5.68

>  <apol>
49.24

>  <bpol>
27.99

>  <nRing>
5

>  <nHRing>
2

>  <naRing>
1

>  <naHRing>
0

>  <nARing 2>
4

>  <nAHRing 2>
2

>  <nFRing>
1

>  <nFHRing>
1

>  <nFaRing>
0

>  <nFaHRing>
0

>  <nFARing 2>
1

>  <nFAHRing 2>
1

>  <nRot>
2

>  <SLogP>
2.42

>  <SMR>
87

>  <TopoPSA(NO)>
30.93

>  <TopoPSA>
30.93

>  <JGI1>
0.19

>  <JGI2>
0.1

>  <JGI3>
0.05

>  <JGI4>
0.05

>  <JGI5>
0.03

>  <Diameter>
9

>  <Radius>
5

>  <TMWC10>
129.84

>  <TSRW10>
73.77

>  <MW>
311.15

>  <AMW>
7.07

>  <WPath>
940

>  <WPol>
53

>  <Zagreb1>
140

>  <Zagreb2>
183

>  <mZagreb2>
4.96

>  <yes>


>  <nAR-cont>
0.199399

>  <nHA-cont>
0.967789328

>  <MWHBN>
0.226764511

>  <MWHBN-cont>
0.989826791

>  <TPSA-cont>
0.784089394

>  <pka_cont>
0.97

>  <yes.1>


>  <BBB_SCORE>
4.705107302

>  <MMFF94 Energy>
102.68

$$$$
Compound 1503
Actelion Java MolfileCreator 2.0

  0  0  0  0  0  0              0 V3000
M  V30 BEGIN CTAB
M  V30 COUNTS 39 41 0 0 0
M  V30 BEGIN ATOM
M  V30 1 O 2.0822 -0.16 2.9642 0
M  V30 2 C 1.9399 -0.5657 1.8342 0
M  V30 3 N 0.9592 -1.2947 1.236 0
M  V30 4 C 2.6465 -0.3328 0.4812 0
M  V30 5 C -0.3811 -1.0385 1.3669 0
M  V30 6 C 1.4132 -1.062 -0.1522 0
M  V30 7 C 2.8724 1.1213 0.1115 0
M  V30 8 C -0.884 -0.5531 0.2206 0
M  V30 9 C -1.0525 -1.2894 2.6617 0
M  V30 10 C 0.2019 -0.3961 -0.8227 0
M  V30 11 O 3.1232 1.182 -1.2927 0
M  V30 12 C 4.0759 1.6881 0.8518 0
M  V30 13 C -2.2743 -0.173 -0.1668 0
M  V30 14 O -0.6745 -2.0605 3.5263 0
M  V30 15 O -2.1709 -0.5638 2.8349 0
M  V30 16 C -0.1991 -1.1047 -2.116 0
M  V30 17 O -2.2746 1.246 -0.3447 0
M  V30 18 C -2.6448 -0.855 -1.4953 0
M  V30 19 C -1.5834 -0.6504 -2.5861 0
M  V30 20 C -3.5057 1.8433 0.0397 0
M  V30 21 H 3.5644 -0.9313 0.3957 0
M  V30 22 H 1.7006 -2.0132 -0.6219 0
M  V30 23 H 1.9873 1.7312 0.3233 0
M  V30 24 H 0.3777 0.6672 -1.0168 0
M  V30 25 H 3.2978 2.1137 -1.518 0
M  V30 26 H 3.9328 1.6595 1.9359 0
M  V30 27 H 4.257 2.726 0.5522 0
M  V30 28 H 4.9854 1.1267 0.6102 0
M  V30 29 H -3.0031 -0.4698 0.5935 0
M  V30 30 H -2.4448 -0.8053 3.7445 0
M  V30 31 H -0.2126 -2.1934 -1.9727 0
M  V30 32 H 0.5454 -0.9043 -2.8953 0
M  V30 33 H -3.5994 -0.4639 -1.8656 0
M  V30 34 H -2.7777 -1.9313 -1.3264 0
M  V30 35 H -1.5456 0.4079 -2.8717 0
M  V30 36 H -1.8685 -1.2125 -3.4826 0
M  V30 37 H -3.4435 2.9164 -0.1599 0
M  V30 38 H -3.6807 1.6993 1.1103 0
M  V30 39 H -4.3369 1.4286 -0.5379 0
M  V30 END ATOM
M  V30 BEGIN BOND
M  V30 1 2 1 2
M  V30 2 1 2 3
M  V30 3 1 2 4
M  V30 4 1 3 5
M  V30 5 1 3 6
M  V30 6 1 4 7
M  V30 7 2 5 8
M  V30 8 1 5 9
M  V30 9 1 6 10
M  V30 10 1 7 11
M  V30 11 1 7 12
M  V30 12 1 8 13
M  V30 13 2 9 14
M  V30 14 1 9 15
M  V30 15 1 10 16
M  V30 16 1 13 17
M  V30 17 1 13 18
M  V30 18 1 16 19
M  V30 19 1 17 20
M  V30 20 1 4 6
M  V30 21 1 8 10
M  V30 22 1 18 19
M  V30 23 1 4 21
M  V30 24 1 6 22
M  V30 25 1 7 23
M  V30 26 1 10 24
M  V30 27 1 11 25
M  V30 28 1 12 26
M  V30 29 1 12 27
M  V30 30 1 12 28
M  V30 31 1 13 29
M  V30 32 1 15 30
M  V30 33 1 16 31
M  V30 34 1 16 32
M  V30 35 1 18 33
M  V30 36 1 18 34
M  V30 37 1 19 35
M  V30 38 1 19 36
M  V30 39 1 20 37
M  V30 40 1 20 38
M  V30 41 1 20 39
M  V30 END BOND
M  V30 END CTAB
M  END
>  <Column 1>
1809

>  <level_0>
1971

>  <index>
1971

>  <Unnamed: 0>
1971

>  <NO.>
1983

>  <Name>
sanfetrinem

>  <IUPAC_name>
1-(1-hydroxyethyl)-5-methoxy-2-oxo-5-6-7-8-8a-8b-hexahydro-1h-azeto[1-2-b]isoindole-4-carboxylate

>  <SMILES>
COC1CCCC2C1=C(C(=O)O)N1C(=O)C(C(C)O)C21

>  <CID>
6426700

>  <logBB>


>  <BBB+/BBB->
BBB-

>  <Inchi>
InChI=1S/C14H19NO5/c1-6(16)9-11-7-4-3-5-8(20-2)10(7)12(14(18)19)15(11)13(9)17/h6-9-11-16H-3-5H2-1-2H3-(H-18-19)

>  <threshold>
-1

>  <reference>
R1|R27|R30|

>  <group>
B

>  <Class>
1

>  <ABC>
15.66

>  <ABCGG>
14.11

>  <nAcid>
1

>  <nBase>
0

>  <nAromAtom>
0

>  <nAromBond>
0

>  <nAtom>
39

>  <nHeavyAtom>
20

>  <nSpiro>
0

>  <nBridgehead>
0

>  <nHetero>
6

>  <nN>
1

>  <nO>
5

>  <nF>
0

>  <BalabanJ>
1.92

>  <BertzCT>
497.79

>  <nBonds>
41

>  <nBondsO>
22

>  <nBondsS>
38

>  <nBondsD>
3

>  <nBondsT>
0

>  <nBondsA>
0

>  <nBondsM>
3

>  <nBondsKS>
38

>  <nBondsKD>
3

>  <RNCG>
0.21

>  <RPCG>
0.16

>  <FCSP3>
0.71

>  <SZ>
25

>  <Sm>
23.42

>  <Sv>
23.48

>  <Sse>
39.75

>  <Sp>
24.65

>  <Si>
44.28

>  <MZ>
0.64

>  <Mm>
0.6

>  <Mv>
0.6

>  <Mse>
1.02

>  <Mp>
0.63

>  <Mi>
1.14

>  <NsCH3>
2

>  <NdCH2>
0

>  <NssCH2>
3

>  <NtCH>
0

>  <NdsCH>
0

>  <NaaCH>
0

>  <NsssCH>
5

>  <NddC>
0

>  <NtsC>
0

>  <NdssC>
4

>  <NaasC>
0

>  <NaaaC>
0

>  <NssssC>
0

>  <NsNH3>
0

>  <NsNH2>
0

>  <NssNH2>
0

>  <NdNH>
0

>  <NssNH>
0

>  <NaaNH>
0

>  <NtN>
0

>  <NsssNH>
0

>  <NdsN>
0

>  <NaaN>
0

>  <NsssN>
1

>  <NddsN>
0

>  <NaasN>
0

>  <NssssN>
0

>  <NsOH>
2

>  <NdO>
2

>  <NssO>
1

>  <NaaO>
0

>  <NsF>
0

>  <NsSiH3>
0

>  <NssSiH2>
0

>  <NsssSiH>
0

>  <NssssSi>
0

>  <NsPH2>
0

>  <NssPH>
0

>  <NsssP>
0

>  <NdsssP>
0

>  <NsssssP>
0

>  <NsSH>
0

>  <NdS>
0

>  <NssS>
0

>  <NaaS>
0

>  <NdssS>
0

>  <NddssS>
0

>  <NsCl>
0

>  <NsBr>
0

>  <NsI>
0

>  <fragCpx>
104.06

>  <fMF>
0.28

>  <nHBAcc>
4

>  <nHBDon>
2

>  <Kier1>
14.92

>  <Kier2>
5.33

>  <Lipinski>
1

>  <GhoseFilter>
1

>  <FilterItLogS>
-0.28

>  <VMcGowan>
201.97

>  <LabuteASA>
116.56

>  <PEOE_VSA1>
19.85

>  <PEOE_VSA2>
4.79

>  <PEOE_VSA3>
4.79

>  <PEOE_VSA4>
0

>  <PEOE_VSA5>
0

>  <PEOE_VSA6>
0

>  <PEOE_VSA7>
31.76

>  <PEOE_VSA8>
13.03

>  <PEOE_VSA9>
24.17

>  <PEOE_VSA10>
5.7

>  <PEOE_VSA11>
0

>  <PEOE_VSA12>
5.91

>  <PEOE_VSA13>
0

>  <SMR_VSA1>
24.54

>  <SMR_VSA2>
0

>  <SMR_VSA3>
4.9

>  <SMR_VSA4>
11.84

>  <SMR_VSA5>
44.44

>  <SMR_VSA6>
7.11

>  <SMR_VSA7>
11.27

>  <SMR_VSA8>
0

>  <SMR_VSA9>
0

>  <SlogP_VSA1>
0

>  <SlogP_VSA2>
52.35

>  <SlogP_VSA3>
14.33

>  <SlogP_VSA4>
11.84

>  <SlogP_VSA5>
26.19

>  <SlogP_VSA6>
11.27

>  <SlogP_VSA7>
0

>  <SlogP_VSA8>
0

>  <SlogP_VSA9>
0

>  <SlogP_VSA10>
0

>  <SlogP_VSA11>
0

>  <EState_VSA1>
17.99

>  <EState_VSA2>
29.67

>  <EState_VSA3>
0

>  <EState_VSA4>
24.84

>  <EState_VSA5>
4.9

>  <EState_VSA6>
14.03

>  <EState_VSA7>
0

>  <EState_VSA8>
0

>  <EState_VSA9>
4.74

>  <EState_VSA10>
19.8

>  <VSA_EState1>
5.42

>  <VSA_EState2>
25.1

>  <VSA_EState3>
19.24

>  <VSA_EState4>
0.83

>  <VSA_EState5>
-1.83

>  <VSA_EState6>
-0.21

>  <VSA_EState7>
1.61

>  <VSA_EState8>
1.59

>  <VSA_EState9>
1.57

>  <apol>
41.16

>  <bpol>
24.24

>  <nRing>
3

>  <nHRing>
2

>  <naRing>
0

>  <naHRing>
0

>  <nARing 2>
3

>  <nAHRing 2>
2

>  <nFRing>
1

>  <nFHRing>
1

>  <nFaRing>
0

>  <nFaHRing>
0

>  <nFARing 2>
1

>  <nFAHRing 2>
1

>  <nRot>
3

>  <SLogP>
0.36

>  <SMR>
68.6

>  <TopoPSA(NO)>
87.07

>  <TopoPSA>
87.07

>  <JGI1>
0.16

>  <JGI2>
0.07

>  <JGI3>
0.09

>  <JGI4>
0.06

>  <JGI5>
0.04

>  <Diameter>
8

>  <Radius>
4

>  <TMWC10>
119.13

>  <TSRW10>
69.99

>  <MW>
281.13

>  <AMW>
7.21

>  <WPath>
701

>  <WPol>
36

>  <Zagreb1>
112

>  <Zagreb2>
142

>  <mZagreb2>
4.39

>  <yes>


>  <nAR-cont>
0.691115

>  <nHA-cont>
0.999629945

>  <MWHBN>
0.357847225

>  <MWHBN-cont>
0.640633935

>  <TPSA-cont>
0.392197333

>  <pka_cont>
0.97

>  <yes.1>


>  <BBB_SCORE>
3.921090513

>  <MMFF94 Energy>
16.931

$$$$
Compound 1504
Actelion Java MolfileCreator 2.0

  0  0  0  0  0  0              0 V3000
M  V30 BEGIN CTAB
M  V30 COUNTS 54 56 0 0 0
M  V30 BEGIN ATOM
M  V30 1 F -1.1912 -0.1587 -4.1342 0
M  V30 2 C -0.0164 -0.8035 -4.1923 0
M  V30 3 C 0.94 -0.6147 -3.1903 0
M  V30 4 C 0.2353 -1.6523 -5.2653 0
M  V30 5 N 0.6704 0.2275 -2.0834 0
M  V30 6 C 2.158 -1.2947 -3.2619 0
M  V30 7 C 1.4549 -2.3258 -5.3388 0
M  V30 8 C 0.8891 1.606 -2.1253 0
M  V30 9 C 0.0912 -0.4368 -0.8971 0
M  V30 10 C 2.4146 -2.1466 -4.339 0
M  V30 11 O 0.6049 2.3546 -1.1845 0
M  V30 12 C 1.4877 2.2006 -3.4092 0
M  V30 13 C 0.9832 -0.3097 0.3452 0
M  V30 14 C -1.3454 0.0167 -0.606 0
M  V30 15 O 2.8375 1.7969 -3.6094 0
M  V30 16 C 0.3291 -0.9837 1.5524 0
M  V30 17 C -1.8886 -0.6874 0.6376 0
M  V30 18 C 3.3652 2.322 -4.8189 0
M  V30 19 N -1.0409 -0.5307 1.8292 0
M  V30 20 C -1.1171 0.8424 2.372 0
M  V30 21 C -0.5897 1.0045 3.8117 0
M  V30 22 C -1.4748 0.3735 4.8618 0
M  V30 23 C -2.4206 1.1446 5.552 0
M  V30 24 C -1.3733 -0.9929 5.153 0
M  V30 25 C -3.2406 0.5612 6.5198 0
M  V30 26 C -2.1943 -1.5754 6.1199 0
M  V30 27 C -3.1266 -0.7981 6.8044 0
M  V30 28 H -0.5187 -1.7841 -6.0348 0
M  V30 29 H 2.9127 -1.1512 -2.4927 0
M  V30 30 H 1.6596 -2.9905 -6.1748 0
M  V30 31 H 0.0349 -1.5122 -1.1258 0
M  V30 32 H 3.3665 -2.6693 -4.3993 0
M  V30 33 H 0.8656 1.9192 -4.2657 0
M  V30 34 H 1.4522 3.293 -3.3158 0
M  V30 35 H 1.1986 0.7372 0.5808 0
M  V30 36 H 1.9546 -0.7802 0.1491 0
M  V30 37 H -1.9874 -0.2156 -1.4645 0
M  V30 38 H -1.4037 1.1014 -0.4684 0
M  V30 39 H 0.9707 -0.8643 2.4314 0
M  V30 40 H 0.2983 -2.0672 1.3752 0
M  V30 41 H -1.9907 -1.7598 0.4249 0
M  V30 42 H -2.9079 -0.339 0.846 0
M  V30 43 H 4.4016 1.9881 -4.9159 0
M  V30 44 H 3.3504 3.4161 -4.8017 0
M  V30 45 H 2.7974 1.9502 -5.6773 0
M  V30 46 H -2.1654 1.1709 2.3714 0
M  V30 47 H -0.5788 1.5454 1.7257 0
M  V30 48 H 0.4321 0.6232 3.916 0
M  V30 49 H -0.5098 2.0791 4.0253 0
M  V30 50 H -2.5249 2.206 5.3394 0
M  V30 51 H -0.6586 -1.6126 4.6164 0
M  V30 52 H -3.97 1.1678 7.0498 0
M  V30 53 H -2.1086 -2.6372 6.3339 0
M  V30 54 H -3.7666 -1.2524 7.5556 0
M  V30 END ATOM
M  V30 BEGIN BOND
M  V30 1 1 1 2
M  V30 2 2 2 3
M  V30 3 1 2 4
M  V30 4 1 3 5
M  V30 5 1 3 6
M  V30 6 2 4 7
M  V30 7 1 5 8
M  V30 8 1 5 9
M  V30 9 2 6 10
M  V30 10 2 8 11
M  V30 11 1 8 12
M  V30 12 1 9 13
M  V30 13 1 9 14
M  V30 14 1 12 15
M  V30 15 1 13 16
M  V30 16 1 14 17
M  V30 17 1 15 18
M  V30 18 1 16 19
M  V30 19 1 19 20
M  V30 20 1 20 21
M  V30 21 1 21 22
M  V30 22 2 22 23
M  V30 23 1 22 24
M  V30 24 1 23 25
M  V30 25 2 24 26
M  V30 26 2 25 27
M  V30 27 1 7 10
M  V30 28 1 17 19
M  V30 29 1 26 27
M  V30 30 1 4 28
M  V30 31 1 6 29
M  V30 32 1 7 30
M  V30 33 1 9 31
M  V30 34 1 10 32
M  V30 35 1 12 33
M  V30 36 1 12 34
M  V30 37 1 13 35
M  V30 38 1 13 36
M  V30 39 1 14 37
M  V30 40 1 14 38
M  V30 41 1 16 39
M  V30 42 1 16 40
M  V30 43 1 17 41
M  V30 44 1 17 42
M  V30 45 1 18 43
M  V30 46 1 18 44
M  V30 47 1 18 45
M  V30 48 1 20 46
M  V30 49 1 20 47
M  V30 50 1 21 48
M  V30 51 1 21 49
M  V30 52 1 23 50
M  V30 53 1 24 51
M  V30 54 1 25 52
M  V30 55 1 26 53
M  V30 56 1 27 54
M  V30 END BOND
M  V30 END CTAB
M  END
>  <Column 1>
1810

>  <level_0>
1972

>  <index>
1972

>  <Unnamed: 0>
1972

>  <NO.>
1984

>  <Name>
ocfentanil

>  <IUPAC_name>
n-(2-fluorophenyl)-2-methoxy-n-[1-(2-phenylethyl)piperidin-4-yl]acetamide

>  <SMILES>
COCC(=O)N(c1ccccc1F)C1CCN(CCc2ccccc2)CC1

>  <CID>
60575

>  <logBB>


>  <BBB+/BBB->
BBB+

>  <Inchi>
InChI=1S/C22H27FN2O2/c1-27-17-22(26)25(21-10-6-5-9-20(21)23)19-12-15-24(16-13-19)14-11-18-7-3-2-4-8-18/h2-10-19H-11-17H2-1H3

>  <threshold>
-1

>  <reference>
R1|R13|R19|R6|R24|R27|R27|R27|R30|R30|

>  <group>
B

>  <Class>
-1

>  <ABC>
20.56

>  <ABCGG>
15.98

>  <nAcid>
0

>  <nBase>
1

>  <nAromAtom>
12

>  <nAromBond>
12

>  <nAtom>
54

>  <nHeavyAtom>
27

>  <nSpiro>
0

>  <nBridgehead>
0

>  <nHetero>
5

>  <nN>
2

>  <nO>
2

>  <nF>
1

>  <BalabanJ>
1.5

>  <BertzCT>
730.1

>  <nBonds>
56

>  <nBondsO>
29

>  <nBondsS>
43

>  <nBondsD>
1

>  <nBondsT>
0

>  <nBondsA>
12

>  <nBondsM>
13

>  <nBondsKS>
49

>  <nBondsKD>
7

>  <RNCG>
0.18

>  <RPCG>
0.12

>  <FCSP3>
0.41

>  <SZ>
33

>  <Sm>
30.84

>  <Sv>
32.91

>  <Sse>
53.93

>  <Sp>
35.39

>  <Si>
61.15

>  <MZ>
0.61

>  <Mm>
0.57

>  <Mv>
0.61

>  <Mse>
1

>  <Mp>
0.66

>  <Mi>
1.13

>  <NsCH3>
1

>  <NdCH2>
0

>  <NssCH2>
7

>  <NtCH>
0

>  <NdsCH>
0

>  <NaaCH>
9

>  <NsssCH>
1

>  <NddC>
0

>  <NtsC>
0

>  <NdssC>
1

>  <NaasC>
3

>  <NaaaC>
0

>  <NssssC>
0

>  <NsNH3>
0

>  <NsNH2>
0

>  <NssNH2>
0

>  <NdNH>
0

>  <NssNH>
0

>  <NaaNH>
0

>  <NtN>
0

>  <NsssNH>
0

>  <NdsN>
0

>  <NaaN>
0

>  <NsssN>
2

>  <NddsN>
0

>  <NaasN>
0

>  <NssssN>
0

>  <NsOH>
0

>  <NdO>
1

>  <NssO>
1

>  <NaaO>
0

>  <NsF>
1

>  <NsSiH3>
0

>  <NssSiH2>
0

>  <NsssSiH>
0

>  <NssssSi>
0

>  <NsPH2>
0

>  <NssPH>
0

>  <NsssP>
0

>  <NdsssP>
0

>  <NsssssP>
0

>  <NsSH>
0

>  <NdS>
0

>  <NssS>
0

>  <NaaS>
0

>  <NdssS>
0

>  <NddssS>
0

>  <NsCl>
0

>  <NsBr>
0

>  <NsI>
0

>  <fragCpx>
139.05

>  <fMF>
0.39

>  <nHBAcc>
3

>  <nHBDon>
0

>  <Kier1>
21.7

>  <Kier2>
11.25

>  <Lipinski>
1

>  <GhoseFilter>
1

>  <FilterItLogS>
-4.9

>  <VMcGowan>
291.62

>  <LabuteASA>
160.09

>  <PEOE_VSA1>
14.54

>  <PEOE_VSA2>
4.79

>  <PEOE_VSA3>
4.39

>  <PEOE_VSA4>
0

>  <PEOE_VSA5>
0

>  <PEOE_VSA6>
42.46

>  <PEOE_VSA7>
36.96

>  <PEOE_VSA8>
32.79

>  <PEOE_VSA9>
5.69

>  <PEOE_VSA10>
12.42

>  <PEOE_VSA11>
0

>  <PEOE_VSA12>
0

>  <PEOE_VSA13>
5.91

>  <SMR_VSA1>
13.92

>  <SMR_VSA2>
0

>  <SMR_VSA3>
4.9

>  <SMR_VSA4>
0

>  <SMR_VSA5>
25.3

>  <SMR_VSA6>
38.25

>  <SMR_VSA7>
65.98

>  <SMR_VSA8>
0

>  <SMR_VSA9>
0

>  <SlogP_VSA1>
4.9

>  <SlogP_VSA2>
50.2

>  <SlogP_VSA3>
15.95

>  <SlogP_VSA4>
5.82

>  <SlogP_VSA5>
18.41

>  <SlogP_VSA6>
54.6

>  <SlogP_VSA7>
0

>  <SlogP_VSA8>
0

>  <SlogP_VSA9>
0

>  <SlogP_VSA10>
10.08

>  <SlogP_VSA11>
0

>  <EState_VSA1>
0

>  <EState_VSA2>
24.37

>  <EState_VSA3>
5.69

>  <EState_VSA4>
38.9

>  <EState_VSA5>
18.74

>  <EState_VSA6>
23.1

>  <EState_VSA7>
6.07

>  <EState_VSA8>
29.17

>  <EState_VSA9>
4.74

>  <EState_VSA10>
9.18

>  <VSA_EState1>
19.36

>  <VSA_EState2>
16.63

>  <VSA_EState3>
0

>  <VSA_EState4>
1.69

>  <VSA_EState5>
-0.56

>  <VSA_EState6>
16.93

>  <VSA_EState7>
2.68

>  <VSA_EState8>
2.77

>  <VSA_EState9>
1.49

>  <apol>
59.1

>  <bpol>
34.22

>  <nRing>
3

>  <nHRing>
1

>  <naRing>
2

>  <naHRing>
0

>  <nARing 2>
1

>  <nAHRing 2>
1

>  <nFRing>
0

>  <nFHRing>
0

>  <nFaRing>
0

>  <nFaHRing>
0

>  <nFARing 2>
0

>  <nFAHRing 2>
0

>  <nRot>
7

>  <SLogP>
3.51

>  <SMR>
105.37

>  <TopoPSA(NO)>
32.78

>  <TopoPSA>
32.78

>  <JGI1>
0.14

>  <JGI2>
0.07

>  <JGI3>
0.04

>  <JGI4>
0.04

>  <JGI5>
0.02

>  <Diameter>
14

>  <Radius>
7

>  <TMWC10>
130.78

>  <TSRW10>
61.71

>  <MW>
370.21

>  <AMW>
6.86

>  <WPath>
2030

>  <WPol>
40

>  <Zagreb1>
134

>  <Zagreb2>
154

>  <mZagreb2>
6.19

>  <yes>


>  <nAR-cont>
0.816016

>  <nHA-cont>
0.860070871

>  <MWHBN>
0.155918333

>  <MWHBN-cont>
0.946945612

>  <TPSA-cont>
0.771175245

>  <pka_cont>
0.97

>  <yes.1>


>  <BBB_SCORE>
5.123855778

>  <MMFF94 Energy>
95.772

$$$$
Compound 1505
Actelion Java MolfileCreator 2.0

  0  0  0  0  0  0              0 V3000
M  V30 BEGIN CTAB
M  V30 COUNTS 43 45 0 0 0
M  V30 BEGIN ATOM
M  V30 1 O -0.6388 3.998 -1.9975 0
M  V30 2 C -1.0185 4.0515 -0.8379 0
M  V30 3 O -1.6311 5.1663 -0.3237 0
M  V30 4 N -0.8916 3.0936 0.1502 0
M  V30 5 C -2.1293 4.8564 0.988 0 CFG=2
M  V30 6 C -0.2292 1.8568 0.0278 0
M  V30 7 C -1.3905 3.5969 1.3922 0
M  V30 8 C -3.6537 4.7024 0.9345 0
M  V30 9 C -0.6862 0.7349 0.7286 0
M  V30 10 C 0.9027 1.7238 -0.78 0
M  V30 11 O -4.0196 3.4886 0.2754 0
M  V30 12 C -0.0245 -0.4968 0.6268 0
M  V30 13 C 1.5642 0.4955 -0.8789 0
M  V30 14 C -5.4246 3.3943 0.0797 0
M  V30 15 C 1.106 -0.6206 -0.1784 0
M  V30 16 O 1.844 -1.7554 -0.3662 0
M  V30 17 C 1.3848 -2.9439 0.2745 0
M  V30 18 C 2.2935 -4.0864 -0.1176 0
M  V30 19 C 2.5256 -4.3759 -1.4726 0
M  V30 20 C 2.8951 -4.8914 0.86 0
M  V30 21 C 3.3524 -5.4429 -1.842 0
M  V30 22 C 3.7195 -5.9571 0.4936 0
M  V30 23 C 3.5858 -5.7276 -3.2276 0
M  V30 24 C 3.9486 -6.233 -0.8546 0
M  V30 25 N 3.775 -5.9674 -4.3474 0
M  V30 26 H -1.8782 5.6908 1.652 0
M  V30 27 H -2.0231 2.884 1.9279 0
M  V30 28 H -0.5284 3.8449 2.0228 0
M  V30 29 H -4.0558 4.6772 1.9538 0
M  V30 30 H -4.0887 5.5522 0.3953 0
M  V30 31 H -1.5805 0.7886 1.3429 0
M  V30 32 H 1.2935 2.5693 -1.3411 0
M  V30 33 H -0.427 -1.3344 1.1861 0
M  V30 34 H 2.4433 0.4128 -1.5137 0
M  V30 35 H -5.641 2.4391 -0.4059 0
M  V30 36 H -5.7757 4.2033 -0.568 0
M  V30 37 H -5.9478 3.4257 1.0404 0
M  V30 38 H 0.365 -3.1922 -0.0455 0
M  V30 39 H 1.4068 -2.8077 1.3626 0
M  V30 40 H 2.0621 -3.7559 -2.2402 0
M  V30 41 H 2.7307 -4.6914 1.9172 0
M  V30 42 H 4.185 -6.5719 1.2606 0
M  V30 43 H 4.5942 -7.0653 -1.1283 0
M  V30 END ATOM
M  V30 BEGIN BOND
M  V30 1 2 1 2
M  V30 2 1 2 3
M  V30 3 1 2 4
M  V30 4 1 3 5
M  V30 5 1 4 6
M  V30 6 1 4 7
M  V30 7 1 5 8
M  V30 8 2 6 9
M  V30 9 1 6 10
M  V30 10 1 8 11
M  V30 11 1 9 12
M  V30 12 2 10 13
M  V30 13 1 11 14
M  V30 14 2 12 15
M  V30 15 1 15 16
M  V30 16 1 16 17
M  V30 17 1 17 18
M  V30 18 2 18 19
M  V30 19 1 18 20
M  V30 20 1 19 21
M  V30 21 2 20 22
M  V30 22 1 21 23
M  V30 23 2 21 24
M  V30 24 3 23 25
M  V30 25 1 5 7
M  V30 26 1 13 15
M  V30 27 1 22 24
M  V30 28 1 5 26
M  V30 29 1 7 27
M  V30 30 1 7 28
M  V30 31 1 8 29
M  V30 32 1 8 30
M  V30 33 1 9 31
M  V30 34 1 10 32
M  V30 35 1 12 33
M  V30 36 1 13 34
M  V30 37 1 14 35
M  V30 38 1 14 36
M  V30 39 1 14 37
M  V30 40 1 17 38
M  V30 41 1 17 39
M  V30 42 1 19 40
M  V30 43 1 20 41
M  V30 44 1 22 42
M  V30 45 1 24 43
M  V30 END BOND
M  V30 BEGIN COLLECTION
M  V30 MDLV30/STERAC1 ATOMS=(1 5)
M  V30 END COLLECTION
M  V30 END CTAB
M  END
>  <Column 1>
1814

>  <level_0>
1976

>  <index>
1976

>  <Unnamed: 0>
1976

>  <NO.>
1988

>  <Name>
cimoxatone

>  <IUPAC_name>
3-[[4-[5-(methoxymethyl)-2-oxo-1-3-oxazolidin-3-yl]phenoxy]methyl]benzonitrile

>  <SMILES>
COCC1CN(c2ccc(OCc3cccc(C#N)c3)cc2)C(=O)O1

>  <CID>
52542

>  <logBB>


>  <BBB+/BBB->
BBB+

>  <Inchi>
InChI=1S/C19H18N2O4/c1-23-13-18-11-21(19(22)25-18)16-5-7-17(8-6-16)24-12-15-4-2-3-14(9-15)10-20/h2-9-18H-11-13H2-1H3

>  <threshold>
-1

>  <reference>
R1|R19|R6|R27|R27|R30|

>  <group>
B

>  <Class>
1

>  <ABC>
19.12

>  <ABCGG>
14.62

>  <nAcid>
0

>  <nBase>
0

>  <nAromAtom>
12

>  <nAromBond>
12

>  <nAtom>
43

>  <nHeavyAtom>
25

>  <nSpiro>
0

>  <nBridgehead>
0

>  <nHetero>
6

>  <nN>
2

>  <nO>
4

>  <nF>
0

>  <BalabanJ>
1.36

>  <BertzCT>
782.76

>  <nBonds>
45

>  <nBondsO>
27

>  <nBondsS>
31

>  <nBondsD>
1

>  <nBondsT>
1

>  <nBondsA>
12

>  <nBondsM>
14

>  <nBondsKS>
37

>  <nBondsKD>
7

>  <RNCG>
0.21

>  <RPCG>
0.18

>  <FCSP3>
0.26

>  <SZ>
29.67

>  <Sm>
28.17

>  <Sv>
28.25

>  <Sse>
43.64

>  <Sp>
29.43

>  <Si>
48.16

>  <MZ>
0.69

>  <Mm>
0.66

>  <Mv>
0.66

>  <Mse>
1.01

>  <Mp>
0.68

>  <Mi>
1.12

>  <NsCH3>
1

>  <NdCH2>
0

>  <NssCH2>
3

>  <NtCH>
0

>  <NdsCH>
0

>  <NaaCH>
8

>  <NsssCH>
1

>  <NddC>
0

>  <NtsC>
1

>  <NdssC>
1

>  <NaasC>
4

>  <NaaaC>
0

>  <NssssC>
0

>  <NsNH3>
0

>  <NsNH2>
0

>  <NssNH2>
0

>  <NdNH>
0

>  <NssNH>
0

>  <NaaNH>
0

>  <NtN>
1

>  <NsssNH>
0

>  <NdsN>
0

>  <NaaN>
0

>  <NsssN>
1

>  <NddsN>
0

>  <NaasN>
0

>  <NssssN>
0

>  <NsOH>
0

>  <NdO>
1

>  <NssO>
3

>  <NaaO>
0

>  <NsF>
0

>  <NsSiH3>
0

>  <NssSiH2>
0

>  <NsssSiH>
0

>  <NssssSi>
0

>  <NsPH2>
0

>  <NssPH>
0

>  <NsssP>
0

>  <NdsssP>
0

>  <NsssssP>
0

>  <NsSH>
0

>  <NdS>
0

>  <NssS>
0

>  <NaaS>
0

>  <NdssS>
0

>  <NddssS>
0

>  <NsCl>
0

>  <NsBr>
0

>  <NsI>
0

>  <fragCpx>
129.06

>  <fMF>
0.44

>  <nHBAcc>
5

>  <nHBDon>
0

>  <Kier1>
19.75

>  <Kier2>
9.8

>  <Lipinski>
1

>  <GhoseFilter>
1

>  <FilterItLogS>
-4

>  <VMcGowan>
250.73

>  <LabuteASA>
145.69

>  <PEOE_VSA1>
14.21

>  <PEOE_VSA2>
4.9

>  <PEOE_VSA3>
4.79

>  <PEOE_VSA4>
5.26

>  <PEOE_VSA5>
0

>  <PEOE_VSA6>
12.13

>  <PEOE_VSA7>
41.96

>  <PEOE_VSA8>
12.8

>  <PEOE_VSA9>
24.78

>  <PEOE_VSA10>
18.46

>  <PEOE_VSA11>
0

>  <PEOE_VSA12>
0

>  <PEOE_VSA13>
0

>  <SMR_VSA1>
19.01

>  <SMR_VSA2>
5.26

>  <SMR_VSA3>
0

>  <SMR_VSA4>
0

>  <SMR_VSA5>
12.71

>  <SMR_VSA6>
25.16

>  <SMR_VSA7>
59.66

>  <SMR_VSA8>
0

>  <SMR_VSA9>
11.82

>  <SlogP_VSA1>
9.64

>  <SlogP_VSA2>
32.46

>  <SlogP_VSA3>
16.08

>  <SlogP_VSA4>
11.33

>  <SlogP_VSA5>
11.13

>  <SlogP_VSA6>
48.53

>  <SlogP_VSA7>
0

>  <SlogP_VSA8>
0

>  <SlogP_VSA9>
0

>  <SlogP_VSA10>
10.48

>  <SlogP_VSA11>
5.75

>  <EState_VSA1>
0

>  <EState_VSA2>
12.2

>  <EState_VSA3>
31.07

>  <EState_VSA4>
11.25

>  <EState_VSA5>
0

>  <EState_VSA6>
36.28

>  <EState_VSA7>
24.27

>  <EState_VSA8>
6.07

>  <EState_VSA9>
19.47

>  <EState_VSA10>
4.79

>  <VSA_EState1>
15.99

>  <VSA_EState2>
13.48

>  <VSA_EState3>
8.91

>  <VSA_EState4>
2.28

>  <VSA_EState5>
0.69

>  <VSA_EState6>
16.64

>  <VSA_EState7>
-0.62

>  <VSA_EState8>
1.22

>  <VSA_EState9>
1.58

>  <apol>
49.14

>  <bpol>
26.41

>  <nRing>
3

>  <nHRing>
1

>  <naRing>
2

>  <naHRing>
0

>  <nARing 2>
1

>  <nAHRing 2>
1

>  <nFRing>
0

>  <nFHRing>
0

>  <nFaRing>
0

>  <nFaHRing>
0

>  <nFARing 2>
0

>  <nFAHRing 2>
0

>  <nRot>
6

>  <SLogP>
3.11

>  <SMR>
91.42

>  <TopoPSA(NO)>
71.79

>  <TopoPSA>
71.79

>  <JGI1>
0.19

>  <JGI2>
0.06

>  <JGI3>
0.04

>  <JGI4>
0.04

>  <JGI5>
0.03

>  <Diameter>
16

>  <Radius>
8

>  <TMWC10>
126.2

>  <TSRW10>
73.26

>  <MW>
338.13

>  <AMW>
7.86

>  <WPath>
1791

>  <WPol>
35

>  <Zagreb1>
126

>  <Zagreb2>
145

>  <mZagreb2>
5.72

>  <yes>


>  <nAR-cont>
0.816016

>  <nHA-cont>
0.921834225

>  <MWHBN>
0.271911861

>  <MWHBN-cont>
0.915721122

>  <TPSA-cont>
0.498861221

>  <pka_cont>
0.97

>  <yes.1>


>  <BBB_SCORE>
4.59415435

>  <MMFF94 Energy>
59.315

$$$$
Compound 1506
Actelion Java MolfileCreator 2.0

  0  0  0  0  0  0              0 V3000
M  V30 BEGIN CTAB
M  V30 COUNTS 41 43 0 0 0
M  V30 BEGIN ATOM
M  V30 1 Br -2.6119 4.656 0.3262 0
M  V30 2 C -1.3559 3.2461 0.2551 0
M  V30 3 C -1.792 1.9412 0.0596 0
M  V30 4 C -9.0E-4 3.5192 0.3943 0
M  V30 5 C -0.8543 0.8961 0.0031 0
M  V30 6 C 0.9256 2.4725 0.3461 0
M  V30 7 C -1.3583 -0.4815 -0.279 0
M  V30 8 C 0.5269 1.1369 0.1639 0
M  V30 9 N -1.0291 -1.5353 0.3978 0
M  V30 10 C -2.3522 -0.6659 -1.3776 0
M  V30 11 N 1.4682 0.1231 0.1183 0
M  V30 12 C -0.0703 -1.3561 1.4931 0
M  V30 13 C -2.1626 -0.2003 -2.6852 0
M  V30 14 C -3.5305 -1.3578 -1.0522 0
M  V30 15 C 1.3562 -1.093 0.9687 0 CFG=2
M  V30 16 C 2.7105 0.3265 -0.6166 0
M  V30 17 Cl -0.7154 0.5775 -3.2176 0
M  V30 18 C -3.1652 -0.4003 -3.6424 0
M  V30 19 C -4.5237 -1.554 -2.0124 0
M  V30 20 C 2.309 -0.9897 2.1867 0
M  V30 21 C -4.3436 -1.0698 -3.3057 0
M  V30 22 O 3.6771 -1.1435 1.7815 0
M  V30 23 C 4.5664 -1.0032 2.881 0
M  V30 24 H -2.8532 1.7359 -0.0489 0
M  V30 25 H 0.3501 4.5367 0.5444 0
M  V30 26 H 1.9783 2.7126 0.4753 0
M  V30 27 H -0.4057 -0.5782 2.1921 0
M  V30 28 H -0.07 -2.2875 2.0727 0
M  V30 29 H -3.6724 -1.7455 -0.0451 0
M  V30 30 H 1.6606 -1.9501 0.3535 0
M  V30 31 H 3.1741 -0.6313 -0.8764 0
M  V30 32 H 3.429 0.9035 -0.025 0
M  V30 33 H 2.528 0.8544 -1.5597 0
M  V30 34 H -3.028 -0.0457 -4.6615 0
M  V30 35 H -5.4333 -2.0896 -1.7509 0
M  V30 36 H 2.0822 -1.785 2.9069 0
M  V30 37 H 2.1842 -0.0198 2.6841 0
M  V30 38 H -5.1139 -1.2254 -4.0575 0
M  V30 39 H 5.5884 -1.1358 2.5161 0
M  V30 40 H 4.3637 -1.7665 3.6384 0
M  V30 41 H 4.479 -0.0042 3.319 0
M  V30 END ATOM
M  V30 BEGIN BOND
M  V30 1 1 1 2
M  V30 2 2 2 3
M  V30 3 1 2 4
M  V30 4 1 3 5
M  V30 5 2 4 6
M  V30 6 1 5 7
M  V30 7 2 5 8
M  V30 8 2 7 9
M  V30 9 1 7 10
M  V30 10 1 8 11
M  V30 11 1 9 12
M  V30 12 2 10 13
M  V30 13 1 10 14
M  V30 14 1 11 15
M  V30 15 1 11 16
M  V30 16 1 13 17
M  V30 17 1 13 18
M  V30 18 2 14 19
M  V30 19 1 15 20
M  V30 20 2 18 21
M  V30 21 1 20 22
M  V30 22 1 22 23
M  V30 23 1 6 8
M  V30 24 1 12 15
M  V30 25 1 19 21
M  V30 26 1 3 24
M  V30 27 1 4 25
M  V30 28 1 6 26
M  V30 29 1 12 27
M  V30 30 1 12 28
M  V30 31 1 14 29
M  V30 32 1 15 30
M  V30 33 1 16 31
M  V30 34 1 16 32
M  V30 35 1 16 33
M  V30 36 1 18 34
M  V30 37 1 19 35
M  V30 38 1 20 36
M  V30 39 1 20 37
M  V30 40 1 21 38
M  V30 41 1 23 39
M  V30 42 1 23 40
M  V30 43 1 23 41
M  V30 END BOND
M  V30 BEGIN COLLECTION
M  V30 MDLV30/STERAC1 ATOMS=(1 15)
M  V30 END COLLECTION
M  V30 END CTAB
M  END
>  <Column 1>
1815

>  <level_0>
1977

>  <index>
1977

>  <Unnamed: 0>
1977

>  <NO.>
1989

>  <Name>
metaclazepam

>  <IUPAC_name>
7-bromo-5-(2-chlorophenyl)-2-(methoxymethyl)-1-methyl-2-3-dihydro-1-4-benzodiazepine

>  <SMILES>
COCC1CN=C(c2ccccc2Cl)c2cc(Br)ccc2N1C

>  <CID>
71272

>  <logBB>


>  <BBB+/BBB->
BBB+

>  <Inchi>
InChI=1S/C18H18BrClN2O/c1-22-13(11-23-2)10-21-18(14-5-3-4-6-16(14)20)15-9-12(19)7-8-17(15)22/h3-9-13H-10-11H2-1-2H3

>  <threshold>
-1

>  <reference>
R1|R19|R6|R14|R27|R27|R30|

>  <group>
B

>  <Class>
-1

>  <ABC>
17.76

>  <ABCGG>
14.69

>  <nAcid>
0

>  <nBase>
0

>  <nAromAtom>
12

>  <nAromBond>
12

>  <nAtom>
41

>  <nHeavyAtom>
23

>  <nSpiro>
0

>  <nBridgehead>
0

>  <nHetero>
5

>  <nN>
2

>  <nO>
1

>  <nF>
0

>  <BalabanJ>
1.82

>  <BertzCT>
747.55

>  <nBonds>
43

>  <nBondsO>
25

>  <nBondsS>
30

>  <nBondsD>
1

>  <nBondsT>
0

>  <nBondsA>
12

>  <nBondsM>
13

>  <nBondsKS>
36

>  <nBondsKD>
7

>  <RNCG>
0.25

>  <RPCG>
0.05

>  <FCSP3>
0.28

>  <SZ>
33.33

>  <Sm>
32.78

>  <Sv>
27.49

>  <Sse>
41.09

>  <Sp>
30.12

>  <Si>
45.73

>  <MZ>
0.81

>  <Mm>
0.8

>  <Mv>
0.67

>  <Mse>
1

>  <Mp>
0.73

>  <Mi>
1.12

>  <NsCH3>
2

>  <NdCH2>
0

>  <NssCH2>
2

>  <NtCH>
0

>  <NdsCH>
0

>  <NaaCH>
7

>  <NsssCH>
1

>  <NddC>
0

>  <NtsC>
0

>  <NdssC>
1

>  <NaasC>
5

>  <NaaaC>
0

>  <NssssC>
0

>  <NsNH3>
0

>  <NsNH2>
0

>  <NssNH2>
0

>  <NdNH>
0

>  <NssNH>
0

>  <NaaNH>
0

>  <NtN>
0

>  <NsssNH>
0

>  <NdsN>
1

>  <NaaN>
0

>  <NsssN>
1

>  <NddsN>
0

>  <NaasN>
0

>  <NssssN>
0

>  <NsOH>
0

>  <NdO>
0

>  <NssO>
1

>  <NaaO>
0

>  <NsF>
0

>  <NsSiH3>
0

>  <NssSiH2>
0

>  <NsssSiH>
0

>  <NssssSi>
0

>  <NsPH2>
0

>  <NssPH>
0

>  <NsssP>
0

>  <NdsssP>
0

>  <NsssssP>
0

>  <NsSH>
0

>  <NdS>
0

>  <NssS>
0

>  <NaaS>
0

>  <NdssS>
0

>  <NddssS>
0

>  <NsCl>
1

>  <NsBr>
1

>  <NsI>
0

>  <fragCpx>
119.05

>  <fMF>
0.41

>  <nHBAcc>
3

>  <nHBDon>
0

>  <Kier1>
17.81

>  <Kier2>
7.92

>  <Lipinski>
1

>  <GhoseFilter>
1

>  <FilterItLogS>
-6.14

>  <VMcGowan>
257.37

>  <LabuteASA>
149.61

>  <PEOE_VSA1>
9.64

>  <PEOE_VSA2>
4.99

>  <PEOE_VSA3>
0

>  <PEOE_VSA4>
0

>  <PEOE_VSA5>
0

>  <PEOE_VSA6>
45.73

>  <PEOE_VSA7>
24.27

>  <PEOE_VSA8>
40.47

>  <PEOE_VSA9>
24.91

>  <PEOE_VSA10>
0

>  <PEOE_VSA11>
0

>  <PEOE_VSA12>
0

>  <PEOE_VSA13>
0

>  <SMR_VSA1>
4.74

>  <SMR_VSA2>
0

>  <SMR_VSA3>
0

>  <SMR_VSA4>
4.99

>  <SMR_VSA5>
6.04

>  <SMR_VSA6>
32.21

>  <SMR_VSA7>
63.09

>  <SMR_VSA8>
0

>  <SMR_VSA9>
0

>  <SlogP_VSA1>
4.9

>  <SlogP_VSA2>
39.06

>  <SlogP_VSA3>
4.74

>  <SlogP_VSA4>
0

>  <SlogP_VSA5>
11.13

>  <SlogP_VSA6>
51.93

>  <SlogP_VSA7>
5.02

>  <SlogP_VSA8>
0

>  <SlogP_VSA9>
0

>  <SlogP_VSA10>
5.69

>  <SlogP_VSA11>
0

>  <EState_VSA1>
0

>  <EState_VSA2>
6.04

>  <EState_VSA3>
18.17

>  <EState_VSA4>
27

>  <EState_VSA5>
0

>  <EState_VSA6>
7.11

>  <EState_VSA7>
24.27

>  <EState_VSA8>
46.08

>  <EState_VSA9>
21.33

>  <EState_VSA10>
0

>  <VSA_EState1>
6.39

>  <VSA_EState2>
7.11

>  <VSA_EState3>
0.71

>  <VSA_EState4>
4.09

>  <VSA_EState5>
0

>  <VSA_EState6>
14.3

>  <VSA_EState7>
0

>  <VSA_EState8>
1.29

>  <VSA_EState9>
3.81

>  <apol>
50.29

>  <bpol>
24.53

>  <nRing>
3

>  <nHRing>
1

>  <naRing>
2

>  <naHRing>
0

>  <nARing 2>
1

>  <nAHRing 2>
1

>  <nFRing>
1

>  <nFHRing>
1

>  <nFaRing>
0

>  <nFaHRing>
0

>  <nFARing 2>
1

>  <nFAHRing 2>
1

>  <nRot>
3

>  <SLogP>
4.4

>  <SMR>
100.17

>  <TopoPSA(NO)>
24.83

>  <TopoPSA>
24.83

>  <JGI1>
0.16

>  <JGI2>
0.09

>  <JGI3>
0.05

>  <JGI4>
0.04

>  <JGI5>
0.02

>  <Diameter>
10

>  <Radius>
5

>  <TMWC10>
123.14

>  <TSRW10>
65.53

>  <MW>
392.03

>  <AMW>
9.56

>  <WPath>
1073

>  <WPol>
42

>  <Zagreb1>
120

>  <Zagreb2>
143

>  <mZagreb2>
5.17

>  <yes>


>  <nAR-cont>
0.816016

>  <nHA-cont>
0.967789328

>  <MWHBN>
0.151517084

>  <MWHBN-cont>
0.936391801

>  <TPSA-cont>
0.826671181

>  <pka_cont>
0.97

>  <yes.1>


>  <BBB_SCORE>
5.326735392

>  <MMFF94 Energy>
147.53

$$$$
Compound 1507
Actelion Java MolfileCreator 2.0

  0  0  0  0  0  0              0 V3000
M  V30 BEGIN CTAB
M  V30 COUNTS 40 40 0 0 0
M  V30 BEGIN ATOM
M  V30 1 Cl -5.3763 0.0789 2.8435 0
M  V30 2 C -3.8493 0.3022 2.0834 0
M  V30 3 C -3.4843 1.5677 1.6235 0
M  V30 4 C -2.9856 -0.7836 1.9344 0
M  V30 5 C -2.2444 1.7495 1.0081 0
M  V30 6 C -1.7442 -0.6057 1.319 0
M  V30 7 C -1.3791 0.6608 0.8527 0
M  V30 8 C -0.052 0.866 0.2182 0
M  V30 9 N 0.1479 1.3386 -0.9777 0
M  V30 10 C 1.1673 0.5189 1.0578 0
M  V30 11 O -1.0534 1.561 -1.6654 0
M  V30 12 C 1.8973 -0.6963 0.4891 0
M  V30 13 C -0.7444 2.0332 -2.978 0
M  V30 14 C 3.1107 -1.0658 1.3461 0
M  V30 15 C -2.0483 2.2576 -3.7497 0
M  V30 16 C 3.8396 -2.2929 0.8076 0
M  V30 17 N -2.9015 3.2919 -3.1488 0
M  V30 18 O 2.9773 -3.4259 0.8985 0
M  V30 19 C 3.6014 -4.6 0.3962 0
M  V30 20 H -4.1584 2.4122 1.7404 0
M  V30 21 H -3.274 -1.7688 2.2918 0
M  V30 22 H -1.9546 2.7344 0.6502 0
M  V30 23 H -1.0807 -1.4576 1.1977 0
M  V30 24 H 0.8708 0.3352 2.0967 0
M  V30 25 H 1.832 1.3913 1.0627 0
M  V30 26 H 2.224 -0.4881 -0.5371 0
M  V30 27 H 1.2066 -1.5452 0.4279 0
M  V30 28 H -0.1371 1.2827 -3.4965 0
M  V30 29 H -0.1729 2.9662 -2.9071 0
M  V30 30 H 2.7752 -1.2665 2.3708 0
M  V30 31 H 3.8068 -0.2199 1.3822 0
M  V30 32 H -2.6232 1.3257 -3.7807 0
M  V30 33 H -1.8204 2.5459 -4.7807 0
M  V30 34 H 4.1371 -2.133 -0.2351 0
M  V30 35 H 4.7383 -2.4747 1.4079 0
M  V30 36 H -3.1 3.0098 -2.1866 0
M  V30 37 H -2.3697 4.1581 -3.0673 0
M  V30 38 H 2.8988 -5.4319 0.4939 0
M  V30 39 H 4.5013 -4.8325 0.9737 0
M  V30 40 H 3.8529 -4.4772 -0.6614 0
M  V30 END ATOM
M  V30 BEGIN BOND
M  V30 1 1 1 2
M  V30 2 2 2 3
M  V30 3 1 2 4
M  V30 4 1 3 5
M  V30 5 2 4 6
M  V30 6 2 5 7
M  V30 7 1 7 8
M  V30 8 2 8 9
M  V30 9 1 8 10
M  V30 10 1 9 11
M  V30 11 1 10 12
M  V30 12 1 11 13
M  V30 13 1 12 14
M  V30 14 1 13 15
M  V30 15 1 14 16
M  V30 16 1 15 17
M  V30 17 1 16 18
M  V30 18 1 18 19
M  V30 19 1 6 7
M  V30 20 1 3 20
M  V30 21 1 4 21
M  V30 22 1 5 22
M  V30 23 1 6 23
M  V30 24 1 10 24
M  V30 25 1 10 25
M  V30 26 1 12 26
M  V30 27 1 12 27
M  V30 28 1 13 28
M  V30 29 1 13 29
M  V30 30 1 14 30
M  V30 31 1 14 31
M  V30 32 1 15 32
M  V30 33 1 15 33
M  V30 34 1 16 34
M  V30 35 1 16 35
M  V30 36 1 17 36
M  V30 37 1 17 37
M  V30 38 1 19 38
M  V30 39 1 19 39
M  V30 40 1 19 40
M  V30 END BOND
M  V30 END CTAB
M  END
>  <Column 1>
1817

>  <level_0>
1979

>  <index>
1979

>  <Unnamed: 0>
1979

>  <NO.>
1991

>  <Name>
clovoxamine

>  <IUPAC_name>
2-[(z)-[1-(4-chlorophenyl)-5-methoxypentylidene]amino]oxyethanamine

>  <SMILES>
COCCCC/C(=N/OCCN)c1ccc(Cl)cc1

>  <CID>
6335903

>  <logBB>


>  <BBB+/BBB->
BBB+

>  <Inchi>
InChI=1S/C14H21ClN2O2/c1-18-10-3-2-4-14(17-19-11-9-16)12-5-7-13(15)8-6-12/h5-8H-2-4-9-11-16H2-1H3/b17-14-

>  <threshold>
-1

>  <reference>
R1|R13|R6|R24|R27|R30|

>  <group>
B

>  <Class>
1

>  <ABC>
13.5

>  <ABCGG>
11.68

>  <nAcid>
0

>  <nBase>
1

>  <nAromAtom>
6

>  <nAromBond>
6

>  <nAtom>
40

>  <nHeavyAtom>
19

>  <nSpiro>
0

>  <nBridgehead>
0

>  <nHetero>
5

>  <nN>
2

>  <nO>
2

>  <nF>
0

>  <BalabanJ>
2.3

>  <BertzCT>
379.54

>  <nBonds>
40

>  <nBondsO>
19

>  <nBondsS>
33

>  <nBondsD>
1

>  <nBondsT>
0

>  <nBondsA>
6

>  <nBondsM>
7

>  <nBondsKS>
36

>  <nBondsKD>
4

>  <RNCG>
0.25

>  <RPCG>
0.08

>  <FCSP3>
0.5

>  <SZ>
25.33

>  <Sm>
23.71

>  <Sv>
23.73

>  <Sse>
40.08

>  <Sp>
25.97

>  <Si>
45.51

>  <MZ>
0.63

>  <Mm>
0.59

>  <Mv>
0.59

>  <Mse>
1

>  <Mp>
0.65

>  <Mi>
1.14

>  <NsCH3>
1

>  <NdCH2>
0

>  <NssCH2>
6

>  <NtCH>
0

>  <NdsCH>
0

>  <NaaCH>
4

>  <NsssCH>
0

>  <NddC>
0

>  <NtsC>
0

>  <NdssC>
1

>  <NaasC>
2

>  <NaaaC>
0

>  <NssssC>
0

>  <NsNH3>
0

>  <NsNH2>
1

>  <NssNH2>
0

>  <NdNH>
0

>  <NssNH>
0

>  <NaaNH>
0

>  <NtN>
0

>  <NsssNH>
0

>  <NdsN>
1

>  <NaaN>
0

>  <NsssN>
0

>  <NddsN>
0

>  <NaasN>
0

>  <NssssN>
0

>  <NsOH>
0

>  <NdO>
0

>  <NssO>
2

>  <NaaO>
0

>  <NsF>
0

>  <NsSiH3>
0

>  <NssSiH2>
0

>  <NsssSiH>
0

>  <NssssSi>
0

>  <NsPH2>
0

>  <NssPH>
0

>  <NsssP>
0

>  <NdsssP>
0

>  <NsssssP>
0

>  <NsSH>
0

>  <NdS>
0

>  <NssS>
0

>  <NaaS>
0

>  <NdssS>
0

>  <NddssS>
0

>  <NsCl>
1

>  <NsBr>
0

>  <NsI>
0

>  <fragCpx>
19.05

>  <fMF>
0.15

>  <nHBAcc>
4

>  <nHBDon>
1

>  <Kier1>
17.05

>  <Kier2>
10.75

>  <Lipinski>
1

>  <GhoseFilter>
1

>  <FilterItLogS>
-4.43

>  <VMcGowan>
224

>  <LabuteASA>
119.07

>  <PEOE_VSA1>
15.31

>  <PEOE_VSA2>
0

>  <PEOE_VSA3>
0

>  <PEOE_VSA4>
0

>  <PEOE_VSA5>
0

>  <PEOE_VSA6>
28.89

>  <PEOE_VSA7>
36.96

>  <PEOE_VSA8>
25.28

>  <PEOE_VSA9>
5.71

>  <PEOE_VSA10>
6.61

>  <PEOE_VSA11>
0

>  <PEOE_VSA12>
0

>  <PEOE_VSA13>
0

>  <SMR_VSA1>
9.57

>  <SMR_VSA2>
0

>  <SMR_VSA3>
0

>  <SMR_VSA4>
10.89

>  <SMR_VSA5>
19.26

>  <SMR_VSA6>
26.87

>  <SMR_VSA7>
34.85

>  <SMR_VSA8>
0

>  <SMR_VSA9>
0

>  <SlogP_VSA1>
5.73

>  <SlogP_VSA2>
32.58

>  <SlogP_VSA3>
9.57

>  <SlogP_VSA4>
0

>  <SlogP_VSA5>
24.83

>  <SlogP_VSA6>
29.42

>  <SlogP_VSA7>
5.02

>  <SlogP_VSA8>
0

>  <SlogP_VSA9>
0

>  <SlogP_VSA10>
0

>  <SlogP_VSA11>
0

>  <EState_VSA1>
0

>  <EState_VSA2>
0

>  <EState_VSA3>
18.17

>  <EState_VSA4>
37.14

>  <EState_VSA5>
0

>  <EState_VSA6>
7.11

>  <EState_VSA7>
24.27

>  <EState_VSA8>
5.16

>  <EState_VSA9>
26.91

>  <EState_VSA10>
0

>  <VSA_EState1>
5.04

>  <VSA_EState2>
5.19

>  <VSA_EState3>
4.88

>  <VSA_EState4>
7.33

>  <VSA_EState5>
0

>  <VSA_EState6>
7.6

>  <VSA_EState7>
2.84

>  <VSA_EState8>
1.65

>  <VSA_EState9>
1.71

>  <apol>
43.37

>  <bpol>
24.48

>  <nRing>
1

>  <nHRing>
0

>  <naRing>
1

>  <naHRing>
0

>  <nARing 2>
0

>  <nAHRing 2>
0

>  <nFRing>
0

>  <nFHRing>
0

>  <nFaRing>
0

>  <nFaHRing>
0

>  <nFARing 2>
0

>  <nFAHRing 2>
0

>  <nRot>
9

>  <SLogP>
2.84

>  <SMR>
78.72

>  <TopoPSA(NO)>
56.84

>  <TopoPSA>
56.84

>  <JGI1>
0.13

>  <JGI2>
0.07

>  <JGI3>
0.03

>  <JGI4>
0.02

>  <JGI5>
0.02

>  <Diameter>
11

>  <Radius>
6

>  <TMWC10>
106.22

>  <TSRW10>
50.63

>  <MW>
284.13

>  <AMW>
7.1

>  <WPath>
820

>  <WPol>
22

>  <Zagreb1>
82

>  <Zagreb2>
88

>  <mZagreb2>
4.69

>  <yes>


>  <nAR-cont>
0.336376

>  <nHA-cont>
0.998649058

>  <MWHBN>
0.296627532

>  <MWHBN-cont>
0.850696388

>  <TPSA-cont>
0.603221504

>  <pka_cont>
0.97

>  <yes.1>


>  <BBB_SCORE>
4.302512648

>  <MMFF94 Energy>
73.194

$$$$
Compound 1508
Actelion Java MolfileCreator 2.0

  0  0  0  0  0  0              0 V3000
M  V30 BEGIN CTAB
M  V30 COUNTS 48 52 0 0 0
M  V30 BEGIN ATOM
M  V30 1 O -0.8104 4.6264 -1.2159 0
M  V30 2 C -1.0007 3.4367 -0.9497 0
M  V30 3 C -0.4566 2.7913 0.3368 0 CFG=2
M  V30 4 C -1.8673 2.5884 -1.8514 0
M  V30 5 O 0.8166 3.4407 0.6783 0
M  V30 6 C -0.1734 1.2871 0.2142 0 CFG=2
M  V30 7 C -1.2193 1.2324 -2.1116 0
M  V30 8 C 1.7479 2.6289 0.0773 0
M  V30 9 C 1.2292 1.4007 -0.2675 0
M  V30 10 C -0.9998 0.4813 -0.7938 0 CFG=2
M  V30 11 C -0.1732 0.5748 1.5864 0
M  V30 12 C 3.0515 2.9376 -0.2239 0
M  V30 13 C 1.9272 0.4575 -0.998 0
M  V30 14 O -2.3159 0.2514 -0.2486 0
M  V30 15 C -0.2761 -0.9014 -0.9505 0 CFG=1
M  V30 16 C 0.2377 -0.9044 1.4754 0
M  V30 17 O 3.5904 4.1412 0.1035 0
M  V30 18 C 3.8172 1.9953 -0.9126 0
M  V30 19 C 3.2527 0.7637 -1.3149 0
M  V30 20 C 1.196 -0.7697 -1.478 0
M  V30 21 N -0.4373 -1.5967 0.3659 0
M  V30 22 C -0.0785 -3.0286 0.2927 0
M  V30 23 C -0.7074 -3.8878 1.4064 0
M  V30 24 O -2.1326 -3.8622 1.2914 0
M  V30 25 C -2.7565 -4.6136 2.323 0
M  V30 26 H -1.1786 3.0044 1.1338 0
M  V30 27 H -1.9991 3.1135 -2.804 0
M  V30 28 H -2.8544 2.4893 -1.388 0
M  V30 29 H -0.2808 1.3758 -2.6578 0
M  V30 30 H -1.8851 0.6522 -2.7623 0
M  V30 31 H 0.4982 1.0724 2.2985 0
M  V30 32 H -1.1775 0.6333 2.0267 0
M  V30 33 H -2.252 -0.6121 0.2202 0
M  V30 34 H -0.8473 -1.489 -1.6822 0
M  V30 35 H 1.3273 -0.9834 1.3785 0
M  V30 36 H -0.0192 -1.3776 2.4294 0
M  V30 37 H 2.861 4.6662 0.4868 0
M  V30 38 H 4.8477 2.2279 -1.1688 0
M  V30 39 H 3.8583 0.0671 -1.8901 0
M  V30 40 H 1.78 -1.6639 -1.2374 0
M  V30 41 H 1.1496 -0.7113 -2.5734 0
M  V30 42 H 1.0097 -3.1589 0.3079 0
M  V30 43 H -0.4438 -3.4358 -0.6585 0
M  V30 44 H -0.3643 -4.9225 1.2887 0
M  V30 45 H -0.4037 -3.5399 2.3992 0
M  V30 46 H -3.839 -4.5656 2.1778 0
M  V30 47 H -2.5167 -4.1904 3.3033 0
M  V30 48 H -2.4434 -5.661 2.2775 0
M  V30 END ATOM
M  V30 BEGIN BOND
M  V30 1 2 1 2
M  V30 2 1 2 3
M  V30 3 1 2 4
M  V30 4 1 3 5
M  V30 5 1 3 6
M  V30 6 1 4 7
M  V30 7 1 5 8
M  V30 8 1 6 9
M  V30 9 1 6 10
M  V30 10 1 6 11
M  V30 11 1 8 12
M  V30 12 1 9 13
M  V30 13 1 10 14
M  V30 14 1 10 15
M  V30 15 1 11 16
M  V30 16 1 12 17
M  V30 17 2 12 18
M  V30 18 2 13 19
M  V30 19 1 13 20
M  V30 20 1 15 21
M  V30 21 1 21 22
M  V30 22 1 22 23
M  V30 23 1 23 24
M  V30 24 1 24 25
M  V30 25 1 7 10
M  V30 26 2 8 9
M  V30 27 1 15 20
M  V30 28 1 16 21
M  V30 29 1 18 19
M  V30 30 1 3 26
M  V30 31 1 4 27
M  V30 32 1 4 28
M  V30 33 1 7 29
M  V30 34 1 7 30
M  V30 35 1 11 31
M  V30 36 1 11 32
M  V30 37 1 14 33
M  V30 38 1 15 34
M  V30 39 1 16 35
M  V30 40 1 16 36
M  V30 41 1 17 37
M  V30 42 1 18 38
M  V30 43 1 19 39
M  V30 44 1 20 40
M  V30 45 1 20 41
M  V30 46 1 22 42
M  V30 47 1 22 43
M  V30 48 1 23 44
M  V30 49 1 23 45
M  V30 50 1 25 46
M  V30 51 1 25 47
M  V30 52 1 25 48
M  V30 END BOND
M  V30 BEGIN COLLECTION
M  V30 MDLV30/STEABS ATOMS=(4 3 6 10 15)
M  V30 END COLLECTION
M  V30 END CTAB
M  END
>  <Column 1>
1818

>  <level_0>
1980

>  <index>
1980

>  <Unnamed: 0>
1980

>  <NO.>
1992

>  <Name>
semorphone

>  <IUPAC_name>
(4r-4as-7ar-12bs)-4a-9-dihydroxy-3-(2-methoxyethyl)-2-4-5-6-7a-13-hexahydro-1h-4-12-methanobenzofuro[3-2-e]isoquinolin-7-one

>  <SMILES>
COCCN1CC[C@]23c4c5ccc(O)c4O[C@H]2C(=O)CC[C@@]3(O)[C@H]1C5

>  <CID>
5491906

>  <logBB>


>  <BBB+/BBB->
BBB+

>  <Inchi>
InChI=1S/C19H23NO5/c1-24-9-8-20-7-6-18-15-11-2-3-12(21)16(15)25-17(18)13(22)4-5-19(18-23)14(20)10-11/h2-3-14-17-21-23H-4-10H2-1H3/t14--17+-18+-19-/m1/s1

>  <threshold>
-1

>  <reference>
R1|R6|R27|R30|

>  <group>
B

>  <Class>
1

>  <ABC>
20.4

>  <ABCGG>
15.6

>  <nAcid>
0

>  <nBase>
1

>  <nAromAtom>
6

>  <nAromBond>
6

>  <nAtom>
48

>  <nHeavyAtom>
25

>  <nSpiro>
1

>  <nBridgehead>
2

>  <nHetero>
6

>  <nN>
1

>  <nO>
5

>  <nF>
0

>  <BalabanJ>
1.59

>  <BertzCT>
764.43

>  <nBonds>
52

>  <nBondsO>
29

>  <nBondsS>
45

>  <nBondsD>
1

>  <nBondsT>
0

>  <nBondsA>
6

>  <nBondsM>
7

>  <nBondsKS>
48

>  <nBondsKD>
4

>  <RNCG>
0.2

>  <RPCG>
0.12

>  <FCSP3>
0.63

>  <SZ>
30.67

>  <Sm>
28.76

>  <Sv>
29.56

>  <Sse>
48.53

>  <Sp>
31.24

>  <Si>
54.11

>  <MZ>
0.64

>  <Mm>
0.6

>  <Mv>
0.62

>  <Mse>
1.01

>  <Mp>
0.65

>  <Mi>
1.13

>  <NsCH3>
1

>  <NdCH2>
0

>  <NssCH2>
7

>  <NtCH>
0

>  <NdsCH>
0

>  <NaaCH>
2

>  <NsssCH>
2

>  <NddC>
0

>  <NtsC>
0

>  <NdssC>
1

>  <NaasC>
4

>  <NaaaC>
0

>  <NssssC>
2

>  <NsNH3>
0

>  <NsNH2>
0

>  <NssNH2>
0

>  <NdNH>
0

>  <NssNH>
0

>  <NaaNH>
0

>  <NtN>
0

>  <NsssNH>
0

>  <NdsN>
0

>  <NaaN>
0

>  <NsssN>
1

>  <NddsN>
0

>  <NaasN>
0

>  <NssssN>
0

>  <NsOH>
2

>  <NdO>
1

>  <NssO>
2

>  <NaaO>
0

>  <NsF>
0

>  <NsSiH3>
0

>  <NssSiH2>
0

>  <NsssSiH>
0

>  <NssssSi>
0

>  <NsPH2>
0

>  <NssPH>
0

>  <NsssP>
0

>  <NdsssP>
0

>  <NsssssP>
0

>  <NsSH>
0

>  <NdS>
0

>  <NssS>
0

>  <NaaS>
0

>  <NdssS>
0

>  <NddssS>
0

>  <NsCl>
0

>  <NsBr>
0

>  <NsI>
0

>  <fragCpx>
241.06

>  <fMF>
0.38

>  <nHBAcc>
6

>  <nHBDon>
2

>  <Kier1>
17.12

>  <Kier2>
5.75

>  <Lipinski>
1

>  <GhoseFilter>
1

>  <FilterItLogS>
-3.09

>  <VMcGowan>
246.4

>  <LabuteASA>
145.89

>  <PEOE_VSA1>
19.69

>  <PEOE_VSA2>
9.69

>  <PEOE_VSA3>
0

>  <PEOE_VSA4>
0

>  <PEOE_VSA5>
0

>  <PEOE_VSA6>
6.07

>  <PEOE_VSA7>
37.44

>  <PEOE_VSA8>
31.68

>  <PEOE_VSA9>
17.62

>  <PEOE_VSA10>
0

>  <PEOE_VSA11>
23.39

>  <PEOE_VSA12>
0

>  <PEOE_VSA13>
0

>  <SMR_VSA1>
24.48

>  <SMR_VSA2>
0

>  <SMR_VSA3>
4.9

>  <SMR_VSA4>
0

>  <SMR_VSA5>
48.85

>  <SMR_VSA6>
26.81

>  <SMR_VSA7>
23.26

>  <SMR_VSA8>
0

>  <SMR_VSA9>
11.5

>  <SlogP_VSA1>
4.74

>  <SlogP_VSA2>
65.45

>  <SlogP_VSA3>
21.37

>  <SlogP_VSA4>
0

>  <SlogP_VSA5>
30.39

>  <SlogP_VSA6>
12.13

>  <SlogP_VSA7>
0

>  <SlogP_VSA8>
0

>  <SlogP_VSA9>
0

>  <SlogP_VSA10>
0

>  <SlogP_VSA11>
11.5

>  <EState_VSA1>
17.12

>  <EState_VSA2>
17.57

>  <EState_VSA3>
38.04

>  <EState_VSA4>
24.22

>  <EState_VSA5>
0

>  <EState_VSA6>
13.18

>  <EState_VSA7>
6.07

>  <EState_VSA8>
4.9

>  <EState_VSA9>
9.47

>  <EState_VSA10>
15.01

>  <VSA_EState1>
11.25

>  <VSA_EState2>
14.98

>  <VSA_EState3>
22.19

>  <VSA_EState4>
0.24

>  <VSA_EState5>
0.52

>  <VSA_EState6>
3.51

>  <VSA_EState7>
1.45

>  <VSA_EState8>
2.17

>  <VSA_EState9>
1.69

>  <apol>
52.18

>  <bpol>
29.12

>  <nRing>
5

>  <nHRing>
2

>  <naRing>
1

>  <naHRing>
0

>  <nARing 2>
4

>  <nAHRing 2>
2

>  <nFRing>
1

>  <nFHRing>
1

>  <nFaRing>
0

>  <nFaHRing>
0

>  <nFARing 2>
1

>  <nFAHRing 2>
1

>  <nRot>
3

>  <SLogP>
0.76

>  <SMR>
88.95

>  <TopoPSA(NO)>
79.23

>  <TopoPSA>
79.23

>  <JGI1>
0.21

>  <JGI2>
0.12

>  <JGI3>
0.06

>  <JGI4>
0.06

>  <JGI5>
0.03

>  <Diameter>
11

>  <Radius>
6

>  <TMWC10>
134.9

>  <TSRW10>
76.31

>  <MW>
345.16

>  <AMW>
7.19

>  <WPath>
1212

>  <WPol>
59

>  <Zagreb1>
152

>  <Zagreb2>
199

>  <mZagreb2>
5.28

>  <yes>


>  <nAR-cont>
0.199399

>  <nHA-cont>
0.921834225

>  <MWHBN>
0.430605683

>  <MWHBN-cont>
0.35742016

>  <TPSA-cont>
0.446925401

>  <pka_cont>
0.97

>  <yes.1>


>  <BBB_SCORE>
3.036214268

>  <MMFF94 Energy>
118.94

$$$$
Compound 1509
Actelion Java MolfileCreator 2.0

  0  0  0  0  0  0              0 V3000
M  V30 BEGIN CTAB
M  V30 COUNTS 39 41 0 0 0
M  V30 BEGIN ATOM
M  V30 1 O 4.5088 1.0453 -0.9648 0
M  V30 2 N 3.7207 1.9976 -1.0404 0 CHG=1
M  V30 3 O 4.0064 3.1151 -1.4922 0 CHG=-1
M  V30 4 C 2.349 1.7866 -0.5603 0
M  V30 5 C 1.9907 0.5563 0.0012 0
M  V30 6 C 1.4123 2.8195 -0.6622 0
M  V30 7 C 0.6747 0.3559 0.4519 0
M  V30 8 C 0.1098 2.6173 -0.1962 0
M  V30 9 C 0.3356 -0.96 1.0647 0
M  V30 10 C -0.2767 1.3878 0.3642 0
M  V30 11 N -0.2751 -1.0846 2.1972 0
M  V30 12 C 0.7341 -2.2089 0.3455 0
M  V30 13 N -1.6082 1.2287 0.8371 0
M  V30 14 C -0.7321 0.1268 2.8859 0
M  V30 15 C 1.1236 -3.3283 1.09 0
M  V30 16 C 0.696 -2.2824 -1.0526 0
M  V30 17 C -1.8976 0.7291 2.1067 0
M  V30 18 C -2.728 1.7003 0.0413 0
M  V30 19 C 1.5026 -4.5034 0.4396 0
M  V30 20 C 1.076 -3.4605 -1.6987 0
M  V30 21 O -3.0289 0.7876 2.5955 0
M  V30 22 O -2.4541 1.5181 -1.3469 0
M  V30 23 C 1.4829 -4.567 -0.9532 0
M  V30 24 C -3.5684 1.8944 -2.1437 0
M  V30 25 H 2.7261 -0.2403 0.1018 0
M  V30 26 H 1.6753 3.7835 -1.0944 0
M  V30 27 H -0.601 3.4372 -0.2749 0
M  V30 28 H 0.0679 0.8588 3.041 0
M  V30 29 H -1.0968 -0.1573 3.879 0
M  V30 30 H 1.1326 -3.2881 2.1769 0
M  V30 31 H 0.3532 -1.4425 -1.6509 0
M  V30 32 H -3.6353 1.145 0.3063 0
M  V30 33 H -2.8875 2.7622 0.2638 0
M  V30 34 H 1.8071 -5.3701 1.0207 0
M  V30 35 H 1.0454 -3.5198 -2.7838 0
M  V30 36 H 1.7745 -5.4847 -1.458 0
M  V30 37 H -3.3026 1.7539 -3.1948 0
M  V30 38 H -3.8159 2.9483 -1.9839 0
M  V30 39 H -4.4338 1.2645 -1.916 0
M  V30 END ATOM
M  V30 BEGIN BOND
M  V30 1 2 1 2
M  V30 2 1 2 3
M  V30 3 1 2 4
M  V30 4 2 4 5
M  V30 5 1 4 6
M  V30 6 1 5 7
M  V30 7 2 6 8
M  V30 8 1 7 9
M  V30 9 2 7 10
M  V30 10 2 9 11
M  V30 11 1 9 12
M  V30 12 1 10 13
M  V30 13 1 11 14
M  V30 14 2 12 15
M  V30 15 1 12 16
M  V30 16 1 13 17
M  V30 17 1 13 18
M  V30 18 1 15 19
M  V30 19 2 16 20
M  V30 20 2 17 21
M  V30 21 1 18 22
M  V30 22 2 19 23
M  V30 23 1 22 24
M  V30 24 1 8 10
M  V30 25 1 14 17
M  V30 26 1 20 23
M  V30 27 1 5 25
M  V30 28 1 6 26
M  V30 29 1 8 27
M  V30 30 1 14 28
M  V30 31 1 14 29
M  V30 32 1 15 30
M  V30 33 1 16 31
M  V30 34 1 18 32
M  V30 35 1 18 33
M  V30 36 1 19 34
M  V30 37 1 20 35
M  V30 38 1 23 36
M  V30 39 1 24 37
M  V30 40 1 24 38
M  V30 41 1 24 39
M  V30 END BOND
M  V30 END CTAB
M  END
>  <Column 1>
1819

>  <level_0>
1981

>  <index>
1981

>  <Unnamed: 0>
1981

>  <NO.>
1993

>  <Name>
motrazepam

>  <IUPAC_name>
1-(methoxymethyl)-7-nitro-5-phenyl-3h-1-4-benzodiazepin-2-one

>  <SMILES>
COCN1C(=O)CN=C(c2ccccc2)c2cc([N+](=O)[O-])ccc21

>  <CID>
65764

>  <logBB>


>  <BBB+/BBB->
BBB+

>  <Inchi>
InChI=1S/C17H15N3O4/c1-24-11-19-15-8-7-13(20(22)23)9-14(15)17(18-10-16(19)21)12-5-3-2-4-6-12/h2-9H-10-11H2-1H3

>  <threshold>
-1

>  <reference>
R1|R13|R19|R6|R24|R27|R27|R27|R30|R30|

>  <group>
B

>  <Class>
-1

>  <ABC>
18.47

>  <ABCGG>
15.22

>  <nAcid>
0

>  <nBase>
0

>  <nAromAtom>
12

>  <nAromBond>
12

>  <nAtom>
39

>  <nHeavyAtom>
24

>  <nSpiro>
0

>  <nBridgehead>
0

>  <nHetero>
7

>  <nN>
3

>  <nO>
4

>  <nF>
0

>  <BalabanJ>
1.82

>  <BertzCT>
817.84

>  <nBonds>
41

>  <nBondsO>
26

>  <nBondsS>
26

>  <nBondsD>
3

>  <nBondsT>
0

>  <nBondsA>
12

>  <nBondsM>
15

>  <nBondsKS>
32

>  <nBondsKD>
9

>  <RNCG>
0.18

>  <RPCG>
0.13

>  <FCSP3>
0.18

>  <SZ>
28.33

>  <Sm>
27.09

>  <Sv>
26.2

>  <Sse>
39.97

>  <Sp>
26.89

>  <Si>
43.82

>  <MZ>
0.73

>  <Mm>
0.69

>  <Mv>
0.67

>  <Mse>
1.02

>  <Mp>
0.69

>  <Mi>
1.12

>  <NsCH3>
1

>  <NdCH2>
0

>  <NssCH2>
2

>  <NtCH>
0

>  <NdsCH>
0

>  <NaaCH>
8

>  <NsssCH>
0

>  <NddC>
0

>  <NtsC>
0

>  <NdssC>
2

>  <NaasC>
4

>  <NaaaC>
0

>  <NssssC>
0

>  <NsNH3>
0

>  <NsNH2>
0

>  <NssNH2>
0

>  <NdNH>
0

>  <NssNH>
0

>  <NaaNH>
0

>  <NtN>
0

>  <NsssNH>
0

>  <NdsN>
1

>  <NaaN>
0

>  <NsssN>
1

>  <NddsN>
1

>  <NaasN>
0

>  <NssssN>
0

>  <NsOH>
0

>  <NdO>
2

>  <NssO>
1

>  <NaaO>
0

>  <NsF>
0

>  <NsSiH3>
0

>  <NssSiH2>
0

>  <NsssSiH>
0

>  <NssssSi>
0

>  <NsPH2>
0

>  <NssPH>
0

>  <NsssP>
0

>  <NdsssP>
0

>  <NsssssP>
0

>  <NsSH>
0

>  <NdS>
0

>  <NssS>
0

>  <NaaS>
0

>  <NdssS>
0

>  <NddssS>
0

>  <NsCl>
0

>  <NsBr>
0

>  <NsI>
0

>  <fragCpx>
124.07

>  <fMF>
0.44

>  <nHBAcc>
5

>  <nHBDon>
0

>  <Kier1>
18.78

>  <Kier2>
8.59

>  <Lipinski>
1

>  <GhoseFilter>
1

>  <FilterItLogS>
-4.31

>  <VMcGowan>
232.53

>  <LabuteASA>
137.89

>  <PEOE_VSA1>
4.74

>  <PEOE_VSA2>
24.8

>  <PEOE_VSA3>
0

>  <PEOE_VSA4>
0

>  <PEOE_VSA5>
0

>  <PEOE_VSA6>
30.33

>  <PEOE_VSA7>
6.07

>  <PEOE_VSA8>
30.37

>  <PEOE_VSA9>
16.32

>  <PEOE_VSA10>
13.28

>  <PEOE_VSA11>
0

>  <PEOE_VSA12>
0

>  <PEOE_VSA13>
11.59

>  <SMR_VSA1>
14.45

>  <SMR_VSA2>
0

>  <SMR_VSA3>
0

>  <SMR_VSA4>
4.99

>  <SMR_VSA5>
0

>  <SMR_VSA6>
25.29

>  <SMR_VSA7>
69.77

>  <SMR_VSA8>
0

>  <SMR_VSA9>
0

>  <SlogP_VSA1>
4.9

>  <SlogP_VSA2>
36.93

>  <SlogP_VSA3>
9.53

>  <SlogP_VSA4>
10.11

>  <SlogP_VSA5>
11.13

>  <SlogP_VSA6>
53.52

>  <SlogP_VSA7>
0

>  <SlogP_VSA8>
0

>  <SlogP_VSA9>
0

>  <SlogP_VSA10>
11.37

>  <SlogP_VSA11>
0

>  <EState_VSA1>
4.92

>  <EState_VSA2>
24.87

>  <EState_VSA3>
16.96

>  <EState_VSA4>
5.56

>  <EState_VSA5>
24.14

>  <EState_VSA6>
6.07

>  <EState_VSA7>
30.33

>  <EState_VSA8>
4.99

>  <EState_VSA9>
4.74

>  <EState_VSA10>
14.91

>  <VSA_EState1>
5.1

>  <VSA_EState2>
28.89

>  <VSA_EState3>
11.15

>  <VSA_EState4>
2.39

>  <VSA_EState5>
-0.22

>  <VSA_EState6>
13.69

>  <VSA_EState7>
0

>  <VSA_EState8>
0.01

>  <VSA_EState9>
1.49

>  <apol>
44.9

>  <bpol>
21.67

>  <nRing>
3

>  <nHRing>
1

>  <naRing>
2

>  <naHRing>
0

>  <nARing 2>
1

>  <nAHRing 2>
1

>  <nFRing>
1

>  <nFHRing>
1

>  <nFaRing>
0

>  <nFaHRing>
0

>  <nFARing 2>
1

>  <nFAHRing 2>
1

>  <nRot>
4

>  <SLogP>
2.38

>  <SMR>
89.41

>  <TopoPSA(NO)>
85.04

>  <TopoPSA>
85.04

>  <JGI1>
0.15

>  <JGI2>
0.09

>  <JGI3>
0.04

>  <JGI4>
0.03

>  <JGI5>
0.03

>  <Diameter>
10

>  <Radius>
5

>  <TMWC10>
125.32

>  <TSRW10>
66.63

>  <MW>
325.11

>  <AMW>
8.34

>  <WPath>
1215

>  <WPol>
43

>  <Zagreb1>
124

>  <Zagreb2>
147

>  <mZagreb2>
5.42

>  <yes>


>  <nAR-cont>
0.816016

>  <nHA-cont>
0.94700071

>  <MWHBN>
0.277303174

>  <MWHBN-cont>
0.902817847

>  <TPSA-cont>
0.406367993

>  <pka_cont>
0.97

>  <yes.1>


>  <BBB_SCORE>
4.414979466

>  <MMFF94 Energy>
122.85

$$$$
Compound 1510
Actelion Java MolfileCreator 2.0

  0  0  0  0  0  0              0 V3000
M  V30 BEGIN CTAB
M  V30 COUNTS 58 61 0 0 0
M  V30 BEGIN ATOM
M  V30 1 S -1.0523 1.7814 2.9974 0
M  V30 2 C -2.7808 1.0745 2.8273 0
M  V30 3 C -0.3186 0.7198 1.6724 0
M  V30 4 C -2.5954 -0.2128 1.9991 0
M  V30 5 C -3.2945 0.774 4.2408 0
M  V30 6 C -3.659 2.1468 2.1714 0
M  V30 7 N -1.4743 0.0193 1.1015 0
M  V30 8 C -0.1347 1.4197 0.2951 0
M  V30 9 C -3.8654 -0.8192 1.3938 0
M  V30 10 C -1.5111 0.7928 -0.0204 0
M  V30 11 N 1.0622 0.9861 -0.4749 0
M  V30 12 O -4.9547 -0.8192 1.9563 0
M  V30 13 O -3.6101 -1.4612 0.2242 0
M  V30 14 O -2.3798 0.9629 -0.8443 0
M  V30 15 C 2.3368 1.235 0.0185 0
M  V30 16 C 1.0835 0.548 -1.8471 0
M  V30 17 C -4.7638 -2.054 -0.3645 0
M  V30 18 O 2.5866 1.6864 1.1254 0
M  V30 19 C 3.3125 0.911 -1.0946 0
M  V30 20 N 2.4906 0.2121 -2.0957 0
M  V30 21 C 0.3035 -0.7457 -2.0985 0
M  V30 22 C 0.6333 1.6585 -2.8034 0
M  V30 23 O -4.4355 -2.7056 -1.5918 0
M  V30 24 C 4.5004 0.0915 -0.6476 0
M  V30 25 C -4.088 -1.7724 -2.6057 0
M  V30 26 C 5.7488 0.7095 -0.4687 0
M  V30 27 C 4.3866 -1.2824 -0.371 0
M  V30 28 C 6.8542 -0.029 -0.0418 0
M  V30 29 C 5.4924 -2.0219 0.0563 0
M  V30 30 C 6.7185 -1.3868 0.2156 0
M  V30 31 O 7.8238 -2.0688 0.6302 0
M  V30 32 H 0.4682 0.0369 2.004 0
M  V30 33 H -2.2275 -1.0089 2.6645 0
M  V30 34 H -4.3097 0.3641 4.2119 0
M  V30 35 H -2.6628 0.0424 4.758 0
M  V30 36 H -3.3322 1.6793 4.8584 0
M  V30 37 H -3.7011 3.0557 2.7844 0
M  V30 38 H -3.3023 2.4403 1.1804 0
M  V30 39 H -4.691 1.7991 2.0567 0
M  V30 40 H -0.1821 2.5159 0.3229 0
M  V30 41 H -5.1544 -2.8274 0.3059 0
M  V30 42 H -5.5454 -1.3043 -0.5413 0
M  V30 43 H 3.6406 1.8678 -1.521 0
M  V30 44 H 2.7877 0.4671 -3.0334 0
M  V30 45 H -0.7762 -0.5867 -2.0827 0
M  V30 46 H 0.5352 -1.1649 -3.0856 0
M  V30 47 H 0.5371 -1.509 -1.3465 0
M  V30 48 H 0.7255 1.3479 -3.8505 0
M  V30 49 H 1.2268 2.5707 -2.6695 0
M  V30 50 H -0.4139 1.929 -2.6306 0
M  V30 51 H -3.8998 -2.3259 -3.5296 0
M  V30 52 H -3.1768 -1.2318 -2.3382 0
M  V30 53 H -4.9076 -1.0694 -2.7834 0
M  V30 54 H 5.8711 1.7746 -0.6533 0
M  V30 55 H 3.4295 -1.7862 -0.4926 0
M  V30 56 H 7.8167 0.4555 0.0948 0
M  V30 57 H 5.3754 -3.0816 0.2578 0
M  V30 58 H 7.5725 -2.9928 0.7912 0
M  V30 END ATOM
M  V30 BEGIN BOND
M  V30 1 1 1 2
M  V30 2 1 1 3
M  V30 3 1 2 4
M  V30 4 1 2 5
M  V30 5 1 2 6
M  V30 6 1 3 7
M  V30 7 1 3 8
M  V30 8 1 4 9
M  V30 9 1 7 10
M  V30 10 1 8 11
M  V30 11 2 9 12
M  V30 12 1 9 13
M  V30 13 2 10 14
M  V30 14 1 11 15
M  V30 15 1 11 16
M  V30 16 1 13 17
M  V30 17 2 15 18
M  V30 18 1 15 19
M  V30 19 1 16 20
M  V30 20 1 16 21
M  V30 21 1 16 22
M  V30 22 1 17 23
M  V30 23 1 19 24
M  V30 24 1 23 25
M  V30 25 2 24 26
M  V30 26 1 24 27
M  V30 27 1 26 28
M  V30 28 2 27 29
M  V30 29 2 28 30
M  V30 30 1 30 31
M  V30 31 1 4 7
M  V30 32 1 8 10
M  V30 33 1 19 20
M  V30 34 1 29 30
M  V30 35 1 3 32
M  V30 36 1 4 33
M  V30 37 1 5 34
M  V30 38 1 5 35
M  V30 39 1 5 36
M  V30 40 1 6 37
M  V30 41 1 6 38
M  V30 42 1 6 39
M  V30 43 1 8 40
M  V30 44 1 17 41
M  V30 45 1 17 42
M  V30 46 1 19 43
M  V30 47 1 20 44
M  V30 48 1 21 45
M  V30 49 1 21 46
M  V30 50 1 21 47
M  V30 51 1 22 48
M  V30 52 1 22 49
M  V30 53 1 22 50
M  V30 54 1 25 51
M  V30 55 1 25 52
M  V30 56 1 25 53
M  V30 57 1 26 54
M  V30 58 1 27 55
M  V30 59 1 28 56
M  V30 60 1 29 57
M  V30 61 1 31 58
M  V30 END BOND
M  V30 END CTAB
M  END
>  <Column 1>
1820

>  <level_0>
1982

>  <index>
1982

>  <Unnamed: 0>
1982

>  <NO.>
1994

>  <Name>
sarmoxicillin

>  <IUPAC_name>
methoxymethyl 6-[4-(4-hydroxyphenyl)-2-2-dimethyl-5-oxoimidazolidin-1-yl]-3-3-dimethyl-7-oxo-4-thia-1-azabicyclo[3.2.0]heptane-2-carboxylate

>  <SMILES>
COCOC(=O)C1N2C(=O)C(N3C(=O)C(c4ccc(O)cc4)NC3(C)C)C2SC1(C)C

>  <CID>
49808

>  <logBB>


>  <BBB+/BBB->
BBB-

>  <Inchi>
InChI=1S/C21H27N3O6S/c1-20(2)15(19(28)30-10-29-5)23-17(27)14(18(23)31-20)24-16(26)13(22-21(24-3)4)11-6-8-12(25)9-7-11/h6-9-13-15-18-22-25H-10H2-1-5H3

>  <threshold>
-1

>  <reference>
R1|R19|R27|R27|R30|

>  <group>
B

>  <Class>
-1

>  <ABC>
24.59

>  <ABCGG>
20.49

>  <nAcid>
0

>  <nBase>
1

>  <nAromAtom>
6

>  <nAromBond>
6

>  <nAtom>
58

>  <nHeavyAtom>
31

>  <nSpiro>
0

>  <nBridgehead>
0

>  <nHetero>
10

>  <nN>
3

>  <nO>
6

>  <nF>
0

>  <BalabanJ>
1.51

>  <BertzCT>
918.2

>  <nBonds>
61

>  <nBondsO>
34

>  <nBondsS>
52

>  <nBondsD>
3

>  <nBondsT>
0

>  <nBondsA>
6

>  <nBondsM>
9

>  <nBondsKS>
55

>  <nBondsKD>
6

>  <RNCG>
0.15

>  <RPCG>
0.1

>  <FCSP3>
0.57

>  <SZ>
39.67

>  <Sm>
37.43

>  <Sv>
36.06

>  <Sse>
59.04

>  <Sp>
38.37

>  <Si>
65.65

>  <MZ>
0.68

>  <Mm>
0.65

>  <Mv>
0.62

>  <Mse>
1.02

>  <Mp>
0.66

>  <Mi>
1.13

>  <NsCH3>
5

>  <NdCH2>
0

>  <NssCH2>
1

>  <NtCH>
0

>  <NdsCH>
0

>  <NaaCH>
4

>  <NsssCH>
4

>  <NddC>
0

>  <NtsC>
0

>  <NdssC>
3

>  <NaasC>
2

>  <NaaaC>
0

>  <NssssC>
2

>  <NsNH3>
0

>  <NsNH2>
0

>  <NssNH2>
0

>  <NdNH>
0

>  <NssNH>
1

>  <NaaNH>
0

>  <NtN>
0

>  <NsssNH>
0

>  <NdsN>
0

>  <NaaN>
0

>  <NsssN>
2

>  <NddsN>
0

>  <NaasN>
0

>  <NssssN>
0

>  <NsOH>
1

>  <NdO>
3

>  <NssO>
2

>  <NaaO>
0

>  <NsF>
0

>  <NsSiH3>
0

>  <NssSiH2>
0

>  <NsssSiH>
0

>  <NssssSi>
0

>  <NsPH2>
0

>  <NssPH>
0

>  <NsssP>
0

>  <NdsssP>
0

>  <NsssssP>
0

>  <NsSH>
0

>  <NdS>
0

>  <NssS>
1

>  <NaaS>
0

>  <NdssS>
0

>  <NddssS>
0

>  <NsCl>
0

>  <NsBr>
0

>  <NsI>
0

>  <fragCpx>
226.1

>  <fMF>
0.31

>  <nHBAcc>
8

>  <nHBDon>
2

>  <Kier1>
24.13

>  <Kier2>
8.65

>  <Lipinski>
1

>  <GhoseFilter>
1

>  <FilterItLogS>
-2.74

>  <VMcGowan>
319.02

>  <LabuteASA>
184.59

>  <PEOE_VSA1>
24.38

>  <PEOE_VSA2>
14.91

>  <PEOE_VSA3>
4.79

>  <PEOE_VSA4>
0

>  <PEOE_VSA5>
11.76

>  <PEOE_VSA6>
12.13

>  <PEOE_VSA7>
45.39

>  <PEOE_VSA8>
11.86

>  <PEOE_VSA9>
5.66

>  <PEOE_VSA10>
29.25

>  <PEOE_VSA11>
6.79

>  <PEOE_VSA12>
11.81

>  <PEOE_VSA13>
0

>  <SMR_VSA1>
28.96

>  <SMR_VSA2>
0

>  <SMR_VSA3>
15.12

>  <SMR_VSA4>
0

>  <SMR_VSA5>
61.6

>  <SMR_VSA6>
13.9

>  <SMR_VSA7>
29.83

>  <SMR_VSA8>
0

>  <SMR_VSA9>
5.75

>  <SlogP_VSA1>
5.32

>  <SlogP_VSA2>
74.46

>  <SlogP_VSA3>
23.86

>  <SlogP_VSA4>
0

>  <SlogP_VSA5>
39.3

>  <SlogP_VSA6>
24.27

>  <SlogP_VSA7>
0

>  <SlogP_VSA8>
0

>  <SlogP_VSA9>
0

>  <SlogP_VSA10>
0

>  <SlogP_VSA11>
5.75

>  <EState_VSA1>
34.5

>  <EState_VSA2>
29.73

>  <EState_VSA3>
5.56

>  <EState_VSA4>
0

>  <EState_VSA5>
35.9

>  <EState_VSA6>
17.03

>  <EState_VSA7>
27.69

>  <EState_VSA8>
5.32

>  <EState_VSA9>
9.47

>  <EState_VSA10>
19.49

>  <VSA_EState1>
9.39

>  <VSA_EState2>
42.4

>  <VSA_EState3>
12.51

>  <VSA_EState4>
-0.06

>  <VSA_EState5>
-0.87

>  <VSA_EState6>
4.39

>  <VSA_EState7>
0

>  <VSA_EState8>
7.33

>  <VSA_EState9>
1.42

>  <apol>
64.09

>  <bpol>
39.61

>  <nRing>
4

>  <nHRing>
3

>  <naRing>
1

>  <naHRing>
0

>  <nARing 2>
3

>  <nAHRing 2>
3

>  <nFRing>
1

>  <nFHRing>
1

>  <nFaRing>
0

>  <nFaHRing>
0

>  <nFARing 2>
1

>  <nFAHRing 2>
1

>  <nRot>
5

>  <SLogP>
1.18

>  <SMR>
112.76

>  <TopoPSA(NO)>
108.41

>  <TopoPSA>
133.71

>  <JGI1>
0.25

>  <JGI2>
0.1

>  <JGI3>
0.1

>  <JGI4>
0.06

>  <JGI5>
0.03

>  <Diameter>
16

>  <Radius>
8

>  <TMWC10>
145.76

>  <TSRW10>
84.86

>  <MW>
449.16

>  <AMW>
7.74

>  <WPath>
2609

>  <WPol>
55

>  <Zagreb1>
176

>  <Zagreb2>
218

>  <mZagreb2>
6.53

>  <yes>


>  <nAR-cont>
0.691115

>  <nHA-cont>
0.702745138

>  <MWHBN>
0.471845115

>  <MWHBN-cont>
0

>  <TPSA-cont>
0

>  <pka_cont>
0.97

>  <yes.1>


>  <BBB_SCORE>
1.878860138

>  <MMFF94 Energy>
37.81

$$$$
Compound 1511
Actelion Java MolfileCreator 2.0

  0  0  0  0  0  0              0 V3000
M  V30 BEGIN CTAB
M  V30 COUNTS 57 60 0 0 0
M  V30 BEGIN ATOM
M  V30 1 S -2.4312 0.7289 -0.4049 0
M  V30 2 C -2.74 -1.1043 -0.5861 0
M  V30 3 C -1.9845 0.5469 1.3562 0 CFG=1
M  V30 4 C -1.723 -1.7572 0.3697 0 CFG=1
M  V30 5 C -4.2084 -1.3594 -0.2199 0
M  V30 6 C -2.4829 -1.4994 -2.0415 0
M  V30 7 N -1.519 -0.8296 1.4672 0
M  V30 8 C -0.5925 1.0023 1.8662 0 CFG=1
M  V30 9 C -2.1456 -3.1255 0.8927 0
M  V30 10 C -0.295 -0.5231 1.9691 0
M  V30 11 N 0.2834 1.8092 0.972 0
M  V30 12 O -2.8066 -3.3226 1.9054 0
M  V30 13 O -1.7348 -4.0988 0.0358 0
M  V30 14 O 0.6395 -1.23 2.2632 0
M  V30 15 C 0.9088 1.3094 -0.1684 0
M  V30 16 C 0.4681 3.23 1.105 0
M  V30 17 C -2.092 -5.4118 0.4592 0
M  V30 18 O 0.8486 0.1641 -0.587 0
M  V30 19 C 1.6517 2.4776 -0.7972 0
M  V30 20 N 1.6221 3.5319 0.246 0
M  V30 21 C -0.7496 4.0088 0.5904 0
M  V30 22 C 0.7969 3.6694 2.5383 0
M  V30 23 O -1.648 -6.3835 -0.4872 0
M  V30 24 C 3.0729 2.2059 -1.2454 0
M  V30 25 C -0.2324 -6.51 -0.4898 0
M  V30 26 C 3.647 3.0334 -2.226 0
M  V30 27 C 3.8668 1.1974 -0.6765 0
M  V30 28 C 4.9655 2.8423 -2.6427 0
M  V30 29 C 5.1855 1.0066 -1.0961 0
M  V30 30 C 5.7336 1.8271 -2.0791 0
M  V30 31 H -2.8086 0.7583 2.0458 0
M  V30 32 H -0.7474 -1.8859 -0.1182 0
M  V30 33 H -4.888 -0.781 -0.8573 0
M  V30 34 H -4.4261 -1.1013 0.8226 0
M  V30 35 H -4.4695 -2.4148 -0.3581 0
M  V30 36 H -3.1576 -0.9751 -2.7282 0
M  V30 37 H -2.6433 -2.5737 -2.1859 0
M  V30 38 H -1.4538 -1.279 -2.3481 0
M  V30 39 H -0.6464 1.4429 2.8689 0
M  V30 40 H -1.6715 -5.6359 1.4475 0
M  V30 41 H -3.1836 -5.493 0.5051 0
M  V30 42 H 1.0502 2.8005 -1.6569 0
M  V30 43 H 2.4679 3.4042 0.8031 0
M  V30 44 H -0.9956 3.7497 -0.4457 0
M  V30 45 H -1.637 3.7908 1.1958 0
M  V30 46 H -0.5775 5.0907 0.6305 0
M  V30 47 H 1.6165 3.0768 2.9618 0
M  V30 48 H 1.0909 4.7252 2.5735 0
M  V30 49 H -0.0668 3.5563 3.2024 0
M  V30 50 H 0.0408 -7.2805 -1.2157 0
M  V30 51 H 0.1282 -6.8185 0.496 0
M  V30 52 H 0.2417 -5.5704 -0.7884 0
M  V30 53 H 3.0647 3.8402 -2.6677 0
M  V30 54 H 3.47 0.5377 0.0933 0
M  V30 55 H 5.3928 3.488 -3.4054 0
M  V30 56 H 5.7837 0.2135 -0.6545 0
M  V30 57 H 6.7593 1.6758 -2.404 0
M  V30 END ATOM
M  V30 BEGIN BOND
M  V30 1 1 1 2
M  V30 2 1 1 3
M  V30 3 1 2 4
M  V30 4 1 2 5
M  V30 5 1 2 6
M  V30 6 1 3 7
M  V30 7 1 3 8
M  V30 8 1 4 9
M  V30 9 1 7 10
M  V30 10 1 8 11
M  V30 11 2 9 12
M  V30 12 1 9 13
M  V30 13 2 10 14
M  V30 14 1 11 15
M  V30 15 1 11 16
M  V30 16 1 13 17
M  V30 17 2 15 18
M  V30 18 1 15 19
M  V30 19 1 16 20
M  V30 20 1 16 21
M  V30 21 1 16 22
M  V30 22 1 17 23
M  V30 23 1 19 24
M  V30 24 1 23 25
M  V30 25 2 24 26
M  V30 26 1 24 27
M  V30 27 1 26 28
M  V30 28 2 27 29
M  V30 29 2 28 30
M  V30 30 1 4 7
M  V30 31 1 8 10
M  V30 32 1 19 20
M  V30 33 1 29 30
M  V30 34 1 3 31
M  V30 35 1 4 32
M  V30 36 1 5 33
M  V30 37 1 5 34
M  V30 38 1 5 35
M  V30 39 1 6 36
M  V30 40 1 6 37
M  V30 41 1 6 38
M  V30 42 1 8 39
M  V30 43 1 17 40
M  V30 44 1 17 41
M  V30 45 1 19 42
M  V30 46 1 20 43
M  V30 47 1 21 44
M  V30 48 1 21 45
M  V30 49 1 21 46
M  V30 50 1 22 47
M  V30 51 1 22 48
M  V30 52 1 22 49
M  V30 53 1 25 50
M  V30 54 1 25 51
M  V30 55 1 25 52
M  V30 56 1 26 53
M  V30 57 1 27 54
M  V30 58 1 28 55
M  V30 59 1 29 56
M  V30 60 1 30 57
M  V30 END BOND
M  V30 BEGIN COLLECTION
M  V30 MDLV30/STEABS ATOMS=(3 3 4 8)
M  V30 END COLLECTION
M  V30 END CTAB
M  END
>  <Column 1>
1821

>  <level_0>
1983

>  <index>
1983

>  <Unnamed: 0>
1983

>  <NO.>
1995

>  <Name>
sarpicillin

>  <IUPAC_name>
methoxymethyl (2s-5r-6r)-6-(2-2-dimethyl-5-oxo-4-phenylimidazolidin-1-yl)-3-3-dimethyl-7-oxo-4-thia-1-azabicyclo[3.2.0]heptane-2-carboxylate

>  <SMILES>
COCOC(=O)[C@@H]1N2C(=O)[C@@H](N3C(=O)C(c4ccccc4)NC3(C)C)[C@H]2SC1(C)C

>  <CID>
65429

>  <logBB>


>  <BBB+/BBB->
BBB-

>  <Inchi>
InChI=1S/C21H27N3O5S/c1-20(2)15(19(27)29-11-28-5)23-17(26)14(18(23)30-20)24-16(25)13(22-21(24-3)4)12-9-7-6-8-10-12/h6-10-13-15-18-22H-11H2-1-5H3/t13?-14--15+-18-/m1/s1

>  <threshold>
-1

>  <reference>
R1|R6|R27|R30|

>  <group>
B

>  <Class>
1

>  <ABC>
23.77

>  <ABCGG>
20.03

>  <nAcid>
0

>  <nBase>
1

>  <nAromAtom>
6

>  <nAromBond>
6

>  <nAtom>
57

>  <nHeavyAtom>
30

>  <nSpiro>
0

>  <nBridgehead>
0

>  <nHetero>
9

>  <nN>
3

>  <nO>
5

>  <nF>
0

>  <BalabanJ>
1.52

>  <BertzCT>
874.65

>  <nBonds>
60

>  <nBondsO>
33

>  <nBondsS>
51

>  <nBondsD>
3

>  <nBondsT>
0

>  <nBondsA>
6

>  <nBondsM>
9

>  <nBondsKS>
54

>  <nBondsKD>
6

>  <RNCG>
0.14

>  <RPCG>
0.11

>  <FCSP3>
0.57

>  <SZ>
38.33

>  <Sm>
36.09

>  <Sv>
35.35

>  <Sse>
57.71

>  <Sp>
37.89

>  <Si>
64.45

>  <MZ>
0.67

>  <Mm>
0.63

>  <Mv>
0.62

>  <Mse>
1.01

>  <Mp>
0.66

>  <Mi>
1.13

>  <NsCH3>
5

>  <NdCH2>
0

>  <NssCH2>
1

>  <NtCH>
0

>  <NdsCH>
0

>  <NaaCH>
5

>  <NsssCH>
4

>  <NddC>
0

>  <NtsC>
0

>  <NdssC>
3

>  <NaasC>
1

>  <NaaaC>
0

>  <NssssC>
2

>  <NsNH3>
0

>  <NsNH2>
0

>  <NssNH2>
0

>  <NdNH>
0

>  <NssNH>
1

>  <NaaNH>
0

>  <NtN>
0

>  <NsssNH>
0

>  <NdsN>
0

>  <NaaN>
0

>  <NsssN>
2

>  <NddsN>
0

>  <NaasN>
0

>  <NssssN>
0

>  <NsOH>
0

>  <NdO>
3

>  <NssO>
2

>  <NaaO>
0

>  <NsF>
0

>  <NsSiH3>
0

>  <NssSiH2>
0

>  <NsssSiH>
0

>  <NssssSi>
0

>  <NsPH2>
0

>  <NssPH>
0

>  <NsssP>
0

>  <NdsssP>
0

>  <NsssssP>
0

>  <NsSH>
0

>  <NdS>
0

>  <NssS>
1

>  <NaaS>
0

>  <NdssS>
0

>  <NddssS>
0

>  <NsCl>
0

>  <NsBr>
0

>  <NsI>
0

>  <fragCpx>
219.09

>  <fMF>
0.32

>  <nHBAcc>
7

>  <nHBDon>
1

>  <Kier1>
23.17

>  <Kier2>
8.41

>  <Lipinski>
1

>  <GhoseFilter>
1

>  <FilterItLogS>
-3.18

>  <VMcGowan>
313.15

>  <LabuteASA>
179.79

>  <PEOE_VSA1>
19.27

>  <PEOE_VSA2>
14.91

>  <PEOE_VSA3>
4.79

>  <PEOE_VSA4>
0

>  <PEOE_VSA5>
11.76

>  <PEOE_VSA6>
30.33

>  <PEOE_VSA7>
33.26

>  <PEOE_VSA8>
11.86

>  <PEOE_VSA9>
5.66

>  <PEOE_VSA10>
23.5

>  <PEOE_VSA11>
6.79

>  <PEOE_VSA12>
11.81

>  <PEOE_VSA13>
0

>  <SMR_VSA1>
23.86

>  <SMR_VSA2>
0

>  <SMR_VSA3>
15.12

>  <SMR_VSA4>
0

>  <SMR_VSA5>
61.6

>  <SMR_VSA6>
13.9

>  <SMR_VSA7>
35.9

>  <SMR_VSA8>
0

>  <SMR_VSA9>
0

>  <SlogP_VSA1>
5.32

>  <SlogP_VSA2>
69.35

>  <SlogP_VSA3>
23.86

>  <SlogP_VSA4>
0

>  <SlogP_VSA5>
39.3

>  <SlogP_VSA6>
30.33

>  <SlogP_VSA7>
0

>  <SlogP_VSA8>
0

>  <SlogP_VSA9>
0

>  <SlogP_VSA10>
0

>  <SlogP_VSA11>
0

>  <EState_VSA1>
34.5

>  <EState_VSA2>
23.98

>  <EState_VSA3>
0

>  <EState_VSA4>
5.56

>  <EState_VSA5>
18.87

>  <EState_VSA6>
9.8

>  <EState_VSA7>
58.03

>  <EState_VSA8>
5.32

>  <EState_VSA9>
9.47

>  <EState_VSA10>
14.38

>  <VSA_EState1>
9.44

>  <VSA_EState2>
42.44

>  <VSA_EState3>
3.07

>  <VSA_EState4>
0.16

>  <VSA_EState5>
-0.85

>  <VSA_EState6>
7.63

>  <VSA_EState7>
0

>  <VSA_EState8>
7.48

>  <VSA_EState9>
1.44

>  <apol>
63.28

>  <bpol>
39.61

>  <nRing>
4

>  <nHRing>
3

>  <naRing>
1

>  <naHRing>
0

>  <nARing 2>
3

>  <nAHRing 2>
3

>  <nFRing>
1

>  <nFHRing>
1

>  <nFaRing>
0

>  <nFaHRing>
0

>  <nFARing 2>
1

>  <nFAHRing 2>
1

>  <nRot>
5

>  <SLogP>
1.47

>  <SMR>
111.09

>  <TopoPSA(NO)>
88.18

>  <TopoPSA>
113.48

>  <JGI1>
0.23

>  <JGI2>
0.09

>  <JGI3>
0.1

>  <JGI4>
0.06

>  <JGI5>
0.03

>  <Diameter>
15

>  <Radius>
8

>  <TMWC10>
143.51

>  <TSRW10>
83.7

>  <MW>
433.17

>  <AMW>
7.6

>  <WPath>
2355

>  <WPol>
53

>  <Zagreb1>
170

>  <Zagreb2>
211

>  <mZagreb2>
6.36

>  <yes>


>  <nAR-cont>
0.691115

>  <nHA-cont>
0.74523694

>  <MWHBN>
0.384380017

>  <MWHBN-cont>
0.537594952

>  <TPSA-cont>
0.207839133

>  <pka_cont>
0.97

>  <yes.1>


>  <BBB_SCORE>
3.143422634

>  <MMFF94 Energy>
46.251

$$$$
Compound 1512
Actelion Java MolfileCreator 2.0

  0  0  0  0  0  0              0 V3000
M  V30 BEGIN CTAB
M  V30 COUNTS 42 43 0 0 0
M  V30 BEGIN ATOM
M  V30 1 F 0.7195 -7.2137 -3.121 0
M  V30 2 C 1.0754 -5.9335 -2.8677 0
M  V30 3 F -0.0431 -5.1785 -2.9107 0
M  V30 4 F 1.8771 -5.5337 -3.883 0
M  V30 5 C 1.811 -5.8174 -1.5212 0 CFG=2
M  V30 6 O 0.9825 -6.1968 -0.4074 0
M  V30 7 C 2.3751 -4.4179 -1.2621 0
M  V30 8 C 1.3203 -3.3137 -1.1886 0
M  V30 9 O 1.991 -2.1155 -0.7886 0
M  V30 10 C 1.2267 -0.9888 -0.6665 0
M  V30 11 C -0.1448 -0.8967 -0.8869 0
M  V30 12 C 1.9269 0.1541 -0.282 0
M  V30 13 C -0.8061 0.3292 -0.7242 0
M  V30 14 C 1.2672 1.3778 -0.1199 0
M  V30 15 C -0.1107 1.4823 -0.3436 0
M  V30 16 N -0.7784 2.7138 -0.1639 0
M  V30 17 C -1.9516 3.1165 -0.7793 0
M  V30 18 C -0.2516 3.7919 0.6175 0
M  V30 19 O -2.6294 2.5143 -1.5959 0
M  V30 20 O -2.2907 4.3746 -0.3438 0
M  V30 21 C -1.4479 4.7076 0.766 0 CFG=1
M  V30 22 C -2.2094 4.4885 2.0738 0
M  V30 23 O -1.3802 4.8597 3.1746 0
M  V30 24 C -2.0537 4.6875 4.4162 0
M  V30 25 H 2.6461 -6.5276 -1.5419 0
M  V30 26 H 1.5485 -6.2444 0.3835 0
M  V30 27 H 3.1123 -4.1601 -2.0328 0
M  V30 28 H 2.9271 -4.4253 -0.3126 0
M  V30 29 H 0.8676 -3.1637 -2.1742 0
M  V30 30 H 0.5538 -3.5752 -0.4502 0
M  V30 31 H -0.7388 -1.7539 -1.1872 0
M  V30 32 H 2.9989 0.0954 -0.1099 0
M  V30 33 H -1.8796 0.3527 -0.8966 0
M  V30 34 H 1.8608 2.2397 0.1694 0
M  V30 35 H 0.163 3.4487 1.5701 0
M  V30 36 H 0.5325 4.284 0.0303 0
M  V30 37 H -1.1336 5.7547 0.6908 0
M  V30 38 H -2.5182 3.4405 2.1731 0
M  V30 39 H -3.12 5.1001 2.072 0
M  V30 40 H -1.375 4.9856 5.2197 0
M  V30 41 H -2.3272 3.6379 4.5604 0
M  V30 42 H -2.9457 5.3199 4.4587 0
M  V30 END ATOM
M  V30 BEGIN BOND
M  V30 1 1 1 2
M  V30 2 1 2 3
M  V30 3 1 2 4
M  V30 4 1 2 5
M  V30 5 1 5 6
M  V30 6 1 5 7
M  V30 7 1 7 8
M  V30 8 1 8 9
M  V30 9 1 9 10
M  V30 10 2 10 11
M  V30 11 1 10 12
M  V30 12 1 11 13
M  V30 13 2 12 14
M  V30 14 2 13 15
M  V30 15 1 15 16
M  V30 16 1 16 17
M  V30 17 1 16 18
M  V30 18 2 17 19
M  V30 19 1 17 20
M  V30 20 1 18 21
M  V30 21 1 21 22
M  V30 22 1 22 23
M  V30 23 1 23 24
M  V30 24 1 14 15
M  V30 25 1 20 21
M  V30 26 1 5 25
M  V30 27 1 6 26
M  V30 28 1 7 27
M  V30 29 1 7 28
M  V30 30 1 8 29
M  V30 31 1 8 30
M  V30 32 1 11 31
M  V30 33 1 12 32
M  V30 34 1 13 33
M  V30 35 1 14 34
M  V30 36 1 18 35
M  V30 37 1 18 36
M  V30 38 1 21 37
M  V30 39 1 22 38
M  V30 40 1 22 39
M  V30 41 1 24 40
M  V30 42 1 24 41
M  V30 43 1 24 42
M  V30 END BOND
M  V30 BEGIN COLLECTION
M  V30 MDLV30/STEABS ATOMS=(2 5 21)
M  V30 END COLLECTION
M  V30 END CTAB
M  END
>  <Column 1>
1822

>  <level_0>
1984

>  <index>
1984

>  <Unnamed: 0>
1984

>  <NO.>
1996

>  <Name>
befloxatone

>  <IUPAC_name>
(5r)-5-(methoxymethyl)-3-[4-[(3r)-4-4-4-trifluoro-3-hydroxybutoxy]phenyl]-1-3-oxazolidin-2-one

>  <SMILES>
COC[C@H]1CN(c2ccc(OCC[C@@H](O)C(F)(F)F)cc2)C(=O)O1

>  <CID>
60824

>  <logBB>


>  <BBB+/BBB->
BBB+

>  <Inchi>
InChI=1S/C15H18F3NO5/c1-22-9-12-8-19(14(21)24-12)10-2-4-11(5-3-10)23-7-6-13(20)15(16-17)18/h2-5-12-13-20H-6-9H2-1H3/t12--13-/m1/s1

>  <threshold>
-1

>  <reference>
R1|R6|R27|R30|

>  <group>
B

>  <Class>
1

>  <ABC>
18.23

>  <ABCGG>
14.82

>  <nAcid>
0

>  <nBase>
0

>  <nAromAtom>
6

>  <nAromBond>
6

>  <nAtom>
42

>  <nHeavyAtom>
24

>  <nSpiro>
0

>  <nBridgehead>
0

>  <nHetero>
9

>  <nN>
1

>  <nO>
5

>  <nF>
3

>  <BalabanJ>
1.66

>  <BertzCT>
549.04

>  <nBonds>
43

>  <nBondsO>
25

>  <nBondsS>
36

>  <nBondsD>
1

>  <nBondsT>
0

>  <nBondsA>
6

>  <nBondsM>
7

>  <nBondsKS>
39

>  <nBondsKD>
4

>  <RNCG>
0.18

>  <RPCG>
0.15

>  <FCSP3>
0.53

>  <SZ>
30.33

>  <Sm>
29.08

>  <Sv>
26.15

>  <Sse>
44.18

>  <Sp>
26.25

>  <Si>
48.72

>  <MZ>
0.72

>  <Mm>
0.69

>  <Mv>
0.62

>  <Mse>
1.05

>  <Mp>
0.62

>  <Mi>
1.16

>  <NsCH3>
1

>  <NdCH2>
0

>  <NssCH2>
4

>  <NtCH>
0

>  <NdsCH>
0

>  <NaaCH>
4

>  <NsssCH>
2

>  <NddC>
0

>  <NtsC>
0

>  <NdssC>
1

>  <NaasC>
2

>  <NaaaC>
0

>  <NssssC>
1

>  <NsNH3>
0

>  <NsNH2>
0

>  <NssNH2>
0

>  <NdNH>
0

>  <NssNH>
0

>  <NaaNH>
0

>  <NtN>
0

>  <NsssNH>
0

>  <NdsN>
0

>  <NaaN>
0

>  <NsssN>
1

>  <NddsN>
0

>  <NaasN>
0

>  <NssssN>
0

>  <NsOH>
1

>  <NdO>
1

>  <NssO>
3

>  <NaaO>
0

>  <NsF>
3

>  <NsSiH3>
0

>  <NssSiH2>
0

>  <NsssSiH>
0

>  <NssssSi>
0

>  <NsPH2>
0

>  <NssPH>
0

>  <NsssP>
0

>  <NdsssP>
0

>  <NsssssP>
0

>  <NsSH>
0

>  <NdS>
0

>  <NssS>
0

>  <NaaS>
0

>  <NdssS>
0

>  <NddssS>
0

>  <NsCl>
0

>  <NsBr>
0

>  <NsI>
0

>  <fragCpx>
73.09

>  <fMF>
0.26

>  <nHBAcc>
5

>  <nHBDon>
1

>  <Kier1>
20.31

>  <Kier2>
9.09

>  <Lipinski>
1

>  <GhoseFilter>
1

>  <FilterItLogS>
-2.76

>  <VMcGowan>
227.9

>  <LabuteASA>
136.26

>  <PEOE_VSA1>
19.32

>  <PEOE_VSA2>
4.9

>  <PEOE_VSA3>
4.79

>  <PEOE_VSA4>
13.17

>  <PEOE_VSA5>
0

>  <PEOE_VSA6>
0

>  <PEOE_VSA7>
24.27

>  <PEOE_VSA8>
19.22

>  <PEOE_VSA9>
19.76

>  <PEOE_VSA10>
11.85

>  <PEOE_VSA11>
6.1

>  <PEOE_VSA12>
0

>  <PEOE_VSA13>
0

>  <SMR_VSA1>
37.28

>  <SMR_VSA2>
0

>  <SMR_VSA3>
0

>  <SMR_VSA4>
0

>  <SMR_VSA5>
24.81

>  <SMR_VSA6>
31.77

>  <SMR_VSA7>
24.27

>  <SMR_VSA8>
0

>  <SMR_VSA9>
5.75

>  <SlogP_VSA1>
9.64

>  <SlogP_VSA2>
56.45

>  <SlogP_VSA3>
9.47

>  <SlogP_VSA4>
0

>  <SlogP_VSA5>
6.42

>  <SlogP_VSA6>
24.27

>  <SlogP_VSA7>
0

>  <SlogP_VSA8>
0

>  <SlogP_VSA9>
0

>  <SlogP_VSA10>
23.65

>  <SlogP_VSA11>
5.75

>  <EState_VSA1>
24.79

>  <EState_VSA2>
12.71

>  <EState_VSA3>
24.59

>  <EState_VSA4>
0

>  <EState_VSA5>
24.14

>  <EState_VSA6>
12.13

>  <EState_VSA7>
0

>  <EState_VSA8>
0

>  <EState_VSA9>
19.32

>  <EState_VSA10>
17.97

>  <VSA_EState1>
51.7

>  <VSA_EState2>
13.2

>  <VSA_EState3>
8.88

>  <VSA_EState4>
0.58

>  <VSA_EState5>
0.34

>  <VSA_EState6>
6.27

>  <VSA_EState7>
-8.44

>  <VSA_EState8>
0.37

>  <VSA_EState9>
1.51

>  <apol>
43.83

>  <bpol>
29.18

>  <nRing>
2

>  <nHRing>
1

>  <naRing>
1

>  <naHRing>
0

>  <nARing 2>
1

>  <nAHRing 2>
1

>  <nFRing>
0

>  <nFHRing>
0

>  <nFaRing>
0

>  <nFaHRing>
0

>  <nFARing 2>
0

>  <nFAHRing 2>
0

>  <nRot>
7

>  <SLogP>
2.35

>  <SMR>
78.11

>  <TopoPSA(NO)>
68.23

>  <TopoPSA>
68.23

>  <JGI1>
0.26

>  <JGI2>
0.09

>  <JGI3>
0.05

>  <JGI4>
0.04

>  <JGI5>
0.03

>  <Diameter>
15

>  <Radius>
8

>  <TMWC10>
122.66

>  <TSRW10>
72.08

>  <MW>
349.11

>  <AMW>
8.31

>  <WPath>
1622

>  <WPol>
33

>  <Zagreb1>
120

>  <Zagreb2>
136

>  <mZagreb2>
5.31

>  <yes>


>  <nAR-cont>
0.816016

>  <nHA-cont>
0.94700071

>  <MWHBN>
0.321122034

>  <MWHBN-cont>
0.773389217

>  <TPSA-cont>
0.523712232

>  <pka_cont>
0.97

>  <yes.1>


>  <BBB_SCORE>
4.455524999

>  <MMFF94 Energy>
69.634

$$$$
Compound 1513
Actelion Java MolfileCreator 2.0

  0  0  0  0  0  0              0 V3000
M  V30 BEGIN CTAB
M  V30 COUNTS 67 68 0 0 0
M  V30 BEGIN ATOM
M  V30 1 F -5.2916 -2.3667 3.2355 0
M  V30 2 C -4.1271 -2.192 2.5976 0
M  V30 3 C -3.0853 -1.5382 3.2435 0
M  V30 4 C -3.9801 -2.6645 1.2996 0
M  V30 5 C -1.872 -1.3542 2.5781 0
M  V30 6 C -2.7678 -2.4783 0.6327 0
M  V30 7 C -1.6972 -1.8211 1.2625 0
M  V30 8 C -0.4184 -1.604 0.5495 0
M  V30 9 C -0.2194 -0.4107 -0.1916 0
M  V30 10 C 0.62 -2.574 0.6063 0
M  V30 11 C 1.0049 -0.2262 -0.8404 0
M  V30 12 C -1.2813 0.6072 -0.2601 0
M  V30 13 C 1.815 -2.2971 -0.0763 0
M  V30 14 C 0.4207 -3.862 1.379 0
M  V30 15 N 2.0017 -1.141 -0.7594 0
M  V30 16 C 1.3302 1.0225 -1.6455 0
M  V30 17 C -1.3905 1.5817 0.6564 0
M  V30 18 C 3.0214 -3.2247 -0.0643 0
M  V30 19 O -0.4877 -4.7509 0.7274 0
M  V30 20 C 2.2329 1.9519 -0.8326 0
M  V30 21 C 1.9891 0.672 -2.9843 0
M  V30 22 C -2.4966 2.5927 0.6649 0 CFG=1
M  V30 23 C 3.8014 -3.1857 -1.3859 0
M  V30 24 C 3.9442 -2.8688 1.1024 0
M  V30 25 C 0.0962 -5.4795 -0.3414 0
M  V30 26 O -3.183 2.4353 1.9065 0
M  V30 27 C -1.9969 4.0391 0.5872 0
M  V30 28 C -1.3313 4.3876 -0.7482 0 CFG=1
M  V30 29 O -2.2739 4.1914 -1.8048 0
M  V30 30 C -0.8439 5.8347 -0.7503 0
M  V30 31 C 0.0682 6.1014 -1.9116 0
M  V30 32 O -0.1448 6.8759 -2.8295 0
M  V30 33 O 1.23 5.4255 -1.8383 0
M  V30 34 H -3.2223 -1.1781 4.2581 0
M  V30 35 H -4.8043 -3.1786 0.8162 0
M  V30 36 H -1.0593 -0.8383 3.0855 0
M  V30 37 H -2.6516 -2.8587 -0.38 0
M  V30 38 H -1.9886 0.5054 -1.0791 0
M  V30 39 H 1.3522 -4.3833 1.6169 0
M  V30 40 H -0.0044 -3.6248 2.3612 0
M  V30 41 H 0.4114 1.5646 -1.893 0
M  V30 42 H -0.6704 1.6475 1.4699 0
M  V30 43 H 2.6936 -4.2619 0.0463 0
M  V30 44 H 3.1842 1.4708 -0.5785 0
M  V30 45 H 2.4585 2.863 -1.3963 0
M  V30 46 H 1.751 2.249 0.1053 0
M  V30 47 H 2.9642 0.1908 -2.8485 0
M  V30 48 H 1.3568 -0.0093 -3.5643 0
M  V30 49 H 2.1463 1.5759 -3.583 0
M  V30 50 H -3.2238 2.4016 -0.1322 0
M  V30 51 H 4.6083 -3.9266 -1.3765 0
M  V30 52 H 3.1457 -3.4146 -2.2334 0
M  V30 53 H 4.2558 -2.2049 -1.5661 0
M  V30 54 H 3.4187 -2.9411 2.0609 0
M  V30 55 H 4.328 -1.8461 1.0125 0
M  V30 56 H 4.8019 -3.5488 1.14 0
M  V30 57 H -0.6586 -6.162 -0.7412 0
M  V30 58 H 0.9438 -6.0728 0.014 0
M  V30 59 H 0.4109 -4.8095 -1.1462 0
M  V30 60 H -3.462 1.5027 1.9506 0
M  V30 61 H -2.8571 4.7026 0.752 0
M  V30 62 H -1.3051 4.2364 1.4171 0
M  V30 63 H -0.4947 3.7076 -0.9345 0
M  V30 64 H -3.0022 4.8292 -1.6957 0
M  V30 65 H -1.688 6.5306 -0.8241 0
M  V30 66 H -0.2928 6.0786 0.165 0
M  V30 67 H 1.7145 5.7014 -2.6453 0
M  V30 END ATOM
M  V30 BEGIN BOND
M  V30 1 1 1 2
M  V30 2 2 2 3
M  V30 3 1 2 4
M  V30 4 1 3 5
M  V30 5 2 4 6
M  V30 6 2 5 7
M  V30 7 1 7 8
M  V30 8 2 8 9
M  V30 9 1 8 10
M  V30 10 1 9 11
M  V30 11 1 9 12
M  V30 12 2 10 13
M  V30 13 1 10 14
M  V30 14 2 11 15
M  V30 15 1 11 16
M  V30 16 2 12 17
M  V30 17 1 13 18
M  V30 18 1 14 19
M  V30 19 1 16 20
M  V30 20 1 16 21
M  V30 21 1 17 22
M  V30 22 1 18 23
M  V30 23 1 18 24
M  V30 24 1 19 25
M  V30 25 1 22 26
M  V30 26 1 22 27
M  V30 27 1 27 28
M  V30 28 1 28 29
M  V30 29 1 28 30
M  V30 30 1 30 31
M  V30 31 2 31 32
M  V30 32 1 31 33
M  V30 33 1 6 7
M  V30 34 1 13 15
M  V30 35 1 3 34
M  V30 36 1 4 35
M  V30 37 1 5 36
M  V30 38 1 6 37
M  V30 39 1 12 38
M  V30 40 1 14 39
M  V30 41 1 14 40
M  V30 42 1 16 41
M  V30 43 1 17 42
M  V30 44 1 18 43
M  V30 45 1 20 44
M  V30 46 1 20 45
M  V30 47 1 20 46
M  V30 48 1 21 47
M  V30 49 1 21 48
M  V30 50 1 21 49
M  V30 51 1 22 50
M  V30 52 1 23 51
M  V30 53 1 23 52
M  V30 54 1 23 53
M  V30 55 1 24 54
M  V30 56 1 24 55
M  V30 57 1 24 56
M  V30 58 1 25 57
M  V30 59 1 25 58
M  V30 60 1 25 59
M  V30 61 1 26 60
M  V30 62 1 27 61
M  V30 63 1 27 62
M  V30 64 1 28 63
M  V30 65 1 29 64
M  V30 66 1 30 65
M  V30 67 1 30 66
M  V30 68 1 33 67
M  V30 END BOND
M  V30 BEGIN COLLECTION
M  V30 MDLV30/STEABS ATOMS=(2 22 28)
M  V30 END COLLECTION
M  V30 END CTAB
M  END
>  <Column 1>
1824

>  <level_0>
1986

>  <index>
1986

>  <Unnamed: 0>
1986

>  <NO.>
1998

>  <Name>
cerivastatin

>  <IUPAC_name>
(e-3r-5s)-7-[4-(4-fluorophenyl)-5-(methoxymethyl)-2-6-di(propan-2-yl)pyridin-3-yl]-3-5-dihydroxyhept-6-enoic acid

>  <SMILES>
COCc1c(C(C)C)nc(C(C)C)c(/C=C/[C@@H](O)C[C@@H](O)CC(=O)O)c1-c1ccc(F)cc1

>  <CID>
446156

>  <logBB>


>  <BBB+/BBB->
BBB+

>  <Inchi>
InChI=1S/C26H34FNO5/c1-15(2)25-21(11-10-19(29)12-20(30)13-23(31)32)24(17-6-8-18(27)9-7-17)22(14-33-5)26(28-25)16(3)4/h6-11-15-16-19-20-29-30H-12-14H2-1-5H3-(H-31-32)/b11-10+/t19--20-/m1/s1

>  <threshold>
-1

>  <reference>
R1|R6|R27|R30|

>  <group>
B

>  <Class>
1

>  <ABC>
24.74

>  <ABCGG>
21.07

>  <nAcid>
1

>  <nBase>
0

>  <nAromAtom>
12

>  <nAromBond>
12

>  <nAtom>
67

>  <nHeavyAtom>
33

>  <nSpiro>
0

>  <nBridgehead>
0

>  <nHetero>
7

>  <nN>
1

>  <nO>
5

>  <nF>
1

>  <BalabanJ>
2.24

>  <BertzCT>
969.64

>  <nBonds>
68

>  <nBondsO>
34

>  <nBondsS>
54

>  <nBondsD>
2

>  <nBondsT>
0

>  <nBondsA>
12

>  <nBondsM>
14

>  <nBondsKS>
60

>  <nBondsKD>
8

>  <RNCG>
0.17

>  <RPCG>
0.11

>  <FCSP3>
0.46

>  <SZ>
41

>  <Sm>
38.26

>  <Sv>
40.19

>  <Sse>
67.37

>  <Sp>
42.97

>  <Si>
75.94

>  <MZ>
0.61

>  <Mm>
0.57

>  <Mv>
0.6

>  <Mse>
1.01

>  <Mp>
0.64

>  <Mi>
1.13

>  <NsCH3>
5

>  <NdCH2>
0

>  <NssCH2>
3

>  <NtCH>
0

>  <NdsCH>
2

>  <NaaCH>
4

>  <NsssCH>
4

>  <NddC>
0

>  <NtsC>
0

>  <NdssC>
1

>  <NaasC>
7

>  <NaaaC>
0

>  <NssssC>
0

>  <NsNH3>
0

>  <NsNH2>
0

>  <NssNH2>
0

>  <NdNH>
0

>  <NssNH>
0

>  <NaaNH>
0

>  <NtN>
0

>  <NsssNH>
0

>  <NdsN>
0

>  <NaaN>
1

>  <NsssN>
0

>  <NddsN>
0

>  <NaasN>
0

>  <NssssN>
0

>  <NsOH>
3

>  <NdO>
1

>  <NssO>
1

>  <NaaO>
0

>  <NsF>
1

>  <NsSiH3>
0

>  <NssSiH2>
0

>  <NsssSiH>
0

>  <NssssSi>
0

>  <NsPH2>
0

>  <NssPH>
0

>  <NsssP>
0

>  <NdsssP>
0

>  <NsssssP>
0

>  <NsSH>
0

>  <NdS>
0

>  <NssS>
0

>  <NaaS>
0

>  <NdssS>
0

>  <NddssS>
0

>  <NsCl>
0

>  <NsBr>
0

>  <NsI>
0

>  <fragCpx>
100.07

>  <fMF>
0.18

>  <nHBAcc>
5

>  <nHBDon>
3

>  <Kier1>
29.23

>  <Kier2>
13.92

>  <Lipinski>
1

>  <GhoseFilter>
1

>  <FilterItLogS>
-5.48

>  <VMcGowan>
362.17

>  <LabuteASA>
194.32

>  <PEOE_VSA1>
20.06

>  <PEOE_VSA2>
9.78

>  <PEOE_VSA3>
4.39

>  <PEOE_VSA4>
0

>  <PEOE_VSA5>
0

>  <PEOE_VSA6>
51.98

>  <PEOE_VSA7>
35.1

>  <PEOE_VSA8>
30.35

>  <PEOE_VSA9>
30.93

>  <PEOE_VSA10>
5.82

>  <PEOE_VSA11>
0

>  <PEOE_VSA12>
0

>  <PEOE_VSA13>
0

>  <SMR_VSA1>
29.24

>  <SMR_VSA2>
0

>  <SMR_VSA3>
4.98

>  <SMR_VSA4>
0

>  <SMR_VSA5>
71.19

>  <SMR_VSA6>
7.11

>  <SMR_VSA7>
58.67

>  <SMR_VSA8>
0

>  <SMR_VSA9>
11.13

>  <SlogP_VSA1>
0

>  <SlogP_VSA2>
45.59

>  <SlogP_VSA3>
16.14

>  <SlogP_VSA4>
5.82

>  <SlogP_VSA5>
74.89

>  <SlogP_VSA6>
30.34

>  <SlogP_VSA7>
0

>  <SlogP_VSA8>
17.2

>  <SlogP_VSA9>
0

>  <SlogP_VSA10>
4.39

>  <SlogP_VSA11>
0

>  <EState_VSA1>
24.6

>  <EState_VSA2>
24.07

>  <EState_VSA3>
6.61

>  <EState_VSA4>
33.64

>  <EState_VSA5>
18.21

>  <EState_VSA6>
25.32

>  <EState_VSA7>
13.85

>  <EState_VSA8>
13.85

>  <EState_VSA9>
14.83

>  <EState_VSA10>
19.4

>  <VSA_EState1>
19.18

>  <VSA_EState2>
15.75

>  <VSA_EState3>
29.09

>  <VSA_EState4>
5.05

>  <VSA_EState5>
-1.28

>  <VSA_EState6>
6.23

>  <VSA_EState7>
0.54

>  <VSA_EState8>
8.49

>  <VSA_EState9>
1.61

>  <apol>
71.76

>  <bpol>
38.97

>  <nRing>
2

>  <nHRing>
1

>  <naRing>
2

>  <naHRing>
1

>  <nARing 2>
0

>  <nAHRing 2>
0

>  <nFRing>
0

>  <nFHRing>
0

>  <nFaRing>
0

>  <nFaHRing>
0

>  <nFARing 2>
0

>  <nFAHRing 2>
0

>  <nRot>
11

>  <SLogP>
4.88

>  <SMR>
126.44

>  <TopoPSA(NO)>
99.88

>  <TopoPSA>
99.88

>  <JGI1>
0.24

>  <JGI2>
0.08

>  <JGI3>
0.06

>  <JGI4>
0.04

>  <JGI5>
0.03

>  <Diameter>
14

>  <Radius>
7

>  <TMWC10>
144.31

>  <TSRW10>
68.79

>  <MW>
459.24

>  <AMW>
6.85

>  <WPath>
3124

>  <WPol>
52

>  <Zagreb1>
162

>  <Zagreb2>
186

>  <mZagreb2>
7.44

>  <yes>


>  <nAR-cont>
0.336376

>  <nHA-cont>
0.61399562

>  <MWHBN>
0.373310438

>  <MWHBN-cont>
0.580979592

>  <TPSA-cont>
0.302775578

>  <pka_cont>
0.97

>  <yes.1>


>  <BBB_SCORE>
2.912392165

>  <MMFF94 Energy>
44.214

$$$$
Compound 1514
Actelion Java MolfileCreator 2.0

  0  0  0  0  0  0              0 V3000
M  V30 BEGIN CTAB
M  V30 COUNTS 29 30 0 0 0
M  V30 BEGIN ATOM
M  V30 1 O -0.0799 3.4427 -0.6398 0
M  V30 2 N -0.3555 2.0858 -0.4115 0
M  V30 3 C -0.9032 3.8992 -1.7075 0
M  V30 4 C 0.3537 1.5825 0.5541 0
M  V30 5 C 1.3187 2.4218 1.2385 0
M  V30 6 C 0.2576 0.1367 0.9849 0 CFG=2
M  V30 7 N 2.1081 3.0445 1.8224 0
M  V30 8 C 1.1242 -0.7896 0.1015 0
M  V30 9 C -1.1878 -0.3938 1.0008 0
M  V30 10 C 1.1552 -2.1608 0.8021 0
M  V30 11 C 0.4407 -1.0101 -1.2607 0
M  V30 12 N -1.2765 -1.744 0.3927 0
M  V30 13 C -0.2887 -2.6422 1.0311 0
M  V30 14 C -0.9527 -1.6226 -1.0461 0
M  V30 15 H -1.9596 3.7947 -1.4417 0
M  V30 16 H -0.6855 3.336 -2.6199 0
M  V30 17 H -0.6861 4.9558 -1.884 0
M  V30 18 H 0.6465 0.0853 2.0125 0
M  V30 19 H 2.1367 -0.3949 -0.0334 0
M  V30 20 H -1.5374 -0.4531 2.0399 0
M  V30 21 H -1.8971 0.2784 0.5036 0
M  V30 22 H 1.6816 -2.0878 1.761 0
M  V30 23 H 1.701 -2.886 0.1869 0
M  V30 24 H 0.3602 -0.0681 -1.8129 0
M  V30 25 H 1.0477 -1.6848 -1.8766 0
M  V30 26 H -0.4075 -3.6609 0.642 0
M  V30 27 H -0.4953 -2.7112 2.1065 0
M  V30 28 H -1.0081 -2.6093 -1.5228 0
M  V30 29 H -1.7119 -1.0102 -1.5484 0
M  V30 END ATOM
M  V30 BEGIN BOND
M  V30 1 1 1 2
M  V30 2 1 1 3
M  V30 3 2 2 4
M  V30 4 1 4 5
M  V30 5 1 4 6
M  V30 6 3 5 7
M  V30 7 1 6 8
M  V30 8 1 6 9
M  V30 9 1 8 10
M  V30 10 1 8 11
M  V30 11 1 9 12
M  V30 12 1 10 13
M  V30 13 1 11 14
M  V30 14 1 12 13
M  V30 15 1 12 14
M  V30 16 1 3 15
M  V30 17 1 3 16
M  V30 18 1 3 17
M  V30 19 1 6 18
M  V30 20 1 8 19
M  V30 21 1 9 20
M  V30 22 1 9 21
M  V30 23 1 10 22
M  V30 24 1 10 23
M  V30 25 1 11 24
M  V30 26 1 11 25
M  V30 27 1 13 26
M  V30 28 1 13 27
M  V30 29 1 14 28
M  V30 30 1 14 29
M  V30 END BOND
M  V30 BEGIN COLLECTION
M  V30 MDLV30/STERAC1 ATOMS=(1 6)
M  V30 END COLLECTION
M  V30 END CTAB
M  END
>  <Column 1>
1825

>  <level_0>
1987

>  <index>
1987

>  <Unnamed: 0>
1987

>  <NO.>
1999

>  <Name>
sabcomeline

>  <IUPAC_name>
n-methoxy-1-azabicyclo[2.2.2]octane-3-carboximidoyl cyanide

>  <SMILES>
CON=C(C#N)C1CN2CCC1CC2

>  <CID>
53930639

>  <logBB>


>  <BBB+/BBB->
BBB+

>  <Inchi>
InChI=1S/C10H15N3O/c1-14-12-10(6-11)9-7-13-4-2-8(9)3-5-13/h8-9H-2-5-7H2-1H3

>  <threshold>
-1

>  <reference>
R1|R19|R27|R27|R30|

>  <group>
B

>  <Class>
1

>  <ABC>
10.53

>  <ABCGG>
9.53

>  <nAcid>
0

>  <nBase>
1

>  <nAromAtom>
0

>  <nAromBond>
0

>  <nAtom>
29

>  <nHeavyAtom>
14

>  <nSpiro>
0

>  <nBridgehead>
2

>  <nHetero>
4

>  <nN>
3

>  <nO>
1

>  <nF>
0

>  <BalabanJ>
1.95

>  <BertzCT>
273.58

>  <nBonds>
30

>  <nBondsO>
15

>  <nBondsS>
28

>  <nBondsD>
1

>  <nBondsT>
1

>  <nBondsA>
0

>  <nBondsM>
2

>  <nBondsKS>
28

>  <nBondsKD>
1

>  <RNCG>
0.37

>  <RPCG>
0.15

>  <FCSP3>
0.8

>  <SZ>
17.33

>  <Sm>
16.09

>  <Sv>
17.05

>  <Sse>
28.98

>  <Sp>
18.45

>  <Si>
33.2

>  <MZ>
0.6

>  <Mm>
0.55

>  <Mv>
0.59

>  <Mse>
1

>  <Mp>
0.64

>  <Mi>
1.14

>  <NsCH3>
1

>  <NdCH2>
0

>  <NssCH2>
5

>  <NtCH>
0

>  <NdsCH>
0

>  <NaaCH>
0

>  <NsssCH>
2

>  <NddC>
0

>  <NtsC>
1

>  <NdssC>
1

>  <NaasC>
0

>  <NaaaC>
0

>  <NssssC>
0

>  <NsNH3>
0

>  <NsNH2>
0

>  <NssNH2>
0

>  <NdNH>
0

>  <NssNH>
0

>  <NaaNH>
0

>  <NtN>
1

>  <NsssNH>
0

>  <NdsN>
1

>  <NaaN>
0

>  <NsssN>
1

>  <NddsN>
0

>  <NaasN>
0

>  <NssssN>
0

>  <NsOH>
0

>  <NdO>
0

>  <NssO>
1

>  <NaaO>
0

>  <NsF>
0

>  <NsSiH3>
0

>  <NssSiH2>
0

>  <NsssSiH>
0

>  <NssssSi>
0

>  <NsPH2>
0

>  <NssPH>
0

>  <NsssP>
0

>  <NdsssP>
0

>  <NsssssP>
0

>  <NsSH>
0

>  <NdS>
0

>  <NssS>
0

>  <NaaS>
0

>  <NdssS>
0

>  <NddssS>
0

>  <NsCl>
0

>  <NsBr>
0

>  <NsI>
0

>  <fragCpx>
43.04

>  <fMF>
0.28

>  <nHBAcc>
4

>  <nHBDon>
0

>  <Kier1>
10.52

>  <Kier2>
4.68

>  <Lipinski>
1

>  <GhoseFilter>
1

>  <FilterItLogS>
-1

>  <VMcGowan>
152.95

>  <LabuteASA>
84.13

>  <PEOE_VSA1>
9.74

>  <PEOE_VSA2>
0

>  <PEOE_VSA3>
0

>  <PEOE_VSA4>
5.26

>  <PEOE_VSA5>
0

>  <PEOE_VSA6>
5.16

>  <PEOE_VSA7>
31.85

>  <PEOE_VSA8>
12.46

>  <PEOE_VSA9>
0

>  <PEOE_VSA10>
13.18

>  <PEOE_VSA11>
5.71

>  <PEOE_VSA12>
0

>  <PEOE_VSA13>
0

>  <SMR_VSA1>
4.84

>  <SMR_VSA2>
5.26

>  <SMR_VSA3>
4.9

>  <SMR_VSA4>
16.99

>  <SMR_VSA5>
12.84

>  <SMR_VSA6>
26.74

>  <SMR_VSA7>
0

>  <SMR_VSA8>
0

>  <SMR_VSA9>
6.07

>  <SlogP_VSA1>
0

>  <SlogP_VSA2>
37.36

>  <SlogP_VSA3>
4.84

>  <SlogP_VSA4>
23.17

>  <SlogP_VSA5>
12.84

>  <SlogP_VSA6>
5.16

>  <SlogP_VSA7>
0

>  <SlogP_VSA8>
0

>  <SlogP_VSA9>
0

>  <SlogP_VSA10>
0

>  <SlogP_VSA11>
0

>  <EState_VSA1>
0

>  <EState_VSA2>
0

>  <EState_VSA3>
17.55

>  <EState_VSA4>
6.54

>  <EState_VSA5>
33.04

>  <EState_VSA6>
0

>  <EState_VSA7>
0

>  <EState_VSA8>
16.12

>  <EState_VSA9>
10.1

>  <EState_VSA10>
0

>  <VSA_EState1>
0

>  <VSA_EState2>
7.11

>  <VSA_EState3>
12.77

>  <VSA_EState4>
0.57

>  <VSA_EState5>
0.95

>  <VSA_EState6>
2.16

>  <VSA_EState7>
2.41

>  <VSA_EState8>
3.36

>  <VSA_EState9>
1.5

>  <apol>
30.8

>  <bpol>
19.06

>  <nRing>
3

>  <nHRing>
3

>  <naRing>
0

>  <naHRing>
0

>  <nARing 2>
3

>  <nAHRing 2>
3

>  <nFRing>
1

>  <nFHRing>
1

>  <nFaRing>
0

>  <nFaHRing>
0

>  <nFARing 2>
1

>  <nFAHRing 2>
1

>  <nRot>
2

>  <SLogP>
0.85

>  <SMR>
52.71

>  <TopoPSA(NO)>
48.62

>  <TopoPSA>
48.62

>  <JGI1>
0.17

>  <JGI2>
0.08

>  <JGI3>
0.04

>  <JGI4>
0.03

>  <JGI5>
0.03

>  <Diameter>
7

>  <Radius>
4

>  <TMWC10>
98.56

>  <TSRW10>
45.89

>  <MW>
193.12

>  <AMW>
6.66

>  <WPath>
293

>  <WPol>
19

>  <Zagreb1>
70

>  <Zagreb2>
82

>  <mZagreb2>
3.31

>  <yes>


>  <nAR-cont>
0.691115

>  <nHA-cont>
0.887625254

>  <MWHBN>
0.287836831

>  <MWHBN-cont>
0.875490382

>  <TPSA-cont>
0.660602209

>  <pka_cont>
0.97

>  <yes.1>


>  <BBB_SCORE>
4.698180245

>  <MMFF94 Energy>
62.802

$$$$
Compound 1515
Actelion Java MolfileCreator 2.0

  0  0  0  0  0  0              0 V3000
M  V30 BEGIN CTAB
M  V30 COUNTS 48 51 0 0 0
M  V30 BEGIN ATOM
M  V30 1 O -0.0801 2.1662 -0.2405 0
M  V30 2 C -0.5543 0.892 0.2814 0 CFG=1
M  V30 3 C 1.2363 2.4849 0.2183 0 CFG=2
M  V30 4 C 0.5994 0.2096 1.0299 0 CFG=1
M  V30 5 C -1.576 1.1952 1.4191 0 CFG=1
M  V30 6 C -1.1487 0.1335 -0.9328 0
M  V30 7 O 2.1568 1.53 -0.294 0
M  V30 8 C 1.257 2.5235 1.752 0 CFG=1
M  V30 9 C 1.8578 0.2177 0.1708 0 CFG=1
M  V30 10 C 0.7266 1.1582 2.2453 0 CFG=1
M  V30 11 O -2.5766 0.2032 1.6281 0
M  V30 12 C -0.7331 1.2692 2.7036 0
M  V30 13 N -1.7453 -1.1868 -0.633 0
M  V30 14 C 2.6483 2.8285 2.3044 0
M  V30 15 O 2.9275 -0.3194 0.948 0
M  V30 16 C -0.8219 -2.3163 -0.8528 0
M  V30 17 C -2.9866 -1.4088 -1.4064 0
M  V30 18 C 4.1108 -0.4912 0.1805 0
M  V30 19 C -0.5243 -2.6296 -2.3229 0
M  V30 20 C -2.7563 -1.6434 -2.9002 0
M  V30 21 C -1.8053 -2.8115 -3.1272 0
M  V30 22 H 1.5055 3.463 -0.1922 0
M  V30 23 H 0.3526 -0.7959 1.3875 0
M  V30 24 H -2.0834 2.1504 1.2449 0
M  V30 25 H -0.4065 0.0751 -1.7375 0
M  V30 26 H -1.9216 0.8009 -1.342 0
M  V30 27 H 0.5879 3.3251 2.0899 0
M  V30 28 H 1.7136 -0.4198 -0.7083 0
M  V30 29 H 1.3515 0.7411 3.042 0
M  V30 30 H -2.4113 -0.5303 0.9983 0
M  V30 31 H -0.9731 0.4341 3.374 0
M  V30 32 H -0.9277 2.1901 3.2634 0
M  V30 33 H 2.6184 2.8953 3.3972 0
M  V30 34 H 3.0113 3.7879 1.9211 0
M  V30 35 H 3.381 2.062 2.0381 0
M  V30 36 H -1.2651 -3.2072 -0.3883 0
M  V30 37 H 0.1212 -2.1619 -0.3231 0
M  V30 38 H -3.6772 -0.5685 -1.2625 0
M  V30 39 H -3.5033 -2.28 -0.9823 0
M  V30 40 H 4.8714 -0.9433 0.8228 0
M  V30 41 H 4.4888 0.4722 -0.1735 0
M  V30 42 H 3.9289 -1.161 -0.6653 0
M  V30 43 H 0.0782 -3.543 -2.3861 0
M  V30 44 H 0.0774 -1.8291 -2.768 0
M  V30 45 H -2.3491 -0.7386 -3.3671 0
M  V30 46 H -3.7139 -1.8501 -3.3914 0
M  V30 47 H -1.5707 -2.9054 -4.1931 0
M  V30 48 H -2.2959 -3.7445 -2.8235 0
M  V30 END ATOM
M  V30 BEGIN BOND
M  V30 1 1 1 2
M  V30 2 1 1 3
M  V30 3 1 2 4
M  V30 4 1 2 5
M  V30 5 1 2 6
M  V30 6 1 3 7
M  V30 7 1 3 8
M  V30 8 1 4 9
M  V30 9 1 4 10
M  V30 10 1 5 11
M  V30 11 1 5 12
M  V30 12 1 6 13
M  V30 13 1 8 14
M  V30 14 1 9 15
M  V30 15 1 13 16
M  V30 16 1 13 17
M  V30 17 1 15 18
M  V30 18 1 16 19
M  V30 19 1 17 20
M  V30 20 1 19 21
M  V30 21 1 7 9
M  V30 22 1 8 10
M  V30 23 1 10 12
M  V30 24 1 20 21
M  V30 25 1 3 22
M  V30 26 1 4 23
M  V30 27 1 5 24
M  V30 28 1 6 25
M  V30 29 1 6 26
M  V30 30 1 8 27
M  V30 31 1 9 28
M  V30 32 1 10 29
M  V30 33 1 11 30
M  V30 34 1 12 31
M  V30 35 1 12 32
M  V30 36 1 14 33
M  V30 37 1 14 34
M  V30 38 1 14 35
M  V30 39 1 16 36
M  V30 40 1 16 37
M  V30 41 1 17 38
M  V30 42 1 17 39
M  V30 43 1 18 40
M  V30 44 1 18 41
M  V30 45 1 18 42
M  V30 46 1 19 43
M  V30 47 1 19 44
M  V30 48 1 20 45
M  V30 49 1 20 46
M  V30 50 1 21 47
M  V30 51 1 21 48
M  V30 END BOND
M  V30 BEGIN COLLECTION
M  V30 MDLV30/STEABS ATOMS=(7 2 3 4 5 8 9 10)
M  V30 END COLLECTION
M  V30 END CTAB
M  END
>  <Column 1>
1826

>  <level_0>
1988

>  <index>
1988

>  <Unnamed: 0>
1988

>  <NO.>
2000

>  <Name>
valperinol

>  <IUPAC_name>
(1r-3r-4s-6r-7s-8r-10r)-8-methoxy-10-methyl-3-(piperidin-1-ylmethyl)-2-9-dioxatricyclo[4.3.1.03-7]decan-4-ol

>  <SMILES>
CO[C@@H]1O[C@H]2O[C@]3(CN4CCCCC4)[C@@H](O)C[C@@H]([C@H]13)[C@H]2C

>  <CID>
68849

>  <logBB>


>  <BBB+/BBB->
BBB+

>  <Inchi>
InChI=1S/C16H27NO4/c1-10-11-8-12(18)16(9-17-6-4-3-5-7-17)13(11)15(19-2)20-14(10)21-16/h10-15-18H-3-9H2-1-2H3/t10--11--12+-13--14+-15--16-/m1/s1

>  <threshold>
-1

>  <reference>
R1|R27|R30|

>  <group>
B

>  <Class>
-1

>  <ABC>
16.9

>  <ABCGG>
14.13

>  <nAcid>
0

>  <nBase>
1

>  <nAromAtom>
0

>  <nAromBond>
0

>  <nAtom>
48

>  <nHeavyAtom>
21

>  <nSpiro>
0

>  <nBridgehead>
4

>  <nHetero>
5

>  <nN>
1

>  <nO>
4

>  <nF>
0

>  <BalabanJ>
1.62

>  <BertzCT>
399.74

>  <nBonds>
51

>  <nBondsO>
24

>  <nBondsS>
51

>  <nBondsD>
0

>  <nBondsT>
0

>  <nBondsA>
0

>  <nBondsM>
0

>  <nBondsKS>
51

>  <nBondsKD>
0

>  <RNCG>
0.2

>  <RPCG>
0.11

>  <FCSP3>
1

>  <SZ>
27

>  <Sm>
24.76

>  <Sv>
26.93

>  <Sse>
47.97

>  <Sp>
29.36

>  <Si>
54.73

>  <MZ>
0.56

>  <Mm>
0.52

>  <Mv>
0.56

>  <Mse>
1

>  <Mp>
0.61

>  <Mi>
1.14

>  <NsCH3>
2

>  <NdCH2>
0

>  <NssCH2>
7

>  <NtCH>
0

>  <NdsCH>
0

>  <NaaCH>
0

>  <NsssCH>
6

>  <NddC>
0

>  <NtsC>
0

>  <NdssC>
0

>  <NaasC>
0

>  <NaaaC>
0

>  <NssssC>
1

>  <NsNH3>
0

>  <NsNH2>
0

>  <NssNH2>
0

>  <NdNH>
0

>  <NssNH>
0

>  <NaaNH>
0

>  <NtN>
0

>  <NsssNH>
0

>  <NdsN>
0

>  <NaaN>
0

>  <NsssN>
1

>  <NddsN>
0

>  <NaasN>
0

>  <NssssN>
0

>  <NsOH>
1

>  <NdO>
0

>  <NssO>
3

>  <NaaO>
0

>  <NsF>
0

>  <NsSiH3>
0

>  <NssSiH2>
0

>  <NsssSiH>
0

>  <NssssSi>
0

>  <NsPH2>
0

>  <NssPH>
0

>  <NsssP>
0

>  <NdsssP>
0

>  <NsssssP>
0

>  <NsSH>
0

>  <NdS>
0

>  <NssS>
0

>  <NaaS>
0

>  <NdssS>
0

>  <NddssS>
0

>  <NsCl>
0

>  <NsBr>
0

>  <NsI>
0

>  <fragCpx>
156.05

>  <fMF>
0.35

>  <nHBAcc>
5

>  <nHBDon>
1

>  <Kier1>
14.58

>  <Kier2>
5.27

>  <Lipinski>
1

>  <GhoseFilter>
1

>  <FilterItLogS>
-1.24

>  <VMcGowan>
226.32

>  <LabuteASA>
126.08

>  <PEOE_VSA1>
24.22

>  <PEOE_VSA2>
0

>  <PEOE_VSA3>
0

>  <PEOE_VSA4>
0

>  <PEOE_VSA5>
0

>  <PEOE_VSA6>
13.34

>  <PEOE_VSA7>
38.27

>  <PEOE_VSA8>
25.49

>  <PEOE_VSA9>
6.1

>  <PEOE_VSA10>
5.6

>  <PEOE_VSA11>
12.58

>  <PEOE_VSA12>
0

>  <PEOE_VSA13>
0

>  <SMR_VSA1>
19.32

>  <SMR_VSA2>
0

>  <SMR_VSA3>
4.9

>  <SMR_VSA4>
17.75

>  <SMR_VSA5>
56.89

>  <SMR_VSA6>
26.74

>  <SMR_VSA7>
0

>  <SMR_VSA8>
0

>  <SMR_VSA9>
0

>  <SlogP_VSA1>
0

>  <SlogP_VSA2>
61.04

>  <SlogP_VSA3>
14.21

>  <SlogP_VSA4>
17.75

>  <SlogP_VSA5>
32.61

>  <SlogP_VSA6>
0

>  <SlogP_VSA7>
0

>  <SlogP_VSA8>
0

>  <SlogP_VSA9>
0

>  <SlogP_VSA10>
0

>  <SlogP_VSA11>
0

>  <EState_VSA1>
11.71

>  <EState_VSA2>
18.5

>  <EState_VSA3>
11.84

>  <EState_VSA4>
26.06

>  <EState_VSA5>
19.26

>  <EState_VSA6>
7.11

>  <EState_VSA7>
0

>  <EState_VSA8>
11.82

>  <EState_VSA9>
14.21

>  <EState_VSA10>
5.11

>  <VSA_EState1>
17.83

>  <VSA_EState2>
2.47

>  <VSA_EState3>
10.77

>  <VSA_EState4>
-0.49

>  <VSA_EState5>
0.94

>  <VSA_EState6>
0

>  <VSA_EState7>
3.79

>  <VSA_EState8>
5.24

>  <VSA_EState9>
1.7

>  <apol>
49.03

>  <bpol>
34

>  <nRing>
5

>  <nHRing>
4

>  <naRing>
0

>  <naHRing>
0

>  <nARing 2>
5

>  <nAHRing 2>
4

>  <nFRing>
1

>  <nFHRing>
1

>  <nFaRing>
0

>  <nFaHRing>
0

>  <nFARing 2>
1

>  <nFAHRing 2>
1

>  <nRot>
3

>  <SLogP>
1.2

>  <SMR>
76.54

>  <TopoPSA(NO)>
51.16

>  <TopoPSA>
51.16

>  <JGI1>
0.21

>  <JGI2>
0.08

>  <JGI3>
0.06

>  <JGI4>
0.06

>  <JGI5>
0.03

>  <Diameter>
9

>  <Radius>
5

>  <TMWC10>
122.61

>  <TSRW10>
71.11

>  <MW>
297.19

>  <AMW>
6.19

>  <WPath>
813

>  <WPol>
40

>  <Zagreb1>
122

>  <Zagreb2>
154

>  <mZagreb2>
4.53

>  <yes>


>  <nAR-cont>
0

>  <nHA-cont>
0.994529749

>  <MWHBN>
0.348044003

>  <MWHBN-cont>
0.677546463

>  <TPSA-cont>
0.642871432

>  <pka_cont>
0.97

>  <yes.1>


>  <BBB_SCORE>
3.781592307

>  <MMFF94 Energy>
38.296

$$$$
Compound 1516
Actelion Java MolfileCreator 2.0

  0  0  0  0  0  0              0 V3000
M  V30 BEGIN CTAB
M  V30 COUNTS 45 49 0 0 0
M  V30 BEGIN ATOM
M  V30 1 O -0.1616 -1.698 -1.7789 0
M  V30 2 C 1.0328 -1.2462 -1.2562 0
M  V30 3 C -1.1604 -1.0339 -0.9305 0 CFG=2
M  V30 4 C 2.2836 -1.8009 -1.3959 0
M  V30 5 C 0.8551 -0.1364 -0.4523 0
M  V30 6 C -0.5555 0.3232 -0.5236 0 CFG=2
M  V30 7 C -1.5929 -1.9611 0.2535 0 CFG=1
M  V30 8 O 2.4654 -2.8885 -2.1935 0
M  V30 9 C 3.3437 -1.236 -0.6731 0
M  V30 10 C 1.8573 0.4229 0.3164 0
M  V30 11 C -1.0026 0.954 0.7921 0 CFG=2
M  V30 12 C -0.6728 1.4029 -1.6251 0
M  V30 13 O -0.5112 -2.704 0.839 0
M  V30 14 C -2.2003 -1.1514 1.4058 0
M  V30 15 C 3.1278 -0.1397 0.1937 0
M  V30 16 C 1.4938 1.5277 1.2754 0
M  V30 17 C 0.0242 2.0722 1.1276 0 CFG=1
M  V30 18 C -1.2345 -0.0686 1.9045 0
M  V30 19 C 0.1304 2.67 -1.2764 0
M  V30 20 C -0.3744 -4.0128 0.2993 0
M  V30 21 N -0.0255 3.156 0.1054 0
M  V30 22 C -1.2054 4.0085 0.2428 0
M  V30 23 H -2.0507 -0.8569 -1.5479 0
M  V30 24 H -2.349 -2.6679 -0.1122 0
M  V30 25 H 3.4012 -3.1398 -2.1613 0
M  V30 26 H 4.3449 -1.6505 -0.7449 0
M  V30 27 H -1.9876 1.4152 0.6346 0
M  V30 28 H -1.7296 1.6705 -1.7554 0
M  V30 29 H -0.3286 1.0261 -2.5968 0
M  V30 30 H -2.4299 -1.8207 2.2439 0
M  V30 31 H -3.1434 -0.6934 1.0844 0
M  V30 32 H 3.9585 0.2548 0.7737 0
M  V30 33 H 2.2101 2.3531 1.1794 0
M  V30 34 H 1.6034 1.1279 2.2919 0
M  V30 35 H -0.2301 2.5197 2.0977 0
M  V30 36 H -1.6744 0.4338 2.7743 0
M  V30 37 H -0.297 -0.5201 2.2459 0
M  V30 38 H -0.1203 3.463 -1.9929 0
M  V30 39 H 1.196 2.4799 -1.4525 0
M  V30 40 H -1.2305 -4.6269 0.5949 0
M  V30 41 H 0.5317 -4.4609 0.7153 0
M  V30 42 H -0.2898 -3.9997 -0.7897 0
M  V30 43 H -1.1132 4.8877 -0.4048 0
M  V30 44 H -1.2926 4.3905 1.2659 0
M  V30 45 H -2.1385 3.499 -0.0161 0
M  V30 END ATOM
M  V30 BEGIN BOND
M  V30 1 1 1 2
M  V30 2 1 1 3
M  V30 3 2 2 4
M  V30 4 1 2 5
M  V30 5 1 3 6
M  V30 6 1 3 7
M  V30 7 1 4 8
M  V30 8 1 4 9
M  V30 9 2 5 10
M  V30 10 1 6 11
M  V30 11 1 6 12
M  V30 12 1 7 13
M  V30 13 1 7 14
M  V30 14 2 9 15
M  V30 15 1 10 16
M  V30 16 1 11 17
M  V30 17 1 11 18
M  V30 18 1 12 19
M  V30 19 1 13 20
M  V30 20 1 17 21
M  V30 21 1 21 22
M  V30 22 1 5 6
M  V30 23 1 10 15
M  V30 24 1 14 18
M  V30 25 1 16 17
M  V30 26 1 19 21
M  V30 27 1 3 23
M  V30 28 1 7 24
M  V30 29 1 8 25
M  V30 30 1 9 26
M  V30 31 1 11 27
M  V30 32 1 12 28
M  V30 33 1 12 29
M  V30 34 1 14 30
M  V30 35 1 14 31
M  V30 36 1 15 32
M  V30 37 1 16 33
M  V30 38 1 16 34
M  V30 39 1 17 35
M  V30 40 1 18 36
M  V30 41 1 18 37
M  V30 42 1 19 38
M  V30 43 1 19 39
M  V30 44 1 20 40
M  V30 45 1 20 41
M  V30 46 1 20 42
M  V30 47 1 22 43
M  V30 48 1 22 44
M  V30 49 1 22 45
M  V30 END BOND
M  V30 BEGIN COLLECTION
M  V30 MDLV30/STEABS ATOMS=(5 3 6 7 11 17)
M  V30 END COLLECTION
M  V30 END CTAB
M  END
>  <Column 1>
1839

>  <level_0>
2002

>  <index>
2002

>  <Unnamed: 0>
2002

>  <NO.>
2014

>  <Name>
dihydroheterocodeine

>  <IUPAC_name>
(4r-4ar-7s-7ar-12bs)-7-methoxy-3-methyl-2-4-4a-5-6-7-7a-13-octahydro-1h-4-12-methanobenzofuro[3-2-e]isoquinolin-9-ol

>  <SMILES>
CO[C@H]1CC[C@H]2[C@H]3Cc4ccc(O)c5c4[C@@]2(CCN3C)[C@H]1O5

>  <CID>
5463907

>  <logBB>


>  <BBB+/BBB->
BBB+

>  <Inchi>
InChI=1S/C18H23NO3/c1-19-8-7-18-11-4-6-14(21-2)17(18)22-16-13(20)5-3-10(15(16)18)9-12(11)19/h3-5-11-12-14-17-20H-4-6-9H2-1-2H3/t11--12+-14--17--18-/m0/s1

>  <threshold>
-1

>  <reference>
R1|R27|R30|

>  <group>
B

>  <Class>
-1

>  <ABC>
18.18

>  <ABCGG>
13.99

>  <nAcid>
0

>  <nBase>
1

>  <nAromAtom>
6

>  <nAromBond>
6

>  <nAtom>
45

>  <nHeavyAtom>
22

>  <nSpiro>
1

>  <nBridgehead>
2

>  <nHetero>
4

>  <nN>
1

>  <nO>
3

>  <nF>
0

>  <BalabanJ>
1.64

>  <BertzCT>
645.46

>  <nBonds>
49

>  <nBondsO>
26

>  <nBondsS>
43

>  <nBondsD>
0

>  <nBondsT>
0

>  <nBondsA>
6

>  <nBondsM>
6

>  <nBondsKS>
46

>  <nBondsKD>
3

>  <RNCG>
0.26

>  <RPCG>
0.15

>  <FCSP3>
0.67

>  <SZ>
27

>  <Sm>
25.09

>  <Sv>
27.13

>  <Sse>
44.87

>  <Sp>
29.28

>  <Si>
50.69

>  <MZ>
0.6

>  <Mm>
0.56

>  <Mv>
0.6

>  <Mse>
1

>  <Mp>
0.65

>  <Mi>
1.13

>  <NsCH3>
2

>  <NdCH2>
0

>  <NssCH2>
5

>  <NtCH>
0

>  <NdsCH>
0

>  <NaaCH>
2

>  <NsssCH>
4

>  <NddC>
0

>  <NtsC>
0

>  <NdssC>
0

>  <NaasC>
4

>  <NaaaC>
0

>  <NssssC>
1

>  <NsNH3>
0

>  <NsNH2>
0

>  <NssNH2>
0

>  <NdNH>
0

>  <NssNH>
0

>  <NaaNH>
0

>  <NtN>
0

>  <NsssNH>
0

>  <NdsN>
0

>  <NaaN>
0

>  <NsssN>
1

>  <NddsN>
0

>  <NaasN>
0

>  <NssssN>
0

>  <NsOH>
1

>  <NdO>
0

>  <NssO>
2

>  <NaaO>
0

>  <NsF>
0

>  <NsSiH3>
0

>  <NssSiH2>
0

>  <NsssSiH>
0

>  <NssssSi>
0

>  <NsPH2>
0

>  <NssPH>
0

>  <NsssP>
0

>  <NdsssP>
0

>  <NsssssP>
0

>  <NsSH>
0

>  <NdS>
0

>  <NssS>
0

>  <NaaS>
0

>  <NdssS>
0

>  <NddssS>
0

>  <NsCl>
0

>  <NsBr>
0

>  <NsI>
0

>  <fragCpx>
214.04

>  <fMF>
0.4

>  <nHBAcc>
4

>  <nHBDon>
1

>  <Kier1>
14.35

>  <Kier2>
4.76

>  <Lipinski>
1

>  <GhoseFilter>
1

>  <FilterItLogS>
-2.93

>  <VMcGowan>
224.87

>  <LabuteASA>
130.57

>  <PEOE_VSA1>
19.48

>  <PEOE_VSA2>
0

>  <PEOE_VSA3>
0

>  <PEOE_VSA4>
0

>  <PEOE_VSA5>
0

>  <PEOE_VSA6>
6.07

>  <PEOE_VSA7>
56.82

>  <PEOE_VSA8>
24.13

>  <PEOE_VSA9>
6.1

>  <PEOE_VSA10>
6.1

>  <PEOE_VSA11>
11.5

>  <PEOE_VSA12>
0

>  <PEOE_VSA13>
0

>  <SMR_VSA1>
14.58

>  <SMR_VSA2>
0

>  <SMR_VSA3>
4.9

>  <SMR_VSA4>
5.92

>  <SMR_VSA5>
49.35

>  <SMR_VSA6>
20.7

>  <SMR_VSA7>
23.26

>  <SMR_VSA8>
0

>  <SMR_VSA9>
11.5

>  <SlogP_VSA1>
4.74

>  <SlogP_VSA2>
48.96

>  <SlogP_VSA3>
16.57

>  <SlogP_VSA4>
5.92

>  <SlogP_VSA5>
30.39

>  <SlogP_VSA6>
12.13

>  <SlogP_VSA7>
0

>  <SlogP_VSA8>
0

>  <SlogP_VSA9>
0

>  <SlogP_VSA10>
0

>  <SlogP_VSA11>
11.5

>  <EState_VSA1>
0

>  <EState_VSA2>
17.62

>  <EState_VSA3>
17.71

>  <EState_VSA4>
31.56

>  <EState_VSA5>
17.55

>  <EState_VSA6>
13.18

>  <EState_VSA7>
0

>  <EState_VSA8>
18.01

>  <EState_VSA9>
9.47

>  <EState_VSA10>
5.11

>  <VSA_EState1>
12.14

>  <VSA_EState2>
2.54

>  <VSA_EState3>
10.34

>  <VSA_EState4>
2.74

>  <VSA_EState5>
1.67

>  <VSA_EState6>
4.51

>  <VSA_EState7>
4.65

>  <VSA_EState8>
1.1

>  <VSA_EState9>
4.06

>  <apol>
48.9

>  <bpol>
28.26

>  <nRing>
5

>  <nHRing>
2

>  <naRing>
1

>  <naHRing>
0

>  <nARing 2>
4

>  <nAHRing 2>
2

>  <nFRing>
1

>  <nFHRing>
1

>  <nFaRing>
0

>  <nFaHRing>
0

>  <nFARing 2>
1

>  <nFAHRing 2>
1

>  <nRot>
1

>  <SLogP>
2.08

>  <SMR>
82.46

>  <TopoPSA(NO)>
41.93

>  <TopoPSA>
41.93

>  <JGI1>
0.19

>  <JGI2>
0.1

>  <JGI3>
0.05

>  <JGI4>
0.05

>  <JGI5>
0.03

>  <Diameter>
8

>  <Radius>
4

>  <TMWC10>
127.62

>  <TSRW10>
72.65

>  <MW>
301.17

>  <AMW>
6.69

>  <WPath>
820

>  <WPol>
51

>  <Zagreb1>
136

>  <Zagreb2>
178

>  <mZagreb2>
4.63

>  <yes>


>  <nAR-cont>
0.199399

>  <nHA-cont>
0.983774276

>  <MWHBN>
0.288113859

>  <MWHBN-cont>
0.874735692

>  <TPSA-cont>
0.707302563

>  <pka_cont>
0.97

>  <yes.1>


>  <BBB_SCORE>
4.39488194

>  <MMFF94 Energy>
101.1

$$$$
Compound 1517
Actelion Java MolfileCreator 2.0

  0  0  0  0  0  0              0 V3000
M  V30 BEGIN CTAB
M  V30 COUNTS 66 72 0 0 0
M  V30 BEGIN ATOM
M  V30 1 O 0.4853 -0.3235 -3.1582 0
M  V30 2 C 0.448 -1.6118 -2.6933 0
M  V30 3 C 0.4807 0.5447 -1.9797 0 CFG=1
M  V30 4 C 0.3046 -2.7584 -3.4441 0
M  V30 5 C 0.4206 -1.6822 -1.3214 0
M  V30 6 C -0.7894 1.465 -1.8294 0 CFG=2
M  V30 7 C 0.5849 -0.3381 -0.7206 0 CFG=2
M  V30 8 O 0.3458 -2.6901 -4.8031 0
M  V30 9 C 0.078 -3.9709 -2.7804 0
M  V30 10 C 0.0549 -2.8292 -0.6337 0
M  V30 11 O -0.9413 2.432 -2.8795 0
M  V30 12 C -0.5567 2.2803 -0.481 0 CFG=1
M  V30 13 C -2.0418 0.5692 -1.6964 0
M  V30 14 C -0.587 -0.1477 0.2676 0 CFG=1
M  V30 15 C 1.9593 -0.1964 -0.0385 0
M  V30 16 C -0.0754 -4.0022 -1.3784 0
M  V30 17 C -0.3753 -2.6979 0.8131 0
M  V30 18 C -0.9396 1.9443 -4.2141 0
M  V30 19 C -1.3544 3.6095 -0.2771 0
M  V30 20 C -0.5949 1.3259 0.747 0
M  V30 21 C -1.9722 -0.3064 -0.4386 0
M  V30 22 C -0.3605 -1.2192 1.3877 0 CFG=1
M  V30 23 C 2.0837 -1.0122 1.2533 0
M  V30 24 O -0.9934 4.5304 -1.317 0
M  V30 25 C -0.9477 4.3024 1.0329 0
M  V30 26 C -2.8752 3.4645 -0.317 0
M  V30 27 N 0.8951 -0.8788 2.1077 0
M  V30 28 C 1.0334 -1.6153 3.3697 0
M  V30 29 C 1.9758 -0.8926 4.2884 0
M  V30 30 C 2.4297 -1.5586 5.5643 0
M  V30 31 C 3.4101 -1.3346 4.4488 0
M  V30 32 H 1.3611 1.1889 -2.1035 0
M  V30 33 H 0.2407 -3.5837 -5.1648 0
M  V30 34 H -0.0461 -4.8938 -3.3395 0
M  V30 35 H 0.4858 2.631 -0.5597 0
M  V30 36 H -2.1397 -0.0819 -2.573 0
M  V30 37 H -2.9653 1.1533 -1.6997 0
M  V30 38 H 2.766 -0.4938 -0.7216 0
M  V30 39 H 2.1415 0.8591 0.2011 0
M  V30 40 H -0.35 -4.9351 -0.8917 0
M  V30 41 H 0.2147 -3.381 1.4322 0
M  V30 42 H -1.4141 -3.0502 0.8734 0
M  V30 43 H -1.2849 2.7545 -4.8631 0
M  V30 44 H -1.6156 1.0972 -4.347 0
M  V30 45 H 0.076 1.6897 -4.5258 0
M  V30 46 H 0.2567 1.5563 1.3969 0
M  V30 47 H -1.486 1.4999 1.3616 0
M  V30 48 H -2.2042 -1.3404 -0.7121 0
M  V30 49 H -2.7757 -0.0171 0.2518 0
M  V30 50 H -1.1893 -1.1293 2.103 0
M  V30 51 H 2.2863 -2.063 1.0141 0
M  V30 52 H 2.9721 -0.6431 1.778 0
M  V30 53 H -1.0394 4.027 -2.1582 0
M  V30 54 H 0.1393 4.4333 1.0824 0
M  V30 55 H -1.2715 3.7458 1.9173 0
M  V30 56 H -1.3779 5.3095 1.0912 0
M  V30 57 H -3.2374 2.6962 0.3714 0
M  V30 58 H -3.229 3.2436 -1.3282 0
M  V30 59 H -3.3597 4.411 -0.0474 0
M  V30 60 H 1.3525 -2.6518 3.2086 0
M  V30 61 H 0.0662 -1.6543 3.8861 0
M  V30 62 H 1.7544 0.1681 4.3476 0
M  V30 63 H 2.1129 -2.5758 5.7636 0
M  V30 64 H 2.521 -0.9418 6.4515 0
M  V30 65 H 3.7536 -2.1991 3.8929 0
M  V30 66 H 4.1614 -0.5636 4.5766 0
M  V30 END ATOM
M  V30 BEGIN BOND
M  V30 1 1 1 2
M  V30 2 1 1 3
M  V30 3 2 2 4
M  V30 4 1 2 5
M  V30 5 1 3 6
M  V30 6 1 3 7
M  V30 7 1 4 8
M  V30 8 1 4 9
M  V30 9 2 5 10
M  V30 10 1 6 11
M  V30 11 1 6 12
M  V30 12 1 6 13
M  V30 13 1 7 14
M  V30 14 1 7 15
M  V30 15 2 9 16
M  V30 16 1 10 17
M  V30 17 1 11 18
M  V30 18 1 12 19
M  V30 19 1 12 20
M  V30 20 1 13 21
M  V30 21 1 14 22
M  V30 22 1 15 23
M  V30 23 1 19 24
M  V30 24 1 19 25
M  V30 25 1 19 26
M  V30 26 1 22 27
M  V30 27 1 27 28
M  V30 28 1 28 29
M  V30 29 1 29 30
M  V30 30 1 29 31
M  V30 31 1 5 7
M  V30 32 1 10 16
M  V30 33 1 14 20
M  V30 34 1 14 21
M  V30 35 1 17 22
M  V30 36 1 23 27
M  V30 37 1 30 31
M  V30 38 1 3 32
M  V30 39 1 8 33
M  V30 40 1 9 34
M  V30 41 1 12 35
M  V30 42 1 13 36
M  V30 43 1 13 37
M  V30 44 1 15 38
M  V30 45 1 15 39
M  V30 46 1 16 40
M  V30 47 1 17 41
M  V30 48 1 17 42
M  V30 49 1 18 43
M  V30 50 1 18 44
M  V30 51 1 18 45
M  V30 52 1 20 46
M  V30 53 1 20 47
M  V30 54 1 21 48
M  V30 55 1 21 49
M  V30 56 1 22 50
M  V30 57 1 23 51
M  V30 58 1 23 52
M  V30 59 1 24 53
M  V30 60 1 25 54
M  V30 61 1 25 55
M  V30 62 1 25 56
M  V30 63 1 26 57
M  V30 64 1 26 58
M  V30 65 1 26 59
M  V30 66 1 28 60
M  V30 67 1 28 61
M  V30 68 1 29 62
M  V30 69 1 30 63
M  V30 70 1 30 64
M  V30 71 1 31 65
M  V30 72 1 31 66
M  V30 END BOND
M  V30 BEGIN COLLECTION
M  V30 MDLV30/STEABS ATOMS=(6 3 6 7 12 14 22)
M  V30 END COLLECTION
M  V30 END CTAB
M  END
>  <Column 1>
1842

>  <level_0>
2005

>  <index>
2005

>  <Unnamed: 0>
2005

>  <NO.>
2017

>  <Name>
diprenorphine

>  <IUPAC_name>
(1s-2s-6r-14r-15r-16r)-5-(cyclopropylmethyl)-16-(2-hydroxypropan-2-yl)-15-methoxy-13-oxa-5-azahexacyclo[13.2.2.12-8.01-6.02-14.012-20]icosa-8(20)-9-11-trien-11-ol

>  <SMILES>
CO[C@]12CC[C@@]3(C[C@@H]1C(C)(C)O)[C@H]1Cc4ccc(O)c5c4[C@@]3(CCN1CC1CC1)[C@H]2O5

>  <CID>
443408

>  <logBB>


>  <BBB+/BBB->
BBB+

>  <Inchi>
InChI=1S/C26H35NO4/c1-23(2-29)18-13-24-8-9-26(18-30-3)22-25(24)10-11-27(14-15-4-5-15)19(24)12-16-6-7-17(28)21(31-22)20(16)25/h6-7-15-18-19-22-28-29H-4-5-8-14H2-1-3H3/t18--19--22--24--25+-26-/m1/s1

>  <threshold>
-1

>  <reference>
R1|R27|R30|

>  <group>
B

>  <Class>
1

>  <ABC>
26.12

>  <ABCGG>
19.39

>  <nAcid>
0

>  <nBase>
1

>  <nAromAtom>
6

>  <nAromBond>
6

>  <nAtom>
66

>  <nHeavyAtom>
31

>  <nSpiro>
2

>  <nBridgehead>
4

>  <nHetero>
5

>  <nN>
1

>  <nO>
4

>  <nF>
0

>  <BalabanJ>
1.42

>  <BertzCT>
966.89

>  <nBonds>
72

>  <nBondsO>
37

>  <nBondsS>
66

>  <nBondsD>
0

>  <nBondsT>
0

>  <nBondsA>
6

>  <nBondsM>
6

>  <nBondsKS>
69

>  <nBondsKD>
3

>  <RNCG>
0.2

>  <RPCG>
0.12

>  <FCSP3>
0.77

>  <SZ>
38.33

>  <Sm>
35.43

>  <Sv>
39.1

>  <Sse>
65.52

>  <Sp>
42.55

>  <Si>
74.4

>  <MZ>
0.58

>  <Mm>
0.54

>  <Mv>
0.59

>  <Mse>
0.99

>  <Mp>
0.64

>  <Mi>
1.13

>  <NsCH3>
3

>  <NdCH2>
0

>  <NssCH2>
9

>  <NtCH>
0

>  <NdsCH>
0

>  <NaaCH>
2

>  <NsssCH>
4

>  <NddC>
0

>  <NtsC>
0

>  <NdssC>
0

>  <NaasC>
4

>  <NaaaC>
0

>  <NssssC>
4

>  <NsNH3>
0

>  <NsNH2>
0

>  <NssNH2>
0

>  <NdNH>
0

>  <NssNH>
0

>  <NaaNH>
0

>  <NtN>
0

>  <NsssNH>
0

>  <NdsN>
0

>  <NaaN>
0

>  <NsssN>
1

>  <NddsN>
0

>  <NaasN>
0

>  <NssssN>
0

>  <NsOH>
2

>  <NdO>
0

>  <NssO>
2

>  <NaaO>
0

>  <NsF>
0

>  <NsSiH3>
0

>  <NssSiH2>
0

>  <NsssSiH>
0

>  <NssssSi>
0

>  <NsPH2>
0

>  <NssPH>
0

>  <NsssP>
0

>  <NdsssP>
0

>  <NsssssP>
0

>  <NsSH>
0

>  <NdS>
0

>  <NssS>
0

>  <NaaS>
0

>  <NdssS>
0

>  <NddssS>
0

>  <NsCl>
0

>  <NsBr>
0

>  <NsI>
0

>  <fragCpx>
439.05

>  <fMF>
0.36

>  <nHBAcc>
5

>  <nHBDon>
2

>  <Kier1>
20.38

>  <Kier2>
6.16

>  <Lipinski>
1

>  <GhoseFilter>
1

>  <FilterItLogS>
-4.46

>  <VMcGowan>
321.74

>  <LabuteASA>
184.27

>  <PEOE_VSA1>
19.69

>  <PEOE_VSA2>
4.9

>  <PEOE_VSA3>
0

>  <PEOE_VSA4>
0

>  <PEOE_VSA5>
0

>  <PEOE_VSA6>
6.07

>  <PEOE_VSA7>
82.89

>  <PEOE_VSA8>
42.01

>  <PEOE_VSA9>
5.6

>  <PEOE_VSA10>
11.71

>  <PEOE_VSA11>
11.5

>  <PEOE_VSA12>
0

>  <PEOE_VSA13>
0

>  <SMR_VSA1>
19.69

>  <SMR_VSA2>
0

>  <SMR_VSA3>
4.9

>  <SMR_VSA4>
17.25

>  <SMR_VSA5>
87.56

>  <SMR_VSA6>
20.2

>  <SMR_VSA7>
23.26

>  <SMR_VSA8>
0

>  <SMR_VSA9>
11.5

>  <SlogP_VSA1>
4.74

>  <SlogP_VSA2>
58.66

>  <SlogP_VSA3>
16.57

>  <SlogP_VSA4>
17.25

>  <SlogP_VSA5>
63.5

>  <SlogP_VSA6>
12.13

>  <SlogP_VSA7>
0

>  <SlogP_VSA8>
0

>  <SlogP_VSA9>
0

>  <SlogP_VSA10>
0

>  <SlogP_VSA11>
11.5

>  <EState_VSA1>
11.2

>  <EState_VSA2>
28.6

>  <EState_VSA3>
11.79

>  <EState_VSA4>
44.57

>  <EState_VSA5>
30.51

>  <EState_VSA6>
0

>  <EState_VSA7>
27.02

>  <EState_VSA8>
10.97

>  <EState_VSA9>
9.47

>  <EState_VSA10>
10.21

>  <VSA_EState1>
13.19

>  <VSA_EState2>
2.81

>  <VSA_EState3>
22.2

>  <VSA_EState4>
1.24

>  <VSA_EState5>
1.86

>  <VSA_EState6>
4.46

>  <VSA_EState7>
7.72

>  <VSA_EState8>
6.23

>  <VSA_EState9>
1.81

>  <apol>
71.07

>  <bpol>
40.29

>  <nRing>
8

>  <nHRing>
2

>  <naRing>
1

>  <naHRing>
0

>  <nARing 2>
7

>  <nAHRing 2>
2

>  <nFRing>
1

>  <nFHRing>
1

>  <nFaRing>
0

>  <nFaHRing>
0

>  <nFARing 2>
1

>  <nFAHRing 2>
1

>  <nRot>
4

>  <SLogP>
3.39

>  <SMR>
116.42

>  <TopoPSA(NO)>
62.16

>  <TopoPSA>
62.16

>  <JGI1>
0.27

>  <JGI2>
0.11

>  <JGI3>
0.06

>  <JGI4>
0.06

>  <JGI5>
0.04

>  <Diameter>
10

>  <Radius>
5

>  <TMWC10>
152.23

>  <TSRW10>
88.98

>  <MW>
425.26

>  <AMW>
6.44

>  <WPath>
2039

>  <WPol>
77

>  <Zagreb1>
202

>  <Zagreb2>
269

>  <mZagreb2>
6.22

>  <yes>


>  <nAR-cont>
0

>  <nHA-cont>
0.702745138

>  <MWHBN>
0.33944606

>  <MWHBN-cont>
0.709143404

>  <TPSA-cont>
0.566084601

>  <pka_cont>
0.97

>  <yes.1>


>  <BBB_SCORE>
3.383629446

>  <MMFF94 Energy>
154.12

$$$$
Compound 1518
Actelion Java MolfileCreator 2.0

  0  0  0  0  0  0              0 V3000
M  V30 BEGIN CTAB
M  V30 COUNTS 75 81 0 0 0
M  V30 BEGIN ATOM
M  V30 1 O 0.968 2.5829 -2.3406 0
M  V30 2 C 0.3272 1.8561 -3.3086 0
M  V30 3 C 1.0431 1.709 -1.1619 0 CFG=1
M  V30 4 C -0.0808 2.3219 -4.538 0
M  V30 5 C -0.0346 0.5999 -2.8954 0
M  V30 6 C 0.2471 2.2122 0.1047 0 CFG=2
M  V30 7 C 0.4997 0.317 -1.5443 0 CFG=2
M  V30 8 O 0.2709 3.5599 -4.9786 0
M  V30 9 C -0.9091 1.5181 -5.3226 0
M  V30 10 C -0.9707 -0.1684 -3.571 0
M  V30 11 O 0.7371 3.4508 0.6381 0
M  V30 12 C 0.4831 1.0804 1.2229 0 CFG=1
M  V30 13 C -1.2536 2.3084 -0.257 0
M  V30 14 C -0.6991 -0.1348 -0.6832 0 CFG=1
M  V30 15 C 1.62 -0.7398 -1.5968 0
M  V30 16 C -1.3789 0.2834 -4.8285 0
M  V30 17 C -1.6372 -1.3091 -2.8286 0
M  V30 18 C 0.8235 4.561 -0.2424 0
M  V30 19 C 0.3194 1.4746 2.7509 0 CFG=2
M  V30 20 C -0.2427 -0.2245 0.7957 0
M  V30 21 C -1.8283 0.9421 -0.6466 0
M  V30 22 C -1.1803 -1.4834 -1.3197 0 CFG=1
M  V30 23 C 1.1088 -2.1492 -1.9177 0
M  V30 24 O 1.2193 2.5809 2.9893 0
M  V30 25 C 0.7689 0.358 3.8103 0
M  V30 26 C -1.0888 2.014 3.0498 0
M  V30 27 N -0.0962 -2.4845 -1.1471 0
M  V30 28 C 2.1607 -0.2194 3.4567 0
M  V30 29 C -0.2166 -0.8207 3.951 0
M  V30 30 C 0.9156 0.9717 5.2347 0
M  V30 31 C -0.553 -3.8575 -1.3933 0
M  V30 32 C 0.3338 -4.827 -0.6632 0
M  V30 33 C 0.3428 -4.8733 0.8455 0
M  V30 34 C -0.2578 -6.009 0.0657 0
M  V30 35 H 2.1112 1.6778 -0.909 0
M  V30 36 H 0.8338 3.9409 -4.2788 0
M  V30 37 H -1.2453 1.8778 -6.2915 0
M  V30 38 H 1.5614 0.8793 1.1376 0
M  V30 39 H -1.4002 2.9997 -1.0954 0
M  V30 40 H -1.8428 2.7484 0.5512 0
M  V30 41 H 2.3815 -0.4639 -2.3384 0
M  V30 42 H 2.1385 -0.7727 -0.6299 0
M  V30 43 H -2.1038 -0.281 -5.4102 0
M  V30 44 H -2.7148 -1.0962 -2.8107 0
M  V30 45 H -1.5174 -2.2366 -3.398 0
M  V30 46 H 0.9944 5.4542 0.366 0
M  V30 47 H -0.0961 4.7145 -0.8106 0
M  V30 48 H 1.6827 4.4542 -0.9086 0
M  V30 49 H 0.4284 -1.0734 0.9575 0
M  V30 50 H -1.1246 -0.4075 1.4181 0
M  V30 51 H -2.3672 1.039 -1.5943 0
M  V30 52 H -2.5991 0.65 0.0792 0
M  V30 53 H -2.0495 -1.8279 -0.743 0
M  V30 54 H 1.92 -2.8469 -1.6798 0
M  V30 55 H 0.9322 -2.2464 -2.9957 0
M  V30 56 H 1.0964 3.2167 2.2531 0
M  V30 57 H -1.2305 2.2235 4.1137 0
M  V30 58 H -1.252 2.9816 2.5657 0
M  V30 59 H -1.8758 1.3232 2.7369 0
M  V30 60 H 2.9077 0.574 3.346 0
M  V30 61 H 2.5178 -0.8974 4.2412 0
M  V30 62 H 2.141 -0.7992 2.5295 0
M  V30 63 H -0.2075 -1.484 3.0848 0
M  V30 64 H 0.0514 -1.4515 4.808 0
M  V30 65 H -1.2423 -0.4791 4.1187 0
M  V30 66 H 1.2813 0.2231 5.9486 0
M  V30 67 H 1.6318 1.7997 5.2553 0
M  V30 68 H -0.0385 1.3354 5.6266 0
M  V30 69 H -1.5789 -3.9835 -1.0248 0
M  V30 70 H -0.5697 -4.1021 -2.4619 0
M  V30 71 H 1.2734 -4.9914 -1.1782 0
M  V30 72 H -0.3247 -4.2084 1.3823 0
M  V30 73 H 1.2949 -5.0347 1.3376 0
M  V30 74 H -1.3352 -6.1247 0.0933 0
M  V30 75 H 0.2863 -6.9463 0.0367 0
M  V30 END ATOM
M  V30 BEGIN BOND
M  V30 1 1 1 2
M  V30 2 1 1 3
M  V30 3 2 2 4
M  V30 4 1 2 5
M  V30 5 1 3 6
M  V30 6 1 3 7
M  V30 7 1 4 8
M  V30 8 1 4 9
M  V30 9 2 5 10
M  V30 10 1 6 11
M  V30 11 1 6 12
M  V30 12 1 6 13
M  V30 13 1 7 14
M  V30 14 1 7 15
M  V30 15 2 9 16
M  V30 16 1 10 17
M  V30 17 1 11 18
M  V30 18 1 12 19
M  V30 19 1 12 20
M  V30 20 1 13 21
M  V30 21 1 14 22
M  V30 22 1 15 23
M  V30 23 1 19 24
M  V30 24 1 19 25
M  V30 25 1 19 26
M  V30 26 1 22 27
M  V30 27 1 25 28
M  V30 28 1 25 29
M  V30 29 1 25 30
M  V30 30 1 27 31
M  V30 31 1 31 32
M  V30 32 1 32 33
M  V30 33 1 32 34
M  V30 34 1 5 7
M  V30 35 1 10 16
M  V30 36 1 14 20
M  V30 37 1 14 21
M  V30 38 1 17 22
M  V30 39 1 23 27
M  V30 40 1 33 34
M  V30 41 1 3 35
M  V30 42 1 8 36
M  V30 43 1 9 37
M  V30 44 1 12 38
M  V30 45 1 13 39
M  V30 46 1 13 40
M  V30 47 1 15 41
M  V30 48 1 15 42
M  V30 49 1 16 43
M  V30 50 1 17 44
M  V30 51 1 17 45
M  V30 52 1 18 46
M  V30 53 1 18 47
M  V30 54 1 18 48
M  V30 55 1 20 49
M  V30 56 1 20 50
M  V30 57 1 21 51
M  V30 58 1 21 52
M  V30 59 1 22 53
M  V30 60 1 23 54
M  V30 61 1 23 55
M  V30 62 1 24 56
M  V30 63 1 26 57
M  V30 64 1 26 58
M  V30 65 1 26 59
M  V30 66 1 28 60
M  V30 67 1 28 61
M  V30 68 1 28 62
M  V30 69 1 29 63
M  V30 70 1 29 64
M  V30 71 1 29 65
M  V30 72 1 30 66
M  V30 73 1 30 67
M  V30 74 1 30 68
M  V30 75 1 31 69
M  V30 76 1 31 70
M  V30 77 1 32 71
M  V30 78 1 33 72
M  V30 79 1 33 73
M  V30 80 1 34 74
M  V30 81 1 34 75
M  V30 END BOND
M  V30 BEGIN COLLECTION
M  V30 MDLV30/STEABS ATOMS=(7 3 6 7 12 14 19 22)
M  V30 END COLLECTION
M  V30 END CTAB
M  END
>  <Column 1>
1843

>  <level_0>
2006

>  <index>
2006

>  <Unnamed: 0>
2006

>  <NO.>
2018

>  <Name>
buprenorphine

>  <IUPAC_name>
(1s-2s-6r-14r-15r-16r)-5-(cyclopropylmethyl)-16-[(2s)-2-hydroxy-3-3-dimethylbutan-2-yl]-15-methoxy-13-oxa-5-azahexacyclo[13.2.2.12-8.01-6.02-14.012-20]icosa-8(20)-9-11-trien-11-ol

>  <SMILES>
CO[C@]12CC[C@@]3(C[C@@H]1[C@](C)(O)C(C)(C)C)[C@H]1Cc4ccc(O)c5c4[C@@]3(CCN1CC1CC1)[C@H]2O5

>  <CID>
644073

>  <logBB>


>  <BBB+/BBB->
BBB+

>  <Inchi>
InChI=1S/C29H41NO4/c1-25(2-3)26(4-32)20-15-27-10-11-29(20-33-5)24-28(27)12-13-30(16-17-6-7-17)21(27)14-18-8-9-19(31)23(34-24)22(18)28/h8-9-17-20-21-24-31-32H-6-7-10-16H2-1-5H3/t20--21--24--26+-27--28+-29-/m1/s1

>  <threshold>
-1

>  <reference>
R1|R6|R9|R27|R30|

>  <group>
B

>  <Class>
1

>  <ABC>
28.47

>  <ABCGG>
21.53

>  <nAcid>
0

>  <nBase>
1

>  <nAromAtom>
6

>  <nAromBond>
6

>  <nAtom>
75

>  <nHeavyAtom>
34

>  <nSpiro>
2

>  <nBridgehead>
4

>  <nHetero>
5

>  <nN>
1

>  <nO>
4

>  <nF>
0

>  <BalabanJ>
1.42

>  <BertzCT>
1056.95

>  <nBonds>
81

>  <nBondsO>
40

>  <nBondsS>
75

>  <nBondsD>
0

>  <nBondsT>
0

>  <nBondsA>
6

>  <nBondsM>
6

>  <nBondsKS>
78

>  <nBondsKD>
3

>  <RNCG>
0.19

>  <RPCG>
0.11

>  <FCSP3>
0.79

>  <SZ>
42.33

>  <Sm>
38.94

>  <Sv>
43.72

>  <Sse>
74.19

>  <Sp>
47.95

>  <Si>
84.64

>  <MZ>
0.56

>  <Mm>
0.52

>  <Mv>
0.58

>  <Mse>
0.99

>  <Mp>
0.64

>  <Mi>
1.13

>  <NsCH3>
5

>  <NdCH2>
0

>  <NssCH2>
9

>  <NtCH>
0

>  <NdsCH>
0

>  <NaaCH>
2

>  <NsssCH>
4

>  <NddC>
0

>  <NtsC>
0

>  <NdssC>
0

>  <NaasC>
4

>  <NaaaC>
0

>  <NssssC>
5

>  <NsNH3>
0

>  <NsNH2>
0

>  <NssNH2>
0

>  <NdNH>
0

>  <NssNH>
0

>  <NaaNH>
0

>  <NtN>
0

>  <NsssNH>
0

>  <NdsN>
0

>  <NaaN>
0

>  <NsssN>
1

>  <NddsN>
0

>  <NaasN>
0

>  <NssssN>
0

>  <NsOH>
2

>  <NdO>
0

>  <NssO>
2

>  <NaaO>
0

>  <NsF>
0

>  <NsSiH3>
0

>  <NssSiH2>
0

>  <NsssSiH>
0

>  <NssssSi>
0

>  <NsPH2>
0

>  <NssPH>
0

>  <NsssP>
0

>  <NdsssP>
0

>  <NsssssP>
0

>  <NsSH>
0

>  <NdS>
0

>  <NssS>
0

>  <NaaS>
0

>  <NdssS>
0

>  <NddssS>
0

>  <NsCl>
0

>  <NsBr>
0

>  <NsI>
0

>  <fragCpx>
478.05

>  <fMF>
0.32

>  <nHBAcc>
5

>  <nHBDon>
2

>  <Kier1>
23.14

>  <Kier2>
6.9

>  <Lipinski>
1

>  <GhoseFilter>
0

>  <FilterItLogS>
-5.24

>  <VMcGowan>
364.01

>  <LabuteASA>
203.37

>  <PEOE_VSA1>
19.69

>  <PEOE_VSA2>
4.9

>  <PEOE_VSA3>
0

>  <PEOE_VSA4>
0

>  <PEOE_VSA5>
0

>  <PEOE_VSA6>
26.84

>  <PEOE_VSA7>
81.38

>  <PEOE_VSA8>
42.01

>  <PEOE_VSA9>
5.6

>  <PEOE_VSA10>
11.71

>  <PEOE_VSA11>
11.5

>  <PEOE_VSA12>
0

>  <PEOE_VSA13>
0

>  <SMR_VSA1>
19.69

>  <SMR_VSA2>
0

>  <SMR_VSA3>
4.9

>  <SMR_VSA4>
22.67

>  <SMR_VSA5>
101.4

>  <SMR_VSA6>
20.2

>  <SMR_VSA7>
23.26

>  <SMR_VSA8>
0

>  <SMR_VSA9>
11.5

>  <SlogP_VSA1>
4.74

>  <SlogP_VSA2>
58.66

>  <SlogP_VSA3>
16.57

>  <SlogP_VSA4>
22.67

>  <SlogP_VSA5>
77.35

>  <SlogP_VSA6>
12.13

>  <SlogP_VSA7>
0

>  <SlogP_VSA8>
0

>  <SlogP_VSA9>
0

>  <SlogP_VSA10>
0

>  <SlogP_VSA11>
11.5

>  <EState_VSA1>
11.2

>  <EState_VSA2>
34.02

>  <EState_VSA3>
11.79

>  <EState_VSA4>
44.57

>  <EState_VSA5>
30.51

>  <EState_VSA6>
0

>  <EState_VSA7>
20.1

>  <EState_VSA8>
31.74

>  <EState_VSA9>
9.47

>  <EState_VSA10>
10.21

>  <VSA_EState1>
13.46

>  <VSA_EState2>
2.82

>  <VSA_EState3>
23.16

>  <VSA_EState4>
0.78

>  <VSA_EState5>
1.8

>  <VSA_EState6>
4.46

>  <VSA_EState7>
7.64

>  <VSA_EState8>
10.81

>  <VSA_EState9>
1.83

>  <apol>
80.08

>  <bpol>
46.31

>  <nRing>
8

>  <nHRing>
2

>  <naRing>
1

>  <naHRing>
0

>  <nARing 2>
7

>  <nAHRing 2>
2

>  <nFRing>
1

>  <nFHRing>
1

>  <nFaRing>
0

>  <nFaHRing>
0

>  <nFARing 2>
1

>  <nFAHRing 2>
1

>  <nRot>
4

>  <SLogP>
4.41

>  <SMR>
130.2

>  <TopoPSA(NO)>
62.16

>  <TopoPSA>
62.16

>  <JGI1>
0.29

>  <JGI2>
0.13

>  <JGI3>
0.05

>  <JGI4>
0.06

>  <JGI5>
0.04

>  <Diameter>
10

>  <Radius>
5

>  <TMWC10>
158.95

>  <TSRW10>
92.42

>  <MW>
467.3

>  <AMW>
6.23

>  <WPath>
2624

>  <WPol>
86

>  <Zagreb1>
220

>  <Zagreb2>
293

>  <mZagreb2>
6.78

>  <yes>


>  <nAR-cont>
0

>  <nHA-cont>
0.568589513

>  <MWHBN>
0.323817376

>  <MWHBN-cont>
0.764241034

>  <TPSA-cont>
0.566084601

>  <pka_cont>
0.97

>  <yes.1>


>  <BBB_SCORE>
3.332120265

>  <MMFF94 Energy>
172.15

$$$$
Compound 1519
Actelion Java MolfileCreator 2.0

  0  0  0  0  0  0              0 V3000
M  V30 BEGIN CTAB
M  V30 COUNTS 51 52 0 0 0
M  V30 BEGIN ATOM
M  V30 1 O 3.0675 -0.3142 -0.7858 0
M  V30 2 C 2.0658 0.3781 -0.9581 0
M  V30 3 N 2.109 1.6322 -1.5542 0
M  V30 4 C 0.7401 -0.1077 -0.4913 0
M  V30 5 C 0.9487 2.4306 -1.9529 0
M  V30 6 C 3.4259 2.1974 -1.8392 0
M  V30 7 C 0.5487 -1.4219 -0.2983 0
M  V30 8 C 0.6217 3.5791 -0.9943 0
M  V30 9 C 4.1671 2.6871 -0.5932 0
M  V30 10 C -0.7057 -1.9883 0.2128 0
M  V30 11 C 1.6495 4.7146 -1.0215 0
M  V30 12 C 3.3234 3.3681 0.484 0
M  V30 13 C -1.9523 -1.5966 -0.2987 0
M  V30 14 C -0.6407 -2.9761 1.2063 0
M  V30 15 C 2.6841 4.7016 0.1055 0
M  V30 16 C -3.1311 -2.1665 0.1881 0
M  V30 17 C -1.8066 -3.5572 1.7102 0
M  V30 18 O -4.3929 -1.8479 -0.2436 0
M  V30 19 C -3.0454 -3.1568 1.1815 0
M  V30 20 O -1.8442 -4.5181 2.6875 0
M  V30 21 C -4.5219 -0.764 -1.1523 0
M  V30 22 O -4.2055 -3.6928 1.6982 0
M  V30 23 C -0.6256 -4.8229 3.3517 0
M  V30 24 C -4.5626 -4.8645 0.9674 0
M  V30 25 H -0.0227 0.6183 -0.2503 0
M  V30 26 H 0.07 1.7854 -2.0464 0
M  V30 27 H 1.1309 2.8148 -2.9641 0
M  V30 28 H 4.0348 1.4266 -2.3283 0
M  V30 29 H 3.3307 3.0057 -2.5708 0
M  V30 30 H 1.3528 -2.1307 -0.4898 0
M  V30 31 H -0.3392 3.9978 -1.3204 0
M  V30 32 H 0.4639 3.2105 0.0249 0
M  V30 33 H 4.651 1.8214 -0.1224 0
M  V30 34 H 4.9834 3.3507 -0.903 0
M  V30 35 H 2.1499 4.7663 -1.9941 0
M  V30 36 H 1.1046 5.6646 -0.9358 0
M  V30 37 H 3.9853 3.5592 1.3396 0
M  V30 38 H 2.5631 2.6779 0.8655 0
M  V30 39 H -1.9801 -0.8542 -1.0888 0
M  V30 40 H 0.3359 -3.2706 1.5781 0
M  V30 41 H 3.4736 5.4228 -0.1403 0
M  V30 42 H 2.1962 5.0932 1.0082 0
M  V30 43 H -4.1132 0.16 -0.73 0
M  V30 44 H -5.5892 -0.6035 -1.3323 0
M  V30 45 H -4.0549 -1.0005 -2.1137 0
M  V30 46 H 0.085 -5.298 2.668 0
M  V30 47 H -0.8493 -5.5391 4.1481 0
M  V30 48 H -0.1925 -3.9317 3.818 0
M  V30 49 H -4.7518 -4.6361 -0.087 0
M  V30 50 H -5.4885 -5.2576 1.3979 0
M  V30 51 H -3.7946 -5.6406 1.0546 0
M  V30 END ATOM
M  V30 BEGIN BOND
M  V30 1 2 1 2
M  V30 2 1 2 3
M  V30 3 1 2 4
M  V30 4 1 3 5
M  V30 5 1 3 6
M  V30 6 2 4 7
M  V30 7 1 5 8
M  V30 8 1 6 9
M  V30 9 1 7 10
M  V30 10 1 8 11
M  V30 11 1 9 12
M  V30 12 2 10 13
M  V30 13 1 10 14
M  V30 14 1 11 15
M  V30 15 1 13 16
M  V30 16 2 14 17
M  V30 17 1 16 18
M  V30 18 2 16 19
M  V30 19 1 17 20
M  V30 20 1 18 21
M  V30 21 1 19 22
M  V30 22 1 20 23
M  V30 23 1 22 24
M  V30 24 1 12 15
M  V30 25 1 17 19
M  V30 26 1 4 25
M  V30 27 1 5 26
M  V30 28 1 5 27
M  V30 29 1 6 28
M  V30 30 1 6 29
M  V30 31 1 7 30
M  V30 32 1 8 31
M  V30 33 1 8 32
M  V30 34 1 9 33
M  V30 35 1 9 34
M  V30 36 1 11 35
M  V30 37 1 11 36
M  V30 38 1 12 37
M  V30 39 1 12 38
M  V30 40 1 13 39
M  V30 41 1 14 40
M  V30 42 1 15 41
M  V30 43 1 15 42
M  V30 44 1 21 43
M  V30 45 1 21 44
M  V30 46 1 21 45
M  V30 47 1 23 46
M  V30 48 1 23 47
M  V30 49 1 23 48
M  V30 50 1 24 49
M  V30 51 1 24 50
M  V30 52 1 24 51
M  V30 END BOND
M  V30 END CTAB
M  END
>  <Column 1>
1844

>  <level_0>
2007

>  <index>
2007

>  <Unnamed: 0>
2007

>  <NO.>
2019

>  <Name>
cinoctramide

>  <IUPAC_name>
(e)-1-(azocan-1-yl)-3-(3-4-5-trimethoxyphenyl)prop-2-en-1-one

>  <SMILES>
COc1cc(/C=C/C(=O)N2CCCCCCC2)cc(OC)c1OC

>  <CID>
6443803

>  <logBB>


>  <BBB+/BBB->
BBB+

>  <Inchi>
InChI=1S/C19H27NO4/c1-22-16-13-15(14-17(23-2)19(16)24-3)9-10-18(21)20-11-7-5-4-6-8-12-20/h9-10-13-14H-4-8-11-12H2-1-3H3/b10-9+

>  <threshold>
-1

>  <reference>
R1|R13|R6|R24|R27|R27|R30|R30|

>  <group>
B

>  <Class>
1

>  <ABC>
17.67

>  <ABCGG>
14.35

>  <nAcid>
0

>  <nBase>
0

>  <nAromAtom>
6

>  <nAromBond>
6

>  <nAtom>
51

>  <nHeavyAtom>
24

>  <nSpiro>
0

>  <nBridgehead>
0

>  <nHetero>
5

>  <nN>
1

>  <nO>
4

>  <nF>
0

>  <BalabanJ>
1.81

>  <BertzCT>
549.72

>  <nBonds>
52

>  <nBondsO>
25

>  <nBondsS>
44

>  <nBondsD>
2

>  <nBondsT>
0

>  <nBondsA>
6

>  <nBondsM>
8

>  <nBondsKS>
47

>  <nBondsKD>
5

>  <RNCG>
0.21

>  <RPCG>
0.1

>  <FCSP3>
0.53

>  <SZ>
30

>  <Sm>
27.76

>  <Sv>
29.93

>  <Sse>
50.97

>  <Sp>
32.36

>  <Si>
57.73

>  <MZ>
0.59

>  <Mm>
0.54

>  <Mv>
0.59

>  <Mse>
1

>  <Mp>
0.63

>  <Mi>
1.13

>  <NsCH3>
3

>  <NdCH2>
0

>  <NssCH2>
7

>  <NtCH>
0

>  <NdsCH>
2

>  <NaaCH>
2

>  <NsssCH>
0

>  <NddC>
0

>  <NtsC>
0

>  <NdssC>
1

>  <NaasC>
4

>  <NaaaC>
0

>  <NssssC>
0

>  <NsNH3>
0

>  <NsNH2>
0

>  <NssNH2>
0

>  <NdNH>
0

>  <NssNH>
0

>  <NaaNH>
0

>  <NtN>
0

>  <NsssNH>
0

>  <NdsN>
0

>  <NaaN>
0

>  <NsssN>
1

>  <NddsN>
0

>  <NaasN>
0

>  <NssssN>
0

>  <NsOH>
0

>  <NdO>
1

>  <NssO>
3

>  <NaaO>
0

>  <NsF>
0

>  <NsSiH3>
0

>  <NssSiH2>
0

>  <NsssSiH>
0

>  <NssssSi>
0

>  <NsPH2>
0

>  <NssPH>
0

>  <NsssP>
0

>  <NdsssP>
0

>  <NsssssP>
0

>  <NsSH>
0

>  <NdS>
0

>  <NssS>
0

>  <NaaS>
0

>  <NdssS>
0

>  <NddssS>
0

>  <NsCl>
0

>  <NsBr>
0

>  <NsI>
0

>  <fragCpx>
73.05

>  <fMF>
0.33

>  <nHBAcc>
4

>  <nHBDon>
0

>  <Kier1>
20.31

>  <Kier2>
10.87

>  <Lipinski>
1

>  <GhoseFilter>
1

>  <FilterItLogS>
-3.77

>  <VMcGowan>
268.81

>  <LabuteASA>
143.74

>  <PEOE_VSA1>
19.11

>  <PEOE_VSA2>
4.79

>  <PEOE_VSA3>
0

>  <PEOE_VSA4>
0

>  <PEOE_VSA5>
0

>  <PEOE_VSA6>
19.26

>  <PEOE_VSA7>
36.61

>  <PEOE_VSA8>
19.17

>  <PEOE_VSA9>
21.33

>  <PEOE_VSA10>
0

>  <PEOE_VSA11>
11.5

>  <PEOE_VSA12>
11.66

>  <PEOE_VSA13>
0

>  <SMR_VSA1>
19.01

>  <SMR_VSA2>
0

>  <SMR_VSA3>
4.9

>  <SMR_VSA4>
0

>  <SMR_VSA5>
32.1

>  <SMR_VSA6>
34.42

>  <SMR_VSA7>
23.77

>  <SMR_VSA8>
0

>  <SMR_VSA9>
17.25

>  <SlogP_VSA1>
14.21

>  <SlogP_VSA2>
45.23

>  <SlogP_VSA3>
4.79

>  <SlogP_VSA4>
0

>  <SlogP_VSA5>
37.67

>  <SlogP_VSA6>
18.21

>  <SlogP_VSA7>
0

>  <SlogP_VSA8>
6.08

>  <SlogP_VSA9>
0

>  <SlogP_VSA10>
0

>  <SlogP_VSA11>
17.25

>  <EState_VSA1>
0

>  <EState_VSA2>
5.91

>  <EState_VSA3>
17.25

>  <EState_VSA4>
31.49

>  <EState_VSA5>
19.26

>  <EState_VSA6>
33.48

>  <EState_VSA7>
17.03

>  <EState_VSA8>
0

>  <EState_VSA9>
14.21

>  <EState_VSA10>
4.79

>  <VSA_EState1>
15.99

>  <VSA_EState2>
14.36

>  <VSA_EState3>
0

>  <VSA_EState4>
0.84

>  <VSA_EState5>
1.77

>  <VSA_EState6>
3.66

>  <VSA_EState7>
9.3

>  <VSA_EState8>
1.69

>  <VSA_EState9>
4.73

>  <apol>
54.04

>  <bpol>
34.87

>  <nRing>
2

>  <nHRing>
1

>  <naRing>
1

>  <naHRing>
0

>  <nARing 2>
1

>  <nAHRing 2>
1

>  <nFRing>
0

>  <nFHRing>
0

>  <nFaRing>
0

>  <nFaHRing>
0

>  <nFARing 2>
0

>  <nFAHRing 2>
0

>  <nRot>
5

>  <SLogP>
3.52

>  <SMR>
94.8

>  <TopoPSA(NO)>
48

>  <TopoPSA>
48

>  <JGI1>
0.16

>  <JGI2>
0.08

>  <JGI3>
0.04

>  <JGI4>
0.04

>  <JGI5>
0.02

>  <Diameter>
13

>  <Radius>
7

>  <TMWC10>
121.9

>  <TSRW10>
57.77

>  <MW>
333.19

>  <AMW>
6.53

>  <WPath>
1472

>  <WPol>
38

>  <Zagreb1>
114

>  <Zagreb2>
130

>  <mZagreb2>
5.75

>  <yes>


>  <nAR-cont>
0.816016

>  <nHA-cont>
0.94700071

>  <MWHBN>
0.219136142

>  <MWHBN-cont>
0.995491879

>  <TPSA-cont>
0.664930194

>  <pka_cont>
0.97

>  <yes.1>


>  <BBB_SCORE>
5.071114916

>  <MMFF94 Energy>
48.557

$$$$
Compound 1520
Actelion Java MolfileCreator 2.0

  0  0  0  0  0  0              0 V3000
M  V30 BEGIN CTAB
M  V30 COUNTS 32 32 0 0 0
M  V30 BEGIN ATOM
M  V30 1 O -4.8389 1.4029 -0.7012 0
M  V30 2 C -4.4152 1.0036 0.3731 0
M  V30 3 N -5.2112 0.903 1.4699 0
M  V30 4 C -3.0149 0.5895 0.6096 0
M  V30 5 C -2.1247 0.6722 -0.3907 0
M  V30 6 C -0.7108 0.3039 -0.2448 0
M  V30 7 C 0.2652 1.1636 -0.7698 0
M  V30 8 C -0.3237 -0.8991 0.3649 0
M  V30 9 C 1.6218 0.8469 -0.6684 0
M  V30 10 C 1.027 -1.238 0.4741 0
M  V30 11 O 2.6465 1.6279 -1.1374 0
M  V30 12 C 1.9902 -0.3639 -0.0581 0
M  V30 13 O 1.504 -2.3844 1.056 0
M  V30 14 C 2.3135 2.9171 -1.6334 0
M  V30 15 O 3.327 -0.6681 0.0854 0
M  V30 16 C 0.563 -3.2464 1.6796 0
M  V30 17 C 3.779 -1.4037 -1.05 0
M  V30 18 H -6.1798 1.1754 1.3645 0
M  V30 19 H -4.895 0.5867 2.3743 0
M  V30 20 H -2.7423 0.243 1.5976 0
M  V30 21 H -2.4229 1.0541 -1.3662 0
M  V30 22 H -0.0594 2.0827 -1.2481 0
M  V30 23 H -1.095 -1.5655 0.7362 0
M  V30 24 H 1.7087 2.8434 -2.543 0
M  V30 25 H 3.2463 3.4256 -1.8955 0
M  V30 26 H 1.8097 3.5193 -0.8699 0
M  V30 27 H 0.0227 -2.7312 2.4808 0
M  V30 28 H 1.1165 -4.0751 2.1314 0
M  V30 29 H -0.1285 -3.6706 0.9444 0
M  V30 30 H 3.2408 -2.3525 -1.1522 0
M  V30 31 H 4.8384 -1.6322 -0.8999 0
M  V30 32 H 3.6881 -0.8161 -1.97 0
M  V30 END ATOM
M  V30 BEGIN BOND
M  V30 1 2 1 2
M  V30 2 1 2 3
M  V30 3 1 2 4
M  V30 4 2 4 5
M  V30 5 1 5 6
M  V30 6 2 6 7
M  V30 7 1 6 8
M  V30 8 1 7 9
M  V30 9 2 8 10
M  V30 10 1 9 11
M  V30 11 2 9 12
M  V30 12 1 10 13
M  V30 13 1 11 14
M  V30 14 1 12 15
M  V30 15 1 13 16
M  V30 16 1 15 17
M  V30 17 1 10 12
M  V30 18 1 3 18
M  V30 19 1 3 19
M  V30 20 1 4 20
M  V30 21 1 5 21
M  V30 22 1 7 22
M  V30 23 1 8 23
M  V30 24 1 14 24
M  V30 25 1 14 25
M  V30 26 1 14 26
M  V30 27 1 16 27
M  V30 28 1 16 28
M  V30 29 1 16 29
M  V30 30 1 17 30
M  V30 31 1 17 31
M  V30 32 1 17 32
M  V30 END BOND
M  V30 END CTAB
M  END
>  <Column 1>
1845

>  <level_0>
2008

>  <index>
2008

>  <Unnamed: 0>
2008

>  <NO.>
2020

>  <Name>
cintriamide

>  <IUPAC_name>
(e)-3-(3-4-5-trimethoxyphenyl)prop-2-enamide

>  <SMILES>
COc1cc(/C=C/C(N)=O)cc(OC)c1OC

>  <CID>
6154037

>  <logBB>


>  <BBB+/BBB->
BBB+

>  <Inchi>
InChI=1S/C12H15NO4/c1-15-9-6-8(4-5-11(13)14)7-10(16-2)12(9)17-3/h4-7H-1-3H3-(H2-13-14)/b5-4+

>  <threshold>
-1

>  <reference>
R1|R13|R6|R24|R27|R30|

>  <group>
B

>  <Class>
1

>  <ABC>
12.16

>  <ABCGG>
11.36

>  <nAcid>
0

>  <nBase>
0

>  <nAromAtom>
6

>  <nAromBond>
6

>  <nAtom>
32

>  <nHeavyAtom>
17

>  <nSpiro>
0

>  <nBridgehead>
0

>  <nHetero>
5

>  <nN>
1

>  <nO>
4

>  <nF>
0

>  <BalabanJ>
2.54

>  <BertzCT>
415.13

>  <nBonds>
32

>  <nBondsO>
17

>  <nBondsS>
24

>  <nBondsD>
2

>  <nBondsT>
0

>  <nBondsA>
6

>  <nBondsM>
8

>  <nBondsKS>
27

>  <nBondsKD>
5

>  <RNCG>
0.22

>  <RPCG>
0.11

>  <FCSP3>
0.25

>  <SZ>
21

>  <Sm>
19.75

>  <Sv>
19.68

>  <Sse>
32.64

>  <Sp>
20.57

>  <Si>
36.24

>  <MZ>
0.66

>  <Mm>
0.62

>  <Mv>
0.62

>  <Mse>
1.02

>  <Mp>
0.64

>  <Mi>
1.13

>  <NsCH3>
3

>  <NdCH2>
0

>  <NssCH2>
0

>  <NtCH>
0

>  <NdsCH>
2

>  <NaaCH>
2

>  <NsssCH>
0

>  <NddC>
0

>  <NtsC>
0

>  <NdssC>
1

>  <NaasC>
4

>  <NaaaC>
0

>  <NssssC>
0

>  <NsNH3>
0

>  <NsNH2>
1

>  <NssNH2>
0

>  <NdNH>
0

>  <NssNH>
0

>  <NaaNH>
0

>  <NtN>
0

>  <NsssNH>
0

>  <NdsN>
0

>  <NaaN>
0

>  <NsssN>
0

>  <NddsN>
0

>  <NaasN>
0

>  <NssssN>
0

>  <NsOH>
0

>  <NdO>
1

>  <NssO>
3

>  <NaaO>
0

>  <NsF>
0

>  <NsSiH3>
0

>  <NssSiH2>
0

>  <NsssSiH>
0

>  <NssssSi>
0

>  <NsPH2>
0

>  <NssPH>
0

>  <NsssP>
0

>  <NdsssP>
0

>  <NsssssP>
0

>  <NsSH>
0

>  <NdS>
0

>  <NssS>
0

>  <NaaS>
0

>  <NdssS>
0

>  <NddssS>
0

>  <NsCl>
0

>  <NsBr>
0

>  <NsI>
0

>  <fragCpx>
17.05

>  <fMF>
0.19

>  <nHBAcc>
4

>  <nHBDon>
1

>  <Kier1>
15.06

>  <Kier2>
7.44

>  <Lipinski>
1

>  <GhoseFilter>
1

>  <FilterItLogS>
-2.16

>  <VMcGowan>
181.04

>  <LabuteASA>
99.77

>  <PEOE_VSA1>
19.94

>  <PEOE_VSA2>
4.79

>  <PEOE_VSA3>
0

>  <PEOE_VSA4>
0

>  <PEOE_VSA5>
0

>  <PEOE_VSA6>
0

>  <PEOE_VSA7>
23.77

>  <PEOE_VSA8>
6.08

>  <PEOE_VSA9>
21.33

>  <PEOE_VSA10>
0

>  <PEOE_VSA11>
11.5

>  <PEOE_VSA12>
11.66

>  <PEOE_VSA13>
0

>  <SMR_VSA1>
19.01

>  <SMR_VSA2>
0

>  <SMR_VSA3>
0

>  <SMR_VSA4>
5.73

>  <SMR_VSA5>
0

>  <SMR_VSA6>
21.33

>  <SMR_VSA7>
23.77

>  <SMR_VSA8>
0

>  <SMR_VSA9>
17.25

>  <SlogP_VSA1>
19.94

>  <SlogP_VSA2>
27.24

>  <SlogP_VSA3>
4.79

>  <SlogP_VSA4>
0

>  <SlogP_VSA5>
5.56

>  <SlogP_VSA6>
18.21

>  <SlogP_VSA7>
0

>  <SlogP_VSA8>
6.08

>  <SlogP_VSA9>
0

>  <SlogP_VSA10>
0

>  <SlogP_VSA11>
17.25

>  <EState_VSA1>
5.91

>  <EState_VSA2>
0

>  <EState_VSA3>
17.25

>  <EState_VSA4>
5.56

>  <EState_VSA5>
27.41

>  <EState_VSA6>
18.21

>  <EState_VSA7>
0

>  <EState_VSA8>
0

>  <EState_VSA9>
19.94

>  <EState_VSA10>
4.79

>  <VSA_EState1>
15.52

>  <VSA_EState2>
10.65

>  <VSA_EState3>
0

>  <VSA_EState4>
5.76

>  <VSA_EState5>
1.04

>  <VSA_EState6>
3.45

>  <VSA_EState7>
2.84

>  <VSA_EState8>
0

>  <VSA_EState9>
4.58

>  <apol>
34.35

>  <bpol>
20.55

>  <nRing>
1

>  <nHRing>
0

>  <naRing>
1

>  <naHRing>
0

>  <nARing 2>
0

>  <nAHRing 2>
0

>  <nFRing>
0

>  <nFHRing>
0

>  <nFaRing>
0

>  <nFaHRing>
0

>  <nFARing 2>
0

>  <nFAHRing 2>
0

>  <nRot>
5

>  <SLogP>
1.21

>  <SMR>
64.33

>  <TopoPSA(NO)>
70.78

>  <TopoPSA>
70.78

>  <JGI1>
0.24

>  <JGI2>
0.08

>  <JGI3>
0.05

>  <JGI4>
0.05

>  <JGI5>
0.03

>  <Diameter>
9

>  <Radius>
5

>  <TMWC10>
103.62

>  <TSRW10>
48.99

>  <MW>
237.1

>  <AMW>
7.41

>  <WPath>
536

>  <WPol>
24

>  <Zagreb1>
78

>  <Zagreb2>
88

>  <mZagreb2>
4.14

>  <yes>


>  <nAR-cont>
0.336376

>  <nHA-cont>
0.976740822

>  <MWHBN>
0.324716403

>  <MWHBN-cont>
0.761164749

>  <TPSA-cont>
0.505911648

>  <pka_cont>
0.97

>  <yes.1>


>  <BBB_SCORE>
3.951687242

>  <MMFF94 Energy>
18.749

$$$$
Compound 1521
Actelion Java MolfileCreator 2.0

  0  0  0  0  0  0              0 V3000
M  V30 BEGIN CTAB
M  V30 COUNTS 34 36 0 0 0
M  V30 BEGIN ATOM
M  V30 1 Br -3.5636 -1.9426 1.1328 0
M  V30 2 C -1.8306 -1.4351 1.677 0
M  V30 3 C -0.8796 -0.9642 0.7737 0
M  V30 4 C -1.455 -1.5214 3.0247 0
M  V30 5 O -1.0396 -0.8064 -0.5703 0
M  V30 6 C 0.4028 -0.5826 1.1453 0
M  V30 7 C -0.1726 -1.1474 3.4364 0
M  V30 8 C 0.1316 -0.313 -1.0731 0
M  V30 9 C 0.7642 -0.6765 2.5011 0
M  V30 10 C 1.049 -0.1706 -0.0504 0
M  V30 11 O 0.2984 -1.1918 4.7222 0
M  V30 12 C 0.1403 -0.0782 -2.5549 0
M  V30 13 C -0.5975 -1.6524 5.7266 0
M  V30 14 C -0.882 0.9932 -2.9641 0
M  V30 15 C 1.5255 0.2709 -3.1181 0
M  V30 16 C -0.382 2.4063 -2.6725 0
M  V30 17 C 1.9222 1.7274 -2.8691 0
M  V30 18 N 0.9003 2.6661 -3.3294 0
M  V30 19 H -2.1879 -1.8868 3.7371 0
M  V30 20 H 1.7593 -0.3872 2.8278 0
M  V30 21 H 2.0649 0.1855 -0.1425 0
M  V30 22 H -0.1687 -1.0289 -3.0117 0
M  V30 23 H -1.4709 -0.9967 5.8069 0
M  V30 24 H -0.0695 -1.6224 6.6846 0
M  V30 25 H -0.896 -2.6898 5.543 0
M  V30 26 H -1.8456 0.8356 -2.4646 0
M  V30 27 H -1.0746 0.9025 -4.0418 0
M  V30 28 H 2.2958 -0.3972 -2.7145 0
M  V30 29 H 1.5091 0.1009 -4.2034 0
M  V30 30 H -0.2933 2.5754 -1.5927 0
M  V30 31 H -1.1159 3.1321 -3.0402 0
M  V30 32 H 2.1304 1.9043 -1.8085 0
M  V30 33 H 2.8567 1.9397 -3.4007 0
M  V30 34 H 0.7842 2.5721 -4.3387 0
M  V30 END ATOM
M  V30 BEGIN BOND
M  V30 1 1 1 2
M  V30 2 2 2 3
M  V30 3 1 2 4
M  V30 4 1 3 5
M  V30 5 1 3 6
M  V30 6 2 4 7
M  V30 7 1 5 8
M  V30 8 2 6 9
M  V30 9 1 6 10
M  V30 10 1 7 11
M  V30 11 1 8 12
M  V30 12 1 11 13
M  V30 13 1 12 14
M  V30 14 1 12 15
M  V30 15 1 14 16
M  V30 16 1 15 17
M  V30 17 1 16 18
M  V30 18 1 7 9
M  V30 19 2 8 10
M  V30 20 1 17 18
M  V30 21 1 4 19
M  V30 22 1 9 20
M  V30 23 1 10 21
M  V30 24 1 12 22
M  V30 25 1 13 23
M  V30 26 1 13 24
M  V30 27 1 13 25
M  V30 28 1 14 26
M  V30 29 1 14 27
M  V30 30 1 15 28
M  V30 31 1 15 29
M  V30 32 1 16 30
M  V30 33 1 16 31
M  V30 34 1 17 32
M  V30 35 1 17 33
M  V30 36 1 18 34
M  V30 END BOND
M  V30 END CTAB
M  END
>  <Column 1>
1846

>  <level_0>
2009

>  <index>
2009

>  <Unnamed: 0>
2009

>  <NO.>
2021

>  <Name>
brofaromine

>  <IUPAC_name>
4-(7-bromo-5-methoxy-1-benzofuran-2-yl)piperidine

>  <SMILES>
COc1cc(Br)c2oc(C3CCNCC3)cc2c1

>  <CID>
44571

>  <logBB>


>  <BBB+/BBB->
BBB+

>  <Inchi>
InChI=1S/C14H16BrNO2/c1-17-11-6-10-7-13(9-2-4-16-5-3-9)18-14(10)12(15)8-11/h6-9-16H-2-5H2-1H3

>  <threshold>
-1

>  <reference>
R1|R13|R19|R6|R24|R27|R27|R27|R30|R30|

>  <group>
B

>  <Class>
1

>  <ABC>
14.13

>  <ABCGG>
11.66

>  <nAcid>
0

>  <nBase>
1

>  <nAromAtom>
9

>  <nAromBond>
10

>  <nAtom>
34

>  <nHeavyAtom>
18

>  <nSpiro>
0

>  <nBridgehead>
0

>  <nHetero>
4

>  <nN>
1

>  <nO>
2

>  <nF>
0

>  <BalabanJ>
1.62

>  <BertzCT>
558.16

>  <nBonds>
36

>  <nBondsO>
20

>  <nBondsS>
26

>  <nBondsD>
0

>  <nBondsT>
0

>  <nBondsA>
10

>  <nBondsM>
10

>  <nBondsKS>
32

>  <nBondsKD>
4

>  <RNCG>
0.35

>  <RPCG>
0.1

>  <FCSP3>
0.43

>  <SZ>
26.33

>  <Sm>
25.83

>  <Sv>
21.81

>  <Sse>
34.1

>  <Sp>
23.83

>  <Si>
38.08

>  <MZ>
0.77

>  <Mm>
0.76

>  <Mv>
0.64

>  <Mse>
1

>  <Mp>
0.7

>  <Mi>
1.12

>  <NsCH3>
1

>  <NdCH2>
0

>  <NssCH2>
4

>  <NtCH>
0

>  <NdsCH>
0

>  <NaaCH>
3

>  <NsssCH>
1

>  <NddC>
0

>  <NtsC>
0

>  <NdssC>
0

>  <NaasC>
3

>  <NaaaC>
2

>  <NssssC>
0

>  <NsNH3>
0

>  <NsNH2>
0

>  <NssNH2>
0

>  <NdNH>
0

>  <NssNH>
1

>  <NaaNH>
0

>  <NtN>
0

>  <NsssNH>
0

>  <NdsN>
0

>  <NaaN>
0

>  <NsssN>
0

>  <NddsN>
0

>  <NaasN>
0

>  <NssssN>
0

>  <NsOH>
0

>  <NdO>
0

>  <NssO>
1

>  <NaaO>
1

>  <NsF>
0

>  <NsSiH3>
0

>  <NssSiH2>
0

>  <NsssSiH>
0

>  <NssssSi>
0

>  <NsPH2>
0

>  <NssPH>
0

>  <NsssP>
0

>  <NdsssP>
0

>  <NsssssP>
0

>  <NsSH>
0

>  <NdS>
0

>  <NssS>
0

>  <NaaS>
0

>  <NdssS>
0

>  <NddssS>
0

>  <NsCl>
0

>  <NsBr>
1

>  <NsI>
0

>  <fragCpx>
94.04

>  <fMF>
0.44

>  <nHBAcc>
3

>  <nHBDon>
1

>  <Kier1>
13.01

>  <Kier2>
5.55

>  <Lipinski>
1

>  <GhoseFilter>
1

>  <FilterItLogS>
-5.01

>  <VMcGowan>
197.56

>  <LabuteASA>
114.62

>  <PEOE_VSA1>
14.47

>  <PEOE_VSA2>
0

>  <PEOE_VSA3>
0

>  <PEOE_VSA4>
0

>  <PEOE_VSA5>
0

>  <PEOE_VSA6>
0

>  <PEOE_VSA7>
60.06

>  <PEOE_VSA8>
11.3

>  <PEOE_VSA9>
11.58

>  <PEOE_VSA10>
17.09

>  <PEOE_VSA11>
0

>  <PEOE_VSA12>
0

>  <PEOE_VSA13>
0

>  <SMR_VSA1>
9.15

>  <SMR_VSA2>
0

>  <SMR_VSA3>
5.32

>  <SMR_VSA4>
0

>  <SMR_VSA5>
18.76

>  <SMR_VSA6>
20.2

>  <SMR_VSA7>
28.43

>  <SMR_VSA8>
0

>  <SMR_VSA9>
5.75

>  <SlogP_VSA1>
10.05

>  <SlogP_VSA2>
20.2

>  <SlogP_VSA3>
0

>  <SlogP_VSA4>
0

>  <SlogP_VSA5>
24.52

>  <SlogP_VSA6>
27.09

>  <SlogP_VSA7>
0

>  <SlogP_VSA8>
10.97

>  <SlogP_VSA9>
0

>  <SlogP_VSA10>
0

>  <SlogP_VSA11>
5.75

>  <EState_VSA1>
0

>  <EState_VSA2>
0

>  <EState_VSA3>
5.92

>  <EState_VSA4>
52.88

>  <EState_VSA5>
0

>  <EState_VSA6>
7.11

>  <EState_VSA7>
12.13

>  <EState_VSA8>
27.31

>  <EState_VSA9>
9.15

>  <EState_VSA10>
0

>  <VSA_EState1>
12.24

>  <VSA_EState2>
0

>  <VSA_EState3>
4.48

>  <VSA_EState4>
0.92

>  <VSA_EState5>
2.49

>  <VSA_EState6>
6.12

>  <VSA_EState7>
2.29

>  <VSA_EState8>
2.15

>  <VSA_EState9>
1.68

>  <apol>
39.8

>  <bpol>
21.47

>  <nRing>
3

>  <nHRing>
2

>  <naRing>
2

>  <naHRing>
1

>  <nARing 2>
1

>  <nAHRing 2>
1

>  <nFRing>
1

>  <nFHRing>
1

>  <nFaRing>
1

>  <nFaHRing>
1

>  <nFARing 2>
0

>  <nFAHRing 2>
0

>  <nRot>
2

>  <SLogP>
3.67

>  <SMR>
75.31

>  <TopoPSA(NO)>
34.4

>  <TopoPSA>
34.4

>  <JGI1>
0.18

>  <JGI2>
0.06

>  <JGI3>
0.05

>  <JGI4>
0.05

>  <JGI5>
0.03

>  <Diameter>
10

>  <Radius>
5

>  <TMWC10>
110.94

>  <TSRW10>
65.28

>  <MW>
309.04

>  <AMW>
9.09

>  <WPath>
599

>  <WPol>
27

>  <Zagreb1>
96

>  <Zagreb2>
114

>  <mZagreb2>
4

>  <yes>


>  <nAR-cont>
0.816016

>  <nHA-cont>
0.991161285

>  <MWHBN>
0.227537323

>  <MWHBN-cont>
0.989131647

>  <TPSA-cont>
0.759866639

>  <pka_cont>
0.97

>  <yes.1>


>  <BBB_SCORE>
5.295608033

>  <MMFF94 Energy>
17.707

$$$$
Compound 1522
Actelion Java MolfileCreator 2.0

  0  0  0  0  0  0              0 V3000
M  V30 BEGIN CTAB
M  V30 COUNTS 40 41 0 0 0
M  V30 BEGIN ATOM
M  V30 1 O -2.3664 0.3941 1.2615 0
M  V30 2 C -1.3007 0.4028 0.6549 0
M  V30 3 C -0.4255 -0.7991 0.6818 0
M  V30 4 C -0.8549 1.5663 -0.1574 0
M  V30 5 C 0.9717 -0.6995 0.6192 0
M  V30 6 C -1.0431 -2.0525 0.8084 0
M  V30 7 C -1.4998 2.7351 -0.0571 0
M  V30 8 C 1.7552 -1.8547 0.6482 0
M  V30 9 C -0.2751 -3.2163 0.8378 0
M  V30 10 N -1.2483 3.9182 -0.7259 0
M  V30 11 O 3.1244 -1.8685 0.5792 0
M  V30 12 C 1.1218 -3.1077 0.7287 0
M  V30 13 O -0.7823 -4.4848 0.9477 0
M  V30 14 C -2.041 5.1356 -0.5154 0
M  V30 15 C -0.2005 4.1269 -1.7274 0
M  V30 16 C 3.8023 -0.6432 0.822 0
M  V30 17 O 1.8957 -4.2458 0.7955 0
M  V30 18 C -2.1573 -4.608 1.2884 0
M  V30 19 C -1.4025 6.1098 -1.4441 0
M  V30 20 C -0.388 5.5539 -2.1122 0
M  V30 21 C 2.089 -4.7767 -0.514 0
M  V30 22 H -0.0228 1.4416 -0.8348 0
M  V30 23 H 1.4349 0.2787 0.5657 0
M  V30 24 H -2.127 -2.0882 0.8745 0
M  V30 25 H -2.3434 2.8232 0.6293 0
M  V30 26 H -1.9667 5.4777 0.5218 0
M  V30 27 H -3.0903 4.9722 -0.7812 0
M  V30 28 H -0.3436 3.4702 -2.5915 0
M  V30 29 H 0.7934 3.9686 -1.297 0
M  V30 30 H 3.6495 0.0568 -0.0054 0
M  V30 31 H 4.8733 -0.8594 0.8809 0
M  V30 32 H 3.4984 -0.1997 1.7762 0
M  V30 33 H -2.3867 -4.0808 2.2205 0
M  V30 34 H -2.3681 -5.67 1.4464 0
M  V30 35 H -2.7954 -4.2611 0.4693 0
M  V30 36 H -1.7328 7.132 -1.5512 0
M  V30 37 H 0.2262 6.0593 -2.8419 0
M  V30 38 H 1.1388 -5.0775 -0.9683 0
M  V30 39 H 2.7166 -5.6683 -0.4239 0
M  V30 40 H 2.6088 -4.0621 -1.1616 0
M  V30 END ATOM
M  V30 BEGIN BOND
M  V30 1 2 1 2
M  V30 2 1 2 3
M  V30 3 1 2 4
M  V30 4 2 3 5
M  V30 5 1 3 6
M  V30 6 2 4 7
M  V30 7 1 5 8
M  V30 8 2 6 9
M  V30 9 1 7 10
M  V30 10 1 8 11
M  V30 11 2 8 12
M  V30 12 1 9 13
M  V30 13 1 10 14
M  V30 14 1 10 15
M  V30 15 1 11 16
M  V30 16 1 12 17
M  V30 17 1 13 18
M  V30 18 1 14 19
M  V30 19 1 15 20
M  V30 20 1 17 21
M  V30 21 1 9 12
M  V30 22 2 19 20
M  V30 23 1 4 22
M  V30 24 1 5 23
M  V30 25 1 6 24
M  V30 26 1 7 25
M  V30 27 1 14 26
M  V30 28 1 14 27
M  V30 29 1 15 28
M  V30 30 1 15 29
M  V30 31 1 16 30
M  V30 32 1 16 31
M  V30 33 1 16 32
M  V30 34 1 18 33
M  V30 35 1 18 34
M  V30 36 1 18 35
M  V30 37 1 19 36
M  V30 38 1 20 37
M  V30 39 1 21 38
M  V30 40 1 21 39
M  V30 41 1 21 40
M  V30 END BOND
M  V30 END CTAB
M  END
>  <Column 1>
1847

>  <level_0>
2010

>  <index>
2010

>  <Unnamed: 0>
2010

>  <NO.>
2022

>  <Name>
roletamide

>  <IUPAC_name>
(e)-3-(2-5-dihydropyrrol-1-yl)-1-(3-4-5-trimethoxyphenyl)prop-2-en-1-one

>  <SMILES>
COc1cc(C(=O)/C=C/N2CC=CC2)cc(OC)c1OC

>  <CID>
6433520

>  <logBB>


>  <BBB+/BBB->
BBB+

>  <Inchi>
InChI=1S/C16H19NO4/c1-19-14-10-12(11-15(20-2)16(14)21-3)13(18)6-9-17-7-4-5-8-17/h4-6-9-11H-7-8H2-1-3H3/b9-6+

>  <threshold>
-1

>  <reference>
R1|R13|R6|R24|R27|R30|

>  <group>
B

>  <Class>
1

>  <ABC>
15.54

>  <ABCGG>
13.96

>  <nAcid>
0

>  <nBase>
0

>  <nAromAtom>
6

>  <nAromBond>
6

>  <nAtom>
40

>  <nHeavyAtom>
21

>  <nSpiro>
0

>  <nBridgehead>
0

>  <nHetero>
5

>  <nN>
1

>  <nO>
4

>  <nF>
0

>  <BalabanJ>
1.86

>  <BertzCT>
544.63

>  <nBonds>
41

>  <nBondsO>
22

>  <nBondsS>
32

>  <nBondsD>
3

>  <nBondsT>
0

>  <nBondsA>
6

>  <nBondsM>
9

>  <nBondsKS>
35

>  <nBondsKD>
6

>  <RNCG>
0.22

>  <RPCG>
0.09

>  <FCSP3>
0.31

>  <SZ>
25.67

>  <Sm>
24.09

>  <Sv>
24.76

>  <Sse>
40.42

>  <Sp>
26.17

>  <Si>
45.07

>  <MZ>
0.64

>  <Mm>
0.6

>  <Mv>
0.62

>  <Mse>
1.01

>  <Mp>
0.65

>  <Mi>
1.13

>  <NsCH3>
3

>  <NdCH2>
0

>  <NssCH2>
2

>  <NtCH>
0

>  <NdsCH>
4

>  <NaaCH>
2

>  <NsssCH>
0

>  <NddC>
0

>  <NtsC>
0

>  <NdssC>
1

>  <NaasC>
4

>  <NaaaC>
0

>  <NssssC>
0

>  <NsNH3>
0

>  <NsNH2>
0

>  <NssNH2>
0

>  <NdNH>
0

>  <NssNH>
0

>  <NaaNH>
0

>  <NtN>
0

>  <NsssNH>
0

>  <NdsN>
0

>  <NaaN>
0

>  <NsssN>
1

>  <NddsN>
0

>  <NaasN>
0

>  <NssssN>
0

>  <NsOH>
0

>  <NdO>
1

>  <NssO>
3

>  <NaaO>
0

>  <NsF>
0

>  <NsSiH3>
0

>  <NssSiH2>
0

>  <NsssSiH>
0

>  <NssssSi>
0

>  <NsPH2>
0

>  <NssPH>
0

>  <NsssP>
0

>  <NdsssP>
0

>  <NsssssP>
0

>  <NsSH>
0

>  <NdS>
0

>  <NssS>
0

>  <NaaS>
0

>  <NdssS>
0

>  <NddssS>
0

>  <NsCl>
0

>  <NsBr>
0

>  <NsI>
0

>  <fragCpx>
64.05

>  <fMF>
0.35

>  <nHBAcc>
5

>  <nHBDon>
0

>  <Kier1>
17.36

>  <Kier2>
8.59

>  <Lipinski>
1

>  <GhoseFilter>
1

>  <FilterItLogS>
-2.49

>  <VMcGowan>
222.24

>  <LabuteASA>
123.96

>  <PEOE_VSA1>
19.11

>  <PEOE_VSA2>
4.79

>  <PEOE_VSA3>
0

>  <PEOE_VSA4>
0

>  <PEOE_VSA5>
0

>  <PEOE_VSA6>
12.15

>  <PEOE_VSA7>
12.13

>  <PEOE_VSA8>
30.93

>  <PEOE_VSA9>
21.33

>  <PEOE_VSA10>
0

>  <PEOE_VSA11>
17.28

>  <PEOE_VSA12>
5.75

>  <PEOE_VSA13>
0

>  <SMR_VSA1>
19.01

>  <SMR_VSA2>
0

>  <SMR_VSA3>
4.9

>  <SMR_VSA4>
0

>  <SMR_VSA5>
0

>  <SMR_VSA6>
34.42

>  <SMR_VSA7>
42.12

>  <SMR_VSA8>
0

>  <SMR_VSA9>
17.25

>  <SlogP_VSA1>
14.21

>  <SlogP_VSA2>
45.1

>  <SlogP_VSA3>
0

>  <SlogP_VSA4>
0

>  <SlogP_VSA5>
10.36

>  <SlogP_VSA6>
36.56

>  <SlogP_VSA7>
0

>  <SlogP_VSA8>
0

>  <SlogP_VSA9>
0

>  <SlogP_VSA10>
0

>  <SlogP_VSA11>
17.25

>  <EState_VSA1>
0

>  <EState_VSA2>
5.78

>  <EState_VSA3>
22.81

>  <EState_VSA4>
13.09

>  <EState_VSA5>
21.33

>  <EState_VSA6>
24.41

>  <EState_VSA7>
4.9

>  <EState_VSA8>
12.15

>  <EState_VSA9>
14.21

>  <EState_VSA10>
4.79

>  <VSA_EState1>
15.73

>  <VSA_EState2>
14.29

>  <VSA_EState3>
0

>  <VSA_EState4>
0.49

>  <VSA_EState5>
1.3

>  <VSA_EState6>
3.3

>  <VSA_EState7>
7.47

>  <VSA_EState8>
1.66

>  <VSA_EState9>
4.58

>  <apol>
43.7

>  <bpol>
26.85

>  <nRing>
2

>  <nHRing>
1

>  <naRing>
1

>  <naHRing>
0

>  <nARing 2>
1

>  <nAHRing 2>
1

>  <nFRing>
0

>  <nFHRing>
0

>  <nFaRing>
0

>  <nFaHRing>
0

>  <nFARing 2>
0

>  <nFAHRing 2>
0

>  <nRot>
6

>  <SLogP>
2.28

>  <SMR>
80.28

>  <TopoPSA(NO)>
48

>  <TopoPSA>
48

>  <JGI1>
0.18

>  <JGI2>
0.08

>  <JGI3>
0.04

>  <JGI4>
0.05

>  <JGI5>
0.03

>  <Diameter>
11

>  <Radius>
6

>  <TMWC10>
115.39

>  <TSRW10>
67.44

>  <MW>
289.13

>  <AMW>
7.23

>  <WPath>
985

>  <WPol>
30

>  <Zagreb1>
102

>  <Zagreb2>
118

>  <mZagreb2>
5

>  <yes>


>  <nAR-cont>
0.816016

>  <nHA-cont>
0.994529749

>  <MWHBN>
0.294051518

>  <MWHBN-cont>
0.85813944

>  <TPSA-cont>
0.664930194

>  <pka_cont>
0.97

>  <yes.1>


>  <BBB_SCORE>
4.912615298

>  <MMFF94 Energy>
79.563

$$$$
Compound 1523
Actelion Java MolfileCreator 2.0

  0  0  0  0  0  0              0 V3000
M  V30 BEGIN CTAB
M  V30 COUNTS 47 48 0 0 0
M  V30 BEGIN ATOM
M  V30 1 O -0.9436 1.9667 1.5731 0
M  V30 2 C -0.2767 1.3917 0.7165 0
M  V30 3 N 0.0103 1.9202 -0.5461 0
M  V30 4 C 0.2317 0.0548 1.0726 0
M  V30 5 C -0.4094 3.2979 -0.8071 0
M  V30 6 C 0.7761 1.2235 -1.5857 0
M  V30 7 C -0.6746 -1.0087 1.1386 0
M  V30 8 C 1.581 -0.1085 1.4042 0
M  V30 9 C -1.0448 3.5596 -2.1716 0
M  V30 10 C -0.0231 0.166 -2.3516 0
M  V30 11 C -0.22 -2.2775 1.4902 0
M  V30 12 C 2.0514 -1.3706 1.7599 0
M  V30 13 C -2.3657 2.8336 -2.4183 0
M  V30 14 C -1.1886 0.6789 -3.2025 0
M  V30 15 O -1.0047 -3.3989 1.5616 0
M  V30 16 C 1.142 -2.4455 1.8073 0
M  V30 17 O 3.3517 -1.66 2.0823 0
M  V30 18 C -2.3297 1.3041 -2.397 0
M  V30 19 C -2.3756 -3.2624 1.212 0
M  V30 20 O 1.6112 -3.7066 2.1078 0
M  V30 21 C 4.2948 -0.5987 2.0256 0
M  V30 22 C 1.5211 -3.9331 3.5137 0
M  V30 23 H -1.0943 3.647 -0.0266 0
M  V30 24 H 0.4957 3.9112 -0.7176 0
M  V30 25 H 1.6327 0.7317 -1.1162 0
M  V30 26 H 1.2069 1.9572 -2.2753 0
M  V30 27 H -1.7158 -0.8112 0.9059 0
M  V30 28 H 2.2283 0.761 1.3757 0
M  V30 29 H -1.2417 4.6376 -2.2428 0
M  V30 30 H -0.339 3.3454 -2.9801 0
M  V30 31 H 0.6729 -0.3544 -3.0217 0
M  V30 32 H -0.402 -0.5964 -1.6637 0
M  V30 33 H -3.1097 3.175 -1.6876 0
M  V30 34 H -2.7401 3.1522 -3.3999 0
M  V30 35 H -0.827 1.3576 -3.9827 0
M  V30 36 H -1.596 -0.1914 -3.7338 0
M  V30 37 H -2.3325 0.9348 -1.3658 0
M  V30 38 H -3.28 0.959 -2.8259 0
M  V30 39 H -2.8923 -2.5858 1.9007 0
M  V30 40 H -2.843 -4.2477 1.3011 0
M  V30 41 H -2.4883 -2.9333 0.1737 0
M  V30 42 H 4.3707 -0.1909 1.0123 0
M  V30 43 H 5.2739 -1.0066 2.2944 0
M  V30 44 H 4.0503 0.1846 2.7506 0
M  V30 45 H 2.1339 -3.2187 4.0741 0
M  V30 46 H 1.9056 -4.9374 3.7154 0
M  V30 47 H 0.4826 -3.894 3.86 0
M  V30 END ATOM
M  V30 BEGIN BOND
M  V30 1 2 1 2
M  V30 2 1 2 3
M  V30 3 1 2 4
M  V30 4 1 3 5
M  V30 5 1 3 6
M  V30 6 2 4 7
M  V30 7 1 4 8
M  V30 8 1 5 9
M  V30 9 1 6 10
M  V30 10 1 7 11
M  V30 11 2 8 12
M  V30 12 1 9 13
M  V30 13 1 10 14
M  V30 14 1 11 15
M  V30 15 2 11 16
M  V30 16 1 12 17
M  V30 17 1 13 18
M  V30 18 1 15 19
M  V30 19 1 16 20
M  V30 20 1 17 21
M  V30 21 1 20 22
M  V30 22 1 12 16
M  V30 23 1 14 18
M  V30 24 1 5 23
M  V30 25 1 5 24
M  V30 26 1 6 25
M  V30 27 1 6 26
M  V30 28 1 7 27
M  V30 29 1 8 28
M  V30 30 1 9 29
M  V30 31 1 9 30
M  V30 32 1 10 31
M  V30 33 1 10 32
M  V30 34 1 13 33
M  V30 35 1 13 34
M  V30 36 1 14 35
M  V30 37 1 14 36
M  V30 38 1 18 37
M  V30 39 1 18 38
M  V30 40 1 19 39
M  V30 41 1 19 40
M  V30 42 1 19 41
M  V30 43 1 21 42
M  V30 44 1 21 43
M  V30 45 1 21 44
M  V30 46 1 22 45
M  V30 47 1 22 46
M  V30 48 1 22 47
M  V30 END BOND
M  V30 END CTAB
M  END
>  <Column 1>
1848

>  <level_0>
2011

>  <index>
2011

>  <Unnamed: 0>
2011

>  <NO.>
2023

>  <Name>
trocimine

>  <IUPAC_name>
azocan-1-yl-(3-4-5-trimethoxyphenyl)methanone

>  <SMILES>
COc1cc(C(=O)N2CCCCCCC2)cc(OC)c1OC

>  <CID>
26650

>  <logBB>


>  <BBB+/BBB->
BBB+

>  <Inchi>
InChI=1S/C17H25NO4/c1-20-14-11-13(12-15(21-2)16(14)22-3)17(19)18-9-7-5-4-6-8-10-18/h11-12H-4-10H2-1-3H3

>  <threshold>
-1

>  <reference>
R1|R13|R19|R6|R24|R27|R27|R27|R30|R30|

>  <group>
B

>  <Class>
1

>  <ABC>
16.21

>  <ABCGG>
13.64

>  <nAcid>
0

>  <nBase>
0

>  <nAromAtom>
6

>  <nAromBond>
6

>  <nAtom>
47

>  <nHeavyAtom>
22

>  <nSpiro>
0

>  <nBridgehead>
0

>  <nHetero>
5

>  <nN>
1

>  <nO>
4

>  <nF>
0

>  <BalabanJ>
2

>  <BertzCT>
482.38

>  <nBonds>
48

>  <nBondsO>
23

>  <nBondsS>
41

>  <nBondsD>
1

>  <nBondsT>
0

>  <nBondsA>
6

>  <nBondsM>
7

>  <nBondsKS>
44

>  <nBondsKD>
4

>  <RNCG>
0.21

>  <RPCG>
0.11

>  <FCSP3>
0.59

>  <SZ>
27.67

>  <Sm>
25.59

>  <Sv>
27.39

>  <Sse>
47.08

>  <Sp>
29.56

>  <Si>
53.32

>  <MZ>
0.59

>  <Mm>
0.54

>  <Mv>
0.58

>  <Mse>
1

>  <Mp>
0.63

>  <Mi>
1.13

>  <NsCH3>
3

>  <NdCH2>
0

>  <NssCH2>
7

>  <NtCH>
0

>  <NdsCH>
0

>  <NaaCH>
2

>  <NsssCH>
0

>  <NddC>
0

>  <NtsC>
0

>  <NdssC>
1

>  <NaasC>
4

>  <NaaaC>
0

>  <NssssC>
0

>  <NsNH3>
0

>  <NsNH2>
0

>  <NssNH2>
0

>  <NdNH>
0

>  <NssNH>
0

>  <NaaNH>
0

>  <NtN>
0

>  <NsssNH>
0

>  <NdsN>
0

>  <NaaN>
0

>  <NsssN>
1

>  <NddsN>
0

>  <NaasN>
0

>  <NssssN>
0

>  <NsOH>
0

>  <NdO>
1

>  <NssO>
3

>  <NaaO>
0

>  <NsF>
0

>  <NsSiH3>
0

>  <NssSiH2>
0

>  <NsssSiH>
0

>  <NssssSi>
0

>  <NsPH2>
0

>  <NssPH>
0

>  <NsssP>
0

>  <NdsssP>
0

>  <NsssssP>
0

>  <NsSH>
0

>  <NdS>
0

>  <NssS>
0

>  <NaaS>
0

>  <NdssS>
0

>  <NddssS>
0

>  <NsCl>
0

>  <NsBr>
0

>  <NsI>
0

>  <fragCpx>
67.05

>  <fMF>
0.32

>  <nHBAcc>
4

>  <nHBDon>
0

>  <Kier1>
18.34

>  <Kier2>
9.33

>  <Lipinski>
1

>  <GhoseFilter>
1

>  <FilterItLogS>
-3.69

>  <VMcGowan>
244.93

>  <LabuteASA>
131.7

>  <PEOE_VSA1>
19.11

>  <PEOE_VSA2>
4.79

>  <PEOE_VSA3>
0

>  <PEOE_VSA4>
0

>  <PEOE_VSA5>
0

>  <PEOE_VSA6>
19.26

>  <PEOE_VSA7>
24.97

>  <PEOE_VSA8>
18.65

>  <PEOE_VSA9>
21.33

>  <PEOE_VSA10>
0

>  <PEOE_VSA11>
11.5

>  <PEOE_VSA12>
5.75

>  <PEOE_VSA13>
5.91

>  <SMR_VSA1>
19.01

>  <SMR_VSA2>
0

>  <SMR_VSA3>
4.9

>  <SMR_VSA4>
0

>  <SMR_VSA5>
32.1

>  <SMR_VSA6>
34.42

>  <SMR_VSA7>
17.7

>  <SMR_VSA8>
0

>  <SMR_VSA9>
17.25

>  <SlogP_VSA1>
14.21

>  <SlogP_VSA2>
45.23

>  <SlogP_VSA3>
0

>  <SlogP_VSA4>
0

>  <SlogP_VSA5>
42.46

>  <SlogP_VSA6>
12.13

>  <SlogP_VSA7>
0

>  <SlogP_VSA8>
0

>  <SlogP_VSA9>
0

>  <SlogP_VSA10>
0

>  <SlogP_VSA11>
17.25

>  <EState_VSA1>
0

>  <EState_VSA2>
5.91

>  <EState_VSA3>
22.81

>  <EState_VSA4>
25.93

>  <EState_VSA5>
19.26

>  <EState_VSA6>
33.46

>  <EState_VSA7>
4.9

>  <EState_VSA8>
0

>  <EState_VSA9>
14.21

>  <EState_VSA10>
4.79

>  <VSA_EState1>
15.95

>  <VSA_EState2>
14.71

>  <VSA_EState3>
0

>  <VSA_EState4>
0.58

>  <VSA_EState5>
1.56

>  <VSA_EState6>
3.45

>  <VSA_EState7>
5.79

>  <VSA_EState8>
1.63

>  <VSA_EState9>
4.67

>  <apol>
49.37

>  <bpol>
32.87

>  <nRing>
2

>  <nHRing>
1

>  <naRing>
1

>  <naHRing>
0

>  <nARing 2>
1

>  <nAHRing 2>
1

>  <nFRing>
0

>  <nFHRing>
0

>  <nFaRing>
0

>  <nFaHRing>
0

>  <nFARing 2>
0

>  <nFAHRing 2>
0

>  <nRot>
4

>  <SLogP>
3.12

>  <SMR>
85.09

>  <TopoPSA(NO)>
48

>  <TopoPSA>
48

>  <JGI1>
0.15

>  <JGI2>
0.08

>  <JGI3>
0.05

>  <JGI4>
0.04

>  <JGI5>
0.03

>  <Diameter>
11

>  <Radius>
6

>  <TMWC10>
117.91

>  <TSRW10>
55.57

>  <MW>
307.18

>  <AMW>
6.54

>  <WPath>
1051

>  <WPol>
37

>  <Zagreb1>
106

>  <Zagreb2>
123

>  <mZagreb2>
5.28

>  <yes>


>  <nAR-cont>
0.816016

>  <nHA-cont>
0.983774276

>  <MWHBN>
0.228225162

>  <MWHBN-cont>
0.988494513

>  <TPSA-cont>
0.664930194

>  <pka_cont>
0.97

>  <yes.1>


>  <BBB_SCORE>
5.097392434

>  <MMFF94 Energy>
61.757

$$$$
Compound 1524
Actelion Java MolfileCreator 2.0

  0  0  0  0  0  0              0 V3000
M  V30 BEGIN CTAB
M  V30 COUNTS 39 40 0 0 0
M  V30 BEGIN ATOM
M  V30 1 O -0.0789 2.9249 0.7108 0
M  V30 2 C -0.5005 1.8468 0.3015 0
M  V30 3 N -1.6943 1.6986 -0.3883 0
M  V30 4 C 0.3251 0.6507 0.5667 0
M  V30 5 C -2.612 2.8353 -0.4905 0
M  V30 6 C -2.1456 0.4967 -1.1011 0
M  V30 7 C 1.6474 0.6378 0.1093 0
M  V30 8 C -0.1991 -0.4135 1.3113 0
M  V30 9 C -3.0046 3.0904 -1.9476 0
M  V30 10 C -2.5734 0.8444 -2.5331 0
M  V30 11 C 2.4511 -0.4736 0.3557 0
M  V30 12 C 0.5923 -1.5327 1.563 0
M  V30 13 O -3.5449 1.9008 -2.5475 0
M  V30 14 O 3.751 -0.6014 -0.0595 0
M  V30 15 C 1.905 -1.5657 1.0561 0
M  V30 16 O 0.1768 -2.6391 2.2572 0
M  V30 17 C 4.4147 0.5852 -0.4758 0
M  V30 18 O 2.7032 -2.6539 1.3351 0
M  V30 19 C -0.9985 -2.5054 3.0456 0
M  V30 20 C 2.5961 -3.6143 0.2864 0
M  V30 21 H -2.1847 3.7397 -0.0476 0
M  V30 22 H -3.5019 2.5631 0.0892 0
M  V30 23 H -3.0019 0.1058 -0.5399 0
M  V30 24 H -1.3698 -0.2706 -1.136 0
M  V30 25 H 2.0136 1.5028 -0.4343 0
M  V30 26 H -1.2175 -0.3399 1.6771 0
M  V30 27 H -3.7734 3.8676 -1.9984 0
M  V30 28 H -2.1438 3.4275 -2.5368 0
M  V30 29 H -1.7101 1.1483 -3.137 0
M  V30 30 H -3.0244 -0.031 -3.0105 0
M  V30 31 H 4.0159 0.9397 -1.4316 0
M  V30 32 H 5.4708 0.3419 -0.6263 0
M  V30 33 H 4.3583 1.3658 0.2904 0
M  V30 34 H -0.9249 -1.6567 3.734 0
M  V30 35 H -1.1034 -3.4138 3.6464 0
M  V30 36 H -1.8862 -2.4227 2.4102 0
M  V30 37 H 1.569 -3.9817 0.1847 0
M  V30 38 H 3.2341 -4.4646 0.5451 0
M  V30 39 H 2.9481 -3.2063 -0.6671 0
M  V30 END ATOM
M  V30 BEGIN BOND
M  V30 1 2 1 2
M  V30 2 1 2 3
M  V30 3 1 2 4
M  V30 4 1 3 5
M  V30 5 1 3 6
M  V30 6 2 4 7
M  V30 7 1 4 8
M  V30 8 1 5 9
M  V30 9 1 6 10
M  V30 10 1 7 11
M  V30 11 2 8 12
M  V30 12 1 9 13
M  V30 13 1 11 14
M  V30 14 2 11 15
M  V30 15 1 12 16
M  V30 16 1 14 17
M  V30 17 1 15 18
M  V30 18 1 16 19
M  V30 19 1 18 20
M  V30 20 1 10 13
M  V30 21 1 12 15
M  V30 22 1 5 21
M  V30 23 1 5 22
M  V30 24 1 6 23
M  V30 25 1 6 24
M  V30 26 1 7 25
M  V30 27 1 8 26
M  V30 28 1 9 27
M  V30 29 1 9 28
M  V30 30 1 10 29
M  V30 31 1 10 30
M  V30 32 1 17 31
M  V30 33 1 17 32
M  V30 34 1 17 33
M  V30 35 1 19 34
M  V30 36 1 19 35
M  V30 37 1 19 36
M  V30 38 1 20 37
M  V30 39 1 20 38
M  V30 40 1 20 39
M  V30 END BOND
M  V30 END CTAB
M  END
>  <Column 1>
1849

>  <level_0>
2012

>  <index>
2012

>  <Unnamed: 0>
2012

>  <NO.>
2024

>  <Name>
trimetozine

>  <IUPAC_name>
morpholin-4-yl-(3-4-5-trimethoxyphenyl)methanone

>  <SMILES>
COc1cc(C(=O)N2CCOCC2)cc(OC)c1OC

>  <CID>
12478

>  <logBB>


>  <BBB+/BBB->
BBB+

>  <Inchi>
InChI=1S/C14H19NO5/c1-17-11-8-10(9-12(18-2)13(11)19-3)14(16)15-4-6-20-7-5-15/h8-9H-4-7H2-1-3H3

>  <threshold>
-1

>  <reference>
R1|R13|R19|R6|R24|R27|R27|R27|R30|R30|

>  <group>
B

>  <Class>
1

>  <ABC>
14.8

>  <ABCGG>
13.11

>  <nAcid>
0

>  <nBase>
0

>  <nAromAtom>
6

>  <nAromBond>
6

>  <nAtom>
39

>  <nHeavyAtom>
20

>  <nSpiro>
0

>  <nBridgehead>
0

>  <nHetero>
6

>  <nN>
1

>  <nO>
5

>  <nF>
0

>  <BalabanJ>
2

>  <BertzCT>
457.45

>  <nBonds>
40

>  <nBondsO>
21

>  <nBondsS>
33

>  <nBondsD>
1

>  <nBondsT>
0

>  <nBondsA>
6

>  <nBondsM>
7

>  <nBondsKS>
36

>  <nBondsKD>
4

>  <RNCG>
0.2

>  <RPCG>
0.1

>  <FCSP3>
0.5

>  <SZ>
25

>  <Sm>
23.42

>  <Sv>
23.48

>  <Sse>
39.75

>  <Sp>
24.65

>  <Si>
44.28

>  <MZ>
0.64

>  <Mm>
0.6

>  <Mv>
0.6

>  <Mse>
1.02

>  <Mp>
0.63

>  <Mi>
1.14

>  <NsCH3>
3

>  <NdCH2>
0

>  <NssCH2>
4

>  <NtCH>
0

>  <NdsCH>
0

>  <NaaCH>
2

>  <NsssCH>
0

>  <NddC>
0

>  <NtsC>
0

>  <NdssC>
1

>  <NaasC>
4

>  <NaaaC>
0

>  <NssssC>
0

>  <NsNH3>
0

>  <NsNH2>
0

>  <NssNH2>
0

>  <NdNH>
0

>  <NssNH>
0

>  <NaaNH>
0

>  <NtN>
0

>  <NsssNH>
0

>  <NdsN>
0

>  <NaaN>
0

>  <NsssN>
1

>  <NddsN>
0

>  <NaasN>
0

>  <NssssN>
0

>  <NsOH>
0

>  <NdO>
1

>  <NssO>
4

>  <NaaO>
0

>  <NsF>
0

>  <NsSiH3>
0

>  <NssSiH2>
0

>  <NsssSiH>
0

>  <NssssSi>
0

>  <NsPH2>
0

>  <NssPH>
0

>  <NsssP>
0

>  <NdsssP>
0

>  <NsssssP>
0

>  <NsSH>
0

>  <NdS>
0

>  <NssS>
0

>  <NaaS>
0

>  <NdssS>
0

>  <NddssS>
0

>  <NsCl>
0

>  <NsBr>
0

>  <NsI>
0

>  <fragCpx>
61.06

>  <fMF>
0.33

>  <nHBAcc>
5

>  <nHBDon>
0

>  <Kier1>
16.37

>  <Kier2>
7.85

>  <Lipinski>
1

>  <GhoseFilter>
1

>  <FilterItLogS>
-2.61

>  <VMcGowan>
208.53

>  <LabuteASA>
117.72

>  <PEOE_VSA1>
23.85

>  <PEOE_VSA2>
4.79

>  <PEOE_VSA3>
0

>  <PEOE_VSA4>
0

>  <PEOE_VSA5>
0

>  <PEOE_VSA6>
0

>  <PEOE_VSA7>
12.13

>  <PEOE_VSA8>
18.65

>  <PEOE_VSA9>
34.54

>  <PEOE_VSA10>
0

>  <PEOE_VSA11>
11.5

>  <PEOE_VSA12>
5.75

>  <PEOE_VSA13>
5.91

>  <SMR_VSA1>
23.74

>  <SMR_VSA2>
0

>  <SMR_VSA3>
4.9

>  <SMR_VSA4>
0

>  <SMR_VSA5>
0

>  <SMR_VSA6>
47.63

>  <SMR_VSA7>
17.7

>  <SMR_VSA8>
0

>  <SMR_VSA9>
17.25

>  <SlogP_VSA1>
14.21

>  <SlogP_VSA2>
58.44

>  <SlogP_VSA3>
4.74

>  <SlogP_VSA4>
0

>  <SlogP_VSA5>
10.36

>  <SlogP_VSA6>
12.13

>  <SlogP_VSA7>
0

>  <SlogP_VSA8>
0

>  <SlogP_VSA9>
0

>  <SlogP_VSA10>
0

>  <SlogP_VSA11>
17.25

>  <EState_VSA1>
0

>  <EState_VSA2>
5.91

>  <EState_VSA3>
49.12

>  <EState_VSA4>
0

>  <EState_VSA5>
21.33

>  <EState_VSA6>
17.03

>  <EState_VSA7>
0

>  <EState_VSA8>
0

>  <EState_VSA9>
18.95

>  <EState_VSA10>
4.79

>  <VSA_EState1>
21.01

>  <VSA_EState2>
14.21

>  <VSA_EState3>
0

>  <VSA_EState4>
0.52

>  <VSA_EState5>
1.37

>  <VSA_EState6>
3.33

>  <VSA_EState7>
0

>  <VSA_EState8>
2.32

>  <VSA_EState9>
4.59

>  <apol>
41.16

>  <bpol>
28.58

>  <nRing>
2

>  <nHRing>
1

>  <naRing>
1

>  <naHRing>
0

>  <nARing 2>
1

>  <nAHRing 2>
1

>  <nFRing>
0

>  <nFHRing>
0

>  <nFaRing>
0

>  <nFaHRing>
0

>  <nFARing 2>
0

>  <nFAHRing 2>
0

>  <nRot>
4

>  <SLogP>
1.18

>  <SMR>
72.82

>  <TopoPSA(NO)>
57.23

>  <TopoPSA>
57.23

>  <JGI1>
0.17

>  <JGI2>
0.09

>  <JGI3>
0.05

>  <JGI4>
0.04

>  <JGI5>
0.03

>  <Diameter>
10

>  <Radius>
5

>  <TMWC10>
113.52

>  <TSRW10>
53.36

>  <MW>
281.13

>  <AMW>
7.21

>  <WPath>
798

>  <WPol>
32

>  <Zagreb1>
98

>  <Zagreb2>
115

>  <mZagreb2>
4.78

>  <yes>


>  <nAR-cont>
0.816016

>  <nHA-cont>
0.999629945

>  <MWHBN>
0.298206021

>  <MWHBN-cont>
0.846065376

>  <TPSA-cont>
0.600499062

>  <pka_cont>
0.97

>  <yes.1>


>  <BBB_SCORE>
4.770742133

>  <MMFF94 Energy>
98.073

$$$$
Compound 1525
Actelion Java MolfileCreator 2.0

  0  0  0  0  0  0              0 V3000
M  V30 BEGIN CTAB
M  V30 COUNTS 58 61 0 0 0
M  V30 BEGIN ATOM
M  V30 1 F 5.9345 -5.8541 -6.4973 0
M  V30 2 C 5.4687 -5.1538 -5.454 0
M  V30 3 C 4.9501 -3.8801 -5.6757 0
M  V30 4 C 5.5191 -5.7255 -4.1828 0
M  V30 5 C 4.4865 -3.2171 -4.5448 0
M  V30 6 C 5.0421 -5.0263 -3.0646 0
M  V30 7 O 3.9395 -1.9746 -4.5134 0
M  V30 8 C 4.5142 -3.7368 -3.2615 0
M  V30 9 N 3.5949 -1.6518 -3.2135 0
M  V30 10 C 3.943 -2.7068 -2.4625 0
M  V30 11 C 3.7122 -2.7229 -0.9744 0
M  V30 12 C 4.2587 -1.4872 -0.2491 0
M  V30 13 C 2.2437 -2.9652 -0.6094 0
M  V30 14 C 3.3149 -0.2849 -0.3031 0
M  V30 15 C 1.3929 -1.6955 -0.673 0
M  V30 16 N 1.9648 -0.6351 0.1725 0
M  V30 17 C 1.1179 0.5732 0.1819 0
M  V30 18 C -0.2044 0.378 0.9291 0
M  V30 19 C -0.9698 1.6954 1.0408 0
M  V30 20 O -2.196 1.435 1.7219 0
M  V30 21 C -3.0528 2.4867 1.9296 0
M  V30 22 C -4.2577 2.1808 2.5967 0
M  V30 23 C -2.8021 3.8017 1.5296 0
M  V30 24 O -4.4254 0.8651 2.9542 0
M  V30 25 C -5.1922 3.1941 2.8517 0
M  V30 26 C -3.738 4.8064 1.7876 0
M  V30 27 C -5.6114 0.5056 3.6474 0
M  V30 28 C -4.9354 4.5107 2.4481 0
M  V30 29 C -5.8996 5.625 2.697 0
M  V30 30 O -5.629 6.764 2.3212 0
M  V30 31 C -7.1941 5.3295 3.4088 0
M  V30 32 H 4.911 -3.4391 -6.6624 0
M  V30 33 H 5.9338 -6.7234 -4.0673 0
M  V30 34 H 5.0828 -5.4758 -2.0768 0
M  V30 35 H 4.2803 -3.582 -0.5899 0
M  V30 36 H 5.2404 -1.2034 -0.6478 0
M  V30 37 H 4.4171 -1.7486 0.8063 0
M  V30 38 H 2.1995 -3.3586 0.4155 0
M  V30 39 H 1.8031 -3.7347 -1.2553 0
M  V30 40 H 3.7401 0.4926 0.3443 0
M  V30 41 H 3.2786 0.1366 -1.3144 0
M  V30 42 H 1.2805 -1.358 -1.7105 0
M  V30 43 H 0.3935 -1.9688 -0.3183 0
M  V30 44 H 0.9242 0.9205 -0.8415 0
M  V30 45 H 1.6618 1.3797 0.6915 0
M  V30 46 H -0.0212 -0.0198 1.9355 0
M  V30 47 H -0.8447 -0.3538 0.4239 0
M  V30 48 H -0.3718 2.4181 1.6088 0
M  V30 49 H -1.1746 2.0836 0.0358 0
M  V30 50 H -1.8891 4.0823 1.0152 0
M  V30 51 H -6.1183 2.9617 3.3621 0
M  V30 52 H -3.5245 5.8256 1.4681 0
M  V30 53 H -5.6822 1.0283 4.607 0
M  V30 54 H -5.5649 -0.5674 3.8564 0
M  V30 55 H -6.4984 0.686 3.0313 0
M  V30 56 H -7.7908 4.6189 2.831 0
M  V30 57 H -6.9958 4.9486 4.414 0
M  V30 58 H -7.7702 6.2552 3.5055 0
M  V30 END ATOM
M  V30 BEGIN BOND
M  V30 1 1 1 2
M  V30 2 2 2 3
M  V30 3 1 2 4
M  V30 4 1 3 5
M  V30 5 2 4 6
M  V30 6 1 5 7
M  V30 7 2 5 8
M  V30 8 1 7 9
M  V30 9 1 8 10
M  V30 10 1 10 11
M  V30 11 1 11 12
M  V30 12 1 11 13
M  V30 13 1 12 14
M  V30 14 1 13 15
M  V30 15 1 14 16
M  V30 16 1 16 17
M  V30 17 1 17 18
M  V30 18 1 18 19
M  V30 19 1 19 20
M  V30 20 1 20 21
M  V30 21 2 21 22
M  V30 22 1 21 23
M  V30 23 1 22 24
M  V30 24 1 22 25
M  V30 25 2 23 26
M  V30 26 1 24 27
M  V30 27 2 25 28
M  V30 28 1 28 29
M  V30 29 2 29 30
M  V30 30 1 29 31
M  V30 31 1 6 8
M  V30 32 2 9 10
M  V30 33 1 15 16
M  V30 34 1 26 28
M  V30 35 1 3 32
M  V30 36 1 4 33
M  V30 37 1 6 34
M  V30 38 1 11 35
M  V30 39 1 12 36
M  V30 40 1 12 37
M  V30 41 1 13 38
M  V30 42 1 13 39
M  V30 43 1 14 40
M  V30 44 1 14 41
M  V30 45 1 15 42
M  V30 46 1 15 43
M  V30 47 1 17 44
M  V30 48 1 17 45
M  V30 49 1 18 46
M  V30 50 1 18 47
M  V30 51 1 19 48
M  V30 52 1 19 49
M  V30 53 1 23 50
M  V30 54 1 25 51
M  V30 55 1 26 52
M  V30 56 1 27 53
M  V30 57 1 27 54
M  V30 58 1 27 55
M  V30 59 1 31 56
M  V30 60 1 31 57
M  V30 61 1 31 58
M  V30 END BOND
M  V30 END CTAB
M  END
>  <Column 1>
1851

>  <level_0>
2014

>  <index>
2014

>  <Unnamed: 0>
2014

>  <NO.>
2026

>  <Name>
iloperidone

>  <IUPAC_name>
1-[4-[3-[4-(6-fluoro-1-2-benzoxazol-3-yl)piperidin-1-yl]propoxy]-3-methoxyphenyl]ethanone

>  <SMILES>
COc1cc(C(C)=O)ccc1OCCCN1CCC(c2noc3cc(F)ccc23)CC1

>  <CID>
71360

>  <logBB>


>  <BBB+/BBB->
BBB+

>  <Inchi>
InChI=1S/C24H27FN2O4/c1-16(28)18-4-7-21(23(14-18)29-2)30-13-3-10-27-11-8-17(9-12-27)24-20-6-5-19(25)15-22(20)31-26-24/h4-7-14-15-17H-3-8-13H2-1-2H3

>  <threshold>
-1

>  <reference>
R1|R13|R19|R6|R23|R24|R27|R27|R27|R30|R30|

>  <group>
B

>  <Class>
1

>  <ABC>
24.17

>  <ABCGG>
17.36

>  <nAcid>
0

>  <nBase>
1

>  <nAromAtom>
15

>  <nAromBond>
16

>  <nAtom>
58

>  <nHeavyAtom>
31

>  <nSpiro>
0

>  <nBridgehead>
0

>  <nHetero>
7

>  <nN>
2

>  <nO>
4

>  <nF>
1

>  <BalabanJ>
1.12

>  <BertzCT>
1056.91

>  <nBonds>
61

>  <nBondsO>
34

>  <nBondsS>
44

>  <nBondsD>
1

>  <nBondsT>
0

>  <nBondsA>
16

>  <nBondsM>
17

>  <nBondsKS>
53

>  <nBondsKD>
8

>  <RNCG>
0.2

>  <RPCG>
0.07

>  <FCSP3>
0.42

>  <SZ>
37.67

>  <Sm>
35.51

>  <Sv>
36.34

>  <Sse>
58.59

>  <Sp>
38.35

>  <Si>
65.57

>  <MZ>
0.65

>  <Mm>
0.61

>  <Mv>
0.63

>  <Mse>
1.01

>  <Mp>
0.66

>  <Mi>
1.13

>  <NsCH3>
2

>  <NdCH2>
0

>  <NssCH2>
7

>  <NtCH>
0

>  <NdsCH>
0

>  <NaaCH>
6

>  <NsssCH>
1

>  <NddC>
0

>  <NtsC>
0

>  <NdssC>
1

>  <NaasC>
5

>  <NaaaC>
2

>  <NssssC>
0

>  <NsNH3>
0

>  <NsNH2>
0

>  <NssNH2>
0

>  <NdNH>
0

>  <NssNH>
0

>  <NaaNH>
0

>  <NtN>
0

>  <NsssNH>
0

>  <NdsN>
0

>  <NaaN>
1

>  <NsssN>
1

>  <NddsN>
0

>  <NaasN>
0

>  <NssssN>
0

>  <NsOH>
0

>  <NdO>
1

>  <NssO>
2

>  <NaaO>
1

>  <NsF>
1

>  <NsSiH3>
0

>  <NssSiH2>
0

>  <NsssSiH>
0

>  <NssssSi>
0

>  <NsPH2>
0

>  <NssPH>
0

>  <NsssP>
0

>  <NdsssP>
0

>  <NsssssP>
0

>  <NsSH>
0

>  <NdS>
0

>  <NssS>
0

>  <NaaS>
0

>  <NdssS>
0

>  <NddssS>
0

>  <NsCl>
0

>  <NsBr>
0

>  <NsI>
0

>  <fragCpx>
226.07

>  <fMF>
0.43

>  <nHBAcc>
6

>  <nHBDon>
0

>  <Kier1>
24.13

>  <Kier2>
11.42

>  <Lipinski>
1

>  <GhoseFilter>
1

>  <FilterItLogS>
-6.61

>  <VMcGowan>
316.38

>  <LabuteASA>
180.46

>  <PEOE_VSA1>
18.9

>  <PEOE_VSA2>
4.79

>  <PEOE_VSA3>
4.39

>  <PEOE_VSA4>
0

>  <PEOE_VSA5>
0

>  <PEOE_VSA6>
5.16

>  <PEOE_VSA7>
69.61

>  <PEOE_VSA8>
29.48

>  <PEOE_VSA9>
19.41

>  <PEOE_VSA10>
5.82

>  <PEOE_VSA11>
22.87

>  <PEOE_VSA12>
0

>  <PEOE_VSA13>
0

>  <SMR_VSA1>
23.18

>  <SMR_VSA2>
0

>  <SMR_VSA3>
10.06

>  <SMR_VSA4>
0

>  <SMR_VSA5>
32.1

>  <SMR_VSA6>
33.35

>  <SMR_VSA7>
53.47

>  <SMR_VSA8>
0

>  <SMR_VSA9>
11.5

>  <SlogP_VSA1>
9.47

>  <SlogP_VSA2>
49.19

>  <SlogP_VSA3>
0

>  <SlogP_VSA4>
5.82

>  <SlogP_VSA5>
48.16

>  <SlogP_VSA6>
40.92

>  <SlogP_VSA7>
0

>  <SlogP_VSA8>
10.97

>  <SlogP_VSA9>
0

>  <SlogP_VSA10>
4.39

>  <SlogP_VSA11>
11.5

>  <EState_VSA1>
0

>  <EState_VSA2>
11.6

>  <EState_VSA3>
35.17

>  <EState_VSA4>
49.98

>  <EState_VSA5>
19.06

>  <EState_VSA6>
31.38

>  <EState_VSA7>
0

>  <EState_VSA8>
10.06

>  <EState_VSA9>
14

>  <EState_VSA10>
9.18

>  <VSA_EState1>
29.9

>  <VSA_EState2>
13.94

>  <VSA_EState3>
5.13

>  <VSA_EState4>
2.07

>  <VSA_EState5>
1.26

>  <VSA_EState6>
9.87

>  <VSA_EState7>
2.9

>  <VSA_EState8>
5.03

>  <VSA_EState9>
1.57

>  <apol>
64.05

>  <bpol>
35.99

>  <nRing>
4

>  <nHRing>
2

>  <naRing>
3

>  <naHRing>
1

>  <nARing 2>
1

>  <nAHRing 2>
1

>  <nFRing>
1

>  <nFHRing>
1

>  <nFaRing>
1

>  <nFaHRing>
1

>  <nFARing 2>
0

>  <nFAHRing 2>
0

>  <nRot>
8

>  <SLogP>
4.83

>  <SMR>
115.49

>  <TopoPSA(NO)>
64.8

>  <TopoPSA>
64.8

>  <JGI1>
0.18

>  <JGI2>
0.08

>  <JGI3>
0.04

>  <JGI4>
0.04

>  <JGI5>
0.03

>  <Diameter>
19

>  <Radius>
10

>  <TMWC10>
142.08

>  <TSRW10>
80.76

>  <MW>
426.2

>  <AMW>
7.35

>  <WPath>
3379

>  <WPol>
48

>  <Zagreb1>
162

>  <Zagreb2>
190

>  <mZagreb2>
6.89

>  <yes>


>  <nAR-cont>
0.816016

>  <nHA-cont>
0.702745138

>  <MWHBN>
0.290632734

>  <MWHBN-cont>
0.867792505

>  <TPSA-cont>
0.547655762

>  <pka_cont>
0.97

>  <yes.1>


>  <BBB_SCORE>
4.400761418

>  <MMFF94 Energy>
62.598

$$$$
Compound 1526
Actelion Java MolfileCreator 2.0

  0  0  0  0  0  0              0 V3000
M  V30 BEGIN CTAB
M  V30 COUNTS 32 32 0 0 0
M  V30 BEGIN ATOM
M  V30 1 O 2.3318 1.3208 -1.7873 0
M  V30 2 C 1.4253 0.7809 -0.8998 0
M  V30 3 C 1.7596 1.3628 -3.093 0
M  V30 4 C 1.4475 -0.6022 -0.6525 0
M  V30 5 C 0.5532 1.6344 -0.2026 0
M  V30 6 O 2.3515 -1.3361 -1.3766 0
M  V30 7 C 0.5502 -1.1358 0.2758 0
M  V30 8 O 0.6321 2.9686 -0.509 0
M  V30 9 C -0.3347 1.0801 0.7222 0
M  V30 10 C 2.5676 -2.6814 -0.9744 0
M  V30 11 C -0.3418 -0.3023 0.9694 0
M  V30 12 C -0.0861 3.871 0.3206 0
M  V30 13 C -1.3256 -0.8907 1.9549 0
M  V30 14 C -2.6606 -1.2332 1.2851 0
M  V30 15 N -3.6042 -1.7972 2.2484 0
M  V30 16 H 1.5144 0.3584 -3.4551 0
M  V30 17 H 2.5038 1.7923 -3.7703 0
M  V30 18 H 0.8705 2.0023 -3.1204 0
M  V30 19 H 0.5212 -2.2023 0.4754 0
M  V30 20 H -1.0395 1.7029 1.265 0
M  V30 21 H 2.853 -2.7425 0.0811 0
M  V30 22 H 3.3977 -3.0781 -1.5668 0
M  V30 23 H 1.687 -3.2976 -1.1827 0
M  V30 24 H -1.1661 3.7446 0.1936 0
M  V30 25 H 0.1677 4.8881 0.0067 0
M  V30 26 H 0.2044 3.7651 1.3713 0
M  V30 27 H -1.4831 -0.1802 2.7771 0
M  V30 28 H -0.8884 -1.7876 2.413 0
M  V30 29 H -2.5063 -1.9503 0.4706 0
M  V30 30 H -3.1037 -0.3328 0.8443 0
M  V30 31 H -4.4733 -2.0309 1.7687 0
M  V30 32 H -3.2388 -2.6756 2.6147 0
M  V30 END ATOM
M  V30 BEGIN BOND
M  V30 1 1 1 2
M  V30 2 1 1 3
M  V30 3 2 2 4
M  V30 4 1 2 5
M  V30 5 1 4 6
M  V30 6 1 4 7
M  V30 7 1 5 8
M  V30 8 2 5 9
M  V30 9 1 6 10
M  V30 10 2 7 11
M  V30 11 1 8 12
M  V30 12 1 11 13
M  V30 13 1 13 14
M  V30 14 1 14 15
M  V30 15 1 9 11
M  V30 16 1 3 16
M  V30 17 1 3 17
M  V30 18 1 3 18
M  V30 19 1 7 19
M  V30 20 1 9 20
M  V30 21 1 10 21
M  V30 22 1 10 22
M  V30 23 1 10 23
M  V30 24 1 12 24
M  V30 25 1 12 25
M  V30 26 1 12 26
M  V30 27 1 13 27
M  V30 28 1 13 28
M  V30 29 1 14 29
M  V30 30 1 14 30
M  V30 31 1 15 31
M  V30 32 1 15 32
M  V30 END BOND
M  V30 END CTAB
M  END
>  <Column 1>
1852

>  <level_0>
2015

>  <index>
2015

>  <Unnamed: 0>
2015

>  <NO.>
2027

>  <Name>
mescaline

>  <IUPAC_name>
2-(3-4-5-trimethoxyphenyl)ethanamine

>  <SMILES>
COc1cc(CCN)cc(OC)c1OC

>  <CID>
4076

>  <logBB>


>  <BBB+/BBB->
BBB+

>  <Inchi>
InChI=1S/C11H17NO3/c1-13-9-6-8(4-5-12)7-10(14-2)11(9)15-3/h6-7H-4-5-12H2-1-3H3

>  <threshold>
-1

>  <reference>
R1|R13|R27|R30|

>  <group>
B

>  <Class>
1

>  <ABC>
10.53

>  <ABCGG>
10.19

>  <nAcid>
0

>  <nBase>
1

>  <nAromAtom>
6

>  <nAromBond>
6

>  <nAtom>
32

>  <nHeavyAtom>
15

>  <nSpiro>
0

>  <nBridgehead>
0

>  <nHetero>
4

>  <nN>
1

>  <nO>
3

>  <nF>
0

>  <BalabanJ>
2.6

>  <BertzCT>
300.6

>  <nBonds>
32

>  <nBondsO>
15

>  <nBondsS>
26

>  <nBondsD>
0

>  <nBondsT>
0

>  <nBondsA>
6

>  <nBondsM>
6

>  <nBondsKS>
29

>  <nBondsKD>
3

>  <RNCG>
0.26

>  <RPCG>
0.11

>  <FCSP3>
0.45

>  <SZ>
19

>  <Sm>
17.59

>  <Sv>
18.51

>  <Sse>
32.2

>  <Sp>
19.89

>  <Si>
36.45

>  <MZ>
0.59

>  <Mm>
0.55

>  <Mv>
0.58

>  <Mse>
1.01

>  <Mp>
0.62

>  <Mi>
1.14

>  <NsCH3>
3

>  <NdCH2>
0

>  <NssCH2>
2

>  <NtCH>
0

>  <NdsCH>
0

>  <NaaCH>
2

>  <NsssCH>
0

>  <NddC>
0

>  <NtsC>
0

>  <NdssC>
0

>  <NaasC>
4

>  <NaaaC>
0

>  <NssssC>
0

>  <NsNH3>
0

>  <NsNH2>
1

>  <NssNH2>
0

>  <NdNH>
0

>  <NssNH>
0

>  <NaaNH>
0

>  <NtN>
0

>  <NsssNH>
0

>  <NdsN>
0

>  <NaaN>
0

>  <NsssN>
0

>  <NddsN>
0

>  <NaasN>
0

>  <NssssN>
0

>  <NsOH>
0

>  <NdO>
0

>  <NssO>
3

>  <NaaO>
0

>  <NsF>
0

>  <NsSiH3>
0

>  <NssSiH2>
0

>  <NsssSiH>
0

>  <NssssSi>
0

>  <NsPH2>
0

>  <NssPH>
0

>  <NsssP>
0

>  <NdsssP>
0

>  <NsssssP>
0

>  <NsSH>
0

>  <NdS>
0

>  <NssS>
0

>  <NaaS>
0

>  <NdssS>
0

>  <NddssS>
0

>  <NsCl>
0

>  <NsBr>
0

>  <NsI>
0

>  <fragCpx>
15.04

>  <fMF>
0.19

>  <nHBAcc>
4

>  <nHBDon>
1

>  <Kier1>
13.07

>  <Kier2>
6.55

>  <Lipinski>
1

>  <GhoseFilter>
1

>  <FilterItLogS>
-2.94

>  <VMcGowan>
169.68

>  <LabuteASA>
89.94

>  <PEOE_VSA1>
19.94

>  <PEOE_VSA2>
0

>  <PEOE_VSA3>
0

>  <PEOE_VSA4>
0

>  <PEOE_VSA5>
0

>  <PEOE_VSA6>
0

>  <PEOE_VSA7>
30.66

>  <PEOE_VSA8>
0

>  <PEOE_VSA9>
21.33

>  <PEOE_VSA10>
0

>  <PEOE_VSA11>
11.5

>  <PEOE_VSA12>
5.75

>  <PEOE_VSA13>
0

>  <SMR_VSA1>
14.21

>  <SMR_VSA2>
0

>  <SMR_VSA3>
0

>  <SMR_VSA4>
5.73

>  <SMR_VSA5>
6.42

>  <SMR_VSA6>
27.87

>  <SMR_VSA7>
17.7

>  <SMR_VSA8>
0

>  <SMR_VSA9>
17.25

>  <SlogP_VSA1>
19.94

>  <SlogP_VSA2>
27.87

>  <SlogP_VSA3>
6.42

>  <SlogP_VSA4>
0

>  <SlogP_VSA5>
5.56

>  <SlogP_VSA6>
12.13

>  <SlogP_VSA7>
0

>  <SlogP_VSA8>
0

>  <SlogP_VSA9>
0

>  <SlogP_VSA10>
0

>  <SlogP_VSA11>
17.25

>  <EState_VSA1>
0

>  <EState_VSA2>
0

>  <EState_VSA3>
23.79

>  <EState_VSA4>
11.98

>  <EState_VSA5>
0

>  <EState_VSA6>
21.33

>  <EState_VSA7>
12.13

>  <EState_VSA8>
0

>  <EState_VSA9>
19.94

>  <EState_VSA10>
0

>  <VSA_EState1>
15.65

>  <VSA_EState2>
0

>  <VSA_EState3>
0

>  <VSA_EState4>
6.58

>  <VSA_EState5>
1.95

>  <VSA_EState6>
3.82

>  <VSA_EState7>
0.79

>  <VSA_EState8>
0.6

>  <VSA_EState9>
4.79

>  <apol>
33.21

>  <bpol>
21.69

>  <nRing>
1

>  <nHRing>
0

>  <naRing>
1

>  <naHRing>
0

>  <nARing 2>
0

>  <nAHRing 2>
0

>  <nFRing>
0

>  <nFHRing>
0

>  <nFaRing>
0

>  <nFaHRing>
0

>  <nFARing 2>
0

>  <nFAHRing 2>
0

>  <nRot>
5

>  <SLogP>
1.21

>  <SMR>
58.86

>  <TopoPSA(NO)>
53.71

>  <TopoPSA>
53.71

>  <JGI1>
0.2

>  <JGI2>
0.08

>  <JGI3>
0.06

>  <JGI4>
0.05

>  <JGI5>
0.03

>  <Diameter>
8

>  <Radius>
5

>  <TMWC10>
98.69

>  <TSRW10>
46.41

>  <MW>
211.12

>  <AMW>
6.6

>  <WPath>
362

>  <WPol>
22

>  <Zagreb1>
68

>  <Zagreb2>
78

>  <mZagreb2>
3.81

>  <yes>


>  <nAR-cont>
0.336376

>  <nHA-cont>
0.92539861

>  <MWHBN>
0.344116356

>  <MWHBN-cont>
0.692079774

>  <TPSA-cont>
0.625070848

>  <pka_cont>
0.97

>  <yes.1>


>  <BBB_SCORE>
4.035035968

>  <MMFF94 Energy>
69.597

$$$$
Compound 1527
Actelion Java MolfileCreator 2.0

  0  0  0  0  0  0              0 V3000
M  V30 BEGIN CTAB
M  V30 COUNTS 57 60 0 0 0
M  V30 BEGIN ATOM
M  V30 1 O -6.5867 0.0791 -1.9804 0
M  V30 2 C -5.3975 0.613 -1.5387 0
M  V30 3 C -7.4877 0.9433 -2.6562 0
M  V30 4 C -4.5407 -0.2792 -0.8647 0
M  V30 5 C -5.0249 1.9523 -1.7281 0
M  V30 6 O -5.0008 -1.5691 -0.7335 0
M  V30 7 C -3.3031 0.1658 -0.3736 0
M  V30 8 C -3.7823 2.3658 -1.2279 0
M  V30 9 C -4.1619 -2.504 -0.0716 0
M  V30 10 C -2.915 1.5104 -0.5575 0
M  V30 11 N -3.1782 3.6 -1.2737 0
M  V30 12 C -1.7538 2.2696 -0.1967 0
M  V30 13 C -1.9506 3.5606 -0.6618 0
M  V30 14 C -0.5518 1.7545 0.5415 0
M  V30 15 C -1.0844 4.7649 -0.5764 0
M  V30 16 C 0.4464 1.0578 -0.3995 0
M  V30 17 N 1.6949 0.6379 0.2687 0
M  V30 18 C 2.6804 0.1948 -0.7474 0
M  V30 19 C 1.4689 -0.4824 1.2115 0
M  V30 20 C 4.0156 -0.2851 -0.1356 0
M  V30 21 C 2.7677 -0.9962 1.8783 0
M  V30 22 N 3.7894 -1.334 0.8707 0
M  V30 23 C 4.8292 -2.1757 1.2546 0
M  V30 24 C 6.1793 -1.8589 1.039 0
M  V30 25 C 4.5607 -3.412 1.8649 0
M  V30 26 C 7.2107 -2.7223 1.429 0
M  V30 27 C 5.5848 -4.2822 2.2562 0
M  V30 28 C 6.9128 -3.9347 2.0402 0
M  V30 29 H -7.8173 1.7594 -2.0046 0
M  V30 30 H -8.372 0.3586 -2.9276 0
M  V30 31 H -7.0475 1.3277 -3.5821 0
M  V30 32 H -5.6581 2.6643 -2.2415 0
M  V30 33 H -2.6244 -0.4954 0.1495 0
M  V30 34 H -3.2168 -2.6369 -0.6082 0
M  V30 35 H -4.6774 -3.4692 -0.0644 0
M  V30 36 H -3.9898 -2.2125 0.9697 0
M  V30 37 H -3.587 4.4182 -1.7032 0
M  V30 38 H -0.8945 1.0661 1.3225 0
M  V30 39 H -0.054 2.5853 1.0575 0
M  V30 40 H -1.0406 5.127 0.4556 0
M  V30 41 H -1.4596 5.5773 -1.2071 0
M  V30 42 H -0.0668 4.5287 -0.9032 0
M  V30 43 H -0.0345 0.203 -0.894 0
M  V30 44 H 0.7001 1.7714 -1.1954 0
M  V30 45 H 2.2564 -0.6182 -1.3526 0
M  V30 46 H 2.9026 1.0262 -1.4275 0
M  V30 47 H 0.7974 -0.1655 2.0166 0
M  V30 48 H 0.9853 -1.3203 0.6914 0
M  V30 49 H 4.6372 -0.6643 -0.9561 0
M  V30 50 H 4.5354 0.565 0.3242 0
M  V30 51 H 3.1679 -0.2227 2.5467 0
M  V30 52 H 2.4993 -1.855 2.5026 0
M  V30 53 H 6.46 -0.9157 0.5798 0
M  V30 54 H 3.5334 -3.7321 2.016 0
M  V30 55 H 8.2455 -2.4405 1.2543 0
M  V30 56 H 5.338 -5.2329 2.7205 0
M  V30 57 H 7.7109 -4.607 2.3415 0
M  V30 END ATOM
M  V30 BEGIN BOND
M  V30 1 1 1 2
M  V30 2 1 1 3
M  V30 3 2 2 4
M  V30 4 1 2 5
M  V30 5 1 4 6
M  V30 6 1 4 7
M  V30 7 2 5 8
M  V30 8 1 6 9
M  V30 9 2 7 10
M  V30 10 1 8 11
M  V30 11 1 10 12
M  V30 12 1 11 13
M  V30 13 1 12 14
M  V30 14 1 13 15
M  V30 15 1 14 16
M  V30 16 1 16 17
M  V30 17 1 17 18
M  V30 18 1 17 19
M  V30 19 1 18 20
M  V30 20 1 19 21
M  V30 21 1 20 22
M  V30 22 1 22 23
M  V30 23 2 23 24
M  V30 24 1 23 25
M  V30 25 1 24 26
M  V30 26 2 25 27
M  V30 27 2 26 28
M  V30 28 1 8 10
M  V30 29 2 12 13
M  V30 30 1 21 22
M  V30 31 1 27 28
M  V30 32 1 3 29
M  V30 33 1 3 30
M  V30 34 1 3 31
M  V30 35 1 5 32
M  V30 36 1 7 33
M  V30 37 1 9 34
M  V30 38 1 9 35
M  V30 39 1 9 36
M  V30 40 1 11 37
M  V30 41 1 14 38
M  V30 42 1 14 39
M  V30 43 1 15 40
M  V30 44 1 15 41
M  V30 45 1 15 42
M  V30 46 1 16 43
M  V30 47 1 16 44
M  V30 48 1 18 45
M  V30 49 1 18 46
M  V30 50 1 19 47
M  V30 51 1 19 48
M  V30 52 1 20 49
M  V30 53 1 20 50
M  V30 54 1 21 51
M  V30 55 1 21 52
M  V30 56 1 24 53
M  V30 57 1 25 54
M  V30 58 1 26 55
M  V30 59 1 27 56
M  V30 60 1 28 57
M  V30 END BOND
M  V30 END CTAB
M  END
>  <Column 1>
1854

>  <level_0>
2018

>  <index>
2018

>  <Unnamed: 0>
2018

>  <NO.>
2030

>  <Name>
oxypertine

>  <IUPAC_name>
5-6-dimethoxy-2-methyl-3-[2-(4-phenylpiperazin-1-yl)ethyl]-1h-indole

>  <SMILES>
COc1cc2[nH]c(C)c(CCN3CCN(c4ccccc4)CC3)c2cc1OC

>  <CID>
4640

>  <logBB>


>  <BBB+/BBB->
BBB+

>  <Inchi>
InChI=1S/C23H29N3O2/c1-17-19(20-15-22(27-2)23(28-3)16-21(20)24-17)9-10-25-11-13-26(14-12-25)18-7-5-4-6-8-18/h4-8-15-16-24H-9-14H2-1-3H3

>  <threshold>
-1

>  <reference>
R1|R13|R19|R6|R14|R23|R24|R27|R27|R27|R30|R30|

>  <group>
B

>  <Class>
1

>  <ABC>
21.83

>  <ABCGG>
16.38

>  <nAcid>
0

>  <nBase>
1

>  <nAromAtom>
15

>  <nAromBond>
16

>  <nAtom>
57

>  <nHeavyAtom>
28

>  <nSpiro>
0

>  <nBridgehead>
0

>  <nHetero>
5

>  <nN>
3

>  <nO>
2

>  <nF>
0

>  <BalabanJ>
1.24

>  <BertzCT>
927.92

>  <nBonds>
60

>  <nBondsO>
31

>  <nBondsS>
44

>  <nBondsD>
0

>  <nBondsT>
0

>  <nBondsA>
16

>  <nBondsM>
16

>  <nBondsKS>
53

>  <nBondsKD>
7

>  <RNCG>
0.21

>  <RPCG>
0.07

>  <FCSP3>
0.39

>  <SZ>
34

>  <Sm>
31.6

>  <Sv>
34.56

>  <Sse>
56.52

>  <Sp>
37.52

>  <Si>
64.31

>  <MZ>
0.6

>  <Mm>
0.55

>  <Mv>
0.61

>  <Mse>
0.99

>  <Mp>
0.66

>  <Mi>
1.13

>  <NsCH3>
3

>  <NdCH2>
0

>  <NssCH2>
6

>  <NtCH>
0

>  <NdsCH>
0

>  <NaaCH>
7

>  <NsssCH>
0

>  <NddC>
0

>  <NtsC>
0

>  <NdssC>
0

>  <NaasC>
5

>  <NaaaC>
2

>  <NssssC>
0

>  <NsNH3>
0

>  <NsNH2>
0

>  <NssNH2>
0

>  <NdNH>
0

>  <NssNH>
0

>  <NaaNH>
1

>  <NtN>
0

>  <NsssNH>
0

>  <NdsN>
0

>  <NaaN>
0

>  <NsssN>
2

>  <NddsN>
0

>  <NaasN>
0

>  <NssssN>
0

>  <NsOH>
0

>  <NdO>
0

>  <NssO>
2

>  <NaaO>
0

>  <NsF>
0

>  <NsSiH3>
0

>  <NssSiH2>
0

>  <NsssSiH>
0

>  <NssssSi>
0

>  <NsPH2>
0

>  <NssPH>
0

>  <NsssP>
0

>  <NdsssP>
0

>  <NsssssP>
0

>  <NsSH>
0

>  <NdS>
0

>  <NssS>
0

>  <NaaS>
0

>  <NdssS>
0

>  <NddssS>
0

>  <NsCl>
0

>  <NsBr>
0

>  <NsI>
0

>  <fragCpx>
205.05

>  <fMF>
0.4

>  <nHBAcc>
4

>  <nHBDon>
1

>  <Kier1>
21.24

>  <Kier2>
9.87

>  <Lipinski>
1

>  <GhoseFilter>
1

>  <FilterItLogS>
-5.91

>  <VMcGowan>
303.07

>  <LabuteASA>
166.4

>  <PEOE_VSA1>
19.36

>  <PEOE_VSA2>
4.9

>  <PEOE_VSA3>
0

>  <PEOE_VSA4>
0

>  <PEOE_VSA5>
0

>  <PEOE_VSA6>
18.2

>  <PEOE_VSA7>
37.11

>  <PEOE_VSA8>
61.07

>  <PEOE_VSA9>
14.22

>  <PEOE_VSA10>
0

>  <PEOE_VSA11>
11.5

>  <PEOE_VSA12>
0

>  <PEOE_VSA13>
0

>  <SMR_VSA1>
9.47

>  <SMR_VSA2>
0

>  <SMR_VSA3>
9.88

>  <SMR_VSA4>
0

>  <SMR_VSA5>
13.34

>  <SMR_VSA6>
51.84

>  <SMR_VSA7>
53.72

>  <SMR_VSA8>
0

>  <SMR_VSA9>
11.5

>  <SlogP_VSA1>
14.37

>  <SlogP_VSA2>
56.83

>  <SlogP_VSA3>
6.42

>  <SlogP_VSA4>
6.92

>  <SlogP_VSA5>
11.26

>  <SlogP_VSA6>
42.46

>  <SlogP_VSA7>
0

>  <SlogP_VSA8>
10.9

>  <SlogP_VSA9>
0

>  <SlogP_VSA10>
5.69

>  <SlogP_VSA11>
11.5

>  <EState_VSA1>
0

>  <EState_VSA2>
0

>  <EState_VSA3>
0

>  <EState_VSA4>
56.16

>  <EState_VSA5>
22.33

>  <EState_VSA6>
14.22

>  <EState_VSA7>
6.07

>  <EState_VSA8>
58.11

>  <EState_VSA9>
9.47

>  <EState_VSA10>
0

>  <VSA_EState1>
10.94

>  <VSA_EState2>
8.55

>  <VSA_EState3>
1.23

>  <VSA_EState4>
5.05

>  <VSA_EState5>
1.55

>  <VSA_EState6>
14.84

>  <VSA_EState7>
1.03

>  <VSA_EState8>
7.61

>  <VSA_EState9>
3.37

>  <apol>
62.65

>  <bpol>
36.56

>  <nRing>
4

>  <nHRing>
2

>  <naRing>
3

>  <naHRing>
1

>  <nARing 2>
1

>  <nAHRing 2>
1

>  <nFRing>
1

>  <nFHRing>
1

>  <nFaRing>
1

>  <nFaHRing>
1

>  <nFARing 2>
0

>  <nFAHRing 2>
0

>  <nRot>
6

>  <SLogP>
3.86

>  <SMR>
114.94

>  <TopoPSA(NO)>
40.73

>  <TopoPSA>
40.73

>  <JGI1>
0.16

>  <JGI2>
0.08

>  <JGI3>
0.04

>  <JGI4>
0.03

>  <JGI5>
0.03

>  <Diameter>
16

>  <Radius>
8

>  <TMWC10>
135.7

>  <TSRW10>
77.69

>  <MW>
379.23

>  <AMW>
6.65

>  <WPath>
2299

>  <WPol>
45

>  <Zagreb1>
148

>  <Zagreb2>
176

>  <mZagreb2>
6.31

>  <yes>


>  <nAR-cont>
0.816016

>  <nHA-cont>
0.82432561

>  <MWHBN>
0.256754853

>  <MWHBN-cont>
0.947708797

>  <TPSA-cont>
0.715679308

>  <pka_cont>
0.97

>  <yes.1>


>  <BBB_SCORE>
4.978263422

>  <MMFF94 Energy>
147.16

$$$$
Compound 1528
Actelion Java MolfileCreator 2.0

  0  0  0  0  0  0              0 V3000
M  V30 BEGIN CTAB
M  V30 COUNTS 61 64 0 0 0
M  V30 BEGIN ATOM
M  V30 1 O -3.9616 6.0264 -2.6133 0
M  V30 2 C -3.6451 4.8272 -2.0162 0
M  V30 3 C -5.2033 6.1168 -3.2953 0
M  V30 4 C -2.4086 4.7883 -1.3421 0
M  V30 5 C -4.4721 3.6942 -2.054 0
M  V30 6 O -1.6744 5.9517 -1.3664 0
M  V30 7 C -1.9917 3.6113 -0.7005 0
M  V30 8 C -4.0276 2.5343 -1.4042 0
M  V30 9 C -0.4312 5.9592 -0.6802 0
M  V30 10 C -2.8133 2.4642 -0.7304 0
M  V30 11 N -4.627 1.3027 -1.2861 0
M  V30 12 C -2.6915 1.1393 -0.1973 0
M  V30 13 C -3.8332 0.4449 -0.5665 0
M  V30 14 C -1.5369 0.6096 0.6041 0
M  V30 15 C -4.2474 -0.956 -0.2963 0
M  V30 16 C -0.413 0.0671 -0.2958 0
M  V30 17 N 0.7967 -0.3373 0.4487 0
M  V30 18 C 0.5604 -1.555 1.2655 0
M  V30 19 C 1.8973 -0.6246 -0.5067 0
M  V30 20 C 1.8284 -2.0559 1.9973 0
M  V30 21 C 3.1996 -1.0947 0.1818 0
M  V30 22 N 2.9329 -2.2494 1.0455 0
M  V30 23 C 3.9629 -3.1082 1.4309 0
M  V30 24 C 3.7357 -4.4924 1.6529 0
M  V30 25 C 5.2724 -2.626 1.6072 0
M  V30 26 O 2.4556 -4.9468 1.4236 0
M  V30 27 C 4.7881 -5.3246 2.0632 0
M  V30 28 C 6.3162 -3.4635 2.007 0
M  V30 29 C 2.2518 -6.3516 1.3978 0
M  V30 30 C 6.0727 -4.8106 2.239 0
M  V30 31 H -5.2428 5.4198 -4.1388 0
M  V30 32 H -5.2902 7.1303 -3.6989 0
M  V30 33 H -6.0434 5.9597 -2.6107 0
M  V30 34 H -5.4274 3.6892 -2.5625 0
M  V30 35 H -1.0466 3.5488 -0.1756 0
M  V30 36 H -0.5689 5.7778 0.3909 0
M  V30 37 H 0.007 6.9555 -0.7936 0
M  V30 38 H 0.2666 5.2384 -1.1189 0
M  V30 39 H -5.5272 1.068 -1.6807 0
M  V30 40 H -1.9051 -0.174 1.276 0
M  V30 41 H -1.1455 1.409 1.246 0
M  V30 42 H -4.5241 -1.072 0.7563 0
M  V30 43 H -5.1062 -1.248 -0.9094 0
M  V30 44 H -3.4278 -1.6476 -0.516 0
M  V30 45 H -0.7906 -0.7639 -0.907 0
M  V30 46 H -0.1366 0.8652 -0.9983 0
M  V30 47 H -0.1947 -1.3497 2.0317 0
M  V30 48 H 0.1758 -2.3651 0.6313 0
M  V30 49 H 1.5799 -1.394 -1.224 0
M  V30 50 H 2.1281 0.2817 -1.0797 0
M  V30 51 H 1.5704 -2.9714 2.5396 0
M  V30 52 H 2.1319 -1.3169 2.7507 0
M  V30 53 H 3.6185 -0.2708 0.7733 0
M  V30 54 H 3.9229 -1.3562 -0.6002 0
M  V30 55 H 5.4928 -1.5728 1.4579 0
M  V30 56 H 4.6386 -6.3815 2.2535 0
M  V30 57 H 7.3146 -3.0569 2.1433 0
M  V30 58 H 2.9012 -6.8369 0.6615 0
M  V30 59 H 1.2156 -6.5329 1.0958 0
M  V30 60 H 2.3862 -6.7856 2.3939 0
M  V30 61 H 6.8816 -5.4637 2.5554 0
M  V30 END ATOM
M  V30 BEGIN BOND
M  V30 1 1 1 2
M  V30 2 1 1 3
M  V30 3 2 2 4
M  V30 4 1 2 5
M  V30 5 1 4 6
M  V30 6 1 4 7
M  V30 7 2 5 8
M  V30 8 1 6 9
M  V30 9 2 7 10
M  V30 10 1 8 11
M  V30 11 1 10 12
M  V30 12 1 11 13
M  V30 13 1 12 14
M  V30 14 1 13 15
M  V30 15 1 14 16
M  V30 16 1 16 17
M  V30 17 1 17 18
M  V30 18 1 17 19
M  V30 19 1 18 20
M  V30 20 1 19 21
M  V30 21 1 20 22
M  V30 22 1 22 23
M  V30 23 2 23 24
M  V30 24 1 23 25
M  V30 25 1 24 26
M  V30 26 1 24 27
M  V30 27 2 25 28
M  V30 28 1 26 29
M  V30 29 2 27 30
M  V30 30 1 8 10
M  V30 31 2 12 13
M  V30 32 1 21 22
M  V30 33 1 28 30
M  V30 34 1 3 31
M  V30 35 1 3 32
M  V30 36 1 3 33
M  V30 37 1 5 34
M  V30 38 1 7 35
M  V30 39 1 9 36
M  V30 40 1 9 37
M  V30 41 1 9 38
M  V30 42 1 11 39
M  V30 43 1 14 40
M  V30 44 1 14 41
M  V30 45 1 15 42
M  V30 46 1 15 43
M  V30 47 1 15 44
M  V30 48 1 16 45
M  V30 49 1 16 46
M  V30 50 1 18 47
M  V30 51 1 18 48
M  V30 52 1 19 49
M  V30 53 1 19 50
M  V30 54 1 20 51
M  V30 55 1 20 52
M  V30 56 1 21 53
M  V30 57 1 21 54
M  V30 58 1 25 55
M  V30 59 1 27 56
M  V30 60 1 28 57
M  V30 61 1 29 58
M  V30 62 1 29 59
M  V30 63 1 29 60
M  V30 64 1 30 61
M  V30 END BOND
M  V30 END CTAB
M  END
>  <Column 1>
1855

>  <level_0>
2019

>  <index>
2019

>  <Unnamed: 0>
2019

>  <NO.>
2031

>  <Name>
milipertine

>  <IUPAC_name>
5-6-dimethoxy-3-[2-[4-(2-methoxyphenyl)piperazin-1-yl]ethyl]-2-methyl-1h-indole

>  <SMILES>
COc1cc2[nH]c(C)c(CCN3CCN(c4ccccc4OC)CC3)c2cc1OC

>  <CID>
32345

>  <logBB>


>  <BBB+/BBB->
BBB+

>  <Inchi>
InChI=1S/C24H31N3O3/c1-17-18(19-15-23(29-3)24(30-4)16-20(19)25-17)9-10-26-11-13-27(14-12-26)21-7-5-6-8-22(21)28-2/h5-8-15-16-25H-9-14H2-1-4H3

>  <threshold>
-1

>  <reference>
R1|R13|R19|R6|R24|R27|R27|R27|R30|R30|

>  <group>
B

>  <Class>
1

>  <ABC>
23.2

>  <ABCGG>
17.58

>  <nAcid>
0

>  <nBase>
1

>  <nAromAtom>
15

>  <nAromBond>
16

>  <nAtom>
61

>  <nHeavyAtom>
30

>  <nSpiro>
0

>  <nBridgehead>
0

>  <nHetero>
6

>  <nN>
3

>  <nO>
3

>  <nF>
0

>  <BalabanJ>
1.25

>  <BertzCT>
1006.34

>  <nBonds>
64

>  <nBondsO>
33

>  <nBondsS>
48

>  <nBondsD>
0

>  <nBondsT>
0

>  <nBondsA>
16

>  <nBondsM>
16

>  <nBondsKS>
57

>  <nBondsKD>
7

>  <RNCG>
0.18

>  <RPCG>
0.06

>  <FCSP3>
0.42

>  <SZ>
36.67

>  <Sm>
34.1

>  <Sv>
36.82

>  <Sse>
60.74

>  <Sp>
39.79

>  <Si>
68.94

>  <MZ>
0.6

>  <Mm>
0.56

>  <Mv>
0.6

>  <Mse>
1

>  <Mp>
0.65

>  <Mi>
1.13

>  <NsCH3>
4

>  <NdCH2>
0

>  <NssCH2>
6

>  <NtCH>
0

>  <NdsCH>
0

>  <NaaCH>
6

>  <NsssCH>
0

>  <NddC>
0

>  <NtsC>
0

>  <NdssC>
0

>  <NaasC>
6

>  <NaaaC>
2

>  <NssssC>
0

>  <NsNH3>
0

>  <NsNH2>
0

>  <NssNH2>
0

>  <NdNH>
0

>  <NssNH>
0

>  <NaaNH>
1

>  <NtN>
0

>  <NsssNH>
0

>  <NdsN>
0

>  <NaaN>
0

>  <NsssN>
2

>  <NddsN>
0

>  <NaasN>
0

>  <NssssN>
0

>  <NsOH>
0

>  <NdO>
0

>  <NssO>
3

>  <NaaO>
0

>  <NsF>
0

>  <NsSiH3>
0

>  <NssSiH2>
0

>  <NsssSiH>
0

>  <NssssSi>
0

>  <NsPH2>
0

>  <NssPH>
0

>  <NsssP>
0

>  <NdsssP>
0

>  <NsssssP>
0

>  <NsSH>
0

>  <NdS>
0

>  <NssS>
0

>  <NaaS>
0

>  <NdssS>
0

>  <NddssS>
0

>  <NsCl>
0

>  <NsBr>
0

>  <NsI>
0

>  <fragCpx>
219.06

>  <fMF>
0.38

>  <nHBAcc>
5

>  <nHBDon>
1

>  <Kier1>
23.17

>  <Kier2>
10.74

>  <Lipinski>
1

>  <GhoseFilter>
1

>  <FilterItLogS>
-6.17

>  <VMcGowan>
323.03

>  <LabuteASA>
177.88

>  <PEOE_VSA1>
24.09

>  <PEOE_VSA2>
4.9

>  <PEOE_VSA3>
0

>  <PEOE_VSA4>
0

>  <PEOE_VSA5>
0

>  <PEOE_VSA6>
12.13

>  <PEOE_VSA7>
37.11

>  <PEOE_VSA8>
55.39

>  <PEOE_VSA9>
27.02

>  <PEOE_VSA10>
5.75

>  <PEOE_VSA11>
11.5

>  <PEOE_VSA12>
0

>  <PEOE_VSA13>
0

>  <SMR_VSA1>
14.21

>  <SMR_VSA2>
0

>  <SMR_VSA3>
9.88

>  <SMR_VSA4>
0

>  <SMR_VSA5>
13.34

>  <SMR_VSA6>
58.95

>  <SMR_VSA7>
47.66

>  <SMR_VSA8>
0

>  <SMR_VSA9>
17.25

>  <SlogP_VSA1>
19.11

>  <SlogP_VSA2>
63.94

>  <SlogP_VSA3>
6.42

>  <SlogP_VSA4>
6.92

>  <SlogP_VSA5>
11.26

>  <SlogP_VSA6>
36.4

>  <SlogP_VSA7>
0

>  <SlogP_VSA8>
10.9

>  <SlogP_VSA9>
0

>  <SlogP_VSA10>
5.69

>  <SlogP_VSA11>
17.25

>  <EState_VSA1>
0

>  <EState_VSA2>
0

>  <EState_VSA3>
0

>  <EState_VSA4>
61.91

>  <EState_VSA5>
22.33

>  <EState_VSA6>
21.33

>  <EState_VSA7>
18.2

>  <EState_VSA8>
39.91

>  <EState_VSA9>
14.21

>  <EState_VSA10>
0

>  <VSA_EState1>
16.49

>  <VSA_EState2>
8.47

>  <VSA_EState3>
1.22

>  <VSA_EState4>
4.86

>  <VSA_EState5>
2.48

>  <VSA_EState6>
12.39

>  <VSA_EState7>
1.01

>  <VSA_EState8>
7.32

>  <VSA_EState9>
5.1

>  <apol>
66.46

>  <bpol>
40.3

>  <nRing>
4

>  <nHRing>
2

>  <naRing>
3

>  <naHRing>
1

>  <nARing 2>
1

>  <nAHRing 2>
1

>  <nFRing>
1

>  <nFHRing>
1

>  <nFaRing>
1

>  <nFaHRing>
1

>  <nFARing 2>
0

>  <nFAHRing 2>
0

>  <nRot>
7

>  <SLogP>
3.87

>  <SMR>
121.49

>  <TopoPSA(NO)>
49.96

>  <TopoPSA>
49.96

>  <JGI1>
0.17

>  <JGI2>
0.08

>  <JGI3>
0.05

>  <JGI4>
0.03

>  <JGI5>
0.03

>  <Diameter>
16

>  <Radius>
8

>  <TMWC10>
140.47

>  <TSRW10>
80.07

>  <MW>
409.24

>  <AMW>
6.71

>  <WPath>
2774

>  <WPol>
50

>  <Zagreb1>
158

>  <Zagreb2>
189

>  <mZagreb2>
6.83

>  <yes>


>  <nAR-cont>
0.816016

>  <nHA-cont>
0.74523694

>  <MWHBN>
0.296593898

>  <MWHBN-cont>
0.850794488

>  <TPSA-cont>
0.651248177

>  <pka_cont>
0.97

>  <yes.1>


>  <BBB_SCORE>
4.624941026

>  <MMFF94 Energy>
172.63

$$$$
Compound 1529
Actelion Java MolfileCreator 2.0

  0  0  0  0  0  0              0 V3000
M  V30 BEGIN CTAB
M  V30 COUNTS 42 44 0 0 0
M  V30 BEGIN ATOM
M  V30 1 O -3.5756 -0.0793 0.0793 0
M  V30 2 C -2.3032 0.3259 0.401 0
M  V30 3 C -3.7367 -1.3801 -0.4691 0
M  V30 4 C -2.1931 1.5984 1.0024 0
M  V30 5 C -1.152 -0.4297 0.1596 0
M  V30 6 O -3.3729 2.2744 1.1948 0
M  V30 7 C -0.9335 2.0887 1.3702 0
M  V30 8 C 0.1041 0.077 0.5116 0
M  V30 9 C -3.3124 3.558 1.7992 0
M  V30 10 C 0.2196 1.3296 1.1319 0
M  V30 11 C 1.3486 -0.6714 0.1667 0
M  V30 12 C 1.5763 1.7869 1.5995 0
M  V30 13 N 2.3752 -0.8376 0.9536 0
M  V30 14 C 1.4702 -1.2312 -1.2189 0
M  V30 15 C 2.0687 0.7666 2.5991 0
M  V30 16 N 2.3414 -0.466 2.2971 0
M  V30 17 C 0.943 -0.5632 -2.3292 0
M  V30 18 C 2.1438 -2.4425 -1.4025 0
M  V30 19 C 2.1292 1.1784 4.047 0
M  V30 20 C 1.0739 -1.119 -3.6065 0
M  V30 21 C 2.269 -2.9894 -2.6833 0
M  V30 22 C 1.7478 -2.3276 -3.7969 0
M  V30 23 N 1.8373 -2.8919 -5.0557 0
M  V30 24 H -3.2373 -1.4625 -1.44 0
M  V30 25 H -4.8064 -1.5443 -0.6311 0
M  V30 26 H -3.3839 -2.1494 0.2256 0
M  V30 27 H -1.2077 -1.4098 -0.3015 0
M  V30 28 H -0.8282 3.0533 1.8559 0
M  V30 29 H -2.9138 3.4965 2.8172 0
M  V30 30 H -4.3339 3.9451 1.8657 0
M  V30 31 H -2.7319 4.2562 1.1874 0
M  V30 32 H 1.521 2.7717 2.0757 0
M  V30 33 H 2.2747 1.871 0.76 0
M  V30 34 H 0.4374 0.3927 -2.2242 0
M  V30 35 H 2.5683 -2.9694 -0.5503 0
M  V30 36 H 2.734 2.0841 4.1428 0
M  V30 37 H 1.1168 1.3812 4.4066 0
M  V30 38 H 2.5744 0.3868 4.6557 0
M  V30 39 H 0.6485 -0.5921 -4.4568 0
M  V30 40 H 2.7848 -3.9387 -2.8006 0
M  V30 41 H 2.3933 -3.7238 -5.2 0
M  V30 42 H 1.5345 -2.3756 -5.87 0
M  V30 END ATOM
M  V30 BEGIN BOND
M  V30 1 1 1 2
M  V30 2 1 1 3
M  V30 3 2 2 4
M  V30 4 1 2 5
M  V30 5 1 4 6
M  V30 6 1 4 7
M  V30 7 2 5 8
M  V30 8 1 6 9
M  V30 9 2 7 10
M  V30 10 1 8 11
M  V30 11 1 10 12
M  V30 12 2 11 13
M  V30 13 1 11 14
M  V30 14 1 12 15
M  V30 15 1 13 16
M  V30 16 2 14 17
M  V30 17 1 14 18
M  V30 18 1 15 19
M  V30 19 1 17 20
M  V30 20 2 18 21
M  V30 21 2 20 22
M  V30 22 1 22 23
M  V30 23 1 8 10
M  V30 24 2 15 16
M  V30 25 1 21 22
M  V30 26 1 3 24
M  V30 27 1 3 25
M  V30 28 1 3 26
M  V30 29 1 5 27
M  V30 30 1 7 28
M  V30 31 1 9 29
M  V30 32 1 9 30
M  V30 33 1 9 31
M  V30 34 1 12 32
M  V30 35 1 12 33
M  V30 36 1 17 34
M  V30 37 1 18 35
M  V30 38 1 19 36
M  V30 39 1 19 37
M  V30 40 1 19 38
M  V30 41 1 20 39
M  V30 42 1 21 40
M  V30 43 1 23 41
M  V30 44 1 23 42
M  V30 END BOND
M  V30 END CTAB
M  END
>  <Column 1>
1856

>  <level_0>
2022

>  <index>
2022

>  <Unnamed: 0>
2022

>  <NO.>
2034

>  <Name>
nerisopam

>  <IUPAC_name>
4-(7-8-dimethoxy-4-methyl-5h-2-3-benzodiazepin-1-yl)aniline

>  <SMILES>
COc1cc2c(cc1OC)C(c1ccc(N)cc1)=NN=C(C)C2

>  <CID>
65875

>  <logBB>


>  <BBB+/BBB->
BBB+

>  <Inchi>
InChI=1S/C18H19N3O2/c1-11-8-13-9-16(22-2)17(23-3)10-15(13)18(21-20-11)12-4-6-14(19)7-5-12/h4-7-9-10H-8-19H2-1-3H3

>  <threshold>
-1

>  <reference>
R1|R13|R19|R6|R24|R27|R27|R27|R30|R30|

>  <group>
B

>  <Class>
1

>  <ABC>
17.73

>  <ABCGG>
14.48

>  <nAcid>
0

>  <nBase>
0

>  <nAromAtom>
12

>  <nAromBond>
12

>  <nAtom>
42

>  <nHeavyAtom>
23

>  <nSpiro>
0

>  <nBridgehead>
0

>  <nHetero>
5

>  <nN>
3

>  <nO>
2

>  <nF>
0

>  <BalabanJ>
1.76

>  <BertzCT>
792.66

>  <nBonds>
44

>  <nBondsO>
25

>  <nBondsS>
30

>  <nBondsD>
2

>  <nBondsT>
0

>  <nBondsA>
12

>  <nBondsM>
14

>  <nBondsKS>
36

>  <nBondsKD>
8

>  <RNCG>
0.25

>  <RPCG>
0.08

>  <FCSP3>
0.22

>  <SZ>
27.33

>  <Sm>
25.76

>  <Sv>
26.85

>  <Sse>
42.09

>  <Sp>
28.52

>  <Si>
47.24

>  <MZ>
0.65

>  <Mm>
0.61

>  <Mv>
0.64

>  <Mse>
1

>  <Mp>
0.68

>  <Mi>
1.12

>  <NsCH3>
3

>  <NdCH2>
0

>  <NssCH2>
1

>  <NtCH>
0

>  <NdsCH>
0

>  <NaaCH>
6

>  <NsssCH>
0

>  <NddC>
0

>  <NtsC>
0

>  <NdssC>
2

>  <NaasC>
6

>  <NaaaC>
0

>  <NssssC>
0

>  <NsNH3>
0

>  <NsNH2>
1

>  <NssNH2>
0

>  <NdNH>
0

>  <NssNH>
0

>  <NaaNH>
0

>  <NtN>
0

>  <NsssNH>
0

>  <NdsN>
2

>  <NaaN>
0

>  <NsssN>
0

>  <NddsN>
0

>  <NaasN>
0

>  <NssssN>
0

>  <NsOH>
0

>  <NdO>
0

>  <NssO>
2

>  <NaaO>
0

>  <NsF>
0

>  <NsSiH3>
0

>  <NssSiH2>
0

>  <NsssSiH>
0

>  <NssssSi>
0

>  <NsPH2>
0

>  <NssPH>
0

>  <NsssP>
0

>  <NdsssP>
0

>  <NsssssP>
0

>  <NsSH>
0

>  <NdS>
0

>  <NssS>
0

>  <NaaS>
0

>  <NdssS>
0

>  <NddssS>
0

>  <NsCl>
0

>  <NsBr>
0

>  <NsI>
0

>  <fragCpx>
119.05

>  <fMF>
0.4

>  <nHBAcc>
5

>  <nHBDon>
1

>  <Kier1>
17.81

>  <Kier2>
7.92

>  <Lipinski>
1

>  <GhoseFilter>
1

>  <FilterItLogS>
-5.17

>  <VMcGowan>
239.18

>  <LabuteASA>
135

>  <PEOE_VSA1>
15.21

>  <PEOE_VSA2>
0

>  <PEOE_VSA3>
0

>  <PEOE_VSA4>
5.1

>  <PEOE_VSA5>
5.1

>  <PEOE_VSA6>
12.13

>  <PEOE_VSA7>
36.75

>  <PEOE_VSA8>
28.95

>  <PEOE_VSA9>
14.22

>  <PEOE_VSA10>
5.71

>  <PEOE_VSA11>
11.5

>  <PEOE_VSA12>
0

>  <PEOE_VSA13>
0

>  <SMR_VSA1>
9.47

>  <SMR_VSA2>
0

>  <SMR_VSA3>
0

>  <SMR_VSA4>
10.2

>  <SMR_VSA5>
13.34

>  <SMR_VSA6>
19.95

>  <SMR_VSA7>
53.09

>  <SMR_VSA8>
0

>  <SMR_VSA9>
11.5

>  <SlogP_VSA1>
15.21

>  <SlogP_VSA2>
25.64

>  <SlogP_VSA3>
6.42

>  <SlogP_VSA4>
0

>  <SlogP_VSA5>
23.61

>  <SlogP_VSA6>
46.6

>  <SlogP_VSA7>
0

>  <SlogP_VSA8>
0

>  <SlogP_VSA9>
0

>  <SlogP_VSA10>
5.69

>  <SlogP_VSA11>
11.5

>  <EState_VSA1>
0

>  <EState_VSA2>
0

>  <EState_VSA3>
11.5

>  <EState_VSA4>
40.22

>  <EState_VSA5>
0

>  <EState_VSA6>
14.22

>  <EState_VSA7>
43.32

>  <EState_VSA8>
10.2

>  <EState_VSA9>
15.21

>  <EState_VSA10>
0

>  <VSA_EState1>
10.85

>  <VSA_EState2>
0

>  <VSA_EState3>
8.77

>  <VSA_EState4>
11.32

>  <VSA_EState5>
1.38

>  <VSA_EState6>
11.57

>  <VSA_EState7>
0.72

>  <VSA_EState8>
1.97

>  <VSA_EState9>
3.26

>  <apol>
47.63

>  <bpol>
23.1

>  <nRing>
3

>  <nHRing>
1

>  <naRing>
2

>  <naHRing>
0

>  <nARing 2>
1

>  <nAHRing 2>
1

>  <nFRing>
1

>  <nFHRing>
1

>  <nFaRing>
0

>  <nFaHRing>
0

>  <nFARing 2>
1

>  <nFAHRing 2>
1

>  <nRot>
3

>  <SLogP>
3.06

>  <SMR>
92.85

>  <TopoPSA(NO)>
69.2

>  <TopoPSA>
69.2

>  <JGI1>
0.2

>  <JGI2>
0.08

>  <JGI3>
0.04

>  <JGI4>
0.04

>  <JGI5>
0.03

>  <Diameter>
11

>  <Radius>
6

>  <TMWC10>
122.91

>  <TSRW10>
65.39

>  <MW>
309.15

>  <AMW>
7.36

>  <WPath>
1111

>  <WPol>
41

>  <Zagreb1>
120

>  <Zagreb2>
142

>  <mZagreb2>
5.19

>  <yes>


>  <nAR-cont>
0.816016

>  <nHA-cont>
0.967789328

>  <MWHBN>
0.341245258

>  <MWHBN-cont>
0.702599067

>  <TPSA-cont>
0.516941029

>  <pka_cont>
0.97

>  <yes.1>


>  <BBB_SCORE>
4.356585987

>  <MMFF94 Energy>
119.6

$$$$
Compound 1530
Actelion Java MolfileCreator 2.0

  0  0  0  0  0  0              0 V3000
M  V30 BEGIN CTAB
M  V30 COUNTS 40 42 0 0 0
M  V30 BEGIN ATOM
M  V30 1 Cl -4.2793 -0.9676 4.6837 0
M  V30 2 C -3.7131 -0.6825 3.084 0
M  V30 3 C -2.3926 -0.9778 2.7536 0
M  V30 4 C -4.5823 -0.1542 2.1298 0
M  V30 5 C -1.9324 -0.7334 1.454 0
M  V30 6 C -4.1308 0.0754 0.83 0
M  V30 7 C -0.5094 -1.0643 1.119 0
M  V30 8 C -2.8088 -0.2171 0.4889 0
M  V30 9 N -0.0195 -2.1381 1.6722 0
M  V30 10 C 0.2028 -0.1889 0.1426 0
M  V30 11 N 1.3218 -2.4902 1.5333 0
M  V30 12 C 0.8983 -0.788 -0.9177 0
M  V30 13 C 0.1187 1.2045 0.242 0
M  V30 14 C 1.8061 -2.6548 0.3402 0
M  V30 15 C 1.4829 0.0203 -1.9013 0
M  V30 16 C 1.0665 -2.2849 -0.9243 0
M  V30 17 C 0.7083 2.0112 -0.7359 0
M  V30 18 C 3.2296 -3.1285 0.2052 0
M  V30 19 C 1.3855 1.4154 -1.8217 0
M  V30 20 O 0.6666 3.3841 -0.7328 0
M  V30 21 O 1.9236 2.2824 -2.7404 0
M  V30 22 C 0.1133 4.0264 0.4073 0
M  V30 23 C 2.6191 1.7297 -3.8481 0
M  V30 24 H -1.7217 -1.3946 3.5017 0
M  V30 25 H -5.6129 0.0726 2.3914 0
M  V30 26 H -4.811 0.4752 0.0814 0
M  V30 27 H -2.4828 -0.0526 -0.5351 0
M  V30 28 H -0.4108 1.6372 1.0836 0
M  V30 29 H 2.0213 -0.4576 -2.713 0
M  V30 30 H 0.0954 -2.79 -0.9634 0
M  V30 31 H 1.6403 -2.616 -1.7963 0
M  V30 32 H 3.844 -2.3148 -0.1894 0
M  V30 33 H 3.6268 -3.4401 1.1751 0
M  V30 34 H 3.2672 -3.976 -0.4841 0
M  V30 35 H -0.9562 3.8107 0.4989 0
M  V30 36 H 0.2233 5.1063 0.2691 0
M  V30 37 H 0.653 3.7512 1.3195 0
M  V30 38 H 3.4987 1.1661 -3.5204 0
M  V30 39 H 2.9691 2.5586 -4.4709 0
M  V30 40 H 1.9567 1.1101 -4.4614 0
M  V30 END ATOM
M  V30 BEGIN BOND
M  V30 1 1 1 2
M  V30 2 2 2 3
M  V30 3 1 2 4
M  V30 4 1 3 5
M  V30 5 2 4 6
M  V30 6 1 5 7
M  V30 7 2 5 8
M  V30 8 2 7 9
M  V30 9 1 7 10
M  V30 10 1 9 11
M  V30 11 2 10 12
M  V30 12 1 10 13
M  V30 13 2 11 14
M  V30 14 1 12 15
M  V30 15 1 12 16
M  V30 16 2 13 17
M  V30 17 1 14 18
M  V30 18 2 15 19
M  V30 19 1 17 20
M  V30 20 1 19 21
M  V30 21 1 20 22
M  V30 22 1 21 23
M  V30 23 1 6 8
M  V30 24 1 14 16
M  V30 25 1 17 19
M  V30 26 1 3 24
M  V30 27 1 4 25
M  V30 28 1 6 26
M  V30 29 1 8 27
M  V30 30 1 13 28
M  V30 31 1 15 29
M  V30 32 1 16 30
M  V30 33 1 16 31
M  V30 34 1 18 32
M  V30 35 1 18 33
M  V30 36 1 18 34
M  V30 37 1 22 35
M  V30 38 1 22 36
M  V30 39 1 22 37
M  V30 40 1 23 38
M  V30 41 1 23 39
M  V30 42 1 23 40
M  V30 END BOND
M  V30 END CTAB
M  END
>  <Column 1>
1857

>  <level_0>
2023

>  <index>
2023

>  <Unnamed: 0>
2023

>  <NO.>
2035

>  <Name>
girisopam

>  <IUPAC_name>
1-(3-chlorophenyl)-7-8-dimethoxy-4-methyl-5h-2-3-benzodiazepine

>  <SMILES>
COc1cc2c(cc1OC)C(c1cccc(Cl)c1)=NN=C(C)C2

>  <CID>
71257

>  <logBB>


>  <BBB+/BBB->
BBB+

>  <Inchi>
InChI=1S/C18H17ClN2O2/c1-11-7-13-9-16(22-2)17(23-3)10-15(13)18(21-20-11)12-5-4-6-14(19)8-12/h4-6-8-10H-7H2-1-3H3

>  <threshold>
-1

>  <reference>
R1|R13|R19|R6|R24|R27|R27|R27|R30|R30|

>  <group>
B

>  <Class>
1

>  <ABC>
17.73

>  <ABCGG>
14.61

>  <nAcid>
0

>  <nBase>
0

>  <nAromAtom>
12

>  <nAromBond>
12

>  <nAtom>
40

>  <nHeavyAtom>
23

>  <nSpiro>
0

>  <nBridgehead>
0

>  <nHetero>
5

>  <nN>
2

>  <nO>
2

>  <nF>
0

>  <BalabanJ>
1.78

>  <BertzCT>
812.66

>  <nBonds>
42

>  <nBondsO>
25

>  <nBondsS>
28

>  <nBondsD>
2

>  <nBondsT>
0

>  <nBondsA>
12

>  <nBondsM>
14

>  <nBondsKS>
34

>  <nBondsKD>
8

>  <RNCG>
0.3

>  <RPCG>
0.1

>  <FCSP3>
0.22

>  <SZ>
28.67

>  <Sm>
27.37

>  <Sv>
26.64

>  <Sse>
40.3

>  <Sp>
28.37

>  <Si>
44.68

>  <MZ>
0.72

>  <Mm>
0.68

>  <Mv>
0.67

>  <Mse>
1.01

>  <Mp>
0.71

>  <Mi>
1.12

>  <NsCH3>
3

>  <NdCH2>
0

>  <NssCH2>
1

>  <NtCH>
0

>  <NdsCH>
0

>  <NaaCH>
6

>  <NsssCH>
0

>  <NddC>
0

>  <NtsC>
0

>  <NdssC>
2

>  <NaasC>
6

>  <NaaaC>
0

>  <NssssC>
0

>  <NsNH3>
0

>  <NsNH2>
0

>  <NssNH2>
0

>  <NdNH>
0

>  <NssNH>
0

>  <NaaNH>
0

>  <NtN>
0

>  <NsssNH>
0

>  <NdsN>
2

>  <NaaN>
0

>  <NsssN>
0

>  <NddsN>
0

>  <NaasN>
0

>  <NssssN>
0

>  <NsOH>
0

>  <NdO>
0

>  <NssO>
2

>  <NaaO>
0

>  <NsF>
0

>  <NsSiH3>
0

>  <NssSiH2>
0

>  <NsssSiH>
0

>  <NssssSi>
0

>  <NsPH2>
0

>  <NssPH>
0

>  <NsssP>
0

>  <NdsssP>
0

>  <NsssssP>
0

>  <NsSH>
0

>  <NdS>
0

>  <NssS>
0

>  <NaaS>
0

>  <NdssS>
0

>  <NddssS>
0

>  <NsCl>
1

>  <NsBr>
0

>  <NsI>
0

>  <fragCpx>
119.05

>  <fMF>
0.43

>  <nHBAcc>
4

>  <nHBDon>
0

>  <Kier1>
17.81

>  <Kier2>
7.92

>  <Lipinski>
1

>  <GhoseFilter>
1

>  <FilterItLogS>
-6.14

>  <VMcGowan>
241.44

>  <LabuteASA>
139.96

>  <PEOE_VSA1>
9.47

>  <PEOE_VSA2>
0

>  <PEOE_VSA3>
0

>  <PEOE_VSA4>
5.1

>  <PEOE_VSA5>
5.1

>  <PEOE_VSA6>
23.73

>  <PEOE_VSA7>
36.75

>  <PEOE_VSA8>
28.28

>  <PEOE_VSA9>
14.22

>  <PEOE_VSA10>
5.71

>  <PEOE_VSA11>
11.5

>  <PEOE_VSA12>
0

>  <PEOE_VSA13>
0

>  <SMR_VSA1>
9.47

>  <SMR_VSA2>
0

>  <SMR_VSA3>
0

>  <SMR_VSA4>
10.2

>  <SMR_VSA5>
13.34

>  <SMR_VSA6>
14.22

>  <SMR_VSA7>
58.11

>  <SMR_VSA8>
0

>  <SMR_VSA9>
11.5

>  <SlogP_VSA1>
9.47

>  <SlogP_VSA2>
25.64

>  <SlogP_VSA3>
6.42

>  <SlogP_VSA4>
0

>  <SlogP_VSA5>
23.61

>  <SlogP_VSA6>
46.6

>  <SlogP_VSA7>
5.02

>  <SlogP_VSA8>
0

>  <SlogP_VSA9>
0

>  <SlogP_VSA10>
0

>  <SlogP_VSA11>
11.5

>  <EState_VSA1>
0

>  <EState_VSA2>
0

>  <EState_VSA3>
22.94

>  <EState_VSA4>
28.11

>  <EState_VSA5>
0

>  <EState_VSA6>
14.22

>  <EState_VSA7>
43.32

>  <EState_VSA8>
10.2

>  <EState_VSA9>
21.07

>  <EState_VSA10>
0

>  <VSA_EState1>
10.85

>  <VSA_EState2>
0

>  <VSA_EState3>
9.42

>  <VSA_EState4>
4.71

>  <VSA_EState5>
1.37

>  <VSA_EState6>
11.54

>  <VSA_EState7>
0.71

>  <VSA_EState8>
1.96

>  <VSA_EState9>
3.26

>  <apol>
47.38

>  <bpol>
22.18

>  <nRing>
3

>  <nHRing>
1

>  <naRing>
2

>  <naHRing>
0

>  <nARing 2>
1

>  <nAHRing 2>
1

>  <nFRing>
1

>  <nFHRing>
1

>  <nFaRing>
0

>  <nFaHRing>
0

>  <nFARing 2>
1

>  <nFAHRing 2>
1

>  <nRot>
3

>  <SLogP>
4.13

>  <SMR>
93.45

>  <TopoPSA(NO)>
43.18

>  <TopoPSA>
43.18

>  <JGI1>
0.2

>  <JGI2>
0.08

>  <JGI3>
0.04

>  <JGI4>
0.04

>  <JGI5>
0.03

>  <Diameter>
10

>  <Radius>
5

>  <TMWC10>
122.95

>  <TSRW10>
65.39

>  <MW>
328.1

>  <AMW>
8.2

>  <WPath>
1095

>  <WPol>
41

>  <Zagreb1>
120

>  <Zagreb2>
142

>  <mZagreb2>
5.19

>  <yes>


>  <nAR-cont>
0.816016

>  <nHA-cont>
0.967789328

>  <MWHBN>
0.220829392

>  <MWHBN-cont>
0.994424555

>  <TPSA-cont>
0.698576787

>  <pka_cont>
0.97

>  <yes.1>


>  <BBB_SCORE>
5.157595734

>  <MMFF94 Energy>
121.04

$$$$
Compound 1531
Actelion Java MolfileCreator 2.0

  0  0  0  0  0  0              0 V3000
M  V30 BEGIN CTAB
M  V30 COUNTS 50 52 0 0 0
M  V30 BEGIN ATOM
M  V30 1 O 2.1454 0.2382 -2.4636 0
M  V30 2 C 1.5375 -0.2662 -1.5198 0
M  V30 3 C 2.1064 -1.3827 -0.6583 0
M  V30 4 C 0.1336 0.1717 -1.1857 0
M  V30 5 C 1.9487 -0.9186 0.7968 0
M  V30 6 C 3.5804 -1.7092 -0.9671 0
M  V30 7 C 0.084 0.5736 0.2933 0
M  V30 8 N 0.5446 -0.5936 1.0934 0
M  V30 9 C 3.7733 -2.8567 -1.9832 0
M  V30 10 C -1.2986 1.0817 0.7137 0
M  V30 11 C 0.3582 -0.3384 2.5272 0
M  V30 12 C 3.1862 -2.5572 -3.3613 0
M  V30 13 C 5.264 -3.1804 -2.12 0
M  V30 14 C -1.8632 0.6949 1.9419 0
M  V30 15 C -1.9968 2.0187 -0.0721 0
M  V30 16 C -1.1362 -0.2685 2.8451 0
M  V30 17 C -3.1269 1.1742 2.3264 0
M  V30 18 C -3.2533 2.5075 0.3126 0
M  V30 19 C -3.8275 2.0749 1.5205 0
M  V30 20 O -3.9888 3.4128 -0.413 0
M  V30 21 O -5.061 2.595 1.8252 0
M  V30 22 C -3.496 3.7978 -1.6878 0
M  V30 23 C -5.6945 2.139 3.0113 0
M  V30 24 H 1.4886 -2.2753 -0.8212 0
M  V30 25 H -0.1145 1.0085 -1.8464 0
M  V30 26 H -0.5571 -0.6482 -1.4154 0
M  V30 27 H 2.5989 -0.0577 1.0045 0
M  V30 28 H 2.275 -1.7373 1.451 0
M  V30 29 H 4.0771 -2.0171 -0.037 0
M  V30 30 H 4.1142 -0.8146 -1.3117 0
M  V30 31 H 0.7772 1.4117 0.4626 0
M  V30 32 H 3.2746 -3.7521 -1.5901 0
M  V30 33 H 0.7892 -1.1525 3.1229 0
M  V30 34 H 0.8635 0.5884 2.8303 0
M  V30 35 H 2.1005 -2.4311 -3.3138 0
M  V30 36 H 3.6236 -1.6504 -3.7917 0
M  V30 37 H 3.3834 -3.3834 -4.0531 0
M  V30 38 H 5.695 -3.4513 -1.1503 0
M  V30 39 H 5.8221 -2.3233 -2.5121 0
M  V30 40 H 5.4186 -4.0254 -2.7993 0
M  V30 41 H -1.5392 2.3773 -0.987 0
M  V30 42 H -1.2584 0.0356 3.8916 0
M  V30 43 H -1.5897 -1.2609 2.7285 0
M  V30 44 H -3.5383 0.8305 3.2701 0
M  V30 45 H -2.5561 4.3515 -1.5949 0
M  V30 46 H -4.2318 4.4683 -2.1422 0
M  V30 47 H -3.3833 2.932 -2.3486 0
M  V30 48 H -5.8677 1.0582 2.9781 0
M  V30 49 H -6.6706 2.6292 3.0789 0
M  V30 50 H -5.1195 2.4217 3.8992 0
M  V30 END ATOM
M  V30 BEGIN BOND
M  V30 1 2 1 2
M  V30 2 1 2 3
M  V30 3 1 2 4
M  V30 4 1 3 5
M  V30 5 1 3 6
M  V30 6 1 4 7
M  V30 7 1 5 8
M  V30 8 1 6 9
M  V30 9 1 7 10
M  V30 10 1 8 11
M  V30 11 1 9 12
M  V30 12 1 9 13
M  V30 13 2 10 14
M  V30 14 1 10 15
M  V30 15 1 11 16
M  V30 16 1 14 17
M  V30 17 2 15 18
M  V30 18 2 17 19
M  V30 19 1 18 20
M  V30 20 1 19 21
M  V30 21 1 20 22
M  V30 22 1 21 23
M  V30 23 1 7 8
M  V30 24 1 14 16
M  V30 25 1 18 19
M  V30 26 1 3 24
M  V30 27 1 4 25
M  V30 28 1 4 26
M  V30 29 1 5 27
M  V30 30 1 5 28
M  V30 31 1 6 29
M  V30 32 1 6 30
M  V30 33 1 7 31
M  V30 34 1 9 32
M  V30 35 1 11 33
M  V30 36 1 11 34
M  V30 37 1 12 35
M  V30 38 1 12 36
M  V30 39 1 12 37
M  V30 40 1 13 38
M  V30 41 1 13 39
M  V30 42 1 13 40
M  V30 43 1 15 41
M  V30 44 1 16 42
M  V30 45 1 16 43
M  V30 46 1 17 44
M  V30 47 1 22 45
M  V30 48 1 22 46
M  V30 49 1 22 47
M  V30 50 1 23 48
M  V30 51 1 23 49
M  V30 52 1 23 50
M  V30 END BOND
M  V30 END CTAB
M  END
>  <Column 1>
1858

>  <level_0>
2024

>  <index>
2024

>  <Unnamed: 0>
2024

>  <NO.>
2036

>  <Name>
tetrabenazine (tetrabenzine)

>  <IUPAC_name>
9-10-dimethoxy-3-(2-methylpropyl)-1-3-4-6-7-11b-hexahydrobenzo[a]quinolizin-2-one

>  <SMILES>
COc1cc2c(cc1OC)C1CC(=O)C(CC(C)C)CN1CC2

>  <CID>
6018

>  <logBB>


>  <BBB+/BBB->
BBB+

>  <Inchi>
InChI=1S/C19H27NO3/c1-12(2)7-14-11-20-6-5-13-8-18(22-3)19(23-4)9-15(13)16(20)10-17(14)21/h8-9-12-14-16H-5-7-10-11H2-1-4H3

>  <threshold>
-1

>  <reference>
R1|R1|R19|R6|R14|R23|R27|R27|R27|R30|R30|

>  <group>
B

>  <Class>
1

>  <ABC>
17.8

>  <ABCGG>
14.14

>  <nAcid>
0

>  <nBase>
1

>  <nAromAtom>
6

>  <nAromBond>
6

>  <nAtom>
50

>  <nHeavyAtom>
23

>  <nSpiro>
0

>  <nBridgehead>
0

>  <nHetero>
4

>  <nN>
1

>  <nO>
3

>  <nF>
0

>  <BalabanJ>
1.69

>  <BertzCT>
596.52

>  <nBonds>
52

>  <nBondsO>
25

>  <nBondsS>
45

>  <nBondsD>
1

>  <nBondsT>
0

>  <nBondsA>
6

>  <nBondsM>
7

>  <nBondsKS>
48

>  <nBondsKD>
4

>  <RNCG>
0.26

>  <RPCG>
0.08

>  <FCSP3>
0.63

>  <SZ>
28.67

>  <Sm>
26.43

>  <Sv>
29.22

>  <Sse>
49.64

>  <Sp>
31.88

>  <Si>
56.53

>  <MZ>
0.57

>  <Mm>
0.53

>  <Mv>
0.58

>  <Mse>
0.99

>  <Mp>
0.64

>  <Mi>
1.13

>  <NsCH3>
4

>  <NdCH2>
0

>  <NssCH2>
5

>  <NtCH>
0

>  <NdsCH>
0

>  <NaaCH>
2

>  <NsssCH>
3

>  <NddC>
0

>  <NtsC>
0

>  <NdssC>
1

>  <NaasC>
4

>  <NaaaC>
0

>  <NssssC>
0

>  <NsNH3>
0

>  <NsNH2>
0

>  <NssNH2>
0

>  <NdNH>
0

>  <NssNH>
0

>  <NaaNH>
0

>  <NtN>
0

>  <NsssNH>
0

>  <NdsN>
0

>  <NaaN>
0

>  <NsssN>
1

>  <NddsN>
0

>  <NaasN>
0

>  <NssssN>
0

>  <NsOH>
0

>  <NdO>
1

>  <NssO>
2

>  <NaaO>
0

>  <NsF>
0

>  <NsSiH3>
0

>  <NssSiH2>
0

>  <NsssSiH>
0

>  <NssssSi>
0

>  <NsPH2>
0

>  <NssPH>
0

>  <NsssP>
0

>  <NdsssP>
0

>  <NsssssP>
0

>  <NsSH>
0

>  <NdS>
0

>  <NssS>
0

>  <NaaS>
0

>  <NdssS>
0

>  <NddssS>
0

>  <NsCl>
0

>  <NsBr>
0

>  <NsI>
0

>  <fragCpx>
119.04

>  <fMF>
0.28

>  <nHBAcc>
4

>  <nHBDon>
0

>  <Kier1>
17.81

>  <Kier2>
7.49

>  <Lipinski>
1

>  <GhoseFilter>
1

>  <FilterItLogS>
-4.26

>  <VMcGowan>
256.38

>  <LabuteASA>
138.31

>  <PEOE_VSA1>
9.47

>  <PEOE_VSA2>
9.69

>  <PEOE_VSA3>
0

>  <PEOE_VSA4>
0

>  <PEOE_VSA5>
0

>  <PEOE_VSA6>
13.85

>  <PEOE_VSA7>
42.02

>  <PEOE_VSA8>
31.47

>  <PEOE_VSA9>
14.22

>  <PEOE_VSA10>
5.78

>  <PEOE_VSA11>
11.5

>  <PEOE_VSA12>
0

>  <PEOE_VSA13>
0

>  <SMR_VSA1>
14.27

>  <SMR_VSA2>
0

>  <SMR_VSA3>
4.9

>  <SMR_VSA4>
11.84

>  <SMR_VSA5>
39.15

>  <SMR_VSA6>
27.31

>  <SMR_VSA7>
23.26

>  <SMR_VSA8>
0

>  <SMR_VSA9>
11.5

>  <SlogP_VSA1>
9.47

>  <SlogP_VSA2>
37.99

>  <SlogP_VSA3>
11.22

>  <SlogP_VSA4>
11.84

>  <SlogP_VSA5>
43.86

>  <SlogP_VSA6>
12.13

>  <SlogP_VSA7>
0

>  <SlogP_VSA8>
0

>  <SlogP_VSA9>
0

>  <SlogP_VSA10>
0

>  <SlogP_VSA11>
11.5

>  <EState_VSA1>
0

>  <EState_VSA2>
11.96

>  <EState_VSA3>
18.12

>  <EState_VSA4>
37.43

>  <EState_VSA5>
11.13

>  <EState_VSA6>
14.22

>  <EState_VSA7>
0

>  <EState_VSA8>
30.88

>  <EState_VSA9>
9.47

>  <EState_VSA10>
4.79

>  <VSA_EState1>
10.87

>  <VSA_EState2>
15.08

>  <VSA_EState3>
0

>  <VSA_EState4>
2.53

>  <VSA_EState5>
2.72

>  <VSA_EState6>
4.35

>  <VSA_EState7>
2.63

>  <VSA_EState8>
6.31

>  <VSA_EState9>
3.33

>  <apol>
53.24

>  <bpol>
33.14

>  <nRing>
3

>  <nHRing>
2

>  <naRing>
1

>  <naHRing>
0

>  <nARing 2>
2

>  <nAHRing 2>
2

>  <nFRing>
1

>  <nFHRing>
1

>  <nFaRing>
0

>  <nFaHRing>
0

>  <nFARing 2>
1

>  <nFAHRing 2>
1

>  <nRot>
4

>  <SLogP>
3.24

>  <SMR>
90.13

>  <TopoPSA(NO)>
38.77

>  <TopoPSA>
38.77

>  <JGI1>
0.22

>  <JGI2>
0.08

>  <JGI3>
0.04

>  <JGI4>
0.06

>  <JGI5>
0.03

>  <Diameter>
12

>  <Radius>
6

>  <TMWC10>
123.58

>  <TSRW10>
57.71

>  <MW>
317.2

>  <AMW>
6.34

>  <WPath>
1164

>  <WPol>
40

>  <Zagreb1>
122

>  <Zagreb2>
146

>  <mZagreb2>
5.14

>  <yes>


>  <nAR-cont>
1

>  <nHA-cont>
0.967789328

>  <MWHBN>
0.224591545

>  <MWHBN-cont>
0.991663148

>  <TPSA-cont>
0.729361325

>  <pka_cont>
0.97

>  <yes.1>


>  <BBB_SCORE>
5.3990067

>  <MMFF94 Energy>
65.399

$$$$
Compound 1532
Actelion Java MolfileCreator 2.0

  0  0  0  0  0  0              0 V3000
M  V30 BEGIN CTAB
M  V30 COUNTS 58 59 0 0 0
M  V30 BEGIN ATOM
M  V30 1 S 0.9574 0.9574 -2.9543 0
M  V30 2 O 0.1008 0.8508 -4.1156 0
M  V30 3 O 1.3932 2.2386 -2.439 0
M  V30 4 O 0.2419 0.158 -1.7344 0
M  V30 5 C 2.4242 0.021 -3.3006 0
M  V30 6 C 1.103 -0.3332 -0.719 0
M  V30 7 C 2.7905 -1.0452 -2.4708 0
M  V30 8 C 3.1841 0.3807 -4.4187 0
M  V30 9 C 0.2601 -0.8209 0.462 0
M  V30 10 C 1.9555 -1.4706 -1.2844 0
M  V30 11 C 3.9452 -1.7719 -2.7987 0
M  V30 12 C 4.339 -0.3392 -4.7283 0
M  V30 13 O 0.5333 -1.8305 1.1037 0
M  V30 14 N -0.7896 0.0194 0.7722 0
M  V30 15 C 4.7235 -1.4251 -3.9129 0
M  V30 16 O 5.1564 -0.0691 -5.7972 0
M  V30 17 C -1.7326 -0.2487 1.8617 0
M  V30 18 O 5.8682 -2.082 -4.2913 0
M  V30 19 C 4.787 0.9952 -6.6628 0
M  V30 20 C -2.1316 1.0959 2.5067 0
M  V30 21 C -2.8977 -1.0657 1.3107 0
M  V30 22 C 6.2915 -3.1873 -3.5063 0
M  V30 23 C -3.0266 1.0688 3.7927 0
M  V30 24 N -4.3915 0.5531 3.4925 0
M  V30 25 C -3.063 2.5128 4.3574 0
M  V30 26 C -2.3085 0.1893 4.8482 0
M  V30 27 C -5.2052 1.4167 2.6303 0
M  V30 28 C -5.1852 0.1724 4.6653 0
M  V30 29 H 1.7339 0.4824 -0.3413 0
M  V30 30 H 2.8532 1.2176 -5.0261 0
M  V30 31 H 1.3092 -2.2938 -1.6159 0
M  V30 32 H 2.6132 -1.859 -0.497 0
M  V30 33 H 4.2209 -2.6125 -2.1679 0
M  V30 34 H -1.0049 0.7677 0.1219 0
M  V30 35 H -1.2029 -0.8617 2.5987 0
M  V30 36 H 3.8182 0.8025 -7.1351 0
M  V30 37 H 5.5375 1.0565 -7.4567 0
M  V30 38 H 4.7858 1.9529 -6.1318 0
M  V30 39 H -2.5815 1.741 1.7412 0
M  V30 40 H -1.194 1.6115 2.7671 0
M  V30 41 H -3.5137 -0.4693 0.6292 0
M  V30 42 H -3.5321 -1.4552 2.1107 0
M  V30 43 H -2.5339 -1.9313 0.7452 0
M  V30 44 H 6.5255 -2.8779 -2.4823 0
M  V30 45 H 7.2098 -3.5818 -3.9518 0
M  V30 46 H 5.5456 -3.9888 -3.5181 0
M  V30 47 H -2.0581 2.8436 4.6467 0
M  V30 48 H -3.6925 2.587 5.2504 0
M  V30 49 H -3.4331 3.2327 3.6195 0
M  V30 50 H -2.742 0.3142 5.8473 0
M  V30 51 H -1.2488 0.4593 4.93 0
M  V30 52 H -2.3582 -0.8748 4.5929 0
M  V30 53 H -5.5099 2.3418 3.1315 0
M  V30 54 H -6.1173 0.8903 2.3245 0
M  V30 55 H -4.6938 1.6763 1.7001 0
M  V30 56 H -5.3599 1.0132 5.3443 0
M  V30 57 H -4.7168 -0.6436 5.2237 0
M  V30 58 H -6.1633 -0.2174 4.3581 0
M  V30 END ATOM
M  V30 BEGIN BOND
M  V30 1 2 1 2
M  V30 2 2 1 3
M  V30 3 1 1 4
M  V30 4 1 1 5
M  V30 5 1 4 6
M  V30 6 2 5 7
M  V30 7 1 5 8
M  V30 8 1 6 9
M  V30 9 1 6 10
M  V30 10 1 7 11
M  V30 11 2 8 12
M  V30 12 2 9 13
M  V30 13 1 9 14
M  V30 14 2 11 15
M  V30 15 1 12 16
M  V30 16 1 14 17
M  V30 17 1 15 18
M  V30 18 1 16 19
M  V30 19 1 17 20
M  V30 20 1 17 21
M  V30 21 1 18 22
M  V30 22 1 20 23
M  V30 23 1 23 24
M  V30 24 1 23 25
M  V30 25 1 23 26
M  V30 26 1 24 27
M  V30 27 1 24 28
M  V30 28 1 7 10
M  V30 29 1 12 15
M  V30 30 1 6 29
M  V30 31 1 8 30
M  V30 32 1 10 31
M  V30 33 1 10 32
M  V30 34 1 11 33
M  V30 35 1 14 34
M  V30 36 1 17 35
M  V30 37 1 19 36
M  V30 38 1 19 37
M  V30 39 1 19 38
M  V30 40 1 20 39
M  V30 41 1 20 40
M  V30 42 1 21 41
M  V30 43 1 21 42
M  V30 44 1 21 43
M  V30 45 1 22 44
M  V30 46 1 22 45
M  V30 47 1 22 46
M  V30 48 1 25 47
M  V30 49 1 25 48
M  V30 50 1 25 49
M  V30 51 1 26 50
M  V30 52 1 26 51
M  V30 53 1 26 52
M  V30 54 1 27 53
M  V30 55 1 27 54
M  V30 56 1 27 55
M  V30 57 1 28 56
M  V30 58 1 28 57
M  V30 59 1 28 58
M  V30 END BOND
M  V30 END CTAB
M  END
>  <Column 1>
1859

>  <level_0>
2025

>  <index>
2025

>  <Unnamed: 0>
2025

>  <NO.>
2037

>  <Name>
tisocromide

>  <IUPAC_name>
n-[4-(dimethylamino)-4-methylpentan-2-yl]-6-7-dimethoxy-1-1-dioxo-3-4-dihydro-2-1lambda6-benzoxathiine-3-carboxamide

>  <SMILES>
COc1cc2c(cc1OC)S(=O)(=O)OC(C(=O)NC(C)CC(C)(C)N(C)C)C2

>  <CID>
65789

>  <logBB>


>  <BBB+/BBB->
BBB+

>  <Inchi>
InChI=1S/C19H30N2O6S/c1-12(11-19(2-3)21(4)5)20-18(22)16-9-13-8-14(25-6)15(26-7)10-17(13)28(23-24)27-16/h8-10-12-16H-9-11H2-1-7H3-(H-20-22)

>  <threshold>
-1

>  <reference>
R1|R19|R6|R27|R27|R30|

>  <group>
B

>  <Class>
1

>  <ABC>
21.33

>  <ABCGG>
18.15

>  <nAcid>
0

>  <nBase>
1

>  <nAromAtom>
6

>  <nAromBond>
6

>  <nAtom>
58

>  <nHeavyAtom>
28

>  <nSpiro>
0

>  <nBridgehead>
0

>  <nHetero>
9

>  <nN>
2

>  <nO>
6

>  <nF>
0

>  <BalabanJ>
2.02

>  <BertzCT>
835.07

>  <nBonds>
59

>  <nBondsO>
29

>  <nBondsS>
50

>  <nBondsD>
3

>  <nBondsT>
0

>  <nBondsA>
6

>  <nBondsM>
9

>  <nBondsKS>
53

>  <nBondsKD>
6

>  <RNCG>
0.18

>  <RPCG>
0.11

>  <FCSP3>
0.63

>  <SZ>
37

>  <Sm>
34.51

>  <Sv>
34.12

>  <Sse>
58.7

>  <Sp>
36.91

>  <Si>
65.99

>  <MZ>
0.64

>  <Mm>
0.6

>  <Mv>
0.59

>  <Mse>
1.01

>  <Mp>
0.64

>  <Mi>
1.14

>  <NsCH3>
7

>  <NdCH2>
0

>  <NssCH2>
2

>  <NtCH>
0

>  <NdsCH>
0

>  <NaaCH>
2

>  <NsssCH>
2

>  <NddC>
0

>  <NtsC>
0

>  <NdssC>
1

>  <NaasC>
4

>  <NaaaC>
0

>  <NssssC>
1

>  <NsNH3>
0

>  <NsNH2>
0

>  <NssNH2>
0

>  <NdNH>
0

>  <NssNH>
1

>  <NaaNH>
0

>  <NtN>
0

>  <NsssNH>
0

>  <NdsN>
0

>  <NaaN>
0

>  <NsssN>
1

>  <NddsN>
0

>  <NaasN>
0

>  <NssssN>
0

>  <NsOH>
0

>  <NdO>
3

>  <NssO>
3

>  <NaaO>
0

>  <NsF>
0

>  <NsSiH3>
0

>  <NssSiH2>
0

>  <NsssSiH>
0

>  <NssssSi>
0

>  <NsPH2>
0

>  <NssPH>
0

>  <NsssP>
0

>  <NdsssP>
0

>  <NsssssP>
0

>  <NsSH>
0

>  <NdS>
0

>  <NssS>
0

>  <NaaS>
0

>  <NdssS>
0

>  <NddssS>
1

>  <NsCl>
0

>  <NsBr>
0

>  <NsI>
0

>  <fragCpx>
85.09

>  <fMF>
0.17

>  <nHBAcc>
7

>  <nHBDon>
1

>  <Kier1>
24.27

>  <Kier2>
9.43

>  <Lipinski>
1

>  <GhoseFilter>
1

>  <FilterItLogS>
-4.02

>  <VMcGowan>
311.18

>  <LabuteASA>
166.82

>  <PEOE_VSA1>
19.69

>  <PEOE_VSA2>
8.98

>  <PEOE_VSA3>
0

>  <PEOE_VSA4>
8.42

>  <PEOE_VSA5>
0

>  <PEOE_VSA6>
0

>  <PEOE_VSA7>
52.92

>  <PEOE_VSA8>
24.07

>  <PEOE_VSA9>
14.22

>  <PEOE_VSA10>
4.9

>  <PEOE_VSA11>
17.6

>  <PEOE_VSA12>
0

>  <PEOE_VSA13>
16.03

>  <SMR_VSA1>
26.87

>  <SMR_VSA2>
0

>  <SMR_VSA3>
10.22

>  <SMR_VSA4>
0

>  <SMR_VSA5>
56.19

>  <SMR_VSA6>
28.31

>  <SMR_VSA7>
17.7

>  <SMR_VSA8>
0

>  <SMR_VSA9>
11.5

>  <SlogP_VSA1>
14.79

>  <SlogP_VSA2>
65.22

>  <SlogP_VSA3>
25.52

>  <SlogP_VSA4>
0

>  <SlogP_VSA5>
32.76

>  <SlogP_VSA6>
17.03

>  <SlogP_VSA7>
0

>  <SlogP_VSA8>
0

>  <SlogP_VSA9>
0

>  <SlogP_VSA10>
0

>  <SlogP_VSA11>
11.5

>  <EState_VSA1>
22.13

>  <EState_VSA2>
28.65

>  <EState_VSA3>
17.73

>  <EState_VSA4>
0

>  <EState_VSA5>
20.29

>  <EState_VSA6>
6.07

>  <EState_VSA7>
21.02

>  <EState_VSA8>
24.06

>  <EState_VSA9>
13.66

>  <EState_VSA10>
13.21

>  <VSA_EState1>
40.68

>  <VSA_EState2>
14.74

>  <VSA_EState3>
2.87

>  <VSA_EState4>
0.34

>  <VSA_EState5>
0.24

>  <VSA_EState6>
2.79

>  <VSA_EState7>
-0.29

>  <VSA_EState8>
6.04

>  <VSA_EState9>
2.76

>  <apol>
61.65

>  <bpol>
45.11

>  <nRing>
2

>  <nHRing>
1

>  <naRing>
1

>  <naHRing>
0

>  <nARing 2>
1

>  <nAHRing 2>
1

>  <nFRing>
1

>  <nFHRing>
1

>  <nFaRing>
0

>  <nFaHRing>
0

>  <nFARing 2>
1

>  <nFAHRing 2>
1

>  <nRot>
7

>  <SLogP>
1.57

>  <SMR>
105.3

>  <TopoPSA(NO)>
94.17

>  <TopoPSA>
102.55

>  <JGI1>
0.34

>  <JGI2>
0.11

>  <JGI3>
0.06

>  <JGI4>
0.06

>  <JGI5>
0.03

>  <Diameter>
14

>  <Radius>
7

>  <TMWC10>
133.88

>  <TSRW10>
63.63

>  <MW>
414.18

>  <AMW>
7.14

>  <WPath>
2118

>  <WPol>
48

>  <Zagreb1>
146

>  <Zagreb2>
171

>  <mZagreb2>
6.08

>  <yes>


>  <nAR-cont>
0.816016

>  <nHA-cont>
0.82432561

>  <MWHBN>
0.393093104

>  <MWHBN-cont>
0.503271632

>  <TPSA-cont>
0.28413732

>  <pka_cont>
0.97

>  <yes.1>


>  <BBB_SCORE>
3.448523699

>  <MMFF94 Energy>
57.055

$$$$
Compound 1533
Actelion Java MolfileCreator 2.0

  0  0  0  0  0  0              0 V3000
M  V30 BEGIN CTAB
M  V30 COUNTS 45 47 0 0 0
M  V30 BEGIN ATOM
M  V30 1 O 3.4149 -1.5078 -2.0637 0
M  V30 2 C 2.4572 -0.7263 -1.4657 0
M  V30 3 C 3.113 -2.8787 -2.2755 0
M  V30 4 C 2.8024 0.6178 -1.2489 0
M  V30 5 C 1.1956 -1.1834 -1.0697 0
M  V30 6 O 4.0566 0.9938 -1.6627 0
M  V30 7 C 1.876 1.4768 -0.6476 0
M  V30 8 C 0.2598 -0.3234 -0.4568 0
M  V30 9 C 4.4701 2.3245 -1.3905 0
M  V30 10 C 0.6042 1.0215 -0.2525 0
M  V30 11 C -1.0951 -0.8899 -0.0242 0 CFG=1
M  V30 12 C -0.3641 1.9949 0.3749 0
M  V30 13 C -1.2315 -1.1099 1.4887 0
M  V30 14 C -2.2573 -0.1551 -0.7679 0
M  V30 15 C -1.625 2.2075 -0.4725 0
M  V30 16 C -0.1605 -1.6607 2.2197 0
M  V30 17 C -2.4221 -0.8499 2.186 0
M  V30 18 N -2.6655 1.183 -0.2878 0
M  V30 19 C -0.2656 -1.9085 3.5911 0
M  V30 20 C -2.5283 -1.0973 3.5585 0
M  V30 21 C -3.8953 1.6002 -0.9695 0
M  V30 22 C -1.4499 -1.624 4.2615 0
M  V30 23 H 2.934 -3.3955 -1.327 0
M  V30 24 H 3.9839 -3.3439 -2.7472 0
M  V30 25 H 2.2645 -2.9955 -2.9576 0
M  V30 26 H 0.9152 -2.2209 -1.2211 0
M  V30 27 H 2.122 2.5202 -0.4776 0
M  V30 28 H 3.8507 3.0479 -1.9305 0
M  V30 29 H 5.4978 2.4353 -1.7496 0
M  V30 30 H 4.4712 2.5276 -0.3145 0
M  V30 31 H -1.1464 -1.9141 -0.4271 0
M  V30 32 H -0.6124 1.6811 1.3953 0
M  V30 33 H 0.1284 2.9696 0.4885 0
M  V30 34 H -3.1331 -0.815 -0.6873 0
M  V30 35 H -2.0215 -0.1053 -1.8409 0
M  V30 36 H -2.0466 3.1697 -0.152 0
M  V30 37 H -1.3644 2.3173 -1.5338 0
M  V30 38 H 0.7793 -1.9016 1.7281 0
M  V30 39 H -3.2922 -0.4411 1.6794 0
M  V30 40 H 0.5801 -2.324 4.1322 0
M  V30 41 H -3.4581 -0.8756 4.0757 0
M  V30 42 H -4.2468 2.5622 -0.5797 0
M  V30 43 H -4.7016 0.881 -0.787 0
M  V30 44 H -3.7548 1.6958 -2.0522 0
M  V30 45 H -1.5336 -1.814 5.3278 0
M  V30 END ATOM
M  V30 BEGIN BOND
M  V30 1 1 1 2
M  V30 2 1 1 3
M  V30 3 2 2 4
M  V30 4 1 2 5
M  V30 5 1 4 6
M  V30 6 1 4 7
M  V30 7 2 5 8
M  V30 8 1 6 9
M  V30 9 2 7 10
M  V30 10 1 8 11
M  V30 11 1 10 12
M  V30 12 1 11 13
M  V30 13 1 11 14
M  V30 14 1 12 15
M  V30 15 2 13 16
M  V30 16 1 13 17
M  V30 17 1 14 18
M  V30 18 1 16 19
M  V30 19 2 17 20
M  V30 20 1 18 21
M  V30 21 2 19 22
M  V30 22 1 8 10
M  V30 23 1 15 18
M  V30 24 1 20 22
M  V30 25 1 3 23
M  V30 26 1 3 24
M  V30 27 1 3 25
M  V30 28 1 5 26
M  V30 29 1 7 27
M  V30 30 1 9 28
M  V30 31 1 9 29
M  V30 32 1 9 30
M  V30 33 1 11 31
M  V30 34 1 12 32
M  V30 35 1 12 33
M  V30 36 1 14 34
M  V30 37 1 14 35
M  V30 38 1 15 36
M  V30 39 1 15 37
M  V30 40 1 16 38
M  V30 41 1 17 39
M  V30 42 1 19 40
M  V30 43 1 20 41
M  V30 44 1 21 42
M  V30 45 1 21 43
M  V30 46 1 21 44
M  V30 47 1 22 45
M  V30 END BOND
M  V30 BEGIN COLLECTION
M  V30 MDLV30/STEABS ATOMS=(1 11)
M  V30 END COLLECTION
M  V30 END CTAB
M  END
>  <Column 1>
1860

>  <level_0>
2026

>  <index>
2026

>  <Unnamed: 0>
2026

>  <NO.>
2038

>  <Name>
trepipam (trimopam)

>  <IUPAC_name>
(5r)-7-8-dimethoxy-3-methyl-5-phenyl-1-2-4-5-tetrahydro-3-benzazepine

>  <SMILES>
COc1cc2c(cc1OC)[C@@H](c1ccccc1)CN(C)CC2

>  <CID>
91277

>  <logBB>


>  <BBB+/BBB->
BBB+

>  <Inchi>
InChI=1S/C19H23NO2/c1-20-10-9-15-11-18(21-2)19(22-3)12-16(15)17(13-20)14-7-5-4-6-8-14/h4-8-11-12-17H-9-10-13H2-1-3H3/t17-/m1/s1

>  <threshold>
-1

>  <reference>
R1|R27|R27|R30|R30|

>  <group>
B

>  <Class>
1

>  <ABC>
16.92

>  <ABCGG>
14

>  <nAcid>
0

>  <nBase>
1

>  <nAromAtom>
12

>  <nAromBond>
12

>  <nAtom>
45

>  <nHeavyAtom>
22

>  <nSpiro>
0

>  <nBridgehead>
0

>  <nHetero>
3

>  <nN>
1

>  <nO>
2

>  <nF>
0

>  <BalabanJ>
1.77

>  <BertzCT>
639.38

>  <nBonds>
47

>  <nBondsO>
24

>  <nBondsS>
35

>  <nBondsD>
0

>  <nBondsT>
0

>  <nBondsA>
12

>  <nBondsM>
12

>  <nBondsKS>
41

>  <nBondsKD>
6

>  <RNCG>
0.28

>  <RPCG>
0.09

>  <FCSP3>
0.37

>  <SZ>
26.67

>  <Sm>
24.76

>  <Sv>
27.42

>  <Sse>
44.53

>  <Sp>
29.8

>  <Si>
50.49

>  <MZ>
0.59

>  <Mm>
0.55

>  <Mv>
0.61

>  <Mse>
0.99

>  <Mp>
0.66

>  <Mi>
1.12

>  <NsCH3>
3

>  <NdCH2>
0

>  <NssCH2>
3

>  <NtCH>
0

>  <NdsCH>
0

>  <NaaCH>
7

>  <NsssCH>
1

>  <NddC>
0

>  <NtsC>
0

>  <NdssC>
0

>  <NaasC>
5

>  <NaaaC>
0

>  <NssssC>
0

>  <NsNH3>
0

>  <NsNH2>
0

>  <NssNH2>
0

>  <NdNH>
0

>  <NssNH>
0

>  <NaaNH>
0

>  <NtN>
0

>  <NsssNH>
0

>  <NdsN>
0

>  <NaaN>
0

>  <NsssN>
1

>  <NddsN>
0

>  <NaasN>
0

>  <NssssN>
0

>  <NsOH>
0

>  <NdO>
0

>  <NssO>
2

>  <NaaO>
0

>  <NsF>
0

>  <NsSiH3>
0

>  <NssSiH2>
0

>  <NsssSiH>
0

>  <NssssSi>
0

>  <NsPH2>
0

>  <NssPH>
0

>  <NsssP>
0

>  <NdsssP>
0

>  <NsssssP>
0

>  <NsSH>
0

>  <NdS>
0

>  <NssS>
0

>  <NaaS>
0

>  <NdssS>
0

>  <NddssS>
0

>  <NsCl>
0

>  <NsBr>
0

>  <NsI>
0

>  <fragCpx>
114.03

>  <fMF>
0.38

>  <nHBAcc>
3

>  <nHBDon>
0

>  <Kier1>
16.84

>  <Kier2>
7.71

>  <Lipinski>
1

>  <GhoseFilter>
1

>  <FilterItLogS>
-4.7

>  <VMcGowan>
241.91

>  <LabuteASA>
132.02

>  <PEOE_VSA1>
14.37

>  <PEOE_VSA2>
0

>  <PEOE_VSA3>
0

>  <PEOE_VSA4>
0

>  <PEOE_VSA5>
0

>  <PEOE_VSA6>
30.33

>  <PEOE_VSA7>
42.29

>  <PEOE_VSA8>
19.01

>  <PEOE_VSA9>
14.22

>  <PEOE_VSA10>
0

>  <PEOE_VSA11>
11.5

>  <PEOE_VSA12>
0

>  <PEOE_VSA13>
0

>  <SMR_VSA1>
9.47

>  <SMR_VSA2>
0

>  <SMR_VSA3>
4.9

>  <SMR_VSA4>
0

>  <SMR_VSA5>
12.34

>  <SMR_VSA6>
34.36

>  <SMR_VSA7>
59.15

>  <SMR_VSA8>
0

>  <SMR_VSA9>
11.5

>  <SlogP_VSA1>
9.47

>  <SlogP_VSA2>
39.26

>  <SlogP_VSA3>
6.42

>  <SlogP_VSA4>
0

>  <SlogP_VSA5>
22.61

>  <SlogP_VSA6>
42.46

>  <SlogP_VSA7>
0

>  <SlogP_VSA8>
0

>  <SlogP_VSA9>
0

>  <SlogP_VSA10>
0

>  <SlogP_VSA11>
11.5

>  <EState_VSA1>
0

>  <EState_VSA2>
0

>  <EState_VSA3>
5.92

>  <EState_VSA4>
31.01

>  <EState_VSA5>
16.69

>  <EState_VSA6>
14.22

>  <EState_VSA7>
0

>  <EState_VSA8>
54.41

>  <EState_VSA9>
9.47

>  <EState_VSA10>
0

>  <VSA_EState1>
10.99

>  <VSA_EState2>
2.4

>  <VSA_EState3>
0

>  <VSA_EState4>
4.06

>  <VSA_EState5>
1.99

>  <VSA_EState6>
15.02

>  <VSA_EState7>
1.04

>  <VSA_EState8>
2.08

>  <VSA_EState9>
5.59

>  <apol>
49.77

>  <bpol>
28.26

>  <nRing>
3

>  <nHRing>
1

>  <naRing>
2

>  <naHRing>
0

>  <nARing 2>
1

>  <nAHRing 2>
1

>  <nFRing>
1

>  <nFHRing>
1

>  <nFaRing>
0

>  <nFaHRing>
0

>  <nFARing 2>
1

>  <nFAHRing 2>
1

>  <nRot>
3

>  <SLogP>
3.32

>  <SMR>
89.03

>  <TopoPSA(NO)>
21.7

>  <TopoPSA>
21.7

>  <JGI1>
0.17

>  <JGI2>
0.07

>  <JGI3>
0.04

>  <JGI4>
0.05

>  <JGI5>
0.02

>  <Diameter>
10

>  <Radius>
5

>  <TMWC10>
120.44

>  <TSRW10>
64.11

>  <MW>
297.17

>  <AMW>
6.6

>  <WPath>
966

>  <WPol>
39

>  <Zagreb1>
114

>  <Zagreb2>
135

>  <mZagreb2>
5.03

>  <yes>


>  <nAR-cont>
0.816016

>  <nHA-cont>
0.983774276

>  <MWHBN>
0.174027857

>  <MWHBN-cont>
0.979863511

>  <TPSA-cont>
0.848520525

>  <pka_cont>
0.97

>  <yes.1>


>  <BBB_SCORE>
5.451626593

>  <MMFF94 Energy>
123.39

$$$$
Compound 1534
Actelion Java MolfileCreator 2.0

  0  0  0  0  0  0              0 V3000
M  V30 BEGIN CTAB
M  V30 COUNTS 41 44 0 0 0
M  V30 BEGIN ATOM
M  V30 1 O -5.0027 1.2086 2.7411 0
M  V30 2 C -3.9415 0.861 2.2378 0
M  V30 3 C -2.6818 0.8733 3.0121 0
M  V30 4 C -3.8739 0.4007 0.8332 0
M  V30 5 C -1.5314 0.4576 2.4629 0
M  V30 6 C -2.7174 -0.0144 0.296 0
M  V30 7 C -1.3965 -0.05 1.0431 0
M  V30 8 C -0.3062 0.6504 0.2583 0
M  V30 9 C -0.8129 -1.5074 1.0781 0
M  V30 10 C 0.006 1.9879 0.1177 0
M  V30 11 C 0.4868 -0.2895 -0.4005 0
M  V30 12 C -0.0401 -1.6847 -0.2423 0 CFG=1
M  V30 13 O -0.7743 2.9384 0.7119 0
M  V30 14 C 1.1332 2.3768 -0.6334 0
M  V30 15 C 1.6273 0.0455 -1.1143 0
M  V30 16 N 1.0547 -2.6639 -0.2603 0
M  V30 17 O 1.3368 3.7356 -0.6877 0
M  V30 18 C 1.9523 1.4009 -1.2308 0
M  V30 19 C 2.5065 -1.0736 -1.6048 0
M  V30 20 C 1.8373 -2.4708 -1.5069 0
M  V30 21 C 0.5398 -4.0297 -0.1853 0
M  V30 22 C 2.4511 4.1835 -1.4505 0
M  V30 23 H -2.742 1.2433 4.028 0
M  V30 24 H -4.801 0.4261 0.2743 0
M  V30 25 H -0.6239 0.5054 3.0609 0
M  V30 26 H -2.7184 -0.3269 -0.7452 0
M  V30 27 H -0.1197 -1.6237 1.9257 0
M  V30 28 H -1.5906 -2.2716 1.1992 0
M  V30 29 H -0.747 -1.8791 -1.0621 0
M  V30 30 H -0.3585 3.7906 0.4768 0
M  V30 31 H 2.8518 1.6706 -1.7739 0
M  V30 32 H 3.4158 -1.0775 -0.9904 0
M  V30 33 H 2.8006 -0.8881 -2.6442 0
M  V30 34 H 2.6301 -3.2265 -1.5731 0
M  V30 35 H 1.1875 -2.6158 -2.3816 0
M  V30 36 H 1.3651 -4.7505 -0.1949 0
M  V30 37 H -0.0012 -4.1913 0.7531 0
M  V30 38 H -0.1327 -4.267 -1.0175 0
M  V30 39 H 3.3923 3.8288 -1.0179 0
M  V30 40 H 2.4609 5.2773 -1.4158 0
M  V30 41 H 2.3582 3.8846 -2.4998 0
M  V30 END ATOM
M  V30 BEGIN BOND
M  V30 1 2 1 2
M  V30 2 1 2 3
M  V30 3 1 2 4
M  V30 4 2 3 5
M  V30 5 2 4 6
M  V30 6 1 5 7
M  V30 7 1 7 8
M  V30 8 1 7 9
M  V30 9 2 8 10
M  V30 10 1 8 11
M  V30 11 1 9 12
M  V30 12 1 10 13
M  V30 13 1 10 14
M  V30 14 2 11 15
M  V30 15 1 12 16
M  V30 16 1 14 17
M  V30 17 2 14 18
M  V30 18 1 15 19
M  V30 19 1 16 20
M  V30 20 1 16 21
M  V30 21 1 17 22
M  V30 22 1 6 7
M  V30 23 1 11 12
M  V30 24 1 15 18
M  V30 25 1 19 20
M  V30 26 1 3 23
M  V30 27 1 4 24
M  V30 28 1 5 25
M  V30 29 1 6 26
M  V30 30 1 9 27
M  V30 31 1 9 28
M  V30 32 1 12 29
M  V30 33 1 13 30
M  V30 34 1 18 31
M  V30 35 1 19 32
M  V30 36 1 19 33
M  V30 37 1 20 34
M  V30 38 1 20 35
M  V30 39 1 21 36
M  V30 40 1 21 37
M  V30 41 1 21 38
M  V30 42 1 22 39
M  V30 43 1 22 40
M  V30 44 1 22 41
M  V30 END BOND
M  V30 BEGIN COLLECTION
M  V30 MDLV30/STERAC1 ATOMS=(1 12)
M  V30 END COLLECTION
M  V30 END CTAB
M  END
>  <Column 1>
1861

>  <level_0>
2027

>  <index>
2027

>  <Unnamed: 0>
2027

>  <NO.>
2039

>  <Name>
glaziovine

>  <IUPAC_name>
11-hydroxy-10-methoxy-5-methylspiro[5-azatricyclo[6.3.1.04-12]dodeca-1(12)-8-10-triene-2-4'-cyclohexa-2-5-diene]-1'-one

>  <SMILES>
COc1cc2c3c(c1O)C1(C=CC(=O)C=C1)CC3N(C)CC2

>  <CID>
65631

>  <logBB>


>  <BBB+/BBB->
BBB+

>  <Inchi>
InChI=1S/C18H19NO3/c1-19-8-5-11-9-14(22-2)17(21)16-15(11)13(19)10-18(16)6-3-12(20)4-7-18/h3-4-6-7-9-13-21H-5-8-10H2-1-2H3

>  <threshold>
-1

>  <reference>
R1|R19|R6|R27|R27|R30|

>  <group>
B

>  <Class>
1

>  <ABC>
17.7

>  <ABCGG>
14.33

>  <nAcid>
0

>  <nBase>
1

>  <nAromAtom>
6

>  <nAromBond>
6

>  <nAtom>
41

>  <nHeavyAtom>
22

>  <nSpiro>
1

>  <nBridgehead>
0

>  <nHetero>
4

>  <nN>
1

>  <nO>
3

>  <nF>
0

>  <BalabanJ>
1.69

>  <BertzCT>
716.34

>  <nBonds>
44

>  <nBondsO>
25

>  <nBondsS>
35

>  <nBondsD>
3

>  <nBondsT>
0

>  <nBondsA>
6

>  <nBondsM>
9

>  <nBondsKS>
38

>  <nBondsKD>
6

>  <RNCG>
0.27

>  <RPCG>
0.16

>  <FCSP3>
0.39

>  <SZ>
26.33

>  <Sm>
24.76

>  <Sv>
26.05

>  <Sse>
41.09

>  <Sp>
27.69

>  <Si>
45.86

>  <MZ>
0.64

>  <Mm>
0.6

>  <Mv>
0.64

>  <Mse>
1

>  <Mp>
0.68

>  <Mi>
1.12

>  <NsCH3>
2

>  <NdCH2>
0

>  <NssCH2>
3

>  <NtCH>
0

>  <NdsCH>
4

>  <NaaCH>
1

>  <NsssCH>
1

>  <NddC>
0

>  <NtsC>
0

>  <NdssC>
1

>  <NaasC>
5

>  <NaaaC>
0

>  <NssssC>
1

>  <NsNH3>
0

>  <NsNH2>
0

>  <NssNH2>
0

>  <NdNH>
0

>  <NssNH>
0

>  <NaaNH>
0

>  <NtN>
0

>  <NsssNH>
0

>  <NdsN>
0

>  <NaaN>
0

>  <NsssN>
1

>  <NddsN>
0

>  <NaasN>
0

>  <NssssN>
0

>  <NsOH>
1

>  <NdO>
1

>  <NssO>
1

>  <NaaO>
0

>  <NsF>
0

>  <NsSiH3>
0

>  <NssSiH2>
0

>  <NsssSiH>
0

>  <NssssSi>
0

>  <NsPH2>
0

>  <NssPH>
0

>  <NsssP>
0

>  <NdsssP>
0

>  <NsssssP>
0

>  <NsSH>
0

>  <NdS>
0

>  <NssS>
0

>  <NaaS>
0

>  <NdssS>
0

>  <NddssS>
0

>  <NsCl>
0

>  <NsBr>
0

>  <NsI>
0

>  <fragCpx>
163.04

>  <fMF>
0.41

>  <nHBAcc>
4

>  <nHBDon>
1

>  <Kier1>
15.52

>  <Kier2>
5.52

>  <Lipinski>
1

>  <GhoseFilter>
1

>  <FilterItLogS>
-2.99

>  <VMcGowan>
222.83

>  <LabuteASA>
129.24

>  <PEOE_VSA1>
9.84

>  <PEOE_VSA2>
9.69

>  <PEOE_VSA3>
0

>  <PEOE_VSA4>
0

>  <PEOE_VSA5>
0

>  <PEOE_VSA6>
12.15

>  <PEOE_VSA7>
49.23

>  <PEOE_VSA8>
23.57

>  <PEOE_VSA9>
7.11

>  <PEOE_VSA10>
0

>  <PEOE_VSA11>
17.28

>  <PEOE_VSA12>
0

>  <PEOE_VSA13>
0

>  <SMR_VSA1>
14.64

>  <SMR_VSA2>
0

>  <SMR_VSA3>
4.9

>  <SMR_VSA4>
0

>  <SMR_VSA5>
24.3

>  <SMR_VSA6>
20.7

>  <SMR_VSA7>
47.06

>  <SMR_VSA8>
0

>  <SMR_VSA9>
11.5

>  <SlogP_VSA1>
4.74

>  <SlogP_VSA2>
36.49

>  <SlogP_VSA3>
16.63

>  <SlogP_VSA4>
0

>  <SlogP_VSA5>
29.15

>  <SlogP_VSA6>
30.37

>  <SlogP_VSA7>
0

>  <SlogP_VSA8>
0

>  <SlogP_VSA9>
0

>  <SlogP_VSA10>
0

>  <SlogP_VSA11>
11.5

>  <EState_VSA1>
5.41

>  <EState_VSA2>
17.57

>  <EState_VSA3>
5.75

>  <EState_VSA4>
24.95

>  <EState_VSA5>
11.13

>  <EState_VSA6>
19.26

>  <EState_VSA7>
18.22

>  <EState_VSA8>
11.95

>  <EState_VSA9>
4.74

>  <EState_VSA10>
9.9

>  <VSA_EState1>
5.38

>  <VSA_EState2>
13.88

>  <VSA_EState3>
10.74

>  <VSA_EState4>
2.98

>  <VSA_EState5>
0.74

>  <VSA_EState6>
2.24

>  <VSA_EState7>
8.92

>  <VSA_EState8>
0.99

>  <VSA_EState9>
3.71

>  <apol>
46.24

>  <bpol>
23.37

>  <nRing>
4

>  <nHRing>
1

>  <naRing>
1

>  <naHRing>
0

>  <nARing 2>
3

>  <nAHRing 2>
1

>  <nFRing>
1

>  <nFHRing>
1

>  <nFaRing>
0

>  <nFaHRing>
0

>  <nFARing 2>
1

>  <nFAHRing 2>
1

>  <nRot>
1

>  <SLogP>
2.27

>  <SMR>
83.32

>  <TopoPSA(NO)>
49.77

>  <TopoPSA>
49.77

>  <JGI1>
0.22

>  <JGI2>
0.09

>  <JGI3>
0.06

>  <JGI4>
0.07

>  <JGI5>
0.03

>  <Diameter>
9

>  <Radius>
5

>  <TMWC10>
124.92

>  <TSRW10>
71.99

>  <MW>
297.14

>  <AMW>
7.25

>  <WPath>
886

>  <WPol>
44

>  <Zagreb1>
128

>  <Zagreb2>
161

>  <mZagreb2>
4.71

>  <yes>


>  <nAR-cont>
0.691115

>  <nHA-cont>
0.983774276

>  <MWHBN>
0.29006107

>  <MWHBN-cont>
0.869381015

>  <TPSA-cont>
0.652574495

>  <pka_cont>
0.97

>  <yes.1>


>  <BBB_SCORE>
4.769109788

>  <MMFF94 Energy>
73.925

$$$$
Compound 1535
Actelion Java MolfileCreator 2.0

  0  0  0  0  0  0              0 V3000
M  V30 BEGIN CTAB
M  V30 COUNTS 65 68 0 0 0
M  V30 BEGIN ATOM
M  V30 1 O 4.5387 -1.1928 6.9338 0
M  V30 2 C 4.0299 -0.6456 5.9603 0
M  V30 3 O 2.7647 -0.0948 6.039 0
M  V30 4 C 4.7465 -0.5391 4.6565 0
M  V30 5 C 2.1684 0.5343 4.9361 0
M  V30 6 C 4.1975 0.0901 3.5941 0
M  V30 7 C 6.0979 -1.2036 4.6842 0
M  V30 8 C 2.832 0.6459 3.7198 0
M  V30 9 C 0.8792 1.0322 5.1426 0
M  V30 10 C 4.898 0.2774 2.2716 0
M  V30 11 C 2.1467 1.2826 2.6724 0
M  V30 12 C 0.2099 1.6659 4.0978 0
M  V30 13 C 0.8476 1.7884 2.8483 0
M  V30 14 O -1.0549 2.1907 4.1879 0
M  V30 15 O 0.1246 2.4237 1.8694 0
M  V30 16 C -1.7236 2.0857 5.4371 0
M  V30 17 C 0.6657 2.4696 0.5499 0
M  V30 18 C -0.3676 3.1065 -0.3786 0
M  V30 19 C -1.6308 2.2503 -0.5461 0
M  V30 20 N -1.3714 0.9379 -1.1634 0
M  V30 21 C -2.5499 0.0534 -0.9793 0
M  V30 22 C -1.1 1.0533 -2.6184 0
M  V30 23 C -2.371 -1.342 -1.6207 0
M  V30 24 C -0.8843 -0.3152 -3.3064 0
M  V30 25 N -2.0175 -1.2139 -3.0388 0
M  V30 26 C -2.213 -2.2749 -3.9236 0
M  V30 27 C -2.533 -2.0577 -5.2898 0
M  V30 28 C -2.1064 -3.6067 -3.4835 0
M  V30 29 O -2.6808 -0.7461 -5.6844 0
M  V30 30 C -2.6979 -3.146 -6.1598 0
M  V30 31 C -2.2831 -4.6847 -4.3539 0
M  V30 32 C -3.3022 -0.5072 -6.9387 0
M  V30 33 C -2.5738 -4.4539 -5.6919 0
M  V30 34 H 6.8006 -0.6055 5.2739 0
M  V30 35 H 6.5323 -1.3585 3.695 0
M  V30 36 H 6.0297 -2.2007 5.1344 0
M  V30 37 H 0.4323 0.9068 6.1224 0
M  V30 38 H 4.3904 -0.2906 1.4845 0
M  V30 39 H 4.9152 1.3366 1.9902 0
M  V30 40 H 5.9426 -0.0387 2.2761 0
M  V30 41 H 2.6293 1.3853 1.708 0
M  V30 42 H -1.8832 1.0381 5.7128 0
M  V30 43 H -2.7068 2.5543 5.3305 0
M  V30 44 H -1.1822 2.6244 6.2218 0
M  V30 45 H 0.923 1.4645 0.1966 0
M  V30 46 H 1.5648 3.0972 0.5509 0
M  V30 47 H -0.6735 4.073 0.042 0
M  V30 48 H 0.0909 3.3153 -1.3507 0
M  V30 49 H -2.0681 2.1059 0.4505 0
M  V30 50 H -2.3742 2.8107 -1.1281 0
M  V30 51 H -2.7339 -0.0911 0.0922 0
M  V30 52 H -3.445 0.5276 -1.405 0
M  V30 53 H -1.93 1.5717 -3.1174 0
M  V30 54 H -0.1951 1.6476 -2.7836 0
M  V30 55 H -3.3128 -1.8927 -1.5059 0
M  V30 56 H -1.5861 -1.8916 -1.0859 0
M  V30 57 H 0.035 -0.7765 -2.9223 0
M  V30 58 H -0.7257 -0.1387 -4.3752 0
M  V30 59 H -1.8563 -3.8231 -2.4489 0
M  V30 60 H -2.9237 -3.0058 -7.2111 0
M  V30 61 H -2.1847 -5.7014 -3.9833 0
M  V30 62 H -2.647 -0.807 -7.7628 0
M  V30 63 H -3.4717 0.5703 -7.027 0
M  V30 64 H -4.2767 -1.0025 -7.0053 0
M  V30 65 H -2.7055 -5.2904 -6.3729 0
M  V30 END ATOM
M  V30 BEGIN BOND
M  V30 1 2 1 2
M  V30 2 1 2 3
M  V30 3 1 2 4
M  V30 4 1 3 5
M  V30 5 2 4 6
M  V30 6 1 4 7
M  V30 7 2 5 8
M  V30 8 1 5 9
M  V30 9 1 6 10
M  V30 10 1 8 11
M  V30 11 2 9 12
M  V30 12 2 11 13
M  V30 13 1 12 14
M  V30 14 1 13 15
M  V30 15 1 14 16
M  V30 16 1 15 17
M  V30 17 1 17 18
M  V30 18 1 18 19
M  V30 19 1 19 20
M  V30 20 1 20 21
M  V30 21 1 20 22
M  V30 22 1 21 23
M  V30 23 1 22 24
M  V30 24 1 23 25
M  V30 25 1 25 26
M  V30 26 2 26 27
M  V30 27 1 26 28
M  V30 28 1 27 29
M  V30 29 1 27 30
M  V30 30 2 28 31
M  V30 31 1 29 32
M  V30 32 2 30 33
M  V30 33 1 6 8
M  V30 34 1 12 13
M  V30 35 1 24 25
M  V30 36 1 31 33
M  V30 37 1 7 34
M  V30 38 1 7 35
M  V30 39 1 7 36
M  V30 40 1 9 37
M  V30 41 1 10 38
M  V30 42 1 10 39
M  V30 43 1 10 40
M  V30 44 1 11 41
M  V30 45 1 16 42
M  V30 46 1 16 43
M  V30 47 1 16 44
M  V30 48 1 17 45
M  V30 49 1 17 46
M  V30 50 1 18 47
M  V30 51 1 18 48
M  V30 52 1 19 49
M  V30 53 1 19 50
M  V30 54 1 21 51
M  V30 55 1 21 52
M  V30 56 1 22 53
M  V30 57 1 22 54
M  V30 58 1 23 55
M  V30 59 1 23 56
M  V30 60 1 24 57
M  V30 61 1 24 58
M  V30 62 1 28 59
M  V30 63 1 30 60
M  V30 64 1 31 61
M  V30 65 1 32 62
M  V30 66 1 32 63
M  V30 67 1 32 64
M  V30 68 1 33 65
M  V30 END BOND
M  V30 END CTAB
M  END
>  <Column 1>
1862

>  <level_0>
2028

>  <index>
2028

>  <Unnamed: 0>
2028

>  <NO.>
2040

>  <Name>
ensaculin

>  <IUPAC_name>
7-methoxy-6-[3-[4-(2-methoxyphenyl)piperazin-1-yl]propoxy]-3-4-dimethylchromen-2-one

>  <SMILES>
COc1cc2oc(=O)c(C)c(C)c2cc1OCCCN1CCN(c2ccccc2OC)CC1

>  <CID>
208923

>  <logBB>


>  <BBB+/BBB->
BBB+

>  <Inchi>
InChI=1S/C26H32N2O5/c1-18-19(2)26(29)33-23-17-24(31-4)25(16-20(18)23)32-15-7-10-27-11-13-28(14-12-27)21-8-5-6-9-22(21)30-3/h5-6-8-9-16-17H-7-10-15H2-1-4H3

>  <threshold>
-1

>  <reference>
R1|R13|R19|R6|R24|R27|R27|R27|R30|R30|

>  <group>
B

>  <Class>
-1

>  <ABC>
25.5

>  <ABCGG>
18.33

>  <nAcid>
0

>  <nBase>
1

>  <nAromAtom>
16

>  <nAromBond>
17

>  <nAtom>
65

>  <nHeavyAtom>
33

>  <nSpiro>
0

>  <nBridgehead>
0

>  <nHetero>
7

>  <nN>
2

>  <nO>
5

>  <nF>
0

>  <BalabanJ>
1.17

>  <BertzCT>
1165.29

>  <nBonds>
68

>  <nBondsO>
36

>  <nBondsS>
50

>  <nBondsD>
1

>  <nBondsT>
0

>  <nBondsA>
17

>  <nBondsM>
18

>  <nBondsKS>
60

>  <nBondsKD>
8

>  <RNCG>
0.16

>  <RPCG>
0.11

>  <FCSP3>
0.42

>  <SZ>
40.33

>  <Sm>
37.68

>  <Sv>
39.76

>  <Sse>
65.19

>  <Sp>
42.5

>  <Si>
73.27

>  <MZ>
0.62

>  <Mm>
0.58

>  <Mv>
0.61

>  <Mse>
1

>  <Mp>
0.65

>  <Mi>
1.13

>  <NsCH3>
4

>  <NdCH2>
0

>  <NssCH2>
7

>  <NtCH>
0

>  <NdsCH>
0

>  <NaaCH>
6

>  <NsssCH>
0

>  <NddC>
0

>  <NtsC>
0

>  <NdssC>
0

>  <NaasC>
6

>  <NaaaC>
2

>  <NssssC>
0

>  <NsNH3>
0

>  <NsNH2>
0

>  <NssNH2>
0

>  <NdNH>
0

>  <NssNH>
0

>  <NaaNH>
0

>  <NtN>
0

>  <NsssNH>
0

>  <NdsN>
0

>  <NaaN>
0

>  <NsssN>
2

>  <NddsN>
0

>  <NaasN>
0

>  <NssssN>
0

>  <NsOH>
0

>  <NdO>
1

>  <NssO>
3

>  <NaaO>
1

>  <NsF>
0

>  <NsSiH3>
0

>  <NssSiH2>
0

>  <NsssSiH>
0

>  <NssssSi>
0

>  <NsPH2>
0

>  <NssPH>
0

>  <NsssP>
0

>  <NdsssP>
0

>  <NsssssP>
0

>  <NsSH>
0

>  <NdS>
0

>  <NssS>
0

>  <NaaS>
0

>  <NdssS>
0

>  <NddssS>
0

>  <NsCl>
0

>  <NsBr>
0

>  <NsI>
0

>  <fragCpx>
240.07

>  <fMF>
0.4

>  <nHBAcc>
7

>  <nHBDon>
0

>  <Kier1>
26.07

>  <Kier2>
12.3

>  <Lipinski>
1

>  <GhoseFilter>
0

>  <FilterItLogS>
-6.86

>  <VMcGowan>
348.67

>  <LabuteASA>
194.01

>  <PEOE_VSA1>
23.53

>  <PEOE_VSA2>
4.9

>  <PEOE_VSA3>
4.79

>  <PEOE_VSA4>
0

>  <PEOE_VSA5>
0

>  <PEOE_VSA6>
12.13

>  <PEOE_VSA7>
44.03

>  <PEOE_VSA8>
49.74

>  <PEOE_VSA9>
26.51

>  <PEOE_VSA10>
11.33

>  <PEOE_VSA11>
11.5

>  <PEOE_VSA12>
0

>  <PEOE_VSA13>
0

>  <SMR_VSA1>
18.63

>  <SMR_VSA2>
0

>  <SMR_VSA3>
4.9

>  <SMR_VSA4>
0

>  <SMR_VSA5>
20.27

>  <SMR_VSA6>
58.45

>  <SMR_VSA7>
57.95

>  <SMR_VSA8>
0

>  <SMR_VSA9>
17.25

>  <SlogP_VSA1>
24.74

>  <SlogP_VSA2>
58.45

>  <SlogP_VSA3>
0

>  <SlogP_VSA4>
13.85

>  <SlogP_VSA5>
17.55

>  <SlogP_VSA6>
45.61

>  <SlogP_VSA7>
0

>  <SlogP_VSA8>
10.97

>  <SlogP_VSA9>
0

>  <SlogP_VSA10>
5.69

>  <SlogP_VSA11>
17.25

>  <EState_VSA1>
0

>  <EState_VSA2>
5.63

>  <EState_VSA3>
29.25

>  <EState_VSA4>
61.53

>  <EState_VSA5>
0

>  <EState_VSA6>
27.21

>  <EState_VSA7>
25.12

>  <EState_VSA8>
21.93

>  <EState_VSA9>
18.63

>  <EState_VSA10>
4.79

>  <VSA_EState1>
22.47

>  <VSA_EState2>
16.83

>  <VSA_EState3>
0.87

>  <VSA_EState4>
2.88

>  <VSA_EState5>
2.16

>  <VSA_EState6>
11.83

>  <VSA_EState7>
0.91

>  <VSA_EState8>
9.23

>  <VSA_EState9>
3.31

>  <apol>
70.97

>  <bpol>
43.33

>  <nRing>
4

>  <nHRing>
2

>  <naRing>
3

>  <naHRing>
1

>  <nARing 2>
1

>  <nAHRing 2>
1

>  <nFRing>
1

>  <nFHRing>
1

>  <nFaRing>
1

>  <nFaHRing>
1

>  <nFARing 2>
0

>  <nFAHRing 2>
0

>  <nRot>
8

>  <SLogP>
4.02

>  <SMR>
130.27

>  <TopoPSA(NO)>
64.38

>  <TopoPSA>
64.38

>  <JGI1>
0.17

>  <JGI2>
0.08

>  <JGI3>
0.04

>  <JGI4>
0.04

>  <JGI5>
0.02

>  <Diameter>
18

>  <Radius>
9

>  <TMWC10>
146.91

>  <TSRW10>
69.26

>  <MW>
452.23

>  <AMW>
6.96

>  <WPath>
3842

>  <WPol>
56

>  <Zagreb1>
172

>  <Zagreb2>
204

>  <mZagreb2>
7.44

>  <yes>


>  <nAR-cont>
0.816016

>  <nHA-cont>
0.61399562

>  <MWHBN>
0.329168566

>  <MWHBN-cont>
0.745753701

>  <TPSA-cont>
0.550587622

>  <pka_cont>
0.97

>  <yes.1>


>  <BBB_SCORE>
4.134817416

>  <MMFF94 Energy>
179.77

$$$$
Compound 1536
Actelion Java MolfileCreator 2.0

  0  0  0  0  0  0              0 V3000
M  V30 BEGIN CTAB
M  V30 COUNTS 54 56 0 0 0
M  V30 BEGIN ATOM
M  V30 1 F 4.4797 -5.5218 4.8002 0
M  V30 2 C 3.8591 -4.8027 3.8565 0
M  V30 3 C 4.5921 -3.9229 3.0712 0
M  V30 4 C 2.4886 -4.9501 3.6746 0
M  V30 5 C 3.9412 -3.1752 2.0874 0
M  V30 6 C 1.8331 -4.2027 2.6906 0
M  V30 7 C 2.5555 -3.3042 1.8929 0
M  V30 8 C 1.9169 -2.4775 0.8202 0
M  V30 9 O 2.6445 -1.9658 -0.03 0
M  V30 10 C 0.4003 -2.2843 0.8095 0
M  V30 11 C -0.0416 -1.3889 1.9711 0
M  V30 12 C -0.0564 -1.6599 -0.5165 0
M  V30 13 C -1.5374 -1.0782 1.9014 0
M  V30 14 C -1.5513 -1.3459 -0.5034 0
M  V30 15 N -1.8843 -0.4549 0.6193 0
M  V30 16 C -3.3098 -0.0595 0.596 0
M  V30 17 C -3.704 0.8436 -0.5948 0
M  V30 18 N -2.7335 1.9048 -0.7967 0
M  V30 19 C -2.0743 2.0827 -1.9917 0
M  V30 20 O -2.3528 1.5065 -3.0349 0
M  V30 21 C -0.9164 3.0035 -1.9224 0
M  V30 22 C -0.7692 4.0583 -2.8282 0
M  V30 23 C 0.0664 2.7734 -0.9465 0
M  V30 24 O -1.7429 4.3465 -3.7456 0
M  V30 25 C 0.3336 4.9108 -2.7329 0
M  V30 26 C 1.1784 3.6171 -0.8625 0
M  V30 27 C -1.376 3.8504 -5.0347 0
M  V30 28 C 1.3081 4.6874 -1.756 0
M  V30 29 C 2.1736 3.3969 0.1462 0
M  V30 30 N 2.9706 3.236 0.9742 0
M  V30 31 H 5.662 -3.8231 3.2254 0
M  V30 32 H 1.9399 -5.6496 4.2983 0
M  V30 33 H 4.5201 -2.4871 1.4726 0
M  V30 34 H 0.7653 -4.3498 2.5657 0
M  V30 35 H -0.0796 -3.2671 0.8819 0
M  V30 36 H 0.1775 -1.8634 2.9339 0
M  V30 37 H 0.5301 -0.4508 1.9567 0
M  V30 38 H 0.1671 -2.3427 -1.3456 0
M  V30 39 H 0.5022 -0.7356 -0.7168 0
M  V30 40 H -2.1169 -1.9968 2.0608 0
M  V30 41 H -1.777 -0.3952 2.7256 0
M  V30 42 H -1.7945 -0.8759 -1.4615 0
M  V30 43 H -2.1282 -2.2781 -0.4449 0
M  V30 44 H -3.5151 0.5208 1.5056 0
M  V30 45 H -3.9681 -0.9369 0.6263 0
M  V30 46 H -3.8129 0.2481 -1.5067 0
M  V30 47 H -4.6676 1.3216 -0.3891 0
M  V30 48 H -2.4634 2.4511 0.0095 0
M  V30 49 H -0.0315 1.927 -0.2669 0
M  V30 50 H 0.4281 5.7559 -3.4104 0
M  V30 51 H -0.5999 4.4818 -5.4801 0
M  V30 52 H -2.2612 3.8971 -5.6759 0
M  V30 53 H -1.0375 2.8091 -4.996 0
M  V30 54 H 2.1639 5.358 -1.6938 0
M  V30 END ATOM
M  V30 BEGIN BOND
M  V30 1 1 1 2
M  V30 2 2 2 3
M  V30 3 1 2 4
M  V30 4 1 3 5
M  V30 5 2 4 6
M  V30 6 2 5 7
M  V30 7 1 7 8
M  V30 8 2 8 9
M  V30 9 1 8 10
M  V30 10 1 10 11
M  V30 11 1 10 12
M  V30 12 1 11 13
M  V30 13 1 12 14
M  V30 14 1 13 15
M  V30 15 1 15 16
M  V30 16 1 16 17
M  V30 17 1 17 18
M  V30 18 1 18 19
M  V30 19 2 19 20
M  V30 20 1 19 21
M  V30 21 2 21 22
M  V30 22 1 21 23
M  V30 23 1 22 24
M  V30 24 1 22 25
M  V30 25 2 23 26
M  V30 26 1 24 27
M  V30 27 2 25 28
M  V30 28 1 26 29
M  V30 29 3 29 30
M  V30 30 1 6 7
M  V30 31 1 14 15
M  V30 32 1 26 28
M  V30 33 1 3 31
M  V30 34 1 4 32
M  V30 35 1 5 33
M  V30 36 1 6 34
M  V30 37 1 10 35
M  V30 38 1 11 36
M  V30 39 1 11 37
M  V30 40 1 12 38
M  V30 41 1 12 39
M  V30 42 1 13 40
M  V30 43 1 13 41
M  V30 44 1 14 42
M  V30 45 1 14 43
M  V30 46 1 16 44
M  V30 47 1 16 45
M  V30 48 1 17 46
M  V30 49 1 17 47
M  V30 50 1 18 48
M  V30 51 1 23 49
M  V30 52 1 25 50
M  V30 53 1 27 51
M  V30 54 1 27 52
M  V30 55 1 27 53
M  V30 56 1 28 54
M  V30 END BOND
M  V30 END CTAB
M  END
>  <Column 1>
1864

>  <level_0>
2030

>  <index>
2030

>  <Unnamed: 0>
2030

>  <NO.>
2042

>  <Name>
prideperone

>  <IUPAC_name>
5-cyano-n-[2-[4-(4-fluorobenzoyl)piperidin-1-yl]ethyl]-2-methoxybenzamide

>  <SMILES>
COc1ccc(C#N)cc1C(=O)NCCN1CCC(C(=O)c2ccc(F)cc2)CC1

>  <CID>
3050428

>  <logBB>


>  <BBB+/BBB->
BBB+

>  <Inchi>
InChI=1S/C23H24FN3O3/c1-30-21-7-2-16(15-25)14-20(21)23(29)26-10-13-27-11-8-18(9-12-27)22(28)17-3-5-19(24)6-4-17/h2-7-14-18H-8-13H2-1H3-(H-26-29)

>  <threshold>
-1

>  <reference>
R1|R13|R19|R6|R24|R27|R27|R27|R30|R30|

>  <group>
B

>  <Class>
1

>  <ABC>
22.79

>  <ABCGG>
17.04

>  <nAcid>
0

>  <nBase>
1

>  <nAromAtom>
12

>  <nAromBond>
12

>  <nAtom>
54

>  <nHeavyAtom>
30

>  <nSpiro>
0

>  <nBridgehead>
0

>  <nHetero>
7

>  <nN>
3

>  <nO>
3

>  <nF>
1

>  <BalabanJ>
1.34

>  <BertzCT>
945.16

>  <nBonds>
56

>  <nBondsO>
32

>  <nBondsS>
41

>  <nBondsD>
2

>  <nBondsT>
1

>  <nBondsA>
12

>  <nBondsM>
15

>  <nBondsKS>
47

>  <nBondsKD>
8

>  <RNCG>
0.21

>  <RPCG>
0.11

>  <FCSP3>
0.35

>  <SZ>
36

>  <Sm>
34.09

>  <Sv>
34.57

>  <Sse>
54.59

>  <Sp>
36.33

>  <Si>
61.03

>  <MZ>
0.67

>  <Mm>
0.63

>  <Mv>
0.64

>  <Mse>
1.01

>  <Mp>
0.67

>  <Mi>
1.13

>  <NsCH3>
1

>  <NdCH2>
0

>  <NssCH2>
6

>  <NtCH>
0

>  <NdsCH>
0

>  <NaaCH>
7

>  <NsssCH>
1

>  <NddC>
0

>  <NtsC>
1

>  <NdssC>
2

>  <NaasC>
5

>  <NaaaC>
0

>  <NssssC>
0

>  <NsNH3>
0

>  <NsNH2>
0

>  <NssNH2>
0

>  <NdNH>
0

>  <NssNH>
1

>  <NaaNH>
0

>  <NtN>
1

>  <NsssNH>
0

>  <NdsN>
0

>  <NaaN>
0

>  <NsssN>
1

>  <NddsN>
0

>  <NaasN>
0

>  <NssssN>
0

>  <NsOH>
0

>  <NdO>
2

>  <NssO>
1

>  <NaaO>
0

>  <NsF>
1

>  <NsSiH3>
0

>  <NssSiH2>
0

>  <NsssSiH>
0

>  <NssssSi>
0

>  <NsPH2>
0

>  <NssPH>
0

>  <NsssP>
0

>  <NdsssP>
0

>  <NsssssP>
0

>  <NsSH>
0

>  <NdS>
0

>  <NssS>
0

>  <NaaS>
0

>  <NdssS>
0

>  <NddssS>
0

>  <NsCl>
0

>  <NsBr>
0

>  <NsI>
0

>  <fragCpx>
154.07

>  <fMF>
0.43

>  <nHBAcc>
5

>  <nHBDon>
1

>  <Kier1>
24.64

>  <Kier2>
12.3

>  <Lipinski>
1

>  <GhoseFilter>
1

>  <FilterItLogS>
-5.51

>  <VMcGowan>
308.66

>  <LabuteASA>
174.8

>  <PEOE_VSA1>
14.95

>  <PEOE_VSA2>
9.59

>  <PEOE_VSA3>
4.39

>  <PEOE_VSA4>
5.26

>  <PEOE_VSA5>
0

>  <PEOE_VSA6>
0

>  <PEOE_VSA7>
68.4

>  <PEOE_VSA8>
24.57

>  <PEOE_VSA9>
24.31

>  <PEOE_VSA10>
11.57

>  <PEOE_VSA11>
5.78

>  <PEOE_VSA12>
0

>  <PEOE_VSA13>
5.91

>  <SMR_VSA1>
18.72

>  <SMR_VSA2>
5.26

>  <SMR_VSA3>
10.22

>  <SMR_VSA4>
5.92

>  <SMR_VSA5>
12.84

>  <SMR_VSA6>
33.29

>  <SMR_VSA7>
64.97

>  <SMR_VSA8>
0

>  <SMR_VSA9>
11.82

>  <SlogP_VSA1>
10.05

>  <SlogP_VSA2>
49.88

>  <SlogP_VSA3>
0

>  <SlogP_VSA4>
23.07

>  <SlogP_VSA5>
39.12

>  <SlogP_VSA6>
42.46

>  <SlogP_VSA7>
0

>  <SlogP_VSA8>
0

>  <SlogP_VSA9>
0

>  <SlogP_VSA10>
4.39

>  <SlogP_VSA11>
5.75

>  <EState_VSA1>
0

>  <EState_VSA2>
23.43

>  <EState_VSA3>
35.53

>  <EState_VSA4>
25.93

>  <EState_VSA5>
37.44

>  <EState_VSA6>
12.13

>  <EState_VSA7>
6.07

>  <EState_VSA8>
10.22

>  <EState_VSA9>
10

>  <EState_VSA10>
13.98

>  <VSA_EState1>
18.24

>  <VSA_EState2>
27.23

>  <VSA_EState3>
11.89

>  <VSA_EState4>
1.28

>  <VSA_EState5>
-0.2

>  <VSA_EState6>
12.44

>  <VSA_EState7>
1.48

>  <VSA_EState8>
2.65

>  <VSA_EState9>
1.48

>  <apol>
60.68

>  <bpol>
31.51

>  <nRing>
3

>  <nHRing>
1

>  <naRing>
2

>  <naHRing>
0

>  <nARing 2>
1

>  <nAHRing 2>
1

>  <nFRing>
0

>  <nFHRing>
0

>  <nFaRing>
0

>  <nFaHRing>
0

>  <nFARing 2>
0

>  <nFAHRing 2>
0

>  <nRot>
7

>  <SLogP>
3.03

>  <SMR>
109.94

>  <TopoPSA(NO)>
82.43

>  <TopoPSA>
82.43

>  <JGI1>
0.19

>  <JGI2>
0.09

>  <JGI3>
0.04

>  <JGI4>
0.04

>  <JGI5>
0.03

>  <Diameter>
18

>  <Radius>
9

>  <TMWC10>
137.66

>  <TSRW10>
65.3

>  <MW>
409.18

>  <AMW>
7.58

>  <WPath>
3028

>  <WPol>
46

>  <Zagreb1>
150

>  <Zagreb2>
173

>  <mZagreb2>
6.86

>  <yes>


>  <nAR-cont>
0.816016

>  <nHA-cont>
0.74523694

>  <MWHBN>
0.296615643

>  <MWHBN-cont>
0.850731068

>  <TPSA-cont>
0.424587414

>  <pka_cont>
0.97

>  <yes.1>


>  <BBB_SCORE>
4.171524369

>  <MMFF94 Energy>
81.504

$$$$
Compound 1537
Actelion Java MolfileCreator 2.0

  0  0  0  0  0  0              0 V3000
M  V30 BEGIN CTAB
M  V30 COUNTS 29 30 0 0 0
M  V30 BEGIN ATOM
M  V30 1 O -2.0652 0.2381 0.0793 0
M  V30 2 C -1.7935 1.3985 -0.1811 0
M  V30 3 N -0.5777 1.9289 -0.6522 0
M  V30 4 C -2.7835 2.5358 -0.0773 0
M  V30 5 C 0.569 1.2634 -1.0883 0
M  V30 6 C -0.7318 3.3314 -0.955 0
M  V30 7 C -1.899 3.7688 -0.1013 0
M  V30 8 O 1.3591 1.7751 -1.8825 0
M  V30 9 C 0.8419 -0.116 -0.6178 0
M  V30 10 C 1.3182 -1.0542 -1.5381 0
M  V30 11 C 0.7269 -0.4665 0.731 0
M  V30 12 C 1.6334 -2.3473 -1.1143 0
M  V30 13 C 1.0411 -1.7654 1.1498 0
M  V30 14 C 1.4908 -2.7121 0.2274 0
M  V30 15 O 1.8311 -4.0072 0.5055 0
M  V30 16 C 1.638 -4.449 1.8432 0
M  V30 17 H -3.3637 2.4677 0.8461 0
M  V30 18 H -3.4508 2.501 -0.9441 0
M  V30 19 H 0.1862 3.8854 -0.7353 0
M  V30 20 H -0.9541 3.4303 -2.0241 0
M  V30 21 H -1.5553 3.9961 0.9154 0
M  V30 22 H -2.4078 4.6535 -0.4935 0
M  V30 23 H 1.4465 -0.7828 -2.5833 0
M  V30 24 H 0.3897 0.2589 1.4659 0
M  V30 25 H 1.9953 -3.0764 -1.8352 0
M  V30 26 H 0.9248 -2.0024 2.202 0
M  V30 27 H 2.2842 -3.9001 2.5361 0
M  V30 28 H 1.9209 -5.505 1.8906 0
M  V30 29 H 0.586 -4.3726 2.1379 0
M  V30 END ATOM
M  V30 BEGIN BOND
M  V30 1 2 1 2
M  V30 2 1 2 3
M  V30 3 1 2 4
M  V30 4 1 3 5
M  V30 5 1 3 6
M  V30 6 1 4 7
M  V30 7 2 5 8
M  V30 8 1 5 9
M  V30 9 2 9 10
M  V30 10 1 9 11
M  V30 11 1 10 12
M  V30 12 2 11 13
M  V30 13 2 12 14
M  V30 14 1 14 15
M  V30 15 1 15 16
M  V30 16 1 6 7
M  V30 17 1 13 14
M  V30 18 1 4 17
M  V30 19 1 4 18
M  V30 20 1 6 19
M  V30 21 1 6 20
M  V30 22 1 7 21
M  V30 23 1 7 22
M  V30 24 1 10 23
M  V30 25 1 11 24
M  V30 26 1 12 25
M  V30 27 1 13 26
M  V30 28 1 16 27
M  V30 29 1 16 28
M  V30 30 1 16 29
M  V30 END BOND
M  V30 END CTAB
M  END
>  <Column 1>
1865

>  <level_0>
2031

>  <index>
2031

>  <Unnamed: 0>
2031

>  <NO.>
2043

>  <Name>
aniracetam

>  <IUPAC_name>
1-(4-methoxybenzoyl)pyrrolidin-2-one

>  <SMILES>
COc1ccc(C(=O)N2CCCC2=O)cc1

>  <CID>
2196

>  <logBB>


>  <BBB+/BBB->
BBB+

>  <Inchi>
InChI=1S/C12H13NO3/c1-16-10-6-4-9(5-7-10)12(15)13-8-2-3-11(13)14/h4-7H-2-3-8H2-1H3

>  <threshold>
-1

>  <reference>
R1|R13|R19|R6|R14|R23|R24|R27|R27|R27|R30|R30|R37|

>  <group>
B

>  <Class>
1

>  <ABC>
12.12

>  <ABCGG>
11.01

>  <nAcid>
0

>  <nBase>
0

>  <nAromAtom>
6

>  <nAromBond>
6

>  <nAtom>
29

>  <nHeavyAtom>
16

>  <nSpiro>
0

>  <nBridgehead>
0

>  <nHetero>
4

>  <nN>
1

>  <nO>
3

>  <nF>
0

>  <BalabanJ>
1.83

>  <BertzCT>
410.78

>  <nBonds>
30

>  <nBondsO>
17

>  <nBondsS>
22

>  <nBondsD>
2

>  <nBondsT>
0

>  <nBondsA>
6

>  <nBondsM>
8

>  <nBondsKS>
25

>  <nBondsKD>
5

>  <RNCG>
0.34

>  <RPCG>
0.18

>  <FCSP3>
0.33

>  <SZ>
19.33

>  <Sm>
18.25

>  <Sv>
18.42

>  <Sse>
29.43

>  <Sp>
19.29

>  <Si>
32.62

>  <MZ>
0.67

>  <Mm>
0.63

>  <Mv>
0.64

>  <Mse>
1.01

>  <Mp>
0.67

>  <Mi>
1.12

>  <NsCH3>
1

>  <NdCH2>
0

>  <NssCH2>
3

>  <NtCH>
0

>  <NdsCH>
0

>  <NaaCH>
4

>  <NsssCH>
0

>  <NddC>
0

>  <NtsC>
0

>  <NdssC>
2

>  <NaasC>
2

>  <NaaaC>
0

>  <NssssC>
0

>  <NsNH3>
0

>  <NsNH2>
0

>  <NssNH2>
0

>  <NdNH>
0

>  <NssNH>
0

>  <NaaNH>
0

>  <NtN>
0

>  <NsssNH>
0

>  <NdsN>
0

>  <NaaN>
0

>  <NsssN>
1

>  <NddsN>
0

>  <NaasN>
0

>  <NssssN>
0

>  <NsOH>
0

>  <NdO>
2

>  <NssO>
1

>  <NaaO>
0

>  <NsF>
0

>  <NsSiH3>
0

>  <NssSiH2>
0

>  <NsssSiH>
0

>  <NssssSi>
0

>  <NsPH2>
0

>  <NssPH>
0

>  <NsssP>
0

>  <NdsssP>
0

>  <NsssssP>
0

>  <NsSH>
0

>  <NdS>
0

>  <NssS>
0

>  <NaaS>
0

>  <NdssS>
0

>  <NddssS>
0

>  <NsCl>
0

>  <NsBr>
0

>  <NsI>
0

>  <fragCpx>
49.04

>  <fMF>
0.41

>  <nHBAcc>
3

>  <nHBDon>
0

>  <Kier1>
12.46

>  <Kier2>
5.56

>  <Lipinski>
1

>  <GhoseFilter>
1

>  <FilterItLogS>
-2.21

>  <VMcGowan>
164.31

>  <LabuteASA>
93.81

>  <PEOE_VSA1>
4.74

>  <PEOE_VSA2>
14.49

>  <PEOE_VSA3>
0

>  <PEOE_VSA4>
0

>  <PEOE_VSA5>
0

>  <PEOE_VSA6>
0

>  <PEOE_VSA7>
30.69

>  <PEOE_VSA8>
18.53

>  <PEOE_VSA9>
7.11

>  <PEOE_VSA10>
5.75

>  <PEOE_VSA11>
0

>  <PEOE_VSA12>
5.91

>  <PEOE_VSA13>
5.91

>  <SMR_VSA1>
14.33

>  <SMR_VSA2>
0

>  <SMR_VSA3>
4.9

>  <SMR_VSA4>
0

>  <SMR_VSA5>
12.84

>  <SMR_VSA6>
13.65

>  <SMR_VSA7>
29.83

>  <SMR_VSA8>
0

>  <SMR_VSA9>
5.75

>  <SlogP_VSA1>
4.74

>  <SlogP_VSA2>
30.37

>  <SlogP_VSA3>
4.79

>  <SlogP_VSA4>
0

>  <SlogP_VSA5>
23.2

>  <SlogP_VSA6>
24.27

>  <SlogP_VSA7>
0

>  <SlogP_VSA8>
0

>  <SlogP_VSA9>
0

>  <SlogP_VSA10>
0

>  <SlogP_VSA11>
5.75

>  <EState_VSA1>
0

>  <EState_VSA2>
11.81

>  <EState_VSA3>
24.28

>  <EState_VSA4>
6.42

>  <EState_VSA5>
4.9

>  <EState_VSA6>
31.38

>  <EState_VSA7>
0

>  <EState_VSA8>
0

>  <EState_VSA9>
4.74

>  <EState_VSA10>
9.59

>  <VSA_EState1>
5

>  <VSA_EState2>
24.62

>  <VSA_EState3>
0

>  <VSA_EState4>
0.52

>  <VSA_EState5>
0.4

>  <VSA_EState6>
6.78

>  <VSA_EState7>
1.24

>  <VSA_EState8>
0.53

>  <VSA_EState9>
1.57

>  <apol>
32.21

>  <bpol>
18.22

>  <nRing>
2

>  <nHRing>
1

>  <naRing>
1

>  <naHRing>
0

>  <nARing 2>
1

>  <nAHRing 2>
1

>  <nFRing>
0

>  <nFHRing>
0

>  <nFaRing>
0

>  <nFaHRing>
0

>  <nFARing 2>
0

>  <nFAHRing 2>
0

>  <nRot>
2

>  <SLogP>
1.46

>  <SMR>
58.27

>  <TopoPSA(NO)>
46.61

>  <TopoPSA>
46.61

>  <JGI1>
0.18

>  <JGI2>
0.1

>  <JGI3>
0.05

>  <JGI4>
0.04

>  <JGI5>
0.03

>  <Diameter>
9

>  <Radius>
5

>  <TMWC10>
103.21

>  <TSRW10>
61.71

>  <MW>
219.09

>  <AMW>
7.55

>  <WPath>
453

>  <WPol>
22

>  <Zagreb1>
80

>  <Zagreb2>
93

>  <mZagreb2>
3.67

>  <yes>


>  <nAR-cont>
0.816016

>  <nHA-cont>
0.954961865

>  <MWHBN>
0.202679571

>  <MWHBN-cont>
0.99994785

>  <TPSA-cont>
0.674633257

>  <pka_cont>
0.97

>  <yes.1>


>  <BBB_SCORE>
5.105166154

>  <MMFF94 Energy>
7.1054

$$$$
Compound 1538
Actelion Java MolfileCreator 2.0

  0  0  0  0  0  0              0 V3000
M  V30 BEGIN CTAB
M  V30 COUNTS 64 67 0 0 0
M  V30 BEGIN ATOM
M  V30 1 O 1.3515 1.431 -7.0113 0
M  V30 2 C 0.9572 0.8093 -5.8517 0
M  V30 3 C 0.5173 2.4555 -7.5308 0
M  V30 4 C 1.8255 -0.1836 -5.3583 0
M  V30 5 C -0.2259 1.102 -5.1595 0
M  V30 6 O 2.9626 -0.4122 -6.0932 0
M  V30 7 C 1.4933 -0.8643 -4.1842 0
M  V30 8 C -0.5628 0.4194 -3.9781 0
M  V30 9 C 3.8794 -1.379 -5.6024 0
M  V30 10 C 0.3105 -0.5651 -3.5032 0
M  V30 11 C -1.8548 0.746 -3.2503 0 CFG=1
M  V30 12 O -2.6691 -0.4193 -3.1002 0
M  V30 13 C -1.6742 1.5089 -1.9047 0
M  V30 14 N -0.9035 0.8433 -0.8268 0
M  V30 15 C -1.6659 -0.2592 -0.2068 0
M  V30 16 C -0.5627 1.822 0.2253 0
M  V30 17 C -0.9158 -0.8955 0.9883 0
M  V30 18 C 0.1958 1.179 1.4074 0
M  V30 19 N -0.576 0.0859 2.049 0
M  V30 20 C 0.2126 -0.5571 3.1443 0
M  V30 21 C 0.6592 0.4265 4.2359 0
M  V30 22 C -0.5016 -1.7492 3.7979 0
M  V30 23 C -0.2341 1.3449 4.8144 0
M  V30 24 C 1.9855 0.4021 4.7003 0
M  V30 25 C -1.8488 -1.6788 4.1931 0
M  V30 26 C 0.2046 -2.9395 4.0424 0
M  V30 27 C 0.1887 2.2194 5.8167 0
M  V30 28 C 2.4065 1.2777 5.7034 0
M  V30 29 C -2.4736 -2.7691 4.8009 0
M  V30 30 C -0.4221 -4.0288 4.6512 0
M  V30 31 C 1.5086 2.1859 6.26 0
M  V30 32 C -1.7603 -3.9434 5.0289 0
M  V30 33 H -0.4657 2.0614 -7.8084 0
M  V30 34 H 0.9882 2.8417 -8.4398 0
M  V30 35 H 0.4263 3.2878 -6.8251 0
M  V30 36 H -0.9062 1.8638 -5.5263 0
M  V30 37 H 2.1338 -1.6336 -3.7671 0
M  V30 38 H 4.2673 -1.0936 -4.619 0
M  V30 39 H 4.7262 -1.4181 -6.2942 0
M  V30 40 H 3.4262 -2.3753 -5.5764 0
M  V30 41 H 0.0789 -1.1044 -2.5869 0
M  V30 42 H -2.4442 1.4085 -3.897 0
M  V30 43 H -2.3625 -1.0693 -3.755 0
M  V30 44 H -2.6685 1.7786 -1.5233 0
M  V30 45 H -1.1652 2.45 -2.1546 0
M  V30 46 H -1.8357 -1.0583 -0.9337 0
M  V30 47 H -2.6487 0.0916 0.1354 0
M  V30 48 H 0.079 2.6034 -0.1998 0
M  V30 49 H -1.4686 2.3141 0.605 0
M  V30 50 H -1.5672 -1.6816 1.3844 0
M  V30 51 H -0.0062 -1.3855 0.6145 0
M  V30 52 H 0.3991 1.9813 2.1244 0
M  V30 53 H 1.1662 0.8079 1.0503 0
M  V30 54 H 1.1262 -0.9504 2.6734 0
M  V30 55 H -1.2666 1.3853 4.475 0
M  V30 56 H 2.7002 -0.304 4.2846 0
M  V30 57 H -2.4197 -0.77 4.0171 0
M  V30 58 H 1.2519 -3.0239 3.763 0
M  V30 59 H -0.5141 2.9248 6.2517 0
M  V30 60 H 3.4348 1.2478 6.0535 0
M  V30 61 H -3.5167 -2.699 5.0971 0
M  V30 62 H 0.1359 -4.943 4.8348 0
M  V30 63 H 1.8364 2.8652 7.0422 0
M  V30 64 H -2.2467 -4.7907 5.5045 0
M  V30 END ATOM
M  V30 BEGIN BOND
M  V30 1 1 1 2
M  V30 2 1 1 3
M  V30 3 2 2 4
M  V30 4 1 2 5
M  V30 5 1 4 6
M  V30 6 1 4 7
M  V30 7 2 5 8
M  V30 8 1 6 9
M  V30 9 2 7 10
M  V30 10 1 8 11
M  V30 11 1 11 12
M  V30 12 1 11 13
M  V30 13 1 13 14
M  V30 14 1 14 15
M  V30 15 1 14 16
M  V30 16 1 15 17
M  V30 17 1 16 18
M  V30 18 1 17 19
M  V30 19 1 19 20
M  V30 20 1 20 21
M  V30 21 1 20 22
M  V30 22 2 21 23
M  V30 23 1 21 24
M  V30 24 2 22 25
M  V30 25 1 22 26
M  V30 26 1 23 27
M  V30 27 2 24 28
M  V30 28 1 25 29
M  V30 29 2 26 30
M  V30 30 2 27 31
M  V30 31 2 29 32
M  V30 32 1 8 10
M  V30 33 1 18 19
M  V30 34 1 28 31
M  V30 35 1 30 32
M  V30 36 1 3 33
M  V30 37 1 3 34
M  V30 38 1 3 35
M  V30 39 1 5 36
M  V30 40 1 7 37
M  V30 41 1 9 38
M  V30 42 1 9 39
M  V30 43 1 9 40
M  V30 44 1 10 41
M  V30 45 1 11 42
M  V30 46 1 12 43
M  V30 47 1 13 44
M  V30 48 1 13 45
M  V30 49 1 15 46
M  V30 50 1 15 47
M  V30 51 1 16 48
M  V30 52 1 16 49
M  V30 53 1 17 50
M  V30 54 1 17 51
M  V30 55 1 18 52
M  V30 56 1 18 53
M  V30 57 1 20 54
M  V30 58 1 23 55
M  V30 59 1 24 56
M  V30 60 1 25 57
M  V30 61 1 26 58
M  V30 62 1 27 59
M  V30 63 1 28 60
M  V30 64 1 29 61
M  V30 65 1 30 62
M  V30 66 1 31 63
M  V30 67 1 32 64
M  V30 END BOND
M  V30 BEGIN COLLECTION
M  V30 MDLV30/STERAC1 ATOMS=(1 11)
M  V30 END COLLECTION
M  V30 END CTAB
M  END
>  <Column 1>
1866

>  <level_0>
2032

>  <index>
2032

>  <Unnamed: 0>
2032

>  <NO.>
2044

>  <Name>
tamolarizine

>  <IUPAC_name>
2-(4-benzhydrylpiperazin-1-yl)-1-(3-4-dimethoxyphenyl)ethanol

>  <SMILES>
COc1ccc(C(O)CN2CCN(C(c3ccccc3)c3ccccc3)CC2)cc1OC

>  <CID>
146396

>  <logBB>


>  <BBB+/BBB->
BBB+

>  <Inchi>
InChI=1S/C27H32N2O3/c1-31-25-14-13-23(19-26(25)32-2)24(30)20-28-15-17-29(18-16-28)27(21-9-5-3-6-10-21)22-11-7-4-8-12-22/h3-14-19-24-27-30H-15-18-20H2-1-2H3

>  <threshold>
-1

>  <reference>
R1|R19|R6|R27|R27|R30|

>  <group>
B

>  <Class>
-1

>  <ABC>
24.66

>  <ABCGG>
18.36

>  <nAcid>
0

>  <nBase>
2

>  <nAromAtom>
18

>  <nAromBond>
18

>  <nAtom>
64

>  <nHeavyAtom>
32

>  <nSpiro>
0

>  <nBridgehead>
0

>  <nHetero>
5

>  <nN>
2

>  <nO>
3

>  <nF>
0

>  <BalabanJ>
1.28

>  <BertzCT>
933.21

>  <nBonds>
67

>  <nBondsO>
35

>  <nBondsS>
49

>  <nBondsD>
0

>  <nBondsT>
0

>  <nBondsA>
18

>  <nBondsM>
18

>  <nBondsKS>
58

>  <nBondsKD>
9

>  <RNCG>
0.18

>  <RPCG>
0.08

>  <FCSP3>
0.33

>  <SZ>
38.67

>  <Sm>
36.01

>  <Sv>
39.33

>  <Sse>
63.52

>  <Sp>
42.53

>  <Si>
71.85

>  <MZ>
0.6

>  <Mm>
0.56

>  <Mv>
0.61

>  <Mse>
0.99

>  <Mp>
0.66

>  <Mi>
1.12

>  <NsCH3>
2

>  <NdCH2>
0

>  <NssCH2>
5

>  <NtCH>
0

>  <NdsCH>
0

>  <NaaCH>
13

>  <NsssCH>
2

>  <NddC>
0

>  <NtsC>
0

>  <NdssC>
0

>  <NaasC>
5

>  <NaaaC>
0

>  <NssssC>
0

>  <NsNH3>
0

>  <NsNH2>
0

>  <NssNH2>
0

>  <NdNH>
0

>  <NssNH>
0

>  <NaaNH>
0

>  <NtN>
0

>  <NsssNH>
0

>  <NdsN>
0

>  <NaaN>
0

>  <NsssN>
2

>  <NddsN>
0

>  <NaasN>
0

>  <NssssN>
0

>  <NsOH>
1

>  <NdO>
0

>  <NssO>
2

>  <NaaO>
0

>  <NsF>
0

>  <NsSiH3>
0

>  <NssSiH2>
0

>  <NsssSiH>
0

>  <NssssSi>
0

>  <NsPH2>
0

>  <NssPH>
0

>  <NsssP>
0

>  <NdsssP>
0

>  <NsssssP>
0

>  <NsSH>
0

>  <NdS>
0

>  <NssS>
0

>  <NaaS>
0

>  <NdssS>
0

>  <NddssS>
0

>  <NsCl>
0

>  <NsBr>
0

>  <NsI>
0

>  <fragCpx>
233.05

>  <fMF>
0.42

>  <nHBAcc>
5

>  <nHBDon>
1

>  <Kier1>
25.1

>  <Kier2>
12.63

>  <Lipinski>
1

>  <GhoseFilter>
1

>  <FilterItLogS>
-5.32

>  <VMcGowan>
346.72

>  <LabuteASA>
190.37

>  <PEOE_VSA1>
14.58

>  <PEOE_VSA2>
9.8

>  <PEOE_VSA3>
0

>  <PEOE_VSA4>
0

>  <PEOE_VSA5>
0

>  <PEOE_VSA6>
66.73

>  <PEOE_VSA7>
28.82

>  <PEOE_VSA8>
32.72

>  <PEOE_VSA9>
26.37

>  <PEOE_VSA10>
0

>  <PEOE_VSA11>
11.5

>  <PEOE_VSA12>
0

>  <PEOE_VSA13>
0

>  <SMR_VSA1>
14.58

>  <SMR_VSA2>
0

>  <SMR_VSA3>
9.8

>  <SMR_VSA4>
0

>  <SMR_VSA5>
12.15

>  <SMR_VSA6>
46.94

>  <SMR_VSA7>
95.55

>  <SMR_VSA8>
0

>  <SMR_VSA9>
11.5

>  <SlogP_VSA1>
9.47

>  <SlogP_VSA2>
61.85

>  <SlogP_VSA3>
0

>  <SlogP_VSA4>
0

>  <SlogP_VSA5>
28.84

>  <SlogP_VSA6>
78.86

>  <SlogP_VSA7>
0

>  <SlogP_VSA8>
0

>  <SlogP_VSA9>
0

>  <SlogP_VSA10>
0

>  <SlogP_VSA11>
11.5

>  <EState_VSA1>
6.1

>  <EState_VSA2>
6.04

>  <EState_VSA3>
18.04

>  <EState_VSA4>
31.74

>  <EState_VSA5>
11.13

>  <EState_VSA6>
14.22

>  <EState_VSA7>
18.2

>  <EState_VSA8>
70.46

>  <EState_VSA9>
9.47

>  <EState_VSA10>
5.11

>  <VSA_EState1>
10.69

>  <VSA_EState2>
4.88

>  <VSA_EState3>
10.84

>  <VSA_EState4>
3.48

>  <VSA_EState5>
1.31

>  <VSA_EState6>
27.3

>  <VSA_EState7>
-0.57

>  <VSA_EState8>
4.34

>  <VSA_EState9>
3.23

>  <apol>
71.03

>  <bpol>
38.99

>  <nRing>
4

>  <nHRing>
1

>  <naRing>
3

>  <naHRing>
0

>  <nARing 2>
1

>  <nAHRing 2>
1

>  <nFRing>
0

>  <nFHRing>
0

>  <nFaRing>
0

>  <nFaHRing>
0

>  <nFARing 2>
0

>  <nFAHRing 2>
0

>  <nRot>
8

>  <SLogP>
4.14

>  <SMR>
127.25

>  <TopoPSA(NO)>
45.17

>  <TopoPSA>
45.17

>  <JGI1>
0.14

>  <JGI2>
0.07

>  <JGI3>
0.04

>  <JGI4>
0.04

>  <JGI5>
0.01

>  <Diameter>
16

>  <Radius>
8

>  <TMWC10>
144.06

>  <TSRW10>
67.85

>  <MW>
432.24

>  <AMW>
6.75

>  <WPath>
3254

>  <WPol>
51

>  <Zagreb1>
164

>  <Zagreb2>
192

>  <mZagreb2>
7.31

>  <yes>


>  <nAR-cont>
0.816016

>  <nHA-cont>
0.658856097

>  <MWHBN>
0.28859498

>  <MWHBN-cont>
0.873420772

>  <TPSA-cont>
0.684685351

>  <pka_cont>
0.97

>  <yes.1>


>  <BBB_SCORE>
4.639373957

>  <MMFF94 Energy>
193.5

$$$$
Compound 1539
Actelion Java MolfileCreator 2.0

  0  0  0  0  0  0              0 V3000
M  V30 BEGIN CTAB
M  V30 COUNTS 56 58 0 0 0
M  V30 BEGIN ATOM
M  V30 1 O 0.7131 -2.22 1.9027 0
M  V30 2 C 0.4934 -1.5907 0.8667 0
M  V30 3 N 1.2956 -0.5097 0.5011 0
M  V30 4 C -0.6493 -1.9569 -0.0771 0
M  V30 5 C 1.0424 0.391 -0.6631 0 CFG=2
M  V30 6 C 2.356 -0.0813 1.4263 0
M  V30 7 C -1.5312 -3.0831 0.4102 0
M  V30 8 C 2.3767 0.7425 -1.3567 0
M  V30 9 C 0.2105 1.6256 -0.2067 0
M  V30 10 C 3.6523 0.3052 0.7023 0
M  V30 11 C -1.2866 -4.403 0.015 0
M  V30 12 C -2.5982 -2.8256 1.281 0
M  V30 13 N 3.386 1.2231 -0.4099 0
M  V30 14 N -0.5157 2.3234 -1.2793 0
M  V30 15 C -2.1055 -5.4386 0.4716 0
M  V30 16 C -3.4153 -3.8661 1.7379 0
M  V30 17 C 4.0175 2.4324 -0.6355 0
M  V30 18 C 0.3142 3.2811 -2.0359 0
M  V30 19 C -1.6167 3.1337 -0.7346 0
M  V30 20 C -3.1728 -5.1783 1.3333 0
M  V30 21 O 3.7327 3.1616 -1.5862 0
M  V30 22 C 5.0828 2.8507 0.3443 0
M  V30 23 C -0.6222 4.4262 -2.4563 0 CFG=1
M  V30 24 C -1.9798 4.0333 -1.9014 0
M  V30 25 O -3.8926 -6.2814 1.7022 0
M  V30 26 O -0.2227 5.6585 -1.856 0
M  V30 27 C -4.9599 -6.0732 2.618 0
M  V30 28 H -0.2203 -2.2354 -1.0471 0
M  V30 29 H -1.2781 -1.0739 -0.2401 0
M  V30 30 H 0.4409 -0.1537 -1.3969 0
M  V30 31 H 2.5753 -0.8578 2.1657 0
M  V30 32 H 1.964 0.784 1.9739 0
M  V30 33 H 2.2367 1.4407 -2.1817 0
M  V30 34 H 2.7943 -0.1703 -1.8016 0
M  V30 35 H 0.8296 2.3207 0.3752 0
M  V30 36 H -0.5405 1.2456 0.5003 0
M  V30 37 H 4.1169 -0.5882 0.2685 0
M  V30 38 H 4.3589 0.727 1.4197 0
M  V30 39 H -0.4559 -4.6388 -0.6452 0
M  V30 40 H -2.7985 -1.8108 1.6176 0
M  V30 41 H -1.9054 -6.4599 0.158 0
M  V30 42 H -4.228 -3.6159 2.4109 0
M  V30 43 H 0.7085 2.7882 -2.9291 0
M  V30 44 H 1.1471 3.6723 -1.4425 0
M  V30 45 H -1.2927 3.7353 0.1245 0
M  V30 46 H -2.465 2.5118 -0.4315 0
M  V30 47 H 4.6448 2.995 1.3355 0
M  V30 48 H 5.8765 2.1002 0.3835 0
M  V30 49 H 5.5235 3.7984 0.0207 0
M  V30 50 H -0.6573 4.5666 -3.5411 0
M  V30 51 H -2.5431 3.4623 -2.6495 0
M  V30 52 H -2.5823 4.8888 -1.5812 0
M  V30 53 H 0.6865 5.8408 -2.1525 0
M  V30 54 H -4.5936 -5.6692 3.5676 0
M  V30 55 H -5.4173 -7.0455 2.8248 0
M  V30 56 H -5.7314 -5.4284 2.1845 0
M  V30 END ATOM
M  V30 BEGIN BOND
M  V30 1 2 1 2
M  V30 2 1 2 3
M  V30 3 1 2 4
M  V30 4 1 3 5
M  V30 5 1 3 6
M  V30 6 1 4 7
M  V30 7 1 5 8
M  V30 8 1 5 9
M  V30 9 1 6 10
M  V30 10 2 7 11
M  V30 11 1 7 12
M  V30 12 1 8 13
M  V30 13 1 9 14
M  V30 14 1 11 15
M  V30 15 2 12 16
M  V30 16 1 13 17
M  V30 17 1 14 18
M  V30 18 1 14 19
M  V30 19 2 15 20
M  V30 20 2 17 21
M  V30 21 1 17 22
M  V30 22 1 18 23
M  V30 23 1 19 24
M  V30 24 1 20 25
M  V30 25 1 23 26
M  V30 26 1 25 27
M  V30 27 1 10 13
M  V30 28 1 16 20
M  V30 29 1 23 24
M  V30 30 1 4 28
M  V30 31 1 4 29
M  V30 32 1 5 30
M  V30 33 1 6 31
M  V30 34 1 6 32
M  V30 35 1 8 33
M  V30 36 1 8 34
M  V30 37 1 9 35
M  V30 38 1 9 36
M  V30 39 1 10 37
M  V30 40 1 10 38
M  V30 41 1 11 39
M  V30 42 1 12 40
M  V30 43 1 15 41
M  V30 44 1 16 42
M  V30 45 1 18 43
M  V30 46 1 18 44
M  V30 47 1 19 45
M  V30 48 1 19 46
M  V30 49 1 22 47
M  V30 50 1 22 48
M  V30 51 1 22 49
M  V30 52 1 23 50
M  V30 53 1 24 51
M  V30 54 1 24 52
M  V30 55 1 26 53
M  V30 56 1 27 54
M  V30 57 1 27 55
M  V30 58 1 27 56
M  V30 END BOND
M  V30 BEGIN COLLECTION
M  V30 MDLV30/STEABS ATOMS=(2 5 23)
M  V30 END COLLECTION
M  V30 END CTAB
M  END
>  <Column 1>
1867

>  <level_0>
2033

>  <index>
2033

>  <Unnamed: 0>
2033

>  <NO.>
2045

>  <Name>
gr94839_f

>  <IUPAC_name>
1-[(2s)-4-acetyl-2-[[(3r)-3-hydroxypyrrolidin-1-yl]methyl]piperazin-1-yl]-2-(4-methoxyphenyl)ethanone

>  <SMILES>
COc1ccc(CC(=O)N2CCN(C(C)=O)C[C@@H]2CN2CC[C@@H](O)C2)cc1

>  <CID>
44310707

>  <logBB>


>  <BBB+/BBB->
BBB-

>  <Inchi>
InChI=1S/C20H29N3O4/c1-15(24)22-9-10-23(17(13-22)12-21-8-7-18(25)14-21)20(26)11-16-3-5-19(27-2)6-4-16/h3-6-17-18-25H-7-14H2-1-2H3/t17--18+/m0/s1

>  <threshold>
-1

>  <reference>
R1|R28|R9|R24|R27|R30|

>  <group>
B

>  <Class>
1

>  <ABC>
20.82

>  <ABCGG>
16.81

>  <nAcid>
0

>  <nBase>
1

>  <nAromAtom>
6

>  <nAromBond>
6

>  <nAtom>
56

>  <nHeavyAtom>
27

>  <nSpiro>
0

>  <nBridgehead>
0

>  <nHetero>
7

>  <nN>
3

>  <nO>
4

>  <nF>
0

>  <BalabanJ>
1.56

>  <BertzCT>
663.7

>  <nBonds>
58

>  <nBondsO>
29

>  <nBondsS>
50

>  <nBondsD>
2

>  <nBondsT>
0

>  <nBondsA>
6

>  <nBondsM>
8

>  <nBondsKS>
53

>  <nBondsKD>
5

>  <RNCG>
0.19

>  <RPCG>
0.09

>  <FCSP3>
0.6

>  <SZ>
33.67

>  <Sm>
31.26

>  <Sv>
32.99

>  <Sse>
56.19

>  <Sp>
35.48

>  <Si>
63.73

>  <MZ>
0.6

>  <Mm>
0.56

>  <Mv>
0.59

>  <Mse>
1

>  <Mp>
0.63

>  <Mi>
1.14

>  <NsCH3>
2

>  <NdCH2>
0

>  <NssCH2>
8

>  <NtCH>
0

>  <NdsCH>
0

>  <NaaCH>
4

>  <NsssCH>
2

>  <NddC>
0

>  <NtsC>
0

>  <NdssC>
2

>  <NaasC>
2

>  <NaaaC>
0

>  <NssssC>
0

>  <NsNH3>
0

>  <NsNH2>
0

>  <NssNH2>
0

>  <NdNH>
0

>  <NssNH>
0

>  <NaaNH>
0

>  <NtN>
0

>  <NsssNH>
0

>  <NdsN>
0

>  <NaaN>
0

>  <NsssN>
3

>  <NddsN>
0

>  <NaasN>
0

>  <NssssN>
0

>  <NsOH>
1

>  <NdO>
2

>  <NssO>
1

>  <NaaO>
0

>  <NsF>
0

>  <NsSiH3>
0

>  <NssSiH2>
0

>  <NsssSiH>
0

>  <NssssSi>
0

>  <NsPH2>
0

>  <NssPH>
0

>  <NsssP>
0

>  <NdsssP>
0

>  <NsssssP>
0

>  <NsSH>
0

>  <NdS>
0

>  <NssS>
0

>  <NaaS>
0

>  <NdssS>
0

>  <NddssS>
0

>  <NsCl>
0

>  <NsBr>
0

>  <NsI>
0

>  <fragCpx>
139.07

>  <fMF>
0.36

>  <nHBAcc>
5

>  <nHBDon>
1

>  <Kier1>
21.7

>  <Kier2>
10.16

>  <Lipinski>
1

>  <GhoseFilter>
1

>  <FilterItLogS>
-2.15

>  <VMcGowan>
292

>  <LabuteASA>
160.04

>  <PEOE_VSA1>
19.64

>  <PEOE_VSA2>
14.49

>  <PEOE_VSA3>
0

>  <PEOE_VSA4>
0

>  <PEOE_VSA5>
0

>  <PEOE_VSA6>
12.13

>  <PEOE_VSA7>
24.12

>  <PEOE_VSA8>
46.19

>  <PEOE_VSA9>
25.68

>  <PEOE_VSA10>
5.75

>  <PEOE_VSA11>
0

>  <PEOE_VSA12>
11.81

>  <PEOE_VSA13>
0

>  <SMR_VSA1>
19.43

>  <SMR_VSA2>
0

>  <SMR_VSA3>
14.7

>  <SMR_VSA4>
0

>  <SMR_VSA5>
31.91

>  <SMR_VSA6>
46.38

>  <SMR_VSA7>
29.83

>  <SMR_VSA8>
0

>  <SMR_VSA9>
5.75

>  <SlogP_VSA1>
4.74

>  <SlogP_VSA2>
90.14

>  <SlogP_VSA3>
16.01

>  <SlogP_VSA4>
0

>  <SlogP_VSA5>
18.91

>  <SlogP_VSA6>
24.27

>  <SlogP_VSA7>
0

>  <SlogP_VSA8>
0

>  <SlogP_VSA9>
0

>  <SlogP_VSA10>
0

>  <SlogP_VSA11>
5.75

>  <EState_VSA1>
0

>  <EState_VSA2>
23.96

>  <EState_VSA3>
39.14

>  <EState_VSA4>
24.28

>  <EState_VSA5>
0

>  <EState_VSA6>
14.03

>  <EState_VSA7>
34.07

>  <EState_VSA8>
4.9

>  <EState_VSA9>
4.74

>  <EState_VSA10>
14.7

>  <VSA_EState1>
5.17

>  <VSA_EState2>
30.7

>  <VSA_EState3>
9.78

>  <VSA_EState4>
0.95

>  <VSA_EState5>
0.89

>  <VSA_EState6>
7.5

>  <VSA_EState7>
0.81

>  <VSA_EState8>
5.41

>  <VSA_EState9>
1.62

>  <apol>
59.25

>  <bpol>
37.7

>  <nRing>
3

>  <nHRing>
2

>  <naRing>
1

>  <naHRing>
0

>  <nARing 2>
2

>  <nAHRing 2>
2

>  <nFRing>
0

>  <nFHRing>
0

>  <nFaRing>
0

>  <nFaHRing>
0

>  <nFARing 2>
0

>  <nFAHRing 2>
0

>  <nRot>
5

>  <SLogP>
0.36

>  <SMR>
101.52

>  <TopoPSA(NO)>
73.32

>  <TopoPSA>
73.32

>  <JGI1>
0.22

>  <JGI2>
0.07

>  <JGI3>
0.05

>  <JGI4>
0.04

>  <JGI5>
0.03

>  <Diameter>
14

>  <Radius>
7

>  <TMWC10>
131.17

>  <TSRW10>
75.37

>  <MW>
375.22

>  <AMW>
6.7

>  <WPath>
1961

>  <WPol>
39

>  <Zagreb1>
138

>  <Zagreb2>
159

>  <mZagreb2>
6

>  <yes>


>  <nAR-cont>
1

>  <nHA-cont>
0.860070871

>  <MWHBN>
0.309747822

>  <MWHBN-cont>
0.810671184

>  <TPSA-cont>
0.488180871

>  <pka_cont>
0.97

>  <yes.1>


>  <BBB_SCORE>
4.537439389

>  <MMFF94 Energy>
107.73

$$$$
Compound 1540
Actelion Java MolfileCreator 2.0

  0  0  0  0  0  0              0 V3000
M  V30 BEGIN CTAB
M  V30 COUNTS 50 52 0 0 0
M  V30 BEGIN ATOM
M  V30 1 Cl 1.197 -2.7947 -8.0009 0
M  V30 2 C 1.333 -1.3032 -7.1507 0
M  V30 3 C 0.9938 -1.2442 -5.7961 0
M  V30 4 C 1.7851 -0.1708 -7.8171 0
M  V30 5 C 1.0927 -0.0479 -5.0673 0
M  V30 6 C 1.9029 1.025 -7.1179 0
M  V30 7 N 0.7572 -0.0108 -3.7173 0
M  V30 8 C 1.5638 1.0795 -5.7602 0
M  V30 9 C 1.2602 1.0684 -2.8525 0
M  V30 10 C -0.5566 -0.5469 -3.3131 0
M  V30 11 C 1.1855 0.673 -1.3583 0
M  V30 12 C -0.5775 -0.8933 -1.8071 0
M  V30 13 N -0.1655 0.2352 -0.9367 0
M  V30 14 C -0.1935 -0.1895 0.4763 0
M  V30 15 C -0.0249 0.9774 1.4642 0
M  V30 16 C -0.2004 0.5235 2.8954 0
M  V30 17 C -1.4647 0.562 3.5026 0
M  V30 18 C 0.8881 0.0319 3.6212 0
M  V30 19 C -1.641 0.1245 4.8216 0
M  V30 20 C 0.7226 -0.4074 4.9371 0
M  V30 21 O -2.843 0.1299 5.4867 0
M  V30 22 C -0.5358 -0.365 5.546 0
M  V30 23 C -3.9735 0.6487 4.802 0
M  V30 24 O -0.7903 -0.7762 6.8314 0
M  V30 25 C 0.3028 -1.2619 7.5963 0
M  V30 26 H 0.6786 -2.1567 -5.2985 0
M  V30 27 H 2.0486 -0.2144 -8.8697 0
M  V30 28 H 2.2553 1.92 -7.6239 0
M  V30 29 H 1.6554 2.0387 -5.2577 0
M  V30 30 H 0.6733 1.9807 -3.0195 0
M  V30 31 H 2.3098 1.2894 -3.0821 0
M  V30 32 H -0.8232 -1.4548 -3.8643 0
M  V30 33 H -1.3294 0.2019 -3.5298 0
M  V30 34 H 1.4964 1.5478 -0.7773 0
M  V30 35 H 1.9163 -0.1244 -1.1671 0
M  V30 36 H 0.0767 -1.759 -1.6354 0
M  V30 37 H -1.5986 -1.1991 -1.5478 0
M  V30 38 H 0.5658 -0.9598 0.6671 0
M  V30 39 H -1.1664 -0.6575 0.6798 0
M  V30 40 H 0.9643 1.4392 1.3645 0
M  V30 41 H -0.7532 1.7683 1.2425 0
M  V30 42 H -2.3008 0.9378 2.9212 0
M  V30 43 H 1.8761 -0.0132 3.1681 0
M  V30 44 H 1.5974 -0.7787 5.4596 0
M  V30 45 H -3.8278 1.7012 4.5371 0
M  V30 46 H -4.8301 0.5935 5.4809 0
M  V30 47 H -4.2111 0.0462 3.9192 0
M  V30 48 H 0.7309 -2.1631 7.1456 0
M  V30 49 H -0.0763 -1.5344 8.5861 0
M  V30 50 H 1.0641 -0.4871 7.7347 0
M  V30 END ATOM
M  V30 BEGIN BOND
M  V30 1 1 1 2
M  V30 2 2 2 3
M  V30 3 1 2 4
M  V30 4 1 3 5
M  V30 5 2 4 6
M  V30 6 1 5 7
M  V30 7 2 5 8
M  V30 8 1 7 9
M  V30 9 1 7 10
M  V30 10 1 9 11
M  V30 11 1 10 12
M  V30 12 1 11 13
M  V30 13 1 13 14
M  V30 14 1 14 15
M  V30 15 1 15 16
M  V30 16 2 16 17
M  V30 17 1 16 18
M  V30 18 1 17 19
M  V30 19 2 18 20
M  V30 20 1 19 21
M  V30 21 2 19 22
M  V30 22 1 21 23
M  V30 23 1 22 24
M  V30 24 1 24 25
M  V30 25 1 6 8
M  V30 26 1 12 13
M  V30 27 1 20 22
M  V30 28 1 3 26
M  V30 29 1 4 27
M  V30 30 1 6 28
M  V30 31 1 8 29
M  V30 32 1 9 30
M  V30 33 1 9 31
M  V30 34 1 10 32
M  V30 35 1 10 33
M  V30 36 1 11 34
M  V30 37 1 11 35
M  V30 38 1 12 36
M  V30 39 1 12 37
M  V30 40 1 14 38
M  V30 41 1 14 39
M  V30 42 1 15 40
M  V30 43 1 15 41
M  V30 44 1 17 42
M  V30 45 1 18 43
M  V30 46 1 20 44
M  V30 47 1 23 45
M  V30 48 1 23 46
M  V30 49 1 23 47
M  V30 50 1 25 48
M  V30 51 1 25 49
M  V30 52 1 25 50
M  V30 END BOND
M  V30 END CTAB
M  END
>  <Column 1>
1868

>  <level_0>
2034

>  <index>
2034

>  <Unnamed: 0>
2034

>  <NO.>
2046

>  <Name>
brn 0626697

>  <IUPAC_name>
1-(3-chlorophenyl)-4-[2-(3-4-dimethoxyphenyl)ethyl]piperazine

>  <SMILES>
COc1ccc(CCN2CCN(c3cccc(Cl)c3)CC2)cc1OC

>  <CID>
71066

>  <logBB>


>  <BBB+/BBB->
BBB+

>  <Inchi>
InChI=1S/C20H25ClN2O2/c1-24-19-7-6-16(14-20(19)25-2)8-9-22-10-12-23(13-11-22)18-5-3-4-17(21)15-18/h3-7-14-15H-8-13H2-1-2H3

>  <threshold>
-1

>  <reference>
R1|R13|R27|R30|

>  <group>
B

>  <Class>
-1

>  <ABC>
19.12

>  <ABCGG>
14.23

>  <nAcid>
0

>  <nBase>
1

>  <nAromAtom>
12

>  <nAromBond>
12

>  <nAtom>
50

>  <nHeavyAtom>
25

>  <nSpiro>
0

>  <nBridgehead>
0

>  <nHetero>
5

>  <nN>
2

>  <nO>
2

>  <nF>
0

>  <BalabanJ>
1.35

>  <BertzCT>
699.85

>  <nBonds>
52

>  <nBondsO>
27

>  <nBondsS>
40

>  <nBondsD>
0

>  <nBondsT>
0

>  <nBondsA>
12

>  <nBondsM>
12

>  <nBondsKS>
46

>  <nBondsKD>
6

>  <RNCG>
0.24

>  <RPCG>
0.08

>  <FCSP3>
0.4

>  <SZ>
32

>  <Sm>
30.05

>  <Sv>
30.81

>  <Sse>
49.85

>  <Sp>
33.57

>  <Si>
56.34

>  <MZ>
0.64

>  <Mm>
0.6

>  <Mv>
0.62

>  <Mse>
1

>  <Mp>
0.67

>  <Mi>
1.13

>  <NsCH3>
2

>  <NdCH2>
0

>  <NssCH2>
6

>  <NtCH>
0

>  <NdsCH>
0

>  <NaaCH>
7

>  <NsssCH>
0

>  <NddC>
0

>  <NtsC>
0

>  <NdssC>
0

>  <NaasC>
5

>  <NaaaC>
0

>  <NssssC>
0

>  <NsNH3>
0

>  <NsNH2>
0

>  <NssNH2>
0

>  <NdNH>
0

>  <NssNH>
0

>  <NaaNH>
0

>  <NtN>
0

>  <NsssNH>
0

>  <NdsN>
0

>  <NaaN>
0

>  <NsssN>
2

>  <NddsN>
0

>  <NaasN>
0

>  <NssssN>
0

>  <NsOH>
0

>  <NdO>
0

>  <NssO>
2

>  <NaaO>
0

>  <NsF>
0

>  <NsSiH3>
0

>  <NssSiH2>
0

>  <NsssSiH>
0

>  <NssssSi>
0

>  <NsPH2>
0

>  <NssPH>
0

>  <NsssP>
0

>  <NdsssP>
0

>  <NsssssP>
0

>  <NsSH>
0

>  <NdS>
0

>  <NssS>
0

>  <NaaS>
0

>  <NdssS>
0

>  <NddssS>
0

>  <NsCl>
1

>  <NsBr>
0

>  <NsI>
0

>  <fragCpx>
129.05

>  <fMF>
0.4

>  <nHBAcc>
4

>  <nHBDon>
0

>  <Kier1>
19.75

>  <Kier2>
9.8

>  <Lipinski>
1

>  <GhoseFilter>
1

>  <FilterItLogS>
-5.27

>  <VMcGowan>
278.22

>  <LabuteASA>
154.45

>  <PEOE_VSA1>
14.37

>  <PEOE_VSA2>
4.9

>  <PEOE_VSA3>
0

>  <PEOE_VSA4>
0

>  <PEOE_VSA5>
0

>  <PEOE_VSA6>
23.73

>  <PEOE_VSA7>
42.32

>  <PEOE_VSA8>
43.43

>  <PEOE_VSA9>
14.22

>  <PEOE_VSA10>
0

>  <PEOE_VSA11>
11.5

>  <PEOE_VSA12>
0

>  <PEOE_VSA13>
0

>  <SMR_VSA1>
9.47

>  <SMR_VSA2>
0

>  <SMR_VSA3>
4.9

>  <SMR_VSA4>
0

>  <SMR_VSA5>
6.42

>  <SMR_VSA6>
51.84

>  <SMR_VSA7>
53.05

>  <SMR_VSA8>
0

>  <SMR_VSA9>
11.5

>  <SlogP_VSA1>
14.37

>  <SlogP_VSA2>
51.84

>  <SlogP_VSA3>
6.42

>  <SlogP_VSA4>
0

>  <SlogP_VSA5>
5.56

>  <SlogP_VSA6>
42.46

>  <SlogP_VSA7>
5.02

>  <SlogP_VSA8>
0

>  <SlogP_VSA9>
0

>  <SlogP_VSA10>
5.69

>  <SlogP_VSA11>
11.5

>  <EState_VSA1>
0

>  <EState_VSA2>
0

>  <EState_VSA3>
0

>  <EState_VSA4>
55.67

>  <EState_VSA5>
11.25

>  <EState_VSA6>
14.22

>  <EState_VSA7>
24.27

>  <EState_VSA8>
28

>  <EState_VSA9>
21.07

>  <EState_VSA10>
0

>  <VSA_EState1>
10.68

>  <VSA_EState2>
4.91

>  <VSA_EState3>
0.8

>  <VSA_EState4>
2.49

>  <VSA_EState5>
1.58

>  <VSA_EState6>
14.27

>  <VSA_EState7>
1.01

>  <VSA_EState8>
5.26

>  <VSA_EState9>
3.34

>  <apol>
56.05

>  <bpol>
32.48

>  <nRing>
3

>  <nHRing>
1

>  <naRing>
2

>  <naHRing>
0

>  <nARing 2>
1

>  <nAHRing 2>
1

>  <nFRing>
0

>  <nFHRing>
0

>  <nFaRing>
0

>  <nFaHRing>
0

>  <nFARing 2>
0

>  <nFAHRing 2>
0

>  <nRot>
6

>  <SLogP>
3.72

>  <SMR>
103.36

>  <TopoPSA(NO)>
24.94

>  <TopoPSA>
24.94

>  <JGI1>
0.19

>  <JGI2>
0.07

>  <JGI3>
0.03

>  <JGI4>
0.04

>  <JGI5>
0.03

>  <Diameter>
15

>  <Radius>
8

>  <TMWC10>
125.98

>  <TSRW10>
59.42

>  <MW>
360.16

>  <AMW>
7.2

>  <WPath>
1786

>  <WPol>
37

>  <Zagreb1>
126

>  <Zagreb2>
145

>  <mZagreb2>
5.72

>  <yes>


>  <nAR-cont>
0.816016

>  <nHA-cont>
0.921834225

>  <MWHBN>
0.210771678

>  <MWHBN-cont>
0.999122867

>  <TPSA-cont>
0.825903313

>  <pka_cont>
0.97

>  <yes.1>


>  <BBB_SCORE>
5.373341152

>  <MMFF94 Energy>
146.37

$$$$
Compound 1541
Actelion Java MolfileCreator 2.0

  0  0  0  0  0  0              0 V3000
M  V30 BEGIN CTAB
M  V30 COUNTS 34 35 0 0 0
M  V30 BEGIN ATOM
M  V30 1 Cl -1.0389 3.3595 -0.0798 0
M  V30 2 C -0.2017 1.984 -0.7144 0
M  V30 3 C 0.0329 0.8174 0.0396 0
M  V30 4 C 0.2583 2.0905 -2.0285 0
M  V30 5 C 0.8085 -0.2187 -0.5461 0
M  V30 6 C -0.5257 0.6418 1.4553 0 CFG=1
M  V30 7 C 0.9713 1.0477 -2.6159 0
M  V30 8 C 1.2581 -0.1029 -1.8827 0
M  V30 9 C 1.2422 -1.4339 0.2537 0
M  V30 10 N -1.8084 -0.1233 1.4861 0
M  V30 11 C 0.5825 -0.0618 2.2746 0
M  V30 12 O 1.9838 -1.164 -2.3617 0
M  V30 13 C 0.8433 -1.4598 1.7277 0
M  V30 14 C -2.8559 0.467 0.6473 0
M  V30 15 C -2.3346 -0.2539 2.851 0
M  V30 16 C 2.3932 -1.1224 -3.7222 0
M  V30 17 H 0.0643 2.9915 -2.6058 0
M  V30 18 H -0.6758 1.6223 1.9223 0
M  V30 19 H 1.3054 1.1761 -3.6396 0
M  V30 20 H 2.3392 -1.4746 0.2159 0
M  V30 21 H 0.8671 -2.3434 -0.231 0
M  V30 22 H 1.51 0.5259 2.2315 0
M  V30 23 H 0.3216 -0.1192 3.3367 0
M  V30 24 H 1.6286 -1.953 2.3128 0
M  V30 25 H -0.0498 -2.0846 1.849 0
M  V30 26 H -3.1113 1.485 0.9596 0
M  V30 27 H -3.7703 -0.1363 0.6979 0
M  V30 28 H -2.5766 0.4713 -0.4102 0
M  V30 29 H -1.6823 -0.8661 3.48 0
M  V30 30 H -3.2998 -0.7745 2.8469 0
M  V30 31 H -2.4762 0.7207 3.3317 0
M  V30 32 H 1.5307 -1.0596 -4.3939 0
M  V30 33 H 2.9176 -2.0574 -3.9415 0
M  V30 34 H 3.094 -0.2997 -3.8972 0
M  V30 END ATOM
M  V30 BEGIN BOND
M  V30 1 1 1 2
M  V30 2 2 2 3
M  V30 3 1 2 4
M  V30 4 1 3 5
M  V30 5 1 3 6
M  V30 6 2 4 7
M  V30 7 2 5 8
M  V30 8 1 5 9
M  V30 9 1 6 10
M  V30 10 1 6 11
M  V30 11 1 8 12
M  V30 12 1 9 13
M  V30 13 1 10 14
M  V30 14 1 10 15
M  V30 15 1 12 16
M  V30 16 1 7 8
M  V30 17 1 11 13
M  V30 18 1 4 17
M  V30 19 1 6 18
M  V30 20 1 7 19
M  V30 21 1 9 20
M  V30 22 1 9 21
M  V30 23 1 11 22
M  V30 24 1 11 23
M  V30 25 1 13 24
M  V30 26 1 13 25
M  V30 27 1 14 26
M  V30 28 1 14 27
M  V30 29 1 14 28
M  V30 30 1 15 29
M  V30 31 1 15 30
M  V30 32 1 15 31
M  V30 33 1 16 32
M  V30 34 1 16 33
M  V30 35 1 16 34
M  V30 END BOND
M  V30 BEGIN COLLECTION
M  V30 MDLV30/STERAC1 ATOMS=(1 6)
M  V30 END COLLECTION
M  V30 END CTAB
M  END
>  <Column 1>
1870

>  <level_0>
2036

>  <index>
2036

>  <Unnamed: 0>
2036

>  <NO.>
2048

>  <Name>
lometraline

>  <IUPAC_name>
8-chloro-5-methoxy-n-n-dimethyl-1-2-3-4-tetrahydronaphthalen-1-amine

>  <SMILES>
COc1ccc(Cl)c2c1CCCC2N(C)C

>  <CID>
34789

>  <logBB>


>  <BBB+/BBB->
BBB+

>  <Inchi>
InChI=1S/C13H18ClNO/c1-15(2)11-6-4-5-9-12(16-3)8-7-10(14)13(9)11/h7-8-11H-4-6H2-1-3H3

>  <threshold>
-1

>  <reference>
R1|R19|R6|R27|R27|R30|

>  <group>
B

>  <Class>
1

>  <ABC>
12.15

>  <ABCGG>
10.84

>  <nAcid>
0

>  <nBase>
1

>  <nAromAtom>
6

>  <nAromBond>
6

>  <nAtom>
34

>  <nHeavyAtom>
16

>  <nSpiro>
0

>  <nBridgehead>
0

>  <nHetero>
3

>  <nN>
1

>  <nO>
1

>  <nF>
0

>  <BalabanJ>
2.16

>  <BertzCT>
389.76

>  <nBonds>
35

>  <nBondsO>
17

>  <nBondsS>
29

>  <nBondsD>
0

>  <nBondsT>
0

>  <nBondsA>
6

>  <nBondsM>
6

>  <nBondsKS>
32

>  <nBondsKD>
3

>  <RNCG>
0.46

>  <RPCG>
0.11

>  <FCSP3>
0.54

>  <SZ>
21.33

>  <Sm>
19.96

>  <Sv>
20.44

>  <Sse>
33.75

>  <Sp>
22.63

>  <Si>
38.39

>  <MZ>
0.63

>  <Mm>
0.59

>  <Mv>
0.6

>  <Mse>
0.99

>  <Mp>
0.67

>  <Mi>
1.13

>  <NsCH3>
3

>  <NdCH2>
0

>  <NssCH2>
3

>  <NtCH>
0

>  <NdsCH>
0

>  <NaaCH>
2

>  <NsssCH>
1

>  <NddC>
0

>  <NtsC>
0

>  <NdssC>
0

>  <NaasC>
4

>  <NaaaC>
0

>  <NssssC>
0

>  <NsNH3>
0

>  <NsNH2>
0

>  <NssNH2>
0

>  <NdNH>
0

>  <NssNH>
0

>  <NaaNH>
0

>  <NtN>
0

>  <NsssNH>
0

>  <NdsN>
0

>  <NaaN>
0

>  <NsssN>
1

>  <NddsN>
0

>  <NaasN>
0

>  <NssssN>
0

>  <NsOH>
0

>  <NdO>
0

>  <NssO>
1

>  <NaaO>
0

>  <NsF>
0

>  <NsSiH3>
0

>  <NssSiH2>
0

>  <NsssSiH>
0

>  <NssssSi>
0

>  <NsPH2>
0

>  <NssPH>
0

>  <NsssP>
0

>  <NdsssP>
0

>  <NsssssP>
0

>  <NsSH>
0

>  <NdS>
0

>  <NssS>
0

>  <NaaS>
0

>  <NdssS>
0

>  <NddssS>
0

>  <NsCl>
1

>  <NsBr>
0

>  <NsI>
0

>  <fragCpx>
49.03

>  <fMF>
0.29

>  <nHBAcc>
2

>  <nHBDon>
0

>  <Kier1>
12.46

>  <Kier2>
5.1

>  <Lipinski>
1

>  <GhoseFilter>
1

>  <FilterItLogS>
-3.83

>  <VMcGowan>
187.5

>  <LabuteASA>
102.16

>  <PEOE_VSA1>
9.64

>  <PEOE_VSA2>
0

>  <PEOE_VSA3>
0

>  <PEOE_VSA4>
0

>  <PEOE_VSA5>
0

>  <PEOE_VSA6>
11.6

>  <PEOE_VSA7>
51.05

>  <PEOE_VSA8>
16.63

>  <PEOE_VSA9>
7.11

>  <PEOE_VSA10>
5.75

>  <PEOE_VSA11>
0

>  <PEOE_VSA12>
0

>  <PEOE_VSA13>
0

>  <SMR_VSA1>
4.74

>  <SMR_VSA2>
0

>  <SMR_VSA3>
4.9

>  <SMR_VSA4>
0

>  <SMR_VSA5>
25.3

>  <SMR_VSA6>
21.21

>  <SMR_VSA7>
28.28

>  <SMR_VSA8>
0

>  <SMR_VSA9>
5.75

>  <SlogP_VSA1>
4.74

>  <SlogP_VSA2>
26.11

>  <SlogP_VSA3>
6.42

>  <SlogP_VSA4>
0

>  <SlogP_VSA5>
30.01

>  <SlogP_VSA6>
12.13

>  <SlogP_VSA7>
5.02

>  <SlogP_VSA8>
0

>  <SlogP_VSA9>
0

>  <SlogP_VSA10>
0

>  <SlogP_VSA11>
5.75

>  <EState_VSA1>
0

>  <EState_VSA2>
0

>  <EState_VSA3>
6.04

>  <EState_VSA4>
17.19

>  <EState_VSA5>
23.97

>  <EState_VSA6>
7.11

>  <EState_VSA7>
12.13

>  <EState_VSA8>
19

>  <EState_VSA9>
16.34

>  <EState_VSA10>
0

>  <VSA_EState1>
5.42

>  <VSA_EState2>
2.24

>  <VSA_EState3>
0.87

>  <VSA_EState4>
2.55

>  <VSA_EState5>
0.98

>  <VSA_EState6>
4.34

>  <VSA_EState7>
3.45

>  <VSA_EState8>
0

>  <VSA_EState9>
5.94

>  <apol>
37.79

>  <bpol>
22.01

>  <nRing>
2

>  <nHRing>
0

>  <naRing>
1

>  <naHRing>
0

>  <nARing 2>
1

>  <nAHRing 2>
0

>  <nFRing>
1

>  <nFHRing>
0

>  <nFaRing>
0

>  <nFaHRing>
0

>  <nFARing 2>
1

>  <nFAHRing 2>
0

>  <nRot>
2

>  <SLogP>
3.29

>  <SMR>
67.37

>  <TopoPSA(NO)>
12.47

>  <TopoPSA>
12.47

>  <JGI1>
0.18

>  <JGI2>
0.09

>  <JGI3>
0.06

>  <JGI4>
0.05

>  <JGI5>
0.03

>  <Diameter>
7

>  <Radius>
4

>  <TMWC10>
104.8

>  <TSRW10>
48.75

>  <MW>
239.11

>  <AMW>
7.03

>  <WPath>
392

>  <WPol>
27

>  <Zagreb1>
82

>  <Zagreb2>
98

>  <mZagreb2>
3.64

>  <yes>


>  <nAR-cont>
0.816016

>  <nHA-cont>
0.954961865

>  <MWHBN>
0.129339485

>  <MWHBN-cont>
0.867044461

>  <TPSA-cont>
0.912951657

>  <pka_cont>
0.97

>  <yes.1>


>  <BBB_SCORE>
5.38244787

>  <MMFF94 Energy>
39.066

$$$$
Compound 1542
Actelion Java MolfileCreator 2.0

  0  0  0  0  0  0              0 V3000
M  V30 BEGIN CTAB
M  V30 COUNTS 45 47 0 0 0
M  V30 BEGIN ATOM
M  V30 1 O -1.6558 0.6305 5.6069 0
M  V30 2 C -1.1263 0.1245 4.4521 0
M  V30 3 C -1.1412 1.8782 6.0551 0
M  V30 4 C -1.6748 -1.0915 4.0417 0
M  V30 5 C -0.1177 0.7066 3.6864 0
M  V30 6 C -1.2275 -1.7207 2.877 0
M  V30 7 C 0.3335 0.0781 2.5197 0
M  V30 8 C -0.2237 -1.1362 2.0931 0
M  V30 9 C 0.2702 -1.8417 0.8518 0
M  V30 10 N 0.3199 -0.9694 -0.3228 0
M  V30 11 C 1.4869 -0.4785 -0.8834 0
M  V30 12 C -0.7756 -0.5524 -1.0577 0
M  V30 13 C 1.1176 0.2759 -1.9993 0
M  V30 14 C 2.8343 -0.6266 -0.5035 0
M  V30 15 C -0.3094 0.2438 -2.0966 0
M  V30 16 C -2.1767 -0.9219 -0.7018 0
M  V30 17 C 2.1285 0.8911 -2.7708 0
M  V30 18 C 3.8156 -0.0051 -1.2802 0
M  V30 19 C -1.1416 0.9552 -3.1263 0
M  V30 20 C 3.4628 0.7345 -2.3967 0
M  V30 21 C -1.3553 0.1469 -4.4144 0
M  V30 22 O 4.4681 1.3066 -3.1228 0
M  V30 23 N -0.2685 0.3141 -5.384 0
M  V30 24 H -0.0753 1.8026 6.2939 0
M  V30 25 H -1.6698 2.1467 6.975 0
M  V30 26 H -1.3279 2.6694 5.3213 0
M  V30 27 H -2.4587 -1.5542 4.6367 0
M  V30 28 H 0.3422 1.6489 3.9649 0
M  V30 29 H -1.6748 -2.6695 2.5891 0
M  V30 30 H 1.123 0.5562 1.9417 0
M  V30 31 H -0.3724 -2.6889 0.5862 0
M  V30 32 H 1.2659 -2.2549 1.0384 0
M  V30 33 H 3.1245 -1.2037 0.3678 0
M  V30 34 H -2.5108 -0.3547 0.1722 0
M  V30 35 H -2.2661 -1.9906 -0.4858 0
M  V30 36 H -2.8658 -0.7064 -1.5241 0
M  V30 37 H 1.8522 1.4664 -3.6468 0
M  V30 38 H 4.8633 -0.1071 -1.0107 0
M  V30 39 H -0.7004 1.9341 -3.354 0
M  V30 40 H -2.1241 1.1782 -2.6909 0
M  V30 41 H -2.2803 0.4865 -4.8946 0
M  V30 42 H -1.4787 -0.9184 -4.1898 0
M  V30 43 H 4.0709 1.7211 -3.9064 0
M  V30 44 H -0.4567 -0.2689 -6.1983 0
M  V30 45 H -0.2553 1.2769 -5.7158 0
M  V30 END ATOM
M  V30 BEGIN BOND
M  V30 1 1 1 2
M  V30 2 1 1 3
M  V30 3 2 2 4
M  V30 4 1 2 5
M  V30 5 1 4 6
M  V30 6 2 5 7
M  V30 7 2 6 8
M  V30 8 1 8 9
M  V30 9 1 9 10
M  V30 10 1 10 11
M  V30 11 1 10 12
M  V30 12 2 11 13
M  V30 13 1 11 14
M  V30 14 2 12 15
M  V30 15 1 12 16
M  V30 16 1 13 17
M  V30 17 2 14 18
M  V30 18 1 15 19
M  V30 19 2 17 20
M  V30 20 1 19 21
M  V30 21 1 20 22
M  V30 22 1 21 23
M  V30 23 1 7 8
M  V30 24 1 13 15
M  V30 25 1 18 20
M  V30 26 1 3 24
M  V30 27 1 3 25
M  V30 28 1 3 26
M  V30 29 1 4 27
M  V30 30 1 5 28
M  V30 31 1 6 29
M  V30 32 1 7 30
M  V30 33 1 9 31
M  V30 34 1 9 32
M  V30 35 1 14 33
M  V30 36 1 16 34
M  V30 37 1 16 35
M  V30 38 1 16 36
M  V30 39 1 17 37
M  V30 40 1 18 38
M  V30 41 1 19 39
M  V30 42 1 19 40
M  V30 43 1 21 41
M  V30 44 1 21 42
M  V30 45 1 22 43
M  V30 46 1 23 44
M  V30 47 1 23 45
M  V30 END BOND
M  V30 END CTAB
M  END
>  <Column 1>
1871

>  <level_0>
2037

>  <index>
2037

>  <Unnamed: 0>
2037

>  <NO.>
2049

>  <Name>
hydroxindasol

>  <IUPAC_name>
3-(2-aminoethyl)-1-[(4-methoxyphenyl)methyl]-2-methylindol-5-ol

>  <SMILES>
COc1ccc(Cn2c(C)c(CCN)c3cc(O)ccc32)cc1

>  <CID>
216254

>  <logBB>


>  <BBB+/BBB->
BBB+

>  <Inchi>
InChI=1S/C19H22N2O2/c1-13-17(9-10-20)18-11-15(22)5-8-19(18)21(13)12-14-3-6-16(23-2)7-4-14/h3-8-11-22H-9-10-12-20H2-1-2H3

>  <threshold>
-1

>  <reference>
R1|R13|R19|R6|R24|R27|R27|R27|R30|R30|

>  <group>
B

>  <Class>
1

>  <ABC>
17.69

>  <ABCGG>
14.46

>  <nAcid>
0

>  <nBase>
1

>  <nAromAtom>
15

>  <nAromBond>
16

>  <nAtom>
45

>  <nHeavyAtom>
23

>  <nSpiro>
0

>  <nBridgehead>
0

>  <nHetero>
4

>  <nN>
2

>  <nO>
2

>  <nF>
0

>  <BalabanJ>
1.64

>  <BertzCT>
819.5

>  <nBonds>
47

>  <nBondsO>
25

>  <nBondsS>
31

>  <nBondsD>
0

>  <nBondsT>
0

>  <nBondsA>
16

>  <nBondsM>
16

>  <nBondsKS>
40

>  <nBondsKD>
7

>  <RNCG>
0.26

>  <RPCG>
0.15

>  <FCSP3>
0.26

>  <SZ>
27.67

>  <Sm>
25.84

>  <Sv>
27.91

>  <Sse>
44.75

>  <Sp>
30.06

>  <Si>
50.57

>  <MZ>
0.61

>  <Mm>
0.57

>  <Mv>
0.62

>  <Mse>
0.99

>  <Mp>
0.67

>  <Mi>
1.12

>  <NsCH3>
2

>  <NdCH2>
0

>  <NssCH2>
3

>  <NtCH>
0

>  <NdsCH>
0

>  <NaaCH>
7

>  <NsssCH>
0

>  <NddC>
0

>  <NtsC>
0

>  <NdssC>
0

>  <NaasC>
5

>  <NaaaC>
2

>  <NssssC>
0

>  <NsNH3>
0

>  <NsNH2>
1

>  <NssNH2>
0

>  <NdNH>
0

>  <NssNH>
0

>  <NaaNH>
0

>  <NtN>
0

>  <NsssNH>
0

>  <NdsN>
0

>  <NaaN>
0

>  <NsssN>
0

>  <NddsN>
0

>  <NaasN>
1

>  <NssssN>
0

>  <NsOH>
1

>  <NdO>
0

>  <NssO>
1

>  <NaaO>
0

>  <NsF>
0

>  <NsSiH3>
0

>  <NssSiH2>
0

>  <NsssSiH>
0

>  <NssssSi>
0

>  <NsPH2>
0

>  <NssPH>
0

>  <NsssP>
0

>  <NdsssP>
0

>  <NsssssP>
0

>  <NsSH>
0

>  <NdS>
0

>  <NssS>
0

>  <NaaS>
0

>  <NdssS>
0

>  <NddssS>
0

>  <NsCl>
0

>  <NsBr>
0

>  <NsI>
0

>  <fragCpx>
119.04

>  <fMF>
0.36

>  <nHBAcc>
4

>  <nHBDon>
2

>  <Kier1>
17.81

>  <Kier2>
7.92

>  <Lipinski>
1

>  <GhoseFilter>
1

>  <FilterItLogS>
-4.7

>  <VMcGowan>
247.59

>  <LabuteASA>
135.66

>  <PEOE_VSA1>
20.14

>  <PEOE_VSA2>
0

>  <PEOE_VSA3>
0

>  <PEOE_VSA4>
0

>  <PEOE_VSA5>
0

>  <PEOE_VSA6>
12.13

>  <PEOE_VSA7>
61.35

>  <PEOE_VSA8>
23.14

>  <PEOE_VSA9>
7.11

>  <PEOE_VSA10>
11.5

>  <PEOE_VSA11>
0

>  <PEOE_VSA12>
0

>  <PEOE_VSA13>
0

>  <SMR_VSA1>
9.84

>  <SMR_VSA2>
0

>  <SMR_VSA3>
4.57

>  <SMR_VSA4>
5.73

>  <SMR_VSA5>
19.89

>  <SMR_VSA6>
13.65

>  <SMR_VSA7>
59.29

>  <SMR_VSA8>
0

>  <SMR_VSA9>
11.5

>  <SlogP_VSA1>
10.47

>  <SlogP_VSA2>
23.33

>  <SlogP_VSA3>
12.97

>  <SlogP_VSA4>
6.92

>  <SlogP_VSA5>
16.82

>  <SlogP_VSA6>
42.46

>  <SlogP_VSA7>
0

>  <SlogP_VSA8>
10.9

>  <SlogP_VSA9>
0

>  <SlogP_VSA10>
0

>  <SlogP_VSA11>
11.5

>  <EState_VSA1>
0

>  <EState_VSA2>
5.75

>  <EState_VSA3>
6.54

>  <EState_VSA4>
29.62

>  <EState_VSA5>
16.82

>  <EState_VSA6>
13.18

>  <EState_VSA7>
24.27

>  <EState_VSA8>
23.62

>  <EState_VSA9>
10.47

>  <EState_VSA10>
5.11

>  <VSA_EState1>
7.49

>  <VSA_EState2>
0

>  <VSA_EState3>
10.9

>  <VSA_EState4>
10.51

>  <VSA_EState5>
1.15

>  <VSA_EState6>
13.64

>  <VSA_EState7>
0.81

>  <VSA_EState8>
3.49

>  <VSA_EState9>
1.67

>  <apol>
50.2

>  <bpol>
24.95

>  <nRing>
3

>  <nHRing>
1

>  <naRing>
3

>  <naHRing>
1

>  <nARing 2>
0

>  <nAHRing 2>
0

>  <nFRing>
1

>  <nFHRing>
1

>  <nFaRing>
1

>  <nFaHRing>
1

>  <nFARing 2>
0

>  <nFAHRing 2>
0

>  <nRot>
5

>  <SLogP>
3.21

>  <SMR>
93.19

>  <TopoPSA(NO)>
60.41

>  <TopoPSA>
60.41

>  <JGI1>
0.18

>  <JGI2>
0.08

>  <JGI3>
0.06

>  <JGI4>
0.04

>  <JGI5>
0.03

>  <Diameter>
12

>  <Radius>
6

>  <TMWC10>
123.28

>  <TSRW10>
71.99

>  <MW>
310.17

>  <AMW>
6.89

>  <WPath>
1198

>  <WPol>
37

>  <Zagreb1>
120

>  <Zagreb2>
143

>  <mZagreb2>
5.22

>  <yes>


>  <nAR-cont>
0.336376

>  <nHA-cont>
0.967789328

>  <MWHBN>
0.3406837

>  <MWHBN-cont>
0.704645688

>  <TPSA-cont>
0.578300688

>  <pka_cont>
0.97

>  <yes.1>


>  <BBB_SCORE>
4.002735235

>  <MMFF94 Energy>
63.467

$$$$
Compound 1543
Actelion Java MolfileCreator 2.0

  0  0  0  0  0  0              0 V3000
M  V30 BEGIN CTAB
M  V30 COUNTS 57 61 0 0 0
M  V30 BEGIN ATOM
M  V30 1 O -4.581 -0.5617 -0.4012 0
M  V30 2 C -3.653 -0.0746 -1.0274 0
M  V30 3 O -3.2737 1.2347 -0.8577 0
M  V30 4 N -2.8278 -0.6838 -1.9592 0
M  V30 5 C -2.3161 1.547 -1.8767 0 CFG=2
M  V30 6 C -2.9059 -2.021 -2.4063 0
M  V30 7 C -1.7668 0.209 -2.3171 0
M  V30 8 C -1.2682 2.5714 -1.4051 0
M  V30 9 C -4.1216 -2.7141 -2.4053 0
M  V30 10 C -1.7698 -2.6813 -2.8888 0
M  V30 11 N -0.1983 2.0722 -0.51 0
M  V30 12 C -4.2029 -4.0366 -2.864 0
M  V30 13 C -1.8516 -4.0011 -3.3473 0
M  V30 14 C -0.7178 1.7408 0.8291 0
M  V30 15 C 0.8539 3.099 -0.3855 0
M  V30 16 C -3.0659 -4.6868 -3.3364 0
M  V30 17 C 0.3936 1.1921 1.7281 0
M  V30 18 C 2.022 2.6138 0.4738 0
M  V30 19 O -3.0063 -5.9674 -3.8102 0
M  V30 20 C 1.5626 2.1801 1.8751 0
M  V30 21 C -4.2146 -6.7173 -3.7841 0
M  V30 22 O 1.0508 3.3376 2.5597 0
M  V30 23 C 2.7503 1.6638 2.6971 0
M  V30 24 C 3.782 2.5643 3.0455 0
M  V30 25 C 2.8615 0.3205 3.1326 0
M  V30 26 C 4.8513 2.1048 3.7859 0
M  V30 27 C 3.9601 -0.1184 3.8844 0
M  V30 28 O 5.9132 2.8488 4.1952 0
M  V30 29 C 4.938 0.7982 4.1938 0
M  V30 30 C 6.6813 1.8552 4.9056 0
M  V30 31 O 6.0655 0.5502 4.9112 0
M  V30 32 H -2.8874 2.0034 -2.6965 0
M  V30 33 H -0.8708 -0.0905 -1.7647 0
M  V30 34 H -1.5608 0.189 -3.3921 0
M  V30 35 H -1.7815 3.4203 -0.9341 0
M  V30 36 H -0.7894 2.9502 -2.3179 0
M  V30 37 H -5.036 -2.2402 -2.0556 0
M  V30 38 H -0.798 -2.1973 -2.9064 0
M  V30 39 H -5.1728 -4.5222 -2.8364 0
M  V30 40 H -0.9569 -4.4997 -3.7123 0
M  V30 41 H -1.1942 2.6115 1.2977 0
M  V30 42 H -1.4748 0.9548 0.7595 0
M  V30 43 H 1.2525 3.3367 -1.3797 0
M  V30 44 H 0.4452 4.0314 0.0262 0
M  V30 45 H 0.7399 0.2443 1.2957 0
M  V30 46 H -0.04 0.967 2.7111 0
M  V30 47 H 2.7481 3.434 0.5375 0
M  V30 48 H 2.5254 1.7794 -0.0328 0
M  V30 49 H -4.585 -6.8351 -2.7603 0
M  V30 50 H -3.9969 -7.7154 -4.1761 0
M  V30 51 H -4.9738 -6.2642 -4.4303 0
M  V30 52 H 1.1128 3.1588 3.5149 0
M  V30 53 H 3.7438 3.6078 2.7453 0
M  V30 54 H 2.096 -0.4143 2.8958 0
M  V30 55 H 4.0388 -1.1489 4.2131 0
M  V30 56 H 6.8095 2.1867 5.9425 0
M  V30 57 H 7.6691 1.7748 4.4374 0
M  V30 END ATOM
M  V30 BEGIN BOND
M  V30 1 2 1 2
M  V30 2 1 2 3
M  V30 3 1 2 4
M  V30 4 1 3 5
M  V30 5 1 4 6
M  V30 6 1 4 7
M  V30 7 1 5 8
M  V30 8 2 6 9
M  V30 9 1 6 10
M  V30 10 1 8 11
M  V30 11 1 9 12
M  V30 12 2 10 13
M  V30 13 1 11 14
M  V30 14 1 11 15
M  V30 15 2 12 16
M  V30 16 1 14 17
M  V30 17 1 15 18
M  V30 18 1 16 19
M  V30 19 1 17 20
M  V30 20 1 19 21
M  V30 21 1 20 22
M  V30 22 1 20 23
M  V30 23 2 23 24
M  V30 24 1 23 25
M  V30 25 1 24 26
M  V30 26 2 25 27
M  V30 27 1 26 28
M  V30 28 2 26 29
M  V30 29 1 28 30
M  V30 30 1 29 31
M  V30 31 1 5 7
M  V30 32 1 13 16
M  V30 33 1 18 20
M  V30 34 1 27 29
M  V30 35 1 30 31
M  V30 36 1 5 32
M  V30 37 1 7 33
M  V30 38 1 7 34
M  V30 39 1 8 35
M  V30 40 1 8 36
M  V30 41 1 9 37
M  V30 42 1 10 38
M  V30 43 1 12 39
M  V30 44 1 13 40
M  V30 45 1 14 41
M  V30 46 1 14 42
M  V30 47 1 15 43
M  V30 48 1 15 44
M  V30 49 1 17 45
M  V30 50 1 17 46
M  V30 51 1 18 47
M  V30 52 1 18 48
M  V30 53 1 21 49
M  V30 54 1 21 50
M  V30 55 1 21 51
M  V30 56 1 22 52
M  V30 57 1 24 53
M  V30 58 1 25 54
M  V30 59 1 27 55
M  V30 60 1 30 56
M  V30 61 1 30 57
M  V30 END BOND
M  V30 BEGIN COLLECTION
M  V30 MDLV30/STEABS ATOMS=(1 5)
M  V30 END COLLECTION
M  V30 END CTAB
M  END
>  <Column 1>
1872

>  <level_0>
2038

>  <index>
2038

>  <Unnamed: 0>
2038

>  <NO.>
2050

>  <Name>
panamesine

>  <IUPAC_name>
(5s)-5-[[4-(1-3-benzodioxol-5-yl)-4-hydroxypiperidin-1-yl]methyl]-3-(4-methoxyphenyl)-1-3-oxazolidin-2-one

>  <SMILES>
COc1ccc(N2C[C@H](CN3CCC(O)(c4ccc5c(c4)OCO5)CC3)OC2=O)cc1

>  <CID>
3047810

>  <logBB>


>  <BBB+/BBB->
BBB+

>  <Inchi>
InChI=1S/C23H26N2O6/c1-28-18-5-3-17(4-6-18)25-14-19(31-22(25)26)13-24-10-8-23(27-9-11-24)16-2-7-20-21(12-16)30-15-29-20/h2-7-12-19-27H-8-11-13-15H2-1H3/t19-/m0/s1

>  <threshold>
-1

>  <reference>
R1|R13|R6|R27|R30|

>  <group>
B

>  <Class>
1

>  <ABC>
24.83

>  <ABCGG>
18.01

>  <nAcid>
0

>  <nBase>
1

>  <nAromAtom>
12

>  <nAromBond>
12

>  <nAtom>
57

>  <nHeavyAtom>
31

>  <nSpiro>
0

>  <nBridgehead>
0

>  <nHetero>
8

>  <nN>
2

>  <nO>
6

>  <nF>
0

>  <BalabanJ>
1.08

>  <BertzCT>
955.04

>  <nBonds>
61

>  <nBondsO>
35

>  <nBondsS>
48

>  <nBondsD>
1

>  <nBondsT>
0

>  <nBondsA>
12

>  <nBondsM>
13

>  <nBondsKS>
54

>  <nBondsKD>
7

>  <RNCG>
0.15

>  <RPCG>
0.13

>  <FCSP3>
0.43

>  <SZ>
37.67

>  <Sm>
35.51

>  <Sv>
35.85

>  <Sse>
57.85

>  <Sp>
37.58

>  <Si>
64.24

>  <MZ>
0.66

>  <Mm>
0.62

>  <Mv>
0.63

>  <Mse>
1.01

>  <Mp>
0.66

>  <Mi>
1.13

>  <NsCH3>
1

>  <NdCH2>
0

>  <NssCH2>
7

>  <NtCH>
0

>  <NdsCH>
0

>  <NaaCH>
7

>  <NsssCH>
1

>  <NddC>
0

>  <NtsC>
0

>  <NdssC>
1

>  <NaasC>
5

>  <NaaaC>
0

>  <NssssC>
1

>  <NsNH3>
0

>  <NsNH2>
0

>  <NssNH2>
0

>  <NdNH>
0

>  <NssNH>
0

>  <NaaNH>
0

>  <NtN>
0

>  <NsssNH>
0

>  <NdsN>
0

>  <NaaN>
0

>  <NsssN>
2

>  <NddsN>
0

>  <NaasN>
0

>  <NssssN>
0

>  <NsOH>
1

>  <NdO>
1

>  <NssO>
4

>  <NaaO>
0

>  <NsF>
0

>  <NsSiH3>
0

>  <NssSiH2>
0

>  <NsssSiH>
0

>  <NssssSi>
0

>  <NsPH2>
0

>  <NssPH>
0

>  <NsssP>
0

>  <NdsssP>
0

>  <NsssssP>
0

>  <NsSH>
0

>  <NdS>
0

>  <NssS>
0

>  <NaaS>
0

>  <NdssS>
0

>  <NddssS>
0

>  <NsCl>
0

>  <NsBr>
0

>  <NsI>
0

>  <fragCpx>
295.08

>  <fMF>
0.47

>  <nHBAcc>
7

>  <nHBDon>
1

>  <Kier1>
22.78

>  <Kier2>
9.7

>  <Lipinski>
1

>  <GhoseFilter>
1

>  <FilterItLogS>
-3.74

>  <VMcGowan>
305.71

>  <LabuteASA>
180.41

>  <PEOE_VSA1>
24.05

>  <PEOE_VSA2>
9.8

>  <PEOE_VSA3>
4.79

>  <PEOE_VSA4>
0

>  <PEOE_VSA5>
0

>  <PEOE_VSA6>
6.07

>  <PEOE_VSA7>
54.8

>  <PEOE_VSA8>
25.32

>  <PEOE_VSA9>
19.26

>  <PEOE_VSA10>
11.85

>  <PEOE_VSA11>
11.5

>  <PEOE_VSA12>
6.79

>  <PEOE_VSA13>
0

>  <SMR_VSA1>
28.85

>  <SMR_VSA2>
0

>  <SMR_VSA3>
4.9

>  <SMR_VSA4>
0

>  <SMR_VSA5>
24.55

>  <SMR_VSA6>
44.98

>  <SMR_VSA7>
48.03

>  <SMR_VSA8>
0

>  <SMR_VSA9>
17.25

>  <SlogP_VSA1>
19.11

>  <SlogP_VSA2>
62.29

>  <SlogP_VSA3>
10.34

>  <SlogP_VSA4>
0

>  <SlogP_VSA5>
18.41

>  <SlogP_VSA6>
42.46

>  <SlogP_VSA7>
0

>  <SlogP_VSA8>
0

>  <SlogP_VSA9>
0

>  <SlogP_VSA10>
10.48

>  <SlogP_VSA11>
17.25

>  <EState_VSA1>
5.6

>  <EState_VSA2>
18.99

>  <EState_VSA3>
37.43

>  <EState_VSA4>
30.09

>  <EState_VSA5>
0

>  <EState_VSA6>
12.01

>  <EState_VSA7>
42.46

>  <EState_VSA8>
4.9

>  <EState_VSA9>
18.95

>  <EState_VSA10>
9.9

>  <VSA_EState1>
21.58

>  <VSA_EState2>
16.25

>  <VSA_EState3>
11.2

>  <VSA_EState4>
0.76

>  <VSA_EState5>
2.15

>  <VSA_EState6>
13.02

>  <VSA_EState7>
0.68

>  <VSA_EState8>
2.82

>  <VSA_EState9>
1.61

>  <apol>
62.76

>  <bpol>
37.32

>  <nRing>
5

>  <nHRing>
3

>  <naRing>
2

>  <naHRing>
0

>  <nARing 2>
3

>  <nAHRing 2>
3

>  <nFRing>
1

>  <nFHRing>
1

>  <nFaRing>
0

>  <nFaHRing>
0

>  <nFARing 2>
1

>  <nFAHRing 2>
1

>  <nRot>
5

>  <SLogP>
2.73

>  <SMR>
112.74

>  <TopoPSA(NO)>
80.7

>  <TopoPSA>
80.7

>  <JGI1>
0.21

>  <JGI2>
0.08

>  <JGI3>
0.05

>  <JGI4>
0.04

>  <JGI5>
0.03

>  <Diameter>
18

>  <Radius>
9

>  <TMWC10>
144.33

>  <TSRW10>
83.07

>  <MW>
426.18

>  <AMW>
7.48

>  <WPath>
3104

>  <WPol>
50

>  <Zagreb1>
172

>  <Zagreb2>
206

>  <mZagreb2>
6.67

>  <yes>


>  <nAR-cont>
0.691115

>  <nHA-cont>
0.702745138

>  <MWHBN>
0.387519405

>  <MWHBN-cont>
0.525236519

>  <TPSA-cont>
0.436663888

>  <pka_cont>
0.97

>  <yes.1>


>  <BBB_SCORE>
3.540042692

>  <MMFF94 Energy>
45.82

$$$$
Compound 1544
Actelion Java MolfileCreator 2.0

  0  0  0  0  0  0              0 V3000
M  V30 BEGIN CTAB
M  V30 COUNTS 48 50 0 0 0
M  V30 BEGIN ATOM
M  V30 1 O 0.1582 -0.7122 1.4249 0
M  V30 2 C 1.2219 -1.5448 1.633 0
M  V30 3 C 0.0115 -0.155 0.1169 0
M  V30 4 C 2.2276 -1.8407 0.7134 0
M  V30 5 C 1.2685 -2.127 2.9 0
M  V30 6 C -1.2611 0.7126 0.0742 0
M  V30 7 C 3.2685 -2.7155 1.0573 0
M  V30 8 C 2.3046 -2.999 3.2421 0
M  V30 9 C -1.4762 1.3286 -1.33 0
M  V30 10 C -2.4939 -0.121 0.4811 0
M  V30 11 C 3.3108 -3.299 2.3235 0
M  V30 12 C -0.345 2.2397 -1.7813 0
M  V30 13 C -2.8188 2.0742 -1.3904 0
M  V30 14 N -3.7335 0.6688 0.4102 0
M  V30 15 O 4.2654 -4.1642 2.781 0
M  V30 16 C 0.321 1.979 -2.9887 0
M  V30 17 C 0.0553 3.3482 -1.0199 0
M  V30 18 C -3.969 1.1753 -0.9449 0
M  V30 19 C -4.8733 -0.1283 0.8653 0
M  V30 20 C 5.3213 -4.4883 1.8858 0
M  V30 21 C 1.3656 2.8001 -3.4177 0
M  V30 22 C 1.1005 4.1677 -1.4501 0
M  V30 23 C 1.7561 3.8931 -2.6478 0
M  V30 24 H 0.8878 0.4638 -0.1066 0
M  V30 25 H -0.0689 -0.9605 -0.6239 0
M  V30 26 H 2.2388 -1.4047 -0.28 0
M  V30 27 H 0.4933 -1.9013 3.6279 0
M  V30 28 H -1.1507 1.5088 0.8238 0
M  V30 29 H 4.0298 -2.9158 0.3109 0
M  V30 30 H 2.3266 -3.4452 4.2331 0
M  V30 31 H -1.5409 0.4934 -2.0432 0
M  V30 32 H -2.3596 -0.4717 1.5119 0
M  V30 33 H -2.5691 -1.0128 -0.156 0
M  V30 34 H -2.7945 2.9692 -0.7544 0
M  V30 35 H -3.0092 2.4248 -2.4127 0
M  V30 36 H 0.0306 1.1335 -3.6083 0
M  V30 37 H -0.4449 3.5858 -0.0833 0
M  V30 38 H -4.8921 1.7675 -0.9663 0
M  V30 39 H -4.0953 0.3502 -1.6581 0
M  V30 40 H -5.7893 0.4731 0.8627 0
M  V30 41 H -5.0381 -1.0109 0.2367 0
M  V30 42 H -4.7222 -0.4628 1.8977 0
M  V30 43 H 4.9407 -4.9981 0.9946 0
M  V30 44 H 5.9963 -5.1785 2.4011 0
M  V30 45 H 5.8984 -3.5974 1.6164 0
M  V30 46 H 1.8733 2.5878 -4.3549 0
M  V30 47 H 1.4009 5.0224 -0.8493 0
M  V30 48 H 2.5683 4.5328 -2.982 0
M  V30 END ATOM
M  V30 BEGIN BOND
M  V30 1 1 1 2
M  V30 2 1 1 3
M  V30 3 2 2 4
M  V30 4 1 2 5
M  V30 5 1 3 6
M  V30 6 1 4 7
M  V30 7 2 5 8
M  V30 8 1 6 9
M  V30 9 1 6 10
M  V30 10 2 7 11
M  V30 11 1 9 12
M  V30 12 1 9 13
M  V30 13 1 10 14
M  V30 14 1 11 15
M  V30 15 2 12 16
M  V30 16 1 12 17
M  V30 17 1 13 18
M  V30 18 1 14 19
M  V30 19 1 15 20
M  V30 20 1 16 21
M  V30 21 2 17 22
M  V30 22 2 21 23
M  V30 23 1 8 11
M  V30 24 1 14 18
M  V30 25 1 22 23
M  V30 26 1 3 24
M  V30 27 1 3 25
M  V30 28 1 4 26
M  V30 29 1 5 27
M  V30 30 1 6 28
M  V30 31 1 7 29
M  V30 32 1 8 30
M  V30 33 1 9 31
M  V30 34 1 10 32
M  V30 35 1 10 33
M  V30 36 1 13 34
M  V30 37 1 13 35
M  V30 38 1 16 36
M  V30 39 1 17 37
M  V30 40 1 18 38
M  V30 41 1 18 39
M  V30 42 1 19 40
M  V30 43 1 19 41
M  V30 44 1 19 42
M  V30 45 1 20 43
M  V30 46 1 20 44
M  V30 47 1 20 45
M  V30 48 1 21 46
M  V30 49 1 22 47
M  V30 50 1 23 48
M  V30 END BOND
M  V30 END CTAB
M  END
>  <Column 1>
1873

>  <level_0>
2039

>  <index>
2039

>  <Unnamed: 0>
2039

>  <NO.>
2051

>  <Name>
femoxetine [inn]

>  <IUPAC_name>
3-[(4-methoxyphenoxy)methyl]-1-methyl-4-phenylpiperidine

>  <SMILES>
COc1ccc(OCC2CN(C)CCC2c2ccccc2)cc1

>  <CID>
43103

>  <logBB>


>  <BBB+/BBB->
BBB+

>  <Inchi>
InChI=1S/C20H25NO2/c1-21-13-12-20(16-6-4-3-5-7-16)17(14-21)15-23-19-10-8-18(22-2)9-11-19/h3-11-17-20H-12-15H2-1-2H3

>  <threshold>
-1

>  <reference>
R1|R19|R27|R27|R30|

>  <group>
B

>  <Class>
1

>  <ABC>
17.71

>  <ABCGG>
13.71

>  <nAcid>
0

>  <nBase>
1

>  <nAromAtom>
12

>  <nAromBond>
12

>  <nAtom>
48

>  <nHeavyAtom>
23

>  <nSpiro>
0

>  <nBridgehead>
0

>  <nHetero>
3

>  <nN>
1

>  <nO>
2

>  <nF>
0

>  <BalabanJ>
1.48

>  <BertzCT>
596.8

>  <nBonds>
50

>  <nBondsO>
25

>  <nBondsS>
38

>  <nBondsD>
0

>  <nBondsT>
0

>  <nBondsA>
12

>  <nBondsM>
12

>  <nBondsKS>
44

>  <nBondsKD>
6

>  <RNCG>
0.28

>  <RPCG>
0.07

>  <FCSP3>
0.4

>  <SZ>
28

>  <Sm>
25.93

>  <Sv>
28.96

>  <Sse>
47.42

>  <Sp>
31.6

>  <Si>
53.9

>  <MZ>
0.58

>  <Mm>
0.54

>  <Mv>
0.6

>  <Mse>
0.99

>  <Mp>
0.66

>  <Mi>
1.12

>  <NsCH3>
2

>  <NdCH2>
0

>  <NssCH2>
4

>  <NtCH>
0

>  <NdsCH>
0

>  <NaaCH>
9

>  <NsssCH>
2

>  <NddC>
0

>  <NtsC>
0

>  <NdssC>
0

>  <NaasC>
3

>  <NaaaC>
0

>  <NssssC>
0

>  <NsNH3>
0

>  <NsNH2>
0

>  <NssNH2>
0

>  <NdNH>
0

>  <NssNH>
0

>  <NaaNH>
0

>  <NtN>
0

>  <NsssNH>
0

>  <NdsN>
0

>  <NaaN>
0

>  <NsssN>
1

>  <NddsN>
0

>  <NaasN>
0

>  <NssssN>
0

>  <NsOH>
0

>  <NdO>
0

>  <NssO>
2

>  <NaaO>
0

>  <NsF>
0

>  <NsSiH3>
0

>  <NssSiH2>
0

>  <NsssSiH>
0

>  <NssssSi>
0

>  <NsPH2>
0

>  <NssPH>
0

>  <NsssP>
0

>  <NdsssP>
0

>  <NsssssP>
0

>  <NsSH>
0

>  <NdS>
0

>  <NssS>
0

>  <NaaS>
0

>  <NdssS>
0

>  <NddssS>
0

>  <NsCl>
0

>  <NsBr>
0

>  <NsI>
0

>  <fragCpx>
119.03

>  <fMF>
0.42

>  <nHBAcc>
3

>  <nHBDon>
0

>  <Kier1>
17.81

>  <Kier2>
8.91

>  <Lipinski>
1

>  <GhoseFilter>
1

>  <FilterItLogS>
-4.46

>  <VMcGowan>
256

>  <LabuteASA>
138.39

>  <PEOE_VSA1>
14.37

>  <PEOE_VSA2>
0

>  <PEOE_VSA3>
0

>  <PEOE_VSA4>
0

>  <PEOE_VSA5>
0

>  <PEOE_VSA6>
30.33

>  <PEOE_VSA7>
55.76

>  <PEOE_VSA8>
12.46

>  <PEOE_VSA9>
13.72

>  <PEOE_VSA10>
11.5

>  <PEOE_VSA11>
0

>  <PEOE_VSA12>
0

>  <PEOE_VSA13>
0

>  <SMR_VSA1>
9.47

>  <SMR_VSA2>
0

>  <SMR_VSA3>
4.9

>  <SMR_VSA4>
5.92

>  <SMR_VSA5>
12.34

>  <SMR_VSA6>
33.85

>  <SMR_VSA7>
60.16

>  <SMR_VSA8>
0

>  <SMR_VSA9>
11.5

>  <SlogP_VSA1>
9.47

>  <SlogP_VSA2>
38.75

>  <SlogP_VSA3>
0

>  <SlogP_VSA4>
5.92

>  <SlogP_VSA5>
17.9

>  <SlogP_VSA6>
54.6

>  <SlogP_VSA7>
0

>  <SlogP_VSA8>
0

>  <SlogP_VSA9>
0

>  <SlogP_VSA10>
0

>  <SlogP_VSA11>
11.5

>  <EState_VSA1>
0

>  <EState_VSA2>
0

>  <EState_VSA3>
11.84

>  <EState_VSA4>
31.2

>  <EState_VSA5>
11.98

>  <EState_VSA6>
7.11

>  <EState_VSA7>
24.27

>  <EState_VSA8>
42.28

>  <EState_VSA9>
9.47

>  <EState_VSA10>
0

>  <VSA_EState1>
11.25

>  <VSA_EState2>
2.4

>  <VSA_EState3>
0

>  <VSA_EState4>
1.43

>  <VSA_EState5>
2.85

>  <VSA_EState6>
18.68

>  <VSA_EState7>
1.19

>  <VSA_EState8>
2.98

>  <VSA_EState9>
3.87

>  <apol>
52.77

>  <bpol>
30.26

>  <nRing>
3

>  <nHRing>
1

>  <naRing>
2

>  <naHRing>
0

>  <nARing 2>
1

>  <nAHRing 2>
1

>  <nFRing>
0

>  <nFHRing>
0

>  <nFaRing>
0

>  <nFaHRing>
0

>  <nFARing 2>
0

>  <nFAHRing 2>
0

>  <nRot>
5

>  <SLogP>
3.81

>  <SMR>
93.28

>  <TopoPSA(NO)>
21.7

>  <TopoPSA>
21.7

>  <JGI1>
0.16

>  <JGI2>
0.07

>  <JGI3>
0.03

>  <JGI4>
0.03

>  <JGI5>
0.02

>  <Diameter>
13

>  <Radius>
7

>  <TMWC10>
121.25

>  <TSRW10>
56.98

>  <MW>
311.19

>  <AMW>
6.48

>  <WPath>
1292

>  <WPol>
33

>  <Zagreb1>
116

>  <Zagreb2>
133

>  <mZagreb2>
5.22

>  <yes>


>  <nAR-cont>
0.816016

>  <nHA-cont>
0.967789328

>  <MWHBN>
0.170062453

>  <MWHBN-cont>
0.974062677

>  <TPSA-cont>
0.848520525

>  <pka_cont>
0.97

>  <yes.1>


>  <BBB_SCORE>
5.426940394

>  <MMFF94 Energy>
47.743

$$$$
Compound 1545
Actelion Java MolfileCreator 2.0

  0  0  0  0  0  0              0 V3000
M  V30 BEGIN CTAB
M  V30 COUNTS 43 44 0 0 0
M  V30 BEGIN ATOM
M  V30 1 S 1.9228 3.6077 -4.0895 0
M  V30 2 O 3.1674 2.918 -4.3277 0
M  V30 3 O 1.834 5.0476 -4.0103 0
M  V30 4 N 0.8816 3.1621 -5.3272 0
M  V30 5 C 1.1408 2.9001 -2.6716 0
M  V30 6 C 1.0524 1.5114 -2.5649 0
M  V30 7 C 0.6342 3.7198 -1.6669 0
M  V30 8 C 0.4391 0.9208 -1.4446 0
M  V30 9 C 0.0266 3.1434 -0.548 0
M  V30 10 C -0.078 1.7484 -0.4213 0
M  V30 11 C 0.3911 -0.5809 -1.4416 0
M  V30 12 O -0.6755 1.1395 0.6518 0
M  V30 13 O 0.783 -1.2116 -2.4202 0
M  V30 14 N -0.0963 -1.2002 -0.322 0
M  V30 15 C -1.0994 1.9476 1.743 0
M  V30 16 C -0.2255 -2.6373 -0.1929 0
M  V30 17 C -0.336 -3.0705 1.2804 0 CFG=2
M  V30 18 N -1.2533 -2.2372 2.091 0
M  V30 19 C 0.9983 -2.936 2.0269 0
M  V30 20 C -0.8803 -2.5077 3.4802 0
M  V30 21 C -2.6579 -2.536 1.8392 0
M  V30 22 C 0.6356 -2.4611 3.4298 0
M  V30 23 H 1.3605 2.5407 -5.9801 0
M  V30 24 H 0.483 3.9933 -5.7642 0
M  V30 25 H 1.4627 0.8842 -3.3555 0
M  V30 26 H 0.7049 4.8032 -1.7422 0
M  V30 27 H -0.3615 3.8173 0.2099 0
M  V30 28 H -0.4697 -0.6401 0.4416 0
M  V30 29 H -0.2604 2.5039 2.1735 0
M  V30 30 H -1.4896 1.2814 2.5185 0
M  V30 31 H -1.9102 2.6188 1.4421 0
M  V30 32 H 0.6261 -3.1248 -0.68 0
M  V30 33 H -1.13 -2.9217 -0.742 0
M  V30 34 H -0.6396 -4.1263 1.3172 0
M  V30 35 H 1.6797 -2.2171 1.5579 0
M  V30 36 H 1.5139 -3.9021 2.0653 0
M  V30 37 H -1.2143 -3.5012 3.8059 0
M  V30 38 H -1.2828 -1.7585 4.1693 0
M  V30 39 H -3.2975 -1.9197 2.4808 0
M  V30 40 H -2.927 -2.296 0.8054 0
M  V30 41 H -2.9011 -3.5886 2.0232 0
M  V30 42 H 1.0914 -3.0847 4.205 0
M  V30 43 H 0.9911 -1.4333 3.573 0
M  V30 END ATOM
M  V30 BEGIN BOND
M  V30 1 2 1 2
M  V30 2 2 1 3
M  V30 3 1 1 4
M  V30 4 1 1 5
M  V30 5 2 5 6
M  V30 6 1 5 7
M  V30 7 1 6 8
M  V30 8 2 7 9
M  V30 9 2 8 10
M  V30 10 1 8 11
M  V30 11 1 10 12
M  V30 12 2 11 13
M  V30 13 1 11 14
M  V30 14 1 12 15
M  V30 15 1 14 16
M  V30 16 1 16 17
M  V30 17 1 17 18
M  V30 18 1 17 19
M  V30 19 1 18 20
M  V30 20 1 18 21
M  V30 21 1 19 22
M  V30 22 1 9 10
M  V30 23 1 20 22
M  V30 24 1 4 23
M  V30 25 1 4 24
M  V30 26 1 6 25
M  V30 27 1 7 26
M  V30 28 1 9 27
M  V30 29 1 14 28
M  V30 30 1 15 29
M  V30 31 1 15 30
M  V30 32 1 15 31
M  V30 33 1 16 32
M  V30 34 1 16 33
M  V30 35 1 17 34
M  V30 36 1 19 35
M  V30 37 1 19 36
M  V30 38 1 20 37
M  V30 39 1 20 38
M  V30 40 1 21 39
M  V30 41 1 21 40
M  V30 42 1 21 41
M  V30 43 1 22 42
M  V30 44 1 22 43
M  V30 END BOND
M  V30 BEGIN COLLECTION
M  V30 MDLV30/STERAC1 ATOMS=(1 17)
M  V30 END COLLECTION
M  V30 END CTAB
M  END
>  <Column 1>
1874

>  <level_0>
2040

>  <index>
2040

>  <Unnamed: 0>
2040

>  <NO.>
2052

>  <Name>
sulmepride

>  <IUPAC_name>
2-methoxy-n-[(1-methylpyrrolidin-2-yl)methyl]-5-sulfamoylbenzamide

>  <SMILES>
COc1ccc(S(N)(=O)=O)cc1C(=O)NCC1CCCN1C

>  <CID>
3018598

>  <logBB>


>  <BBB+/BBB->
BBB+

>  <Inchi>
InChI=1S/C14H21N3O4S/c1-17-7-3-4-10(17)9-16-14(18)12-8-11(22(15-19)20)5-6-13(12)21-2/h5-6-8-10H-3-4-7-9H2-1-2H3-(H-16-18)(H2-15-19-20)

>  <threshold>
-1

>  <reference>
R1|R19|R6|R27|R27|R30|

>  <group>
B

>  <Class>
1

>  <ABC>
16.78

>  <ABCGG>
14.95

>  <nAcid>
0

>  <nBase>
1

>  <nAromAtom>
6

>  <nAromBond>
6

>  <nAtom>
43

>  <nHeavyAtom>
22

>  <nSpiro>
0

>  <nBridgehead>
0

>  <nHetero>
8

>  <nN>
3

>  <nO>
4

>  <nF>
0

>  <BalabanJ>
1.9

>  <BertzCT>
660.05

>  <nBonds>
44

>  <nBondsO>
23

>  <nBondsS>
35

>  <nBondsD>
3

>  <nBondsT>
0

>  <nBondsA>
6

>  <nBondsM>
9

>  <nBondsKS>
38

>  <nBondsKD>
6

>  <RNCG>
0.22

>  <RPCG>
0.11

>  <FCSP3>
0.5

>  <SZ>
29

>  <Sm>
27.26

>  <Sv>
26.01

>  <Sse>
43.71

>  <Sp>
28.02

>  <Si>
48.99

>  <MZ>
0.67

>  <Mm>
0.63

>  <Mv>
0.6

>  <Mse>
1.02

>  <Mp>
0.65

>  <Mi>
1.14

>  <NsCH3>
2

>  <NdCH2>
0

>  <NssCH2>
4

>  <NtCH>
0

>  <NdsCH>
0

>  <NaaCH>
3

>  <NsssCH>
1

>  <NddC>
0

>  <NtsC>
0

>  <NdssC>
1

>  <NaasC>
3

>  <NaaaC>
0

>  <NssssC>
0

>  <NsNH3>
0

>  <NsNH2>
1

>  <NssNH2>
0

>  <NdNH>
0

>  <NssNH>
1

>  <NaaNH>
0

>  <NtN>
0

>  <NsssNH>
0

>  <NdsN>
0

>  <NaaN>
0

>  <NsssN>
1

>  <NddsN>
0

>  <NaasN>
0

>  <NssssN>
0

>  <NsOH>
0

>  <NdO>
3

>  <NssO>
1

>  <NaaO>
0

>  <NsF>
0

>  <NsSiH3>
0

>  <NssSiH2>
0

>  <NsssSiH>
0

>  <NssssSi>
0

>  <NsPH2>
0

>  <NssPH>
0

>  <NsssP>
0

>  <NdsssP>
0

>  <NsssssP>
0

>  <NsSH>
0

>  <NdS>
0

>  <NssS>
0

>  <NaaS>
0

>  <NdssS>
0

>  <NddssS>
1

>  <NsCl>
0

>  <NsBr>
0

>  <NsI>
0

>  <fragCpx>
67.08

>  <fMF>
0.33

>  <nHBAcc>
5

>  <nHBDon>
2

>  <Kier1>
18.34

>  <Kier2>
7.71

>  <Lipinski>
1

>  <GhoseFilter>
1

>  <FilterItLogS>
-2.62

>  <VMcGowan>
238.97

>  <LabuteASA>
130.03

>  <PEOE_VSA1>
14.95

>  <PEOE_VSA2>
4.79

>  <PEOE_VSA3>
13.56

>  <PEOE_VSA4>
0

>  <PEOE_VSA5>
0

>  <PEOE_VSA6>
0

>  <PEOE_VSA7>
44.63

>  <PEOE_VSA8>
12.59

>  <PEOE_VSA9>
17.57

>  <PEOE_VSA10>
5.75

>  <PEOE_VSA11>
0

>  <PEOE_VSA12>
10.02

>  <PEOE_VSA13>
5.91

>  <SMR_VSA1>
17.95

>  <SMR_VSA2>
0

>  <SMR_VSA3>
10.22

>  <SMR_VSA4>
5.14

>  <SMR_VSA5>
23.78

>  <SMR_VSA6>
27.25

>  <SMR_VSA7>
23.76

>  <SMR_VSA8>
0

>  <SMR_VSA9>
5.75

>  <SlogP_VSA1>
15.19

>  <SlogP_VSA2>
52.51

>  <SlogP_VSA3>
10.02

>  <SlogP_VSA4>
0

>  <SlogP_VSA5>
23.2

>  <SlogP_VSA6>
23.09

>  <SlogP_VSA7>
0

>  <SlogP_VSA8>
0

>  <SlogP_VSA9>
0

>  <SlogP_VSA10>
0

>  <SlogP_VSA11>
5.75

>  <EState_VSA1>
10.02

>  <EState_VSA2>
16.37

>  <EState_VSA3>
18.34

>  <EState_VSA4>
19.39

>  <EState_VSA5>
25.31

>  <EState_VSA6>
0

>  <EState_VSA7>
7.05

>  <EState_VSA8>
10.22

>  <EState_VSA9>
9.88

>  <EState_VSA10>
13.21

>  <VSA_EState1>
27.95

>  <VSA_EState2>
14.4

>  <VSA_EState3>
7.93

>  <VSA_EState4>
0.16

>  <VSA_EState5>
-0.06

>  <VSA_EState6>
4.28

>  <VSA_EState7>
2.15

>  <VSA_EState8>
1.53

>  <VSA_EState9>
-0.42

>  <apol>
46.79

>  <bpol>
32.04

>  <nRing>
2

>  <nHRing>
1

>  <naRing>
1

>  <naHRing>
0

>  <nARing 2>
1

>  <nAHRing 2>
1

>  <nFRing>
0

>  <nFHRing>
0

>  <nFaRing>
0

>  <nFaHRing>
0

>  <nFARing 2>
0

>  <nFAHRing 2>
0

>  <nRot>
5

>  <SLogP>
0.17

>  <SMR>
82.35

>  <TopoPSA(NO)>
101.73

>  <TopoPSA>
110.11

>  <JGI1>
0.26

>  <JGI2>
0.11

>  <JGI3>
0.05

>  <JGI4>
0.04

>  <JGI5>
0.04

>  <Diameter>
10

>  <Radius>
5

>  <TMWC10>
118.48

>  <TSRW10>
69.49

>  <MW>
327.13

>  <AMW>
7.61

>  <WPath>
1099

>  <WPol>
32

>  <Zagreb1>
112

>  <Zagreb2>
129

>  <mZagreb2>
4.83

>  <yes>


>  <nAR-cont>
0.816016

>  <nHA-cont>
0.983774276

>  <MWHBN>
0.387023961

>  <MWHBN-cont>
0.527187802

>  <TPSA-cont>
0.231363826

>  <pka_cont>
0.97

>  <yes.1>


>  <BBB_SCORE>
3.53829963

>  <MMFF94 Energy>
-41.347

$$$$
Compound 1546
Actelion Java MolfileCreator 2.0

  0  0  0  0  0  0              0 V3000
M  V30 BEGIN CTAB
M  V30 COUNTS 53 55 0 0 0
M  V30 BEGIN ATOM
M  V30 1 S -6.2961 1.7727 -0.7249 0
M  V30 2 O -7.5132 1.633 0.0402 0
M  V30 3 O -6.1678 1.2877 -2.0775 0
M  V30 4 N -5.98 3.4194 -0.7726 0
M  V30 5 C -4.9375 1.164 0.2291 0
M  V30 6 C -3.6524 1.1983 -0.3223 0
M  V30 7 C -5.1567 0.629 1.4997 0
M  V30 8 C -2.5598 0.7061 0.4077 0
M  V30 9 C -4.0745 0.1437 2.2332 0
M  V30 10 C -2.7801 0.2034 1.701 0
M  V30 11 C -1.2201 0.7696 -0.2496 0
M  V30 12 O -1.7506 -0.2961 2.4601 0
M  V30 13 O -1.0453 1.5257 -1.1989 0
M  V30 14 N -0.2439 -0.0602 0.2462 0
M  V30 15 C -1.3537 0.6637 3.4458 0
M  V30 16 C 1.1104 -0.1066 -0.2818 0
M  V30 17 C 1.3109 -1.2588 -1.2871 0 CFG=2
M  V30 18 N 2.6862 -1.4573 -1.7986 0
M  V30 19 C 0.5301 -1.014 -2.5837 0
M  V30 20 C 2.5188 -2.3231 -2.9738 0
M  V30 21 C 3.6143 -2.0757 -0.8413 0
M  V30 22 C 1.2676 -1.8009 -3.6562 0
M  V30 23 C 4.2091 -1.1063 0.1585 0
M  V30 24 C 4.7154 0.1374 -0.2569 0
M  V30 25 C 4.3127 -1.4634 1.5133 0
M  V30 26 C 5.2844 1.0161 0.6655 0
M  V30 27 C 4.884 -0.5836 2.4343 0
M  V30 28 C 5.3615 0.648 2.0024 0
M  V30 29 F 5.9076 1.4903 2.8894 0
M  V30 30 H -6.733 3.9328 -0.3138 0
M  V30 31 H -5.8064 3.7148 -1.7342 0
M  V30 32 H -3.5013 1.6 -1.3236 0
M  V30 33 H -6.1587 0.5823 1.9214 0
M  V30 34 H -4.2409 -0.2843 3.2189 0
M  V30 35 H -0.4714 -0.6498 1.0404 0
M  V30 36 H -1.1155 1.6307 2.9885 0
M  V30 37 H -0.4494 0.2864 3.9321 0
M  V30 38 H -2.1271 0.7822 4.2118 0
M  V30 39 H 1.744 -0.243 0.5965 0
M  V30 40 H 1.3642 0.8592 -0.7327 0
M  V30 41 H 0.9448 -2.1933 -0.837 0
M  V30 42 H -0.5122 -1.3385 -2.4973 0
M  V30 43 H 0.5295 0.0472 -2.86 0
M  V30 44 H 3.3864 -2.2758 -3.6399 0
M  V30 45 H 2.3644 -3.3703 -2.6825 0
M  V30 46 H 3.1316 -2.9157 -0.3249 0
M  V30 47 H 4.4719 -2.4989 -1.3825 0
M  V30 48 H 1.5197 -1.1443 -4.4966 0
M  V30 49 H 0.6561 -2.6225 -4.0433 0
M  V30 50 H 4.6551 0.4259 -1.3051 0
M  V30 51 H 3.947 -2.4276 1.8588 0
M  V30 52 H 5.6661 1.9808 0.3482 0
M  V30 53 H 4.9628 -0.851 3.4829 0
M  V30 END ATOM
M  V30 BEGIN BOND
M  V30 1 2 1 2
M  V30 2 2 1 3
M  V30 3 1 1 4
M  V30 4 1 1 5
M  V30 5 2 5 6
M  V30 6 1 5 7
M  V30 7 1 6 8
M  V30 8 2 7 9
M  V30 9 2 8 10
M  V30 10 1 8 11
M  V30 11 1 10 12
M  V30 12 2 11 13
M  V30 13 1 11 14
M  V30 14 1 12 15
M  V30 15 1 14 16
M  V30 16 1 16 17
M  V30 17 1 17 18
M  V30 18 1 17 19
M  V30 19 1 18 20
M  V30 20 1 18 21
M  V30 21 1 19 22
M  V30 22 1 21 23
M  V30 23 2 23 24
M  V30 24 1 23 25
M  V30 25 1 24 26
M  V30 26 2 25 27
M  V30 27 2 26 28
M  V30 28 1 28 29
M  V30 29 1 9 10
M  V30 30 1 20 22
M  V30 31 1 27 28
M  V30 32 1 4 30
M  V30 33 1 4 31
M  V30 34 1 6 32
M  V30 35 1 7 33
M  V30 36 1 9 34
M  V30 37 1 14 35
M  V30 38 1 15 36
M  V30 39 1 15 37
M  V30 40 1 15 38
M  V30 41 1 16 39
M  V30 42 1 16 40
M  V30 43 1 17 41
M  V30 44 1 19 42
M  V30 45 1 19 43
M  V30 46 1 20 44
M  V30 47 1 20 45
M  V30 48 1 21 46
M  V30 49 1 21 47
M  V30 50 1 22 48
M  V30 51 1 22 49
M  V30 52 1 24 50
M  V30 53 1 25 51
M  V30 54 1 26 52
M  V30 55 1 27 53
M  V30 END BOND
M  V30 BEGIN COLLECTION
M  V30 MDLV30/STERAC1 ATOMS=(1 17)
M  V30 END COLLECTION
M  V30 END CTAB
M  END
>  <Column 1>
1875

>  <level_0>
2041

>  <index>
2041

>  <Unnamed: 0>
2041

>  <NO.>
2053

>  <Name>
flubepride

>  <IUPAC_name>
n-[[1-[(4-fluorophenyl)methyl]pyrrolidin-2-yl]methyl]-2-methoxy-5-sulfamoylbenzamide

>  <SMILES>
COc1ccc(S(N)(=O)=O)cc1C(=O)NCC1CCCN1Cc1ccc(F)cc1

>  <CID>
216225

>  <logBB>


>  <BBB+/BBB->
BBB+

>  <Inchi>
InChI=1S/C20H24FN3O4S/c1-28-19-9-8-17(29(22-26)27)11-18(19)20(25)23-12-16-3-2-10-24(16)13-14-4-6-15(21)7-5-14/h4-9-11-16H-2-3-10-12-13H2-1H3-(H-23-25)(H2-22-26-27)

>  <threshold>
-1

>  <reference>
R1|R19|R6|R27|R27|R30|

>  <group>
B

>  <Class>
1

>  <ABC>
22.43

>  <ABCGG>
18.33

>  <nAcid>
0

>  <nBase>
1

>  <nAromAtom>
12

>  <nAromBond>
12

>  <nAtom>
53

>  <nHeavyAtom>
29

>  <nSpiro>
0

>  <nBridgehead>
0

>  <nHetero>
9

>  <nN>
3

>  <nO>
4

>  <nF>
1

>  <BalabanJ>
1.49

>  <BertzCT>
979.72

>  <nBonds>
55

>  <nBondsO>
31

>  <nBondsS>
40

>  <nBondsD>
3

>  <nBondsT>
0

>  <nBondsA>
12

>  <nBondsM>
15

>  <nBondsKS>
46

>  <nBondsKD>
9

>  <RNCG>
0.19

>  <RPCG>
0.1

>  <FCSP3>
0.35

>  <SZ>
37

>  <Sm>
35.09

>  <Sv>
33.47

>  <Sse>
54

>  <Sp>
35.55

>  <Si>
60.16

>  <MZ>
0.7

>  <Mm>
0.66

>  <Mv>
0.63

>  <Mse>
1.02

>  <Mp>
0.67

>  <Mi>
1.14

>  <NsCH3>
1

>  <NdCH2>
0

>  <NssCH2>
5

>  <NtCH>
0

>  <NdsCH>
0

>  <NaaCH>
7

>  <NsssCH>
1

>  <NddC>
0

>  <NtsC>
0

>  <NdssC>
1

>  <NaasC>
5

>  <NaaaC>
0

>  <NssssC>
0

>  <NsNH3>
0

>  <NsNH2>
1

>  <NssNH2>
0

>  <NdNH>
0

>  <NssNH>
1

>  <NaaNH>
0

>  <NtN>
0

>  <NsssNH>
0

>  <NdsN>
0

>  <NaaN>
0

>  <NsssN>
1

>  <NddsN>
0

>  <NaasN>
0

>  <NssssN>
0

>  <NsOH>
0

>  <NdO>
3

>  <NssO>
1

>  <NaaO>
0

>  <NsF>
1

>  <NsSiH3>
0

>  <NssSiH2>
0

>  <NsssSiH>
0

>  <NssssSi>
0

>  <NsPH2>
0

>  <NssPH>
0

>  <NsssP>
0

>  <NdsssP>
0

>  <NsssssP>
0

>  <NsSH>
0

>  <NdS>
0

>  <NssS>
0

>  <NaaS>
0

>  <NdssS>
0

>  <NddssS>
1

>  <NsCl>
0

>  <NsBr>
0

>  <NsI>
0

>  <fragCpx>
149.09

>  <fMF>
0.4

>  <nHBAcc>
5

>  <nHBDon>
2

>  <Kier1>
23.66

>  <Kier2>
10.54

>  <Lipinski>
1

>  <GhoseFilter>
1

>  <FilterItLogS>
-4.76

>  <VMcGowan>
301.51

>  <LabuteASA>
169.25

>  <PEOE_VSA1>
10.05

>  <PEOE_VSA2>
9.69

>  <PEOE_VSA3>
17.95

>  <PEOE_VSA4>
0

>  <PEOE_VSA5>
0

>  <PEOE_VSA6>
12.13

>  <PEOE_VSA7>
55.28

>  <PEOE_VSA8>
19.13

>  <PEOE_VSA9>
17.57

>  <PEOE_VSA10>
11.57

>  <PEOE_VSA11>
0

>  <PEOE_VSA12>
10.02

>  <PEOE_VSA13>
5.91

>  <SMR_VSA1>
22.34

>  <SMR_VSA2>
0

>  <SMR_VSA3>
10.22

>  <SMR_VSA4>
5.14

>  <SMR_VSA5>
30.32

>  <SMR_VSA6>
20.2

>  <SMR_VSA7>
59.41

>  <SMR_VSA8>
0

>  <SMR_VSA9>
5.75

>  <SlogP_VSA1>
15.19

>  <SlogP_VSA2>
45.47

>  <SlogP_VSA3>
16.57

>  <SlogP_VSA4>
5.82

>  <SlogP_VSA5>
28.76

>  <SlogP_VSA6>
47.36

>  <SlogP_VSA7>
0

>  <SlogP_VSA8>
0

>  <SlogP_VSA9>
0

>  <SlogP_VSA10>
4.39

>  <SlogP_VSA11>
5.75

>  <EState_VSA1>
15.93

>  <EState_VSA2>
28.07

>  <EState_VSA3>
13.09

>  <EState_VSA4>
24.95

>  <EState_VSA5>
37.44

>  <EState_VSA6>
12.13

>  <EState_VSA7>
0

>  <EState_VSA8>
10.22

>  <EState_VSA9>
9.88

>  <EState_VSA10>
17.6

>  <VSA_EState1>
41.45

>  <VSA_EState2>
14.77

>  <VSA_EState3>
8.02

>  <VSA_EState4>
1.12

>  <VSA_EState5>
-0.43

>  <VSA_EState6>
10.45

>  <VSA_EState7>
1.93

>  <VSA_EState8>
1.97

>  <VSA_EState9>
-2.52

>  <apol>
59.37

>  <bpol>
36.16

>  <nRing>
3

>  <nHRing>
1

>  <naRing>
2

>  <naHRing>
0

>  <nARing 2>
1

>  <nAHRing 2>
1

>  <nFRing>
0

>  <nFHRing>
0

>  <nFaRing>
0

>  <nFaHRing>
0

>  <nFARing 2>
0

>  <nFAHRing 2>
0

>  <nRot>
7

>  <SLogP>
1.88

>  <SMR>
106.53

>  <TopoPSA(NO)>
101.73

>  <TopoPSA>
110.11

>  <JGI1>
0.24

>  <JGI2>
0.09

>  <JGI3>
0.04

>  <JGI4>
0.04

>  <JGI5>
0.03

>  <Diameter>
15

>  <Radius>
8

>  <TMWC10>
136.09

>  <TSRW10>
77.94

>  <MW>
421.15

>  <AMW>
7.95

>  <WPath>
2491

>  <WPol>
43

>  <Zagreb1>
150

>  <Zagreb2>
173

>  <mZagreb2>
6.33

>  <yes>


>  <nAR-cont>
0.816016

>  <nHA-cont>
0.785905698

>  <MWHBN>
0.341098365

>  <MWHBN-cont>
0.703134774

>  <TPSA-cont>
0.231363826

>  <pka_cont>
0.97

>  <yes.1>


>  <BBB_SCORE>
3.604351512

>  <MMFF94 Energy>
-22.628

$$$$
Compound 1547
Actelion Java MolfileCreator 2.0

  0  0  0  0  0  0              0 V3000
M  V30 BEGIN CTAB
M  V30 COUNTS 53 55 0 0 0
M  V30 BEGIN ATOM
M  V30 1 O 2.9406 3.7365 3.1793 0
M  V30 2 C 3.9194 3.0171 2.9808 0
M  V30 3 C 3.8049 1.5914 2.4572 0
M  V30 4 C 5.2634 3.6365 3.0999 0
M  V30 5 N 2.7739 1.2961 1.5347 0
M  V30 6 C 4.6644 0.6348 2.8602 0
M  V30 7 C 6.3789 3.0669 3.5672 0
M  V30 8 C 3.0753 0.6724 0.2293 0
M  V30 9 C 1.4733 1.9988 1.5479 0
M  V30 10 C 5.7256 0.6946 3.8344 0
M  V30 11 C 6.4868 1.7513 4.1356 0
M  V30 12 C 1.9076 -0.2084 -0.2586 0
M  V30 13 C 0.3371 1.1059 0.9919 0
M  V30 14 N 0.6268 0.5333 -0.3459 0
M  V30 15 C -0.4532 -0.3853 -0.7894 0
M  V30 16 C -1.7397 0.375 -1.2032 0 CFG=1
M  V30 17 O -1.3859 1.4166 -2.1204 0
M  V30 18 C -2.7608 -0.557 -1.8219 0
M  V30 19 C -3.6542 -1.2611 -0.9962 0
M  V30 20 C -2.8155 -0.7704 -3.2039 0
M  V30 21 C -4.5883 -2.1538 -1.5386 0
M  V30 22 C -3.7409 -1.6607 -3.755 0
M  V30 23 O -5.4875 -2.8794 -0.7956 0
M  V30 24 C -4.6299 -2.3577 -2.9318 0
M  V30 25 C -5.5891 -2.5838 0.5892 0
M  V30 26 O -5.5675 -3.2533 -3.3841 0
M  V30 27 C -5.6775 -3.4358 -4.7881 0
M  V30 28 H 5.278 4.6823 2.808 0
M  V30 29 H 4.5074 -0.3719 2.4766 0
M  V30 30 H 7.2828 3.6714 3.6181 0
M  V30 31 H 3.9775 0.0528 0.2787 0
M  V30 32 H 3.274 1.4656 -0.5027 0
M  V30 33 H 1.5485 2.9194 0.9567 0
M  V30 34 H 1.1877 2.262 2.5722 0
M  V30 35 H 5.9352 -0.248 4.3387 0
M  V30 36 H 7.2785 1.6267 4.8731 0
M  V30 37 H 1.8031 -1.0692 0.4157 0
M  V30 38 H 2.1707 -0.5971 -1.2497 0
M  V30 39 H -0.5681 1.7209 0.9472 0
M  V30 40 H 0.1471 0.2969 1.7104 0
M  V30 41 H -0.676 -1.1425 -0.0265 0
M  V30 42 H -0.0905 -0.9224 -1.6766 0
M  V30 43 H -2.1948 0.8675 -0.3366 0
M  V30 44 H -0.5093 1.7224 -1.8118 0
M  V30 45 H -3.6 -1.0981 0.0753 0
M  V30 46 H -2.1351 -0.236 -3.8649 0
M  V30 47 H -3.7395 -1.7852 -4.8323 0
M  V30 48 H -4.6702 -2.8577 1.1175 0
M  V30 49 H -6.4015 -3.1897 1.002 0
M  V30 50 H -5.843 -1.5313 0.7546 0
M  V30 51 H -5.9472 -2.5004 -5.2896 0
M  V30 52 H -6.4833 -4.1536 -4.9697 0
M  V30 53 H -4.7571 -3.8582 -5.2042 0
M  V30 END ATOM
M  V30 BEGIN BOND
M  V30 1 2 1 2
M  V30 2 1 2 3
M  V30 3 1 2 4
M  V30 4 1 3 5
M  V30 5 2 3 6
M  V30 6 2 4 7
M  V30 7 1 5 8
M  V30 8 1 5 9
M  V30 9 1 6 10
M  V30 10 1 7 11
M  V30 11 1 8 12
M  V30 12 1 9 13
M  V30 13 1 12 14
M  V30 14 1 14 15
M  V30 15 1 15 16
M  V30 16 1 16 17
M  V30 17 1 16 18
M  V30 18 2 18 19
M  V30 19 1 18 20
M  V30 20 1 19 21
M  V30 21 2 20 22
M  V30 22 1 21 23
M  V30 23 2 21 24
M  V30 24 1 23 25
M  V30 25 1 24 26
M  V30 26 1 26 27
M  V30 27 2 10 11
M  V30 28 1 13 14
M  V30 29 1 22 24
M  V30 30 1 4 28
M  V30 31 1 6 29
M  V30 32 1 7 30
M  V30 33 1 8 31
M  V30 34 1 8 32
M  V30 35 1 9 33
M  V30 36 1 9 34
M  V30 37 1 10 35
M  V30 38 1 11 36
M  V30 39 1 12 37
M  V30 40 1 12 38
M  V30 41 1 13 39
M  V30 42 1 13 40
M  V30 43 1 15 41
M  V30 44 1 15 42
M  V30 45 1 16 43
M  V30 46 1 17 44
M  V30 47 1 19 45
M  V30 48 1 20 46
M  V30 49 1 22 47
M  V30 50 1 25 48
M  V30 51 1 25 49
M  V30 52 1 25 50
M  V30 53 1 27 51
M  V30 54 1 27 52
M  V30 55 1 27 53
M  V30 END BOND
M  V30 BEGIN COLLECTION
M  V30 MDLV30/STEABS ATOMS=(1 16)
M  V30 END COLLECTION
M  V30 END CTAB
M  END
>  <Column 1>
1876

>  <level_0>
2042

>  <index>
2042

>  <Unnamed: 0>
2042

>  <NO.>
2054

>  <Name>
ciladopa

>  <IUPAC_name>
2-[4-[(2s)-2-(3-4-dimethoxyphenyl)-2-hydroxyethyl]piperazin-1-yl]cyclohepta-2-4-6-trien-1-one

>  <SMILES>
COc1ccc([C@H](O)CN2CCN(c3cccccc3=O)CC2)cc1OC

>  <CID>
133371

>  <logBB>


>  <BBB+/BBB->
BBB+

>  <Inchi>
InChI=1S/C21H26N2O4/c1-26-20-9-8-16(14-21(20)27-2)19(25)15-22-10-12-23(13-11-22)17-6-4-3-5-7-18(17)24/h3-9-14-19-25H-10-13-15H2-1-2H3/t19-/m1/s1

>  <threshold>
-1

>  <reference>
R1|R13|R6|R27|R27|R30|R30|

>  <group>
B

>  <Class>
1

>  <ABC>
20.56

>  <ABCGG>
15.89

>  <nAcid>
0

>  <nBase>
1

>  <nAromAtom>
13

>  <nAromBond>
13

>  <nAtom>
53

>  <nHeavyAtom>
27

>  <nSpiro>
0

>  <nBridgehead>
0

>  <nHetero>
6

>  <nN>
2

>  <nO>
4

>  <nF>
0

>  <BalabanJ>
1.43

>  <BertzCT>
819.16

>  <nBonds>
55

>  <nBondsO>
29

>  <nBondsS>
41

>  <nBondsD>
1

>  <nBondsT>
0

>  <nBondsA>
13

>  <nBondsM>
14

>  <nBondsKS>
48

>  <nBondsKD>
7

>  <RNCG>
0.19

>  <RPCG>
0.08

>  <FCSP3>
0.38

>  <SZ>
33

>  <Sm>
30.84

>  <Sv>
32.42

>  <Sse>
53.19

>  <Sp>
34.62

>  <Si>
59.82

>  <MZ>
0.62

>  <Mm>
0.58

>  <Mv>
0.61

>  <Mse>
1

>  <Mp>
0.65

>  <Mi>
1.13

>  <NsCH3>
2

>  <NdCH2>
0

>  <NssCH2>
5

>  <NtCH>
0

>  <NdsCH>
0

>  <NaaCH>
8

>  <NsssCH>
1

>  <NddC>
0

>  <NtsC>
0

>  <NdssC>
0

>  <NaasC>
4

>  <NaaaC>
0

>  <NssssC>
0

>  <NsNH3>
0

>  <NsNH2>
0

>  <NssNH2>
0

>  <NdNH>
0

>  <NssNH>
0

>  <NaaNH>
0

>  <NtN>
0

>  <NsssNH>
0

>  <NdsN>
0

>  <NaaN>
0

>  <NsssN>
2

>  <NddsN>
0

>  <NaasN>
0

>  <NssssN>
0

>  <NsOH>
1

>  <NdO>
1

>  <NssO>
2

>  <NaaO>
0

>  <NsF>
0

>  <NsSiH3>
0

>  <NssSiH2>
0

>  <NsssSiH>
0

>  <NssssSi>
0

>  <NsPH2>
0

>  <NssPH>
0

>  <NsssP>
0

>  <NdsssP>
0

>  <NsssssP>
0

>  <NsSH>
0

>  <NdS>
0

>  <NssS>
0

>  <NaaS>
0

>  <NdssS>
0

>  <NddssS>
0

>  <NsCl>
0

>  <NsBr>
0

>  <NsI>
0

>  <fragCpx>
139.06

>  <fMF>
0.4

>  <nHBAcc>
6

>  <nHBDon>
1

>  <Kier1>
21.7

>  <Kier2>
10.68

>  <Lipinski>
1

>  <GhoseFilter>
1

>  <FilterItLogS>
-3.89

>  <VMcGowan>
287.51

>  <LabuteASA>
159.12

>  <PEOE_VSA1>
19.48

>  <PEOE_VSA2>
9.69

>  <PEOE_VSA3>
0

>  <PEOE_VSA4>
0

>  <PEOE_VSA5>
0

>  <PEOE_VSA6>
24.27

>  <PEOE_VSA7>
29.83

>  <PEOE_VSA8>
32.72

>  <PEOE_VSA9>
26.01

>  <PEOE_VSA10>
0

>  <PEOE_VSA11>
11.5

>  <PEOE_VSA12>
5.43

>  <PEOE_VSA13>
0

>  <SMR_VSA1>
14.58

>  <SMR_VSA2>
0

>  <SMR_VSA3>
4.9

>  <SMR_VSA4>
0

>  <SMR_VSA5>
6.1

>  <SMR_VSA6>
51.84

>  <SMR_VSA7>
64.32

>  <SMR_VSA8>
0

>  <SMR_VSA9>
11.5

>  <SlogP_VSA1>
19.8

>  <SlogP_VSA2>
56.95

>  <SlogP_VSA3>
0

>  <SlogP_VSA4>
0

>  <SlogP_VSA5>
11.67

>  <SlogP_VSA6>
53.33

>  <SlogP_VSA7>
0

>  <SlogP_VSA8>
0

>  <SlogP_VSA9>
0

>  <SlogP_VSA10>
5.69

>  <SlogP_VSA11>
11.5

>  <EState_VSA1>
6.1

>  <EState_VSA2>
5.43

>  <EState_VSA3>
18.04

>  <EState_VSA4>
37.43

>  <EState_VSA5>
0

>  <EState_VSA6>
32.42

>  <EState_VSA7>
30.33

>  <EState_VSA8>
9.8

>  <EState_VSA9>
9.47

>  <EState_VSA10>
9.9

>  <VSA_EState1>
10.56

>  <VSA_EState2>
16.48

>  <VSA_EState3>
10.61

>  <VSA_EState4>
1.57

>  <VSA_EState5>
1.25

>  <VSA_EState6>
14.47

>  <VSA_EState7>
-0.61

>  <VSA_EState8>
3.65

>  <VSA_EState9>
3.18

>  <apol>
57.81

>  <bpol>
33.84

>  <nRing>
3

>  <nHRing>
1

>  <naRing>
2

>  <naHRing>
0

>  <nARing 2>
1

>  <nAHRing 2>
1

>  <nFRing>
0

>  <nFHRing>
0

>  <nFaRing>
0

>  <nFaHRing>
0

>  <nFARing 2>
0

>  <nFAHRing 2>
0

>  <nRot>
6

>  <SLogP>
1.92

>  <SMR>
105.87

>  <TopoPSA(NO)>
62.24

>  <TopoPSA>
62.24

>  <JGI1>
0.17

>  <JGI2>
0.09

>  <JGI3>
0.04

>  <JGI4>
0.04

>  <JGI5>
0.02

>  <Diameter>
15

>  <Radius>
8

>  <TMWC10>
131.01

>  <TSRW10>
69.6

>  <MW>
370.19

>  <AMW>
6.98

>  <WPath>
2107

>  <WPol>
45

>  <Zagreb1>
136

>  <Zagreb2>
158

>  <mZagreb2>
6.19

>  <yes>


>  <nAR-cont>
0.816016

>  <nHA-cont>
0.860070871

>  <MWHBN>
0.36381927

>  <MWHBN-cont>
0.617769218

>  <TPSA-cont>
0.565526151

>  <pka_cont>
0.97

>  <yes.1>


>  <BBB_SCORE>
4.218793001

>  <MMFF94 Energy>
221.15

$$$$
Compound 1548
Actelion Java MolfileCreator 2.0

  0  0  0  0  0  0              0 V3000
M  V30 BEGIN CTAB
M  V30 COUNTS 43 45 0 0 0
M  V30 BEGIN ATOM
M  V30 1 O -1.7444 2.7763 -0.1584 0
M  V30 2 C -0.9832 2.5389 0.969 0
M  V30 3 C -2.3392 1.6837 -0.7596 0
M  V30 4 C -0.4343 1.2845 1.2712 0
M  V30 5 C -0.7737 3.6296 1.814 0
M  V30 6 C -1.8856 0.3677 -0.5727 0
M  V30 7 C -3.4513 1.9532 -1.5613 0
M  V30 8 C -0.6847 0.2052 0.28 0
M  V30 9 C 0.2741 1.1331 2.4712 0
M  V30 10 C -0.0421 3.4712 2.9935 0
M  V30 11 C -2.6385 -0.6796 -1.1161 0
M  V30 12 C -4.1575 0.9023 -2.1426 0
M  V30 13 C 0.2589 -0.7482 0.1058 0
M  V30 14 C 0.4761 2.2202 3.3311 0
M  V30 15 C -3.7603 -0.4129 -1.9078 0
M  V30 16 C 0.3617 -1.8173 -0.9568 0
M  V30 17 O 1.193 1.9265 4.4593 0
M  V30 18 C 1.8071 -1.9553 -1.4797 0
M  V30 19 C 1.4137 2.9903 5.3772 0
M  V30 20 N 1.9425 -2.9301 -2.5796 0
M  V30 21 C 1.7322 -4.3055 -2.1237 0
M  V30 22 C 3.2692 -2.8106 -3.1908 0
M  V30 23 H -1.1913 4.5999 1.5592 0
M  V30 24 H -3.7764 2.9785 -1.713 0
M  V30 25 H 0.6713 0.1646 2.7623 0
M  V30 26 H 0.0952 4.3399 3.6284 0
M  V30 27 H -2.3735 -1.7148 -0.9222 0
M  V30 28 H -5.0284 1.107 -2.7597 0
M  V30 29 H 1.1232 -0.7481 0.7689 0
M  V30 30 H -4.3269 -1.2359 -2.3366 0
M  V30 31 H -0.2784 -1.5956 -1.815 0
M  V30 32 H 0.0271 -2.7604 -0.5121 0
M  V30 33 H 2.1169 -0.9662 -1.8447 0
M  V30 34 H 2.4847 -2.2121 -0.654 0
M  V30 35 H 2.0055 3.7898 4.9194 0
M  V30 36 H 1.9881 2.5916 6.219 0
M  V30 37 H 0.4672 3.3743 5.7721 0
M  V30 38 H 0.7069 -4.455 -1.7717 0
M  V30 39 H 2.4219 -4.5846 -1.319 0
M  V30 40 H 1.8707 -5.01 -2.9521 0
M  V30 41 H 4.0737 -3.0229 -2.4771 0
M  V30 42 H 3.42 -1.8022 -3.5923 0
M  V30 43 H 3.3673 -3.4993 -4.0374 0
M  V30 END ATOM
M  V30 BEGIN BOND
M  V30 1 1 1 2
M  V30 2 1 1 3
M  V30 3 2 2 4
M  V30 4 1 2 5
M  V30 5 2 3 6
M  V30 6 1 3 7
M  V30 7 1 4 8
M  V30 8 1 4 9
M  V30 9 2 5 10
M  V30 10 1 6 11
M  V30 11 2 7 12
M  V30 12 2 8 13
M  V30 13 2 9 14
M  V30 14 2 11 15
M  V30 15 1 13 16
M  V30 16 1 14 17
M  V30 17 1 16 18
M  V30 18 1 17 19
M  V30 19 1 18 20
M  V30 20 1 20 21
M  V30 21 1 20 22
M  V30 22 1 6 8
M  V30 23 1 10 14
M  V30 24 1 12 15
M  V30 25 1 5 23
M  V30 26 1 7 24
M  V30 27 1 9 25
M  V30 28 1 10 26
M  V30 29 1 11 27
M  V30 30 1 12 28
M  V30 31 1 13 29
M  V30 32 1 15 30
M  V30 33 1 16 31
M  V30 34 1 16 32
M  V30 35 1 18 33
M  V30 36 1 18 34
M  V30 37 1 19 35
M  V30 38 1 19 36
M  V30 39 1 19 37
M  V30 40 1 21 38
M  V30 41 1 21 39
M  V30 42 1 21 40
M  V30 43 1 22 41
M  V30 44 1 22 42
M  V30 45 1 22 43
M  V30 END BOND
M  V30 END CTAB
M  END
>  <Column 1>
1878

>  <level_0>
2044

>  <index>
2044

>  <Unnamed: 0>
2044

>  <NO.>
2056

>  <Name>
dimeprozan

>  <IUPAC_name>
(3e)-3-(2-methoxyxanthen-9-ylidene)-n-n-dimethylpropan-1-amine

>  <SMILES>
COc1ccc2c(c1)/C(=C/CCN(C)C)c1ccccc1O2

>  <CID>
6445008

>  <logBB>


>  <BBB+/BBB->
BBB+

>  <Inchi>
InChI=1S/C19H21NO2/c1-20(2)12-6-8-15-16-7-4-5-9-18(16)22-19-11-10-14(21-3)13-17(15)19/h4-5-7-11-13H-6-12H2-1-3H3/b15-8+

>  <threshold>
-1

>  <reference>
R1|R13|R24|R27|R30|

>  <group>
B

>  <Class>
1

>  <ABC>
17.03

>  <ABCGG>
13.45

>  <nAcid>
0

>  <nBase>
1

>  <nAromAtom>
12

>  <nAromBond>
12

>  <nAtom>
43

>  <nHeavyAtom>
22

>  <nSpiro>
0

>  <nBridgehead>
0

>  <nHetero>
3

>  <nN>
1

>  <nO>
2

>  <nF>
0

>  <BalabanJ>
1.69

>  <BertzCT>
704.33

>  <nBonds>
45

>  <nBondsO>
24

>  <nBondsS>
32

>  <nBondsD>
1

>  <nBondsT>
0

>  <nBondsA>
12

>  <nBondsM>
13

>  <nBondsKS>
38

>  <nBondsKD>
7

>  <RNCG>
0.31

>  <RPCG>
0.08

>  <FCSP3>
0.26

>  <SZ>
26.33

>  <Sm>
24.59

>  <Sv>
26.88

>  <Sse>
42.65

>  <Sp>
29

>  <Si>
48.07

>  <MZ>
0.61

>  <Mm>
0.57

>  <Mv>
0.63

>  <Mse>
0.99

>  <Mp>
0.67

>  <Mi>
1.12

>  <NsCH3>
3

>  <NdCH2>
0

>  <NssCH2>
2

>  <NtCH>
0

>  <NdsCH>
1

>  <NaaCH>
7

>  <NsssCH>
0

>  <NddC>
0

>  <NtsC>
0

>  <NdssC>
1

>  <NaasC>
5

>  <NaaaC>
0

>  <NssssC>
0

>  <NsNH3>
0

>  <NsNH2>
0

>  <NssNH2>
0

>  <NdNH>
0

>  <NssNH>
0

>  <NaaNH>
0

>  <NtN>
0

>  <NsssNH>
0

>  <NdsN>
0

>  <NaaN>
0

>  <NsssN>
1

>  <NddsN>
0

>  <NaasN>
0

>  <NssssN>
0

>  <NsOH>
0

>  <NdO>
0

>  <NssO>
2

>  <NaaO>
0

>  <NsF>
0

>  <NsSiH3>
0

>  <NssSiH2>
0

>  <NsssSiH>
0

>  <NssssSi>
0

>  <NsPH2>
0

>  <NssPH>
0

>  <NsssP>
0

>  <NdsssP>
0

>  <NsssssP>
0

>  <NsSH>
0

>  <NdS>
0

>  <NssS>
0

>  <NaaS>
0

>  <NdssS>
0

>  <NddssS>
0

>  <NsCl>
0

>  <NsBr>
0

>  <NsI>
0

>  <fragCpx>
114.03

>  <fMF>
0.33

>  <nHBAcc>
3

>  <nHBDon>
0

>  <Kier1>
16.84

>  <Kier2>
7.71

>  <Lipinski>
1

>  <GhoseFilter>
1

>  <FilterItLogS>
-4.94

>  <VMcGowan>
237.61

>  <LabuteASA>
131.33

>  <PEOE_VSA1>
14.37

>  <PEOE_VSA2>
0

>  <PEOE_VSA3>
0

>  <PEOE_VSA4>
0

>  <PEOE_VSA5>
0

>  <PEOE_VSA6>
24.28

>  <PEOE_VSA7>
50.35

>  <PEOE_VSA8>
17.67

>  <PEOE_VSA9>
7.11

>  <PEOE_VSA10>
17.25

>  <PEOE_VSA11>
0

>  <PEOE_VSA12>
0

>  <PEOE_VSA13>
0

>  <SMR_VSA1>
9.47

>  <SMR_VSA2>
0

>  <SMR_VSA3>
4.9

>  <SMR_VSA4>
0

>  <SMR_VSA5>
6.42

>  <SMR_VSA6>
27.75

>  <SMR_VSA7>
59.67

>  <SMR_VSA8>
0

>  <SMR_VSA9>
17.25

>  <SlogP_VSA1>
9.47

>  <SlogP_VSA2>
32.65

>  <SlogP_VSA3>
0

>  <SlogP_VSA4>
0

>  <SlogP_VSA5>
17.55

>  <SlogP_VSA6>
48.54

>  <SlogP_VSA7>
0

>  <SlogP_VSA8>
5.57

>  <SlogP_VSA9>
0

>  <SlogP_VSA10>
0

>  <SlogP_VSA11>
17.25

>  <EState_VSA1>
0

>  <EState_VSA2>
0

>  <EState_VSA3>
0

>  <EState_VSA4>
41.34

>  <EState_VSA5>
5.57

>  <EState_VSA6>
7.11

>  <EState_VSA7>
36.4

>  <EState_VSA8>
31.14

>  <EState_VSA9>
9.47

>  <EState_VSA10>
0

>  <VSA_EState1>
11.4

>  <VSA_EState2>
2.19

>  <VSA_EState3>
0

>  <VSA_EState4>
3.46

>  <VSA_EState5>
2.65

>  <VSA_EState6>
14.14

>  <VSA_EState7>
3.28

>  <VSA_EState8>
1.02

>  <VSA_EState9>
5.87

>  <apol>
48.44

>  <bpol>
26.25

>  <nRing>
3

>  <nHRing>
1

>  <naRing>
2

>  <naHRing>
0

>  <nARing 2>
1

>  <nAHRing 2>
1

>  <nFRing>
1

>  <nFHRing>
1

>  <nFaRing>
0

>  <nFaHRing>
0

>  <nFARing 2>
1

>  <nFAHRing 2>
1

>  <nRot>
4

>  <SLogP>
4.18

>  <SMR>
89.76

>  <TopoPSA(NO)>
21.7

>  <TopoPSA>
21.7

>  <JGI1>
0.17

>  <JGI2>
0.07

>  <JGI3>
0.04

>  <JGI4>
0.04

>  <JGI5>
0.02

>  <Diameter>
10

>  <Radius>
5

>  <TMWC10>
120.47

>  <TSRW10>
56.22

>  <MW>
295.16

>  <AMW>
6.86

>  <WPath>
1024

>  <WPol>
35

>  <Zagreb1>
114

>  <Zagreb2>
134

>  <mZagreb2>
4.94

>  <yes>


>  <nAR-cont>
0.816016

>  <nHA-cont>
0.983774276

>  <MWHBN>
0.174619405

>  <MWHBN-cont>
0.980663099

>  <TPSA-cont>
0.848520525

>  <pka_cont>
0.97

>  <yes.1>


>  <BBB_SCORE>
5.452825975

>  <MMFF94 Energy>
86.414

$$$$
Compound 1549
Actelion Java MolfileCreator 2.0

  0  0  0  0  0  0              0 V3000
M  V30 BEGIN CTAB
M  V30 COUNTS 46 49 0 0 0
M  V30 BEGIN ATOM
M  V30 1 O 0.4788 1.6767 -2.316 0
M  V30 2 C -0.5432 1.851 -1.41 0
M  V30 3 C 0.288 0.6057 -3.1615 0
M  V30 4 C -0.8355 0.9111 -0.4109 0
M  V30 5 C -1.2729 3.0376 -1.5193 0
M  V30 6 C 0.2106 -0.7115 -2.6904 0
M  V30 7 C 0.2275 0.8847 -4.5297 0
M  V30 8 C -0.0318 -0.3307 -0.2063 0
M  V30 9 C -1.9342 1.1677 0.4361 0
M  V30 10 C -2.3397 3.2783 -0.6555 0
M  V30 11 C 0.3824 -1.0492 -1.27 0
M  V30 12 C 0.0582 -1.7475 -3.6225 0
M  V30 13 C 0.0619 -0.1541 -5.4437 0
M  V30 14 N 0.226 -0.7109 1.1192 0
M  V30 15 C -2.6833 2.3421 0.3202 0
M  V30 16 C -0.0255 -1.4692 -4.9902 0
M  V30 17 C 0.6562 0.2502 2.1603 0
M  V30 18 C 0.3529 -2.1077 1.5766 0
M  V30 19 O -3.7558 2.692 1.0947 0
M  V30 20 C 2.0948 -0.0759 2.6299 0
M  V30 21 C 1.7979 -2.3996 2.0378 0
M  V30 22 C -4.1607 1.7583 2.0884 0
M  V30 23 N 2.2464 -1.4725 3.1026 0
M  V30 24 C 3.6346 -1.7425 3.4696 0
M  V30 25 H -1.0193 3.7643 -2.2855 0
M  V30 26 H 0.3043 1.9108 -4.878 0
M  V30 27 H -2.1783 0.4228 1.1874 0
M  V30 28 H -2.9133 4.1971 -0.7483 0
M  V30 29 H 0.9514 -1.9585 -1.1044 0
M  V30 30 H 0.0025 -2.7817 -3.2907 0
M  V30 31 H 0.0054 0.0611 -6.5074 0
M  V30 32 H -0.1504 -2.2817 -5.7016 0
M  V30 33 H -0.0368 0.1927 3.0088 0
M  V30 34 H 0.6408 1.2836 1.7964 0
M  V30 35 H 0.0566 -2.8212 0.7998 0
M  V30 36 H -0.3381 -2.2651 2.4148 0
M  V30 37 H 2.3533 0.6123 3.4435 0
M  V30 38 H 2.7882 0.1188 1.8003 0
M  V30 39 H 1.8368 -3.429 2.4135 0
M  V30 40 H 2.4695 -2.3378 1.1711 0
M  V30 41 H -4.4688 0.8092 1.6373 0
M  V30 42 H -5.0289 2.1774 2.6063 0
M  V30 43 H -3.3714 1.6066 2.8321 0
M  V30 44 H 3.9541 -1.0748 4.2774 0
M  V30 45 H 4.3216 -1.6151 2.6252 0
M  V30 46 H 3.7388 -2.7658 3.8469 0
M  V30 END ATOM
M  V30 BEGIN BOND
M  V30 1 1 1 2
M  V30 2 1 1 3
M  V30 3 2 2 4
M  V30 4 1 2 5
M  V30 5 2 3 6
M  V30 6 1 3 7
M  V30 7 1 4 8
M  V30 8 1 4 9
M  V30 9 2 5 10
M  V30 10 1 6 11
M  V30 11 1 6 12
M  V30 12 2 7 13
M  V30 13 1 8 14
M  V30 14 2 9 15
M  V30 15 2 12 16
M  V30 16 1 14 17
M  V30 17 1 14 18
M  V30 18 1 15 19
M  V30 19 1 17 20
M  V30 20 1 18 21
M  V30 21 1 19 22
M  V30 22 1 20 23
M  V30 23 1 23 24
M  V30 24 2 8 11
M  V30 25 1 10 15
M  V30 26 1 13 16
M  V30 27 1 21 23
M  V30 28 1 5 25
M  V30 29 1 7 26
M  V30 30 1 9 27
M  V30 31 1 10 28
M  V30 32 1 11 29
M  V30 33 1 12 30
M  V30 34 1 13 31
M  V30 35 1 16 32
M  V30 36 1 17 33
M  V30 37 1 17 34
M  V30 38 1 18 35
M  V30 39 1 18 36
M  V30 40 1 20 37
M  V30 41 1 20 38
M  V30 42 1 21 39
M  V30 43 1 21 40
M  V30 44 1 22 41
M  V30 45 1 22 42
M  V30 46 1 22 43
M  V30 47 1 24 44
M  V30 48 1 24 45
M  V30 49 1 24 46
M  V30 END BOND
M  V30 END CTAB
M  END
>  <Column 1>
1879

>  <level_0>
2045

>  <index>
2045

>  <Unnamed: 0>
2045

>  <NO.>
2057

>  <Name>
metoxepin

>  <IUPAC_name>
1-(3-methoxybenzo[b][1]benzoxepin-5-yl)-4-methylpiperazine

>  <SMILES>
COc1ccc2c(c1)C(N1CCN(C)CC1)=Cc1ccccc1O2

>  <CID>
32226

>  <logBB>


>  <BBB+/BBB->
BBB+

>  <Inchi>
InChI=1S/C20H22N2O2/c1-21-9-11-22(12-10-21)18-13-15-5-3-4-6-19(15)24-20-8-7-16(23-2)14-17(18)20/h3-8-13-14H-9-12H2-1-2H3

>  <threshold>
-1

>  <reference>
R1|R13|R19|R6|R24|R27|R27|R27|R30|R30|

>  <group>
B

>  <Class>
1

>  <ABC>
19.04

>  <ABCGG>
14.51

>  <nAcid>
0

>  <nBase>
1

>  <nAromAtom>
12

>  <nAromBond>
12

>  <nAtom>
46

>  <nHeavyAtom>
24

>  <nSpiro>
0

>  <nBridgehead>
0

>  <nHetero>
4

>  <nN>
2

>  <nO>
2

>  <nF>
0

>  <BalabanJ>
1.55

>  <BertzCT>
776.96

>  <nBonds>
49

>  <nBondsO>
27

>  <nBondsS>
36

>  <nBondsD>
1

>  <nBondsT>
0

>  <nBondsA>
12

>  <nBondsM>
13

>  <nBondsKS>
42

>  <nBondsKD>
7

>  <RNCG>
0.26

>  <RPCG>
0.07

>  <FCSP3>
0.3

>  <SZ>
28.67

>  <Sm>
26.84

>  <Sv>
28.91

>  <Sse>
45.75

>  <Sp>
31.06

>  <Si>
51.57

>  <MZ>
0.62

>  <Mm>
0.58

>  <Mv>
0.63

>  <Mse>
0.99

>  <Mp>
0.68

>  <Mi>
1.12

>  <NsCH3>
2

>  <NdCH2>
0

>  <NssCH2>
4

>  <NtCH>
0

>  <NdsCH>
1

>  <NaaCH>
7

>  <NsssCH>
0

>  <NddC>
0

>  <NtsC>
0

>  <NdssC>
1

>  <NaasC>
5

>  <NaaaC>
0

>  <NssssC>
0

>  <NsNH3>
0

>  <NsNH2>
0

>  <NssNH2>
0

>  <NdNH>
0

>  <NssNH>
0

>  <NaaNH>
0

>  <NtN>
0

>  <NsssNH>
0

>  <NdsN>
0

>  <NaaN>
0

>  <NsssN>
2

>  <NddsN>
0

>  <NaasN>
0

>  <NssssN>
0

>  <NsOH>
0

>  <NdO>
0

>  <NssO>
2

>  <NaaO>
0

>  <NsF>
0

>  <NsSiH3>
0

>  <NssSiH2>
0

>  <NsssSiH>
0

>  <NssssSi>
0

>  <NsPH2>
0

>  <NssPH>
0

>  <NsssP>
0

>  <NdsssP>
0

>  <NsssssP>
0

>  <NsSH>
0

>  <NdS>
0

>  <NssS>
0

>  <NaaS>
0

>  <NdssS>
0

>  <NddssS>
0

>  <NsCl>
0

>  <NsBr>
0

>  <NsI>
0

>  <fragCpx>
177.04

>  <fMF>
0.46

>  <nHBAcc>
4

>  <nHBDon>
0

>  <Kier1>
17.42

>  <Kier2>
7.71

>  <Lipinski>
1

>  <GhoseFilter>
1

>  <FilterItLogS>
-4.17

>  <VMcGowan>
250.82

>  <LabuteASA>
142.45

>  <PEOE_VSA1>
19.27

>  <PEOE_VSA2>
0

>  <PEOE_VSA3>
0

>  <PEOE_VSA4>
0

>  <PEOE_VSA5>
0

>  <PEOE_VSA6>
18.2

>  <PEOE_VSA7>
37.39

>  <PEOE_VSA8>
43

>  <PEOE_VSA9>
7.11

>  <PEOE_VSA10>
17.25

>  <PEOE_VSA11>
0

>  <PEOE_VSA12>
0

>  <PEOE_VSA13>
0

>  <SMR_VSA1>
9.47

>  <SMR_VSA2>
0

>  <SMR_VSA3>
9.8

>  <SMR_VSA4>
0

>  <SMR_VSA5>
0

>  <SMR_VSA6>
40.34

>  <SMR_VSA7>
53.59

>  <SMR_VSA8>
0

>  <SMR_VSA9>
17.25

>  <SlogP_VSA1>
9.47

>  <SlogP_VSA2>
50.14

>  <SlogP_VSA3>
0

>  <SlogP_VSA4>
0

>  <SlogP_VSA5>
11.13

>  <SlogP_VSA6>
42.46

>  <SlogP_VSA7>
0

>  <SlogP_VSA8>
11.77

>  <SlogP_VSA9>
0

>  <SlogP_VSA10>
0

>  <SlogP_VSA11>
17.25

>  <EState_VSA1>
0

>  <EState_VSA2>
0

>  <EState_VSA3>
0

>  <EState_VSA4>
54.55

>  <EState_VSA5>
5.7

>  <EState_VSA6>
7.11

>  <EState_VSA7>
24.27

>  <EState_VSA8>
41.12

>  <EState_VSA9>
9.47

>  <EState_VSA10>
0

>  <VSA_EState1>
11.64

>  <VSA_EState2>
4.81

>  <VSA_EState3>
0

>  <VSA_EState4>
3.42

>  <VSA_EState5>
2.63

>  <VSA_EState6>
14.22

>  <VSA_EState7>
2.24

>  <VSA_EState8>
4.17

>  <VSA_EState9>
3.88

>  <apol>
51.87

>  <bpol>
28.96

>  <nRing>
4

>  <nHRing>
2

>  <naRing>
2

>  <naHRing>
0

>  <nARing 2>
2

>  <nAHRing 2>
2

>  <nFRing>
1

>  <nFHRing>
1

>  <nFaRing>
0

>  <nFaHRing>
0

>  <nFARing 2>
1

>  <nFAHRing 2>
1

>  <nRot>
2

>  <SLogP>
3.55

>  <SMR>
96.45

>  <TopoPSA(NO)>
24.94

>  <TopoPSA>
24.94

>  <JGI1>
0.17

>  <JGI2>
0.07

>  <JGI3>
0.03

>  <JGI4>
0.05

>  <JGI5>
0.02

>  <Diameter>
10

>  <Radius>
5

>  <TMWC10>
126.79

>  <TSRW10>
66.91

>  <MW>
322.17

>  <AMW>
7

>  <WPath>
1217

>  <WPol>
43

>  <Zagreb1>
130

>  <Zagreb2>
155

>  <mZagreb2>
5.28

>  <yes>


>  <nAR-cont>
1

>  <nHA-cont>
0.94700071

>  <MWHBN>
0.222852465

>  <MWHBN-cont>
0.993005991

>  <TPSA-cont>
0.825903313

>  <pka_cont>
0.97

>  <yes.1>


>  <BBB_SCORE>
5.573316323

>  <MMFF94 Energy>
150.35

$$$$
Compound 1550
Actelion Java MolfileCreator 2.0

  0  0  0  0  0  0              0 V3000
M  V30 BEGIN CTAB
M  V30 COUNTS 46 48 0 0 0
M  V30 BEGIN ATOM
M  V30 1 S -1.527 2.7337 -1.2053 0
M  V30 2 C -0.3567 2.8179 0.1281 0
M  V30 3 C -2.405 1.2346 -0.8314 0
M  V30 4 C 0.0423 1.6953 0.864 0
M  V30 5 C 0.1797 4.0784 0.4317 0
M  V30 6 C -1.8732 0.2208 -0.021 0
M  V30 7 C -3.6943 1.1002 -1.3724 0
M  V30 8 C 0.995 1.8807 1.8926 0
M  V30 9 C -0.4409 0.2859 0.5092 0 CFG=2
M  V30 10 C 1.1061 4.2413 1.4652 0
M  V30 11 C -2.6808 -0.9094 0.2407 0
M  V30 12 C -4.472 -0.0239 -1.1014 0
M  V30 13 C 1.5196 3.1387 2.2019 0
M  V30 14 O -0.3946 -0.495 1.7173 0
M  V30 15 C 0.5742 -0.3303 -0.494 0
M  V30 16 C -3.9658 -1.0288 -0.2893 0
M  V30 17 O 2.4224 3.1464 3.2277 0
M  V30 18 C 0.3651 -1.821 -0.8088 0
M  V30 19 C 2.9978 4.4011 3.57 0
M  V30 20 C 1.4943 -2.3501 -1.7073 0
M  V30 21 N 1.4143 -3.763 -2.1034 0
M  V30 22 C 0.2417 -4.0576 -2.9214 0
M  V30 23 C 1.5028 -4.675 -0.9667 0
M  V30 24 H -0.126 4.9549 -0.1371 0
M  V30 25 H -4.109 1.8828 -2.0049 0
M  V30 26 H 1.3571 1.0223 2.4582 0
M  V30 27 H 1.4845 5.2389 1.6601 0
M  V30 28 H -2.2972 -1.7269 0.8502 0
M  V30 29 H -5.4697 -0.111 -1.5234 0
M  V30 30 H -0.9652 -0.0314 2.3558 0
M  V30 31 H 1.5865 -0.2289 -0.0779 0
M  V30 32 H 0.5687 0.2349 -1.4354 0
M  V30 33 H -4.5627 -1.9118 -0.0754 0
M  V30 34 H 0.3329 -2.3908 0.1254 0
M  V30 35 H -0.5949 -1.9529 -1.3162 0
M  V30 36 H 3.5692 4.8149 2.7327 0
M  V30 37 H 3.6934 4.2351 4.3981 0
M  V30 38 H 2.2329 5.1053 3.9137 0
M  V30 39 H 1.5419 -1.7392 -2.6184 0
M  V30 40 H 2.4572 -2.1878 -1.2055 0
M  V30 41 H 0.1879 -3.3817 -3.7819 0
M  V30 42 H -0.6958 -3.981 -2.3605 0
M  V30 43 H 0.3083 -5.0735 -3.3268 0
M  V30 44 H 0.6244 -4.6245 -0.3145 0
M  V30 45 H 2.3941 -4.4625 -0.3661 0
M  V30 46 H 1.6021 -5.7085 -1.3171 0
M  V30 END ATOM
M  V30 BEGIN BOND
M  V30 1 1 1 2
M  V30 2 1 1 3
M  V30 3 2 2 4
M  V30 4 1 2 5
M  V30 5 2 3 6
M  V30 6 1 3 7
M  V30 7 1 4 8
M  V30 8 1 4 9
M  V30 9 2 5 10
M  V30 10 1 6 11
M  V30 11 2 7 12
M  V30 12 2 8 13
M  V30 13 1 9 14
M  V30 14 1 9 15
M  V30 15 2 11 16
M  V30 16 1 13 17
M  V30 17 1 15 18
M  V30 18 1 17 19
M  V30 19 1 18 20
M  V30 20 1 20 21
M  V30 21 1 21 22
M  V30 22 1 21 23
M  V30 23 1 6 9
M  V30 24 1 10 13
M  V30 25 1 12 16
M  V30 26 1 5 24
M  V30 27 1 7 25
M  V30 28 1 8 26
M  V30 29 1 10 27
M  V30 30 1 11 28
M  V30 31 1 12 29
M  V30 32 1 14 30
M  V30 33 1 15 31
M  V30 34 1 15 32
M  V30 35 1 16 33
M  V30 36 1 18 34
M  V30 37 1 18 35
M  V30 38 1 19 36
M  V30 39 1 19 37
M  V30 40 1 19 38
M  V30 41 1 20 39
M  V30 42 1 20 40
M  V30 43 1 22 41
M  V30 44 1 22 42
M  V30 45 1 22 43
M  V30 46 1 23 44
M  V30 47 1 23 45
M  V30 48 1 23 46
M  V30 END BOND
M  V30 BEGIN COLLECTION
M  V30 MDLV30/STERAC1 ATOMS=(1 9)
M  V30 END COLLECTION
M  V30 END CTAB
M  END
>  <Column 1>
1880

>  <level_0>
2046

>  <index>
2046

>  <Unnamed: 0>
2046

>  <NO.>
2058

>  <Name>
meprotixol

>  <IUPAC_name>
9-[3-(dimethylamino)propyl]-2-methoxythioxanthen-9-ol

>  <SMILES>
COc1ccc2c(c1)C(O)(CCCN(C)C)c1ccccc1S2

>  <CID>
71195

>  <logBB>


>  <BBB+/BBB->
BBB+

>  <Inchi>
InChI=1S/C19H23NO2S/c1-20(2)12-6-11-19(21)15-7-4-5-8-17(15)23-18-10-9-14(22-3)13-16(18)19/h4-5-7-10-13-21H-6-11-12H2-1-3H3

>  <threshold>
-1

>  <reference>
R1|R13|R19|R6|R27|R27|R30|

>  <group>
B

>  <Class>
1

>  <ABC>
17.85

>  <ABCGG>
14.38

>  <nAcid>
0

>  <nBase>
1

>  <nAromAtom>
12

>  <nAromBond>
12

>  <nAtom>
46

>  <nHeavyAtom>
23

>  <nSpiro>
0

>  <nBridgehead>
0

>  <nHetero>
4

>  <nN>
1

>  <nO>
2

>  <nF>
0

>  <BalabanJ>
1.78

>  <BertzCT>
701.52

>  <nBonds>
48

>  <nBondsO>
25

>  <nBondsS>
36

>  <nBondsD>
0

>  <nBondsT>
0

>  <nBondsA>
12

>  <nBondsM>
12

>  <nBondsKS>
42

>  <nBondsKD>
6

>  <RNCG>
0.3

>  <RPCG>
0.13

>  <FCSP3>
0.37

>  <SZ>
29.33

>  <Sm>
27.43

>  <Sv>
28.61

>  <Sse>
45.61

>  <Sp>
31.54

>  <Si>
51.41

>  <MZ>
0.64

>  <Mm>
0.6

>  <Mv>
0.62

>  <Mse>
0.99

>  <Mp>
0.69

>  <Mi>
1.12

>  <NsCH3>
3

>  <NdCH2>
0

>  <NssCH2>
3

>  <NtCH>
0

>  <NdsCH>
0

>  <NaaCH>
7

>  <NsssCH>
0

>  <NddC>
0

>  <NtsC>
0

>  <NdssC>
0

>  <NaasC>
5

>  <NaaaC>
0

>  <NssssC>
1

>  <NsNH3>
0

>  <NsNH2>
0

>  <NssNH2>
0

>  <NdNH>
0

>  <NssNH>
0

>  <NaaNH>
0

>  <NtN>
0

>  <NsssNH>
0

>  <NdsN>
0

>  <NaaN>
0

>  <NsssN>
1

>  <NddsN>
0

>  <NaasN>
0

>  <NssssN>
0

>  <NsOH>
1

>  <NdO>
0

>  <NssO>
1

>  <NaaO>
0

>  <NsF>
0

>  <NsSiH3>
0

>  <NssSiH2>
0

>  <NsssSiH>
0

>  <NssssSi>
0

>  <NsPH2>
0

>  <NssPH>
0

>  <NsssP>
0

>  <NdsssP>
0

>  <NsssssP>
0

>  <NsSH>
0

>  <NdS>
0

>  <NssS>
1

>  <NaaS>
0

>  <NdssS>
0

>  <NddssS>
0

>  <NsCl>
0

>  <NsBr>
0

>  <NsI>
0

>  <fragCpx>
119.04

>  <fMF>
0.3

>  <nHBAcc>
4

>  <nHBDon>
1

>  <Kier1>
17.81

>  <Kier2>
7.49

>  <Lipinski>
1

>  <GhoseFilter>
1

>  <FilterItLogS>
-5.08

>  <VMcGowan>
258.26

>  <LabuteASA>
141.83

>  <PEOE_VSA1>
14.74

>  <PEOE_VSA2>
0

>  <PEOE_VSA3>
0

>  <PEOE_VSA4>
0

>  <PEOE_VSA5>
0

>  <PEOE_VSA6>
29.96

>  <PEOE_VSA7>
57.75

>  <PEOE_VSA8>
20.92

>  <PEOE_VSA9>
7.11

>  <PEOE_VSA10>
11.35

>  <PEOE_VSA11>
0

>  <PEOE_VSA12>
0

>  <PEOE_VSA13>
0

>  <SMR_VSA1>
9.84

>  <SMR_VSA2>
0

>  <SMR_VSA3>
4.9

>  <SMR_VSA4>
0

>  <SMR_VSA5>
28.23

>  <SMR_VSA6>
27.75

>  <SMR_VSA7>
53.59

>  <SMR_VSA8>
0

>  <SMR_VSA9>
5.75

>  <SlogP_VSA1>
4.74

>  <SlogP_VSA2>
37.76

>  <SlogP_VSA3>
5.6

>  <SlogP_VSA4>
0

>  <SlogP_VSA5>
23.97

>  <SlogP_VSA6>
52.26

>  <SlogP_VSA7>
0

>  <SlogP_VSA8>
0

>  <SlogP_VSA9>
0

>  <SlogP_VSA10>
0

>  <SlogP_VSA11>
5.75

>  <EState_VSA1>
5.6

>  <EState_VSA2>
0

>  <EState_VSA3>
6.42

>  <EState_VSA4>
39.63

>  <EState_VSA5>
0

>  <EState_VSA6>
18.87

>  <EState_VSA7>
36.4

>  <EState_VSA8>
25.06

>  <EState_VSA9>
4.74

>  <EState_VSA10>
5.11

>  <VSA_EState1>
5.38

>  <VSA_EState2>
4.4

>  <VSA_EState3>
11.62

>  <VSA_EState4>
1.01

>  <VSA_EState5>
0.79

>  <VSA_EState6>
14.15

>  <VSA_EState7>
1.63

>  <VSA_EState8>
0.96

>  <VSA_EState9>
5.79

>  <apol>
52.67

>  <bpol>
28.98

>  <nRing>
3

>  <nHRing>
1

>  <naRing>
2

>  <naHRing>
0

>  <nARing 2>
1

>  <nAHRing 2>
1

>  <nFRing>
1

>  <nFHRing>
1

>  <nFaRing>
0

>  <nFaHRing>
0

>  <nFARing 2>
1

>  <nFAHRing 2>
1

>  <nRot>
5

>  <SLogP>
3.74

>  <SMR>
94.35

>  <TopoPSA(NO)>
32.7

>  <TopoPSA>
58

>  <JGI1>
0.22

>  <JGI2>
0.09

>  <JGI3>
0.05

>  <JGI4>
0.05

>  <JGI5>
0.03

>  <Diameter>
10

>  <Radius>
5

>  <TMWC10>
123.94

>  <TSRW10>
57.84

>  <MW>
329.14

>  <AMW>
7.16

>  <WPath>
1108

>  <WPol>
40

>  <Zagreb1>
122

>  <Zagreb2>
146

>  <mZagreb2>
5.1

>  <yes>


>  <nAR-cont>
0.816016

>  <nHA-cont>
0.967789328

>  <MWHBN>
0.275600291

>  <MWHBN-cont>
0.906975535

>  <TPSA-cont>
0.595123984

>  <pka_cont>
0.97

>  <yes.1>


>  <BBB_SCORE>
4.819516599

>  <MMFF94 Energy>
52.935

$$$$
Compound 1551
Actelion Java MolfileCreator 2.0

  0  0  0  0  0  0              0 V3000
M  V30 BEGIN CTAB
M  V30 COUNTS 38 40 0 0 0
M  V30 BEGIN ATOM
M  V30 1 Cl 1.7943 -3.2641 2.9374 0
M  V30 2 C 2.4607 -1.9167 2.0848 0
M  V30 3 C 3.8379 -1.7038 1.9802 0
M  V30 4 C 1.571 -1.0182 1.4862 0
M  V30 5 Cl 4.9994 -2.7667 2.6923 0
M  V30 6 C 4.3172 -0.5949 1.2782 0
M  V30 7 C 2.0409 0.101 0.777 0
M  V30 8 C 3.4263 0.301 0.6815 0
M  V30 9 C 1.0796 1.0906 0.1191 0 CFG=1
M  V30 10 C 0.1674 0.4317 -0.9058 0
M  V30 11 C 0.2804 1.9051 1.1735 0
M  V30 12 C -1.2189 0.3475 -0.6775 0
M  V30 13 C 0.7044 -0.1154 -2.08 0
M  V30 14 N -0.9116 1.1858 1.6557 0
M  V30 15 C -2.0438 -0.272 -1.6359 0
M  V30 16 C -1.854 0.977 0.5457 0
M  V30 17 C -0.1257 -0.7339 -3.015 0
M  V30 18 C -1.557 1.915 2.745 0
M  V30 19 C -1.501 -0.8186 -2.7995 0
M  V30 20 O -2.1972 -1.4457 -3.7958 0
M  V30 21 C -3.5919 -1.6292 -3.5898 0
M  V30 22 H 0.4993 -1.1921 1.5709 0
M  V30 23 H 5.3872 -0.422 1.1912 0
M  V30 24 H 3.8255 1.1561 0.1392 0
M  V30 25 H 1.6795 1.8278 -0.4342 0
M  V30 26 H 0.9412 2.1524 2.0148 0
M  V30 27 H -0.0274 2.8612 0.7258 0
M  V30 28 H 1.7741 -0.0706 -2.2706 0
M  V30 29 H -3.1119 -0.3107 -1.4468 0
M  V30 30 H -2.3073 1.9278 0.234 0
M  V30 31 H -2.6583 0.318 0.896 0
M  V30 32 H 0.3042 -1.158 -3.919 0
M  V30 33 H -2.428 1.3626 3.1147 0
M  V30 34 H -0.8715 2.0233 3.5927 0
M  V30 35 H -1.8864 2.9144 2.4388 0
M  V30 36 H -3.7848 -2.2314 -2.6958 0
M  V30 37 H -3.9879 -2.1759 -4.4509 0
M  V30 38 H -4.112 -0.667 -3.539 0
M  V30 END ATOM
M  V30 BEGIN BOND
M  V30 1 1 1 2
M  V30 2 2 2 3
M  V30 3 1 2 4
M  V30 4 1 3 5
M  V30 5 1 3 6
M  V30 6 2 4 7
M  V30 7 2 6 8
M  V30 8 1 7 9
M  V30 9 1 9 10
M  V30 10 1 9 11
M  V30 11 2 10 12
M  V30 12 1 10 13
M  V30 13 1 11 14
M  V30 14 1 12 15
M  V30 15 1 12 16
M  V30 16 2 13 17
M  V30 17 1 14 18
M  V30 18 2 15 19
M  V30 19 1 19 20
M  V30 20 1 20 21
M  V30 21 1 7 8
M  V30 22 1 14 16
M  V30 23 1 17 19
M  V30 24 1 4 22
M  V30 25 1 6 23
M  V30 26 1 8 24
M  V30 27 1 9 25
M  V30 28 1 11 26
M  V30 29 1 11 27
M  V30 30 1 13 28
M  V30 31 1 15 29
M  V30 32 1 16 30
M  V30 33 1 16 31
M  V30 34 1 17 32
M  V30 35 1 18 33
M  V30 36 1 18 34
M  V30 37 1 18 35
M  V30 38 1 21 36
M  V30 39 1 21 37
M  V30 40 1 21 38
M  V30 END BOND
M  V30 BEGIN COLLECTION
M  V30 MDLV30/STERAC1 ATOMS=(1 9)
M  V30 END COLLECTION
M  V30 END CTAB
M  END
>  <Column 1>
1881

>  <level_0>
2047

>  <index>
2047

>  <Unnamed: 0>
2047

>  <NO.>
2059

>  <Name>
diclofensine

>  <IUPAC_name>
4-(3-4-dichlorophenyl)-7-methoxy-2-methyl-3-4-dihydro-1h-isoquinoline

>  <SMILES>
COc1ccc2c(c1)CN(C)CC2c1ccc(Cl)c(Cl)c1

>  <CID>
68871

>  <logBB>


>  <BBB+/BBB->
BBB+

>  <Inchi>
InChI=1S/C17H17Cl2NO/c1-20-9-12-7-13(21-2)4-5-14(12)15(10-20)11-3-6-16(18)17(19)8-11/h3-8-15H-9-10H2-1-2H3

>  <threshold>
-1

>  <reference>
R1|R19|R6|R27|R27|R30|

>  <group>
B

>  <Class>
1

>  <ABC>
16.43

>  <ABCGG>
13.17

>  <nAcid>
0

>  <nBase>
1

>  <nAromAtom>
12

>  <nAromBond>
12

>  <nAtom>
38

>  <nHeavyAtom>
21

>  <nSpiro>
0

>  <nBridgehead>
0

>  <nHetero>
4

>  <nN>
1

>  <nO>
1

>  <nF>
0

>  <BalabanJ>
1.69

>  <BertzCT>
671.83

>  <nBonds>
40

>  <nBondsO>
23

>  <nBondsS>
28

>  <nBondsD>
0

>  <nBondsT>
0

>  <nBondsA>
12

>  <nBondsM>
12

>  <nBondsKS>
34

>  <nBondsKD>
6

>  <RNCG>
0.38

>  <RPCG>
0.09

>  <FCSP3>
0.29

>  <SZ>
28

>  <Sm>
26.83

>  <Sv>
25.26

>  <Sse>
38.07

>  <Sp>
27.54

>  <Si>
42.33

>  <MZ>
0.74

>  <Mm>
0.71

>  <Mv>
0.66

>  <Mse>
1

>  <Mp>
0.72

>  <Mi>
1.11

>  <NsCH3>
2

>  <NdCH2>
0

>  <NssCH2>
2

>  <NtCH>
0

>  <NdsCH>
0

>  <NaaCH>
6

>  <NsssCH>
1

>  <NddC>
0

>  <NtsC>
0

>  <NdssC>
0

>  <NaasC>
6

>  <NaaaC>
0

>  <NssssC>
0

>  <NsNH3>
0

>  <NsNH2>
0

>  <NssNH2>
0

>  <NdNH>
0

>  <NssNH>
0

>  <NaaNH>
0

>  <NtN>
0

>  <NsssNH>
0

>  <NdsN>
0

>  <NaaN>
0

>  <NsssN>
1

>  <NddsN>
0

>  <NaasN>
0

>  <NssssN>
0

>  <NsOH>
0

>  <NdO>
0

>  <NssO>
1

>  <NaaO>
0

>  <NsF>
0

>  <NsSiH3>
0

>  <NssSiH2>
0

>  <NsssSiH>
0

>  <NssssSi>
0

>  <NsPH2>
0

>  <NssPH>
0

>  <NsssP>
0

>  <NdsssP>
0

>  <NsssssP>
0

>  <NsSH>
0

>  <NdS>
0

>  <NssS>
0

>  <NaaS>
0

>  <NdssS>
0

>  <NddssS>
0

>  <NsCl>
2

>  <NsBr>
0

>  <NsI>
0

>  <fragCpx>
109.04

>  <fMF>
0.42

>  <nHBAcc>
2

>  <nHBDon>
0

>  <Kier1>
15.88

>  <Kier2>
6.63

>  <Lipinski>
1

>  <GhoseFilter>
1

>  <FilterItLogS>
-5.67

>  <VMcGowan>
232.34

>  <LabuteASA>
134.79

>  <PEOE_VSA1>
9.64

>  <PEOE_VSA2>
0

>  <PEOE_VSA3>
0

>  <PEOE_VSA4>
0

>  <PEOE_VSA5>
0

>  <PEOE_VSA6>
35.33

>  <PEOE_VSA7>
48

>  <PEOE_VSA8>
19.01

>  <PEOE_VSA9>
17.16

>  <PEOE_VSA10>
5.75

>  <PEOE_VSA11>
0

>  <PEOE_VSA12>
0

>  <PEOE_VSA13>
0

>  <SMR_VSA1>
4.74

>  <SMR_VSA2>
0

>  <SMR_VSA3>
4.9

>  <SMR_VSA4>
0

>  <SMR_VSA5>
12.46

>  <SMR_VSA6>
20.7

>  <SMR_VSA7>
63.13

>  <SMR_VSA8>
0

>  <SMR_VSA9>
5.75

>  <SlogP_VSA1>
4.74

>  <SlogP_VSA2>
25.6

>  <SlogP_VSA3>
6.54

>  <SlogP_VSA4>
0

>  <SlogP_VSA5>
22.61

>  <SlogP_VSA6>
36.4

>  <SlogP_VSA7>
10.05

>  <SlogP_VSA8>
0

>  <SlogP_VSA9>
0

>  <SlogP_VSA10>
0

>  <SlogP_VSA11>
5.75

>  <EState_VSA1>
0

>  <EState_VSA2>
0

>  <EState_VSA3>
15.96

>  <EState_VSA4>
18.84

>  <EState_VSA5>
16.69

>  <EState_VSA6>
7.11

>  <EState_VSA7>
18.2

>  <EState_VSA8>
30.15

>  <EState_VSA9>
27.94

>  <EState_VSA10>
0

>  <VSA_EState1>
5.33

>  <VSA_EState2>
2.31

>  <VSA_EState3>
1.21

>  <VSA_EState4>
3.84

>  <VSA_EState5>
1.2

>  <VSA_EState6>
12.21

>  <VSA_EState7>
0

>  <VSA_EState8>
1.9

>  <VSA_EState9>
3.83

>  <apol>
45.99

>  <bpol>
21.52

>  <nRing>
3

>  <nHRing>
1

>  <naRing>
2

>  <naHRing>
0

>  <nARing 2>
1

>  <nAHRing 2>
1

>  <nFRing>
1

>  <nFHRing>
1

>  <nFaRing>
0

>  <nFaHRing>
0

>  <nFARing 2>
1

>  <nFAHRing 2>
1

>  <nRot>
2

>  <SLogP>
4.58

>  <SMR>
87.63

>  <TopoPSA(NO)>
12.47

>  <TopoPSA>
12.47

>  <JGI1>
0.22

>  <JGI2>
0.08

>  <JGI3>
0.04

>  <JGI4>
0.05

>  <JGI5>
0.03

>  <Diameter>
11

>  <Radius>
6

>  <TMWC10>
118.39

>  <TSRW10>
55.21

>  <MW>
321.07

>  <AMW>
8.45

>  <WPath>
890

>  <WPol>
35

>  <Zagreb1>
112

>  <Zagreb2>
133

>  <mZagreb2>
4.61

>  <yes>


>  <nAR-cont>
0.816016

>  <nHA-cont>
0.994529749

>  <MWHBN>
0.111616945

>  <MWHBN-cont>
0.791073712

>  <TPSA-cont>
0.912951657

>  <pka_cont>
0.97

>  <yes.1>


>  <BBB_SCORE>
5.308059631

>  <MMFF94 Energy>
93.045

$$$$
Compound 1552
Actelion Java MolfileCreator 2.0

  0  0  0  0  0  0              0 V3000
M  V30 BEGIN CTAB
M  V30 COUNTS 55 58 0 0 0
M  V30 BEGIN ATOM
M  V30 1 S -0.8038 -2.9766 3.2988 0
M  V30 2 C 0.4015 -1.6828 3.0911 0
M  V30 3 C -2.3328 -2.0915 3.0697 0
M  V30 4 C 0.0931 -0.4281 2.5339 0
M  V30 5 C 1.7158 -1.9836 3.4875 0
M  V30 6 C -2.3933 -0.7928 2.5253 0
M  V30 7 C -3.5061 -2.7638 3.4579 0
M  V30 8 N -1.2232 -0.112 2.0994 0
M  V30 9 C 1.1462 0.5071 2.4424 0
M  V30 10 C 2.7394 -1.0442 3.3627 0
M  V30 11 C -3.6644 -0.1841 2.4689 0
M  V30 12 C -4.75 -2.1497 3.3502 0
M  V30 13 C -1.3437 0.784 0.9211 0
M  V30 14 C 2.4555 0.2112 2.844 0
M  V30 15 C -4.8276 -0.8525 2.8664 0
M  V30 16 C -0.7405 0.1699 -0.3695 0 CFG=2
M  V30 17 O 3.3496 1.2327 2.6729 0
M  V30 18 C -0.6511 1.2805 -1.445 0
M  V30 19 C -1.5768 -1.0175 -0.8615 0
M  V30 20 C 4.6863 0.9948 3.0971 0
M  V30 21 N -0.112 0.8493 -2.7498 0
M  V30 22 C -0.3188 1.9089 -3.753 0
M  V30 23 C 1.3111 0.479 -2.6636 0
M  V30 24 C 0.153 1.4655 -5.1344 0
M  V30 25 C 1.8398 -0.0047 -4.0123 0
M  V30 26 C 1.615 1.0426 -5.0943 0
M  V30 27 O 2.0078 0.527 -6.3629 0
M  V30 28 H 1.9505 -2.9616 3.9033 0
M  V30 29 H -3.452 -3.7735 3.8596 0
M  V30 30 H 0.9663 1.5104 2.0695 0
M  V30 31 H 3.7358 -1.326 3.6848 0
M  V30 32 H -3.7765 0.8475 2.1489 0
M  V30 33 H -5.6485 -2.676 3.6605 0
M  V30 34 H -2.3803 1.0538 0.696 0
M  V30 35 H -0.8717 1.7477 1.1453 0
M  V30 36 H -5.7896 -0.3498 2.8057 0
M  V30 37 H 0.2687 -0.1952 -0.1568 0
M  V30 38 H -0.0559 2.1183 -1.0566 0
M  V30 39 H -1.6683 1.667 -1.5983 0
M  V30 40 H -2.6074 -0.715 -1.076 0
M  V30 41 H -1.1547 -1.4503 -1.7741 0
M  V30 42 H -1.6052 -1.8176 -0.116 0
M  V30 43 H 4.7295 0.7901 4.172 0
M  V30 44 H 5.2638 1.905 2.9081 0
M  V30 45 H 5.1442 0.1843 2.5206 0
M  V30 46 H -1.3867 2.1496 -3.8245 0
M  V30 47 H 0.2033 2.8292 -3.4597 0
M  V30 48 H 1.9126 1.3274 -2.3119 0
M  V30 49 H 1.4542 -0.3395 -1.9509 0
M  V30 50 H -0.4689 0.6369 -5.4984 0
M  V30 51 H 0.0205 2.2777 -5.8593 0
M  V30 52 H 1.3488 -0.9461 -4.2929 0
M  V30 53 H 2.9088 -0.2381 -3.9379 0
M  V30 54 H 2.2442 1.9178 -4.8933 0
M  V30 55 H 1.4613 -0.2575 -6.5442 0
M  V30 END ATOM
M  V30 BEGIN BOND
M  V30 1 1 1 2
M  V30 2 1 1 3
M  V30 3 2 2 4
M  V30 4 1 2 5
M  V30 5 2 3 6
M  V30 6 1 3 7
M  V30 7 1 4 8
M  V30 8 1 4 9
M  V30 9 2 5 10
M  V30 10 1 6 11
M  V30 11 2 7 12
M  V30 12 1 8 13
M  V30 13 2 9 14
M  V30 14 2 11 15
M  V30 15 1 13 16
M  V30 16 1 14 17
M  V30 17 1 16 18
M  V30 18 1 16 19
M  V30 19 1 17 20
M  V30 20 1 18 21
M  V30 21 1 21 22
M  V30 22 1 21 23
M  V30 23 1 22 24
M  V30 24 1 23 25
M  V30 25 1 24 26
M  V30 26 1 26 27
M  V30 27 1 6 8
M  V30 28 1 10 14
M  V30 29 1 12 15
M  V30 30 1 25 26
M  V30 31 1 5 28
M  V30 32 1 7 29
M  V30 33 1 9 30
M  V30 34 1 10 31
M  V30 35 1 11 32
M  V30 36 1 12 33
M  V30 37 1 13 34
M  V30 38 1 13 35
M  V30 39 1 15 36
M  V30 40 1 16 37
M  V30 41 1 18 38
M  V30 42 1 18 39
M  V30 43 1 19 40
M  V30 44 1 19 41
M  V30 45 1 19 42
M  V30 46 1 20 43
M  V30 47 1 20 44
M  V30 48 1 20 45
M  V30 49 1 22 46
M  V30 50 1 22 47
M  V30 51 1 23 48
M  V30 52 1 23 49
M  V30 53 1 24 50
M  V30 54 1 24 51
M  V30 55 1 25 52
M  V30 56 1 25 53
M  V30 57 1 26 54
M  V30 58 1 27 55
M  V30 END BOND
M  V30 BEGIN COLLECTION
M  V30 MDLV30/STERAC1 ATOMS=(1 16)
M  V30 END COLLECTION
M  V30 END CTAB
M  END
>  <Column 1>
1882

>  <level_0>
2048

>  <index>
2048

>  <Unnamed: 0>
2048

>  <NO.>
2060

>  <Name>
perimetazine

>  <IUPAC_name>
1-[3-(2-methoxyphenothiazin-10-yl)-2-methylpropyl]piperidin-4-ol

>  <SMILES>
COc1ccc2c(c1)N(CC(C)CN1CCC(O)CC1)c1ccccc1S2

>  <CID>
62870

>  <logBB>


>  <BBB+/BBB->
BBB+

>  <Inchi>
InChI=1S/C22H28N2O2S/c1-16(14-23-11-9-17(25)10-12-23)15-24-19-5-3-4-6-21(19)27-22-8-7-18(26-2)13-20(22)24/h3-8-13-16-17-25H-9-12-14-15H2-1-2H3

>  <threshold>
-1

>  <reference>
R1|R19|R6|R27|R27|R30|

>  <group>
B

>  <Class>
1

>  <ABC>
21.27

>  <ABCGG>
15.95

>  <nAcid>
0

>  <nBase>
1

>  <nAromAtom>
12

>  <nAromBond>
12

>  <nAtom>
55

>  <nHeavyAtom>
27

>  <nSpiro>
0

>  <nBridgehead>
0

>  <nHetero>
5

>  <nN>
2

>  <nO>
2

>  <nF>
0

>  <BalabanJ>
1.41

>  <BertzCT>
789.63

>  <nBonds>
58

>  <nBondsO>
30

>  <nBondsS>
46

>  <nBondsD>
0

>  <nBondsT>
0

>  <nBondsA>
12

>  <nBondsM>
12

>  <nBondsKS>
52

>  <nBondsKD>
6

>  <RNCG>
0.25

>  <RPCG>
0.11

>  <FCSP3>
0.45

>  <SZ>
34.33

>  <Sm>
32.02

>  <Sv>
33.72

>  <Sse>
54.49

>  <Sp>
37.19

>  <Si>
61.73

>  <MZ>
0.62

>  <Mm>
0.58

>  <Mv>
0.61

>  <Mse>
0.99

>  <Mp>
0.68

>  <Mi>
1.12

>  <NsCH3>
2

>  <NdCH2>
0

>  <NssCH2>
6

>  <NtCH>
0

>  <NdsCH>
0

>  <NaaCH>
7

>  <NsssCH>
2

>  <NddC>
0

>  <NtsC>
0

>  <NdssC>
0

>  <NaasC>
5

>  <NaaaC>
0

>  <NssssC>
0

>  <NsNH3>
0

>  <NsNH2>
0

>  <NssNH2>
0

>  <NdNH>
0

>  <NssNH>
0

>  <NaaNH>
0

>  <NtN>
0

>  <NsssNH>
0

>  <NdsN>
0

>  <NaaN>
0

>  <NsssN>
2

>  <NddsN>
0

>  <NaasN>
0

>  <NssssN>
0

>  <NsOH>
1

>  <NdO>
0

>  <NssO>
1

>  <NaaO>
0

>  <NsF>
0

>  <NsSiH3>
0

>  <NssSiH2>
0

>  <NsssSiH>
0

>  <NssssSi>
0

>  <NsPH2>
0

>  <NssPH>
0

>  <NsssP>
0

>  <NdsssP>
0

>  <NsssssP>
0

>  <NsSH>
0

>  <NdS>
0

>  <NssS>
1

>  <NaaS>
0

>  <NdssS>
0

>  <NddssS>
0

>  <NsCl>
0

>  <NsBr>
0

>  <NsI>
0

>  <fragCpx>
198.05

>  <fMF>
0.42

>  <nHBAcc>
5

>  <nHBDon>
1

>  <Kier1>
20.28

>  <Kier2>
9.21

>  <Lipinski>
1

>  <GhoseFilter>
1

>  <FilterItLogS>
-4.52

>  <VMcGowan>
299.65

>  <LabuteASA>
165.68

>  <PEOE_VSA1>
19.64

>  <PEOE_VSA2>
0

>  <PEOE_VSA3>
0

>  <PEOE_VSA4>
0

>  <PEOE_VSA5>
0

>  <PEOE_VSA6>
30.82

>  <PEOE_VSA7>
43.03

>  <PEOE_VSA8>
42.04

>  <PEOE_VSA9>
24.59

>  <PEOE_VSA10>
5.75

>  <PEOE_VSA11>
0

>  <PEOE_VSA12>
0

>  <PEOE_VSA13>
0

>  <SMR_VSA1>
9.84

>  <SMR_VSA2>
0

>  <SMR_VSA3>
4.9

>  <SMR_VSA4>
5.92

>  <SMR_VSA5>
35.66

>  <SMR_VSA6>
38.19

>  <SMR_VSA7>
42.46

>  <SMR_VSA8>
0

>  <SMR_VSA9>
5.75

>  <SlogP_VSA1>
9.64

>  <SlogP_VSA2>
49.4

>  <SlogP_VSA3>
0

>  <SlogP_VSA4>
5.92

>  <SlogP_VSA5>
19.77

>  <SlogP_VSA6>
52.26

>  <SlogP_VSA7>
0

>  <SlogP_VSA8>
0

>  <SlogP_VSA9>
0

>  <SlogP_VSA10>
11.37

>  <SlogP_VSA11>
5.75

>  <EState_VSA1>
0

>  <EState_VSA2>
6.1

>  <EState_VSA3>
5.92

>  <EState_VSA4>
44.77

>  <EState_VSA5>
21.17

>  <EState_VSA6>
7.11

>  <EState_VSA7>
17.83

>  <EState_VSA8>
53.12

>  <EState_VSA9>
4.74

>  <EState_VSA10>
5.11

>  <VSA_EState1>
5.49

>  <VSA_EState2>
7.54

>  <VSA_EState3>
9.74

>  <VSA_EState4>
2.52

>  <VSA_EState5>
1.42

>  <VSA_EState6>
15.02

>  <VSA_EState7>
1.69

>  <VSA_EState8>
6.37

>  <VSA_EState9>
1.73

>  <apol>
62.11

>  <bpol>
35.71

>  <nRing>
4

>  <nHRing>
2

>  <naRing>
2

>  <naHRing>
0

>  <nARing 2>
2

>  <nAHRing 2>
2

>  <nFRing>
1

>  <nFHRing>
1

>  <nFaRing>
0

>  <nFaHRing>
0

>  <nFARing 2>
1

>  <nFAHRing 2>
1

>  <nRot>
5

>  <SLogP>
4.39

>  <SMR>
111.41

>  <TopoPSA(NO)>
35.94

>  <TopoPSA>
61.24

>  <JGI1>
0.18

>  <JGI2>
0.06

>  <JGI3>
0.04

>  <JGI4>
0.05

>  <JGI5>
0.02

>  <Diameter>
13

>  <Radius>
7

>  <TMWC10>
133.52

>  <TSRW10>
62.38

>  <MW>
384.19

>  <AMW>
6.99

>  <WPath>
1848

>  <WPol>
44

>  <Zagreb1>
144

>  <Zagreb2>
170

>  <mZagreb2>
5.94

>  <yes>


>  <nAR-cont>
1

>  <nHA-cont>
0.860070871

>  <MWHBN>
0.306110497

>  <MWHBN-cont>
0.822106325

>  <TPSA-cont>
0.572506772

>  <pka_cont>
0.97

>  <yes.1>


>  <BBB_SCORE>
4.723243903

>  <MMFF94 Energy>
73.237

$$$$
Compound 1553
Actelion Java MolfileCreator 2.0

  0  0  0  0  0  0              0 V3000
M  V30 BEGIN CTAB
M  V30 COUNTS 44 46 0 0 0
M  V30 BEGIN ATOM
M  V30 1 S -0.4009 2.568 -2.6483 0
M  V30 2 C 1.091 2.196 -1.7507 0
M  V30 3 C -1.1903 0.973 -2.73 0
M  V30 4 C 1.2892 0.9873 -1.0568 0
M  V30 5 C 2.0854 3.1859 -1.7471 0
M  V30 6 C -0.7895 -0.1211 -1.9388 0
M  V30 7 C -2.2742 0.853 -3.6176 0
M  V30 8 N 0.2864 -0.0195 -1.0156 0
M  V30 9 C 2.5418 0.7874 -0.4331 0
M  V30 10 C 3.2948 2.9756 -1.0889 0
M  V30 11 C -1.4812 -1.3365 -2.1185 0
M  V30 12 C -2.9551 -0.3536 -3.7547 0
M  V30 13 C 0.0513 -0.6473 0.3119 0
M  V30 14 C 3.5359 1.7707 -0.4383 0
M  V30 15 C -2.5525 -1.4523 -3.0095 0
M  V30 16 C -0.9015 0.2087 1.1593 0
M  V30 17 O 4.7703 1.674 0.1427 0
M  V30 18 C -1.0817 -0.3446 2.5779 0
M  V30 19 C 5.0819 0.4529 0.8011 0
M  V30 20 N -1.564 -1.7352 2.6325 0
M  V30 21 C -2.9373 -1.8564 2.1335 0
M  V30 22 C -1.4983 -2.2331 4.0104 0
M  V30 23 H 1.9277 4.128 -2.2675 0
M  V30 24 H -2.5898 1.7053 -4.2157 0
M  V30 25 H 2.7454 -0.1716 0.0271 0
M  V30 26 H 4.0582 3.7494 -1.1002 0
M  V30 27 H -1.1762 -2.2331 -1.5868 0
M  V30 28 H -3.7863 -0.4356 -4.4497 0
M  V30 29 H 0.9829 -0.7912 0.8683 0
M  V30 30 H -0.3429 -1.6622 0.2059 0
M  V30 31 H -3.0616 -2.4058 -3.1237 0
M  V30 32 H -1.8737 0.3082 0.6633 0
M  V30 33 H -0.5028 1.228 1.2415 0
M  V30 34 H -0.1033 -0.287 3.0733 0
M  V30 35 H -1.7533 0.3192 3.1384 0
M  V30 36 H 4.4013 0.2713 1.6396 0
M  V30 37 H 6.094 0.5413 1.2077 0
M  V30 38 H 5.0779 -0.3865 0.098 0
M  V30 39 H -2.9975 -1.5999 1.0713 0
M  V30 40 H -3.6363 -1.2187 2.6869 0
M  V30 41 H -3.2837 -2.8933 2.2126 0
M  V30 42 H -2.1301 -1.6509 4.6913 0
M  V30 43 H -0.4682 -2.202 4.3825 0
M  V30 44 H -1.8138 -3.2815 4.0567 0
M  V30 END ATOM
M  V30 BEGIN BOND
M  V30 1 1 1 2
M  V30 2 1 1 3
M  V30 3 2 2 4
M  V30 4 1 2 5
M  V30 5 2 3 6
M  V30 6 1 3 7
M  V30 7 1 4 8
M  V30 8 1 4 9
M  V30 9 2 5 10
M  V30 10 1 6 11
M  V30 11 2 7 12
M  V30 12 1 8 13
M  V30 13 2 9 14
M  V30 14 2 11 15
M  V30 15 1 13 16
M  V30 16 1 14 17
M  V30 17 1 16 18
M  V30 18 1 17 19
M  V30 19 1 18 20
M  V30 20 1 20 21
M  V30 21 1 20 22
M  V30 22 1 6 8
M  V30 23 1 10 14
M  V30 24 1 12 15
M  V30 25 1 5 23
M  V30 26 1 7 24
M  V30 27 1 9 25
M  V30 28 1 10 26
M  V30 29 1 11 27
M  V30 30 1 12 28
M  V30 31 1 13 29
M  V30 32 1 13 30
M  V30 33 1 15 31
M  V30 34 1 16 32
M  V30 35 1 16 33
M  V30 36 1 18 34
M  V30 37 1 18 35
M  V30 38 1 19 36
M  V30 39 1 19 37
M  V30 40 1 19 38
M  V30 41 1 21 39
M  V30 42 1 21 40
M  V30 43 1 21 41
M  V30 44 1 22 42
M  V30 45 1 22 43
M  V30 46 1 22 44
M  V30 END BOND
M  V30 END CTAB
M  END
>  <Column 1>
1884

>  <level_0>
2050

>  <index>
2050

>  <Unnamed: 0>
2050

>  <NO.>
2062

>  <Name>
methopromazine

>  <IUPAC_name>
3-(2-methoxyphenothiazin-10-yl)-n-n-dimethylpropan-1-amine

>  <SMILES>
COc1ccc2c(c1)N(CCCN(C)C)c1ccccc1S2

>  <CID>
18847

>  <logBB>


>  <BBB+/BBB->
BBB+

>  <Inchi>
InChI=1S/C18H22N2OS/c1-19(2)11-6-12-20-15-7-4-5-8-17(15)22-18-10-9-14(21-3)13-16(18)20/h4-5-7-10-13H-6-11-12H2-1-3H3

>  <threshold>
-1

>  <reference>
R1|R13|R19|R6|R24|R27|R27|R27|R30|R30|

>  <group>
B

>  <Class>
1

>  <ABC>
17.03

>  <ABCGG>
13.45

>  <nAcid>
0

>  <nBase>
1

>  <nAromAtom>
12

>  <nAromBond>
12

>  <nAtom>
44

>  <nHeavyAtom>
22

>  <nSpiro>
0

>  <nBridgehead>
0

>  <nHetero>
4

>  <nN>
2

>  <nO>
1

>  <nF>
0

>  <BalabanJ>
1.69

>  <BertzCT>
657.29

>  <nBonds>
46

>  <nBondsO>
24

>  <nBondsS>
34

>  <nBondsD>
0

>  <nBondsT>
0

>  <nBondsA>
12

>  <nBondsM>
12

>  <nBondsKS>
40

>  <nBondsKD>
6

>  <RNCG>
0.32

>  <RPCG>
0.08

>  <FCSP3>
0.33

>  <SZ>
28

>  <Sm>
26.18

>  <Sv>
27.38

>  <Sse>
43.5

>  <Sp>
30.32

>  <Si>
49.28

>  <MZ>
0.64

>  <Mm>
0.6

>  <Mv>
0.62

>  <Mse>
0.99

>  <Mp>
0.69

>  <Mi>
1.12

>  <NsCH3>
3

>  <NdCH2>
0

>  <NssCH2>
3

>  <NtCH>
0

>  <NdsCH>
0

>  <NaaCH>
7

>  <NsssCH>
0

>  <NddC>
0

>  <NtsC>
0

>  <NdssC>
0

>  <NaasC>
5

>  <NaaaC>
0

>  <NssssC>
0

>  <NsNH3>
0

>  <NsNH2>
0

>  <NssNH2>
0

>  <NdNH>
0

>  <NssNH>
0

>  <NaaNH>
0

>  <NtN>
0

>  <NsssNH>
0

>  <NdsN>
0

>  <NaaN>
0

>  <NsssN>
2

>  <NddsN>
0

>  <NaasN>
0

>  <NssssN>
0

>  <NsOH>
0

>  <NdO>
0

>  <NssO>
1

>  <NaaO>
0

>  <NsF>
0

>  <NsSiH3>
0

>  <NssSiH2>
0

>  <NsssSiH>
0

>  <NssssSi>
0

>  <NsPH2>
0

>  <NssPH>
0

>  <NsssP>
0

>  <NdsssP>
0

>  <NsssssP>
0

>  <NsSH>
0

>  <NdS>
0

>  <NssS>
1

>  <NaaS>
0

>  <NdssS>
0

>  <NddssS>
0

>  <NsCl>
0

>  <NsBr>
0

>  <NsI>
0

>  <fragCpx>
114.04

>  <fMF>
0.32

>  <nHBAcc>
4

>  <nHBDon>
0

>  <Kier1>
16.84

>  <Kier2>
7.71

>  <Lipinski>
1

>  <GhoseFilter>
1

>  <FilterItLogS>
-4.73

>  <VMcGowan>
248.28

>  <LabuteASA>
136.43

>  <PEOE_VSA1>
14.54

>  <PEOE_VSA2>
0

>  <PEOE_VSA3>
0

>  <PEOE_VSA4>
0

>  <PEOE_VSA5>
0

>  <PEOE_VSA6>
23.89

>  <PEOE_VSA7>
51.33

>  <PEOE_VSA8>
22.4

>  <PEOE_VSA9>
18.48

>  <PEOE_VSA10>
5.75

>  <PEOE_VSA11>
0

>  <PEOE_VSA12>
0

>  <PEOE_VSA13>
0

>  <SMR_VSA1>
4.74

>  <SMR_VSA2>
0

>  <SMR_VSA3>
4.9

>  <SMR_VSA4>
0

>  <SMR_VSA5>
16.21

>  <SMR_VSA6>
39.19

>  <SMR_VSA7>
42.46

>  <SMR_VSA8>
0

>  <SMR_VSA9>
5.75

>  <SlogP_VSA1>
9.64

>  <SlogP_VSA2>
39.19

>  <SlogP_VSA3>
0

>  <SlogP_VSA4>
0

>  <SlogP_VSA5>
6.42

>  <SlogP_VSA6>
52.26

>  <SlogP_VSA7>
0

>  <SlogP_VSA8>
0

>  <SlogP_VSA9>
0

>  <SlogP_VSA10>
11.37

>  <SlogP_VSA11>
5.75

>  <EState_VSA1>
0

>  <EState_VSA2>
0

>  <EState_VSA3>
0

>  <EState_VSA4>
25.26

>  <EState_VSA5>
21.17

>  <EState_VSA6>
7.11

>  <EState_VSA7>
17.83

>  <EState_VSA8>
60.29

>  <EState_VSA9>
4.74

>  <EState_VSA10>
0

>  <VSA_EState1>
5.42

>  <VSA_EState2>
7.28

>  <VSA_EState3>
0

>  <VSA_EState4>
2.55

>  <VSA_EState5>
0.91

>  <VSA_EState6>
14.98

>  <VSA_EState7>
1.13

>  <VSA_EState8>
2.1

>  <VSA_EState9>
5.97

>  <apol>
50.63

>  <bpol>
29.69

>  <nRing>
3

>  <nHRing>
1

>  <naRing>
2

>  <naHRing>
0

>  <nARing 2>
1

>  <nAHRing 2>
1

>  <nFRing>
1

>  <nFHRing>
1

>  <nFaRing>
0

>  <nFaHRing>
0

>  <nFARing 2>
1

>  <nFAHRing 2>
1

>  <nRot>
5

>  <SLogP>
4.25

>  <SMR>
93.74

>  <TopoPSA(NO)>
15.71

>  <TopoPSA>
41.01

>  <JGI1>
0.17

>  <JGI2>
0.07

>  <JGI3>
0.04

>  <JGI4>
0.04

>  <JGI5>
0.02

>  <Diameter>
10

>  <Radius>
5

>  <TMWC10>
120.47

>  <TSRW10>
56.22

>  <MW>
314.15

>  <AMW>
7.14

>  <WPath>
1024

>  <WPol>
35

>  <Zagreb1>
114

>  <Zagreb2>
134

>  <mZagreb2>
4.94

>  <yes>


>  <nAR-cont>
0.816016

>  <nHA-cont>
0.983774276

>  <MWHBN>
0.225679161

>  <MWHBN-cont>
0.990765896

>  <TPSA-cont>
0.713724734

>  <pka_cont>
0.97

>  <yes.1>


>  <BBB_SCORE>
5.198388588

>  <MMFF94 Energy>
73.969

$$$$
Compound 1554
Actelion Java MolfileCreator 2.0

  0  0  0  0  0  0              0 V3000
M  V30 BEGIN CTAB
M  V30 COUNTS 47 49 0 0 0
M  V30 BEGIN ATOM
M  V30 1 S -1.0413 -3.849 1.2817 0
M  V30 2 C 0.4258 -3.2166 0.5129 0
M  V30 3 C -1.8784 -2.3715 1.7901 0
M  V30 4 C 0.7353 -1.8468 0.4013 0
M  V30 5 C 1.291 -4.2065 0.0018 0
M  V30 6 C -1.3796 -1.0697 1.5815 0
M  V30 7 C -3.1113 -2.588 2.4427 0
M  V30 8 N -0.1297 -0.8343 0.9207 0
M  V30 9 C 1.9523 -1.5553 -0.2605 0
M  V30 10 C 2.481 -3.8729 -0.6361 0
M  V30 11 C -2.1946 -0.0188 2.0707 0
M  V30 12 C -3.8793 -1.5276 2.905 0
M  V30 13 C 0.3035 0.583 0.8045 0
M  V30 14 C 2.8157 -2.5381 -0.7727 0
M  V30 15 C -3.4182 -0.238 2.718 0
M  V30 16 C -0.3843 1.342 -0.361 0 CFG=1
M  V30 17 O 3.9417 -2.0491 -1.378 0
M  V30 18 C -0.1235 2.8581 -0.174 0
M  V30 19 C 0.0921 0.8657 -1.7366 0
M  V30 20 C 4.8379 -3.0021 -1.9361 0
M  V30 21 N -0.7257 3.7281 -1.1997 0
M  V30 22 C -0.2332 5.1004 -1.0513 0
M  V30 23 C -2.1891 3.7198 -1.1437 0
M  V30 24 H 1.0341 -5.2601 0.1004 0
M  V30 25 H -3.4798 -3.6011 2.5944 0
M  V30 26 H 2.2841 -0.5376 -0.4273 0
M  V30 27 H 3.109 -4.673 -1.0103 0
M  V30 28 H -1.9153 1.0233 1.9631 0
M  V30 29 H -4.826 -1.7109 3.4049 0
M  V30 30 H 1.389 0.6985 0.736 0
M  V30 31 H 0.1115 1.095 1.7569 0
M  V30 32 H -4.0038 0.607 3.0712 0
M  V30 33 H -1.4629 1.1603 -0.3148 0
M  V30 34 H 0.9652 3.0057 -0.1863 0
M  V30 35 H -0.4678 3.168 0.8222 0
M  V30 36 H 1.1659 1.0333 -1.8668 0
M  V30 37 H -0.1156 -0.1984 -1.881 0
M  V30 38 H -0.427 1.3972 -2.541 0
M  V30 39 H 5.2499 -3.6569 -1.1611 0
M  V30 40 H 5.6711 -2.4535 -2.3859 0
M  V30 41 H 4.3542 -3.5821 -2.729 0
M  V30 42 H 0.8573 5.1323 -1.1529 0
M  V30 43 H -0.5032 5.5335 -0.0812 0
M  V30 44 H -0.6372 5.7432 -1.8415 0
M  V30 45 H -2.5664 4.0242 -0.1607 0
M  V30 46 H -2.5909 2.7298 -1.3799 0
M  V30 47 H -2.6064 4.3997 -1.8956 0
M  V30 END ATOM
M  V30 BEGIN BOND
M  V30 1 1 1 2
M  V30 2 1 1 3
M  V30 3 2 2 4
M  V30 4 1 2 5
M  V30 5 2 3 6
M  V30 6 1 3 7
M  V30 7 1 4 8
M  V30 8 1 4 9
M  V30 9 2 5 10
M  V30 10 1 6 11
M  V30 11 2 7 12
M  V30 12 1 8 13
M  V30 13 2 9 14
M  V30 14 2 11 15
M  V30 15 1 13 16
M  V30 16 1 14 17
M  V30 17 1 16 18
M  V30 18 1 16 19
M  V30 19 1 17 20
M  V30 20 1 18 21
M  V30 21 1 21 22
M  V30 22 1 21 23
M  V30 23 1 6 8
M  V30 24 1 10 14
M  V30 25 1 12 15
M  V30 26 1 5 24
M  V30 27 1 7 25
M  V30 28 1 9 26
M  V30 29 1 10 27
M  V30 30 1 11 28
M  V30 31 1 12 29
M  V30 32 1 13 30
M  V30 33 1 13 31
M  V30 34 1 15 32
M  V30 35 1 16 33
M  V30 36 1 18 34
M  V30 37 1 18 35
M  V30 38 1 19 36
M  V30 39 1 19 37
M  V30 40 1 19 38
M  V30 41 1 20 39
M  V30 42 1 20 40
M  V30 43 1 20 41
M  V30 44 1 22 42
M  V30 45 1 22 43
M  V30 46 1 22 44
M  V30 47 1 23 45
M  V30 48 1 23 46
M  V30 49 1 23 47
M  V30 END BOND
M  V30 BEGIN COLLECTION
M  V30 MDLV30/STEABS ATOMS=(1 16)
M  V30 END COLLECTION
M  V30 END CTAB
M  END
>  <Column 1>
1885

>  <level_0>
2051

>  <index>
2051

>  <Unnamed: 0>
2051

>  <NO.>
2063

>  <Name>
methotrimeprazine

>  <IUPAC_name>
(2r)-3-(2-methoxyphenothiazin-10-yl)-n-n-2-trimethylpropan-1-amine

>  <SMILES>
COc1ccc2c(c1)N(C[C@H](C)CN(C)C)c1ccccc1S2

>  <CID>
72287

>  <logBB>


>  <BBB+/BBB->
BBB+

>  <Inchi>
InChI=1S/C19H24N2OS/c1-14(12-20(2)3)13-21-16-7-5-6-8-18(16)23-19-10-9-15(22-4)11-17(19)21/h5-11-14H-12-13H2-1-4H3/t14-/m1/s1

>  <threshold>
-1

>  <reference>
R1|R1|R27|R27|R27|R30|R30|R30|

>  <group>
B

>  <Class>
1

>  <ABC>
17.84

>  <ABCGG>
14.33

>  <nAcid>
0

>  <nBase>
1

>  <nAromAtom>
12

>  <nAromBond>
12

>  <nAtom>
47

>  <nHeavyAtom>
23

>  <nSpiro>
0

>  <nBridgehead>
0

>  <nHetero>
4

>  <nN>
2

>  <nO>
1

>  <nF>
0

>  <BalabanJ>
1.74

>  <BertzCT>
686.82

>  <nBonds>
49

>  <nBondsO>
25

>  <nBondsS>
37

>  <nBondsD>
0

>  <nBondsT>
0

>  <nBondsA>
12

>  <nBondsM>
12

>  <nBondsKS>
43

>  <nBondsKD>
6

>  <RNCG>
0.31

>  <RPCG>
0.08

>  <FCSP3>
0.37

>  <SZ>
29.33

>  <Sm>
27.35

>  <Sv>
28.92

>  <Sse>
46.39

>  <Sp>
32.12

>  <Si>
52.69

>  <MZ>
0.62

>  <Mm>
0.58

>  <Mv>
0.62

>  <Mse>
0.99

>  <Mp>
0.68

>  <Mi>
1.12

>  <NsCH3>
4

>  <NdCH2>
0

>  <NssCH2>
2

>  <NtCH>
0

>  <NdsCH>
0

>  <NaaCH>
7

>  <NsssCH>
1

>  <NddC>
0

>  <NtsC>
0

>  <NdssC>
0

>  <NaasC>
5

>  <NaaaC>
0

>  <NssssC>
0

>  <NsNH3>
0

>  <NsNH2>
0

>  <NssNH2>
0

>  <NdNH>
0

>  <NssNH>
0

>  <NaaNH>
0

>  <NtN>
0

>  <NsssNH>
0

>  <NdsN>
0

>  <NaaN>
0

>  <NsssN>
2

>  <NddsN>
0

>  <NaasN>
0

>  <NssssN>
0

>  <NsOH>
0

>  <NdO>
0

>  <NssO>
1

>  <NaaO>
0

>  <NsF>
0

>  <NsSiH3>
0

>  <NssSiH2>
0

>  <NsssSiH>
0

>  <NssssSi>
0

>  <NsPH2>
0

>  <NssPH>
0

>  <NsssP>
0

>  <NdsssP>
0

>  <NsssssP>
0

>  <NsSH>
0

>  <NdS>
0

>  <NssS>
1

>  <NaaS>
0

>  <NdssS>
0

>  <NddssS>
0

>  <NsCl>
0

>  <NsBr>
0

>  <NsI>
0

>  <fragCpx>
119.04

>  <fMF>
0.3

>  <nHBAcc>
4

>  <nHBDon>
0

>  <Kier1>
17.81

>  <Kier2>
7.92

>  <Lipinski>
1

>  <GhoseFilter>
1

>  <FilterItLogS>
-4.75

>  <VMcGowan>
262.37

>  <LabuteASA>
142.79

>  <PEOE_VSA1>
14.54

>  <PEOE_VSA2>
0

>  <PEOE_VSA3>
0

>  <PEOE_VSA4>
0

>  <PEOE_VSA5>
0

>  <PEOE_VSA6>
30.82

>  <PEOE_VSA7>
44.28

>  <PEOE_VSA8>
28.95

>  <PEOE_VSA9>
18.48

>  <PEOE_VSA10>
5.75

>  <PEOE_VSA11>
0

>  <PEOE_VSA12>
0

>  <PEOE_VSA13>
0

>  <SMR_VSA1>
4.74

>  <SMR_VSA2>
0

>  <SMR_VSA3>
4.9

>  <SMR_VSA4>
5.92

>  <SMR_VSA5>
16.71

>  <SMR_VSA6>
39.19

>  <SMR_VSA7>
42.46

>  <SMR_VSA8>
0

>  <SMR_VSA9>
5.75

>  <SlogP_VSA1>
9.64

>  <SlogP_VSA2>
39.19

>  <SlogP_VSA3>
0

>  <SlogP_VSA4>
5.92

>  <SlogP_VSA5>
6.92

>  <SlogP_VSA6>
52.26

>  <SlogP_VSA7>
0

>  <SlogP_VSA8>
0

>  <SlogP_VSA9>
0

>  <SlogP_VSA10>
11.37

>  <SlogP_VSA11>
5.75

>  <EState_VSA1>
0

>  <EState_VSA2>
0

>  <EState_VSA3>
5.92

>  <EState_VSA4>
18.84

>  <EState_VSA5>
21.17

>  <EState_VSA6>
7.11

>  <EState_VSA7>
17.83

>  <EState_VSA8>
67.22

>  <EState_VSA9>
4.74

>  <EState_VSA10>
0

>  <VSA_EState1>
5.44

>  <VSA_EState2>
7.31

>  <VSA_EState3>
0

>  <VSA_EState4>
2.54

>  <VSA_EState5>
1.48

>  <VSA_EState6>
15.01

>  <VSA_EState7>
0

>  <VSA_EState8>
4.38

>  <VSA_EState9>
5.99

>  <apol>
53.64

>  <bpol>
31.69

>  <nRing>
3

>  <nHRing>
1

>  <naRing>
2

>  <naHRing>
0

>  <nARing 2>
1

>  <nAHRing 2>
1

>  <nFRing>
1

>  <nFHRing>
1

>  <nFaRing>
0

>  <nFaHRing>
0

>  <nFARing 2>
1

>  <nFAHRing 2>
1

>  <nRot>
5

>  <SLogP>
4.5

>  <SMR>
98.28

>  <TopoPSA(NO)>
15.71

>  <TopoPSA>
41.01

>  <JGI1>
0.2

>  <JGI2>
0.06

>  <JGI3>
0.04

>  <JGI4>
0.04

>  <JGI5>
0.02

>  <Diameter>
10

>  <Radius>
5

>  <TMWC10>
123.02

>  <TSRW10>
57.49

>  <MW>
328.16

>  <AMW>
6.98

>  <WPath>
1130

>  <WPol>
37

>  <Zagreb1>
120

>  <Zagreb2>
141

>  <mZagreb2>
5.11

>  <yes>


>  <nAR-cont>
0.816016

>  <nHA-cont>
0.967789328

>  <MWHBN>
0.220809203

>  <MWHBN-cont>
0.994437927

>  <TPSA-cont>
0.713724734

>  <pka_cont>
0.97

>  <yes.1>


>  <BBB_SCORE>
5.187911687

>  <MMFF94 Energy>
81.115

$$$$
Compound 1555
Actelion Java MolfileCreator 2.0

  0  0  0  0  0  0              0 V3000
M  V30 BEGIN CTAB
M  V30 COUNTS 36 39 0 0 0
M  V30 BEGIN ATOM
M  V30 1 O -4.8843 -0.7994 0.3197 0
M  V30 2 C -3.5884 -0.4778 0.012 0
M  V30 3 C -5.0932 -1.5547 1.5061 0
M  V30 4 C -2.4613 -0.8235 0.766 0
M  V30 5 C -3.4412 0.258 -1.1648 0
M  V30 6 C -1.1796 -0.4266 0.3275 0
M  V30 7 C -2.1863 0.672 -1.6244 0
M  V30 8 C -1.067 0.3217 -0.8606 0
M  V30 9 C 0.1355 -0.6022 0.8366 0
M  V30 10 N 0.2696 0.5825 -1.0365 0
M  V30 11 C 0.9867 0.0109 -0.0361 0
M  V30 12 C 0.7182 -1.231 2.0414 0
M  V30 13 C 0.9543 1.3197 -2.0819 0
M  V30 14 C 2.4111 0.1061 0.0948 0
M  V30 15 C 2.1937 -1.6088 1.7613 0
M  V30 16 C 2.2744 1.9314 -1.5592 0
M  V30 17 N 3.0008 -0.61 0.9983 0
M  V30 18 N 3.0674 0.9837 -0.7541 0
M  V30 19 C 4.4865 1.2389 -0.6054 0
M  V30 20 H -4.6028 -2.5317 1.444 0
M  V30 21 H -6.169 -1.7288 1.6062 0
M  V30 22 H -4.7627 -1.0003 2.3906 0
M  V30 23 H -2.5349 -1.3932 1.6838 0
M  V30 24 H -4.3268 0.5183 -1.7411 0
M  V30 25 H -2.0971 1.244 -2.5414 0
M  V30 26 H 0.1551 -2.1202 2.343 0
M  V30 27 H 0.6796 -0.5131 2.8696 0
M  V30 28 H 1.1535 0.6024 -2.886 0
M  V30 29 H 0.29 2.1048 -2.4549 0
M  V30 30 H 2.6966 -1.7926 2.7173 0
M  V30 31 H 2.2288 -2.5526 1.2022 0
M  V30 32 H 2.0463 2.8027 -0.9322 0
M  V30 33 H 2.8569 2.29 -2.4154 0
M  V30 34 H 4.6691 1.8708 0.2697 0
M  V30 35 H 4.893 1.748 -1.4855 0
M  V30 36 H 5.0448 0.3044 -0.4871 0
M  V30 END ATOM
M  V30 BEGIN BOND
M  V30 1 1 1 2
M  V30 2 1 1 3
M  V30 3 2 2 4
M  V30 4 1 2 5
M  V30 5 1 4 6
M  V30 6 2 5 7
M  V30 7 2 6 8
M  V30 8 1 6 9
M  V30 9 1 8 10
M  V30 10 2 9 11
M  V30 11 1 9 12
M  V30 12 1 10 13
M  V30 13 1 11 14
M  V30 14 1 12 15
M  V30 15 1 13 16
M  V30 16 2 14 17
M  V30 17 1 14 18
M  V30 18 1 18 19
M  V30 19 1 7 8
M  V30 20 1 10 11
M  V30 21 1 15 17
M  V30 22 1 16 18
M  V30 23 1 3 20
M  V30 24 1 3 21
M  V30 25 1 3 22
M  V30 26 1 4 23
M  V30 27 1 5 24
M  V30 28 1 7 25
M  V30 29 1 12 26
M  V30 30 1 12 27
M  V30 31 1 13 28
M  V30 32 1 13 29
M  V30 33 1 15 30
M  V30 34 1 15 31
M  V30 35 1 16 32
M  V30 36 1 16 33
M  V30 37 1 19 34
M  V30 38 1 19 35
M  V30 39 1 19 36
M  V30 END BOND
M  V30 END CTAB
M  END
>  <Column 1>
1886

>  <level_0>
2052

>  <index>
2052

>  <Unnamed: 0>
2052

>  <NO.>
2064

>  <Name>
metralindole

>  <IUPAC_name>
12-methoxy-4-methyl-1-4-6-triazatetracyclo[7.6.1.05-16.010-15]hexadeca-5-9(16)-10(15)-11-13-pentaene

>  <SMILES>
COc1ccc2c(c1)c1c3n2CCN(C)C3=NCC1

>  <CID>
68713

>  <logBB>


>  <BBB+/BBB->
BBB+

>  <Inchi>
InChI=1S/C15H17N3O/c1-17-7-8-18-13-4-3-10(19-2)9-12(13)11-5-6-16-15(17)14(11)18/h3-4-9H-5-8H2-1-2H3

>  <threshold>
-1

>  <reference>
R1|R13|R19|R6|R24|R27|R27|R27|R30|R30|

>  <group>
B

>  <Class>
1

>  <ABC>
15.38

>  <ABCGG>
12.15

>  <nAcid>
0

>  <nBase>
2

>  <nAromAtom>
9

>  <nAromBond>
10

>  <nAtom>
36

>  <nHeavyAtom>
19

>  <nSpiro>
0

>  <nBridgehead>
0

>  <nHetero>
4

>  <nN>
3

>  <nO>
1

>  <nF>
0

>  <BalabanJ>
1.62

>  <BertzCT>
698.97

>  <nBonds>
39

>  <nBondsO>
22

>  <nBondsS>
28

>  <nBondsD>
1

>  <nBondsT>
0

>  <nBondsA>
10

>  <nBondsM>
11

>  <nBondsKS>
34

>  <nBondsKD>
5

>  <RNCG>
0.32

>  <RPCG>
0.1

>  <FCSP3>
0.4

>  <SZ>
22.67

>  <Sm>
21.26

>  <Sv>
22.59

>  <Sse>
35.87

>  <Sp>
24.24

>  <Si>
40.61

>  <MZ>
0.63

>  <Mm>
0.59

>  <Mv>
0.63

>  <Mse>
1

>  <Mp>
0.67

>  <Mi>
1.13

>  <NsCH3>
2

>  <NdCH2>
0

>  <NssCH2>
4

>  <NtCH>
0

>  <NdsCH>
0

>  <NaaCH>
3

>  <NsssCH>
0

>  <NddC>
0

>  <NtsC>
0

>  <NdssC>
1

>  <NaasC>
3

>  <NaaaC>
2

>  <NssssC>
0

>  <NsNH3>
0

>  <NsNH2>
0

>  <NssNH2>
0

>  <NdNH>
0

>  <NssNH>
0

>  <NaaNH>
0

>  <NtN>
0

>  <NsssNH>
0

>  <NdsN>
1

>  <NaaN>
0

>  <NsssN>
1

>  <NddsN>
0

>  <NaasN>
1

>  <NssssN>
0

>  <NsOH>
0

>  <NdO>
0

>  <NssO>
1

>  <NaaO>
0

>  <NsF>
0

>  <NsSiH3>
0

>  <NssSiH2>
0

>  <NsssSiH>
0

>  <NssssSi>
0

>  <NsPH2>
0

>  <NssPH>
0

>  <NsssP>
0

>  <NdsssP>
0

>  <NsssssP>
0

>  <NsSH>
0

>  <NdS>
0

>  <NssS>
0

>  <NaaS>
0

>  <NdssS>
0

>  <NddssS>
0

>  <NsCl>
0

>  <NsBr>
0

>  <NsI>
0

>  <fragCpx>
142.04

>  <fMF>
0.44

>  <nHBAcc>
4

>  <nHBDon>
0

>  <Kier1>
12.72

>  <Kier2>
4.78

>  <Lipinski>
1

>  <GhoseFilter>
1

>  <FilterItLogS>
-3.27

>  <VMcGowan>
193.08

>  <LabuteASA>
111.84

>  <PEOE_VSA1>
14.2

>  <PEOE_VSA2>
4.99

>  <PEOE_VSA3>
0

>  <PEOE_VSA4>
0

>  <PEOE_VSA5>
0

>  <PEOE_VSA6>
0

>  <PEOE_VSA7>
30.18

>  <PEOE_VSA8>
37.58

>  <PEOE_VSA9>
12.8

>  <PEOE_VSA10>
11.59

>  <PEOE_VSA11>
0

>  <PEOE_VSA12>
0

>  <PEOE_VSA13>
0

>  <SMR_VSA1>
4.74

>  <SMR_VSA2>
0

>  <SMR_VSA3>
9.47

>  <SMR_VSA4>
4.99

>  <SMR_VSA5>
12.97

>  <SMR_VSA6>
27.25

>  <SMR_VSA7>
29.46

>  <SMR_VSA8>
0

>  <SMR_VSA9>
5.75

>  <SlogP_VSA1>
4.74

>  <SlogP_VSA2>
42.55

>  <SlogP_VSA3>
12.97

>  <SlogP_VSA4>
0

>  <SlogP_VSA5>
11.26

>  <SlogP_VSA6>
23.19

>  <SlogP_VSA7>
0

>  <SlogP_VSA8>
10.9

>  <SlogP_VSA9>
0

>  <SlogP_VSA10>
0

>  <SlogP_VSA11>
5.75

>  <EState_VSA1>
0

>  <EState_VSA2>
0

>  <EState_VSA3>
0

>  <EState_VSA4>
37.64

>  <EState_VSA5>
22.16

>  <EState_VSA6>
7.11

>  <EState_VSA7>
6.07

>  <EState_VSA8>
28.65

>  <EState_VSA9>
9.73

>  <EState_VSA10>
0

>  <VSA_EState1>
7.79

>  <VSA_EState2>
6.98

>  <VSA_EState3>
1.33

>  <VSA_EState4>
4.07

>  <VSA_EState5>
2.09

>  <VSA_EState6>
6.39

>  <VSA_EState7>
1.03

>  <VSA_EState8>
2.96

>  <VSA_EState9>
3.86

>  <apol>
40.49

>  <bpol>
23.35

>  <nRing>
4

>  <nHRing>
3

>  <naRing>
2

>  <naHRing>
1

>  <nARing 2>
2

>  <nAHRing 2>
2

>  <nFRing>
1

>  <nFHRing>
1

>  <nFaRing>
0

>  <nFaHRing>
0

>  <nFARing 2>
1

>  <nFAHRing 2>
1

>  <nRot>
1

>  <SLogP>
1.9

>  <SMR>
76.23

>  <TopoPSA(NO)>
29.76

>  <TopoPSA>
29.76

>  <JGI1>
0.14

>  <JGI2>
0.07

>  <JGI3>
0.06

>  <JGI4>
0.03

>  <JGI5>
0.03

>  <Diameter>
9

>  <Radius>
5

>  <TMWC10>
117.06

>  <TSRW10>
68.06

>  <MW>
255.14

>  <AMW>
7.09

>  <WPath>
611

>  <WPol>
36

>  <Zagreb1>
110

>  <Zagreb2>
138

>  <mZagreb2>
4.11

>  <yes>


>  <nAR-cont>
1

>  <nHA-cont>
0.998649058

>  <MWHBN>
0.250420983

>  <MWHBN-cont>
0.959066349

>  <TPSA-cont>
0.79225672

>  <pka_cont>
0.97

>  <yes.1>


>  <BBB_SCORE>
5.506762021

>  <MMFF94 Energy>
12.177

$$$$
Compound 1556
Actelion Java MolfileCreator 2.0

  0  0  0  0  0  0              0 V3000
M  V30 BEGIN CTAB
M  V30 COUNTS 53 57 0 0 0
M  V30 BEGIN ATOM
M  V30 1 O 1.6919 -1.6919 3.8705 0
M  V30 2 C 1.3496 -1.0527 2.897 0
M  V30 3 O 0.3939 -0.075 2.8913 0
M  V30 4 C 1.8189 -1.1864 1.5222 0
M  V30 5 C 0.1512 0.4572 1.5616 0 CFG=1
M  V30 6 C 2.7988 -2.0214 1.0075 0
M  V30 7 C 1.1161 -0.3027 0.7258 0
M  V30 8 C -1.3873 0.4188 1.2128 0 CFG=2
M  V30 9 O 3.5167 -2.8463 1.8289 0
M  V30 10 C 3.1097 -1.9309 -0.3595 0
M  V30 11 C 1.4163 -0.1904 -0.6227 0
M  V30 12 N -2.1252 -0.8752 1.2018 0
M  V30 13 C -1.6732 1.2219 -0.0696 0
M  V30 14 C 2.9153 -4.1389 1.8851 0
M  V30 15 O 4.0965 -2.7693 -0.8093 0
M  V30 16 C 2.4093 -1.0162 -1.1656 0
M  V30 17 C -1.8805 -1.6723 0.0063 0
M  V30 18 C -2.0133 -1.66 2.4217 0
M  V30 19 C -1.5175 2.6325 -0.0828 0
M  V30 20 C -2.0737 0.5426 -1.2544 0
M  V30 21 C 4.5563 -2.5852 -2.1411 0
M  V30 22 C -2.3624 -0.9389 -1.2462 0
M  V30 23 O -1.1558 3.2009 1.1071 0
M  V30 24 C -1.7299 3.2982 -1.2818 0
M  V30 25 C -2.2884 1.2569 -2.441 0
M  V30 26 C -1.2104 4.6175 1.2146 0
M  V30 27 O -1.607 4.6346 -1.526 0
M  V30 28 C -2.1005 2.6201 -2.4221 0
M  V30 29 C -1.9636 4.7147 -2.9177 0
M  V30 30 O -2.2621 3.4353 -3.4999 0
M  V30 31 H 0.5015 1.4941 1.6063 0
M  V30 32 H -1.883 0.9751 2.0223 0
M  V30 33 H 0.9063 0.528 -1.2583 0
M  V30 34 H 1.8821 -4.0855 2.2458 0
M  V30 35 H 3.4895 -4.7452 2.5918 0
M  V30 36 H 2.9489 -4.6337 0.9087 0
M  V30 37 H 2.6223 -0.9164 -2.2257 0
M  V30 38 H -0.8253 -1.9422 -0.0893 0
M  V30 39 H -2.4271 -2.6228 0.0602 0
M  V30 40 H -2.1492 -1.0373 3.3123 0
M  V30 41 H -1.0622 -2.1929 2.4962 0
M  V30 42 H -2.8087 -2.4135 2.4511 0
M  V30 43 H 3.7723 -2.8324 -2.864 0
M  V30 44 H 5.3893 -3.2753 -2.3055 0
M  V30 45 H 4.9314 -1.568 -2.2954 0
M  V30 46 H -3.4505 -1.0607 -1.3294 0
M  V30 47 H -1.9084 -1.4088 -2.1269 0
M  V30 48 H -2.6079 0.7609 -3.3518 0
M  V30 49 H -0.418 5.0854 0.6228 0
M  V30 50 H -1.029 4.8756 2.2627 0
M  V30 51 H -2.2002 5.0037 0.9501 0
M  V30 52 H -2.8419 5.3626 -3.0191 0
M  V30 53 H -1.1301 5.1659 -3.4677 0
M  V30 END ATOM
M  V30 BEGIN BOND
M  V30 1 2 1 2
M  V30 2 1 2 3
M  V30 3 1 2 4
M  V30 4 1 3 5
M  V30 5 2 4 6
M  V30 6 1 4 7
M  V30 7 1 5 8
M  V30 8 1 6 9
M  V30 9 1 6 10
M  V30 10 2 7 11
M  V30 11 1 8 12
M  V30 12 1 8 13
M  V30 13 1 9 14
M  V30 14 1 10 15
M  V30 15 2 10 16
M  V30 16 1 12 17
M  V30 17 1 12 18
M  V30 18 2 13 19
M  V30 19 1 13 20
M  V30 20 1 15 21
M  V30 21 1 17 22
M  V30 22 1 19 23
M  V30 23 1 19 24
M  V30 24 2 20 25
M  V30 25 1 23 26
M  V30 26 1 24 27
M  V30 27 2 24 28
M  V30 28 1 27 29
M  V30 29 1 28 30
M  V30 30 1 5 7
M  V30 31 1 11 16
M  V30 32 1 20 22
M  V30 33 1 25 28
M  V30 34 1 29 30
M  V30 35 1 5 31
M  V30 36 1 8 32
M  V30 37 1 11 33
M  V30 38 1 14 34
M  V30 39 1 14 35
M  V30 40 1 14 36
M  V30 41 1 16 37
M  V30 42 1 17 38
M  V30 43 1 17 39
M  V30 44 1 18 40
M  V30 45 1 18 41
M  V30 46 1 18 42
M  V30 47 1 21 43
M  V30 48 1 21 44
M  V30 49 1 21 45
M  V30 50 1 22 46
M  V30 51 1 22 47
M  V30 52 1 25 48
M  V30 53 1 26 49
M  V30 54 1 26 50
M  V30 55 1 26 51
M  V30 56 1 29 52
M  V30 57 1 29 53
M  V30 END BOND
M  V30 BEGIN COLLECTION
M  V30 MDLV30/STEABS ATOMS=(2 5 8)
M  V30 END COLLECTION
M  V30 END CTAB
M  END
>  <Column 1>
1887

>  <level_0>
2053

>  <index>
2053

>  <Unnamed: 0>
2053

>  <NO.>
2065

>  <Name>
noscapine

>  <IUPAC_name>
(3s)-6-7-dimethoxy-3-[(5r)-4-methoxy-6-methyl-7-8-dihydro-5h-[1-3]dioxolo[4-5-g]isoquinolin-5-yl]-3h-2-benzofuran-1-one

>  <SMILES>
COc1ccc2c(c1OC)C(=O)O[C@@H]2[C@H]1c2c(cc3c(c2OC)OCO3)CCN1C

>  <CID>
275196

>  <logBB>


>  <BBB+/BBB->
BBB+

>  <Inchi>
InChI=1S/C22H23NO7/c1-23-8-7-11-9-14-20(29-10-28-14)21(27-4)15(11)17(23)18-12-5-6-13(25-2)19(26-3)16(12)22(24)30-18/h5-6-9-17-18H-7-8-10H2-1-4H3/t17--18+/m1/s1

>  <threshold>
-1

>  <reference>
R1|R6|R27|R30|

>  <group>
B

>  <Class>
1

>  <ABC>
23.78

>  <ABCGG>
19.51

>  <nAcid>
0

>  <nBase>
1

>  <nAromAtom>
12

>  <nAromBond>
12

>  <nAtom>
53

>  <nHeavyAtom>
30

>  <nSpiro>
0

>  <nBridgehead>
0

>  <nHetero>
8

>  <nN>
1

>  <nO>
7

>  <nF>
0

>  <BalabanJ>
1.45

>  <BertzCT>
1034.88

>  <nBonds>
57

>  <nBondsO>
34

>  <nBondsS>
44

>  <nBondsD>
1

>  <nBondsT>
0

>  <nBondsA>
12

>  <nBondsM>
13

>  <nBondsKS>
50

>  <nBondsKD>
7

>  <RNCG>
0.14

>  <RPCG>
0.1

>  <FCSP3>
0.41

>  <SZ>
36.33

>  <Sm>
34.42

>  <Sv>
33.99

>  <Sse>
54.19

>  <Sp>
35.2

>  <Si>
59.53

>  <MZ>
0.69

>  <Mm>
0.65

>  <Mv>
0.64

>  <Mse>
1.02

>  <Mp>
0.66

>  <Mi>
1.12

>  <NsCH3>
4

>  <NdCH2>
0

>  <NssCH2>
3

>  <NtCH>
0

>  <NdsCH>
0

>  <NaaCH>
3

>  <NsssCH>
2

>  <NddC>
0

>  <NtsC>
0

>  <NdssC>
1

>  <NaasC>
9

>  <NaaaC>
0

>  <NssssC>
0

>  <NsNH3>
0

>  <NsNH2>
0

>  <NssNH2>
0

>  <NdNH>
0

>  <NssNH>
0

>  <NaaNH>
0

>  <NtN>
0

>  <NsssNH>
0

>  <NdsN>
0

>  <NaaN>
0

>  <NsssN>
1

>  <NddsN>
0

>  <NaasN>
0

>  <NssssN>
0

>  <NsOH>
0

>  <NdO>
1

>  <NssO>
6

>  <NaaO>
0

>  <NsF>
0

>  <NsSiH3>
0

>  <NssSiH2>
0

>  <NsssSiH>
0

>  <NssssSi>
0

>  <NsPH2>
0

>  <NssPH>
0

>  <NsssP>
0

>  <NdsssP>
0

>  <NsssssP>
0

>  <NsSH>
0

>  <NdS>
0

>  <NssS>
0

>  <NaaS>
0

>  <NdssS>
0

>  <NddssS>
0

>  <NsCl>
0

>  <NsBr>
0

>  <NsI>
0

>  <fragCpx>
286.08

>  <fMF>
0.42

>  <nHBAcc>
8

>  <nHBDon>
0

>  <Kier1>
21.83

>  <Kier2>
8.74

>  <Lipinski>
1

>  <GhoseFilter>
1

>  <FilterItLogS>
-4.78

>  <VMcGowan>
287.51

>  <LabuteASA>
173.72

>  <PEOE_VSA1>
28.42

>  <PEOE_VSA2>
4.9

>  <PEOE_VSA3>
4.79

>  <PEOE_VSA4>
0

>  <PEOE_VSA5>
0

>  <PEOE_VSA6>
6.07

>  <PEOE_VSA7>
31.16

>  <PEOE_VSA8>
17.67

>  <PEOE_VSA9>
27.37

>  <PEOE_VSA10>
11.67

>  <PEOE_VSA11>
23

>  <PEOE_VSA12>
12.54

>  <PEOE_VSA13>
0

>  <SMR_VSA1>
33.22

>  <SMR_VSA2>
0

>  <SMR_VSA3>
4.9

>  <SMR_VSA4>
0

>  <SMR_VSA5>
18.57

>  <SMR_VSA6>
41.71

>  <SMR_VSA7>
40.45

>  <SMR_VSA8>
0

>  <SMR_VSA9>
28.75

>  <SlogP_VSA1>
23.68

>  <SlogP_VSA2>
52.58

>  <SlogP_VSA3>
11.16

>  <SlogP_VSA4>
0

>  <SlogP_VSA5>
39.19

>  <SlogP_VSA6>
18.2

>  <SlogP_VSA7>
0

>  <SlogP_VSA8>
0

>  <SlogP_VSA9>
0

>  <SlogP_VSA10>
0

>  <SlogP_VSA11>
28.75

>  <EState_VSA1>
12.07

>  <EState_VSA2>
12.83

>  <EState_VSA3>
34.31

>  <EState_VSA4>
29.66

>  <EState_VSA5>
7.11

>  <EState_VSA6>
20.29

>  <EState_VSA7>
19.18

>  <EState_VSA8>
4.9

>  <EState_VSA9>
28.42

>  <EState_VSA10>
4.79

>  <VSA_EState1>
33.81

>  <VSA_EState2>
15.05

>  <VSA_EState3>
0

>  <VSA_EState4>
3.23

>  <VSA_EState5>
2.36

>  <VSA_EState6>
5.43

>  <VSA_EState7>
0.31

>  <VSA_EState8>
0.96

>  <VSA_EState9>
6.7

>  <apol>
58.79

>  <bpol>
36.07

>  <nRing>
5

>  <nHRing>
3

>  <naRing>
2

>  <naHRing>
0

>  <nARing 2>
3

>  <nAHRing 2>
3

>  <nFRing>
2

>  <nFHRing>
2

>  <nFaRing>
0

>  <nFaHRing>
0

>  <nFARing 2>
2

>  <nFAHRing 2>
2

>  <nRot>
4

>  <SLogP>
2.88

>  <SMR>
105.89

>  <TopoPSA(NO)>
75.69

>  <TopoPSA>
75.69

>  <JGI1>
0.15

>  <JGI2>
0.08

>  <JGI3>
0.05

>  <JGI4>
0.05

>  <JGI5>
0.03

>  <Diameter>
12

>  <Radius>
6

>  <TMWC10>
144.05

>  <TSRW10>
82.61

>  <MW>
413.15

>  <AMW>
7.8

>  <WPath>
2155

>  <WPol>
59

>  <Zagreb1>
170

>  <Zagreb2>
214

>  <mZagreb2>
6.67

>  <yes>


>  <nAR-cont>
0.691115

>  <nHA-cont>
0.74523694

>  <MWHBN>
0.393582798

>  <MWHBN-cont>
0.50134141

>  <TPSA-cont>
0.471636799

>  <pka_cont>
0.97

>  <yes.1>


>  <BBB_SCORE>
3.616637654

>  <MMFF94 Energy>
146.22

$$$$
Compound 1557
Actelion Java MolfileCreator 2.0

  0  0  0  0  0  0              0 V3000
M  V30 BEGIN CTAB
M  V30 COUNTS 51 54 0 0 0
M  V30 BEGIN ATOM
M  V30 1 O -2.5647 -0.5606 0.4004 0
M  V30 2 C -1.6804 0.4369 0.7386 0
M  V30 3 C -3.7629 -0.0943 -0.2231 0
M  V30 4 C -2.0885 1.5121 1.5671 0
M  V30 5 C -0.327 0.282 0.3348 0
M  V30 6 O -3.401 1.5342 1.9671 0
M  V30 7 C -1.1548 2.4705 1.9505 0
M  V30 8 C 0.6067 1.2388 0.8095 0
M  V30 9 C 0.1913 -0.9234 -0.5073 0 CFG=2
M  V30 10 C -3.7821 2.4879 2.9499 0
M  V30 11 C 0.1772 2.3321 1.5788 0
M  V30 12 C 2.0919 1.1562 0.5317 0
M  V30 13 C 1.5403 -0.5662 -1.2277 0 CFG=1
M  V30 14 C -0.7649 -1.4389 -1.6217 0
M  V30 15 C 0.4621 -2.0832 0.4923 0
M  V30 16 C 2.5623 -0.135 -0.1517 0 CFG=2
M  V30 17 O 2.0916 -1.7416 -1.8709 0
M  V30 18 C 1.3449 0.4723 -2.3543 0
M  V30 19 C -1.0055 -0.3935 -2.7124 0 CFG=1
M  V30 20 C 1.6284 -1.7851 1.4457 0
M  V30 21 N 2.8227 -1.3177 0.7258 0
M  V30 22 C 0.3045 0.0177 -3.378 0
M  V30 23 O -1.871 -0.9245 -3.7139 0
M  V30 24 C 3.9352 -1.103 1.6491 0
M  V30 25 H -4.5771 -0.0598 0.5063 0
M  V30 26 H -4.043 -0.8239 -0.9895 0
M  V30 27 H -3.6402 0.8755 -0.7187 0
M  V30 28 H -1.4231 3.3259 2.5608 0
M  V30 29 H -3.1895 2.3772 3.8642 0
M  V30 30 H -4.8288 2.3001 3.2083 0
M  V30 31 H -3.7164 3.5065 2.554 0
M  V30 32 H 0.8957 3.0778 1.9164 0
M  V30 33 H 2.6443 1.3178 1.4642 0
M  V30 34 H 2.3503 2.0038 -0.1175 0
M  V30 35 H -1.7126 -1.8184 -1.2345 0
M  V30 36 H -0.3349 -2.3322 -2.0988 0
M  V30 37 H 0.693 -3.0053 -0.0579 0
M  V30 38 H -0.4346 -2.3065 1.0845 0
M  V30 39 H 3.5156 0.0755 -0.6566 0
M  V30 40 H 2.5814 -2.2104 -1.1626 0
M  V30 41 H 1.0335 1.4454 -1.9609 0
M  V30 42 H 2.2949 0.6316 -2.8797 0
M  V30 43 H -1.4993 0.4913 -2.2975 0
M  V30 44 H 1.867 -2.7153 1.977 0
M  V30 45 H 1.3204 -1.0662 2.2145 0
M  V30 46 H 0.1168 0.8197 -4.1025 0
M  V30 47 H 0.6984 -0.8194 -3.9688 0
M  V30 48 H -2.6432 -1.3038 -3.2618 0
M  V30 49 H 4.8295 -0.7715 1.1104 0
M  V30 50 H 3.706 -0.3683 2.4277 0
M  V30 51 H 4.2017 -2.0438 2.1439 0
M  V30 END ATOM
M  V30 BEGIN BOND
M  V30 1 1 1 2
M  V30 2 1 1 3
M  V30 3 2 2 4
M  V30 4 1 2 5
M  V30 5 1 4 6
M  V30 6 1 4 7
M  V30 7 2 5 8
M  V30 8 1 5 9
M  V30 9 1 6 10
M  V30 10 2 7 11
M  V30 11 1 8 12
M  V30 12 1 9 13
M  V30 13 1 9 14
M  V30 14 1 9 15
M  V30 15 1 12 16
M  V30 16 1 13 17
M  V30 17 1 13 18
M  V30 18 1 14 19
M  V30 19 1 15 20
M  V30 20 1 16 21
M  V30 21 1 18 22
M  V30 22 1 19 23
M  V30 23 1 21 24
M  V30 24 1 8 11
M  V30 25 1 13 16
M  V30 26 1 19 22
M  V30 27 1 20 21
M  V30 28 1 3 25
M  V30 29 1 3 26
M  V30 30 1 3 27
M  V30 31 1 7 28
M  V30 32 1 10 29
M  V30 33 1 10 30
M  V30 34 1 10 31
M  V30 35 1 11 32
M  V30 36 1 12 33
M  V30 37 1 12 34
M  V30 38 1 14 35
M  V30 39 1 14 36
M  V30 40 1 15 37
M  V30 41 1 15 38
M  V30 42 1 16 39
M  V30 43 1 17 40
M  V30 44 1 18 41
M  V30 45 1 18 42
M  V30 46 1 19 43
M  V30 47 1 20 44
M  V30 48 1 20 45
M  V30 49 1 22 46
M  V30 50 1 22 47
M  V30 51 1 23 48
M  V30 52 1 24 49
M  V30 53 1 24 50
M  V30 54 1 24 51
M  V30 END BOND
M  V30 BEGIN COLLECTION
M  V30 MDLV30/STEABS ATOMS=(4 9 13 16 19)
M  V30 END COLLECTION
M  V30 END CTAB
M  END
>  <Column 1>
1888

>  <level_0>
2054

>  <index>
2054

>  <Unnamed: 0>
2054

>  <NO.>
2066

>  <Name>
drotebanol

>  <IUPAC_name>
(1r-9r-10s-13r)-3-4-dimethoxy-17-methyl-17-azatetracyclo[7.5.3.01-10.02-7]heptadeca-2(7)-3-5-triene-10-13-diol

>  <SMILES>
COc1ccc2c(c1OC)[C@]13CCN(C)[C@H](C2)[C@]1(O)CC[C@@H](O)C3

>  <CID>
5463863

>  <logBB>


>  <BBB+/BBB->
BBB+

>  <Inchi>
InChI=1S/C19H27NO4/c1-20-9-8-18-11-13(21)6-7-19(18-22)15(20)10-12-4-5-14(23-2)17(24-3)16(12)18/h4-5-13-15-21-22H-6-11H2-1-3H3/t13--15--18--19-/m1/s1

>  <threshold>
-1

>  <reference>
R1|R27|R27|R30|R30|

>  <group>
B

>  <Class>
1

>  <ABC>
19.09

>  <ABCGG>
15.44

>  <nAcid>
0

>  <nBase>
1

>  <nAromAtom>
6

>  <nAromBond>
6

>  <nAtom>
51

>  <nHeavyAtom>
24

>  <nSpiro>
0

>  <nBridgehead>
2

>  <nHetero>
5

>  <nN>
1

>  <nO>
4

>  <nF>
0

>  <BalabanJ>
1.81

>  <BertzCT>
663.01

>  <nBonds>
54

>  <nBondsO>
27

>  <nBondsS>
48

>  <nBondsD>
0

>  <nBondsT>
0

>  <nBondsA>
6

>  <nBondsM>
6

>  <nBondsKS>
51

>  <nBondsKD>
3

>  <RNCG>
0.22

>  <RPCG>
0.09

>  <FCSP3>
0.68

>  <SZ>
30

>  <Sm>
27.76

>  <Sv>
29.93

>  <Sse>
50.97

>  <Sp>
32.36

>  <Si>
57.73

>  <MZ>
0.59

>  <Mm>
0.54

>  <Mv>
0.59

>  <Mse>
1

>  <Mp>
0.63

>  <Mi>
1.13

>  <NsCH3>
3

>  <NdCH2>
0

>  <NssCH2>
6

>  <NtCH>
0

>  <NdsCH>
0

>  <NaaCH>
2

>  <NsssCH>
2

>  <NddC>
0

>  <NtsC>
0

>  <NdssC>
0

>  <NaasC>
4

>  <NaaaC>
0

>  <NssssC>
2

>  <NsNH3>
0

>  <NsNH2>
0

>  <NssNH2>
0

>  <NdNH>
0

>  <NssNH>
0

>  <NaaNH>
0

>  <NtN>
0

>  <NsssNH>
0

>  <NdsN>
0

>  <NaaN>
0

>  <NsssN>
1

>  <NddsN>
0

>  <NaasN>
0

>  <NssssN>
0

>  <NsOH>
2

>  <NdO>
0

>  <NssO>
2

>  <NaaO>
0

>  <NsF>
0

>  <NsSiH3>
0

>  <NssSiH2>
0

>  <NsssSiH>
0

>  <NssssSi>
0

>  <NsPH2>
0

>  <NssPH>
0

>  <NsssP>
0

>  <NdsssP>
0

>  <NsssssP>
0

>  <NsSH>
0

>  <NdS>
0

>  <NssS>
0

>  <NaaS>
0

>  <NdssS>
0

>  <NddssS>
0

>  <NsCl>
0

>  <NsBr>
0

>  <NsI>
0

>  <fragCpx>
177.05

>  <fMF>
0.33

>  <nHBAcc>
5

>  <nHBDon>
2

>  <Kier1>
17.42

>  <Kier2>
6.02

>  <Lipinski>
1

>  <GhoseFilter>
1

>  <FilterItLogS>
-3.18

>  <VMcGowan>
255.69

>  <LabuteASA>
142.73

>  <PEOE_VSA1>
24.59

>  <PEOE_VSA2>
0

>  <PEOE_VSA3>
0

>  <PEOE_VSA4>
0

>  <PEOE_VSA5>
0

>  <PEOE_VSA6>
6.07

>  <PEOE_VSA7>
57.33

>  <PEOE_VSA8>
17.02

>  <PEOE_VSA9>
25.92

>  <PEOE_VSA10>
0

>  <PEOE_VSA11>
11.5

>  <PEOE_VSA12>
0

>  <PEOE_VSA13>
0

>  <SMR_VSA1>
19.69

>  <SMR_VSA2>
0

>  <SMR_VSA3>
4.9

>  <SMR_VSA4>
0

>  <SMR_VSA5>
55.27

>  <SMR_VSA6>
27.81

>  <SMR_VSA7>
23.26

>  <SMR_VSA8>
0

>  <SMR_VSA9>
11.5

>  <SlogP_VSA1>
9.47

>  <SlogP_VSA2>
60.67

>  <SlogP_VSA3>
11.84

>  <SlogP_VSA4>
0

>  <SlogP_VSA5>
36.81

>  <SlogP_VSA6>
12.13

>  <SlogP_VSA7>
0

>  <SlogP_VSA8>
0

>  <SlogP_VSA9>
0

>  <SlogP_VSA10>
0

>  <SlogP_VSA11>
11.5

>  <EState_VSA1>
11.02

>  <EState_VSA2>
12.15

>  <EState_VSA3>
25.01

>  <EState_VSA4>
30.7

>  <EState_VSA5>
5.56

>  <EState_VSA6>
14.22

>  <EState_VSA7>
6.07

>  <EState_VSA8>
18.01

>  <EState_VSA9>
9.47

>  <EState_VSA10>
10.21

>  <VSA_EState1>
11.26

>  <VSA_EState2>
2.29

>  <VSA_EState3>
22.28

>  <VSA_EState4>
0.99

>  <VSA_EState5>
1.43

>  <VSA_EState6>
4.14

>  <VSA_EState7>
3.12

>  <VSA_EState8>
0.92

>  <VSA_EState9>
5.4

>  <apol>
54.04

>  <bpol>
32.27

>  <nRing>
4

>  <nHRing>
1

>  <naRing>
1

>  <naHRing>
0

>  <nARing 2>
3

>  <nAHRing 2>
1

>  <nFRing>
1

>  <nFHRing>
1

>  <nFaRing>
0

>  <nFaHRing>
0

>  <nFARing 2>
1

>  <nFAHRing 2>
1

>  <nRot>
2

>  <SLogP>
1.48

>  <SMR>
90.77

>  <TopoPSA(NO)>
62.16

>  <TopoPSA>
62.16

>  <JGI1>
0.24

>  <JGI2>
0.12

>  <JGI3>
0.06

>  <JGI4>
0.06

>  <JGI5>
0.03

>  <Diameter>
9

>  <Radius>
5

>  <TMWC10>
130.46

>  <TSRW10>
60.17

>  <MW>
333.19

>  <AMW>
6.53

>  <WPath>
1062

>  <WPol>
55

>  <Zagreb1>
140

>  <Zagreb2>
180

>  <mZagreb2>
5.22

>  <yes>


>  <nAR-cont>
0.691115

>  <nHA-cont>
0.94700071

>  <MWHBN>
0.383488249

>  <MWHBN-cont>
0.541102436

>  <TPSA-cont>
0.566084601

>  <pka_cont>
0.97

>  <yes.1>


>  <BBB_SCORE>
4.066938566

>  <MMFF94 Energy>
115.7

$$$$
Compound 1558
Actelion Java MolfileCreator 2.0

  0  0  0  0  0  0              0 V3000
M  V30 BEGIN CTAB
M  V30 COUNTS 40 44 0 0 0
M  V30 BEGIN ATOM
M  V30 1 O -1.7876 1.1373 -0.731 0
M  V30 2 C -0.54 0.7988 -1.2055 0
M  V30 3 C -1.9065 0.3687 0.5273 0
M  V30 4 C -0.0655 0.9475 -2.4951 0
M  V30 5 C 0.2353 0.2149 -0.2241 0
M  V30 6 C -0.4793 0.2317 1.0853 0
M  V30 7 C -2.6207 -0.9785 0.2093 0
M  V30 8 O -0.8972 1.5516 -3.3913 0
M  V30 9 C 1.215 0.437 -2.7638 0
M  V30 10 C 1.4732 -0.3457 -0.4693 0
M  V30 11 C -0.145 -1.0338 1.8818 0
M  V30 12 C -0.0287 1.4623 1.9021 0
M  V30 13 O -3.8564 -1.0253 0.9323 0
M  V30 14 C -1.8771 -2.2385 0.5597 0
M  V30 15 C -0.3882 1.7626 -4.7003 0
M  V30 16 C 1.9717 -0.2193 -1.7643 0
M  V30 17 C 2.1518 -1.1154 0.6337 0
M  V30 18 C -0.7597 -2.2786 1.3001 0
M  V30 19 C 1.4086 -1.0649 2.0125 0
M  V30 20 C 1.4525 1.3827 2.2998 0
M  V30 21 N 1.8501 0.0812 2.8496 0
M  V30 22 H -2.5316 0.9706 1.1988 0
M  V30 23 H -2.8786 -1.0127 -0.8561 0
M  V30 24 H 1.6518 0.5065 -3.7551 0
M  V30 25 H -0.57 -0.9517 2.8937 0
M  V30 26 H -0.1964 2.3954 1.3491 0
M  V30 27 H -0.6382 1.5269 2.8134 0
M  V30 28 H -4.35 -1.7934 0.5999 0
M  V30 29 H -2.2927 -3.1705 0.1854 0
M  V30 30 H 0.5045 2.3965 -4.6813 0
M  V30 31 H -1.1558 2.2868 -5.2776 0
M  V30 32 H -0.1865 0.8108 -5.2025 0
M  V30 33 H 2.9429 -0.6368 -2.0199 0
M  V30 34 H 3.1856 -0.7678 0.7494 0
M  V30 35 H 2.2006 -2.1655 0.3173 0
M  V30 36 H -0.3051 -3.2374 1.5364 0
M  V30 37 H 1.7042 -1.9654 2.5665 0
M  V30 38 H 1.6609 2.1546 3.05 0
M  V30 39 H 2.0921 1.6309 1.4454 0
M  V30 40 H 1.4358 -0.0173 3.7777 0
M  V30 END ATOM
M  V30 BEGIN BOND
M  V30 1 1 1 2
M  V30 2 1 1 3
M  V30 3 2 2 4
M  V30 4 1 2 5
M  V30 5 1 3 6
M  V30 6 1 3 7
M  V30 7 1 4 8
M  V30 8 1 4 9
M  V30 9 2 5 10
M  V30 10 1 6 11
M  V30 11 1 6 12
M  V30 12 1 7 13
M  V30 13 1 7 14
M  V30 14 1 8 15
M  V30 15 2 9 16
M  V30 16 1 10 17
M  V30 17 1 11 18
M  V30 18 1 11 19
M  V30 19 1 12 20
M  V30 20 1 19 21
M  V30 21 1 5 6
M  V30 22 1 10 16
M  V30 23 2 14 18
M  V30 24 1 17 19
M  V30 25 1 20 21
M  V30 26 1 3 22
M  V30 27 1 7 23
M  V30 28 1 9 24
M  V30 29 1 11 25
M  V30 30 1 12 26
M  V30 31 1 12 27
M  V30 32 1 13 28
M  V30 33 1 14 29
M  V30 34 1 15 30
M  V30 35 1 15 31
M  V30 36 1 15 32
M  V30 37 1 16 33
M  V30 38 1 17 34
M  V30 39 1 17 35
M  V30 40 1 18 36
M  V30 41 1 19 37
M  V30 42 1 20 38
M  V30 43 1 20 39
M  V30 44 1 21 40
M  V30 END BOND
M  V30 END CTAB
M  END
>  <Column 1>
1889

>  <level_0>
2055

>  <index>
2055

>  <Unnamed: 0>
2055

>  <NO.>
2067

>  <Name>
n-norcodeine

>  <IUPAC_name>
9-methoxy-1-2-3-4-4a-7-7a-13-octahydro-4-12-methanobenzofuro[3-2-e]isoquinolin-7-ol

>  <SMILES>
COc1ccc2c3c1OC1C(O)C=CC4C(C2)NCCC341

>  <CID>
1255

>  <logBB>


>  <BBB+/BBB->
BBB+

>  <Inchi>
InChI=1S/C17H19NO3/c1-20-13-5-2-9-8-11-10-3-4-12(19)16-17(10-6-7-18-11)14(9)15(13)21-16/h2-5-10-12-16-18-19H-6-8H2-1H3

>  <threshold>
-1

>  <reference>
R1|R19|R27|R27|R30|

>  <group>
B

>  <Class>
1

>  <ABC>
17.4

>  <ABCGG>
13.35

>  <nAcid>
0

>  <nBase>
1

>  <nAromAtom>
6

>  <nAromBond>
6

>  <nAtom>
40

>  <nHeavyAtom>
21

>  <nSpiro>
1

>  <nBridgehead>
2

>  <nHetero>
4

>  <nN>
1

>  <nO>
3

>  <nF>
0

>  <BalabanJ>
1.63

>  <BertzCT>
655.68

>  <nBonds>
44

>  <nBondsO>
25

>  <nBondsS>
37

>  <nBondsD>
1

>  <nBondsT>
0

>  <nBondsA>
6

>  <nBondsM>
7

>  <nBondsKS>
40

>  <nBondsKD>
4

>  <RNCG>
0.25

>  <RPCG>
0.11

>  <FCSP3>
0.53

>  <SZ>
25.33

>  <Sm>
23.76

>  <Sv>
25.05

>  <Sse>
40.09

>  <Sp>
26.69

>  <Si>
44.86

>  <MZ>
0.63

>  <Mm>
0.59

>  <Mv>
0.63

>  <Mse>
1

>  <Mp>
0.67

>  <Mi>
1.12

>  <NsCH3>
1

>  <NdCH2>
0

>  <NssCH2>
3

>  <NtCH>
0

>  <NdsCH>
2

>  <NaaCH>
2

>  <NsssCH>
4

>  <NddC>
0

>  <NtsC>
0

>  <NdssC>
0

>  <NaasC>
4

>  <NaaaC>
0

>  <NssssC>
1

>  <NsNH3>
0

>  <NsNH2>
0

>  <NssNH2>
0

>  <NdNH>
0

>  <NssNH>
1

>  <NaaNH>
0

>  <NtN>
0

>  <NsssNH>
0

>  <NdsN>
0

>  <NaaN>
0

>  <NsssN>
0

>  <NddsN>
0

>  <NaasN>
0

>  <NssssN>
0

>  <NsOH>
1

>  <NdO>
0

>  <NssO>
2

>  <NaaO>
0

>  <NsF>
0

>  <NsSiH3>
0

>  <NssSiH2>
0

>  <NsssSiH>
0

>  <NssssSi>
0

>  <NsPH2>
0

>  <NssPH>
0

>  <NsssP>
0

>  <NdsssP>
0

>  <NsssssP>
0

>  <NsSH>
0

>  <NdS>
0

>  <NssS>
0

>  <NaaS>
0

>  <NdssS>
0

>  <NddssS>
0

>  <NsCl>
0

>  <NsBr>
0

>  <NsI>
0

>  <fragCpx>
205.04

>  <fMF>
0.45

>  <nHBAcc>
4

>  <nHBDon>
2

>  <Kier1>
13.44

>  <Kier2>
4.51

>  <Lipinski>
1

>  <GhoseFilter>
1

>  <FilterItLogS>
-2.8

>  <VMcGowan>
206.48

>  <LabuteASA>
123.3

>  <PEOE_VSA1>
19.9

>  <PEOE_VSA2>
0

>  <PEOE_VSA3>
0

>  <PEOE_VSA4>
0

>  <PEOE_VSA5>
0

>  <PEOE_VSA6>
18.22

>  <PEOE_VSA7>
31.02

>  <PEOE_VSA8>
22.94

>  <PEOE_VSA9>
7.11

>  <PEOE_VSA10>
12.21

>  <PEOE_VSA11>
11.5

>  <PEOE_VSA12>
0

>  <PEOE_VSA13>
0

>  <SMR_VSA1>
14.58

>  <SMR_VSA2>
0

>  <SMR_VSA3>
5.32

>  <SMR_VSA4>
5.92

>  <SMR_VSA5>
36.51

>  <SMR_VSA6>
13.65

>  <SMR_VSA7>
35.41

>  <SMR_VSA8>
0

>  <SMR_VSA9>
11.5

>  <SlogP_VSA1>
14.79

>  <SlogP_VSA2>
37.01

>  <SlogP_VSA3>
11.84

>  <SlogP_VSA4>
5.92

>  <SlogP_VSA5>
17.55

>  <SlogP_VSA6>
24.28

>  <SlogP_VSA7>
0

>  <SlogP_VSA8>
0

>  <SlogP_VSA9>
0

>  <SlogP_VSA10>
0

>  <SlogP_VSA11>
11.5

>  <EState_VSA1>
6.1

>  <EState_VSA2>
11.52

>  <EState_VSA3>
11.96

>  <EState_VSA4>
30.89

>  <EState_VSA5>
11.13

>  <EState_VSA6>
7.11

>  <EState_VSA7>
12.14

>  <EState_VSA8>
17.46

>  <EState_VSA9>
9.47

>  <EState_VSA10>
5.11

>  <VSA_EState1>
11.76

>  <VSA_EState2>
0

>  <VSA_EState3>
14.13

>  <VSA_EState4>
2.57

>  <VSA_EState5>
2.06

>  <VSA_EState6>
4.62

>  <VSA_EState7>
5.43

>  <VSA_EState8>
0.98

>  <VSA_EState9>
1.68

>  <apol>
44.57

>  <bpol>
23.1

>  <nRing>
5

>  <nHRing>
2

>  <naRing>
1

>  <naHRing>
0

>  <nARing 2>
4

>  <nAHRing 2>
2

>  <nFRing>
1

>  <nFHRing>
1

>  <nFaRing>
0

>  <nFaHRing>
0

>  <nFARing 2>
1

>  <nFAHRing 2>
1

>  <nRot>
1

>  <SLogP>
1.16

>  <SMR>
77.84

>  <TopoPSA(NO)>
50.72

>  <TopoPSA>
50.72

>  <JGI1>
0.18

>  <JGI2>
0.09

>  <JGI3>
0.05

>  <JGI4>
0.05

>  <JGI5>
0.03

>  <Diameter>
8

>  <Radius>
4

>  <TMWC10>
125.14

>  <TSRW10>
71.42

>  <MW>
285.14

>  <AMW>
7.13

>  <WPath>
723

>  <WPol>
48

>  <Zagreb1>
130

>  <Zagreb2>
170

>  <mZagreb2>
4.43

>  <yes>


>  <nAR-cont>
0.199399

>  <nHA-cont>
0.994529749

>  <MWHBN>
0.355322065

>  <MWHBN-cont>
0.650221534

>  <TPSA-cont>
0.645942905

>  <pka_cont>
0.97

>  <yes.1>


>  <BBB_SCORE>
3.94614686

>  <MMFF94 Energy>
106.1

$$$$
Compound 1559
Actelion Java MolfileCreator 2.0

  0  0  0  0  0  0              0 V3000
M  V30 BEGIN CTAB
M  V30 COUNTS 56 61 0 0 0
M  V30 BEGIN ATOM
M  V30 1 O -2.595 1.2157 2.595 0
M  V30 2 C -1.8174 0.3978 3.0598 0
M  V30 3 O -0.6831 -0.0518 2.4715 0
M  V30 4 C -1.9958 -0.2242 4.3896 0
M  V30 5 C -0.4166 0.4325 1.1327 0
M  V30 6 C -1.144 -1.2047 4.8818 0
M  V30 7 C -3.0619 0.1772 5.1995 0
M  V30 8 C 0.4725 -0.6265 0.4278 0
M  V30 9 C 0.2552 1.8057 1.215 0
M  V30 10 N -1.2824 -1.7848 6.1016 0
M  V30 11 C -3.2305 -0.4047 6.4543 0
M  V30 12 O -0.4119 -1.6877 -0.089 0
M  V30 13 C 1.2695 -0.1011 -0.7778 0
M  V30 14 C 0.6767 2.3045 -0.1655 0
M  V30 15 C -2.3233 -1.3715 6.8576 0
M  V30 16 C -0.6892 -1.2687 -1.3751 0
M  V30 17 C 0.2021 -0.2986 -1.7951 0
M  V30 18 C 1.7244 1.3576 -0.758 0
M  V30 19 C 2.4866 -0.9834 -1.132 0
M  V30 20 C -1.7368 -1.6696 -2.1815 0
M  V30 21 C 0.0694 0.3967 -2.98 0
M  V30 22 C 2.1692 1.71 -2.2067 0
M  V30 23 C 3.1452 -0.5538 -2.4547 0
M  V30 24 O -2.5545 -2.6434 -1.6898 0
M  V30 25 C -1.8704 -1.0159 -3.4183 0
M  V30 26 C -0.9863 0.0198 -3.8073 0
M  V30 27 C 1.0068 1.5452 -3.2551 0
M  V30 28 N 3.3483 0.8961 -2.6112 0
M  V30 29 C -3.6358 -3.0531 -2.5147 0
M  V30 30 C 4.5868 1.3358 -1.9699 0
M  V30 31 H -1.3713 0.5227 0.5974 0
M  V30 32 H -0.2999 -1.5754 4.3071 0
M  V30 33 H -3.7593 0.9384 4.8565 0
M  V30 34 H 1.1373 -1.097 1.1631 0
M  V30 35 H -0.4299 2.5307 1.6696 0
M  V30 36 H 1.1217 1.7579 1.8872 0
M  V30 37 H -4.0505 -0.111 7.1008 0
M  V30 38 H -0.205 2.3956 -0.8091 0
M  V30 39 H 1.1045 3.31 -0.074 0
M  V30 40 H -2.4127 -1.8544 7.8271 0
M  V30 41 H 2.5913 1.4404 -0.0879 0
M  V30 42 H 3.2259 -0.9166 -0.323 0
M  V30 43 H 2.2062 -2.042 -1.2074 0
M  V30 44 H 2.4656 2.7667 -2.2485 0
M  V30 45 H 4.0954 -1.0902 -2.5752 0
M  V30 46 H 2.5319 -0.9059 -3.2932 0
M  V30 47 H -2.6734 -1.2692 -4.1039 0
M  V30 48 H -1.1454 0.5263 -4.7568 0
M  V30 49 H 1.4221 1.4521 -4.2662 0
M  V30 50 H 0.4091 2.4662 -3.2409 0
M  V30 51 H -4.3303 -2.2258 -2.6954 0
M  V30 52 H -4.1842 -3.837 -1.9832 0
M  V30 53 H -3.2752 -3.4795 -3.4566 0
M  V30 54 H 4.6109 1.1342 -0.8946 0
M  V30 55 H 5.4471 0.8317 -2.4247 0
M  V30 56 H 4.7446 2.409 -2.1238 0
M  V30 END ATOM
M  V30 BEGIN BOND
M  V30 1 2 1 2
M  V30 2 1 2 3
M  V30 3 1 2 4
M  V30 4 1 3 5
M  V30 5 2 4 6
M  V30 6 1 4 7
M  V30 7 1 5 8
M  V30 8 1 5 9
M  V30 9 1 6 10
M  V30 10 2 7 11
M  V30 11 1 8 12
M  V30 12 1 8 13
M  V30 13 1 9 14
M  V30 14 2 10 15
M  V30 15 1 12 16
M  V30 16 1 13 17
M  V30 17 1 13 18
M  V30 18 1 13 19
M  V30 19 1 16 20
M  V30 20 1 17 21
M  V30 21 1 18 22
M  V30 22 1 19 23
M  V30 23 1 20 24
M  V30 24 2 20 25
M  V30 25 2 21 26
M  V30 26 1 21 27
M  V30 27 1 22 28
M  V30 28 1 24 29
M  V30 29 1 28 30
M  V30 30 1 11 15
M  V30 31 1 14 18
M  V30 32 2 16 17
M  V30 33 1 22 27
M  V30 34 1 23 28
M  V30 35 1 25 26
M  V30 36 1 5 31
M  V30 37 1 6 32
M  V30 38 1 7 33
M  V30 39 1 8 34
M  V30 40 1 9 35
M  V30 41 1 9 36
M  V30 42 1 11 37
M  V30 43 1 14 38
M  V30 44 1 14 39
M  V30 45 1 15 40
M  V30 46 1 18 41
M  V30 47 1 19 42
M  V30 48 1 19 43
M  V30 49 1 22 44
M  V30 50 1 23 45
M  V30 51 1 23 46
M  V30 52 1 25 47
M  V30 53 1 26 48
M  V30 54 1 27 49
M  V30 55 1 27 50
M  V30 56 1 29 51
M  V30 57 1 29 52
M  V30 58 1 29 53
M  V30 59 1 30 54
M  V30 60 1 30 55
M  V30 61 1 30 56
M  V30 END BOND
M  V30 END CTAB
M  END
>  <Column 1>
1890

>  <level_0>
2056

>  <index>
2056

>  <Unnamed: 0>
2056

>  <NO.>
2068

>  <Name>
morphinan-6-ol;4-5-epoxy-3-methoxy-17-methyl-;3-pyridinecarboxylate (ester);(5.alpha.-6.alpha.)-

>  <IUPAC_name>
(9-methoxy-3-methyl-2-4-4a-5-6-7-7a-13-octahydro-1h-4-12-methanobenzofuro[3-2-e]isoquinolin-7-yl) pyridine-3-carboxylate

>  <SMILES>
COc1ccc2c3c1OC1C(OC(=O)c4cccnc4)CCC4C(C2)N(C)CCC341

>  <CID>
522741

>  <logBB>


>  <BBB+/BBB->
BBB+

>  <Inchi>
InChI=1S/C24H26N2O4/c1-26-11-9-24-16-6-8-19(29-23(27)15-4-3-10-25-13-15)22(24)30-21-18(28-2)7-5-14(20(21)24)12-17(16)26/h3-5-7-10-13-16-17-19-22H-6-8-9-11-12H2-1-2H3

>  <threshold>
-1

>  <reference>
R1|R19|R27|R27|R30|

>  <group>
B

>  <Class>
1

>  <ABC>
24.5

>  <ABCGG>
17.77

>  <nAcid>
0

>  <nBase>
1

>  <nAromAtom>
12

>  <nAromBond>
12

>  <nAtom>
56

>  <nHeavyAtom>
30

>  <nSpiro>
1

>  <nBridgehead>
2

>  <nHetero>
6

>  <nN>
2

>  <nO>
4

>  <nF>
0

>  <BalabanJ>
1.31

>  <BertzCT>
1009.77

>  <nBonds>
61

>  <nBondsO>
35

>  <nBondsS>
48

>  <nBondsD>
1

>  <nBondsT>
0

>  <nBondsA>
12

>  <nBondsM>
13

>  <nBondsKS>
54

>  <nBondsKD>
7

>  <RNCG>
0.19

>  <RPCG>
0.13

>  <FCSP3>
0.5

>  <SZ>
36

>  <Sm>
33.84

>  <Sv>
35.42

>  <Sse>
56.19

>  <Sp>
37.62

>  <Si>
62.82

>  <MZ>
0.64

>  <Mm>
0.6

>  <Mv>
0.63

>  <Mse>
1

>  <Mp>
0.67

>  <Mi>
1.12

>  <NsCH3>
2

>  <NdCH2>
0

>  <NssCH2>
5

>  <NtCH>
0

>  <NdsCH>
0

>  <NaaCH>
6

>  <NsssCH>
4

>  <NddC>
0

>  <NtsC>
0

>  <NdssC>
1

>  <NaasC>
5

>  <NaaaC>
0

>  <NssssC>
1

>  <NsNH3>
0

>  <NsNH2>
0

>  <NssNH2>
0

>  <NdNH>
0

>  <NssNH>
0

>  <NaaNH>
0

>  <NtN>
0

>  <NsssNH>
0

>  <NdsN>
0

>  <NaaN>
1

>  <NsssN>
1

>  <NddsN>
0

>  <NaasN>
0

>  <NssssN>
0

>  <NsOH>
0

>  <NdO>
1

>  <NssO>
3

>  <NaaO>
0

>  <NsF>
0

>  <NsSiH3>
0

>  <NssSiH2>
0

>  <NsssSiH>
0

>  <NssssSi>
0

>  <NsPH2>
0

>  <NssPH>
0

>  <NsssP>
0

>  <NdsssP>
0

>  <NsssssP>
0

>  <NsSH>
0

>  <NdS>
0

>  <NssS>
0

>  <NaaS>
0

>  <NdssS>
0

>  <NddssS>
0

>  <NsCl>
0

>  <NsBr>
0

>  <NsI>
0

>  <fragCpx>
355.06

>  <fMF>
0.46

>  <nHBAcc>
6

>  <nHBDon>
0

>  <Kier1>
20.6

>  <Kier2>
7.8

>  <Lipinski>
1

>  <GhoseFilter>
1

>  <FilterItLogS>
-4.66

>  <VMcGowan>
297.2

>  <LabuteASA>
175.69

>  <PEOE_VSA1>
19.11

>  <PEOE_VSA2>
4.98

>  <PEOE_VSA3>
4.79

>  <PEOE_VSA4>
0

>  <PEOE_VSA5>
0

>  <PEOE_VSA6>
6.07

>  <PEOE_VSA7>
68.96

>  <PEOE_VSA8>
29.41

>  <PEOE_VSA9>
12.67

>  <PEOE_VSA10>
12.21

>  <PEOE_VSA11>
11.5

>  <PEOE_VSA12>
0

>  <PEOE_VSA13>
0

>  <SMR_VSA1>
19.01

>  <SMR_VSA2>
0

>  <SMR_VSA3>
9.88

>  <SMR_VSA4>
5.92

>  <SMR_VSA5>
49.35

>  <SMR_VSA6>
20.7

>  <SMR_VSA7>
53.35

>  <SMR_VSA8>
0

>  <SMR_VSA9>
11.5

>  <SlogP_VSA1>
9.47

>  <SlogP_VSA2>
54.81

>  <SlogP_VSA3>
16.57

>  <SlogP_VSA4>
5.92

>  <SlogP_VSA5>
40.75

>  <SlogP_VSA6>
36.66

>  <SlogP_VSA7>
0

>  <SlogP_VSA8>
0

>  <SlogP_VSA9>
0

>  <SlogP_VSA10>
0

>  <SlogP_VSA11>
11.5

>  <EState_VSA1>
0

>  <EState_VSA2>
23.59

>  <EState_VSA3>
17.52

>  <EState_VSA4>
43.73

>  <EState_VSA5>
11.13

>  <EState_VSA6>
31.64

>  <EState_VSA7>
6.07

>  <EState_VSA8>
23

>  <EState_VSA9>
14.21

>  <EState_VSA10>
4.79

>  <VSA_EState1>
18.38

>  <VSA_EState2>
19.4

>  <VSA_EState3>
0

>  <VSA_EState4>
3.06

>  <VSA_EState5>
1.84

>  <VSA_EState6>
8.24

>  <VSA_EState7>
6.69

>  <VSA_EState8>
1.03

>  <VSA_EState9>
3.94

>  <apol>
62.82

>  <bpol>
35.01

>  <nRing>
6

>  <nHRing>
3

>  <naRing>
2

>  <naHRing>
1

>  <nARing 2>
4

>  <nAHRing 2>
2

>  <nFRing>
1

>  <nFHRing>
1

>  <nFaRing>
0

>  <nFaHRing>
0

>  <nFARing 2>
1

>  <nFAHRing 2>
1

>  <nRot>
3

>  <SLogP>
2.98

>  <SMR>
109.99

>  <TopoPSA(NO)>
60.89

>  <TopoPSA>
60.89

>  <JGI1>
0.17

>  <JGI2>
0.09

>  <JGI3>
0.05

>  <JGI4>
0.05

>  <JGI5>
0.03

>  <Diameter>
12

>  <Radius>
6

>  <TMWC10>
146.29

>  <TSRW10>
81.76

>  <MW>
406.19

>  <AMW>
7.25

>  <WPath>
2168

>  <WPol>
64

>  <Zagreb1>
178

>  <Zagreb2>
227

>  <mZagreb2>
6.4

>  <yes>


>  <nAR-cont>
0.199399

>  <nHA-cont>
0.74523694

>  <MWHBN>
0.297705348

>  <MWHBN-cont>
0.847539965

>  <TPSA-cont>
0.57494999

>  <pka_cont>
0.97

>  <yes.1>


>  <BBB_SCORE>
3.850845866

>  <MMFF94 Energy>
121

$$$$
Compound 1560
Actelion Java MolfileCreator 2.0

  0  0  0  0  0  0              0 V3000
M  V30 BEGIN CTAB
M  V30 COUNTS 48 52 0 0 0
M  V30 BEGIN ATOM
M  V30 1 O -0.5661 3.806 -1.0516 0
M  V30 2 C -1.6598 3.4366 -1.4591 0
M  V30 3 O -2.3833 2.3457 -1.0411 0
M  V30 4 C -2.441 4.1597 -2.5157 0
M  V30 5 C -1.7248 1.4947 -0.132 0
M  V30 6 C -1.4131 1.8866 1.1164 0
M  V30 7 C -1.4426 0.1068 -0.6757 0
M  V30 8 C -0.6888 1.0179 2.104 0
M  V30 9 O -0.6136 0.2185 -1.8812 0
M  V30 10 C -0.6985 -0.8152 0.3069 0
M  V30 11 C -0.8172 -0.485 1.7955 0
M  V30 12 C 0.6703 0.0101 -1.4259 0
M  V30 13 C 0.6859 -0.5239 -0.1521 0
M  V30 14 C -1.0326 -2.3049 0.0867 0
M  V30 15 C 0.2397 -1.3627 2.5293 0
M  V30 16 C 1.847 0.3272 -2.0769 0
M  V30 17 C 1.8367 -0.6759 0.5968 0
M  V30 18 C -0.181 -3.2311 0.9678 0
M  V30 19 N -0.0627 -2.8114 2.3728 0
M  V30 20 C 1.7125 -1.0672 2.0489 0
M  V30 21 O 1.736 0.8223 -3.3431 0
M  V30 22 C 3.0421 0.119 -1.3676 0
M  V30 23 C 3.0371 -0.3604 -0.0356 0
M  V30 24 C -1.2152 -3.2402 3.1632 0
M  V30 25 C 2.927 1.3043 -3.948 0
M  V30 26 H -2.6427 3.4872 -3.3533 0
M  V30 27 H -3.3742 4.5391 -2.0922 0
M  V30 28 H -1.8542 5.0054 -2.8854 0
M  V30 29 H -1.6338 2.9038 1.4308 0
M  V30 30 H -2.3991 -0.338 -0.9777 0
M  V30 31 H -1.1026 1.2004 3.1036 0
M  V30 32 H 0.3552 1.346 2.1429 0
M  V30 33 H -1.8253 -0.7659 2.1307 0
M  V30 34 H -0.8927 -2.5921 -0.9633 0
M  V30 35 H -2.0937 -2.4709 0.3148 0
M  V30 36 H 0.2186 -1.1349 3.6035 0
M  V30 37 H -0.5748 -4.2538 0.9048 0
M  V30 38 H 0.8273 -3.3058 0.5432 0
M  V30 39 H 2.0976 -0.2316 2.648 0
M  V30 40 H 2.3602 -1.9275 2.258 0
M  V30 41 H 4.0058 0.3459 -1.8126 0
M  V30 42 H 3.98 -0.4621 0.4965 0
M  V30 43 H -1.2929 -4.3332 3.1549 0
M  V30 44 H -2.164 -2.8349 2.7988 0
M  V30 45 H -1.0961 -2.9495 4.2128 0
M  V30 46 H 3.3811 2.103 -3.352 0
M  V30 47 H 2.6606 1.7267 -4.9216 0
M  V30 48 H 3.6367 0.4891 -4.1225 0
M  V30 END ATOM
M  V30 BEGIN BOND
M  V30 1 2 1 2
M  V30 2 1 2 3
M  V30 3 1 2 4
M  V30 4 1 3 5
M  V30 5 2 5 6
M  V30 6 1 5 7
M  V30 7 1 6 8
M  V30 8 1 7 9
M  V30 9 1 7 10
M  V30 10 1 8 11
M  V30 11 1 9 12
M  V30 12 1 10 13
M  V30 13 1 10 14
M  V30 14 1 11 15
M  V30 15 1 12 16
M  V30 16 1 13 17
M  V30 17 1 14 18
M  V30 18 1 15 19
M  V30 19 1 15 20
M  V30 20 1 16 21
M  V30 21 2 16 22
M  V30 22 2 17 23
M  V30 23 1 19 24
M  V30 24 1 21 25
M  V30 25 1 10 11
M  V30 26 2 12 13
M  V30 27 1 17 20
M  V30 28 1 18 19
M  V30 29 1 22 23
M  V30 30 1 4 26
M  V30 31 1 4 27
M  V30 32 1 4 28
M  V30 33 1 6 29
M  V30 34 1 7 30
M  V30 35 1 8 31
M  V30 36 1 8 32
M  V30 37 1 11 33
M  V30 38 1 14 34
M  V30 39 1 14 35
M  V30 40 1 15 36
M  V30 41 1 18 37
M  V30 42 1 18 38
M  V30 43 1 20 39
M  V30 44 1 20 40
M  V30 45 1 22 41
M  V30 46 1 23 42
M  V30 47 1 24 43
M  V30 48 1 24 44
M  V30 49 1 24 45
M  V30 50 1 25 46
M  V30 51 1 25 47
M  V30 52 1 25 48
M  V30 END BOND
M  V30 END CTAB
M  END
>  <Column 1>
1891

>  <level_0>
2057

>  <index>
2057

>  <Unnamed: 0>
2057

>  <NO.>
2069

>  <Name>
thebacon

>  <IUPAC_name>
(9-methoxy-3-methyl-2-4-4a-5-7a-13-hexahydro-1h-4-12-methanobenzofuro[3-2-e]isoquinolin-7-yl) acetate

>  <SMILES>
COc1ccc2c3c1OC1C(OC(C)=O)=CCC4C(C2)N(C)CCC314

>  <CID>
10075

>  <logBB>


>  <BBB+/BBB->
BBB+

>  <Inchi>
InChI=1S/C20H23NO4/c1-11(22)24-16-7-5-13-14-10-12-4-6-15(23-3)18-17(12)20(13-19(16)25-18)8-9-21(14)2/h4-6-7-13-14-19H-5-8-10H2-1-3H3

>  <threshold>
-1

>  <reference>
R1|R19|R27|R27|R30|

>  <group>
B

>  <Class>
1

>  <ABC>
20.41

>  <ABCGG>
15.53

>  <nAcid>
0

>  <nBase>
1

>  <nAromAtom>
6

>  <nAromBond>
6

>  <nAtom>
48

>  <nHeavyAtom>
25

>  <nSpiro>
1

>  <nBridgehead>
2

>  <nHetero>
5

>  <nN>
1

>  <nO>
4

>  <nF>
0

>  <BalabanJ>
1.57

>  <BertzCT>
801.13

>  <nBonds>
52

>  <nBondsO>
29

>  <nBondsS>
44

>  <nBondsD>
2

>  <nBondsT>
0

>  <nBondsA>
6

>  <nBondsM>
8

>  <nBondsKS>
47

>  <nBondsKD>
5

>  <RNCG>
0.23

>  <RPCG>
0.14

>  <FCSP3>
0.55

>  <SZ>
30.33

>  <Sm>
28.42

>  <Sv>
29.85

>  <Sse>
48.2

>  <Sp>
31.76

>  <Si>
53.9

>  <MZ>
0.63

>  <Mm>
0.59

>  <Mv>
0.62

>  <Mse>
1

>  <Mp>
0.66

>  <Mi>
1.12

>  <NsCH3>
3

>  <NdCH2>
0

>  <NssCH2>
4

>  <NtCH>
0

>  <NdsCH>
1

>  <NaaCH>
2

>  <NsssCH>
3

>  <NddC>
0

>  <NtsC>
0

>  <NdssC>
2

>  <NaasC>
4

>  <NaaaC>
0

>  <NssssC>
1

>  <NsNH3>
0

>  <NsNH2>
0

>  <NssNH2>
0

>  <NdNH>
0

>  <NssNH>
0

>  <NaaNH>
0

>  <NtN>
0

>  <NsssNH>
0

>  <NdsN>
0

>  <NaaN>
0

>  <NsssN>
1

>  <NddsN>
0

>  <NaasN>
0

>  <NssssN>
0

>  <NsOH>
0

>  <NdO>
1

>  <NssO>
3

>  <NaaO>
0

>  <NsF>
0

>  <NsSiH3>
0

>  <NssSiH2>
0

>  <NsssSiH>
0

>  <NssssSi>
0

>  <NsPH2>
0

>  <NssPH>
0

>  <NsssP>
0

>  <NdsssP>
0

>  <NsssssP>
0

>  <NsSH>
0

>  <NdS>
0

>  <NssS>
0

>  <NaaS>
0

>  <NdssS>
0

>  <NddssS>
0

>  <NsCl>
0

>  <NsBr>
0

>  <NsI>
0

>  <fragCpx>
241.05

>  <fMF>
0.38

>  <nHBAcc>
5

>  <nHBDon>
0

>  <Kier1>
17.12

>  <Kier2>
6

>  <Lipinski>
1

>  <GhoseFilter>
1

>  <FilterItLogS>
-3.54

>  <VMcGowan>
250.32

>  <LabuteASA>
147.09

>  <PEOE_VSA1>
19.11

>  <PEOE_VSA2>
4.79

>  <PEOE_VSA3>
0

>  <PEOE_VSA4>
0

>  <PEOE_VSA5>
0

>  <PEOE_VSA6>
6.07

>  <PEOE_VSA7>
56.48

>  <PEOE_VSA8>
23.94

>  <PEOE_VSA9>
7.11

>  <PEOE_VSA10>
5.76

>  <PEOE_VSA11>
17.6

>  <PEOE_VSA12>
0

>  <PEOE_VSA13>
0

>  <SMR_VSA1>
19.01

>  <SMR_VSA2>
0

>  <SMR_VSA3>
4.9

>  <SMR_VSA4>
5.92

>  <SMR_VSA5>
43.75

>  <SMR_VSA6>
20.7

>  <SMR_VSA7>
35.09

>  <SMR_VSA8>
0

>  <SMR_VSA9>
11.5

>  <SlogP_VSA1>
9.47

>  <SlogP_VSA2>
43.72

>  <SlogP_VSA3>
21.37

>  <SlogP_VSA4>
5.92

>  <SlogP_VSA5>
30.89

>  <SlogP_VSA6>
23.97

>  <SlogP_VSA7>
0

>  <SlogP_VSA8>
0

>  <SlogP_VSA9>
0

>  <SlogP_VSA10>
0

>  <SlogP_VSA11>
11.5

>  <EState_VSA1>
0

>  <EState_VSA2>
17.49

>  <EState_VSA3>
17.72

>  <EState_VSA4>
37.31

>  <EState_VSA5>
18.05

>  <EState_VSA6>
7.11

>  <EState_VSA7>
6.07

>  <EState_VSA8>
24.09

>  <EState_VSA9>
14.21

>  <EState_VSA10>
4.79

>  <VSA_EState1>
17.62

>  <VSA_EState2>
14.12

>  <VSA_EState3>
0

>  <VSA_EState4>
2.56

>  <VSA_EState5>
2.52

>  <VSA_EState6>
4.7

>  <VSA_EState7>
4.83

>  <VSA_EState8>
2.49

>  <VSA_EState9>
3.91

>  <apol>
53.04

>  <bpol>
30.86

>  <nRing>
5

>  <nHRing>
2

>  <naRing>
1

>  <naHRing>
0

>  <nARing 2>
4

>  <nAHRing 2>
2

>  <nFRing>
1

>  <nFHRing>
1

>  <nFaRing>
0

>  <nFaHRing>
0

>  <nFARing 2>
1

>  <nFAHRing 2>
1

>  <nRot>
2

>  <SLogP>
2.42

>  <SMR>
91.78

>  <TopoPSA(NO)>
48

>  <TopoPSA>
48

>  <JGI1>
0.21

>  <JGI2>
0.09

>  <JGI3>
0.05

>  <JGI4>
0.05

>  <JGI5>
0.03

>  <Diameter>
9

>  <Radius>
5

>  <TMWC10>
134.22

>  <TSRW10>
76.03

>  <MW>
341.16

>  <AMW>
7.11

>  <WPath>
1220

>  <WPol>
55

>  <Zagreb1>
150

>  <Zagreb2>
193

>  <mZagreb2>
5.29

>  <yes>


>  <nAR-cont>
0.199399

>  <nHA-cont>
0.921834225

>  <MWHBN>
0.27070168

>  <MWHBN-cont>
0.918511627

>  <TPSA-cont>
0.664930194

>  <pka_cont>
0.97

>  <yes.1>


>  <BBB_SCORE>
4.313861052

>  <MMFF94 Energy>
101.71

$$$$
Compound 1561
Actelion Java MolfileCreator 2.0

  0  0  0  0  0  0              0 V3000
M  V30 BEGIN CTAB
M  V30 COUNTS 56 59 0 0 0
M  V30 BEGIN ATOM
M  V30 1 O -1.1941 -1.672 -2.6285 0
M  V30 2 C -1.3678 -0.6012 -2.0643 0
M  V30 3 N -0.4313 0.0056 -1.25 0
M  V30 4 C -2.6315 0.1555 -2.2147 0
M  V30 5 C 0.8512 -0.6226 -0.9614 0
M  V30 6 C -3.8675 -0.4289 -1.9094 0
M  V30 7 C -2.5719 1.4794 -2.668 0
M  V30 8 C 1.9111 0.4314 -0.6056 0
M  V30 9 C 0.707 -1.6955 0.1317 0
M  V30 10 O -3.9308 -1.735 -1.4887 0
M  V30 11 C -5.0561 0.3011 -2.0882 0
M  V30 12 C -3.747 2.2121 -2.8222 0
M  V30 13 C 3.1521 -0.1861 0.0648 0 CFG=1
M  V30 14 C 2.0634 -2.1091 0.7306 0 CFG=2
M  V30 15 C -3.9537 -1.8023 -0.0645 0
M  V30 16 O -6.2228 -0.3499 -1.7795 0
M  V30 17 C -4.9833 1.6262 -2.5332 0
M  V30 18 N 2.8102 -0.9633 1.2615 0
M  V30 19 C 3.7652 -1.2976 -0.7977 0
M  V30 20 C 3.0416 -2.5762 -0.3543 0
M  V30 21 C -7.4342 0.241 -2.23 0
M  V30 22 C 2.1678 -0.247 2.3602 0
M  V30 23 C 3.0706 0.7928 2.9909 0
M  V30 24 C 4.2975 0.4181 3.5593 0
M  V30 25 C 2.6922 2.1425 3.0292 0
M  V30 26 C 5.1286 1.3716 4.1485 0
M  V30 27 C 3.5246 3.0953 3.6198 0
M  V30 28 C 4.7416 2.7097 4.179 0
M  V30 29 H -0.6844 0.8519 -0.7571 0
M  V30 30 H 1.1696 -1.123 -1.8851 0
M  V30 31 H -1.617 1.9319 -2.924 0
M  V30 32 H 1.4806 1.1998 0.0483 0
M  V30 33 H 2.2103 0.9592 -1.5204 0
M  V30 34 H 0.2099 -2.5782 -0.2906 0
M  V30 35 H 0.0419 -1.3371 0.9276 0
M  V30 36 H -3.7048 3.2384 -3.18 0
M  V30 37 H 3.8979 0.5903 0.2657 0
M  V30 38 H 1.9222 -2.891 1.4846 0
M  V30 39 H -3.0584 -1.3443 0.37 0
M  V30 40 H -3.9641 -2.8584 0.2204 0
M  V30 41 H -4.8545 -1.3331 0.3449 0
M  V30 42 H -5.8747 2.2311 -2.666 0
M  V30 43 H 4.8374 -1.3986 -0.5885 0
M  V30 44 H 3.6538 -1.1152 -1.8714 0
M  V30 45 H 2.5438 -3.0767 -1.1912 0
M  V30 46 H 3.7729 -3.2787 0.064 0
M  V30 47 H -7.6531 1.1562 -1.6707 0
M  V30 48 H -8.2445 -0.4681 -2.0357 0
M  V30 49 H -7.4102 0.4323 -3.308 0
M  V30 50 H 1.2225 0.219 2.0612 0
M  V30 51 H 1.9087 -0.9609 3.1535 0
M  V30 52 H 4.61 -0.6238 3.5322 0
M  V30 53 H 1.7467 2.4616 2.5983 0
M  V30 54 H 6.0783 1.0687 4.5808 0
M  V30 55 H 3.2239 4.1393 3.6441 0
M  V30 56 H 5.3895 3.4519 4.6375 0
M  V30 END ATOM
M  V30 BEGIN BOND
M  V30 1 2 1 2
M  V30 2 1 2 3
M  V30 3 1 2 4
M  V30 4 1 3 5
M  V30 5 2 4 6
M  V30 6 1 4 7
M  V30 7 1 5 8
M  V30 8 1 5 9
M  V30 9 1 6 10
M  V30 10 1 6 11
M  V30 11 2 7 12
M  V30 12 1 8 13
M  V30 13 1 9 14
M  V30 14 1 10 15
M  V30 15 1 11 16
M  V30 16 2 11 17
M  V30 17 1 13 18
M  V30 18 1 13 19
M  V30 19 1 14 20
M  V30 20 1 16 21
M  V30 21 1 18 22
M  V30 22 1 22 23
M  V30 23 2 23 24
M  V30 24 1 23 25
M  V30 25 1 24 26
M  V30 26 2 25 27
M  V30 27 2 26 28
M  V30 28 1 12 17
M  V30 29 1 14 18
M  V30 30 1 19 20
M  V30 31 1 27 28
M  V30 32 1 3 29
M  V30 33 1 5 30
M  V30 34 1 7 31
M  V30 35 1 8 32
M  V30 36 1 8 33
M  V30 37 1 9 34
M  V30 38 1 9 35
M  V30 39 1 12 36
M  V30 40 1 13 37
M  V30 41 1 14 38
M  V30 42 1 15 39
M  V30 43 1 15 40
M  V30 44 1 15 41
M  V30 45 1 17 42
M  V30 46 1 19 43
M  V30 47 1 19 44
M  V30 48 1 20 45
M  V30 49 1 20 46
M  V30 50 1 21 47
M  V30 51 1 21 48
M  V30 52 1 21 49
M  V30 53 1 22 50
M  V30 54 1 22 51
M  V30 55 1 24 52
M  V30 56 1 25 53
M  V30 57 1 26 54
M  V30 58 1 27 55
M  V30 59 1 28 56
M  V30 END BOND
M  V30 BEGIN COLLECTION
M  V30 MDLV30/STEABS ATOMS=(2 13 14)
M  V30 END COLLECTION
M  V30 END CTAB
M  END
>  <Column 1>
1892

>  <level_0>
2058

>  <index>
2058

>  <Unnamed: 0>
2058

>  <NO.>
2070

>  <Name>
tropapride

>  <IUPAC_name>
n-[(1s-5r)-8-benzyl-8-azabicyclo[3.2.1]octan-3-yl]-2-3-dimethoxybenzamide

>  <SMILES>
COc1cccc(C(=O)NC2C[C@@H]3CC[C@H](C2)N3Cc2ccccc2)c1OC

>  <CID>
71148

>  <logBB>


>  <BBB+/BBB->
BBB+

>  <Inchi>
InChI=1S/C23H28N2O3/c1-27-21-10-6-9-20(22(21)28-2)23(26)24-17-13-18-11-12-19(14-17)25(18)15-16-7-4-3-5-8-16/h3-10-17-19H-11-15H2-1-2H3-(H-24-26)/t17?-18--19+

>  <threshold>
-1

>  <reference>
R1|R6|R24|R27|R27|R30|R30|

>  <group>
B

>  <Class>
-1

>  <ABC>
21.83

>  <ABCGG>
17.18

>  <nAcid>
0

>  <nBase>
1

>  <nAromAtom>
12

>  <nAromBond>
12

>  <nAtom>
56

>  <nHeavyAtom>
28

>  <nSpiro>
0

>  <nBridgehead>
2

>  <nHetero>
5

>  <nN>
2

>  <nO>
3

>  <nF>
0

>  <BalabanJ>
1.3

>  <BertzCT>
809.85

>  <nBonds>
59

>  <nBondsO>
31

>  <nBondsS>
46

>  <nBondsD>
1

>  <nBondsT>
0

>  <nBondsA>
12

>  <nBondsM>
13

>  <nBondsKS>
52

>  <nBondsKD>
7

>  <RNCG>
0.2

>  <RPCG>
0.1

>  <FCSP3>
0.43

>  <SZ>
34

>  <Sm>
31.68

>  <Sv>
34.25

>  <Sse>
55.75

>  <Sp>
36.94

>  <Si>
63.02

>  <MZ>
0.61

>  <Mm>
0.57

>  <Mv>
0.61

>  <Mse>
1

>  <Mp>
0.66

>  <Mi>
1.13

>  <NsCH3>
2

>  <NdCH2>
0

>  <NssCH2>
5

>  <NtCH>
0

>  <NdsCH>
0

>  <NaaCH>
8

>  <NsssCH>
3

>  <NddC>
0

>  <NtsC>
0

>  <NdssC>
1

>  <NaasC>
4

>  <NaaaC>
0

>  <NssssC>
0

>  <NsNH3>
0

>  <NsNH2>
0

>  <NssNH2>
0

>  <NdNH>
0

>  <NssNH>
1

>  <NaaNH>
0

>  <NtN>
0

>  <NsssNH>
0

>  <NdsN>
0

>  <NaaN>
0

>  <NsssN>
1

>  <NddsN>
0

>  <NaasN>
0

>  <NssssN>
0

>  <NsOH>
0

>  <NdO>
1

>  <NssO>
2

>  <NaaO>
0

>  <NsF>
0

>  <NsSiH3>
0

>  <NssSiH2>
0

>  <NsssSiH>
0

>  <NssssSi>
0

>  <NsPH2>
0

>  <NssPH>
0

>  <NsssP>
0

>  <NdsssP>
0

>  <NsssssP>
0

>  <NsSH>
0

>  <NdS>
0

>  <NssS>
0

>  <NaaS>
0

>  <NdssS>
0

>  <NddssS>
0

>  <NsCl>
0

>  <NsBr>
0

>  <NsI>
0

>  <fragCpx>
205.05

>  <fMF>
0.41

>  <nHBAcc>
4

>  <nHBDon>
1

>  <Kier1>
21.24

>  <Kier2>
9.87

>  <Lipinski>
1

>  <GhoseFilter>
1

>  <FilterItLogS>
-4.89

>  <VMcGowan>
298.96

>  <LabuteASA>
166.19

>  <PEOE_VSA1>
14.79

>  <PEOE_VSA2>
9.69

>  <PEOE_VSA3>
0

>  <PEOE_VSA4>
0

>  <PEOE_VSA5>
0

>  <PEOE_VSA6>
36.4

>  <PEOE_VSA7>
43.38

>  <PEOE_VSA8>
24.67

>  <PEOE_VSA9>
19.78

>  <PEOE_VSA10>
0

>  <PEOE_VSA11>
11.5

>  <PEOE_VSA12>
0

>  <PEOE_VSA13>
5.91

>  <SMR_VSA1>
14.27

>  <SMR_VSA2>
0

>  <SMR_VSA3>
10.22

>  <SMR_VSA4>
0

>  <SMR_VSA5>
50.35

>  <SMR_VSA6>
14.22

>  <SMR_VSA7>
59.66

>  <SMR_VSA8>
0

>  <SMR_VSA9>
11.5

>  <SlogP_VSA1>
14.79

>  <SlogP_VSA2>
43.15

>  <SlogP_VSA3>
6.54

>  <SlogP_VSA4>
0

>  <SlogP_VSA5>
41.6

>  <SlogP_VSA6>
48.53

>  <SlogP_VSA7>
0

>  <SlogP_VSA8>
0

>  <SlogP_VSA9>
0

>  <SlogP_VSA10>
0

>  <SlogP_VSA11>
11.5

>  <EState_VSA1>
0

>  <EState_VSA2>
11.95

>  <EState_VSA3>
29.15

>  <EState_VSA4>
19.39

>  <EState_VSA5>
18.41

>  <EState_VSA6>
26.35

>  <EState_VSA7>
6.07

>  <EState_VSA8>
40.55

>  <EState_VSA9>
9.47

>  <EState_VSA10>
4.79

>  <VSA_EState1>
10.74

>  <VSA_EState2>
15.54

>  <VSA_EState3>
3.25

>  <VSA_EState4>
1.89

>  <VSA_EState5>
0.98

>  <VSA_EState6>
17.35

>  <VSA_EState7>
4.43

>  <VSA_EState8>
1

>  <VSA_EState9>
3.15

>  <apol>
61.69

>  <bpol>
34.71

>  <nRing>
4

>  <nHRing>
2

>  <naRing>
2

>  <naHRing>
0

>  <nARing 2>
2

>  <nAHRing 2>
2

>  <nFRing>
1

>  <nFHRing>
1

>  <nFaRing>
0

>  <nFaHRing>
0

>  <nFARing 2>
1

>  <nFAHRing 2>
1

>  <nRot>
6

>  <SLogP>
3.63

>  <SMR>
108.83

>  <TopoPSA(NO)>
50.8

>  <TopoPSA>
50.8

>  <JGI1>
0.16

>  <JGI2>
0.07

>  <JGI3>
0.05

>  <JGI4>
0.04

>  <JGI5>
0.02

>  <Diameter>
15

>  <Radius>
8

>  <TMWC10>
135.73

>  <TSRW10>
77.68

>  <MW>
380.21

>  <AMW>
6.79

>  <WPath>
2206

>  <WPol>
45

>  <Zagreb1>
148

>  <Zagreb2>
176

>  <mZagreb2>
6.31

>  <yes>


>  <nAR-cont>
1

>  <nHA-cont>
0.82432561

>  <MWHBN>
0.256423744

>  <MWHBN-cont>
0.948333006

>  <TPSA-cont>
0.645384455

>  <pka_cont>
0.97

>  <yes.1>


>  <BBB_SCORE>
5.022594029

>  <MMFF94 Energy>
74.389

$$$$
Compound 1562
Actelion Java MolfileCreator 2.0

  0  0  0  0  0  0              0 V3000
M  V30 BEGIN CTAB
M  V30 COUNTS 56 58 0 0 0
M  V30 BEGIN ATOM
M  V30 1 O -1.0301 -2.5372 2.4579 0
M  V30 2 C -0.8297 -1.9678 1.3804 0
M  V30 3 N 0.0363 -0.8822 1.2785 0
M  V30 4 C -1.5328 -2.4822 0.1288 0
M  V30 5 C 0.217 -0.051 0.058 0 CFG=2
M  V30 6 C 0.7392 -0.4619 2.5006 0
M  V30 7 C -0.6596 -3.3338 -0.7677 0
M  V30 8 C 1.6418 0.5423 -0.0949 0
M  V30 9 C -0.9191 0.9953 -0.1795 0
M  V30 10 C 2.1646 0.0299 2.2459 0
M  V30 11 C -0.7413 -3.1912 -2.1657 0
M  V30 12 C 0.1972 -4.3056 -0.2332 0
M  V30 13 N 2.2033 1.0146 1.1702 0
M  V30 14 N -0.7476 2.3501 0.3576 0
M  V30 15 C 0.0471 -3.9761 -3.0105 0
M  V30 16 C 0.987 -5.0881 -1.0735 0
M  V30 17 C 2.711 2.2778 1.4097 0
M  V30 18 C -1.0219 2.4675 1.8006 0
M  V30 19 C -1.6628 3.3048 -0.2857 0
M  V30 20 O 0.0659 -3.919 -4.3769 0
M  V30 21 C 0.9152 -4.9173 -2.4552 0
M  V30 22 O 3.0735 2.6437 2.5289 0
M  V30 23 C 2.8198 3.2193 0.2376 0
M  V30 24 C -1.6206 3.8683 2.0138 0 CFG=1
M  V30 25 C -1.5953 4.5069 0.637 0
M  V30 26 C -0.8708 -3.0506 -5.0008 0
M  V30 27 O -2.9779 3.7776 2.4486 0
M  V30 28 H -1.9579 -1.6388 -0.4228 0
M  V30 29 H -2.3881 -3.0915 0.4483 0
M  V30 30 H 0.1201 -0.7381 -0.7885 0
M  V30 31 H 0.7812 -1.2864 3.2208 0
M  V30 32 H 0.1373 0.321 2.9667 0
M  V30 33 H 1.6552 1.312 -0.8703 0
M  V30 34 H 2.3171 -0.2535 -0.4354 0
M  V30 35 H -1.8876 0.5816 0.1286 0
M  V30 36 H -0.9778 1.0986 -1.273 0
M  V30 37 H 2.797 -0.8094 1.9317 0
M  V30 38 H 2.5899 0.4281 3.1724 0
M  V30 39 H -1.4288 -2.4569 -2.5734 0
M  V30 40 H 0.2563 -4.4648 0.8428 0
M  V30 41 H 1.6545 -5.8357 -0.6526 0
M  V30 42 H -0.0799 2.3987 2.3492 0
M  V30 43 H -1.7087 1.6948 2.1651 0
M  V30 44 H -2.6887 2.9167 -0.333 0
M  V30 45 H -1.3342 3.5604 -1.298 0
M  V30 46 H 1.5321 -5.5319 -3.1062 0
M  V30 47 H 3.4 2.7584 -0.5662 0
M  V30 48 H 1.8268 3.4967 -0.122 0
M  V30 49 H 3.3386 4.1304 0.5514 0
M  V30 50 H -1.0618 4.4634 2.7431 0
M  V30 51 H -0.6497 5.0415 0.4845 0
M  V30 52 H -2.4261 5.1977 0.4637 0
M  V30 53 H -1.8992 -3.3284 -4.7466 0
M  V30 54 H -0.7553 -3.1564 -6.0838 0
M  V30 55 H -0.6686 -2.0052 -4.7451 0
M  V30 56 H -2.9679 3.3936 3.3427 0
M  V30 END ATOM
M  V30 BEGIN BOND
M  V30 1 2 1 2
M  V30 2 1 2 3
M  V30 3 1 2 4
M  V30 4 1 3 5
M  V30 5 1 3 6
M  V30 6 1 4 7
M  V30 7 1 5 8
M  V30 8 1 5 9
M  V30 9 1 6 10
M  V30 10 2 7 11
M  V30 11 1 7 12
M  V30 12 1 8 13
M  V30 13 1 9 14
M  V30 14 1 11 15
M  V30 15 2 12 16
M  V30 16 1 13 17
M  V30 17 1 14 18
M  V30 18 1 14 19
M  V30 19 1 15 20
M  V30 20 2 15 21
M  V30 21 2 17 22
M  V30 22 1 17 23
M  V30 23 1 18 24
M  V30 24 1 19 25
M  V30 25 1 20 26
M  V30 26 1 24 27
M  V30 27 1 10 13
M  V30 28 1 16 21
M  V30 29 1 24 25
M  V30 30 1 4 28
M  V30 31 1 4 29
M  V30 32 1 5 30
M  V30 33 1 6 31
M  V30 34 1 6 32
M  V30 35 1 8 33
M  V30 36 1 8 34
M  V30 37 1 9 35
M  V30 38 1 9 36
M  V30 39 1 10 37
M  V30 40 1 10 38
M  V30 41 1 11 39
M  V30 42 1 12 40
M  V30 43 1 16 41
M  V30 44 1 18 42
M  V30 45 1 18 43
M  V30 46 1 19 44
M  V30 47 1 19 45
M  V30 48 1 21 46
M  V30 49 1 23 47
M  V30 50 1 23 48
M  V30 51 1 23 49
M  V30 52 1 24 50
M  V30 53 1 25 51
M  V30 54 1 25 52
M  V30 55 1 26 53
M  V30 56 1 26 54
M  V30 57 1 26 55
M  V30 58 1 27 56
M  V30 END BOND
M  V30 BEGIN COLLECTION
M  V30 MDLV30/STEABS ATOMS=(2 5 24)
M  V30 END COLLECTION
M  V30 END CTAB
M  END
>  <Column 1>
1893

>  <level_0>
2059

>  <index>
2059

>  <Unnamed: 0>
2059

>  <NO.>
2071

>  <Name>
chembl71421

>  <IUPAC_name>
1-[(2s)-4-acetyl-2-[[(3r)-3-hydroxypyrrolidin-1-yl]methyl]piperazin-1-yl]-2-(3-methoxyphenyl)ethanone

>  <SMILES>
COc1cccc(CC(=O)N2CCN(C(C)=O)C[C@@H]2CN2CC[C@@H](O)C2)c1

>  <CID>
44310775

>  <logBB>


>  <BBB+/BBB->
BBB-

>  <Inchi>
InChI=1S/C20H29N3O4/c1-15(24)22-8-9-23(17(13-22)12-21-7-6-18(25)14-21)20(26)11-16-4-3-5-19(10-16)27-2/h3-5-10-17-18-25H-6-9-11-14H2-1-2H3/t17--18+/m0/s1

>  <threshold>
-1

>  <reference>
R1|R28|R9|R24|R27|R30|

>  <group>
B

>  <Class>
-1

>  <ABC>
20.82

>  <ABCGG>
17.03

>  <nAcid>
0

>  <nBase>
1

>  <nAromAtom>
6

>  <nAromBond>
6

>  <nAtom>
56

>  <nHeavyAtom>
27

>  <nSpiro>
0

>  <nBridgehead>
0

>  <nHetero>
7

>  <nN>
3

>  <nO>
4

>  <nF>
0

>  <BalabanJ>
1.59

>  <BertzCT>
680.95

>  <nBonds>
58

>  <nBondsO>
29

>  <nBondsS>
50

>  <nBondsD>
2

>  <nBondsT>
0

>  <nBondsA>
6

>  <nBondsM>
8

>  <nBondsKS>
53

>  <nBondsKD>
5

>  <RNCG>
0.19

>  <RPCG>
0.09

>  <FCSP3>
0.6

>  <SZ>
33.67

>  <Sm>
31.26

>  <Sv>
32.99

>  <Sse>
56.19

>  <Sp>
35.48

>  <Si>
63.73

>  <MZ>
0.6

>  <Mm>
0.56

>  <Mv>
0.59

>  <Mse>
1

>  <Mp>
0.63

>  <Mi>
1.14

>  <NsCH3>
2

>  <NdCH2>
0

>  <NssCH2>
8

>  <NtCH>
0

>  <NdsCH>
0

>  <NaaCH>
4

>  <NsssCH>
2

>  <NddC>
0

>  <NtsC>
0

>  <NdssC>
2

>  <NaasC>
2

>  <NaaaC>
0

>  <NssssC>
0

>  <NsNH3>
0

>  <NsNH2>
0

>  <NssNH2>
0

>  <NdNH>
0

>  <NssNH>
0

>  <NaaNH>
0

>  <NtN>
0

>  <NsssNH>
0

>  <NdsN>
0

>  <NaaN>
0

>  <NsssN>
3

>  <NddsN>
0

>  <NaasN>
0

>  <NssssN>
0

>  <NsOH>
1

>  <NdO>
2

>  <NssO>
1

>  <NaaO>
0

>  <NsF>
0

>  <NsSiH3>
0

>  <NssSiH2>
0

>  <NsssSiH>
0

>  <NssssSi>
0

>  <NsPH2>
0

>  <NssPH>
0

>  <NsssP>
0

>  <NdsssP>
0

>  <NsssssP>
0

>  <NsSH>
0

>  <NdS>
0

>  <NssS>
0

>  <NaaS>
0

>  <NdssS>
0

>  <NddssS>
0

>  <NsCl>
0

>  <NsBr>
0

>  <NsI>
0

>  <fragCpx>
139.07

>  <fMF>
0.36

>  <nHBAcc>
5

>  <nHBDon>
1

>  <Kier1>
21.7

>  <Kier2>
10.16

>  <Lipinski>
1

>  <GhoseFilter>
1

>  <FilterItLogS>
-2.15

>  <VMcGowan>
292

>  <LabuteASA>
160.04

>  <PEOE_VSA1>
19.64

>  <PEOE_VSA2>
14.49

>  <PEOE_VSA3>
0

>  <PEOE_VSA4>
0

>  <PEOE_VSA5>
0

>  <PEOE_VSA6>
12.13

>  <PEOE_VSA7>
24.12

>  <PEOE_VSA8>
46.19

>  <PEOE_VSA9>
25.68

>  <PEOE_VSA10>
5.75

>  <PEOE_VSA11>
0

>  <PEOE_VSA12>
11.81

>  <PEOE_VSA13>
0

>  <SMR_VSA1>
19.43

>  <SMR_VSA2>
0

>  <SMR_VSA3>
14.7

>  <SMR_VSA4>
0

>  <SMR_VSA5>
31.91

>  <SMR_VSA6>
46.38

>  <SMR_VSA7>
29.83

>  <SMR_VSA8>
0

>  <SMR_VSA9>
5.75

>  <SlogP_VSA1>
4.74

>  <SlogP_VSA2>
90.14

>  <SlogP_VSA3>
16.01

>  <SlogP_VSA4>
0

>  <SlogP_VSA5>
18.91

>  <SlogP_VSA6>
24.27

>  <SlogP_VSA7>
0

>  <SlogP_VSA8>
0

>  <SlogP_VSA9>
0

>  <SlogP_VSA10>
0

>  <SlogP_VSA11>
5.75

>  <EState_VSA1>
0

>  <EState_VSA2>
23.96

>  <EState_VSA3>
39.14

>  <EState_VSA4>
24.28

>  <EState_VSA5>
0

>  <EState_VSA6>
14.03

>  <EState_VSA7>
34.07

>  <EState_VSA8>
4.9

>  <EState_VSA9>
4.74

>  <EState_VSA10>
14.7

>  <VSA_EState1>
5.24

>  <VSA_EState2>
30.74

>  <VSA_EState3>
9.79

>  <VSA_EState4>
0.92

>  <VSA_EState5>
0.85

>  <VSA_EState6>
7.51

>  <VSA_EState7>
0.79

>  <VSA_EState8>
5.38

>  <VSA_EState9>
1.61

>  <apol>
59.25

>  <bpol>
37.7

>  <nRing>
3

>  <nHRing>
2

>  <naRing>
1

>  <naHRing>
0

>  <nARing 2>
2

>  <nAHRing 2>
2

>  <nFRing>
0

>  <nFHRing>
0

>  <nFaRing>
0

>  <nFaHRing>
0

>  <nFARing 2>
0

>  <nFAHRing 2>
0

>  <nRot>
5

>  <SLogP>
0.36

>  <SMR>
101.52

>  <TopoPSA(NO)>
73.32

>  <TopoPSA>
73.32

>  <JGI1>
0.22

>  <JGI2>
0.07

>  <JGI3>
0.05

>  <JGI4>
0.04

>  <JGI5>
0.03

>  <Diameter>
13

>  <Radius>
7

>  <TMWC10>
131.21

>  <TSRW10>
75.38

>  <MW>
375.22

>  <AMW>
6.7

>  <WPath>
1923

>  <WPol>
39

>  <Zagreb1>
138

>  <Zagreb2>
159

>  <mZagreb2>
6

>  <yes>


>  <nAR-cont>
1

>  <nHA-cont>
0.860070871

>  <MWHBN>
0.309747822

>  <MWHBN-cont>
0.810671184

>  <TPSA-cont>
0.488180871

>  <pka_cont>
0.97

>  <yes.1>


>  <BBB_SCORE>
4.537439389

>  <MMFF94 Energy>
110.68

$$$$
Compound 1563
Actelion Java MolfileCreator 2.0

  0  0  0  0  0  0              0 V3000
M  V30 BEGIN CTAB
M  V30 COUNTS 46 48 0 0 0
M  V30 BEGIN ATOM
M  V30 1 S -1.6226 0.7299 1.379 0
M  V30 2 C -2.1122 -0.6757 2.4962 0
M  V30 3 C 0.0284 0.9815 2.1598 0 CFG=1
M  V30 4 C -1.0636 -0.7344 3.6294 0 CFG=1
M  V30 5 C -3.5528 -0.4418 2.9645 0
M  V30 6 C -2.0707 -1.9603 1.6508 0
M  V30 7 N 0.143 -0.138 3.0949 0
M  V30 8 C 1.2781 0.4115 1.4315 0 CFG=1
M  V30 9 C -1.457 0.0342 4.8867 0
M  V30 10 C 1.1046 -0.7907 2.3959 0
M  V30 11 N 1.1513 0.1062 -0.012 0
M  V30 12 O -1.2954 1.2226 5.1148 0
M  V30 13 O -2.0811 -0.7459 5.796 0
M  V30 14 O 1.5071 -1.9275 2.4779 0
M  V30 15 C 1.223 1.099 -0.9648 0
M  V30 16 O 1.438 2.2684 -0.6621 0
M  V30 17 C 1.0318 0.6728 -2.3838 0
M  V30 18 C 0.3155 1.5084 -3.2583 0
M  V30 19 C 1.574 -0.5358 -2.874 0
M  V30 20 O -0.3081 2.6455 -2.8119 0
M  V30 21 C 0.1117 1.1399 -4.5902 0
M  V30 22 O 2.2651 -1.3224 -1.9865 0
M  V30 23 C 1.3738 -0.884 -4.2177 0
M  V30 24 C 0.4393 3.8062 -3.1788 0
M  V30 25 C 0.6476 -0.0497 -5.0701 0
M  V30 26 C 3.0118 -2.4159 -2.5076 0
M  V30 27 H 0.1678 1.9566 2.6351 0
M  V30 28 H -0.8367 -1.7679 3.9186 0
M  V30 29 H -3.6726 0.5137 3.4874 0
M  V30 30 H -4.2547 -0.4404 2.1218 0
M  V30 31 H -3.8724 -1.2382 3.6463 0
M  V30 32 H -1.0785 -2.1546 1.2302 0
M  V30 33 H -2.3395 -2.8296 2.2624 0
M  V30 34 H -2.7817 -1.9199 0.8169 0
M  V30 35 H 2.2043 0.9623 1.6392 0
M  V30 36 H 1.0579 -0.8532 -0.3305 0
M  V30 37 H -2.2678 -0.1361 6.5422 0
M  V30 38 H -0.4806 1.7726 -5.246 0
M  V30 39 H 1.7607 -1.8092 -4.6333 0
M  V30 40 H 1.5078 3.6966 -2.9616 0
M  V30 41 H 0.0579 4.6491 -2.5949 0
M  V30 42 H 0.2932 4.0341 -4.2398 0
M  V30 43 H 0.4877 -0.3368 -6.1067 0
M  V30 44 H 2.3459 -3.1934 -2.8951 0
M  V30 45 H 3.5851 -2.8504 -1.683 0
M  V30 46 H 3.7239 -2.0847 -3.2706 0
M  V30 END ATOM
M  V30 BEGIN BOND
M  V30 1 1 1 2
M  V30 2 1 1 3
M  V30 3 1 2 4
M  V30 4 1 2 5
M  V30 5 1 2 6
M  V30 6 1 3 7
M  V30 7 1 3 8
M  V30 8 1 4 9
M  V30 9 1 7 10
M  V30 10 1 8 11
M  V30 11 2 9 12
M  V30 12 1 9 13
M  V30 13 2 10 14
M  V30 14 1 11 15
M  V30 15 2 15 16
M  V30 16 1 15 17
M  V30 17 2 17 18
M  V30 18 1 17 19
M  V30 19 1 18 20
M  V30 20 1 18 21
M  V30 21 1 19 22
M  V30 22 2 19 23
M  V30 23 1 20 24
M  V30 24 2 21 25
M  V30 25 1 22 26
M  V30 26 1 4 7
M  V30 27 1 8 10
M  V30 28 1 23 25
M  V30 29 1 3 27
M  V30 30 1 4 28
M  V30 31 1 5 29
M  V30 32 1 5 30
M  V30 33 1 5 31
M  V30 34 1 6 32
M  V30 35 1 6 33
M  V30 36 1 6 34
M  V30 37 1 8 35
M  V30 38 1 11 36
M  V30 39 1 13 37
M  V30 40 1 21 38
M  V30 41 1 23 39
M  V30 42 1 24 40
M  V30 43 1 24 41
M  V30 44 1 24 42
M  V30 45 1 25 43
M  V30 46 1 26 44
M  V30 47 1 26 45
M  V30 48 1 26 46
M  V30 END BOND
M  V30 BEGIN COLLECTION
M  V30 MDLV30/STEABS ATOMS=(3 3 4 8)
M  V30 END COLLECTION
M  V30 END CTAB
M  END
>  <Column 1>
1894

>  <level_0>
2060

>  <index>
2060

>  <Unnamed: 0>
2060

>  <NO.>
2072

>  <Name>
methicillin

>  <IUPAC_name>
(2s-5r-6r)-6-[(2-6-dimethoxybenzoyl)amino]-3-3-dimethyl-7-oxo-4-thia-1-azabicyclo[3.2.0]heptane-2-carboxylic acid

>  <SMILES>
COc1cccc(OC)c1C(=O)N[C@@H]1C(=O)N2[C@@H](C(=O)O)C(C)(C)S[C@H]12

>  <CID>
6087

>  <logBB>


>  <BBB+/BBB->
BBB-

>  <Inchi>
InChI=1S/C17H20N2O6S/c1-17(2)12(16(22)23)19-14(21)11(15(19)26-17)18-13(20)10-8(24-3)6-5-7-9(10)25-4/h5-7-11-12-15H-1-4H3-(H-18-20)(H-22-23)/t11--12+-15-/m1/s1

>  <threshold>
-1

>  <reference>
R1|R6|R27|R30|

>  <group>
B

>  <Class>
-1

>  <ABC>
20.13

>  <ABCGG>
17.67

>  <nAcid>
1

>  <nBase>
0

>  <nAromAtom>
6

>  <nAromBond>
6

>  <nAtom>
46

>  <nHeavyAtom>
26

>  <nSpiro>
0

>  <nBridgehead>
0

>  <nHetero>
9

>  <nN>
2

>  <nO>
6

>  <nF>
0

>  <BalabanJ>
1.69

>  <BertzCT>
758.27

>  <nBonds>
48

>  <nBondsO>
28

>  <nBondsS>
39

>  <nBondsD>
3

>  <nBondsT>
0

>  <nBondsA>
6

>  <nBondsM>
9

>  <nBondsKS>
42

>  <nBondsKD>
6

>  <RNCG>
0.15

>  <RPCG>
0.1

>  <FCSP3>
0.47

>  <SZ>
33.33

>  <Sm>
31.67

>  <Sv>
29.41

>  <Sse>
47.27

>  <Sp>
30.92

>  <Si>
51.91

>  <MZ>
0.72

>  <Mm>
0.69

>  <Mv>
0.64

>  <Mse>
1.03

>  <Mp>
0.67

>  <Mi>
1.13

>  <NsCH3>
4

>  <NdCH2>
0

>  <NssCH2>
0

>  <NtCH>
0

>  <NdsCH>
0

>  <NaaCH>
3

>  <NsssCH>
3

>  <NddC>
0

>  <NtsC>
0

>  <NdssC>
3

>  <NaasC>
3

>  <NaaaC>
0

>  <NssssC>
1

>  <NsNH3>
0

>  <NsNH2>
0

>  <NssNH2>
0

>  <NdNH>
0

>  <NssNH>
1

>  <NaaNH>
0

>  <NtN>
0

>  <NsssNH>
0

>  <NdsN>
0

>  <NaaN>
0

>  <NsssN>
1

>  <NddsN>
0

>  <NaasN>
0

>  <NssssN>
0

>  <NsOH>
1

>  <NdO>
3

>  <NssO>
2

>  <NaaO>
0

>  <NsF>
0

>  <NsSiH3>
0

>  <NssSiH2>
0

>  <NsssSiH>
0

>  <NssssSi>
0

>  <NsPH2>
0

>  <NssPH>
0

>  <NsssP>
0

>  <NdsssP>
0

>  <NsssssP>
0

>  <NsSH>
0

>  <NdS>
0

>  <NssS>
1

>  <NaaS>
0

>  <NdssS>
0

>  <NddssS>
0

>  <NsCl>
0

>  <NsBr>
0

>  <NsI>
0

>  <fragCpx>
134.09

>  <fMF>
0.33

>  <nHBAcc>
6

>  <nHBDon>
2

>  <Kier1>
20.73

>  <Kier2>
7.79

>  <Lipinski>
1

>  <GhoseFilter>
1

>  <FilterItLogS>
-2.3

>  <VMcGowan>
263.54

>  <LabuteASA>
154.37

>  <PEOE_VSA1>
24.8

>  <PEOE_VSA2>
9.59

>  <PEOE_VSA3>
4.79

>  <PEOE_VSA4>
0

>  <PEOE_VSA5>
11.76

>  <PEOE_VSA6>
6.07

>  <PEOE_VSA7>
25.98

>  <PEOE_VSA8>
4.75

>  <PEOE_VSA9>
14.22

>  <PEOE_VSA10>
34.52

>  <PEOE_VSA11>
0

>  <PEOE_VSA12>
5.91

>  <PEOE_VSA13>
5.91

>  <SMR_VSA1>
28.96

>  <SMR_VSA2>
0

>  <SMR_VSA3>
10.22

>  <SMR_VSA4>
0

>  <SMR_VSA5>
36.05

>  <SMR_VSA6>
14.22

>  <SMR_VSA7>
23.76

>  <SMR_VSA8>
0

>  <SMR_VSA9>
11.5

>  <SlogP_VSA1>
14.79

>  <SlogP_VSA2>
64.21

>  <SlogP_VSA3>
9.59

>  <SlogP_VSA4>
0

>  <SlogP_VSA5>
24.21

>  <SlogP_VSA6>
18.2

>  <SlogP_VSA7>
0

>  <SlogP_VSA8>
0

>  <SlogP_VSA9>
0

>  <SlogP_VSA10>
0

>  <SlogP_VSA11>
11.5

>  <EState_VSA1>
39.99

>  <EState_VSA2>
5.56

>  <EState_VSA3>
11.5

>  <EState_VSA4>
0

>  <EState_VSA5>
30.88

>  <EState_VSA6>
32.05

>  <EState_VSA7>
0

>  <EState_VSA8>
5.32

>  <EState_VSA9>
9.47

>  <EState_VSA10>
19.49

>  <VSA_EState1>
9.79

>  <VSA_EState2>
38.12

>  <VSA_EState3>
11.73

>  <VSA_EState4>
0.2

>  <VSA_EState5>
-1.3

>  <VSA_EState6>
3.24

>  <VSA_EState7>
0

>  <VSA_EState8>
3.56

>  <VSA_EState9>
2.88

>  <apol>
51.64

>  <bpol>
30.88

>  <nRing>
3

>  <nHRing>
2

>  <naRing>
1

>  <naHRing>
0

>  <nARing 2>
2

>  <nAHRing 2>
2

>  <nFRing>
1

>  <nFHRing>
1

>  <nFaRing>
0

>  <nFaHRing>
0

>  <nFARing 2>
1

>  <nFAHRing 2>
1

>  <nRot>
5

>  <SLogP>
0.95

>  <SMR>
94.53

>  <TopoPSA(NO)>
105.17

>  <TopoPSA>
130.47

>  <JGI1>
0.23

>  <JGI2>
0.1

>  <JGI3>
0.1

>  <JGI4>
0.05

>  <JGI5>
0.03

>  <Diameter>
11

>  <Radius>
6

>  <TMWC10>
132.25

>  <TSRW10>
76.91

>  <MW>
380.1

>  <AMW>
8.26

>  <WPath>
1630

>  <WPol>
45

>  <Zagreb1>
142

>  <Zagreb2>
175

>  <mZagreb2>
5.71

>  <yes>


>  <nAR-cont>
1

>  <nHA-cont>
0.892715677

>  <MWHBN>
0.410337353

>  <MWHBN-cont>
0.43550193

>  <TPSA-cont>
0

>  <pka_cont>
0.97

>  <yes.1>


>  <BBB_SCORE>
3.030968572

>  <MMFF94 Energy>
75.495

$$$$
Compound 1564
Actelion Java MolfileCreator 2.0

  0  0  0  0  0  0              0 V3000
M  V30 BEGIN CTAB
M  V30 COUNTS 48 51 0 0 0
M  V30 BEGIN ATOM
M  V30 1 O -2.0259 -2.4315 1.3773 0
M  V30 2 C -0.9603 -2.401 0.7689 0
M  V30 3 C -0.4413 -1.0668 0.3881 0
M  V30 4 C -0.2009 -3.6326 0.419 0
M  V30 5 C -1.1667 0.1012 0.6963 0
M  V30 6 C 0.7702 -0.9538 -0.2817 0
M  V30 7 C -0.6657 -4.9247 0.7511 0
M  V30 8 C 1.0129 -3.4958 -0.2604 0
M  V30 9 O -2.3748 0.0464 1.3567 0
M  V30 10 C -0.6988 1.3832 0.3427 0
M  V30 11 C 1.5314 -2.1662 -0.6263 0
M  V30 12 C 1.2608 0.3178 -0.6219 0
M  V30 13 O -1.8595 -5.02 1.4122 0
M  V30 14 C 0.1008 -6.0433 0.3928 0
M  V30 15 C 1.7677 -4.6229 -0.6109 0
M  V30 16 C 0.5548 1.4886 -0.2923 0
M  V30 17 C -1.491 2.6282 0.7089 0
M  V30 18 O 2.5999 -2.0567 -1.2221 0
M  V30 19 O 2.4471 0.4825 -1.2953 0
M  V30 20 C -2.34 -6.3063 1.7774 0
M  V30 21 C 1.3107 -5.8935 -0.2838 0
M  V30 22 C 1.1491 2.8351 -0.6637 0
M  V30 23 O -2.8763 2.474 0.3945 0
M  V30 24 C -1.035 3.8882 -0.023 0
M  V30 25 C 0.4775 4.0322 0.0172 0
M  V30 26 O 0.899 4.0713 1.3934 0
M  V30 27 C 0.8974 5.3673 -0.6227 0
M  V30 28 O 1.2653 6.3139 0.0867 0
M  V30 29 C 0.8413 5.5168 -2.1381 0
M  V30 30 O 0.9079 6.8818 -2.526 0
M  V30 31 H -2.5678 -0.8991 1.5686 0
M  V30 32 H -0.2188 -7.0545 0.6269 0
M  V30 33 H 2.7135 -4.5153 -1.1398 0
M  V30 34 H -1.4095 2.7808 1.7922 0
M  V30 35 H 2.848 -0.4037 -1.4486 0
M  V30 36 H -2.5325 -6.9208 0.8921 0
M  V30 37 H -3.2912 -6.1714 2.3013 0
M  V30 38 H -1.6496 -6.8051 2.4651 0
M  V30 39 H 1.8957 -6.7696 -0.5557 0
M  V30 40 H 1.0749 2.9158 -1.7543 0
M  V30 41 H 2.2142 2.8404 -0.3975 0
M  V30 42 H -3.1343 1.6103 0.7768 0
M  V30 43 H -1.5224 4.7572 0.4394 0
M  V30 44 H -1.3958 3.8693 -1.0602 0
M  V30 45 H 0.9681 5.0179 1.6408 0
M  V30 46 H 1.6932 4.995 -2.5809 0
M  V30 47 H -0.0917 5.1042 -2.5261 0
M  V30 48 H 1.418 7.3441 -1.8304 0
M  V30 END ATOM
M  V30 BEGIN BOND
M  V30 1 2 1 2
M  V30 2 1 2 3
M  V30 3 1 2 4
M  V30 4 2 3 5
M  V30 5 1 3 6
M  V30 6 2 4 7
M  V30 7 1 4 8
M  V30 8 1 5 9
M  V30 9 1 5 10
M  V30 10 1 6 11
M  V30 11 2 6 12
M  V30 12 1 7 13
M  V30 13 1 7 14
M  V30 14 2 8 15
M  V30 15 2 10 16
M  V30 16 1 10 17
M  V30 17 2 11 18
M  V30 18 1 12 19
M  V30 19 1 13 20
M  V30 20 2 14 21
M  V30 21 1 16 22
M  V30 22 1 17 23
M  V30 23 1 17 24
M  V30 24 1 22 25
M  V30 25 1 25 26
M  V30 26 1 25 27
M  V30 27 2 27 28
M  V30 28 1 27 29
M  V30 29 1 29 30
M  V30 30 1 8 11
M  V30 31 1 12 16
M  V30 32 1 15 21
M  V30 33 1 24 25
M  V30 34 1 9 31
M  V30 35 1 14 32
M  V30 36 1 15 33
M  V30 37 1 17 34
M  V30 38 1 19 35
M  V30 39 1 20 36
M  V30 40 1 20 37
M  V30 41 1 20 38
M  V30 42 1 21 39
M  V30 43 1 22 40
M  V30 44 1 22 41
M  V30 45 1 23 42
M  V30 46 1 24 43
M  V30 47 1 24 44
M  V30 48 1 26 45
M  V30 49 1 29 46
M  V30 50 1 29 47
M  V30 51 1 30 48
M  V30 END BOND
M  V30 END CTAB
M  END
>  <Column 1>
1895

>  <level_0>
2061

>  <index>
2061

>  <Unnamed: 0>
2061

>  <NO.>
2073

>  <Name>
adriamycinol-aglycone

>  <IUPAC_name>
6-7-9-11-tetrahydroxy-9-(2-hydroxyacetyl)-4-methoxy-8-10-dihydro-7h-tetracene-5-12-dione

>  <SMILES>
COc1cccc2c1C(=O)c1c(O)c3c(c(O)c1C2=O)CC(O)(C(=O)CO)CC3O

>  <CID>
310899

>  <logBB>


>  <BBB+/BBB->
BBB-

>  <Inchi>
InChI=1S/C21H18O9/c1-30-11-4-2-3-8-14(11)20(28)16-15(17(8)25)18(26)9-5-21(29-12(24)7-22)6-10(23)13(9)19(16)27/h2-4-10-22-23-26-27-29H-5-7H2-1H3

>  <threshold>
-1

>  <reference>
R1|R27|R30|

>  <group>
B

>  <Class>
-1

>  <ABC>
23.56

>  <ABCGG>
19.15

>  <nAcid>
0

>  <nBase>
0

>  <nAromAtom>
12

>  <nAromBond>
12

>  <nAtom>
48

>  <nHeavyAtom>
30

>  <nSpiro>
0

>  <nBridgehead>
0

>  <nHetero>
9

>  <nN>
0

>  <nO>
9

>  <nF>
0

>  <BalabanJ>
1.68

>  <BertzCT>
1134.03

>  <nBonds>
51

>  <nBondsO>
33

>  <nBondsS>
36

>  <nBondsD>
3

>  <nBondsT>
0

>  <nBondsA>
12

>  <nBondsM>
15

>  <nBondsKS>
42

>  <nBondsKD>
9

>  <RNCG>
0.14

>  <RPCG>
0.08

>  <FCSP3>
0.29

>  <SZ>
36

>  <Sm>
34.5

>  <Sv>
32.31

>  <Sse>
49.97

>  <Sp>
32.51

>  <Si>
53.62

>  <MZ>
0.75

>  <Mm>
0.72

>  <Mv>
0.67

>  <Mse>
1.04

>  <Mp>
0.68

>  <Mi>
1.12

>  <NsCH3>
1

>  <NdCH2>
0

>  <NssCH2>
3

>  <NtCH>
0

>  <NdsCH>
0

>  <NaaCH>
3

>  <NsssCH>
1

>  <NddC>
0

>  <NtsC>
0

>  <NdssC>
3

>  <NaasC>
9

>  <NaaaC>
0

>  <NssssC>
1

>  <NsNH3>
0

>  <NsNH2>
0

>  <NssNH2>
0

>  <NdNH>
0

>  <NssNH>
0

>  <NaaNH>
0

>  <NtN>
0

>  <NsssNH>
0

>  <NdsN>
0

>  <NaaN>
0

>  <NsssN>
0

>  <NddsN>
0

>  <NaasN>
0

>  <NssssN>
0

>  <NsOH>
5

>  <NdO>
3

>  <NssO>
1

>  <NaaO>
0

>  <NsF>
0

>  <NsSiH3>
0

>  <NssSiH2>
0

>  <NsssSiH>
0

>  <NssssSi>
0

>  <NsPH2>
0

>  <NssPH>
0

>  <NsssP>
0

>  <NdsssP>
0

>  <NsssssP>
0

>  <NsSH>
0

>  <NdS>
0

>  <NssS>
0

>  <NaaS>
0

>  <NdssS>
0

>  <NddssS>
0

>  <NsCl>
0

>  <NsBr>
0

>  <NsI>
0

>  <fragCpx>
219.09

>  <fMF>
0.38

>  <nHBAcc>
9

>  <nHBDon>
5

>  <Kier1>
23.17

>  <Kier2>
8.41

>  <Lipinski>
1

>  <GhoseFilter>
1

>  <FilterItLogS>
-3.17

>  <VMcGowan>
277.44

>  <LabuteASA>
169.33

>  <PEOE_VSA1>
30.27

>  <PEOE_VSA2>
14.38

>  <PEOE_VSA3>
0

>  <PEOE_VSA4>
0

>  <PEOE_VSA5>
0

>  <PEOE_VSA6>
12.13

>  <PEOE_VSA7>
6.07

>  <PEOE_VSA8>
29.53

>  <PEOE_VSA9>
29.9

>  <PEOE_VSA10>
29.46

>  <PEOE_VSA11>
11.57

>  <PEOE_VSA12>
5.78

>  <PEOE_VSA13>
0

>  <SMR_VSA1>
44.65

>  <SMR_VSA2>
0

>  <SMR_VSA3>
0

>  <SMR_VSA4>
0

>  <SMR_VSA5>
24.55

>  <SMR_VSA6>
13.72

>  <SMR_VSA7>
51.58

>  <SMR_VSA8>
0

>  <SMR_VSA9>
17.25

>  <SlogP_VSA1>
4.74

>  <SlogP_VSA2>
62.2

>  <SlogP_VSA3>
11.22

>  <SlogP_VSA4>
0

>  <SlogP_VSA5>
55.49

>  <SlogP_VSA6>
18.2

>  <SlogP_VSA7>
0

>  <SlogP_VSA8>
0

>  <SlogP_VSA9>
0

>  <SlogP_VSA10>
0

>  <SlogP_VSA11>
17.25

>  <EState_VSA1>
71.13

>  <EState_VSA2>
28

>  <EState_VSA3>
0

>  <EState_VSA4>
0

>  <EState_VSA5>
25.31

>  <EState_VSA6>
0

>  <EState_VSA7>
0

>  <EState_VSA8>
0

>  <EState_VSA9>
9.84

>  <EState_VSA10>
34.81

>  <VSA_EState1>
5.16

>  <VSA_EState2>
38.25

>  <VSA_EState3>
51.88

>  <VSA_EState4>
-3.77

>  <VSA_EState5>
-3.83

>  <VSA_EState6>
4.34

>  <VSA_EState7>
-2.75

>  <VSA_EState8>
-1

>  <VSA_EState9>
1.32

>  <apol>
54.29

>  <bpol>
22.4

>  <nRing>
4

>  <nHRing>
0

>  <naRing>
2

>  <naHRing>
0

>  <nARing 2>
2

>  <nAHRing 2>
0

>  <nFRing>
1

>  <nFHRing>
0

>  <nFaRing>
0

>  <nFaHRing>
0

>  <nFARing 2>
1

>  <nFAHRing 2>
0

>  <nRot>
3

>  <SLogP>
0.15

>  <SMR>
99.95

>  <TopoPSA(NO)>
161.59

>  <TopoPSA>
161.59

>  <JGI1>
0.21

>  <JGI2>
0.1

>  <JGI3>
0.06

>  <JGI4>
0.06

>  <JGI5>
0.04

>  <Diameter>
13

>  <Radius>
7

>  <TMWC10>
143.39

>  <TSRW10>
66.86

>  <MW>
414.1

>  <AMW>
8.63

>  <WPath>
2120

>  <WPol>
66

>  <Zagreb1>
170

>  <Zagreb2>
215

>  <mZagreb2>
6.53

>  <yes>


>  <nAR-cont>
1

>  <nHA-cont>
0.74523694

>  <MWHBN>
0.687979378

>  <MWHBN-cont>
0

>  <TPSA-cont>
0

>  <pka_cont>
0.97

>  <yes.1>


>  <BBB_SCORE>
2.23023694

>  <MMFF94 Energy>
107.36

$$$$
Compound 1565
Actelion Java MolfileCreator 2.0

  0  0  0  0  0  0              0 V3000
M  V30 BEGIN CTAB
M  V30 COUNTS 63 65 0 0 0
M  V30 BEGIN ATOM
M  V30 1 O 2.9232 -0.7104 0.0 0
M  V30 2 C 2.8421 -1.9644 0.5447 0
M  V30 3 C 2.6695 0.4027 0.8685 0
M  V30 4 C 2.9783 -3.0031 -0.384 0
M  V30 5 C 2.6524 -2.2569 1.8981 0
M  V30 6 C 2.715 1.6927 0.0352 0 CFG=1
M  V30 7 C 2.9259 -4.3367 0.0229 0
M  V30 8 C 2.5937 -3.5861 2.329 0
M  V30 9 O 4.0075 1.8042 -0.5833 0
M  V30 10 C 1.6311 1.7432 -1.0645 0
M  V30 11 O 3.047 -5.4173 -0.8117 0
M  V30 12 C 2.7534 -4.6172 1.3875 0
M  V30 13 O 2.414 -3.9778 3.6316 0
M  V30 14 N 0.246 1.6695 -0.5638 0
M  V30 15 C 3.054 -5.1631 -2.2096 0
M  V30 16 O 2.6594 -5.9281 1.802 0
M  V30 17 C 1.9927 -2.9878 4.5595 0
M  V30 18 C -0.1642 2.9327 0.0995 0
M  V30 19 C -0.6847 1.4155 -1.695 0
M  V30 20 C 3.9553 -6.4225 2.1343 0
M  V30 21 C -1.6373 2.9217 0.5766 0
M  V30 22 C -2.1676 1.3599 -1.264 0
M  V30 23 N -2.534 2.5817 -0.5312 0
M  V30 24 C -3.8879 2.9161 -0.4855 0
M  V30 25 C -4.6147 3.2433 -1.6608 0
M  V30 26 C -4.5797 2.945 0.7387 0
M  V30 27 O -3.8989 3.2578 -2.8374 0
M  V30 28 C -5.981 3.5527 -1.5834 0
M  V30 29 C -5.9382 3.262 0.8073 0
M  V30 30 C -4.5411 3.775 -3.993 0
M  V30 31 C -6.6386 3.5614 -0.3534 0
M  V30 32 H 3.4653 0.4457 1.6219 0
M  V30 33 H 1.6938 0.3016 1.3572 0
M  V30 34 H 3.1254 -2.7344 -1.4248 0
M  V30 35 H 2.561 -1.454 2.6171 0
M  V30 36 H 2.617 2.5559 0.7009 0
M  V30 37 H 4.193 0.9299 -0.977 0
M  V30 38 H 1.8178 0.9046 -1.7494 0
M  V30 39 H 1.7795 2.6438 -1.6763 0
M  V30 40 H 2.1476 -4.6344 -2.523 0
M  V30 41 H 3.0706 -6.1284 -2.7247 0
M  V30 42 H 3.9546 -4.6144 -2.5038 0
M  V30 43 H 2.7924 -2.2645 4.7486 0
M  V30 44 H 1.769 -3.4898 5.5057 0
M  V30 45 H 1.078 -2.4877 4.2236 0
M  V30 46 H 0.4629 3.1133 0.979 0
M  V30 47 H -0.0226 3.7802 -0.5848 0
M  V30 48 H -0.5672 2.1943 -2.4609 0
M  V30 49 H -0.4339 0.4551 -2.1614 0
M  V30 50 H 4.6214 -6.416 1.2647 0
M  V30 51 H 3.8428 -7.4595 2.4644 0
M  V30 52 H 4.4017 -5.8534 2.9572 0
M  V30 53 H -1.8735 3.9166 0.9737 0
M  V30 54 H -1.7515 2.1936 1.3896 0
M  V30 55 H -2.3284 0.4909 -0.6125 0
M  V30 56 H -2.779 1.2017 -2.1584 0
M  V30 57 H -4.0682 2.6924 1.6628 0
M  V30 58 H -6.5624 3.7943 -2.4661 0
M  V30 59 H -6.4458 3.2658 1.768 0
M  V30 60 H -5.3632 3.1249 -4.3094 0
M  V30 61 H -3.8054 3.7949 -4.8028 0
M  V30 62 H -4.8852 4.8023 -3.8329 0
M  V30 63 H -7.6968 3.8037 -0.3039 0
M  V30 END ATOM
M  V30 BEGIN BOND
M  V30 1 1 1 2
M  V30 2 1 1 3
M  V30 3 2 2 4
M  V30 4 1 2 5
M  V30 5 1 3 6
M  V30 6 1 4 7
M  V30 7 2 5 8
M  V30 8 1 6 9
M  V30 9 1 6 10
M  V30 10 1 7 11
M  V30 11 2 7 12
M  V30 12 1 8 13
M  V30 13 1 10 14
M  V30 14 1 11 15
M  V30 15 1 12 16
M  V30 16 1 13 17
M  V30 17 1 14 18
M  V30 18 1 14 19
M  V30 19 1 16 20
M  V30 20 1 18 21
M  V30 21 1 19 22
M  V30 22 1 21 23
M  V30 23 1 23 24
M  V30 24 2 24 25
M  V30 25 1 24 26
M  V30 26 1 25 27
M  V30 27 1 25 28
M  V30 28 2 26 29
M  V30 29 1 27 30
M  V30 30 2 28 31
M  V30 31 1 8 12
M  V30 32 1 22 23
M  V30 33 1 29 31
M  V30 34 1 3 32
M  V30 35 1 3 33
M  V30 36 1 4 34
M  V30 37 1 5 35
M  V30 38 1 6 36
M  V30 39 1 9 37
M  V30 40 1 10 38
M  V30 41 1 10 39
M  V30 42 1 15 40
M  V30 43 1 15 41
M  V30 44 1 15 42
M  V30 45 1 17 43
M  V30 46 1 17 44
M  V30 47 1 17 45
M  V30 48 1 18 46
M  V30 49 1 18 47
M  V30 50 1 19 48
M  V30 51 1 19 49
M  V30 52 1 20 50
M  V30 53 1 20 51
M  V30 54 1 20 52
M  V30 55 1 21 53
M  V30 56 1 21 54
M  V30 57 1 22 55
M  V30 58 1 22 56
M  V30 59 1 26 57
M  V30 60 1 28 58
M  V30 61 1 29 59
M  V30 62 1 30 60
M  V30 63 1 30 61
M  V30 64 1 30 62
M  V30 65 1 31 63
M  V30 END BOND
M  V30 BEGIN COLLECTION
M  V30 MDLV30/STERAC1 ATOMS=(1 6)
M  V30 END COLLECTION
M  V30 END CTAB
M  END
>  <Column 1>
1901

>  <level_0>
2067

>  <index>
2067

>  <Unnamed: 0>
2067

>  <NO.>
2079

>  <Name>
enciprazine

>  <IUPAC_name>
1-[4-(2-methoxyphenyl)piperazin-1-yl]-3-(3-4-5-trimethoxyphenoxy)propan-2-ol

>  <SMILES>
COc1ccccc1N1CCN(CC(O)COc2cc(OC)c(OC)c(OC)c2)CC1

>  <CID>
50222

>  <logBB>


>  <BBB+/BBB->
BBB+

>  <Inchi>
InChI=1S/C23H32N2O6/c1-27-20-8-6-5-7-19(20)25-11-9-24(10-12-25)15-17(26)16-31-18-13-21(28-2)23(30-4)22(14-18)29-3/h5-8-13-14-17-26H-9-12-15-16H2-1-4H3

>  <threshold>
-1

>  <reference>
R1|R19|R6|R27|R27|R30|

>  <group>
B

>  <Class>
1

>  <ABC>
23.28

>  <ABCGG>
17.8

>  <nAcid>
0

>  <nBase>
1

>  <nAromAtom>
12

>  <nAromBond>
12

>  <nAtom>
63

>  <nHeavyAtom>
31

>  <nSpiro>
0

>  <nBridgehead>
0

>  <nHetero>
8

>  <nN>
2

>  <nO>
6

>  <nF>
0

>  <BalabanJ>
1.38

>  <BertzCT>
813.56

>  <nBonds>
65

>  <nBondsO>
33

>  <nBondsS>
53

>  <nBondsD>
0

>  <nBondsT>
0

>  <nBondsA>
12

>  <nBondsM>
12

>  <nBondsKS>
59

>  <nBondsKD>
6

>  <RNCG>
0.13

>  <RPCG>
0.06

>  <FCSP3>
0.48

>  <SZ>
38.67

>  <Sm>
36.01

>  <Sv>
37.47

>  <Sse>
63.52

>  <Sp>
39.98

>  <Si>
71.48

>  <MZ>
0.61

>  <Mm>
0.57

>  <Mv>
0.59

>  <Mse>
1.01

>  <Mp>
0.63

>  <Mi>
1.13

>  <NsCH3>
4

>  <NdCH2>
0

>  <NssCH2>
6

>  <NtCH>
0

>  <NdsCH>
0

>  <NaaCH>
6

>  <NsssCH>
1

>  <NddC>
0

>  <NtsC>
0

>  <NdssC>
0

>  <NaasC>
6

>  <NaaaC>
0

>  <NssssC>
0

>  <NsNH3>
0

>  <NsNH2>
0

>  <NssNH2>
0

>  <NdNH>
0

>  <NssNH>
0

>  <NaaNH>
0

>  <NtN>
0

>  <NsssNH>
0

>  <NdsN>
0

>  <NaaN>
0

>  <NsssN>
2

>  <NddsN>
0

>  <NaasN>
0

>  <NssssN>
0

>  <NsOH>
1

>  <NdO>
0

>  <NssO>
5

>  <NaaO>
0

>  <NsF>
0

>  <NsSiH3>
0

>  <NssSiH2>
0

>  <NsssSiH>
0

>  <NssssSi>
0

>  <NsPH2>
0

>  <NssPH>
0

>  <NsssP>
0

>  <NdsssP>
0

>  <NsssssP>
0

>  <NsSH>
0

>  <NdS>
0

>  <NssS>
0

>  <NaaS>
0

>  <NdssS>
0

>  <NddssS>
0

>  <NsCl>
0

>  <NsBr>
0

>  <NsI>
0

>  <fragCpx>
159.08

>  <fMF>
0.35

>  <nHBAcc>
8

>  <nHBDon>
1

>  <Kier1>
25.62

>  <Kier2>
13.03

>  <Lipinski>
1

>  <GhoseFilter>
1

>  <FilterItLogS>
-4.22

>  <VMcGowan>
331.73

>  <LabuteASA>
183.38

>  <PEOE_VSA1>
33.69

>  <PEOE_VSA2>
4.9

>  <PEOE_VSA3>
0

>  <PEOE_VSA4>
0

>  <PEOE_VSA5>
0

>  <PEOE_VSA6>
12.13

>  <PEOE_VSA7>
12.13

>  <PEOE_VSA8>
44.86

>  <PEOE_VSA9>
34.13

>  <PEOE_VSA10>
24.21

>  <PEOE_VSA11>
11.5

>  <PEOE_VSA12>
5.75

>  <PEOE_VSA13>
0

>  <SMR_VSA1>
28.79

>  <SMR_VSA2>
0

>  <SMR_VSA3>
4.9

>  <SMR_VSA4>
0

>  <SMR_VSA5>
6.1

>  <SMR_VSA6>
72.67

>  <SMR_VSA7>
36.4

>  <SMR_VSA8>
0

>  <SMR_VSA9>
28.75

>  <SlogP_VSA1>
28.58

>  <SlogP_VSA2>
83.88

>  <SlogP_VSA3>
0

>  <SlogP_VSA4>
0

>  <SlogP_VSA5>
0

>  <SlogP_VSA6>
36.4

>  <SlogP_VSA7>
0

>  <SlogP_VSA8>
0

>  <SlogP_VSA9>
0

>  <SlogP_VSA10>
5.69

>  <SlogP_VSA11>
28.75

>  <EState_VSA1>
6.1

>  <EState_VSA2>
6.61

>  <EState_VSA3>
29.54

>  <EState_VSA4>
37.62

>  <EState_VSA5>
0

>  <EState_VSA6>
40.57

>  <EState_VSA7>
18.2

>  <EState_VSA8>
15.87

>  <EState_VSA9>
23.68

>  <EState_VSA10>
5.11

>  <VSA_EState1>
27.27

>  <VSA_EState2>
4.56

>  <VSA_EState3>
10.49

>  <VSA_EState4>
1.11

>  <VSA_EState5>
2.97

>  <VSA_EState6>
11.5

>  <VSA_EState7>
-0.61

>  <VSA_EState8>
4.19

>  <VSA_EState9>
6.36

>  <apol>
66.76

>  <bpol>
44.2

>  <nRing>
3

>  <nHRing>
1

>  <naRing>
2

>  <naHRing>
0

>  <nARing 2>
1

>  <nAHRing 2>
1

>  <nFRing>
0

>  <nFHRing>
0

>  <nFaRing>
0

>  <nFaHRing>
0

>  <nFARing 2>
0

>  <nFAHRing 2>
0

>  <nRot>
10

>  <SLogP>
2.28

>  <SMR>
119.25

>  <TopoPSA(NO)>
72.86

>  <TopoPSA>
72.86

>  <JGI1>
0.18

>  <JGI2>
0.08

>  <JGI3>
0.05

>  <JGI4>
0.04

>  <JGI5>
0.02

>  <Diameter>
17

>  <Radius>
9

>  <TMWC10>
140.24

>  <TSRW10>
66.5

>  <MW>
432.23

>  <AMW>
6.86

>  <WPath>
3236

>  <WPol>
49

>  <Zagreb1>
154

>  <Zagreb2>
179

>  <mZagreb2>
7.28

>  <yes>


>  <nAR-cont>
0.816016

>  <nHA-cont>
0.702745138

>  <MWHBN>
0.432897478

>  <MWHBN-cont>
0.348774316

>  <TPSA-cont>
0.491391957

>  <pka_cont>
0.97

>  <yes.1>


>  <BBB_SCORE>
3.509706525

>  <MMFF94 Energy>
214.49

$$$$
Compound 1566
Actelion Java MolfileCreator 2.0

  0  0  0  0  0  0              0 V3000
M  V30 BEGIN CTAB
M  V30 COUNTS 51 53 0 0 0
M  V30 BEGIN ATOM
M  V30 1 F 6.0579 -7.6568 -2.3082 0
M  V30 2 C 5.3322 -6.675 -1.7584 0
M  V30 3 C 5.1568 -6.6403 -0.3812 0
M  V30 4 C 4.7639 -5.7041 -2.5756 0
M  V30 5 C 4.3991 -5.615 0.1893 0
M  V30 6 C 4.0045 -4.6757 -2.0085 0
M  V30 7 C 3.8179 -4.6241 -0.6193 0
M  V30 8 C 3.015 -3.5484 0.0424 0
M  V30 9 O 2.8477 -3.5928 1.2593 0
M  V30 10 C 2.4286 -2.4425 -0.8198 0
M  V30 11 C 1.705 -1.3813 0.0135 0
M  V30 12 C 1.0951 -0.2993 -0.8862 0
M  V30 13 N 0.5308 0.8293 -0.1308 0
M  V30 14 C 0.1526 1.9225 -1.062 0
M  V30 15 C -0.6742 0.4379 0.6445 0
M  V30 16 C -0.4775 3.1434 -0.3527 0
M  V30 17 C -1.3362 1.6211 1.3902 0
M  V30 18 N -1.6231 2.7247 0.4601 0
M  V30 19 C -2.603 3.6413 0.8434 0
M  V30 20 C -3.9598 3.2558 1.0095 0
M  V30 21 C -2.2743 4.9891 1.0762 0
M  V30 22 O -4.2603 1.9426 0.7226 0
M  V30 23 C -4.9168 4.1976 1.4168 0
M  V30 24 C -3.2348 5.921 1.4756 0
M  V30 25 C -5.6257 1.5554 0.7507 0
M  V30 26 C -4.554 5.5243 1.6491 0
M  V30 27 H 5.6079 -7.4074 0.2403 0
M  V30 28 H 4.9155 -5.755 -3.6497 0
M  V30 29 H 4.2639 -5.5915 1.2697 0
M  V30 30 H 3.571 -3.9336 -2.6721 0
M  V30 31 H 3.2427 -1.965 -1.3765 0
M  V30 32 H 1.7208 -2.8929 -1.5246 0
M  V30 33 H 0.9249 -1.8687 0.6097 0
M  V30 34 H 2.4114 -0.9264 0.7196 0
M  V30 35 H 1.8961 0.0806 -1.5337 0
M  V30 36 H 0.3397 -0.7463 -1.5457 0
M  V30 37 H 1.0444 2.2688 -1.5984 0
M  V30 38 H -0.5557 1.5463 -1.8129 0
M  V30 39 H -1.4177 -0.0182 -0.0228 0
M  V30 40 H -0.4073 -0.3083 1.4001 0
M  V30 41 H -0.791 3.8597 -1.1221 0
M  V30 42 H 0.2761 3.6292 0.2796 0
M  V30 43 H -0.6596 1.9833 2.1755 0
M  V30 44 H -2.2339 1.2481 1.8943 0
M  V30 45 H -1.2475 5.3277 0.973 0
M  V30 46 H -5.9578 3.9295 1.5586 0
M  V30 47 H -2.9459 6.9528 1.6566 0
M  V30 48 H -6.0353 1.6295 1.7633 0
M  V30 49 H -5.681 0.5052 0.448 0
M  V30 50 H -6.2193 2.137 0.0376 0
M  V30 51 H -5.3031 6.2462 1.9632 0
M  V30 END ATOM
M  V30 BEGIN BOND
M  V30 1 1 1 2
M  V30 2 2 2 3
M  V30 3 1 2 4
M  V30 4 1 3 5
M  V30 5 2 4 6
M  V30 6 2 5 7
M  V30 7 1 7 8
M  V30 8 2 8 9
M  V30 9 1 8 10
M  V30 10 1 10 11
M  V30 11 1 11 12
M  V30 12 1 12 13
M  V30 13 1 13 14
M  V30 14 1 13 15
M  V30 15 1 14 16
M  V30 16 1 15 17
M  V30 17 1 16 18
M  V30 18 1 18 19
M  V30 19 2 19 20
M  V30 20 1 19 21
M  V30 21 1 20 22
M  V30 22 1 20 23
M  V30 23 2 21 24
M  V30 24 1 22 25
M  V30 25 2 23 26
M  V30 26 1 6 7
M  V30 27 1 17 18
M  V30 28 1 24 26
M  V30 29 1 3 27
M  V30 30 1 4 28
M  V30 31 1 5 29
M  V30 32 1 6 30
M  V30 33 1 10 31
M  V30 34 1 10 32
M  V30 35 1 11 33
M  V30 36 1 11 34
M  V30 37 1 12 35
M  V30 38 1 12 36
M  V30 39 1 14 37
M  V30 40 1 14 38
M  V30 41 1 15 39
M  V30 42 1 15 40
M  V30 43 1 16 41
M  V30 44 1 16 42
M  V30 45 1 17 43
M  V30 46 1 17 44
M  V30 47 1 21 45
M  V30 48 1 23 46
M  V30 49 1 24 47
M  V30 50 1 25 48
M  V30 51 1 25 49
M  V30 52 1 25 50
M  V30 53 1 26 51
M  V30 END BOND
M  V30 END CTAB
M  END
>  <Column 1>
1902

>  <level_0>
2068

>  <index>
2068

>  <Unnamed: 0>
2068

>  <NO.>
2080

>  <Name>
fluanisone

>  <IUPAC_name>
1-(4-fluorophenyl)-4-[4-(2-methoxyphenyl)piperazin-1-yl]butan-1-one

>  <SMILES>
COc1ccccc1N1CCN(CCCC(=O)c2ccc(F)cc2)CC1

>  <CID>
15139

>  <logBB>


>  <BBB+/BBB->
BBB+

>  <Inchi>
InChI=1S/C21H25FN2O2/c1-26-21-7-3-2-5-19(21)24-15-13-23(14-16-24)12-4-6-20(25)17-8-10-18(22)11-9-17/h2-3-5-7-11H-4-6-12-16H2-1H3

>  <threshold>
-1

>  <reference>
R1|R13|R19|R6|R24|R27|R27|R27|R30|R30|

>  <group>
B

>  <Class>
1

>  <ABC>
19.9

>  <ABCGG>
14.76

>  <nAcid>
0

>  <nBase>
1

>  <nAromAtom>
12

>  <nAromBond>
12

>  <nAtom>
51

>  <nHeavyAtom>
26

>  <nSpiro>
0

>  <nBridgehead>
0

>  <nHetero>
5

>  <nN>
2

>  <nO>
2

>  <nF>
1

>  <BalabanJ>
1.31

>  <BertzCT>
725.05

>  <nBonds>
53

>  <nBondsO>
28

>  <nBondsS>
40

>  <nBondsD>
1

>  <nBondsT>
0

>  <nBondsA>
12

>  <nBondsM>
13

>  <nBondsKS>
46

>  <nBondsKD>
7

>  <RNCG>
0.25

>  <RPCG>
0.08

>  <FCSP3>
0.38

>  <SZ>
31.67

>  <Sm>
29.68

>  <Sv>
31.36

>  <Sse>
51.04

>  <Sp>
33.59

>  <Si>
57.74

>  <MZ>
0.62

>  <Mm>
0.58

>  <Mv>
0.62

>  <Mse>
1

>  <Mp>
0.66

>  <Mi>
1.13

>  <NsCH3>
1

>  <NdCH2>
0

>  <NssCH2>
7

>  <NtCH>
0

>  <NdsCH>
0

>  <NaaCH>
8

>  <NsssCH>
0

>  <NddC>
0

>  <NtsC>
0

>  <NdssC>
1

>  <NaasC>
4

>  <NaaaC>
0

>  <NssssC>
0

>  <NsNH3>
0

>  <NsNH2>
0

>  <NssNH2>
0

>  <NdNH>
0

>  <NssNH>
0

>  <NaaNH>
0

>  <NtN>
0

>  <NsssNH>
0

>  <NdsN>
0

>  <NaaN>
0

>  <NsssN>
2

>  <NddsN>
0

>  <NaasN>
0

>  <NssssN>
0

>  <NsOH>
0

>  <NdO>
1

>  <NssO>
1

>  <NaaO>
0

>  <NsF>
1

>  <NsSiH3>
0

>  <NssSiH2>
0

>  <NsssSiH>
0

>  <NssssSi>
0

>  <NsPH2>
0

>  <NssPH>
0

>  <NsssP>
0

>  <NdsssP>
0

>  <NsssssP>
0

>  <NsSH>
0

>  <NdS>
0

>  <NssS>
0

>  <NaaS>
0

>  <NdssS>
0

>  <NddssS>
0

>  <NsCl>
0

>  <NsBr>
0

>  <NsI>
0

>  <fragCpx>
134.05

>  <fMF>
0.43

>  <nHBAcc>
4

>  <nHBDon>
0

>  <Kier1>
20.73

>  <Kier2>
10.52

>  <Lipinski>
1

>  <GhoseFilter>
1

>  <FilterItLogS>
-5.01

>  <VMcGowan>
277.53

>  <LabuteASA>
153.73

>  <PEOE_VSA1>
9.64

>  <PEOE_VSA2>
9.69

>  <PEOE_VSA3>
4.39

>  <PEOE_VSA4>
0

>  <PEOE_VSA5>
0

>  <PEOE_VSA6>
12.13

>  <PEOE_VSA7>
49.36

>  <PEOE_VSA8>
38.16

>  <PEOE_VSA9>
12.8

>  <PEOE_VSA10>
11.57

>  <PEOE_VSA11>
5.78

>  <PEOE_VSA12>
0

>  <PEOE_VSA13>
0

>  <SMR_VSA1>
13.92

>  <SMR_VSA2>
0

>  <SMR_VSA3>
4.9

>  <SMR_VSA4>
0

>  <SMR_VSA5>
12.84

>  <SMR_VSA6>
44.73

>  <SMR_VSA7>
59.91

>  <SMR_VSA8>
0

>  <SMR_VSA9>
5.75

>  <SlogP_VSA1>
9.64

>  <SlogP_VSA2>
50.52

>  <SlogP_VSA3>
0

>  <SlogP_VSA4>
5.82

>  <SlogP_VSA5>
23.2

>  <SlogP_VSA6>
48.53

>  <SlogP_VSA7>
0

>  <SlogP_VSA8>
0

>  <SlogP_VSA9>
0

>  <SlogP_VSA10>
10.08

>  <SlogP_VSA11>
5.75

>  <EState_VSA1>
0

>  <EState_VSA2>
11.6

>  <EState_VSA3>
11.98

>  <EState_VSA4>
50.58

>  <EState_VSA5>
12.13

>  <EState_VSA6>
19.24

>  <EState_VSA7>
18.2

>  <EState_VSA8>
15.87

>  <EState_VSA9>
4.74

>  <EState_VSA10>
9.18

>  <VSA_EState1>
18.37

>  <VSA_EState2>
16.88

>  <VSA_EState3>
0

>  <VSA_EState4>
1.73

>  <VSA_EState5>
0.68

>  <VSA_EState6>
13.89

>  <VSA_EState7>
1.32

>  <VSA_EState8>
4.76

>  <VSA_EState9>
1.7

>  <apol>
56.1

>  <bpol>
32.22

>  <nRing>
3

>  <nHRing>
1

>  <naRing>
2

>  <naHRing>
0

>  <nARing 2>
1

>  <nAHRing 2>
1

>  <nFRing>
0

>  <nFHRing>
0

>  <nFaRing>
0

>  <nFaHRing>
0

>  <nFARing 2>
0

>  <nFAHRing 2>
0

>  <nRot>
7

>  <SLogP>
3.62

>  <SMR>
101.61

>  <TopoPSA(NO)>
32.78

>  <TopoPSA>
32.78

>  <JGI1>
0.16

>  <JGI2>
0.08

>  <JGI3>
0.04

>  <JGI4>
0.03

>  <JGI5>
0.02

>  <Diameter>
16

>  <Radius>
8

>  <TMWC10>
128.12

>  <TSRW10>
60.53

>  <MW>
356.19

>  <AMW>
6.98

>  <WPath>
2048

>  <WPol>
38

>  <Zagreb1>
130

>  <Zagreb2>
149

>  <mZagreb2>
5.92

>  <yes>


>  <nAR-cont>
0.816016

>  <nHA-cont>
0.892715677

>  <MWHBN>
0.211943026

>  <MWHBN-cont>
0.998781558

>  <TPSA-cont>
0.771175245

>  <pka_cont>
0.97

>  <yes.1>


>  <BBB_SCORE>
5.234254504

>  <MMFF94 Energy>
151.87

$$$$
Compound 1567
Actelion Java MolfileCreator 2.0

  0  0  0  0  0  0              0 V3000
M  V30 BEGIN CTAB
M  V30 COUNTS 53 55 0 0 0
M  V30 BEGIN ATOM
M  V30 1 F -3.0146 -6.0362 -1.5064 0
M  V30 2 C -1.8557 -5.4162 -1.7643 0
M  V30 3 C -1.8633 -4.0807 -2.1449 0
M  V30 4 C -0.6629 -6.1177 -1.6435 0
M  V30 5 C -0.6555 -3.4349 -2.4133 0
M  V30 6 C 0.5463 -5.473 -1.9103 0
M  V30 7 C 0.5651 -4.1241 -2.3045 0
M  V30 8 C 1.8906 -3.4396 -2.5778 0 CFG=1
M  V30 9 O 1.7681 -2.4727 -3.6188 0
M  V30 10 C 2.5257 -2.7937 -1.3385 0
M  V30 11 C 1.7443 -1.5981 -0.7726 0
M  V30 12 C 2.5063 -0.9522 0.3947 0
M  V30 13 N 1.873 0.1927 1.0578 0
M  V30 14 C 1.6705 1.3493 0.1585 0
M  V30 15 C 0.5918 -0.1432 1.7124 0
M  V30 16 C 1.1045 2.5834 0.9001 0
M  V30 17 C -0.002 1.0509 2.4986 0
M  V30 18 N -0.1245 2.2291 1.6311 0
M  V30 19 C -0.9953 3.2696 1.9564 0
M  V30 20 C -1.6509 4.0342 0.9553 0
M  V30 21 C -1.2574 3.593 3.3 0
M  V30 22 O -1.417 3.6608 -0.3494 0
M  V30 23 C -2.5031 5.0887 1.3164 0
M  V30 24 C -2.1132 4.6395 3.6504 0
M  V30 25 C -2.1965 4.2779 -1.3625 0
M  V30 26 C -2.732 5.3891 2.659 0
M  V30 27 H -2.8061 -3.5491 -2.2251 0
M  V30 28 H -0.682 -7.1596 -1.3403 0
M  V30 29 H -0.6691 -2.3832 -2.6962 0
M  V30 30 H 1.4753 -6.0303 -1.8074 0
M  V30 31 H 2.589 -4.1946 -2.9601 0
M  V30 32 H 1.2211 -2.8755 -4.3152 0
M  V30 33 H 2.6585 -3.5477 -0.5528 0
M  V30 34 H 3.5262 -2.4389 -1.6184 0
M  V30 35 H 1.5807 -0.8632 -1.5675 0
M  V30 36 H 0.764 -1.9403 -0.4282 0
M  V30 37 H 2.7072 -1.7181 1.1552 0
M  V30 38 H 3.4962 -0.6359 0.041 0
M  V30 39 H 2.6268 1.6334 -0.2962 0
M  V30 40 H 0.9801 1.0919 -0.6541 0
M  V30 41 H -0.1487 -0.4667 0.9705 0
M  V30 42 H 0.7412 -0.9726 2.4136 0
M  V30 43 H 0.9461 3.3806 0.1666 0
M  V30 44 H 1.8496 2.955 1.6158 0
M  V30 45 H 0.6435 1.2813 3.3554 0
M  V30 46 H -0.9848 0.7509 2.8823 0
M  V30 47 H -0.7713 3.0424 4.1001 0
M  V30 48 H -3.0075 5.6952 0.5726 0
M  V30 49 H -2.2868 4.8694 4.6981 0
M  V30 50 H -3.267 4.1199 -1.1945 0
M  V30 51 H -1.9381 3.8068 -2.3157 0
M  V30 52 H -1.96 5.3436 -1.4458 0
M  V30 53 H -3.3951 6.2068 2.9284 0
M  V30 END ATOM
M  V30 BEGIN BOND
M  V30 1 1 1 2
M  V30 2 2 2 3
M  V30 3 1 2 4
M  V30 4 1 3 5
M  V30 5 2 4 6
M  V30 6 2 5 7
M  V30 7 1 7 8
M  V30 8 1 8 9
M  V30 9 1 8 10
M  V30 10 1 10 11
M  V30 11 1 11 12
M  V30 12 1 12 13
M  V30 13 1 13 14
M  V30 14 1 13 15
M  V30 15 1 14 16
M  V30 16 1 15 17
M  V30 17 1 16 18
M  V30 18 1 18 19
M  V30 19 2 19 20
M  V30 20 1 19 21
M  V30 21 1 20 22
M  V30 22 1 20 23
M  V30 23 2 21 24
M  V30 24 1 22 25
M  V30 25 2 23 26
M  V30 26 1 6 7
M  V30 27 1 17 18
M  V30 28 1 24 26
M  V30 29 1 3 27
M  V30 30 1 4 28
M  V30 31 1 5 29
M  V30 32 1 6 30
M  V30 33 1 8 31
M  V30 34 1 9 32
M  V30 35 1 10 33
M  V30 36 1 10 34
M  V30 37 1 11 35
M  V30 38 1 11 36
M  V30 39 1 12 37
M  V30 40 1 12 38
M  V30 41 1 14 39
M  V30 42 1 14 40
M  V30 43 1 15 41
M  V30 44 1 15 42
M  V30 45 1 16 43
M  V30 46 1 16 44
M  V30 47 1 17 45
M  V30 48 1 17 46
M  V30 49 1 21 47
M  V30 50 1 23 48
M  V30 51 1 24 49
M  V30 52 1 25 50
M  V30 53 1 25 51
M  V30 54 1 25 52
M  V30 55 1 26 53
M  V30 END BOND
M  V30 BEGIN COLLECTION
M  V30 MDLV30/STERAC1 ATOMS=(1 8)
M  V30 END COLLECTION
M  V30 END CTAB
M  END
>  <Column 1>
1903

>  <level_0>
2069

>  <index>
2069

>  <Unnamed: 0>
2069

>  <NO.>
2081

>  <Name>
anisopirol

>  <IUPAC_name>
1-(4-fluorophenyl)-4-[4-(2-methoxyphenyl)piperazin-1-yl]butan-1-ol

>  <SMILES>
COc1ccccc1N1CCN(CCCC(O)c2ccc(F)cc2)CC1

>  <CID>
13333

>  <logBB>


>  <BBB+/BBB->
BBB+

>  <Inchi>
InChI=1S/C21H27FN2O2/c1-26-21-7-3-2-5-19(21)24-15-13-23(14-16-24)12-4-6-20(25)17-8-10-18(22)11-9-17/h2-3-5-7-11-20-25H-4-6-12-16H2-1H3

>  <threshold>
-1

>  <reference>
R1|R19|R6|R27|R27|R30|

>  <group>
B

>  <Class>
1

>  <ABC>
19.9

>  <ABCGG>
14.76

>  <nAcid>
0

>  <nBase>
1

>  <nAromAtom>
12

>  <nAromBond>
12

>  <nAtom>
53

>  <nHeavyAtom>
26

>  <nSpiro>
0

>  <nBridgehead>
0

>  <nHetero>
5

>  <nN>
2

>  <nO>
2

>  <nF>
1

>  <BalabanJ>
1.31

>  <BertzCT>
684.67

>  <nBonds>
55

>  <nBondsO>
28

>  <nBondsS>
43

>  <nBondsD>
0

>  <nBondsT>
0

>  <nBondsA>
12

>  <nBondsM>
12

>  <nBondsKS>
49

>  <nBondsKD>
6

>  <RNCG>
0.23

>  <RPCG>
0.1

>  <FCSP3>
0.43

>  <SZ>
32

>  <Sm>
29.84

>  <Sv>
31.91

>  <Sse>
52.93

>  <Sp>
34.39

>  <Si>
60.15

>  <MZ>
0.6

>  <Mm>
0.56

>  <Mv>
0.6

>  <Mse>
1

>  <Mp>
0.65

>  <Mi>
1.13

>  <NsCH3>
1

>  <NdCH2>
0

>  <NssCH2>
7

>  <NtCH>
0

>  <NdsCH>
0

>  <NaaCH>
8

>  <NsssCH>
1

>  <NddC>
0

>  <NtsC>
0

>  <NdssC>
0

>  <NaasC>
4

>  <NaaaC>
0

>  <NssssC>
0

>  <NsNH3>
0

>  <NsNH2>
0

>  <NssNH2>
0

>  <NdNH>
0

>  <NssNH>
0

>  <NaaNH>
0

>  <NtN>
0

>  <NsssNH>
0

>  <NdsN>
0

>  <NaaN>
0

>  <NsssN>
2

>  <NddsN>
0

>  <NaasN>
0

>  <NssssN>
0

>  <NsOH>
1

>  <NdO>
0

>  <NssO>
1

>  <NaaO>
0

>  <NsF>
1

>  <NsSiH3>
0

>  <NssSiH2>
0

>  <NsssSiH>
0

>  <NssssSi>
0

>  <NsPH2>
0

>  <NssPH>
0

>  <NsssP>
0

>  <NdsssP>
0

>  <NsssssP>
0

>  <NsSH>
0

>  <NdS>
0

>  <NssS>
0

>  <NaaS>
0

>  <NdssS>
0

>  <NddssS>
0

>  <NsCl>
0

>  <NsBr>
0

>  <NsI>
0

>  <fragCpx>
134.05

>  <fMF>
0.42

>  <nHBAcc>
4

>  <nHBDon>
1

>  <Kier1>
20.73

>  <Kier2>
10.52

>  <Lipinski>
1

>  <GhoseFilter>
1

>  <FilterItLogS>
-4.53

>  <VMcGowan>
281.83

>  <LabuteASA>
154.36

>  <PEOE_VSA1>
14.74

>  <PEOE_VSA2>
4.9

>  <PEOE_VSA3>
4.39

>  <PEOE_VSA4>
0

>  <PEOE_VSA5>
0

>  <PEOE_VSA6>
24.27

>  <PEOE_VSA7>
49.22

>  <PEOE_VSA8>
26.18

>  <PEOE_VSA9>
18.9

>  <PEOE_VSA10>
11.57

>  <PEOE_VSA11>
0

>  <PEOE_VSA12>
0

>  <PEOE_VSA13>
0

>  <SMR_VSA1>
14.23

>  <SMR_VSA2>
0

>  <SMR_VSA3>
4.9

>  <SMR_VSA4>
0

>  <SMR_VSA5>
18.95

>  <SMR_VSA6>
44.73

>  <SMR_VSA7>
59.91

>  <SMR_VSA8>
0

>  <SMR_VSA9>
5.75

>  <SlogP_VSA1>
9.64

>  <SlogP_VSA2>
49.84

>  <SlogP_VSA3>
0

>  <SlogP_VSA4>
5.82

>  <SlogP_VSA5>
24.51

>  <SlogP_VSA6>
48.53

>  <SlogP_VSA7>
0

>  <SlogP_VSA8>
0

>  <SlogP_VSA9>
0

>  <SlogP_VSA10>
10.08

>  <SlogP_VSA11>
5.75

>  <EState_VSA1>
6.1

>  <EState_VSA2>
5.82

>  <EState_VSA3>
6.42

>  <EState_VSA4>
56.14

>  <EState_VSA5>
12.13

>  <EState_VSA6>
19.24

>  <EState_VSA7>
18.2

>  <EState_VSA8>
15.87

>  <EState_VSA9>
4.74

>  <EState_VSA10>
9.5

>  <VSA_EState1>
18.41

>  <VSA_EState2>
4.8

>  <VSA_EState3>
10.23

>  <VSA_EState4>
1.94

>  <VSA_EState5>
0.65

>  <VSA_EState6>
14.25

>  <VSA_EState7>
1.09

>  <VSA_EState8>
4.93

>  <VSA_EState9>
1.71

>  <apol>
57.43

>  <bpol>
33.36

>  <nRing>
3

>  <nHRing>
1

>  <naRing>
2

>  <naHRing>
0

>  <nARing 2>
1

>  <nAHRing 2>
1

>  <nFRing>
0

>  <nFHRing>
0

>  <nFaRing>
0

>  <nFaHRing>
0

>  <nFARing 2>
0

>  <nFAHRing 2>
0

>  <nRot>
7

>  <SLogP>
3.47

>  <SMR>
102.24

>  <TopoPSA(NO)>
35.94

>  <TopoPSA>
35.94

>  <JGI1>
0.16

>  <JGI2>
0.08

>  <JGI3>
0.04

>  <JGI4>
0.03

>  <JGI5>
0.02

>  <Diameter>
16

>  <Radius>
8

>  <TMWC10>
128.12

>  <TSRW10>
60.53

>  <MW>
358.21

>  <AMW>
6.76

>  <WPath>
2048

>  <WPol>
38

>  <Zagreb1>
130

>  <Zagreb2>
149

>  <mZagreb2>
5.92

>  <yes>


>  <nAR-cont>
0.816016

>  <nHA-cont>
0.892715677

>  <MWHBN>
0.264180739

>  <MWHBN-cont>
0.932855387

>  <TPSA-cont>
0.749116483

>  <pka_cont>
0.97

>  <yes.1>


>  <BBB_SCORE>
5.091247723

>  <MMFF94 Energy>
141.84

$$$$
Compound 1568
Actelion Java MolfileCreator 2.0

  0  0  0  0  0  0              0 V3000
M  V30 BEGIN CTAB
M  V30 COUNTS 53 56 0 0 0
M  V30 BEGIN ATOM
M  V30 1 F 8.0055 -0.7185 0.3991 0
M  V30 2 C 6.8794 -1.3295 0.0098 0
M  V30 3 C 5.9623 -1.7493 0.9652 0
M  V30 4 C 6.6459 -1.537 -1.3438 0
M  V30 5 C 4.7877 -2.3875 0.5598 0
M  V30 6 C 5.4719 -2.1753 -1.7504 0
M  V30 7 C 4.5284 -2.6013 -0.8021 0
M  V30 8 C 3.3126 -3.2784 -1.2341 0
M  V30 9 N 3.3353 -4.3602 -2.0437 0
M  V30 10 C 2.0233 -3.0331 -0.9932 0
M  V30 11 C 2.0567 -4.7855 -2.2862 0
M  V30 12 O 1.1605 -3.9611 -1.6269 0
M  V30 13 C 1.373 -1.9539 -0.1864 0
M  V30 14 O 1.7449 -5.7422 -2.9769 0
M  V30 15 C 0.5589 -0.9964 -1.073 0
M  V30 16 N 0.0337 0.1666 -0.3325 0
M  V30 17 C -0.5101 1.1659 -1.2882 0
M  V30 18 C -1.0546 -0.2194 0.6024 0
M  V30 19 C -1.1163 2.4091 -0.5964 0
M  V30 20 C -1.6819 0.9861 1.3418 0
M  V30 21 N -2.1309 2.0052 0.3814 0
M  V30 22 C -3.107 2.9035 0.8139 0
M  V30 23 C -4.412 2.4719 1.1701 0
M  V30 24 C -2.828 4.2791 0.9044 0
M  V30 25 O -4.6732 1.1274 1.0239 0
M  V30 26 C -5.3636 3.3974 1.6244 0
M  V30 27 C -3.7844 5.195 1.3485 0
M  V30 28 C -6.0267 0.7082 1.1138 0
M  V30 29 C -5.0495 4.7533 1.7123 0
M  V30 30 H 6.1671 -1.5802 2.0177 0
M  V30 31 H 7.3759 -1.1994 -2.0725 0
M  V30 32 H 4.0818 -2.7228 1.3169 0
M  V30 33 H 5.2936 -2.3253 -2.8132 0
M  V30 34 H 4.15 -4.823 -2.4136 0
M  V30 35 H 0.7304 -2.4301 0.5625 0
M  V30 36 H 2.1243 -1.3776 0.3644 0
M  V30 37 H 1.2278 -0.6323 -1.8647 0
M  V30 38 H -0.2544 -1.5386 -1.5735 0
M  V30 39 H 0.2923 1.5089 -1.9523 0
M  V30 40 H -1.2809 0.7012 -1.9182 0
M  V30 41 H -1.8473 -0.7508 0.0586 0
M  V30 42 H -0.6657 -0.901 1.3662 0
M  V30 43 H -1.5586 3.0478 -1.3708 0
M  V30 44 H -0.3194 2.9764 -0.0994 0
M  V30 45 H -0.9358 1.4324 2.0124 0
M  V30 46 H -2.493 0.6138 1.976 0
M  V30 47 H -1.8413 4.6554 0.6509 0
M  V30 48 H -6.3618 3.0917 1.9175 0
M  V30 49 H -3.5335 6.2501 1.4158 0
M  V30 50 H -6.4018 0.8124 2.1369 0
M  V30 51 H -6.0646 -0.3542 0.8549 0
M  V30 52 H -6.661 1.2457 0.401 0
M  V30 53 H -5.794 5.4627 2.0636 0
M  V30 END ATOM
M  V30 BEGIN BOND
M  V30 1 1 1 2
M  V30 2 2 2 3
M  V30 3 1 2 4
M  V30 4 1 3 5
M  V30 5 2 4 6
M  V30 6 2 5 7
M  V30 7 1 7 8
M  V30 8 1 8 9
M  V30 9 2 8 10
M  V30 10 1 9 11
M  V30 11 1 10 12
M  V30 12 1 10 13
M  V30 13 2 11 14
M  V30 14 1 13 15
M  V30 15 1 15 16
M  V30 16 1 16 17
M  V30 17 1 16 18
M  V30 18 1 17 19
M  V30 19 1 18 20
M  V30 20 1 19 21
M  V30 21 1 21 22
M  V30 22 2 22 23
M  V30 23 1 22 24
M  V30 24 1 23 25
M  V30 25 1 23 26
M  V30 26 2 24 27
M  V30 27 1 25 28
M  V30 28 2 26 29
M  V30 29 1 6 7
M  V30 30 1 11 12
M  V30 31 1 20 21
M  V30 32 1 27 29
M  V30 33 1 3 30
M  V30 34 1 4 31
M  V30 35 1 5 32
M  V30 36 1 6 33
M  V30 37 1 9 34
M  V30 38 1 13 35
M  V30 39 1 13 36
M  V30 40 1 15 37
M  V30 41 1 15 38
M  V30 42 1 17 39
M  V30 43 1 17 40
M  V30 44 1 18 41
M  V30 45 1 18 42
M  V30 46 1 19 43
M  V30 47 1 19 44
M  V30 48 1 20 45
M  V30 49 1 20 46
M  V30 50 1 24 47
M  V30 51 1 26 48
M  V30 52 1 27 49
M  V30 53 1 28 50
M  V30 54 1 28 51
M  V30 55 1 28 52
M  V30 56 1 29 53
M  V30 END BOND
M  V30 END CTAB
M  END
>  <Column 1>
1904

>  <level_0>
2070

>  <index>
2070

>  <Unnamed: 0>
2070

>  <NO.>
2082

>  <Name>
zoloperone

>  <IUPAC_name>
4-(4-fluorophenyl)-5-[2-[4-(2-methoxyphenyl)piperazin-1-yl]ethyl]-3h-1-3-oxazol-2-one

>  <SMILES>
COc1ccccc1N1CCN(CCc2oc(=O)[nH]c2-c2ccc(F)cc2)CC1

>  <CID>
68696

>  <logBB>


>  <BBB+/BBB->
BBB+

>  <Inchi>
InChI=1S/C22H24FN3O3/c1-28-19-5-3-2-4-18(19)26-14-12-25(13-15-26)11-10-20-21(24-22(27)29-20)16-6-8-17(23)9-7-16/h2-9H-10-15H2-1H3-(H-24-27)

>  <threshold>
-1

>  <reference>
R1|R13|R19|R6|R24|R27|R27|R27|R30|R30|

>  <group>
B

>  <Class>
1

>  <ABC>
22.68

>  <ABCGG>
16.96

>  <nAcid>
0

>  <nBase>
1

>  <nAromAtom>
17

>  <nAromBond>
17

>  <nAtom>
53

>  <nHeavyAtom>
29

>  <nSpiro>
0

>  <nBridgehead>
0

>  <nHetero>
7

>  <nN>
3

>  <nO>
3

>  <nF>
1

>  <BalabanJ>
1.22

>  <BertzCT>
1004.64

>  <nBonds>
56

>  <nBondsO>
32

>  <nBondsS>
38

>  <nBondsD>
1

>  <nBondsT>
0

>  <nBondsA>
17

>  <nBondsM>
18

>  <nBondsKS>
48

>  <nBondsKD>
8

>  <RNCG>
0.19

>  <RPCG>
0.16

>  <FCSP3>
0.32

>  <SZ>
35

>  <Sm>
33.09

>  <Sv>
33.57

>  <Sse>
53.59

>  <Sp>
35.33

>  <Si>
60.03

>  <MZ>
0.66

>  <Mm>
0.62

>  <Mv>
0.63

>  <Mse>
1.01

>  <Mp>
0.67

>  <Mi>
1.13

>  <NsCH3>
1

>  <NdCH2>
0

>  <NssCH2>
6

>  <NtCH>
0

>  <NdsCH>
0

>  <NaaCH>
8

>  <NsssCH>
0

>  <NddC>
0

>  <NtsC>
0

>  <NdssC>
0

>  <NaasC>
6

>  <NaaaC>
0

>  <NssssC>
0

>  <NsNH3>
0

>  <NsNH2>
0

>  <NssNH2>
0

>  <NdNH>
0

>  <NssNH>
0

>  <NaaNH>
1

>  <NtN>
0

>  <NsssNH>
0

>  <NdsN>
0

>  <NaaN>
0

>  <NsssN>
2

>  <NddsN>
0

>  <NaasN>
0

>  <NssssN>
0

>  <NsOH>
0

>  <NdO>
1

>  <NssO>
1

>  <NaaO>
1

>  <NsF>
1

>  <NsSiH3>
0

>  <NssSiH2>
0

>  <NsssSiH>
0

>  <NssssSi>
0

>  <NsPH2>
0

>  <NssPH>
0

>  <NsssP>
0

>  <NdsssP>
0

>  <NsssssP>
0

>  <NsSH>
0

>  <NdS>
0

>  <NssS>
0

>  <NaaS>
0

>  <NdssS>
0

>  <NddssS>
0

>  <NsCl>
0

>  <NsBr>
0

>  <NsI>
0

>  <fragCpx>
212.07

>  <fMF>
0.47

>  <nHBAcc>
5

>  <nHBDon>
1

>  <Kier1>
22.2

>  <Kier2>
10.54

>  <Lipinski>
1

>  <GhoseFilter>
1

>  <FilterItLogS>
-5.89

>  <VMcGowan>
292.31

>  <LabuteASA>
168.07

>  <PEOE_VSA1>
14.05

>  <PEOE_VSA2>
9.88

>  <PEOE_VSA3>
9.18

>  <PEOE_VSA4>
0

>  <PEOE_VSA5>
0

>  <PEOE_VSA6>
12.13

>  <PEOE_VSA7>
36.4

>  <PEOE_VSA8>
44.71

>  <PEOE_VSA9>
18.49

>  <PEOE_VSA10>
17.33

>  <PEOE_VSA11>
0

>  <PEOE_VSA12>
0

>  <PEOE_VSA13>
0

>  <SMR_VSA1>
13.54

>  <SMR_VSA2>
0

>  <SMR_VSA3>
9.88

>  <SMR_VSA4>
0

>  <SMR_VSA5>
6.42

>  <SMR_VSA6>
44.73

>  <SMR_VSA7>
70.66

>  <SMR_VSA8>
0

>  <SMR_VSA9>
17.01

>  <SlogP_VSA1>
15.39

>  <SlogP_VSA2>
49.72

>  <SlogP_VSA3>
6.42

>  <SlogP_VSA4>
5.82

>  <SlogP_VSA5>
5.76

>  <SlogP_VSA6>
57.74

>  <SlogP_VSA7>
0

>  <SlogP_VSA8>
11.26

>  <SlogP_VSA9>
0

>  <SlogP_VSA10>
10.08

>  <SlogP_VSA11>
5.75

>  <EState_VSA1>
5.76

>  <EState_VSA2>
5.82

>  <EState_VSA3>
17.88

>  <EState_VSA4>
49.72

>  <EState_VSA5>
12.13

>  <EState_VSA6>
19.24

>  <EState_VSA7>
18.2

>  <EState_VSA8>
20.85

>  <EState_VSA9>
9.15

>  <EState_VSA10>
9.18

>  <VSA_EState1>
24.01

>  <VSA_EState2>
19.14

>  <VSA_EState3>
0

>  <VSA_EState4>
2.49

>  <VSA_EState5>
0.7

>  <VSA_EState6>
14.1

>  <VSA_EState7>
0.61

>  <VSA_EState8>
4.43

>  <VSA_EState9>
1.69

>  <apol>
59.01

>  <bpol>
33.52

>  <nRing>
4

>  <nHRing>
2

>  <naRing>
3

>  <naHRing>
1

>  <nARing 2>
1

>  <nAHRing 2>
1

>  <nFRing>
0

>  <nFHRing>
0

>  <nFaRing>
0

>  <nFaHRing>
0

>  <nFARing 2>
0

>  <nFAHRing 2>
0

>  <nRot>
6

>  <SLogP>
3.15

>  <SMR>
110.07

>  <TopoPSA(NO)>
61.71

>  <TopoPSA>
61.71

>  <JGI1>
0.17

>  <JGI2>
0.08

>  <JGI3>
0.04

>  <JGI4>
0.03

>  <JGI5>
0.02

>  <Diameter>
16

>  <Radius>
8

>  <TMWC10>
137.42

>  <TSRW10>
78.36

>  <MW>
397.18

>  <AMW>
7.49

>  <WPath>
2575

>  <WPol>
44

>  <Zagreb1>
152

>  <Zagreb2>
178

>  <mZagreb2>
6.44

>  <yes>


>  <nAR-cont>
0.816016

>  <nHA-cont>
0.785905698

>  <MWHBN>
0.301063125

>  <MWHBN-cont>
0.837550803

>  <TPSA-cont>
0.56922588

>  <pka_cont>
0.97

>  <yes.1>


>  <BBB_SCORE>
4.481699664

>  <MMFF94 Energy>
135.65

$$$$
Compound 1569
Actelion Java MolfileCreator 2.0

  0  0  0  0  0  0              0 V3000
M  V30 BEGIN CTAB
M  V30 COUNTS 32 32 0 0 0
M  V30 BEGIN ATOM
M  V30 1 O -3.9851 -1.7175 -1.6394 0
M  V30 2 C -3.8412 -0.779 -2.4055 0
M  V30 3 O -3.0327 0.2872 -2.2324 0
M  V30 4 N -4.4946 -0.6711 -3.5831 0
M  V30 5 C -2.3055 0.277 -0.9894 0
M  V30 6 C -1.5112 1.5846 -0.8778 0 CFG=2
M  V30 7 O -2.4229 2.6843 -0.7355 0
M  V30 8 C -0.5627 1.5602 0.3253 0
M  V30 9 O 0.4463 0.5821 0.1011 0
M  V30 10 C 1.3636 0.3623 1.0979 0
M  V30 11 C 2.2925 -0.672 0.8621 0
M  V30 12 C 1.4254 1.0878 2.2928 0
M  V30 13 O 2.1668 -1.3315 -0.336 0
M  V30 14 C 3.2644 -0.96 1.8268 0
M  V30 15 C 2.3984 0.7897 3.2488 0
M  V30 16 C 3.0247 -2.4392 -0.5684 0
M  V30 17 C 3.3152 -0.2309 3.0165 0
M  V30 18 H -5.1418 -1.3952 -3.8528 0
M  V30 19 H -4.3399 0.1349 -4.1674 0
M  V30 20 H -1.633 -0.588 -0.986 0
M  V30 21 H -3.0198 0.2019 -0.1604 0
M  V30 22 H -0.9503 1.7365 -1.8081 0
M  V30 23 H -1.9397 3.4905 -0.9863 0
M  V30 24 H -0.1074 2.5523 0.4378 0
M  V30 25 H -1.1343 1.3349 1.2349 0
M  V30 26 H 0.732 1.8926 2.512 0
M  V30 27 H 3.9989 -1.7448 1.6821 0
M  V30 28 H 2.4401 1.3565 4.1757 0
M  V30 29 H 4.0715 -2.1224 -0.6197 0
M  V30 30 H 2.7604 -2.8688 -1.5396 0
M  V30 31 H 2.8822 -3.2175 0.1886 0
M  V30 32 H 4.0727 -0.4608 3.7618 0
M  V30 END ATOM
M  V30 BEGIN BOND
M  V30 1 2 1 2
M  V30 2 1 2 3
M  V30 3 1 2 4
M  V30 4 1 3 5
M  V30 5 1 5 6
M  V30 6 1 6 7
M  V30 7 1 6 8
M  V30 8 1 8 9
M  V30 9 1 9 10
M  V30 10 2 10 11
M  V30 11 1 10 12
M  V30 12 1 11 13
M  V30 13 1 11 14
M  V30 14 2 12 15
M  V30 15 1 13 16
M  V30 16 2 14 17
M  V30 17 1 15 17
M  V30 18 1 4 18
M  V30 19 1 4 19
M  V30 20 1 5 20
M  V30 21 1 5 21
M  V30 22 1 6 22
M  V30 23 1 7 23
M  V30 24 1 8 24
M  V30 25 1 8 25
M  V30 26 1 12 26
M  V30 27 1 14 27
M  V30 28 1 15 28
M  V30 29 1 16 29
M  V30 30 1 16 30
M  V30 31 1 16 31
M  V30 32 1 17 32
M  V30 END BOND
M  V30 BEGIN COLLECTION
M  V30 MDLV30/STERAC1 ATOMS=(1 6)
M  V30 END COLLECTION
M  V30 END CTAB
M  END
>  <Column 1>
1905

>  <level_0>
2071

>  <index>
2071

>  <Unnamed: 0>
2071

>  <NO.>
2083

>  <Name>
methocarbamol

>  <IUPAC_name>
[2-hydroxy-3-(2-methoxyphenoxy)propyl] carbamate

>  <SMILES>
COc1ccccc1OCC(O)COC(N)=O

>  <CID>
4107

>  <logBB>


>  <BBB+/BBB->
BBB+

>  <Inchi>
InChI=1S/C11H15NO5/c1-15-9-4-2-3-5-10(9)16-6-8(13)7-17-11(12)14/h2-5-8-13H-6-7H2-1H3-(H2-12-14)

>  <threshold>
-1

>  <reference>
R1|R14|R15|R23|R27|R30|

>  <group>
B

>  <Class>
1

>  <ABC>
12.31

>  <ABCGG>
10.98

>  <nAcid>
0

>  <nBase>
0

>  <nAromAtom>
6

>  <nAromBond>
6

>  <nAtom>
32

>  <nHeavyAtom>
17

>  <nSpiro>
0

>  <nBridgehead>
0

>  <nHetero>
6

>  <nN>
1

>  <nO>
5

>  <nF>
0

>  <BalabanJ>
2.19

>  <BertzCT>
368.63

>  <nBonds>
32

>  <nBondsO>
17

>  <nBondsS>
25

>  <nBondsD>
1

>  <nBondsT>
0

>  <nBondsA>
6

>  <nBondsM>
7

>  <nBondsKS>
28

>  <nBondsKD>
4

>  <RNCG>
0.2

>  <RPCG>
0.16

>  <FCSP3>
0.36

>  <SZ>
21.33

>  <Sm>
20.09

>  <Sv>
19.4

>  <Sse>
32.98

>  <Sp>
20.05

>  <Si>
36.45

>  <MZ>
0.67

>  <Mm>
0.63

>  <Mv>
0.61

>  <Mse>
1.03

>  <Mp>
0.63

>  <Mi>
1.14

>  <NsCH3>
1

>  <NdCH2>
0

>  <NssCH2>
2

>  <NtCH>
0

>  <NdsCH>
0

>  <NaaCH>
4

>  <NsssCH>
1

>  <NddC>
0

>  <NtsC>
0

>  <NdssC>
1

>  <NaasC>
2

>  <NaaaC>
0

>  <NssssC>
0

>  <NsNH3>
0

>  <NsNH2>
1

>  <NssNH2>
0

>  <NdNH>
0

>  <NssNH>
0

>  <NaaNH>
0

>  <NtN>
0

>  <NsssNH>
0

>  <NdsN>
0

>  <NaaN>
0

>  <NsssN>
0

>  <NddsN>
0

>  <NaasN>
0

>  <NssssN>
0

>  <NsOH>
1

>  <NdO>
1

>  <NssO>
3

>  <NaaO>
0

>  <NsF>
0

>  <NsSiH3>
0

>  <NssSiH2>
0

>  <NsssSiH>
0

>  <NssssSi>
0

>  <NsPH2>
0

>  <NssPH>
0

>  <NsssP>
0

>  <NdsssP>
0

>  <NsssssP>
0

>  <NsSH>
0

>  <NdS>
0

>  <NssS>
0

>  <NaaS>
0

>  <NdssS>
0

>  <NddssS>
0

>  <NsCl>
0

>  <NsBr>
0

>  <NsI>
0

>  <fragCpx>
17.06

>  <fMF>
0.19

>  <nHBAcc>
5

>  <nHBDon>
2

>  <Kier1>
15.06

>  <Kier2>
8.16

>  <Lipinski>
1

>  <GhoseFilter>
1

>  <FilterItLogS>
-1.28

>  <VMcGowan>
177.12

>  <LabuteASA>
98.89

>  <PEOE_VSA1>
25.05

>  <PEOE_VSA2>
0

>  <PEOE_VSA3>
4.79

>  <PEOE_VSA4>
0

>  <PEOE_VSA5>
0

>  <PEOE_VSA6>
12.13

>  <PEOE_VSA7>
12.13

>  <PEOE_VSA8>
0

>  <PEOE_VSA9>
7.11

>  <PEOE_VSA10>
19.32

>  <PEOE_VSA11>
11.5

>  <PEOE_VSA12>
0

>  <PEOE_VSA13>
0

>  <SMR_VSA1>
24.11

>  <SMR_VSA2>
0

>  <SMR_VSA3>
0

>  <SMR_VSA4>
5.73

>  <SMR_VSA5>
6.1

>  <SMR_VSA6>
20.32

>  <SMR_VSA7>
24.27

>  <SMR_VSA8>
0

>  <SMR_VSA9>
11.5

>  <SlogP_VSA1>
15.21

>  <SlogP_VSA2>
37.63

>  <SlogP_VSA3>
4.74

>  <SlogP_VSA4>
0

>  <SlogP_VSA5>
0

>  <SlogP_VSA6>
24.27

>  <SlogP_VSA7>
0

>  <SlogP_VSA8>
0

>  <SlogP_VSA9>
0

>  <SlogP_VSA10>
4.79

>  <SlogP_VSA11>
11.5

>  <EState_VSA1>
12.2

>  <EState_VSA2>
13.21

>  <EState_VSA3>
11.5

>  <EState_VSA4>
0

>  <EState_VSA5>
7.11

>  <EState_VSA6>
24.27

>  <EState_VSA7>
0

>  <EState_VSA8>
4.74

>  <EState_VSA9>
15.21

>  <EState_VSA10>
9.9

>  <VSA_EState1>
14.81

>  <VSA_EState2>
10.31

>  <VSA_EState3>
9.42

>  <VSA_EState4>
4.76

>  <VSA_EState5>
1.07

>  <VSA_EState6>
7.03

>  <VSA_EState7>
-1.87

>  <VSA_EState8>
-0.22

>  <VSA_EState9>
1.52

>  <apol>
33.48

>  <bpol>
20.55

>  <nRing>
1

>  <nHRing>
0

>  <naRing>
1

>  <naHRing>
0

>  <nARing 2>
0

>  <nAHRing 2>
0

>  <nFRing>
0

>  <nFHRing>
0

>  <nFaRing>
0

>  <nFaHRing>
0

>  <nFARing 2>
0

>  <nFAHRing 2>
0

>  <nRot>
6

>  <SLogP>
0.53

>  <SMR>
60.03

>  <TopoPSA(NO)>
91.01

>  <TopoPSA>
91.01

>  <JGI1>
0.21

>  <JGI2>
0.08

>  <JGI3>
0.03

>  <JGI4>
0.04

>  <JGI5>
0.03

>  <Diameter>
10

>  <Radius>
5

>  <TMWC10>
101.63

>  <TSRW10>
48.4

>  <MW>
241.1

>  <AMW>
7.53

>  <WPath>
606

>  <WPol>
20

>  <Zagreb1>
76

>  <Zagreb2>
82

>  <mZagreb2>
4.03

>  <yes>


>  <nAR-cont>
0.336376

>  <nHA-cont>
0.976740822

>  <MWHBN>
0.450816118

>  <MWHBN-cont>
0

>  <TPSA-cont>
0.364693686

>  <pka_cont>
0.97

>  <yes.1>


>  <BBB_SCORE>
2.527504194

>  <MMFF94 Energy>
-4.0302

$$$$
Compound 1570
Actelion Java MolfileCreator 2.0

  0  0  0  0  0  0              0 V3000
M  V30 BEGIN CTAB
M  V30 COUNTS 29 30 0 0 0
M  V30 BEGIN ATOM
M  V30 1 O 1.7408 -4.9119 -1.2658 0
M  V30 2 C 1.2296 -4.0329 -0.5948 0
M  V30 3 O 1.8921 -2.9563 -0.0815 0
M  V30 4 N -0.0881 -3.976 -0.247 0
M  V30 5 C 0.9914 -2.2546 0.8002 0 CFG=2
M  V30 6 C -0.3867 -2.7509 0.4096 0
M  V30 7 C 1.1804 -0.745 0.6811 0
M  V30 8 O 0.7528 -0.2982 -0.6135 0
M  V30 9 C 0.5327 1.056 -0.6095 0
M  V30 10 C -0.6653 1.5999 -0.119 0
M  V30 11 C 1.5113 1.8657 -1.1867 0
M  V30 12 O -1.5735 0.7098 0.3949 0
M  V30 13 C -0.8413 2.9853 -0.1745 0
M  V30 14 C 1.3212 3.2439 -1.2412 0
M  V30 15 C -2.8688 1.2151 0.6937 0
M  V30 16 C 0.1496 3.8024 -0.7315 0
M  V30 17 H -0.7452 -4.6619 -0.5919 0
M  V30 18 H 1.2455 -2.5702 1.8198 0
M  V30 19 H -1.0351 -2.9259 1.2722 0
M  V30 20 H -0.9094 -2.1105 -0.3059 0
M  V30 21 H 0.6172 -0.2561 1.4857 0
M  V30 22 H 2.2433 -0.4977 0.7915 0
M  V30 23 H 2.4151 1.4202 -1.5928 0
M  V30 24 H -1.7373 3.4646 0.2055 0
M  V30 25 H 2.0821 3.8807 -1.6849 0
M  V30 26 H -2.8319 1.9131 1.5365 0
M  V30 27 H -3.4961 0.3691 0.991 0
M  V30 28 H -3.3295 1.6781 -0.1853 0
M  V30 29 H 0.0018 4.8792 -0.7741 0
M  V30 END ATOM
M  V30 BEGIN BOND
M  V30 1 2 1 2
M  V30 2 1 2 3
M  V30 3 1 2 4
M  V30 4 1 3 5
M  V30 5 1 4 6
M  V30 6 1 5 7
M  V30 7 1 7 8
M  V30 8 1 8 9
M  V30 9 2 9 10
M  V30 10 1 9 11
M  V30 11 1 10 12
M  V30 12 1 10 13
M  V30 13 2 11 14
M  V30 14 1 12 15
M  V30 15 2 13 16
M  V30 16 1 5 6
M  V30 17 1 14 16
M  V30 18 1 4 17
M  V30 19 1 5 18
M  V30 20 1 6 19
M  V30 21 1 6 20
M  V30 22 1 7 21
M  V30 23 1 7 22
M  V30 24 1 11 23
M  V30 25 1 13 24
M  V30 26 1 14 25
M  V30 27 1 15 26
M  V30 28 1 15 27
M  V30 29 1 15 28
M  V30 30 1 16 29
M  V30 END BOND
M  V30 BEGIN COLLECTION
M  V30 MDLV30/STERAC1 ATOMS=(1 5)
M  V30 END COLLECTION
M  V30 END CTAB
M  END
>  <Column 1>
1906

>  <level_0>
2072

>  <index>
2072

>  <Unnamed: 0>
2072

>  <NO.>
2084

>  <Name>
mephenoxalone

>  <IUPAC_name>
5-[(2-methoxyphenoxy)methyl]-1-3-oxazolidin-2-one

>  <SMILES>
COc1ccccc1OCC1CNC(=O)O1

>  <CID>
6257

>  <logBB>


>  <BBB+/BBB->
BBB+

>  <Inchi>
InChI=1S/C11H13NO4/c1-14-9-4-2-3-5-10(9)15-7-8-6-12-11(13)16-8/h2-5-8H-6-7H2-1H3-(H-12-13)

>  <threshold>
-1

>  <reference>
R1|R19|R6|R27|R27|R30|

>  <group>
B

>  <Class>
1

>  <ABC>
12.09

>  <ABCGG>
10.68

>  <nAcid>
0

>  <nBase>
0

>  <nAromAtom>
6

>  <nAromBond>
6

>  <nAtom>
29

>  <nHeavyAtom>
16

>  <nSpiro>
0

>  <nBridgehead>
0

>  <nHetero>
5

>  <nN>
1

>  <nO>
4

>  <nF>
0

>  <BalabanJ>
1.71

>  <BertzCT>
380

>  <nBonds>
30

>  <nBondsO>
17

>  <nBondsS>
23

>  <nBondsD>
1

>  <nBondsT>
0

>  <nBondsA>
6

>  <nBondsM>
7

>  <nBondsKS>
26

>  <nBondsKD>
4

>  <RNCG>
0.23

>  <RPCG>
0.19

>  <FCSP3>
0.36

>  <SZ>
19.67

>  <Sm>
18.59

>  <Sv>
18.14

>  <Sse>
29.76

>  <Sp>
18.77

>  <Si>
32.83

>  <MZ>
0.68

>  <Mm>
0.64

>  <Mv>
0.63

>  <Mse>
1.03

>  <Mp>
0.65

>  <Mi>
1.13

>  <NsCH3>
1

>  <NdCH2>
0

>  <NssCH2>
2

>  <NtCH>
0

>  <NdsCH>
0

>  <NaaCH>
4

>  <NsssCH>
1

>  <NddC>
0

>  <NtsC>
0

>  <NdssC>
1

>  <NaasC>
2

>  <NaaaC>
0

>  <NssssC>
0

>  <NsNH3>
0

>  <NsNH2>
0

>  <NssNH2>
0

>  <NdNH>
0

>  <NssNH>
1

>  <NaaNH>
0

>  <NtN>
0

>  <NsssNH>
0

>  <NdsN>
0

>  <NaaN>
0

>  <NsssN>
0

>  <NddsN>
0

>  <NaasN>
0

>  <NssssN>
0

>  <NsOH>
0

>  <NdO>
1

>  <NssO>
3

>  <NaaO>
0

>  <NsF>
0

>  <NsSiH3>
0

>  <NssSiH2>
0

>  <NsssSiH>
0

>  <NssssSi>
0

>  <NsPH2>
0

>  <NssPH>
0

>  <NsssP>
0

>  <NdsssP>
0

>  <NsssssP>
0

>  <NsSH>
0

>  <NdS>
0

>  <NssS>
0

>  <NaaS>
0

>  <NdssS>
0

>  <NddssS>
0

>  <NsCl>
0

>  <NsBr>
0

>  <NsI>
0

>  <fragCpx>
49.05

>  <fMF>
0.45

>  <nHBAcc>
4

>  <nHBDon>
1

>  <Kier1>
12.46

>  <Kier2>
6.07

>  <Lipinski>
1

>  <GhoseFilter>
1

>  <FilterItLogS>
-2.35

>  <VMcGowan>
160.39

>  <LabuteASA>
93.3

>  <PEOE_VSA1>
19.53

>  <PEOE_VSA2>
0

>  <PEOE_VSA3>
4.79

>  <PEOE_VSA4>
0

>  <PEOE_VSA5>
0

>  <PEOE_VSA6>
12.13

>  <PEOE_VSA7>
12.13

>  <PEOE_VSA8>
0

>  <PEOE_VSA9>
13.65

>  <PEOE_VSA10>
6.61

>  <PEOE_VSA11>
17.6

>  <PEOE_VSA12>
0

>  <PEOE_VSA13>
0

>  <SMR_VSA1>
19.01

>  <SMR_VSA2>
0

>  <SMR_VSA3>
5.32

>  <SMR_VSA4>
0

>  <SMR_VSA5>
6.1

>  <SMR_VSA6>
20.26

>  <SMR_VSA7>
24.27

>  <SMR_VSA8>
0

>  <SMR_VSA9>
11.5

>  <SlogP_VSA1>
14.79

>  <SlogP_VSA2>
32.46

>  <SlogP_VSA3>
4.74

>  <SlogP_VSA4>
0

>  <SlogP_VSA5>
0

>  <SlogP_VSA6>
24.27

>  <SlogP_VSA7>
0

>  <SlogP_VSA8>
0

>  <SlogP_VSA9>
0

>  <SlogP_VSA10>
4.79

>  <SlogP_VSA11>
11.5

>  <EState_VSA1>
6.09

>  <EState_VSA2>
6.1

>  <EState_VSA3>
24.65

>  <EState_VSA4>
0

>  <EState_VSA5>
0

>  <EState_VSA6>
7.11

>  <EState_VSA7>
24.27

>  <EState_VSA8>
5.32

>  <EState_VSA9>
14.21

>  <EState_VSA10>
4.79

>  <VSA_EState1>
15.59

>  <VSA_EState2>
10.77

>  <VSA_EState3>
2.56

>  <VSA_EState4>
0

>  <VSA_EState5>
1.31

>  <VSA_EState6>
7.34

>  <VSA_EState7>
-0.63

>  <VSA_EState8>
0.8

>  <VSA_EState9>
1.58

>  <apol>
31.35

>  <bpol>
19.69

>  <nRing>
2

>  <nHRing>
1

>  <naRing>
1

>  <naHRing>
0

>  <nARing 2>
1

>  <nAHRing 2>
1

>  <nFRing>
0

>  <nFHRing>
0

>  <nFaRing>
0

>  <nFaHRing>
0

>  <nFARing 2>
0

>  <nFAHRing 2>
0

>  <nRot>
4

>  <SLogP>
1.18

>  <SMR>
56.76

>  <TopoPSA(NO)>
56.79

>  <TopoPSA>
56.79

>  <JGI1>
0.18

>  <JGI2>
0.07

>  <JGI3>
0.04

>  <JGI4>
0.03

>  <JGI5>
0.02

>  <Diameter>
9

>  <Radius>
5

>  <TMWC10>
102

>  <TSRW10>
61.27

>  <MW>
223.08

>  <AMW>
7.69

>  <WPath>
479

>  <WPol>
19

>  <Zagreb1>
78

>  <Zagreb2>
88

>  <mZagreb2>
3.69

>  <yes>


>  <nAR-cont>
0.816016

>  <nHA-cont>
0.954961865

>  <MWHBN>
0.334764723

>  <MWHBN-cont>
0.725988549

>  <TPSA-cont>
0.603570536

>  <pka_cont>
0.97

>  <yes.1>


>  <BBB_SCORE>
4.55210176

>  <MMFF94 Energy>
7.6669

$$$$
Compound 1571
Actelion Java MolfileCreator 2.0

  0  0  0  0  0  0              0 V3000
M  V30 BEGIN CTAB
M  V30 COUNTS 36 39 0 0 0
M  V30 BEGIN ATOM
M  V30 1 O 2.1767 -0.4834 5.3274 0
M  V30 2 N 1.2092 0.1268 4.5286 0
M  V30 3 C 2.9014 -1.2939 4.5046 0
M  V30 4 C 1.4511 -0.3781 3.3112 0
M  V30 5 N 2.5004 -1.2696 3.2544 0
M  V30 6 C 3.9971 -2.0547 5.1284 0
M  V30 7 C 0.6976 -0.0501 2.0973 0
M  V30 8 N -0.3557 0.832 2.1101 0
M  V30 9 C 0.9058 -0.5409 0.8276 0
M  V30 10 C -0.7973 0.8902 0.8706 0
M  V30 11 N -0.0432 0.0575 0.0405 0
M  V30 12 N -1.8294 1.6286 0.3754 0
M  V30 13 C -0.3015 -0.0741 -1.3294 0
M  V30 14 C -2.0604 1.4939 -0.8898 0
M  V30 15 C -1.3289 0.6239 -1.8599 0
M  V30 16 C 0.5633 -0.9776 -2.1706 0
M  V30 17 O -3.0479 2.1719 -1.5268 0
M  V30 18 C -1.7456 0.5473 -3.2983 0
M  V30 19 C 0.372 -0.7681 -3.6764 0
M  V30 20 C -3.8335 3.051 -0.7131 0
M  V30 21 C -1.1033 -0.6306 -4.0353 0
M  V30 22 H 3.6096 -2.7148 5.91 0
M  V30 23 H 4.5121 -2.6702 4.385 0
M  V30 24 H 4.7286 -1.3762 5.577 0
M  V30 25 H 1.6297 -1.2457 0.4467 0
M  V30 26 H 0.3297 -2.0198 -1.9188 0
M  V30 27 H 1.6236 -0.817 -1.9421 0
M  V30 28 H -1.4634 1.4836 -3.7954 0
M  V30 29 H -2.8342 0.4485 -3.3816 0
M  V30 30 H 0.9086 0.1357 -3.9923 0
M  V30 31 H 0.8155 -1.608 -4.2231 0
M  V30 32 H -3.2061 3.8371 -0.2817 0
M  V30 33 H -4.5835 3.5215 -1.3549 0
M  V30 34 H -4.3526 2.4883 0.0689 0
M  V30 35 H -1.2171 -0.4944 -5.1167 0
M  V30 36 H -1.6286 -1.5583 -3.7742 0
M  V30 END ATOM
M  V30 BEGIN BOND
M  V30 1 1 1 2
M  V30 2 1 1 3
M  V30 3 2 2 4
M  V30 4 2 3 5
M  V30 5 1 3 6
M  V30 6 1 4 7
M  V30 7 1 7 8
M  V30 8 2 7 9
M  V30 9 2 8 10
M  V30 10 1 9 11
M  V30 11 1 10 12
M  V30 12 1 11 13
M  V30 13 2 12 14
M  V30 14 2 13 15
M  V30 15 1 13 16
M  V30 16 1 14 17
M  V30 17 1 15 18
M  V30 18 1 16 19
M  V30 19 1 17 20
M  V30 20 1 18 21
M  V30 21 1 4 5
M  V30 22 1 10 11
M  V30 23 1 14 15
M  V30 24 1 19 21
M  V30 25 1 6 22
M  V30 26 1 6 23
M  V30 27 1 6 24
M  V30 28 1 9 25
M  V30 29 1 16 26
M  V30 30 1 16 27
M  V30 31 1 18 28
M  V30 32 1 18 29
M  V30 33 1 19 30
M  V30 34 1 19 31
M  V30 35 1 20 32
M  V30 36 1 20 33
M  V30 37 1 20 34
M  V30 38 1 21 35
M  V30 39 1 21 36
M  V30 END BOND
M  V30 END CTAB
M  END
>  <Column 1>
1907

>  <level_0>
2073

>  <index>
2073

>  <Unnamed: 0>
2073

>  <NO.>
2085

>  <Name>
taniplon

>  <IUPAC_name>
3-(5-methoxy-6-7-8-9-tetrahydroimidazo[1-2-a]quinazolin-2-yl)-5-methyl-1-2-4-oxadiazole

>  <SMILES>
COc1nc2nc(-c3noc(C)n3)cn2c2c1CCCC2

>  <CID>
3086516

>  <logBB>


>  <BBB+/BBB->
BBB+

>  <Inchi>
InChI=1S/C14H15N5O2/c1-8-15-12(18-21-8)10-7-19-11-6-4-3-5-9(11)13(20-2)17-14(19)16-10/h7H-3-6H2-1-2H3

>  <threshold>
-1

>  <reference>
R1|R13|R19|R6|R24|R27|R27|R27|R30|R30|

>  <group>
B

>  <Class>
1

>  <ABC>
16.88

>  <ABCGG>
13.68

>  <nAcid>
0

>  <nBase>
0

>  <nAromAtom>
14

>  <nAromBond>
15

>  <nAtom>
36

>  <nHeavyAtom>
21

>  <nSpiro>
0

>  <nBridgehead>
0

>  <nHetero>
7

>  <nN>
5

>  <nO>
2

>  <nF>
0

>  <BalabanJ>
1.48

>  <BertzCT>
820.24

>  <nBonds>
39

>  <nBondsO>
24

>  <nBondsS>
24

>  <nBondsD>
0

>  <nBondsT>
0

>  <nBondsA>
15

>  <nBondsM>
15

>  <nBondsKS>
33

>  <nBondsKD>
6

>  <RNCG>
0.26

>  <RPCG>
0.13

>  <FCSP3>
0.43

>  <SZ>
25

>  <Sm>
23.75

>  <Sv>
23.28

>  <Sse>
36.64

>  <Sp>
24.24

>  <Si>
40.99

>  <MZ>
0.69

>  <Mm>
0.66

>  <Mv>
0.65

>  <Mse>
1.02

>  <Mp>
0.67

>  <Mi>
1.14

>  <NsCH3>
2

>  <NdCH2>
0

>  <NssCH2>
4

>  <NtCH>
0

>  <NdsCH>
0

>  <NaaCH>
1

>  <NsssCH>
0

>  <NddC>
0

>  <NtsC>
0

>  <NdssC>
0

>  <NaasC>
6

>  <NaaaC>
1

>  <NssssC>
0

>  <NsNH3>
0

>  <NsNH2>
0

>  <NssNH2>
0

>  <NdNH>
0

>  <NssNH>
0

>  <NaaNH>
0

>  <NtN>
0

>  <NsssNH>
0

>  <NdsN>
0

>  <NaaN>
4

>  <NsssN>
0

>  <NddsN>
0

>  <NaasN>
1

>  <NssssN>
0

>  <NsOH>
0

>  <NdO>
0

>  <NssO>
1

>  <NaaO>
1

>  <NsF>
0

>  <NsSiH3>
0

>  <NssSiH2>
0

>  <NsssSiH>
0

>  <NssssSi>
0

>  <NsPH2>
0

>  <NssPH>
0

>  <NsssP>
0

>  <NdsssP>
0

>  <NsssssP>
0

>  <NsSH>
0

>  <NdS>
0

>  <NssS>
0

>  <NaaS>
0

>  <NdssS>
0

>  <NddssS>
0

>  <NsCl>
0

>  <NsBr>
0

>  <NsI>
0

>  <fragCpx>
156.07

>  <fMF>
0.5

>  <nHBAcc>
7

>  <nHBDon>
0

>  <Kier1>
14.58

>  <Kier2>
5.89

>  <Lipinski>
1

>  <GhoseFilter>
1

>  <FilterItLogS>
-4.17

>  <VMcGowan>
200.52

>  <LabuteASA>
120.53

>  <PEOE_VSA1>
9.26

>  <PEOE_VSA2>
4.4

>  <PEOE_VSA3>
4.98

>  <PEOE_VSA4>
9.97

>  <PEOE_VSA5>
0

>  <PEOE_VSA6>
5.16

>  <PEOE_VSA7>
25.68

>  <PEOE_VSA8>
24.38

>  <PEOE_VSA9>
7.11

>  <PEOE_VSA10>
5.69

>  <PEOE_VSA11>
0

>  <PEOE_VSA12>
23.37

>  <PEOE_VSA13>
0

>  <SMR_VSA1>
9.26

>  <SMR_VSA2>
0

>  <SMR_VSA3>
24.51

>  <SMR_VSA4>
0

>  <SMR_VSA5>
32.61

>  <SMR_VSA6>
7.11

>  <SMR_VSA7>
23.34

>  <SMR_VSA8>
0

>  <SMR_VSA9>
17.4

>  <SlogP_VSA1>
4.74

>  <SlogP_VSA2>
31.62

>  <SlogP_VSA3>
12.84

>  <SlogP_VSA4>
6.92

>  <SlogP_VSA5>
29.99

>  <SlogP_VSA6>
10.72

>  <SlogP_VSA7>
0

>  <SlogP_VSA8>
17.3

>  <SlogP_VSA9>
0

>  <SlogP_VSA10>
0

>  <SlogP_VSA11>
5.88

>  <EState_VSA1>
0

>  <EState_VSA2>
0

>  <EState_VSA3>
29.07

>  <EState_VSA4>
12.84

>  <EState_VSA5>
24.1

>  <EState_VSA6>
14.03

>  <EState_VSA7>
10.6

>  <EState_VSA8>
20.11

>  <EState_VSA9>
9.26

>  <EState_VSA10>
0

>  <VSA_EState1>
12.47

>  <VSA_EState2>
13.22

>  <VSA_EState3>
3.91

>  <VSA_EState4>
3.08

>  <VSA_EState5>
2.31

>  <VSA_EState6>
0

>  <VSA_EState7>
6.27

>  <VSA_EState8>
1.76

>  <VSA_EState9>
1.65

>  <apol>
40.49

>  <bpol>
23.65

>  <nRing>
4

>  <nHRing>
3

>  <naRing>
3

>  <naHRing>
3

>  <nARing 2>
1

>  <nAHRing 2>
0

>  <nFRing>
1

>  <nFHRing>
1

>  <nFaRing>
0

>  <nFaHRing>
0

>  <nFARing 2>
1

>  <nFAHRing 2>
1

>  <nRot>
2

>  <SLogP>
1.98

>  <SMR>
74.21

>  <TopoPSA(NO)>
78.34

>  <TopoPSA>
78.34

>  <JGI1>
0.17

>  <JGI2>
0.07

>  <JGI3>
0.05

>  <JGI4>
0.04

>  <JGI5>
0.02

>  <Diameter>
10

>  <Radius>
6

>  <TMWC10>
120.72

>  <TSRW10>
71.3

>  <MW>
285.12

>  <AMW>
7.92

>  <WPath>
878

>  <WPol>
34

>  <Zagreb1>
118

>  <Zagreb2>
144

>  <mZagreb2>
4.56

>  <yes>


>  <nAR-cont>
0.816016

>  <nHA-cont>
0.994529749

>  <MWHBN>
0.414556948

>  <MWHBN-cont>
0.419052511

>  <TPSA-cont>
0.453138154

>  <pka_cont>
0.97

>  <yes.1>


>  <BBB_SCORE>
3.830400823

>  <MMFF94 Energy>
38.198

$$$$
Compound 1572
Actelion Java MolfileCreator 2.0

  0  0  0  0  0  0              0 V3000
M  V30 BEGIN CTAB
M  V30 COUNTS 42 44 0 0 0
M  V30 BEGIN ATOM
M  V30 1 Cl -4.3574 -2.3003 -1.9714 0
M  V30 2 C -2.9258 -2.0656 -1.0481 0
M  V30 3 C -2.636 -0.8085 -0.5275 0
M  V30 4 C -2.0731 -3.1381 -0.8115 0
M  V30 5 C -1.4656 -0.6136 0.2249 0
M  V30 6 C -0.9168 -2.9523 -0.0489 0
M  V30 7 C -1.2239 0.745 0.7924 0
M  V30 8 C -0.593 -1.6897 0.473 0
M  V30 9 N -0.9002 0.9603 2.0266 0
M  V30 10 C -1.3792 1.9354 -0.1006 0
M  V30 11 N 0.5941 -1.5515 1.246 0
M  V30 12 C -0.6639 -0.1931 2.8996 0
M  V30 13 C -1.8794 3.1282 0.4356 0
M  V30 14 C -1.0014 1.8854 -1.4478 0
M  V30 15 C 0.6345 -0.8558 2.4544 0
M  V30 16 C 1.8605 -2.0054 0.6715 0
M  V30 17 C -2.0287 4.2533 -0.3768 0
M  V30 18 C -1.1513 3.0138 -2.2565 0
M  V30 19 O 1.6706 -0.7547 3.1158 0
M  V30 20 P 2.4618 -0.7969 -0.5085 0
M  V30 21 C -1.6685 4.1941 -1.7226 0
M  V30 22 O 1.5507 -0.595 -1.6904 0
M  V30 23 C 4.0622 -1.4175 -1.0052 0
M  V30 24 C 2.8141 0.7105 0.3694 0
M  V30 25 H -3.3269 0.0136 -0.6989 0
M  V30 26 H -2.3045 -4.1233 -1.2089 0
M  V30 27 H -0.2873 -3.8168 0.1456 0
M  V30 28 H -0.5321 0.1637 3.9267 0
M  V30 29 H -1.4999 -0.9005 2.9151 0
M  V30 30 H -2.1532 3.1839 1.4867 0
M  V30 31 H -0.568 0.9857 -1.8791 0
M  V30 32 H 1.7424 -2.9779 0.1864 0
M  V30 33 H 2.6087 -2.1379 1.4597 0
M  V30 34 H -2.4196 5.1767 0.0425 0
M  V30 35 H -0.8533 2.9729 -3.3013 0
M  V30 36 H -1.78 5.0721 -2.3538 0
M  V30 37 H 4.5459 -0.7187 -1.6931 0
M  V30 38 H 3.9574 -2.3822 -1.5092 0
M  V30 39 H 4.7133 -1.5517 -0.1369 0
M  V30 40 H 1.896 1.1828 0.7269 0
M  V30 41 H 3.3227 1.4217 -0.2876 0
M  V30 42 H 3.4625 0.5206 1.2292 0
M  V30 END ATOM
M  V30 BEGIN BOND
M  V30 1 1 1 2
M  V30 2 2 2 3
M  V30 3 1 2 4
M  V30 4 1 3 5
M  V30 5 2 4 6
M  V30 6 1 5 7
M  V30 7 2 5 8
M  V30 8 2 7 9
M  V30 9 1 7 10
M  V30 10 1 8 11
M  V30 11 1 9 12
M  V30 12 2 10 13
M  V30 13 1 10 14
M  V30 14 1 11 15
M  V30 15 1 11 16
M  V30 16 1 13 17
M  V30 17 2 14 18
M  V30 18 2 15 19
M  V30 19 1 16 20
M  V30 20 2 17 21
M  V30 21 2 20 22
M  V30 22 1 20 23
M  V30 23 1 20 24
M  V30 24 1 6 8
M  V30 25 1 12 15
M  V30 26 1 18 21
M  V30 27 1 3 25
M  V30 28 1 4 26
M  V30 29 1 6 27
M  V30 30 1 12 28
M  V30 31 1 12 29
M  V30 32 1 13 30
M  V30 33 1 14 31
M  V30 34 1 16 32
M  V30 35 1 16 33
M  V30 36 1 17 34
M  V30 37 1 18 35
M  V30 38 1 21 36
M  V30 39 1 23 37
M  V30 40 1 23 38
M  V30 41 1 23 39
M  V30 42 1 24 40
M  V30 43 1 24 41
M  V30 44 1 24 42
M  V30 END BOND
M  V30 END CTAB
M  END
>  <Column 1>
1908

>  <level_0>
2074

>  <index>
2074

>  <Unnamed: 0>
2074

>  <NO.>
2086

>  <Name>
fosazepam

>  <IUPAC_name>
7-chloro-1-(dimethylphosphorylmethyl)-5-phenyl-3h-1-4-benzodiazepin-2-one

>  <SMILES>
CP(C)(=O)CN1C(=O)CN=C(c2ccccc2)c2cc(Cl)ccc21

>  <CID>
37114

>  <logBB>


>  <BBB+/BBB->
BBB+

>  <Inchi>
InChI=1S/C18H18ClN2O2P/c1-24(2-23)12-21-16-9-8-14(19)10-15(16)18(20-11-17(21)22)13-6-4-3-5-7-13/h3-10H-11-12H2-1-2H3

>  <threshold>
-1

>  <reference>
R1|R13|R19|R6|R24|R27|R27|R27|R30|R30|

>  <group>
B

>  <Class>
1

>  <ABC>
18.88

>  <ABCGG>
15.53

>  <nAcid>
0

>  <nBase>
0

>  <nAromAtom>
12

>  <nAromBond>
12

>  <nAtom>
42

>  <nHeavyAtom>
24

>  <nSpiro>
0

>  <nBridgehead>
0

>  <nHetero>
6

>  <nN>
2

>  <nO>
2

>  <nF>
0

>  <BalabanJ>
1.83

>  <BertzCT>
858.58

>  <nBonds>
44

>  <nBondsO>
26

>  <nBondsS>
29

>  <nBondsD>
3

>  <nBondsT>
0

>  <nBondsA>
12

>  <nBondsM>
15

>  <nBondsKS>
35

>  <nBondsKD>
9

>  <RNCG>
0.19

>  <RPCG>
0.15

>  <FCSP3>
0.22

>  <SZ>
31.33

>  <Sm>
30.04

>  <Sv>
28.1

>  <Sse>
42.16

>  <Sp>
30.94

>  <Si>
46.82

>  <MZ>
0.75

>  <Mm>
0.72

>  <Mv>
0.67

>  <Mse>
1

>  <Mp>
0.74

>  <Mi>
1.11

>  <NsCH3>
2

>  <NdCH2>
0

>  <NssCH2>
2

>  <NtCH>
0

>  <NdsCH>
0

>  <NaaCH>
8

>  <NsssCH>
0

>  <NddC>
0

>  <NtsC>
0

>  <NdssC>
2

>  <NaasC>
4

>  <NaaaC>
0

>  <NssssC>
0

>  <NsNH3>
0

>  <NsNH2>
0

>  <NssNH2>
0

>  <NdNH>
0

>  <NssNH>
0

>  <NaaNH>
0

>  <NtN>
0

>  <NsssNH>
0

>  <NdsN>
1

>  <NaaN>
0

>  <NsssN>
1

>  <NddsN>
0

>  <NaasN>
0

>  <NssssN>
0

>  <NsOH>
0

>  <NdO>
2

>  <NssO>
0

>  <NaaO>
0

>  <NsF>
0

>  <NsSiH3>
0

>  <NssSiH2>
0

>  <NsssSiH>
0

>  <NssssSi>
0

>  <NsPH2>
0

>  <NssPH>
0

>  <NsssP>
0

>  <NdsssP>
1

>  <NsssssP>
0

>  <NsSH>
0

>  <NdS>
0

>  <NssS>
0

>  <NaaS>
0

>  <NdssS>
0

>  <NddssS>
0

>  <NsCl>
1

>  <NsBr>
0

>  <NsI>
0

>  <fragCpx>
124.06

>  <fMF>
0.4

>  <nHBAcc>
3

>  <nHBDon>
0

>  <Kier1>
18.78

>  <Kier2>
7.71

>  <Lipinski>
1

>  <GhoseFilter>
1

>  <FilterItLogS>
-5.56

>  <VMcGowan>
261.9

>  <LabuteASA>
146.08

>  <PEOE_VSA1>
9.46

>  <PEOE_VSA2>
9.79

>  <PEOE_VSA3>
0

>  <PEOE_VSA4>
0

>  <PEOE_VSA5>
0

>  <PEOE_VSA6>
41.93

>  <PEOE_VSA7>
31.53

>  <PEOE_VSA8>
16.15

>  <PEOE_VSA9>
17.68

>  <PEOE_VSA10>
13.69

>  <PEOE_VSA11>
0

>  <PEOE_VSA12>
5.91

>  <PEOE_VSA13>
0

>  <SMR_VSA1>
9.36

>  <SMR_VSA2>
0

>  <SMR_VSA3>
0

>  <SMR_VSA4>
4.99

>  <SMR_VSA5>
0

>  <SMR_VSA6>
31.06

>  <SMR_VSA7>
64.68

>  <SMR_VSA8>
0

>  <SMR_VSA9>
0

>  <SlogP_VSA1>
4.9

>  <SlogP_VSA2>
37.78

>  <SlogP_VSA3>
9.36

>  <SlogP_VSA4>
0

>  <SlogP_VSA5>
11.13

>  <SlogP_VSA6>
53.52

>  <SlogP_VSA7>
5.02

>  <SlogP_VSA8>
0

>  <SlogP_VSA9>
0

>  <SlogP_VSA10>
5.69

>  <SlogP_VSA11>
0

>  <EState_VSA1>
7.14

>  <EState_VSA2>
18.74

>  <EState_VSA3>
10.71

>  <EState_VSA4>
16.84

>  <EState_VSA5>
0

>  <EState_VSA6>
30.36

>  <EState_VSA7>
36.4

>  <EState_VSA8>
4.99

>  <EState_VSA9>
11.6

>  <EState_VSA10>
9.36

>  <VSA_EState1>
12.31

>  <VSA_EState2>
18.67

>  <VSA_EState3>
0.57

>  <VSA_EState4>
3.14

>  <VSA_EState5>
-0.16

>  <VSA_EState6>
15.05

>  <VSA_EState7>
0.19

>  <VSA_EState8>
3.38

>  <VSA_EState9>
-2.43

>  <apol>
51.68

>  <bpol>
30.99

>  <nRing>
3

>  <nHRing>
1

>  <naRing>
2

>  <naHRing>
0

>  <nARing 2>
1

>  <nAHRing 2>
1

>  <nFRing>
1

>  <nFHRing>
1

>  <nFaRing>
0

>  <nFaHRing>
0

>  <nFARing 2>
1

>  <nFAHRing 2>
1

>  <nRot>
3

>  <SLogP>
4.1

>  <SMR>
100.21

>  <TopoPSA(NO)>
49.74

>  <TopoPSA>
59.55

>  <JGI1>
0.23

>  <JGI2>
0.08

>  <JGI3>
0.05

>  <JGI4>
0.05

>  <JGI5>
0.03

>  <Diameter>
10

>  <Radius>
5

>  <TMWC10>
125.57

>  <TSRW10>
66.83

>  <MW>
360.08

>  <AMW>
8.57

>  <WPath>
1207

>  <WPol>
41

>  <Zagreb1>
128

>  <Zagreb2>
149

>  <mZagreb2>
5.1

>  <yes>


>  <nAR-cont>
0.816016

>  <nHA-cont>
0.94700071

>  <MWHBN>
0.158096318

>  <MWHBN-cont>
0.951790451

>  <TPSA-cont>
0.584304022

>  <pka_cont>
0.97

>  <yes.1>


>  <BBB_SCORE>
4.84431043

>  <MMFF94 Energy>
121.88

$$$$
Compound 1573
Actelion Java MolfileCreator 2.0

  0  0  0  0  0  0              0 V3000
M  V30 BEGIN CTAB
M  V30 COUNTS 35 35 0 0 0
M  V30 BEGIN ATOM
M  V30 1 Cl 3.493 -0.3322 3.4097 0
M  V30 2 C 3.5876 -0.0171 1.6643 0
M  V30 3 Cl 3.1036 -1.457 0.7407 0
M  V30 4 C 2.6587 1.1394 1.2968 0
M  V30 5 O 3.0523 2.1262 0.6735 0
M  V30 6 N 1.3398 1.0091 1.6775 0
M  V30 7 C 0.3092 1.9951 1.3296 0 CFG=1
M  V30 8 C -1.0986 1.3405 1.3624 0 CFG=2
M  V30 9 C 0.3551 3.1943 2.2832 0
M  V30 10 O -1.3034 0.6807 2.6196 0
M  V30 11 C -1.2828 0.3497 0.2227 0
M  V30 12 F -0.0577 2.798 3.5225 0
M  V30 13 C -1.1903 -1.0379 0.4251 0
M  V30 14 C -1.5307 0.826 -1.0769 0
M  V30 15 C -1.3288 -1.9283 -0.6409 0
M  V30 16 C -1.668 -0.0584 -2.1486 0
M  V30 17 C -1.5509 -1.4309 -1.9252 0
M  V30 18 S -1.7215 -2.5655 -3.2808 0
M  V30 19 O -2.3173 -3.7812 -2.7607 0
M  V30 20 O -2.3364 -1.8479 -4.3818 0
M  V30 21 C -0.0414 -2.9167 -3.7282 0
M  V30 22 H 4.6196 0.2379 1.409 0
M  V30 23 H 1.0524 0.2136 2.2437 0
M  V30 24 H 0.5321 2.3646 0.321 0
M  V30 25 H -1.879 2.1068 1.2749 0
M  V30 26 H 1.3631 3.6072 2.3814 0
M  V30 27 H -0.3205 3.9876 1.9497 0
M  V30 28 H -1.1246 1.3407 3.3195 0
M  V30 29 H -1.0185 -1.4372 1.4235 0
M  V30 30 H -1.6225 1.8942 -1.265 0
M  V30 31 H -1.2695 -2.9989 -0.4568 0
M  V30 32 H -1.8688 0.3304 -3.1447 0
M  V30 33 H 0.4671 -3.3755 -2.8783 0
M  V30 34 H 0.4512 -1.9872 -4.0202 0
M  V30 35 H -0.0537 -3.6107 -4.5713 0
M  V30 END ATOM
M  V30 BEGIN BOND
M  V30 1 1 1 2
M  V30 2 1 2 3
M  V30 3 1 2 4
M  V30 4 2 4 5
M  V30 5 1 4 6
M  V30 6 1 6 7
M  V30 7 1 7 8
M  V30 8 1 7 9
M  V30 9 1 8 10
M  V30 10 1 8 11
M  V30 11 1 9 12
M  V30 12 2 11 13
M  V30 13 1 11 14
M  V30 14 1 13 15
M  V30 15 2 14 16
M  V30 16 2 15 17
M  V30 17 1 17 18
M  V30 18 2 18 19
M  V30 19 2 18 20
M  V30 20 1 18 21
M  V30 21 1 16 17
M  V30 22 1 2 22
M  V30 23 1 6 23
M  V30 24 1 7 24
M  V30 25 1 8 25
M  V30 26 1 9 26
M  V30 27 1 9 27
M  V30 28 1 10 28
M  V30 29 1 13 29
M  V30 30 1 14 30
M  V30 31 1 15 31
M  V30 32 1 16 32
M  V30 33 1 21 33
M  V30 34 1 21 34
M  V30 35 1 21 35
M  V30 END BOND
M  V30 BEGIN COLLECTION
M  V30 MDLV30/STEABS ATOMS=(2 7 8)
M  V30 END COLLECTION
M  V30 END CTAB
M  END
>  <Column 1>
1909

>  <level_0>
2075

>  <index>
2075

>  <Unnamed: 0>
2075

>  <NO.>
2087

>  <Name>
florfenicol

>  <IUPAC_name>
2-2-dichloro-n-[(1r-2s)-3-fluoro-1-hydroxy-1-(4-methylsulfonylphenyl)propan-2-yl]acetamide

>  <SMILES>
CS(=O)(=O)c1ccc([C@@H](O)[C@@H](CF)NC(=O)C(Cl)Cl)cc1

>  <CID>
114811

>  <logBB>


>  <BBB+/BBB->
BBB+

>  <Inchi>
InChI=1S/C12H14Cl2FNO4S/c1-21(19-20)8-4-2-7(3-5-8)10(17)9(6-15)16-12(18)11(13)14/h2-5-9-11-17H-6H2-1H3-(H-16-18)/t9--10-/m1/s1

>  <threshold>
-1

>  <reference>
R1|R6|R27|R30|

>  <group>
B

>  <Class>
1

>  <ABC>
15.58

>  <ABCGG>
14.05

>  <nAcid>
0

>  <nBase>
0

>  <nAromAtom>
6

>  <nAromBond>
6

>  <nAtom>
35

>  <nHeavyAtom>
21

>  <nSpiro>
0

>  <nBridgehead>
0

>  <nHetero>
9

>  <nN>
1

>  <nO>
4

>  <nF>
1

>  <BalabanJ>
2.53

>  <BertzCT>
591.78

>  <nBonds>
35

>  <nBondsO>
21

>  <nBondsS>
26

>  <nBondsD>
3

>  <nBondsT>
0

>  <nBondsA>
6

>  <nBondsM>
9

>  <nBondsKS>
29

>  <nBondsKD>
6

>  <RNCG>
0.18

>  <RPCG>
0.12

>  <FCSP3>
0.42

>  <SZ>
30.67

>  <Sm>
29.82

>  <Sv>
23.43

>  <Sse>
36.77

>  <Sp>
24.85

>  <Si>
39.81

>  <MZ>
0.88

>  <Mm>
0.85

>  <Mv>
0.67

>  <Mse>
1.05

>  <Mp>
0.71

>  <Mi>
1.14

>  <NsCH3>
1

>  <NdCH2>
0

>  <NssCH2>
1

>  <NtCH>
0

>  <NdsCH>
0

>  <NaaCH>
4

>  <NsssCH>
3

>  <NddC>
0

>  <NtsC>
0

>  <NdssC>
1

>  <NaasC>
2

>  <NaaaC>
0

>  <NssssC>
0

>  <NsNH3>
0

>  <NsNH2>
0

>  <NssNH2>
0

>  <NdNH>
0

>  <NssNH>
1

>  <NaaNH>
0

>  <NtN>
0

>  <NsssNH>
0

>  <NdsN>
0

>  <NaaN>
0

>  <NsssN>
0

>  <NddsN>
0

>  <NaasN>
0

>  <NssssN>
0

>  <NsOH>
1

>  <NdO>
3

>  <NssO>
0

>  <NaaO>
0

>  <NsF>
1

>  <NsSiH3>
0

>  <NssSiH2>
0

>  <NsssSiH>
0

>  <NssssSi>
0

>  <NsPH2>
0

>  <NssPH>
0

>  <NsssP>
0

>  <NdsssP>
0

>  <NsssssP>
0

>  <NsSH>
0

>  <NdS>
0

>  <NssS>
0

>  <NaaS>
0

>  <NdssS>
0

>  <NddssS>
1

>  <NsCl>
2

>  <NsBr>
0

>  <NsI>
0

>  <fragCpx>
21.09

>  <fMF>
0.17

>  <nHBAcc>
4

>  <nHBDon>
2

>  <Kier1>
19.05

>  <Kier2>
8.02

>  <Lipinski>
1

>  <GhoseFilter>
1

>  <FilterItLogS>
-3.55

>  <VMcGowan>
227.93

>  <LabuteASA>
131.52

>  <PEOE_VSA1>
10.42

>  <PEOE_VSA2>
4.79

>  <PEOE_VSA3>
12.81

>  <PEOE_VSA4>
0

>  <PEOE_VSA5>
0

>  <PEOE_VSA6>
35.33

>  <PEOE_VSA7>
17.7

>  <PEOE_VSA8>
6.26

>  <PEOE_VSA9>
10.94

>  <PEOE_VSA10>
12.78

>  <PEOE_VSA11>
14.67

>  <PEOE_VSA12>
0

>  <PEOE_VSA13>
5.91

>  <SMR_VSA1>
22.71

>  <SMR_VSA2>
0

>  <SMR_VSA3>
5.32

>  <SMR_VSA4>
0

>  <SMR_VSA5>
21.88

>  <SMR_VSA6>
12.93

>  <SMR_VSA7>
29.83

>  <SMR_VSA8>
0

>  <SMR_VSA9>
0

>  <SlogP_VSA1>
5.32

>  <SlogP_VSA2>
43.24

>  <SlogP_VSA3>
14.63

>  <SlogP_VSA4>
0

>  <SlogP_VSA5>
11.67

>  <SlogP_VSA6>
29.16

>  <SlogP_VSA7>
0

>  <SlogP_VSA8>
0

>  <SlogP_VSA9>
0

>  <SlogP_VSA10>
4.39

>  <SlogP_VSA11>
0

>  <EState_VSA1>
39.4

>  <EState_VSA2>
10.46

>  <EState_VSA3>
0

>  <EState_VSA4>
6.26

>  <EState_VSA5>
24.27

>  <EState_VSA6>
0

>  <EState_VSA7>
0

>  <EState_VSA8>
5.32

>  <EState_VSA9>
23.2

>  <EState_VSA10>
22.71

>  <VSA_EState1>
35.56

>  <VSA_EState2>
10

>  <VSA_EState3>
12.18

>  <VSA_EState4>
0.26

>  <VSA_EState5>
-0.83

>  <VSA_EState6>
4.03

>  <VSA_EState7>
-0.32

>  <VSA_EState8>
-1.04

>  <VSA_EState9>
-3.36

>  <apol>
41.5

>  <bpol>
24.27

>  <nRing>
1

>  <nHRing>
0

>  <naRing>
1

>  <naHRing>
0

>  <nARing 2>
0

>  <nAHRing 2>
0

>  <nFRing>
0

>  <nFHRing>
0

>  <nFaRing>
0

>  <nFaHRing>
0

>  <nFARing 2>
0

>  <nFAHRing 2>
0

>  <nRot>
6

>  <SLogP>
1.38

>  <SMR>
77.91

>  <TopoPSA(NO)>
83.47

>  <TopoPSA>
91.85

>  <JGI1>
0.31

>  <JGI2>
0.12

>  <JGI3>
0.06

>  <JGI4>
0.04

>  <JGI5>
0.04

>  <Diameter>
11

>  <Radius>
6

>  <TMWC10>
114.07

>  <TSRW10>
54.45

>  <MW>
357

>  <AMW>
10.2

>  <WPath>
1002

>  <WPol>
31

>  <Zagreb1>
102

>  <Zagreb2>
115

>  <mZagreb2>
4.67

>  <yes>


>  <nAR-cont>
0.336376

>  <nHA-cont>
0.994529749

>  <MWHBN>
0.317553674

>  <MWHBN-cont>
0.785322168

>  <TPSA-cont>
0.358829965

>  <pka_cont>
0.97

>  <yes.1>


>  <BBB_SCORE>
3.711548931

>  <MMFF94 Energy>
111.12

$$$$
Compound 1574
Actelion Java MolfileCreator 2.0

  0  0  0  0  0  0              0 V3000
M  V30 BEGIN CTAB
M  V30 COUNTS 36 36 0 0 0
M  V30 BEGIN ATOM
M  V30 1 Cl -3.1416 0.4129 -0.5781 0
M  V30 2 C -3.0208 1.9111 0.3766 0
M  V30 3 Cl -4.5518 2.2677 1.1899 0
M  V30 4 C -1.8756 1.7476 1.3808 0
M  V30 5 O -2.0215 1.5068 2.5775 0
M  V30 6 N -0.6143 1.8887 0.8283 0
M  V30 7 C 0.6158 1.6207 1.5886 0 CFG=1
M  V30 8 C 1.7407 1.1078 0.6421 0 CFG=2
M  V30 9 C 1.0376 2.8759 2.3713 0
M  V30 10 O 2.0929 2.1519 -0.277 0
M  V30 11 C 1.3062 -0.1374 -0.1233 0
M  V30 12 O 2.3261 2.7109 2.9531 0
M  V30 13 C 1.049 -0.1102 -1.5049 0
M  V30 14 C 1.1237 -1.3466 0.5716 0
M  V30 15 C 0.5887 -1.248 -2.1701 0
M  V30 16 C 0.6633 -2.4882 -0.0866 0
M  V30 17 C 0.3779 -2.4245 -1.4508 0
M  V30 18 S -0.2348 -3.8668 -2.286 0
M  V30 19 O 0.0714 -3.7217 -3.6967 0
M  V30 20 O 0.2167 -5.0282 -1.5435 0
M  V30 21 C -1.9926 -3.7298 -2.0862 0
M  V30 22 H -2.7994 2.7356 -0.3074 0
M  V30 23 H -0.496 2.0889 -0.1599 0
M  V30 24 H 0.3976 0.83 2.3181 0
M  V30 25 H 2.6447 0.8504 1.208 0
M  V30 26 H 0.3159 3.0829 3.1695 0
M  V30 27 H 1.0707 3.7545 1.7176 0
M  V30 28 H 2.7692 2.6846 0.1812 0
M  V30 29 H 2.437 3.4301 3.6018 0
M  V30 30 H 1.2054 0.8028 -2.0766 0
M  V30 31 H 1.3324 -1.4053 1.6388 0
M  V30 32 H 0.3996 -1.2047 -3.2406 0
M  V30 33 H 0.5293 -3.4133 0.4702 0
M  V30 34 H -2.3339 -2.8045 -2.5544 0
M  V30 35 H -2.2328 -3.7375 -1.0212 0
M  V30 36 H -2.4571 -4.5874 -2.5774 0
M  V30 END ATOM
M  V30 BEGIN BOND
M  V30 1 1 1 2
M  V30 2 1 2 3
M  V30 3 1 2 4
M  V30 4 2 4 5
M  V30 5 1 4 6
M  V30 6 1 6 7
M  V30 7 1 7 8
M  V30 8 1 7 9
M  V30 9 1 8 10
M  V30 10 1 8 11
M  V30 11 1 9 12
M  V30 12 2 11 13
M  V30 13 1 11 14
M  V30 14 1 13 15
M  V30 15 2 14 16
M  V30 16 2 15 17
M  V30 17 1 17 18
M  V30 18 2 18 19
M  V30 19 2 18 20
M  V30 20 1 18 21
M  V30 21 1 16 17
M  V30 22 1 2 22
M  V30 23 1 6 23
M  V30 24 1 7 24
M  V30 25 1 8 25
M  V30 26 1 9 26
M  V30 27 1 9 27
M  V30 28 1 10 28
M  V30 29 1 12 29
M  V30 30 1 13 30
M  V30 31 1 14 31
M  V30 32 1 15 32
M  V30 33 1 16 33
M  V30 34 1 21 34
M  V30 35 1 21 35
M  V30 36 1 21 36
M  V30 END BOND
M  V30 BEGIN COLLECTION
M  V30 MDLV30/STEABS ATOMS=(2 7 8)
M  V30 END COLLECTION
M  V30 END CTAB
M  END
>  <Column 1>
1910

>  <level_0>
2076

>  <index>
2076

>  <Unnamed: 0>
2076

>  <NO.>
2088

>  <Name>
thiamphenicol

>  <IUPAC_name>
2-2-dichloro-n-[(1r-2r)-1-3-dihydroxy-1-(4-methylsulfonylphenyl)propan-2-yl]acetamide

>  <SMILES>
CS(=O)(=O)c1ccc([C@@H](O)[C@@H](CO)NC(=O)C(Cl)Cl)cc1

>  <CID>
27200

>  <logBB>


>  <BBB+/BBB->
BBB+

>  <Inchi>
InChI=1S/C12H15Cl2NO5S/c1-21(19-20)8-4-2-7(3-5-8)10(17)9(6-16)15-12(18)11(13)14/h2-5-9-11-16-17H-6H2-1H3-(H-15-18)/t9--10-/m1/s1

>  <threshold>
-1

>  <reference>
R1|R6|R27|R30|

>  <group>
B

>  <Class>
1

>  <ABC>
15.58

>  <ABCGG>
14.05

>  <nAcid>
0

>  <nBase>
0

>  <nAromAtom>
6

>  <nAromBond>
6

>  <nAtom>
36

>  <nHeavyAtom>
21

>  <nSpiro>
0

>  <nBridgehead>
0

>  <nHetero>
9

>  <nN>
1

>  <nO>
5

>  <nF>
0

>  <BalabanJ>
2.53

>  <BertzCT>
588.17

>  <nBonds>
36

>  <nBondsO>
21

>  <nBondsS>
27

>  <nBondsD>
3

>  <nBondsT>
0

>  <nBondsA>
6

>  <nBondsM>
9

>  <nBondsKS>
30

>  <nBondsKD>
6

>  <RNCG>
0.18

>  <RPCG>
0.11

>  <FCSP3>
0.42

>  <SZ>
30.67

>  <Sm>
29.66

>  <Sv>
23.76

>  <Sse>
37.58

>  <Sp>
25.4

>  <Si>
40.68

>  <MZ>
0.85

>  <Mm>
0.82

>  <Mv>
0.66

>  <Mse>
1.04

>  <Mp>
0.71

>  <Mi>
1.13

>  <NsCH3>
1

>  <NdCH2>
0

>  <NssCH2>
1

>  <NtCH>
0

>  <NdsCH>
0

>  <NaaCH>
4

>  <NsssCH>
3

>  <NddC>
0

>  <NtsC>
0

>  <NdssC>
1

>  <NaasC>
2

>  <NaaaC>
0

>  <NssssC>
0

>  <NsNH3>
0

>  <NsNH2>
0

>  <NssNH2>
0

>  <NdNH>
0

>  <NssNH>
1

>  <NaaNH>
0

>  <NtN>
0

>  <NsssNH>
0

>  <NdsN>
0

>  <NaaN>
0

>  <NsssN>
0

>  <NddsN>
0

>  <NaasN>
0

>  <NssssN>
0

>  <NsOH>
2

>  <NdO>
3

>  <NssO>
0

>  <NaaO>
0

>  <NsF>
0

>  <NsSiH3>
0

>  <NssSiH2>
0

>  <NsssSiH>
0

>  <NssssSi>
0

>  <NsPH2>
0

>  <NssPH>
0

>  <NsssP>
0

>  <NdsssP>
0

>  <NsssssP>
0

>  <NsSH>
0

>  <NdS>
0

>  <NssS>
0

>  <NaaS>
0

>  <NdssS>
0

>  <NddssS>
1

>  <NsCl>
2

>  <NsBr>
0

>  <NsI>
0

>  <fragCpx>
21.09

>  <fMF>
0.17

>  <nHBAcc>
5

>  <nHBDon>
3

>  <Kier1>
19.05

>  <Kier2>
8.02

>  <Lipinski>
1

>  <GhoseFilter>
1

>  <FilterItLogS>
-2.69

>  <VMcGowan>
232.04

>  <LabuteASA>
132.15

>  <PEOE_VSA1>
15.53

>  <PEOE_VSA2>
4.79

>  <PEOE_VSA3>
8.42

>  <PEOE_VSA4>
0

>  <PEOE_VSA5>
0

>  <PEOE_VSA6>
35.33

>  <PEOE_VSA7>
17.7

>  <PEOE_VSA8>
6.26

>  <PEOE_VSA9>
17.54

>  <PEOE_VSA10>
6.1

>  <PEOE_VSA11>
14.67

>  <PEOE_VSA12>
0

>  <PEOE_VSA13>
5.91

>  <SMR_VSA1>
23.43

>  <SMR_VSA2>
0

>  <SMR_VSA3>
5.32

>  <SMR_VSA4>
0

>  <SMR_VSA5>
21.88

>  <SMR_VSA6>
12.86

>  <SMR_VSA7>
29.83

>  <SMR_VSA8>
0

>  <SMR_VSA9>
0

>  <SlogP_VSA1>
5.32

>  <SlogP_VSA2>
48.28

>  <SlogP_VSA3>
14.63

>  <SlogP_VSA4>
0

>  <SlogP_VSA5>
11.67

>  <SlogP_VSA6>
29.16

>  <SlogP_VSA7>
0

>  <SlogP_VSA8>
0

>  <SlogP_VSA9>
0

>  <SlogP_VSA10>
0

>  <SlogP_VSA11>
0

>  <EState_VSA1>
39.33

>  <EState_VSA2>
4.9

>  <EState_VSA3>
5.56

>  <EState_VSA4>
6.26

>  <EState_VSA5>
24.27

>  <EState_VSA6>
0

>  <EState_VSA7>
0

>  <EState_VSA8>
5.32

>  <EState_VSA9>
23.2

>  <EState_VSA10>
23.43

>  <VSA_EState1>
22.67

>  <VSA_EState2>
10.14

>  <VSA_EState3>
21.6

>  <VSA_EState4>
0.34

>  <VSA_EState5>
-0.75

>  <VSA_EState6>
4.44

>  <VSA_EState7>
-0.17

>  <VSA_EState8>
-0.54

>  <VSA_EState9>
-3.34

>  <apol>
42.41

>  <bpol>
24.16

>  <nRing>
1

>  <nHRing>
0

>  <naRing>
1

>  <naHRing>
0

>  <nARing 2>
0

>  <nAHRing 2>
0

>  <nFRing>
0

>  <nFHRing>
0

>  <nFaRing>
0

>  <nFaHRing>
0

>  <nFARing 2>
0

>  <nFAHRing 2>
0

>  <nRot>
6

>  <SLogP>
0.4

>  <SMR>
79.02

>  <TopoPSA(NO)>
103.7

>  <TopoPSA>
112.08

>  <JGI1>
0.31

>  <JGI2>
0.12

>  <JGI3>
0.06

>  <JGI4>
0.04

>  <JGI5>
0.04

>  <Diameter>
11

>  <Radius>
6

>  <TMWC10>
114.07

>  <TSRW10>
54.45

>  <MW>
355

>  <AMW>
9.86

>  <WPath>
1002

>  <WPol>
31

>  <Zagreb1>
102

>  <Zagreb2>
115

>  <mZagreb2>
4.67

>  <yes>


>  <nAR-cont>
0.336376

>  <nHA-cont>
0.994529749

>  <MWHBN>
0.424595914

>  <MWHBN-cont>
0.380295106

>  <TPSA-cont>
0.217612003

>  <pka_cont>
0.97

>  <yes.1>


>  <BBB_SCORE>
2.821572414

>  <MMFF94 Energy>
123.94

$$$$
Compound 1575
Actelion Java MolfileCreator 2.0

  0  0  0  0  0  0              0 V3000
M  V30 BEGIN CTAB
M  V30 COUNTS 57 60 0 0 0
M  V30 BEGIN ATOM
M  V30 1 S 3.5902 -2.2019 -3.5902 0
M  V30 2 O 4.53 -1.7969 -2.5616 0
M  V30 3 O 3.9393 -3.2182 -4.5632 0
M  V30 4 C 2.0981 -2.7317 -2.7848 0
M  V30 5 C 3.0867 -0.7419 -4.4632 0
M  V30 6 C 1.9365 -2.5272 -1.4089 0
M  V30 7 C 1.1164 -3.3736 -3.5307 0
M  V30 8 C 0.7597 -2.9238 -0.7428 0
M  V30 9 C -0.0431 -3.7959 -2.8885 0
M  V30 10 N 0.5912 -2.6954 0.6499 0
M  V30 11 C -0.2245 -3.5841 -1.5084 0
M  V30 12 C -0.3392 -3.3876 1.4729 0
M  V30 13 C 1.0515 -1.3795 1.1604 0
M  V30 14 S -1.7594 -4.1683 -0.8208 0
M  V30 15 C -1.4395 -4.078 0.928 0
M  V30 16 C -0.1737 -3.4486 2.8724 0
M  V30 17 C 0.0606 -0.2653 0.7895 0
M  V30 18 C -2.3616 -4.7318 1.7654 0
M  V30 19 C -1.088 -4.109 3.6998 0
M  V30 20 C 0.5596 1.0909 1.3041 0
M  V30 21 C -2.1905 -4.7422 3.1465 0
M  V30 22 N -0.4056 2.185 1.0949 0
M  V30 23 C -0.0064 3.3653 1.8763 0
M  V30 24 C -0.561 2.5267 -0.3272 0
M  V30 25 C -1.0238 4.4985 1.7491 0
M  V30 26 C -1.5947 3.6345 -0.526 0
M  V30 27 C -1.2428 4.8833 0.2845 0
M  V30 28 C -2.3241 5.9453 0.1524 0
M  V30 29 O -3.3848 5.7895 -0.4408 0
M  V30 30 N -2.0283 7.1485 0.7235 0
M  V30 31 H 2.7094 -0.0106 -3.7456 0
M  V30 32 H 2.3169 -1.0052 -5.1907 0
M  V30 33 H 3.9605 -0.3382 -4.9792 0
M  V30 34 H 2.7608 -2.0886 -0.8541 0
M  V30 35 H 1.2481 -3.5661 -4.5928 0
M  V30 36 H -0.8098 -4.307 -3.4688 0
M  V30 37 H 2.0461 -1.1239 0.7817 0
M  V30 38 H 1.1911 -1.3811 2.2456 0
M  V30 39 H 0.698 -3.0131 3.3511 0
M  V30 40 H -0.9241 -0.4854 1.2202 0
M  V30 41 H -0.0633 -0.2397 -0.2981 0
M  V30 42 H -3.2194 -5.248 1.3393 0
M  V30 43 H -0.9275 -4.1338 4.7747 0
M  V30 44 H 0.7402 0.9824 2.3819 0
M  V30 45 H 1.5263 1.3353 0.8446 0
M  V30 46 H -2.9059 -5.2569 3.782 0
M  V30 47 H 0.9833 3.722 1.5619 0
M  V30 48 H 0.0668 3.1005 2.9384 0
M  V30 49 H 0.3995 2.8369 -0.7588 0
M  V30 50 H -0.9078 1.6584 -0.8968 0
M  V30 51 H -1.9766 4.1944 2.2032 0
M  V30 52 H -0.67 5.3613 2.3258 0
M  V30 53 H -1.6591 3.8865 -1.5917 0
M  V30 54 H -2.5862 3.261 -0.2356 0
M  V30 55 H -0.3145 5.3128 -0.1162 0
M  V30 56 H -1.1618 7.3433 1.2029 0
M  V30 57 H -2.7218 7.8818 0.6502 0
M  V30 END ATOM
M  V30 BEGIN BOND
M  V30 1 2 1 2
M  V30 2 2 1 3
M  V30 3 1 1 4
M  V30 4 1 1 5
M  V30 5 2 4 6
M  V30 6 1 4 7
M  V30 7 1 6 8
M  V30 8 2 7 9
M  V30 9 1 8 10
M  V30 10 2 8 11
M  V30 11 1 10 12
M  V30 12 1 10 13
M  V30 13 1 11 14
M  V30 14 2 12 15
M  V30 15 1 12 16
M  V30 16 1 13 17
M  V30 17 1 15 18
M  V30 18 2 16 19
M  V30 19 1 17 20
M  V30 20 2 18 21
M  V30 21 1 20 22
M  V30 22 1 22 23
M  V30 23 1 22 24
M  V30 24 1 23 25
M  V30 25 1 24 26
M  V30 26 1 25 27
M  V30 27 1 27 28
M  V30 28 2 28 29
M  V30 29 1 28 30
M  V30 30 1 9 11
M  V30 31 1 14 15
M  V30 32 1 19 21
M  V30 33 1 26 27
M  V30 34 1 5 31
M  V30 35 1 5 32
M  V30 36 1 5 33
M  V30 37 1 6 34
M  V30 38 1 7 35
M  V30 39 1 9 36
M  V30 40 1 13 37
M  V30 41 1 13 38
M  V30 42 1 16 39
M  V30 43 1 17 40
M  V30 44 1 17 41
M  V30 45 1 18 42
M  V30 46 1 19 43
M  V30 47 1 20 44
M  V30 48 1 20 45
M  V30 49 1 21 46
M  V30 50 1 23 47
M  V30 51 1 23 48
M  V30 52 1 24 49
M  V30 53 1 24 50
M  V30 54 1 25 51
M  V30 55 1 25 52
M  V30 56 1 26 53
M  V30 57 1 26 54
M  V30 58 1 27 55
M  V30 59 1 30 56
M  V30 60 1 30 57
M  V30 END BOND
M  V30 END CTAB
M  END
>  <Column 1>
1911

>  <level_0>
2077

>  <index>
2077

>  <Unnamed: 0>
2077

>  <NO.>
2089

>  <Name>
metopimazine

>  <IUPAC_name>
1-[3-(2-methylsulfonylphenothiazin-10-yl)propyl]piperidine-4-carboxamide

>  <SMILES>
CS(=O)(=O)c1ccc2c(c1)N(CCCN1CCC(C(N)=O)CC1)c1ccccc1S2

>  <CID>
26388

>  <logBB>


>  <BBB+/BBB->
BBB+

>  <Inchi>
InChI=1S/C22H27N3O3S2/c1-30(27-28)17-7-8-21-19(15-17)25(18-5-2-3-6-20(18)29-21)12-4-11-24-13-9-16(10-14-24)22(23)26/h2-3-5-8-15-16H-4-9-14H2-1H3-(H2-23-26)

>  <threshold>
-1

>  <reference>
R1|R13|R19|R6|R24|R27|R27|R27|R30|R30|

>  <group>
B

>  <Class>
1

>  <ABC>
23.77

>  <ABCGG>
17.4

>  <nAcid>
0

>  <nBase>
1

>  <nAromAtom>
12

>  <nAromBond>
12

>  <nAtom>
57

>  <nHeavyAtom>
30

>  <nSpiro>
0

>  <nBridgehead>
0

>  <nHetero>
8

>  <nN>
3

>  <nO>
3

>  <nF>
0

>  <BalabanJ>
1.36

>  <BertzCT>
1047.34

>  <nBonds>
60

>  <nBondsO>
33

>  <nBondsS>
45

>  <nBondsD>
3

>  <nBondsT>
0

>  <nBondsA>
12

>  <nBondsM>
15

>  <nBondsKS>
51

>  <nBondsKD>
9

>  <RNCG>
0.17

>  <RPCG>
0.1

>  <FCSP3>
0.41

>  <SZ>
39.33

>  <Sm>
37.1

>  <Sv>
36.11

>  <Sse>
57.12

>  <Sp>
39.67

>  <Si>
63.95

>  <MZ>
0.69

>  <Mm>
0.65

>  <Mv>
0.63

>  <Mse>
1

>  <Mp>
0.7

>  <Mi>
1.12

>  <NsCH3>
1

>  <NdCH2>
0

>  <NssCH2>
7

>  <NtCH>
0

>  <NdsCH>
0

>  <NaaCH>
7

>  <NsssCH>
1

>  <NddC>
0

>  <NtsC>
0

>  <NdssC>
1

>  <NaasC>
5

>  <NaaaC>
0

>  <NssssC>
0

>  <NsNH3>
0

>  <NsNH2>
1

>  <NssNH2>
0

>  <NdNH>
0

>  <NssNH>
0

>  <NaaNH>
0

>  <NtN>
0

>  <NsssNH>
0

>  <NdsN>
0

>  <NaaN>
0

>  <NsssN>
2

>  <NddsN>
0

>  <NaasN>
0

>  <NssssN>
0

>  <NsOH>
0

>  <NdO>
3

>  <NssO>
0

>  <NaaO>
0

>  <NsF>
0

>  <NsSiH3>
0

>  <NssSiH2>
0

>  <NsssSiH>
0

>  <NssssSi>
0

>  <NsPH2>
0

>  <NssPH>
0

>  <NsssP>
0

>  <NdsssP>
0

>  <NsssssP>
0

>  <NsSH>
0

>  <NdS>
0

>  <NssS>
1

>  <NaaS>
0

>  <NdssS>
0

>  <NddssS>
1

>  <NsCl>
0

>  <NsBr>
0

>  <NsI>
0

>  <fragCpx>
219.08

>  <fMF>
0.4

>  <nHBAcc>
6

>  <nHBDon>
1

>  <Kier1>
23.17

>  <Kier2>
9.87

>  <Lipinski>
1

>  <GhoseFilter>
1

>  <FilterItLogS>
-4.78

>  <VMcGowan>
327.55

>  <LabuteASA>
181.9

>  <PEOE_VSA1>
15.53

>  <PEOE_VSA2>
4.79

>  <PEOE_VSA3>
8.42

>  <PEOE_VSA4>
0

>  <PEOE_VSA5>
0

>  <PEOE_VSA6>
23.89

>  <PEOE_VSA7>
69.23

>  <PEOE_VSA8>
28.51

>  <PEOE_VSA9>
16.27

>  <PEOE_VSA10>
0

>  <PEOE_VSA11>
9.84

>  <PEOE_VSA12>
5.91

>  <PEOE_VSA13>
0

>  <SMR_VSA1>
13.21

>  <SMR_VSA2>
0

>  <SMR_VSA3>
4.9

>  <SMR_VSA4>
11.65

>  <SMR_VSA5>
33.95

>  <SMR_VSA6>
37.33

>  <SMR_VSA7>
42.46

>  <SMR_VSA8>
0

>  <SMR_VSA9>
0

>  <SlogP_VSA1>
10.63

>  <SlogP_VSA2>
51.66

>  <SlogP_VSA3>
14.63

>  <SlogP_VSA4>
5.92

>  <SlogP_VSA5>
19.26

>  <SlogP_VSA6>
57.15

>  <SlogP_VSA7>
0

>  <SlogP_VSA8>
0

>  <SlogP_VSA9>
0

>  <SlogP_VSA10>
11.37

>  <SlogP_VSA11>
0

>  <EState_VSA1>
9.84

>  <EState_VSA2>
11.83

>  <EState_VSA3>
4.9

>  <EState_VSA4>
61.71

>  <EState_VSA5>
11.15

>  <EState_VSA6>
23.89

>  <EState_VSA7>
18.2

>  <EState_VSA8>
21.93

>  <EState_VSA9>
5.73

>  <EState_VSA10>
13.21

>  <VSA_EState1>
24.2

>  <VSA_EState2>
18.59

>  <VSA_EState3>
0

>  <VSA_EState4>
7.51

>  <VSA_EState5>
-0.18

>  <VSA_EState6>
13.65

>  <VSA_EState7>
3.86

>  <VSA_EState8>
3.54

>  <VSA_EState9>
-3.27

>  <apol>
66.25

>  <bpol>
39.92

>  <nRing>
4

>  <nHRing>
2

>  <naRing>
2

>  <naHRing>
0

>  <nARing 2>
2

>  <nAHRing 2>
2

>  <nFRing>
1

>  <nFHRing>
1

>  <nFaRing>
0

>  <nFaHRing>
0

>  <nFARing 2>
1

>  <nFAHRing 2>
1

>  <nRot>
6

>  <SLogP>
3.28

>  <SMR>
120.1

>  <TopoPSA(NO)>
83.71

>  <TopoPSA>
117.39

>  <JGI1>
0.21

>  <JGI2>
0.08

>  <JGI3>
0.04

>  <JGI4>
0.04

>  <JGI5>
0.03

>  <Diameter>
14

>  <Radius>
7

>  <TMWC10>
140.65

>  <TSRW10>
66.05

>  <MW>
445.15

>  <AMW>
7.81

>  <WPath>
2591

>  <WPol>
50

>  <Zagreb1>
162

>  <Zagreb2>
191

>  <mZagreb2>
6.39

>  <yes>


>  <nAR-cont>
1

>  <nHA-cont>
0.74523694

>  <MWHBN>
0.331775912

>  <MWHBN-cont>
0.736597371

>  <TPSA-cont>
0.180544905

>  <pka_cont>
0.97

>  <yes.1>


>  <BBB_SCORE>
3.696222807

>  <MMFF94 Energy>
56.844

$$$$
Compound 1576
Actelion Java MolfileCreator 2.0

  0  0  0  0  0  0              0 V3000
M  V30 BEGIN CTAB
M  V30 COUNTS 57 60 0 0 0
M  V30 BEGIN ATOM
M  V30 1 S -0.0816 4.8241 -0.3265 0
M  V30 2 C 0.7685 3.42 0.3528 0
M  V30 3 C -0.7005 5.5588 1.2036 0
M  V30 4 O 0.7028 3.1709 1.55 0
M  V30 5 C 1.5083 2.5325 -0.7057 0
M  V30 6 O 1.8117 3.2587 -1.8995 0
M  V30 7 C 0.73 1.2121 -1.0436 0
M  V30 8 C 2.8621 1.9652 -0.1666 0
M  V30 9 C 1.0573 0.353 0.1953 0
M  V30 10 C -0.7986 1.3095 -1.1384 0
M  V30 11 C 1.2635 0.6086 -2.3775 0
M  V30 12 C 2.5552 0.569 0.4241 0
M  V30 13 C 3.6469 2.867 0.7805 0
M  V30 14 C 0.5253 -1.0833 0.0849 0
M  V30 15 C -1.4764 -0.0775 -1.2142 0
M  V30 16 C -1.0378 -1.055 -0.0731 0
M  V30 17 C 0.9419 -1.9196 1.3059 0
M  V30 18 O -2.8846 0.1796 -1.1742 0
M  V30 19 F -1.5326 -0.4836 1.088 0
M  V30 20 C -1.6392 -2.5238 -0.152 0
M  V30 21 C 0.4018 -3.3423 1.2229 0
M  V30 22 C -1.0948 -3.3293 1.0457 0
M  V30 23 C -3.1674 -2.5378 -0.1505 0
M  V30 24 C -1.2258 -3.2399 -1.4596 0
M  V30 25 C -1.8768 -3.951 1.9473 0
M  V30 26 C -3.9419 -3.1573 0.75 0
M  V30 27 C -3.3501 -3.9159 1.8652 0
M  V30 28 O -4.0494 -4.4964 2.6856 0
M  V30 29 H -1.3793 4.8703 1.7144 0
M  V30 30 H -1.2514 6.4729 0.9657 0
M  V30 31 H 0.1275 5.8179 1.869 0
M  V30 32 H 1.0014 3.7321 -2.1676 0
M  V30 33 H 3.5328 1.8132 -1.0251 0
M  V30 34 H 0.5554 0.7873 1.0718 0
M  V30 35 H -1.2127 1.8369 -0.2697 0
M  V30 36 H -1.0957 1.9109 -2.0075 0
M  V30 37 H 2.3507 0.4892 -2.3818 0
M  V30 38 H 1.0009 1.2534 -3.2243 0
M  V30 39 H 0.8483 -0.3775 -2.5995 0
M  V30 40 H 3.148 -0.192 -0.0966 0
M  V30 41 H 2.8009 0.5048 1.4898 0
M  V30 42 H 3.1684 2.9632 1.7589 0
M  V30 43 H 3.7711 3.8674 0.3534 0
M  V30 44 H 4.6458 2.4513 0.9534 0
M  V30 45 H 0.9731 -1.5563 -0.7951 0
M  V30 46 H -1.2719 -0.5239 -2.1907 0
M  V30 47 H 2.0348 -1.9669 1.3774 0
M  V30 48 H 0.5856 -1.4418 2.2281 0
M  V30 49 H -3.1007 0.3881 -0.243 0
M  V30 50 H 0.6923 -3.8834 2.1319 0
M  V30 51 H 0.8694 -3.8765 0.388 0
M  V30 52 H -3.6736 -2.0338 -0.9717 0
M  V30 53 H -1.6655 -2.7604 -2.3418 0
M  V30 54 H -1.5644 -4.2843 -1.4632 0
M  V30 55 H -0.1426 -3.2585 -1.6107 0
M  V30 56 H -1.4784 -4.4964 2.7956 0
M  V30 57 H -5.0237 -3.1464 0.6937 0
M  V30 END ATOM
M  V30 BEGIN BOND
M  V30 1 1 1 2
M  V30 2 1 1 3
M  V30 3 2 2 4
M  V30 4 1 2 5
M  V30 5 1 5 6
M  V30 6 1 5 7
M  V30 7 1 5 8
M  V30 8 1 7 9
M  V30 9 1 7 10
M  V30 10 1 7 11
M  V30 11 1 8 12
M  V30 12 1 8 13
M  V30 13 1 9 14
M  V30 14 1 10 15
M  V30 15 1 14 16
M  V30 16 1 14 17
M  V30 17 1 15 18
M  V30 18 1 16 19
M  V30 19 1 16 20
M  V30 20 1 17 21
M  V30 21 1 20 22
M  V30 22 1 20 23
M  V30 23 1 20 24
M  V30 24 2 22 25
M  V30 25 2 23 26
M  V30 26 1 25 27
M  V30 27 2 27 28
M  V30 28 1 9 12
M  V30 29 1 15 16
M  V30 30 1 21 22
M  V30 31 1 26 27
M  V30 32 1 3 29
M  V30 33 1 3 30
M  V30 34 1 3 31
M  V30 35 1 6 32
M  V30 36 1 8 33
M  V30 37 1 9 34
M  V30 38 1 10 35
M  V30 39 1 10 36
M  V30 40 1 11 37
M  V30 41 1 11 38
M  V30 42 1 11 39
M  V30 43 1 12 40
M  V30 44 1 12 41
M  V30 45 1 13 42
M  V30 46 1 13 43
M  V30 47 1 13 44
M  V30 48 1 14 45
M  V30 49 1 15 46
M  V30 50 1 17 47
M  V30 51 1 17 48
M  V30 52 1 18 49
M  V30 53 1 21 50
M  V30 54 1 21 51
M  V30 55 1 23 52
M  V30 56 1 24 53
M  V30 57 1 24 54
M  V30 58 1 24 55
M  V30 59 1 25 56
M  V30 60 1 26 57
M  V30 END BOND
M  V30 END CTAB
M  END
>  <Column 1>
1912

>  <level_0>
2078

>  <index>
2078

>  <Unnamed: 0>
2078

>  <NO.>
2090

>  <Name>
timobesone

>  <IUPAC_name>
s-methyl 9-fluoro-11-17-dihydroxy-10-13-16-trimethyl-3-oxo-6-7-8-11-12-14-15-16-octahydrocyclopenta[a]phenanthrene-17-carbothioate

>  <SMILES>
CSC(=O)C1(O)C(C)CC2C3CCC4=CC(=O)C=CC4(C)C3(F)C(O)CC21C

>  <CID>
73215372

>  <logBB>


>  <BBB+/BBB->
BBB+

>  <Inchi>
InChI=1S/C22H29FO4S/c1-12-9-16-15-6-5-13-10-14(24)7-8-19(13-2)21(15-23)17(25)11-20(16-3)22(12-27)18(26)28-4/h7-8-10-12-15-17-25-27H-5-6-9-11H2-1-4H3

>  <threshold>
-1

>  <reference>
R1|R19|R27|R27|R30|

>  <group>
B

>  <Class>
1

>  <ABC>
22.39

>  <ABCGG>
18.86

>  <nAcid>
0

>  <nBase>
0

>  <nAromAtom>
0

>  <nAromBond>
0

>  <nAtom>
57

>  <nHeavyAtom>
28

>  <nSpiro>
0

>  <nBridgehead>
0

>  <nHetero>
6

>  <nN>
0

>  <nO>
4

>  <nF>
1

>  <BalabanJ>
1.77

>  <BertzCT>
808.36

>  <nBonds>
60

>  <nBondsO>
31

>  <nBondsS>
56

>  <nBondsD>
4

>  <nBondsT>
0

>  <nBondsA>
0

>  <nBondsM>
4

>  <nBondsKS>
56

>  <nBondsKD>
4

>  <RNCG>
0.18

>  <RPCG>
0.1

>  <FCSP3>
0.73

>  <SZ>
36.33

>  <Sm>
34.01

>  <Sv>
34.55

>  <Sse>
57.23

>  <Sp>
37.57

>  <Si>
64.33

>  <MZ>
0.64

>  <Mm>
0.6

>  <Mv>
0.61

>  <Mse>
1

>  <Mp>
0.66

>  <Mi>
1.13

>  <NsCH3>
4

>  <NdCH2>
0

>  <NssCH2>
4

>  <NtCH>
0

>  <NdsCH>
3

>  <NaaCH>
0

>  <NsssCH>
4

>  <NddC>
0

>  <NtsC>
0

>  <NdssC>
3

>  <NaasC>
0

>  <NaaaC>
0

>  <NssssC>
4

>  <NsNH3>
0

>  <NsNH2>
0

>  <NssNH2>
0

>  <NdNH>
0

>  <NssNH>
0

>  <NaaNH>
0

>  <NtN>
0

>  <NsssNH>
0

>  <NdsN>
0

>  <NaaN>
0

>  <NsssN>
0

>  <NddsN>
0

>  <NaasN>
0

>  <NssssN>
0

>  <NsOH>
2

>  <NdO>
2

>  <NssO>
0

>  <NaaO>
0

>  <NsF>
1

>  <NsSiH3>
0

>  <NssSiH2>
0

>  <NsssSiH>
0

>  <NssssSi>
0

>  <NsPH2>
0

>  <NssPH>
0

>  <NsssP>
0

>  <NdsssP>
0

>  <NsssssP>
0

>  <NsSH>
0

>  <NdS>
0

>  <NssS>
1

>  <NaaS>
0

>  <NdssS>
0

>  <NddssS>
0

>  <NsCl>
0

>  <NsBr>
0

>  <NsI>
0

>  <fragCpx>
205.06

>  <fMF>
0.3

>  <nHBAcc>
5

>  <nHBDon>
2

>  <Kier1>
21.24

>  <Kier2>
6.5

>  <Lipinski>
1

>  <GhoseFilter>
1

>  <FilterItLogS>
-3.45

>  <VMcGowan>
301.79

>  <LabuteASA>
169.2

>  <PEOE_VSA1>
10.21

>  <PEOE_VSA2>
9.59

>  <PEOE_VSA3>
4.39

>  <PEOE_VSA4>
0

>  <PEOE_VSA5>
0

>  <PEOE_VSA6>
37.26

>  <PEOE_VSA7>
62.85

>  <PEOE_VSA8>
16.75

>  <PEOE_VSA9>
6.1

>  <PEOE_VSA10>
5.6

>  <PEOE_VSA11>
11.45

>  <PEOE_VSA12>
5.12

>  <PEOE_VSA13>
0

>  <SMR_VSA1>
24.19

>  <SMR_VSA2>
0

>  <SMR_VSA3>
0

>  <SMR_VSA4>
28.58

>  <SMR_VSA5>
63.83

>  <SMR_VSA6>
6.26

>  <SMR_VSA7>
23.8

>  <SMR_VSA8>
0

>  <SMR_VSA9>
0

>  <SlogP_VSA1>
0

>  <SlogP_VSA2>
44.74

>  <SlogP_VSA3>
9.59

>  <SlogP_VSA4>
28.58

>  <SlogP_VSA5>
46.45

>  <SlogP_VSA6>
23.8

>  <SlogP_VSA7>
0

>  <SlogP_VSA8>
0

>  <SlogP_VSA9>
0

>  <SlogP_VSA10>
4.39

>  <SlogP_VSA11>
0

>  <EState_VSA1>
34.12

>  <EState_VSA2>
29.16

>  <EState_VSA3>
19.26

>  <EState_VSA4>
17.33

>  <EState_VSA5>
12.15

>  <EState_VSA6>
19.26

>  <EState_VSA7>
13.85

>  <EState_VSA8>
0

>  <EState_VSA9>
0

>  <EState_VSA10>
19.8

>  <VSA_EState1>
16.9

>  <VSA_EState2>
24.61

>  <VSA_EState3>
22.4

>  <VSA_EState4>
-4.68

>  <VSA_EState5>
-1.13

>  <VSA_EState6>
0

>  <VSA_EState7>
6.56

>  <VSA_EState8>
5.49

>  <VSA_EState9>
0

>  <apol>
62.74

>  <bpol>
34.4

>  <nRing>
4

>  <nHRing>
0

>  <naRing>
0

>  <naHRing>
0

>  <nARing 2>
4

>  <nAHRing 2>
0

>  <nFRing>
1

>  <nFHRing>
0

>  <nFaRing>
0

>  <nFaHRing>
0

>  <nFARing 2>
1

>  <nFAHRing 2>
0

>  <nRot>
1

>  <SLogP>
3.22

>  <SMR>
106.37

>  <TopoPSA(NO)>
74.6

>  <TopoPSA>
99.9

>  <JGI1>
0.32

>  <JGI2>
0.16

>  <JGI3>
0.08

>  <JGI4>
0.06

>  <JGI5>
0.04

>  <Diameter>
12

>  <Radius>
6

>  <TMWC10>
140.69

>  <TSRW10>
80.08

>  <MW>
408.18

>  <AMW>
7.16

>  <WPath>
1670

>  <WPol>
70

>  <Zagreb1>
168

>  <Zagreb2>
221

>  <mZagreb2>
5.82

>  <yes>


>  <nAR-cont>
0.199399

>  <nHA-cont>
0.82432561

>  <MWHBN>
0.34647522

>  <MWHBN-cont>
0.683370464

>  <TPSA-cont>
0.302635966

>  <pka_cont>
0.97

>  <yes.1>


>  <BBB_SCORE>
3.139052237

>  <MMFF94 Energy>
158.37

$$$$
Compound 1577
Actelion Java MolfileCreator 2.0

  0  0  0  0  0  0              0 V3000
M  V30 BEGIN CTAB
M  V30 COUNTS 62 65 0 0 0
M  V30 BEGIN ATOM
M  V30 1 S 1.6318 3.1022 -2.3668 0
M  V30 2 C 1.1661 1.387 -2.5154 0
M  V30 3 C 1.0825 3.6715 -3.991 0
M  V30 4 O 0.2553 1.0691 -3.2733 0
M  V30 5 C 1.9069 0.3743 -1.5615 0
M  V30 6 O 3.2743 0.7417 -1.2777 0
M  V30 7 C 1.1304 0.2287 -0.1762 0 CFG=2
M  V30 8 C 1.7959 -1.0974 -2.1617 0 CFG=2
M  V30 9 C 4.1108 0.99 -2.3222 0
M  V30 10 C 0.0024 -0.7522 -0.5538 0 CFG=1
M  V30 11 C 0.4545 1.4967 0.3976 0
M  V30 12 C 2.1092 -0.339 0.8955 0
M  V30 13 C 0.7368 -1.8463 -1.3123 0
M  V30 14 C 3.0717 -1.9371 -2.2528 0
M  V30 15 O 3.805 0.9232 -3.503 0
M  V30 16 C 5.4707 1.3563 -1.8144 0
M  V30 17 C -0.8769 -1.1706 0.6391 0 CFG=1
M  V30 18 C -0.5024 1.2164 1.5808 0 CFG=1
M  V30 19 C -1.5451 0.0992 1.2641 0
M  V30 20 C -1.9425 -2.1892 0.1902 0
M  V30 21 O 0.2513 0.9551 2.7584 0
M  V30 22 F -2.3329 0.6371 0.2561 0
M  V30 23 C -2.532 -0.2707 2.4466 0 CFG=2
M  V30 24 C -2.8994 -2.5634 1.3169 0
M  V30 25 C -3.519 -1.3289 1.9193 0
M  V30 26 C -3.279 0.9681 2.9411 0
M  V30 27 C -1.8271 -0.8639 3.6886 0
M  V30 28 C -4.8553 -1.1758 1.931 0
M  V30 29 C -4.6104 1.1159 2.9497 0
M  V30 30 C -5.497 0.0452 2.4582 0
M  V30 31 O -6.7154 0.1635 2.4887 0
M  V30 32 H 1.5601 3.0893 -4.7836 0
M  V30 33 H 1.3607 4.7213 -4.1164 0
M  V30 34 H -0.0039 3.5901 -4.0815 0
M  V30 35 H 1.4016 -1.0402 -3.1842 0
M  V30 36 H -0.6673 -0.2645 -1.2772 0
M  V30 37 H 1.2231 2.2168 0.7032 0
M  V30 38 H -0.1564 1.9763 -0.3745 0
M  V30 39 H 1.6058 -0.7227 1.7841 0
M  V30 40 H 2.7111 -1.1689 0.5197 0
M  V30 41 H 2.807 0.4372 1.2306 0
M  V30 42 H 1.2019 -2.5575 -0.6196 0
M  V30 43 H 0.0601 -2.4171 -1.9575 0
M  V30 44 H 3.6222 -1.9626 -1.3091 0
M  V30 45 H 2.828 -2.9712 -2.5216 0
M  V30 46 H 3.7429 -1.5654 -3.0305 0
M  V30 47 H 5.4058 2.2561 -1.1975 0
M  V30 48 H 5.8873 0.5248 -1.2407 0
M  V30 49 H 6.1306 1.5617 -2.6618 0
M  V30 50 H -0.2543 -1.6654 1.3911 0
M  V30 51 H -1.0456 2.1515 1.762 0
M  V30 52 H -2.5156 -1.7821 -0.6532 0
M  V30 53 H -1.4585 -3.1039 -0.171 0
M  V30 54 H 0.8231 1.7266 2.9222 0
M  V30 55 H -2.3663 -3.1259 2.0919 0
M  V30 56 H -3.6653 -3.2409 0.9202 0
M  V30 57 H -2.6798 1.7826 3.342 0
M  V30 58 H -1.0999 -1.6394 3.4313 0
M  V30 59 H -1.3003 -0.1023 4.2732 0
M  V30 60 H -2.5533 -1.3217 4.3735 0
M  V30 61 H -5.5368 -1.9238 1.5424 0
M  V30 62 H -5.0962 2.0093 3.3222 0
M  V30 END ATOM
M  V30 BEGIN BOND
M  V30 1 1 1 2
M  V30 2 1 1 3
M  V30 3 2 2 4
M  V30 4 1 2 5
M  V30 5 1 5 6
M  V30 6 1 5 7
M  V30 7 1 5 8
M  V30 8 1 6 9
M  V30 9 1 7 10
M  V30 10 1 7 11
M  V30 11 1 7 12
M  V30 12 1 8 13
M  V30 13 1 8 14
M  V30 14 2 9 15
M  V30 15 1 9 16
M  V30 16 1 10 17
M  V30 17 1 11 18
M  V30 18 1 17 19
M  V30 19 1 17 20
M  V30 20 1 18 21
M  V30 21 1 19 22
M  V30 22 1 19 23
M  V30 23 1 20 24
M  V30 24 1 23 25
M  V30 25 1 23 26
M  V30 26 1 23 27
M  V30 27 2 25 28
M  V30 28 2 26 29
M  V30 29 1 28 30
M  V30 30 2 30 31
M  V30 31 1 10 13
M  V30 32 1 18 19
M  V30 33 1 24 25
M  V30 34 1 29 30
M  V30 35 1 3 32
M  V30 36 1 3 33
M  V30 37 1 3 34
M  V30 38 1 8 35
M  V30 39 1 10 36
M  V30 40 1 11 37
M  V30 41 1 11 38
M  V30 42 1 12 39
M  V30 43 1 12 40
M  V30 44 1 12 41
M  V30 45 1 13 42
M  V30 46 1 13 43
M  V30 47 1 14 44
M  V30 48 1 14 45
M  V30 49 1 14 46
M  V30 50 1 16 47
M  V30 51 1 16 48
M  V30 52 1 16 49
M  V30 53 1 17 50
M  V30 54 1 18 51
M  V30 55 1 20 52
M  V30 56 1 20 53
M  V30 57 1 21 54
M  V30 58 1 24 55
M  V30 59 1 24 56
M  V30 60 1 26 57
M  V30 61 1 27 58
M  V30 62 1 27 59
M  V30 63 1 27 60
M  V30 64 1 28 61
M  V30 65 1 29 62
M  V30 END BOND
M  V30 BEGIN COLLECTION
M  V30 MDLV30/STEABS ATOMS=(6 7 8 10 17 18 23)
M  V30 END COLLECTION
M  V30 END CTAB
M  END
>  <Column 1>
1913

>  <level_0>
2079

>  <index>
2079

>  <Unnamed: 0>
2079

>  <NO.>
2091

>  <Name>
dtxsid201000603

>  <IUPAC_name>
[(8s-10s-11s-13s-14s-16s)-9-fluoro-11-hydroxy-10-13-16-trimethyl-17-methylsulfanylcarbonyl-3-oxo-6-7-8-11-12-14-15-16-octahydrocyclopenta[a]phenanthren-17-yl] acetate

>  <SMILES>
CSC(=O)C1(OC(C)=O)[C@@H](C)C[C@H]2[C@@H]3CCC4=CC(=O)C=C[C@]4(C)C3(F)[C@@H](O)C[C@@]21C

>  <CID>
3033679

>  <logBB>


>  <BBB+/BBB->
BBB+

>  <Inchi>
InChI=1S/C24H31FO5S/c1-13-10-18-17-7-6-15-11-16(27)8-9-21(15-3)23(17-25)19(28)12-22(18-4)24(13-20(29)31-5)30-14(2)26/h8-9-11-13-17-19-28H-6-7-10-12H2-1-5H3/t13--17--18--19--21--22--23?-24?/m0/s1

>  <threshold>
-1

>  <reference>
R1|R27|R30|

>  <group>
B

>  <Class>
1

>  <ABC>
24.58

>  <ABCGG>
20.73

>  <nAcid>
0

>  <nBase>
0

>  <nAromAtom>
0

>  <nAromBond>
0

>  <nAtom>
62

>  <nHeavyAtom>
31

>  <nSpiro>
0

>  <nBridgehead>
0

>  <nHetero>
7

>  <nN>
0

>  <nO>
5

>  <nF>
1

>  <BalabanJ>
1.79

>  <BertzCT>
913.65

>  <nBonds>
65

>  <nBondsO>
34

>  <nBondsS>
60

>  <nBondsD>
5

>  <nBondsT>
0

>  <nBondsA>
0

>  <nBondsM>
5

>  <nBondsKS>
60

>  <nBondsKD>
5

>  <RNCG>
0.18

>  <RPCG>
0.12

>  <FCSP3>
0.71

>  <SZ>
40

>  <Sm>
37.51

>  <Sv>
37.81

>  <Sse>
62.45

>  <Sp>
40.85

>  <Si>
69.95

>  <MZ>
0.65

>  <Mm>
0.61

>  <Mv>
0.61

>  <Mse>
1.01

>  <Mp>
0.66

>  <Mi>
1.13

>  <NsCH3>
5

>  <NdCH2>
0

>  <NssCH2>
4

>  <NtCH>
0

>  <NdsCH>
3

>  <NaaCH>
0

>  <NsssCH>
4

>  <NddC>
0

>  <NtsC>
0

>  <NdssC>
4

>  <NaasC>
0

>  <NaaaC>
0

>  <NssssC>
4

>  <NsNH3>
0

>  <NsNH2>
0

>  <NssNH2>
0

>  <NdNH>
0

>  <NssNH>
0

>  <NaaNH>
0

>  <NtN>
0

>  <NsssNH>
0

>  <NdsN>
0

>  <NaaN>
0

>  <NsssN>
0

>  <NddsN>
0

>  <NaasN>
0

>  <NssssN>
0

>  <NsOH>
1

>  <NdO>
3

>  <NssO>
1

>  <NaaO>
0

>  <NsF>
1

>  <NsSiH3>
0

>  <NssSiH2>
0

>  <NsssSiH>
0

>  <NssssSi>
0

>  <NsPH2>
0

>  <NssPH>
0

>  <NsssP>
0

>  <NdsssP>
0

>  <NsssssP>
0

>  <NsSH>
0

>  <NdS>
0

>  <NssS>
1

>  <NaaS>
0

>  <NdssS>
0

>  <NddssS>
0

>  <NsCl>
0

>  <NsBr>
0

>  <NsI>
0

>  <fragCpx>
226.07

>  <fMF>
0.27

>  <nHBAcc>
6

>  <nHBDon>
1

>  <Kier1>
24.13

>  <Kier2>
7.77

>  <Lipinski>
1

>  <GhoseFilter>
1

>  <FilterItLogS>
-4.06

>  <VMcGowan>
331.54

>  <LabuteASA>
186.41

>  <PEOE_VSA1>
9.84

>  <PEOE_VSA2>
14.38

>  <PEOE_VSA3>
4.39

>  <PEOE_VSA4>
0

>  <PEOE_VSA5>
0

>  <PEOE_VSA6>
37.26

>  <PEOE_VSA7>
56.93

>  <PEOE_VSA8>
29.59

>  <PEOE_VSA9>
6.1

>  <PEOE_VSA10>
0

>  <PEOE_VSA11>
17.05

>  <PEOE_VSA12>
5.12

>  <PEOE_VSA13>
0

>  <SMR_VSA1>
28.62

>  <SMR_VSA2>
0

>  <SMR_VSA3>
0

>  <SMR_VSA4>
28.58

>  <SMR_VSA5>
70.75

>  <SMR_VSA6>
6.26

>  <SMR_VSA7>
23.8

>  <SMR_VSA8>
0

>  <SMR_VSA9>
0

>  <SlogP_VSA1>
0

>  <SlogP_VSA2>
45.6

>  <SlogP_VSA3>
19.12

>  <SlogP_VSA4>
28.58

>  <SlogP_VSA5>
53.38

>  <SlogP_VSA6>
23.8

>  <SlogP_VSA7>
0

>  <SlogP_VSA8>
0

>  <SlogP_VSA9>
0

>  <SlogP_VSA10>
4.39

>  <SlogP_VSA11>
0

>  <EState_VSA1>
40.09

>  <EState_VSA2>
29.16

>  <EState_VSA3>
19.26

>  <EState_VSA4>
17.33

>  <EState_VSA5>
19.08

>  <EState_VSA6>
19.26

>  <EState_VSA7>
13.85

>  <EState_VSA8>
0

>  <EState_VSA9>
4.74

>  <EState_VSA10>
19.49

>  <VSA_EState1>
22.97

>  <VSA_EState2>
37.33

>  <VSA_EState3>
11.13

>  <VSA_EState4>
-4.61

>  <VSA_EState5>
-1.75

>  <VSA_EState6>
0

>  <VSA_EState7>
6.42

>  <VSA_EState8>
6.83

>  <VSA_EState9>
0

>  <apol>
68.22

>  <bpol>
39.01

>  <nRing>
4

>  <nHRing>
0

>  <naRing>
0

>  <naHRing>
0

>  <nARing 2>
4

>  <nAHRing 2>
0

>  <nFRing>
1

>  <nFHRing>
0

>  <nFaRing>
0

>  <nFaHRing>
0

>  <nFARing 2>
1

>  <nFAHRing 2>
0

>  <nRot>
2

>  <SLogP>
3.79

>  <SMR>
115.92

>  <TopoPSA(NO)>
80.67

>  <TopoPSA>
105.97

>  <JGI1>
0.32

>  <JGI2>
0.15

>  <JGI3>
0.08

>  <JGI4>
0.06

>  <JGI5>
0.04

>  <Diameter>
12

>  <Radius>
6

>  <TMWC10>
147.37

>  <TSRW10>
83.43

>  <MW>
450.19

>  <AMW>
7.26

>  <WPath>
2201

>  <WPol>
75

>  <Zagreb1>
182

>  <Zagreb2>
237

>  <mZagreb2>
6.53

>  <yes>


>  <nAR-cont>
0.199399

>  <nHA-cont>
0.702745138

>  <MWHBN>
0.329913523

>  <MWHBN-cont>
0.743147214

>  <TPSA-cont>
0.260263597

>  <pka_cont>
0.97

>  <yes.1>


>  <BBB_SCORE>
3.022392151

>  <MMFF94 Energy>
139.49

$$$$
Compound 1578
Actelion Java MolfileCreator 2.0

  0  0  0  0  0  0              0 V3000
M  V30 BEGIN CTAB
M  V30 COUNTS 42 42 0 0 0
M  V30 BEGIN ATOM
M  V30 1 S 1.5108 -1.5108 5.1758 0
M  V30 2 C 0.5177 -2.1824 3.7979 0
M  V30 3 C 3.123 -2.2184 4.7562 0
M  V30 4 C 0.776 -1.4136 2.5041 0
M  V30 5 C -0.1622 -1.8427 1.37 0 CFG=2
M  V30 6 N 0.1851 -3.1603 0.8337 0
M  V30 7 C -0.0415 -0.8379 0.2217 0
M  V30 8 C -0.4147 -4.3156 1.2639 0
M  V30 9 O 0.7211 -0.9801 -0.7297 0
M  V30 10 O -0.8847 0.2397 0.4656 0
M  V30 11 O -1.2398 -4.3459 2.17 0
M  V30 12 C 0.0591 -5.5551 0.5567 0
M  V30 13 C -0.8309 1.2117 -0.5317 0
M  V30 14 C -1.8149 1.2222 -1.5147 0
M  V30 15 C 0.1523 2.1949 -0.4878 0
M  V30 16 C -1.7964 2.2197 -2.4941 0
M  V30 17 C 0.1653 3.1876 -1.4704 0
M  V30 18 C -0.8091 3.2099 -2.4801 0
M  V30 19 N -0.7182 4.2401 -3.4383 0
M  V30 20 C -1.6405 4.5576 -4.4197 0
M  V30 21 O -2.7222 4.0179 -4.6204 0
M  V30 22 C -1.1841 5.7194 -5.2661 0
M  V30 23 H -0.5353 -2.0891 4.0833 0
M  V30 24 H 0.7402 -3.2477 3.6906 0
M  V30 25 H 3.8363 -1.9727 5.5477 0
M  V30 26 H 3.4968 -1.8025 3.8178 0
M  V30 27 H 3.0551 -3.3065 4.6786 0
M  V30 28 H 1.8172 -1.5447 2.1832 0
M  V30 29 H 0.6387 -0.3399 2.6905 0
M  V30 30 H -1.2074 -1.8664 1.7005 0
M  V30 31 H 0.8344 -3.1854 0.0516 0
M  V30 32 H 0.3316 -5.3356 -0.4793 0
M  V30 33 H -0.7413 -6.3001 0.5539 0
M  V30 34 H 0.9299 -5.9566 1.0817 0
M  V30 35 H -2.5923 0.4641 -1.5304 0
M  V30 36 H 0.904 2.1921 0.2953 0
M  V30 37 H -2.5666 2.1939 -3.259 0
M  V30 38 H 0.9432 3.9455 -1.4308 0
M  V30 39 H 0.1056 4.8255 -3.3838 0
M  V30 40 H -1.1986 6.6354 -4.6687 0
M  V30 41 H -1.8544 5.8387 -6.122 0
M  V30 42 H -0.1708 5.5411 -5.6373 0
M  V30 END ATOM
M  V30 BEGIN BOND
M  V30 1 1 1 2
M  V30 2 1 1 3
M  V30 3 1 2 4
M  V30 4 1 4 5
M  V30 5 1 5 6
M  V30 6 1 5 7
M  V30 7 1 6 8
M  V30 8 2 7 9
M  V30 9 1 7 10
M  V30 10 2 8 11
M  V30 11 1 8 12
M  V30 12 1 10 13
M  V30 13 2 13 14
M  V30 14 1 13 15
M  V30 15 1 14 16
M  V30 16 2 15 17
M  V30 17 2 16 18
M  V30 18 1 18 19
M  V30 19 1 19 20
M  V30 20 2 20 21
M  V30 21 1 20 22
M  V30 22 1 17 18
M  V30 23 1 2 23
M  V30 24 1 2 24
M  V30 25 1 3 25
M  V30 26 1 3 26
M  V30 27 1 3 27
M  V30 28 1 4 28
M  V30 29 1 4 29
M  V30 30 1 5 30
M  V30 31 1 6 31
M  V30 32 1 12 32
M  V30 33 1 12 33
M  V30 34 1 12 34
M  V30 35 1 14 35
M  V30 36 1 15 36
M  V30 37 1 16 37
M  V30 38 1 17 38
M  V30 39 1 19 39
M  V30 40 1 22 40
M  V30 41 1 22 41
M  V30 42 1 22 42
M  V30 END BOND
M  V30 BEGIN COLLECTION
M  V30 MDLV30/STEABS ATOMS=(1 5)
M  V30 END COLLECTION
M  V30 END CTAB
M  END
>  <Column 1>
1914

>  <level_0>
2080

>  <index>
2080

>  <Unnamed: 0>
2080

>  <NO.>
2092

>  <Name>
69217-67-0

>  <IUPAC_name>
(4-acetamidophenyl) (2s)-2-acetamido-4-methylsulfanylbutanoate

>  <SMILES>
CSCC[C@H](NC(C)=O)C(=O)Oc1ccc(NC(C)=O)cc1

>  <CID>
3034043

>  <logBB>


>  <BBB+/BBB->
BBB+

>  <Inchi>
InChI=1S/C15H20N2O4S/c1-10(18)16-12-4-6-13(7-5-12)21-15(20)14(8-9-22-3)17-11(2)19/h4-7-14H-8-9H2-1-3H3-(H-16-18)(H-17-19)/t14-/m0/s1

>  <threshold>
-1

>  <reference>
R1|R13|R27|R30|

>  <group>
B

>  <Class>
1

>  <ABC>
16.06

>  <ABCGG>
13.77

>  <nAcid>
0

>  <nBase>
0

>  <nAromAtom>
6

>  <nAromBond>
6

>  <nAtom>
42

>  <nHeavyAtom>
22

>  <nSpiro>
0

>  <nBridgehead>
0

>  <nHetero>
7

>  <nN>
2

>  <nO>
4

>  <nF>
0

>  <BalabanJ>
2.37

>  <BertzCT>
530.85

>  <nBonds>
42

>  <nBondsO>
22

>  <nBondsS>
33

>  <nBondsD>
3

>  <nBondsT>
0

>  <nBondsA>
6

>  <nBondsM>
9

>  <nBondsKS>
36

>  <nBondsKD>
6

>  <RNCG>
0.19

>  <RPCG>
0.15

>  <FCSP3>
0.4

>  <SZ>
28.67

>  <Sm>
27.01

>  <Sv>
25.98

>  <Sse>
42.6

>  <Sp>
27.96

>  <Si>
47.49

>  <MZ>
0.68

>  <Mm>
0.64

>  <Mv>
0.62

>  <Mse>
1.01

>  <Mp>
0.67

>  <Mi>
1.13

>  <NsCH3>
3

>  <NdCH2>
0

>  <NssCH2>
2

>  <NtCH>
0

>  <NdsCH>
0

>  <NaaCH>
4

>  <NsssCH>
1

>  <NddC>
0

>  <NtsC>
0

>  <NdssC>
3

>  <NaasC>
2

>  <NaaaC>
0

>  <NssssC>
0

>  <NsNH3>
0

>  <NsNH2>
0

>  <NssNH2>
0

>  <NdNH>
0

>  <NssNH>
2

>  <NaaNH>
0

>  <NtN>
0

>  <NsssNH>
0

>  <NdsN>
0

>  <NaaN>
0

>  <NsssN>
0

>  <NddsN>
0

>  <NaasN>
0

>  <NssssN>
0

>  <NsOH>
0

>  <NdO>
3

>  <NssO>
1

>  <NaaO>
0

>  <NsF>
0

>  <NsSiH3>
0

>  <NssSiH2>
0

>  <NsssSiH>
0

>  <NssssSi>
0

>  <NsPH2>
0

>  <NssPH>
0

>  <NsssP>
0

>  <NdsssP>
0

>  <NsssssP>
0

>  <NsSH>
0

>  <NdS>
0

>  <NssS>
1

>  <NaaS>
0

>  <NdssS>
0

>  <NddssS>
0

>  <NsCl>
0

>  <NsBr>
0

>  <NsI>
0

>  <fragCpx>
22.07

>  <fMF>
0.14

>  <nHBAcc>
5

>  <nHBDon>
2

>  <Kier1>
20.05

>  <Kier2>
10.71

>  <Lipinski>
1

>  <GhoseFilter>
1

>  <FilterItLogS>
-3.59

>  <VMcGowan>
245.34

>  <LabuteASA>
133.54

>  <PEOE_VSA1>
15.37

>  <PEOE_VSA2>
9.59

>  <PEOE_VSA3>
4.79

>  <PEOE_VSA4>
11.76

>  <PEOE_VSA5>
0

>  <PEOE_VSA6>
0

>  <PEOE_VSA7>
42.69

>  <PEOE_VSA8>
19.53

>  <PEOE_VSA9>
0

>  <PEOE_VSA10>
11.79

>  <PEOE_VSA11>
0

>  <PEOE_VSA12>
11.81

>  <PEOE_VSA13>
0

>  <SMR_VSA1>
19.12

>  <SMR_VSA2>
0

>  <SMR_VSA3>
5.32

>  <SMR_VSA4>
0

>  <SMR_VSA5>
26.31

>  <SMR_VSA6>
17.33

>  <SMR_VSA7>
24.27

>  <SMR_VSA8>
0

>  <SMR_VSA9>
5.75

>  <SlogP_VSA1>
15.37

>  <SlogP_VSA2>
35.83

>  <SlogP_VSA3>
14.38

>  <SlogP_VSA4>
0

>  <SlogP_VSA5>
20.27

>  <SlogP_VSA6>
24.27

>  <SlogP_VSA7>
0

>  <SlogP_VSA8>
0

>  <SlogP_VSA9>
0

>  <SlogP_VSA10>
5.69

>  <SlogP_VSA11>
5.75

>  <EState_VSA1>
12.01

>  <EState_VSA2>
11.81

>  <EState_VSA3>
17.86

>  <EState_VSA4>
5.75

>  <EState_VSA5>
13.85

>  <EState_VSA6>
36.03

>  <EState_VSA7>
6.26

>  <EState_VSA8>
10.63

>  <EState_VSA9>
4.74

>  <EState_VSA10>
14.38

>  <VSA_EState1>
5.26

>  <VSA_EState2>
34.19

>  <VSA_EState3>
5.21

>  <VSA_EState4>
0.62

>  <VSA_EState5>
0.15

>  <VSA_EState6>
5.78

>  <VSA_EState7>
2.43

>  <VSA_EState8>
2.78

>  <VSA_EState9>
0

>  <apol>
46.69

>  <bpol>
28

>  <nRing>
1

>  <nHRing>
0

>  <naRing>
1

>  <naHRing>
0

>  <nARing 2>
0

>  <nAHRing 2>
0

>  <nFRing>
0

>  <nFHRing>
0

>  <nFaRing>
0

>  <nFaHRing>
0

>  <nFARing 2>
0

>  <nFAHRing 2>
0

>  <nRot>
7

>  <SLogP>
1.81

>  <SMR>
86.98

>  <TopoPSA(NO)>
84.5

>  <TopoPSA>
109.8

>  <JGI1>
0.25

>  <JGI2>
0.06

>  <JGI3>
0.05

>  <JGI4>
0.05

>  <JGI5>
0.02

>  <Diameter>
13

>  <Radius>
7

>  <TMWC10>
114.56

>  <TSRW10>
54.8

>  <MW>
324.11

>  <AMW>
7.72

>  <WPath>
1226

>  <WPol>
27

>  <Zagreb1>
100

>  <Zagreb2>
108

>  <mZagreb2>
5.11

>  <yes>


>  <nAR-cont>
0.336376

>  <nHA-cont>
0.983774276

>  <MWHBN>
0.388822891

>  <MWHBN-cont>
0.520101521

>  <TPSA-cont>
0.233527818

>  <pka_cont>
0.97

>  <yes.1>


>  <BBB_SCORE>
3.052358193

>  <MMFF94 Energy>
14.827

$$$$
Compound 1579
Actelion Java MolfileCreator 2.0

  0  0  0  0  0  0              0 V3000
M  V30 BEGIN CTAB
M  V30 COUNTS 42 43 0 0 0
M  V30 BEGIN ATOM
M  V30 1 Cl 0.4817 -4.342 2.5713 0
M  V30 2 C 0.5074 -2.7649 1.8602 0
M  V30 3 N 1.3829 -1.9622 2.4924 0
M  V30 4 C -0.2707 -2.4146 0.7684 0
M  V30 5 C 1.5029 -0.7347 2.0056 0
M  V30 6 S -1.3478 -3.5876 -0.0583 0
M  V30 7 C -0.0959 -1.0914 0.3619 0
M  V30 8 N 0.8008 -0.2801 0.9641 0
M  V30 9 N 2.4013 0.0752 2.6407 0
M  V30 10 C -0.4836 -3.7047 -1.6466 0
M  V30 11 N -0.8339 -0.5405 -0.6916 0
M  V30 12 C 2.5578 1.4769 2.3243 0
M  V30 13 C -0.1654 0.5235 -1.4592 0
M  V30 14 C -2.2406 -0.2306 -0.3753 0
M  V30 15 C 1.5024 2.3016 3.0574 0
M  V30 16 C 3.9603 1.919 2.7413 0
M  V30 17 C -0.9771 0.8494 -2.7349 0
M  V30 18 C -3.0153 0.1084 -1.6701 0
M  V30 19 N -2.3852 1.2023 -2.4437 0
M  V30 20 C -3.122 1.4505 -3.6806 0
M  V30 21 H 2.8284 -0.3332 3.4585 0
M  V30 22 H -0.5652 -2.7741 -2.213 0
M  V30 23 H -0.9383 -4.5037 -2.2386 0
M  V30 24 H 0.5717 -3.9467 -1.4935 0
M  V30 25 H 2.469 1.6468 1.244 0
M  V30 26 H 0.8386 0.2016 -1.7624 0
M  V30 27 H -0.0649 1.4324 -0.851 0
M  V30 28 H -2.2827 0.625 0.312 0
M  V30 29 H -2.747 -1.0653 0.1198 0
M  V30 30 H 1.5649 2.1561 4.1419 0
M  V30 31 H 0.4915 2.018 2.7452 0
M  V30 32 H 1.6289 3.3693 2.8494 0
M  V30 33 H 4.1236 2.9751 2.5025 0
M  V30 34 H 4.1198 1.7844 3.8173 0
M  V30 35 H 4.7233 1.3318 2.2185 0
M  V30 36 H -0.9374 -0.0171 -3.409 0
M  V30 37 H -0.4887 1.687 -3.2473 0
M  V30 38 H -4.0357 0.3993 -1.3927 0
M  V30 39 H -3.0868 -0.798 -2.2863 0
M  V30 40 H -3.145 0.5719 -4.3354 0
M  V30 41 H -4.1547 1.7423 -3.4595 0
M  V30 42 H -2.6716 2.2814 -4.2347 0
M  V30 END ATOM
M  V30 BEGIN BOND
M  V30 1 1 1 2
M  V30 2 2 2 3
M  V30 3 1 2 4
M  V30 4 1 3 5
M  V30 5 1 4 6
M  V30 6 2 4 7
M  V30 7 2 5 8
M  V30 8 1 5 9
M  V30 9 1 6 10
M  V30 10 1 7 11
M  V30 11 1 9 12
M  V30 12 1 11 13
M  V30 13 1 11 14
M  V30 14 1 12 15
M  V30 15 1 12 16
M  V30 16 1 13 17
M  V30 17 1 14 18
M  V30 18 1 17 19
M  V30 19 1 19 20
M  V30 20 1 7 8
M  V30 21 1 18 19
M  V30 22 1 9 21
M  V30 23 1 10 22
M  V30 24 1 10 23
M  V30 25 1 10 24
M  V30 26 1 12 25
M  V30 27 1 13 26
M  V30 28 1 13 27
M  V30 29 1 14 28
M  V30 30 1 14 29
M  V30 31 1 15 30
M  V30 32 1 15 31
M  V30 33 1 15 32
M  V30 34 1 16 33
M  V30 35 1 16 34
M  V30 36 1 16 35
M  V30 37 1 17 36
M  V30 38 1 17 37
M  V30 39 1 18 38
M  V30 40 1 18 39
M  V30 41 1 20 40
M  V30 42 1 20 41
M  V30 43 1 20 42
M  V30 END BOND
M  V30 END CTAB
M  END
>  <Column 1>
1915

>  <level_0>
2081

>  <index>
2081

>  <Unnamed: 0>
2081

>  <NO.>
2093

>  <Name>
iprozilamine

>  <IUPAC_name>
4-chloro-6-(4-methylpiperazin-1-yl)-5-methylsulfanyl-n-propan-2-ylpyrimidin-2-amine

>  <SMILES>
CSc1c(Cl)nc(NC(C)C)nc1N1CCN(C)CC1

>  <CID>
68725

>  <logBB>


>  <BBB+/BBB->
BBB+

>  <Inchi>
InChI=1S/C13H22ClN5S/c1-9(2)15-13-16-11(14)10(20-4)12(17-13)19-7-5-18(3)6-8-19/h9H-5-8H2-1-4H3-(H-15-16-17)

>  <threshold>
-1

>  <reference>
R1|R13|R19|R6|R24|R27|R27|R27|R30|R30|

>  <group>
B

>  <Class>
-1

>  <ABC>
15.17

>  <ABCGG>
13.01

>  <nAcid>
0

>  <nBase>
1

>  <nAromAtom>
6

>  <nAromBond>
6

>  <nAtom>
42

>  <nHeavyAtom>
20

>  <nSpiro>
0

>  <nBridgehead>
0

>  <nHetero>
7

>  <nN>
5

>  <nO>
0

>  <nF>
0

>  <BalabanJ>
2.01

>  <BertzCT>
460.32

>  <nBonds>
43

>  <nBondsO>
21

>  <nBondsS>
37

>  <nBondsD>
0

>  <nBondsT>
0

>  <nBondsA>
6

>  <nBondsM>
6

>  <nBondsKS>
40

>  <nBondsKD>
3

>  <RNCG>
0.21

>  <RPCG>
0.13

>  <FCSP3>
0.69

>  <SZ>
28

>  <Sm>
26.3

>  <Sv>
25.03

>  <Sse>
41.92

>  <Sp>
28.12

>  <Si>
48.09

>  <MZ>
0.67

>  <Mm>
0.63

>  <Mv>
0.6

>  <Mse>
1

>  <Mp>
0.67

>  <Mi>
1.15

>  <NsCH3>
4

>  <NdCH2>
0

>  <NssCH2>
4

>  <NtCH>
0

>  <NdsCH>
0

>  <NaaCH>
0

>  <NsssCH>
1

>  <NddC>
0

>  <NtsC>
0

>  <NdssC>
0

>  <NaasC>
4

>  <NaaaC>
0

>  <NssssC>
0

>  <NsNH3>
0

>  <NsNH2>
0

>  <NssNH2>
0

>  <NdNH>
0

>  <NssNH>
1

>  <NaaNH>
0

>  <NtN>
0

>  <NsssNH>
0

>  <NdsN>
0

>  <NaaN>
2

>  <NsssN>
2

>  <NddsN>
0

>  <NaasN>
0

>  <NssssN>
0

>  <NsOH>
0

>  <NdO>
0

>  <NssO>
0

>  <NaaO>
0

>  <NsF>
0

>  <NsSiH3>
0

>  <NssSiH2>
0

>  <NsssSiH>
0

>  <NssssSi>
0

>  <NsPH2>
0

>  <NssPH>
0

>  <NsssP>
0

>  <NdsssP>
0

>  <NsssssP>
0

>  <NsSH>
0

>  <NdS>
0

>  <NssS>
1

>  <NaaS>
0

>  <NdssS>
0

>  <NddssS>
0

>  <NsCl>
1

>  <NsBr>
0

>  <NsI>
0

>  <fragCpx>
61.07

>  <fMF>
0.29

>  <nHBAcc>
6

>  <nHBDon>
1

>  <Kier1>
16.37

>  <Kier2>
7.32

>  <Lipinski>
1

>  <GhoseFilter>
1

>  <FilterItLogS>
-3.79

>  <VMcGowan>
237.9

>  <LabuteASA>
129.65

>  <PEOE_VSA1>
15.12

>  <PEOE_VSA2>
0

>  <PEOE_VSA3>
0

>  <PEOE_VSA4>
9.97

>  <PEOE_VSA5>
11.76

>  <PEOE_VSA6>
11.6

>  <PEOE_VSA7>
27.15

>  <PEOE_VSA8>
32.22

>  <PEOE_VSA9>
4.9

>  <PEOE_VSA10>
10.97

>  <PEOE_VSA11>
0

>  <PEOE_VSA12>
5.95

>  <PEOE_VSA13>
0

>  <SMR_VSA1>
0

>  <SMR_VSA2>
0

>  <SMR_VSA3>
14.87

>  <SMR_VSA4>
0

>  <SMR_VSA5>
24.78

>  <SMR_VSA6>
49.7

>  <SMR_VSA7>
5.15

>  <SMR_VSA8>
0

>  <SMR_VSA9>
0

>  <SlogP_VSA1>
10.22

>  <SlogP_VSA2>
60.39

>  <SlogP_VSA3>
0

>  <SlogP_VSA4>
0

>  <SlogP_VSA5>
13.85

>  <SlogP_VSA6>
4.9

>  <SlogP_VSA7>
5.15

>  <SlogP_VSA8>
0

>  <SlogP_VSA9>
0

>  <SlogP_VSA10>
11.77

>  <SlogP_VSA11>
0

>  <EState_VSA1>
0

>  <EState_VSA2>
6.04

>  <EState_VSA3>
11.1

>  <EState_VSA4>
36.89

>  <EState_VSA5>
0

>  <EState_VSA6>
11.76

>  <EState_VSA7>
6.26

>  <EState_VSA8>
45.98

>  <EState_VSA9>
11.6

>  <EState_VSA10>
0

>  <VSA_EState1>
0

>  <VSA_EState2>
14.6

>  <VSA_EState3>
3.76

>  <VSA_EState4>
0

>  <VSA_EState5>
1.56

>  <VSA_EState6>
0.28

>  <VSA_EState7>
2.01

>  <VSA_EState8>
8.16

>  <VSA_EState9>
2.14

>  <apol>
46.96

>  <bpol>
31.31

>  <nRing>
2

>  <nHRing>
2

>  <naRing>
1

>  <naHRing>
1

>  <nARing 2>
1

>  <nAHRing 2>
1

>  <nFRing>
0

>  <nFHRing>
0

>  <nFaRing>
0

>  <nFaHRing>
0

>  <nFARing 2>
0

>  <nFAHRing 2>
0

>  <nRot>
4

>  <SLogP>
2.42

>  <SMR>
87.29

>  <TopoPSA(NO)>
44.29

>  <TopoPSA>
69.59

>  <JGI1>
0.24

>  <JGI2>
0.08

>  <JGI3>
0.05

>  <JGI4>
0.05

>  <JGI5>
0.03

>  <Diameter>
10

>  <Radius>
5

>  <TMWC10>
113.58

>  <TSRW10>
53.4

>  <MW>
315.13

>  <AMW>
7.5

>  <WPath>
800

>  <WPol>
30

>  <Zagreb1>
100

>  <Zagreb2>
115

>  <mZagreb2>
4.5

>  <yes>


>  <nAR-cont>
0.816016

>  <nHA-cont>
0.999629945

>  <MWHBN>
0.394323959

>  <MWHBN-cont>
0.498420078

>  <TPSA-cont>
0.514218587

>  <pka_cont>
0.97

>  <yes.1>


>  <BBB_SCORE>
4.076713236

>  <MMFF94 Energy>
-6.3864

$$$$
Compound 1580
Actelion Java MolfileCreator 2.0

  0  0  0  0  0  0              0 V3000
M  V30 BEGIN CTAB
M  V30 COUNTS 56 58 0 0 0
M  V30 BEGIN ATOM
M  V30 1 S -2.6456 -6.9863 2.4851 0
M  V30 2 C -1.6226 -5.5488 2.2193 0
M  V30 3 C -2.7348 -6.9836 4.2952 0
M  V30 4 C -1.9587 -4.2967 2.7406 0
M  V30 5 C -0.4735 -5.6726 1.4344 0
M  V30 6 C -1.1398 -3.1881 2.505 0
M  V30 7 C 0.3466 -4.5658 1.1967 0
M  V30 8 C 0.0266 -3.3151 1.7399 0
M  V30 9 C 0.9085 -2.1156 1.4798 0
M  V30 10 C 0.4861 -1.2617 0.2883 0
M  V30 11 O -0.4861 -1.5488 -0.4113 0
M  V30 12 N 1.2543 -0.1277 0.0193 0
M  V30 13 C 0.8075 0.7691 -1.084 0 CFG=2
M  V30 14 C 2.3234 0.387 0.8961 0
M  V30 15 C 2.0046 1.4309 -1.8087 0
M  V30 16 C -0.2108 1.8179 -0.5533 0
M  V30 17 C 3.4762 1.0249 0.1123 0
M  V30 18 N 2.9714 1.9908 -0.8583 0
M  V30 19 N -0.7851 2.6902 -1.5888 0
M  V30 20 C 3.3452 3.3181 -0.7689 0
M  V30 21 C -1.6056 3.7617 -1.0028 0
M  V30 22 C -1.7034 1.9815 -2.4895 0
M  V30 23 O 4.085 3.7356 0.1228 0
M  V30 24 C 2.8089 4.2644 -1.8115 0
M  V30 25 C -2.5556 4.1959 -2.1276 0 CFG=1
M  V30 26 C -2.4067 3.1258 -3.2024 0
M  V30 27 O -3.9073 4.2248 -1.6786 0
M  V30 28 H -1.7316 -6.9639 4.7299 0
M  V30 29 H -3.2384 -7.8954 4.6278 0
M  V30 30 H -3.3069 -6.1256 4.6576 0
M  V30 31 H -2.8697 -4.1624 3.3173 0
M  V30 32 H -0.208 -6.6321 0.9968 0
M  V30 33 H -1.4298 -2.2214 2.9106 0
M  V30 34 H 1.2307 -4.6889 0.5754 0
M  V30 35 H 0.9161 -1.4885 2.3796 0
M  V30 36 H 1.9359 -2.4609 1.3134 0
M  V30 37 H 0.292 0.149 -1.827 0
M  V30 38 H 2.724 -0.4011 1.5367 0
M  V30 39 H 1.8568 1.1323 1.5511 0
M  V30 40 H 1.6665 2.1717 -2.5355 0
M  V30 41 H 2.5467 0.6626 -2.3745 0
M  V30 42 H 0.3037 2.4493 0.183 0
M  V30 43 H -1.0096 1.3032 -0.002 0
M  V30 44 H 4.0159 0.2545 -0.4512 0
M  V30 45 H 4.1875 1.4834 0.806 0
M  V30 46 H -0.97 4.5952 -0.686 0
M  V30 47 H -2.1769 3.4168 -0.1313 0
M  V30 48 H -2.4311 1.3739 -1.9367 0
M  V30 49 H -1.1758 1.3422 -3.2035 0
M  V30 50 H 3.0805 3.9196 -2.8125 0
M  V30 51 H 1.7239 4.3509 -1.7189 0
M  V30 52 H 3.2472 5.2559 -1.6622 0
M  V30 53 H -2.3013 5.1828 -2.5286 0
M  V30 54 H -1.7639 3.5013 -4.0084 0
M  V30 55 H -3.3597 2.809 -3.637 0
M  V30 56 H -3.9749 4.9211 -1.003 0
M  V30 END ATOM
M  V30 BEGIN BOND
M  V30 1 1 1 2
M  V30 2 1 1 3
M  V30 3 2 2 4
M  V30 4 1 2 5
M  V30 5 1 4 6
M  V30 6 2 5 7
M  V30 7 2 6 8
M  V30 8 1 8 9
M  V30 9 1 9 10
M  V30 10 2 10 11
M  V30 11 1 10 12
M  V30 12 1 12 13
M  V30 13 1 12 14
M  V30 14 1 13 15
M  V30 15 1 13 16
M  V30 16 1 14 17
M  V30 17 1 15 18
M  V30 18 1 16 19
M  V30 19 1 18 20
M  V30 20 1 19 21
M  V30 21 1 19 22
M  V30 22 2 20 23
M  V30 23 1 20 24
M  V30 24 1 21 25
M  V30 25 1 22 26
M  V30 26 1 25 27
M  V30 27 1 7 8
M  V30 28 1 17 18
M  V30 29 1 25 26
M  V30 30 1 3 28
M  V30 31 1 3 29
M  V30 32 1 3 30
M  V30 33 1 4 31
M  V30 34 1 5 32
M  V30 35 1 6 33
M  V30 36 1 7 34
M  V30 37 1 9 35
M  V30 38 1 9 36
M  V30 39 1 13 37
M  V30 40 1 14 38
M  V30 41 1 14 39
M  V30 42 1 15 40
M  V30 43 1 15 41
M  V30 44 1 16 42
M  V30 45 1 16 43
M  V30 46 1 17 44
M  V30 47 1 17 45
M  V30 48 1 21 46
M  V30 49 1 21 47
M  V30 50 1 22 48
M  V30 51 1 22 49
M  V30 52 1 24 50
M  V30 53 1 24 51
M  V30 54 1 24 52
M  V30 55 1 25 53
M  V30 56 1 26 54
M  V30 57 1 26 55
M  V30 58 1 27 56
M  V30 END BOND
M  V30 BEGIN COLLECTION
M  V30 MDLV30/STEABS ATOMS=(2 13 25)
M  V30 END COLLECTION
M  V30 END CTAB
M  END
>  <Column 1>
1916

>  <level_0>
2082

>  <index>
2082

>  <Unnamed: 0>
2082

>  <NO.>
2094

>  <Name>
gr94839_b

>  <IUPAC_name>
1-[(2s)-4-acetyl-2-[[(3r)-3-hydroxypyrrolidin-1-yl]methyl]piperazin-1-yl]-2-(4-methylsulfanylphenyl)ethanone

>  <SMILES>
CSc1ccc(CC(=O)N2CCN(C(C)=O)C[C@@H]2CN2CC[C@@H](O)C2)cc1

>  <CID>
44310513

>  <logBB>


>  <BBB+/BBB->
BBB-

>  <Inchi>
InChI=1S/C20H29N3O3S/c1-15(24)22-9-10-23(17(13-22)12-21-8-7-18(25)14-21)20(26)11-16-3-5-19(27-2)6-4-16/h3-6-17-18-25H-7-14H2-1-2H3/t17--18+/m0/s1

>  <threshold>
-1

>  <reference>
R1|R28|R9|R24|R27|R30|

>  <group>
B

>  <Class>
1

>  <ABC>
20.82

>  <ABCGG>
16.81

>  <nAcid>
0

>  <nBase>
1

>  <nAromAtom>
6

>  <nAromBond>
6

>  <nAtom>
56

>  <nHeavyAtom>
27

>  <nSpiro>
0

>  <nBridgehead>
0

>  <nHetero>
7

>  <nN>
3

>  <nO>
3

>  <nF>
0

>  <BalabanJ>
1.56

>  <BertzCT>
666.94

>  <nBonds>
58

>  <nBondsO>
29

>  <nBondsS>
50

>  <nBondsD>
2

>  <nBondsT>
0

>  <nBondsA>
6

>  <nBondsM>
8

>  <nBondsKS>
53

>  <nBondsKD>
5

>  <RNCG>
0.17

>  <RPCG>
0.1

>  <FCSP3>
0.6

>  <SZ>
35

>  <Sm>
32.6

>  <Sv>
33.46

>  <Sse>
55.93

>  <Sp>
36.73

>  <Si>
63.44

>  <MZ>
0.63

>  <Mm>
0.58

>  <Mv>
0.6

>  <Mse>
1

>  <Mp>
0.66

>  <Mi>
1.13

>  <NsCH3>
2

>  <NdCH2>
0

>  <NssCH2>
8

>  <NtCH>
0

>  <NdsCH>
0

>  <NaaCH>
4

>  <NsssCH>
2

>  <NddC>
0

>  <NtsC>
0

>  <NdssC>
2

>  <NaasC>
2

>  <NaaaC>
0

>  <NssssC>
0

>  <NsNH3>
0

>  <NsNH2>
0

>  <NssNH2>
0

>  <NdNH>
0

>  <NssNH>
0

>  <NaaNH>
0

>  <NtN>
0

>  <NsssNH>
0

>  <NdsN>
0

>  <NaaN>
0

>  <NsssN>
3

>  <NddsN>
0

>  <NaasN>
0

>  <NssssN>
0

>  <NsOH>
1

>  <NdO>
2

>  <NssO>
0

>  <NaaO>
0

>  <NsF>
0

>  <NsSiH3>
0

>  <NssSiH2>
0

>  <NsssSiH>
0

>  <NssssSi>
0

>  <NsPH2>
0

>  <NssPH>
0

>  <NsssP>
0

>  <NdsssP>
0

>  <NsssssP>
0

>  <NsSH>
0

>  <NdS>
0

>  <NssS>
1

>  <NaaS>
0

>  <NdssS>
0

>  <NddssS>
0

>  <NsCl>
0

>  <NsBr>
0

>  <NsI>
0

>  <fragCpx>
139.07

>  <fMF>
0.36

>  <nHBAcc>
5

>  <nHBDon>
1

>  <Kier1>
21.7

>  <Kier2>
10.16

>  <Lipinski>
1

>  <GhoseFilter>
1

>  <FilterItLogS>
-2.5

>  <VMcGowan>
302.48

>  <LabuteASA>
165.05

>  <PEOE_VSA1>
14.91

>  <PEOE_VSA2>
14.49

>  <PEOE_VSA3>
0

>  <PEOE_VSA4>
0

>  <PEOE_VSA5>
11.76

>  <PEOE_VSA6>
12.13

>  <PEOE_VSA7>
30.37

>  <PEOE_VSA8>
51.09

>  <PEOE_VSA9>
18.57

>  <PEOE_VSA10>
0

>  <PEOE_VSA11>
0

>  <PEOE_VSA12>
11.81

>  <PEOE_VSA13>
0

>  <SMR_VSA1>
14.7

>  <SMR_VSA2>
0

>  <SMR_VSA3>
14.7

>  <SMR_VSA4>
0

>  <SMR_VSA5>
36.81

>  <SMR_VSA6>
45.52

>  <SMR_VSA7>
29.83

>  <SMR_VSA8>
0

>  <SMR_VSA9>
0

>  <SlogP_VSA1>
0

>  <SlogP_VSA2>
89.29

>  <SlogP_VSA3>
16.01

>  <SlogP_VSA4>
0

>  <SlogP_VSA5>
18.91

>  <SlogP_VSA6>
29.16

>  <SlogP_VSA7>
0

>  <SlogP_VSA8>
0

>  <SlogP_VSA9>
0

>  <SlogP_VSA10>
0

>  <SlogP_VSA11>
0

>  <EState_VSA1>
0

>  <EState_VSA2>
23.96

>  <EState_VSA3>
39.14

>  <EState_VSA4>
18.53

>  <EState_VSA5>
4.9

>  <EState_VSA6>
18.69

>  <EState_VSA7>
40.32

>  <EState_VSA8>
4.9

>  <EState_VSA9>
0

>  <EState_VSA10>
14.7

>  <VSA_EState1>
0

>  <VSA_EState2>
31.98

>  <VSA_EState3>
9.79

>  <VSA_EState4>
1.02

>  <VSA_EState5>
0.17

>  <VSA_EState6>
8.1

>  <VSA_EState7>
2.91

>  <VSA_EState8>
5.51

>  <VSA_EState9>
0

>  <apol>
61.34

>  <bpol>
38.42

>  <nRing>
3

>  <nHRing>
2

>  <naRing>
1

>  <naHRing>
0

>  <nARing 2>
2

>  <nAHRing 2>
2

>  <nFRing>
0

>  <nFHRing>
0

>  <nFaRing>
0

>  <nFaHRing>
0

>  <nFARing 2>
0

>  <nFAHRing 2>
0

>  <nRot>
5

>  <SLogP>
1.08

>  <SMR>
106.75

>  <TopoPSA(NO)>
64.09

>  <TopoPSA>
89.39

>  <JGI1>
0.22

>  <JGI2>
0.07

>  <JGI3>
0.05

>  <JGI4>
0.04

>  <JGI5>
0.03

>  <Diameter>
14

>  <Radius>
7

>  <TMWC10>
131.17

>  <TSRW10>
75.37

>  <MW>
391.19

>  <AMW>
6.99

>  <WPath>
1961

>  <WPol>
39

>  <Zagreb1>
138

>  <Zagreb2>
159

>  <mZagreb2>
6

>  <yes>


>  <nAR-cont>
1

>  <nHA-cont>
0.860070871

>  <MWHBN>
0.303359345

>  <MWHBN-cont>
0.830587129

>  <TPSA-cont>
0.376002292

>  <pka_cont>
0.97

>  <yes.1>


>  <BBB_SCORE>
4.34295615

>  <MMFF94 Energy>
100.24

$$$$
Compound 1581
Actelion Java MolfileCreator 2.0

  0  0  0  0  0  0              0 V3000
M  V30 BEGIN CTAB
M  V30 COUNTS 48 51 0 0 0
M  V30 BEGIN ATOM
M  V30 1 S -0.9003 -0.9003 3.4411 0
M  V30 2 C 0.4152 -1.2488 2.2793 0
M  V30 3 C -0.7929 0.8656 3.6187 0
M  V30 4 C 0.7263 -0.5631 1.0897 0
M  V30 5 C 1.2144 -2.3462 2.6665 0
M  V30 6 C -0.9894 1.7207 2.5283 0
M  V30 7 C -0.5402 1.4047 4.8857 0
M  V30 8 C 1.8861 -0.9812 0.3752 0
M  V30 9 C -0.0476 0.6068 0.4469 0 CFG=2
M  V30 10 C 2.3264 -2.75 1.9256 0
M  V30 11 C -0.894 3.1092 2.7135 0
M  V30 12 C -1.3026 1.153 1.1667 0
M  V30 13 C -0.4519 2.786 5.0632 0
M  V30 14 C 2.6697 -2.0689 0.767 0
M  V30 15 N -0.2975 0.2935 -0.9894 0
M  V30 16 C -0.6248 3.6377 3.9758 0
M  V30 17 S 4.102 -2.5893 -0.1563 0
M  V30 18 C -1.3983 -0.6576 -1.2262 0
M  V30 19 C -0.4656 1.4826 -1.8407 0
M  V30 20 C 3.374 -2.7573 -1.8088 0
M  V30 21 C -1.5089 -1.0365 -2.7218 0
M  V30 22 C -0.5824 1.1013 -3.3358 0
M  V30 23 N -1.6826 0.1496 -3.5839 0
M  V30 24 C -1.7272 -0.236 -4.9919 0
M  V30 25 H 0.9853 -2.8978 3.5779 0
M  V30 26 H -0.4013 0.751 5.7439 0
M  V30 27 H 2.1648 -0.4304 -0.5227 0
M  V30 28 H 0.6889 1.4259 0.4662 0
M  V30 29 H 2.9174 -3.5951 2.2698 0
M  V30 30 H -1.0361 3.7885 1.8758 0
M  V30 31 H -1.7608 1.9538 0.5735 0
M  V30 32 H -2.088 0.3926 1.2552 0
M  V30 33 H -0.2479 3.1948 6.0495 0
M  V30 34 H -0.5556 4.7141 4.1118 0
M  V30 35 H -2.359 -0.2364 -0.9048 0
M  V30 36 H -1.2353 -1.5793 -0.656 0
M  V30 37 H -1.3563 2.0548 -1.5553 0
M  V30 38 H 0.4009 2.1448 -1.728 0
M  V30 39 H 2.4893 -3.3995 -1.7768 0
M  V30 40 H 4.1099 -3.2149 -2.4756 0
M  V30 41 H 3.1025 -1.7811 -2.2188 0
M  V30 42 H -2.37 -1.7047 -2.8432 0
M  V30 43 H -0.6126 -1.5999 -3.0154 0
M  V30 44 H 0.3749 0.6806 -3.6727 0
M  V30 45 H -0.7565 2.0189 -3.9108 0
M  V30 46 H -0.8049 -0.7303 -5.3179 0
M  V30 47 H -2.5661 -0.9161 -5.1766 0
M  V30 48 H -1.8891 0.6431 -5.6253 0
M  V30 END ATOM
M  V30 BEGIN BOND
M  V30 1 1 1 2
M  V30 2 1 1 3
M  V30 3 2 2 4
M  V30 4 1 2 5
M  V30 5 2 3 6
M  V30 6 1 3 7
M  V30 7 1 4 8
M  V30 8 1 4 9
M  V30 9 2 5 10
M  V30 10 1 6 11
M  V30 11 1 6 12
M  V30 12 2 7 13
M  V30 13 2 8 14
M  V30 14 1 9 15
M  V30 15 2 11 16
M  V30 16 1 14 17
M  V30 17 1 15 18
M  V30 18 1 15 19
M  V30 19 1 17 20
M  V30 20 1 18 21
M  V30 21 1 19 22
M  V30 22 1 21 23
M  V30 23 1 23 24
M  V30 24 1 9 12
M  V30 25 1 10 14
M  V30 26 1 13 16
M  V30 27 1 22 23
M  V30 28 1 5 25
M  V30 29 1 7 26
M  V30 30 1 8 27
M  V30 31 1 9 28
M  V30 32 1 10 29
M  V30 33 1 11 30
M  V30 34 1 12 31
M  V30 35 1 12 32
M  V30 36 1 13 33
M  V30 37 1 16 34
M  V30 38 1 18 35
M  V30 39 1 18 36
M  V30 40 1 19 37
M  V30 41 1 19 38
M  V30 42 1 20 39
M  V30 43 1 20 40
M  V30 44 1 20 41
M  V30 45 1 21 42
M  V30 46 1 21 43
M  V30 47 1 22 44
M  V30 48 1 22 45
M  V30 49 1 24 46
M  V30 50 1 24 47
M  V30 51 1 24 48
M  V30 END BOND
M  V30 BEGIN COLLECTION
M  V30 MDLV30/STERAC1 ATOMS=(1 9)
M  V30 END COLLECTION
M  V30 END CTAB
M  END
>  <Column 1>
1917

>  <level_0>
2083

>  <index>
2083

>  <Unnamed: 0>
2083

>  <NO.>
2095

>  <Name>
metitepine(methiothepin)

>  <IUPAC_name>
1-methyl-4-(3-methylsulfanyl-5-6-dihydrobenzo[b][1]benzothiepin-5-yl)piperazine

>  <SMILES>
CSc1ccc2c(c1)C(N1CCN(C)CC1)Cc1ccccc1S2

>  <CID>
4106

>  <logBB>


>  <BBB+/BBB->
BBB+

>  <Inchi>
InChI=1S/C20H24N2S2/c1-21-9-11-22(12-10-21)18-13-15-5-3-4-6-19(15)24-20-8-7-16(23-2)14-17(18)20/h3-8-14-18H-9-13H2-1-2H3

>  <threshold>
-1

>  <reference>
R1|R19|R6|R27|R27|R30|

>  <group>
B

>  <Class>
1

>  <ABC>
19.04

>  <ABCGG>
14.51

>  <nAcid>
0

>  <nBase>
2

>  <nAromAtom>
12

>  <nAromBond>
12

>  <nAtom>
48

>  <nHeavyAtom>
24

>  <nSpiro>
0

>  <nBridgehead>
0

>  <nHetero>
4

>  <nN>
2

>  <nO>
0

>  <nF>
0

>  <BalabanJ>
1.55

>  <BertzCT>
723.33

>  <nBonds>
51

>  <nBondsO>
27

>  <nBondsS>
39

>  <nBondsD>
0

>  <nBondsT>
0

>  <nBondsA>
12

>  <nBondsM>
12

>  <nBondsKS>
45

>  <nBondsKD>
6

>  <RNCG>
0.24

>  <RPCG>
0.05

>  <FCSP3>
0.4

>  <SZ>
31.67

>  <Sm>
29.68

>  <Sv>
30.39

>  <Sse>
47.13

>  <Sp>
34.37

>  <Si>
53.41

>  <MZ>
0.66

>  <Mm>
0.62

>  <Mv>
0.63

>  <Mse>
0.98

>  <Mp>
0.72

>  <Mi>
1.11

>  <NsCH3>
2

>  <NdCH2>
0

>  <NssCH2>
5

>  <NtCH>
0

>  <NdsCH>
0

>  <NaaCH>
7

>  <NsssCH>
1

>  <NddC>
0

>  <NtsC>
0

>  <NdssC>
0

>  <NaasC>
5

>  <NaaaC>
0

>  <NssssC>
0

>  <NsNH3>
0

>  <NsNH2>
0

>  <NssNH2>
0

>  <NdNH>
0

>  <NssNH>
0

>  <NaaNH>
0

>  <NtN>
0

>  <NsssNH>
0

>  <NdsN>
0

>  <NaaN>
0

>  <NsssN>
2

>  <NddsN>
0

>  <NaasN>
0

>  <NssssN>
0

>  <NsOH>
0

>  <NdO>
0

>  <NssO>
0

>  <NaaO>
0

>  <NsF>
0

>  <NsSiH3>
0

>  <NssSiH2>
0

>  <NsssSiH>
0

>  <NssssSi>
0

>  <NsPH2>
0

>  <NssPH>
0

>  <NsssP>
0

>  <NdsssP>
0

>  <NsssssP>
0

>  <NsSH>
0

>  <NdS>
0

>  <NssS>
2

>  <NaaS>
0

>  <NdssS>
0

>  <NddssS>
0

>  <NsCl>
0

>  <NsBr>
0

>  <NsI>
0

>  <fragCpx>
177.04

>  <fMF>
0.44

>  <nHBAcc>
4

>  <nHBDon>
0

>  <Kier1>
17.42

>  <Kier2>
7.71

>  <Lipinski>
1

>  <GhoseFilter>
1

>  <FilterItLogS>
-4.91

>  <VMcGowan>
276.08

>  <LabuteASA>
153.16

>  <PEOE_VSA1>
4.9

>  <PEOE_VSA2>
4.9

>  <PEOE_VSA3>
0

>  <PEOE_VSA4>
0

>  <PEOE_VSA5>
11.76

>  <PEOE_VSA6>
29.96

>  <PEOE_VSA7>
55.12

>  <PEOE_VSA8>
46.91

>  <PEOE_VSA9>
0

>  <PEOE_VSA10>
0

>  <PEOE_VSA11>
0

>  <PEOE_VSA12>
0

>  <PEOE_VSA13>
0

>  <SMR_VSA1>
0

>  <SMR_VSA2>
0

>  <SMR_VSA3>
9.8

>  <SMR_VSA4>
0

>  <SMR_VSA5>
27.15

>  <SMR_VSA6>
39.48

>  <SMR_VSA7>
53.59

>  <SMR_VSA8>
0

>  <SMR_VSA9>
0

>  <SlogP_VSA1>
0

>  <SlogP_VSA2>
49.28

>  <SlogP_VSA3>
6.42

>  <SlogP_VSA4>
0

>  <SlogP_VSA5>
17.17

>  <SlogP_VSA6>
57.15

>  <SlogP_VSA7>
0

>  <SlogP_VSA8>
0

>  <SlogP_VSA9>
0

>  <SlogP_VSA10>
0

>  <SlogP_VSA11>
0

>  <EState_VSA1>
0

>  <EState_VSA2>
0

>  <EState_VSA3>
6.04

>  <EState_VSA4>
19.51

>  <EState_VSA5>
38.9

>  <EState_VSA6>
0

>  <EState_VSA7>
23.52

>  <EState_VSA8>
65.57

>  <EState_VSA9>
0

>  <EState_VSA10>
0

>  <VSA_EState1>
0

>  <VSA_EState2>
9.37

>  <VSA_EState3>
0

>  <VSA_EState4>
3.01

>  <VSA_EState5>
0

>  <VSA_EState6>
16.47

>  <VSA_EState7>
3.29

>  <VSA_EState8>
4.67

>  <VSA_EState9>
2.23

>  <apol>
57.4

>  <bpol>
32.42

>  <nRing>
4

>  <nHRing>
2

>  <naRing>
2

>  <naHRing>
0

>  <nARing 2>
2

>  <nAHRing 2>
2

>  <nFRing>
1

>  <nFHRing>
1

>  <nFaRing>
0

>  <nFaHRing>
0

>  <nFARing 2>
1

>  <nFAHRing 2>
1

>  <nRot>
2

>  <SLogP>
4.4

>  <SMR>
104.3

>  <TopoPSA(NO)>
6.48

>  <TopoPSA>
57.08

>  <JGI1>
0.17

>  <JGI2>
0.07

>  <JGI3>
0.03

>  <JGI4>
0.05

>  <JGI5>
0.02

>  <Diameter>
10

>  <Radius>
5

>  <TMWC10>
126.79

>  <TSRW10>
66.91

>  <MW>
356.14

>  <AMW>
7.42

>  <WPath>
1217

>  <WPol>
43

>  <Zagreb1>
130

>  <Zagreb2>
155

>  <mZagreb2>
5.28

>  <yes>


>  <nAR-cont>
1

>  <nHA-cont>
0.94700071

>  <MWHBN>
0.211957903

>  <MWHBN-cont>
0.998776868

>  <TPSA-cont>
0.601546155

>  <pka_cont>
0.97

>  <yes.1>


>  <BBB_SCORE>
5.133258323

>  <MMFF94 Energy>
130.2

$$$$
Compound 1582
Actelion Java MolfileCreator 2.0

  0  0  0  0  0  0              0 V3000
M  V30 BEGIN CTAB
M  V30 COUNTS 36 38 0 0 0
M  V30 BEGIN ATOM
M  V30 1 S 0.7614 3.8964 -3.7268 0
M  V30 2 O 0.6985 5.3801 -3.5139 0
M  V30 3 C 1.9912 3.2308 -2.5369 0
M  V30 4 C -0.6361 3.1526 -2.8103 0
M  V30 5 C 1.2798 2.1344 -1.7535 0
M  V30 6 C -0.1041 2.7015 -1.4612 0
M  V30 7 S 2.2145 1.7192 -0.2459 0
M  V30 8 C 1.4076 0.2855 0.2675 0
M  V30 9 S 1.6566 -1.235 -0.5826 0
M  V30 10 C 0.5644 0.1514 1.3079 0
M  V30 11 C 0.7637 -2.1653 0.7194 0 CFG=1
M  V30 12 N 0.1061 -1.1313 1.5191 0
M  V30 13 C 0.0616 1.2527 2.1612 0
M  V30 14 C -0.6463 -2.69 0.3629 0 CFG=2
M  V30 15 C -1.164 -1.5351 1.2428 0
M  V30 16 O -0.0582 2.4253 1.8598 0
M  V30 17 O -0.2787 0.8107 3.3876 0
M  V30 18 C -1.0244 -4.099 0.7982 0 CFG=2
M  V30 19 O -2.246 -1.0634 1.5005 0
M  V30 20 O -2.3536 -4.378 0.3579 0
M  V30 21 C -0.9417 -4.3412 2.2988 0
M  V30 22 H 2.3077 4.0656 -1.9015 0
M  V30 23 H 2.8521 2.8572 -3.0985 0
M  V30 24 H -1.4496 3.877 -2.7194 0
M  V30 25 H -0.9841 2.2973 -3.3982 0
M  V30 26 H 1.1933 1.2413 -2.3847 0
M  V30 27 H -0.0442 3.5611 -0.7811 0
M  V30 28 H -0.7772 1.9631 -1.0135 0
M  V30 29 H 1.3972 -2.8239 1.3209 0
M  V30 30 H -0.9111 -2.5396 -0.6938 0
M  V30 31 H -0.6359 1.6048 3.8371 0
M  V30 32 H -0.3721 -4.8161 0.2878 0
M  V30 33 H -2.9755 -3.8178 0.8601 0
M  V30 34 H 0.0655 -4.1685 2.6872 0
M  V30 35 H -1.6393 -3.7009 2.8495 0
M  V30 36 H -1.2265 -5.3739 2.529 0
M  V30 END ATOM
M  V30 BEGIN BOND
M  V30 1 2 1 2
M  V30 2 1 1 3
M  V30 3 1 1 4
M  V30 4 1 3 5
M  V30 5 1 4 6
M  V30 6 1 5 7
M  V30 7 1 7 8
M  V30 8 1 8 9
M  V30 9 2 8 10
M  V30 10 1 9 11
M  V30 11 1 10 12
M  V30 12 1 10 13
M  V30 13 1 11 14
M  V30 14 1 12 15
M  V30 15 2 13 16
M  V30 16 1 13 17
M  V30 17 1 14 18
M  V30 18 2 15 19
M  V30 19 1 18 20
M  V30 20 1 18 21
M  V30 21 1 5 6
M  V30 22 1 11 12
M  V30 23 1 14 15
M  V30 24 1 3 22
M  V30 25 1 3 23
M  V30 26 1 4 24
M  V30 27 1 4 25
M  V30 28 1 5 26
M  V30 29 1 6 27
M  V30 30 1 6 28
M  V30 31 1 11 29
M  V30 32 1 14 30
M  V30 33 1 17 31
M  V30 34 1 18 32
M  V30 35 1 20 33
M  V30 36 1 21 34
M  V30 37 1 21 35
M  V30 38 1 21 36
M  V30 END BOND
M  V30 BEGIN COLLECTION
M  V30 MDLV30/STEABS ATOMS=(3 11 14 18)
M  V30 END COLLECTION
M  V30 END CTAB
M  END
>  <Column 1>
1921

>  <level_0>
2087

>  <index>
2087

>  <Unnamed: 0>
2087

>  <NO.>
2099

>  <Name>
sulopenem

>  <IUPAC_name>
(5r-6s)-6-[(1r)-1-hydroxyethyl]-7-oxo-3-(1-oxothiolan-3-yl)sulfanyl-4-thia-1-azabicyclo[3.2.0]hept-2-ene-2-carboxylic acid

>  <SMILES>
C[C@@H](O)[C@H]1C(=O)N2C(C(=O)O)=C(SC3CC[S+]([O-])C3)S[C@H]12

>  <CID>
71341

>  <logBB>


>  <BBB+/BBB->
BBB-

>  <Inchi>
InChI=1S/C12H15NO5S3/c1-5(14)7-9(15)13-8(11(16)17)12(20-10(7)13)19-6-2-3-21(18)4-6/h5-7-10-14H-2-4H2-1H3-(H-16-17)/t5--6?-7+-10--21?/m1/s1

>  <threshold>
-1

>  <reference>
R1|R27|R30|

>  <group>
B

>  <Class>
-1

>  <ABC>
16.6

>  <ABCGG>
14.91

>  <nAcid>
1

>  <nBase>
0

>  <nAromAtom>
0

>  <nAromBond>
0

>  <nAtom>
36

>  <nHeavyAtom>
21

>  <nSpiro>
0

>  <nBridgehead>
0

>  <nHetero>
9

>  <nN>
1

>  <nO>
5

>  <nF>
0

>  <BalabanJ>
1.69

>  <BertzCT>
523.02

>  <nBonds>
38

>  <nBondsO>
23

>  <nBondsS>
35

>  <nBondsD>
3

>  <nBondsT>
0

>  <nBondsA>
0

>  <nBondsM>
3

>  <nBondsKS>
35

>  <nBondsKD>
3

>  <RNCG>
0.24

>  <RPCG>
0.14

>  <FCSP3>
0.67

>  <SZ>
30.33

>  <Sm>
29.09

>  <Sv>
23.96

>  <Sse>
37.21

>  <Sp>
26.26

>  <Si>
40.21

>  <MZ>
0.84

>  <Mm>
0.81

>  <Mv>
0.67

>  <Mse>
1.03

>  <Mp>
0.73

>  <Mi>
1.12

>  <NsCH3>
1

>  <NdCH2>
0

>  <NssCH2>
3

>  <NtCH>
0

>  <NdsCH>
0

>  <NaaCH>
0

>  <NsssCH>
4

>  <NddC>
0

>  <NtsC>
0

>  <NdssC>
4

>  <NaasC>
0

>  <NaaaC>
0

>  <NssssC>
0

>  <NsNH3>
0

>  <NsNH2>
0

>  <NssNH2>
0

>  <NdNH>
0

>  <NssNH>
0

>  <NaaNH>
0

>  <NtN>
0

>  <NsssNH>
0

>  <NdsN>
0

>  <NaaN>
0

>  <NsssN>
1

>  <NddsN>
0

>  <NaasN>
0

>  <NssssN>
0

>  <NsOH>
2

>  <NdO>
2

>  <NssO>
0

>  <NaaO>
0

>  <NsF>
0

>  <NsSiH3>
0

>  <NssSiH2>
0

>  <NsssSiH>
0

>  <NssssSi>
0

>  <NsPH2>
0

>  <NssPH>
0

>  <NsssP>
0

>  <NdsssP>
0

>  <NsssssP>
0

>  <NsSH>
0

>  <NdS>
0

>  <NssS>
2

>  <NaaS>
0

>  <NdssS>
0

>  <NddssS>
0

>  <NsCl>
0

>  <NsBr>
0

>  <NsI>
0

>  <fragCpx>
109.09

>  <fMF>
0.36

>  <nHBAcc>
6

>  <nHBDon>
2

>  <Kier1>
15.88

>  <Kier2>
5.89

>  <Lipinski>
1

>  <GhoseFilter>
1

>  <FilterItLogS>
-0.46

>  <VMcGowan>
222.84

>  <LabuteASA>
133.06

>  <PEOE_VSA1>
14.77

>  <PEOE_VSA2>
9.69

>  <PEOE_VSA3>
4.79

>  <PEOE_VSA4>
0

>  <PEOE_VSA5>
11.76

>  <PEOE_VSA6>
22.94

>  <PEOE_VSA7>
6.92

>  <PEOE_VSA8>
6.42

>  <PEOE_VSA9>
21.51

>  <PEOE_VSA10>
16.88

>  <PEOE_VSA11>
5.7

>  <PEOE_VSA12>
5.91

>  <PEOE_VSA13>
0

>  <SMR_VSA1>
24.35

>  <SMR_VSA2>
0

>  <SMR_VSA3>
4.9

>  <SMR_VSA4>
5.92

>  <SMR_VSA5>
30.07

>  <SMR_VSA6>
11.51

>  <SMR_VSA7>
9.93

>  <SMR_VSA8>
0

>  <SMR_VSA9>
0

>  <SlogP_VSA1>
0

>  <SlogP_VSA2>
59.78

>  <SlogP_VSA3>
20.76

>  <SlogP_VSA4>
5.92

>  <SlogP_VSA5>
13.34

>  <SlogP_VSA6>
9.93

>  <SlogP_VSA7>
0

>  <SlogP_VSA8>
0

>  <SlogP_VSA9>
0

>  <SlogP_VSA10>
0

>  <SlogP_VSA11>
0

>  <EState_VSA1>
29.17

>  <EState_VSA2>
22.23

>  <EState_VSA3>
15.74

>  <EState_VSA4>
6.42

>  <EState_VSA5>
28.42

>  <EState_VSA6>
6.92

>  <EState_VSA7>
0

>  <EState_VSA8>
0

>  <EState_VSA9>
0

>  <EState_VSA10>
24.35

>  <VSA_EState1>
12.04

>  <VSA_EState2>
24.77

>  <VSA_EState3>
18.84

>  <VSA_EState4>
0.02

>  <VSA_EState5>
-0.77

>  <VSA_EState6>
0

>  <VSA_EState7>
0.01

>  <VSA_EState8>
1.55

>  <VSA_EState9>
0

>  <apol>
43.85

>  <bpol>
27.97

>  <nRing>
3

>  <nHRing>
3

>  <naRing>
0

>  <naHRing>
0

>  <nARing 2>
3

>  <nAHRing 2>
3

>  <nFRing>
1

>  <nFHRing>
1

>  <nFaRing>
0

>  <nFaHRing>
0

>  <nFARing 2>
1

>  <nFAHRing 2>
1

>  <nRot>
4

>  <SLogP>
0.41

>  <SMR>
81.93

>  <TopoPSA(NO)>
100.9

>  <TopoPSA>
151.5

>  <JGI1>
0.22

>  <JGI2>
0.07

>  <JGI3>
0.1

>  <JGI4>
0.05

>  <JGI5>
0.04

>  <Diameter>
10

>  <Radius>
5

>  <TMWC10>
120.25

>  <TSRW10>
72.14

>  <MW>
349.01

>  <AMW>
9.69

>  <WPath>
901

>  <WPol>
31

>  <Zagreb1>
116

>  <Zagreb2>
142

>  <mZagreb2>
4.47

>  <yes>


>  <nAR-cont>
0.691115

>  <nHA-cont>
0.994529749

>  <MWHBN>
0.428224047

>  <MWHBN-cont>
0.366451704

>  <TPSA-cont>
0

>  <pka_cont>
0.97

>  <yes.1>


>  <BBB_SCORE>
2.720322306

>  <MMFF94 Energy>
3.8066

$$$$
Compound 1583
Actelion Java MolfileCreator 2.0

  0  0  0  0  0  0              0 V3000
M  V30 BEGIN CTAB
M  V30 COUNTS 34 36 0 0 0
M  V30 BEGIN ATOM
M  V30 1 S -0.7361 -0.9815 0.5725 0
M  V30 2 C -0.6033 -0.1301 -0.9753 0
M  V30 3 C 0.6552 -0.0319 1.2832 0 CFG=1
M  V30 4 C 0.2664 0.901 -0.8975 0
M  V30 5 C -1.4319 -0.549 -2.1735 0 CFG=2
M  V30 6 N 0.8879 1.0468 0.3227 0
M  V30 7 C 0.2882 1.054 2.3196 0 CFG=2
M  V30 8 C 0.6217 1.8694 -1.9644 0
M  V30 9 O -2.4755 -1.4746 -1.794 0
M  V30 10 C -0.6154 -1.2605 -3.249 0
M  V30 11 C 0.6203 2.058 1.1967 0
M  V30 12 C 1.1346 1.178 3.576 0 CFG=2
M  V30 13 O 1.631 2.5522 -1.998 0
M  V30 14 O -0.2775 1.9494 -2.9581 0
M  V30 15 C -2.2276 -2.7421 -2.4146 0
M  V30 16 C -0.7983 -2.7173 -2.9038 0
M  V30 17 O 0.5078 3.254 1.0539 0
M  V30 18 O 2.5117 0.9987 3.2611 0
M  V30 19 C 0.7287 0.1195 4.5916 0
M  V30 20 H 1.5575 -0.6199 1.4773 0
M  V30 21 H -1.9496 0.3223 -2.585 0
M  V30 22 H -0.7817 1.106 2.5701 0
M  V30 23 H 0.4354 -0.9605 -3.2971 0
M  V30 24 H -1.0613 -1.0643 -4.2323 0
M  V30 25 H 1.0088 2.1751 4.0135 0
M  V30 26 H 0.0913 2.6572 -3.5295 0
M  V30 27 H -2.4138 -3.547 -1.698 0
M  V30 28 H -2.9296 -2.8485 -3.2486 0
M  V30 29 H -0.6251 -3.3922 -3.7461 0
M  V30 30 H -0.1159 -2.9994 -2.0939 0
M  V30 31 H 3.03 1.2594 4.0445 0
M  V30 32 H -0.3252 0.2177 4.87 0
M  V30 33 H 0.8859 -0.889 4.1932 0
M  V30 34 H 1.3397 0.2011 5.4969 0
M  V30 END ATOM
M  V30 BEGIN BOND
M  V30 1 1 1 2
M  V30 2 1 1 3
M  V30 3 2 2 4
M  V30 4 1 2 5
M  V30 5 1 3 6
M  V30 6 1 3 7
M  V30 7 1 4 8
M  V30 8 1 5 9
M  V30 9 1 5 10
M  V30 10 1 6 11
M  V30 11 1 7 12
M  V30 12 2 8 13
M  V30 13 1 8 14
M  V30 14 1 9 15
M  V30 15 1 10 16
M  V30 16 2 11 17
M  V30 17 1 12 18
M  V30 18 1 12 19
M  V30 19 1 4 6
M  V30 20 1 7 11
M  V30 21 1 15 16
M  V30 22 1 3 20
M  V30 23 1 5 21
M  V30 24 1 7 22
M  V30 25 1 10 23
M  V30 26 1 10 24
M  V30 27 1 12 25
M  V30 28 1 14 26
M  V30 29 1 15 27
M  V30 30 1 15 28
M  V30 31 1 16 29
M  V30 32 1 16 30
M  V30 33 1 18 31
M  V30 34 1 19 32
M  V30 35 1 19 33
M  V30 36 1 19 34
M  V30 END BOND
M  V30 BEGIN COLLECTION
M  V30 MDLV30/STEABS ATOMS=(4 3 5 7 12)
M  V30 END COLLECTION
M  V30 END CTAB
M  END
>  <Column 1>
1922

>  <level_0>
2088

>  <index>
2088

>  <Unnamed: 0>
2088

>  <NO.>
2100

>  <Name>
faropenem

>  <IUPAC_name>
(5r-6s)-6-[(1r)-1-hydroxyethyl]-7-oxo-3-[(2r)-oxolan-2-yl]-4-thia-1-azabicyclo[3.2.0]hept-2-ene-2-carboxylic acid

>  <SMILES>
C[C@@H](O)[C@H]1C(=O)N2C(C(=O)O)=C([C@H]3CCCO3)S[C@H]12

>  <CID>
65894

>  <logBB>


>  <BBB+/BBB->
BBB-

>  <Inchi>
InChI=1S/C12H15NO5S/c1-5(14)7-10(15)13-8(12(16)17)9(19-11(7)13)6-3-2-4-18-6/h5-7-11-14H-2-4H2-1H3-(H-16-17)/t5--6--7+-11-/m1/s1

>  <threshold>
-1

>  <reference>
R1|R6|R27|R30|

>  <group>
B

>  <Class>
1

>  <ABC>
15.03

>  <ABCGG>
13.94

>  <nAcid>
1

>  <nBase>
0

>  <nAromAtom>
0

>  <nAromBond>
0

>  <nAtom>
34

>  <nHeavyAtom>
19

>  <nSpiro>
0

>  <nBridgehead>
0

>  <nHetero>
7

>  <nN>
1

>  <nO>
5

>  <nF>
0

>  <BalabanJ>
1.79

>  <BertzCT>
468.74

>  <nBonds>
36

>  <nBondsO>
21

>  <nBondsS>
33

>  <nBondsD>
3

>  <nBondsT>
0

>  <nBondsA>
0

>  <nBondsM>
3

>  <nBondsKS>
33

>  <nBondsKD>
3

>  <RNCG>
0.21

>  <RPCG>
0.16

>  <FCSP3>
0.67

>  <SZ>
25

>  <Sm>
23.75

>  <Sv>
21.58

>  <Sse>
35.05

>  <Sp>
22.79

>  <Si>
38.37

>  <MZ>
0.74

>  <Mm>
0.7

>  <Mv>
0.63

>  <Mse>
1.03

>  <Mp>
0.67

>  <Mi>
1.13

>  <NsCH3>
1

>  <NdCH2>
0

>  <NssCH2>
3

>  <NtCH>
0

>  <NdsCH>
0

>  <NaaCH>
0

>  <NsssCH>
4

>  <NddC>
0

>  <NtsC>
0

>  <NdssC>
4

>  <NaasC>
0

>  <NaaaC>
0

>  <NssssC>
0

>  <NsNH3>
0

>  <NsNH2>
0

>  <NssNH2>
0

>  <NdNH>
0

>  <NssNH>
0

>  <NaaNH>
0

>  <NtN>
0

>  <NsssNH>
0

>  <NdsN>
0

>  <NaaN>
0

>  <NsssN>
1

>  <NddsN>
0

>  <NaasN>
0

>  <NssssN>
0

>  <NsOH>
2

>  <NdO>
2

>  <NssO>
1

>  <NaaO>
0

>  <NsF>
0

>  <NsSiH3>
0

>  <NssSiH2>
0

>  <NsssSiH>
0

>  <NssssSi>
0

>  <NsPH2>
0

>  <NssPH>
0

>  <NsssP>
0

>  <NdsssP>
0

>  <NsssssP>
0

>  <NsSH>
0

>  <NdS>
0

>  <NssS>
1

>  <NaaS>
0

>  <NdssS>
0

>  <NddssS>
0

>  <NsCl>
0

>  <NsBr>
0

>  <NsI>
0

>  <fragCpx>
99.07

>  <fMF>
0.35

>  <nHBAcc>
5

>  <nHBDon>
2

>  <Kier1>
13.96

>  <Kier2>
5.08

>  <Lipinski>
1

>  <GhoseFilter>
1

>  <FilterItLogS>
0.04

>  <VMcGowan>
190.14

>  <LabuteASA>
113.95

>  <PEOE_VSA1>
14.95

>  <PEOE_VSA2>
9.69

>  <PEOE_VSA3>
4.79

>  <PEOE_VSA4>
0

>  <PEOE_VSA5>
0

>  <PEOE_VSA6>
11.76

>  <PEOE_VSA7>
19.77

>  <PEOE_VSA8>
11.51

>  <PEOE_VSA9>
18.13

>  <PEOE_VSA10>
11.07

>  <PEOE_VSA11>
0

>  <PEOE_VSA12>
5.91

>  <PEOE_VSA13>
0

>  <SMR_VSA1>
24.54

>  <SMR_VSA2>
0

>  <SMR_VSA3>
4.9

>  <SMR_VSA4>
5.92

>  <SMR_VSA5>
37.35

>  <SMR_VSA6>
6.61

>  <SMR_VSA7>
10.6

>  <SMR_VSA8>
0

>  <SMR_VSA9>
0

>  <SlogP_VSA1>
0

>  <SlogP_VSA2>
51.18

>  <SlogP_VSA3>
14.33

>  <SlogP_VSA4>
5.92

>  <SlogP_VSA5>
19.77

>  <SlogP_VSA6>
10.6

>  <SlogP_VSA7>
0

>  <SlogP_VSA8>
0

>  <SlogP_VSA9>
0

>  <SlogP_VSA10>
0

>  <SlogP_VSA11>
0

>  <EState_VSA1>
17.99

>  <EState_VSA2>
23.08

>  <EState_VSA3>
11.51

>  <EState_VSA4>
12.84

>  <EState_VSA5>
16.66

>  <EState_VSA6>
6.92

>  <EState_VSA7>
0

>  <EState_VSA8>
0

>  <EState_VSA9>
4.74

>  <EState_VSA10>
19.8

>  <VSA_EState1>
5.53

>  <VSA_EState2>
25.3

>  <VSA_EState3>
18.64

>  <VSA_EState4>
0.05

>  <VSA_EState5>
-1.92

>  <VSA_EState6>
0

>  <VSA_EState7>
0.71

>  <VSA_EState8>
2.19

>  <VSA_EState9>
0

>  <apol>
38.05

>  <bpol>
22.69

>  <nRing>
3

>  <nHRing>
3

>  <naRing>
0

>  <naHRing>
0

>  <nARing 2>
3

>  <nAHRing 2>
3

>  <nFRing>
1

>  <nFHRing>
1

>  <nFaRing>
0

>  <nFaHRing>
0

>  <nFARing 2>
1

>  <nFAHRing 2>
1

>  <nRot>
3

>  <SLogP>
0.37

>  <SMR>
67.03

>  <TopoPSA(NO)>
87.07

>  <TopoPSA>
112.37

>  <JGI1>
0.17

>  <JGI2>
0.07

>  <JGI3>
0.09

>  <JGI4>
0.06

>  <JGI5>
0.04

>  <Diameter>
8

>  <Radius>
4

>  <TMWC10>
115.91

>  <TSRW10>
69.7

>  <MW>
285.07

>  <AMW>
8.38

>  <WPath>
645

>  <WPol>
29

>  <Zagreb1>
106

>  <Zagreb2>
132

>  <mZagreb2>
4.08

>  <yes>


>  <nAR-cont>
0.691115

>  <nHA-cont>
0.998649058

>  <MWHBN>
0.414593303

>  <MWHBN-cont>
0.418911141

>  <TPSA-cont>
0.215587622

>  <pka_cont>
0.97

>  <yes.1>


>  <BBB_SCORE>
3.234306015

>  <MMFF94 Energy>
11.906

$$$$
Compound 1584
Actelion Java MolfileCreator 2.0

  0  0  0  0  0  0              0 V3000
M  V30 BEGIN CTAB
M  V30 COUNTS 56 59 0 0 0
M  V30 BEGIN ATOM
M  V30 1 Cl 0.3263 -2.6128 0.2447 0
M  V30 2 C 0.8528 -0.9621 0.8909 0 CFG=2
M  V30 3 C 2.2312 -1.1736 1.6838 0
M  V30 4 C -0.3397 -0.4005 1.761 0
M  V30 5 C 1.0724 0.0061 -0.3456 0
M  V30 6 C 3.3405 -1.5571 0.6777 0
M  V30 7 C 2.133 -2.2217 2.795 0
M  V30 8 C 2.6773 0.1212 2.4099 0
M  V30 9 O -0.6978 -1.2757 2.8305 0
M  V30 10 C -1.6225 -0.0883 0.9492 0
M  V30 11 C -0.2454 0.2279 -1.1056 0
M  V30 12 C 2.202 -0.468 -1.2712 0
M  V30 13 C 4.1053 -2.6586 0.7975 0
M  V30 14 C 3.51 -0.6455 -0.5108 0 CFG=2
M  V30 15 C 2.8999 -3.3146 2.9049 0
M  V30 16 C -1.3481 0.8588 -0.2263 0
M  V30 17 C -0.2477 1.0984 -2.3608 0
M  V30 18 C 3.9528 -3.6067 1.9175 0
M  V30 19 F 4.4322 -1.1327 -1.3895 0
M  V30 20 C -2.4759 0.95 -1.285 0
M  V30 21 C -0.9891 2.2657 0.3232 0
M  V30 22 C -1.7415 1.4562 -2.5624 0 CFG=2
M  V30 23 O 4.6746 -4.5892 2.0265 0
M  V30 24 C -3.6574 1.8274 -0.8877 0
M  V30 25 C -2.3182 0.8277 -3.8275 0
M  V30 26 O -3.6659 3.0501 -1.0476 0
M  V30 27 C -4.8617 1.1214 -0.2747 0
M  V30 28 O -5.738 2.0413 0.3563 0
M  V30 29 H -0.0117 0.5264 2.2407 0
M  V30 30 H 1.3945 0.9806 0.0378 0
M  V30 31 H 1.3874 -2.0644 3.5712 0
M  V30 32 H 2.7277 0.9877 1.7445 0
M  V30 33 H 1.9993 0.383 3.2307 0
M  V30 34 H 3.6756 0.0041 2.8521 0
M  V30 35 H -1.4819 -0.9145 3.2803 0
M  V30 36 H -2.0722 -1.0254 0.5968 0
M  V30 37 H -2.3751 0.3461 1.6201 0
M  V30 38 H -0.595 -0.7571 -1.4487 0
M  V30 39 H 2.3715 0.263 -2.071 0
M  V30 40 H 1.9353 -1.4005 -1.7832 0
M  V30 41 H 4.8705 -2.9208 0.074 0
M  V30 42 H 3.8873 0.3269 -0.1775 0
M  V30 43 H 2.788 -4.0242 3.7157 0
M  V30 44 H 0.1776 0.5716 -3.2215 0
M  V30 45 H 0.3427 2.0093 -2.2093 0
M  V30 46 H -2.8768 -0.054 -1.4846 0
M  V30 47 H -0.0731 2.2698 0.919 0
M  V30 48 H -0.8495 3.0063 -0.4701 0
M  V30 49 H -1.7867 2.6396 0.9758 0
M  V30 50 H -1.826 2.5447 -2.6678 0
M  V30 51 H -2.2234 -0.2632 -3.811 0
M  V30 52 H -3.3793 1.0759 -3.9343 0
M  V30 53 H -1.7937 1.1977 -4.7146 0
M  V30 54 H -5.406 0.6016 -1.0677 0
M  V30 55 H -4.5298 0.4014 0.4761 0
M  V30 56 H -5.6374 2.8882 -0.1245 0
M  V30 END ATOM
M  V30 BEGIN BOND
M  V30 1 1 1 2
M  V30 2 1 2 3
M  V30 3 1 2 4
M  V30 4 1 2 5
M  V30 5 1 3 6
M  V30 6 1 3 7
M  V30 7 1 3 8
M  V30 8 1 4 9
M  V30 9 1 4 10
M  V30 10 1 5 11
M  V30 11 1 5 12
M  V30 12 2 6 13
M  V30 13 1 6 14
M  V30 14 2 7 15
M  V30 15 1 10 16
M  V30 16 1 11 17
M  V30 17 1 13 18
M  V30 18 1 14 19
M  V30 19 1 16 20
M  V30 20 1 16 21
M  V30 21 1 17 22
M  V30 22 2 18 23
M  V30 23 1 20 24
M  V30 24 1 22 25
M  V30 25 2 24 26
M  V30 26 1 24 27
M  V30 27 1 27 28
M  V30 28 1 11 16
M  V30 29 1 12 14
M  V30 30 1 15 18
M  V30 31 1 20 22
M  V30 32 1 4 29
M  V30 33 1 5 30
M  V30 34 1 7 31
M  V30 35 1 8 32
M  V30 36 1 8 33
M  V30 37 1 8 34
M  V30 38 1 9 35
M  V30 39 1 10 36
M  V30 40 1 10 37
M  V30 41 1 11 38
M  V30 42 1 12 39
M  V30 43 1 12 40
M  V30 44 1 13 41
M  V30 45 1 14 42
M  V30 46 1 15 43
M  V30 47 1 17 44
M  V30 48 1 17 45
M  V30 49 1 20 46
M  V30 50 1 21 47
M  V30 51 1 21 48
M  V30 52 1 21 49
M  V30 53 1 22 50
M  V30 54 1 25 51
M  V30 55 1 25 52
M  V30 56 1 25 53
M  V30 57 1 27 54
M  V30 58 1 27 55
M  V30 59 1 28 56
M  V30 END BOND
M  V30 BEGIN COLLECTION
M  V30 MDLV30/STEABS ATOMS=(3 2 14 22)
M  V30 END COLLECTION
M  V30 END CTAB
M  END
>  <Column 1>
1923

>  <level_0>
2090

>  <index>
2090

>  <Unnamed: 0>
2090

>  <NO.>
2102

>  <Name>
chembl63427

>  <IUPAC_name>
(6s-9r-16r)-9-chloro-6-fluoro-11-hydroxy-17-(2-hydroxyacetyl)-10-13-16-trimethyl-7-8-11-12-14-15-16-17-octahydro-6h-cyclopenta[a]phenanthren-3-one

>  <SMILES>
C[C@@H]1CC2C3C[C@H](F)C4=CC(=O)C=CC4(C)[C@@]3(Cl)C(O)CC2(C)C1C(=O)CO

>  <CID>
20969

>  <logBB>


>  <BBB+/BBB->
BBB+

>  <Inchi>
InChI=1S/C22H28ClFO4/c1-11-6-13-14-8-16(24)15-7-12(26)4-5-21(15-3)22(14-23)18(28)9-20(13-2)19(11)17(27)10-25/h4-5-7-11-13-14-16-18-19-25-28H-6-8-10H2-1-3H3/t11--13?-14?-16+-18?-19?-20?-21?-22+/m1/s1

>  <threshold>
-1

>  <reference>
R1|R27|R30|

>  <group>
B

>  <Class>
1

>  <ABC>
22.38

>  <ABCGG>
18.82

>  <nAcid>
0

>  <nBase>
0

>  <nAromAtom>
0

>  <nAromBond>
0

>  <nAtom>
56

>  <nHeavyAtom>
28

>  <nSpiro>
0

>  <nBridgehead>
0

>  <nHetero>
6

>  <nN>
0

>  <nO>
4

>  <nF>
1

>  <BalabanJ>
1.77

>  <BertzCT>
793.41

>  <nBonds>
59

>  <nBondsO>
31

>  <nBondsS>
55

>  <nBondsD>
4

>  <nBondsT>
0

>  <nBondsA>
0

>  <nBondsM>
4

>  <nBondsKS>
55

>  <nBondsKD>
4

>  <RNCG>
0.18

>  <RPCG>
0.1

>  <FCSP3>
0.73

>  <SZ>
36.33

>  <Sm>
34.21

>  <Sv>
34.18

>  <Sse>
56.47

>  <Sp>
36.74

>  <Si>
63.35

>  <MZ>
0.65

>  <Mm>
0.61

>  <Mv>
0.61

>  <Mse>
1.01

>  <Mp>
0.66

>  <Mi>
1.13

>  <NsCH3>
3

>  <NdCH2>
0

>  <NssCH2>
4

>  <NtCH>
0

>  <NdsCH>
3

>  <NaaCH>
0

>  <NsssCH>
6

>  <NddC>
0

>  <NtsC>
0

>  <NdssC>
3

>  <NaasC>
0

>  <NaaaC>
0

>  <NssssC>
3

>  <NsNH3>
0

>  <NsNH2>
0

>  <NssNH2>
0

>  <NdNH>
0

>  <NssNH>
0

>  <NaaNH>
0

>  <NtN>
0

>  <NsssNH>
0

>  <NdsN>
0

>  <NaaN>
0

>  <NsssN>
0

>  <NddsN>
0

>  <NaasN>
0

>  <NssssN>
0

>  <NsOH>
2

>  <NdO>
2

>  <NssO>
0

>  <NaaO>
0

>  <NsF>
1

>  <NsSiH3>
0

>  <NssSiH2>
0

>  <NsssSiH>
0

>  <NssssSi>
0

>  <NsPH2>
0

>  <NssPH>
0

>  <NsssP>
0

>  <NdsssP>
0

>  <NsssssP>
0

>  <NsSH>
0

>  <NdS>
0

>  <NssS>
0

>  <NaaS>
0

>  <NdssS>
0

>  <NddssS>
0

>  <NsCl>
1

>  <NsBr>
0

>  <NsI>
0

>  <fragCpx>
205.06

>  <fMF>
0.3

>  <nHBAcc>
4

>  <nHBDon>
2

>  <Kier1>
21.24

>  <Kier2>
6.75

>  <Lipinski>
1

>  <GhoseFilter>
1

>  <FilterItLogS>
-3.52

>  <VMcGowan>
297.68

>  <LabuteASA>
169.38

>  <PEOE_VSA1>
10.21

>  <PEOE_VSA2>
9.59

>  <PEOE_VSA3>
4.39

>  <PEOE_VSA4>
0

>  <PEOE_VSA5>
11.6

>  <PEOE_VSA6>
26.85

>  <PEOE_VSA7>
60.16

>  <PEOE_VSA8>
11.33

>  <PEOE_VSA9>
10.98

>  <PEOE_VSA10>
12.78

>  <PEOE_VSA11>
11.57

>  <PEOE_VSA12>
0

>  <PEOE_VSA13>
0

>  <SMR_VSA1>
24.19

>  <SMR_VSA2>
0

>  <SMR_VSA3>
0

>  <SMR_VSA4>
34.5

>  <SMR_VSA5>
57.18

>  <SMR_VSA6>
6.61

>  <SMR_VSA7>
23.8

>  <SMR_VSA8>
0

>  <SMR_VSA9>
0

>  <SlogP_VSA1>
0

>  <SlogP_VSA2>
45.54

>  <SlogP_VSA3>
9.59

>  <SlogP_VSA4>
34.5

>  <SlogP_VSA5>
40.03

>  <SlogP_VSA6>
23.8

>  <SlogP_VSA7>
0

>  <SlogP_VSA8>
0

>  <SlogP_VSA9>
0

>  <SlogP_VSA10>
4.39

>  <SlogP_VSA11>
0

>  <EState_VSA1>
34.59

>  <EState_VSA2>
41.66

>  <EState_VSA3>
18.41

>  <EState_VSA4>
0

>  <EState_VSA5>
12.15

>  <EState_VSA6>
6.08

>  <EState_VSA7>
20.77

>  <EState_VSA8>
0

>  <EState_VSA9>
11.6

>  <EState_VSA10>
19.8

>  <VSA_EState1>
15.31

>  <VSA_EState2>
23.27

>  <VSA_EState3>
20.8

>  <VSA_EState4>
-1.15

>  <VSA_EState5>
-1.18

>  <VSA_EState6>
0

>  <VSA_EState7>
3.31

>  <VSA_EState8>
5.27

>  <VSA_EState9>
0

>  <apol>
61.36

>  <bpol>
31.45

>  <nRing>
4

>  <nHRing>
0

>  <naRing>
0

>  <naHRing>
0

>  <nARing 2>
4

>  <nAHRing 2>
0

>  <nFRing>
1

>  <nFHRing>
0

>  <nFaRing>
0

>  <nFaHRing>
0

>  <nFARing 2>
1

>  <nFAHRing 2>
0

>  <nRot>
2

>  <SLogP>
3

>  <SMR>
103.51

>  <TopoPSA(NO)>
74.6

>  <TopoPSA>
74.6

>  <JGI1>
0.31

>  <JGI2>
0.14

>  <JGI3>
0.08

>  <JGI4>
0.06

>  <JGI5>
0.04

>  <Diameter>
12

>  <Radius>
6

>  <TMWC10>
140.29

>  <TSRW10>
79.62

>  <MW>
410.17

>  <AMW>
7.32

>  <WPath>
1674

>  <WPol>
66

>  <Zagreb1>
166

>  <Zagreb2>
215

>  <mZagreb2>
5.84

>  <yes>


>  <nAR-cont>
0.199399

>  <nHA-cont>
0.82432561

>  <MWHBN>
0.296257466

>  <MWHBN-cont>
0.85177444

>  <TPSA-cont>
0.479245676

>  <pka_cont>
0.97

>  <yes.1>


>  <BBB_SCORE>
3.744877622

>  <MMFF94 Energy>
139.35

$$$$
Compound 1585
Actelion Java MolfileCreator 2.0

  0  0  0  0  0  0              0 V3000
M  V30 BEGIN CTAB
M  V30 COUNTS 70 73 0 0 0
M  V30 BEGIN ATOM
M  V30 1 Cl -0.324 2.4326 -0.7293 0
M  V30 2 C -1.6565 1.4795 0.1351 0 CFG=2
M  V30 3 C -2.8108 2.5155 0.5381 0
M  V30 4 C -0.9548 0.7625 1.3455 0
M  V30 5 C -2.2255 0.3905 -0.8604 0
M  V30 6 C -3.4671 3.0512 -0.7531 0
M  V30 7 C -2.306 3.6705 1.4056 0
M  V30 8 C -3.9164 1.8461 1.3945 0
M  V30 9 O -0.2334 1.6733 2.1787 0
M  V30 10 C 0.0368 -0.3559 0.9448 0
M  V30 11 C -1.1442 -0.6393 -1.2227 0
M  V30 12 C -2.8748 1.0192 -2.1031 0
M  V30 13 C -3.5602 4.361 -1.0507 0
M  V30 14 C -3.9681 2.0136 -1.7271 0 CFG=2
M  V30 15 C -2.4055 4.9712 1.1003 0
M  V30 16 C -0.5947 -1.3957 0.0098 0
M  V30 17 C -1.4905 -1.7533 -2.2056 0
M  V30 18 C -3.0417 5.4119 -0.1538 0
M  V30 19 F -4.4157 2.5861 -2.8811 0
M  V30 20 C 0.3997 -2.3464 -0.7055 0
M  V30 21 C -1.6629 -2.209 0.7855 0
M  V30 22 C -0.3874 -2.8117 -1.9725 0 CFG=2
M  V30 23 O -3.1403 6.5991 -0.4345 0
M  V30 24 C 0.9148 -3.5188 0.1367 0
M  V30 25 C 0.533 -2.9591 -3.1809 0
M  V30 26 O 0.4661 -4.6599 0.0032 0
M  V30 27 C 1.9534 -3.2258 1.2104 0
M  V30 28 O 2.8927 -2.2549 0.7555 0
M  V30 29 C 3.7765 -1.8495 1.7119 0
M  V30 30 O 3.7687 -2.2571 2.8653 0
M  V30 31 C 4.7678 -0.8296 1.1464 0
M  V30 32 C 5.7072 -0.3547 2.2662 0
M  V30 33 C 5.5989 -1.4921 0.0403 0
M  V30 34 C 4.0048 0.3798 0.5897 0
M  V30 35 H -1.7188 0.3164 1.9884 0
M  V30 36 H -3.0283 -0.1533 -0.3509 0
M  V30 37 H -1.855 3.4199 2.3643 0
M  V30 38 H -4.7493 2.5386 1.5762 0
M  V30 39 H -3.5421 1.5402 2.3783 0
M  V30 40 H -4.3456 0.9578 0.9231 0
M  V30 41 H 0.3698 2.1794 1.5998 0
M  V30 42 H 0.4146 -0.8293 1.8588 0
M  V30 43 H 0.9221 0.0904 0.4759 0
M  V30 44 H -0.3136 -0.0928 -1.6945 0
M  V30 45 H -2.1273 1.5076 -2.7401 0
M  V30 46 H -3.3262 0.2419 -2.7317 0
M  V30 47 H -4.0085 4.7211 -1.9713 0
M  V30 48 H -4.824 1.4857 -1.2935 0
M  V30 49 H -2.0405 5.7531 1.7557 0
M  V30 50 H -1.5145 -1.3914 -3.2389 0
M  V30 51 H -2.4761 -2.1795 -1.985 0
M  V30 52 H 1.2774 -1.7784 -1.0419 0
M  V30 53 H -2.114 -2.9992 0.1774 0
M  V30 54 H -2.4833 -1.5889 1.1557 0
M  V30 55 H -1.2178 -2.6933 1.6623 0
M  V30 56 H -0.8759 -3.7801 -1.811 0
M  V30 57 H -0.0326 -3.2921 -4.0574 0
M  V30 58 H 1.0165 -2.0092 -3.4334 0
M  V30 59 H 1.3161 -3.6983 -2.9837 0
M  V30 60 H 1.4259 -2.8782 2.1046 0
M  V30 61 H 2.4847 -4.1589 1.4296 0
M  V30 62 H 6.2697 -1.1921 2.6953 0
M  V30 63 H 6.4317 0.3782 1.8939 0
M  V30 64 H 5.1459 0.1142 3.0828 0
M  V30 65 H 6.1116 -2.3857 0.4146 0
M  V30 66 H 4.9716 -1.8072 -0.8012 0
M  V30 67 H 6.3577 -0.8054 -0.3511 0
M  V30 68 H 3.3518 0.8192 1.3527 0
M  V30 69 H 3.371 0.1012 -0.2598 0
M  V30 70 H 4.6935 1.1588 0.2443 0
M  V30 END ATOM
M  V30 BEGIN BOND
M  V30 1 1 1 2
M  V30 2 1 2 3
M  V30 3 1 2 4
M  V30 4 1 2 5
M  V30 5 1 3 6
M  V30 6 1 3 7
M  V30 7 1 3 8
M  V30 8 1 4 9
M  V30 9 1 4 10
M  V30 10 1 5 11
M  V30 11 1 5 12
M  V30 12 2 6 13
M  V30 13 1 6 14
M  V30 14 2 7 15
M  V30 15 1 10 16
M  V30 16 1 11 17
M  V30 17 1 13 18
M  V30 18 1 14 19
M  V30 19 1 16 20
M  V30 20 1 16 21
M  V30 21 1 17 22
M  V30 22 2 18 23
M  V30 23 1 20 24
M  V30 24 1 22 25
M  V30 25 2 24 26
M  V30 26 1 24 27
M  V30 27 1 27 28
M  V30 28 1 28 29
M  V30 29 2 29 30
M  V30 30 1 29 31
M  V30 31 1 31 32
M  V30 32 1 31 33
M  V30 33 1 31 34
M  V30 34 1 11 16
M  V30 35 1 12 14
M  V30 36 1 15 18
M  V30 37 1 20 22
M  V30 38 1 4 35
M  V30 39 1 5 36
M  V30 40 1 7 37
M  V30 41 1 8 38
M  V30 42 1 8 39
M  V30 43 1 8 40
M  V30 44 1 9 41
M  V30 45 1 10 42
M  V30 46 1 10 43
M  V30 47 1 11 44
M  V30 48 1 12 45
M  V30 49 1 12 46
M  V30 50 1 13 47
M  V30 51 1 14 48
M  V30 52 1 15 49
M  V30 53 1 17 50
M  V30 54 1 17 51
M  V30 55 1 20 52
M  V30 56 1 21 53
M  V30 57 1 21 54
M  V30 58 1 21 55
M  V30 59 1 22 56
M  V30 60 1 25 57
M  V30 61 1 25 58
M  V30 62 1 25 59
M  V30 63 1 27 60
M  V30 64 1 27 61
M  V30 65 1 32 62
M  V30 66 1 32 63
M  V30 67 1 32 64
M  V30 68 1 33 65
M  V30 69 1 33 66
M  V30 70 1 33 67
M  V30 71 1 34 68
M  V30 72 1 34 69
M  V30 73 1 34 70
M  V30 END BOND
M  V30 BEGIN COLLECTION
M  V30 MDLV30/STEABS ATOMS=(3 2 14 22)
M  V30 END COLLECTION
M  V30 END CTAB
M  END
>  <Column 1>
1924

>  <level_0>
2091

>  <index>
2091

>  <Unnamed: 0>
2091

>  <NO.>
2103

>  <Name>
clocortolone-pivalate

>  <IUPAC_name>
[2-[(6s-9r-16r)-9-chloro-6-fluoro-11-hydroxy-10-13-16-trimethyl-3-oxo-7-8-11-12-14-15-16-17-octahydro-6h-cyclopenta[a]phenanthren-17-yl]-2-oxoethyl] 2-2-dimethylpropanoate

>  <SMILES>
C[C@@H]1CC2C3C[C@H](F)C4=CC(=O)C=CC4(C)[C@@]3(Cl)C(O)CC2(C)C1C(=O)COC(=O)C(C)(C)C

>  <CID>
36673

>  <logBB>


>  <BBB+/BBB->
BBB+

>  <Inchi>
InChI=1S/C27H36ClFO5/c1-14-9-16-17-11-19(29)18-10-15(30)7-8-26(18-6)27(17-28)21(32)12-25(16-5)22(14)20(31)13-34-23(33)24(2-3)4/h7-8-10-14-16-17-19-21-22-32H-9-11-13H2-1-6H3/t14--16?-17?-19+-21?-22?-25?-26?-27+/m1/s1

>  <threshold>
-1

>  <reference>
R1|R27|R30|

>  <group>
B

>  <Class>
1

>  <ABC>
27.15

>  <ABCGG>
22.24

>  <nAcid>
0

>  <nBase>
0

>  <nAromAtom>
0

>  <nAromBond>
0

>  <nAtom>
70

>  <nHeavyAtom>
34

>  <nSpiro>
0

>  <nBridgehead>
0

>  <nHetero>
7

>  <nN>
0

>  <nO>
5

>  <nF>
1

>  <BalabanJ>
1.62

>  <BertzCT>
982

>  <nBonds>
73

>  <nBondsO>
37

>  <nBondsS>
68

>  <nBondsD>
5

>  <nBondsT>
0

>  <nBondsA>
0

>  <nBondsM>
5

>  <nBondsKS>
68

>  <nBondsKD>
5

>  <RNCG>
0.17

>  <RPCG>
0.12

>  <FCSP3>
0.74

>  <SZ>
44

>  <Sm>
41.21

>  <Sv>
42.06

>  <Sse>
70.36

>  <Sp>
45.41

>  <Si>
79.22

>  <MZ>
0.63

>  <Mm>
0.59

>  <Mv>
0.6

>  <Mse>
1.01

>  <Mp>
0.65

>  <Mi>
1.13

>  <NsCH3>
6

>  <NdCH2>
0

>  <NssCH2>
4

>  <NtCH>
0

>  <NdsCH>
3

>  <NaaCH>
0

>  <NsssCH>
6

>  <NddC>
0

>  <NtsC>
0

>  <NdssC>
4

>  <NaasC>
0

>  <NaaaC>
0

>  <NssssC>
4

>  <NsNH3>
0

>  <NsNH2>
0

>  <NssNH2>
0

>  <NdNH>
0

>  <NssNH>
0

>  <NaaNH>
0

>  <NtN>
0

>  <NsssNH>
0

>  <NdsN>
0

>  <NaaN>
0

>  <NsssN>
0

>  <NddsN>
0

>  <NaasN>
0

>  <NssssN>
0

>  <NsOH>
1

>  <NdO>
3

>  <NssO>
1

>  <NaaO>
0

>  <NsF>
1

>  <NsSiH3>
0

>  <NssSiH2>
0

>  <NsssSiH>
0

>  <NssssSi>
0

>  <NsPH2>
0

>  <NssPH>
0

>  <NsssP>
0

>  <NdsssP>
0

>  <NsssssP>
0

>  <NsSH>
0

>  <NdS>
0

>  <NssS>
0

>  <NaaS>
0

>  <NdssS>
0

>  <NddssS>
0

>  <NsCl>
1

>  <NsBr>
0

>  <NsI>
0

>  <fragCpx>
247.07

>  <fMF>
0.24

>  <nHBAcc>
5

>  <nHBDon>
1

>  <Kier1>
27.05

>  <Kier2>
8.79

>  <Lipinski>
1

>  <GhoseFilter>
0

>  <FilterItLogS>
-4.91

>  <VMcGowan>
369.7

>  <LabuteASA>
205.69

>  <PEOE_VSA1>
9.84

>  <PEOE_VSA2>
14.38

>  <PEOE_VSA3>
4.39

>  <PEOE_VSA4>
0

>  <PEOE_VSA5>
11.6

>  <PEOE_VSA6>
26.85

>  <PEOE_VSA7>
80.93

>  <PEOE_VSA8>
11.33

>  <PEOE_VSA9>
16.39

>  <PEOE_VSA10>
12.78

>  <PEOE_VSA11>
11.57

>  <PEOE_VSA12>
0

>  <PEOE_VSA13>
0

>  <SMR_VSA1>
28.62

>  <SMR_VSA2>
0

>  <SMR_VSA3>
0

>  <SMR_VSA4>
39.92

>  <SMR_VSA5>
77.95

>  <SMR_VSA6>
6.61

>  <SMR_VSA7>
23.8

>  <SMR_VSA8>
0

>  <SMR_VSA9>
0

>  <SlogP_VSA1>
0

>  <SlogP_VSA2>
46.4

>  <SlogP_VSA3>
19.12

>  <SlogP_VSA4>
39.92

>  <SlogP_VSA5>
60.8

>  <SlogP_VSA6>
23.8

>  <SlogP_VSA7>
0

>  <SlogP_VSA8>
0

>  <SlogP_VSA9>
0

>  <SlogP_VSA10>
4.39

>  <SlogP_VSA11>
0

>  <EState_VSA1>
45.28

>  <EState_VSA2>
48.77

>  <EState_VSA3>
11.99

>  <EState_VSA4>
0

>  <EState_VSA5>
12.15

>  <EState_VSA6>
26.85

>  <EState_VSA7>
20.77

>  <EState_VSA8>
0

>  <EState_VSA9>
16.34

>  <EState_VSA10>
19.49

>  <VSA_EState1>
20.88

>  <VSA_EState2>
36.42

>  <VSA_EState3>
11.55

>  <VSA_EState4>
-1.97

>  <VSA_EState5>
-1.77

>  <VSA_EState6>
0

>  <VSA_EState7>
3.13

>  <VSA_EState8>
10.71

>  <VSA_EState9>
0

>  <apol>
75.84

>  <bpol>
42.08

>  <nRing>
4

>  <nHRing>
0

>  <naRing>
0

>  <naHRing>
0

>  <nARing 2>
4

>  <nAHRing 2>
0

>  <nFRing>
1

>  <nFHRing>
0

>  <nFaRing>
0

>  <nFaHRing>
0

>  <nFARing 2>
1

>  <nFAHRing 2>
0

>  <nRot>
3

>  <SLogP>
4.6

>  <SMR>
126.84

>  <TopoPSA(NO)>
80.67

>  <TopoPSA>
80.67

>  <JGI1>
0.34

>  <JGI2>
0.14

>  <JGI3>
0.08

>  <JGI4>
0.06

>  <JGI5>
0.04

>  <Diameter>
15

>  <Radius>
8

>  <TMWC10>
153.29

>  <TSRW10>
86.36

>  <MW>
494.22

>  <AMW>
7.06

>  <WPath>
3162

>  <WPol>
75

>  <Zagreb1>
198

>  <Zagreb2>
250

>  <mZagreb2>
6.92

>  <yes>


>  <nAR-cont>
0.199399

>  <nHA-cont>
0.568589513

>  <MWHBN>
0.269892672

>  <MWHBN-cont>
0.920354989

>  <TPSA-cont>
0.436873307

>  <pka_cont>
0.97

>  <yes.1>


>  <BBB_SCORE>
3.50726761

>  <MMFF94 Energy>
128.53

$$$$
Compound 1586
Actelion Java MolfileCreator 2.0

  0  0  0  0  0  0              0 V3000
M  V30 BEGIN CTAB
M  V30 COUNTS 56 59 0 0 0
M  V30 BEGIN ATOM
M  V30 1 F 1.5398 -1.1344 0.324 0
M  V30 2 C 0.696 -0.4616 1.1776 0 CFG=2
M  V30 3 C 1.5261 -0.1903 2.5108 0
M  V30 4 C -0.5924 -1.326 1.3445 0
M  V30 5 C 0.2984 0.8638 0.4512 0
M  V30 6 C 2.6499 0.8244 2.2089 0
M  V30 7 C 2.1242 -1.4717 3.0947 0
M  V30 8 C 0.6284 0.3963 3.626 0
M  V30 9 O -0.3343 -2.5934 1.9475 0
M  V30 10 C -1.2747 -1.5842 -0.0051 0
M  V30 11 C -0.4789 0.6643 -0.873 0
M  V30 12 C 1.5137 1.7741 0.2239 0
M  V30 13 C 3.952 0.6042 2.4701 0
M  V30 14 C 2.2239 2.0966 1.5278 0 CFG=2
M  V30 15 C 3.4216 -1.6873 3.349 0
M  V30 16 C -1.6823 -0.2982 -0.7699 0
M  V30 17 C 0.321 0.1088 -2.0567 0
M  V30 18 C 4.4312 -0.6527 3.0727 0
M  V30 19 F 3.2914 2.8912 1.2301 0
M  V30 20 C -1.989 -0.6778 -2.2598 0
M  V30 21 C -2.865 0.3591 -0.0341 0
M  V30 22 C -0.7512 -0.2587 -3.0853 0 CFG=2
M  V30 23 O 5.6142 -0.8277 3.3336 0
M  V30 24 C -3.3291 -0.1778 -2.8093 0
M  V30 25 C -0.2806 -1.3513 -4.0395 0
M  V30 26 O -4.3254 -0.9058 -2.7199 0
M  V30 27 C -3.4464 1.1955 -3.4757 0
M  V30 28 O -2.7903 2.2702 -2.836 0
M  V30 29 H -1.2906 -0.8118 2.0121 0
M  V30 30 H -0.3829 1.4088 1.1188 0
M  V30 31 H 1.44 -2.2762 3.3512 0
M  V30 32 H 0.0801 1.2858 3.3014 0
M  V30 33 H -0.114 -0.3313 3.9741 0
M  V30 34 H 1.2219 0.6878 4.5023 0
M  V30 35 H -1.1435 -3.1317 1.8929 0
M  V30 36 H -2.161 -2.2155 0.148 0
M  V30 37 H -0.6008 -2.2026 -0.614 0
M  V30 38 H -0.8479 1.6548 -1.1754 0
M  V30 39 H 1.2027 2.7127 -0.2514 0
M  V30 40 H 2.2275 1.3088 -0.4675 0
M  V30 41 H 4.7266 1.327 2.2353 0
M  V30 42 H 1.5761 2.6824 2.1877 0
M  V30 43 H 3.7841 -2.6159 3.7726 0
M  V30 44 H 0.9093 -0.7712 -1.7838 0
M  V30 45 H 1.0127 0.852 -2.4671 0
M  V30 46 H -2.0805 -1.7724 -2.3257 0
M  V30 47 H -2.6139 0.6239 0.9971 0
M  V30 48 H -3.1838 1.2872 -0.5157 0
M  V30 49 H -3.7282 -0.3144 0.0052 0
M  V30 50 H -0.9534 0.6252 -3.6946 0
M  V30 51 H 0.6073 -1.0251 -4.5909 0
M  V30 52 H -0.0242 -2.2706 -3.5021 0
M  V30 53 H -1.0628 -1.5905 -4.7673 0
M  V30 54 H -3.0965 1.1129 -4.5101 0
M  V30 55 H -4.511 1.4504 -3.5125 0
M  V30 56 H -1.9529 2.4364 -3.3004 0
M  V30 END ATOM
M  V30 BEGIN BOND
M  V30 1 1 1 2
M  V30 2 1 2 3
M  V30 3 1 2 4
M  V30 4 1 2 5
M  V30 5 1 3 6
M  V30 6 1 3 7
M  V30 7 1 3 8
M  V30 8 1 4 9
M  V30 9 1 4 10
M  V30 10 1 5 11
M  V30 11 1 5 12
M  V30 12 2 6 13
M  V30 13 1 6 14
M  V30 14 2 7 15
M  V30 15 1 10 16
M  V30 16 1 11 17
M  V30 17 1 13 18
M  V30 18 1 14 19
M  V30 19 1 16 20
M  V30 20 1 16 21
M  V30 21 1 17 22
M  V30 22 2 18 23
M  V30 23 1 20 24
M  V30 24 1 22 25
M  V30 25 2 24 26
M  V30 26 1 24 27
M  V30 27 1 27 28
M  V30 28 1 11 16
M  V30 29 1 12 14
M  V30 30 1 15 18
M  V30 31 1 20 22
M  V30 32 1 4 29
M  V30 33 1 5 30
M  V30 34 1 7 31
M  V30 35 1 8 32
M  V30 36 1 8 33
M  V30 37 1 8 34
M  V30 38 1 9 35
M  V30 39 1 10 36
M  V30 40 1 10 37
M  V30 41 1 11 38
M  V30 42 1 12 39
M  V30 43 1 12 40
M  V30 44 1 13 41
M  V30 45 1 14 42
M  V30 46 1 15 43
M  V30 47 1 17 44
M  V30 48 1 17 45
M  V30 49 1 20 46
M  V30 50 1 21 47
M  V30 51 1 21 48
M  V30 52 1 21 49
M  V30 53 1 22 50
M  V30 54 1 25 51
M  V30 55 1 25 52
M  V30 56 1 25 53
M  V30 57 1 27 54
M  V30 58 1 27 55
M  V30 59 1 28 56
M  V30 END BOND
M  V30 BEGIN COLLECTION
M  V30 MDLV30/STEABS ATOMS=(3 2 14 22)
M  V30 END COLLECTION
M  V30 END CTAB
M  END
>  <Column 1>
1925

>  <level_0>
2092

>  <index>
2092

>  <Unnamed: 0>
2092

>  <NO.>
2104

>  <Name>
diflucortolonum [inn-latin]

>  <IUPAC_name>
(6s-9r-16r)-6-9-difluoro-11-hydroxy-17-(2-hydroxyacetyl)-10-13-16-trimethyl-7-8-11-12-14-15-16-17-octahydro-6h-cyclopenta[a]phenanthren-3-one

>  <SMILES>
C[C@@H]1CC2C3C[C@H](F)C4=CC(=O)C=CC4(C)[C@@]3(F)C(O)CC2(C)C1C(=O)CO

>  <CID>
17455

>  <logBB>


>  <BBB+/BBB->
BBB+

>  <Inchi>
InChI=1S/C22H28F2O4/c1-11-6-13-14-8-16(23)15-7-12(26)4-5-21(15-3)22(14-24)18(28)9-20(13-2)19(11)17(27)10-25/h4-5-7-11-13-14-16-18-19-25-28H-6-8-10H2-1-3H3/t11--13?-14?-16+-18?-19?-20?-21?-22+/m1/s1

>  <threshold>
-1

>  <reference>
R1|R27|R30|

>  <group>
B

>  <Class>
1

>  <ABC>
22.38

>  <ABCGG>
18.82

>  <nAcid>
0

>  <nBase>
0

>  <nAromAtom>
0

>  <nAromBond>
0

>  <nAtom>
56

>  <nHeavyAtom>
28

>  <nSpiro>
0

>  <nBridgehead>
0

>  <nHetero>
6

>  <nN>
0

>  <nO>
4

>  <nF>
2

>  <BalabanJ>
1.77

>  <BertzCT>
791.41

>  <nBonds>
59

>  <nBondsO>
31

>  <nBondsS>
55

>  <nBondsD>
4

>  <nBondsT>
0

>  <nBondsA>
0

>  <nBondsM>
4

>  <nBondsKS>
55

>  <nBondsKD>
4

>  <RNCG>
0.17

>  <RPCG>
0.09

>  <FCSP3>
0.73

>  <SZ>
35

>  <Sm>
32.84

>  <Sv>
33.74

>  <Sse>
56.67

>  <Sp>
35.77

>  <Si>
63.75

>  <MZ>
0.63

>  <Mm>
0.59

>  <Mv>
0.6

>  <Mse>
1.01

>  <Mp>
0.64

>  <Mi>
1.14

>  <NsCH3>
3

>  <NdCH2>
0

>  <NssCH2>
4

>  <NtCH>
0

>  <NdsCH>
3

>  <NaaCH>
0

>  <NsssCH>
6

>  <NddC>
0

>  <NtsC>
0

>  <NdssC>
3

>  <NaasC>
0

>  <NaaaC>
0

>  <NssssC>
3

>  <NsNH3>
0

>  <NsNH2>
0

>  <NssNH2>
0

>  <NdNH>
0

>  <NssNH>
0

>  <NaaNH>
0

>  <NtN>
0

>  <NsssNH>
0

>  <NdsN>
0

>  <NaaN>
0

>  <NsssN>
0

>  <NddsN>
0

>  <NaasN>
0

>  <NssssN>
0

>  <NsOH>
2

>  <NdO>
2

>  <NssO>
0

>  <NaaO>
0

>  <NsF>
2

>  <NsSiH3>
0

>  <NssSiH2>
0

>  <NsssSiH>
0

>  <NssssSi>
0

>  <NsPH2>
0

>  <NssPH>
0

>  <NsssP>
0

>  <NdsssP>
0

>  <NsssssP>
0

>  <NsSH>
0

>  <NdS>
0

>  <NssS>
0

>  <NaaS>
0

>  <NdssS>
0

>  <NddssS>
0

>  <NsCl>
0

>  <NsBr>
0

>  <NsI>
0

>  <fragCpx>
205.06

>  <fMF>
0.3

>  <nHBAcc>
4

>  <nHBDon>
2

>  <Kier1>
21.24

>  <Kier2>
6.75

>  <Lipinski>
1

>  <GhoseFilter>
1

>  <FilterItLogS>
-3.2

>  <VMcGowan>
287.2

>  <LabuteASA>
163.24

>  <PEOE_VSA1>
10.21

>  <PEOE_VSA2>
9.59

>  <PEOE_VSA3>
8.78

>  <PEOE_VSA4>
0

>  <PEOE_VSA5>
0

>  <PEOE_VSA6>
19.92

>  <PEOE_VSA7>
61.16

>  <PEOE_VSA8>
17.25

>  <PEOE_VSA9>
6.1

>  <PEOE_VSA10>
12.78

>  <PEOE_VSA11>
17.24

>  <PEOE_VSA12>
0

>  <PEOE_VSA13>
0

>  <SMR_VSA1>
28.58

>  <SMR_VSA2>
0

>  <SMR_VSA3>
0

>  <SMR_VSA4>
34.5

>  <SMR_VSA5>
57.98

>  <SMR_VSA6>
6.61

>  <SMR_VSA7>
23.8

>  <SMR_VSA8>
0

>  <SMR_VSA9>
0

>  <SlogP_VSA1>
0

>  <SlogP_VSA2>
46.33

>  <SlogP_VSA3>
9.59

>  <SlogP_VSA4>
34.5

>  <SlogP_VSA5>
40.03

>  <SlogP_VSA6>
23.8

>  <SlogP_VSA7>
0

>  <SlogP_VSA8>
0

>  <SlogP_VSA9>
0

>  <SlogP_VSA10>
8.78

>  <SlogP_VSA11>
0

>  <EState_VSA1>
47.22

>  <EState_VSA2>
41.82

>  <EState_VSA3>
6.42

>  <EState_VSA4>
0

>  <EState_VSA5>
18.23

>  <EState_VSA6>
6.92

>  <EState_VSA7>
13.85

>  <EState_VSA8>
0

>  <EState_VSA9>
0

>  <EState_VSA10>
19.8

>  <VSA_EState1>
32.02

>  <VSA_EState2>
24.27

>  <VSA_EState3>
20.51

>  <VSA_EState4>
-4.09

>  <VSA_EState5>
-2.26

>  <VSA_EState6>
0

>  <VSA_EState7>
1.52

>  <VSA_EState8>
4.78

>  <VSA_EState9>
0

>  <apol>
59.73

>  <bpol>
32.05

>  <nRing>
4

>  <nHRing>
0

>  <naRing>
0

>  <naHRing>
0

>  <nARing 2>
4

>  <nAHRing 2>
0

>  <nFRing>
1

>  <nFHRing>
0

>  <nFaRing>
0

>  <nFaHRing>
0

>  <nFARing 2>
1

>  <nFAHRing 2>
0

>  <nRot>
2

>  <SLogP>
2.73

>  <SMR>
98.76

>  <TopoPSA(NO)>
74.6

>  <TopoPSA>
74.6

>  <JGI1>
0.31

>  <JGI2>
0.14

>  <JGI3>
0.08

>  <JGI4>
0.06

>  <JGI5>
0.04

>  <Diameter>
12

>  <Radius>
6

>  <TMWC10>
140.29

>  <TSRW10>
79.62

>  <MW>
394.2

>  <AMW>
7.04

>  <WPath>
1674

>  <WPol>
66

>  <Zagreb1>
166

>  <Zagreb2>
215

>  <mZagreb2>
5.84

>  <yes>


>  <nAR-cont>
0.199399

>  <nHA-cont>
0.82432561

>  <MWHBN>
0.302198943

>  <MWHBN-cont>
0.834119484

>  <TPSA-cont>
0.479245676

>  <pka_cont>
0.97

>  <yes.1>


>  <BBB_SCORE>
3.718395189

>  <MMFF94 Energy>
146.33

$$$$
Compound 1587
Actelion Java MolfileCreator 2.0

  0  0  0  0  0  0              0 V3000
M  V30 BEGIN CTAB
M  V30 COUNTS 57 60 0 0 0
M  V30 BEGIN ATOM
M  V30 1 Cl -0.2453 -5.5712 3.2744 0
M  V30 2 C 0.3994 -3.9758 3.188 0
M  V30 3 C 1.8011 -3.7657 3.6313 0
M  V30 4 C -0.3523 -2.9568 2.7497 0
M  V30 5 O 2.5188 -4.6621 4.0592 0
M  V30 6 C 2.321 -2.384 3.5379 0
M  V30 7 C 0.1069 -1.5053 2.6434 0 CFG=1
M  V30 8 C 1.5698 -1.3606 3.0933 0
M  V30 9 C 0.0101 -1.0015 1.1396 0 CFG=1
M  V30 10 C -0.7712 -0.7125 3.64 0
M  V30 11 C 2.155 0.0214 2.9464 0 CFG=1
M  V30 12 F 0.8098 -1.8592 0.4099 0
M  V30 13 C -1.3964 -1.0976 0.4943 0 CFG=1
M  V30 14 C 0.6107 0.4265 0.9644 0 CFG=1
M  V30 15 F 3.4726 0.0428 3.2966 0
M  V30 16 C 2.0522 0.4908 1.5018 0
M  V30 17 O -2.3927 -0.439 1.2664 0
M  V30 18 C -1.4179 -0.5665 -0.9482 0
M  V30 19 C 0.5499 0.9741 -0.484 0
M  V30 20 C -0.8413 0.8688 -1.1415 0 CFG=1
M  V30 21 C 1.4819 0.2926 -1.4958 0
M  V30 22 C -0.5299 1.1546 -2.6612 0 CFG=1
M  V30 23 C -1.8225 1.8985 -0.5415 0
M  V30 24 C 0.9174 0.6126 -2.8914 0 CFG=2
M  V30 25 O -1.4906 0.492 -3.4788 0
M  V30 26 C -0.5454 2.6772 -2.9885 0
M  V30 27 C 1.0551 -0.5856 -3.8298 0
M  V30 28 O 0.3771 3.4386 -2.677 0
M  V30 29 C -1.7725 3.2342 -3.7066 0
M  V30 30 O -1.75 4.6552 -3.7552 0
M  V30 31 H -1.3819 -3.1652 2.4654 0
M  V30 32 H 3.358 -2.2598 3.8342 0
M  V30 33 H -1.8335 -0.9655 3.5534 0
M  V30 34 H -0.4916 -0.9378 4.678 0
M  V30 35 H -0.6817 0.3704 3.515 0
M  V30 36 H 1.6445 0.7217 3.6153 0
M  V30 37 H -1.6874 -2.1529 0.4407 0
M  V30 38 H 0.0121 1.116 1.5735 0
M  V30 39 H 2.4358 1.5165 1.4337 0
M  V30 40 H 2.7245 -0.1201 0.8862 0
M  V30 41 H -3.2488 -0.5643 0.817 0
M  V30 42 H -0.8561 -1.2785 -1.5639 0
M  V30 43 H -2.4509 -0.5887 -1.32 0
M  V30 44 H 0.8422 2.0335 -0.4398 0
M  V30 45 H 2.5065 0.6701 -1.4013 0
M  V30 46 H 1.5309 -0.7887 -1.3485 0
M  V30 47 H -2.8044 1.8295 -1.0216 0
M  V30 48 H -1.4623 2.9262 -0.6526 0
M  V30 49 H -1.9684 1.7642 0.5323 0
M  V30 50 H 1.5488 1.4018 -3.3199 0
M  V30 51 H -1.1642 0.4644 -4.3955 0
M  V30 52 H 0.7722 -0.3168 -4.8525 0
M  V30 53 H 0.4343 -1.4281 -3.5106 0
M  V30 54 H 2.0947 -0.9301 -3.8603 0
M  V30 55 H -1.784 2.8587 -4.733 0
M  V30 56 H -2.6832 2.9289 -3.1872 0
M  V30 57 H -0.8301 4.9241 -3.5543 0
M  V30 END ATOM
M  V30 BEGIN BOND
M  V30 1 1 1 2
M  V30 2 1 2 3
M  V30 3 2 2 4
M  V30 4 2 3 5
M  V30 5 1 3 6
M  V30 6 1 4 7
M  V30 7 2 6 8
M  V30 8 1 7 9
M  V30 9 1 7 10
M  V30 10 1 8 11
M  V30 11 1 9 12
M  V30 12 1 9 13
M  V30 13 1 9 14
M  V30 14 1 11 15
M  V30 15 1 11 16
M  V30 16 1 13 17
M  V30 17 1 13 18
M  V30 18 1 14 19
M  V30 19 1 18 20
M  V30 20 1 19 21
M  V30 21 1 20 22
M  V30 22 1 20 23
M  V30 23 1 21 24
M  V30 24 1 22 25
M  V30 25 1 22 26
M  V30 26 1 24 27
M  V30 27 2 26 28
M  V30 28 1 26 29
M  V30 29 1 29 30
M  V30 30 1 7 8
M  V30 31 1 14 16
M  V30 32 1 19 20
M  V30 33 1 22 24
M  V30 34 1 4 31
M  V30 35 1 6 32
M  V30 36 1 10 33
M  V30 37 1 10 34
M  V30 38 1 10 35
M  V30 39 1 11 36
M  V30 40 1 13 37
M  V30 41 1 14 38
M  V30 42 1 16 39
M  V30 43 1 16 40
M  V30 44 1 17 41
M  V30 45 1 18 42
M  V30 46 1 18 43
M  V30 47 1 19 44
M  V30 48 1 21 45
M  V30 49 1 21 46
M  V30 50 1 23 47
M  V30 51 1 23 48
M  V30 52 1 23 49
M  V30 53 1 24 50
M  V30 54 1 25 51
M  V30 55 1 27 52
M  V30 56 1 27 53
M  V30 57 1 27 54
M  V30 58 1 29 55
M  V30 59 1 29 56
M  V30 60 1 30 57
M  V30 END BOND
M  V30 BEGIN COLLECTION
M  V30 MDLV30/STEABS ATOMS=(8 7 9 11 13 14 20 22 24)
M  V30 END COLLECTION
M  V30 END CTAB
M  END
>  <Column 1>
1926

>  <level_0>
2093

>  <index>
2093

>  <Unnamed: 0>
2093

>  <NO.>
2105

>  <Name>
halometasone

>  <IUPAC_name>
(6s-8s-9r-10s-11s-13s-16r-17r)-2-chloro-6-9-difluoro-11-17-dihydroxy-17-(2-hydroxyacetyl)-10-13-16-trimethyl-6-7-8-11-12-14-15-16-octahydrocyclopenta[a]phenanthren-3-one

>  <SMILES>
C[C@@H]1CC2[C@@H]3C[C@H](F)C4=CC(=O)C(Cl)=C[C@]4(C)[C@@]3(F)[C@@H](O)C[C@]2(C)[C@@]1(O)C(=O)CO

>  <CID>
39745

>  <logBB>


>  <BBB+/BBB->
BBB+

>  <Inchi>
InChI=1S/C22H27ClF2O5/c1-10-4-11-12-5-15(24)13-6-16(27)14(23)7-19(13-2)21(12-25)17(28)8-20(11-3)22(10-30)18(29)9-26/h6-7-10-12-15-17-26-28-30H-4-5-8-9H2-1-3H3/t10--11?-12+-15+-17+-19+-20+-21+-22+/m1/s1

>  <threshold>
-1

>  <reference>
R1|R27|R30|

>  <group>
B

>  <Class>
1

>  <ABC>
23.95

>  <ABCGG>
20.44

>  <nAcid>
0

>  <nBase>
0

>  <nAromAtom>
0

>  <nAromBond>
0

>  <nAtom>
57

>  <nHeavyAtom>
30

>  <nSpiro>
0

>  <nBridgehead>
0

>  <nHetero>
8

>  <nN>
0

>  <nO>
5

>  <nF>
2

>  <BalabanJ>
1.81

>  <BertzCT>
888.75

>  <nBonds>
60

>  <nBondsO>
33

>  <nBondsS>
56

>  <nBondsD>
4

>  <nBondsT>
0

>  <nBondsA>
0

>  <nBondsM>
4

>  <nBondsKS>
56

>  <nBondsKD>
4

>  <RNCG>
0.15

>  <RPCG>
0.08

>  <FCSP3>
0.73

>  <SZ>
39

>  <Sm>
37.04

>  <Sv>
35.27

>  <Sse>
58.32

>  <Sp>
37.15

>  <Si>
64.9

>  <MZ>
0.68

>  <Mm>
0.65

>  <Mv>
0.62

>  <Mse>
1.02

>  <Mp>
0.65

>  <Mi>
1.14

>  <NsCH3>
3

>  <NdCH2>
0

>  <NssCH2>
4

>  <NtCH>
0

>  <NdsCH>
2

>  <NaaCH>
0

>  <NsssCH>
5

>  <NddC>
0

>  <NtsC>
0

>  <NdssC>
4

>  <NaasC>
0

>  <NaaaC>
0

>  <NssssC>
4

>  <NsNH3>
0

>  <NsNH2>
0

>  <NssNH2>
0

>  <NdNH>
0

>  <NssNH>
0

>  <NaaNH>
0

>  <NtN>
0

>  <NsssNH>
0

>  <NdsN>
0

>  <NaaN>
0

>  <NsssN>
0

>  <NddsN>
0

>  <NaasN>
0

>  <NssssN>
0

>  <NsOH>
3

>  <NdO>
2

>  <NssO>
0

>  <NaaO>
0

>  <NsF>
2

>  <NsSiH3>
0

>  <NssSiH2>
0

>  <NsssSiH>
0

>  <NssssSi>
0

>  <NsPH2>
0

>  <NssPH>
0

>  <NsssP>
0

>  <NdsssP>
0

>  <NsssssP>
0

>  <NsSH>
0

>  <NdS>
0

>  <NssS>
0

>  <NaaS>
0

>  <NdssS>
0

>  <NddssS>
0

>  <NsCl>
1

>  <NsBr>
0

>  <NsI>
0

>  <fragCpx>
219.08

>  <fMF>
0.3

>  <nHBAcc>
5

>  <nHBDon>
3

>  <Kier1>
23.17

>  <Kier2>
7

>  <Lipinski>
1

>  <GhoseFilter>
1

>  <FilterItLogS>
-3.63

>  <VMcGowan>
305.31

>  <LabuteASA>
178.34

>  <PEOE_VSA1>
15.32

>  <PEOE_VSA2>
9.59

>  <PEOE_VSA3>
8.78

>  <PEOE_VSA4>
0

>  <PEOE_VSA5>
0

>  <PEOE_VSA6>
25.45

>  <PEOE_VSA7>
55.75

>  <PEOE_VSA8>
16.75

>  <PEOE_VSA9>
11.14

>  <PEOE_VSA10>
18.38

>  <PEOE_VSA11>
17.24

>  <PEOE_VSA12>
0

>  <PEOE_VSA13>
0

>  <SMR_VSA1>
33.69

>  <SMR_VSA2>
0

>  <SMR_VSA3>
0

>  <SMR_VSA4>
28.58

>  <SMR_VSA5>
63.58

>  <SMR_VSA6>
6.61

>  <SMR_VSA7>
22.76

>  <SMR_VSA8>
0

>  <SMR_VSA9>
0

>  <SlogP_VSA1>
0

>  <SlogP_VSA2>
57.04

>  <SlogP_VSA3>
9.59

>  <SlogP_VSA4>
28.58

>  <SlogP_VSA5>
40.03

>  <SlogP_VSA6>
22.76

>  <SlogP_VSA7>
0

>  <SlogP_VSA8>
0

>  <SlogP_VSA9>
0

>  <SlogP_VSA10>
8.78

>  <SlogP_VSA11>
0

>  <EState_VSA1>
70.3

>  <EState_VSA2>
29.87

>  <EState_VSA3>
0

>  <EState_VSA4>
6.08

>  <EState_VSA5>
13

>  <EState_VSA6>
13.85

>  <EState_VSA7>
0

>  <EState_VSA8>
0

>  <EState_VSA9>
11.6

>  <EState_VSA10>
24.91

>  <VSA_EState1>
32.31

>  <VSA_EState2>
24.59

>  <VSA_EState3>
31.74

>  <VSA_EState4>
-7.19

>  <VSA_EState5>
-3.59

>  <VSA_EState6>
0

>  <VSA_EState7>
-1.28

>  <VSA_EState8>
3.84

>  <VSA_EState9>
0

>  <apol>
62.05

>  <bpol>
31.56

>  <nRing>
4

>  <nHRing>
0

>  <naRing>
0

>  <naHRing>
0

>  <nARing 2>
4

>  <nAHRing 2>
0

>  <nFRing>
1

>  <nFHRing>
0

>  <nFaRing>
0

>  <nFaHRing>
0

>  <nFARing 2>
1

>  <nFAHRing 2>
0

>  <nRot>
2

>  <SLogP>
2.41

>  <SMR>
105.02

>  <TopoPSA(NO)>
94.83

>  <TopoPSA>
94.83

>  <JGI1>
0.33

>  <JGI2>
0.16

>  <JGI3>
0.08

>  <JGI4>
0.06

>  <JGI5>
0.04

>  <Diameter>
12

>  <Radius>
6

>  <TMWC10>
145.42

>  <TSRW10>
82.43

>  <MW>
444.15

>  <AMW>
7.79

>  <WPath>
1982

>  <WPol>
76

>  <Zagreb1>
180

>  <Zagreb2>
237

>  <mZagreb2>
6.21

>  <yes>


>  <nAR-cont>
0.199399

>  <nHA-cont>
0.74523694

>  <MWHBN>
0.379599082

>  <MWHBN-cont>
0.556378143

>  <TPSA-cont>
0.338027714

>  <pka_cont>
0.97

>  <yes.1>


>  <BBB_SCORE>
2.940258582

>  <MMFF94 Energy>
174.57

$$$$
Compound 1588
Actelion Java MolfileCreator 2.0

  0  0  0  0  0  0              0 V3000
M  V30 BEGIN CTAB
M  V30 COUNTS 40 43 0 0 0
M  V30 BEGIN ATOM
M  V30 1 Cl 3.7453 2.3599 -2.6043 0
M  V30 2 C 2.1234 1.8463 -2.3487 0
M  V30 3 C 1.8268 0.9858 -1.2911 0
M  V30 4 C 1.1153 2.3033 -3.1893 0
M  V30 5 C 0.5041 0.5512 -1.0506 0
M  V30 6 C -0.1963 1.8808 -2.9819 0
M  V30 7 C -0.497 0.9953 -1.939 0
M  V30 8 C 0.1625 -0.2968 0.1943 0 CFG=2
M  V30 9 N -1.8258 0.5696 -1.8377 0
M  V30 10 O 1.4074 -0.5698 0.9001 0
M  V30 11 N -0.4379 -1.616 -0.112 0
M  V30 12 C -0.6629 0.5157 1.2188 0
M  V30 13 C -2.23 -0.7104 -1.5555 0
M  V30 14 C 1.4137 -1.9714 1.1857 0 CFG=1
M  V30 15 C -1.1369 -1.7636 -1.3883 0
M  V30 16 C 0.6565 -2.5698 0.0213 0
M  V30 17 C -1.9124 0.086 1.7034 0
M  V30 18 C -0.1568 1.7343 1.7198 0
M  V30 19 O -3.4287 -0.9814 -1.4867 0
M  V30 20 C 2.8414 -2.4671 1.3 0
M  V30 21 C -2.6337 0.8508 2.6253 0
M  V30 22 C -0.8769 2.497 2.6426 0
M  V30 23 C -2.1176 2.0563 3.0921 0
M  V30 24 H 2.6352 0.6735 -0.6325 0
M  V30 25 H 1.3432 2.9806 -4.008 0
M  V30 26 H -0.9758 2.228 -3.6563 0
M  V30 27 H -2.5754 1.2235 -2.0289 0
M  V30 28 H 0.8844 -2.1326 2.1338 0
M  V30 29 H -1.6298 -2.7433 -1.4164 0
M  V30 30 H -0.4628 -1.7288 -2.2534 0
M  V30 31 H 1.2814 -2.5867 -0.8809 0
M  V30 32 H 0.3076 -3.5849 0.2338 0
M  V30 33 H -2.3464 -0.8542 1.3701 0
M  V30 34 H 0.8184 2.0927 1.3958 0
M  V30 35 H 2.8731 -3.5458 1.4793 0
M  V30 36 H 3.4112 -2.2429 0.3916 0
M  V30 37 H 3.3549 -1.9587 2.1231 0
M  V30 38 H -3.5998 0.499 2.9786 0
M  V30 39 H -0.4644 3.432 3.0126 0
M  V30 40 H -2.6792 2.6472 3.8105 0
M  V30 END ATOM
M  V30 BEGIN BOND
M  V30 1 1 1 2
M  V30 2 2 2 3
M  V30 3 1 2 4
M  V30 4 1 3 5
M  V30 5 2 4 6
M  V30 6 2 5 7
M  V30 7 1 5 8
M  V30 8 1 7 9
M  V30 9 1 8 10
M  V30 10 1 8 11
M  V30 11 1 8 12
M  V30 12 1 9 13
M  V30 13 1 10 14
M  V30 14 1 11 15
M  V30 15 1 11 16
M  V30 16 2 12 17
M  V30 17 1 12 18
M  V30 18 2 13 19
M  V30 19 1 14 20
M  V30 20 1 17 21
M  V30 21 2 18 22
M  V30 22 2 21 23
M  V30 23 1 6 7
M  V30 24 1 13 15
M  V30 25 1 14 16
M  V30 26 1 22 23
M  V30 27 1 3 24
M  V30 28 1 4 25
M  V30 29 1 6 26
M  V30 30 1 9 27
M  V30 31 1 14 28
M  V30 32 1 15 29
M  V30 33 1 15 30
M  V30 34 1 16 31
M  V30 35 1 16 32
M  V30 36 1 17 33
M  V30 37 1 18 34
M  V30 38 1 20 35
M  V30 39 1 20 36
M  V30 40 1 20 37
M  V30 41 1 21 38
M  V30 42 1 22 39
M  V30 43 1 23 40
M  V30 END BOND
M  V30 BEGIN COLLECTION
M  V30 MDLV30/STEABS ATOMS=(2 8 14)
M  V30 END COLLECTION
M  V30 END CTAB
M  END
>  <Column 1>
1927

>  <level_0>
2094

>  <index>
2094

>  <Unnamed: 0>
2094

>  <NO.>
2106

>  <Name>
oxazolam

>  <IUPAC_name>
(2r-11bs)-10-chloro-2-methyl-11b-phenyl-2-3-5-7-tetrahydro-[1-3]oxazolo[3-2-d][1-4]benzodiazepin-6-one

>  <SMILES>
C[C@@H]1CN2CC(=O)Nc3ccc(Cl)cc3[C@]2(c2ccccc2)O1

>  <CID>
62779

>  <logBB>


>  <BBB+/BBB->
BBB+

>  <Inchi>
InChI=1S/C18H17ClN2O2/c1-12-10-21-11-17(22)20-16-8-7-14(19)9-15(16)18(21-23-12)13-5-3-2-4-6-13/h2-9-12H-10-11H2-1H3-(H-20-22)/t12--18+/m1/s1

>  <threshold>
-1

>  <reference>
R1|R27|R30|

>  <group>
B

>  <Class>
1

>  <ABC>
18.49

>  <ABCGG>
15.28

>  <nAcid>
0

>  <nBase>
1

>  <nAromAtom>
12

>  <nAromBond>
12

>  <nAtom>
40

>  <nHeavyAtom>
23

>  <nSpiro>
0

>  <nBridgehead>
0

>  <nHetero>
5

>  <nN>
2

>  <nO>
2

>  <nF>
0

>  <BalabanJ>
1.73

>  <BertzCT>
764.87

>  <nBonds>
43

>  <nBondsO>
26

>  <nBondsS>
30

>  <nBondsD>
1

>  <nBondsT>
0

>  <nBondsA>
12

>  <nBondsM>
13

>  <nBondsKS>
36

>  <nBondsKD>
7

>  <RNCG>
0.2

>  <RPCG>
0.14

>  <FCSP3>
0.28

>  <SZ>
28.67

>  <Sm>
27.37

>  <Sv>
26.64

>  <Sse>
40.3

>  <Sp>
28.37

>  <Si>
44.68

>  <MZ>
0.72

>  <Mm>
0.68

>  <Mv>
0.67

>  <Mse>
1.01

>  <Mp>
0.71

>  <Mi>
1.12

>  <NsCH3>
1

>  <NdCH2>
0

>  <NssCH2>
2

>  <NtCH>
0

>  <NdsCH>
0

>  <NaaCH>
8

>  <NsssCH>
1

>  <NddC>
0

>  <NtsC>
0

>  <NdssC>
1

>  <NaasC>
4

>  <NaaaC>
0

>  <NssssC>
1

>  <NsNH3>
0

>  <NsNH2>
0

>  <NssNH2>
0

>  <NdNH>
0

>  <NssNH>
1

>  <NaaNH>
0

>  <NtN>
0

>  <NsssNH>
0

>  <NdsN>
0

>  <NaaN>
0

>  <NsssN>
1

>  <NddsN>
0

>  <NaasN>
0

>  <NssssN>
0

>  <NsOH>
0

>  <NdO>
1

>  <NssO>
1

>  <NaaO>
0

>  <NsF>
0

>  <NsSiH3>
0

>  <NssSiH2>
0

>  <NsssSiH>
0

>  <NssssSi>
0

>  <NsPH2>
0

>  <NssPH>
0

>  <NsssP>
0

>  <NdsssP>
0

>  <NsssssP>
0

>  <NsSH>
0

>  <NdS>
0

>  <NssS>
0

>  <NaaS>
0

>  <NdssS>
0

>  <NddssS>
0

>  <NsCl>
1

>  <NsBr>
0

>  <NsI>
0

>  <fragCpx>
170.05

>  <fMF>
0.5

>  <nHBAcc>
3

>  <nHBDon>
1

>  <Kier1>
16.47

>  <Kier2>
6.38

>  <Lipinski>
1

>  <GhoseFilter>
1

>  <FilterItLogS>
-4.84

>  <VMcGowan>
234.88

>  <LabuteASA>
139.55

>  <PEOE_VSA1>
10.05

>  <PEOE_VSA2>
9.69

>  <PEOE_VSA3>
0

>  <PEOE_VSA4>
0

>  <PEOE_VSA5>
0

>  <PEOE_VSA6>
41.93

>  <PEOE_VSA7>
25.12

>  <PEOE_VSA8>
28.38

>  <PEOE_VSA9>
12.65

>  <PEOE_VSA10>
0

>  <PEOE_VSA11>
5.72

>  <PEOE_VSA12>
5.91

>  <PEOE_VSA13>
0

>  <SMR_VSA1>
9.53

>  <SMR_VSA2>
0

>  <SMR_VSA3>
4.9

>  <SMR_VSA4>
0

>  <SMR_VSA5>
18.75

>  <SMR_VSA6>
18.41

>  <SMR_VSA7>
64.68

>  <SMR_VSA8>
0

>  <SMR_VSA9>
0

>  <SlogP_VSA1>
5.32

>  <SlogP_VSA2>
30

>  <SlogP_VSA3>
15.26

>  <SlogP_VSA4>
0

>  <SlogP_VSA5>
18.05

>  <SlogP_VSA6>
48.53

>  <SlogP_VSA7>
5.02

>  <SlogP_VSA8>
0

>  <SlogP_VSA9>
0

>  <SlogP_VSA10>
5.69

>  <SlogP_VSA11>
0

>  <EState_VSA1>
5.72

>  <EState_VSA2>
18.56

>  <EState_VSA3>
11.57

>  <EState_VSA4>
16.81

>  <EState_VSA5>
0

>  <EState_VSA6>
6.07

>  <EState_VSA7>
49.39

>  <EState_VSA8>
10.22

>  <EState_VSA9>
16.34

>  <EState_VSA10>
4.79

>  <VSA_EState1>
6.42

>  <VSA_EState2>
14.4

>  <VSA_EState3>
3.59

>  <VSA_EState4>
1.84

>  <VSA_EState5>
-0.04

>  <VSA_EState6>
15.53

>  <VSA_EState7>
0.02

>  <VSA_EState8>
3

>  <VSA_EState9>
0

>  <apol>
47.38

>  <bpol>
22.45

>  <nRing>
4

>  <nHRing>
2

>  <naRing>
2

>  <naHRing>
0

>  <nARing 2>
2

>  <nAHRing 2>
2

>  <nFRing>
1

>  <nFHRing>
1

>  <nFaRing>
0

>  <nFaHRing>
0

>  <nFARing 2>
1

>  <nFAHRing 2>
1

>  <nRot>
1

>  <SLogP>
3.21

>  <SMR>
89.42

>  <TopoPSA(NO)>
41.57

>  <TopoPSA>
41.57

>  <JGI1>
0.23

>  <JGI2>
0.08

>  <JGI3>
0.06

>  <JGI4>
0.04

>  <JGI5>
0.03

>  <Diameter>
8

>  <Radius>
4

>  <TMWC10>
126.49

>  <TSRW10>
72.77

>  <MW>
328.1

>  <AMW>
8.2

>  <WPath>
975

>  <WPol>
45

>  <Zagreb1>
130

>  <Zagreb2>
160

>  <mZagreb2>
4.9

>  <yes>


>  <nAR-cont>
1

>  <nHA-cont>
0.967789328

>  <MWHBN>
0.220829392

>  <MWHBN-cont>
0.994424555

>  <TPSA-cont>
0.709815587

>  <pka_cont>
0.97

>  <yes.1>


>  <BBB_SCORE>
5.364057333

>  <MMFF94 Energy>
69.465

$$$$
Compound 1589
Actelion Java MolfileCreator 2.0

  0  0  0  0  0  0              0 V3000
M  V30 BEGIN CTAB
M  V30 COUNTS 71 74 0 0 0
M  V30 BEGIN ATOM
M  V30 1 F 0.0806 -2.5826 -2.2595 0
M  V30 2 C -1.066 -1.8167 -2.1159 0 CFG=2
M  V30 3 C -2.0087 -2.2094 -3.3286 0
M  V30 4 C -0.5606 -0.3416 -2.1024 0 CFG=1
M  V30 5 C -1.6802 -2.235 -0.7393 0
M  V30 6 C -2.3378 -3.7082 -3.2025 0
M  V30 7 C -1.3253 -1.9151 -4.6642 0
M  V30 8 C -3.3467 -1.4341 -3.3599 0
M  V30 9 O -1.6273 0.598 -2.1846 0
M  V30 10 C 0.3172 -0.0073 -0.8741 0
M  V30 11 C -0.6804 -1.8997 0.3797 0 CFG=1
M  V30 12 C -2.0249 -3.7344 -0.7279 0
M  V30 13 C -2.0774 -4.6136 -4.1632 0
M  V30 14 C -2.9334 -4.1295 -1.8844 0 CFG=2
M  V30 15 C -1.0677 -2.8217 -5.6163 0
M  V30 16 C -0.3313 -0.3926 0.4772 0
M  V30 17 C -1.0399 -2.2917 1.8085 0
M  V30 18 C -1.4395 -4.2378 -5.4396 0
M  V30 19 F -3.1136 -5.4801 -1.8261 0
M  V30 20 C 0.6176 -0.4235 1.7263 0 CFG=1
M  V30 21 C -1.5659 0.501 0.7718 0
M  V30 22 C -0.1312 -1.4084 2.6978 0 CFG=2
M  V30 23 O -1.2286 -5.0638 -6.3181 0
M  V30 24 O 1.8831 -0.9675 1.3397 0
M  V30 25 C 0.8857 0.9517 2.3889 0
M  V30 26 C 0.7694 -2.2546 3.5937 0
M  V30 27 O 0.5636 1.1788 3.5583 0
M  V30 28 C 1.5926 2.0028 1.5396 0
M  V30 29 O 2.1081 3.0487 2.365 0
M  V30 30 C 2.5805 4.1212 1.672 0
M  V30 31 O 2.58 4.1966 0.4497 0
M  V30 32 C 3.1045 5.2024 2.6196 0
M  V30 33 C 3.6217 6.3949 1.7996 0
M  V30 34 C 1.9656 5.6786 3.5311 0
M  V30 35 C 4.2573 4.6326 3.4565 0
M  V30 36 H 0.069 -0.1823 -2.9855 0
M  V30 37 H -2.6116 -1.6861 -0.5685 0
M  V30 38 H -1.0505 -0.8821 -4.867 0
M  V30 39 H -3.2221 -0.3999 -3.6982 0
M  V30 40 H -4.0551 -1.8977 -4.0595 0
M  V30 41 H -3.8392 -1.4013 -2.3837 0
M  V30 42 H -1.2348 1.4823 -2.3043 0
M  V30 43 H 0.5491 1.0622 -0.8858 0
M  V30 44 H 1.2701 -0.5365 -0.9965 0
M  V30 45 H 0.2415 -2.4554 0.1433 0
M  V30 46 H -1.1082 -4.3383 -0.763 0
M  V30 47 H -2.5227 -4.0059 0.2108 0
M  V30 48 H -2.3031 -5.6687 -4.0487 0
M  V30 49 H -3.9242 -3.6801 -1.7605 0
M  V30 50 H -0.5911 -2.5638 -6.5543 0
M  V30 51 H -2.0942 -2.0774 2.0205 0
M  V30 52 H -0.8839 -3.3619 1.9815 0
M  V30 53 H -1.3061 1.5621 0.6961 0
M  V30 54 H -1.9705 0.3447 1.7766 0
M  V30 55 H -2.3955 0.3288 0.0837 0
M  V30 56 H -0.7976 -0.8431 3.3626 0
M  V30 57 H 2.4138 -1.1178 2.1431 0
M  V30 58 H 0.1649 -2.858 4.2797 0
M  V30 59 H 1.3906 -2.9431 3.0116 0
M  V30 60 H 1.4255 -1.6204 4.1985 0
M  V30 61 H 2.4255 1.5348 1.0066 0
M  V30 62 H 0.8602 2.4168 0.8416 0
M  V30 63 H 2.8268 6.8251 1.1791 0
M  V30 64 H 4.0047 7.1891 2.4502 0
M  V30 65 H 4.4332 6.0927 1.1274 0
M  V30 66 H 1.1135 6.0371 2.9421 0
M  V30 67 H 1.5981 4.8706 4.174 0
M  V30 68 H 2.2943 6.4958 4.1829 0
M  V30 69 H 5.0536 4.2399 2.8138 0
M  V30 70 H 3.9223 3.8092 4.0975 0
M  V30 71 H 4.6935 5.4002 4.1055 0
M  V30 END ATOM
M  V30 BEGIN BOND
M  V30 1 1 1 2
M  V30 2 1 2 3
M  V30 3 1 2 4
M  V30 4 1 2 5
M  V30 5 1 3 6
M  V30 6 1 3 7
M  V30 7 1 3 8
M  V30 8 1 4 9
M  V30 9 1 4 10
M  V30 10 1 5 11
M  V30 11 1 5 12
M  V30 12 2 6 13
M  V30 13 1 6 14
M  V30 14 2 7 15
M  V30 15 1 10 16
M  V30 16 1 11 17
M  V30 17 1 13 18
M  V30 18 1 14 19
M  V30 19 1 16 20
M  V30 20 1 16 21
M  V30 21 1 17 22
M  V30 22 2 18 23
M  V30 23 1 20 24
M  V30 24 1 20 25
M  V30 25 1 22 26
M  V30 26 2 25 27
M  V30 27 1 25 28
M  V30 28 1 28 29
M  V30 29 1 29 30
M  V30 30 2 30 31
M  V30 31 1 30 32
M  V30 32 1 32 33
M  V30 33 1 32 34
M  V30 34 1 32 35
M  V30 35 1 11 16
M  V30 36 1 12 14
M  V30 37 1 15 18
M  V30 38 1 20 22
M  V30 39 1 4 36
M  V30 40 1 5 37
M  V30 41 1 7 38
M  V30 42 1 8 39
M  V30 43 1 8 40
M  V30 44 1 8 41
M  V30 45 1 9 42
M  V30 46 1 10 43
M  V30 47 1 10 44
M  V30 48 1 11 45
M  V30 49 1 12 46
M  V30 50 1 12 47
M  V30 51 1 13 48
M  V30 52 1 14 49
M  V30 53 1 15 50
M  V30 54 1 17 51
M  V30 55 1 17 52
M  V30 56 1 21 53
M  V30 57 1 21 54
M  V30 58 1 21 55
M  V30 59 1 22 56
M  V30 60 1 24 57
M  V30 61 1 26 58
M  V30 62 1 26 59
M  V30 63 1 26 60
M  V30 64 1 28 61
M  V30 65 1 28 62
M  V30 66 1 33 63
M  V30 67 1 33 64
M  V30 68 1 33 65
M  V30 69 1 34 66
M  V30 70 1 34 67
M  V30 71 1 34 68
M  V30 72 1 35 69
M  V30 73 1 35 70
M  V30 74 1 35 71
M  V30 END BOND
M  V30 BEGIN COLLECTION
M  V30 MDLV30/STEABS ATOMS=(6 2 4 11 14 20 22)
M  V30 END COLLECTION
M  V30 END CTAB
M  END
>  <Column 1>
1928

>  <level_0>
2095

>  <index>
2095

>  <Unnamed: 0>
2095

>  <NO.>
2107

>  <Name>
locacorten

>  <IUPAC_name>
[2-[(6s-9r-11s-14s-16r-17r)-6-9-difluoro-11-17-dihydroxy-10-13-16-trimethyl-3-oxo-6-7-8-11-12-14-15-16-octahydrocyclopenta[a]phenanthren-17-yl]-2-oxoethyl] 2-2-dimethylpropanoate

>  <SMILES>
C[C@@H]1C[C@H]2C3C[C@H](F)C4=CC(=O)C=CC4(C)[C@@]3(F)[C@@H](O)CC2(C)[C@@]1(O)C(=O)COC(=O)C(C)(C)C

>  <CID>
16158

>  <logBB>


>  <BBB+/BBB->
BBB+

>  <Inchi>
InChI=1S/C27H36F2O6/c1-14-9-16-17-11-19(28)18-10-15(30)7-8-24(18-5)26(17-29)20(31)12-25(16-6)27(14-34)21(32)13-35-22(33)23(2-3)4/h7-8-10-14-16-17-19-20-31-34H-9-11-13H2-1-6H3/t14--16+-17?-19+-20+-24?-25?-26+-27+/m1/s1

>  <threshold>
-1

>  <reference>
R1|R27|R30|

>  <group>
B

>  <Class>
1

>  <ABC>
27.94

>  <ABCGG>
23.17

>  <nAcid>
0

>  <nBase>
0

>  <nAromAtom>
0

>  <nAromBond>
0

>  <nAtom>
71

>  <nHeavyAtom>
35

>  <nSpiro>
0

>  <nBridgehead>
0

>  <nHetero>
8

>  <nN>
0

>  <nO>
6

>  <nF>
2

>  <BalabanJ>
1.67

>  <BertzCT>
1029.18

>  <nBonds>
74

>  <nBondsO>
38

>  <nBondsS>
69

>  <nBondsD>
5

>  <nBondsT>
0

>  <nBondsA>
0

>  <nBondsM>
5

>  <nBondsKS>
69

>  <nBondsKD>
5

>  <RNCG>
0.15

>  <RPCG>
0.1

>  <FCSP3>
0.74

>  <SZ>
44

>  <Sm>
41.18

>  <Sv>
42.33

>  <Sse>
71.88

>  <Sp>
44.92

>  <Si>
80.83

>  <MZ>
0.62

>  <Mm>
0.58

>  <Mv>
0.6

>  <Mse>
1.01

>  <Mp>
0.63

>  <Mi>
1.14

>  <NsCH3>
6

>  <NdCH2>
0

>  <NssCH2>
4

>  <NtCH>
0

>  <NdsCH>
3

>  <NaaCH>
0

>  <NsssCH>
5

>  <NddC>
0

>  <NtsC>
0

>  <NdssC>
4

>  <NaasC>
0

>  <NaaaC>
0

>  <NssssC>
5

>  <NsNH3>
0

>  <NsNH2>
0

>  <NssNH2>
0

>  <NdNH>
0

>  <NssNH>
0

>  <NaaNH>
0

>  <NtN>
0

>  <NsssNH>
0

>  <NdsN>
0

>  <NaaN>
0

>  <NsssN>
0

>  <NddsN>
0

>  <NaasN>
0

>  <NssssN>
0

>  <NsOH>
2

>  <NdO>
3

>  <NssO>
1

>  <NaaO>
0

>  <NsF>
2

>  <NsSiH3>
0

>  <NssSiH2>
0

>  <NsssSiH>
0

>  <NssssSi>
0

>  <NsPH2>
0

>  <NssPH>
0

>  <NsssP>
0

>  <NdsssP>
0

>  <NsssssP>
0

>  <NsSH>
0

>  <NdS>
0

>  <NssS>
0

>  <NaaS>
0

>  <NdssS>
0

>  <NddssS>
0

>  <NsCl>
0

>  <NsBr>
0

>  <NsI>
0

>  <fragCpx>
254.08

>  <fMF>
0.24

>  <nHBAcc>
6

>  <nHBDon>
2

>  <Kier1>
28.02

>  <Kier2>
8.76

>  <Lipinski>
1

>  <GhoseFilter>
0

>  <FilterItLogS>
-4.22

>  <VMcGowan>
365.09

>  <LabuteASA>
204.34

>  <PEOE_VSA1>
14.95

>  <PEOE_VSA2>
14.38

>  <PEOE_VSA3>
8.78

>  <PEOE_VSA4>
0

>  <PEOE_VSA5>
0

>  <PEOE_VSA6>
19.92

>  <PEOE_VSA7>
76.52

>  <PEOE_VSA8>
16.75

>  <PEOE_VSA9>
11.52

>  <PEOE_VSA10>
11.77

>  <PEOE_VSA11>
18.06

>  <PEOE_VSA12>
5.78

>  <PEOE_VSA13>
0

>  <SMR_VSA1>
38.11

>  <SMR_VSA2>
0

>  <SMR_VSA3>
0

>  <SMR_VSA4>
34

>  <SMR_VSA5>
84.35

>  <SMR_VSA6>
6.61

>  <SMR_VSA7>
23.8

>  <SMR_VSA8>
0

>  <SMR_VSA9>
0

>  <SlogP_VSA1>
0

>  <SlogP_VSA2>
57.9

>  <SlogP_VSA3>
19.12

>  <SlogP_VSA4>
34

>  <SlogP_VSA5>
60.8

>  <SlogP_VSA6>
23.8

>  <SlogP_VSA7>
0

>  <SlogP_VSA8>
0

>  <SlogP_VSA9>
0

>  <SlogP_VSA10>
8.78

>  <SlogP_VSA11>
0

>  <EState_VSA1>
81.69

>  <EState_VSA2>
24.84

>  <EState_VSA3>
0

>  <EState_VSA4>
6.08

>  <EState_VSA5>
19.08

>  <EState_VSA6>
34.62

>  <EState_VSA7>
0

>  <EState_VSA8>
0

>  <EState_VSA9>
4.74

>  <EState_VSA10>
24.6

>  <VSA_EState1>
37.81

>  <VSA_EState2>
37.53

>  <VSA_EState3>
23.16

>  <VSA_EState4>
-7.87

>  <VSA_EState5>
-3.94

>  <VSA_EState6>
0

>  <VSA_EState7>
0.25

>  <VSA_EState8>
9.15

>  <VSA_EState9>
0

>  <apol>
75.02

>  <bpol>
42.68

>  <nRing>
4

>  <nHRing>
0

>  <naRing>
0

>  <naHRing>
0

>  <nARing 2>
4

>  <nAHRing 2>
0

>  <nFRing>
1

>  <nFHRing>
0

>  <nFaRing>
0

>  <nFaHRing>
0

>  <nFARing 2>
1

>  <nFAHRing 2>
0

>  <nRot>
3

>  <SLogP>
3.44

>  <SMR>
123.55

>  <TopoPSA(NO)>
100.9

>  <TopoPSA>
100.9

>  <JGI1>
0.36

>  <JGI2>
0.16

>  <JGI3>
0.08

>  <JGI4>
0.06

>  <JGI5>
0.04

>  <Diameter>
15

>  <Radius>
8

>  <TMWC10>
156.03

>  <TSRW10>
87.95

>  <MW>
494.25

>  <AMW>
6.96

>  <WPath>
3336

>  <WPol>
82

>  <Zagreb1>
206

>  <Zagreb2>
264

>  <mZagreb2>
7.1

>  <yes>


>  <nAR-cont>
0.199399

>  <nHA-cont>
0.523063577

>  <MWHBN>
0.359845974

>  <MWHBN-cont>
0.633009866

>  <TPSA-cont>
0.295655345

>  <pka_cont>
0.97

>  <yes.1>


>  <BBB_SCORE>
2.748288066

>  <MMFF94 Energy>
157.92

$$$$
Compound 1590
Actelion Java MolfileCreator 2.0

  0  0  0  0  0  0              0 V3000
M  V30 BEGIN CTAB
M  V30 COUNTS 56 59 0 0 0
M  V30 BEGIN ATOM
M  V30 1 Cl 2.3005 -1.2319 0.0 0
M  V30 2 C 0.7935 -0.7955 1.0069 0 CFG=2
M  V30 3 C 1.1903 -0.9635 2.548 0 CFG=2
M  V30 4 C -0.3246 -1.771 0.4885 0 CFG=1
M  V30 5 C 0.4145 0.7069 0.7016 0 CFG=2
M  V30 6 C 2.286 0.0718 2.8799 0
M  V30 7 C 1.665 -2.385 2.8578 0
M  V30 8 C 0.0253 -0.7095 3.5392 0
M  V30 9 O -1.4594 -1.7922 1.3521 0
M  V30 10 C -0.816 -1.4726 -0.9527 0
M  V30 11 C 0.0075 0.8782 -0.7722 0 CFG=1
M  V30 12 C 1.535 1.6862 1.1045 0
M  V30 13 C 3.4865 -0.2567 3.3905 0
M  V30 14 C 1.9593 1.5104 2.5615 0
M  V30 15 C 2.8627 -2.7014 3.3684 0
M  V30 16 C -1.2066 0.007 -1.1801 0 CFG=1
M  V30 17 C -0.3584 2.2723 -1.2778 0
M  V30 18 C 3.8573 -1.6572 3.6808 0
M  V30 19 C -1.3573 0.4616 -2.6748 0 CFG=1
M  V30 20 C -2.4986 0.3452 -0.3839 0
M  V30 21 C -1.1693 2.0176 -2.5763 0 CFG=2
M  V30 22 O 4.9456 -1.9407 4.1656 0
M  V30 23 O -0.2931 -0.1134 -3.435 0
M  V30 24 C -2.7238 0.0709 -3.2919 0
M  V30 25 C -0.5107 2.6671 -3.7902 0
M  V30 26 O -3.712 0.8071 -3.2207 0
M  V30 27 C -2.8153 -1.2642 -3.9919 0
M  V30 28 Cl -2.3815 -1.0381 -5.6965 0
M  V30 29 H 0.065 -2.7966 0.4959 0
M  V30 30 H -0.4505 0.9772 1.3155 0
M  V30 31 H 0.9649 -3.1952 2.6659 0
M  V30 32 H -0.5475 0.1916 3.3038 0
M  V30 33 H -0.6804 -1.5459 3.5815 0
M  V30 34 H 0.4001 -0.5858 4.5646 0
M  V30 35 H -2.051 -2.5062 1.0539 0
M  V30 36 H -1.6789 -2.1108 -1.1803 0
M  V30 37 H -0.0245 -1.7662 -1.6514 0
M  V30 38 H 0.8756 0.5812 -1.3774 0
M  V30 39 H 1.1914 2.7193 0.9717 0
M  V30 40 H 2.4061 1.569 0.4487 0
M  V30 41 H 4.2533 0.4776 3.6097 0
M  V30 42 H 1.156 1.8547 3.2239 0
M  V30 43 H 2.8164 2.1658 2.7594 0
M  V30 44 H 3.155 -3.7223 3.5811 0
M  V30 45 H 0.5348 2.8812 -1.454 0
M  V30 46 H -0.978 2.8055 -0.547 0
M  V30 47 H -2.8846 1.3449 -0.6048 0
M  V30 48 H -3.2963 -0.367 -0.6245 0
M  V30 49 H -2.3604 0.3137 0.6981 0
M  V30 50 H -2.1412 2.5104 -2.4462 0
M  V30 51 H -0.3321 0.2327 -4.3463 0
M  V30 52 H 0.5189 2.3216 -3.9287 0
M  V30 53 H -1.0765 2.4494 -4.7018 0
M  V30 54 H -0.4783 3.7554 -3.6689 0
M  V30 55 H -3.8409 -1.6394 -3.9336 0
M  V30 56 H -2.1494 -2.001 -3.539 0
M  V30 END ATOM
M  V30 BEGIN BOND
M  V30 1 1 1 2
M  V30 2 1 2 3
M  V30 3 1 2 4
M  V30 4 1 2 5
M  V30 5 1 3 6
M  V30 6 1 3 7
M  V30 7 1 3 8
M  V30 8 1 4 9
M  V30 9 1 4 10
M  V30 10 1 5 11
M  V30 11 1 5 12
M  V30 12 2 6 13
M  V30 13 1 6 14
M  V30 14 2 7 15
M  V30 15 1 10 16
M  V30 16 1 11 17
M  V30 17 1 13 18
M  V30 18 1 16 19
M  V30 19 1 16 20
M  V30 20 1 17 21
M  V30 21 2 18 22
M  V30 22 1 19 23
M  V30 23 1 19 24
M  V30 24 1 21 25
M  V30 25 2 24 26
M  V30 26 1 24 27
M  V30 27 1 27 28
M  V30 28 1 11 16
M  V30 29 1 12 14
M  V30 30 1 15 18
M  V30 31 1 19 21
M  V30 32 1 4 29
M  V30 33 1 5 30
M  V30 34 1 7 31
M  V30 35 1 8 32
M  V30 36 1 8 33
M  V30 37 1 8 34
M  V30 38 1 9 35
M  V30 39 1 10 36
M  V30 40 1 10 37
M  V30 41 1 11 38
M  V30 42 1 12 39
M  V30 43 1 12 40
M  V30 44 1 13 41
M  V30 45 1 14 42
M  V30 46 1 14 43
M  V30 47 1 15 44
M  V30 48 1 17 45
M  V30 49 1 17 46
M  V30 50 1 20 47
M  V30 51 1 20 48
M  V30 52 1 20 49
M  V30 53 1 21 50
M  V30 54 1 23 51
M  V30 55 1 25 52
M  V30 56 1 25 53
M  V30 57 1 25 54
M  V30 58 1 27 55
M  V30 59 1 27 56
M  V30 END BOND
M  V30 BEGIN COLLECTION
M  V30 MDLV30/STEABS ATOMS=(8 2 3 4 5 11 16 19 21)
M  V30 END COLLECTION
M  V30 END CTAB
M  END
>  <Column 1>
1929

>  <level_0>
2096

>  <index>
2096

>  <Unnamed: 0>
2096

>  <NO.>
2108

>  <Name>
mometasone

>  <IUPAC_name>
(8s-9r-10s-11s-13s-14s-16r-17r)-9-chloro-17-(2-chloroacetyl)-11-17-dihydroxy-10-13-16-trimethyl-6-7-8-11-12-14-15-16-octahydrocyclopenta[a]phenanthren-3-one

>  <SMILES>
C[C@@H]1C[C@H]2[C@@H]3CCC4=CC(=O)C=C[C@]4(C)[C@@]3(Cl)[C@@H](O)C[C@]2(C)[C@@]1(O)C(=O)CCl

>  <CID>
441335

>  <logBB>


>  <BBB+/BBB->
BBB+

>  <Inchi>
InChI=1S/C22H28Cl2O4/c1-12-8-16-15-5-4-13-9-14(25)6-7-19(13-2)21(15-24)17(26)10-20(16-3)22(12-28)18(27)11-23/h6-7-9-12-15-17-26-28H-4-5-8-10-11H2-1-3H3/t12--15+-16+-17+-19+-20+-21+-22+/m1/s1

>  <threshold>
-1

>  <reference>
R1|R6|R27|R30|

>  <group>
B

>  <Class>
1

>  <ABC>
22.39

>  <ABCGG>
18.86

>  <nAcid>
0

>  <nBase>
0

>  <nAromAtom>
0

>  <nAromBond>
0

>  <nAtom>
56

>  <nHeavyAtom>
28

>  <nSpiro>
0

>  <nBridgehead>
0

>  <nHetero>
6

>  <nN>
0

>  <nO>
4

>  <nF>
0

>  <BalabanJ>
1.77

>  <BertzCT>
806.36

>  <nBonds>
59

>  <nBondsO>
31

>  <nBondsS>
55

>  <nBondsD>
4

>  <nBondsT>
0

>  <nBondsA>
0

>  <nBondsM>
4

>  <nBondsKS>
55

>  <nBondsKD>
4

>  <RNCG>
0.19

>  <RPCG>
0.1

>  <FCSP3>
0.73

>  <SZ>
37.67

>  <Sm>
35.58

>  <Sv>
34.63

>  <Sse>
56.28

>  <Sp>
37.71

>  <Si>
62.95

>  <MZ>
0.67

>  <Mm>
0.64

>  <Mv>
0.62

>  <Mse>
1.01

>  <Mp>
0.67

>  <Mi>
1.12

>  <NsCH3>
3

>  <NdCH2>
0

>  <NssCH2>
5

>  <NtCH>
0

>  <NdsCH>
3

>  <NaaCH>
0

>  <NsssCH>
4

>  <NddC>
0

>  <NtsC>
0

>  <NdssC>
3

>  <NaasC>
0

>  <NaaaC>
0

>  <NssssC>
4

>  <NsNH3>
0

>  <NsNH2>
0

>  <NssNH2>
0

>  <NdNH>
0

>  <NssNH>
0

>  <NaaNH>
0

>  <NtN>
0

>  <NsssNH>
0

>  <NdsN>
0

>  <NaaN>
0

>  <NsssN>
0

>  <NddsN>
0

>  <NaasN>
0

>  <NssssN>
0

>  <NsOH>
2

>  <NdO>
2

>  <NssO>
0

>  <NaaO>
0

>  <NsF>
0

>  <NsSiH3>
0

>  <NssSiH2>
0

>  <NsssSiH>
0

>  <NssssSi>
0

>  <NsPH2>
0

>  <NssPH>
0

>  <NsssP>
0

>  <NdsssP>
0

>  <NsssssP>
0

>  <NsSH>
0

>  <NdS>
0

>  <NssS>
0

>  <NaaS>
0

>  <NdssS>
0

>  <NddssS>
0

>  <NsCl>
2

>  <NsBr>
0

>  <NsI>
0

>  <fragCpx>
205.06

>  <fMF>
0.3

>  <nHBAcc>
4

>  <nHBDon>
2

>  <Kier1>
21.24

>  <Kier2>
6.5

>  <Lipinski>
1

>  <GhoseFilter>
1

>  <FilterItLogS>
-4.29

>  <VMcGowan>
308.16

>  <LabuteASA>
175.52

>  <PEOE_VSA1>
10.21

>  <PEOE_VSA2>
9.59

>  <PEOE_VSA3>
0

>  <PEOE_VSA4>
0

>  <PEOE_VSA5>
23.2

>  <PEOE_VSA6>
32.42

>  <PEOE_VSA7>
55.59

>  <PEOE_VSA8>
10.83

>  <PEOE_VSA9>
16.86

>  <PEOE_VSA10>
5.6

>  <PEOE_VSA11>
11.57

>  <PEOE_VSA12>
0

>  <PEOE_VSA13>
0

>  <SMR_VSA1>
19.8

>  <SMR_VSA2>
0

>  <SMR_VSA3>
0

>  <SMR_VSA4>
28.58

>  <SMR_VSA5>
63.03

>  <SMR_VSA6>
5.88

>  <SMR_VSA7>
23.8

>  <SMR_VSA8>
0

>  <SMR_VSA9>
0

>  <SlogP_VSA1>
0

>  <SlogP_VSA2>
44.24

>  <SlogP_VSA3>
9.59

>  <SlogP_VSA4>
28.58

>  <SlogP_VSA5>
46.45

>  <SlogP_VSA6>
23.8

>  <SlogP_VSA7>
0

>  <SlogP_VSA8>
0

>  <SlogP_VSA9>
0

>  <SlogP_VSA10>
0

>  <SlogP_VSA11>
0

>  <EState_VSA1>
27.41

>  <EState_VSA2>
41.62

>  <EState_VSA3>
6.42

>  <EState_VSA4>
18.41

>  <EState_VSA5>
0

>  <EState_VSA6>
12.15

>  <EState_VSA7>
26.85

>  <EState_VSA8>
0

>  <EState_VSA9>
23.2

>  <EState_VSA10>
19.8

>  <VSA_EState1>
0

>  <VSA_EState2>
23.67

>  <VSA_EState3>
22.93

>  <VSA_EState4>
-2.01

>  <VSA_EState5>
-1

>  <VSA_EState6>
0

>  <VSA_EState7>
6.47

>  <VSA_EState8>
5.81

>  <VSA_EState9>
0

>  <apol>
62.98

>  <bpol>
30.85

>  <nRing>
4

>  <nHRing>
0

>  <naRing>
0

>  <naHRing>
0

>  <nARing 2>
4

>  <nAHRing 2>
0

>  <nFRing>
1

>  <nFHRing>
0

>  <nFaRing>
0

>  <nFaHRing>
0

>  <nFARing 2>
1

>  <nFAHRing 2>
0

>  <nRot>
2

>  <SLogP>
3.41

>  <SMR>
108.32

>  <TopoPSA(NO)>
74.6

>  <TopoPSA>
74.6

>  <JGI1>
0.32

>  <JGI2>
0.16

>  <JGI3>
0.08

>  <JGI4>
0.06

>  <JGI5>
0.04

>  <Diameter>
12

>  <Radius>
6

>  <TMWC10>
140.69

>  <TSRW10>
80.08

>  <MW>
426.14

>  <AMW>
7.61

>  <WPath>
1670

>  <WPol>
70

>  <Zagreb1>
168

>  <Zagreb2>
221

>  <mZagreb2>
5.82

>  <yes>


>  <nAR-cont>
0.199399

>  <nHA-cont>
0.82432561

>  <MWHBN>
0.290653194

>  <MWHBN-cont>
0.867735515

>  <TPSA-cont>
0.479245676

>  <pka_cont>
0.97

>  <yes.1>


>  <BBB_SCORE>
3.768819235

>  <MMFF94 Energy>
165.63

$$$$
Compound 1591
Actelion Java MolfileCreator 2.0

  0  0  0  0  0  0              0 V3000
M  V30 BEGIN CTAB
M  V30 COUNTS 59 62 0 0 0
M  V30 BEGIN ATOM
M  V30 1 F -0.2421 1.4533 -1.7765 0
M  V30 2 C -0.9016 0.2613 -1.5073 0 CFG=2
M  V30 3 C -1.5431 -0.2082 -2.8773 0 CFG=2
M  V30 4 C -1.9157 0.6178 -0.3757 0 CFG=1
M  V30 5 C 0.2064 -0.7269 -1.0097 0 CFG=2
M  V30 6 C -0.3933 -0.4514 -3.8735 0
M  V30 7 C -2.5118 0.8454 -3.4149 0
M  V30 8 C -2.3586 -1.5177 -2.7708 0
M  V30 9 O -2.8272 -0.4414 -0.1055 0
M  V30 10 C -1.218 1.0581 0.9328 0
M  V30 11 C 0.8453 -0.1656 0.2738 0 CFG=1
M  V30 12 C 1.2796 -0.9449 -2.0938 0
M  V30 13 C -0.2911 0.1694 -5.0623 0
M  V30 14 C 0.68 -1.4059 -3.418 0
M  V30 15 C -2.4046 1.4617 -4.5995 0
M  V30 16 C -0.1547 0.0541 1.4314 0 CFG=1
M  V30 17 C 1.9778 -0.952 0.9217 0
M  V30 18 C -1.2902 1.1579 -5.5159 0
M  V30 19 C 0.8279 0.5562 2.5731 0 CFG=2
M  V30 20 C -0.8434 -1.277 1.8691 0
M  V30 21 C 2.0512 -0.4223 2.3794 0 CFG=2
M  V30 22 O -1.1973 1.7028 -6.6086 0
M  V30 23 C 0.1722 0.465 3.9699 0
M  V30 24 C 1.2272 2.0431 2.4364 0
M  V30 25 C 3.4371 0.1509 2.6747 0
M  V30 26 O -1.0313 0.6997 4.1376 0
M  V30 27 C 1.0504 0.2108 5.1937 0
M  V30 28 O 0.278 0.1994 6.3889 0
M  V30 29 H -2.5183 1.4727 -0.7033 0
M  V30 30 H -0.2394 -1.7036 -0.799 0
M  V30 31 H -3.371 1.0923 -2.7948 0
M  V30 32 H -1.8321 -2.2992 -2.2153 0
M  V30 33 H -2.58 -1.9267 -3.7657 0
M  V30 34 H -3.3281 -1.3665 -2.284 0
M  V30 35 H -3.3999 -0.1592 0.6313 0
M  V30 36 H -0.7535 2.0302 0.7323 0
M  V30 37 H -1.9688 1.221 1.7148 0
M  V30 38 H 1.276 0.8052 -0.0104 0
M  V30 39 H 1.843 -0.016 -2.2538 0
M  V30 40 H 2.0032 -1.6974 -1.759 0
M  V30 41 H 0.5319 -0.0014 -5.7466 0
M  V30 42 H 0.2603 -2.4129 -3.3112 0
M  V30 43 H 1.483 -1.4868 -4.1608 0
M  V30 44 H -3.1247 2.1941 -4.9434 0
M  V30 45 H 1.7589 -2.0265 0.9248 0
M  V30 46 H 2.919 -0.8153 0.3781 0
M  V30 47 H -1.7009 -1.0813 2.5219 0
M  V30 48 H -0.17 -1.9409 2.4198 0
M  V30 49 H -1.2223 -1.8634 1.0303 0
M  V30 50 H 1.9301 -1.2941 3.0342 0
M  V30 51 H 0.3586 2.701 2.5565 0
M  V30 52 H 1.9332 2.3413 3.22 0
M  V30 53 H 1.6922 2.2737 1.4743 0
M  V30 54 H 3.6991 0.96 1.9854 0
M  V30 55 H 4.1992 -0.6287 2.5652 0
M  V30 56 H 3.5052 0.5317 3.6973 0
M  V30 57 H 1.5434 -0.7587 5.1146 0
M  V30 58 H 1.7904 1.009 5.2816 0
M  V30 59 H -0.6173 0.509 6.1381 0
M  V30 END ATOM
M  V30 BEGIN BOND
M  V30 1 1 1 2
M  V30 2 1 2 3
M  V30 3 1 2 4
M  V30 4 1 2 5
M  V30 5 1 3 6
M  V30 6 1 3 7
M  V30 7 1 3 8
M  V30 8 1 4 9
M  V30 9 1 4 10
M  V30 10 1 5 11
M  V30 11 1 5 12
M  V30 12 2 6 13
M  V30 13 1 6 14
M  V30 14 2 7 15
M  V30 15 1 10 16
M  V30 16 1 11 17
M  V30 17 1 13 18
M  V30 18 1 16 19
M  V30 19 1 16 20
M  V30 20 1 17 21
M  V30 21 2 18 22
M  V30 22 1 19 23
M  V30 23 1 19 24
M  V30 24 1 21 25
M  V30 25 2 23 26
M  V30 26 1 23 27
M  V30 27 1 27 28
M  V30 28 1 11 16
M  V30 29 1 12 14
M  V30 30 1 15 18
M  V30 31 1 19 21
M  V30 32 1 4 29
M  V30 33 1 5 30
M  V30 34 1 7 31
M  V30 35 1 8 32
M  V30 36 1 8 33
M  V30 37 1 8 34
M  V30 38 1 9 35
M  V30 39 1 10 36
M  V30 40 1 10 37
M  V30 41 1 11 38
M  V30 42 1 12 39
M  V30 43 1 12 40
M  V30 44 1 13 41
M  V30 45 1 14 42
M  V30 46 1 14 43
M  V30 47 1 15 44
M  V30 48 1 17 45
M  V30 49 1 17 46
M  V30 50 1 20 47
M  V30 51 1 20 48
M  V30 52 1 20 49
M  V30 53 1 21 50
M  V30 54 1 24 51
M  V30 55 1 24 52
M  V30 56 1 24 53
M  V30 57 1 25 54
M  V30 58 1 25 55
M  V30 59 1 25 56
M  V30 60 1 27 57
M  V30 61 1 27 58
M  V30 62 1 28 59
M  V30 END BOND
M  V30 BEGIN COLLECTION
M  V30 MDLV30/STEABS ATOMS=(8 2 3 4 5 11 16 19 21)
M  V30 END COLLECTION
M  V30 END CTAB
M  END
>  <Column 1>
1930

>  <level_0>
2097

>  <index>
2097

>  <Unnamed: 0>
2097

>  <NO.>
2109

>  <Name>
dimesone

>  <IUPAC_name>
(8s-9r-10s-11s-13s-14s-16r-17s)-9-fluoro-11-hydroxy-17-(2-hydroxyacetyl)-10-13-16-17-tetramethyl-6-7-8-11-12-14-15-16-octahydrocyclopenta[a]phenanthren-3-one

>  <SMILES>
C[C@@H]1C[C@H]2[C@@H]3CCC4=CC(=O)C=C[C@]4(C)[C@@]3(F)[C@@H](O)C[C@]2(C)[C@@]1(C)C(=O)CO

>  <CID>
208841

>  <logBB>


>  <BBB+/BBB->
BBB+

>  <Inchi>
InChI=1S/C23H31FO4/c1-13-9-17-16-6-5-14-10-15(26)7-8-20(14-2)23(16-24)18(27)11-21(17-3)22(13-4)19(28)12-25/h7-8-10-13-16-18-25-27H-5-6-9-11-12H2-1-4H3/t13--16+-17+-18+-20+-21+-22--23+/m1/s1

>  <threshold>
-1

>  <reference>
R1|R27|R30|

>  <group>
B

>  <Class>
1

>  <ABC>
22.39

>  <ABCGG>
18.86

>  <nAcid>
0

>  <nBase>
0

>  <nAromAtom>
0

>  <nAromBond>
0

>  <nAtom>
59

>  <nHeavyAtom>
28

>  <nSpiro>
0

>  <nBridgehead>
0

>  <nHetero>
5

>  <nN>
0

>  <nO>
4

>  <nF>
1

>  <BalabanJ>
1.77

>  <BertzCT>
802.42

>  <nBonds>
62

>  <nBondsO>
31

>  <nBondsS>
58

>  <nBondsD>
4

>  <nBondsT>
0

>  <nBondsA>
0

>  <nBondsM>
4

>  <nBondsKS>
58

>  <nBondsKD>
4

>  <RNCG>
0.18

>  <RPCG>
0.1

>  <FCSP3>
0.74

>  <SZ>
35

>  <Sm>
32.51

>  <Sv>
34.9

>  <Sse>
59.04

>  <Sp>
37.63

>  <Si>
66.82

>  <MZ>
0.59

>  <Mm>
0.55

>  <Mv>
0.59

>  <Mse>
1

>  <Mp>
0.64

>  <Mi>
1.13

>  <NsCH3>
4

>  <NdCH2>
0

>  <NssCH2>
5

>  <NtCH>
0

>  <NdsCH>
3

>  <NaaCH>
0

>  <NsssCH>
4

>  <NddC>
0

>  <NtsC>
0

>  <NdssC>
3

>  <NaasC>
0

>  <NaaaC>
0

>  <NssssC>
4

>  <NsNH3>
0

>  <NsNH2>
0

>  <NssNH2>
0

>  <NdNH>
0

>  <NssNH>
0

>  <NaaNH>
0

>  <NtN>
0

>  <NsssNH>
0

>  <NdsN>
0

>  <NaaN>
0

>  <NsssN>
0

>  <NddsN>
0

>  <NaasN>
0

>  <NssssN>
0

>  <NsOH>
2

>  <NdO>
2

>  <NssO>
0

>  <NaaO>
0

>  <NsF>
1

>  <NsSiH3>
0

>  <NssSiH2>
0

>  <NsssSiH>
0

>  <NssssSi>
0

>  <NsPH2>
0

>  <NssPH>
0

>  <NsssP>
0

>  <NdsssP>
0

>  <NsssssP>
0

>  <NsSH>
0

>  <NdS>
0

>  <NssS>
0

>  <NaaS>
0

>  <NdssS>
0

>  <NddssS>
0

>  <NsCl>
0

>  <NsBr>
0

>  <NsI>
0

>  <fragCpx>
205.05

>  <fMF>
0.29

>  <nHBAcc>
4

>  <nHBDon>
2

>  <Kier1>
21.24

>  <Kier2>
6.5

>  <Lipinski>
1

>  <GhoseFilter>
1

>  <FilterItLogS>
-3.76

>  <VMcGowan>
299.53

>  <LabuteASA>
165.44

>  <PEOE_VSA1>
10.21

>  <PEOE_VSA2>
9.59

>  <PEOE_VSA3>
4.39

>  <PEOE_VSA4>
0

>  <PEOE_VSA5>
0

>  <PEOE_VSA6>
32.42

>  <PEOE_VSA7>
62.01

>  <PEOE_VSA8>
16.75

>  <PEOE_VSA9>
6.1

>  <PEOE_VSA10>
6.61

>  <PEOE_VSA11>
17.24

>  <PEOE_VSA12>
0

>  <PEOE_VSA13>
0

>  <SMR_VSA1>
24.19

>  <SMR_VSA2>
0

>  <SMR_VSA3>
0

>  <SMR_VSA4>
34

>  <SMR_VSA5>
65.15

>  <SMR_VSA6>
6.61

>  <SMR_VSA7>
23.8

>  <SMR_VSA8>
0

>  <SMR_VSA9>
0

>  <SlogP_VSA1>
0

>  <SlogP_VSA2>
40.16

>  <SlogP_VSA3>
9.59

>  <SlogP_VSA4>
34

>  <SlogP_VSA5>
53.38

>  <SlogP_VSA6>
23.8

>  <SlogP_VSA7>
0

>  <SlogP_VSA8>
0

>  <SlogP_VSA9>
0

>  <SlogP_VSA10>
4.39

>  <SlogP_VSA11>
0

>  <EState_VSA1>
40.54

>  <EState_VSA2>
29.82

>  <EState_VSA3>
19.26

>  <EState_VSA4>
5.57

>  <EState_VSA5>
12.15

>  <EState_VSA6>
13

>  <EState_VSA7>
20.77

>  <EState_VSA8>
0

>  <EState_VSA9>
0

>  <EState_VSA10>
19.8

>  <VSA_EState1>
16.94

>  <VSA_EState2>
24.66

>  <VSA_EState3>
20.84

>  <VSA_EState4>
-3.47

>  <VSA_EState5>
-0.78

>  <VSA_EState6>
0

>  <VSA_EState7>
5.45

>  <VSA_EState8>
7.18

>  <VSA_EState9>
0

>  <apol>
62.85

>  <bpol>
33.95

>  <nRing>
4

>  <nHRing>
0

>  <naRing>
0

>  <naHRing>
0

>  <nARing 2>
4

>  <nAHRing 2>
0

>  <nFRing>
1

>  <nFHRing>
0

>  <nFaRing>
0

>  <nFaHRing>
0

>  <nFARing 2>
1

>  <nFAHRing 2>
0

>  <nRot>
2

>  <SLogP>
3.17

>  <SMR>
103.1

>  <TopoPSA(NO)>
74.6

>  <TopoPSA>
74.6

>  <JGI1>
0.32

>  <JGI2>
0.16

>  <JGI3>
0.08

>  <JGI4>
0.06

>  <JGI5>
0.04

>  <Diameter>
12

>  <Radius>
6

>  <TMWC10>
140.69

>  <TSRW10>
80.08

>  <MW>
390.22

>  <AMW>
6.61

>  <WPath>
1670

>  <WPol>
70

>  <Zagreb1>
168

>  <Zagreb2>
221

>  <mZagreb2>
5.82

>  <yes>


>  <nAR-cont>
0.199399

>  <nHA-cont>
0.82432561

>  <MWHBN>
0.303736153

>  <MWHBN-cont>
0.829434336

>  <TPSA-cont>
0.479245676

>  <pka_cont>
0.97

>  <yes.1>


>  <BBB_SCORE>
3.711367467

>  <MMFF94 Energy>
160.16

$$$$
Compound 1592
Actelion Java MolfileCreator 2.0

  0  0  0  0  0  0              0 V3000
M  V30 BEGIN CTAB
M  V30 COUNTS 56 59 0 0 0
M  V30 BEGIN ATOM
M  V30 1 F -1.1307 1.2115 -1.2923 0
M  V30 2 C -0.2106 0.1811 -1.4332 0 CFG=2
M  V30 3 C 0.288 0.2344 -2.9356 0 CFG=2
M  V30 4 C -1.0017 -1.1029 -1.0293 0 CFG=1
M  V30 5 C 0.9409 0.5039 -0.4223 0 CFG=2
M  V30 6 C 0.9804 1.5933 -3.1504 0
M  V30 7 C -0.8824 0.0632 -3.9042 0
M  V30 8 C 1.3036 -0.8736 -3.2982 0
M  V30 9 O -0.2853 -2.2976 -1.3187 0
M  V30 10 C -1.4312 -1.1094 0.4577 0
M  V30 11 C 0.3605 0.5269 0.9992 0 CFG=1
M  V30 12 C 1.6082 1.8519 -0.7532 0
M  V30 13 C 0.6056 2.4834 -4.0866 0
M  V30 14 C 2.0998 1.9183 -2.1949 0
M  V30 15 C -1.2522 0.9536 -4.8344 0
M  V30 16 C -0.2706 -0.8154 1.4272 0 CFG=1
M  V30 17 C 1.2764 0.8877 2.165 0
M  V30 18 C -0.5259 2.2263 -4.9999 0
M  V30 19 C -0.7018 -0.4343 2.8695 0 CFG=2
M  V30 20 C 0.7305 -1.9978 1.4578 0
M  V30 21 C 0.5091 0.3878 3.4117 0 CFG=2
M  V30 22 O -0.8486 3.0359 -5.86 0
M  V30 23 C -1.0682 -1.6163 3.7687 0
M  V30 24 C 0.0514 1.5374 4.3051 0
M  V30 25 O -0.2383 -2.1584 4.5024 0
M  V30 26 C -2.4848 -2.1841 3.6588 0
M  V30 27 O -3.5157 -1.2351 3.4716 0
M  V30 28 H -1.9264 -1.1404 -1.6168 0
M  V30 29 H 1.714 -0.2684 -0.4861 0
M  V30 30 H -1.4401 -0.869 -3.8503 0
M  V30 31 H 0.8277 -1.8528 -3.4173 0
M  V30 32 H 1.7973 -0.6587 -4.2554 0
M  V30 33 H 2.0939 -0.9832 -2.5498 0
M  V30 34 H -0.8659 -3.0548 -1.1248 0
M  V30 35 H -2.2144 -0.3514 0.5888 0
M  V30 36 H -1.8833 -2.0771 0.7033 0
M  V30 37 H -0.4326 1.2937 0.9997 0
M  V30 38 H 2.4619 2.021 -0.0863 0
M  V30 39 H 0.9011 2.6725 -0.5728 0
M  V30 40 H 1.0939 3.4426 -4.2157 0
M  V30 41 H 2.5077 2.9189 -2.3842 0
M  V30 42 H 2.9294 1.2176 -2.3428 0
M  V30 43 H -2.0821 0.7827 -5.5091 0
M  V30 44 H 2.2388 0.3699 2.0809 0
M  V30 45 H 1.4844 1.9622 2.2031 0
M  V30 46 H -1.5735 0.2321 2.8323 0
M  V30 47 H 1.4927 -1.8826 2.2352 0
M  V30 48 H 0.2084 -2.9403 1.6589 0
M  V30 49 H 1.2724 -2.1247 0.5188 0
M  V30 50 H 1.1882 -0.2366 4.0042 0
M  V30 51 H -0.5933 2.2355 3.7603 0
M  V30 52 H -0.5076 1.1592 5.1672 0
M  V30 53 H 0.9128 2.0991 4.6813 0
M  V30 54 H -2.5119 -2.9124 2.8432 0
M  V30 55 H -2.7015 -2.7142 4.5918 0
M  V30 56 H -3.5326 -0.9775 2.5353 0
M  V30 END ATOM
M  V30 BEGIN BOND
M  V30 1 1 1 2
M  V30 2 1 2 3
M  V30 3 1 2 4
M  V30 4 1 2 5
M  V30 5 1 3 6
M  V30 6 1 3 7
M  V30 7 1 3 8
M  V30 8 1 4 9
M  V30 9 1 4 10
M  V30 10 1 5 11
M  V30 11 1 5 12
M  V30 12 2 6 13
M  V30 13 1 6 14
M  V30 14 2 7 15
M  V30 15 1 10 16
M  V30 16 1 11 17
M  V30 17 1 13 18
M  V30 18 1 16 19
M  V30 19 1 16 20
M  V30 20 1 17 21
M  V30 21 2 18 22
M  V30 22 1 19 23
M  V30 23 1 21 24
M  V30 24 2 23 25
M  V30 25 1 23 26
M  V30 26 1 26 27
M  V30 27 1 11 16
M  V30 28 1 12 14
M  V30 29 1 15 18
M  V30 30 1 19 21
M  V30 31 1 4 28
M  V30 32 1 5 29
M  V30 33 1 7 30
M  V30 34 1 8 31
M  V30 35 1 8 32
M  V30 36 1 8 33
M  V30 37 1 9 34
M  V30 38 1 10 35
M  V30 39 1 10 36
M  V30 40 1 11 37
M  V30 41 1 12 38
M  V30 42 1 12 39
M  V30 43 1 13 40
M  V30 44 1 14 41
M  V30 45 1 14 42
M  V30 46 1 15 43
M  V30 47 1 17 44
M  V30 48 1 17 45
M  V30 49 1 19 46
M  V30 50 1 20 47
M  V30 51 1 20 48
M  V30 52 1 20 49
M  V30 53 1 21 50
M  V30 54 1 24 51
M  V30 55 1 24 52
M  V30 56 1 24 53
M  V30 57 1 26 54
M  V30 58 1 26 55
M  V30 59 1 27 56
M  V30 END BOND
M  V30 BEGIN COLLECTION
M  V30 MDLV30/STEABS ATOMS=(8 2 3 4 5 11 16 19 21)
M  V30 END COLLECTION
M  V30 END CTAB
M  END
>  <Column 1>
1931

>  <level_0>
2098

>  <index>
2098

>  <Unnamed: 0>
2098

>  <NO.>
2110

>  <Name>
desoximetasone

>  <IUPAC_name>
(8s-9r-10s-11s-13s-14s-16r-17s)-9-fluoro-11-hydroxy-17-(2-hydroxyacetyl)-10-13-16-trimethyl-7-8-11-12-14-15-16-17-octahydro-6h-cyclopenta[a]phenanthren-3-one

>  <SMILES>
C[C@@H]1C[C@H]2[C@@H]3CCC4=CC(=O)C=C[C@]4(C)[C@@]3(F)[C@@H](O)C[C@]2(C)[C@H]1C(=O)CO

>  <CID>
5311067

>  <logBB>


>  <BBB+/BBB->
BBB+

>  <Inchi>
InChI=1S/C22H29FO4/c1-12-8-16-15-5-4-13-9-14(25)6-7-21(13-3)22(15-23)18(27)10-20(16-2)19(12)17(26)11-24/h6-7-9-12-15-16-18-19-24-27H-4-5-8-10-11H2-1-3H3/t12--15+-16+-18+-19--20+-21+-22+/m1/s1

>  <threshold>
-1

>  <reference>
R1|R6|R27|R30|

>  <group>
B

>  <Class>
1

>  <ABC>
21.6

>  <ABCGG>
17.98

>  <nAcid>
0

>  <nBase>
0

>  <nAromAtom>
0

>  <nAromBond>
0

>  <nAtom>
56

>  <nHeavyAtom>
27

>  <nSpiro>
0

>  <nBridgehead>
0

>  <nHetero>
5

>  <nN>
0

>  <nO>
4

>  <nF>
1

>  <BalabanJ>
1.73

>  <BertzCT>
757.41

>  <nBonds>
59

>  <nBondsO>
30

>  <nBondsS>
55

>  <nBondsD>
4

>  <nBondsT>
0

>  <nBondsA>
0

>  <nBondsM>
4

>  <nBondsKS>
55

>  <nBondsKD>
4

>  <RNCG>
0.18

>  <RPCG>
0.1

>  <FCSP3>
0.73

>  <SZ>
33.67

>  <Sm>
31.34

>  <Sv>
33.36

>  <Sse>
56.15

>  <Sp>
35.83

>  <Si>
63.41

>  <MZ>
0.6

>  <Mm>
0.56

>  <Mv>
0.6

>  <Mse>
1

>  <Mp>
0.64

>  <Mi>
1.13

>  <NsCH3>
3

>  <NdCH2>
0

>  <NssCH2>
5

>  <NtCH>
0

>  <NdsCH>
3

>  <NaaCH>
0

>  <NsssCH>
5

>  <NddC>
0

>  <NtsC>
0

>  <NdssC>
3

>  <NaasC>
0

>  <NaaaC>
0

>  <NssssC>
3

>  <NsNH3>
0

>  <NsNH2>
0

>  <NssNH2>
0

>  <NdNH>
0

>  <NssNH>
0

>  <NaaNH>
0

>  <NtN>
0

>  <NsssNH>
0

>  <NdsN>
0

>  <NaaN>
0

>  <NsssN>
0

>  <NddsN>
0

>  <NaasN>
0

>  <NssssN>
0

>  <NsOH>
2

>  <NdO>
2

>  <NssO>
0

>  <NaaO>
0

>  <NsF>
1

>  <NsSiH3>
0

>  <NssSiH2>
0

>  <NsssSiH>
0

>  <NssssSi>
0

>  <NsPH2>
0

>  <NssPH>
0

>  <NsssP>
0

>  <NdsssP>
0

>  <NsssssP>
0

>  <NsSH>
0

>  <NdS>
0

>  <NssS>
0

>  <NaaS>
0

>  <NdssS>
0

>  <NddssS>
0

>  <NsCl>
0

>  <NsBr>
0

>  <NsI>
0

>  <fragCpx>
198.05

>  <fMF>
0.3

>  <nHBAcc>
4

>  <nHBDon>
2

>  <Kier1>
20.28

>  <Kier2>
6.5

>  <Lipinski>
1

>  <GhoseFilter>
1

>  <FilterItLogS>
-3.17

>  <VMcGowan>
285.44

>  <LabuteASA>
159.08

>  <PEOE_VSA1>
10.21

>  <PEOE_VSA2>
9.59

>  <PEOE_VSA3>
4.39

>  <PEOE_VSA4>
0

>  <PEOE_VSA5>
0

>  <PEOE_VSA6>
25.5

>  <PEOE_VSA7>
62.01

>  <PEOE_VSA8>
17.25

>  <PEOE_VSA9>
6.1

>  <PEOE_VSA10>
6.61

>  <PEOE_VSA11>
17.24

>  <PEOE_VSA12>
0

>  <PEOE_VSA13>
0

>  <SMR_VSA1>
24.19

>  <SMR_VSA2>
0

>  <SMR_VSA3>
0

>  <SMR_VSA4>
34.5

>  <SMR_VSA5>
58.23

>  <SMR_VSA6>
6.61

>  <SMR_VSA7>
23.8

>  <SMR_VSA8>
0

>  <SMR_VSA9>
0

>  <SlogP_VSA1>
0

>  <SlogP_VSA2>
40.16

>  <SlogP_VSA3>
9.59

>  <SlogP_VSA4>
34.5

>  <SlogP_VSA5>
46.45

>  <SlogP_VSA6>
23.8

>  <SlogP_VSA7>
0

>  <SlogP_VSA8>
0

>  <SlogP_VSA9>
0

>  <SlogP_VSA10>
4.39

>  <SlogP_VSA11>
0

>  <EState_VSA1>
29.21

>  <EState_VSA2>
41.66

>  <EState_VSA3>
12.84

>  <EState_VSA4>
11.99

>  <EState_VSA5>
12.15

>  <EState_VSA6>
13

>  <EState_VSA7>
13.85

>  <EState_VSA8>
0

>  <EState_VSA9>
0

>  <EState_VSA10>
19.8

>  <VSA_EState1>
16.82

>  <VSA_EState2>
24.3

>  <VSA_EState3>
20.56

>  <VSA_EState4>
-2.59

>  <VSA_EState5>
-1

>  <VSA_EState6>
0

>  <VSA_EState7>
5.53

>  <VSA_EState8>
5.29

>  <VSA_EState9>
0

>  <apol>
59.84

>  <bpol>
31.94

>  <nRing>
4

>  <nHRing>
0

>  <naRing>
0

>  <naHRing>
0

>  <nARing 2>
4

>  <nAHRing 2>
0

>  <nFRing>
1

>  <nFHRing>
0

>  <nFaRing>
0

>  <nFaHRing>
0

>  <nFARing 2>
1

>  <nFAHRing 2>
0

>  <nRot>
2

>  <SLogP>
2.78

>  <SMR>
98.48

>  <TopoPSA(NO)>
74.6

>  <TopoPSA>
74.6

>  <JGI1>
0.3

>  <JGI2>
0.14

>  <JGI3>
0.08

>  <JGI4>
0.06

>  <JGI5>
0.04

>  <Diameter>
12

>  <Radius>
6

>  <TMWC10>
137.84

>  <TSRW10>
78.43

>  <MW>
376.2

>  <AMW>
6.72

>  <WPath>
1541

>  <WPol>
63

>  <Zagreb1>
160

>  <Zagreb2>
207

>  <mZagreb2>
5.65

>  <yes>


>  <nAR-cont>
0.199399

>  <nHA-cont>
0.860070871

>  <MWHBN>
0.309344112

>  <MWHBN-cont>
0.811952594

>  <TPSA-cont>
0.479245676

>  <pka_cont>
0.97

>  <yes.1>


>  <BBB_SCORE>
3.720890114

>  <MMFF94 Energy>
151.64

$$$$
Compound 1593
Actelion Java MolfileCreator 2.0

  0  0  0  0  0  0              0 V3000
M  V30 BEGIN CTAB
M  V30 COUNTS 55 58 0 0 0
M  V30 BEGIN ATOM
M  V30 1 Cl 0.9827 -1.8022 1.8022 0
M  V30 2 C -0.5749 -0.9259 1.3079 0
M  V30 3 C -1.5582 -0.9464 2.5655 0 CFG=2
M  V30 4 C -1.1092 -1.6911 0.0616 0 CFG=1
M  V30 5 C -0.2113 0.5588 0.9171 0 CFG=2
M  V30 6 C -0.9256 -0.1051 3.6931 0
M  V30 7 C -1.8477 -2.3729 3.0385 0
M  V30 8 C -2.9544 -0.3428 2.2679 0
M  V30 9 F -2.3483 -1.2208 -0.256 0
M  V30 10 C -0.2295 -1.5618 -1.2004 0
M  V30 11 C 0.7055 0.5823 -0.3165 0 CFG=1
M  V30 12 C 0.3802 1.341 2.1014 0
M  V30 13 C -0.6859 -0.5835 4.9282 0
M  V30 14 C -0.5342 1.3054 3.3234 0 CFG=2
M  V30 15 C -1.6062 -2.8365 4.2725 0
M  V30 16 C 0.0768 -0.0941 -1.5571 0 CFG=1
M  V30 17 C 1.1834 1.9231 -0.8616 0
M  V30 18 C -1.015 -1.971 5.311 0
M  V30 19 F 0.1233 1.9242 4.3457 0
M  V30 20 C 1.2465 0.1108 -2.5671 0 CFG=2
M  V30 21 C -1.2126 0.6158 -2.059 0
M  V30 22 C 1.7221 1.5698 -2.2732 0 CFG=2
M  V30 23 O -0.8095 -2.388 6.4433 0
M  V30 24 C 0.8976 -0.1854 -4.0286 0
M  V30 25 C 3.2449 1.6996 -2.3128 0
M  V30 26 O -0.0187 -0.9525 -4.3417 0
M  V30 27 C 1.8012 0.3753 -5.1218 0
M  V30 28 O 1.3453 0.0023 -6.4157 0
M  V30 29 H -1.2333 -2.7566 0.2827 0
M  V30 30 H -1.1353 1.0818 0.6502 0
M  V30 31 H -2.3071 -3.0561 2.3264 0
M  V30 32 H -2.9029 0.6353 1.782 0
M  V30 33 H -3.5588 -0.9939 1.6264 0
M  V30 34 H -3.5305 -0.2058 3.1931 0
M  V30 35 H 0.7063 -2.1134 -1.0516 0
M  V30 36 H -0.745 -2.0477 -2.0371 0
M  V30 37 H 1.624 0.0384 -0.0498 0
M  V30 38 H 0.5352 2.3906 1.8226 0
M  V30 39 H 1.3749 0.9648 2.3703 0
M  V30 40 H -0.2277 0.0158 5.7086 0
M  V30 41 H -1.4357 1.8977 3.1336 0
M  V30 42 H -1.8369 -3.8526 4.5697 0
M  V30 43 H 0.3557 2.6377 -0.9374 0
M  V30 44 H 1.9463 2.3762 -0.2197 0
M  V30 45 H 2.0587 -0.5878 -2.3193 0
M  V30 46 H -1.9364 0.8005 -1.2623 0
M  V30 47 H -1.7306 0.0102 -2.8101 0
M  V30 48 H -1.0047 1.5851 -2.5234 0
M  V30 49 H 1.2977 2.277 -2.9956 0
M  V30 50 H 3.7199 1.0396 -1.5787 0
M  V30 51 H 3.5477 2.7273 -2.0846 0
M  V30 52 H 3.6445 1.449 -3.2986 0
M  V30 53 H 1.8151 1.4657 -5.0781 0
M  V30 54 H 2.8093 -0.0247 -4.9889 0
M  V30 55 H 0.6593 -0.6835 -6.2765 0
M  V30 END ATOM
M  V30 BEGIN BOND
M  V30 1 1 1 2
M  V30 2 1 2 3
M  V30 3 1 2 4
M  V30 4 1 2 5
M  V30 5 1 3 6
M  V30 6 1 3 7
M  V30 7 1 3 8
M  V30 8 1 4 9
M  V30 9 1 4 10
M  V30 10 1 5 11
M  V30 11 1 5 12
M  V30 12 2 6 13
M  V30 13 1 6 14
M  V30 14 2 7 15
M  V30 15 1 10 16
M  V30 16 1 11 17
M  V30 17 1 13 18
M  V30 18 1 14 19
M  V30 19 1 16 20
M  V30 20 1 16 21
M  V30 21 1 17 22
M  V30 22 2 18 23
M  V30 23 1 20 24
M  V30 24 1 22 25
M  V30 25 2 24 26
M  V30 26 1 24 27
M  V30 27 1 27 28
M  V30 28 1 11 16
M  V30 29 1 12 14
M  V30 30 1 15 18
M  V30 31 1 20 22
M  V30 32 1 4 29
M  V30 33 1 5 30
M  V30 34 1 7 31
M  V30 35 1 8 32
M  V30 36 1 8 33
M  V30 37 1 8 34
M  V30 38 1 10 35
M  V30 39 1 10 36
M  V30 40 1 11 37
M  V30 41 1 12 38
M  V30 42 1 12 39
M  V30 43 1 13 40
M  V30 44 1 14 41
M  V30 45 1 15 42
M  V30 46 1 17 43
M  V30 47 1 17 44
M  V30 48 1 20 45
M  V30 49 1 21 46
M  V30 50 1 21 47
M  V30 51 1 21 48
M  V30 52 1 22 49
M  V30 53 1 25 50
M  V30 54 1 25 51
M  V30 55 1 25 52
M  V30 56 1 27 53
M  V30 57 1 27 54
M  V30 58 1 28 55
M  V30 END BOND
M  V30 BEGIN COLLECTION
M  V30 MDLV30/STEABS ATOMS=(8 3 4 5 11 14 16 20 22)
M  V30 END COLLECTION
M  V30 END CTAB
M  END
>  <Column 1>
1932

>  <level_0>
2099

>  <index>
2099

>  <Unnamed: 0>
2099

>  <NO.>
2111

>  <Name>
halocortolone

>  <IUPAC_name>
(6s-8s-10s-11s-13s-14s-16r-17s)-9-chloro-6-11-difluoro-17-(2-hydroxyacetyl)-10-13-16-trimethyl-7-8-11-12-14-15-16-17-octahydro-6h-cyclopenta[a]phenanthren-3-one

>  <SMILES>
C[C@@H]1C[C@H]2[C@@H]3C[C@H](F)C4=CC(=O)C=C[C@]4(C)C3(Cl)[C@@H](F)C[C@]2(C)[C@H]1C(=O)CO

>  <CID>
214342

>  <logBB>


>  <BBB+/BBB->
BBB+

>  <Inchi>
InChI=1S/C22H27ClF2O3/c1-11-6-13-14-8-16(24)15-7-12(27)4-5-21(15-3)22(14-23)18(25)9-20(13-2)19(11)17(28)10-26/h4-5-7-11-13-14-16-18-19-26H-6-8-10H2-1-3H3/t11--13+-14+-16+-18+-19--20+-21+-22?/m1/s1

>  <threshold>
-1

>  <reference>
R1|R27|R30|

>  <group>
B

>  <Class>
1

>  <ABC>
22.38

>  <ABCGG>
18.82

>  <nAcid>
0

>  <nBase>
0

>  <nAromAtom>
0

>  <nAromBond>
0

>  <nAtom>
55

>  <nHeavyAtom>
28

>  <nSpiro>
0

>  <nBridgehead>
0

>  <nHetero>
6

>  <nN>
0

>  <nO>
3

>  <nF>
2

>  <BalabanJ>
1.77

>  <BertzCT>
794.65

>  <nBonds>
58

>  <nBondsO>
31

>  <nBondsS>
54

>  <nBondsD>
4

>  <nBondsT>
0

>  <nBondsA>
0

>  <nBondsM>
4

>  <nBondsKS>
54

>  <nBondsKD>
4

>  <RNCG>
0.19

>  <RPCG>
0.1

>  <FCSP3>
0.73

>  <SZ>
36.33

>  <Sm>
34.38

>  <Sv>
33.84

>  <Sse>
55.66

>  <Sp>
36.19

>  <Si>
62.48

>  <MZ>
0.66

>  <Mm>
0.63

>  <Mv>
0.62

>  <Mse>
1.01

>  <Mp>
0.66

>  <Mi>
1.14

>  <NsCH3>
3

>  <NdCH2>
0

>  <NssCH2>
4

>  <NtCH>
0

>  <NdsCH>
3

>  <NaaCH>
0

>  <NsssCH>
6

>  <NddC>
0

>  <NtsC>
0

>  <NdssC>
3

>  <NaasC>
0

>  <NaaaC>
0

>  <NssssC>
3

>  <NsNH3>
0

>  <NsNH2>
0

>  <NssNH2>
0

>  <NdNH>
0

>  <NssNH>
0

>  <NaaNH>
0

>  <NtN>
0

>  <NsssNH>
0

>  <NdsN>
0

>  <NaaN>
0

>  <NsssN>
0

>  <NddsN>
0

>  <NaasN>
0

>  <NssssN>
0

>  <NsOH>
1

>  <NdO>
2

>  <NssO>
0

>  <NaaO>
0

>  <NsF>
2

>  <NsSiH3>
0

>  <NssSiH2>
0

>  <NsssSiH>
0

>  <NssssSi>
0

>  <NsPH2>
0

>  <NssPH>
0

>  <NsssP>
0

>  <NdsssP>
0

>  <NsssssP>
0

>  <NsSH>
0

>  <NdS>
0

>  <NssS>
0

>  <NaaS>
0

>  <NdssS>
0

>  <NddssS>
0

>  <NsCl>
1

>  <NsBr>
0

>  <NsI>
0

>  <fragCpx>
205.06

>  <fMF>
0.31

>  <nHBAcc>
3

>  <nHBDon>
1

>  <Kier1>
21.24

>  <Kier2>
6.75

>  <Lipinski>
1

>  <GhoseFilter>
1

>  <FilterItLogS>
-4.38

>  <VMcGowan>
293.57

>  <LabuteASA>
168.75

>  <PEOE_VSA1>
5.11

>  <PEOE_VSA2>
9.59

>  <PEOE_VSA3>
8.78

>  <PEOE_VSA4>
0

>  <PEOE_VSA5>
11.6

>  <PEOE_VSA6>
26.85

>  <PEOE_VSA7>
60.16

>  <PEOE_VSA8>
11.33

>  <PEOE_VSA9>
4.87

>  <PEOE_VSA10>
18.95

>  <PEOE_VSA11>
11.57

>  <PEOE_VSA12>
0

>  <PEOE_VSA13>
0

>  <SMR_VSA1>
23.48

>  <SMR_VSA2>
0

>  <SMR_VSA3>
0

>  <SMR_VSA4>
34.5

>  <SMR_VSA5>
57.25

>  <SMR_VSA6>
6.61

>  <SMR_VSA7>
23.8

>  <SMR_VSA8>
0

>  <SMR_VSA9>
0

>  <SlogP_VSA1>
0

>  <SlogP_VSA2>
40.5

>  <SlogP_VSA3>
9.59

>  <SlogP_VSA4>
34.5

>  <SlogP_VSA5>
40.03

>  <SlogP_VSA6>
23.8

>  <SlogP_VSA7>
0

>  <SlogP_VSA8>
0

>  <SlogP_VSA9>
0

>  <SlogP_VSA10>
8.78

>  <SlogP_VSA11>
0

>  <EState_VSA1>
46.49

>  <EState_VSA2>
41.82

>  <EState_VSA3>
6.42

>  <EState_VSA4>
0

>  <EState_VSA5>
12.15

>  <EState_VSA6>
13

>  <EState_VSA7>
13.85

>  <EState_VSA8>
0

>  <EState_VSA9>
11.6

>  <EState_VSA10>
14.7

>  <VSA_EState1>
31.19

>  <VSA_EState2>
22.98

>  <VSA_EState3>
9.45

>  <VSA_EState4>
-1.48

>  <VSA_EState5>
-1.62

>  <VSA_EState6>
0

>  <VSA_EState7>
2.2

>  <VSA_EState8>
5.03

>  <VSA_EState9>
0

>  <apol>
60.44

>  <bpol>
31.56

>  <nRing>
4

>  <nHRing>
0

>  <naRing>
0

>  <naHRing>
0

>  <nARing 2>
4

>  <nAHRing 2>
0

>  <nFRing>
1

>  <nFHRing>
0

>  <nFaRing>
0

>  <nFaHRing>
0

>  <nFARing 2>
1

>  <nFAHRing 2>
0

>  <nRot>
2

>  <SLogP>
3.98

>  <SMR>
102.4

>  <TopoPSA(NO)>
54.37

>  <TopoPSA>
54.37

>  <JGI1>
0.31

>  <JGI2>
0.14

>  <JGI3>
0.08

>  <JGI4>
0.06

>  <JGI5>
0.04

>  <Diameter>
12

>  <Radius>
6

>  <TMWC10>
140.29

>  <TSRW10>
79.62

>  <MW>
412.16

>  <AMW>
7.49

>  <WPath>
1674

>  <WPol>
66

>  <Zagreb1>
166

>  <Zagreb2>
215

>  <mZagreb2>
5.84

>  <yes>


>  <nAR-cont>
0.199399

>  <nHA-cont>
0.82432561

>  <MWHBN>
0.197027602

>  <MWHBN-cont>
0.998892665

>  <TPSA-cont>
0.620463638

>  <pka_cont>
0.97

>  <yes.1>


>  <BBB_SCORE>
4.247990884

>  <MMFF94 Energy>
127.54

$$$$
Compound 1594
Actelion Java MolfileCreator 2.0

  0  0  0  0  0  0              0 V3000
M  V30 BEGIN CTAB
M  V30 COUNTS 57 60 0 0 0
M  V30 BEGIN ATOM
M  V30 1 F 0.7299 -1.9473 0.7299 0
M  V30 2 C 1.2346 -0.972 -0.1163 0 CFG=2
M  V30 3 C 2.4223 -1.6565 -0.9128 0 CFG=2
M  V30 4 C 1.6411 0.2021 0.8263 0 CFG=1
M  V30 5 C 0.0487 -0.5798 -1.0587 0 CFG=2
M  V30 6 C 1.833 -2.8254 -1.723 0
M  V30 7 C 3.5033 -2.1533 0.0471 0
M  V30 8 C 3.1404 -0.7115 -1.9042 0
M  V30 9 O 2.3918 1.2032 0.1472 0
M  V30 10 C 0.4375 0.8603 1.5415 0
M  V30 11 C -1.0968 -0.0067 -0.2093 0 CFG=1
M  V30 12 C -0.4337 -1.7964 -1.8671 0
M  V30 13 C 2.2479 -4.0999 -1.6056 0
M  V30 14 C 0.6945 -2.4644 -2.6409 0 CFG=2
M  V30 15 C 3.9113 -3.4242 0.1601 0
M  V30 16 C -0.7091 1.2628 0.5864 0 CFG=1
M  V30 17 C -2.3978 0.3753 -0.9091 0
M  V30 18 C 3.3202 -4.49 -0.6701 0
M  V30 19 F 0.1782 -3.5675 -3.2546 0
M  V30 20 C -2.0937 1.5853 1.2522 0 CFG=1
M  V30 21 C -0.2641 2.4426 -0.3194 0
M  V30 22 C -3.1 1.3511 0.0682 0 CFG=2
M  V30 23 O 3.7069 -5.6483 -0.5858 0
M  V30 24 O -2.3352 0.6521 2.3076 0
M  V30 25 C -2.1883 3.0198 1.8207 0
M  V30 26 C -4.4827 0.847 0.4715 0
M  V30 27 O -2.6868 3.9591 1.1922 0
M  V30 28 C -1.6519 3.2555 3.2288 0
M  V30 29 O -1.4868 4.6423 3.4944 0
M  V30 30 H 2.2894 -0.1946 1.616 0
M  V30 31 H 0.3816 0.1774 -1.7756 0
M  V30 32 H 3.9976 -1.4098 0.6688 0
M  V30 33 H 3.7795 -1.2767 -2.5956 0
M  V30 34 H 2.4429 -0.1328 -2.5167 0
M  V30 35 H 3.8004 0.0011 -1.3983 0
M  V30 36 H 2.6806 1.8593 0.8074 0
M  V30 37 H 0.0694 0.1492 2.2908 0
M  V30 38 H 0.7874 1.7438 2.0865 0
M  V30 39 H -1.3692 -0.7971 0.5088 0
M  V30 40 H -0.9052 -2.5339 -1.2039 0
M  V30 41 H -1.2125 -1.4982 -2.5793 0
M  V30 42 H 1.8088 -4.9124 -2.1749 0
M  V30 43 H 1.0511 -1.8052 -3.4389 0
M  V30 44 H 4.6911 -3.728 0.8477 0
M  V30 45 H -3.007 -0.5077 -1.1294 0
M  V30 46 H -2.1973 0.8796 -1.8618 0
M  V30 47 H 0.5359 2.1755 -1.0117 0
M  V30 48 H 0.1032 3.277 0.289 0
M  V30 49 H -1.0776 2.832 -0.9388 0
M  V30 50 H -3.2585 2.2875 -0.4816 0
M  V30 51 H -3.2654 0.7172 2.5866 0
M  V30 52 H -4.9514 1.5285 1.1886 0
M  V30 53 H -5.1356 0.7853 -0.4058 0
M  V30 54 H -4.4384 -0.1521 0.9169 0
M  V30 55 H -2.3645 2.848 3.9509 0
M  V30 56 H -0.6834 2.7745 3.3589 0
M  V30 57 H -2.1457 5.108 2.9403 0
M  V30 END ATOM
M  V30 BEGIN BOND
M  V30 1 1 1 2
M  V30 2 1 2 3
M  V30 3 1 2 4
M  V30 4 1 2 5
M  V30 5 1 3 6
M  V30 6 1 3 7
M  V30 7 1 3 8
M  V30 8 1 4 9
M  V30 9 1 4 10
M  V30 10 1 5 11
M  V30 11 1 5 12
M  V30 12 2 6 13
M  V30 13 1 6 14
M  V30 14 2 7 15
M  V30 15 1 10 16
M  V30 16 1 11 17
M  V30 17 1 13 18
M  V30 18 1 14 19
M  V30 19 1 16 20
M  V30 20 1 16 21
M  V30 21 1 17 22
M  V30 22 2 18 23
M  V30 23 1 20 24
M  V30 24 1 20 25
M  V30 25 1 22 26
M  V30 26 2 25 27
M  V30 27 1 25 28
M  V30 28 1 28 29
M  V30 29 1 11 16
M  V30 30 1 12 14
M  V30 31 1 15 18
M  V30 32 1 20 22
M  V30 33 1 4 30
M  V30 34 1 5 31
M  V30 35 1 7 32
M  V30 36 1 8 33
M  V30 37 1 8 34
M  V30 38 1 8 35
M  V30 39 1 9 36
M  V30 40 1 10 37
M  V30 41 1 10 38
M  V30 42 1 11 39
M  V30 43 1 12 40
M  V30 44 1 12 41
M  V30 45 1 13 42
M  V30 46 1 14 43
M  V30 47 1 15 44
M  V30 48 1 17 45
M  V30 49 1 17 46
M  V30 50 1 21 47
M  V30 51 1 21 48
M  V30 52 1 21 49
M  V30 53 1 22 50
M  V30 54 1 24 51
M  V30 55 1 26 52
M  V30 56 1 26 53
M  V30 57 1 26 54
M  V30 58 1 28 55
M  V30 59 1 28 56
M  V30 60 1 29 57
M  V30 END BOND
M  V30 BEGIN COLLECTION
M  V30 MDLV30/STEABS ATOMS=(9 2 3 4 5 11 14 16 20 22)
M  V30 END COLLECTION
M  V30 END CTAB
M  END
>  <Column 1>
1933

>  <level_0>
2100

>  <index>
2100

>  <Unnamed: 0>
2100

>  <NO.>
2112

>  <Name>
flumethasone(flumetasoneanddiflorasone)

>  <IUPAC_name>
(6s-8s-9r-10s-11s-13s-14s-16r-17r)-6-9-difluoro-11-17-dihydroxy-17-(2-hydroxyacetyl)-10-13-16-trimethyl-6-7-8-11-12-14-15-16-octahydrocyclopenta[a]phenanthren-3-one

>  <SMILES>
C[C@@H]1C[C@H]2[C@@H]3C[C@H](F)C4=CC(=O)C=C[C@]4(C)[C@@]3(F)[C@@H](O)C[C@]2(C)[C@@]1(O)C(=O)CO

>  <CID>
16490

>  <logBB>


>  <BBB+/BBB->
BBB+

>  <Inchi>
InChI=1S/C22H28F2O5/c1-11-6-13-14-8-16(23)15-7-12(26)4-5-19(15-2)21(14-24)17(27)9-20(13-3)22(11-29)18(28)10-25/h4-5-7-11-13-14-16-17-25-27-29H-6-8-10H2-1-3H3/t11--13+-14+-16+-17+-19+-20+-21+-22+/m1/s1

>  <threshold>
-1

>  <reference>
R1|R27|R30|

>  <group>
B

>  <Class>
1

>  <ABC>
23.17

>  <ABCGG>
19.7

>  <nAcid>
0

>  <nBase>
0

>  <nAromAtom>
0

>  <nAromBond>
0

>  <nAtom>
57

>  <nHeavyAtom>
29

>  <nSpiro>
0

>  <nBridgehead>
0

>  <nHetero>
7

>  <nN>
0

>  <nO>
5

>  <nF>
2

>  <BalabanJ>
1.8

>  <BertzCT>
839.06

>  <nBonds>
60

>  <nBondsO>
32

>  <nBondsS>
56

>  <nBondsD>
4

>  <nBondsT>
0

>  <nBondsA>
0

>  <nBondsM>
4

>  <nBondsKS>
56

>  <nBondsKD>
4

>  <RNCG>
0.15

>  <RPCG>
0.08

>  <FCSP3>
0.73

>  <SZ>
36.33

>  <Sm>
34.17

>  <Sv>
34.45

>  <Sse>
58

>  <Sp>
36.25

>  <Si>
64.96

>  <MZ>
0.64

>  <Mm>
0.6

>  <Mv>
0.6

>  <Mse>
1.02

>  <Mp>
0.64

>  <Mi>
1.14

>  <NsCH3>
3

>  <NdCH2>
0

>  <NssCH2>
4

>  <NtCH>
0

>  <NdsCH>
3

>  <NaaCH>
0

>  <NsssCH>
5

>  <NddC>
0

>  <NtsC>
0

>  <NdssC>
3

>  <NaasC>
0

>  <NaaaC>
0

>  <NssssC>
4

>  <NsNH3>
0

>  <NsNH2>
0

>  <NssNH2>
0

>  <NdNH>
0

>  <NssNH>
0

>  <NaaNH>
0

>  <NtN>
0

>  <NsssNH>
0

>  <NdsN>
0

>  <NaaN>
0

>  <NsssN>
0

>  <NddsN>
0

>  <NaasN>
0

>  <NssssN>
0

>  <NsOH>
3

>  <NdO>
2

>  <NssO>
0

>  <NaaO>
0

>  <NsF>
2

>  <NsSiH3>
0

>  <NssSiH2>
0

>  <NsssSiH>
0

>  <NssssSi>
0

>  <NsPH2>
0

>  <NssPH>
0

>  <NsssP>
0

>  <NdsssP>
0

>  <NsssssP>
0

>  <NsSH>
0

>  <NdS>
0

>  <NssS>
0

>  <NaaS>
0

>  <NdssS>
0

>  <NddssS>
0

>  <NsCl>
0

>  <NsBr>
0

>  <NsI>
0

>  <fragCpx>
212.07

>  <fMF>
0.3

>  <nHBAcc>
5

>  <nHBDon>
3

>  <Kier1>
22.2

>  <Kier2>
6.75

>  <Lipinski>
1

>  <GhoseFilter>
1

>  <FilterItLogS>
-2.83

>  <VMcGowan>
293.07

>  <LabuteASA>
168.04

>  <PEOE_VSA1>
15.32

>  <PEOE_VSA2>
9.59

>  <PEOE_VSA3>
8.78

>  <PEOE_VSA4>
0

>  <PEOE_VSA5>
0

>  <PEOE_VSA6>
19.92

>  <PEOE_VSA7>
55.75

>  <PEOE_VSA8>
16.75

>  <PEOE_VSA9>
6.1

>  <PEOE_VSA10>
18.38

>  <PEOE_VSA11>
17.24

>  <PEOE_VSA12>
0

>  <PEOE_VSA13>
0

>  <SMR_VSA1>
33.69

>  <SMR_VSA2>
0

>  <SMR_VSA3>
0

>  <SMR_VSA4>
28.58

>  <SMR_VSA5>
63.58

>  <SMR_VSA6>
6.61

>  <SMR_VSA7>
23.8

>  <SMR_VSA8>
0

>  <SMR_VSA9>
0

>  <SlogP_VSA1>
0

>  <SlogP_VSA2>
57.04

>  <SlogP_VSA3>
9.59

>  <SlogP_VSA4>
28.58

>  <SlogP_VSA5>
40.03

>  <SlogP_VSA6>
23.8

>  <SlogP_VSA7>
0

>  <SlogP_VSA8>
0

>  <SlogP_VSA9>
0

>  <SlogP_VSA10>
8.78

>  <SlogP_VSA11>
0

>  <EState_VSA1>
70.3

>  <EState_VSA2>
24.84

>  <EState_VSA3>
0

>  <EState_VSA4>
6.08

>  <EState_VSA5>
19.08

>  <EState_VSA6>
13.85

>  <EState_VSA7>
0

>  <EState_VSA8>
0

>  <EState_VSA9>
0

>  <EState_VSA10>
24.91

>  <VSA_EState1>
32.1

>  <VSA_EState2>
24.35

>  <VSA_EState3>
31.88

>  <VSA_EState4>
-6.81

>  <VSA_EState5>
-3.24

>  <VSA_EState6>
0

>  <VSA_EState7>
0.43

>  <VSA_EState8>
3.96

>  <VSA_EState9>
0

>  <apol>
60.53

>  <bpol>
32.05

>  <nRing>
4

>  <nHRing>
0

>  <naRing>
0

>  <naHRing>
0

>  <nARing 2>
4

>  <nAHRing 2>
0

>  <nFRing>
1

>  <nFHRing>
0

>  <nFaRing>
0

>  <nFaHRing>
0

>  <nFARing 2>
1

>  <nFAHRing 2>
0

>  <nRot>
2

>  <SLogP>
1.84

>  <SMR>
100.22

>  <TopoPSA(NO)>
94.83

>  <TopoPSA>
94.83

>  <JGI1>
0.33

>  <JGI2>
0.16

>  <JGI3>
0.08

>  <JGI4>
0.06

>  <JGI5>
0.04

>  <Diameter>
12

>  <Radius>
6

>  <TMWC10>
143.1

>  <TSRW10>
81.26

>  <MW>
410.19

>  <AMW>
7.2

>  <WPath>
1810

>  <WPol>
73

>  <Zagreb1>
174

>  <Zagreb2>
229

>  <mZagreb2>
6.01

>  <yes>


>  <nAR-cont>
0.199399

>  <nHA-cont>
0.785905698

>  <MWHBN>
0.395000325

>  <MWHBN-cont>
0.495754309

>  <TPSA-cont>
0.338027714

>  <pka_cont>
0.97

>  <yes.1>


>  <BBB_SCORE>
2.88999159

>  <MMFF94 Energy>
167.17

$$$$
Compound 1595
Actelion Java MolfileCreator 2.0

  0  0  0  0  0  0              0 V3000
M  V30 BEGIN CTAB
M  V30 COUNTS 70 73 0 0 0
M  V30 BEGIN ATOM
M  V30 1 F -2.9031 1.612 -0.4028 0
M  V30 2 C -2.7777 0.7764 0.6972 0 CFG=2
M  V30 3 C -4.042 1.0586 1.6109 0 CFG=2
M  V30 4 C -1.3958 1.1493 1.3208 0 CFG=1
M  V30 5 C -2.7873 -0.6792 0.1193 0 CFG=2
M  V30 6 C -5.299 0.6957 0.7998 0
M  V30 7 C -4.0811 2.5241 2.0446 0
M  V30 8 C -4.0688 0.231 2.9172 0
M  V30 9 O -1.1975 0.5368 2.5899 0
M  V30 10 C -0.1998 0.8173 0.3967 0
M  V30 11 C -1.5917 -0.8417 -0.8294 0 CFG=1
M  V30 12 C -4.1045 -0.9697 -0.6192 0
M  V30 13 C -6.2965 1.5609 0.5406 0
M  V30 14 C -5.3281 -0.7056 0.2475 0 CFG=2
M  V30 15 C -5.077 3.3809 1.7823 0
M  V30 16 C -0.228 -0.6262 -0.1394 0 CFG=1
M  V30 17 C -1.4151 -2.1578 -1.582 0
M  V30 18 C -6.2652 2.9566 1.0188 0
M  V30 19 F -6.4333 -0.9152 -0.5235 0
M  V30 20 C 0.7004 -0.8876 -1.3553 0 CFG=2
M  V30 21 C 0.0645 -1.6369 0.9979 0
M  V30 22 C 0.0575 -2.122 -2.0562 0 CFG=2
M  V30 23 O -7.1855 3.7318 0.7943 0
M  V30 24 C 2.1761 -1.0977 -1.0129 0
M  V30 25 C 0.1711 -2.0269 -3.5748 0
M  V30 26 O 2.6159 -2.1998 -0.6837 0
M  V30 27 C 3.0604 0.1429 -1.0891 0
M  V30 28 O 4.4075 -0.1695 -0.744 0
M  V30 29 C 5.2322 0.9115 -0.6917 0
M  V30 30 O 4.8651 2.059 -0.9108 0
M  V30 31 C 6.6588 0.4997 -0.3229 0
M  V30 32 C 7.5564 1.7463 -0.2794 0
M  V30 33 C 6.6566 -0.1639 1.0603 0
M  V30 34 C 7.2005 -0.4701 -1.3811 0
M  V30 35 H -1.3673 2.2325 1.4853 0
M  V30 36 H -2.7035 -1.4016 0.9375 0
M  V30 37 H -3.2454 2.8913 2.6365 0
M  V30 38 H -3.3599 0.6057 3.6633 0
M  V30 39 H -5.0583 0.2745 3.3918 0
M  V30 40 H -3.841 -0.8259 2.752 0
M  V30 41 H -0.3491 0.854 2.949 0
M  V30 42 H 0.7384 0.992 0.9362 0
M  V30 43 H -0.2154 1.5191 -0.4472 0
M  V30 44 H -1.7066 -0.0702 -1.6095 0
M  V30 45 H -4.1714 -0.3658 -1.5341 0
M  V30 46 H -4.1337 -2.0144 -0.9514 0
M  V30 47 H -7.1678 1.2898 -0.0464 0
M  V30 48 H -5.3796 -1.4308 1.0659 0
M  V30 49 H -5.0669 4.4096 2.1217 0
M  V30 50 H -1.5775 -3.0138 -0.917 0
M  V30 51 H -2.1217 -2.2498 -2.4135 0
M  V30 52 H 0.6515 -0.0325 -2.0445 0
M  V30 53 H -0.7262 -1.6771 1.7494 0
M  V30 54 H 0.9912 -1.3724 1.5202 0
M  V30 55 H 0.1852 -2.6605 0.6298 0
M  V30 56 H 0.5425 -3.0562 -1.7487 0
M  V30 57 H -0.3375 -1.1363 -3.9591 0
M  V30 58 H -0.2805 -2.9037 -4.0502 0
M  V30 59 H 1.2207 -1.9791 -3.8824 0
M  V30 60 H 3.028 0.5175 -2.1179 0
M  V30 61 H 2.6623 0.8869 -0.3926 0
M  V30 62 H 7.1963 2.4696 0.4614 0
M  V30 63 H 8.5879 1.4851 -0.0175 0
M  V30 64 H 7.5764 2.2555 -1.2499 0
M  V30 65 H 6.2212 0.5008 1.8153 0
M  V30 66 H 6.0674 -1.0879 1.0639 0
M  V30 67 H 7.6731 -0.4189 1.3796 0
M  V30 68 H 7.1553 -0.0259 -2.3821 0
M  V30 69 H 6.6201 -1.3991 -1.4121 0
M  V30 70 H 8.2429 -0.7385 -1.1766 0
M  V30 END ATOM
M  V30 BEGIN BOND
M  V30 1 1 1 2
M  V30 2 1 2 3
M  V30 3 1 2 4
M  V30 4 1 2 5
M  V30 5 1 3 6
M  V30 6 1 3 7
M  V30 7 1 3 8
M  V30 8 1 4 9
M  V30 9 1 4 10
M  V30 10 1 5 11
M  V30 11 1 5 12
M  V30 12 2 6 13
M  V30 13 1 6 14
M  V30 14 2 7 15
M  V30 15 1 10 16
M  V30 16 1 11 17
M  V30 17 1 13 18
M  V30 18 1 14 19
M  V30 19 1 16 20
M  V30 20 1 16 21
M  V30 21 1 17 22
M  V30 22 2 18 23
M  V30 23 1 20 24
M  V30 24 1 22 25
M  V30 25 2 24 26
M  V30 26 1 24 27
M  V30 27 1 27 28
M  V30 28 1 28 29
M  V30 29 2 29 30
M  V30 30 1 29 31
M  V30 31 1 31 32
M  V30 32 1 31 33
M  V30 33 1 31 34
M  V30 34 1 11 16
M  V30 35 1 12 14
M  V30 36 1 15 18
M  V30 37 1 20 22
M  V30 38 1 4 35
M  V30 39 1 5 36
M  V30 40 1 7 37
M  V30 41 1 8 38
M  V30 42 1 8 39
M  V30 43 1 8 40
M  V30 44 1 9 41
M  V30 45 1 10 42
M  V30 46 1 10 43
M  V30 47 1 11 44
M  V30 48 1 12 45
M  V30 49 1 12 46
M  V30 50 1 13 47
M  V30 51 1 14 48
M  V30 52 1 15 49
M  V30 53 1 17 50
M  V30 54 1 17 51
M  V30 55 1 20 52
M  V30 56 1 21 53
M  V30 57 1 21 54
M  V30 58 1 21 55
M  V30 59 1 22 56
M  V30 60 1 25 57
M  V30 61 1 25 58
M  V30 62 1 25 59
M  V30 63 1 27 60
M  V30 64 1 27 61
M  V30 65 1 32 62
M  V30 66 1 32 63
M  V30 67 1 32 64
M  V30 68 1 33 65
M  V30 69 1 33 66
M  V30 70 1 33 67
M  V30 71 1 34 68
M  V30 72 1 34 69
M  V30 73 1 34 70
M  V30 END BOND
M  V30 BEGIN COLLECTION
M  V30 MDLV30/STEABS ATOMS=(9 2 3 4 5 11 14 16 20 22)
M  V30 END COLLECTION
M  V30 END CTAB
M  END
>  <Column 1>
1934

>  <level_0>
2101

>  <index>
2101

>  <Unnamed: 0>
2101

>  <NO.>
2113

>  <Name>
diflucortolone pivalate

>  <IUPAC_name>
[2-[(6s-8s-9r-10s-11s-13s-14s-16r-17s)-6-9-difluoro-11-hydroxy-10-13-16-trimethyl-3-oxo-7-8-11-12-14-15-16-17-octahydro-6h-cyclopenta[a]phenanthren-17-yl]-2-oxoethyl] 2-2-dimethylpropanoate

>  <SMILES>
C[C@@H]1C[C@H]2[C@@H]3C[C@H](F)C4=CC(=O)C=C[C@]4(C)[C@@]3(F)[C@@H](O)C[C@]2(C)[C@H]1C(=O)COC(=O)C(C)(C)C

>  <CID>
66381

>  <logBB>


>  <BBB+/BBB->
BBB+

>  <Inchi>
InChI=1S/C27H36F2O5/c1-14-9-16-17-11-19(28)18-10-15(30)7-8-26(18-6)27(17-29)21(32)12-25(16-5)22(14)20(31)13-34-23(33)24(2-3)4/h7-8-10-14-16-17-19-21-22-32H-9-11-13H2-1-6H3/t14--16+-17+-19+-21+-22--25+-26+-27+/m1/s1

>  <threshold>
-1

>  <reference>
R1|R27|R30|

>  <group>
B

>  <Class>
1

>  <ABC>
27.15

>  <ABCGG>
22.24

>  <nAcid>
0

>  <nBase>
0

>  <nAromAtom>
0

>  <nAromBond>
0

>  <nAtom>
70

>  <nHeavyAtom>
34

>  <nSpiro>
0

>  <nBridgehead>
0

>  <nHetero>
7

>  <nN>
0

>  <nO>
5

>  <nF>
2

>  <BalabanJ>
1.62

>  <BertzCT>
980

>  <nBonds>
73

>  <nBondsO>
37

>  <nBondsS>
68

>  <nBondsD>
5

>  <nBondsT>
0

>  <nBondsA>
0

>  <nBondsM>
5

>  <nBondsKS>
68

>  <nBondsKD>
5

>  <RNCG>
0.17

>  <RPCG>
0.11

>  <FCSP3>
0.74

>  <SZ>
42.67

>  <Sm>
39.84

>  <Sv>
41.62

>  <Sse>
70.55

>  <Sp>
44.44

>  <Si>
79.62

>  <MZ>
0.61

>  <Mm>
0.57

>  <Mv>
0.59

>  <Mse>
1.01

>  <Mp>
0.63

>  <Mi>
1.14

>  <NsCH3>
6

>  <NdCH2>
0

>  <NssCH2>
4

>  <NtCH>
0

>  <NdsCH>
3

>  <NaaCH>
0

>  <NsssCH>
6

>  <NddC>
0

>  <NtsC>
0

>  <NdssC>
4

>  <NaasC>
0

>  <NaaaC>
0

>  <NssssC>
4

>  <NsNH3>
0

>  <NsNH2>
0

>  <NssNH2>
0

>  <NdNH>
0

>  <NssNH>
0

>  <NaaNH>
0

>  <NtN>
0

>  <NsssNH>
0

>  <NdsN>
0

>  <NaaN>
0

>  <NsssN>
0

>  <NddsN>
0

>  <NaasN>
0

>  <NssssN>
0

>  <NsOH>
1

>  <NdO>
3

>  <NssO>
1

>  <NaaO>
0

>  <NsF>
2

>  <NsSiH3>
0

>  <NssSiH2>
0

>  <NsssSiH>
0

>  <NssssSi>
0

>  <NsPH2>
0

>  <NssPH>
0

>  <NsssP>
0

>  <NdsssP>
0

>  <NsssssP>
0

>  <NsSH>
0

>  <NdS>
0

>  <NssS>
0

>  <NaaS>
0

>  <NdssS>
0

>  <NddssS>
0

>  <NsCl>
0

>  <NsBr>
0

>  <NsI>
0

>  <fragCpx>
247.07

>  <fMF>
0.24

>  <nHBAcc>
5

>  <nHBDon>
1

>  <Kier1>
27.05

>  <Kier2>
8.79

>  <Lipinski>
1

>  <GhoseFilter>
1

>  <FilterItLogS>
-4.59

>  <VMcGowan>
359.22

>  <LabuteASA>
199.55

>  <PEOE_VSA1>
9.84

>  <PEOE_VSA2>
14.38

>  <PEOE_VSA3>
8.78

>  <PEOE_VSA4>
0

>  <PEOE_VSA5>
0

>  <PEOE_VSA6>
19.92

>  <PEOE_VSA7>
81.93

>  <PEOE_VSA8>
17.25

>  <PEOE_VSA9>
11.52

>  <PEOE_VSA10>
12.78

>  <PEOE_VSA11>
17.24

>  <PEOE_VSA12>
0

>  <PEOE_VSA13>
0

>  <SMR_VSA1>
33.01

>  <SMR_VSA2>
0

>  <SMR_VSA3>
0

>  <SMR_VSA4>
39.92

>  <SMR_VSA5>
78.75

>  <SMR_VSA6>
6.61

>  <SMR_VSA7>
23.8

>  <SMR_VSA8>
0

>  <SMR_VSA9>
0

>  <SlogP_VSA1>
0

>  <SlogP_VSA2>
47.19

>  <SlogP_VSA3>
19.12

>  <SlogP_VSA4>
39.92

>  <SlogP_VSA5>
60.8

>  <SlogP_VSA6>
23.8

>  <SlogP_VSA7>
0

>  <SlogP_VSA8>
0

>  <SlogP_VSA9>
0

>  <SlogP_VSA10>
8.78

>  <SlogP_VSA11>
0

>  <EState_VSA1>
51.99

>  <EState_VSA2>
48.42

>  <EState_VSA3>
6.42

>  <EState_VSA4>
0

>  <EState_VSA5>
18.23

>  <EState_VSA6>
27.69

>  <EState_VSA7>
13.85

>  <EState_VSA8>
0

>  <EState_VSA9>
4.74

>  <EState_VSA10>
19.49

>  <VSA_EState1>
37.83

>  <VSA_EState2>
37.43

>  <VSA_EState3>
11.3

>  <VSA_EState4>
-4.99

>  <VSA_EState5>
-2.89

>  <VSA_EState6>
0

>  <VSA_EState7>
1.35

>  <VSA_EState8>
10.14

>  <VSA_EState9>
0

>  <apol>
74.22

>  <bpol>
42.68

>  <nRing>
4

>  <nHRing>
0

>  <naRing>
0

>  <naHRing>
0

>  <nARing 2>
4

>  <nAHRing 2>
0

>  <nFRing>
1

>  <nFHRing>
0

>  <nFaRing>
0

>  <nFaHRing>
0

>  <nFARing 2>
1

>  <nFAHRing 2>
0

>  <nRot>
3

>  <SLogP>
4.33

>  <SMR>
122.09

>  <TopoPSA(NO)>
80.67

>  <TopoPSA>
80.67

>  <JGI1>
0.34

>  <JGI2>
0.14

>  <JGI3>
0.08

>  <JGI4>
0.06

>  <JGI5>
0.04

>  <Diameter>
15

>  <Radius>
8

>  <TMWC10>
153.29

>  <TSRW10>
86.36

>  <MW>
478.25

>  <AMW>
6.83

>  <WPath>
3162

>  <WPol>
75

>  <Zagreb1>
198

>  <Zagreb2>
250

>  <mZagreb2>
6.92

>  <yes>


>  <nAR-cont>
0.199399

>  <nHA-cont>
0.568589513

>  <MWHBN>
0.274361874

>  <MWHBN-cont>
0.90995192

>  <TPSA-cont>
0.436873307

>  <pka_cont>
0.97

>  <yes.1>


>  <BBB_SCORE>
3.491663006

>  <MMFF94 Energy>
132.04

$$$$
Compound 1596
Actelion Java MolfileCreator 2.0

  0  0  0  0  0  0              0 V3000
M  V30 BEGIN CTAB
M  V30 COUNTS 57 60 0 0 0
M  V30 BEGIN ATOM
M  V30 1 F -4.3688 -1.3738 -1.5355 0
M  V30 2 C -3.1077 -1.658 -1.0981 0 CFG=2
M  V30 3 C -3.1113 -2.0943 0.3436 0
M  V30 4 C -2.2694 -0.3993 -1.2667 0
M  V30 5 C -4.2609 -2.1783 1.0378 0
M  V30 6 C -1.7275 -2.3727 0.9478 0 CFG=2
M  V30 7 C -0.8432 -0.5625 -0.7154 0 CFG=2
M  V30 8 C -4.2846 -2.5451 2.4669 0
M  V30 9 C -1.8416 -2.7302 2.4267 0
M  V30 10 C -0.8673 -1.0605 0.7708 0 CFG=2
M  V30 11 C -1.1383 -3.6187 0.2485 0
M  V30 12 C -0.0852 0.7729 -0.773 0 CFG=1
M  V30 13 O -5.3344 -2.6197 3.0923 0
M  V30 14 C -2.9874 -2.8114 3.1159 0
M  V30 15 C 0.5619 -1.0981 1.3861 0 CFG=1
M  V30 16 C 1.3873 0.6805 -0.3059 0 CFG=2
M  V30 17 C -0.0084 1.5082 -2.1075 0
M  V30 18 O 1.3017 -2.1995 0.8795 0
M  V30 19 C 1.363 0.2047 1.165 0
M  V30 20 C 1.8303 2.1658 -0.5531 0 CFG=1
M  V30 21 C 2.2459 -0.2823 -1.1698 0
M  V30 22 C 1.186 2.4824 -1.9517 0 CFG=2
M  V30 23 O 1.2604 3.0006 0.4595 0
M  V30 24 C 3.3638 2.3651 -0.5622 0
M  V30 25 C 0.762 3.9328 -2.1658 0
M  V30 26 O 4.0294 2.4064 -1.6021 0
M  V30 27 C 4.0596 2.5404 0.7837 0
M  V30 28 O 5.4705 2.417 0.6588 0
M  V30 29 H -2.7307 -2.4615 -1.7385 0
M  V30 30 H -2.2408 -0.1403 -2.332 0
M  V30 31 H -2.7749 0.4405 -0.7707 0
M  V30 32 H -5.2283 -1.9651 0.5949 0
M  V30 33 H -0.3334 -1.3009 -1.3426 0
M  V30 34 H -0.9201 -2.9725 2.9523 0
M  V30 35 H -1.3943 -0.2747 1.3392 0
M  V30 36 H -0.2799 -4.0333 0.7883 0
M  V30 37 H -0.8114 -3.4121 -0.7748 0
M  V30 38 H -1.8798 -4.4268 0.1917 0
M  V30 39 H -0.6227 1.4525 -0.0908 0
M  V30 40 H -3.0206 -3.0866 4.1632 0
M  V30 41 H 0.4822 -1.2471 2.4688 0
M  V30 42 H 0.1831 0.8089 -2.93 0
M  V30 43 H -0.9464 2.0275 -2.3323 0
M  V30 44 H 2.1582 -2.2254 1.3422 0
M  V30 45 H 0.9171 0.9774 1.8029 0
M  V30 46 H 2.389 0.0536 1.518 0
M  V30 47 H 1.8131 -1.2799 -1.2618 0
M  V30 48 H 3.2441 -0.4033 -0.7333 0
M  V30 49 H 2.3862 0.0773 -2.1936 0
M  V30 50 H 1.8939 2.243 -2.7555 0
M  V30 51 H 1.3771 3.933 0.2041 0
M  V30 52 H 0.3941 4.0745 -3.1879 0
M  V30 53 H 1.6085 4.6113 -2.0191 0
M  V30 54 H -0.0432 4.227 -1.4846 0
M  V30 55 H 3.8346 3.538 1.1706 0
M  V30 56 H 3.722 1.7869 1.4939 0
M  V30 57 H 5.6861 2.6555 -0.2658 0
M  V30 END ATOM
M  V30 BEGIN BOND
M  V30 1 1 1 2
M  V30 2 1 2 3
M  V30 3 1 2 4
M  V30 4 2 3 5
M  V30 5 1 3 6
M  V30 6 1 4 7
M  V30 7 1 5 8
M  V30 8 1 6 9
M  V30 9 1 6 10
M  V30 10 1 6 11
M  V30 11 1 7 12
M  V30 12 2 8 13
M  V30 13 1 8 14
M  V30 14 1 10 15
M  V30 15 1 12 16
M  V30 16 1 12 17
M  V30 17 1 15 18
M  V30 18 1 15 19
M  V30 19 1 16 20
M  V30 20 1 16 21
M  V30 21 1 17 22
M  V30 22 1 20 23
M  V30 23 1 20 24
M  V30 24 1 22 25
M  V30 25 2 24 26
M  V30 26 1 24 27
M  V30 27 1 27 28
M  V30 28 1 7 10
M  V30 29 2 9 14
M  V30 30 1 16 19
M  V30 31 1 20 22
M  V30 32 1 2 29
M  V30 33 1 4 30
M  V30 34 1 4 31
M  V30 35 1 5 32
M  V30 36 1 7 33
M  V30 37 1 9 34
M  V30 38 1 10 35
M  V30 39 1 11 36
M  V30 40 1 11 37
M  V30 41 1 11 38
M  V30 42 1 12 39
M  V30 43 1 14 40
M  V30 44 1 15 41
M  V30 45 1 17 42
M  V30 46 1 17 43
M  V30 47 1 18 44
M  V30 48 1 19 45
M  V30 49 1 19 46
M  V30 50 1 21 47
M  V30 51 1 21 48
M  V30 52 1 21 49
M  V30 53 1 22 50
M  V30 54 1 23 51
M  V30 55 1 25 52
M  V30 56 1 25 53
M  V30 57 1 25 54
M  V30 58 1 27 55
M  V30 59 1 27 56
M  V30 60 1 28 57
M  V30 END BOND
M  V30 BEGIN COLLECTION
M  V30 MDLV30/STEABS ATOMS=(9 2 6 7 10 12 15 16 20 22)
M  V30 END COLLECTION
M  V30 END CTAB
M  END
>  <Column 1>
1935

>  <level_0>
2102

>  <index>
2102

>  <Unnamed: 0>
2102

>  <NO.>
2114

>  <Name>
paramethasone

>  <IUPAC_name>
(6s-8s-9s-10r-11s-13s-14s-16r-17r)-6-fluoro-11-17-dihydroxy-17-(2-hydroxyacetyl)-10-13-16-trimethyl-7-8-9-11-12-14-15-16-octahydro-6h-cyclopenta[a]phenanthren-3-one

>  <SMILES>
C[C@@H]1C[C@H]2[C@@H]3C[C@H](F)C4=CC(=O)C=C[C@]4(C)[C@H]3[C@@H](O)C[C@]2(C)[C@@]1(O)C(=O)CO

>  <CID>
5875

>  <logBB>


>  <BBB+/BBB->
BBB+

>  <Inchi>
InChI=1S/C22H29FO5/c1-11-6-14-13-8-16(23)15-7-12(25)4-5-20(15-2)19(13)17(26)9-21(14-3)22(11-28)18(27)10-24/h4-5-7-11-13-14-16-17-19-24-26-28H-6-8-10H2-1-3H3/t11--13+-14+-16+-17+-19--20+-21+-22+/m1/s1

>  <threshold>
-1

>  <reference>
R1|R6|R27|R30|

>  <group>
B

>  <Class>
1

>  <ABC>
22.38

>  <ABCGG>
18.78

>  <nAcid>
0

>  <nBase>
0

>  <nAromAtom>
0

>  <nAromBond>
0

>  <nAtom>
57

>  <nHeavyAtom>
28

>  <nSpiro>
0

>  <nBridgehead>
0

>  <nHetero>
6

>  <nN>
0

>  <nO>
5

>  <nF>
1

>  <BalabanJ>
1.74

>  <BertzCT>
789.8

>  <nBonds>
60

>  <nBondsO>
31

>  <nBondsS>
56

>  <nBondsD>
4

>  <nBondsT>
0

>  <nBondsA>
0

>  <nBondsM>
4

>  <nBondsKS>
56

>  <nBondsKD>
4

>  <RNCG>
0.16

>  <RPCG>
0.09

>  <FCSP3>
0.73

>  <SZ>
35

>  <Sm>
32.68

>  <Sv>
34.08

>  <Sse>
57.48

>  <Sp>
36.31

>  <Si>
64.62

>  <MZ>
0.61

>  <Mm>
0.57

>  <Mv>
0.6

>  <Mse>
1.01

>  <Mp>
0.64

>  <Mi>
1.13

>  <NsCH3>
3

>  <NdCH2>
0

>  <NssCH2>
4

>  <NtCH>
0

>  <NdsCH>
3

>  <NaaCH>
0

>  <NsssCH>
6

>  <NddC>
0

>  <NtsC>
0

>  <NdssC>
3

>  <NaasC>
0

>  <NaaaC>
0

>  <NssssC>
3

>  <NsNH3>
0

>  <NsNH2>
0

>  <NssNH2>
0

>  <NdNH>
0

>  <NssNH>
0

>  <NaaNH>
0

>  <NtN>
0

>  <NsssNH>
0

>  <NdsN>
0

>  <NaaN>
0

>  <NsssN>
0

>  <NddsN>
0

>  <NaasN>
0

>  <NssssN>
0

>  <NsOH>
3

>  <NdO>
2

>  <NssO>
0

>  <NaaO>
0

>  <NsF>
1

>  <NsSiH3>
0

>  <NssSiH2>
0

>  <NsssSiH>
0

>  <NssssSi>
0

>  <NsPH2>
0

>  <NssPH>
0

>  <NsssP>
0

>  <NdsssP>
0

>  <NsssssP>
0

>  <NsSH>
0

>  <NdS>
0

>  <NssS>
0

>  <NaaS>
0

>  <NdssS>
0

>  <NddssS>
0

>  <NsCl>
0

>  <NsBr>
0

>  <NsI>
0

>  <fragCpx>
205.06

>  <fMF>
0.3

>  <nHBAcc>
5

>  <nHBDon>
3

>  <Kier1>
21.24

>  <Kier2>
6.75

>  <Lipinski>
1

>  <GhoseFilter>
1

>  <FilterItLogS>
-2.35

>  <VMcGowan>
291.31

>  <LabuteASA>
163.87

>  <PEOE_VSA1>
15.32

>  <PEOE_VSA2>
9.59

>  <PEOE_VSA3>
4.39

>  <PEOE_VSA4>
0

>  <PEOE_VSA5>
0

>  <PEOE_VSA6>
26.85

>  <PEOE_VSA7>
54.74

>  <PEOE_VSA8>
16.75

>  <PEOE_VSA9>
6.1

>  <PEOE_VSA10>
18.38

>  <PEOE_VSA11>
11.57

>  <PEOE_VSA12>
0

>  <PEOE_VSA13>
0

>  <SMR_VSA1>
29.3

>  <SMR_VSA2>
0

>  <SMR_VSA3>
0

>  <SMR_VSA4>
34.5

>  <SMR_VSA5>
57.91

>  <SMR_VSA6>
6.61

>  <SMR_VSA7>
23.8

>  <SMR_VSA8>
0

>  <SMR_VSA9>
0

>  <SlogP_VSA1>
0

>  <SlogP_VSA2>
51.37

>  <SlogP_VSA3>
9.59

>  <SlogP_VSA4>
34.5

>  <SlogP_VSA5>
40.03

>  <SlogP_VSA6>
23.8

>  <SlogP_VSA7>
0

>  <SlogP_VSA8>
0

>  <SlogP_VSA9>
0

>  <SlogP_VSA10>
4.39

>  <SlogP_VSA11>
0

>  <EState_VSA1>
41.1

>  <EState_VSA2>
42.3

>  <EState_VSA3>
11.99

>  <EState_VSA4>
0

>  <EState_VSA5>
12.15

>  <EState_VSA6>
19.92

>  <EState_VSA7>
6.92

>  <EState_VSA8>
0

>  <EState_VSA9>
0

>  <EState_VSA10>
24.91

>  <VSA_EState1>
15.23

>  <VSA_EState2>
24.38

>  <VSA_EState3>
32.06

>  <VSA_EState4>
-3

>  <VSA_EState5>
-1.92

>  <VSA_EState6>
0

>  <VSA_EState7>
3.29

>  <VSA_EState8>
4.71

>  <VSA_EState9>
0

>  <apol>
60.64

>  <bpol>
31.94

>  <nRing>
4

>  <nHRing>
0

>  <naRing>
0

>  <naHRing>
0

>  <nARing 2>
4

>  <nAHRing 2>
0

>  <nFRing>
1

>  <nFHRing>
0

>  <nFaRing>
0

>  <nFaHRing>
0

>  <nFARing 2>
1

>  <nFAHRing 2>
0

>  <nRot>
2

>  <SLogP>
1.75

>  <SMR>
99.87

>  <TopoPSA(NO)>
94.83

>  <TopoPSA>
94.83

>  <JGI1>
0.31

>  <JGI2>
0.14

>  <JGI3>
0.08

>  <JGI4>
0.06

>  <JGI5>
0.04

>  <Diameter>
12

>  <Radius>
6

>  <TMWC10>
140.18

>  <TSRW10>
79.86

>  <MW>
392.2

>  <AMW>
6.88

>  <WPath>
1691

>  <WPol>
66

>  <Zagreb1>
166

>  <Zagreb2>
215

>  <mZagreb2>
5.84

>  <yes>


>  <nAR-cont>
0.199399

>  <nHA-cont>
0.82432561

>  <MWHBN>
0.40395798

>  <MWHBN-cont>
0.460497769

>  <TPSA-cont>
0.338027714

>  <pka_cont>
0.97

>  <yes.1>


>  <BBB_SCORE>
2.875526691

>  <MMFF94 Energy>
132.01

$$$$
Compound 1597
Actelion Java MolfileCreator 2.0

  0  0  0  0  0  0              0 V3000
M  V30 BEGIN CTAB
M  V30 COUNTS 56 59 0 0 0
M  V30 BEGIN ATOM
M  V30 1 F -2.5036 -0.8071 -4.0404 0
M  V30 2 C -1.9742 -1.2048 -2.8472 0 CFG=2
M  V30 3 C -3.0267 -1.2585 -1.7703 0
M  V30 4 C -0.8872 -0.2074 -2.4735 0
M  V30 5 C -4.3081 -0.9488 -2.0399 0
M  V30 6 C -2.5157 -1.6316 -0.3712 0 CFG=2
M  V30 7 C -0.2791 -0.4891 -1.0902 0 CFG=2
M  V30 8 C -5.3452 -0.9349 -0.9903 0
M  V30 9 C -3.6465 -1.5839 0.6517 0
M  V30 10 C -1.395 -0.5868 0.0094 0 CFG=2
M  V30 11 C -2.0318 -3.0988 -0.4094 0
M  V30 12 C 0.6999 0.6245 -0.6942 0 CFG=1
M  V30 13 O -6.508 -0.6467 -1.2419 0
M  V30 14 C -4.9211 -1.2737 0.3808 0
M  V30 15 C -0.7888 -0.7307 1.4383 0 CFG=1
M  V30 16 C 1.4055 0.3721 0.6542 0 CFG=2
M  V30 17 C 1.8424 0.9813 -1.6417 0
M  V30 18 O -0.2811 -2.0409 1.6391 0
M  V30 19 C 0.3183 0.3039 1.7434 0
M  V30 20 C 2.2954 1.6425 0.7025 0 CFG=2
M  V30 21 C 2.282 -0.906 0.673 0
M  V30 22 C 2.829 1.7786 -0.7546 0 CFG=2
M  V30 23 C 3.408 1.6082 1.7453 0
M  V30 24 C 2.9333 3.2404 -1.1801 0
M  V30 25 O 4.5175 1.116 1.5288 0
M  V30 26 C 3.0985 2.2353 3.1003 0
M  V30 27 O 4.0771 1.8961 4.0698 0
M  V30 28 H -1.5465 -2.1986 -3.0125 0
M  V30 29 H -0.1091 -0.2337 -3.2457 0
M  V30 30 H -1.3032 0.8088 -2.506 0
M  V30 31 H -4.6468 -0.6756 -3.0338 0
M  V30 32 H 0.2559 -1.4419 -1.156 0
M  V30 33 H -3.4024 -1.86 1.6758 0
M  V30 34 H -1.8907 0.3992 0.0171 0
M  V30 35 H -1.0863 -3.2167 -0.947 0
M  V30 36 H -2.7673 -3.7438 -0.9083 0
M  V30 37 H -1.8919 -3.5184 0.5927 0
M  V30 38 H 0.0968 1.5437 -0.5979 0
M  V30 39 H -5.6952 -1.2706 1.1386 0
M  V30 40 H -1.5806 -0.5842 2.1813 0
M  V30 41 H 1.4917 1.5587 -2.5035 0
M  V30 42 H 2.3273 0.0771 -2.0276 0
M  V30 43 H 0.0589 -2.1002 2.5496 0
M  V30 44 H -0.1559 1.2887 1.8467 0
M  V30 45 H 0.7804 0.0721 2.7105 0
M  V30 46 H 1.6741 2.5206 0.9302 0
M  V30 47 H 2.6652 -1.0963 1.6822 0
M  V30 48 H 1.7417 -1.8016 0.3608 0
M  V30 49 H 3.1499 -0.8299 0.0104 0
M  V30 50 H 3.8261 1.3343 -0.8597 0
M  V30 51 H 3.3139 3.3171 -2.2039 0
M  V30 52 H 3.6178 3.7871 -0.5234 0
M  V30 53 H 1.9579 3.7377 -1.1456 0
M  V30 54 H 3.0786 3.3227 2.9871 0
M  V30 55 H 2.1296 1.8862 3.4617 0
M  V30 56 H 4.8943 1.6896 3.5711 0
M  V30 END ATOM
M  V30 BEGIN BOND
M  V30 1 1 1 2
M  V30 2 1 2 3
M  V30 3 1 2 4
M  V30 4 2 3 5
M  V30 5 1 3 6
M  V30 6 1 4 7
M  V30 7 1 5 8
M  V30 8 1 6 9
M  V30 9 1 6 10
M  V30 10 1 6 11
M  V30 11 1 7 12
M  V30 12 2 8 13
M  V30 13 1 8 14
M  V30 14 1 10 15
M  V30 15 1 12 16
M  V30 16 1 12 17
M  V30 17 1 15 18
M  V30 18 1 15 19
M  V30 19 1 16 20
M  V30 20 1 16 21
M  V30 21 1 17 22
M  V30 22 1 20 23
M  V30 23 1 22 24
M  V30 24 2 23 25
M  V30 25 1 23 26
M  V30 26 1 26 27
M  V30 27 1 7 10
M  V30 28 2 9 14
M  V30 29 1 16 19
M  V30 30 1 20 22
M  V30 31 1 2 28
M  V30 32 1 4 29
M  V30 33 1 4 30
M  V30 34 1 5 31
M  V30 35 1 7 32
M  V30 36 1 9 33
M  V30 37 1 10 34
M  V30 38 1 11 35
M  V30 39 1 11 36
M  V30 40 1 11 37
M  V30 41 1 12 38
M  V30 42 1 14 39
M  V30 43 1 15 40
M  V30 44 1 17 41
M  V30 45 1 17 42
M  V30 46 1 18 43
M  V30 47 1 19 44
M  V30 48 1 19 45
M  V30 49 1 20 46
M  V30 50 1 21 47
M  V30 51 1 21 48
M  V30 52 1 21 49
M  V30 53 1 22 50
M  V30 54 1 24 51
M  V30 55 1 24 52
M  V30 56 1 24 53
M  V30 57 1 26 54
M  V30 58 1 26 55
M  V30 59 1 27 56
M  V30 END BOND
M  V30 BEGIN COLLECTION
M  V30 MDLV30/STEABS ATOMS=(9 2 6 7 10 12 15 16 20 22)
M  V30 END COLLECTION
M  V30 END CTAB
M  END
>  <Column 1>
1936

>  <level_0>
2103

>  <index>
2103

>  <Unnamed: 0>
2103

>  <NO.>
2115

>  <Name>
fluocortolone

>  <IUPAC_name>
(6s-8s-9s-10r-11s-13s-14s-16r-17s)-6-fluoro-11-hydroxy-17-(2-hydroxyacetyl)-10-13-16-trimethyl-6-7-8-9-11-12-14-15-16-17-decahydrocyclopenta[a]phenanthren-3-one

>  <SMILES>
C[C@@H]1C[C@H]2[C@@H]3C[C@H](F)C4=CC(=O)C=C[C@]4(C)[C@H]3[C@@H](O)C[C@]2(C)[C@H]1C(=O)CO

>  <CID>
9053

>  <logBB>


>  <BBB+/BBB->
BBB+

>  <Inchi>
InChI=1S/C22H29FO4/c1-11-6-14-13-8-16(23)15-7-12(25)4-5-21(15-2)20(13)17(26)9-22(14-3)19(11)18(27)10-24/h4-5-7-11-13-14-16-17-19-20-24-26H-6-8-10H2-1-3H3/t11--13+-14+-16+-17+-19--20--21+-22+/m1/s1

>  <threshold>
-1

>  <reference>
R1|R27|R30|

>  <group>
B

>  <Class>
1

>  <ABC>
21.59

>  <ABCGG>
17.9

>  <nAcid>
0

>  <nBase>
0

>  <nAromAtom>
0

>  <nAromBond>
0

>  <nAtom>
56

>  <nHeavyAtom>
27

>  <nSpiro>
0

>  <nBridgehead>
0

>  <nHetero>
5

>  <nN>
0

>  <nO>
4

>  <nF>
1

>  <BalabanJ>
1.7

>  <BertzCT>
742.59

>  <nBonds>
59

>  <nBondsO>
30

>  <nBondsS>
55

>  <nBondsD>
4

>  <nBondsT>
0

>  <nBondsA>
0

>  <nBondsM>
4

>  <nBondsKS>
55

>  <nBondsKD>
4

>  <RNCG>
0.19

>  <RPCG>
0.1

>  <FCSP3>
0.73

>  <SZ>
33.67

>  <Sm>
31.34

>  <Sv>
33.36

>  <Sse>
56.15

>  <Sp>
35.83

>  <Si>
63.41

>  <MZ>
0.6

>  <Mm>
0.56

>  <Mv>
0.6

>  <Mse>
1

>  <Mp>
0.64

>  <Mi>
1.13

>  <NsCH3>
3

>  <NdCH2>
0

>  <NssCH2>
4

>  <NtCH>
0

>  <NdsCH>
3

>  <NaaCH>
0

>  <NsssCH>
7

>  <NddC>
0

>  <NtsC>
0

>  <NdssC>
3

>  <NaasC>
0

>  <NaaaC>
0

>  <NssssC>
2

>  <NsNH3>
0

>  <NsNH2>
0

>  <NssNH2>
0

>  <NdNH>
0

>  <NssNH>
0

>  <NaaNH>
0

>  <NtN>
0

>  <NsssNH>
0

>  <NdsN>
0

>  <NaaN>
0

>  <NsssN>
0

>  <NddsN>
0

>  <NaasN>
0

>  <NssssN>
0

>  <NsOH>
2

>  <NdO>
2

>  <NssO>
0

>  <NaaO>
0

>  <NsF>
1

>  <NsSiH3>
0

>  <NssSiH2>
0

>  <NsssSiH>
0

>  <NssssSi>
0

>  <NsPH2>
0

>  <NssPH>
0

>  <NsssP>
0

>  <NdsssP>
0

>  <NsssssP>
0

>  <NsSH>
0

>  <NdS>
0

>  <NssS>
0

>  <NaaS>
0

>  <NdssS>
0

>  <NddssS>
0

>  <NsCl>
0

>  <NsBr>
0

>  <NsI>
0

>  <fragCpx>
198.05

>  <fMF>
0.3

>  <nHBAcc>
4

>  <nHBDon>
2

>  <Kier1>
20.28

>  <Kier2>
6.77

>  <Lipinski>
1

>  <GhoseFilter>
1

>  <FilterItLogS>
-2.72

>  <VMcGowan>
285.44

>  <LabuteASA>
159.08

>  <PEOE_VSA1>
10.21

>  <PEOE_VSA2>
9.59

>  <PEOE_VSA3>
4.39

>  <PEOE_VSA4>
0

>  <PEOE_VSA5>
0

>  <PEOE_VSA6>
26.85

>  <PEOE_VSA7>
60.16

>  <PEOE_VSA8>
17.25

>  <PEOE_VSA9>
6.1

>  <PEOE_VSA10>
12.78

>  <PEOE_VSA11>
11.57

>  <PEOE_VSA12>
0

>  <PEOE_VSA13>
0

>  <SMR_VSA1>
24.19

>  <SMR_VSA2>
0

>  <SMR_VSA3>
0

>  <SMR_VSA4>
40.42

>  <SMR_VSA5>
52.31

>  <SMR_VSA6>
6.61

>  <SMR_VSA7>
23.8

>  <SMR_VSA8>
0

>  <SMR_VSA9>
0

>  <SlogP_VSA1>
0

>  <SlogP_VSA2>
40.66

>  <SlogP_VSA3>
9.59

>  <SlogP_VSA4>
40.42

>  <SlogP_VSA5>
40.03

>  <SlogP_VSA6>
23.8

>  <SlogP_VSA7>
0

>  <SlogP_VSA8>
0

>  <SlogP_VSA9>
0

>  <SlogP_VSA10>
4.39

>  <SlogP_VSA11>
0

>  <EState_VSA1>
29.71

>  <EState_VSA2>
47.58

>  <EState_VSA3>
11.99

>  <EState_VSA4>
6.42

>  <EState_VSA5>
12.15

>  <EState_VSA6>
6.08

>  <EState_VSA7>
20.77

>  <EState_VSA8>
0

>  <EState_VSA9>
0

>  <EState_VSA10>
19.8

>  <VSA_EState1>
15.19

>  <VSA_EState2>
24.3

>  <VSA_EState3>
20.65

>  <VSA_EState4>
-0.6

>  <VSA_EState5>
-0.63

>  <VSA_EState6>
0

>  <VSA_EState7>
4.39

>  <VSA_EState8>
5.53

>  <VSA_EState9>
0

>  <apol>
59.84

>  <bpol>
31.94

>  <nRing>
4

>  <nHRing>
0

>  <naRing>
0

>  <naHRing>
0

>  <nARing 2>
4

>  <nAHRing 2>
0

>  <nFRing>
1

>  <nFHRing>
0

>  <nFaRing>
0

>  <nFaHRing>
0

>  <nFARing 2>
1

>  <nFAHRing 2>
0

>  <nRot>
2

>  <SLogP>
2.64

>  <SMR>
98.41

>  <TopoPSA(NO)>
74.6

>  <TopoPSA>
74.6

>  <JGI1>
0.28

>  <JGI2>
0.12

>  <JGI3>
0.08

>  <JGI4>
0.06

>  <JGI5>
0.04

>  <Diameter>
12

>  <Radius>
6

>  <TMWC10>
137.28

>  <TSRW10>
78.18

>  <MW>
376.2

>  <AMW>
6.72

>  <WPath>
1561

>  <WPol>
59

>  <Zagreb1>
158

>  <Zagreb2>
201

>  <mZagreb2>
5.67

>  <yes>


>  <nAR-cont>
0.199399

>  <nHA-cont>
0.860070871

>  <MWHBN>
0.309344112

>  <MWHBN-cont>
0.811952594

>  <TPSA-cont>
0.479245676

>  <pka_cont>
0.97

>  <yes.1>


>  <BBB_SCORE>
3.720890114

>  <MMFF94 Energy>
104.8

$$$$
Compound 1598
Actelion Java MolfileCreator 2.0

  0  0  0  0  0  0              0 V3000
M  V30 BEGIN CTAB
M  V30 COUNTS 35 37 0 0 0
M  V30 BEGIN ATOM
M  V30 1 Cl -2.2851 -2.3668 0.9788 0
M  V30 2 C -1.2703 -2.504 -0.411 0
M  V30 3 C -0.1867 -1.6474 -0.6353 0
M  V30 4 C -1.5834 -3.4784 -1.362 0
M  V30 5 C 0.1976 -0.6012 0.3457 0
M  V30 6 C 0.5867 -1.77 -1.7969 0
M  V30 7 C -0.8161 -3.5987 -2.5236 0
M  V30 8 N 0.755 -1.0103 1.4324 0
M  V30 9 C -0.0562 0.8221 -0.0259 0
M  V30 10 C 0.2673 -2.7466 -2.7404 0
M  V30 11 C 1.154 -0.0413 2.4566 0 CFG=2
M  V30 12 C 0.8905 1.8317 0.2219 0
M  V30 13 C -1.2511 1.1391 -0.6956 0
M  V30 14 C 2.3403 0.7755 1.9389 0
M  V30 15 C 1.5295 -0.8249 3.7092 0
M  V30 16 N 2.107 1.622 0.8837 0
M  V30 17 C 0.6526 3.1352 -0.2386 0
M  V30 18 C -1.4825 2.4511 -1.1301 0
M  V30 19 O 3.4636 0.7592 2.4431 0
M  V30 20 C -0.5309 3.4511 -0.9092 0
M  V30 21 N -2.7298 2.7765 -1.8347 0 CHG=1
M  V30 22 O -2.9285 3.9621 -2.1332 0
M  V30 23 O -3.5037 1.8444 -2.0918 0 CHG=-1
M  V30 24 H -2.4261 -4.148 -1.2057 0
M  V30 25 H 1.4461 -1.1243 -1.9602 0
M  V30 26 H -1.0621 -4.3624 -3.2583 0
M  V30 27 H 0.8687 -2.8517 -3.6407 0
M  V30 28 H 0.3279 0.6334 2.7133 0
M  V30 29 H -2.0011 0.3706 -0.8726 0
M  V30 30 H 0.6765 -1.4095 4.0706 0
M  V30 31 H 1.8474 -0.1512 4.5121 0
M  V30 32 H 2.3506 -1.524 3.5132 0
M  V30 33 H 2.9061 2.2003 0.6531 0
M  V30 34 H 1.3814 3.9252 -0.0626 0
M  V30 35 H -0.6939 4.4739 -1.2456 0
M  V30 END ATOM
M  V30 BEGIN BOND
M  V30 1 1 1 2
M  V30 2 2 2 3
M  V30 3 1 2 4
M  V30 4 1 3 5
M  V30 5 1 3 6
M  V30 6 2 4 7
M  V30 7 2 5 8
M  V30 8 1 5 9
M  V30 9 2 6 10
M  V30 10 1 8 11
M  V30 11 2 9 12
M  V30 12 1 9 13
M  V30 13 1 11 14
M  V30 14 1 11 15
M  V30 15 1 12 16
M  V30 16 1 12 17
M  V30 17 2 13 18
M  V30 18 2 14 19
M  V30 19 2 17 20
M  V30 20 1 18 21
M  V30 21 2 21 22
M  V30 22 1 21 23
M  V30 23 1 7 10
M  V30 24 1 14 16
M  V30 25 1 18 20
M  V30 26 1 4 24
M  V30 27 1 6 25
M  V30 28 1 7 26
M  V30 29 1 10 27
M  V30 30 1 11 28
M  V30 31 1 13 29
M  V30 32 1 15 30
M  V30 33 1 15 31
M  V30 34 1 15 32
M  V30 35 1 16 33
M  V30 36 1 17 34
M  V30 37 1 20 35
M  V30 END BOND
M  V30 BEGIN COLLECTION
M  V30 MDLV30/STEABS ATOMS=(1 11)
M  V30 END COLLECTION
M  V30 END CTAB
M  END
>  <Column 1>
1937

>  <level_0>
2104

>  <index>
2104

>  <Unnamed: 0>
2104

>  <NO.>
2116

>  <Name>
meclonazepam

>  <IUPAC_name>
(3s)-5-(2-chlorophenyl)-3-methyl-7-nitro-1-3-dihydro-1-4-benzodiazepin-2-one

>  <SMILES>
C[C@@H]1N=C(c2ccccc2Cl)c2cc([N+](=O)[O-])ccc2NC1=O

>  <CID>
3033985

>  <logBB>


>  <BBB+/BBB->
BBB+

>  <Inchi>
InChI=1S/C16H12ClN3O3/c1-9-16(21)19-14-7-6-10(20(22)23)8-12(14)15(18-9)11-4-2-3-5-13(11)17/h2-9H-1H3-(H-19-21)/t9-/m0/s1

>  <threshold>
-1

>  <reference>
R1|R13|R6|R27|R30|

>  <group>
B

>  <Class>
-1

>  <ABC>
17.98

>  <ABCGG>
14.92

>  <nAcid>
0

>  <nBase>
0

>  <nAromAtom>
12

>  <nAromBond>
12

>  <nAtom>
35

>  <nHeavyAtom>
23

>  <nSpiro>
0

>  <nBridgehead>
0

>  <nHetero>
7

>  <nN>
3

>  <nO>
3

>  <nF>
0

>  <BalabanJ>
1.83

>  <BertzCT>
848.21

>  <nBonds>
37

>  <nBondsO>
25

>  <nBondsS>
22

>  <nBondsD>
3

>  <nBondsT>
0

>  <nBondsA>
12

>  <nBondsM>
15

>  <nBondsKS>
28

>  <nBondsKD>
9

>  <RNCG>
0.19

>  <RPCG>
0.15

>  <FCSP3>
0.13

>  <SZ>
28.33

>  <Sm>
27.45

>  <Sv>
24.76

>  <Sse>
36.07

>  <Sp>
25.51

>  <Si>
39.14

>  <MZ>
0.81

>  <Mm>
0.78

>  <Mv>
0.71

>  <Mse>
1.03

>  <Mp>
0.73

>  <Mi>
1.12

>  <NsCH3>
1

>  <NdCH2>
0

>  <NssCH2>
0

>  <NtCH>
0

>  <NdsCH>
0

>  <NaaCH>
7

>  <NsssCH>
1

>  <NddC>
0

>  <NtsC>
0

>  <NdssC>
2

>  <NaasC>
5

>  <NaaaC>
0

>  <NssssC>
0

>  <NsNH3>
0

>  <NsNH2>
0

>  <NssNH2>
0

>  <NdNH>
0

>  <NssNH>
1

>  <NaaNH>
0

>  <NtN>
0

>  <NsssNH>
0

>  <NdsN>
1

>  <NaaN>
0

>  <NsssN>
0

>  <NddsN>
1

>  <NaasN>
0

>  <NssssN>
0

>  <NsOH>
0

>  <NdO>
2

>  <NssO>
0

>  <NaaO>
0

>  <NsF>
0

>  <NsSiH3>
0

>  <NssSiH2>
0

>  <NsssSiH>
0

>  <NssssSi>
0

>  <NsPH2>
0

>  <NssPH>
0

>  <NsssP>
0

>  <NdsssP>
0

>  <NsssssP>
0

>  <NsSH>
0

>  <NdS>
0

>  <NssS>
0

>  <NaaS>
0

>  <NdssS>
0

>  <NddssS>
0

>  <NsCl>
1

>  <NsBr>
0

>  <NsI>
0

>  <fragCpx>
119.07

>  <fMF>
0.49

>  <nHBAcc>
4

>  <nHBDon>
1

>  <Kier1>
17.81

>  <Kier2>
7.49

>  <Lipinski>
1

>  <GhoseFilter>
1

>  <FilterItLogS>
-5.41

>  <VMcGowan>
224.81

>  <LabuteASA>
136.51

>  <PEOE_VSA1>
5.32

>  <PEOE_VSA2>
19.9

>  <PEOE_VSA3>
0

>  <PEOE_VSA4>
0

>  <PEOE_VSA5>
0

>  <PEOE_VSA6>
29.8

>  <PEOE_VSA7>
19.06

>  <PEOE_VSA8>
28.28

>  <PEOE_VSA9>
16.32

>  <PEOE_VSA10>
6.04

>  <PEOE_VSA11>
0

>  <PEOE_VSA12>
5.91

>  <PEOE_VSA13>
5.69

>  <SMR_VSA1>
9.72

>  <SMR_VSA2>
0

>  <SMR_VSA3>
0

>  <SMR_VSA4>
4.99

>  <SMR_VSA5>
12.97

>  <SMR_VSA6>
5.32

>  <SMR_VSA7>
68.73

>  <SMR_VSA8>
0

>  <SMR_VSA9>
0

>  <SlogP_VSA1>
5.32

>  <SlogP_VSA2>
22.58

>  <SlogP_VSA3>
4.79

>  <SlogP_VSA4>
10.11

>  <SlogP_VSA5>
18.05

>  <SlogP_VSA6>
47.46

>  <SlogP_VSA7>
5.02

>  <SlogP_VSA8>
0

>  <SlogP_VSA9>
0

>  <SlogP_VSA10>
11.37

>  <SlogP_VSA11>
0

>  <EState_VSA1>
10.97

>  <EState_VSA2>
11.59

>  <EState_VSA3>
27.55

>  <EState_VSA4>
0

>  <EState_VSA5>
18.2

>  <EState_VSA6>
31.19

>  <EState_VSA7>
0

>  <EState_VSA8>
10.31

>  <EState_VSA9>
11.6

>  <EState_VSA10>
14.91

>  <VSA_EState1>
0

>  <VSA_EState2>
27.08

>  <VSA_EState3>
14.27

>  <VSA_EState4>
1.96

>  <VSA_EState5>
-0.28

>  <VSA_EState6>
10.68

>  <VSA_EState7>
0

>  <VSA_EState8>
1.66

>  <VSA_EState9>
0

>  <apol>
42.61

>  <bpol>
16.29

>  <nRing>
3

>  <nHRing>
1

>  <naRing>
2

>  <naHRing>
0

>  <nARing 2>
1

>  <nAHRing 2>
1

>  <nFRing>
1

>  <nFHRing>
1

>  <nFaRing>
0

>  <nFaHRing>
0

>  <nFARing 2>
1

>  <nFAHRing 2>
1

>  <nRot>
2

>  <SLogP>
3.43

>  <SMR>
88.28

>  <TopoPSA(NO)>
84.6

>  <TopoPSA>
84.6

>  <JGI1>
0.2

>  <JGI2>
0.09

>  <JGI3>
0.04

>  <JGI4>
0.05

>  <JGI5>
0.03

>  <Diameter>
9

>  <Radius>
5

>  <TMWC10>
123.23

>  <TSRW10>
65.61

>  <MW>
329.06

>  <AMW>
9.4

>  <WPath>
1065

>  <WPol>
42

>  <Zagreb1>
122

>  <Zagreb2>
145

>  <mZagreb2>
5

>  <yes>


>  <nAR-cont>
0.816016

>  <nHA-cont>
0.967789328

>  <MWHBN>
0.275633791

>  <MWHBN-cont>
0.906894468

>  <TPSA-cont>
0.409439467

>  <pka_cont>
0.97

>  <yes.1>


>  <BBB_SCORE>
4.448025963

>  <MMFF94 Energy>
132.55

$$$$
Compound 1599
Actelion Java MolfileCreator 2.0

  0  0  0  0  0  0              0 V3000
M  V30 BEGIN CTAB
M  V30 COUNTS 63 66 0 0 0
M  V30 BEGIN ATOM
M  V30 1 O 0.724 1.1264 -1.9316 0
M  V30 2 C 0.4271 0.3472 -1.0304 0
M  V30 3 C -1.0132 0.0167 -0.6389 0 CFG=1
M  V30 4 C 1.5099 -0.371 -0.2341 0
M  V30 5 C -1.0819 0.4223 0.8619 0 CFG=2
M  V30 6 C -2.1271 0.9384 -1.2188 0 CFG=1
M  V30 7 C -1.2685 -1.4748 -0.9067 0
M  V30 8 C 1.3403 -0.1574 1.2851 0 CFG=1
M  V30 9 C -0.1318 -0.3878 1.7571 0 CFG=1
M  V30 10 C -2.5751 0.3697 1.1545 0
M  V30 11 C -2.7377 0.7244 -2.6389 0 CFG=1
M  V30 12 C -3.2074 0.981 -0.1007 0
M  V30 13 C 2.3767 -0.9545 2.1668 0 CFG=2
M  V30 14 C -0.2005 0.0077 3.2297 0
M  V30 15 C -1.6779 0.8975 -3.7471 0
M  V30 16 C -3.5452 -0.5634 -2.8509 0
M  V30 17 C 2.1914 -0.5675 3.6774 0 CFG=2
M  V30 18 C 3.8538 -0.6628 1.7669 0
M  V30 19 C 2.1835 -2.485 2.0037 0
M  V30 20 O -0.9712 0.857 3.6679 0
M  V30 21 C 0.7414 -0.7361 4.1501 0
M  V30 22 C -2.2618 0.9456 -5.1572 0
M  V30 23 C 2.6725 0.8614 4.0007 0
M  V30 24 C 4.3026 0.767 2.0278 0
M  V30 25 C -1.178 1.2181 -6.1601 0
M  V30 26 C 4.066 1.1077 3.4761 0
M  V30 27 O -0.4958 0.3813 -6.7278 0
M  V30 28 O -0.9871 2.532 -6.3796 0
M  V30 29 O 4.9337 1.6364 4.1678 0
M  V30 30 H 2.4733 0.0323 -0.5647 0
M  V30 31 H 1.4924 -1.4281 -0.5109 0
M  V30 32 H -0.781 1.4797 0.9576 0
M  V30 33 H -1.7001 1.9543 -1.2509 0
M  V30 34 H -1.0547 -1.7198 -1.9521 0
M  V30 35 H -2.298 -1.7681 -0.6827 0
M  V30 36 H -0.6242 -2.1326 -0.3168 0
M  V30 37 H 1.5375 0.9127 1.4446 0
M  V30 38 H -0.4109 -1.4444 1.7127 0
M  V30 39 H -2.8611 0.9373 2.0442 0
M  V30 40 H -2.9174 -0.6614 1.2958 0
M  V30 41 H -3.4581 1.547 -2.7639 0
M  V30 42 H -4.1306 0.4517 -0.3462 0
M  V30 43 H -3.4876 2.0248 0.088 0
M  V30 44 H -0.9446 0.0839 -3.6956 0
M  V30 45 H -1.1282 1.8309 -3.5724 0
M  V30 46 H -4.1556 -0.8332 -1.9871 0
M  V30 47 H -4.2394 -0.438 -3.6899 0
M  V30 48 H -2.9065 -1.4152 -3.0981 0
M  V30 49 H 2.8128 -1.2484 4.2774 0
M  V30 50 H 4.0319 -0.9135 0.7153 0
M  V30 51 H 4.5109 -1.3299 2.3435 0
M  V30 52 H 2.8576 -3.0351 2.6713 0
M  V30 53 H 2.4108 -2.8122 0.9839 0
M  V30 54 H 1.1689 -2.816 2.2369 0
M  V30 55 H 0.6191 -0.3557 5.1708 0
M  V30 56 H 0.4428 -1.7894 4.1654 0
M  V30 57 H -2.7331 -0.0032 -5.4345 0
M  V30 58 H -3.0331 1.7194 -5.2439 0
M  V30 59 H 2.0172 1.6285 3.5748 0
M  V30 60 H 2.6831 1.0083 5.0874 0
M  V30 61 H 5.3721 0.8632 1.8115 0
M  V30 62 H 3.7685 1.4877 1.4017 0
M  V30 63 H -0.2355 2.5618 -7.0074 0
M  V30 END ATOM
M  V30 BEGIN BOND
M  V30 1 2 1 2
M  V30 2 1 2 3
M  V30 3 1 2 4
M  V30 4 1 3 5
M  V30 5 1 3 6
M  V30 6 1 3 7
M  V30 7 1 4 8
M  V30 8 1 5 9
M  V30 9 1 5 10
M  V30 10 1 6 11
M  V30 11 1 6 12
M  V30 12 1 8 13
M  V30 13 1 9 14
M  V30 14 1 11 15
M  V30 15 1 11 16
M  V30 16 1 13 17
M  V30 17 1 13 18
M  V30 18 1 13 19
M  V30 19 2 14 20
M  V30 20 1 14 21
M  V30 21 1 15 22
M  V30 22 1 17 23
M  V30 23 1 18 24
M  V30 24 1 22 25
M  V30 25 1 23 26
M  V30 26 2 25 27
M  V30 27 1 25 28
M  V30 28 2 26 29
M  V30 29 1 8 9
M  V30 30 1 10 12
M  V30 31 1 17 21
M  V30 32 1 24 26
M  V30 33 1 4 30
M  V30 34 1 4 31
M  V30 35 1 5 32
M  V30 36 1 6 33
M  V30 37 1 7 34
M  V30 38 1 7 35
M  V30 39 1 7 36
M  V30 40 1 8 37
M  V30 41 1 9 38
M  V30 42 1 10 39
M  V30 43 1 10 40
M  V30 44 1 11 41
M  V30 45 1 12 42
M  V30 46 1 12 43
M  V30 47 1 15 44
M  V30 48 1 15 45
M  V30 49 1 16 46
M  V30 50 1 16 47
M  V30 51 1 16 48
M  V30 52 1 17 49
M  V30 53 1 18 50
M  V30 54 1 18 51
M  V30 55 1 19 52
M  V30 56 1 19 53
M  V30 57 1 19 54
M  V30 58 1 21 55
M  V30 59 1 21 56
M  V30 60 1 22 57
M  V30 61 1 22 58
M  V30 62 1 23 59
M  V30 63 1 23 60
M  V30 64 1 24 61
M  V30 65 1 24 62
M  V30 66 1 28 63
M  V30 END BOND
M  V30 BEGIN COLLECTION
M  V30 MDLV30/STEABS ATOMS=(8 3 5 6 8 9 11 13 17)
M  V30 END COLLECTION
M  V30 END CTAB
M  END
>  <Column 1>
1940

>  <level_0>
2107

>  <index>
2107

>  <Unnamed: 0>
2107

>  <NO.>
2119

>  <Name>
dehydrocholic acid

>  <IUPAC_name>
(4r)-4-[(5s-8r-9s-10s-13r-14s-17r)-10-13-dimethyl-3-7-12-trioxo-1-2-4-5-6-8-9-11-14-15-16-17-dodecahydrocyclopenta[a]phenanthren-17-yl]pentanoic acid

>  <SMILES>
C[C@H](CCC(=O)O)[C@H]1CC[C@H]2[C@@H]3C(=O)C[C@@H]4CC(=O)CC[C@]4(C)[C@H]3CC(=O)[C@@]21C

>  <CID>
6674

>  <logBB>


>  <BBB+/BBB->
BBB-

>  <Inchi>
InChI=1S/C24H34O5/c1-13(4-7-21(28)29)16-5-6-17-22-18(12-20(27)24(16-17)3)23(2)9-8-15(25)10-14(23)11-19(22)26/h13-14-16-18-22H-4-12H2-1-3H3-(H-28-29)/t13--14+-16--17+-18+-22+-23+-24-/m1/s1

>  <threshold>
-1

>  <reference>
R1|R27|R30|

>  <group>
B

>  <Class>
1

>  <ABC>
23.13

>  <ABCGG>
18.71

>  <nAcid>
1

>  <nBase>
0

>  <nAromAtom>
0

>  <nAromBond>
0

>  <nAtom>
63

>  <nHeavyAtom>
29

>  <nSpiro>
0

>  <nBridgehead>
0

>  <nHetero>
5

>  <nN>
0

>  <nO>
5

>  <nF>
0

>  <BalabanJ>
1.6

>  <BertzCT>
756.37

>  <nBonds>
66

>  <nBondsO>
32

>  <nBondsS>
62

>  <nBondsD>
4

>  <nBondsT>
0

>  <nBondsA>
0

>  <nBondsM>
4

>  <nBondsKS>
62

>  <nBondsKD>
4

>  <RNCG>
0.23

>  <RPCG>
0.14

>  <FCSP3>
0.83

>  <SZ>
36.33

>  <Sm>
33.51

>  <Sv>
36.79

>  <Sse>
62.75

>  <Sp>
39.98

>  <Si>
71.11

>  <MZ>
0.58

>  <Mm>
0.53

>  <Mv>
0.58

>  <Mse>
1

>  <Mp>
0.63

>  <Mi>
1.13

>  <NsCH3>
3

>  <NdCH2>
0

>  <NssCH2>
9

>  <NtCH>
0

>  <NdsCH>
0

>  <NaaCH>
0

>  <NsssCH>
6

>  <NddC>
0

>  <NtsC>
0

>  <NdssC>
4

>  <NaasC>
0

>  <NaaaC>
0

>  <NssssC>
2

>  <NsNH3>
0

>  <NsNH2>
0

>  <NssNH2>
0

>  <NdNH>
0

>  <NssNH>
0

>  <NaaNH>
0

>  <NtN>
0

>  <NsssNH>
0

>  <NdsN>
0

>  <NaaN>
0

>  <NsssN>
0

>  <NddsN>
0

>  <NaasN>
0

>  <NssssN>
0

>  <NsOH>
1

>  <NdO>
4

>  <NssO>
0

>  <NaaO>
0

>  <NsF>
0

>  <NsSiH3>
0

>  <NssSiH2>
0

>  <NsssSiH>
0

>  <NssssSi>
0

>  <NsPH2>
0

>  <NssPH>
0

>  <NsssP>
0

>  <NdsssP>
0

>  <NsssssP>
0

>  <NsSH>
0

>  <NdS>
0

>  <NssS>
0

>  <NaaS>
0

>  <NdssS>
0

>  <NddssS>
0

>  <NsCl>
0

>  <NsBr>
0

>  <NsI>
0

>  <fragCpx>
212.05

>  <fMF>
0.27

>  <nHBAcc>
4

>  <nHBDon>
1

>  <Kier1>
22.2

>  <Kier2>
7.85

>  <Lipinski>
1

>  <GhoseFilter>
1

>  <FilterItLogS>
-4.4

>  <VMcGowan>
317.73

>  <LabuteASA>
172.55

>  <PEOE_VSA1>
5.11

>  <PEOE_VSA2>
19.18

>  <PEOE_VSA3>
0

>  <PEOE_VSA4>
0

>  <PEOE_VSA5>
0

>  <PEOE_VSA6>
20.77

>  <PEOE_VSA7>
60.69

>  <PEOE_VSA8>
43.44

>  <PEOE_VSA9>
0

>  <PEOE_VSA10>
17.35

>  <PEOE_VSA11>
0

>  <PEOE_VSA12>
0

>  <PEOE_VSA13>
0

>  <SMR_VSA1>
24.28

>  <SMR_VSA2>
0

>  <SMR_VSA3>
0

>  <SMR_VSA4>
46.34

>  <SMR_VSA5>
78.56

>  <SMR_VSA6>
0

>  <SMR_VSA7>
0

>  <SMR_VSA8>
0

>  <SMR_VSA9>
0

>  <SlogP_VSA1>
0

>  <SlogP_VSA2>
28.43

>  <SlogP_VSA3>
19.18

>  <SlogP_VSA4>
46.34

>  <SlogP_VSA5>
78.56

>  <SlogP_VSA6>
0

>  <SlogP_VSA7>
0

>  <SlogP_VSA8>
0

>  <SlogP_VSA9>
0

>  <SlogP_VSA10>
0

>  <SlogP_VSA11>
0

>  <EState_VSA1>
11.38

>  <EState_VSA2>
64.69

>  <EState_VSA3>
32.1

>  <EState_VSA4>
19.26

>  <EState_VSA5>
0

>  <EState_VSA6>
0

>  <EState_VSA7>
0

>  <EState_VSA8>
20.77

>  <EState_VSA9>
5.11

>  <EState_VSA10>
19.18

>  <VSA_EState1>
0

>  <VSA_EState2>
49.98

>  <VSA_EState3>
9.06

>  <VSA_EState4>
-0.6

>  <VSA_EState5>
0.52

>  <VSA_EState6>
0

>  <VSA_EState7>
5.33

>  <VSA_EState8>
6.37

>  <VSA_EState9>
0

>  <apol>
66.76

>  <bpol>
37.58

>  <nRing>
4

>  <nHRing>
0

>  <naRing>
0

>  <naHRing>
0

>  <nARing 2>
4

>  <nAHRing 2>
0

>  <nFRing>
1

>  <nFHRing>
0

>  <nFaRing>
0

>  <nFaHRing>
0

>  <nFARing 2>
1

>  <nFAHRing 2>
0

>  <nRot>
4

>  <SLogP>
4.07

>  <SMR>
107.04

>  <TopoPSA(NO)>
88.51

>  <TopoPSA>
88.51

>  <JGI1>
0.28

>  <JGI2>
0.12

>  <JGI3>
0.06

>  <JGI4>
0.06

>  <JGI5>
0.03

>  <Diameter>
14

>  <Radius>
7

>  <TMWC10>
141.27

>  <TSRW10>
80.06

>  <MW>
402.24

>  <AMW>
6.38

>  <WPath>
2045

>  <WPol>
60

>  <Zagreb1>
166

>  <Zagreb2>
208

>  <mZagreb2>
6.07

>  <yes>


>  <nAR-cont>
0.199399

>  <nHA-cont>
0.785905698

>  <MWHBN>
0.249302926

>  <MWHBN-cont>
0.960941215

>  <TPSA-cont>
0.382145239

>  <pka_cont>
0.97

>  <yes.1>


>  <BBB_SCORE>
3.676006998

>  <MMFF94 Energy>
65.203

$$$$
Compound 1600
Actelion Java MolfileCreator 2.0

  0  0  0  0  0  0              0 V3000
M  V30 BEGIN CTAB
M  V30 COUNTS 22 22 0 0 0
M  V30 BEGIN ATOM
M  V30 1 O 0.8603 -1.0951 1.8779 0
M  V30 2 C 0.6178 -0.2528 1.0096 0
M  V30 3 C -0.6114 -0.4104 0.1698 0
M  V30 4 C 1.5554 0.9454 0.7745 0 CFG=1
M  V30 5 C -1.3275 -1.6129 0.2688 0
M  V30 6 C -1.0769 0.5889 -0.6937 0
M  V30 7 N 2.4743 1.0769 1.927 0
M  V30 8 C 2.3871 0.7455 -0.4862 0
M  V30 9 C -2.4827 -1.8165 -0.4884 0
M  V30 10 C -2.2343 0.3815 -1.4508 0
M  V30 11 C -2.9346 -0.8191 -1.3488 0
M  V30 12 H 0.9743 1.8701 0.7233 0
M  V30 13 H -0.9878 -2.4016 0.9385 0
M  V30 14 H -0.5683 1.5419 -0.7995 0
M  V30 15 H 1.9063 1.145 2.7748 0
M  V30 16 H 2.9478 0.1752 2.0424 0
M  V30 17 H 2.9636 -0.1859 -0.4423 0
M  V30 18 H 3.0893 1.5742 -0.6301 0
M  V30 19 H 1.7553 0.6908 -1.3782 0
M  V30 20 H -3.0285 -2.7531 -0.4039 0
M  V30 21 H -2.5924 1.1604 -2.1205 0
M  V30 22 H -3.8349 -0.9765 -1.9382 0
M  V30 END ATOM
M  V30 BEGIN BOND
M  V30 1 2 1 2
M  V30 2 1 2 3
M  V30 3 1 2 4
M  V30 4 2 3 5
M  V30 5 1 3 6
M  V30 6 1 4 7
M  V30 7 1 4 8
M  V30 8 1 5 9
M  V30 9 2 6 10
M  V30 10 2 9 11
M  V30 11 1 10 11
M  V30 12 1 4 12
M  V30 13 1 5 13
M  V30 14 1 6 14
M  V30 15 1 7 15
M  V30 16 1 7 16
M  V30 17 1 8 17
M  V30 18 1 8 18
M  V30 19 1 8 19
M  V30 20 1 9 20
M  V30 21 1 10 21
M  V30 22 1 11 22
M  V30 END BOND
M  V30 BEGIN COLLECTION
M  V30 MDLV30/STEABS ATOMS=(1 4)
M  V30 END COLLECTION
M  V30 END CTAB
M  END
>  <Column 1>
1941

>  <level_0>
2108

>  <index>
2108

>  <Unnamed: 0>
2108

>  <NO.>
2120

>  <Name>
cathinone

>  <IUPAC_name>
(2s)-2-amino-1-phenylpropan-1-one

>  <SMILES>
C[C@H](N)C(=O)c1ccccc1

>  <CID>
62258

>  <logBB>


>  <BBB+/BBB->
BBB+

>  <Inchi>
InChI=1S/C9H11NO/c1-7(10)9(11)8-5-3-2-4-6-8/h2-7H-10H2-1H3/t7-/m0/s1

>  <threshold>
-1

>  <reference>
R1|R13|R6|R27|R27|R30|R30|

>  <group>
B

>  <Class>
1

>  <ABC>
8.03

>  <ABCGG>
7.68

>  <nAcid>
0

>  <nBase>
1

>  <nAromAtom>
6

>  <nAromBond>
6

>  <nAtom>
22

>  <nHeavyAtom>
11

>  <nSpiro>
0

>  <nBridgehead>
0

>  <nHetero>
2

>  <nN>
1

>  <nO>
1

>  <nF>
0

>  <BalabanJ>
2.32

>  <BertzCT>
241

>  <nBonds>
22

>  <nBondsO>
11

>  <nBondsS>
15

>  <nBondsD>
1

>  <nBondsT>
0

>  <nBondsA>
6

>  <nBondsM>
7

>  <nBondsKS>
18

>  <nBondsKD>
4

>  <RNCG>
0.34

>  <RPCG>
0.19

>  <FCSP3>
0.22

>  <SZ>
13.33

>  <Sm>
12.42

>  <Sv>
13.45

>  <Sse>
21.88

>  <Sp>
14.53

>  <Si>
24.78

>  <MZ>
0.61

>  <Mm>
0.56

>  <Mv>
0.61

>  <Mse>
0.99

>  <Mp>
0.66

>  <Mi>
1.13

>  <NsCH3>
1

>  <NdCH2>
0

>  <NssCH2>
0

>  <NtCH>
0

>  <NdsCH>
0

>  <NaaCH>
5

>  <NsssCH>
1

>  <NddC>
0

>  <NtsC>
0

>  <NdssC>
1

>  <NaasC>
1

>  <NaaaC>
0

>  <NssssC>
0

>  <NsNH3>
0

>  <NsNH2>
1

>  <NssNH2>
0

>  <NdNH>
0

>  <NssNH>
0

>  <NaaNH>
0

>  <NtN>
0

>  <NsssNH>
0

>  <NdsN>
0

>  <NaaN>
0

>  <NsssN>
0

>  <NddsN>
0

>  <NaasN>
0

>  <NssssN>
0

>  <NsOH>
0

>  <NdO>
1

>  <NssO>
0

>  <NaaO>
0

>  <NsF>
0

>  <NsSiH3>
0

>  <NssSiH2>
0

>  <NsssSiH>
0

>  <NssssSi>
0

>  <NsPH2>
0

>  <NssPH>
0

>  <NsssP>
0

>  <NdsssP>
0

>  <NsssssP>
0

>  <NsSH>
0

>  <NdS>
0

>  <NssS>
0

>  <NaaS>
0

>  <NdssS>
0

>  <NddssS>
0

>  <NsCl>
0

>  <NsBr>
0

>  <NsI>
0

>  <fragCpx>
11.02

>  <fMF>
0.27

>  <nHBAcc>
2

>  <nHBDon>
1

>  <Kier1>
9.09

>  <Kier2>
4.13

>  <Lipinski>
1

>  <GhoseFilter>
0

>  <FilterItLogS>
-1.65

>  <VMcGowan>
125.46

>  <LabuteASA>
66.03

>  <PEOE_VSA1>
5.73

>  <PEOE_VSA2>
4.79

>  <PEOE_VSA3>
0

>  <PEOE_VSA4>
0

>  <PEOE_VSA5>
0

>  <PEOE_VSA6>
30.33

>  <PEOE_VSA7>
6.92

>  <PEOE_VSA8>
5.56

>  <PEOE_VSA9>
6.04

>  <PEOE_VSA10>
0

>  <PEOE_VSA11>
5.78

>  <PEOE_VSA12>
0

>  <PEOE_VSA13>
0

>  <SMR_VSA1>
4.79

>  <SMR_VSA2>
0

>  <SMR_VSA3>
0

>  <SMR_VSA4>
5.73

>  <SMR_VSA5>
12.97

>  <SMR_VSA6>
0

>  <SMR_VSA7>
35.9

>  <SMR_VSA8>
0

>  <SMR_VSA9>
0

>  <SlogP_VSA1>
5.73

>  <SlogP_VSA2>
11.83

>  <SlogP_VSA3>
0

>  <SlogP_VSA4>
0

>  <SlogP_VSA5>
17.28

>  <SlogP_VSA6>
30.33

>  <SlogP_VSA7>
0

>  <SlogP_VSA8>
0

>  <SlogP_VSA9>
0

>  <SlogP_VSA10>
0

>  <SlogP_VSA11>
0

>  <EState_VSA1>
6.04

>  <EState_VSA2>
5.78

>  <EState_VSA3>
5.56

>  <EState_VSA4>
0

>  <EState_VSA5>
0

>  <EState_VSA6>
19.06

>  <EState_VSA7>
18.2

>  <EState_VSA8>
0

>  <EState_VSA9>
5.73

>  <EState_VSA10>
4.79

>  <VSA_EState1>
0

>  <VSA_EState2>
11.22

>  <VSA_EState3>
0

>  <VSA_EState4>
6.1

>  <VSA_EState5>
-0.01

>  <VSA_EState6>
8.66

>  <VSA_EState7>
0

>  <VSA_EState8>
1.69

>  <VSA_EState9>
0

>  <apol>
24.27

>  <bpol>
11.33

>  <nRing>
1

>  <nHRing>
0

>  <naRing>
1

>  <naHRing>
0

>  <nARing 2>
0

>  <nAHRing 2>
0

>  <nFRing>
0

>  <nFHRing>
0

>  <nFaRing>
0

>  <nFaHRing>
0

>  <nFARing 2>
0

>  <nFAHRing 2>
0

>  <nRot>
2

>  <SLogP>
1.22

>  <SMR>
44.42

>  <TopoPSA(NO)>
43.09

>  <TopoPSA>
43.09

>  <JGI1>
0.18

>  <JGI2>
0.1

>  <JGI3>
0.05

>  <JGI4>
0.04

>  <JGI5>
0.03

>  <Diameter>
6

>  <Radius>
3

>  <TMWC10>
86.23

>  <TSRW10>
40.57

>  <MW>
149.08

>  <AMW>
6.78

>  <WPath>
156

>  <WPol>
13

>  <Zagreb1>
50

>  <Zagreb2>
55

>  <mZagreb2>
2.56

>  <yes>


>  <nAR-cont>
0.336376

>  <nHA-cont>
0.720786536

>  <MWHBN>
0.245703624

>  <MWHBN-cont>
0.966705063

>  <TPSA-cont>
0.699205043

>  <pka_cont>
0.97

>  <yes.1>


>  <BBB_SCORE>
4.390630216

>  <MMFF94 Energy>
65.777

$$$$
Compound 1601
Actelion Java MolfileCreator 2.0

  0  0  0  0  0  0              0 V3000
M  V30 BEGIN CTAB
M  V30 COUNTS 25 25 0 0 0
M  V30 BEGIN ATOM
M  V30 1 O -1.2447 -3.4258 0.6999 0
M  V30 2 C -1.2601 -2.3092 -0.0833 0
M  V30 3 C -0.2377 -1.3798 0.1002 0
M  V30 4 C -2.2536 -2.1068 -1.0327 0
M  V30 5 C -0.1975 -0.2021 -0.6604 0
M  V30 6 C -2.215 -0.9587 -1.8187 0
M  V30 7 C -1.1933 -0.0218 -1.6402 0
M  V30 8 C 0.9161 0.8249 -0.526 0 CFG=1
M  V30 9 O 0.4014 2.1463 -0.7719 0
M  V30 10 C 1.7179 0.8644 0.8169 0 CFG=1
M  V30 11 N 2.8174 1.8532 0.7388 0
M  V30 12 C 0.8579 1.2603 2.0217 0
M  V30 13 H -2.003 -3.9834 0.4601 0
M  V30 14 H 0.5204 -1.6032 0.8453 0
M  V30 15 H -3.0504 -2.8282 -1.1808 0
M  V30 16 H -2.9748 -0.7921 -2.5781 0
M  V30 17 H -1.1728 0.8571 -2.284 0
M  V30 18 H 1.6272 0.6164 -1.3361 0
M  V30 19 H -0.4293 2.2165 -0.2697 0
M  V30 20 H 2.1727 -0.1128 1.0098 0
M  V30 21 H 2.4029 2.7381 0.429 0
M  V30 22 H 3.4421 1.591 -0.0237 0
M  V30 23 H 1.4548 1.252 2.9412 0
M  V30 24 H 0.0278 0.5639 2.1706 0
M  V30 25 H 0.435 2.2652 1.9122 0
M  V30 END ATOM
M  V30 BEGIN BOND
M  V30 1 1 1 2
M  V30 2 2 2 3
M  V30 3 1 2 4
M  V30 4 1 3 5
M  V30 5 2 4 6
M  V30 6 2 5 7
M  V30 7 1 5 8
M  V30 8 1 8 9
M  V30 9 1 8 10
M  V30 10 1 10 11
M  V30 11 1 10 12
M  V30 12 1 6 7
M  V30 13 1 1 13
M  V30 14 1 3 14
M  V30 15 1 4 15
M  V30 16 1 6 16
M  V30 17 1 7 17
M  V30 18 1 8 18
M  V30 19 1 9 19
M  V30 20 1 10 20
M  V30 21 1 11 21
M  V30 22 1 11 22
M  V30 23 1 12 23
M  V30 24 1 12 24
M  V30 25 1 12 25
M  V30 END BOND
M  V30 BEGIN COLLECTION
M  V30 MDLV30/STEABS ATOMS=(2 8 10)
M  V30 END COLLECTION
M  V30 END CTAB
M  END
>  <Column 1>
1942

>  <level_0>
2110

>  <index>
2110

>  <Unnamed: 0>
2110

>  <NO.>
2122

>  <Name>
metaraminol

>  <IUPAC_name>
3-[(1r-2s)-2-amino-1-hydroxypropyl]phenol

>  <SMILES>
C[C@H](N)[C@H](O)c1cccc(O)c1

>  <CID>
5906

>  <logBB>


>  <BBB+/BBB->
BBB-

>  <Inchi>
InChI=1S/C9H13NO2/c1-6(10)9(12)7-3-2-4-8(11)5-7/h2-6-9-11-12H-10H2-1H3/t6--9-/m0/s1

>  <threshold>
-1

>  <reference>
R1|R9|R24|R27|R27|R30|

>  <group>
B

>  <Class>
-1

>  <ABC>
8.84

>  <ABCGG>
8.41

>  <nAcid>
0

>  <nBase>
1

>  <nAromAtom>
6

>  <nAromBond>
6

>  <nAtom>
25

>  <nHeavyAtom>
12

>  <nSpiro>
0

>  <nBridgehead>
0

>  <nHetero>
3

>  <nN>
1

>  <nO>
2

>  <nF>
0

>  <BalabanJ>
2.4

>  <BertzCT>
260.46

>  <nBonds>
25

>  <nBondsO>
12

>  <nBondsS>
19

>  <nBondsD>
0

>  <nBondsT>
0

>  <nBondsA>
6

>  <nBondsM>
6

>  <nBondsKS>
22

>  <nBondsKD>
3

>  <RNCG>
0.36

>  <RPCG>
0.2

>  <FCSP3>
0.33

>  <SZ>
15

>  <Sm>
13.92

>  <Sv>
14.71

>  <Sse>
25.1

>  <Sp>
15.81

>  <Si>
28.41

>  <MZ>
0.6

>  <Mm>
0.56

>  <Mv>
0.59

>  <Mse>
1

>  <Mp>
0.63

>  <Mi>
1.14

>  <NsCH3>
1

>  <NdCH2>
0

>  <NssCH2>
0

>  <NtCH>
0

>  <NdsCH>
0

>  <NaaCH>
4

>  <NsssCH>
2

>  <NddC>
0

>  <NtsC>
0

>  <NdssC>
0

>  <NaasC>
2

>  <NaaaC>
0

>  <NssssC>
0

>  <NsNH3>
0

>  <NsNH2>
1

>  <NssNH2>
0

>  <NdNH>
0

>  <NssNH>
0

>  <NaaNH>
0

>  <NtN>
0

>  <NsssNH>
0

>  <NdsN>
0

>  <NaaN>
0

>  <NsssN>
0

>  <NddsN>
0

>  <NaasN>
0

>  <NssssN>
0

>  <NsOH>
2

>  <NdO>
0

>  <NssO>
0

>  <NaaO>
0

>  <NsF>
0

>  <NsSiH3>
0

>  <NssSiH2>
0

>  <NsssSiH>
0

>  <NssssSi>
0

>  <NsPH2>
0

>  <NssPH>
0

>  <NsssP>
0

>  <NdsssP>
0

>  <NsssssP>
0

>  <NsSH>
0

>  <NdS>
0

>  <NssS>
0

>  <NaaS>
0

>  <NdssS>
0

>  <NddssS>
0

>  <NsCl>
0

>  <NsBr>
0

>  <NsI>
0

>  <fragCpx>
12.03

>  <fMF>
0.24

>  <nHBAcc>
3

>  <nHBDon>
3

>  <Kier1>
10.08

>  <Kier2>
4.3

>  <Lipinski>
1

>  <GhoseFilter>
1

>  <FilterItLogS>
-0.76

>  <VMcGowan>
135.63

>  <LabuteASA>
71.45

>  <PEOE_VSA1>
15.95

>  <PEOE_VSA2>
0

>  <PEOE_VSA3>
0

>  <PEOE_VSA4>
0

>  <PEOE_VSA5>
0

>  <PEOE_VSA6>
12.13

>  <PEOE_VSA7>
24.62

>  <PEOE_VSA8>
6.04

>  <PEOE_VSA9>
6.1

>  <PEOE_VSA10>
5.75

>  <PEOE_VSA11>
0

>  <PEOE_VSA12>
0

>  <PEOE_VSA13>
0

>  <SMR_VSA1>
10.21

>  <SMR_VSA2>
0

>  <SMR_VSA3>
0

>  <SMR_VSA4>
5.73

>  <SMR_VSA5>
19.07

>  <SMR_VSA6>
0

>  <SMR_VSA7>
29.83

>  <SMR_VSA8>
0

>  <SMR_VSA9>
5.75

>  <SlogP_VSA1>
5.73

>  <SlogP_VSA2>
16.25

>  <SlogP_VSA3>
0

>  <SlogP_VSA4>
0

>  <SlogP_VSA5>
18.59

>  <SlogP_VSA6>
24.27

>  <SlogP_VSA7>
0

>  <SlogP_VSA8>
0

>  <SlogP_VSA9>
0

>  <SlogP_VSA10>
0

>  <SlogP_VSA11>
5.75

>  <EState_VSA1>
6.1

>  <EState_VSA2>
11.79

>  <EState_VSA3>
5.56

>  <EState_VSA4>
0

>  <EState_VSA5>
6.07

>  <EState_VSA6>
25.12

>  <EState_VSA7>
0

>  <EState_VSA8>
0

>  <EState_VSA9>
10.84

>  <EState_VSA10>
5.11

>  <VSA_EState1>
0

>  <VSA_EState2>
0

>  <VSA_EState3>
18.58

>  <VSA_EState4>
6.13

>  <VSA_EState5>
0.15

>  <VSA_EState6>
6.14

>  <VSA_EState7>
-0.71

>  <VSA_EState8>
1.72

>  <VSA_EState9>
0

>  <apol>
26.4

>  <bpol>
12.47

>  <nRing>
1

>  <nHRing>
0

>  <naRing>
1

>  <naHRing>
0

>  <nARing 2>
0

>  <nAHRing 2>
0

>  <nFRing>
0

>  <nFHRing>
0

>  <nFaRing>
0

>  <nFaHRing>
0

>  <nFARing 2>
0

>  <nFAHRing 2>
0

>  <nRot>
2

>  <SLogP>
0.77

>  <SMR>
46.72

>  <TopoPSA(NO)>
66.48

>  <TopoPSA>
66.48

>  <JGI1>
0.25

>  <JGI2>
0.1

>  <JGI3>
0.06

>  <JGI4>
0.05

>  <JGI5>
0.04

>  <Diameter>
6

>  <Radius>
3

>  <TMWC10>
89.75

>  <TSRW10>
42.25

>  <MW>
167.09

>  <AMW>
6.68

>  <WPath>
197

>  <WPol>
15

>  <Zagreb1>
56

>  <Zagreb2>
62

>  <mZagreb2>
2.72

>  <yes>


>  <nAR-cont>
0.336376

>  <nHA-cont>
0.785745021

>  <MWHBN>
0.464168881

>  <MWHBN-cont>
0

>  <TPSA-cont>
0.535928318

>  <pka_cont>
0.97

>  <yes.1>


>  <BBB_SCORE>
2.678977657

>  <MMFF94 Energy>
41.059

$$$$
Compound 1602
Actelion Java MolfileCreator 2.0

  0  0  0  0  0  0              0 V3000
M  V30 BEGIN CTAB
M  V30 COUNTS 43 45 0 0 0
M  V30 BEGIN ATOM
M  V30 1 S 0.8048 1.3685 2.4966 0
M  V30 2 C 0.1184 1.353 0.9081 0
M  V30 3 C 1.0863 3.048 2.4598 0
M  V30 4 C 0.1519 2.6388 0.3794 0
M  V30 5 C -0.3896 0.0321 0.2402 0 CFG=2
M  V30 6 C 0.6963 3.6087 1.2692 0
M  V30 7 N 0.7483 -0.6941 -0.4315 0
M  V30 8 C -1.4953 0.3603 -0.866 0 CFG=2
M  V30 9 C -1.0976 -0.8916 1.3 0
M  V30 10 C 1.5242 0.1229 -1.3832 0
M  V30 11 C 1.6539 -1.4454 0.4508 0
M  V30 12 C -2.7948 0.931 -0.2556 0
M  V30 13 C -1.8437 -0.8422 -1.7697 0
M  V30 14 C -2.3989 -0.3253 1.8769 0
M  V30 15 C 2.4434 -0.7445 -2.2464 0
M  V30 16 C 2.5921 -2.3548 -0.3508 0
M  V30 17 C -3.408 0.0195 0.7961 0
M  V30 18 C 3.3855 -1.5721 -1.3858 0
M  V30 19 H 1.5317 3.5442 3.311 0
M  V30 20 H -0.1992 2.8873 -0.6139 0
M  V30 21 H 0.7999 4.6626 1.0425 0
M  V30 22 H -1.1226 1.1333 -1.5479 0
M  V30 23 H -0.4433 -1.1147 2.1501 0
M  V30 24 H -1.3238 -1.865 0.8451 0
M  V30 25 H 2.1356 0.8662 -0.8567 0
M  V30 26 H 0.8721 0.6683 -2.0711 0
M  V30 27 H 1.1035 -2.1096 1.1224 0
M  V30 28 H 2.2555 -0.7711 1.0696 0
M  V30 29 H -2.5966 1.9102 0.1954 0
M  V30 30 H -3.5313 1.1125 -1.0482 0
M  V30 31 H -2.6284 -0.5677 -2.4838 0
M  V30 32 H -0.9806 -1.163 -2.3605 0
M  V30 33 H -2.2019 -1.7057 -1.2034 0
M  V30 34 H -2.8396 -1.0603 2.5609 0
M  V30 35 H -2.1913 0.5671 2.4777 0
M  V30 36 H 3.0254 -0.1073 -2.9219 0
M  V30 37 H 1.838 -1.4091 -2.8758 0
M  V30 38 H 3.2806 -2.8665 0.3312 0
M  V30 39 H 2.004 -3.1335 -0.8532 0
M  V30 40 H -4.277 0.5117 1.248 0
M  V30 41 H -3.7802 -0.8997 0.3299 0
M  V30 42 H 3.9672 -2.2564 -2.0127 0
M  V30 43 H 4.0992 -0.9108 -0.8796 0
M  V30 END ATOM
M  V30 BEGIN BOND
M  V30 1 1 1 2
M  V30 2 1 1 3
M  V30 3 2 2 4
M  V30 4 1 2 5
M  V30 5 2 3 6
M  V30 6 1 5 7
M  V30 7 1 5 8
M  V30 8 1 5 9
M  V30 9 1 7 10
M  V30 10 1 7 11
M  V30 11 1 8 12
M  V30 12 1 8 13
M  V30 13 1 9 14
M  V30 14 1 10 15
M  V30 15 1 11 16
M  V30 16 1 12 17
M  V30 17 1 15 18
M  V30 18 1 4 6
M  V30 19 1 14 17
M  V30 20 1 16 18
M  V30 21 1 3 19
M  V30 22 1 4 20
M  V30 23 1 6 21
M  V30 24 1 8 22
M  V30 25 1 9 23
M  V30 26 1 9 24
M  V30 27 1 10 25
M  V30 28 1 10 26
M  V30 29 1 11 27
M  V30 30 1 11 28
M  V30 31 1 12 29
M  V30 32 1 12 30
M  V30 33 1 13 31
M  V30 34 1 13 32
M  V30 35 1 13 33
M  V30 36 1 14 34
M  V30 37 1 14 35
M  V30 38 1 15 36
M  V30 39 1 15 37
M  V30 40 1 16 38
M  V30 41 1 16 39
M  V30 42 1 17 40
M  V30 43 1 17 41
M  V30 44 1 18 42
M  V30 45 1 18 43
M  V30 END BOND
M  V30 BEGIN COLLECTION
M  V30 MDLV30/STEABS ATOMS=(2 5 8)
M  V30 END COLLECTION
M  V30 END CTAB
M  END
>  <Column 1>
1945

>  <level_0>
2113

>  <index>
2113

>  <Unnamed: 0>
2113

>  <NO.>
2125

>  <Name>
gacyclidine

>  <IUPAC_name>
1-[(1r-2s)-2-methyl-1-thiophen-2-ylcyclohexyl]piperidine

>  <SMILES>
C[C@H]1CCCC[C@@]1(c1cccs1)N1CCCCC1

>  <CID>
176265

>  <logBB>


>  <BBB+/BBB->
BBB+

>  <Inchi>
InChI=1S/C16H25NS/c1-14-8-3-4-10-16(14-15-9-7-13-18-15)17-11-5-2-6-12-17/h7-9-13-14H-2-6-8-10-12H2-1H3/t14--16+/m0/s1

>  <threshold>
-1

>  <reference>
R1|R27|R30|

>  <group>
B

>  <Class>
1

>  <ABC>
14.07

>  <ABCGG>
12.51

>  <nAcid>
0

>  <nBase>
1

>  <nAromAtom>
5

>  <nAromBond>
5

>  <nAtom>
43

>  <nHeavyAtom>
18

>  <nSpiro>
0

>  <nBridgehead>
0

>  <nHetero>
2

>  <nN>
1

>  <nO>
0

>  <nF>
0

>  <BalabanJ>
1.85

>  <BertzCT>
366.46

>  <nBonds>
45

>  <nBondsO>
20

>  <nBondsS>
40

>  <nBondsD>
0

>  <nBondsT>
0

>  <nBondsA>
5

>  <nBondsM>
5

>  <nBondsKS>
43

>  <nBondsKD>
2

>  <RNCG>
0.31

>  <RPCG>
0.08

>  <FCSP3>
0.75

>  <SZ>
24

>  <Sm>
21.93

>  <Sv>
24.72

>  <Sse>
41.84

>  <Sp>
28.38

>  <Si>
48.4

>  <MZ>
0.56

>  <Mm>
0.51

>  <Mv>
0.57

>  <Mse>
0.97

>  <Mp>
0.66

>  <Mi>
1.13

>  <NsCH3>
1

>  <NdCH2>
0

>  <NssCH2>
9

>  <NtCH>
0

>  <NdsCH>
0

>  <NaaCH>
3

>  <NsssCH>
1

>  <NddC>
0

>  <NtsC>
0

>  <NdssC>
0

>  <NaasC>
1

>  <NaaaC>
0

>  <NssssC>
1

>  <NsNH3>
0

>  <NsNH2>
0

>  <NssNH2>
0

>  <NdNH>
0

>  <NssNH>
0

>  <NaaNH>
0

>  <NtN>
0

>  <NsssNH>
0

>  <NdsN>
0

>  <NaaN>
0

>  <NsssN>
1

>  <NddsN>
0

>  <NaasN>
0

>  <NssssN>
0

>  <NsOH>
0

>  <NdO>
0

>  <NssO>
0

>  <NaaO>
0

>  <NsF>
0

>  <NsSiH3>
0

>  <NssSiH2>
0

>  <NsssSiH>
0

>  <NssssSi>
0

>  <NsPH2>
0

>  <NssPH>
0

>  <NsssP>
0

>  <NdsssP>
0

>  <NsssssP>
0

>  <NsSH>
0

>  <NdS>
0

>  <NssS>
0

>  <NaaS>
1

>  <NdssS>
0

>  <NddssS>
0

>  <NsCl>
0

>  <NsBr>
0

>  <NsI>
0

>  <fragCpx>
94.02

>  <fMF>
0.4

>  <nHBAcc>
2

>  <nHBDon>
0

>  <Kier1>
13.01

>  <Kier2>
5.55

>  <Lipinski>
1

>  <GhoseFilter>
1

>  <FilterItLogS>
-3.75

>  <VMcGowan>
221.45

>  <LabuteASA>
115.2

>  <PEOE_VSA1>
0

>  <PEOE_VSA2>
4.9

>  <PEOE_VSA3>
0

>  <PEOE_VSA4>
0

>  <PEOE_VSA5>
11.34

>  <PEOE_VSA6>
32.25

>  <PEOE_VSA7>
56.14

>  <PEOE_VSA8>
4.88

>  <PEOE_VSA9>
5.54

>  <PEOE_VSA10>
0

>  <PEOE_VSA11>
0

>  <PEOE_VSA12>
0

>  <PEOE_VSA13>
0

>  <SMR_VSA1>
0

>  <SMR_VSA2>
0

>  <SMR_VSA3>
4.9

>  <SMR_VSA4>
5.92

>  <SMR_VSA5>
57.41

>  <SMR_VSA6>
13.09

>  <SMR_VSA7>
22.39

>  <SMR_VSA8>
0

>  <SMR_VSA9>
0

>  <SlogP_VSA1>
0

>  <SlogP_VSA2>
17.99

>  <SlogP_VSA3>
5.54

>  <SlogP_VSA4>
5.92

>  <SlogP_VSA5>
56.75

>  <SlogP_VSA6>
17.51

>  <SlogP_VSA7>
0

>  <SlogP_VSA8>
0

>  <SlogP_VSA9>
0

>  <SlogP_VSA10>
0

>  <SlogP_VSA11>
0

>  <EState_VSA1>
0

>  <EState_VSA2>
0

>  <EState_VSA3>
5.54

>  <EState_VSA4>
5.92

>  <EState_VSA5>
58.04

>  <EState_VSA6>
4.88

>  <EState_VSA7>
11.34

>  <EState_VSA8>
29.34

>  <EState_VSA9>
0

>  <EState_VSA10>
0

>  <VSA_EState1>
0

>  <VSA_EState2>
4.48

>  <VSA_EState3>
2.27

>  <VSA_EState4>
0.38

>  <VSA_EState5>
0.82

>  <VSA_EState6>
4.63

>  <VSA_EState7>
9.88

>  <VSA_EState8>
5.14

>  <VSA_EState9>
0

>  <apol>
47.39

>  <bpol>
29.25

>  <nRing>
3

>  <nHRing>
2

>  <naRing>
1

>  <naHRing>
1

>  <nARing 2>
2

>  <nAHRing 2>
1

>  <nFRing>
0

>  <nFHRing>
0

>  <nFaRing>
0

>  <nFaHRing>
0

>  <nFARing 2>
0

>  <nFAHRing 2>
0

>  <nRot>
2

>  <SLogP>
4.64

>  <SMR>
79.05

>  <TopoPSA(NO)>
3.24

>  <TopoPSA>
31.48

>  <JGI1>
0.15

>  <JGI2>
0.1

>  <JGI3>
0.06

>  <JGI4>
0.02

>  <JGI5>
0.02

>  <Diameter>
7

>  <Radius>
4

>  <TMWC10>
111.87

>  <TSRW10>
64.82

>  <MW>
263.17

>  <AMW>
6.12

>  <WPath>
528

>  <WPol>
30

>  <Zagreb1>
96

>  <Zagreb2>
117

>  <mZagreb2>
4.04

>  <yes>


>  <nAR-cont>
1

>  <nHA-cont>
0.991161285

>  <MWHBN>
0.123285445

>  <MWHBN-cont>
0.843219865

>  <TPSA-cont>
0.780250052

>  <pka_cont>
0.97

>  <yes.1>


>  <BBB_SCORE>
5.301491186

>  <MMFF94 Energy>
28.985

$$$$
Compound 1603
Actelion Java MolfileCreator 2.0

  0  0  0  0  0  0              0 V3000
M  V30 BEGIN CTAB
M  V30 COUNTS 54 57 0 0 0
M  V30 BEGIN ATOM
M  V30 1 Cl -4.7554 -2.7036 1.6379 0
M  V30 2 C -4.4916 -2.0487 0.0109 0
M  V30 3 C -4.1896 -0.5627 0.0939 0
M  V30 4 O -4.9174 0.192 0.7418 0
M  V30 5 C -2.9295 -0.0557 -0.6581 0 CFG=2
M  V30 6 O -2.8361 -0.8171 -1.8784 0
M  V30 7 C -1.6054 -0.2666 0.1536 0 CFG=2
M  V30 8 C -2.876 1.4611 -1.0896 0 CFG=2
M  V30 9 C -0.6399 0.6569 -0.6374 0 CFG=1
M  V30 10 C -1.0032 -1.681 0.132 0
M  V30 11 C -1.7968 0.1692 1.6326 0
M  V30 12 C -1.4361 1.9451 -0.7814 0
M  V30 13 C -3.8895 2.4349 -0.501 0
M  V30 14 C 0.7698 0.7402 -0.0242 0 CFG=1
M  V30 15 C 0.4073 -1.6397 0.7067 0
M  V30 16 C 1.3962 -0.6911 -0.0074 0 CFG=1
M  V30 17 C 1.6612 1.717 -0.8101 0
M  V30 18 O 0.6939 -2.3366 1.6791 0
M  V30 19 F 1.4734 -1.0859 -1.329 0
M  V30 20 C 2.8637 -0.6993 0.5571 0 CFG=2
M  V30 21 C 3.0897 1.7451 -0.2731 0
M  V30 22 C 3.6726 0.3543 -0.2284 0
M  V30 23 C 3.4968 -2.0828 0.4124 0
M  V30 24 C 2.9418 -0.3295 2.0573 0
M  V30 25 C 4.8094 0.0778 -0.8921 0
M  V30 26 C 4.6288 -2.3514 -0.2515 0
M  V30 27 C 5.3811 -1.2833 -0.9339 0
M  V30 28 O 6.4321 -1.5143 -1.5175 0
M  V30 29 H -3.6717 -2.6111 -0.4362 0
M  V30 30 H -5.3934 -2.1968 -0.5889 0
M  V30 31 H -3.4997 -0.4762 -2.507 0
M  V30 32 H -2.9975 1.519 -2.1804 0
M  V30 33 H -0.518 0.2522 -1.6549 0
M  V30 34 H -0.932 -2.0944 -0.8796 0
M  V30 35 H -1.6027 -2.3759 0.729 0
M  V30 36 H -0.8575 0.1824 2.193 0
M  V30 37 H -2.4567 -0.5274 2.1609 0
M  V30 38 H -2.2384 1.1646 1.7263 0
M  V30 39 H -1.3917 2.5435 0.1355 0
M  V30 40 H -1.0558 2.5701 -1.5967 0
M  V30 41 H -3.7006 3.4486 -0.8724 0
M  V30 42 H -3.8379 2.4758 0.5908 0
M  V30 43 H -4.9081 2.1701 -0.801 0
M  V30 44 H 0.6883 1.1223 0.9991 0
M  V30 45 H 1.6753 1.4392 -1.872 0
M  V30 46 H 1.248 2.7309 -0.7549 0
M  V30 47 H 3.6912 2.4092 -0.9057 0
M  V30 48 H 3.1049 2.1843 0.7309 0
M  V30 49 H 2.9979 -2.9136 0.9095 0
M  V30 50 H 2.5226 -1.1078 2.7028 0
M  V30 51 H 2.4136 0.5994 2.2918 0
M  V30 52 H 3.9839 -0.1926 2.3749 0
M  V30 53 H 5.363 0.8251 -1.4492 0
M  V30 54 H 5.0445 -3.3498 -0.3126 0
M  V30 END ATOM
M  V30 BEGIN BOND
M  V30 1 1 1 2
M  V30 2 1 2 3
M  V30 3 2 3 4
M  V30 4 1 3 5
M  V30 5 1 5 6
M  V30 6 1 5 7
M  V30 7 1 5 8
M  V30 8 1 7 9
M  V30 9 1 7 10
M  V30 10 1 7 11
M  V30 11 1 8 12
M  V30 12 1 8 13
M  V30 13 1 9 14
M  V30 14 1 10 15
M  V30 15 1 14 16
M  V30 16 1 14 17
M  V30 17 2 15 18
M  V30 18 1 16 19
M  V30 19 1 16 20
M  V30 20 1 17 21
M  V30 21 1 20 22
M  V30 22 1 20 23
M  V30 23 1 20 24
M  V30 24 2 22 25
M  V30 25 2 23 26
M  V30 26 1 25 27
M  V30 27 2 27 28
M  V30 28 1 9 12
M  V30 29 1 15 16
M  V30 30 1 21 22
M  V30 31 1 26 27
M  V30 32 1 2 29
M  V30 33 1 2 30
M  V30 34 1 6 31
M  V30 35 1 8 32
M  V30 36 1 9 33
M  V30 37 1 10 34
M  V30 38 1 10 35
M  V30 39 1 11 36
M  V30 40 1 11 37
M  V30 41 1 11 38
M  V30 42 1 12 39
M  V30 43 1 12 40
M  V30 44 1 13 41
M  V30 45 1 13 42
M  V30 46 1 13 43
M  V30 47 1 14 44
M  V30 48 1 17 45
M  V30 49 1 17 46
M  V30 50 1 21 47
M  V30 51 1 21 48
M  V30 52 1 23 49
M  V30 53 1 24 50
M  V30 54 1 24 51
M  V30 55 1 24 52
M  V30 56 1 25 53
M  V30 57 1 26 54
M  V30 END BOND
M  V30 BEGIN COLLECTION
M  V30 MDLV30/STEABS ATOMS=(7 5 7 8 9 14 16 20)
M  V30 END COLLECTION
M  V30 END CTAB
M  END
>  <Column 1>
1946

>  <level_0>
2114

>  <index>
2114

>  <Unnamed: 0>
2114

>  <NO.>
2126

>  <Name>
clobetasone

>  <IUPAC_name>
(8s-9r-10s-13s-14s-16s-17r)-17-(2-chloroacetyl)-9-fluoro-17-hydroxy-10-13-16-trimethyl-7-8-12-14-15-16-hexahydro-6h-cyclopenta[a]phenanthrene-3-11-dione

>  <SMILES>
C[C@H]1C[C@H]2[C@@H]3CCC4=CC(=O)C=C[C@]4(C)[C@@]3(F)C(=O)C[C@]2(C)[C@@]1(O)C(=O)CCl

>  <CID>
71387

>  <logBB>


>  <BBB+/BBB->
BBB+

>  <Inchi>
InChI=1S/C22H26ClFO4/c1-12-8-16-15-5-4-13-9-14(25)6-7-19(13-2)21(15-24)17(26)10-20(16-3)22(12-28)18(27)11-23/h6-7-9-12-15-16-28H-4-5-8-10-11H2-1-3H3/t12--15--16--19--20--21--22-/m0/s1

>  <threshold>
-1

>  <reference>
R1|R27|R30|

>  <group>
B

>  <Class>
1

>  <ABC>
22.39

>  <ABCGG>
18.86

>  <nAcid>
0

>  <nBase>
0

>  <nAromAtom>
0

>  <nAromBond>
0

>  <nAtom>
54

>  <nHeavyAtom>
28

>  <nSpiro>
0

>  <nBridgehead>
0

>  <nHetero>
6

>  <nN>
0

>  <nO>
4

>  <nF>
1

>  <BalabanJ>
1.77

>  <BertzCT>
849.47

>  <nBonds>
57

>  <nBondsO>
31

>  <nBondsS>
52

>  <nBondsD>
5

>  <nBondsT>
0

>  <nBondsA>
0

>  <nBondsM>
5

>  <nBondsKS>
52

>  <nBondsKD>
5

>  <RNCG>
0.18

>  <RPCG>
0.1

>  <FCSP3>
0.68

>  <SZ>
36

>  <Sm>
34.04

>  <Sv>
33.64

>  <Sse>
54.59

>  <Sp>
35.94

>  <Si>
60.94

>  <MZ>
0.67

>  <Mm>
0.63

>  <Mv>
0.62

>  <Mse>
1.01

>  <Mp>
0.67

>  <Mi>
1.13

>  <NsCH3>
3

>  <NdCH2>
0

>  <NssCH2>
5

>  <NtCH>
0

>  <NdsCH>
3

>  <NaaCH>
0

>  <NsssCH>
3

>  <NddC>
0

>  <NtsC>
0

>  <NdssC>
4

>  <NaasC>
0

>  <NaaaC>
0

>  <NssssC>
4

>  <NsNH3>
0

>  <NsNH2>
0

>  <NssNH2>
0

>  <NdNH>
0

>  <NssNH>
0

>  <NaaNH>
0

>  <NtN>
0

>  <NsssNH>
0

>  <NdsN>
0

>  <NaaN>
0

>  <NsssN>
0

>  <NddsN>
0

>  <NaasN>
0

>  <NssssN>
0

>  <NsOH>
1

>  <NdO>
3

>  <NssO>
0

>  <NaaO>
0

>  <NsF>
1

>  <NsSiH3>
0

>  <NssSiH2>
0

>  <NsssSiH>
0

>  <NssssSi>
0

>  <NsPH2>
0

>  <NssPH>
0

>  <NsssP>
0

>  <NdsssP>
0

>  <NsssssP>
0

>  <NsSH>
0

>  <NdS>
0

>  <NssS>
0

>  <NaaS>
0

>  <NdssS>
0

>  <NddssS>
0

>  <NsCl>
1

>  <NsBr>
0

>  <NsI>
0

>  <fragCpx>
205.06

>  <fMF>
0.31

>  <nHBAcc>
4

>  <nHBDon>
1

>  <Kier1>
21.24

>  <Kier2>
6.5

>  <Lipinski>
1

>  <GhoseFilter>
1

>  <FilterItLogS>
-4.67

>  <VMcGowan>
293.38

>  <LabuteASA>
168.75

>  <PEOE_VSA1>
5.11

>  <PEOE_VSA2>
14.38

>  <PEOE_VSA3>
4.39

>  <PEOE_VSA4>
0

>  <PEOE_VSA5>
11.6

>  <PEOE_VSA6>
25.5

>  <PEOE_VSA7>
50.17

>  <PEOE_VSA8>
23.17

>  <PEOE_VSA9>
5.88

>  <PEOE_VSA10>
5.6

>  <PEOE_VSA11>
23.02

>  <PEOE_VSA12>
0

>  <PEOE_VSA13>
0

>  <SMR_VSA1>
23.88

>  <SMR_VSA2>
0

>  <SMR_VSA3>
0

>  <SMR_VSA4>
28.58

>  <SMR_VSA5>
57.72

>  <SMR_VSA6>
5.88

>  <SMR_VSA7>
23.8

>  <SMR_VSA8>
0

>  <SMR_VSA9>
0

>  <SlogP_VSA1>
0

>  <SlogP_VSA2>
39.61

>  <SlogP_VSA3>
14.38

>  <SlogP_VSA4>
28.58

>  <SlogP_VSA5>
46.45

>  <SlogP_VSA6>
23.8

>  <SlogP_VSA7>
0

>  <SlogP_VSA8>
0

>  <SlogP_VSA9>
0

>  <SlogP_VSA10>
4.39

>  <SlogP_VSA11>
0

>  <EState_VSA1>
45.5

>  <EState_VSA2>
24

>  <EState_VSA3>
24.84

>  <EState_VSA4>
0

>  <EState_VSA5>
12.15

>  <EState_VSA6>
26.85

>  <EState_VSA7>
0

>  <EState_VSA8>
0

>  <EState_VSA9>
11.6

>  <EState_VSA10>
19.49

>  <VSA_EState1>
16.78

>  <VSA_EState2>
37.83

>  <VSA_EState3>
11.43

>  <VSA_EState4>
-5.42

>  <VSA_EState5>
-2.92

>  <VSA_EState6>
0

>  <VSA_EState7>
5.56

>  <VSA_EState8>
5.23

>  <VSA_EState9>
0

>  <apol>
60.02

>  <bpol>
30.31

>  <nRing>
4

>  <nHRing>
0

>  <naRing>
0

>  <naHRing>
0

>  <nARing 2>
4

>  <nAHRing 2>
0

>  <nFRing>
1

>  <nFHRing>
0

>  <nFaRing>
0

>  <nFaHRing>
0

>  <nFARing 2>
1

>  <nFAHRing 2>
0

>  <nRot>
2

>  <SLogP>
3.35

>  <SMR>
102.58

>  <TopoPSA(NO)>
71.44

>  <TopoPSA>
71.44

>  <JGI1>
0.32

>  <JGI2>
0.16

>  <JGI3>
0.08

>  <JGI4>
0.06

>  <JGI5>
0.04

>  <Diameter>
12

>  <Radius>
6

>  <TMWC10>
140.69

>  <TSRW10>
80.08

>  <MW>
408.15

>  <AMW>
7.56

>  <WPath>
1670

>  <WPol>
70

>  <Zagreb1>
168

>  <Zagreb2>
221

>  <mZagreb2>
5.82

>  <yes>


>  <nAR-cont>
0.199399

>  <nHA-cont>
0.82432561

>  <MWHBN>
0.247491395

>  <MWHBN-cont>
0.96389436

>  <TPSA-cont>
0.501304438

>  <pka_cont>
0.97

>  <yes.1>


>  <BBB_SCORE>
3.957175027

>  <MMFF94 Energy>
155.97

$$$$
Compound 1604
Actelion Java MolfileCreator 2.0

  0  0  0  0  0  0              0 V3000
M  V30 BEGIN CTAB
M  V30 COUNTS 69 73 0 0 0
M  V30 BEGIN ATOM
M  V30 1 F -1.6201 0.5668 1.2959 0
M  V30 2 C -1.9231 -0.6799 0.7635 0 CFG=2
M  V30 3 C -3.3984 -1.0122 1.2335 0 CFG=2
M  V30 4 C -0.8088 -1.6218 1.317 0 CFG=1
M  V30 5 C -1.8194 -0.5005 -0.7872 0 CFG=2
M  V30 6 C -4.3302 0.0586 0.6386 0
M  V30 7 C -3.4918 -1.0293 2.758 0
M  V30 8 C -3.9106 -2.3922 0.7597 0
M  V30 9 O -1.069 -3.0124 1.1689 0
M  V30 10 C 0.6079 -1.2911 0.7929 0
M  V30 11 C -0.3873 -0.0618 -1.1389 0 CFG=1
M  V30 12 C -2.8355 0.5421 -1.2942 0
M  V30 13 C -5.1311 0.8455 1.3795 0
M  V30 14 C -4.2628 0.2314 -0.8566 0
M  V30 15 C -4.2902 -0.2425 3.4918 0
M  V30 16 C 0.7026 -1.0828 -0.7376 0 CFG=1
M  V30 17 C -0.0486 0.2374 -2.5925 0
M  V30 18 C -5.1778 0.7467 2.8528 0
M  V30 19 C 2.0034 -0.3273 -1.2556 0 CFG=1
M  V30 20 C 0.5483 -2.4454 -1.4678 0
M  V30 21 C 1.496 0.3715 -2.5852 0 CFG=1
M  V30 22 O -5.9223 1.4578 3.5157 0
M  V30 23 O 2.2685 0.7365 -0.2951 0
M  V30 24 C 3.2025 -1.3165 -1.3624 0
M  V30 25 C 2.0852 -0.0784 -3.9159 0
M  V30 26 C 3.3164 1.5672 -0.5166 0
M  V30 27 O 3.4203 -2.0142 -2.3591 0
M  V30 28 C 4.0893 -1.4965 -0.1319 0
M  V30 29 O 4.1335 1.4378 -1.4118 0
M  V30 30 C 3.3566 2.6458 0.5048 0
M  V30 31 O 4.6742 -2.7928 -0.1162 0
M  V30 32 C 4.4733 3.4921 0.5275 0
M  V30 33 C 2.3202 2.8446 1.428 0
M  V30 34 C 4.5563 4.5207 1.468 0
M  V30 35 C 2.4078 3.8755 2.3665 0
M  V30 36 C 3.5245 4.7106 2.3865 0
M  V30 37 H -0.7526 -1.461 2.4005 0
M  V30 38 H -2.0498 -1.4476 -1.2842 0
M  V30 39 H -2.8765 -1.7561 3.2859 0
M  V30 40 H -3.4775 -3.2183 1.3334 0
M  V30 41 H -4.9985 -2.4748 0.8865 0
M  V30 42 H -3.6975 -2.5805 -0.2966 0
M  V30 43 H -1.2734 -3.2226 0.2458 0
M  V30 44 H 1.301 -2.0834 1.0999 0
M  V30 45 H 0.9275 -0.3785 1.3097 0
M  V30 46 H -0.2121 0.8756 -0.587 0
M  V30 47 H -2.5563 1.5409 -0.9327 0
M  V30 48 H -2.8102 0.5863 -2.3894 0
M  V30 49 H -5.7722 1.6062 0.9484 0
M  V30 50 H -4.9213 1.041 -1.1947 0
M  V30 51 H -4.619 -0.6788 -1.3523 0
M  V30 52 H -4.3305 -0.2986 4.573 0
M  V30 53 H -0.5137 1.1671 -2.9382 0
M  V30 54 H -0.3894 -0.5651 -3.2562 0
M  V30 55 H 1.1926 -3.2061 -1.0125 0
M  V30 56 H 0.8192 -2.3896 -2.5254 0
M  V30 57 H -0.4697 -2.8328 -1.4533 0
M  V30 58 H 1.6987 1.4488 -2.5155 0
M  V30 59 H 1.8616 -1.1255 -4.1373 0
M  V30 60 H 3.1701 0.0641 -3.9326 0
M  V30 61 H 1.6675 0.5191 -4.7342 0
M  V30 62 H 4.8939 -0.7582 -0.1496 0
M  V30 63 H 3.5084 -1.3835 0.7845 0
M  V30 64 H 4.9023 -2.9924 -1.0468 0
M  V30 65 H 5.2835 3.355 -0.1864 0
M  V30 66 H 1.435 2.2132 1.4285 0
M  V30 67 H 5.4251 5.1748 1.4829 0
M  V30 68 H 1.6023 4.0293 3.0814 0
M  V30 69 H 3.5895 5.513 3.118 0
M  V30 END ATOM
M  V30 BEGIN BOND
M  V30 1 1 1 2
M  V30 2 1 2 3
M  V30 3 1 2 4
M  V30 4 1 2 5
M  V30 5 1 3 6
M  V30 6 1 3 7
M  V30 7 1 3 8
M  V30 8 1 4 9
M  V30 9 1 4 10
M  V30 10 1 5 11
M  V30 11 1 5 12
M  V30 12 2 6 13
M  V30 13 1 6 14
M  V30 14 2 7 15
M  V30 15 1 10 16
M  V30 16 1 11 17
M  V30 17 1 13 18
M  V30 18 1 16 19
M  V30 19 1 16 20
M  V30 20 1 17 21
M  V30 21 2 18 22
M  V30 22 1 19 23
M  V30 23 1 19 24
M  V30 24 1 21 25
M  V30 25 1 23 26
M  V30 26 2 24 27
M  V30 27 1 24 28
M  V30 28 2 26 29
M  V30 29 1 26 30
M  V30 30 1 28 31
M  V30 31 2 30 32
M  V30 32 1 30 33
M  V30 33 1 32 34
M  V30 34 2 33 35
M  V30 35 2 34 36
M  V30 36 1 11 16
M  V30 37 1 12 14
M  V30 38 1 15 18
M  V30 39 1 19 21
M  V30 40 1 35 36
M  V30 41 1 4 37
M  V30 42 1 5 38
M  V30 43 1 7 39
M  V30 44 1 8 40
M  V30 45 1 8 41
M  V30 46 1 8 42
M  V30 47 1 9 43
M  V30 48 1 10 44
M  V30 49 1 10 45
M  V30 50 1 11 46
M  V30 51 1 12 47
M  V30 52 1 12 48
M  V30 53 1 13 49
M  V30 54 1 14 50
M  V30 55 1 14 51
M  V30 56 1 15 52
M  V30 57 1 17 53
M  V30 58 1 17 54
M  V30 59 1 20 55
M  V30 60 1 20 56
M  V30 61 1 20 57
M  V30 62 1 21 58
M  V30 63 1 25 59
M  V30 64 1 25 60
M  V30 65 1 25 61
M  V30 66 1 28 62
M  V30 67 1 28 63
M  V30 68 1 31 64
M  V30 69 1 32 65
M  V30 70 1 33 66
M  V30 71 1 34 67
M  V30 72 1 35 68
M  V30 73 1 36 69
M  V30 END BOND
M  V30 BEGIN COLLECTION
M  V30 MDLV30/STEABS ATOMS=(8 2 3 4 5 11 16 19 21)
M  V30 END COLLECTION
M  V30 END CTAB
M  END
>  <Column 1>
1947

>  <level_0>
2115

>  <index>
2115

>  <Unnamed: 0>
2115

>  <NO.>
2127

>  <Name>
betamethasone-benzoate

>  <IUPAC_name>
[(8s-9r-10s-11s-13s-14s-16s-17r)-9-fluoro-11-hydroxy-17-(2-hydroxyacetyl)-10-13-16-trimethyl-3-oxo-6-7-8-11-12-14-15-16-octahydrocyclopenta[a]phenanthren-17-yl] benzoate

>  <SMILES>
C[C@H]1C[C@H]2[C@@H]3CCC4=CC(=O)C=C[C@]4(C)[C@@]3(F)[C@@H](O)C[C@]2(C)[C@@]1(OC(=O)c1ccccc1)C(=O)CO

>  <CID>
5282492

>  <logBB>


>  <BBB+/BBB->
BBB+

>  <Inchi>
InChI=1S/C29H33FO6/c1-17-13-22-21-10-9-19-14-20(32)11-12-26(19-2)28(21-30)23(33)15-27(22-3)29(17-24(34)16-31)36-25(35)18-7-5-4-6-8-18/h4-8-11-12-14-17-21-23-31-33H-9-10-13-15-16H2-1-3H3/t17--21--22--23--26--27--28--29-/m0/s1

>  <threshold>
-1

>  <reference>
R1|R6|R27|R30|

>  <group>
B

>  <Class>
1

>  <ABC>
28.67

>  <ABCGG>
23.12

>  <nAcid>
0

>  <nBase>
0

>  <nAromAtom>
6

>  <nAromBond>
6

>  <nAtom>
69

>  <nHeavyAtom>
36

>  <nSpiro>
0

>  <nBridgehead>
0

>  <nHetero>
7

>  <nN>
0

>  <nO>
6

>  <nF>
1

>  <BalabanJ>
1.52

>  <BertzCT>
1175.46

>  <nBonds>
73

>  <nBondsO>
40

>  <nBondsS>
62

>  <nBondsD>
5

>  <nBondsT>
0

>  <nBondsA>
6

>  <nBondsM>
11

>  <nBondsKS>
65

>  <nBondsKD>
8

>  <RNCG>
0.15

>  <RPCG>
0.11

>  <FCSP3>
0.55

>  <SZ>
44

>  <Sm>
41.34

>  <Sv>
42.88

>  <Sse>
69.59

>  <Sp>
45.39

>  <Si>
77.66

>  <MZ>
0.64

>  <Mm>
0.6

>  <Mv>
0.62

>  <Mse>
1.01

>  <Mp>
0.66

>  <Mi>
1.13

>  <NsCH3>
3

>  <NdCH2>
0

>  <NssCH2>
5

>  <NtCH>
0

>  <NdsCH>
3

>  <NaaCH>
5

>  <NsssCH>
4

>  <NddC>
0

>  <NtsC>
0

>  <NdssC>
4

>  <NaasC>
1

>  <NaaaC>
0

>  <NssssC>
4

>  <NsNH3>
0

>  <NsNH2>
0

>  <NssNH2>
0

>  <NdNH>
0

>  <NssNH>
0

>  <NaaNH>
0

>  <NtN>
0

>  <NsssNH>
0

>  <NdsN>
0

>  <NaaN>
0

>  <NsssN>
0

>  <NddsN>
0

>  <NaasN>
0

>  <NssssN>
0

>  <NsOH>
2

>  <NdO>
3

>  <NssO>
1

>  <NaaO>
0

>  <NsF>
1

>  <NsSiH3>
0

>  <NssSiH2>
0

>  <NsssSiH>
0

>  <NssssSi>
0

>  <NsPH2>
0

>  <NssPH>
0

>  <NsssP>
0

>  <NdsssP>
0

>  <NsssssP>
0

>  <NsSH>
0

>  <NdS>
0

>  <NssS>
0

>  <NaaS>
0

>  <NdssS>
0

>  <NddssS>
0

>  <NsCl>
0

>  <NsBr>
0

>  <NsI>
0

>  <fragCpx>
340.07

>  <fMF>
0.36

>  <nHBAcc>
6

>  <nHBDon>
2

>  <Kier1>
27.56

>  <Kier2>
9.58

>  <Lipinski>
1

>  <GhoseFilter>
0

>  <FilterItLogS>
-4.72

>  <VMcGowan>
367.75

>  <LabuteASA>
209.77

>  <PEOE_VSA1>
14.95

>  <PEOE_VSA2>
9.59

>  <PEOE_VSA3>
9.18

>  <PEOE_VSA4>
0

>  <PEOE_VSA5>
0

>  <PEOE_VSA6>
43.7

>  <PEOE_VSA7>
62.81

>  <PEOE_VSA8>
22.67

>  <PEOE_VSA9>
11.67

>  <PEOE_VSA10>
6.61

>  <PEOE_VSA11>
17.05

>  <PEOE_VSA12>
5.78

>  <PEOE_VSA13>
0

>  <SMR_VSA1>
33.72

>  <SMR_VSA2>
0

>  <SMR_VSA3>
0

>  <SMR_VSA4>
28.58

>  <SMR_VSA5>
63.83

>  <SMR_VSA6>
6.61

>  <SMR_VSA7>
59.7

>  <SMR_VSA8>
0

>  <SMR_VSA9>
0

>  <SlogP_VSA1>
0

>  <SlogP_VSA2>
51.73

>  <SlogP_VSA3>
14.33

>  <SlogP_VSA4>
28.58

>  <SlogP_VSA5>
56.81

>  <SlogP_VSA6>
54.13

>  <SlogP_VSA7>
0

>  <SlogP_VSA8>
0

>  <SlogP_VSA9>
0

>  <SlogP_VSA10>
4.39

>  <SlogP_VSA11>
0

>  <EState_VSA1>
58.4

>  <EState_VSA2>
23.69

>  <EState_VSA3>
24.84

>  <EState_VSA4>
0

>  <EState_VSA5>
12.15

>  <EState_VSA6>
57.18

>  <EState_VSA7>
0

>  <EState_VSA8>
0

>  <EState_VSA9>
4.74

>  <EState_VSA10>
24.6

>  <VSA_EState1>
23.44

>  <VSA_EState2>
38.77

>  <VSA_EState3>
21.54

>  <VSA_EState4>
-5.06

>  <VSA_EState5>
-3.01

>  <VSA_EState6>
8.33

>  <VSA_EState7>
4.16

>  <VSA_EState8>
4.51

>  <VSA_EState9>
0

>  <apol>
75.8

>  <bpol>
38.56

>  <nRing>
5

>  <nHRing>
0

>  <naRing>
1

>  <naHRing>
0

>  <nARing 2>
4

>  <nAHRing 2>
0

>  <nFRing>
1

>  <nFHRing>
0

>  <nFaRing>
0

>  <nFaHRing>
0

>  <nFARing 2>
1

>  <nFAHRing 2>
0

>  <nRot>
4

>  <SLogP>
3.76

>  <SMR>
129.58

>  <TopoPSA(NO)>
100.9

>  <TopoPSA>
100.9

>  <JGI1>
0.28

>  <JGI2>
0.14

>  <JGI3>
0.08

>  <JGI4>
0.06

>  <JGI5>
0.04

>  <Diameter>
15

>  <Radius>
8

>  <TMWC10>
159.26

>  <TSRW10>
89.02

>  <MW>
496.23

>  <AMW>
7.19

>  <WPath>
3438

>  <WPol>
84

>  <Zagreb1>
210

>  <Zagreb2>
271

>  <mZagreb2>
7.64

>  <yes>


>  <nAR-cont>
0.199399

>  <nHA-cont>
0.477843619

>  <MWHBN>
0.359127348

>  <MWHBN-cont>
0.635754455

>  <TPSA-cont>
0.295655345

>  <pka_cont>
0.97

>  <yes.1>


>  <BBB_SCORE>
2.707184991

>  <MMFF94 Energy>
198.86

$$$$
Compound 1605
Actelion Java MolfileCreator 2.0

  0  0  0  0  0  0              0 V3000
M  V30 BEGIN CTAB
M  V30 COUNTS 68 71 0 0 0
M  V30 BEGIN ATOM
M  V30 1 O -1.2874 3.0596 -6.8538 0
M  V30 2 C -1.3449 2.2787 -5.9124 0
M  V30 3 C -0.5445 1.0374 -5.8931 0
M  V30 4 C -2.211 2.5425 -4.7525 0
M  V30 5 C -0.5828 0.1626 -4.8691 0
M  V30 6 C -2.2623 1.6831 -3.728 0
M  V30 7 C -1.4747 0.38 -3.6245 0 CFG=2
M  V30 8 C 0.2789 -1.0955 -4.8238 0 CFG=2
M  V30 9 C -0.5209 0.4303 -2.3695 0 CFG=1
M  V30 10 C -2.5315 -0.7473 -3.5756 0
M  V30 11 C 1.1912 -1.0305 -3.5913 0
M  V30 12 C 1.1311 -1.3778 -6.0687 0
M  V30 13 C -1.2073 0.736 -1.0055 0 CFG=1
M  V30 14 C 0.4062 -0.8264 -2.2824 0 CFG=1
M  V30 15 O -2.2543 -0.1863 -0.7387 0
M  V30 16 C -0.2263 0.7498 0.1872 0
M  V30 17 C 1.369 -0.6484 -1.0975 0 CFG=1
M  V30 18 C 0.6602 -0.5129 0.2735 0 CFG=1
M  V30 19 C 2.423 -1.7196 -0.8524 0
M  V30 20 C 1.9094 -0.4251 1.2091 0 CFG=1
M  V30 21 C -0.1822 -1.7616 0.6489 0
M  V30 22 C 2.8882 -1.4698 0.5934 0
M  V30 23 O 2.5167 0.8686 1.0932 0
M  V30 24 C 1.6504 -0.6758 2.7133 0
M  V30 25 O 2.1912 -1.6068 3.3158 0
M  V30 26 C 0.7199 0.3012 3.4249 0
M  V30 27 O 0.8562 0.186 4.8429 0
M  V30 28 C -0.0601 0.9039 5.5454 0
M  V30 29 O -0.9318 1.6 5.0445 0
M  V30 30 C 0.1656 0.7146 7.0217 0
M  V30 31 C -0.8717 1.4741 7.8389 0
M  V30 32 C -0.6397 1.2865 9.309 0
M  V30 33 O 0.2606 0.6601 9.8397 0
M  V30 34 O -1.5711 1.9146 10.0513 0
M  V30 35 H 0.0811 0.9089 -6.7676 0
M  V30 36 H -2.8029 3.4488 -4.7857 0
M  V30 37 H -2.9474 1.9133 -2.9146 0
M  V30 38 H -0.3886 -1.9599 -4.719 0
M  V30 39 H 0.1546 1.2867 -2.5371 0
M  V30 40 H -2.9913 -0.8991 -4.5611 0
M  V30 41 H -2.1115 -1.7085 -3.266 0
M  V30 42 H -3.3541 -0.5189 -2.8888 0
M  V30 43 H 1.7675 -1.9618 -3.5258 0
M  V30 44 H 1.921 -0.2184 -3.7142 0
M  V30 45 H 1.874 -0.591 -6.2402 0
M  V30 46 H 0.5056 -1.4672 -6.9634 0
M  V30 47 H 1.6729 -2.3234 -5.9554 0
M  V30 48 H -1.669 1.7286 -1.0526 0
M  V30 49 H -0.2022 -1.7227 -2.1268 0
M  V30 50 H -2.7289 0.1214 0.0536 0
M  V30 51 H 0.4023 1.6429 0.0862 0
M  V30 52 H -0.7961 0.8702 1.1142 0
M  V30 53 H 1.9256 0.2825 -1.2956 0
M  V30 54 H 2.002 -2.7265 -0.9507 0
M  V30 55 H 3.2601 -1.6415 -1.5537 0
M  V30 56 H 0.4397 -2.6352 0.8694 0
M  V30 57 H -0.8701 -2.0706 -0.1398 0
M  V30 58 H -0.7872 -1.5702 1.5413 0
M  V30 59 H 2.8833 -2.4254 1.1288 0
M  V30 60 H 3.9208 -1.1024 0.5932 0
M  V30 61 H 3.4151 0.8108 1.4689 0
M  V30 62 H 0.9791 1.3224 3.1296 0
M  V30 63 H -0.3064 0.0579 3.1378 0
M  V30 64 H 1.1727 1.0717 7.2655 0
M  V30 65 H 0.1085 -0.3564 7.2471 0
M  V30 66 H -0.8197 2.5456 7.6149 0
M  V30 67 H -1.8778 1.113 7.5971 0
M  V30 68 H -1.3143 1.7228 10.9779 0
M  V30 END ATOM
M  V30 BEGIN BOND
M  V30 1 2 1 2
M  V30 2 1 2 3
M  V30 3 1 2 4
M  V30 4 2 3 5
M  V30 5 2 4 6
M  V30 6 1 5 7
M  V30 7 1 5 8
M  V30 8 1 7 9
M  V30 9 1 7 10
M  V30 10 1 8 11
M  V30 11 1 8 12
M  V30 12 1 9 13
M  V30 13 1 9 14
M  V30 14 1 13 15
M  V30 15 1 13 16
M  V30 16 1 14 17
M  V30 17 1 16 18
M  V30 18 1 17 19
M  V30 19 1 18 20
M  V30 20 1 18 21
M  V30 21 1 19 22
M  V30 22 1 20 23
M  V30 23 1 20 24
M  V30 24 2 24 25
M  V30 25 1 24 26
M  V30 26 1 26 27
M  V30 27 1 27 28
M  V30 28 2 28 29
M  V30 29 1 28 30
M  V30 30 1 30 31
M  V30 31 1 31 32
M  V30 32 2 32 33
M  V30 33 1 32 34
M  V30 34 1 6 7
M  V30 35 1 11 14
M  V30 36 1 17 18
M  V30 37 1 20 22
M  V30 38 1 3 35
M  V30 39 1 4 36
M  V30 40 1 6 37
M  V30 41 1 8 38
M  V30 42 1 9 39
M  V30 43 1 10 40
M  V30 44 1 10 41
M  V30 45 1 10 42
M  V30 46 1 11 43
M  V30 47 1 11 44
M  V30 48 1 12 45
M  V30 49 1 12 46
M  V30 50 1 12 47
M  V30 51 1 13 48
M  V30 52 1 14 49
M  V30 53 1 15 50
M  V30 54 1 16 51
M  V30 55 1 16 52
M  V30 56 1 17 53
M  V30 57 1 19 54
M  V30 58 1 19 55
M  V30 59 1 21 56
M  V30 60 1 21 57
M  V30 61 1 21 58
M  V30 62 1 22 59
M  V30 63 1 22 60
M  V30 64 1 23 61
M  V30 65 1 26 62
M  V30 66 1 26 63
M  V30 67 1 30 64
M  V30 68 1 30 65
M  V30 69 1 31 66
M  V30 70 1 31 67
M  V30 71 1 34 68
M  V30 END BOND
M  V30 BEGIN COLLECTION
M  V30 MDLV30/STEABS ATOMS=(8 7 8 9 13 14 17 18 20)
M  V30 END COLLECTION
M  V30 END CTAB
M  END
>  <Column 1>
1948

>  <level_0>
2117

>  <index>
2117

>  <Unnamed: 0>
2117

>  <NO.>
2129

>  <Name>
methylprednisolone hemisuccinate

>  <IUPAC_name>
4-[2-[(6s-8s-9s-10r-11s-13s-14s-17r)-11-17-dihydroxy-6-10-13-trimethyl-3-oxo-7-8-9-11-12-14-15-16-octahydro-6h-cyclopenta[a]phenanthren-17-yl]-2-oxoethoxy]-4-oxobutanoic acid

>  <SMILES>
C[C@H]1C[C@H]2[C@@H]3CC[C@](O)(C(=O)COC(=O)CCC(=O)O)[C@@]3(C)C[C@H](O)[C@@H]2[C@@]2(C)C=CC(=O)C=C12

>  <CID>
16923

>  <logBB>


>  <BBB+/BBB->
BBB+

>  <Inchi>
InChI=1S/C26H34O8/c1-14-10-16-17-7-9-26(33-20(29)13-34-22(32)5-4-21(30)31)25(17-3)12-19(28)23(16)24(2)8-6-15(27)11-18(14)24/h6-8-11-14-16-17-19-23-28-33H-4-5-7-9-10-12-13H2-1-3H3-(H-30-31)/t14--16--17--19--23+-24--25--26-/m0/s1

>  <threshold>
-1

>  <reference>
R1|R27|R30|

>  <group>
B

>  <Class>
-1

>  <ABC>
26.9

>  <ABCGG>
21.49

>  <nAcid>
1

>  <nBase>
0

>  <nAromAtom>
0

>  <nAromBond>
0

>  <nAtom>
68

>  <nHeavyAtom>
34

>  <nSpiro>
0

>  <nBridgehead>
0

>  <nHetero>
8

>  <nN>
0

>  <nO>
8

>  <nF>
0

>  <BalabanJ>
1.52

>  <BertzCT>
981.29

>  <nBonds>
71

>  <nBondsO>
37

>  <nBondsS>
65

>  <nBondsD>
6

>  <nBondsT>
0

>  <nBondsA>
0

>  <nBondsM>
6

>  <nBondsKS>
65

>  <nBondsKD>
6

>  <RNCG>
0.14

>  <RPCG>
0.09

>  <FCSP3>
0.69

>  <SZ>
42.33

>  <Sm>
39.51

>  <Sv>
40.93

>  <Sse>
68.74

>  <Sp>
43.42

>  <Si>
76.74

>  <MZ>
0.62

>  <Mm>
0.58

>  <Mv>
0.6

>  <Mse>
1.01

>  <Mp>
0.64

>  <Mi>
1.13

>  <NsCH3>
3

>  <NdCH2>
0

>  <NssCH2>
7

>  <NtCH>
0

>  <NdsCH>
3

>  <NaaCH>
0

>  <NsssCH>
5

>  <NddC>
0

>  <NtsC>
0

>  <NdssC>
5

>  <NaasC>
0

>  <NaaaC>
0

>  <NssssC>
3

>  <NsNH3>
0

>  <NsNH2>
0

>  <NssNH2>
0

>  <NdNH>
0

>  <NssNH>
0

>  <NaaNH>
0

>  <NtN>
0

>  <NsssNH>
0

>  <NdsN>
0

>  <NaaN>
0

>  <NsssN>
0

>  <NddsN>
0

>  <NaasN>
0

>  <NssssN>
0

>  <NsOH>
3

>  <NdO>
4

>  <NssO>
1

>  <NaaO>
0

>  <NsF>
0

>  <NsSiH3>
0

>  <NssSiH2>
0

>  <NsssSiH>
0

>  <NssssSi>
0

>  <NsPH2>
0

>  <NssPH>
0

>  <NsssP>
0

>  <NdsssP>
0

>  <NsssssP>
0

>  <NsSH>
0

>  <NdS>
0

>  <NssS>
0

>  <NaaS>
0

>  <NdssS>
0

>  <NddssS>
0

>  <NsCl>
0

>  <NsBr>
0

>  <NsI>
0

>  <fragCpx>
247.08

>  <fMF>
0.25

>  <nHBAcc>
7

>  <nHBDon>
3

>  <Kier1>
27.05

>  <Kier2>
9.71

>  <Lipinski>
1

>  <GhoseFilter>
1

>  <FilterItLogS>
-2.67

>  <VMcGowan>
354.92

>  <LabuteASA>
198.6

>  <PEOE_VSA1>
20.06

>  <PEOE_VSA2>
19.18

>  <PEOE_VSA3>
0

>  <PEOE_VSA4>
0

>  <PEOE_VSA5>
0

>  <PEOE_VSA6>
32.42

>  <PEOE_VSA7>
55.59

>  <PEOE_VSA8>
16.75

>  <PEOE_VSA9>
18.95

>  <PEOE_VSA10>
5.6

>  <PEOE_VSA11>
12.39

>  <PEOE_VSA12>
5.78

>  <PEOE_VSA13>
0

>  <SMR_VSA1>
39.23

>  <SMR_VSA2>
0

>  <SMR_VSA3>
0

>  <SMR_VSA4>
34.5

>  <SMR_VSA5>
71

>  <SMR_VSA6>
6.61

>  <SMR_VSA7>
23.8

>  <SMR_VSA8>
0

>  <SMR_VSA9>
0

>  <SlogP_VSA1>
0

>  <SlogP_VSA2>
57.14

>  <SlogP_VSA3>
23.92

>  <SlogP_VSA4>
34.5

>  <SlogP_VSA5>
59.3

>  <SlogP_VSA6>
23.8

>  <SlogP_VSA7>
0

>  <SlogP_VSA8>
0

>  <SlogP_VSA9>
0

>  <SlogP_VSA10>
0

>  <SlogP_VSA11>
0

>  <EState_VSA1>
46.86

>  <EState_VSA2>
55.14

>  <EState_VSA3>
6.42

>  <EState_VSA4>
11.99

>  <EState_VSA5>
0

>  <EState_VSA6>
12.15

>  <EState_VSA7>
13

>  <EState_VSA8>
13.85

>  <EState_VSA9>
9.84

>  <EState_VSA10>
29.39

>  <VSA_EState1>
4.98

>  <VSA_EState2>
47.65

>  <VSA_EState3>
31.75

>  <VSA_EState4>
-2.04

>  <VSA_EState5>
-2.51

>  <VSA_EState6>
0

>  <VSA_EState7>
5.52

>  <VSA_EState8>
5.4

>  <VSA_EState9>
0

>  <apol>
72.51

>  <bpol>
39.32

>  <nRing>
4

>  <nHRing>
0

>  <naRing>
0

>  <naHRing>
0

>  <nARing 2>
4

>  <nAHRing 2>
0

>  <nFRing>
1

>  <nFHRing>
0

>  <nFaRing>
0

>  <nFaHRing>
0

>  <nFARing 2>
1

>  <nFAHRing 2>
0

>  <nRot>
6

>  <SLogP>
2.22

>  <SMR>
120.34

>  <TopoPSA(NO)>
138.2

>  <TopoPSA>
138.2

>  <JGI1>
0.3

>  <JGI2>
0.13

>  <JGI3>
0.07

>  <JGI4>
0.06

>  <JGI5>
0.04

>  <Diameter>
17

>  <Radius>
9

>  <TMWC10>
152.53

>  <TSRW10>
86.06

>  <MW>
474.23

>  <AMW>
6.97

>  <WPath>
3382

>  <WPol>
70

>  <Zagreb1>
192

>  <Zagreb2>
239

>  <mZagreb2>
7.13

>  <yes>


>  <nAR-cont>
0.199399

>  <nHA-cont>
0.568589513

>  <MWHBN>
0.459203815

>  <MWHBN-cont>
0

>  <TPSA-cont>
0

>  <pka_cont>
0.97

>  <yes.1>


>  <BBB_SCORE>
1.252988513

>  <MMFF94 Energy>
74.987

$$$$
Compound 1606
Actelion Java MolfileCreator 2.0

  0  0  0  0  0  0              0 V3000
M  V30 BEGIN CTAB
M  V30 COUNTS 31 32 0 0 0
M  V30 BEGIN ATOM
M  V30 1 O -1.3437 -0.474 1.2646 0
M  V30 2 C -0.0682 0.008 0.7961 0 CFG=1
M  V30 3 C -2.2288 0.6185 1.5119 0
M  V30 4 C 0.8096 -1.2175 0.6091 0
M  V30 5 C -0.2285 0.8667 -0.5126 0 CFG=1
M  V30 6 C -2.476 1.411 0.2263 0
M  V30 7 C 2.0677 -1.2886 1.2277 0
M  V30 8 C 0.3904 -2.2948 -0.1876 0
M  V30 9 N -1.2192 1.9723 -0.3151 0
M  V30 10 C 1.1367 1.4309 -0.9395 0
M  V30 11 C 2.8879 -2.4038 1.045 0
M  V30 12 C 1.2112 -3.4092 -0.3684 0
M  V30 13 C -1.5102 2.6985 -1.5539 0
M  V30 14 C 2.4603 -3.4621 0.2459 0
M  V30 15 H 0.3579 0.634 1.5928 0
M  V30 16 H -3.1736 0.2019 1.8758 0
M  V30 17 H -1.8196 1.2543 2.3063 0
M  V30 18 H -0.602 0.2128 -1.3131 0
M  V30 19 H -3.18 2.2217 0.448 0
M  V30 20 H -2.9408 0.7505 -0.5174 0
M  V30 21 H 2.4182 -0.4735 1.857 0
M  V30 22 H -0.5895 -2.2727 -0.6597 0
M  V30 23 H 1.0818 1.9471 -1.9026 0
M  V30 24 H 1.5239 2.1354 -0.195 0
M  V30 25 H 1.8774 0.6356 -1.0676 0
M  V30 26 H 3.8598 -2.4475 1.5295 0
M  V30 27 H 0.8715 -4.2382 -0.9834 0
M  V30 28 H -2.2975 3.443 -1.3865 0
M  V30 29 H -0.6395 3.2637 -1.8988 0
M  V30 30 H -1.8386 2.0309 -2.3584 0
M  V30 31 H 3.0977 -4.3312 0.1075 0
M  V30 END ATOM
M  V30 BEGIN BOND
M  V30 1 1 1 2
M  V30 2 1 1 3
M  V30 3 1 2 4
M  V30 4 1 2 5
M  V30 5 1 3 6
M  V30 6 2 4 7
M  V30 7 1 4 8
M  V30 8 1 5 9
M  V30 9 1 5 10
M  V30 10 1 7 11
M  V30 11 2 8 12
M  V30 12 1 9 13
M  V30 13 2 11 14
M  V30 14 1 6 9
M  V30 15 1 12 14
M  V30 16 1 2 15
M  V30 17 1 3 16
M  V30 18 1 3 17
M  V30 19 1 5 18
M  V30 20 1 6 19
M  V30 21 1 6 20
M  V30 22 1 7 21
M  V30 23 1 8 22
M  V30 24 1 10 23
M  V30 25 1 10 24
M  V30 26 1 10 25
M  V30 27 1 11 26
M  V30 28 1 12 27
M  V30 29 1 13 28
M  V30 30 1 13 29
M  V30 31 1 13 30
M  V30 32 1 14 31
M  V30 END BOND
M  V30 BEGIN COLLECTION
M  V30 MDLV30/STEABS ATOMS=(2 2 5)
M  V30 END COLLECTION
M  V30 END CTAB
M  END
>  <Column 1>
1951

>  <level_0>
2121

>  <index>
2121

>  <Unnamed: 0>
2121

>  <NO.>
2133

>  <Name>
phendimetrazine

>  <IUPAC_name>
(2s-3s)-3-4-dimethyl-2-phenylmorpholine

>  <SMILES>
C[C@H]1[C@H](c2ccccc2)OCCN1C

>  <CID>
30487

>  <logBB>


>  <BBB+/BBB->
BBB+

>  <Inchi>
InChI=1S/C12H17NO/c1-10-12(14-9-8-13(10)2)11-6-4-3-5-7-11/h3-7-10-12H-8-9H2-1-2H3/t10--12+/m0/s1

>  <threshold>
-1

>  <reference>
R1|R13|R6|R27|R30|

>  <group>
B

>  <Class>
1

>  <ABC>
10.7

>  <ABCGG>
9.37

>  <nAcid>
0

>  <nBase>
1

>  <nAromAtom>
6

>  <nAromBond>
6

>  <nAtom>
31

>  <nHeavyAtom>
14

>  <nSpiro>
0

>  <nBridgehead>
0

>  <nHetero>
2

>  <nN>
1

>  <nO>
1

>  <nF>
0

>  <BalabanJ>
1.93

>  <BertzCT>
285.63

>  <nBonds>
32

>  <nBondsO>
15

>  <nBondsS>
26

>  <nBondsD>
0

>  <nBondsT>
0

>  <nBondsA>
6

>  <nBondsM>
6

>  <nBondsKS>
29

>  <nBondsKD>
3

>  <RNCG>
0.35

>  <RPCG>
0.09

>  <FCSP3>
0.5

>  <SZ>
17.33

>  <Sm>
15.92

>  <Sv>
18.08

>  <Sse>
30.54

>  <Sp>
19.93

>  <Si>
35.03

>  <MZ>
0.56

>  <Mm>
0.51

>  <Mv>
0.58

>  <Mse>
0.99

>  <Mp>
0.64

>  <Mi>
1.13

>  <NsCH3>
2

>  <NdCH2>
0

>  <NssCH2>
2

>  <NtCH>
0

>  <NdsCH>
0

>  <NaaCH>
5

>  <NsssCH>
2

>  <NddC>
0

>  <NtsC>
0

>  <NdssC>
0

>  <NaasC>
1

>  <NaaaC>
0

>  <NssssC>
0

>  <NsNH3>
0

>  <NsNH2>
0

>  <NssNH2>
0

>  <NdNH>
0

>  <NssNH>
0

>  <NaaNH>
0

>  <NtN>
0

>  <NsssNH>
0

>  <NdsN>
0

>  <NaaN>
0

>  <NsssN>
1

>  <NddsN>
0

>  <NaasN>
0

>  <NssssN>
0

>  <NsOH>
0

>  <NdO>
0

>  <NssO>
1

>  <NaaO>
0

>  <NsF>
0

>  <NsSiH3>
0

>  <NssSiH2>
0

>  <NsssSiH>
0

>  <NssssSi>
0

>  <NsPH2>
0

>  <NssPH>
0

>  <NsssP>
0

>  <NdsssP>
0

>  <NsssssP>
0

>  <NsSH>
0

>  <NdS>
0

>  <NssS>
0

>  <NaaS>
0

>  <NdssS>
0

>  <NddssS>
0

>  <NsCl>
0

>  <NsBr>
0

>  <NsI>
0

>  <fragCpx>
43.02

>  <fMF>
0.39

>  <nHBAcc>
2

>  <nHBDon>
0

>  <Kier1>
10.52

>  <Kier2>
4.68

>  <Lipinski>
1

>  <GhoseFilter>
1

>  <FilterItLogS>
-2.14

>  <VMcGowan>
161.17

>  <LabuteASA>
85.49

>  <PEOE_VSA1>
4.74

>  <PEOE_VSA2>
4.9

>  <PEOE_VSA3>
0

>  <PEOE_VSA4>
0

>  <PEOE_VSA5>
0

>  <PEOE_VSA6>
30.33

>  <PEOE_VSA7>
19.53

>  <PEOE_VSA8>
12.59

>  <PEOE_VSA9>
12.71

>  <PEOE_VSA10>
0

>  <PEOE_VSA11>
0

>  <PEOE_VSA12>
0

>  <PEOE_VSA13>
0

>  <SMR_VSA1>
4.74

>  <SMR_VSA2>
0

>  <SMR_VSA3>
4.9

>  <SMR_VSA4>
0

>  <SMR_VSA5>
19.07

>  <SMR_VSA6>
20.2

>  <SMR_VSA7>
35.9

>  <SMR_VSA8>
0

>  <SMR_VSA9>
0

>  <SlogP_VSA1>
0

>  <SlogP_VSA2>
31.14

>  <SlogP_VSA3>
4.74

>  <SlogP_VSA4>
0

>  <SlogP_VSA5>
18.59

>  <SlogP_VSA6>
30.33

>  <SlogP_VSA7>
0

>  <SlogP_VSA8>
0

>  <SlogP_VSA9>
0

>  <SlogP_VSA10>
0

>  <SlogP_VSA11>
0

>  <EState_VSA1>
0

>  <EState_VSA2>
6.1

>  <EState_VSA3>
6.04

>  <EState_VSA4>
13.15

>  <EState_VSA5>
5.56

>  <EState_VSA6>
0

>  <EState_VSA7>
6.07

>  <EState_VSA8>
43.14

>  <EState_VSA9>
4.74

>  <EState_VSA10>
0

>  <VSA_EState1>
5.81

>  <VSA_EState2>
2.35

>  <VSA_EState3>
0

>  <VSA_EState4>
1.28

>  <VSA_EState5>
0

>  <VSA_EState6>
10.92

>  <VSA_EState7>
0.23

>  <VSA_EState8>
4.09

>  <VSA_EState9>
2.16

>  <apol>
33.28

>  <bpol>
20.5

>  <nRing>
2

>  <nHRing>
1

>  <naRing>
1

>  <naHRing>
0

>  <nARing 2>
1

>  <nAHRing 2>
1

>  <nFRing>
0

>  <nFHRing>
0

>  <nFaRing>
0

>  <nFaHRing>
0

>  <nFARing 2>
0

>  <nFAHRing 2>
0

>  <nRot>
1

>  <SLogP>
2.08

>  <SMR>
57.23

>  <TopoPSA(NO)>
12.47

>  <TopoPSA>
12.47

>  <JGI1>
0.13

>  <JGI2>
0.09

>  <JGI3>
0.05

>  <JGI4>
0.04

>  <JGI5>
0.02

>  <Diameter>
7

>  <Radius>
4

>  <TMWC10>
97.9

>  <TSRW10>
45.63

>  <MW>
191.13

>  <AMW>
6.17

>  <WPath>
291

>  <WPol>
20

>  <Zagreb1>
70

>  <Zagreb2>
81

>  <mZagreb2>
3.17

>  <yes>


>  <nAR-cont>
0.816016

>  <nHA-cont>
0.887625254

>  <MWHBN>
0.144665698

>  <MWHBN-cont>
0.917891919

>  <TPSA-cont>
0.912951657

>  <pka_cont>
0.97

>  <yes.1>


>  <BBB_SCORE>
5.391382445

>  <MMFF94 Energy>
97.034

$$$$
Compound 1607
Actelion Java MolfileCreator 2.0

  0  0  0  0  0  0              0 V3000
M  V30 BEGIN CTAB
M  V30 COUNTS 52 55 0 0 0
M  V30 BEGIN ATOM
M  V30 1 O 5.3845 -2.0868 -2.3279 0
M  V30 2 C 4.5199 -1.4603 -1.7202 0
M  V30 3 C 3.3988 -0.8506 -2.4709 0
M  V30 4 C 4.5981 -1.2082 -0.2384 0
M  V30 5 C 2.4067 -0.1873 -1.8502 0
M  V30 6 C 3.2019 -1.1294 0.3617 0
M  V30 7 C 2.2799 -0.0778 -0.3244 0 CFG=2
M  V30 8 C 1.3574 0.5225 -2.6726 0
M  V30 9 C 0.7898 -0.371 0.102 0 CFG=2
M  V30 10 C 2.7348 1.3375 0.0967 0
M  V30 11 C -0.0554 0.1686 -2.227 0
M  V30 12 C -0.2503 0.4426 -0.7297 0 CFG=1
M  V30 13 C 0.5366 -0.2445 1.629 0
M  V30 14 C -1.6649 0.0627 -0.272 0 CFG=1
M  V30 15 C -0.9241 -0.5198 2.0301 0
M  V30 16 C -1.9112 0.342 1.2259 0 CFG=2
M  V30 17 C -2.8541 0.727 -0.9582 0
M  V30 18 C -3.4242 -0.0204 1.3422 0 CFG=2
M  V30 19 C -1.7062 1.8346 1.6195 0
M  V30 20 C -4.0245 0.5407 0.0251 0
M  V30 21 O -4.0202 0.6296 2.4626 0
M  V30 22 C -3.7334 -1.5159 1.4852 0
M  V30 23 H 3.4691 -0.93 -3.5502 0
M  V30 24 H 5.1425 -2.0374 0.2267 0
M  V30 25 H 5.1663 -0.2886 -0.0673 0
M  V30 26 H 2.7429 -2.1248 0.2806 0
M  V30 27 H 3.2978 -0.9191 1.4336 0
M  V30 28 H 1.4596 0.2836 -3.7382 0
M  V30 29 H 1.5094 1.6053 -2.5847 0
M  V30 30 H 0.6014 -1.43 -0.139 0
M  V30 31 H 2.0433 2.1143 -0.2438 0
M  V30 32 H 3.7184 1.5843 -0.3196 0
M  V30 33 H 2.819 1.4271 1.1848 0
M  V30 34 H -0.2593 -0.8869 -2.4479 0
M  V30 35 H -0.7669 0.7594 -2.8155 0
M  V30 36 H -0.0956 1.5149 -0.5693 0
M  V30 37 H 0.8261 0.7488 1.9843 0
M  V30 38 H 1.1665 -0.958 2.1716 0
M  V30 39 H -1.7671 -1.0177 -0.4545 0
M  V30 40 H -1.1148 -1.5862 1.8619 0
M  V30 41 H -1.0505 -0.3468 3.1055 0
M  V30 42 H -2.6716 1.793 -1.1339 0
M  V30 43 H -3.0755 0.2672 -1.9268 0
M  V30 44 H -0.7064 2.2071 1.3841 0
M  V30 45 H -1.8453 1.97 2.6985 0
M  V30 46 H -2.4153 2.5003 1.1172 0
M  V30 47 H -4.5335 1.4982 0.1869 0
M  V30 48 H -4.7699 -0.1415 -0.3994 0
M  V30 49 H -4.981 0.4854 2.4172 0
M  V30 50 H -3.3605 -1.9027 2.44 0
M  V30 51 H -4.8172 -1.6832 1.5 0
M  V30 52 H -3.3148 -2.1173 0.6741 0
M  V30 END ATOM
M  V30 BEGIN BOND
M  V30 1 2 1 2
M  V30 2 1 2 3
M  V30 3 1 2 4
M  V30 4 2 3 5
M  V30 5 1 4 6
M  V30 6 1 5 7
M  V30 7 1 5 8
M  V30 8 1 7 9
M  V30 9 1 7 10
M  V30 10 1 8 11
M  V30 11 1 9 12
M  V30 12 1 9 13
M  V30 13 1 12 14
M  V30 14 1 13 15
M  V30 15 1 14 16
M  V30 16 1 14 17
M  V30 17 1 16 18
M  V30 18 1 16 19
M  V30 19 1 17 20
M  V30 20 1 18 21
M  V30 21 1 18 22
M  V30 22 1 6 7
M  V30 23 1 11 12
M  V30 24 1 15 16
M  V30 25 1 18 20
M  V30 26 1 3 23
M  V30 27 1 4 24
M  V30 28 1 4 25
M  V30 29 1 6 26
M  V30 30 1 6 27
M  V30 31 1 8 28
M  V30 32 1 8 29
M  V30 33 1 9 30
M  V30 34 1 10 31
M  V30 35 1 10 32
M  V30 36 1 10 33
M  V30 37 1 11 34
M  V30 38 1 11 35
M  V30 39 1 12 36
M  V30 40 1 13 37
M  V30 41 1 13 38
M  V30 42 1 14 39
M  V30 43 1 15 40
M  V30 44 1 15 41
M  V30 45 1 17 42
M  V30 46 1 17 43
M  V30 47 1 19 44
M  V30 48 1 19 45
M  V30 49 1 19 46
M  V30 50 1 20 47
M  V30 51 1 20 48
M  V30 52 1 21 49
M  V30 53 1 22 50
M  V30 54 1 22 51
M  V30 55 1 22 52
M  V30 END BOND
M  V30 BEGIN COLLECTION
M  V30 MDLV30/STEABS ATOMS=(6 7 9 12 14 16 18)
M  V30 END COLLECTION
M  V30 END CTAB
M  END
>  <Column 1>
1954

>  <level_0>
2124

>  <index>
2124

>  <Unnamed: 0>
2124

>  <NO.>
2136

>  <Name>
methyltestosterone

>  <IUPAC_name>
(8r-9s-10r-13s-14s-17s)-17-hydroxy-10-13-17-trimethyl-2-6-7-8-9-11-12-14-15-16-decahydro-1h-cyclopenta[a]phenanthren-3-one

>  <SMILES>
C[C@]1(O)CC[C@H]2[C@@H]3CCC4=CC(=O)CC[C@]4(C)[C@H]3CC[C@@]21C

>  <CID>
6010

>  <logBB>


>  <BBB+/BBB->
BBB-

>  <Inchi>
InChI=1S/C20H30O2/c1-18-9-6-14(21)12-13(18)4-5-15-16(18)7-10-19(2)17(15)8-11-20(19-3)22/h12-15-17-22H-4-11H2-1-3H3/t15--16+-17+-18+-19+-20+/m1/s1

>  <threshold>
-1

>  <reference>
R1|R27|R30|

>  <group>
B

>  <Class>
1

>  <ABC>
18.06

>  <ABCGG>
14.59

>  <nAcid>
0

>  <nBase>
0

>  <nAromAtom>
0

>  <nAromBond>
0

>  <nAtom>
52

>  <nHeavyAtom>
22

>  <nSpiro>
0

>  <nBridgehead>
0

>  <nHetero>
2

>  <nN>
0

>  <nO>
2

>  <nF>
0

>  <BalabanJ>
1.64

>  <BertzCT>
545.91

>  <nBonds>
55

>  <nBondsO>
25

>  <nBondsS>
53

>  <nBondsD>
2

>  <nBondsT>
0

>  <nBondsA>
0

>  <nBondsM>
2

>  <nBondsKS>
53

>  <nBondsKD>
2

>  <RNCG>
0.3

>  <RPCG>
0.16

>  <FCSP3>
0.85

>  <SZ>
27.67

>  <Sm>
25.18

>  <Sv>
29.56

>  <Sse>
50.98

>  <Sp>
32.94

>  <Si>
58.65

>  <MZ>
0.53

>  <Mm>
0.48

>  <Mv>
0.57

>  <Mse>
0.98

>  <Mp>
0.63

>  <Mi>
1.13

>  <NsCH3>
3

>  <NdCH2>
0

>  <NssCH2>
8

>  <NtCH>
0

>  <NdsCH>
1

>  <NaaCH>
0

>  <NsssCH>
3

>  <NddC>
0

>  <NtsC>
0

>  <NdssC>
2

>  <NaasC>
0

>  <NaaaC>
0

>  <NssssC>
3

>  <NsNH3>
0

>  <NsNH2>
0

>  <NssNH2>
0

>  <NdNH>
0

>  <NssNH>
0

>  <NaaNH>
0

>  <NtN>
0

>  <NsssNH>
0

>  <NdsN>
0

>  <NaaN>
0

>  <NsssN>
0

>  <NddsN>
0

>  <NaasN>
0

>  <NssssN>
0

>  <NsOH>
1

>  <NdO>
1

>  <NssO>
0

>  <NaaO>
0

>  <NsF>
0

>  <NsSiH3>
0

>  <NssSiH2>
0

>  <NsssSiH>
0

>  <NssssSi>
0

>  <NsPH2>
0

>  <NssPH>
0

>  <NsssP>
0

>  <NdsssP>
0

>  <NsssssP>
0

>  <NsSH>
0

>  <NdS>
0

>  <NssS>
0

>  <NaaS>
0

>  <NdssS>
0

>  <NddssS>
0

>  <NsCl>
0

>  <NsBr>
0

>  <NsI>
0

>  <fragCpx>
163.02

>  <fMF>
0.33

>  <nHBAcc>
2

>  <nHBDon>
1

>  <Kier1>
15.52

>  <Kier2>
4.76

>  <Lipinski>
1

>  <GhoseFilter>
1

>  <FilterItLogS>
-4.08

>  <VMcGowan>
252.36

>  <LabuteASA>
133.92

>  <PEOE_VSA1>
5.11

>  <PEOE_VSA2>
4.79

>  <PEOE_VSA3>
0

>  <PEOE_VSA4>
0

>  <PEOE_VSA5>
0

>  <PEOE_VSA6>
19.42

>  <PEOE_VSA7>
86.53

>  <PEOE_VSA8>
6.42

>  <PEOE_VSA9>
5.6

>  <PEOE_VSA10>
0

>  <PEOE_VSA11>
5.78

>  <PEOE_VSA12>
0

>  <PEOE_VSA13>
0

>  <SMR_VSA1>
9.9

>  <SMR_VSA2>
0

>  <SMR_VSA3>
0

>  <SMR_VSA4>
28.58

>  <SMR_VSA5>
77.74

>  <SMR_VSA6>
0

>  <SMR_VSA7>
11.65

>  <SMR_VSA8>
0

>  <SMR_VSA9>
0

>  <SlogP_VSA1>
0

>  <SlogP_VSA2>
16.49

>  <SlogP_VSA3>
4.79

>  <SlogP_VSA4>
28.58

>  <SlogP_VSA5>
72.14

>  <SlogP_VSA6>
11.65

>  <SlogP_VSA7>
0

>  <SlogP_VSA8>
0

>  <SlogP_VSA9>
0

>  <SlogP_VSA10>
0

>  <SlogP_VSA11>
0

>  <EState_VSA1>
5.6

>  <EState_VSA2>
10.83

>  <EState_VSA3>
11.7

>  <EState_VSA4>
43.94

>  <EState_VSA5>
24.84

>  <EState_VSA6>
0

>  <EState_VSA7>
6.08

>  <EState_VSA8>
20.77

>  <EState_VSA9>
0

>  <EState_VSA10>
9.9

>  <VSA_EState1>
0

>  <VSA_EState2>
11.83

>  <VSA_EState3>
10.91

>  <VSA_EState4>
1.32

>  <VSA_EState5>
2.5

>  <VSA_EState6>
0

>  <VSA_EState7>
10.67

>  <VSA_EState8>
6.85

>  <VSA_EState9>
0

>  <apol>
55.01

>  <bpol>
30.96

>  <nRing>
4

>  <nHRing>
0

>  <naRing>
0

>  <naHRing>
0

>  <nARing 2>
4

>  <nAHRing 2>
0

>  <nFRing>
1

>  <nFHRing>
0

>  <nFaRing>
0

>  <nFaHRing>
0

>  <nFARing 2>
1

>  <nFAHRing 2>
0

>  <nRot>
0

>  <SLogP>
4.27

>  <SMR>
87.33

>  <TopoPSA(NO)>
37.3

>  <TopoPSA>
37.3

>  <JGI1>
0.3

>  <JGI2>
0.14

>  <JGI3>
0.07

>  <JGI4>
0.06

>  <JGI5>
0.04

>  <Diameter>
10

>  <Radius>
5

>  <TMWC10>
125.6

>  <TSRW10>
72.44

>  <MW>
302.22

>  <AMW>
5.81

>  <WPath>
907

>  <WPol>
48

>  <Zagreb1>
134

>  <Zagreb2>
171

>  <mZagreb2>
4.41

>  <yes>


>  <nAR-cont>
0.199399

>  <nHA-cont>
0.983774276

>  <MWHBN>
0.172567757

>  <MWHBN-cont>
0.977817108

>  <TPSA-cont>
0.739622838

>  <pka_cont>
0.97

>  <yes.1>


>  <BBB_SCORE>
4.614144614

>  <MMFF94 Energy>
81.159

$$$$
Compound 1608
Actelion Java MolfileCreator 2.0

  0  0  0  0  0  0              0 V3000
M  V30 BEGIN CTAB
M  V30 COUNTS 54 57 0 0 0
M  V30 BEGIN ATOM
M  V30 1 Br 6.1732 2.0546 -0.9858 0
M  V30 2 C 4.349 2.2996 -1.3031 0
M  V30 3 C 3.9335 2.8939 -2.6027 0
M  V30 4 C 3.4262 1.9671 -0.3873 0
M  V30 5 O 4.7224 3.2447 -3.473 0
M  V30 6 C 2.4814 3.052 -2.8342 0
M  V30 7 C 1.9153 2.1395 -0.531 0 CFG=1
M  V30 8 C 1.5632 2.7109 -1.9135 0
M  V30 9 C 1.1793 0.7436 -0.3848 0
M  V30 10 C 1.512 3.1767 0.5428 0
M  V30 11 C 0.0949 2.8162 -2.2323 0 CFG=2
M  V30 12 F 1.6801 -0.054 -1.4046 0
M  V30 13 C 1.4809 -0.0478 0.9279 0 CFG=1
M  V30 14 C -0.3558 0.8634 -0.6674 0 CFG=1
M  V30 15 F -0.4999 3.7208 -1.4067 0
M  V30 16 C -0.6079 1.4759 -2.0589 0
M  V30 17 O 1.2561 0.7368 2.0943 0
M  V30 18 C 0.6968 -1.3745 1.0356 0
M  V30 19 C -0.999 -0.5284 -0.571 0 CFG=1
M  V30 20 C -0.8189 -1.2021 0.8101 0 CFG=1
M  V30 21 C -2.4953 -0.6648 -0.8359 0
M  V30 22 C -1.626 -2.5202 0.566 0
M  V30 23 C -1.4602 -0.3848 1.9675 0
M  V30 24 C -2.8806 -2.0145 -0.1943 0
M  V30 25 O -0.8844 -3.3727 -0.3161 0
M  V30 26 C -1.942 -3.3278 1.8443 0
M  V30 27 O -1.2432 -3.2817 2.8619 0
M  V30 28 C -3.1415 -4.2698 1.802 0
M  V30 29 O -3.1324 -5.1861 2.8865 0
M  V30 30 H 3.7728 1.5636 0.5625 0
M  V30 31 H 2.2169 3.4455 -3.81 0
M  V30 32 H 0.4328 3.2115 0.7149 0
M  V30 33 H 1.8242 4.1885 0.2521 0
M  V30 34 H 1.9857 2.9809 1.5111 0
M  V30 35 H -0.0691 3.1752 -3.2543 0
M  V30 36 H 2.5428 -0.319 0.9338 0
M  V30 37 H -0.8171 1.5275 0.0695 0
M  V30 38 H -1.6848 1.6276 -2.1977 0
M  V30 39 H -0.2728 0.7821 -2.8404 0
M  V30 40 H 1.4519 0.1784 2.8691 0
M  V30 41 H 1.1119 -2.0645 0.2909 0
M  V30 42 H 0.8732 -1.8306 2.017 0
M  V30 43 H -0.4997 -1.1477 -1.3333 0
M  V30 44 H -3.0613 0.1518 -0.3737 0
M  V30 45 H -2.7221 -0.6591 -1.907 0
M  V30 46 H -1.1819 0.6706 1.9543 0
M  V30 47 H -1.1519 -0.7758 2.9428 0
M  V30 48 H -2.5543 -0.4118 1.9458 0
M  V30 49 H -3.7354 -1.8555 0.4718 0
M  V30 50 H -3.194 -2.7206 -0.9715 0
M  V30 51 H -1.4516 -4.096 -0.6325 0
M  V30 52 H -4.0618 -3.6841 1.8606 0
M  V30 53 H -3.1246 -4.8467 0.8744 0
M  V30 54 H -2.5375 -4.8047 3.565 0
M  V30 END ATOM
M  V30 BEGIN BOND
M  V30 1 1 1 2
M  V30 2 1 2 3
M  V30 3 2 2 4
M  V30 4 2 3 5
M  V30 5 1 3 6
M  V30 6 1 4 7
M  V30 7 2 6 8
M  V30 8 1 7 9
M  V30 9 1 7 10
M  V30 10 1 8 11
M  V30 11 1 9 12
M  V30 12 1 9 13
M  V30 13 1 9 14
M  V30 14 1 11 15
M  V30 15 1 11 16
M  V30 16 1 13 17
M  V30 17 1 13 18
M  V30 18 1 14 19
M  V30 19 1 18 20
M  V30 20 1 19 21
M  V30 21 1 20 22
M  V30 22 1 20 23
M  V30 23 1 21 24
M  V30 24 1 22 25
M  V30 25 1 22 26
M  V30 26 2 26 27
M  V30 27 1 26 28
M  V30 28 1 28 29
M  V30 29 1 7 8
M  V30 30 1 14 16
M  V30 31 1 19 20
M  V30 32 1 22 24
M  V30 33 1 4 30
M  V30 34 1 6 31
M  V30 35 1 10 32
M  V30 36 1 10 33
M  V30 37 1 10 34
M  V30 38 1 11 35
M  V30 39 1 13 36
M  V30 40 1 14 37
M  V30 41 1 16 38
M  V30 42 1 16 39
M  V30 43 1 17 40
M  V30 44 1 18 41
M  V30 45 1 18 42
M  V30 46 1 19 43
M  V30 47 1 21 44
M  V30 48 1 21 45
M  V30 49 1 23 46
M  V30 50 1 23 47
M  V30 51 1 23 48
M  V30 52 1 24 49
M  V30 53 1 24 50
M  V30 54 1 25 51
M  V30 55 1 28 52
M  V30 56 1 28 53
M  V30 57 1 29 54
M  V30 END BOND
M  V30 BEGIN COLLECTION
M  V30 MDLV30/STEABS ATOMS=(6 7 11 13 14 19 20)
M  V30 END COLLECTION
M  V30 END CTAB
M  END
>  <Column 1>
1955

>  <level_0>
2125

>  <index>
2125

>  <Unnamed: 0>
2125

>  <NO.>
2137

>  <Name>
halopredone(halopredone-acetate)

>  <IUPAC_name>
(6r-8s-10s-11s-13s-14s)-2-bromo-6-9-difluoro-11-17-dihydroxy-17-(2-hydroxyacetyl)-10-13-dimethyl-6-7-8-11-12-14-15-16-octahydrocyclopenta[a]phenanthren-3-one

>  <SMILES>
C[C@]12C=C(Br)C(=O)C=C1[C@H](F)C[C@H]1[C@@H]3CCC(O)(C(=O)CO)[C@@]3(C)C[C@H](O)C12F

>  <CID>
93798

>  <logBB>


>  <BBB+/BBB->
BBB+

>  <Inchi>
InChI=1S/C21H25BrF2O5/c1-18-8-16(27)21(24)11(10(18)3-4-20(18-29)17(28)9-25)5-14(23)12-6-15(26)13(22)7-19(12-21)2/h6-7-10-11-14-16-25-27-29H-3-5-8-9H2-1-2H3/t10--11--14+-16--18--19--20?-21?/m0/s1

>  <threshold>
-1

>  <reference>
R1|R27|R30|

>  <group>
B

>  <Class>
-1

>  <ABC>
23.19

>  <ABCGG>
19.75

>  <nAcid>
0

>  <nBase>
0

>  <nAromAtom>
0

>  <nAromBond>
0

>  <nAtom>
54

>  <nHeavyAtom>
29

>  <nSpiro>
0

>  <nBridgehead>
0

>  <nHetero>
8

>  <nN>
0

>  <nO>
5

>  <nF>
2

>  <BalabanJ>
1.78

>  <BertzCT>
858.01

>  <nBonds>
57

>  <nBondsO>
32

>  <nBondsS>
53

>  <nBondsD>
4

>  <nBondsT>
0

>  <nBondsA>
0

>  <nBondsM>
4

>  <nBondsKS>
53

>  <nBondsKD>
4

>  <RNCG>
0.15

>  <RPCG>
0.08

>  <FCSP3>
0.71

>  <SZ>
40.67

>  <Sm>
39.57

>  <Sv>
33.93

>  <Sse>
55.34

>  <Sp>
35.88

>  <Si>
61.38

>  <MZ>
0.75

>  <Mm>
0.73

>  <Mv>
0.63

>  <Mse>
1.02

>  <Mp>
0.66

>  <Mi>
1.14

>  <NsCH3>
2

>  <NdCH2>
0

>  <NssCH2>
5

>  <NtCH>
0

>  <NdsCH>
2

>  <NaaCH>
0

>  <NsssCH>
4

>  <NddC>
0

>  <NtsC>
0

>  <NdssC>
4

>  <NaasC>
0

>  <NaaaC>
0

>  <NssssC>
4

>  <NsNH3>
0

>  <NsNH2>
0

>  <NssNH2>
0

>  <NdNH>
0

>  <NssNH>
0

>  <NaaNH>
0

>  <NtN>
0

>  <NsssNH>
0

>  <NdsN>
0

>  <NaaN>
0

>  <NsssN>
0

>  <NddsN>
0

>  <NaasN>
0

>  <NssssN>
0

>  <NsOH>
3

>  <NdO>
2

>  <NssO>
0

>  <NaaO>
0

>  <NsF>
2

>  <NsSiH3>
0

>  <NssSiH2>
0

>  <NsssSiH>
0

>  <NssssSi>
0

>  <NsPH2>
0

>  <NssPH>
0

>  <NsssP>
0

>  <NdsssP>
0

>  <NsssssP>
0

>  <NsSH>
0

>  <NdS>
0

>  <NssS>
0

>  <NaaS>
0

>  <NdssS>
0

>  <NddssS>
0

>  <NsCl>
0

>  <NsBr>
1

>  <NsI>
0

>  <fragCpx>
212.08

>  <fMF>
0.31

>  <nHBAcc>
5

>  <nHBDon>
3

>  <Kier1>
22.2

>  <Kier2>
6.75

>  <Lipinski>
1

>  <GhoseFilter>
1

>  <FilterItLogS>
-3.68

>  <VMcGowan>
296.48

>  <LabuteASA>
175.54

>  <PEOE_VSA1>
15.32

>  <PEOE_VSA2>
9.59

>  <PEOE_VSA3>
8.78

>  <PEOE_VSA4>
0

>  <PEOE_VSA5>
0

>  <PEOE_VSA6>
13

>  <PEOE_VSA7>
66.1

>  <PEOE_VSA8>
16.75

>  <PEOE_VSA9>
10.59

>  <PEOE_VSA10>
18.38

>  <PEOE_VSA11>
17.24

>  <PEOE_VSA12>
0

>  <PEOE_VSA13>
0

>  <SMR_VSA1>
33.69

>  <SMR_VSA2>
0

>  <SMR_VSA3>
0

>  <SMR_VSA4>
22.67

>  <SMR_VSA5>
63.08

>  <SMR_VSA6>
6.61

>  <SMR_VSA7>
22.21

>  <SMR_VSA8>
0

>  <SMR_VSA9>
0

>  <SlogP_VSA1>
0

>  <SlogP_VSA2>
57.04

>  <SlogP_VSA3>
9.59

>  <SlogP_VSA4>
22.67

>  <SlogP_VSA5>
39.53

>  <SlogP_VSA6>
22.21

>  <SlogP_VSA7>
0

>  <SlogP_VSA8>
0

>  <SlogP_VSA9>
0

>  <SlogP_VSA10>
8.78

>  <SlogP_VSA11>
0

>  <EState_VSA1>
64.38

>  <EState_VSA2>
35.74

>  <EState_VSA3>
0

>  <EState_VSA4>
6.08

>  <EState_VSA5>
13

>  <EState_VSA6>
6.92

>  <EState_VSA7>
0

>  <EState_VSA8>
15.93

>  <EState_VSA9>
0

>  <EState_VSA10>
24.91

>  <VSA_EState1>
32.27

>  <VSA_EState2>
24.44

>  <VSA_EState3>
31.55

>  <VSA_EState4>
-6.86

>  <VSA_EState5>
-2.72

>  <VSA_EState6>
0

>  <VSA_EState7>
-0.82

>  <VSA_EState8>
2.27

>  <VSA_EState9>
0

>  <apol>
59.91

>  <bpol>
30.42

>  <nRing>
4

>  <nHRing>
0

>  <naRing>
0

>  <naHRing>
0

>  <nARing 2>
4

>  <nAHRing 2>
0

>  <nFRing>
1

>  <nFHRing>
0

>  <nFaRing>
0

>  <nFaHRing>
0

>  <nFARing 2>
1

>  <nFAHRing 2>
0

>  <nRot>
2

>  <SLogP>
2.32

>  <SMR>
103.55

>  <TopoPSA(NO)>
94.83

>  <TopoPSA>
94.83

>  <JGI1>
0.33

>  <JGI2>
0.17

>  <JGI3>
0.08

>  <JGI4>
0.07

>  <JGI5>
0.04

>  <Diameter>
12

>  <Radius>
6

>  <TMWC10>
142.96

>  <TSRW10>
80.98

>  <MW>
474.09

>  <AMW>
8.78

>  <WPath>
1829

>  <WPol>
72

>  <Zagreb1>
174

>  <Zagreb2>
228

>  <mZagreb2>
6

>  <yes>


>  <nAR-cont>
0.199399

>  <nHA-cont>
0.785905698

>  <MWHBN>
0.36741729

>  <MWHBN-cont>
0.603880313

>  <TPSA-cont>
0.338027714

>  <pka_cont>
0.97

>  <yes.1>


>  <BBB_SCORE>
3.052180596

>  <MMFF94 Energy>
171.17

$$$$
Compound 1609
Actelion Java MolfileCreator 2.0

  0  0  0  0  0  0              0 V3000
M  V30 BEGIN CTAB
M  V30 COUNTS 54 57 0 0 0
M  V30 BEGIN ATOM
M  V30 1 O 2.9109 1.2121 5.3416 0
M  V30 2 C 2.099 0.7964 4.5193 0
M  V30 3 C 0.9981 1.6782 4.0653 0
M  V30 4 C 2.2376 -0.5491 3.8543 0
M  V30 5 C 0.0555 1.2323 3.2162 0
M  V30 6 C 0.8607 -1.1369 3.598 0
M  V30 7 C -0.0645 -0.2237 2.7431 0 CFG=2
M  V30 8 C -0.8796 2.204 2.5408 0
M  V30 9 C 0.3237 -0.1964 1.2162 0 CFG=1
M  V30 10 C -1.5039 -0.7362 3.0044 0
M  V30 11 C -0.5813 2.2157 1.0415 0
M  V30 12 C 0.4237 -1.5812 0.5142 0 CFG=1
M  V30 13 C -0.5807 0.8078 0.411 0 CFG=1
M  V30 14 O -0.7932 -2.3 0.648 0
M  V30 15 C 0.7673 -1.4852 -0.9886 0
M  V30 16 C -0.0749 0.8552 -1.036 0 CFG=1
M  V30 17 C -0.1614 -0.5116 -1.7341 0 CFG=2
M  V30 18 C -0.7126 1.8314 -2.0186 0
M  V30 19 C -1.5842 -1.102 -1.8034 0
M  V30 20 C 0.2922 -0.1233 -3.1586 0 CFG=2
M  V30 21 C -0.3921 1.2412 -3.4014 0
M  V30 22 O -2.5957 -0.4406 -2.024 0
M  V30 23 C -0.0077 -1.1582 -4.2361 0
M  V30 24 O -0.2005 -2.3456 -3.9576 0
M  V30 25 C 0.0246 -0.7005 -5.691 0
M  V30 26 O 0.1612 -1.8008 -6.5771 0
M  V30 27 H 1.0717 2.7142 4.3772 0
M  V30 28 H 2.8119 -0.4332 2.9302 0
M  V30 29 H 2.7949 -1.2123 4.525 0
M  V30 30 H 0.3903 -1.3042 4.5789 0
M  V30 31 H 0.9594 -2.1318 3.1522 0
M  V30 32 H -0.7565 3.2197 2.9362 0
M  V30 33 H -1.9235 1.9301 2.7267 0
M  V30 34 H 1.3443 0.216 1.1619 0
M  V30 35 H -2.247 -0.309 2.3266 0
M  V30 36 H -1.8255 -0.491 4.0249 0
M  V30 37 H -1.5676 -1.8256 2.9137 0
M  V30 38 H 0.3963 2.6889 0.8772 0
M  V30 39 H -1.3222 2.8492 0.5395 0
M  V30 40 H 1.2083 -2.174 0.9966 0
M  V30 41 H -1.6151 0.4462 0.4123 0
M  V30 42 H -0.6049 -3.2423 0.4853 0
M  V30 43 H 1.8082 -1.1517 -1.0878 0
M  V30 44 H 0.7069 -2.4838 -1.438 0
M  V30 45 H 0.9883 1.1452 -0.9873 0
M  V30 46 H -0.2944 2.8383 -1.9143 0
M  V30 47 H -1.7947 1.9155 -1.8739 0
M  V30 48 H -1.6566 -2.2015 -1.7347 0
M  V30 49 H 1.3807 0.0266 -3.1714 0
M  V30 50 H 0.2749 1.9064 -3.9615 0
M  V30 51 H -1.3148 1.1469 -3.9847 0
M  V30 52 H -0.9053 -0.1775 -5.9266 0
M  V30 53 H 0.8776 -0.0351 -5.8462 0
M  V30 54 H -0.3025 -2.5516 -6.1553 0
M  V30 END ATOM
M  V30 BEGIN BOND
M  V30 1 2 1 2
M  V30 2 1 2 3
M  V30 3 1 2 4
M  V30 4 2 3 5
M  V30 5 1 4 6
M  V30 6 1 5 7
M  V30 7 1 5 8
M  V30 8 1 7 9
M  V30 9 1 7 10
M  V30 10 1 8 11
M  V30 11 1 9 12
M  V30 12 1 9 13
M  V30 13 1 12 14
M  V30 14 1 12 15
M  V30 15 1 13 16
M  V30 16 1 15 17
M  V30 17 1 16 18
M  V30 18 1 17 19
M  V30 19 1 17 20
M  V30 20 1 18 21
M  V30 21 2 19 22
M  V30 22 1 20 23
M  V30 23 2 23 24
M  V30 24 1 23 25
M  V30 25 1 25 26
M  V30 26 1 6 7
M  V30 27 1 11 13
M  V30 28 1 16 17
M  V30 29 1 20 21
M  V30 30 1 3 27
M  V30 31 1 4 28
M  V30 32 1 4 29
M  V30 33 1 6 30
M  V30 34 1 6 31
M  V30 35 1 8 32
M  V30 36 1 8 33
M  V30 37 1 9 34
M  V30 38 1 10 35
M  V30 39 1 10 36
M  V30 40 1 10 37
M  V30 41 1 11 38
M  V30 42 1 11 39
M  V30 43 1 12 40
M  V30 44 1 13 41
M  V30 45 1 14 42
M  V30 46 1 15 43
M  V30 47 1 15 44
M  V30 48 1 16 45
M  V30 49 1 18 46
M  V30 50 1 18 47
M  V30 51 1 19 48
M  V30 52 1 20 49
M  V30 53 1 21 50
M  V30 54 1 21 51
M  V30 55 1 25 52
M  V30 56 1 25 53
M  V30 57 1 26 54
M  V30 END BOND
M  V30 BEGIN COLLECTION
M  V30 MDLV30/STEABS ATOMS=(7 7 9 12 13 16 17 20)
M  V30 END COLLECTION
M  V30 END CTAB
M  END
>  <Column 1>
1956

>  <level_0>
2126

>  <index>
2126

>  <Unnamed: 0>
2126

>  <NO.>
2138

>  <Name>
aldosterone

>  <IUPAC_name>
(8s-9s-10r-11s-13r-14s-17s)-11-hydroxy-17-(2-hydroxyacetyl)-10-methyl-3-oxo-1-2-6-7-8-9-11-12-14-15-16-17-dodecahydrocyclopenta[a]phenanthrene-13-carbaldehyde

>  <SMILES>
C[C@]12CCC(=O)C=C1CC[C@@H]1[C@@H]2[C@@H](O)C[C@]2(C=O)[C@@H](C(=O)CO)CC[C@@H]12

>  <CID>
5839

>  <logBB>


>  <BBB+/BBB->
BBB-

>  <Inchi>
InChI=1S/C21H28O5/c1-20-7-6-13(24)8-12(20)2-3-14-15-4-5-16(18(26)10-22)21(15-11-23)9-17(25)19(14)20/h8-11-14-17-19-22-25H-2-7-9-10H2-1H3/t14--15--16+-17--19+-20--21+/m0/s1

>  <threshold>
-1

>  <reference>
R1|R9|R27|R30|R36|

>  <group>
B

>  <Class>
-1

>  <ABC>
20.58

>  <ABCGG>
17.03

>  <nAcid>
0

>  <nBase>
0

>  <nAromAtom>
0

>  <nAromBond>
0

>  <nAtom>
54

>  <nHeavyAtom>
26

>  <nSpiro>
0

>  <nBridgehead>
0

>  <nHetero>
5

>  <nN>
0

>  <nO>
5

>  <nF>
0

>  <BalabanJ>
1.67

>  <BertzCT>
681.89

>  <nBonds>
57

>  <nBondsO>
29

>  <nBondsS>
53

>  <nBondsD>
4

>  <nBondsT>
0

>  <nBondsA>
0

>  <nBondsM>
4

>  <nBondsKS>
53

>  <nBondsKD>
4

>  <RNCG>
0.19

>  <RPCG>
0.1

>  <FCSP3>
0.76

>  <SZ>
32.33

>  <Sm>
30.01

>  <Sv>
32.16

>  <Sse>
54.08

>  <Sp>
34.58

>  <Si>
60.86

>  <MZ>
0.6

>  <Mm>
0.56

>  <Mv>
0.6

>  <Mse>
1

>  <Mp>
0.64

>  <Mi>
1.13

>  <NsCH3>
1

>  <NdCH2>
0

>  <NssCH2>
8

>  <NtCH>
0

>  <NdsCH>
2

>  <NaaCH>
0

>  <NsssCH>
5

>  <NddC>
0

>  <NtsC>
0

>  <NdssC>
3

>  <NaasC>
0

>  <NaaaC>
0

>  <NssssC>
2

>  <NsNH3>
0

>  <NsNH2>
0

>  <NssNH2>
0

>  <NdNH>
0

>  <NssNH>
0

>  <NaaNH>
0

>  <NtN>
0

>  <NsssNH>
0

>  <NdsN>
0

>  <NaaN>
0

>  <NsssN>
0

>  <NddsN>
0

>  <NaasN>
0

>  <NssssN>
0

>  <NsOH>
2

>  <NdO>
3

>  <NssO>
0

>  <NaaO>
0

>  <NsF>
0

>  <NsSiH3>
0

>  <NssSiH2>
0

>  <NsssSiH>
0

>  <NssssSi>
0

>  <NsPH2>
0

>  <NssPH>
0

>  <NsssP>
0

>  <NdsssP>
0

>  <NsssssP>
0

>  <NsSH>
0

>  <NdS>
0

>  <NssS>
0

>  <NaaS>
0

>  <NdssS>
0

>  <NddssS>
0

>  <NsCl>
0

>  <NsBr>
0

>  <NsI>
0

>  <fragCpx>
191.05

>  <fMF>
0.31

>  <nHBAcc>
5

>  <nHBDon>
2

>  <Kier1>
19.32

>  <Kier2>
6.81

>  <Lipinski>
1

>  <GhoseFilter>
1

>  <FilterItLogS>
-2.55

>  <VMcGowan>
275.46

>  <LabuteASA>
153.4

>  <PEOE_VSA1>
15.01

>  <PEOE_VSA2>
9.59

>  <PEOE_VSA3>
0

>  <PEOE_VSA4>
0

>  <PEOE_VSA5>
0

>  <PEOE_VSA6>
12.5

>  <PEOE_VSA7>
67.77

>  <PEOE_VSA8>
17.75

>  <PEOE_VSA9>
6.1

>  <PEOE_VSA10>
12.89

>  <PEOE_VSA11>
11.57

>  <PEOE_VSA12>
0

>  <PEOE_VSA13>
0

>  <SMR_VSA1>
24.6

>  <SMR_VSA2>
0

>  <SMR_VSA3>
0

>  <SMR_VSA4>
34.5

>  <SMR_VSA5>
57.97

>  <SMR_VSA6>
6.61

>  <SMR_VSA7>
11.65

>  <SMR_VSA8>
0

>  <SMR_VSA9>
0

>  <SlogP_VSA1>
0

>  <SlogP_VSA2>
40.78

>  <SlogP_VSA3>
14.38

>  <SlogP_VSA4>
34.5

>  <SlogP_VSA5>
51.87

>  <SlogP_VSA6>
11.65

>  <SlogP_VSA7>
0

>  <SlogP_VSA8>
0

>  <SlogP_VSA9>
0

>  <SlogP_VSA10>
0

>  <SlogP_VSA11>
0

>  <EState_VSA1>
24.04

>  <EState_VSA2>
34.74

>  <EState_VSA3>
19.26

>  <EState_VSA4>
37.54

>  <EState_VSA5>
0

>  <EState_VSA6>
6.08

>  <EState_VSA7>
0

>  <EState_VSA8>
6.92

>  <EState_VSA9>
0

>  <EState_VSA10>
24.6

>  <VSA_EState1>
0

>  <VSA_EState2>
36.39

>  <VSA_EState3>
20.49

>  <VSA_EState4>
0.14

>  <VSA_EState5>
-0.24

>  <VSA_EState6>
0

>  <VSA_EState7>
6.75

>  <VSA_EState8>
1.63

>  <VSA_EState9>
0

>  <apol>
57.75

>  <bpol>
30.69

>  <nRing>
4

>  <nHRing>
0

>  <naRing>
0

>  <naHRing>
0

>  <nARing 2>
4

>  <nAHRing 2>
0

>  <nFRing>
1

>  <nFHRing>
0

>  <nFaRing>
0

>  <nFaHRing>
0

>  <nFARing 2>
1

>  <nFAHRing 2>
0

>  <nRot>
3

>  <SLogP>
1.85

>  <SMR>
94.07

>  <TopoPSA(NO)>
91.67

>  <TopoPSA>
91.67

>  <JGI1>
0.26

>  <JGI2>
0.12

>  <JGI3>
0.07

>  <JGI4>
0.06

>  <JGI5>
0.03

>  <Diameter>
12

>  <Radius>
6

>  <TMWC10>
134.63

>  <TSRW10>
76.64

>  <MW>
360.19

>  <AMW>
6.67

>  <WPath>
1436

>  <WPol>
56

>  <Zagreb1>
150

>  <Zagreb2>
191

>  <mZagreb2>
5.65

>  <yes>


>  <nAR-cont>
0.199399

>  <nHA-cont>
0.892715677

>  <MWHBN>
0.368835075

>  <MWHBN-cont>
0.598386909

>  <TPSA-cont>
0.360086476

>  <pka_cont>
0.97

>  <yes.1>


>  <BBB_SCORE>
3.194867994

>  <MMFF94 Energy>
84.283

$$$$
Compound 1610
Actelion Java MolfileCreator 2.0

  0  0  0  0  0  0              0 V3000
M  V30 BEGIN CTAB
M  V30 COUNTS 46 49 0 0 0
M  V30 BEGIN ATOM
M  V30 1 O -1.7697 5.1548 2.8971 0
M  V30 2 C -1.4384 4.0087 2.606 0
M  V30 3 C -2.1855 3.2736 1.5597 0
M  V30 4 C -0.3559 3.2649 3.3433 0
M  V30 5 C -1.799 2.0498 1.1596 0
M  V30 6 C 0.4014 2.3563 2.3893 0
M  V30 7 C -0.5211 1.3713 1.6391 0 CFG=2
M  V30 8 C -2.6714 1.2527 0.2214 0
M  V30 9 C 0.242 0.7066 0.4525 0 CFG=2
M  V30 10 C -1.8785 0.637 -0.9259 0
M  V30 11 C -0.7075 -0.1957 -0.3901 0 CFG=1
M  V30 12 C 1.5089 -0.058 0.9164 0
M  V30 13 C 0.0996 -0.8407 -1.518 0 CFG=1
M  V30 14 C 2.2211 -0.82 -0.2156 0
M  V30 15 C 1.251 -1.7206 -0.9908 0 CFG=2
M  V30 16 C -0.6107 -1.746 -2.5213 0
M  V30 17 C 1.794 -2.2474 -2.3348 0 CFG=2
M  V30 18 C 0.803 -2.894 -0.0832 0
M  V30 19 C 0.527 -2.5701 -3.1524 0
M  V30 20 O 2.6553 -3.3625 -2.2121 0
M  V30 21 H -3.0886 3.7569 1.2037 0
M  V30 22 H -0.8159 2.6931 4.1565 0
M  V30 23 H 0.3361 3.9929 3.7803 0
M  V30 24 H 0.9426 2.9795 1.6644 0
M  V30 25 H 1.1559 1.8042 2.9614 0
M  V30 26 H -0.823 0.5828 2.3431 0
M  V30 27 H -3.1555 0.4529 0.7966 0
M  V30 28 H -3.477 1.8698 -0.195 0
M  V30 29 H 0.5924 1.5147 -0.2087 0
M  V30 30 H -1.5092 1.4284 -1.5908 0
M  V30 31 H -2.5516 0.0084 -1.5203 0
M  V30 32 H -1.1276 -0.9772 0.2552 0
M  V30 33 H 2.2331 0.6447 1.3442 0
M  V30 34 H 1.244 -0.7526 1.7221 0
M  V30 35 H 0.5331 -0.0157 -2.1085 0
M  V30 36 H 2.6749 -0.086 -0.8943 0
M  V30 37 H 3.0487 -1.408 0.1991 0
M  V30 38 H -1.3314 -2.4063 -2.0261 0
M  V30 39 H -1.1533 -1.1722 -3.2795 0
M  V30 40 H 2.3579 -1.4597 -2.8503 0
M  V30 41 H 1.6713 -3.4684 0.2601 0
M  V30 42 H 0.1387 -3.5928 -0.6012 0
M  V30 43 H 0.2736 -2.5587 0.8125 0
M  V30 44 H 0.6764 -2.2891 -4.2011 0
M  V30 45 H 0.284 -3.6384 -3.1423 0
M  V30 46 H 2.127 -4.1374 -1.9577 0
M  V30 END ATOM
M  V30 BEGIN BOND
M  V30 1 2 1 2
M  V30 2 1 2 3
M  V30 3 1 2 4
M  V30 4 2 3 5
M  V30 5 1 4 6
M  V30 6 1 5 7
M  V30 7 1 5 8
M  V30 8 1 7 9
M  V30 9 1 8 10
M  V30 10 1 9 11
M  V30 11 1 9 12
M  V30 12 1 11 13
M  V30 13 1 12 14
M  V30 14 1 13 15
M  V30 15 1 13 16
M  V30 16 1 15 17
M  V30 17 1 15 18
M  V30 18 1 16 19
M  V30 19 1 17 20
M  V30 20 1 6 7
M  V30 21 1 10 11
M  V30 22 1 14 15
M  V30 23 1 17 19
M  V30 24 1 3 21
M  V30 25 1 4 22
M  V30 26 1 4 23
M  V30 27 1 6 24
M  V30 28 1 6 25
M  V30 29 1 7 26
M  V30 30 1 8 27
M  V30 31 1 8 28
M  V30 32 1 9 29
M  V30 33 1 10 30
M  V30 34 1 10 31
M  V30 35 1 11 32
M  V30 36 1 12 33
M  V30 37 1 12 34
M  V30 38 1 13 35
M  V30 39 1 14 36
M  V30 40 1 14 37
M  V30 41 1 16 38
M  V30 42 1 16 39
M  V30 43 1 17 40
M  V30 44 1 18 41
M  V30 45 1 18 42
M  V30 46 1 18 43
M  V30 47 1 19 44
M  V30 48 1 19 45
M  V30 49 1 20 46
M  V30 END BOND
M  V30 BEGIN COLLECTION
M  V30 MDLV30/STEABS ATOMS=(6 7 9 11 13 15 17)
M  V30 END COLLECTION
M  V30 END CTAB
M  END
>  <Column 1>
1957

>  <level_0>
2127

>  <index>
2127

>  <Unnamed: 0>
2127

>  <NO.>
2139

>  <Name>
nandrolone

>  <IUPAC_name>
(8r-9s-10r-13s-14s-17s)-17-hydroxy-13-methyl-2-6-7-8-9-10-11-12-14-15-16-17-dodecahydro-1h-cyclopenta[a]phenanthren-3-one

>  <SMILES>
C[C@]12CC[C@@H]3[C@H]4CCC(=O)C=C4CC[C@H]3[C@@H]1CC[C@@H]2O

>  <CID>
9904

>  <logBB>


>  <BBB+/BBB->
BBB-

>  <Inchi>
InChI=1S/C18H26O2/c1-18-9-8-14-13-5-3-12(19)10-11(13)2-4-15(14)16(18)6-7-17(18)20/h10-13-17-20H-2-9H2-1H3/t13--14+-15+-16--17--18-/m0/s1

>  <threshold>
-1

>  <reference>
R1|R27|R30|

>  <group>
B

>  <Class>
-1

>  <ABC>
16.36

>  <ABCGG>
12.98

>  <nAcid>
0

>  <nBase>
0

>  <nAromAtom>
0

>  <nAromBond>
0

>  <nAtom>
46

>  <nHeavyAtom>
20

>  <nSpiro>
0

>  <nBridgehead>
0

>  <nHetero>
2

>  <nN>
0

>  <nO>
2

>  <nF>
0

>  <BalabanJ>
1.57

>  <BertzCT>
466.04

>  <nBonds>
49

>  <nBondsO>
23

>  <nBondsS>
47

>  <nBondsD>
2

>  <nBondsT>
0

>  <nBondsA>
0

>  <nBondsM>
2

>  <nBondsKS>
47

>  <nBondsKD>
2

>  <RNCG>
0.32

>  <RPCG>
0.17

>  <FCSP3>
0.83

>  <SZ>
25

>  <Sm>
22.85

>  <Sv>
26.47

>  <Sse>
45.2

>  <Sp>
29.34

>  <Si>
51.82

>  <MZ>
0.54

>  <Mm>
0.5

>  <Mv>
0.58

>  <Mse>
0.98

>  <Mp>
0.64

>  <Mi>
1.13

>  <NsCH3>
1

>  <NdCH2>
0

>  <NssCH2>
8

>  <NtCH>
0

>  <NdsCH>
1

>  <NaaCH>
0

>  <NsssCH>
5

>  <NddC>
0

>  <NtsC>
0

>  <NdssC>
2

>  <NaasC>
0

>  <NaaaC>
0

>  <NssssC>
1

>  <NsNH3>
0

>  <NsNH2>
0

>  <NssNH2>
0

>  <NdNH>
0

>  <NssNH>
0

>  <NaaNH>
0

>  <NtN>
0

>  <NsssNH>
0

>  <NdsN>
0

>  <NaaN>
0

>  <NsssN>
0

>  <NddsN>
0

>  <NaasN>
0

>  <NssssN>
0

>  <NsOH>
1

>  <NdO>
1

>  <NssO>
0

>  <NaaO>
0

>  <NsF>
0

>  <NsSiH3>
0

>  <NssSiH2>
0

>  <NsssSiH>
0

>  <NssssSi>
0

>  <NsPH2>
0

>  <NssPH>
0

>  <NsssP>
0

>  <NdsssP>
0

>  <NsssssP>
0

>  <NsSH>
0

>  <NdS>
0

>  <NssS>
0

>  <NaaS>
0

>  <NdssS>
0

>  <NddssS>
0

>  <NsCl>
0

>  <NsBr>
0

>  <NsI>
0

>  <fragCpx>
149.02

>  <fMF>
0.37

>  <nHBAcc>
2

>  <nHBDon>
1

>  <Kier1>
13.65

>  <Kier2>
4.75

>  <Lipinski>
1

>  <GhoseFilter>
1

>  <FilterItLogS>
-2.88

>  <VMcGowan>
224.18

>  <LabuteASA>
121.19

>  <PEOE_VSA1>
5.11

>  <PEOE_VSA2>
4.79

>  <PEOE_VSA3>
0

>  <PEOE_VSA4>
0

>  <PEOE_VSA5>
0

>  <PEOE_VSA6>
12.5

>  <PEOE_VSA7>
80.11

>  <PEOE_VSA8>
6.42

>  <PEOE_VSA9>
6.1

>  <PEOE_VSA10>
0

>  <PEOE_VSA11>
5.78

>  <PEOE_VSA12>
0

>  <PEOE_VSA13>
0

>  <SMR_VSA1>
9.9

>  <SMR_VSA2>
0

>  <SMR_VSA3>
0

>  <SMR_VSA4>
29.09

>  <SMR_VSA5>
64.39

>  <SMR_VSA6>
0

>  <SMR_VSA7>
11.65

>  <SMR_VSA8>
0

>  <SMR_VSA9>
0

>  <SlogP_VSA1>
0

>  <SlogP_VSA2>
16.99

>  <SlogP_VSA3>
4.79

>  <SlogP_VSA4>
29.09

>  <SlogP_VSA5>
58.29

>  <SlogP_VSA6>
11.65

>  <SlogP_VSA7>
0

>  <SlogP_VSA8>
0

>  <SlogP_VSA9>
0

>  <SlogP_VSA10>
0

>  <SlogP_VSA11>
0

>  <EState_VSA1>
0

>  <EState_VSA2>
11.52

>  <EState_VSA3>
11.7

>  <EState_VSA4>
43.44

>  <EState_VSA5>
31.26

>  <EState_VSA6>
0

>  <EState_VSA7>
6.08

>  <EState_VSA8>
6.92

>  <EState_VSA9>
0

>  <EState_VSA10>
9.9

>  <VSA_EState1>
0

>  <VSA_EState2>
11.65

>  <VSA_EState3>
10.39

>  <VSA_EState4>
1.65

>  <VSA_EState5>
3.38

>  <VSA_EState6>
0

>  <VSA_EState7>
10.86

>  <VSA_EState8>
2.33

>  <VSA_EState9>
0

>  <apol>
49

>  <bpol>
26.95

>  <nRing>
4

>  <nHRing>
0

>  <naRing>
0

>  <naHRing>
0

>  <nARing 2>
4

>  <nAHRing 2>
0

>  <nFRing>
1

>  <nFHRing>
0

>  <nFaRing>
0

>  <nFaHRing>
0

>  <nFARing 2>
1

>  <nFAHRing 2>
0

>  <nRot>
0

>  <SLogP>
3.49

>  <SMR>
78.1

>  <TopoPSA(NO)>
37.3

>  <TopoPSA>
37.3

>  <JGI1>
0.22

>  <JGI2>
0.11

>  <JGI3>
0.06

>  <JGI4>
0.06

>  <JGI5>
0.03

>  <Diameter>
10

>  <Radius>
5

>  <TMWC10>
119.61

>  <TSRW10>
69.21

>  <MW>
274.19

>  <AMW>
5.96

>  <WPath>
724

>  <WPol>
39

>  <Zagreb1>
118

>  <Zagreb2>
148

>  <mZagreb2>
4.15

>  <yes>


>  <nAR-cont>
0.199399

>  <nHA-cont>
0.999629945

>  <MWHBN>
0.181173823

>  <MWHBN-cont>
0.98839921

>  <TPSA-cont>
0.739622838

>  <pka_cont>
0.97

>  <yes.1>


>  <BBB_SCORE>
4.645873437

>  <MMFF94 Energy>
61.229

$$$$
Compound 1611
Actelion Java MolfileCreator 2.0

  0  0  0  0  0  0              0 V3000
M  V30 BEGIN CTAB
M  V30 COUNTS 42 45 0 0 0
M  V30 BEGIN ATOM
M  V30 1 O 0.5633 4.5136 1.6907 0
M  V30 2 C -0.0652 3.4638 1.6801 0
M  V30 3 C 0.0296 2.4107 0.591 0 CFG=2
M  V30 4 C -1.0695 3.0651 2.7485 0
M  V30 5 C -0.4003 1.1875 1.4278 0 CFG=1
M  V30 6 C 1.4191 2.1278 0.0306 0
M  V30 7 C -0.9407 2.8439 -0.5234 0
M  V30 8 C -1.5716 1.6982 2.2591 0
M  V30 9 C -0.5655 -0.0523 0.5507 0 CFG=1
M  V30 10 C 1.4318 0.8345 -0.8073 0
M  V30 11 C 0.8211 -0.3942 -0.0787 0 CFG=2
M  V30 12 C -1.0705 -1.268 1.3294 0
M  V30 13 C 0.7483 -1.671 -0.9122 0
M  V30 14 C -1.3376 -2.4243 0.3699 0
M  V30 15 C -0.2511 -2.6357 -0.6565 0
M  V30 16 C 1.7189 -1.9599 -1.8893 0
M  V30 17 C -0.2854 -3.8228 -1.4085 0
M  V30 18 C 1.68 -3.1474 -2.6253 0
M  V30 19 C 0.6733 -4.0683 -2.3806 0
M  V30 20 O 0.5924 -5.2381 -3.0754 0
M  V30 21 H -0.5488 2.9732 3.7059 0
M  V30 22 H -1.8819 3.792 2.8145 0
M  V30 23 H 0.3979 0.9583 2.155 0
M  V30 24 H 2.1439 2.0324 0.8498 0
M  V30 25 H 1.7692 2.9672 -0.5824 0
M  V30 26 H -1.0697 2.0805 -1.2949 0
M  V30 27 H -1.9351 3.094 -0.1386 0
M  V30 28 H -0.5667 3.7476 -1.0201 0
M  V30 29 H -2.4804 1.8043 1.6569 0
M  V30 30 H -1.8065 1.0429 3.1036 0
M  V30 31 H -1.2918 0.1549 -0.2457 0
M  V30 32 H 0.9004 1.0027 -1.7521 0
M  V30 33 H 2.4757 0.6348 -1.0751 0
M  V30 34 H 1.5097 -0.6338 0.7466 0
M  V30 35 H -1.9955 -1.038 1.8695 0
M  V30 36 H -0.3285 -1.569 2.0801 0
M  V30 37 H -1.4782 -3.3405 0.9562 0
M  V30 38 H -2.2745 -2.2312 -0.1683 0
M  V30 39 H 2.5316 -1.2682 -2.0932 0
M  V30 40 H -1.0635 -4.5622 -1.2343 0
M  V30 41 H 2.4429 -3.3314 -3.3746 0
M  V30 42 H 1.3227 -5.2675 -3.7146 0
M  V30 END ATOM
M  V30 BEGIN BOND
M  V30 1 2 1 2
M  V30 2 1 2 3
M  V30 3 1 2 4
M  V30 4 1 3 5
M  V30 5 1 3 6
M  V30 6 1 3 7
M  V30 7 1 4 8
M  V30 8 1 5 9
M  V30 9 1 6 10
M  V30 10 1 9 11
M  V30 11 1 9 12
M  V30 12 1 11 13
M  V30 13 1 12 14
M  V30 14 2 13 15
M  V30 15 1 13 16
M  V30 16 1 15 17
M  V30 17 2 16 18
M  V30 18 2 17 19
M  V30 19 1 19 20
M  V30 20 1 5 8
M  V30 21 1 10 11
M  V30 22 1 14 15
M  V30 23 1 18 19
M  V30 24 1 4 21
M  V30 25 1 4 22
M  V30 26 1 5 23
M  V30 27 1 6 24
M  V30 28 1 6 25
M  V30 29 1 7 26
M  V30 30 1 7 27
M  V30 31 1 7 28
M  V30 32 1 8 29
M  V30 33 1 8 30
M  V30 34 1 9 31
M  V30 35 1 10 32
M  V30 36 1 10 33
M  V30 37 1 11 34
M  V30 38 1 12 35
M  V30 39 1 12 36
M  V30 40 1 14 37
M  V30 41 1 14 38
M  V30 42 1 16 39
M  V30 43 1 17 40
M  V30 44 1 18 41
M  V30 45 1 20 42
M  V30 END BOND
M  V30 BEGIN COLLECTION
M  V30 MDLV30/STEABS ATOMS=(4 3 5 9 11)
M  V30 END COLLECTION
M  V30 END CTAB
M  END
>  <Column 1>
1958

>  <level_0>
2128

>  <index>
2128

>  <Unnamed: 0>
2128

>  <NO.>
2140

>  <Name>
estrone

>  <IUPAC_name>
(8r-9s-13s-14s)-3-hydroxy-13-methyl-7-8-9-11-12-14-15-16-octahydro-6h-cyclopenta[a]phenanthren-17-one

>  <SMILES>
C[C@]12CC[C@@H]3c4ccc(O)cc4CC[C@H]3[C@@H]1CCC2=O

>  <CID>
5870

>  <logBB>


>  <BBB+/BBB->
BBB-

>  <Inchi>
InChI=1S/C18H22O2/c1-18-9-8-14-13-5-3-12(19)10-11(13)2-4-15(14)16(18)6-7-17(18)20/h3-5-10-14-16-19H-2-4-6-9H2-1H3/t14--15--16+-18+/m1/s1

>  <threshold>
-1

>  <reference>
R1|R27|R30|

>  <group>
B

>  <Class>
-1

>  <ABC>
16.36

>  <ABCGG>
12.98

>  <nAcid>
0

>  <nBase>
0

>  <nAromAtom>
6

>  <nAromBond>
6

>  <nAtom>
42

>  <nHeavyAtom>
20

>  <nSpiro>
0

>  <nBridgehead>
0

>  <nHetero>
2

>  <nN>
0

>  <nO>
2

>  <nF>
0

>  <BalabanJ>
1.57

>  <BertzCT>
576.78

>  <nBonds>
45

>  <nBondsO>
23

>  <nBondsS>
38

>  <nBondsD>
1

>  <nBondsT>
0

>  <nBondsA>
6

>  <nBondsM>
7

>  <nBondsKS>
41

>  <nBondsKD>
4

>  <RNCG>
0.39

>  <RPCG>
0.23

>  <FCSP3>
0.61

>  <SZ>
24.33

>  <Sm>
22.51

>  <Sv>
25.39

>  <Sse>
41.43

>  <Sp>
27.74

>  <Si>
46.99

>  <MZ>
0.58

>  <Mm>
0.54

>  <Mv>
0.6

>  <Mse>
0.99

>  <Mp>
0.66

>  <Mi>
1.12

>  <NsCH3>
1

>  <NdCH2>
0

>  <NssCH2>
6

>  <NtCH>
0

>  <NdsCH>
0

>  <NaaCH>
3

>  <NsssCH>
3

>  <NddC>
0

>  <NtsC>
0

>  <NdssC>
1

>  <NaasC>
3

>  <NaaaC>
0

>  <NssssC>
1

>  <NsNH3>
0

>  <NsNH2>
0

>  <NssNH2>
0

>  <NdNH>
0

>  <NssNH>
0

>  <NaaNH>
0

>  <NtN>
0

>  <NsssNH>
0

>  <NdsN>
0

>  <NaaN>
0

>  <NsssN>
0

>  <NddsN>
0

>  <NaasN>
0

>  <NssssN>
0

>  <NsOH>
1

>  <NdO>
1

>  <NssO>
0

>  <NaaO>
0

>  <NsF>
0

>  <NsSiH3>
0

>  <NssSiH2>
0

>  <NsssSiH>
0

>  <NssssSi>
0

>  <NsPH2>
0

>  <NssPH>
0

>  <NsssP>
0

>  <NdsssP>
0

>  <NsssssP>
0

>  <NsSH>
0

>  <NdS>
0

>  <NssS>
0

>  <NaaS>
0

>  <NdssS>
0

>  <NddssS>
0

>  <NsCl>
0

>  <NsBr>
0

>  <NsI>
0

>  <fragCpx>
149.02

>  <fMF>
0.4

>  <nHBAcc>
2

>  <nHBDon>
1

>  <Kier1>
13.65

>  <Kier2>
4.75

>  <Lipinski>
1

>  <GhoseFilter>
1

>  <FilterItLogS>
-3.99

>  <VMcGowan>
215.58

>  <LabuteASA>
119.75

>  <PEOE_VSA1>
5.11

>  <PEOE_VSA2>
4.79

>  <PEOE_VSA3>
0

>  <PEOE_VSA4>
0

>  <PEOE_VSA5>
0

>  <PEOE_VSA6>
12.99

>  <PEOE_VSA7>
73.12

>  <PEOE_VSA8>
11.84

>  <PEOE_VSA9>
0

>  <PEOE_VSA10>
11.53

>  <PEOE_VSA11>
0

>  <PEOE_VSA12>
0

>  <PEOE_VSA13>
0

>  <SMR_VSA1>
9.9

>  <SMR_VSA2>
0

>  <SMR_VSA3>
0

>  <SMR_VSA4>
17.25

>  <SMR_VSA5>
51.37

>  <SMR_VSA6>
0

>  <SMR_VSA7>
29.33

>  <SMR_VSA8>
0

>  <SMR_VSA9>
5.75

>  <SlogP_VSA1>
0

>  <SlogP_VSA2>
10.89

>  <SlogP_VSA3>
11.22

>  <SlogP_VSA4>
17.25

>  <SlogP_VSA5>
56.07

>  <SlogP_VSA6>
18.2

>  <SlogP_VSA7>
0

>  <SlogP_VSA8>
0

>  <SlogP_VSA9>
0

>  <SlogP_VSA10>
0

>  <SlogP_VSA11>
5.75

>  <EState_VSA1>
0

>  <EState_VSA2>
5.41

>  <EState_VSA3>
29.29

>  <EState_VSA4>
32.1

>  <EState_VSA5>
17.55

>  <EState_VSA6>
0

>  <EState_VSA7>
12.13

>  <EState_VSA8>
12.99

>  <EState_VSA9>
0

>  <EState_VSA10>
9.9

>  <VSA_EState1>
0

>  <VSA_EState2>
12.26

>  <VSA_EState3>
9.67

>  <VSA_EState4>
2.75

>  <VSA_EState5>
2.78

>  <VSA_EState6>
5.9

>  <VSA_EState7>
6.34

>  <VSA_EState8>
2.22

>  <VSA_EState9>
0

>  <apol>
46.33

>  <bpol>
22.94

>  <nRing>
4

>  <nHRing>
0

>  <naRing>
1

>  <naHRing>
0

>  <nARing 2>
3

>  <nAHRing 2>
0

>  <nFRing>
1

>  <nFHRing>
0

>  <nFaRing>
0

>  <nFaHRing>
0

>  <nFARing 2>
1

>  <nFAHRing 2>
0

>  <nRot>
0

>  <SLogP>
3.82

>  <SMR>
77.73

>  <TopoPSA(NO)>
37.3

>  <TopoPSA>
37.3

>  <JGI1>
0.22

>  <JGI2>
0.11

>  <JGI3>
0.06

>  <JGI4>
0.06

>  <JGI5>
0.03

>  <Diameter>
10

>  <Radius>
5

>  <TMWC10>
119.61

>  <TSRW10>
69.21

>  <MW>
270.16

>  <AMW>
6.43

>  <WPath>
724

>  <WPol>
39

>  <Zagreb1>
118

>  <Zagreb2>
148

>  <mZagreb2>
4.15

>  <yes>


>  <nAR-cont>
0.691115

>  <nHA-cont>
0.999629945

>  <MWHBN>
0.182520114

>  <MWHBN-cont>
0.989736442

>  <TPSA-cont>
0.739622838

>  <pka_cont>
0.97

>  <yes.1>


>  <BBB_SCORE>
5.139595284

>  <MMFF94 Energy>
51.001

$$$$
Compound 1612
Actelion Java MolfileCreator 2.0

  0  0  0  0  0  0              0 V3000
M  V30 BEGIN CTAB
M  V30 COUNTS 46 49 0 0 0
M  V30 BEGIN ATOM
M  V30 1 O 4.7713 -2.8283 2.1004 0
M  V30 2 C 3.9664 -2.2219 1.4055 0
M  V30 3 C 2.665 -2.8154 1.0396 0
M  V30 4 C 4.251 -0.8643 0.907 0
M  V30 5 C 1.7801 -2.1646 0.2634 0
M  V30 6 C 3.3713 -0.216 0.1321 0
M  V30 7 C 2.0248 -0.7707 -0.3232 0 CFG=2
M  V30 8 C 0.4366 -2.776 -0.027 0
M  V30 9 C 0.8528 0.1661 0.1587 0 CFG=2
M  V30 10 C 2.1027 -0.8744 -1.8628 0
M  V30 11 C -0.6804 -1.8562 0.4533 0
M  V30 12 C -0.566 -0.4332 -0.1272 0 CFG=1
M  V30 13 C 0.9464 1.611 -0.3835 0
M  V30 14 C -1.6667 0.5091 0.4346 0 CFG=1
M  V30 15 C -0.1843 2.4998 0.1305 0
M  V30 16 C -1.578 1.9263 -0.1671 0 CFG=2
M  V30 17 C -3.0973 -6.0E-4 0.269 0
M  V30 18 O -2.5286 2.8063 0.4788 0
M  V30 19 C -1.8636 2.0084 -1.6802 0
M  V30 20 C -4.0788 0.9693 0.9058 0
M  V30 21 C -3.8167 2.4333 0.6594 0
M  V30 22 O -4.7124 3.2676 0.7447 0
M  V30 23 H 2.4728 -3.7974 1.4567 0
M  V30 24 H 5.2047 -0.4366 1.1913 0
M  V30 25 H 3.6577 0.7699 -0.2265 0
M  V30 26 H 0.3268 -3.751 0.4632 0
M  V30 27 H 0.3363 -2.9632 -1.1021 0
M  V30 28 H 0.942 0.2451 1.2548 0
M  V30 29 H 1.1484 -1.162 -2.3144 0
M  V30 30 H 2.4024 0.0747 -2.3217 0
M  V30 31 H 2.8432 -1.6234 -2.1718 0
M  V30 32 H -0.6725 -1.8097 1.5502 0
M  V30 33 H -1.6321 -2.3118 0.1598 0
M  V30 34 H -0.7048 -0.5168 -1.2115 0
M  V30 35 H 0.9376 1.6109 -1.4782 0
M  V30 36 H 1.8902 2.0747 -0.079 0
M  V30 37 H -1.4998 0.5948 1.5199 0
M  V30 38 H -0.0883 3.5061 -0.2973 0
M  V30 39 H -0.0717 2.6401 1.2144 0
M  V30 40 H -3.231 -0.9741 0.7518 0
M  V30 41 H -3.3382 -0.1459 -0.7897 0
M  V30 42 H -1.2077 1.3693 -2.276 0
M  V30 43 H -1.739 3.0393 -2.0335 0
M  V30 44 H -2.8995 1.7442 -1.9155 0
M  V30 45 H -4.0716 0.8305 1.9937 0
M  V30 46 H -5.0877 0.7359 0.5475 0
M  V30 END ATOM
M  V30 BEGIN BOND
M  V30 1 2 1 2
M  V30 2 1 2 3
M  V30 3 1 2 4
M  V30 4 2 3 5
M  V30 5 2 4 6
M  V30 6 1 5 7
M  V30 7 1 5 8
M  V30 8 1 7 9
M  V30 9 1 7 10
M  V30 10 1 8 11
M  V30 11 1 9 12
M  V30 12 1 9 13
M  V30 13 1 12 14
M  V30 14 1 13 15
M  V30 15 1 14 16
M  V30 16 1 14 17
M  V30 17 1 16 18
M  V30 18 1 16 19
M  V30 19 1 17 20
M  V30 20 1 18 21
M  V30 21 2 21 22
M  V30 22 1 6 7
M  V30 23 1 11 12
M  V30 24 1 15 16
M  V30 25 1 20 21
M  V30 26 1 3 23
M  V30 27 1 4 24
M  V30 28 1 6 25
M  V30 29 1 8 26
M  V30 30 1 8 27
M  V30 31 1 9 28
M  V30 32 1 10 29
M  V30 33 1 10 30
M  V30 34 1 10 31
M  V30 35 1 11 32
M  V30 36 1 11 33
M  V30 37 1 12 34
M  V30 38 1 13 35
M  V30 39 1 13 36
M  V30 40 1 14 37
M  V30 41 1 15 38
M  V30 42 1 15 39
M  V30 43 1 17 40
M  V30 44 1 17 41
M  V30 45 1 19 42
M  V30 46 1 19 43
M  V30 47 1 19 44
M  V30 48 1 20 45
M  V30 49 1 20 46
M  V30 END BOND
M  V30 BEGIN COLLECTION
M  V30 MDLV30/STEABS ATOMS=(5 7 9 12 14 16)
M  V30 END COLLECTION
M  V30 END CTAB
M  END
>  <Column 1>
1959

>  <level_0>
2129

>  <index>
2129

>  <Unnamed: 0>
2129

>  <NO.>
2141

>  <Name>
testolactone

>  <IUPAC_name>
(4as-4br-10ar-10bs-12as)-10a-12a-dimethyl-4-4a-4b-5-6-10b-11-12-octahydro-3h-naphtho[2-1-f]chromene-2-8-dione

>  <SMILES>
C[C@]12CC[C@H]3[C@@H](CCC4=CC(=O)C=C[C@@]43C)[C@@H]1CCC(=O)O2

>  <CID>
13769

>  <logBB>


>  <BBB+/BBB->
BBB-

>  <Inchi>
InChI=1S/C19H24O3/c1-18-9-7-13(20)11-12(18)3-4-14-15(18)8-10-19(2)16(14)5-6-17(21)22-19/h7-9-11-14-16H-3-6-8-10H2-1-2H3/t14--15+-16+-18+-19+/m1/s1

>  <threshold>
-1

>  <reference>
R1|R27|R30|

>  <group>
B

>  <Class>
-1

>  <ABC>
17.95

>  <ABCGG>
13.67

>  <nAcid>
0

>  <nBase>
0

>  <nAromAtom>
0

>  <nAromBond>
0

>  <nAtom>
46

>  <nHeavyAtom>
22

>  <nSpiro>
0

>  <nBridgehead>
0

>  <nHetero>
3

>  <nN>
0

>  <nO>
3

>  <nF>
0

>  <BalabanJ>
1.6

>  <BertzCT>
601.8

>  <nBonds>
49

>  <nBondsO>
25

>  <nBondsS>
45

>  <nBondsD>
4

>  <nBondsT>
0

>  <nBondsA>
0

>  <nBondsM>
4

>  <nBondsKS>
45

>  <nBondsKD>
4

>  <RNCG>
0.31

>  <RPCG>
0.21

>  <FCSP3>
0.68

>  <SZ>
27

>  <Sm>
25.01

>  <Sv>
27.65

>  <Sse>
45.65

>  <Sp>
30.02

>  <Si>
51.61

>  <MZ>
0.59

>  <Mm>
0.54

>  <Mv>
0.6

>  <Mse>
0.99

>  <Mp>
0.65

>  <Mi>
1.12

>  <NsCH3>
2

>  <NdCH2>
0

>  <NssCH2>
6

>  <NtCH>
0

>  <NdsCH>
3

>  <NaaCH>
0

>  <NsssCH>
3

>  <NddC>
0

>  <NtsC>
0

>  <NdssC>
3

>  <NaasC>
0

>  <NaaaC>
0

>  <NssssC>
2

>  <NsNH3>
0

>  <NsNH2>
0

>  <NssNH2>
0

>  <NdNH>
0

>  <NssNH>
0

>  <NaaNH>
0

>  <NtN>
0

>  <NsssNH>
0

>  <NdsN>
0

>  <NaaN>
0

>  <NsssN>
0

>  <NddsN>
0

>  <NaasN>
0

>  <NssssN>
0

>  <NsOH>
0

>  <NdO>
2

>  <NssO>
1

>  <NaaO>
0

>  <NsF>
0

>  <NsSiH3>
0

>  <NssSiH2>
0

>  <NsssSiH>
0

>  <NssssSi>
0

>  <NsPH2>
0

>  <NssPH>
0

>  <NsssP>
0

>  <NdsssP>
0

>  <NsssssP>
0

>  <NsSH>
0

>  <NdS>
0

>  <NssS>
0

>  <NaaS>
0

>  <NdssS>
0

>  <NddssS>
0

>  <NsCl>
0

>  <NsBr>
0

>  <NsI>
0

>  <fragCpx>
163.03

>  <fMF>
0.39

>  <nHBAcc>
3

>  <nHBDon>
0

>  <Kier1>
15.52

>  <Kier2>
5.25

>  <Lipinski>
1

>  <GhoseFilter>
1

>  <FilterItLogS>
-3.45

>  <VMcGowan>
235.54

>  <LabuteASA>
131.34

>  <PEOE_VSA1>
4.74

>  <PEOE_VSA2>
9.59

>  <PEOE_VSA3>
0

>  <PEOE_VSA4>
0

>  <PEOE_VSA5>
0

>  <PEOE_VSA6>
18.57

>  <PEOE_VSA7>
63.02

>  <PEOE_VSA8>
17.75

>  <PEOE_VSA9>
0

>  <PEOE_VSA10>
5.6

>  <PEOE_VSA11>
5.78

>  <PEOE_VSA12>
0

>  <PEOE_VSA13>
0

>  <SMR_VSA1>
14.33

>  <SMR_VSA2>
0

>  <SMR_VSA3>
0

>  <SMR_VSA4>
23.17

>  <SMR_VSA5>
57.97

>  <SMR_VSA6>
0

>  <SMR_VSA7>
23.8

>  <SMR_VSA8>
0

>  <SMR_VSA9>
0

>  <SlogP_VSA1>
0

>  <SlogP_VSA2>
17.35

>  <SlogP_VSA3>
14.33

>  <SlogP_VSA4>
23.17

>  <SlogP_VSA5>
52.37

>  <SlogP_VSA6>
23.8

>  <SlogP_VSA7>
0

>  <SlogP_VSA8>
0

>  <SlogP_VSA9>
0

>  <SlogP_VSA10>
0

>  <SlogP_VSA11>
0

>  <EState_VSA1>
0

>  <EState_VSA2>
22.77

>  <EState_VSA3>
24.17

>  <EState_VSA4>
32.1

>  <EState_VSA5>
5.57

>  <EState_VSA6>
6.08

>  <EState_VSA7>
6.08

>  <EState_VSA8>
19.92

>  <EState_VSA9>
4.74

>  <EState_VSA10>
9.59

>  <VSA_EState1>
5.79

>  <VSA_EState2>
23.45

>  <VSA_EState3>
0

>  <VSA_EState4>
1.08

>  <VSA_EState5>
1.77

>  <VSA_EState6>
0

>  <VSA_EState7>
11.47

>  <VSA_EState8>
4.44

>  <VSA_EState9>
0

>  <apol>
50.14

>  <bpol>
27.55

>  <nRing>
4

>  <nHRing>
1

>  <naRing>
0

>  <naHRing>
0

>  <nARing 2>
4

>  <nAHRing 2>
1

>  <nFRing>
1

>  <nFHRing>
1

>  <nFaRing>
0

>  <nFaHRing>
0

>  <nFARing 2>
1

>  <nFAHRing 2>
1

>  <nRot>
0

>  <SLogP>
3.59

>  <SMR>
83.01

>  <TopoPSA(NO)>
43.37

>  <TopoPSA>
43.37

>  <JGI1>
0.28

>  <JGI2>
0.12

>  <JGI3>
0.06

>  <JGI4>
0.06

>  <JGI5>
0.03

>  <Diameter>
11

>  <Radius>
6

>  <TMWC10>
124.64

>  <TSRW10>
57.56

>  <MW>
300.17

>  <AMW>
6.53

>  <WPath>
928

>  <WPol>
45

>  <Zagreb1>
130

>  <Zagreb2>
162

>  <mZagreb2>
4.51

>  <yes>


>  <nAR-cont>
0.199399

>  <nHA-cont>
0.983774276

>  <MWHBN>
0.173156027

>  <MWHBN-cont>
0.97865409

>  <TPSA-cont>
0.697250469

>  <pka_cont>
0.97

>  <yes.1>


>  <BBB_SCORE>
4.530655348

>  <MMFF94 Energy>
61.469

$$$$
Compound 1613
Actelion Java MolfileCreator 2.0

  0  0  0  0  0  0              0 V3000
M  V30 BEGIN CTAB
M  V30 COUNTS 52 55 0 0 0
M  V30 BEGIN ATOM
M  V30 1 O -4.0961 4.6593 -1.6851 0
M  V30 2 C -3.3581 3.7111 -1.4323 0
M  V30 3 O -3.8437 2.4517 -1.3782 0
M  V30 4 C -1.8691 3.8993 -1.299 0
M  V30 5 C -3.143 1.3743 -0.7286 0
M  V30 6 C -1.1681 2.8083 -0.5005 0 CFG=1
M  V30 7 C -1.6206 1.3969 -0.9466 0 CFG=1
M  V30 8 C 0.354 2.9831 -0.5378 0
M  V30 9 C -0.9069 0.3403 -0.0318 0 CFG=2
M  V30 10 C -1.3366 1.1362 -2.4462 0
M  V30 11 C 1.0551 1.9317 0.318 0
M  V30 12 C 0.6454 0.5018 -0.066 0 CFG=1
M  V30 13 C -1.3505 -1.1249 -0.278 0
M  V30 14 C 1.2721 -0.5321 0.8791 0 CFG=1
M  V30 15 C -0.6106 -2.139 0.6139 0
M  V30 16 C 0.9163 -1.988 0.5072 0 CFG=2
M  V30 17 C 2.7902 -0.5611 1.0209 0
M  V30 18 C 1.7782 -2.7687 1.5477 0 CFG=2
M  V30 19 C 1.3585 -2.3849 -0.9317 0
M  V30 20 C 3.0999 -1.9566 1.5936 0
M  V30 21 O 2.0633 -4.0948 1.1099 0
M  V30 22 C 1.1757 -2.8895 2.953 0
M  V30 23 H -1.7021 4.8622 -0.8003 0
M  V30 24 H -1.4541 3.9795 -2.3099 0
M  V30 25 H -3.5781 0.4489 -1.1203 0
M  V30 26 H -3.3976 1.4193 0.3371 0
M  V30 27 H -1.4767 2.9398 0.5486 0
M  V30 28 H 0.7255 2.9282 -1.5677 0
M  V30 29 H 0.622 3.9793 -0.165 0
M  V30 30 H -1.2166 0.5652 1.0016 0
M  V30 31 H -1.8231 1.8714 -3.0948 0
M  V30 32 H -1.7198 0.1601 -2.7602 0
M  V30 33 H -0.2692 1.1603 -2.6798 0
M  V30 34 H 2.1389 2.0556 0.211 0
M  V30 35 H 0.8197 2.1147 1.3744 0
M  V30 36 H 1.0115 0.3241 -1.0824 0
M  V30 37 H -1.2095 -1.4015 -1.3266 0
M  V30 38 H -2.4233 -1.2254 -0.0775 0
M  V30 39 H 0.8724 -0.3135 1.8812 0
M  V30 40 H -0.9162 -3.1574 0.3464 0
M  V30 41 H -0.9445 -1.9745 1.6453 0
M  V30 42 H 3.1531 0.2287 1.6866 0
M  V30 43 H 3.286 -0.4291 0.0527 0
M  V30 44 H 0.9301 -1.7425 -1.7047 0
M  V30 45 H 1.0408 -3.4084 -1.1628 0
M  V30 46 H 2.445 -2.3484 -1.0598 0
M  V30 47 H 3.483 -1.868 2.6168 0
M  V30 48 H 3.8912 -2.4354 1.005 0
M  V30 49 H 1.2194 -4.5729 1.0391 0
M  V30 50 H 0.9436 -1.92 3.4019 0
M  V30 51 H 1.8707 -3.4119 3.6214 0
M  V30 52 H 0.2641 -3.4969 2.9395 0
M  V30 END ATOM
M  V30 BEGIN BOND
M  V30 1 2 1 2
M  V30 2 1 2 3
M  V30 3 1 2 4
M  V30 4 1 3 5
M  V30 5 1 4 6
M  V30 6 1 5 7
M  V30 7 1 6 8
M  V30 8 1 7 9
M  V30 9 1 7 10
M  V30 10 1 8 11
M  V30 11 1 9 12
M  V30 12 1 9 13
M  V30 13 1 12 14
M  V30 14 1 13 15
M  V30 15 1 14 16
M  V30 16 1 14 17
M  V30 17 1 16 18
M  V30 18 1 16 19
M  V30 19 1 17 20
M  V30 20 1 18 21
M  V30 21 1 18 22
M  V30 22 1 6 7
M  V30 23 1 11 12
M  V30 24 1 15 16
M  V30 25 1 18 20
M  V30 26 1 4 23
M  V30 27 1 4 24
M  V30 28 1 5 25
M  V30 29 1 5 26
M  V30 30 1 6 27
M  V30 31 1 8 28
M  V30 32 1 8 29
M  V30 33 1 9 30
M  V30 34 1 10 31
M  V30 35 1 10 32
M  V30 36 1 10 33
M  V30 37 1 11 34
M  V30 38 1 11 35
M  V30 39 1 12 36
M  V30 40 1 13 37
M  V30 41 1 13 38
M  V30 42 1 14 39
M  V30 43 1 15 40
M  V30 44 1 15 41
M  V30 45 1 17 42
M  V30 46 1 17 43
M  V30 47 1 19 44
M  V30 48 1 19 45
M  V30 49 1 19 46
M  V30 50 1 20 47
M  V30 51 1 20 48
M  V30 52 1 21 49
M  V30 53 1 22 50
M  V30 54 1 22 51
M  V30 55 1 22 52
M  V30 END BOND
M  V30 BEGIN COLLECTION
M  V30 MDLV30/STEABS ATOMS=(7 6 7 9 12 14 16 18)
M  V30 END COLLECTION
M  V30 END CTAB
M  END
>  <Column 1>
1960

>  <level_0>
2130

>  <index>
2130

>  <Unnamed: 0>
2130

>  <NO.>
2142

>  <Name>
oxandrolone

>  <IUPAC_name>
(1s-3as-3br-5as-9as-9bs-11as)-1-hydroxy-1-9a-11a-trimethyl-2-3-3a-3b-4-5-5a-6-9-9b-10-11-dodecahydroindeno[4-5-h]isochromen-7-one

>  <SMILES>
C[C@]12COC(=O)C[C@@H]1CC[C@@H]1[C@@H]2CC[C@@]2(C)[C@H]1CC[C@]2(C)O

>  <CID>
5878

>  <logBB>


>  <BBB+/BBB->
BBB-

>  <Inchi>
InChI=1S/C19H30O3/c1-17-11-22-16(20)10-12(17)4-5-13-14(17)6-8-18(2)15(13)7-9-19(18-3)21/h12-15-21H-4-11H2-1-3H3/t12--13+-14--15--17--18--19-/m0/s1

>  <threshold>
-1

>  <reference>
R1|R23|R27|R30|

>  <group>
B

>  <Class>
1

>  <ABC>
18.06

>  <ABCGG>
14.59

>  <nAcid>
0

>  <nBase>
0

>  <nAromAtom>
0

>  <nAromBond>
0

>  <nAtom>
52

>  <nHeavyAtom>
22

>  <nSpiro>
0

>  <nBridgehead>
0

>  <nHetero>
3

>  <nN>
0

>  <nO>
3

>  <nF>
0

>  <BalabanJ>
1.64

>  <BertzCT>
498.91

>  <nBonds>
55

>  <nBondsO>
25

>  <nBondsS>
54

>  <nBondsD>
1

>  <nBondsT>
0

>  <nBondsA>
0

>  <nBondsM>
1

>  <nBondsKS>
54

>  <nBondsKD>
1

>  <RNCG>
0.28

>  <RPCG>
0.19

>  <FCSP3>
0.95

>  <SZ>
28

>  <Sm>
25.51

>  <Sv>
29.27

>  <Sse>
51.31

>  <Sp>
32.42

>  <Si>
58.86

>  <MZ>
0.54

>  <Mm>
0.49

>  <Mv>
0.56

>  <Mse>
0.99

>  <Mp>
0.62

>  <Mi>
1.13

>  <NsCH3>
3

>  <NdCH2>
0

>  <NssCH2>
8

>  <NtCH>
0

>  <NdsCH>
0

>  <NaaCH>
0

>  <NsssCH>
4

>  <NddC>
0

>  <NtsC>
0

>  <NdssC>
1

>  <NaasC>
0

>  <NaaaC>
0

>  <NssssC>
3

>  <NsNH3>
0

>  <NsNH2>
0

>  <NssNH2>
0

>  <NdNH>
0

>  <NssNH>
0

>  <NaaNH>
0

>  <NtN>
0

>  <NsssNH>
0

>  <NdsN>
0

>  <NaaN>
0

>  <NsssN>
0

>  <NddsN>
0

>  <NaasN>
0

>  <NssssN>
0

>  <NsOH>
1

>  <NdO>
1

>  <NssO>
1

>  <NaaO>
0

>  <NsF>
0

>  <NsSiH3>
0

>  <NssSiH2>
0

>  <NsssSiH>
0

>  <NssssSi>
0

>  <NsPH2>
0

>  <NssPH>
0

>  <NsssP>
0

>  <NdsssP>
0

>  <NsssssP>
0

>  <NsSH>
0

>  <NdS>
0

>  <NssS>
0

>  <NaaS>
0

>  <NdssS>
0

>  <NddssS>
0

>  <NsCl>
0

>  <NsBr>
0

>  <NsI>
0

>  <fragCpx>
163.03

>  <fMF>
0.33

>  <nHBAcc>
3

>  <nHBDon>
1

>  <Kier1>
15.52

>  <Kier2>
4.76

>  <Lipinski>
1

>  <GhoseFilter>
1

>  <FilterItLogS>
-3.56

>  <VMcGowan>
248.44

>  <LabuteASA>
133.35

>  <PEOE_VSA1>
9.84

>  <PEOE_VSA2>
4.79

>  <PEOE_VSA3>
0

>  <PEOE_VSA4>
0

>  <PEOE_VSA5>
0

>  <PEOE_VSA6>
13.85

>  <PEOE_VSA7>
74.54

>  <PEOE_VSA8>
11.84

>  <PEOE_VSA9>
12.21

>  <PEOE_VSA10>
0

>  <PEOE_VSA11>
0

>  <PEOE_VSA12>
0

>  <PEOE_VSA13>
0

>  <SMR_VSA1>
14.64

>  <SMR_VSA2>
0

>  <SMR_VSA3>
0

>  <SMR_VSA4>
34.5

>  <SMR_VSA5>
71.32

>  <SMR_VSA6>
6.61

>  <SMR_VSA7>
0

>  <SMR_VSA8>
0

>  <SMR_VSA9>
0

>  <SlogP_VSA1>
0

>  <SlogP_VSA2>
23.28

>  <SlogP_VSA3>
9.53

>  <SlogP_VSA4>
34.5

>  <SlogP_VSA5>
65.72

>  <SlogP_VSA6>
0

>  <SlogP_VSA7>
0

>  <SlogP_VSA8>
0

>  <SlogP_VSA9>
0

>  <SlogP_VSA10>
0

>  <SlogP_VSA11>
0

>  <EState_VSA1>
5.6

>  <EState_VSA2>
16.8

>  <EState_VSA3>
36.7

>  <EState_VSA4>
12.84

>  <EState_VSA5>
25.68

>  <EState_VSA6>
0

>  <EState_VSA7>
0

>  <EState_VSA8>
20.77

>  <EState_VSA9>
4.74

>  <EState_VSA10>
9.9

>  <VSA_EState1>
5.49

>  <VSA_EState2>
11.68

>  <VSA_EState3>
10.9

>  <VSA_EState4>
-0.24

>  <VSA_EState5>
2.56

>  <VSA_EState6>
0

>  <VSA_EState7>
7.48

>  <VSA_EState8>
7.38

>  <VSA_EState9>
0

>  <apol>
54.14

>  <bpol>
32.7

>  <nRing>
4

>  <nHRing>
1

>  <naRing>
0

>  <naHRing>
0

>  <nARing 2>
4

>  <nAHRing 2>
1

>  <nFRing>
1

>  <nFHRing>
1

>  <nFaRing>
0

>  <nFaHRing>
0

>  <nFARing 2>
1

>  <nFAHRing 2>
1

>  <nRot>
0

>  <SLogP>
3.54

>  <SMR>
84.08

>  <TopoPSA(NO)>
46.53

>  <TopoPSA>
46.53

>  <JGI1>
0.3

>  <JGI2>
0.14

>  <JGI3>
0.07

>  <JGI4>
0.06

>  <JGI5>
0.04

>  <Diameter>
10

>  <Radius>
5

>  <TMWC10>
125.6

>  <TSRW10>
72.44

>  <MW>
306.22

>  <AMW>
5.89

>  <WPath>
907

>  <WPol>
48

>  <Zagreb1>
134

>  <Zagreb2>
171

>  <mZagreb2>
4.41

>  <yes>


>  <nAR-cont>
0.199399

>  <nHA-cont>
0.983774276

>  <MWHBN>
0.228582625

>  <MWHBN-cont>
0.988156575

>  <TPSA-cont>
0.675191707

>  <pka_cont>
0.97

>  <yes.1>


>  <BBB_SCORE>
4.500791552

>  <MMFF94 Energy>
78.378

$$$$
Compound 1614
Actelion Java MolfileCreator 2.0

  0  0  0  0  0  0              0 V3000
M  V30 BEGIN CTAB
M  V30 COUNTS 67 72 0 0 0
M  V30 BEGIN ATOM
M  V30 1 F 2.1151 -1.3826 -0.3251 0
M  V30 2 C 2.1147 -0.1995 -1.0529 0 CFG=2
M  V30 3 C 3.3354 -0.3009 -2.0566 0 CFG=2
M  V30 4 C 2.2184 0.9212 0.0279 0 CFG=1
M  V30 5 C 0.7364 -0.1751 -1.7922 0 CFG=2
M  V30 6 C 3.0763 -1.4983 -2.988 0
M  V30 7 C 4.6496 -0.475 -1.298 0
M  V30 8 C 3.5199 0.9504 -2.946 0
M  V30 9 O 2.5517 2.2128 -0.4661 0
M  V30 10 C 0.9803 1.0143 0.952 0
M  V30 11 C -0.3928 -0.1922 -0.7441 0 CFG=1
M  V30 12 C 0.5995 -1.379 -2.7457 0
M  V30 13 C 3.923 -2.5347 -3.1232 0
M  V30 14 C 1.7627 -1.4857 -3.7258 0
M  V30 15 C 5.4892 -1.5098 -1.4353 0
M  V30 16 C -0.3808 1.0197 0.2182 0 CFG=1
M  V30 17 C -1.8334 -0.2407 -1.2343 0
M  V30 18 C 5.1919 -2.6104 -2.3707 0
M  V30 19 C -1.6705 0.7162 1.0971 0 CFG=2
M  V30 20 C -0.5713 2.3698 -0.5338 0
M  V30 21 C -2.6691 0.0778 0.0304 0 CFG=2
M  V30 22 O 5.9648 -3.5484 -2.5181 0
M  V30 23 C -2.2857 2.0224 1.6847 0
M  V30 24 C -1.4217 -0.2784 2.2659 0
M  V30 25 C -3.4323 -1.1737 0.51 0
M  V30 26 O -3.2333 2.6101 1.1488 0
M  V30 27 C -1.6692 2.6339 2.9426 0
M  V30 28 C -2.7283 -0.7356 2.8614 0
M  V30 29 C -3.7405 -1.1425 1.9804 0
M  V30 30 O -2.0281 4.0038 3.0697 0
M  V30 31 C -2.9429 -0.7815 4.2417 0
M  V30 32 C -4.9659 -1.5826 2.4868 0
M  V30 33 C -4.1729 -1.2102 4.7401 0
M  V30 34 C -5.1833 -1.6066 3.8645 0
M  V30 35 H 3.0469 0.6553 0.6956 0
M  V30 36 H 0.6611 0.7302 -2.4018 0
M  V30 37 H 4.9355 0.3182 -0.6091 0
M  V30 38 H 2.5794 1.2999 -3.382 0
M  V30 39 H 4.2027 0.7444 -3.7812 0
M  V30 40 H 3.9594 1.7911 -2.3987 0
M  V30 41 H 1.9748 2.451 -1.2071 0
M  V30 42 H 1.0321 0.1492 1.6225 0
M  V30 43 H 1.0684 1.9072 1.5806 0
M  V30 44 H -0.2439 -1.1101 -0.156 0
M  V30 45 H -0.3303 -1.2967 -3.3206 0
M  V30 46 H 0.5292 -2.3083 -2.1649 0
M  V30 47 H 3.7218 -3.379 -3.7728 0
M  V30 48 H 1.6353 -2.3929 -4.329 0
M  V30 49 H 1.7402 -0.6457 -4.4295 0
M  V30 50 H 6.4178 -1.5847 -0.8827 0
M  V30 51 H -2.0881 -1.2116 -1.6715 0
M  V30 52 H -2.0109 0.5144 -2.0089 0
M  V30 53 H -1.5903 2.4977 -0.9137 0
M  V30 54 H -0.3653 3.2174 0.1297 0
M  V30 55 H 0.0721 2.4788 -1.4053 0
M  V30 56 H -3.4329 0.8052 -0.2699 0
M  V30 57 H -0.7969 0.1721 3.0449 0
M  V30 58 H -0.8875 -1.174 1.9273 0
M  V30 59 H -4.3543 -1.2727 -0.0764 0
M  V30 60 H -2.8452 -2.0821 0.3208 0
M  V30 61 H -2.0364 2.1041 3.824 0
M  V30 62 H -0.5818 2.5819 2.9024 0
M  V30 63 H -2.9141 4.0855 2.66 0
M  V30 64 H -2.162 -0.4854 4.9378 0
M  V30 65 H -5.7548 -1.9134 1.8157 0
M  V30 66 H -4.344 -1.2407 5.8133 0
M  V30 67 H -6.1389 -1.9454 4.2566 0
M  V30 END ATOM
M  V30 BEGIN BOND
M  V30 1 1 1 2
M  V30 2 1 2 3
M  V30 3 1 2 4
M  V30 4 1 2 5
M  V30 5 1 3 6
M  V30 6 1 3 7
M  V30 7 1 3 8
M  V30 8 1 4 9
M  V30 9 1 4 10
M  V30 10 1 5 11
M  V30 11 1 5 12
M  V30 12 2 6 13
M  V30 13 1 6 14
M  V30 14 2 7 15
M  V30 15 1 10 16
M  V30 16 1 11 17
M  V30 17 1 13 18
M  V30 18 1 16 19
M  V30 19 1 16 20
M  V30 20 1 17 21
M  V30 21 2 18 22
M  V30 22 1 19 23
M  V30 23 1 19 24
M  V30 24 1 21 25
M  V30 25 2 23 26
M  V30 26 1 23 27
M  V30 27 1 24 28
M  V30 28 1 25 29
M  V30 29 1 27 30
M  V30 30 1 28 31
M  V30 31 1 29 32
M  V30 32 2 31 33
M  V30 33 2 32 34
M  V30 34 1 11 16
M  V30 35 1 12 14
M  V30 36 1 15 18
M  V30 37 1 19 21
M  V30 38 2 28 29
M  V30 39 1 33 34
M  V30 40 1 4 35
M  V30 41 1 5 36
M  V30 42 1 7 37
M  V30 43 1 8 38
M  V30 44 1 8 39
M  V30 45 1 8 40
M  V30 46 1 9 41
M  V30 47 1 10 42
M  V30 48 1 10 43
M  V30 49 1 11 44
M  V30 50 1 12 45
M  V30 51 1 12 46
M  V30 52 1 13 47
M  V30 53 1 14 48
M  V30 54 1 14 49
M  V30 55 1 15 50
M  V30 56 1 17 51
M  V30 57 1 17 52
M  V30 58 1 20 53
M  V30 59 1 20 54
M  V30 60 1 20 55
M  V30 61 1 21 56
M  V30 62 1 24 57
M  V30 63 1 24 58
M  V30 64 1 25 59
M  V30 65 1 25 60
M  V30 66 1 27 61
M  V30 67 1 27 62
M  V30 68 1 30 63
M  V30 69 1 31 64
M  V30 70 1 32 65
M  V30 71 1 33 66
M  V30 72 1 34 67
M  V30 END BOND
M  V30 BEGIN COLLECTION
M  V30 MDLV30/STEABS ATOMS=(8 2 3 4 5 11 16 19 21)
M  V30 END COLLECTION
M  V30 END CTAB
M  END
>  <Column 1>
1961

>  <level_0>
2131

>  <index>
2131

>  <Unnamed: 0>
2131

>  <NO.>
2143

>  <Name>
naflocort hydrate

>  <IUPAC_name>
(1s-2s-10s-11r-12s-14s-15s-24s)-11-fluoro-12-hydroxy-15-(2-hydroxyacetyl)-10-14-dimethylhexacyclo[12.11.0.02-11.05-10.015-24.017-22]pentacosa-5-8-17-19-21-pentaen-7-one;hydrate

>  <SMILES>
C[C@]12C[C@H](O)[C@@]3(F)[C@@H](CCC4=CC(=O)C=C[C@@]43C)[C@@H]1C[C@H]1Cc3ccccc3C[C@]12C(=O)CO

>  <CID>
6917657

>  <logBB>


>  <BBB+/BBB->
BBB+

>  <Inchi>
InChI=1S/C29H33FO4/c1-26-10-9-21(32)12-19(26)7-8-22-23-13-20-11-17-5-3-4-6-18(17)14-28(20-25(34)16-31)27(23-2)15-24(33)29(22-26)30/h3-6-9-10-12-20-22-24-31-33H-7-8-11-13-16H2-1-2H3/t20--22+-23+-24+-26+-27+-28--29+/m1/s1

>  <threshold>
-1

>  <reference>
R1|R6|R27|R30|

>  <group>
B

>  <Class>
1

>  <ABC>
27.74

>  <ABCGG>
21.19

>  <nAcid>
0

>  <nBase>
0

>  <nAromAtom>
6

>  <nAromBond>
6

>  <nAtom>
67

>  <nHeavyAtom>
34

>  <nSpiro>
0

>  <nBridgehead>
0

>  <nHetero>
5

>  <nN>
0

>  <nO>
4

>  <nF>
1

>  <BalabanJ>
1.42

>  <BertzCT>
1154.54

>  <nBonds>
72

>  <nBondsO>
39

>  <nBondsS>
62

>  <nBondsD>
4

>  <nBondsT>
0

>  <nBondsA>
6

>  <nBondsM>
10

>  <nBondsKS>
65

>  <nBondsKD>
7

>  <RNCG>
0.16

>  <RPCG>
0.09

>  <FCSP3>
0.59

>  <SZ>
41.33

>  <Sm>
38.68

>  <Sv>
41.45

>  <Sse>
66.93

>  <Sp>
44.43

>  <Si>
75.24

>  <MZ>
0.62

>  <Mm>
0.58

>  <Mv>
0.62

>  <Mse>
1

>  <Mp>
0.66

>  <Mi>
1.12

>  <NsCH3>
2

>  <NdCH2>
0

>  <NssCH2>
7

>  <NtCH>
0

>  <NdsCH>
3

>  <NaaCH>
4

>  <NsssCH>
4

>  <NddC>
0

>  <NtsC>
0

>  <NdssC>
3

>  <NaasC>
2

>  <NaaaC>
0

>  <NssssC>
4

>  <NsNH3>
0

>  <NsNH2>
0

>  <NssNH2>
0

>  <NdNH>
0

>  <NssNH>
0

>  <NaaNH>
0

>  <NtN>
0

>  <NsssNH>
0

>  <NdsN>
0

>  <NaaN>
0

>  <NsssN>
0

>  <NddsN>
0

>  <NaasN>
0

>  <NssssN>
0

>  <NsOH>
2

>  <NdO>
2

>  <NssO>
0

>  <NaaO>
0

>  <NsF>
1

>  <NsSiH3>
0

>  <NssSiH2>
0

>  <NsssSiH>
0

>  <NssssSi>
0

>  <NsPH2>
0

>  <NssPH>
0

>  <NsssP>
0

>  <NdsssP>
0

>  <NsssssP>
0

>  <NsSH>
0

>  <NdS>
0

>  <NssS>
0

>  <NaaS>
0

>  <NdssS>
0

>  <NddssS>
0

>  <NsCl>
0

>  <NsBr>
0

>  <NsI>
0

>  <fragCpx>
399.05

>  <fMF>
0.37

>  <nHBAcc>
4

>  <nHBDon>
2

>  <Kier1>
24.34

>  <Kier2>
8

>  <Lipinski>
1

>  <GhoseFilter>
1

>  <FilterItLogS>
-5.38

>  <VMcGowan>
349.45

>  <LabuteASA>
199.49

>  <PEOE_VSA1>
10.21

>  <PEOE_VSA2>
9.59

>  <PEOE_VSA3>
4.39

>  <PEOE_VSA4>
0

>  <PEOE_VSA5>
0

>  <PEOE_VSA6>
42.84

>  <PEOE_VSA7>
85.98

>  <PEOE_VSA8>
16.75

>  <PEOE_VSA9>
6.1

>  <PEOE_VSA10>
6.61

>  <PEOE_VSA11>
17.24

>  <PEOE_VSA12>
0

>  <PEOE_VSA13>
0

>  <SMR_VSA1>
24.19

>  <SMR_VSA2>
0

>  <SMR_VSA3>
0

>  <SMR_VSA4>
34

>  <SMR_VSA5>
64.15

>  <SMR_VSA6>
6.61

>  <SMR_VSA7>
59.19

>  <SMR_VSA8>
0

>  <SMR_VSA9>
0

>  <SlogP_VSA1>
0

>  <SlogP_VSA2>
40.16

>  <SlogP_VSA3>
22.43

>  <SlogP_VSA4>
34

>  <SlogP_VSA5>
50.66

>  <SlogP_VSA6>
48.07

>  <SlogP_VSA7>
0

>  <SlogP_VSA8>
0

>  <SlogP_VSA9>
0

>  <SlogP_VSA10>
4.39

>  <SlogP_VSA11>
0

>  <EState_VSA1>
40.54

>  <EState_VSA2>
29.82

>  <EState_VSA3>
19.26

>  <EState_VSA4>
23.98

>  <EState_VSA5>
11.64

>  <EState_VSA6>
12.15

>  <EState_VSA7>
19.06

>  <EState_VSA8>
19.06

>  <EState_VSA9>
0

>  <EState_VSA10>
19.8

>  <VSA_EState1>
17.43

>  <VSA_EState2>
25.69

>  <VSA_EState3>
21.72

>  <VSA_EState4>
-1.22

>  <VSA_EState5>
-0.78

>  <VSA_EState6>
8.19

>  <VSA_EState7>
6.77

>  <VSA_EState8>
3.38

>  <VSA_EState9>
0

>  <apol>
74.2

>  <bpol>
35.95

>  <nRing>
6

>  <nHRing>
0

>  <naRing>
1

>  <naHRing>
0

>  <nARing 2>
5

>  <nAHRing 2>
0

>  <nFRing>
1

>  <nFHRing>
0

>  <nFaRing>
0

>  <nFaHRing>
0

>  <nFARing 2>
1

>  <nFAHRing 2>
0

>  <nRot>
2

>  <SLogP>
3.93

>  <SMR>
125.6

>  <TopoPSA(NO)>
74.6

>  <TopoPSA>
74.6

>  <JGI1>
0.27

>  <JGI2>
0.14

>  <JGI3>
0.07

>  <JGI4>
0.06

>  <JGI5>
0.04

>  <Diameter>
13

>  <Radius>
7

>  <TMWC10>
156.64

>  <TSRW10>
87.12

>  <MW>
464.24

>  <AMW>
6.93

>  <WPath>
2819

>  <WPol>
84

>  <Zagreb1>
208

>  <Zagreb2>
273

>  <mZagreb2>
7.06

>  <yes>


>  <nAR-cont>
0

>  <nHA-cont>
0.568589513

>  <MWHBN>
0.278470998

>  <MWHBN-cont>
0.899923526

>  <TPSA-cont>
0.479245676

>  <pka_cont>
0.97

>  <yes.1>


>  <BBB_SCORE>
3.361966154

>  <MMFF94 Energy>
184.01

$$$$
Compound 1615
Actelion Java MolfileCreator 2.0

  0  0  0  0  0  0              0 V3000
M  V30 BEGIN CTAB
M  V30 COUNTS 55 58 0 0 0
M  V30 BEGIN ATOM
M  V30 1 F -1.9523 0.4878 0.4065 0
M  V30 2 C -0.9775 -0.3675 0.8984 0 CFG=2
M  V30 3 C -1.72 -1.3662 1.88 0 CFG=2
M  V30 4 C 0.0722 0.5778 1.563 0 CFG=1
M  V30 5 C -0.3969 -1.1036 -0.3563 0 CFG=2
M  V30 6 C -2.7585 -2.1488 1.0567 0
M  V30 7 C -2.3947 -0.6045 3.021 0
M  V30 8 C -0.7809 -2.3923 2.5557 0
M  V30 9 O 1.0495 -0.135 2.3088 0
M  V30 10 C 0.7717 1.5088 0.5431 0
M  V30 11 C 0.2222 -0.0661 -1.3078 0 CFG=1
M  V30 12 C -1.4933 -1.9066 -1.0778 0
M  V30 13 C -4.0749 -2.1646 1.3355 0
M  V30 14 C -2.2154 -2.8724 -0.148 0 CFG=2
M  V30 15 C -3.7063 -0.6237 3.2928 0
M  V30 16 C 1.3655 0.7575 -0.6681 0 CFG=1
M  V30 17 C 0.8191 -0.5519 -2.6303 0
M  V30 18 C -4.6424 -1.4156 2.4733 0
M  V30 19 F -3.2119 -3.468 -0.8632 0
M  V30 20 C 1.7784 1.6311 -1.9028 0 CFG=1
M  V30 21 C 2.5599 -0.1261 -0.2096 0
M  V30 22 C 1.7601 0.5904 -3.0746 0 CFG=2
M  V30 23 O -5.8388 -1.4485 2.7302 0
M  V30 24 O 0.7672 2.6033 -2.2309 0
M  V30 25 C 3.1731 2.2827 -1.7808 0
M  V30 26 O 1.2598 1.1824 -4.2748 0
M  V30 27 O 4.2255 1.6589 -1.9475 0
M  V30 28 C 3.2225 3.7571 -1.4035 0
M  V30 29 O 4.5123 4.1408 -0.9529 0
M  V30 30 H -0.4484 1.2329 2.2709 0
M  V30 31 H 0.3739 -1.8143 -0.0424 0
M  V30 32 H -1.7541 -0.0243 3.6817 0
M  V30 33 H -0.0937 -2.8656 1.8485 0
M  V30 34 H -1.3547 -3.1985 3.0319 0
M  V30 35 H -0.1746 -1.9433 3.3496 0
M  V30 36 H 1.6111 0.5124 2.7727 0
M  V30 37 H 1.5645 2.0801 1.0413 0
M  V30 38 H 0.0199 2.233 0.2109 0
M  V30 39 H -0.5933 0.6222 -1.5818 0
M  V30 40 H -2.226 -1.228 -1.5349 0
M  V30 41 H -1.0634 -2.4801 -1.9077 0
M  V30 42 H -4.7937 -2.7103 0.733 0
M  V30 43 H -1.54 -3.6737 0.1683 0
M  V30 44 H -4.1393 -0.0777 4.1224 0
M  V30 45 H 0.0416 -0.7639 -3.3716 0
M  V30 46 H 1.3944 -1.4714 -2.4732 0
M  V30 47 H 3.2886 0.4718 0.3496 0
M  V30 48 H 3.0931 -0.5851 -1.0477 0
M  V30 49 H 2.2628 -0.953 0.4373 0
M  V30 50 H 2.7466 0.1748 -3.3025 0
M  V30 51 H 0.5742 3.1625 -1.4602 0
M  V30 52 H 0.6312 1.8745 -3.9819 0
M  V30 53 H 2.9592 4.3589 -2.2772 0
M  V30 54 H 2.5199 3.9532 -0.5902 0
M  V30 55 H 5.152 3.6122 -1.4721 0
M  V30 END ATOM
M  V30 BEGIN BOND
M  V30 1 1 1 2
M  V30 2 1 2 3
M  V30 3 1 2 4
M  V30 4 1 2 5
M  V30 5 1 3 6
M  V30 6 1 3 7
M  V30 7 1 3 8
M  V30 8 1 4 9
M  V30 9 1 4 10
M  V30 10 1 5 11
M  V30 11 1 5 12
M  V30 12 2 6 13
M  V30 13 1 6 14
M  V30 14 2 7 15
M  V30 15 1 10 16
M  V30 16 1 11 17
M  V30 17 1 13 18
M  V30 18 1 14 19
M  V30 19 1 16 20
M  V30 20 1 16 21
M  V30 21 1 17 22
M  V30 22 2 18 23
M  V30 23 1 20 24
M  V30 24 1 20 25
M  V30 25 1 22 26
M  V30 26 2 25 27
M  V30 27 1 25 28
M  V30 28 1 28 29
M  V30 29 1 11 16
M  V30 30 1 12 14
M  V30 31 1 15 18
M  V30 32 1 20 22
M  V30 33 1 4 30
M  V30 34 1 5 31
M  V30 35 1 7 32
M  V30 36 1 8 33
M  V30 37 1 8 34
M  V30 38 1 8 35
M  V30 39 1 9 36
M  V30 40 1 10 37
M  V30 41 1 10 38
M  V30 42 1 11 39
M  V30 43 1 12 40
M  V30 44 1 12 41
M  V30 45 1 13 42
M  V30 46 1 14 43
M  V30 47 1 15 44
M  V30 48 1 17 45
M  V30 49 1 17 46
M  V30 50 1 21 47
M  V30 51 1 21 48
M  V30 52 1 21 49
M  V30 53 1 22 50
M  V30 54 1 24 51
M  V30 55 1 26 52
M  V30 56 1 28 53
M  V30 57 1 28 54
M  V30 58 1 29 55
M  V30 END BOND
M  V30 BEGIN COLLECTION
M  V30 MDLV30/STEABS ATOMS=(9 2 3 4 5 11 14 16 20 22)
M  V30 END COLLECTION
M  V30 END CTAB
M  END
>  <Column 1>
1962

>  <level_0>
2132

>  <index>
2132

>  <Unnamed: 0>
2132

>  <NO.>
2144

>  <Name>
fluocinolone

>  <IUPAC_name>
(6s-8s-9r-10s-11s-13s-14s-16r-17s)-6-9-difluoro-11-16-17-trihydroxy-17-(2-hydroxyacetyl)-10-13-dimethyl-6-7-8-11-12-14-15-16-octahydrocyclopenta[a]phenanthren-3-one

>  <SMILES>
C[C@]12C[C@H](O)[C@@]3(F)[C@@H](C[C@H](F)C4=CC(=O)C=C[C@@]43C)[C@@H]1C[C@@H](O)[C@]2(O)C(=O)CO

>  <CID>
91488

>  <logBB>


>  <BBB+/BBB->
BBB+

>  <Inchi>
InChI=1S/C21H26F2O6/c1-18-4-3-10(25)5-13(18)14(22)6-12-11-7-15(26)21(29-17(28)9-24)19(11-2)8-16(27)20(12-18)23/h3-5-11-12-14-16-24-26-27-29H-6-9H2-1-2H3/t11--12--14--15+-16--18--19--20--21-/m0/s1

>  <threshold>
-1

>  <reference>
R1|R27|R30|

>  <group>
B

>  <Class>
1

>  <ABC>
23.17

>  <ABCGG>
19.7

>  <nAcid>
0

>  <nBase>
0

>  <nAromAtom>
0

>  <nAromBond>
0

>  <nAtom>
55

>  <nHeavyAtom>
29

>  <nSpiro>
0

>  <nBridgehead>
0

>  <nHetero>
8

>  <nN>
0

>  <nO>
6

>  <nF>
2

>  <BalabanJ>
1.8

>  <BertzCT>
841.03

>  <nBonds>
58

>  <nBondsO>
32

>  <nBondsS>
54

>  <nBondsD>
4

>  <nBondsT>
0

>  <nBondsA>
0

>  <nBondsM>
4

>  <nBondsKS>
54

>  <nBondsKD>
4

>  <RNCG>
0.13

>  <RPCG>
0.07

>  <FCSP3>
0.71

>  <SZ>
36.33

>  <Sm>
34.34

>  <Sv>
33.63

>  <Sse>
56.44

>  <Sp>
34.93

>  <Si>
62.75

>  <MZ>
0.66

>  <Mm>
0.62

>  <Mv>
0.61

>  <Mse>
1.03

>  <Mp>
0.64

>  <Mi>
1.14

>  <NsCH3>
2

>  <NdCH2>
0

>  <NssCH2>
4

>  <NtCH>
0

>  <NdsCH>
3

>  <NaaCH>
0

>  <NsssCH>
5

>  <NddC>
0

>  <NtsC>
0

>  <NdssC>
3

>  <NaasC>
0

>  <NaaaC>
0

>  <NssssC>
4

>  <NsNH3>
0

>  <NsNH2>
0

>  <NssNH2>
0

>  <NdNH>
0

>  <NssNH>
0

>  <NaaNH>
0

>  <NtN>
0

>  <NsssNH>
0

>  <NdsN>
0

>  <NaaN>
0

>  <NsssN>
0

>  <NddsN>
0

>  <NaasN>
0

>  <NssssN>
0

>  <NsOH>
4

>  <NdO>
2

>  <NssO>
0

>  <NaaO>
0

>  <NsF>
2

>  <NsSiH3>
0

>  <NssSiH2>
0

>  <NsssSiH>
0

>  <NssssSi>
0

>  <NsPH2>
0

>  <NssPH>
0

>  <NsssP>
0

>  <NdsssP>
0

>  <NsssssP>
0

>  <NsSH>
0

>  <NdS>
0

>  <NssS>
0

>  <NaaS>
0

>  <NdssS>
0

>  <NddssS>
0

>  <NsCl>
0

>  <NsBr>
0

>  <NsI>
0

>  <fragCpx>
212.08

>  <fMF>
0.31

>  <nHBAcc>
6

>  <nHBDon>
4

>  <Kier1>
22.2

>  <Kier2>
6.75

>  <Lipinski>
1

>  <GhoseFilter>
1

>  <FilterItLogS>
-1.87

>  <VMcGowan>
284.85

>  <LabuteASA>
166.47

>  <PEOE_VSA1>
20.43

>  <PEOE_VSA2>
9.59

>  <PEOE_VSA3>
8.78

>  <PEOE_VSA4>
0

>  <PEOE_VSA5>
0

>  <PEOE_VSA6>
13

>  <PEOE_VSA7>
49.83

>  <PEOE_VSA8>
16.75

>  <PEOE_VSA9>
12.21

>  <PEOE_VSA10>
12.78

>  <PEOE_VSA11>
22.84

>  <PEOE_VSA12>
0

>  <PEOE_VSA13>
0

>  <SMR_VSA1>
38.8

>  <SMR_VSA2>
0

>  <SMR_VSA3>
0

>  <SMR_VSA4>
22.67

>  <SMR_VSA5>
62.76

>  <SMR_VSA6>
6.61

>  <SMR_VSA7>
23.8

>  <SMR_VSA8>
0

>  <SMR_VSA9>
0

>  <SlogP_VSA1>
0

>  <SlogP_VSA2>
68.25

>  <SlogP_VSA3>
9.59

>  <SlogP_VSA4>
22.67

>  <SlogP_VSA5>
33.11

>  <SlogP_VSA6>
23.8

>  <SlogP_VSA7>
0

>  <SlogP_VSA8>
0

>  <SlogP_VSA9>
0

>  <SlogP_VSA10>
8.78

>  <SlogP_VSA11>
0

>  <EState_VSA1>
70.49

>  <EState_VSA2>
24.84

>  <EState_VSA3>
0

>  <EState_VSA4>
12.15

>  <EState_VSA5>
19.92

>  <EState_VSA6>
0

>  <EState_VSA7>
0

>  <EState_VSA8>
0

>  <EState_VSA9>
0

>  <EState_VSA10>
30.02

>  <VSA_EState1>
31.95

>  <VSA_EState2>
24.16

>  <VSA_EState3>
41.99

>  <VSA_EState4>
-7.76

>  <VSA_EState5>
-3.37

>  <VSA_EState6>
0

>  <VSA_EState7>
-2.21

>  <VSA_EState8>
1.91

>  <VSA_EState9>
0

>  <apol>
58.33

>  <bpol>
30.05

>  <nRing>
4

>  <nHRing>
0

>  <naRing>
0

>  <naHRing>
0

>  <nARing 2>
4

>  <nAHRing 2>
0

>  <nFRing>
1

>  <nFHRing>
0

>  <nFaRing>
0

>  <nFaHRing>
0

>  <nFARing 2>
1

>  <nFAHRing 2>
0

>  <nRot>
2

>  <SLogP>
0.57

>  <SMR>
97.07

>  <TopoPSA(NO)>
115.06

>  <TopoPSA>
115.06

>  <JGI1>
0.33

>  <JGI2>
0.16

>  <JGI3>
0.08

>  <JGI4>
0.06

>  <JGI5>
0.04

>  <Diameter>
12

>  <Radius>
6

>  <TMWC10>
143.1

>  <TSRW10>
81.26

>  <MW>
412.17

>  <AMW>
7.49

>  <WPath>
1810

>  <WPol>
73

>  <Zagreb1>
174

>  <Zagreb2>
229

>  <mZagreb2>
6.01

>  <yes>


>  <nAR-cont>
0.199399

>  <nHA-cont>
0.785905698

>  <MWHBN>
0.492563029

>  <MWHBN-cont>
0

>  <TPSA-cont>
0.196809752

>  <pka_cont>
0.97

>  <yes.1>


>  <BBB_SCORE>
1.863924202

>  <MMFF94 Energy>
183.09

$$$$
Compound 1616
Actelion Java MolfileCreator 2.0

  0  0  0  0  0  0              0 V3000
M  V30 BEGIN CTAB
M  V30 COUNTS 52 55 0 0 0
M  V30 BEGIN ATOM
M  V30 1 Cl -0.9781 4.6527 2.0387 0
M  V30 2 C -0.1956 3.188 1.533 0
M  V30 3 C 1.2662 3.1033 1.5286 0
M  V30 4 C -0.972 2.1444 1.1995 0
M  V30 5 C 2.0404 4.1999 1.417 0
M  V30 6 C 1.8544 1.6706 1.5713 0 CFG=2
M  V30 7 C -0.4366 0.7952 0.7895 0 CFG=2
M  V30 8 C 3.5081 4.1186 1.2843 0
M  V30 9 C 3.3561 1.6779 1.31 0
M  V30 10 C 1.0923 0.8563 0.4675 0 CFG=2
M  V30 11 C 1.6873 1.1117 3.0051 0
M  V30 12 C -1.1456 0.2109 -0.4402 0 CFG=1
M  V30 13 O 4.1997 5.1274 1.2269 0
M  V30 14 C 4.1099 2.7775 1.1908 0
M  V30 15 C 1.6476 -0.542 0.0898 0 CFG=1
M  V30 16 C -0.7006 -1.2433 -0.747 0 CFG=2
M  V30 17 C -2.6693 0.1223 -0.4646 0
M  V30 18 O 1.7234 -1.3823 1.2306 0
M  V30 19 C 0.82 -1.2267 -1.0247 0
M  V30 20 C -1.6226 -1.5415 -1.9694 0 CFG=1
M  V30 21 C -1.0195 -2.2411 0.4 0
M  V30 22 C -2.9779 -0.9094 -1.5727 0
M  V30 23 O -1.1553 -0.8143 -3.1224 0
M  V30 24 C -1.6352 -3.0167 -2.4015 0
M  V30 25 O -0.6954 -3.469 -3.0718 0
M  V30 26 C -2.8141 -3.9055 -2.0346 0
M  V30 27 O -2.5392 -5.2721 -2.3107 0
M  V30 28 H -2.0529 2.2463 1.2684 0
M  V30 29 H 1.6486 5.2096 1.3682 0
M  V30 30 H -0.6105 0.1373 1.6475 0
M  V30 31 H 3.8609 0.7144 1.2814 0
M  V30 32 H 1.1964 1.4441 -0.4619 0
M  V30 33 H 2.1677 1.7714 3.7403 0
M  V30 34 H 0.6411 1.018 3.3119 0
M  V30 35 H 2.1512 0.127 3.1211 0
M  V30 36 H -0.8709 0.8559 -1.2911 0
M  V30 37 H 5.1824 2.738 1.0442 0
M  V30 38 H 2.6697 -0.4345 -0.2902 0
M  V30 39 H -3.0675 -0.2186 0.4976 0
M  V30 40 H -3.133 1.0886 -0.6892 0
M  V30 41 H 2.1375 -2.2204 0.9569 0
M  V30 42 H 1.0236 -0.6836 -1.9553 0
M  V30 43 H 1.176 -2.2533 -1.1741 0
M  V30 44 H -0.5823 -1.9558 1.3579 0
M  V30 45 H -0.6345 -3.239 0.1608 0
M  V30 46 H -2.0936 -2.344 0.5812 0
M  V30 47 H -3.7019 -1.6297 -1.1823 0
M  V30 48 H -3.4468 -0.4077 -2.4273 0
M  V30 49 H -0.4509 -1.3581 -3.5316 0
M  V30 50 H -3.0354 -3.8258 -0.9693 0
M  V30 51 H -3.6844 -3.6037 -2.6232 0
M  V30 52 H -1.9057 -5.2831 -3.0563 0
M  V30 END ATOM
M  V30 BEGIN BOND
M  V30 1 1 1 2
M  V30 2 1 2 3
M  V30 3 2 2 4
M  V30 4 2 3 5
M  V30 5 1 3 6
M  V30 6 1 4 7
M  V30 7 1 5 8
M  V30 8 1 6 9
M  V30 9 1 6 10
M  V30 10 1 6 11
M  V30 11 1 7 12
M  V30 12 2 8 13
M  V30 13 1 8 14
M  V30 14 1 10 15
M  V30 15 1 12 16
M  V30 16 1 12 17
M  V30 17 1 15 18
M  V30 18 1 15 19
M  V30 19 1 16 20
M  V30 20 1 16 21
M  V30 21 1 17 22
M  V30 22 1 20 23
M  V30 23 1 20 24
M  V30 24 2 24 25
M  V30 25 1 24 26
M  V30 26 1 26 27
M  V30 27 1 7 10
M  V30 28 2 9 14
M  V30 29 1 16 19
M  V30 30 1 20 22
M  V30 31 1 4 28
M  V30 32 1 5 29
M  V30 33 1 7 30
M  V30 34 1 9 31
M  V30 35 1 10 32
M  V30 36 1 11 33
M  V30 37 1 11 34
M  V30 38 1 11 35
M  V30 39 1 12 36
M  V30 40 1 14 37
M  V30 41 1 15 38
M  V30 42 1 17 39
M  V30 43 1 17 40
M  V30 44 1 18 41
M  V30 45 1 19 42
M  V30 46 1 19 43
M  V30 47 1 21 44
M  V30 48 1 21 45
M  V30 49 1 21 46
M  V30 50 1 22 47
M  V30 51 1 22 48
M  V30 52 1 23 49
M  V30 53 1 26 50
M  V30 54 1 26 51
M  V30 55 1 27 52
M  V30 END BOND
M  V30 BEGIN COLLECTION
M  V30 MDLV30/STEABS ATOMS=(7 6 7 10 12 15 16 20)
M  V30 END COLLECTION
M  V30 END CTAB
M  END
>  <Column 1>
1963

>  <level_0>
2133

>  <index>
2133

>  <Unnamed: 0>
2133

>  <NO.>
2145

>  <Name>
cloprednol

>  <IUPAC_name>
(8s-9s-10r-11s-13s-14s-17r)-6-chloro-11-17-dihydroxy-17-(2-hydroxyacetyl)-10-13-dimethyl-9-11-12-14-15-16-hexahydro-8h-cyclopenta[a]phenanthren-3-one

>  <SMILES>
C[C@]12C[C@H](O)[C@H]3[C@@H](C=C(Cl)C4=CC(=O)C=C[C@@]43C)[C@@H]1CC[C@]2(O)C(=O)CO

>  <CID>
5284535

>  <logBB>


>  <BBB+/BBB->
BBB+

>  <Inchi>
InChI=1S/C21H25ClO5/c1-19-5-3-11(24)7-14(19)15(22)8-12-13-4-6-21(27-17(26)10-23)20(13-2)9-16(25)18(12)19/h3-5-7-8-12-13-16-18-23-25-27H-4-6-9-10H2-1-2H3/t12--13--16--18+-19--20--21-/m0/s1

>  <threshold>
-1

>  <reference>
R1|R27|R30|

>  <group>
B

>  <Class>
1

>  <ABC>
21.62

>  <ABCGG>
18.09

>  <nAcid>
0

>  <nBase>
0

>  <nAromAtom>
0

>  <nAromBond>
0

>  <nAtom>
52

>  <nHeavyAtom>
27

>  <nSpiro>
0

>  <nBridgehead>
0

>  <nHetero>
6

>  <nN>
0

>  <nO>
5

>  <nF>
0

>  <BalabanJ>
1.71

>  <BertzCT>
813.39

>  <nBonds>
55

>  <nBondsO>
30

>  <nBondsS>
50

>  <nBondsD>
5

>  <nBondsT>
0

>  <nBondsA>
0

>  <nBondsM>
5

>  <nBondsKS>
50

>  <nBondsKD>
5

>  <RNCG>
0.18

>  <RPCG>
0.09

>  <FCSP3>
0.62

>  <SZ>
34.67

>  <Sm>
32.71

>  <Sv>
32.44

>  <Sse>
52.52

>  <Sp>
34.69

>  <Si>
58.39

>  <MZ>
0.67

>  <Mm>
0.63

>  <Mv>
0.62

>  <Mse>
1.01

>  <Mp>
0.67

>  <Mi>
1.12

>  <NsCH3>
2

>  <NdCH2>
0

>  <NssCH2>
4

>  <NtCH>
0

>  <NdsCH>
4

>  <NaaCH>
0

>  <NsssCH>
4

>  <NddC>
0

>  <NtsC>
0

>  <NdssC>
4

>  <NaasC>
0

>  <NaaaC>
0

>  <NssssC>
3

>  <NsNH3>
0

>  <NsNH2>
0

>  <NssNH2>
0

>  <NdNH>
0

>  <NssNH>
0

>  <NaaNH>
0

>  <NtN>
0

>  <NsssNH>
0

>  <NdsN>
0

>  <NaaN>
0

>  <NsssN>
0

>  <NddsN>
0

>  <NaasN>
0

>  <NssssN>
0

>  <NsOH>
3

>  <NdO>
2

>  <NssO>
0

>  <NaaO>
0

>  <NsF>
0

>  <NsSiH3>
0

>  <NssSiH2>
0

>  <NsssSiH>
0

>  <NssssSi>
0

>  <NsPH2>
0

>  <NssPH>
0

>  <NsssP>
0

>  <NdsssP>
0

>  <NsssssP>
0

>  <NsSH>
0

>  <NdS>
0

>  <NssS>
0

>  <NaaS>
0

>  <NdssS>
0

>  <NddssS>
0

>  <NsCl>
1

>  <NsBr>
0

>  <NsI>
0

>  <fragCpx>
198.06

>  <fMF>
0.33

>  <nHBAcc>
5

>  <nHBDon>
3

>  <Kier1>
20.28

>  <Kier2>
6.5

>  <Lipinski>
1

>  <GhoseFilter>
1

>  <FilterItLogS>
-2.51

>  <VMcGowan>
283.4

>  <LabuteASA>
162.95

>  <PEOE_VSA1>
15.32

>  <PEOE_VSA2>
9.59

>  <PEOE_VSA3>
0

>  <PEOE_VSA4>
0

>  <PEOE_VSA5>
0

>  <PEOE_VSA6>
37.6

>  <PEOE_VSA7>
48.82

>  <PEOE_VSA8>
21.78

>  <PEOE_VSA9>
6.1

>  <PEOE_VSA10>
12.21

>  <PEOE_VSA11>
11.57

>  <PEOE_VSA12>
0

>  <PEOE_VSA13>
0

>  <SMR_VSA1>
24.91

>  <SMR_VSA2>
0

>  <SMR_VSA3>
0

>  <SMR_VSA4>
28.58

>  <SMR_VSA5>
44.81

>  <SMR_VSA6>
6.61

>  <SMR_VSA7>
34.91

>  <SMR_VSA8>
0

>  <SMR_VSA9>
0

>  <SlogP_VSA1>
0

>  <SlogP_VSA2>
45.2

>  <SlogP_VSA3>
9.59

>  <SlogP_VSA4>
28.58

>  <SlogP_VSA5>
33.11

>  <SlogP_VSA6>
34.91

>  <SlogP_VSA7>
0

>  <SlogP_VSA8>
0

>  <SlogP_VSA9>
0

>  <SlogP_VSA10>
0

>  <SlogP_VSA11>
0

>  <EState_VSA1>
34.93

>  <EState_VSA2>
36.38

>  <EState_VSA3>
11.45

>  <EState_VSA4>
5.57

>  <EState_VSA5>
12.15

>  <EState_VSA6>
0

>  <EState_VSA7>
26

>  <EState_VSA8>
0

>  <EState_VSA9>
11.6

>  <EState_VSA10>
24.91

>  <VSA_EState1>
0

>  <VSA_EState2>
24.24

>  <VSA_EState3>
32.2

>  <VSA_EState4>
-2.34

>  <VSA_EState5>
-1.08

>  <VSA_EState6>
0

>  <VSA_EState7>
7.16

>  <VSA_EState8>
3.11

>  <VSA_EState9>
0

>  <apol>
57.93

>  <bpol>
27.33

>  <nRing>
4

>  <nHRing>
0

>  <naRing>
0

>  <naHRing>
0

>  <nARing 2>
4

>  <nAHRing 2>
0

>  <nFRing>
1

>  <nFHRing>
0

>  <nFaRing>
0

>  <nFaHRing>
0

>  <nFARing 2>
1

>  <nFAHRing 2>
0

>  <nRot>
2

>  <SLogP>
1.9

>  <SMR>
99.75

>  <TopoPSA(NO)>
94.83

>  <TopoPSA>
94.83

>  <JGI1>
0.3

>  <JGI2>
0.14

>  <JGI3>
0.08

>  <JGI4>
0.06

>  <JGI5>
0.04

>  <Diameter>
12

>  <Radius>
6

>  <TMWC10>
137.64

>  <TSRW10>
78.39

>  <MW>
392.14

>  <AMW>
7.54

>  <WPath>
1553

>  <WPol>
62

>  <Zagreb1>
160

>  <Zagreb2>
206

>  <mZagreb2>
5.63

>  <yes>


>  <nAR-cont>
0.199399

>  <nHA-cont>
0.860070871

>  <MWHBN>
0.403988883

>  <MWHBN-cont>
0.460376392

>  <TPSA-cont>
0.338027714

>  <pka_cont>
0.97

>  <yes.1>


>  <BBB_SCORE>
2.911089888

>  <MMFF94 Energy>
117.81

$$$$
Compound 1617
Actelion Java MolfileCreator 2.0

  0  0  0  0  0  0              0 V3000
M  V30 BEGIN CTAB
M  V30 COUNTS 65 68 0 0 0
M  V30 BEGIN ATOM
M  V30 1 O 5.9718 1.1277 5.0015 0
M  V30 2 C 5.0229 0.5887 4.4462 0
M  V30 3 C 3.6861 0.5494 5.0723 0
M  V30 4 C 5.1667 -0.0401 3.1204 0
M  V30 5 C 2.6379 -0.042 4.4718 0
M  V30 6 C 4.1244 -0.6311 2.5214 0
M  V30 7 C 2.717 -0.7339 3.1018 0 CFG=2
M  V30 8 C 1.274 -0.0074 5.1114 0
M  V30 9 C 1.6821 -0.0097 2.1564 0 CFG=1
M  V30 10 C 2.4441 -2.2409 3.3063 0
M  V30 11 C 0.2768 0.6795 4.1861 0
M  V30 12 C 1.6504 -0.5036 0.6806 0 CFG=1
M  V30 13 C 0.2463 0.0466 2.7824 0 CFG=1
M  V30 14 O 1.4181 -1.9034 0.611 0
M  V30 15 C 0.6042 0.2274 -0.189 0
M  V30 16 C -0.6681 0.8527 1.8468 0 CFG=1
M  V30 17 C -0.8124 0.2436 0.4297 0 CFG=1
M  V30 18 C -2.1066 1.1029 2.279 0
M  V30 19 C -1.8321 1.2544 -0.1891 0 CFG=1
M  V30 20 C -1.4337 -1.179 0.4398 0
M  V30 21 C -2.8242 1.5208 0.9829 0
M  V30 22 O -1.171 2.4894 -0.4956 0
M  V30 23 C -2.5529 0.7896 -1.4764 0
M  V30 24 O -3.7802 0.6699 -1.5226 0
M  V30 25 C -1.6784 0.5172 -2.6962 0
M  V30 26 O -2.472 0.461 -3.8835 0
M  V30 27 C -1.7872 0.0562 -4.9861 0
M  V30 28 O -0.5997 -0.2353 -4.9999 0
M  V30 29 C -2.7077 0.0279 -6.177 0
M  V30 30 C -1.9806 -0.4619 -7.4227 0
M  V30 31 C -2.9004 -0.4838 -8.6077 0
M  V30 32 O -4.0663 -0.131 -8.6431 0
M  V30 33 O -2.2902 -0.9545 -9.7117 0
M  V30 34 H 3.6109 1.0439 6.0341 0
M  V30 35 H 6.1537 -0.0076 2.676 0
M  V30 36 H 4.3002 -1.1084 1.5598 0
M  V30 37 H 1.2955 0.527 6.0692 0
M  V30 38 H 0.9409 -1.0265 5.3381 0
M  V30 39 H 2.0168 1.04 2.0895 0
M  V30 40 H 2.7225 -2.8376 2.431 0
M  V30 41 H 3.0325 -2.638 4.1442 0
M  V30 42 H 1.3933 -2.4533 3.5251 0
M  V30 43 H 0.5309 1.7451 4.1071 0
M  V30 44 H -0.7183 0.6267 4.6433 0
M  V30 45 H 2.6306 -0.3259 0.2241 0
M  V30 46 H -0.1461 -0.9691 2.8931 0
M  V30 47 H 1.5355 -2.18 -0.3148 0
M  V30 48 H 0.9594 1.2545 -0.3383 0
M  V30 49 H 0.5743 -0.2413 -1.1777 0
M  V30 50 H -0.204 1.8485 1.7524 0
M  V30 51 H -2.1778 1.8882 3.0387 0
M  V30 52 H -2.5636 0.198 2.6953 0
M  V30 53 H -0.9378 -1.861 1.1328 0
M  V30 54 H -1.3762 -1.6369 -0.553 0
M  V30 55 H -2.491 -1.172 0.7246 0
M  V30 56 H -3.1062 2.5786 1.0389 0
M  V30 57 H -3.7502 0.9418 0.8975 0
M  V30 58 H -1.8575 3.1702 -0.6269 0
M  V30 59 H -0.9479 1.3252 -2.8006 0
M  V30 60 H -1.1814 -0.4447 -2.5456 0
M  V30 61 H -3.0935 1.0409 -6.3394 0
M  V30 62 H -3.5495 -0.6361 -5.9494 0
M  V30 63 H -1.1366 0.1982 -7.6525 0
M  V30 64 H -1.5992 -1.4764 -7.2601 0
M  V30 65 H -2.9814 -0.9183 -10.4061 0
M  V30 END ATOM
M  V30 BEGIN BOND
M  V30 1 2 1 2
M  V30 2 1 2 3
M  V30 3 1 2 4
M  V30 4 2 3 5
M  V30 5 2 4 6
M  V30 6 1 5 7
M  V30 7 1 5 8
M  V30 8 1 7 9
M  V30 9 1 7 10
M  V30 10 1 8 11
M  V30 11 1 9 12
M  V30 12 1 9 13
M  V30 13 1 12 14
M  V30 14 1 12 15
M  V30 15 1 13 16
M  V30 16 1 15 17
M  V30 17 1 16 18
M  V30 18 1 17 19
M  V30 19 1 17 20
M  V30 20 1 18 21
M  V30 21 1 19 22
M  V30 22 1 19 23
M  V30 23 2 23 24
M  V30 24 1 23 25
M  V30 25 1 25 26
M  V30 26 1 26 27
M  V30 27 2 27 28
M  V30 28 1 27 29
M  V30 29 1 29 30
M  V30 30 1 30 31
M  V30 31 2 31 32
M  V30 32 1 31 33
M  V30 33 1 6 7
M  V30 34 1 11 13
M  V30 35 1 16 17
M  V30 36 1 19 21
M  V30 37 1 3 34
M  V30 38 1 4 35
M  V30 39 1 6 36
M  V30 40 1 8 37
M  V30 41 1 8 38
M  V30 42 1 9 39
M  V30 43 1 10 40
M  V30 44 1 10 41
M  V30 45 1 10 42
M  V30 46 1 11 43
M  V30 47 1 11 44
M  V30 48 1 12 45
M  V30 49 1 13 46
M  V30 50 1 14 47
M  V30 51 1 15 48
M  V30 52 1 15 49
M  V30 53 1 16 50
M  V30 54 1 18 51
M  V30 55 1 18 52
M  V30 56 1 20 53
M  V30 57 1 20 54
M  V30 58 1 20 55
M  V30 59 1 21 56
M  V30 60 1 21 57
M  V30 61 1 22 58
M  V30 62 1 25 59
M  V30 63 1 25 60
M  V30 64 1 29 61
M  V30 65 1 29 62
M  V30 66 1 30 63
M  V30 67 1 30 64
M  V30 68 1 33 65
M  V30 END BOND
M  V30 BEGIN COLLECTION
M  V30 MDLV30/STEABS ATOMS=(7 7 9 12 13 16 17 19)
M  V30 END COLLECTION
M  V30 END CTAB
M  END
>  <Column 1>
1964

>  <level_0>
2134

>  <index>
2134

>  <Unnamed: 0>
2134

>  <NO.>
2146

>  <Name>
prednisolone hemisuccinate

>  <IUPAC_name>
sodium;4-[2-[(8s-9s-10r-11s-13s-14s-17r)-11-17-dihydroxy-10-13-dimethyl-3-oxo-7-8-9-11-12-14-15-16-octahydro-6h-cyclopenta[a]phenanthren-17-yl]-2-oxoethoxy]-4-oxobutanoate

>  <SMILES>
C[C@]12C[C@H](O)[C@H]3[C@@H](CCC4=CC(=O)C=C[C@@]43C)[C@@H]1CC[C@]2(O)C(=O)COC(=O)CCC(=O)O

>  <CID>
656804

>  <logBB>


>  <BBB+/BBB->
BBB+

>  <Inchi>
InChI=1S/C25H32O8/c1-23-9-7-15(26)11-14(23)3-4-16-17-8-10-25(32-24(17-2)12-18(27)22(16)23)19(28)13-33-21(31)6-5-20(29)30/h7-9-11-16-18-22-27-32H-3-6-8-10-12-13H2-1-2H3-(H-29-30)/t16--17--18--22+-23--24--25-/m0/s1

>  <threshold>
-1

>  <reference>
R1|R6|R27|R30|

>  <group>
B

>  <Class>
-1

>  <ABC>
26.13

>  <ABCGG>
20.66

>  <nAcid>
1

>  <nBase>
0

>  <nAromAtom>
0

>  <nAromBond>
0

>  <nAtom>
65

>  <nHeavyAtom>
33

>  <nSpiro>
0

>  <nBridgehead>
0

>  <nHetero>
8

>  <nN>
0

>  <nO>
8

>  <nF>
0

>  <BalabanJ>
1.48

>  <BertzCT>
950.05

>  <nBonds>
68

>  <nBondsO>
36

>  <nBondsS>
62

>  <nBondsD>
6

>  <nBondsT>
0

>  <nBondsA>
0

>  <nBondsM>
6

>  <nBondsKS>
62

>  <nBondsKD>
6

>  <RNCG>
0.15

>  <RPCG>
0.09

>  <FCSP3>
0.68

>  <SZ>
41

>  <Sm>
38.34

>  <Sv>
39.39

>  <Sse>
65.85

>  <Sp>
41.62

>  <Si>
73.32

>  <MZ>
0.63

>  <Mm>
0.59

>  <Mv>
0.61

>  <Mse>
1.01

>  <Mp>
0.64

>  <Mi>
1.13

>  <NsCH3>
2

>  <NdCH2>
0

>  <NssCH2>
8

>  <NtCH>
0

>  <NdsCH>
3

>  <NaaCH>
0

>  <NsssCH>
4

>  <NddC>
0

>  <NtsC>
0

>  <NdssC>
5

>  <NaasC>
0

>  <NaaaC>
0

>  <NssssC>
3

>  <NsNH3>
0

>  <NsNH2>
0

>  <NssNH2>
0

>  <NdNH>
0

>  <NssNH>
0

>  <NaaNH>
0

>  <NtN>
0

>  <NsssNH>
0

>  <NdsN>
0

>  <NaaN>
0

>  <NsssN>
0

>  <NddsN>
0

>  <NaasN>
0

>  <NssssN>
0

>  <NsOH>
3

>  <NdO>
4

>  <NssO>
1

>  <NaaO>
0

>  <NsF>
0

>  <NsSiH3>
0

>  <NssSiH2>
0

>  <NsssSiH>
0

>  <NssssSi>
0

>  <NsPH2>
0

>  <NssPH>
0

>  <NsssP>
0

>  <NdsssP>
0

>  <NsssssP>
0

>  <NsSH>
0

>  <NdS>
0

>  <NssS>
0

>  <NaaS>
0

>  <NdssS>
0

>  <NddssS>
0

>  <NsCl>
0

>  <NsBr>
0

>  <NsI>
0

>  <fragCpx>
240.08

>  <fMF>
0.26

>  <nHBAcc>
7

>  <nHBDon>
3

>  <Kier1>
26.07

>  <Kier2>
9.47

>  <Lipinski>
1

>  <GhoseFilter>
1

>  <FilterItLogS>
-2.53

>  <VMcGowan>
340.83

>  <LabuteASA>
192.24

>  <PEOE_VSA1>
20.06

>  <PEOE_VSA2>
19.18

>  <PEOE_VSA3>
0

>  <PEOE_VSA4>
0

>  <PEOE_VSA5>
0

>  <PEOE_VSA6>
25.5

>  <PEOE_VSA7>
56.09

>  <PEOE_VSA8>
16.75

>  <PEOE_VSA9>
18.95

>  <PEOE_VSA10>
5.6

>  <PEOE_VSA11>
12.39

>  <PEOE_VSA12>
5.78

>  <PEOE_VSA13>
0

>  <SMR_VSA1>
39.23

>  <SMR_VSA2>
0

>  <SMR_VSA3>
0

>  <SMR_VSA4>
28.58

>  <SMR_VSA5>
70.5

>  <SMR_VSA6>
6.61

>  <SMR_VSA7>
23.8

>  <SMR_VSA8>
0

>  <SMR_VSA9>
0

>  <SlogP_VSA1>
0

>  <SlogP_VSA2>
57.14

>  <SlogP_VSA3>
23.92

>  <SlogP_VSA4>
28.58

>  <SlogP_VSA5>
58.79

>  <SlogP_VSA6>
23.8

>  <SlogP_VSA7>
0

>  <SlogP_VSA8>
0

>  <SlogP_VSA9>
0

>  <SlogP_VSA10>
0

>  <SlogP_VSA11>
0

>  <EState_VSA1>
46.86

>  <EState_VSA2>
49.22

>  <EState_VSA3>
6.42

>  <EState_VSA4>
18.41

>  <EState_VSA5>
0

>  <EState_VSA6>
12.15

>  <EState_VSA7>
13

>  <EState_VSA8>
6.92

>  <EState_VSA9>
9.84

>  <EState_VSA10>
29.39

>  <VSA_EState1>
4.96

>  <VSA_EState2>
47.38

>  <VSA_EState3>
31.58

>  <VSA_EState4>
-1.99

>  <VSA_EState5>
-2.58

>  <VSA_EState6>
0

>  <VSA_EState7>
6.27

>  <VSA_EState8>
3.3

>  <VSA_EState9>
0

>  <apol>
69.5

>  <bpol>
37.31

>  <nRing>
4

>  <nHRing>
0

>  <naRing>
0

>  <naHRing>
0

>  <nARing 2>
4

>  <nAHRing 2>
0

>  <nFRing>
1

>  <nFHRing>
0

>  <nFaRing>
0

>  <nFaHRing>
0

>  <nFARing 2>
1

>  <nFAHRing 2>
0

>  <nRot>
6

>  <SLogP>
1.97

>  <SMR>
115.79

>  <TopoPSA(NO)>
138.2

>  <TopoPSA>
138.2

>  <JGI1>
0.29

>  <JGI2>
0.13

>  <JGI3>
0.07

>  <JGI4>
0.06

>  <JGI5>
0.03

>  <Diameter>
17

>  <Radius>
9

>  <TMWC10>
150.11

>  <TSRW10>
84.87

>  <MW>
460.21

>  <AMW>
7.08

>  <WPath>
3169

>  <WPol>
67

>  <Zagreb1>
186

>  <Zagreb2>
231

>  <mZagreb2>
6.94

>  <yes>


>  <nAR-cont>
0.199399

>  <nHA-cont>
0.61399562

>  <MWHBN>
0.466146013

>  <MWHBN-cont>
0

>  <TPSA-cont>
0

>  <pka_cont>
0.97

>  <yes.1>


>  <BBB_SCORE>
1.29839462

>  <MMFF94 Energy>
70.265

$$$$
Compound 1618
Actelion Java MolfileCreator 2.0

  0  0  0  0  0  0              0 V3000
M  V30 BEGIN CTAB
M  V30 COUNTS 67 70 0 0 0
M  V30 BEGIN ATOM
M  V30 1 O -2.7372 -1.1264 6.773 0
M  V30 2 C -2.2744 -0.5187 5.8114 0
M  V30 3 C -0.9302 0.0967 5.9112 0
M  V30 4 C -2.9721 -0.4623 4.4763 0
M  V30 5 C -0.4263 0.8322 4.9045 0
M  V30 6 C -2.7159 0.8855 3.8246 0
M  V30 7 C -1.2073 1.2179 3.6392 0 CFG=2
M  V30 8 C 1.0344 1.2055 4.8937 0
M  V30 9 C -0.5286 0.4077 2.4708 0 CFG=1
M  V30 10 C -1.1452 2.7544 3.4422 0
M  V30 11 C 1.7201 0.4913 3.7286 0
M  V30 12 C -1.2294 0.4921 1.0868 0 CFG=1
M  V30 13 C 1.0095 0.7129 2.3753 0 CFG=1
M  V30 14 O -1.3987 1.8412 0.6789 0
M  V30 15 C -0.4916 -0.2893 -0.0222 0
M  V30 16 C 1.6176 -0.1822 1.2854 0 CFG=1
M  V30 17 C 1.0138 0.048 -0.1237 0 CFG=1
M  V30 18 C 3.12 -0.1138 1.0496 0
M  V30 19 C 1.8956 -0.942 -0.9519 0 CFG=1
M  V30 20 C 1.2248 1.494 -0.6478 0
M  V30 21 C 3.3151 -0.7545 -0.3362 0
M  V30 22 O 1.4818 -2.292 -0.7 0
M  V30 23 C 1.8878 -0.7396 -2.4854 0
M  V30 24 O 2.9196 -0.4724 -3.1071 0
M  V30 25 C 0.5509 -0.9187 -3.1979 0
M  V30 26 O 0.7461 -1.0721 -4.6053 0
M  V30 27 C -0.4075 -1.0756 -5.3249 0
M  V30 28 O -1.5274 -0.9667 -4.8457 0
M  V30 29 C -0.0958 -1.2382 -6.7887 0
M  V30 30 C -1.366 -1.203 -7.629 0
M  V30 31 C -1.0507 -1.3703 -9.086 0
M  V30 32 O 0.0442 -1.5555 -9.5873 0
M  V30 33 O -2.1552 -1.2987 -9.8529 0
M  V30 34 H -0.3573 -0.1753 6.7906 0
M  V30 35 H -4.0481 -0.5861 4.6409 0
M  V30 36 H -2.6218 -1.2917 3.8545 0
M  V30 37 H -3.1743 1.6512 4.4688 0
M  V30 38 H -3.2567 0.9471 2.8746 0
M  V30 39 H 1.1558 2.2905 4.8086 0
M  V30 40 H 1.529 0.9164 5.8291 0
M  V30 41 H -0.5989 -0.6564 2.7497 0
M  V30 42 H -0.1659 3.1116 3.1145 0
M  V30 43 H -1.3772 3.2767 4.3794 0
M  V30 44 H -1.8803 3.0982 2.7072 0
M  V30 45 H 1.7628 -0.5845 3.9464 0
M  V30 46 H 2.7583 0.8383 3.6663 0
M  V30 47 H -2.2331 0.0609 1.1721 0
M  V30 48 H 1.1606 1.7618 2.1038 0
M  V30 49 H -1.9683 1.8453 -0.1103 0
M  V30 50 H -0.6215 -1.3583 0.1866 0
M  V30 51 H -0.9836 -0.0944 -0.9804 0
M  V30 52 H 1.4058 -1.2203 1.5905 0
M  V30 53 H 3.682 -0.6559 1.8172 0
M  V30 54 H 3.4792 0.9215 1.0467 0
M  V30 55 H 0.6644 1.6591 -1.5739 0
M  V30 56 H 0.9002 2.2603 0.0584 0
M  V30 57 H 2.275 1.7096 -0.8702 0
M  V30 58 H 3.9553 -0.0972 -0.9345 0
M  V30 59 H 3.8385 -1.7119 -0.2324 0
M  V30 60 H 2.1929 -2.8837 -1.0098 0
M  V30 61 H 0.0572 -1.8158 -2.8122 0
M  V30 62 H -0.0527 -0.0267 -3.0104 0
M  V30 63 H 0.4217 -2.1943 -6.9272 0
M  V30 64 H 0.5764 -0.4275 -7.0926 0
M  V30 65 H -2.0422 -2.0107 -7.3267 0
M  V30 66 H -1.88 -0.2447 -7.4924 0
M  V30 67 H -1.825 -1.4224 -10.7676 0
M  V30 END ATOM
M  V30 BEGIN BOND
M  V30 1 2 1 2
M  V30 2 1 2 3
M  V30 3 1 2 4
M  V30 4 2 3 5
M  V30 5 1 4 6
M  V30 6 1 5 7
M  V30 7 1 5 8
M  V30 8 1 7 9
M  V30 9 1 7 10
M  V30 10 1 8 11
M  V30 11 1 9 12
M  V30 12 1 9 13
M  V30 13 1 12 14
M  V30 14 1 12 15
M  V30 15 1 13 16
M  V30 16 1 15 17
M  V30 17 1 16 18
M  V30 18 1 17 19
M  V30 19 1 17 20
M  V30 20 1 18 21
M  V30 21 1 19 22
M  V30 22 1 19 23
M  V30 23 2 23 24
M  V30 24 1 23 25
M  V30 25 1 25 26
M  V30 26 1 26 27
M  V30 27 2 27 28
M  V30 28 1 27 29
M  V30 29 1 29 30
M  V30 30 1 30 31
M  V30 31 2 31 32
M  V30 32 1 31 33
M  V30 33 1 6 7
M  V30 34 1 11 13
M  V30 35 1 16 17
M  V30 36 1 19 21
M  V30 37 1 3 34
M  V30 38 1 4 35
M  V30 39 1 4 36
M  V30 40 1 6 37
M  V30 41 1 6 38
M  V30 42 1 8 39
M  V30 43 1 8 40
M  V30 44 1 9 41
M  V30 45 1 10 42
M  V30 46 1 10 43
M  V30 47 1 10 44
M  V30 48 1 11 45
M  V30 49 1 11 46
M  V30 50 1 12 47
M  V30 51 1 13 48
M  V30 52 1 14 49
M  V30 53 1 15 50
M  V30 54 1 15 51
M  V30 55 1 16 52
M  V30 56 1 18 53
M  V30 57 1 18 54
M  V30 58 1 20 55
M  V30 59 1 20 56
M  V30 60 1 20 57
M  V30 61 1 21 58
M  V30 62 1 21 59
M  V30 63 1 22 60
M  V30 64 1 25 61
M  V30 65 1 25 62
M  V30 66 1 29 63
M  V30 67 1 29 64
M  V30 68 1 30 65
M  V30 69 1 30 66
M  V30 70 1 33 67
M  V30 END BOND
M  V30 BEGIN COLLECTION
M  V30 MDLV30/STEABS ATOMS=(7 7 9 12 13 16 17 19)
M  V30 END COLLECTION
M  V30 END CTAB
M  END
>  <Column 1>
1965

>  <level_0>
2136

>  <index>
2136

>  <Unnamed: 0>
2136

>  <NO.>
2148

>  <Name>
hydrocortisone-hemisuccinate

>  <IUPAC_name>
4-[2-[(8s-9s-10r-11s-13s-14s-17r)-11-17-dihydroxy-10-13-dimethyl-3-oxo-2-6-7-8-9-11-12-14-15-16-decahydro-1h-cyclopenta[a]phenanthren-17-yl]-2-oxoethoxy]-4-oxobutanoic acid;hydrate

>  <SMILES>
C[C@]12C[C@H](O)[C@H]3[C@@H](CCC4=CC(=O)CC[C@@]43C)[C@@H]1CC[C@]2(O)C(=O)COC(=O)CCC(=O)O

>  <CID>
16623

>  <logBB>


>  <BBB+/BBB->
BBB+

>  <Inchi>
InChI=1S/C25H34O8/c1-23-9-7-15(26)11-14(23)3-4-16-17-8-10-25(32-24(17-2)12-18(27)22(16)23)19(28)13-33-21(31)6-5-20(29)30/h11-16-18-22-27-32H-3-10-12-13H2-1-2H3-(H-29-30)/t16--17--18--22+-23--24--25-/m0/s1

>  <threshold>
-1

>  <reference>
R1|R6|R27|R30|

>  <group>
B

>  <Class>
1

>  <ABC>
26.13

>  <ABCGG>
20.66

>  <nAcid>
1

>  <nBase>
0

>  <nAromAtom>
0

>  <nAromBond>
0

>  <nAtom>
67

>  <nHeavyAtom>
33

>  <nSpiro>
0

>  <nBridgehead>
0

>  <nHetero>
8

>  <nN>
0

>  <nO>
8

>  <nF>
0

>  <BalabanJ>
1.48

>  <BertzCT>
908.08

>  <nBonds>
70

>  <nBondsO>
36

>  <nBondsS>
65

>  <nBondsD>
5

>  <nBondsT>
0

>  <nBondsA>
0

>  <nBondsM>
5

>  <nBondsKS>
65

>  <nBondsKD>
5

>  <RNCG>
0.15

>  <RPCG>
0.09

>  <FCSP3>
0.76

>  <SZ>
41.33

>  <Sm>
38.51

>  <Sv>
39.93

>  <Sse>
67.74

>  <Sp>
42.42

>  <Si>
75.74

>  <MZ>
0.62

>  <Mm>
0.57

>  <Mv>
0.6

>  <Mse>
1.01

>  <Mp>
0.63

>  <Mi>
1.13

>  <NsCH3>
2

>  <NdCH2>
0

>  <NssCH2>
10

>  <NtCH>
0

>  <NdsCH>
1

>  <NaaCH>
0

>  <NsssCH>
4

>  <NddC>
0

>  <NtsC>
0

>  <NdssC>
5

>  <NaasC>
0

>  <NaaaC>
0

>  <NssssC>
3

>  <NsNH3>
0

>  <NsNH2>
0

>  <NssNH2>
0

>  <NdNH>
0

>  <NssNH>
0

>  <NaaNH>
0

>  <NtN>
0

>  <NsssNH>
0

>  <NdsN>
0

>  <NaaN>
0

>  <NsssN>
0

>  <NddsN>
0

>  <NaasN>
0

>  <NssssN>
0

>  <NsOH>
3

>  <NdO>
4

>  <NssO>
1

>  <NaaO>
0

>  <NsF>
0

>  <NsSiH3>
0

>  <NssSiH2>
0

>  <NsssSiH>
0

>  <NssssSi>
0

>  <NsPH2>
0

>  <NssPH>
0

>  <NsssP>
0

>  <NdsssP>
0

>  <NsssssP>
0

>  <NsSH>
0

>  <NdS>
0

>  <NssS>
0

>  <NaaS>
0

>  <NdssS>
0

>  <NddssS>
0

>  <NsCl>
0

>  <NsBr>
0

>  <NsI>
0

>  <fragCpx>
240.08

>  <fMF>
0.25

>  <nHBAcc>
7

>  <nHBDon>
3

>  <Kier1>
26.07

>  <Kier2>
9.47

>  <Lipinski>
1

>  <GhoseFilter>
1

>  <FilterItLogS>
-2.99

>  <VMcGowan>
345.13

>  <LabuteASA>
192.93

>  <PEOE_VSA1>
20.06

>  <PEOE_VSA2>
19.18

>  <PEOE_VSA3>
0

>  <PEOE_VSA4>
0

>  <PEOE_VSA5>
0

>  <PEOE_VSA6>
19.42

>  <PEOE_VSA7>
67.77

>  <PEOE_VSA8>
11.84

>  <PEOE_VSA9>
18.95

>  <PEOE_VSA10>
5.6

>  <PEOE_VSA11>
12.39

>  <PEOE_VSA12>
5.78

>  <PEOE_VSA13>
0

>  <SMR_VSA1>
39.23

>  <SMR_VSA2>
0

>  <SMR_VSA3>
0

>  <SMR_VSA4>
28.58

>  <SMR_VSA5>
83.34

>  <SMR_VSA6>
6.61

>  <SMR_VSA7>
11.65

>  <SMR_VSA8>
0

>  <SMR_VSA9>
0

>  <SlogP_VSA1>
0

>  <SlogP_VSA2>
57.14

>  <SlogP_VSA3>
23.92

>  <SlogP_VSA4>
28.58

>  <SlogP_VSA5>
71.63

>  <SlogP_VSA6>
11.65

>  <SlogP_VSA7>
0

>  <SlogP_VSA8>
0

>  <SlogP_VSA9>
0

>  <SlogP_VSA10>
0

>  <SlogP_VSA11>
0

>  <EState_VSA1>
41.45

>  <EState_VSA2>
54.64

>  <EState_VSA3>
12.84

>  <EState_VSA4>
24.84

>  <EState_VSA5>
0

>  <EState_VSA6>
6.08

>  <EState_VSA7>
6.92

>  <EState_VSA8>
6.92

>  <EState_VSA9>
9.84

>  <EState_VSA10>
29.39

>  <VSA_EState1>
4.97

>  <VSA_EState2>
47.49

>  <VSA_EState3>
31.63

>  <VSA_EState4>
-1.68

>  <VSA_EState5>
-2.2

>  <VSA_EState6>
0

>  <VSA_EState7>
4.3

>  <VSA_EState8>
3.41

>  <VSA_EState9>
0

>  <apol>
70.84

>  <bpol>
39.32

>  <nRing>
4

>  <nHRing>
0

>  <naRing>
0

>  <naHRing>
0

>  <nARing 2>
4

>  <nAHRing 2>
0

>  <nFRing>
1

>  <nFHRing>
0

>  <nFaRing>
0

>  <nFaHRing>
0

>  <nFARing 2>
1

>  <nFAHRing 2>
0

>  <nRot>
6

>  <SLogP>
2.2

>  <SMR>
115.89

>  <TopoPSA(NO)>
138.2

>  <TopoPSA>
138.2

>  <JGI1>
0.29

>  <JGI2>
0.13

>  <JGI3>
0.07

>  <JGI4>
0.06

>  <JGI5>
0.03

>  <Diameter>
17

>  <Radius>
9

>  <TMWC10>
150.11

>  <TSRW10>
84.87

>  <MW>
462.23

>  <AMW>
6.9

>  <WPath>
3169

>  <WPol>
67

>  <Zagreb1>
186

>  <Zagreb2>
231

>  <mZagreb2>
6.94

>  <yes>


>  <nAR-cont>
0.199399

>  <nHA-cont>
0.61399562

>  <MWHBN>
0.465126341

>  <MWHBN-cont>
0

>  <TPSA-cont>
0

>  <pka_cont>
0.97

>  <yes.1>


>  <BBB_SCORE>
1.29839462

>  <MMFF94 Energy>
67.893

$$$$
Compound 1619
Actelion Java MolfileCreator 2.0

  0  0  0  0  0  0              0 V3000
M  V30 BEGIN CTAB
M  V30 COUNTS 56 59 0 0 0
M  V30 BEGIN ATOM
M  V30 1 S -0.6507 0.2439 5.4599 0
M  V30 2 C -1.569 1.4902 4.5259 0
M  V30 3 C -2.6225 0.8842 3.6173 0
M  V30 4 O -3.8044 1.2104 3.7783 0
M  V30 5 C -2.1858 -0.0856 2.4727 0 CFG=2
M  V30 6 O -1.657 -1.3093 2.9914 0
M  V30 7 C -1.2177 0.5125 1.3919 0 CFG=2
M  V30 8 C -3.423 -0.5122 1.6144 0
M  V30 9 C -1.433 -0.5106 0.2458 0 CFG=1
M  V30 10 C 0.2892 0.4853 1.7328 0
M  V30 11 C -1.6826 1.947 1.0219 0
M  V30 12 C -2.9468 -0.6308 0.1549 0
M  V30 13 C -0.6439 -0.2001 -1.0372 0 CFG=1
M  V30 14 C 1.2199 0.7037 0.5198 0 CFG=1
M  V30 15 C 0.8883 -0.2113 -0.6916 0 CFG=2
M  V30 16 C -0.9856 -1.2191 -2.1474 0
M  V30 17 O 1.248 2.0865 0.199 0
M  V30 18 C 1.7844 -0.0274 -1.9739 0 CFG=2
M  V30 19 C -0.0811 -1.1052 -3.3748 0
M  V30 20 C 1.3583 -1.152 -2.928 0
M  V30 21 C 3.3088 -0.1262 -1.6779 0
M  V30 22 C 1.588 1.34 -2.6755 0
M  V30 23 C 2.1363 -2.1974 -3.2603 0
M  V30 24 C 3.7959 -1.5432 -1.4283 0
M  V30 25 C 3.4521 -2.4103 -2.6126 0
M  V30 26 O 4.1748 -3.3273 -2.9926 0
M  V30 27 H 0.0029 1.1031 6.2578 0
M  V30 28 H -2.0741 2.1409 5.2479 0
M  V30 29 H -0.8887 2.1195 3.9516 0
M  V30 30 H -1.0543 -1.1069 3.7318 0
M  V30 31 H -3.8254 -1.4739 1.9549 0
M  V30 32 H -4.2439 0.2121 1.6486 0
M  V30 33 H -1.0725 -1.4952 0.5865 0
M  V30 34 H 0.5503 -0.4864 2.1694 0
M  V30 35 H 0.516 1.242 2.4905 0
M  V30 36 H -1.3419 2.2735 0.0397 0
M  V30 37 H -1.3157 2.6784 1.7493 0
M  V30 38 H -2.7736 2.0413 1.0022 0
M  V30 39 H -3.2595 -1.5831 -0.2853 0
M  V30 40 H -3.3765 0.1726 -0.4539 0
M  V30 41 H -0.9307 0.7871 -1.4108 0
M  V30 42 H 2.2309 0.4648 0.8678 0
M  V30 43 H 1.0918 -1.2303 -0.3226 0
M  V30 44 H -0.9081 -2.2378 -1.7436 0
M  V30 45 H -2.0271 -1.0885 -2.4648 0
M  V30 46 H 0.5748 2.2748 -0.4729 0
M  V30 47 H -0.3136 -1.9251 -4.0654 0
M  V30 48 H -0.2863 -0.1794 -3.9225 0
M  V30 49 H 3.5931 0.5172 -0.8389 0
M  V30 50 H 3.8671 0.2621 -2.5431 0
M  V30 51 H 0.5384 1.6287 -2.7755 0
M  V30 52 H 2.1001 2.1461 -2.1396 0
M  V30 53 H 2.0117 1.3235 -3.6878 0
M  V30 54 H 1.8126 -2.9892 -3.9269 0
M  V30 55 H 4.8846 -1.5359 -1.3067 0
M  V30 56 H 3.3523 -1.9767 -0.5267 0
M  V30 END ATOM
M  V30 BEGIN BOND
M  V30 1 1 1 2
M  V30 2 1 2 3
M  V30 3 2 3 4
M  V30 4 1 3 5
M  V30 5 1 5 6
M  V30 6 1 5 7
M  V30 7 1 5 8
M  V30 8 1 7 9
M  V30 9 1 7 10
M  V30 10 1 7 11
M  V30 11 1 8 12
M  V30 12 1 9 13
M  V30 13 1 10 14
M  V30 14 1 13 15
M  V30 15 1 13 16
M  V30 16 1 14 17
M  V30 17 1 15 18
M  V30 18 1 16 19
M  V30 19 1 18 20
M  V30 20 1 18 21
M  V30 21 1 18 22
M  V30 22 2 20 23
M  V30 23 1 21 24
M  V30 24 1 23 25
M  V30 25 2 25 26
M  V30 26 1 9 12
M  V30 27 1 14 15
M  V30 28 1 19 20
M  V30 29 1 24 25
M  V30 30 1 1 27
M  V30 31 1 2 28
M  V30 32 1 2 29
M  V30 33 1 6 30
M  V30 34 1 8 31
M  V30 35 1 8 32
M  V30 36 1 9 33
M  V30 37 1 10 34
M  V30 38 1 10 35
M  V30 39 1 11 36
M  V30 40 1 11 37
M  V30 41 1 11 38
M  V30 42 1 12 39
M  V30 43 1 12 40
M  V30 44 1 13 41
M  V30 45 1 14 42
M  V30 46 1 15 43
M  V30 47 1 16 44
M  V30 48 1 16 45
M  V30 49 1 17 46
M  V30 50 1 19 47
M  V30 51 1 19 48
M  V30 52 1 21 49
M  V30 53 1 21 50
M  V30 54 1 22 51
M  V30 55 1 22 52
M  V30 56 1 22 53
M  V30 57 1 23 54
M  V30 58 1 24 55
M  V30 59 1 24 56
M  V30 END BOND
M  V30 BEGIN COLLECTION
M  V30 MDLV30/STEABS ATOMS=(7 5 7 9 13 14 15 18)
M  V30 END COLLECTION
M  V30 END CTAB
M  END
>  <Column 1>
1966

>  <level_0>
2137

>  <index>
2137

>  <Unnamed: 0>
2137

>  <NO.>
2149

>  <Name>
tixocortol

>  <IUPAC_name>
(8s-9s-10r-11s-13s-14s-17r)-11-17-dihydroxy-10-13-dimethyl-17-(2-sulfanylacetyl)-2-6-7-8-9-11-12-14-15-16-decahydro-1h-cyclopenta[a]phenanthren-3-one

>  <SMILES>
C[C@]12C[C@H](O)[C@H]3[C@@H](CCC4=CC(=O)CC[C@@]43C)[C@@H]1CC[C@]2(O)C(=O)CS

>  <CID>
162955

>  <logBB>


>  <BBB+/BBB->
BBB+

>  <Inchi>
InChI=1S/C21H30O4S/c1-19-7-5-13(22)9-12(19)3-4-14-15-6-8-21(25-17(24)11-26)20(15-2)10-16(23)18(14)19/h9-14-16-18-23-25-26H-3-8-10-11H2-1-2H3/t14--15--16--18+-19--20--21-/m0/s1

>  <threshold>
-1

>  <reference>
R1|R6|R27|R30|

>  <group>
B

>  <Class>
1

>  <ABC>
20.85

>  <ABCGG>
17.26

>  <nAcid>
0

>  <nBase>
0

>  <nAromAtom>
0

>  <nAromBond>
0

>  <nAtom>
56

>  <nHeavyAtom>
26

>  <nSpiro>
0

>  <nBridgehead>
0

>  <nHetero>
5

>  <nN>
0

>  <nO>
4

>  <nF>
0

>  <BalabanJ>
1.68

>  <BertzCT>
687.5

>  <nBonds>
59

>  <nBondsO>
29

>  <nBondsS>
56

>  <nBondsD>
3

>  <nBondsT>
0

>  <nBondsA>
0

>  <nBondsM>
3

>  <nBondsKS>
56

>  <nBondsKD>
3

>  <RNCG>
0.2

>  <RPCG>
0.11

>  <FCSP3>
0.81

>  <SZ>
34

>  <Sm>
31.52

>  <Sv>
33.17

>  <Sse>
55.72

>  <Sp>
36.64

>  <Si>
62.99

>  <MZ>
0.61

>  <Mm>
0.56

>  <Mv>
0.59

>  <Mse>
0.99

>  <Mp>
0.65

>  <Mi>
1.12

>  <NsCH3>
2

>  <NdCH2>
0

>  <NssCH2>
8

>  <NtCH>
0

>  <NdsCH>
1

>  <NaaCH>
0

>  <NsssCH>
4

>  <NddC>
0

>  <NtsC>
0

>  <NdssC>
3

>  <NaasC>
0

>  <NaaaC>
0

>  <NssssC>
3

>  <NsNH3>
0

>  <NsNH2>
0

>  <NssNH2>
0

>  <NdNH>
0

>  <NssNH>
0

>  <NaaNH>
0

>  <NtN>
0

>  <NsssNH>
0

>  <NdsN>
0

>  <NaaN>
0

>  <NsssN>
0

>  <NddsN>
0

>  <NaasN>
0

>  <NssssN>
0

>  <NsOH>
2

>  <NdO>
2

>  <NssO>
0

>  <NaaO>
0

>  <NsF>
0

>  <NsSiH3>
0

>  <NssSiH2>
0

>  <NsssSiH>
0

>  <NssssSi>
0

>  <NsPH2>
0

>  <NssPH>
0

>  <NsssP>
0

>  <NdsssP>
0

>  <NsssssP>
0

>  <NsSH>
1

>  <NdS>
0

>  <NssS>
0

>  <NaaS>
0

>  <NdssS>
0

>  <NddssS>
0

>  <NsCl>
0

>  <NsBr>
0

>  <NsI>
0

>  <fragCpx>
191.05

>  <fMF>
0.3

>  <nHBAcc>
5

>  <nHBDon>
3

>  <Kier1>
19.32

>  <Kier2>
6.25

>  <Lipinski>
1

>  <GhoseFilter>
1

>  <FilterItLogS>
-3.31

>  <VMcGowan>
290.24

>  <LabuteASA>
160.39

>  <PEOE_VSA1>
10.21

>  <PEOE_VSA2>
9.59

>  <PEOE_VSA3>
0

>  <PEOE_VSA4>
12.63

>  <PEOE_VSA5>
0

>  <PEOE_VSA6>
19.42

>  <PEOE_VSA7>
67.77

>  <PEOE_VSA8>
11.84

>  <PEOE_VSA9>
11.86

>  <PEOE_VSA10>
5.6

>  <PEOE_VSA11>
11.57

>  <PEOE_VSA12>
0

>  <PEOE_VSA13>
0

>  <SMR_VSA1>
19.8

>  <SMR_VSA2>
0

>  <SMR_VSA3>
0

>  <SMR_VSA4>
28.58

>  <SMR_VSA5>
70.5

>  <SMR_VSA6>
5.75

>  <SMR_VSA7>
11.65

>  <SMR_VSA8>
0

>  <SMR_VSA9>
0

>  <SlogP_VSA1>
0

>  <SlogP_VSA2>
39.24

>  <SlogP_VSA3>
9.59

>  <SlogP_VSA4>
28.58

>  <SlogP_VSA5>
58.79

>  <SlogP_VSA6>
11.65

>  <SlogP_VSA7>
0

>  <SlogP_VSA8>
0

>  <SlogP_VSA9>
0

>  <SlogP_VSA10>
0

>  <SlogP_VSA11>
0

>  <EState_VSA1>
17.12

>  <EState_VSA2>
34.57

>  <EState_VSA3>
25.18

>  <EState_VSA4>
25.68

>  <EState_VSA5>
5.57

>  <EState_VSA6>
0

>  <EState_VSA7>
13

>  <EState_VSA8>
19.55

>  <EState_VSA9>
0

>  <EState_VSA10>
19.8

>  <VSA_EState1>
0

>  <VSA_EState2>
24.45

>  <VSA_EState3>
22.51

>  <VSA_EState4>
-0.89

>  <VSA_EState5>
0.68

>  <VSA_EState6>
0

>  <VSA_EState7>
6.21

>  <VSA_EState8>
4.22

>  <VSA_EState9>
0

>  <apol>
61.18

>  <bpol>
34.29

>  <nRing>
4

>  <nHRing>
0

>  <naRing>
0

>  <naHRing>
0

>  <nARing 2>
4

>  <nAHRing 2>
0

>  <nFRing>
1

>  <nFHRing>
0

>  <nFaRing>
0

>  <nFaHRing>
0

>  <nFARing 2>
1

>  <nFAHRing 2>
0

>  <nRot>
2

>  <SLogP>
2.72

>  <SMR>
101.91

>  <TopoPSA(NO)>
74.6

>  <TopoPSA>
113.4

>  <JGI1>
0.29

>  <JGI2>
0.14

>  <JGI3>
0.07

>  <JGI4>
0.06

>  <JGI5>
0.04

>  <Diameter>
12

>  <Radius>
6

>  <TMWC10>
135.18

>  <TSRW10>
77.19

>  <MW>
378.19

>  <AMW>
6.75

>  <WPath>
1425

>  <WPol>
59

>  <Zagreb1>
154

>  <Zagreb2>
198

>  <mZagreb2>
5.44

>  <yes>


>  <nAR-cont>
0.199399

>  <nHA-cont>
0.892715677

>  <MWHBN>
0.411372226

>  <MWHBN-cont>
0.431460554

>  <TPSA-cont>
0.208397583

>  <pka_cont>
0.97

>  <yes.1>


>  <BBB_SCORE>
2.641100674

>  <MMFF94 Energy>
132.5

$$$$
Compound 1620
Actelion Java MolfileCreator 2.0

  0  0  0  0  0  0              0 V3000
M  V30 BEGIN CTAB
M  V30 COUNTS 56 60 0 0 0
M  V30 BEGIN ATOM
M  V30 1 O 1.5257 -3.4555 3.536 0
M  V30 2 C 1.4331 -3.1964 2.1372 0 CFG=2
M  V30 3 C 0.7495 -1.8242 1.8458 0 CFG=2
M  V30 4 C 0.4587 -4.2204 1.497 0
M  V30 5 C 2.8449 -3.371 1.5642 0
M  V30 6 C 0.2321 -2.0634 0.411 0 CFG=1
M  V30 7 C 1.6606 -0.5858 1.8139 0
M  V30 8 C -0.3873 -1.5827 2.8817 0
M  V30 9 C -0.4101 -3.4447 0.4898 0
M  V30 10 C -0.6056 -0.8965 -0.1316 0 CFG=1
M  V30 11 C 0.9287 0.6491 1.2573 0
M  V30 12 C 0.2671 0.3976 -0.1237 0 CFG=2
M  V30 13 C -1.1277 -1.1978 -1.5433 0
M  V30 14 C -0.5046 1.6409 -0.7033 0 CFG=2
M  V30 15 C -1.8838 -0.018 -2.1447 0
M  V30 16 C -1.0317 1.2563 -2.1464 0 CFG=1
M  V30 17 C 0.4786 2.8652 -0.8241 0
M  V30 18 C -1.6768 2.0528 0.226 0
M  V30 19 C -1.7875 2.4067 -2.8651 0
M  V30 20 C -0.0309 3.8972 -1.7664 0
M  V30 21 C -1.032 3.6664 -2.6799 0
M  V30 22 C 0.3345 5.2375 -1.9801 0
M  V30 23 N -1.2139 4.8303 -3.3617 0
M  V30 24 N -0.3853 5.8095 -2.9518 0
M  V30 25 H 2.0919 -2.7688 3.928 0
M  V30 26 H -0.1784 -4.6999 2.2496 0
M  V30 27 H 0.999 -5.0265 0.9872 0
M  V30 28 H 3.2217 -4.3779 1.7808 0
M  V30 29 H 2.8867 -3.2229 0.4818 0
M  V30 30 H 3.5508 -2.6814 2.0401 0
M  V30 31 H 1.0944 -2.1622 -0.2658 0
M  V30 32 H 2.0458 -0.3655 2.8166 0
M  V30 33 H 2.5348 -0.7645 1.1767 0
M  V30 34 H -1.0282 -0.7354 2.6258 0
M  V30 35 H 0.0332 -1.37 3.8716 0
M  V30 36 H -1.0445 -2.4513 2.991 0
M  V30 37 H -0.4259 -3.9436 -0.4846 0
M  V30 38 H -1.4447 -3.386 0.8464 0
M  V30 39 H -1.4793 -0.7562 0.513 0
M  V30 40 H 1.6612 1.4602 1.1759 0
M  V30 41 H 0.1854 0.9834 1.9867 0
M  V30 42 H 1.1034 0.2065 -0.8151 0
M  V30 43 H -0.2902 -1.461 -2.2019 0
M  V30 44 H -1.7953 -2.0671 -1.5208 0
M  V30 45 H -2.8177 0.1424 -1.5937 0
M  V30 46 H -2.1711 -0.2712 -3.1726 0
M  V30 47 H -0.1399 1.0414 -2.7571 0
M  V30 48 H 0.6539 3.3195 0.1582 0
M  V30 49 H 1.4507 2.5214 -1.2005 0
M  V30 50 H -2.245 2.8973 -0.1764 0
M  V30 51 H -1.3157 2.3703 1.2093 0
M  V30 52 H -2.3892 1.2398 0.3867 0
M  V30 53 H -2.7988 2.5202 -2.4575 0
M  V30 54 H -1.8884 2.1738 -3.9315 0
M  V30 55 H 1.0915 5.8231 -1.4746 0
M  V30 56 H -1.8727 5.035 -4.1058 0
M  V30 END ATOM
M  V30 BEGIN BOND
M  V30 1 1 1 2
M  V30 2 1 2 3
M  V30 3 1 2 4
M  V30 4 1 2 5
M  V30 5 1 3 6
M  V30 6 1 3 7
M  V30 7 1 3 8
M  V30 8 1 4 9
M  V30 9 1 6 10
M  V30 10 1 7 11
M  V30 11 1 10 12
M  V30 12 1 10 13
M  V30 13 1 12 14
M  V30 14 1 13 15
M  V30 15 1 14 16
M  V30 16 1 14 17
M  V30 17 1 14 18
M  V30 18 1 16 19
M  V30 19 1 17 20
M  V30 20 1 19 21
M  V30 21 1 20 22
M  V30 22 1 21 23
M  V30 23 2 22 24
M  V30 24 1 6 9
M  V30 25 1 11 12
M  V30 26 1 15 16
M  V30 27 2 20 21
M  V30 28 1 23 24
M  V30 29 1 1 25
M  V30 30 1 4 26
M  V30 31 1 4 27
M  V30 32 1 5 28
M  V30 33 1 5 29
M  V30 34 1 5 30
M  V30 35 1 6 31
M  V30 36 1 7 32
M  V30 37 1 7 33
M  V30 38 1 8 34
M  V30 39 1 8 35
M  V30 40 1 8 36
M  V30 41 1 9 37
M  V30 42 1 9 38
M  V30 43 1 10 39
M  V30 44 1 11 40
M  V30 45 1 11 41
M  V30 46 1 12 42
M  V30 47 1 13 43
M  V30 48 1 13 44
M  V30 49 1 15 45
M  V30 50 1 15 46
M  V30 51 1 16 47
M  V30 52 1 17 48
M  V30 53 1 17 49
M  V30 54 1 18 50
M  V30 55 1 18 51
M  V30 56 1 18 52
M  V30 57 1 19 53
M  V30 58 1 19 54
M  V30 59 1 22 55
M  V30 60 1 23 56
M  V30 END BOND
M  V30 BEGIN COLLECTION
M  V30 MDLV30/STEABS ATOMS=(7 2 3 6 10 12 14 16)
M  V30 END COLLECTION
M  V30 END CTAB
M  END
>  <Column 1>
1967

>  <level_0>
2139

>  <index>
2139

>  <Unnamed: 0>
2139

>  <NO.>
2151

>  <Name>
stanozolol

>  <IUPAC_name>
(1s-2s-10s-13r-14s-17s-18s)-2-17-18-trimethyl-6-7-diazapentacyclo[11.7.0.02-10.04-8.014-18]icosa-4(8)-5-dien-17-ol

>  <SMILES>
C[C@]12Cc3cn[nH]c3C[C@@H]1CC[C@@H]1[C@@H]2CC[C@@]2(C)[C@H]1CC[C@]2(C)O

>  <CID>
25249

>  <logBB>


>  <BBB+/BBB->
BBB-

>  <Inchi>
InChI=1S/C21H32N2O/c1-19-11-13-12-22-23-18(13)10-14(19)4-5-15-16(19)6-8-20(2)17(15)7-9-21(20-3)24/h12-14-17-24H-4-11H2-1-3H3-(H-22-23)/t14--15+-16--17--19--20--21-/m0/s1

>  <threshold>
-1

>  <reference>
R1|R27|R30|

>  <group>
B

>  <Class>
1

>  <ABC>
20.03

>  <ABCGG>
16.01

>  <nAcid>
0

>  <nBase>
0

>  <nAromAtom>
5

>  <nAromBond>
5

>  <nAtom>
56

>  <nHeavyAtom>
24

>  <nSpiro>
0

>  <nBridgehead>
0

>  <nHetero>
3

>  <nN>
2

>  <nO>
1

>  <nF>
0

>  <BalabanJ>
1.45

>  <BertzCT>
664.55

>  <nBonds>
60

>  <nBondsO>
28

>  <nBondsS>
55

>  <nBondsD>
0

>  <nBondsT>
0

>  <nBondsA>
5

>  <nBondsM>
5

>  <nBondsKS>
58

>  <nBondsKD>
2

>  <RNCG>
0.27

>  <RPCG>
0.15

>  <FCSP3>
0.86

>  <SZ>
30

>  <Sm>
27.35

>  <Sv>
31.9

>  <Sse>
54.86

>  <Sp>
35.57

>  <Si>
63.44

>  <MZ>
0.54

>  <Mm>
0.49

>  <Mv>
0.57

>  <Mse>
0.98

>  <Mp>
0.64

>  <Mi>
1.13

>  <NsCH3>
3

>  <NdCH2>
0

>  <NssCH2>
8

>  <NtCH>
0

>  <NdsCH>
0

>  <NaaCH>
1

>  <NsssCH>
4

>  <NddC>
0

>  <NtsC>
0

>  <NdssC>
0

>  <NaasC>
2

>  <NaaaC>
0

>  <NssssC>
3

>  <NsNH3>
0

>  <NsNH2>
0

>  <NssNH2>
0

>  <NdNH>
0

>  <NssNH>
0

>  <NaaNH>
1

>  <NtN>
0

>  <NsssNH>
0

>  <NdsN>
0

>  <NaaN>
1

>  <NsssN>
0

>  <NddsN>
0

>  <NaasN>
0

>  <NssssN>
0

>  <NsOH>
1

>  <NdO>
0

>  <NssO>
0

>  <NaaO>
0

>  <NsF>
0

>  <NsSiH3>
0

>  <NssSiH2>
0

>  <NsssSiH>
0

>  <NssssSi>
0

>  <NsPH2>
0

>  <NssPH>
0

>  <NsssP>
0

>  <NdsssP>
0

>  <NsssssP>
0

>  <NsSH>
0

>  <NdS>
0

>  <NssS>
0

>  <NaaS>
0

>  <NdssS>
0

>  <NddssS>
0

>  <NsCl>
0

>  <NsBr>
0

>  <NsI>
0

>  <fragCpx>
232.03

>  <fMF>
0.36

>  <nHBAcc>
2

>  <nHBDon>
2

>  <Kier1>
16.19

>  <Kier2>
5.04

>  <Lipinski>
1

>  <GhoseFilter>
1

>  <FilterItLogS>
-4.85

>  <VMcGowan>
269.68

>  <LabuteASA>
145.17

>  <PEOE_VSA1>
5.11

>  <PEOE_VSA2>
5.1

>  <PEOE_VSA3>
0

>  <PEOE_VSA4>
5.1

>  <PEOE_VSA5>
0

>  <PEOE_VSA6>
13.85

>  <PEOE_VSA7>
98.36

>  <PEOE_VSA8>
5.69

>  <PEOE_VSA9>
11.8

>  <PEOE_VSA10>
0

>  <PEOE_VSA11>
0

>  <PEOE_VSA12>
0

>  <PEOE_VSA13>
0

>  <SMR_VSA1>
5.11

>  <SMR_VSA2>
0

>  <SMR_VSA3>
10.2

>  <SMR_VSA4>
34.5

>  <SMR_VSA5>
77.74

>  <SMR_VSA6>
0

>  <SMR_VSA7>
17.45

>  <SMR_VSA8>
0

>  <SMR_VSA9>
0

>  <SlogP_VSA1>
0

>  <SlogP_VSA2>
20.9

>  <SlogP_VSA3>
12.84

>  <SlogP_VSA4>
34.5

>  <SlogP_VSA5>
70.55

>  <SlogP_VSA6>
6.2

>  <SlogP_VSA7>
0

>  <SlogP_VSA8>
0

>  <SlogP_VSA9>
0

>  <SlogP_VSA10>
0

>  <SlogP_VSA11>
0

>  <EState_VSA1>
5.6

>  <EState_VSA2>
5.41

>  <EState_VSA3>
5.41

>  <EState_VSA4>
30.09

>  <EState_VSA5>
56.2

>  <EState_VSA6>
0

>  <EState_VSA7>
0

>  <EState_VSA8>
37.17

>  <EState_VSA9>
0

>  <EState_VSA10>
5.11

>  <VSA_EState1>
0

>  <VSA_EState2>
0

>  <VSA_EState3>
18.6

>  <VSA_EState4>
3.01

>  <VSA_EState5>
3.21

>  <VSA_EState6>
0

>  <VSA_EState7>
12.01

>  <VSA_EState8>
7.09

>  <VSA_EState9>
0

>  <apol>
59.41

>  <bpol>
32.67

>  <nRing>
5

>  <nHRing>
1

>  <naRing>
1

>  <naHRing>
1

>  <nARing 2>
4

>  <nAHRing 2>
0

>  <nFRing>
1

>  <nFHRing>
1

>  <nFaRing>
0

>  <nFaHRing>
0

>  <nFARing 2>
1

>  <nFAHRing 2>
1

>  <nRot>
0

>  <SLogP>
4.12

>  <SMR>
94.5

>  <TopoPSA(NO)>
48.91

>  <TopoPSA>
48.91

>  <JGI1>
0.27

>  <JGI2>
0.13

>  <JGI3>
0.07

>  <JGI4>
0.06

>  <JGI5>
0.03

>  <Diameter>
10

>  <Radius>
5

>  <TMWC10>
131.76

>  <TSRW10>
76.57

>  <MW>
328.25

>  <AMW>
5.86

>  <WPath>
1151

>  <WPol>
52

>  <Zagreb1>
150

>  <Zagreb2>
193

>  <mZagreb2>
4.77

>  <yes>


>  <nAR-cont>
0.199399

>  <nHA-cont>
0.94700071

>  <MWHBN>
0.22077893

>  <MWHBN-cont>
0.99445795

>  <TPSA-cont>
0.658577829

>  <pka_cont>
0.97

>  <yes.1>


>  <BBB_SCORE>
4.440242292

>  <MMFF94 Energy>
90.417

$$$$
Compound 1621
Actelion Java MolfileCreator 2.0

  0  0  0  0  0  0              0 V3000
M  V30 BEGIN CTAB
M  V30 COUNTS 45 47 0 0 0
M  V30 BEGIN ATOM
M  V30 1 O -0.3973 1.6695 -4.4568 0 CHG=-1
M  V30 2 N -1.345 0.9964 -3.7304 0 CHG=1
M  V30 3 C -0.6761 0.0527 -2.7397 0
M  V30 4 C -2.2317 1.9848 -3.0215 0
M  V30 5 C -2.1873 0.1841 -4.6786 0
M  V30 6 C 0.2556 0.7381 -1.7416 0
M  V30 7 C 0.9321 -0.2705 -0.8449 0
M  V30 8 C 0.6757 -0.5266 0.4587 0
M  V30 9 C 1.5818 -1.4623 1.1768 0
M  V30 10 C -0.3829 0.2259 1.1632 0
M  V30 11 C 2.2198 -1.12 2.3887 0
M  V30 12 C 1.7761 -2.752 0.6405 0
M  V30 13 C -0.0115 1.1939 2.1097 0
M  V30 14 C -1.7387 -0.0251 0.9153 0
M  V30 15 C 3.042 -2.0843 3.0121 0
M  V30 16 C 2.0711 0.1999 3.1294 0
M  V30 17 C 2.5996 -3.6845 1.2706 0
M  V30 18 C -1.0062 1.9265 2.7712 0
M  V30 19 C 1.4494 1.4085 2.4193 0
M  V30 20 C -2.7215 0.7067 1.5815 0
M  V30 21 C 3.2354 -3.3488 2.4574 0
M  V30 22 C -2.3548 1.6857 2.5033 0
M  V30 23 H -1.4879 -0.4801 -2.2314 0
M  V30 24 H -0.1155 -0.6632 -3.3536 0
M  V30 25 H -1.5976 2.6609 -2.4445 0
M  V30 26 H -2.9207 1.4279 -2.3819 0
M  V30 27 H -2.7707 2.5515 -3.7862 0
M  V30 28 H -1.5255 -0.5196 -5.1906 0
M  V30 29 H -2.6374 0.8742 -5.3977 0
M  V30 30 H -2.9507 -0.3369 -4.0954 0
M  V30 31 H 1.0354 1.295 -2.275 0
M  V30 32 H -0.2848 1.4854 -1.1544 0
M  V30 33 H 1.7602 -0.7873 -1.3315 0
M  V30 34 H 1.2724 -3.0441 -0.2784 0
M  V30 35 H -2.0318 -0.7997 0.2126 0
M  V30 36 H 3.5385 -1.8474 3.952 0
M  V30 37 H 1.4989 -0.0037 4.0452 0
M  V30 38 H 3.0767 0.5093 3.446 0
M  V30 39 H 2.7367 -4.6711 0.8369 0
M  V30 40 H -0.7377 2.6821 3.5058 0
M  V30 41 H 1.997 1.6533 1.5006 0
M  V30 42 H 1.5563 2.2855 3.0708 0
M  V30 43 H -3.7726 0.5085 1.3895 0
M  V30 44 H 3.8749 -4.0707 2.9581 0
M  V30 45 H -3.1202 2.2545 3.0255 0
M  V30 END ATOM
M  V30 BEGIN BOND
M  V30 1 1 1 2
M  V30 2 1 2 3
M  V30 3 1 2 4
M  V30 4 1 2 5
M  V30 5 1 3 6
M  V30 6 1 6 7
M  V30 7 2 7 8
M  V30 8 1 8 9
M  V30 9 1 8 10
M  V30 10 2 9 11
M  V30 11 1 9 12
M  V30 12 2 10 13
M  V30 13 1 10 14
M  V30 14 1 11 15
M  V30 15 1 11 16
M  V30 16 2 12 17
M  V30 17 1 13 18
M  V30 18 1 13 19
M  V30 19 2 14 20
M  V30 20 2 15 21
M  V30 21 2 18 22
M  V30 22 1 16 19
M  V30 23 1 17 21
M  V30 24 1 20 22
M  V30 25 1 3 23
M  V30 26 1 3 24
M  V30 27 1 4 25
M  V30 28 1 4 26
M  V30 29 1 4 27
M  V30 30 1 5 28
M  V30 31 1 5 29
M  V30 32 1 5 30
M  V30 33 1 6 31
M  V30 34 1 6 32
M  V30 35 1 7 33
M  V30 36 1 12 34
M  V30 37 1 14 35
M  V30 38 1 15 36
M  V30 39 1 16 37
M  V30 40 1 16 38
M  V30 41 1 17 39
M  V30 42 1 18 40
M  V30 43 1 19 41
M  V30 44 1 19 42
M  V30 45 1 20 43
M  V30 46 1 21 44
M  V30 47 1 22 45
M  V30 END BOND
M  V30 END CTAB
M  END
>  <Column 1>
1970

>  <level_0>
2142

>  <index>
2142

>  <Unnamed: 0>
2142

>  <NO.>
2154

>  <Name>
amitriptylinoxide

>  <IUPAC_name>
n-n-dimethyl-3-(2-tricyclo[9.4.0.03-8]pentadeca-1(15)-3-5-7-11-13-hexaenylidene)propan-1-amine oxide

>  <SMILES>
C[N+](C)([O-])CCC=C1c2ccccc2CCc2ccccc21

>  <CID>
20313

>  <logBB>


>  <BBB+/BBB->
BBB+

>  <Inchi>
InChI=1S/C20H23NO/c1-21(2-22)15-7-12-20-18-10-5-3-8-16(18)13-14-17-9-4-6-11-19(17)20/h3-6-8-12H-7-13-15H2-1-2H3

>  <threshold>
-1

>  <reference>
R1|R13|R19|R6|R24|R27|R27|R27|R30|R30|R37|

>  <group>
B

>  <Class>
1

>  <ABC>
17.29

>  <ABCGG>
13.9

>  <nAcid>
0

>  <nBase>
1

>  <nAromAtom>
12

>  <nAromBond>
12

>  <nAtom>
45

>  <nHeavyAtom>
22

>  <nSpiro>
0

>  <nBridgehead>
0

>  <nHetero>
2

>  <nN>
1

>  <nO>
1

>  <nF>
0

>  <BalabanJ>
1.7

>  <BertzCT>
645.35

>  <nBonds>
47

>  <nBondsO>
24

>  <nBondsS>
34

>  <nBondsD>
1

>  <nBondsT>
0

>  <nBondsA>
12

>  <nBondsM>
13

>  <nBondsKS>
40

>  <nBondsKD>
7

>  <RNCG>
0.37

>  <RPCG>
0.05

>  <FCSP3>
0.3

>  <SZ>
26.33

>  <Sm>
24.43

>  <Sv>
27.7

>  <Sse>
44.2

>  <Sp>
30.32

>  <Si>
50.28

>  <MZ>
0.59

>  <Mm>
0.54

>  <Mv>
0.62

>  <Mse>
0.98

>  <Mp>
0.67

>  <Mi>
1.12

>  <NsCH3>
2

>  <NdCH2>
0

>  <NssCH2>
4

>  <NtCH>
0

>  <NdsCH>
1

>  <NaaCH>
8

>  <NsssCH>
0

>  <NddC>
0

>  <NtsC>
0

>  <NdssC>
1

>  <NaasC>
4

>  <NaaaC>
0

>  <NssssC>
0

>  <NsNH3>
0

>  <NsNH2>
0

>  <NssNH2>
0

>  <NdNH>
0

>  <NssNH>
0

>  <NaaNH>
0

>  <NtN>
0

>  <NsssNH>
0

>  <NdsN>
0

>  <NaaN>
0

>  <NsssN>
0

>  <NddsN>
0

>  <NaasN>
0

>  <NssssN>
1

>  <NsOH>
0

>  <NdO>
0

>  <NssO>
0

>  <NaaO>
0

>  <NsF>
0

>  <NsSiH3>
0

>  <NssSiH2>
0

>  <NsssSiH>
0

>  <NssssSi>
0

>  <NsPH2>
0

>  <NssPH>
0

>  <NsssP>
0

>  <NdsssP>
0

>  <NsssssP>
0

>  <NsSH>
0

>  <NdS>
0

>  <NssS>
0

>  <NaaS>
0

>  <NdssS>
0

>  <NddssS>
0

>  <NsCl>
0

>  <NsBr>
0

>  <NsI>
0

>  <fragCpx>
114.02

>  <fMF>
0.33

>  <nHBAcc>
1

>  <nHBDon>
0

>  <Kier1>
16.84

>  <Kier2>
7.27

>  <Lipinski>
1

>  <GhoseFilter>
1

>  <FilterItLogS>
-6.25

>  <VMcGowan>
245.83

>  <LabuteASA>
132.43

>  <PEOE_VSA1>
9.85

>  <PEOE_VSA2>
0

>  <PEOE_VSA3>
0

>  <PEOE_VSA4>
0

>  <PEOE_VSA5>
0

>  <PEOE_VSA6>
54.61

>  <PEOE_VSA7>
40.67

>  <PEOE_VSA8>
6.42

>  <PEOE_VSA9>
20.64

>  <PEOE_VSA10>
0

>  <PEOE_VSA11>
0

>  <PEOE_VSA12>
0

>  <PEOE_VSA13>
0

>  <SMR_VSA1>
4.65

>  <SMR_VSA2>
0

>  <SMR_VSA3>
0

>  <SMR_VSA4>
0

>  <SMR_VSA5>
19.26

>  <SMR_VSA6>
20.64

>  <SMR_VSA7>
82.07

>  <SMR_VSA8>
0

>  <SMR_VSA9>
0

>  <SlogP_VSA1>
0

>  <SlogP_VSA2>
25.29

>  <SlogP_VSA3>
12.84

>  <SlogP_VSA4>
5.21

>  <SlogP_VSA5>
28.67

>  <SlogP_VSA6>
54.61

>  <SlogP_VSA7>
0

>  <SlogP_VSA8>
5.57

>  <SlogP_VSA9>
0

>  <SlogP_VSA10>
0

>  <SlogP_VSA11>
0

>  <EState_VSA1>
0

>  <EState_VSA2>
4.65

>  <EState_VSA3>
6.54

>  <EState_VSA4>
19.26

>  <EState_VSA5>
27.83

>  <EState_VSA6>
14.1

>  <EState_VSA7>
0

>  <EState_VSA8>
54.61

>  <EState_VSA9>
0

>  <EState_VSA10>
5.21

>  <VSA_EState1>
-0.24

>  <VSA_EState2>
0

>  <VSA_EState3>
11.81

>  <VSA_EState4>
6.74

>  <VSA_EState5>
0

>  <VSA_EState6>
17.31

>  <VSA_EState7>
5.21

>  <VSA_EState8>
0.6

>  <VSA_EState9>
3.4

>  <apol>
50.64

>  <bpol>
25.08

>  <nRing>
3

>  <nHRing>
0

>  <naRing>
2

>  <naHRing>
0

>  <nARing 2>
1

>  <nAHRing 2>
0

>  <nFRing>
1

>  <nFHRing>
0

>  <nFaRing>
0

>  <nFaHRing>
0

>  <nFARing 2>
1

>  <nFAHRing 2>
0

>  <nRot>
3

>  <SLogP>
4.18

>  <SMR>
92.33

>  <TopoPSA(NO)>
23.06

>  <TopoPSA>
23.06

>  <JGI1>
0.19

>  <JGI2>
0.07

>  <JGI3>
0.04

>  <JGI4>
0.03

>  <JGI5>
0.02

>  <Diameter>
9

>  <Radius>
5

>  <TMWC10>
120.18

>  <TSRW10>
64.25

>  <MW>
293.18

>  <AMW>
6.52

>  <WPath>
1007

>  <WPol>
36

>  <Zagreb1>
116

>  <Zagreb2>
134

>  <mZagreb2>
4.74

>  <yes>


>  <nAR-cont>
0.816016

>  <nHA-cont>
0.983774276

>  <MWHBN>
0.058402687

>  <MWHBN-cont>
0.440235151

>  <TPSA-cont>
0.839026881

>  <pka_cont>
0.97

>  <yes.1>


>  <BBB_SCORE>
4.623196764

>  <MMFF94 Energy>
83.18

$$$$
Compound 1622
Actelion Java MolfileCreator 2.0

  0  0  0  0  0  0              0 V3000
M  V30 BEGIN CTAB
M  V30 COUNTS 46 48 0 0 0
M  V30 BEGIN ATOM
M  V30 1 O -3.4904 0.7131 0.2376 0 CHG=-1
M  V30 2 N -3.2606 -0.4567 -0.4375 0 CHG=1
M  V30 3 C -1.7908 -0.8538 -0.3364 0
M  V30 4 C -4.1517 -1.5336 0.1184 0
M  V30 5 C -3.6037 -0.2494 -1.8901 0
M  V30 6 C -1.2467 -0.9306 1.0891 0
M  V30 7 C 0.1794 -1.4931 1.1509 0
M  V30 8 N 1.1936 -0.5644 0.5991 0
M  V30 9 C 1.4531 -0.5929 -0.7895 0
M  V30 10 C 1.6465 0.3944 1.5356 0
M  V30 11 C 1.6144 0.5574 -1.5925 0
M  V30 12 C 1.6171 -1.8472 -1.4249 0
M  V30 13 C 1.4217 1.7669 1.3642 0
M  V30 14 C 2.3404 -0.0271 2.6851 0
M  V30 15 C 1.911 0.4104 -2.9701 0
M  V30 16 C 1.5188 1.9912 -1.1105 0
M  V30 17 C 1.8945 -1.9747 -2.7881 0
M  V30 18 C 1.8631 2.6811 2.3371 0
M  V30 19 C 0.7005 2.263 0.1442 0
M  V30 20 C 2.783 0.8841 3.6456 0
M  V30 21 C 2.0385 -0.84 -3.5651 0
M  V30 22 C 2.539 2.2407 3.4729 0
M  V30 23 H -1.7019 -1.8157 -0.854 0
M  V30 24 H -1.2598 -0.0898 -0.9102 0
M  V30 25 H -3.982 -1.5979 1.1947 0
M  V30 26 H -3.9104 -2.4718 -0.3867 0
M  V30 27 H -5.1868 -1.2363 -0.0728 0
M  V30 28 H -2.9673 0.5542 -2.2707 0
M  V30 29 H -4.6561 0.0426 -1.9446 0
M  V30 30 H -3.4223 -1.188 -2.4197 0
M  V30 31 H -1.8814 -1.5888 1.6916 0
M  V30 32 H -1.292 0.0552 1.5651 0
M  V30 33 H 0.3989 -1.7234 2.2015 0
M  V30 34 H 0.1952 -2.4713 0.6596 0
M  V30 35 H 1.5847 -2.7646 -0.8434 0
M  V30 36 H 2.5597 -1.0823 2.8262 0
M  V30 37 H 2.0485 1.2949 -3.5908 0
M  V30 38 H 2.5409 2.3731 -0.9846 0
M  V30 39 H 1.0569 2.5839 -1.9122 0
M  V30 40 H 2.0229 -2.9596 -3.2279 0
M  V30 41 H 1.6807 3.7459 2.2113 0
M  V30 42 H -0.2983 1.8186 0.0851 0
M  V30 43 H 0.5419 3.3458 0.2269 0
M  V30 44 H 3.3194 0.5326 4.5223 0
M  V30 45 H 2.2693 -0.9216 -4.6233 0
M  V30 46 H 2.8777 2.9565 4.2168 0
M  V30 END ATOM
M  V30 BEGIN BOND
M  V30 1 1 1 2
M  V30 2 1 2 3
M  V30 3 1 2 4
M  V30 4 1 2 5
M  V30 5 1 3 6
M  V30 6 1 6 7
M  V30 7 1 7 8
M  V30 8 1 8 9
M  V30 9 1 8 10
M  V30 10 2 9 11
M  V30 11 1 9 12
M  V30 12 2 10 13
M  V30 13 1 10 14
M  V30 14 1 11 15
M  V30 15 1 11 16
M  V30 16 2 12 17
M  V30 17 1 13 18
M  V30 18 1 13 19
M  V30 19 2 14 20
M  V30 20 2 15 21
M  V30 21 2 18 22
M  V30 22 1 16 19
M  V30 23 1 17 21
M  V30 24 1 20 22
M  V30 25 1 3 23
M  V30 26 1 3 24
M  V30 27 1 4 25
M  V30 28 1 4 26
M  V30 29 1 4 27
M  V30 30 1 5 28
M  V30 31 1 5 29
M  V30 32 1 5 30
M  V30 33 1 6 31
M  V30 34 1 6 32
M  V30 35 1 7 33
M  V30 36 1 7 34
M  V30 37 1 12 35
M  V30 38 1 14 36
M  V30 39 1 15 37
M  V30 40 1 16 38
M  V30 41 1 16 39
M  V30 42 1 17 40
M  V30 43 1 18 41
M  V30 44 1 19 42
M  V30 45 1 19 43
M  V30 46 1 20 44
M  V30 47 1 21 45
M  V30 48 1 22 46
M  V30 END BOND
M  V30 END CTAB
M  END
>  <Column 1>
1971

>  <level_0>
2143

>  <index>
2143

>  <Unnamed: 0>
2143

>  <NO.>
2155

>  <Name>
imipraminoxide

>  <IUPAC_name>
3-(5-6-dihydrobenzo[b][1]benzazepin-11-yl)-n-n-dimethylpropan-1-amine oxide

>  <SMILES>
C[N+](C)([O-])CCCN1c2ccccc2CCc2ccccc21

>  <CID>
65589

>  <logBB>


>  <BBB+/BBB->
BBB+

>  <Inchi>
InChI=1S/C19H24N2O/c1-21(2-22)15-7-14-20-18-10-5-3-8-16(18)12-13-17-9-4-6-11-19(17)20/h3-6-8-11H-7-12-15H2-1-2H3

>  <threshold>
-1

>  <reference>
R1|R13|R19|R6|R24|R27|R27|R27|R30|R30|

>  <group>
B

>  <Class>
-1

>  <ABC>
17.29

>  <ABCGG>
13.9

>  <nAcid>
0

>  <nBase>
1

>  <nAromAtom>
12

>  <nAromBond>
12

>  <nAtom>
46

>  <nHeavyAtom>
22

>  <nSpiro>
0

>  <nBridgehead>
0

>  <nHetero>
3

>  <nN>
2

>  <nO>
1

>  <nF>
0

>  <BalabanJ>
1.7

>  <BertzCT>
598.38

>  <nBonds>
48

>  <nBondsO>
24

>  <nBondsS>
36

>  <nBondsD>
0

>  <nBondsT>
0

>  <nBondsA>
12

>  <nBondsM>
12

>  <nBondsKS>
42

>  <nBondsKD>
6

>  <RNCG>
0.34

>  <RPCG>
0.05

>  <FCSP3>
0.37

>  <SZ>
26.67

>  <Sm>
24.68

>  <Sv>
27.73

>  <Sse>
45.31

>  <Sp>
30.38

>  <Si>
51.77

>  <MZ>
0.58

>  <Mm>
0.54

>  <Mv>
0.6

>  <Mse>
0.99

>  <Mp>
0.66

>  <Mi>
1.13

>  <NsCH3>
2

>  <NdCH2>
0

>  <NssCH2>
5

>  <NtCH>
0

>  <NdsCH>
0

>  <NaaCH>
8

>  <NsssCH>
0

>  <NddC>
0

>  <NtsC>
0

>  <NdssC>
0

>  <NaasC>
4

>  <NaaaC>
0

>  <NssssC>
0

>  <NsNH3>
0

>  <NsNH2>
0

>  <NssNH2>
0

>  <NdNH>
0

>  <NssNH>
0

>  <NaaNH>
0

>  <NtN>
0

>  <NsssNH>
0

>  <NdsN>
0

>  <NaaN>
0

>  <NsssN>
1

>  <NddsN>
0

>  <NaasN>
0

>  <NssssN>
1

>  <NsOH>
0

>  <NdO>
0

>  <NssO>
0

>  <NaaO>
0

>  <NsF>
0

>  <NsSiH3>
0

>  <NssSiH2>
0

>  <NsssSiH>
0

>  <NssssSi>
0

>  <NsPH2>
0

>  <NssPH>
0

>  <NsssP>
0

>  <NdsssP>
0

>  <NsssssP>
0

>  <NsSH>
0

>  <NdS>
0

>  <NssS>
0

>  <NaaS>
0

>  <NdssS>
0

>  <NddssS>
0

>  <NsCl>
0

>  <NsBr>
0

>  <NsI>
0

>  <fragCpx>
114.03

>  <fMF>
0.33

>  <nHBAcc>
2

>  <nHBDon>
0

>  <Kier1>
16.84

>  <Kier2>
7.27

>  <Lipinski>
1

>  <GhoseFilter>
1

>  <FilterItLogS>
-5.68

>  <VMcGowan>
246.02

>  <LabuteASA>
132.52

>  <PEOE_VSA1>
14.75

>  <PEOE_VSA2>
0

>  <PEOE_VSA3>
0

>  <PEOE_VSA4>
0

>  <PEOE_VSA5>
0

>  <PEOE_VSA6>
36.4

>  <PEOE_VSA7>
36.1

>  <PEOE_VSA8>
24.34

>  <PEOE_VSA9>
20.64

>  <PEOE_VSA10>
0

>  <PEOE_VSA11>
0

>  <PEOE_VSA12>
0

>  <PEOE_VSA13>
0

>  <SMR_VSA1>
4.65

>  <SMR_VSA2>
0

>  <SMR_VSA3>
0

>  <SMR_VSA4>
0

>  <SMR_VSA5>
19.26

>  <SMR_VSA6>
32.08

>  <SMR_VSA7>
64.87

>  <SMR_VSA8>
0

>  <SMR_VSA9>
0

>  <SlogP_VSA1>
4.9

>  <SlogP_VSA2>
31.83

>  <SlogP_VSA3>
12.84

>  <SlogP_VSA4>
5.21

>  <SlogP_VSA5>
17.55

>  <SlogP_VSA6>
48.53

>  <SlogP_VSA7>
0

>  <SlogP_VSA8>
0

>  <SlogP_VSA9>
0

>  <SlogP_VSA10>
11.37

>  <SlogP_VSA11>
0

>  <EState_VSA1>
0

>  <EState_VSA2>
4.65

>  <EState_VSA3>
6.54

>  <EState_VSA4>
25.81

>  <EState_VSA5>
22.5

>  <EState_VSA6>
14.1

>  <EState_VSA7>
0

>  <EState_VSA8>
53.43

>  <EState_VSA9>
0

>  <EState_VSA10>
5.21

>  <VSA_EState1>
-0.23

>  <VSA_EState2>
2.4

>  <VSA_EState3>
11.82

>  <VSA_EState4>
5.39

>  <VSA_EState5>
0

>  <VSA_EState6>
17.29

>  <VSA_EState7>
3.04

>  <VSA_EState8>
1.53

>  <VSA_EState9>
3.43

>  <apol>
50.74

>  <bpol>
27.79

>  <nRing>
3

>  <nHRing>
1

>  <naRing>
2

>  <naHRing>
0

>  <nARing 2>
1

>  <nAHRing 2>
1

>  <nFRing>
1

>  <nFHRing>
1

>  <nFaRing>
0

>  <nFaHRing>
0

>  <nFARing 2>
1

>  <nFAHRing 2>
1

>  <nRot>
4

>  <SLogP>
3.89

>  <SMR>
92.26

>  <TopoPSA(NO)>
26.3

>  <TopoPSA>
26.3

>  <JGI1>
0.19

>  <JGI2>
0.07

>  <JGI3>
0.04

>  <JGI4>
0.03

>  <JGI5>
0.02

>  <Diameter>
9

>  <Radius>
5

>  <TMWC10>
120.18

>  <TSRW10>
64.25

>  <MW>
296.19

>  <AMW>
6.44

>  <WPath>
1007

>  <WPol>
36

>  <Zagreb1>
116

>  <Zagreb2>
134

>  <mZagreb2>
4.74

>  <yes>


>  <nAR-cont>
0.816016

>  <nHA-cont>
0.983774276

>  <MWHBN>
0.116210347

>  <MWHBN-cont>
0.812595843

>  <TPSA-cont>
0.816409669

>  <pka_cont>
0.97

>  <yes.1>


>  <BBB_SCORE>
5.136503377

>  <MMFF94 Energy>
67.545

$$$$
Compound 1623
Actelion Java MolfileCreator 2.0

  0  0  0  0  0  0              0 V3000
M  V30 BEGIN CTAB
M  V30 COUNTS 51 53 0 0 0
M  V30 BEGIN ATOM
M  V30 1 O 1.5898 1.908 0.7151 0
M  V30 2 C 0.9187 1.0791 0.1078 0
M  V30 3 O 1.037 -0.267 0.3084 0
M  V30 4 C -0.1573 1.4367 -0.9534 0
M  V30 5 C 2.0019 -0.6497 1.3056 0
M  V30 6 O -0.3679 2.8589 -0.9094 0
M  V30 7 C -1.4838 0.7599 -0.5667 0
M  V30 8 C 0.3778 1.0672 -2.3608 0
M  V30 9 C 1.5358 -0.3176 2.7287 0
M  V30 10 C 2.0756 -2.1648 1.3323 0
M  V30 11 C -2.4085 1.4293 0.2589 0
M  V30 12 C -1.7982 -0.5537 -0.9629 0
M  V30 13 C -0.5566 1.4465 -3.5179 0
M  V30 14 C 1.6657 1.7968 -2.7706 0
M  V30 15 N 0.5903 -1.4879 3.1269 0 CHG=1
M  V30 16 C 0.7977 -2.5647 2.0477 0
M  V30 17 C -3.6008 0.8192 0.6571 0
M  V30 18 C -2.9913 -1.1636 -0.5632 0
M  V30 19 C 0.3269 1.4094 -4.763 0
M  V30 20 C 1.7659 1.5407 -4.2693 0
M  V30 21 C 0.9497 -2.0186 4.5039 0
M  V30 22 C -0.8604 -1.0216 3.1319 0
M  V30 23 C -3.8916 -0.4774 0.2461 0
M  V30 24 H 2.9751 -0.2082 1.0639 0
M  V30 25 H 0.4922 3.2798 -0.7216 0
M  V30 26 H 0.5857 -0.0103 -2.413 0
M  V30 27 H 2.383 -0.3336 3.4231 0
M  V30 28 H 0.983 0.6192 2.8343 0
M  V30 29 H 2.9496 -2.4995 1.903 0
M  V30 30 H 2.1179 -2.6068 0.3321 0
M  V30 31 H -2.2197 2.4533 0.5813 0
M  V30 32 H -1.1289 -1.1247 -1.6018 0
M  V30 33 H -0.9575 2.4589 -3.3883 0
M  V30 34 H -1.4064 0.7641 -3.6142 0
M  V30 35 H 2.5463 1.4228 -2.2393 0
M  V30 36 H 1.5947 2.8757 -2.5919 0
M  V30 37 H 0.8563 -3.5505 2.5193 0
M  V30 38 H -0.061 -2.5384 1.3673 0
M  V30 39 H -4.3137 1.3699 1.2675 0
M  V30 40 H -3.2298 -2.1684 -0.9054 0
M  V30 41 H 0.1999 0.4629 -5.3004 0
M  V30 42 H 0.0619 2.2163 -5.4541 0
M  V30 43 H 2.3074 0.606 -4.4566 0
M  V30 44 H 2.3057 2.3425 -4.7825 0
M  V30 45 H 1.9789 -2.3884 4.4759 0
M  V30 46 H 0.8545 -1.1999 5.2232 0
M  V30 47 H 0.2599 -2.8306 4.7518 0
M  V30 48 H -1.0912 -0.6005 2.1528 0
M  V30 49 H -1.4975 -1.8861 3.3399 0
M  V30 50 H -0.9752 -0.2618 3.9106 0
M  V30 51 H -4.8321 -0.942 0.5339 0
M  V30 END ATOM
M  V30 BEGIN BOND
M  V30 1 2 1 2
M  V30 2 1 2 3
M  V30 3 1 2 4
M  V30 4 1 3 5
M  V30 5 1 4 6
M  V30 6 1 4 7
M  V30 7 1 4 8
M  V30 8 1 5 9
M  V30 9 1 5 10
M  V30 10 2 7 11
M  V30 11 1 7 12
M  V30 12 1 8 13
M  V30 13 1 8 14
M  V30 14 1 9 15
M  V30 15 1 10 16
M  V30 16 1 11 17
M  V30 17 2 12 18
M  V30 18 1 13 19
M  V30 19 1 14 20
M  V30 20 1 15 21
M  V30 21 1 15 22
M  V30 22 2 17 23
M  V30 23 1 15 16
M  V30 24 1 18 23
M  V30 25 1 19 20
M  V30 26 1 5 24
M  V30 27 1 6 25
M  V30 28 1 8 26
M  V30 29 1 9 27
M  V30 30 1 9 28
M  V30 31 1 10 29
M  V30 32 1 10 30
M  V30 33 1 11 31
M  V30 34 1 12 32
M  V30 35 1 13 33
M  V30 36 1 13 34
M  V30 37 1 14 35
M  V30 38 1 14 36
M  V30 39 1 16 37
M  V30 40 1 16 38
M  V30 41 1 17 39
M  V30 42 1 18 40
M  V30 43 1 19 41
M  V30 44 1 19 42
M  V30 45 1 20 43
M  V30 46 1 20 44
M  V30 47 1 21 45
M  V30 48 1 21 46
M  V30 49 1 21 47
M  V30 50 1 22 48
M  V30 51 1 22 49
M  V30 52 1 22 50
M  V30 53 1 23 51
M  V30 END BOND
M  V30 END CTAB
M  END
>  <Column 1>
1972

>  <level_0>
2144

>  <index>
2144

>  <Unnamed: 0>
2144

>  <NO.>
2156

>  <Name>
glycopyrrolate

>  <IUPAC_name>
(1-1-dimethylpyrrolidin-1-ium-3-yl) 2-cyclopentyl-2-hydroxy-2-phenylacetate;bromide

>  <SMILES>
C[N+]1(C)CCC(OC(=O)C(O)(c2ccccc2)C2CCCC2)C1

>  <CID>
3494

>  <logBB>


>  <BBB+/BBB->
BBB-

>  <Inchi>
InChI=1S/C19H28NO3/c1-20(2)13-12-17(14-20)23-18(21)19(22-16-10-6-7-11-16)15-8-4-3-5-9-15/h3-5-8-9-16-17-22H-6-7-10-14H2-1-2H3/q+1

>  <threshold>
-1

>  <reference>
R1|R13|R14|R27|R30|

>  <group>
B

>  <Class>
-1

>  <ABC>
18.08

>  <ABCGG>
16.18

>  <nAcid>
0

>  <nBase>
1

>  <nAromAtom>
6

>  <nAromBond>
6

>  <nAtom>
51

>  <nHeavyAtom>
23

>  <nSpiro>
0

>  <nBridgehead>
0

>  <nHetero>
4

>  <nN>
1

>  <nO>
3

>  <nF>
0

>  <BalabanJ>
1.71

>  <BertzCT>
550.99

>  <nBonds>
53

>  <nBondsO>
25

>  <nBondsS>
46

>  <nBondsD>
1

>  <nBondsT>
0

>  <nBondsA>
6

>  <nBondsM>
7

>  <nBondsKS>
49

>  <nBondsKD>
4

>  <RNCG>
0.24

>  <RPCG>
0.12

>  <FCSP3>
0.63

>  <SZ>
28.83

>  <Sm>
26.51

>  <Sv>
29.49

>  <Sse>
50.58

>  <Sp>
32.28

>  <Si>
57.73

>  <MZ>
0.57

>  <Mm>
0.52

>  <Mv>
0.58

>  <Mse>
0.99

>  <Mp>
0.63

>  <Mi>
1.13

>  <NsCH3>
2

>  <NdCH2>
0

>  <NssCH2>
7

>  <NtCH>
0

>  <NdsCH>
0

>  <NaaCH>
5

>  <NsssCH>
2

>  <NddC>
0

>  <NtsC>
0

>  <NdssC>
1

>  <NaasC>
1

>  <NaaaC>
0

>  <NssssC>
1

>  <NsNH3>
0

>  <NsNH2>
0

>  <NssNH2>
0

>  <NdNH>
0

>  <NssNH>
0

>  <NaaNH>
0

>  <NtN>
0

>  <NsssNH>
0

>  <NdsN>
0

>  <NaaN>
0

>  <NsssN>
0

>  <NddsN>
0

>  <NaasN>
0

>  <NssssN>
1

>  <NsOH>
1

>  <NdO>
1

>  <NssO>
1

>  <NaaO>
0

>  <NsF>
0

>  <NsSiH3>
0

>  <NssSiH2>
0

>  <NsssSiH>
0

>  <NssssSi>
0

>  <NsPH2>
0

>  <NssPH>
0

>  <NsssP>
0

>  <NdsssP>
0

>  <NsssssP>
0

>  <NsSH>
0

>  <NdS>
0

>  <NssS>
0

>  <NaaS>
0

>  <NdssS>
0

>  <NddssS>
0

>  <NsCl>
0

>  <NsBr>
0

>  <NsI>
0

>  <fragCpx>
119.04

>  <fMF>
0.37

>  <nHBAcc>
3

>  <nHBDon>
1

>  <Kier1>
17.81

>  <Kier2>
7.09

>  <Lipinski>
1

>  <GhoseFilter>
1

>  <FilterItLogS>
-3.65

>  <VMcGowan>
258.53

>  <LabuteASA>
138.2

>  <PEOE_VSA1>
14.33

>  <PEOE_VSA2>
0

>  <PEOE_VSA3>
4.79

>  <PEOE_VSA4>
0

>  <PEOE_VSA5>
0

>  <PEOE_VSA6>
43.17

>  <PEOE_VSA7>
18.41

>  <PEOE_VSA8>
12.34

>  <PEOE_VSA9>
20.64

>  <PEOE_VSA10>
6.54

>  <PEOE_VSA11>
11.71

>  <PEOE_VSA12>
0

>  <PEOE_VSA13>
0

>  <SMR_VSA1>
19.12

>  <SMR_VSA2>
0

>  <SMR_VSA3>
0

>  <SMR_VSA4>
5.92

>  <SMR_VSA5>
43.81

>  <SMR_VSA6>
27.18

>  <SMR_VSA7>
35.9

>  <SMR_VSA8>
0

>  <SMR_VSA9>
0

>  <SlogP_VSA1>
0

>  <SlogP_VSA2>
48.85

>  <SlogP_VSA3>
15.13

>  <SlogP_VSA4>
5.92

>  <SlogP_VSA5>
37.67

>  <SlogP_VSA6>
30.33

>  <SlogP_VSA7>
0

>  <SlogP_VSA8>
0

>  <SlogP_VSA9>
0

>  <SlogP_VSA10>
0

>  <SlogP_VSA11>
0

>  <EState_VSA1>
11.57

>  <EState_VSA2>
12.02

>  <EState_VSA3>
5.56

>  <EState_VSA4>
49.68

>  <EState_VSA5>
0

>  <EState_VSA6>
0

>  <EState_VSA7>
30.33

>  <EState_VSA8>
14.1

>  <EState_VSA9>
4.74

>  <EState_VSA10>
9.9

>  <VSA_EState1>
6.64

>  <VSA_EState2>
12.94

>  <VSA_EState3>
11.36

>  <VSA_EState4>
-0.83

>  <VSA_EState5>
-0.5

>  <VSA_EState6>
9.33

>  <VSA_EState7>
4.68

>  <VSA_EState8>
1.83

>  <VSA_EState9>
4.29

>  <apol>
53.91

>  <bpol>
32.97

>  <nRing>
3

>  <nHRing>
1

>  <naRing>
1

>  <naHRing>
0

>  <nARing 2>
2

>  <nAHRing 2>
1

>  <nFRing>
0

>  <nFHRing>
0

>  <nFaRing>
0

>  <nFaHRing>
0

>  <nFARing 2>
0

>  <nFAHRing 2>
0

>  <nRot>
4

>  <SLogP>
2.46

>  <SMR>
88.64

>  <TopoPSA(NO)>
46.53

>  <TopoPSA>
46.53

>  <JGI1>
0.26

>  <JGI2>
0.1

>  <JGI3>
0.08

>  <JGI4>
0.03

>  <JGI5>
0.02

>  <Diameter>
10

>  <Radius>
5

>  <TMWC10>
123.59

>  <TSRW10>
73.33

>  <MW>
318.21

>  <AMW>
6.24

>  <WPath>
1132

>  <WPol>
35

>  <Zagreb1>
124

>  <Zagreb2>
147

>  <mZagreb2>
4.92

>  <yes>


>  <nAR-cont>
1

>  <nHA-cont>
0.967789328

>  <MWHBN>
0.224234834

>  <MWHBN-cont>
0.991947824

>  <TPSA-cont>
0.675191707

>  <pka_cont>
0.97

>  <yes.1>


>  <BBB_SCORE>
5.291094477

>  <MMFF94 Energy>
103.63

$$$$
Compound 1624
Actelion Java MolfileCreator 2.0

  0  0  0  0  0  0              0 V3000
M  V30 BEGIN CTAB
M  V30 COUNTS 51 53 0 0 0
M  V30 BEGIN ATOM
M  V30 1 O -0.3182 0.3977 -1.2733 0
M  V30 2 C 0.0458 0.5259 -0.1082 0
M  V30 3 O 0.603 -0.518 0.5941 0
M  V30 4 C -0.0121 1.8296 0.7569 0
M  V30 5 C 0.6715 -1.767 -0.1195 0 CFG=2
M  V30 6 O -0.0868 1.3969 2.1366 0
M  V30 7 C -1.2869 2.6191 0.4218 0
M  V30 8 C 1.2619 2.6817 0.6285 0
M  V30 9 C -0.7294 -2.3967 -0.2542 0
M  V30 10 C 1.5938 -2.6906 0.6742 0
M  V30 11 C -2.3901 2.6435 1.2952 0
M  V30 12 C -1.394 3.3288 -0.7903 0
M  V30 13 C 1.4948 3.7141 1.5608 0
M  V30 14 C 2.2042 2.4994 -0.3993 0
M  V30 15 N -0.6905 -3.8131 -0.8523 0 CHG=1
M  V30 16 C 1.6489 -4.0873 0.0706 0
M  V30 17 C -3.549 3.3549 0.9734 0
M  V30 18 C -2.5538 4.0386 -1.1104 0
M  V30 19 C 2.6354 4.5143 1.4828 0
M  V30 20 C 3.3456 3.3031 -0.4746 0
M  V30 21 C 0.2638 -4.7104 -0.061 0
M  V30 22 C -2.1023 -4.4066 -0.7554 0
M  V30 23 C -0.3205 -3.7636 -2.3355 0
M  V30 24 C -3.6302 4.0516 -0.2285 0
M  V30 25 C 3.5624 4.3055 0.467 0
M  V30 26 H 1.1217 -1.5902 -1.1041 0
M  V30 27 H 0.8275 1.2158 2.4175 0
M  V30 28 H -1.3975 -1.7969 -0.8813 0
M  V30 29 H -1.1981 -2.4743 0.7356 0
M  V30 30 H 2.6014 -2.2592 0.7166 0
M  V30 31 H 1.2537 -2.7479 1.7167 0
M  V30 32 H -2.357 2.1175 2.2476 0
M  V30 33 H -0.5709 3.3397 -1.5028 0
M  V30 34 H 0.7735 3.9086 2.355 0
M  V30 35 H 2.0695 1.7476 -1.1732 0
M  V30 36 H 2.2695 -4.7293 0.7066 0
M  V30 37 H 2.1469 -4.0504 -0.9046 0
M  V30 38 H -4.3864 3.3717 1.667 0
M  V30 39 H -2.6139 4.5866 -2.0478 0
M  V30 40 H 2.7944 5.3074 2.21 0
M  V30 41 H 4.0646 3.1554 -1.2774 0
M  V30 42 H -0.179 -4.8561 0.9316 0
M  V30 43 H 0.3111 -5.6791 -0.5709 0
M  V30 44 H -2.787 -3.7649 -1.3181 0
M  V30 45 H -2.3931 -4.4429 0.2986 0
M  V30 46 H -2.0817 -5.4145 -1.1804 0
M  V30 47 H -0.342 -4.7844 -2.7284 0
M  V30 48 H 0.6781 -3.3389 -2.4492 0
M  V30 49 H -1.0551 -3.1397 -2.8535 0
M  V30 50 H -4.5296 4.6105 -0.475 0
M  V30 51 H 4.4478 4.9336 0.4018 0
M  V30 END ATOM
M  V30 BEGIN BOND
M  V30 1 2 1 2
M  V30 2 1 2 3
M  V30 3 1 2 4
M  V30 4 1 3 5
M  V30 5 1 4 6
M  V30 6 1 4 7
M  V30 7 1 4 8
M  V30 8 1 5 9
M  V30 9 1 5 10
M  V30 10 2 7 11
M  V30 11 1 7 12
M  V30 12 2 8 13
M  V30 13 1 8 14
M  V30 14 1 9 15
M  V30 15 1 10 16
M  V30 16 1 11 17
M  V30 17 2 12 18
M  V30 18 1 13 19
M  V30 19 2 14 20
M  V30 20 1 15 21
M  V30 21 1 15 22
M  V30 22 1 15 23
M  V30 23 2 17 24
M  V30 24 2 19 25
M  V30 25 1 16 21
M  V30 26 1 18 24
M  V30 27 1 20 25
M  V30 28 1 5 26
M  V30 29 1 6 27
M  V30 30 1 9 28
M  V30 31 1 9 29
M  V30 32 1 10 30
M  V30 33 1 10 31
M  V30 34 1 11 32
M  V30 35 1 12 33
M  V30 36 1 13 34
M  V30 37 1 14 35
M  V30 38 1 16 36
M  V30 39 1 16 37
M  V30 40 1 17 38
M  V30 41 1 18 39
M  V30 42 1 19 40
M  V30 43 1 20 41
M  V30 44 1 21 42
M  V30 45 1 21 43
M  V30 46 1 22 44
M  V30 47 1 22 45
M  V30 48 1 22 46
M  V30 49 1 23 47
M  V30 50 1 23 48
M  V30 51 1 23 49
M  V30 52 1 24 50
M  V30 53 1 25 51
M  V30 END BOND
M  V30 BEGIN COLLECTION
M  V30 MDLV30/STERAC1 ATOMS=(1 5)
M  V30 END COLLECTION
M  V30 END CTAB
M  END
>  <Column 1>
1973

>  <level_0>
2145

>  <index>
2145

>  <Unnamed: 0>
2145

>  <NO.>
2157

>  <Name>
mepenzolatebromide

>  <IUPAC_name>
(1-1-dimethylpiperidin-1-ium-3-yl) 2-hydroxy-2-2-diphenylacetate;bromide

>  <SMILES>
C[N+]1(C)CCCC(OC(=O)C(O)(c2ccccc2)c2ccccc2)C1

>  <CID>
4057

>  <logBB>


>  <BBB+/BBB->
BBB-

>  <Inchi>
InChI=1S/C21H26NO3/c1-22(2)15-9-14-19(16-22)25-20(23)21(24-17-10-5-3-6-11-17)18-12-7-4-8-13-18/h3-8-10-13-19-24H-9-14-16H2-1-2H3/q+1

>  <threshold>
-1

>  <reference>
R1|R13|R14|R27|R30|

>  <group>
B

>  <Class>
1

>  <ABC>
19.49

>  <ABCGG>
16.19

>  <nAcid>
0

>  <nBase>
1

>  <nAromAtom>
12

>  <nAromBond>
12

>  <nAtom>
51

>  <nHeavyAtom>
25

>  <nSpiro>
0

>  <nBridgehead>
0

>  <nHetero>
4

>  <nN>
1

>  <nO>
3

>  <nF>
0

>  <BalabanJ>
1.73

>  <BertzCT>
672.94

>  <nBonds>
53

>  <nBondsO>
27

>  <nBondsS>
40

>  <nBondsD>
1

>  <nBondsT>
0

>  <nBondsA>
12

>  <nBondsM>
13

>  <nBondsKS>
46

>  <nBondsKD>
7

>  <RNCG>
0.23

>  <RPCG>
0.12

>  <FCSP3>
0.38

>  <SZ>
30.5

>  <Sm>
28.34

>  <Sv>
30.95

>  <Sse>
50.7

>  <Sp>
33.48

>  <Si>
57.32

>  <MZ>
0.6

>  <Mm>
0.56

>  <Mv>
0.61

>  <Mse>
0.99

>  <Mp>
0.66

>  <Mi>
1.12

>  <NsCH3>
2

>  <NdCH2>
0

>  <NssCH2>
4

>  <NtCH>
0

>  <NdsCH>
0

>  <NaaCH>
10

>  <NsssCH>
1

>  <NddC>
0

>  <NtsC>
0

>  <NdssC>
1

>  <NaasC>
2

>  <NaaaC>
0

>  <NssssC>
1

>  <NsNH3>
0

>  <NsNH2>
0

>  <NssNH2>
0

>  <NdNH>
0

>  <NssNH>
0

>  <NaaNH>
0

>  <NtN>
0

>  <NsssNH>
0

>  <NdsN>
0

>  <NaaN>
0

>  <NsssN>
0

>  <NddsN>
0

>  <NaasN>
0

>  <NssssN>
1

>  <NsOH>
1

>  <NdO>
1

>  <NssO>
1

>  <NaaO>
0

>  <NsF>
0

>  <NsSiH3>
0

>  <NssSiH2>
0

>  <NsssSiH>
0

>  <NssssSi>
0

>  <NsPH2>
0

>  <NssPH>
0

>  <NsssP>
0

>  <NdsssP>
0

>  <NsssssP>
0

>  <NsSH>
0

>  <NdS>
0

>  <NssS>
0

>  <NaaS>
0

>  <NdssS>
0

>  <NddssS>
0

>  <NsCl>
0

>  <NsBr>
0

>  <NsI>
0

>  <fragCpx>
129.04

>  <fMF>
0.41

>  <nHBAcc>
3

>  <nHBDon>
1

>  <Kier1>
19.75

>  <Kier2>
8.35

>  <Lipinski>
1

>  <GhoseFilter>
1

>  <FilterItLogS>
-4.52

>  <VMcGowan>
273.81

>  <LabuteASA>
148.81

>  <PEOE_VSA1>
14.33

>  <PEOE_VSA2>
0

>  <PEOE_VSA3>
4.79

>  <PEOE_VSA4>
0

>  <PEOE_VSA5>
0

>  <PEOE_VSA6>
60.66

>  <PEOE_VSA7>
17.55

>  <PEOE_VSA8>
6.42

>  <PEOE_VSA9>
20.64

>  <PEOE_VSA10>
6.54

>  <PEOE_VSA11>
6.1

>  <PEOE_VSA12>
5.6

>  <PEOE_VSA13>
0

>  <SMR_VSA1>
19.12

>  <SMR_VSA2>
0

>  <SMR_VSA3>
0

>  <SMR_VSA4>
0

>  <SMR_VSA5>
24.55

>  <SMR_VSA6>
27.18

>  <SMR_VSA7>
71.79

>  <SMR_VSA8>
0

>  <SMR_VSA9>
0

>  <SlogP_VSA1>
0

>  <SlogP_VSA2>
48.85

>  <SlogP_VSA3>
15.13

>  <SlogP_VSA4>
0

>  <SlogP_VSA5>
23.97

>  <SlogP_VSA6>
60.66

>  <SlogP_VSA7>
0

>  <SlogP_VSA8>
0

>  <SlogP_VSA9>
0

>  <SlogP_VSA10>
0

>  <SlogP_VSA11>
0

>  <EState_VSA1>
11.57

>  <EState_VSA2>
6.1

>  <EState_VSA3>
11.13

>  <EState_VSA4>
30.41

>  <EState_VSA5>
0

>  <EState_VSA6>
24.27

>  <EState_VSA7>
36.4

>  <EState_VSA8>
14.1

>  <EState_VSA9>
4.74

>  <EState_VSA10>
9.9

>  <VSA_EState1>
6.62

>  <VSA_EState2>
13.07

>  <VSA_EState3>
11.4

>  <VSA_EState4>
-0.75

>  <VSA_EState5>
-0.6

>  <VSA_EState6>
18.03

>  <VSA_EState7>
1.68

>  <VSA_EState8>
1.85

>  <VSA_EState9>
4.28

>  <apol>
55.91

>  <bpol>
30.97

>  <nRing>
3

>  <nHRing>
1

>  <naRing>
2

>  <naHRing>
0

>  <nARing 2>
1

>  <nAHRing 2>
1

>  <nFRing>
0

>  <nFHRing>
0

>  <nFaRing>
0

>  <nFaHRing>
0

>  <nFARing 2>
0

>  <nFAHRing 2>
0

>  <nRot>
4

>  <SLogP>
2.7

>  <SMR>
96.84

>  <TopoPSA(NO)>
46.53

>  <TopoPSA>
46.53

>  <JGI1>
0.24

>  <JGI2>
0.09

>  <JGI3>
0.07

>  <JGI4>
0.04

>  <JGI5>
0.02

>  <Diameter>
10

>  <Radius>
5

>  <TMWC10>
127.84

>  <TSRW10>
60.1

>  <MW>
340.19

>  <AMW>
6.67

>  <WPath>
1420

>  <WPol>
41

>  <Zagreb1>
132

>  <Zagreb2>
155

>  <mZagreb2>
5.42

>  <yes>


>  <nAR-cont>
0.816016

>  <nHA-cont>
0.921834225

>  <MWHBN>
0.21686987

>  <MWHBN-cont>
0.996747342

>  <TPSA-cont>
0.675191707

>  <pka_cont>
0.97

>  <yes.1>


>  <BBB_SCORE>
5.06835465

>  <MMFF94 Energy>
149.77

$$$$
Compound 1625
Actelion Java MolfileCreator 2.0

  0  0  0  0  0  0              0 V3000
M  V30 BEGIN CTAB
M  V30 COUNTS 45 47 0 0 0
M  V30 BEGIN ATOM
M  V30 1 O -0.5597 -1.5199 -1.5999 0
M  V30 2 C 0.5276 -1.2419 -1.1057 0
M  V30 3 O 0.7074 -0.7889 0.1692 0
M  V30 4 C 1.8603 -1.3084 -1.8335 0
M  V30 5 C -0.4845 -0.6032 0.9526 0
M  V30 6 C 2.0552 -0.0893 -2.7202 0
M  V30 7 C 1.9477 -2.6211 -2.6209 0
M  V30 8 C -0.1008 -0.6651 2.4398 0
M  V30 9 C -1.1728 0.7226 0.5845 0
M  V30 10 C 3.0474 0.8507 -2.4029 0
M  V30 11 C 1.2506 0.1359 -3.8487 0
M  V30 12 O 2.223 -3.7074 -1.7351 0
M  V30 13 C -1.2051 -0.0945 3.3504 0
M  V30 14 C -2.181 1.172 1.6589 0
M  V30 15 C 3.2382 1.9798 -3.201 0
M  V30 16 C 1.4441 1.2658 -4.6452 0
M  V30 17 N -1.4545 1.3572 2.9804 0 CHG=1
M  V30 18 C -2.5556 -0.7729 3.0768 0
M  V30 19 C -3.199 0.0618 1.9601 0
M  V30 20 C 2.4387 2.186 -4.3227 0
M  V30 21 O -0.3025 2.0734 2.8542 0 CHG=-1
M  V30 22 C -2.3076 2.0636 4.0006 0
M  V30 23 H 2.65 -1.3353 -1.0698 0
M  V30 24 H -1.1681 -1.4389 0.754 0
M  V30 25 H 1.0236 -2.8479 -3.1635 0
M  V30 26 H 2.7688 -2.5831 -3.3456 0
M  V30 27 H 0.8438 -0.1309 2.6021 0
M  V30 28 H 0.1076 -1.7074 2.7119 0
M  V30 29 H -0.4145 1.4984 0.4202 0
M  V30 30 H -1.6868 0.613 -0.378 0
M  V30 31 H 3.6774 0.7154 -1.5256 0
M  V30 32 H 0.4548 -0.5586 -4.1113 0
M  V30 33 H 2.2609 -4.5133 -2.2796 0
M  V30 34 H -0.9072 -0.1308 4.4032 0
M  V30 35 H -2.6463 2.1258 1.3902 0
M  V30 36 H 4.0081 2.7023 -2.9421 0
M  V30 37 H 0.8124 1.4318 -5.514 0
M  V30 38 H -3.1886 -0.7468 3.9712 0
M  V30 39 H -2.4504 -1.8261 2.797 0
M  V30 40 H -3.4383 -0.542 1.0787 0
M  V30 41 H -4.1437 0.4902 2.3142 0
M  V30 42 H 2.5857 3.0679 -4.9402 0
M  V30 43 H -3.2509 1.5392 4.1501 0
M  V30 44 H -1.7324 2.097 4.9302 0
M  V30 45 H -2.4834 3.0756 3.6245 0
M  V30 END ATOM
M  V30 BEGIN BOND
M  V30 1 2 1 2
M  V30 2 1 2 3
M  V30 3 1 2 4
M  V30 4 1 3 5
M  V30 5 1 4 6
M  V30 6 1 4 7
M  V30 7 1 5 8
M  V30 8 1 5 9
M  V30 9 2 6 10
M  V30 10 1 6 11
M  V30 11 1 7 12
M  V30 12 1 8 13
M  V30 13 1 9 14
M  V30 14 1 10 15
M  V30 15 2 11 16
M  V30 16 1 13 17
M  V30 17 1 13 18
M  V30 18 1 14 19
M  V30 19 2 15 20
M  V30 20 1 17 21
M  V30 21 1 17 22
M  V30 22 1 14 17
M  V30 23 1 16 20
M  V30 24 1 18 19
M  V30 25 1 4 23
M  V30 26 1 5 24
M  V30 27 1 7 25
M  V30 28 1 7 26
M  V30 29 1 8 27
M  V30 30 1 8 28
M  V30 31 1 9 29
M  V30 32 1 9 30
M  V30 33 1 10 31
M  V30 34 1 11 32
M  V30 35 1 12 33
M  V30 36 1 13 34
M  V30 37 1 14 35
M  V30 38 1 15 36
M  V30 39 1 16 37
M  V30 40 1 18 38
M  V30 41 1 18 39
M  V30 42 1 19 40
M  V30 43 1 19 41
M  V30 44 1 20 42
M  V30 45 1 22 43
M  V30 46 1 22 44
M  V30 47 1 22 45
M  V30 END BOND
M  V30 END CTAB
M  END
>  <Column 1>
1974

>  <level_0>
2146

>  <index>
2146

>  <Unnamed: 0>
2146

>  <NO.>
2158

>  <Name>
atropine oxide

>  <IUPAC_name>
(8-methyl-8-oxido-8-azoniabicyclo[3.2.1]octan-3-yl) 3-hydroxy-2-phenylpropanoate

>  <SMILES>
C[N+]1([O-])C2CCC1CC(OC(=O)C(CO)c1ccccc1)C2

>  <CID>
20710

>  <logBB>


>  <BBB+/BBB->
BBB+

>  <Inchi>
InChI=1S/C17H23NO4/c1-18(21)13-7-8-14(18)10-15(9-13)22-17(20)16(11-19)12-5-3-2-4-6-12/h2-6-13-16-19H-7-11H2-1H3

>  <threshold>
-1

>  <reference>
R1|R19|R27|R27|R30|

>  <group>
B

>  <Class>
-1

>  <ABC>
17.19

>  <ABCGG>
14.7

>  <nAcid>
0

>  <nBase>
1

>  <nAromAtom>
6

>  <nAromBond>
6

>  <nAtom>
45

>  <nHeavyAtom>
22

>  <nSpiro>
0

>  <nBridgehead>
2

>  <nHetero>
5

>  <nN>
1

>  <nO>
4

>  <nF>
0

>  <BalabanJ>
1.56

>  <BertzCT>
514.72

>  <nBonds>
47

>  <nBondsO>
24

>  <nBondsS>
40

>  <nBondsD>
1

>  <nBondsT>
0

>  <nBondsA>
6

>  <nBondsM>
7

>  <nBondsKS>
43

>  <nBondsKD>
4

>  <RNCG>
0.26

>  <RPCG>
0.13

>  <FCSP3>
0.59

>  <SZ>
27.33

>  <Sm>
25.42

>  <Sv>
26.85

>  <Sse>
45.2

>  <Sp>
28.76

>  <Si>
50.9

>  <MZ>
0.61

>  <Mm>
0.56

>  <Mv>
0.6

>  <Mse>
1

>  <Mp>
0.64

>  <Mi>
1.13

>  <NsCH3>
1

>  <NdCH2>
0

>  <NssCH2>
5

>  <NtCH>
0

>  <NdsCH>
0

>  <NaaCH>
5

>  <NsssCH>
4

>  <NddC>
0

>  <NtsC>
0

>  <NdssC>
1

>  <NaasC>
1

>  <NaaaC>
0

>  <NssssC>
0

>  <NsNH3>
0

>  <NsNH2>
0

>  <NssNH2>
0

>  <NdNH>
0

>  <NssNH>
0

>  <NaaNH>
0

>  <NtN>
0

>  <NsssNH>
0

>  <NdsN>
0

>  <NaaN>
0

>  <NsssN>
0

>  <NddsN>
0

>  <NaasN>
0

>  <NssssN>
1

>  <NsOH>
1

>  <NdO>
1

>  <NssO>
1

>  <NaaO>
0

>  <NsF>
0

>  <NsSiH3>
0

>  <NssSiH2>
0

>  <NsssSiH>
0

>  <NssssSi>
0

>  <NsPH2>
0

>  <NssPH>
0

>  <NsssP>
0

>  <NdsssP>
0

>  <NsssssP>
0

>  <NsSH>
0

>  <NdS>
0

>  <NssS>
0

>  <NaaS>
0

>  <NdssS>
0

>  <NddssS>
0

>  <NsCl>
0

>  <NsBr>
0

>  <NsI>
0

>  <fragCpx>
114.05

>  <fMF>
0.38

>  <nHBAcc>
4

>  <nHBDon>
1

>  <Kier1>
16.84

>  <Kier2>
6.86

>  <Lipinski>
1

>  <GhoseFilter>
1

>  <FilterItLogS>
-2.94

>  <VMcGowan>
234.07

>  <LabuteASA>
130.22

>  <PEOE_VSA1>
19.7

>  <PEOE_VSA2>
4.79

>  <PEOE_VSA3>
0

>  <PEOE_VSA4>
0

>  <PEOE_VSA5>
0

>  <PEOE_VSA6>
30.33

>  <PEOE_VSA7>
5.56

>  <PEOE_VSA8>
25.68

>  <PEOE_VSA9>
25.74

>  <PEOE_VSA10>
12.02

>  <PEOE_VSA11>
0

>  <PEOE_VSA12>
0

>  <PEOE_VSA13>
0

>  <SMR_VSA1>
19.28

>  <SMR_VSA2>
0

>  <SMR_VSA3>
0

>  <SMR_VSA4>
0

>  <SMR_VSA5>
49.79

>  <SMR_VSA6>
13.65

>  <SMR_VSA7>
41.1

>  <SMR_VSA8>
0

>  <SMR_VSA9>
0

>  <SlogP_VSA1>
0

>  <SlogP_VSA2>
47.56

>  <SlogP_VSA3>
9.53

>  <SlogP_VSA4>
5.21

>  <SlogP_VSA5>
37.16

>  <SlogP_VSA6>
30.33

>  <SlogP_VSA7>
0

>  <SlogP_VSA8>
0

>  <SlogP_VSA9>
0

>  <SlogP_VSA10>
0

>  <SlogP_VSA11>
0

>  <EState_VSA1>
5.92

>  <EState_VSA2>
35.41

>  <EState_VSA3>
12.84

>  <EState_VSA4>
18.41

>  <EState_VSA5>
0

>  <EState_VSA6>
7.05

>  <EState_VSA7>
30.33

>  <EState_VSA8>
0

>  <EState_VSA9>
4.74

>  <EState_VSA10>
15.11

>  <VSA_EState1>
5.44

>  <VSA_EState2>
12.37

>  <VSA_EState3>
21.97

>  <VSA_EState4>
0.76

>  <VSA_EState5>
-1.03

>  <VSA_EState6>
9.27

>  <VSA_EState7>
2.91

>  <VSA_EState8>
-0.27

>  <VSA_EState9>
1.74

>  <apol>
48.03

>  <bpol>
27.69

>  <nRing>
3

>  <nHRing>
2

>  <naRing>
1

>  <naHRing>
0

>  <nARing 2>
2

>  <nAHRing 2>
2

>  <nFRing>
1

>  <nFHRing>
1

>  <nFaRing>
0

>  <nFaHRing>
0

>  <nFARing 2>
1

>  <nFAHRing 2>
1

>  <nRot>
4

>  <SLogP>
1.94

>  <SMR>
81.74

>  <TopoPSA(NO)>
69.59

>  <TopoPSA>
69.59

>  <JGI1>
0.23

>  <JGI2>
0.1

>  <JGI3>
0.06

>  <JGI4>
0.04

>  <JGI5>
0.02

>  <Diameter>
11

>  <Radius>
6

>  <TMWC10>
121.03

>  <TSRW10>
71.02

>  <MW>
305.16

>  <AMW>
6.78

>  <WPath>
1081

>  <WPol>
36

>  <Zagreb1>
118

>  <Zagreb2>
141

>  <mZagreb2>
4.81

>  <yes>


>  <nAR-cont>
1

>  <nHA-cont>
0.983774276

>  <MWHBN>
0.286224102

>  <MWHBN-cont>
0.879848215

>  <TPSA-cont>
0.514218587

>  <pka_cont>
0.97

>  <yes.1>


>  <BBB_SCORE>
4.816983773

>  <MMFF94 Energy>
64.285

$$$$
Compound 1626
Actelion Java MolfileCreator 2.0

  0  0  0  0  0  0              0 V3000
M  V30 BEGIN CTAB
M  V30 COUNTS 52 55 0 0 0
M  V30 BEGIN ATOM
M  V30 1 O -0.8021 -2.4079 -0.2405 0
M  V30 2 C -0.4798 -1.4136 0.3973 0
M  V30 3 O -0.9337 -0.1567 0.0695 0
M  V30 4 C 0.388 -1.3597 1.6963 0
M  V30 5 C -1.8072 -0.0598 -1.0691 0 CFG=2
M  V30 6 O -0.6234 -1.1326 2.7142 0
M  V30 7 C 1.3494 -0.1577 1.6404 0
M  V30 8 C 1.1319 -2.6504 2.0767 0
M  V30 9 C -0.9715 0.0325 -2.3637 0
M  V30 10 C -2.6383 1.2309 -0.9071 0
M  V30 11 C 1.148 0.9875 2.4317 0
M  V30 12 C 2.4532 -0.1713 0.7655 0
M  V30 13 C 1.5356 -2.8369 3.417 0
M  V30 14 C 1.4983 -3.6372 1.1463 0
M  V30 15 C -1.9092 0.3817 -3.527 0
M  V30 16 C 0.0539 1.1701 -2.2317 0
M  V30 17 N -2.1582 2.2861 -1.9334 0 CHG=1
M  V30 18 C 2.016 2.0787 2.3498 0
M  V30 19 C 3.3203 0.9207 0.6867 0
M  V30 20 C 2.2373 -3.9768 3.8137 0
M  V30 21 C 2.1995 -4.7795 1.5455 0
M  V30 22 C -2.4891 1.7881 -3.3474 0
M  V30 23 C -0.6352 2.4621 -1.7923 0
M  V30 24 C -2.8525 3.6104 -1.6697 0
M  V30 25 C 3.1001 2.0454 1.477 0
M  V30 26 C 2.5643 -4.9509 2.8774 0
M  V30 27 H -2.4962 -0.9132 -1.0897 0
M  V30 28 H -0.9542 -2.0134 2.9703 0
M  V30 29 H -0.4492 -0.9102 -2.5573 0
M  V30 30 H -3.6973 1.0503 -1.1242 0
M  V30 31 H -2.5401 1.6709 0.0917 0
M  V30 32 H 0.3167 1.0355 3.1333 0
M  V30 33 H 2.6625 -1.0423 0.1467 0
M  V30 34 H 1.3135 -2.0788 4.1681 0
M  V30 35 H 1.2559 -3.5464 0.0904 0
M  V30 36 H -2.7223 -0.3517 -3.5893 0
M  V30 37 H -1.3739 0.3287 -4.4825 0
M  V30 38 H 0.5594 1.3296 -3.1924 0
M  V30 39 H 0.8433 0.9125 -1.5189 0
M  V30 40 H 1.8566 2.9474 2.9847 0
M  V30 41 H 4.181 0.8847 0.0226 0
M  V30 42 H 2.5353 -4.0992 4.8523 0
M  V30 43 H 2.4659 -5.5369 0.8117 0
M  V30 44 H -3.5788 1.7879 -3.4619 0
M  V30 45 H -2.0525 2.501 -4.0559 0
M  V30 46 H -0.4289 2.6984 -0.7421 0
M  V30 47 H -0.3324 3.3082 -2.419 0
M  V30 48 H -3.9329 3.4538 -1.7373 0
M  V30 49 H -2.5772 3.9526 -0.6679 0
M  V30 50 H -2.5222 4.3299 -2.4244 0
M  V30 51 H 3.7877 2.8867 1.4305 0
M  V30 52 H 3.1121 -5.8389 3.1832 0
M  V30 END ATOM
M  V30 BEGIN BOND
M  V30 1 2 1 2
M  V30 2 1 2 3
M  V30 3 1 2 4
M  V30 4 1 3 5
M  V30 5 1 4 6
M  V30 6 1 4 7
M  V30 7 1 4 8
M  V30 8 1 5 9
M  V30 9 1 5 10
M  V30 10 2 7 11
M  V30 11 1 7 12
M  V30 12 2 8 13
M  V30 13 1 8 14
M  V30 14 1 9 15
M  V30 15 1 9 16
M  V30 16 1 10 17
M  V30 17 1 11 18
M  V30 18 2 12 19
M  V30 19 1 13 20
M  V30 20 2 14 21
M  V30 21 1 15 22
M  V30 22 1 16 23
M  V30 23 1 17 24
M  V30 24 2 18 25
M  V30 25 2 20 26
M  V30 26 1 17 22
M  V30 27 1 17 23
M  V30 28 1 19 25
M  V30 29 1 21 26
M  V30 30 1 5 27
M  V30 31 1 6 28
M  V30 32 1 9 29
M  V30 33 1 10 30
M  V30 34 1 10 31
M  V30 35 1 11 32
M  V30 36 1 12 33
M  V30 37 1 13 34
M  V30 38 1 14 35
M  V30 39 1 15 36
M  V30 40 1 15 37
M  V30 41 1 16 38
M  V30 42 1 16 39
M  V30 43 1 18 40
M  V30 44 1 19 41
M  V30 45 1 20 42
M  V30 46 1 21 43
M  V30 47 1 22 44
M  V30 48 1 22 45
M  V30 49 1 23 46
M  V30 50 1 23 47
M  V30 51 1 24 48
M  V30 52 1 24 49
M  V30 53 1 24 50
M  V30 54 1 25 51
M  V30 55 1 26 52
M  V30 END BOND
M  V30 BEGIN COLLECTION
M  V30 MDLV30/STERAC1 ATOMS=(1 5)
M  V30 END COLLECTION
M  V30 END CTAB
M  END
>  <Column 1>
1975

>  <level_0>
2147

>  <index>
2147

>  <Unnamed: 0>
2147

>  <NO.>
2159

>  <Name>
clidinium

>  <IUPAC_name>
(1-methyl-1-azoniabicyclo[2.2.2]octan-3-yl) 2-hydroxy-2-2-diphenylacetate;bromide

>  <SMILES>
C[N+]12CCC(CC1)C(OC(=O)C(O)(c1ccccc1)c1ccccc1)C2

>  <CID>
2784

>  <logBB>


>  <BBB+/BBB->
BBB-

>  <Inchi>
InChI=1S/C22H26NO3/c1-23-14-12-17(13-15-23)20(16-23)26-21(24)22(25-18-8-4-2-5-9-18)19-10-6-3-7-11-19/h2-11-17-20-25H-12-16H2-1H3/q+1

>  <threshold>
-1

>  <reference>
R1|R13|R28|R14|R27|R30|

>  <group>
B

>  <Class>
1

>  <ABC>
20.71

>  <ABCGG>
16.66

>  <nAcid>
0

>  <nBase>
1

>  <nAromAtom>
12

>  <nAromBond>
12

>  <nAtom>
52

>  <nHeavyAtom>
26

>  <nSpiro>
0

>  <nBridgehead>
2

>  <nHetero>
4

>  <nN>
1

>  <nO>
3

>  <nF>
0

>  <BalabanJ>
1.5

>  <BertzCT>
726.99

>  <nBonds>
55

>  <nBondsO>
29

>  <nBondsS>
42

>  <nBondsD>
1

>  <nBondsT>
0

>  <nBondsA>
12

>  <nBondsM>
13

>  <nBondsKS>
48

>  <nBondsKD>
7

>  <RNCG>
0.23

>  <RPCG>
0.12

>  <FCSP3>
0.41

>  <SZ>
31.5

>  <Sm>
29.34

>  <Sv>
31.95

>  <Sse>
51.7

>  <Sp>
34.48

>  <Si>
58.32

>  <MZ>
0.61

>  <Mm>
0.56

>  <Mv>
0.61

>  <Mse>
0.99

>  <Mp>
0.66

>  <Mi>
1.12

>  <NsCH3>
1

>  <NdCH2>
0

>  <NssCH2>
5

>  <NtCH>
0

>  <NdsCH>
0

>  <NaaCH>
10

>  <NsssCH>
2

>  <NddC>
0

>  <NtsC>
0

>  <NdssC>
1

>  <NaasC>
2

>  <NaaaC>
0

>  <NssssC>
1

>  <NsNH3>
0

>  <NsNH2>
0

>  <NssNH2>
0

>  <NdNH>
0

>  <NssNH>
0

>  <NaaNH>
0

>  <NtN>
0

>  <NsssNH>
0

>  <NdsN>
0

>  <NaaN>
0

>  <NsssN>
0

>  <NddsN>
0

>  <NaasN>
0

>  <NssssN>
1

>  <NsOH>
1

>  <NdO>
1

>  <NssO>
1

>  <NaaO>
0

>  <NsF>
0

>  <NsSiH3>
0

>  <NssSiH2>
0

>  <NsssSiH>
0

>  <NssssSi>
0

>  <NsPH2>
0

>  <NssPH>
0

>  <NsssP>
0

>  <NdsssP>
0

>  <NsssssP>
0

>  <NsSH>
0

>  <NdS>
0

>  <NssS>
0

>  <NaaS>
0

>  <NdssS>
0

>  <NddssS>
0

>  <NsCl>
0

>  <NsBr>
0

>  <NsI>
0

>  <fragCpx>
191.04

>  <fMF>
0.44

>  <nHBAcc>
3

>  <nHBDon>
1

>  <Kier1>
19.32

>  <Kier2>
7.79

>  <Lipinski>
1

>  <GhoseFilter>
1

>  <FilterItLogS>
-4.44

>  <VMcGowan>
277.04

>  <LabuteASA>
154.17

>  <PEOE_VSA1>
14.33

>  <PEOE_VSA2>
0

>  <PEOE_VSA3>
4.79

>  <PEOE_VSA4>
0

>  <PEOE_VSA5>
0

>  <PEOE_VSA6>
60.66

>  <PEOE_VSA7>
11.13

>  <PEOE_VSA8>
18.76

>  <PEOE_VSA9>
20.14

>  <PEOE_VSA10>
6.54

>  <PEOE_VSA11>
6.1

>  <PEOE_VSA12>
5.6

>  <PEOE_VSA13>
0

>  <SMR_VSA1>
19.12

>  <SMR_VSA2>
0

>  <SMR_VSA3>
0

>  <SMR_VSA4>
5.92

>  <SMR_VSA5>
24.55

>  <SMR_VSA6>
26.68

>  <SMR_VSA7>
71.79

>  <SMR_VSA8>
0

>  <SMR_VSA9>
0

>  <SlogP_VSA1>
0

>  <SlogP_VSA2>
48.34

>  <SlogP_VSA3>
15.13

>  <SlogP_VSA4>
5.92

>  <SlogP_VSA5>
23.97

>  <SlogP_VSA6>
60.66

>  <SlogP_VSA7>
0

>  <SlogP_VSA8>
0

>  <SlogP_VSA9>
0

>  <SlogP_VSA10>
0

>  <SlogP_VSA11>
0

>  <EState_VSA1>
11.57

>  <EState_VSA2>
6.1

>  <EState_VSA3>
17.04

>  <EState_VSA4>
36.96

>  <EState_VSA5>
0

>  <EState_VSA6>
24.27

>  <EState_VSA7>
36.4

>  <EState_VSA8>
7.05

>  <EState_VSA9>
4.74

>  <EState_VSA10>
9.9

>  <VSA_EState1>
6.92

>  <VSA_EState2>
13.24

>  <VSA_EState3>
11.51

>  <VSA_EState4>
-0.71

>  <VSA_EState5>
-0.16

>  <VSA_EState6>
18.17

>  <VSA_EState7>
2.06

>  <VSA_EState8>
3.15

>  <VSA_EState9>
2.23

>  <apol>
57.58

>  <bpol>
30.97

>  <nRing>
5

>  <nHRing>
3

>  <naRing>
2

>  <naHRing>
0

>  <nARing 2>
3

>  <nAHRing 2>
3

>  <nFRing>
1

>  <nFHRing>
1

>  <nFaRing>
0

>  <nFaHRing>
0

>  <nFARing 2>
1

>  <nFAHRing 2>
1

>  <nRot>
4

>  <SLogP>
2.7

>  <SMR>
99.27

>  <TopoPSA(NO)>
46.53

>  <TopoPSA>
46.53

>  <JGI1>
0.22

>  <JGI2>
0.1

>  <JGI3>
0.06

>  <JGI4>
0.04

>  <JGI5>
0.02

>  <Diameter>
10

>  <Radius>
5

>  <TMWC10>
132.33

>  <TSRW10>
61.79

>  <MW>
352.19

>  <AMW>
6.77

>  <WPath>
1548

>  <WPol>
45

>  <Zagreb1>
144

>  <Zagreb2>
174

>  <mZagreb2>
5.57

>  <yes>


>  <nAR-cont>
0.691115

>  <nHA-cont>
0.892715677

>  <MWHBN>
0.2131432

>  <MWHBN-cont>
0.998374748

>  <TPSA-cont>
0.675191707

>  <pka_cont>
0.97

>  <yes.1>


>  <BBB_SCORE>
4.916776212

>  <MMFF94 Energy>
160.64

$$$$
Compound 1627
Actelion Java MolfileCreator 2.0

  0  0  0  0  0  0              0 V3000
M  V30 BEGIN CTAB
M  V30 COUNTS 25 27 0 0 0
M  V30 BEGIN ATOM
M  V30 1 O 3.2782 -3.3583 -1.678 0
M  V30 2 C 2.3872 -2.7046 -1.1463 0
M  V30 3 C 2.2419 -1.2502 -1.4257 0
M  V30 4 C 1.4264 -3.3544 -0.2048 0
M  V30 5 C 1.2601 -0.5715 -0.8285 0
M  V30 6 C 0.4474 -2.6499 0.3831 0
M  V30 7 N 0.8833 0.7419 -0.8853 0
M  V30 8 C 0.3346 -1.2462 0.0916 0
M  V30 9 C -0.1999 0.9709 -0.0851 0
M  V30 10 C -0.5444 -0.3274 0.5418 0
M  V30 11 C -0.9547 2.0459 0.2237 0
M  V30 12 C -1.6592 -0.443 1.4607 0
M  V30 13 N -2.0232 1.8985 1.1143 0
M  V30 14 C -0.7101 3.4116 -0.3419 0
M  V30 15 C -2.3475 0.6885 1.7013 0
M  V30 16 H 2.9479 -0.8024 -2.1094 0
M  V30 17 H 1.5683 -4.4134 -0.03 0
M  V30 18 H -0.2505 -3.1187 1.0662 0
M  V30 19 H 1.3384 1.4476 -1.4394 0
M  V30 20 H -1.9139 -1.3875 1.9201 0
M  V30 21 H -2.582 2.7143 1.3376 0
M  V30 22 H -0.5085 4.1249 0.464 0
M  V30 23 H 0.1427 3.4338 -1.027 0
M  V30 24 H -1.5904 3.7557 -0.8949 0
M  V30 25 H -3.2003 0.7207 2.3715 0
M  V30 END ATOM
M  V30 BEGIN BOND
M  V30 1 2 1 2
M  V30 2 1 2 3
M  V30 3 1 2 4
M  V30 4 2 3 5
M  V30 5 2 4 6
M  V30 6 1 5 7
M  V30 7 1 5 8
M  V30 8 1 7 9
M  V30 9 2 8 10
M  V30 10 2 9 11
M  V30 11 1 10 12
M  V30 12 1 11 13
M  V30 13 1 11 14
M  V30 14 2 12 15
M  V30 15 1 6 8
M  V30 16 1 9 10
M  V30 17 1 13 15
M  V30 18 1 3 16
M  V30 19 1 4 17
M  V30 20 1 6 18
M  V30 21 1 7 19
M  V30 22 1 12 20
M  V30 23 1 13 21
M  V30 24 1 14 22
M  V30 25 1 14 23
M  V30 26 1 14 24
M  V30 27 1 15 25
M  V30 END BOND
M  V30 END CTAB
M  END
>  <Column 1>
1977

>  <level_0>
2149

>  <index>
2149

>  <Unnamed: 0>
2149

>  <NO.>
2161

>  <Name>
harmalol

>  <IUPAC_name>
1-methyl-2-9-dihydropyrido[3-4-b]indol-7-one

>  <SMILES>
Cc1[nH]ccc2c1[nH]c1cc(=O)ccc12

>  <CID>
68094

>  <logBB>


>  <BBB+/BBB->
BBB+

>  <Inchi>
InChI=1S/C12H10N2O/c1-7-12-10(4-5-13-7)9-3-2-8(15)6-11(9)14-12/h2-6-13-14H-1H3

>  <threshold>
-1

>  <reference>
R1|R13|R27|R30|

>  <group>
B

>  <Class>
1

>  <ABC>
12.08

>  <ABCGG>
10.15

>  <nAcid>
0

>  <nBase>
0

>  <nAromAtom>
13

>  <nAromBond>
15

>  <nAtom>
25

>  <nHeavyAtom>
15

>  <nSpiro>
0

>  <nBridgehead>
0

>  <nHetero>
3

>  <nN>
2

>  <nO>
1

>  <nF>
0

>  <BalabanJ>
1.76

>  <BertzCT>
706.28

>  <nBonds>
27

>  <nBondsO>
17

>  <nBondsS>
11

>  <nBondsD>
1

>  <nBondsT>
0

>  <nBondsA>
15

>  <nBondsM>
16

>  <nBondsKS>
21

>  <nBondsKD>
6

>  <RNCG>
0.32

>  <RPCG>
0.16

>  <FCSP3>
0.08

>  <SZ>
17.33

>  <Sm>
16.5

>  <Sv>
16.94

>  <Sse>
25.1

>  <Sp>
17.79

>  <Si>
27.87

>  <MZ>
0.69

>  <Mm>
0.66

>  <Mv>
0.68

>  <Mse>
1

>  <Mp>
0.71

>  <Mi>
1.11

>  <NsCH3>
1

>  <NdCH2>
0

>  <NssCH2>
0

>  <NtCH>
0

>  <NdsCH>
0

>  <NaaCH>
5

>  <NsssCH>
0

>  <NddC>
0

>  <NtsC>
0

>  <NdssC>
0

>  <NaasC>
1

>  <NaaaC>
4

>  <NssssC>
0

>  <NsNH3>
0

>  <NsNH2>
0

>  <NssNH2>
0

>  <NdNH>
0

>  <NssNH>
0

>  <NaaNH>
2

>  <NtN>
0

>  <NsssNH>
0

>  <NdsN>
0

>  <NaaN>
0

>  <NsssN>
0

>  <NddsN>
0

>  <NaasN>
0

>  <NssssN>
0

>  <NsOH>
0

>  <NdO>
1

>  <NssO>
0

>  <NaaO>
0

>  <NsF>
0

>  <NsSiH3>
0

>  <NssSiH2>
0

>  <NsssSiH>
0

>  <NssssSi>
0

>  <NsPH2>
0

>  <NssPH>
0

>  <NsssP>
0

>  <NdsssP>
0

>  <NsssssP>
0

>  <NsSH>
0

>  <NdS>
0

>  <NssS>
0

>  <NaaS>
0

>  <NdssS>
0

>  <NddssS>
0

>  <NsCl>
0

>  <NsBr>
0

>  <NsI>
0

>  <fragCpx>
79.03

>  <fMF>
0.52

>  <nHBAcc>
1

>  <nHBDon>
2

>  <Kier1>
10.17

>  <Kier2>
3.79

>  <Lipinski>
1

>  <GhoseFilter>
1

>  <FilterItLogS>
-4.13

>  <VMcGowan>
147.39

>  <LabuteASA>
85.75

>  <PEOE_VSA1>
9.97

>  <PEOE_VSA2>
4.79

>  <PEOE_VSA3>
0

>  <PEOE_VSA4>
0

>  <PEOE_VSA5>
0

>  <PEOE_VSA6>
0

>  <PEOE_VSA7>
25.12

>  <PEOE_VSA8>
28.73

>  <PEOE_VSA9>
11.03

>  <PEOE_VSA10>
0

>  <PEOE_VSA11>
5.43

>  <PEOE_VSA12>
0

>  <PEOE_VSA13>
0

>  <SMR_VSA1>
0

>  <SMR_VSA2>
0

>  <SMR_VSA3>
9.97

>  <SMR_VSA4>
0

>  <SMR_VSA5>
6.92

>  <SMR_VSA6>
0

>  <SMR_VSA7>
46.38

>  <SMR_VSA8>
0

>  <SMR_VSA9>
0

>  <SlogP_VSA1>
5.43

>  <SlogP_VSA2>
9.97

>  <SlogP_VSA3>
0

>  <SlogP_VSA4>
6.92

>  <SlogP_VSA5>
5.69

>  <SlogP_VSA6>
35.26

>  <SlogP_VSA7>
0

>  <SlogP_VSA8>
21.81

>  <SlogP_VSA9>
0

>  <SlogP_VSA10>
0

>  <SlogP_VSA11>
0

>  <EState_VSA1>
0

>  <EState_VSA2>
5.43

>  <EState_VSA3>
0

>  <EState_VSA4>
27.5

>  <EState_VSA5>
0

>  <EState_VSA6>
12.13

>  <EState_VSA7>
25.25

>  <EState_VSA8>
9.97

>  <EState_VSA9>
0

>  <EState_VSA10>
4.79

>  <VSA_EState1>
0

>  <VSA_EState2>
17.61

>  <VSA_EState3>
2.25

>  <VSA_EState4>
3.09

>  <VSA_EState5>
0

>  <VSA_EState6>
7.12

>  <VSA_EState7>
1.91

>  <VSA_EState8>
2.01

>  <VSA_EState9>
0

>  <apol>
29.71

>  <bpol>
12.04

>  <nRing>
3

>  <nHRing>
2

>  <naRing>
3

>  <naHRing>
2

>  <nARing 2>
0

>  <nAHRing 2>
0

>  <nFRing>
1

>  <nFHRing>
1

>  <nFaRing>
1

>  <nFaHRing>
1

>  <nFARing 2>
0

>  <nFAHRing 2>
0

>  <nRot>
0

>  <SLogP>
2.32

>  <SMR>
61.16

>  <TopoPSA(NO)>
48.65

>  <TopoPSA>
48.65

>  <JGI1>
0.18

>  <JGI2>
0.08

>  <JGI3>
0.06

>  <JGI4>
0.05

>  <JGI5>
0.03

>  <Diameter>
7

>  <Radius>
4

>  <TMWC10>
104.53

>  <TSRW10>
62.17

>  <MW>
198.08

>  <AMW>
7.92

>  <WPath>
329

>  <WPol>
24

>  <Zagreb1>
84

>  <Zagreb2>
102

>  <mZagreb2>
3.19

>  <yes>


>  <nAR-cont>
0.336376

>  <nHA-cont>
0.92539861

>  <MWHBN>
0.213157659

>  <MWHBN-cont>
0.998369496

>  <TPSA-cont>
0.66039279

>  <pka_cont>
0.97

>  <yes.1>


>  <BBB_SCORE>
4.565114435

>  <MMFF94 Energy>
51.025

$$$$
Compound 1628
Actelion Java MolfileCreator 2.0

  0  0  0  0  0  0              0 V3000
M  V30 BEGIN CTAB
M  V30 COUNTS 34 36 0 0 0
M  V30 BEGIN ATOM
M  V30 1 O 1.0355 -2.3112 1.6732 0
M  V30 2 C 0.1311 -1.7177 1.0805 0
M  V30 3 N 0.3362 -0.6618 0.189 0
M  V30 4 C -1.304 -2.1365 1.2923 0
M  V30 5 C 1.6312 -0.1141 -0.0245 0
M  V30 6 C -0.7333 -0.0314 -0.4495 0
M  V30 7 C -2.0887 -1.1062 2.0716 0
M  V30 8 C 1.8623 1.2611 0.131 0
M  V30 9 C 2.6951 -0.9449 -0.3976 0
M  V30 10 C -1.9914 0.3185 0.1196 0
M  V30 11 C -0.829 0.3309 -1.7797 0
M  V30 12 O -2.4606 -1.3575 3.2208 0
M  V30 13 N -2.3906 0.0901 1.4321 0
M  V30 14 C 3.1333 1.7942 -0.0946 0
M  V30 15 C 3.9652 -0.4095 -0.6223 0
M  V30 16 N -2.7836 0.9101 -0.7783 0
M  V30 17 N -2.0616 0.9098 -1.9081 0
M  V30 18 C 0.095 0.2005 -2.9306 0
M  V30 19 C -3.2069 1.0794 2.1163 0
M  V30 20 C 4.1828 0.959 -0.4731 0
M  V30 21 H -1.7933 -2.3681 0.3405 0
M  V30 22 H -1.3045 -3.0709 1.8672 0
M  V30 23 H 1.06 1.9268 0.4393 0
M  V30 24 H 2.5448 -2.0159 -0.5111 0
M  V30 25 H 3.3056 2.8598 0.0329 0
M  V30 26 H 4.7858 -1.0639 -0.9051 0
M  V30 27 H -2.4792 1.3119 -2.742 0
M  V30 28 H 0.8409 1.0009 -2.916 0
M  V30 29 H 0.6156 -0.7617 -2.9048 0
M  V30 30 H -0.4441 0.2578 -3.882 0
M  V30 31 H -3.2088 0.9185 3.1981 0
M  V30 32 H -4.2355 1.0018 1.7504 0
M  V30 33 H -2.817 2.0824 1.9151 0
M  V30 34 H 5.1737 1.3729 -0.6419 0
M  V30 END ATOM
M  V30 BEGIN BOND
M  V30 1 2 1 2
M  V30 2 1 2 3
M  V30 3 1 2 4
M  V30 4 1 3 5
M  V30 5 1 3 6
M  V30 6 1 4 7
M  V30 7 2 5 8
M  V30 8 1 5 9
M  V30 9 1 6 10
M  V30 10 2 6 11
M  V30 11 2 7 12
M  V30 12 1 7 13
M  V30 13 1 8 14
M  V30 14 2 9 15
M  V30 15 2 10 16
M  V30 16 1 11 17
M  V30 17 1 11 18
M  V30 18 1 13 19
M  V30 19 2 14 20
M  V30 20 1 10 13
M  V30 21 1 15 20
M  V30 22 1 16 17
M  V30 23 1 4 21
M  V30 24 1 4 22
M  V30 25 1 8 23
M  V30 26 1 9 24
M  V30 27 1 14 25
M  V30 28 1 15 26
M  V30 29 1 17 27
M  V30 30 1 18 28
M  V30 31 1 18 29
M  V30 32 1 18 30
M  V30 33 1 19 31
M  V30 34 1 19 32
M  V30 35 1 19 33
M  V30 36 1 20 34
M  V30 END BOND
M  V30 END CTAB
M  END
>  <Column 1>
1978

>  <level_0>
2150

>  <index>
2150

>  <Unnamed: 0>
2150

>  <NO.>
2162

>  <Name>
razobazam

>  <IUPAC_name>
3-8-dimethyl-4-phenyl-2h-pyrazolo[3-4-b][1-4]diazepine-5-7-dione

>  <SMILES>
Cc1[nH]nc2c1N(c1ccccc1)C(=O)CC(=O)N2C

>  <CID>
71228

>  <logBB>


>  <BBB+/BBB->
BBB+

>  <Inchi>
InChI=1S/C14H14N4O2/c1-9-13-14(16-15-9)17(2)11(19)8-12(20)18(13)10-6-4-3-5-7-10/h3-7H-8H2-1-2H3-(H-15-16)

>  <threshold>
-1

>  <reference>
R1|R13|R19|R6|R24|R27|R27|R27|R30|R30|

>  <group>
B

>  <Class>
1

>  <ABC>
15.71

>  <ABCGG>
13.94

>  <nAcid>
0

>  <nBase>
0

>  <nAromAtom>
11

>  <nAromBond>
11

>  <nAtom>
34

>  <nHeavyAtom>
20

>  <nSpiro>
0

>  <nBridgehead>
0

>  <nHetero>
6

>  <nN>
4

>  <nO>
2

>  <nF>
0

>  <BalabanJ>
1.87

>  <BertzCT>
677.74

>  <nBonds>
36

>  <nBondsO>
22

>  <nBondsS>
23

>  <nBondsD>
2

>  <nBondsT>
0

>  <nBondsA>
11

>  <nBondsM>
13

>  <nBondsKS>
29

>  <nBondsKD>
7

>  <RNCG>
0.16

>  <RPCG>
0.13

>  <FCSP3>
0.21

>  <SZ>
23.67

>  <Sm>
22.5

>  <Sv>
22.25

>  <Sse>
34.53

>  <Sp>
23.19

>  <Si>
38.49

>  <MZ>
0.7

>  <Mm>
0.66

>  <Mv>
0.65

>  <Mse>
1.02

>  <Mp>
0.68

>  <Mi>
1.13

>  <NsCH3>
2

>  <NdCH2>
0

>  <NssCH2>
1

>  <NtCH>
0

>  <NdsCH>
0

>  <NaaCH>
5

>  <NsssCH>
0

>  <NddC>
0

>  <NtsC>
0

>  <NdssC>
2

>  <NaasC>
4

>  <NaaaC>
0

>  <NssssC>
0

>  <NsNH3>
0

>  <NsNH2>
0

>  <NssNH2>
0

>  <NdNH>
0

>  <NssNH>
0

>  <NaaNH>
1

>  <NtN>
0

>  <NsssNH>
0

>  <NdsN>
0

>  <NaaN>
1

>  <NsssN>
2

>  <NddsN>
0

>  <NaasN>
0

>  <NssssN>
0

>  <NsOH>
0

>  <NdO>
2

>  <NssO>
0

>  <NaaO>
0

>  <NsF>
0

>  <NsSiH3>
0

>  <NssSiH2>
0

>  <NsssSiH>
0

>  <NssssSi>
0

>  <NsPH2>
0

>  <NssPH>
0

>  <NsssP>
0

>  <NdsssP>
0

>  <NsssssP>
0

>  <NsSH>
0

>  <NdS>
0

>  <NssS>
0

>  <NaaS>
0

>  <NdssS>
0

>  <NddssS>
0

>  <NsCl>
0

>  <NsBr>
0

>  <NsI>
0

>  <fragCpx>
104.06

>  <fMF>
0.47

>  <nHBAcc>
3

>  <nHBDon>
1

>  <Kier1>
14.92

>  <Kier2>
6.01

>  <Lipinski>
1

>  <GhoseFilter>
1

>  <FilterItLogS>
-3.05

>  <VMcGowan>
197.1

>  <LabuteASA>
115.55

>  <PEOE_VSA1>
0

>  <PEOE_VSA2>
24.49

>  <PEOE_VSA3>
0

>  <PEOE_VSA4>
5.1

>  <PEOE_VSA5>
0

>  <PEOE_VSA6>
18.2

>  <PEOE_VSA7>
19.06

>  <PEOE_VSA8>
12.74

>  <PEOE_VSA9>
5.69

>  <PEOE_VSA10>
12.11

>  <PEOE_VSA11>
5.82

>  <PEOE_VSA12>
11.81

>  <PEOE_VSA13>
0

>  <SMR_VSA1>
9.59

>  <SMR_VSA2>
0

>  <SMR_VSA3>
10.2

>  <SMR_VSA4>
0

>  <SMR_VSA5>
13.34

>  <SMR_VSA6>
16.85

>  <SMR_VSA7>
36.03

>  <SMR_VSA8>
0

>  <SMR_VSA9>
0

>  <SlogP_VSA1>
9.8

>  <SlogP_VSA2>
29.06

>  <SlogP_VSA3>
9.59

>  <SlogP_VSA4>
6.92

>  <SlogP_VSA5>
12.11

>  <SlogP_VSA6>
30.33

>  <SlogP_VSA7>
0

>  <SlogP_VSA8>
0

>  <SlogP_VSA9>
0

>  <SlogP_VSA10>
17.19

>  <SlogP_VSA11>
0

>  <EState_VSA1>
0

>  <EState_VSA2>
18.24

>  <EState_VSA3>
11.51

>  <EState_VSA4>
11.38

>  <EState_VSA5>
4.9

>  <EState_VSA6>
11.95

>  <EState_VSA7>
37.26

>  <EState_VSA8>
10.2

>  <EState_VSA9>
0

>  <EState_VSA10>
9.59

>  <VSA_EState1>
0

>  <VSA_EState2>
27.39

>  <VSA_EState3>
6.98

>  <VSA_EState4>
2.11

>  <VSA_EState5>
-0.04

>  <VSA_EState6>
9.27

>  <VSA_EState7>
-0.17

>  <VSA_EState8>
1.83

>  <VSA_EState9>
1.63

>  <apol>
38.72

>  <bpol>
19.77

>  <nRing>
3

>  <nHRing>
2

>  <naRing>
2

>  <naHRing>
1

>  <nARing 2>
1

>  <nAHRing 2>
1

>  <nFRing>
1

>  <nFHRing>
1

>  <nFaRing>
0

>  <nFaHRing>
0

>  <nFARing 2>
1

>  <nFAHRing 2>
1

>  <nRot>
1

>  <SLogP>
1.75

>  <SMR>
74.94

>  <TopoPSA(NO)>
69.3

>  <TopoPSA>
69.3

>  <JGI1>
0.16

>  <JGI2>
0.08

>  <JGI3>
0.06

>  <JGI4>
0.05

>  <JGI5>
0.03

>  <Diameter>
8

>  <Radius>
4

>  <TMWC10>
116.8

>  <TSRW10>
68.27

>  <MW>
270.11

>  <AMW>
7.94

>  <WPath>
698

>  <WPol>
37

>  <Zagreb1>
108

>  <Zagreb2>
131

>  <mZagreb2>
4.36

>  <yes>


>  <nAR-cont>
0.816016

>  <nHA-cont>
0.999629945

>  <MWHBN>
0.243382675

>  <MWHBN-cont>
0.970198238

>  <TPSA-cont>
0.516242967

>  <pka_cont>
0.97

>  <yes.1>


>  <BBB_SCORE>
4.788429236

>  <MMFF94 Energy>
-0.17974

$$$$
Compound 1629
Actelion Java MolfileCreator 2.0

  0  0  0  0  0  0              0 V3000
M  V30 BEGIN CTAB
M  V30 COUNTS 41 43 0 0 0
M  V30 BEGIN ATOM
M  V30 1 S 0.729 1.2964 -3.4058 0
M  V30 2 C -0.1496 2.2685 -4.5194 0
M  V30 3 C -0.0882 2.1331 -2.1435 0
M  V30 4 N -0.9515 3.1429 -3.9467 0
M  V30 5 C 0.0227 2.1006 -6.0023 0
M  V30 6 N -0.9145 3.0665 -2.5706 0
M  V30 7 C 0.181 1.8284 -0.706 0
M  V30 8 C -1.3006 1.6961 -6.6524 0
M  V30 9 C 0.5588 3.3885 -6.6283 0
M  V30 10 O -0.2303 0.4818 -0.4648 0
M  V30 11 C -0.0408 -0.0118 0.7944 0
M  V30 12 C -0.3905 -1.3497 0.9557 0
M  V30 13 C 0.4499 0.6926 1.8917 0
M  V30 14 C -0.2405 -1.9655 2.2005 0
M  V30 15 C 0.5934 0.0577 3.1366 0
M  V30 16 O -0.6194 -3.313 2.2718 0
M  V30 17 C 0.2529 -1.2911 3.3119 0
M  V30 18 C -0.5318 -4.0246 3.4535 0
M  V30 19 C 0.3792 -2.0145 4.5942 0
M  V30 20 O -0.8611 -5.2057 3.5025 0
M  V30 21 C -0.0159 -3.305 4.6548 0
M  V30 22 C 0.9597 -1.2524 5.7586 0
M  V30 23 C -0.0036 -4.1721 5.8863 0
M  V30 24 H 0.7502 1.304 -6.2039 0
M  V30 25 H 1.2512 1.9504 -0.4993 0
M  V30 26 H -0.3991 2.5166 -0.0796 0
M  V30 27 H -1.1717 1.5378 -7.7284 0
M  V30 28 H -1.681 0.7644 -6.2189 0
M  V30 29 H -2.0699 2.4645 -6.5146 0
M  V30 30 H 1.5158 3.674 -6.1773 0
M  V30 31 H -0.1358 4.2247 -6.4895 0
M  V30 32 H 0.7197 3.2592 -7.7038 0
M  V30 33 H -0.7815 -1.9166 0.1148 0
M  V30 34 H 0.7274 1.74 1.8264 0
M  V30 35 H 0.974 0.6543 3.962 0
M  V30 36 H 0.2846 -0.4456 6.0641 0
M  V30 37 H 1.1475 -1.8682 6.64 0
M  V30 38 H 1.9307 -0.82 5.4917 0
M  V30 39 H -0.9592 -4.6969 5.9992 0
M  V30 40 H 0.7942 -4.9184 5.8144 0
M  V30 41 H 0.1365 -3.6158 6.8148 0
M  V30 END ATOM
M  V30 BEGIN BOND
M  V30 1 1 1 2
M  V30 2 1 1 3
M  V30 3 2 2 4
M  V30 4 1 2 5
M  V30 5 2 3 6
M  V30 6 1 3 7
M  V30 7 1 5 8
M  V30 8 1 5 9
M  V30 9 1 7 10
M  V30 10 1 10 11
M  V30 11 2 11 12
M  V30 12 1 11 13
M  V30 13 1 12 14
M  V30 14 2 13 15
M  V30 15 1 14 16
M  V30 16 2 14 17
M  V30 17 1 16 18
M  V30 18 1 17 19
M  V30 19 2 18 20
M  V30 20 1 18 21
M  V30 21 1 19 22
M  V30 22 1 21 23
M  V30 23 1 4 6
M  V30 24 1 15 17
M  V30 25 2 19 21
M  V30 26 1 5 24
M  V30 27 1 7 25
M  V30 28 1 7 26
M  V30 29 1 8 27
M  V30 30 1 8 28
M  V30 31 1 8 29
M  V30 32 1 9 30
M  V30 33 1 9 31
M  V30 34 1 9 32
M  V30 35 1 12 33
M  V30 36 1 13 34
M  V30 37 1 15 35
M  V30 38 1 22 36
M  V30 39 1 22 37
M  V30 40 1 22 38
M  V30 41 1 23 39
M  V30 42 1 23 40
M  V30 43 1 23 41
M  V30 END BOND
M  V30 END CTAB
M  END
>  <Column 1>
1980

>  <level_0>
2152

>  <index>
2152

>  <Unnamed: 0>
2152

>  <NO.>
2164

>  <Name>
atibeprone

>  <IUPAC_name>
3-4-dimethyl-7-[(5-propan-2-yl-1-3-4-thiadiazol-2-yl)methoxy]chromen-2-one

>  <SMILES>
Cc1c(C)c2ccc(OCc3nnc(C(C)C)s3)cc2oc1=O

>  <CID>
179342

>  <logBB>


>  <BBB+/BBB->
BBB+

>  <Inchi>
InChI=1S/C17H18N2O3S/c1-9(2)16-19-18-15(23-16)8-21-12-5-6-13-10(3)11(4)17(20)22-14(13)7-12/h5-7-9H-8H2-1-4H3

>  <threshold>
-1

>  <reference>
R1|R13|R19|R6|R24|R27|R27|R27|R30|R30|

>  <group>
B

>  <Class>
-1

>  <ABC>
18.02

>  <ABCGG>
14.35

>  <nAcid>
0

>  <nBase>
0

>  <nAromAtom>
15

>  <nAromBond>
16

>  <nAtom>
41

>  <nHeavyAtom>
23

>  <nSpiro>
0

>  <nBridgehead>
0

>  <nHetero>
6

>  <nN>
2

>  <nO>
3

>  <nF>
0

>  <BalabanJ>
1.45

>  <BertzCT>
911.83

>  <nBonds>
43

>  <nBondsO>
25

>  <nBondsS>
26

>  <nBondsD>
1

>  <nBondsT>
0

>  <nBondsA>
16

>  <nBondsM>
17

>  <nBondsKS>
36

>  <nBondsKD>
7

>  <RNCG>
0.27

>  <RPCG>
0.19

>  <FCSP3>
0.35

>  <SZ>
29

>  <Sm>
27.51

>  <Sv>
26.72

>  <Sse>
41.39

>  <Sp>
28.68

>  <Si>
45.87

>  <MZ>
0.71

>  <Mm>
0.67

>  <Mv>
0.65

>  <Mse>
1.01

>  <Mp>
0.7

>  <Mi>
1.12

>  <NsCH3>
4

>  <NdCH2>
0

>  <NssCH2>
1

>  <NtCH>
0

>  <NdsCH>
0

>  <NaaCH>
3

>  <NsssCH>
1

>  <NddC>
0

>  <NtsC>
0

>  <NdssC>
0

>  <NaasC>
5

>  <NaaaC>
2

>  <NssssC>
0

>  <NsNH3>
0

>  <NsNH2>
0

>  <NssNH2>
0

>  <NdNH>
0

>  <NssNH>
0

>  <NaaNH>
0

>  <NtN>
0

>  <NsssNH>
0

>  <NdsN>
0

>  <NaaN>
2

>  <NsssN>
0

>  <NddsN>
0

>  <NaasN>
0

>  <NssssN>
0

>  <NsOH>
0

>  <NdO>
1

>  <NssO>
1

>  <NaaO>
1

>  <NsF>
0

>  <NsSiH3>
0

>  <NssSiH2>
0

>  <NsssSiH>
0

>  <NssssSi>
0

>  <NsPH2>
0

>  <NssPH>
0

>  <NsssP>
0

>  <NdsssP>
0

>  <NsssssP>
0

>  <NsSH>
0

>  <NdS>
0

>  <NssS>
0

>  <NaaS>
1

>  <NdssS>
0

>  <NddssS>
0

>  <NsCl>
0

>  <NsBr>
0

>  <NsI>
0

>  <fragCpx>
119.06

>  <fMF>
0.41

>  <nHBAcc>
6

>  <nHBDon>
0

>  <Kier1>
17.81

>  <Kier2>
7.49

>  <Lipinski>
1

>  <GhoseFilter>
1

>  <FilterItLogS>
-5.91

>  <VMcGowan>
241.63

>  <LabuteASA>
137.49

>  <PEOE_VSA1>
9.15

>  <PEOE_VSA2>
0

>  <PEOE_VSA3>
4.79

>  <PEOE_VSA4>
0

>  <PEOE_VSA5>
10.2

>  <PEOE_VSA6>
25.18

>  <PEOE_VSA7>
31.54

>  <PEOE_VSA8>
22.93

>  <PEOE_VSA9>
0

>  <PEOE_VSA10>
22.95

>  <PEOE_VSA11>
5.01

>  <PEOE_VSA12>
0

>  <PEOE_VSA13>
0

>  <SMR_VSA1>
9.15

>  <SMR_VSA2>
0

>  <SMR_VSA3>
10.2

>  <SMR_VSA4>
0

>  <SMR_VSA5>
40.22

>  <SMR_VSA6>
0

>  <SMR_VSA7>
49.76

>  <SMR_VSA8>
0

>  <SMR_VSA9>
5.75

>  <SlogP_VSA1>
10.36

>  <SlogP_VSA2>
10.2

>  <SlogP_VSA3>
6.61

>  <SlogP_VSA4>
13.85

>  <SlogP_VSA5>
40.91

>  <SlogP_VSA6>
27.41

>  <SlogP_VSA7>
0

>  <SlogP_VSA8>
10.97

>  <SlogP_VSA9>
0

>  <SlogP_VSA10>
0

>  <SlogP_VSA11>
5.75

>  <EState_VSA1>
0

>  <EState_VSA2>
5.63

>  <EState_VSA3>
29.42

>  <EState_VSA4>
20.96

>  <EState_VSA5>
0

>  <EState_VSA6>
24.33

>  <EState_VSA7>
19.06

>  <EState_VSA8>
24.04

>  <EState_VSA9>
9.15

>  <EState_VSA10>
4.79

>  <VSA_EState1>
11.09

>  <VSA_EState2>
11.79

>  <VSA_EState3>
11.02

>  <VSA_EState4>
1.81

>  <VSA_EState5>
1.01

>  <VSA_EState6>
5.53

>  <VSA_EState7>
0

>  <VSA_EState8>
8.21

>  <VSA_EState9>
0

>  <apol>
47.9

>  <bpol>
26

>  <nRing>
3

>  <nHRing>
2

>  <naRing>
3

>  <naHRing>
2

>  <nARing 2>
0

>  <nAHRing 2>
0

>  <nFRing>
1

>  <nFHRing>
1

>  <nFaRing>
1

>  <nFaHRing>
1

>  <nFARing 2>
0

>  <nFAHRing 2>
0

>  <nRot>
4

>  <SLogP>
3.96

>  <SMR>
90.29

>  <TopoPSA(NO)>
65.22

>  <TopoPSA>
93.46

>  <JGI1>
0.22

>  <JGI2>
0.09

>  <JGI3>
0.05

>  <JGI4>
0.06

>  <JGI5>
0.02

>  <Diameter>
13

>  <Radius>
7

>  <TMWC10>
122.74

>  <TSRW10>
71.07

>  <MW>
330.1

>  <AMW>
8.05

>  <WPath>
1323

>  <WPol>
36

>  <Zagreb1>
122

>  <Zagreb2>
144

>  <mZagreb2>
4.97

>  <yes>


>  <nAR-cont>
0.336376

>  <nHA-cont>
0.967789328

>  <MWHBN>
0.330239097

>  <MWHBN-cont>
0.742005649

>  <TPSA-cont>
0.347591165

>  <pka_cont>
0.97

>  <yes.1>


>  <BBB_SCORE>
3.597356131

>  <MMFF94 Energy>
58.758

$$$$
Compound 1630
Actelion Java MolfileCreator 2.0

  0  0  0  0  0  0              0 V3000
M  V30 BEGIN CTAB
M  V30 COUNTS 48 51 0 0 0
M  V30 BEGIN ATOM
M  V30 1 F 1.4445 1.9264 -2.4085 0
M  V30 2 C 0.5014 1.2576 -1.7206 0
M  V30 3 C 0.859 0.6373 -0.5085 0
M  V30 4 C -0.786 1.1765 -2.2772 0
M  V30 5 N 2.1475 0.7326 0.0124 0
M  V30 6 C -0.1451 -0.0988 0.1357 0
M  V30 7 C -1.7735 0.4465 -1.5825 0
M  V30 8 C -1.041 1.8702 -3.5875 0
M  V30 9 C 2.6785 -0.2873 0.9323 0
M  V30 10 C 2.7212 2.0806 0.1961 0
M  V30 11 C -1.4577 -0.2033 -0.3671 0
M  V30 12 C -3.1793 0.3392 -2.0945 0
M  V30 13 C 4.2324 -0.2763 0.9353 0 CFG=1
M  V30 14 C 4.2636 2.0224 0.2256 0
M  V30 15 N -2.458 -0.9547 0.3181 0
M  V30 16 O -3.5775 1.0506 -3.0093 0
M  V30 17 C -4.0949 -0.6265 -1.4381 0
M  V30 18 N 4.7986 1.0625 1.2103 0
M  V30 19 C 4.7669 -1.2583 1.9761 0
M  V30 20 C -3.6727 -1.1822 -0.2943 0
M  V30 21 C -2.1925 -1.6262 1.6058 0
M  V30 22 C -5.4069 -0.9757 -2.0091 0
M  V30 23 C -1.9203 -0.8403 2.8657 0
M  V30 24 C -3.1903 -1.6196 2.7402 0
M  V30 25 O -5.7581 -0.8631 -3.1689 0
M  V30 26 O -6.2633 -1.4864 -1.0998 0
M  V30 27 H 0.0968 -0.5916 1.0708 0
M  V30 28 H -0.1233 2.28 -4.0219 0
M  V30 29 H -1.7305 2.7085 -3.4476 0
M  V30 30 H -1.4422 1.1667 -4.3239 0
M  V30 31 H 2.3489 -1.2872 0.623 0
M  V30 32 H 2.2974 -0.1008 1.9447 0
M  V30 33 H 2.3514 2.4945 1.1433 0
M  V30 34 H 2.4257 2.7797 -0.5917 0
M  V30 35 H 4.5831 -0.6029 -0.053 0
M  V30 36 H 4.6523 3.0184 0.464 0
M  V30 37 H 4.6379 1.7621 -0.7725 0
M  V30 38 H 5.8126 1.0238 1.1136 0
M  V30 39 H 4.4601 -0.9755 2.9894 0
M  V30 40 H 4.3932 -2.2692 1.7809 0
M  V30 41 H 5.8615 -1.2999 1.9528 0
M  V30 42 H -4.2988 -1.8926 0.2398 0
M  V30 43 H -1.6318 -2.5485 1.468 0
M  V30 44 H -1.9871 0.2409 2.8224 0
M  V30 45 H -1.1586 -1.2122 3.5403 0
M  V30 46 H -3.293 -2.5247 3.3271 0
M  V30 47 H -4.1094 -1.0553 2.6323 0
M  V30 48 H -7.0749 -1.6434 -1.6285 0
M  V30 END ATOM
M  V30 BEGIN BOND
M  V30 1 1 1 2
M  V30 2 2 2 3
M  V30 3 1 2 4
M  V30 4 1 3 5
M  V30 5 1 3 6
M  V30 6 2 4 7
M  V30 7 1 4 8
M  V30 8 1 5 9
M  V30 9 1 5 10
M  V30 10 2 6 11
M  V30 11 1 7 12
M  V30 12 1 9 13
M  V30 13 1 10 14
M  V30 14 1 11 15
M  V30 15 2 12 16
M  V30 16 1 12 17
M  V30 17 1 13 18
M  V30 18 1 13 19
M  V30 19 1 15 20
M  V30 20 1 15 21
M  V30 21 1 17 22
M  V30 22 1 21 23
M  V30 23 1 21 24
M  V30 24 2 22 25
M  V30 25 1 22 26
M  V30 26 1 7 11
M  V30 27 1 14 18
M  V30 28 2 17 20
M  V30 29 1 23 24
M  V30 30 1 6 27
M  V30 31 1 8 28
M  V30 32 1 8 29
M  V30 33 1 8 30
M  V30 34 1 9 31
M  V30 35 1 9 32
M  V30 36 1 10 33
M  V30 37 1 10 34
M  V30 38 1 13 35
M  V30 39 1 14 36
M  V30 40 1 14 37
M  V30 41 1 18 38
M  V30 42 1 19 39
M  V30 43 1 19 40
M  V30 44 1 19 41
M  V30 45 1 20 42
M  V30 46 1 21 43
M  V30 47 1 23 44
M  V30 48 1 23 45
M  V30 49 1 24 46
M  V30 50 1 24 47
M  V30 51 1 26 48
M  V30 END BOND
M  V30 BEGIN COLLECTION
M  V30 MDLV30/STERAC1 ATOMS=(1 13)
M  V30 END COLLECTION
M  V30 END CTAB
M  END
>  <Column 1>
1981

>  <level_0>
2153

>  <index>
2153

>  <Unnamed: 0>
2153

>  <NO.>
2165

>  <Name>
grepafloxacin

>  <IUPAC_name>
1-cyclopropyl-6-fluoro-5-methyl-7-(3-methylpiperazin-1-yl)-4-oxoquinoline-3-carboxylic acid

>  <SMILES>
Cc1c(F)c(N2CCNC(C)C2)cc2c1c(=O)c(C(=O)O)cn2C1CC1

>  <CID>
72474

>  <logBB>


>  <BBB+/BBB->
BBB-

>  <Inchi>
InChI=1S/C19H22FN3O3/c1-10-8-22(6-5-21-10)15-7-14-16(11(2)17(15)20)18(24)13(19(25)26)9-23(14)12-3-4-12/h7-9-10-12-21H-3-6-8H2-1-2H3-(H-25-26)

>  <threshold>
-1

>  <reference>
R1|R6|R23|R27|R30|

>  <group>
B

>  <Class>
-1

>  <ABC>
20.76

>  <ABCGG>
17.01

>  <nAcid>
1

>  <nBase>
1

>  <nAromAtom>
10

>  <nAromBond>
11

>  <nAtom>
48

>  <nHeavyAtom>
26

>  <nSpiro>
0

>  <nBridgehead>
0

>  <nHetero>
7

>  <nN>
3

>  <nO>
3

>  <nF>
1

>  <BalabanJ>
1.58

>  <BertzCT>
964.88

>  <nBonds>
51

>  <nBondsO>
29

>  <nBondsS>
38

>  <nBondsD>
2

>  <nBondsT>
0

>  <nBondsA>
11

>  <nBondsM>
13

>  <nBondsKS>
45

>  <nBondsKD>
6

>  <RNCG>
0.2

>  <RPCG>
0.14

>  <FCSP3>
0.47

>  <SZ>
31.67

>  <Sm>
29.92

>  <Sv>
30.02

>  <Sse>
48.7

>  <Sp>
31.53

>  <Si>
54.62

>  <MZ>
0.66

>  <Mm>
0.62

>  <Mv>
0.63

>  <Mse>
1.01

>  <Mp>
0.66

>  <Mi>
1.14

>  <NsCH3>
2

>  <NdCH2>
0

>  <NssCH2>
5

>  <NtCH>
0

>  <NdsCH>
0

>  <NaaCH>
2

>  <NsssCH>
2

>  <NddC>
0

>  <NtsC>
0

>  <NdssC>
1

>  <NaasC>
4

>  <NaaaC>
2

>  <NssssC>
0

>  <NsNH3>
0

>  <NsNH2>
0

>  <NssNH2>
0

>  <NdNH>
0

>  <NssNH>
1

>  <NaaNH>
0

>  <NtN>
0

>  <NsssNH>
0

>  <NdsN>
0

>  <NaaN>
0

>  <NsssN>
1

>  <NddsN>
0

>  <NaasN>
1

>  <NssssN>
0

>  <NsOH>
1

>  <NdO>
2

>  <NssO>
0

>  <NaaO>
0

>  <NsF>
1

>  <NsSiH3>
0

>  <NssSiH2>
0

>  <NsssSiH>
0

>  <NssssSi>
0

>  <NsPH2>
0

>  <NssPH>
0

>  <NsssP>
0

>  <NdsssP>
0

>  <NsssssP>
0

>  <NsSH>
0

>  <NdS>
0

>  <NssS>
0

>  <NaaS>
0

>  <NdssS>
0

>  <NddssS>
0

>  <NsCl>
0

>  <NsBr>
0

>  <NsI>
0

>  <fragCpx>
191.07

>  <fMF>
0.4

>  <nHBAcc>
5

>  <nHBDon>
2

>  <Kier1>
19.32

>  <Kier2>
7.44

>  <Lipinski>
1

>  <GhoseFilter>
1

>  <FilterItLogS>
-3.73

>  <VMcGowan>
258.64

>  <LabuteASA>
149.77

>  <PEOE_VSA1>
19.89

>  <PEOE_VSA2>
4.79

>  <PEOE_VSA3>
9.18

>  <PEOE_VSA4>
0

>  <PEOE_VSA5>
0

>  <PEOE_VSA6>
0

>  <PEOE_VSA7>
32.76

>  <PEOE_VSA8>
43.48

>  <PEOE_VSA9>
16.59

>  <PEOE_VSA10>
11.38

>  <PEOE_VSA11>
0

>  <PEOE_VSA12>
5.43

>  <PEOE_VSA13>
0

>  <SMR_VSA1>
14.29

>  <SMR_VSA2>
0

>  <SMR_VSA3>
9.88

>  <SMR_VSA4>
0

>  <SMR_VSA5>
38.77

>  <SMR_VSA6>
24.53

>  <SMR_VSA7>
39.43

>  <SMR_VSA8>
0

>  <SMR_VSA9>
0

>  <SlogP_VSA1>
15.65

>  <SlogP_VSA2>
41.32

>  <SlogP_VSA3>
0

>  <SlogP_VSA4>
12.74

>  <SlogP_VSA5>
41.73

>  <SlogP_VSA6>
17.06

>  <SlogP_VSA7>
0

>  <SlogP_VSA8>
10.9

>  <SlogP_VSA9>
0

>  <SlogP_VSA10>
10.08

>  <SlogP_VSA11>
0

>  <EState_VSA1>
17.22

>  <EState_VSA2>
28.6

>  <EState_VSA3>
24.29

>  <EState_VSA4>
19.39

>  <EState_VSA5>
6.2

>  <EState_VSA6>
12.99

>  <EState_VSA7>
9.47

>  <EState_VSA8>
12.24

>  <EState_VSA9>
0

>  <EState_VSA10>
14.7

>  <VSA_EState1>
17

>  <VSA_EState2>
26.17

>  <VSA_EState3>
12.9

>  <VSA_EState4>
0.44

>  <VSA_EState5>
-1.71

>  <VSA_EState6>
2.15

>  <VSA_EState7>
3.3

>  <VSA_EState8>
5.76

>  <VSA_EState9>
0

>  <apol>
52.66

>  <bpol>
28.91

>  <nRing>
4

>  <nHRing>
2

>  <naRing>
2

>  <naHRing>
1

>  <nARing 2>
2

>  <nAHRing 2>
1

>  <nFRing>
1

>  <nFHRing>
1

>  <nFaRing>
1

>  <nFaHRing>
1

>  <nFARing 2>
0

>  <nFAHRing 2>
0

>  <nRot>
3

>  <SLogP>
2.28

>  <SMR>
97.81

>  <TopoPSA(NO)>
74.57

>  <TopoPSA>
74.57

>  <JGI1>
0.19

>  <JGI2>
0.08

>  <JGI3>
0.05

>  <JGI4>
0.05

>  <JGI5>
0.04

>  <Diameter>
11

>  <Radius>
6

>  <TMWC10>
133.09

>  <TSRW10>
80.19

>  <MW>
359.16

>  <AMW>
7.48

>  <WPath>
1499

>  <WPol>
49

>  <Zagreb1>
146

>  <Zagreb2>
180

>  <mZagreb2>
5.53

>  <yes>


>  <nAR-cont>
1

>  <nHA-cont>
0.892715677

>  <MWHBN>
0.36936357

>  <MWHBN-cont>
0.596336425

>  <TPSA-cont>
0.479455095

>  <pka_cont>
0.97

>  <yes.1>


>  <BBB_SCORE>
4.231130504

>  <MMFF94 Energy>
114.61

$$$$
Compound 1631
Actelion Java MolfileCreator 2.0

  0  0  0  0  0  0              0 V3000
M  V30 BEGIN CTAB
M  V30 COUNTS 26 26 0 0 0
M  V30 BEGIN ATOM
M  V30 1 O 2.9743 -3.2094 1.2515 0
M  V30 2 C 2.1067 -2.4391 0.8485 0
M  V30 3 C 2.4134 -1.2547 -0.0275 0
M  V30 4 C 0.6986 -2.6723 1.2169 0
M  V30 5 O 3.7425 -1.0716 -0.3644 0
M  V30 6 C 1.3888 -0.4592 -0.4337 0
M  V30 7 C -0.2194 -1.8326 0.7368 0
M  V30 8 N 0.0415 -0.7405 -0.0832 0
M  V30 9 C 1.6518 0.7825 -1.2606 0
M  V30 10 C -1.1001 0.0897 -0.5302 0
M  V30 11 C -1.4604 1.1347 0.5228 0
M  V30 12 C -2.6123 2.0101 0.0539 0
M  V30 13 O -2.9096 2.9606 1.0662 0
M  V30 14 H 0.4724 -3.514 1.8546 0
M  V30 15 H 3.8047 -0.5169 -1.1537 0
M  V30 16 H -1.2673 -1.9769 0.988 0
M  V30 17 H 2.7045 1.0746 -1.2918 0
M  V30 18 H 1.1268 1.6484 -0.8456 0
M  V30 19 H 1.3178 0.6275 -2.2916 0
M  V30 20 H -0.8886 0.5683 -1.4928 0
M  V30 21 H -1.9686 -0.5557 -0.7188 0
M  V30 22 H -0.5953 1.765 0.7612 0
M  V30 23 H -1.7336 0.6496 1.4685 0
M  V30 24 H -2.3465 2.549 -0.861 0
M  V30 25 H -3.5084 1.4101 -0.1334 0
M  V30 26 H -3.6504 3.5047 0.7477 0
M  V30 END ATOM
M  V30 BEGIN BOND
M  V30 1 2 1 2
M  V30 2 1 2 3
M  V30 3 1 2 4
M  V30 4 1 3 5
M  V30 5 2 3 6
M  V30 6 2 4 7
M  V30 7 1 6 8
M  V30 8 1 6 9
M  V30 9 1 8 10
M  V30 10 1 10 11
M  V30 11 1 11 12
M  V30 12 1 12 13
M  V30 13 1 7 8
M  V30 14 1 4 14
M  V30 15 1 5 15
M  V30 16 1 7 16
M  V30 17 1 9 17
M  V30 18 1 9 18
M  V30 19 1 9 19
M  V30 20 1 10 20
M  V30 21 1 10 21
M  V30 22 1 11 22
M  V30 23 1 11 23
M  V30 24 1 12 24
M  V30 25 1 12 25
M  V30 26 1 13 26
M  V30 END BOND
M  V30 END CTAB
M  END
>  <Column 1>
1982

>  <level_0>
2154

>  <index>
2154

>  <Unnamed: 0>
2154

>  <NO.>
2166

>  <Name>
pyridostigminebromide

>  <IUPAC_name>
3-hydroxy-1-(3-hydroxypropyl)-2-methylpyridin-4-one

>  <SMILES>
Cc1c(O)c(=O)ccn1CCCO

>  <CID>
93513

>  <logBB>


>  <BBB+/BBB->
BBB-

>  <Inchi>
InChI=1S/C9H13NO3/c1-7-9(13)8(12)3-5-10(7)4-2-6-11/h3-5-11-13H-2-4-6H2-1H3

>  <threshold>
-1

>  <reference>
R1|R13|R19|R28|R9|R24|R27|R30|R36|

>  <group>
B

>  <Class>
-1

>  <ABC>
9.4

>  <ABCGG>
8.87

>  <nAcid>
0

>  <nBase>
0

>  <nAromAtom>
6

>  <nAromBond>
6

>  <nAtom>
26

>  <nHeavyAtom>
13

>  <nSpiro>
0

>  <nBridgehead>
0

>  <nHetero>
4

>  <nN>
1

>  <nO>
3

>  <nF>
0

>  <BalabanJ>
2.39

>  <BertzCT>
343.2

>  <nBonds>
26

>  <nBondsO>
13

>  <nBondsS>
19

>  <nBondsD>
1

>  <nBondsT>
0

>  <nBondsA>
6

>  <nBondsM>
7

>  <nBondsKS>
23

>  <nBondsKD>
3

>  <RNCG>
0.32

>  <RPCG>
0.19

>  <FCSP3>
0.44

>  <SZ>
16.33

>  <Sm>
15.25

>  <Sv>
15.42

>  <Sse>
26.43

>  <Sp>
16.29

>  <Si>
29.62

>  <MZ>
0.63

>  <Mm>
0.59

>  <Mv>
0.59

>  <Mse>
1.02

>  <Mp>
0.63

>  <Mi>
1.14

>  <NsCH3>
1

>  <NdCH2>
0

>  <NssCH2>
3

>  <NtCH>
0

>  <NdsCH>
0

>  <NaaCH>
2

>  <NsssCH>
0

>  <NddC>
0

>  <NtsC>
0

>  <NdssC>
0

>  <NaasC>
2

>  <NaaaC>
0

>  <NssssC>
0

>  <NsNH3>
0

>  <NsNH2>
0

>  <NssNH2>
0

>  <NdNH>
0

>  <NssNH>
0

>  <NaaNH>
0

>  <NtN>
0

>  <NsssNH>
0

>  <NdsN>
0

>  <NaaN>
0

>  <NsssN>
0

>  <NddsN>
0

>  <NaasN>
1

>  <NssssN>
0

>  <NsOH>
2

>  <NdO>
1

>  <NssO>
0

>  <NaaO>
0

>  <NsF>
0

>  <NsSiH3>
0

>  <NssSiH2>
0

>  <NsssSiH>
0

>  <NssssSi>
0

>  <NsPH2>
0

>  <NssPH>
0

>  <NsssP>
0

>  <NdsssP>
0

>  <NsssssP>
0

>  <NsSH>
0

>  <NdS>
0

>  <NssS>
0

>  <NaaS>
0

>  <NdssS>
0

>  <NddssS>
0

>  <NsCl>
0

>  <NsBr>
0

>  <NsI>
0

>  <fragCpx>
13.04

>  <fMF>
0.23

>  <nHBAcc>
4

>  <nHBDon>
2

>  <Kier1>
11.08

>  <Kier2>
5.02

>  <Lipinski>
1

>  <GhoseFilter>
1

>  <FilterItLogS>
-1.26

>  <VMcGowan>
141.5

>  <LabuteASA>
76.07

>  <PEOE_VSA1>
14.78

>  <PEOE_VSA2>
4.79

>  <PEOE_VSA3>
0

>  <PEOE_VSA4>
0

>  <PEOE_VSA5>
0

>  <PEOE_VSA6>
0

>  <PEOE_VSA7>
13.34

>  <PEOE_VSA8>
25.41

>  <PEOE_VSA9>
5.69

>  <PEOE_VSA10>
0

>  <PEOE_VSA11>
5.75

>  <PEOE_VSA12>
5.43

>  <PEOE_VSA13>
0

>  <SMR_VSA1>
10.21

>  <SMR_VSA2>
0

>  <SMR_VSA3>
4.57

>  <SMR_VSA4>
0

>  <SMR_VSA5>
19.89

>  <SMR_VSA6>
6.61

>  <SMR_VSA7>
28.18

>  <SMR_VSA8>
0

>  <SMR_VSA9>
5.75

>  <SlogP_VSA1>
5.43

>  <SlogP_VSA2>
21.39

>  <SlogP_VSA3>
6.54

>  <SlogP_VSA4>
6.92

>  <SlogP_VSA5>
12.11

>  <SlogP_VSA6>
17.06

>  <SlogP_VSA7>
0

>  <SlogP_VSA8>
0

>  <SlogP_VSA9>
0

>  <SlogP_VSA10>
0

>  <SlogP_VSA11>
5.75

>  <EState_VSA1>
0

>  <EState_VSA2>
17.79

>  <EState_VSA3>
18.66

>  <EState_VSA4>
0

>  <EState_VSA5>
6.07

>  <EState_VSA6>
17.69

>  <EState_VSA7>
0

>  <EState_VSA8>
0

>  <EState_VSA9>
5.11

>  <EState_VSA10>
9.9

>  <VSA_EState1>
1.74

>  <VSA_EState2>
10.95

>  <VSA_EState3>
17.9

>  <VSA_EState4>
0.18

>  <VSA_EState5>
-0.21

>  <VSA_EState6>
1.32

>  <VSA_EState7>
2.23

>  <VSA_EState8>
2.39

>  <VSA_EState9>
0

>  <apol>
27.2

>  <bpol>
15.62

>  <nRing>
1

>  <nHRing>
1

>  <naRing>
1

>  <naHRing>
1

>  <nARing 2>
0

>  <nAHRing 2>
0

>  <nFRing>
0

>  <nFHRing>
0

>  <nFaRing>
0

>  <nFaHRing>
0

>  <nFARing 2>
0

>  <nFAHRing 2>
0

>  <nRot>
3

>  <SLogP>
0.24

>  <SMR>
48.81

>  <TopoPSA(NO)>
62.46

>  <TopoPSA>
62.46

>  <JGI1>
0.19

>  <JGI2>
0.12

>  <JGI3>
0.06

>  <JGI4>
0.06

>  <JGI5>
0.03

>  <Diameter>
8

>  <Radius>
4

>  <TMWC10>
92.99

>  <TSRW10>
43.76

>  <MW>
183.09

>  <AMW>
7.04

>  <WPath>
254

>  <WPol>
18

>  <Zagreb1>
60

>  <Zagreb2>
68

>  <mZagreb2>
3.08

>  <yes>


>  <nAR-cont>
0.336376

>  <nHA-cont>
0.841215992

>  <MWHBN>
0.443423737

>  <MWHBN-cont>
0.309706716

>  <TPSA-cont>
0.563990415

>  <pka_cont>
0.97

>  <yes.1>


>  <BBB_SCORE>
3.255132896

>  <MMFF94 Energy>
47.827

$$$$
Compound 1632
Actelion Java MolfileCreator 2.0

  0  0  0  0  0  0              0 V3000
M  V30 BEGIN CTAB
M  V30 COUNTS 34 36 0 0 0
M  V30 BEGIN ATOM
M  V30 1 O -0.2383 -0.7947 -4.696 0
M  V30 2 C -0.5062 -0.7085 -3.4963 0
M  V30 3 N -0.1935 -1.7424 -2.6491 0
M  V30 4 C -1.2509 0.4876 -2.9029 0
M  V30 5 C -0.4447 -1.7174 -1.2998 0
M  V30 6 N -0.4041 1.2679 -1.9913 0
M  V30 7 C -0.4043 -0.5834 -0.4441 0
M  V30 8 C -0.7464 -2.8212 -0.5451 0
M  V30 9 C -0.0416 0.7728 -0.8542 0
M  V30 10 C -0.7973 -1.0281 0.8179 0
M  V30 11 N -0.9611 -2.3968 0.7393 0
M  V30 12 C 0.8133 1.6036 0.0425 0
M  V30 13 C -1.041 -0.2724 2.0815 0
M  V30 14 C -1.322 -3.2726 1.8346 0
M  V30 15 C 1.8377 1.0319 0.8081 0
M  V30 16 C 0.6122 2.9893 0.0802 0
M  V30 17 C 2.6307 1.8374 1.628 0
M  V30 18 C 1.4069 3.791 0.9012 0
M  V30 19 C 2.4121 3.2141 1.6769 0
M  V30 20 H 0.2235 -2.5621 -3.0667 0
M  V30 21 H -2.1812 0.1635 -2.4218 0
M  V30 22 H -1.5441 1.1397 -3.7332 0
M  V30 23 H -0.8502 -3.8631 -0.8174 0
M  V30 24 H -0.1757 -0.352 2.7465 0
M  V30 25 H -1.2319 0.7861 1.8827 0
M  V30 26 H -1.919 -0.6574 2.61 0
M  V30 27 H -1.2062 -4.3137 1.5226 0
M  V30 28 H -2.3635 -3.0765 2.1007 0
M  V30 29 H -0.6583 -3.0688 2.6785 0
M  V30 30 H 2.0355 -0.0358 0.7639 0
M  V30 31 H -0.1631 3.4464 -0.5306 0
M  V30 32 H 3.4255 1.3925 2.2212 0
M  V30 33 H 1.246 4.8657 0.9288 0
M  V30 34 H 3.0339 3.8408 2.3116 0
M  V30 END ATOM
M  V30 BEGIN BOND
M  V30 1 2 1 2
M  V30 2 1 2 3
M  V30 3 1 2 4
M  V30 4 1 3 5
M  V30 5 1 4 6
M  V30 6 1 5 7
M  V30 7 2 5 8
M  V30 8 2 6 9
M  V30 9 2 7 10
M  V30 10 1 8 11
M  V30 11 1 9 12
M  V30 12 1 10 13
M  V30 13 1 11 14
M  V30 14 2 12 15
M  V30 15 1 12 16
M  V30 16 1 15 17
M  V30 17 2 16 18
M  V30 18 2 17 19
M  V30 19 1 7 9
M  V30 20 1 10 11
M  V30 21 1 18 19
M  V30 22 1 3 20
M  V30 23 1 4 21
M  V30 24 1 4 22
M  V30 25 1 8 23
M  V30 26 1 13 24
M  V30 27 1 13 25
M  V30 28 1 13 26
M  V30 29 1 14 27
M  V30 30 1 14 28
M  V30 31 1 14 29
M  V30 32 1 15 30
M  V30 33 1 16 31
M  V30 34 1 17 32
M  V30 35 1 18 33
M  V30 36 1 19 34
M  V30 END BOND
M  V30 END CTAB
M  END
>  <Column 1>
1983

>  <level_0>
2156

>  <index>
2156

>  <Unnamed: 0>
2156

>  <NO.>
2168

>  <Name>
premazepam

>  <IUPAC_name>
6-7-dimethyl-5-phenyl-1-3-dihydropyrrolo[3-4-e][1-4]diazepin-2-one

>  <SMILES>
Cc1c2c(cn1C)NC(=O)CN=C2c1ccccc1

>  <CID>
72104

>  <logBB>


>  <BBB+/BBB->
BBB+

>  <Inchi>
InChI=1S/C15H15N3O/c1-10-14-12(9-18(10)2)17-13(19)8-16-15(14)11-6-4-3-5-7-11/h3-7-9H-8H2-1-2H3-(H-17-19)

>  <threshold>
-1

>  <reference>
R1|R13|R19|R6|R24|R27|R27|R27|R30|R30|

>  <group>
B

>  <Class>
-1

>  <ABC>
14.98

>  <ABCGG>
12.86

>  <nAcid>
0

>  <nBase>
0

>  <nAromAtom>
11

>  <nAromBond>
11

>  <nAtom>
34

>  <nHeavyAtom>
19

>  <nSpiro>
0

>  <nBridgehead>
0

>  <nHetero>
4

>  <nN>
3

>  <nO>
1

>  <nF>
0

>  <BalabanJ>
1.79

>  <BertzCT>
668.2

>  <nBonds>
36

>  <nBondsO>
21

>  <nBondsS>
23

>  <nBondsD>
2

>  <nBondsT>
0

>  <nBondsA>
11

>  <nBondsM>
13

>  <nBondsKS>
29

>  <nBondsKD>
7

>  <RNCG>
0.23

>  <RPCG>
0.16

>  <FCSP3>
0.2

>  <SZ>
22.33

>  <Sm>
21.09

>  <Sv>
22.05

>  <Sse>
33.98

>  <Sp>
23.45

>  <Si>
38.2

>  <MZ>
0.66

>  <Mm>
0.62

>  <Mv>
0.65

>  <Mse>
1

>  <Mp>
0.69

>  <Mi>
1.12

>  <NsCH3>
2

>  <NdCH2>
0

>  <NssCH2>
1

>  <NtCH>
0

>  <NdsCH>
0

>  <NaaCH>
6

>  <NsssCH>
0

>  <NddC>
0

>  <NtsC>
0

>  <NdssC>
2

>  <NaasC>
4

>  <NaaaC>
0

>  <NssssC>
0

>  <NsNH3>
0

>  <NsNH2>
0

>  <NssNH2>
0

>  <NdNH>
0

>  <NssNH>
1

>  <NaaNH>
0

>  <NtN>
0

>  <NsssNH>
0

>  <NdsN>
1

>  <NaaN>
0

>  <NsssN>
0

>  <NddsN>
0

>  <NaasN>
1

>  <NssssN>
0

>  <NsOH>
0

>  <NdO>
1

>  <NssO>
0

>  <NaaO>
0

>  <NsF>
0

>  <NsSiH3>
0

>  <NssSiH2>
0

>  <NsssSiH>
0

>  <NssssSi>
0

>  <NsPH2>
0

>  <NssPH>
0

>  <NsssP>
0

>  <NdsssP>
0

>  <NsssssP>
0

>  <NsSH>
0

>  <NdS>
0

>  <NssS>
0

>  <NaaS>
0

>  <NdssS>
0

>  <NddssS>
0

>  <NsCl>
0

>  <NsBr>
0

>  <NsI>
0

>  <fragCpx>
99.04

>  <fMF>
0.47

>  <nHBAcc>
3

>  <nHBDon>
1

>  <Kier1>
13.96

>  <Kier2>
5.78

>  <Lipinski>
1

>  <GhoseFilter>
1

>  <FilterItLogS>
-3.97

>  <VMcGowan>
195.34

>  <LabuteASA>
111.33

>  <PEOE_VSA1>
9.88

>  <PEOE_VSA2>
9.79

>  <PEOE_VSA3>
0

>  <PEOE_VSA4>
0

>  <PEOE_VSA5>
0

>  <PEOE_VSA6>
30.33

>  <PEOE_VSA7>
6.92

>  <PEOE_VSA8>
30.07

>  <PEOE_VSA9>
11.4

>  <PEOE_VSA10>
6.54

>  <PEOE_VSA11>
0

>  <PEOE_VSA12>
5.91

>  <PEOE_VSA13>
0

>  <SMR_VSA1>
4.79

>  <SMR_VSA2>
0

>  <SMR_VSA3>
4.57

>  <SMR_VSA4>
12.04

>  <SMR_VSA5>
6.92

>  <SMR_VSA6>
11.86

>  <SMR_VSA7>
53.35

>  <SMR_VSA8>
0

>  <SMR_VSA9>
0

>  <SlogP_VSA1>
5.32

>  <SlogP_VSA2>
22.73

>  <SlogP_VSA3>
11.84

>  <SlogP_VSA4>
6.92

>  <SlogP_VSA5>
16.82

>  <SlogP_VSA6>
41.52

>  <SlogP_VSA7>
0

>  <SlogP_VSA8>
0

>  <SlogP_VSA9>
0

>  <SlogP_VSA10>
5.69

>  <SlogP_VSA11>
0

>  <EState_VSA1>
0

>  <EState_VSA2>
12.45

>  <EState_VSA3>
0

>  <EState_VSA4>
28.22

>  <EState_VSA5>
0

>  <EState_VSA6>
0

>  <EState_VSA7>
55.07

>  <EState_VSA8>
10.31

>  <EState_VSA9>
0

>  <EState_VSA10>
4.79

>  <VSA_EState1>
2.01

>  <VSA_EState2>
16.2

>  <VSA_EState3>
2.91

>  <VSA_EState4>
4.87

>  <VSA_EState5>
-0.07

>  <VSA_EState6>
9.98

>  <VSA_EState7>
1.94

>  <VSA_EState8>
2.21

>  <VSA_EState9>
1.97

>  <apol>
39.15

>  <bpol>
19.34

>  <nRing>
3

>  <nHRing>
2

>  <naRing>
2

>  <naHRing>
1

>  <nARing 2>
1

>  <nAHRing 2>
1

>  <nFRing>
1

>  <nFHRing>
1

>  <nFaRing>
0

>  <nFaHRing>
0

>  <nFARing 2>
1

>  <nFAHRing 2>
1

>  <nRot>
1

>  <SLogP>
2.12

>  <SMR>
75.73

>  <TopoPSA(NO)>
46.39

>  <TopoPSA>
46.39

>  <JGI1>
0.17

>  <JGI2>
0.07

>  <JGI3>
0.06

>  <JGI4>
0.03

>  <JGI5>
0.03

>  <Diameter>
8

>  <Radius>
4

>  <TMWC10>
113.85

>  <TSRW10>
67.07

>  <MW>
253.12

>  <AMW>
7.44

>  <WPath>
630

>  <WPol>
33

>  <Zagreb1>
102

>  <Zagreb2>
122

>  <mZagreb2>
4.14

>  <yes>


>  <nAR-cont>
0.816016

>  <nHA-cont>
0.998649058

>  <MWHBN>
0.251418228

>  <MWHBN-cont>
0.957360748

>  <TPSA-cont>
0.676168994

>  <pka_cont>
0.97

>  <yes.1>


>  <BBB_SCORE>
5.088044167

>  <MMFF94 Energy>
84.125

$$$$
Compound 1633
Actelion Java MolfileCreator 2.0

  0  0  0  0  0  0              0 V3000
M  V30 BEGIN CTAB
M  V30 COUNTS 45 47 0 0 0
M  V30 BEGIN ATOM
M  V30 1 O 3.6526 -4.6072 -2.4604 0
M  V30 2 C 2.5804 -5.556 -2.3938 0
M  V30 3 C 3.4916 -3.6222 -1.4325 0
M  V30 4 C 1.2208 -4.8625 -2.5687 0
M  V30 5 C 2.1515 -2.8792 -1.575 0
M  V30 6 N 1.0064 -3.8089 -1.5503 0
M  V30 7 C -0.2969 -3.1467 -1.7761 0
M  V30 8 C -0.7021 -2.0863 -0.7243 0
M  V30 9 N -0.2425 -0.7567 -1.1064 0
M  V30 10 C -0.5554 0.3159 -0.2825 0
M  V30 11 N -1.2243 0.1095 0.8703 0
M  V30 12 C -0.241 1.62 -0.667 0
M  V30 13 N -1.5766 1.1575 1.7004 0
M  V30 14 C -0.6 2.6804 0.1817 0
M  V30 15 C 0.4775 1.9167 -1.9518 0
M  V30 16 C -1.2763 2.4284 1.368 0
M  V30 17 C -1.6921 3.4749 2.3222 0
M  V30 18 C -1.7938 3.1917 3.6997 0
M  V30 19 C -2.0098 4.7833 1.9096 0
M  V30 20 C -2.1812 4.1677 4.6247 0
M  V30 21 C -2.3971 5.7628 2.8305 0
M  V30 22 C -2.4781 5.4482 4.1792 0
M  V30 23 O -2.8604 6.432 5.0411 0
M  V30 24 H 2.7318 -6.2827 -3.1982 0
M  V30 25 H 2.6324 -6.0976 -1.4415 0
M  V30 26 H 4.319 -2.9112 -1.5237 0
M  V30 27 H 3.5754 -4.1049 -0.4511 0
M  V30 28 H 0.4307 -5.6188 -2.4962 0
M  V30 29 H 1.1771 -4.4209 -3.5731 0
M  V30 30 H 2.1558 -2.3197 -2.5192 0
M  V30 31 H 2.0814 -2.1646 -0.7488 0
M  V30 32 H -1.0651 -3.9301 -1.7337 0
M  V30 33 H -0.3422 -2.7113 -2.7832 0
M  V30 34 H -1.798 -2.0779 -0.6634 0
M  V30 35 H -0.3176 -2.37 0.2632 0
M  V30 36 H 0.5994 -0.6859 -1.656 0
M  V30 37 H -0.3347 3.6971 -0.0902 0
M  V30 38 H 1.4954 1.5152 -1.9176 0
M  V30 39 H -0.0587 1.4807 -2.801 0
M  V30 40 H 0.5502 2.9945 -2.133 0
M  V30 41 H -1.5646 2.1908 4.0651 0
M  V30 42 H -1.9806 5.0585 0.8579 0
M  V30 43 H -2.2442 3.9047 5.6758 0
M  V30 44 H -2.6416 6.7659 2.4921 0
M  V30 45 H -2.8932 6.0611 5.9383 0
M  V30 END ATOM
M  V30 BEGIN BOND
M  V30 1 1 1 2
M  V30 2 1 1 3
M  V30 3 1 2 4
M  V30 4 1 3 5
M  V30 5 1 4 6
M  V30 6 1 6 7
M  V30 7 1 7 8
M  V30 8 1 8 9
M  V30 9 1 9 10
M  V30 10 2 10 11
M  V30 11 1 10 12
M  V30 12 1 11 13
M  V30 13 2 12 14
M  V30 14 1 12 15
M  V30 15 2 13 16
M  V30 16 1 16 17
M  V30 17 2 17 18
M  V30 18 1 17 19
M  V30 19 1 18 20
M  V30 20 2 19 21
M  V30 21 2 20 22
M  V30 22 1 22 23
M  V30 23 1 5 6
M  V30 24 1 14 16
M  V30 25 1 21 22
M  V30 26 1 2 24
M  V30 27 1 2 25
M  V30 28 1 3 26
M  V30 29 1 3 27
M  V30 30 1 4 28
M  V30 31 1 4 29
M  V30 32 1 5 30
M  V30 33 1 5 31
M  V30 34 1 7 32
M  V30 35 1 7 33
M  V30 36 1 8 34
M  V30 37 1 8 35
M  V30 38 1 9 36
M  V30 39 1 14 37
M  V30 40 1 15 38
M  V30 41 1 15 39
M  V30 42 1 15 40
M  V30 43 1 18 41
M  V30 44 1 19 42
M  V30 45 1 20 43
M  V30 46 1 21 44
M  V30 47 1 23 45
M  V30 END BOND
M  V30 END CTAB
M  END
>  <Column 1>
1985

>  <level_0>
2158

>  <index>
2158

>  <Unnamed: 0>
2158

>  <NO.>
2170

>  <Name>
moxiraprine

>  <IUPAC_name>
4-[5-methyl-6-(2-morpholin-4-ylethylamino)pyridazin-3-yl]phenol

>  <SMILES>
Cc1cc(-c2ccc(O)cc2)nnc1NCCN1CCOCC1

>  <CID>
71258

>  <logBB>


>  <BBB+/BBB->
BBB+

>  <Inchi>
InChI=1S/C17H22N4O2/c1-13-12-16(14-2-4-15(22)5-3-14)19-20-17(13)18-6-7-21-8-10-23-11-9-21/h2-5-12-22H-6-11H2-1H3-(H-18-20)

>  <threshold>
-1

>  <reference>
R1|R13|R13|R19|R6|R24|R27|R27|R27|R30|R30|

>  <group>
B

>  <Class>
-1

>  <ABC>
17.82

>  <ABCGG>
13.21

>  <nAcid>
0

>  <nBase>
1

>  <nAromAtom>
12

>  <nAromBond>
12

>  <nAtom>
45

>  <nHeavyAtom>
23

>  <nSpiro>
0

>  <nBridgehead>
0

>  <nHetero>
6

>  <nN>
4

>  <nO>
2

>  <nF>
0

>  <BalabanJ>
1.35

>  <BertzCT>
639.54

>  <nBonds>
47

>  <nBondsO>
25

>  <nBondsS>
35

>  <nBondsD>
0

>  <nBondsT>
0

>  <nBondsA>
12

>  <nBondsM>
12

>  <nBondsKS>
41

>  <nBondsKD>
6

>  <RNCG>
0.25

>  <RPCG>
0.14

>  <FCSP3>
0.41

>  <SZ>
28

>  <Sm>
26.18

>  <Sv>
27.42

>  <Sse>
45.08

>  <Sp>
29.38

>  <Si>
51.15

>  <MZ>
0.62

>  <Mm>
0.58

>  <Mv>
0.61

>  <Mse>
1

>  <Mp>
0.65

>  <Mi>
1.14

>  <NsCH3>
1

>  <NdCH2>
0

>  <NssCH2>
6

>  <NtCH>
0

>  <NdsCH>
0

>  <NaaCH>
5

>  <NsssCH>
0

>  <NddC>
0

>  <NtsC>
0

>  <NdssC>
0

>  <NaasC>
5

>  <NaaaC>
0

>  <NssssC>
0

>  <NsNH3>
0

>  <NsNH2>
0

>  <NssNH2>
0

>  <NdNH>
0

>  <NssNH>
1

>  <NaaNH>
0

>  <NtN>
0

>  <NsssNH>
0

>  <NdsN>
0

>  <NaaN>
2

>  <NsssN>
1

>  <NddsN>
0

>  <NaasN>
0

>  <NssssN>
0

>  <NsOH>
1

>  <NdO>
0

>  <NssO>
1

>  <NaaO>
0

>  <NsF>
0

>  <NsSiH3>
0

>  <NssSiH2>
0

>  <NsssSiH>
0

>  <NssssSi>
0

>  <NsPH2>
0

>  <NssPH>
0

>  <NsssP>
0

>  <NdsssP>
0

>  <NsssssP>
0

>  <NsSH>
0

>  <NdS>
0

>  <NssS>
0

>  <NaaS>
0

>  <NdssS>
0

>  <NddssS>
0

>  <NsCl>
0

>  <NsBr>
0

>  <NsI>
0

>  <fragCpx>
119.06

>  <fMF>
0.47

>  <nHBAcc>
6

>  <nHBDon>
2

>  <Kier1>
17.81

>  <Kier2>
8.91

>  <Lipinski>
1

>  <GhoseFilter>
1

>  <FilterItLogS>
-4.25

>  <VMcGowan>
243.67

>  <LabuteASA>
135.66

>  <PEOE_VSA1>
15.16

>  <PEOE_VSA2>
4.9

>  <PEOE_VSA3>
0

>  <PEOE_VSA4>
0

>  <PEOE_VSA5>
10.2

>  <PEOE_VSA6>
0

>  <PEOE_VSA7>
42.82

>  <PEOE_VSA8>
31.74

>  <PEOE_VSA9>
18.91

>  <PEOE_VSA10>
5.75

>  <PEOE_VSA11>
5.82

>  <PEOE_VSA12>
0

>  <PEOE_VSA13>
0

>  <SMR_VSA1>
9.84

>  <SMR_VSA2>
0

>  <SMR_VSA3>
15.1

>  <SMR_VSA4>
0

>  <SMR_VSA5>
6.92

>  <SMR_VSA6>
44.71

>  <SMR_VSA7>
35.9

>  <SMR_VSA8>
0

>  <SMR_VSA9>
17.01

>  <SlogP_VSA1>
5.32

>  <SlogP_VSA2>
59.6

>  <SlogP_VSA3>
4.74

>  <SlogP_VSA4>
6.92

>  <SlogP_VSA5>
5.56

>  <SlogP_VSA6>
30.33

>  <SlogP_VSA7>
0

>  <SlogP_VSA8>
11.26

>  <SlogP_VSA9>
0

>  <SlogP_VSA10>
5.82

>  <SlogP_VSA11>
5.75

>  <EState_VSA1>
0

>  <EState_VSA2>
5.75

>  <EState_VSA3>
0

>  <EState_VSA4>
62.03

>  <EState_VSA5>
0

>  <EState_VSA6>
12.13

>  <EState_VSA7>
25.12

>  <EState_VSA8>
20.41

>  <EState_VSA9>
4.74

>  <EState_VSA10>
5.11

>  <VSA_EState1>
5.35

>  <VSA_EState2>
2.38

>  <VSA_EState3>
21.27

>  <VSA_EState4>
2.81

>  <VSA_EState5>
1.07

>  <VSA_EState6>
8.99

>  <VSA_EState7>
0

>  <VSA_EState8>
7.46

>  <VSA_EState9>
0

>  <apol>
49.06

>  <bpol>
27.23

>  <nRing>
3

>  <nHRing>
2

>  <naRing>
2

>  <naHRing>
1

>  <nARing 2>
1

>  <nAHRing 2>
1

>  <nFRing>
0

>  <nFHRing>
0

>  <nFaRing>
0

>  <nFaHRing>
0

>  <nFARing 2>
0

>  <nFAHRing 2>
0

>  <nRot>
5

>  <SLogP>
1.9

>  <SMR>
89.62

>  <TopoPSA(NO)>
70.51

>  <TopoPSA>
70.51

>  <JGI1>
0.16

>  <JGI2>
0.07

>  <JGI3>
0.03

>  <JGI4>
0.03

>  <JGI5>
0.03

>  <Diameter>
15

>  <Radius>
8

>  <TMWC10>
120.9

>  <TSRW10>
56.92

>  <MW>
314.17

>  <AMW>
6.98

>  <WPath>
1416

>  <WPol>
32

>  <Zagreb1>
116

>  <Zagreb2>
132

>  <mZagreb2>
5.14

>  <yes>


>  <nAR-cont>
0.816016

>  <nHA-cont>
0.967789328

>  <MWHBN>
0.451343956

>  <MWHBN-cont>
0

>  <TPSA-cont>
0.507796416

>  <pka_cont>
0.97

>  <yes.1>


>  <BBB_SCORE>
3.28439816

>  <MMFF94 Energy>
112.47

$$$$
Compound 1634
Actelion Java MolfileCreator 2.0

  0  0  0  0  0  0              0 V3000
M  V30 BEGIN CTAB
M  V30 COUNTS 21 22 0 0 0
M  V30 BEGIN ATOM
M  V30 1 O -0.5596 -3.7622 1.1995 0
M  V30 2 C -0.3623 -2.6258 0.7847 0
M  V30 3 O -0.7471 -1.501 1.4929 0
M  V30 4 C 0.304 -2.4027 -0.5072 0
M  V30 5 C -0.5065 -0.2071 0.9899 0
M  V30 6 C 0.5482 -1.1855 -1.0148 0
M  V30 7 C 0.1281 -0.0097 -0.2402 0
M  V30 8 C -0.9376 0.8535 1.7891 0
M  V30 9 C 1.2319 -1.0126 -2.3388 0
M  V30 10 C 0.3276 1.3101 -0.6649 0
M  V30 11 C -0.7259 2.1495 1.3418 0
M  V30 12 C -0.0982 2.3853 0.1239 0
M  V30 13 O -1.1215 3.23 2.0719 0
M  V30 14 H 0.5885 -3.3098 -1.0286 0
M  V30 15 H -1.4254 0.6496 2.7361 0
M  V30 16 H 1.4839 -1.9761 -2.7957 0
M  V30 17 H 0.5853 -0.4797 -3.044 0
M  V30 18 H 2.1675 -0.4549 -2.2236 0
M  V30 19 H 0.8145 1.5326 -1.6106 0
M  V30 20 H 0.0608 3.4063 -0.2138 0
M  V30 21 H -1.5415 2.9188 2.8912 0
M  V30 END ATOM
M  V30 BEGIN BOND
M  V30 1 2 1 2
M  V30 2 1 2 3
M  V30 3 1 2 4
M  V30 4 1 3 5
M  V30 5 2 4 6
M  V30 6 2 5 7
M  V30 7 1 5 8
M  V30 8 1 6 9
M  V30 9 1 7 10
M  V30 10 2 8 11
M  V30 11 2 10 12
M  V30 12 1 11 13
M  V30 13 1 6 7
M  V30 14 1 11 12
M  V30 15 1 4 14
M  V30 16 1 8 15
M  V30 17 1 9 16
M  V30 18 1 9 17
M  V30 19 1 9 18
M  V30 20 1 10 19
M  V30 21 1 12 20
M  V30 22 1 13 21
M  V30 END BOND
M  V30 END CTAB
M  END
>  <Column 1>
1987

>  <level_0>
2160

>  <index>
2160

>  <Unnamed: 0>
2160

>  <NO.>
2172

>  <Name>
hymecromone

>  <IUPAC_name>
7-hydroxy-4-methylchromen-2-one

>  <SMILES>
Cc1cc(=O)oc2cc(O)ccc12

>  <CID>
5280567

>  <logBB>


>  <BBB+/BBB->
BBB-

>  <Inchi>
InChI=1S/C10H8O3/c1-6-4-10(12)13-9-5-7(11)2-3-8(6)9/h2-5-11H-1H3

>  <threshold>
-1

>  <reference>
R1|R13|R19|R6|R24|R27|R27|R27|R30|R30|

>  <group>
B

>  <Class>
1

>  <ABC>
10.15

>  <ABCGG>
8.77

>  <nAcid>
0

>  <nBase>
0

>  <nAromAtom>
10

>  <nAromBond>
11

>  <nAtom>
21

>  <nHeavyAtom>
13

>  <nSpiro>
0

>  <nBridgehead>
0

>  <nHetero>
3

>  <nN>
0

>  <nO>
3

>  <nF>
0

>  <BalabanJ>
2.02

>  <BertzCT>
511.05

>  <nBonds>
22

>  <nBondsO>
14

>  <nBondsS>
10

>  <nBondsD>
1

>  <nBondsT>
0

>  <nBondsA>
11

>  <nBondsM>
12

>  <nBondsKS>
17

>  <nBondsKD>
5

>  <RNCG>
0.39

>  <RPCG>
0.26

>  <FCSP3>
0.1

>  <SZ>
15.33

>  <Sm>
14.67

>  <Sv>
14.31

>  <Sse>
21.54

>  <Sp>
14.63

>  <Si>
23.29

>  <MZ>
0.73

>  <Mm>
0.7

>  <Mv>
0.68

>  <Mse>
1.03

>  <Mp>
0.7

>  <Mi>
1.11

>  <NsCH3>
1

>  <NdCH2>
0

>  <NssCH2>
0

>  <NtCH>
0

>  <NdsCH>
0

>  <NaaCH>
4

>  <NsssCH>
0

>  <NddC>
0

>  <NtsC>
0

>  <NdssC>
0

>  <NaasC>
2

>  <NaaaC>
2

>  <NssssC>
0

>  <NsNH3>
0

>  <NsNH2>
0

>  <NssNH2>
0

>  <NdNH>
0

>  <NssNH>
0

>  <NaaNH>
0

>  <NtN>
0

>  <NsssNH>
0

>  <NdsN>
0

>  <NaaN>
0

>  <NsssN>
0

>  <NddsN>
0

>  <NaasN>
0

>  <NssssN>
0

>  <NsOH>
1

>  <NdO>
1

>  <NssO>
0

>  <NaaO>
1

>  <NsF>
0

>  <NsSiH3>
0

>  <NssSiH2>
0

>  <NsssSiH>
0

>  <NssssSi>
0

>  <NsPH2>
0

>  <NssPH>
0

>  <NsssP>
0

>  <NdsssP>
0

>  <NsssssP>
0

>  <NsSH>
0

>  <NdS>
0

>  <NssS>
0

>  <NaaS>
0

>  <NdssS>
0

>  <NddssS>
0

>  <NsCl>
0

>  <NsBr>
0

>  <NsI>
0

>  <fragCpx>
40.03

>  <fMF>
0.48

>  <nHBAcc>
3

>  <nHBDon>
1

>  <Kier1>
9.55

>  <Kier2>
3.63

>  <Lipinski>
1

>  <GhoseFilter>
1

>  <FilterItLogS>
-2.81

>  <VMcGowan>
126.15

>  <LabuteASA>
74.24

>  <PEOE_VSA1>
9.52

>  <PEOE_VSA2>
0

>  <PEOE_VSA3>
4.79

>  <PEOE_VSA4>
0

>  <PEOE_VSA5>
0

>  <PEOE_VSA6>
0

>  <PEOE_VSA7>
24.62

>  <PEOE_VSA8>
17.52

>  <PEOE_VSA9>
0

>  <PEOE_VSA10>
11.33

>  <PEOE_VSA11>
0

>  <PEOE_VSA12>
0

>  <PEOE_VSA13>
0

>  <SMR_VSA1>
9.52

>  <SMR_VSA2>
0

>  <SMR_VSA3>
0

>  <SMR_VSA4>
0

>  <SMR_VSA5>
6.92

>  <SMR_VSA6>
0

>  <SMR_VSA7>
40.25

>  <SMR_VSA8>
0

>  <SMR_VSA9>
5.75

>  <SlogP_VSA1>
5.63

>  <SlogP_VSA2>
5.11

>  <SlogP_VSA3>
0

>  <SlogP_VSA4>
6.92

>  <SlogP_VSA5>
5.56

>  <SlogP_VSA6>
33.48

>  <SlogP_VSA7>
0

>  <SlogP_VSA8>
10.97

>  <SlogP_VSA9>
0

>  <SlogP_VSA10>
0

>  <SlogP_VSA11>
5.75

>  <EState_VSA1>
5.63

>  <EState_VSA2>
5.75

>  <EState_VSA3>
5.58

>  <EState_VSA4>
10.95

>  <EState_VSA5>
12.13

>  <EState_VSA6>
12.13

>  <EState_VSA7>
6.92

>  <EState_VSA8>
0

>  <EState_VSA9>
9.52

>  <EState_VSA10>
4.79

>  <VSA_EState1>
4.91

>  <VSA_EState2>
10.97

>  <VSA_EState3>
9.99

>  <VSA_EState4>
0.88

>  <VSA_EState5>
0.1

>  <VSA_EState6>
6.15

>  <VSA_EState7>
0

>  <VSA_EState8>
1.83

>  <VSA_EState9>
0

>  <apol>
24.44

>  <bpol>
10.63

>  <nRing>
2

>  <nHRing>
1

>  <naRing>
2

>  <naHRing>
1

>  <nARing 2>
0

>  <nAHRing 2>
0

>  <nFRing>
1

>  <nFHRing>
1

>  <nFaRing>
1

>  <nFaHRing>
1

>  <nFARing 2>
0

>  <nFAHRing 2>
0

>  <nRot>
0

>  <SLogP>
1.81

>  <SMR>
48.89

>  <TopoPSA(NO)>
50.44

>  <TopoPSA>
50.44

>  <JGI1>
0.25

>  <JGI2>
0.08

>  <JGI3>
0.06

>  <JGI4>
0.06

>  <JGI5>
0.05

>  <Diameter>
6

>  <Radius>
3

>  <TMWC10>
96.26

>  <TSRW10>
44.67

>  <MW>
176.05

>  <AMW>
8.38

>  <WPath>
226

>  <WPol>
19

>  <Zagreb1>
68

>  <Zagreb2>
79

>  <mZagreb2>
2.81

>  <yes>


>  <nAR-cont>
0.336376

>  <nHA-cont>
0.841215992

>  <MWHBN>
0.301468525

>  <MWHBN-cont>
0.836329078

>  <TPSA-cont>
0.647897479

>  <pka_cont>
0.97

>  <yes.1>


>  <BBB_SCORE>
4.212880566

>  <MMFF94 Energy>
23.745

$$$$
Compound 1635
Actelion Java MolfileCreator 2.0

  0  0  0  0  0  0              0 V3000
M  V30 BEGIN CTAB
M  V30 COUNTS 20 20 0 0 0
M  V30 BEGIN ATOM
M  V30 1 Br -0.0803 3.5405 1.6886 0
M  V30 2 C -0.0755 1.9072 0.7336 0
M  V30 3 C 0.0679 0.7058 1.4282 0
M  V30 4 C -0.2193 1.9213 -0.6531 0
M  V30 5 C 0.074 -0.5064 0.7267 0
M  V30 6 C -0.2314 0.7191 -1.3714 0
M  V30 7 C -0.0929 -0.4898 -0.6721 0
M  V30 8 C 0.2347 -1.8092 1.4278 0
M  V30 9 C -0.4012 0.7311 -2.8643 0
M  V30 10 O -0.1279 -1.642 -1.4189 0
M  V30 11 O -0.0369 -2.8603 0.8543 0
M  V30 12 N 0.7213 -1.8219 2.7038 0
M  V30 13 H 0.1513 0.732 2.509 0
M  V30 14 H -0.3301 2.8678 -1.1782 0
M  V30 15 H -0.4656 1.7531 -3.2526 0
M  V30 16 H 0.4534 0.2472 -3.3478 0
M  V30 17 H -1.3219 0.2093 -3.1448 0
M  V30 18 H -0.1302 -2.4096 -0.8029 0
M  V30 19 H 1.049 -1.0137 3.2099 0
M  V30 20 H 0.8253 -2.7265 3.1471 0
M  V30 END ATOM
M  V30 BEGIN BOND
M  V30 1 1 1 2
M  V30 2 2 2 3
M  V30 3 1 2 4
M  V30 4 1 3 5
M  V30 5 2 4 6
M  V30 6 2 5 7
M  V30 7 1 5 8
M  V30 8 1 6 9
M  V30 9 1 7 10
M  V30 10 2 8 11
M  V30 11 1 8 12
M  V30 12 1 6 7
M  V30 13 1 3 13
M  V30 14 1 4 14
M  V30 15 1 9 15
M  V30 16 1 9 16
M  V30 17 1 9 17
M  V30 18 1 10 18
M  V30 19 1 12 19
M  V30 20 1 12 20
M  V30 END BOND
M  V30 END CTAB
M  END
>  <Column 1>
1988

>  <level_0>
2161

>  <index>
2161

>  <Unnamed: 0>
2161

>  <NO.>
2173

>  <Name>
brosotamide

>  <IUPAC_name>
5-bromo-2-hydroxy-3-methylbenzamide

>  <SMILES>
Cc1cc(Br)cc(C(N)=O)c1O

>  <CID>
38706

>  <logBB>


>  <BBB+/BBB->
BBB+

>  <Inchi>
InChI=1S/C8H8BrNO2/c1-4-2-5(9)3-6(7(4)11)8(10)12/h2-3-11H-1H3-(H2-10-12)

>  <threshold>
-1

>  <reference>
R1|R13|R19|R6|R24|R27|R27|R27|R30|R30|

>  <group>
B

>  <Class>
1

>  <ABC>
8.91

>  <ABCGG>
8.63

>  <nAcid>
0

>  <nBase>
0

>  <nAromAtom>
6

>  <nAromBond>
6

>  <nAtom>
20

>  <nHeavyAtom>
12

>  <nSpiro>
0

>  <nBridgehead>
0

>  <nHetero>
4

>  <nN>
1

>  <nO>
2

>  <nF>
0

>  <BalabanJ>
2.6

>  <BertzCT>
336.07

>  <nBonds>
20

>  <nBondsO>
12

>  <nBondsS>
13

>  <nBondsD>
1

>  <nBondsT>
0

>  <nBondsA>
6

>  <nBondsM>
7

>  <nBondsKS>
16

>  <nBondsKD>
4

>  <RNCG>
0.39

>  <RPCG>
0.22

>  <FCSP3>
0.13

>  <SZ>
19

>  <Sm>
19.15

>  <Sv>
13.64

>  <Sse>
20.55

>  <Sp>
14.64

>  <Si>
22.42

>  <MZ>
0.95

>  <Mm>
0.96

>  <Mv>
0.68

>  <Mse>
1.03

>  <Mp>
0.73

>  <Mi>
1.12

>  <NsCH3>
1

>  <NdCH2>
0

>  <NssCH2>
0

>  <NtCH>
0

>  <NdsCH>
0

>  <NaaCH>
2

>  <NsssCH>
0

>  <NddC>
0

>  <NtsC>
0

>  <NdssC>
1

>  <NaasC>
4

>  <NaaaC>
0

>  <NssssC>
0

>  <NsNH3>
0

>  <NsNH2>
1

>  <NssNH2>
0

>  <NdNH>
0

>  <NssNH>
0

>  <NaaNH>
0

>  <NtN>
0

>  <NsssNH>
0

>  <NdsN>
0

>  <NaaN>
0

>  <NsssN>
0

>  <NddsN>
0

>  <NaasN>
0

>  <NssssN>
0

>  <NsOH>
1

>  <NdO>
1

>  <NssO>
0

>  <NaaO>
0

>  <NsF>
0

>  <NsSiH3>
0

>  <NssSiH2>
0

>  <NsssSiH>
0

>  <NssssSi>
0

>  <NsPH2>
0

>  <NssPH>
0

>  <NsssP>
0

>  <NdsssP>
0

>  <NsssssP>
0

>  <NsSH>
0

>  <NdS>
0

>  <NssS>
0

>  <NaaS>
0

>  <NdssS>
0

>  <NddssS>
0

>  <NsCl>
0

>  <NsBr>
1

>  <NsI>
0

>  <fragCpx>
12.04

>  <fMF>
0.3

>  <nHBAcc>
2

>  <nHBDon>
2

>  <Kier1>
10.08

>  <Kier2>
3.81

>  <Lipinski>
1

>  <GhoseFilter>
1

>  <FilterItLogS>
-2.36

>  <VMcGowan>
134.74

>  <LabuteASA>
78.32

>  <PEOE_VSA1>
10.84

>  <PEOE_VSA2>
4.79

>  <PEOE_VSA3>
0

>  <PEOE_VSA4>
0

>  <PEOE_VSA5>
0

>  <PEOE_VSA6>
15.93

>  <PEOE_VSA7>
24.62

>  <PEOE_VSA8>
4.47

>  <PEOE_VSA9>
5.56

>  <PEOE_VSA10>
5.75

>  <PEOE_VSA11>
0

>  <PEOE_VSA12>
0

>  <PEOE_VSA13>
5.91

>  <SMR_VSA1>
9.9

>  <SMR_VSA2>
0

>  <SMR_VSA3>
0

>  <SMR_VSA4>
5.73

>  <SMR_VSA5>
6.92

>  <SMR_VSA6>
0

>  <SMR_VSA7>
27.73

>  <SMR_VSA8>
0

>  <SMR_VSA9>
5.75

>  <SlogP_VSA1>
5.73

>  <SlogP_VSA2>
11.01

>  <SlogP_VSA3>
0

>  <SlogP_VSA4>
6.92

>  <SlogP_VSA5>
15.92

>  <SlogP_VSA6>
16.61

>  <SlogP_VSA7>
0

>  <SlogP_VSA8>
0

>  <SlogP_VSA9>
0

>  <SlogP_VSA10>
0

>  <SlogP_VSA11>
5.75

>  <EState_VSA1>
5.91

>  <EState_VSA2>
11.31

>  <EState_VSA3>
5.56

>  <EState_VSA4>
4.47

>  <EState_VSA5>
6.07

>  <EState_VSA6>
12.99

>  <EState_VSA7>
0

>  <EState_VSA8>
15.93

>  <EState_VSA9>
5.73

>  <EState_VSA10>
9.9

>  <VSA_EState1>
0.73

>  <VSA_EState2>
10.77

>  <VSA_EState3>
9.37

>  <VSA_EState4>
5.8

>  <VSA_EState5>
-0.68

>  <VSA_EState6>
3.2

>  <VSA_EState7>
0

>  <VSA_EState8>
1.7

>  <VSA_EState9>
0

>  <apol>
24.45

>  <bpol>
9.7

>  <nRing>
1

>  <nHRing>
0

>  <naRing>
1

>  <naHRing>
0

>  <nARing 2>
0

>  <nAHRing 2>
0

>  <nFRing>
0

>  <nFHRing>
0

>  <nFaRing>
0

>  <nFaHRing>
0

>  <nFARing 2>
0

>  <nFAHRing 2>
0

>  <nRot>
1

>  <SLogP>
1.56

>  <SMR>
49.06

>  <TopoPSA(NO)>
63.32

>  <TopoPSA>
63.32

>  <JGI1>
0.29

>  <JGI2>
0.1

>  <JGI3>
0.07

>  <JGI4>
0.07

>  <JGI5>
0.02

>  <Diameter>
5

>  <Radius>
3

>  <TMWC10>
91.17

>  <TSRW10>
42.75

>  <MW>
228.97

>  <AMW>
11.45

>  <WPath>
184

>  <WPol>
17

>  <Zagreb1>
58

>  <Zagreb2>
66

>  <mZagreb2>
2.67

>  <yes>


>  <nAR-cont>
0.336376

>  <nHA-cont>
0.785745021

>  <MWHBN>
0.264344756

>  <MWHBN-cont>
0.932509225

>  <TPSA-cont>
0.557987081

>  <pka_cont>
0.97

>  <yes.1>


>  <BBB_SCORE>
4.12185902

>  <MMFF94 Energy>
-3.1858

$$$$
Compound 1636
Actelion Java MolfileCreator 2.0

  0  0  0  0  0  0              0 V3000
M  V30 BEGIN CTAB
M  V30 COUNTS 30 31 0 0 0
M  V30 BEGIN ATOM
M  V30 1 O -0.7123 -3.0897 -0.6331 0
M  V30 2 C -0.9133 -1.897 -0.4183 0
M  V30 3 N -0.3558 -1.1692 0.6276 0
M  V30 4 C -1.7822 -1.0912 -1.2796 0
M  V30 5 N 0.5297 -1.766 1.5495 0
M  V30 6 N -1.9806 0.2231 -1.065 0
M  V30 7 C -2.5105 -1.5282 -2.4153 0
M  V30 8 C 1.9185 -1.3473 1.3269 0
M  V30 9 O -2.8425 0.644 -2.0621 0
M  V30 10 C -3.1564 -0.4055 -2.8662 0
M  V30 11 C 2.1531 0.1074 1.6659 0
M  V30 12 C -4.0717 -0.1234 -3.9854 0
M  V30 13 C 2.1399 1.0848 0.6599 0
M  V30 14 C 2.3521 0.5053 2.9964 0
M  V30 15 C 2.328 2.4306 0.9777 0
M  V30 16 C 2.5415 1.8519 3.3115 0
M  V30 17 C 2.5291 2.8134 2.3026 0
M  V30 18 H -0.5833 -0.1759 0.6945 0
M  V30 19 H 0.246 -1.5135 2.4975 0
M  V30 20 H -2.5463 -2.5253 -2.8295 0
M  V30 21 H 2.5738 -1.9657 1.9525 0
M  V30 22 H 2.2206 -1.5544 0.2924 0
M  V30 23 H -5.0302 0.2501 -3.6123 0
M  V30 24 H -3.6422 0.6311 -4.6514 0
M  V30 25 H -4.2637 -1.0265 -4.5729 0
M  V30 26 H 1.9798 0.8014 -0.3783 0
M  V30 27 H 2.3636 -0.2332 3.795 0
M  V30 28 H 2.3164 3.1809 0.1911 0
M  V30 29 H 2.6986 2.1515 4.3445 0
M  V30 30 H 2.6761 3.8619 2.5489 0
M  V30 END ATOM
M  V30 BEGIN BOND
M  V30 1 2 1 2
M  V30 2 1 2 3
M  V30 3 1 2 4
M  V30 4 1 3 5
M  V30 5 2 4 6
M  V30 6 1 4 7
M  V30 7 1 5 8
M  V30 8 1 6 9
M  V30 9 2 7 10
M  V30 10 1 8 11
M  V30 11 1 10 12
M  V30 12 2 11 13
M  V30 13 1 11 14
M  V30 14 1 13 15
M  V30 15 2 14 16
M  V30 16 2 15 17
M  V30 17 1 9 10
M  V30 18 1 16 17
M  V30 19 1 3 18
M  V30 20 1 5 19
M  V30 21 1 7 20
M  V30 22 1 8 21
M  V30 23 1 8 22
M  V30 24 1 12 23
M  V30 25 1 12 24
M  V30 26 1 12 25
M  V30 27 1 13 26
M  V30 28 1 14 27
M  V30 29 1 15 28
M  V30 30 1 16 29
M  V30 31 1 17 30
M  V30 END BOND
M  V30 END CTAB
M  END
>  <Column 1>
1989

>  <level_0>
2162

>  <index>
2162

>  <Unnamed: 0>
2162

>  <NO.>
2174

>  <Name>
isocarboxazid

>  <IUPAC_name>
n'-benzyl-5-methyl-1-2-oxazole-3-carbohydrazide

>  <SMILES>
Cc1cc(C(=O)NNCc2ccccc2)no1

>  <CID>
3759

>  <logBB>


>  <BBB+/BBB->
BBB+

>  <Inchi>
InChI=1S/C12H13N3O2/c1-9-7-11(15-17-9)12(16)14-13-8-10-5-3-2-4-6-10/h2-7-13H-8H2-1H3-(H-14-16)

>  <threshold>
-1

>  <reference>
R1|R13|R19|R6|R14|R23|R24|R27|R27|R27|R30|R30|

>  <group>
B

>  <Class>
1

>  <ABC>
12.91

>  <ABCGG>
11.06

>  <nAcid>
0

>  <nBase>
0

>  <nAromAtom>
11

>  <nAromBond>
11

>  <nAtom>
30

>  <nHeavyAtom>
17

>  <nSpiro>
0

>  <nBridgehead>
0

>  <nHetero>
5

>  <nN>
3

>  <nO>
2

>  <nF>
0

>  <BalabanJ>
1.57

>  <BertzCT>
493.46

>  <nBonds>
31

>  <nBondsO>
18

>  <nBondsS>
19

>  <nBondsD>
1

>  <nBondsT>
0

>  <nBondsA>
11

>  <nBondsM>
12

>  <nBondsKS>
25

>  <nBondsKD>
6

>  <RNCG>
0.23

>  <RPCG>
0.18

>  <FCSP3>
0.17

>  <SZ>
20.33

>  <Sm>
19.25

>  <Sv>
19.23

>  <Sse>
30.42

>  <Sp>
20.13

>  <Si>
33.99

>  <MZ>
0.68

>  <Mm>
0.64

>  <Mv>
0.64

>  <Mse>
1.01

>  <Mp>
0.67

>  <Mi>
1.13

>  <NsCH3>
1

>  <NdCH2>
0

>  <NssCH2>
1

>  <NtCH>
0

>  <NdsCH>
0

>  <NaaCH>
6

>  <NsssCH>
0

>  <NddC>
0

>  <NtsC>
0

>  <NdssC>
1

>  <NaasC>
3

>  <NaaaC>
0

>  <NssssC>
0

>  <NsNH3>
0

>  <NsNH2>
0

>  <NssNH2>
0

>  <NdNH>
0

>  <NssNH>
2

>  <NaaNH>
0

>  <NtN>
0

>  <NsssNH>
0

>  <NdsN>
0

>  <NaaN>
1

>  <NsssN>
0

>  <NddsN>
0

>  <NaasN>
0

>  <NssssN>
0

>  <NsOH>
0

>  <NdO>
1

>  <NssO>
0

>  <NaaO>
1

>  <NsF>
0

>  <NsSiH3>
0

>  <NssSiH2>
0

>  <NsssSiH>
0

>  <NssssSi>
0

>  <NsPH2>
0

>  <NssPH>
0

>  <NsssP>
0

>  <NdsssP>
0

>  <NsssssP>
0

>  <NsSH>
0

>  <NdS>
0

>  <NssS>
0

>  <NaaS>
0

>  <NdssS>
0

>  <NddssS>
0

>  <NsCl>
0

>  <NsBr>
0

>  <NsI>
0

>  <fragCpx>
52.05

>  <fMF>
0.5

>  <nHBAcc>
4

>  <nHBDon>
2

>  <Kier1>
13.43

>  <Kier2>
6.81

>  <Lipinski>
1

>  <GhoseFilter>
1

>  <FilterItLogS>
-3.7

>  <VMcGowan>
174.1

>  <LabuteASA>
98.78

>  <PEOE_VSA1>
4.52

>  <PEOE_VSA2>
10.22

>  <PEOE_VSA3>
5.43

>  <PEOE_VSA4>
0

>  <PEOE_VSA5>
0

>  <PEOE_VSA6>
35.49

>  <PEOE_VSA7>
12.49

>  <PEOE_VSA8>
12.61

>  <PEOE_VSA9>
0

>  <PEOE_VSA10>
5.76

>  <PEOE_VSA11>
5.69

>  <PEOE_VSA12>
0

>  <PEOE_VSA13>
5.91

>  <SMR_VSA1>
9.32

>  <SMR_VSA2>
0

>  <SMR_VSA3>
16.01

>  <SMR_VSA4>
0

>  <SMR_VSA5>
13.47

>  <SMR_VSA6>
0

>  <SMR_VSA7>
53.42

>  <SMR_VSA8>
0

>  <SMR_VSA9>
0

>  <SlogP_VSA1>
10.85

>  <SlogP_VSA2>
11.06

>  <SlogP_VSA3>
6.54

>  <SlogP_VSA4>
6.92

>  <SlogP_VSA5>
21.81

>  <SlogP_VSA6>
40.92

>  <SlogP_VSA7>
0

>  <SlogP_VSA8>
0

>  <SlogP_VSA9>
0

>  <SlogP_VSA10>
0

>  <SlogP_VSA11>
0

>  <EState_VSA1>
0

>  <EState_VSA2>
11.6

>  <EState_VSA3>
12.31

>  <EState_VSA4>
5.56

>  <EState_VSA5>
0

>  <EState_VSA6>
12.99

>  <EState_VSA7>
30.33

>  <EState_VSA8>
16.01

>  <EState_VSA9>
4.52

>  <EState_VSA10>
4.79

>  <VSA_EState1>
4.81

>  <VSA_EState2>
11.55

>  <VSA_EState3>
3.61

>  <VSA_EState4>
6.73

>  <VSA_EState5>
0.3

>  <VSA_EState6>
11.36

>  <VSA_EState7>
0

>  <VSA_EState8>
2.3

>  <VSA_EState9>
0

>  <apol>
33.61

>  <bpol>
15.65

>  <nRing>
2

>  <nHRing>
1

>  <naRing>
2

>  <naHRing>
1

>  <nARing 2>
0

>  <nAHRing 2>
0

>  <nFRing>
0

>  <nFHRing>
0

>  <nFaRing>
0

>  <nFaHRing>
0

>  <nFARing 2>
0

>  <nFAHRing 2>
0

>  <nRot>
4

>  <SLogP>
1.42

>  <SMR>
61.99

>  <TopoPSA(NO)>
67.16

>  <TopoPSA>
67.16

>  <JGI1>
0.17

>  <JGI2>
0.07

>  <JGI3>
0.04

>  <JGI4>
0.03

>  <JGI5>
0.02

>  <Diameter>
11

>  <Radius>
6

>  <TMWC10>
103.92

>  <TSRW10>
62.39

>  <MW>
231.1

>  <AMW>
7.7

>  <WPath>
613

>  <WPol>
19

>  <Zagreb1>
82

>  <Zagreb2>
91

>  <mZagreb2>
3.86

>  <yes>


>  <nAR-cont>
0.336376

>  <nHA-cont>
0.976740822

>  <MWHBN>
0.394685596

>  <MWHBN-cont>
0.496994727

>  <TPSA-cont>
0.531181496

>  <pka_cont>
0.97

>  <yes.1>


>  <BBB_SCORE>
3.605971904

>  <MMFF94 Energy>
90.779

$$$$
Compound 1637
Actelion Java MolfileCreator 2.0

  0  0  0  0  0  0              0 V3000
M  V30 BEGIN CTAB
M  V30 COUNTS 17 17 0 0 0
M  V30 BEGIN ATOM
M  V30 1 O -1.4055 2.4998 0.6245 0
M  V30 2 C -1.0658 1.3572 0.3347 0
M  V30 3 N -1.9756 0.3701 0.0516 0
M  V30 4 C 0.3662 0.9632 0.2708 0
M  V30 5 N -1.6853 -0.9213 -0.2784 0
M  V30 6 C 0.679 -0.2979 -0.0506 0
M  V30 7 C 1.3753 2.0216 0.5754 0
M  V30 8 C -0.4293 -1.2391 -0.3272 0
M  V30 9 C -0.0699 -2.6578 -0.6886 0
M  V30 10 H -2.9584 0.6187 0.0898 0
M  V30 11 H 1.6989 -0.6518 -0.1153 0
M  V30 12 H 1.2354 2.4052 1.5915 0
M  V30 13 H 1.2824 2.8553 -0.1282 0
M  V30 14 H 2.399 1.639 0.5033 0
M  V30 15 H 1.0123 -2.8096 -0.6988 0
M  V30 16 H -0.4684 -2.8888 -1.6809 0
M  V30 17 H -0.5154 -3.3396 0.0417 0
M  V30 END ATOM
M  V30 BEGIN BOND
M  V30 1 2 1 2
M  V30 2 1 2 3
M  V30 3 1 2 4
M  V30 4 1 3 5
M  V30 5 2 4 6
M  V30 6 1 4 7
M  V30 7 2 5 8
M  V30 8 1 8 9
M  V30 9 1 6 8
M  V30 10 1 3 10
M  V30 11 1 6 11
M  V30 12 1 7 12
M  V30 13 1 7 13
M  V30 14 1 7 14
M  V30 15 1 9 15
M  V30 16 1 9 16
M  V30 17 1 9 17
M  V30 END BOND
M  V30 END CTAB
M  END
>  <Column 1>
1991

>  <level_0>
2164

>  <index>
2164

>  <Unnamed: 0>
2164

>  <NO.>
2176

>  <Name>
cetohexazine

>  <IUPAC_name>
3-5-dimethyl-1h-pyridazin-6-one

>  <SMILES>
Cc1cc(C)c(=O)[nH]n1

>  <CID>
193965

>  <logBB>


>  <BBB+/BBB->
BBB+

>  <Inchi>
InChI=1S/C6H8N2O/c1-4-3-5(2)7-8-6(4)9/h3H-1-2H3-(H-8-9)

>  <threshold>
-1

>  <reference>
R1|R13|R19|R6|R24|R27|R27|R27|R30|R30|

>  <group>
B

>  <Class>
1

>  <ABC>
6.65

>  <ABCGG>
6.36

>  <nAcid>
0

>  <nBase>
0

>  <nAromAtom>
6

>  <nAromBond>
6

>  <nAtom>
17

>  <nHeavyAtom>
9

>  <nSpiro>
0

>  <nBridgehead>
0

>  <nHetero>
3

>  <nN>
2

>  <nO>
1

>  <nF>
0

>  <BalabanJ>
2.35

>  <BertzCT>
264.01

>  <nBonds>
17

>  <nBondsO>
9

>  <nBondsS>
10

>  <nBondsD>
1

>  <nBondsT>
0

>  <nBondsA>
6

>  <nBondsM>
7

>  <nBondsKS>
14

>  <nBondsKD>
3

>  <RNCG>
0.35

>  <RPCG>
0.34

>  <FCSP3>
0.33

>  <SZ>
11

>  <Sm>
10.34

>  <Sv>
10.4

>  <Sse>
17.21

>  <Sp>
10.99

>  <Si>
19.45

>  <MZ>
0.65

>  <Mm>
0.61

>  <Mv>
0.61

>  <Mse>
1.01

>  <Mp>
0.65

>  <Mi>
1.14

>  <NsCH3>
2

>  <NdCH2>
0

>  <NssCH2>
0

>  <NtCH>
0

>  <NdsCH>
0

>  <NaaCH>
1

>  <NsssCH>
0

>  <NddC>
0

>  <NtsC>
0

>  <NdssC>
0

>  <NaasC>
2

>  <NaaaC>
0

>  <NssssC>
0

>  <NsNH3>
0

>  <NsNH2>
0

>  <NssNH2>
0

>  <NdNH>
0

>  <NssNH>
0

>  <NaaNH>
1

>  <NtN>
0

>  <NsssNH>
0

>  <NdsN>
0

>  <NaaN>
1

>  <NsssN>
0

>  <NddsN>
0

>  <NaasN>
0

>  <NssssN>
0

>  <NsOH>
0

>  <NdO>
1

>  <NssO>
0

>  <NaaO>
0

>  <NsF>
0

>  <NsSiH3>
0

>  <NssSiH2>
0

>  <NsssSiH>
0

>  <NssssSi>
0

>  <NsPH2>
0

>  <NssPH>
0

>  <NsssP>
0

>  <NdsssP>
0

>  <NsssssP>
0

>  <NsSH>
0

>  <NdS>
0

>  <NssS>
0

>  <NaaS>
0

>  <NdssS>
0

>  <NddssS>
0

>  <NsCl>
0

>  <NsBr>
0

>  <NsI>
0

>  <fragCpx>
9.03

>  <fMF>
0.35

>  <nHBAcc>
2

>  <nHBDon>
1

>  <Kier1>
7.11

>  <Kier2>
2.72

>  <Lipinski>
1

>  <GhoseFilter>
0

>  <FilterItLogS>
-2.14

>  <VMcGowan>
97.47

>  <LabuteASA>
52.73

>  <PEOE_VSA1>
0

>  <PEOE_VSA2>
4.79

>  <PEOE_VSA3>
5.1

>  <PEOE_VSA4>
5.1

>  <PEOE_VSA5>
0

>  <PEOE_VSA6>
0

>  <PEOE_VSA7>
19.91

>  <PEOE_VSA8>
5.56

>  <PEOE_VSA9>
5.69

>  <PEOE_VSA10>
0

>  <PEOE_VSA11>
0

>  <PEOE_VSA12>
0

>  <PEOE_VSA13>
5.56

>  <SMR_VSA1>
0

>  <SMR_VSA2>
0

>  <SMR_VSA3>
10.2

>  <SMR_VSA4>
0

>  <SMR_VSA5>
13.85

>  <SMR_VSA6>
0

>  <SMR_VSA7>
27.68

>  <SMR_VSA8>
0

>  <SMR_VSA9>
0

>  <SlogP_VSA1>
5.56

>  <SlogP_VSA2>
10.2

>  <SlogP_VSA3>
0

>  <SlogP_VSA4>
13.85

>  <SlogP_VSA5>
11.26

>  <SlogP_VSA6>
10.86

>  <SlogP_VSA7>
0

>  <SlogP_VSA8>
0

>  <SlogP_VSA9>
0

>  <SlogP_VSA10>
0

>  <SlogP_VSA11>
0

>  <EState_VSA1>
0

>  <EState_VSA2>
5.56

>  <EState_VSA3>
5.56

>  <EState_VSA4>
5.69

>  <EState_VSA5>
0

>  <EState_VSA6>
12.99

>  <EState_VSA7>
6.92

>  <EState_VSA8>
10.2

>  <EState_VSA9>
0

>  <EState_VSA10>
4.79

>  <VSA_EState1>
0

>  <VSA_EState2>
10.65

>  <VSA_EState3>
6.06

>  <VSA_EState4>
1.44

>  <VSA_EState5>
0

>  <VSA_EState6>
1.75

>  <VSA_EState7>
0

>  <VSA_EState8>
3.59

>  <VSA_EState9>
0

>  <apol>
18.36

>  <bpol>
9.46

>  <nRing>
1

>  <nHRing>
1

>  <naRing>
1

>  <naHRing>
1

>  <nARing 2>
0

>  <nAHRing 2>
0

>  <nFRing>
0

>  <nFHRing>
0

>  <nFaRing>
0

>  <nFaHRing>
0

>  <nFARing 2>
0

>  <nFAHRing 2>
0

>  <nRot>
0

>  <SLogP>
0.39

>  <SMR>
34.33

>  <TopoPSA(NO)>
45.75

>  <TopoPSA>
45.75

>  <JGI1>
0.28

>  <JGI2>
0.11

>  <JGI3>
0.06

>  <JGI4>
0.1

>  <JGI5>
0

>  <Diameter>
5

>  <Radius>
3

>  <TMWC10>
80.68

>  <TSRW10>
37.84

>  <MW>
124.06

>  <AMW>
7.3

>  <WPath>
84

>  <WPol>
10

>  <Zagreb1>
42

>  <Zagreb2>
46

>  <mZagreb2>
2.03

>  <yes>


>  <nAR-cont>
0.336376

>  <nHA-cont>
0.56070381

>  <MWHBN>
0.269342797

>  <MWHBN-cont>
0.921597723

>  <TPSA-cont>
0.680636591

>  <pka_cont>
0.97

>  <yes.1>


>  <BBB_SCORE>
4.125749577

>  <MMFF94 Energy>
30.289

$$$$
Compound 1638
Actelion Java MolfileCreator 2.0

  0  0  0  0  0  0              0 V3000
M  V30 BEGIN CTAB
M  V30 COUNTS 31 32 0 0 0
M  V30 BEGIN ATOM
M  V30 1 O 0.0 -6.2424 -0.0788 0
M  V30 2 C -0.3021 -5.0905 -0.3333 0
M  V30 3 O -0.484 -4.1085 0.5963 0
M  V30 4 N -0.4889 -4.5842 -1.5848 0
M  V30 5 C -0.9867 -2.939 -0.0746 0 CFG=2
M  V30 6 C -0.7107 -3.181 -1.5458 0
M  V30 7 C -0.3057 -1.6864 0.4636 0
M  V30 8 O -0.805 -0.5545 -0.2466 0
M  V30 9 C -0.2843 0.6669 0.0832 0
M  V30 10 C 0.6615 0.9151 1.0788 0
M  V30 11 C -0.7827 1.7334 -0.6701 0
M  V30 12 C 1.1171 2.2207 1.3183 0
M  V30 13 C -0.3412 3.0433 -0.4466 0
M  V30 14 C 0.5977 3.2797 0.5631 0
M  V30 15 C 2.1033 2.4885 2.4178 0
M  V30 16 C -0.9156 4.1832 -1.2341 0
M  V30 17 H -0.3586 -5.1611 -2.4048 0
M  V30 18 H -2.0681 -2.8846 0.1028 0
M  V30 19 H -1.5504 -2.9073 -2.1899 0
M  V30 20 H 0.1974 -2.6861 -1.904 0
M  V30 21 H -0.5257 -1.5965 1.5349 0
M  V30 22 H 0.7812 -1.7768 0.3398 0
M  V30 23 H 1.0602 0.1124 1.691 0
M  V30 24 H -1.5278 1.5365 -1.4378 0
M  V30 25 H 0.9282 4.2975 0.7634 0
M  V30 26 H 2.7147 3.3679 2.1896 0
M  V30 27 H 2.7871 1.6424 2.5433 0
M  V30 28 H 1.5746 2.6602 3.3605 0
M  V30 29 H -1.8048 4.5753 -0.7308 0
M  V30 30 H -1.1929 3.8604 -2.2431 0
M  V30 31 H -0.1843 4.9912 -1.3418 0
M  V30 END ATOM
M  V30 BEGIN BOND
M  V30 1 2 1 2
M  V30 2 1 2 3
M  V30 3 1 2 4
M  V30 4 1 3 5
M  V30 5 1 4 6
M  V30 6 1 5 7
M  V30 7 1 7 8
M  V30 8 1 8 9
M  V30 9 2 9 10
M  V30 10 1 9 11
M  V30 11 1 10 12
M  V30 12 2 11 13
M  V30 13 2 12 14
M  V30 14 1 12 15
M  V30 15 1 13 16
M  V30 16 1 5 6
M  V30 17 1 13 14
M  V30 18 1 4 17
M  V30 19 1 5 18
M  V30 20 1 6 19
M  V30 21 1 6 20
M  V30 22 1 7 21
M  V30 23 1 7 22
M  V30 24 1 10 23
M  V30 25 1 11 24
M  V30 26 1 14 25
M  V30 27 1 15 26
M  V30 28 1 15 27
M  V30 29 1 15 28
M  V30 30 1 16 29
M  V30 31 1 16 30
M  V30 32 1 16 31
M  V30 END BOND
M  V30 BEGIN COLLECTION
M  V30 MDLV30/STERAC1 ATOMS=(1 5)
M  V30 END COLLECTION
M  V30 END CTAB
M  END
>  <Column 1>
1992

>  <level_0>
2165

>  <index>
2165

>  <Unnamed: 0>
2165

>  <NO.>
2177

>  <Name>
metaxalone

>  <IUPAC_name>
5-[(3-5-dimethylphenoxy)methyl]-1-3-oxazolidin-2-one

>  <SMILES>
Cc1cc(C)cc(OCC2CNC(=O)O2)c1

>  <CID>
15459

>  <logBB>


>  <BBB+/BBB->
BBB+

>  <Inchi>
InChI=1S/C12H15NO3/c1-8-3-9(2)5-10(4-8)15-7-11-6-13-12(14)16-11/h3-5-11H-6-7H2-1-2H3-(H-13-14)

>  <threshold>
-1

>  <reference>
R1|R19|R6|R14|R15|R23|R27|R27|R30|

>  <group>
B

>  <Class>
1

>  <ABC>
12.35

>  <ABCGG>
10.71

>  <nAcid>
0

>  <nBase>
0

>  <nAromAtom>
6

>  <nAromBond>
6

>  <nAtom>
31

>  <nHeavyAtom>
16

>  <nSpiro>
0

>  <nBridgehead>
0

>  <nHetero>
4

>  <nN>
1

>  <nO>
3

>  <nF>
0

>  <BalabanJ>
1.69

>  <BertzCT>
383

>  <nBonds>
32

>  <nBondsO>
17

>  <nBondsS>
25

>  <nBondsD>
1

>  <nBondsT>
0

>  <nBondsA>
6

>  <nBondsM>
7

>  <nBondsKS>
28

>  <nBondsKD>
4

>  <RNCG>
0.28

>  <RPCG>
0.23

>  <FCSP3>
0.42

>  <SZ>
19.67

>  <Sm>
18.42

>  <Sv>
18.97

>  <Sse>
31.31

>  <Sp>
20.09

>  <Si>
35.03

>  <MZ>
0.63

>  <Mm>
0.59

>  <Mv>
0.61

>  <Mse>
1.01

>  <Mp>
0.65

>  <Mi>
1.13

>  <NsCH3>
2

>  <NdCH2>
0

>  <NssCH2>
2

>  <NtCH>
0

>  <NdsCH>
0

>  <NaaCH>
3

>  <NsssCH>
1

>  <NddC>
0

>  <NtsC>
0

>  <NdssC>
1

>  <NaasC>
3

>  <NaaaC>
0

>  <NssssC>
0

>  <NsNH3>
0

>  <NsNH2>
0

>  <NssNH2>
0

>  <NdNH>
0

>  <NssNH>
1

>  <NaaNH>
0

>  <NtN>
0

>  <NsssNH>
0

>  <NdsN>
0

>  <NaaN>
0

>  <NsssN>
0

>  <NddsN>
0

>  <NaasN>
0

>  <NssssN>
0

>  <NsOH>
0

>  <NdO>
1

>  <NssO>
2

>  <NaaO>
0

>  <NsF>
0

>  <NsSiH3>
0

>  <NssSiH2>
0

>  <NsssSiH>
0

>  <NssssSi>
0

>  <NsPH2>
0

>  <NssPH>
0

>  <NsssP>
0

>  <NdsssP>
0

>  <NsssssP>
0

>  <NsSH>
0

>  <NdS>
0

>  <NssS>
0

>  <NaaS>
0

>  <NdssS>
0

>  <NddssS>
0

>  <NsCl>
0

>  <NsBr>
0

>  <NsI>
0

>  <fragCpx>
49.04

>  <fMF>
0.42

>  <nHBAcc>
3

>  <nHBDon>
1

>  <Kier1>
12.46

>  <Kier2>
5.56

>  <Lipinski>
1

>  <GhoseFilter>
1

>  <FilterItLogS>
-3.15

>  <VMcGowan>
168.61

>  <LabuteASA>
94.55

>  <PEOE_VSA1>
14.79

>  <PEOE_VSA2>
0

>  <PEOE_VSA3>
4.79

>  <PEOE_VSA4>
0

>  <PEOE_VSA5>
0

>  <PEOE_VSA6>
6.07

>  <PEOE_VSA7>
37.11

>  <PEOE_VSA8>
0

>  <PEOE_VSA9>
6.54

>  <PEOE_VSA10>
12.36

>  <PEOE_VSA11>
6.1

>  <PEOE_VSA12>
0

>  <PEOE_VSA13>
0

>  <SMR_VSA1>
14.27

>  <SMR_VSA2>
0

>  <SMR_VSA3>
5.32

>  <SMR_VSA4>
0

>  <SMR_VSA5>
19.95

>  <SMR_VSA6>
13.15

>  <SMR_VSA7>
29.33

>  <SMR_VSA8>
0

>  <SMR_VSA9>
5.75

>  <SlogP_VSA1>
10.05

>  <SlogP_VSA2>
25.35

>  <SlogP_VSA3>
4.74

>  <SlogP_VSA4>
13.85

>  <SlogP_VSA5>
11.13

>  <SlogP_VSA6>
18.2

>  <SlogP_VSA7>
0

>  <SlogP_VSA8>
0

>  <SlogP_VSA9>
0

>  <SlogP_VSA10>
4.79

>  <SlogP_VSA11>
5.75

>  <EState_VSA1>
0

>  <EState_VSA2>
12.2

>  <EState_VSA3>
13.15

>  <EState_VSA4>
16.88

>  <EState_VSA5>
0

>  <EState_VSA6>
0

>  <EState_VSA7>
25.98

>  <EState_VSA8>
11.38

>  <EState_VSA9>
9.47

>  <EState_VSA10>
4.79

>  <VSA_EState1>
10.55

>  <VSA_EState2>
10.78

>  <VSA_EState3>
2.59

>  <VSA_EState4>
2.33

>  <VSA_EState5>
0.82

>  <VSA_EState6>
6.03

>  <VSA_EState7>
-0.55

>  <VSA_EState8>
4.96

>  <VSA_EState9>
0

>  <apol>
33.55

>  <bpol>
19.96

>  <nRing>
2

>  <nHRing>
1

>  <naRing>
1

>  <naHRing>
0

>  <nARing 2>
1

>  <nAHRing 2>
1

>  <nFRing>
0

>  <nFHRing>
0

>  <nFaRing>
0

>  <nFaHRing>
0

>  <nFARing 2>
0

>  <nFAHRing 2>
0

>  <nRot>
3

>  <SLogP>
1.79

>  <SMR>
59.68

>  <TopoPSA(NO)>
47.56

>  <TopoPSA>
47.56

>  <JGI1>
0.26

>  <JGI2>
0.05

>  <JGI3>
0.07

>  <JGI4>
0.05

>  <JGI5>
0.01

>  <Diameter>
9

>  <Radius>
5

>  <TMWC10>
102.19

>  <TSRW10>
61.4

>  <MW>
221.11

>  <AMW>
7.13

>  <WPath>
484

>  <WPol>
18

>  <Zagreb1>
80

>  <Zagreb2>
89

>  <mZagreb2>
3.5

>  <yes>


>  <nAR-cont>
0.816016

>  <nHA-cont>
0.954961865

>  <MWHBN>
0.26900218

>  <MWHBN-cont>
0.92236338

>  <TPSA-cont>
0.668001667

>  <pka_cont>
0.97

>  <yes.1>


>  <BBB_SCORE>
4.975526269

>  <MMFF94 Energy>
-8.5518

$$$$
Compound 1639
Actelion Java MolfileCreator 2.0

  0  0  0  0  0  0              0 V3000
M  V30 BEGIN CTAB
M  V30 COUNTS 42 44 0 0 0
M  V30 BEGIN ATOM
M  V30 1 Cl 1.5983 -1.1985 -6.4852 0
M  V30 2 C 0.5234 -1.7862 -5.2741 0
M  V30 3 C 0.7125 -1.4117 -3.9399 0
M  V30 4 C -0.5238 -2.6258 -5.635 0
M  V30 5 C -0.1482 -1.8617 -2.9274 0
M  V30 6 C -1.3848 -3.0964 -4.6506 0
M  V30 7 N 0.0177 -1.5116 -1.5905 0
M  V30 8 C -1.1931 -2.7178 -3.3167 0
M  V30 9 C 1.3141 -1.0053 -1.1086 0
M  V30 10 C -1.1491 -0.9749 -0.8644 0
M  V30 11 C 1.4265 -1.1312 0.4273 0
M  V30 12 C -0.9619 -1.091 0.6673 0
M  V30 13 N 0.3022 -0.4886 1.1476 0
M  V30 14 C 0.4776 -0.6539 2.6071 0
M  V30 15 C -0.4501 0.2114 3.4779 0
M  V30 16 C -0.1047 1.6643 3.4533 0
M  V30 17 N 0.4346 2.2519 4.53 0
M  V30 18 C -0.289 2.5881 2.3979 0
M  V30 19 N 0.5988 3.5305 4.1558 0
M  V30 20 C 0.1781 3.7889 2.8814 0
M  V30 21 C 0.2709 5.133 2.2734 0
M  V30 22 H 1.5339 -0.7416 -3.7064 0
M  V30 23 H -0.669 -2.9183 -6.6707 0
M  V30 24 H -2.2008 -3.7648 -4.9121 0
M  V30 25 H -1.8622 -3.1341 -2.5675 0
M  V30 26 H 1.4327 0.0459 -1.4002 0
M  V30 27 H 2.1395 -1.5786 -1.5481 0
M  V30 28 H -2.0759 -1.4976 -1.1231 0
M  V30 29 H -1.2849 0.0794 -1.1384 0
M  V30 30 H 2.3714 -0.6657 0.733 0
M  V30 31 H 1.4846 -2.1955 0.6933 0
M  V30 32 H -1.0045 -2.1522 0.9472 0
M  V30 33 H -1.8179 -0.5949 1.1366 0
M  V30 34 H 1.5124 -0.4008 2.8749 0
M  V30 35 H 0.3361 -1.7083 2.8795 0
M  V30 36 H -1.5005 0.0807 3.1962 0
M  V30 37 H -0.3763 -0.1535 4.5113 0
M  V30 38 H -0.6981 2.3916 1.4166 0
M  V30 39 H 1.0055 4.1761 4.8243 0
M  V30 40 H -0.3104 5.8589 2.851 0
M  V30 41 H 1.3116 5.4707 2.2406 0
M  V30 42 H -0.1156 5.128 1.2493 0
M  V30 END ATOM
M  V30 BEGIN BOND
M  V30 1 1 1 2
M  V30 2 2 2 3
M  V30 3 1 2 4
M  V30 4 1 3 5
M  V30 5 2 4 6
M  V30 6 1 5 7
M  V30 7 2 5 8
M  V30 8 1 7 9
M  V30 9 1 7 10
M  V30 10 1 9 11
M  V30 11 1 10 12
M  V30 12 1 11 13
M  V30 13 1 13 14
M  V30 14 1 14 15
M  V30 15 1 15 16
M  V30 16 2 16 17
M  V30 17 1 16 18
M  V30 18 1 17 19
M  V30 19 2 18 20
M  V30 20 1 20 21
M  V30 21 1 6 8
M  V30 22 1 12 13
M  V30 23 1 19 20
M  V30 24 1 3 22
M  V30 25 1 4 23
M  V30 26 1 6 24
M  V30 27 1 8 25
M  V30 28 1 9 26
M  V30 29 1 9 27
M  V30 30 1 10 28
M  V30 31 1 10 29
M  V30 32 1 11 30
M  V30 33 1 11 31
M  V30 34 1 12 32
M  V30 35 1 12 33
M  V30 36 1 14 34
M  V30 37 1 14 35
M  V30 38 1 15 36
M  V30 39 1 15 37
M  V30 40 1 18 38
M  V30 41 1 19 39
M  V30 42 1 21 40
M  V30 43 1 21 41
M  V30 44 1 21 42
M  V30 END BOND
M  V30 END CTAB
M  END
>  <Column 1>
1993

>  <level_0>
2166

>  <index>
2166

>  <Unnamed: 0>
2166

>  <NO.>
2178

>  <Name>
mepiprazole

>  <IUPAC_name>
1-(3-chlorophenyl)-4-[2-(5-methyl-1h-pyrazol-3-yl)ethyl]piperazine

>  <SMILES>
Cc1cc(CCN2CCN(c3cccc(Cl)c3)CC2)n[nH]1

>  <CID>
71897

>  <logBB>


>  <BBB+/BBB->
BBB+

>  <Inchi>
InChI=1S/C16H21ClN4/c1-13-11-15(19-18-13)5-6-20-7-9-21(10-8-20)16-4-2-3-14(17)12-16/h2-4-11-12H-5-10H2-1H3-(H-18-19)

>  <threshold>
-1

>  <reference>
R1|R13|R19|R6|R24|R27|R27|R27|R30|R30|

>  <group>
B

>  <Class>
1

>  <ABC>
16.44

>  <ABCGG>
12.71

>  <nAcid>
0

>  <nBase>
1

>  <nAromAtom>
11

>  <nAromBond>
11

>  <nAtom>
42

>  <nHeavyAtom>
21

>  <nSpiro>
0

>  <nBridgehead>
0

>  <nHetero>
5

>  <nN>
4

>  <nO>
0

>  <nF>
0

>  <BalabanJ>
1.35

>  <BertzCT>
587.47

>  <nBonds>
44

>  <nBondsO>
23

>  <nBondsS>
33

>  <nBondsD>
0

>  <nBondsT>
0

>  <nBondsA>
11

>  <nBondsM>
11

>  <nBondsKS>
39

>  <nBondsKD>
5

>  <RNCG>
0.26

>  <RPCG>
0.13

>  <FCSP3>
0.44

>  <SZ>
27

>  <Sm>
25.38

>  <Sv>
25.81

>  <Sse>
41.74

>  <Sp>
28.32

>  <Si>
47.68

>  <MZ>
0.64

>  <Mm>
0.6

>  <Mv>
0.61

>  <Mse>
0.99

>  <Mp>
0.67

>  <Mi>
1.14

>  <NsCH3>
1

>  <NdCH2>
0

>  <NssCH2>
6

>  <NtCH>
0

>  <NdsCH>
0

>  <NaaCH>
5

>  <NsssCH>
0

>  <NddC>
0

>  <NtsC>
0

>  <NdssC>
0

>  <NaasC>
4

>  <NaaaC>
0

>  <NssssC>
0

>  <NsNH3>
0

>  <NsNH2>
0

>  <NssNH2>
0

>  <NdNH>
0

>  <NssNH>
0

>  <NaaNH>
1

>  <NtN>
0

>  <NsssNH>
0

>  <NdsN>
0

>  <NaaN>
1

>  <NsssN>
2

>  <NddsN>
0

>  <NaasN>
0

>  <NssssN>
0

>  <NsOH>
0

>  <NdO>
0

>  <NssO>
0

>  <NaaO>
0

>  <NsF>
0

>  <NsSiH3>
0

>  <NssSiH2>
0

>  <NsssSiH>
0

>  <NssssSi>
0

>  <NsPH2>
0

>  <NssPH>
0

>  <NsssP>
0

>  <NdsssP>
0

>  <NsssssP>
0

>  <NsSH>
0

>  <NdS>
0

>  <NssS>
0

>  <NaaS>
0

>  <NdssS>
0

>  <NddssS>
0

>  <NsCl>
1

>  <NsBr>
0

>  <NsI>
0

>  <fragCpx>
109.05

>  <fMF>
0.45

>  <nHBAcc>
3

>  <nHBDon>
1

>  <Kier1>
15.88

>  <Kier2>
7.51

>  <Lipinski>
1

>  <GhoseFilter>
1

>  <FilterItLogS>
-4.58

>  <VMcGowan>
234.38

>  <LabuteASA>
130.26

>  <PEOE_VSA1>
4.9

>  <PEOE_VSA2>
10

>  <PEOE_VSA3>
0

>  <PEOE_VSA4>
5.1

>  <PEOE_VSA5>
0

>  <PEOE_VSA6>
17.67

>  <PEOE_VSA7>
31.19

>  <PEOE_VSA8>
55.55

>  <PEOE_VSA9>
5.69

>  <PEOE_VSA10>
0

>  <PEOE_VSA11>
0

>  <PEOE_VSA12>
0

>  <PEOE_VSA13>
0

>  <SMR_VSA1>
0

>  <SMR_VSA2>
0

>  <SMR_VSA3>
15.1

>  <SMR_VSA4>
0

>  <SMR_VSA5>
13.34

>  <SMR_VSA6>
37.62

>  <SMR_VSA7>
46.74

>  <SMR_VSA8>
0

>  <SMR_VSA9>
0

>  <SlogP_VSA1>
4.9

>  <SlogP_VSA2>
47.82

>  <SlogP_VSA3>
6.42

>  <SlogP_VSA4>
6.92

>  <SlogP_VSA5>
11.39

>  <SlogP_VSA6>
30.33

>  <SlogP_VSA7>
5.02

>  <SlogP_VSA8>
0

>  <SlogP_VSA9>
0

>  <SlogP_VSA10>
5.69

>  <SlogP_VSA11>
0

>  <EState_VSA1>
0

>  <EState_VSA2>
0

>  <EState_VSA3>
0

>  <EState_VSA4>
55.56

>  <EState_VSA5>
5.69

>  <EState_VSA6>
0

>  <EState_VSA7>
25.12

>  <EState_VSA8>
32.13

>  <EState_VSA9>
11.6

>  <EState_VSA10>
0

>  <VSA_EState1>
0

>  <VSA_EState2>
4.91

>  <VSA_EState3>
8.11

>  <VSA_EState4>
3.52

>  <VSA_EState5>
0

>  <VSA_EState6>
10.25

>  <VSA_EState7>
1.02

>  <VSA_EState8>
7.42

>  <VSA_EState9>
0

>  <apol>
47.3

>  <bpol>
25.57

>  <nRing>
3

>  <nHRing>
2

>  <naRing>
2

>  <naHRing>
1

>  <nARing 2>
1

>  <nAHRing 2>
1

>  <nFRing>
0

>  <nFHRing>
0

>  <nFaRing>
0

>  <nFaHRing>
0

>  <nFARing 2>
0

>  <nFAHRing 2>
0

>  <nRot>
4

>  <SLogP>
2.74

>  <SMR>
87.13

>  <TopoPSA(NO)>
35.16

>  <TopoPSA>
35.16

>  <JGI1>
0.2

>  <JGI2>
0.06

>  <JGI3>
0.03

>  <JGI4>
0.03

>  <JGI5>
0.02

>  <Diameter>
13

>  <Radius>
7

>  <TMWC10>
116.36

>  <TSRW10>
68.02

>  <MW>
304.15

>  <AMW>
7.24

>  <WPath>
1091

>  <WPol>
27

>  <Zagreb1>
108

>  <Zagreb2>
123

>  <mZagreb2>
4.61

>  <yes>


>  <nAR-cont>
0.816016

>  <nHA-cont>
0.994529749

>  <MWHBN>
0.229359156

>  <MWHBN-cont>
0.987406432

>  <TPSA-cont>
0.754561367

>  <pka_cont>
0.97

>  <yes.1>


>  <BBB_SCORE>
5.285778132

>  <MMFF94 Energy>
112.67

$$$$
Compound 1640
Actelion Java MolfileCreator 2.0

  0  0  0  0  0  0              0 V3000
M  V30 BEGIN CTAB
M  V30 COUNTS 34 34 0 0 0
M  V30 BEGIN ATOM
M  V30 1 N 2.2428 1.3142 -2.0106 0
M  V30 2 C 1.2707 0.9848 -1.0721 0
M  V30 3 C 1.9191 2.1269 -3.176 0
M  V30 4 C 3.616 0.8482 -1.87 0
M  V30 5 C 1.5567 0.2085 0.0646 0
M  V30 6 C -0.0574 1.411 -1.1928 0
M  V30 7 C 0.5873 -0.1443 1.0329 0
M  V30 8 C -1.0388 1.0741 -0.2509 0
M  V30 9 C -0.7413 0.2791 0.8634 0
M  V30 10 C 1.0328 -0.9467 2.2257 0
M  V30 11 C -1.8549 -0.0612 1.8355 0
M  V30 12 C -2.8127 -1.2121 1.4318 0 CFG=1
M  V30 13 N -3.5508 -0.9637 0.1879 0
M  V30 14 C -2.116 -2.5668 1.3286 0
M  V30 15 H 1.1664 1.6322 -3.7997 0
M  V30 16 H 2.7943 2.2987 -3.812 0
M  V30 17 H 1.5503 3.1134 -2.8739 0
M  V30 18 H 4.0663 1.2333 -0.9483 0
M  V30 19 H 4.2504 1.1864 -2.6965 0
M  V30 20 H 3.6585 -0.2464 -1.8667 0
M  V30 21 H 2.5723 -0.1424 0.2276 0
M  V30 22 H -0.371 2.0261 -2.0307 0
M  V30 23 H -2.0473 1.4524 -0.4023 0
M  V30 24 H 0.8442 -0.3915 3.15 0
M  V30 25 H 2.1069 -1.1592 2.1919 0
M  V30 26 H 0.516 -1.9082 2.2606 0
M  V30 27 H -1.4365 -0.285 2.8238 0
M  V30 28 H -2.4496 0.8499 1.9943 0
M  V30 29 H -3.5626 -1.2934 2.2288 0
M  V30 30 H -3.9684 -0.0354 0.2178 0
M  V30 31 H -2.8905 -0.9524 -0.5913 0
M  V30 32 H -1.3572 -2.5805 0.5392 0
M  V30 33 H -1.6342 -2.8252 2.2771 0
M  V30 34 H -2.839 -3.3607 1.1075 0
M  V30 END ATOM
M  V30 BEGIN BOND
M  V30 1 1 1 2
M  V30 2 1 1 3
M  V30 3 1 1 4
M  V30 4 2 2 5
M  V30 5 1 2 6
M  V30 6 1 5 7
M  V30 7 2 6 8
M  V30 8 2 7 9
M  V30 9 1 7 10
M  V30 10 1 9 11
M  V30 11 1 11 12
M  V30 12 1 12 13
M  V30 13 1 12 14
M  V30 14 1 8 9
M  V30 15 1 3 15
M  V30 16 1 3 16
M  V30 17 1 3 17
M  V30 18 1 4 18
M  V30 19 1 4 19
M  V30 20 1 4 20
M  V30 21 1 5 21
M  V30 22 1 6 22
M  V30 23 1 8 23
M  V30 24 1 10 24
M  V30 25 1 10 25
M  V30 26 1 10 26
M  V30 27 1 11 27
M  V30 28 1 11 28
M  V30 29 1 12 29
M  V30 30 1 13 30
M  V30 31 1 13 31
M  V30 32 1 14 32
M  V30 33 1 14 33
M  V30 34 1 14 34
M  V30 END BOND
M  V30 BEGIN COLLECTION
M  V30 MDLV30/STEABS ATOMS=(1 12)
M  V30 END COLLECTION
M  V30 END CTAB
M  END
>  <Column 1>
1994

>  <level_0>
2167

>  <index>
2167

>  <Unnamed: 0>
2167

>  <NO.>
2179

>  <Name>
amiflamine

>  <IUPAC_name>
4-[(2s)-2-aminopropyl]-n-n-3-trimethylaniline;(2r-3r)-2-3-dihydroxybutanedioic acid

>  <SMILES>
Cc1cc(N(C)C)ccc1C[C@H](C)N

>  <CID>
71221

>  <logBB>


>  <BBB+/BBB->
BBB+

>  <Inchi>
InChI=1S/C12H20N2/c1-9-7-12(14(3)4)6-5-11(9)8-10(2)13/h5-7-10H-8-13H2-1-4H3/t10-/m0/s1

>  <threshold>
-1

>  <reference>
R1|R13|R27|R27|R30|R30|

>  <group>
B

>  <Class>
-1

>  <ABC>
10.37

>  <ABCGG>
9.55

>  <nAcid>
0

>  <nBase>
1

>  <nAromAtom>
6

>  <nAromBond>
6

>  <nAtom>
34

>  <nHeavyAtom>
14

>  <nSpiro>
0

>  <nBridgehead>
0

>  <nHetero>
2

>  <nN>
2

>  <nO>
0

>  <nF>
0

>  <BalabanJ>
2.39

>  <BertzCT>
303.19

>  <nBonds>
34

>  <nBondsO>
14

>  <nBondsS>
28

>  <nBondsD>
0

>  <nBondsT>
0

>  <nBondsA>
6

>  <nBondsM>
6

>  <nBondsKS>
31

>  <nBondsKD>
3

>  <RNCG>
0.37

>  <RPCG>
0.12

>  <FCSP3>
0.5

>  <SZ>
17.67

>  <Sm>
16.01

>  <Sv>
18.93

>  <Sse>
33.2

>  <Sp>
21.3

>  <Si>
38.73

>  <MZ>
0.52

>  <Mm>
0.47

>  <Mv>
0.56

>  <Mse>
0.98

>  <Mp>
0.63

>  <Mi>
1.14

>  <NsCH3>
4

>  <NdCH2>
0

>  <NssCH2>
1

>  <NtCH>
0

>  <NdsCH>
0

>  <NaaCH>
3

>  <NsssCH>
1

>  <NddC>
0

>  <NtsC>
0

>  <NdssC>
0

>  <NaasC>
3

>  <NaaaC>
0

>  <NssssC>
0

>  <NsNH3>
0

>  <NsNH2>
1

>  <NssNH2>
0

>  <NdNH>
0

>  <NssNH>
0

>  <NaaNH>
0

>  <NtN>
0

>  <NsssNH>
0

>  <NdsN>
0

>  <NaaN>
0

>  <NsssN>
1

>  <NddsN>
0

>  <NaasN>
0

>  <NssssN>
0

>  <NsOH>
0

>  <NdO>
0

>  <NssO>
0

>  <NaaO>
0

>  <NsF>
0

>  <NsSiH3>
0

>  <NssSiH2>
0

>  <NsssSiH>
0

>  <NssssSi>
0

>  <NsPH2>
0

>  <NssPH>
0

>  <NsssP>
0

>  <NdsssP>
0

>  <NsssssP>
0

>  <NsSH>
0

>  <NdS>
0

>  <NssS>
0

>  <NaaS>
0

>  <NdssS>
0

>  <NddssS>
0

>  <NsCl>
0

>  <NsBr>
0

>  <NsI>
0

>  <fragCpx>
14.02

>  <fMF>
0.18

>  <nHBAcc>
2

>  <nHBDon>
1

>  <Kier1>
12.07

>  <Kier2>
5.19

>  <Lipinski>
1

>  <GhoseFilter>
1

>  <FilterItLogS>
-2.93

>  <VMcGowan>
176.14

>  <LabuteASA>
86.72

>  <PEOE_VSA1>
10.63

>  <PEOE_VSA2>
0

>  <PEOE_VSA3>
0

>  <PEOE_VSA4>
0

>  <PEOE_VSA5>
0

>  <PEOE_VSA6>
6.07

>  <PEOE_VSA7>
43.53

>  <PEOE_VSA8>
25.82

>  <PEOE_VSA9>
0

>  <PEOE_VSA10>
0

>  <PEOE_VSA11>
0

>  <PEOE_VSA12>
0

>  <PEOE_VSA13>
0

>  <SMR_VSA1>
0

>  <SMR_VSA2>
0

>  <SMR_VSA3>
0

>  <SMR_VSA4>
5.73

>  <SMR_VSA5>
26.31

>  <SMR_VSA6>
19

>  <SMR_VSA7>
29.33

>  <SMR_VSA8>
0

>  <SMR_VSA9>
0

>  <SlogP_VSA1>
10.63

>  <SlogP_VSA2>
20.14

>  <SlogP_VSA3>
6.42

>  <SlogP_VSA4>
6.92

>  <SlogP_VSA5>
18.05

>  <SlogP_VSA6>
18.2

>  <SlogP_VSA7>
0

>  <SlogP_VSA8>
0

>  <SlogP_VSA9>
0

>  <SlogP_VSA10>
5.69

>  <SlogP_VSA11>
0

>  <EState_VSA1>
0

>  <EState_VSA2>
6.04

>  <EState_VSA3>
0

>  <EState_VSA4>
6.42

>  <EState_VSA5>
16.81

>  <EState_VSA6>
0

>  <EState_VSA7>
6.92

>  <EState_VSA8>
44.12

>  <EState_VSA9>
5.73

>  <EState_VSA10>
0

>  <VSA_EState1>
0

>  <VSA_EState2>
2.11

>  <VSA_EState3>
0

>  <VSA_EState4>
9.71

>  <VSA_EState5>
0

>  <VSA_EState6>
6.76

>  <VSA_EState7>
0.96

>  <VSA_EState8>
4.18

>  <VSA_EState9>
4.11

>  <apol>
35.58

>  <bpol>
21.2

>  <nRing>
1

>  <nHRing>
0

>  <naRing>
1

>  <naHRing>
0

>  <nARing 2>
0

>  <nAHRing 2>
0

>  <nFRing>
0

>  <nFHRing>
0

>  <nFaRing>
0

>  <nFaHRing>
0

>  <nFARing 2>
0

>  <nFAHRing 2>
0

>  <nRot>
3

>  <SLogP>
1.95

>  <SMR>
62.86

>  <TopoPSA(NO)>
29.26

>  <TopoPSA>
29.26

>  <JGI1>
0.29

>  <JGI2>
0.09

>  <JGI3>
0.05

>  <JGI4>
0.07

>  <JGI5>
0.03

>  <Diameter>
8

>  <Radius>
4

>  <TMWC10>
95.57

>  <TSRW10>
45.09

>  <MW>
192.16

>  <AMW>
5.65

>  <WPath>
316

>  <WPol>
18

>  <Zagreb1>
66

>  <Zagreb2>
73

>  <mZagreb2>
3.14

>  <yes>


>  <nAR-cont>
0.336376

>  <nHA-cont>
0.887625254

>  <MWHBN>
0.216416196

>  <MWHBN-cont>
0.996974667

>  <TPSA-cont>
0.795747031

>  <pka_cont>
0.97

>  <yes.1>


>  <BBB_SCORE>
4.795957315

>  <MMFF94 Energy>
38.394

$$$$
Compound 1641
Actelion Java MolfileCreator 2.0

  0  0  0  0  0  0              0 V3000
M  V30 BEGIN CTAB
M  V30 COUNTS 36 38 0 0 0
M  V30 BEGIN ATOM
M  V30 1 S -0.6535 -0.7352 -2.6161 0
M  V30 2 O -0.9879 -0.1622 -3.9027 0
M  V30 3 O 0.5626 -1.4934 -2.4138 0
M  V30 4 N -0.6744 0.5132 -1.4706 0
M  V30 5 C -2.0193 -1.7033 -2.0832 0
M  V30 6 C -0.6471 0.0405 -0.1117 0
M  V30 7 C -0.0236 1.7669 -1.881 0
M  V30 8 C -2.3389 -1.6832 -0.7222 0
M  V30 9 C -2.7854 -2.4021 -3.0219 0
M  V30 10 C -1.4981 -0.9458 0.2462 0
M  V30 11 C 0.2664 0.6242 0.9188 0
M  V30 12 C -3.4534 -2.4281 -0.3096 0
M  V30 13 C -3.8913 -3.1281 -2.5891 0
M  V30 14 O -1.6376 -1.3865 1.5552 0
M  V30 15 O -0.1517 0.8473 2.0523 0
M  V30 16 N 1.5564 0.7661 0.4792 0
M  V30 17 C -4.2236 -3.1427 -1.2348 0
M  V30 18 C 2.59 1.3071 1.2088 0
M  V30 19 N 3.7966 1.4328 0.6469 0
M  V30 20 C 2.5969 1.7948 2.5338 0
M  V30 21 O 4.6095 2.0026 1.609 0
M  V30 22 C 3.8865 2.2178 2.7389 0
M  V30 23 C 4.6047 2.8238 3.8728 0
M  V30 24 H -0.0945 2.5212 -1.091 0
M  V30 25 H -0.5343 2.1837 -2.7548 0
M  V30 26 H 1.029 1.6076 -2.1299 0
M  V30 27 H -2.5267 -2.3805 -4.0781 0
M  V30 28 H -3.7354 -2.4603 0.7415 0
M  V30 29 H -4.4958 -3.6812 -3.3041 0
M  V30 30 H -1.2178 -0.7362 2.1594 0
M  V30 31 H 1.8327 0.4068 -0.4268 0
M  V30 32 H -5.0851 -3.7122 -0.8933 0
M  V30 33 H 1.7852 1.8346 3.2444 0
M  V30 34 H 5.4394 2.1876 4.1826 0
M  V30 35 H 3.9408 2.9567 4.7326 0
M  V30 36 H 5.0023 3.8047 3.5951 0
M  V30 END ATOM
M  V30 BEGIN BOND
M  V30 1 2 1 2
M  V30 2 2 1 3
M  V30 3 1 1 4
M  V30 4 1 1 5
M  V30 5 1 4 6
M  V30 6 1 4 7
M  V30 7 2 5 8
M  V30 8 1 5 9
M  V30 9 2 6 10
M  V30 10 1 6 11
M  V30 11 1 8 12
M  V30 12 2 9 13
M  V30 13 1 10 14
M  V30 14 2 11 15
M  V30 15 1 11 16
M  V30 16 2 12 17
M  V30 17 1 16 18
M  V30 18 2 18 19
M  V30 19 1 18 20
M  V30 20 1 19 21
M  V30 21 2 20 22
M  V30 22 1 22 23
M  V30 23 1 8 10
M  V30 24 1 13 17
M  V30 25 1 21 22
M  V30 26 1 7 24
M  V30 27 1 7 25
M  V30 28 1 7 26
M  V30 29 1 9 27
M  V30 30 1 12 28
M  V30 31 1 13 29
M  V30 32 1 14 30
M  V30 33 1 16 31
M  V30 34 1 17 32
M  V30 35 1 20 33
M  V30 36 1 23 34
M  V30 37 1 23 35
M  V30 38 1 23 36
M  V30 END BOND
M  V30 END CTAB
M  END
>  <Column 1>
1995

>  <level_0>
2168

>  <index>
2168

>  <Unnamed: 0>
2168

>  <NO.>
2180

>  <Name>
brl52580

>  <IUPAC_name>
4-hydroxy-2-methyl-n-(5-methyl-1-2-oxazol-3-yl)-1-1-dioxo-1lambda6-2-benzothiazine-3-carboxamide

>  <SMILES>
Cc1cc(NC(=O)C2=C(O)c3ccccc3S(=O)(=O)N2C)no1

>  <CID>
54677972

>  <logBB>


>  <BBB+/BBB->
BBB-

>  <Inchi>
InChI=1S/C14H13N3O5S/c1-8-7-11(16-22-8)15-14(19)12-13(18)9-5-3-4-6-10(9)23(20-21)17(12)2/h3-7-18H-1-2H3-(H-15-16-19)

>  <threshold>
-1

>  <reference>
R1|R13|R19|R28|R9|R14|R24|R27|R27|R30|R36|

>  <group>
B

>  <Class>
1

>  <ABC>
18.11

>  <ABCGG>
15.62

>  <nAcid>
0

>  <nBase>
0

>  <nAromAtom>
11

>  <nAromBond>
11

>  <nAtom>
36

>  <nHeavyAtom>
23

>  <nSpiro>
0

>  <nBridgehead>
0

>  <nHetero>
9

>  <nN>
3

>  <nO>
5

>  <nF>
0

>  <BalabanJ>
1.74

>  <BertzCT>
929.39

>  <nBonds>
38

>  <nBondsO>
25

>  <nBondsS>
23

>  <nBondsD>
4

>  <nBondsT>
0

>  <nBondsA>
11

>  <nBondsM>
15

>  <nBondsKS>
29

>  <nBondsKD>
9

>  <RNCG>
0.21

>  <RPCG>
0.12

>  <FCSP3>
0.14

>  <SZ>
29

>  <Sm>
27.92

>  <Sv>
24.56

>  <Sse>
37.49

>  <Sp>
25.3

>  <Si>
40.54

>  <MZ>
0.81

>  <Mm>
0.78

>  <Mv>
0.68

>  <Mse>
1.04

>  <Mp>
0.7

>  <Mi>
1.13

>  <NsCH3>
2

>  <NdCH2>
0

>  <NssCH2>
0

>  <NtCH>
0

>  <NdsCH>
0

>  <NaaCH>
5

>  <NsssCH>
0

>  <NddC>
0

>  <NtsC>
0

>  <NdssC>
3

>  <NaasC>
4

>  <NaaaC>
0

>  <NssssC>
0

>  <NsNH3>
0

>  <NsNH2>
0

>  <NssNH2>
0

>  <NdNH>
0

>  <NssNH>
1

>  <NaaNH>
0

>  <NtN>
0

>  <NsssNH>
0

>  <NdsN>
0

>  <NaaN>
1

>  <NsssN>
1

>  <NddsN>
0

>  <NaasN>
0

>  <NssssN>
0

>  <NsOH>
1

>  <NdO>
3

>  <NssO>
0

>  <NaaO>
1

>  <NsF>
0

>  <NsSiH3>
0

>  <NssSiH2>
0

>  <NsssSiH>
0

>  <NssssSi>
0

>  <NsPH2>
0

>  <NssPH>
0

>  <NsssP>
0

>  <NdsssP>
0

>  <NsssssP>
0

>  <NsSH>
0

>  <NdS>
0

>  <NssS>
0

>  <NaaS>
0

>  <NdssS>
0

>  <NddssS>
1

>  <NsCl>
0

>  <NsBr>
0

>  <NsI>
0

>  <fragCpx>
119.09

>  <fMF>
0.47

>  <nHBAcc>
6

>  <nHBDon>
2

>  <Kier1>
17.81

>  <Kier2>
6.72

>  <Lipinski>
1

>  <GhoseFilter>
1

>  <FilterItLogS>
-2.95

>  <VMcGowan>
221.08

>  <LabuteASA>
131.61

>  <PEOE_VSA1>
14.95

>  <PEOE_VSA2>
9.1

>  <PEOE_VSA3>
8.42

>  <PEOE_VSA4>
0

>  <PEOE_VSA5>
0

>  <PEOE_VSA6>
17.29

>  <PEOE_VSA7>
19.06

>  <PEOE_VSA8>
18.68

>  <PEOE_VSA9>
4.9

>  <PEOE_VSA10>
5.76

>  <PEOE_VSA11>
17.27

>  <PEOE_VSA12>
0

>  <PEOE_VSA13>
15.93

>  <SMR_VSA1>
22.84

>  <SMR_VSA2>
0

>  <SMR_VSA3>
9.46

>  <SMR_VSA4>
0

>  <SMR_VSA5>
11.82

>  <SMR_VSA6>
12.36

>  <SMR_VSA7>
47.35

>  <SMR_VSA8>
0

>  <SMR_VSA9>
0

>  <SlogP_VSA1>
5.32

>  <SlogP_VSA2>
35.94

>  <SlogP_VSA3>
14.82

>  <SlogP_VSA4>
6.92

>  <SlogP_VSA5>
11.32

>  <SlogP_VSA6>
45.45

>  <SlogP_VSA7>
0

>  <SlogP_VSA8>
5.76

>  <SlogP_VSA9>
0

>  <SlogP_VSA10>
5.82

>  <SlogP_VSA11>
0

>  <EState_VSA1>
21.69

>  <EState_VSA2>
21.97

>  <EState_VSA3>
5.76

>  <EState_VSA4>
4.31

>  <EState_VSA5>
25.25

>  <EState_VSA6>
19.06

>  <EState_VSA7>
0

>  <EState_VSA8>
10.47

>  <EState_VSA9>
4.52

>  <EState_VSA10>
18.32

>  <VSA_EState1>
30.55

>  <VSA_EState2>
12.32

>  <VSA_EState3>
16.34

>  <VSA_EState4>
-0.31

>  <VSA_EState5>
-0.63

>  <VSA_EState6>
7.39

>  <VSA_EState7>
0

>  <VSA_EState8>
1.65

>  <VSA_EState9>
-2.73

>  <apol>
42.26

>  <bpol>
24.58

>  <nRing>
3

>  <nHRing>
2

>  <naRing>
2

>  <naHRing>
1

>  <nARing 2>
1

>  <nAHRing 2>
1

>  <nFRing>
1

>  <nFHRing>
1

>  <nFaRing>
0

>  <nFaHRing>
0

>  <nFARing 2>
1

>  <nFAHRing 2>
1

>  <nRot>
2

>  <SLogP>
1.48

>  <SMR>
80.81

>  <TopoPSA(NO)>
112.74

>  <TopoPSA>
121.12

>  <JGI1>
0.24

>  <JGI2>
0.1

>  <JGI3>
0.08

>  <JGI4>
0.06

>  <JGI5>
0.03

>  <Diameter>
11

>  <Radius>
6

>  <TMWC10>
124.39

>  <TSRW10>
71.56

>  <MW>
335.06

>  <AMW>
9.31

>  <WPath>
1115

>  <WPol>
41

>  <Zagreb1>
126

>  <Zagreb2>
153

>  <mZagreb2>
4.89

>  <yes>


>  <nAR-cont>
0.816016

>  <nHA-cont>
0.967789328

>  <MWHBN>
0.437047555

>  <MWHBN-cont>
0.333239152

>  <TPSA-cont>
0

>  <pka_cont>
0.97

>  <yes.1>


>  <BBB_SCORE>
2.768664055

>  <MMFF94 Energy>
-18.086

$$$$
Compound 1642
Actelion Java MolfileCreator 2.0

  0  0  0  0  0  0              0 V3000
M  V30 BEGIN CTAB
M  V30 COUNTS 31 32 0 0 0
M  V30 BEGIN ATOM
M  V30 1 O 0.0 -1.4216 0.9475 0
M  V30 2 C -0.1341 -0.3299 0.412 0
M  V30 3 N 0.5383 0.1531 -0.6826 0
M  V30 4 C -1.1368 0.6232 0.9472 0
M  V30 5 C 1.5214 -0.5222 -1.3682 0
M  V30 6 C -2.5045 0.3852 0.7022 0
M  V30 7 C -0.7091 1.7509 1.6787 0
M  V30 8 N 2.1144 0.0571 -2.418 0
M  V30 9 C 2.05 -1.8104 -1.137 0
M  V30 10 C -3.4431 1.3043 1.1892 0
M  V30 11 C -2.9738 -0.8305 -0.0474 0
M  V30 12 C -1.6744 2.6581 2.1356 0
M  V30 13 C 0.743 2.0117 1.9684 0
M  V30 14 O 3.0418 -0.8563 -2.8846 0
M  V30 15 C 2.9997 -1.9742 -2.1138 0
M  V30 16 C -3.0299 2.4348 1.8939 0
M  V30 17 C 3.9301 -3.0568 -2.4741 0
M  V30 18 H 0.3238 1.0688 -1.0535 0
M  V30 19 H 1.78 -2.5204 -0.3697 0
M  V30 20 H -4.507 1.1462 1.0233 0
M  V30 21 H -2.7696 -1.736 0.5321 0
M  V30 22 H -4.0521 -0.7918 -0.2359 0
M  V30 23 H -2.478 -0.8981 -1.021 0
M  V30 24 H -1.3785 3.5434 2.6954 0
M  V30 25 H 1.2498 2.373 1.0685 0
M  V30 26 H 0.8615 2.7696 2.7504 0
M  V30 27 H 1.238 1.1041 2.3282 0
M  V30 28 H -3.7693 3.1416 2.264 0
M  V30 29 H 4.9655 -2.7078 -2.4169 0
M  V30 30 H 3.7382 -3.404 -3.4939 0
M  V30 31 H 3.8207 -3.9102 -1.7979 0
M  V30 END ATOM
M  V30 BEGIN BOND
M  V30 1 2 1 2
M  V30 2 1 2 3
M  V30 3 1 2 4
M  V30 4 1 3 5
M  V30 5 2 4 6
M  V30 6 1 4 7
M  V30 7 2 5 8
M  V30 8 1 5 9
M  V30 9 1 6 10
M  V30 10 1 6 11
M  V30 11 2 7 12
M  V30 12 1 7 13
M  V30 13 1 8 14
M  V30 14 2 9 15
M  V30 15 2 10 16
M  V30 16 1 15 17
M  V30 17 1 12 16
M  V30 18 1 14 15
M  V30 19 1 3 18
M  V30 20 1 9 19
M  V30 21 1 10 20
M  V30 22 1 11 21
M  V30 23 1 11 22
M  V30 24 1 11 23
M  V30 25 1 12 24
M  V30 26 1 13 25
M  V30 27 1 13 26
M  V30 28 1 13 27
M  V30 29 1 16 28
M  V30 30 1 17 29
M  V30 31 1 17 30
M  V30 32 1 17 31
M  V30 END BOND
M  V30 END CTAB
M  END
>  <Column 1>
1996

>  <level_0>
2169

>  <index>
2169

>  <Unnamed: 0>
2169

>  <NO.>
2181

>  <Name>
soretolide

>  <IUPAC_name>
2-6-dimethyl-n-(5-methyl-1-2-oxazol-3-yl)benzamide

>  <SMILES>
Cc1cc(NC(=O)c2c(C)cccc2C)no1

>  <CID>
198730

>  <logBB>


>  <BBB+/BBB->
BBB+

>  <Inchi>
InChI=1S/C13H14N2O2/c1-8-5-4-6-9(2)12(8)13(16)14-11-7-10(3)17-15-11/h4-7H-1-3H3-(H-14-15-16)

>  <threshold>
-1

>  <reference>
R1|R13|R19|R6|R24|R27|R27|R27|R30|R30|

>  <group>
B

>  <Class>
1

>  <ABC>
13.04

>  <ABCGG>
11.82

>  <nAcid>
0

>  <nBase>
0

>  <nAromAtom>
11

>  <nAromBond>
11

>  <nAtom>
31

>  <nHeavyAtom>
17

>  <nSpiro>
0

>  <nBridgehead>
0

>  <nHetero>
4

>  <nN>
2

>  <nO>
2

>  <nF>
0

>  <BalabanJ>
1.87

>  <BertzCT>
538.05

>  <nBonds>
32

>  <nBondsO>
18

>  <nBondsS>
20

>  <nBondsD>
1

>  <nBondsT>
0

>  <nBondsA>
11

>  <nBondsM>
12

>  <nBondsKS>
26

>  <nBondsKD>
6

>  <RNCG>
0.27

>  <RPCG>
0.19

>  <FCSP3>
0.23

>  <SZ>
20.33

>  <Sm>
19.17

>  <Sv>
19.74

>  <Sse>
31.2

>  <Sp>
20.87

>  <Si>
34.91

>  <MZ>
0.66

>  <Mm>
0.62

>  <Mv>
0.64

>  <Mse>
1.01

>  <Mp>
0.67

>  <Mi>
1.13

>  <NsCH3>
3

>  <NdCH2>
0

>  <NssCH2>
0

>  <NtCH>
0

>  <NdsCH>
0

>  <NaaCH>
4

>  <NsssCH>
0

>  <NddC>
0

>  <NtsC>
0

>  <NdssC>
1

>  <NaasC>
5

>  <NaaaC>
0

>  <NssssC>
0

>  <NsNH3>
0

>  <NsNH2>
0

>  <NssNH2>
0

>  <NdNH>
0

>  <NssNH>
1

>  <NaaNH>
0

>  <NtN>
0

>  <NsssNH>
0

>  <NdsN>
0

>  <NaaN>
1

>  <NsssN>
0

>  <NddsN>
0

>  <NaasN>
0

>  <NssssN>
0

>  <NsOH>
0

>  <NdO>
1

>  <NssO>
0

>  <NaaO>
1

>  <NsF>
0

>  <NsSiH3>
0

>  <NssSiH2>
0

>  <NsssSiH>
0

>  <NssssSi>
0

>  <NsPH2>
0

>  <NssPH>
0

>  <NsssP>
0

>  <NdsssP>
0

>  <NsssssP>
0

>  <NsSH>
0

>  <NdS>
0

>  <NssS>
0

>  <NaaS>
0

>  <NdssS>
0

>  <NddssS>
0

>  <NsCl>
0

>  <NsBr>
0

>  <NsI>
0

>  <fragCpx>
52.04

>  <fMF>
0.42

>  <nHBAcc>
3

>  <nHBDon>
1

>  <Kier1>
13.43

>  <Kier2>
5.76

>  <Lipinski>
1

>  <GhoseFilter>
1

>  <FilterItLogS>
-4.32

>  <VMcGowan>
178.21

>  <LabuteASA>
99.62

>  <PEOE_VSA1>
9.84

>  <PEOE_VSA2>
4.79

>  <PEOE_VSA3>
0

>  <PEOE_VSA4>
0

>  <PEOE_VSA5>
0

>  <PEOE_VSA6>
23.36

>  <PEOE_VSA7>
31.9

>  <PEOE_VSA8>
11.63

>  <PEOE_VSA9>
0

>  <PEOE_VSA10>
5.76

>  <PEOE_VSA11>
5.82

>  <PEOE_VSA12>
0

>  <PEOE_VSA13>
5.91

>  <SMR_VSA1>
9.32

>  <SMR_VSA2>
0

>  <SMR_VSA3>
5.16

>  <SMR_VSA4>
0

>  <SMR_VSA5>
20.77

>  <SMR_VSA6>
5.32

>  <SMR_VSA7>
46.72

>  <SMR_VSA8>
0

>  <SMR_VSA9>
0

>  <SlogP_VSA1>
5.32

>  <SlogP_VSA2>
11.06

>  <SlogP_VSA3>
0

>  <SlogP_VSA4>
20.77

>  <SlogP_VSA5>
27.25

>  <SlogP_VSA6>
28.79

>  <SlogP_VSA7>
0

>  <SlogP_VSA8>
0

>  <SlogP_VSA9>
0

>  <SlogP_VSA10>
5.82

>  <SlogP_VSA11>
0

>  <EState_VSA1>
0

>  <EState_VSA2>
5.91

>  <EState_VSA3>
17.14

>  <EState_VSA4>
11.13

>  <EState_VSA5>
0

>  <EState_VSA6>
12.99

>  <EState_VSA7>
32.05

>  <EState_VSA8>
10.47

>  <EState_VSA9>
4.52

>  <EState_VSA10>
4.79

>  <VSA_EState1>
4.9

>  <VSA_EState2>
12.07

>  <VSA_EState3>
6.45

>  <VSA_EState4>
2.58

>  <VSA_EState5>
0.95

>  <VSA_EState6>
7.44

>  <VSA_EState7>
0

>  <VSA_EState8>
5.6

>  <VSA_EState9>
0

>  <apol>
34.85

>  <bpol>
17.22

>  <nRing>
2

>  <nHRing>
1

>  <naRing>
2

>  <naHRing>
1

>  <nARing 2>
0

>  <nAHRing 2>
0

>  <nFRing>
0

>  <nFHRing>
0

>  <nFaRing>
0

>  <nFaHRing>
0

>  <nFARing 2>
0

>  <nFAHRing 2>
0

>  <nRot>
2

>  <SLogP>
2.85

>  <SMR>
65.11

>  <TopoPSA(NO)>
55.13

>  <TopoPSA>
55.13

>  <JGI1>
0.22

>  <JGI2>
0.08

>  <JGI3>
0.09

>  <JGI4>
0.03

>  <JGI5>
0.04

>  <Diameter>
9

>  <Radius>
5

>  <TMWC10>
105.86

>  <TSRW10>
63.06

>  <MW>
230.11

>  <AMW>
7.42

>  <WPath>
527

>  <WPol>
23

>  <Zagreb1>
86

>  <Zagreb2>
99

>  <mZagreb2>
3.75

>  <yes>


>  <nAR-cont>
0.336376

>  <nHA-cont>
0.976740822

>  <MWHBN>
0.263689141

>  <MWHBN-cont>
0.933888321

>  <TPSA-cont>
0.615158366

>  <pka_cont>
0.97

>  <yes.1>


>  <BBB_SCORE>
4.429266036

>  <MMFF94 Energy>
-0.17209

$$$$
Compound 1643
Actelion Java MolfileCreator 2.0

  0  0  0  0  0  0              0 V3000
M  V30 BEGIN CTAB
M  V30 COUNTS 42 45 0 0 0
M  V30 BEGIN ATOM
M  V30 1 S -3.7301 -1.6205 -0.6479 0
M  V30 2 C -2.4781 -0.4405 -0.6108 0
M  V30 3 C -3.0692 -2.487 0.6559 0
M  V30 4 N -2.5929 0.6096 -1.4472 0
M  V30 5 C -1.4979 -0.7522 0.3081 0
M  V30 6 C -1.8885 -1.919 1.0736 0
M  V30 7 C -3.7619 -3.6926 1.1869 0
M  V30 8 C -1.9506 1.8537 -1.3349 0
M  V30 9 C -0.2486 -0.0204 0.4885 0
M  V30 10 C -0.8103 2.1119 -0.5497 0
M  V30 11 C -2.5511 2.9292 -2.0347 0
M  V30 12 N 4.0E-4 1.1965 0.1273 0
M  V30 13 N 0.7271 -0.7669 1.1364 0
M  V30 14 C -0.3241 3.4311 -0.4865 0
M  V30 15 C -2.0513 4.2274 -1.9567 0
M  V30 16 C 1.7033 -0.0872 2.0043 0
M  V30 17 C 1.3082 -1.9528 0.4801 0
M  V30 18 C -0.939 4.4668 -1.1748 0
M  V30 19 C 2.9805 0.2785 1.2166 0
M  V30 20 C 2.5848 -1.5618 -0.3004 0
M  V30 21 F -0.4434 5.708 -1.0895 0
M  V30 22 N 3.5927 -0.9032 0.5621 0
M  V30 23 C 4.7578 -0.5032 -0.2246 0
M  V30 24 H -3.3564 0.5825 -2.1131 0
M  V30 25 H -1.2987 -2.3225 1.8885 0
M  V30 26 H -3.2061 -4.1259 2.025 0
M  V30 27 H -4.7644 -3.4384 1.5466 0
M  V30 28 H -3.8527 -4.4614 0.4126 0
M  V30 29 H -3.4372 2.7571 -2.6421 0
M  V30 30 H 0.5625 3.6476 0.1023 0
M  V30 31 H -2.5241 5.0428 -2.4933 0
M  V30 32 H 1.2672 0.8111 2.4571 0
M  V30 33 H 1.963 -0.7579 2.8329 0
M  V30 34 H 1.5536 -2.6994 1.2453 0
M  V30 35 H 0.6008 -2.4241 -0.2107 0
M  V30 36 H 3.7008 0.7171 1.9175 0
M  V30 37 H 2.7428 1.0461 0.4689 0
M  V30 38 H 3.0154 -2.4738 -0.7304 0
M  V30 39 H 2.307 -0.9027 -1.1339 0
M  V30 40 H 5.5141 -0.041 0.4192 0
M  V30 41 H 5.228 -1.3793 -0.6843 0
M  V30 42 H 4.501 0.2066 -1.0191 0
M  V30 END ATOM
M  V30 BEGIN BOND
M  V30 1 1 1 2
M  V30 2 1 1 3
M  V30 3 1 2 4
M  V30 4 2 2 5
M  V30 5 2 3 6
M  V30 6 1 3 7
M  V30 7 1 4 8
M  V30 8 1 5 9
M  V30 9 2 8 10
M  V30 10 1 8 11
M  V30 11 2 9 12
M  V30 12 1 9 13
M  V30 13 1 10 14
M  V30 14 2 11 15
M  V30 15 1 13 16
M  V30 16 1 13 17
M  V30 17 2 14 18
M  V30 18 1 16 19
M  V30 19 1 17 20
M  V30 20 1 18 21
M  V30 21 1 19 22
M  V30 22 1 22 23
M  V30 23 1 5 6
M  V30 24 1 10 12
M  V30 25 1 15 18
M  V30 26 1 20 22
M  V30 27 1 4 24
M  V30 28 1 6 25
M  V30 29 1 7 26
M  V30 30 1 7 27
M  V30 31 1 7 28
M  V30 32 1 11 29
M  V30 33 1 14 30
M  V30 34 1 15 31
M  V30 35 1 16 32
M  V30 36 1 16 33
M  V30 37 1 17 34
M  V30 38 1 17 35
M  V30 39 1 19 36
M  V30 40 1 19 37
M  V30 41 1 20 38
M  V30 42 1 20 39
M  V30 43 1 23 40
M  V30 44 1 23 41
M  V30 45 1 23 42
M  V30 END BOND
M  V30 END CTAB
M  END
>  <Column 1>
1997

>  <level_0>
2170

>  <index>
2170

>  <Unnamed: 0>
2170

>  <NO.>
2182

>  <Name>
flumezapine

>  <IUPAC_name>
7-fluoro-2-methyl-4-(4-methylpiperazin-1-yl)-10h-thieno[2-3-b][1-5]benzodiazepine

>  <SMILES>
Cc1cc2c(s1)Nc1ccc(F)cc1N=C2N1CCN(C)CC1

>  <CID>
135413528

>  <logBB>


>  <BBB+/BBB->
BBB+

>  <Inchi>
InChI=1S/C17H19FN4S/c1-11-9-13-16(22-7-5-21(2)6-8-22)19-15-10-12(18)3-4-14(15)20-17(13)23-11/h3-4-9-10-20H-5-8H2-1-2H3

>  <threshold>
-1

>  <reference>
R1|R13|R13|R19|R6|R24|R27|R27|R27|R30|R30|

>  <group>
B

>  <Class>
-1

>  <ABC>
18.55

>  <ABCGG>
14.54

>  <nAcid>
0

>  <nBase>
3

>  <nAromAtom>
11

>  <nAromBond>
11

>  <nAtom>
42

>  <nHeavyAtom>
23

>  <nSpiro>
0

>  <nBridgehead>
0

>  <nHetero>
6

>  <nN>
4

>  <nO>
0

>  <nF>
1

>  <BalabanJ>
1.54

>  <BertzCT>
774.9

>  <nBonds>
45

>  <nBondsO>
26

>  <nBondsS>
33

>  <nBondsD>
1

>  <nBondsT>
0

>  <nBondsA>
11

>  <nBondsM>
12

>  <nBondsKS>
39

>  <nBondsKD>
6

>  <RNCG>
0.21

>  <RPCG>
0.1

>  <FCSP3>
0.35

>  <SZ>
29

>  <Sm>
27.51

>  <Sv>
27.01

>  <Sse>
42.12

>  <Sp>
29.29

>  <Si>
47.58

>  <MZ>
0.69

>  <Mm>
0.66

>  <Mv>
0.64

>  <Mse>
1

>  <Mp>
0.7

>  <Mi>
1.13

>  <NsCH3>
2

>  <NdCH2>
0

>  <NssCH2>
4

>  <NtCH>
0

>  <NdsCH>
0

>  <NaaCH>
4

>  <NsssCH>
0

>  <NddC>
0

>  <NtsC>
0

>  <NdssC>
1

>  <NaasC>
6

>  <NaaaC>
0

>  <NssssC>
0

>  <NsNH3>
0

>  <NsNH2>
0

>  <NssNH2>
0

>  <NdNH>
0

>  <NssNH>
1

>  <NaaNH>
0

>  <NtN>
0

>  <NsssNH>
0

>  <NdsN>
1

>  <NaaN>
0

>  <NsssN>
2

>  <NddsN>
0

>  <NaasN>
0

>  <NssssN>
0

>  <NsOH>
0

>  <NdO>
0

>  <NssO>
0

>  <NaaO>
0

>  <NsF>
1

>  <NsSiH3>
0

>  <NssSiH2>
0

>  <NsssSiH>
0

>  <NssssSi>
0

>  <NsPH2>
0

>  <NssPH>
0

>  <NsssP>
0

>  <NdsssP>
0

>  <NsssssP>
0

>  <NsSH>
0

>  <NdS>
0

>  <NssS>
0

>  <NaaS>
1

>  <NdssS>
0

>  <NddssS>
0

>  <NsCl>
0

>  <NsBr>
0

>  <NsI>
0

>  <fragCpx>
170.06

>  <fMF>
0.48

>  <nHBAcc>
5

>  <nHBDon>
1

>  <Kier1>
16.47

>  <Kier2>
6.72

>  <Lipinski>
1

>  <GhoseFilter>
1

>  <FilterItLogS>
-4.74

>  <VMcGowan>
239.18

>  <LabuteASA>
138.8

>  <PEOE_VSA1>
15.12

>  <PEOE_VSA2>
0

>  <PEOE_VSA3>
9.38

>  <PEOE_VSA4>
0

>  <PEOE_VSA5>
11.34

>  <PEOE_VSA6>
0

>  <PEOE_VSA7>
32.17

>  <PEOE_VSA8>
37.12

>  <PEOE_VSA9>
16.94

>  <PEOE_VSA10>
16.65

>  <PEOE_VSA11>
0

>  <PEOE_VSA12>
0

>  <PEOE_VSA13>
0

>  <SMR_VSA1>
4.39

>  <SMR_VSA2>
0

>  <SMR_VSA3>
9.8

>  <SMR_VSA4>
4.99

>  <SMR_VSA5>
6.92

>  <SMR_VSA6>
38.54

>  <SMR_VSA7>
40.52

>  <SMR_VSA8>
0

>  <SMR_VSA9>
0

>  <SlogP_VSA1>
5.32

>  <SlogP_VSA2>
48.86

>  <SlogP_VSA3>
0

>  <SlogP_VSA4>
12.74

>  <SlogP_VSA5>
10.44

>  <SlogP_VSA6>
29.26

>  <SlogP_VSA7>
0

>  <SlogP_VSA8>
0

>  <SlogP_VSA9>
0

>  <SlogP_VSA10>
20.77

>  <SlogP_VSA11>
0

>  <EState_VSA1>
0

>  <EState_VSA2>
5.82

>  <EState_VSA3>
5.69

>  <EState_VSA4>
48.27

>  <EState_VSA5>
17.01

>  <EState_VSA6>
17.4

>  <EState_VSA7>
0

>  <EState_VSA8>
35.15

>  <EState_VSA9>
4.99

>  <EState_VSA10>
4.39

>  <VSA_EState1>
13.65

>  <VSA_EState2>
10.71

>  <VSA_EState3>
4.52

>  <VSA_EState4>
2.65

>  <VSA_EState5>
0.7

>  <VSA_EState6>
6.91

>  <VSA_EState7>
0

>  <VSA_EState8>
6.01

>  <VSA_EState9>
2.14

>  <apol>
48.92

>  <bpol>
27.76

>  <nRing>
4

>  <nHRing>
3

>  <naRing>
2

>  <naHRing>
1

>  <nARing 2>
2

>  <nAHRing 2>
2

>  <nFRing>
1

>  <nFHRing>
1

>  <nFaRing>
0

>  <nFaHRing>
0

>  <nFARing 2>
1

>  <nFAHRing 2>
1

>  <nRot>
0

>  <SLogP>
3.58

>  <SMR>
94.01

>  <TopoPSA(NO)>
30.87

>  <TopoPSA>
59.11

>  <JGI1>
0.21

>  <JGI2>
0.07

>  <JGI3>
0.04

>  <JGI4>
0.04

>  <JGI5>
0.02

>  <Diameter>
10

>  <Radius>
5

>  <TMWC10>
124.92

>  <TSRW10>
72

>  <MW>
330.13

>  <AMW>
7.86

>  <WPath>
1085

>  <WPol>
40

>  <Zagreb1>
128

>  <Zagreb2>
153

>  <mZagreb2>
4.86

>  <yes>


>  <nAR-cont>
1

>  <nHA-cont>
0.967789328

>  <MWHBN>
0.330224092

>  <MWHBN-cont>
0.742058295

>  <TPSA-cont>
0.587375495

>  <pka_cont>
0.97

>  <yes.1>


>  <BBB_SCORE>
4.74062776

>  <MMFF94 Energy>
85.378

$$$$
Compound 1644
Actelion Java MolfileCreator 2.0

  0  0  0  0  0  0              0 V3000
M  V30 BEGIN CTAB
M  V30 COUNTS 37 38 0 0 0
M  V30 BEGIN ATOM
M  V30 1 O -0.5498 -0.2356 -0.3141 0
M  V30 2 C 0.8202 -0.2344 -0.2625 0
M  V30 3 C -1.1763 -1.0835 -1.2703 0
M  V30 4 C 1.4064 0.6269 0.6876 0
M  V30 5 C 1.6381 -1.0274 -1.08 0
M  V30 6 C -2.6829 -0.9263 -1.1704 0
M  V30 7 C 2.8094 0.6592 0.7929 0
M  V30 8 C 0.5575 1.5067 1.5986 0
M  V30 9 C 3.0354 -0.9732 -0.9775 0
M  V30 10 N -3.4962 -1.594 -1.9503 0
M  V30 11 N -3.2747 -0.0897 -0.2719 0
M  V30 12 C 3.6136 -0.1337 -0.0255 0
M  V30 13 C 0.7243 1.1127 3.0693 0
M  V30 14 C 0.8629 2.9941 1.3941 0
M  V30 15 C 3.8938 -1.8531 -1.8376 0
M  V30 16 C -4.8641 -1.1552 -1.5301 0
M  V30 17 C -4.6973 -0.1322 -0.3952 0
M  V30 18 H -0.8837 -0.8063 -2.2896 0
M  V30 19 H -0.9422 -2.1356 -1.0714 0
M  V30 20 H 1.2112 -1.7044 -1.8137 0
M  V30 21 H 3.2918 1.3058 1.5227 0
M  V30 22 H -0.5038 1.3754 1.3588 0
M  V30 23 H -2.7562 0.4812 0.3817 0
M  V30 24 H 4.6945 -0.0891 0.0868 0
M  V30 25 H 1.7452 1.2834 3.4278 0
M  V30 26 H 0.0486 1.6975 3.703 0
M  V30 27 H 0.4902 0.0527 3.2188 0
M  V30 28 H 1.8853 3.2505 1.6915 0
M  V30 29 H 0.7385 3.2774 0.3429 0
M  V30 30 H 0.1814 3.6111 1.9901 0
M  V30 31 H 3.4382 -1.9989 -2.8227 0
M  V30 32 H 4.8786 -1.4023 -1.9997 0
M  V30 33 H 4.0265 -2.8285 -1.3596 0
M  V30 34 H -5.4378 -2.0251 -1.1929 0
M  V30 35 H -5.3834 -0.7108 -2.3858 0
M  V30 36 H -5.1717 -0.4765 0.5283 0
M  V30 37 H -5.1064 0.8437 -0.6719 0
M  V30 END ATOM
M  V30 BEGIN BOND
M  V30 1 1 1 2
M  V30 2 1 1 3
M  V30 3 2 2 4
M  V30 4 1 2 5
M  V30 5 1 3 6
M  V30 6 1 4 7
M  V30 7 1 4 8
M  V30 8 2 5 9
M  V30 9 2 6 10
M  V30 10 1 6 11
M  V30 11 2 7 12
M  V30 12 1 8 13
M  V30 13 1 8 14
M  V30 14 1 9 15
M  V30 15 1 10 16
M  V30 16 1 11 17
M  V30 17 1 9 12
M  V30 18 1 16 17
M  V30 19 1 3 18
M  V30 20 1 3 19
M  V30 21 1 5 20
M  V30 22 1 7 21
M  V30 23 1 8 22
M  V30 24 1 11 23
M  V30 25 1 12 24
M  V30 26 1 13 25
M  V30 27 1 13 26
M  V30 28 1 13 27
M  V30 29 1 14 28
M  V30 30 1 14 29
M  V30 31 1 14 30
M  V30 32 1 15 31
M  V30 33 1 15 32
M  V30 34 1 15 33
M  V30 35 1 16 34
M  V30 36 1 16 35
M  V30 37 1 17 36
M  V30 38 1 17 37
M  V30 END BOND
M  V30 END CTAB
M  END
>  <Column 1>
1998

>  <level_0>
2171

>  <index>
2171

>  <Unnamed: 0>
2171

>  <NO.>
2183

>  <Name>
tymazoline

>  <IUPAC_name>
2-[(5-methyl-2-propan-2-ylphenoxy)methyl]-4-5-dihydro-1h-imidazole

>  <SMILES>
Cc1ccc(C(C)C)c(OCC2=NCCN2)c1

>  <CID>
34154

>  <logBB>


>  <BBB+/BBB->
BBB-

>  <Inchi>
InChI=1S/C14H20N2O/c1-10(2)12-5-4-11(3)8-13(12)17-9-14-15-6-7-16-14/h4-5-8-10H-6-7-9H2-1-3H3-(H-15-16)

>  <threshold>
-1

>  <reference>
R1|R13|R19|R6|R24|R27|R27|R27|R30|R30|

>  <group>
B

>  <Class>
1

>  <ABC>
12.98

>  <ABCGG>
11.58

>  <nAcid>
0

>  <nBase>
2

>  <nAromAtom>
6

>  <nAromBond>
6

>  <nAtom>
37

>  <nHeavyAtom>
17

>  <nSpiro>
0

>  <nBridgehead>
0

>  <nHetero>
3

>  <nN>
2

>  <nO>
1

>  <nF>
0

>  <BalabanJ>
1.81

>  <BertzCT>
424.23

>  <nBonds>
38

>  <nBondsO>
18

>  <nBondsS>
31

>  <nBondsD>
1

>  <nBondsT>
0

>  <nBondsA>
6

>  <nBondsM>
7

>  <nBondsKS>
34

>  <nBondsKD>
4

>  <RNCG>
0.33

>  <RPCG>
0.11

>  <FCSP3>
0.5

>  <SZ>
21

>  <Sm>
19.34

>  <Sv>
21.65

>  <Sse>
36.54

>  <Sp>
23.78

>  <Si>
41.94

>  <MZ>
0.57

>  <Mm>
0.52

>  <Mv>
0.59

>  <Mse>
0.99

>  <Mp>
0.64

>  <Mi>
1.13

>  <NsCH3>
3

>  <NdCH2>
0

>  <NssCH2>
3

>  <NtCH>
0

>  <NdsCH>
0

>  <NaaCH>
3

>  <NsssCH>
1

>  <NddC>
0

>  <NtsC>
0

>  <NdssC>
1

>  <NaasC>
3

>  <NaaaC>
0

>  <NssssC>
0

>  <NsNH3>
0

>  <NsNH2>
0

>  <NssNH2>
0

>  <NdNH>
0

>  <NssNH>
1

>  <NaaNH>
0

>  <NtN>
0

>  <NsssNH>
0

>  <NdsN>
1

>  <NaaN>
0

>  <NsssN>
0

>  <NddsN>
0

>  <NaasN>
0

>  <NssssN>
0

>  <NsOH>
0

>  <NdO>
0

>  <NssO>
1

>  <NaaO>
0

>  <NsF>
0

>  <NsSiH3>
0

>  <NssSiH2>
0

>  <NsssSiH>
0

>  <NssssSi>
0

>  <NsPH2>
0

>  <NssPH>
0

>  <NsssP>
0

>  <NdsssP>
0

>  <NsssssP>
0

>  <NsSH>
0

>  <NdS>
0

>  <NssS>
0

>  <NaaS>
0

>  <NdssS>
0

>  <NddssS>
0

>  <NsCl>
0

>  <NsBr>
0

>  <NsI>
0

>  <fragCpx>
52.03

>  <fMF>
0.35

>  <nHBAcc>
3

>  <nHBDon>
1

>  <Kier1>
13.43

>  <Kier2>
6.25

>  <Lipinski>
1

>  <GhoseFilter>
1

>  <FilterItLogS>
-4.22

>  <VMcGowan>
195.03

>  <LabuteASA>
102.9

>  <PEOE_VSA1>
10.05

>  <PEOE_VSA2>
4.99

>  <PEOE_VSA3>
0

>  <PEOE_VSA4>
0

>  <PEOE_VSA5>
0

>  <PEOE_VSA6>
25.98

>  <PEOE_VSA7>
30.03

>  <PEOE_VSA8>
6.54

>  <PEOE_VSA9>
6.54

>  <PEOE_VSA10>
18.19

>  <PEOE_VSA11>
0

>  <PEOE_VSA12>
0

>  <PEOE_VSA13>
0

>  <SMR_VSA1>
4.74

>  <SMR_VSA2>
0

>  <SMR_VSA3>
5.32

>  <SMR_VSA4>
4.99

>  <SMR_VSA5>
26.69

>  <SMR_VSA6>
19.7

>  <SMR_VSA7>
29.33

>  <SMR_VSA8>
0

>  <SMR_VSA9>
5.75

>  <SlogP_VSA1>
10.05

>  <SlogP_VSA2>
25.53

>  <SlogP_VSA3>
0

>  <SlogP_VSA4>
6.92

>  <SlogP_VSA5>
30.89

>  <SlogP_VSA6>
23.19

>  <SlogP_VSA7>
0

>  <SlogP_VSA8>
0

>  <SlogP_VSA9>
0

>  <SlogP_VSA10>
0

>  <SlogP_VSA11>
5.75

>  <EState_VSA1>
0

>  <EState_VSA2>
0

>  <EState_VSA3>
12.52

>  <EState_VSA4>
24.67

>  <EState_VSA5>
11.13

>  <EState_VSA6>
0

>  <EState_VSA7>
0

>  <EState_VSA8>
49.28

>  <EState_VSA9>
4.74

>  <EState_VSA10>
0

>  <VSA_EState1>
5.87

>  <VSA_EState2>
4.33

>  <VSA_EState3>
3.22

>  <VSA_EState4>
2.49

>  <VSA_EState5>
2.42

>  <VSA_EState6>
6.39

>  <VSA_EState7>
0

>  <VSA_EState8>
8.8

>  <VSA_EState9>
0

>  <apol>
39.72

>  <bpol>
23.51

>  <nRing>
2

>  <nHRing>
1

>  <naRing>
1

>  <naHRing>
0

>  <nARing 2>
1

>  <nAHRing 2>
1

>  <nFRing>
0

>  <nFHRing>
0

>  <nFaRing>
0

>  <nFaHRing>
0

>  <nFARing 2>
0

>  <nFAHRing 2>
0

>  <nRot>
4

>  <SLogP>
2.5

>  <SMR>
71.07

>  <TopoPSA(NO)>
33.62

>  <TopoPSA>
33.62

>  <JGI1>
0.19

>  <JGI2>
0.07

>  <JGI3>
0.05

>  <JGI4>
0.04

>  <JGI5>
0.03

>  <Diameter>
8

>  <Radius>
4

>  <TMWC10>
105.02

>  <TSRW10>
62.33

>  <MW>
232.16

>  <AMW>
6.27

>  <WPath>
543

>  <WPol>
21

>  <Zagreb1>
84

>  <Zagreb2>
95

>  <mZagreb2>
3.81

>  <yes>


>  <nAR-cont>
0.816016

>  <nHA-cont>
0.976740822

>  <MWHBN>
0.262522356

>  <MWHBN-cont>
0.936312179

>  <TPSA-cont>
0.765311523

>  <pka_cont>
0.97

>  <yes.1>


>  <BBB_SCORE>
5.212848137

>  <MMFF94 Energy>
67.353

$$$$
Compound 1645
Actelion Java MolfileCreator 2.0

  0  0  0  0  0  0              0 V3000
M  V30 BEGIN CTAB
M  V30 COUNTS 52 54 0 0 0
M  V30 BEGIN ATOM
M  V30 1 F -1.1945 5.5039 -7.9041 0
M  V30 2 C -1.3078 4.9105 -6.7093 0
M  V30 3 C -2.0359 5.53 -5.7019 0
M  V30 4 C -0.6935 3.6818 -6.4945 0
M  V30 5 C -2.1521 4.9086 -4.4566 0
M  V30 6 C -0.8074 3.0561 -5.249 0
M  V30 7 C -1.5397 3.6666 -4.2203 0
M  V30 8 C -1.6947 3.0444 -2.8682 0
M  V30 9 O -2.3132 3.6545 -1.9985 0
M  V30 10 C -1.0735 1.68 -2.6186 0
M  V30 11 C -1.3788 1.1545 -1.2131 0
M  V30 12 C -0.7128 -0.2073 -0.9794 0
M  V30 13 N -1.1127 -0.8417 0.2896 0
M  V30 14 C -0.6576 -2.2411 0.3131 0
M  V30 15 C -0.5967 -0.1131 1.4595 0
M  V30 16 C -1.0983 -2.9586 1.5908 0
M  V30 17 C -1.0922 -0.757 2.7527 0
M  V30 18 C -0.65 -2.2293 2.8721 0
M  V30 19 O -1.3694 -2.8214 3.97 0
M  V30 20 C 0.8268 -2.3663 3.2586 0
M  V30 21 C 1.3012 -1.7287 4.4223 0
M  V30 22 C 1.7521 -3.1337 2.5343 0
M  V30 23 C 2.6399 -1.8163 4.818 0
M  V30 24 C 3.0942 -3.2233 2.9269 0
M  V30 25 C 3.5477 -2.5706 4.0747 0
M  V30 26 C 4.9896 -2.6442 4.477 0
M  V30 27 H -2.508 6.4896 -5.8884 0
M  V30 28 H -0.1293 3.2195 -7.2989 0
M  V30 29 H -2.7239 5.398 -3.6693 0
M  V30 30 H -0.3151 2.0984 -5.1105 0
M  V30 31 H -1.4707 0.9754 -3.3577 0
M  V30 32 H 0.0116 1.7661 -2.744 0
M  V30 33 H -1.0265 1.8865 -0.4775 0
M  V30 34 H -2.465 1.0663 -1.0837 0
M  V30 35 H -1.0119 -0.8626 -1.808 0
M  V30 36 H 0.3788 -0.1042 -1.0353 0
M  V30 37 H 0.4298 -2.2911 0.1896 0
M  V30 38 H -1.0964 -2.7814 -0.5351 0
M  V30 39 H -0.9641 0.9183 1.4586 0
M  V30 40 H 0.4994 -0.0669 1.4469 0
M  V30 41 H -2.196 -3.0296 1.584 0
M  V30 42 H -0.7579 -4.0011 1.5851 0
M  V30 43 H -2.1904 -0.703 2.7801 0
M  V30 44 H -0.7675 -0.1578 3.6108 0
M  V30 45 H -2.3184 -2.7127 3.7928 0
M  V30 46 H 0.6148 -1.1667 5.053 0
M  V30 47 H 1.4585 -3.6931 1.6521 0
M  V30 48 H 2.9601 -1.3002 5.7201 0
M  V30 49 H 3.7805 -3.8204 2.3304 0
M  V30 50 H 5.5515 -1.8322 4.0054 0
M  V30 51 H 5.4308 -3.6006 4.1773 0
M  V30 52 H 5.0971 -2.5641 5.564 0
M  V30 END ATOM
M  V30 BEGIN BOND
M  V30 1 1 1 2
M  V30 2 2 2 3
M  V30 3 1 2 4
M  V30 4 1 3 5
M  V30 5 2 4 6
M  V30 6 2 5 7
M  V30 7 1 7 8
M  V30 8 2 8 9
M  V30 9 1 8 10
M  V30 10 1 10 11
M  V30 11 1 11 12
M  V30 12 1 12 13
M  V30 13 1 13 14
M  V30 14 1 13 15
M  V30 15 1 14 16
M  V30 16 1 15 17
M  V30 17 1 16 18
M  V30 18 1 18 19
M  V30 19 1 18 20
M  V30 20 2 20 21
M  V30 21 1 20 22
M  V30 22 1 21 23
M  V30 23 2 22 24
M  V30 24 2 23 25
M  V30 25 1 25 26
M  V30 26 1 6 7
M  V30 27 1 17 18
M  V30 28 1 24 25
M  V30 29 1 3 27
M  V30 30 1 4 28
M  V30 31 1 5 29
M  V30 32 1 6 30
M  V30 33 1 10 31
M  V30 34 1 10 32
M  V30 35 1 11 33
M  V30 36 1 11 34
M  V30 37 1 12 35
M  V30 38 1 12 36
M  V30 39 1 14 37
M  V30 40 1 14 38
M  V30 41 1 15 39
M  V30 42 1 15 40
M  V30 43 1 16 41
M  V30 44 1 16 42
M  V30 45 1 17 43
M  V30 46 1 17 44
M  V30 47 1 19 45
M  V30 48 1 21 46
M  V30 49 1 22 47
M  V30 50 1 23 48
M  V30 51 1 24 49
M  V30 52 1 26 50
M  V30 53 1 26 51
M  V30 54 1 26 52
M  V30 END BOND
M  V30 END CTAB
M  END
>  <Column 1>
1999

>  <level_0>
2172

>  <index>
2172

>  <Unnamed: 0>
2172

>  <NO.>
2184

>  <Name>
moperone

>  <IUPAC_name>
1-(4-fluorophenyl)-4-[4-hydroxy-4-(4-methylphenyl)piperidin-1-yl]butan-1-one

>  <SMILES>
Cc1ccc(C2(O)CCN(CCCC(=O)c3ccc(F)cc3)CC2)cc1

>  <CID>
4249

>  <logBB>


>  <BBB+/BBB->
BBB+

>  <Inchi>
InChI=1S/C22H26FNO2/c1-17-4-8-19(9-5-17)22(26)12-15-24(16-13-22)14-2-3-21(25)18-6-10-20(23)11-7-18/h4-11-26H-2-3-12-16H2-1H3

>  <threshold>
-1

>  <reference>
R1|R13|R19|R6|R24|R27|R27|R27|R30|R30|

>  <group>
B

>  <Class>
-1

>  <ABC>
20.18

>  <ABCGG>
14.87

>  <nAcid>
0

>  <nBase>
1

>  <nAromAtom>
12

>  <nAromBond>
12

>  <nAtom>
52

>  <nHeavyAtom>
26

>  <nSpiro>
0

>  <nBridgehead>
0

>  <nHetero>
4

>  <nN>
1

>  <nO>
2

>  <nF>
1

>  <BalabanJ>
1.32

>  <BertzCT>
731.74

>  <nBonds>
54

>  <nBondsO>
28

>  <nBondsS>
41

>  <nBondsD>
1

>  <nBondsT>
0

>  <nBondsA>
12

>  <nBondsM>
13

>  <nBondsKS>
47

>  <nBondsKD>
7

>  <RNCG>
0.22

>  <RPCG>
0.12

>  <FCSP3>
0.41

>  <SZ>
31.67

>  <Sm>
29.59

>  <Sv>
31.88

>  <Sse>
51.82

>  <Sp>
34.33

>  <Si>
58.66

>  <MZ>
0.61

>  <Mm>
0.57

>  <Mv>
0.61

>  <Mse>
1

>  <Mp>
0.66

>  <Mi>
1.13

>  <NsCH3>
1

>  <NdCH2>
0

>  <NssCH2>
7

>  <NtCH>
0

>  <NdsCH>
0

>  <NaaCH>
8

>  <NsssCH>
0

>  <NddC>
0

>  <NtsC>
0

>  <NdssC>
1

>  <NaasC>
4

>  <NaaaC>
0

>  <NssssC>
1

>  <NsNH3>
0

>  <NsNH2>
0

>  <NssNH2>
0

>  <NdNH>
0

>  <NssNH>
0

>  <NaaNH>
0

>  <NtN>
0

>  <NsssNH>
0

>  <NdsN>
0

>  <NaaN>
0

>  <NsssN>
1

>  <NddsN>
0

>  <NaasN>
0

>  <NssssN>
0

>  <NsOH>
1

>  <NdO>
1

>  <NssO>
0

>  <NaaO>
0

>  <NsF>
1

>  <NsSiH3>
0

>  <NssSiH2>
0

>  <NsssSiH>
0

>  <NssssSi>
0

>  <NsPH2>
0

>  <NssPH>
0

>  <NsssP>
0

>  <NdsssP>
0

>  <NsssssP>
0

>  <NsSH>
0

>  <NdS>
0

>  <NssS>
0

>  <NaaS>
0

>  <NdssS>
0

>  <NddssS>
0

>  <NsCl>
0

>  <NsBr>
0

>  <NsI>
0

>  <fragCpx>
134.04

>  <fMF>
0.42

>  <nHBAcc>
3

>  <nHBDon>
1

>  <Kier1>
20.73

>  <Kier2>
9.47

>  <Lipinski>
1

>  <GhoseFilter>
1

>  <FilterItLogS>
-5.63

>  <VMcGowan>
281.64

>  <LabuteASA>
154.01

>  <PEOE_VSA1>
10.01

>  <PEOE_VSA2>
4.79

>  <PEOE_VSA3>
4.39

>  <PEOE_VSA4>
0

>  <PEOE_VSA5>
0

>  <PEOE_VSA6>
29.83

>  <PEOE_VSA7>
62.56

>  <PEOE_VSA8>
25.07

>  <PEOE_VSA9>
5.6

>  <PEOE_VSA10>
5.82

>  <PEOE_VSA11>
5.78

>  <PEOE_VSA12>
0

>  <PEOE_VSA13>
0

>  <SMR_VSA1>
14.29

>  <SMR_VSA2>
0

>  <SMR_VSA3>
4.9

>  <SMR_VSA4>
0

>  <SMR_VSA5>
38.21

>  <SMR_VSA6>
19.63

>  <SMR_VSA7>
71.04

>  <SMR_VSA8>
0

>  <SMR_VSA9>
0

>  <SlogP_VSA1>
0

>  <SlogP_VSA2>
35.42

>  <SlogP_VSA3>
5.6

>  <SlogP_VSA4>
12.74

>  <SlogP_VSA5>
47.17

>  <SlogP_VSA6>
48.53

>  <SlogP_VSA7>
0

>  <SlogP_VSA8>
0

>  <SlogP_VSA9>
0

>  <SlogP_VSA10>
4.39

>  <SlogP_VSA11>
0

>  <EState_VSA1>
5.6

>  <EState_VSA2>
11.6

>  <EState_VSA3>
24.83

>  <EState_VSA4>
31.62

>  <EState_VSA5>
17.7

>  <EState_VSA6>
12.13

>  <EState_VSA7>
31.19

>  <EState_VSA8>
4.9

>  <EState_VSA9>
0

>  <EState_VSA10>
14.29

>  <VSA_EState1>
12.91

>  <VSA_EState2>
14.44

>  <VSA_EState3>
10.92

>  <VSA_EState4>
2.02

>  <VSA_EState5>
-0.27

>  <VSA_EState6>
13.86

>  <VSA_EState7>
2.66

>  <VSA_EState8>
4.55

>  <VSA_EState9>
0

>  <apol>
57.34

>  <bpol>
29.77

>  <nRing>
3

>  <nHRing>
1

>  <naRing>
2

>  <naHRing>
0

>  <nARing 2>
1

>  <nAHRing 2>
1

>  <nFRing>
0

>  <nFHRing>
0

>  <nFaRing>
0

>  <nFaHRing>
0

>  <nFARing 2>
0

>  <nFAHRing 2>
0

>  <nRot>
6

>  <SLogP>
4.08

>  <SMR>
100.71

>  <TopoPSA(NO)>
40.54

>  <TopoPSA>
40.54

>  <JGI1>
0.23

>  <JGI2>
0.1

>  <JGI3>
0.04

>  <JGI4>
0.03

>  <JGI5>
0.03

>  <Diameter>
17

>  <Radius>
9

>  <TMWC10>
128.81

>  <TSRW10>
60.87

>  <MW>
355.19

>  <AMW>
6.83

>  <WPath>
2035

>  <WPol>
39

>  <Zagreb1>
134

>  <Zagreb2>
154

>  <mZagreb2>
5.69

>  <yes>


>  <nAR-cont>
0.816016

>  <nHA-cont>
0.892715677

>  <MWHBN>
0.212241168

>  <MWHBN-cont>
0.998685881

>  <TPSA-cont>
0.717005626

>  <pka_cont>
0.97

>  <yes.1>


>  <BBB_SCORE>
5.125771751

>  <MMFF94 Energy>
60.213

$$$$
Compound 1646
Actelion Java MolfileCreator 2.0

  0  0  0  0  0  0              0 V3000
M  V30 BEGIN CTAB
M  V30 COUNTS 57 59 0 0 0
M  V30 BEGIN ATOM
M  V30 1 S 2.0647 -0.3174 2.5416 0
M  V30 2 C 2.2813 0.5441 4.1324 0
M  V30 3 C 1.7399 1.1362 1.4697 0
M  V30 4 C 1.0263 1.1826 4.5944 0
M  V30 5 C 1.7308 0.7598 -0.0153 0
M  V30 6 O 0.9155 2.5252 4.3821 0
M  V30 7 C -0.1064 0.7098 5.2237 0
M  V30 8 N 0.7136 -0.236 -0.2964 0
M  V30 9 C -0.2918 2.9161 4.8843 0
M  V30 10 C -0.958 1.8256 5.4055 0
M  V30 11 C 0.2763 -0.5224 -1.5486 0
M  V30 12 C -0.6399 4.362 4.7534 0
M  V30 13 N 0.6997 0.0955 -2.6068 0
M  V30 14 N -0.649 -1.514 -1.5374 0
M  V30 15 N 0.0563 5.2171 5.7329 0
M  V30 16 C 0.158 -0.2989 -3.7992 0
M  V30 17 C -1.2341 -2.0421 -2.742 0
M  V30 18 C -0.419 4.9814 7.0969 0
M  V30 19 C -0.1211 6.6261 5.3795 0
M  V30 20 C -0.7416 -1.2862 -3.9396 0
M  V30 21 C -1.3176 -1.6605 -5.2804 0
M  V30 22 C -1.0068 -3.0714 -5.7059 0
M  V30 23 C -2.0226 -3.9854 -5.9622 0
M  V30 24 C 0.3066 -3.515 -5.8752 0
M  V30 25 N -1.8169 -5.2658 -6.3455 0
M  V30 26 C 0.5481 -4.828 -6.2715 0
M  V30 27 C -0.5346 -5.6718 -6.4953 0
M  V30 28 C -0.307 -7.0909 -6.9212 0
M  V30 29 H 3.0893 1.2771 4.0385 0
M  V30 30 H 2.6061 -0.1965 4.8707 0
M  V30 31 H 0.7684 1.5609 1.7425 0
M  V30 32 H 2.5149 1.889 1.6452 0
M  V30 33 H 1.5345 1.6701 -0.5943 0
M  V30 34 H 2.7131 0.3808 -0.3205 0
M  V30 35 H -0.2927 -0.3157 5.5106 0
M  V30 36 H 0.5444 -0.8984 0.448 0
M  V30 37 H -1.937 1.8386 5.8634 0
M  V30 38 H -0.3577 4.6666 3.7366 0
M  V30 39 H -1.728 4.4903 4.8265 0
M  V30 40 H -0.9878 -1.8701 -0.6593 0
M  V30 41 H 0.5125 0.2577 -4.6622 0
M  V30 42 H -0.9748 -3.1024 -2.8244 0
M  V30 43 H -2.3245 -1.9634 -2.6735 0
M  V30 44 H -0.2041 3.9587 7.4233 0
M  V30 45 H -1.4961 5.1591 7.1963 0
M  V30 46 H 0.1014 5.6388 7.803 0
M  V30 47 H -1.1755 6.9257 5.3893 0
M  V30 48 H 0.2865 6.8291 4.3829 0
M  V30 49 H 0.427 7.2707 6.0759 0
M  V30 50 H -0.9558 -0.9855 -6.0671 0
M  V30 51 H -2.4043 -1.5091 -5.2419 0
M  V30 52 H -3.0698 -3.7117 -5.863 0
M  V30 53 H 1.1452 -2.8462 -5.6939 0
M  V30 54 H 1.5657 -5.1817 -6.4003 0
M  V30 55 H 0.2747 -7.6244 -6.1632 0
M  V30 56 H 0.2312 -7.118 -7.8736 0
M  V30 57 H -1.2587 -7.6159 -7.0524 0
M  V30 END ATOM
M  V30 BEGIN BOND
M  V30 1 1 1 2
M  V30 2 1 1 3
M  V30 3 1 2 4
M  V30 4 1 3 5
M  V30 5 1 4 6
M  V30 6 2 4 7
M  V30 7 1 5 8
M  V30 8 1 6 9
M  V30 9 1 7 10
M  V30 10 1 8 11
M  V30 11 1 9 12
M  V30 12 2 11 13
M  V30 13 1 11 14
M  V30 14 1 12 15
M  V30 15 1 13 16
M  V30 16 1 14 17
M  V30 17 1 15 18
M  V30 18 1 15 19
M  V30 19 2 16 20
M  V30 20 1 20 21
M  V30 21 1 21 22
M  V30 22 2 22 23
M  V30 23 1 22 24
M  V30 24 1 23 25
M  V30 25 2 24 26
M  V30 26 2 25 27
M  V30 27 1 27 28
M  V30 28 2 9 10
M  V30 29 1 17 20
M  V30 30 1 26 27
M  V30 31 1 2 29
M  V30 32 1 2 30
M  V30 33 1 3 31
M  V30 34 1 3 32
M  V30 35 1 5 33
M  V30 36 1 5 34
M  V30 37 1 7 35
M  V30 38 1 8 36
M  V30 39 1 10 37
M  V30 40 1 12 38
M  V30 41 1 12 39
M  V30 42 1 14 40
M  V30 43 1 16 41
M  V30 44 1 17 42
M  V30 45 1 17 43
M  V30 46 1 18 44
M  V30 47 1 18 45
M  V30 48 1 18 46
M  V30 49 1 19 47
M  V30 50 1 19 48
M  V30 51 1 19 49
M  V30 52 1 21 50
M  V30 53 1 21 51
M  V30 54 1 23 52
M  V30 55 1 24 53
M  V30 56 1 26 54
M  V30 57 1 28 55
M  V30 58 1 28 56
M  V30 59 1 28 57
M  V30 END BOND
M  V30 END CTAB
M  END
>  <Column 1>
2000

>  <level_0>
2173

>  <index>
2173

>  <Unnamed: 0>
2173

>  <NO.>
2185

>  <Name>
trimetrexate

>  <IUPAC_name>


>  <SMILES>
Cc1ccc(CC2=CN=C(NCCSCc3ccc(CN(C)C)o3)NC2)cn1

>  <CID>


>  <logBB>


>  <BBB+/BBB->
BBB-

>  <Inchi>
InChI=1S/C21H29N5OS/c1-16-4-5-17(11-23-16)10-18-12-24-21(25-13-18)22-8-9-28-15-20-7-6-19(27-20)14-26(2)3/h4-7-11-12H-8-10-13-15H2-1-3H3-(H2-22-24-25)

>  <threshold>
-1

>  <reference>
R1|R13|R13|R19|R28|R9|R24|R27|R30|R36|

>  <group>
B

>  <Class>
1

>  <ABC>
21.54

>  <ABCGG>
15.23

>  <nAcid>
0

>  <nBase>
4

>  <nAromAtom>
11

>  <nAromBond>
11

>  <nAtom>
57

>  <nHeavyAtom>
28

>  <nSpiro>
0

>  <nBridgehead>
0

>  <nHetero>
7

>  <nN>
5

>  <nO>
1

>  <nF>
0

>  <BalabanJ>
1.17

>  <BertzCT>
810.46

>  <nBonds>
59

>  <nBondsO>
30

>  <nBondsS>
46

>  <nBondsD>
2

>  <nBondsT>
0

>  <nBondsA>
11

>  <nBondsM>
13

>  <nBondsKS>
52

>  <nBondsKD>
7

>  <RNCG>
0.2

>  <RPCG>
0.08

>  <FCSP3>
0.43

>  <SZ>
35.67

>  <Sm>
33.27

>  <Sv>
34.55

>  <Sse>
56.6

>  <Sp>
38.09

>  <Si>
64.6

>  <MZ>
0.63

>  <Mm>
0.58

>  <Mv>
0.61

>  <Mse>
0.99

>  <Mp>
0.67

>  <Mi>
1.13

>  <NsCH3>
3

>  <NdCH2>
0

>  <NssCH2>
6

>  <NtCH>
0

>  <NdsCH>
1

>  <NaaCH>
5

>  <NsssCH>
0

>  <NddC>
0

>  <NtsC>
0

>  <NdssC>
2

>  <NaasC>
4

>  <NaaaC>
0

>  <NssssC>
0

>  <NsNH3>
0

>  <NsNH2>
0

>  <NssNH2>
0

>  <NdNH>
0

>  <NssNH>
2

>  <NaaNH>
0

>  <NtN>
0

>  <NsssNH>
0

>  <NdsN>
1

>  <NaaN>
1

>  <NsssN>
1

>  <NddsN>
0

>  <NaasN>
0

>  <NssssN>
0

>  <NsOH>
0

>  <NdO>
0

>  <NssO>
0

>  <NaaO>
1

>  <NsF>
0

>  <NsSiH3>
0

>  <NssSiH2>
0

>  <NsssSiH>
0

>  <NssssSi>
0

>  <NsPH2>
0

>  <NssPH>
0

>  <NsssP>
0

>  <NdsssP>
0

>  <NsssssP>
0

>  <NsSH>
0

>  <NdS>
0

>  <NssS>
1

>  <NaaS>
0

>  <NdssS>
0

>  <NddssS>
0

>  <NsCl>
0

>  <NsBr>
0

>  <NsI>
0

>  <fragCpx>
144.07

>  <fMF>
0.4

>  <nHBAcc>
7

>  <nHBDon>
2

>  <Kier1>
22.68

>  <Kier2>
12

>  <Lipinski>
1

>  <GhoseFilter>
1

>  <FilterItLogS>
-6.55

>  <VMcGowan>
316.19

>  <LabuteASA>
171.06

>  <PEOE_VSA1>
19.95

>  <PEOE_VSA2>
4.98

>  <PEOE_VSA3>
4.99

>  <PEOE_VSA4>
11.76

>  <PEOE_VSA5>
0

>  <PEOE_VSA6>
6.07

>  <PEOE_VSA7>
56.78

>  <PEOE_VSA8>
36.93

>  <PEOE_VSA9>
12.3

>  <PEOE_VSA10>
11.52

>  <PEOE_VSA11>
5.96

>  <PEOE_VSA12>
0

>  <PEOE_VSA13>
0

>  <SMR_VSA1>
4.42

>  <SMR_VSA2>
0

>  <SMR_VSA3>
20.52

>  <SMR_VSA4>
4.99

>  <SMR_VSA5>
25.64

>  <SMR_VSA6>
32.94

>  <SMR_VSA7>
65.01

>  <SMR_VSA8>
0

>  <SMR_VSA9>
0

>  <SlogP_VSA1>
10.63

>  <SlogP_VSA2>
48.78

>  <SlogP_VSA3>
18.72

>  <SlogP_VSA4>
6.92

>  <SlogP_VSA5>
22.78

>  <SlogP_VSA6>
51.64

>  <SlogP_VSA7>
0

>  <SlogP_VSA8>
0

>  <SlogP_VSA9>
0

>  <SlogP_VSA10>
0

>  <SlogP_VSA11>
0

>  <EState_VSA1>
0

>  <EState_VSA2>
0

>  <EState_VSA3>
0

>  <EState_VSA4>
60.73

>  <EState_VSA5>
11.14

>  <EState_VSA6>
0

>  <EState_VSA7>
51.24

>  <EState_VSA8>
43.71

>  <EState_VSA9>
4.42

>  <EState_VSA10>
0

>  <VSA_EState1>
5.83

>  <VSA_EState2>
10.94

>  <VSA_EState3>
6.7

>  <VSA_EState4>
3.52

>  <VSA_EState5>
4.79

>  <VSA_EState6>
8.31

>  <VSA_EState7>
4.78

>  <VSA_EState8>
4.52

>  <VSA_EState9>
4.09

>  <apol>
63.61

>  <bpol>
38.42

>  <nRing>
3

>  <nHRing>
3

>  <naRing>
2

>  <naHRing>
2

>  <nARing 2>
1

>  <nAHRing 2>
1

>  <nFRing>
0

>  <nFHRing>
0

>  <nFaRing>
0

>  <nFaHRing>
0

>  <nFARing 2>
0

>  <nFAHRing 2>
0

>  <nRot>
9

>  <SLogP>
2.95

>  <SMR>
116.46

>  <TopoPSA(NO)>
65.69

>  <TopoPSA>
90.99

>  <JGI1>
0.2

>  <JGI2>
0.05

>  <JGI3>
0.04

>  <JGI4>
0.03

>  <JGI5>
0.02

>  <Diameter>
20

>  <Radius>
10

>  <TMWC10>
131.8

>  <TSRW10>
76.02

>  <MW>
399.21

>  <AMW>
7

>  <WPath>
2834

>  <WPol>
34

>  <Zagreb1>
138

>  <Zagreb2>
153

>  <mZagreb2>
6.25

>  <yes>


>  <nAR-cont>
0.816016

>  <nHA-cont>
0.82432561

>  <MWHBN>
0.450445034

>  <MWHBN-cont>
0

>  <TPSA-cont>
0.364833299

>  <pka_cont>
0.97

>  <yes.1>


>  <BBB_SCORE>
2.855008207

>  <MMFF94 Energy>
-77.215

$$$$
Compound 1647
Actelion Java MolfileCreator 2.0

  0  0  0  0  0  0              0 V3000
M  V30 BEGIN CTAB
M  V30 COUNTS 42 44 0 0 0
M  V30 BEGIN ATOM
M  V30 1 N -0.5538 0.4746 1.0287 0
M  V30 2 C -0.8996 -0.7508 0.4567 0
M  V30 3 C -0.7575 1.649 0.1628 0
M  V30 4 C -0.939 0.6776 2.4327 0
M  V30 5 C 0.0995 -1.6469 0.0295 0
M  V30 6 C -2.2481 -1.1134 0.2908 0
M  V30 7 C -0.0931 2.8973 0.7865 0
M  V30 8 C -0.2572 1.947 2.9922 0
M  V30 9 C -0.2747 -2.8783 -0.5394 0
M  V30 10 C 1.574 -1.3242 0.1755 0
M  V30 11 C -2.618 -2.3334 -0.2911 0
M  V30 12 N -0.5078 3.157 2.1823 0
M  V30 13 C -1.6185 -3.2198 -0.693 0
M  V30 14 C 2.1398 -0.3632 -0.8501 0
M  V30 15 C -4.0652 -2.7021 -0.4239 0
M  V30 16 C 1.9394 -0.5546 -2.225 0
M  V30 17 C 2.9258 0.7211 -0.4312 0
M  V30 18 C 2.4909 0.3295 -3.1546 0
M  V30 19 C 3.4776 1.6043 -1.3612 0
M  V30 20 C 3.2583 1.4092 -2.7227 0
M  V30 21 H -0.3259 1.4795 -0.8305 0
M  V30 22 H -1.8312 1.8376 0.0325 0
M  V30 23 H -0.6312 -0.1826 3.0395 0
M  V30 24 H -2.028 0.782 2.5203 0
M  V30 25 H -3.0244 -0.4246 0.6168 0
M  V30 26 H -0.3418 3.7746 0.1795 0
M  V30 27 H 0.9973 2.7858 0.7564 0
M  V30 28 H -0.6186 2.1268 4.0105 0
M  V30 29 H 0.8252 1.7789 3.0597 0
M  V30 30 H 0.4873 -3.582 -0.8668 0
M  V30 31 H 2.1638 -2.2494 0.1233 0
M  V30 32 H 1.7437 -0.9434 1.1916 0
M  V30 33 H 0.0506 3.9245 2.5527 0
M  V30 34 H -1.8773 -4.181 -1.1304 0
M  V30 35 H -4.6796 -1.8132 -0.6024 0
M  V30 36 H -4.4113 -3.1947 0.49 0
M  V30 37 H -4.221 -3.379 -1.2706 0
M  V30 38 H 1.3443 -1.3914 -2.5827 0
M  V30 39 H 3.1044 0.8877 0.6288 0
M  V30 40 H 2.3206 0.1731 -4.2164 0
M  V30 41 H 4.0797 2.4428 -1.0218 0
M  V30 42 H 3.6877 2.0955 -3.4475 0
M  V30 END ATOM
M  V30 BEGIN BOND
M  V30 1 1 1 2
M  V30 2 1 1 3
M  V30 3 1 1 4
M  V30 4 2 2 5
M  V30 5 1 2 6
M  V30 6 1 3 7
M  V30 7 1 4 8
M  V30 8 1 5 9
M  V30 9 1 5 10
M  V30 10 2 6 11
M  V30 11 1 7 12
M  V30 12 2 9 13
M  V30 13 1 10 14
M  V30 14 1 11 15
M  V30 15 2 14 16
M  V30 16 1 14 17
M  V30 17 1 16 18
M  V30 18 2 17 19
M  V30 19 2 18 20
M  V30 20 1 8 12
M  V30 21 1 11 13
M  V30 22 1 19 20
M  V30 23 1 3 21
M  V30 24 1 3 22
M  V30 25 1 4 23
M  V30 26 1 4 24
M  V30 27 1 6 25
M  V30 28 1 7 26
M  V30 29 1 7 27
M  V30 30 1 8 28
M  V30 31 1 8 29
M  V30 32 1 9 30
M  V30 33 1 10 31
M  V30 34 1 10 32
M  V30 35 1 12 33
M  V30 36 1 13 34
M  V30 37 1 15 35
M  V30 38 1 15 36
M  V30 39 1 15 37
M  V30 40 1 16 38
M  V30 41 1 17 39
M  V30 42 1 18 40
M  V30 43 1 19 41
M  V30 44 1 20 42
M  V30 END BOND
M  V30 END CTAB
M  END
>  <Column 1>
2001

>  <level_0>
2174

>  <index>
2174

>  <Unnamed: 0>
2174

>  <NO.>
2186

>  <Name>
delfaprazine

>  <IUPAC_name>
1-(2-benzyl-5-methylphenyl)piperazine

>  <SMILES>
Cc1ccc(Cc2ccccc2)c(N2CCNCC2)c1

>  <CID>
205972

>  <logBB>


>  <BBB+/BBB->
BBB+

>  <Inchi>
InChI=1S/C18H22N2/c1-15-7-8-17(14-16-5-3-2-4-6-16)18(13-15)20-11-9-19-10-12-20/h2-8-13-19H-9-12-14H2-1H3

>  <threshold>
-1

>  <reference>
R1|R13|R19|R6|R24|R27|R27|R27|R30|R30|

>  <group>
B

>  <Class>
1

>  <ABC>
15.58

>  <ABCGG>
12.44

>  <nAcid>
0

>  <nBase>
1

>  <nAromAtom>
12

>  <nAromBond>
12

>  <nAtom>
42

>  <nHeavyAtom>
20

>  <nSpiro>
0

>  <nBridgehead>
0

>  <nHetero>
2

>  <nN>
2

>  <nO>
0

>  <nF>
0

>  <BalabanJ>
1.59

>  <BertzCT>
556.89

>  <nBonds>
44

>  <nBondsO>
22

>  <nBondsS>
32

>  <nBondsD>
0

>  <nBondsT>
0

>  <nBondsA>
12

>  <nBondsM>
12

>  <nBondsKS>
38

>  <nBondsKD>
6

>  <RNCG>
0.29

>  <RPCG>
0.09

>  <FCSP3>
0.33

>  <SZ>
24

>  <Sm>
22.18

>  <Sv>
25.48

>  <Sse>
41.09

>  <Sp>
28.1

>  <Si>
47.15

>  <MZ>
0.57

>  <Mm>
0.53

>  <Mv>
0.61

>  <Mse>
0.98

>  <Mp>
0.67

>  <Mi>
1.12

>  <NsCH3>
1

>  <NdCH2>
0

>  <NssCH2>
5

>  <NtCH>
0

>  <NdsCH>
0

>  <NaaCH>
8

>  <NsssCH>
0

>  <NddC>
0

>  <NtsC>
0

>  <NdssC>
0

>  <NaasC>
4

>  <NaaaC>
0

>  <NssssC>
0

>  <NsNH3>
0

>  <NsNH2>
0

>  <NssNH2>
0

>  <NdNH>
0

>  <NssNH>
1

>  <NaaNH>
0

>  <NtN>
0

>  <NsssNH>
0

>  <NdsN>
0

>  <NaaN>
0

>  <NsssN>
1

>  <NddsN>
0

>  <NaasN>
0

>  <NssssN>
0

>  <NsOH>
0

>  <NdO>
0

>  <NssO>
0

>  <NaaO>
0

>  <NsF>
0

>  <NsSiH3>
0

>  <NssSiH2>
0

>  <NsssSiH>
0

>  <NssssSi>
0

>  <NsPH2>
0

>  <NssPH>
0

>  <NsssP>
0

>  <NdsssP>
0

>  <NsssssP>
0

>  <NsSH>
0

>  <NdS>
0

>  <NssS>
0

>  <NaaS>
0

>  <NdssS>
0

>  <NddssS>
0

>  <NsCl>
0

>  <NsBr>
0

>  <NsI>
0

>  <fragCpx>
104.02

>  <fMF>
0.45

>  <nHBAcc>
2

>  <nHBDon>
1

>  <Kier1>
14.92

>  <Kier2>
7.32

>  <Lipinski>
1

>  <GhoseFilter>
1

>  <FilterItLogS>
-4.99

>  <VMcGowan>
226.06

>  <LabuteASA>
120.98

>  <PEOE_VSA1>
10.22

>  <PEOE_VSA2>
0

>  <PEOE_VSA3>
0

>  <PEOE_VSA4>
0

>  <PEOE_VSA5>
0

>  <PEOE_VSA6>
42.46

>  <PEOE_VSA7>
36.1

>  <PEOE_VSA8>
31.87

>  <PEOE_VSA9>
0

>  <PEOE_VSA10>
0

>  <PEOE_VSA11>
0

>  <PEOE_VSA12>
0

>  <PEOE_VSA13>
0

>  <SMR_VSA1>
0

>  <SMR_VSA2>
0

>  <SMR_VSA3>
5.32

>  <SMR_VSA4>
0

>  <SMR_VSA5>
13.34

>  <SMR_VSA6>
31.08

>  <SMR_VSA7>
65.22

>  <SMR_VSA8>
0

>  <SMR_VSA9>
0

>  <SlogP_VSA1>
10.22

>  <SlogP_VSA2>
26.18

>  <SlogP_VSA3>
6.42

>  <SlogP_VSA4>
6.92

>  <SlogP_VSA5>
16.69

>  <SlogP_VSA6>
48.53

>  <SlogP_VSA7>
0

>  <SlogP_VSA8>
0

>  <SlogP_VSA9>
0

>  <SlogP_VSA10>
5.69

>  <SlogP_VSA11>
0

>  <EState_VSA1>
0

>  <EState_VSA2>
0

>  <EState_VSA3>
0

>  <EState_VSA4>
32.6

>  <EState_VSA5>
22.38

>  <EState_VSA6>
0

>  <EState_VSA7>
0

>  <EState_VSA8>
65.67

>  <EState_VSA9>
0

>  <EState_VSA10>
0

>  <VSA_EState1>
0

>  <VSA_EState2>
2.52

>  <VSA_EState3>
3.43

>  <VSA_EState4>
5.57

>  <VSA_EState5>
0

>  <VSA_EState6>
17.59

>  <VSA_EState7>
1.01

>  <VSA_EState8>
6.55

>  <VSA_EState9>
0

>  <apol>
46.93

>  <bpol>
24.35

>  <nRing>
3

>  <nHRing>
1

>  <naRing>
2

>  <naHRing>
0

>  <nARing 2>
1

>  <nAHRing 2>
1

>  <nFRing>
0

>  <nFHRing>
0

>  <nFaRing>
0

>  <nFaHRing>
0

>  <nFARing 2>
0

>  <nFAHRing 2>
0

>  <nRot>
3

>  <SLogP>
3

>  <SMR>
85.51

>  <TopoPSA(NO)>
15.27

>  <TopoPSA>
15.27

>  <JGI1>
0.14

>  <JGI2>
0.05

>  <JGI3>
0.03

>  <JGI4>
0.04

>  <JGI5>
0.02

>  <Diameter>
10

>  <Radius>
5

>  <TMWC10>
114.27

>  <TSRW10>
53.37

>  <MW>
266.18

>  <AMW>
6.34

>  <WPath>
812

>  <WPol>
28

>  <Zagreb1>
102

>  <Zagreb2>
117

>  <mZagreb2>
4.47

>  <yes>


>  <nAR-cont>
0.816016

>  <nHA-cont>
0.999629945

>  <MWHBN>
0.183879597

>  <MWHBN-cont>
0.991000965

>  <TPSA-cont>
0.893405918

>  <pka_cont>
0.97

>  <yes.1>


>  <BBB_SCORE>
5.573959228

>  <MMFF94 Energy>
128.48

$$$$
Compound 1648
Actelion Java MolfileCreator 2.0

  0  0  0  0  0  0              0 V3000
M  V30 BEGIN CTAB
M  V30 COUNTS 52 55 0 0 0
M  V30 BEGIN ATOM
M  V30 1 Cl 0.0826 -0.7437 -2.1497 0
M  V30 2 C 0.6485 -2.3638 -1.9554 0
M  V30 3 C 1.6417 -2.7259 -1.0351 0
M  V30 4 C 0.0378 -3.3491 -2.7399 0
M  V30 5 C 2.3687 -1.7485 -0.1703 0
M  V30 6 C 1.987 -4.079 -0.8875 0
M  V30 7 C 0.4024 -4.6896 -2.6022 0
M  V30 8 N 2.4552 -2.0288 1.0887 0
M  V30 9 C 2.9997 -0.5545 -0.8014 0
M  V30 10 C 1.3722 -5.0552 -1.6721 0
M  V30 11 C 3.1671 -1.0958 1.9696 0
M  V30 12 C 2.9182 0.7239 -0.2169 0
M  V30 13 C 3.7232 -0.7476 -1.9902 0
M  V30 14 C 2.3264 0.1636 2.1225 0
M  V30 15 N 2.2068 0.9741 0.991 0
M  V30 16 C 3.5869 1.7897 -0.8415 0
M  V30 17 C 4.3574 0.3301 -2.6001 0
M  V30 18 O 1.7695 0.4387 3.1877 0
M  V30 19 C 1.2834 2.1159 1.057 0
M  V30 20 C 4.2954 1.5966 -2.0303 0
M  V30 21 Cl 5.2391 0.0893 -4.0562 0
M  V30 22 C -0.1702 1.6678 1.0908 0
M  V30 23 S -1.2391 3.0757 0.941 0
M  V30 24 O -1.0846 3.6182 -0.3964 0
M  V30 25 O -1.0571 3.9235 2.1035 0
M  V30 26 C -2.8614 2.3607 1.0444 0
M  V30 27 C -3.5223 1.977 -0.1241 0
M  V30 28 C -3.4723 2.2185 2.2916 0
M  V30 29 C -4.7987 1.4193 -0.0377 0
M  V30 30 C -4.7487 1.6597 2.3697 0
M  V30 31 C -5.4147 1.2424 1.2089 0
M  V30 32 C -6.802 0.6762 1.2948 0
M  V30 33 H -0.7357 -3.0806 -3.4561 0
M  V30 34 H 2.7381 -4.3746 -0.157 0
M  V30 35 H -0.0807 -5.45 -3.2116 0
M  V30 36 H 1.6471 -6.1007 -1.552 0
M  V30 37 H 3.2719 -1.5597 2.9564 0
M  V30 38 H 4.1795 -0.866 1.6204 0
M  V30 39 H 3.8095 -1.7353 -2.4358 0
M  V30 40 H 3.5832 2.7853 -0.4021 0
M  V30 41 H 1.4433 2.7886 0.2087 0
M  V30 42 H 1.5172 2.6889 1.9629 0
M  V30 43 H 4.8018 2.4378 -2.4979 0
M  V30 44 H -0.4154 1.1612 2.0285 0
M  V30 45 H -0.3938 0.9945 0.2595 0
M  V30 46 H -3.0607 2.1132 -1.0994 0
M  V30 47 H -2.9709 2.5423 3.2013 0
M  V30 48 H -5.3147 1.1275 -0.9503 0
M  V30 49 H -5.2247 1.5554 3.3429 0
M  V30 50 H -7.5395 1.4821 1.2313 0
M  V30 51 H -6.9839 -0.0355 0.4829 0
M  V30 52 H -6.946 0.1372 2.2371 0
M  V30 END ATOM
M  V30 BEGIN BOND
M  V30 1 1 1 2
M  V30 2 2 2 3
M  V30 3 1 2 4
M  V30 4 1 3 5
M  V30 5 1 3 6
M  V30 6 2 4 7
M  V30 7 2 5 8
M  V30 8 1 5 9
M  V30 9 2 6 10
M  V30 10 1 8 11
M  V30 11 2 9 12
M  V30 12 1 9 13
M  V30 13 1 11 14
M  V30 14 1 12 15
M  V30 15 1 12 16
M  V30 16 2 13 17
M  V30 17 2 14 18
M  V30 18 1 15 19
M  V30 19 2 16 20
M  V30 20 1 17 21
M  V30 21 1 19 22
M  V30 22 1 22 23
M  V30 23 2 23 24
M  V30 24 2 23 25
M  V30 25 1 23 26
M  V30 26 2 26 27
M  V30 27 1 26 28
M  V30 28 1 27 29
M  V30 29 2 28 30
M  V30 30 2 29 31
M  V30 31 1 31 32
M  V30 32 1 7 10
M  V30 33 1 14 15
M  V30 34 1 17 20
M  V30 35 1 30 31
M  V30 36 1 4 33
M  V30 37 1 6 34
M  V30 38 1 7 35
M  V30 39 1 10 36
M  V30 40 1 11 37
M  V30 41 1 11 38
M  V30 42 1 13 39
M  V30 43 1 16 40
M  V30 44 1 19 41
M  V30 45 1 19 42
M  V30 46 1 20 43
M  V30 47 1 22 44
M  V30 48 1 22 45
M  V30 49 1 27 46
M  V30 50 1 28 47
M  V30 51 1 29 48
M  V30 52 1 30 49
M  V30 53 1 32 50
M  V30 54 1 32 51
M  V30 55 1 32 52
M  V30 END BOND
M  V30 END CTAB
M  END
>  <Column 1>
2002

>  <level_0>
2175

>  <index>
2175

>  <Unnamed: 0>
2175

>  <NO.>
2187

>  <Name>
tolufazepam

>  <IUPAC_name>
7-chloro-5-(2-chlorophenyl)-1-[2-(4-methylphenyl)sulfonylethyl]-3h-1-4-benzodiazepin-2-one

>  <SMILES>
Cc1ccc(S(=O)(=O)CCN2C(=O)CN=C(c3ccccc3Cl)c3cc(Cl)ccc32)cc1

>  <CID>
65647

>  <logBB>


>  <BBB+/BBB->
BBB+

>  <Inchi>
InChI=1S/C24H20Cl2N2O3S/c1-16-6-9-18(10-7-16)32(30-31)13-12-28-22-11-8-17(25)14-20(22)24(27-15-23(28)29)19-4-2-3-5-21(19)26/h2-11-14H-12-13-15H2-1H3

>  <threshold>
-1

>  <reference>
R1|R13|R19|R6|R24|R27|R27|R27|R30|R30|

>  <group>
B

>  <Class>
-1

>  <ABC>
25.2

>  <ABCGG>
19.6

>  <nAcid>
0

>  <nBase>
0

>  <nAromAtom>
18

>  <nAromBond>
18

>  <nAtom>
52

>  <nHeavyAtom>
32

>  <nSpiro>
0

>  <nBridgehead>
0

>  <nHetero>
8

>  <nN>
2

>  <nO>
3

>  <nF>
0

>  <BalabanJ>
1.47

>  <BertzCT>
1319.33

>  <nBonds>
55

>  <nBondsO>
35

>  <nBondsS>
33

>  <nBondsD>
4

>  <nBondsT>
0

>  <nBondsA>
18

>  <nBondsM>
22

>  <nBondsKS>
42

>  <nBondsKD>
13

>  <RNCG>
0.15

>  <RPCG>
0.12

>  <FCSP3>
0.17

>  <SZ>
42

>  <Sm>
40.58

>  <Sv>
36.45

>  <Sse>
52.8

>  <Sp>
39.09

>  <Si>
57.59

>  <MZ>
0.81

>  <Mm>
0.78

>  <Mv>
0.7

>  <Mse>
1.02

>  <Mp>
0.75

>  <Mi>
1.11

>  <NsCH3>
1

>  <NdCH2>
0

>  <NssCH2>
3

>  <NtCH>
0

>  <NdsCH>
0

>  <NaaCH>
11

>  <NsssCH>
0

>  <NddC>
0

>  <NtsC>
0

>  <NdssC>
2

>  <NaasC>
7

>  <NaaaC>
0

>  <NssssC>
0

>  <NsNH3>
0

>  <NsNH2>
0

>  <NssNH2>
0

>  <NdNH>
0

>  <NssNH>
0

>  <NaaNH>
0

>  <NtN>
0

>  <NsssNH>
0

>  <NdsN>
1

>  <NaaN>
0

>  <NsssN>
1

>  <NddsN>
0

>  <NaasN>
0

>  <NssssN>
0

>  <NsOH>
0

>  <NdO>
3

>  <NssO>
0

>  <NaaO>
0

>  <NsF>
0

>  <NsSiH3>
0

>  <NssSiH2>
0

>  <NsssSiH>
0

>  <NssssSi>
0

>  <NsPH2>
0

>  <NssPH>
0

>  <NsssP>
0

>  <NdsssP>
0

>  <NsssssP>
0

>  <NsSH>
0

>  <NdS>
0

>  <NssS>
0

>  <NaaS>
0

>  <NdssS>
0

>  <NddssS>
1

>  <NsCl>
2

>  <NsBr>
0

>  <NsI>
0

>  <fragCpx>
233.08

>  <fMF>
0.5

>  <nHBAcc>
4

>  <nHBDon>
0

>  <Kier1>
25.1

>  <Kier2>
10.73

>  <Lipinski>
1

>  <GhoseFilter>
0

>  <FilterItLogS>
-8.04

>  <VMcGowan>
336.68

>  <LabuteASA>
196.78

>  <PEOE_VSA1>
4.9

>  <PEOE_VSA2>
9.79

>  <PEOE_VSA3>
8.42

>  <PEOE_VSA4>
0

>  <PEOE_VSA5>
0

>  <PEOE_VSA6>
59.1

>  <PEOE_VSA7>
43.32

>  <PEOE_VSA8>
27.72

>  <PEOE_VSA9>
22.05

>  <PEOE_VSA10>
6.54

>  <PEOE_VSA11>
9.84

>  <PEOE_VSA12>
5.91

>  <PEOE_VSA13>
0

>  <SMR_VSA1>
13.21

>  <SMR_VSA2>
0

>  <SMR_VSA3>
0

>  <SMR_VSA4>
4.99

>  <SMR_VSA5>
11.82

>  <SMR_VSA6>
23.74

>  <SMR_VSA7>
93.47

>  <SMR_VSA8>
0

>  <SMR_VSA9>
0

>  <SlogP_VSA1>
4.9

>  <SlogP_VSA2>
38.88

>  <SlogP_VSA3>
14.63

>  <SlogP_VSA4>
6.92

>  <SlogP_VSA5>
16.69

>  <SlogP_VSA6>
76.62

>  <SlogP_VSA7>
10.05

>  <SlogP_VSA8>
0

>  <SlogP_VSA9>
0

>  <SlogP_VSA10>
5.69

>  <SlogP_VSA11>
0

>  <EState_VSA1>
9.84

>  <EState_VSA2>
29.65

>  <EState_VSA3>
32.57

>  <EState_VSA4>
5.56

>  <EState_VSA5>
4.9

>  <EState_VSA6>
48.53

>  <EState_VSA7>
25.12

>  <EState_VSA8>
4.99

>  <EState_VSA9>
23.2

>  <EState_VSA10>
13.21

>  <VSA_EState1>
25.74

>  <VSA_EState2>
19.19

>  <VSA_EState3>
0.98

>  <VSA_EState4>
3.38

>  <VSA_EState5>
-0.51

>  <VSA_EState6>
19.02

>  <VSA_EState7>
0

>  <VSA_EState8>
1.76

>  <VSA_EState9>
-3.57

>  <apol>
65.28

>  <bpol>
31.46

>  <nRing>
4

>  <nHRing>
1

>  <naRing>
3

>  <naHRing>
0

>  <nARing 2>
1

>  <nAHRing 2>
1

>  <nFRing>
1

>  <nFHRing>
1

>  <nFaRing>
0

>  <nFaHRing>
0

>  <nFARing 2>
1

>  <nFAHRing 2>
1

>  <nRot>
5

>  <SLogP>
4.96

>  <SMR>
128.99

>  <TopoPSA(NO)>
66.81

>  <TopoPSA>
75.19

>  <JGI1>
0.21

>  <JGI2>
0.1

>  <JGI3>
0.05

>  <JGI4>
0.04

>  <JGI5>
0.03

>  <Diameter>
15

>  <Radius>
8

>  <TMWC10>
145.31

>  <TSRW10>
76.38

>  <MW>
486.06

>  <AMW>
9.35

>  <WPath>
2864

>  <WPol>
58

>  <Zagreb1>
172

>  <Zagreb2>
204

>  <mZagreb2>
6.88

>  <yes>


>  <nAR-cont>
0.816016

>  <nHA-cont>
0.658856097

>  <MWHBN>
0.181432485

>  <MWHBN-cont>
0.988662721

>  <TPSA-cont>
0.47512711

>  <pka_cont>
0.97

>  <yes.1>


>  <BBB_SCORE>
4.393120397

>  <MMFF94 Energy>
130.76

$$$$
Compound 1649
Actelion Java MolfileCreator 2.0

  0  0  0  0  0  0              0 V3000
M  V30 BEGIN CTAB
M  V30 COUNTS 42 43 0 0 0
M  V30 BEGIN ATOM
M  V30 1 S 0.9604 2.242 -0.8803 0
M  V30 2 O 2.0793 3.0721 -0.4929 0
M  V30 3 O 0.6627 2.0149 -2.2811 0
M  V30 4 N 1.1139 0.751 -0.2049 0
M  V30 5 C -0.5163 2.8737 -0.1243 0
M  V30 6 C 1.356 0.4592 1.1267 0
M  V30 7 C -1.7593 2.5969 -0.7002 0
M  V30 8 C -0.4233 3.6811 1.011 0
M  V30 9 O 1.4788 1.2949 2.0097 0
M  V30 10 N 1.4305 -0.8907 1.3915 0
M  V30 11 C -2.9181 3.1167 -0.1201 0
M  V30 12 C -1.5858 4.1961 1.5873 0
M  V30 13 N 1.2654 -1.8678 0.3801 0
M  V30 14 C -2.8394 3.9276 1.0206 0
M  V30 15 C 0.0919 -2.7044 0.6663 0
M  V30 16 C 2.5109 -2.6161 0.1669 0
M  V30 17 C -4.0885 4.4591 1.6608 0
M  V30 18 C -0.1061 -3.9149 -0.248 0
M  V30 19 C 2.5766 -3.3903 -1.1632 0
M  V30 20 C 0.078 -3.6327 -1.7386 0
M  V30 21 C 1.4483 -3.0785 -2.1482 0
M  V30 22 H 0.9986 -0.0471 -0.8203 0
M  V30 23 H -1.8339 1.9848 -1.5959 0
M  V30 24 H 0.5448 3.9009 1.4575 0
M  V30 25 H 1.6154 -1.1531 2.3547 0
M  V30 26 H -3.8842 2.8924 -0.5677 0
M  V30 27 H -1.5059 4.8118 2.4811 0
M  V30 28 H -0.8009 -2.0705 0.5878 0
M  V30 29 H 0.1265 -3.0675 1.7024 0
M  V30 30 H 3.3466 -1.9025 0.153 0
M  V30 31 H 2.7136 -3.2934 1.0068 0
M  V30 32 H -3.8972 5.4182 2.1538 0
M  V30 33 H -4.8693 4.6294 0.9121 0
M  V30 34 H -4.4598 3.7467 2.404 0
M  V30 35 H 0.5662 -4.7245 0.0611 0
M  V30 36 H -1.1203 -4.3038 -0.0905 0
M  V30 37 H 2.6039 -4.4685 -0.9642 0
M  V30 38 H 3.5312 -3.1522 -1.6498 0
M  V30 39 H -0.7036 -2.947 -2.088 0
M  V30 40 H -0.0863 -4.5751 -2.2768 0
M  V30 41 H 1.7068 -3.4939 -3.1304 0
M  V30 42 H 1.3787 -1.994 -2.2999 0
M  V30 END ATOM
M  V30 BEGIN BOND
M  V30 1 2 1 2
M  V30 2 2 1 3
M  V30 3 1 1 4
M  V30 4 1 1 5
M  V30 5 1 4 6
M  V30 6 2 5 7
M  V30 7 1 5 8
M  V30 8 2 6 9
M  V30 9 1 6 10
M  V30 10 1 7 11
M  V30 11 2 8 12
M  V30 12 1 10 13
M  V30 13 2 11 14
M  V30 14 1 13 15
M  V30 15 1 13 16
M  V30 16 1 14 17
M  V30 17 1 15 18
M  V30 18 1 16 19
M  V30 19 1 18 20
M  V30 20 1 19 21
M  V30 21 1 12 14
M  V30 22 1 20 21
M  V30 23 1 4 22
M  V30 24 1 7 23
M  V30 25 1 8 24
M  V30 26 1 10 25
M  V30 27 1 11 26
M  V30 28 1 12 27
M  V30 29 1 15 28
M  V30 30 1 15 29
M  V30 31 1 16 30
M  V30 32 1 16 31
M  V30 33 1 17 32
M  V30 34 1 17 33
M  V30 35 1 17 34
M  V30 36 1 18 35
M  V30 37 1 18 36
M  V30 38 1 19 37
M  V30 39 1 19 38
M  V30 40 1 20 39
M  V30 41 1 20 40
M  V30 42 1 21 41
M  V30 43 1 21 42
M  V30 END BOND
M  V30 END CTAB
M  END
>  <Column 1>
2003

>  <level_0>
2176

>  <index>
2176

>  <Unnamed: 0>
2176

>  <NO.>
2188

>  <Name>
tolazamide

>  <IUPAC_name>
1-(azepan-1-yl)-3-(4-methylphenyl)sulfonylurea

>  <SMILES>
Cc1ccc(S(=O)(=O)NC(=O)NN2CCCCCC2)cc1

>  <CID>
5503

>  <logBB>


>  <BBB+/BBB->
BBB-

>  <Inchi>
InChI=1S/C14H21N3O3S/c1-12-6-8-13(9-7-12)21(19-20)16-14(18)15-17-10-4-2-3-5-11-17/h6-9H-2-5-10-11H2-1H3-(H2-15-16-18)

>  <threshold>
-1

>  <reference>
R1|R13|R14|R15|R23|R27|R30|

>  <group>
B

>  <Class>
1

>  <ABC>
16.03

>  <ABCGG>
13.44

>  <nAcid>
0

>  <nBase>
0

>  <nAromAtom>
6

>  <nAromBond>
6

>  <nAtom>
42

>  <nHeavyAtom>
21

>  <nSpiro>
0

>  <nBridgehead>
0

>  <nHetero>
7

>  <nN>
3

>  <nO>
3

>  <nF>
0

>  <BalabanJ>
1.78

>  <BertzCT>
575.99

>  <nBonds>
43

>  <nBondsO>
22

>  <nBondsS>
34

>  <nBondsD>
3

>  <nBondsT>
0

>  <nBondsA>
6

>  <nBondsM>
9

>  <nBondsKS>
37

>  <nBondsKD>
6

>  <RNCG>
0.15

>  <RPCG>
0.19

>  <FCSP3>
0.5

>  <SZ>
27.67

>  <Sm>
25.93

>  <Sv>
25.29

>  <Sse>
42.38

>  <Sp>
27.54

>  <Si>
47.78

>  <MZ>
0.66

>  <Mm>
0.62

>  <Mv>
0.6

>  <Mse>
1.01

>  <Mp>
0.66

>  <Mi>
1.14

>  <NsCH3>
1

>  <NdCH2>
0

>  <NssCH2>
6

>  <NtCH>
0

>  <NdsCH>
0

>  <NaaCH>
4

>  <NsssCH>
0

>  <NddC>
0

>  <NtsC>
0

>  <NdssC>
1

>  <NaasC>
2

>  <NaaaC>
0

>  <NssssC>
0

>  <NsNH3>
0

>  <NsNH2>
0

>  <NssNH2>
0

>  <NdNH>
0

>  <NssNH>
2

>  <NaaNH>
0

>  <NtN>
0

>  <NsssNH>
0

>  <NdsN>
0

>  <NaaN>
0

>  <NsssN>
1

>  <NddsN>
0

>  <NaasN>
0

>  <NssssN>
0

>  <NsOH>
0

>  <NdO>
3

>  <NssO>
0

>  <NaaO>
0

>  <NsF>
0

>  <NsSiH3>
0

>  <NssSiH2>
0

>  <NsssSiH>
0

>  <NssssSi>
0

>  <NsPH2>
0

>  <NssPH>
0

>  <NsssP>
0

>  <NdsssP>
0

>  <NsssssP>
0

>  <NsSH>
0

>  <NdS>
0

>  <NssS>
0

>  <NaaS>
0

>  <NdssS>
0

>  <NddssS>
1

>  <NsCl>
0

>  <NsBr>
0

>  <NsI>
0

>  <fragCpx>
64.07

>  <fMF>
0.4

>  <nHBAcc>
4

>  <nHBDon>
2

>  <Kier1>
17.36

>  <Kier2>
8.02

>  <Lipinski>
1

>  <GhoseFilter>
1

>  <FilterItLogS>
-3.14

>  <VMcGowan>
233.1

>  <LabuteASA>
125.1

>  <PEOE_VSA1>
0

>  <PEOE_VSA2>
5.43

>  <PEOE_VSA3>
22.94

>  <PEOE_VSA4>
0

>  <PEOE_VSA5>
0

>  <PEOE_VSA6>
30.54

>  <PEOE_VSA7>
31.9

>  <PEOE_VSA8>
13.09

>  <PEOE_VSA9>
4.9

>  <PEOE_VSA10>
0

>  <PEOE_VSA11>
0

>  <PEOE_VSA12>
0

>  <PEOE_VSA13>
10.02

>  <SMR_VSA1>
13.21

>  <SMR_VSA2>
0

>  <SMR_VSA3>
15.16

>  <SMR_VSA4>
0

>  <SMR_VSA5>
37.5

>  <SMR_VSA6>
13.09

>  <SMR_VSA7>
29.83

>  <SMR_VSA8>
0

>  <SMR_VSA9>
0

>  <SlogP_VSA1>
10.15

>  <SlogP_VSA2>
32.55

>  <SlogP_VSA3>
10.02

>  <SlogP_VSA4>
6.92

>  <SlogP_VSA5>
31.25

>  <SlogP_VSA6>
29.16

>  <SlogP_VSA7>
0

>  <SlogP_VSA8>
0

>  <SlogP_VSA9>
0

>  <SlogP_VSA10>
4.79

>  <SlogP_VSA11>
0

>  <EState_VSA1>
16.05

>  <EState_VSA2>
4.9

>  <EState_VSA3>
0

>  <EState_VSA4>
44.34

>  <EState_VSA5>
12.13

>  <EState_VSA6>
17.14

>  <EState_VSA7>
11.65

>  <EState_VSA8>
5.43

>  <EState_VSA9>
0

>  <EState_VSA10>
13.21

>  <VSA_EState1>
26.19

>  <VSA_EState2>
11.92

>  <VSA_EState3>
1.77

>  <VSA_EState4>
3.56

>  <VSA_EState5>
0

>  <VSA_EState6>
5.65

>  <VSA_EState7>
4.29

>  <VSA_EState8>
3.37

>  <VSA_EState9>
-3.82

>  <apol>
45.99

>  <bpol>
30.3

>  <nRing>
2

>  <nHRing>
1

>  <naRing>
1

>  <naHRing>
0

>  <nARing 2>
1

>  <nAHRing 2>
1

>  <nFRing>
0

>  <nFHRing>
0

>  <nFaRing>
0

>  <nFaHRing>
0

>  <nFARing 2>
0

>  <nFAHRing 2>
0

>  <nRot>
3

>  <SLogP>
1.77

>  <SMR>
80.07

>  <TopoPSA(NO)>
78.51

>  <TopoPSA>
86.89

>  <JGI1>
0.25

>  <JGI2>
0.08

>  <JGI3>
0.05

>  <JGI4>
0.03

>  <JGI5>
0.04

>  <Diameter>
12

>  <Radius>
6

>  <TMWC10>
114.89

>  <TSRW10>
62.02

>  <MW>
311.13

>  <AMW>
7.41

>  <WPath>
1014

>  <WPol>
31

>  <Zagreb1>
104

>  <Zagreb2>
116

>  <mZagreb2>
4.63

>  <yes>


>  <nAR-cont>
0.816016

>  <nHA-cont>
0.994529749

>  <MWHBN>
0.3401577

>  <MWHBN-cont>
0.706559416

>  <TPSA-cont>
0.393453845

>  <pka_cont>
0.97

>  <yes.1>


>  <BBB_SCORE>
4.142292563

>  <MMFF94 Energy>
-85.079

$$$$
Compound 1650
Actelion Java MolfileCreator 2.0

  0  0  0  0  0  0              0 V3000
M  V30 BEGIN CTAB
M  V30 COUNTS 44 47 0 0 0
M  V30 BEGIN ATOM
M  V30 1 S -3.1615 -0.4049 -1.3771 0
M  V30 2 C -2.2358 0.2766 -2.7492 0
M  V30 3 C -2.3924 0.541 -0.0762 0
M  V30 4 C -0.8297 0.2711 -2.7921 0
M  V30 5 C -2.9664 0.8775 -3.7873 0
M  V30 6 C -1.0108 0.5728 0.1348 0
M  V30 7 C -3.2189 1.3202 0.745 0
M  V30 8 N -0.0044 -0.425 -1.8955 0
M  V30 9 C -0.1912 0.8789 -3.8819 0
M  V30 10 C -2.3105 1.4855 -4.8579 0
M  V30 11 C -0.0694 -0.3363 -0.5946 0
M  V30 12 C -0.4636 1.4126 1.1209 0
M  V30 13 C -2.6739 2.1444 1.7349 0
M  V30 14 C -0.9206 1.4909 -4.903 0
M  V30 15 N 0.8135 -1.1079 0.1663 0
M  V30 16 C -1.2897 2.2146 1.9162 0
M  V30 17 C 1.9637 -1.7667 -0.4797 0
M  V30 18 C 0.3999 -1.7762 1.4128 0
M  V30 19 C -0.7028 3.0819 2.9896 0
M  V30 20 C 3.1292 -1.9454 0.5175 0
M  V30 21 C 1.5953 -1.936 2.3756 0
M  V30 22 N 2.7307 -2.6499 1.7557 0
M  V30 23 C 3.8554 -2.7419 2.6832 0
M  V30 24 H -4.0536 0.8858 -3.7606 0
M  V30 25 H -4.2985 1.3061 0.6086 0
M  V30 26 H 0.8943 0.8537 -3.9371 0
M  V30 27 H -2.8847 1.9519 -5.6541 0
M  V30 28 H 0.6148 1.427 1.2664 0
M  V30 29 H -3.341 2.7408 2.3543 0
M  V30 30 H -0.4012 1.9543 -5.7374 0
M  V30 31 H 2.3349 -1.168 -1.32 0
M  V30 32 H 1.6501 -2.7407 -0.8746 0
M  V30 33 H -0.0131 -2.7622 1.1649 0
M  V30 34 H -0.3897 -1.2282 1.9354 0
M  V30 35 H 0.2903 3.4416 2.7009 0
M  V30 36 H -0.6174 2.5163 3.9226 0
M  V30 37 H -1.3285 3.9633 3.1658 0
M  V30 38 H 3.925 -2.5095 0.0164 0
M  V30 39 H 3.5353 -0.9545 0.7634 0
M  V30 40 H 1.2531 -2.4914 3.2572 0
M  V30 41 H 1.9117 -0.9407 2.7163 0
M  V30 42 H 4.2277 -1.7564 2.9861 0
M  V30 43 H 3.5642 -3.2917 3.5851 0
M  V30 44 H 4.6827 -3.2978 2.2286 0
M  V30 END ATOM
M  V30 BEGIN BOND
M  V30 1 1 1 2
M  V30 2 1 1 3
M  V30 3 2 2 4
M  V30 4 1 2 5
M  V30 5 2 3 6
M  V30 6 1 3 7
M  V30 7 1 4 8
M  V30 8 1 4 9
M  V30 9 2 5 10
M  V30 10 1 6 11
M  V30 11 1 6 12
M  V30 12 2 7 13
M  V30 13 2 9 14
M  V30 14 1 11 15
M  V30 15 2 12 16
M  V30 16 1 15 17
M  V30 17 1 15 18
M  V30 18 1 16 19
M  V30 19 1 17 20
M  V30 20 1 18 21
M  V30 21 1 20 22
M  V30 22 1 22 23
M  V30 23 2 8 11
M  V30 24 1 10 14
M  V30 25 1 13 16
M  V30 26 1 21 22
M  V30 27 1 5 24
M  V30 28 1 7 25
M  V30 29 1 9 26
M  V30 30 1 10 27
M  V30 31 1 12 28
M  V30 32 1 13 29
M  V30 33 1 14 30
M  V30 34 1 17 31
M  V30 35 1 17 32
M  V30 36 1 18 33
M  V30 37 1 18 34
M  V30 38 1 19 35
M  V30 39 1 19 36
M  V30 40 1 19 37
M  V30 41 1 20 38
M  V30 42 1 20 39
M  V30 43 1 21 40
M  V30 44 1 21 41
M  V30 45 1 23 42
M  V30 46 1 23 43
M  V30 47 1 23 44
M  V30 END BOND
M  V30 END CTAB
M  END
>  <Column 1>
2004

>  <level_0>
2177

>  <index>
2177

>  <Unnamed: 0>
2177

>  <NO.>
2189

>  <Name>
metiapine

>  <IUPAC_name>
8-methyl-6-(4-methylpiperazin-1-yl)benzo[b][1-4]benzothiazepine

>  <SMILES>
Cc1ccc2c(c1)C(N1CCN(C)CC1)=Nc1ccccc1S2

>  <CID>
22047

>  <logBB>


>  <BBB+/BBB->
BBB+

>  <Inchi>
InChI=1S/C19H21N3S/c1-14-7-8-17-15(13-14)19(22-11-9-21(2)10-12-22)20-16-5-3-4-6-18(16)23-17/h3-8-13H-9-12H2-1-2H3

>  <threshold>
-1

>  <reference>
R1|R13|R19|R6|R24|R27|R27|R27|R30|R30|

>  <group>
B

>  <Class>
1

>  <ABC>
18.44

>  <ABCGG>
14.03

>  <nAcid>
0

>  <nBase>
3

>  <nAromAtom>
12

>  <nAromBond>
12

>  <nAtom>
44

>  <nHeavyAtom>
23

>  <nSpiro>
0

>  <nBridgehead>
0

>  <nHetero>
4

>  <nN>
3

>  <nO>
0

>  <nF>
0

>  <BalabanJ>
1.55

>  <BertzCT>
760.96

>  <nBonds>
47

>  <nBondsO>
26

>  <nBondsS>
34

>  <nBondsD>
1

>  <nBondsT>
0

>  <nBondsA>
12

>  <nBondsM>
13

>  <nBondsKS>
40

>  <nBondsKD>
7

>  <RNCG>
0.25

>  <RPCG>
0.1

>  <FCSP3>
0.32

>  <SZ>
28.67

>  <Sm>
26.93

>  <Sv>
28.15

>  <Sse>
43.39

>  <Sp>
31.1

>  <Si>
49.15

>  <MZ>
0.65

>  <Mm>
0.61

>  <Mv>
0.64

>  <Mse>
0.99

>  <Mp>
0.71

>  <Mi>
1.12

>  <NsCH3>
2

>  <NdCH2>
0

>  <NssCH2>
4

>  <NtCH>
0

>  <NdsCH>
0

>  <NaaCH>
7

>  <NsssCH>
0

>  <NddC>
0

>  <NtsC>
0

>  <NdssC>
1

>  <NaasC>
5

>  <NaaaC>
0

>  <NssssC>
0

>  <NsNH3>
0

>  <NsNH2>
0

>  <NssNH2>
0

>  <NdNH>
0

>  <NssNH>
0

>  <NaaNH>
0

>  <NtN>
0

>  <NsssNH>
0

>  <NdsN>
1

>  <NaaN>
0

>  <NsssN>
2

>  <NddsN>
0

>  <NaasN>
0

>  <NssssN>
0

>  <NsOH>
0

>  <NdO>
0

>  <NssO>
0

>  <NaaO>
0

>  <NsF>
0

>  <NsSiH3>
0

>  <NssSiH2>
0

>  <NsssSiH>
0

>  <NssssSi>
0

>  <NsPH2>
0

>  <NssPH>
0

>  <NsssP>
0

>  <NdsssP>
0

>  <NsssssP>
0

>  <NsSH>
0

>  <NdS>
0

>  <NssS>
1

>  <NaaS>
0

>  <NdssS>
0

>  <NddssS>
0

>  <NsCl>
0

>  <NsBr>
0

>  <NsI>
0

>  <fragCpx>
170.04

>  <fMF>
0.48

>  <nHBAcc>
4

>  <nHBDon>
0

>  <Kier1>
16.47

>  <Kier2>
7.09

>  <Lipinski>
1

>  <GhoseFilter>
1

>  <FilterItLogS>
-4.8

>  <VMcGowan>
251.32

>  <LabuteASA>
141.57

>  <PEOE_VSA1>
9.8

>  <PEOE_VSA2>
0

>  <PEOE_VSA3>
4.99

>  <PEOE_VSA4>
0

>  <PEOE_VSA5>
0

>  <PEOE_VSA6>
35.52

>  <PEOE_VSA7>
38.24

>  <PEOE_VSA8>
41.53

>  <PEOE_VSA9>
5.69

>  <PEOE_VSA10>
5.84

>  <PEOE_VSA11>
0

>  <PEOE_VSA12>
0

>  <PEOE_VSA13>
0

>  <SMR_VSA1>
0

>  <SMR_VSA2>
0

>  <SMR_VSA3>
9.8

>  <SMR_VSA4>
4.99

>  <SMR_VSA5>
16.71

>  <SMR_VSA6>
33.23

>  <SMR_VSA7>
53.59

>  <SMR_VSA8>
0

>  <SMR_VSA9>
0

>  <SlogP_VSA1>
0

>  <SlogP_VSA2>
48.86

>  <SlogP_VSA3>
0

>  <SlogP_VSA4>
6.92

>  <SlogP_VSA5>
11.13

>  <SlogP_VSA6>
57.25

>  <SlogP_VSA7>
0

>  <SlogP_VSA8>
0

>  <SlogP_VSA9>
0

>  <SlogP_VSA10>
5.69

>  <SlogP_VSA11>
0

>  <EState_VSA1>
0

>  <EState_VSA2>
0

>  <EState_VSA3>
0

>  <EState_VSA4>
37.7

>  <EState_VSA5>
20.92

>  <EState_VSA6>
0

>  <EState_VSA7>
11.76

>  <EState_VSA8>
66.24

>  <EState_VSA9>
4.99

>  <EState_VSA10>
0

>  <VSA_EState1>
0

>  <VSA_EState2>
12.44

>  <VSA_EState3>
0

>  <VSA_EState4>
3.65

>  <VSA_EState5>
1.13

>  <VSA_EState6>
15.18

>  <VSA_EState7>
0

>  <VSA_EState8>
6.42

>  <VSA_EState9>
2.19

>  <apol>
51.93

>  <bpol>
28.09

>  <nRing>
4

>  <nHRing>
2

>  <naRing>
2

>  <naHRing>
0

>  <nARing 2>
2

>  <nAHRing 2>
2

>  <nFRing>
1

>  <nFHRing>
1

>  <nFaRing>
0

>  <nFaHRing>
0

>  <nFARing 2>
1

>  <nFAHRing 2>
1

>  <nRot>
0

>  <SLogP>
3.79

>  <SMR>
97.01

>  <TopoPSA(NO)>
18.84

>  <TopoPSA>
44.14

>  <JGI1>
0.17

>  <JGI2>
0.07

>  <JGI3>
0.03

>  <JGI4>
0.05

>  <JGI5>
0.02

>  <Diameter>
10

>  <Radius>
5

>  <TMWC10>
124.51

>  <TSRW10>
65.77

>  <MW>
323.15

>  <AMW>
7.34

>  <WPath>
1075

>  <WPol>
41

>  <Zagreb1>
126

>  <Zagreb2>
150

>  <mZagreb2>
4.94

>  <yes>


>  <nAR-cont>
1

>  <nHA-cont>
0.967789328

>  <MWHBN>
0.222514292

>  <MWHBN-cont>
0.993253907

>  <TPSA-cont>
0.691875391

>  <pka_cont>
0.97

>  <yes.1>


>  <BBB_SCORE>
5.32642097

>  <MMFF94 Energy>
128.34

$$$$
Compound 1651
Actelion Java MolfileCreator 2.0

  0  0  0  0  0  0              0 V3000
M  V30 BEGIN CTAB
M  V30 COUNTS 33 35 0 0 0
M  V30 BEGIN ATOM
M  V30 1 N -0.3966 2.461 -1.1902 0
M  V30 2 C -0.6328 1.0207 -0.9931 0
M  V30 3 C 0.9316 2.8026 -0.6582 0
M  V30 4 C -0.4657 2.7881 -2.6164 0
M  V30 5 C -0.6618 0.6364 0.4927 0
M  V30 6 C 0.9495 2.6326 0.8553 0
M  V30 7 C -0.3529 -0.826 0.6633 0
M  V30 8 C 0.504 1.2513 1.3111 0
M  V30 9 C 0.9658 -0.9637 1.1065 0
M  V30 10 C -1.1502 -1.927 0.3938 0
M  V30 11 N 1.6004 0.2708 1.2795 0
M  V30 12 C 1.5335 -2.2128 1.242 0
M  V30 13 C -0.5951 -3.2042 0.5499 0
M  V30 14 C 0.7421 -3.3369 0.9793 0
M  V30 15 C -1.4303 -4.4268 0.3039 0
M  V30 16 H 0.1255 0.4379 -1.5362 0
M  V30 17 H -1.6001 0.7409 -1.432 0
M  V30 18 H 1.1628 3.8518 -0.881 0
M  V30 19 H 1.7196 2.194 -1.121 0
M  V30 20 H -0.3166 3.8627 -2.7705 0
M  V30 21 H -1.4572 2.5492 -3.017 0
M  V30 22 H 0.2844 2.2477 -3.2051 0
M  V30 23 H -1.6204 0.909 0.9495 0
M  V30 24 H 0.2675 3.3758 1.2907 0
M  V30 25 H 1.9495 2.8645 1.2412 0
M  V30 26 H 0.1909 1.3297 2.3633 0
M  V30 27 H -2.1741 -1.798 0.0569 0
M  V30 28 H 2.4035 0.3472 1.888 0
M  V30 29 H 2.5661 -2.3265 1.5517 0
M  V30 30 H 1.1767 -4.3265 1.1038 0
M  V30 31 H -2.2006 -4.2297 -0.449 0
M  V30 32 H -0.8141 -5.251 -0.0702 0
M  V30 33 H -1.9162 -4.7403 1.233 0
M  V30 END ATOM
M  V30 BEGIN BOND
M  V30 1 1 1 2
M  V30 2 1 1 3
M  V30 3 1 1 4
M  V30 4 1 2 5
M  V30 5 1 3 6
M  V30 6 1 5 7
M  V30 7 1 5 8
M  V30 8 2 7 9
M  V30 9 1 7 10
M  V30 10 1 8 11
M  V30 11 1 9 12
M  V30 12 2 10 13
M  V30 13 2 12 14
M  V30 14 1 13 15
M  V30 15 1 6 8
M  V30 16 1 9 11
M  V30 17 1 13 14
M  V30 18 1 2 16
M  V30 19 1 2 17
M  V30 20 1 3 18
M  V30 21 1 3 19
M  V30 22 1 4 20
M  V30 23 1 4 21
M  V30 24 1 4 22
M  V30 25 1 5 23
M  V30 26 1 6 24
M  V30 27 1 6 25
M  V30 28 1 8 26
M  V30 29 1 10 27
M  V30 30 1 11 28
M  V30 31 1 12 29
M  V30 32 1 14 30
M  V30 33 1 15 31
M  V30 34 1 15 32
M  V30 35 1 15 33
M  V30 END BOND
M  V30 END CTAB
M  END
>  <Column 1>
2005

>  <level_0>
2178

>  <index>
2178

>  <Unnamed: 0>
2178

>  <NO.>
2190

>  <Name>
dicarbine

>  <IUPAC_name>
2-8-dimethyl-1-3-4-4a-5-9b-hexahydropyrido[4-3-b]indole

>  <SMILES>
Cc1ccc2c(c1)C1CN(C)CCC1N2

>  <CID>
65684

>  <logBB>


>  <BBB+/BBB->
BBB+

>  <Inchi>
InChI=1S/C13H18N2/c1-9-3-4-12-10(7-9)11-8-15(2)6-5-13(11)14-12/h3-4-7-11-13-14H-5-6-8H2-1-2H3

>  <threshold>
-1

>  <reference>
R1|R19|R6|R27|R27|R30|

>  <group>
B

>  <Class>
1

>  <ABC>
12.12

>  <ABCGG>
10.14

>  <nAcid>
0

>  <nBase>
1

>  <nAromAtom>
6

>  <nAromBond>
6

>  <nAtom>
33

>  <nHeavyAtom>
15

>  <nSpiro>
0

>  <nBridgehead>
0

>  <nHetero>
2

>  <nN>
2

>  <nO>
0

>  <nF>
0

>  <BalabanJ>
1.75

>  <BertzCT>
386.12

>  <nBonds>
35

>  <nBondsO>
17

>  <nBondsS>
29

>  <nBondsD>
0

>  <nBondsT>
0

>  <nBondsA>
6

>  <nBondsM>
6

>  <nBondsKS>
32

>  <nBondsKD>
3

>  <RNCG>
0.39

>  <RPCG>
0.16

>  <FCSP3>
0.54

>  <SZ>
18.33

>  <Sm>
16.84

>  <Sv>
19.39

>  <Sse>
32.32

>  <Sp>
21.5

>  <Si>
37.32

>  <MZ>
0.56

>  <Mm>
0.51

>  <Mv>
0.59

>  <Mse>
0.98

>  <Mp>
0.65

>  <Mi>
1.13

>  <NsCH3>
2

>  <NdCH2>
0

>  <NssCH2>
3

>  <NtCH>
0

>  <NdsCH>
0

>  <NaaCH>
3

>  <NsssCH>
2

>  <NddC>
0

>  <NtsC>
0

>  <NdssC>
0

>  <NaasC>
3

>  <NaaaC>
0

>  <NssssC>
0

>  <NsNH3>
0

>  <NsNH2>
0

>  <NssNH2>
0

>  <NdNH>
0

>  <NssNH>
1

>  <NaaNH>
0

>  <NtN>
0

>  <NsssNH>
0

>  <NdsN>
0

>  <NaaN>
0

>  <NsssN>
1

>  <NddsN>
0

>  <NaasN>
0

>  <NssssN>
0

>  <NsOH>
0

>  <NdO>
0

>  <NssO>
0

>  <NaaO>
0

>  <NsF>
0

>  <NsSiH3>
0

>  <NssSiH2>
0

>  <NsssSiH>
0

>  <NssssSi>
0

>  <NsPH2>
0

>  <NssPH>
0

>  <NsssP>
0

>  <NdsssP>
0

>  <NsssssP>
0

>  <NsSH>
0

>  <NdS>
0

>  <NssS>
0

>  <NaaS>
0

>  <NdssS>
0

>  <NddssS>
0

>  <NsCl>
0

>  <NsBr>
0

>  <NsI>
0

>  <fragCpx>
79.02

>  <fMF>
0.39

>  <nHBAcc>
2

>  <nHBDon>
1

>  <Kier1>
10.17

>  <Kier2>
3.79

>  <Lipinski>
1

>  <GhoseFilter>
1

>  <FilterItLogS>
-3.03

>  <VMcGowan>
168.51

>  <LabuteASA>
91.28

>  <PEOE_VSA1>
10.22

>  <PEOE_VSA2>
0

>  <PEOE_VSA3>
0

>  <PEOE_VSA4>
0

>  <PEOE_VSA5>
0

>  <PEOE_VSA6>
17.7

>  <PEOE_VSA7>
38.57

>  <PEOE_VSA8>
24.19

>  <PEOE_VSA9>
0

>  <PEOE_VSA10>
0

>  <PEOE_VSA11>
0

>  <PEOE_VSA12>
0

>  <PEOE_VSA13>
0

>  <SMR_VSA1>
0

>  <SMR_VSA2>
0

>  <SMR_VSA3>
4.9

>  <SMR_VSA4>
0

>  <SMR_VSA5>
25.3

>  <SMR_VSA6>
25.45

>  <SMR_VSA7>
29.33

>  <SMR_VSA8>
0

>  <SMR_VSA9>
0

>  <SlogP_VSA1>
5.32

>  <SlogP_VSA2>
31.08

>  <SlogP_VSA3>
0

>  <SlogP_VSA4>
6.92

>  <SlogP_VSA5>
23.47

>  <SlogP_VSA6>
18.2

>  <SlogP_VSA7>
0

>  <SlogP_VSA8>
0

>  <SlogP_VSA9>
0

>  <SlogP_VSA10>
5.69

>  <SlogP_VSA11>
0

>  <EState_VSA1>
0

>  <EState_VSA2>
0

>  <EState_VSA3>
11.96

>  <EState_VSA4>
0

>  <EState_VSA5>
36.32

>  <EState_VSA6>
0

>  <EState_VSA7>
0

>  <EState_VSA8>
42.39

>  <EState_VSA9>
0

>  <EState_VSA10>
0

>  <VSA_EState1>
0

>  <VSA_EState2>
2.44

>  <VSA_EState3>
3.66

>  <VSA_EState4>
4.28

>  <VSA_EState5>
0.71

>  <VSA_EState6>
7.47

>  <VSA_EState7>
1.27

>  <VSA_EState8>
4.61

>  <VSA_EState9>
2.23

>  <apol>
35.91

>  <bpol>
20.34

>  <nRing>
3

>  <nHRing>
2

>  <naRing>
1

>  <naHRing>
0

>  <nARing 2>
2

>  <nAHRing 2>
2

>  <nFRing>
1

>  <nFHRing>
1

>  <nFaRing>
0

>  <nFaHRing>
0

>  <nFARing 2>
1

>  <nFAHRing 2>
1

>  <nRot>
0

>  <SLogP>
2.21

>  <SMR>
63.44

>  <TopoPSA(NO)>
15.27

>  <TopoPSA>
15.27

>  <JGI1>
0.21

>  <JGI2>
0.07

>  <JGI3>
0.05

>  <JGI4>
0.05

>  <JGI5>
0.03

>  <Diameter>
7

>  <Radius>
4

>  <TMWC10>
104.34

>  <TSRW10>
62.09

>  <MW>
202.15

>  <AMW>
6.13

>  <WPath>
332

>  <WPol>
23

>  <Zagreb1>
84

>  <Zagreb2>
101

>  <mZagreb2>
3.17

>  <yes>


>  <nAR-cont>
1

>  <nHA-cont>
0.92539861

>  <MWHBN>
0.211000936

>  <MWHBN-cont>
0.999060416

>  <TPSA-cont>
0.893405918

>  <pka_cont>
0.97

>  <yes.1>


>  <BBB_SCORE>
5.69580107

>  <MMFF94 Energy>
40.873

$$$$
Compound 1652
Actelion Java MolfileCreator 2.0

  0  0  0  0  0  0              0 V3000
M  V30 BEGIN CTAB
M  V30 COUNTS 44 47 0 0 0
M  V30 BEGIN ATOM
M  V30 1 N -1.5211 2.3225 -0.6402 0
M  V30 2 C -0.7262 1.3875 -1.475 0 CFG=2
M  V30 3 C -1.3807 2.0892 0.8014 0
M  V30 4 C -1.2898 3.7259 -0.9692 0
M  V30 5 C -1.2254 -0.0415 -1.1931 0 CFG=2
M  V30 6 C 0.8098 1.4577 -1.3149 0
M  V30 7 C -1.6836 0.6319 1.1747 0
M  V30 8 C -0.9189 -0.3882 0.29 0 CFG=2
M  V30 9 C -0.6744 -1.0921 -2.1778 0
M  V30 10 C 1.376 0.6583 -0.1617 0
M  V30 11 C 0.5844 -0.232 0.5957 0
M  V30 12 C -1.477 -1.8127 0.564 0
M  V30 13 C -1.1994 -2.4873 -1.8512 0
M  V30 14 C 2.7416 0.804 0.1313 0
M  V30 15 C 1.1904 -0.9076 1.6723 0
M  V30 16 C -0.9277 -2.8661 -0.3994 0
M  V30 17 C 3.3248 0.1039 1.1847 0
M  V30 18 C 2.5497 -0.7429 1.976 0
M  V30 19 C 3.1723 -1.513 3.1029 0
M  V30 20 H -0.9611 1.6241 -2.5217 0
M  V30 21 H -0.3841 2.3764 1.1573 0
M  V30 22 H -2.0923 2.725 1.3436 0
M  V30 23 H -2.0294 4.3588 -0.4655 0
M  V30 24 H -0.2953 4.0745 -0.673 0
M  V30 25 H -1.4135 3.9003 -2.0436 0
M  V30 26 H -2.3187 -0.046 -1.3315 0
M  V30 27 H 1.2674 1.0697 -2.2351 0
M  V30 28 H 1.1422 2.4984 -1.233 0
M  V30 29 H -2.7651 0.4699 1.0667 0
M  V30 30 H -1.4547 0.4774 2.237 0
M  V30 31 H 0.4202 -1.122 -2.1675 0
M  V30 32 H -0.969 -0.8269 -3.2002 0
M  V30 33 H -1.3007 -2.1308 1.5968 0
M  V30 34 H -2.5705 -1.7963 0.4522 0
M  V30 35 H -0.7356 -3.2225 -2.5184 0
M  V30 36 H -2.2794 -2.5232 -2.0411 0
M  V30 37 H 3.3595 1.472 -0.4649 0
M  V30 38 H 0.6057 -1.5715 2.3033 0
M  V30 39 H -1.3945 -3.8342 -0.1841 0
M  V30 40 H 0.1497 -2.9955 -0.2468 0
M  V30 41 H 4.3851 0.2319 1.3876 0
M  V30 42 H 3.4969 -2.4963 2.7492 0
M  V30 43 H 2.4594 -1.6477 3.9233 0
M  V30 44 H 4.0383 -0.9809 3.5106 0
M  V30 END ATOM
M  V30 BEGIN BOND
M  V30 1 1 1 2
M  V30 2 1 1 3
M  V30 3 1 1 4
M  V30 4 1 2 5
M  V30 5 1 2 6
M  V30 6 1 3 7
M  V30 7 1 5 8
M  V30 8 1 5 9
M  V30 9 1 6 10
M  V30 10 1 8 11
M  V30 11 1 8 12
M  V30 12 1 9 13
M  V30 13 1 10 14
M  V30 14 1 11 15
M  V30 15 1 12 16
M  V30 16 2 14 17
M  V30 17 2 15 18
M  V30 18 1 18 19
M  V30 19 1 7 8
M  V30 20 2 10 11
M  V30 21 1 13 16
M  V30 22 1 17 18
M  V30 23 1 2 20
M  V30 24 1 3 21
M  V30 25 1 3 22
M  V30 26 1 4 23
M  V30 27 1 4 24
M  V30 28 1 4 25
M  V30 29 1 5 26
M  V30 30 1 6 27
M  V30 31 1 6 28
M  V30 32 1 7 29
M  V30 33 1 7 30
M  V30 34 1 9 31
M  V30 35 1 9 32
M  V30 36 1 12 33
M  V30 37 1 12 34
M  V30 38 1 13 35
M  V30 39 1 13 36
M  V30 40 1 14 37
M  V30 41 1 15 38
M  V30 42 1 16 39
M  V30 43 1 16 40
M  V30 44 1 17 41
M  V30 45 1 19 42
M  V30 46 1 19 43
M  V30 47 1 19 44
M  V30 END BOND
M  V30 BEGIN COLLECTION
M  V30 MDLV30/STEABS ATOMS=(3 2 5 8)
M  V30 END COLLECTION
M  V30 END CTAB
M  END
>  <Column 1>
2006

>  <level_0>
2179

>  <index>
2179

>  <Unnamed: 0>
2179

>  <NO.>
2191

>  <Name>
dimemorfan

>  <IUPAC_name>
(1s-9s-10s)-4-17-dimethyl-17-azatetracyclo[7.5.3.01-10.02-7]heptadeca-2(7)-3-5-triene

>  <SMILES>
Cc1ccc2c(c1)[C@]13CCCC[C@@H]1[C@H](C2)N(C)CC3

>  <CID>
3037918

>  <logBB>


>  <BBB+/BBB->
BBB+

>  <Inchi>
InChI=1S/C18H25N/c1-13-6-7-14-12-17-15-5-3-4-8-18(15-16(14)11-13)9-10-19(17)2/h6-7-11-15-17H-3-5-8-10-12H2-1-2H3/t15--17+-18+/m1/s1

>  <threshold>
-1

>  <reference>
R1|R6|R27|R30|

>  <group>
B

>  <Class>
1

>  <ABC>
15.53

>  <ABCGG>
12

>  <nAcid>
0

>  <nBase>
1

>  <nAromAtom>
6

>  <nAromBond>
6

>  <nAtom>
44

>  <nHeavyAtom>
19

>  <nSpiro>
0

>  <nBridgehead>
2

>  <nHetero>
1

>  <nN>
1

>  <nO>
0

>  <nF>
0

>  <BalabanJ>
1.71

>  <BertzCT>
506.41

>  <nBonds>
47

>  <nBondsO>
22

>  <nBondsS>
41

>  <nBondsD>
0

>  <nBondsT>
0

>  <nBondsA>
6

>  <nBondsM>
6

>  <nBondsKS>
44

>  <nBondsKD>
3

>  <RNCG>
0.33

>  <RPCG>
0.07

>  <FCSP3>
0.67

>  <SZ>
23.33

>  <Sm>
21.26

>  <Sv>
25.53

>  <Sse>
42.76

>  <Sp>
28.64

>  <Si>
49.48

>  <MZ>
0.53

>  <Mm>
0.48

>  <Mv>
0.58

>  <Mse>
0.97

>  <Mp>
0.65

>  <Mi>
1.12

>  <NsCH3>
2

>  <NdCH2>
0

>  <NssCH2>
7

>  <NtCH>
0

>  <NdsCH>
0

>  <NaaCH>
3

>  <NsssCH>
2

>  <NddC>
0

>  <NtsC>
0

>  <NdssC>
0

>  <NaasC>
3

>  <NaaaC>
0

>  <NssssC>
1

>  <NsNH3>
0

>  <NsNH2>
0

>  <NssNH2>
0

>  <NdNH>
0

>  <NssNH>
0

>  <NaaNH>
0

>  <NtN>
0

>  <NsssNH>
0

>  <NdsN>
0

>  <NaaN>
0

>  <NsssN>
1

>  <NddsN>
0

>  <NaasN>
0

>  <NssssN>
0

>  <NsOH>
0

>  <NdO>
0

>  <NssO>
0

>  <NaaO>
0

>  <NsF>
0

>  <NsSiH3>
0

>  <NssSiH2>
0

>  <NsssSiH>
0

>  <NssssSi>
0

>  <NsPH2>
0

>  <NssPH>
0

>  <NsssP>
0

>  <NdsssP>
0

>  <NsssssP>
0

>  <NsSH>
0

>  <NdS>
0

>  <NssS>
0

>  <NaaS>
0

>  <NdssS>
0

>  <NddssS>
0

>  <NsCl>
0

>  <NsBr>
0

>  <NsI>
0

>  <fragCpx>
142.01

>  <fMF>
0.39

>  <nHBAcc>
1

>  <nHBDon>
0

>  <Kier1>
12.72

>  <Kier2>
4.5

>  <Lipinski>
1

>  <GhoseFilter>
1

>  <FilterItLogS>
-4.35

>  <VMcGowan>
218.12

>  <LabuteASA>
116.55

>  <PEOE_VSA1>
4.9

>  <PEOE_VSA2>
0

>  <PEOE_VSA3>
0

>  <PEOE_VSA4>
0

>  <PEOE_VSA5>
0

>  <PEOE_VSA6>
36.6

>  <PEOE_VSA7>
63.24

>  <PEOE_VSA8>
11.46

>  <PEOE_VSA9>
0

>  <PEOE_VSA10>
0

>  <PEOE_VSA11>
0

>  <PEOE_VSA12>
0

>  <PEOE_VSA13>
0

>  <SMR_VSA1>
0

>  <SMR_VSA2>
0

>  <SMR_VSA3>
4.9

>  <SMR_VSA4>
5.92

>  <SMR_VSA5>
56.91

>  <SMR_VSA6>
13.59

>  <SMR_VSA7>
34.89

>  <SMR_VSA8>
0

>  <SMR_VSA9>
0

>  <SlogP_VSA1>
0

>  <SlogP_VSA2>
24.53

>  <SlogP_VSA3>
11.84

>  <SlogP_VSA4>
12.84

>  <SlogP_VSA5>
48.79

>  <SlogP_VSA6>
18.2

>  <SlogP_VSA7>
0

>  <SlogP_VSA8>
0

>  <SlogP_VSA9>
0

>  <SlogP_VSA10>
0

>  <SlogP_VSA11>
0

>  <EState_VSA1>
0

>  <EState_VSA2>
0

>  <EState_VSA3>
5.41

>  <EState_VSA4>
11.96

>  <EState_VSA5>
50.63

>  <EState_VSA6>
11.13

>  <EState_VSA7>
0

>  <EState_VSA8>
37.07

>  <EState_VSA9>
0

>  <EState_VSA10>
0

>  <VSA_EState1>
0

>  <VSA_EState2>
2.65

>  <VSA_EState3>
0

>  <VSA_EState4>
5.38

>  <VSA_EState5>
0.93

>  <VSA_EState6>
8.07

>  <VSA_EState7>
8.48

>  <VSA_EState8>
3.56

>  <VSA_EState9>
2.35

>  <apol>
47.83

>  <bpol>
26.79

>  <nRing>
4

>  <nHRing>
1

>  <naRing>
1

>  <naHRing>
0

>  <nARing 2>
3

>  <nAHRing 2>
1

>  <nFRing>
1

>  <nFHRing>
1

>  <nFaRing>
0

>  <nFaHRing>
0

>  <nFARing 2>
1

>  <nFAHRing 2>
1

>  <nRot>
0

>  <SLogP>
3.68

>  <SMR>
79.55

>  <TopoPSA(NO)>
3.24

>  <TopoPSA>
3.24

>  <JGI1>
0.2

>  <JGI2>
0.1

>  <JGI3>
0.05

>  <JGI4>
0.05

>  <JGI5>
0.03

>  <Diameter>
8

>  <Radius>
4

>  <TMWC10>
117.54

>  <TSRW10>
53.84

>  <MW>
255.2

>  <AMW>
5.8

>  <WPath>
578

>  <WPol>
39

>  <Zagreb1>
112

>  <Zagreb2>
141

>  <mZagreb2>
4

>  <yes>


>  <nAR-cont>
0.691115

>  <nHA-cont>
0.998649058

>  <MWHBN>
0.062597886

>  <MWHBN-cont>
0.475087474

>  <TPSA-cont>
0.977382788

>  <pka_cont>
0.97

>  <yes.1>


>  <BBB_SCORE>
4.842160845

>  <MMFF94 Energy>
58.859

$$$$
Compound 1653
Actelion Java MolfileCreator 2.0

  0  0  0  0  0  0              0 V3000
M  V30 BEGIN CTAB
M  V30 COUNTS 35 38 0 0 0
M  V30 BEGIN ATOM
M  V30 1 N 0.9602 0.8001 -0.1599 0
M  V30 2 C 0.3569 0.3244 -1.3012 0
M  V30 3 C 0.482 0.1372 0.9283 0
M  V30 4 C 1.8528 1.9375 -0.0287 0
M  V30 5 C -0.5824 -0.6359 -0.8926 0
M  V30 6 C 0.526 0.6729 -2.6481 0
M  V30 7 C -0.5165 -0.7181 0.5287 0
M  V30 8 C 0.9538 0.3841 2.3119 0 CFG=1
M  V30 9 C 2.4096 2.0677 1.4035 0
M  V30 10 C -1.3766 -1.2659 -1.8727 0
M  V30 11 C -0.2676 0.0224 -3.5995 0
M  V30 12 C -1.3458 -1.4746 1.5104 0
M  V30 13 N 1.4111 1.7711 2.4497 0
M  V30 14 C -0.1978 0.0297 3.2767 0
M  V30 15 C -1.2041 -0.9477 -3.23 0
M  V30 16 C -0.7751 -1.369 2.9457 0
M  V30 17 C -2.0688 -1.5993 -4.269 0
M  V30 18 H 2.6677 1.8163 -0.7492 0
M  V30 19 H 1.2646 2.8246 -0.2902 0
M  V30 20 H 1.2442 1.4267 -2.9522 0
M  V30 21 H 1.7937 -0.2929 2.5203 0
M  V30 22 H 2.7863 3.0866 1.546 0
M  V30 23 H 3.2703 1.3973 1.5256 0
M  V30 24 H -2.1191 -1.9982 -1.5691 0
M  V30 25 H -0.1479 0.289 -4.6478 0
M  V30 26 H -2.3603 -1.0573 1.5013 0
M  V30 27 H -1.4219 -2.5284 1.221 0
M  V30 28 H 1.8312 1.8876 3.3698 0
M  V30 29 H 0.1646 0.0428 4.3114 0
M  V30 30 H -1.0046 0.7717 3.2068 0
M  V30 31 H 0.0239 -2.1121 3.0659 0
M  V30 32 H -1.5582 -1.6291 3.6671 0
M  V30 33 H -2.345 -2.6149 -3.9665 0
M  V30 34 H -2.9813 -1.0135 -4.4171 0
M  V30 35 H -1.5395 -1.6784 -5.2243 0
M  V30 END ATOM
M  V30 BEGIN BOND
M  V30 1 1 1 2
M  V30 2 1 1 3
M  V30 3 1 1 4
M  V30 4 2 2 5
M  V30 5 1 2 6
M  V30 6 2 3 7
M  V30 7 1 3 8
M  V30 8 1 4 9
M  V30 9 1 5 10
M  V30 10 2 6 11
M  V30 11 1 7 12
M  V30 12 1 8 13
M  V30 13 1 8 14
M  V30 14 2 10 15
M  V30 15 1 12 16
M  V30 16 1 15 17
M  V30 17 1 5 7
M  V30 18 1 9 13
M  V30 19 1 11 15
M  V30 20 1 14 16
M  V30 21 1 4 18
M  V30 22 1 4 19
M  V30 23 1 6 20
M  V30 24 1 8 21
M  V30 25 1 9 22
M  V30 26 1 9 23
M  V30 27 1 10 24
M  V30 28 1 11 25
M  V30 29 1 12 26
M  V30 30 1 12 27
M  V30 31 1 13 28
M  V30 32 1 14 29
M  V30 33 1 14 30
M  V30 34 1 16 31
M  V30 35 1 16 32
M  V30 36 1 17 33
M  V30 37 1 17 34
M  V30 38 1 17 35
M  V30 END BOND
M  V30 BEGIN COLLECTION
M  V30 MDLV30/STERAC1 ATOMS=(1 8)
M  V30 END COLLECTION
M  V30 END CTAB
M  END
>  <Column 1>
2007

>  <level_0>
2180

>  <index>
2180

>  <Unnamed: 0>
2180

>  <NO.>
2192

>  <Name>
pirlindole

>  <IUPAC_name>
hydron;12-methyl-1-4-diazatetracyclo[7.6.1.05-16.010-15]hexadeca-9(16)-10(15)-11-13-tetraene;chloride

>  <SMILES>
Cc1ccc2c(c1)c1c3n2CCNC3CCC1

>  <CID>
68802

>  <logBB>


>  <BBB+/BBB->
BBB+

>  <Inchi>
InChI=1S/C15H18N2/c1-10-5-6-14-12(9-10)11-3-2-4-13-15(11)17(14)8-7-16-13/h5-6-9-13-16H-2-4-7-8H2-1H3

>  <threshold>
-1

>  <reference>
R1|R19|R6|R27|R27|R30|

>  <group>
B

>  <Class>
1

>  <ABC>
14.01

>  <ABCGG>
11.03

>  <nAcid>
0

>  <nBase>
1

>  <nAromAtom>
9

>  <nAromBond>
10

>  <nAtom>
35

>  <nHeavyAtom>
17

>  <nSpiro>
0

>  <nBridgehead>
0

>  <nHetero>
2

>  <nN>
2

>  <nO>
0

>  <nF>
0

>  <BalabanJ>
1.66

>  <BertzCT>
592.48

>  <nBonds>
38

>  <nBondsO>
20

>  <nBondsS>
28

>  <nBondsD>
0

>  <nBondsT>
0

>  <nBondsA>
10

>  <nBondsM>
10

>  <nBondsKS>
34

>  <nBondsKD>
4

>  <RNCG>
0.34

>  <RPCG>
0.12

>  <FCSP3>
0.47

>  <SZ>
20.33

>  <Sm>
18.84

>  <Sv>
21.39

>  <Sse>
34.32

>  <Sp>
23.5

>  <Si>
39.32

>  <MZ>
0.58

>  <Mm>
0.54

>  <Mv>
0.61

>  <Mse>
0.98

>  <Mp>
0.67

>  <Mi>
1.12

>  <NsCH3>
1

>  <NdCH2>
0

>  <NssCH2>
5

>  <NtCH>
0

>  <NdsCH>
0

>  <NaaCH>
3

>  <NsssCH>
1

>  <NddC>
0

>  <NtsC>
0

>  <NdssC>
0

>  <NaasC>
3

>  <NaaaC>
2

>  <NssssC>
0

>  <NsNH3>
0

>  <NsNH2>
0

>  <NssNH2>
0

>  <NdNH>
0

>  <NssNH>
1

>  <NaaNH>
0

>  <NtN>
0

>  <NsssNH>
0

>  <NdsN>
0

>  <NaaN>
0

>  <NsssN>
0

>  <NddsN>
0

>  <NaasN>
1

>  <NssssN>
0

>  <NsOH>
0

>  <NdO>
0

>  <NssO>
0

>  <NaaO>
0

>  <NsF>
0

>  <NsSiH3>
0

>  <NssSiH2>
0

>  <NsssSiH>
0

>  <NssssSi>
0

>  <NsPH2>
0

>  <NssPH>
0

>  <NsssP>
0

>  <NdsssP>
0

>  <NsssssP>
0

>  <NsSH>
0

>  <NdS>
0

>  <NssS>
0

>  <NaaS>
0

>  <NdssS>
0

>  <NddssS>
0

>  <NsCl>
0

>  <NsBr>
0

>  <NsI>
0

>  <fragCpx>
128.02

>  <fMF>
0.46

>  <nHBAcc>
2

>  <nHBDon>
1

>  <Kier1>
10.88

>  <Kier2>
4

>  <Lipinski>
1

>  <GhoseFilter>
1

>  <FilterItLogS>
-3.88

>  <VMcGowan>
181.53

>  <LabuteASA>
101.62

>  <PEOE_VSA1>
9.88

>  <PEOE_VSA2>
0

>  <PEOE_VSA3>
0

>  <PEOE_VSA4>
0

>  <PEOE_VSA5>
0

>  <PEOE_VSA6>
11.63

>  <PEOE_VSA7>
43.88

>  <PEOE_VSA8>
35.73

>  <PEOE_VSA9>
0

>  <PEOE_VSA10>
0

>  <PEOE_VSA11>
0

>  <PEOE_VSA12>
0

>  <PEOE_VSA13>
0

>  <SMR_VSA1>
0

>  <SMR_VSA2>
0

>  <SMR_VSA3>
9.88

>  <SMR_VSA4>
0

>  <SMR_VSA5>
38.77

>  <SMR_VSA6>
6.54

>  <SMR_VSA7>
35.02

>  <SMR_VSA8>
0

>  <SMR_VSA9>
0

>  <SlogP_VSA1>
5.32

>  <SlogP_VSA2>
11.11

>  <SlogP_VSA3>
12.97

>  <SlogP_VSA4>
6.92

>  <SlogP_VSA5>
35.7

>  <SlogP_VSA6>
18.2

>  <SlogP_VSA7>
0

>  <SlogP_VSA8>
10.9

>  <SlogP_VSA9>
0

>  <SlogP_VSA10>
0

>  <SlogP_VSA11>
0

>  <EState_VSA1>
0

>  <EState_VSA2>
0

>  <EState_VSA3>
6.04

>  <EState_VSA4>
13.09

>  <EState_VSA5>
35.73

>  <EState_VSA6>
11.26

>  <EState_VSA7>
0

>  <EState_VSA8>
35.01

>  <EState_VSA9>
0

>  <EState_VSA10>
0

>  <VSA_EState1>
2.56

>  <VSA_EState2>
0

>  <VSA_EState3>
5.18

>  <VSA_EState4>
6.04

>  <VSA_EState5>
0

>  <VSA_EState6>
7.54

>  <VSA_EState7>
3.9

>  <VSA_EState8>
4.45

>  <VSA_EState9>
0

>  <apol>
39.25

>  <bpol>
20.34

>  <nRing>
4

>  <nHRing>
2

>  <naRing>
2

>  <naHRing>
1

>  <nARing 2>
2

>  <nAHRing 2>
1

>  <nFRing>
1

>  <nFHRing>
1

>  <nFaRing>
0

>  <nFaHRing>
0

>  <nFARing 2>
1

>  <nFAHRing 2>
1

>  <nRot>
0

>  <SLogP>
2.93

>  <SMR>
70.36

>  <TopoPSA(NO)>
16.96

>  <TopoPSA>
16.96

>  <JGI1>
0.13

>  <JGI2>
0.07

>  <JGI3>
0.06

>  <JGI4>
0.03

>  <JGI5>
0.03

>  <Diameter>
7

>  <Radius>
4

>  <TMWC10>
112.11

>  <TSRW10>
65.56

>  <MW>
226.15

>  <AMW>
6.46

>  <WPath>
437

>  <WPol>
31

>  <Zagreb1>
100

>  <Zagreb2>
125

>  <mZagreb2>
3.58

>  <yes>


>  <nAR-cont>
1

>  <nHA-cont>
0.976740822

>  <MWHBN>
0.19949084

>  <MWHBN-cont>
0.999520769

>  <TPSA-cont>
0.881608668

>  <pka_cont>
0.97

>  <yes.1>


>  <BBB_SCORE>
5.724239313

>  <MMFF94 Energy>
26.547

$$$$
Compound 1654
Actelion Java MolfileCreator 2.0

  0  0  0  0  0  0              0 V3000
M  V30 BEGIN CTAB
M  V30 COUNTS 54 57 0 0 0
M  V30 BEGIN ATOM
M  V30 1 N -5.4296 1.5148 0.1593 0
M  V30 2 C -4.4681 0.5572 0.0922 0
M  V30 3 C -5.6769 2.234 -0.9601 0
M  V30 4 C -3.7697 0.2612 -1.0692 0
M  V30 5 C -4.291 -0.1906 1.3604 0
M  V30 6 C -5.0025 2.0129 -2.1571 0
M  V30 7 C -6.7273 3.3009 -0.8745 0
M  V30 8 C -4.0403 1.0093 -2.2104 0
M  V30 9 N -3.2589 -0.8167 1.857 0
M  V30 10 N -2.0798 -0.725 1.1902 0
M  V30 11 C -1.2501 -1.9468 1.2681 0
M  V30 12 C -1.2219 0.4168 1.5867 0
M  V30 13 C 0.0135 -1.8488 0.3904 0
M  V30 14 C 0.0404 0.5259 0.7083 0
M  V30 15 N 0.8782 -0.6976 0.7493 0
M  V30 16 C 2.0472 -0.5869 -0.1761 0
M  V30 17 C 2.9407 0.6294 0.1063 0
M  V30 18 C 2.9135 -1.8536 -0.225 0
M  V30 19 C 3.3734 1.4421 -0.9558 0
M  V30 20 C 3.3709 0.945 1.407 0
M  V30 21 C 3.3313 -2.5096 0.9461 0
M  V30 22 C 3.3338 -2.367 -1.4642 0
M  V30 23 C 4.1996 2.5434 -0.7209 0
M  V30 24 C 4.196 2.0466 1.6397 0
M  V30 25 C 4.1321 -3.651 0.8794 0
M  V30 26 C 4.1355 -3.5086 -1.5286 0
M  V30 27 C 4.6092 2.8455 0.576 0
M  V30 28 C 4.5329 -4.1503 -0.3575 0
M  V30 29 H -3.046 -0.5434 -1.1049 0
M  V30 30 H -5.1986 -0.2069 1.9889 0
M  V30 31 H -5.2263 2.6053 -3.0389 0
M  V30 32 H -7.5371 3.0916 -1.5803 0
M  V30 33 H -6.2927 4.2788 -1.1043 0
M  V30 34 H -7.1555 3.3463 0.1321 0
M  V30 35 H -3.5104 0.8055 -3.1366 0
M  V30 36 H -1.8429 -2.802 0.9205 0
M  V30 37 H -0.9684 -2.1519 2.3096 0
M  V30 38 H -0.9365 0.3277 2.6436 0
M  V30 39 H -1.7881 1.3508 1.4867 0
M  V30 40 H 0.5563 -2.7919 0.5133 0
M  V30 41 H -0.2902 -1.7841 -0.6636 0
M  V30 42 H 0.6038 1.3913 1.0728 0
M  V30 43 H -0.2629 0.7476 -0.3242 0
M  V30 44 H 1.6258 -0.4479 -1.1833 0
M  V30 45 H 3.0725 1.2191 -1.9766 0
M  V30 46 H 3.0528 0.3331 2.2482 0
M  V30 47 H 3.0224 -2.1341 1.9192 0
M  V30 48 H 3.0421 -1.8766 -2.3899 0
M  V30 49 H 4.5277 3.1632 -1.5512 0
M  V30 50 H 4.5167 2.2783 2.6519 0
M  V30 51 H 4.4433 -4.1479 1.7945 0
M  V30 52 H 4.454 -3.8948 -2.4932 0
M  V30 53 H 5.2539 3.7012 0.7579 0
M  V30 54 H 5.1586 -5.0373 -0.4081 0
M  V30 END ATOM
M  V30 BEGIN BOND
M  V30 1 2 1 2
M  V30 2 1 1 3
M  V30 3 1 2 4
M  V30 4 1 2 5
M  V30 5 2 3 6
M  V30 6 1 3 7
M  V30 7 2 4 8
M  V30 8 2 5 9
M  V30 9 1 9 10
M  V30 10 1 10 11
M  V30 11 1 10 12
M  V30 12 1 11 13
M  V30 13 1 12 14
M  V30 14 1 13 15
M  V30 15 1 15 16
M  V30 16 1 16 17
M  V30 17 1 16 18
M  V30 18 2 17 19
M  V30 19 1 17 20
M  V30 20 2 18 21
M  V30 21 1 18 22
M  V30 22 1 19 23
M  V30 23 2 20 24
M  V30 24 1 21 25
M  V30 25 2 22 26
M  V30 26 2 23 27
M  V30 27 2 25 28
M  V30 28 1 6 8
M  V30 29 1 14 15
M  V30 30 1 24 27
M  V30 31 1 26 28
M  V30 32 1 4 29
M  V30 33 1 5 30
M  V30 34 1 6 31
M  V30 35 1 7 32
M  V30 36 1 7 33
M  V30 37 1 7 34
M  V30 38 1 8 35
M  V30 39 1 11 36
M  V30 40 1 11 37
M  V30 41 1 12 38
M  V30 42 1 12 39
M  V30 43 1 13 40
M  V30 44 1 13 41
M  V30 45 1 14 42
M  V30 46 1 14 43
M  V30 47 1 16 44
M  V30 48 1 19 45
M  V30 49 1 20 46
M  V30 50 1 21 47
M  V30 51 1 22 48
M  V30 52 1 23 49
M  V30 53 1 24 50
M  V30 54 1 25 51
M  V30 55 1 26 52
M  V30 56 1 27 53
M  V30 57 1 28 54
M  V30 END BOND
M  V30 END CTAB
M  END
>  <Column 1>
2008

>  <level_0>
2181

>  <index>
2181

>  <Unnamed: 0>
2181

>  <NO.>
2193

>  <Name>
ropizine

>  <IUPAC_name>
(z)-n-(4-benzhydrylpiperazin-1-yl)-1-(6-methylpyridin-2-yl)methanimine

>  <SMILES>
Cc1cccc(/C=N\N2CCN(C(c3ccccc3)c3ccccc3)CC2)n1

>  <CID>
9568666

>  <logBB>


>  <BBB+/BBB->
BBB+

>  <Inchi>
InChI=1S/C24H26N4/c1-20-9-8-14-23(26-20)19-25-28-17-15-27(16-18-28)24(21-10-4-2-5-11-21)22-12-6-3-7-13-22/h2-14-19-24H-15-18H2-1H3/b25-19-

>  <threshold>
-1

>  <reference>
R1|R13|R6|R24|R27|R27|R30|R30|

>  <group>
B

>  <Class>
1

>  <ABC>
21.91

>  <ABCGG>
15.98

>  <nAcid>
0

>  <nBase>
1

>  <nAromAtom>
18

>  <nAromBond>
18

>  <nAtom>
54

>  <nHeavyAtom>
28

>  <nSpiro>
0

>  <nBridgehead>
0

>  <nHetero>
4

>  <nN>
4

>  <nO>
0

>  <nF>
0

>  <BalabanJ>
1.27

>  <BertzCT>
860.66

>  <nBonds>
57

>  <nBondsO>
31

>  <nBondsS>
38

>  <nBondsD>
1

>  <nBondsT>
0

>  <nBondsA>
18

>  <nBondsM>
19

>  <nBondsKS>
47

>  <nBondsKD>
10

>  <RNCG>
0.16

>  <RPCG>
0.05

>  <FCSP3>
0.25

>  <SZ>
33

>  <Sm>
30.85

>  <Sv>
34.08

>  <Sse>
53.19

>  <Sp>
37.02

>  <Si>
60.56

>  <MZ>
0.61

>  <Mm>
0.57

>  <Mv>
0.63

>  <Mse>
0.99

>  <Mp>
0.69

>  <Mi>
1.12

>  <NsCH3>
1

>  <NdCH2>
0

>  <NssCH2>
4

>  <NtCH>
0

>  <NdsCH>
1

>  <NaaCH>
13

>  <NsssCH>
1

>  <NddC>
0

>  <NtsC>
0

>  <NdssC>
0

>  <NaasC>
4

>  <NaaaC>
0

>  <NssssC>
0

>  <NsNH3>
0

>  <NsNH2>
0

>  <NssNH2>
0

>  <NdNH>
0

>  <NssNH>
0

>  <NaaNH>
0

>  <NtN>
0

>  <NsssNH>
0

>  <NdsN>
1

>  <NaaN>
1

>  <NsssN>
2

>  <NddsN>
0

>  <NaasN>
0

>  <NssssN>
0

>  <NsOH>
0

>  <NdO>
0

>  <NssO>
0

>  <NaaO>
0

>  <NsF>
0

>  <NsSiH3>
0

>  <NssSiH2>
0

>  <NsssSiH>
0

>  <NssssSi>
0

>  <NsPH2>
0

>  <NssPH>
0

>  <NsssP>
0

>  <NdsssP>
0

>  <NsssssP>
0

>  <NsSH>
0

>  <NdS>
0

>  <NssS>
0

>  <NaaS>
0

>  <NdssS>
0

>  <NddssS>
0

>  <NsCl>
0

>  <NsBr>
0

>  <NsI>
0

>  <fragCpx>
205.04

>  <fMF>
0.5

>  <nHBAcc>
4

>  <nHBDon>
0

>  <Kier1>
21.24

>  <Kier2>
10.86

>  <Lipinski>
1

>  <GhoseFilter>
1

>  <FilterItLogS>
-5.35

>  <VMcGowan>
302.5

>  <LabuteASA>
166.7

>  <PEOE_VSA1>
0

>  <PEOE_VSA2>
14.89

>  <PEOE_VSA3>
0

>  <PEOE_VSA4>
5.1

>  <PEOE_VSA5>
0

>  <PEOE_VSA6>
66.73

>  <PEOE_VSA7>
30.18

>  <PEOE_VSA8>
31.87

>  <PEOE_VSA9>
17.95

>  <PEOE_VSA10>
0

>  <PEOE_VSA11>
0

>  <PEOE_VSA12>
0

>  <PEOE_VSA13>
0

>  <SMR_VSA1>
0

>  <SMR_VSA2>
0

>  <SMR_VSA3>
14.89

>  <SMR_VSA4>
5.1

>  <SMR_VSA5>
12.97

>  <SMR_VSA6>
26.18

>  <SMR_VSA7>
101.38

>  <SMR_VSA8>
0

>  <SMR_VSA9>
0

>  <SlogP_VSA1>
0

>  <SlogP_VSA2>
47.29

>  <SlogP_VSA3>
0

>  <SlogP_VSA4>
6.92

>  <SlogP_VSA5>
28.56

>  <SlogP_VSA6>
83.96

>  <SlogP_VSA7>
0

>  <SlogP_VSA8>
0

>  <SlogP_VSA9>
0

>  <SlogP_VSA10>
0

>  <SlogP_VSA11>
0

>  <EState_VSA1>
0

>  <EState_VSA2>
6.04

>  <EState_VSA3>
0

>  <EState_VSA4>
37.57

>  <EState_VSA5>
11.13

>  <EState_VSA6>
0

>  <EState_VSA7>
31.34

>  <EState_VSA8>
80.66

>  <EState_VSA9>
0

>  <EState_VSA10>
0

>  <VSA_EState1>
0

>  <VSA_EState2>
7.05

>  <VSA_EState3>
6.8

>  <VSA_EState4>
4.61

>  <VSA_EState5>
0

>  <VSA_EState6>
27.88

>  <VSA_EState7>
1.87

>  <VSA_EState8>
5.79

>  <VSA_EState9>
0

>  <apol>
61.82

>  <bpol>
30.64

>  <nRing>
4

>  <nHRing>
2

>  <naRing>
3

>  <naHRing>
1

>  <nARing 2>
1

>  <nAHRing 2>
1

>  <nFRing>
0

>  <nFHRing>
0

>  <nFaRing>
0

>  <nFaHRing>
0

>  <nFARing 2>
0

>  <nFAHRing 2>
0

>  <nRot>
5

>  <SLogP>
4.13

>  <SMR>
114.44

>  <TopoPSA(NO)>
31.73

>  <TopoPSA>
31.73

>  <JGI1>
0.13

>  <JGI2>
0.05

>  <JGI3>
0.04

>  <JGI4>
0.03

>  <JGI5>
0.01

>  <Diameter>
14

>  <Radius>
7

>  <TMWC10>
134.45

>  <TSRW10>
63.08

>  <MW>
370.22

>  <AMW>
6.86

>  <WPath>
2257

>  <WPol>
41

>  <Zagreb1>
144

>  <Zagreb2>
166

>  <mZagreb2>
6.25

>  <yes>


>  <nAR-cont>
0.816016

>  <nHA-cont>
0.82432561

>  <MWHBN>
0.207888303

>  <MWHBN-cont>
0.999726202

>  <TPSA-cont>
0.778504897

>  <pka_cont>
0.97

>  <yes.1>


>  <BBB_SCORE>
5.181940706

>  <MMFF94 Energy>
176.95

$$$$
Compound 1655
Actelion Java MolfileCreator 2.0

  0  0  0  0  0  0              0 V3000
M  V30 BEGIN CTAB
M  V30 COUNTS 36 37 0 0 0
M  V30 BEGIN ATOM
M  V30 1 O 1.9703 -1.6548 1.103 0
M  V30 2 C 1.8778 -2.0317 -0.0542 0
M  V30 3 N 0.7099 -2.424 -0.6807 0
M  V30 4 C 2.9812 -2.0444 -1.082 0
M  V30 5 C 0.8782 -2.5803 -2.1016 0
M  V30 6 C -0.5934 -2.3557 -0.045 0
M  V30 7 C 2.3685 -2.8329 -2.2362 0
M  V30 8 C -1.147 -0.9358 -0.1549 0
M  V30 9 O -1.9054 -0.6121 -1.0657 0
M  V30 10 N -0.6272 -0.0871 0.8099 0
M  V30 11 C -0.9324 1.2849 0.8977 0
M  V30 12 C 0.1311 2.2104 0.8346 0
M  V30 13 C -2.2524 1.7317 1.1088 0
M  V30 14 C -0.1457 3.5814 0.9427 0
M  V30 15 C 1.5574 1.7706 0.6451 0
M  V30 16 C -2.4972 3.1125 1.1884 0
M  V30 17 C -3.4257 0.7996 1.2377 0
M  V30 18 C -1.4527 4.0299 1.1087 0
M  V30 19 H 3.1992 -1.0132 -1.3762 0
M  V30 20 H 3.8802 -2.5243 -0.6888 0
M  V30 21 H 0.2789 -3.4154 -2.4741 0
M  V30 22 H 0.5792 -1.6504 -2.5962 0
M  V30 23 H -1.2755 -3.0636 -0.5248 0
M  V30 24 H -0.4949 -2.6238 1.0126 0
M  V30 25 H 2.578 -3.901 -2.0977 0
M  V30 26 H 2.7637 -2.5371 -3.2119 0
M  V30 27 H 0.1917 -0.4157 1.3202 0
M  V30 28 H 0.6584 4.3118 0.8899 0
M  V30 29 H 1.6489 1.1432 -0.247 0
M  V30 30 H 2.2275 2.6261 0.5086 0
M  V30 31 H 1.902 1.2162 1.5234 0
M  V30 32 H -3.512 3.4805 1.3245 0
M  V30 33 H -3.145 -0.1344 1.7337 0
M  V30 34 H -3.8476 0.5803 0.2529 0
M  V30 35 H -4.2129 1.2494 1.8535 0
M  V30 36 H -1.6581 5.0947 1.1803 0
M  V30 END ATOM
M  V30 BEGIN BOND
M  V30 1 2 1 2
M  V30 2 1 2 3
M  V30 3 1 2 4
M  V30 4 1 3 5
M  V30 5 1 3 6
M  V30 6 1 4 7
M  V30 7 1 6 8
M  V30 8 2 8 9
M  V30 9 1 8 10
M  V30 10 1 10 11
M  V30 11 2 11 12
M  V30 12 1 11 13
M  V30 13 1 12 14
M  V30 14 1 12 15
M  V30 15 2 13 16
M  V30 16 1 13 17
M  V30 17 2 14 18
M  V30 18 1 5 7
M  V30 19 1 16 18
M  V30 20 1 4 19
M  V30 21 1 4 20
M  V30 22 1 5 21
M  V30 23 1 5 22
M  V30 24 1 6 23
M  V30 25 1 6 24
M  V30 26 1 7 25
M  V30 27 1 7 26
M  V30 28 1 10 27
M  V30 29 1 14 28
M  V30 30 1 15 29
M  V30 31 1 15 30
M  V30 32 1 15 31
M  V30 33 1 16 32
M  V30 34 1 17 33
M  V30 35 1 17 34
M  V30 36 1 17 35
M  V30 37 1 18 36
M  V30 END BOND
M  V30 END CTAB
M  END
>  <Column 1>
2009

>  <level_0>
2182

>  <index>
2182

>  <Unnamed: 0>
2182

>  <NO.>
2194

>  <Name>
nefiracetam

>  <IUPAC_name>
n-(2-6-dimethylphenyl)-2-(2-oxopyrrolidin-1-yl)acetamide

>  <SMILES>
Cc1cccc(C)c1NC(=O)CN1CCCC1=O

>  <CID>
71157

>  <logBB>


>  <BBB+/BBB->
BBB+

>  <Inchi>
InChI=1S/C14H18N2O2/c1-10-5-3-6-11(2)14(10)15-12(17)9-16-8-4-7-13(16)18/h3-5-6H-4-7-9H2-1-2H3-(H-15-17)

>  <threshold>
-1

>  <reference>
R1|R13|R19|R6|R24|R27|R27|R27|R30|R30|

>  <group>
B

>  <Class>
1

>  <ABC>
13.75

>  <ABCGG>
12.46

>  <nAcid>
0

>  <nBase>
0

>  <nAromAtom>
6

>  <nAromBond>
6

>  <nAtom>
36

>  <nHeavyAtom>
18

>  <nSpiro>
0

>  <nBridgehead>
0

>  <nHetero>
4

>  <nN>
2

>  <nO>
2

>  <nF>
0

>  <BalabanJ>
1.8

>  <BertzCT>
462.43

>  <nBonds>
37

>  <nBondsO>
19

>  <nBondsS>
29

>  <nBondsD>
2

>  <nBondsT>
0

>  <nBondsA>
6

>  <nBondsM>
8

>  <nBondsKS>
32

>  <nBondsKD>
5

>  <RNCG>
0.22

>  <RPCG>
0.16

>  <FCSP3>
0.43

>  <SZ>
22

>  <Sm>
20.51

>  <Sv>
21.82

>  <Sse>
35.98

>  <Sp>
23.46

>  <Si>
40.74

>  <MZ>
0.61

>  <Mm>
0.57

>  <Mv>
0.61

>  <Mse>
1

>  <Mp>
0.65

>  <Mi>
1.13

>  <NsCH3>
2

>  <NdCH2>
0

>  <NssCH2>
4

>  <NtCH>
0

>  <NdsCH>
0

>  <NaaCH>
3

>  <NsssCH>
0

>  <NddC>
0

>  <NtsC>
0

>  <NdssC>
2

>  <NaasC>
3

>  <NaaaC>
0

>  <NssssC>
0

>  <NsNH3>
0

>  <NsNH2>
0

>  <NssNH2>
0

>  <NdNH>
0

>  <NssNH>
1

>  <NaaNH>
0

>  <NtN>
0

>  <NsssNH>
0

>  <NdsN>
0

>  <NaaN>
0

>  <NsssN>
1

>  <NddsN>
0

>  <NaasN>
0

>  <NssssN>
0

>  <NsOH>
0

>  <NdO>
2

>  <NssO>
0

>  <NaaO>
0

>  <NsF>
0

>  <NsSiH3>
0

>  <NssSiH2>
0

>  <NsssSiH>
0

>  <NssssSi>
0

>  <NsPH2>
0

>  <NssPH>
0

>  <NsssP>
0

>  <NdsssP>
0

>  <NsssssP>
0

>  <NsSH>
0

>  <NdS>
0

>  <NssS>
0

>  <NaaS>
0

>  <NdssS>
0

>  <NddssS>
0

>  <NsCl>
0

>  <NsBr>
0

>  <NsI>
0

>  <fragCpx>
55.04

>  <fMF>
0.39

>  <nHBAcc>
2

>  <nHBDon>
1

>  <Kier1>
14.41

>  <Kier2>
6.44

>  <Lipinski>
1

>  <GhoseFilter>
1

>  <FilterItLogS>
-3.46

>  <VMcGowan>
196.6

>  <LabuteASA>
106.98

>  <PEOE_VSA1>
10.22

>  <PEOE_VSA2>
9.59

>  <PEOE_VSA3>
0

>  <PEOE_VSA4>
0

>  <PEOE_VSA5>
0

>  <PEOE_VSA6>
18.2

>  <PEOE_VSA7>
31.4

>  <PEOE_VSA8>
18.65

>  <PEOE_VSA9>
6.54

>  <PEOE_VSA10>
0

>  <PEOE_VSA11>
0

>  <PEOE_VSA12>
11.81

>  <PEOE_VSA13>
0

>  <SMR_VSA1>
9.59

>  <SMR_VSA2>
0

>  <SMR_VSA3>
4.9

>  <SMR_VSA4>
0

>  <SMR_VSA5>
26.69

>  <SMR_VSA6>
18.41

>  <SMR_VSA7>
29.33

>  <SMR_VSA8>
0

>  <SMR_VSA9>
0

>  <SlogP_VSA1>
5.32

>  <SlogP_VSA2>
29.8

>  <SlogP_VSA3>
9.59

>  <SlogP_VSA4>
13.85

>  <SlogP_VSA5>
23.97

>  <SlogP_VSA6>
18.2

>  <SlogP_VSA7>
0

>  <SlogP_VSA8>
0

>  <SlogP_VSA9>
0

>  <SlogP_VSA10>
5.69

>  <SlogP_VSA11>
0

>  <EState_VSA1>
0

>  <EState_VSA2>
18.36

>  <EState_VSA3>
12.97

>  <EState_VSA4>
23.24

>  <EState_VSA5>
0

>  <EState_VSA6>
4.9

>  <EState_VSA7>
32.05

>  <EState_VSA8>
5.32

>  <EState_VSA9>
0

>  <EState_VSA10>
9.59

>  <VSA_EState1>
0

>  <VSA_EState2>
24.97

>  <VSA_EState3>
2.89

>  <VSA_EState4>
2.93

>  <VSA_EState5>
-0.05

>  <VSA_EState6>
5.89

>  <VSA_EState7>
1.42

>  <VSA_EState8>
4.78

>  <VSA_EState9>
0

>  <apol>
39.19

>  <bpol>
22.07

>  <nRing>
2

>  <nHRing>
1

>  <naRing>
1

>  <naHRing>
0

>  <nARing 2>
1

>  <nAHRing 2>
1

>  <nFRing>
0

>  <nFHRing>
0

>  <nFaRing>
0

>  <nFaHRing>
0

>  <nFARing 2>
0

>  <nFAHRing 2>
0

>  <nRot>
3

>  <SLogP>
1.86

>  <SMR>
70.36

>  <TopoPSA(NO)>
49.41

>  <TopoPSA>
49.41

>  <JGI1>
0.21

>  <JGI2>
0.09

>  <JGI3>
0.06

>  <JGI4>
0.05

>  <JGI5>
0.01

>  <Diameter>
9

>  <Radius>
5

>  <TMWC10>
107.92

>  <TSRW10>
64.2

>  <MW>
246.14

>  <AMW>
6.84

>  <WPath>
640

>  <WPol>
24

>  <Zagreb1>
90

>  <Zagreb2>
103

>  <mZagreb2>
4

>  <yes>


>  <nAR-cont>
0.816016

>  <nHA-cont>
0.991161285

>  <MWHBN>
0.19121861

>  <MWHBN-cont>
0.996361812

>  <TPSA-cont>
0.655087518

>  <pka_cont>
0.97

>  <yes.1>


>  <BBB_SCORE>
5.096895039

>  <MMFF94 Energy>
19.003

$$$$
Compound 1656
Actelion Java MolfileCreator 2.0

  0  0  0  0  0  0              0 V3000
M  V30 BEGIN CTAB
M  V30 COUNTS 34 35 0 0 0
M  V30 BEGIN ATOM
M  V30 1 O 0.7843 0.5489 -1.7261 0
M  V30 2 C 0.5877 0.2763 -0.5473 0
M  V30 3 N -0.6377 -0.0294 0.0161 0
M  V30 4 C 1.7483 0.2059 0.3838 0
M  V30 5 C -1.8465 -0.0404 -0.708 0
M  V30 6 C 2.994 -0.1692 -0.1276 0
M  V30 7 C 1.6292 0.5225 1.7415 0
M  V30 8 C -2.3567 1.1335 -1.2965 0
M  V30 9 C -2.5756 -1.2466 -0.77 0
M  V30 10 C 4.105 -0.2501 0.7174 0
M  V30 11 C 2.7477 0.4401 2.5784 0
M  V30 12 C -3.5728 1.0676 -1.9952 0
M  V30 13 C -1.6448 2.457 -1.2338 0
M  V30 14 C -3.7982 -1.2722 -1.4566 0
M  V30 15 C -2.067 -2.5134 -0.1381 0
M  V30 16 C 3.9948 0.0636 2.0737 0
M  V30 17 C -4.2896 -0.124 -2.0717 0
M  V30 18 N 5.0869 -0.0506 2.9125 0
M  V30 19 H -0.6584 -0.4576 0.9311 0
M  V30 20 H 3.1027 -0.4055 -1.1843 0
M  V30 21 H 0.6857 0.8591 2.1615 0
M  V30 22 H 5.061 -0.5567 0.3013 0
M  V30 23 H 2.6386 0.6847 3.632 0
M  V30 24 H -3.972 1.9551 -2.4818 0
M  V30 25 H -0.9272 2.5423 -2.0547 0
M  V30 26 H -2.357 3.2858 -1.316 0
M  V30 27 H -1.1277 2.5897 -0.2785 0
M  V30 28 H -4.3721 -2.1934 -1.5272 0
M  V30 29 H -2.0274 -2.4044 0.9503 0
M  V30 30 H -1.0693 -2.7561 -0.518 0
M  V30 31 H -2.7176 -3.3652 -0.3629 0
M  V30 32 H -5.2316 -0.1569 -2.6128 0
M  V30 33 H 5.028 0.2452 3.8769 0
M  V30 34 H 6.0011 -0.2569 2.5334 0
M  V30 END ATOM
M  V30 BEGIN BOND
M  V30 1 2 1 2
M  V30 2 1 2 3
M  V30 3 1 2 4
M  V30 4 1 3 5
M  V30 5 2 4 6
M  V30 6 1 4 7
M  V30 7 2 5 8
M  V30 8 1 5 9
M  V30 9 1 6 10
M  V30 10 2 7 11
M  V30 11 1 8 12
M  V30 12 1 8 13
M  V30 13 2 9 14
M  V30 14 1 9 15
M  V30 15 2 10 16
M  V30 16 2 12 17
M  V30 17 1 16 18
M  V30 18 1 11 16
M  V30 19 1 14 17
M  V30 20 1 3 19
M  V30 21 1 6 20
M  V30 22 1 7 21
M  V30 23 1 10 22
M  V30 24 1 11 23
M  V30 25 1 12 24
M  V30 26 1 13 25
M  V30 27 1 13 26
M  V30 28 1 13 27
M  V30 29 1 14 28
M  V30 30 1 15 29
M  V30 31 1 15 30
M  V30 32 1 15 31
M  V30 33 1 17 32
M  V30 34 1 18 33
M  V30 35 1 18 34
M  V30 END BOND
M  V30 END CTAB
M  END
>  <Column 1>
2010

>  <level_0>
2183

>  <index>
2183

>  <Unnamed: 0>
2183

>  <NO.>
2195

>  <Name>
ameltolide

>  <IUPAC_name>
4-amino-n-(2-6-dimethylphenyl)benzamide

>  <SMILES>
Cc1cccc(C)c1NC(=O)c1ccc(N)cc1

>  <CID>
13086

>  <logBB>


>  <BBB+/BBB->
BBB+

>  <Inchi>
InChI=1S/C15H16N2O/c1-10-4-3-5-11(2)14(10)17-15(18)12-6-8-13(16)9-7-12/h3-9H-16H2-1-2H3-(H-17-18)

>  <threshold>
-1

>  <reference>
R1|R13|R19|R6|R24|R27|R27|R27|R30|R30|

>  <group>
B

>  <Class>
1

>  <ABC>
13.75

>  <ABCGG>
11.77

>  <nAcid>
0

>  <nBase>
0

>  <nAromAtom>
12

>  <nAromBond>
12

>  <nAtom>
34

>  <nHeavyAtom>
18

>  <nSpiro>
0

>  <nBridgehead>
0

>  <nHetero>
3

>  <nN>
2

>  <nO>
1

>  <nF>
0

>  <BalabanJ>
1.84

>  <BertzCT>
553.3

>  <nBonds>
35

>  <nBondsO>
19

>  <nBondsS>
22

>  <nBondsD>
1

>  <nBondsT>
0

>  <nBondsA>
12

>  <nBondsM>
13

>  <nBondsKS>
28

>  <nBondsKD>
7

>  <RNCG>
0.27

>  <RPCG>
0.17

>  <FCSP3>
0.13

>  <SZ>
21.33

>  <Sm>
20.01

>  <Sv>
21.57

>  <Sse>
33.76

>  <Sp>
23.19

>  <Si>
38.11

>  <MZ>
0.63

>  <Mm>
0.59

>  <Mv>
0.63

>  <Mse>
0.99

>  <Mp>
0.68

>  <Mi>
1.12

>  <NsCH3>
2

>  <NdCH2>
0

>  <NssCH2>
0

>  <NtCH>
0

>  <NdsCH>
0

>  <NaaCH>
7

>  <NsssCH>
0

>  <NddC>
0

>  <NtsC>
0

>  <NdssC>
1

>  <NaasC>
5

>  <NaaaC>
0

>  <NssssC>
0

>  <NsNH3>
0

>  <NsNH2>
1

>  <NssNH2>
0

>  <NdNH>
0

>  <NssNH>
1

>  <NaaNH>
0

>  <NtN>
0

>  <NsssNH>
0

>  <NdsN>
0

>  <NaaN>
0

>  <NsssN>
0

>  <NddsN>
0

>  <NaasN>
0

>  <NssssN>
0

>  <NsOH>
0

>  <NdO>
1

>  <NssO>
0

>  <NaaO>
0

>  <NsF>
0

>  <NsSiH3>
0

>  <NssSiH2>
0

>  <NsssSiH>
0

>  <NssssSi>
0

>  <NsPH2>
0

>  <NssPH>
0

>  <NsssP>
0

>  <NdsssP>
0

>  <NsssssP>
0

>  <NsSH>
0

>  <NdS>
0

>  <NssS>
0

>  <NaaS>
0

>  <NdssS>
0

>  <NddssS>
0

>  <NsCl>
0

>  <NsBr>
0

>  <NsI>
0

>  <fragCpx>
55.03

>  <fMF>
0.41

>  <nHBAcc>
2

>  <nHBDon>
2

>  <Kier1>
14.41

>  <Kier2>
6.44

>  <Lipinski>
1

>  <GhoseFilter>
1

>  <FilterItLogS>
-4.28

>  <VMcGowan>
196.22

>  <LabuteASA>
106.63

>  <PEOE_VSA1>
11.05

>  <PEOE_VSA2>
4.79

>  <PEOE_VSA3>
0

>  <PEOE_VSA4>
0

>  <PEOE_VSA5>
0

>  <PEOE_VSA6>
18.2

>  <PEOE_VSA7>
49.24

>  <PEOE_VSA8>
16.94

>  <PEOE_VSA9>
0

>  <PEOE_VSA10>
0

>  <PEOE_VSA11>
0

>  <PEOE_VSA12>
0

>  <PEOE_VSA13>
5.91

>  <SMR_VSA1>
4.79

>  <SMR_VSA2>
0

>  <SMR_VSA3>
0

>  <SMR_VSA4>
0

>  <SMR_VSA5>
13.85

>  <SMR_VSA6>
11.05

>  <SMR_VSA7>
59.15

>  <SMR_VSA8>
0

>  <SMR_VSA9>
0

>  <SlogP_VSA1>
11.05

>  <SlogP_VSA2>
5.91

>  <SlogP_VSA3>
0

>  <SlogP_VSA4>
13.85

>  <SlogP_VSA5>
21.48

>  <SlogP_VSA6>
42.46

>  <SlogP_VSA7>
0

>  <SlogP_VSA8>
0

>  <SlogP_VSA9>
0

>  <SlogP_VSA10>
11.37

>  <SlogP_VSA11>
0

>  <EState_VSA1>
0

>  <EState_VSA2>
5.91

>  <EState_VSA3>
11.25

>  <EState_VSA4>
16.81

>  <EState_VSA5>
0

>  <EState_VSA6>
24.27

>  <EState_VSA7>
32.05

>  <EState_VSA8>
5.32

>  <EState_VSA9>
5.73

>  <EState_VSA10>
4.79

>  <VSA_EState1>
0

>  <VSA_EState2>
12.08

>  <VSA_EState3>
2.93

>  <VSA_EState4>
9.83

>  <VSA_EState5>
-0.12

>  <VSA_EState6>
12.82

>  <VSA_EState7>
0

>  <VSA_EState8>
3.96

>  <VSA_EState9>
0

>  <apol>
38.72

>  <bpol>
16.92

>  <nRing>
2

>  <nHRing>
0

>  <naRing>
2

>  <naHRing>
0

>  <nARing 2>
0

>  <nAHRing 2>
0

>  <nFRing>
0

>  <nFHRing>
0

>  <nFaRing>
0

>  <nFaHRing>
0

>  <nFARing 2>
0

>  <nFAHRing 2>
0

>  <nRot>
2

>  <SLogP>
3.14

>  <SMR>
74.72

>  <TopoPSA(NO)>
55.12

>  <TopoPSA>
55.12

>  <JGI1>
0.21

>  <JGI2>
0.1

>  <JGI3>
0.05

>  <JGI4>
0.05

>  <JGI5>
0.03

>  <Diameter>
10

>  <Radius>
5

>  <TMWC10>
107.92

>  <TSRW10>
50.79

>  <MW>
240.13

>  <AMW>
7.06

>  <WPath>
631

>  <WPol>
26

>  <Zagreb1>
90

>  <Zagreb2>
103

>  <mZagreb2>
4

>  <yes>


>  <nAR-cont>
0.336376

>  <nHA-cont>
0.991161285

>  <MWHBN>
0.258128989

>  <MWHBN-cont>
0.945082999

>  <TPSA-cont>
0.615228173

>  <pka_cont>
0.97

>  <yes.1>


>  <BBB_SCORE>
4.460618128

>  <MMFF94 Energy>
36.373

$$$$
Compound 1657
Actelion Java MolfileCreator 2.0

  0  0  0  0  0  0              0 V3000
M  V30 BEGIN CTAB
M  V30 COUNTS 31 32 0 0 0
M  V30 BEGIN ATOM
M  V30 1 S 2.4808 -0.2398 1.5999 0
M  V30 2 C 1.1688 -0.046 0.4449 0
M  V30 3 C 3.931 0.1133 0.5971 0
M  V30 4 N 1.3138 0.2845 -0.7834 0
M  V30 5 N -0.0243 -0.3209 1.0549 0
M  V30 6 C 3.6175 1.1271 -0.4779 0
M  V30 7 C 2.5855 0.5536 -1.4238 0
M  V30 8 C -1.3178 -0.2622 0.5037 0
M  V30 9 C -1.82 0.8892 -0.1426 0
M  V30 10 C -2.1408 -1.4142 0.5885 0
M  V30 11 C -3.1015 0.8584 -0.7217 0
M  V30 12 C -1.0479 2.1782 -0.2414 0
M  V30 13 C -3.4246 -1.4061 0.0207 0
M  V30 14 C -1.6574 -2.6731 1.2602 0
M  V30 15 C -3.8989 -0.2779 -0.6376 0
M  V30 16 H 4.7218 0.4915 1.2525 0
M  V30 17 H 4.2927 -0.8218 0.1561 0
M  V30 18 H 0.0398 -0.7257 1.9769 0
M  V30 19 H 4.5321 1.3569 -1.0366 0
M  V30 20 H 3.2656 2.0698 -0.0402 0
M  V30 21 H 2.9556 -0.3614 -1.9008 0
M  V30 22 H 2.4141 1.2764 -2.2295 0
M  V30 23 H -3.4874 1.7357 -1.237 0
M  V30 24 H -0.4897 2.2173 -1.1809 0
M  V30 25 H -1.7293 3.0364 -0.2135 0
M  V30 26 H -0.3626 2.308 0.6014 0
M  V30 27 H -4.0582 -2.2883 0.0766 0
M  V30 28 H -1.4813 -2.4904 2.3251 0
M  V30 29 H -0.7332 -3.025 0.7906 0
M  V30 30 H -2.3927 -3.4809 1.1807 0
M  V30 31 H -4.8888 -0.2827 -1.0855 0
M  V30 END ATOM
M  V30 BEGIN BOND
M  V30 1 1 1 2
M  V30 2 1 1 3
M  V30 3 2 2 4
M  V30 4 1 2 5
M  V30 5 1 3 6
M  V30 6 1 4 7
M  V30 7 1 5 8
M  V30 8 2 8 9
M  V30 9 1 8 10
M  V30 10 1 9 11
M  V30 11 1 9 12
M  V30 12 2 10 13
M  V30 13 1 10 14
M  V30 14 2 11 15
M  V30 15 1 6 7
M  V30 16 1 13 15
M  V30 17 1 3 16
M  V30 18 1 3 17
M  V30 19 1 5 18
M  V30 20 1 6 19
M  V30 21 1 6 20
M  V30 22 1 7 21
M  V30 23 1 7 22
M  V30 24 1 11 23
M  V30 25 1 12 24
M  V30 26 1 12 25
M  V30 27 1 12 26
M  V30 28 1 13 27
M  V30 29 1 14 28
M  V30 30 1 14 29
M  V30 31 1 14 30
M  V30 32 1 15 31
M  V30 END BOND
M  V30 END CTAB
M  END
>  <Column 1>
2011

>  <level_0>
2184

>  <index>
2184

>  <Unnamed: 0>
2184

>  <NO.>
2196

>  <Name>
xylazine

>  <IUPAC_name>
n-(2-6-dimethylphenyl)-5-6-dihydro-4h-1-3-thiazin-2-amine

>  <SMILES>
Cc1cccc(C)c1NC1=NCCCS1

>  <CID>
5707

>  <logBB>


>  <BBB+/BBB->
BBB+

>  <Inchi>
InChI=1S/C12H16N2S/c1-9-5-3-6-10(2)11(9)14-12-13-7-4-8-15-12/h3-5-6H-4-7-8H2-1-2H3-(H-13-14)

>  <threshold>
-1

>  <reference>
R1|R13|R19|R6|R24|R27|R27|R27|R30|R30|

>  <group>
B

>  <Class>
1

>  <ABC>
11.45

>  <ABCGG>
9.88

>  <nAcid>
0

>  <nBase>
2

>  <nAromAtom>
6

>  <nAromBond>
6

>  <nAtom>
31

>  <nHeavyAtom>
15

>  <nSpiro>
0

>  <nBridgehead>
0

>  <nHetero>
3

>  <nN>
2

>  <nO>
0

>  <nF>
0

>  <BalabanJ>
1.84

>  <BertzCT>
364.96

>  <nBonds>
32

>  <nBondsO>
16

>  <nBondsS>
25

>  <nBondsD>
1

>  <nBondsT>
0

>  <nBondsA>
6

>  <nBondsM>
7

>  <nBondsKS>
28

>  <nBondsKD>
4

>  <RNCG>
0.33

>  <RPCG>
0.17

>  <FCSP3>
0.42

>  <SZ>
19.67

>  <Sm>
18.34

>  <Sv>
19.04

>  <Sse>
30.51

>  <Sp>
21.44

>  <Si>
34.82

>  <MZ>
0.63

>  <Mm>
0.59

>  <Mv>
0.61

>  <Mse>
0.98

>  <Mp>
0.69

>  <Mi>
1.12

>  <NsCH3>
2

>  <NdCH2>
0

>  <NssCH2>
3

>  <NtCH>
0

>  <NdsCH>
0

>  <NaaCH>
3

>  <NsssCH>
0

>  <NddC>
0

>  <NtsC>
0

>  <NdssC>
1

>  <NaasC>
3

>  <NaaaC>
0

>  <NssssC>
0

>  <NsNH3>
0

>  <NsNH2>
0

>  <NssNH2>
0

>  <NdNH>
0

>  <NssNH>
1

>  <NaaNH>
0

>  <NtN>
0

>  <NsssNH>
0

>  <NdsN>
1

>  <NaaN>
0

>  <NsssN>
0

>  <NddsN>
0

>  <NaasN>
0

>  <NssssN>
0

>  <NsOH>
0

>  <NdO>
0

>  <NssO>
0

>  <NaaO>
0

>  <NsF>
0

>  <NsSiH3>
0

>  <NssSiH2>
0

>  <NsssSiH>
0

>  <NssssSi>
0

>  <NsPH2>
0

>  <NssPH>
0

>  <NsssP>
0

>  <NdsssP>
0

>  <NsssssP>
0

>  <NsSH>
0

>  <NdS>
0

>  <NssS>
1

>  <NaaS>
0

>  <NdssS>
0

>  <NddssS>
0

>  <NsCl>
0

>  <NsBr>
0

>  <NsI>
0

>  <fragCpx>
46.03

>  <fMF>
0.42

>  <nHBAcc>
3

>  <nHBDon>
1

>  <Kier1>
11.48

>  <Kier2>
5.37

>  <Lipinski>
1

>  <GhoseFilter>
1

>  <FilterItLogS>
-4.03

>  <VMcGowan>
177.33

>  <LabuteASA>
95.18

>  <PEOE_VSA1>
5.32

>  <PEOE_VSA2>
4.99

>  <PEOE_VSA3>
0

>  <PEOE_VSA4>
0

>  <PEOE_VSA5>
0

>  <PEOE_VSA6>
29.96

>  <PEOE_VSA7>
31.4

>  <PEOE_VSA8>
17.99

>  <PEOE_VSA9>
0

>  <PEOE_VSA10>
0

>  <PEOE_VSA11>
5.17

>  <PEOE_VSA12>
0

>  <PEOE_VSA13>
0

>  <SMR_VSA1>
0

>  <SMR_VSA2>
0

>  <SMR_VSA3>
0

>  <SMR_VSA4>
4.99

>  <SMR_VSA5>
20.27

>  <SMR_VSA6>
17.61

>  <SMR_VSA7>
29.33

>  <SMR_VSA8>
0

>  <SMR_VSA9>
0

>  <SlogP_VSA1>
5.32

>  <SlogP_VSA2>
17.47

>  <SlogP_VSA3>
0

>  <SlogP_VSA4>
13.85

>  <SlogP_VSA5>
17.55

>  <SlogP_VSA6>
23.19

>  <SlogP_VSA7>
0

>  <SlogP_VSA8>
0

>  <SlogP_VSA9>
0

>  <SlogP_VSA10>
5.69

>  <SlogP_VSA11>
0

>  <EState_VSA1>
0

>  <EState_VSA2>
0

>  <EState_VSA3>
0

>  <EState_VSA4>
11.71

>  <EState_VSA5>
28.99

>  <EState_VSA6>
0

>  <EState_VSA7>
11.76

>  <EState_VSA8>
42.36

>  <EState_VSA9>
0

>  <EState_VSA10>
0

>  <VSA_EState1>
0

>  <VSA_EState2>
4.48

>  <VSA_EState3>
4.5

>  <VSA_EState4>
3.78

>  <VSA_EState5>
1.18

>  <VSA_EState6>
6.35

>  <VSA_EState7>
1.2

>  <VSA_EState8>
5.22

>  <VSA_EState9>
0

>  <apol>
35.81

>  <bpol>
20.22

>  <nRing>
2

>  <nHRing>
1

>  <naRing>
1

>  <naHRing>
0

>  <nARing 2>
1

>  <nAHRing 2>
1

>  <nFRing>
0

>  <nFHRing>
0

>  <nFaRing>
0

>  <nFaHRing>
0

>  <nFARing 2>
0

>  <nFAHRing 2>
0

>  <nRot>
1

>  <SLogP>
3.21

>  <SMR>
68.92

>  <TopoPSA(NO)>
24.39

>  <TopoPSA>
49.69

>  <JGI1>
0.16

>  <JGI2>
0.07

>  <JGI3>
0.04

>  <JGI4>
0.06

>  <JGI5>
0.02

>  <Diameter>
8

>  <Radius>
4

>  <TMWC10>
99.84

>  <TSRW10>
46.74

>  <MW>
220.1

>  <AMW>
7.1

>  <WPath>
370

>  <WPol>
20

>  <Zagreb1>
74

>  <Zagreb2>
84

>  <mZagreb2>
3.39

>  <yes>


>  <nAR-cont>
0.816016

>  <nHA-cont>
0.92539861

>  <MWHBN>
0.269618675

>  <MWHBN-cont>
0.920975263

>  <TPSA-cont>
0.653132944

>  <pka_cont>
0.97

>  <yes.1>


>  <BBB_SCORE>
4.914143394

>  <MMFF94 Energy>
-17.076

$$$$
Compound 1658
Actelion Java MolfileCreator 2.0

  0  0  0  0  0  0              0 V3000
M  V30 BEGIN CTAB
M  V30 COUNTS 28 29 0 0 0
M  V30 BEGIN ATOM
M  V30 1 N 0.5501 3.6193 2.5167 0
M  V30 2 C -0.5599 3.2477 1.9232 0
M  V30 3 C 1.3932 2.544 2.4118 0
M  V30 4 N -0.4678 1.9747 1.4406 0
M  V30 5 C 0.787 1.5008 1.7436 0
M  V30 6 C 1.2903 0.142 1.3868 0
M  V30 7 C 0.3326 -0.6783 0.5396 0
M  V30 8 C 0.2963 -0.5913 -0.8751 0
M  V30 9 C -0.5756 -1.5204 1.2068 0
M  V30 10 C -0.6191 -1.3987 -1.5921 0
M  V30 11 C 1.2674 0.3028 -1.609 0
M  V30 12 C -1.4927 -2.2857 0.4959 0
M  V30 13 C -1.5119 -2.2268 -0.8931 0
M  V30 14 C -0.6825 -1.3911 -3.0971 0
M  V30 15 H -1.4528 3.8484 1.8125 0
M  V30 16 H 2.3942 2.5772 2.823 0
M  V30 17 H -1.1916 1.4731 0.9418 0
M  V30 18 H 1.506 -0.4057 2.3141 0
M  V30 19 H 2.2583 0.2247 0.8781 0
M  V30 20 H -0.5684 -1.5829 2.2938 0
M  V30 21 H 0.9065 0.5783 -2.6039 0
M  V30 22 H 2.2306 -0.2054 -1.7162 0
M  V30 23 H 1.4168 1.2495 -1.0817 0
M  V30 24 H -2.1865 -2.9351 1.0233 0
M  V30 25 H -2.2286 -2.8421 -1.4336 0
M  V30 26 H 0.3087 -1.5737 -3.524 0
M  V30 27 H -1.344 -2.1777 -3.476 0
M  V30 28 H -1.0682 -0.4309 -3.4541 0
M  V30 END ATOM
M  V30 BEGIN BOND
M  V30 1 2 1 2
M  V30 2 1 1 3
M  V30 3 1 2 4
M  V30 4 2 3 5
M  V30 5 1 5 6
M  V30 6 1 6 7
M  V30 7 2 7 8
M  V30 8 1 7 9
M  V30 9 1 8 10
M  V30 10 1 8 11
M  V30 11 2 9 12
M  V30 12 2 10 13
M  V30 13 1 10 14
M  V30 14 1 4 5
M  V30 15 1 12 13
M  V30 16 1 2 15
M  V30 17 1 3 16
M  V30 18 1 4 17
M  V30 19 1 6 18
M  V30 20 1 6 19
M  V30 21 1 9 20
M  V30 22 1 11 21
M  V30 23 1 11 22
M  V30 24 1 11 23
M  V30 25 1 12 24
M  V30 26 1 13 25
M  V30 27 1 14 26
M  V30 28 1 14 27
M  V30 29 1 14 28
M  V30 END BOND
M  V30 END CTAB
M  END
>  <Column 1>
2012

>  <level_0>
2185

>  <index>
2185

>  <Unnamed: 0>
2185

>  <NO.>
2197

>  <Name>
detomidine

>  <IUPAC_name>
5-[(2-3-dimethylphenyl)methyl]-1h-imidazole

>  <SMILES>
Cc1cccc(Cc2cnc[nH]2)c1C

>  <CID>
56032

>  <logBB>


>  <BBB+/BBB->
BBB+

>  <Inchi>
InChI=1S/C12H14N2/c1-9-4-3-5-11(10(9)2)6-12-7-13-8-14-12/h3-5-7-8H-6H2-1-2H3-(H-13-14)

>  <threshold>
-1

>  <reference>
R1|R13|R13|R19|R6|R24|R27|R27|R27|R30|R30|

>  <group>
B

>  <Class>
1

>  <ABC>
10.74

>  <ABCGG>
9.81

>  <nAcid>
0

>  <nBase>
0

>  <nAromAtom>
11

>  <nAromBond>
11

>  <nAtom>
28

>  <nHeavyAtom>
14

>  <nSpiro>
0

>  <nBridgehead>
0

>  <nHetero>
2

>  <nN>
2

>  <nO>
0

>  <nF>
0

>  <BalabanJ>
1.83

>  <BertzCT>
415.89

>  <nBonds>
29

>  <nBondsO>
15

>  <nBondsS>
18

>  <nBondsD>
0

>  <nBondsT>
0

>  <nBondsA>
11

>  <nBondsM>
11

>  <nBondsKS>
24

>  <nBondsKD>
5

>  <RNCG>
0.35

>  <RPCG>
0.17

>  <FCSP3>
0.25

>  <SZ>
16.67

>  <Sm>
15.51

>  <Sv>
17.31

>  <Sse>
27.54

>  <Sp>
18.91

>  <Si>
31.49

>  <MZ>
0.6

>  <Mm>
0.55

>  <Mv>
0.62

>  <Mse>
0.98

>  <Mp>
0.68

>  <Mi>
1.12

>  <NsCH3>
2

>  <NdCH2>
0

>  <NssCH2>
1

>  <NtCH>
0

>  <NdsCH>
0

>  <NaaCH>
5

>  <NsssCH>
0

>  <NddC>
0

>  <NtsC>
0

>  <NdssC>
0

>  <NaasC>
4

>  <NaaaC>
0

>  <NssssC>
0

>  <NsNH3>
0

>  <NsNH2>
0

>  <NssNH2>
0

>  <NdNH>
0

>  <NssNH>
0

>  <NaaNH>
1

>  <NtN>
0

>  <NsssNH>
0

>  <NdsN>
0

>  <NaaN>
1

>  <NsssN>
0

>  <NddsN>
0

>  <NaasN>
0

>  <NssssN>
0

>  <NsOH>
0

>  <NdO>
0

>  <NssO>
0

>  <NaaO>
0

>  <NsF>
0

>  <NsSiH3>
0

>  <NssSiH2>
0

>  <NsssSiH>
0

>  <NssssSi>
0

>  <NsPH2>
0

>  <NssPH>
0

>  <NsssP>
0

>  <NdsssP>
0

>  <NsssssP>
0

>  <NsSH>
0

>  <NdS>
0

>  <NssS>
0

>  <NaaS>
0

>  <NdssS>
0

>  <NddssS>
0

>  <NsCl>
0

>  <NsBr>
0

>  <NsI>
0

>  <fragCpx>
43.02

>  <fMF>
0.43

>  <nHBAcc>
1

>  <nHBDon>
1

>  <Kier1>
10.52

>  <Kier2>
4.68

>  <Lipinski>
1

>  <GhoseFilter>
1

>  <FilterItLogS>
-4.18

>  <VMcGowan>
156.68

>  <LabuteASA>
84.01

>  <PEOE_VSA1>
4.98

>  <PEOE_VSA2>
0

>  <PEOE_VSA3>
4.98

>  <PEOE_VSA4>
0

>  <PEOE_VSA5>
0

>  <PEOE_VSA6>
18.2

>  <PEOE_VSA7>
30.54

>  <PEOE_VSA8>
18.31

>  <PEOE_VSA9>
6.33

>  <PEOE_VSA10>
0

>  <PEOE_VSA11>
0

>  <PEOE_VSA12>
0

>  <PEOE_VSA13>
0

>  <SMR_VSA1>
0

>  <SMR_VSA2>
0

>  <SMR_VSA3>
9.97

>  <SMR_VSA4>
0

>  <SMR_VSA5>
20.27

>  <SMR_VSA6>
0

>  <SMR_VSA7>
53.11

>  <SMR_VSA8>
0

>  <SMR_VSA9>
0

>  <SlogP_VSA1>
0

>  <SlogP_VSA2>
9.97

>  <SlogP_VSA3>
6.42

>  <SlogP_VSA4>
13.85

>  <SlogP_VSA5>
22.38

>  <SlogP_VSA6>
30.72

>  <SlogP_VSA7>
0

>  <SlogP_VSA8>
0

>  <SlogP_VSA9>
0

>  <SlogP_VSA10>
0

>  <SlogP_VSA11>
0

>  <EState_VSA1>
0

>  <EState_VSA2>
0

>  <EState_VSA3>
0

>  <EState_VSA4>
6.42

>  <EState_VSA5>
22.38

>  <EState_VSA6>
6.33

>  <EState_VSA7>
6.2

>  <EState_VSA8>
42.01

>  <EState_VSA9>
0

>  <EState_VSA10>
0

>  <VSA_EState1>
0

>  <VSA_EState2>
7.14

>  <VSA_EState3>
0

>  <VSA_EState4>
5.26

>  <VSA_EState5>
0

>  <VSA_EState6>
6.42

>  <VSA_EState7>
4.54

>  <VSA_EState8>
4.31

>  <VSA_EState9>
0

>  <apol>
31.58

>  <bpol>
15.75

>  <nRing>
2

>  <nHRing>
1

>  <naRing>
2

>  <naHRing>
1

>  <nARing 2>
0

>  <nAHRing 2>
0

>  <nFRing>
0

>  <nFHRing>
0

>  <nFaRing>
0

>  <nFaHRing>
0

>  <nFARing 2>
0

>  <nFAHRing 2>
0

>  <nRot>
2

>  <SLogP>
2.62

>  <SMR>
57.31

>  <TopoPSA(NO)>
28.68

>  <TopoPSA>
28.68

>  <JGI1>
0.17

>  <JGI2>
0.08

>  <JGI3>
0.05

>  <JGI4>
0.04

>  <JGI5>
0.02

>  <Diameter>
7

>  <Radius>
4

>  <TMWC10>
97.44

>  <TSRW10>
58.48

>  <MW>
186.12

>  <AMW>
6.65

>  <WPath>
306

>  <WPol>
17

>  <Zagreb1>
70

>  <Zagreb2>
80

>  <mZagreb2>
3.14

>  <yes>


>  <nAR-cont>
0.336376

>  <nHA-cont>
0.887625254

>  <MWHBN>
0.146599832

>  <MWHBN-cont>
0.923373145

>  <TPSA-cont>
0.799795791

>  <pka_cont>
0.97

>  <yes.1>


>  <BBB_SCORE>
4.693652553

>  <MMFF94 Energy>
28.941

$$$$
Compound 1659
Actelion Java MolfileCreator 2.0

  0  0  0  0  0  0              0 V3000
M  V30 BEGIN CTAB
M  V30 COUNTS 32 33 0 0 0
M  V30 BEGIN ATOM
M  V30 1 Cl -2.861 0.4083 1.8794 0
M  V30 2 C -1.4144 1.0087 2.6203 0
M  V30 3 C -0.1679 0.9149 1.9706 0
M  V30 4 C -1.5226 1.5967 3.8814 0
M  V30 5 N -0.1237 0.3083 0.6958 0
M  V30 6 C 0.9915 1.3637 2.6314 0
M  V30 7 C -0.3849 2.088 4.5138 0
M  V30 8 C 0.3803 0.903 -0.4284 0
M  V30 9 C 0.8596 1.9713 3.8942 0
M  V30 10 C 2.3745 1.2393 2.0532 0
M  V30 11 O 0.9206 2.0054 -0.4702 0
M  V30 12 C 0.2302 0.1586 -1.7139 0
M  V30 13 C -0.2895 -1.0432 -2.0092 0
M  V30 14 S -0.9849 -2.1381 -0.8606 0
M  V30 15 N -0.3418 -1.5777 -3.2864 0
M  V30 16 C -1.3881 -3.3888 -2.1036 0
M  V30 17 C -0.917 -2.8397 -3.4264 0
M  V30 18 C 0.1662 -0.8911 -4.4612 0
M  V30 19 O -1.0397 -3.4536 -4.4813 0
M  V30 20 H -2.489 1.6789 4.3715 0
M  V30 21 H -0.707 -0.5149 0.5762 0
M  V30 22 H -0.4633 2.5558 5.4923 0
M  V30 23 H 1.7406 2.3517 4.4093 0
M  V30 24 H 2.6304 2.1359 1.4813 0
M  V30 25 H 2.4681 0.356 1.4142 0
M  V30 26 H 3.1162 1.1198 2.8513 0
M  V30 27 H 0.643 0.7644 -2.517 0
M  V30 28 H -0.8642 -4.3226 -1.885 0
M  V30 29 H -2.4678 -3.5546 -2.1376 0
M  V30 30 H 1.2372 -0.7034 -4.3358 0
M  V30 31 H 0.0268 -1.4876 -5.3673 0
M  V30 32 H -0.3696 0.0547 -4.5878 0
M  V30 END ATOM
M  V30 BEGIN BOND
M  V30 1 1 1 2
M  V30 2 2 2 3
M  V30 3 1 2 4
M  V30 4 1 3 5
M  V30 5 1 3 6
M  V30 6 2 4 7
M  V30 7 1 5 8
M  V30 8 2 6 9
M  V30 9 1 6 10
M  V30 10 2 8 11
M  V30 11 1 8 12
M  V30 12 2 12 13
M  V30 13 1 13 14
M  V30 14 1 13 15
M  V30 15 1 14 16
M  V30 16 1 15 17
M  V30 17 1 15 18
M  V30 18 2 17 19
M  V30 19 1 7 9
M  V30 20 1 16 17
M  V30 21 1 4 20
M  V30 22 1 5 21
M  V30 23 1 7 22
M  V30 24 1 9 23
M  V30 25 1 10 24
M  V30 26 1 10 25
M  V30 27 1 10 26
M  V30 28 1 12 27
M  V30 29 1 16 28
M  V30 30 1 16 29
M  V30 31 1 18 30
M  V30 32 1 18 31
M  V30 33 1 18 32
M  V30 END BOND
M  V30 END CTAB
M  END
>  <Column 1>
2013

>  <level_0>
2186

>  <index>
2186

>  <Unnamed: 0>
2186

>  <NO.>
2198

>  <Name>
ralitoline

>  <IUPAC_name>
(2z)-n-(2-chloro-6-methylphenyl)-2-(3-methyl-4-oxo-1-3-thiazolidin-2-ylidene)acetamide

>  <SMILES>
Cc1cccc(Cl)c1NC(=O)/C=C1\SCC(=O)N1C

>  <CID>
6436118

>  <logBB>


>  <BBB+/BBB->
BBB+

>  <Inchi>
InChI=1S/C13H13ClN2O2S/c1-8-4-3-5-9(14)13(8)15-10(17)6-12-16(2)11(18)7-19-12/h3-6H-7H2-1-2H3-(H-15-17)/b12-6-

>  <threshold>
-1

>  <reference>
R1|R7|R13|R6|R24|R27|R29|R30|

>  <group>
B

>  <Class>
1

>  <ABC>
14.53

>  <ABCGG>
13.08

>  <nAcid>
0

>  <nBase>
0

>  <nAromAtom>
6

>  <nAromBond>
6

>  <nAtom>
32

>  <nHeavyAtom>
19

>  <nSpiro>
0

>  <nBridgehead>
0

>  <nHetero>
6

>  <nN>
2

>  <nO>
2

>  <nF>
0

>  <BalabanJ>
1.81

>  <BertzCT>
551.51

>  <nBonds>
33

>  <nBondsO>
20

>  <nBondsS>
24

>  <nBondsD>
3

>  <nBondsT>
0

>  <nBondsA>
6

>  <nBondsM>
9

>  <nBondsKS>
27

>  <nBondsKD>
6

>  <RNCG>
0.2

>  <RPCG>
0.16

>  <FCSP3>
0.23

>  <SZ>
25.67

>  <Sm>
24.71

>  <Sv>
21.75

>  <Sse>
32.6

>  <Sp>
23.51

>  <Si>
35.77

>  <MZ>
0.8

>  <Mm>
0.77

>  <Mv>
0.68

>  <Mse>
1.02

>  <Mp>
0.73

>  <Mi>
1.12

>  <NsCH3>
2

>  <NdCH2>
0

>  <NssCH2>
1

>  <NtCH>
0

>  <NdsCH>
1

>  <NaaCH>
3

>  <NsssCH>
0

>  <NddC>
0

>  <NtsC>
0

>  <NdssC>
3

>  <NaasC>
3

>  <NaaaC>
0

>  <NssssC>
0

>  <NsNH3>
0

>  <NsNH2>
0

>  <NssNH2>
0

>  <NdNH>
0

>  <NssNH>
1

>  <NaaNH>
0

>  <NtN>
0

>  <NsssNH>
0

>  <NdsN>
0

>  <NaaN>
0

>  <NsssN>
1

>  <NddsN>
0

>  <NaasN>
0

>  <NssssN>
0

>  <NsOH>
0

>  <NdO>
2

>  <NssO>
0

>  <NaaO>
0

>  <NsF>
0

>  <NsSiH3>
0

>  <NssSiH2>
0

>  <NsssSiH>
0

>  <NssssSi>
0

>  <NsPH2>
0

>  <NssPH>
0

>  <NsssP>
0

>  <NdsssP>
0

>  <NsssssP>
0

>  <NsSH>
0

>  <NdS>
0

>  <NssS>
1

>  <NaaS>
0

>  <NdssS>
0

>  <NddssS>
0

>  <NsCl>
1

>  <NsBr>
0

>  <NsI>
0

>  <fragCpx>
58.06

>  <fMF>
0.44

>  <nHBAcc>
3

>  <nHBDon>
1

>  <Kier1>
15.39

>  <Kier2>
6.64

>  <Lipinski>
1

>  <GhoseFilter>
1

>  <FilterItLogS>
-3.52

>  <VMcGowan>
206.8

>  <LabuteASA>
120.35

>  <PEOE_VSA1>
10.22

>  <PEOE_VSA2>
9.59

>  <PEOE_VSA3>
0

>  <PEOE_VSA4>
0

>  <PEOE_VSA5>
0

>  <PEOE_VSA6>
35.5

>  <PEOE_VSA7>
18.55

>  <PEOE_VSA8>
13.12

>  <PEOE_VSA9>
21.49

>  <PEOE_VSA10>
0

>  <PEOE_VSA11>
0

>  <PEOE_VSA12>
5.91

>  <PEOE_VSA13>
5.91

>  <SMR_VSA1>
9.59

>  <SMR_VSA2>
0

>  <SMR_VSA3>
4.9

>  <SMR_VSA4>
0

>  <SMR_VSA5>
6.92

>  <SMR_VSA6>
18.12

>  <SMR_VSA7>
39.89

>  <SMR_VSA8>
0

>  <SMR_VSA9>
0

>  <SlogP_VSA1>
5.32

>  <SlogP_VSA2>
29.51

>  <SlogP_VSA3>
9.59

>  <SlogP_VSA4>
6.92

>  <SlogP_VSA5>
5.56

>  <SlogP_VSA6>
29.3

>  <SlogP_VSA7>
5.02

>  <SlogP_VSA8>
0

>  <SlogP_VSA9>
0

>  <SlogP_VSA10>
5.69

>  <SlogP_VSA11>
0

>  <EState_VSA1>
0

>  <EState_VSA2>
11.81

>  <EState_VSA3>
21.49

>  <EState_VSA4>
5.56

>  <EState_VSA5>
22.74

>  <EState_VSA6>
13.11

>  <EState_VSA7>
19.06

>  <EState_VSA8>
5.32

>  <EState_VSA9>
11.6

>  <EState_VSA10>
9.59

>  <VSA_EState1>
0

>  <VSA_EState2>
24.75

>  <VSA_EState3>
3.88

>  <VSA_EState4>
1.49

>  <VSA_EState5>
0.08

>  <VSA_EState6>
5.41

>  <VSA_EState7>
1.42

>  <VSA_EState8>
1.87

>  <VSA_EState9>
1.65

>  <apol>
39.26

>  <bpol>
20.03

>  <nRing>
2

>  <nHRing>
1

>  <naRing>
1

>  <naHRing>
0

>  <nARing 2>
1

>  <nAHRing 2>
1

>  <nFRing>
0

>  <nFHRing>
0

>  <nFaRing>
0

>  <nFaHRing>
0

>  <nFARing 2>
0

>  <nFAHRing 2>
0

>  <nRot>
2

>  <SLogP>
2.63

>  <SMR>
78.13

>  <TopoPSA(NO)>
49.41

>  <TopoPSA>
74.71

>  <JGI1>
0.23

>  <JGI2>
0.1

>  <JGI3>
0.07

>  <JGI4>
0.05

>  <JGI5>
0.02

>  <Diameter>
10

>  <Radius>
5

>  <TMWC10>
110.84

>  <TSRW10>
65.98

>  <MW>
296.04

>  <AMW>
9.25

>  <WPath>
744

>  <WPol>
27

>  <Zagreb1>
96

>  <Zagreb2>
111

>  <mZagreb2>
4.19

>  <yes>


>  <nAR-cont>
0.816016

>  <nHA-cont>
0.998649058

>  <MWHBN>
0.23247957

>  <MWHBN-cont>
0.984172642

>  <TPSA-cont>
0.478477808

>  <pka_cont>
0.97

>  <yes.1>


>  <BBB_SCORE>
4.732879636

>  <MMFF94 Energy>
4.0696

$$$$
Compound 1660
Actelion Java MolfileCreator 2.0

  0  0  0  0  0  0              0 V3000
M  V30 BEGIN CTAB
M  V30 COUNTS 28 29 0 0 0
M  V30 BEGIN ATOM
M  V30 1 O -1.5826 1.8202 -1.0284 0
M  V30 2 C -0.5038 1.3488 -1.3499 0
M  V30 3 O 0.181 1.802 -2.4478 0
M  V30 4 N 0.2151 0.3455 -0.7334 0
M  V30 5 C 1.4771 1.184 -2.4846 0 CFG=2
M  V30 6 C -0.2046 -0.4178 0.3764 0
M  V30 7 C 1.4123 0.0654 -1.464 0
M  V30 8 C 2.5401 2.2406 -2.1788 0
M  V30 9 C -1.5591 -0.7171 0.5736 0
M  V30 10 C 0.7308 -0.9046 1.2969 0
M  V30 11 O 2.4153 2.7545 -0.8564 0
M  V30 12 C -1.9794 -1.498 1.6618 0
M  V30 13 C 0.3207 -1.6698 2.3914 0
M  V30 14 C -1.029 -1.9623 2.5754 0
M  V30 15 C -3.4389 -1.774 1.8737 0
M  V30 16 H 1.6432 0.7863 -3.4915 0
M  V30 17 H 2.3004 0.0231 -0.8274 0
M  V30 18 H 1.289 -0.9033 -1.962 0
M  V30 19 H 2.4578 3.0845 -2.8717 0
M  V30 20 H 3.5416 1.8103 -2.2749 0
M  V30 21 H -2.3088 -0.3511 -0.1249 0
M  V30 22 H 1.7874 -0.6747 1.2006 0
M  V30 23 H 1.5686 3.2384 -0.8137 0
M  V30 24 H 1.0553 -2.0286 3.1078 0
M  V30 25 H -1.3356 -2.5495 3.4381 0
M  V30 26 H -3.8938 -0.9613 2.4483 0
M  V30 27 H -3.961 -1.8674 0.9156 0
M  V30 28 H -3.5851 -2.7144 2.4154 0
M  V30 END ATOM
M  V30 BEGIN BOND
M  V30 1 2 1 2
M  V30 2 1 2 3
M  V30 3 1 2 4
M  V30 4 1 3 5
M  V30 5 1 4 6
M  V30 6 1 4 7
M  V30 7 1 5 8
M  V30 8 2 6 9
M  V30 9 1 6 10
M  V30 10 1 8 11
M  V30 11 1 9 12
M  V30 12 2 10 13
M  V30 13 2 12 14
M  V30 14 1 12 15
M  V30 15 1 5 7
M  V30 16 1 13 14
M  V30 17 1 5 16
M  V30 18 1 7 17
M  V30 19 1 7 18
M  V30 20 1 8 19
M  V30 21 1 8 20
M  V30 22 1 9 21
M  V30 23 1 10 22
M  V30 24 1 11 23
M  V30 25 1 13 24
M  V30 26 1 14 25
M  V30 27 1 15 26
M  V30 28 1 15 27
M  V30 29 1 15 28
M  V30 END BOND
M  V30 BEGIN COLLECTION
M  V30 MDLV30/STERAC1 ATOMS=(1 5)
M  V30 END COLLECTION
M  V30 END CTAB
M  END
>  <Column 1>
2014

>  <level_0>
2187

>  <index>
2187

>  <Unnamed: 0>
2187

>  <NO.>
2199

>  <Name>
toloxatone

>  <IUPAC_name>
5-(hydroxymethyl)-3-(3-methylphenyl)-1-3-oxazolidin-2-one

>  <SMILES>
Cc1cccc(N2CC(CO)OC2=O)c1

>  <CID>
34521

>  <logBB>


>  <BBB+/BBB->
BBB+

>  <Inchi>
InChI=1S/C11H13NO3/c1-8-3-2-4-9(5-8)12-6-10(7-13)15-11(12)14/h2-5-10-13H-6-7H2-1H3

>  <threshold>
-1

>  <reference>
R1|R19|R6|R14|R23|R27|R27|R30|

>  <group>
B

>  <Class>
1

>  <ABC>
11.45

>  <ABCGG>
10.36

>  <nAcid>
0

>  <nBase>
0

>  <nAromAtom>
6

>  <nAromBond>
6

>  <nAtom>
28

>  <nHeavyAtom>
15

>  <nSpiro>
0

>  <nBridgehead>
0

>  <nHetero>
4

>  <nN>
1

>  <nO>
3

>  <nF>
0

>  <BalabanJ>
1.92

>  <BertzCT>
377.85

>  <nBonds>
29

>  <nBondsO>
16

>  <nBondsS>
22

>  <nBondsD>
1

>  <nBondsT>
0

>  <nBondsA>
6

>  <nBondsM>
7

>  <nBondsKS>
25

>  <nBondsKD>
4

>  <RNCG>
0.27

>  <RPCG>
0.26

>  <FCSP3>
0.36

>  <SZ>
18.33

>  <Sm>
17.25

>  <Sv>
17.42

>  <Sse>
28.43

>  <Sp>
18.29

>  <Si>
31.62

>  <MZ>
0.65

>  <Mm>
0.62

>  <Mv>
0.62

>  <Mse>
1.02

>  <Mp>
0.65

>  <Mi>
1.13

>  <NsCH3>
1

>  <NdCH2>
0

>  <NssCH2>
2

>  <NtCH>
0

>  <NdsCH>
0

>  <NaaCH>
4

>  <NsssCH>
1

>  <NddC>
0

>  <NtsC>
0

>  <NdssC>
1

>  <NaasC>
2

>  <NaaaC>
0

>  <NssssC>
0

>  <NsNH3>
0

>  <NsNH2>
0

>  <NssNH2>
0

>  <NdNH>
0

>  <NssNH>
0

>  <NaaNH>
0

>  <NtN>
0

>  <NsssNH>
0

>  <NdsN>
0

>  <NaaN>
0

>  <NsssN>
1

>  <NddsN>
0

>  <NaasN>
0

>  <NssssN>
0

>  <NsOH>
1

>  <NdO>
1

>  <NssO>
1

>  <NaaO>
0

>  <NsF>
0

>  <NsSiH3>
0

>  <NssSiH2>
0

>  <NsssSiH>
0

>  <NssssSi>
0

>  <NsPH2>
0

>  <NssPH>
0

>  <NsssP>
0

>  <NdsssP>
0

>  <NsssssP>
0

>  <NsSH>
0

>  <NdS>
0

>  <NssS>
0

>  <NaaS>
0

>  <NdssS>
0

>  <NddssS>
0

>  <NsCl>
0

>  <NsBr>
0

>  <NsI>
0

>  <fragCpx>
46.04

>  <fMF>
0.39

>  <nHBAcc>
3

>  <nHBDon>
1

>  <Kier1>
11.48

>  <Kier2>
4.89

>  <Lipinski>
1

>  <GhoseFilter>
1

>  <FilterItLogS>
-1.58

>  <VMcGowan>
154.52

>  <LabuteASA>
88.08

>  <PEOE_VSA1>
9.84

>  <PEOE_VSA2>
4.9

>  <PEOE_VSA3>
4.79

>  <PEOE_VSA4>
0

>  <PEOE_VSA5>
0

>  <PEOE_VSA6>
12.13

>  <PEOE_VSA7>
24.62

>  <PEOE_VSA8>
5.69

>  <PEOE_VSA9>
13.15

>  <PEOE_VSA10>
6.1

>  <PEOE_VSA11>
0

>  <PEOE_VSA12>
0

>  <PEOE_VSA13>
0

>  <SMR_VSA1>
14.64

>  <SMR_VSA2>
0

>  <SMR_VSA3>
0

>  <SMR_VSA4>
0

>  <SMR_VSA5>
13.03

>  <SMR_VSA6>
18.05

>  <SMR_VSA7>
29.83

>  <SMR_VSA8>
0

>  <SMR_VSA9>
0

>  <SlogP_VSA1>
4.9

>  <SlogP_VSA2>
30.46

>  <SlogP_VSA3>
4.74

>  <SlogP_VSA4>
6.92

>  <SlogP_VSA5>
5.56

>  <SlogP_VSA6>
24.27

>  <SlogP_VSA7>
0

>  <SlogP_VSA8>
0

>  <SlogP_VSA9>
0

>  <SlogP_VSA10>
10.48

>  <SlogP_VSA11>
0

>  <EState_VSA1>
6.1

>  <EState_VSA2>
12.7

>  <EState_VSA3>
6.54

>  <EState_VSA4>
11.25

>  <EState_VSA5>
4.9

>  <EState_VSA6>
0

>  <EState_VSA7>
31.19

>  <EState_VSA8>
0

>  <EState_VSA9>
9.84

>  <EState_VSA10>
4.79

>  <VSA_EState1>
4.95

>  <VSA_EState2>
12.98

>  <VSA_EState3>
8.9

>  <VSA_EState4>
1.91

>  <VSA_EState5>
0

>  <VSA_EState6>
7.63

>  <VSA_EState7>
-0.79

>  <VSA_EState8>
2.25

>  <VSA_EState9>
0

>  <apol>
30.54

>  <bpol>
17.36

>  <nRing>
2

>  <nHRing>
1

>  <naRing>
1

>  <naHRing>
0

>  <nARing 2>
1

>  <nAHRing 2>
1

>  <nFRing>
0

>  <nFHRing>
0

>  <nFaRing>
0

>  <nFaHRing>
0

>  <nFARing 2>
0

>  <nFAHRing 2>
0

>  <nRot>
2

>  <SLogP>
1.31

>  <SMR>
55.88

>  <TopoPSA(NO)>
49.77

>  <TopoPSA>
49.77

>  <JGI1>
0.22

>  <JGI2>
0.07

>  <JGI3>
0.07

>  <JGI4>
0.05

>  <JGI5>
0.02

>  <Diameter>
8

>  <Radius>
4

>  <TMWC10>
101.06

>  <TSRW10>
60.85

>  <MW>
207.09

>  <AMW>
7.4

>  <WPath>
362

>  <WPol>
20

>  <Zagreb1>
76

>  <Zagreb2>
88

>  <mZagreb2>
3.39

>  <yes>


>  <nAR-cont>
0.816016

>  <nHA-cont>
0.92539861

>  <MWHBN>
0.277958799

>  <MWHBN-cont>
0.901197231

>  <TPSA-cont>
0.652574495

>  <pka_cont>
0.97

>  <yes.1>


>  <BBB_SCORE>
4.883359447

>  <MMFF94 Energy>
16.553

$$$$
Compound 1661
Actelion Java MolfileCreator 2.0

  0  0  0  0  0  0              0 V3000
M  V30 BEGIN CTAB
M  V30 COUNTS 45 47 0 0 0
M  V30 BEGIN ATOM
M  V30 1 N 1.1833 -0.6309 4.9774 0
M  V30 2 N 0.8934 -0.4143 6.27 0
M  V30 3 C 0.8906 0.5303 4.379 0
M  V30 4 C 0.4191 0.8428 6.5222 0
M  V30 5 C 0.4077 1.4845 5.3046 0
M  V30 6 C 1.085 0.6971 2.9075 0
M  V30 7 C 0.0374 1.2866 7.88 0
M  V30 8 C -0.0781 0.0921 2.1058 0
M  V30 9 N -0.0093 0.3795 0.6566 0
M  V30 10 C 1.103 -0.3533 0.006 0
M  V30 11 C -1.2753 -0.0349 0.0044 0
M  V30 12 C 1.1679 -0.1376 -1.525 0
M  V30 13 C -1.2823 0.2077 -1.5214 0
M  V30 14 N -0.1267 -0.4351 -2.1648 0
M  V30 15 C -0.133 -0.6867 -3.5338 0
M  V30 16 C -0.9939 -0.0226 -4.4231 0
M  V30 17 C 0.7221 -1.6529 -4.0852 0
M  V30 18 C -0.9894 -0.2828 -5.8053 0
M  V30 19 C 0.729 -1.9373 -5.4542 0
M  V30 20 C -0.1268 -1.2554 -6.3123 0
M  V30 21 C -1.943 0.4367 -6.7123 0
M  V30 22 H 1.0434 -1.1718 6.928 0
M  V30 23 H 0.0961 2.5004 5.105 0
M  V30 24 H 2.0357 0.2308 2.6241 0
M  V30 25 H 1.1759 1.766 2.6757 0
M  V30 26 H -0.7634 0.6571 8.2809 0
M  V30 27 H 0.8942 1.2313 8.5591 0
M  V30 28 H -0.3192 2.3215 7.8688 0
M  V30 29 H -0.1385 -0.9898 2.2857 0
M  V30 30 H -1.0092 0.5226 2.4996 0
M  V30 31 H 2.0617 -0.0224 0.4193 0
M  V30 32 H 1.0129 -1.4296 0.2058 0
M  V30 33 H -1.466 -1.1001 0.1944 0
M  V30 34 H -2.1107 0.5284 0.4376 0
M  V30 35 H 1.4385 0.9049 -1.737 0
M  V30 36 H 1.9767 -0.7663 -1.9117 0
M  V30 37 H -2.2208 -0.2003 -1.9164 0
M  V30 38 H -1.2663 1.2866 -1.7212 0
M  V30 39 H -1.676 0.7365 -4.0504 0
M  V30 40 H 1.3774 -2.231 -3.4396 0
M  V30 41 H 1.3965 -2.7007 -5.8436 0
M  V30 42 H -0.1193 -1.4896 -7.3736 0
M  V30 43 H -2.9019 -0.0898 -6.7404 0
M  V30 44 H -2.1107 1.4623 -6.3668 0
M  V30 45 H -1.5448 0.499 -7.7305 0
M  V30 END ATOM
M  V30 BEGIN BOND
M  V30 1 1 1 2
M  V30 2 2 1 3
M  V30 3 1 2 4
M  V30 4 1 3 5
M  V30 5 1 3 6
M  V30 6 1 4 7
M  V30 7 1 6 8
M  V30 8 1 8 9
M  V30 9 1 9 10
M  V30 10 1 9 11
M  V30 11 1 10 12
M  V30 12 1 11 13
M  V30 13 1 12 14
M  V30 14 1 14 15
M  V30 15 2 15 16
M  V30 16 1 15 17
M  V30 17 1 16 18
M  V30 18 2 17 19
M  V30 19 2 18 20
M  V30 20 1 18 21
M  V30 21 2 4 5
M  V30 22 1 13 14
M  V30 23 1 19 20
M  V30 24 1 2 22
M  V30 25 1 5 23
M  V30 26 1 6 24
M  V30 27 1 6 25
M  V30 28 1 7 26
M  V30 29 1 7 27
M  V30 30 1 7 28
M  V30 31 1 8 29
M  V30 32 1 8 30
M  V30 33 1 10 31
M  V30 34 1 10 32
M  V30 35 1 11 33
M  V30 36 1 11 34
M  V30 37 1 12 35
M  V30 38 1 12 36
M  V30 39 1 13 37
M  V30 40 1 13 38
M  V30 41 1 16 39
M  V30 42 1 17 40
M  V30 43 1 19 41
M  V30 44 1 20 42
M  V30 45 1 21 43
M  V30 46 1 21 44
M  V30 47 1 21 45
M  V30 END BOND
M  V30 END CTAB
M  END
>  <Column 1>
2015

>  <level_0>
2188

>  <index>
2188

>  <Unnamed: 0>
2188

>  <NO.>
2200

>  <Name>
tolpiprazole

>  <IUPAC_name>
1-(3-methylphenyl)-4-[2-(5-methyl-1h-pyrazol-3-yl)ethyl]piperazine

>  <SMILES>
Cc1cccc(N2CCN(CCc3cc(C)[nH]n3)CC2)c1

>  <CID>
3084338

>  <logBB>


>  <BBB+/BBB->
BBB+

>  <Inchi>
InChI=1S/C17H24N4/c1-14-4-3-5-17(12-14)21-10-8-20(9-11-21)7-6-16-13-15(2)18-19-16/h3-5-12-13H-6-11H2-1-2H3-(H-18-19)

>  <threshold>
-1

>  <reference>
R1|R13|R19|R6|R24|R27|R27|R27|R30|R30|

>  <group>
B

>  <Class>
1

>  <ABC>
16.44

>  <ABCGG>
12.71

>  <nAcid>
0

>  <nBase>
1

>  <nAromAtom>
11

>  <nAromBond>
11

>  <nAtom>
45

>  <nHeavyAtom>
21

>  <nSpiro>
0

>  <nBridgehead>
0

>  <nHetero>
4

>  <nN>
4

>  <nO>
0

>  <nF>
0

>  <BalabanJ>
1.35

>  <BertzCT>
581.98

>  <nBonds>
47

>  <nBondsO>
23

>  <nBondsS>
36

>  <nBondsD>
0

>  <nBondsT>
0

>  <nBondsA>
11

>  <nBondsM>
11

>  <nBondsKS>
42

>  <nBondsKD>
5

>  <RNCG>
0.25

>  <RPCG>
0.13

>  <FCSP3>
0.47

>  <SZ>
25.67

>  <Sm>
23.68

>  <Sv>
26.53

>  <Sse>
44.31

>  <Sp>
29.22

>  <Si>
51.15

>  <MZ>
0.57

>  <Mm>
0.53

>  <Mv>
0.59

>  <Mse>
0.98

>  <Mp>
0.65

>  <Mi>
1.14

>  <NsCH3>
2

>  <NdCH2>
0

>  <NssCH2>
6

>  <NtCH>
0

>  <NdsCH>
0

>  <NaaCH>
5

>  <NsssCH>
0

>  <NddC>
0

>  <NtsC>
0

>  <NdssC>
0

>  <NaasC>
4

>  <NaaaC>
0

>  <NssssC>
0

>  <NsNH3>
0

>  <NsNH2>
0

>  <NssNH2>
0

>  <NdNH>
0

>  <NssNH>
0

>  <NaaNH>
1

>  <NtN>
0

>  <NsssNH>
0

>  <NdsN>
0

>  <NaaN>
1

>  <NsssN>
2

>  <NddsN>
0

>  <NaasN>
0

>  <NssssN>
0

>  <NsOH>
0

>  <NdO>
0

>  <NssO>
0

>  <NaaO>
0

>  <NsF>
0

>  <NsSiH3>
0

>  <NssSiH2>
0

>  <NsssSiH>
0

>  <NssssSi>
0

>  <NsPH2>
0

>  <NssPH>
0

>  <NsssP>
0

>  <NdsssP>
0

>  <NsssssP>
0

>  <NsSH>
0

>  <NdS>
0

>  <NssS>
0

>  <NaaS>
0

>  <NdssS>
0

>  <NddssS>
0

>  <NsCl>
0

>  <NsBr>
0

>  <NsI>
0

>  <fragCpx>
109.04

>  <fMF>
0.42

>  <nHBAcc>
3

>  <nHBDon>
1

>  <Kier1>
15.88

>  <Kier2>
7.51

>  <Lipinski>
1

>  <GhoseFilter>
1

>  <FilterItLogS>
-4.36

>  <VMcGowan>
236.23

>  <LabuteASA>
126.32

>  <PEOE_VSA1>
4.9

>  <PEOE_VSA2>
10

>  <PEOE_VSA3>
0

>  <PEOE_VSA4>
5.1

>  <PEOE_VSA5>
0

>  <PEOE_VSA6>
12.13

>  <PEOE_VSA7>
37.61

>  <PEOE_VSA8>
50.53

>  <PEOE_VSA9>
5.69

>  <PEOE_VSA10>
0

>  <PEOE_VSA11>
0

>  <PEOE_VSA12>
0

>  <PEOE_VSA13>
0

>  <SMR_VSA1>
0

>  <SMR_VSA2>
0

>  <SMR_VSA3>
15.1

>  <SMR_VSA4>
0

>  <SMR_VSA5>
20.27

>  <SMR_VSA6>
37.62

>  <SMR_VSA7>
47.28

>  <SMR_VSA8>
0

>  <SMR_VSA9>
0

>  <SlogP_VSA1>
4.9

>  <SlogP_VSA2>
47.82

>  <SlogP_VSA3>
6.42

>  <SlogP_VSA4>
13.85

>  <SlogP_VSA5>
16.95

>  <SlogP_VSA6>
30.33

>  <SlogP_VSA7>
0

>  <SlogP_VSA8>
0

>  <SlogP_VSA9>
0

>  <SlogP_VSA10>
5.69

>  <SlogP_VSA11>
0

>  <EState_VSA1>
0

>  <EState_VSA2>
0

>  <EState_VSA3>
0

>  <EState_VSA4>
44.84

>  <EState_VSA5>
16.94

>  <EState_VSA6>
0

>  <EState_VSA7>
0

>  <EState_VSA8>
64.18

>  <EState_VSA9>
0

>  <EState_VSA10>
0

>  <VSA_EState1>
0

>  <VSA_EState2>
5.03

>  <VSA_EState3>
7.32

>  <VSA_EState4>
5.02

>  <VSA_EState5>
0

>  <VSA_EState6>
10.95

>  <VSA_EState7>
1.04

>  <VSA_EState8>
9.81

>  <VSA_EState9>
0

>  <apol>
48.79

>  <bpol>
28.07

>  <nRing>
3

>  <nHRing>
2

>  <naRing>
2

>  <naHRing>
1

>  <nARing 2>
1

>  <nAHRing 2>
1

>  <nFRing>
0

>  <nFHRing>
0

>  <nFaRing>
0

>  <nFaHRing>
0

>  <nFARing 2>
0

>  <nFAHRing 2>
0

>  <nRot>
4

>  <SLogP>
2.39

>  <SMR>
86.86

>  <TopoPSA(NO)>
35.16

>  <TopoPSA>
35.16

>  <JGI1>
0.2

>  <JGI2>
0.06

>  <JGI3>
0.03

>  <JGI4>
0.03

>  <JGI5>
0.02

>  <Diameter>
13

>  <Radius>
7

>  <TMWC10>
116.36

>  <TSRW10>
68.02

>  <MW>
284.2

>  <AMW>
6.32

>  <WPath>
1091

>  <WPol>
27

>  <Zagreb1>
108

>  <Zagreb2>
123

>  <mZagreb2>
4.61

>  <yes>


>  <nAR-cont>
0.816016

>  <nHA-cont>
0.994529749

>  <MWHBN>
0.2372728

>  <MWHBN-cont>
0.978533022

>  <TPSA-cont>
0.754561367

>  <pka_cont>
0.97

>  <yes.1>


>  <BBB_SCORE>
5.272468017

>  <MMFF94 Energy>
114.85

$$$$
Compound 1662
Actelion Java MolfileCreator 2.0

  0  0  0  0  0  0              0 V3000
M  V30 BEGIN CTAB
M  V30 COUNTS 35 36 0 0 0
M  V30 BEGIN ATOM
M  V30 1 O -0.8662 0.1574 -0.945 0
M  V30 2 C 9.0E-4 1.1722 -0.6287 0
M  V30 3 C -1.3732 -0.5433 0.2056 0 CFG=2
M  V30 4 C 1.3241 1.1049 -1.1001 0
M  V30 5 C -0.453 2.2883 0.0777 0
M  V30 6 C -0.3521 -1.5535 0.7705 0 CFG=2
M  V30 7 C -2.6477 -1.2771 -0.2225 0
M  V30 8 C 2.2213 2.1421 -0.7597 0
M  V30 9 C 1.7847 -0.0825 -1.9051 0
M  V30 10 C 0.426 3.3219 0.3837 0
M  V30 11 O 0.0605 -2.4883 -0.2415 0
M  V30 12 C -1.008 -2.3344 1.9219 0
M  V30 13 C -3.2044 -2.1114 0.9287 0
M  V30 14 C 1.7559 3.2453 -0.0248 0
M  V30 15 C 3.6608 2.1169 -1.1979 0
M  V30 16 N -2.2143 -3.0496 1.4701 0
M  V30 17 H -1.6529 0.1635 0.9984 0
M  V30 18 H -1.4943 2.367 0.3754 0
M  V30 19 H 0.5473 -1.0361 1.1205 0
M  V30 20 H -3.3982 -0.5498 -0.5556 0
M  V30 21 H -2.4448 -1.9138 -1.0935 0
M  V30 22 H 2.4549 0.2278 -2.713 0
M  V30 23 H 0.951 -0.602 -2.3876 0
M  V30 24 H 2.3088 -0.7912 -1.2566 0
M  V30 25 H 0.075 4.1911 0.9335 0
M  V30 26 H 0.7523 -3.0478 0.1504 0
M  V30 27 H -1.2568 -1.6659 2.7546 0
M  V30 28 H -0.3046 -3.0826 2.3044 0
M  V30 29 H -3.5659 -1.4569 1.7312 0
M  V30 30 H -4.072 -2.6809 0.5773 0
M  V30 31 H 2.4301 4.0624 0.2242 0
M  V30 32 H 4.2471 2.891 -0.691 0
M  V30 33 H 3.7298 2.2927 -2.2758 0
M  V30 34 H 4.1218 1.1547 -0.9529 0
M  V30 35 H -1.9274 -3.6676 0.7041 0
M  V30 END ATOM
M  V30 BEGIN BOND
M  V30 1 1 1 2
M  V30 2 1 1 3
M  V30 3 2 2 4
M  V30 4 1 2 5
M  V30 5 1 3 6
M  V30 6 1 3 7
M  V30 7 1 4 8
M  V30 8 1 4 9
M  V30 9 2 5 10
M  V30 10 1 6 11
M  V30 11 1 6 12
M  V30 12 1 7 13
M  V30 13 2 8 14
M  V30 14 1 8 15
M  V30 15 1 12 16
M  V30 16 1 10 14
M  V30 17 1 13 16
M  V30 18 1 3 17
M  V30 19 1 5 18
M  V30 20 1 6 19
M  V30 21 1 7 20
M  V30 22 1 7 21
M  V30 23 1 9 22
M  V30 24 1 9 23
M  V30 25 1 9 24
M  V30 26 1 10 25
M  V30 27 1 11 26
M  V30 28 1 12 27
M  V30 29 1 12 28
M  V30 30 1 13 29
M  V30 31 1 13 30
M  V30 32 1 14 31
M  V30 33 1 15 32
M  V30 34 1 15 33
M  V30 35 1 15 34
M  V30 36 1 16 35
M  V30 END BOND
M  V30 BEGIN COLLECTION
M  V30 MDLV30/STEABS ATOMS=(2 3 6)
M  V30 END COLLECTION
M  V30 END CTAB
M  END
>  <Column 1>
2016

>  <level_0>
2189

>  <index>
2189

>  <Unnamed: 0>
2189

>  <NO.>
2201

>  <Name>
ifoxetine

>  <IUPAC_name>
(3r-4s)-4-(2-3-dimethylphenoxy)piperidin-3-ol

>  <SMILES>
Cc1cccc(O[C@H]2CCNC[C@H]2O)c1C

>  <CID>
71971

>  <logBB>


>  <BBB+/BBB->
BBB+

>  <Inchi>
InChI=1S/C13H19NO2/c1-9-4-3-5-12(10(9)2)16-13-6-7-14-8-11(13)15/h3-5-11-13-15H-6-8H2-1-2H3/t11--13+/m1/s1

>  <threshold>
-1

>  <reference>
R1|R6|R27|R30|

>  <group>
B

>  <Class>
1

>  <ABC>
12.23

>  <ABCGG>
10.6

>  <nAcid>
0

>  <nBase>
1

>  <nAromAtom>
6

>  <nAromBond>
6

>  <nAtom>
35

>  <nHeavyAtom>
16

>  <nSpiro>
0

>  <nBridgehead>
0

>  <nHetero>
3

>  <nN>
1

>  <nO>
2

>  <nF>
0

>  <BalabanJ>
1.87

>  <BertzCT>
364.95

>  <nBonds>
36

>  <nBondsO>
17

>  <nBondsS>
30

>  <nBondsD>
0

>  <nBondsT>
0

>  <nBondsA>
6

>  <nBondsM>
6

>  <nBondsKS>
33

>  <nBondsKD>
3

>  <RNCG>
0.34

>  <RPCG>
0.14

>  <FCSP3>
0.54

>  <SZ>
20

>  <Sm>
18.42

>  <Sv>
20.33

>  <Sse>
34.76

>  <Sp>
22.21

>  <Si>
39.65

>  <MZ>
0.57

>  <Mm>
0.53

>  <Mv>
0.58

>  <Mse>
0.99

>  <Mp>
0.63

>  <Mi>
1.13

>  <NsCH3>
2

>  <NdCH2>
0

>  <NssCH2>
3

>  <NtCH>
0

>  <NdsCH>
0

>  <NaaCH>
3

>  <NsssCH>
2

>  <NddC>
0

>  <NtsC>
0

>  <NdssC>
0

>  <NaasC>
3

>  <NaaaC>
0

>  <NssssC>
0

>  <NsNH3>
0

>  <NsNH2>
0

>  <NssNH2>
0

>  <NdNH>
0

>  <NssNH>
1

>  <NaaNH>
0

>  <NtN>
0

>  <NsssNH>
0

>  <NdsN>
0

>  <NaaN>
0

>  <NsssN>
0

>  <NddsN>
0

>  <NaasN>
0

>  <NssssN>
0

>  <NsOH>
1

>  <NdO>
0

>  <NssO>
1

>  <NaaO>
0

>  <NsF>
0

>  <NsSiH3>
0

>  <NssSiH2>
0

>  <NsssSiH>
0

>  <NssssSi>
0

>  <NsPH2>
0

>  <NssPH>
0

>  <NsssP>
0

>  <NdsssP>
0

>  <NsssssP>
0

>  <NsSH>
0

>  <NdS>
0

>  <NssS>
0

>  <NaaS>
0

>  <NdssS>
0

>  <NddssS>
0

>  <NsCl>
0

>  <NsBr>
0

>  <NsI>
0

>  <fragCpx>
49.03

>  <fMF>
0.37

>  <nHBAcc>
3

>  <nHBDon>
2

>  <Kier1>
12.46

>  <Kier2>
5.56

>  <Lipinski>
1

>  <GhoseFilter>
1

>  <FilterItLogS>
-2.87

>  <VMcGowan>
181.13

>  <LabuteASA>
96.44

>  <PEOE_VSA1>
15.16

>  <PEOE_VSA2>
0

>  <PEOE_VSA3>
0

>  <PEOE_VSA4>
0

>  <PEOE_VSA5>
0

>  <PEOE_VSA6>
12.13

>  <PEOE_VSA7>
44.01

>  <PEOE_VSA8>
6.54

>  <PEOE_VSA9>
0

>  <PEOE_VSA10>
17.96

>  <PEOE_VSA11>
0

>  <PEOE_VSA12>
0

>  <PEOE_VSA13>
0

>  <SMR_VSA1>
9.84

>  <SMR_VSA2>
0

>  <SMR_VSA3>
5.32

>  <SMR_VSA4>
0

>  <SMR_VSA5>
32.48

>  <SMR_VSA6>
13.09

>  <SMR_VSA7>
29.33

>  <SMR_VSA8>
0

>  <SMR_VSA9>
5.75

>  <SlogP_VSA1>
10.05

>  <SlogP_VSA2>
30.4

>  <SlogP_VSA3>
0

>  <SlogP_VSA4>
13.85

>  <SlogP_VSA5>
17.55

>  <SlogP_VSA6>
18.2

>  <SlogP_VSA7>
0

>  <SlogP_VSA8>
0

>  <SlogP_VSA9>
0

>  <SlogP_VSA10>
0

>  <SlogP_VSA11>
5.75

>  <EState_VSA1>
6.1

>  <EState_VSA2>
6.1

>  <EState_VSA3>
6.54

>  <EState_VSA4>
24.28

>  <EState_VSA5>
5.56

>  <EState_VSA6>
0

>  <EState_VSA7>
12.13

>  <EState_VSA8>
25.23

>  <EState_VSA9>
4.74

>  <EState_VSA10>
5.11

>  <VSA_EState1>
5.89

>  <VSA_EState2>
0

>  <VSA_EState3>
12.95

>  <VSA_EState4>
2.38

>  <VSA_EState5>
0.89

>  <VSA_EState6>
6.03

>  <VSA_EState7>
0.37

>  <VSA_EState8>
5.65

>  <VSA_EState9>
0

>  <apol>
37.08

>  <bpol>
21.37

>  <nRing>
2

>  <nHRing>
1

>  <naRing>
1

>  <naHRing>
0

>  <nARing 2>
1

>  <nAHRing 2>
1

>  <nFRing>
0

>  <nFHRing>
0

>  <nFaRing>
0

>  <nFaHRing>
0

>  <nFARing 2>
0

>  <nFAHRing 2>
0

>  <nRot>
2

>  <SLogP>
1.41

>  <SMR>
63.83

>  <TopoPSA(NO)>
41.49

>  <TopoPSA>
41.49

>  <JGI1>
0.18

>  <JGI2>
0.1

>  <JGI3>
0.05

>  <JGI4>
0.05

>  <JGI5>
0.02

>  <Diameter>
8

>  <Radius>
4

>  <TMWC10>
102.87

>  <TSRW10>
48.24

>  <MW>
221.14

>  <AMW>
6.32

>  <WPath>
440

>  <WPol>
23

>  <Zagreb1>
80

>  <Zagreb2>
92

>  <mZagreb2>
3.58

>  <yes>


>  <nAR-cont>
0.816016

>  <nHA-cont>
0.954961865

>  <MWHBN>
0.336229916

>  <MWHBN-cont>
0.720745491

>  <TPSA-cont>
0.710374036

>  <pka_cont>
0.97

>  <yes.1>


>  <BBB_SCORE>
4.757844174

>  <MMFF94 Energy>
62.506

$$$$
Compound 1663
Actelion Java MolfileCreator 2.0

  0  0  0  0  0  0              0 V3000
M  V30 BEGIN CTAB
M  V30 COUNTS 43 46 0 0 0
M  V30 BEGIN ATOM
M  V30 1 O 0.7209 -3.6888 -0.4004 0
M  V30 2 C -0.0881 -2.7847 -0.1973 0
M  V30 3 N 0.162 -1.4215 -0.3729 0
M  V30 4 C -1.441 -3.1361 0.2699 0
M  V30 5 C 1.4734 -1.0561 -0.7857 0
M  V30 6 C -0.8233 -0.4666 -0.1453 0
M  V30 7 C -2.3485 -2.1011 0.4778 0
M  V30 8 C -1.8018 -4.4699 0.5008 0
M  V30 9 C 2.4407 -0.633 0.1457 0
M  V30 10 C 1.7835 -1.1182 -2.1524 0
M  V30 11 N -2.024 -0.7598 0.2535 0
M  V30 12 C -0.4729 0.9588 -0.4037 0
M  V30 13 C -3.6349 -2.4143 0.924 0
M  V30 14 C -3.0886 -4.7699 0.9461 0
M  V30 15 C 3.6991 -0.2335 -0.3294 0
M  V30 16 C 2.1569 -0.5647 1.6203 0
M  V30 17 C 3.0444 -0.7324 -2.6029 0
M  V30 18 C -0.8517 1.8931 0.4813 0
M  V30 19 C -4.0056 -3.7414 1.158 0
M  V30 20 C 3.9982 -0.2843 -1.6926 0
M  V30 21 C -0.554 3.3227 0.3749 0
M  V30 22 N -0.4486 3.9591 1.5643 0
M  V30 23 C -0.4352 3.9897 -0.8411 0
M  V30 24 C -0.1948 5.2861 1.5408 0
M  V30 25 C -0.174 5.3585 -0.835 0
M  V30 26 C -0.0481 6.0222 0.3783 0
M  V30 27 H -1.0837 -5.27 0.3359 0
M  V30 28 H 1.0451 -1.4723 -2.8673 0
M  V30 29 H 0.0876 1.1892 -1.2999 0
M  V30 30 H -4.3521 -1.614 1.0899 0
M  V30 31 H -3.375 -5.8029 1.128 0
M  V30 32 H 4.4623 0.1129 0.3646 0
M  V30 33 H 1.6022 -1.4465 1.9558 0
M  V30 34 H 1.5826 0.3359 1.8554 0
M  V30 35 H 3.0861 -0.5372 2.1996 0
M  V30 36 H 3.2844 -0.7857 -3.6614 0
M  V30 37 H -1.389 1.6131 1.3851 0
M  V30 38 H -5.0103 -3.9693 1.5057 0
M  V30 39 H 4.9827 0.0173 -2.0419 0
M  V30 40 H -0.5537 3.4702 -1.7852 0
M  V30 41 H -0.1116 5.7573 2.516 0
M  V30 42 H -0.0761 5.9015 -1.7707 0
M  V30 43 H 0.1531 7.0867 0.4181 0
M  V30 END ATOM
M  V30 BEGIN BOND
M  V30 1 2 1 2
M  V30 2 1 2 3
M  V30 3 1 2 4
M  V30 4 1 3 5
M  V30 5 1 3 6
M  V30 6 2 4 7
M  V30 7 1 4 8
M  V30 8 2 5 9
M  V30 9 1 5 10
M  V30 10 2 6 11
M  V30 11 1 6 12
M  V30 12 1 7 13
M  V30 13 2 8 14
M  V30 14 1 9 15
M  V30 15 1 9 16
M  V30 16 2 10 17
M  V30 17 2 12 18
M  V30 18 2 13 19
M  V30 19 2 15 20
M  V30 20 1 18 21
M  V30 21 2 21 22
M  V30 22 1 21 23
M  V30 23 1 22 24
M  V30 24 2 23 25
M  V30 25 2 24 26
M  V30 26 1 7 11
M  V30 27 1 14 19
M  V30 28 1 17 20
M  V30 29 1 25 26
M  V30 30 1 8 27
M  V30 31 1 10 28
M  V30 32 1 12 29
M  V30 33 1 13 30
M  V30 34 1 14 31
M  V30 35 1 15 32
M  V30 36 1 16 33
M  V30 37 1 16 34
M  V30 38 1 16 35
M  V30 39 1 17 36
M  V30 40 1 18 37
M  V30 41 1 19 38
M  V30 42 1 20 39
M  V30 43 1 23 40
M  V30 44 1 24 41
M  V30 45 1 25 42
M  V30 46 1 26 43
M  V30 END BOND
M  V30 END CTAB
M  END
>  <Column 1>
2017

>  <level_0>
2192

>  <index>
2192

>  <Unnamed: 0>
2192

>  <NO.>
2204

>  <Name>
piriqualone

>  <IUPAC_name>
3-(2-methylphenyl)-2-[(e)-2-pyridin-2-ylethenyl]quinazolin-4-one

>  <SMILES>
Cc1ccccc1-n1c(/C=C/c2ccccn2)nc2ccccc2c1=O

>  <CID>
6015423

>  <logBB>


>  <BBB+/BBB->
BBB+

>  <Inchi>
InChI=1S/C22H17N3O/c1-16-8-2-5-12-20(16)25-21(14-13-17-9-6-7-15-23-17)24-19-11-4-3-10-18(19)22(25)26/h2-15H-1H3/b14-13+

>  <threshold>
-1

>  <reference>
R1|R13|R27|R27|R30|R30|

>  <group>
B

>  <Class>
1

>  <ABC>
20.48

>  <ABCGG>
15.76

>  <nAcid>
0

>  <nBase>
0

>  <nAromAtom>
22

>  <nAromBond>
23

>  <nAtom>
43

>  <nHeavyAtom>
26

>  <nSpiro>
0

>  <nBridgehead>
0

>  <nHetero>
4

>  <nN>
3

>  <nO>
1

>  <nF>
0

>  <BalabanJ>
1.47

>  <BertzCT>
1160.84

>  <nBonds>
46

>  <nBondsO>
29

>  <nBondsS>
21

>  <nBondsD>
2

>  <nBondsT>
0

>  <nBondsA>
23

>  <nBondsM>
25

>  <nBondsKS>
34

>  <nBondsKD>
12

>  <RNCG>
0.16

>  <RPCG>
0.16

>  <FCSP3>
0.05

>  <SZ>
29.67

>  <Sm>
28.26

>  <Sv>
29.59

>  <Sse>
42.87

>  <Sp>
31.24

>  <Si>
47.61

>  <MZ>
0.69

>  <Mm>
0.66

>  <Mv>
0.69

>  <Mse>
1

>  <Mp>
0.73

>  <Mi>
1.11

>  <NsCH3>
1

>  <NdCH2>
0

>  <NssCH2>
0

>  <NtCH>
0

>  <NdsCH>
2

>  <NaaCH>
12

>  <NsssCH>
0

>  <NddC>
0

>  <NtsC>
0

>  <NdssC>
0

>  <NaasC>
4

>  <NaaaC>
2

>  <NssssC>
0

>  <NsNH3>
0

>  <NsNH2>
0

>  <NssNH2>
0

>  <NdNH>
0

>  <NssNH>
0

>  <NaaNH>
0

>  <NtN>
0

>  <NsssNH>
0

>  <NdsN>
0

>  <NaaN>
2

>  <NsssN>
0

>  <NddsN>
0

>  <NaasN>
1

>  <NssssN>
0

>  <NsOH>
0

>  <NdO>
1

>  <NssO>
0

>  <NaaO>
0

>  <NsF>
0

>  <NsSiH3>
0

>  <NssSiH2>
0

>  <NsssSiH>
0

>  <NssssSi>
0

>  <NsPH2>
0

>  <NssPH>
0

>  <NsssP>
0

>  <NdsssP>
0

>  <NsssssP>
0

>  <NsSH>
0

>  <NdS>
0

>  <NssS>
0

>  <NaaS>
0

>  <NdssS>
0

>  <NddssS>
0

>  <NsCl>
0

>  <NsBr>
0

>  <NsI>
0

>  <fragCpx>
191.04

>  <fMF>
0.56

>  <nHBAcc>
4

>  <nHBDon>
0

>  <Kier1>
19.32

>  <Kier2>
9

>  <Lipinski>
1

>  <GhoseFilter>
1

>  <FilterItLogS>
-5.7

>  <VMcGowan>
261.61

>  <LabuteASA>
150.66

>  <PEOE_VSA1>
0

>  <PEOE_VSA2>
14.35

>  <PEOE_VSA3>
4.98

>  <PEOE_VSA4>
0

>  <PEOE_VSA5>
0

>  <PEOE_VSA6>
36.4

>  <PEOE_VSA7>
54.97

>  <PEOE_VSA8>
6.2

>  <PEOE_VSA9>
22.28

>  <PEOE_VSA10>
5.82

>  <PEOE_VSA11>
0

>  <PEOE_VSA12>
0

>  <PEOE_VSA13>
5.56

>  <SMR_VSA1>
0

>  <SMR_VSA2>
0

>  <SMR_VSA3>
14.54

>  <SMR_VSA4>
0

>  <SMR_VSA5>
6.92

>  <SMR_VSA6>
0

>  <SMR_VSA7>
100.36

>  <SMR_VSA8>
0

>  <SMR_VSA9>
5.69

>  <SlogP_VSA1>
5.56

>  <SlogP_VSA2>
14.54

>  <SlogP_VSA3>
0

>  <SlogP_VSA4>
6.92

>  <SlogP_VSA5>
17.08

>  <SlogP_VSA6>
77.72

>  <SlogP_VSA7>
0

>  <SlogP_VSA8>
28.74

>  <SlogP_VSA9>
0

>  <SlogP_VSA10>
0

>  <SlogP_VSA11>
0

>  <EState_VSA1>
0

>  <EState_VSA2>
5.56

>  <EState_VSA3>
16.73

>  <EState_VSA4>
16.94

>  <EState_VSA5>
0

>  <EState_VSA6>
10.76

>  <EState_VSA7>
85.81

>  <EState_VSA8>
4.98

>  <EState_VSA9>
4.98

>  <EState_VSA10>
4.79

>  <VSA_EState1>
1.66

>  <VSA_EState2>
22.2

>  <VSA_EState3>
0.6

>  <VSA_EState4>
3.26

>  <VSA_EState5>
0.58

>  <VSA_EState6>
20.93

>  <VSA_EState7>
5.44

>  <VSA_EState8>
1.99

>  <VSA_EState9>
0

>  <apol>
52.18

>  <bpol>
21.91

>  <nRing>
4

>  <nHRing>
2

>  <naRing>
4

>  <naHRing>
2

>  <nARing 2>
0

>  <nAHRing 2>
0

>  <nFRing>
1

>  <nFHRing>
1

>  <nFaRing>
1

>  <nFaHRing>
1

>  <nFARing 2>
0

>  <nFAHRing 2>
0

>  <nRot>
3

>  <SLogP>
4.26

>  <SMR>
105.24

>  <TopoPSA(NO)>
47.78

>  <TopoPSA>
47.78

>  <JGI1>
0.12

>  <JGI2>
0.07

>  <JGI3>
0.04

>  <JGI4>
0.05

>  <JGI5>
0.02

>  <Diameter>
11

>  <Radius>
6

>  <TMWC10>
131.21

>  <TSRW10>
61.19

>  <MW>
339.14

>  <AMW>
7.89

>  <WPath>
1597

>  <WPol>
43

>  <Zagreb1>
138

>  <Zagreb2>
164

>  <mZagreb2>
5.75

>  <yes>


>  <nAR-cont>
0.336376

>  <nHA-cont>
0.892715677

>  <MWHBN>
0.217205333

>  <MWHBN-cont>
0.996574082

>  <TPSA-cont>
0.66646593

>  <pka_cont>
0.97

>  <yes.1>


>  <BBB_SCORE>
4.541884661

>  <MMFF94 Energy>
50.623

$$$$
Compound 1664
Actelion Java MolfileCreator 2.0

  0  0  0  0  0  0              0 V3000
M  V30 BEGIN CTAB
M  V30 COUNTS 33 35 0 0 0
M  V30 BEGIN ATOM
M  V30 1 O -0.3987 1.7554 1.3562 0
M  V30 2 C -0.5695 1.0971 0.3316 0
M  V30 3 N 0.2815 0.0939 -0.1359 0
M  V30 4 C -1.7609 1.3631 -0.4947 0
M  V30 5 C 1.4401 -0.1884 0.6351 0
M  V30 6 C 0.0195 -0.5928 -1.3103 0
M  V30 7 C -1.9302 0.6117 -1.6551 0
M  V30 8 C -2.6935 2.3406 -0.1244 0
M  V30 9 C 1.3975 -1.1099 1.6985 0
M  V30 10 C 2.6336 0.4752 0.3178 0
M  V30 11 N -1.0187 -0.3713 -2.0545 0
M  V30 12 C 0.9888 -1.6619 -1.7664 0
M  V30 13 C -3.0534 0.8492 -2.4512 0
M  V30 14 C -3.8103 2.5681 -0.9273 0
M  V30 15 C 2.5733 -1.3519 2.4245 0
M  V30 16 C 0.1246 -1.803 2.096 0
M  V30 17 C 3.7929 0.2169 1.0465 0
M  V30 18 C -3.9904 1.822 -2.0912 0
M  V30 19 C 3.7625 -0.697 2.0969 0
M  V30 20 H -2.55 2.9212 0.7841 0
M  V30 21 H 2.6612 1.2004 -0.4915 0
M  V30 22 H 1.9599 -1.2135 -1.993 0
M  V30 23 H 1.114 -2.4218 -0.9909 0
M  V30 24 H 0.6154 -2.151 -2.6712 0
M  V30 25 H -3.1967 0.2694 -3.3597 0
M  V30 26 H -4.5381 3.3254 -0.646 0
M  V30 27 H 2.5699 -2.049 3.26 0
M  V30 28 H -0.3391 -2.2884 1.2318 0
M  V30 29 H -0.5774 -1.0843 2.5298 0
M  V30 30 H 0.3107 -2.583 2.8419 0
M  V30 31 H 4.7165 0.735 0.802 0
M  V30 32 H -4.8596 1.9956 -2.721 0
M  V30 33 H 4.6643 -0.8928 2.672 0
M  V30 END ATOM
M  V30 BEGIN BOND
M  V30 1 2 1 2
M  V30 2 1 2 3
M  V30 3 1 2 4
M  V30 4 1 3 5
M  V30 5 1 3 6
M  V30 6 2 4 7
M  V30 7 1 4 8
M  V30 8 2 5 9
M  V30 9 1 5 10
M  V30 10 2 6 11
M  V30 11 1 6 12
M  V30 12 1 7 13
M  V30 13 2 8 14
M  V30 14 1 9 15
M  V30 15 1 9 16
M  V30 16 2 10 17
M  V30 17 2 13 18
M  V30 18 2 15 19
M  V30 19 1 7 11
M  V30 20 1 14 18
M  V30 21 1 17 19
M  V30 22 1 8 20
M  V30 23 1 10 21
M  V30 24 1 12 22
M  V30 25 1 12 23
M  V30 26 1 12 24
M  V30 27 1 13 25
M  V30 28 1 14 26
M  V30 29 1 15 27
M  V30 30 1 16 28
M  V30 31 1 16 29
M  V30 32 1 16 30
M  V30 33 1 17 31
M  V30 34 1 18 32
M  V30 35 1 19 33
M  V30 END BOND
M  V30 END CTAB
M  END
>  <Column 1>
2018

>  <level_0>
2193

>  <index>
2193

>  <Unnamed: 0>
2193

>  <NO.>
2205

>  <Name>
morphine

>  <IUPAC_name>
2-methyl-3-(2-methylphenyl)quinazolin-4-one

>  <SMILES>
Cc1ccccc1-n1c(C)nc2ccccc2c1=O

>  <CID>
6292

>  <logBB>


>  <BBB+/BBB->
BBB+

>  <Inchi>
InChI=1S/C16H14N2O/c1-11-7-3-6-10-15(11)18-12(2)17-14-9-5-4-8-13(14)16(18)19/h3-10H-1-2H3

>  <threshold>
-1

>  <reference>
R1|R13|R19|R6|R24|R27|R27|R27|R30|R30|R36|

>  <group>
B

>  <Class>
1

>  <ABC>
14.93

>  <ABCGG>
12.37

>  <nAcid>
0

>  <nBase>
0

>  <nAromAtom>
16

>  <nAromBond>
17

>  <nAtom>
33

>  <nHeavyAtom>
19

>  <nSpiro>
0

>  <nBridgehead>
0

>  <nHetero>
3

>  <nN>
2

>  <nO>
1

>  <nF>
0

>  <BalabanJ>
1.76

>  <BertzCT>
818.34

>  <nBonds>
35

>  <nBondsO>
21

>  <nBondsS>
17

>  <nBondsD>
1

>  <nBondsT>
0

>  <nBondsA>
17

>  <nBondsM>
18

>  <nBondsKS>
27

>  <nBondsKD>
8

>  <RNCG>
0.21

>  <RPCG>
0.21

>  <FCSP3>
0.13

>  <SZ>
22

>  <Sm>
20.84

>  <Sv>
22.02

>  <Sse>
32.87

>  <Sp>
23.39

>  <Si>
36.7

>  <MZ>
0.67

>  <Mm>
0.63

>  <Mv>
0.67

>  <Mse>
1

>  <Mp>
0.71

>  <Mi>
1.11

>  <NsCH3>
2

>  <NdCH2>
0

>  <NssCH2>
0

>  <NtCH>
0

>  <NdsCH>
0

>  <NaaCH>
8

>  <NsssCH>
0

>  <NddC>
0

>  <NtsC>
0

>  <NdssC>
0

>  <NaasC>
3

>  <NaaaC>
2

>  <NssssC>
0

>  <NsNH3>
0

>  <NsNH2>
0

>  <NssNH2>
0

>  <NdNH>
0

>  <NssNH>
0

>  <NaaNH>
0

>  <NtN>
0

>  <NsssNH>
0

>  <NdsN>
0

>  <NaaN>
1

>  <NsssN>
0

>  <NddsN>
0

>  <NaasN>
1

>  <NssssN>
0

>  <NsOH>
0

>  <NdO>
1

>  <NssO>
0

>  <NaaO>
0

>  <NsF>
0

>  <NsSiH3>
0

>  <NssSiH2>
0

>  <NsssSiH>
0

>  <NssssSi>
0

>  <NsPH2>
0

>  <NssPH>
0

>  <NsssP>
0

>  <NdsssP>
0

>  <NsssssP>
0

>  <NsSH>
0

>  <NdS>
0

>  <NssS>
0

>  <NaaS>
0

>  <NdssS>
0

>  <NddssS>
0

>  <NsCl>
0

>  <NsBr>
0

>  <NsI>
0

>  <fragCpx>
99.03

>  <fMF>
0.48

>  <nHBAcc>
3

>  <nHBDon>
0

>  <Kier1>
13.96

>  <Kier2>
5.78

>  <Lipinski>
1

>  <GhoseFilter>
1

>  <FilterItLogS>
-4.5

>  <VMcGowan>
195.15

>  <LabuteASA>
110.71

>  <PEOE_VSA1>
0

>  <PEOE_VSA2>
9.36

>  <PEOE_VSA3>
4.98

>  <PEOE_VSA4>
0

>  <PEOE_VSA5>
0

>  <PEOE_VSA6>
30.33

>  <PEOE_VSA7>
37.61

>  <PEOE_VSA8>
0

>  <PEOE_VSA9>
16.59

>  <PEOE_VSA10>
5.82

>  <PEOE_VSA11>
0

>  <PEOE_VSA12>
0

>  <PEOE_VSA13>
5.56

>  <SMR_VSA1>
0

>  <SMR_VSA2>
0

>  <SMR_VSA3>
9.55

>  <SMR_VSA4>
0

>  <SMR_VSA5>
13.85

>  <SMR_VSA6>
0

>  <SMR_VSA7>
70.27

>  <SMR_VSA8>
0

>  <SMR_VSA9>
5.69

>  <SlogP_VSA1>
5.56

>  <SlogP_VSA2>
9.55

>  <SlogP_VSA3>
0

>  <SlogP_VSA4>
13.85

>  <SlogP_VSA5>
11.39

>  <SlogP_VSA6>
53.33

>  <SlogP_VSA7>
0

>  <SlogP_VSA8>
16.59

>  <SlogP_VSA9>
0

>  <SlogP_VSA10>
0

>  <SlogP_VSA11>
0

>  <EState_VSA1>
0

>  <EState_VSA2>
5.56

>  <EState_VSA3>
11.21

>  <EState_VSA4>
16.77

>  <EState_VSA5>
0

>  <EState_VSA6>
4.57

>  <EState_VSA7>
62.38

>  <EState_VSA8>
4.98

>  <EState_VSA9>
0

>  <EState_VSA10>
4.79

>  <VSA_EState1>
1.68

>  <VSA_EState2>
17.14

>  <VSA_EState3>
0.65

>  <VSA_EState4>
2.68

>  <VSA_EState5>
0.71

>  <VSA_EState6>
15.29

>  <VSA_EState7>
0

>  <VSA_EState8>
3.86

>  <VSA_EState9>
0

>  <apol>
39.06

>  <bpol>
17.76

>  <nRing>
3

>  <nHRing>
1

>  <naRing>
3

>  <naHRing>
1

>  <nARing 2>
0

>  <nAHRing 2>
0

>  <nFRing>
1

>  <nFHRing>
1

>  <nFaRing>
1

>  <nFaHRing>
1

>  <nFARing 2>
0

>  <nFAHRing 2>
0

>  <nRot>
1

>  <SLogP>
3

>  <SMR>
76.81

>  <TopoPSA(NO)>
34.89

>  <TopoPSA>
34.89

>  <JGI1>
0.14

>  <JGI2>
0.08

>  <JGI3>
0.06

>  <JGI4>
0.06

>  <JGI5>
0.02

>  <Diameter>
9

>  <Radius>
5

>  <TMWC10>
113.93

>  <TSRW10>
52.86

>  <MW>
250.11

>  <AMW>
7.58

>  <WPath>
640

>  <WPol>
33

>  <Zagreb1>
102

>  <Zagreb2>
123

>  <mZagreb2>
4.17

>  <yes>


>  <nAR-cont>
0.336376

>  <nHA-cont>
0.998649058

>  <MWHBN>
0.189694931

>  <MWHBN-cont>
0.995449889

>  <TPSA-cont>
0.756446135

>  <pka_cont>
0.97

>  <yes.1>


>  <BBB_SCORE>
4.826092161

>  <MMFF94 Energy>
43.692

$$$$
Compound 1665
Actelion Java MolfileCreator 2.0

  0  0  0  0  0  0              0 V3000
M  V30 BEGIN CTAB
M  V30 COUNTS 48 50 0 0 0
M  V30 BEGIN ATOM
M  V30 1 O 2.928 -3.0072 -1.7402 0
M  V30 2 C 3.3272 -2.252 -2.8244 0
M  V30 3 C 3.4918 -2.6108 -0.4878 0
M  V30 4 N 4.1607 -1.2047 -2.6543 0
M  V30 5 C 2.8122 -2.6325 -4.054 0
M  V30 6 C 2.6936 -1.4853 0.1746 0
M  V30 7 C 4.4961 -0.5116 -3.7641 0
M  V30 8 C 3.1749 -1.899 -5.1793 0
M  V30 9 C 1.2177 -1.8644 0.3528 0
M  V30 10 C 4.0345 -0.8161 -5.0348 0
M  V30 11 N 0.4674 -0.8806 1.1557 0
M  V30 12 C 0.2944 0.4057 0.4337 0
M  V30 13 C -0.8774 -1.4212 1.4825 0
M  V30 14 C -0.5625 1.435 1.2098 0
M  V30 15 C -1.7438 -0.4367 2.3009 0
M  V30 16 N -1.8545 0.8458 1.5942 0
M  V30 17 C -2.8255 1.7545 2.0122 0
M  V30 18 C -3.6615 2.3898 1.0696 0
M  V30 19 C -2.9828 2.081 3.3689 0
M  V30 20 C -4.6069 3.3379 1.4989 0
M  V30 21 C -3.5538 2.0836 -0.4 0
M  V30 22 C -3.9334 3.0149 3.787 0
M  V30 23 C -4.7442 3.6455 2.8509 0
M  V30 24 H 4.5556 -2.3561 -0.573 0
M  V30 25 H 3.4544 -3.496 0.1585 0
M  V30 26 H 2.1432 -3.4818 -4.131 0
M  V30 27 H 3.1437 -1.2609 1.1491 0
M  V30 28 H 2.7706 -0.5812 -0.4375 0
M  V30 29 H 5.1695 0.3249 -3.6003 0
M  V30 30 H 2.7902 -2.1706 -6.158 0
M  V30 31 H 0.7404 -2.0101 -0.6246 0
M  V30 32 H 1.1864 -2.8324 0.8699 0
M  V30 33 H 4.3378 -0.2234 -5.8906 0
M  V30 34 H 1.2697 0.8698 0.2532 0
M  V30 35 H -0.1723 0.2266 -0.5442 0
M  V30 36 H -1.4125 -1.6815 0.559 0
M  V30 37 H -0.7677 -2.3415 2.069 0
M  V30 38 H -0.7033 2.3173 0.5741 0
M  V30 39 H -0.0224 1.759 2.1092 0
M  V30 40 H -1.2905 -0.2935 3.2898 0
M  V30 41 H -2.7371 -0.8799 2.4427 0
M  V30 42 H -2.344 1.6214 4.1177 0
M  V30 43 H -5.2471 3.8379 0.7758 0
M  V30 44 H -4.4481 2.4135 -0.9398 0
M  V30 45 H -3.4612 1.006 -0.5699 0
M  V30 46 H -2.6884 2.5959 -0.8308 0
M  V30 47 H -4.0313 3.253 4.8424 0
M  V30 48 H -5.4816 4.3764 3.1711 0
M  V30 END ATOM
M  V30 BEGIN BOND
M  V30 1 1 1 2
M  V30 2 1 1 3
M  V30 3 2 2 4
M  V30 4 1 2 5
M  V30 5 1 3 6
M  V30 6 1 4 7
M  V30 7 2 5 8
M  V30 8 1 6 9
M  V30 9 2 7 10
M  V30 10 1 9 11
M  V30 11 1 11 12
M  V30 12 1 11 13
M  V30 13 1 12 14
M  V30 14 1 13 15
M  V30 15 1 14 16
M  V30 16 1 16 17
M  V30 17 2 17 18
M  V30 18 1 17 19
M  V30 19 1 18 20
M  V30 20 1 18 21
M  V30 21 2 19 22
M  V30 22 2 20 23
M  V30 23 1 8 10
M  V30 24 1 15 16
M  V30 25 1 22 23
M  V30 26 1 3 24
M  V30 27 1 3 25
M  V30 28 1 5 26
M  V30 29 1 6 27
M  V30 30 1 6 28
M  V30 31 1 7 29
M  V30 32 1 8 30
M  V30 33 1 9 31
M  V30 34 1 9 32
M  V30 35 1 10 33
M  V30 36 1 12 34
M  V30 37 1 12 35
M  V30 38 1 13 36
M  V30 39 1 13 37
M  V30 40 1 14 38
M  V30 41 1 14 39
M  V30 42 1 15 40
M  V30 43 1 15 41
M  V30 44 1 19 42
M  V30 45 1 20 43
M  V30 46 1 21 44
M  V30 47 1 21 45
M  V30 48 1 21 46
M  V30 49 1 22 47
M  V30 50 1 23 48
M  V30 END BOND
M  V30 END CTAB
M  END
>  <Column 1>
2019

>  <level_0>
2194

>  <index>
2194

>  <Unnamed: 0>
2194

>  <NO.>
2206

>  <Name>
toprilidine

>  <IUPAC_name>
1-(2-methylphenyl)-4-(3-pyridin-2-yloxypropyl)piperazine

>  <SMILES>
Cc1ccccc1N1CCN(CCCOc2ccccn2)CC1

>  <CID>
68710

>  <logBB>


>  <BBB+/BBB->
BBB+

>  <Inchi>
InChI=1S/C19H25N3O/c1-17-7-2-3-8-18(17)22-14-12-21(13-15-22)11-6-16-23-19-9-4-5-10-20-19/h2-5-7-10H-6-11-16H2-1H3

>  <threshold>
-1

>  <reference>
R1|R13|R19|R6|R24|R27|R27|R27|R30|R30|

>  <group>
B

>  <Class>
1

>  <ABC>
17.71

>  <ABCGG>
12.9

>  <nAcid>
0

>  <nBase>
1

>  <nAromAtom>
12

>  <nAromBond>
12

>  <nAtom>
48

>  <nHeavyAtom>
23

>  <nSpiro>
0

>  <nBridgehead>
0

>  <nHetero>
4

>  <nN>
3

>  <nO>
1

>  <nF>
0

>  <BalabanJ>
1.27

>  <BertzCT>
594.57

>  <nBonds>
50

>  <nBondsO>
25

>  <nBondsS>
38

>  <nBondsD>
0

>  <nBondsT>
0

>  <nBondsA>
12

>  <nBondsM>
12

>  <nBondsKS>
44

>  <nBondsKD>
6

>  <RNCG>
0.27

>  <RPCG>
0.12

>  <FCSP3>
0.42

>  <SZ>
28

>  <Sm>
25.93

>  <Sv>
28.76

>  <Sse>
47.42

>  <Sp>
31.44

>  <Si>
54.27

>  <MZ>
0.58

>  <Mm>
0.54

>  <Mv>
0.6

>  <Mse>
0.99

>  <Mp>
0.65

>  <Mi>
1.13

>  <NsCH3>
1

>  <NdCH2>
0

>  <NssCH2>
7

>  <NtCH>
0

>  <NdsCH>
0

>  <NaaCH>
8

>  <NsssCH>
0

>  <NddC>
0

>  <NtsC>
0

>  <NdssC>
0

>  <NaasC>
3

>  <NaaaC>
0

>  <NssssC>
0

>  <NsNH3>
0

>  <NsNH2>
0

>  <NssNH2>
0

>  <NdNH>
0

>  <NssNH>
0

>  <NaaNH>
0

>  <NtN>
0

>  <NsssNH>
0

>  <NdsN>
0

>  <NaaN>
1

>  <NsssN>
2

>  <NddsN>
0

>  <NaasN>
0

>  <NssssN>
0

>  <NsOH>
0

>  <NdO>
0

>  <NssO>
1

>  <NaaO>
0

>  <NsF>
0

>  <NsSiH3>
0

>  <NssSiH2>
0

>  <NsssSiH>
0

>  <NssssSi>
0

>  <NsPH2>
0

>  <NssPH>
0

>  <NsssP>
0

>  <NdsssP>
0

>  <NsssssP>
0

>  <NsSH>
0

>  <NdS>
0

>  <NssS>
0

>  <NaaS>
0

>  <NdssS>
0

>  <NddssS>
0

>  <NsCl>
0

>  <NsBr>
0

>  <NsI>
0

>  <fragCpx>
119.04

>  <fMF>
0.46

>  <nHBAcc>
4

>  <nHBDon>
0

>  <Kier1>
17.81

>  <Kier2>
9.47

>  <Lipinski>
1

>  <GhoseFilter>
1

>  <FilterItLogS>
-4.44

>  <VMcGowan>
256

>  <LabuteASA>
138.26

>  <PEOE_VSA1>
9.64

>  <PEOE_VSA2>
4.9

>  <PEOE_VSA3>
4.98

>  <PEOE_VSA4>
0

>  <PEOE_VSA5>
0

>  <PEOE_VSA6>
24.27

>  <PEOE_VSA7>
31.04

>  <PEOE_VSA8>
50.67

>  <PEOE_VSA9>
6.61

>  <PEOE_VSA10>
0

>  <PEOE_VSA11>
0

>  <PEOE_VSA12>
5.88

>  <PEOE_VSA13>
0

>  <SMR_VSA1>
4.74

>  <SMR_VSA2>
0

>  <SMR_VSA3>
9.88

>  <SMR_VSA4>
0

>  <SMR_VSA5>
13.34

>  <SMR_VSA6>
44.23

>  <SMR_VSA7>
54.22

>  <SMR_VSA8>
0

>  <SMR_VSA9>
5.88

>  <SlogP_VSA1>
9.64

>  <SlogP_VSA2>
49.21

>  <SlogP_VSA3>
0

>  <SlogP_VSA4>
6.92

>  <SlogP_VSA5>
11.98

>  <SlogP_VSA6>
48.66

>  <SlogP_VSA7>
0

>  <SlogP_VSA8>
0

>  <SlogP_VSA9>
0

>  <SlogP_VSA10>
5.69

>  <SlogP_VSA11>
5.88

>  <EState_VSA1>
0

>  <EState_VSA2>
0

>  <EState_VSA3>
0

>  <EState_VSA4>
51.63

>  <EState_VSA5>
11.25

>  <EState_VSA6>
6.2

>  <EState_VSA7>
18.2

>  <EState_VSA8>
45.97

>  <EState_VSA9>
4.74

>  <EState_VSA10>
0

>  <VSA_EState1>
5.66

>  <VSA_EState2>
9.19

>  <VSA_EState3>
0

>  <VSA_EState4>
2.75

>  <VSA_EState5>
0.72

>  <VSA_EState6>
14.41

>  <VSA_EState7>
2.81

>  <VSA_EState8>
8.47

>  <VSA_EState9>
0

>  <apol>
52.5

>  <bpol>
31.38

>  <nRing>
3

>  <nHRing>
2

>  <naRing>
2

>  <naHRing>
1

>  <nARing 2>
1

>  <nAHRing 2>
1

>  <nFRing>
0

>  <nFHRing>
0

>  <nFaRing>
0

>  <nFaHRing>
0

>  <nFARing 2>
0

>  <nFAHRing 2>
0

>  <nRot>
6

>  <SLogP>
2.98

>  <SMR>
94.18

>  <TopoPSA(NO)>
28.6

>  <TopoPSA>
28.6

>  <JGI1>
0.12

>  <JGI2>
0.06

>  <JGI3>
0.03

>  <JGI4>
0.03

>  <JGI5>
0.02

>  <Diameter>
15

>  <Radius>
8

>  <TMWC10>
120.46

>  <TSRW10>
56.75

>  <MW>
311.2

>  <AMW>
6.48

>  <WPath>
1490

>  <WPol>
31

>  <Zagreb1>
114

>  <Zagreb2>
129

>  <mZagreb2>
5.22

>  <yes>


>  <nAR-cont>
0.816016

>  <nHA-cont>
0.967789328

>  <MWHBN>
0.226746294

>  <MWHBN-cont>
0.989842913

>  <TPSA-cont>
0.80035424

>  <pka_cont>
0.97

>  <yes.1>


>  <BBB_SCORE>
5.354278178

>  <MMFF94 Energy>
102.07

$$$$
Compound 1666
Actelion Java MolfileCreator 2.0

  0  0  0  0  0  0              0 V3000
M  V30 BEGIN CTAB
M  V30 COUNTS 41 41 0 0 0
M  V30 BEGIN ATOM
M  V30 1 Cl -5.4304 -0.5082 3.3066 0
M  V30 2 C -3.8478 -1.2998 2.9686 0
M  V30 3 Cl -4.1886 -2.849 2.113 0
M  V30 4 Cl -3.0539 -1.6791 4.5328 0
M  V30 5 C -2.9599 -0.368 2.0677 0
M  V30 6 O -1.7087 -0.9982 1.7624 0
M  V30 7 O -2.7076 0.8926 2.6957 0
M  V30 8 C -0.8981 -0.3261 0.7869 0
M  V30 9 C 0.5272 -0.8764 0.9302 0
M  V30 10 C -1.4263 -0.5755 -0.6413 0
M  V30 11 O 1.3845 -0.1365 0.0617 0
M  V30 12 O -2.4606 0.3668 -0.9674 0
M  V30 13 C 2.6714 -0.5824 -0.0821 0
M  V30 14 C -1.9525 1.5414 -1.6232 0
M  V30 15 C 3.3991 -0.0096 -1.1411 0
M  V30 16 C 3.284 -1.5264 0.7473 0
M  V30 17 O -1.626 1.1831 -2.9684 0
M  V30 18 C -2.9692 2.7316 -1.5292 0
M  V30 19 C 4.7278 -0.4044 -1.3574 0
M  V30 20 C 2.7672 1.0124 -2.0456 0
M  V30 21 C 4.6079 -1.9105 0.5214 0
M  V30 22 Cl -3.3768 3.0643 0.191 0
M  V30 23 Cl -4.4813 2.3343 -2.4126 0
M  V30 24 Cl -2.2681 4.2175 -2.2452 0
M  V30 25 C 5.3284 -1.3517 -0.53 0
M  V30 26 H -3.5138 -0.1847 1.1409 0
M  V30 27 H -2.936 1.5868 2.0529 0
M  V30 28 H -0.8769 0.7493 0.9995 0
M  V30 29 H 0.852 -0.7574 1.9715 0
M  V30 30 H 0.5353 -1.9454 0.6799 0
M  V30 31 H -0.6357 -0.5391 -1.3984 0
M  V30 32 H -1.8861 -1.5687 -0.6921 0
M  V30 33 H -1.0188 1.8471 -1.1337 0
M  V30 34 H 2.7631 -1.9765 1.586 0
M  V30 35 H -2.4711 1.0965 -3.4462 0
M  V30 36 H 5.3038 0.0259 -2.1737 0
M  V30 37 H 1.8987 0.5822 -2.5552 0
M  V30 38 H 3.4669 1.3566 -2.8145 0
M  V30 39 H 2.4526 1.8876 -1.4676 0
M  V30 40 H 5.0779 -2.6446 1.1711 0
M  V30 41 H 6.3588 -1.6506 -0.7041 0
M  V30 END ATOM
M  V30 BEGIN BOND
M  V30 1 1 1 2
M  V30 2 1 2 3
M  V30 3 1 2 4
M  V30 4 1 2 5
M  V30 5 1 5 6
M  V30 6 1 5 7
M  V30 7 1 6 8
M  V30 8 1 8 9
M  V30 9 1 8 10
M  V30 10 1 9 11
M  V30 11 1 10 12
M  V30 12 1 11 13
M  V30 13 1 12 14
M  V30 14 2 13 15
M  V30 15 1 13 16
M  V30 16 1 14 17
M  V30 17 1 14 18
M  V30 18 1 15 19
M  V30 19 1 15 20
M  V30 20 2 16 21
M  V30 21 1 18 22
M  V30 22 1 18 23
M  V30 23 1 18 24
M  V30 24 2 19 25
M  V30 25 1 21 25
M  V30 26 1 5 26
M  V30 27 1 7 27
M  V30 28 1 8 28
M  V30 29 1 9 29
M  V30 30 1 9 30
M  V30 31 1 10 31
M  V30 32 1 10 32
M  V30 33 1 14 33
M  V30 34 1 16 34
M  V30 35 1 17 35
M  V30 36 1 19 36
M  V30 37 1 20 37
M  V30 38 1 20 38
M  V30 39 1 20 39
M  V30 40 1 21 40
M  V30 41 1 25 41
M  V30 END BOND
M  V30 END CTAB
M  END
>  <Column 1>
2020

>  <level_0>
2195

>  <index>
2195

>  <Unnamed: 0>
2195

>  <NO.>
2207

>  <Name>
toloxychlorinol

>  <IUPAC_name>
2-2-2-trichloro-1-[3-(2-methylphenoxy)-2-(2-2-2-trichloro-1-hydroxyethoxy)propoxy]ethanol

>  <SMILES>
Cc1ccccc1OCC(COC(O)C(Cl)(Cl)Cl)OC(O)C(Cl)(Cl)Cl

>  <CID>
71215

>  <logBB>


>  <BBB+/BBB->
BBB+

>  <Inchi>
InChI=1S/C14H16Cl6O5/c1-8-4-2-3-5-10(8)23-6-9(25-12(22)14(18-19)20)7-24-11(21)13(15-16)17/h2-5-9-11-12-21-22H-6-7H2-1H3

>  <threshold>
-1

>  <reference>
R1|R19|R6|R27|R27|R30|

>  <group>
B

>  <Class>
1

>  <ABC>
18.8

>  <ABCGG>
16.67

>  <nAcid>
0

>  <nBase>
0

>  <nAromAtom>
6

>  <nAromBond>
6

>  <nAtom>
41

>  <nHeavyAtom>
25

>  <nSpiro>
0

>  <nBridgehead>
0

>  <nHetero>
11

>  <nN>
0

>  <nO>
5

>  <nF>
0

>  <BalabanJ>
2.6

>  <BertzCT>
533.18

>  <nBonds>
41

>  <nBondsO>
25

>  <nBondsS>
35

>  <nBondsD>
0

>  <nBondsT>
0

>  <nBondsA>
6

>  <nBondsM>
6

>  <nBondsKS>
38

>  <nBondsKD>
3

>  <RNCG>
0.19

>  <RPCG>
0.09

>  <FCSP3>
0.57

>  <SZ>
40.33

>  <Sm>
39.71

>  <Sv>
28.45

>  <Sse>
43.35

>  <Sp>
30.62

>  <Si>
46.28

>  <MZ>
0.98

>  <Mm>
0.97

>  <Mv>
0.69

>  <Mse>
1.06

>  <Mp>
0.75

>  <Mi>
1.13

>  <NsCH3>
1

>  <NdCH2>
0

>  <NssCH2>
2

>  <NtCH>
0

>  <NdsCH>
0

>  <NaaCH>
4

>  <NsssCH>
3

>  <NddC>
0

>  <NtsC>
0

>  <NdssC>
0

>  <NaasC>
2

>  <NaaaC>
0

>  <NssssC>
2

>  <NsNH3>
0

>  <NsNH2>
0

>  <NssNH2>
0

>  <NdNH>
0

>  <NssNH>
0

>  <NaaNH>
0

>  <NtN>
0

>  <NsssNH>
0

>  <NdsN>
0

>  <NaaN>
0

>  <NsssN>
0

>  <NddsN>
0

>  <NaasN>
0

>  <NssssN>
0

>  <NsOH>
2

>  <NdO>
0

>  <NssO>
3

>  <NaaO>
0

>  <NsF>
0

>  <NsSiH3>
0

>  <NssSiH2>
0

>  <NsssSiH>
0

>  <NssssSi>
0

>  <NsPH2>
0

>  <NssPH>
0

>  <NsssP>
0

>  <NdsssP>
0

>  <NsssssP>
0

>  <NsSH>
0

>  <NdS>
0

>  <NssS>
0

>  <NaaS>
0

>  <NdssS>
0

>  <NddssS>
0

>  <NsCl>
6

>  <NsBr>
0

>  <NsI>
0

>  <fragCpx>
25.11

>  <fMF>
0.15

>  <nHBAcc>
5

>  <nHBDon>
2

>  <Kier1>
23.04

>  <Kier2>
9.8

>  <Lipinski>
1

>  <GhoseFilter>
1

>  <FilterItLogS>
-4.85

>  <VMcGowan>
287.15

>  <LabuteASA>
175.1

>  <PEOE_VSA1>
24.42

>  <PEOE_VSA2>
0

>  <PEOE_VSA3>
0

>  <PEOE_VSA4>
0

>  <PEOE_VSA5>
0

>  <PEOE_VSA6>
87.8

>  <PEOE_VSA7>
18.55

>  <PEOE_VSA8>
0

>  <PEOE_VSA9>
6.61

>  <PEOE_VSA10>
18.46

>  <PEOE_VSA11>
0

>  <PEOE_VSA12>
20.17

>  <PEOE_VSA13>
0

>  <SMR_VSA1>
24.42

>  <SMR_VSA2>
0

>  <SMR_VSA3>
0

>  <SMR_VSA4>
0

>  <SMR_VSA5>
33.19

>  <SMR_VSA6>
13.21

>  <SMR_VSA7>
29.83

>  <SMR_VSA8>
0

>  <SMR_VSA9>
5.75

>  <SlogP_VSA1>
4.74

>  <SlogP_VSA2>
49.7

>  <SlogP_VSA3>
9.47

>  <SlogP_VSA4>
6.92

>  <SlogP_VSA5>
5.56

>  <SlogP_VSA6>
24.27

>  <SlogP_VSA7>
0

>  <SlogP_VSA8>
0

>  <SlogP_VSA9>
0

>  <SlogP_VSA10>
0

>  <SlogP_VSA11>
5.75

>  <EState_VSA1>
26.27

>  <EState_VSA2>
13.21

>  <EState_VSA3>
5.75

>  <EState_VSA4>
5.56

>  <EState_VSA5>
0

>  <EState_VSA6>
12.13

>  <EState_VSA7>
19.06

>  <EState_VSA8>
0

>  <EState_VSA9>
83.82

>  <EState_VSA10>
10.21

>  <VSA_EState1>
11.68

>  <VSA_EState2>
0

>  <VSA_EState3>
19.37

>  <VSA_EState4>
0.88

>  <VSA_EState5>
0.58

>  <VSA_EState6>
7.24

>  <VSA_EState7>
-4.43

>  <VSA_EState8>
1.46

>  <VSA_EState9>
0

>  <apol>
51.14

>  <bpol>
24.32

>  <nRing>
1

>  <nHRing>
0

>  <naRing>
1

>  <naHRing>
0

>  <nARing 2>
0

>  <nAHRing 2>
0

>  <nFRing>
0

>  <nFHRing>
0

>  <nFaRing>
0

>  <nFaHRing>
0

>  <nFARing 2>
0

>  <nFAHRing 2>
0

>  <nRot>
8

>  <SLogP>
4.15

>  <SMR>
100.09

>  <TopoPSA(NO)>
68.15

>  <TopoPSA>
68.15

>  <JGI1>
0.34

>  <JGI2>
0.11

>  <JGI3>
0.04

>  <JGI4>
0.05

>  <JGI5>
0.03

>  <Diameter>
11

>  <Radius>
6

>  <TMWC10>
122.92

>  <TSRW10>
59.23

>  <MW>
473.91

>  <AMW>
11.56

>  <WPath>
1622

>  <WPol>
34

>  <Zagreb1>
122

>  <Zagreb2>
134

>  <mZagreb2>
5.36

>  <yes>


>  <nAR-cont>
0.336376

>  <nHA-cont>
0.921834225

>  <MWHBN>
0.321551177

>  <MWHBN-cont>
0.77194029

>  <TPSA-cont>
0.524270681

>  <pka_cont>
0.97

>  <yes.1>


>  <BBB_SCORE>
3.949662023

>  <MMFF94 Energy>
168.15

$$$$
Compound 1667
Actelion Java MolfileCreator 2.0

  0  0  0  0  0  0              0 V3000
M  V30 BEGIN CTAB
M  V30 COUNTS 60 60 0 0 0
M  V30 BEGIN ATOM
M  V30 1 O -3.9191 -0.5479 -0.3913 0 CHG=1
M  V30 2 N -5.2567 -0.1782 -0.7791 0
M  V30 3 C -2.9981 -0.9014 -1.4277 0
M  V30 4 C -5.5922 -0.2114 -2.078 0
M  V30 5 C -3.4533 -0.9229 -2.7659 0
M  V30 6 C -1.5967 -1.3659 -1.046 0
M  V30 7 C -4.7526 -0.578 -3.1084 0
M  V30 8 O -2.6081 -1.2823 -3.7988 0
M  V30 9 N -0.6369 -1.1035 -2.1621 0 RAD=2
M  V30 10 C -1.1128 -0.687 0.2557 0
M  V30 11 C -5.2209 -0.5898 -4.5314 0
M  V30 12 C 0.0264 -1.4813 0.9622 0
M  V30 13 C 1.0881 -0.5257 1.7157 0
M  V30 14 C -0.6127 -2.5838 1.8407 0
M  V30 15 N 1.5712 0.6192 0.8035 0
M  V30 16 C 2.2967 -1.3817 2.1972 0
M  V30 17 C 0.3662 -0.1156 3.0348 0
M  V30 18 C 2.4517 0.2681 -0.3292 0
M  V30 19 C 1.7409 2.0224 1.3772 0
M  V30 20 N 2.207 -1.0254 -0.8744 0
M  V30 21 N 2.0365 1.0519 -1.4505 0
M  V30 22 C 3.9719 0.3699 -0.1168 0
M  V30 23 C 2.1189 3.1432 0.3467 0
M  V30 24 C 2.8315 2.1089 2.4745 0
M  V30 25 C 0.4011 2.5841 1.9465 0
M  V30 26 H -6.6207 0.0808 -2.2713 0
M  V30 27 H -1.6829 -2.4471 -0.8845 0
M  V30 28 H -1.6818 -1.3319 -3.3998 0
M  V30 29 H -0.4868 -0.0866 -2.2288 0
M  V30 30 H -1.9464 -0.5802 0.962 0
M  V30 31 H -0.8046 0.3364 0.0198 0
M  V30 32 H -5.107 -1.5898 -4.9621 0
M  V30 33 H -6.2788 -0.3162 -4.6067 0
M  V30 34 H -4.6479 0.129 -5.126 0
M  V30 35 H 0.5571 -2.08 0.2234 0
M  V30 36 H -1.1734 -3.2901 1.2183 0
M  V30 37 H 0.144 -3.1665 2.3729 0
M  V30 38 H -1.3205 -2.1776 2.5701 0
M  V30 39 H 2.748 -1.9744 1.3978 0
M  V30 40 H 3.078 -0.7565 2.6402 0
M  V30 41 H 2.006 -2.0974 2.9745 0
M  V30 42 H 0.9673 0.518 3.6846 0
M  V30 43 H -0.601 0.3582 2.8444 0
M  V30 44 H 0.1552 -0.9858 3.668 0
M  V30 45 H 2.8285 -1.2275 -1.646 0
M  V30 46 H 1.2611 -1.0376 -1.2852 0
M  V30 47 H 2.3286 0.5879 -2.3009 0
M  V30 48 H 1.0218 0.976 -1.443 0
M  V30 49 H 4.324 1.3867 0.0619 0
M  V30 50 H 4.5265 0.0301 -1.0028 0
M  V30 51 H 4.3127 -0.2495 0.7182 0
M  V30 52 H 2.2102 4.118 0.846 0
M  V30 53 H 3.0826 2.9946 -0.1417 0
M  V30 54 H 1.3425 3.2654 -0.4177 0
M  V30 55 H 2.6898 1.4096 3.297 0
M  V30 56 H 2.8462 3.1098 2.9246 0
M  V30 57 H 3.8339 1.9303 2.0793 0
M  V30 58 H 0.3715 3.6815 1.9228 0
M  V30 59 H 0.2363 2.3436 2.9975 0
M  V30 60 H -0.4566 2.2484 1.3544 0
M  V30 END ATOM
M  V30 BEGIN BOND
M  V30 1 2 1 2
M  V30 2 1 1 3
M  V30 3 1 2 4
M  V30 4 2 3 5
M  V30 5 1 3 6
M  V30 6 2 4 7
M  V30 7 1 5 8
M  V30 8 1 6 9
M  V30 9 1 6 10
M  V30 10 1 7 11
M  V30 11 1 10 12
M  V30 12 1 12 13
M  V30 13 1 12 14
M  V30 14 1 13 15
M  V30 15 1 13 16
M  V30 16 1 13 17
M  V30 17 1 15 18
M  V30 18 1 15 19
M  V30 19 1 18 20
M  V30 20 1 18 21
M  V30 21 1 18 22
M  V30 22 1 19 23
M  V30 23 1 19 24
M  V30 24 1 19 25
M  V30 25 1 5 7
M  V30 26 1 4 26
M  V30 27 1 6 27
M  V30 28 1 8 28
M  V30 29 1 9 29
M  V30 30 1 10 30
M  V30 31 1 10 31
M  V30 32 1 11 32
M  V30 33 1 11 33
M  V30 34 1 11 34
M  V30 35 1 12 35
M  V30 36 1 14 36
M  V30 37 1 14 37
M  V30 38 1 14 38
M  V30 39 1 16 39
M  V30 40 1 16 40
M  V30 41 1 16 41
M  V30 42 1 17 42
M  V30 43 1 17 43
M  V30 44 1 17 44
M  V30 45 1 20 45
M  V30 46 1 20 46
M  V30 47 1 21 47
M  V30 48 1 21 48
M  V30 49 1 22 49
M  V30 50 1 22 50
M  V30 51 1 22 51
M  V30 52 1 23 52
M  V30 53 1 23 53
M  V30 54 1 23 54
M  V30 55 1 24 55
M  V30 56 1 24 56
M  V30 57 1 24 57
M  V30 58 1 25 58
M  V30 59 1 25 59
M  V30 60 1 25 60
M  V30 END BOND
M  V30 END CTAB
M  END
>  <Column 1>
2022

>  <level_0>
2198

>  <index>
2198

>  <Unnamed: 0>
2198

>  <NO.>
2210

>  <Name>


>  <IUPAC_name>


>  <SMILES>
Cc1cn[o+]c(C([NH])CC(C)C(C)(C)N(C(C)(C)C)C(C)(N)N)c1O

>  <CID>


>  <logBB>


>  <BBB+/BBB->
BBB+

>  <Inchi>
InChI=1S/C18H34N5O2/c1-11-10-22-25-15(14(11)24)13(19)9-12(2)17(6-7)23(16(3-4)5)18(8-20)21/h10-12-13-19H-9-20-21H2-1-8H3/p+1

>  <threshold>
-1

>  <reference>
R1|R28|R9|R30|

>  <group>
B

>  <Class>
-1

>  <ABC>
19.02

>  <ABCGG>
17.95

>  <nAcid>
0

>  <nBase>
4

>  <nAromAtom>
6

>  <nAromBond>
6

>  <nAtom>
60

>  <nHeavyAtom>
25

>  <nSpiro>
0

>  <nBridgehead>
0

>  <nHetero>
7

>  <nN>
5

>  <nO>
2

>  <nF>
0

>  <BalabanJ>
2.94

>  <BertzCT>
576.11

>  <nBonds>
60

>  <nBondsO>
25

>  <nBondsS>
54

>  <nBondsD>
0

>  <nBondsT>
0

>  <nBondsA>
6

>  <nBondsM>
6

>  <nBondsKS>
57

>  <nBondsKD>
3

>  <RNCG>
0.24

>  <RPCG>
0.14

>  <FCSP3>
0.78

>  <SZ>
32.33

>  <Sm>
29.43

>  <Sv>
32.7

>  <Sse>
59.51

>  <Sp>
36.23

>  <Si>
69.14

>  <MZ>
0.54

>  <Mm>
0.49

>  <Mv>
0.55

>  <Mse>
0.99

>  <Mp>
0.6

>  <Mi>
1.15

>  <NsCH3>
8

>  <NdCH2>
0

>  <NssCH2>
1

>  <NtCH>
0

>  <NdsCH>
0

>  <NaaCH>
1

>  <NsssCH>
2

>  <NddC>
0

>  <NtsC>
0

>  <NdssC>
0

>  <NaasC>
3

>  <NaaaC>
0

>  <NssssC>
3

>  <NsNH3>
0

>  <NsNH2>
2

>  <NssNH2>
0

>  <NdNH>
0

>  <NssNH>
0

>  <NaaNH>
0

>  <NtN>
0

>  <NsssNH>
0

>  <NdsN>
0

>  <NaaN>
1

>  <NsssN>
1

>  <NddsN>
0

>  <NaasN>
0

>  <NssssN>
0

>  <NsOH>
1

>  <NdO>
0

>  <NssO>
0

>  <NaaO>
1

>  <NsF>
0

>  <NsSiH3>
0

>  <NssSiH2>
0

>  <NsssSiH>
0

>  <NssssSi>
0

>  <NsPH2>
0

>  <NssPH>
0

>  <NsssP>
0

>  <NdsssP>
0

>  <NsssssP>
0

>  <NsSH>
0

>  <NdS>
0

>  <NssS>
0

>  <NaaS>
0

>  <NdssS>
0

>  <NddssS>
0

>  <NsCl>
0

>  <NsBr>
0

>  <NsI>
0

>  <fragCpx>
25.07

>  <fMF>
0.1

>  <nHBAcc>
5

>  <nHBDon>
3

>  <Kier1>
23.04

>  <Kier2>
7.94

>  <Lipinski>
1

>  <GhoseFilter>
1

>  <FilterItLogS>
-3.3

>  <VMcGowan>
302.36

>  <LabuteASA>
151.09

>  <PEOE_VSA1>
16.57

>  <PEOE_VSA2>
4.9

>  <PEOE_VSA3>
5.73

>  <PEOE_VSA4>
0

>  <PEOE_VSA5>
0

>  <PEOE_VSA6>
11.45

>  <PEOE_VSA7>
60.8

>  <PEOE_VSA8>
16.64

>  <PEOE_VSA9>
0

>  <PEOE_VSA10>
18.03

>  <PEOE_VSA11>
5.16

>  <PEOE_VSA12>
5.75

>  <PEOE_VSA13>
0

>  <SMR_VSA1>
9.63

>  <SMR_VSA2>
0

>  <SMR_VSA3>
15.79

>  <SMR_VSA4>
17.39

>  <SMR_VSA5>
84.72

>  <SMR_VSA6>
0

>  <SMR_VSA7>
17.52

>  <SMR_VSA8>
0

>  <SMR_VSA9>
5.75

>  <SlogP_VSA1>
17.2

>  <SlogP_VSA2>
32.03

>  <SlogP_VSA3>
0

>  <SlogP_VSA4>
12.84

>  <SlogP_VSA5>
72.25

>  <SlogP_VSA6>
10.72

>  <SlogP_VSA7>
0

>  <SlogP_VSA8>
0

>  <SlogP_VSA9>
0

>  <SlogP_VSA10>
0

>  <SlogP_VSA11>
5.75

>  <EState_VSA1>
11.83

>  <EState_VSA2>
28.51

>  <EState_VSA3>
11.98

>  <EState_VSA4>
0

>  <EState_VSA5>
6.2

>  <EState_VSA6>
13.85

>  <EState_VSA7>
0

>  <EState_VSA8>
51.6

>  <EState_VSA9>
21.72

>  <EState_VSA10>
5.11

>  <VSA_EState1>
5.16

>  <VSA_EState2>
2.08

>  <VSA_EState3>
13.89

>  <VSA_EState4>
20.92

>  <VSA_EState5>
-0.77

>  <VSA_EState6>
-0.73

>  <VSA_EState7>
1.91

>  <VSA_EState8>
15.97

>  <VSA_EState9>
0

>  <apol>
60.5

>  <bpol>
37.42

>  <nRing>
1

>  <nHRing>
1

>  <naRing>
1

>  <naHRing>
1

>  <nARing 2>
0

>  <nAHRing 2>
0

>  <nFRing>
0

>  <nFHRing>
0

>  <nFaRing>
0

>  <nFaHRing>
0

>  <nFARing 2>
0

>  <nFAHRing 2>
0

>  <nRot>
6

>  <SLogP>
2.79

>  <SMR>
99.38

>  <TopoPSA(NO)>
123.5

>  <TopoPSA>
123.5

>  <JGI1>
0.4

>  <JGI2>
0.12

>  <JGI3>
0.11

>  <JGI4>
0.04

>  <JGI5>
0.02

>  <Diameter>
10

>  <Radius>
5

>  <TMWC10>
126.02

>  <TSRW10>
60.19

>  <MW>
353.28

>  <AMW>
5.89

>  <WPath>
1446

>  <WPol>
43

>  <Zagreb1>
130

>  <Zagreb2>
151

>  <mZagreb2>
5.17

>  <yes>


>  <nAR-cont>
0.336376

>  <nHA-cont>
0.921834225

>  <MWHBN>
0.425628265

>  <MWHBN-cont>
0.37634615

>  <TPSA-cont>
0

>  <pka_cont>
0.97

>  <yes.1>


>  <BBB_SCORE>
2.307729449

>  <MMFF94 Energy>
-46.492

$$$$
Compound 1668
Actelion Java MolfileCreator 2.0

  0  0  0  0  0  0              0 V3000
M  V30 BEGIN CTAB
M  V30 COUNTS 48 51 0 0 0
M  V30 BEGIN ATOM
M  V30 1 Cl -1.2435 -0.1657 2.9034 0
M  V30 2 C -0.342 -1.4739 3.5889 0
M  V30 3 C -0.3467 -2.7655 3.0475 0
M  V30 4 C 0.4129 -1.2101 4.7349 0
M  V30 5 N -1.0924 -3.0352 1.8897 0
M  V30 6 C 0.3974 -3.788 3.6456 0
M  V30 7 C 1.155 -2.2271 5.3371 0
M  V30 8 N -2.3176 -3.5995 2.003 0
M  V30 9 C -0.7826 -2.688 0.5867 0
M  V30 10 Cl 0.4618 -5.3952 3.0121 0
M  V30 11 C 1.1465 -3.5127 4.7934 0
M  V30 12 C -2.7686 -3.6545 0.7531 0
M  V30 13 C -1.8651 -3.1055 -0.1818 0
M  V30 14 C 0.4532 -2.0437 0.2237 0
M  V30 15 C -2.057 -3.0398 -1.6507 0
M  V30 16 O 1.53 -2.2866 0.7571 0
M  V30 17 N 0.3345 -1.0911 -0.7595 0
M  V30 18 C 1.487 -0.2412 -1.1606 0 CFG=2
M  V30 19 C 1.7313 1.0224 -0.2718 0
M  V30 20 C 1.2111 0.7896 -2.2853 0 CFG=2
M  V30 21 O 1.8827 1.2856 0.8971 0
M  V30 22 N 1.508 1.8465 -1.3295 0
M  V30 23 S -0.5457 1.1219 -2.7222 0
M  V30 24 C 0.6763 3.0354 -1.269 0 CFG=2
M  V30 25 C -0.3057 2.959 -2.4563 0
M  V30 26 C 1.5339 4.2915 -1.2485 0
M  V30 27 C 0.2305 3.551 -3.7665 0
M  V30 28 C -1.66 3.5818 -2.1118 0
M  V30 29 O 2.6292 4.4457 -1.7651 0
M  V30 30 O 0.9264 5.3251 -0.6287 0
M  V30 31 H 0.4316 -0.2098 5.1621 0
M  V30 32 H 1.7451 -2.0163 6.2259 0
M  V30 33 H 1.7348 -4.2962 5.2655 0
M  V30 34 H -3.741 -4.0959 0.5702 0
M  V30 35 H -2.4348 -2.0551 -1.9427 0
M  V30 36 H -1.1171 -3.2252 -2.1798 0
M  V30 37 H -2.779 -3.792 -1.985 0
M  V30 38 H -0.5913 -0.8626 -1.1034 0
M  V30 39 H 2.3942 -0.8329 -1.3274 0
M  V30 40 H 1.9059 0.7685 -3.1297 0
M  V30 41 H 0.1382 2.9931 -0.3115 0
M  V30 42 H 1.2106 3.1423 -4.0363 0
M  V30 43 H 0.3396 4.6388 -3.6893 0
M  V30 44 H -0.4534 3.3614 -4.6023 0
M  V30 45 H -1.5569 4.6574 -1.9295 0
M  V30 46 H -2.0953 3.1384 -1.2087 0
M  V30 47 H -2.3814 3.4577 -2.9278 0
M  V30 48 H 1.5901 6.0476 -0.6601 0
M  V30 END ATOM
M  V30 BEGIN BOND
M  V30 1 1 1 2
M  V30 2 2 2 3
M  V30 3 1 2 4
M  V30 4 1 3 5
M  V30 5 1 3 6
M  V30 6 2 4 7
M  V30 7 1 5 8
M  V30 8 1 5 9
M  V30 9 1 6 10
M  V30 10 2 6 11
M  V30 11 2 8 12
M  V30 12 2 9 13
M  V30 13 1 9 14
M  V30 14 1 13 15
M  V30 15 2 14 16
M  V30 16 1 14 17
M  V30 17 1 17 18
M  V30 18 1 18 19
M  V30 19 1 18 20
M  V30 20 2 19 21
M  V30 21 1 19 22
M  V30 22 1 20 23
M  V30 23 1 22 24
M  V30 24 1 23 25
M  V30 25 1 24 26
M  V30 26 1 25 27
M  V30 27 1 25 28
M  V30 28 2 26 29
M  V30 29 1 26 30
M  V30 30 1 7 11
M  V30 31 1 12 13
M  V30 32 1 20 22
M  V30 33 1 24 25
M  V30 34 1 4 31
M  V30 35 1 7 32
M  V30 36 1 11 33
M  V30 37 1 12 34
M  V30 38 1 15 35
M  V30 39 1 15 36
M  V30 40 1 15 37
M  V30 41 1 17 38
M  V30 42 1 18 39
M  V30 43 1 20 40
M  V30 44 1 24 41
M  V30 45 1 27 42
M  V30 46 1 27 43
M  V30 47 1 27 44
M  V30 48 1 28 45
M  V30 49 1 28 46
M  V30 50 1 28 47
M  V30 51 1 30 48
M  V30 END BOND
M  V30 BEGIN COLLECTION
M  V30 MDLV30/STEABS ATOMS=(3 18 20 24)
M  V30 END COLLECTION
M  V30 END CTAB
M  END
>  <Column 1>
2023

>  <level_0>
2199

>  <index>
2199

>  <Unnamed: 0>
2199

>  <NO.>
2211

>  <Name>
prazocillin

>  <IUPAC_name>
(2s-5r-6r)-6-[[2-(2-6-dichlorophenyl)-4-methylpyrazole-3-carbonyl]amino]-3-3-dimethyl-7-oxo-4-thia-1-azabicyclo[3.2.0]heptane-2-carboxylic acid

>  <SMILES>
Cc1cnn(-c2c(Cl)cccc2Cl)c1C(=O)N[C@@H]1C(=O)N2[C@@H](C(=O)O)C(C)(C)S[C@H]12

>  <CID>
65622

>  <logBB>


>  <BBB+/BBB->
BBB-

>  <Inchi>
InChI=1S/C19H18Cl2N4O4S/c1-8-7-22-25(13-9(20)5-4-6-10(13)21)12(8)15(26)23-11-16(27)24-14(18(28)29)19(2-3)30-17(11)24/h4-7-11-14-17H-1-3H3-(H-23-26)(H-28-29)/t11--14+-17-/m1/s1

>  <threshold>
-1

>  <reference>
R1|R24|R27|R30|

>  <group>
B

>  <Class>
1

>  <ABC>
23.87

>  <ABCGG>
20.65

>  <nAcid>
1

>  <nBase>
0

>  <nAromAtom>
11

>  <nAromBond>
11

>  <nAtom>
48

>  <nHeavyAtom>
30

>  <nSpiro>
0

>  <nBridgehead>
0

>  <nHetero>
11

>  <nN>
4

>  <nO>
4

>  <nF>
0

>  <BalabanJ>
1.46

>  <BertzCT>
1066.23

>  <nBonds>
51

>  <nBondsO>
33

>  <nBondsS>
37

>  <nBondsD>
3

>  <nBondsT>
0

>  <nBondsA>
11

>  <nBondsM>
14

>  <nBondsKS>
43

>  <nBondsKD>
8

>  <RNCG>
0.17

>  <RPCG>
0.11

>  <FCSP3>
0.37

>  <SZ>
40.33

>  <Sm>
39.08

>  <Sv>
33.14

>  <Sse>
49.57

>  <Sp>
35.09

>  <Si>
53.96

>  <MZ>
0.84

>  <Mm>
0.81

>  <Mv>
0.69

>  <Mse>
1.03

>  <Mp>
0.73

>  <Mi>
1.12

>  <NsCH3>
3

>  <NdCH2>
0

>  <NssCH2>
0

>  <NtCH>
0

>  <NdsCH>
0

>  <NaaCH>
4

>  <NsssCH>
3

>  <NddC>
0

>  <NtsC>
0

>  <NdssC>
3

>  <NaasC>
5

>  <NaaaC>
0

>  <NssssC>
1

>  <NsNH3>
0

>  <NsNH2>
0

>  <NssNH2>
0

>  <NdNH>
0

>  <NssNH>
1

>  <NaaNH>
0

>  <NtN>
0

>  <NsssNH>
0

>  <NdsN>
0

>  <NaaN>
1

>  <NsssN>
1

>  <NddsN>
0

>  <NaasN>
1

>  <NssssN>
0

>  <NsOH>
1

>  <NdO>
3

>  <NssO>
0

>  <NaaO>
0

>  <NsF>
0

>  <NsSiH3>
0

>  <NssSiH2>
0

>  <NsssSiH>
0

>  <NssssSi>
0

>  <NsPH2>
0

>  <NssPH>
0

>  <NsssP>
0

>  <NdsssP>
0

>  <NsssssP>
0

>  <NsSH>
0

>  <NdS>
0

>  <NssS>
1

>  <NaaS>
0

>  <NdssS>
0

>  <NddssS>
0

>  <NsCl>
2

>  <NsBr>
0

>  <NsI>
0

>  <fragCpx>
219.11

>  <fMF>
0.42

>  <nHBAcc>
6

>  <nHBDon>
2

>  <Kier1>
23.17

>  <Kier2>
8.41

>  <Lipinski>
1

>  <GhoseFilter>
1

>  <FilterItLogS>
-3.96

>  <VMcGowan>
304.96

>  <LabuteASA>
186.05

>  <PEOE_VSA1>
15.32

>  <PEOE_VSA2>
9.59

>  <PEOE_VSA3>
9.48

>  <PEOE_VSA4>
5.1

>  <PEOE_VSA5>
11.76

>  <PEOE_VSA6>
29.27

>  <PEOE_VSA7>
32.9

>  <PEOE_VSA8>
10.31

>  <PEOE_VSA9>
16.24

>  <PEOE_VSA10>
28.84

>  <PEOE_VSA11>
0

>  <PEOE_VSA12>
5.91

>  <PEOE_VSA13>
5.91

>  <SMR_VSA1>
19.49

>  <SMR_VSA2>
0

>  <SMR_VSA3>
20

>  <SMR_VSA4>
0

>  <SMR_VSA5>
42.98

>  <SMR_VSA6>
0

>  <SMR_VSA7>
45.7

>  <SMR_VSA8>
0

>  <SMR_VSA9>
5.69

>  <SlogP_VSA1>
5.32

>  <SlogP_VSA2>
59.78

>  <SlogP_VSA3>
9.59

>  <SlogP_VSA4>
6.92

>  <SlogP_VSA5>
29.9

>  <SlogP_VSA6>
24.4

>  <SlogP_VSA7>
10.05

>  <SlogP_VSA8>
5.69

>  <SlogP_VSA9>
0

>  <SlogP_VSA10>
0

>  <SlogP_VSA11>
0

>  <EState_VSA1>
39.99

>  <EState_VSA2>
5.69

>  <EState_VSA3>
21.3

>  <EState_VSA4>
0

>  <EState_VSA5>
27.54

>  <EState_VSA6>
38.97

>  <EState_VSA7>
0

>  <EState_VSA8>
10.42

>  <EState_VSA9>
23.2

>  <EState_VSA10>
19.49

>  <VSA_EState1>
0.68

>  <VSA_EState2>
38.75

>  <VSA_EState3>
16.69

>  <VSA_EState4>
1.14

>  <VSA_EState5>
-2

>  <VSA_EState6>
3.19

>  <VSA_EState7>
1.51

>  <VSA_EState8>
5.27

>  <VSA_EState9>
0

>  <apol>
58.6

>  <bpol>
28.13

>  <nRing>
4

>  <nHRing>
3

>  <naRing>
2

>  <naHRing>
1

>  <nARing 2>
2

>  <nAHRing 2>
2

>  <nFRing>
1

>  <nFHRing>
1

>  <nFaRing>
0

>  <nFaHRing>
0

>  <nFARing 2>
1

>  <nFAHRing 2>
1

>  <nRot>
4

>  <SLogP>
2.73

>  <SMR>
113.3

>  <TopoPSA(NO)>
104.53

>  <TopoPSA>
129.83

>  <JGI1>
0.23

>  <JGI2>
0.1

>  <JGI3>
0.09

>  <JGI4>
0.05

>  <JGI5>
0.03

>  <Diameter>
13

>  <Radius>
7

>  <TMWC10>
143.02

>  <TSRW10>
83.38

>  <MW>
468.04

>  <AMW>
9.75

>  <WPath>
2402

>  <WPol>
53

>  <Zagreb1>
170

>  <Zagreb2>
211

>  <mZagreb2>
6.29

>  <yes>


>  <nAR-cont>
1

>  <nHA-cont>
0.74523694

>  <MWHBN>
0.369784328

>  <MWHBN-cont>
0.594702903

>  <TPSA-cont>
0

>  <pka_cont>
0.97

>  <yes.1>


>  <BBB_SCORE>
3.122291293

>  <MMFF94 Energy>
14.188

$$$$
Compound 1669
Actelion Java MolfileCreator 2.0

  0  0  0  0  0  0              0 V3000
M  V30 BEGIN CTAB
M  V30 COUNTS 34 37 0 0 0
M  V30 BEGIN ATOM
M  V30 1 S -0.812 -2.1124 -4.2282 0
M  V30 2 C 0.371 -1.4488 -3.1702 0
M  V30 3 C -2.012 -2.0458 -3.0251 0
M  V30 4 C -0.2064 -1.1069 -1.9528 0
M  V30 5 C 1.7319 -1.2638 -3.46 0
M  V30 6 C -1.5671 -1.5339 -1.8151 0
M  V30 7 C 0.6515 -0.4364 -0.9907 0
M  V30 8 C 2.5755 -0.7242 -2.492 0
M  V30 9 C -2.4528 -1.5558 -0.6207 0
M  V30 10 C 2.0027 -0.3166 -1.2923 0
M  V30 11 C 0.3911 0.2188 0.2398 0
M  V30 12 N 2.5953 0.2771 -0.2009 0
M  V30 13 C 1.6382 0.6044 0.7111 0
M  V30 14 C -0.8516 0.5693 0.9989 0
M  V30 15 C 1.8855 1.3582 1.9697 0
M  V30 16 N -0.5965 1.6726 1.9671 0
M  V30 17 C 0.5876 1.3903 2.8074 0
M  V30 18 C -1.7795 1.8906 2.7962 0
M  V30 19 H -2.9978 -2.431 -3.2491 0
M  V30 20 H 2.1338 -1.5611 -4.4248 0
M  V30 21 H 3.6343 -0.596 -2.6915 0
M  V30 22 H -1.9062 -1.8866 0.2647 0
M  V30 23 H -2.9177 -0.5821 -0.4551 0
M  V30 24 H -3.2706 -2.2744 -0.7555 0
M  V30 25 H 3.5793 0.4948 -0.1282 0
M  V30 26 H -1.6131 0.9192 0.2968 0
M  V30 27 H -1.2085 -0.3138 1.5382 0
M  V30 28 H 2.1882 2.3825 1.7206 0
M  V30 29 H 2.6922 0.8973 2.5496 0
M  V30 30 H 0.7035 2.1648 3.5758 0
M  V30 31 H 0.4601 0.4331 3.3316 0
M  V30 32 H -1.6277 2.7448 3.4654 0
M  V30 33 H -2.648 2.1316 2.173 0
M  V30 34 H -2.0253 1.0145 3.4072 0
M  V30 END ATOM
M  V30 BEGIN BOND
M  V30 1 1 1 2
M  V30 2 1 1 3
M  V30 3 2 2 4
M  V30 4 1 2 5
M  V30 5 2 3 6
M  V30 6 1 4 7
M  V30 7 2 5 8
M  V30 8 1 6 9
M  V30 9 2 7 10
M  V30 10 1 7 11
M  V30 11 1 10 12
M  V30 12 2 11 13
M  V30 13 1 11 14
M  V30 14 1 13 15
M  V30 15 1 14 16
M  V30 16 1 15 17
M  V30 17 1 16 18
M  V30 18 1 4 6
M  V30 19 1 8 10
M  V30 20 1 12 13
M  V30 21 1 16 17
M  V30 22 1 3 19
M  V30 23 1 5 20
M  V30 24 1 8 21
M  V30 25 1 9 22
M  V30 26 1 9 23
M  V30 27 1 9 24
M  V30 28 1 12 25
M  V30 29 1 14 26
M  V30 30 1 14 27
M  V30 31 1 15 28
M  V30 32 1 15 29
M  V30 33 1 17 30
M  V30 34 1 17 31
M  V30 35 1 18 32
M  V30 36 1 18 33
M  V30 37 1 18 34
M  V30 END BOND
M  V30 END CTAB
M  END
>  <Column 1>
2024

>  <level_0>
2200

>  <index>
2200

>  <Unnamed: 0>
2200

>  <NO.>
2212

>  <Name>
tienocarbine

>  <IUPAC_name>
3-14-dimethyl-5-thia-10-14-diazatetracyclo[7.7.0.02-6.011-16]hexadeca-1(9)-2(6)-3-7-11(16)-pentaene

>  <SMILES>
Cc1csc2ccc3[nH]c4c(c3c12)CN(C)CC4

>  <CID>
71140

>  <logBB>


>  <BBB+/BBB->
BBB+

>  <Inchi>
InChI=1S/C15H16N2S/c1-9-8-18-13-4-3-12-15(14(9)13)10-7-17(2)6-5-11(10)16-12/h3-4-8-16H-5-7H2-1-2H3

>  <threshold>
-1

>  <reference>
R1|R13|R19|R6|R24|R27|R27|R27|R30|R30|

>  <group>
B

>  <Class>
1

>  <ABC>
14.83

>  <ABCGG>
12.47

>  <nAcid>
0

>  <nBase>
1

>  <nAromAtom>
12

>  <nAromBond>
14

>  <nAtom>
34

>  <nHeavyAtom>
18

>  <nSpiro>
0

>  <nBridgehead>
0

>  <nHetero>
3

>  <nN>
2

>  <nO>
0

>  <nF>
0

>  <BalabanJ>
1.62

>  <BertzCT>
750.61

>  <nBonds>
37

>  <nBondsO>
21

>  <nBondsS>
23

>  <nBondsD>
0

>  <nBondsT>
0

>  <nBondsA>
14

>  <nBondsM>
14

>  <nBondsKS>
32

>  <nBondsKD>
5

>  <RNCG>
0.37

>  <RPCG>
0.17

>  <FCSP3>
0.33

>  <SZ>
22.67

>  <Sm>
21.34

>  <Sv>
22.04

>  <Sse>
33.51

>  <Sp>
24.44

>  <Si>
37.82

>  <MZ>
0.67

>  <Mm>
0.63

>  <Mv>
0.65

>  <Mse>
0.99

>  <Mp>
0.72

>  <Mi>
1.11

>  <NsCH3>
2

>  <NdCH2>
0

>  <NssCH2>
3

>  <NtCH>
0

>  <NdsCH>
0

>  <NaaCH>
3

>  <NsssCH>
0

>  <NddC>
0

>  <NtsC>
0

>  <NdssC>
0

>  <NaasC>
3

>  <NaaaC>
4

>  <NssssC>
0

>  <NsNH3>
0

>  <NsNH2>
0

>  <NssNH2>
0

>  <NdNH>
0

>  <NssNH>
0

>  <NaaNH>
1

>  <NtN>
0

>  <NsssNH>
0

>  <NdsN>
0

>  <NaaN>
0

>  <NsssN>
1

>  <NddsN>
0

>  <NaasN>
0

>  <NssssN>
0

>  <NsOH>
0

>  <NdO>
0

>  <NssO>
0

>  <NaaO>
0

>  <NsF>
0

>  <NsSiH3>
0

>  <NssSiH2>
0

>  <NsssSiH>
0

>  <NssssSi>
0

>  <NsPH2>
0

>  <NssPH>
0

>  <NsssP>
0

>  <NdsssP>
0

>  <NsssssP>
0

>  <NsSH>
0

>  <NdS>
0

>  <NssS>
0

>  <NaaS>
1

>  <NdssS>
0

>  <NddssS>
0

>  <NsCl>
0

>  <NsBr>
0

>  <NsI>
0

>  <fragCpx>
135.03

>  <fMF>
0.47

>  <nHBAcc>
2

>  <nHBDon>
1

>  <Kier1>
11.8

>  <Kier2>
4.25

>  <Lipinski>
1

>  <GhoseFilter>
1

>  <FilterItLogS>
-4.72

>  <VMcGowan>
193.58

>  <LabuteASA>
110.22

>  <PEOE_VSA1>
9.88

>  <PEOE_VSA2>
0

>  <PEOE_VSA3>
0

>  <PEOE_VSA4>
0

>  <PEOE_VSA5>
11.34

>  <PEOE_VSA6>
0

>  <PEOE_VSA7>
42.61

>  <PEOE_VSA8>
46.19

>  <PEOE_VSA9>
0

>  <PEOE_VSA10>
0

>  <PEOE_VSA11>
0

>  <PEOE_VSA12>
0

>  <PEOE_VSA13>
0

>  <SMR_VSA1>
0

>  <SMR_VSA2>
0

>  <SMR_VSA3>
9.88

>  <SMR_VSA4>
0

>  <SMR_VSA5>
19.89

>  <SMR_VSA6>
13.59

>  <SMR_VSA7>
34.33

>  <SMR_VSA8>
0

>  <SMR_VSA9>
0

>  <SlogP_VSA1>
0

>  <SlogP_VSA2>
23.48

>  <SlogP_VSA3>
12.97

>  <SlogP_VSA4>
6.92

>  <SlogP_VSA5>
16.82

>  <SlogP_VSA6>
17.51

>  <SlogP_VSA7>
0

>  <SlogP_VSA8>
20.99

>  <SlogP_VSA9>
0

>  <SlogP_VSA10>
0

>  <SlogP_VSA11>
0

>  <EState_VSA1>
0

>  <EState_VSA2>
0

>  <EState_VSA3>
0

>  <EState_VSA4>
19.51

>  <EState_VSA5>
37.81

>  <EState_VSA6>
0

>  <EState_VSA7>
11.34

>  <EState_VSA8>
41.37

>  <EState_VSA9>
0

>  <EState_VSA10>
0

>  <VSA_EState1>
1.41

>  <VSA_EState2>
6.04

>  <VSA_EState3>
5.2

>  <VSA_EState4>
5.69

>  <VSA_EState5>
0

>  <VSA_EState6>
4.49

>  <VSA_EState7>
1.14

>  <VSA_EState8>
4.46

>  <VSA_EState9>
2.21

>  <apol>
40.82

>  <bpol>
20.79

>  <nRing>
4

>  <nHRing>
3

>  <naRing>
3

>  <naHRing>
2

>  <nARing 2>
1

>  <nAHRing 2>
1

>  <nFRing>
1

>  <nFHRing>
1

>  <nFaRing>
0

>  <nFaHRing>
0

>  <nFARing 2>
1

>  <nFAHRing 2>
1

>  <nRot>
0

>  <SLogP>
3.68

>  <SMR>
78.46

>  <TopoPSA(NO)>
19.03

>  <TopoPSA>
47.27

>  <JGI1>
0.17

>  <JGI2>
0.07

>  <JGI3>
0.05

>  <JGI4>
0.04

>  <JGI5>
0.03

>  <Diameter>
7

>  <Radius>
4

>  <TMWC10>
114.52

>  <TSRW10>
68.31

>  <MW>
256.1

>  <AMW>
7.53

>  <WPath>
523

>  <WPol>
31

>  <Zagreb1>
106

>  <Zagreb2>
132

>  <mZagreb2>
3.75

>  <yes>


>  <nAR-cont>
0.816016

>  <nHA-cont>
0.991161285

>  <MWHBN>
0.18746339

>  <MWHBN-cont>
0.993925269

>  <TPSA-cont>
0.670026047

>  <pka_cont>
0.97

>  <yes.1>


>  <BBB_SCORE>
5.123117282

>  <MMFF94 Energy>
78.277

$$$$
Compound 1670
Actelion Java MolfileCreator 2.0

  0  0  0  0  0  0              0 V3000
M  V30 BEGIN CTAB
M  V30 COUNTS 56 60 0 0 0
M  V30 BEGIN ATOM
M  V30 1 F 6.5282 -4.6712 -4.9133 0
M  V30 2 C 5.7372 -4.0305 -4.0418 0
M  V30 3 C 4.588 -3.4002 -4.5131 0
M  V30 4 C 6.0931 -4.0174 -2.6933 0
M  V30 5 C 3.8193 -2.7574 -3.549 0
M  V30 6 C 5.2931 -3.3586 -1.7485 0
M  V30 7 O 2.6633 -2.0788 -3.769 0
M  V30 8 C 4.1264 -2.7144 -2.1991 0
M  V30 9 N 2.1855 -1.575 -2.5717 0
M  V30 10 C 3.0643 -1.9587 -1.6334 0
M  V30 11 C 2.86 -1.5818 -0.1957 0
M  V30 12 C 2.9573 -0.0655 0.0207 0
M  V30 13 C 1.5369 -2.1237 0.3635 0
M  V30 14 C 2.6945 0.2945 1.4836 0
M  V30 15 C 1.3259 -1.6695 1.8085 0
M  V30 16 N 1.4155 -0.2158 2.0011 0
M  V30 17 C 0.2706 0.5367 1.4509 0
M  V30 18 C -1.0282 0.3332 2.2511 0
M  V30 19 C -2.1751 1.1152 1.6567 0
M  V30 20 C -2.2943 2.5395 2.0778 0
M  V30 21 C -3.1059 0.637 0.812 0
M  V30 22 O -1.4478 3.024 2.831 0
M  V30 23 N -3.3773 3.2424 1.5703 0
M  V30 24 N -4.1525 1.3803 0.3338 0
M  V30 25 C -3.0889 -0.7711 0.2716 0
M  V30 26 C -4.2663 2.617 0.7072 0
M  V30 27 C -3.5466 4.5729 1.9355 0
M  V30 28 C -5.4149 3.4421 0.1905 0
M  V30 29 C -4.566 5.307 1.4782 0
M  V30 30 C -5.5238 4.7214 0.5816 0
M  V30 31 C -6.3804 2.7801 -0.7409 0
M  V30 32 H 4.3142 -3.4112 -5.5591 0
M  V30 33 H 7.0015 -4.5256 -2.381 0
M  V30 34 H 5.5746 -3.3509 -0.6999 0
M  V30 35 H 3.6686 -2.0439 0.3883 0
M  V30 36 H 3.9563 0.2876 -0.2645 0
M  V30 37 H 2.2485 0.4657 -0.6268 0
M  V30 38 H 0.69 -1.8022 -0.2551 0
M  V30 39 H 1.5411 -3.2204 0.3267 0
M  V30 40 H 2.7537 1.3821 1.6147 0
M  V30 41 H 3.5047 -0.1132 2.1023 0
M  V30 42 H 2.0895 -2.1432 2.44 0
M  V30 43 H 0.3747 -2.0624 2.1816 0
M  V30 44 H 0.1029 0.2939 0.395 0
M  V30 45 H 0.5077 1.6084 1.4829 0
M  V30 46 H -1.296 -0.7263 2.3049 0
M  V30 47 H -0.8715 0.6318 3.2958 0
M  V30 48 H -2.1148 -1.2583 0.3635 0
M  V30 49 H -3.8341 -1.3816 0.7915 0
M  V30 50 H -3.3339 -0.7694 -0.7966 0
M  V30 51 H -2.8107 4.997 2.6142 0
M  V30 52 H -4.6872 6.3447 1.7709 0
M  V30 53 H -6.3366 5.3511 0.2324 0
M  V30 54 H -7.1747 3.4652 -1.0564 0
M  V30 55 H -5.8679 2.4318 -1.6435 0
M  V30 56 H -6.8583 1.923 -0.2553 0
M  V30 END ATOM
M  V30 BEGIN BOND
M  V30 1 1 1 2
M  V30 2 2 2 3
M  V30 3 1 2 4
M  V30 4 1 3 5
M  V30 5 2 4 6
M  V30 6 1 5 7
M  V30 7 2 5 8
M  V30 8 1 7 9
M  V30 9 1 8 10
M  V30 10 1 10 11
M  V30 11 1 11 12
M  V30 12 1 11 13
M  V30 13 1 12 14
M  V30 14 1 13 15
M  V30 15 1 14 16
M  V30 16 1 16 17
M  V30 17 1 17 18
M  V30 18 1 18 19
M  V30 19 1 19 20
M  V30 20 2 19 21
M  V30 21 2 20 22
M  V30 22 1 20 23
M  V30 23 1 21 24
M  V30 24 1 21 25
M  V30 25 1 23 26
M  V30 26 1 23 27
M  V30 27 1 26 28
M  V30 28 2 27 29
M  V30 29 2 28 30
M  V30 30 1 28 31
M  V30 31 1 6 8
M  V30 32 2 9 10
M  V30 33 1 15 16
M  V30 34 2 24 26
M  V30 35 1 29 30
M  V30 36 1 3 32
M  V30 37 1 4 33
M  V30 38 1 6 34
M  V30 39 1 11 35
M  V30 40 1 12 36
M  V30 41 1 12 37
M  V30 42 1 13 38
M  V30 43 1 13 39
M  V30 44 1 14 40
M  V30 45 1 14 41
M  V30 46 1 15 42
M  V30 47 1 15 43
M  V30 48 1 17 44
M  V30 49 1 17 45
M  V30 50 1 18 46
M  V30 51 1 18 47
M  V30 52 1 25 48
M  V30 53 1 25 49
M  V30 54 1 25 50
M  V30 55 1 27 51
M  V30 56 1 29 52
M  V30 57 1 30 53
M  V30 58 1 31 54
M  V30 59 1 31 55
M  V30 60 1 31 56
M  V30 END BOND
M  V30 END CTAB
M  END
>  <Column 1>
2025

>  <level_0>
2201

>  <index>
2201

>  <Unnamed: 0>
2201

>  <NO.>
2213

>  <Name>
ocaperidone

>  <IUPAC_name>
3-[2-[4-(6-fluoro-1-2-benzoxazol-3-yl)piperidin-1-yl]ethyl]-2-9-dimethylpyrido[1-2-a]pyrimidin-4-one

>  <SMILES>
Cc1nc2c(C)cccn2c(=O)c1CCN1CCC(c2noc3cc(F)ccc23)CC1

>  <CID>
71351

>  <logBB>


>  <BBB+/BBB->
BBB+

>  <Inchi>
InChI=1S/C24H25FN4O2/c1-15-4-3-10-29-23(15)26-16(2)19(24(29)30)9-13-28-11-7-17(8-12-28)22-20-6-5-18(25)14-21(20)31-27-22/h3-6-10-14-17H-7-9-11-13H2-1-2H3

>  <threshold>
-1

>  <reference>
R1|R13|R19|R6|R27|R27|R27|R30|R30|

>  <group>
B

>  <Class>
1

>  <ABC>
24.86

>  <ABCGG>
17.81

>  <nAcid>
0

>  <nBase>
1

>  <nAromAtom>
19

>  <nAromBond>
21

>  <nAtom>
56

>  <nHeavyAtom>
31

>  <nSpiro>
0

>  <nBridgehead>
0

>  <nHetero>
7

>  <nN>
4

>  <nO>
2

>  <nF>
1

>  <BalabanJ>
1.09

>  <BertzCT>
1318.65

>  <nBonds>
60

>  <nBondsO>
35

>  <nBondsS>
38

>  <nBondsD>
1

>  <nBondsT>
0

>  <nBondsA>
21

>  <nBondsM>
22

>  <nBondsKS>
51

>  <nBondsKD>
9

>  <RNCG>
0.18

>  <RPCG>
0.13

>  <FCSP3>
0.38

>  <SZ>
37

>  <Sm>
35.01

>  <Sv>
35.88

>  <Sse>
56.37

>  <Sp>
37.91

>  <Si>
63.32

>  <MZ>
0.66

>  <Mm>
0.63

>  <Mv>
0.64

>  <Mse>
1.01

>  <Mp>
0.68

>  <Mi>
1.13

>  <NsCH3>
2

>  <NdCH2>
0

>  <NssCH2>
6

>  <NtCH>
0

>  <NdsCH>
0

>  <NaaCH>
6

>  <NsssCH>
1

>  <NddC>
0

>  <NtsC>
0

>  <NdssC>
0

>  <NaasC>
5

>  <NaaaC>
3

>  <NssssC>
0

>  <NsNH3>
0

>  <NsNH2>
0

>  <NssNH2>
0

>  <NdNH>
0

>  <NssNH>
0

>  <NaaNH>
0

>  <NtN>
0

>  <NsssNH>
0

>  <NdsN>
0

>  <NaaN>
2

>  <NsssN>
1

>  <NddsN>
0

>  <NaasN>
1

>  <NssssN>
0

>  <NsOH>
0

>  <NdO>
1

>  <NssO>
0

>  <NaaO>
1

>  <NsF>
1

>  <NsSiH3>
0

>  <NssSiH2>
0

>  <NsssSiH>
0

>  <NssssSi>
0

>  <NsPH2>
0

>  <NssPH>
0

>  <NsssP>
0

>  <NdsssP>
0

>  <NsssssP>
0

>  <NsSH>
0

>  <NdS>
0

>  <NssS>
0

>  <NaaS>
0

>  <NdssS>
0

>  <NddssS>
0

>  <NsCl>
0

>  <NsBr>
0

>  <NsI>
0

>  <fragCpx>
295.07

>  <fMF>
0.48

>  <nHBAcc>
6

>  <nHBDon>
0

>  <Kier1>
22.78

>  <Kier2>
9.7

>  <Lipinski>
1

>  <GhoseFilter>
1

>  <FilterItLogS>
-6.8

>  <VMcGowan>
309.44

>  <LabuteASA>
178.85

>  <PEOE_VSA1>
9.42

>  <PEOE_VSA2>
9.2

>  <PEOE_VSA3>
9.37

>  <PEOE_VSA4>
0

>  <PEOE_VSA5>
0

>  <PEOE_VSA6>
11.22

>  <PEOE_VSA7>
69.96

>  <PEOE_VSA8>
41.37

>  <PEOE_VSA9>
5.69

>  <PEOE_VSA10>
11.46

>  <PEOE_VSA11>
5.58

>  <PEOE_VSA12>
0

>  <PEOE_VSA13>
5.56

>  <SMR_VSA1>
8.91

>  <SMR_VSA2>
0

>  <SMR_VSA3>
19.44

>  <SMR_VSA4>
0

>  <SMR_VSA5>
39.03

>  <SMR_VSA6>
19.63

>  <SMR_VSA7>
75.21

>  <SMR_VSA8>
0

>  <SMR_VSA9>
0

>  <SlogP_VSA1>
5.56

>  <SlogP_VSA2>
39.08

>  <SlogP_VSA3>
6.42

>  <SlogP_VSA4>
19.66

>  <SlogP_VSA5>
41.27

>  <SlogP_VSA6>
45.85

>  <SlogP_VSA7>
0

>  <SlogP_VSA8>
16.62

>  <SlogP_VSA9>
0

>  <SlogP_VSA10>
4.39

>  <SlogP_VSA11>
0

>  <EState_VSA1>
0

>  <EState_VSA2>
11.38

>  <EState_VSA3>
17.92

>  <EState_VSA4>
66.02

>  <EState_VSA5>
12.13

>  <EState_VSA6>
16.66

>  <EState_VSA7>
25.98

>  <EState_VSA8>
15.04

>  <EState_VSA9>
4.52

>  <EState_VSA10>
9.18

>  <VSA_EState1>
20.4

>  <VSA_EState2>
20.06

>  <VSA_EState3>
5.13

>  <VSA_EState4>
4.8

>  <VSA_EState5>
0

>  <VSA_EState6>
8.46

>  <VSA_EState7>
4.41

>  <VSA_EState8>
6.59

>  <VSA_EState9>
0

>  <apol>
63.31

>  <bpol>
33.36

>  <nRing>
5

>  <nHRing>
4

>  <naRing>
4

>  <naHRing>
3

>  <nARing 2>
1

>  <nAHRing 2>
1

>  <nFRing>
2

>  <nFHRing>
2

>  <nFaRing>
2

>  <nFaHRing>
2

>  <nFARing 2>
0

>  <nFAHRing 2>
0

>  <nRot>
4

>  <SLogP>
4.01

>  <SMR>
117.02

>  <TopoPSA(NO)>
63.64

>  <TopoPSA>
63.64

>  <JGI1>
0.17

>  <JGI2>
0.09

>  <JGI3>
0.05

>  <JGI4>
0.05

>  <JGI5>
0.03

>  <Diameter>
17

>  <Radius>
9

>  <TMWC10>
144.58

>  <TSRW10>
81.35

>  <MW>
420.2

>  <AMW>
7.5

>  <WPath>
3047

>  <WPol>
54

>  <Zagreb1>
172

>  <Zagreb2>
208

>  <mZagreb2>
6.64

>  <yes>


>  <nAR-cont>
0.816016

>  <nHA-cont>
0.702745138

>  <MWHBN>
0.29270034

>  <MWHBN-cont>
0.861985628

>  <TPSA-cont>
0.555753282

>  <pka_cont>
0.97

>  <yes.1>


>  <BBB_SCORE>
4.408246144

>  <MMFF94 Energy>
18.163

$$$$
Compound 1671
Actelion Java MolfileCreator 2.0

  0  0  0  0  0  0              0 V3000
M  V30 BEGIN CTAB
M  V30 COUNTS 30 32 0 0 0
M  V30 BEGIN ATOM
M  V30 1 Cl -0.0812 -2.1947 2.2761 0
M  V30 2 C 1.3717 -1.3513 1.8735 0
M  V30 3 C 1.4239 -0.4357 0.8113 0
M  V30 4 C 2.5186 -1.611 2.6269 0
M  V30 5 N 0.276 -0.1414 0.0282 0
M  V30 6 C 2.625 0.2265 0.5231 0
M  V30 7 C 3.7147 -0.9554 2.3286 0
M  V30 8 C -0.5397 0.9012 0.4701 0
M  V30 9 C -0.0202 -0.863 -1.1157 0
M  V30 10 C 3.7673 -0.037 1.28 0
M  V30 11 O -0.3191 1.5998 1.458 0
M  V30 12 C -1.7404 1.1641 -0.3429 0
M  V30 13 N -1.061 -0.6383 -1.855 0
M  V30 14 C 0.9155 -1.9717 -1.545 0
M  V30 15 C -1.9449 0.3779 -1.4745 0
M  V30 16 C -2.6448 2.1737 0.0096 0
M  V30 17 C -3.0761 0.6132 -2.2597 0
M  V30 18 C -3.7701 2.3983 -0.7822 0
M  V30 19 C -3.9857 1.6178 -1.9173 0
M  V30 20 H 2.4864 -2.3192 3.4512 0
M  V30 21 H 2.6724 0.9555 -0.2822 0
M  V30 22 H 4.6048 -1.155 2.921 0
M  V30 23 H 4.6974 0.4812 1.0581 0
M  V30 24 H 1.9135 -1.5687 -1.7368 0
M  V30 25 H 0.9791 -2.7372 -0.7676 0
M  V30 26 H 0.5506 -2.442 -2.4631 0
M  V30 27 H -2.4742 2.78 0.8964 0
M  V30 28 H -3.248 0.0057 -3.1447 0
M  V30 29 H -4.4775 3.1794 -0.5142 0
M  V30 30 H -4.8623 1.7884 -2.5376 0
M  V30 END ATOM
M  V30 BEGIN BOND
M  V30 1 1 1 2
M  V30 2 2 2 3
M  V30 3 1 2 4
M  V30 4 1 3 5
M  V30 5 1 3 6
M  V30 6 2 4 7
M  V30 7 1 5 8
M  V30 8 1 5 9
M  V30 9 2 6 10
M  V30 10 2 8 11
M  V30 11 1 8 12
M  V30 12 2 9 13
M  V30 13 1 9 14
M  V30 14 2 12 15
M  V30 15 1 12 16
M  V30 16 1 15 17
M  V30 17 2 16 18
M  V30 18 2 17 19
M  V30 19 1 7 10
M  V30 20 1 13 15
M  V30 21 1 18 19
M  V30 22 1 4 20
M  V30 23 1 6 21
M  V30 24 1 7 22
M  V30 25 1 10 23
M  V30 26 1 14 24
M  V30 27 1 14 25
M  V30 28 1 14 26
M  V30 29 1 16 27
M  V30 30 1 17 28
M  V30 31 1 18 29
M  V30 32 1 19 30
M  V30 END BOND
M  V30 END CTAB
M  END
>  <Column 1>
2026

>  <level_0>
2202

>  <index>
2202

>  <Unnamed: 0>
2202

>  <NO.>
2214

>  <Name>
mecloqualone

>  <IUPAC_name>
3-(2-chlorophenyl)-2-methylquinazolin-4-one

>  <SMILES>
Cc1nc2ccccc2c(=O)n1-c1ccccc1Cl

>  <CID>
9567

>  <logBB>


>  <BBB+/BBB->
BBB+

>  <Inchi>
InChI=1S/C15H11ClN2O/c1-10-17-13-8-4-2-6-11(13)15(19)18(10)14-9-5-3-7-12(14)16/h2-9H-1H3

>  <threshold>
-1

>  <reference>
R1|R13|R19|R6|R24|R27|R27|R27|R30|R30|

>  <group>
B

>  <Class>
1

>  <ABC>
14.93

>  <ABCGG>
12.37

>  <nAcid>
0

>  <nBase>
0

>  <nAromAtom>
16

>  <nAromBond>
17

>  <nAtom>
30

>  <nHeavyAtom>
19

>  <nSpiro>
0

>  <nBridgehead>
0

>  <nHetero>
4

>  <nN>
2

>  <nO>
1

>  <nF>
0

>  <BalabanJ>
1.76

>  <BertzCT>
823.73

>  <nBonds>
32

>  <nBondsO>
21

>  <nBondsS>
14

>  <nBondsD>
1

>  <nBondsT>
0

>  <nBondsA>
17

>  <nBondsM>
18

>  <nBondsKS>
24

>  <nBondsKD>
8

>  <RNCG>
0.21

>  <RPCG>
0.21

>  <FCSP3>
0.07

>  <SZ>
23.33

>  <Sm>
22.54

>  <Sv>
21.3

>  <Sse>
30.31

>  <Sp>
22.5

>  <Si>
33.23

>  <MZ>
0.78

>  <Mm>
0.75

>  <Mv>
0.71

>  <Mse>
1.01

>  <Mp>
0.75

>  <Mi>
1.11

>  <NsCH3>
1

>  <NdCH2>
0

>  <NssCH2>
0

>  <NtCH>
0

>  <NdsCH>
0

>  <NaaCH>
8

>  <NsssCH>
0

>  <NddC>
0

>  <NtsC>
0

>  <NdssC>
0

>  <NaasC>
3

>  <NaaaC>
2

>  <NssssC>
0

>  <NsNH3>
0

>  <NsNH2>
0

>  <NssNH2>
0

>  <NdNH>
0

>  <NssNH>
0

>  <NaaNH>
0

>  <NtN>
0

>  <NsssNH>
0

>  <NdsN>
0

>  <NaaN>
1

>  <NsssN>
0

>  <NddsN>
0

>  <NaasN>
1

>  <NssssN>
0

>  <NsOH>
0

>  <NdO>
1

>  <NssO>
0

>  <NaaO>
0

>  <NsF>
0

>  <NsSiH3>
0

>  <NssSiH2>
0

>  <NsssSiH>
0

>  <NssssSi>
0

>  <NsPH2>
0

>  <NssPH>
0

>  <NsssP>
0

>  <NdsssP>
0

>  <NsssssP>
0

>  <NsSH>
0

>  <NdS>
0

>  <NssS>
0

>  <NaaS>
0

>  <NdssS>
0

>  <NddssS>
0

>  <NsCl>
1

>  <NsBr>
0

>  <NsI>
0

>  <fragCpx>
99.04

>  <fMF>
0.53

>  <nHBAcc>
3

>  <nHBDon>
0

>  <Kier1>
13.96

>  <Kier2>
5.78

>  <Lipinski>
1

>  <GhoseFilter>
1

>  <FilterItLogS>
-4.72

>  <VMcGowan>
193.3

>  <LabuteASA>
114.65

>  <PEOE_VSA1>
0

>  <PEOE_VSA2>
9.36

>  <PEOE_VSA3>
4.98

>  <PEOE_VSA4>
0

>  <PEOE_VSA5>
0

>  <PEOE_VSA6>
35.87

>  <PEOE_VSA7>
31.19

>  <PEOE_VSA8>
0

>  <PEOE_VSA9>
21.61

>  <PEOE_VSA10>
5.82

>  <PEOE_VSA11>
0

>  <PEOE_VSA12>
0

>  <PEOE_VSA13>
5.56

>  <SMR_VSA1>
0

>  <SMR_VSA2>
0

>  <SMR_VSA3>
9.55

>  <SMR_VSA4>
0

>  <SMR_VSA5>
6.92

>  <SMR_VSA6>
0

>  <SMR_VSA7>
69.73

>  <SMR_VSA8>
0

>  <SMR_VSA9>
5.69

>  <SlogP_VSA1>
5.56

>  <SlogP_VSA2>
9.55

>  <SlogP_VSA3>
0

>  <SlogP_VSA4>
6.92

>  <SlogP_VSA5>
5.82

>  <SlogP_VSA6>
53.33

>  <SlogP_VSA7>
5.02

>  <SlogP_VSA8>
16.59

>  <SlogP_VSA9>
0

>  <SlogP_VSA10>
0

>  <SlogP_VSA11>
0

>  <EState_VSA1>
0

>  <EState_VSA2>
5.56

>  <EState_VSA3>
27.44

>  <EState_VSA4>
0

>  <EState_VSA5>
0

>  <EState_VSA6>
23.62

>  <EState_VSA7>
36.4

>  <EState_VSA8>
4.98

>  <EState_VSA9>
11.6

>  <EState_VSA10>
4.79

>  <VSA_EState1>
1.55

>  <VSA_EState2>
17.02

>  <VSA_EState3>
1.12

>  <VSA_EState4>
1.26

>  <VSA_EState5>
0.62

>  <VSA_EState6>
14.57

>  <VSA_EState7>
0

>  <VSA_EState8>
1.8

>  <VSA_EState9>
0

>  <apol>
37.57

>  <bpol>
15.26

>  <nRing>
3

>  <nHRing>
1

>  <naRing>
3

>  <naHRing>
1

>  <nARing 2>
0

>  <nAHRing 2>
0

>  <nFRing>
1

>  <nFHRing>
1

>  <nFaRing>
1

>  <nFaHRing>
1

>  <nFARing 2>
0

>  <nFAHRing 2>
0

>  <nRot>
1

>  <SLogP>
3.35

>  <SMR>
77.09

>  <TopoPSA(NO)>
34.89

>  <TopoPSA>
34.89

>  <JGI1>
0.14

>  <JGI2>
0.08

>  <JGI3>
0.06

>  <JGI4>
0.06

>  <JGI5>
0.02

>  <Diameter>
9

>  <Radius>
5

>  <TMWC10>
113.93

>  <TSRW10>
52.86

>  <MW>
270.06

>  <AMW>
9

>  <WPath>
640

>  <WPol>
33

>  <Zagreb1>
102

>  <Zagreb2>
123

>  <mZagreb2>
4.17

>  <yes>


>  <nAR-cont>
0.336376

>  <nHA-cont>
0.998649058

>  <MWHBN>
0.182553903

>  <MWHBN-cont>
0.989768914

>  <TPSA-cont>
0.756446135

>  <pka_cont>
0.97

>  <yes.1>


>  <BBB_SCORE>
4.817570698

>  <MMFF94 Energy>
43.823

$$$$
Compound 1672
Actelion Java MolfileCreator 2.0

  0  0  0  0  0  0              0 V3000
M  V30 BEGIN CTAB
M  V30 COUNTS 52 55 0 0 0
M  V30 BEGIN ATOM
M  V30 1 S -0.4864 4.7093 4.628 0
M  V30 2 C -0.8319 4.0945 3.0356 0
M  V30 3 C -1.8583 3.7784 5.3667 0
M  V30 4 N -0.0152 4.1895 2.049 0
M  V30 5 N -2.0597 3.5064 2.996 0
M  V30 6 C -2.828 3.5854 4.2159 0
M  V30 7 C -0.4234 3.6437 0.8503 0
M  V30 8 C -2.547 2.9796 1.8351 0
M  V30 9 C -1.6205 3.0457 0.6663 0
M  V30 10 C 0.6231 3.7535 -0.2303 0
M  V30 11 O -3.6666 2.4838 1.736 0
M  V30 12 C -2.1567 2.4734 -0.62 0
M  V30 13 C -2.2294 0.9349 -0.6826 0
M  V30 14 N -0.9089 0.3073 -0.8934 0
M  V30 15 C -0.2826 -0.0765 0.3823 0
M  V30 16 C -1.0227 -0.86 -1.7791 0
M  V30 17 C 1.1163 -0.6468 0.1542 0
M  V30 18 C 0.347 -1.4729 -2.0733 0
M  V30 19 C 1.0727 -1.8609 -0.7831 0
M  V30 20 C 2.4815 -2.3683 -1.0867 0
M  V30 21 O 3.4801 -1.6848 -0.863 0
M  V30 22 C 2.6734 -3.7308 -1.6816 0
M  V30 23 C 3.9545 -4.0708 -2.1494 0
M  V30 24 C 1.6403 -4.674 -1.7784 0
M  V30 25 C 4.1967 -5.3262 -2.7112 0
M  V30 26 C 1.8864 -5.9305 -2.3418 0
M  V30 27 C 3.1595 -6.2442 -2.8029 0
M  V30 28 F 3.3876 -7.4489 -3.3405 0
M  V30 29 H -2.3092 4.3083 6.2096 0
M  V30 30 H -1.4728 2.8148 5.7145 0
M  V30 31 H -3.4464 2.691 4.3455 0
M  V30 32 H -3.5058 4.4435 4.1237 0
M  V30 33 H 1.615 3.5344 0.1814 0
M  V30 34 H 0.4723 3.0536 -1.0552 0
M  V30 35 H 0.6389 4.7705 -0.6349 0
M  V30 36 H -1.6028 2.8463 -1.489 0
M  V30 37 H -3.1723 2.8667 -0.7685 0
M  V30 38 H -2.743 0.512 0.1895 0
M  V30 39 H -2.8788 0.711 -1.5402 0
M  V30 40 H -0.8992 -0.8151 0.9117 0
M  V30 41 H -0.1825 0.7867 1.045 0
M  V30 42 H -1.4626 -0.5577 -2.7375 0
M  V30 43 H -1.6838 -1.6195 -1.3412 0
M  V30 44 H 1.5566 -0.9353 1.1166 0
M  V30 45 H 1.7629 0.1378 -0.2609 0
M  V30 46 H 0.2149 -2.3446 -2.7236 0
M  V30 47 H 0.9557 -0.7577 -2.6431 0
M  V30 48 H 0.5215 -2.6485 -0.2564 0
M  V30 49 H 4.7727 -3.3552 -2.0784 0
M  V30 50 H 0.6367 -4.4661 -1.4222 0
M  V30 51 H 5.1853 -5.5894 -3.0739 0
M  V30 52 H 1.0933 -6.668 -2.4216 0
M  V30 END ATOM
M  V30 BEGIN BOND
M  V30 1 1 1 2
M  V30 2 1 1 3
M  V30 3 2 2 4
M  V30 4 1 2 5
M  V30 5 1 3 6
M  V30 6 1 4 7
M  V30 7 1 5 8
M  V30 8 2 7 9
M  V30 9 1 7 10
M  V30 10 2 8 11
M  V30 11 1 9 12
M  V30 12 1 12 13
M  V30 13 1 13 14
M  V30 14 1 14 15
M  V30 15 1 14 16
M  V30 16 1 15 17
M  V30 17 1 16 18
M  V30 18 1 17 19
M  V30 19 1 19 20
M  V30 20 2 20 21
M  V30 21 1 20 22
M  V30 22 2 22 23
M  V30 23 1 22 24
M  V30 24 1 23 25
M  V30 25 2 24 26
M  V30 26 2 25 27
M  V30 27 1 27 28
M  V30 28 1 5 6
M  V30 29 1 8 9
M  V30 30 1 18 19
M  V30 31 1 26 27
M  V30 32 1 3 29
M  V30 33 1 3 30
M  V30 34 1 6 31
M  V30 35 1 6 32
M  V30 36 1 10 33
M  V30 37 1 10 34
M  V30 38 1 10 35
M  V30 39 1 12 36
M  V30 40 1 12 37
M  V30 41 1 13 38
M  V30 42 1 13 39
M  V30 43 1 15 40
M  V30 44 1 15 41
M  V30 45 1 16 42
M  V30 46 1 16 43
M  V30 47 1 17 44
M  V30 48 1 17 45
M  V30 49 1 18 46
M  V30 50 1 18 47
M  V30 51 1 19 48
M  V30 52 1 23 49
M  V30 53 1 24 50
M  V30 54 1 25 51
M  V30 55 1 26 52
M  V30 END BOND
M  V30 END CTAB
M  END
>  <Column 1>
2027

>  <level_0>
2203

>  <index>
2203

>  <Unnamed: 0>
2203

>  <NO.>
2215

>  <Name>
setoperone

>  <IUPAC_name>
6-[2-[4-(4-fluorobenzoyl)piperidin-1-yl]ethyl]-7-methyl-2-3-dihydro-[1-3]thiazolo[3-2-a]pyrimidin-5-one

>  <SMILES>
Cc1nc2n(c(=O)c1CCN1CCC(C(=O)c3ccc(F)cc3)CC1)CCS2

>  <CID>
68604

>  <logBB>


>  <BBB+/BBB->
BBB+

>  <Inchi>
InChI=1S/C21H24FN3O2S/c1-14-18(20(27)25-12-13-28-21(25)23-14)8-11-24-9-6-16(7-10-24)19(26)15-2-4-17(22)5-3-15/h2-5-16H-6-13H2-1H3

>  <threshold>
-1

>  <reference>
R1|R13|R19|R6|R24|R27|R27|R27|R30|R30|

>  <group>
B

>  <Class>
1

>  <ABC>
22.12

>  <ABCGG>
16.68

>  <nAcid>
0

>  <nBase>
1

>  <nAromAtom>
12

>  <nAromBond>
12

>  <nAtom>
52

>  <nHeavyAtom>
28

>  <nSpiro>
0

>  <nBridgehead>
0

>  <nHetero>
7

>  <nN>
3

>  <nO>
2

>  <nF>
1

>  <BalabanJ>
1.2

>  <BertzCT>
933.9

>  <nBonds>
55

>  <nBondsO>
31

>  <nBondsS>
41

>  <nBondsD>
2

>  <nBondsT>
0

>  <nBondsA>
12

>  <nBondsM>
14

>  <nBondsKS>
48

>  <nBondsKD>
7

>  <RNCG>
0.16

>  <RPCG>
0.13

>  <FCSP3>
0.48

>  <SZ>
35.33

>  <Sm>
33.43

>  <Sv>
33.04

>  <Sse>
52.34

>  <Sp>
35.59

>  <Si>
58.74

>  <MZ>
0.68

>  <Mm>
0.64

>  <Mv>
0.64

>  <Mse>
1.01

>  <Mp>
0.68

>  <Mi>
1.13

>  <NsCH3>
1

>  <NdCH2>
0

>  <NssCH2>
8

>  <NtCH>
0

>  <NdsCH>
0

>  <NaaCH>
4

>  <NsssCH>
1

>  <NddC>
0

>  <NtsC>
0

>  <NdssC>
1

>  <NaasC>
5

>  <NaaaC>
0

>  <NssssC>
0

>  <NsNH3>
0

>  <NsNH2>
0

>  <NssNH2>
0

>  <NdNH>
0

>  <NssNH>
0

>  <NaaNH>
0

>  <NtN>
0

>  <NsssNH>
0

>  <NdsN>
0

>  <NaaN>
1

>  <NsssN>
1

>  <NddsN>
0

>  <NaasN>
1

>  <NssssN>
0

>  <NsOH>
0

>  <NdO>
2

>  <NssO>
0

>  <NaaO>
0

>  <NsF>
1

>  <NsSiH3>
0

>  <NssSiH2>
0

>  <NsssSiH>
0

>  <NssssSi>
0

>  <NsPH2>
0

>  <NssPH>
0

>  <NsssP>
0

>  <NdsssP>
0

>  <NsssssP>
0

>  <NsSH>
0

>  <NdS>
0

>  <NssS>
1

>  <NaaS>
0

>  <NdssS>
0

>  <NddssS>
0

>  <NsCl>
0

>  <NsBr>
0

>  <NsI>
0

>  <fragCpx>
205.07

>  <fMF>
0.46

>  <nHBAcc>
6

>  <nHBDon>
0

>  <Kier1>
21.24

>  <Kier2>
9.43

>  <Lipinski>
1

>  <GhoseFilter>
1

>  <FilterItLogS>
-5.15

>  <VMcGowan>
293

>  <LabuteASA>
167.51

>  <PEOE_VSA1>
4.9

>  <PEOE_VSA2>
14.16

>  <PEOE_VSA3>
9.37

>  <PEOE_VSA4>
0

>  <PEOE_VSA5>
0

>  <PEOE_VSA6>
11.76

>  <PEOE_VSA7>
63.54

>  <PEOE_VSA8>
41.58

>  <PEOE_VSA9>
0

>  <PEOE_VSA10>
5.82

>  <PEOE_VSA11>
10.94

>  <PEOE_VSA12>
0

>  <PEOE_VSA13>
5.56

>  <SMR_VSA1>
9.18

>  <SMR_VSA2>
0

>  <SMR_VSA3>
14.45

>  <SMR_VSA4>
5.92

>  <SMR_VSA5>
37.89

>  <SMR_VSA6>
25.39

>  <SMR_VSA7>
57.26

>  <SMR_VSA8>
0

>  <SMR_VSA9>
0

>  <SlogP_VSA1>
5.56

>  <SlogP_VSA2>
45.62

>  <SlogP_VSA3>
12.97

>  <SlogP_VSA4>
18.66

>  <SlogP_VSA5>
34.46

>  <SlogP_VSA6>
34.22

>  <SlogP_VSA7>
0

>  <SlogP_VSA8>
0

>  <SlogP_VSA9>
0

>  <SlogP_VSA10>
4.39

>  <SlogP_VSA11>
0

>  <EState_VSA1>
0

>  <EState_VSA2>
23.08

>  <EState_VSA3>
11.98

>  <EState_VSA4>
61.19

>  <EState_VSA5>
12.13

>  <EState_VSA6>
28.46

>  <EState_VSA7>
6.92

>  <EState_VSA8>
9.88

>  <EState_VSA9>
0

>  <EState_VSA10>
13.98

>  <VSA_EState1>
14.84

>  <VSA_EState2>
32.2

>  <VSA_EState3>
0.84

>  <VSA_EState4>
2.35

>  <VSA_EState5>
0.69

>  <VSA_EState6>
5.82

>  <VSA_EState7>
2.29

>  <VSA_EState8>
5.15

>  <VSA_EState9>
0

>  <apol>
59.43

>  <bpol>
33.95

>  <nRing>
4

>  <nHRing>
3

>  <naRing>
2

>  <naHRing>
1

>  <nARing 2>
2

>  <nAHRing 2>
2

>  <nFRing>
1

>  <nFHRing>
1

>  <nFaRing>
0

>  <nFaHRing>
0

>  <nFARing 2>
1

>  <nFAHRing 2>
1

>  <nRot>
5

>  <SLogP>
2.93

>  <SMR>
107.56

>  <TopoPSA(NO)>
55.2

>  <TopoPSA>
80.5

>  <JGI1>
0.18

>  <JGI2>
0.09

>  <JGI3>
0.05

>  <JGI4>
0.05

>  <JGI5>
0.03

>  <Diameter>
16

>  <Radius>
8

>  <TMWC10>
135.62

>  <TSRW10>
77.12

>  <MW>
401.16

>  <AMW>
7.71

>  <WPath>
2356

>  <WPol>
45

>  <Zagreb1>
150

>  <Zagreb2>
178

>  <mZagreb2>
6.08

>  <yes>


>  <nAR-cont>
1

>  <nHA-cont>
0.82432561

>  <MWHBN>
0.299565944

>  <MWHBN-cont>
0.842033652

>  <TPSA-cont>
0.438060013

>  <pka_cont>
0.97

>  <yes.1>


>  <BBB_SCORE>
4.448496114

>  <MMFF94 Energy>
-20.06

$$$$
Compound 1673
Actelion Java MolfileCreator 2.0

  0  0  0  0  0  0              0 V3000
M  V30 BEGIN CTAB
M  V30 COUNTS 42 45 0 0 0
M  V30 BEGIN ATOM
M  V30 1 N 0.6387 -1.5975 -0.3992 0
M  V30 2 C 0.2718 -0.4969 0.2116 0
M  V30 3 C 1.6134 -1.7312 -1.3986 0
M  V30 4 N -0.8501 -0.5543 1.0419 0
M  V30 5 N 0.9502 0.7439 0.0478 0
M  V30 6 C 2.8631 -1.0962 -1.4184 0
M  V30 7 C 1.3055 -2.6272 -2.4323 0
M  V30 8 C -1.8856 -1.5812 0.8683 0
M  V30 9 C -1.0444 0.2527 2.2525 0
M  V30 10 N 0.3136 1.9417 0.2104 0
M  V30 11 C 2.2778 0.9715 -0.2306 0
M  V30 12 C 3.7643 -1.3535 -2.4689 0
M  V30 13 C 3.2483 -0.1386 -0.331 0
M  V30 14 C 2.1997 -2.8791 -3.4739 0
M  V30 15 C -3.2895 -0.9309 0.9061 0
M  V30 16 C -2.4439 0.9013 2.2393 0
M  V30 17 C 1.2883 2.8164 -0.0532 0
M  V30 18 N 2.5116 2.2658 -0.3088 0
M  V30 19 C 3.432 -2.2388 -3.4922 0
M  V30 20 N -3.5189 -0.1122 2.1194 0
M  V30 21 C 1.0665 4.2761 -0.0392 0
M  V30 22 C -4.8287 0.5336 2.0638 0
M  V30 23 H 0.3457 -3.1391 -2.4191 0
M  V30 24 H -1.7818 -2.105 -0.0885 0
M  V30 25 H -1.7927 -2.3294 1.6647 0
M  V30 26 H -0.9579 -0.4063 3.1265 0
M  V30 27 H -0.2773 1.0188 2.3911 0
M  V30 28 H 4.7332 -0.8586 -2.4962 0
M  V30 29 H 4.2461 0.2768 -0.5177 0
M  V30 30 H 3.3159 -0.6774 0.6222 0
M  V30 31 H 1.9315 -3.5757 -4.2632 0
M  V30 32 H -4.0389 -1.73 0.859 0
M  V30 33 H -3.4123 -0.3115 0.0069 0
M  V30 34 H -2.5741 1.4589 3.1744 0
M  V30 35 H -2.5023 1.6209 1.4119 0
M  V30 36 H 4.1344 -2.4287 -4.2995 0
M  V30 37 H 0.2715 4.5517 -0.739 0
M  V30 38 H 0.7794 4.6108 0.9623 0
M  V30 39 H 1.9753 4.8121 -0.3298 0
M  V30 40 H -5.624 -0.2174 2.0046 0
M  V30 41 H -4.9257 1.2067 1.2042 0
M  V30 42 H -5.0094 1.1124 2.9763 0
M  V30 END ATOM
M  V30 BEGIN BOND
M  V30 1 2 1 2
M  V30 2 1 1 3
M  V30 3 1 2 4
M  V30 4 1 2 5
M  V30 5 2 3 6
M  V30 6 1 3 7
M  V30 7 1 4 8
M  V30 8 1 4 9
M  V30 9 1 5 10
M  V30 10 1 5 11
M  V30 11 1 6 12
M  V30 12 1 6 13
M  V30 13 2 7 14
M  V30 14 1 8 15
M  V30 15 1 9 16
M  V30 16 2 10 17
M  V30 17 2 11 18
M  V30 18 2 12 19
M  V30 19 1 15 20
M  V30 20 1 17 21
M  V30 21 1 20 22
M  V30 22 1 11 13
M  V30 23 1 14 19
M  V30 24 1 16 20
M  V30 25 1 17 18
M  V30 26 1 7 23
M  V30 27 1 8 24
M  V30 28 1 8 25
M  V30 29 1 9 26
M  V30 30 1 9 27
M  V30 31 1 12 28
M  V30 32 1 13 29
M  V30 33 1 13 30
M  V30 34 1 14 31
M  V30 35 1 15 32
M  V30 36 1 15 33
M  V30 37 1 16 34
M  V30 38 1 16 35
M  V30 39 1 19 36
M  V30 40 1 21 37
M  V30 41 1 21 38
M  V30 42 1 21 39
M  V30 43 1 22 40
M  V30 44 1 22 41
M  V30 45 1 22 42
M  V30 END BOND
M  V30 END CTAB
M  END
>  <Column 1>
2028

>  <level_0>
2205

>  <index>
2205

>  <Unnamed: 0>
2205

>  <NO.>
2217

>  <Name>
batelapine

>  <IUPAC_name>
2-methyl-5-(4-methylpiperazin-1-yl)-11h-[1-2-4]triazolo[1-5-c][1-3]benzodiazepine

>  <SMILES>
Cc1nc2n(n1)C(N1CCN(C)CC1)=Nc1ccccc1C2

>  <CID>
60717

>  <logBB>


>  <BBB+/BBB->
BBB+

>  <Inchi>
InChI=1S/C16H20N6/c1-12-17-15-11-13-5-3-4-6-14(13)18-16(22(15)19-12)21-9-7-20(2)8-10-21/h3-6H-7-11H2-1-2H3

>  <threshold>
-1

>  <reference>
R1|R13|R19|R27|R27|R27|R30|R30|

>  <group>
B

>  <Class>
1

>  <ABC>
17.73

>  <ABCGG>
13.93

>  <nAcid>
0

>  <nBase>
3

>  <nAromAtom>
11

>  <nAromBond>
11

>  <nAtom>
42

>  <nHeavyAtom>
22

>  <nSpiro>
0

>  <nBridgehead>
0

>  <nHetero>
6

>  <nN>
6

>  <nO>
0

>  <nF>
0

>  <BalabanJ>
1.54

>  <BertzCT>
723.99

>  <nBonds>
45

>  <nBondsO>
25

>  <nBondsS>
33

>  <nBondsD>
1

>  <nBondsT>
0

>  <nBondsA>
11

>  <nBondsM>
12

>  <nBondsKS>
39

>  <nBondsKD>
6

>  <RNCG>
0.21

>  <RPCG>
0.14

>  <FCSP3>
0.44

>  <SZ>
26.33

>  <Sm>
24.68

>  <Sv>
25.97

>  <Sse>
41.86

>  <Sp>
27.94

>  <Si>
47.9

>  <MZ>
0.63

>  <Mm>
0.59

>  <Mv>
0.62

>  <Mse>
1

>  <Mp>
0.67

>  <Mi>
1.14

>  <NsCH3>
2

>  <NdCH2>
0

>  <NssCH2>
5

>  <NtCH>
0

>  <NdsCH>
0

>  <NaaCH>
4

>  <NsssCH>
0

>  <NddC>
0

>  <NtsC>
0

>  <NdssC>
1

>  <NaasC>
4

>  <NaaaC>
0

>  <NssssC>
0

>  <NsNH3>
0

>  <NsNH2>
0

>  <NssNH2>
0

>  <NdNH>
0

>  <NssNH>
0

>  <NaaNH>
0

>  <NtN>
0

>  <NsssNH>
0

>  <NdsN>
1

>  <NaaN>
2

>  <NsssN>
2

>  <NddsN>
0

>  <NaasN>
1

>  <NssssN>
0

>  <NsOH>
0

>  <NdO>
0

>  <NssO>
0

>  <NaaO>
0

>  <NsF>
0

>  <NsSiH3>
0

>  <NssSiH2>
0

>  <NsssSiH>
0

>  <NssssSi>
0

>  <NsPH2>
0

>  <NssPH>
0

>  <NsssP>
0

>  <NdsssP>
0

>  <NsssssP>
0

>  <NsSH>
0

>  <NdS>
0

>  <NssS>
0

>  <NaaS>
0

>  <NdssS>
0

>  <NddssS>
0

>  <NsCl>
0

>  <NsBr>
0

>  <NsI>
0

>  <fragCpx>
163.06

>  <fMF>
0.48

>  <nHBAcc>
6

>  <nHBDon>
0

>  <Kier1>
15.52

>  <Kier2>
6.48

>  <Lipinski>
1

>  <GhoseFilter>
1

>  <FilterItLogS>
-3.08

>  <VMcGowan>
226.94

>  <LabuteASA>
129.64

>  <PEOE_VSA1>
9.8

>  <PEOE_VSA2>
0

>  <PEOE_VSA3>
9.98

>  <PEOE_VSA4>
4.68

>  <PEOE_VSA5>
5.1

>  <PEOE_VSA6>
18.2

>  <PEOE_VSA7>
25.6

>  <PEOE_VSA8>
32.6

>  <PEOE_VSA9>
5.69

>  <PEOE_VSA10>
11.65

>  <PEOE_VSA11>
0

>  <PEOE_VSA12>
5.96

>  <PEOE_VSA13>
0

>  <SMR_VSA1>
0

>  <SMR_VSA2>
0

>  <SMR_VSA3>
24.56

>  <SMR_VSA4>
4.99

>  <SMR_VSA5>
13.34

>  <SMR_VSA6>
33.23

>  <SMR_VSA7>
41.48

>  <SMR_VSA8>
0

>  <SMR_VSA9>
0

>  <SlogP_VSA1>
0

>  <SlogP_VSA2>
63.75

>  <SlogP_VSA3>
6.42

>  <SlogP_VSA4>
6.92

>  <SlogP_VSA5>
17.21

>  <SlogP_VSA6>
29.26

>  <SlogP_VSA7>
0

>  <SlogP_VSA8>
0

>  <SlogP_VSA9>
0

>  <SlogP_VSA10>
5.69

>  <SlogP_VSA11>
0

>  <EState_VSA1>
0

>  <EState_VSA2>
0

>  <EState_VSA3>
0

>  <EState_VSA4>
55.9

>  <EState_VSA5>
5.56

>  <EState_VSA6>
0

>  <EState_VSA7>
17.67

>  <EState_VSA8>
45.13

>  <EState_VSA9>
4.99

>  <EState_VSA10>
0

>  <VSA_EState1>
1.93

>  <VSA_EState2>
14.19

>  <VSA_EState3>
4.59

>  <VSA_EState4>
2.24

>  <VSA_EState5>
2.69

>  <VSA_EState6>
8.3

>  <VSA_EState7>
0.78

>  <VSA_EState8>
5.97

>  <VSA_EState9>
2.16

>  <apol>
46.66

>  <bpol>
27.47

>  <nRing>
4

>  <nHRing>
3

>  <naRing>
2

>  <naHRing>
1

>  <nARing 2>
2

>  <nAHRing 2>
2

>  <nFRing>
1

>  <nFHRing>
1

>  <nFaRing>
0

>  <nFaHRing>
0

>  <nFARing 2>
1

>  <nFAHRing 2>
1

>  <nRot>
0

>  <SLogP>
1.27

>  <SMR>
85.57

>  <TopoPSA(NO)>
49.55

>  <TopoPSA>
49.55

>  <JGI1>
0.18

>  <JGI2>
0.07

>  <JGI3>
0.04

>  <JGI4>
0.04

>  <JGI5>
0.02

>  <Diameter>
10

>  <Radius>
5

>  <TMWC10>
122.43

>  <TSRW10>
70.73

>  <MW>
296.17

>  <AMW>
7.05

>  <WPath>
958

>  <WPol>
38

>  <Zagreb1>
122

>  <Zagreb2>
146

>  <mZagreb2>
4.69

>  <yes>


>  <nAR-cont>
1

>  <nHA-cont>
0.983774276

>  <MWHBN>
0.348642814

>  <MWHBN-cont>
0.675316936

>  <TPSA-cont>
0.654110231

>  <pka_cont>
0.97

>  <yes.1>


>  <BBB_SCORE>
4.789970142

>  <MMFF94 Energy>
143.41

$$$$
Compound 1674
Actelion Java MolfileCreator 2.0

  0  0  0  0  0  0              0 V3000
M  V30 BEGIN CTAB
M  V30 COUNTS 44 45 0 0 0
M  V30 BEGIN ATOM
M  V30 1 S -2.5983 2.2732 1.2985 0
M  V30 2 S -0.7192 2.1622 0.4648 0
M  V30 3 C -3.1989 0.5506 1.4363 0
M  V30 4 C 0.3423 1.7291 1.8802 0
M  V30 5 C -2.751 -0.4154 0.3688 0
M  V30 6 C 1.7922 1.5998 1.4765 0
M  V30 7 C -3.1258 -0.34 -0.9909 0
M  V30 8 C -1.9119 -1.4649 0.754 0
M  V30 9 C 2.333 0.4637 0.8264 0
M  V30 10 C 2.6519 2.6662 1.7472 0
M  V30 11 C -2.5871 -1.3011 -1.8659 0
M  V30 12 C -4.0093 0.7833 -1.4861 0
M  V30 13 N -1.3707 -2.3764 -0.0816 0
M  V30 14 C 3.7014 0.4828 0.5101 0
M  V30 15 C 1.4295 -0.6909 0.459 0
M  V30 16 N 3.9671 2.6888 1.4507 0
M  V30 17 O -2.8926 -1.3075 -3.2007 0
M  V30 18 C -1.7193 -2.2861 -1.3871 0
M  V30 19 O -4.6537 0.4433 -2.7157 0
M  V30 20 O 4.3123 -0.5716 -0.1139 0
M  V30 21 C 4.479 1.5971 0.8342 0
M  V30 22 O 2.1344 -1.834 -0.0234 0
M  V30 23 C -1.1321 -3.308 -2.3161 0
M  V30 24 C 5.9422 1.6339 0.5041 0
M  V30 25 H -2.8901 0.1953 2.4265 0
M  V30 26 H -4.2941 0.5717 1.4669 0
M  V30 27 H 0.2369 2.5076 2.645 0
M  V30 28 H -0.002 0.7959 2.3369 0
M  V30 29 H -1.6174 -1.5973 1.7935 0
M  V30 30 H 2.2938 3.5728 2.2303 0
M  V30 31 H -4.8021 1.0017 -0.7652 0
M  V30 32 H -3.406 1.6785 -1.6622 0
M  V30 33 H 0.8779 -1.0162 1.3445 0
M  V30 34 H 0.7439 -0.3753 -0.3315 0
M  V30 35 H -3.6486 -0.6907 -3.3211 0
M  V30 36 H -5.2298 1.1996 -2.9341 0
M  V30 37 H 3.636 -1.2795 -0.2068 0
M  V30 38 H 1.4318 -2.4855 -0.2258 0
M  V30 39 H -0.5407 -2.818 -3.0957 0
M  V30 40 H -0.4721 -3.9918 -1.7724 0
M  V30 41 H -1.9259 -3.9016 -2.78 0
M  V30 42 H 6.0909 1.5456 -0.5764 0
M  V30 43 H 6.3902 2.5783 0.8303 0
M  V30 44 H 6.4675 0.8187 1.0112 0
M  V30 END ATOM
M  V30 BEGIN BOND
M  V30 1 1 1 2
M  V30 2 1 1 3
M  V30 3 1 2 4
M  V30 4 1 3 5
M  V30 5 1 4 6
M  V30 6 2 5 7
M  V30 7 1 5 8
M  V30 8 2 6 9
M  V30 9 1 6 10
M  V30 10 1 7 11
M  V30 11 1 7 12
M  V30 12 2 8 13
M  V30 13 1 9 14
M  V30 14 1 9 15
M  V30 15 2 10 16
M  V30 16 1 11 17
M  V30 17 2 11 18
M  V30 18 1 12 19
M  V30 19 1 14 20
M  V30 20 2 14 21
M  V30 21 1 15 22
M  V30 22 1 18 23
M  V30 23 1 21 24
M  V30 24 1 13 18
M  V30 25 1 16 21
M  V30 26 1 3 25
M  V30 27 1 3 26
M  V30 28 1 4 27
M  V30 29 1 4 28
M  V30 30 1 8 29
M  V30 31 1 10 30
M  V30 32 1 12 31
M  V30 33 1 12 32
M  V30 34 1 15 33
M  V30 35 1 15 34
M  V30 36 1 17 35
M  V30 37 1 19 36
M  V30 38 1 20 37
M  V30 39 1 22 38
M  V30 40 1 23 39
M  V30 41 1 23 40
M  V30 42 1 23 41
M  V30 43 1 24 42
M  V30 44 1 24 43
M  V30 45 1 24 44
M  V30 END BOND
M  V30 END CTAB
M  END
>  <Column 1>
2029

>  <level_0>
2206

>  <index>
2206

>  <Unnamed: 0>
2206

>  <NO.>
2218

>  <Name>
pyritinol

>  <IUPAC_name>
5-[[[5-hydroxy-4-(hydroxymethyl)-6-methylpyridin-3-yl]methyldisulfanyl]methyl]-4-(hydroxymethyl)-2-methylpyridin-3-ol

>  <SMILES>
Cc1ncc(CSSCc2cnc(C)c(O)c2CO)c(CO)c1O

>  <CID>
14190

>  <logBB>


>  <BBB+/BBB->
BBB+

>  <Inchi>
InChI=1S/C16H20N2O4S2/c1-9-15(21)13(5-19)11(3-17-9)7-23-24-8-12-4-18-10(2)16(22)14(12)6-20/h3-4-19-22H-5-8H2-1-2H3

>  <threshold>
-1

>  <reference>
R1|R13|R19|R6|R24|R27|R27|R27|R30|R30|

>  <group>
B

>  <Class>
1

>  <ABC>
17.87

>  <ABCGG>
14.99

>  <nAcid>
0

>  <nBase>
0

>  <nAromAtom>
12

>  <nAromBond>
12

>  <nAtom>
44

>  <nHeavyAtom>
24

>  <nSpiro>
0

>  <nBridgehead>
0

>  <nHetero>
8

>  <nN>
2

>  <nO>
4

>  <nF>
0

>  <BalabanJ>
1.74

>  <BertzCT>
664.21

>  <nBonds>
45

>  <nBondsO>
25

>  <nBondsS>
33

>  <nBondsD>
0

>  <nBondsT>
0

>  <nBondsA>
12

>  <nBondsM>
12

>  <nBondsKS>
39

>  <nBondsKD>
6

>  <RNCG>
0.2

>  <RPCG>
0.12

>  <FCSP3>
0.38

>  <SZ>
32.33

>  <Sm>
30.68

>  <Sv>
28.17

>  <Sse>
44.68

>  <Sp>
30.7

>  <Si>
49.41

>  <MZ>
0.73

>  <Mm>
0.7

>  <Mv>
0.64

>  <Mse>
1.02

>  <Mp>
0.7

>  <Mi>
1.12

>  <NsCH3>
2

>  <NdCH2>
0

>  <NssCH2>
4

>  <NtCH>
0

>  <NdsCH>
0

>  <NaaCH>
2

>  <NsssCH>
0

>  <NddC>
0

>  <NtsC>
0

>  <NdssC>
0

>  <NaasC>
8

>  <NaaaC>
0

>  <NssssC>
0

>  <NsNH3>
0

>  <NsNH2>
0

>  <NssNH2>
0

>  <NdNH>
0

>  <NssNH>
0

>  <NaaNH>
0

>  <NtN>
0

>  <NsssNH>
0

>  <NdsN>
0

>  <NaaN>
2

>  <NsssN>
0

>  <NddsN>
0

>  <NaasN>
0

>  <NssssN>
0

>  <NsOH>
4

>  <NdO>
0

>  <NssO>
0

>  <NaaO>
0

>  <NsF>
0

>  <NsSiH3>
0

>  <NssSiH2>
0

>  <NsssSiH>
0

>  <NssssSi>
0

>  <NsPH2>
0

>  <NssPH>
0

>  <NsssP>
0

>  <NdsssP>
0

>  <NsssssP>
0

>  <NsSH>
0

>  <NdS>
0

>  <NssS>
2

>  <NaaS>
0

>  <NdssS>
0

>  <NddssS>
0

>  <NsCl>
0

>  <NsBr>
0

>  <NsI>
0

>  <fragCpx>
73.08

>  <fMF>
0.36

>  <nHBAcc>
8

>  <nHBDon>
4

>  <Kier1>
20.31

>  <Kier2>
9.63

>  <Lipinski>
1

>  <GhoseFilter>
1

>  <FilterItLogS>
-4.13

>  <VMcGowan>
264.92

>  <LabuteASA>
147.94

>  <PEOE_VSA1>
20.43

>  <PEOE_VSA2>
9.97

>  <PEOE_VSA3>
0

>  <PEOE_VSA4>
0

>  <PEOE_VSA5>
0

>  <PEOE_VSA6>
21.59

>  <PEOE_VSA7>
24.97

>  <PEOE_VSA8>
35.03

>  <PEOE_VSA9>
24.6

>  <PEOE_VSA10>
11.5

>  <PEOE_VSA11>
0

>  <PEOE_VSA12>
0

>  <PEOE_VSA13>
0

>  <SMR_VSA1>
20.43

>  <SMR_VSA2>
0

>  <SMR_VSA3>
9.97

>  <SMR_VSA4>
0

>  <SMR_VSA5>
38.57

>  <SMR_VSA6>
0

>  <SMR_VSA7>
46.04

>  <SMR_VSA8>
0

>  <SMR_VSA9>
11.5

>  <SlogP_VSA1>
0

>  <SlogP_VSA2>
30.39

>  <SlogP_VSA3>
24.72

>  <SlogP_VSA4>
13.85

>  <SlogP_VSA5>
33.64

>  <SlogP_VSA6>
12.39

>  <SlogP_VSA7>
0

>  <SlogP_VSA8>
0

>  <SlogP_VSA9>
0

>  <SlogP_VSA10>
0

>  <SlogP_VSA11>
11.5

>  <EState_VSA1>
0

>  <EState_VSA2>
24.71

>  <EState_VSA3>
34.02

>  <EState_VSA4>
11.13

>  <EState_VSA5>
21.59

>  <EState_VSA6>
26.24

>  <EState_VSA7>
0

>  <EState_VSA8>
9.97

>  <EState_VSA9>
0

>  <EState_VSA10>
20.43

>  <VSA_EState1>
0

>  <VSA_EState2>
8.23

>  <VSA_EState3>
38.7

>  <VSA_EState4>
3.56

>  <VSA_EState5>
1.22

>  <VSA_EState6>
0

>  <VSA_EState7>
3.32

>  <VSA_EState8>
2.9

>  <VSA_EState9>
3.08

>  <apol>
51.26

>  <bpol>
24.8

>  <nRing>
2

>  <nHRing>
2

>  <naRing>
2

>  <naHRing>
2

>  <nARing 2>
0

>  <nAHRing 2>
0

>  <nFRing>
0

>  <nFHRing>
0

>  <nFaRing>
0

>  <nFaHRing>
0

>  <nFARing 2>
0

>  <nFAHRing 2>
0

>  <nRot>
7

>  <SLogP>
2.57

>  <SMR>
95.71

>  <TopoPSA(NO)>
106.7

>  <TopoPSA>
157.3

>  <JGI1>
0.18

>  <JGI2>
0.11

>  <JGI3>
0.05

>  <JGI4>
0.05

>  <JGI5>
0.02

>  <Diameter>
13

>  <Radius>
7

>  <TMWC10>
122.88

>  <TSRW10>
58.29

>  <MW>
368.09

>  <AMW>
8.37

>  <WPath>
1524

>  <WPol>
39

>  <Zagreb1>
118

>  <Zagreb2>
138

>  <mZagreb2>
5.58

>  <yes>


>  <nAR-cont>
0.336376

>  <nHA-cont>
0.94700071

>  <MWHBN>
0.625466763

>  <MWHBN-cont>
0

>  <TPSA-cont>
0

>  <pka_cont>
0.97

>  <yes.1>


>  <BBB_SCORE>
1.76837671

>  <MMFF94 Energy>
50.079

$$$$
Compound 1675
Actelion Java MolfileCreator 2.0

  0  0  0  0  0  0              0 V3000
M  V30 BEGIN CTAB
M  V30 COUNTS 24 24 0 0 0
M  V30 BEGIN ATOM
M  V30 1 Cl -3.2078 -0.9615 -0.1602 0
M  V30 2 C -2.2965 0.5658 -0.0434 0
M  V30 3 C -1.2779 0.5681 1.1042 0 CFG=1
M  V30 4 O -1.9347 0.3449 2.3596 0
M  V30 5 C -0.1463 -0.4651 0.9654 0
M  V30 6 N 0.8077 -0.1836 -0.0943 0
M  V30 7 C 1.8544 0.7116 -0.0925 0
M  V30 8 C 0.8698 -0.8437 -1.3152 0
M  V30 9 N 2.2393 1.5748 0.9727 0 CHG=1
M  V30 10 C 2.4564 0.6054 -1.3197 0
M  V30 11 N 1.8294 -0.3462 -2.0718 0
M  V30 12 C -0.0147 -1.965 -1.7321 0
M  V30 13 O 3.2643 2.2427 0.7974 0
M  V30 14 O 1.5232 1.6114 1.9769 0 CHG=-1
M  V30 15 H -1.8155 0.7494 -1.0081 0
M  V30 16 H -3.0431 1.3487 0.1222 0
M  V30 17 H -0.8519 1.5754 1.1555 0
M  V30 18 H -2.618 1.0281 2.478 0
M  V30 19 H -0.5558 -1.4688 0.8191 0
M  V30 20 H 0.4186 -0.5503 1.9013 0
M  V30 21 H 3.3094 1.1543 -1.7003 0
M  V30 22 H 0.4004 -2.4601 -2.6163 0
M  V30 23 H -1.0057 -1.5928 -1.9998 0
M  V30 24 H -0.1067 -2.7224 -0.9493 0
M  V30 END ATOM
M  V30 BEGIN BOND
M  V30 1 1 1 2
M  V30 2 1 2 3
M  V30 3 1 3 4
M  V30 4 1 3 5
M  V30 5 1 5 6
M  V30 6 1 6 7
M  V30 7 1 6 8
M  V30 8 1 7 9
M  V30 9 2 7 10
M  V30 10 2 8 11
M  V30 11 1 8 12
M  V30 12 2 9 13
M  V30 13 1 9 14
M  V30 14 1 10 11
M  V30 15 1 2 15
M  V30 16 1 2 16
M  V30 17 1 3 17
M  V30 18 1 4 18
M  V30 19 1 5 19
M  V30 20 1 5 20
M  V30 21 1 10 21
M  V30 22 1 12 22
M  V30 23 1 12 23
M  V30 24 1 12 24
M  V30 END BOND
M  V30 BEGIN COLLECTION
M  V30 MDLV30/STERAC1 ATOMS=(1 3)
M  V30 END COLLECTION
M  V30 END CTAB
M  END
>  <Column 1>
2030

>  <level_0>
2207

>  <index>
2207

>  <Unnamed: 0>
2207

>  <NO.>
2219

>  <Name>
ornidazole

>  <IUPAC_name>
1-chloro-3-(2-methyl-5-nitroimidazol-1-yl)propan-2-ol

>  <SMILES>
Cc1ncc([N+](=O)[O-])n1CC(O)CCl

>  <CID>
28061

>  <logBB>


>  <BBB+/BBB->
BBB+

>  <Inchi>
InChI=1S/C7H10ClN3O3/c1-5-9-3-7(11(13)14)10(5)4-6(12)2-8/h3-6-12H-2-4H2-1H3

>  <threshold>
-1

>  <reference>
R1|R19|R27|R27|R30|R36|

>  <group>
B

>  <Class>
1

>  <ABC>
10.22

>  <ABCGG>
10.35

>  <nAcid>
0

>  <nBase>
0

>  <nAromAtom>
5

>  <nAromBond>
5

>  <nAtom>
24

>  <nHeavyAtom>
14

>  <nSpiro>
0

>  <nBridgehead>
0

>  <nHetero>
7

>  <nN>
3

>  <nO>
3

>  <nF>
0

>  <BalabanJ>
2.53

>  <BertzCT>
338.92

>  <nBonds>
24

>  <nBondsO>
14

>  <nBondsS>
18

>  <nBondsD>
1

>  <nBondsT>
0

>  <nBondsA>
5

>  <nBondsM>
6

>  <nBondsKS>
21

>  <nBondsKD>
3

>  <RNCG>
0.23

>  <RPCG>
0.2

>  <FCSP3>
0.57

>  <SZ>
19

>  <Sm>
18.29

>  <Sv>
15.22

>  <Sse>
25.19

>  <Sp>
15.71

>  <Si>
27.73

>  <MZ>
0.79

>  <Mm>
0.76

>  <Mv>
0.63

>  <Mse>
1.05

>  <Mp>
0.65

>  <Mi>
1.16

>  <NsCH3>
1

>  <NdCH2>
0

>  <NssCH2>
2

>  <NtCH>
0

>  <NdsCH>
0

>  <NaaCH>
1

>  <NsssCH>
1

>  <NddC>
0

>  <NtsC>
0

>  <NdssC>
0

>  <NaasC>
2

>  <NaaaC>
0

>  <NssssC>
0

>  <NsNH3>
0

>  <NsNH2>
0

>  <NssNH2>
0

>  <NdNH>
0

>  <NssNH>
0

>  <NaaNH>
0

>  <NtN>
0

>  <NsssNH>
0

>  <NdsN>
0

>  <NaaN>
1

>  <NsssN>
0

>  <NddsN>
1

>  <NaasN>
1

>  <NssssN>
0

>  <NsOH>
1

>  <NdO>
1

>  <NssO>
0

>  <NaaO>
0

>  <NsF>
0

>  <NsSiH3>
0

>  <NssSiH2>
0

>  <NsssSiH>
0

>  <NssssSi>
0

>  <NsPH2>
0

>  <NssPH>
0

>  <NsssP>
0

>  <NdsssP>
0

>  <NsssssP>
0

>  <NsSH>
0

>  <NdS>
0

>  <NssS>
0

>  <NaaS>
0

>  <NdssS>
0

>  <NddssS>
0

>  <NsCl>
1

>  <NsBr>
0

>  <NsI>
0

>  <fragCpx>
14.07

>  <fMF>
0.21

>  <nHBAcc>
5

>  <nHBDon>
1

>  <Kier1>
12.07

>  <Kier2>
5.19

>  <Lipinski>
1

>  <GhoseFilter>
1

>  <FilterItLogS>
-1.56

>  <VMcGowan>
145.52

>  <LabuteASA>
85.28

>  <PEOE_VSA1>
15.22

>  <PEOE_VSA2>
0

>  <PEOE_VSA3>
9.55

>  <PEOE_VSA4>
0

>  <PEOE_VSA5>
11.6

>  <PEOE_VSA6>
0

>  <PEOE_VSA7>
4.92

>  <PEOE_VSA8>
6.92

>  <PEOE_VSA9>
5.88

>  <PEOE_VSA10>
18.85

>  <PEOE_VSA11>
5.82

>  <PEOE_VSA12>
0

>  <PEOE_VSA13>
0

>  <SMR_VSA1>
10.03

>  <SMR_VSA2>
0

>  <SMR_VSA3>
9.55

>  <SMR_VSA4>
0

>  <SMR_VSA5>
19.57

>  <SMR_VSA6>
5.88

>  <SMR_VSA7>
22.14

>  <SMR_VSA8>
0

>  <SMR_VSA9>
0

>  <SlogP_VSA1>
0

>  <SlogP_VSA2>
31.56

>  <SlogP_VSA3>
6.54

>  <SlogP_VSA4>
17.04

>  <SlogP_VSA5>
5.82

>  <SlogP_VSA6>
6.2

>  <SlogP_VSA7>
0

>  <SlogP_VSA8>
0

>  <SlogP_VSA9>
0

>  <SlogP_VSA10>
5.82

>  <SlogP_VSA11>
0

>  <EState_VSA1>
11.03

>  <EState_VSA2>
18.24

>  <EState_VSA3>
5.82

>  <EState_VSA4>
6.2

>  <EState_VSA5>
4.57

>  <EState_VSA6>
6.92

>  <EState_VSA7>
0

>  <EState_VSA8>
4.98

>  <EState_VSA9>
11.6

>  <EState_VSA10>
15.22

>  <VSA_EState1>
1.33

>  <VSA_EState2>
13.79

>  <VSA_EState3>
19.79

>  <VSA_EState4>
0

>  <VSA_EState5>
0.39

>  <VSA_EState6>
0

>  <VSA_EState7>
0.36

>  <VSA_EState8>
1.72

>  <VSA_EState9>
0

>  <apol>
26.24

>  <bpol>
14.56

>  <nRing>
1

>  <nHRing>
1

>  <naRing>
1

>  <naHRing>
1

>  <nARing 2>
0

>  <nAHRing 2>
0

>  <nFRing>
0

>  <nFHRing>
0

>  <nFaRing>
0

>  <nFaHRing>
0

>  <nFARing 2>
0

>  <nFAHRing 2>
0

>  <nRot>
4

>  <SLogP>
0.7

>  <SMR>
50.35

>  <TopoPSA(NO)>
81.19

>  <TopoPSA>
81.19

>  <JGI1>
0.25

>  <JGI2>
0.11

>  <JGI3>
0.07

>  <JGI4>
0.06

>  <JGI5>
0.03

>  <Diameter>
7

>  <Radius>
4

>  <TMWC10>
96.41

>  <TSRW10>
59.01

>  <MW>
219.04

>  <AMW>
9.13

>  <WPath>
302

>  <WPol>
18

>  <Zagreb1>
66

>  <Zagreb2>
75

>  <mZagreb2>
3.25

>  <yes>


>  <nAR-cont>
0.336376

>  <nHA-cont>
0.887625254

>  <MWHBN>
0.405405405

>  <MWHBN-cont>
0.454815448

>  <TPSA-cont>
0.433243384

>  <pka_cont>
0.97

>  <yes.1>


>  <BBB_SCORE>
3.257711194

>  <MMFF94 Energy>
26.798

$$$$
Compound 1676
Actelion Java MolfileCreator 2.0

  0  0  0  0  0  0              0 V3000
M  V30 BEGIN CTAB
M  V30 COUNTS 24 26 0 0 0
M  V30 BEGIN ATOM
M  V30 1 N -1.2764 2.3144 -1.8352 0
M  V30 2 C -1.6704 1.0679 -1.4583 0
M  V30 3 C -0.0892 2.8001 -1.4123 0
M  V30 4 C -0.8094 0.3342 -0.6342 0
M  V30 5 C -2.9926 0.5722 -1.9507 0
M  V30 6 C 0.7985 2.1178 -0.5978 0
M  V30 7 N -0.9411 -0.9292 -0.1046 0
M  V30 8 C 0.4167 0.8307 -0.1949 0
M  V30 9 C 0.1525 -1.2642 0.6577 0
M  V30 10 C 1.024 -0.1772 0.62 0
M  V30 11 C 0.4317 -2.4365 1.3702 0
M  V30 12 C 2.2391 -0.2637 1.331 0
M  V30 13 C 1.6424 -2.4972 2.0664 0
M  V30 14 C 2.5351 -1.4281 2.049 0
M  V30 15 H 0.1431 3.8026 -1.7618 0
M  V30 16 H -3.6499 0.3493 -1.1047 0
M  V30 17 H -3.483 1.3227 -2.5785 0
M  V30 18 H -2.8564 -0.3366 -2.5446 0
M  V30 19 H 1.7373 2.5617 -0.292 0
M  V30 20 H -1.7359 -1.5326 -0.255 0
M  V30 21 H -0.2607 -3.2718 1.3867 0
M  V30 22 H 2.9412 0.5644 1.3234 0
M  V30 23 H 1.8903 -3.3937 2.6304 0
M  V30 24 H 3.4713 -1.4966 2.5976 0
M  V30 END ATOM
M  V30 BEGIN BOND
M  V30 1 2 1 2
M  V30 2 1 1 3
M  V30 3 1 2 4
M  V30 4 1 2 5
M  V30 5 2 3 6
M  V30 6 1 4 7
M  V30 7 2 4 8
M  V30 8 1 7 9
M  V30 9 1 8 10
M  V30 10 1 9 11
M  V30 11 1 10 12
M  V30 12 2 11 13
M  V30 13 2 12 14
M  V30 14 1 6 8
M  V30 15 2 9 10
M  V30 16 1 13 14
M  V30 17 1 3 15
M  V30 18 1 5 16
M  V30 19 1 5 17
M  V30 20 1 5 18
M  V30 21 1 6 19
M  V30 22 1 7 20
M  V30 23 1 11 21
M  V30 24 1 12 22
M  V30 25 1 13 23
M  V30 26 1 14 24
M  V30 END BOND
M  V30 END CTAB
M  END
>  <Column 1>
2031

>  <level_0>
2208

>  <index>
2208

>  <Unnamed: 0>
2208

>  <NO.>
2220

>  <Name>
harman

>  <IUPAC_name>
1-methyl-9h-pyrido[3-4-b]indole

>  <SMILES>
Cc1nccc2c1[nH]c1ccccc12

>  <CID>
5281404

>  <logBB>


>  <BBB+/BBB->
BBB+

>  <Inchi>
InChI=1S/C12H10N2/c1-8-12-10(6-7-13-8)9-4-2-3-5-11(9)14-12/h2-7-14H-1H3

>  <threshold>
-1

>  <reference>
R1|R13|R27|R30|

>  <group>
B

>  <Class>
1

>  <ABC>
11.26

>  <ABCGG>
9.55

>  <nAcid>
0

>  <nBase>
0

>  <nAromAtom>
13

>  <nAromBond>
15

>  <nAtom>
24

>  <nHeavyAtom>
14

>  <nSpiro>
0

>  <nBridgehead>
0

>  <nHetero>
2

>  <nN>
2

>  <nO>
0

>  <nF>
0

>  <BalabanJ>
1.79

>  <BertzCT>
607.82

>  <nBonds>
26

>  <nBondsO>
16

>  <nBondsS>
11

>  <nBondsD>
0

>  <nBondsT>
0

>  <nBondsA>
15

>  <nBondsM>
15

>  <nBondsKS>
20

>  <nBondsKD>
6

>  <RNCG>
0.4

>  <RPCG>
0.19

>  <FCSP3>
0.08

>  <SZ>
16

>  <Sm>
15.17

>  <Sv>
16.23

>  <Sse>
23.77

>  <Sp>
17.31

>  <Si>
26.66

>  <MZ>
0.67

>  <Mm>
0.63

>  <Mv>
0.68

>  <Mse>
0.99

>  <Mp>
0.72

>  <Mi>
1.11

>  <NsCH3>
1

>  <NdCH2>
0

>  <NssCH2>
0

>  <NtCH>
0

>  <NdsCH>
0

>  <NaaCH>
6

>  <NsssCH>
0

>  <NddC>
0

>  <NtsC>
0

>  <NdssC>
0

>  <NaasC>
1

>  <NaaaC>
4

>  <NssssC>
0

>  <NsNH3>
0

>  <NsNH2>
0

>  <NssNH2>
0

>  <NdNH>
0

>  <NssNH>
0

>  <NaaNH>
1

>  <NtN>
0

>  <NsssNH>
0

>  <NdsN>
0

>  <NaaN>
1

>  <NsssN>
0

>  <NddsN>
0

>  <NaasN>
0

>  <NssssN>
0

>  <NsOH>
0

>  <NdO>
0

>  <NssO>
0

>  <NaaO>
0

>  <NsF>
0

>  <NsSiH3>
0

>  <NssSiH2>
0

>  <NsssSiH>
0

>  <NssssSi>
0

>  <NsPH2>
0

>  <NssPH>
0

>  <NsssP>
0

>  <NdsssP>
0

>  <NsssssP>
0

>  <NsSH>
0

>  <NdS>
0

>  <NssS>
0

>  <NaaS>
0

>  <NdssS>
0

>  <NddssS>
0

>  <NsCl>
0

>  <NsBr>
0

>  <NsI>
0

>  <fragCpx>
74.02

>  <fMF>
0.54

>  <nHBAcc>
1

>  <nHBDon>
1

>  <Kier1>
9.24

>  <Kier2>
3.54

>  <Lipinski>
1

>  <GhoseFilter>
1

>  <FilterItLogS>
-4.06

>  <VMcGowan>
141.52

>  <LabuteASA>
81.59

>  <PEOE_VSA1>
4.98

>  <PEOE_VSA2>
4.98

>  <PEOE_VSA3>
0

>  <PEOE_VSA4>
0

>  <PEOE_VSA5>
0

>  <PEOE_VSA6>
18.2

>  <PEOE_VSA7>
19.06

>  <PEOE_VSA8>
22.49

>  <PEOE_VSA9>
11.21

>  <PEOE_VSA10>
0

>  <PEOE_VSA11>
0

>  <PEOE_VSA12>
0

>  <PEOE_VSA13>
0

>  <SMR_VSA1>
0

>  <SMR_VSA2>
0

>  <SMR_VSA3>
9.97

>  <SMR_VSA4>
0

>  <SMR_VSA5>
6.92

>  <SMR_VSA6>
0

>  <SMR_VSA7>
42.22

>  <SMR_VSA8>
0

>  <SMR_VSA9>
0

>  <SlogP_VSA1>
0

>  <SlogP_VSA2>
9.97

>  <SlogP_VSA3>
0

>  <SlogP_VSA4>
6.92

>  <SlogP_VSA5>
5.69

>  <SlogP_VSA6>
36.53

>  <SlogP_VSA7>
0

>  <SlogP_VSA8>
21.81

>  <SlogP_VSA9>
0

>  <SlogP_VSA10>
0

>  <SlogP_VSA11>
0

>  <EState_VSA1>
0

>  <EState_VSA2>
0

>  <EState_VSA3>
0

>  <EState_VSA4>
11.21

>  <EState_VSA5>
16.29

>  <EState_VSA6>
0

>  <EState_VSA7>
19.19

>  <EState_VSA8>
34.23

>  <EState_VSA9>
0

>  <EState_VSA10>
0

>  <VSA_EState1>
0

>  <VSA_EState2>
7.66

>  <VSA_EState3>
2.53

>  <VSA_EState4>
3.38

>  <VSA_EState5>
0

>  <VSA_EState6>
10.38

>  <VSA_EState7>
1.86

>  <VSA_EState8>
2.03

>  <VSA_EState9>
0

>  <apol>
28.91

>  <bpol>
11.74

>  <nRing>
3

>  <nHRing>
2

>  <naRing>
3

>  <naHRing>
2

>  <nARing 2>
0

>  <nAHRing 2>
0

>  <nFRing>
1

>  <nFHRing>
1

>  <nFaRing>
1

>  <nFaHRing>
1

>  <nFARing 2>
0

>  <nFAHRing 2>
0

>  <nRot>
0

>  <SLogP>
3.02

>  <SMR>
58.34

>  <TopoPSA(NO)>
28.68

>  <TopoPSA>
28.68

>  <JGI1>
0.13

>  <JGI2>
0.08

>  <JGI3>
0.06

>  <JGI4>
0.04

>  <JGI5>
0.02

>  <Diameter>
6

>  <Radius>
4

>  <TMWC10>
101.8

>  <TSRW10>
60.78

>  <MW>
182.08

>  <AMW>
7.59

>  <WPath>
267

>  <WPol>
22

>  <Zagreb1>
78

>  <Zagreb2>
95

>  <mZagreb2>
3.03

>  <yes>


>  <nAR-cont>
0.336376

>  <nHA-cont>
0.887625254

>  <MWHBN>
0.148217292

>  <MWHBN-cont>
0.927799946

>  <TPSA-cont>
0.799795791

>  <pka_cont>
0.97

>  <yes.1>


>  <BBB_SCORE>
4.700292755

>  <MMFF94 Energy>
23.998

$$$$
Compound 1677
Actelion Java MolfileCreator 2.0

  0  0  0  0  0  0              0 V3000
M  V30 BEGIN CTAB
M  V30 COUNTS 28 29 0 0 0
M  V30 BEGIN ATOM
M  V30 1 N -1.4944 -2.7542 1.4157 0
M  V30 2 C -1.0566 -2.0695 0.3771 0
M  V30 3 C -1.9961 -1.833 2.2908 0
M  V30 4 N -1.2791 -0.7167 0.5549 0
M  V30 5 C -0.4044 -2.6612 -0.8189 0
M  V30 6 C -1.8739 -0.5641 1.7821 0
M  V30 7 C -0.9665 0.3434 -0.4092 0 CFG=2
M  V30 8 C 0.5104 0.7071 -0.3832 0
M  V30 9 C -1.8381 1.5983 -0.2724 0
M  V30 10 C 1.1694 1.0478 0.8092 0
M  V30 11 C 1.24 0.7382 -1.5838 0
M  V30 12 C 2.5222 1.393 0.8022 0
M  V30 13 C 2.5924 1.0848 -1.5879 0
M  V30 14 C 3.233 1.4105 -0.3951 0
M  V30 15 H -2.4192 -2.1314 3.241 0
M  V30 16 H -0.9551 -2.4119 -1.7306 0
M  V30 17 H 0.626 -2.3081 -0.916 0
M  V30 18 H -0.3763 -3.7524 -0.7349 0
M  V30 19 H -2.1555 0.3962 2.1883 0
M  V30 20 H -1.2096 -0.0916 -1.3877 0
M  V30 21 H -1.6473 2.1346 0.6639 0
M  V30 22 H -1.6391 2.298 -1.0924 0
M  V30 23 H -2.9027 1.3412 -0.3027 0
M  V30 24 H 0.6386 1.0419 1.7591 0
M  V30 25 H 0.7615 0.4914 -2.5293 0
M  V30 26 H 3.0216 1.6465 1.7341 0
M  V30 27 H 3.147 1.1008 -2.5227 0
M  V30 28 H 4.2864 1.6781 -0.398 0
M  V30 END ATOM
M  V30 BEGIN BOND
M  V30 1 2 1 2
M  V30 2 1 1 3
M  V30 3 1 2 4
M  V30 4 1 2 5
M  V30 5 2 3 6
M  V30 6 1 4 7
M  V30 7 1 7 8
M  V30 8 1 7 9
M  V30 9 2 8 10
M  V30 10 1 8 11
M  V30 11 1 10 12
M  V30 12 2 11 13
M  V30 13 2 12 14
M  V30 14 1 4 6
M  V30 15 1 13 14
M  V30 16 1 3 15
M  V30 17 1 5 16
M  V30 18 1 5 17
M  V30 19 1 5 18
M  V30 20 1 6 19
M  V30 21 1 7 20
M  V30 22 1 9 21
M  V30 23 1 9 22
M  V30 24 1 9 23
M  V30 25 1 10 24
M  V30 26 1 11 25
M  V30 27 1 12 26
M  V30 28 1 13 27
M  V30 29 1 14 28
M  V30 END BOND
M  V30 BEGIN COLLECTION
M  V30 MDLV30/STERAC1 ATOMS=(1 7)
M  V30 END COLLECTION
M  V30 END CTAB
M  END
>  <Column 1>
2032

>  <level_0>
2209

>  <index>
2209

>  <Unnamed: 0>
2209

>  <NO.>
2221

>  <Name>
efetozole

>  <IUPAC_name>
2-methyl-1-(1-phenylethyl)imidazole

>  <SMILES>
Cc1nccn1C(C)c1ccccc1

>  <CID>
208911

>  <logBB>


>  <BBB+/BBB->
BBB+

>  <Inchi>
InChI=1S/C12H14N2/c1-10(12-6-4-3-5-7-12)14-9-8-13-11(14)2/h3-10H-1-2H3

>  <threshold>
-1

>  <reference>
R1|R19|R6|R27|R27|R30|

>  <group>
B

>  <Class>
1

>  <ABC>
10.7

>  <ABCGG>
9.97

>  <nAcid>
0

>  <nBase>
0

>  <nAromAtom>
11

>  <nAromBond>
11

>  <nAtom>
28

>  <nHeavyAtom>
14

>  <nSpiro>
0

>  <nBridgehead>
0

>  <nHetero>
2

>  <nN>
2

>  <nO>
0

>  <nF>
0

>  <BalabanJ>
1.89

>  <BertzCT>
403.27

>  <nBonds>
29

>  <nBondsO>
15

>  <nBondsS>
18

>  <nBondsD>
0

>  <nBondsT>
0

>  <nBondsA>
11

>  <nBondsM>
11

>  <nBondsKS>
24

>  <nBondsKD>
5

>  <RNCG>
0.35

>  <RPCG>
0.11

>  <FCSP3>
0.25

>  <SZ>
16.67

>  <Sm>
15.51

>  <Sv>
17.31

>  <Sse>
27.54

>  <Sp>
18.91

>  <Si>
31.49

>  <MZ>
0.6

>  <Mm>
0.55

>  <Mv>
0.62

>  <Mse>
0.98

>  <Mp>
0.68

>  <Mi>
1.12

>  <NsCH3>
2

>  <NdCH2>
0

>  <NssCH2>
0

>  <NtCH>
0

>  <NdsCH>
0

>  <NaaCH>
7

>  <NsssCH>
1

>  <NddC>
0

>  <NtsC>
0

>  <NdssC>
0

>  <NaasC>
2

>  <NaaaC>
0

>  <NssssC>
0

>  <NsNH3>
0

>  <NsNH2>
0

>  <NssNH2>
0

>  <NdNH>
0

>  <NssNH>
0

>  <NaaNH>
0

>  <NtN>
0

>  <NsssNH>
0

>  <NdsN>
0

>  <NaaN>
1

>  <NsssN>
0

>  <NddsN>
0

>  <NaasN>
1

>  <NssssN>
0

>  <NsOH>
0

>  <NdO>
0

>  <NssO>
0

>  <NaaO>
0

>  <NsF>
0

>  <NsSiH3>
0

>  <NssSiH2>
0

>  <NsssSiH>
0

>  <NssssSi>
0

>  <NsPH2>
0

>  <NssPH>
0

>  <NsssP>
0

>  <NdsssP>
0

>  <NsssssP>
0

>  <NsSH>
0

>  <NdS>
0

>  <NssS>
0

>  <NaaS>
0

>  <NdssS>
0

>  <NddssS>
0

>  <NsCl>
0

>  <NsBr>
0

>  <NsI>
0

>  <fragCpx>
43.02

>  <fMF>
0.43

>  <nHBAcc>
2

>  <nHBDon>
0

>  <Kier1>
10.52

>  <Kier2>
4.68

>  <Lipinski>
1

>  <GhoseFilter>
1

>  <FilterItLogS>
-2.69

>  <VMcGowan>
156.68

>  <LabuteASA>
84.22

>  <PEOE_VSA1>
4.57

>  <PEOE_VSA2>
0

>  <PEOE_VSA3>
4.98

>  <PEOE_VSA4>
0

>  <PEOE_VSA5>
0

>  <PEOE_VSA6>
30.33

>  <PEOE_VSA7>
19.41

>  <PEOE_VSA8>
12.39

>  <PEOE_VSA9>
6.04

>  <PEOE_VSA10>
5.82

>  <PEOE_VSA11>
0

>  <PEOE_VSA12>
0

>  <PEOE_VSA13>
0

>  <SMR_VSA1>
0

>  <SMR_VSA2>
0

>  <SMR_VSA3>
9.55

>  <SMR_VSA4>
0

>  <SMR_VSA5>
19.89

>  <SMR_VSA6>
0

>  <SMR_VSA7>
54.11

>  <SMR_VSA8>
0

>  <SMR_VSA9>
0

>  <SlogP_VSA1>
0

>  <SlogP_VSA2>
9.55

>  <SlogP_VSA3>
0

>  <SlogP_VSA4>
6.92

>  <SlogP_VSA5>
24.35

>  <SlogP_VSA6>
42.73

>  <SlogP_VSA7>
0

>  <SlogP_VSA8>
0

>  <SlogP_VSA9>
0

>  <SlogP_VSA10>
0

>  <SlogP_VSA11>
0

>  <EState_VSA1>
0

>  <EState_VSA2>
0

>  <EState_VSA3>
6.04

>  <EState_VSA4>
5.82

>  <EState_VSA5>
5.56

>  <EState_VSA6>
0

>  <EState_VSA7>
25.38

>  <EState_VSA8>
40.74

>  <EState_VSA9>
0

>  <EState_VSA10>
0

>  <VSA_EState1>
2.18

>  <VSA_EState2>
4.23

>  <VSA_EState3>
0

>  <VSA_EState4>
1.31

>  <VSA_EState5>
1.06

>  <VSA_EState6>
10.82

>  <VSA_EState7>
3.86

>  <VSA_EState8>
4.21

>  <VSA_EState9>
0

>  <apol>
31.58

>  <bpol>
16.89

>  <nRing>
2

>  <nHRing>
1

>  <naRing>
2

>  <naHRing>
1

>  <nARing 2>
0

>  <nAHRing 2>
0

>  <nFRing>
0

>  <nFHRing>
0

>  <nFaRing>
0

>  <nFaHRing>
0

>  <nFARing 2>
0

>  <nFAHRing 2>
0

>  <nRot>
2

>  <SLogP>
2.8

>  <SMR>
57.22

>  <TopoPSA(NO)>
17.82

>  <TopoPSA>
17.82

>  <JGI1>
0.13

>  <JGI2>
0.09

>  <JGI3>
0.06

>  <JGI4>
0.03

>  <JGI5>
0.02

>  <Diameter>
7

>  <Radius>
4

>  <TMWC10>
97.87

>  <TSRW10>
58.99

>  <MW>
186.12

>  <AMW>
6.65

>  <WPath>
298

>  <WPol>
18

>  <Zagreb1>
70

>  <Zagreb2>
81

>  <mZagreb2>
3.17

>  <yes>


>  <nAR-cont>
0.336376

>  <nHA-cont>
0.887625254

>  <MWHBN>
0.146599832

>  <MWHBN-cont>
0.923373145

>  <TPSA-cont>
0.875605334

>  <pka_cont>
0.97

>  <yes.1>


>  <BBB_SCORE>
4.84527164

>  <MMFF94 Energy>
39.053

$$$$
Compound 1678
Actelion Java MolfileCreator 2.0

  0  0  0  0  0  0              0 V3000
M  V30 BEGIN CTAB
M  V30 COUNTS 28 29 0 0 0
M  V30 BEGIN ATOM
M  V30 1 N -2.0506 -0.8671 0.3152 0
M  V30 2 C -0.6997 -0.8563 0.4307 0
M  V30 3 C -2.7148 -1.821 1.0049 0
M  V30 4 N 0.0155 0.1359 -0.2497 0
M  V30 5 C -0.05 -1.8287 1.2212 0
M  V30 6 C -2.0721 -2.7523 1.7943 0
M  V30 7 C -0.5459 0.4998 -1.5526 0
M  V30 8 C 0.4087 1.2628 0.5991 0
M  V30 9 N -0.7315 -2.78 1.9225 0
M  V30 10 C 1.4455 -1.893 1.3163 0
M  V30 11 C 0.4669 1.3463 -2.324 0
M  V30 12 C 1.4331 2.1247 -0.1382 0
M  V30 13 C 0.9131 2.5574 -1.5075 0
M  V30 14 H -3.7936 -1.8123 0.9045 0
M  V30 15 H -2.6205 -3.5078 2.3442 0
M  V30 16 H -0.7674 -0.398 -2.1431 0
M  V30 17 H -1.4797 1.0641 -1.4305 0
M  V30 18 H -0.4723 1.867 0.8531 0
M  V30 19 H 0.8531 0.9284 1.5427 0
M  V30 20 H 1.8255 -1.0933 1.9574 0
M  V30 21 H 1.761 -2.8478 1.7504 0
M  V30 22 H 1.904 -1.8171 0.3255 0
M  V30 23 H 0.0294 1.677 -3.2724 0
M  V30 24 H 1.344 0.7339 -2.5683 0
M  V30 25 H 2.3619 1.5553 -0.269 0
M  V30 26 H 1.6774 3.0077 0.4625 0
M  V30 27 H 1.6947 3.1031 -2.0473 0
M  V30 28 H 0.0684 3.2451 -1.379 0
M  V30 END ATOM
M  V30 BEGIN BOND
M  V30 1 2 1 2
M  V30 2 1 1 3
M  V30 3 1 2 4
M  V30 4 1 2 5
M  V30 5 2 3 6
M  V30 6 1 4 7
M  V30 7 1 4 8
M  V30 8 2 5 9
M  V30 9 1 5 10
M  V30 10 1 7 11
M  V30 11 1 8 12
M  V30 12 1 11 13
M  V30 13 1 6 9
M  V30 14 1 12 13
M  V30 15 1 3 14
M  V30 16 1 6 15
M  V30 17 1 7 16
M  V30 18 1 7 17
M  V30 19 1 8 18
M  V30 20 1 8 19
M  V30 21 1 10 20
M  V30 22 1 10 21
M  V30 23 1 10 22
M  V30 24 1 11 23
M  V30 25 1 11 24
M  V30 26 1 12 25
M  V30 27 1 12 26
M  V30 28 1 13 27
M  V30 29 1 13 28
M  V30 END BOND
M  V30 END CTAB
M  END
>  <Column 1>
2033

>  <level_0>
2210

>  <index>
2210

>  <Unnamed: 0>
2210

>  <NO.>
2222

>  <Name>
modaline

>  <IUPAC_name>
2-methyl-3-piperidin-1-ylpyrazine

>  <SMILES>
Cc1nccnc1N1CCCCC1

>  <CID>
17860

>  <logBB>


>  <BBB+/BBB->
BBB+

>  <Inchi>
InChI=1S/C10H15N3/c1-9-10(12-6-5-11-9)13-7-3-2-4-8-13/h5-6H-2-4-7-8H2-1H3

>  <threshold>
-1

>  <reference>
R1|R13|R19|R6|R24|R27|R27|R27|R30|R30|

>  <group>
B

>  <Class>
1

>  <ABC>
9.93

>  <ABCGG>
8.63

>  <nAcid>
0

>  <nBase>
0

>  <nAromAtom>
6

>  <nAromBond>
6

>  <nAtom>
28

>  <nHeavyAtom>
13

>  <nSpiro>
0

>  <nBridgehead>
0

>  <nHetero>
3

>  <nN>
3

>  <nO>
0

>  <nF>
0

>  <BalabanJ>
1.88

>  <BertzCT>
279.25

>  <nBonds>
29

>  <nBondsO>
14

>  <nBondsS>
23

>  <nBondsD>
0

>  <nBondsT>
0

>  <nBondsA>
6

>  <nBondsM>
6

>  <nBondsKS>
26

>  <nBondsKD>
3

>  <RNCG>
0.36

>  <RPCG>
0.15

>  <FCSP3>
0.6

>  <SZ>
16

>  <Sm>
14.76

>  <Sv>
16.34

>  <Sse>
27.65

>  <Sp>
17.97

>  <Si>
31.99

>  <MZ>
0.57

>  <Mm>
0.53

>  <Mv>
0.58

>  <Mse>
0.99

>  <Mp>
0.64

>  <Mi>
1.14

>  <NsCH3>
1

>  <NdCH2>
0

>  <NssCH2>
5

>  <NtCH>
0

>  <NdsCH>
0

>  <NaaCH>
2

>  <NsssCH>
0

>  <NddC>
0

>  <NtsC>
0

>  <NdssC>
0

>  <NaasC>
2

>  <NaaaC>
0

>  <NssssC>
0

>  <NsNH3>
0

>  <NsNH2>
0

>  <NssNH2>
0

>  <NdNH>
0

>  <NssNH>
0

>  <NaaNH>
0

>  <NtN>
0

>  <NsssNH>
0

>  <NdsN>
0

>  <NaaN>
2

>  <NsssN>
1

>  <NddsN>
0

>  <NaasN>
0

>  <NssssN>
0

>  <NsOH>
0

>  <NdO>
0

>  <NssO>
0

>  <NaaO>
0

>  <NsF>
0

>  <NsSiH3>
0

>  <NssSiH2>
0

>  <NsssSiH>
0

>  <NssssSi>
0

>  <NsPH2>
0

>  <NssPH>
0

>  <NsssP>
0

>  <NdsssP>
0

>  <NsssssP>
0

>  <NsSH>
0

>  <NdS>
0

>  <NssS>
0

>  <NaaS>
0

>  <NdssS>
0

>  <NddssS>
0

>  <NsCl>
0

>  <NsBr>
0

>  <NsI>
0

>  <fragCpx>
40.03

>  <fMF>
0.43

>  <nHBAcc>
3

>  <nHBDon>
0

>  <Kier1>
9.55

>  <Kier2>
4.48

>  <Lipinski>
1

>  <GhoseFilter>
1

>  <FilterItLogS>
-2.46

>  <VMcGowan>
147.08

>  <LabuteASA>
78.81

>  <PEOE_VSA1>
4.9

>  <PEOE_VSA2>
4.98

>  <PEOE_VSA3>
4.98

>  <PEOE_VSA4>
0

>  <PEOE_VSA5>
0

>  <PEOE_VSA6>
0

>  <PEOE_VSA7>
26.19

>  <PEOE_VSA8>
25.48

>  <PEOE_VSA9>
5.69

>  <PEOE_VSA10>
5.82

>  <PEOE_VSA11>
0

>  <PEOE_VSA12>
0

>  <PEOE_VSA13>
0

>  <SMR_VSA1>
0

>  <SMR_VSA2>
0

>  <SMR_VSA3>
9.97

>  <SMR_VSA4>
0

>  <SMR_VSA5>
26.19

>  <SMR_VSA6>
17.99

>  <SMR_VSA7>
18.09

>  <SMR_VSA8>
0

>  <SMR_VSA9>
0

>  <SlogP_VSA1>
4.9

>  <SlogP_VSA2>
23.06

>  <SlogP_VSA3>
0

>  <SlogP_VSA4>
6.92

>  <SlogP_VSA5>
24.96

>  <SlogP_VSA6>
12.39

>  <SlogP_VSA7>
0

>  <SlogP_VSA8>
0

>  <SlogP_VSA9>
0

>  <SlogP_VSA10>
5.82

>  <SlogP_VSA11>
0

>  <EState_VSA1>
0

>  <EState_VSA2>
0

>  <EState_VSA3>
0

>  <EState_VSA4>
24.6

>  <EState_VSA5>
19.26

>  <EState_VSA6>
12.39

>  <EState_VSA7>
6.92

>  <EState_VSA8>
14.87

>  <EState_VSA9>
0

>  <EState_VSA10>
0

>  <VSA_EState1>
0

>  <VSA_EState2>
10.95

>  <VSA_EState3>
0

>  <VSA_EState4>
1.05

>  <VSA_EState5>
1.07

>  <VSA_EState6>
0

>  <VSA_EState7>
7.46

>  <VSA_EState8>
4.3

>  <VSA_EState9>
0

>  <apol>
30

>  <bpol>
19.04

>  <nRing>
2

>  <nHRing>
2

>  <naRing>
1

>  <naHRing>
1

>  <nARing 2>
1

>  <nAHRing 2>
1

>  <nFRing>
0

>  <nFHRing>
0

>  <nFaRing>
0

>  <nFaHRing>
0

>  <nFARing 2>
0

>  <nFAHRing 2>
0

>  <nRot>
1

>  <SLogP>
1.78

>  <SMR>
52.83

>  <TopoPSA(NO)>
29.02

>  <TopoPSA>
29.02

>  <JGI1>
0.11

>  <JGI2>
0.07

>  <JGI3>
0.05

>  <JGI4>
0.03

>  <JGI5>
0.02

>  <Diameter>
7

>  <Radius>
4

>  <TMWC10>
94.59

>  <TSRW10>
44.03

>  <MW>
177.13

>  <AMW>
6.33

>  <WPath>
240

>  <WPol>
17

>  <Zagreb1>
64

>  <Zagreb2>
73

>  <mZagreb2>
2.97

>  <yes>


>  <nAR-cont>
0.816016

>  <nHA-cont>
0.841215992

>  <MWHBN>
0.225411046

>  <MWHBN-cont>
0.990991168

>  <TPSA-cont>
0.79742238

>  <pka_cont>
0.97

>  <yes.1>


>  <BBB_SCORE>
5.223563503

>  <MMFF94 Energy>
50.269

$$$$
Compound 1679
Actelion Java MolfileCreator 2.0

  0  0  0  0  0  0              0 V3000
M  V30 BEGIN CTAB
M  V30 COUNTS 17 17 0 0 0
M  V30 BEGIN ATOM
M  V30 1 Cl 0.1658 3.4873 1.6595 0
M  V30 2 C 0.4972 1.7745 1.3044 0
M  V30 3 C 0.2708 1.4832 -0.1745 0
M  V30 4 C 0.502 0.0361 -0.4869 0
M  V30 5 S 2.0615 -0.5252 -0.939 0
M  V30 6 C -0.3928 -1.0235 -0.4767 0
M  V30 7 C 1.434 -2.111 -1.0783 0
M  V30 8 N 0.1554 -2.2509 -0.8119 0
M  V30 9 C -1.8424 -0.9664 -0.1486 0
M  V30 10 H -0.1635 1.1727 1.9366 0
M  V30 11 H 1.531 1.5691 1.6001 0
M  V30 12 H -0.7559 1.7511 -0.4551 0
M  V30 13 H 0.9291 2.1116 -0.7879 0
M  V30 14 H 2.0582 -2.946 -1.3681 0
M  V30 15 H -2.375 -0.3503 -0.8797 0
M  V30 16 H -2.2867 -1.9667 -0.1587 0
M  V30 17 H -1.9947 -0.5383 0.847 0
M  V30 END ATOM
M  V30 BEGIN BOND
M  V30 1 1 1 2
M  V30 2 1 2 3
M  V30 3 1 3 4
M  V30 4 1 4 5
M  V30 5 2 4 6
M  V30 6 1 5 7
M  V30 7 1 6 8
M  V30 8 1 6 9
M  V30 9 2 7 8
M  V30 10 1 2 10
M  V30 11 1 2 11
M  V30 12 1 3 12
M  V30 13 1 3 13
M  V30 14 1 7 14
M  V30 15 1 9 15
M  V30 16 1 9 16
M  V30 17 1 9 17
M  V30 END BOND
M  V30 END CTAB
M  END
>  <Column 1>
2034

>  <level_0>
2211

>  <index>
2211

>  <Unnamed: 0>
2211

>  <NO.>
2223

>  <Name>
clomethiazole

>  <IUPAC_name>
5-(2-chloroethyl)-4-methyl-1-3-thiazole

>  <SMILES>
Cc1ncsc1CCCl

>  <CID>
10783

>  <logBB>


>  <BBB+/BBB->
BBB+

>  <Inchi>
InChI=1S/C6H8ClNS/c1-5-6(2-3-7)9-4-8-5/h4H-2-3H2-1H3

>  <threshold>
-1

>  <reference>
R1|R13|R19|R6|R14|R24|R27|R27|R27|R30|R30|R36|

>  <group>
B

>  <Class>
1

>  <ABC>
6.43

>  <ABCGG>
6.66

>  <nAcid>
0

>  <nBase>
0

>  <nAromAtom>
5

>  <nAromBond>
5

>  <nAtom>
17

>  <nHeavyAtom>
9

>  <nSpiro>
0

>  <nBridgehead>
0

>  <nHetero>
3

>  <nN>
1

>  <nO>
0

>  <nF>
0

>  <BalabanJ>
2.22

>  <BertzCT>
184.94

>  <nBonds>
17

>  <nBondsO>
9

>  <nBondsS>
12

>  <nBondsD>
0

>  <nBondsT>
0

>  <nBondsA>
5

>  <nBondsM>
5

>  <nBondsKS>
15

>  <nBondsKD>
2

>  <RNCG>
0.47

>  <RPCG>
0.18

>  <FCSP3>
0.5

>  <SZ>
14

>  <Sm>
13.46

>  <Sv>
11.2

>  <Sse>
17.06

>  <Sp>
12.89

>  <Si>
19.02

>  <MZ>
0.82

>  <Mm>
0.79

>  <Mv>
0.66

>  <Mse>
1

>  <Mp>
0.76

>  <Mi>
1.12

>  <NsCH3>
1

>  <NdCH2>
0

>  <NssCH2>
2

>  <NtCH>
0

>  <NdsCH>
0

>  <NaaCH>
1

>  <NsssCH>
0

>  <NddC>
0

>  <NtsC>
0

>  <NdssC>
0

>  <NaasC>
2

>  <NaaaC>
0

>  <NssssC>
0

>  <NsNH3>
0

>  <NsNH2>
0

>  <NssNH2>
0

>  <NdNH>
0

>  <NssNH>
0

>  <NaaNH>
0

>  <NtN>
0

>  <NsssNH>
0

>  <NdsN>
0

>  <NaaN>
1

>  <NsssN>
0

>  <NddsN>
0

>  <NaasN>
0

>  <NssssN>
0

>  <NsOH>
0

>  <NdO>
0

>  <NssO>
0

>  <NaaO>
0

>  <NsF>
0

>  <NsSiH3>
0

>  <NssSiH2>
0

>  <NsssSiH>
0

>  <NssssSi>
0

>  <NsPH2>
0

>  <NssPH>
0

>  <NsssP>
0

>  <NdsssP>
0

>  <NsssssP>
0

>  <NsSH>
0

>  <NdS>
0

>  <NssS>
0

>  <NaaS>
1

>  <NdssS>
0

>  <NddssS>
0

>  <NsCl>
1

>  <NsBr>
0

>  <NsI>
0

>  <fragCpx>
9.03

>  <fMF>
0.29

>  <nHBAcc>
2

>  <nHBDon>
0

>  <Kier1>
7.11

>  <Kier2>
3.24

>  <Lipinski>
1

>  <GhoseFilter>
0

>  <FilterItLogS>
-2.94

>  <VMcGowan>
114.51

>  <LabuteASA>
63.69

>  <PEOE_VSA1>
0

>  <PEOE_VSA2>
0

>  <PEOE_VSA3>
4.98

>  <PEOE_VSA4>
0

>  <PEOE_VSA5>
22.94

>  <PEOE_VSA6>
0

>  <PEOE_VSA7>
13.34

>  <PEOE_VSA8>
10.76

>  <PEOE_VSA9>
11.2

>  <PEOE_VSA10>
0

>  <PEOE_VSA11>
0

>  <PEOE_VSA12>
0

>  <PEOE_VSA13>
0

>  <SMR_VSA1>
0

>  <SMR_VSA2>
0

>  <SMR_VSA3>
4.98

>  <SMR_VSA4>
0

>  <SMR_VSA5>
13.34

>  <SMR_VSA6>
5.88

>  <SMR_VSA7>
16.08

>  <SMR_VSA8>
0

>  <SMR_VSA9>
0

>  <SlogP_VSA1>
0

>  <SlogP_VSA2>
10.86

>  <SlogP_VSA3>
6.42

>  <SlogP_VSA4>
6.92

>  <SlogP_VSA5>
10.57

>  <SlogP_VSA6>
5.51

>  <SlogP_VSA7>
0

>  <SlogP_VSA8>
0

>  <SlogP_VSA9>
0

>  <SlogP_VSA10>
0

>  <SlogP_VSA11>
0

>  <EState_VSA1>
0

>  <EState_VSA2>
0

>  <EState_VSA3>
5.88

>  <EState_VSA4>
12.11

>  <EState_VSA5>
4.88

>  <EState_VSA6>
11.34

>  <EState_VSA7>
12.43

>  <EState_VSA8>
4.98

>  <EState_VSA9>
11.6

>  <EState_VSA10>
0

>  <VSA_EState1>
0

>  <VSA_EState2>
5.41

>  <VSA_EState3>
0

>  <VSA_EState4>
2.98

>  <VSA_EState5>
0.7

>  <VSA_EState6>
0

>  <VSA_EState7>
0.96

>  <VSA_EState8>
2.01

>  <VSA_EState9>
0

>  <apol>
21.53

>  <bpol>
12.14

>  <nRing>
1

>  <nHRing>
1

>  <naRing>
1

>  <naHRing>
1

>  <nARing 2>
0

>  <nAHRing 2>
0

>  <nFRing>
0

>  <nFHRing>
0

>  <nFaRing>
0

>  <nFaHRing>
0

>  <nFARing 2>
0

>  <nFAHRing 2>
0

>  <nRot>
2

>  <SLogP>
2.23

>  <SMR>
41.28

>  <TopoPSA(NO)>
12.89

>  <TopoPSA>
41.13

>  <JGI1>
0.17

>  <JGI2>
0.1

>  <JGI3>
0.07

>  <JGI4>
0.04

>  <JGI5>
0.03

>  <Diameter>
5

>  <Radius>
3

>  <TMWC10>
80.21

>  <TSRW10>
50.7

>  <MW>
161.01

>  <AMW>
9.47

>  <WPath>
90

>  <WPol>
8

>  <Zagreb1>
40

>  <Zagreb2>
44

>  <mZagreb2>
2.19

>  <yes>


>  <nAR-cont>
0.336376

>  <nHA-cont>
0.56070381

>  <MWHBN>
0.157617186

>  <MWHBN-cont>
0.950745919

>  <TPSA-cont>
0.71288706

>  <pka_cont>
0.97

>  <yes.1>


>  <BBB_SCORE>
4.233972808

>  <MMFF94 Energy>
10.219

$$$$
Compound 1680
Actelion Java MolfileCreator 2.0

  0  0  0  0  0  0              0 V3000
M  V30 BEGIN CTAB
M  V30 COUNTS 34 36 0 0 0
M  V30 BEGIN ATOM
M  V30 1 Cl 4.1838 3.781 0.9643 0
M  V30 2 C 2.8505 3.0763 0.1356 0
M  V30 3 C 2.0678 2.1182 0.7745 0
M  V30 4 C 2.5645 3.4708 -1.1717 0
M  V30 5 C 0.9935 1.5387 0.09 0
M  V30 6 C 1.4794 2.9098 -1.8467 0
M  V30 7 C 0.1496 0.5306 0.7914 0
M  V30 8 C 0.6884 1.9486 -1.2153 0
M  V30 9 N -0.1728 0.7828 2.0158 0
M  V30 10 C -0.2757 -0.6528 0.0521 0
M  V30 11 C -1.0429 -0.1251 2.7675 0
M  V30 12 C -1.4812 -1.3223 0.1885 0
M  V30 13 C 0.4265 -1.4034 -0.9442 0
M  V30 14 C -2.4461 -0.2022 2.15 0
M  V30 15 N -1.4684 -2.3194 -0.7567 0
M  V30 16 N -2.5203 -1.1468 1.0406 0
M  V30 17 N -0.3206 -2.3905 -1.4514 0
M  V30 18 C 1.8185 -1.2405 -1.4395 0
M  V30 19 C -2.5122 -3.2784 -1.028 0
M  V30 20 H 2.287 1.8209 1.7971 0
M  V30 21 H 3.1771 4.2209 -1.6656 0
M  V30 22 H 1.2461 3.2264 -2.8606 0
M  V30 23 H -0.1678 1.5331 -1.7426 0
M  V30 24 H -1.1382 0.2932 3.7763 0
M  V30 25 H -0.5798 -1.1124 2.8853 0
M  V30 26 H -2.7789 0.7858 1.8114 0
M  V30 27 H -3.1515 -0.5376 2.9186 0
M  V30 28 H -3.3786 -1.6875 0.9897 0
M  V30 29 H 2.2293 -2.1992 -1.7746 0
M  V30 30 H 1.8471 -0.5493 -2.2867 0
M  V30 31 H 2.4783 -0.8645 -0.652 0
M  V30 32 H -2.6458 -3.9027 -0.1411 0
M  V30 33 H -2.2272 -3.9003 -1.8807 0
M  V30 34 H -3.4311 -2.7348 -1.2614 0
M  V30 END ATOM
M  V30 BEGIN BOND
M  V30 1 1 1 2
M  V30 2 2 2 3
M  V30 3 1 2 4
M  V30 4 1 3 5
M  V30 5 2 4 6
M  V30 6 1 5 7
M  V30 7 2 5 8
M  V30 8 2 7 9
M  V30 9 1 7 10
M  V30 10 1 9 11
M  V30 11 2 10 12
M  V30 12 1 10 13
M  V30 13 1 11 14
M  V30 14 1 12 15
M  V30 15 1 12 16
M  V30 16 2 13 17
M  V30 17 1 13 18
M  V30 18 1 15 19
M  V30 19 1 6 8
M  V30 20 1 14 16
M  V30 21 1 15 17
M  V30 22 1 3 20
M  V30 23 1 4 21
M  V30 24 1 6 22
M  V30 25 1 8 23
M  V30 26 1 11 24
M  V30 27 1 11 25
M  V30 28 1 14 26
M  V30 29 1 14 27
M  V30 30 1 16 28
M  V30 31 1 18 29
M  V30 32 1 18 30
M  V30 33 1 18 31
M  V30 34 1 19 32
M  V30 35 1 19 33
M  V30 36 1 19 34
M  V30 END BOND
M  V30 END CTAB
M  END
>  <Column 1>
2035

>  <level_0>
2212

>  <index>
2212

>  <Unnamed: 0>
2212

>  <NO.>
2224

>  <Name>
zometapine

>  <IUPAC_name>
4-(3-chlorophenyl)-1-3-dimethyl-7-8-dihydro-6h-pyrazolo[3-4-e][1-4]diazepine

>  <SMILES>
Cc1nn(C)c2c1C(c1cccc(Cl)c1)=NCCN2

>  <CID>
135410917

>  <logBB>


>  <BBB+/BBB->
BBB+

>  <Inchi>
InChI=1S/C14H15ClN4/c1-9-12-13(10-4-3-5-11(15)8-10)16-6-7-17-14(12)19(2)18-9/h3-5-8-17H-6-7H2-1-2H3

>  <threshold>
-1

>  <reference>
R1|R13|R19|R6|R24|R27|R27|R27|R30|R30|

>  <group>
B

>  <Class>
1

>  <ABC>
14.98

>  <ABCGG>
12.94

>  <nAcid>
0

>  <nBase>
0

>  <nAromAtom>
11

>  <nAromBond>
11

>  <nAtom>
34

>  <nHeavyAtom>
19

>  <nSpiro>
0

>  <nBridgehead>
0

>  <nHetero>
5

>  <nN>
4

>  <nO>
0

>  <nF>
0

>  <BalabanJ>
1.78

>  <BertzCT>
657.46

>  <nBonds>
36

>  <nBondsO>
21

>  <nBondsS>
24

>  <nBondsD>
1

>  <nBondsT>
0

>  <nBondsA>
11

>  <nBondsM>
12

>  <nBondsKS>
30

>  <nBondsKD>
6

>  <RNCG>
0.27

>  <RPCG>
0.12

>  <FCSP3>
0.29

>  <SZ>
24

>  <Sm>
22.88

>  <Sv>
22.19

>  <Sse>
34.08

>  <Sp>
23.93

>  <Si>
38.43

>  <MZ>
0.71

>  <Mm>
0.67

>  <Mv>
0.65

>  <Mse>
1

>  <Mp>
0.7

>  <Mi>
1.13

>  <NsCH3>
2

>  <NdCH2>
0

>  <NssCH2>
2

>  <NtCH>
0

>  <NdsCH>
0

>  <NaaCH>
4

>  <NsssCH>
0

>  <NddC>
0

>  <NtsC>
0

>  <NdssC>
1

>  <NaasC>
5

>  <NaaaC>
0

>  <NssssC>
0

>  <NsNH3>
0

>  <NsNH2>
0

>  <NssNH2>
0

>  <NdNH>
0

>  <NssNH>
1

>  <NaaNH>
0

>  <NtN>
0

>  <NsssNH>
0

>  <NdsN>
1

>  <NaaN>
1

>  <NsssN>
0

>  <NddsN>
0

>  <NaasN>
1

>  <NssssN>
0

>  <NsOH>
0

>  <NdO>
0

>  <NssO>
0

>  <NaaO>
0

>  <NsF>
0

>  <NsSiH3>
0

>  <NssSiH2>
0

>  <NsssSiH>
0

>  <NssssSi>
0

>  <NsPH2>
0

>  <NssPH>
0

>  <NsssP>
0

>  <NdsssP>
0

>  <NsssssP>
0

>  <NsSH>
0

>  <NdS>
0

>  <NssS>
0

>  <NaaS>
0

>  <NdssS>
0

>  <NddssS>
0

>  <NsCl>
1

>  <NsBr>
0

>  <NsI>
0

>  <fragCpx>
99.05

>  <fMF>
0.47

>  <nHBAcc>
4

>  <nHBDon>
1

>  <Kier1>
13.96

>  <Kier2>
5.78

>  <Lipinski>
1

>  <GhoseFilter>
1

>  <FilterItLogS>
-4.63

>  <VMcGowan>
201.9

>  <LabuteASA>
116.66

>  <PEOE_VSA1>
5.32

>  <PEOE_VSA2>
9.67

>  <PEOE_VSA3>
0

>  <PEOE_VSA4>
5.1

>  <PEOE_VSA5>
0

>  <PEOE_VSA6>
23.73

>  <PEOE_VSA7>
19.06

>  <PEOE_VSA8>
24.18

>  <PEOE_VSA9>
23.51

>  <PEOE_VSA10>
5.82

>  <PEOE_VSA11>
0

>  <PEOE_VSA12>
0

>  <PEOE_VSA13>
0

>  <SMR_VSA1>
0

>  <SMR_VSA2>
0

>  <SMR_VSA3>
9.78

>  <SMR_VSA4>
12.04

>  <SMR_VSA5>
6.92

>  <SMR_VSA6>
18.41

>  <SMR_VSA7>
46.11

>  <SMR_VSA8>
0

>  <SMR_VSA9>
0

>  <SlogP_VSA1>
5.32

>  <SlogP_VSA2>
28.58

>  <SlogP_VSA3>
7.05

>  <SlogP_VSA4>
6.92

>  <SlogP_VSA5>
16.82

>  <SlogP_VSA6>
29.26

>  <SlogP_VSA7>
5.02

>  <SlogP_VSA8>
0

>  <SlogP_VSA9>
0

>  <SlogP_VSA10>
5.82

>  <SlogP_VSA11>
0

>  <EState_VSA1>
0

>  <EState_VSA2>
0

>  <EState_VSA3>
0

>  <EState_VSA4>
46.46

>  <EState_VSA5>
0

>  <EState_VSA6>
0

>  <EState_VSA7>
42.92

>  <EState_VSA8>
10.42

>  <EState_VSA9>
16.59

>  <EState_VSA10>
0

>  <VSA_EState1>
1.87

>  <VSA_EState2>
4.69

>  <VSA_EState3>
8.58

>  <VSA_EState4>
4.05

>  <VSA_EState5>
1.02

>  <VSA_EState6>
7.8

>  <VSA_EState7>
0

>  <VSA_EState8>
3.57

>  <VSA_EState9>
1.94

>  <apol>
39.96

>  <bpol>
18.98

>  <nRing>
3

>  <nHRing>
2

>  <naRing>
2

>  <naHRing>
1

>  <nARing 2>
1

>  <nAHRing 2>
1

>  <nFRing>
1

>  <nFHRing>
1

>  <nFaRing>
0

>  <nFaHRing>
0

>  <nFARing 2>
1

>  <nFAHRing 2>
1

>  <nRot>
1

>  <SLogP>
2.64

>  <SMR>
78.39

>  <TopoPSA(NO)>
42.21

>  <TopoPSA>
42.21

>  <JGI1>
0.17

>  <JGI2>
0.07

>  <JGI3>
0.07

>  <JGI4>
0.03

>  <JGI5>
0.02

>  <Diameter>
8

>  <Radius>
4

>  <TMWC10>
113.85

>  <TSRW10>
67.08

>  <MW>
274.1

>  <AMW>
8.06

>  <WPath>
634

>  <WPol>
33

>  <Zagreb1>
102

>  <Zagreb2>
122

>  <mZagreb2>
4.14

>  <yes>


>  <nAR-cont>
0.816016

>  <nHA-cont>
0.998649058

>  <MWHBN>
0.302005941

>  <MWHBN-cont>
0.834704381

>  <TPSA-cont>
0.705347989

>  <pka_cont>
0.97

>  <yes.1>


>  <BBB_SCORE>
4.962417607

>  <MMFF94 Energy>
104.1

$$$$
Compound 1681
Actelion Java MolfileCreator 2.0

  0  0  0  0  0  0              0 V3000
M  V30 BEGIN CTAB
M  V30 COUNTS 36 38 0 0 0
M  V30 BEGIN ATOM
M  V30 1 F -2.8006 -1.9197 -1.6796 0
M  V30 2 C -2.0739 -1.0375 -2.3801 0
M  V30 3 C -1.1658 -0.1894 -1.7482 0
M  V30 4 C -2.2105 -1.0172 -3.766 0
M  V30 5 C -1.038 -0.2117 -0.2768 0
M  V30 6 C -0.3914 0.6954 -2.5105 0
M  V30 7 C -1.4377 -0.1393 -4.5273 0
M  V30 8 N -2.0933 -0.0892 0.4568 0
M  V30 9 C 0.2897 -0.3366 0.2964 0
M  V30 10 C -0.5292 0.716 -3.9003 0
M  V30 11 C -1.9669 -0.1593 1.9232 0
M  V30 12 C 0.7242 0.3457 1.418 0
M  V30 13 C 1.3973 -1.1432 -0.0851 0
M  V30 14 C -1.2984 1.0994 2.4835 0
M  V30 15 N 0.0501 1.3048 2.1678 0
M  V30 16 N 1.9857 -0.1235 1.6794 0
M  V30 17 N 2.4362 -0.9809 0.7437 0
M  V30 18 C 1.5053 -2.1085 -1.2088 0
M  V30 19 O -1.927 1.884 3.2005 0
M  V30 20 C 0.6557 2.5658 2.5612 0
M  V30 21 C 2.8314 0.1756 2.8103 0
M  V30 22 H -2.9183 -1.6885 -4.243 0
M  V30 23 H 0.3075 1.3771 -2.0315 0
M  V30 24 H -1.5457 -0.1198 -5.6094 0
M  V30 25 H 0.0672 1.4044 -4.4954 0
M  V30 26 H -2.9769 -0.2163 2.345 0
M  V30 27 H -1.4448 -1.064 2.2557 0
M  V30 28 H 0.5807 -2.6834 -1.3193 0
M  V30 29 H 1.7059 -1.5821 -2.1467 0
M  V30 30 H 2.3186 -2.8229 -1.0422 0
M  V30 31 H 1.4962 2.8063 1.9034 0
M  V30 32 H 1.0025 2.4806 3.5952 0
M  V30 33 H -0.0764 3.3773 2.5039 0
M  V30 34 H 3.3556 1.1121 2.6073 0
M  V30 35 H 2.2133 0.2604 3.7072 0
M  V30 36 H 3.5514 -0.6359 2.9468 0
M  V30 END ATOM
M  V30 BEGIN BOND
M  V30 1 1 1 2
M  V30 2 2 2 3
M  V30 3 1 2 4
M  V30 4 1 3 5
M  V30 5 1 3 6
M  V30 6 2 4 7
M  V30 7 2 5 8
M  V30 8 1 5 9
M  V30 9 2 6 10
M  V30 10 1 8 11
M  V30 11 2 9 12
M  V30 12 1 9 13
M  V30 13 1 11 14
M  V30 14 1 12 15
M  V30 15 1 12 16
M  V30 16 2 13 17
M  V30 17 1 13 18
M  V30 18 2 14 19
M  V30 19 1 15 20
M  V30 20 1 16 21
M  V30 21 1 7 10
M  V30 22 1 14 15
M  V30 23 1 16 17
M  V30 24 1 4 22
M  V30 25 1 6 23
M  V30 26 1 7 24
M  V30 27 1 10 25
M  V30 28 1 11 26
M  V30 29 1 11 27
M  V30 30 1 18 28
M  V30 31 1 18 29
M  V30 32 1 18 30
M  V30 33 1 20 31
M  V30 34 1 20 32
M  V30 35 1 20 33
M  V30 36 1 21 34
M  V30 37 1 21 35
M  V30 38 1 21 36
M  V30 END BOND
M  V30 END CTAB
M  END
>  <Column 1>
2036

>  <level_0>
2213

>  <index>
2213

>  <Unnamed: 0>
2213

>  <NO.>
2225

>  <Name>
zolazepam

>  <IUPAC_name>
4-(2-fluorophenyl)-1-3-8-trimethyl-6h-pyrazolo[3-4-e][1-4]diazepin-7-one

>  <SMILES>
Cc1nn(C)c2c1C(c1ccccc1F)=NCC(=O)N2C

>  <CID>
35775

>  <logBB>


>  <BBB+/BBB->
BBB+

>  <Inchi>
InChI=1S/C15H15FN4O/c1-9-13-14(10-6-4-5-7-11(10)16)17-8-12(21)19(2)15(13)20(3)18-9/h4-7H-8H2-1-3H3

>  <threshold>
-1

>  <reference>
R1|R13|R19|R6|R24|R27|R27|R27|R30|R30|

>  <group>
B

>  <Class>
1

>  <ABC>
16.49

>  <ABCGG>
14.55

>  <nAcid>
0

>  <nBase>
0

>  <nAromAtom>
11

>  <nAromBond>
11

>  <nAtom>
36

>  <nHeavyAtom>
21

>  <nSpiro>
0

>  <nBridgehead>
0

>  <nHetero>
6

>  <nN>
4

>  <nO>
1

>  <nF>
1

>  <BalabanJ>
1.88

>  <BertzCT>
763.03

>  <nBonds>
38

>  <nBondsO>
23

>  <nBondsS>
25

>  <nBondsD>
2

>  <nBondsT>
0

>  <nBondsA>
11

>  <nBondsM>
13

>  <nBondsKS>
31

>  <nBondsKD>
7

>  <RNCG>
0.18

>  <RPCG>
0.15

>  <FCSP3>
0.27

>  <SZ>
25

>  <Sm>
23.84

>  <Sv>
23.46

>  <Sse>
36.6

>  <Sp>
24.44

>  <Si>
41.03

>  <MZ>
0.69

>  <Mm>
0.66

>  <Mv>
0.65

>  <Mse>
1.02

>  <Mp>
0.68

>  <Mi>
1.14

>  <NsCH3>
3

>  <NdCH2>
0

>  <NssCH2>
1

>  <NtCH>
0

>  <NdsCH>
0

>  <NaaCH>
4

>  <NsssCH>
0

>  <NddC>
0

>  <NtsC>
0

>  <NdssC>
2

>  <NaasC>
5

>  <NaaaC>
0

>  <NssssC>
0

>  <NsNH3>
0

>  <NsNH2>
0

>  <NssNH2>
0

>  <NdNH>
0

>  <NssNH>
0

>  <NaaNH>
0

>  <NtN>
0

>  <NsssNH>
0

>  <NdsN>
1

>  <NaaN>
1

>  <NsssN>
1

>  <NddsN>
0

>  <NaasN>
1

>  <NssssN>
0

>  <NsOH>
0

>  <NdO>
1

>  <NssO>
0

>  <NaaO>
0

>  <NsF>
1

>  <NsSiH3>
0

>  <NssSiH2>
0

>  <NsssSiH>
0

>  <NssssSi>
0

>  <NsPH2>
0

>  <NssPH>
0

>  <NsssP>
0

>  <NdsssP>
0

>  <NsssssP>
0

>  <NsSH>
0

>  <NdS>
0

>  <NssS>
0

>  <NaaS>
0

>  <NdssS>
0

>  <NddssS>
0

>  <NsCl>
0

>  <NsBr>
0

>  <NsI>
0

>  <fragCpx>
109.06

>  <fMF>
0.44

>  <nHBAcc>
4

>  <nHBDon>
0

>  <Kier1>
15.88

>  <Kier2>
6.25

>  <Lipinski>
1

>  <GhoseFilter>
1

>  <FilterItLogS>
-3.85

>  <VMcGowan>
207.08

>  <LabuteASA>
121.26

>  <PEOE_VSA1>
0

>  <PEOE_VSA2>
19.37

>  <PEOE_VSA3>
4.39

>  <PEOE_VSA4>
5.1

>  <PEOE_VSA5>
0

>  <PEOE_VSA6>
12.13

>  <PEOE_VSA7>
19.06

>  <PEOE_VSA8>
19.66

>  <PEOE_VSA9>
16.97

>  <PEOE_VSA10>
18.18

>  <PEOE_VSA11>
0

>  <PEOE_VSA12>
5.91

>  <PEOE_VSA13>
0

>  <SMR_VSA1>
9.18

>  <SMR_VSA2>
0

>  <SMR_VSA3>
9.78

>  <SMR_VSA4>
12.04

>  <SMR_VSA5>
6.92

>  <SMR_VSA6>
18.49

>  <SMR_VSA7>
46.9

>  <SMR_VSA8>
0

>  <SMR_VSA9>
0

>  <SlogP_VSA1>
4.9

>  <SlogP_VSA2>
34.99

>  <SlogP_VSA3>
11.84

>  <SlogP_VSA4>
12.74

>  <SlogP_VSA5>
16.82

>  <SlogP_VSA6>
29.26

>  <SlogP_VSA7>
0

>  <SlogP_VSA8>
0

>  <SlogP_VSA9>
0

>  <SlogP_VSA10>
10.21

>  <SlogP_VSA11>
0

>  <EState_VSA1>
0

>  <EState_VSA2>
18.27

>  <EState_VSA3>
22.66

>  <EState_VSA4>
5.69

>  <EState_VSA5>
10.97

>  <EState_VSA6>
36.98

>  <EState_VSA7>
6.92

>  <EState_VSA8>
10.09

>  <EState_VSA9>
0

>  <EState_VSA10>
9.18

>  <VSA_EState1>
15.76

>  <VSA_EState2>
17.94

>  <VSA_EState3>
4.34

>  <VSA_EState4>
2.29

>  <VSA_EState5>
0.13

>  <VSA_EState6>
6.44

>  <VSA_EState7>
0

>  <VSA_EState8>
1.83

>  <VSA_EState9>
3.45

>  <apol>
40.81

>  <bpol>
21.59

>  <nRing>
3

>  <nHRing>
2

>  <naRing>
2

>  <naHRing>
1

>  <nARing 2>
1

>  <nAHRing 2>
1

>  <nFRing>
1

>  <nFHRing>
1

>  <nFaRing>
0

>  <nFaHRing>
0

>  <nFARing 2>
1

>  <nFAHRing 2>
1

>  <nRot>
1

>  <SLogP>
1.68

>  <SMR>
78.26

>  <TopoPSA(NO)>
50.49

>  <TopoPSA>
50.49

>  <JGI1>
0.17

>  <JGI2>
0.09

>  <JGI3>
0.06

>  <JGI4>
0.04

>  <JGI5>
0.03

>  <Diameter>
8

>  <Radius>
4

>  <TMWC10>
119.46

>  <TSRW10>
69.85

>  <MW>
286.12

>  <AMW>
7.95

>  <WPath>
800

>  <WPol>
40

>  <Zagreb1>
114

>  <Zagreb2>
139

>  <mZagreb2>
4.56

>  <yes>


>  <nAR-cont>
0.816016

>  <nHA-cont>
0.994529749

>  <MWHBN>
0.236475353

>  <MWHBN-cont>
0.979526913

>  <TPSA-cont>
0.647548448

>  <pka_cont>
0.97

>  <yes.1>


>  <BBB_SCORE>
5.059933014

>  <MMFF94 Energy>
108.65

$$$$
Compound 1682
Actelion Java MolfileCreator 2.0

  0  0  0  0  0  0              0 V3000
M  V30 BEGIN CTAB
M  V30 COUNTS 37 39 0 0 0
M  V30 BEGIN ATOM
M  V30 1 O -1.5111 2.8647 0.3975 0
M  V30 2 C -0.9493 1.965 -0.233 0
M  V30 3 N -0.7412 0.6725 0.26 0
M  V30 4 C -0.449 2.2369 -1.6366 0
M  V30 5 C -1.1029 0.3094 1.5861 0
M  V30 6 C -0.1212 -0.31 -0.5131 0
M  V30 7 C 1.0621 2.2646 -1.7005 0
M  V30 8 C -2.3954 0.5641 2.0623 0
M  V30 9 C -0.1764 -0.3167 2.434 0
M  V30 10 C 0.9964 -0.1015 -1.2968 0
M  V30 11 C -0.4905 -1.6626 -0.75 0
M  V30 12 O 1.66 3.3107 -1.9624 0
M  V30 13 N 1.737 1.0636 -1.4692 0
M  V30 14 C -2.7585 0.191 3.3584 0
M  V30 15 C -0.5422 -0.6898 3.7292 0
M  V30 16 N 1.2169 -1.2856 -1.9546 0
M  V30 17 N 0.3463 -2.2549 -1.6126 0
M  V30 18 C -1.6391 -2.4249 -0.1986 0
M  V30 19 C 3.1866 1.0971 -1.362 0
M  V30 20 C -1.8331 -0.4374 4.1896 0
M  V30 21 C 2.2111 -1.57 -2.962 0
M  V30 22 H -0.8623 1.518 -2.3515 0
M  V30 23 H -0.8205 3.222 -1.9452 0
M  V30 24 H -3.13 1.0581 1.4306 0
M  V30 25 H 0.8389 -0.5116 2.0983 0
M  V30 26 H -3.7626 0.3982 3.7198 0
M  V30 27 H 0.1822 -1.1721 4.3804 0
M  V30 28 H -1.8542 -3.3124 -0.8031 0
M  V30 29 H -1.4239 -2.756 0.8218 0
M  V30 30 H -2.544 -1.8094 -0.1842 0
M  V30 31 H 3.6138 1.0576 -2.3681 0
M  V30 32 H 3.5431 0.249 -0.77 0
M  V30 33 H 3.5111 2.0248 -0.8804 0
M  V30 34 H -2.1163 -0.723 5.1997 0
M  V30 35 H 3.1623 -1.7586 -2.4592 0
M  V30 36 H 2.2889 -0.7146 -3.6372 0
M  V30 37 H 1.9074 -2.4521 -3.5323 0
M  V30 END ATOM
M  V30 BEGIN BOND
M  V30 1 2 1 2
M  V30 2 1 2 3
M  V30 3 1 2 4
M  V30 4 1 3 5
M  V30 5 1 3 6
M  V30 6 1 4 7
M  V30 7 2 5 8
M  V30 8 1 5 9
M  V30 9 2 6 10
M  V30 10 1 6 11
M  V30 11 2 7 12
M  V30 12 1 7 13
M  V30 13 1 8 14
M  V30 14 2 9 15
M  V30 15 1 10 16
M  V30 16 2 11 17
M  V30 17 1 11 18
M  V30 18 1 13 19
M  V30 19 2 14 20
M  V30 20 1 16 21
M  V30 21 1 10 13
M  V30 22 1 15 20
M  V30 23 1 16 17
M  V30 24 1 4 22
M  V30 25 1 4 23
M  V30 26 1 8 24
M  V30 27 1 9 25
M  V30 28 1 14 26
M  V30 29 1 15 27
M  V30 30 1 18 28
M  V30 31 1 18 29
M  V30 32 1 18 30
M  V30 33 1 19 31
M  V30 34 1 19 32
M  V30 35 1 19 33
M  V30 36 1 20 34
M  V30 37 1 21 35
M  V30 38 1 21 36
M  V30 39 1 21 37
M  V30 END BOND
M  V30 END CTAB
M  END
>  <Column 1>
2037

>  <level_0>
2214

>  <index>
2214

>  <Unnamed: 0>
2214

>  <NO.>
2226

>  <Name>
zomebazam

>  <IUPAC_name>
1-3-8-trimethyl-4-phenylpyrazolo[3-4-b][1-4]diazepine-5-7-dione

>  <SMILES>
Cc1nn(C)c2c1N(c1ccccc1)C(=O)CC(=O)N2C

>  <CID>
132677

>  <logBB>


>  <BBB+/BBB->
BBB+

>  <Inchi>
InChI=1S/C15H16N4O2/c1-10-14-15(18(3)16-10)17(2)12(20)9-13(21)19(14)11-7-5-4-6-8-11/h4-8H-9H2-1-3H3

>  <threshold>
-1

>  <reference>
R1|R13|R19|R6|R24|R27|R27|R27|R30|R30|

>  <group>
B

>  <Class>
-1

>  <ABC>
16.49

>  <ABCGG>
14.62

>  <nAcid>
0

>  <nBase>
0

>  <nAromAtom>
11

>  <nAromBond>
11

>  <nAtom>
37

>  <nHeavyAtom>
21

>  <nSpiro>
0

>  <nBridgehead>
0

>  <nHetero>
6

>  <nN>
4

>  <nO>
2

>  <nF>
0

>  <BalabanJ>
1.91

>  <BertzCT>
720.77

>  <nBonds>
39

>  <nBondsO>
23

>  <nBondsS>
26

>  <nBondsD>
2

>  <nBondsT>
0

>  <nBondsA>
11

>  <nBondsM>
13

>  <nBondsKS>
32

>  <nBondsKD>
7

>  <RNCG>
0.16

>  <RPCG>
0.13

>  <FCSP3>
0.27

>  <SZ>
25

>  <Sm>
23.67

>  <Sv>
23.8

>  <Sse>
37.42

>  <Sp>
24.98

>  <Si>
41.9

>  <MZ>
0.68

>  <Mm>
0.64

>  <Mv>
0.64

>  <Mse>
1.01

>  <Mp>
0.68

>  <Mi>
1.13

>  <NsCH3>
3

>  <NdCH2>
0

>  <NssCH2>
1

>  <NtCH>
0

>  <NdsCH>
0

>  <NaaCH>
5

>  <NsssCH>
0

>  <NddC>
0

>  <NtsC>
0

>  <NdssC>
2

>  <NaasC>
4

>  <NaaaC>
0

>  <NssssC>
0

>  <NsNH3>
0

>  <NsNH2>
0

>  <NssNH2>
0

>  <NdNH>
0

>  <NssNH>
0

>  <NaaNH>
0

>  <NtN>
0

>  <NsssNH>
0

>  <NdsN>
0

>  <NaaN>
1

>  <NsssN>
2

>  <NddsN>
0

>  <NaasN>
1

>  <NssssN>
0

>  <NsOH>
0

>  <NdO>
2

>  <NssO>
0

>  <NaaO>
0

>  <NsF>
0

>  <NsSiH3>
0

>  <NssSiH2>
0

>  <NsssSiH>
0

>  <NssssSi>
0

>  <NsPH2>
0

>  <NssPH>
0

>  <NsssP>
0

>  <NdsssP>
0

>  <NsssssP>
0

>  <NsSH>
0

>  <NdS>
0

>  <NssS>
0

>  <NaaS>
0

>  <NdssS>
0

>  <NddssS>
0

>  <NsCl>
0

>  <NsBr>
0

>  <NsI>
0

>  <fragCpx>
109.06

>  <fMF>
0.43

>  <nHBAcc>
4

>  <nHBDon>
0

>  <Kier1>
15.88

>  <Kier2>
6.25

>  <Lipinski>
1

>  <GhoseFilter>
1

>  <FilterItLogS>
-2.61

>  <VMcGowan>
211.19

>  <LabuteASA>
122.12

>  <PEOE_VSA1>
0

>  <PEOE_VSA2>
24.07

>  <PEOE_VSA3>
0

>  <PEOE_VSA4>
5.1

>  <PEOE_VSA5>
0

>  <PEOE_VSA6>
18.2

>  <PEOE_VSA7>
19.06

>  <PEOE_VSA8>
19.78

>  <PEOE_VSA9>
5.69

>  <PEOE_VSA10>
12.11

>  <PEOE_VSA11>
5.82

>  <PEOE_VSA12>
11.81

>  <PEOE_VSA13>
0

>  <SMR_VSA1>
9.59

>  <SMR_VSA2>
0

>  <SMR_VSA3>
9.78

>  <SMR_VSA4>
7.05

>  <SMR_VSA5>
13.34

>  <SMR_VSA6>
16.85

>  <SMR_VSA7>
36.03

>  <SMR_VSA8>
0

>  <SMR_VSA9>
0

>  <SlogP_VSA1>
9.8

>  <SlogP_VSA2>
28.64

>  <SlogP_VSA3>
16.64

>  <SlogP_VSA4>
6.92

>  <SlogP_VSA5>
12.11

>  <SlogP_VSA6>
30.33

>  <SlogP_VSA7>
0

>  <SlogP_VSA8>
0

>  <SlogP_VSA9>
0

>  <SlogP_VSA10>
17.19

>  <SlogP_VSA11>
0

>  <EState_VSA1>
0

>  <EState_VSA2>
18.24

>  <EState_VSA3>
17.2

>  <EState_VSA4>
5.69

>  <EState_VSA5>
4.9

>  <EState_VSA6>
23.68

>  <EState_VSA7>
37.26

>  <EState_VSA8>
5.1

>  <EState_VSA9>
0

>  <EState_VSA10>
9.59

>  <VSA_EState1>
1.64

>  <VSA_EState2>
27.78

>  <VSA_EState3>
4.36

>  <VSA_EState4>
2.12

>  <VSA_EState5>
0.16

>  <VSA_EState6>
9.32

>  <VSA_EState7>
-0.15

>  <VSA_EState8>
1.84

>  <VSA_EState9>
3.44

>  <apol>
41.72

>  <bpol>
22.92

>  <nRing>
3

>  <nHRing>
2

>  <naRing>
2

>  <naHRing>
1

>  <nARing 2>
1

>  <nAHRing 2>
1

>  <nFRing>
1

>  <nFHRing>
1

>  <nFaRing>
0

>  <nFaHRing>
0

>  <nFARing 2>
1

>  <nFAHRing 2>
1

>  <nRot>
1

>  <SLogP>
1.76

>  <SMR>
79.56

>  <TopoPSA(NO)>
58.44

>  <TopoPSA>
58.44

>  <JGI1>
0.17

>  <JGI2>
0.08

>  <JGI3>
0.07

>  <JGI4>
0.05

>  <JGI5>
0.03

>  <Diameter>
8

>  <Radius>
4

>  <TMWC10>
119.59

>  <TSRW10>
69.87

>  <MW>
284.13

>  <AMW>
7.68

>  <WPath>
788

>  <WPol>
40

>  <Zagreb1>
114

>  <Zagreb2>
139

>  <mZagreb2>
4.56

>  <yes>


>  <nAR-cont>
0.816016

>  <nHA-cont>
0.994529749

>  <MWHBN>
0.237302026

>  <MWHBN-cont>
0.978496179

>  <TPSA-cont>
0.592052511

>  <pka_cont>
0.97

>  <yes.1>


>  <BBB_SCORE>
4.94739504

>  <MMFF94 Energy>
47.922

$$$$
Compound 1683
Actelion Java MolfileCreator 2.0

  0  0  0  0  0  0              0 V3000
M  V30 BEGIN CTAB
M  V30 COUNTS 32 35 0 0 0
M  V30 BEGIN ATOM
M  V30 1 Br -4.1495 0.2536 2.539 0
M  V30 2 C -2.3497 0.3944 1.9179 0
M  V30 3 S -1.3102 1.6485 2.3584 0
M  V30 4 C -1.7717 -0.5039 1.059 0
M  V30 5 C -0.0493 0.9993 1.4273 0
M  V30 6 C -0.4063 -0.1531 0.741 0
M  V30 7 N 1.2109 1.6066 1.432 0
M  V30 8 C 0.4318 -0.8589 -0.2353 0
M  V30 9 C 2.3918 0.9291 1.1906 0
M  V30 10 C 1.6228 2.9106 1.6843 0
M  V30 11 N 1.7031 -1.0204 -0.1275 0
M  V30 12 C -0.2408 -1.4546 -1.4184 0
M  V30 13 N 3.4166 1.7472 1.2782 0
M  V30 14 C 2.4435 -0.5428 1.0323 0
M  V30 15 N 2.9358 2.9846 1.5888 0
M  V30 16 C 0.7491 4.0824 1.9281 0
M  V30 17 C -0.9733 -0.6931 -2.3377 0
M  V30 18 C -0.1005 -2.8375 -1.6085 0
M  V30 19 Cl -1.1202 1.0243 -2.2272 0
M  V30 20 C -1.5905 -1.3263 -3.4212 0
M  V30 21 C -0.7186 -3.4609 -2.6926 0
M  V30 22 C -1.4676 -2.7067 -3.5945 0
M  V30 23 H -2.2962 -1.3631 0.6568 0
M  V30 24 H 2.0959 -1.0441 1.9443 0
M  V30 25 H 3.4896 -0.846 0.9077 0
M  V30 26 H -0.0659 4.1346 1.2005 0
M  V30 27 H 0.3409 4.0644 2.9425 0
M  V30 28 H 1.3273 5.0076 1.8286 0
M  V30 29 H 0.4927 -3.4294 -0.9143 0
M  V30 30 H -2.1602 -0.7474 -4.145 0
M  V30 31 H -0.6093 -4.5334 -2.8384 0
M  V30 32 H -1.9447 -3.1916 -4.4436 0
M  V30 END ATOM
M  V30 BEGIN BOND
M  V30 1 1 1 2
M  V30 2 1 2 3
M  V30 3 2 2 4
M  V30 4 1 3 5
M  V30 5 1 4 6
M  V30 6 1 5 7
M  V30 7 1 6 8
M  V30 8 1 7 9
M  V30 9 1 7 10
M  V30 10 2 8 11
M  V30 11 1 8 12
M  V30 12 2 9 13
M  V30 13 1 9 14
M  V30 14 2 10 15
M  V30 15 1 10 16
M  V30 16 2 12 17
M  V30 17 1 12 18
M  V30 18 1 17 19
M  V30 19 1 17 20
M  V30 20 2 18 21
M  V30 21 2 20 22
M  V30 22 2 5 6
M  V30 23 1 11 14
M  V30 24 1 13 15
M  V30 25 1 21 22
M  V30 26 1 4 23
M  V30 27 1 14 24
M  V30 28 1 14 25
M  V30 29 1 16 26
M  V30 30 1 16 27
M  V30 31 1 16 28
M  V30 32 1 18 29
M  V30 33 1 20 30
M  V30 34 1 21 31
M  V30 35 1 22 32
M  V30 END BOND
M  V30 END CTAB
M  END
>  <Column 1>
2043

>  <level_0>
2220

>  <index>
2220

>  <Unnamed: 0>
2220

>  <NO.>
2232

>  <Name>
brotizolam

>  <IUPAC_name>
4-bromo-7-(2-chlorophenyl)-13-methyl-3-thia-1-8-11-12-tetrazatricyclo[8.3.0.02-6]trideca-2(6)-4-7-10-12-pentaene

>  <SMILES>
Cc1nnc2n1-c1sc(Br)cc1C(c1ccccc1Cl)=NC2

>  <CID>
2451

>  <logBB>


>  <BBB+/BBB->
BBB+

>  <Inchi>
InChI=1S/C15H10BrClN4S/c1-8-19-20-13-7-18-14(9-4-2-3-5-11(9)17)10-6-12(16)22-15(10)21(8)13/h2-6H-7H2-1H3

>  <threshold>
-1

>  <reference>
R1|R13|R19|R6|R14|R24|R27|R27|R27|R30|R30|R37|

>  <group>
B

>  <Class>
-1

>  <ABC>
17.72

>  <ABCGG>
15.01

>  <nAcid>
0

>  <nBase>
0

>  <nAromAtom>
16

>  <nAromBond>
16

>  <nAtom>
32

>  <nHeavyAtom>
22

>  <nSpiro>
0

>  <nBridgehead>
0

>  <nHetero>
7

>  <nN>
4

>  <nO>
0

>  <nF>
0

>  <BalabanJ>
1.6

>  <BertzCT>
912.16

>  <nBonds>
35

>  <nBondsO>
25

>  <nBondsS>
18

>  <nBondsD>
1

>  <nBondsT>
0

>  <nBondsA>
16

>  <nBondsM>
17

>  <nBondsKS>
27

>  <nBondsKD>
8

>  <RNCG>
0.21

>  <RPCG>
0.12

>  <FCSP3>
0.13

>  <SZ>
32.67

>  <Sm>
32.78

>  <Sv>
24.31

>  <Sse>
32.61

>  <Sp>
26.5

>  <Si>
35.36

>  <MZ>
1.02

>  <Mm>
1.02

>  <Mv>
0.76

>  <Mse>
1.02

>  <Mp>
0.83

>  <Mi>
1.11

>  <NsCH3>
1

>  <NdCH2>
0

>  <NssCH2>
1

>  <NtCH>
0

>  <NdsCH>
0

>  <NaaCH>
5

>  <NsssCH>
0

>  <NddC>
0

>  <NtsC>
0

>  <NdssC>
1

>  <NaasC>
7

>  <NaaaC>
0

>  <NssssC>
0

>  <NsNH3>
0

>  <NsNH2>
0

>  <NssNH2>
0

>  <NdNH>
0

>  <NssNH>
0

>  <NaaNH>
0

>  <NtN>
0

>  <NsssNH>
0

>  <NdsN>
1

>  <NaaN>
2

>  <NsssN>
0

>  <NddsN>
0

>  <NaasN>
1

>  <NssssN>
0

>  <NsOH>
0

>  <NdO>
0

>  <NssO>
0

>  <NaaO>
0

>  <NsF>
0

>  <NsSiH3>
0

>  <NssSiH2>
0

>  <NsssSiH>
0

>  <NssssSi>
0

>  <NsPH2>
0

>  <NssPH>
0

>  <NsssP>
0

>  <NdsssP>
0

>  <NsssssP>
0

>  <NsSH>
0

>  <NdS>
0

>  <NssS>
0

>  <NaaS>
1

>  <NdssS>
0

>  <NddssS>
0

>  <NsCl>
1

>  <NsBr>
1

>  <NsI>
0

>  <fragCpx>
163.07

>  <fMF>
0.59

>  <nHBAcc>
5

>  <nHBDon>
0

>  <Kier1>
15.52

>  <Kier2>
6.14

>  <Lipinski>
1

>  <GhoseFilter>
1

>  <FilterItLogS>
-5.95

>  <VMcGowan>
230.38

>  <LabuteASA>
144.17

>  <PEOE_VSA1>
0

>  <PEOE_VSA2>
9.56

>  <PEOE_VSA3>
0

>  <PEOE_VSA4>
0

>  <PEOE_VSA5>
21.53

>  <PEOE_VSA6>
29.8

>  <PEOE_VSA7>
34.99

>  <PEOE_VSA8>
16.15

>  <PEOE_VSA9>
9.5

>  <PEOE_VSA10>
17.37

>  <PEOE_VSA11>
5.82

>  <PEOE_VSA12>
0

>  <PEOE_VSA13>
0

>  <SMR_VSA1>
0

>  <SMR_VSA2>
0

>  <SMR_VSA3>
14.76

>  <SMR_VSA4>
4.99

>  <SMR_VSA5>
13.47

>  <SMR_VSA6>
0

>  <SMR_VSA7>
61.92

>  <SMR_VSA8>
0

>  <SMR_VSA9>
5

>  <SlogP_VSA1>
0

>  <SlogP_VSA2>
20.48

>  <SlogP_VSA3>
6.54

>  <SlogP_VSA4>
6.92

>  <SlogP_VSA5>
22.78

>  <SlogP_VSA6>
39.11

>  <SlogP_VSA7>
5.02

>  <SlogP_VSA8>
5

>  <SlogP_VSA9>
0

>  <SlogP_VSA10>
0

>  <SlogP_VSA11>
0

>  <EState_VSA1>
0

>  <EState_VSA2>
0

>  <EState_VSA3>
11.57

>  <EState_VSA4>
37.27

>  <EState_VSA5>
0

>  <EState_VSA6>
11.34

>  <EState_VSA7>
31.19

>  <EState_VSA8>
36.76

>  <EState_VSA9>
16.59

>  <EState_VSA10>
0

>  <VSA_EState1>
3.11

>  <VSA_EState2>
4.76

>  <VSA_EState3>
10.18

>  <VSA_EState4>
2.88

>  <VSA_EState5>
1.7

>  <VSA_EState6>
9.86

>  <VSA_EState7>
0

>  <VSA_EState8>
2.44

>  <VSA_EState9>
0

>  <apol>
44.25

>  <bpol>
18.37

>  <nRing>
4

>  <nHRing>
3

>  <naRing>
3

>  <naHRing>
2

>  <nARing 2>
1

>  <nAHRing 2>
1

>  <nFRing>
1

>  <nFHRing>
1

>  <nFaRing>
0

>  <nFaHRing>
0

>  <nFARing 2>
1

>  <nFAHRing 2>
1

>  <nRot>
1

>  <SLogP>
4.4

>  <SMR>
92.47

>  <TopoPSA(NO)>
43.07

>  <TopoPSA>
71.31

>  <JGI1>
0.16

>  <JGI2>
0.08

>  <JGI3>
0.05

>  <JGI4>
0.03

>  <JGI5>
0.03

>  <Diameter>
9

>  <Radius>
5

>  <TMWC10>
123.37

>  <TSRW10>
72.83

>  <MW>
391.95

>  <AMW>
12.25

>  <WPath>
921

>  <WPol>
40

>  <Zagreb1>
124

>  <Zagreb2>
152

>  <mZagreb2>
4.69

>  <yes>


>  <nAR-cont>
0.816016

>  <nHA-cont>
0.983774276

>  <MWHBN>
0.252554243

>  <MWHBN-cont>
0.955379813

>  <TPSA-cont>
0.502211919

>  <pka_cont>
0.97

>  <yes.1>


>  <BBB_SCORE>
4.722283834

>  <MMFF94 Energy>
71.323

$$$$
Compound 1684
Actelion Java MolfileCreator 2.0

  0  0  0  0  0  0              0 V3000
M  V30 BEGIN CTAB
M  V30 COUNTS 55 58 0 0 0
M  V30 BEGIN ATOM
M  V30 1 S 0.5693 0.3253 0.2439 0
M  V30 2 C 0.1334 1.7259 -0.9011 0
M  V30 3 C -0.9507 -0.6461 -0.102 0 CFG=1
M  V30 4 C -1.3692 1.5589 -1.2477 0 CFG=1
M  V30 5 C 0.5127 3.037 -0.2035 0
M  V30 6 C 1.0077 1.5747 -2.1592 0
M  V30 7 N -1.6338 0.1347 -1.1307 0
M  V30 8 C -0.8773 -1.8132 -1.1274 0 CFG=1
M  V30 9 C -2.3089 2.3903 -0.3631 0
M  V30 10 C -1.4743 -0.7799 -2.1183 0
M  V30 11 N 0.4604 -2.3433 -1.4955 0
M  V30 12 O -2.3844 3.6132 -0.4174 0
M  V30 13 O -3.0168 1.6265 0.5129 0
M  V30 14 O -1.6123 -0.687 -3.3153 0
M  V30 15 C 1.2063 -3.086 -0.6026 0
M  V30 16 C -3.8917 2.3698 1.3676 0
M  V30 17 O 0.7973 -3.3415 0.5307 0
M  V30 18 C 2.5922 -3.5347 -1.1387 0 CFG=2
M  V30 19 C -4.5781 1.4004 2.2661 0
M  V30 20 N 3.0317 -4.7553 -0.4417 0
M  V30 21 C 3.6251 -2.4292 -1.0196 0
M  V30 22 O -5.4339 0.48 1.6852 0
M  V30 23 C -4.5332 1.2513 3.5738 0
M  V30 24 C 3.8259 -1.739 0.1865 0
M  V30 25 C 4.4228 -2.0949 -2.1259 0
M  V30 26 C -5.8751 -0.2297 2.79 0
M  V30 27 O -5.3462 0.214 3.9917 0
M  V30 28 C -3.7727 1.984 4.6166 0
M  V30 29 C 4.7801 -0.724 0.2751 0
M  V30 30 C 5.3785 -1.0813 -2.0337 0
M  V30 31 O -6.6645 -1.1622 2.7114 0
M  V30 32 C 5.5542 -0.3942 -0.8346 0
M  V30 33 H -1.5759 -0.8414 0.7743 0
M  V30 34 H -1.5742 1.8586 -2.2831 0
M  V30 35 H 1.5912 3.0932 -0.011 0
M  V30 36 H 0.0071 3.1591 0.761 0
M  V30 37 H 0.2568 3.8983 -0.831 0
M  V30 38 H 0.8496 0.6213 -2.673 0
M  V30 39 H 2.0759 1.6461 -1.9212 0
M  V30 40 H 0.7827 2.3715 -2.878 0
M  V30 41 H -1.5785 -2.6314 -0.9208 0
M  V30 42 H 0.8555 -2.1306 -2.4052 0
M  V30 43 H -4.6384 2.899 0.764 0
M  V30 44 H -3.3119 3.1008 1.941 0
M  V30 45 H 2.4583 -3.7965 -2.1957 0
M  V30 46 H 4.0406 -4.8484 -0.5429 0
M  V30 47 H 2.8556 -4.6192 0.5564 0
M  V30 48 H 3.232 -1.979 1.0676 0
M  V30 49 H 4.309 -2.6244 -3.0698 0
M  V30 50 H -3.1396 2.769 4.194 0
M  V30 51 H -4.4607 2.4527 5.3273 0
M  V30 52 H -3.1265 1.2939 5.1682 0
M  V30 53 H 4.9169 -0.1907 1.2127 0
M  V30 54 H 5.9893 -0.8295 -2.897 0
M  V30 55 H 6.298 0.395 -0.7628 0
M  V30 END ATOM
M  V30 BEGIN BOND
M  V30 1 1 1 2
M  V30 2 1 1 3
M  V30 3 1 2 4
M  V30 4 1 2 5
M  V30 5 1 2 6
M  V30 6 1 3 7
M  V30 7 1 3 8
M  V30 8 1 4 9
M  V30 9 1 7 10
M  V30 10 1 8 11
M  V30 11 2 9 12
M  V30 12 1 9 13
M  V30 13 2 10 14
M  V30 14 1 11 15
M  V30 15 1 13 16
M  V30 16 2 15 17
M  V30 17 1 15 18
M  V30 18 1 16 19
M  V30 19 1 18 20
M  V30 20 1 18 21
M  V30 21 1 19 22
M  V30 22 2 19 23
M  V30 23 2 21 24
M  V30 24 1 21 25
M  V30 25 1 22 26
M  V30 26 1 23 27
M  V30 27 1 23 28
M  V30 28 1 24 29
M  V30 29 2 25 30
M  V30 30 2 26 31
M  V30 31 2 29 32
M  V30 32 1 4 7
M  V30 33 1 8 10
M  V30 34 1 26 27
M  V30 35 1 30 32
M  V30 36 1 3 33
M  V30 37 1 4 34
M  V30 38 1 5 35
M  V30 39 1 5 36
M  V30 40 1 5 37
M  V30 41 1 6 38
M  V30 42 1 6 39
M  V30 43 1 6 40
M  V30 44 1 8 41
M  V30 45 1 11 42
M  V30 46 1 16 43
M  V30 47 1 16 44
M  V30 48 1 18 45
M  V30 49 1 20 46
M  V30 50 1 20 47
M  V30 51 1 24 48
M  V30 52 1 25 49
M  V30 53 1 28 50
M  V30 54 1 28 51
M  V30 55 1 28 52
M  V30 56 1 29 53
M  V30 57 1 30 54
M  V30 58 1 32 55
M  V30 END BOND
M  V30 BEGIN COLLECTION
M  V30 MDLV30/STEABS ATOMS=(4 3 4 8 18)
M  V30 END COLLECTION
M  V30 END CTAB
M  END
>  <Column 1>
2044

>  <level_0>
2221

>  <index>
2221

>  <Unnamed: 0>
2221

>  <NO.>
2233

>  <Name>
lenampicillin

>  <IUPAC_name>
(5-methyl-2-oxo-1-3-dioxol-4-yl)methyl (2s-5r-6r)-6-[[(2r)-2-amino-2-phenylacetyl]amino]-3-3-dimethyl-7-oxo-4-thia-1-azabicyclo[3.2.0]heptane-2-carboxylate

>  <SMILES>
Cc1oc(=O)oc1COC(=O)[C@@H]1N2C(=O)[C@@H](NC(=O)[C@H](N)c3ccccc3)[C@H]2SC1(C)C

>  <CID>
65646

>  <logBB>


>  <BBB+/BBB->
BBB-

>  <Inchi>
InChI=1S/C21H23N3O7S/c1-10-12(31-20(28)30-10)9-29-19(27)15-21(2-3)32-18-14(17(26)24(15)18)23-16(25)13(22)11-7-5-4-6-8-11/h4-8-13-15-18H-9-22H2-1-3H3-(H-23-25)/t13--14--15+-18-/m1/s1

>  <threshold>
-1

>  <reference>
R1|R6|R27|R30|

>  <group>
B

>  <Class>
-1

>  <ABC>
25.3

>  <ABCGG>
20.7

>  <nAcid>
0

>  <nBase>
1

>  <nAromAtom>
11

>  <nAromBond>
11

>  <nAtom>
55

>  <nHeavyAtom>
32

>  <nSpiro>
0

>  <nBridgehead>
0

>  <nHetero>
11

>  <nN>
3

>  <nO>
7

>  <nF>
0

>  <BalabanJ>
1.33

>  <BertzCT>
1110.1

>  <nBonds>
58

>  <nBondsO>
35

>  <nBondsS>
43

>  <nBondsD>
4

>  <nBondsT>
0

>  <nBondsA>
11

>  <nBondsM>
15

>  <nBondsKS>
50

>  <nBondsKD>
8

>  <RNCG>
0.12

>  <RPCG>
0.14

>  <FCSP3>
0.43

>  <SZ>
40.33

>  <Sm>
38.42

>  <Sv>
35.7

>  <Sse>
56.59

>  <Sp>
37.26

>  <Si>
62.03

>  <MZ>
0.73

>  <Mm>
0.7

>  <Mv>
0.65

>  <Mse>
1.03

>  <Mp>
0.68

>  <Mi>
1.13

>  <NsCH3>
3

>  <NdCH2>
0

>  <NssCH2>
1

>  <NtCH>
0

>  <NdsCH>
0

>  <NaaCH>
5

>  <NsssCH>
4

>  <NddC>
0

>  <NtsC>
0

>  <NdssC>
3

>  <NaasC>
3

>  <NaaaC>
0

>  <NssssC>
1

>  <NsNH3>
0

>  <NsNH2>
1

>  <NssNH2>
0

>  <NdNH>
0

>  <NssNH>
1

>  <NaaNH>
0

>  <NtN>
0

>  <NsssNH>
0

>  <NdsN>
0

>  <NaaN>
0

>  <NsssN>
1

>  <NddsN>
0

>  <NaasN>
0

>  <NssssN>
0

>  <NsOH>
0

>  <NdO>
4

>  <NssO>
1

>  <NaaO>
2

>  <NsF>
0

>  <NsSiH3>
0

>  <NssSiH2>
0

>  <NsssSiH>
0

>  <NssssSi>
0

>  <NsPH2>
0

>  <NssPH>
0

>  <NsssP>
0

>  <NdsssP>
0

>  <NsssssP>
0

>  <NsSH>
0

>  <NdS>
0

>  <NssS>
1

>  <NaaS>
0

>  <NdssS>
0

>  <NddssS>
0

>  <NsCl>
0

>  <NsBr>
0

>  <NsI>
0

>  <fragCpx>
233.11

>  <fMF>
0.44

>  <nHBAcc>
9

>  <nHBDon>
2

>  <Kier1>
25.1

>  <Kier2>
9.93

>  <Lipinski>
1

>  <GhoseFilter>
1

>  <FilterItLogS>
-3.73

>  <VMcGowan>
316.29

>  <LabuteASA>
186.99

>  <PEOE_VSA1>
29.52

>  <PEOE_VSA2>
9.59

>  <PEOE_VSA3>
9.59

>  <PEOE_VSA4>
0

>  <PEOE_VSA5>
11.76

>  <PEOE_VSA6>
30.33

>  <PEOE_VSA7>
26.33

>  <PEOE_VSA8>
4.75

>  <PEOE_VSA9>
0

>  <PEOE_VSA10>
23.5

>  <PEOE_VSA11>
18.13

>  <PEOE_VSA12>
11.81

>  <PEOE_VSA13>
0

>  <SMR_VSA1>
27.95

>  <SMR_VSA2>
0

>  <SMR_VSA3>
10.22

>  <SMR_VSA4>
5.73

>  <SMR_VSA5>
55.62

>  <SMR_VSA6>
0

>  <SMR_VSA7>
58.03

>  <SMR_VSA8>
0

>  <SMR_VSA9>
0

>  <SlogP_VSA1>
16.87

>  <SlogP_VSA2>
44.89

>  <SlogP_VSA3>
25.73

>  <SlogP_VSA4>
6.92

>  <SlogP_VSA5>
36.97

>  <SlogP_VSA6>
43.96

>  <SlogP_VSA7>
0

>  <SlogP_VSA8>
0

>  <SlogP_VSA9>
0

>  <SlogP_VSA10>
0

>  <SlogP_VSA11>
0

>  <EState_VSA1>
45.95

>  <EState_VSA2>
24.03

>  <EState_VSA3>
5.56

>  <EState_VSA4>
0

>  <EState_VSA5>
23.59

>  <EState_VSA6>
24.27

>  <EState_VSA7>
19.91

>  <EState_VSA8>
5.32

>  <EState_VSA9>
19.3

>  <EState_VSA10>
19.18

>  <VSA_EState1>
14.23

>  <VSA_EState2>
50.84

>  <VSA_EState3>
2.29

>  <VSA_EState4>
6.66

>  <VSA_EState5>
-2.03

>  <VSA_EState6>
6.3

>  <VSA_EState7>
0

>  <VSA_EState8>
4.89

>  <VSA_EState9>
0

>  <apol>
62.22

>  <bpol>
35.92

>  <nRing>
4

>  <nHRing>
3

>  <naRing>
2

>  <naHRing>
1

>  <nARing 2>
2

>  <nAHRing 2>
2

>  <nFRing>
1

>  <nFHRing>
1

>  <nFaRing>
0

>  <nFaHRing>
0

>  <nFARing 2>
1

>  <nFAHRing 2>
1

>  <nRot>
6

>  <SLogP>
0.83

>  <SMR>
113.17

>  <TopoPSA(NO)>
145.08

>  <TopoPSA>
170.38

>  <JGI1>
0.23

>  <JGI2>
0.1

>  <JGI3>
0.09

>  <JGI4>
0.05

>  <JGI5>
0.03

>  <Diameter>
17

>  <Radius>
9

>  <TMWC10>
146.54

>  <TSRW10>
85.32

>  <MW>
461.13

>  <AMW>
8.38

>  <WPath>
3184

>  <WPol>
51

>  <Zagreb1>
176

>  <Zagreb2>
213

>  <mZagreb2>
6.79

>  <yes>


>  <nAR-cont>
1

>  <nHA-cont>
0.658856097

>  <MWHBN>
0.512248855

>  <MWHBN-cont>
0

>  <TPSA-cont>
0

>  <pka_cont>
0.97

>  <yes.1>


>  <BBB_SCORE>
2.143856097

>  <MMFF94 Energy>
108.3

$$$$
Compound 1685
Actelion Java MolfileCreator 2.0

  0  0  0  0  0  0              0 V3000
M  V30 BEGIN CTAB
M  V30 COUNTS 47 50 0 0 0
M  V30 BEGIN ATOM
M  V30 1 Cl 3.6693 3.5858 -0.9164 0
M  V30 2 C 2.2868 4.5551 -0.525 0
M  V30 3 C 1.0066 4.2758 -1.0333 0
M  V30 4 C 2.4919 5.6427 0.3324 0
M  V30 5 C -0.0626 5.1045 -0.6528 0
M  V30 6 C 0.7909 3.1455 -1.9258 0
M  V30 7 C 1.4243 6.4609 0.6957 0
M  V30 8 Cl -1.6857 4.83 -1.1924 0
M  V30 9 C 0.1485 6.1907 0.2051 0
M  V30 10 N 0.7167 3.3276 -3.2519 0
M  V30 11 C 0.6649 1.7637 -1.5876 0
M  V30 12 O 0.5012 2.0813 -3.7948 0
M  V30 13 C 0.4538 1.1492 -2.8068 0
M  V30 14 C 0.7055 1.1848 -0.2622 0
M  V30 15 C 0.1689 -0.2272 -3.2579 0
M  V30 16 O 0.4402 1.8307 0.7475 0
M  V30 17 N 1.103 -0.1304 -0.1869 0
M  V30 18 C 1.1309 -0.843 1.1175 0 CFG=2
M  V30 19 C 1.3923 -2.3693 1.038 0
M  V30 20 C -0.2312 -1.2649 1.7415 0 CFG=2
M  V30 21 O 2.1554 -3.1008 0.4532 0
M  V30 22 N 0.2792 -2.6345 1.7644 0
M  V30 23 S -1.6923 -1.3661 0.6214 0
M  V30 24 C -0.6412 -3.7315 1.5415 0 CFG=2
M  V30 25 C -1.6679 -3.2263 0.5022 0
M  V30 26 C -1.2509 -4.1185 2.885 0
M  V30 27 C -3.097 -3.7416 0.7043 0
M  V30 28 C -1.2121 -3.5788 -0.9242 0
M  V30 29 O -1.4996 -3.3823 3.8267 0
M  V30 30 O -1.5553 -5.4321 2.9557 0
M  V30 31 H 3.485 5.855 0.7225 0
M  V30 32 H 1.5847 7.3042 1.3636 0
M  V30 33 H -0.6834 6.8277 0.4979 0
M  V30 34 H -0.2873 -0.2308 -4.2531 0
M  V30 35 H 1.0919 -0.8123 -3.3073 0
M  V30 36 H -0.5251 -0.7259 -2.5753 0
M  V30 37 H 1.4268 -0.6051 -1.0192 0
M  V30 38 H 1.8131 -0.3502 1.8217 0
M  V30 39 H -0.4379 -0.8616 2.7368 0
M  V30 40 H -0.069 -4.5882 1.165 0
M  V30 41 H -3.1233 -4.8366 0.6633 0
M  V30 42 H -3.5203 -3.4327 1.6667 0
M  V30 43 H -3.7715 -3.3753 -0.0791 0
M  V30 44 H -0.2172 -3.1843 -1.1562 0
M  V30 45 H -1.9065 -3.1912 -1.6794 0
M  V30 46 H -1.168 -4.6666 -1.0539 0
M  V30 47 H -1.9264 -5.5447 3.8577 0
M  V30 END ATOM
M  V30 BEGIN BOND
M  V30 1 1 1 2
M  V30 2 2 2 3
M  V30 3 1 2 4
M  V30 4 1 3 5
M  V30 5 1 3 6
M  V30 6 2 4 7
M  V30 7 1 5 8
M  V30 8 2 5 9
M  V30 9 2 6 10
M  V30 10 1 6 11
M  V30 11 1 10 12
M  V30 12 2 11 13
M  V30 13 1 11 14
M  V30 14 1 13 15
M  V30 15 2 14 16
M  V30 16 1 14 17
M  V30 17 1 17 18
M  V30 18 1 18 19
M  V30 19 1 18 20
M  V30 20 2 19 21
M  V30 21 1 19 22
M  V30 22 1 20 23
M  V30 23 1 22 24
M  V30 24 1 23 25
M  V30 25 1 24 26
M  V30 26 1 25 27
M  V30 27 1 25 28
M  V30 28 2 26 29
M  V30 29 1 26 30
M  V30 30 1 7 9
M  V30 31 1 12 13
M  V30 32 1 20 22
M  V30 33 1 24 25
M  V30 34 1 4 31
M  V30 35 1 7 32
M  V30 36 1 9 33
M  V30 37 1 15 34
M  V30 38 1 15 35
M  V30 39 1 15 36
M  V30 40 1 17 37
M  V30 41 1 18 38
M  V30 42 1 20 39
M  V30 43 1 24 40
M  V30 44 1 27 41
M  V30 45 1 27 42
M  V30 46 1 27 43
M  V30 47 1 28 44
M  V30 48 1 28 45
M  V30 49 1 28 46
M  V30 50 1 30 47
M  V30 END BOND
M  V30 BEGIN COLLECTION
M  V30 MDLV30/STEABS ATOMS=(3 18 20 24)
M  V30 END COLLECTION
M  V30 END CTAB
M  END
>  <Column 1>
2045

>  <level_0>
2222

>  <index>
2222

>  <Unnamed: 0>
2222

>  <NO.>
2234

>  <Name>
dicloxacillin

>  <IUPAC_name>
(2s-5r-6r)-6-[[3-(2-6-dichlorophenyl)-5-methyl-1-2-oxazole-4-carbonyl]amino]-3-3-dimethyl-7-oxo-4-thia-1-azabicyclo[3.2.0]heptane-2-carboxylic acid

>  <SMILES>
Cc1onc(-c2c(Cl)cccc2Cl)c1C(=O)N[C@@H]1C(=O)N2[C@@H](C(=O)O)C(C)(C)S[C@H]12

>  <CID>
18381

>  <logBB>


>  <BBB+/BBB->
BBB-

>  <Inchi>
InChI=1S/C19H17Cl2N3O5S/c1-7-10(12(23-29-7)11-8(20)5-4-6-9(11)21)15(25)22-13-16(26)24-14(18(27)28)19(2-3)30-17(13)24/h4-6-13-14-17H-1-3H3-(H-22-25)(H-27-28)/t13--14+-17-/m1/s1

>  <threshold>
-1

>  <reference>
R1|R6|R15|R27|R30|

>  <group>
B

>  <Class>
-1

>  <ABC>
23.87

>  <ABCGG>
20.65

>  <nAcid>
1

>  <nBase>
0

>  <nAromAtom>
11

>  <nAromBond>
11

>  <nAtom>
47

>  <nHeavyAtom>
30

>  <nSpiro>
0

>  <nBridgehead>
0

>  <nHetero>
11

>  <nN>
3

>  <nO>
5

>  <nF>
0

>  <BalabanJ>
1.46

>  <BertzCT>
1065.87

>  <nBonds>
50

>  <nBondsO>
33

>  <nBondsS>
36

>  <nBondsD>
3

>  <nBondsT>
0

>  <nBondsA>
11

>  <nBondsM>
14

>  <nBondsKS>
42

>  <nBondsKD>
8

>  <RNCG>
0.17

>  <RPCG>
0.11

>  <FCSP3>
0.37

>  <SZ>
40.33

>  <Sm>
39.16

>  <Sv>
32.82

>  <Sse>
48.8

>  <Sp>
34.51

>  <Si>
52.67

>  <MZ>
0.86

>  <Mm>
0.83

>  <Mv>
0.7

>  <Mse>
1.04

>  <Mp>
0.73

>  <Mi>
1.12

>  <NsCH3>
3

>  <NdCH2>
0

>  <NssCH2>
0

>  <NtCH>
0

>  <NdsCH>
0

>  <NaaCH>
3

>  <NsssCH>
3

>  <NddC>
0

>  <NtsC>
0

>  <NdssC>
3

>  <NaasC>
6

>  <NaaaC>
0

>  <NssssC>
1

>  <NsNH3>
0

>  <NsNH2>
0

>  <NssNH2>
0

>  <NdNH>
0

>  <NssNH>
1

>  <NaaNH>
0

>  <NtN>
0

>  <NsssNH>
0

>  <NdsN>
0

>  <NaaN>
1

>  <NsssN>
1

>  <NddsN>
0

>  <NaasN>
0

>  <NssssN>
0

>  <NsOH>
1

>  <NdO>
3

>  <NssO>
0

>  <NaaO>
1

>  <NsF>
0

>  <NsSiH3>
0

>  <NssSiH2>
0

>  <NsssSiH>
0

>  <NssssSi>
0

>  <NsPH2>
0

>  <NssPH>
0

>  <NsssP>
0

>  <NdsssP>
0

>  <NsssssP>
0

>  <NsSH>
0

>  <NdS>
0

>  <NssS>
1

>  <NaaS>
0

>  <NdssS>
0

>  <NddssS>
0

>  <NsCl>
2

>  <NsBr>
0

>  <NsI>
0

>  <fragCpx>
219.11

>  <fMF>
0.43

>  <nHBAcc>
6

>  <nHBDon>
2

>  <Kier1>
23.17

>  <Kier2>
8.41

>  <Lipinski>
1

>  <GhoseFilter>
1

>  <FilterItLogS>
-4.94

>  <VMcGowan>
300.85

>  <LabuteASA>
185.41

>  <PEOE_VSA1>
19.85

>  <PEOE_VSA2>
9.59

>  <PEOE_VSA3>
4.79

>  <PEOE_VSA4>
0

>  <PEOE_VSA5>
11.76

>  <PEOE_VSA6>
34.42

>  <PEOE_VSA7>
32.9

>  <PEOE_VSA8>
10.31

>  <PEOE_VSA9>
10.05

>  <PEOE_VSA10>
34.48

>  <PEOE_VSA11>
0

>  <PEOE_VSA12>
5.91

>  <PEOE_VSA13>
5.91

>  <SMR_VSA1>
24.01

>  <SMR_VSA2>
0

>  <SMR_VSA3>
15.37

>  <SMR_VSA4>
0

>  <SMR_VSA5>
42.98

>  <SMR_VSA6>
0

>  <SMR_VSA7>
39.57

>  <SMR_VSA8>
0

>  <SMR_VSA9>
11.26

>  <SlogP_VSA1>
5.32

>  <SlogP_VSA2>
55.15

>  <SlogP_VSA3>
9.59

>  <SlogP_VSA4>
6.92

>  <SlogP_VSA5>
29.97

>  <SlogP_VSA6>
22.72

>  <SlogP_VSA7>
10.05

>  <SlogP_VSA8>
11.26

>  <SlogP_VSA9>
0

>  <SlogP_VSA10>
0

>  <SlogP_VSA11>
0

>  <EState_VSA1>
39.99

>  <EState_VSA2>
17.02

>  <EState_VSA3>
15.61

>  <EState_VSA4>
0

>  <EState_VSA5>
16.66

>  <EState_VSA6>
38.97

>  <EState_VSA7>
0

>  <EState_VSA8>
10.47

>  <EState_VSA9>
27.72

>  <EState_VSA10>
19.49

>  <VSA_EState1>
4.52

>  <VSA_EState2>
38.66

>  <VSA_EState3>
16.29

>  <VSA_EState4>
0.65

>  <VSA_EState5>
-1.84

>  <VSA_EState6>
3.09

>  <VSA_EState7>
0

>  <VSA_EState8>
5.1

>  <VSA_EState9>
0

>  <apol>
57.64

>  <bpol>
27.15

>  <nRing>
4

>  <nHRing>
3

>  <naRing>
2

>  <naHRing>
1

>  <nARing 2>
2

>  <nAHRing 2>
2

>  <nFRing>
1

>  <nFHRing>
1

>  <nFaRing>
0

>  <nFaHRing>
0

>  <nFARing 2>
1

>  <nFAHRing 2>
1

>  <nRot>
4

>  <SLogP>
3.2

>  <SMR>
111.68

>  <TopoPSA(NO)>
112.74

>  <TopoPSA>
138.04

>  <JGI1>
0.23

>  <JGI2>
0.1

>  <JGI3>
0.09

>  <JGI4>
0.05

>  <JGI5>
0.03

>  <Diameter>
13

>  <Radius>
7

>  <TMWC10>
143.02

>  <TSRW10>
83.38

>  <MW>
469.03

>  <AMW>
9.98

>  <WPath>
2402

>  <WPol>
53

>  <Zagreb1>
170

>  <Zagreb2>
211

>  <mZagreb2>
6.29

>  <yes>


>  <nAR-cont>
1

>  <nHA-cont>
0.74523694

>  <MWHBN>
0.369393863

>  <MWHBN-cont>
0.596218845

>  <TPSA-cont>
0

>  <pka_cont>
0.97

>  <yes.1>


>  <BBB_SCORE>
3.124565208

>  <MMFF94 Energy>
24.706

$$$$
Compound 1686
Actelion Java MolfileCreator 2.0

  0  0  0  0  0  0              0 V3000
M  V30 BEGIN CTAB
M  V30 COUNTS 47 50 0 0 0
M  V30 BEGIN ATOM
M  V30 1 Cl -0.9937 -2.0711 -1.9882 0
M  V30 2 C -0.6574 -3.6209 -1.2908 0
M  V30 3 C 0.6191 -3.9723 -0.8285 0
M  V30 4 C -1.7148 -4.5365 -1.2124 0
M  V30 5 C 0.8066 -5.25 -0.2934 0
M  V30 6 C 1.7388 -3.0479 -0.8741 0
M  V30 7 C -1.5075 -5.8079 -0.6753 0
M  V30 8 F 2.0073 -5.6235 0.1756 0
M  V30 9 C -0.2425 -6.1647 -0.2156 0
M  V30 10 N 2.7314 -3.2098 -1.7611 0
M  V30 11 C 1.941 -1.8735 -0.0899 0
M  V30 12 O 3.5997 -2.1594 -1.5582 0
M  V30 13 C 3.1359 -1.3655 -0.5577 0
M  V30 14 C 1.0911 -1.3698 0.9652 0
M  V30 15 C 3.9957 -0.2179 -0.2081 0
M  V30 16 O 0.4478 -2.1101 1.7002 0
M  V30 17 N 1.0265 0.0 1.0625 0
M  V30 18 C 0.1068 0.6661 2.0252 0 CFG=2
M  V30 19 C -1.3771 0.8127 1.555 0
M  V30 20 C 0.1049 2.221 1.9952 0 CFG=2
M  V30 21 O -2.2529 0.1154 1.1027 0
M  V30 22 N -1.3119 2.1639 1.6703 0
M  V30 23 S 0.8789 3.0106 0.5173 0
M  V30 24 C -1.8609 3.1206 0.7301 0 CFG=2
M  V30 25 C -0.7538 3.3668 -0.3213 0
M  V30 26 C -2.2636 4.3673 1.511 0
M  V30 27 C -0.7083 4.7914 -0.8841 0
M  V30 28 C -0.8856 2.3764 -1.4912 0
M  V30 29 O -1.7121 4.8336 2.4959 0
M  V30 30 O -3.3316 4.9938 0.9733 0
M  V30 31 H -2.7056 -4.2607 -1.567 0
M  V30 32 H -2.3313 -6.5147 -0.6125 0
M  V30 33 H -0.0634 -7.1474 0.2103 0
M  V30 34 H 5.0369 -0.4051 -0.4892 0
M  V30 35 H 3.659 0.6827 -0.7302 0
M  V30 36 H 3.9723 -0.0245 0.8686 0
M  V30 37 H 1.4962 0.5662 0.3648 0
M  V30 38 H 0.1994 0.2487 3.0345 0
M  V30 39 H 0.3158 2.7134 2.9485 0
M  V30 40 H -2.7623 2.6876 0.2797 0
M  V30 41 H -1.6614 5.05 -1.3596 0
M  V30 42 H -0.5071 5.5405 -0.1102 0
M  V30 43 H 0.0711 4.8971 -1.6482 0
M  V30 44 H -0.865 1.3323 -1.1625 0
M  V30 45 H -1.8344 2.5312 -2.0183 0
M  V30 46 H -0.0823 2.508 -2.2259 0
M  V30 47 H -3.491 5.7577 1.5688 0
M  V30 END ATOM
M  V30 BEGIN BOND
M  V30 1 1 1 2
M  V30 2 2 2 3
M  V30 3 1 2 4
M  V30 4 1 3 5
M  V30 5 1 3 6
M  V30 6 2 4 7
M  V30 7 1 5 8
M  V30 8 2 5 9
M  V30 9 2 6 10
M  V30 10 1 6 11
M  V30 11 1 10 12
M  V30 12 2 11 13
M  V30 13 1 11 14
M  V30 14 1 13 15
M  V30 15 2 14 16
M  V30 16 1 14 17
M  V30 17 1 17 18
M  V30 18 1 18 19
M  V30 19 1 18 20
M  V30 20 2 19 21
M  V30 21 1 19 22
M  V30 22 1 20 23
M  V30 23 1 22 24
M  V30 24 1 23 25
M  V30 25 1 24 26
M  V30 26 1 25 27
M  V30 27 1 25 28
M  V30 28 2 26 29
M  V30 29 1 26 30
M  V30 30 1 7 9
M  V30 31 1 12 13
M  V30 32 1 20 22
M  V30 33 1 24 25
M  V30 34 1 4 31
M  V30 35 1 7 32
M  V30 36 1 9 33
M  V30 37 1 15 34
M  V30 38 1 15 35
M  V30 39 1 15 36
M  V30 40 1 17 37
M  V30 41 1 18 38
M  V30 42 1 20 39
M  V30 43 1 24 40
M  V30 44 1 27 41
M  V30 45 1 27 42
M  V30 46 1 27 43
M  V30 47 1 28 44
M  V30 48 1 28 45
M  V30 49 1 28 46
M  V30 50 1 30 47
M  V30 END BOND
M  V30 BEGIN COLLECTION
M  V30 MDLV30/STEABS ATOMS=(3 18 20 24)
M  V30 END COLLECTION
M  V30 END CTAB
M  END
>  <Column 1>
2046

>  <level_0>
2223

>  <index>
2223

>  <Unnamed: 0>
2223

>  <NO.>
2235

>  <Name>
flucloxacillin

>  <IUPAC_name>
(2s-5r-6r)-6-[[3-(2-chloro-6-fluorophenyl)-5-methyl-1-2-oxazole-4-carbonyl]amino]-3-3-dimethyl-7-oxo-4-thia-1-azabicyclo[3.2.0]heptane-2-carboxylic acid

>  <SMILES>
Cc1onc(-c2c(F)cccc2Cl)c1C(=O)N[C@@H]1C(=O)N2[C@@H](C(=O)O)C(C)(C)S[C@H]12

>  <CID>
21319

>  <logBB>


>  <BBB+/BBB->
BBB-

>  <Inchi>
InChI=1S/C19H17ClFN3O5S/c1-7-10(12(23-29-7)11-8(20)5-4-6-9(11)21)15(25)22-13-16(26)24-14(18(27)28)19(2-3)30-17(13)24/h4-6-13-14-17H-1-3H3-(H-22-25)(H-27-28)/t13--14+-17-/m1/s1

>  <threshold>
-1

>  <reference>
R1|R6|R27|R30|

>  <group>
B

>  <Class>
-1

>  <ABC>
23.87

>  <ABCGG>
20.65

>  <nAcid>
1

>  <nBase>
0

>  <nAromAtom>
11

>  <nAromBond>
11

>  <nAtom>
47

>  <nHeavyAtom>
30

>  <nSpiro>
0

>  <nBridgehead>
0

>  <nHetero>
11

>  <nN>
3

>  <nO>
5

>  <nF>
1

>  <BalabanJ>
1.46

>  <BertzCT>
1067.87

>  <nBonds>
50

>  <nBondsO>
33

>  <nBondsS>
36

>  <nBondsD>
3

>  <nBondsT>
0

>  <nBondsA>
11

>  <nBondsM>
14

>  <nBondsKS>
42

>  <nBondsKD>
8

>  <RNCG>
0.16

>  <RPCG>
0.11

>  <FCSP3>
0.37

>  <SZ>
39

>  <Sm>
37.79

>  <Sv>
32.38

>  <Sse>
48.99

>  <Sp>
33.54

>  <Si>
53.07

>  <MZ>
0.83

>  <Mm>
0.8

>  <Mv>
0.69

>  <Mse>
1.04

>  <Mp>
0.71

>  <Mi>
1.13

>  <NsCH3>
3

>  <NdCH2>
0

>  <NssCH2>
0

>  <NtCH>
0

>  <NdsCH>
0

>  <NaaCH>
3

>  <NsssCH>
3

>  <NddC>
0

>  <NtsC>
0

>  <NdssC>
3

>  <NaasC>
6

>  <NaaaC>
0

>  <NssssC>
1

>  <NsNH3>
0

>  <NsNH2>
0

>  <NssNH2>
0

>  <NdNH>
0

>  <NssNH>
1

>  <NaaNH>
0

>  <NtN>
0

>  <NsssNH>
0

>  <NdsN>
0

>  <NaaN>
1

>  <NsssN>
1

>  <NddsN>
0

>  <NaasN>
0

>  <NssssN>
0

>  <NsOH>
1

>  <NdO>
3

>  <NssO>
0

>  <NaaO>
1

>  <NsF>
1

>  <NsSiH3>
0

>  <NssSiH2>
0

>  <NsssSiH>
0

>  <NssssSi>
0

>  <NsPH2>
0

>  <NssPH>
0

>  <NsssP>
0

>  <NdsssP>
0

>  <NsssssP>
0

>  <NsSH>
0

>  <NdS>
0

>  <NssS>
1

>  <NaaS>
0

>  <NdssS>
0

>  <NddssS>
0

>  <NsCl>
1

>  <NsBr>
0

>  <NsI>
0

>  <fragCpx>
219.11

>  <fMF>
0.43

>  <nHBAcc>
6

>  <nHBDon>
2

>  <Kier1>
23.17

>  <Kier2>
8.41

>  <Lipinski>
1

>  <GhoseFilter>
1

>  <FilterItLogS>
-4.62

>  <VMcGowan>
290.37

>  <LabuteASA>
179.27

>  <PEOE_VSA1>
19.85

>  <PEOE_VSA2>
9.59

>  <PEOE_VSA3>
9.18

>  <PEOE_VSA4>
0

>  <PEOE_VSA5>
11.76

>  <PEOE_VSA6>
22.82

>  <PEOE_VSA7>
32.9

>  <PEOE_VSA8>
4.75

>  <PEOE_VSA9>
10.59

>  <PEOE_VSA10>
40.29

>  <PEOE_VSA11>
0

>  <PEOE_VSA12>
5.91

>  <PEOE_VSA13>
5.91

>  <SMR_VSA1>
28.4

>  <SMR_VSA2>
0

>  <SMR_VSA3>
15.37

>  <SMR_VSA4>
0

>  <SMR_VSA5>
42.98

>  <SMR_VSA6>
0

>  <SMR_VSA7>
40.36

>  <SMR_VSA8>
0

>  <SMR_VSA9>
11.26

>  <SlogP_VSA1>
5.32

>  <SlogP_VSA2>
55.15

>  <SlogP_VSA3>
9.59

>  <SlogP_VSA4>
12.74

>  <SlogP_VSA5>
29.97

>  <SlogP_VSA6>
22.72

>  <SlogP_VSA7>
5.02

>  <SlogP_VSA8>
11.26

>  <SlogP_VSA9>
0

>  <SlogP_VSA10>
4.39

>  <SlogP_VSA11>
0

>  <EState_VSA1>
45.81

>  <EState_VSA2>
27.6

>  <EState_VSA3>
0

>  <EState_VSA4>
0

>  <EState_VSA5>
41.78

>  <EState_VSA6>
13.85

>  <EState_VSA7>
0

>  <EState_VSA8>
10.47

>  <EState_VSA9>
16.12

>  <EState_VSA10>
23.88

>  <VSA_EState1>
18.73

>  <VSA_EState2>
38.48

>  <VSA_EState3>
15.44

>  <VSA_EState4>
-0.19

>  <VSA_EState5>
-2.81

>  <VSA_EState6>
2.17

>  <VSA_EState7>
0

>  <VSA_EState8>
4.97

>  <VSA_EState9>
0

>  <apol>
56.01

>  <bpol>
27.76

>  <nRing>
4

>  <nHRing>
3

>  <naRing>
2

>  <naHRing>
1

>  <nARing 2>
2

>  <nAHRing 2>
2

>  <nFRing>
1

>  <nFHRing>
1

>  <nFaRing>
0

>  <nFaHRing>
0

>  <nFARing 2>
1

>  <nFAHRing 2>
1

>  <nRot>
4

>  <SLogP>
2.69

>  <SMR>
106.63

>  <TopoPSA(NO)>
112.74

>  <TopoPSA>
138.04

>  <JGI1>
0.23

>  <JGI2>
0.1

>  <JGI3>
0.09

>  <JGI4>
0.05

>  <JGI5>
0.03

>  <Diameter>
13

>  <Radius>
7

>  <TMWC10>
143.02

>  <TSRW10>
83.38

>  <MW>
453.06

>  <AMW>
9.64

>  <WPath>
2402

>  <WPol>
53

>  <Zagreb1>
170

>  <Zagreb2>
211

>  <mZagreb2>
6.29

>  <yes>


>  <nAR-cont>
1

>  <nHA-cont>
0.74523694

>  <MWHBN>
0.375847899

>  <MWHBN-cont>
0.571070322

>  <TPSA-cont>
0

>  <pka_cont>
0.97

>  <yes.1>


>  <BBB_SCORE>
3.086842422

>  <MMFF94 Energy>
23.021

$$$$
Compound 1687
Actelion Java MolfileCreator 2.0

  0  0  0  0  0  0              0 V3000
M  V30 BEGIN CTAB
M  V30 COUNTS 47 50 0 0 0
M  V30 BEGIN ATOM
M  V30 1 S -1.1436 -0.8168 -0.9802 0
M  V30 2 C -1.0521 -1.1253 -2.8167 0
M  V30 3 C 0.0634 -2.1396 -0.5423 0 CFG=1
M  V30 4 C -0.2429 -2.427 -3.0154 0 CFG=1
M  V30 5 C -2.4802 -1.1629 -3.3715 0
M  V30 6 C -0.3118 0.072 -3.437 0
M  V30 7 N 0.5891 -2.5675 -1.8371 0
M  V30 8 C 1.5118 -1.7031 -0.1778 0 CFG=1
M  V30 9 C -1.1006 -3.6818 -3.1413 0
M  V30 10 C 1.8198 -2.0285 -1.6619 0
M  V30 11 N 1.7266 -0.2879 0.2238 0
M  V30 12 O -1.5536 -4.3642 -2.2361 0
M  V30 13 O -1.3781 -3.992 -4.4256 0
M  V30 14 O 2.7036 -1.7852 -2.4488 0
M  V30 15 C 1.3682 0.151 1.4791 0
M  V30 16 O 0.8581 -0.6039 2.2997 0
M  V30 17 C 1.6118 1.5527 1.7379 0
M  V30 18 C 0.8442 2.4637 2.5323 0
M  V30 19 C 2.6933 2.3049 1.3204 0
M  V30 20 N 1.4338 3.6714 2.5566 0
M  V30 21 C -0.4167 2.2514 3.2438 0
M  V30 22 O 2.5742 3.5678 1.799 0
M  V30 23 C 3.916 2.0385 0.5366 0
M  V30 24 C -0.6048 2.8093 4.5176 0
M  V30 25 C -1.4637 1.5201 2.6675 0
M  V30 26 C -1.8064 2.6252 5.2061 0
M  V30 27 C -2.665 1.3353 3.3578 0
M  V30 28 C -2.835 1.8861 4.6264 0
M  V30 29 H -0.3449 -2.9602 0.0537 0
M  V30 30 H 0.412 -2.3691 -3.8931 0
M  V30 31 H -3.0949 -1.9323 -2.8912 0
M  V30 32 H -2.4719 -1.3655 -4.4485 0
M  V30 33 H -2.9923 -0.2035 -3.2298 0
M  V30 34 H -0.2164 -0.0572 -4.5215 0
M  V30 35 H 0.6993 0.1939 -3.035 0
M  V30 36 H -0.8504 1.0126 -3.27 0
M  V30 37 H 2.0288 -2.3901 0.5038 0
M  V30 38 H 2.0605 0.3802 -0.4593 0
M  V30 39 H -1.9201 -4.8082 -4.3645 0
M  V30 40 H 4.707 2.7537 0.7839 0
M  V30 41 H 4.301 1.0349 0.7408 0
M  V30 42 H 3.7071 2.1201 -0.5341 0
M  V30 43 H 0.1879 3.3915 4.9835 0
M  V30 44 H -1.3656 1.0891 1.6753 0
M  V30 45 H -1.937 3.0597 6.1937 0
M  V30 46 H -3.4671 0.7605 2.9021 0
M  V30 47 H -3.7695 1.7408 5.1619 0
M  V30 END ATOM
M  V30 BEGIN BOND
M  V30 1 1 1 2
M  V30 2 1 1 3
M  V30 3 1 2 4
M  V30 4 1 2 5
M  V30 5 1 2 6
M  V30 6 1 3 7
M  V30 7 1 3 8
M  V30 8 1 4 9
M  V30 9 1 7 10
M  V30 10 1 8 11
M  V30 11 2 9 12
M  V30 12 1 9 13
M  V30 13 2 10 14
M  V30 14 1 11 15
M  V30 15 2 15 16
M  V30 16 1 15 17
M  V30 17 1 17 18
M  V30 18 2 17 19
M  V30 19 2 18 20
M  V30 20 1 18 21
M  V30 21 1 19 22
M  V30 22 1 19 23
M  V30 23 2 21 24
M  V30 24 1 21 25
M  V30 25 1 24 26
M  V30 26 2 25 27
M  V30 27 2 26 28
M  V30 28 1 4 7
M  V30 29 1 8 10
M  V30 30 1 20 22
M  V30 31 1 27 28
M  V30 32 1 3 29
M  V30 33 1 4 30
M  V30 34 1 5 31
M  V30 35 1 5 32
M  V30 36 1 5 33
M  V30 37 1 6 34
M  V30 38 1 6 35
M  V30 39 1 6 36
M  V30 40 1 8 37
M  V30 41 1 11 38
M  V30 42 1 13 39
M  V30 43 1 23 40
M  V30 44 1 23 41
M  V30 45 1 23 42
M  V30 46 1 24 43
M  V30 47 1 25 44
M  V30 48 1 26 45
M  V30 49 1 27 46
M  V30 50 1 28 47
M  V30 END BOND
M  V30 BEGIN COLLECTION
M  V30 MDLV30/STEABS ATOMS=(3 3 4 8)
M  V30 END COLLECTION
M  V30 END CTAB
M  END
>  <Column 1>
2047

>  <level_0>
2224

>  <index>
2224

>  <Unnamed: 0>
2224

>  <NO.>
2236

>  <Name>
oxacillin

>  <IUPAC_name>
(2s-5r-6r)-3-3-dimethyl-6-[(5-methyl-3-phenyl-1-2-oxazole-4-carbonyl)amino]-7-oxo-4-thia-1-azabicyclo[3.2.0]heptane-2-carboxylic acid

>  <SMILES>
Cc1onc(-c2ccccc2)c1C(=O)N[C@@H]1C(=O)N2[C@@H](C(=O)O)C(C)(C)S[C@H]12

>  <CID>
6196

>  <logBB>


>  <BBB+/BBB->
BBB-

>  <Inchi>
InChI=1S/C19H19N3O5S/c1-9-11(12(21-27-9)10-7-5-4-6-8-10)15(23)20-13-16(24)22-14(18(25)26)19(2-3)28-17(13)22/h4-8-13-14-17H-1-3H3-(H-20-23)(H-25-26)/t13--14+-17-/m1/s1

>  <threshold>
-1

>  <reference>
R1|R6|R9|R27|R30|

>  <group>
B

>  <Class>
1

>  <ABC>
22.32

>  <ABCGG>
19.11

>  <nAcid>
1

>  <nBase>
0

>  <nAromAtom>
11

>  <nAromBond>
11

>  <nAtom>
47

>  <nHeavyAtom>
28

>  <nSpiro>
0

>  <nBridgehead>
0

>  <nHetero>
9

>  <nN>
3

>  <nO>
5

>  <nF>
0

>  <BalabanJ>
1.43

>  <BertzCT>
971.2

>  <nBonds>
50

>  <nBondsO>
31

>  <nBondsS>
36

>  <nBondsD>
3

>  <nBondsT>
0

>  <nBondsA>
11

>  <nBondsM>
14

>  <nBondsKS>
42

>  <nBondsKD>
8

>  <RNCG>
0.17

>  <RPCG>
0.11

>  <FCSP3>
0.37

>  <SZ>
35

>  <Sm>
33.42

>  <Sv>
31.18

>  <Sse>
48.15

>  <Sp>
32.7

>  <Si>
52.78

>  <MZ>
0.74

>  <Mm>
0.71

>  <Mv>
0.66

>  <Mse>
1.02

>  <Mp>
0.7

>  <Mi>
1.12

>  <NsCH3>
3

>  <NdCH2>
0

>  <NssCH2>
0

>  <NtCH>
0

>  <NdsCH>
0

>  <NaaCH>
5

>  <NsssCH>
3

>  <NddC>
0

>  <NtsC>
0

>  <NdssC>
3

>  <NaasC>
4

>  <NaaaC>
0

>  <NssssC>
1

>  <NsNH3>
0

>  <NsNH2>
0

>  <NssNH2>
0

>  <NdNH>
0

>  <NssNH>
1

>  <NaaNH>
0

>  <NtN>
0

>  <NsssNH>
0

>  <NdsN>
0

>  <NaaN>
1

>  <NsssN>
1

>  <NddsN>
0

>  <NaasN>
0

>  <NssssN>
0

>  <NsOH>
1

>  <NdO>
3

>  <NssO>
0

>  <NaaO>
1

>  <NsF>
0

>  <NsSiH3>
0

>  <NssSiH2>
0

>  <NsssSiH>
0

>  <NssssSi>
0

>  <NsPH2>
0

>  <NssPH>
0

>  <NsssP>
0

>  <NdsssP>
0

>  <NsssssP>
0

>  <NsSH>
0

>  <NdS>
0

>  <NssS>
1

>  <NaaS>
0

>  <NdssS>
0

>  <NddssS>
0

>  <NsCl>
0

>  <NsBr>
0

>  <NsI>
0

>  <fragCpx>
205.09

>  <fMF>
0.43

>  <nHBAcc>
6

>  <nHBDon>
2

>  <Kier1>
21.24

>  <Kier2>
7.92

>  <Lipinski>
1

>  <GhoseFilter>
1

>  <FilterItLogS>
-3.47

>  <VMcGowan>
276.37

>  <LabuteASA>
164.8

>  <PEOE_VSA1>
19.85

>  <PEOE_VSA2>
9.59

>  <PEOE_VSA3>
4.79

>  <PEOE_VSA4>
0

>  <PEOE_VSA5>
11.76

>  <PEOE_VSA6>
35.49

>  <PEOE_VSA7>
20.77

>  <PEOE_VSA8>
10.31

>  <PEOE_VSA9>
0

>  <PEOE_VSA10>
34.48

>  <PEOE_VSA11>
0

>  <PEOE_VSA12>
5.91

>  <PEOE_VSA13>
5.91

>  <SMR_VSA1>
24.01

>  <SMR_VSA2>
0

>  <SMR_VSA3>
15.37

>  <SMR_VSA4>
0

>  <SMR_VSA5>
42.98

>  <SMR_VSA6>
0

>  <SMR_VSA7>
41.66

>  <SMR_VSA8>
0

>  <SMR_VSA9>
11.26

>  <SlogP_VSA1>
5.32

>  <SlogP_VSA2>
55.15

>  <SlogP_VSA3>
9.59

>  <SlogP_VSA4>
6.92

>  <SlogP_VSA5>
29.97

>  <SlogP_VSA6>
34.85

>  <SlogP_VSA7>
0

>  <SlogP_VSA8>
11.26

>  <SlogP_VSA9>
0

>  <SlogP_VSA10>
0

>  <SlogP_VSA11>
0

>  <EState_VSA1>
34.08

>  <EState_VSA2>
11.47

>  <EState_VSA3>
11.45

>  <EState_VSA4>
5.56

>  <EState_VSA5>
16.66

>  <EState_VSA6>
20.77

>  <EState_VSA7>
30.33

>  <EState_VSA8>
10.47

>  <EState_VSA9>
4.52

>  <EState_VSA10>
19.49

>  <VSA_EState1>
4.57

>  <VSA_EState2>
38.46

>  <VSA_EState3>
15.81

>  <VSA_EState4>
1.41

>  <VSA_EState5>
-1.55

>  <VSA_EState6>
7.46

>  <VSA_EState7>
0

>  <VSA_EState8>
5.22

>  <VSA_EState9>
0

>  <apol>
54.61

>  <bpol>
28.14

>  <nRing>
4

>  <nHRing>
3

>  <naRing>
2

>  <naHRing>
1

>  <nARing 2>
2

>  <nAHRing 2>
2

>  <nFRing>
1

>  <nFHRing>
1

>  <nFaRing>
0

>  <nFaHRing>
0

>  <nFARing 2>
1

>  <nFAHRing 2>
1

>  <nRot>
4

>  <SLogP>
1.9

>  <SMR>
101.66

>  <TopoPSA(NO)>
112.74

>  <TopoPSA>
138.04

>  <JGI1>
0.21

>  <JGI2>
0.09

>  <JGI3>
0.09

>  <JGI4>
0.05

>  <JGI5>
0.02

>  <Diameter>
13

>  <Radius>
7

>  <TMWC10>
138.21

>  <TSRW10>
80.98

>  <MW>
401.1

>  <AMW>
8.53

>  <WPath>
2026

>  <WPol>
47

>  <Zagreb1>
158

>  <Zagreb2>
195

>  <mZagreb2>
5.9

>  <yes>


>  <nAR-cont>
1

>  <nHA-cont>
0.82432561

>  <MWHBN>
0.399451132

>  <MWHBN-cont>
0.478221278

>  <TPSA-cont>
0

>  <pka_cont>
0.97

>  <yes.1>


>  <BBB_SCORE>
3.026657527

>  <MMFF94 Energy>
29.217

$$$$
Compound 1688
Actelion Java MolfileCreator 2.0

  0  0  0  0  0  0              0 V3000
M  V30 BEGIN CTAB
M  V30 COUNTS 45 47 0 0 0
M  V30 BEGIN ATOM
M  V30 1 Cl 2.33 -4.7448 -1.4457 0
M  V30 2 C 1.3376 -3.5612 -0.6874 0
M  V30 3 C 1.0057 -2.3952 -1.3716 0
M  V30 4 C 0.8729 -3.7755 0.6086 0
M  V30 5 C 0.2035 -1.4345 -0.7523 0
M  V30 6 C 0.0709 -2.8134 1.2286 0
M  V30 7 C -0.2687 -1.6268 0.558 0
M  V30 8 C -1.1488 -0.5848 1.2388 0 CFG=1
M  V30 9 O -0.7367 0.7364 0.8623 0
M  V30 10 C -2.6212 -0.7684 0.897 0
M  V30 11 C 0.3274 1.2419 1.6704 0
M  V30 12 C -3.1994 -0.1424 -0.2194 0
M  V30 13 C -3.428 -1.6059 1.6861 0
M  V30 14 C 0.9618 2.4656 0.9845 0
M  V30 15 C -4.5462 -0.3384 -0.5312 0
M  V30 16 C -4.775 -1.8012 1.3727 0
M  V30 17 N 1.6247 2.1674 -0.3022 0
M  V30 18 C -5.3333 -1.1669 0.2652 0
M  V30 19 C 1.9875 3.4212 -0.9971 0
M  V30 20 C 2.8433 1.3481 -0.1341 0
M  V30 21 C 2.7135 3.1389 -2.3215 0
M  V30 22 C 3.5517 1.1158 -1.4792 0
M  V30 23 O 3.8965 2.358 -2.1064 0
M  V30 24 H 1.3629 -2.2259 -2.3835 0
M  V30 25 H 1.128 -4.6887 1.1395 0
M  V30 26 H -0.0483 -0.5219 -1.2916 0
M  V30 27 H -0.2891 -2.9976 2.2384 0
M  V30 28 H -1.0471 -0.6706 2.3301 0
M  V30 29 H 1.0784 0.4703 1.8694 0
M  V30 30 H -0.0961 1.5516 2.6329 0
M  V30 31 H -2.5968 0.5067 -0.852 0
M  V30 32 H -3.0109 -2.1151 2.5517 0
M  V30 33 H 0.1513 3.1813 0.7947 0
M  V30 34 H 1.6664 2.9433 1.6768 0
M  V30 35 H -4.9783 0.1558 -1.3974 0
M  V30 36 H -5.3884 -2.451 1.9915 0
M  V30 37 H -6.3811 -1.3199 0.0206 0
M  V30 38 H 1.0851 4.0054 -1.2114 0
M  V30 39 H 2.6404 4.0272 -0.3552 0
M  V30 40 H 3.5379 1.8512 0.551 0
M  V30 41 H 2.5988 0.3697 0.2899 0
M  V30 42 H 3.0205 4.0826 -2.7837 0
M  V30 43 H 2.0592 2.6181 -3.0313 0
M  V30 44 H 4.4803 0.5594 -1.3163 0
M  V30 45 H 2.9266 0.5265 -2.1612 0
M  V30 END ATOM
M  V30 BEGIN BOND
M  V30 1 1 1 2
M  V30 2 2 2 3
M  V30 3 1 2 4
M  V30 4 1 3 5
M  V30 5 2 4 6
M  V30 6 2 5 7
M  V30 7 1 7 8
M  V30 8 1 8 9
M  V30 9 1 8 10
M  V30 10 1 9 11
M  V30 11 2 10 12
M  V30 12 1 10 13
M  V30 13 1 11 14
M  V30 14 1 12 15
M  V30 15 2 13 16
M  V30 16 1 14 17
M  V30 17 2 15 18
M  V30 18 1 17 19
M  V30 19 1 17 20
M  V30 20 1 19 21
M  V30 21 1 20 22
M  V30 22 1 21 23
M  V30 23 1 6 7
M  V30 24 1 16 18
M  V30 25 1 22 23
M  V30 26 1 3 24
M  V30 27 1 4 25
M  V30 28 1 5 26
M  V30 29 1 6 27
M  V30 30 1 8 28
M  V30 31 1 11 29
M  V30 32 1 11 30
M  V30 33 1 12 31
M  V30 34 1 13 32
M  V30 35 1 14 33
M  V30 36 1 14 34
M  V30 37 1 15 35
M  V30 38 1 16 36
M  V30 39 1 18 37
M  V30 40 1 19 38
M  V30 41 1 19 39
M  V30 42 1 20 40
M  V30 43 1 20 41
M  V30 44 1 21 42
M  V30 45 1 21 43
M  V30 46 1 22 44
M  V30 47 1 22 45
M  V30 END BOND
M  V30 BEGIN COLLECTION
M  V30 MDLV30/STERAC1 ATOMS=(1 8)
M  V30 END COLLECTION
M  V30 END CTAB
M  END
>  <Column 1>
2048

>  <level_0>
2225

>  <index>
2225

>  <Unnamed: 0>
2225

>  <NO.>
2237

>  <Name>
difencloxazine

>  <IUPAC_name>
4-[2-[(4-chlorophenyl)-phenylmethoxy]ethyl]morpholine

>  <SMILES>
Clc1ccc(C(OCCN2CCOCC2)c2ccccc2)cc1

>  <CID>
9973981

>  <logBB>


>  <BBB+/BBB->
BBB+

>  <Inchi>
InChI=1S/C19H22ClNO2/c20-18-8-6-17(7-9-18)19(16-4-2-1-3-5-16)23-15-12-21-10-13-22-14-11-21/h1-9-19H-10-15H2

>  <threshold>
-1

>  <reference>
R1|R19|R6|R27|R27|R30|

>  <group>
B

>  <Class>
-1

>  <ABC>
17.71

>  <ABCGG>
13.83

>  <nAcid>
0

>  <nBase>
1

>  <nAromAtom>
12

>  <nAromBond>
12

>  <nAtom>
45

>  <nHeavyAtom>
23

>  <nSpiro>
0

>  <nBridgehead>
0

>  <nHetero>
4

>  <nN>
1

>  <nO>
2

>  <nF>
0

>  <BalabanJ>
1.49

>  <BertzCT>
582.08

>  <nBonds>
47

>  <nBondsO>
25

>  <nBondsS>
35

>  <nBondsD>
0

>  <nBondsT>
0

>  <nBondsA>
12

>  <nBondsM>
12

>  <nBondsKS>
41

>  <nBondsKD>
6

>  <RNCG>
0.23

>  <RPCG>
0.07

>  <FCSP3>
0.37

>  <SZ>
29.33

>  <Sm>
27.63

>  <Sv>
28.24

>  <Sse>
44.86

>  <Sp>
30.71

>  <Si>
50.43

>  <MZ>
0.65

>  <Mm>
0.61

>  <Mv>
0.63

>  <Mse>
1

>  <Mp>
0.68

>  <Mi>
1.12

>  <NsCH3>
0

>  <NdCH2>
0

>  <NssCH2>
6

>  <NtCH>
0

>  <NdsCH>
0

>  <NaaCH>
9

>  <NsssCH>
1

>  <NddC>
0

>  <NtsC>
0

>  <NdssC>
0

>  <NaasC>
3

>  <NaaaC>
0

>  <NssssC>
0

>  <NsNH3>
0

>  <NsNH2>
0

>  <NssNH2>
0

>  <NdNH>
0

>  <NssNH>
0

>  <NaaNH>
0

>  <NtN>
0

>  <NsssNH>
0

>  <NdsN>
0

>  <NaaN>
0

>  <NsssN>
1

>  <NddsN>
0

>  <NaasN>
0

>  <NssssN>
0

>  <NsOH>
0

>  <NdO>
0

>  <NssO>
2

>  <NaaO>
0

>  <NsF>
0

>  <NsSiH3>
0

>  <NssSiH2>
0

>  <NsssSiH>
0

>  <NssssSi>
0

>  <NsPH2>
0

>  <NssPH>
0

>  <NsssP>
0

>  <NdsssP>
0

>  <NsssssP>
0

>  <NsSH>
0

>  <NdS>
0

>  <NssS>
0

>  <NaaS>
0

>  <NdssS>
0

>  <NddssS>
0

>  <NsCl>
1

>  <NsBr>
0

>  <NsI>
0

>  <fragCpx>
119.04

>  <fMF>
0.49

>  <nHBAcc>
3

>  <nHBDon>
0

>  <Kier1>
17.81

>  <Kier2>
9.47

>  <Lipinski>
1

>  <GhoseFilter>
1

>  <FilterItLogS>
-4.92

>  <VMcGowan>
254.15

>  <LabuteASA>
142.33

>  <PEOE_VSA1>
9.47

>  <PEOE_VSA2>
4.9

>  <PEOE_VSA3>
0

>  <PEOE_VSA4>
0

>  <PEOE_VSA5>
0

>  <PEOE_VSA6>
54.07

>  <PEOE_VSA7>
23.26

>  <PEOE_VSA8>
24.66

>  <PEOE_VSA9>
19.82

>  <PEOE_VSA10>
6.1

>  <PEOE_VSA11>
0

>  <PEOE_VSA12>
0

>  <PEOE_VSA13>
0

>  <SMR_VSA1>
9.47

>  <SMR_VSA2>
0

>  <SMR_VSA3>
4.9

>  <SMR_VSA4>
0

>  <SMR_VSA5>
6.1

>  <SMR_VSA6>
39.45

>  <SMR_VSA7>
70.75

>  <SMR_VSA8>
0

>  <SMR_VSA9>
0

>  <SlogP_VSA1>
0

>  <SlogP_VSA2>
44.35

>  <SlogP_VSA3>
9.47

>  <SlogP_VSA4>
0

>  <SlogP_VSA5>
17.23

>  <SlogP_VSA6>
54.6

>  <SlogP_VSA7>
5.02

>  <SlogP_VSA8>
0

>  <SlogP_VSA9>
0

>  <SlogP_VSA10>
0

>  <SlogP_VSA11>
0

>  <EState_VSA1>
0

>  <EState_VSA2>
6.1

>  <EState_VSA3>
6.61

>  <EState_VSA4>
49

>  <EState_VSA5>
0

>  <EState_VSA6>
0

>  <EState_VSA7>
42.46

>  <EState_VSA8>
17.03

>  <EState_VSA9>
21.07

>  <EState_VSA10>
0

>  <VSA_EState1>
11.61

>  <VSA_EState2>
2.38

>  <VSA_EState3>
0.74

>  <VSA_EState4>
2.29

>  <VSA_EState5>
0

>  <VSA_EState6>
18.23

>  <VSA_EState7>
-0.06

>  <VSA_EState8>
5.24

>  <VSA_EState9>
0

>  <apol>
51.28

>  <bpol>
27.76

>  <nRing>
3

>  <nHRing>
1

>  <naRing>
2

>  <naHRing>
0

>  <nARing 2>
1

>  <nAHRing 2>
1

>  <nFRing>
0

>  <nFHRing>
0

>  <nFaRing>
0

>  <nFaHRing>
0

>  <nFARing 2>
0

>  <nFAHRing 2>
0

>  <nRot>
6

>  <SLogP>
3.78

>  <SMR>
92.95

>  <TopoPSA(NO)>
21.7

>  <TopoPSA>
21.7

>  <JGI1>
0.12

>  <JGI2>
0.06

>  <JGI3>
0.03

>  <JGI4>
0.02

>  <JGI5>
0.01

>  <Diameter>
12

>  <Radius>
6

>  <TMWC10>
120.6

>  <TSRW10>
56.74

>  <MW>
331.13

>  <AMW>
7.36

>  <WPath>
1284

>  <WPol>
31

>  <Zagreb1>
114

>  <Zagreb2>
129

>  <mZagreb2>
5.22

>  <yes>


>  <nAR-cont>
0.816016

>  <nHA-cont>
0.967789328

>  <MWHBN>
0.164862541

>  <MWHBN-cont>
0.965276025

>  <TPSA-cont>
0.848520525

>  <pka_cont>
0.97

>  <yes.1>


>  <BBB_SCORE>
5.413760415

>  <MMFF94 Energy>
133.81

$$$$
Compound 1689
Actelion Java MolfileCreator 2.0

  0  0  0  0  0  0              0 V3000
M  V30 BEGIN CTAB
M  V30 COUNTS 41 43 0 0 0
M  V30 BEGIN ATOM
M  V30 1 Cl -7.0066 -2.8142 -3.7805 0
M  V30 2 C -5.619 -2.0045 -3.1954 0
M  V30 3 N -5.7993 -1.244 -2.1072 0
M  V30 4 C -4.3955 -2.1219 -3.8108 0
M  V30 5 N -4.7211 -0.5575 -1.5819 0
M  V30 6 C -3.3165 -1.424 -3.2644 0
M  V30 7 C -3.4821 -0.6409 -2.1237 0
M  V30 8 N -2.4274 0.0778 -1.5667 0
M  V30 9 C -2.7824 0.9528 -0.4344 0
M  V30 10 C -1.0984 -0.5437 -1.4731 0
M  V30 11 C -1.6416 1.9416 -0.1071 0
M  V30 12 C -0.0145 0.4994 -1.1161 0
M  V30 13 N -0.3394 1.271 0.1057 0
M  V30 14 C 0.7032 2.2619 0.4005 0
M  V30 15 C 1.9547 1.7121 1.0357 0
M  V30 16 C 2.1021 0.5028 1.604 0
M  V30 17 C 3.35 0.0131 2.2053 0
M  V30 18 C 4.2099 0.8451 2.9339 0
M  V30 19 C 3.6645 -1.3475 2.0938 0
M  V30 20 C 5.3733 0.3325 3.5142 0
M  V30 21 C 4.8278 -1.8602 2.6734 0
M  V30 22 C 5.6833 -1.019 3.3811 0
M  V30 23 H -4.2701 -2.729 -4.6991 0
M  V30 24 H -2.3583 -1.4843 -3.7666 0
M  V30 25 H -3.6741 1.5491 -0.6656 0
M  V30 26 H -3.0005 0.341 0.4506 0
M  V30 27 H -0.7963 -1.0083 -2.4168 0
M  V30 28 H -1.1183 -1.3302 -0.7077 0
M  V30 29 H -1.5605 2.6741 -0.9218 0
M  V30 30 H -1.9246 2.4916 0.7987 0
M  V30 31 H 0.1118 1.179 -1.9702 0
M  V30 32 H 0.9326 -0.0365 -0.9891 0
M  V30 33 H 0.3161 3.0081 1.1072 0
M  V30 34 H 0.9781 2.8137 -0.5078 0
M  V30 35 H 2.7984 2.3981 1.014 0
M  V30 36 H 1.2638 -0.19 1.6295 0
M  V30 37 H 3.9776 1.8981 3.0697 0
M  V30 38 H 3.0074 -2.0201 1.5475 0
M  V30 39 H 6.0328 0.9888 4.0759 0
M  V30 40 H 5.063 -2.9164 2.5741 0
M  V30 41 H 6.587 -1.4174 3.8343 0
M  V30 END ATOM
M  V30 BEGIN BOND
M  V30 1 1 1 2
M  V30 2 2 2 3
M  V30 3 1 2 4
M  V30 4 1 3 5
M  V30 5 2 4 6
M  V30 6 2 5 7
M  V30 7 1 7 8
M  V30 8 1 8 9
M  V30 9 1 8 10
M  V30 10 1 9 11
M  V30 11 1 10 12
M  V30 12 1 11 13
M  V30 13 1 13 14
M  V30 14 1 14 15
M  V30 15 2 15 16
M  V30 16 1 16 17
M  V30 17 2 17 18
M  V30 18 1 17 19
M  V30 19 1 18 20
M  V30 20 2 19 21
M  V30 21 2 20 22
M  V30 22 1 6 7
M  V30 23 1 12 13
M  V30 24 1 21 22
M  V30 25 1 4 23
M  V30 26 1 6 24
M  V30 27 1 9 25
M  V30 28 1 9 26
M  V30 29 1 10 27
M  V30 30 1 10 28
M  V30 31 1 11 29
M  V30 32 1 11 30
M  V30 33 1 12 31
M  V30 34 1 12 32
M  V30 35 1 14 33
M  V30 36 1 14 34
M  V30 37 1 15 35
M  V30 38 1 16 36
M  V30 39 1 18 37
M  V30 40 1 19 38
M  V30 41 1 20 39
M  V30 42 1 21 40
M  V30 43 1 22 41
M  V30 END BOND
M  V30 END CTAB
M  END
>  <Column 1>
2050

>  <level_0>
2227

>  <index>
2227

>  <Unnamed: 0>
2227

>  <NO.>
2239

>  <Name>
lorcinadol

>  <IUPAC_name>
3-chloro-6-[4-[(e)-3-phenylprop-2-enyl]piperazin-1-yl]pyridazine

>  <SMILES>
Clc1ccc(N2CCN(C/C=C/c3ccccc3)CC2)nn1

>  <CID>
6436126

>  <logBB>


>  <BBB+/BBB->
BBB+

>  <Inchi>
InChI=1S/C17H19ClN4/c18-16-8-9-17(20-19-16)22-13-11-21(12-14-22)10-4-7-15-5-2-1-3-6-15/h1-9H-10-14H2/b7-4+

>  <threshold>
-1

>  <reference>
R1|R13|R6|R24|R27|R27|R30|R30|

>  <group>
B

>  <Class>
1

>  <ABC>
17.04

>  <ABCGG>
12.31

>  <nAcid>
0

>  <nBase>
1

>  <nAromAtom>
12

>  <nAromBond>
12

>  <nAtom>
41

>  <nHeavyAtom>
22

>  <nSpiro>
0

>  <nBridgehead>
0

>  <nHetero>
5

>  <nN>
4

>  <nO>
0

>  <nF>
0

>  <BalabanJ>
1.28

>  <BertzCT>
604.32

>  <nBonds>
43

>  <nBondsO>
24

>  <nBondsS>
30

>  <nBondsD>
1

>  <nBondsT>
0

>  <nBondsA>
12

>  <nBondsM>
13

>  <nBondsKS>
36

>  <nBondsKD>
7

>  <RNCG>
0.24

>  <RPCG>
0.1

>  <FCSP3>
0.29

>  <SZ>
27.67

>  <Sm>
26.21

>  <Sv>
26.27

>  <Sse>
40.85

>  <Sp>
28.53

>  <Si>
46.26

>  <MZ>
0.67

>  <Mm>
0.64

>  <Mv>
0.64

>  <Mse>
1

>  <Mp>
0.7

>  <Mi>
1.13

>  <NsCH3>
0

>  <NdCH2>
0

>  <NssCH2>
5

>  <NtCH>
0

>  <NdsCH>
2

>  <NaaCH>
7

>  <NsssCH>
0

>  <NddC>
0

>  <NtsC>
0

>  <NdssC>
0

>  <NaasC>
3

>  <NaaaC>
0

>  <NssssC>
0

>  <NsNH3>
0

>  <NsNH2>
0

>  <NssNH2>
0

>  <NdNH>
0

>  <NssNH>
0

>  <NaaNH>
0

>  <NtN>
0

>  <NsssNH>
0

>  <NdsN>
0

>  <NaaN>
2

>  <NsssN>
2

>  <NddsN>
0

>  <NaasN>
0

>  <NssssN>
0

>  <NsOH>
0

>  <NdO>
0

>  <NssO>
0

>  <NaaO>
0

>  <NsF>
0

>  <NsSiH3>
0

>  <NssSiH2>
0

>  <NsssSiH>
0

>  <NssssSi>
0

>  <NsPH2>
0

>  <NssPH>
0

>  <NsssP>
0

>  <NdsssP>
0

>  <NsssssP>
0

>  <NsSH>
0

>  <NdS>
0

>  <NssS>
0

>  <NaaS>
0

>  <NdssS>
0

>  <NddssS>
0

>  <NsCl>
1

>  <NsBr>
0

>  <NsI>
0

>  <fragCpx>
114.05

>  <fMF>
0.51

>  <nHBAcc>
4

>  <nHBDon>
0

>  <Kier1>
16.84

>  <Kier2>
8.74

>  <Lipinski>
1

>  <GhoseFilter>
1

>  <FilterItLogS>
-3.98

>  <VMcGowan>
239.87

>  <LabuteASA>
135.58

>  <PEOE_VSA1>
4.9

>  <PEOE_VSA2>
4.9

>  <PEOE_VSA3>
0

>  <PEOE_VSA4>
0

>  <PEOE_VSA5>
10.2

>  <PEOE_VSA6>
54.08

>  <PEOE_VSA7>
17.7

>  <PEOE_VSA8>
32.72

>  <PEOE_VSA9>
0

>  <PEOE_VSA10>
0

>  <PEOE_VSA11>
10.97

>  <PEOE_VSA12>
0

>  <PEOE_VSA13>
0

>  <SMR_VSA1>
0

>  <SMR_VSA2>
0

>  <SMR_VSA3>
15.1

>  <SMR_VSA4>
0

>  <SMR_VSA5>
0

>  <SMR_VSA6>
37.62

>  <SMR_VSA7>
59.26

>  <SMR_VSA8>
0

>  <SMR_VSA9>
0

>  <SlogP_VSA1>
4.9

>  <SlogP_VSA2>
47.82

>  <SlogP_VSA3>
0

>  <SlogP_VSA4>
0

>  <SlogP_VSA5>
5.56

>  <SlogP_VSA6>
48.54

>  <SlogP_VSA7>
5.15

>  <SlogP_VSA8>
6.08

>  <SlogP_VSA9>
0

>  <SlogP_VSA10>
5.82

>  <SlogP_VSA11>
0

>  <EState_VSA1>
0

>  <EState_VSA2>
0

>  <EState_VSA3>
5.15

>  <EState_VSA4>
38.54

>  <EState_VSA5>
5.56

>  <EState_VSA6>
6.07

>  <EState_VSA7>
12.13

>  <EState_VSA8>
56.41

>  <EState_VSA9>
11.6

>  <EState_VSA10>
0

>  <VSA_EState1>
0

>  <VSA_EState2>
4.69

>  <VSA_EState3>
8.48

>  <VSA_EState4>
1.25

>  <VSA_EState5>
0.91

>  <VSA_EState6>
14.12

>  <VSA_EState7>
4.41

>  <VSA_EState8>
4.98

>  <VSA_EState9>
0

>  <apol>
47.64

>  <bpol>
24.13

>  <nRing>
3

>  <nHRing>
2

>  <naRing>
2

>  <naHRing>
1

>  <nARing 2>
1

>  <nAHRing 2>
1

>  <nFRing>
0

>  <nFHRing>
0

>  <nFaRing>
0

>  <nFaHRing>
0

>  <nFARing 2>
0

>  <nFAHRing 2>
0

>  <nRot>
4

>  <SLogP>
2.97

>  <SMR>
91.17

>  <TopoPSA(NO)>
32.26

>  <TopoPSA>
32.26

>  <JGI1>
0.15

>  <JGI2>
0.06

>  <JGI3>
0.02

>  <JGI4>
0.02

>  <JGI5>
0.03

>  <Diameter>
15

>  <Radius>
8

>  <TMWC10>
118.01

>  <TSRW10>
55.54

>  <MW>
314.13

>  <AMW>
7.66

>  <WPath>
1303

>  <WPol>
29

>  <Zagreb1>
110

>  <Zagreb2>
124

>  <mZagreb2>
4.94

>  <yes>


>  <nAR-cont>
0.816016

>  <nHA-cont>
0.983774276

>  <MWHBN>
0.225686346

>  <MWHBN-cont>
0.990759823

>  <TPSA-cont>
0.774805168

>  <pka_cont>
0.97

>  <yes.1>


>  <BBB_SCORE>
5.320540346

>  <MMFF94 Energy>
98.746

$$$$
Compound 1690
Actelion Java MolfileCreator 2.0

  0  0  0  0  0  0              0 V3000
M  V30 BEGIN CTAB
M  V30 COUNTS 25 26 0 0 0
M  V30 BEGIN ATOM
M  V30 1 Cl 1.8881 -3.8612 3.2032 0
M  V30 2 C 0.9543 -2.4272 2.9632 0
M  V30 3 C 0.2593 -1.8023 4.002 0
M  V30 4 C 0.9063 -1.8894 1.6733 0
M  V30 5 Cl 0.2685 -2.4036 5.621 0
M  V30 6 C -0.4778 -0.6443 3.7411 0
M  V30 7 C 0.1695 -0.7309 1.4096 0
M  V30 8 C -0.5232 -0.1093 2.4488 0
M  V30 9 O 0.2089 -0.315 0.1081 0
M  V30 10 C -0.5254 0.8619 -0.2162 0
M  V30 11 C -0.3681 1.1719 -1.6937 0
M  V30 12 N -0.9503 2.2099 -2.2396 0
M  V30 13 N 0.3784 0.3994 -2.5315 0
M  V30 14 C -0.5476 2.1524 -3.6799 0
M  V30 15 C 0.3526 0.9202 -3.8624 0
M  V30 16 H 1.4459 -2.373 0.8625 0
M  V30 17 H -1.0227 -0.1494 4.5422 0
M  V30 18 H -1.1085 0.7918 2.2921 0
M  V30 19 H -1.5948 0.7189 -0.022 0
M  V30 20 H -0.1446 1.7244 0.3432 0
M  V30 21 H 0.8781 -0.4281 -2.2367 0
M  V30 22 H -0.0143 3.0711 -3.9459 0
M  V30 23 H -1.4433 2.0803 -4.3059 0
M  V30 24 H 1.353 1.2014 -4.2036 0
M  V30 25 H -0.0838 0.2052 -4.5655 0
M  V30 END ATOM
M  V30 BEGIN BOND
M  V30 1 1 1 2
M  V30 2 2 2 3
M  V30 3 1 2 4
M  V30 4 1 3 5
M  V30 5 1 3 6
M  V30 6 2 4 7
M  V30 7 2 6 8
M  V30 8 1 7 9
M  V30 9 1 9 10
M  V30 10 1 10 11
M  V30 11 2 11 12
M  V30 12 1 11 13
M  V30 13 1 12 14
M  V30 14 1 13 15
M  V30 15 1 7 8
M  V30 16 1 14 15
M  V30 17 1 4 16
M  V30 18 1 6 17
M  V30 19 1 8 18
M  V30 20 1 10 19
M  V30 21 1 10 20
M  V30 22 1 13 21
M  V30 23 1 14 22
M  V30 24 1 14 23
M  V30 25 1 15 24
M  V30 26 1 15 25
M  V30 END BOND
M  V30 END CTAB
M  END
>  <Column 1>
2051

>  <level_0>
2228

>  <index>
2228

>  <Unnamed: 0>
2228

>  <NO.>
2240

>  <Name>
fenmetozole

>  <IUPAC_name>
2-[(3-4-dichlorophenoxy)methyl]-4-5-dihydro-1h-imidazole

>  <SMILES>
Clc1ccc(OCC2=NCCN2)cc1Cl

>  <CID>
32049

>  <logBB>


>  <BBB+/BBB->
BBB+

>  <Inchi>
InChI=1S/C10H10Cl2N2O/c11-8-2-1-7(5-9(8)12)15-6-10-13-3-4-14-10/h1-2-5H-3-4-6H2-(H-13-14)

>  <threshold>
-1

>  <reference>
R1|R13|R19|R6|R24|R27|R27|R27|R30|R30|

>  <group>
B

>  <Class>
1

>  <ABC>
11.49

>  <ABCGG>
10.07

>  <nAcid>
0

>  <nBase>
2

>  <nAromAtom>
6

>  <nAromBond>
6

>  <nAtom>
25

>  <nHeavyAtom>
15

>  <nSpiro>
0

>  <nBridgehead>
0

>  <nHetero>
5

>  <nN>
2

>  <nO>
1

>  <nF>
0

>  <BalabanJ>
1.66

>  <BertzCT>
393.01

>  <nBonds>
26

>  <nBondsO>
16

>  <nBondsS>
19

>  <nBondsD>
1

>  <nBondsT>
0

>  <nBondsA>
6

>  <nBondsM>
7

>  <nBondsKS>
22

>  <nBondsKD>
4

>  <RNCG>
0.36

>  <RPCG>
0.12

>  <FCSP3>
0.3

>  <SZ>
21

>  <Sm>
20.41

>  <Sv>
17.12

>  <Sse>
25.63

>  <Sp>
18.4

>  <Si>
28.17

>  <MZ>
0.84

>  <Mm>
0.82

>  <Mv>
0.68

>  <Mse>
1.03

>  <Mp>
0.74

>  <Mi>
1.13

>  <NsCH3>
0

>  <NdCH2>
0

>  <NssCH2>
3

>  <NtCH>
0

>  <NdsCH>
0

>  <NaaCH>
3

>  <NsssCH>
0

>  <NddC>
0

>  <NtsC>
0

>  <NdssC>
1

>  <NaasC>
3

>  <NaaaC>
0

>  <NssssC>
0

>  <NsNH3>
0

>  <NsNH2>
0

>  <NssNH2>
0

>  <NdNH>
0

>  <NssNH>
1

>  <NaaNH>
0

>  <NtN>
0

>  <NsssNH>
0

>  <NdsN>
1

>  <NaaN>
0

>  <NsssN>
0

>  <NddsN>
0

>  <NaasN>
0

>  <NssssN>
0

>  <NsOH>
0

>  <NdO>
0

>  <NssO>
1

>  <NaaO>
0

>  <NsF>
0

>  <NsSiH3>
0

>  <NssSiH2>
0

>  <NsssSiH>
0

>  <NssssSi>
0

>  <NsPH2>
0

>  <NssPH>
0

>  <NsssP>
0

>  <NdsssP>
0

>  <NsssssP>
0

>  <NsSH>
0

>  <NdS>
0

>  <NssS>
0

>  <NaaS>
0

>  <NdssS>
0

>  <NddssS>
0

>  <NsCl>
2

>  <NsBr>
0

>  <NsI>
0

>  <fragCpx>
46.05

>  <fMF>
0.52

>  <nHBAcc>
3

>  <nHBDon>
1

>  <Kier1>
11.48

>  <Kier2>
5.37

>  <Lipinski>
1

>  <GhoseFilter>
1

>  <FilterItLogS>
-4.24

>  <VMcGowan>
163.15

>  <LabuteASA>
98.05

>  <PEOE_VSA1>
10.05

>  <PEOE_VSA2>
4.99

>  <PEOE_VSA3>
0

>  <PEOE_VSA4>
0

>  <PEOE_VSA5>
0

>  <PEOE_VSA6>
23.2

>  <PEOE_VSA7>
12.13

>  <PEOE_VSA8>
12.61

>  <PEOE_VSA9>
16.59

>  <PEOE_VSA10>
18.19

>  <PEOE_VSA11>
0

>  <PEOE_VSA12>
0

>  <PEOE_VSA13>
0

>  <SMR_VSA1>
4.74

>  <SMR_VSA2>
0

>  <SMR_VSA3>
5.32

>  <SMR_VSA4>
4.99

>  <SMR_VSA5>
0

>  <SMR_VSA6>
19.7

>  <SMR_VSA7>
28.24

>  <SMR_VSA8>
0

>  <SMR_VSA9>
5.75

>  <SlogP_VSA1>
10.05

>  <SlogP_VSA2>
25.53

>  <SlogP_VSA3>
0

>  <SlogP_VSA4>
0

>  <SlogP_VSA5>
0

>  <SlogP_VSA6>
23.19

>  <SlogP_VSA7>
10.05

>  <SlogP_VSA8>
0

>  <SlogP_VSA9>
0

>  <SlogP_VSA10>
0

>  <SlogP_VSA11>
5.75

>  <EState_VSA1>
0

>  <EState_VSA2>
0

>  <EState_VSA3>
22.4

>  <EState_VSA4>
18.93

>  <EState_VSA5>
0

>  <EState_VSA6>
18.2

>  <EState_VSA7>
0

>  <EState_VSA8>
10.31

>  <EState_VSA9>
27.94

>  <EState_VSA10>
0

>  <VSA_EState1>
5.49

>  <VSA_EState2>
4.21

>  <VSA_EState3>
4.14

>  <VSA_EState4>
0

>  <VSA_EState5>
1.57

>  <VSA_EState6>
5.19

>  <VSA_EState7>
0

>  <VSA_EState8>
2.15

>  <VSA_EState9>
0

>  <apol>
30.73

>  <bpol>
14.5

>  <nRing>
2

>  <nHRing>
1

>  <naRing>
1

>  <naHRing>
0

>  <nARing 2>
1

>  <nAHRing 2>
1

>  <nFRing>
0

>  <nFHRing>
0

>  <nFaRing>
0

>  <nFaHRing>
0

>  <nFARing 2>
0

>  <nFAHRing 2>
0

>  <nRot>
3

>  <SLogP>
2.37

>  <SMR>
62.26

>  <TopoPSA(NO)>
33.62

>  <TopoPSA>
33.62

>  <JGI1>
0.19

>  <JGI2>
0.07

>  <JGI3>
0.03

>  <JGI4>
0.05

>  <JGI5>
0.02

>  <Diameter>
9

>  <Radius>
5

>  <TMWC10>
99.28

>  <TSRW10>
59.58

>  <MW>
244.02

>  <AMW>
9.76

>  <WPath>
407

>  <WPol>
17

>  <Zagreb1>
74

>  <Zagreb2>
83

>  <mZagreb2>
3.36

>  <yes>


>  <nAR-cont>
0.816016

>  <nHA-cont>
0.92539861

>  <MWHBN>
0.256063266

>  <MWHBN-cont>
0.94900881

>  <TPSA-cont>
0.765311523

>  <pka_cont>
0.97

>  <yes.1>


>  <BBB_SCORE>
5.180550872

>  <MMFF94 Energy>
59.921

$$$$
Compound 1691
Actelion Java MolfileCreator 2.0

  0  0  0  0  0  0              0 V3000
M  V30 BEGIN CTAB
M  V30 COUNTS 49 53 0 0 0
M  V30 BEGIN ATOM
M  V30 1 Cl -2.6031 1.8704 4.5588 0
M  V30 2 C -2.3118 1.2409 2.9849 0
M  V30 3 C -3.0224 1.7367 1.8977 0
M  V30 4 C -1.3687 0.2359 2.8038 0
M  V30 5 C -2.7802 1.2248 0.6198 0
M  V30 6 C -1.1294 -0.272 1.5231 0
M  V30 7 C -1.8201 0.218 0.4067 0
M  V30 8 C -1.6082 -0.2985 -1.0034 0 CFG=1
M  V30 9 C -0.1829 -0.605 -1.5946 0
M  V30 10 C -2.4022 -1.5912 -1.3578 0 CFG=2
M  V30 11 N 0.912 -0.6409 -0.6039 0
M  V30 12 C -0.3916 -1.9978 -2.2458 0 CFG=2
M  V30 13 C 0.2748 0.4543 -2.6017 0
M  V30 14 C -1.8362 -1.9077 -2.7489 0
M  V30 15 C -1.9173 -2.8173 -0.569 0
M  V30 16 C 1.5103 0.5139 -0.6591 0
M  V30 17 C -0.5319 -3.0906 -1.166 0
M  V30 18 C 0.9692 1.4537 -1.7072 0
M  V30 19 N 2.5494 0.8738 0.1655 0
M  V30 20 C 3.148 -0.0782 1.112 0
M  V30 21 C 3.0159 2.2477 0.3683 0
M  V30 22 C 2.9071 0.4064 2.5477 0
M  V30 23 C 2.7781 2.6537 1.8322 0
M  V30 24 O 3.4157 1.7394 2.7407 0
M  V30 25 H -3.7664 2.5165 2.0343 0
M  V30 26 H -0.8155 -0.1613 3.6499 0
M  V30 27 H -3.3536 1.6231 -0.2153 0
M  V30 28 H -0.3909 -1.063 1.4134 0
M  V30 29 H -2.0382 0.4786 -1.6547 0
M  V30 30 H -3.4866 -1.4585 -1.3251 0
M  V30 31 H 0.3493 -2.2514 -3.0076 0
M  V30 32 H -0.5283 0.9059 -3.1909 0
M  V30 33 H 1.0023 0.0285 -3.3048 0
M  V30 34 H -2.2092 -2.8517 -3.1614 0
M  V30 35 H -1.9988 -1.1083 -3.4787 0
M  V30 36 H -2.5749 -3.6743 -0.7594 0
M  V30 37 H -1.8895 -2.67 0.5117 0
M  V30 38 H 0.2576 -3.0651 -0.41 0
M  V30 39 H -0.5155 -4.0861 -1.6252 0
M  V30 40 H 0.272 2.1574 -1.2429 0
M  V30 41 H 1.7607 1.9912 -2.2335 0
M  V30 42 H 4.2263 -0.1196 0.917 0
M  V30 43 H 2.7581 -1.094 0.9917 0
M  V30 44 H 2.5165 2.9641 -0.2897 0
M  V30 45 H 4.0886 2.2855 0.1454 0
M  V30 46 H 3.4244 -0.2494 3.2546 0
M  V30 47 H 1.8402 0.3951 2.7976 0
M  V30 48 H 1.7063 2.6931 2.0617 0
M  V30 49 H 3.1975 3.6479 2.0152 0
M  V30 END ATOM
M  V30 BEGIN BOND
M  V30 1 1 1 2
M  V30 2 2 2 3
M  V30 3 1 2 4
M  V30 4 1 3 5
M  V30 5 2 4 6
M  V30 6 2 5 7
M  V30 7 1 7 8
M  V30 8 1 8 9
M  V30 9 1 8 10
M  V30 10 1 9 11
M  V30 11 1 9 12
M  V30 12 1 9 13
M  V30 13 1 10 14
M  V30 14 1 10 15
M  V30 15 2 11 16
M  V30 16 1 12 17
M  V30 17 1 13 18
M  V30 18 1 16 19
M  V30 19 1 19 20
M  V30 20 1 19 21
M  V30 21 1 20 22
M  V30 22 1 21 23
M  V30 23 1 22 24
M  V30 24 1 6 7
M  V30 25 1 12 14
M  V30 26 1 15 17
M  V30 27 1 16 18
M  V30 28 1 23 24
M  V30 29 1 3 25
M  V30 30 1 4 26
M  V30 31 1 5 27
M  V30 32 1 6 28
M  V30 33 1 8 29
M  V30 34 1 10 30
M  V30 35 1 12 31
M  V30 36 1 13 32
M  V30 37 1 13 33
M  V30 38 1 14 34
M  V30 39 1 14 35
M  V30 40 1 15 36
M  V30 41 1 15 37
M  V30 42 1 17 38
M  V30 43 1 17 39
M  V30 44 1 18 40
M  V30 45 1 18 41
M  V30 46 1 20 42
M  V30 47 1 20 43
M  V30 48 1 21 44
M  V30 49 1 21 45
M  V30 50 1 22 46
M  V30 51 1 22 47
M  V30 52 1 23 48
M  V30 53 1 23 49
M  V30 END BOND
M  V30 BEGIN COLLECTION
M  V30 MDLV30/STEABS ATOMS=(3 8 10 12)
M  V30 END COLLECTION
M  V30 END CTAB
M  END
>  <Column 1>
2052

>  <level_0>
2229

>  <index>
2229

>  <Unnamed: 0>
2229

>  <NO.>
2241

>  <Name>
spiclamine

>  <IUPAC_name>
4-[(1's-3's-4's)-3'-(4-chlorophenyl)spiro[3-4-dihydropyrrole-5-2'-bicyclo[2.2.1]heptane]-2-yl]morpholine

>  <SMILES>
Clc1ccc([C@@H]2[C@H]3CC[C@@H](C3)C23CCC(N2CCOCC2)=N3)cc1

>  <CID>
3086308

>  <logBB>


>  <BBB+/BBB->
BBB+

>  <Inchi>
InChI=1S/C20H25ClN2O/c21-17-5-2-14(3-6-17)19-15-1-4-16(13-15)20(19)8-7-18(22-20)23-9-11-24-12-10-23/h2-3-5-6-15-16-19H-1-4-7-13H2/t15--16--19+-20?/m0/s1

>  <threshold>
-1

>  <reference>
R1|R6|R27|R30|

>  <group>
B

>  <Class>
1

>  <ABC>
19.66

>  <ABCGG>
15.9

>  <nAcid>
0

>  <nBase>
2

>  <nAromAtom>
6

>  <nAromBond>
6

>  <nAtom>
49

>  <nHeavyAtom>
24

>  <nSpiro>
1

>  <nBridgehead>
2

>  <nHetero>
4

>  <nN>
2

>  <nO>
1

>  <nF>
0

>  <BalabanJ>
1.35

>  <BertzCT>
652.11

>  <nBonds>
53

>  <nBondsO>
28

>  <nBondsS>
46

>  <nBondsD>
1

>  <nBondsT>
0

>  <nBondsA>
6

>  <nBondsM>
7

>  <nBondsKS>
49

>  <nBondsKD>
4

>  <RNCG>
0.25

>  <RPCG>
0.07

>  <FCSP3>
0.65

>  <SZ>
30.67

>  <Sm>
28.71

>  <Sv>
30.09

>  <Sse>
48.52

>  <Sp>
33.08

>  <Si>
55.13

>  <MZ>
0.63

>  <Mm>
0.59

>  <Mv>
0.61

>  <Mse>
0.99

>  <Mp>
0.68

>  <Mi>
1.13

>  <NsCH3>
0

>  <NdCH2>
0

>  <NssCH2>
9

>  <NtCH>
0

>  <NdsCH>
0

>  <NaaCH>
4

>  <NsssCH>
3

>  <NddC>
0

>  <NtsC>
0

>  <NdssC>
1

>  <NaasC>
2

>  <NaaaC>
0

>  <NssssC>
1

>  <NsNH3>
0

>  <NsNH2>
0

>  <NssNH2>
0

>  <NdNH>
0

>  <NssNH>
0

>  <NaaNH>
0

>  <NtN>
0

>  <NsssNH>
0

>  <NdsN>
1

>  <NaaN>
0

>  <NsssN>
1

>  <NddsN>
0

>  <NaasN>
0

>  <NssssN>
0

>  <NsOH>
0

>  <NdO>
0

>  <NssO>
1

>  <NaaO>
0

>  <NsF>
0

>  <NsSiH3>
0

>  <NssSiH2>
0

>  <NsssSiH>
0

>  <NssssSi>
0

>  <NsPH2>
0

>  <NssPH>
0

>  <NsssP>
0

>  <NdsssP>
0

>  <NsssssP>
0

>  <NsSH>
0

>  <NdS>
0

>  <NssS>
0

>  <NaaS>
0

>  <NdssS>
0

>  <NddssS>
0

>  <NsCl>
1

>  <NsBr>
0

>  <NsI>
0

>  <fragCpx>
232.04

>  <fMF>
0.47

>  <nHBAcc>
3

>  <nHBDon>
0

>  <Kier1>
16.19

>  <Kier2>
6.31

>  <Lipinski>
1

>  <GhoseFilter>
1

>  <FilterItLogS>
-4.66

>  <VMcGowan>
259.23

>  <LabuteASA>
148.59

>  <PEOE_VSA1>
9.64

>  <PEOE_VSA2>
4.99

>  <PEOE_VSA3>
0

>  <PEOE_VSA4>
0

>  <PEOE_VSA5>
0

>  <PEOE_VSA6>
23.73

>  <PEOE_VSA7>
55.22

>  <PEOE_VSA8>
30.45

>  <PEOE_VSA9>
24.59

>  <PEOE_VSA10>
0

>  <PEOE_VSA11>
0

>  <PEOE_VSA12>
0

>  <PEOE_VSA13>
0

>  <SMR_VSA1>
4.74

>  <SMR_VSA2>
0

>  <SMR_VSA3>
4.9

>  <SMR_VSA4>
16.83

>  <SMR_VSA5>
43.56

>  <SMR_VSA6>
26.3

>  <SMR_VSA7>
34.85

>  <SMR_VSA8>
0

>  <SMR_VSA9>
0

>  <SlogP_VSA1>
0

>  <SlogP_VSA2>
42.58

>  <SlogP_VSA3>
4.74

>  <SlogP_VSA4>
11.84

>  <SlogP_VSA5>
43.59

>  <SlogP_VSA6>
29.26

>  <SlogP_VSA7>
5.02

>  <SlogP_VSA8>
0

>  <SlogP_VSA9>
0

>  <SlogP_VSA10>
0

>  <SlogP_VSA11>
0

>  <EState_VSA1>
0

>  <EState_VSA2>
5.54

>  <EState_VSA3>
5.92

>  <EState_VSA4>
49.58

>  <EState_VSA5>
37.08

>  <EState_VSA6>
0

>  <EState_VSA7>
0

>  <EState_VSA8>
29.17

>  <EState_VSA9>
21.33

>  <EState_VSA10>
0

>  <VSA_EState1>
5.52

>  <VSA_EState2>
7.94

>  <VSA_EState3>
0.83

>  <VSA_EState4>
1.61

>  <VSA_EState5>
3.53

>  <VSA_EState6>
8.6

>  <VSA_EState7>
6.49

>  <VSA_EState8>
3.71

>  <VSA_EState9>
0

>  <apol>
55.25

>  <bpol>
30.18

>  <nRing>
5

>  <nHRing>
2

>  <naRing>
1

>  <naHRing>
0

>  <nARing 2>
4

>  <nAHRing 2>
2

>  <nFRing>
1

>  <nFHRing>
0

>  <nFaRing>
0

>  <nFaHRing>
0

>  <nFARing 2>
1

>  <nFAHRing 2>
0

>  <nRot>
1

>  <SLogP>
4.12

>  <SMR>
96.82

>  <TopoPSA(NO)>
24.83

>  <TopoPSA>
24.83

>  <JGI1>
0.18

>  <JGI2>
0.08

>  <JGI3>
0.05

>  <JGI4>
0.03

>  <JGI5>
0.02

>  <Diameter>
12

>  <Radius>
6

>  <TMWC10>
130.22

>  <TSRW10>
76.94

>  <MW>
344.17

>  <AMW>
7.02

>  <WPath>
1257

>  <WPol>
39

>  <Zagreb1>
140

>  <Zagreb2>
174

>  <mZagreb2>
5.08

>  <yes>


>  <nAR-cont>
0.199399

>  <nHA-cont>
0.94700071

>  <MWHBN>
0.161709208

>  <MWHBN-cont>
0.95928349

>  <TPSA-cont>
0.826671181

>  <pka_cont>
0.97

>  <yes.1>


>  <BBB_SCORE>
4.723667307

>  <MMFF94 Energy>
106.74

$$$$
Compound 1692
Actelion Java MolfileCreator 2.0

  0  0  0  0  0  0              0 V3000
M  V30 BEGIN CTAB
M  V30 COUNTS 32 35 0 0 0
M  V30 BEGIN ATOM
M  V30 1 Cl 0.819 3.7719 -2.5408 0
M  V30 2 C 1.1851 2.2267 -1.8808 0
M  V30 3 C 0.4424 1.7405 -0.806 0
M  V30 4 C 2.2203 1.4721 -2.4252 0
M  V30 5 C 0.7234 0.4749 -0.2641 0
M  V30 6 C 2.5298 0.2237 -1.8832 0
M  V30 7 C -0.1542 -0.016 0.8494 0
M  V30 8 C 1.7881 -0.2731 -0.7984 0
M  V30 9 N 0.264 -0.5958 1.9235 0
M  V30 10 C -1.6363 0.173 0.7208 0
M  V30 11 N 2.1733 -1.5011 -0.2255 0
M  V30 12 C 1.6801 -0.8722 2.1361 0
M  V30 13 C -2.2849 0.0147 -0.5106 0
M  V30 14 C -2.3831 0.4821 1.864 0
M  V30 15 C 2.1797 -1.8135 1.1105 0
M  V30 16 C 2.6961 -2.6011 -0.8491 0
M  V30 17 C -3.6668 0.1963 -0.5988 0
M  V30 18 C -3.7638 0.6623 1.7706 0
M  V30 19 N 2.6969 -3.0138 1.2789 0
M  V30 20 N 3.0207 -3.5113 0.0392 0
M  V30 21 C -4.4035 0.5238 0.5394 0
M  V30 22 H -0.3549 2.3554 -0.3926 0
M  V30 23 H 2.8016 1.8581 -3.2598 0
M  V30 24 H 3.3714 -0.3255 -2.3016 0
M  V30 25 H 2.2653 0.0548 2.1497 0
M  V30 26 H 1.7957 -1.3242 3.1275 0
M  V30 27 H -1.7358 -0.2666 -1.4044 0
M  V30 28 H -1.8927 0.581 2.8298 0
M  V30 29 H 2.8144 -2.6932 -1.9185 0
M  V30 30 H -4.1724 0.0723 -1.5534 0
M  V30 31 H -4.3405 0.9031 2.6604 0
M  V30 32 H -5.4802 0.6592 0.4698 0
M  V30 END ATOM
M  V30 BEGIN BOND
M  V30 1 1 1 2
M  V30 2 2 2 3
M  V30 3 1 2 4
M  V30 4 1 3 5
M  V30 5 2 4 6
M  V30 6 1 5 7
M  V30 7 2 5 8
M  V30 8 2 7 9
M  V30 9 1 7 10
M  V30 10 1 8 11
M  V30 11 1 9 12
M  V30 12 2 10 13
M  V30 13 1 10 14
M  V30 14 1 11 15
M  V30 15 1 11 16
M  V30 16 1 13 17
M  V30 17 2 14 18
M  V30 18 2 15 19
M  V30 19 2 16 20
M  V30 20 2 17 21
M  V30 21 1 6 8
M  V30 22 1 12 15
M  V30 23 1 18 21
M  V30 24 1 19 20
M  V30 25 1 3 22
M  V30 26 1 4 23
M  V30 27 1 6 24
M  V30 28 1 12 25
M  V30 29 1 12 26
M  V30 30 1 13 27
M  V30 31 1 14 28
M  V30 32 1 16 29
M  V30 33 1 17 30
M  V30 34 1 18 31
M  V30 35 1 21 32
M  V30 END BOND
M  V30 END CTAB
M  END
>  <Column 1>
2054

>  <level_0>
2231

>  <index>
2231

>  <Unnamed: 0>
2231

>  <NO.>
2243

>  <Name>
estazolam

>  <IUPAC_name>
8-chloro-6-phenyl-4h-[1-2-4]triazolo[4-3-a][1-4]benzodiazepine

>  <SMILES>
Clc1ccc2c(c1)C(c1ccccc1)=NCc1nncn1-2

>  <CID>
3261

>  <logBB>


>  <BBB+/BBB->
BBB+

>  <Inchi>
InChI=1S/C16H11ClN4/c17-12-6-7-14-13(8-12)16(11-4-2-1-3-5-11)18-9-15-20-19-10-21(14)15/h1-8-10H-9H2

>  <threshold>
-1

>  <reference>
R1|R13|R19|R6|R14|R15|R23|R24|R26|R27|R27|R27|R30|R30|

>  <group>
B

>  <Class>
1

>  <ABC>
16.88

>  <ABCGG>
13.67

>  <nAcid>
0

>  <nBase>
0

>  <nAromAtom>
17

>  <nAromBond>
17

>  <nAtom>
32

>  <nHeavyAtom>
21

>  <nSpiro>
0

>  <nBridgehead>
0

>  <nHetero>
5

>  <nN>
4

>  <nO>
0

>  <nF>
0

>  <BalabanJ>
1.57

>  <BertzCT>
836.49

>  <nBonds>
35

>  <nBondsO>
24

>  <nBondsS>
17

>  <nBondsD>
1

>  <nBondsT>
0

>  <nBondsA>
17

>  <nBondsM>
18

>  <nBondsKS>
26

>  <nBondsKD>
9

>  <RNCG>
0.22

>  <RPCG>
0.12

>  <FCSP3>
0.06

>  <SZ>
25.33

>  <Sm>
24.54

>  <Sv>
23.1

>  <Sse>
32.3

>  <Sp>
24.33

>  <Si>
35.6

>  <MZ>
0.79

>  <Mm>
0.77

>  <Mv>
0.72

>  <Mse>
1.01

>  <Mp>
0.76

>  <Mi>
1.11

>  <NsCH3>
0

>  <NdCH2>
0

>  <NssCH2>
1

>  <NtCH>
0

>  <NdsCH>
0

>  <NaaCH>
9

>  <NsssCH>
0

>  <NddC>
0

>  <NtsC>
0

>  <NdssC>
1

>  <NaasC>
5

>  <NaaaC>
0

>  <NssssC>
0

>  <NsNH3>
0

>  <NsNH2>
0

>  <NssNH2>
0

>  <NdNH>
0

>  <NssNH>
0

>  <NaaNH>
0

>  <NtN>
0

>  <NsssNH>
0

>  <NdsN>
1

>  <NaaN>
2

>  <NsssN>
0

>  <NddsN>
0

>  <NaasN>
1

>  <NssssN>
0

>  <NsOH>
0

>  <NdO>
0

>  <NssO>
0

>  <NaaO>
0

>  <NsF>
0

>  <NsSiH3>
0

>  <NssSiH2>
0

>  <NsssSiH>
0

>  <NssssSi>
0

>  <NsPH2>
0

>  <NssPH>
0

>  <NsssP>
0

>  <NdsssP>
0

>  <NsssssP>
0

>  <NsSH>
0

>  <NdS>
0

>  <NssS>
0

>  <NaaS>
0

>  <NdssS>
0

>  <NddssS>
0

>  <NsCl>
1

>  <NsBr>
0

>  <NsI>
0

>  <fragCpx>
156.05

>  <fMF>
0.63

>  <nHBAcc>
4

>  <nHBDon>
0

>  <Kier1>
14.58

>  <Kier2>
6.25

>  <Lipinski>
1

>  <GhoseFilter>
1

>  <FilterItLogS>
-4.9

>  <VMcGowan>
206.32

>  <LabuteASA>
126.3

>  <PEOE_VSA1>
0

>  <PEOE_VSA2>
9.56

>  <PEOE_VSA3>
0

>  <PEOE_VSA4>
0

>  <PEOE_VSA5>
10.2

>  <PEOE_VSA6>
41.93

>  <PEOE_VSA7>
18.2

>  <PEOE_VSA8>
16.15

>  <PEOE_VSA9>
11.4

>  <PEOE_VSA10>
12.87

>  <PEOE_VSA11>
5.82

>  <PEOE_VSA12>
0

>  <PEOE_VSA13>
0

>  <SMR_VSA1>
0

>  <SMR_VSA2>
0

>  <SMR_VSA3>
14.76

>  <SMR_VSA4>
4.99

>  <SMR_VSA5>
6.54

>  <SMR_VSA6>
0

>  <SMR_VSA7>
76.83

>  <SMR_VSA8>
0

>  <SMR_VSA9>
5.69

>  <SlogP_VSA1>
0

>  <SlogP_VSA2>
20.48

>  <SlogP_VSA3>
6.54

>  <SlogP_VSA4>
0

>  <SlogP_VSA5>
16.95

>  <SlogP_VSA6>
59.85

>  <SlogP_VSA7>
5.02

>  <SlogP_VSA8>
5.69

>  <SlogP_VSA9>
0

>  <SlogP_VSA10>
0

>  <SlogP_VSA11>
0

>  <EState_VSA1>
0

>  <EState_VSA2>
0

>  <EState_VSA3>
11.57

>  <EState_VSA4>
28.35

>  <EState_VSA5>
0

>  <EState_VSA6>
6.33

>  <EState_VSA7>
40.97

>  <EState_VSA8>
22.33

>  <EState_VSA9>
16.59

>  <EState_VSA10>
0

>  <VSA_EState1>
1.96

>  <VSA_EState2>
4.72

>  <VSA_EState3>
8.8

>  <VSA_EState4>
3.99

>  <VSA_EState5>
0.82

>  <VSA_EState6>
15.91

>  <VSA_EState7>
1.71

>  <VSA_EState8>
0.5

>  <VSA_EState9>
0

>  <apol>
40.63

>  <bpol>
15.54

>  <nRing>
4

>  <nHRing>
2

>  <naRing>
3

>  <naHRing>
1

>  <nARing 2>
1

>  <nAHRing 2>
1

>  <nFRing>
1

>  <nFHRing>
1

>  <nFaRing>
0

>  <nFaHRing>
0

>  <nFARing 2>
1

>  <nFAHRing 2>
1

>  <nRot>
1

>  <SLogP>
3.27

>  <SMR>
82.15

>  <TopoPSA(NO)>
43.07

>  <TopoPSA>
43.07

>  <JGI1>
0.13

>  <JGI2>
0.07

>  <JGI3>
0.04

>  <JGI4>
0.03

>  <JGI5>
0.02

>  <Diameter>
9

>  <Radius>
5

>  <TMWC10>
120.13

>  <TSRW10>
69.24

>  <MW>
294.07

>  <AMW>
9.19

>  <WPath>
822

>  <WPol>
37

>  <Zagreb1>
116

>  <Zagreb2>
140

>  <mZagreb2>
4.56

>  <yes>


>  <nAR-cont>
0.816016

>  <nHA-cont>
0.994529749

>  <MWHBN>
0.23325697

>  <MWHBN-cont>
0.983312844

>  <TPSA-cont>
0.699344655

>  <pka_cont>
0.97

>  <yes.1>


>  <BBB_SCORE>
5.169204326

>  <MMFF94 Energy>
84.533

$$$$
Compound 1693
Actelion Java MolfileCreator 2.0

  0  0  0  0  0  0              0 V3000
M  V30 BEGIN CTAB
M  V30 COUNTS 22 23 0 0 0
M  V30 BEGIN ATOM
M  V30 1 Cl -1.2369 0.4121 2.3099 0
M  V30 2 C -0.8412 -0.9807 1.3571 0
M  V30 3 C 0.2789 -1.0169 0.5032 0
M  V30 4 C -1.6258 -2.1238 1.5696 0
M  V30 5 N 1.0529 0.1142 0.1793 0
M  V30 6 C 0.5859 -2.2542 -0.103 0
M  V30 7 C -1.3087 -3.3264 0.9428 0
M  V30 8 C 0.5882 1.3075 -0.2691 0
M  V30 9 Cl 1.9578 -2.4071 -1.1526 0
M  V30 10 C -0.1957 -3.3945 0.1116 0
M  V30 11 O 1.6026 2.1855 -0.4942 0
M  V30 12 N -0.617 1.6821 -0.5427 0
M  V30 13 C 0.9964 3.2811 -1.1619 0
M  V30 14 C -0.4799 3.0886 -0.9233 0
M  V30 15 H -2.482 -2.0805 2.2397 0
M  V30 16 H 2.0405 -0.0484 0.0389 0
M  V30 17 H -1.9215 -4.2085 1.1121 0
M  V30 18 H 0.0573 -4.3348 -0.3721 0
M  V30 19 H 1.3628 4.2271 -0.7528 0
M  V30 20 H 1.2522 3.2306 -2.2254 0
M  V30 21 H -1.066 3.3239 -1.8167 0
M  V30 22 H -0.8363 3.7237 -0.1046 0
M  V30 END ATOM
M  V30 BEGIN BOND
M  V30 1 1 1 2
M  V30 2 2 2 3
M  V30 3 1 2 4
M  V30 4 1 3 5
M  V30 5 1 3 6
M  V30 6 2 4 7
M  V30 7 1 5 8
M  V30 8 1 6 9
M  V30 9 2 6 10
M  V30 10 1 8 11
M  V30 11 2 8 12
M  V30 12 1 11 13
M  V30 13 1 12 14
M  V30 14 1 7 10
M  V30 15 1 13 14
M  V30 16 1 4 15
M  V30 17 1 5 16
M  V30 18 1 7 17
M  V30 19 1 10 18
M  V30 20 1 13 19
M  V30 21 1 13 20
M  V30 22 1 14 21
M  V30 23 1 14 22
M  V30 END BOND
M  V30 END CTAB
M  END
>  <Column 1>
2055

>  <level_0>
2234

>  <index>
2234

>  <Unnamed: 0>
2234

>  <NO.>
2246

>  <Name>
clidafidine

>  <IUPAC_name>
n-(2-6-dichlorophenyl)-4-5-dihydro-1-3-oxazol-2-amine

>  <SMILES>
Clc1cccc(Cl)c1NC1=NCCO1

>  <CID>
193994

>  <logBB>


>  <BBB+/BBB->
BBB+

>  <Inchi>
InChI=1S/C9H8Cl2N2O/c10-6-2-1-3-7(11)8(6)13-9-12-4-5-14-9/h1-3H-4-5H2-(H-12-13)

>  <threshold>
-1

>  <reference>
R1|R13|R19|R6|R24|R27|R27|R27|R30|R30|

>  <group>
B

>  <Class>
-1

>  <ABC>
10.74

>  <ABCGG>
9.87

>  <nAcid>
0

>  <nBase>
2

>  <nAromAtom>
6

>  <nAromBond>
6

>  <nAtom>
22

>  <nHeavyAtom>
14

>  <nSpiro>
0

>  <nBridgehead>
0

>  <nHetero>
5

>  <nN>
2

>  <nO>
1

>  <nF>
0

>  <BalabanJ>
1.86

>  <BertzCT>
358.82

>  <nBonds>
23

>  <nBondsO>
15

>  <nBondsS>
16

>  <nBondsD>
1

>  <nBondsT>
0

>  <nBondsA>
6

>  <nBondsM>
7

>  <nBondsKS>
19

>  <nBondsKD>
4

>  <RNCG>
0.35

>  <RPCG>
0.22

>  <FCSP3>
0.22

>  <SZ>
19.67

>  <Sm>
19.24

>  <Sv>
15.58

>  <Sse>
22.74

>  <Sp>
16.6

>  <Si>
24.76

>  <MZ>
0.89

>  <Mm>
0.87

>  <Mv>
0.71

>  <Mse>
1.03

>  <Mp>
0.75

>  <Mi>
1.13

>  <NsCH3>
0

>  <NdCH2>
0

>  <NssCH2>
2

>  <NtCH>
0

>  <NdsCH>
0

>  <NaaCH>
3

>  <NsssCH>
0

>  <NddC>
0

>  <NtsC>
0

>  <NdssC>
1

>  <NaasC>
3

>  <NaaaC>
0

>  <NssssC>
0

>  <NsNH3>
0

>  <NsNH2>
0

>  <NssNH2>
0

>  <NdNH>
0

>  <NssNH>
1

>  <NaaNH>
0

>  <NtN>
0

>  <NsssNH>
0

>  <NdsN>
1

>  <NaaN>
0

>  <NsssN>
0

>  <NddsN>
0

>  <NaasN>
0

>  <NssssN>
0

>  <NsOH>
0

>  <NdO>
0

>  <NssO>
1

>  <NaaO>
0

>  <NsF>
0

>  <NsSiH3>
0

>  <NssSiH2>
0

>  <NsssSiH>
0

>  <NssssSi>
0

>  <NsPH2>
0

>  <NssPH>
0

>  <NsssP>
0

>  <NdsssP>
0

>  <NsssssP>
0

>  <NsSH>
0

>  <NdS>
0

>  <NssS>
0

>  <NaaS>
0

>  <NdssS>
0

>  <NddssS>
0

>  <NsCl>
2

>  <NsBr>
0

>  <NsI>
0

>  <fragCpx>
43.05

>  <fMF>
0.55

>  <nHBAcc>
3

>  <nHBDon>
1

>  <Kier1>
10.52

>  <Kier2>
4.68

>  <Lipinski>
1

>  <GhoseFilter>
1

>  <FilterItLogS>
-3.84

>  <VMcGowan>
149.06

>  <LabuteASA>
91.69

>  <PEOE_VSA1>
10.05

>  <PEOE_VSA2>
0

>  <PEOE_VSA3>
4.99

>  <PEOE_VSA4>
0

>  <PEOE_VSA5>
0

>  <PEOE_VSA6>
29.27

>  <PEOE_VSA7>
12.13

>  <PEOE_VSA8>
0

>  <PEOE_VSA9>
22.28

>  <PEOE_VSA10>
6.61

>  <PEOE_VSA11>
0

>  <PEOE_VSA12>
0

>  <PEOE_VSA13>
6.02

>  <SMR_VSA1>
4.74

>  <SMR_VSA2>
0

>  <SMR_VSA3>
0

>  <SMR_VSA4>
4.99

>  <SMR_VSA5>
0

>  <SMR_VSA6>
18.47

>  <SMR_VSA7>
28.24

>  <SMR_VSA8>
0

>  <SMR_VSA9>
0

>  <SlogP_VSA1>
5.32

>  <SlogP_VSA2>
19.17

>  <SlogP_VSA3>
4.74

>  <SlogP_VSA4>
0

>  <SlogP_VSA5>
0

>  <SlogP_VSA6>
23.19

>  <SlogP_VSA7>
10.05

>  <SlogP_VSA8>
0

>  <SlogP_VSA9>
0

>  <SlogP_VSA10>
5.69

>  <SlogP_VSA11>
0

>  <EState_VSA1>
0

>  <EState_VSA2>
0

>  <EState_VSA3>
34.91

>  <EState_VSA4>
0

>  <EState_VSA5>
0

>  <EState_VSA6>
18.2

>  <EState_VSA7>
0

>  <EState_VSA8>
10.31

>  <EState_VSA9>
27.94

>  <EState_VSA10>
0

>  <VSA_EState1>
5.19

>  <VSA_EState2>
4.08

>  <VSA_EState3>
4.04

>  <VSA_EState4>
0.64

>  <VSA_EState5>
0

>  <VSA_EState6>
5.77

>  <VSA_EState7>
0

>  <VSA_EState8>
1.27

>  <VSA_EState9>
0

>  <apol>
27.73

>  <bpol>
12.49

>  <nRing>
2

>  <nHRing>
1

>  <naRing>
1

>  <naHRing>
0

>  <nARing 2>
1

>  <nAHRing 2>
1

>  <nFRing>
0

>  <nFHRing>
0

>  <nFaRing>
0

>  <nFaHRing>
0

>  <nFARing 2>
0

>  <nFAHRing 2>
0

>  <nRot>
1

>  <SLogP>
2.79

>  <SMR>
58.34

>  <TopoPSA(NO)>
33.62

>  <TopoPSA>
33.62

>  <JGI1>
0.17

>  <JGI2>
0.08

>  <JGI3>
0.05

>  <JGI4>
0.05

>  <JGI5>
0.01

>  <Diameter>
7

>  <Radius>
4

>  <TMWC10>
97.55

>  <TSRW10>
58.5

>  <MW>
230

>  <AMW>
10.45

>  <WPath>
301

>  <WPol>
17

>  <Zagreb1>
70

>  <Zagreb2>
80

>  <mZagreb2>
3.14

>  <yes>


>  <nAR-cont>
0.816016

>  <nHA-cont>
0.887625254

>  <MWHBN>
0.263752189

>  <MWHBN-cont>
0.933756231

>  <TPSA-cont>
0.765311523

>  <pka_cont>
0.97

>  <yes.1>


>  <BBB_SCORE>
5.119898648

>  <MMFF94 Energy>
1.2154

$$$$
Compound 1694
Actelion Java MolfileCreator 2.0

  0  0  0  0  0  0              0 V3000
M  V30 BEGIN CTAB
M  V30 COUNTS 43 45 0 0 0
M  V30 BEGIN ATOM
M  V30 1 Cl -3.0377 6.885 -3.3579 0
M  V30 2 C -2.2968 5.6128 -2.5284 0
M  V30 3 C -0.9224 5.4615 -2.2772 0
M  V30 4 C -2.8857 4.5134 -1.9555 0
M  V30 5 N -0.6514 4.3443 -1.5937 0
M  V30 6 N -1.8654 3.7833 -1.4143 0
M  V30 7 C -1.9891 2.5322 -0.689 0
M  V30 8 C -2.0275 1.3075 -1.6027 0
M  V30 9 C -0.7343 1.0326 -2.3826 0
M  V30 10 C 0.5281 0.8833 -1.5203 0
M  V30 11 N 0.3771 -0.0811 -0.4183 0
M  V30 12 C 1.5312 0.0285 0.5067 0
M  V30 13 C 0.3202 -1.4772 -0.912 0
M  V30 14 C 1.4573 -0.9526 1.697 0
M  V30 15 C 0.1996 -2.521 0.2216 0
M  V30 16 N 1.2237 -2.3222 1.2443 0
M  V30 17 C 1.424 -3.3407 2.1562 0
M  V30 18 N 2.1175 -3.0817 3.2794 0
M  V30 19 N 0.9289 -4.5622 1.8869 0
M  V30 20 C 2.3128 -4.092 4.1476 0
M  V30 21 C 1.1478 -5.5431 2.7828 0
M  V30 22 C 1.8435 -5.363 3.9486 0
M  V30 23 H -0.1085 6.1154 -2.5609 0
M  V30 24 H -3.9161 4.1957 -1.8903 0
M  V30 25 H -1.1763 2.4811 0.0425 0
M  V30 26 H -2.9246 2.5922 -0.1197 0
M  V30 27 H -2.8457 1.4172 -2.3259 0
M  V30 28 H -2.2758 0.429 -0.995 0
M  V30 29 H -0.8796 0.1275 -2.9845 0
M  V30 30 H -0.5667 1.8407 -3.1052 0
M  V30 31 H 1.3739 0.6115 -2.1655 0
M  V30 32 H 0.7695 1.8697 -1.1066 0
M  V30 33 H 2.4681 -0.1473 -0.0395 0
M  V30 34 H 1.5791 1.046 0.9141 0
M  V30 35 H -0.5454 -1.61 -1.5699 0
M  V30 36 H 1.217 -1.7028 -1.505 0
M  V30 37 H 0.6471 -0.6471 2.3716 0
M  V30 38 H 2.403 -0.8655 2.2459 0
M  V30 39 H 0.2817 -3.5113 -0.2429 0
M  V30 40 H -0.7947 -2.4461 0.6805 0
M  V30 41 H 2.8793 -3.8329 5.0367 0
M  V30 42 H 0.7304 -6.5099 2.5193 0
M  V30 43 H 2.0105 -6.1618 4.6557 0
M  V30 END ATOM
M  V30 BEGIN BOND
M  V30 1 1 1 2
M  V30 2 1 2 3
M  V30 3 2 2 4
M  V30 4 2 3 5
M  V30 5 1 4 6
M  V30 6 1 6 7
M  V30 7 1 7 8
M  V30 8 1 8 9
M  V30 9 1 9 10
M  V30 10 1 10 11
M  V30 11 1 11 12
M  V30 12 1 11 13
M  V30 13 1 12 14
M  V30 14 1 13 15
M  V30 15 1 14 16
M  V30 16 1 16 17
M  V30 17 2 17 18
M  V30 18 1 17 19
M  V30 19 1 18 20
M  V30 20 2 19 21
M  V30 21 2 20 22
M  V30 22 1 5 6
M  V30 23 1 15 16
M  V30 24 1 21 22
M  V30 25 1 3 23
M  V30 26 1 4 24
M  V30 27 1 7 25
M  V30 28 1 7 26
M  V30 29 1 8 27
M  V30 30 1 8 28
M  V30 31 1 9 29
M  V30 32 1 9 30
M  V30 33 1 10 31
M  V30 34 1 10 32
M  V30 35 1 12 33
M  V30 36 1 12 34
M  V30 37 1 13 35
M  V30 38 1 13 36
M  V30 39 1 14 37
M  V30 40 1 14 38
M  V30 41 1 15 39
M  V30 42 1 15 40
M  V30 43 1 20 41
M  V30 44 1 21 42
M  V30 45 1 22 43
M  V30 END BOND
M  V30 END CTAB
M  END
>  <Column 1>
2058

>  <level_0>
2237

>  <index>
2237

>  <Unnamed: 0>
2237

>  <NO.>
2249

>  <Name>
lesopitron

>  <IUPAC_name>
2-[4-[4-(4-chloropyrazol-1-yl)butyl]piperazin-1-yl]pyrimidine

>  <SMILES>
Clc1cnn(CCCCN2CCN(c3ncccn3)CC2)c1

>  <CID>
60813

>  <logBB>


>  <BBB+/BBB->
BBB+

>  <Inchi>
InChI=1S/C15H21ClN6/c16-14-12-19-22(13-14)7-2-1-6-20-8-10-21(11-9-20)15-17-4-3-5-18-15/h3-5-12-13H-1-2-6-11H2

>  <threshold>
-1

>  <reference>
R1|R13|R19|R6|R24|R27|R27|R27|R30|R30|

>  <group>
B

>  <Class>
1

>  <ABC>
17.04

>  <ABCGG>
12.8

>  <nAcid>
0

>  <nBase>
1

>  <nAromAtom>
11

>  <nAromBond>
11

>  <nAtom>
43

>  <nHeavyAtom>
22

>  <nSpiro>
0

>  <nBridgehead>
0

>  <nHetero>
7

>  <nN>
6

>  <nO>
0

>  <nF>
0

>  <BalabanJ>
1.24

>  <BertzCT>
564.42

>  <nBonds>
45

>  <nBondsO>
24

>  <nBondsS>
34

>  <nBondsD>
0

>  <nBondsT>
0

>  <nBondsA>
11

>  <nBondsM>
11

>  <nBondsKS>
40

>  <nBondsKD>
5

>  <RNCG>
0.2

>  <RPCG>
0.13

>  <FCSP3>
0.53

>  <SZ>
28.33

>  <Sm>
26.71

>  <Sv>
26.33

>  <Sse>
43.07

>  <Sp>
28.64

>  <Si>
49.26

>  <MZ>
0.66

>  <Mm>
0.62

>  <Mv>
0.61

>  <Mse>
1

>  <Mp>
0.67

>  <Mi>
1.15

>  <NsCH3>
0

>  <NdCH2>
0

>  <NssCH2>
8

>  <NtCH>
0

>  <NdsCH>
0

>  <NaaCH>
5

>  <NsssCH>
0

>  <NddC>
0

>  <NtsC>
0

>  <NdssC>
0

>  <NaasC>
2

>  <NaaaC>
0

>  <NssssC>
0

>  <NsNH3>
0

>  <NsNH2>
0

>  <NssNH2>
0

>  <NdNH>
0

>  <NssNH>
0

>  <NaaNH>
0

>  <NtN>
0

>  <NsssNH>
0

>  <NdsN>
0

>  <NaaN>
3

>  <NsssN>
2

>  <NddsN>
0

>  <NaasN>
1

>  <NssssN>
0

>  <NsOH>
0

>  <NdO>
0

>  <NssO>
0

>  <NaaO>
0

>  <NsF>
0

>  <NsSiH3>
0

>  <NssSiH2>
0

>  <NsssSiH>
0

>  <NssssSi>
0

>  <NsPH2>
0

>  <NssPH>
0

>  <NsssP>
0

>  <NdsssP>
0

>  <NsssssP>
0

>  <NsSH>
0

>  <NdS>
0

>  <NssS>
0

>  <NaaS>
0

>  <NdssS>
0

>  <NddssS>
0

>  <NsCl>
1

>  <NsBr>
0

>  <NsI>
0

>  <fragCpx>
114.07

>  <fMF>
0.49

>  <nHBAcc>
6

>  <nHBDon>
0

>  <Kier1>
16.84

>  <Kier2>
8.74

>  <Lipinski>
1

>  <GhoseFilter>
1

>  <FilterItLogS>
-3.42

>  <VMcGowan>
240.25

>  <LabuteASA>
135.27

>  <PEOE_VSA1>
4.9

>  <PEOE_VSA2>
9.58

>  <PEOE_VSA3>
9.97

>  <PEOE_VSA4>
5.1

>  <PEOE_VSA5>
0

>  <PEOE_VSA6>
11.6

>  <PEOE_VSA7>
25.45

>  <PEOE_VSA8>
51.31

>  <PEOE_VSA9>
11.22

>  <PEOE_VSA10>
0

>  <PEOE_VSA11>
0

>  <PEOE_VSA12>
5.95

>  <PEOE_VSA13>
0

>  <SMR_VSA1>
0

>  <SMR_VSA2>
0

>  <SMR_VSA3>
24.65

>  <SMR_VSA4>
0

>  <SMR_VSA5>
19.39

>  <SMR_VSA6>
37.62

>  <SMR_VSA7>
35.88

>  <SMR_VSA8>
0

>  <SMR_VSA9>
0

>  <SlogP_VSA1>
4.9

>  <SlogP_VSA2>
57.37

>  <SlogP_VSA3>
6.54

>  <SlogP_VSA4>
0

>  <SlogP_VSA5>
12.84

>  <SlogP_VSA6>
30.85

>  <SlogP_VSA7>
5.02

>  <SlogP_VSA8>
0

>  <SlogP_VSA9>
0

>  <SlogP_VSA10>
5.95

>  <SlogP_VSA11>
0

>  <EState_VSA1>
0

>  <EState_VSA2>
0

>  <EState_VSA3>
5.02

>  <EState_VSA4>
51.64

>  <EState_VSA5>
6.42

>  <EState_VSA6>
18.59

>  <EState_VSA7>
16.95

>  <EState_VSA8>
24.87

>  <EState_VSA9>
11.6

>  <EState_VSA10>
0

>  <VSA_EState1>
1.91

>  <VSA_EState2>
13.39

>  <VSA_EState3>
4.9

>  <VSA_EState4>
0

>  <VSA_EState5>
0.85

>  <VSA_EState6>
1.85

>  <VSA_EState7>
9.47

>  <VSA_EState8>
6.22

>  <VSA_EState9>
0

>  <apol>
47.83

>  <bpol>
28.99

>  <nRing>
3

>  <nHRing>
3

>  <naRing>
2

>  <naHRing>
2

>  <nARing 2>
1

>  <nAHRing 2>
1

>  <nFRing>
0

>  <nFHRing>
0

>  <nFaRing>
0

>  <nFaHRing>
0

>  <nFARing 2>
0

>  <nFAHRing 2>
0

>  <nRot>
6

>  <SLogP>
1.93

>  <SMR>
87.16

>  <TopoPSA(NO)>
50.08

>  <TopoPSA>
50.08

>  <JGI1>
0.15

>  <JGI2>
0.06

>  <JGI3>
0.03

>  <JGI4>
0.02

>  <JGI5>
0.02

>  <Diameter>
15

>  <Radius>
8

>  <TMWC10>
118.04

>  <TSRW10>
68.97

>  <MW>
320.15

>  <AMW>
7.45

>  <WPath>
1338

>  <WPol>
27

>  <Zagreb1>
110

>  <Zagreb2>
124

>  <mZagreb2>
4.94

>  <yes>


>  <nAR-cont>
0.816016

>  <nHA-cont>
0.983774276

>  <MWHBN>
0.335331612

>  <MWHBN-cont>
0.723963224

>  <TPSA-cont>
0.650410502

>  <pka_cont>
0.97

>  <yes.1>


>  <BBB_SCORE>
4.671556116

>  <MMFF94 Energy>
3.068

$$$$
Compound 1695
Actelion Java MolfileCreator 2.0

  0  0  0  0  0  0              0 V3000
M  V30 BEGIN CTAB
M  V30 COUNTS 56 60 0 0 0
M  V30 BEGIN ATOM
M  V30 1 O -5.1096 -0.5578 4.3099 0
M  V30 2 C -4.1894 -1.0891 3.6805 0
M  V30 3 N -4.1487 -1.0349 2.2735 0
M  V30 4 N -3.1575 -1.7715 4.3212 0
M  V30 5 C -3.1829 -1.6393 1.4606 0
M  V30 6 C -5.2341 -0.3234 1.6272 0
M  V30 7 C -2.1587 -2.3411 3.5686 0
M  V30 8 C -3.1251 -1.8738 5.7687 0
M  V30 9 O -3.2327 -1.6407 0.2337 0
M  V30 10 C -2.1529 -2.2809 2.2056 0
M  V30 11 N -1.0918 -3.0293 4.0594 0
M  V30 12 N -1.0078 -2.9306 1.8336 0
M  V30 13 C -0.4108 -3.3769 2.9881 0
M  V30 14 C -0.4877 -3.1548 0.4988 0
M  V30 15 C 0.768 -2.3216 0.1805 0
M  V30 16 N 0.5589 -0.8653 0.2326 0
M  V30 17 C 1.815 -0.121 0.4004 0
M  V30 18 C -0.2018 -0.3337 -0.9082 0
M  V30 19 C 2.7006 -0.1072 -0.8453 0
M  V30 20 C 0.5767 -0.2825 -2.2256 0
M  V30 21 C 1.9614 0.3685 -2.1031 0
M  V30 22 C 1.936 1.8762 -2.2396 0
M  V30 23 C 2.6469 2.6452 -3.2275 0
M  V30 24 C 1.2497 2.7901 -1.4609 0
M  V30 25 C 2.3573 3.992 -3.0068 0
M  V30 26 C 3.5142 2.3184 -4.2924 0
M  V30 27 N 1.5068 4.0497 -1.9304 0
M  V30 28 C 2.8856 5.0243 -3.7919 0
M  V30 29 C 4.0521 3.3372 -5.0881 0
M  V30 30 C 3.7403 4.6707 -4.8391 0
M  V30 31 H -5.3333 0.6719 2.0729 0
M  V30 32 H -6.165 -0.8724 1.8033 0
M  V30 33 H -5.083 -0.2136 0.5505 0
M  V30 34 H -2.2092 -1.4029 6.1397 0
M  V30 35 H -3.1351 -2.9309 6.053 0
M  V30 36 H -3.9833 -1.3801 6.2323 0
M  V30 37 H 0.5134 -3.9404 2.9879 0
M  V30 38 H -1.2812 -2.9902 -0.2326 0
M  V30 39 H -0.2347 -4.2211 0.4428 0
M  V30 40 H 1.5319 -2.5984 0.9194 0
M  V30 41 H 1.1648 -2.6347 -0.7919 0
M  V30 42 H 1.5762 0.9063 0.6985 0
M  V30 43 H 2.3824 -0.5295 1.2462 0
M  V30 44 H -1.1177 -0.9108 -1.066 0
M  V30 45 H -0.5526 0.6713 -0.6486 0
M  V30 46 H 3.5855 0.5134 -0.6576 0
M  V30 47 H 3.0739 -1.1244 -1.0222 0
M  V30 48 H 0.7089 -1.3092 -2.5909 0
M  V30 49 H -0.0263 0.2311 -2.985 0
M  V30 50 H 2.5438 -0.0019 -2.958 0
M  V30 51 H 0.5977 2.6607 -0.6082 0
M  V30 52 H 3.7685 1.2839 -4.5008 0
M  V30 53 H 1.1301 4.9037 -1.5432 0
M  V30 54 H 2.6441 6.0645 -3.5993 0
M  V30 55 H 4.7193 3.0819 -5.9074 0
M  V30 56 H 4.1671 5.449 -5.4674 0
M  V30 END ATOM
M  V30 BEGIN BOND
M  V30 1 2 1 2
M  V30 2 1 2 3
M  V30 3 1 2 4
M  V30 4 1 3 5
M  V30 5 1 3 6
M  V30 6 1 4 7
M  V30 7 1 4 8
M  V30 8 2 5 9
M  V30 9 1 5 10
M  V30 10 1 7 11
M  V30 11 1 10 12
M  V30 12 2 11 13
M  V30 13 1 12 14
M  V30 14 1 14 15
M  V30 15 1 15 16
M  V30 16 1 16 17
M  V30 17 1 16 18
M  V30 18 1 17 19
M  V30 19 1 18 20
M  V30 20 1 19 21
M  V30 21 1 21 22
M  V30 22 1 22 23
M  V30 23 2 22 24
M  V30 24 2 23 25
M  V30 25 1 23 26
M  V30 26 1 24 27
M  V30 27 1 25 28
M  V30 28 2 26 29
M  V30 29 2 28 30
M  V30 30 2 7 10
M  V30 31 1 12 13
M  V30 32 1 20 21
M  V30 33 1 25 27
M  V30 34 1 29 30
M  V30 35 1 6 31
M  V30 36 1 6 32
M  V30 37 1 6 33
M  V30 38 1 8 34
M  V30 39 1 8 35
M  V30 40 1 8 36
M  V30 41 1 13 37
M  V30 42 1 14 38
M  V30 43 1 14 39
M  V30 44 1 15 40
M  V30 45 1 15 41
M  V30 46 1 17 42
M  V30 47 1 17 43
M  V30 48 1 18 44
M  V30 49 1 18 45
M  V30 50 1 19 46
M  V30 51 1 19 47
M  V30 52 1 20 48
M  V30 53 1 20 49
M  V30 54 1 21 50
M  V30 55 1 24 51
M  V30 56 1 26 52
M  V30 57 1 27 53
M  V30 58 1 28 54
M  V30 59 1 29 55
M  V30 60 1 30 56
M  V30 END BOND
M  V30 END CTAB
M  END
>  <Column 1>
2059

>  <level_0>
2238

>  <index>
2238

>  <Unnamed: 0>
2238

>  <NO.>
2250

>  <Name>
tameridone

>  <IUPAC_name>
7-[2-[4-(1h-indol-3-yl)piperidin-1-yl]ethyl]-1-3-dimethylpurine-2-6-dione

>  <SMILES>
Cn1c(=O)c2c(ncn2CCN2CCC(c3c[nH]c4ccccc34)CC2)n(C)c1=O

>  <CID>
71304

>  <logBB>


>  <BBB+/BBB->
BBB+

>  <Inchi>
InChI=1S/C22H26N6O2/c1-25-20-19(21(29)26(2)22(25)30)28(14-24-20)12-11-27-9-7-15(8-10-27)17-13-23-18-6-4-3-5-16(17)18/h3-6-13-15-23H-7-12H2-1-2H3

>  <threshold>
-1

>  <reference>
R1|R13|R19|R6|R24|R27|R27|R27|R30|R30|

>  <group>
B

>  <Class>
-1

>  <ABC>
24.07

>  <ABCGG>
18.2

>  <nAcid>
0

>  <nBase>
1

>  <nAromAtom>
18

>  <nAromBond>
20

>  <nAtom>
56

>  <nHeavyAtom>
30

>  <nSpiro>
0

>  <nBridgehead>
0

>  <nHetero>
8

>  <nN>
6

>  <nO>
2

>  <nF>
0

>  <BalabanJ>
1.1

>  <BertzCT>
1333.41

>  <nBonds>
60

>  <nBondsO>
34

>  <nBondsS>
38

>  <nBondsD>
2

>  <nBondsT>
0

>  <nBondsA>
20

>  <nBondsM>
22

>  <nBondsKS>
52

>  <nBondsKD>
8

>  <RNCG>
0.14

>  <RPCG>
0.13

>  <FCSP3>
0.41

>  <SZ>
36

>  <Sm>
33.84

>  <Sv>
35.02

>  <Sse>
56.18

>  <Sp>
37.29

>  <Si>
63.56

>  <MZ>
0.64

>  <Mm>
0.6

>  <Mv>
0.63

>  <Mse>
1

>  <Mp>
0.67

>  <Mi>
1.14

>  <NsCH3>
2

>  <NdCH2>
0

>  <NssCH2>
6

>  <NtCH>
0

>  <NdsCH>
0

>  <NaaCH>
6

>  <NsssCH>
1

>  <NddC>
0

>  <NtsC>
0

>  <NdssC>
0

>  <NaasC>
1

>  <NaaaC>
4

>  <NssssC>
0

>  <NsNH3>
0

>  <NsNH2>
0

>  <NssNH2>
0

>  <NdNH>
0

>  <NssNH>
0

>  <NaaNH>
1

>  <NtN>
0

>  <NsssNH>
0

>  <NdsN>
0

>  <NaaN>
1

>  <NsssN>
1

>  <NddsN>
0

>  <NaasN>
3

>  <NssssN>
0

>  <NsOH>
0

>  <NdO>
2

>  <NssO>
0

>  <NaaO>
0

>  <NsF>
0

>  <NsSiH3>
0

>  <NssSiH2>
0

>  <NsssSiH>
0

>  <NssssSi>
0

>  <NsPH2>
0

>  <NssPH>
0

>  <NsssP>
0

>  <NdsssP>
0

>  <NsssssP>
0

>  <NsSH>
0

>  <NdS>
0

>  <NssS>
0

>  <NaaS>
0

>  <NdssS>
0

>  <NddssS>
0

>  <NsCl>
0

>  <NsBr>
0

>  <NsI>
0

>  <fragCpx>
286.08

>  <fMF>
0.46

>  <nHBAcc>
7

>  <nHBDon>
1

>  <Kier1>
21.83

>  <Kier2>
9.09

>  <Lipinski>
1

>  <GhoseFilter>
1

>  <FilterItLogS>
-3.99

>  <VMcGowan>
303.76

>  <LabuteASA>
172.92

>  <PEOE_VSA1>
14.45

>  <PEOE_VSA2>
13.93

>  <PEOE_VSA3>
9.78

>  <PEOE_VSA4>
0

>  <PEOE_VSA5>
0

>  <PEOE_VSA6>
18.2

>  <PEOE_VSA7>
43.48

>  <PEOE_VSA8>
44.28

>  <PEOE_VSA9>
6.33

>  <PEOE_VSA10>
0

>  <PEOE_VSA11>
11.16

>  <PEOE_VSA12>
0

>  <PEOE_VSA13>
5.56

>  <SMR_VSA1>
0

>  <SMR_VSA2>
0

>  <SMR_VSA3>
28.57

>  <SMR_VSA4>
14.1

>  <SMR_VSA5>
25.3

>  <SMR_VSA6>
19.63

>  <SMR_VSA7>
63.19

>  <SMR_VSA8>
0

>  <SMR_VSA9>
0

>  <SlogP_VSA1>
11.25

>  <SlogP_VSA2>
48.2

>  <SlogP_VSA3>
20.64

>  <SlogP_VSA4>
0

>  <SlogP_VSA5>
24.32

>  <SlogP_VSA6>
46.38

>  <SlogP_VSA7>
0

>  <SlogP_VSA8>
22.07

>  <SlogP_VSA9>
0

>  <SlogP_VSA10>
0

>  <SlogP_VSA11>
0

>  <EState_VSA1>
0

>  <EState_VSA2>
11.25

>  <EState_VSA3>
23.63

>  <EState_VSA4>
37.04

>  <EState_VSA5>
28.08

>  <EState_VSA6>
13.37

>  <EState_VSA7>
4.57

>  <EState_VSA8>
45.33

>  <EState_VSA9>
0

>  <EState_VSA10>
9.59

>  <VSA_EState1>
4.45

>  <VSA_EState2>
34.84

>  <VSA_EState3>
1.34

>  <VSA_EState4>
2.93

>  <VSA_EState5>
0.58

>  <VSA_EState6>
8.5

>  <VSA_EState7>
6.1

>  <VSA_EState8>
3.61

>  <VSA_EState9>
3.16

>  <apol>
62.28

>  <bpol>
36.37

>  <nRing>
5

>  <nHRing>
4

>  <naRing>
4

>  <naHRing>
3

>  <nARing 2>
1

>  <nAHRing 2>
1

>  <nFRing>
2

>  <nFHRing>
2

>  <nFaRing>
2

>  <nFaHRing>
2

>  <nFARing 2>
0

>  <nFAHRing 2>
0

>  <nRot>
4

>  <SLogP>
1.79

>  <SMR>
116.93

>  <TopoPSA(NO)>
80.85

>  <TopoPSA>
80.85

>  <JGI1>
0.15

>  <JGI2>
0.09

>  <JGI3>
0.05

>  <JGI4>
0.05

>  <JGI5>
0.02

>  <Diameter>
16

>  <Radius>
8

>  <TMWC10>
142.73

>  <TSRW10>
82.31

>  <MW>
406.21

>  <AMW>
7.25

>  <WPath>
2753

>  <WPol>
53

>  <Zagreb1>
168

>  <Zagreb2>
206

>  <mZagreb2>
6.44

>  <yes>


>  <nAR-cont>
0.816016

>  <nHA-cont>
0.74523694

>  <MWHBN>
0.396930692

>  <MWHBN-cont>
0.488147641

>  <TPSA-cont>
0.435616795

>  <pka_cont>
0.97

>  <yes.1>


>  <BBB_SCORE>
3.649707991

>  <MMFF94 Energy>
-89.634

$$$$
Compound 1696
Actelion Java MolfileCreator 2.0

  0  0  0  0  0  0              0 V3000
M  V30 BEGIN CTAB
M  V30 COUNTS 42 44 0 0 0
M  V30 BEGIN ATOM
M  V30 1 Cl -4.8052 0.8796 0.3997 0
M  V30 2 C -4.2136 2.3571 1.0906 0
M  V30 3 C -2.8303 2.6315 1.1815 0
M  V30 4 C -5.1702 3.29 1.5116 0
M  V30 5 N -1.8642 1.7076 0.7861 0
M  V30 6 C -2.4592 3.882 1.7051 0
M  V30 7 C -4.7693 4.5181 2.0312 0
M  V30 8 C -0.6659 2.1613 0.071 0
M  V30 9 C -1.6385 0.5673 1.6887 0
M  V30 10 C -3.4139 4.8143 2.1263 0
M  V30 11 C 0.0186 0.9714 -0.6449 0
M  V30 12 C -0.9289 -0.5807 0.9356 0
M  V30 13 N 0.3301 -0.1559 0.2689 0
M  V30 14 C 0.9203 -1.302 -0.4509 0
M  V30 15 C 2.348 -1.0368 -0.96 0
M  V30 16 C 2.9605 -2.2519 -1.5717 0
M  V30 17 C 2.8156 -2.7204 -2.8977 0
M  V30 18 C 3.7975 -3.1767 -0.9813 0
M  V30 19 N 3.4968 -3.8456 -3.1225 0
M  V30 20 N 4.0879 -4.1003 -1.942 0
M  V30 21 C 4.9289 -5.2637 -1.8046 0
M  V30 22 H -6.2297 3.0638 1.4268 0
M  V30 23 H -1.4089 4.1394 1.8132 0
M  V30 24 H -5.5119 5.2418 2.3568 0
M  V30 25 H -0.9316 2.9122 -0.6831 0
M  V30 26 H 0.0438 2.6183 0.7719 0
M  V30 27 H -1.0186 0.892 2.5347 0
M  V30 28 H -2.5757 0.182 2.1054 0
M  V30 29 H -3.0929 5.7704 2.5326 0
M  V30 30 H 0.9394 1.353 -1.0985 0
M  V30 31 H -0.6324 0.6265 -1.4595 0
M  V30 32 H -1.6233 -0.9994 0.1944 0
M  V30 33 H -0.7068 -1.3724 1.6614 0
M  V30 34 H 0.2746 -1.6128 -1.2835 0
M  V30 35 H 0.9705 -2.1577 0.2364 0
M  V30 36 H 2.348 -0.2365 -1.7089 0
M  V30 37 H 2.9775 -0.6926 -0.1294 0
M  V30 38 H 2.2401 -2.2876 -3.7063 0
M  V30 39 H 4.1988 -3.248 0.0201 0
M  V30 40 H 4.3265 -6.1512 -2.014 0
M  V30 41 H 5.7524 -5.1801 -2.5181 0
M  V30 42 H 5.3213 -5.311 -0.7858 0
M  V30 END ATOM
M  V30 BEGIN BOND
M  V30 1 1 1 2
M  V30 2 2 2 3
M  V30 3 1 2 4
M  V30 4 1 3 5
M  V30 5 1 3 6
M  V30 6 2 4 7
M  V30 7 1 5 8
M  V30 8 1 5 9
M  V30 9 2 6 10
M  V30 10 1 8 11
M  V30 11 1 9 12
M  V30 12 1 11 13
M  V30 13 1 13 14
M  V30 14 1 14 15
M  V30 15 1 15 16
M  V30 16 1 16 17
M  V30 17 2 16 18
M  V30 18 2 17 19
M  V30 19 1 18 20
M  V30 20 1 20 21
M  V30 21 1 7 10
M  V30 22 1 12 13
M  V30 23 1 19 20
M  V30 24 1 4 22
M  V30 25 1 6 23
M  V30 26 1 7 24
M  V30 27 1 8 25
M  V30 28 1 8 26
M  V30 29 1 9 27
M  V30 30 1 9 28
M  V30 31 1 10 29
M  V30 32 1 11 30
M  V30 33 1 11 31
M  V30 34 1 12 32
M  V30 35 1 12 33
M  V30 36 1 14 34
M  V30 37 1 14 35
M  V30 38 1 15 36
M  V30 39 1 15 37
M  V30 40 1 17 38
M  V30 41 1 18 39
M  V30 42 1 21 40
M  V30 43 1 21 41
M  V30 44 1 21 42
M  V30 END BOND
M  V30 END CTAB
M  END
>  <Column 1>
2061

>  <level_0>
2240

>  <index>
2240

>  <Unnamed: 0>
2240

>  <NO.>
2252

>  <Name>
enpiprazole

>  <IUPAC_name>
1-(2-chlorophenyl)-4-[2-(1-methylpyrazol-4-yl)ethyl]piperazine

>  <SMILES>
Cn1cc(CCN2CCN(c3ccccc3Cl)CC2)cn1

>  <CID>
208921

>  <logBB>


>  <BBB+/BBB->
BBB+

>  <Inchi>
InChI=1S/C16H21ClN4/c1-19-13-14(12-18-19)6-7-20-8-10-21(11-9-20)16-5-3-2-4-15(16)17/h2-5-12-13H-6-11H2-1H3

>  <threshold>
-1

>  <reference>
R1|R13|R19|R6|R24|R27|R27|R27|R30|R30|

>  <group>
B

>  <Class>
1

>  <ABC>
16.4

>  <ABCGG>
12.84

>  <nAcid>
0

>  <nBase>
1

>  <nAromAtom>
11

>  <nAromBond>
11

>  <nAtom>
42

>  <nHeavyAtom>
21

>  <nSpiro>
0

>  <nBridgehead>
0

>  <nHetero>
5

>  <nN>
4

>  <nO>
0

>  <nF>
0

>  <BalabanJ>
1.36

>  <BertzCT>
587.47

>  <nBonds>
44

>  <nBondsO>
23

>  <nBondsS>
33

>  <nBondsD>
0

>  <nBondsT>
0

>  <nBondsA>
11

>  <nBondsM>
11

>  <nBondsKS>
39

>  <nBondsKD>
5

>  <RNCG>
0.26

>  <RPCG>
0.06

>  <FCSP3>
0.44

>  <SZ>
27

>  <Sm>
25.38

>  <Sv>
25.81

>  <Sse>
41.74

>  <Sp>
28.32

>  <Si>
47.68

>  <MZ>
0.64

>  <Mm>
0.6

>  <Mv>
0.61

>  <Mse>
0.99

>  <Mp>
0.67

>  <Mi>
1.14

>  <NsCH3>
1

>  <NdCH2>
0

>  <NssCH2>
6

>  <NtCH>
0

>  <NdsCH>
0

>  <NaaCH>
6

>  <NsssCH>
0

>  <NddC>
0

>  <NtsC>
0

>  <NdssC>
0

>  <NaasC>
3

>  <NaaaC>
0

>  <NssssC>
0

>  <NsNH3>
0

>  <NsNH2>
0

>  <NssNH2>
0

>  <NdNH>
0

>  <NssNH>
0

>  <NaaNH>
0

>  <NtN>
0

>  <NsssNH>
0

>  <NdsN>
0

>  <NaaN>
1

>  <NsssN>
2

>  <NddsN>
0

>  <NaasN>
1

>  <NssssN>
0

>  <NsOH>
0

>  <NdO>
0

>  <NssO>
0

>  <NaaO>
0

>  <NsF>
0

>  <NsSiH3>
0

>  <NssSiH2>
0

>  <NsssSiH>
0

>  <NssssSi>
0

>  <NsPH2>
0

>  <NssPH>
0

>  <NsssP>
0

>  <NdsssP>
0

>  <NsssssP>
0

>  <NsSH>
0

>  <NdS>
0

>  <NssS>
0

>  <NaaS>
0

>  <NdssS>
0

>  <NddssS>
0

>  <NsCl>
1

>  <NsBr>
0

>  <NsI>
0

>  <fragCpx>
109.05

>  <fMF>
0.45

>  <nHBAcc>
4

>  <nHBDon>
0

>  <Kier1>
15.88

>  <Kier2>
7.51

>  <Lipinski>
1

>  <GhoseFilter>
1

>  <FilterItLogS>
-3.6

>  <VMcGowan>
234.38

>  <LabuteASA>
130.47

>  <PEOE_VSA1>
4.9

>  <PEOE_VSA2>
9.58

>  <PEOE_VSA3>
0

>  <PEOE_VSA4>
5.1

>  <PEOE_VSA5>
0

>  <PEOE_VSA6>
23.73

>  <PEOE_VSA7>
24.12

>  <PEOE_VSA8>
45.97

>  <PEOE_VSA9>
16.91

>  <PEOE_VSA10>
0

>  <PEOE_VSA11>
0

>  <PEOE_VSA12>
0

>  <PEOE_VSA13>
0

>  <SMR_VSA1>
0

>  <SMR_VSA2>
0

>  <SMR_VSA3>
14.68

>  <SMR_VSA4>
7.05

>  <SMR_VSA5>
6.42

>  <SMR_VSA6>
37.62

>  <SMR_VSA7>
47.25

>  <SMR_VSA8>
0

>  <SMR_VSA9>
0

>  <SlogP_VSA1>
4.9

>  <SlogP_VSA2>
47.4

>  <SlogP_VSA3>
13.47

>  <SlogP_VSA4>
0

>  <SlogP_VSA5>
5.56

>  <SlogP_VSA6>
36.66

>  <SlogP_VSA7>
5.02

>  <SlogP_VSA8>
0

>  <SlogP_VSA9>
0

>  <SlogP_VSA10>
5.69

>  <SlogP_VSA11>
0

>  <EState_VSA1>
0

>  <EState_VSA2>
0

>  <EState_VSA3>
0

>  <EState_VSA4>
49.85

>  <EState_VSA5>
5.56

>  <EState_VSA6>
0

>  <EState_VSA7>
30.06

>  <EState_VSA8>
33.23

>  <EState_VSA9>
11.6

>  <EState_VSA10>
0

>  <VSA_EState1>
1.87

>  <VSA_EState2>
4.89

>  <VSA_EState3>
5.07

>  <VSA_EState4>
2.47

>  <VSA_EState5>
0

>  <VSA_EState6>
8.1

>  <VSA_EState7>
5.12

>  <VSA_EState8>
5.35

>  <VSA_EState9>
1.96

>  <apol>
47.3

>  <bpol>
26.71

>  <nRing>
3

>  <nHRing>
2

>  <naRing>
2

>  <naHRing>
1

>  <nARing 2>
1

>  <nAHRing 2>
1

>  <nFRing>
0

>  <nFHRing>
0

>  <nFaRing>
0

>  <nFaHRing>
0

>  <nFARing 2>
0

>  <nFAHRing 2>
0

>  <nRot>
4

>  <SLogP>
2.44

>  <SMR>
87.02

>  <TopoPSA(NO)>
24.3

>  <TopoPSA>
24.3

>  <JGI1>
0.17

>  <JGI2>
0.07

>  <JGI3>
0.04

>  <JGI4>
0.03

>  <JGI5>
0.02

>  <Diameter>
13

>  <Radius>
7

>  <TMWC10>
116.56

>  <TSRW10>
68.08

>  <MW>
304.15

>  <AMW>
7.24

>  <WPath>
1077

>  <WPol>
28

>  <Zagreb1>
108

>  <Zagreb2>
124

>  <mZagreb2>
4.64

>  <yes>


>  <nAR-cont>
0.816016

>  <nHA-cont>
0.994529749

>  <MWHBN>
0.229359156

>  <MWHBN-cont>
0.987406432

>  <TPSA-cont>
0.830370911

>  <pka_cont>
0.97

>  <yes.1>


>  <BBB_SCORE>
5.437397219

>  <MMFF94 Energy>
139.23

$$$$
Compound 1697
Actelion Java MolfileCreator 2.0

  0  0  0  0  0  0              0 V3000
M  V30 BEGIN CTAB
M  V30 COUNTS 25 26 0 0 0
M  V30 BEGIN ATOM
M  V30 1 S 3.4648 2.0133 -1.0465 0
M  V30 2 C 1.911 1.4238 -0.927 0
M  V30 3 N 0.8086 1.784 -1.7123 0
M  V30 4 N 1.4353 0.4811 -0.0327 0
M  V30 5 N -0.3081 1.0965 -1.3009 0
M  V30 6 C 0.7113 2.7268 -2.8068 0
M  V30 7 C 0.1042 0.363 -0.3084 0
M  V30 8 C 2.2267 -0.2712 0.9287 0
M  V30 9 C -0.7947 -0.5232 0.4437 0
M  V30 10 C -1.6491 -1.3666 -0.2693 0
M  V30 11 C -0.8448 -0.4841 1.8432 0
M  V30 12 C -2.5195 -2.193 0.4295 0
M  V30 13 C -1.7265 -1.3209 2.5316 0
M  V30 14 F -3.3331 -3.015 -0.2458 0
M  V30 15 C -2.5625 -2.182 1.8208 0
M  V30 16 H 0.327 2.2024 -3.6862 0
M  V30 17 H 0.0139 3.5196 -2.5217 0
M  V30 18 H 1.6803 3.1682 -3.0455 0
M  V30 19 H 3.2375 -0.4406 0.5499 0
M  V30 20 H 1.7637 -1.238 1.1389 0
M  V30 21 H 2.288 0.312 1.8522 0
M  V30 22 H -1.6429 -1.3857 -1.3549 0
M  V30 23 H -0.221 0.2089 2.402 0
M  V30 24 H -1.7708 -1.2937 3.6178 0
M  V30 25 H -3.2564 -2.8363 2.3401 0
M  V30 END ATOM
M  V30 BEGIN BOND
M  V30 1 2 1 2
M  V30 2 1 2 3
M  V30 3 1 2 4
M  V30 4 1 3 5
M  V30 5 1 3 6
M  V30 6 1 4 7
M  V30 7 1 4 8
M  V30 8 1 7 9
M  V30 9 2 9 10
M  V30 10 1 9 11
M  V30 11 1 10 12
M  V30 12 2 11 13
M  V30 13 1 12 14
M  V30 14 2 12 15
M  V30 15 2 5 7
M  V30 16 1 13 15
M  V30 17 1 6 16
M  V30 18 1 6 17
M  V30 19 1 6 18
M  V30 20 1 8 19
M  V30 21 1 8 20
M  V30 22 1 8 21
M  V30 23 1 10 22
M  V30 24 1 11 23
M  V30 25 1 13 24
M  V30 26 1 15 25
M  V30 END BOND
M  V30 END CTAB
M  END
>  <Column 1>
2062

>  <level_0>
2241

>  <index>
2241

>  <Unnamed: 0>
2241

>  <NO.>
2253

>  <Name>
suritozole

>  <IUPAC_name>
5-(3-fluorophenyl)-2-4-dimethyl-1-2-4-triazole-3-thione

>  <SMILES>
Cn1nc(-c2cccc(F)c2)n(C)c1=S

>  <CID>
25431

>  <logBB>


>  <BBB+/BBB->
BBB+

>  <Inchi>
InChI=1S/C10H10FN3S/c1-13-9(12-14(2)10(13)15)7-4-3-5-8(11)6-7/h3-6H-1-2H3

>  <threshold>
-1

>  <reference>
R1|R13|R19|R6|R24|R27|R27|R27|R30|R30|

>  <group>
B

>  <Class>
1

>  <ABC>
11.59

>  <ABCGG>
10.62

>  <nAcid>
0

>  <nBase>
0

>  <nAromAtom>
11

>  <nAromBond>
11

>  <nAtom>
25

>  <nHeavyAtom>
15

>  <nSpiro>
0

>  <nBridgehead>
0

>  <nHetero>
5

>  <nN>
3

>  <nO>
0

>  <nF>
1

>  <BalabanJ>
1.98

>  <BertzCT>
556.04

>  <nBonds>
26

>  <nBondsO>
16

>  <nBondsS>
14

>  <nBondsD>
1

>  <nBondsT>
0

>  <nBondsA>
11

>  <nBondsM>
12

>  <nBondsKS>
21

>  <nBondsKD>
5

>  <RNCG>
0.28

>  <RPCG>
0.18

>  <FCSP3>
0.2

>  <SZ>
19.33

>  <Sm>
18.59

>  <Sv>
16.82

>  <Sse>
25.46

>  <Sp>
18.04

>  <Si>
28.42

>  <MZ>
0.77

>  <Mm>
0.74

>  <Mv>
0.67

>  <Mse>
1.02

>  <Mp>
0.72

>  <Mi>
1.14

>  <NsCH3>
2

>  <NdCH2>
0

>  <NssCH2>
0

>  <NtCH>
0

>  <NdsCH>
0

>  <NaaCH>
4

>  <NsssCH>
0

>  <NddC>
0

>  <NtsC>
0

>  <NdssC>
0

>  <NaasC>
3

>  <NaaaC>
0

>  <NssssC>
0

>  <NsNH3>
0

>  <NsNH2>
0

>  <NssNH2>
0

>  <NdNH>
0

>  <NssNH>
0

>  <NaaNH>
0

>  <NtN>
0

>  <NsssNH>
0

>  <NdsN>
0

>  <NaaN>
1

>  <NsssN>
0

>  <NddsN>
0

>  <NaasN>
2

>  <NssssN>
0

>  <NsOH>
0

>  <NdO>
0

>  <NssO>
0

>  <NaaO>
0

>  <NsF>
1

>  <NsSiH3>
0

>  <NssSiH2>
0

>  <NsssSiH>
0

>  <NssssSi>
0

>  <NsPH2>
0

>  <NssPH>
0

>  <NsssP>
0

>  <NdsssP>
0

>  <NsssssP>
0

>  <NsSH>
0

>  <NdS>
1

>  <NssS>
0

>  <NaaS>
0

>  <NdssS>
0

>  <NddssS>
0

>  <NsCl>
0

>  <NsBr>
0

>  <NsI>
0

>  <fragCpx>
46.05

>  <fMF>
0.44

>  <nHBAcc>
4

>  <nHBDon>
0

>  <Kier1>
11.48

>  <Kier2>
4.47

>  <Lipinski>
1

>  <GhoseFilter>
1

>  <FilterItLogS>
-2.3

>  <VMcGowan>
156.59

>  <LabuteASA>
91.78

>  <PEOE_VSA1>
4.57

>  <PEOE_VSA2>
0

>  <PEOE_VSA3>
9.07

>  <PEOE_VSA4>
5.1

>  <PEOE_VSA5>
0

>  <PEOE_VSA6>
12.13

>  <PEOE_VSA7>
24.35

>  <PEOE_VSA8>
19.66

>  <PEOE_VSA9>
0

>  <PEOE_VSA10>
5.82

>  <PEOE_VSA11>
10.6

>  <PEOE_VSA12>
0

>  <PEOE_VSA13>
0

>  <SMR_VSA1>
4.39

>  <SMR_VSA2>
0

>  <SMR_VSA3>
14.35

>  <SMR_VSA4>
14.1

>  <SMR_VSA5>
0

>  <SMR_VSA6>
0

>  <SMR_VSA7>
34.85

>  <SMR_VSA8>
0

>  <SMR_VSA9>
11.39

>  <SlogP_VSA1>
0

>  <SlogP_VSA2>
14.35

>  <SlogP_VSA3>
14.1

>  <SlogP_VSA4>
10.59

>  <SlogP_VSA5>
0

>  <SlogP_VSA6>
24.27

>  <SlogP_VSA7>
0

>  <SlogP_VSA8>
11.39

>  <SlogP_VSA9>
0

>  <SlogP_VSA10>
4.39

>  <SlogP_VSA11>
0

>  <EState_VSA1>
0

>  <EState_VSA2>
5.82

>  <EState_VSA3>
10.6

>  <EState_VSA4>
5.56

>  <EState_VSA5>
12.13

>  <EState_VSA6>
28.43

>  <EState_VSA7>
7.05

>  <EState_VSA8>
5.1

>  <EState_VSA9>
12.22

>  <EState_VSA10>
4.39

>  <VSA_EState1>
16.97

>  <VSA_EState2>
0

>  <VSA_EState3>
4.23

>  <VSA_EState4>
0.73

>  <VSA_EState5>
0.39

>  <VSA_EState6>
6.31

>  <VSA_EState7>
0

>  <VSA_EState8>
0

>  <VSA_EState9>
3.58

>  <apol>
30.12

>  <bpol>
15.8

>  <nRing>
2

>  <nHRing>
1

>  <naRing>
2

>  <naHRing>
1

>  <nARing 2>
0

>  <nAHRing 2>
0

>  <nFRing>
0

>  <nFHRing>
0

>  <nFaRing>
0

>  <nFaHRing>
0

>  <nFARing 2>
0

>  <nFAHRing 2>
0

>  <nRot>
1

>  <SLogP>
2.29

>  <SMR>
58.41

>  <TopoPSA(NO)>
22.75

>  <TopoPSA>
54.84

>  <JGI1>
0.22

>  <JGI2>
0.1

>  <JGI3>
0.07

>  <JGI4>
0.05

>  <JGI5>
0.03

>  <Diameter>
7

>  <Radius>
4

>  <TMWC10>
101.8

>  <TSRW10>
61.45

>  <MW>
223.06

>  <AMW>
8.92

>  <WPath>
350

>  <WPol>
22

>  <Zagreb1>
78

>  <Zagreb2>
92

>  <mZagreb2>
3.28

>  <yes>


>  <nAR-cont>
0.336376

>  <nHA-cont>
0.92539861

>  <MWHBN>
0.267823784

>  <MWHBN-cont>
0.9249876

>  <TPSA-cont>
0.617182746

>  <pka_cont>
0.97

>  <yes.1>


>  <BBB_SCORE>
4.368621503

>  <MMFF94 Energy>
24.839

$$$$
Compound 1698
Actelion Java MolfileCreator 2.0

  0  0  0  0  0  0              0 V3000
M  V30 BEGIN CTAB
M  V30 COUNTS 34 36 0 0 0
M  V30 BEGIN ATOM
M  V30 1 O 0.5573 -3.1878 0.398 0
M  V30 2 C 1.7018 -2.3509 0.3015 0
M  V30 3 C 1.7514 -1.4542 1.5098 0
M  V30 4 C 0.9662 -0.287 1.6008 0
M  V30 5 C 2.5964 -1.7913 2.5817 0
M  V30 6 C -0.0315 0.0431 0.5901 0
M  V30 7 C 1.0294 0.503 2.7596 0
M  V30 8 C 2.6655 -0.9854 3.7191 0
M  V30 9 N 0.1177 0.9046 -0.3961 0
M  V30 10 N -1.2915 -0.4893 0.5114 0
M  V30 11 C 1.884 0.1624 3.8078 0
M  V30 12 C -1.0848 0.8681 -1.0663 0
M  V30 13 N -1.9754 0.0188 -0.5332 0
M  V30 14 C -1.9259 -1.4544 1.3718 0
M  V30 15 C -1.3395 1.6836 -2.2415 0
M  V30 16 C -2.5532 1.6248 -2.9187 0
M  V30 17 C -0.3734 2.5618 -2.7418 0
M  V30 18 N -2.8526 2.3582 -4.023 0
M  V30 19 C -0.6498 3.3293 -3.8722 0
M  V30 20 C -1.8914 3.1933 -4.4713 0
M  V30 21 H 0.5345 -3.7109 -0.4218 0
M  V30 22 H 1.6545 -1.7677 -0.6242 0
M  V30 23 H 2.5938 -2.9842 0.245 0
M  V30 24 H 3.2049 -2.6923 2.5367 0
M  V30 25 H 0.4128 1.3962 2.8445 0
M  V30 26 H 3.3266 -1.2577 4.5382 0
M  V30 27 H 1.9333 0.7888 4.6948 0
M  V30 28 H -1.2706 -1.7192 2.2031 0
M  V30 29 H -2.8466 -1.0123 1.762 0
M  V30 30 H -2.1563 -2.3437 0.7799 0
M  V30 31 H -3.3516 0.9652 -2.5866 0
M  V30 32 H 0.594 2.651 -2.2527 0
M  V30 33 H 0.0867 4.0162 -4.2734 0
M  V30 34 H -2.1536 3.7698 -5.3538 0
M  V30 END ATOM
M  V30 BEGIN BOND
M  V30 1 1 1 2
M  V30 2 1 2 3
M  V30 3 2 3 4
M  V30 4 1 3 5
M  V30 5 1 4 6
M  V30 6 1 4 7
M  V30 7 2 5 8
M  V30 8 2 6 9
M  V30 9 1 6 10
M  V30 10 2 7 11
M  V30 11 1 9 12
M  V30 12 1 10 13
M  V30 13 1 10 14
M  V30 14 1 12 15
M  V30 15 2 15 16
M  V30 16 1 15 17
M  V30 17 1 16 18
M  V30 18 2 17 19
M  V30 19 2 18 20
M  V30 20 1 8 11
M  V30 21 2 12 13
M  V30 22 1 19 20
M  V30 23 1 1 21
M  V30 24 1 2 22
M  V30 25 1 2 23
M  V30 26 1 5 24
M  V30 27 1 7 25
M  V30 28 1 8 26
M  V30 29 1 11 27
M  V30 30 1 14 28
M  V30 31 1 14 29
M  V30 32 1 14 30
M  V30 33 1 16 31
M  V30 34 1 17 32
M  V30 35 1 19 33
M  V30 36 1 20 34
M  V30 END BOND
M  V30 END CTAB
M  END
>  <Column 1>
2063

>  <level_0>
2242

>  <index>
2242

>  <Unnamed: 0>
2242

>  <NO.>
2254

>  <Name>
fepitrizol

>  <IUPAC_name>
[2-(2-methyl-5-pyridin-3-yl-1-2-4-triazol-3-yl)phenyl]methanol

>  <SMILES>
Cn1nc(-c2cccnc2)nc1-c1ccccc1CO

>  <CID>
68702

>  <logBB>


>  <BBB+/BBB->
BBB+

>  <Inchi>
InChI=1S/C15H14N4O/c1-19-15(13-7-3-2-5-12(13)10-20)17-14(18-19)11-6-4-8-16-9-11/h2-9-20H-10H2-1H3

>  <threshold>
-1

>  <reference>
R1|R13|R19|R6|R24|R27|R27|R27|R30|R30|

>  <group>
B

>  <Class>
-1

>  <ABC>
15.5

>  <ABCGG>
13.01

>  <nAcid>
0

>  <nBase>
0

>  <nAromAtom>
17

>  <nAromBond>
17

>  <nAtom>
34

>  <nHeavyAtom>
20

>  <nSpiro>
0

>  <nBridgehead>
0

>  <nHetero>
5

>  <nN>
4

>  <nO>
1

>  <nF>
0

>  <BalabanJ>
1.62

>  <BertzCT>
721.75

>  <nBonds>
36

>  <nBondsO>
22

>  <nBondsS>
19

>  <nBondsD>
0

>  <nBondsT>
0

>  <nBondsA>
17

>  <nBondsM>
17

>  <nBondsKS>
28

>  <nBondsKD>
8

>  <RNCG>
0.25

>  <RPCG>
0.13

>  <FCSP3>
0.13

>  <SZ>
23.33

>  <Sm>
22.17

>  <Sv>
22.54

>  <Sse>
34.2

>  <Sp>
23.7

>  <Si>
38.28

>  <MZ>
0.69

>  <Mm>
0.65

>  <Mv>
0.66

>  <Mse>
1.01

>  <Mp>
0.7

>  <Mi>
1.13

>  <NsCH3>
1

>  <NdCH2>
0

>  <NssCH2>
1

>  <NtCH>
0

>  <NdsCH>
0

>  <NaaCH>
8

>  <NsssCH>
0

>  <NddC>
0

>  <NtsC>
0

>  <NdssC>
0

>  <NaasC>
5

>  <NaaaC>
0

>  <NssssC>
0

>  <NsNH3>
0

>  <NsNH2>
0

>  <NssNH2>
0

>  <NdNH>
0

>  <NssNH>
0

>  <NaaNH>
0

>  <NtN>
0

>  <NsssNH>
0

>  <NdsN>
0

>  <NaaN>
3

>  <NsssN>
0

>  <NddsN>
0

>  <NaasN>
1

>  <NssssN>
0

>  <NsOH>
1

>  <NdO>
0

>  <NssO>
0

>  <NaaO>
0

>  <NsF>
0

>  <NsSiH3>
0

>  <NssSiH2>
0

>  <NsssSiH>
0

>  <NssssSi>
0

>  <NsPH2>
0

>  <NssPH>
0

>  <NsssP>
0

>  <NdsssP>
0

>  <NsssssP>
0

>  <NsSH>
0

>  <NdS>
0

>  <NssS>
0

>  <NaaS>
0

>  <NdssS>
0

>  <NddssS>
0

>  <NsCl>
0

>  <NsBr>
0

>  <NsI>
0

>  <fragCpx>
104.05

>  <fMF>
0.5

>  <nHBAcc>
5

>  <nHBDon>
1

>  <Kier1>
14.92

>  <Kier2>
6.84

>  <Lipinski>
1

>  <GhoseFilter>
1

>  <FilterItLogS>
-3.71

>  <VMcGowan>
201.02

>  <LabuteASA>
116.12

>  <PEOE_VSA1>
5.11

>  <PEOE_VSA2>
4.98

>  <PEOE_VSA3>
9.67

>  <PEOE_VSA4>
5.1

>  <PEOE_VSA5>
0

>  <PEOE_VSA6>
24.27

>  <PEOE_VSA7>
17.7

>  <PEOE_VSA8>
30.57

>  <PEOE_VSA9>
6.61

>  <PEOE_VSA10>
0

>  <PEOE_VSA11>
11.65

>  <PEOE_VSA12>
0

>  <PEOE_VSA13>
0

>  <SMR_VSA1>
5.11

>  <SMR_VSA2>
0

>  <SMR_VSA3>
19.75

>  <SMR_VSA4>
7.05

>  <SMR_VSA5>
6.61

>  <SMR_VSA6>
0

>  <SMR_VSA7>
54.36

>  <SMR_VSA8>
0

>  <SMR_VSA9>
22.78

>  <SlogP_VSA1>
0

>  <SlogP_VSA2>
24.85

>  <SlogP_VSA3>
13.65

>  <SlogP_VSA4>
0

>  <SlogP_VSA5>
5.56

>  <SlogP_VSA6>
48.79

>  <SlogP_VSA7>
0

>  <SlogP_VSA8>
22.78

>  <SlogP_VSA9>
0

>  <SlogP_VSA10>
0

>  <SlogP_VSA11>
0

>  <EState_VSA1>
0

>  <EState_VSA2>
6.61

>  <EState_VSA3>
5.82

>  <EState_VSA4>
22.51

>  <EState_VSA5>
0

>  <EState_VSA6>
17.08

>  <EState_VSA7>
43.45

>  <EState_VSA8>
15.07

>  <EState_VSA9>
0

>  <EState_VSA10>
5.11

>  <VSA_EState1>
1.72

>  <VSA_EState2>
8.64

>  <VSA_EState3>
13.84

>  <VSA_EState4>
2.59

>  <VSA_EState5>
1.36

>  <VSA_EState6>
11.41

>  <VSA_EState7>
3.45

>  <VSA_EState8>
-0.02

>  <VSA_EState9>
1.84

>  <apol>
39.59

>  <bpol>
18.03

>  <nRing>
3

>  <nHRing>
2

>  <naRing>
3

>  <naHRing>
2

>  <nARing 2>
0

>  <nAHRing 2>
0

>  <nFRing>
0

>  <nFHRing>
0

>  <nFaRing>
0

>  <nFaHRing>
0

>  <nFARing 2>
0

>  <nFAHRing 2>
0

>  <nRot>
3

>  <SLogP>
2.04

>  <SMR>
75.59

>  <TopoPSA(NO)>
63.83

>  <TopoPSA>
63.83

>  <JGI1>
0.14

>  <JGI2>
0.07

>  <JGI3>
0.05

>  <JGI4>
0.04

>  <JGI5>
0.03

>  <Diameter>
10

>  <Radius>
5

>  <TMWC10>
115.41

>  <TSRW10>
67.56

>  <MW>
266.12

>  <AMW>
7.83

>  <WPath>
805

>  <WPol>
30

>  <Zagreb1>
104

>  <Zagreb2>
123

>  <mZagreb2>
4.53

>  <yes>


>  <nAR-cont>
0.336376

>  <nHA-cont>
0.999629945

>  <MWHBN>
0.36780065

>  <MWHBN-cont>
0.602396017

>  <TPSA-cont>
0.554426964

>  <pka_cont>
0.97

>  <yes.1>


>  <BBB_SCORE>
3.833453898

>  <MMFF94 Energy>
64.343

$$$$
Compound 1699
Actelion Java MolfileCreator 2.0

  0  0  0  0  0  0              0 V3000
M  V30 BEGIN CTAB
M  V30 COUNTS 8 7 0 0 0
M  V30 BEGIN ATOM
M  V30 1 Cl 1.6046 1.4157 -0.3774 0
M  V30 2 C 0.1824 0.6475 0.3822 0
M  V30 3 F 0.4311 0.5369 1.7188 0
M  V30 4 F -0.8785 1.4957 0.2722 0
M  V30 5 C -0.1527 -0.733 -0.2135 0
M  V30 6 Cl -0.6148 -0.6625 -1.9372 0
M  V30 7 F -1.1834 -1.3055 0.4724 0
M  V30 8 F 0.8998 -1.5885 -0.0819 0
M  V30 END ATOM
M  V30 BEGIN BOND
M  V30 1 1 1 2
M  V30 2 1 2 3
M  V30 3 1 2 4
M  V30 4 1 2 5
M  V30 5 1 5 6
M  V30 6 1 5 7
M  V30 7 1 5 8
M  V30 END BOND
M  V30 END CTAB
M  END
>  <Column 1>
2066

>  <level_0>
2245

>  <index>
2245

>  <Unnamed: 0>
2245

>  <NO.>
2257

>  <Name>
cryofluorane

>  <IUPAC_name>
1-2-dichloro-1-1-2-2-tetrafluoroethane

>  <SMILES>
FC(F)(Cl)C(F)(F)Cl

>  <CID>
6429

>  <logBB>


>  <BBB+/BBB->
BBB+

>  <Inchi>
InChI=1S/C2Cl2F4/c3-1(5-6)2(4-7)8

>  <threshold>
-1

>  <reference>
R1|R13|R19|R6|R24|R27|R27|R27|R30|R30|

>  <group>
B

>  <Class>
1

>  <ABC>
5.81

>  <ABCGG>
6.17

>  <nAcid>
0

>  <nBase>
0

>  <nAromAtom>
0

>  <nAromBond>
0

>  <nAtom>
8

>  <nHeavyAtom>
8

>  <nSpiro>
0

>  <nBridgehead>
0

>  <nHetero>
6

>  <nN>
0

>  <nO>
0

>  <nF>
4

>  <BalabanJ>
4.02

>  <BertzCT>
67.02

>  <nBonds>
7

>  <nBondsO>
7

>  <nBondsS>
7

>  <nBondsD>
0

>  <nBondsT>
0

>  <nBondsA>
0

>  <nBondsM>
0

>  <nBondsKS>
7

>  <nBondsKD>
0

>  <RNCG>
0.23

>  <RPCG>
0.5

>  <FCSP3>
1

>  <SZ>
13.67

>  <Sm>
14.23

>  <Sv>
6.77

>  <Sse>
10.36

>  <Sp>
5.94

>  <Si>
10.49

>  <MZ>
1.71

>  <Mm>
1.78

>  <Mv>
0.85

>  <Mse>
1.29

>  <Mp>
0.74

>  <Mi>
1.31

>  <NsCH3>
0

>  <NdCH2>
0

>  <NssCH2>
0

>  <NtCH>
0

>  <NdsCH>
0

>  <NaaCH>
0

>  <NsssCH>
0

>  <NddC>
0

>  <NtsC>
0

>  <NdssC>
0

>  <NaasC>
0

>  <NaaaC>
0

>  <NssssC>
2

>  <NsNH3>
0

>  <NsNH2>
0

>  <NssNH2>
0

>  <NdNH>
0

>  <NssNH>
0

>  <NaaNH>
0

>  <NtN>
0

>  <NsssNH>
0

>  <NdsN>
0

>  <NaaN>
0

>  <NsssN>
0

>  <NddsN>
0

>  <NaasN>
0

>  <NssssN>
0

>  <NsOH>
0

>  <NdO>
0

>  <NssO>
0

>  <NaaO>
0

>  <NsF>
4

>  <NsSiH3>
0

>  <NssSiH2>
0

>  <NsssSiH>
0

>  <NssssSi>
0

>  <NsPH2>
0

>  <NssPH>
0

>  <NsssP>
0

>  <NdsssP>
0

>  <NsssssP>
0

>  <NsSH>
0

>  <NdS>
0

>  <NssS>
0

>  <NaaS>
0

>  <NdssS>
0

>  <NddssS>
0

>  <NsCl>
2

>  <NsBr>
0

>  <NsI>
0

>  <fragCpx>
7.06

>  <fMF>
0

>  <nHBAcc>
0

>  <nHBDon>
0

>  <Kier1>
8

>  <Kier2>
1.75

>  <Lipinski>
1

>  <GhoseFilter>
0

>  <FilterItLogS>
-2.32

>  <VMcGowan>
70.56

>  <LabuteASA>
52.37

>  <PEOE_VSA1>
0

>  <PEOE_VSA2>
0

>  <PEOE_VSA3>
0

>  <PEOE_VSA4>
17.56

>  <PEOE_VSA5>
0

>  <PEOE_VSA6>
0

>  <PEOE_VSA7>
23.2

>  <PEOE_VSA8>
0

>  <PEOE_VSA9>
0

>  <PEOE_VSA10>
0

>  <PEOE_VSA11>
0

>  <PEOE_VSA12>
0

>  <PEOE_VSA13>
0

>  <SMR_VSA1>
17.56

>  <SMR_VSA2>
0

>  <SMR_VSA3>
0

>  <SMR_VSA4>
0

>  <SMR_VSA5>
10.76

>  <SMR_VSA6>
0

>  <SMR_VSA7>
0

>  <SMR_VSA8>
0

>  <SMR_VSA9>
0

>  <SlogP_VSA1>
0

>  <SlogP_VSA2>
10.76

>  <SlogP_VSA3>
0

>  <SlogP_VSA4>
0

>  <SlogP_VSA5>
0

>  <SlogP_VSA6>
0

>  <SlogP_VSA7>
0

>  <SlogP_VSA8>
0

>  <SlogP_VSA9>
0

>  <SlogP_VSA10>
17.56

>  <SlogP_VSA11>
0

>  <EState_VSA1>
10.76

>  <EState_VSA2>
0

>  <EState_VSA3>
0

>  <EState_VSA4>
0

>  <EState_VSA5>
0

>  <EState_VSA6>
0

>  <EState_VSA7>
0

>  <EState_VSA8>
23.2

>  <EState_VSA9>
0

>  <EState_VSA10>
17.56

>  <VSA_EState1>
44.45

>  <VSA_EState2>
0

>  <VSA_EState3>
-9.32

>  <VSA_EState4>
0

>  <VSA_EState5>
0

>  <VSA_EState6>
0

>  <VSA_EState7>
0

>  <VSA_EState8>
0

>  <VSA_EState9>
0

>  <apol>
9.93

>  <bpol>
5.47

>  <nRing>
0

>  <nHRing>
0

>  <naRing>
0

>  <naHRing>
0

>  <nARing 2>
0

>  <nAHRing 2>
0

>  <nFRing>
0

>  <nFHRing>
0

>  <nFaRing>
0

>  <nFaHRing>
0

>  <nFARing 2>
0

>  <nFAHRing 2>
0

>  <nRot>
1

>  <SLogP>
2.65

>  <SMR>
21.6

>  <TopoPSA(NO)>
0

>  <TopoPSA>
0

>  <JGI1>
0.64

>  <JGI2>
0.17

>  <JGI3>
0

>  <JGI4>
0

>  <JGI5>
0

>  <Diameter>
3

>  <Radius>
2

>  <TMWC10>
77.34

>  <TSRW10>
37

>  <MW>
169.93

>  <AMW>
21.24

>  <WPath>
58

>  <WPol>
9

>  <Zagreb1>
38

>  <Zagreb2>
40

>  <mZagreb2>
1.56

>  <yes>


>  <nAR-cont>
0.336376

>  <nHA-cont>
0.464727961

>  <MWHBN>
0

>  <MWHBN-cont>
0

>  <TPSA-cont>
0

>  <pka_cont>
0.97

>  <yes.1>


>  <BBB_SCORE>
1.286103961

>  <MMFF94 Energy>
73.147

$$$$
Compound 1700
Actelion Java MolfileCreator 2.0

  0  0  0  0  0  0              0 V3000
M  V30 BEGIN CTAB
M  V30 COUNTS 8 7 0 0 0
M  V30 BEGIN ATOM
M  V30 1 Cl 1.7902 0.0 -1.108 0
M  V30 2 C 0.6166 0.3266 0.1955 0
M  V30 3 C -0.7349 -0.3033 -0.0661 0
M  V30 4 F -1.3027 0.1674 -1.1975 0
M  V30 5 F -1.5831 -0.023 0.9532 0
M  V30 6 F -0.657 -1.6482 -0.1612 0
M  V30 7 H 0.5201 1.4124 0.2853 0
M  V30 8 H 1.0435 -0.0595 1.1254 0
M  V30 END ATOM
M  V30 BEGIN BOND
M  V30 1 1 1 2
M  V30 2 1 2 3
M  V30 3 1 3 4
M  V30 4 1 3 5
M  V30 5 1 3 6
M  V30 6 1 2 7
M  V30 7 1 2 8
M  V30 END BOND
M  V30 END CTAB
M  END
>  <Column 1>
2067

>  <level_0>
2246

>  <index>
2246

>  <Unnamed: 0>
2246

>  <NO.>
2258

>  <Name>
1-1-1-trifluro-2-chloroethane

>  <IUPAC_name>
2-chloro-1-1-1-trifluoroethane

>  <SMILES>
FC(F)(F)CCl

>  <CID>
6408

>  <logBB>


>  <BBB+/BBB->
BBB+

>  <Inchi>
InChI=1S/C2H2ClF3/c3-1-2(4-5)6/h1H2

>  <threshold>
-1

>  <reference>
R1|R1|R13|R19|R28|R9|R24|R27|R27|R30|R30|

>  <group>
B

>  <Class>
1

>  <ABC>
4.01

>  <ABCGG>
4.28

>  <nAcid>
0

>  <nBase>
0

>  <nAromAtom>
0

>  <nAromBond>
0

>  <nAtom>
8

>  <nHeavyAtom>
6

>  <nSpiro>
0

>  <nBridgehead>
0

>  <nHetero>
4

>  <nN>
0

>  <nO>
0

>  <nF>
3

>  <BalabanJ>
3.17

>  <BertzCT>
38.55

>  <nBonds>
7

>  <nBondsO>
5

>  <nBondsS>
7

>  <nBondsD>
0

>  <nBondsT>
0

>  <nBondsA>
0

>  <nBondsM>
0

>  <nBondsKS>
7

>  <nBondsKD>
0

>  <RNCG>
0.27

>  <RPCG>
0.64

>  <FCSP3>
1

>  <SZ>
9.67

>  <Sm>
9.86

>  <Sv>
5.57

>  <Sse>
9.52

>  <Sp>
5.1

>  <Si>
10.21

>  <MZ>
1.21

>  <Mm>
1.23

>  <Mv>
0.7

>  <Mse>
1.19

>  <Mp>
0.64

>  <Mi>
1.28

>  <NsCH3>
0

>  <NdCH2>
0

>  <NssCH2>
1

>  <NtCH>
0

>  <NdsCH>
0

>  <NaaCH>
0

>  <NsssCH>
0

>  <NddC>
0

>  <NtsC>
0

>  <NdssC>
0

>  <NaasC>
0

>  <NaaaC>
0

>  <NssssC>
1

>  <NsNH3>
0

>  <NsNH2>
0

>  <NssNH2>
0

>  <NdNH>
0

>  <NssNH>
0

>  <NaaNH>
0

>  <NtN>
0

>  <NsssNH>
0

>  <NdsN>
0

>  <NaaN>
0

>  <NsssN>
0

>  <NddsN>
0

>  <NaasN>
0

>  <NssssN>
0

>  <NsOH>
0

>  <NdO>
0

>  <NssO>
0

>  <NaaO>
0

>  <NsF>
3

>  <NsSiH3>
0

>  <NssSiH2>
0

>  <NsssSiH>
0

>  <NssssSi>
0

>  <NsPH2>
0

>  <NssPH>
0

>  <NsssP>
0

>  <NdsssP>
0

>  <NsssssP>
0

>  <NsSH>
0

>  <NdS>
0

>  <NssS>
0

>  <NaaS>
0

>  <NdssS>
0

>  <NddssS>
0

>  <NsCl>
1

>  <NsBr>
0

>  <NsI>
0

>  <fragCpx>
5.04

>  <fMF>
0

>  <nHBAcc>
0

>  <nHBDon>
0

>  <Kier1>
6

>  <Kier2>
1.63

>  <Lipinski>
1

>  <GhoseFilter>
0

>  <FilterItLogS>
-1.74

>  <VMcGowan>
56.56

>  <LabuteASA>
37.9

>  <PEOE_VSA1>
0

>  <PEOE_VSA2>
0

>  <PEOE_VSA3>
0

>  <PEOE_VSA4>
13.17

>  <PEOE_VSA5>
11.6

>  <PEOE_VSA6>
0

>  <PEOE_VSA7>
0

>  <PEOE_VSA8>
0

>  <PEOE_VSA9>
0

>  <PEOE_VSA10>
5.88

>  <PEOE_VSA11>
0

>  <PEOE_VSA12>
0

>  <PEOE_VSA13>
0

>  <SMR_VSA1>
13.17

>  <SMR_VSA2>
0

>  <SMR_VSA3>
0

>  <SMR_VSA4>
0

>  <SMR_VSA5>
6.18

>  <SMR_VSA6>
5.88

>  <SMR_VSA7>
0

>  <SMR_VSA8>
0

>  <SMR_VSA9>
0

>  <SlogP_VSA1>
0

>  <SlogP_VSA2>
12.06

>  <SlogP_VSA3>
0

>  <SlogP_VSA4>
0

>  <SlogP_VSA5>
0

>  <SlogP_VSA6>
0

>  <SlogP_VSA7>
0

>  <SlogP_VSA8>
0

>  <SlogP_VSA9>
0

>  <SlogP_VSA10>
13.17

>  <SlogP_VSA11>
0

>  <EState_VSA1>
12.06

>  <EState_VSA2>
0

>  <EState_VSA3>
0

>  <EState_VSA4>
0

>  <EState_VSA5>
0

>  <EState_VSA6>
0

>  <EState_VSA7>
0

>  <EState_VSA8>
11.6

>  <EState_VSA9>
0

>  <EState_VSA10>
13.17

>  <VSA_EState1>
31.96

>  <VSA_EState2>
0

>  <VSA_EState3>
0

>  <VSA_EState4>
0

>  <VSA_EState5>
-1.26

>  <VSA_EState6>
0

>  <VSA_EState7>
-4.19

>  <VSA_EState8>
0

>  <VSA_EState9>
0

>  <apol>
8.52

>  <bpol>
5.86

>  <nRing>
0

>  <nHRing>
0

>  <naRing>
0

>  <naHRing>
0

>  <nARing 2>
0

>  <nAHRing 2>
0

>  <nFRing>
0

>  <nFHRing>
0

>  <nFaRing>
0

>  <nFaHRing>
0

>  <nFARing 2>
0

>  <nFAHRing 2>
0

>  <nRot>
0

>  <SLogP>
1.79

>  <SMR>
16.78

>  <TopoPSA(NO)>
0

>  <TopoPSA>
0

>  <JGI1>
0.6

>  <JGI2>
0.1

>  <JGI3>
0

>  <JGI4>
0

>  <JGI5>
0

>  <Diameter>
3

>  <Radius>
2

>  <TMWC10>
65.41

>  <TSRW10>
31.67

>  <MW>
117.98

>  <AMW>
14.75

>  <WPath>
28

>  <WPol>
3

>  <Zagreb1>
24

>  <Zagreb2>
22

>  <mZagreb2>
1.38

>  <yes>


>  <nAR-cont>
0.336376

>  <nHA-cont>
0.238778273

>  <MWHBN>
0

>  <MWHBN-cont>
0

>  <TPSA-cont>
0

>  <pka_cont>
0.97

>  <yes.1>


>  <BBB_SCORE>
1.060154273

>  <MMFF94 Energy>
25.01

$$$$
Compound 1701
Actelion Java MolfileCreator 2.0

  0  0  0  0  0  0              0 V3000
M  V30 BEGIN CTAB
M  V30 COUNTS 55 59 0 0 0
M  V30 BEGIN ATOM
M  V30 1 F -1.535 -3.8003 -6.8809 0
M  V30 2 C -0.416 -3.3859 -7.5396 0
M  V30 3 F -0.7962 -3.2146 -8.8375 0
M  V30 4 F 0.4336 -4.4496 -7.5382 0
M  V30 5 C 0.2031 -2.1527 -6.9356 0
M  V30 6 C 0.1668 -1.9527 -5.5426 0
M  V30 7 C 0.8587 -1.2133 -7.7373 0
M  V30 8 C 0.7491 -0.8322 -4.9285 0
M  V30 9 C 1.4538 -0.0992 -7.1552 0
M  V30 10 N 0.6913 -0.6742 -3.5483 0
M  V30 11 C 1.3995 0.0824 -5.7691 0
M  V30 12 C 1.6519 0.2018 -2.8595 0
M  V30 13 C -0.6276 -0.7636 -2.8939 0
M  V30 14 C 1.7258 -0.1285 -1.3518 0
M  V30 15 C -0.4886 -1.0501 -1.3795 0
M  V30 16 N 0.4031 -0.0933 -0.68 0
M  V30 17 C 0.5617 -0.4392 0.7476 0
M  V30 18 C -0.7142 -0.2076 1.5712 0
M  V30 19 C -0.4436 -0.3738 3.0218 0
M  V30 20 N -0.293 -1.5076 3.6896 0
M  V30 21 N -0.2902 0.635 3.9014 0
M  V30 22 N -0.0323 -1.2081 5.0243 0
M  V30 23 C -0.0399 0.094 5.1157 0
M  V30 24 C -0.2954 2.0749 3.8856 0
M  V30 25 C 0.1483 1.1155 6.162 0 CFG=1
M  V30 26 C -0.135 2.4487 5.3822 0 CFG=2
M  V30 27 C -0.9077 1.0508 7.2604 0
M  V30 28 C -1.4114 3.0248 6.0113 0
M  V30 29 C -2.0817 1.8529 6.7132 0
M  V30 30 H -0.3045 -2.7149 -4.9239 0
M  V30 31 H 0.9109 -1.3481 -8.8161 0
M  V30 32 H 1.9624 0.6339 -7.7761 0
M  V30 33 H 1.8648 0.9748 -5.3604 0
M  V30 34 H 1.3576 1.2508 -2.9909 0
M  V30 35 H 2.6587 0.0735 -3.2756 0
M  V30 36 H -1.2514 -1.5548 -3.3229 0
M  V30 37 H -1.1617 0.1841 -3.04 0
M  V30 38 H 2.3938 0.6026 -0.8806 0
M  V30 39 H 2.1853 -1.1186 -1.2281 0
M  V30 40 H -0.1188 -2.0758 -1.2477 0
M  V30 41 H -1.4948 -1.0066 -0.949 0
M  V30 42 H 1.3508 0.1977 1.1709 0
M  V30 43 H 0.9046 -1.4762 0.8652 0
M  V30 44 H -1.1116 0.7951 1.3731 0
M  V30 45 H -1.4931 -0.9224 1.2836 0
M  V30 46 H -1.227 2.4269 3.4361 0
M  V30 47 H 0.5655 2.402 3.295 0
M  V30 48 H 1.1664 1.0802 6.5611 0
M  V30 49 H 0.6829 3.1692 5.4994 0
M  V30 50 H -1.199 0.0304 7.5285 0
M  V30 51 H -0.5258 1.5418 8.164 0
M  V30 52 H -2.074 3.5109 5.2893 0
M  V30 53 H -1.1336 3.7781 6.7593 0
M  V30 54 H -2.7616 2.1807 7.505 0
M  V30 55 H -2.6566 1.2557 5.9963 0
M  V30 END ATOM
M  V30 BEGIN BOND
M  V30 1 1 1 2
M  V30 2 1 2 3
M  V30 3 1 2 4
M  V30 4 1 2 5
M  V30 5 2 5 6
M  V30 6 1 5 7
M  V30 7 1 6 8
M  V30 8 2 7 9
M  V30 9 1 8 10
M  V30 10 2 8 11
M  V30 11 1 10 12
M  V30 12 1 10 13
M  V30 13 1 12 14
M  V30 14 1 13 15
M  V30 15 1 14 16
M  V30 16 1 16 17
M  V30 17 1 17 18
M  V30 18 1 18 19
M  V30 19 2 19 20
M  V30 20 1 19 21
M  V30 21 1 20 22
M  V30 22 1 21 23
M  V30 23 1 21 24
M  V30 24 1 23 25
M  V30 25 1 24 26
M  V30 26 1 25 27
M  V30 27 1 26 28
M  V30 28 1 27 29
M  V30 29 1 9 11
M  V30 30 1 15 16
M  V30 31 2 22 23
M  V30 32 1 25 26
M  V30 33 1 28 29
M  V30 34 1 6 30
M  V30 35 1 7 31
M  V30 36 1 9 32
M  V30 37 1 11 33
M  V30 38 1 12 34
M  V30 39 1 12 35
M  V30 40 1 13 36
M  V30 41 1 13 37
M  V30 42 1 14 38
M  V30 43 1 14 39
M  V30 44 1 15 40
M  V30 45 1 15 41
M  V30 46 1 17 42
M  V30 47 1 17 43
M  V30 48 1 18 44
M  V30 49 1 18 45
M  V30 50 1 24 46
M  V30 51 1 24 47
M  V30 52 1 25 48
M  V30 53 1 26 49
M  V30 54 1 27 50
M  V30 55 1 27 51
M  V30 56 1 28 52
M  V30 57 1 28 53
M  V30 58 1 29 54
M  V30 59 1 29 55
M  V30 END BOND
M  V30 BEGIN COLLECTION
M  V30 MDLV30/STEABS ATOMS=(2 25 26)
M  V30 END COLLECTION
M  V30 END CTAB
M  END
>  <Column 1>
2071

>  <level_0>
2250

>  <index>
2250

>  <Unnamed: 0>
2250

>  <NO.>
2262

>  <Name>
lorpiprazole

>  <IUPAC_name>
(1r-8s)-5-[2-[4-[3-(trifluoromethyl)phenyl]piperazin-1-yl]ethyl]-3-4-6-triazatricyclo[6.3.0.02-6]undeca-2-4-diene

>  <SMILES>
FC(F)(F)c1cccc(N2CCN(CCc3nnc4n3C[C@H]3CCC[C@@H]43)CC2)c1

>  <CID>
3045380

>  <logBB>


>  <BBB+/BBB->
BBB+

>  <Inchi>
InChI=1S/C21H26F3N5/c22-21(23-24)16-4-2-5-17(13-16)28-11-9-27(10-12-28)8-7-19-25-26-20-18-6-1-3-15(18)14-29(19)20/h2-4-5-13-15-18H-1-3-6-12-14H2/t15--18-/m1/s1

>  <threshold>
-1

>  <reference>
R1|R27|R27|R30|R30|

>  <group>
B

>  <Class>
1

>  <ABC>
23.55

>  <ABCGG>
17.6

>  <nAcid>
0

>  <nBase>
1

>  <nAromAtom>
11

>  <nAromBond>
11

>  <nAtom>
55

>  <nHeavyAtom>
29

>  <nSpiro>
0

>  <nBridgehead>
0

>  <nHetero>
8

>  <nN>
5

>  <nO>
0

>  <nF>
3

>  <BalabanJ>
1.06

>  <BertzCT>
869.44

>  <nBonds>
59

>  <nBondsO>
33

>  <nBondsS>
48

>  <nBondsD>
0

>  <nBondsT>
0

>  <nBondsA>
11

>  <nBondsM>
11

>  <nBondsKS>
54

>  <nBondsKD>
5

>  <RNCG>
0.18

>  <RPCG>
0.2

>  <FCSP3>
0.62

>  <SZ>
35.67

>  <Sm>
33.76

>  <Sv>
33.77

>  <Sse>
55.73

>  <Sp>
35.68

>  <Si>
63.49

>  <MZ>
0.65

>  <Mm>
0.61

>  <Mv>
0.61

>  <Mse>
1.01

>  <Mp>
0.65

>  <Mi>
1.15

>  <NsCH3>
0

>  <NdCH2>
0

>  <NssCH2>
10

>  <NtCH>
0

>  <NdsCH>
0

>  <NaaCH>
4

>  <NsssCH>
2

>  <NddC>
0

>  <NtsC>
0

>  <NdssC>
0

>  <NaasC>
4

>  <NaaaC>
0

>  <NssssC>
1

>  <NsNH3>
0

>  <NsNH2>
0

>  <NssNH2>
0

>  <NdNH>
0

>  <NssNH>
0

>  <NaaNH>
0

>  <NtN>
0

>  <NsssNH>
0

>  <NdsN>
0

>  <NaaN>
2

>  <NsssN>
2

>  <NddsN>
0

>  <NaasN>
1

>  <NssssN>
0

>  <NsOH>
0

>  <NdO>
0

>  <NssO>
0

>  <NaaO>
0

>  <NsF>
3

>  <NsSiH3>
0

>  <NssSiH2>
0

>  <NsssSiH>
0

>  <NssssSi>
0

>  <NsPH2>
0

>  <NssPH>
0

>  <NsssP>
0

>  <NdsssP>
0

>  <NsssssP>
0

>  <NsSH>
0

>  <NdS>
0

>  <NssS>
0

>  <NaaS>
0

>  <NdssS>
0

>  <NddssS>
0

>  <NsCl>
0

>  <NsBr>
0

>  <NsI>
0

>  <fragCpx>
277.08

>  <fMF>
0.45

>  <nHBAcc>
5

>  <nHBDon>
0

>  <Kier1>
20.88

>  <Kier2>
8.5

>  <Lipinski>
1

>  <GhoseFilter>
1

>  <FilterItLogS>
-4.54

>  <VMcGowan>
286.13

>  <LabuteASA>
168.06

>  <PEOE_VSA1>
9.47

>  <PEOE_VSA2>
4.9

>  <PEOE_VSA3>
0

>  <PEOE_VSA4>
13.17

>  <PEOE_VSA5>
10.2

>  <PEOE_VSA6>
12.49

>  <PEOE_VSA7>
36.96

>  <PEOE_VSA8>
57.29

>  <PEOE_VSA9>
5.56

>  <PEOE_VSA10>
11.65

>  <PEOE_VSA11>
0

>  <PEOE_VSA12>
0

>  <PEOE_VSA13>
0

>  <SMR_VSA1>
13.17

>  <SMR_VSA2>
0

>  <SMR_VSA3>
19.66

>  <SMR_VSA4>
5.92

>  <SMR_VSA5>
44.32

>  <SMR_VSA6>
37.62

>  <SMR_VSA7>
41.48

>  <SMR_VSA8>
0

>  <SMR_VSA9>
0

>  <SlogP_VSA1>
4.9

>  <SlogP_VSA2>
52.39

>  <SlogP_VSA3>
19.14

>  <SlogP_VSA4>
5.92

>  <SlogP_VSA5>
42.39

>  <SlogP_VSA6>
24.27

>  <SlogP_VSA7>
0

>  <SlogP_VSA8>
0

>  <SlogP_VSA9>
0

>  <SlogP_VSA10>
18.86

>  <SlogP_VSA11>
0

>  <EState_VSA1>
11.74

>  <EState_VSA2>
0

>  <EState_VSA3>
11.61

>  <EState_VSA4>
63.5

>  <EState_VSA5>
37.22

>  <EState_VSA6>
6.07

>  <EState_VSA7>
4.9

>  <EState_VSA8>
19.66

>  <EState_VSA9>
0

>  <EState_VSA10>
13.17

>  <VSA_EState1>
41.23

>  <VSA_EState2>
4.42

>  <VSA_EState3>
8.92

>  <VSA_EState4>
0.07

>  <VSA_EState5>
3.66

>  <VSA_EState6>
5.64

>  <VSA_EState7>
0.46

>  <VSA_EState8>
5.17

>  <VSA_EState9>
0

>  <apol>
59.58

>  <bpol>
35.69

>  <nRing>
5

>  <nHRing>
3

>  <naRing>
2

>  <naHRing>
1

>  <nARing 2>
3

>  <nAHRing 2>
2

>  <nFRing>
1

>  <nFHRing>
1

>  <nFaRing>
0

>  <nFaHRing>
0

>  <nFARing 2>
1

>  <nFAHRing 2>
1

>  <nRot>
4

>  <SLogP>
3.56

>  <SMR>
103.91

>  <TopoPSA(NO)>
37.19

>  <TopoPSA>
37.19

>  <JGI1>
0.2

>  <JGI2>
0.08

>  <JGI3>
0.04

>  <JGI4>
0.03

>  <JGI5>
0.03

>  <Diameter>
16

>  <Radius>
8

>  <TMWC10>
140.17

>  <TSRW10>
82.23

>  <MW>
405.21

>  <AMW>
7.37

>  <WPath>
2613

>  <WPol>
45

>  <Zagreb1>
164

>  <Zagreb2>
197

>  <mZagreb2>
6.06

>  <yes>


>  <nAR-cont>
0.691115

>  <nHA-cont>
0.785905698

>  <MWHBN>
0.248387609

>  <MWHBN-cont>
0.962446498

>  <TPSA-cont>
0.740390706

>  <pka_cont>
0.97

>  <yes.1>


>  <BBB_SCORE>
4.886471859

>  <MMFF94 Energy>
136.46

$$$$
Compound 1702
Actelion Java MolfileCreator 2.0

  0  0  0  0  0  0              0 V3000
M  V30 BEGIN CTAB
M  V30 COUNTS 8 7 0 0 0
M  V30 BEGIN ATOM
M  V30 1 F -0.8959 -0.3257 1.4663 0
M  V30 2 C 0.1411 -0.3539 0.6012 0
M  V30 3 F 0.4627 -1.6457 0.3721 0
M  V30 4 F 1.1995 0.2199 1.2233 0
M  V30 5 C -0.1769 0.3822 -0.6816 0
M  V30 6 F -1.2397 -0.1825 -1.3198 0
M  V30 7 H -0.4278 1.4266 -0.4764 0
M  V30 8 H 0.6758 0.3542 -1.3653 0
M  V30 END ATOM
M  V30 BEGIN BOND
M  V30 1 1 1 2
M  V30 2 1 2 3
M  V30 3 1 2 4
M  V30 4 1 2 5
M  V30 5 1 5 6
M  V30 6 1 5 7
M  V30 7 1 5 8
M  V30 END BOND
M  V30 END CTAB
M  END
>  <Column 1>
2072

>  <level_0>
2251

>  <index>
2251

>  <Unnamed: 0>
2251

>  <NO.>
2263

>  <Name>
norflurane

>  <IUPAC_name>
1-1-1-2-tetrafluoroethane

>  <SMILES>
FCC(F)(F)F

>  <CID>
13129

>  <logBB>


>  <BBB+/BBB->
BBB+

>  <Inchi>
InChI=1S/C2H2F4/c3-1-2(4-5)6/h1H2

>  <threshold>
-1

>  <reference>
R1|R13|R19|R6|R24|R27|R27|R27|R30|R30|

>  <group>
B

>  <Class>
1

>  <ABC>
4.01

>  <ABCGG>
4.28

>  <nAcid>
0

>  <nBase>
0

>  <nAromAtom>
0

>  <nAromBond>
0

>  <nAtom>
8

>  <nHeavyAtom>
6

>  <nSpiro>
0

>  <nBridgehead>
0

>  <nHetero>
4

>  <nN>
0

>  <nO>
0

>  <nF>
4

>  <BalabanJ>
3.17

>  <BertzCT>
35.3

>  <nBonds>
7

>  <nBondsO>
5

>  <nBondsS>
7

>  <nBondsD>
0

>  <nBondsT>
0

>  <nBondsA>
0

>  <nBondsM>
0

>  <nBondsKS>
7

>  <nBondsKD>
0

>  <RNCG>
0.32

>  <RPCG>
0.56

>  <FCSP3>
1

>  <SZ>
8.33

>  <Sm>
8.49

>  <Sv>
5.13

>  <Sse>
9.71

>  <Sp>
4.13

>  <Si>
10.6

>  <MZ>
1.04

>  <Mm>
1.06

>  <Mv>
0.64

>  <Mse>
1.21

>  <Mp>
0.52

>  <Mi>
1.33

>  <NsCH3>
0

>  <NdCH2>
0

>  <NssCH2>
1

>  <NtCH>
0

>  <NdsCH>
0

>  <NaaCH>
0

>  <NsssCH>
0

>  <NddC>
0

>  <NtsC>
0

>  <NdssC>
0

>  <NaasC>
0

>  <NaaaC>
0

>  <NssssC>
1

>  <NsNH3>
0

>  <NsNH2>
0

>  <NssNH2>
0

>  <NdNH>
0

>  <NssNH>
0

>  <NaaNH>
0

>  <NtN>
0

>  <NsssNH>
0

>  <NdsN>
0

>  <NaaN>
0

>  <NsssN>
0

>  <NddsN>
0

>  <NaasN>
0

>  <NssssN>
0

>  <NsOH>
0

>  <NdO>
0

>  <NssO>
0

>  <NaaO>
0

>  <NsF>
4

>  <NsSiH3>
0

>  <NssSiH2>
0

>  <NsssSiH>
0

>  <NssssSi>
0

>  <NsPH2>
0

>  <NssPH>
0

>  <NsssP>
0

>  <NdsssP>
0

>  <NsssssP>
0

>  <NsSH>
0

>  <NdS>
0

>  <NssS>
0

>  <NaaS>
0

>  <NdssS>
0

>  <NddssS>
0

>  <NsCl>
0

>  <NsBr>
0

>  <NsI>
0

>  <fragCpx>
5.04

>  <fMF>
0

>  <nHBAcc>
0

>  <nHBDon>
0

>  <Kier1>
6

>  <Kier2>
1.63

>  <Lipinski>
1

>  <GhoseFilter>
0

>  <FilterItLogS>
-1.37

>  <VMcGowan>
46.08

>  <LabuteASA>
31.77

>  <PEOE_VSA1>
0

>  <PEOE_VSA2>
0

>  <PEOE_VSA3>
4.39

>  <PEOE_VSA4>
13.17

>  <PEOE_VSA5>
0

>  <PEOE_VSA6>
0

>  <PEOE_VSA7>
0

>  <PEOE_VSA8>
0

>  <PEOE_VSA9>
0

>  <PEOE_VSA10>
0

>  <PEOE_VSA11>
6.67

>  <PEOE_VSA12>
0

>  <PEOE_VSA13>
0

>  <SMR_VSA1>
17.56

>  <SMR_VSA2>
0

>  <SMR_VSA3>
0

>  <SMR_VSA4>
0

>  <SMR_VSA5>
6.18

>  <SMR_VSA6>
6.67

>  <SMR_VSA7>
0

>  <SMR_VSA8>
0

>  <SMR_VSA9>
0

>  <SlogP_VSA1>
0

>  <SlogP_VSA2>
12.85

>  <SlogP_VSA3>
0

>  <SlogP_VSA4>
0

>  <SlogP_VSA5>
0

>  <SlogP_VSA6>
0

>  <SlogP_VSA7>
0

>  <SlogP_VSA8>
0

>  <SlogP_VSA9>
0

>  <SlogP_VSA10>
17.56

>  <SlogP_VSA11>
0

>  <EState_VSA1>
12.85

>  <EState_VSA2>
0

>  <EState_VSA3>
0

>  <EState_VSA4>
0

>  <EState_VSA5>
0

>  <EState_VSA6>
0

>  <EState_VSA7>
0

>  <EState_VSA8>
0

>  <EState_VSA9>
0

>  <EState_VSA10>
17.56

>  <VSA_EState1>
41.6

>  <VSA_EState2>
0

>  <VSA_EState3>
0

>  <VSA_EState4>
0

>  <VSA_EState5>
0

>  <VSA_EState6>
0

>  <VSA_EState7>
-4.63

>  <VSA_EState8>
-2.23

>  <VSA_EState9>
0

>  <apol>
6.9

>  <bpol>
6.46

>  <nRing>
0

>  <nHRing>
0

>  <naRing>
0

>  <naHRing>
0

>  <nARing 2>
0

>  <nAHRing 2>
0

>  <nFRing>
0

>  <nFHRing>
0

>  <nFaRing>
0

>  <nFaHRing>
0

>  <nFARing 2>
0

>  <nFAHRing 2>
0

>  <nRot>
0

>  <SLogP>
1.52

>  <SMR>
12.03

>  <TopoPSA(NO)>
0

>  <TopoPSA>
0

>  <JGI1>
0.6

>  <JGI2>
0.1

>  <JGI3>
0

>  <JGI4>
0

>  <JGI5>
0

>  <Diameter>
3

>  <Radius>
2

>  <TMWC10>
65.41

>  <TSRW10>
31.67

>  <MW>
102.01

>  <AMW>
12.75

>  <WPath>
28

>  <WPol>
3

>  <Zagreb1>
24

>  <Zagreb2>
22

>  <mZagreb2>
1.38

>  <yes>


>  <nAR-cont>
0.336376

>  <nHA-cont>
0.238778273

>  <MWHBN>
0

>  <MWHBN-cont>
0

>  <TPSA-cont>
0

>  <pka_cont>
0.97

>  <yes.1>


>  <BBB_SCORE>
1.060154273

>  <MMFF94 Energy>
29.147

$$$$
Compound 1703
Actelion Java MolfileCreator 2.0

  0  0  0  0  0  0              0 V3000
M  V30 BEGIN CTAB
M  V30 COUNTS 50 54 0 0 0
M  V30 BEGIN ATOM
M  V30 1 F 8.0493 0.4013 1.8469 0
M  V30 2 C 6.987 -0.102 1.2053 0
M  V30 3 C 5.9044 -0.5719 1.9361 0
M  V30 4 C 6.9869 -0.1591 -0.1809 0
M  V30 5 C 4.796 -1.1001 1.2667 0
M  V30 6 C 5.8785 -0.6884 -0.8484 0
M  V30 7 C 4.7534 -1.1381 -0.1374 0
M  V30 8 C 3.6298 -1.7622 -0.8467 0
M  V30 9 N 2.3604 -1.8561 -0.3177 0
M  V30 10 C 3.5612 -2.3468 -2.1026 0
M  V30 11 C 1.5028 -2.4696 -1.1996 0
M  V30 12 C 2.2342 -2.7907 -2.322 0
M  V30 13 C 0.0663 -2.6951 -0.8597 0
M  V30 14 N -0.4925 -1.5617 -0.1059 0
M  V30 15 C -0.7262 -0.397 -1.0008 0
M  V30 16 C -1.7953 -1.9465 0.4866 0
M  V30 17 C -1.3639 0.8052 -0.2686 0
M  V30 18 C -2.4715 -0.7957 1.2668 0
M  V30 19 N -2.5958 0.4052 0.4327 0
M  V30 20 C -3.5389 1.3855 0.7195 0
M  V30 21 C -4.0343 2.3168 -0.2216 0
M  V30 22 C -4.1203 1.5284 1.9996 0
M  V30 23 O -3.6843 2.3786 -1.5464 0
M  V30 24 C -4.9826 3.3039 0.0427 0
M  V30 25 C -5.0715 2.5093 2.3079 0
M  V30 26 C -4.3783 3.398 -2.1091 0
M  V30 27 C -5.5114 3.4102 1.3378 0
M  V30 28 C -5.1876 4.0015 -1.1783 0
M  V30 29 H 5.9318 -0.5361 3.0203 0
M  V30 30 H 7.8467 0.202 -0.7354 0
M  V30 31 H 3.9758 -1.4923 1.8619 0
M  V30 32 H 5.8965 -0.7285 -1.9348 0
M  V30 33 H 2.0575 -1.4747 0.5685 0
M  V30 34 H 4.3858 -2.453 -2.7954 0
M  V30 35 H 1.8569 -3.2898 -3.2052 0
M  V30 36 H 0.0289 -3.603 -0.2428 0
M  V30 37 H -0.5162 -2.9026 -1.7664 0
M  V30 38 H 0.2221 -0.0556 -1.4314 0
M  V30 39 H -1.3786 -0.686 -1.8362 0
M  V30 40 H -2.4809 -2.2923 -0.2992 0
M  V30 41 H -1.648 -2.7821 1.1817 0
M  V30 42 H -1.5288 1.5936 -1.0075 0
M  V30 43 H -0.6533 1.2041 0.4669 0
M  V30 44 H -1.8845 -0.5631 2.1643 0
M  V30 45 H -3.4587 -1.1508 1.5872 0
M  V30 46 H -3.8088 0.8705 2.8077 0
M  V30 47 H -5.47 2.5706 3.3182 0
M  V30 48 H -4.1929 3.5633 -3.1609 0
M  V30 49 H -6.2504 4.1673 1.5808 0
M  V30 50 H -5.8525 4.8342 -1.3559 0
M  V30 END ATOM
M  V30 BEGIN BOND
M  V30 1 1 1 2
M  V30 2 2 2 3
M  V30 3 1 2 4
M  V30 4 1 3 5
M  V30 5 2 4 6
M  V30 6 2 5 7
M  V30 7 1 7 8
M  V30 8 1 8 9
M  V30 9 2 8 10
M  V30 10 1 9 11
M  V30 11 1 10 12
M  V30 12 1 11 13
M  V30 13 1 13 14
M  V30 14 1 14 15
M  V30 15 1 14 16
M  V30 16 1 15 17
M  V30 17 1 16 18
M  V30 18 1 17 19
M  V30 19 1 19 20
M  V30 20 2 20 21
M  V30 21 1 20 22
M  V30 22 1 21 23
M  V30 23 1 21 24
M  V30 24 2 22 25
M  V30 25 1 23 26
M  V30 26 2 24 27
M  V30 27 1 24 28
M  V30 28 1 6 7
M  V30 29 2 11 12
M  V30 30 1 18 19
M  V30 31 1 25 27
M  V30 32 2 26 28
M  V30 33 1 3 29
M  V30 34 1 4 30
M  V30 35 1 5 31
M  V30 36 1 6 32
M  V30 37 1 9 33
M  V30 38 1 10 34
M  V30 39 1 12 35
M  V30 40 1 13 36
M  V30 41 1 13 37
M  V30 42 1 15 38
M  V30 43 1 15 39
M  V30 44 1 16 40
M  V30 45 1 16 41
M  V30 46 1 17 42
M  V30 47 1 17 43
M  V30 48 1 18 44
M  V30 49 1 18 45
M  V30 50 1 22 46
M  V30 51 1 25 47
M  V30 52 1 26 48
M  V30 53 1 27 49
M  V30 54 1 28 50
M  V30 END BOND
M  V30 END CTAB
M  END
>  <Column 1>
2073

>  <level_0>
2252

>  <index>
2252

>  <Unnamed: 0>
2252

>  <NO.>
2264

>  <Name>
elopiprazole

>  <IUPAC_name>
1-(1-benzofuran-7-yl)-4-[[5-(4-fluorophenyl)-1h-pyrrol-2-yl]methyl]piperazine

>  <SMILES>
Fc1ccc(-c2ccc(CN3CCN(c4cccc5ccoc45)CC3)[nH]2)cc1

>  <CID>
208917

>  <logBB>


>  <BBB+/BBB->
BBB+

>  <Inchi>
InChI=1S/C23H22FN3O/c24-19-6-4-17(5-7-19)21-9-8-20(25-21)16-26-11-13-27(14-12-26)22-3-1-2-18-10-15-28-23(18)22/h1-10-15-25H-11-14-16H2

>  <threshold>
-1

>  <reference>
R1|R13|R19|R6|R24|R27|R27|R27|R30|R30|

>  <group>
B

>  <Class>
1

>  <ABC>
22.58

>  <ABCGG>
16.38

>  <nAcid>
0

>  <nBase>
1

>  <nAromAtom>
20

>  <nAromBond>
21

>  <nAtom>
50

>  <nHeavyAtom>
28

>  <nSpiro>
0

>  <nBridgehead>
0

>  <nHetero>
5

>  <nN>
3

>  <nO>
1

>  <nF>
1

>  <BalabanJ>
1.06

>  <BertzCT>
1074.64

>  <nBonds>
54

>  <nBondsO>
32

>  <nBondsS>
33

>  <nBondsD>
0

>  <nBondsT>
0

>  <nBondsA>
21

>  <nBondsM>
21

>  <nBondsKS>
45

>  <nBondsKD>
9

>  <RNCG>
0.22

>  <RPCG>
0.08

>  <FCSP3>
0.22

>  <SZ>
33

>  <Sm>
31.26

>  <Sv>
32.6

>  <Sse>
50.04

>  <Sp>
34.57

>  <Si>
56.2

>  <MZ>
0.66

>  <Mm>
0.63

>  <Mv>
0.65

>  <Mse>
1

>  <Mp>
0.69

>  <Mi>
1.12

>  <NsCH3>
0

>  <NdCH2>
0

>  <NssCH2>
5

>  <NtCH>
0

>  <NdsCH>
0

>  <NaaCH>
11

>  <NsssCH>
0

>  <NddC>
0

>  <NtsC>
0

>  <NdssC>
0

>  <NaasC>
5

>  <NaaaC>
2

>  <NssssC>
0

>  <NsNH3>
0

>  <NsNH2>
0

>  <NssNH2>
0

>  <NdNH>
0

>  <NssNH>
0

>  <NaaNH>
1

>  <NtN>
0

>  <NsssNH>
0

>  <NdsN>
0

>  <NaaN>
0

>  <NsssN>
2

>  <NddsN>
0

>  <NaasN>
0

>  <NssssN>
0

>  <NsOH>
0

>  <NdO>
0

>  <NssO>
0

>  <NaaO>
1

>  <NsF>
1

>  <NsSiH3>
0

>  <NssSiH2>
0

>  <NsssSiH>
0

>  <NssssSi>
0

>  <NsPH2>
0

>  <NssPH>
0

>  <NsssP>
0

>  <NdsssP>
0

>  <NsssssP>
0

>  <NsSH>
0

>  <NdS>
0

>  <NssS>
0

>  <NaaS>
0

>  <NdssS>
0

>  <NddssS>
0

>  <NsCl>
0

>  <NsBr>
0

>  <NsI>
0

>  <fragCpx>
268.05

>  <fMF>
0.54

>  <nHBAcc>
3

>  <nHBDon>
1

>  <Kier1>
19.93

>  <Kier2>
9.01

>  <Lipinski>
1

>  <GhoseFilter>
1

>  <FilterItLogS>
-6.27

>  <VMcGowan>
279.5

>  <LabuteASA>
162.73

>  <PEOE_VSA1>
14.3

>  <PEOE_VSA2>
4.9

>  <PEOE_VSA3>
4.39

>  <PEOE_VSA4>
0

>  <PEOE_VSA5>
0

>  <PEOE_VSA6>
12.13

>  <PEOE_VSA7>
54.09

>  <PEOE_VSA8>
49.5

>  <PEOE_VSA9>
11.95

>  <PEOE_VSA10>
5.82

>  <PEOE_VSA11>
5.58

>  <PEOE_VSA12>
0

>  <PEOE_VSA13>
0

>  <SMR_VSA1>
8.81

>  <SMR_VSA2>
0

>  <SMR_VSA3>
9.88

>  <SMR_VSA4>
0

>  <SMR_VSA5>
6.54

>  <SMR_VSA6>
31.08

>  <SMR_VSA7>
78.44

>  <SMR_VSA8>
0

>  <SMR_VSA9>
11.26

>  <SlogP_VSA1>
4.9

>  <SlogP_VSA2>
36.06

>  <SlogP_VSA3>
6.54

>  <SlogP_VSA4>
5.82

>  <SlogP_VSA5>
5.69

>  <SlogP_VSA6>
71.34

>  <SlogP_VSA7>
0

>  <SlogP_VSA8>
22.23

>  <SlogP_VSA9>
0

>  <SlogP_VSA10>
10.08

>  <SlogP_VSA11>
0

>  <EState_VSA1>
0

>  <EState_VSA2>
5.82

>  <EState_VSA3>
0

>  <EState_VSA4>
54.95

>  <EState_VSA5>
23.51

>  <EState_VSA6>
18.4

>  <EState_VSA7>
6.07

>  <EState_VSA8>
45.12

>  <EState_VSA9>
4.42

>  <EState_VSA10>
4.39

>  <VSA_EState1>
18.81

>  <VSA_EState2>
8.33

>  <VSA_EState3>
1.15

>  <VSA_EState4>
5.37

>  <VSA_EState5>
-0.21

>  <VSA_EState6>
19.12

>  <VSA_EState7>
1.76

>  <VSA_EState8>
4.85

>  <VSA_EState9>
0

>  <apol>
57.74

>  <bpol>
28.91

>  <nRing>
5

>  <nHRing>
3

>  <naRing>
4

>  <naHRing>
2

>  <nARing 2>
1

>  <nAHRing 2>
1

>  <nFRing>
1

>  <nFHRing>
1

>  <nFaRing>
1

>  <nFaHRing>
1

>  <nFARing 2>
0

>  <nFAHRing 2>
0

>  <nRot>
4

>  <SLogP>
4.89

>  <SMR>
109.89

>  <TopoPSA(NO)>
35.41

>  <TopoPSA>
35.41

>  <JGI1>
0.16

>  <JGI2>
0.07

>  <JGI3>
0.03

>  <JGI4>
0.03

>  <JGI5>
0.02

>  <Diameter>
16

>  <Radius>
8

>  <TMWC10>
136.91

>  <TSRW10>
79.18

>  <MW>
375.17

>  <AMW>
7.5

>  <WPath>
2375

>  <WPol>
42

>  <Zagreb1>
154

>  <Zagreb2>
183

>  <mZagreb2>
6.03

>  <yes>


>  <nAR-cont>
0.816016

>  <nHA-cont>
0.82432561

>  <MWHBN>
0.206512308

>  <MWHBN-cont>
0.999894223

>  <TPSA-cont>
0.752816212

>  <pka_cont>
0.97

>  <yes.1>


>  <BBB_SCORE>
5.130815369

>  <MMFF94 Energy>
121.69

$$$$
Compound 1704
Actelion Java MolfileCreator 2.0

  0  0  0  0  0  0              0 V3000
M  V30 BEGIN CTAB
M  V30 COUNTS 43 46 0 0 0
M  V30 BEGIN ATOM
M  V30 1 F 1.2003 5.6111 2.0012 0
M  V30 2 C 0.0462 4.9885 1.7229 0
M  V30 3 C 0.0651 3.6244 1.4335 0
M  V30 4 C -1.1353 5.719 1.7312 0
M  V30 5 C -1.1507 2.9766 1.1431 0
M  V30 6 C -2.3551 5.0998 1.4463 0
M  V30 7 C -2.3327 3.7286 1.1574 0
M  V30 8 C -1.5093 1.638 0.8128 0
M  V30 9 N -3.3693 2.8731 0.8443 0
M  V30 10 C -2.8776 1.6175 0.6502 0
M  V30 11 C -0.6522 0.4162 0.6777 0
M  V30 12 C -3.6544 0.4092 0.28 0
M  V30 13 N -1.3807 -0.6542 -0.0576 0
M  V30 14 C -2.7564 -0.8394 0.4784 0
M  V30 15 C -0.6494 -1.9309 -0.0173 0
M  V30 16 C 0.6952 -1.8826 -0.7551 0
M  V30 17 C 1.3326 -3.2736 -0.8171 0
M  V30 18 C 2.6649 -3.2481 -1.5131 0
M  V30 19 C 2.7577 -3.3786 -2.8958 0
M  V30 20 C 3.8542 -3.0644 -0.8037 0
M  V30 21 N 3.9206 -3.3521 -3.5851 0
M  V30 22 C 5.0662 -3.0306 -1.487 0
M  V30 23 C 5.048 -3.1786 -2.8638 0
M  V30 24 H 1.0063 3.0867 1.4332 0
M  V30 25 H -1.1013 6.7798 1.961 0
M  V30 26 H -3.2814 5.6651 1.4497 0
M  V30 27 H -4.3393 3.1472 0.7691 0
M  V30 28 H -0.3655 0.0751 1.6806 0
M  V30 29 H 0.2555 0.6912 0.1302 0
M  V30 30 H -4.5587 0.3185 0.891 0
M  V30 31 H -3.9575 0.4823 -0.7711 0
M  V30 32 H -2.7077 -1.0913 1.547 0
M  V30 33 H -3.2491 -1.6793 -0.0271 0
M  V30 34 H -1.2622 -2.7011 -0.5036 0
M  V30 35 H -0.4944 -2.2567 1.0196 0
M  V30 36 H 1.3844 -1.1957 -0.2496 0
M  V30 37 H 0.546 -1.497 -1.7719 0
M  V30 38 H 1.4595 -3.6751 0.1964 0
M  V30 39 H 0.6659 -3.9733 -1.337 0
M  V30 40 H 1.8708 -3.5112 -3.5103 0
M  V30 41 H 3.843 -2.9461 0.2766 0
M  V30 42 H 6.0025 -2.8905 -0.959 0
M  V30 43 H 5.9679 -3.159 -3.4409 0
M  V30 END ATOM
M  V30 BEGIN BOND
M  V30 1 1 1 2
M  V30 2 2 2 3
M  V30 3 1 2 4
M  V30 4 1 3 5
M  V30 5 2 4 6
M  V30 6 2 5 7
M  V30 7 1 5 8
M  V30 8 1 7 9
M  V30 9 2 8 10
M  V30 10 1 8 11
M  V30 11 1 10 12
M  V30 12 1 11 13
M  V30 13 1 12 14
M  V30 14 1 13 15
M  V30 15 1 15 16
M  V30 16 1 16 17
M  V30 17 1 17 18
M  V30 18 2 18 19
M  V30 19 1 18 20
M  V30 20 1 19 21
M  V30 21 2 20 22
M  V30 22 2 21 23
M  V30 23 1 6 7
M  V30 24 1 9 10
M  V30 25 1 13 14
M  V30 26 1 22 23
M  V30 27 1 3 24
M  V30 28 1 4 25
M  V30 29 1 6 26
M  V30 30 1 9 27
M  V30 31 1 11 28
M  V30 32 1 11 29
M  V30 33 1 12 30
M  V30 34 1 12 31
M  V30 35 1 14 32
M  V30 36 1 14 33
M  V30 37 1 15 34
M  V30 38 1 15 35
M  V30 39 1 16 36
M  V30 40 1 16 37
M  V30 41 1 17 38
M  V30 42 1 17 39
M  V30 43 1 19 40
M  V30 44 1 20 41
M  V30 45 1 22 42
M  V30 46 1 23 43
M  V30 END BOND
M  V30 END CTAB
M  END
>  <Column 1>
2075

>  <level_0>
2255

>  <index>
2255

>  <Unnamed: 0>
2255

>  <NO.>
2267

>  <Name>
gevotroline

>  <IUPAC_name>
8-fluoro-2-(3-pyridin-3-ylpropyl)-1-3-4-5-tetrahydropyrido[4-3-b]indole

>  <SMILES>
Fc1ccc2[nH]c3c(c2c1)CN(CCCc1cccnc1)CC3

>  <CID>
60547

>  <logBB>


>  <BBB+/BBB->
BBB+

>  <Inchi>
InChI=1S/C19H20FN3/c20-15-5-6-18-16(11-15)17-13-23(10-7-19(17)22-18)9-2-4-14-3-1-8-21-12-14/h1-3-5-6-8-11-12-22H-2-4-7-9-10-13H2

>  <threshold>
-1

>  <reference>
R1|R13|R19|R6|R24|R27|R27|R27|R30|R30|

>  <group>
B

>  <Class>
1

>  <ABC>
18.37

>  <ABCGG>
13.6

>  <nAcid>
0

>  <nBase>
1

>  <nAromAtom>
15

>  <nAromBond>
16

>  <nAtom>
43

>  <nHeavyAtom>
23

>  <nSpiro>
0

>  <nBridgehead>
0

>  <nHetero>
4

>  <nN>
3

>  <nO>
0

>  <nF>
1

>  <BalabanJ>
1.24

>  <BertzCT>
810.1

>  <nBonds>
46

>  <nBondsO>
26

>  <nBondsS>
30

>  <nBondsD>
0

>  <nBondsT>
0

>  <nBondsA>
16

>  <nBondsM>
16

>  <nBondsKS>
39

>  <nBondsKD>
7

>  <RNCG>
0.26

>  <RPCG>
0.12

>  <FCSP3>
0.32

>  <SZ>
27.33

>  <Sm>
25.76

>  <Sv>
27.34

>  <Sse>
42.82

>  <Sp>
29.3

>  <Si>
48.57

>  <MZ>
0.64

>  <Mm>
0.6

>  <Mv>
0.64

>  <Mse>
1

>  <Mp>
0.68

>  <Mi>
1.13

>  <NsCH3>
0

>  <NdCH2>
0

>  <NssCH2>
6

>  <NtCH>
0

>  <NdsCH>
0

>  <NaaCH>
7

>  <NsssCH>
0

>  <NddC>
0

>  <NtsC>
0

>  <NdssC>
0

>  <NaasC>
4

>  <NaaaC>
2

>  <NssssC>
0

>  <NsNH3>
0

>  <NsNH2>
0

>  <NssNH2>
0

>  <NdNH>
0

>  <NssNH>
0

>  <NaaNH>
1

>  <NtN>
0

>  <NsssNH>
0

>  <NdsN>
0

>  <NaaN>
1

>  <NsssN>
1

>  <NddsN>
0

>  <NaasN>
0

>  <NssssN>
0

>  <NsOH>
0

>  <NdO>
0

>  <NssO>
0

>  <NaaO>
0

>  <NsF>
1

>  <NsSiH3>
0

>  <NssSiH2>
0

>  <NsssSiH>
0

>  <NssssSi>
0

>  <NsPH2>
0

>  <NssPH>
0

>  <NsssP>
0

>  <NdsssP>
0

>  <NsssssP>
0

>  <NsSH>
0

>  <NdS>
0

>  <NssS>
0

>  <NaaS>
0

>  <NdssS>
0

>  <NddssS>
0

>  <NsCl>
0

>  <NsBr>
0

>  <NsI>
0

>  <fragCpx>
170.04

>  <fMF>
0.51

>  <nHBAcc>
2

>  <nHBDon>
1

>  <Kier1>
16.47

>  <Kier2>
7.49

>  <Lipinski>
1

>  <GhoseFilter>
1

>  <FilterItLogS>
-6.01

>  <VMcGowan>
236.73

>  <LabuteASA>
134.71

>  <PEOE_VSA1>
4.98

>  <PEOE_VSA2>
9.88

>  <PEOE_VSA3>
4.39

>  <PEOE_VSA4>
0

>  <PEOE_VSA5>
0

>  <PEOE_VSA6>
6.07

>  <PEOE_VSA7>
54.78

>  <PEOE_VSA8>
48.5

>  <PEOE_VSA9>
0

>  <PEOE_VSA10>
5.82

>  <PEOE_VSA11>
0

>  <PEOE_VSA12>
0

>  <PEOE_VSA13>
0

>  <SMR_VSA1>
4.39

>  <SMR_VSA2>
0

>  <SMR_VSA3>
14.87

>  <SMR_VSA4>
0

>  <SMR_VSA5>
25.81

>  <SMR_VSA6>
13.09

>  <SMR_VSA7>
65.36

>  <SMR_VSA8>
0

>  <SMR_VSA9>
0

>  <SlogP_VSA1>
0

>  <SlogP_VSA2>
27.96

>  <SlogP_VSA3>
19.39

>  <SlogP_VSA4>
5.82

>  <SlogP_VSA5>
23.24

>  <SlogP_VSA6>
42.73

>  <SlogP_VSA7>
0

>  <SlogP_VSA8>
10.9

>  <SlogP_VSA9>
0

>  <SlogP_VSA10>
4.39

>  <SlogP_VSA11>
0

>  <EState_VSA1>
0

>  <EState_VSA2>
5.82

>  <EState_VSA3>
0

>  <EState_VSA4>
49.8

>  <EState_VSA5>
22.89

>  <EState_VSA6>
6.07

>  <EState_VSA7>
24.53

>  <EState_VSA8>
20.93

>  <EState_VSA9>
0

>  <EState_VSA10>
4.39

>  <VSA_EState1>
13.54

>  <VSA_EState2>
10.08

>  <VSA_EState3>
1.04

>  <VSA_EState4>
4.88

>  <VSA_EState5>
-0.16

>  <VSA_EState6>
9.14

>  <VSA_EState7>
6.94

>  <VSA_EState8>
3.04

>  <VSA_EState9>
0

>  <apol>
48.92

>  <bpol>
24.6

>  <nRing>
4

>  <nHRing>
3

>  <naRing>
3

>  <naHRing>
2

>  <nARing 2>
1

>  <nAHRing 2>
1

>  <nFRing>
1

>  <nFHRing>
1

>  <nFaRing>
0

>  <nFaHRing>
0

>  <nFARing 2>
1

>  <nFAHRing 2>
1

>  <nRot>
4

>  <SLogP>
3.69

>  <SMR>
89.8

>  <TopoPSA(NO)>
31.92

>  <TopoPSA>
31.92

>  <JGI1>
0.15

>  <JGI2>
0.06

>  <JGI3>
0.04

>  <JGI4>
0.03

>  <JGI5>
0.03

>  <Diameter>
13

>  <Radius>
7

>  <TMWC10>
124

>  <TSRW10>
71.79

>  <MW>
309.16

>  <AMW>
7.19

>  <WPath>
1326

>  <WPol>
34

>  <Zagreb1>
124

>  <Zagreb2>
146

>  <mZagreb2>
5

>  <yes>


>  <nAR-cont>
0.816016

>  <nHA-cont>
0.967789328

>  <MWHBN>
0.170619869

>  <MWHBN-cont>
0.974924726

>  <TPSA-cont>
0.777178579

>  <pka_cont>
0.97

>  <yes.1>


>  <BBB_SCORE>
5.285549575

>  <MMFF94 Energy>
60.416

$$$$
Compound 1705
Actelion Java MolfileCreator 2.0

  0  0  0  0  0  0              0 V3000
M  V30 BEGIN CTAB
M  V30 COUNTS 40 43 0 0 0
M  V30 BEGIN ATOM
M  V30 1 F -4.8979 -1.4434 3.7722 0
M  V30 2 C -4.6496 -1.2845 2.4646 0
M  V30 3 C -3.3803 -0.8703 2.0619 0
M  V30 4 C -5.6625 -1.5369 1.5483 0
M  V30 5 C -3.126 -0.7057 0.687 0
M  V30 6 C -5.4358 -1.3815 0.1783 0
M  V30 7 C -4.1587 -0.9665 -0.223 0
M  V30 8 C -1.9882 -0.31 -0.0726 0
M  V30 9 N -3.6614 -0.7344 -1.4893 0
M  V30 10 C -2.3563 -0.3526 -1.4011 0
M  V30 11 C -0.6082 0.0623 0.3772 0
M  V30 12 C -1.4615 0.012 -2.5301 0
M  V30 13 N 0.0928 0.7892 -0.7077 0
M  V30 14 C -0.0012 0.0893 -2.0084 0
M  V30 15 C 1.4683 1.1537 -0.341 0
M  V30 16 C 2.4798 0.0024 -0.1916 0
M  V30 17 C 3.8487 0.5117 0.19 0
M  V30 18 C 4.773 0.8811 -0.7905 0
M  V30 19 C 4.2117 0.6504 1.5322 0
M  V30 20 C 6.0115 1.3591 -0.3899 0
M  V30 21 C 5.4745 1.1383 1.8321 0
M  V30 22 N 6.3837 1.4952 0.9004 0
M  V30 23 H -2.6147 -0.6798 2.8054 0
M  V30 24 H -6.6359 -1.8565 1.9084 0
M  V30 25 H -6.2231 -1.576 -0.5424 0
M  V30 26 H -4.1934 -0.8309 -2.3432 0
M  V30 27 H -0.6761 0.7035 1.2637 0
M  V30 28 H -0.0783 -0.856 0.6538 0
M  V30 29 H -1.5295 -0.7216 -3.3401 0
M  V30 30 H -1.7626 0.989 -2.9268 0
M  V30 31 H 0.5966 0.6108 -2.7658 0
M  V30 32 H 0.4018 -0.9282 -1.9205 0
M  V30 33 H 1.437 1.7346 0.5908 0
M  V30 34 H 1.8415 1.8606 -1.0945 0
M  V30 35 H 2.1475 -0.7141 0.5684 0
M  V30 36 H 2.5646 -0.5635 -1.127 0
M  V30 37 H 4.54 0.8016 -1.8471 0
M  V30 38 H 3.53 0.3861 2.3339 0
M  V30 39 H 6.7591 1.6555 -1.1201 0
M  V30 40 H 5.7967 1.2596 2.8624 0
M  V30 END ATOM
M  V30 BEGIN BOND
M  V30 1 1 1 2
M  V30 2 2 2 3
M  V30 3 1 2 4
M  V30 4 1 3 5
M  V30 5 2 4 6
M  V30 6 2 5 7
M  V30 7 1 5 8
M  V30 8 1 7 9
M  V30 9 2 8 10
M  V30 10 1 8 11
M  V30 11 1 10 12
M  V30 12 1 11 13
M  V30 13 1 12 14
M  V30 14 1 13 15
M  V30 15 1 15 16
M  V30 16 1 16 17
M  V30 17 2 17 18
M  V30 18 1 17 19
M  V30 19 1 18 20
M  V30 20 2 19 21
M  V30 21 2 20 22
M  V30 22 1 6 7
M  V30 23 1 9 10
M  V30 24 1 13 14
M  V30 25 1 21 22
M  V30 26 1 3 23
M  V30 27 1 4 24
M  V30 28 1 6 25
M  V30 29 1 9 26
M  V30 30 1 11 27
M  V30 31 1 11 28
M  V30 32 1 12 29
M  V30 33 1 12 30
M  V30 34 1 14 31
M  V30 35 1 14 32
M  V30 36 1 15 33
M  V30 37 1 15 34
M  V30 38 1 16 35
M  V30 39 1 16 36
M  V30 40 1 18 37
M  V30 41 1 19 38
M  V30 42 1 20 39
M  V30 43 1 21 40
M  V30 END BOND
M  V30 END CTAB
M  END
>  <Column 1>
2076

>  <level_0>
2256

>  <index>
2256

>  <Unnamed: 0>
2256

>  <NO.>
2268

>  <Name>
carvotroline

>  <IUPAC_name>
8-fluoro-2-(2-pyridin-4-ylethyl)-1-3-4-5-tetrahydropyrido[4-3-b]indole

>  <SMILES>
Fc1ccc2[nH]c3c(c2c1)CN(CCc1ccncc1)CC3

>  <CID>
72038

>  <logBB>


>  <BBB+/BBB->
BBB+

>  <Inchi>
InChI=1S/C18H18FN3/c19-14-1-2-17-15(11-14)16-12-22(10-6-18(16)21-17)9-5-13-3-7-20-8-4-13/h1-4-7-8-11-21H-5-6-9-10-12H2

>  <threshold>
-1

>  <reference>
R1|R13|R19|R6|R24|R27|R27|R27|R30|R30|

>  <group>
B

>  <Class>
1

>  <ABC>
17.67

>  <ABCGG>
13.25

>  <nAcid>
0

>  <nBase>
1

>  <nAromAtom>
15

>  <nAromBond>
16

>  <nAtom>
40

>  <nHeavyAtom>
22

>  <nSpiro>
0

>  <nBridgehead>
0

>  <nHetero>
4

>  <nN>
3

>  <nO>
0

>  <nF>
1

>  <BalabanJ>
1.3

>  <BertzCT>
794.7

>  <nBonds>
43

>  <nBondsO>
25

>  <nBondsS>
27

>  <nBondsD>
0

>  <nBondsT>
0

>  <nBondsA>
16

>  <nBondsM>
16

>  <nBondsKS>
36

>  <nBondsKD>
7

>  <RNCG>
0.27

>  <RPCG>
0.12

>  <FCSP3>
0.28

>  <SZ>
26

>  <Sm>
24.59

>  <Sv>
25.8

>  <Sse>
39.94

>  <Sp>
27.5

>  <Si>
45.16

>  <MZ>
0.65

>  <Mm>
0.61

>  <Mv>
0.64

>  <Mse>
1

>  <Mp>
0.69

>  <Mi>
1.13

>  <NsCH3>
0

>  <NdCH2>
0

>  <NssCH2>
5

>  <NtCH>
0

>  <NdsCH>
0

>  <NaaCH>
7

>  <NsssCH>
0

>  <NddC>
0

>  <NtsC>
0

>  <NdssC>
0

>  <NaasC>
4

>  <NaaaC>
2

>  <NssssC>
0

>  <NsNH3>
0

>  <NsNH2>
0

>  <NssNH2>
0

>  <NdNH>
0

>  <NssNH>
0

>  <NaaNH>
1

>  <NtN>
0

>  <NsssNH>
0

>  <NdsN>
0

>  <NaaN>
1

>  <NsssN>
1

>  <NddsN>
0

>  <NaasN>
0

>  <NssssN>
0

>  <NsOH>
0

>  <NdO>
0

>  <NssO>
0

>  <NaaO>
0

>  <NsF>
1

>  <NsSiH3>
0

>  <NssSiH2>
0

>  <NsssSiH>
0

>  <NssssSi>
0

>  <NsPH2>
0

>  <NssPH>
0

>  <NsssP>
0

>  <NdsssP>
0

>  <NsssssP>
0

>  <NsSH>
0

>  <NdS>
0

>  <NssS>
0

>  <NaaS>
0

>  <NdssS>
0

>  <NddssS>
0

>  <NsCl>
0

>  <NsBr>
0

>  <NsI>
0

>  <fragCpx>
163.04

>  <fMF>
0.53

>  <nHBAcc>
2

>  <nHBDon>
1

>  <Kier1>
15.52

>  <Kier2>
6.86

>  <Lipinski>
1

>  <GhoseFilter>
1

>  <FilterItLogS>
-5.61

>  <VMcGowan>
222.64

>  <LabuteASA>
128.34

>  <PEOE_VSA1>
4.98

>  <PEOE_VSA2>
9.88

>  <PEOE_VSA3>
4.39

>  <PEOE_VSA4>
0

>  <PEOE_VSA5>
0

>  <PEOE_VSA6>
0

>  <PEOE_VSA7>
47.88

>  <PEOE_VSA8>
55.05

>  <PEOE_VSA9>
0

>  <PEOE_VSA10>
5.82

>  <PEOE_VSA11>
0

>  <PEOE_VSA12>
0

>  <PEOE_VSA13>
0

>  <SMR_VSA1>
4.39

>  <SMR_VSA2>
0

>  <SMR_VSA3>
14.87

>  <SMR_VSA4>
0

>  <SMR_VSA5>
19.39

>  <SMR_VSA6>
13.09

>  <SMR_VSA7>
65.36

>  <SMR_VSA8>
0

>  <SMR_VSA9>
0

>  <SlogP_VSA1>
0

>  <SlogP_VSA2>
27.96

>  <SlogP_VSA3>
19.39

>  <SlogP_VSA4>
5.82

>  <SlogP_VSA5>
16.82

>  <SlogP_VSA6>
42.73

>  <SlogP_VSA7>
0

>  <SlogP_VSA8>
10.9

>  <SlogP_VSA9>
0

>  <SlogP_VSA10>
4.39

>  <SlogP_VSA11>
0

>  <EState_VSA1>
0

>  <EState_VSA2>
5.82

>  <EState_VSA3>
0

>  <EState_VSA4>
43.38

>  <EState_VSA5>
22.89

>  <EState_VSA6>
6.07

>  <EState_VSA7>
18.46

>  <EState_VSA8>
27

>  <EState_VSA9>
0

>  <EState_VSA10>
4.39

>  <VSA_EState1>
13.52

>  <VSA_EState2>
9.93

>  <VSA_EState3>
1.03

>  <VSA_EState4>
4.88

>  <VSA_EState5>
-0.16

>  <VSA_EState6>
9.14

>  <VSA_EState7>
5.7

>  <VSA_EState8>
2.96

>  <VSA_EState9>
0

>  <apol>
45.92

>  <bpol>
22.59

>  <nRing>
4

>  <nHRing>
3

>  <naRing>
3

>  <naHRing>
2

>  <nARing 2>
1

>  <nAHRing 2>
1

>  <nFRing>
1

>  <nFHRing>
1

>  <nFaRing>
0

>  <nFaHRing>
0

>  <nFARing 2>
1

>  <nFAHRing 2>
1

>  <nRot>
3

>  <SLogP>
3.3

>  <SMR>
85.18

>  <TopoPSA(NO)>
31.92

>  <TopoPSA>
31.92

>  <JGI1>
0.16

>  <JGI2>
0.06

>  <JGI3>
0.04

>  <JGI4>
0.04

>  <JGI5>
0.02

>  <Diameter>
12

>  <Radius>
6

>  <TMWC10>
121.87

>  <TSRW10>
70.67

>  <MW>
295.15

>  <AMW>
7.38

>  <WPath>
1124

>  <WPol>
33

>  <Zagreb1>
120

>  <Zagreb2>
142

>  <mZagreb2>
4.75

>  <yes>


>  <nAR-cont>
0.816016

>  <nHA-cont>
0.983774276

>  <MWHBN>
0.174622363

>  <MWHBN-cont>
0.980667055

>  <TPSA-cont>
0.777178579

>  <pka_cont>
0.97

>  <yes.1>


>  <BBB_SCORE>
5.310148016

>  <MMFF94 Energy>
71.458

$$$$
Compound 1706
Actelion Java MolfileCreator 2.0

  0  0  0  0  0  0              0 V3000
M  V30 BEGIN CTAB
M  V30 COUNTS 23 24 0 0 0
M  V30 BEGIN ATOM
M  V30 1 Br 0.5684 0.2436 -3.6587 0
M  V30 2 C 1.5712 0.2354 -2.0394 0
M  V30 3 C 0.9723 -0.1352 -0.8193 0
M  V30 4 C 2.9188 0.6129 -2.1113 0
M  V30 5 N -0.3982 -0.4578 -0.771 0
M  V30 6 C 1.7931 -0.1214 0.3198 0
M  V30 7 C 3.7011 0.6267 -0.9589 0
M  V30 8 C -1.264 -0.1802 0.2339 0
M  V30 9 F 1.331 -0.5502 1.5045 0
M  V30 10 C 3.1368 0.2533 0.2568 0
M  V30 11 N -1.1291 0.6456 1.2307 0
M  V30 12 N -2.4484 -0.8369 0.1532 0
M  V30 13 C -2.4123 0.5569 1.9803 0
M  V30 14 C -3.2454 -0.5422 1.3122 0
M  V30 15 H 3.3634 0.9019 -3.0606 0
M  V30 16 H -0.8065 -0.7101 -1.659 0
M  V30 17 H 4.7464 0.9207 -1.0087 0
M  V30 18 H 3.7319 0.2404 1.1651 0
M  V30 19 H -2.5439 -1.7132 -0.3355 0
M  V30 20 H -2.9262 1.5231 1.9313 0
M  V30 21 H -2.2186 0.3224 3.032 0
M  V30 22 H -3.3334 -1.421 1.9584 0
M  V30 23 H -4.2447 -0.1898 1.0416 0
M  V30 END ATOM
M  V30 BEGIN BOND
M  V30 1 1 1 2
M  V30 2 2 2 3
M  V30 3 1 2 4
M  V30 4 1 3 5
M  V30 5 1 3 6
M  V30 6 2 4 7
M  V30 7 1 5 8
M  V30 8 1 6 9
M  V30 9 2 6 10
M  V30 10 2 8 11
M  V30 11 1 8 12
M  V30 12 1 11 13
M  V30 13 1 12 14
M  V30 14 1 7 10
M  V30 15 1 13 14
M  V30 16 1 4 15
M  V30 17 1 5 16
M  V30 18 1 7 17
M  V30 19 1 10 18
M  V30 20 1 12 19
M  V30 21 1 13 20
M  V30 22 1 13 21
M  V30 23 1 14 22
M  V30 24 1 14 23
M  V30 END BOND
M  V30 END CTAB
M  END
>  <Column 1>
2077

>  <level_0>
2257

>  <index>
2257

>  <Unnamed: 0>
2257

>  <NO.>
2269

>  <Name>
romifidine

>  <IUPAC_name>
n-(2-bromo-6-fluorophenyl)-4-5-dihydro-1h-imidazol-2-amine

>  <SMILES>
Fc1cccc(Br)c1NC1=NCCN1

>  <CID>
71969

>  <logBB>


>  <BBB+/BBB->
BBB+

>  <Inchi>
InChI=1S/C9H9BrFN3/c10-6-2-1-3-7(11)8(6)14-9-12-4-5-13-9/h1-3H-4-5H2-(H2-12-13-14)

>  <threshold>
-1

>  <reference>
R1|R13|R19|R6|R24|R27|R27|R27|R30|R30|

>  <group>
B

>  <Class>
1

>  <ABC>
10.74

>  <ABCGG>
9.87

>  <nAcid>
0

>  <nBase>
3

>  <nAromAtom>
6

>  <nAromBond>
6

>  <nAtom>
23

>  <nHeavyAtom>
14

>  <nSpiro>
0

>  <nBridgehead>
0

>  <nHetero>
5

>  <nN>
3

>  <nO>
0

>  <nF>
1

>  <BalabanJ>
1.86

>  <BertzCT>
358.07

>  <nBonds>
24

>  <nBondsO>
15

>  <nBondsS>
17

>  <nBondsD>
1

>  <nBondsT>
0

>  <nBondsA>
6

>  <nBondsM>
7

>  <nBondsKS>
20

>  <nBondsKD>
4

>  <RNCG>
0.27

>  <RPCG>
0.15

>  <FCSP3>
0.22

>  <SZ>
21.33

>  <Sm>
21.49

>  <Sv>
15.65

>  <Sse>
23.61

>  <Sp>
16.73

>  <Si>
26.34

>  <MZ>
0.93

>  <Mm>
0.93

>  <Mv>
0.68

>  <Mse>
1.03

>  <Mp>
0.73

>  <Mi>
1.15

>  <NsCH3>
0

>  <NdCH2>
0

>  <NssCH2>
2

>  <NtCH>
0

>  <NdsCH>
0

>  <NaaCH>
3

>  <NsssCH>
0

>  <NddC>
0

>  <NtsC>
0

>  <NdssC>
1

>  <NaasC>
3

>  <NaaaC>
0

>  <NssssC>
0

>  <NsNH3>
0

>  <NsNH2>
0

>  <NssNH2>
0

>  <NdNH>
0

>  <NssNH>
2

>  <NaaNH>
0

>  <NtN>
0

>  <NsssNH>
0

>  <NdsN>
1

>  <NaaN>
0

>  <NsssN>
0

>  <NddsN>
0

>  <NaasN>
0

>  <NssssN>
0

>  <NsOH>
0

>  <NdO>
0

>  <NssO>
0

>  <NaaO>
0

>  <NsF>
1

>  <NsSiH3>
0

>  <NssSiH2>
0

>  <NsssSiH>
0

>  <NssssSi>
0

>  <NsPH2>
0

>  <NssPH>
0

>  <NsssP>
0

>  <NdsssP>
0

>  <NsssssP>
0

>  <NsSH>
0

>  <NdS>
0

>  <NssS>
0

>  <NaaS>
0

>  <NdssS>
0

>  <NddssS>
0

>  <NsCl>
0

>  <NsBr>
1

>  <NsI>
0

>  <fragCpx>
43.05

>  <fMF>
0.52

>  <nHBAcc>
3

>  <nHBDon>
2

>  <Kier1>
10.52

>  <Kier2>
4.68

>  <Lipinski>
1

>  <GhoseFilter>
1

>  <FilterItLogS>
-4.05

>  <VMcGowan>
147.95

>  <LabuteASA>
89.55

>  <PEOE_VSA1>
10.63

>  <PEOE_VSA2>
4.99

>  <PEOE_VSA3>
4.39

>  <PEOE_VSA4>
0

>  <PEOE_VSA5>
0

>  <PEOE_VSA6>
6.07

>  <PEOE_VSA7>
28.06

>  <PEOE_VSA8>
11.02

>  <PEOE_VSA9>
12.23

>  <PEOE_VSA10>
5.82

>  <PEOE_VSA11>
5.96

>  <PEOE_VSA12>
0

>  <PEOE_VSA13>
0

>  <SMR_VSA1>
4.39

>  <SMR_VSA2>
0

>  <SMR_VSA3>
5.32

>  <SMR_VSA4>
4.99

>  <SMR_VSA5>
0

>  <SMR_VSA6>
18.41

>  <SMR_VSA7>
28.49

>  <SMR_VSA8>
0

>  <SMR_VSA9>
0

>  <SlogP_VSA1>
10.63

>  <SlogP_VSA2>
19.05

>  <SlogP_VSA3>
0

>  <SlogP_VSA4>
5.82

>  <SlogP_VSA5>
0

>  <SlogP_VSA6>
27.66

>  <SlogP_VSA7>
0

>  <SlogP_VSA8>
0

>  <SlogP_VSA9>
0

>  <SlogP_VSA10>
10.08

>  <SlogP_VSA11>
0

>  <EState_VSA1>
0

>  <EState_VSA2>
5.82

>  <EState_VSA3>
16.12

>  <EState_VSA4>
13.09

>  <EState_VSA5>
6.07

>  <EState_VSA6>
12.13

>  <EState_VSA7>
0

>  <EState_VSA8>
31.56

>  <EState_VSA9>
0

>  <EState_VSA10>
4.39

>  <VSA_EState1>
14.02

>  <VSA_EState2>
4.12

>  <VSA_EState3>
5.91

>  <VSA_EState4>
0.42

>  <VSA_EState5>
0.33

>  <VSA_EState6>
4.83

>  <VSA_EState7>
0

>  <VSA_EState8>
1.53

>  <VSA_EState9>
0

>  <apol>
27.94

>  <bpol>
13.8

>  <nRing>
2

>  <nHRing>
1

>  <naRing>
1

>  <naHRing>
0

>  <nARing 2>
1

>  <nAHRing 2>
1

>  <nFRing>
0

>  <nFHRing>
0

>  <nFaRing>
0

>  <nFaHRing>
0

>  <nFARing 2>
0

>  <nFAHRing 2>
0

>  <nRot>
1

>  <SLogP>
1.96

>  <SMR>
58.03

>  <TopoPSA(NO)>
36.42

>  <TopoPSA>
36.42

>  <JGI1>
0.17

>  <JGI2>
0.08

>  <JGI3>
0.05

>  <JGI4>
0.05

>  <JGI5>
0.01

>  <Diameter>
7

>  <Radius>
4

>  <TMWC10>
97.55

>  <TSRW10>
58.5

>  <MW>
257

>  <AMW>
11.17

>  <WPath>
301

>  <WPol>
17

>  <Zagreb1>
70

>  <Zagreb2>
80

>  <mZagreb2>
3.14

>  <yes>


>  <nAR-cont>
0.816016

>  <nHA-cont>
0.887625254

>  <MWHBN>
0.311891431

>  <MWHBN-cont>
0.803817244

>  <TPSA-cont>
0.745765785

>  <pka_cont>
0.97

>  <yes.1>


>  <BBB_SCORE>
4.885898689

>  <MMFF94 Energy>
-17.486

$$$$
Compound 1707
Actelion Java MolfileCreator 2.0

  0  0  0  0  0  0              0 V3000
M  V30 BEGIN CTAB
M  V30 COUNTS 37 39 0 0 0
M  V30 BEGIN ATOM
M  V30 1 Cl -3.0422 3.8657 0.4107 0
M  V30 2 C -1.7212 2.8654 -0.0469 0
M  V30 3 C -1.3668 1.7802 0.7423 0
M  V30 4 C -1.0104 3.1451 -1.2052 0
M  V30 5 C -0.2874 0.9615 0.364 0
M  V30 6 C 0.0682 2.3329 -1.5732 0
M  V30 7 C 0.0143 -0.2101 1.2393 0
M  V30 8 C 0.4676 1.2236 -0.8025 0
M  V30 9 N 1.1913 -0.524 1.6705 0
M  V30 10 C -1.1183 -1.0847 1.6295 0
M  V30 11 N 1.54 0.4329 -1.2009 0
M  V30 12 C 2.3019 0.3236 1.2366 0
M  V30 13 C -1.3878 -1.3295 2.9751 0
M  V30 14 C -1.9108 -1.6751 0.6379 0
M  V30 15 C 2.6102 0.0726 -0.2422 0
M  V30 16 C 1.8483 0.2815 -2.6495 0
M  V30 17 F -0.6697 -0.7439 3.9441 0
M  V30 18 C -2.4482 -2.1553 3.3403 0
M  V30 19 C -2.9731 -2.5044 1.0048 0
M  V30 20 C 2.5909 -0.9969 -3.0712 0
M  V30 21 C -3.2416 -2.744 2.3543 0
M  V30 22 F 3.8505 -1.0337 -2.5793 0
M  V30 23 F 1.9502 -2.117 -2.6735 0
M  V30 24 F 2.6931 -1.0503 -4.4226 0
M  V30 25 H -1.9213 1.5779 1.6551 0
M  V30 26 H -1.2786 3.9969 -1.8249 0
M  V30 27 H 0.6135 2.6073 -2.4726 0
M  V30 28 H 3.1823 0.0477 1.8283 0
M  V30 29 H 2.1179 1.3837 1.4509 0
M  V30 30 H -1.6944 -1.5098 -0.4144 0
M  V30 31 H 3.5109 0.6411 -0.5038 0
M  V30 32 H 2.8448 -0.991 -0.3652 0
M  V30 33 H 0.9093 0.2908 -3.2174 0
M  V30 34 H 2.4395 1.1457 -2.9752 0
M  V30 35 H -2.6493 -2.332 4.3924 0
M  V30 36 H -3.5872 -2.9712 0.238 0
M  V30 37 H -4.0674 -3.3924 2.6379 0
M  V30 END ATOM
M  V30 BEGIN BOND
M  V30 1 1 1 2
M  V30 2 2 2 3
M  V30 3 1 2 4
M  V30 4 1 3 5
M  V30 5 2 4 6
M  V30 6 1 5 7
M  V30 7 2 5 8
M  V30 8 2 7 9
M  V30 9 1 7 10
M  V30 10 1 8 11
M  V30 11 1 9 12
M  V30 12 2 10 13
M  V30 13 1 10 14
M  V30 14 1 11 15
M  V30 15 1 11 16
M  V30 16 1 13 17
M  V30 17 1 13 18
M  V30 18 2 14 19
M  V30 19 1 16 20
M  V30 20 2 18 21
M  V30 21 1 20 22
M  V30 22 1 20 23
M  V30 23 1 20 24
M  V30 24 1 6 8
M  V30 25 1 12 15
M  V30 26 1 19 21
M  V30 27 1 3 25
M  V30 28 1 4 26
M  V30 29 1 6 27
M  V30 30 1 12 28
M  V30 31 1 12 29
M  V30 32 1 14 30
M  V30 33 1 15 31
M  V30 34 1 15 32
M  V30 35 1 16 33
M  V30 36 1 16 34
M  V30 37 1 18 35
M  V30 38 1 19 36
M  V30 39 1 21 37
M  V30 END BOND
M  V30 END CTAB
M  END
>  <Column 1>
2079

>  <level_0>
2259

>  <index>
2259

>  <Unnamed: 0>
2259

>  <NO.>
2271

>  <Name>
fletazepam

>  <IUPAC_name>
7-chloro-5-(2-fluorophenyl)-1-(2-2-2-trifluoroethyl)-2-3-dihydro-1-4-benzodiazepine

>  <SMILES>
Fc1ccccc1C1=NCCN(CC(F)(F)F)c2ccc(Cl)cc21

>  <CID>
36834

>  <logBB>


>  <BBB+/BBB->
BBB+

>  <Inchi>
InChI=1S/C17H13ClF4N2/c18-11-5-6-15-13(9-11)16(12-3-1-2-4-14(12)19)23-7-8-24(15)10-17(20-21)22/h1-6-9H-7-8-10H2

>  <threshold>
-1

>  <reference>
R1|R13|R19|R6|R24|R27|R27|R27|R30|R30|

>  <group>
B

>  <Class>
1

>  <ABC>
18.88

>  <ABCGG>
15.51

>  <nAcid>
0

>  <nBase>
0

>  <nAromAtom>
12

>  <nAromBond>
12

>  <nAtom>
37

>  <nHeavyAtom>
24

>  <nSpiro>
0

>  <nBridgehead>
0

>  <nHetero>
7

>  <nN>
2

>  <nO>
0

>  <nF>
4

>  <BalabanJ>
1.8

>  <BertzCT>
786.4

>  <nBonds>
39

>  <nBondsO>
26

>  <nBondsS>
26

>  <nBondsD>
1

>  <nBondsT>
0

>  <nBondsA>
12

>  <nBondsM>
13

>  <nBondsKS>
32

>  <nBondsKD>
7

>  <RNCG>
0.21

>  <RPCG>
0.23

>  <FCSP3>
0.24

>  <SZ>
30.33

>  <Sm>
29.7

>  <Sv>
25.71

>  <Sse>
38.69

>  <Sp>
26.15

>  <Si>
42.62

>  <MZ>
0.82

>  <Mm>
0.8

>  <Mv>
0.7

>  <Mse>
1.05

>  <Mp>
0.71

>  <Mi>
1.15

>  <NsCH3>
0

>  <NdCH2>
0

>  <NssCH2>
3

>  <NtCH>
0

>  <NdsCH>
0

>  <NaaCH>
7

>  <NsssCH>
0

>  <NddC>
0

>  <NtsC>
0

>  <NdssC>
1

>  <NaasC>
5

>  <NaaaC>
0

>  <NssssC>
1

>  <NsNH3>
0

>  <NsNH2>
0

>  <NssNH2>
0

>  <NdNH>
0

>  <NssNH>
0

>  <NaaNH>
0

>  <NtN>
0

>  <NsssNH>
0

>  <NdsN>
1

>  <NaaN>
0

>  <NsssN>
1

>  <NddsN>
0

>  <NaasN>
0

>  <NssssN>
0

>  <NsOH>
0

>  <NdO>
0

>  <NssO>
0

>  <NaaO>
0

>  <NsF>
4

>  <NsSiH3>
0

>  <NssSiH2>
0

>  <NsssSiH>
0

>  <NssssSi>
0

>  <NsPH2>
0

>  <NssPH>
0

>  <NsssP>
0

>  <NdsssP>
0

>  <NsssssP>
0

>  <NsSH>
0

>  <NdS>
0

>  <NssS>
0

>  <NaaS>
0

>  <NdssS>
0

>  <NddssS>
0

>  <NsCl>
1

>  <NsBr>
0

>  <NsI>
0

>  <fragCpx>
124.07

>  <fMF>
0.46

>  <nHBAcc>
2

>  <nHBDon>
0

>  <Kier1>
18.78

>  <Kier2>
7.71

>  <Lipinski>
1

>  <GhoseFilter>
1

>  <FilterItLogS>
-6.2

>  <VMcGowan>
226.95

>  <LabuteASA>
140.93

>  <PEOE_VSA1>
4.9

>  <PEOE_VSA2>
4.99

>  <PEOE_VSA3>
4.39

>  <PEOE_VSA4>
13.17

>  <PEOE_VSA5>
0

>  <PEOE_VSA6>
23.73

>  <PEOE_VSA7>
30.33

>  <PEOE_VSA8>
28.38

>  <PEOE_VSA9>
12.26

>  <PEOE_VSA10>
12.36

>  <PEOE_VSA11>
0

>  <PEOE_VSA12>
0

>  <PEOE_VSA13>
0

>  <SMR_VSA1>
17.56

>  <SMR_VSA2>
0

>  <SMR_VSA3>
0

>  <SMR_VSA4>
4.99

>  <SMR_VSA5>
6.18

>  <SMR_VSA6>
24.53

>  <SMR_VSA7>
64.43

>  <SMR_VSA8>
0

>  <SMR_VSA9>
0

>  <SlogP_VSA1>
4.9

>  <SlogP_VSA2>
31.52

>  <SlogP_VSA3>
0

>  <SlogP_VSA4>
5.82

>  <SlogP_VSA5>
11.13

>  <SlogP_VSA6>
47.46

>  <SlogP_VSA7>
5.02

>  <SlogP_VSA8>
0

>  <SlogP_VSA9>
0

>  <SlogP_VSA10>
23.25

>  <SlogP_VSA11>
0

>  <EState_VSA1>
18.54

>  <EState_VSA2>
18.65

>  <EState_VSA3>
21.99

>  <EState_VSA4>
0

>  <EState_VSA5>
29.17

>  <EState_VSA6>
18.2

>  <EState_VSA7>
0

>  <EState_VSA8>
4.99

>  <EState_VSA9>
11.6

>  <EState_VSA10>
17.56

>  <VSA_EState1>
52.76

>  <VSA_EState2>
5.52

>  <VSA_EState3>
0.35

>  <VSA_EState4>
1.3

>  <VSA_EState5>
-0.48

>  <VSA_EState6>
10.61

>  <VSA_EState7>
-4.35

>  <VSA_EState8>
-0.88

>  <VSA_EState9>
0

>  <apol>
43.67

>  <bpol>
20.85

>  <nRing>
3

>  <nHRing>
1

>  <naRing>
2

>  <naHRing>
0

>  <nARing 2>
1

>  <nAHRing 2>
1

>  <nFRing>
1

>  <nFHRing>
1

>  <nFaRing>
0

>  <nFaHRing>
0

>  <nFARing 2>
1

>  <nFAHRing 2>
1

>  <nRot>
2

>  <SLogP>
4.7

>  <SMR>
86.63

>  <TopoPSA(NO)>
15.6

>  <TopoPSA>
15.6

>  <JGI1>
0.23

>  <JGI2>
0.08

>  <JGI3>
0.05

>  <JGI4>
0.04

>  <JGI5>
0.03

>  <Diameter>
10

>  <Radius>
5

>  <TMWC10>
125.52

>  <TSRW10>
66.75

>  <MW>
356.07

>  <AMW>
9.62

>  <WPath>
1221

>  <WPol>
41

>  <Zagreb1>
128

>  <Zagreb2>
149

>  <mZagreb2>
5.1

>  <yes>


>  <nAR-cont>
0.816016

>  <nHA-cont>
0.94700071

>  <MWHBN>
0.105989368

>  <MWHBN-cont>
0.762909295

>  <TPSA-cont>
0.891102313

>  <pka_cont>
0.97

>  <yes.1>


>  <BBB_SCORE>
5.174585279

>  <MMFF94 Energy>
181.03

$$$$
Compound 1708
Actelion Java MolfileCreator 2.0

  0  0  0  0  0  0              0 V3000
M  V30 BEGIN CTAB
M  V30 COUNTS 66 69 0 0 0
M  V30 BEGIN ATOM
M  V30 1 O 0.3987 1.7552 3.3528 0
M  V30 2 C -0.2506 0.7339 3.5747 0
M  V30 3 N -1.3218 0.8149 4.4176 0
M  V30 4 C 0.1073 -0.6722 2.9846 0
M  V30 5 N 0.7987 -1.5189 4.0312 0
M  V30 6 C 1.0819 -0.4877 1.7882 0
M  V30 7 C -1.1575 -1.3629 2.414 0
M  V30 8 C 1.9291 -0.8394 4.6959 0
M  V30 9 C -0.0692 -2.1688 5.0216 0
M  V30 10 C 0.4324 0.1977 0.5809 0
M  V30 11 C -1.7401 -0.6249 1.2067 0
M  V30 12 C 2.7609 -1.817 5.5301 0
M  V30 13 C 0.7042 -3.1824 5.8713 0
M  V30 14 N -0.7599 -0.5256 0.1183 0
M  V30 15 C 1.9014 -2.5403 6.5558 0
M  V30 16 C -1.3757 0.123 -1.0575 0
M  V30 17 C -0.5812 -0.1509 -2.3529 0
M  V30 18 C -1.121 0.5771 -3.635 0
M  V30 19 C -2.5814 0.2515 -3.743 0
M  V30 20 C -0.3087 -0.0126 -4.832 0
M  V30 21 C -0.968 2.1252 -3.6176 0
M  V30 22 N -3.7126 -0.0082 -3.818 0
M  V30 23 C -0.8419 -0.9856 -5.7004 0
M  V30 24 C 1.0262 0.3902 -5.0501 0
M  V30 25 C -0.18 2.8129 -2.6759 0
M  V30 26 C -1.5978 2.8962 -4.6203 0
M  V30 27 C -0.082 -1.5115 -6.75 0
M  V30 28 C 1.7822 -0.1368 -6.1 0
M  V30 29 C -0.0575 4.2057 -2.7126 0
M  V30 30 C -1.4731 4.2872 -4.6555 0
M  V30 31 C 1.227 -1.086 -6.9509 0
M  V30 32 C -0.7065 4.942 -3.6983 0
M  V30 33 H -1.8738 0.0205 4.7012 0
M  V30 34 H -1.5345 1.7214 4.8129 0
M  V30 35 H 1.4633 -1.4687 1.471 0
M  V30 36 H 1.9566 0.1119 2.0636 0
M  V30 37 H -1.9541 -1.4463 3.1614 0
M  V30 38 H -0.9095 -2.3896 2.1091 0
M  V30 39 H 1.5707 -0.0318 5.3466 0
M  V30 40 H 2.6115 -0.3904 3.9692 0
M  V30 41 H -0.8726 -2.7315 4.5374 0
M  V30 42 H -0.5339 -1.4313 5.685 0
M  V30 43 H 0.1869 1.2401 0.8185 0
M  V30 44 H 1.1889 0.2284 -0.2102 0
M  V30 45 H -2.1052 0.3671 1.5021 0
M  V30 46 H -2.6119 -1.1962 0.8637 0
M  V30 47 H 3.5656 -1.2751 6.0401 0
M  V30 48 H 3.2388 -2.55 4.8678 0
M  V30 49 H 1.0457 -4.0087 5.2347 0
M  V30 50 H 0.0375 -3.6161 6.6255 0
M  V30 51 H 2.4932 -3.3021 7.0748 0
M  V30 52 H 1.5542 -1.828 7.3142 0
M  V30 53 H -1.5136 1.1943 -0.8757 0
M  V30 54 H -2.3788 -0.2991 -1.1933 0
M  V30 55 H 0.4789 0.0906 -2.2166 0
M  V30 56 H -0.6071 -1.2388 -2.5216 0
M  V30 57 H -1.8559 -1.3639 -5.5834 0
M  V30 58 H 1.4985 1.1269 -4.4029 0
M  V30 59 H 0.3667 2.2901 -1.896 0
M  V30 60 H -2.1937 2.4179 -5.3975 0
M  V30 61 H -0.5163 -2.2588 -7.4099 0
M  V30 62 H 2.8063 0.1952 -6.2507 0
M  V30 63 H 0.5516 4.7156 -1.9697 0
M  V30 64 H -1.9733 4.8566 -5.435 0
M  V30 65 H 1.8146 -1.4969 -7.7675 0
M  V30 66 H -0.6085 6.0241 -3.725 0
M  V30 END ATOM
M  V30 BEGIN BOND
M  V30 1 2 1 2
M  V30 2 1 2 3
M  V30 3 1 2 4
M  V30 4 1 4 5
M  V30 5 1 4 6
M  V30 6 1 4 7
M  V30 7 1 5 8
M  V30 8 1 5 9
M  V30 9 1 6 10
M  V30 10 1 7 11
M  V30 11 1 8 12
M  V30 12 1 9 13
M  V30 13 1 10 14
M  V30 14 1 12 15
M  V30 15 1 14 16
M  V30 16 1 16 17
M  V30 17 1 17 18
M  V30 18 1 18 19
M  V30 19 1 18 20
M  V30 20 1 18 21
M  V30 21 3 19 22
M  V30 22 2 20 23
M  V30 23 1 20 24
M  V30 24 2 21 25
M  V30 25 1 21 26
M  V30 26 1 23 27
M  V30 27 2 24 28
M  V30 28 1 25 29
M  V30 29 2 26 30
M  V30 30 2 27 31
M  V30 31 2 29 32
M  V30 32 1 11 14
M  V30 33 1 13 15
M  V30 34 1 28 31
M  V30 35 1 30 32
M  V30 36 1 3 33
M  V30 37 1 3 34
M  V30 38 1 6 35
M  V30 39 1 6 36
M  V30 40 1 7 37
M  V30 41 1 7 38
M  V30 42 1 8 39
M  V30 43 1 8 40
M  V30 44 1 9 41
M  V30 45 1 9 42
M  V30 46 1 10 43
M  V30 47 1 10 44
M  V30 48 1 11 45
M  V30 49 1 11 46
M  V30 50 1 12 47
M  V30 51 1 12 48
M  V30 52 1 13 49
M  V30 53 1 13 50
M  V30 54 1 15 51
M  V30 55 1 15 52
M  V30 56 1 16 53
M  V30 57 1 16 54
M  V30 58 1 17 55
M  V30 59 1 17 56
M  V30 60 1 23 57
M  V30 61 1 24 58
M  V30 62 1 25 59
M  V30 63 1 26 60
M  V30 64 1 27 61
M  V30 65 1 28 62
M  V30 66 1 29 63
M  V30 67 1 30 64
M  V30 68 1 31 65
M  V30 69 1 32 66
M  V30 END BOND
M  V30 END CTAB
M  END
>  <Column 1>
2080

>  <level_0>
2260

>  <index>
2260

>  <Unnamed: 0>
2260

>  <NO.>
2272

>  <Name>
piritramide

>  <IUPAC_name>
1-(3-cyano-3-3-diphenylpropyl)-4-piperidin-1-ylpiperidine-4-carboxamide

>  <SMILES>
N#CC(CCN1CCC(C(N)=O)(N2CCCCC2)CC1)(c1ccccc1)c1ccccc1

>  <CID>
9331

>  <logBB>


>  <BBB+/BBB->
BBB+

>  <Inchi>
InChI=1S/C27H34N4O/c28-22-26(23-10-4-1-5-11-23-24-12-6-2-7-13-24)14-19-30-20-15-27(16-21-30-25(29)32)31-17-8-3-9-18-31/h1-2-4-7-10-13H-3-8-9-14-21H2-(H2-29-32)

>  <threshold>
-1

>  <reference>
R1|R13|R19|R6|R24|R27|R27|R27|R30|R30|

>  <group>
B

>  <Class>
1

>  <ABC>
24.72

>  <ABCGG>
19.28

>  <nAcid>
0

>  <nBase>
2

>  <nAromAtom>
12

>  <nAromBond>
12

>  <nAtom>
66

>  <nHeavyAtom>
32

>  <nSpiro>
0

>  <nBridgehead>
0

>  <nHetero>
5

>  <nN>
4

>  <nO>
1

>  <nF>
0

>  <BalabanJ>
1.4

>  <BertzCT>
883.63

>  <nBonds>
69

>  <nBondsO>
35

>  <nBondsS>
55

>  <nBondsD>
1

>  <nBondsT>
1

>  <nBondsA>
12

>  <nBondsM>
14

>  <nBondsKS>
61

>  <nBondsKD>
7

>  <RNCG>
0.16

>  <RPCG>
0.11

>  <FCSP3>
0.48

>  <SZ>
38.67

>  <Sm>
35.85

>  <Sv>
39.96

>  <Sse>
65.08

>  <Sp>
43.69

>  <Si>
74.43

>  <MZ>
0.59

>  <Mm>
0.54

>  <Mv>
0.61

>  <Mse>
0.99

>  <Mp>
0.66

>  <Mi>
1.13

>  <NsCH3>
0

>  <NdCH2>
0

>  <NssCH2>
11

>  <NtCH>
0

>  <NdsCH>
0

>  <NaaCH>
10

>  <NsssCH>
0

>  <NddC>
0

>  <NtsC>
1

>  <NdssC>
1

>  <NaasC>
2

>  <NaaaC>
0

>  <NssssC>
2

>  <NsNH3>
0

>  <NsNH2>
1

>  <NssNH2>
0

>  <NdNH>
0

>  <NssNH>
0

>  <NaaNH>
0

>  <NtN>
1

>  <NsssNH>
0

>  <NdsN>
0

>  <NaaN>
0

>  <NsssN>
2

>  <NddsN>
0

>  <NaasN>
0

>  <NssssN>
0

>  <NsOH>
0

>  <NdO>
1

>  <NssO>
0

>  <NaaO>
0

>  <NsF>
0

>  <NsSiH3>
0

>  <NssSiH2>
0

>  <NsssSiH>
0

>  <NssssSi>
0

>  <NsPH2>
0

>  <NssPH>
0

>  <NsssP>
0

>  <NdsssP>
0

>  <NsssssP>
0

>  <NsSH>
0

>  <NdS>
0

>  <NssS>
0

>  <NaaS>
0

>  <NdssS>
0

>  <NddssS>
0

>  <NsCl>
0

>  <NsBr>
0

>  <NsI>
0

>  <fragCpx>
233.05

>  <fMF>
0.41

>  <nHBAcc>
4

>  <nHBDon>
1

>  <Kier1>
25.1

>  <Kier2>
11.62

>  <Lipinski>
1

>  <GhoseFilter>
1

>  <FilterItLogS>
-5.27

>  <VMcGowan>
354.94

>  <LabuteASA>
191.36

>  <PEOE_VSA1>
10.63

>  <PEOE_VSA2>
9.69

>  <PEOE_VSA3>
0

>  <PEOE_VSA4>
5.26

>  <PEOE_VSA5>
0

>  <PEOE_VSA6>
67.08

>  <PEOE_VSA7>
56.32

>  <PEOE_VSA8>
19.63

>  <PEOE_VSA9>
6.07

>  <PEOE_VSA10>
10.95

>  <PEOE_VSA11>
0

>  <PEOE_VSA12>
5.91

>  <PEOE_VSA13>
0

>  <SMR_VSA1>
4.79

>  <SMR_VSA2>
5.26

>  <SMR_VSA3>
9.8

>  <SMR_VSA4>
5.73

>  <SMR_VSA5>
49.48

>  <SMR_VSA6>
32.72

>  <SMR_VSA7>
71.79

>  <SMR_VSA8>
0

>  <SMR_VSA9>
6.07

>  <SlogP_VSA1>
5.73

>  <SlogP_VSA2>
53.97

>  <SlogP_VSA3>
10.21

>  <SlogP_VSA4>
11.33

>  <SlogP_VSA5>
49.65

>  <SlogP_VSA6>
60.66

>  <SlogP_VSA7>
0

>  <SlogP_VSA8>
0

>  <SlogP_VSA9>
0

>  <SlogP_VSA10>
0

>  <SlogP_VSA11>
0

>  <EState_VSA1>
10.95

>  <EState_VSA2>
5.91

>  <EState_VSA3>
6.42

>  <EState_VSA4>
69.53

>  <EState_VSA5>
6.42

>  <EState_VSA6>
0

>  <EState_VSA7>
36.4

>  <EState_VSA8>
40.13

>  <EState_VSA9>
5.73

>  <EState_VSA10>
10.06

>  <VSA_EState1>
0

>  <VSA_EState2>
17.29

>  <VSA_EState3>
10.4

>  <VSA_EState4>
6.83

>  <VSA_EState5>
-0.17

>  <VSA_EState6>
22.89

>  <VSA_EState7>
5.81

>  <VSA_EState8>
4.44

>  <VSA_EState9>
0

>  <apol>
72.96

>  <bpol>
38.4

>  <nRing>
4

>  <nHRing>
2

>  <naRing>
2

>  <naHRing>
0

>  <nARing 2>
2

>  <nAHRing 2>
2

>  <nFRing>
0

>  <nFHRing>
0

>  <nFaRing>
0

>  <nFaHRing>
0

>  <nFARing 2>
0

>  <nFAHRing 2>
0

>  <nRot>
7

>  <SLogP>
3.69

>  <SMR>
126.92

>  <TopoPSA(NO)>
73.36

>  <TopoPSA>
73.36

>  <JGI1>
0.19

>  <JGI2>
0.1

>  <JGI3>
0.05

>  <JGI4>
0.02

>  <JGI5>
0.02

>  <Diameter>
14

>  <Radius>
7

>  <TMWC10>
145.35

>  <TSRW10>
68.36

>  <MW>
430.27

>  <AMW>
6.52

>  <WPath>
2977

>  <WPol>
57

>  <Zagreb1>
168

>  <Zagreb2>
202

>  <mZagreb2>
7.25

>  <yes>


>  <nAR-cont>
1

>  <nHA-cont>
0.658856097

>  <MWHBN>
0.241045746

>  <MWHBN-cont>
0.973535048

>  <TPSA-cont>
0.487901646

>  <pka_cont>
0.97

>  <yes.1>


>  <BBB_SCORE>
4.579961961

>  <MMFF94 Energy>
99.89

$$$$
Compound 1709
Actelion Java MolfileCreator 2.0

  0  0  0  0  0  0              0 V3000
M  V30 BEGIN CTAB
M  V30 COUNTS 38 40 0 0 0
M  V30 BEGIN ATOM
M  V30 1 Cl 1.308 4.5017 1.6352 0
M  V30 2 C 1.4602 2.9379 0.9378 0
M  V30 3 C 0.4969 1.968 1.1955 0
M  V30 4 C 2.5552 2.6434 0.1342 0
M  V30 5 C 0.6164 0.6885 0.6262 0
M  V30 6 C 2.6856 1.3689 -0.4242 0
M  V30 7 C -0.4247 -0.3226 0.9799 0
M  V30 8 C 1.7151 0.3778 -0.2021 0
M  V30 9 N -0.1652 -1.5406 1.3212 0
M  V30 10 C -1.8549 0.0949 0.9459 0
M  V30 11 N 1.8936 -0.9035 -0.801 0
M  V30 12 C 1.2269 -1.9766 1.3736 0 CFG=2
M  V30 13 C -2.7057 -0.2313 2.0043 0
M  V30 14 C -2.3602 0.807 -0.1487 0
M  V30 15 C 1.6922 -2.1027 -0.1043 0
M  V30 16 C 2.2454 -1.0015 -2.2248 0
M  V30 17 O 1.3712 -3.2123 2.0498 0
M  V30 18 F -2.2488 -0.8726 3.0894 0
M  V30 19 C -4.0468 0.1454 1.9785 0
M  V30 20 C -3.7057 1.1834 -0.1753 0
M  V30 21 O 1.8442 -3.1988 -0.6537 0
M  V30 22 C 1.0517 -1.3538 -3.1176 0
M  V30 23 C -4.5486 0.8526 0.8864 0
M  V30 24 C 0.1582 -0.2005 -3.2705 0
M  V30 25 N -0.5301 0.7268 -3.3838 0
M  V30 26 H -0.333 2.2081 1.8565 0
M  V30 27 H 3.3184 3.3953 -0.053 0
M  V30 28 H 3.5754 1.1616 -1.0142 0
M  V30 29 H 1.867 -1.2676 1.9093 0
M  V30 30 H -1.7276 1.0654 -0.9931 0
M  V30 31 H 2.7216 -0.0824 -2.5813 0
M  V30 32 H 2.9961 -1.7959 -2.3234 0
M  V30 33 H 0.6846 -3.7707 1.6456 0
M  V30 34 H -4.6902 -0.1136 2.8139 0
M  V30 35 H -4.097 1.7305 -1.0308 0
M  V30 36 H 1.4241 -1.6454 -4.1063 0
M  V30 37 H 0.4937 -2.2075 -2.7191 0
M  V30 38 H -5.5958 1.1452 0.862 0
M  V30 END ATOM
M  V30 BEGIN BOND
M  V30 1 1 1 2
M  V30 2 2 2 3
M  V30 3 1 2 4
M  V30 4 1 3 5
M  V30 5 2 4 6
M  V30 6 1 5 7
M  V30 7 2 5 8
M  V30 8 2 7 9
M  V30 9 1 7 10
M  V30 10 1 8 11
M  V30 11 1 9 12
M  V30 12 2 10 13
M  V30 13 1 10 14
M  V30 14 1 11 15
M  V30 15 1 11 16
M  V30 16 1 12 17
M  V30 17 1 13 18
M  V30 18 1 13 19
M  V30 19 2 14 20
M  V30 20 2 15 21
M  V30 21 1 16 22
M  V30 22 2 19 23
M  V30 23 1 22 24
M  V30 24 3 24 25
M  V30 25 1 6 8
M  V30 26 1 12 15
M  V30 27 1 20 23
M  V30 28 1 3 26
M  V30 29 1 4 27
M  V30 30 1 6 28
M  V30 31 1 12 29
M  V30 32 1 14 30
M  V30 33 1 16 31
M  V30 34 1 16 32
M  V30 35 1 17 33
M  V30 36 1 19 34
M  V30 37 1 20 35
M  V30 38 1 22 36
M  V30 39 1 22 37
M  V30 40 1 23 38
M  V30 END BOND
M  V30 BEGIN COLLECTION
M  V30 MDLV30/STERAC1 ATOMS=(1 12)
M  V30 END COLLECTION
M  V30 END CTAB
M  END
>  <Column 1>
2081

>  <level_0>
2261

>  <index>
2261

>  <Unnamed: 0>
2261

>  <NO.>
2273

>  <Name>
cinolazepam

>  <IUPAC_name>
3-[7-chloro-5-(2-fluorophenyl)-3-hydroxy-2-oxo-3h-1-4-benzodiazepin-1-yl]propanenitrile

>  <SMILES>
N#CCCN1C(=O)C(O)N=C(c2ccccc2F)c2cc(Cl)ccc21

>  <CID>
3033621

>  <logBB>


>  <BBB+/BBB->
BBB+

>  <Inchi>
InChI=1S/C18H13ClFN3O2/c19-11-6-7-15-13(10-11)16(12-4-1-2-5-14(12)20)22-17(24)18(25)23(15)9-3-8-21/h1-2-4-7-10-17-24H-3-9H2

>  <threshold>
-1

>  <reference>
R1|R19|R6|R14|R23|R27|R27|R30|

>  <group>
B

>  <Class>
1

>  <ABC>
19.25

>  <ABCGG>
16.07

>  <nAcid>
0

>  <nBase>
0

>  <nAromAtom>
12

>  <nAromBond>
12

>  <nAtom>
38

>  <nHeavyAtom>
25

>  <nSpiro>
0

>  <nBridgehead>
0

>  <nHetero>
7

>  <nN>
3

>  <nO>
2

>  <nF>
1

>  <BalabanJ>
1.87

>  <BertzCT>
907.43

>  <nBonds>
40

>  <nBondsO>
27

>  <nBondsS>
25

>  <nBondsD>
2

>  <nBondsT>
1

>  <nBondsA>
12

>  <nBondsM>
15

>  <nBondsKS>
31

>  <nBondsKD>
8

>  <RNCG>
0.18

>  <RPCG>
0.14

>  <FCSP3>
0.17

>  <SZ>
30.67

>  <Sm>
29.79

>  <Sv>
26.96

>  <Sse>
39.14

>  <Sp>
27.77

>  <Si>
42.69

>  <MZ>
0.81

>  <Mm>
0.78

>  <Mv>
0.71

>  <Mse>
1.03

>  <Mp>
0.73

>  <Mi>
1.12

>  <NsCH3>
0

>  <NdCH2>
0

>  <NssCH2>
2

>  <NtCH>
0

>  <NdsCH>
0

>  <NaaCH>
7

>  <NsssCH>
1

>  <NddC>
0

>  <NtsC>
1

>  <NdssC>
2

>  <NaasC>
5

>  <NaaaC>
0

>  <NssssC>
0

>  <NsNH3>
0

>  <NsNH2>
0

>  <NssNH2>
0

>  <NdNH>
0

>  <NssNH>
0

>  <NaaNH>
0

>  <NtN>
1

>  <NsssNH>
0

>  <NdsN>
1

>  <NaaN>
0

>  <NsssN>
1

>  <NddsN>
0

>  <NaasN>
0

>  <NssssN>
0

>  <NsOH>
1

>  <NdO>
1

>  <NssO>
0

>  <NaaO>
0

>  <NsF>
1

>  <NsSiH3>
0

>  <NssSiH2>
0

>  <NsssSiH>
0

>  <NssssSi>
0

>  <NsPH2>
0

>  <NssPH>
0

>  <NsssP>
0

>  <NdsssP>
0

>  <NsssssP>
0

>  <NsSH>
0

>  <NdS>
0

>  <NssS>
0

>  <NaaS>
0

>  <NdssS>
0

>  <NddssS>
0

>  <NsCl>
1

>  <NsBr>
0

>  <NsI>
0

>  <fragCpx>
129.07

>  <fMF>
0.45

>  <nHBAcc>
4

>  <nHBDon>
1

>  <Kier1>
19.75

>  <Kier2>
8.79

>  <Lipinski>
1

>  <GhoseFilter>
1

>  <FilterItLogS>
-4.88

>  <VMcGowan>
244.58

>  <LabuteASA>
148.14

>  <PEOE_VSA1>
10.01

>  <PEOE_VSA2>
4.79

>  <PEOE_VSA3>
9.38

>  <PEOE_VSA4>
5.26

>  <PEOE_VSA5>
0

>  <PEOE_VSA6>
23.73

>  <PEOE_VSA7>
30.33

>  <PEOE_VSA8>
22.69

>  <PEOE_VSA9>
23.89

>  <PEOE_VSA10>
5.82

>  <PEOE_VSA11>
0

>  <PEOE_VSA12>
6.23

>  <PEOE_VSA13>
5.91

>  <SMR_VSA1>
14.29

>  <SMR_VSA2>
5.26

>  <SMR_VSA3>
0

>  <SMR_VSA4>
4.99

>  <SMR_VSA5>
12.65

>  <SMR_VSA6>
11.44

>  <SMR_VSA7>
64.43

>  <SMR_VSA8>
0

>  <SMR_VSA9>
6.07

>  <SlogP_VSA1>
4.9

>  <SlogP_VSA2>
29.5

>  <SlogP_VSA3>
4.79

>  <SlogP_VSA4>
17.15

>  <SlogP_VSA5>
17.55

>  <SlogP_VSA6>
47.46

>  <SlogP_VSA7>
5.02

>  <SlogP_VSA8>
0

>  <SlogP_VSA9>
0

>  <SlogP_VSA10>
10.08

>  <SlogP_VSA11>
0

>  <EState_VSA1>
17.95

>  <EState_VSA2>
24.24

>  <EState_VSA3>
16.27

>  <EState_VSA4>
0

>  <EState_VSA5>
23.1

>  <EState_VSA6>
24.27

>  <EState_VSA7>
6.07

>  <EState_VSA8>
4.99

>  <EState_VSA9>
16.86

>  <EState_VSA10>
14.29

>  <VSA_EState1>
14.29

>  <VSA_EState2>
17.8

>  <VSA_EState3>
19.38

>  <VSA_EState4>
1.12

>  <VSA_EState5>
-1.21

>  <VSA_EState6>
12.68

>  <VSA_EState7>
-1.62

>  <VSA_EState8>
0.08

>  <VSA_EState9>
0

>  <apol>
46.37

>  <bpol>
18.95

>  <nRing>
3

>  <nHRing>
1

>  <naRing>
2

>  <naHRing>
0

>  <nARing 2>
1

>  <nAHRing 2>
1

>  <nFRing>
1

>  <nFHRing>
1

>  <nFaRing>
0

>  <nFaHRing>
0

>  <nFARing 2>
1

>  <nFAHRing 2>
1

>  <nRot>
3

>  <SLogP>
2.9

>  <SMR>
92.08

>  <TopoPSA(NO)>
76.69

>  <TopoPSA>
76.69

>  <JGI1>
0.17

>  <JGI2>
0.09

>  <JGI3>
0.05

>  <JGI4>
0.05

>  <JGI5>
0.03

>  <Diameter>
11

>  <Radius>
6

>  <TMWC10>
128.04

>  <TSRW10>
68.02

>  <MW>
357.07

>  <AMW>
9.4

>  <WPath>
1331

>  <WPol>
46

>  <Zagreb1>
130

>  <Zagreb2>
155

>  <mZagreb2>
5.61

>  <yes>


>  <nAR-cont>
0.816016

>  <nHA-cont>
0.921834225

>  <MWHBN>
0.264602122

>  <MWHBN-cont>
0.931964501

>  <TPSA-cont>
0.464656178

>  <pka_cont>
0.97

>  <yes.1>


>  <BBB_SCORE>
4.550109333

>  <MMFF94 Energy>
102.07

$$$$
Compound 1710
Actelion Java MolfileCreator 2.0

  0  0  0  0  0  0              0 V3000
M  V30 BEGIN CTAB
M  V30 COUNTS 42 44 0 0 0
M  V30 BEGIN ATOM
M  V30 1 O 5.3589 -2.8767 0.3193 0
M  V30 2 C 4.5651 -1.9338 -0.4116 0
M  V30 3 C 4.5321 -3.6037 1.2371 0
M  V30 4 C 3.8644 -0.9439 0.5344 0
M  V30 5 C 3.8362 -2.6535 2.2241 0
M  V30 6 N 3.0098 -1.6475 1.5182 0
M  V30 7 C 2.4101 -0.7074 2.4951 0
M  V30 8 C 1.3392 0.2231 1.8795 0
M  V30 9 N 0.4068 -0.5699 1.0901 0
M  V30 10 C -0.617 0.0564 0.4032 0
M  V30 11 N -0.7403 1.3971 0.4693 0
M  V30 12 C -1.5789 -0.6596 -0.3018 0
M  V30 13 N -1.7756 2.0639 -0.1677 0
M  V30 14 C -1.5183 -2.0851 -0.3957 0
M  V30 15 C -2.6301 0.0099 -0.9443 0
M  V30 16 C -2.7137 1.3897 -0.8612 0
M  V30 17 N -1.4835 -3.2409 -0.4992 0
M  V30 18 C -3.7716 2.1952 -1.4999 0
M  V30 19 C -3.5162 3.5163 -1.9157 0
M  V30 20 C -5.0694 1.6936 -1.7156 0
M  V30 21 C -4.5028 4.2947 -2.5288 0
M  V30 22 C -6.0587 2.4706 -2.3284 0
M  V30 23 C -5.7739 3.7698 -2.7369 0
M  V30 24 H 5.235 -1.39 -1.0851 0
M  V30 25 H 3.8382 -2.4741 -1.0301 0
M  V30 26 H 5.1774 -4.2982 1.7843 0
M  V30 27 H 3.8024 -4.1992 0.6752 0
M  V30 28 H 3.2641 -0.2593 -0.0736 0
M  V30 29 H 4.6277 -0.3543 1.0587 0
M  V30 30 H 4.6003 -2.1488 2.8298 0
M  V30 31 H 3.2066 -3.2469 2.8969 0
M  V30 32 H 3.1787 -0.1047 2.995 0
M  V30 33 H 1.9088 -1.2971 3.2744 0
M  V30 34 H 0.8103 0.7397 2.6893 0
M  V30 35 H 1.8246 0.9804 1.2527 0
M  V30 36 H 0.8013 -1.436 0.7298 0
M  V30 37 H -3.3615 -0.5566 -1.5131 0
M  V30 38 H -2.5299 3.9544 -1.7647 0
M  V30 39 H -5.3413 0.6916 -1.3914 0
M  V30 40 H -4.2747 5.3111 -2.8396 0
M  V30 41 H -7.0545 2.0611 -2.48 0
M  V30 42 H -6.5426 4.3747 -3.2107 0
M  V30 END ATOM
M  V30 BEGIN BOND
M  V30 1 1 1 2
M  V30 2 1 1 3
M  V30 3 1 2 4
M  V30 4 1 3 5
M  V30 5 1 4 6
M  V30 6 1 6 7
M  V30 7 1 7 8
M  V30 8 1 8 9
M  V30 9 1 9 10
M  V30 10 2 10 11
M  V30 11 1 10 12
M  V30 12 1 11 13
M  V30 13 1 12 14
M  V30 14 2 12 15
M  V30 15 2 13 16
M  V30 16 3 14 17
M  V30 17 1 16 18
M  V30 18 2 18 19
M  V30 19 1 18 20
M  V30 20 1 19 21
M  V30 21 2 20 22
M  V30 22 2 21 23
M  V30 23 1 5 6
M  V30 24 1 15 16
M  V30 25 1 22 23
M  V30 26 1 2 24
M  V30 27 1 2 25
M  V30 28 1 3 26
M  V30 29 1 3 27
M  V30 30 1 4 28
M  V30 31 1 4 29
M  V30 32 1 5 30
M  V30 33 1 5 31
M  V30 34 1 7 32
M  V30 35 1 7 33
M  V30 36 1 8 34
M  V30 37 1 8 35
M  V30 38 1 9 36
M  V30 39 1 15 37
M  V30 40 1 19 38
M  V30 41 1 20 39
M  V30 42 1 21 40
M  V30 43 1 22 41
M  V30 44 1 23 42
M  V30 END BOND
M  V30 END CTAB
M  END
>  <Column 1>
2082

>  <level_0>
2262

>  <index>
2262

>  <Unnamed: 0>
2262

>  <NO.>
2274

>  <Name>
bazinaprine

>  <IUPAC_name>
3-(2-morpholin-4-ylethylamino)-6-phenylpyridazine-4-carbonitrile

>  <SMILES>
N#Cc1cc(-c2ccccc2)nnc1NCCN1CCOCC1

>  <CID>
72119

>  <logBB>


>  <BBB+/BBB->
BBB+

>  <Inchi>
InChI=1S/C17H19N5O/c18-13-15-12-16(14-4-2-1-3-5-14)20-21-17(15)19-6-7-22-8-10-23-11-9-22/h1-5-12H-6-11H2-(H-19-21)

>  <threshold>
-1

>  <reference>
R1|R13|R19|R6|R24|R27|R27|R27|R30|R30|

>  <group>
B

>  <Class>
1

>  <ABC>
17.6

>  <ABCGG>
13.38

>  <nAcid>
0

>  <nBase>
1

>  <nAromAtom>
12

>  <nAromBond>
12

>  <nAtom>
42

>  <nHeavyAtom>
23

>  <nSpiro>
0

>  <nBridgehead>
0

>  <nHetero>
6

>  <nN>
5

>  <nO>
1

>  <nF>
0

>  <BalabanJ>
1.39

>  <BertzCT>
677.13

>  <nBonds>
44

>  <nBondsO>
25

>  <nBondsS>
31

>  <nBondsD>
0

>  <nBondsT>
1

>  <nBondsA>
12

>  <nBondsM>
13

>  <nBondsKS>
37

>  <nBondsKD>
6

>  <RNCG>
0.21

>  <RPCG>
0.09

>  <FCSP3>
0.35

>  <SZ>
27.33

>  <Sm>
25.76

>  <Sv>
26.65

>  <Sse>
42.08

>  <Sp>
28.36

>  <Si>
47.61

>  <MZ>
0.65

>  <Mm>
0.61

>  <Mv>
0.63

>  <Mse>
1

>  <Mp>
0.68

>  <Mi>
1.13

>  <NsCH3>
0

>  <NdCH2>
0

>  <NssCH2>
6

>  <NtCH>
0

>  <NdsCH>
0

>  <NaaCH>
6

>  <NsssCH>
0

>  <NddC>
0

>  <NtsC>
1

>  <NdssC>
0

>  <NaasC>
4

>  <NaaaC>
0

>  <NssssC>
0

>  <NsNH3>
0

>  <NsNH2>
0

>  <NssNH2>
0

>  <NdNH>
0

>  <NssNH>
1

>  <NaaNH>
0

>  <NtN>
1

>  <NsssNH>
0

>  <NdsN>
0

>  <NaaN>
2

>  <NsssN>
1

>  <NddsN>
0

>  <NaasN>
0

>  <NssssN>
0

>  <NsOH>
0

>  <NdO>
0

>  <NssO>
1

>  <NaaO>
0

>  <NsF>
0

>  <NsSiH3>
0

>  <NssSiH2>
0

>  <NsssSiH>
0

>  <NssssSi>
0

>  <NsPH2>
0

>  <NssPH>
0

>  <NsssP>
0

>  <NdsssP>
0

>  <NsssssP>
0

>  <NsSH>
0

>  <NdS>
0

>  <NssS>
0

>  <NaaS>
0

>  <NdssS>
0

>  <NddssS>
0

>  <NsCl>
0

>  <NsBr>
0

>  <NsI>
0

>  <fragCpx>
119.06

>  <fMF>
0.5

>  <nHBAcc>
6

>  <nHBDon>
1

>  <Kier1>
17.81

>  <Kier2>
9.47

>  <Lipinski>
1

>  <GhoseFilter>
1

>  <FilterItLogS>
-4.38

>  <VMcGowan>
239.18

>  <LabuteASA>
135.26

>  <PEOE_VSA1>
10.05

>  <PEOE_VSA2>
4.9

>  <PEOE_VSA3>
0

>  <PEOE_VSA4>
5.26

>  <PEOE_VSA5>
10.2

>  <PEOE_VSA6>
30.33

>  <PEOE_VSA7>
6.07

>  <PEOE_VSA8>
31.74

>  <PEOE_VSA9>
24.47

>  <PEOE_VSA10>
6.07

>  <PEOE_VSA11>
5.82

>  <PEOE_VSA12>
0

>  <PEOE_VSA13>
0

>  <SMR_VSA1>
4.74

>  <SMR_VSA2>
5.26

>  <SMR_VSA3>
15.1

>  <SMR_VSA4>
0

>  <SMR_VSA5>
0

>  <SMR_VSA6>
44.71

>  <SMR_VSA7>
41.96

>  <SMR_VSA8>
0

>  <SMR_VSA9>
17.33

>  <SlogP_VSA1>
5.32

>  <SlogP_VSA2>
54.49

>  <SlogP_VSA3>
4.74

>  <SlogP_VSA4>
11.33

>  <SlogP_VSA5>
5.56

>  <SlogP_VSA6>
36.4

>  <SlogP_VSA7>
0

>  <SlogP_VSA8>
11.26

>  <SlogP_VSA9>
0

>  <SlogP_VSA10>
5.82

>  <SlogP_VSA11>
0

>  <EState_VSA1>
0

>  <EState_VSA2>
0

>  <EState_VSA3>
17.08

>  <EState_VSA4>
44.96

>  <EState_VSA5>
0

>  <EState_VSA6>
6.07

>  <EState_VSA7>
30.33

>  <EState_VSA8>
26.48

>  <EState_VSA9>
4.74

>  <EState_VSA10>
5.26

>  <VSA_EState1>
5.33

>  <VSA_EState2>
2.33

>  <VSA_EState3>
20.97

>  <VSA_EState4>
2.18

>  <VSA_EState5>
0.54

>  <VSA_EState6>
13.72

>  <VSA_EState7>
0

>  <VSA_EState8>
5.1

>  <VSA_EState9>
0

>  <apol>
47.36

>  <bpol>
24.79

>  <nRing>
3

>  <nHRing>
2

>  <naRing>
2

>  <naHRing>
1

>  <nARing 2>
1

>  <nAHRing 2>
1

>  <nFRing>
0

>  <nFHRing>
0

>  <nFaRing>
0

>  <nFaHRing>
0

>  <nFARing 2>
0

>  <nFAHRing 2>
0

>  <nRot>
5

>  <SLogP>
1.76

>  <SMR>
87.93

>  <TopoPSA(NO)>
74.07

>  <TopoPSA>
74.07

>  <JGI1>
0.12

>  <JGI2>
0.06

>  <JGI3>
0.03

>  <JGI4>
0.03

>  <JGI5>
0.02

>  <Diameter>
14

>  <Radius>
7

>  <TMWC10>
120.76

>  <TSRW10>
56.8

>  <MW>
309.16

>  <AMW>
7.36

>  <WPath>
1370

>  <WPol>
32

>  <Zagreb1>
114

>  <Zagreb2>
130

>  <mZagreb2>
5.31

>  <yes>


>  <nAR-cont>
0.816016

>  <nHA-cont>
0.967789328

>  <MWHBN>
0.398113029

>  <MWHBN-cont>
0.483490233

>  <TPSA-cont>
0.482945405

>  <pka_cont>
0.97

>  <yes.1>


>  <BBB_SCORE>
3.959931488

>  <MMFF94 Energy>
122.02

$$$$
Compound 1711
Actelion Java MolfileCreator 2.0

  0  0  0  0  0  0              0 V3000
M  V30 BEGIN CTAB
M  V30 COUNTS 49 52 0 0 0
M  V30 BEGIN ATOM
M  V30 1 S 2.3504 -3.8113 2.9183 0
M  V30 2 C 1.1454 -3.9159 1.6186 0
M  V30 3 C 2.4663 -2.0604 3.1932 0
M  V30 4 C 0.3999 -2.814 1.1501 0
M  V30 5 C 0.9606 -5.2041 1.0768 0
M  V30 6 C 1.6107 -1.1154 2.591 0
M  V30 7 C 3.4823 -1.6588 4.0846 0
M  V30 8 N 0.5705 -1.5083 1.6964 0
M  V30 9 C -0.5112 -3.0793 0.1007 0
M  V30 10 C 0.0472 -5.4297 0.0527 0
M  V30 11 C 1.8564 0.2389 2.9167 0
M  V30 12 C 3.684 -0.3179 4.3878 0
M  V30 13 C -0.4636 -0.494 1.3809 0
M  V30 14 C -0.6901 -4.3625 -0.4413 0
M  V30 15 C 2.8707 0.6337 3.7985 0
M  V30 16 C -0.1067 0.3188 0.1276 0
M  V30 17 C -1.6313 -4.5673 -1.5033 0
M  V30 18 C -1.2147 1.333 -0.1837 0
M  V30 19 N -2.3971 -4.7265 -2.3606 0
M  V30 20 N -0.8628 2.2522 -1.281 0
M  V30 21 C -1.8296 3.3652 -1.3259 0
M  V30 22 C -0.8368 1.5642 -2.5861 0
M  V30 23 C -1.4521 4.3909 -2.3957 0
M  V30 24 C -0.4232 2.5175 -3.7092 0
M  V30 25 C -1.3232 3.7448 -3.7696 0
M  V30 26 O -2.611 3.3574 -4.2496 0
M  V30 27 H 1.5391 -6.0456 1.4558 0
M  V30 28 H 4.13 -2.4009 4.5479 0
M  V30 29 H -1.1033 -2.2829 -0.341 0
M  V30 30 H -0.075 -6.4325 -0.3505 0
M  V30 31 H 1.2753 1.0453 2.4813 0
M  V30 32 H 4.4734 -0.0225 5.0731 0
M  V30 33 H -0.633 0.1741 2.2355 0
M  V30 34 H -1.4489 -0.9634 1.2619 0
M  V30 35 H 3.0203 1.6887 4.0145 0
M  V30 36 H 0.0451 -0.3562 -0.7197 0
M  V30 37 H 0.8438 0.8452 0.2698 0
M  V30 38 H -2.1557 0.8098 -0.399 0
M  V30 39 H -1.3808 1.9224 0.7278 0
M  V30 40 H -1.8413 3.8836 -0.3589 0
M  V30 41 H -2.8472 2.9928 -1.5043 0
M  V30 42 H -0.1059 0.7491 -2.5743 0
M  V30 43 H -1.8144 1.1185 -2.8123 0
M  V30 44 H -0.5004 4.8647 -2.1238 0
M  V30 45 H -2.2167 5.1763 -2.4174 0
M  V30 46 H -0.4612 1.9766 -4.6622 0
M  V30 47 H 0.6154 2.8338 -3.5506 0
M  V30 48 H -0.9137 4.4638 -4.4879 0
M  V30 49 H -3.1259 4.171 -4.3894 0
M  V30 END ATOM
M  V30 BEGIN BOND
M  V30 1 1 1 2
M  V30 2 1 1 3
M  V30 3 2 2 4
M  V30 4 1 2 5
M  V30 5 2 3 6
M  V30 6 1 3 7
M  V30 7 1 4 8
M  V30 8 1 4 9
M  V30 9 2 5 10
M  V30 10 1 6 11
M  V30 11 2 7 12
M  V30 12 1 8 13
M  V30 13 2 9 14
M  V30 14 2 11 15
M  V30 15 1 13 16
M  V30 16 1 14 17
M  V30 17 1 16 18
M  V30 18 3 17 19
M  V30 19 1 18 20
M  V30 20 1 20 21
M  V30 21 1 20 22
M  V30 22 1 21 23
M  V30 23 1 22 24
M  V30 24 1 23 25
M  V30 25 1 25 26
M  V30 26 1 6 8
M  V30 27 1 10 14
M  V30 28 1 12 15
M  V30 29 1 24 25
M  V30 30 1 5 27
M  V30 31 1 7 28
M  V30 32 1 9 29
M  V30 33 1 10 30
M  V30 34 1 11 31
M  V30 35 1 12 32
M  V30 36 1 13 33
M  V30 37 1 13 34
M  V30 38 1 15 35
M  V30 39 1 16 36
M  V30 40 1 16 37
M  V30 41 1 18 38
M  V30 42 1 18 39
M  V30 43 1 21 40
M  V30 44 1 21 41
M  V30 45 1 22 42
M  V30 46 1 22 43
M  V30 47 1 23 44
M  V30 48 1 23 45
M  V30 49 1 24 46
M  V30 50 1 24 47
M  V30 51 1 25 48
M  V30 52 1 26 49
M  V30 END BOND
M  V30 END CTAB
M  END
>  <Column 1>
2084

>  <level_0>
2264

>  <index>
2264

>  <Unnamed: 0>
2264

>  <NO.>
2276

>  <Name>
pericyazine

>  <IUPAC_name>
10-[3-(4-hydroxypiperidin-1-yl)propyl]phenothiazine-2-carbonitrile

>  <SMILES>
N#Cc1ccc2c(c1)N(CCCN1CCC(O)CC1)c1ccccc1S2

>  <CID>
4747

>  <logBB>


>  <BBB+/BBB->
BBB+

>  <Inchi>
InChI=1S/C21H23N3OS/c22-15-16-6-7-21-19(14-16)24(18-4-1-2-5-20(18)26-21)11-3-10-23-12-8-17(25)9-13-23/h1-2-4-7-14-17-25H-3-8-13H2

>  <threshold>
-1

>  <reference>
R1|R13|R19|R6|R14|R23|R24|R27|R27|R27|R30|R30|

>  <group>
B

>  <Class>
1

>  <ABC>
20.45

>  <ABCGG>
15.03

>  <nAcid>
0

>  <nBase>
1

>  <nAromAtom>
12

>  <nAromBond>
12

>  <nAtom>
49

>  <nHeavyAtom>
26

>  <nSpiro>
0

>  <nBridgehead>
0

>  <nHetero>
5

>  <nN>
3

>  <nO>
1

>  <nF>
0

>  <BalabanJ>
1.36

>  <BertzCT>
824.25

>  <nBonds>
52

>  <nBondsO>
29

>  <nBondsS>
39

>  <nBondsD>
0

>  <nBondsT>
1

>  <nBondsA>
12

>  <nBondsM>
13

>  <nBondsKS>
45

>  <nBondsKD>
6

>  <RNCG>
0.23

>  <RPCG>
0.13

>  <FCSP3>
0.38

>  <SZ>
32.33

>  <Sm>
30.43

>  <Sv>
31.41

>  <Sse>
48.61

>  <Sp>
34.38

>  <Si>
54.78

>  <MZ>
0.66

>  <Mm>
0.62

>  <Mv>
0.64

>  <Mse>
0.99

>  <Mp>
0.7

>  <Mi>
1.12

>  <NsCH3>
0

>  <NdCH2>
0

>  <NssCH2>
7

>  <NtCH>
0

>  <NdsCH>
0

>  <NaaCH>
7

>  <NsssCH>
1

>  <NddC>
0

>  <NtsC>
1

>  <NdssC>
0

>  <NaasC>
5

>  <NaaaC>
0

>  <NssssC>
0

>  <NsNH3>
0

>  <NsNH2>
0

>  <NssNH2>
0

>  <NdNH>
0

>  <NssNH>
0

>  <NaaNH>
0

>  <NtN>
1

>  <NsssNH>
0

>  <NdsN>
0

>  <NaaN>
0

>  <NsssN>
2

>  <NddsN>
0

>  <NaasN>
0

>  <NssssN>
0

>  <NsOH>
1

>  <NdO>
0

>  <NssO>
0

>  <NaaO>
0

>  <NsF>
0

>  <NsSiH3>
0

>  <NssSiH2>
0

>  <NsssSiH>
0

>  <NssssSi>
0

>  <NsPH2>
0

>  <NssPH>
0

>  <NsssP>
0

>  <NdsssP>
0

>  <NsssssP>
0

>  <NsSH>
0

>  <NdS>
0

>  <NssS>
1

>  <NaaS>
0

>  <NdssS>
0

>  <NddssS>
0

>  <NsCl>
0

>  <NsBr>
0

>  <NsI>
0

>  <fragCpx>
191.05

>  <fMF>
0.47

>  <nHBAcc>
5

>  <nHBDon>
1

>  <Kier1>
19.32

>  <Kier2>
9

>  <Lipinski>
1

>  <GhoseFilter>
1

>  <FilterItLogS>
-4.46

>  <VMcGowan>
281.07

>  <LabuteASA>
158.59

>  <PEOE_VSA1>
14.91

>  <PEOE_VSA2>
0

>  <PEOE_VSA3>
0

>  <PEOE_VSA4>
5.26

>  <PEOE_VSA5>
0

>  <PEOE_VSA6>
23.89

>  <PEOE_VSA7>
56.14

>  <PEOE_VSA8>
29.43

>  <PEOE_VSA9>
29.11

>  <PEOE_VSA10>
0

>  <PEOE_VSA11>
0

>  <PEOE_VSA12>
0

>  <PEOE_VSA13>
0

>  <SMR_VSA1>
5.11

>  <SMR_VSA2>
5.26

>  <SMR_VSA3>
4.9

>  <SMR_VSA4>
0

>  <SMR_VSA5>
35.16

>  <SMR_VSA6>
31.08

>  <SMR_VSA7>
48.03

>  <SMR_VSA8>
0

>  <SMR_VSA9>
6.07

>  <SlogP_VSA1>
4.9

>  <SlogP_VSA2>
42.29

>  <SlogP_VSA3>
0

>  <SlogP_VSA4>
11.33

>  <SlogP_VSA5>
24.83

>  <SlogP_VSA6>
52.26

>  <SlogP_VSA7>
0

>  <SlogP_VSA8>
0

>  <SlogP_VSA9>
0

>  <SlogP_VSA10>
11.37

>  <SlogP_VSA11>
0

>  <EState_VSA1>
0

>  <EState_VSA2>
6.1

>  <EState_VSA3>
5.56

>  <EState_VSA4>
51.13

>  <EState_VSA5>
15.48

>  <EState_VSA6>
11.76

>  <EState_VSA7>
12.13

>  <EState_VSA8>
46.2

>  <EState_VSA9>
0

>  <EState_VSA10>
10.37

>  <VSA_EState1>
0

>  <VSA_EState2>
7.29

>  <VSA_EState3>
18.95

>  <VSA_EState4>
3.08

>  <VSA_EState5>
0

>  <VSA_EState6>
16.73

>  <VSA_EState7>
2.72

>  <VSA_EState8>
3.95

>  <VSA_EState9>
0

>  <apol>
57.41

>  <bpol>
29.52

>  <nRing>
4

>  <nHRing>
2

>  <naRing>
2

>  <naHRing>
0

>  <nARing 2>
2

>  <nAHRing 2>
2

>  <nFRing>
1

>  <nFHRing>
1

>  <nFaRing>
0

>  <nFaHRing>
0

>  <nFARing 2>
1

>  <nFAHRing 2>
1

>  <nRot>
4

>  <SLogP>
4.01

>  <SMR>
105.03

>  <TopoPSA(NO)>
50.5

>  <TopoPSA>
75.8

>  <JGI1>
0.16

>  <JGI2>
0.07

>  <JGI3>
0.03

>  <JGI4>
0.04

>  <JGI5>
0.02

>  <Diameter>
13

>  <Radius>
7

>  <TMWC10>
131.02

>  <TSRW10>
61.15

>  <MW>
365.16

>  <AMW>
7.45

>  <WPath>
1719

>  <WPol>
42

>  <Zagreb1>
138

>  <Zagreb2>
163

>  <mZagreb2>
5.78

>  <yes>


>  <nAR-cont>
1

>  <nHA-cont>
0.892715677

>  <MWHBN>
0.313985542

>  <MWHBN-cont>
0.797041947

>  <TPSA-cont>
0.470868931

>  <pka_cont>
0.97

>  <yes.1>


>  <BBB_SCORE>
4.515016461

>  <MMFF94 Energy>
74.785

$$$$
Compound 1712
Actelion Java MolfileCreator 2.0

  0  0  0  0  0  0              0 V3000
M  V30 BEGIN CTAB
M  V30 COUNTS 26 27 0 0 0
M  V30 BEGIN ATOM
M  V30 1 O 3.2646 -0.3976 1.9896 0
M  V30 2 N 2.4206 -1.1014 1.4188 0 CHG=1
M  V30 3 O 2.6412 -1.8938 0.4947 0 CHG=-1
M  V30 4 C 1.0603 -1.0033 1.8958 0
M  V30 5 C 0.0931 -0.3058 1.1579 0
M  V30 6 C 0.7647 -1.6618 3.0997 0
M  V30 7 C 0.3713 0.4191 -0.0786 0
M  V30 8 C -1.215 -0.3033 1.6738 0
M  V30 9 C -0.5393 -1.6339 3.5856 0
M  V30 10 O -0.6182 0.3737 -1.0191 0
M  V30 11 C 1.4213 1.1771 -0.5548 0
M  V30 12 C -1.5279 -0.9583 2.872 0
M  V30 13 C -0.2004 1.0931 -2.1081 0
M  V30 14 C 1.0563 1.6068 -1.8559 0
M  V30 15 C -1.0989 1.1749 -3.243 0
M  V30 16 N -0.7922 1.8699 -4.2956 0
M  V30 17 N -2.2972 0.5422 -3.279 0
M  V30 18 H 1.5372 -2.1948 3.6498 0
M  V30 19 H -2.009 0.2247 1.1463 0
M  V30 20 H -0.7883 -2.1396 4.516 0
M  V30 21 H 2.3422 1.408 -0.036 0
M  V30 22 H -2.5489 -0.9355 3.2482 0
M  V30 23 H 1.647 2.2178 -2.5234 0
M  V30 24 H 0.1229 2.3109 -4.1857 0
M  V30 25 H -2.8595 0.6372 -4.1118 0
M  V30 26 H -2.6021 -0.0429 -2.5153 0
M  V30 END ATOM
M  V30 BEGIN BOND
M  V30 1 2 1 2
M  V30 2 1 2 3
M  V30 3 1 2 4
M  V30 4 2 4 5
M  V30 5 1 4 6
M  V30 6 1 5 7
M  V30 7 1 5 8
M  V30 8 2 6 9
M  V30 9 1 7 10
M  V30 10 2 7 11
M  V30 11 2 8 12
M  V30 12 1 10 13
M  V30 13 1 11 14
M  V30 14 1 13 15
M  V30 15 2 15 16
M  V30 16 1 15 17
M  V30 17 1 9 12
M  V30 18 2 13 14
M  V30 19 1 6 18
M  V30 20 1 8 19
M  V30 21 1 9 20
M  V30 22 1 11 21
M  V30 23 1 12 22
M  V30 24 1 14 23
M  V30 25 1 16 24
M  V30 26 1 17 25
M  V30 27 1 17 26
M  V30 END BOND
M  V30 END CTAB
M  END
>  <Column 1>
2085

>  <level_0>
2265

>  <index>
2265

>  <Unnamed: 0>
2265

>  <NO.>
2277

>  <Name>
nitrafudam

>  <IUPAC_name>
5-(2-nitrophenyl)furan-2-carboximidamide

>  <SMILES>
N=C(N)c1ccc(-c2ccccc2[N+](=O)[O-])o1

>  <CID>
163304

>  <logBB>


>  <BBB+/BBB->
BBB+

>  <Inchi>
InChI=1S/C11H9N3O3/c12-11(13)10-6-5-9(17-10)7-3-1-2-4-8(7)14(15)16/h1-6H-(H3-12-13)

>  <threshold>
-1

>  <reference>
R1|R19|R6|R27|R27|R27|R30|R30|

>  <group>
B

>  <Class>
1

>  <ABC>
13

>  <ABCGG>
11.8

>  <nAcid>
0

>  <nBase>
2

>  <nAromAtom>
11

>  <nAromBond>
11

>  <nAtom>
26

>  <nHeavyAtom>
17

>  <nSpiro>
0

>  <nBridgehead>
0

>  <nHetero>
6

>  <nN>
3

>  <nO>
3

>  <nF>
0

>  <BalabanJ>
1.96

>  <BertzCT>
589.15

>  <nBonds>
27

>  <nBondsO>
18

>  <nBondsS>
14

>  <nBondsD>
2

>  <nBondsT>
0

>  <nBondsA>
11

>  <nBondsM>
13

>  <nBondsKS>
20

>  <nBondsKD>
7

>  <RNCG>
0.25

>  <RPCG>
0.15

>  <FCSP3>
0

>  <SZ>
20

>  <Sm>
19.25

>  <Sv>
17.86

>  <Sse>
26.98

>  <Sp>
18.01

>  <Si>
29.37

>  <MZ>
0.77

>  <Mm>
0.74

>  <Mv>
0.69

>  <Mse>
1.04

>  <Mp>
0.69

>  <Mi>
1.13

>  <NsCH3>
0

>  <NdCH2>
0

>  <NssCH2>
0

>  <NtCH>
0

>  <NdsCH>
0

>  <NaaCH>
6

>  <NsssCH>
0

>  <NddC>
0

>  <NtsC>
0

>  <NdssC>
1

>  <NaasC>
4

>  <NaaaC>
0

>  <NssssC>
0

>  <NsNH3>
0

>  <NsNH2>
1

>  <NssNH2>
0

>  <NdNH>
1

>  <NssNH>
0

>  <NaaNH>
0

>  <NtN>
0

>  <NsssNH>
0

>  <NdsN>
0

>  <NaaN>
0

>  <NsssN>
0

>  <NddsN>
1

>  <NaasN>
0

>  <NssssN>
0

>  <NsOH>
0

>  <NdO>
1

>  <NssO>
0

>  <NaaO>
1

>  <NsF>
0

>  <NsSiH3>
0

>  <NssSiH2>
0

>  <NsssSiH>
0

>  <NssssSi>
0

>  <NsPH2>
0

>  <NssPH>
0

>  <NsssP>
0

>  <NdsssP>
0

>  <NsssssP>
0

>  <NsSH>
0

>  <NdS>
0

>  <NssS>
0

>  <NaaS>
0

>  <NdssS>
0

>  <NddssS>
0

>  <NsCl>
0

>  <NsBr>
0

>  <NsI>
0

>  <fragCpx>
52.06

>  <fMF>
0.42

>  <nHBAcc>
4

>  <nHBDon>
2

>  <Kier1>
13.43

>  <Kier2>
5.76

>  <Lipinski>
1

>  <GhoseFilter>
1

>  <FilterItLogS>
-2.97

>  <VMcGowan>
161.58

>  <LabuteASA>
96.33

>  <PEOE_VSA1>
10.15

>  <PEOE_VSA2>
15.52

>  <PEOE_VSA3>
0

>  <PEOE_VSA4>
0

>  <PEOE_VSA5>
0

>  <PEOE_VSA6>
12.13

>  <PEOE_VSA7>
18.2

>  <PEOE_VSA8>
6.07

>  <PEOE_VSA9>
10.49

>  <PEOE_VSA10>
5.76

>  <PEOE_VSA11>
11.6

>  <PEOE_VSA12>
0

>  <PEOE_VSA13>
5.69

>  <SMR_VSA1>
9.34

>  <SMR_VSA2>
5.41

>  <SMR_VSA3>
0

>  <SMR_VSA4>
5.73

>  <SMR_VSA5>
0

>  <SMR_VSA6>
0

>  <SMR_VSA7>
52.27

>  <SMR_VSA8>
0

>  <SMR_VSA9>
11.32

>  <SlogP_VSA1>
5.73

>  <SlogP_VSA2>
10.76

>  <SlogP_VSA3>
0

>  <SlogP_VSA4>
15.52

>  <SlogP_VSA5>
5.76

>  <SlogP_VSA6>
40.82

>  <SlogP_VSA7>
0

>  <SlogP_VSA8>
11.32

>  <SlogP_VSA9>
0

>  <SlogP_VSA10>
5.69

>  <SlogP_VSA11>
0

>  <EState_VSA1>
4.92

>  <EState_VSA2>
17.28

>  <EState_VSA3>
11.32

>  <EState_VSA4>
0

>  <EState_VSA5>
12.13

>  <EState_VSA6>
24.27

>  <EState_VSA7>
0

>  <EState_VSA8>
0

>  <EState_VSA9>
15.56

>  <EState_VSA10>
10.11

>  <VSA_EState1>
5.27

>  <VSA_EState2>
10.35

>  <VSA_EState3>
18.03

>  <VSA_EState4>
5.58

>  <VSA_EState5>
0.3

>  <VSA_EState6>
9.3

>  <VSA_EState7>
0

>  <VSA_EState8>
0

>  <VSA_EState9>
0

>  <apol>
30.08

>  <bpol>
11.36

>  <nRing>
2

>  <nHRing>
1

>  <naRing>
2

>  <naHRing>
1

>  <nARing 2>
0

>  <nAHRing 2>
0

>  <nFRing>
0

>  <nFHRing>
0

>  <nFaRing>
0

>  <nFaHRing>
0

>  <nFARing 2>
0

>  <nFAHRing 2>
0

>  <nRot>
3

>  <SLogP>
2.14

>  <SMR>
61.81

>  <TopoPSA(NO)>
106.15

>  <TopoPSA>
106.15

>  <JGI1>
0.19

>  <JGI2>
0.09

>  <JGI3>
0.05

>  <JGI4>
0.04

>  <JGI5>
0.03

>  <Diameter>
8

>  <Radius>
4

>  <TMWC10>
106.31

>  <TSRW10>
63.19

>  <MW>
231.06

>  <AMW>
8.89

>  <WPath>
511

>  <WPol>
24

>  <Zagreb1>
86

>  <Zagreb2>
100

>  <mZagreb2>
3.78

>  <yes>


>  <nAR-cont>
0.336376

>  <nHA-cont>
0.976740822

>  <MWHBN>
0.394719758

>  <MWHBN-cont>
0.496860086

>  <TPSA-cont>
0.259007085

>  <pka_cont>
0.97

>  <yes.1>


>  <BBB_SCORE>
3.06142112

>  <MMFF94 Energy>
10.019

$$$$
Compound 1713
Actelion Java MolfileCreator 2.0

  0  0  0  0  0  0              0 V3000
M  V30 BEGIN CTAB
M  V30 COUNTS 38 40 0 0 0
M  V30 BEGIN ATOM
M  V30 1 O -2.9563 -3.5164 -3.5964 0
M  V30 2 N -2.7538 -2.7022 -2.6857 0
M  V30 3 C -1.473 -1.9591 -2.816 0
M  V30 4 N -0.7264 -2.2453 -3.8567 0
M  V30 5 C -0.9504 -0.8979 -1.8563 0
M  V30 6 N 0.2804 -0.3807 -2.2438 0
M  V30 7 C -1.6384 -0.5442 -0.7488 0
M  V30 8 N 1.0345 0.5916 -1.6916 0
M  V30 9 O -2.8514 -1.1332 -0.4623 0
M  V30 10 N -1.2749 0.4073 0.1999 0
M  V30 11 C 0.5473 1.6832 -0.9498 0
M  V30 12 C -0.5868 1.6181 -0.1098 0
M  V30 13 C -1.1676 0.0346 1.6305 0
M  V30 14 C 1.2081 2.9173 -1.1141 0
M  V30 15 C -1.0284 2.81 0.5095 0
M  V30 16 C 0.1305 -0.6817 1.947 0
M  V30 17 C 0.7631 4.0753 -0.4768 0
M  V30 18 C -0.3629 4.0233 0.3309 0
M  V30 19 C 0.237 -2.0709 1.7815 0
M  V30 20 C 1.2519 0.0349 2.391 0
M  V30 21 C 1.4341 -2.7292 2.067 0
M  V30 22 C 2.4481 -0.6254 2.6761 0
M  V30 23 C 2.5379 -2.0068 2.5165 0
M  V30 24 H -1.2241 -2.9713 -4.3916 0
M  V30 25 H 0.5992 -0.8086 -3.1236 0
M  V30 26 H 2.0223 0.6272 -1.9297 0
M  V30 27 H -3.31 -0.4662 0.0769 0
M  V30 28 H -1.2786 0.8994 2.2973 0
M  V30 29 H -2.002 -0.6224 1.9117 0
M  V30 30 H 2.0739 2.9835 -1.7687 0
M  V30 31 H -1.9175 2.7966 1.1354 0
M  V30 32 H 1.2865 5.0155 -0.628 0
M  V30 33 H -0.7288 4.9229 0.8185 0
M  V30 34 H -0.612 -2.6461 1.4183 0
M  V30 35 H 1.2021 1.1157 2.5048 0
M  V30 36 H 1.5069 -3.8049 1.9311 0
M  V30 37 H 3.3119 -0.0601 3.0155 0
M  V30 38 H 3.4709 -2.5198 2.7338 0
M  V30 END ATOM
M  V30 BEGIN BOND
M  V30 1 2 1 2
M  V30 2 1 2 3
M  V30 3 2 3 4
M  V30 4 1 3 5
M  V30 5 1 5 6
M  V30 6 2 5 7
M  V30 7 1 6 8
M  V30 8 1 7 9
M  V30 9 1 7 10
M  V30 10 1 8 11
M  V30 11 1 10 12
M  V30 12 1 10 13
M  V30 13 1 11 14
M  V30 14 1 12 15
M  V30 15 1 13 16
M  V30 16 2 14 17
M  V30 17 2 15 18
M  V30 18 2 16 19
M  V30 19 1 16 20
M  V30 20 1 19 21
M  V30 21 2 20 22
M  V30 22 2 21 23
M  V30 23 2 11 12
M  V30 24 1 17 18
M  V30 25 1 22 23
M  V30 26 1 4 24
M  V30 27 1 6 25
M  V30 28 1 8 26
M  V30 29 1 9 27
M  V30 30 1 13 28
M  V30 31 1 13 29
M  V30 32 1 14 30
M  V30 33 1 15 31
M  V30 34 1 17 32
M  V30 35 1 18 33
M  V30 36 1 19 34
M  V30 37 1 20 35
M  V30 38 1 21 36
M  V30 39 1 22 37
M  V30 40 1 23 38
M  V30 END BOND
M  V30 END CTAB
M  END
>  <Column 1>
2086

>  <level_0>
2266

>  <index>
2266

>  <Unnamed: 0>
2266

>  <NO.>
2278

>  <Name>
trizoxime

>  <IUPAC_name>
5-benzyl-4-hydroxy-n-oxo-1-2-dihydro-1-2-5-benzotriazepine-3-carboximidamide

>  <SMILES>
N=C(N=O)c1[nH][nH]c2ccccc2n(Cc2ccccc2)c1O

>  <CID>
3047751

>  <logBB>


>  <BBB+/BBB->
BBB+

>  <Inchi>
InChI=1S/C16H15N5O2/c17-15(20-23)14-16(22)21(10-11-6-2-1-3-7-11)13-9-5-4-8-12(13)18-19-14/h1-9-17-19-22H-10H2

>  <threshold>
-1

>  <reference>
R1|R13|R13|R19|R6|R24|R27|R27|R27|R30|R30|

>  <group>
B

>  <Class>
1

>  <ABC>
17.69

>  <ABCGG>
14.67

>  <nAcid>
0

>  <nBase>
2

>  <nAromAtom>
17

>  <nAromBond>
18

>  <nAtom>
38

>  <nHeavyAtom>
23

>  <nSpiro>
0

>  <nBridgehead>
0

>  <nHetero>
7

>  <nN>
5

>  <nO>
2

>  <nF>
0

>  <BalabanJ>
1.76

>  <BertzCT>
903.12

>  <nBonds>
40

>  <nBondsO>
25

>  <nBondsS>
20

>  <nBondsD>
2

>  <nBondsT>
0

>  <nBondsA>
18

>  <nBondsM>
20

>  <nBondsKS>
31

>  <nBondsKD>
9

>  <RNCG>
0.21

>  <RPCG>
0.13

>  <FCSP3>
0.06

>  <SZ>
27

>  <Sm>
25.75

>  <Sv>
25.28

>  <Sse>
38.64

>  <Sp>
26.24

>  <Si>
42.99

>  <MZ>
0.71

>  <Mm>
0.68

>  <Mv>
0.67

>  <Mse>
1.02

>  <Mp>
0.69

>  <Mi>
1.13

>  <NsCH3>
0

>  <NdCH2>
0

>  <NssCH2>
1

>  <NtCH>
0

>  <NdsCH>
0

>  <NaaCH>
9

>  <NsssCH>
0

>  <NddC>
0

>  <NtsC>
0

>  <NdssC>
1

>  <NaasC>
3

>  <NaaaC>
2

>  <NssssC>
0

>  <NsNH3>
0

>  <NsNH2>
0

>  <NssNH2>
0

>  <NdNH>
1

>  <NssNH>
0

>  <NaaNH>
2

>  <NtN>
0

>  <NsssNH>
0

>  <NdsN>
1

>  <NaaN>
0

>  <NsssN>
0

>  <NddsN>
0

>  <NaasN>
1

>  <NssssN>
0

>  <NsOH>
1

>  <NdO>
1

>  <NssO>
0

>  <NaaO>
0

>  <NsF>
0

>  <NsSiH3>
0

>  <NssSiH2>
0

>  <NsssSiH>
0

>  <NssssSi>
0

>  <NsPH2>
0

>  <NssPH>
0

>  <NsssP>
0

>  <NdsssP>
0

>  <NsssssP>
0

>  <NsSH>
0

>  <NdS>
0

>  <NssS>
0

>  <NaaS>
0

>  <NdssS>
0

>  <NddssS>
0

>  <NsCl>
0

>  <NsBr>
0

>  <NsI>
0

>  <fragCpx>
119.07

>  <fMF>
0.47

>  <nHBAcc>
4

>  <nHBDon>
4

>  <Kier1>
17.81

>  <Kier2>
8.39

>  <Lipinski>
1

>  <GhoseFilter>
1

>  <FilterItLogS>
-3.58

>  <VMcGowan>
226.66

>  <LabuteASA>
130.92

>  <PEOE_VSA1>
9.67

>  <PEOE_VSA2>
15.61

>  <PEOE_VSA3>
0

>  <PEOE_VSA4>
0

>  <PEOE_VSA5>
4.91

>  <PEOE_VSA6>
42.46

>  <PEOE_VSA7>
22.87

>  <PEOE_VSA8>
0

>  <PEOE_VSA9>
17.58

>  <PEOE_VSA10>
0

>  <PEOE_VSA11>
5.69

>  <PEOE_VSA12>
11.72

>  <PEOE_VSA13>
0

>  <SMR_VSA1>
5.11

>  <SMR_VSA2>
5.41

>  <SMR_VSA3>
14.76

>  <SMR_VSA4>
5.18

>  <SMR_VSA5>
6.54

>  <SMR_VSA6>
0

>  <SMR_VSA7>
70.76

>  <SMR_VSA8>
0

>  <SMR_VSA9>
5.88

>  <SlogP_VSA1>
0

>  <SlogP_VSA2>
25.71

>  <SlogP_VSA3>
6.54

>  <SlogP_VSA4>
10.32

>  <SlogP_VSA5>
11.26

>  <SlogP_VSA6>
59.77

>  <SlogP_VSA7>
0

>  <SlogP_VSA8>
11.03

>  <SlogP_VSA9>
0

>  <SlogP_VSA10>
0

>  <SlogP_VSA11>
5.88

>  <EState_VSA1>
5.84

>  <EState_VSA2>
11.57

>  <EState_VSA3>
12.06

>  <EState_VSA4>
11.08

>  <EState_VSA5>
0

>  <EState_VSA6>
4.57

>  <EState_VSA7>
54.6

>  <EState_VSA8>
15.37

>  <EState_VSA9>
5.41

>  <EState_VSA10>
10.01

>  <VSA_EState1>
1.62

>  <VSA_EState2>
10.69

>  <VSA_EState3>
26.35

>  <VSA_EState4>
2.33

>  <VSA_EState5>
-0.82

>  <VSA_EState6>
16.96

>  <VSA_EState7>
0

>  <VSA_EState8>
0.38

>  <VSA_EState9>
0

>  <apol>
43.83

>  <bpol>
17.63

>  <nRing>
3

>  <nHRing>
1

>  <naRing>
3

>  <naHRing>
1

>  <nARing 2>
0

>  <nAHRing 2>
0

>  <nFRing>
1

>  <nFHRing>
1

>  <nFaRing>
1

>  <nFaHRing>
1

>  <nFARing 2>
0

>  <nFAHRing 2>
0

>  <nRot>
3

>  <SLogP>
3.27

>  <SMR>
88.1

>  <TopoPSA(NO)>
110.02

>  <TopoPSA>
110.02

>  <JGI1>
0.14

>  <JGI2>
0.08

>  <JGI3>
0.04

>  <JGI4>
0.04

>  <JGI5>
0.03

>  <Diameter>
10

>  <Radius>
5

>  <TMWC10>
122.43

>  <TSRW10>
65.29

>  <MW>
309.12

>  <AMW>
8.13

>  <WPath>
1103

>  <WPol>
40

>  <Zagreb1>
118

>  <Zagreb2>
139

>  <mZagreb2>
5.22

>  <yes>


>  <nAR-cont>
0.336376

>  <nHA-cont>
0.967789328

>  <MWHBN>
0.455015755

>  <MWHBN-cont>
0

>  <TPSA-cont>
0.231992082

>  <pka_cont>
0.97

>  <yes.1>


>  <BBB_SCORE>
2.253149491

>  <MMFF94 Energy>
141.93

$$$$
Compound 1714
Actelion Java MolfileCreator 2.0

  0  0  0  0  0  0              0 V3000
M  V30 BEGIN CTAB
M  V30 COUNTS 24 25 0 0 0
M  V30 BEGIN ATOM
M  V30 1 Cl 1.4788 3.9471 2.4656 0
M  V30 2 C 0.9264 2.6044 1.5432 0
M  V30 3 C 0.3576 1.5079 2.1846 0
M  V30 4 C 1.0565 2.6161 0.1621 0
M  V30 5 C -0.1068 0.4054 1.4499 0
M  V30 6 C 0.6163 1.5184 -0.5808 0
M  V30 7 N -0.5821 -0.695 2.1582 0
M  V30 8 C 0.0296 0.3934 0.0361 0
M  V30 9 N -0.3984 -0.693 -0.7537 0
M  V30 10 C -1.5921 -1.3627 -0.6554 0
M  V30 11 C 0.4402 -1.1084 -1.8785 0
M  V30 12 S -1.6634 -2.7136 -1.7815 0
M  V30 13 N -2.6097 -1.158 0.0974 0
M  V30 14 C 0.1044 -2.57 -2.1587 0
M  V30 15 H 0.2812 1.5059 3.2688 0
M  V30 16 H 1.4955 3.4715 -0.3442 0
M  V30 17 H 0.7143 1.5672 -1.6625 0
M  V30 18 H -0.7649 -0.6303 3.1506 0
M  V30 19 H -0.9949 -1.482 1.6683 0
M  V30 20 H 1.5107 -1.0151 -1.6593 0
M  V30 21 H 0.2155 -0.495 -2.7604 0
M  V30 22 H -2.4239 -0.3259 0.6677 0
M  V30 23 H 0.3243 -2.8538 -3.191 0
M  V30 24 H 0.6574 -3.2296 -1.4821 0
M  V30 END ATOM
M  V30 BEGIN BOND
M  V30 1 1 1 2
M  V30 2 2 2 3
M  V30 3 1 2 4
M  V30 4 1 3 5
M  V30 5 2 4 6
M  V30 6 1 5 7
M  V30 7 2 5 8
M  V30 8 1 8 9
M  V30 9 1 9 10
M  V30 10 1 9 11
M  V30 11 1 10 12
M  V30 12 2 10 13
M  V30 13 1 11 14
M  V30 14 1 6 8
M  V30 15 1 12 14
M  V30 16 1 3 15
M  V30 17 1 4 16
M  V30 18 1 6 17
M  V30 19 1 7 18
M  V30 20 1 7 19
M  V30 21 1 11 20
M  V30 22 1 11 21
M  V30 23 1 13 22
M  V30 24 1 14 23
M  V30 25 1 14 24
M  V30 END BOND
M  V30 END CTAB
M  END
>  <Column 1>
2087

>  <level_0>
2267

>  <index>
2267

>  <Unnamed: 0>
2267

>  <NO.>
2279

>  <Name>
timirdine

>  <IUPAC_name>
5-chloro-2-(2-imino-1-3-thiazolidin-3-yl)aniline

>  <SMILES>
N=C1SCCN1c1ccc(Cl)cc1N

>  <CID>
3063289

>  <logBB>


>  <BBB+/BBB->
BBB+

>  <Inchi>
InChI=1S/C9H10ClN3S/c10-6-1-2-8(7(11)5-6)13-3-4-14-9(13)12/h1-2-5-12H-3-4-11H2

>  <threshold>
-1

>  <reference>
R1|R13|R19|R6|R24|R27|R27|R27|R30|R30|

>  <group>
B

>  <Class>
1

>  <ABC>
10.81

>  <ABCGG>
10.04

>  <nAcid>
0

>  <nBase>
2

>  <nAromAtom>
6

>  <nAromBond>
6

>  <nAtom>
24

>  <nHeavyAtom>
14

>  <nSpiro>
0

>  <nBridgehead>
0

>  <nHetero>
5

>  <nN>
3

>  <nO>
0

>  <nF>
0

>  <BalabanJ>
1.96

>  <BertzCT>
380.32

>  <nBonds>
25

>  <nBondsO>
15

>  <nBondsS>
18

>  <nBondsD>
1

>  <nBondsT>
0

>  <nBondsA>
6

>  <nBondsM>
7

>  <nBondsKS>
21

>  <nBondsKD>
4

>  <RNCG>
0.32

>  <RPCG>
0.15

>  <FCSP3>
0.22

>  <SZ>
19.67

>  <Sm>
18.96

>  <Sv>
16.26

>  <Sse>
24.27

>  <Sp>
18.01

>  <Si>
27.02

>  <MZ>
0.82

>  <Mm>
0.79

>  <Mv>
0.68

>  <Mse>
1.01

>  <Mp>
0.75

>  <Mi>
1.13

>  <NsCH3>
0

>  <NdCH2>
0

>  <NssCH2>
2

>  <NtCH>
0

>  <NdsCH>
0

>  <NaaCH>
3

>  <NsssCH>
0

>  <NddC>
0

>  <NtsC>
0

>  <NdssC>
1

>  <NaasC>
3

>  <NaaaC>
0

>  <NssssC>
0

>  <NsNH3>
0

>  <NsNH2>
1

>  <NssNH2>
0

>  <NdNH>
1

>  <NssNH>
0

>  <NaaNH>
0

>  <NtN>
0

>  <NsssNH>
0

>  <NdsN>
0

>  <NaaN>
0

>  <NsssN>
1

>  <NddsN>
0

>  <NaasN>
0

>  <NssssN>
0

>  <NsOH>
0

>  <NdO>
0

>  <NssO>
0

>  <NaaO>
0

>  <NsF>
0

>  <NsSiH3>
0

>  <NssSiH2>
0

>  <NsssSiH>
0

>  <NssssSi>
0

>  <NsPH2>
0

>  <NssPH>
0

>  <NsssP>
0

>  <NdsssP>
0

>  <NsssssP>
0

>  <NsSH>
0

>  <NdS>
0

>  <NssS>
1

>  <NaaS>
0

>  <NdssS>
0

>  <NddssS>
0

>  <NsCl>
1

>  <NsBr>
0

>  <NsI>
0

>  <fragCpx>
43.05

>  <fMF>
0.46

>  <nHBAcc>
3

>  <nHBDon>
2

>  <Kier1>
10.52

>  <Kier2>
4.24

>  <Lipinski>
1

>  <GhoseFilter>
1

>  <FilterItLogS>
-2.52

>  <VMcGowan>
157.28

>  <LabuteASA>
91.73

>  <PEOE_VSA1>
10.63

>  <PEOE_VSA2>
5.41

>  <PEOE_VSA3>
0

>  <PEOE_VSA4>
0

>  <PEOE_VSA5>
0

>  <PEOE_VSA6>
23.36

>  <PEOE_VSA7>
18.2

>  <PEOE_VSA8>
17.32

>  <PEOE_VSA9>
11.37

>  <PEOE_VSA10>
0

>  <PEOE_VSA11>
5.17

>  <PEOE_VSA12>
0

>  <PEOE_VSA13>
0

>  <SMR_VSA1>
0

>  <SMR_VSA2>
5.41

>  <SMR_VSA3>
0

>  <SMR_VSA4>
0

>  <SMR_VSA5>
0

>  <SMR_VSA6>
22.93

>  <SMR_VSA7>
23.22

>  <SMR_VSA8>
0

>  <SMR_VSA9>
0

>  <SlogP_VSA1>
10.63

>  <SlogP_VSA2>
17.47

>  <SlogP_VSA3>
0

>  <SlogP_VSA4>
5.41

>  <SlogP_VSA5>
0

>  <SlogP_VSA6>
18.2

>  <SlogP_VSA7>
5.02

>  <SlogP_VSA8>
0

>  <SlogP_VSA9>
0

>  <SlogP_VSA10>
11.37

>  <SlogP_VSA11>
0

>  <EState_VSA1>
0

>  <EState_VSA2>
0

>  <EState_VSA3>
15.88

>  <EState_VSA4>
17.99

>  <EState_VSA5>
11.76

>  <EState_VSA6>
12.13

>  <EState_VSA7>
10.97

>  <EState_VSA8>
0

>  <EState_VSA9>
22.74

>  <EState_VSA10>
0

>  <VSA_EState1>
0

>  <VSA_EState2>
1.9

>  <VSA_EState3>
8.88

>  <VSA_EState4>
7.34

>  <VSA_EState5>
0.95

>  <VSA_EState6>
5.37

>  <VSA_EState7>
0

>  <VSA_EState8>
0.84

>  <VSA_EState9>
0

>  <apol>
30.08

>  <bpol>
14.14

>  <nRing>
2

>  <nHRing>
1

>  <naRing>
1

>  <naHRing>
0

>  <nARing 2>
1

>  <nAHRing 2>
1

>  <nFRing>
0

>  <nFHRing>
0

>  <nFaRing>
0

>  <nFaHRing>
0

>  <nFARing 2>
0

>  <nFAHRing 2>
0

>  <nRot>
1

>  <SLogP>
2.41

>  <SMR>
63.4

>  <TopoPSA(NO)>
53.11

>  <TopoPSA>
78.41

>  <JGI1>
0.2

>  <JGI2>
0.1

>  <JGI3>
0.06

>  <JGI4>
0.05

>  <JGI5>
0.03

>  <Diameter>
7

>  <Radius>
4

>  <TMWC10>
98.67

>  <TSRW10>
59.3

>  <MW>
227.03

>  <AMW>
9.46

>  <WPath>
289

>  <WPol>
19

>  <Zagreb1>
72

>  <Zagreb2>
84

>  <mZagreb2>
3.08

>  <yes>


>  <nAR-cont>
0.816016

>  <nHA-cont>
0.887625254

>  <MWHBN>
0.331839729

>  <MWHBN-cont>
0.736372093

>  <TPSA-cont>
0.45264951

>  <pka_cont>
0.97

>  <yes.1>


>  <BBB_SCORE>
4.198498414

>  <MMFF94 Energy>
-13.549

$$$$
Compound 1715
Actelion Java MolfileCreator 2.0

  0  0  0  0  0  0              0 V3000
M  V30 BEGIN CTAB
M  V30 COUNTS 57 59 0 0 0
M  V30 BEGIN ATOM
M  V30 1 F 1.4312 2.3862 5.1758 0
M  V30 2 C 0.332 2.1668 4.4431 0
M  V30 3 C -0.249 3.2161 3.7448 0
M  V30 4 C -0.2079 0.8878 4.387 0
M  V30 5 C -1.3936 2.9807 2.9794 0
M  V30 6 C -1.3523 0.6491 3.6187 0
M  V30 7 C -1.9595 1.6955 2.911 0
M  V30 8 C -3.1785 1.515 2.0592 0
M  V30 9 O -3.5514 2.4502 1.3471 0
M  V30 10 C -3.9763 0.2235 2.0977 0
M  V30 11 C -4.0041 -0.4871 0.7437 0
M  V30 12 C -2.7628 -1.3497 0.4685 0
M  V30 13 N -1.4924 -0.6101 0.4852 0
M  V30 14 C -1.3643 0.2742 -0.6885 0
M  V30 15 C -0.3573 -1.5436 0.5316 0
M  V30 16 C -0.0556 1.0611 -0.6339 0
M  V30 17 C 0.9735 -0.7921 0.6055 0
M  V30 18 C 1.1967 0.1373 -0.6183 0
M  V30 19 N 1.3312 -0.6266 -1.9171 0
M  V30 20 C 2.441 1.0526 -0.3827 0
M  V30 21 C 1.5197 0.2455 -3.0964 0
M  V30 22 C 2.3424 -1.6953 -1.9185 0
M  V30 23 O 2.4877 2.2397 -0.7032 0
M  V30 24 N 3.5593 0.481 0.154 0
M  V30 25 C 1.4163 -0.5449 -4.4041 0
M  V30 26 C 2.2619 -2.5473 -3.1889 0
M  V30 27 C 2.4101 -1.695 -4.4395 0
M  V30 28 H 0.1902 4.2075 3.7925 0
M  V30 29 H 0.2704 0.0808 4.9329 0
M  V30 30 H -1.8402 3.8064 2.4273 0
M  V30 31 H -1.7242 -0.3681 3.5677 0
M  V30 32 H -3.664 -0.4547 2.8925 0
M  V30 33 H -5.0004 0.5199 2.3617 0
M  V30 34 H -4.8745 -1.1558 0.732 0
M  V30 35 H -4.1646 0.2296 -0.0691 0
M  V30 36 H -2.7375 -2.1242 1.2469 0
M  V30 37 H -2.8925 -1.8767 -0.4857 0
M  V30 38 H -2.1802 1.0039 -0.7052 0
M  V30 39 H -1.4289 -0.2969 -1.6233 0
M  V30 40 H -0.4363 -2.1649 1.4325 0
M  V30 41 H -0.3675 -2.2242 -0.329 0
M  V30 42 H -0.0562 1.6816 0.2746 0
M  V30 43 H -0.0321 1.7879 -1.4522 0
M  V30 44 H 1.7836 -1.5156 0.7401 0
M  V30 45 H 0.9918 -0.1887 1.5247 0
M  V30 46 H 2.4923 0.7513 -3.0587 0
M  V30 47 H 0.7511 1.02 -3.151 0
M  V30 48 H 3.3544 -1.2841 -1.8307 0
M  V30 49 H 2.1929 -2.3854 -1.0842 0
M  V30 50 H 3.6292 -0.4917 0.4075 0
M  V30 51 H 4.3639 1.0795 0.2858 0
M  V30 52 H 1.5955 0.1232 -5.2541 0
M  V30 53 H 0.397 -0.9364 -4.5154 0
M  V30 54 H 1.3002 -3.0756 -3.2156 0
M  V30 55 H 3.0457 -3.313 -3.1698 0
M  V30 56 H 3.4311 -1.2984 -4.4964 0
M  V30 57 H 2.25 -2.3058 -5.3345 0
M  V30 END ATOM
M  V30 BEGIN BOND
M  V30 1 1 1 2
M  V30 2 2 2 3
M  V30 3 1 2 4
M  V30 4 1 3 5
M  V30 5 2 4 6
M  V30 6 2 5 7
M  V30 7 1 7 8
M  V30 8 2 8 9
M  V30 9 1 8 10
M  V30 10 1 10 11
M  V30 11 1 11 12
M  V30 12 1 12 13
M  V30 13 1 13 14
M  V30 14 1 13 15
M  V30 15 1 14 16
M  V30 16 1 15 17
M  V30 17 1 16 18
M  V30 18 1 18 19
M  V30 19 1 18 20
M  V30 20 1 19 21
M  V30 21 1 19 22
M  V30 22 2 20 23
M  V30 23 1 20 24
M  V30 24 1 21 25
M  V30 25 1 22 26
M  V30 26 1 25 27
M  V30 27 1 6 7
M  V30 28 1 17 18
M  V30 29 1 26 27
M  V30 30 1 3 28
M  V30 31 1 4 29
M  V30 32 1 5 30
M  V30 33 1 6 31
M  V30 34 1 10 32
M  V30 35 1 10 33
M  V30 36 1 11 34
M  V30 37 1 11 35
M  V30 38 1 12 36
M  V30 39 1 12 37
M  V30 40 1 14 38
M  V30 41 1 14 39
M  V30 42 1 15 40
M  V30 43 1 15 41
M  V30 44 1 16 42
M  V30 45 1 16 43
M  V30 46 1 17 44
M  V30 47 1 17 45
M  V30 48 1 21 46
M  V30 49 1 21 47
M  V30 50 1 22 48
M  V30 51 1 22 49
M  V30 52 1 24 50
M  V30 53 1 24 51
M  V30 54 1 25 52
M  V30 55 1 25 53
M  V30 56 1 26 54
M  V30 57 1 26 55
M  V30 58 1 27 56
M  V30 59 1 27 57
M  V30 END BOND
M  V30 END CTAB
M  END
>  <Column 1>
2088

>  <level_0>
2268

>  <index>
2268

>  <Unnamed: 0>
2268

>  <NO.>
2280

>  <Name>
pipamperone

>  <IUPAC_name>
1-[4-(4-fluorophenyl)-4-oxobutyl]-4-piperidin-1-ylpiperidine-4-carboxamide

>  <SMILES>
NC(=O)C1(N2CCCCC2)CCN(CCCC(=O)c2ccc(F)cc2)CC1

>  <CID>
4830

>  <logBB>


>  <BBB+/BBB->
BBB+

>  <Inchi>
InChI=1S/C21H30FN3O2/c22-18-8-6-17(7-9-18)19(26)5-4-12-24-15-10-21(11-16-24-20(23)27)25-13-2-1-3-14-25/h6-9H-1-5-10-16H2-(H2-23-27)

>  <threshold>
-1

>  <reference>
R1|R13|R19|R6|R24|R27|R27|R27|R30|R30|

>  <group>
B

>  <Class>
1

>  <ABC>
20.78

>  <ABCGG>
15.8

>  <nAcid>
0

>  <nBase>
2

>  <nAromAtom>
6

>  <nAromBond>
6

>  <nAtom>
57

>  <nHeavyAtom>
27

>  <nSpiro>
0

>  <nBridgehead>
0

>  <nHetero>
6

>  <nN>
3

>  <nO>
2

>  <nF>
1

>  <BalabanJ>
1.39

>  <BertzCT>
647.9

>  <nBonds>
59

>  <nBondsO>
29

>  <nBondsS>
51

>  <nBondsD>
2

>  <nBondsT>
0

>  <nBondsA>
6

>  <nBondsM>
8

>  <nBondsKS>
54

>  <nBondsKD>
5

>  <RNCG>
0.18

>  <RPCG>
0.11

>  <FCSP3>
0.62

>  <SZ>
33.67

>  <Sm>
31.26

>  <Sv>
33.48

>  <Sse>
56.92

>  <Sp>
36.25

>  <Si>
65.07

>  <MZ>
0.59

>  <Mm>
0.55

>  <Mv>
0.59

>  <Mse>
1

>  <Mp>
0.64

>  <Mi>
1.14

>  <NsCH3>
0

>  <NdCH2>
0

>  <NssCH2>
12

>  <NtCH>
0

>  <NdsCH>
0

>  <NaaCH>
4

>  <NsssCH>
0

>  <NddC>
0

>  <NtsC>
0

>  <NdssC>
2

>  <NaasC>
2

>  <NaaaC>
0

>  <NssssC>
1

>  <NsNH3>
0

>  <NsNH2>
1

>  <NssNH2>
0

>  <NdNH>
0

>  <NssNH>
0

>  <NaaNH>
0

>  <NtN>
0

>  <NsssNH>
0

>  <NdsN>
0

>  <NaaN>
0

>  <NsssN>
2

>  <NddsN>
0

>  <NaasN>
0

>  <NssssN>
0

>  <NsOH>
0

>  <NdO>
2

>  <NssO>
0

>  <NaaO>
0

>  <NsF>
1

>  <NsSiH3>
0

>  <NssSiH2>
0

>  <NsssSiH>
0

>  <NssssSi>
0

>  <NsPH2>
0

>  <NssPH>
0

>  <NsssP>
0

>  <NdsssP>
0

>  <NsssssP>
0

>  <NsSH>
0

>  <NdS>
0

>  <NssS>
0

>  <NaaS>
0

>  <NdssS>
0

>  <NddssS>
0

>  <NsCl>
0

>  <NsBr>
0

>  <NsI>
0

>  <fragCpx>
139.06

>  <fMF>
0.39

>  <nHBAcc>
4

>  <nHBDon>
1

>  <Kier1>
21.7

>  <Kier2>
10.16

>  <Lipinski>
1

>  <GhoseFilter>
1

>  <FilterItLogS>
-4.2

>  <VMcGowan>
296.11

>  <LabuteASA>
160.24

>  <PEOE_VSA1>
10.63

>  <PEOE_VSA2>
14.49

>  <PEOE_VSA3>
4.39

>  <PEOE_VSA4>
0

>  <PEOE_VSA5>
0

>  <PEOE_VSA6>
6.42

>  <PEOE_VSA7>
76

>  <PEOE_VSA8>
25.07

>  <PEOE_VSA9>
0

>  <PEOE_VSA10>
11.36

>  <PEOE_VSA11>
5.78

>  <PEOE_VSA12>
5.91

>  <PEOE_VSA13>
0

>  <SMR_VSA1>
13.98

>  <SMR_VSA2>
0

>  <SMR_VSA3>
9.8

>  <SMR_VSA4>
5.73

>  <SMR_VSA5>
50.48

>  <SMR_VSA6>
32.72

>  <SMR_VSA7>
35.65

>  <SMR_VSA8>
0

>  <SMR_VSA9>
0

>  <SlogP_VSA1>
5.73

>  <SlogP_VSA2>
59.75

>  <SlogP_VSA3>
4.79

>  <SlogP_VSA4>
5.82

>  <SlogP_VSA5>
55.3

>  <SlogP_VSA6>
24.27

>  <SlogP_VSA7>
0

>  <SlogP_VSA8>
0

>  <SlogP_VSA9>
0

>  <SlogP_VSA10>
4.39

>  <SlogP_VSA11>
0

>  <EState_VSA1>
5.54

>  <EState_VSA2>
17.51

>  <EState_VSA3>
11.98

>  <EState_VSA4>
64.83

>  <EState_VSA5>
18.55

>  <EState_VSA6>
12.13

>  <EState_VSA7>
0

>  <EState_VSA8>
9.8

>  <EState_VSA9>
5.73

>  <EState_VSA10>
13.98

>  <VSA_EState1>
12.94

>  <VSA_EState2>
29.08

>  <VSA_EState3>
0

>  <VSA_EState4>
5.9

>  <VSA_EState5>
-0.46

>  <VSA_EState6>
5.72

>  <VSA_EState7>
6.29

>  <VSA_EState8>
4.44

>  <VSA_EState9>
0

>  <apol>
60.53

>  <bpol>
35.8

>  <nRing>
3

>  <nHRing>
2

>  <naRing>
1

>  <naHRing>
0

>  <nARing 2>
2

>  <nAHRing 2>
2

>  <nFRing>
0

>  <nFHRing>
0

>  <nFaRing>
0

>  <nFaHRing>
0

>  <nFARing 2>
0

>  <nFAHRing 2>
0

>  <nRot>
7

>  <SLogP>
2.59

>  <SMR>
102.99

>  <TopoPSA(NO)>
66.64

>  <TopoPSA>
66.64

>  <JGI1>
0.21

>  <JGI2>
0.1

>  <JGI3>
0.04

>  <JGI4>
0.03

>  <JGI5>
0.03

>  <Diameter>
16

>  <Radius>
8

>  <TMWC10>
131.56

>  <TSRW10>
62.12

>  <MW>
375.23

>  <AMW>
6.58

>  <WPath>
2162

>  <WPol>
43

>  <Zagreb1>
138

>  <Zagreb2>
161

>  <mZagreb2>
6.03

>  <yes>


>  <nAR-cont>
1

>  <nHA-cont>
0.860070871

>  <MWHBN>
0.258119745

>  <MWHBN-cont>
0.945100852

>  <TPSA-cont>
0.534811419

>  <pka_cont>
0.97

>  <yes.1>


>  <BBB_SCORE>
4.832344988

>  <MMFF94 Energy>
47.7

$$$$
Compound 1716
Actelion Java MolfileCreator 2.0

  0  0  0  0  0  0              0 V3000
M  V30 BEGIN CTAB
M  V30 COUNTS 71 75 0 0 0
M  V30 BEGIN ATOM
M  V30 1 Cl -1.6831 0.5608 -8.0344 0
M  V30 2 C -0.4218 0.3892 -6.876 0
M  V30 3 C -0.5355 -0.5614 -5.8633 0
M  V30 4 C 0.703 1.2005 -6.9555 0
M  V30 5 C 0.4789 -0.7212 -4.9019 0
M  V30 6 C 1.7231 1.0498 -6.0184 0
M  V30 7 N 0.3199 -1.6759 -3.8708 0
M  V30 8 C 1.6188 0.09 -4.9961 0
M  V30 9 C 1.2181 -2.702 -3.4868 0
M  V30 10 C -0.8356 -1.3915 -2.9838 0
M  V30 11 C 2.735 -0.0728 -4.0042 0
M  V30 12 C 2.6211 -2.6295 -3.6362 0
M  V30 13 C 0.6943 -3.9105 -2.9662 0
M  V30 14 C -0.3795 -0.7674 -1.6573 0
M  V30 15 C 3.3882 -1.4377 -4.1694 0
M  V30 16 C 3.4228 -3.7423 -3.2787 0
M  V30 17 C 1.5007 -4.9917 -2.6 0
M  V30 18 C -1.5824 -0.5125 -0.7406 0
M  V30 19 C 2.8715 -4.9076 -2.7582 0
M  V30 20 N -1.2306 0.2195 0.4918 0
M  V30 21 C -2.4602 0.6729 1.1617 0
M  V30 22 C -0.4289 -0.6025 1.409 0
M  V30 23 C -2.1711 1.4877 2.4288 0
M  V30 24 C -0.0068 0.2241 2.6271 0
M  V30 25 C -1.2215 0.7747 3.4188 0
M  V30 26 N -0.7909 1.6429 4.5899 0
M  V30 27 C -1.932 -0.4765 4.0552 0
M  V30 28 C -1.9467 2.228 5.3061 0
M  V30 29 C 0.1792 2.6993 4.2559 0
M  V30 30 O -3.0042 -0.9467 3.6894 0
M  V30 31 N -1.2467 -1.0567 5.0901 0
M  V30 32 C -1.5109 2.9118 6.6028 0
M  V30 33 C 0.669 3.4332 5.5101 0
M  V30 34 C -0.4842 3.9998 6.3246 0
M  V30 35 H -1.4136 -1.201 -5.8269 0
M  V30 36 H 0.7954 1.9434 -7.7426 0
M  V30 37 H 2.6052 1.6823 -6.0911 0
M  V30 38 H -1.4285 -2.2933 -2.7989 0
M  V30 39 H -1.5424 -0.6967 -3.4572 0
M  V30 40 H 2.3656 0.0827 -2.9836 0
M  V30 41 H 3.4933 0.7019 -4.1747 0
M  V30 42 H -0.378 -4.055 -2.8761 0
M  V30 43 H 0.1406 0.1775 -1.8565 0
M  V30 44 H 0.3384 -1.4323 -1.167 0
M  V30 45 H 3.6249 -1.6271 -5.2249 0
M  V30 46 H 4.3466 -1.3867 -3.6345 0
M  V30 47 H 4.5033 -3.6951 -3.4066 0
M  V30 48 H 1.0482 -5.9004 -2.2128 0
M  V30 49 H -2.3045 0.0869 -1.3106 0
M  V30 50 H -2.0789 -1.4618 -0.4997 0
M  V30 51 H 3.5098 -5.7442 -2.4897 0
M  V30 52 H -3.0246 1.3236 0.4811 0
M  V30 53 H -3.1154 -0.1765 1.3861 0
M  V30 54 H 0.4932 -0.9325 0.9193 0
M  V30 55 H -0.9689 -1.5072 1.7144 0
M  V30 56 H -1.7349 2.4462 2.1205 0
M  V30 57 H -3.1338 1.715 2.9029 0
M  V30 58 H 0.6129 1.0433 2.2439 0
M  V30 59 H 0.6405 -0.3874 3.2675 0
M  V30 60 H -2.4668 2.9625 4.6785 0
M  V30 61 H -2.676 1.456 5.5743 0
M  V30 62 H -0.2488 3.4228 3.5522 0
M  V30 63 H 1.0765 2.2775 3.7951 0
M  V30 64 H -0.4552 -0.5652 5.489 0
M  V30 65 H -1.6439 -1.8566 5.5599 0
M  V30 66 H -1.0866 2.1678 7.2888 0
M  V30 67 H -2.3834 3.3477 7.1027 0
M  V30 68 H 1.2479 2.7398 6.1338 0
M  V30 69 H 1.3488 4.2428 5.2209 0
M  V30 70 H -0.9573 4.8201 5.7709 0
M  V30 71 H -0.1122 4.418 7.2663 0
M  V30 END ATOM
M  V30 BEGIN BOND
M  V30 1 1 1 2
M  V30 2 2 2 3
M  V30 3 1 2 4
M  V30 4 1 3 5
M  V30 5 2 4 6
M  V30 6 1 5 7
M  V30 7 2 5 8
M  V30 8 1 7 9
M  V30 9 1 7 10
M  V30 10 1 8 11
M  V30 11 2 9 12
M  V30 12 1 9 13
M  V30 13 1 10 14
M  V30 14 1 11 15
M  V30 15 1 12 16
M  V30 16 2 13 17
M  V30 17 1 14 18
M  V30 18 2 16 19
M  V30 19 1 18 20
M  V30 20 1 20 21
M  V30 21 1 20 22
M  V30 22 1 21 23
M  V30 23 1 22 24
M  V30 24 1 23 25
M  V30 25 1 25 26
M  V30 26 1 25 27
M  V30 27 1 26 28
M  V30 28 1 26 29
M  V30 29 2 27 30
M  V30 30 1 27 31
M  V30 31 1 28 32
M  V30 32 1 29 33
M  V30 33 1 32 34
M  V30 34 1 6 8
M  V30 35 1 12 15
M  V30 36 1 17 19
M  V30 37 1 24 25
M  V30 38 1 33 34
M  V30 39 1 3 35
M  V30 40 1 4 36
M  V30 41 1 6 37
M  V30 42 1 10 38
M  V30 43 1 10 39
M  V30 44 1 11 40
M  V30 45 1 11 41
M  V30 46 1 13 42
M  V30 47 1 14 43
M  V30 48 1 14 44
M  V30 49 1 15 45
M  V30 50 1 15 46
M  V30 51 1 16 47
M  V30 52 1 17 48
M  V30 53 1 18 49
M  V30 54 1 18 50
M  V30 55 1 19 51
M  V30 56 1 21 52
M  V30 57 1 21 53
M  V30 58 1 22 54
M  V30 59 1 22 55
M  V30 60 1 23 56
M  V30 61 1 23 57
M  V30 62 1 24 58
M  V30 63 1 24 59
M  V30 64 1 28 60
M  V30 65 1 28 61
M  V30 66 1 29 62
M  V30 67 1 29 63
M  V30 68 1 31 64
M  V30 69 1 31 65
M  V30 70 1 32 66
M  V30 71 1 32 67
M  V30 72 1 33 68
M  V30 73 1 33 69
M  V30 74 1 34 70
M  V30 75 1 34 71
M  V30 END BOND
M  V30 END CTAB
M  END
>  <Column 1>
2089

>  <level_0>
2269

>  <index>
2269

>  <Unnamed: 0>
2269

>  <NO.>
2281

>  <Name>
clocapramine

>  <IUPAC_name>
1-[3-(2-chloro-5-6-dihydrobenzo[b][1]benzazepin-11-yl)propyl]-4-piperidin-1-ylpiperidine-4-carboxamide

>  <SMILES>
NC(=O)C1(N2CCCCC2)CCN(CCCN2c3ccccc3CCc3ccc(Cl)cc32)CC1

>  <CID>
2793

>  <logBB>


>  <BBB+/BBB->
BBB+

>  <Inchi>
InChI=1S/C28H37ClN4O/c29-24-12-11-23-10-9-22-7-2-3-8-25(22)33(26(23)21-24)18-6-15-31-19-13-28(14-20-31-27(30)34)32-16-4-1-5-17-32/h2-3-7-8-11-12-21H-1-4-6-9-10-13-20H2-(H2-30-34)

>  <threshold>
-1

>  <reference>
R1|R13|R19|R6|R24|R27|R27|R27|R30|R30|

>  <group>
B

>  <Class>
1

>  <ABC>
26.91

>  <ABCGG>
19.46

>  <nAcid>
0

>  <nBase>
2

>  <nAromAtom>
12

>  <nAromBond>
12

>  <nAtom>
71

>  <nHeavyAtom>
34

>  <nSpiro>
0

>  <nBridgehead>
0

>  <nHetero>
6

>  <nN>
4

>  <nO>
1

>  <nF>
0

>  <BalabanJ>
1.17

>  <BertzCT>
1011.22

>  <nBonds>
75

>  <nBondsO>
38

>  <nBondsS>
62

>  <nBondsD>
1

>  <nBondsT>
0

>  <nBondsA>
12

>  <nBondsM>
13

>  <nBondsKS>
68

>  <nBondsKD>
7

>  <RNCG>
0.16

>  <RPCG>
0.1

>  <FCSP3>
0.54

>  <SZ>
43

>  <Sm>
40.05

>  <Sv>
42.86

>  <Sse>
70.17

>  <Sp>
47.19

>  <Si>
80.21

>  <MZ>
0.61

>  <Mm>
0.56

>  <Mv>
0.6

>  <Mse>
0.99

>  <Mp>
0.66

>  <Mi>
1.13

>  <NsCH3>
0

>  <NdCH2>
0

>  <NssCH2>
14

>  <NtCH>
0

>  <NdsCH>
0

>  <NaaCH>
7

>  <NsssCH>
0

>  <NddC>
0

>  <NtsC>
0

>  <NdssC>
1

>  <NaasC>
5

>  <NaaaC>
0

>  <NssssC>
1

>  <NsNH3>
0

>  <NsNH2>
1

>  <NssNH2>
0

>  <NdNH>
0

>  <NssNH>
0

>  <NaaNH>
0

>  <NtN>
0

>  <NsssNH>
0

>  <NdsN>
0

>  <NaaN>
0

>  <NsssN>
3

>  <NddsN>
0

>  <NaasN>
0

>  <NssssN>
0

>  <NsOH>
0

>  <NdO>
1

>  <NssO>
0

>  <NaaO>
0

>  <NsF>
0

>  <NsSiH3>
0

>  <NssSiH2>
0

>  <NsssSiH>
0

>  <NssssSi>
0

>  <NsPH2>
0

>  <NssPH>
0

>  <NsssP>
0

>  <NdsssP>
0

>  <NsssssP>
0

>  <NsSH>
0

>  <NdS>
0

>  <NssS>
0

>  <NaaS>
0

>  <NdssS>
0

>  <NddssS>
0

>  <NsCl>
1

>  <NsBr>
0

>  <NsI>
0

>  <fragCpx>
322.06

>  <fMF>
0.42

>  <nHBAcc>
4

>  <nHBDon>
1

>  <Kier1>
25.64

>  <Kier2>
11.59

>  <Lipinski>
1

>  <GhoseFilter>
0

>  <FilterItLogS>
-6.44

>  <VMcGowan>
379.01

>  <LabuteASA>
208.39

>  <PEOE_VSA1>
15.53

>  <PEOE_VSA2>
9.69

>  <PEOE_VSA3>
0

>  <PEOE_VSA4>
0

>  <PEOE_VSA5>
0

>  <PEOE_VSA6>
42.29

>  <PEOE_VSA7>
93.91

>  <PEOE_VSA8>
36.03

>  <PEOE_VSA9>
0

>  <PEOE_VSA10>
5.54

>  <PEOE_VSA11>
0

>  <PEOE_VSA12>
5.91

>  <PEOE_VSA13>
0

>  <SMR_VSA1>
4.79

>  <SMR_VSA2>
0

>  <SMR_VSA3>
9.8

>  <SMR_VSA4>
5.73

>  <SMR_VSA5>
56.91

>  <SMR_VSA6>
44.17

>  <SMR_VSA7>
58.61

>  <SMR_VSA8>
0

>  <SMR_VSA9>
0

>  <SlogP_VSA1>
10.63

>  <SlogP_VSA2>
60.51

>  <SlogP_VSA3>
17.64

>  <SlogP_VSA4>
0

>  <SlogP_VSA5>
49.65

>  <SlogP_VSA6>
42.46

>  <SlogP_VSA7>
5.02

>  <SlogP_VSA8>
0

>  <SlogP_VSA9>
0

>  <SlogP_VSA10>
11.37

>  <SlogP_VSA11>
0

>  <EState_VSA1>
5.54

>  <EState_VSA2>
5.91

>  <EState_VSA3>
0

>  <EState_VSA4>
76.4

>  <EState_VSA5>
41.76

>  <EState_VSA6>
0

>  <EState_VSA7>
6.07

>  <EState_VSA8>
51.1

>  <EState_VSA9>
17.33

>  <EState_VSA10>
4.79

>  <VSA_EState1>
0

>  <VSA_EState2>
19.92

>  <VSA_EState3>
0.79

>  <VSA_EState4>
10.86

>  <VSA_EState5>
-0.12

>  <VSA_EState6>
15.09

>  <VSA_EState7>
8.5

>  <VSA_EState8>
5.9

>  <VSA_EState9>
0

>  <apol>
78.81

>  <bpol>
43.06

>  <nRing>
5

>  <nHRing>
3

>  <naRing>
2

>  <naHRing>
0

>  <nARing 2>
3

>  <nAHRing 2>
3

>  <nFRing>
1

>  <nFHRing>
1

>  <nFaRing>
0

>  <nFaHRing>
0

>  <nFARing 2>
1

>  <nFAHRing 2>
1

>  <nRot>
6

>  <SLogP>
4.77

>  <SMR>
139.95

>  <TopoPSA(NO)>
52.81

>  <TopoPSA>
52.81

>  <JGI1>
0.17

>  <JGI2>
0.09

>  <JGI3>
0.04

>  <JGI4>
0.03

>  <JGI5>
0.02

>  <Diameter>
15

>  <Radius>
8

>  <TMWC10>
151.09

>  <TSRW10>
78.79

>  <MW>
480.27

>  <AMW>
6.76

>  <WPath>
3671

>  <WPol>
63

>  <Zagreb1>
184

>  <Zagreb2>
221

>  <mZagreb2>
7.44

>  <yes>


>  <nAR-cont>
0.691115

>  <nHA-cont>
0.568589513

>  <MWHBN>
0.228153573

>  <MWHBN-cont>
0.988561631

>  <TPSA-cont>
0.631353407

>  <pka_cont>
0.97

>  <yes.1>


>  <BBB_SCORE>
4.490253773

>  <MMFF94 Energy>
63.647

$$$$
Compound 1717
Actelion Java MolfileCreator 2.0

  0  0  0  0  0  0              0 V3000
M  V30 BEGIN CTAB
M  V30 COUNTS 71 75 0 0 0
M  V30 BEGIN ATOM
M  V30 1 O 4.3832 -0.955 0.3182 0
M  V30 2 C 3.9272 -0.7542 1.439 0
M  V30 3 N 4.6543 -0.0432 2.3571 0
M  V30 4 C 2.5229 -1.2439 1.9523 0
M  V30 5 N 2.7784 -1.87 3.3137 0
M  V30 6 C 1.8857 -2.2116 0.9289 0
M  V30 7 C 1.6332 0.0219 2.0547 0
M  V30 8 C 1.5719 -2.1043 4.1248 0
M  V30 9 C 3.5695 -3.1169 3.2151 0
M  V30 10 C 1.4645 -1.5339 -0.383 0
M  V30 11 C 1.3221 0.623 0.6832 0
M  V30 12 C 1.925 -2.6018 5.5314 0
M  V30 13 C 4.0032 -3.6121 4.5953 0
M  V30 14 N 0.6141 -0.3574 -0.1539 0
M  V30 15 C 2.7968 -3.8475 5.4918 0
M  V30 16 C 0.2086 0.2839 -1.4241 0
M  V30 17 C -0.8151 -0.5418 -2.2136 0
M  V30 18 C -1.2382 0.1369 -3.5258 0
M  V30 19 N -2.1628 1.2784 -3.3151 0
M  V30 20 C -3.5028 0.8866 -3.0841 0
M  V30 21 C -1.6151 2.5763 -3.191 0
M  V30 22 C -4.1605 1.1616 -1.877 0
M  V30 23 C -4.2104 0.1909 -4.0815 0
M  V30 24 C -2.0583 3.5425 -2.2608 0
M  V30 25 C -0.596 2.9749 -4.089 0
M  V30 26 C -5.4826 0.7264 -1.6775 0
M  V30 27 C -3.4498 1.9176 -0.7918 0
M  V30 28 C -5.525 -0.2348 -3.882 0
M  V30 29 C -1.4691 4.8315 -2.2566 0
M  V30 30 C -3.1566 3.3428 -1.2372 0
M  V30 31 C -0.0136 4.2447 -4.0606 0
M  V30 32 C -6.1601 0.0298 -2.6754 0
M  V30 33 C -0.4505 5.1766 -3.1377 0
M  V30 34 H 4.3458 -0.0305 3.3223 0
M  V30 35 H 5.572 0.2933 2.1072 0
M  V30 36 H 0.9945 -2.6795 1.3659 0
M  V30 37 H 2.5772 -3.0237 0.674 0
M  V30 38 H 2.1017 0.7883 2.6841 0
M  V30 39 H 0.6668 -0.2155 2.5146 0
M  V30 40 H 1.0128 -1.1768 4.2748 0
M  V30 41 H 0.9015 -2.8234 3.6399 0
M  V30 42 H 2.9933 -3.9094 2.7218 0
M  V30 43 H 4.4786 -2.961 2.6247 0
M  V30 44 H 2.3429 -1.2679 -0.9816 0
M  V30 45 H 0.917 -2.2878 -0.9588 0
M  V30 46 H 2.2344 0.9858 0.1938 0
M  V30 47 H 0.6801 1.4977 0.8483 0
M  V30 48 H 1.0053 -2.8129 6.0889 0
M  V30 49 H 2.4512 -1.8073 6.0762 0
M  V30 50 H 4.5727 -4.5426 4.4923 0
M  V30 51 H 4.6721 -2.8762 5.059 0
M  V30 52 H 2.2124 -4.693 5.109 0
M  V30 53 H 3.1235 -4.1123 6.5032 0
M  V30 54 H 1.0871 0.4964 -2.047 0
M  V30 55 H -0.25 1.2488 -1.1869 0
M  V30 56 H -1.6885 -0.7582 -1.5878 0
M  V30 57 H -0.3759 -1.5082 -2.4847 0
M  V30 58 H -0.3368 0.4139 -4.081 0
M  V30 59 H -1.7138 -0.6238 -4.1576 0
M  V30 60 H -3.7395 -0.003 -5.0417 0
M  V30 61 H -0.266 2.3048 -4.878 0
M  V30 62 H -5.9927 0.9336 -0.7397 0
M  V30 63 H -2.5395 1.3881 -0.4912 0
M  V30 64 H -4.0836 1.9565 0.1032 0
M  V30 65 H -6.0495 -0.7655 -4.6713 0
M  V30 66 H -1.8155 5.5826 -1.5483 0
M  V30 67 H -2.8751 3.896 -0.3305 0
M  V30 68 H -4.0698 3.8149 -1.624 0
M  V30 69 H 0.762 4.5029 -4.7756 0
M  V30 70 H -7.1831 -0.2981 -2.5128 0
M  V30 71 H -0.0162 6.1717 -3.1112 0
M  V30 END ATOM
M  V30 BEGIN BOND
M  V30 1 2 1 2
M  V30 2 1 2 3
M  V30 3 1 2 4
M  V30 4 1 4 5
M  V30 5 1 4 6
M  V30 6 1 4 7
M  V30 7 1 5 8
M  V30 8 1 5 9
M  V30 9 1 6 10
M  V30 10 1 7 11
M  V30 11 1 8 12
M  V30 12 1 9 13
M  V30 13 1 10 14
M  V30 14 1 12 15
M  V30 15 1 14 16
M  V30 16 1 16 17
M  V30 17 1 17 18
M  V30 18 1 18 19
M  V30 19 1 19 20
M  V30 20 1 19 21
M  V30 21 2 20 22
M  V30 22 1 20 23
M  V30 23 2 21 24
M  V30 24 1 21 25
M  V30 25 1 22 26
M  V30 26 1 22 27
M  V30 27 2 23 28
M  V30 28 1 24 29
M  V30 29 1 24 30
M  V30 30 2 25 31
M  V30 31 2 26 32
M  V30 32 2 29 33
M  V30 33 1 11 14
M  V30 34 1 13 15
M  V30 35 1 27 30
M  V30 36 1 28 32
M  V30 37 1 31 33
M  V30 38 1 3 34
M  V30 39 1 3 35
M  V30 40 1 6 36
M  V30 41 1 6 37
M  V30 42 1 7 38
M  V30 43 1 7 39
M  V30 44 1 8 40
M  V30 45 1 8 41
M  V30 46 1 9 42
M  V30 47 1 9 43
M  V30 48 1 10 44
M  V30 49 1 10 45
M  V30 50 1 11 46
M  V30 51 1 11 47
M  V30 52 1 12 48
M  V30 53 1 12 49
M  V30 54 1 13 50
M  V30 55 1 13 51
M  V30 56 1 15 52
M  V30 57 1 15 53
M  V30 58 1 16 54
M  V30 59 1 16 55
M  V30 60 1 17 56
M  V30 61 1 17 57
M  V30 62 1 18 58
M  V30 63 1 18 59
M  V30 64 1 23 60
M  V30 65 1 25 61
M  V30 66 1 26 62
M  V30 67 1 27 63
M  V30 68 1 27 64
M  V30 69 1 28 65
M  V30 70 1 29 66
M  V30 71 1 30 67
M  V30 72 1 30 68
M  V30 73 1 31 69
M  V30 74 1 32 70
M  V30 75 1 33 71
M  V30 END BOND
M  V30 END CTAB
M  END
>  <Column 1>
2090

>  <level_0>
2270

>  <index>
2270

>  <Unnamed: 0>
2270

>  <NO.>
2282

>  <Name>
carpipramine

>  <IUPAC_name>
1-[3-(5-6-dihydrobenzo[b][1]benzazepin-11-yl)propyl]-4-piperidin-1-ylpiperidine-4-carboxamide

>  <SMILES>
NC(=O)C1(N2CCCCC2)CCN(CCCN2c3ccccc3CCc3ccccc32)CC1

>  <CID>
2580

>  <logBB>


>  <BBB+/BBB->
BBB+

>  <Inchi>
InChI=1S/C28H38N4O/c29-27(33)28(31-18-6-1-7-19-31)15-21-30(22-16-28)17-8-20-32-25-11-4-2-9-23(25)13-14-24-10-3-5-12-26(24)32/h2-5-9-12H-1-6-8-13-22H2-(H2-29-33)

>  <threshold>
-1

>  <reference>
R1|R13|R19|R6|R14|R23|R24|R27|R27|R27|R30|R30|

>  <group>
B

>  <Class>
1

>  <ABC>
26.1

>  <ABCGG>
18.83

>  <nAcid>
0

>  <nBase>
2

>  <nAromAtom>
12

>  <nAromBond>
12

>  <nAtom>
71

>  <nHeavyAtom>
33

>  <nSpiro>
0

>  <nBridgehead>
0

>  <nHetero>
5

>  <nN>
4

>  <nO>
1

>  <nF>
0

>  <BalabanJ>
1.16

>  <BertzCT>
912.37

>  <nBonds>
75

>  <nBondsO>
37

>  <nBondsS>
62

>  <nBondsD>
1

>  <nBondsT>
0

>  <nBondsA>
12

>  <nBondsM>
13

>  <nBondsKS>
68

>  <nBondsKD>
7

>  <RNCG>
0.16

>  <RPCG>
0.1

>  <FCSP3>
0.54

>  <SZ>
40.33

>  <Sm>
37.19

>  <Sv>
42.04

>  <Sse>
69.85

>  <Sp>
46.29

>  <Si>
80.26

>  <MZ>
0.57

>  <Mm>
0.52

>  <Mv>
0.59

>  <Mse>
0.98

>  <Mp>
0.65

>  <Mi>
1.13

>  <NsCH3>
0

>  <NdCH2>
0

>  <NssCH2>
14

>  <NtCH>
0

>  <NdsCH>
0

>  <NaaCH>
8

>  <NsssCH>
0

>  <NddC>
0

>  <NtsC>
0

>  <NdssC>
1

>  <NaasC>
4

>  <NaaaC>
0

>  <NssssC>
1

>  <NsNH3>
0

>  <NsNH2>
1

>  <NssNH2>
0

>  <NdNH>
0

>  <NssNH>
0

>  <NaaNH>
0

>  <NtN>
0

>  <NsssNH>
0

>  <NdsN>
0

>  <NaaN>
0

>  <NsssN>
3

>  <NddsN>
0

>  <NaasN>
0

>  <NssssN>
0

>  <NsOH>
0

>  <NdO>
1

>  <NssO>
0

>  <NaaO>
0

>  <NsF>
0

>  <NsSiH3>
0

>  <NssSiH2>
0

>  <NsssSiH>
0

>  <NssssSi>
0

>  <NsPH2>
0

>  <NssPH>
0

>  <NsssP>
0

>  <NdsssP>
0

>  <NsssssP>
0

>  <NsSH>
0

>  <NdS>
0

>  <NssS>
0

>  <NaaS>
0

>  <NdssS>
0

>  <NddssS>
0

>  <NsCl>
0

>  <NsBr>
0

>  <NsI>
0

>  <fragCpx>
313.05

>  <fMF>
0.42

>  <nHBAcc>
4

>  <nHBDon>
1

>  <Kier1>
24.68

>  <Kier2>
11.37

>  <Lipinski>
1

>  <GhoseFilter>
0

>  <FilterItLogS>
-5.71

>  <VMcGowan>
366.77

>  <LabuteASA>
198.09

>  <PEOE_VSA1>
15.53

>  <PEOE_VSA2>
9.69

>  <PEOE_VSA3>
0

>  <PEOE_VSA4>
0

>  <PEOE_VSA5>
0

>  <PEOE_VSA6>
42.82

>  <PEOE_VSA7>
87.84

>  <PEOE_VSA8>
31.01

>  <PEOE_VSA9>
0

>  <PEOE_VSA10>
5.54

>  <PEOE_VSA11>
0

>  <PEOE_VSA12>
5.91

>  <PEOE_VSA13>
0

>  <SMR_VSA1>
4.79

>  <SMR_VSA2>
0

>  <SMR_VSA3>
9.8

>  <SMR_VSA4>
5.73

>  <SMR_VSA5>
56.91

>  <SMR_VSA6>
44.17

>  <SMR_VSA7>
59.66

>  <SMR_VSA8>
0

>  <SMR_VSA9>
0

>  <SlogP_VSA1>
10.63

>  <SlogP_VSA2>
60.51

>  <SlogP_VSA3>
17.64

>  <SlogP_VSA4>
0

>  <SlogP_VSA5>
49.65

>  <SlogP_VSA6>
48.53

>  <SlogP_VSA7>
0

>  <SlogP_VSA8>
0

>  <SlogP_VSA9>
0

>  <SlogP_VSA10>
11.37

>  <SlogP_VSA11>
0

>  <EState_VSA1>
5.54

>  <EState_VSA2>
5.91

>  <EState_VSA3>
0

>  <EState_VSA4>
71.37

>  <EState_VSA5>
41.76

>  <EState_VSA6>
0

>  <EState_VSA7>
0

>  <EState_VSA8>
63.23

>  <EState_VSA9>
5.73

>  <EState_VSA10>
4.79

>  <VSA_EState1>
0

>  <VSA_EState2>
20

>  <VSA_EState3>
0

>  <VSA_EState4>
11.17

>  <VSA_EState5>
-0.11

>  <VSA_EState6>
17.76

>  <VSA_EState7>
8.71

>  <VSA_EState8>
6.06

>  <VSA_EState9>
0

>  <apol>
77.3

>  <bpol>
43.55

>  <nRing>
5

>  <nHRing>
3

>  <naRing>
2

>  <naHRing>
0

>  <nARing 2>
3

>  <nAHRing 2>
3

>  <nFRing>
1

>  <nFHRing>
1

>  <nFaRing>
0

>  <nFaHRing>
0

>  <nFARing 2>
1

>  <nFAHRing 2>
1

>  <nRot>
6

>  <SLogP>
4.12

>  <SMR>
134.94

>  <TopoPSA(NO)>
52.81

>  <TopoPSA>
52.81

>  <JGI1>
0.15

>  <JGI2>
0.09

>  <JGI3>
0.04

>  <JGI4>
0.03

>  <JGI5>
0.02

>  <Diameter>
15

>  <Radius>
8

>  <TMWC10>
148.74

>  <TSRW10>
77.61

>  <MW>
446.3

>  <AMW>
6.29

>  <WPath>
3408

>  <WPol>
61

>  <Zagreb1>
178

>  <Zagreb2>
214

>  <mZagreb2>
7.28

>  <yes>


>  <nAR-cont>
0.691115

>  <nHA-cont>
0.61399562

>  <MWHBN>
0.236677275

>  <MWHBN-cont>
0.97927733

>  <TPSA-cont>
0.631353407

>  <pka_cont>
0.97

>  <yes.1>


>  <BBB_SCORE>
4.521733429

>  <MMFF94 Energy>
68.702

$$$$
Compound 1718
Actelion Java MolfileCreator 2.0

  0  0  0  0  0  0              0 V3000
M  V30 BEGIN CTAB
M  V30 COUNTS 20 20 0 0 0
M  V30 BEGIN ATOM
M  V30 1 O -0.6248 -3.0487 -0.4685 0
M  V30 2 C 0.1711 -2.265 0.0382 0
M  V30 3 N 1.4109 -2.678 0.4369 0
M  V30 4 C -0.1365 -0.7868 0.3347 0 CFG=1
M  V30 5 O 1.0803 -0.0516 0.5371 0
M  V30 6 C -0.9496 -0.1749 -0.8069 0
M  V30 7 C 0.8339 1.3092 0.8911 0
M  V30 8 C -1.2068 1.3078 -0.5604 0
M  V30 9 C 0.0918 2.0309 -0.2247 0
M  V30 10 H 1.6906 -3.6355 0.2836 0
M  V30 11 H 2.0719 -1.9954 0.7902 0
M  V30 12 H -0.7111 -0.7722 1.2701 0
M  V30 13 H -0.3944 -0.2823 -1.7479 0
M  V30 14 H -1.9015 -0.7027 -0.9352 0
M  V30 15 H 1.8028 1.7884 1.0637 0
M  V30 16 H 0.2742 1.3463 1.8332 0
M  V30 17 H -1.6738 1.7609 -1.4418 0
M  V30 18 H -1.9123 1.4208 0.272 0
M  V30 19 H -0.1128 3.0679 0.0615 0
M  V30 20 H 0.7229 2.0519 -1.1216 0
M  V30 END ATOM
M  V30 BEGIN BOND
M  V30 1 2 1 2
M  V30 2 1 2 3
M  V30 3 1 2 4
M  V30 4 1 4 5
M  V30 5 1 4 6
M  V30 6 1 5 7
M  V30 7 1 6 8
M  V30 8 1 7 9
M  V30 9 1 8 9
M  V30 10 1 3 10
M  V30 11 1 3 11
M  V30 12 1 4 12
M  V30 13 1 6 13
M  V30 14 1 6 14
M  V30 15 1 7 15
M  V30 16 1 7 16
M  V30 17 1 8 17
M  V30 18 1 8 18
M  V30 19 1 9 19
M  V30 20 1 9 20
M  V30 END BOND
M  V30 BEGIN COLLECTION
M  V30 MDLV30/STERAC1 ATOMS=(1 4)
M  V30 END COLLECTION
M  V30 END CTAB
M  END
>  <Column 1>
2091

>  <level_0>
2271

>  <index>
2271

>  <Unnamed: 0>
2271

>  <NO.>
2283

>  <Name>
oxanamide

>  <IUPAC_name>
oxane-2-carboxamide

>  <SMILES>
NC(=O)C1CCCCO1

>  <CID>
22036682

>  <logBB>


>  <BBB+/BBB->
BBB+

>  <Inchi>
InChI=1S/C6H11NO2/c7-6(8)5-3-1-2-4-9-5/h5H-1-4H2-(H2-7-8)

>  <threshold>
-1

>  <reference>
R1|R27|R30|

>  <group>
B

>  <Class>
1

>  <ABC>
6.54

>  <ABCGG>
6.24

>  <nAcid>
0

>  <nBase>
0

>  <nAromAtom>
0

>  <nAromBond>
0

>  <nAtom>
20

>  <nHeavyAtom>
9

>  <nSpiro>
0

>  <nBridgehead>
0

>  <nHetero>
3

>  <nN>
1

>  <nO>
2

>  <nF>
0

>  <BalabanJ>
2.23

>  <BertzCT>
107.63

>  <nBonds>
20

>  <nBondsO>
9

>  <nBondsS>
19

>  <nBondsD>
1

>  <nBondsT>
0

>  <nBondsA>
0

>  <nBondsM>
1

>  <nBondsKS>
19

>  <nBondsKD>
1

>  <RNCG>
0.33

>  <RPCG>
0.22

>  <FCSP3>
0.83

>  <SZ>
11.67

>  <Sm>
10.75

>  <Sv>
11.17

>  <Sse>
20.21

>  <Sp>
12.01

>  <Si>
22.99

>  <MZ>
0.58

>  <Mm>
0.54

>  <Mv>
0.56

>  <Mse>
1.01

>  <Mp>
0.6

>  <Mi>
1.15

>  <NsCH3>
0

>  <NdCH2>
0

>  <NssCH2>
4

>  <NtCH>
0

>  <NdsCH>
0

>  <NaaCH>
0

>  <NsssCH>
1

>  <NddC>
0

>  <NtsC>
0

>  <NdssC>
1

>  <NaasC>
0

>  <NaaaC>
0

>  <NssssC>
0

>  <NsNH3>
0

>  <NsNH2>
1

>  <NssNH2>
0

>  <NdNH>
0

>  <NssNH>
0

>  <NaaNH>
0

>  <NtN>
0

>  <NsssNH>
0

>  <NdsN>
0

>  <NaaN>
0

>  <NsssN>
0

>  <NddsN>
0

>  <NaasN>
0

>  <NssssN>
0

>  <NsOH>
0

>  <NdO>
1

>  <NssO>
1

>  <NaaO>
0

>  <NsF>
0

>  <NsSiH3>
0

>  <NssSiH2>
0

>  <NsssSiH>
0

>  <NssssSi>
0

>  <NsPH2>
0

>  <NssPH>
0

>  <NsssP>
0

>  <NdsssP>
0

>  <NsssssP>
0

>  <NsSH>
0

>  <NdS>
0

>  <NssS>
0

>  <NaaS>
0

>  <NdssS>
0

>  <NddssS>
0

>  <NsCl>
0

>  <NsBr>
0

>  <NsI>
0

>  <fragCpx>
9.03

>  <fMF>
0.3

>  <nHBAcc>
2

>  <nHBDon>
1

>  <Kier1>
7.11

>  <Kier2>
3.24

>  <Lipinski>
1

>  <GhoseFilter>
0

>  <FilterItLogS>
-0.33

>  <VMcGowan>
101.96

>  <LabuteASA>
54.17

>  <PEOE_VSA1>
10.47

>  <PEOE_VSA2>
4.79

>  <PEOE_VSA3>
0

>  <PEOE_VSA4>
0

>  <PEOE_VSA5>
0

>  <PEOE_VSA6>
0

>  <PEOE_VSA7>
19.26

>  <PEOE_VSA8>
6.61

>  <PEOE_VSA9>
0

>  <PEOE_VSA10>
6.1

>  <PEOE_VSA11>
0

>  <PEOE_VSA12>
5.91

>  <PEOE_VSA13>
0

>  <SMR_VSA1>
9.53

>  <SMR_VSA2>
0

>  <SMR_VSA3>
0

>  <SMR_VSA4>
5.73

>  <SMR_VSA5>
25.37

>  <SMR_VSA6>
6.61

>  <SMR_VSA7>
0

>  <SMR_VSA8>
0

>  <SMR_VSA9>
0

>  <SlogP_VSA1>
5.73

>  <SlogP_VSA2>
18.62

>  <SlogP_VSA3>
9.53

>  <SlogP_VSA4>
0

>  <SlogP_VSA5>
19.26

>  <SlogP_VSA6>
0

>  <SlogP_VSA7>
0

>  <SlogP_VSA8>
0

>  <SlogP_VSA9>
0

>  <SlogP_VSA10>
0

>  <SlogP_VSA11>
0

>  <EState_VSA1>
0

>  <EState_VSA2>
12.01

>  <EState_VSA3>
6.61

>  <EState_VSA4>
19.26

>  <EState_VSA5>
0

>  <EState_VSA6>
0

>  <EState_VSA7>
0

>  <EState_VSA8>
0

>  <EState_VSA9>
10.47

>  <EState_VSA10>
4.79

>  <VSA_EState1>
5.06

>  <VSA_EState2>
10.45

>  <VSA_EState3>
0

>  <VSA_EState4>
5

>  <VSA_EState5>
-0.32

>  <VSA_EState6>
0

>  <VSA_EState7>
2.62

>  <VSA_EState8>
0.69

>  <VSA_EState9>
0

>  <apol>
20.06

>  <bpol>
13.07

>  <nRing>
1

>  <nHRing>
1

>  <naRing>
0

>  <naHRing>
0

>  <nARing 2>
1

>  <nAHRing 2>
1

>  <nFRing>
0

>  <nFHRing>
0

>  <nFaRing>
0

>  <nFaHRing>
0

>  <nFARing 2>
0

>  <nFAHRing 2>
0

>  <nRot>
1

>  <SLogP>
0.04

>  <SMR>
32.79

>  <TopoPSA(NO)>
52.32

>  <TopoPSA>
52.32

>  <JGI1>
0.17

>  <JGI2>
0.08

>  <JGI3>
0.05

>  <JGI4>
0.04

>  <JGI5>
0.06

>  <Diameter>
5

>  <Radius>
3

>  <TMWC10>
79.39

>  <TSRW10>
37.29

>  <MW>
129.08

>  <AMW>
6.45

>  <WPath>
88

>  <WPol>
9

>  <Zagreb1>
40

>  <Zagreb2>
43

>  <mZagreb2>
2.11

>  <yes>


>  <nAR-cont>
0.816016

>  <nHA-cont>
0.56070381

>  <MWHBN>
0.264053408

>  <MWHBN-cont>
0.933123596

>  <TPSA-cont>
0.634773911

>  <pka_cont>
0.97

>  <yes.1>


>  <BBB_SCORE>
4.530953027

>  <MMFF94 Energy>
11.164

$$$$
Compound 1719
Actelion Java MolfileCreator 2.0

  0  0  0  0  0  0              0 V3000
M  V30 BEGIN CTAB
M  V30 COUNTS 33 35 0 0 0
M  V30 BEGIN ATOM
M  V30 1 O 3.2041 0.7202 0.16 0
M  V30 2 C 2.3322 0.8242 -0.7006 0
M  V30 3 N 2.6594 1.4102 -1.8961 0
M  V30 4 C 0.8637 0.3564 -0.5566 0
M  V30 5 C 0.6507 -1.1446 -0.3112 0
M  V30 6 C 0.0498 1.2408 0.3918 0
M  V30 7 C -0.6411 -1.733 -0.3302 0
M  V30 8 C 1.7583 -1.9962 -0.1019 0
M  V30 9 C -1.3482 1.3239 0.2156 0
M  V30 10 C 0.6317 1.9544 1.4526 0
M  V30 11 C -0.7605 -3.1299 -0.1383 0
M  V30 12 C -1.9703 -1.0077 -0.4873 0
M  V30 13 C 1.6122 -3.3724 0.083 0
M  V30 14 C -2.1171 2.1446 1.0551 0
M  V30 15 C -2.024 0.4805 -0.8351 0
M  V30 16 C -0.1428 2.766 2.2842 0
M  V30 17 C 0.3509 -3.9417 0.0626 0
M  V30 18 C -1.5142 2.8683 2.0805 0
M  V30 19 H 2.0009 1.5584 -2.6472 0
M  V30 20 H 3.6116 1.7312 -2.0119 0
M  V30 21 H 0.4635 0.5207 -1.5668 0
M  V30 22 H 2.7743 -1.6091 -0.0698 0
M  V30 23 H 1.6977 1.8887 1.6596 0
M  V30 24 H -1.7458 -3.5944 -0.1356 0
M  V30 25 H -2.5236 -1.1545 0.4515 0
M  V30 26 H -2.5354 -1.5323 -1.2701 0
M  V30 27 H 2.4896 -3.9922 0.2474 0
M  V30 28 H -3.195 2.2115 0.9263 0
M  V30 29 H -1.5957 0.678 -1.8239 0
M  V30 30 H -3.0781 0.776 -0.92 0
M  V30 31 H 0.3294 3.3126 3.0966 0
M  V30 32 H 0.2288 -5.0106 0.2116 0
M  V30 33 H -2.1158 3.4967 2.7316 0
M  V30 END ATOM
M  V30 BEGIN BOND
M  V30 1 2 1 2
M  V30 2 1 2 3
M  V30 3 1 2 4
M  V30 4 1 4 5
M  V30 5 1 4 6
M  V30 6 2 5 7
M  V30 7 1 5 8
M  V30 8 2 6 9
M  V30 9 1 6 10
M  V30 10 1 7 11
M  V30 11 1 7 12
M  V30 12 2 8 13
M  V30 13 1 9 14
M  V30 14 1 9 15
M  V30 15 2 10 16
M  V30 16 2 11 17
M  V30 17 2 14 18
M  V30 18 1 12 15
M  V30 19 1 13 17
M  V30 20 1 16 18
M  V30 21 1 3 19
M  V30 22 1 3 20
M  V30 23 1 4 21
M  V30 24 1 8 22
M  V30 25 1 10 23
M  V30 26 1 11 24
M  V30 27 1 12 25
M  V30 28 1 12 26
M  V30 29 1 13 27
M  V30 30 1 14 28
M  V30 31 1 15 29
M  V30 32 1 15 30
M  V30 33 1 16 31
M  V30 34 1 17 32
M  V30 35 1 18 33
M  V30 END BOND
M  V30 END CTAB
M  END
>  <Column 1>
2092

>  <level_0>
2272

>  <index>
2272

>  <Unnamed: 0>
2272

>  <NO.>
2284

>  <Name>
cyheptamide

>  <IUPAC_name>
tricyclo[9.4.0.03-8]pentadeca-1(15)-3-5-7-11-13-hexaene-2-carboxamide

>  <SMILES>
NC(=O)C1c2ccccc2CCc2ccccc21

>  <CID>
23603

>  <logBB>


>  <BBB+/BBB->
BBB+

>  <Inchi>
InChI=1S/C16H15NO/c17-16(18)15-13-7-3-1-5-11(13)9-10-12-6-2-4-8-14(12)15/h1-8-15H-9-10H2-(H2-17-18)

>  <threshold>
-1

>  <reference>
R1|R13|R19|R6|R24|R27|R27|R27|R30|R30|

>  <group>
B

>  <Class>
1

>  <ABC>
14.16

>  <ABCGG>
11.79

>  <nAcid>
0

>  <nBase>
0

>  <nAromAtom>
12

>  <nAromBond>
12

>  <nAtom>
33

>  <nHeavyAtom>
18

>  <nSpiro>
0

>  <nBridgehead>
0

>  <nHetero>
2

>  <nN>
1

>  <nO>
1

>  <nF>
0

>  <BalabanJ>
1.85

>  <BertzCT>
556.05

>  <nBonds>
35

>  <nBondsO>
20

>  <nBondsS>
22

>  <nBondsD>
1

>  <nBondsT>
0

>  <nBondsA>
12

>  <nBondsM>
13

>  <nBondsKS>
28

>  <nBondsKD>
7

>  <RNCG>
0.28

>  <RPCG>
0.17

>  <FCSP3>
0.19

>  <SZ>
21

>  <Sm>
19.76

>  <Sv>
21.54

>  <Sse>
32.65

>  <Sp>
23.13

>  <Si>
36.61

>  <MZ>
0.64

>  <Mm>
0.6

>  <Mv>
0.65

>  <Mse>
0.99

>  <Mp>
0.7

>  <Mi>
1.11

>  <NsCH3>
0

>  <NdCH2>
0

>  <NssCH2>
2

>  <NtCH>
0

>  <NdsCH>
0

>  <NaaCH>
8

>  <NsssCH>
1

>  <NddC>
0

>  <NtsC>
0

>  <NdssC>
1

>  <NaasC>
4

>  <NaaaC>
0

>  <NssssC>
0

>  <NsNH3>
0

>  <NsNH2>
1

>  <NssNH2>
0

>  <NdNH>
0

>  <NssNH>
0

>  <NaaNH>
0

>  <NtN>
0

>  <NsssNH>
0

>  <NdsN>
0

>  <NaaN>
0

>  <NsssN>
0

>  <NddsN>
0

>  <NaasN>
0

>  <NssssN>
0

>  <NsOH>
0

>  <NdO>
1

>  <NssO>
0

>  <NaaO>
0

>  <NsF>
0

>  <NsSiH3>
0

>  <NssSiH2>
0

>  <NsssSiH>
0

>  <NssssSi>
0

>  <NsPH2>
0

>  <NssPH>
0

>  <NsssP>
0

>  <NdsssP>
0

>  <NsssssP>
0

>  <NsSH>
0

>  <NdS>
0

>  <NssS>
0

>  <NaaS>
0

>  <NdssS>
0

>  <NddssS>
0

>  <NsCl>
0

>  <NsBr>
0

>  <NsI>
0

>  <fragCpx>
94.02

>  <fMF>
0.45

>  <nHBAcc>
1

>  <nHBDon>
1

>  <Kier1>
13.01

>  <Kier2>
5.55

>  <Lipinski>
1

>  <GhoseFilter>
1

>  <FilterItLogS>
-3.9

>  <VMcGowan>
189.47

>  <LabuteASA>
106.44

>  <PEOE_VSA1>
5.73

>  <PEOE_VSA2>
4.79

>  <PEOE_VSA3>
0

>  <PEOE_VSA4>
0

>  <PEOE_VSA5>
0

>  <PEOE_VSA6>
48.53

>  <PEOE_VSA7>
35.1

>  <PEOE_VSA8>
0

>  <PEOE_VSA9>
5.92

>  <PEOE_VSA10>
0

>  <PEOE_VSA11>
0

>  <PEOE_VSA12>
5.91

>  <PEOE_VSA13>
0

>  <SMR_VSA1>
4.79

>  <SMR_VSA2>
0

>  <SMR_VSA3>
0

>  <SMR_VSA4>
5.73

>  <SMR_VSA5>
18.76

>  <SMR_VSA6>
0

>  <SMR_VSA7>
70.78

>  <SMR_VSA8>
0

>  <SMR_VSA9>
0

>  <SlogP_VSA1>
5.73

>  <SlogP_VSA2>
5.91

>  <SlogP_VSA3>
17.64

>  <SlogP_VSA4>
0

>  <SlogP_VSA5>
28.17

>  <SlogP_VSA6>
48.53

>  <SlogP_VSA7>
0

>  <SlogP_VSA8>
0

>  <SlogP_VSA9>
0

>  <SlogP_VSA10>
0

>  <SlogP_VSA11>
0

>  <EState_VSA1>
0

>  <EState_VSA2>
11.83

>  <EState_VSA3>
0

>  <EState_VSA4>
23.97

>  <EState_VSA5>
11.13

>  <EState_VSA6>
0

>  <EState_VSA7>
36.4

>  <EState_VSA8>
12.13

>  <EState_VSA9>
5.73

>  <EState_VSA10>
4.79

>  <VSA_EState1>
0

>  <VSA_EState2>
11.85

>  <VSA_EState3>
0

>  <VSA_EState4>
10.22

>  <VSA_EState5>
-0.57

>  <VSA_EState6>
16.22

>  <VSA_EState7>
1.94

>  <VSA_EState8>
0

>  <VSA_EState9>
0

>  <apol>
38.62

>  <bpol>
15.35

>  <nRing>
3

>  <nHRing>
0

>  <naRing>
2

>  <naHRing>
0

>  <nARing 2>
1

>  <nAHRing 2>
0

>  <nFRing>
1

>  <nFHRing>
0

>  <nFaRing>
0

>  <nFaHRing>
0

>  <nFARing 2>
1

>  <nFAHRing 2>
0

>  <nRot>
1

>  <SLogP>
2.4

>  <SMR>
71.33

>  <TopoPSA(NO)>
43.09

>  <TopoPSA>
43.09

>  <JGI1>
0.13

>  <JGI2>
0.07

>  <JGI3>
0.05

>  <JGI4>
0.04

>  <JGI5>
0.02

>  <Diameter>
7

>  <Radius>
4

>  <TMWC10>
111.22

>  <TSRW10>
59.46

>  <MW>
237.12

>  <AMW>
7.19

>  <WPath>
521

>  <WPol>
33

>  <Zagreb1>
96

>  <Zagreb2>
115

>  <mZagreb2>
3.97

>  <yes>


>  <nAR-cont>
0.816016

>  <nHA-cont>
0.991161285

>  <MWHBN>
0.129881083

>  <MWHBN-cont>
0.869070678

>  <TPSA-cont>
0.699205043

>  <pka_cont>
0.97

>  <yes.1>


>  <BBB_SCORE>
4.994193387

>  <MMFF94 Energy>
82.909

$$$$
Compound 1720
Actelion Java MolfileCreator 2.0

  0  0  0  0  0  0              0 V3000
M  V30 BEGIN CTAB
M  V30 COUNTS 34 36 0 0 0
M  V30 BEGIN ATOM
M  V30 1 O -1.9984 -1.7584 0.0 0
M  V30 2 C -0.834 -1.404 0.1272 0
M  V30 3 N -0.1419 -1.3249 1.3385 0
M  V30 4 C 0.1226 -0.9234 -0.9869 0 CFG=1
M  V30 5 C 1.14 -0.7957 1.1588 0
M  V30 6 C -0.7241 -1.6719 2.617 0
M  V30 7 C -0.4672 0.1994 -1.8155 0
M  V30 8 C 1.3544 -0.5461 -0.1991 0
M  V30 9 C 2.1066 -0.5155 2.1063 0
M  V30 10 C -1.4939 -0.491 3.2016 0
M  V30 11 C -0.708 0.0034 -3.1842 0
M  V30 12 C -0.792 1.4431 -1.2471 0
M  V30 13 C 2.5579 -0.0271 -0.6494 0
M  V30 14 C 3.322 0.0137 1.6621 0
M  V30 15 O -1.2802 -0.0396 4.3231 0
M  V30 16 N -2.52 -0.0121 2.436 0
M  V30 17 C -1.2539 1.0248 -3.9642 0
M  V30 18 C -1.3367 2.4627 -2.0296 0
M  V30 19 C 3.5468 0.2531 0.2957 0
M  V30 20 C -1.5672 2.2536 -3.3873 0
M  V30 21 H 0.3594 -1.7971 -1.6071 0
M  V30 22 H -1.434 -2.4947 2.4735 0
M  V30 23 H 0.0468 -2.004 3.318 0
M  V30 24 H 1.9457 -0.6854 3.1651 0
M  V30 25 H -0.4767 -0.9495 -3.6554 0
M  V30 26 H -0.6201 1.6313 -0.1886 0
M  V30 27 H 2.7271 0.1699 -1.7037 0
M  V30 28 H 4.1029 0.2472 2.3828 0
M  V30 29 H -3.0807 0.7499 2.7908 0
M  V30 30 H -2.7574 -0.4219 1.5358 0
M  V30 31 H -1.438 0.8602 -5.0228 0
M  V30 32 H -1.5816 3.4208 -1.5782 0
M  V30 33 H 4.4994 0.6682 -0.0267 0
M  V30 34 H -1.9931 3.0475 -3.9952 0
M  V30 END ATOM
M  V30 BEGIN BOND
M  V30 1 2 1 2
M  V30 2 1 2 3
M  V30 3 1 2 4
M  V30 4 1 3 5
M  V30 5 1 3 6
M  V30 6 1 4 7
M  V30 7 1 4 8
M  V30 8 1 5 9
M  V30 9 1 6 10
M  V30 10 2 7 11
M  V30 11 1 7 12
M  V30 12 1 8 13
M  V30 13 2 9 14
M  V30 14 2 10 15
M  V30 15 1 10 16
M  V30 16 1 11 17
M  V30 17 2 12 18
M  V30 18 2 13 19
M  V30 19 2 17 20
M  V30 20 2 5 8
M  V30 21 1 14 19
M  V30 22 1 18 20
M  V30 23 1 4 21
M  V30 24 1 6 22
M  V30 25 1 6 23
M  V30 26 1 9 24
M  V30 27 1 11 25
M  V30 28 1 12 26
M  V30 29 1 13 27
M  V30 30 1 14 28
M  V30 31 1 16 29
M  V30 32 1 16 30
M  V30 33 1 17 31
M  V30 34 1 18 32
M  V30 35 1 19 33
M  V30 36 1 20 34
M  V30 END BOND
M  V30 BEGIN COLLECTION
M  V30 MDLV30/STERAC1 ATOMS=(1 4)
M  V30 END COLLECTION
M  V30 END CTAB
M  END
>  <Column 1>
2093

>  <level_0>
2273

>  <index>
2273

>  <Unnamed: 0>
2273

>  <NO.>
2285

>  <Name>
doliracetam

>  <IUPAC_name>
2-(2-oxo-3-phenyl-3h-indol-1-yl)acetamide

>  <SMILES>
NC(=O)CN1C(=O)C(c2ccccc2)c2ccccc21

>  <CID>
208851

>  <logBB>


>  <BBB+/BBB->
BBB+

>  <Inchi>
InChI=1S/C16H14N2O2/c17-14(19)10-18-13-9-5-4-8-12(13)15(16(18)20)11-6-2-1-3-7-11/h1-9-15H-10H2-(H2-17-19)

>  <threshold>
-1

>  <reference>
R1|R19|R6|R27|R27|R30|

>  <group>
B

>  <Class>
1

>  <ABC>
15.64

>  <ABCGG>
13.26

>  <nAcid>
0

>  <nBase>
0

>  <nAromAtom>
12

>  <nAromBond>
12

>  <nAtom>
34

>  <nHeavyAtom>
20

>  <nSpiro>
0

>  <nBridgehead>
0

>  <nHetero>
4

>  <nN>
2

>  <nO>
2

>  <nF>
0

>  <BalabanJ>
1.77

>  <BertzCT>
667.19

>  <nBonds>
36

>  <nBondsO>
22

>  <nBondsS>
22

>  <nBondsD>
2

>  <nBondsT>
0

>  <nBondsA>
12

>  <nBondsM>
14

>  <nBondsKS>
28

>  <nBondsKD>
8

>  <RNCG>
0.21

>  <RPCG>
0.13

>  <FCSP3>
0.13

>  <SZ>
23.33

>  <Sm>
22.17

>  <Sv>
22.74

>  <Sse>
34.2

>  <Sp>
23.87

>  <Si>
37.91

>  <MZ>
0.69

>  <Mm>
0.65

>  <Mv>
0.67

>  <Mse>
1.01

>  <Mp>
0.7

>  <Mi>
1.11

>  <NsCH3>
0

>  <NdCH2>
0

>  <NssCH2>
1

>  <NtCH>
0

>  <NdsCH>
0

>  <NaaCH>
9

>  <NsssCH>
1

>  <NddC>
0

>  <NtsC>
0

>  <NdssC>
2

>  <NaasC>
3

>  <NaaaC>
0

>  <NssssC>
0

>  <NsNH3>
0

>  <NsNH2>
1

>  <NssNH2>
0

>  <NdNH>
0

>  <NssNH>
0

>  <NaaNH>
0

>  <NtN>
0

>  <NsssNH>
0

>  <NdsN>
0

>  <NaaN>
0

>  <NsssN>
1

>  <NddsN>
0

>  <NaasN>
0

>  <NssssN>
0

>  <NsOH>
0

>  <NdO>
2

>  <NssO>
0

>  <NaaO>
0

>  <NsF>
0

>  <NsSiH3>
0

>  <NssSiH2>
0

>  <NsssSiH>
0

>  <NssssSi>
0

>  <NsPH2>
0

>  <NssPH>
0

>  <NsssP>
0

>  <NdsssP>
0

>  <NsssssP>
0

>  <NsSH>
0

>  <NdS>
0

>  <NssS>
0

>  <NaaS>
0

>  <NdssS>
0

>  <NddssS>
0

>  <NsCl>
0

>  <NsBr>
0

>  <NsI>
0

>  <fragCpx>
104.04

>  <fMF>
0.44

>  <nHBAcc>
2

>  <nHBDon>
1

>  <Kier1>
14.92

>  <Kier2>
6.41

>  <Lipinski>
1

>  <GhoseFilter>
1

>  <FilterItLogS>
-3.09

>  <VMcGowan>
201.02

>  <LabuteASA>
116.37

>  <PEOE_VSA1>
10.63

>  <PEOE_VSA2>
9.59

>  <PEOE_VSA3>
0

>  <PEOE_VSA4>
0

>  <PEOE_VSA5>
0

>  <PEOE_VSA6>
48.53

>  <PEOE_VSA7>
17.19

>  <PEOE_VSA8>
5.69

>  <PEOE_VSA9>
5.92

>  <PEOE_VSA10>
6.54

>  <PEOE_VSA11>
0

>  <PEOE_VSA12>
11.81

>  <PEOE_VSA13>
0

>  <SMR_VSA1>
9.59

>  <SMR_VSA2>
0

>  <SMR_VSA3>
0

>  <SMR_VSA4>
5.73

>  <SMR_VSA5>
5.92

>  <SMR_VSA6>
11.44

>  <SMR_VSA7>
65.72

>  <SMR_VSA8>
0

>  <SMR_VSA9>
0

>  <SlogP_VSA1>
10.63

>  <SlogP_VSA2>
18.36

>  <SlogP_VSA3>
9.59

>  <SlogP_VSA4>
0

>  <SlogP_VSA5>
17.04

>  <SlogP_VSA6>
54.6

>  <SlogP_VSA7>
0

>  <SlogP_VSA8>
0

>  <SlogP_VSA9>
0

>  <SlogP_VSA10>
5.69

>  <SlogP_VSA11>
0

>  <EState_VSA1>
5.91

>  <EState_VSA2>
18.37

>  <EState_VSA3>
0

>  <EState_VSA4>
16.81

>  <EState_VSA5>
4.9

>  <EState_VSA6>
0

>  <EState_VSA7>
54.6

>  <EState_VSA8>
0

>  <EState_VSA9>
5.73

>  <EState_VSA10>
9.59

>  <VSA_EState1>
0

>  <VSA_EState2>
25.27

>  <VSA_EState3>
0

>  <VSA_EState4>
7.86

>  <VSA_EState5>
-0.97

>  <VSA_EState6>
17.09

>  <VSA_EState7>
0

>  <VSA_EState8>
-0.08

>  <VSA_EState9>
0

>  <apol>
39.86

>  <bpol>
16.92

>  <nRing>
3

>  <nHRing>
1

>  <naRing>
2

>  <naHRing>
0

>  <nARing 2>
1

>  <nAHRing 2>
1

>  <nFRing>
1

>  <nFHRing>
1

>  <nFaRing>
0

>  <nFaHRing>
0

>  <nFARing 2>
1

>  <nFAHRing 2>
1

>  <nRot>
3

>  <SLogP>
1.65

>  <SMR>
76.27

>  <TopoPSA(NO)>
63.4

>  <TopoPSA>
63.4

>  <JGI1>
0.14

>  <JGI2>
0.06

>  <JGI3>
0.07

>  <JGI4>
0.04

>  <JGI5>
0.02

>  <Diameter>
9

>  <Radius>
5

>  <TMWC10>
116.56

>  <TSRW10>
68.45

>  <MW>
266.11

>  <AMW>
7.83

>  <WPath>
746

>  <WPol>
32

>  <Zagreb1>
106

>  <Zagreb2>
127

>  <mZagreb2>
4.42

>  <yes>


>  <nAR-cont>
0.816016

>  <nHA-cont>
0.999629945

>  <MWHBN>
0.183903781

>  <MWHBN-cont>
0.991022681

>  <TPSA-cont>
0.557428631

>  <pka_cont>
0.97

>  <yes.1>


>  <BBB_SCORE>
4.902037229

>  <MMFF94 Energy>
58.578

$$$$
Compound 1721
Actelion Java MolfileCreator 2.0

  0  0  0  0  0  0              0 V3000
M  V30 BEGIN CTAB
M  V30 COUNTS 25 26 0 0 0
M  V30 BEGIN ATOM
M  V30 1 O 1.1127 -2.0673 -1.6695 0
M  V30 2 C 0.7843 -1.2148 -0.8447 0
M  V30 3 O 1.0851 -1.3935 0.5086 0
M  V30 4 N 0.1156 -0.0557 -1.2 0
M  V30 5 C 0.8535 -0.3705 1.439 0
M  V30 6 C -0.6081 0.7338 -0.225 0
M  V30 7 C -0.1884 0.1599 -2.6084 0
M  V30 8 C 0.0482 0.711 1.1111 0
M  V30 9 C 1.448 -0.4879 2.6924 0
M  V30 10 C -1.4995 -0.533 -2.9698 0
M  V30 11 C -0.1753 1.7016 2.0727 0
M  V30 12 C 1.2322 0.5086 3.6421 0
M  V30 13 O -2.5885 0.0314 -2.941 0
M  V30 14 N -1.3945 -1.8677 -3.236 0
M  V30 15 C 0.4214 1.6025 3.3325 0
M  V30 16 H -0.6603 1.765 -0.5923 0
M  V30 17 H -1.6236 0.3308 -0.1417 0
M  V30 18 H -0.2702 1.2325 -2.8113 0
M  V30 19 H 0.6156 -0.2406 -3.2357 0
M  V30 20 H 2.073 -1.3446 2.926 0
M  V30 21 H -0.8164 2.5521 1.8515 0
M  V30 22 H 1.6915 0.4323 4.6243 0
M  V30 23 H -2.2307 -2.3943 -3.4467 0
M  V30 24 H -0.5176 -2.3661 -3.102 0
M  V30 25 H 0.2488 2.3761 4.0772 0
M  V30 END ATOM
M  V30 BEGIN BOND
M  V30 1 2 1 2
M  V30 2 1 2 3
M  V30 3 1 2 4
M  V30 4 1 3 5
M  V30 5 1 4 6
M  V30 6 1 4 7
M  V30 7 2 5 8
M  V30 8 1 5 9
M  V30 9 1 7 10
M  V30 10 1 8 11
M  V30 11 2 9 12
M  V30 12 2 10 13
M  V30 13 1 10 14
M  V30 14 2 11 15
M  V30 15 1 6 8
M  V30 16 1 12 15
M  V30 17 1 6 16
M  V30 18 1 6 17
M  V30 19 1 7 18
M  V30 20 1 7 19
M  V30 21 1 9 20
M  V30 22 1 11 21
M  V30 23 1 12 22
M  V30 24 1 14 23
M  V30 25 1 14 24
M  V30 26 1 15 25
M  V30 END BOND
M  V30 END CTAB
M  END
>  <Column 1>
2097

>  <level_0>
2277

>  <index>
2277

>  <Unnamed: 0>
2277

>  <NO.>
2289

>  <Name>
caroxazone

>  <IUPAC_name>
2-(2-oxo-4h-1-3-benzoxazin-3-yl)acetamide

>  <SMILES>
NC(=O)CN1Cc2ccccc2OC1=O

>  <CID>
29083

>  <logBB>


>  <BBB+/BBB->
BBB+

>  <Inchi>
InChI=1S/C10H10N2O3/c11-9(13)6-12-5-7-3-1-2-4-8(7)15-10(12)14/h1-4H-5-6H2-(H2-11-13)

>  <threshold>
-1

>  <reference>
R1|R13|R19|R6|R24|R27|R27|R27|R30|R30|

>  <group>
B

>  <Class>
1

>  <ABC>
11.56

>  <ABCGG>
9.84

>  <nAcid>
0

>  <nBase>
0

>  <nAromAtom>
6

>  <nAromBond>
6

>  <nAtom>
25

>  <nHeavyAtom>
15

>  <nSpiro>
0

>  <nBridgehead>
0

>  <nHetero>
5

>  <nN>
2

>  <nO>
3

>  <nF>
0

>  <BalabanJ>
1.92

>  <BertzCT>
416.88

>  <nBonds>
26

>  <nBondsO>
16

>  <nBondsS>
18

>  <nBondsD>
2

>  <nBondsT>
0

>  <nBondsA>
6

>  <nBondsM>
8

>  <nBondsKS>
21

>  <nBondsKD>
5

>  <RNCG>
0.23

>  <RPCG>
0.24

>  <FCSP3>
0.2

>  <SZ>
18

>  <Sm>
17.17

>  <Sv>
16.37

>  <Sse>
25.76

>  <Sp>
16.75

>  <Si>
28.29

>  <MZ>
0.72

>  <Mm>
0.69

>  <Mv>
0.65

>  <Mse>
1.03

>  <Mp>
0.67

>  <Mi>
1.13

>  <NsCH3>
0

>  <NdCH2>
0

>  <NssCH2>
2

>  <NtCH>
0

>  <NdsCH>
0

>  <NaaCH>
4

>  <NsssCH>
0

>  <NddC>
0

>  <NtsC>
0

>  <NdssC>
2

>  <NaasC>
2

>  <NaaaC>
0

>  <NssssC>
0

>  <NsNH3>
0

>  <NsNH2>
1

>  <NssNH2>
0

>  <NdNH>
0

>  <NssNH>
0

>  <NaaNH>
0

>  <NtN>
0

>  <NsssNH>
0

>  <NdsN>
0

>  <NaaN>
0

>  <NsssN>
1

>  <NddsN>
0

>  <NaasN>
0

>  <NssssN>
0

>  <NsOH>
0

>  <NdO>
2

>  <NssO>
1

>  <NaaO>
0

>  <NsF>
0

>  <NsSiH3>
0

>  <NssSiH2>
0

>  <NsssSiH>
0

>  <NssssSi>
0

>  <NsPH2>
0

>  <NssPH>
0

>  <NsssP>
0

>  <NdsssP>
0

>  <NsssssP>
0

>  <NsSH>
0

>  <NdS>
0

>  <NssS>
0

>  <NaaS>
0

>  <NdssS>
0

>  <NddssS>
0

>  <NsCl>
0

>  <NsBr>
0

>  <NsI>
0

>  <fragCpx>
46.05

>  <fMF>
0.4

>  <nHBAcc>
3

>  <nHBDon>
1

>  <Kier1>
11.48

>  <Kier2>
4.89

>  <Lipinski>
1

>  <GhoseFilter>
1

>  <FilterItLogS>
-1.31

>  <VMcGowan>
146.11

>  <LabuteASA>
86.42

>  <PEOE_VSA1>
10.47

>  <PEOE_VSA2>
9.69

>  <PEOE_VSA3>
4.79

>  <PEOE_VSA4>
0

>  <PEOE_VSA5>
0

>  <PEOE_VSA6>
18.2

>  <PEOE_VSA7>
6.07

>  <PEOE_VSA8>
5.56

>  <PEOE_VSA9>
6.54

>  <PEOE_VSA10>
12.29

>  <PEOE_VSA11>
0

>  <PEOE_VSA12>
5.91

>  <PEOE_VSA13>
0

>  <SMR_VSA1>
14.33

>  <SMR_VSA2>
0

>  <SMR_VSA3>
4.9

>  <SMR_VSA4>
5.73

>  <SMR_VSA5>
6.54

>  <SMR_VSA6>
6.54

>  <SMR_VSA7>
29.83

>  <SMR_VSA8>
0

>  <SMR_VSA9>
5.75

>  <SlogP_VSA1>
10.47

>  <SlogP_VSA2>
23.45

>  <SlogP_VSA3>
11.34

>  <SlogP_VSA4>
0

>  <SlogP_VSA5>
5.56

>  <SlogP_VSA6>
24.27

>  <SlogP_VSA7>
0

>  <SlogP_VSA8>
0

>  <SlogP_VSA9>
0

>  <SlogP_VSA10>
4.79

>  <SlogP_VSA11>
5.75

>  <EState_VSA1>
12

>  <EState_VSA2>
6.54

>  <EState_VSA3>
12.29

>  <EState_VSA4>
5.56

>  <EState_VSA5>
4.9

>  <EState_VSA6>
12.13

>  <EState_VSA7>
12.13

>  <EState_VSA8>
0

>  <EState_VSA9>
10.47

>  <EState_VSA10>
9.59

>  <VSA_EState1>
5.02

>  <VSA_EState2>
23.35

>  <VSA_EState3>
0

>  <VSA_EState4>
5.89

>  <VSA_EState5>
-0.01

>  <VSA_EState6>
7.2

>  <VSA_EState7>
-0.53

>  <VSA_EState8>
0.24

>  <VSA_EState9>
0

>  <apol>
27.97

>  <bpol>
14.64

>  <nRing>
2

>  <nHRing>
1

>  <naRing>
1

>  <naHRing>
0

>  <nARing 2>
1

>  <nAHRing 2>
1

>  <nFRing>
1

>  <nFHRing>
1

>  <nFaRing>
0

>  <nFaHRing>
0

>  <nFARing 2>
1

>  <nFAHRing 2>
1

>  <nRot>
2

>  <SLogP>
0.49

>  <SMR>
52.07

>  <TopoPSA(NO)>
72.63

>  <TopoPSA>
72.63

>  <JGI1>
0.22

>  <JGI2>
0.07

>  <JGI3>
0.04

>  <JGI4>
0.07

>  <JGI5>
0.02

>  <Diameter>
8

>  <Radius>
4

>  <TMWC10>
100.85

>  <TSRW10>
47.05

>  <MW>
206.07

>  <AMW>
8.24

>  <WPath>
360

>  <WPol>
21

>  <Zagreb1>
76

>  <Zagreb2>
87

>  <mZagreb2>
3.31

>  <yes>


>  <nAR-cont>
0.816016

>  <nHA-cont>
0.92539861

>  <MWHBN>
0.278645867

>  <MWHBN-cont>
0.899487148

>  <TPSA-cont>
0.492997499

>  <pka_cont>
0.97

>  <yes.1>


>  <BBB_SCORE>
4.561640331

>  <MMFF94 Energy>
-22.377

$$$$
Compound 1722
Actelion Java MolfileCreator 2.0

  0  0  0  0  0  0              0 V3000
M  V30 BEGIN CTAB
M  V30 COUNTS 34 35 0 0 0
M  V30 BEGIN ATOM
M  V30 1 S -1.1328 1.1328 1.4566 0 CFG=2
M  V30 2 O -1.1075 0.653 2.8817 0
M  V30 3 C -0.0202 0.0684 0.4242 0
M  V30 4 C -0.1648 2.668 1.3811 0
M  V30 5 C -0.3263 -1.4278 0.5178 0
M  V30 6 C 0.0143 0.5564 -1.0194 0
M  V30 7 C 1.2312 2.5311 1.9398 0
M  V30 8 C 0.735 -2.3409 0.3673 0
M  V30 9 C -1.6202 -1.9453 0.6953 0
M  V30 10 C -1.1224 0.5066 -1.8441 0
M  V30 11 C 1.2058 1.0762 -1.5533 0
M  V30 12 O 2.2371 2.8117 1.2951 0
M  V30 13 N 1.3259 2.1036 3.2302 0
M  V30 14 C 0.5127 -3.7185 0.4127 0
M  V30 15 C -1.8403 -3.3246 0.7423 0
M  V30 16 C -1.069 0.9695 -3.1602 0
M  V30 17 C 1.2549 1.5407 -2.8686 0
M  V30 18 C -0.7752 -4.2098 0.6024 0
M  V30 19 C 0.1181 1.4877 -3.671 0
M  V30 20 H 0.9712 0.1949 0.8743 0
M  V30 21 H -0.1231 3.0218 0.3481 0
M  V30 22 H -0.7006 3.4198 1.9699 0
M  V30 23 H 1.75 -1.9812 0.2081 0
M  V30 24 H -2.479 -1.288 0.8068 0
M  V30 25 H -2.0607 0.0994 -1.4737 0
M  V30 26 H 2.109 1.1333 -0.9467 0
M  V30 27 H 0.5189 1.718 3.7189 0
M  V30 28 H 2.2386 2.0059 3.6531 0
M  V30 29 H 1.3456 -4.407 0.2975 0
M  V30 30 H -2.8472 -3.7069 0.8903 0
M  V30 31 H -1.9545 0.921 -3.7891 0
M  V30 32 H 2.183 1.9443 -3.266 0
M  V30 33 H -0.9496 -5.2816 0.6397 0
M  V30 34 H 0.159 1.8467 -4.696 0
M  V30 END ATOM
M  V30 BEGIN BOND
M  V30 1 2 1 2
M  V30 2 1 1 3
M  V30 3 1 1 4
M  V30 4 1 3 5
M  V30 5 1 3 6
M  V30 6 1 4 7
M  V30 7 2 5 8
M  V30 8 1 5 9
M  V30 9 2 6 10
M  V30 10 1 6 11
M  V30 11 2 7 12
M  V30 12 1 7 13
M  V30 13 1 8 14
M  V30 14 2 9 15
M  V30 15 1 10 16
M  V30 16 2 11 17
M  V30 17 2 14 18
M  V30 18 2 16 19
M  V30 19 1 15 18
M  V30 20 1 17 19
M  V30 21 1 3 20
M  V30 22 1 4 21
M  V30 23 1 4 22
M  V30 24 1 8 23
M  V30 25 1 9 24
M  V30 26 1 10 25
M  V30 27 1 11 26
M  V30 28 1 13 27
M  V30 29 1 13 28
M  V30 30 1 14 29
M  V30 31 1 15 30
M  V30 32 1 16 31
M  V30 33 1 17 32
M  V30 34 1 18 33
M  V30 35 1 19 34
M  V30 END BOND
M  V30 BEGIN COLLECTION
M  V30 MDLV30/STERAC1 ATOMS=(1 1)
M  V30 END COLLECTION
M  V30 END CTAB
M  END
>  <Column 1>
2098

>  <level_0>
2278

>  <index>
2278

>  <Unnamed: 0>
2278

>  <NO.>
2290

>  <Name>
modafinil

>  <IUPAC_name>
2-benzhydrylsulfinylacetamide

>  <SMILES>
NC(=O)C[S+]([O-])C(c1ccccc1)c1ccccc1

>  <CID>
4236

>  <logBB>


>  <BBB+/BBB->
BBB+

>  <Inchi>
InChI=1S/C15H15NO2S/c16-14(17)11-19(18)15(12-7-3-1-4-8-12)13-9-5-2-6-10-13/h1-10-15H-11H2-(H2-16-17)

>  <threshold>
-1

>  <reference>
R1|R13|R19|R6|R14|R23|R27|R27|R27|R27|R30|R30|R37|

>  <group>
B

>  <Class>
1

>  <ABC>
14.35

>  <ABCGG>
12.58

>  <nAcid>
0

>  <nBase>
0

>  <nAromAtom>
12

>  <nAromBond>
12

>  <nAtom>
34

>  <nHeavyAtom>
19

>  <nSpiro>
0

>  <nBridgehead>
0

>  <nHetero>
4

>  <nN>
1

>  <nO>
2

>  <nF>
0

>  <BalabanJ>
2.01

>  <BertzCT>
490.86

>  <nBonds>
35

>  <nBondsO>
20

>  <nBondsS>
22

>  <nBondsD>
1

>  <nBondsT>
0

>  <nBondsA>
12

>  <nBondsM>
13

>  <nBondsKS>
28

>  <nBondsKD>
7

>  <RNCG>
0.33

>  <RPCG>
0.14

>  <FCSP3>
0.13

>  <SZ>
24

>  <Sm>
22.76

>  <Sv>
22.44

>  <Sse>
34.06

>  <Sp>
24.34

>  <Si>
37.74

>  <MZ>
0.71

>  <Mm>
0.67

>  <Mv>
0.66

>  <Mse>
1

>  <Mp>
0.72

>  <Mi>
1.11

>  <NsCH3>
0

>  <NdCH2>
0

>  <NssCH2>
1

>  <NtCH>
0

>  <NdsCH>
0

>  <NaaCH>
10

>  <NsssCH>
1

>  <NddC>
0

>  <NtsC>
0

>  <NdssC>
1

>  <NaasC>
2

>  <NaaaC>
0

>  <NssssC>
0

>  <NsNH3>
0

>  <NsNH2>
1

>  <NssNH2>
0

>  <NdNH>
0

>  <NssNH>
0

>  <NaaNH>
0

>  <NtN>
0

>  <NsssNH>
0

>  <NdsN>
0

>  <NaaN>
0

>  <NsssN>
0

>  <NddsN>
0

>  <NaasN>
0

>  <NssssN>
0

>  <NsOH>
0

>  <NdO>
1

>  <NssO>
0

>  <NaaO>
0

>  <NsF>
0

>  <NsSiH3>
0

>  <NssSiH2>
0

>  <NsssSiH>
0

>  <NssssSi>
0

>  <NsPH2>
0

>  <NssPH>
0

>  <NsssP>
0

>  <NdsssP>
0

>  <NsssssP>
0

>  <NsSH>
0

>  <NdS>
0

>  <NssS>
0

>  <NaaS>
0

>  <NdssS>
0

>  <NddssS>
0

>  <NsCl>
0

>  <NsBr>
0

>  <NsI>
0

>  <fragCpx>
58.04

>  <fMF>
0.38

>  <nHBAcc>
2

>  <nHBDon>
1

>  <Kier1>
15.39

>  <Kier2>
7.7

>  <Lipinski>
1

>  <GhoseFilter>
1

>  <FilterItLogS>
-3.61

>  <VMcGowan>
208.46

>  <LabuteASA>
115.18

>  <PEOE_VSA1>
10.29

>  <PEOE_VSA2>
4.79

>  <PEOE_VSA3>
0

>  <PEOE_VSA4>
0

>  <PEOE_VSA5>
0

>  <PEOE_VSA6>
60.66

>  <PEOE_VSA7>
11.18

>  <PEOE_VSA8>
11.13

>  <PEOE_VSA9>
0

>  <PEOE_VSA10>
0

>  <PEOE_VSA11>
11

>  <PEOE_VSA12>
0

>  <PEOE_VSA13>
5.91

>  <SMR_VSA1>
9.35

>  <SMR_VSA2>
0

>  <SMR_VSA3>
0

>  <SMR_VSA4>
5.73

>  <SMR_VSA5>
5.25

>  <SMR_VSA6>
5.75

>  <SMR_VSA7>
71.79

>  <SMR_VSA8>
0

>  <SMR_VSA9>
0

>  <SlogP_VSA1>
5.73

>  <SlogP_VSA2>
16.21

>  <SlogP_VSA3>
15.97

>  <SlogP_VSA4>
0

>  <SlogP_VSA5>
16.38

>  <SlogP_VSA6>
60.66

>  <SlogP_VSA7>
0

>  <SlogP_VSA8>
0

>  <SlogP_VSA9>
0

>  <SlogP_VSA10>
0

>  <SlogP_VSA11>
0

>  <EState_VSA1>
17.08

>  <EState_VSA2>
11

>  <EState_VSA3>
0

>  <EState_VSA4>
11.13

>  <EState_VSA5>
0

>  <EState_VSA6>
0

>  <EState_VSA7>
60.66

>  <EState_VSA8>
0

>  <EState_VSA9>
5.73

>  <EState_VSA10>
9.35

>  <VSA_EState1>
12.36

>  <VSA_EState2>
11.01

>  <VSA_EState3>
-0.32

>  <VSA_EState4>
7

>  <VSA_EState5>
-0.68

>  <VSA_EState6>
19.05

>  <VSA_EState7>
0

>  <VSA_EState8>
0

>  <VSA_EState9>
0

>  <apol>
40.66

>  <bpol>
19.9

>  <nRing>
2

>  <nHRing>
0

>  <naRing>
2

>  <naHRing>
0

>  <nARing 2>
0

>  <nAHRing 2>
0

>  <nFRing>
0

>  <nFHRing>
0

>  <nFaRing>
0

>  <nFaHRing>
0

>  <nFARing 2>
0

>  <nFAHRing 2>
0

>  <nRot>
5

>  <SLogP>
2.01

>  <SMR>
76.93

>  <TopoPSA(NO)>
66.15

>  <TopoPSA>
66.15

>  <JGI1>
0.15

>  <JGI2>
0.06

>  <JGI3>
0.06

>  <JGI4>
0.03

>  <JGI5>
0.02

>  <Diameter>
8

>  <Radius>
4

>  <TMWC10>
110.18

>  <TSRW10>
51.76

>  <MW>
273.08

>  <AMW>
8.03

>  <WPath>
684

>  <WPol>
26

>  <Zagreb1>
92

>  <Zagreb2>
104

>  <mZagreb2>
4.33

>  <yes>


>  <nAR-cont>
0.336376

>  <nHA-cont>
0.998649058

>  <MWHBN>
0.181541662

>  <MWHBN-cont>
0.988773002

>  <TPSA-cont>
0.538231923

>  <pka_cont>
0.97

>  <yes.1>


>  <BBB_SCORE>
4.379648407

>  <MMFF94 Energy>
47.734

$$$$
Compound 1723
Actelion Java MolfileCreator 2.0

  0  0  0  0  0  0              0 V3000
M  V30 BEGIN CTAB
M  V30 COUNTS 29 30 0 0 0
M  V30 BEGIN ATOM
M  V30 1 F -2.0897 3.2969 3.2164 0
M  V30 2 C -1.5092 4.0449 2.2368 0
M  V30 3 F -0.5484 4.7874 2.8527 0
M  V30 4 F -2.4634 4.9301 1.8329 0
M  V30 5 C -0.9552 3.2142 1.1075 0
M  V30 6 C -0.4133 1.9442 1.3601 0
M  V30 7 C -0.9356 3.7077 -0.2045 0
M  V30 8 C 0.1196 1.1733 0.3245 0
M  V30 9 C -0.397 2.9411 -1.2385 0
M  V30 10 O 0.6151 -0.0485 0.7054 0
M  V30 11 C 0.1317 1.6753 -0.9751 0
M  V30 12 C 0.9582 -1.0146 -0.3141 0
M  V30 13 C 1.3197 -2.4197 0.2182 0
M  V30 14 C -0.2022 -1.6848 -1.0819 0
M  V30 15 N 0.4474 -2.9472 -0.8026 0
M  V30 16 C 0.2286 -4.1691 -1.3368 0
M  V30 17 O -0.5851 -4.3919 -2.2252 0
M  V30 18 N 0.9845 -5.1686 -0.8264 0
M  V30 19 H -0.4092 1.5467 2.3744 0
M  V30 20 H -1.3403 4.6945 -0.4263 0
M  V30 21 H -0.385 3.3325 -2.2535 0
M  V30 22 H 0.5517 1.1146 -1.8033 0
M  V30 23 H 1.7572 -0.637 -0.9683 0
M  V30 24 H 0.9773 -2.6464 1.232 0
M  V30 25 H 2.3701 -2.6976 0.1009 0
M  V30 26 H -1.1902 -1.6043 -0.6193 0
M  V30 27 H -0.2579 -1.4382 -2.1451 0
M  V30 28 H 0.8468 -6.0962 -1.2015 0
M  V30 29 H 1.6377 -5.0267 -0.0746 0
M  V30 END ATOM
M  V30 BEGIN BOND
M  V30 1 1 1 2
M  V30 2 1 2 3
M  V30 3 1 2 4
M  V30 4 1 2 5
M  V30 5 2 5 6
M  V30 6 1 5 7
M  V30 7 1 6 8
M  V30 8 2 7 9
M  V30 9 1 8 10
M  V30 10 2 8 11
M  V30 11 1 10 12
M  V30 12 1 12 13
M  V30 13 1 12 14
M  V30 14 1 13 15
M  V30 15 1 15 16
M  V30 16 2 16 17
M  V30 17 1 16 18
M  V30 18 1 9 11
M  V30 19 1 14 15
M  V30 20 1 6 19
M  V30 21 1 7 20
M  V30 22 1 9 21
M  V30 23 1 11 22
M  V30 24 1 12 23
M  V30 25 1 13 24
M  V30 26 1 13 25
M  V30 27 1 14 26
M  V30 28 1 14 27
M  V30 29 1 18 28
M  V30 30 1 18 29
M  V30 END BOND
M  V30 END CTAB
M  END
>  <Column 1>
2099

>  <level_0>
2279

>  <index>
2279

>  <Unnamed: 0>
2279

>  <NO.>
2291

>  <Name>
dezinamide

>  <IUPAC_name>
3-[3-(trifluoromethyl)phenoxy]azetidine-1-carboxamide

>  <SMILES>
NC(=O)N1CC(Oc2cccc(C(F)(F)F)c2)C1

>  <CID>
146291

>  <logBB>


>  <BBB+/BBB->
BBB+

>  <Inchi>
InChI=1S/C11H11F3N2O2/c12-11(13-14)7-2-1-3-8(4-7)18-9-5-16(6-9)10(15)17/h1-4-9H-5-6H2-(H2-15-17)

>  <threshold>
-1

>  <reference>
R1|R13|R19|R6|R24|R27|R27|R27|R30|R30|

>  <group>
B

>  <Class>
1

>  <ABC>
14.03

>  <ABCGG>
11.89

>  <nAcid>
0

>  <nBase>
0

>  <nAromAtom>
6

>  <nAromBond>
6

>  <nAtom>
29

>  <nHeavyAtom>
18

>  <nSpiro>
0

>  <nBridgehead>
0

>  <nHetero>
7

>  <nN>
2

>  <nO>
2

>  <nF>
3

>  <BalabanJ>
1.74

>  <BertzCT>
455.85

>  <nBonds>
30

>  <nBondsO>
19

>  <nBondsS>
23

>  <nBondsD>
1

>  <nBondsT>
0

>  <nBondsA>
6

>  <nBondsM>
7

>  <nBondsKS>
26

>  <nBondsKD>
4

>  <RNCG>
0.24

>  <RPCG>
0.2

>  <FCSP3>
0.36

>  <SZ>
22.33

>  <Sm>
21.66

>  <Sv>
18.87

>  <Sse>
30.74

>  <Sp>
18.67

>  <Si>
33.93

>  <MZ>
0.77

>  <Mm>
0.75

>  <Mv>
0.65

>  <Mse>
1.06

>  <Mp>
0.64

>  <Mi>
1.17

>  <NsCH3>
0

>  <NdCH2>
0

>  <NssCH2>
2

>  <NtCH>
0

>  <NdsCH>
0

>  <NaaCH>
4

>  <NsssCH>
1

>  <NddC>
0

>  <NtsC>
0

>  <NdssC>
1

>  <NaasC>
2

>  <NaaaC>
0

>  <NssssC>
1

>  <NsNH3>
0

>  <NsNH2>
1

>  <NssNH2>
0

>  <NdNH>
0

>  <NssNH>
0

>  <NaaNH>
0

>  <NtN>
0

>  <NsssNH>
0

>  <NdsN>
0

>  <NaaN>
0

>  <NsssN>
1

>  <NddsN>
0

>  <NaasN>
0

>  <NssssN>
0

>  <NsOH>
0

>  <NdO>
1

>  <NssO>
1

>  <NaaO>
0

>  <NsF>
3

>  <NsSiH3>
0

>  <NssSiH2>
0

>  <NsssSiH>
0

>  <NssssSi>
0

>  <NsPH2>
0

>  <NssPH>
0

>  <NsssP>
0

>  <NdsssP>
0

>  <NsssssP>
0

>  <NsSH>
0

>  <NdS>
0

>  <NssS>
0

>  <NaaS>
0

>  <NdssS>
0

>  <NddssS>
0

>  <NsCl>
0

>  <NsBr>
0

>  <NsI>
0

>  <fragCpx>
55.07

>  <fMF>
0.38

>  <nHBAcc>
2

>  <nHBDon>
1

>  <Kier1>
14.41

>  <Kier2>
5.55

>  <Lipinski>
1

>  <GhoseFilter>
1

>  <FilterItLogS>
-1.95

>  <VMcGowan>
163.91

>  <LabuteASA>
101.12

>  <PEOE_VSA1>
15.37

>  <PEOE_VSA2>
0

>  <PEOE_VSA3>
4.79

>  <PEOE_VSA4>
13.17

>  <PEOE_VSA5>
0

>  <PEOE_VSA6>
6.07

>  <PEOE_VSA7>
18.2

>  <PEOE_VSA8>
0

>  <PEOE_VSA9>
18.65

>  <PEOE_VSA10>
11.85

>  <PEOE_VSA11>
0

>  <PEOE_VSA12>
0

>  <PEOE_VSA13>
0

>  <SMR_VSA1>
22.7

>  <SMR_VSA2>
0

>  <SMR_VSA3>
4.9

>  <SMR_VSA4>
5.73

>  <SMR_VSA5>
12.28

>  <SMR_VSA6>
13.09

>  <SMR_VSA7>
29.83

>  <SMR_VSA8>
0

>  <SMR_VSA9>
5.75

>  <SlogP_VSA1>
10.47

>  <SlogP_VSA2>
30.12

>  <SlogP_VSA3>
6.18

>  <SlogP_VSA4>
0

>  <SlogP_VSA5>
5.56

>  <SlogP_VSA6>
24.27

>  <SlogP_VSA7>
0

>  <SlogP_VSA8>
0

>  <SlogP_VSA9>
0

>  <SlogP_VSA10>
17.97

>  <SlogP_VSA11>
5.75

>  <EState_VSA1>
17.77

>  <EState_VSA2>
11.85

>  <EState_VSA3>
13.09

>  <EState_VSA4>
12.13

>  <EState_VSA5>
17.03

>  <EState_VSA6>
0

>  <EState_VSA7>
0

>  <EState_VSA8>
0

>  <EState_VSA9>
10.47

>  <EState_VSA10>
17.97

>  <VSA_EState1>
42.65

>  <VSA_EState2>
12.05

>  <VSA_EState3>
0

>  <VSA_EState4>
4.26

>  <VSA_EState5>
0.14

>  <VSA_EState6>
4.08

>  <VSA_EState7>
-4.7

>  <VSA_EState8>
0.59

>  <VSA_EState9>
0

>  <apol>
31.18

>  <bpol>
18.12

>  <nRing>
2

>  <nHRing>
1

>  <naRing>
1

>  <naHRing>
0

>  <nARing 2>
1

>  <nAHRing 2>
1

>  <nFRing>
0

>  <nFHRing>
0

>  <nFaRing>
0

>  <nFaHRing>
0

>  <nFARing 2>
0

>  <nFAHRing 2>
0

>  <nRot>
2

>  <SLogP>
1.85

>  <SMR>
57.02

>  <TopoPSA(NO)>
55.56

>  <TopoPSA>
55.56

>  <JGI1>
0.32

>  <JGI2>
0.08

>  <JGI3>
0.07

>  <JGI4>
0.05

>  <JGI5>
0.03

>  <Diameter>
10

>  <Radius>
5

>  <TMWC10>
108.87

>  <TSRW10>
51.55

>  <MW>
260.08

>  <AMW>
8.97

>  <WPath>
672

>  <WPol>
23

>  <Zagreb1>
94

>  <Zagreb2>
107

>  <mZagreb2>
3.78

>  <yes>


>  <nAR-cont>
0.816016

>  <nHA-cont>
0.991161285

>  <MWHBN>
0.186023485

>  <MWHBN-cont>
0.992821231

>  <TPSA-cont>
0.612156699

>  <pka_cont>
0.97

>  <yes.1>


>  <BBB_SCORE>
5.005722531

>  <MMFF94 Energy>
-24.331

$$$$
Compound 1724
Actelion Java MolfileCreator 2.0

  0  0  0  0  0  0              0 V3000
M  V30 BEGIN CTAB
M  V30 COUNTS 31 33 0 0 0
M  V30 BEGIN ATOM
M  V30 1 O 2.4842 1.6823 1.8427 0
M  V30 2 C 1.5908 1.2444 1.113 0
M  V30 3 C 0.313 0.7601 1.7326 0
M  V30 4 C 1.7789 1.2459 -0.3877 0
M  V30 5 C -0.8324 0.3679 1.0109 0
M  V30 6 C 0.2765 0.7285 3.1407 0
M  V30 7 C 1.4171 -0.0617 -1.0334 0
M  V30 8 N -0.8898 0.3404 -0.4115 0
M  V30 9 C -1.9789 -0.0429 1.7176 0
M  V30 10 C -0.8679 0.3166 3.8246 0
M  V30 11 C 0.0826 -0.4828 -1.0201 0
M  V30 12 C 2.3828 -0.875 -1.6379 0
M  V30 13 C -1.8649 1.046 -1.108 0
M  V30 14 C -1.9969 -0.0676 3.1123 0
M  V30 15 C -0.286 -1.7033 -1.596 0
M  V30 16 C 2.0144 -2.0903 -2.2188 0
M  V30 17 O -2.7556 1.7206 -0.5956 0
M  V30 18 N -1.7976 0.9938 -2.4672 0
M  V30 19 C 0.6828 -2.505 -2.1972 0
M  V30 20 H 2.8337 1.472 -0.5899 0
M  V30 21 H 1.2032 2.0715 -0.8225 0
M  V30 22 H 1.1479 1.0328 3.7197 0
M  V30 23 H -2.8751 -0.3446 1.1783 0
M  V30 24 H -0.8762 0.3036 4.9119 0
M  V30 25 H 3.4282 -0.5729 -1.6553 0
M  V30 26 H -2.8949 -0.3823 3.6385 0
M  V30 27 H -1.3213 -2.0342 -1.571 0
M  V30 28 H 2.7708 -2.7195 -2.6828 0
M  V30 29 H -2.4926 1.5118 -2.9861 0
M  V30 30 H -1.063 0.5192 -2.9688 0
M  V30 31 H 0.4026 -3.4565 -2.6426 0
M  V30 END ATOM
M  V30 BEGIN BOND
M  V30 1 2 1 2
M  V30 2 1 2 3
M  V30 3 1 2 4
M  V30 4 2 3 5
M  V30 5 1 3 6
M  V30 6 1 4 7
M  V30 7 1 5 8
M  V30 8 1 5 9
M  V30 9 2 6 10
M  V30 10 2 7 11
M  V30 11 1 7 12
M  V30 12 1 8 13
M  V30 13 2 9 14
M  V30 14 1 11 15
M  V30 15 2 12 16
M  V30 16 2 13 17
M  V30 17 1 13 18
M  V30 18 2 15 19
M  V30 19 1 8 11
M  V30 20 1 10 14
M  V30 21 1 16 19
M  V30 22 1 4 20
M  V30 23 1 4 21
M  V30 24 1 6 22
M  V30 25 1 9 23
M  V30 26 1 10 24
M  V30 27 1 12 25
M  V30 28 1 14 26
M  V30 29 1 15 27
M  V30 30 1 16 28
M  V30 31 1 18 29
M  V30 32 1 18 30
M  V30 33 1 19 31
M  V30 END BOND
M  V30 END CTAB
M  END
>  <Column 1>
2100

>  <level_0>
2280

>  <index>
2280

>  <Unnamed: 0>
2280

>  <NO.>
2292

>  <Name>
oxcarbazepine

>  <IUPAC_name>
5-oxo-6h-benzo[b][1]benzazepine-11-carboxamide

>  <SMILES>
NC(=O)N1c2ccccc2CC(=O)c2ccccc21

>  <CID>
34312

>  <logBB>


>  <BBB+/BBB->
BBB+

>  <Inchi>
InChI=1S/C15H12N2O2/c16-15(19)17-12-7-3-1-5-10(12)9-14(18)11-6-2-4-8-13(11)17/h1-8H-9H2-(H2-16-19)

>  <threshold>
-1

>  <reference>
R1|R7|R13|R19|R6|R14|R15|R23|R24|R26|R26|R27|R27|R27|R29|R30|R30|R34|R37|

>  <group>
B

>  <Class>
1

>  <ABC>
14.93

>  <ABCGG>
12.56

>  <nAcid>
0

>  <nBase>
0

>  <nAromAtom>
12

>  <nAromBond>
12

>  <nAtom>
31

>  <nHeavyAtom>
19

>  <nSpiro>
0

>  <nBridgehead>
0

>  <nHetero>
4

>  <nN>
2

>  <nO>
2

>  <nF>
0

>  <BalabanJ>
1.9

>  <BertzCT>
679.35

>  <nBonds>
33

>  <nBondsO>
21

>  <nBondsS>
19

>  <nBondsD>
2

>  <nBondsT>
0

>  <nBondsA>
12

>  <nBondsM>
14

>  <nBondsKS>
25

>  <nBondsKD>
8

>  <RNCG>
0.22

>  <RPCG>
0.2

>  <FCSP3>
0.07

>  <SZ>
22

>  <Sm>
21

>  <Sv>
21.2

>  <Sse>
31.31

>  <Sp>
22.07

>  <Si>
34.49

>  <MZ>
0.71

>  <Mm>
0.68

>  <Mv>
0.68

>  <Mse>
1.01

>  <Mp>
0.71

>  <Mi>
1.11

>  <NsCH3>
0

>  <NdCH2>
0

>  <NssCH2>
1

>  <NtCH>
0

>  <NdsCH>
0

>  <NaaCH>
8

>  <NsssCH>
0

>  <NddC>
0

>  <NtsC>
0

>  <NdssC>
2

>  <NaasC>
4

>  <NaaaC>
0

>  <NssssC>
0

>  <NsNH3>
0

>  <NsNH2>
1

>  <NssNH2>
0

>  <NdNH>
0

>  <NssNH>
0

>  <NaaNH>
0

>  <NtN>
0

>  <NsssNH>
0

>  <NdsN>
0

>  <NaaN>
0

>  <NsssN>
1

>  <NddsN>
0

>  <NaasN>
0

>  <NssssN>
0

>  <NsOH>
0

>  <NdO>
2

>  <NssO>
0

>  <NaaO>
0

>  <NsF>
0

>  <NsSiH3>
0

>  <NssSiH2>
0

>  <NsssSiH>
0

>  <NssssSi>
0

>  <NsPH2>
0

>  <NssPH>
0

>  <NsssP>
0

>  <NdsssP>
0

>  <NsssssP>
0

>  <NsSH>
0

>  <NdS>
0

>  <NssS>
0

>  <NaaS>
0

>  <NdssS>
0

>  <NddssS>
0

>  <NsCl>
0

>  <NsBr>
0

>  <NsI>
0

>  <fragCpx>
99.04

>  <fMF>
0.48

>  <nHBAcc>
2

>  <nHBDon>
1

>  <Kier1>
13.96

>  <Kier2>
5.78

>  <Lipinski>
1

>  <GhoseFilter>
1

>  <FilterItLogS>
-3.07

>  <VMcGowan>
186.93

>  <LabuteASA>
110

>  <PEOE_VSA1>
5.73

>  <PEOE_VSA2>
9.69

>  <PEOE_VSA3>
4.79

>  <PEOE_VSA4>
0

>  <PEOE_VSA5>
0

>  <PEOE_VSA6>
30.33

>  <PEOE_VSA7>
23.76

>  <PEOE_VSA8>
11.98

>  <PEOE_VSA9>
11.37

>  <PEOE_VSA10>
0

>  <PEOE_VSA11>
5.78

>  <PEOE_VSA12>
0

>  <PEOE_VSA13>
0

>  <SMR_VSA1>
9.59

>  <SMR_VSA2>
0

>  <SMR_VSA3>
0

>  <SMR_VSA4>
5.73

>  <SMR_VSA5>
6.42

>  <SMR_VSA6>
4.9

>  <SMR_VSA7>
59.66

>  <SMR_VSA8>
0

>  <SMR_VSA9>
0

>  <SlogP_VSA1>
10.63

>  <SlogP_VSA2>
11.81

>  <SlogP_VSA3>
6.42

>  <SlogP_VSA4>
0

>  <SlogP_VSA5>
15.92

>  <SlogP_VSA6>
48.53

>  <SlogP_VSA7>
0

>  <SlogP_VSA8>
0

>  <SlogP_VSA9>
0

>  <SlogP_VSA10>
16.17

>  <SlogP_VSA11>
0

>  <EState_VSA1>
6.03

>  <EState_VSA2>
12.2

>  <EState_VSA3>
16.94

>  <EState_VSA4>
5.56

>  <EState_VSA5>
4.9

>  <EState_VSA6>
30.33

>  <EState_VSA7>
18.2

>  <EState_VSA8>
0

>  <EState_VSA9>
5.73

>  <EState_VSA10>
9.59

>  <VSA_EState1>
0

>  <VSA_EState2>
25.43

>  <VSA_EState3>
0

>  <VSA_EState4>
8.04

>  <VSA_EState5>
-0.01

>  <VSA_EState6>
13.76

>  <VSA_EState7>
0.27

>  <VSA_EState8>
0

>  <VSA_EState9>
0

>  <apol>
36.86

>  <bpol>
14.91

>  <nRing>
3

>  <nHRing>
1

>  <naRing>
2

>  <naHRing>
0

>  <nARing 2>
1

>  <nAHRing 2>
1

>  <nFRing>
1

>  <nFHRing>
1

>  <nFaRing>
0

>  <nFaHRing>
0

>  <nFARing 2>
1

>  <nFAHRing 2>
1

>  <nRot>
0

>  <SLogP>
2.64

>  <SMR>
72.64

>  <TopoPSA(NO)>
63.4

>  <TopoPSA>
63.4

>  <JGI1>
0.14

>  <JGI2>
0.07

>  <JGI3>
0.05

>  <JGI4>
0.05

>  <JGI5>
0.02

>  <Diameter>
7

>  <Radius>
4

>  <TMWC10>
114.08

>  <TSRW10>
60.91

>  <MW>
252.09

>  <AMW>
8.13

>  <WPath>
593

>  <WPol>
36

>  <Zagreb1>
102

>  <Zagreb2>
123

>  <mZagreb2>
4.17

>  <yes>


>  <nAR-cont>
0.816016

>  <nHA-cont>
0.998649058

>  <MWHBN>
0.188948499

>  <MWHBN-cont>
0.994965016

>  <TPSA-cont>
0.557428631

>  <pka_cont>
0.97

>  <yes.1>


>  <BBB_SCORE>
4.906969844

>  <MMFF94 Energy>
27.588

$$$$
Compound 1725
Actelion Java MolfileCreator 2.0

  0  0  0  0  0  0              0 V3000
M  V30 BEGIN CTAB
M  V30 COUNTS 23 23 0 0 0
M  V30 BEGIN ATOM
M  V30 1 O -3.7407 -1.012 1.4015 0
M  V30 2 C -2.6246 -0.5441 1.565 0
M  V30 3 N -1.7594 -0.0962 0.6055 0
M  V30 4 N -2.1425 -0.3712 2.8281 0
M  V30 5 C -1.8799 -0.3166 -0.756 0
M  V30 6 O -2.723 -1.0259 -1.2963 0
M  V30 7 C -0.8635 0.451 -1.5899 0
M  V30 8 C 0.5567 0.3503 -1.0823 0
M  V30 9 C 1.2444 1.4953 -0.656 0
M  V30 10 C 1.2017 -0.8933 -1.0259 0
M  V30 11 C 2.5481 1.3939 -0.1686 0
M  V30 12 C 2.5047 -0.9909 -0.5372 0
M  V30 13 C 3.1764 0.1515 -0.1067 0
M  V30 14 H -0.9598 0.4199 0.9305 0
M  V30 15 H -1.1957 -0.1071 3.0465 0
M  V30 16 H -2.7492 -0.6675 3.5825 0
M  V30 17 H -1.1901 1.4975 -1.6224 0
M  V30 18 H -0.8949 0.0741 -2.6193 0
M  V30 19 H 0.7762 2.4764 -0.7071 0
M  V30 20 H 0.6937 -1.7955 -1.3648 0
M  V30 21 H 3.0792 2.2859 0.1548 0
M  V30 22 H 2.9986 -1.9589 -0.4989 0
M  V30 23 H 4.1944 0.0743 0.2669 0
M  V30 END ATOM
M  V30 BEGIN BOND
M  V30 1 2 1 2
M  V30 2 1 2 3
M  V30 3 1 2 4
M  V30 4 1 3 5
M  V30 5 2 5 6
M  V30 6 1 5 7
M  V30 7 1 7 8
M  V30 8 2 8 9
M  V30 9 1 8 10
M  V30 10 1 9 11
M  V30 11 2 10 12
M  V30 12 2 11 13
M  V30 13 1 12 13
M  V30 14 1 3 14
M  V30 15 1 4 15
M  V30 16 1 4 16
M  V30 17 1 7 17
M  V30 18 1 7 18
M  V30 19 1 9 19
M  V30 20 1 10 20
M  V30 21 1 11 21
M  V30 22 1 12 22
M  V30 23 1 13 23
M  V30 END BOND
M  V30 END CTAB
M  END
>  <Column 1>
2101

>  <level_0>
2281

>  <index>
2281

>  <Unnamed: 0>
2281

>  <NO.>
2293

>  <Name>
phenacemide

>  <IUPAC_name>
n-carbamoyl-2-phenylacetamide

>  <SMILES>
NC(=O)NC(=O)Cc1ccccc1

>  <CID>
4753

>  <logBB>


>  <BBB+/BBB->
BBB+

>  <Inchi>
InChI=1S/C9H10N2O2/c10-9(13)11-8(12)6-7-4-2-1-3-5-7/h1-5H-6H2-(H3-10-11-12-13)

>  <threshold>
-1

>  <reference>
R1|R13|R19|R6|R14|R23|R24|R27|R27|R27|R30|R30|

>  <group>
B

>  <Class>
1

>  <ABC>
9.52

>  <ABCGG>
8.69

>  <nAcid>
0

>  <nBase>
0

>  <nAromAtom>
6

>  <nAromBond>
6

>  <nAtom>
23

>  <nHeavyAtom>
13

>  <nSpiro>
0

>  <nBridgehead>
0

>  <nHetero>
4

>  <nN>
2

>  <nO>
2

>  <nF>
0

>  <BalabanJ>
2.14

>  <BertzCT>
308.65

>  <nBonds>
23

>  <nBondsO>
13

>  <nBondsS>
15

>  <nBondsD>
2

>  <nBondsT>
0

>  <nBondsA>
6

>  <nBondsM>
8

>  <nBondsKS>
18

>  <nBondsKD>
5

>  <RNCG>
0.24

>  <RPCG>
0.21

>  <FCSP3>
0.11

>  <SZ>
15.67

>  <Sm>
14.84

>  <Sv>
14.65

>  <Sse>
23.43

>  <Sp>
15.27

>  <Si>
26.08

>  <MZ>
0.68

>  <Mm>
0.65

>  <Mv>
0.64

>  <Mse>
1.02

>  <Mp>
0.66

>  <Mi>
1.13

>  <NsCH3>
0

>  <NdCH2>
0

>  <NssCH2>
1

>  <NtCH>
0

>  <NdsCH>
0

>  <NaaCH>
5

>  <NsssCH>
0

>  <NddC>
0

>  <NtsC>
0

>  <NdssC>
2

>  <NaasC>
1

>  <NaaaC>
0

>  <NssssC>
0

>  <NsNH3>
0

>  <NsNH2>
1

>  <NssNH2>
0

>  <NdNH>
0

>  <NssNH>
1

>  <NaaNH>
0

>  <NtN>
0

>  <NsssNH>
0

>  <NdsN>
0

>  <NaaN>
0

>  <NsssN>
0

>  <NddsN>
0

>  <NaasN>
0

>  <NssssN>
0

>  <NsOH>
0

>  <NdO>
2

>  <NssO>
0

>  <NaaO>
0

>  <NsF>
0

>  <NsSiH3>
0

>  <NssSiH2>
0

>  <NsssSiH>
0

>  <NssssSi>
0

>  <NsPH2>
0

>  <NssPH>
0

>  <NsssP>
0

>  <NdsssP>
0

>  <NsssssP>
0

>  <NsSH>
0

>  <NdS>
0

>  <NssS>
0

>  <NaaS>
0

>  <NdssS>
0

>  <NddssS>
0

>  <NsCl>
0

>  <NsBr>
0

>  <NsI>
0

>  <fragCpx>
13.04

>  <fMF>
0.26

>  <nHBAcc>
2

>  <nHBDon>
2

>  <Kier1>
11.08

>  <Kier2>
5.67

>  <Lipinski>
1

>  <GhoseFilter>
1

>  <FilterItLogS>
-1.63

>  <VMcGowan>
137.01

>  <LabuteASA>
75.74

>  <PEOE_VSA1>
5.73

>  <PEOE_VSA2>
10.11

>  <PEOE_VSA3>
4.79

>  <PEOE_VSA4>
0

>  <PEOE_VSA5>
0

>  <PEOE_VSA6>
30.33

>  <PEOE_VSA7>
5.56

>  <PEOE_VSA8>
0

>  <PEOE_VSA9>
6.42

>  <PEOE_VSA10>
0

>  <PEOE_VSA11>
0

>  <PEOE_VSA12>
5.91

>  <PEOE_VSA13>
0

>  <SMR_VSA1>
9.59

>  <SMR_VSA2>
0

>  <SMR_VSA3>
5.32

>  <SMR_VSA4>
5.73

>  <SMR_VSA5>
6.42

>  <SMR_VSA6>
0

>  <SMR_VSA7>
35.9

>  <SMR_VSA8>
0

>  <SMR_VSA9>
0

>  <SlogP_VSA1>
11.05

>  <SlogP_VSA2>
11.94

>  <SlogP_VSA3>
11.22

>  <SlogP_VSA4>
0

>  <SlogP_VSA5>
5.56

>  <SlogP_VSA6>
30.33

>  <SlogP_VSA7>
0

>  <SlogP_VSA8>
0

>  <SlogP_VSA9>
0

>  <SlogP_VSA10>
4.79

>  <SlogP_VSA11>
0

>  <EState_VSA1>
11.94

>  <EState_VSA2>
6.42

>  <EState_VSA3>
0

>  <EState_VSA4>
5.56

>  <EState_VSA5>
0

>  <EState_VSA6>
12.13

>  <EState_VSA7>
23.52

>  <EState_VSA8>
0

>  <EState_VSA9>
5.73

>  <EState_VSA10>
9.59

>  <VSA_EState1>
0

>  <VSA_EState2>
21.3

>  <VSA_EState3>
1.99

>  <VSA_EState4>
5.62

>  <VSA_EState5>
-0.39

>  <VSA_EState6>
8.3

>  <VSA_EState7>
0.17

>  <VSA_EState8>
0

>  <VSA_EState9>
0

>  <apol>
25.5

>  <bpol>
11.77

>  <nRing>
1

>  <nHRing>
0

>  <naRing>
1

>  <naHRing>
0

>  <nARing 2>
0

>  <nAHRing 2>
0

>  <nFRing>
0

>  <nFHRing>
0

>  <nFaRing>
0

>  <nFaHRing>
0

>  <nFARing 2>
0

>  <nFAHRing 2>
0

>  <nRot>
2

>  <SLogP>
0.42

>  <SMR>
47.87

>  <TopoPSA(NO)>
72.19

>  <TopoPSA>
72.19

>  <JGI1>
0.23

>  <JGI2>
0.04

>  <JGI3>
0.06

>  <JGI4>
0.03

>  <JGI5>
0.03

>  <Diameter>
8

>  <Radius>
4

>  <TMWC10>
90.57

>  <TSRW10>
42.91

>  <MW>
178.07

>  <AMW>
7.74

>  <WPath>
276

>  <WPol>
13

>  <Zagreb1>
58

>  <Zagreb2>
61

>  <mZagreb2>
3

>  <yes>


>  <nAR-cont>
0.336376

>  <nHA-cont>
0.841215992

>  <MWHBN>
0.299753741

>  <MWHBN-cont>
0.841473878

>  <TPSA-cont>
0.496068973

>  <pka_cont>
0.97

>  <yes.1>


>  <BBB_SCORE>
3.916940754

>  <MMFF94 Energy>
-65.907

$$$$
Compound 1726
Actelion Java MolfileCreator 2.0

  0  0  0  0  0  0              0 V3000
M  V30 BEGIN CTAB
M  V30 COUNTS 41 42 0 0 0
M  V30 BEGIN ATOM
M  V30 1 F 1.906 1.1909 -6.125 0
M  V30 2 C 2.0193 -0.0987 -5.7033 0
M  V30 3 F 3.2894 -0.2244 -5.2247 0
M  V30 4 F 1.9733 -0.8644 -6.83 0
M  V30 5 C 0.9662 -0.4675 -4.6908 0
M  V30 6 C 1.1761 -0.2028 -3.323 0
M  V30 7 C -0.2447 -1.0394 -5.0946 0
M  V30 8 C 0.2133 -0.5013 -2.3469 0
M  V30 9 C -1.2123 -1.3552 -4.1475 0
M  V30 10 N 0.4171 -0.2549 -0.9939 0
M  V30 11 C -0.979 -1.0907 -2.7944 0
M  V30 12 C 1.7763 -0.0655 -0.4632 0
M  V30 13 C -0.6205 0.4986 -0.2638 0
M  V30 14 C 1.8113 -0.3052 1.0623 0
M  V30 15 C -0.5188 0.2649 1.263 0
M  V30 16 N 0.8307 0.514 1.8123 0
M  V30 17 C 0.932 0.2211 3.2558 0
M  V30 18 C -9.0E-4 1.0362 4.1736 0
M  V30 19 N -1.3289 0.4588 4.2959 0
M  V30 20 C -2.4255 1.224 4.5419 0
M  V30 21 O -2.4325 2.4393 4.664 0
M  V30 22 N -3.5637 0.4987 4.6379 0
M  V30 23 H 2.1131 0.2687 -3.034 0
M  V30 24 H -0.4349 -1.2455 -6.1463 0
M  V30 25 H -2.1486 -1.8139 -4.4547 0
M  V30 26 H -1.7428 -1.3827 -2.0782 0
M  V30 27 H 2.1241 0.9511 -0.6852 0
M  V30 28 H 2.474 -0.7752 -0.9244 0
M  V30 29 H -1.6331 0.2188 -0.5732 0
M  V30 30 H -0.501 1.5683 -0.4799 0
M  V30 31 H 2.8243 -0.0776 1.4158 0
M  V30 32 H 1.6308 -1.372 1.2533 0
M  V30 33 H -0.8294 -0.7649 1.4835 0
M  V30 34 H -1.243 0.9405 1.7289 0
M  V30 35 H 1.9574 0.4635 3.5637 0
M  V30 36 H 0.7872 -0.8508 3.4443 0
M  V30 37 H 0.4153 1.0451 5.1876 0
M  V30 38 H -0.0664 2.0787 3.8422 0
M  V30 39 H -1.4211 -0.5422 4.3527 0
M  V30 40 H -3.6033 -0.4971 4.5053 0
M  V30 41 H -4.4181 1.0074 4.8198 0
M  V30 END ATOM
M  V30 BEGIN BOND
M  V30 1 1 1 2
M  V30 2 1 2 3
M  V30 3 1 2 4
M  V30 4 1 2 5
M  V30 5 2 5 6
M  V30 6 1 5 7
M  V30 7 1 6 8
M  V30 8 2 7 9
M  V30 9 1 8 10
M  V30 10 2 8 11
M  V30 11 1 10 12
M  V30 12 1 10 13
M  V30 13 1 12 14
M  V30 14 1 13 15
M  V30 15 1 14 16
M  V30 16 1 16 17
M  V30 17 1 17 18
M  V30 18 1 18 19
M  V30 19 1 19 20
M  V30 20 2 20 21
M  V30 21 1 20 22
M  V30 22 1 9 11
M  V30 23 1 15 16
M  V30 24 1 6 23
M  V30 25 1 7 24
M  V30 26 1 9 25
M  V30 27 1 11 26
M  V30 28 1 12 27
M  V30 29 1 12 28
M  V30 30 1 13 29
M  V30 31 1 13 30
M  V30 32 1 14 31
M  V30 33 1 14 32
M  V30 34 1 15 33
M  V30 35 1 15 34
M  V30 36 1 17 35
M  V30 37 1 17 36
M  V30 38 1 18 37
M  V30 39 1 18 38
M  V30 40 1 19 39
M  V30 41 1 22 40
M  V30 42 1 22 41
M  V30 END BOND
M  V30 END CTAB
M  END
>  <Column 1>
2102

>  <level_0>
2282

>  <index>
2282

>  <Unnamed: 0>
2282

>  <NO.>
2294

>  <Name>
fluprazine

>  <IUPAC_name>
2-[4-[3-(trifluoromethyl)phenyl]piperazin-1-yl]ethylurea

>  <SMILES>
NC(=O)NCCN1CCN(c2cccc(C(F)(F)F)c2)CC1

>  <CID>
71153

>  <logBB>


>  <BBB+/BBB->
BBB+

>  <Inchi>
InChI=1S/C14H19F3N4O/c15-14(16-17)11-2-1-3-12(10-11)21-8-6-20(7-9-21)5-4-19-13(18)22/h1-3-10H-4-9H2-(H3-18-19-22)

>  <threshold>
-1

>  <reference>
R1|R13|R19|R6|R24|R27|R27|R27|R30|R30|

>  <group>
B

>  <Class>
1

>  <ABC>
16.86

>  <ABCGG>
13.29

>  <nAcid>
0

>  <nBase>
1

>  <nAromAtom>
6

>  <nAromBond>
6

>  <nAtom>
41

>  <nHeavyAtom>
22

>  <nSpiro>
0

>  <nBridgehead>
0

>  <nHetero>
8

>  <nN>
4

>  <nO>
1

>  <nF>
3

>  <BalabanJ>
1.72

>  <BertzCT>
513.05

>  <nBonds>
42

>  <nBondsO>
23

>  <nBondsS>
35

>  <nBondsD>
1

>  <nBondsT>
0

>  <nBondsA>
6

>  <nBondsM>
7

>  <nBondsKS>
38

>  <nBondsKD>
4

>  <RNCG>
0.16

>  <RPCG>
0.18

>  <FCSP3>
0.5

>  <SZ>
27.67

>  <Sm>
26.34

>  <Sv>
24.83

>  <Sse>
42.29

>  <Sp>
25.7

>  <Si>
47.96

>  <MZ>
0.67

>  <Mm>
0.64

>  <Mv>
0.61

>  <Mse>
1.03

>  <Mp>
0.63

>  <Mi>
1.17

>  <NsCH3>
0

>  <NdCH2>
0

>  <NssCH2>
6

>  <NtCH>
0

>  <NdsCH>
0

>  <NaaCH>
4

>  <NsssCH>
0

>  <NddC>
0

>  <NtsC>
0

>  <NdssC>
1

>  <NaasC>
2

>  <NaaaC>
0

>  <NssssC>
1

>  <NsNH3>
0

>  <NsNH2>
1

>  <NssNH2>
0

>  <NdNH>
0

>  <NssNH>
1

>  <NaaNH>
0

>  <NtN>
0

>  <NsssNH>
0

>  <NdsN>
0

>  <NaaN>
0

>  <NsssN>
2

>  <NddsN>
0

>  <NaasN>
0

>  <NssssN>
0

>  <NsOH>
0

>  <NdO>
1

>  <NssO>
0

>  <NaaO>
0

>  <NsF>
3

>  <NsSiH3>
0

>  <NssSiH2>
0

>  <NsssSiH>
0

>  <NssssSi>
0

>  <NsPH2>
0

>  <NssPH>
0

>  <NsssP>
0

>  <NdsssP>
0

>  <NsssssP>
0

>  <NsSH>
0

>  <NdS>
0

>  <NssS>
0

>  <NaaS>
0

>  <NdssS>
0

>  <NddssS>
0

>  <NsCl>
0

>  <NsBr>
0

>  <NsI>
0

>  <fragCpx>
67.08

>  <fMF>
0.29

>  <nHBAcc>
3

>  <nHBDon>
2

>  <Kier1>
18.34

>  <Kier2>
8.2

>  <Lipinski>
1

>  <GhoseFilter>
1

>  <FilterItLogS>
-2.89

>  <VMcGowan>
220.27

>  <LabuteASA>
126.41

>  <PEOE_VSA1>
15.95

>  <PEOE_VSA2>
4.9

>  <PEOE_VSA3>
4.79

>  <PEOE_VSA4>
13.17

>  <PEOE_VSA5>
0

>  <PEOE_VSA6>
6.07

>  <PEOE_VSA7>
18.2

>  <PEOE_VSA8>
44.96

>  <PEOE_VSA9>
5.56

>  <PEOE_VSA10>
0

>  <PEOE_VSA11>
0

>  <PEOE_VSA12>
0

>  <PEOE_VSA13>
0

>  <SMR_VSA1>
17.97

>  <SMR_VSA2>
0

>  <SMR_VSA3>
10.22

>  <SMR_VSA4>
5.73

>  <SMR_VSA5>
6.18

>  <SMR_VSA6>
44.17

>  <SMR_VSA7>
29.83

>  <SMR_VSA8>
0

>  <SMR_VSA9>
0

>  <SlogP_VSA1>
15.95

>  <SlogP_VSA2>
50.2

>  <SlogP_VSA3>
6.18

>  <SlogP_VSA4>
0

>  <SlogP_VSA5>
5.56

>  <SlogP_VSA6>
24.27

>  <SlogP_VSA7>
0

>  <SlogP_VSA8>
0

>  <SlogP_VSA9>
0

>  <SlogP_VSA10>
23.65

>  <SlogP_VSA11>
0

>  <EState_VSA1>
17.77

>  <EState_VSA2>
0

>  <EState_VSA3>
31.87

>  <EState_VSA4>
19.16

>  <EState_VSA5>
12.13

>  <EState_VSA6>
6.07

>  <EState_VSA7>
4.9

>  <EState_VSA8>
10.22

>  <EState_VSA9>
5.73

>  <EState_VSA10>
17.97

>  <VSA_EState1>
38.19

>  <VSA_EState2>
14.66

>  <VSA_EState3>
2.52

>  <VSA_EState4>
4.95

>  <VSA_EState5>
0

>  <VSA_EState6>
4.84

>  <VSA_EState7>
-4.32

>  <VSA_EState8>
3.92

>  <VSA_EState9>
0

>  <apol>
42.92

>  <bpol>
26.69

>  <nRing>
2

>  <nHRing>
1

>  <naRing>
1

>  <naHRing>
0

>  <nARing 2>
1

>  <nAHRing 2>
1

>  <nFRing>
0

>  <nFHRing>
0

>  <nFaRing>
0

>  <nFaHRing>
0

>  <nFARing 2>
0

>  <nFAHRing 2>
0

>  <nRot>
4

>  <SLogP>
1.5

>  <SMR>
77.68

>  <TopoPSA(NO)>
61.6

>  <TopoPSA>
61.6

>  <JGI1>
0.26

>  <JGI2>
0.08

>  <JGI3>
0.04

>  <JGI4>
0.03

>  <JGI5>
0.04

>  <Diameter>
13

>  <Radius>
7

>  <TMWC10>
117.61

>  <TSRW10>
55.75

>  <MW>
316.15

>  <AMW>
7.71

>  <WPath>
1225

>  <WPol>
30

>  <Zagreb1>
110

>  <Zagreb2>
123

>  <mZagreb2>
4.78

>  <yes>


>  <nAR-cont>
0.816016

>  <nHA-cont>
0.983774276

>  <MWHBN>
0.281205241

>  <MWHBN-cont>
0.893012352

>  <TPSA-cont>
0.569993749

>  <pka_cont>
0.97

>  <yes.1>


>  <BBB_SCORE>
4.764296302

>  <MMFF94 Energy>
28.525

$$$$
Compound 1727
Actelion Java MolfileCreator 2.0

  0  0  0  0  0  0              0 V3000
M  V30 BEGIN CTAB
M  V30 COUNTS 28 28 0 0 0
M  V30 BEGIN ATOM
M  V30 1 Cl -1.9864 -4.4537 -3.4981 0
M  V30 2 C -1.175 -3.3159 -2.4952 0
M  V30 3 C -1.3175 -3.3869 -1.1108 0
M  V30 4 C -0.3787 -2.3295 -3.069 0
M  V30 5 C -0.66 -2.4627 -0.2909 0
M  V30 6 C 0.2762 -1.4089 -2.248 0
M  V30 7 C 0.1378 -1.4674 -0.8577 0
M  V30 8 O 0.8314 -0.507 -0.177 0
M  V30 9 C 0.6628 -0.4577 1.2433 0
M  V30 10 C 1.4652 0.7178 1.8274 0 CFG=1
M  V30 11 O 2.8652 0.421 1.7609 0
M  V30 12 C 1.1654 2.0459 1.1238 0
M  V30 13 O -0.2221 2.3698 1.2754 0
M  V30 14 C -0.5665 3.5593 0.7348 0
M  V30 15 O 0.1832 4.3522 0.1905 0
M  V30 16 N -1.8925 3.7666 0.8852 0
M  V30 17 H -1.9358 -4.1596 -0.6619 0
M  V30 18 H -0.261 -2.2696 -4.1472 0
M  V30 19 H -0.7879 -2.5522 0.7824 0
M  V30 20 H 0.9009 -0.6383 -2.694 0
M  V30 21 H 1.0327 -1.3919 1.6828 0
M  V30 22 H -0.3983 -0.3232 1.4849 0
M  V30 23 H 1.2054 0.8005 2.8895 0
M  V30 24 H 3.3533 1.1913 2.099 0
M  V30 25 H 1.7795 2.8354 1.5758 0
M  V30 26 H 1.4286 1.9907 0.0604 0
M  V30 27 H -2.2979 4.616 0.5225 0
M  V30 28 H -2.4678 3.0712 1.3327 0
M  V30 END ATOM
M  V30 BEGIN BOND
M  V30 1 1 1 2
M  V30 2 2 2 3
M  V30 3 1 2 4
M  V30 4 1 3 5
M  V30 5 2 4 6
M  V30 6 2 5 7
M  V30 7 1 7 8
M  V30 8 1 8 9
M  V30 9 1 9 10
M  V30 10 1 10 11
M  V30 11 1 10 12
M  V30 12 1 12 13
M  V30 13 1 13 14
M  V30 14 2 14 15
M  V30 15 1 14 16
M  V30 16 1 6 7
M  V30 17 1 3 17
M  V30 18 1 4 18
M  V30 19 1 5 19
M  V30 20 1 6 20
M  V30 21 1 9 21
M  V30 22 1 9 22
M  V30 23 1 10 23
M  V30 24 1 11 24
M  V30 25 1 12 25
M  V30 26 1 12 26
M  V30 27 1 16 27
M  V30 28 1 16 28
M  V30 END BOND
M  V30 BEGIN COLLECTION
M  V30 MDLV30/STERAC1 ATOMS=(1 10)
M  V30 END COLLECTION
M  V30 END CTAB
M  END
>  <Column 1>
2103

>  <level_0>
2283

>  <index>
2283

>  <Unnamed: 0>
2283

>  <NO.>
2295

>  <Name>
chlorphenesin carbamate

>  <IUPAC_name>
[3-(4-chlorophenoxy)-2-hydroxypropyl] carbamate

>  <SMILES>
NC(=O)OCC(O)COc1ccc(Cl)cc1

>  <CID>
2724

>  <logBB>


>  <BBB+/BBB->
BBB+

>  <Inchi>
InChI=1S/C10H12ClNO4/c11-7-1-3-9(4-2-7)15-5-8(13)6-16-10(12)14/h1-4-8-13H-5-6H2-(H2-12-14)

>  <threshold>
-1

>  <reference>
R1|R19|R6|R27|R27|R30|

>  <group>
B

>  <Class>
-1

>  <ABC>
11.75

>  <ABCGG>
10.16

>  <nAcid>
0

>  <nBase>
0

>  <nAromAtom>
6

>  <nAromBond>
6

>  <nAtom>
28

>  <nHeavyAtom>
16

>  <nSpiro>
0

>  <nBridgehead>
0

>  <nHetero>
6

>  <nN>
1

>  <nO>
4

>  <nF>
0

>  <BalabanJ>
2.05

>  <BertzCT>
341.18

>  <nBonds>
28

>  <nBondsO>
16

>  <nBondsS>
21

>  <nBondsD>
1

>  <nBondsT>
0

>  <nBondsA>
6

>  <nBondsM>
7

>  <nBondsKS>
24

>  <nBondsKD>
4

>  <RNCG>
0.24

>  <RPCG>
0.19

>  <FCSP3>
0.3

>  <SZ>
21.33

>  <Sm>
20.45

>  <Sv>
17.96

>  <Sse>
29.08

>  <Sp>
18.68

>  <Si>
31.77

>  <MZ>
0.76

>  <Mm>
0.73

>  <Mv>
0.64

>  <Mse>
1.04

>  <Mp>
0.67

>  <Mi>
1.13

>  <NsCH3>
0

>  <NdCH2>
0

>  <NssCH2>
2

>  <NtCH>
0

>  <NdsCH>
0

>  <NaaCH>
4

>  <NsssCH>
1

>  <NddC>
0

>  <NtsC>
0

>  <NdssC>
1

>  <NaasC>
2

>  <NaaaC>
0

>  <NssssC>
0

>  <NsNH3>
0

>  <NsNH2>
1

>  <NssNH2>
0

>  <NdNH>
0

>  <NssNH>
0

>  <NaaNH>
0

>  <NtN>
0

>  <NsssNH>
0

>  <NdsN>
0

>  <NaaN>
0

>  <NsssN>
0

>  <NddsN>
0

>  <NaasN>
0

>  <NssssN>
0

>  <NsOH>
1

>  <NdO>
1

>  <NssO>
2

>  <NaaO>
0

>  <NsF>
0

>  <NsSiH3>
0

>  <NssSiH2>
0

>  <NsssSiH>
0

>  <NssssSi>
0

>  <NsPH2>
0

>  <NssPH>
0

>  <NsssP>
0

>  <NdsssP>
0

>  <NsssssP>
0

>  <NsSH>
0

>  <NdS>
0

>  <NssS>
0

>  <NaaS>
0

>  <NdssS>
0

>  <NddssS>
0

>  <NsCl>
1

>  <NsBr>
0

>  <NsI>
0

>  <fragCpx>
16.06

>  <fMF>
0.21

>  <nHBAcc>
4

>  <nHBDon>
2

>  <Kier1>
14.06

>  <Kier2>
7.35

>  <Lipinski>
1

>  <GhoseFilter>
1

>  <FilterItLogS>
-1.77

>  <VMcGowan>
169.4

>  <LabuteASA>
97.72

>  <PEOE_VSA1>
20.31

>  <PEOE_VSA2>
0

>  <PEOE_VSA3>
4.79

>  <PEOE_VSA4>
0

>  <PEOE_VSA5>
0

>  <PEOE_VSA6>
11.6

>  <PEOE_VSA7>
24.27

>  <PEOE_VSA8>
5.02

>  <PEOE_VSA9>
0

>  <PEOE_VSA10>
25.07

>  <PEOE_VSA11>
0

>  <PEOE_VSA12>
0

>  <PEOE_VSA13>
0

>  <SMR_VSA1>
19.37

>  <SMR_VSA2>
0

>  <SMR_VSA3>
0

>  <SMR_VSA4>
5.73

>  <SMR_VSA5>
6.1

>  <SMR_VSA6>
13.21

>  <SMR_VSA7>
29.29

>  <SMR_VSA8>
0

>  <SMR_VSA9>
5.75

>  <SlogP_VSA1>
10.47

>  <SlogP_VSA2>
30.52

>  <SlogP_VSA3>
4.74

>  <SlogP_VSA4>
0

>  <SlogP_VSA5>
0

>  <SlogP_VSA6>
24.27

>  <SlogP_VSA7>
5.02

>  <SlogP_VSA8>
0

>  <SlogP_VSA9>
0

>  <SlogP_VSA10>
4.79

>  <SlogP_VSA11>
5.75

>  <EState_VSA1>
12.2

>  <EState_VSA2>
13.21

>  <EState_VSA3>
10.77

>  <EState_VSA4>
0

>  <EState_VSA5>
0

>  <EState_VSA6>
24.27

>  <EState_VSA7>
0

>  <EState_VSA8>
4.74

>  <EState_VSA9>
22.07

>  <EState_VSA10>
9.9

>  <VSA_EState1>
9.61

>  <VSA_EState2>
10.25

>  <VSA_EState3>
9.93

>  <VSA_EState4>
4.74

>  <VSA_EState5>
0.57

>  <VSA_EState6>
6.68

>  <VSA_EState7>
-1.84

>  <VSA_EState8>
-0.18

>  <VSA_EState9>
0

>  <apol>
31.19

>  <bpol>
16.32

>  <nRing>
1

>  <nHRing>
0

>  <naRing>
1

>  <naHRing>
0

>  <nARing 2>
0

>  <nAHRing 2>
0

>  <nFRing>
0

>  <nFHRing>
0

>  <nFaRing>
0

>  <nFaHRing>
0

>  <nFARing 2>
0

>  <nFAHRing 2>
0

>  <nRot>
5

>  <SLogP>
1.18

>  <SMR>
58.49

>  <TopoPSA(NO)>
81.78

>  <TopoPSA>
81.78

>  <JGI1>
0.25

>  <JGI2>
0.08

>  <JGI3>
0.02

>  <JGI4>
0.06

>  <JGI5>
0.02

>  <Diameter>
11

>  <Radius>
6

>  <TMWC10>
98.51

>  <TSRW10>
46.98

>  <MW>
245.05

>  <AMW>
8.75

>  <WPath>
536

>  <WPol>
17

>  <Zagreb1>
72

>  <Zagreb2>
76

>  <mZagreb2>
3.67

>  <yes>


>  <nAR-cont>
0.336376

>  <nHA-cont>
0.954961865

>  <MWHBN>
0.38328683

>  <MWHBN-cont>
0.541894434

>  <TPSA-cont>
0.429124818

>  <pka_cont>
0.97

>  <yes.1>


>  <BBB_SCORE>
3.447429152

>  <MMFF94 Energy>
-24.472

$$$$
Compound 1728
Actelion Java MolfileCreator 2.0

  0  0  0  0  0  0              0 V3000
M  V30 BEGIN CTAB
M  V30 COUNTS 26 26 0 0 0
M  V30 BEGIN ATOM
M  V30 1 O 0.9329 -3.5801 0.9329 0
M  V30 2 C 2.0493 -3.1582 0.6807 0
M  V30 3 O 2.5108 -1.9085 0.9075 0
M  V30 4 N 3.0195 -3.9085 0.1152 0
M  V30 5 C 1.5728 -1.0038 1.5101 0
M  V30 6 C 0.7349 -0.3241 0.4326 0
M  V30 7 C -0.2569 0.6631 1.0432 0
M  V30 8 C -1.0769 1.3565 -0.0153 0
M  V30 9 C -0.6754 2.5967 -0.5287 0
M  V30 10 C -2.2378 0.7551 -0.5194 0
M  V30 11 C -1.4282 3.2285 -1.52 0
M  V30 12 C -2.989 1.3882 -1.5107 0
M  V30 13 C -2.585 2.625 -2.0098 0
M  V30 14 H 2.8229 -4.8697 -0.1173 0
M  V30 15 H 3.9223 -3.503 -0.0737 0
M  V30 16 H 2.1599 -0.2565 2.0552 0
M  V30 17 H 0.9472 -1.5182 2.2496 0
M  V30 18 H 1.4012 0.1854 -0.2753 0
M  V30 19 H 0.2052 -1.0816 -0.1584 0
M  V30 20 H -0.9291 0.1447 1.7387 0
M  V30 21 H 0.2758 1.4127 1.642 0
M  V30 22 H 0.227 3.0784 -0.1602 0
M  V30 23 H -2.5621 -0.2128 -0.1433 0
M  V30 24 H -1.1109 4.1914 -1.9113 0
M  V30 25 H -3.8886 0.9145 -1.8947 0
M  V30 26 H -3.1701 3.1169 -2.782 0
M  V30 END ATOM
M  V30 BEGIN BOND
M  V30 1 2 1 2
M  V30 2 1 2 3
M  V30 3 1 2 4
M  V30 4 1 3 5
M  V30 5 1 5 6
M  V30 6 1 6 7
M  V30 7 1 7 8
M  V30 8 2 8 9
M  V30 9 1 8 10
M  V30 10 1 9 11
M  V30 11 2 10 12
M  V30 12 2 11 13
M  V30 13 1 12 13
M  V30 14 1 4 14
M  V30 15 1 4 15
M  V30 16 1 5 16
M  V30 17 1 5 17
M  V30 18 1 6 18
M  V30 19 1 6 19
M  V30 20 1 7 20
M  V30 21 1 7 21
M  V30 22 1 9 22
M  V30 23 1 10 23
M  V30 24 1 11 24
M  V30 25 1 12 25
M  V30 26 1 13 26
M  V30 END BOND
M  V30 END CTAB
M  END
>  <Column 1>
2105

>  <level_0>
2285

>  <index>
2285

>  <Unnamed: 0>
2285

>  <NO.>
2297

>  <Name>
phenprobamate

>  <IUPAC_name>
3-phenylpropyl carbamate

>  <SMILES>
NC(=O)OCCCc1ccccc1

>  <CID>
4770

>  <logBB>


>  <BBB+/BBB->
BBB+

>  <Inchi>
InChI=1S/C10H13NO2/c11-10(12)13-8-4-7-9-5-2-1-3-6-9/h1-3-5-6H-4-7-8H2-(H2-11-12)

>  <threshold>
-1

>  <reference>
R1|R13|R19|R6|R24|R27|R27|R27|R30|R30|

>  <group>
B

>  <Class>
1

>  <ABC>
9.41

>  <ABCGG>
8.25

>  <nAcid>
0

>  <nBase>
0

>  <nAromAtom>
6

>  <nAromBond>
6

>  <nAtom>
26

>  <nHeavyAtom>
13

>  <nSpiro>
0

>  <nBridgehead>
0

>  <nHetero>
3

>  <nN>
1

>  <nO>
2

>  <nF>
0

>  <BalabanJ>
1.92

>  <BertzCT>
258.89

>  <nBonds>
26

>  <nBondsO>
13

>  <nBondsS>
19

>  <nBondsD>
1

>  <nBondsT>
0

>  <nBondsA>
6

>  <nBondsM>
7

>  <nBondsKS>
22

>  <nBondsKD>
4

>  <RNCG>
0.32

>  <RPCG>
0.29

>  <FCSP3>
0.3

>  <SZ>
16

>  <Sm>
14.92

>  <Sv>
15.71

>  <Sse>
26.1

>  <Sp>
16.81

>  <Si>
29.41

>  <MZ>
0.62

>  <Mm>
0.57

>  <Mv>
0.6

>  <Mse>
1

>  <Mp>
0.65

>  <Mi>
1.13

>  <NsCH3>
0

>  <NdCH2>
0

>  <NssCH2>
3

>  <NtCH>
0

>  <NdsCH>
0

>  <NaaCH>
5

>  <NsssCH>
0

>  <NddC>
0

>  <NtsC>
0

>  <NdssC>
1

>  <NaasC>
1

>  <NaaaC>
0

>  <NssssC>
0

>  <NsNH3>
0

>  <NsNH2>
1

>  <NssNH2>
0

>  <NdNH>
0

>  <NssNH>
0

>  <NaaNH>
0

>  <NtN>
0

>  <NsssNH>
0

>  <NdsN>
0

>  <NaaN>
0

>  <NsssN>
0

>  <NddsN>
0

>  <NaasN>
0

>  <NssssN>
0

>  <NsOH>
0

>  <NdO>
1

>  <NssO>
1

>  <NaaO>
0

>  <NsF>
0

>  <NsSiH3>
0

>  <NssSiH2>
0

>  <NsssSiH>
0

>  <NssssSi>
0

>  <NsPH2>
0

>  <NssPH>
0

>  <NsssP>
0

>  <NdsssP>
0

>  <NsssssP>
0

>  <NsSH>
0

>  <NdS>
0

>  <NssS>
0

>  <NaaS>
0

>  <NdssS>
0

>  <NddssS>
0

>  <NsCl>
0

>  <NsBr>
0

>  <NsI>
0

>  <fragCpx>
13.03

>  <fMF>
0.23

>  <nHBAcc>
2

>  <nHBDon>
1

>  <Kier1>
11.08

>  <Kier2>
6.45

>  <Lipinski>
1

>  <GhoseFilter>
1

>  <FilterItLogS>
-2.18

>  <VMcGowan>
145.42

>  <LabuteASA>
77.51

>  <PEOE_VSA1>
10.47

>  <PEOE_VSA2>
0

>  <PEOE_VSA3>
4.79

>  <PEOE_VSA4>
0

>  <PEOE_VSA5>
0

>  <PEOE_VSA6>
30.33

>  <PEOE_VSA7>
18.41

>  <PEOE_VSA8>
0

>  <PEOE_VSA9>
6.61

>  <PEOE_VSA10>
0

>  <PEOE_VSA11>
0

>  <PEOE_VSA12>
0

>  <PEOE_VSA13>
0

>  <SMR_VSA1>
9.53

>  <SMR_VSA2>
0

>  <SMR_VSA3>
0

>  <SMR_VSA4>
5.73

>  <SMR_VSA5>
12.84

>  <SMR_VSA6>
6.61

>  <SMR_VSA7>
35.9

>  <SMR_VSA8>
0

>  <SMR_VSA9>
0

>  <SlogP_VSA1>
5.73

>  <SlogP_VSA2>
12.7

>  <SlogP_VSA3>
11.16

>  <SlogP_VSA4>
0

>  <SlogP_VSA5>
11.98

>  <SlogP_VSA6>
30.33

>  <SlogP_VSA7>
0

>  <SlogP_VSA8>
0

>  <SlogP_VSA9>
0

>  <SlogP_VSA10>
4.79

>  <SlogP_VSA11>
0

>  <EState_VSA1>
6.09

>  <EState_VSA2>
0

>  <EState_VSA3>
6.61

>  <EState_VSA4>
12.84

>  <EState_VSA5>
5.56

>  <EState_VSA6>
0

>  <EState_VSA7>
30.33

>  <EState_VSA8>
4.74

>  <EState_VSA9>
5.73

>  <EState_VSA10>
4.79

>  <VSA_EState1>
4.6

>  <VSA_EState2>
10.21

>  <VSA_EState3>
0

>  <VSA_EState4>
6.06

>  <VSA_EState5>
0

>  <VSA_EState6>
10.05

>  <VSA_EState7>
1.02

>  <VSA_EState8>
0.39

>  <VSA_EState9>
0

>  <apol>
28.07

>  <bpol>
15.08

>  <nRing>
1

>  <nHRing>
0

>  <naRing>
1

>  <naHRing>
0

>  <nARing 2>
0

>  <nAHRing 2>
0

>  <nFRing>
0

>  <nFHRing>
0

>  <nFaRing>
0

>  <nFaHRing>
0

>  <nFARing 2>
0

>  <nFAHRing 2>
0

>  <nRot>
4

>  <SLogP>
1.71

>  <SMR>
50.3

>  <TopoPSA(NO)>
52.32

>  <TopoPSA>
52.32

>  <JGI1>
0.15

>  <JGI2>
0.04

>  <JGI3>
0.03

>  <JGI4>
0.03

>  <JGI5>
0.01

>  <Diameter>
9

>  <Radius>
5

>  <TMWC10>
89.32

>  <TSRW10>
42.48

>  <MW>
179.09

>  <AMW>
6.89

>  <WPath>
304

>  <WPol>
12

>  <Zagreb1>
56

>  <Zagreb2>
58

>  <mZagreb2>
3.08

>  <yes>


>  <nAR-cont>
0.336376

>  <nHA-cont>
0.841215992

>  <MWHBN>
0.224174178

>  <MWHBN-cont>
0.991995758

>  <TPSA-cont>
0.634773911

>  <pka_cont>
0.97

>  <yes.1>


>  <BBB_SCORE>
4.420133451

>  <MMFF94 Energy>
-54.551

$$$$
Compound 1729
Actelion Java MolfileCreator 2.0

  0  0  0  0  0  0              0 V3000
M  V30 BEGIN CTAB
M  V30 COUNTS 46 49 0 0 0
M  V30 BEGIN ATOM
M  V30 1 F 3.543 -3.7043 -0.4825 0
M  V30 2 C 3.2309 -2.6741 0.3174 0
M  V30 3 C 2.1828 -1.8121 -0.0195 0
M  V30 4 C 3.977 -2.4803 1.4732 0
M  V30 5 O 1.5149 -2.0996 -1.1821 0
M  V30 6 C 1.8434 -0.7468 0.8312 0
M  V30 7 C 3.6739 -1.4114 2.3134 0
M  V30 8 C 0.6767 -1.0468 -1.6797 0
M  V30 9 C 2.6105 -0.5466 2.0006 0
M  V30 10 C 0.6935 0.1662 0.4711 0
M  V30 11 C -0.2339 -0.4877 -0.5737 0 CFG=1
M  V30 12 C 2.3384 0.5978 2.9114 0
M  V30 13 N -1.3491 0.3323 -1.1227 0
M  V30 14 O 2.088 1.7185 2.4921 0
M  V30 15 N 2.3662 0.3283 4.2505 0
M  V30 16 C -2.6754 0.1317 -0.501 0
M  V30 17 C -1.0327 1.7701 -1.2141 0
M  V30 18 C -3.2134 -1.2975 -0.7367 0
M  V30 19 C -2.7088 -0.1644 1.0119 0
M  V30 20 C -0.0022 2.052 -2.3438 0
M  V30 21 C -2.055 2.5 -2.1381 0
M  V30 22 C -3.8106 -1.205 0.689 0
M  V30 23 C -0.8542 3.2872 -2.6994 0
M  V30 24 H 4.7967 -3.1547 1.7 0
M  V30 25 H 4.2876 -1.242 3.1948 0
M  V30 26 H 0.0713 -1.4843 -2.4815 0
M  V30 27 H 1.3195 -0.2838 -2.1315 0
M  V30 28 H 1.1361 1.0892 0.0814 0
M  V30 29 H 0.1128 0.4149 1.3647 0
M  V30 30 H -0.6442 -1.3861 -0.0976 0
M  V30 31 H 2.4992 -0.5953 4.6359 0
M  V30 32 H 2.178 1.0947 4.8841 0
M  V30 33 H -3.4335 0.8726 -0.7889 0
M  V30 34 H -0.8559 2.2938 -0.2669 0
M  V30 35 H -2.4847 -2.1066 -0.8468 0
M  V30 36 H -3.9487 -1.3925 -1.5414 0
M  V30 37 H -1.8437 -0.6312 1.4872 0
M  V30 38 H -3.0313 0.6705 1.6411 0
M  V30 39 H 0.0284 1.3238 -3.1634 0
M  V30 40 H 1.019 2.272 -2.0229 0
M  V30 41 H -2.5493 1.8781 -2.8954 0
M  V30 42 H -2.8096 3.1066 -1.6297 0
M  V30 43 H -3.7816 -2.1261 1.2763 0
M  V30 44 H -4.8268 -0.7947 0.7163 0
M  V30 45 H -0.6006 4.1845 -2.1234 0
M  V30 46 H -0.9047 3.5439 -3.7601 0
M  V30 END ATOM
M  V30 BEGIN BOND
M  V30 1 1 1 2
M  V30 2 2 2 3
M  V30 3 1 2 4
M  V30 4 1 3 5
M  V30 5 1 3 6
M  V30 6 2 4 7
M  V30 7 1 5 8
M  V30 8 2 6 9
M  V30 9 1 6 10
M  V30 10 1 8 11
M  V30 11 1 9 12
M  V30 12 1 11 13
M  V30 13 2 12 14
M  V30 14 1 12 15
M  V30 15 1 13 16
M  V30 16 1 13 17
M  V30 17 1 16 18
M  V30 18 1 16 19
M  V30 19 1 17 20
M  V30 20 1 17 21
M  V30 21 1 18 22
M  V30 22 1 20 23
M  V30 23 1 7 9
M  V30 24 1 10 11
M  V30 25 1 19 22
M  V30 26 1 21 23
M  V30 27 1 4 24
M  V30 28 1 7 25
M  V30 29 1 8 26
M  V30 30 1 8 27
M  V30 31 1 10 28
M  V30 32 1 10 29
M  V30 33 1 11 30
M  V30 34 1 15 31
M  V30 35 1 15 32
M  V30 36 1 16 33
M  V30 37 1 17 34
M  V30 38 1 18 35
M  V30 39 1 18 36
M  V30 40 1 19 37
M  V30 41 1 19 38
M  V30 42 1 20 39
M  V30 43 1 20 40
M  V30 44 1 21 41
M  V30 45 1 21 42
M  V30 46 1 22 43
M  V30 47 1 22 44
M  V30 48 1 23 45
M  V30 49 1 23 46
M  V30 END BOND
M  V30 BEGIN COLLECTION
M  V30 MDLV30/STEABS ATOMS=(1 11)
M  V30 END COLLECTION
M  V30 END CTAB
M  END
>  <Column 1>
2106

>  <level_0>
2286

>  <index>
2286

>  <Unnamed: 0>
2286

>  <NO.>
2298

>  <Name>
robalzotan

>  <IUPAC_name>
(3r)-3-[di(cyclobutyl)amino]-8-fluoro-3-4-dihydro-2h-chromene-5-carboxamide

>  <SMILES>
NC(=O)c1ccc(F)c2c1C[C@@H](N(C1CCC1)C1CCC1)CO2

>  <CID>
3055171

>  <logBB>


>  <BBB+/BBB->
BBB+

>  <Inchi>
InChI=1S/C18H23FN2O2/c19-16-8-7-14(18(20)22)15-9-13(10-23-17(15)16)21(11-3-1-4-11)12-5-2-6-12/h7-8-11-13H-1-6-9-10H2-(H2-20-22)/t13-/m1/s1

>  <threshold>
-1

>  <reference>
R1|R6|R24|R27|R27|R30|R30|

>  <group>
B

>  <Class>
1

>  <ABC>
18.43

>  <ABCGG>
15.55

>  <nAcid>
0

>  <nBase>
1

>  <nAromAtom>
6

>  <nAromBond>
6

>  <nAtom>
46

>  <nHeavyAtom>
23

>  <nSpiro>
0

>  <nBridgehead>
0

>  <nHetero>
5

>  <nN>
2

>  <nO>
2

>  <nF>
1

>  <BalabanJ>
1.49

>  <BertzCT>
611.69

>  <nBonds>
49

>  <nBondsO>
26

>  <nBondsS>
42

>  <nBondsD>
1

>  <nBondsT>
0

>  <nBondsA>
6

>  <nBondsM>
7

>  <nBondsKS>
45

>  <nBondsKD>
4

>  <RNCG>
0.25

>  <RPCG>
0.13

>  <FCSP3>
0.61

>  <SZ>
28.33

>  <Sm>
26.51

>  <Sv>
27.82

>  <Sse>
46.15

>  <Sp>
29.79

>  <Si>
52.32

>  <MZ>
0.62

>  <Mm>
0.58

>  <Mv>
0.6

>  <Mse>
1

>  <Mp>
0.65

>  <Mi>
1.14

>  <NsCH3>
0

>  <NdCH2>
0

>  <NssCH2>
8

>  <NtCH>
0

>  <NdsCH>
0

>  <NaaCH>
2

>  <NsssCH>
3

>  <NddC>
0

>  <NtsC>
0

>  <NdssC>
1

>  <NaasC>
4

>  <NaaaC>
0

>  <NssssC>
0

>  <NsNH3>
0

>  <NsNH2>
1

>  <NssNH2>
0

>  <NdNH>
0

>  <NssNH>
0

>  <NaaNH>
0

>  <NtN>
0

>  <NsssNH>
0

>  <NdsN>
0

>  <NaaN>
0

>  <NsssN>
1

>  <NddsN>
0

>  <NaasN>
0

>  <NssssN>
0

>  <NsOH>
0

>  <NdO>
1

>  <NssO>
1

>  <NaaO>
0

>  <NsF>
1

>  <NsSiH3>
0

>  <NssSiH2>
0

>  <NsssSiH>
0

>  <NssssSi>
0

>  <NsPH2>
0

>  <NssPH>
0

>  <NsssP>
0

>  <NdsssP>
0

>  <NsssssP>
0

>  <NsSH>
0

>  <NdS>
0

>  <NssS>
0

>  <NaaS>
0

>  <NdssS>
0

>  <NddssS>
0

>  <NsCl>
0

>  <NsBr>
0

>  <NsI>
0

>  <fragCpx>
170.05

>  <fMF>
0.41

>  <nHBAcc>
3

>  <nHBDon>
1

>  <Kier1>
16.47

>  <Kier2>
6.72

>  <Lipinski>
1

>  <GhoseFilter>
1

>  <FilterItLogS>
-3.38

>  <VMcGowan>
237.3

>  <LabuteASA>
135.33

>  <PEOE_VSA1>
10.47

>  <PEOE_VSA2>
9.69

>  <PEOE_VSA3>
4.39

>  <PEOE_VSA4>
0

>  <PEOE_VSA5>
0

>  <PEOE_VSA6>
12.84

>  <PEOE_VSA7>
44.24

>  <PEOE_VSA8>
29.25

>  <PEOE_VSA9>
0

>  <PEOE_VSA10>
6.61

>  <PEOE_VSA11>
11.57

>  <PEOE_VSA12>
5.91

>  <PEOE_VSA13>
0

>  <SMR_VSA1>
13.92

>  <SMR_VSA2>
0

>  <SMR_VSA3>
4.9

>  <SMR_VSA4>
5.73

>  <SMR_VSA5>
63.07

>  <SMR_VSA6>
6.61

>  <SMR_VSA7>
29.08

>  <SMR_VSA8>
0

>  <SMR_VSA9>
5.75

>  <SlogP_VSA1>
10.47

>  <SlogP_VSA2>
35.54

>  <SlogP_VSA3>
6.42

>  <SlogP_VSA4>
5.82

>  <SlogP_VSA5>
54.45

>  <SlogP_VSA6>
12.13

>  <SlogP_VSA7>
0

>  <SlogP_VSA8>
0

>  <SlogP_VSA9>
0

>  <SlogP_VSA10>
4.39

>  <SlogP_VSA11>
5.75

>  <EState_VSA1>
11.72

>  <EState_VSA2>
11.79

>  <EState_VSA3>
36.24

>  <EState_VSA4>
0

>  <EState_VSA5>
50.66

>  <EState_VSA6>
0

>  <EState_VSA7>
0

>  <EState_VSA8>
4.9

>  <EState_VSA9>
10.47

>  <EState_VSA10>
9.18

>  <VSA_EState1>
19.78

>  <VSA_EState2>
14.3

>  <VSA_EState3>
0

>  <VSA_EState4>
6.52

>  <VSA_EState5>
-0.69

>  <VSA_EState6>
4.23

>  <VSA_EState7>
8.2

>  <VSA_EState8>
0.5

>  <VSA_EState9>
0

>  <apol>
49.76

>  <bpol>
27.93

>  <nRing>
4

>  <nHRing>
1

>  <naRing>
1

>  <naHRing>
0

>  <nARing 2>
3

>  <nAHRing 2>
1

>  <nFRing>
1

>  <nFHRing>
1

>  <nFaRing>
0

>  <nFaHRing>
0

>  <nFARing 2>
1

>  <nFAHRing 2>
1

>  <nRot>
4

>  <SLogP>
2.64

>  <SMR>
85.02

>  <TopoPSA(NO)>
55.56

>  <TopoPSA>
55.56

>  <JGI1>
0.15

>  <JGI2>
0.08

>  <JGI3>
0.06

>  <JGI4>
0.03

>  <JGI5>
0.03

>  <Diameter>
9

>  <Radius>
5

>  <TMWC10>
125.3

>  <TSRW10>
58.39

>  <MW>
318.17

>  <AMW>
6.92

>  <WPath>
1116

>  <WPol>
38

>  <Zagreb1>
128

>  <Zagreb2>
156

>  <mZagreb2>
4.94

>  <yes>


>  <nAR-cont>
0.691115

>  <nHA-cont>
0.967789328

>  <MWHBN>
0.224248929

>  <MWHBN-cont>
0.991936665

>  <TPSA-cont>
0.612156699

>  <pka_cont>
0.97

>  <yes.1>


>  <BBB_SCORE>
4.856122725

>  <MMFF94 Energy>
85.236

$$$$
Compound 1730
Actelion Java MolfileCreator 2.0

  0  0  0  0  0  0              0 V3000
M  V30 BEGIN CTAB
M  V30 COUNTS 15 15 0 0 0
M  V30 BEGIN ATOM
M  V30 1 O -0.1559 1.0918 2.4188 0
M  V30 2 C 0.4206 0.2878 1.6965 0
M  V30 3 N 1.52 -0.3855 2.1503 0
M  V30 4 C -0.0315 0.0447 0.3083 0
M  V30 5 C 0.3059 -1.0946 -0.4088 0
M  V30 6 C -0.8583 0.9817 -0.3165 0
M  V30 7 N -0.0949 -1.3371 -1.6825 0
M  V30 8 C -1.2906 0.7581 -1.622 0
M  V30 9 C -0.8837 -0.4031 -2.2586 0
M  V30 10 H 2.1029 -0.994 1.596 0
M  V30 11 H 1.81 -0.1931 3.1014 0
M  V30 12 H 0.9087 -1.8885 0.0181 0
M  V30 13 H -1.1636 1.883 0.2105 0
M  V30 14 H -1.9303 1.4729 -2.1279 0
M  V30 15 H -1.1937 -0.6215 -3.2768 0
M  V30 END ATOM
M  V30 BEGIN BOND
M  V30 1 2 1 2
M  V30 2 1 2 3
M  V30 3 1 2 4
M  V30 4 2 4 5
M  V30 5 1 4 6
M  V30 6 1 5 7
M  V30 7 2 6 8
M  V30 8 2 7 9
M  V30 9 1 8 9
M  V30 10 1 3 10
M  V30 11 1 3 11
M  V30 12 1 5 12
M  V30 13 1 6 13
M  V30 14 1 8 14
M  V30 15 1 9 15
M  V30 END BOND
M  V30 END CTAB
M  END
>  <Column 1>
2107

>  <level_0>
2287

>  <index>
2287

>  <Unnamed: 0>
2287

>  <NO.>
2299

>  <Name>
nicotinamide

>  <IUPAC_name>
pyridine-3-carboxamide

>  <SMILES>
NC(=O)c1cccnc1

>  <CID>
936

>  <logBB>


>  <BBB+/BBB->
BBB+

>  <Inchi>
InChI=1S/C6H6N2O/c7-6(9)5-2-1-3-8-4-5/h1-4H-(H2-7-9)

>  <threshold>
-1

>  <reference>
R1|R13|R19|R6|R24|R27|R27|R27|R30|R30|

>  <group>
B

>  <Class>
1

>  <ABC>
6.54

>  <ABCGG>
6.24

>  <nAcid>
0

>  <nBase>
0

>  <nAromAtom>
6

>  <nAromBond>
6

>  <nAtom>
15

>  <nHeavyAtom>
9

>  <nSpiro>
0

>  <nBridgehead>
0

>  <nHetero>
3

>  <nN>
2

>  <nO>
1

>  <nF>
0

>  <BalabanJ>
2.23

>  <BertzCT>
207.56

>  <nBonds>
15

>  <nBondsO>
9

>  <nBondsS>
8

>  <nBondsD>
1

>  <nBondsT>
0

>  <nBondsA>
6

>  <nBondsM>
7

>  <nBondsKS>
11

>  <nBondsKD>
4

>  <RNCG>
0.37

>  <RPCG>
0.25

>  <FCSP3>
0

>  <SZ>
10.67

>  <Sm>
10.17

>  <Sv>
9.86

>  <Sse>
15.32

>  <Sp>
10.19

>  <Si>
17.04

>  <MZ>
0.71

>  <Mm>
0.68

>  <Mv>
0.66

>  <Mse>
1.02

>  <Mp>
0.68

>  <Mi>
1.14

>  <NsCH3>
0

>  <NdCH2>
0

>  <NssCH2>
0

>  <NtCH>
0

>  <NdsCH>
0

>  <NaaCH>
4

>  <NsssCH>
0

>  <NddC>
0

>  <NtsC>
0

>  <NdssC>
1

>  <NaasC>
1

>  <NaaaC>
0

>  <NssssC>
0

>  <NsNH3>
0

>  <NsNH2>
1

>  <NssNH2>
0

>  <NdNH>
0

>  <NssNH>
0

>  <NaaNH>
0

>  <NtN>
0

>  <NsssNH>
0

>  <NdsN>
0

>  <NaaN>
1

>  <NsssN>
0

>  <NddsN>
0

>  <NaasN>
0

>  <NssssN>
0

>  <NsOH>
0

>  <NdO>
1

>  <NssO>
0

>  <NaaO>
0

>  <NsF>
0

>  <NsSiH3>
0

>  <NssSiH2>
0

>  <NsssSiH>
0

>  <NssssSi>
0

>  <NsPH2>
0

>  <NssPH>
0

>  <NsssP>
0

>  <NdsssP>
0

>  <NsssssP>
0

>  <NsSH>
0

>  <NdS>
0

>  <NssS>
0

>  <NaaS>
0

>  <NdssS>
0

>  <NddssS>
0

>  <NsCl>
0

>  <NsBr>
0

>  <NsI>
0

>  <fragCpx>
9.03

>  <fMF>
0.4

>  <nHBAcc>
2

>  <nHBDon>
1

>  <Kier1>
7.11

>  <Kier2>
3.24

>  <Lipinski>
1

>  <GhoseFilter>
0

>  <FilterItLogS>
-0.96

>  <VMcGowan>
93.17

>  <LabuteASA>
52.52

>  <PEOE_VSA1>
5.73

>  <PEOE_VSA2>
9.78

>  <PEOE_VSA3>
0

>  <PEOE_VSA4>
0

>  <PEOE_VSA5>
0

>  <PEOE_VSA6>
0

>  <PEOE_VSA7>
12.13

>  <PEOE_VSA8>
12.39

>  <PEOE_VSA9>
5.56

>  <PEOE_VSA10>
0

>  <PEOE_VSA11>
0

>  <PEOE_VSA12>
5.91

>  <PEOE_VSA13>
0

>  <SMR_VSA1>
4.79

>  <SMR_VSA2>
0

>  <SMR_VSA3>
4.98

>  <SMR_VSA4>
5.73

>  <SMR_VSA5>
0

>  <SMR_VSA6>
0

>  <SMR_VSA7>
30.09

>  <SMR_VSA8>
0

>  <SMR_VSA9>
0

>  <SlogP_VSA1>
5.73

>  <SlogP_VSA2>
10.89

>  <SlogP_VSA3>
0

>  <SlogP_VSA4>
0

>  <SlogP_VSA5>
10.36

>  <SlogP_VSA6>
24.53

>  <SlogP_VSA7>
0

>  <SlogP_VSA8>
0

>  <SlogP_VSA9>
0

>  <SlogP_VSA10>
0

>  <SlogP_VSA11>
0

>  <EState_VSA1>
5.91

>  <EState_VSA2>
0

>  <EState_VSA3>
5.56

>  <EState_VSA4>
0

>  <EState_VSA5>
6.2

>  <EState_VSA6>
18.33

>  <EState_VSA7>
0

>  <EState_VSA8>
4.98

>  <EState_VSA9>
5.73

>  <EState_VSA10>
4.79

>  <VSA_EState1>
0

>  <VSA_EState2>
14.09

>  <VSA_EState3>
0

>  <VSA_EState4>
5.38

>  <VSA_EState5>
-0.44

>  <VSA_EState6>
3.29

>  <VSA_EState7>
3.02

>  <VSA_EState8>
0

>  <VSA_EState9>
0

>  <apol>
17.02

>  <bpol>
7.46

>  <nRing>
1

>  <nHRing>
1

>  <naRing>
1

>  <naHRing>
1

>  <nARing 2>
0

>  <nAHRing 2>
0

>  <nFRing>
0

>  <nFHRing>
0

>  <nFaRing>
0

>  <nFaHRing>
0

>  <nFARing 2>
0

>  <nFAHRing 2>
0

>  <nRot>
1

>  <SLogP>
0.18

>  <SMR>
32.75

>  <TopoPSA(NO)>
55.98

>  <TopoPSA>
55.98

>  <JGI1>
0.17

>  <JGI2>
0.08

>  <JGI3>
0.05

>  <JGI4>
0.04

>  <JGI5>
0.06

>  <Diameter>
5

>  <Radius>
3

>  <TMWC10>
79.39

>  <TSRW10>
37.29

>  <MW>
122.05

>  <AMW>
8.14

>  <WPath>
88

>  <WPol>
9

>  <Zagreb1>
40

>  <Zagreb2>
43

>  <mZagreb2>
2.11

>  <yes>


>  <nAR-cont>
0.336376

>  <nHA-cont>
0.56070381

>  <MWHBN>
0.271551598

>  <MWHBN-cont>
0.91655596

>  <TPSA-cont>
0.609224839

>  <pka_cont>
0.97

>  <yes.1>


>  <BBB_SCORE>
3.975363427

>  <MMFF94 Energy>
6.067

$$$$
Compound 1731
Actelion Java MolfileCreator 2.0

  0  0  0  0  0  0              0 V3000
M  V30 BEGIN CTAB
M  V30 COUNTS 25 26 0 0 0
M  V30 BEGIN ATOM
M  V30 1 F -2.8927 0.4816 1.8474 0
M  V30 2 C -2.4248 1.093 0.7511 0
M  V30 3 C -1.6535 0.3792 -0.1649 0
M  V30 4 C -2.7385 2.4359 0.548 0
M  V30 5 C -1.1996 1.0536 -1.2987 0
M  V30 6 C -1.2985 -1.0564 0.075 0
M  V30 7 C -2.2753 3.0917 -0.5917 0
M  V30 8 F -0.4555 0.4014 -2.2036 0
M  V30 9 C -1.5028 2.3957 -1.52 0
M  V30 10 N 0.039 -1.1859 0.6233 0
M  V30 11 N 0.234 -1.2072 1.9506 0
M  V30 12 C 1.214 -1.3452 -0.0536 0
M  V30 13 N 1.535 -1.3591 2.1596 0
M  V30 14 C 2.1697 -1.4441 0.9411 0
M  V30 15 C 3.6115 -1.6131 0.8209 0
M  V30 16 O 4.375 -1.7216 1.7753 0
M  V30 17 N 4.1158 -1.6475 -0.4527 0
M  V30 18 H -3.341 2.9613 1.2837 0
M  V30 19 H -1.3341 -1.6271 -0.8604 0
M  V30 20 H -1.9964 -1.5401 0.7681 0
M  V30 21 H -2.5144 4.14 -0.7536 0
M  V30 22 H -1.1326 2.8908 -2.4129 0
M  V30 23 H 1.2599 -1.3639 -1.1313 0
M  V30 24 H 3.5521 -1.5537 -1.282 0
M  V30 25 H 5.1156 -1.7628 -0.5443 0
M  V30 END ATOM
M  V30 BEGIN BOND
M  V30 1 1 1 2
M  V30 2 2 2 3
M  V30 3 1 2 4
M  V30 4 1 3 5
M  V30 5 1 3 6
M  V30 6 2 4 7
M  V30 7 1 5 8
M  V30 8 2 5 9
M  V30 9 1 6 10
M  V30 10 1 10 11
M  V30 11 1 10 12
M  V30 12 2 11 13
M  V30 13 2 12 14
M  V30 14 1 14 15
M  V30 15 2 15 16
M  V30 16 1 15 17
M  V30 17 1 7 9
M  V30 18 1 13 14
M  V30 19 1 4 18
M  V30 20 1 6 19
M  V30 21 1 6 20
M  V30 22 1 7 21
M  V30 23 1 9 22
M  V30 24 1 12 23
M  V30 25 1 17 24
M  V30 26 1 17 25
M  V30 END BOND
M  V30 END CTAB
M  END
>  <Column 1>
2108

>  <level_0>
2288

>  <index>
2288

>  <Unnamed: 0>
2288

>  <NO.>
2300

>  <Name>
rufinamide

>  <IUPAC_name>
1-[(2-6-difluorophenyl)methyl]triazole-4-carboxamide

>  <SMILES>
NC(=O)c1cn(Cc2c(F)cccc2F)nn1

>  <CID>
129228

>  <logBB>


>  <BBB+/BBB->
BBB+

>  <Inchi>
InChI=1S/C10H8F2N4O/c11-7-2-1-3-8(12)6(7)4-16-5-9(10(13)17)14-15-16/h1-3-5H-4H2-(H2-13-17)

>  <threshold>
-1

>  <reference>
R1|R13|R19|R6|R23|R24|R27|R27|R27|R30|R30|

>  <group>
B

>  <Class>
1

>  <ABC>
13.04

>  <ABCGG>
11.65

>  <nAcid>
0

>  <nBase>
0

>  <nAromAtom>
11

>  <nAromBond>
11

>  <nAtom>
25

>  <nHeavyAtom>
17

>  <nSpiro>
0

>  <nBridgehead>
0

>  <nHetero>
7

>  <nN>
4

>  <nO>
1

>  <nF>
2

>  <BalabanJ>
1.84

>  <BertzCT>
546.93

>  <nBonds>
26

>  <nBondsO>
18

>  <nBondsS>
14

>  <nBondsD>
1

>  <nBondsT>
0

>  <nBondsA>
11

>  <nBondsM>
12

>  <nBondsKS>
20

>  <nBondsKD>
6

>  <RNCG>
0.23

>  <RPCG>
0.17

>  <FCSP3>
0.1

>  <SZ>
20.33

>  <Sm>
19.83

>  <Sv>
17.21

>  <Sse>
26.45

>  <Sp>
16.98

>  <Si>
29.13

>  <MZ>
0.81

>  <Mm>
0.79

>  <Mv>
0.69

>  <Mse>
1.06

>  <Mp>
0.68

>  <Mi>
1.17

>  <NsCH3>
0

>  <NdCH2>
0

>  <NssCH2>
1

>  <NtCH>
0

>  <NdsCH>
0

>  <NaaCH>
4

>  <NsssCH>
0

>  <NddC>
0

>  <NtsC>
0

>  <NdssC>
1

>  <NaasC>
4

>  <NaaaC>
0

>  <NssssC>
0

>  <NsNH3>
0

>  <NsNH2>
1

>  <NssNH2>
0

>  <NdNH>
0

>  <NssNH>
0

>  <NaaNH>
0

>  <NtN>
0

>  <NsssNH>
0

>  <NdsN>
0

>  <NaaN>
2

>  <NsssN>
0

>  <NddsN>
0

>  <NaasN>
1

>  <NssssN>
0

>  <NsOH>
0

>  <NdO>
1

>  <NssO>
0

>  <NaaO>
0

>  <NsF>
2

>  <NsSiH3>
0

>  <NssSiH2>
0

>  <NsssSiH>
0

>  <NssssSi>
0

>  <NsPH2>
0

>  <NssPH>
0

>  <NsssP>
0

>  <NdsssP>
0

>  <NsssssP>
0

>  <NsSH>
0

>  <NdS>
0

>  <NssS>
0

>  <NaaS>
0

>  <NdssS>
0

>  <NddssS>
0

>  <NsCl>
0

>  <NsBr>
0

>  <NsI>
0

>  <fragCpx>
52.07

>  <fMF>
0.48

>  <nHBAcc>
4

>  <nHBDon>
1

>  <Kier1>
13.43

>  <Kier2>
5.76

>  <Lipinski>
1

>  <GhoseFilter>
1

>  <FilterItLogS>
-2.51

>  <VMcGowan>
153.55

>  <LabuteASA>
94.85

>  <PEOE_VSA1>
5.73

>  <PEOE_VSA2>
4.79

>  <PEOE_VSA3>
13.46

>  <PEOE_VSA4>
0

>  <PEOE_VSA5>
5.1

>  <PEOE_VSA6>
11.28

>  <PEOE_VSA7>
12.13

>  <PEOE_VSA8>
5.56

>  <PEOE_VSA9>
12.74

>  <PEOE_VSA10>
11.63

>  <PEOE_VSA11>
5.69

>  <PEOE_VSA12>
0

>  <PEOE_VSA13>
5.91

>  <SMR_VSA1>
13.58

>  <SMR_VSA2>
0

>  <SMR_VSA3>
14.99

>  <SMR_VSA4>
5.73

>  <SMR_VSA5>
6.54

>  <SMR_VSA6>
0

>  <SMR_VSA7>
47.29

>  <SMR_VSA8>
0

>  <SMR_VSA9>
0

>  <SlogP_VSA1>
5.73

>  <SlogP_VSA2>
20.9

>  <SlogP_VSA3>
6.54

>  <SlogP_VSA4>
11.63

>  <SlogP_VSA5>
16.05

>  <SlogP_VSA6>
24.4

>  <SlogP_VSA7>
0

>  <SlogP_VSA8>
0

>  <SlogP_VSA9>
0

>  <SlogP_VSA10>
8.78

>  <SlogP_VSA11>
0

>  <EState_VSA1>
17.54

>  <EState_VSA2>
17.8

>  <EState_VSA3>
0

>  <EState_VSA4>
16.81

>  <EState_VSA5>
12.26

>  <EState_VSA6>
0

>  <EState_VSA7>
0

>  <EState_VSA8>
10.31

>  <EState_VSA9>
5.73

>  <EState_VSA10>
13.58

>  <VSA_EState1>
27.76

>  <VSA_EState2>
10.76

>  <VSA_EState3>
7.01

>  <VSA_EState4>
4.78

>  <VSA_EState5>
-2.1

>  <VSA_EState6>
3.55

>  <VSA_EState7>
1.23

>  <VSA_EState8>
-0.15

>  <VSA_EState9>
0

>  <apol>
28.35

>  <bpol>
12.26

>  <nRing>
2

>  <nHRing>
1

>  <naRing>
2

>  <naHRing>
1

>  <nARing 2>
0

>  <nAHRing 2>
0

>  <nFRing>
0

>  <nFHRing>
0

>  <nFaRing>
0

>  <nFaHRing>
0

>  <nFARing 2>
0

>  <nFAHRing 2>
0

>  <nRot>
3

>  <SLogP>
0.7

>  <SMR>
54

>  <TopoPSA(NO)>
73.8

>  <TopoPSA>
73.8

>  <JGI1>
0.22

>  <JGI2>
0.09

>  <JGI3>
0.06

>  <JGI4>
0.06

>  <JGI5>
0.01

>  <Diameter>
9

>  <Radius>
5

>  <TMWC10>
105.82

>  <TSRW10>
63.09

>  <MW>
238.07

>  <AMW>
9.52

>  <WPath>
537

>  <WPol>
23

>  <Zagreb1>
86

>  <Zagreb2>
99

>  <mZagreb2>
3.75

>  <yes>


>  <nAR-cont>
0.336376

>  <nHA-cont>
0.976740822

>  <MWHBN>
0.32405421

>  <MWHBN-cont>
0.763431829

>  <TPSA-cont>
0.484830173

>  <pka_cont>
0.97

>  <yes.1>


>  <BBB_SCORE>
3.912924911

>  <MMFF94 Energy>
4.2764

$$$$
Compound 1732
Actelion Java MolfileCreator 2.0

  0  0  0  0  0  0              0 V3000
M  V30 BEGIN CTAB
M  V30 COUNTS 28 29 0 0 0
M  V30 BEGIN ATOM
M  V30 1 O 1.3415 -1.1836 2.2893 0
M  V30 2 C 0.1972 -1.5369 2.0461 0
M  V30 3 O -0.8232 -1.0999 2.8191 0
M  V30 4 C -0.2356 -2.497 0.9319 0 CFG=1
M  V30 5 N -1.7093 -2.713 0.9295 0
M  V30 6 C 0.3064 -2.0314 -0.4312 0
M  V30 7 C -0.2736 -0.7404 -0.9417 0
M  V30 8 C 0.2466 0.5825 -0.7525 0
M  V30 9 C -1.4142 -0.6107 -1.7121 0
M  V30 10 C -0.6196 1.469 -1.3954 0
M  V30 11 C 1.377 1.11 -0.0919 0
M  V30 12 N -1.6148 0.7166 -1.9725 0
M  V30 13 C -0.4222 2.8558 -1.4024 0
M  V30 14 C 1.5768 2.4922 -0.0906 0
M  V30 15 C 0.6973 3.3536 -0.7312 0
M  V30 16 O 2.6513 3.0437 0.5474 0
M  V30 17 H -0.3952 -0.483 3.4493 0
M  V30 18 H 0.2167 -3.4645 1.1807 0
M  V30 19 H -2.1431 -1.8265 0.6591 0
M  V30 20 H -1.9971 -2.8301 1.9046 0
M  V30 21 H 1.3982 -1.932 -0.3765 0
M  V30 22 H 0.1154 -2.8165 -1.1754 0
M  V30 23 H -2.1 -1.3568 -2.093 0
M  V30 24 H 2.074 0.4444 0.4049 0
M  V30 25 H -2.3775 1.0959 -2.5165 0
M  V30 26 H -1.108 3.5264 -1.9095 0
M  V30 27 H 0.8843 4.4241 -0.7129 0
M  V30 28 H 3.1655 2.3253 0.9523 0
M  V30 END ATOM
M  V30 BEGIN BOND
M  V30 1 2 1 2
M  V30 2 1 2 3
M  V30 3 1 2 4
M  V30 4 1 4 5
M  V30 5 1 4 6
M  V30 6 1 6 7
M  V30 7 1 7 8
M  V30 8 2 7 9
M  V30 9 2 8 10
M  V30 10 1 8 11
M  V30 11 1 9 12
M  V30 12 1 10 13
M  V30 13 2 11 14
M  V30 14 2 13 15
M  V30 15 1 14 16
M  V30 16 1 10 12
M  V30 17 1 14 15
M  V30 18 1 3 17
M  V30 19 1 4 18
M  V30 20 1 5 19
M  V30 21 1 5 20
M  V30 22 1 6 21
M  V30 23 1 6 22
M  V30 24 1 9 23
M  V30 25 1 11 24
M  V30 26 1 12 25
M  V30 27 1 13 26
M  V30 28 1 15 27
M  V30 29 1 16 28
M  V30 END BOND
M  V30 BEGIN COLLECTION
M  V30 MDLV30/STERAC1 ATOMS=(1 4)
M  V30 END COLLECTION
M  V30 END CTAB
M  END
>  <Column 1>
2113

>  <level_0>
2294

>  <index>
2294

>  <Unnamed: 0>
2294

>  <NO.>
2306

>  <Name>
5-hydroxytryptophan

>  <IUPAC_name>
2-amino-3-(5-hydroxy-1h-indol-3-yl)propanoic acid

>  <SMILES>
NC(Cc1c[nH]c2ccc(O)cc12)C(=O)O

>  <CID>
144

>  <logBB>


>  <BBB+/BBB->
BBB+

>  <Inchi>
InChI=1S/C11H12N2O3/c12-9(11(15)16)3-6-5-13-10-2-1-7(14)4-8(6)10/h1-2-4-5-9-13-14H-3-12H2-(H-15-16)

>  <threshold>
-1

>  <reference>
R1|R19|R27|R27|R30|

>  <group>
B

>  <Class>
-1

>  <ABC>
12.34

>  <ABCGG>
11.15

>  <nAcid>
1

>  <nBase>
1

>  <nAromAtom>
9

>  <nAromBond>
10

>  <nAtom>
28

>  <nHeavyAtom>
16

>  <nSpiro>
0

>  <nBridgehead>
0

>  <nHetero>
5

>  <nN>
2

>  <nO>
3

>  <nF>
0

>  <BalabanJ>
1.91

>  <BertzCT>
533.01

>  <nBonds>
29

>  <nBondsO>
17

>  <nBondsS>
18

>  <nBondsD>
1

>  <nBondsT>
0

>  <nBondsA>
10

>  <nBondsM>
11

>  <nBondsKS>
24

>  <nBondsKD>
5

>  <RNCG>
0.25

>  <RPCG>
0.16

>  <FCSP3>
0.18

>  <SZ>
19.33

>  <Sm>
18.34

>  <Sv>
17.91

>  <Sse>
28.65

>  <Sp>
18.55

>  <Si>
31.7

>  <MZ>
0.69

>  <Mm>
0.65

>  <Mv>
0.64

>  <Mse>
1.02

>  <Mp>
0.66

>  <Mi>
1.13

>  <NsCH3>
0

>  <NdCH2>
0

>  <NssCH2>
1

>  <NtCH>
0

>  <NdsCH>
0

>  <NaaCH>
4

>  <NsssCH>
1

>  <NddC>
0

>  <NtsC>
0

>  <NdssC>
1

>  <NaasC>
2

>  <NaaaC>
2

>  <NssssC>
0

>  <NsNH3>
0

>  <NsNH2>
1

>  <NssNH2>
0

>  <NdNH>
0

>  <NssNH>
0

>  <NaaNH>
1

>  <NtN>
0

>  <NsssNH>
0

>  <NdsN>
0

>  <NaaN>
0

>  <NsssN>
0

>  <NddsN>
0

>  <NaasN>
0

>  <NssssN>
0

>  <NsOH>
2

>  <NdO>
1

>  <NssO>
0

>  <NaaO>
0

>  <NsF>
0

>  <NsSiH3>
0

>  <NssSiH2>
0

>  <NsssSiH>
0

>  <NssssSi>
0

>  <NsPH2>
0

>  <NssPH>
0

>  <NsssP>
0

>  <NdsssP>
0

>  <NsssssP>
0

>  <NsSH>
0

>  <NdS>
0

>  <NssS>
0

>  <NaaS>
0

>  <NdssS>
0

>  <NddssS>
0

>  <NsCl>
0

>  <NsBr>
0

>  <NsI>
0

>  <fragCpx>
49.05

>  <fMF>
0.32

>  <nHBAcc>
3

>  <nHBDon>
4

>  <Kier1>
12.46

>  <Kier2>
5.1

>  <Lipinski>
1

>  <GhoseFilter>
1

>  <FilterItLogS>
-1.58

>  <VMcGowan>
160.2

>  <LabuteASA>
91.51

>  <PEOE_VSA1>
20.93

>  <PEOE_VSA2>
4.79

>  <PEOE_VSA3>
0

>  <PEOE_VSA4>
0

>  <PEOE_VSA5>
0

>  <PEOE_VSA6>
0

>  <PEOE_VSA7>
23.76

>  <PEOE_VSA8>
23.52

>  <PEOE_VSA9>
0

>  <PEOE_VSA10>
11.79

>  <PEOE_VSA11>
0

>  <PEOE_VSA12>
0

>  <PEOE_VSA13>
0

>  <SMR_VSA1>
15.01

>  <SMR_VSA2>
0

>  <SMR_VSA3>
4.98

>  <SMR_VSA4>
5.73

>  <SMR_VSA5>
12.46

>  <SMR_VSA6>
0

>  <SMR_VSA7>
29.96

>  <SMR_VSA8>
0

>  <SMR_VSA9>
5.75

>  <SlogP_VSA1>
5.73

>  <SlogP_VSA2>
27.21

>  <SlogP_VSA3>
11.22

>  <SlogP_VSA4>
0

>  <SlogP_VSA5>
5.56

>  <SlogP_VSA6>
24.4

>  <SlogP_VSA7>
0

>  <SlogP_VSA8>
10.9

>  <SlogP_VSA9>
0

>  <SlogP_VSA10>
0

>  <SlogP_VSA11>
5.75

>  <EState_VSA1>
12.01

>  <EState_VSA2>
12.17

>  <EState_VSA3>
0

>  <EState_VSA4>
16.47

>  <EState_VSA5>
0

>  <EState_VSA6>
24.4

>  <EState_VSA7>
0

>  <EState_VSA8>
4.98

>  <EState_VSA9>
10.84

>  <EState_VSA10>
9.9

>  <VSA_EState1>
0

>  <VSA_EState2>
13.64

>  <VSA_EState3>
18.88

>  <VSA_EState4>
7.11

>  <VSA_EState5>
-0.88

>  <VSA_EState6>
3.97

>  <VSA_EState7>
1.95

>  <VSA_EState8>
0

>  <VSA_EState9>
0

>  <apol>
30.98

>  <bpol>
12.91

>  <nRing>
2

>  <nHRing>
1

>  <naRing>
2

>  <naHRing>
1

>  <nARing 2>
0

>  <nAHRing 2>
0

>  <nFRing>
1

>  <nFHRing>
1

>  <nFaRing>
1

>  <nFaHRing>
1

>  <nFARing 2>
0

>  <nFAHRing 2>
0

>  <nRot>
3

>  <SLogP>
0.83

>  <SMR>
59.28

>  <TopoPSA(NO)>
99.34

>  <TopoPSA>
99.34

>  <JGI1>
0.24

>  <JGI2>
0.09

>  <JGI3>
0.04

>  <JGI4>
0.05

>  <JGI5>
0.03

>  <Diameter>
8

>  <Radius>
4

>  <TMWC10>
103.88

>  <TSRW10>
62.3

>  <MW>
220.08

>  <AMW>
7.86

>  <WPath>
439

>  <WPol>
22

>  <Zagreb1>
82

>  <Zagreb2>
95

>  <mZagreb2>
3.5

>  <yes>


>  <nAR-cont>
0.336376

>  <nHA-cont>
0.954961865

>  <MWHBN>
0.47185412

>  <MWHBN-cont>
0

>  <TPSA-cont>
0.306545114

>  <pka_cont>
0.97

>  <yes.1>


>  <BBB_SCORE>
2.389428092

>  <MMFF94 Energy>
34.854

$$$$
Compound 1733
Actelion Java MolfileCreator 2.0

  0  0  0  0  0  0              0 V3000
M  V30 BEGIN CTAB
M  V30 COUNTS 34 35 0 0 0
M  V30 BEGIN ATOM
M  V30 1 O 0.7833 -0.1566 -0.6266 0
M  V30 2 C 0.456 -1.0877 0.4189 0
M  V30 3 C -0.3173 0.7626 -0.6541 0 CFG=2
M  V30 4 O -0.9149 -0.9065 0.8135 0
M  V30 5 C 0.653 -2.5097 -0.1162 0
M  V30 6 C 1.3583 -0.8238 1.6286 0
M  V30 7 C -1.4834 -0.0853 -0.2099 0
M  V30 8 C -0.4879 1.3646 -2.0431 0
M  V30 9 C 0.4761 -3.5646 0.9739 0
M  V30 10 C 1.184 -1.879 2.7192 0
M  V30 11 N -1.5724 2.3439 -2.0584 0
M  V30 12 C 1.3816 -3.2898 2.1715 0
M  V30 13 C -1.3225 3.563 -1.7553 0
M  V30 14 N -2.3248 4.4553 -1.7748 0
M  V30 15 N -0.1598 4.1274 -1.3856 0
M  V30 16 H -0.1066 1.5411 0.0894 0
M  V30 17 H -0.0619 -2.7088 -0.924 0
M  V30 18 H 1.6517 -2.6019 -0.5621 0
M  V30 19 H 2.4073 -0.7926 1.3075 0
M  V30 20 H 1.1378 0.1642 2.0515 0
M  V30 21 H -1.8521 -0.7437 -1.0042 0
M  V30 22 H -2.3172 0.4972 0.1907 0
M  V30 23 H 0.4603 1.7815 -2.4036 0
M  V30 24 H -0.7244 0.5724 -2.7644 0
M  V30 25 H -0.5699 -3.5845 1.3031 0
M  V30 26 H 0.6986 -4.5565 0.5647 0
M  V30 27 H 1.9012 -1.6942 3.5269 0
M  V30 28 H 0.1827 -1.7944 3.1589 0
M  V30 29 H 1.1816 -4.0231 2.9609 0
M  V30 30 H 2.429 -3.4201 1.8726 0
M  V30 31 H -2.1876 5.4477 -1.6921 0
M  V30 32 H -3.2353 4.1156 -2.0547 0
M  V30 33 H 0.6893 3.5858 -1.3237 0
M  V30 34 H -0.1104 5.0915 -1.0985 0
M  V30 END ATOM
M  V30 BEGIN BOND
M  V30 1 1 1 2
M  V30 2 1 1 3
M  V30 3 1 2 4
M  V30 4 1 2 5
M  V30 5 1 2 6
M  V30 6 1 3 7
M  V30 7 1 3 8
M  V30 8 1 5 9
M  V30 9 1 6 10
M  V30 10 1 8 11
M  V30 11 1 9 12
M  V30 12 2 11 13
M  V30 13 1 13 14
M  V30 14 1 13 15
M  V30 15 1 4 7
M  V30 16 1 10 12
M  V30 17 1 3 16
M  V30 18 1 5 17
M  V30 19 1 5 18
M  V30 20 1 6 19
M  V30 21 1 6 20
M  V30 22 1 7 21
M  V30 23 1 7 22
M  V30 24 1 8 23
M  V30 25 1 8 24
M  V30 26 1 9 25
M  V30 27 1 9 26
M  V30 28 1 10 27
M  V30 29 1 10 28
M  V30 30 1 12 29
M  V30 31 1 12 30
M  V30 32 1 14 31
M  V30 33 1 14 32
M  V30 34 1 15 33
M  V30 35 1 15 34
M  V30 END BOND
M  V30 BEGIN COLLECTION
M  V30 MDLV30/STERAC1 ATOMS=(1 3)
M  V30 END COLLECTION
M  V30 END CTAB
M  END
>  <Column 1>
2114

>  <level_0>
2295

>  <index>
2295

>  <Unnamed: 0>
2295

>  <NO.>
2307

>  <Name>
disulfiram

>  <IUPAC_name>
2-(1-4-dioxaspiro[4.5]decan-3-ylmethyl)guanidine

>  <SMILES>
NC(N)=NCC1COC2(CCCCC2)O1

>  <CID>
38521

>  <logBB>


>  <BBB+/BBB->
BBB-

>  <Inchi>
InChI=1S/C10H19N3O2/c11-9(12)13-6-8-7-14-10(15-8)4-2-1-3-5-10/h8H-1-7H2-(H4-11-12-13)

>  <threshold>
-1

>  <reference>
R1|R19|R28|R9|R14|R23|R27|R27|R30|R36|

>  <group>
B

>  <Class>
1

>  <ABC>
11.53

>  <ABCGG>
10.09

>  <nAcid>
0

>  <nBase>
3

>  <nAromAtom>
0

>  <nAromBond>
0

>  <nAtom>
34

>  <nHeavyAtom>
15

>  <nSpiro>
1

>  <nBridgehead>
0

>  <nHetero>
5

>  <nN>
3

>  <nO>
2

>  <nF>
0

>  <BalabanJ>
1.78

>  <BertzCT>
245.05

>  <nBonds>
35

>  <nBondsO>
16

>  <nBondsS>
34

>  <nBondsD>
1

>  <nBondsT>
0

>  <nBondsA>
0

>  <nBondsM>
1

>  <nBondsKS>
34

>  <nBondsKD>
1

>  <RNCG>
0.2

>  <RPCG>
0.1

>  <FCSP3>
0.9

>  <SZ>
19.33

>  <Sm>
17.76

>  <Sv>
18.85

>  <Sse>
34.09

>  <Sp>
20.52

>  <Si>
39.24

>  <MZ>
0.57

>  <Mm>
0.52

>  <Mv>
0.55

>  <Mse>
1

>  <Mp>
0.6

>  <Mi>
1.15

>  <NsCH3>
0

>  <NdCH2>
0

>  <NssCH2>
7

>  <NtCH>
0

>  <NdsCH>
0

>  <NaaCH>
0

>  <NsssCH>
1

>  <NddC>
0

>  <NtsC>
0

>  <NdssC>
1

>  <NaasC>
0

>  <NaaaC>
0

>  <NssssC>
1

>  <NsNH3>
0

>  <NsNH2>
2

>  <NssNH2>
0

>  <NdNH>
0

>  <NssNH>
0

>  <NaaNH>
0

>  <NtN>
0

>  <NsssNH>
0

>  <NdsN>
1

>  <NaaN>
0

>  <NsssN>
0

>  <NddsN>
0

>  <NaasN>
0

>  <NssssN>
0

>  <NsOH>
0

>  <NdO>
0

>  <NssO>
2

>  <NaaO>
0

>  <NsF>
0

>  <NsSiH3>
0

>  <NssSiH2>
0

>  <NsssSiH>
0

>  <NssssSi>
0

>  <NsPH2>
0

>  <NssPH>
0

>  <NsssP>
0

>  <NdsssP>
0

>  <NsssssP>
0

>  <NsSH>
0

>  <NdS>
0

>  <NssS>
0

>  <NaaS>
0

>  <NdssS>
0

>  <NddssS>
0

>  <NsCl>
0

>  <NsBr>
0

>  <NsI>
0

>  <fragCpx>
46.05

>  <fMF>
0.29

>  <nHBAcc>
3

>  <nHBDon>
2

>  <Kier1>
11.48

>  <Kier2>
4.89

>  <Lipinski>
1

>  <GhoseFilter>
1

>  <FilterItLogS>
-1.12

>  <VMcGowan>
167.42

>  <LabuteASA>
89.81

>  <PEOE_VSA1>
20.94

>  <PEOE_VSA2>
4.99

>  <PEOE_VSA3>
0

>  <PEOE_VSA4>
0

>  <PEOE_VSA5>
0

>  <PEOE_VSA6>
6.42

>  <PEOE_VSA7>
12.84

>  <PEOE_VSA8>
12.84

>  <PEOE_VSA9>
13.15

>  <PEOE_VSA10>
6.1

>  <PEOE_VSA11>
11.75

>  <PEOE_VSA12>
0

>  <PEOE_VSA13>
0

>  <SMR_VSA1>
9.47

>  <SMR_VSA2>
0

>  <SMR_VSA3>
0

>  <SMR_VSA4>
16.46

>  <SMR_VSA5>
44

>  <SMR_VSA6>
13.15

>  <SMR_VSA7>
0

>  <SMR_VSA8>
0

>  <SMR_VSA9>
0

>  <SlogP_VSA1>
11.47

>  <SlogP_VSA2>
31

>  <SlogP_VSA3>
9.47

>  <SlogP_VSA4>
0

>  <SlogP_VSA5>
32.1

>  <SlogP_VSA6>
4.99

>  <SlogP_VSA7>
0

>  <SlogP_VSA8>
0

>  <SlogP_VSA9>
0

>  <SlogP_VSA10>
0

>  <SlogP_VSA11>
0

>  <EState_VSA1>
0

>  <EState_VSA2>
17.85

>  <EState_VSA3>
13.15

>  <EState_VSA4>
12.84

>  <EState_VSA5>
19.26

>  <EState_VSA6>
0

>  <EState_VSA7>
0

>  <EState_VSA8>
4.99

>  <EState_VSA9>
20.94

>  <EState_VSA10>
0

>  <VSA_EState1>
11.65

>  <VSA_EState2>
3.95

>  <VSA_EState3>
0

>  <VSA_EState4>
10.54

>  <VSA_EState5>
-0.2

>  <VSA_EState6>
0

>  <VSA_EState7>
5.69

>  <VSA_EState8>
1.11

>  <VSA_EState9>
0

>  <apol>
34.27

>  <bpol>
22.53

>  <nRing>
2

>  <nHRing>
1

>  <naRing>
0

>  <naHRing>
0

>  <nARing 2>
2

>  <nAHRing 2>
1

>  <nFRing>
0

>  <nFHRing>
0

>  <nFaRing>
0

>  <nFaHRing>
0

>  <nFARing 2>
0

>  <nFAHRing 2>
0

>  <nRot>
2

>  <SLogP>
0.34

>  <SMR>
57.32

>  <TopoPSA(NO)>
82.86

>  <TopoPSA>
82.86

>  <JGI1>
0.25

>  <JGI2>
0.06

>  <JGI3>
0.04

>  <JGI4>
0.05

>  <JGI5>
0.02

>  <Diameter>
9

>  <Radius>
5

>  <TMWC10>
100.88

>  <TSRW10>
60.89

>  <MW>
213.15

>  <AMW>
6.27

>  <WPath>
391

>  <WPol>
18

>  <Zagreb1>
76

>  <Zagreb2>
86

>  <mZagreb2>
3.33

>  <yes>


>  <nAR-cont>
1

>  <nHA-cont>
0.92539861

>  <MWHBN>
0.342473787

>  <MWHBN-cont>
0.698109134

>  <TPSA-cont>
0.421585747

>  <pka_cont>
0.97

>  <yes.1>


>  <BBB_SCORE>
4.300733806

>  <MMFF94 Energy>
-98.221

$$$$
Compound 1734
Actelion Java MolfileCreator 2.0

  0  0  0  0  0  0              0 V3000
M  V30 BEGIN CTAB
M  V30 COUNTS 29 29 0 0 0
M  V30 BEGIN ATOM
M  V30 1 O 1.4623 0.7694 0.4616 0
M  V30 2 C 2.3872 0.2757 1.3397 0
M  V30 3 C 0.3212 -0.0448 0.1911 0
M  V30 4 C 2.3222 -0.9523 1.9995 0
M  V30 5 C 3.4819 1.1146 1.5658 0
M  V30 6 C -0.5655 0.6961 -0.8035 0
M  V30 7 C 3.3436 -1.3338 2.8757 0
M  V30 8 C 4.5019 0.735 2.4399 0
M  V30 9 C -1.8127 -0.1115 -1.1459 0
M  V30 10 C 4.4321 -0.4913 3.0957 0
M  V30 11 N -2.6091 0.6559 -2.0971 0
M  V30 12 C -3.7104 0.1532 -2.5158 0
M  V30 13 N -4.4551 0.8466 -3.3911 0
M  V30 14 N -4.2746 -1.0266 -2.2029 0
M  V30 15 H -0.2395 -0.2229 1.1168 0
M  V30 16 H 0.6378 -1.0002 -0.2443 0
M  V30 17 H 1.4928 -1.6358 1.8557 0
M  V30 18 H 3.5385 2.0727 1.0549 0
M  V30 19 H -0.8461 1.6734 -0.3899 0
M  V30 20 H 0.0068 0.9175 -1.7135 0
M  V30 21 H 3.2884 -2.2913 3.3872 0
M  V30 22 H 5.3472 1.397 2.6064 0
M  V30 23 H -2.3868 -0.3018 -0.231 0
M  V30 24 H -1.5164 -1.073 -1.5822 0
M  V30 25 H 5.2243 -0.7903 3.777 0
M  V30 26 H -5.4045 0.6099 -3.6204 0
M  V30 27 H -4.1012 1.7526 -3.6684 0
M  V30 28 H -3.8223 -1.6573 -1.5594 0
M  V30 29 H -5.0798 -1.3692 -2.701 0
M  V30 END ATOM
M  V30 BEGIN BOND
M  V30 1 1 1 2
M  V30 2 1 1 3
M  V30 3 2 2 4
M  V30 4 1 2 5
M  V30 5 1 3 6
M  V30 6 1 4 7
M  V30 7 2 5 8
M  V30 8 1 6 9
M  V30 9 2 7 10
M  V30 10 1 9 11
M  V30 11 2 11 12
M  V30 12 1 12 13
M  V30 13 1 12 14
M  V30 14 1 8 10
M  V30 15 1 3 15
M  V30 16 1 3 16
M  V30 17 1 4 17
M  V30 18 1 5 18
M  V30 19 1 6 19
M  V30 20 1 6 20
M  V30 21 1 7 21
M  V30 22 1 8 22
M  V30 23 1 9 23
M  V30 24 1 9 24
M  V30 25 1 10 25
M  V30 26 1 13 26
M  V30 27 1 13 27
M  V30 28 1 14 28
M  V30 29 1 14 29
M  V30 END BOND
M  V30 END CTAB
M  END
>  <Column 1>
2115

>  <level_0>
2296

>  <index>
2296

>  <Unnamed: 0>
2296

>  <NO.>
2308

>  <Name>
guanoxyfen

>  <IUPAC_name>
2-(3-phenoxypropyl)guanidine

>  <SMILES>
NC(N)=NCCCOc1ccccc1

>  <CID>
13923

>  <logBB>


>  <BBB+/BBB->
BBB+

>  <Inchi>
InChI=1S/C10H15N3O/c11-10(12)13-7-4-8-14-9-5-2-1-3-6-9/h1-3-5-6H-4-7-8H2-(H4-11-12-13)

>  <threshold>
-1

>  <reference>
R1|R13|R19|R6|R27|R27|R27|R30|R30|

>  <group>
B

>  <Class>
-1

>  <ABC>
10.12

>  <ABCGG>
8.7

>  <nAcid>
0

>  <nBase>
3

>  <nAromAtom>
6

>  <nAromBond>
6

>  <nAtom>
29

>  <nHeavyAtom>
14

>  <nSpiro>
0

>  <nBridgehead>
0

>  <nHetero>
4

>  <nN>
3

>  <nO>
1

>  <nF>
0

>  <BalabanJ>
1.87

>  <BertzCT>
280.68

>  <nBonds>
29

>  <nBondsO>
14

>  <nBondsS>
22

>  <nBondsD>
1

>  <nBondsT>
0

>  <nBondsA>
6

>  <nBondsM>
7

>  <nBondsKS>
25

>  <nBondsKD>
4

>  <RNCG>
0.29

>  <RPCG>
0.11

>  <FCSP3>
0.3

>  <SZ>
17.33

>  <Sm>
16.09

>  <Sv>
17.05

>  <Sse>
28.98

>  <Sp>
18.45

>  <Si>
33.2

>  <MZ>
0.6

>  <Mm>
0.55

>  <Mv>
0.59

>  <Mse>
1

>  <Mp>
0.64

>  <Mi>
1.14

>  <NsCH3>
0

>  <NdCH2>
0

>  <NssCH2>
3

>  <NtCH>
0

>  <NdsCH>
0

>  <NaaCH>
5

>  <NsssCH>
0

>  <NddC>
0

>  <NtsC>
0

>  <NdssC>
1

>  <NaasC>
1

>  <NaaaC>
0

>  <NssssC>
0

>  <NsNH3>
0

>  <NsNH2>
2

>  <NssNH2>
0

>  <NdNH>
0

>  <NssNH>
0

>  <NaaNH>
0

>  <NtN>
0

>  <NsssNH>
0

>  <NdsN>
1

>  <NaaN>
0

>  <NsssN>
0

>  <NddsN>
0

>  <NaasN>
0

>  <NssssN>
0

>  <NsOH>
0

>  <NdO>
0

>  <NssO>
1

>  <NaaO>
0

>  <NsF>
0

>  <NsSiH3>
0

>  <NssSiH2>
0

>  <NsssSiH>
0

>  <NssssSi>
0

>  <NsPH2>
0

>  <NssPH>
0

>  <NsssP>
0

>  <NdsssP>
0

>  <NsssssP>
0

>  <NsSH>
0

>  <NdS>
0

>  <NssS>
0

>  <NaaS>
0

>  <NdssS>
0

>  <NddssS>
0

>  <NsCl>
0

>  <NsBr>
0

>  <NsI>
0

>  <fragCpx>
14.04

>  <fMF>
0.21

>  <nHBAcc>
2

>  <nHBDon>
2

>  <Kier1>
12.07

>  <Kier2>
7.31

>  <Lipinski>
1

>  <GhoseFilter>
1

>  <FilterItLogS>
-1.97

>  <VMcGowan>
159.51

>  <LabuteASA>
83.58

>  <PEOE_VSA1>
16.2

>  <PEOE_VSA2>
4.99

>  <PEOE_VSA3>
0

>  <PEOE_VSA4>
0

>  <PEOE_VSA5>
0

>  <PEOE_VSA6>
18.2

>  <PEOE_VSA7>
12.13

>  <PEOE_VSA8>
12.97

>  <PEOE_VSA9>
6.61

>  <PEOE_VSA10>
5.75

>  <PEOE_VSA11>
5.96

>  <PEOE_VSA12>
0

>  <PEOE_VSA13>
0

>  <SMR_VSA1>
4.74

>  <SMR_VSA2>
0

>  <SMR_VSA3>
0

>  <SMR_VSA4>
16.46

>  <SMR_VSA5>
6.42

>  <SMR_VSA6>
13.15

>  <SMR_VSA7>
30.33

>  <SMR_VSA8>
0

>  <SMR_VSA9>
5.75

>  <SlogP_VSA1>
16.2

>  <SlogP_VSA2>
19.11

>  <SlogP_VSA3>
0

>  <SlogP_VSA4>
0

>  <SlogP_VSA5>
6.42

>  <SlogP_VSA6>
35.32

>  <SlogP_VSA7>
0

>  <SlogP_VSA8>
0

>  <SlogP_VSA9>
0

>  <SlogP_VSA10>
0

>  <SlogP_VSA11>
5.75

>  <EState_VSA1>
0

>  <EState_VSA2>
5.96

>  <EState_VSA3>
13.15

>  <EState_VSA4>
12.17

>  <EState_VSA5>
0

>  <EState_VSA6>
0

>  <EState_VSA7>
30.33

>  <EState_VSA8>
4.99

>  <EState_VSA9>
16.2

>  <EState_VSA10>
0

>  <VSA_EState1>
5.44

>  <VSA_EState2>
3.85

>  <VSA_EState3>
0

>  <VSA_EState4>
10.35

>  <VSA_EState5>
1

>  <VSA_EState6>
9.66

>  <VSA_EState7>
0.81

>  <VSA_EState8>
1.23

>  <VSA_EState9>
0

>  <apol>
30.8

>  <bpol>
16.78

>  <nRing>
1

>  <nHRing>
0

>  <naRing>
1

>  <naHRing>
0

>  <nARing 2>
0

>  <nAHRing 2>
0

>  <nFRing>
0

>  <nFHRing>
0

>  <nFaRing>
0

>  <nFaHRing>
0

>  <nFARing 2>
0

>  <nFAHRing 2>
0

>  <nRot>
5

>  <SLogP>
0.73

>  <SMR>
57.23

>  <TopoPSA(NO)>
73.63

>  <TopoPSA>
73.63

>  <JGI1>
0.14

>  <JGI2>
0.04

>  <JGI3>
0.02

>  <JGI4>
0.02

>  <JGI5>
0.02

>  <Diameter>
10

>  <Radius>
5

>  <TMWC10>
91.81

>  <TSRW10>
43.77

>  <MW>
193.12

>  <AMW>
6.66

>  <WPath>
388

>  <WPol>
13

>  <Zagreb1>
60

>  <Zagreb2>
62

>  <mZagreb2>
3.33

>  <yes>


>  <nAR-cont>
0.336376

>  <nHA-cont>
0.887625254

>  <MWHBN>
0.287836831

>  <MWHBN-cont>
0.875490382

>  <TPSA-cont>
0.486016879

>  <pka_cont>
0.97

>  <yes.1>


>  <BBB_SCORE>
3.994270585

>  <MMFF94 Energy>
-110.83

$$$$
Compound 1735
Actelion Java MolfileCreator 2.0

  0  0  0  0  0  0              0 V3000
M  V30 BEGIN CTAB
M  V30 COUNTS 36 36 0 0 0
M  V30 BEGIN ATOM
M  V30 1 N -1.1556 -0.3851 -2.1581 0
M  V30 2 C -0.8603 -0.8389 -3.3171 0
M  V30 3 C -1.7491 -1.2949 -1.1796 0
M  V30 4 N -0.3032 -0.0141 -4.218 0
M  V30 5 N -1.0308 -2.0773 -3.8127 0
M  V30 6 C -1.9084 -0.5856 0.1848 0
M  V30 7 N -0.6796 -0.0496 0.8235 0
M  V30 8 C -1.0431 0.7433 2.0027 0
M  V30 9 C 0.3274 -1.0931 1.0326 0
M  V30 10 C 0.0305 1.6467 2.6249 0
M  V30 11 C 1.6861 -0.6815 1.6123 0
M  V30 12 C 0.8961 2.4591 1.6615 0
M  V30 13 C 2.4159 0.472 0.917 0
M  V30 14 C 1.6173 1.7187 0.5337 0
M  V30 15 H -1.1526 -2.2066 -1.0647 0
M  V30 16 H -2.7475 -1.5965 -1.5205 0
M  V30 17 H 0.1812 -0.3438 -5.0343 0
M  V30 18 H -0.1252 0.9303 -3.901 0
M  V30 19 H -1.4539 -2.7989 -3.25 0
M  V30 20 H -0.9085 -2.2637 -4.7945 0
M  V30 21 H -2.6033 0.2484 0.0181 0
M  V30 22 H -2.4065 -1.2793 0.8751 0
M  V30 23 H -1.4504 0.0909 2.7863 0
M  V30 24 H -1.8605 1.4212 1.7206 0
M  V30 25 H 0.5608 -1.5569 0.0677 0
M  V30 26 H -0.0872 -1.8869 1.6677 0
M  V30 27 H -0.4877 2.3633 3.278 0
M  V30 28 H 0.6624 1.0858 3.316 0
M  V30 29 H 2.345 -1.5597 1.5553 0
M  V30 30 H 1.6048 -0.4982 2.6855 0
M  V30 31 H 1.6482 2.9905 2.259 0
M  V30 32 H 0.2727 3.2397 1.2064 0
M  V30 33 H 2.8646 0.0779 -0.0043 0
M  V30 34 H 3.2586 0.7736 1.5519 0
M  V30 35 H 2.3178 2.4295 0.0741 0
M  V30 36 H 0.9145 1.4812 -0.2721 0
M  V30 END ATOM
M  V30 BEGIN BOND
M  V30 1 2 1 2
M  V30 2 1 1 3
M  V30 3 1 2 4
M  V30 4 1 2 5
M  V30 5 1 3 6
M  V30 6 1 6 7
M  V30 7 1 7 8
M  V30 8 1 7 9
M  V30 9 1 8 10
M  V30 10 1 9 11
M  V30 11 1 10 12
M  V30 12 1 11 13
M  V30 13 1 12 14
M  V30 14 1 13 14
M  V30 15 1 3 15
M  V30 16 1 3 16
M  V30 17 1 4 17
M  V30 18 1 4 18
M  V30 19 1 5 19
M  V30 20 1 5 20
M  V30 21 1 6 21
M  V30 22 1 6 22
M  V30 23 1 8 23
M  V30 24 1 8 24
M  V30 25 1 9 25
M  V30 26 1 9 26
M  V30 27 1 10 27
M  V30 28 1 10 28
M  V30 29 1 11 29
M  V30 30 1 11 30
M  V30 31 1 12 31
M  V30 32 1 12 32
M  V30 33 1 13 33
M  V30 34 1 13 34
M  V30 35 1 14 35
M  V30 36 1 14 36
M  V30 END BOND
M  V30 END CTAB
M  END
>  <Column 1>
2116

>  <level_0>
2297

>  <index>
2297

>  <Unnamed: 0>
2297

>  <NO.>
2309

>  <Name>
guanethidinesulfate

>  <IUPAC_name>
2-[2-(azocan-1-yl)ethyl]guanidine

>  <SMILES>
NC(N)=NCCN1CCCCCCC1

>  <CID>
3518

>  <logBB>


>  <BBB+/BBB->
BBB-

>  <Inchi>
InChI=1S/C10H22N4/c11-10(12)13-6-9-14-7-4-2-1-3-5-8-14/h1-9H2-(H4-11-12-13)

>  <threshold>
-1

>  <reference>
R1|R13|R23|R27|R30|

>  <group>
B

>  <Class>
1

>  <ABC>
10.12

>  <ABCGG>
8.47

>  <nAcid>
0

>  <nBase>
4

>  <nAromAtom>
0

>  <nAromBond>
0

>  <nAtom>
36

>  <nHeavyAtom>
14

>  <nSpiro>
0

>  <nBridgehead>
0

>  <nHetero>
4

>  <nN>
4

>  <nO>
0

>  <nF>
0

>  <BalabanJ>
2.08

>  <BertzCT>
166.96

>  <nBonds>
36

>  <nBondsO>
14

>  <nBondsS>
35

>  <nBondsD>
1

>  <nBondsT>
0

>  <nBondsA>
0

>  <nBondsM>
1

>  <nBondsKS>
35

>  <nBondsKD>
1

>  <RNCG>
0.24

>  <RPCG>
0.12

>  <FCSP3>
0.9

>  <SZ>
18.33

>  <Sm>
16.51

>  <Sv>
18.99

>  <Sse>
35.42

>  <Sp>
21.42

>  <Si>
41.73

>  <MZ>
0.51

>  <Mm>
0.46

>  <Mv>
0.53

>  <Mse>
0.98

>  <Mp>
0.59

>  <Mi>
1.16

>  <NsCH3>
0

>  <NdCH2>
0

>  <NssCH2>
9

>  <NtCH>
0

>  <NdsCH>
0

>  <NaaCH>
0

>  <NsssCH>
0

>  <NddC>
0

>  <NtsC>
0

>  <NdssC>
1

>  <NaasC>
0

>  <NaaaC>
0

>  <NssssC>
0

>  <NsNH3>
0

>  <NsNH2>
2

>  <NssNH2>
0

>  <NdNH>
0

>  <NssNH>
0

>  <NaaNH>
0

>  <NtN>
0

>  <NsssNH>
0

>  <NdsN>
1

>  <NaaN>
0

>  <NsssN>
1

>  <NddsN>
0

>  <NaasN>
0

>  <NssssN>
0

>  <NsOH>
0

>  <NdO>
0

>  <NssO>
0

>  <NaaO>
0

>  <NsF>
0

>  <NsSiH3>
0

>  <NssSiH2>
0

>  <NsssSiH>
0

>  <NssssSi>
0

>  <NsPH2>
0

>  <NssPH>
0

>  <NsssP>
0

>  <NdsssP>
0

>  <NsssssP>
0

>  <NsSH>
0

>  <NdS>
0

>  <NssS>
0

>  <NaaS>
0

>  <NdssS>
0

>  <NddssS>
0

>  <NsCl>
0

>  <NsBr>
0

>  <NsI>
0

>  <fragCpx>
14.04

>  <fMF>
0.22

>  <nHBAcc>
2

>  <nHBDon>
2

>  <Kier1>
12.07

>  <Kier2>
7.31

>  <Lipinski>
1

>  <GhoseFilter>
1

>  <FilterItLogS>
-1.35

>  <VMcGowan>
176.52

>  <LabuteASA>
86.35

>  <PEOE_VSA1>
16.37

>  <PEOE_VSA2>
4.99

>  <PEOE_VSA3>
0

>  <PEOE_VSA4>
0

>  <PEOE_VSA5>
0

>  <PEOE_VSA6>
19.26

>  <PEOE_VSA7>
25.93

>  <PEOE_VSA8>
6.54

>  <PEOE_VSA9>
6.54

>  <PEOE_VSA10>
0

>  <PEOE_VSA11>
5.96

>  <PEOE_VSA12>
0

>  <PEOE_VSA13>
0

>  <SMR_VSA1>
0

>  <SMR_VSA2>
0

>  <SMR_VSA3>
4.9

>  <SMR_VSA4>
16.46

>  <SMR_VSA5>
32.1

>  <SMR_VSA6>
26.18

>  <SMR_VSA7>
0

>  <SMR_VSA8>
0

>  <SMR_VSA9>
0

>  <SlogP_VSA1>
11.47

>  <SlogP_VSA2>
37.04

>  <SlogP_VSA3>
0

>  <SlogP_VSA4>
0

>  <SlogP_VSA5>
32.1

>  <SlogP_VSA6>
4.99

>  <SlogP_VSA7>
0

>  <SlogP_VSA8>
0

>  <SlogP_VSA9>
0

>  <SlogP_VSA10>
0

>  <SlogP_VSA11>
0

>  <EState_VSA1>
0

>  <EState_VSA2>
5.96

>  <EState_VSA3>
0

>  <EState_VSA4>
13.09

>  <EState_VSA5>
45.19

>  <EState_VSA6>
0

>  <EState_VSA7>
0

>  <EState_VSA8>
9.89

>  <EState_VSA9>
11.47

>  <EState_VSA10>
0

>  <VSA_EState1>
0

>  <VSA_EState2>
6.47

>  <VSA_EState3>
0

>  <VSA_EState4>
10.55

>  <VSA_EState5>
0.21

>  <VSA_EState6>
0

>  <VSA_EState7>
6.79

>  <VSA_EState8>
4.15

>  <VSA_EState9>
0

>  <apol>
35.77

>  <bpol>
23.78

>  <nRing>
1

>  <nHRing>
1

>  <naRing>
0

>  <naHRing>
0

>  <nARing 2>
1

>  <nAHRing 2>
1

>  <nFRing>
0

>  <nFHRing>
0

>  <nFaRing>
0

>  <nFaHRing>
0

>  <nFARing 2>
0

>  <nFAHRing 2>
0

>  <nRot>
3

>  <SLogP>
0.53

>  <SMR>
60.2

>  <TopoPSA(NO)>
67.64

>  <TopoPSA>
67.64

>  <JGI1>
0.14

>  <JGI2>
0.04

>  <JGI3>
0.02

>  <JGI4>
0.01

>  <JGI5>
0.02

>  <Diameter>
9

>  <Radius>
5

>  <TMWC10>
91.83

>  <TSRW10>
43.57

>  <MW>
198.18

>  <AMW>
5.51

>  <WPath>
352

>  <WPol>
16

>  <Zagreb1>
60

>  <Zagreb2>
62

>  <mZagreb2>
3.33

>  <yes>


>  <nAR-cont>
0.816016

>  <nHA-cont>
0.887625254

>  <MWHBN>
0.284138497

>  <MWHBN-cont>
0.885392529

>  <TPSA-cont>
0.527830798

>  <pka_cont>
0.97

>  <yes.1>


>  <BBB_SCORE>
4.572391643

>  <MMFF94 Energy>
-90.315

$$$$
Compound 1736
Actelion Java MolfileCreator 2.0

  0  0  0  0  0  0              0 V3000
M  V30 BEGIN CTAB
M  V30 COUNTS 25 26 0 0 0
M  V30 BEGIN ATOM
M  V30 1 S 2.723 0.8003 1.6011 0
M  V30 2 C 2.0868 -0.5417 0.7088 0
M  V30 3 C 1.2786 1.676 1.3295 0
M  V30 4 N 0.8695 -0.3377 0.2352 0
M  V30 5 N 2.879 -1.6388 0.5855 0
M  V30 6 C 0.397 0.9169 0.5892 0
M  V30 7 C 2.4012 -2.6947 0.0158 0
M  V30 8 C -0.9256 1.3669 0.1673 0
M  V30 9 N 3.1736 -3.7925 -0.1116 0
M  V30 10 N 1.1785 -2.9021 -0.5136 0
M  V30 11 C -1.4918 0.8382 -1.002 0
M  V30 12 C -1.6597 2.3086 0.9033 0
M  V30 13 C -2.7562 1.2482 -1.4326 0
M  V30 14 C -2.9256 2.7175 0.4723 0
M  V30 15 C -3.4717 2.1888 -0.6954 0
M  V30 16 H 1.166 2.6808 1.7089 0
M  V30 17 H 2.9339 -4.5426 -0.7379 0
M  V30 18 H 4.1212 -3.7388 0.2365 0
M  V30 19 H 0.5198 -2.1266 -0.4585 0
M  V30 20 H 0.8142 -3.8214 -0.6953 0
M  V30 21 H -0.9435 0.1058 -1.5913 0
M  V30 22 H -1.2686 2.726 1.8274 0
M  V30 23 H -3.1796 0.8324 -2.3432 0
M  V30 24 H -3.4869 3.4461 1.0521 0
M  V30 25 H -4.4561 2.5073 -1.029 0
M  V30 END ATOM
M  V30 BEGIN BOND
M  V30 1 1 1 2
M  V30 2 1 1 3
M  V30 3 2 2 4
M  V30 4 1 2 5
M  V30 5 2 3 6
M  V30 6 2 5 7
M  V30 7 1 6 8
M  V30 8 1 7 9
M  V30 9 1 7 10
M  V30 10 2 8 11
M  V30 11 1 8 12
M  V30 12 1 11 13
M  V30 13 2 12 14
M  V30 14 2 13 15
M  V30 15 1 4 6
M  V30 16 1 14 15
M  V30 17 1 3 16
M  V30 18 1 9 17
M  V30 19 1 9 18
M  V30 20 1 10 19
M  V30 21 1 10 20
M  V30 22 1 11 21
M  V30 23 1 12 22
M  V30 24 1 13 23
M  V30 25 1 14 24
M  V30 26 1 15 25
M  V30 END BOND
M  V30 END CTAB
M  END
>  <Column 1>
2117

>  <level_0>
2298

>  <index>
2298

>  <Unnamed: 0>
2298

>  <NO.>
2310

>  <Name>
oxacillin

>  <IUPAC_name>
2-(4-phenyl-1-3-thiazol-2-yl)guanidine

>  <SMILES>
NC(N)=Nc1nc(-c2ccccc2)cs1

>  <CID>
3763607

>  <logBB>


>  <BBB+/BBB->
BBB+

>  <Inchi>
InChI=1S/C10H10N4S/c11-9(12)14-10-13-8(6-15-10)7-4-2-1-3-5-7/h1-6H-(H4-11-12-13-14)

>  <threshold>
-1

>  <reference>
R1|R1|R13|R19|R28|R9|R27|R27|R27|R30|R36|

>  <group>
B

>  <Class>
1

>  <ABC>
11.49

>  <ABCGG>
10.08

>  <nAcid>
0

>  <nBase>
3

>  <nAromAtom>
11

>  <nAromBond>
11

>  <nAtom>
25

>  <nHeavyAtom>
15

>  <nSpiro>
0

>  <nBridgehead>
0

>  <nHetero>
5

>  <nN>
4

>  <nO>
0

>  <nF>
0

>  <BalabanJ>
1.76

>  <BertzCT>
471.18

>  <nBonds>
26

>  <nBondsO>
16

>  <nBondsS>
14

>  <nBondsD>
1

>  <nBondsT>
0

>  <nBondsA>
11

>  <nBondsM>
12

>  <nBondsKS>
20

>  <nBondsKD>
6

>  <RNCG>
0.24

>  <RPCG>
0.14

>  <FCSP3>
0

>  <SZ>
19

>  <Sm>
18.17

>  <Sv>
16.93

>  <Sse>
25.17

>  <Sp>
18.36

>  <Si>
28.16

>  <MZ>
0.76

>  <Mm>
0.73

>  <Mv>
0.68

>  <Mse>
1.01

>  <Mp>
0.73

>  <Mi>
1.13

>  <NsCH3>
0

>  <NdCH2>
0

>  <NssCH2>
0

>  <NtCH>
0

>  <NdsCH>
0

>  <NaaCH>
6

>  <NsssCH>
0

>  <NddC>
0

>  <NtsC>
0

>  <NdssC>
1

>  <NaasC>
3

>  <NaaaC>
0

>  <NssssC>
0

>  <NsNH3>
0

>  <NsNH2>
2

>  <NssNH2>
0

>  <NdNH>
0

>  <NssNH>
0

>  <NaaNH>
0

>  <NtN>
0

>  <NsssNH>
0

>  <NdsN>
1

>  <NaaN>
1

>  <NsssN>
0

>  <NddsN>
0

>  <NaasN>
0

>  <NssssN>
0

>  <NsOH>
0

>  <NdO>
0

>  <NssO>
0

>  <NaaO>
0

>  <NsF>
0

>  <NsSiH3>
0

>  <NssSiH2>
0

>  <NsssSiH>
0

>  <NssssSi>
0

>  <NsPH2>
0

>  <NssPH>
0

>  <NsssP>
0

>  <NdsssP>
0

>  <NsssssP>
0

>  <NsSH>
0

>  <NdS>
0

>  <NssS>
0

>  <NaaS>
1

>  <NdssS>
0

>  <NddssS>
0

>  <NsCl>
0

>  <NsBr>
0

>  <NsI>
0

>  <fragCpx>
46.05

>  <fMF>
0.44

>  <nHBAcc>
3

>  <nHBDon>
2

>  <Kier1>
11.48

>  <Kier2>
5.37

>  <Lipinski>
1

>  <GhoseFilter>
1

>  <FilterItLogS>
-2.29

>  <VMcGowan>
160.51

>  <LabuteASA>
91.29

>  <PEOE_VSA1>
11.47

>  <PEOE_VSA2>
0

>  <PEOE_VSA3>
4.98

>  <PEOE_VSA4>
4.99

>  <PEOE_VSA5>
11.34

>  <PEOE_VSA6>
30.33

>  <PEOE_VSA7>
0

>  <PEOE_VSA8>
10.94

>  <PEOE_VSA9>
5.69

>  <PEOE_VSA10>
0

>  <PEOE_VSA11>
5.96

>  <PEOE_VSA12>
5.13

>  <PEOE_VSA13>
0

>  <SMR_VSA1>
0

>  <SMR_VSA2>
0

>  <SMR_VSA3>
4.98

>  <SMR_VSA4>
16.46

>  <SMR_VSA5>
0

>  <SMR_VSA6>
0

>  <SMR_VSA7>
35.71

>  <SMR_VSA8>
0

>  <SMR_VSA9>
11.26

>  <SlogP_VSA1>
11.47

>  <SlogP_VSA2>
10.94

>  <SlogP_VSA3>
0

>  <SlogP_VSA4>
0

>  <SlogP_VSA5>
0

>  <SlogP_VSA6>
40.7

>  <SlogP_VSA7>
0

>  <SlogP_VSA8>
11.26

>  <SlogP_VSA9>
0

>  <SlogP_VSA10>
5.13

>  <SlogP_VSA11>
0

>  <EState_VSA1>
0

>  <EState_VSA2>
5.96

>  <EState_VSA3>
5.13

>  <EState_VSA4>
11.26

>  <EState_VSA5>
11.34

>  <EState_VSA6>
0

>  <EState_VSA7>
35.71

>  <EState_VSA8>
9.98

>  <EState_VSA9>
11.47

>  <EState_VSA10>
0

>  <VSA_EState1>
0

>  <VSA_EState2>
8.18

>  <VSA_EState3>
2.51

>  <VSA_EState4>
12.48

>  <VSA_EState5>
0.03

>  <VSA_EState6>
9.89

>  <VSA_EState7>
0

>  <VSA_EState8>
0

>  <VSA_EState9>
0

>  <apol>
30.67

>  <bpol>
13.63

>  <nRing>
2

>  <nHRing>
1

>  <naRing>
2

>  <naHRing>
1

>  <nARing 2>
0

>  <nAHRing 2>
0

>  <nFRing>
0

>  <nFHRing>
0

>  <nFaRing>
0

>  <nFaHRing>
0

>  <nFARing 2>
0

>  <nFAHRing 2>
0

>  <nRot>
2

>  <SLogP>
1.72

>  <SMR>
63.02

>  <TopoPSA(NO)>
77.29

>  <TopoPSA>
105.53

>  <JGI1>
0.19

>  <JGI2>
0.05

>  <JGI3>
0.05

>  <JGI4>
0.03

>  <JGI5>
0.03

>  <Diameter>
9

>  <Radius>
5

>  <TMWC10>
99.83

>  <TSRW10>
60.06

>  <MW>
218.06

>  <AMW>
8.72

>  <WPath>
393

>  <WPol>
17

>  <Zagreb1>
74

>  <Zagreb2>
83

>  <mZagreb2>
3.36

>  <yes>


>  <nAR-cont>
0.336376

>  <nHA-cont>
0.92539861

>  <MWHBN>
0.338596138

>  <MWHBN-cont>
0.712221649

>  <TPSA-cont>
0.26333507

>  <pka_cont>
0.97

>  <yes.1>


>  <BBB_SCORE>
3.341777224

>  <MMFF94 Energy>
-99.614

$$$$
Compound 1737
Actelion Java MolfileCreator 2.0

  0  0  0  0  0  0              0 V3000
M  V30 BEGIN CTAB
M  V30 COUNTS 27 27 0 0 0
M  V30 BEGIN ATOM
M  V30 1 F -3.1496 2.9131 -3.6227 0
M  V30 2 C -2.469 2.3159 -2.6354 0
M  V30 3 C -1.3188 2.915 -2.1369 0
M  V30 4 C -2.923 1.1048 -2.127 0
M  V30 5 C -0.6092 2.293 -1.1091 0
M  V30 6 C -2.215 0.4803 -1.0992 0
M  V30 7 C -1.0545 1.0724 -0.5782 0
M  V30 8 C -0.2744 0.3914 0.5212 0
M  V30 9 C 0.8459 -0.4895 -0.043 0
M  V30 10 C 1.6506 -1.1687 1.0458 0
M  V30 11 C 2.8647 -0.7088 1.3775 0
M  V30 12 C 1.0003 -2.3671 1.6885 0
M  V30 13 F 3.411 0.3664 0.7791 0
M  V30 14 N 1.8659 -3.0957 2.6066 0
M  V30 15 H -0.9816 3.8596 -2.5511 0
M  V30 16 H -3.823 0.6557 -2.534 0
M  V30 17 H 0.2936 2.7631 -0.7241 0
M  V30 18 H -2.5738 -0.4685 -0.7071 0
M  V30 19 H -0.9635 -0.2032 1.1341 0
M  V30 20 H 0.1412 1.1537 1.1933 0
M  V30 21 H 0.4293 -1.2537 -0.7123 0
M  V30 22 H 1.5044 0.1196 -0.6766 0
M  V30 23 H 3.5249 -1.1031 2.1373 0
M  V30 24 H 0.1152 -2.0362 2.2428 0
M  V30 25 H 0.6596 -3.0608 0.9113 0
M  V30 26 H 2.5783 -3.5853 2.0658 0
M  V30 27 H 1.3215 -3.8254 3.0648 0
M  V30 END ATOM
M  V30 BEGIN BOND
M  V30 1 1 1 2
M  V30 2 2 2 3
M  V30 3 1 2 4
M  V30 4 1 3 5
M  V30 5 2 4 6
M  V30 6 2 5 7
M  V30 7 1 7 8
M  V30 8 1 8 9
M  V30 9 1 9 10
M  V30 10 2 10 11
M  V30 11 1 10 12
M  V30 12 1 11 13
M  V30 13 1 12 14
M  V30 14 1 6 7
M  V30 15 1 3 15
M  V30 16 1 4 16
M  V30 17 1 5 17
M  V30 18 1 6 18
M  V30 19 1 8 19
M  V30 20 1 8 20
M  V30 21 1 9 21
M  V30 22 1 9 22
M  V30 23 1 11 23
M  V30 24 1 12 24
M  V30 25 1 12 25
M  V30 26 1 14 26
M  V30 27 1 14 27
M  V30 END BOND
M  V30 END CTAB
M  END
>  <Column 1>
2118

>  <level_0>
2299

>  <index>
2299

>  <Unnamed: 0>
2299

>  <NO.>
2311

>  <Name>
mofegiline

>  <IUPAC_name>
(2e)-2-(fluoromethylidene)-4-(4-fluorophenyl)butan-1-amine

>  <SMILES>
NC/C(=C/F)CCc1ccc(F)cc1

>  <CID>
6437850

>  <logBB>


>  <BBB+/BBB->
BBB+

>  <Inchi>
InChI=1S/C11H13F2N/c12-7-10(8-14)2-1-9-3-5-11(13)6-4-9/h3-7H-1-2-8-14H2/b10-7+

>  <threshold>
-1

>  <reference>
R1|R13|R6|R27|R30|

>  <group>
B

>  <Class>
1

>  <ABC>
10.01

>  <ABCGG>
9.09

>  <nAcid>
0

>  <nBase>
1

>  <nAromAtom>
6

>  <nAromBond>
6

>  <nAtom>
27

>  <nHeavyAtom>
14

>  <nSpiro>
0

>  <nBridgehead>
0

>  <nHetero>
3

>  <nN>
1

>  <nO>
0

>  <nF>
2

>  <BalabanJ>
2.12

>  <BertzCT>
303.57

>  <nBonds>
27

>  <nBondsO>
14

>  <nBondsS>
20

>  <nBondsD>
1

>  <nBondsT>
0

>  <nBondsA>
6

>  <nBondsM>
7

>  <nBondsKS>
23

>  <nBondsKD>
4

>  <RNCG>
0.31

>  <RPCG>
0.12

>  <FCSP3>
0.27

>  <SZ>
17.33

>  <Sm>
16.42

>  <Sv>
16.57

>  <Sse>
27.35

>  <Sp>
17.52

>  <Si>
31.08

>  <MZ>
0.64

>  <Mm>
0.61

>  <Mv>
0.61

>  <Mse>
1.01

>  <Mp>
0.65

>  <Mi>
1.15

>  <NsCH3>
0

>  <NdCH2>
0

>  <NssCH2>
3

>  <NtCH>
0

>  <NdsCH>
1

>  <NaaCH>
4

>  <NsssCH>
0

>  <NddC>
0

>  <NtsC>
0

>  <NdssC>
1

>  <NaasC>
2

>  <NaaaC>
0

>  <NssssC>
0

>  <NsNH3>
0

>  <NsNH2>
1

>  <NssNH2>
0

>  <NdNH>
0

>  <NssNH>
0

>  <NaaNH>
0

>  <NtN>
0

>  <NsssNH>
0

>  <NdsN>
0

>  <NaaN>
0

>  <NsssN>
0

>  <NddsN>
0

>  <NaasN>
0

>  <NssssN>
0

>  <NsOH>
0

>  <NdO>
0

>  <NssO>
0

>  <NaaO>
0

>  <NsF>
2

>  <NsSiH3>
0

>  <NssSiH2>
0

>  <NsssSiH>
0

>  <NssssSi>
0

>  <NsPH2>
0

>  <NssPH>
0

>  <NsssP>
0

>  <NdsssP>
0

>  <NsssssP>
0

>  <NsSH>
0

>  <NdS>
0

>  <NssS>
0

>  <NaaS>
0

>  <NdssS>
0

>  <NddssS>
0

>  <NsCl>
0

>  <NsBr>
0

>  <NsI>
0

>  <fragCpx>
14.03

>  <fMF>
0.22

>  <nHBAcc>
1

>  <nHBDon>
1

>  <Kier1>
12.07

>  <Kier2>
6.48

>  <Lipinski>
1

>  <GhoseFilter>
1

>  <FilterItLogS>
-3.3

>  <VMcGowan>
151.29

>  <LabuteASA>
82.24

>  <PEOE_VSA1>
5.73

>  <PEOE_VSA2>
0

>  <PEOE_VSA3>
8.78

>  <PEOE_VSA4>
0

>  <PEOE_VSA5>
0

>  <PEOE_VSA6>
12.13

>  <PEOE_VSA7>
36.11

>  <PEOE_VSA8>
6.54

>  <PEOE_VSA9>
6.33

>  <PEOE_VSA10>
5.82

>  <PEOE_VSA11>
0

>  <PEOE_VSA12>
0

>  <PEOE_VSA13>
0

>  <SMR_VSA1>
8.78

>  <SMR_VSA2>
0

>  <SMR_VSA3>
0

>  <SMR_VSA4>
5.73

>  <SMR_VSA5>
12.84

>  <SMR_VSA6>
6.54

>  <SMR_VSA7>
47.55

>  <SMR_VSA8>
0

>  <SMR_VSA9>
0

>  <SlogP_VSA1>
5.73

>  <SlogP_VSA2>
6.54

>  <SlogP_VSA3>
6.42

>  <SlogP_VSA4>
5.82

>  <SlogP_VSA5>
11.98

>  <SlogP_VSA6>
36.17

>  <SlogP_VSA7>
0

>  <SlogP_VSA8>
0

>  <SlogP_VSA9>
0

>  <SlogP_VSA10>
8.78

>  <SlogP_VSA11>
0

>  <EState_VSA1>
0

>  <EState_VSA2>
12.36

>  <EState_VSA3>
24.74

>  <EState_VSA4>
5.56

>  <EState_VSA5>
12.13

>  <EState_VSA6>
12.13

>  <EState_VSA7>
0

>  <EState_VSA8>
0

>  <EState_VSA9>
5.73

>  <EState_VSA10>
8.78

>  <VSA_EState1>
24.65

>  <VSA_EState2>
0

>  <VSA_EState3>
0

>  <VSA_EState4>
6.87

>  <VSA_EState5>
-0.26

>  <VSA_EState6>
6.19

>  <VSA_EState7>
1.81

>  <VSA_EState8>
0.23

>  <VSA_EState9>
0

>  <apol>
29.25

>  <bpol>
14.7

>  <nRing>
1

>  <nHRing>
0

>  <naRing>
1

>  <naHRing>
0

>  <nARing 2>
0

>  <nAHRing 2>
0

>  <nFRing>
0

>  <nFHRing>
0

>  <nFaRing>
0

>  <nFaHRing>
0

>  <nFARing 2>
0

>  <nFAHRing 2>
0

>  <nRot>
4

>  <SLogP>
2.57

>  <SMR>
52.97

>  <TopoPSA(NO)>
26.02

>  <TopoPSA>
26.02

>  <JGI1>
0.21

>  <JGI2>
0.08

>  <JGI3>
0.02

>  <JGI4>
0.05

>  <JGI5>
0.03

>  <Diameter>
9

>  <Radius>
5

>  <TMWC10>
93.47

>  <TSRW10>
44.36

>  <MW>
197.1

>  <AMW>
7.3

>  <WPath>
349

>  <WPol>
16

>  <Zagreb1>
62

>  <Zagreb2>
67

>  <mZagreb2>
3.42

>  <yes>


>  <nAR-cont>
0.336376

>  <nHA-cont>
0.887625254

>  <MWHBN>
0.142457948

>  <MWHBN-cont>
0.911383445

>  <TPSA-cont>
0.818364243

>  <pka_cont>
0.97

>  <yes.1>


>  <BBB_SCORE>
4.712804907

>  <MMFF94 Energy>
6.0517

$$$$
Compound 1738
Actelion Java MolfileCreator 2.0

  0  0  0  0  0  0              0 V3000
M  V30 BEGIN CTAB
M  V30 COUNTS 28 30 0 0 0
M  V30 BEGIN ATOM
M  V30 1 N -0.801 2.565 -0.6408 0
M  V30 2 C -0.3852 1.2028 -0.312 0
M  V30 3 C -1.6199 0.3069 -0.0656 0
M  V30 4 C 0.4871 1.2174 0.9622 0
M  V30 5 C 0.4383 0.6138 -1.478 0
M  V30 6 C -1.1734 -1.1253 0.2797 0
M  V30 7 C 0.9388 -0.2124 1.3106 0
M  V30 8 C 0.8899 -0.8178 -1.1364 0
M  V30 9 C -0.301 -1.0918 1.5461 0
M  V30 10 C -0.3496 -1.694 -0.8879 0
M  V30 11 C 1.7513 -0.7864 0.1374 0
M  V30 12 H -1.3683 2.946 0.1156 0
M  V30 13 H -1.3999 2.5548 -1.4655 0
M  V30 14 H -2.2291 0.709 0.7546 0
M  V30 15 H -2.2633 0.286 -0.9551 0
M  V30 16 H 1.3688 1.8556 0.8167 0
M  V30 17 H -0.0723 1.6408 1.8069 0
M  V30 18 H -0.1565 0.5999 -2.4008 0
M  V30 19 H 1.3188 1.2379 -1.6799 0
M  V30 20 H -2.0532 -1.7549 0.4532 0
M  V30 21 H 1.5569 -0.1947 2.2151 0
M  V30 22 H 1.4733 -1.2294 -1.9674 0
M  V30 23 H 0.0077 -2.1095 1.8147 0
M  V30 24 H -0.8818 -0.702 2.3911 0
M  V30 25 H -0.0418 -2.7223 -0.6625 0
M  V30 26 H -0.9655 -1.7374 -1.7946 0
M  V30 27 H 2.096 -1.7987 0.381 0
M  V30 28 H 2.6474 -0.1768 -0.0312 0
M  V30 END ATOM
M  V30 BEGIN BOND
M  V30 1 1 1 2
M  V30 2 1 2 3
M  V30 3 1 2 4
M  V30 4 1 2 5
M  V30 5 1 3 6
M  V30 6 1 4 7
M  V30 7 1 5 8
M  V30 8 1 6 9
M  V30 9 1 6 10
M  V30 10 1 7 11
M  V30 11 1 7 9
M  V30 12 1 8 10
M  V30 13 1 8 11
M  V30 14 1 1 12
M  V30 15 1 1 13
M  V30 16 1 3 14
M  V30 17 1 3 15
M  V30 18 1 4 16
M  V30 19 1 4 17
M  V30 20 1 5 18
M  V30 21 1 5 19
M  V30 22 1 6 20
M  V30 23 1 7 21
M  V30 24 1 8 22
M  V30 25 1 9 23
M  V30 26 1 9 24
M  V30 27 1 10 25
M  V30 28 1 10 26
M  V30 29 1 11 27
M  V30 30 1 11 28
M  V30 END BOND
M  V30 END CTAB
M  END
>  <Column 1>
2119

>  <level_0>
2300

>  <index>
2300

>  <Unnamed: 0>
2300

>  <NO.>
2312

>  <Name>
ornidazole

>  <IUPAC_name>
adamantan-1-amine;hydron;chloride

>  <SMILES>
NC12CC3CC(CC(C3)C1)C2

>  <CID>
2130

>  <logBB>


>  <BBB+/BBB->
BBB+

>  <Inchi>
InChI=1S/C10H17N/c11-10-4-7-1-8(5-10)3-9(2-7)6-10/h7-9H-1-6-11H2

>  <threshold>
-1

>  <reference>
R1|R7|R13|R13|R19|R19|R28|R6|R9|R14|R24|R26|R27|R27|R27|R27|R27|R29|R30|R30|R34|R36|R36|

>  <group>
B

>  <Class>
1

>  <ABC>
9.35

>  <ABCGG>
7.69

>  <nAcid>
0

>  <nBase>
1

>  <nAromAtom>
0

>  <nAromBond>
0

>  <nAtom>
28

>  <nHeavyAtom>
11

>  <nSpiro>
0

>  <nBridgehead>
4

>  <nHetero>
1

>  <nN>
1

>  <nO>
0

>  <nF>
0

>  <BalabanJ>
1.94

>  <BertzCT>
150.03

>  <nBonds>
30

>  <nBondsO>
13

>  <nBondsS>
30

>  <nBondsD>
0

>  <nBondsT>
0

>  <nBondsA>
0

>  <nBondsM>
0

>  <nBondsKS>
30

>  <nBondsKD>
0

>  <RNCG>
0.48

>  <RPCG>
0.17

>  <FCSP3>
1

>  <SZ>
14

>  <Sm>
12.59

>  <Sv>
15.36

>  <Sse>
27.21

>  <Sp>
17.45

>  <Si>
31.82

>  <MZ>
0.5

>  <Mm>
0.45

>  <Mv>
0.55

>  <Mse>
0.97

>  <Mp>
0.62

>  <Mi>
1.14

>  <NsCH3>
0

>  <NdCH2>
0

>  <NssCH2>
6

>  <NtCH>
0

>  <NdsCH>
0

>  <NaaCH>
0

>  <NsssCH>
3

>  <NddC>
0

>  <NtsC>
0

>  <NdssC>
0

>  <NaasC>
0

>  <NaaaC>
0

>  <NssssC>
1

>  <NsNH3>
0

>  <NsNH2>
1

>  <NssNH2>
0

>  <NdNH>
0

>  <NssNH>
0

>  <NaaNH>
0

>  <NtN>
0

>  <NsssNH>
0

>  <NdsN>
0

>  <NaaN>
0

>  <NsssN>
0

>  <NddsN>
0

>  <NaasN>
0

>  <NssssN>
0

>  <NsOH>
0

>  <NdO>
0

>  <NssO>
0

>  <NaaO>
0

>  <NsF>
0

>  <NsSiH3>
0

>  <NssSiH2>
0

>  <NsssSiH>
0

>  <NssssSi>
0

>  <NsPH2>
0

>  <NssPH>
0

>  <NsssP>
0

>  <NdsssP>
0

>  <NsssssP>
0

>  <NsSH>
0

>  <NdS>
0

>  <NssS>
0

>  <NaaS>
0

>  <NdssS>
0

>  <NddssS>
0

>  <NsCl>
0

>  <NsBr>
0

>  <NsI>
0

>  <fragCpx>
59.01

>  <fMF>
0.36

>  <nHBAcc>
1

>  <nHBDon>
1

>  <Kier1>
6.51

>  <Kier2>
1.84

>  <Lipinski>
1

>  <GhoseFilter>
0

>  <FilterItLogS>
-1.57

>  <VMcGowan>
129.16

>  <LabuteASA>
68.35

>  <PEOE_VSA1>
5.73

>  <PEOE_VSA2>
0

>  <PEOE_VSA3>
0

>  <PEOE_VSA4>
0

>  <PEOE_VSA5>
0

>  <PEOE_VSA6>
0

>  <PEOE_VSA7>
56.28

>  <PEOE_VSA8>
5.54

>  <PEOE_VSA9>
0

>  <PEOE_VSA10>
0

>  <PEOE_VSA11>
0

>  <PEOE_VSA12>
0

>  <PEOE_VSA13>
0

>  <SMR_VSA1>
0

>  <SMR_VSA2>
0

>  <SMR_VSA3>
0

>  <SMR_VSA4>
23.49

>  <SMR_VSA5>
44.06

>  <SMR_VSA6>
0

>  <SMR_VSA7>
0

>  <SMR_VSA8>
0

>  <SMR_VSA9>
0

>  <SlogP_VSA1>
5.73

>  <SlogP_VSA2>
5.54

>  <SlogP_VSA3>
0

>  <SlogP_VSA4>
17.75

>  <SlogP_VSA5>
38.52

>  <SlogP_VSA6>
0

>  <SlogP_VSA7>
0

>  <SlogP_VSA8>
0

>  <SlogP_VSA9>
0

>  <SlogP_VSA10>
0

>  <SlogP_VSA11>
0

>  <EState_VSA1>
0

>  <EState_VSA2>
0

>  <EState_VSA3>
5.54

>  <EState_VSA4>
17.75

>  <EState_VSA5>
38.52

>  <EState_VSA6>
0

>  <EState_VSA7>
0

>  <EState_VSA8>
0

>  <EState_VSA9>
5.73

>  <EState_VSA10>
0

>  <VSA_EState1>
0

>  <VSA_EState2>
0

>  <VSA_EState3>
0

>  <VSA_EState4>
6.62

>  <VSA_EState5>
3.06

>  <VSA_EState6>
0

>  <VSA_EState7>
8.57

>  <VSA_EState8>
0

>  <VSA_EState9>
0

>  <apol>
29.14

>  <bpol>
16.48

>  <nRing>
4

>  <nHRing>
0

>  <naRing>
0

>  <naHRing>
0

>  <nARing 2>
4

>  <nAHRing 2>
0

>  <nFRing>
1

>  <nFHRing>
0

>  <nFaRing>
0

>  <nFaHRing>
0

>  <nFARing 2>
1

>  <nFAHRing 2>
0

>  <nRot>
0

>  <SLogP>
1.91

>  <SMR>
45.09

>  <TopoPSA(NO)>
26.02

>  <TopoPSA>
26.02

>  <JGI1>
0.35

>  <JGI2>
0.03

>  <JGI3>
0.09

>  <JGI4>
0.06

>  <JGI5>
0

>  <Diameter>
4

>  <Radius>
3

>  <TMWC10>
94.97

>  <TSRW10>
43.38

>  <MW>
151.14

>  <AMW>
5.4

>  <WPath>
124

>  <WPol>
15

>  <Zagreb1>
68

>  <Zagreb2>
82

>  <mZagreb2>
2.13

>  <yes>


>  <nAR-cont>
0.199399

>  <nHA-cont>
0.720786536

>  <MWHBN>
0.162682294

>  <MWHBN-cont>
0.961186794

>  <TPSA-cont>
0.818364243

>  <pka_cont>
0.97

>  <yes.1>


>  <BBB_SCORE>
4.483694212

>  <MMFF94 Energy>
16.711

$$$$
Compound 1739
Actelion Java MolfileCreator 2.0

  0  0  0  0  0  0              0 V3000
M  V30 BEGIN CTAB
M  V30 COUNTS 21 22 0 0 0
M  V30 BEGIN ATOM
M  V30 1 O -1.112 -1.112 2.3045 0
M  V30 2 C -0.6264 -1.4908 1.2496 0
M  V30 3 N 0.2354 -2.5251 1.1272 0
M  V30 4 C -0.8744 -0.9334 -0.1376 0 CFG=2
M  V30 5 C 0.5237 -2.7102 -0.1592 0
M  V30 6 O -0.1094 -1.8319 -0.9637 0
M  V30 7 C -0.4485 0.5099 -0.3057 0
M  V30 8 N 1.3025 -3.6149 -0.6103 0
M  V30 9 C -1.0909 1.5158 0.4363 0
M  V30 10 C 0.5611 0.8886 -1.2047 0
M  V30 11 C -0.7247 2.8557 0.2937 0
M  V30 12 C 0.9254 2.2296 -1.3469 0
M  V30 13 C 0.2838 3.2121 -0.5971 0
M  V30 14 H 0.5699 -3.0595 1.9092 0
M  V30 15 H -1.9304 -1.0552 -0.4023 0
M  V30 16 H 1.6806 -4.1755 0.1544 0
M  V30 17 H -1.8821 1.2625 1.1411 0
M  V30 18 H 1.0759 0.1442 -1.8101 0
M  V30 19 H -1.2277 3.621 0.8796 0
M  V30 20 H 1.7101 2.506 -2.0467 0
M  V30 21 H 0.5686 4.2549 -0.7088 0
M  V30 END ATOM
M  V30 BEGIN BOND
M  V30 1 2 1 2
M  V30 2 1 2 3
M  V30 3 1 2 4
M  V30 4 1 3 5
M  V30 5 1 4 6
M  V30 6 1 4 7
M  V30 7 2 5 8
M  V30 8 2 7 9
M  V30 9 1 7 10
M  V30 10 1 9 11
M  V30 11 2 10 12
M  V30 12 2 11 13
M  V30 13 1 5 6
M  V30 14 1 12 13
M  V30 15 1 3 14
M  V30 16 1 4 15
M  V30 17 1 8 16
M  V30 18 1 9 17
M  V30 19 1 10 18
M  V30 20 1 11 19
M  V30 21 1 12 20
M  V30 22 1 13 21
M  V30 END BOND
M  V30 BEGIN COLLECTION
M  V30 MDLV30/STERAC1 ATOMS=(1 4)
M  V30 END COLLECTION
M  V30 END CTAB
M  END
>  <Column 1>
2120

>  <level_0>
2301

>  <index>
2301

>  <Unnamed: 0>
2301

>  <NO.>
2313

>  <Name>
pemoline

>  <IUPAC_name>
2-amino-5-phenyl-1-3-oxazol-4-one

>  <SMILES>
N=C1NC(=O)C(c2ccccc2)O1

>  <CID>
4723

>  <logBB>


>  <BBB+/BBB->
BBB+

>  <Inchi>
InChI=1S/C9H8N2O2/c10-9-11-8(12)7(13-9)6-4-2-1-3-5-6/h1-5-7H-(H2-10-11-12)

>  <threshold>
-1

>  <reference>
R1|R19|R6|R14|R23|R27|R27|R30|

>  <group>
B

>  <Class>
1

>  <ABC>
10.04

>  <ABCGG>
9.17

>  <nAcid>
0

>  <nBase>
2

>  <nAromAtom>
6

>  <nAromBond>
6

>  <nAtom>
21

>  <nHeavyAtom>
13

>  <nSpiro>
0

>  <nBridgehead>
0

>  <nHetero>
4

>  <nN>
2

>  <nO>
2

>  <nF>
0

>  <BalabanJ>
1.91

>  <BertzCT>
347.89

>  <nBonds>
22

>  <nBondsO>
14

>  <nBondsS>
14

>  <nBondsD>
2

>  <nBondsT>
0

>  <nBondsA>
6

>  <nBondsM>
8

>  <nBondsKS>
17

>  <nBondsKD>
5

>  <RNCG>
0.29

>  <RPCG>
0.19

>  <FCSP3>
0.11

>  <SZ>
15.33

>  <Sm>
14.67

>  <Sv>
14.11

>  <Sse>
21.54

>  <Sp>
14.47

>  <Si>
23.66

>  <MZ>
0.73

>  <Mm>
0.7

>  <Mv>
0.67

>  <Mse>
1.03

>  <Mp>
0.69

>  <Mi>
1.13

>  <NsCH3>
0

>  <NdCH2>
0

>  <NssCH2>
0

>  <NtCH>
0

>  <NdsCH>
0

>  <NaaCH>
5

>  <NsssCH>
1

>  <NddC>
0

>  <NtsC>
0

>  <NdssC>
2

>  <NaasC>
1

>  <NaaaC>
0

>  <NssssC>
0

>  <NsNH3>
0

>  <NsNH2>
0

>  <NssNH2>
0

>  <NdNH>
1

>  <NssNH>
1

>  <NaaNH>
0

>  <NtN>
0

>  <NsssNH>
0

>  <NdsN>
0

>  <NaaN>
0

>  <NsssN>
0

>  <NddsN>
0

>  <NaasN>
0

>  <NssssN>
0

>  <NsOH>
0

>  <NdO>
1

>  <NssO>
1

>  <NaaO>
0

>  <NsF>
0

>  <NsSiH3>
0

>  <NssSiH2>
0

>  <NsssSiH>
0

>  <NssssSi>
0

>  <NsPH2>
0

>  <NssPH>
0

>  <NsssP>
0

>  <NdsssP>
0

>  <NsssssP>
0

>  <NsSH>
0

>  <NdS>
0

>  <NssS>
0

>  <NaaS>
0

>  <NdssS>
0

>  <NddssS>
0

>  <NsCl>
0

>  <NsBr>
0

>  <NsI>
0

>  <fragCpx>
40.04

>  <fMF>
0.52

>  <nHBAcc>
3

>  <nHBDon>
2

>  <Kier1>
9.55

>  <Kier2>
4.02

>  <Lipinski>
1

>  <GhoseFilter>
1

>  <FilterItLogS>
-1.95

>  <VMcGowan>
126.15

>  <LabuteASA>
75.03

>  <PEOE_VSA1>
4.74

>  <PEOE_VSA2>
15.52

>  <PEOE_VSA3>
0

>  <PEOE_VSA4>
0

>  <PEOE_VSA5>
0

>  <PEOE_VSA6>
30.33

>  <PEOE_VSA7>
0

>  <PEOE_VSA8>
5.56

>  <PEOE_VSA9>
0

>  <PEOE_VSA10>
0

>  <PEOE_VSA11>
0

>  <PEOE_VSA12>
6.1

>  <PEOE_VSA13>
11.93

>  <SMR_VSA1>
9.53

>  <SMR_VSA2>
5.41

>  <SMR_VSA3>
5.32

>  <SMR_VSA4>
0

>  <SMR_VSA5>
6.1

>  <SMR_VSA6>
0

>  <SMR_VSA7>
35.9

>  <SMR_VSA8>
0

>  <SMR_VSA9>
0

>  <SlogP_VSA1>
5.32

>  <SlogP_VSA2>
11.93

>  <SlogP_VSA3>
9.53

>  <SlogP_VSA4>
5.41

>  <SlogP_VSA5>
11.67

>  <SlogP_VSA6>
30.33

>  <SlogP_VSA7>
0

>  <SlogP_VSA8>
0

>  <SlogP_VSA9>
0

>  <SlogP_VSA10>
0

>  <SlogP_VSA11>
0

>  <EState_VSA1>
6.1

>  <EState_VSA2>
11.93

>  <EState_VSA3>
0

>  <EState_VSA4>
5.56

>  <EState_VSA5>
0

>  <EState_VSA6>
12.13

>  <EState_VSA7>
18.2

>  <EState_VSA8>
5.32

>  <EState_VSA9>
10.15

>  <EState_VSA10>
4.79

>  <VSA_EState1>
4.98

>  <VSA_EState2>
11.21

>  <VSA_EState3>
9.39

>  <VSA_EState4>
0.77

>  <VSA_EState5>
-0.28

>  <VSA_EState6>
8.92

>  <VSA_EState7>
-0.66

>  <VSA_EState8>
0

>  <VSA_EState9>
0

>  <apol>
24.17

>  <bpol>
11.2

>  <nRing>
2

>  <nHRing>
1

>  <naRing>
1

>  <naHRing>
0

>  <nARing 2>
1

>  <nAHRing 2>
1

>  <nFRing>
0

>  <nFHRing>
0

>  <nFaRing>
0

>  <nFaHRing>
0

>  <nFARing 2>
0

>  <nFAHRing 2>
0

>  <nRot>
1

>  <SLogP>
0.81

>  <SMR>
46.14

>  <TopoPSA(NO)>
62.18

>  <TopoPSA>
62.18

>  <JGI1>
0.18

>  <JGI2>
0.07

>  <JGI3>
0.07

>  <JGI4>
0.03

>  <JGI5>
0.03

>  <Diameter>
7

>  <Radius>
4

>  <TMWC10>
95.54

>  <TSRW10>
58.06

>  <MW>
176.06

>  <AMW>
8.38

>  <WPath>
239

>  <WPol>
16

>  <Zagreb1>
66

>  <Zagreb2>
76

>  <mZagreb2>
2.89

>  <yes>


>  <nAR-cont>
0.816016

>  <nHA-cont>
0.841215992

>  <MWHBN>
0.376824955

>  <MWHBN-cont>
0.567248107

>  <TPSA-cont>
0.565944989

>  <pka_cont>
0.97

>  <yes.1>


>  <BBB_SCORE>
4.12499413

>  <MMFF94 Energy>
-35.079

$$$$
Compound 1740
Actelion Java MolfileCreator 2.0

  0  0  0  0  0  0              0 V3000
M  V30 BEGIN CTAB
M  V30 COUNTS 25 25 0 0 0
M  V30 BEGIN ATOM
M  V30 1 F 0.598 0.2562 -3.592 0
M  V30 2 C 0.3808 1.0074 -2.4952 0
M  V30 3 F -0.2807 2.1238 -2.8753 0
M  V30 4 F 1.5977 1.4287 -2.0501 0
M  V30 5 C -0.3517 0.2519 -1.3442 0
M  V30 6 N 0.4064 -0.9937 -0.9898 0
M  V30 7 N -0.4685 1.084 -0.0782 0
M  V30 8 C -1.7211 -0.1127 -1.9945 0
M  V30 9 C 0.5716 -1.0007 0.2946 0
M  V30 10 C 0.0304 0.1907 1.045 0
M  V30 11 F -2.4401 0.9866 -2.3189 0
M  V30 12 F -2.4834 -0.8331 -1.1323 0
M  V30 13 F -1.591 -0.8576 -3.1138 0
M  V30 14 N 1.2138 -2.0524 0.8654 0
M  V30 15 C 1.1437 0.803 1.8833 0
M  V30 16 C -1.0204 -0.2771 2.041 0
M  V30 17 F 2.1421 1.251 1.0794 0
M  V30 18 F 1.6971 -0.0609 2.7598 0
M  V30 19 F 0.7152 1.8771 2.5831 0
M  V30 20 F -1.5561 0.7563 2.7295 0
M  V30 21 F -0.5187 -1.1433 2.9518 0
M  V30 22 F -2.046 -0.9096 1.4262 0
M  V30 23 H 0.1952 1.8626 -0.1768 0
M  V30 24 H 1.384 -2.159 1.8625 0
M  V30 25 H 1.5336 -2.8063 0.2637 0
M  V30 END ATOM
M  V30 BEGIN BOND
M  V30 1 1 1 2
M  V30 2 1 2 3
M  V30 3 1 2 4
M  V30 4 1 2 5
M  V30 5 1 5 6
M  V30 6 1 5 7
M  V30 7 1 5 8
M  V30 8 2 6 9
M  V30 9 1 7 10
M  V30 10 1 8 11
M  V30 11 1 8 12
M  V30 12 1 8 13
M  V30 13 1 9 14
M  V30 14 1 10 15
M  V30 15 1 10 16
M  V30 16 1 15 17
M  V30 17 1 15 18
M  V30 18 1 15 19
M  V30 19 1 16 20
M  V30 20 1 16 21
M  V30 21 1 16 22
M  V30 22 1 9 10
M  V30 23 1 7 23
M  V30 24 1 14 24
M  V30 25 1 14 25
M  V30 END BOND
M  V30 END CTAB
M  END
>  <Column 1>
2121

>  <level_0>
2302

>  <index>
2302

>  <Unnamed: 0>
2302

>  <NO.>
2314

>  <Name>
midaflur

>  <IUPAC_name>
2-2-5-5-tetrakis(trifluoromethyl)-1h-imidazol-4-amine

>  <SMILES>
NC1=NC(C(F)(F)F)(C(F)(F)F)NC1(C(F)(F)F)C(F)(F)F

>  <CID>
32068

>  <logBB>


>  <BBB+/BBB->
BBB+

>  <Inchi>
InChI=1S/C7H3F12N3/c8-4(9-10)2(5(11-12)13)1(20)21-3(22-2-6(14-15)16)7(17-18)19/h22H-(H2-20-21)

>  <threshold>
-1

>  <reference>
R1|R13|R19|R6|R24|R27|R27|R27|R30|R30|

>  <group>
B

>  <Class>
1

>  <ABC>
17.13

>  <ABCGG>
17.26

>  <nAcid>
0

>  <nBase>
3

>  <nAromAtom>
0

>  <nAromBond>
0

>  <nAtom>
25

>  <nHeavyAtom>
22

>  <nSpiro>
0

>  <nBridgehead>
0

>  <nHetero>
15

>  <nN>
3

>  <nO>
0

>  <nF>
12

>  <BalabanJ>
3.64

>  <BertzCT>
448.91

>  <nBonds>
25

>  <nBondsO>
22

>  <nBondsS>
24

>  <nBondsD>
1

>  <nBondsT>
0

>  <nBondsA>
0

>  <nBondsM>
1

>  <nBondsKS>
24

>  <nBondsKD>
1

>  <RNCG>
0.13

>  <RPCG>
0.15

>  <FCSP3>
0.86

>  <SZ>
29

>  <Sm>
29.73

>  <Sv>
17.85

>  <Sse>
30.8

>  <Sp>
14.18

>  <Si>
33.06

>  <MZ>
1.16

>  <Mm>
1.19

>  <Mv>
0.71

>  <Mse>
1.23

>  <Mp>
0.57

>  <Mi>
1.32

>  <NsCH3>
0

>  <NdCH2>
0

>  <NssCH2>
0

>  <NtCH>
0

>  <NdsCH>
0

>  <NaaCH>
0

>  <NsssCH>
0

>  <NddC>
0

>  <NtsC>
0

>  <NdssC>
1

>  <NaasC>
0

>  <NaaaC>
0

>  <NssssC>
6

>  <NsNH3>
0

>  <NsNH2>
1

>  <NssNH2>
0

>  <NdNH>
0

>  <NssNH>
1

>  <NaaNH>
0

>  <NtN>
0

>  <NsssNH>
0

>  <NdsN>
1

>  <NaaN>
0

>  <NsssN>
0

>  <NddsN>
0

>  <NaasN>
0

>  <NssssN>
0

>  <NsOH>
0

>  <NdO>
0

>  <NssO>
0

>  <NaaO>
0

>  <NsF>
12

>  <NsSiH3>
0

>  <NssSiH2>
0

>  <NsssSiH>
0

>  <NssssSi>
0

>  <NsPH2>
0

>  <NssPH>
0

>  <NsssP>
0

>  <NdsssP>
0

>  <NsssssP>
0

>  <NsSH>
0

>  <NdS>
0

>  <NssS>
0

>  <NaaS>
0

>  <NdssS>
0

>  <NddssS>
0

>  <NsCl>
0

>  <NsBr>
0

>  <NsI>
0

>  <fragCpx>
22.15

>  <fMF>
0.2

>  <nHBAcc>
3

>  <nHBDon>
2

>  <Kier1>
20.05

>  <Kier2>
5

>  <Lipinski>
1

>  <GhoseFilter>
1

>  <FilterItLogS>
-3.92

>  <VMcGowan>
145.39

>  <LabuteASA>
111.69

>  <PEOE_VSA1>
5.73

>  <PEOE_VSA2>
0

>  <PEOE_VSA3>
10.31

>  <PEOE_VSA4>
52.68

>  <PEOE_VSA5>
0

>  <PEOE_VSA6>
0

>  <PEOE_VSA7>
0

>  <PEOE_VSA8>
0

>  <PEOE_VSA9>
0

>  <PEOE_VSA10>
5.84

>  <PEOE_VSA11>
0

>  <PEOE_VSA12>
0

>  <PEOE_VSA13>
5.54

>  <SMR_VSA1>
52.68

>  <SMR_VSA2>
0

>  <SMR_VSA3>
5.32

>  <SMR_VSA4>
10.73

>  <SMR_VSA5>
35.91

>  <SMR_VSA6>
0

>  <SMR_VSA7>
0

>  <SMR_VSA8>
0

>  <SMR_VSA9>
0

>  <SlogP_VSA1>
11.05

>  <SlogP_VSA2>
41.74

>  <SlogP_VSA3>
0

>  <SlogP_VSA4>
0

>  <SlogP_VSA5>
0

>  <SlogP_VSA6>
4.99

>  <SlogP_VSA7>
0

>  <SlogP_VSA8>
0

>  <SlogP_VSA9>
0

>  <SlogP_VSA10>
52.68

>  <SlogP_VSA11>
0

>  <EState_VSA1>
47.06

>  <EState_VSA2>
0

>  <EState_VSA3>
0

>  <EState_VSA4>
0

>  <EState_VSA5>
4.99

>  <EState_VSA6>
0

>  <EState_VSA7>
0

>  <EState_VSA8>
5.73

>  <EState_VSA9>
0

>  <EState_VSA10>
52.68

>  <VSA_EState1>
150.77

>  <VSA_EState2>
1.44

>  <VSA_EState3>
-0.5

>  <VSA_EState4>
-7.42

>  <VSA_EState5>
-2.94

>  <VSA_EState6>
0

>  <VSA_EState7>
-26.68

>  <VSA_EState8>
0

>  <VSA_EState9>
0

>  <apol>
23.67

>  <bpol>
17.51

>  <nRing>
1

>  <nHRing>
1

>  <naRing>
0

>  <naHRing>
0

>  <nARing 2>
1

>  <nAHRing 2>
1

>  <nFRing>
0

>  <nFHRing>
0

>  <nFaRing>
0

>  <nFaHRing>
0

>  <nFARing 2>
0

>  <nFAHRing 2>
0

>  <nRot>
0

>  <SLogP>
2.63

>  <SMR>
44.44

>  <TopoPSA(NO)>
50.41

>  <TopoPSA>
50.41

>  <JGI1>
0.52

>  <JGI2>
0.16

>  <JGI3>
0.11

>  <JGI4>
0.05

>  <JGI5>
0.07

>  <Diameter>
6

>  <Radius>
3

>  <TMWC10>
122.61

>  <TSRW10>
72.42

>  <MW>
357.01

>  <AMW>
14.28

>  <WPath>
830

>  <WPol>
48

>  <Zagreb1>
126

>  <Zagreb2>
157

>  <mZagreb2>
4.21

>  <yes>


>  <nAR-cont>
0.816016

>  <nHA-cont>
0.983774276

>  <MWHBN>
0.264624356

>  <MWHBN-cont>
0.931917354

>  <TPSA-cont>
0.648106897

>  <pka_cont>
0.97

>  <yes.1>


>  <BBB_SCORE>
4.978880101

>  <MMFF94 Energy>
197.64

$$$$
Compound 1741
Actelion Java MolfileCreator 2.0

  0  0  0  0  0  0              0 V3000
M  V30 BEGIN CTAB
M  V30 COUNTS 27 28 0 0 0
M  V30 BEGIN ATOM
M  V30 1 N -1.4978 -0.7881 -2.5237 0
M  V30 2 C -0.6321 -0.0484 -1.5943 0
M  V30 3 C -0.5865 -0.6981 -0.1904 0
M  V30 4 C 0.8226 -0.1377 -2.0607 0
M  V30 5 C -0.2599 0.3221 0.8913 0
M  V30 6 C 0.415 -1.8546 -0.3588 0
M  V30 7 C 1.3533 -1.4568 -1.5026 0
M  V30 8 C -1.312 1.0828 1.4317 0
M  V30 9 C 1.0385 0.5627 1.3625 0
M  V30 10 C -1.0746 2.0433 2.417 0
M  V30 11 C 1.2757 1.5243 2.3488 0
M  V30 12 C 0.2201 2.263 2.8767 0
M  V30 13 H -2.4496 -0.8033 -2.1593 0
M  V30 14 H -1.2023 -1.7608 -2.5897 0
M  V30 15 H -0.9699 0.9931 -1.5718 0
M  V30 16 H -1.5614 -1.1312 0.0735 0
M  V30 17 H 0.9328 -0.0809 -3.1491 0
M  V30 18 H 1.3985 0.6967 -1.642 0
M  V30 19 H 0.9595 -2.1071 0.5564 0
M  V30 20 H -0.1259 -2.7626 -0.6554 0
M  V30 21 H 2.3859 -1.3458 -1.1559 0
M  V30 22 H 1.3522 -2.2335 -2.2756 0
M  V30 23 H -2.3321 0.9313 1.084 0
M  V30 24 H 1.8903 0.0147 0.9695 0
M  V30 25 H -1.9012 2.6202 2.8233 0
M  V30 26 H 2.2887 1.6977 2.7029 0
M  V30 27 H 0.4073 3.0106 3.6427 0
M  V30 END ATOM
M  V30 BEGIN BOND
M  V30 1 1 1 2
M  V30 2 1 2 3
M  V30 3 1 2 4
M  V30 4 1 3 5
M  V30 5 1 3 6
M  V30 6 1 4 7
M  V30 7 2 5 8
M  V30 8 1 5 9
M  V30 9 1 8 10
M  V30 10 2 9 11
M  V30 11 2 10 12
M  V30 12 1 6 7
M  V30 13 1 11 12
M  V30 14 1 1 13
M  V30 15 1 1 14
M  V30 16 1 2 15
M  V30 17 1 3 16
M  V30 18 1 4 17
M  V30 19 1 4 18
M  V30 20 1 6 19
M  V30 21 1 6 20
M  V30 22 1 7 21
M  V30 23 1 7 22
M  V30 24 1 8 23
M  V30 25 1 9 24
M  V30 26 1 10 25
M  V30 27 1 11 26
M  V30 28 1 12 27
M  V30 END BOND
M  V30 END CTAB
M  END
>  <Column 1>
2122

>  <level_0>
2303

>  <index>
2303

>  <Unnamed: 0>
2303

>  <NO.>
2315

>  <Name>
2-phenylcyclopentanamine

>  <IUPAC_name>
2-phenylcyclopentan-1-amine

>  <SMILES>
NC1CCCC1c1ccccc1

>  <CID>
21786

>  <logBB>


>  <BBB+/BBB->
BBB+

>  <Inchi>
InChI=1S/C11H15N/c12-11-8-4-7-10(11)9-5-2-1-3-6-9/h1-3-5-6-10-11H-4-7-8-12H2

>  <threshold>
-1

>  <reference>
R1|R19|R6|R27|R27|R30|

>  <group>
B

>  <Class>
1

>  <ABC>
9.22

>  <ABCGG>
8.57

>  <nAcid>
0

>  <nBase>
1

>  <nAromAtom>
6

>  <nAromBond>
6

>  <nAtom>
27

>  <nHeavyAtom>
12

>  <nSpiro>
0

>  <nBridgehead>
0

>  <nHetero>
1

>  <nN>
1

>  <nO>
0

>  <nF>
0

>  <BalabanJ>
1.89

>  <BertzCT>
242.44

>  <nBonds>
28

>  <nBondsO>
13

>  <nBondsS>
22

>  <nBondsD>
0

>  <nBondsT>
0

>  <nBondsA>
6

>  <nBondsM>
6

>  <nBondsKS>
25

>  <nBondsKD>
3

>  <RNCG>
0.4

>  <RPCG>
0.15

>  <FCSP3>
0.45

>  <SZ>
14.67

>  <Sm>
13.43

>  <Sv>
15.82

>  <Sse>
26.32

>  <Sp>
17.65

>  <Si>
30.41

>  <MZ>
0.54

>  <Mm>
0.5

>  <Mv>
0.59

>  <Mse>
0.97

>  <Mp>
0.65

>  <Mi>
1.13

>  <NsCH3>
0

>  <NdCH2>
0

>  <NssCH2>
3

>  <NtCH>
0

>  <NdsCH>
0

>  <NaaCH>
5

>  <NsssCH>
2

>  <NddC>
0

>  <NtsC>
0

>  <NdssC>
0

>  <NaasC>
1

>  <NaaaC>
0

>  <NssssC>
0

>  <NsNH3>
0

>  <NsNH2>
1

>  <NssNH2>
0

>  <NdNH>
0

>  <NssNH>
0

>  <NaaNH>
0

>  <NtN>
0

>  <NsssNH>
0

>  <NdsN>
0

>  <NaaN>
0

>  <NsssN>
0

>  <NddsN>
0

>  <NaasN>
0

>  <NssssN>
0

>  <NsOH>
0

>  <NdO>
0

>  <NssO>
0

>  <NaaO>
0

>  <NsF>
0

>  <NsSiH3>
0

>  <NssSiH2>
0

>  <NsssSiH>
0

>  <NssssSi>
0

>  <NsPH2>
0

>  <NssPH>
0

>  <NsssP>
0

>  <NdsssP>
0

>  <NsssssP>
0

>  <NsSH>
0

>  <NdS>
0

>  <NssS>
0

>  <NaaS>
0

>  <NdssS>
0

>  <NddssS>
0

>  <NsCl>
0

>  <NsBr>
0

>  <NsI>
0

>  <fragCpx>
37.01

>  <fMF>
0.41

>  <nHBAcc>
1

>  <nHBDon>
1

>  <Kier1>
8.59

>  <Kier2>
3.81

>  <Lipinski>
1

>  <GhoseFilter>
1

>  <FilterItLogS>
-2.2

>  <VMcGowan>
141.21

>  <LabuteASA>
73.59

>  <PEOE_VSA1>
5.73

>  <PEOE_VSA2>
0

>  <PEOE_VSA3>
0

>  <PEOE_VSA4>
0

>  <PEOE_VSA5>
0

>  <PEOE_VSA6>
36.75

>  <PEOE_VSA7>
24.32

>  <PEOE_VSA8>
6.04

>  <PEOE_VSA9>
0

>  <PEOE_VSA10>
0

>  <PEOE_VSA11>
0

>  <PEOE_VSA12>
0

>  <PEOE_VSA13>
0

>  <SMR_VSA1>
0

>  <SMR_VSA2>
0

>  <SMR_VSA3>
0

>  <SMR_VSA4>
5.73

>  <SMR_VSA5>
31.22

>  <SMR_VSA6>
0

>  <SMR_VSA7>
35.9

>  <SMR_VSA8>
0

>  <SMR_VSA9>
0

>  <SlogP_VSA1>
5.73

>  <SlogP_VSA2>
6.04

>  <SlogP_VSA3>
0

>  <SlogP_VSA4>
0

>  <SlogP_VSA5>
30.74

>  <SlogP_VSA6>
30.33

>  <SlogP_VSA7>
0

>  <SlogP_VSA8>
0

>  <SlogP_VSA9>
0

>  <SlogP_VSA10>
0

>  <SlogP_VSA11>
0

>  <EState_VSA1>
0

>  <EState_VSA2>
0

>  <EState_VSA3>
11.96

>  <EState_VSA4>
0

>  <EState_VSA5>
24.83

>  <EState_VSA6>
0

>  <EState_VSA7>
0

>  <EState_VSA8>
30.33

>  <EState_VSA9>
5.73

>  <EState_VSA10>
0

>  <VSA_EState1>
0

>  <VSA_EState2>
0

>  <VSA_EState3>
0

>  <VSA_EState4>
7.43

>  <VSA_EState5>
0.62

>  <VSA_EState6>
11.03

>  <VSA_EState7>
3.76

>  <VSA_EState8>
0

>  <VSA_EState9>
0

>  <apol>
29.47

>  <bpol>
14.48

>  <nRing>
2

>  <nHRing>
0

>  <naRing>
1

>  <naHRing>
0

>  <nARing 2>
1

>  <nAHRing 2>
0

>  <nFRing>
0

>  <nFHRing>
0

>  <nFaRing>
0

>  <nFaHRing>
0

>  <nFARing 2>
0

>  <nFAHRing 2>
0

>  <nRot>
1

>  <SLogP>
2.28

>  <SMR>
51.01

>  <TopoPSA(NO)>
26.02

>  <TopoPSA>
26.02

>  <JGI1>
0.12

>  <JGI2>
0.08

>  <JGI3>
0.05

>  <JGI4>
0.03

>  <JGI5>
0.02

>  <Diameter>
6

>  <Radius>
3

>  <TMWC10>
92.28

>  <TSRW10>
56.16

>  <MW>
161.12

>  <AMW>
5.97

>  <WPath>
191

>  <WPol>
14

>  <Zagreb1>
60

>  <Zagreb2>
69

>  <mZagreb2>
2.72

>  <yes>


>  <nAR-cont>
0.816016

>  <nHA-cont>
0.785745021

>  <MWHBN>
0.157563373

>  <MWHBN-cont>
0.950627854

>  <TPSA-cont>
0.818364243

>  <pka_cont>
0.97

>  <yes.1>


>  <BBB_SCORE>
5.149431287

>  <MMFF94 Energy>
41.428

$$$$
Compound 1742
Actelion Java MolfileCreator 2.0

  0  0  0  0  0  0              0 V3000
M  V30 BEGIN CTAB
M  V30 COUNTS 45 49 0 0 0
M  V30 BEGIN ATOM
M  V30 1 F 3.6697 -1.5482 0.2443 0
M  V30 2 C 2.3987 -1.2615 0.5661 0
M  V30 3 C 1.545 -0.608 -0.3287 0
M  V30 4 C 1.9447 -1.6454 1.8193 0
M  V30 5 N 0.2629 -0.3473 0.0355 0
M  V30 6 N 1.9297 -0.2014 -1.5793 0
M  V30 7 C 0.6288 -1.3594 2.1743 0
M  V30 8 C -0.1966 -0.6901 1.2689 0
M  V30 9 C 3.2549 -0.3955 -2.157 0
M  V30 10 C 0.9756 0.4401 -2.4778 0
M  V30 11 C 0.1076 -1.8005 3.4857 0
M  V30 12 N -1.5557 -0.4042 1.6316 0
M  V30 13 C 3.1689 0.254 -3.505 0 CFG=1
M  V30 14 C 1.7794 0.7687 -3.6997 0 CFG=2
M  V30 15 O 0.8264 -2.4584 4.2288 0
M  V30 16 C -1.2936 -1.4614 3.8153 0
M  V30 17 C -2.4347 0.3148 0.7617 0
M  V30 18 C -2.008 -0.819 2.8789 0
M  V30 19 C 2.9403 1.7293 -3.7071 0
M  V30 20 C -1.9627 -1.7673 5.0856 0
M  V30 21 C -2.0881 1.5768 0.2409 0
M  V30 22 C -3.685 -0.2248 0.4054 0
M  V30 23 N 3.1556 2.6847 -2.6237 0
M  V30 24 O -3.1659 -1.9072 5.2338 0
M  V30 25 O -1.1268 -1.82 6.131 0
M  V30 26 F -0.941 2.1699 0.6076 0
M  V30 27 C -2.9368 2.2719 -0.6149 0
M  V30 28 C -4.5404 0.469 -0.4549 0
M  V30 29 C -4.1558 1.7072 -0.9578 0
M  V30 30 F -4.9802 2.3676 -1.781 0
M  V30 31 H 2.615 -2.1652 2.4971 0
M  V30 32 H 3.4728 -1.463 -2.2706 0
M  V30 33 H 4.0378 0.0763 -1.5539 0
M  V30 34 H 0.1645 -0.2498 -2.7372 0
M  V30 35 H 0.55 1.3515 -2.0429 0
M  V30 36 H 3.6485 -0.3097 -4.2915 0
M  V30 37 H 1.2619 0.5689 -4.6265 0
M  V30 38 H -3.0404 -0.5367 3.0843 0
M  V30 39 H 3.2297 2.1179 -4.6826 0
M  V30 40 H -3.9877 -1.2017 0.7757 0
M  V30 41 H 2.8734 2.2875 -1.7244 0
M  V30 42 H 2.5716 3.5114 -2.7482 0
M  V30 43 H -1.6878 -2.04 6.9024 0
M  V30 44 H -2.6519 3.2442 -0.9985 0
M  V30 45 H -5.5006 0.0487 -0.7393 0
M  V30 END ATOM
M  V30 BEGIN BOND
M  V30 1 1 1 2
M  V30 2 2 2 3
M  V30 3 1 2 4
M  V30 4 1 3 5
M  V30 5 1 3 6
M  V30 6 2 4 7
M  V30 7 2 5 8
M  V30 8 1 6 9
M  V30 9 1 6 10
M  V30 10 1 7 11
M  V30 11 1 8 12
M  V30 12 1 9 13
M  V30 13 1 10 14
M  V30 14 2 11 15
M  V30 15 1 11 16
M  V30 16 1 12 17
M  V30 17 1 12 18
M  V30 18 1 13 19
M  V30 19 1 16 20
M  V30 20 2 17 21
M  V30 21 1 17 22
M  V30 22 1 19 23
M  V30 23 2 20 24
M  V30 24 1 20 25
M  V30 25 1 21 26
M  V30 26 1 21 27
M  V30 27 2 22 28
M  V30 28 2 27 29
M  V30 29 1 29 30
M  V30 30 1 7 8
M  V30 31 1 13 14
M  V30 32 1 14 19
M  V30 33 2 16 18
M  V30 34 1 28 29
M  V30 35 1 4 31
M  V30 36 1 9 32
M  V30 37 1 9 33
M  V30 38 1 10 34
M  V30 39 1 10 35
M  V30 40 1 13 36
M  V30 41 1 14 37
M  V30 42 1 18 38
M  V30 43 1 19 39
M  V30 44 1 22 40
M  V30 45 1 23 41
M  V30 46 1 23 42
M  V30 47 1 25 43
M  V30 48 1 27 44
M  V30 49 1 28 45
M  V30 END BOND
M  V30 BEGIN COLLECTION
M  V30 MDLV30/STEABS ATOMS=(2 13 14)
M  V30 END COLLECTION
M  V30 END CTAB
M  END
>  <Column 1>
2124

>  <level_0>
2305

>  <index>
2305

>  <Unnamed: 0>
2305

>  <NO.>
2317

>  <Name>
trovafloxacin

>  <IUPAC_name>
7-[(1r-5s)-6-amino-3-azabicyclo[3.1.0]hexan-3-yl]-1-(2-4-difluorophenyl)-6-fluoro-4-oxo-1-8-naphthyridine-3-carboxylic acid

>  <SMILES>
NC1[C@@H]2CN(c3nc4c(cc3F)c(=O)c(C(=O)O)cn4-c3ccc(F)cc3F)C[C@H]12

>  <CID>
62959

>  <logBB>


>  <BBB+/BBB->
BBB+

>  <Inchi>
InChI=1S/C20H15F3N4O3/c21-8-1-2-15(13(22)3-8)27-7-12(20(29)30)17(28)9-4-14(23)19(25-18(9)27)26-5-10-11(6-26)16(10)24/h1-4-7-10-11-16H-5-6-24H2-(H-29-30)/t10--11+-16?

>  <threshold>
-1

>  <reference>
R1|R27|R27|R30|

>  <group>
B

>  <Class>
-1

>  <ABC>
24.32

>  <ABCGG>
19.63

>  <nAcid>
1

>  <nBase>
1

>  <nAromAtom>
16

>  <nAromBond>
17

>  <nAtom>
45

>  <nHeavyAtom>
30

>  <nSpiro>
0

>  <nBridgehead>
0

>  <nHetero>
10

>  <nN>
4

>  <nO>
3

>  <nF>
3

>  <BalabanJ>
1.38

>  <BertzCT>
1280.51

>  <nBonds>
49

>  <nBondsO>
34

>  <nBondsS>
30

>  <nBondsD>
2

>  <nBondsT>
0

>  <nBondsA>
17

>  <nBondsM>
19

>  <nBondsKS>
40

>  <nBondsKD>
9

>  <RNCG>
0.17

>  <RPCG>
0.12

>  <FCSP3>
0.25

>  <SZ>
35.67

>  <Sm>
34.66

>  <Sv>
31.18

>  <Sse>
47.17

>  <Sp>
31.07

>  <Si>
51.55

>  <MZ>
0.79

>  <Mm>
0.77

>  <Mv>
0.69

>  <Mse>
1.05

>  <Mp>
0.69

>  <Mi>
1.15

>  <NsCH3>
0

>  <NdCH2>
0

>  <NssCH2>
2

>  <NtCH>
0

>  <NdsCH>
0

>  <NaaCH>
5

>  <NsssCH>
3

>  <NddC>
0

>  <NtsC>
0

>  <NdssC>
1

>  <NaasC>
6

>  <NaaaC>
2

>  <NssssC>
0

>  <NsNH3>
0

>  <NsNH2>
1

>  <NssNH2>
0

>  <NdNH>
0

>  <NssNH>
0

>  <NaaNH>
0

>  <NtN>
0

>  <NsssNH>
0

>  <NdsN>
0

>  <NaaN>
1

>  <NsssN>
1

>  <NddsN>
0

>  <NaasN>
1

>  <NssssN>
0

>  <NsOH>
1

>  <NdO>
2

>  <NssO>
0

>  <NaaO>
0

>  <NsF>
3

>  <NsSiH3>
0

>  <NssSiH2>
0

>  <NsssSiH>
0

>  <NssssSi>
0

>  <NsPH2>
0

>  <NssPH>
0

>  <NsssP>
0

>  <NdsssP>
0

>  <NsssssP>
0

>  <NsSH>
0

>  <NdS>
0

>  <NssS>
0

>  <NaaS>
0

>  <NdssS>
0

>  <NddssS>
0

>  <NsCl>
0

>  <NsBr>
0

>  <NsI>
0

>  <fragCpx>
286.1

>  <fMF>
0.49

>  <nHBAcc>
6

>  <nHBDon>
2

>  <Kier1>
21.83

>  <Kier2>
8.09

>  <Lipinski>
1

>  <GhoseFilter>
1

>  <FilterItLogS>
-3.96

>  <VMcGowan>
262.47

>  <LabuteASA>
166.71

>  <PEOE_VSA1>
15.74

>  <PEOE_VSA2>
9.36

>  <PEOE_VSA3>
22.95

>  <PEOE_VSA4>
0

>  <PEOE_VSA5>
0

>  <PEOE_VSA6>
0

>  <PEOE_VSA7>
30.03

>  <PEOE_VSA8>
31.39

>  <PEOE_VSA9>
11.07

>  <PEOE_VSA10>
17.2

>  <PEOE_VSA11>
17.28

>  <PEOE_VSA12>
5.43

>  <PEOE_VSA13>
0

>  <SMR_VSA1>
23.07

>  <SMR_VSA2>
0

>  <SMR_VSA3>
9.55

>  <SMR_VSA4>
17.57

>  <SMR_VSA5>
6.04

>  <SMR_VSA6>
17.99

>  <SMR_VSA7>
63.7

>  <SMR_VSA8>
0

>  <SMR_VSA9>
5.69

>  <SlogP_VSA1>
16.06

>  <SlogP_VSA2>
39.76

>  <SlogP_VSA3>
0

>  <SlogP_VSA4>
29.29

>  <SlogP_VSA5>
10.36

>  <SlogP_VSA6>
35.26

>  <SlogP_VSA7>
0

>  <SlogP_VSA8>
16.72

>  <SlogP_VSA9>
0

>  <SlogP_VSA10>
18.99

>  <SlogP_VSA11>
0

>  <EState_VSA1>
34.41

>  <EState_VSA2>
40.42

>  <EState_VSA3>
19.16

>  <EState_VSA4>
28.96

>  <EState_VSA5>
0

>  <EState_VSA6>
4.9

>  <EState_VSA7>
0

>  <EState_VSA8>
4.98

>  <EState_VSA9>
5.73

>  <EState_VSA10>
27.87

>  <VSA_EState1>
43.7

>  <VSA_EState2>
30.07

>  <VSA_EState3>
9.05

>  <VSA_EState4>
3.94

>  <VSA_EState5>
-3.7

>  <VSA_EState6>
3.69

>  <VSA_EState7>
0.91

>  <VSA_EState8>
1.01

>  <VSA_EState9>
0

>  <apol>
51.88

>  <bpol>
24.11

>  <nRing>
5

>  <nHRing>
3

>  <naRing>
3

>  <naHRing>
2

>  <nARing 2>
2

>  <nAHRing 2>
1

>  <nFRing>
2

>  <nFHRing>
2

>  <nFaRing>
1

>  <nFaHRing>
1

>  <nFARing 2>
1

>  <nFAHRing 2>
1

>  <nRot>
3

>  <SLogP>
1.89

>  <SMR>
101.34

>  <TopoPSA(NO)>
101.45

>  <TopoPSA>
101.45

>  <JGI1>
0.21

>  <JGI2>
0.11

>  <JGI3>
0.05

>  <JGI4>
0.05

>  <JGI5>
0.04

>  <Diameter>
13

>  <Radius>
7

>  <TMWC10>
144.03

>  <TSRW10>
87.62

>  <MW>
416.11

>  <AMW>
9.25

>  <WPath>
2266

>  <WPol>
53

>  <Zagreb1>
174

>  <Zagreb2>
217

>  <mZagreb2>
6.25

>  <yes>


>  <nAR-cont>
1

>  <nHA-cont>
0.74523694

>  <MWHBN>
0.392180423

>  <MWHBN-cont>
0.506869175

>  <TPSA-cont>
0.291816003

>  <pka_cont>
0.97

>  <yes.1>


>  <BBB_SCORE>
3.574172708

>  <MMFF94 Energy>
23.545

$$$$
Compound 1743
Actelion Java MolfileCreator 2.0

  0  0  0  0  0  0              0 V3000
M  V30 BEGIN CTAB
M  V30 COUNTS 23 23 0 0 0
M  V30 BEGIN ATOM
M  V30 1 O 1.3217 0.7773 3.268 0
M  V30 2 C 1.1763 0.5586 1.9267 0
M  V30 3 C 2.305 0.2938 1.1529 0
M  V30 4 C -0.0881 0.5988 1.3384 0
M  V30 5 O 3.534 0.2592 1.7488 0
M  V30 6 C 2.178 0.0644 -0.2138 0
M  V30 7 C -0.234 0.3772 -0.0416 0
M  V30 8 C 0.9131 0.1044 -0.8067 0
M  V30 9 C -1.6158 0.4132 -0.6666 0 CFG=1
M  V30 10 O -1.5537 0.9298 -2.0012 0
M  V30 11 C -2.3223 -0.9653 -0.6799 0
M  V30 12 N -1.7429 -1.9304 -1.6285 0
M  V30 13 H 0.4505 0.9169 3.6681 0
M  V30 14 H -0.965 0.8022 1.947 0
M  V30 15 H 4.2047 0.0473 1.0823 0
M  V30 16 H 3.0459 -0.1474 -0.8304 0
M  V30 17 H 0.8268 -0.0831 -1.8759 0
M  V30 18 H -2.2403 1.115 -0.0999 0
M  V30 19 H -1.0011 1.7299 -1.9631 0
M  V30 20 H -2.3316 -1.4066 0.3226 0
M  V30 21 H -3.3651 -0.8161 -0.9829 0
M  V30 22 H -1.6644 -1.4444 -2.5265 0
M  V30 23 H -0.7812 -2.1231 -1.3496 0
M  V30 END ATOM
M  V30 BEGIN BOND
M  V30 1 1 1 2
M  V30 2 2 2 3
M  V30 3 1 2 4
M  V30 4 1 3 5
M  V30 5 1 3 6
M  V30 6 2 4 7
M  V30 7 2 6 8
M  V30 8 1 7 9
M  V30 9 1 9 10
M  V30 10 1 9 11
M  V30 11 1 11 12
M  V30 12 1 7 8
M  V30 13 1 1 13
M  V30 14 1 4 14
M  V30 15 1 5 15
M  V30 16 1 6 16
M  V30 17 1 8 17
M  V30 18 1 9 18
M  V30 19 1 10 19
M  V30 20 1 11 20
M  V30 21 1 11 21
M  V30 22 1 12 22
M  V30 23 1 12 23
M  V30 END BOND
M  V30 BEGIN COLLECTION
M  V30 MDLV30/STERAC1 ATOMS=(1 9)
M  V30 END COLLECTION
M  V30 END CTAB
M  END
>  <Column 1>
2125

>  <level_0>
2306

>  <index>
2306

>  <Unnamed: 0>
2306

>  <NO.>
2318

>  <Name>
dl-arterenol

>  <IUPAC_name>
4-(2-amino-1-hydroxyethyl)benzene-1-2-diol

>  <SMILES>
NCC(O)c1ccc(O)c(O)c1

>  <CID>
951

>  <logBB>


>  <BBB+/BBB->
BBB-

>  <Inchi>
InChI=1S/C8H11NO3/c9-4-8(12)5-1-2-6(10)7(11)3-5/h1-3-8-10-12H-4-9H2

>  <threshold>
-1

>  <reference>
R1|R19|R28|R27|R27|R30|

>  <group>
B

>  <Class>
-1

>  <ABC>
8.73

>  <ABCGG>
8.34

>  <nAcid>
0

>  <nBase>
1

>  <nAromAtom>
6

>  <nAromBond>
6

>  <nAtom>
23

>  <nHeavyAtom>
12

>  <nSpiro>
0

>  <nBridgehead>
0

>  <nHetero>
4

>  <nN>
1

>  <nO>
3

>  <nF>
0

>  <BalabanJ>
2.39

>  <BertzCT>
275.01

>  <nBonds>
23

>  <nBondsO>
12

>  <nBondsS>
17

>  <nBondsD>
0

>  <nBondsT>
0

>  <nBondsA>
6

>  <nBondsM>
6

>  <nBondsKS>
20

>  <nBondsKD>
3

>  <RNCG>
0.28

>  <RPCG>
0.16

>  <FCSP3>
0.25

>  <SZ>
15

>  <Sm>
14.09

>  <Sv>
13.88

>  <Sse>
23.54

>  <Sp>
14.49

>  <Si>
26.2

>  <MZ>
0.65

>  <Mm>
0.61

>  <Mv>
0.6

>  <Mse>
1.02

>  <Mp>
0.63

>  <Mi>
1.14

>  <NsCH3>
0

>  <NdCH2>
0

>  <NssCH2>
1

>  <NtCH>
0

>  <NdsCH>
0

>  <NaaCH>
3

>  <NsssCH>
1

>  <NddC>
0

>  <NtsC>
0

>  <NdssC>
0

>  <NaasC>
3

>  <NaaaC>
0

>  <NssssC>
0

>  <NsNH3>
0

>  <NsNH2>
1

>  <NssNH2>
0

>  <NdNH>
0

>  <NssNH>
0

>  <NaaNH>
0

>  <NtN>
0

>  <NsssNH>
0

>  <NdsN>
0

>  <NaaN>
0

>  <NsssN>
0

>  <NddsN>
0

>  <NaasN>
0

>  <NssssN>
0

>  <NsOH>
3

>  <NdO>
0

>  <NssO>
0

>  <NaaO>
0

>  <NsF>
0

>  <NsSiH3>
0

>  <NssSiH2>
0

>  <NsssSiH>
0

>  <NssssSi>
0

>  <NsPH2>
0

>  <NssPH>
0

>  <NsssP>
0

>  <NdsssP>
0

>  <NsssssP>
0

>  <NsSH>
0

>  <NdS>
0

>  <NssS>
0

>  <NaaS>
0

>  <NdssS>
0

>  <NddssS>
0

>  <NsCl>
0

>  <NsBr>
0

>  <NsI>
0

>  <fragCpx>
12.04

>  <fMF>
0.26

>  <nHBAcc>
4

>  <nHBDon>
4

>  <Kier1>
10.08

>  <Kier2>
4.3

>  <Lipinski>
1

>  <GhoseFilter>
1

>  <FilterItLogS>
-0.31

>  <VMcGowan>
127.41

>  <LabuteASA>
69.88

>  <PEOE_VSA1>
21.05

>  <PEOE_VSA2>
0

>  <PEOE_VSA3>
0

>  <PEOE_VSA4>
0

>  <PEOE_VSA5>
0

>  <PEOE_VSA6>
6.07

>  <PEOE_VSA7>
17.7

>  <PEOE_VSA8>
6.54

>  <PEOE_VSA9>
6.1

>  <PEOE_VSA10>
0

>  <PEOE_VSA11>
11.5

>  <PEOE_VSA12>
0

>  <PEOE_VSA13>
0

>  <SMR_VSA1>
15.32

>  <SMR_VSA2>
0

>  <SMR_VSA3>
0

>  <SMR_VSA4>
5.73

>  <SMR_VSA5>
6.1

>  <SMR_VSA6>
6.54

>  <SMR_VSA7>
23.76

>  <SMR_VSA8>
0

>  <SMR_VSA9>
11.5

>  <SlogP_VSA1>
5.73

>  <SlogP_VSA2>
21.86

>  <SlogP_VSA3>
0

>  <SlogP_VSA4>
0

>  <SlogP_VSA5>
11.67

>  <SlogP_VSA6>
18.2

>  <SlogP_VSA7>
0

>  <SlogP_VSA8>
0

>  <SlogP_VSA9>
0

>  <SlogP_VSA10>
0

>  <SlogP_VSA11>
11.5

>  <EState_VSA1>
6.1

>  <EState_VSA2>
18.04

>  <EState_VSA3>
5.56

>  <EState_VSA4>
0

>  <EState_VSA5>
18.2

>  <EState_VSA6>
0

>  <EState_VSA7>
0

>  <EState_VSA8>
0

>  <EState_VSA9>
15.95

>  <EState_VSA10>
5.11

>  <VSA_EState1>
0

>  <VSA_EState2>
0

>  <VSA_EState3>
27.2

>  <VSA_EState4>
5.69

>  <VSA_EState5>
-0.46

>  <VSA_EState6>
4.1

>  <VSA_EState7>
-0.79

>  <VSA_EState8>
0.09

>  <VSA_EState9>
0

>  <apol>
24.2

>  <bpol>
10.47

>  <nRing>
1

>  <nHRing>
0

>  <naRing>
1

>  <naHRing>
0

>  <nARing 2>
0

>  <nAHRing 2>
0

>  <nFRing>
0

>  <nFHRing>
0

>  <nFaRing>
0

>  <nFaHRing>
0

>  <nFARing 2>
0

>  <nFAHRing 2>
0

>  <nRot>
2

>  <SLogP>
0.09

>  <SMR>
43.79

>  <TopoPSA(NO)>
86.71

>  <TopoPSA>
86.71

>  <JGI1>
0.25

>  <JGI2>
0.13

>  <JGI3>
0.04

>  <JGI4>
0.07

>  <JGI5>
0.05

>  <Diameter>
7

>  <Radius>
4

>  <TMWC10>
90.05

>  <TSRW10>
42.35

>  <MW>
169.07

>  <AMW>
7.35

>  <WPath>
198

>  <WPol>
16

>  <Zagreb1>
56

>  <Zagreb2>
63

>  <mZagreb2>
2.81

>  <yes>


>  <nAR-cont>
0.336376

>  <nHA-cont>
0.785745021

>  <MWHBN>
0.615257208

>  <MWHBN-cont>
0

>  <TPSA-cont>
0.394710356

>  <pka_cont>
0.97

>  <yes.1>


>  <BBB_SCORE>
2.396541733

>  <MMFF94 Energy>
48.955

$$$$
Compound 1744
Actelion Java MolfileCreator 2.0

  0  0  0  0  0  0              0 V3000
M  V30 BEGIN CTAB
M  V30 COUNTS 22 22 0 0 0
M  V30 BEGIN ATOM
M  V30 1 O -3.1107 0.8547 -1.0101 0
M  V30 2 C -1.9765 0.0994 -0.971 0
M  V30 3 C -0.8491 0.6583 -0.3772 0
M  V30 4 C -1.9424 -1.1845 -1.5021 0
M  V30 5 C 0.3496 -0.0683 -0.3075 0
M  V30 6 C -0.7599 -1.9197 -1.4341 0
M  V30 7 C 0.3776 -1.3675 -0.8394 0
M  V30 8 C 1.591 0.5055 0.3471 0 CFG=1
M  V30 9 O 1.6911 1.9155 0.1128 0
M  V30 10 C 1.6675 0.2296 1.8696 0
M  V30 11 N 0.7034 1.0012 2.6722 0
M  V30 12 H -3.8153 0.3362 -1.4323 0
M  V30 13 H -0.9134 1.6629 0.0353 0
M  V30 14 H -2.8182 -1.6267 -1.966 0
M  V30 15 H -0.7227 -2.9267 -1.8424 0
M  V30 16 H 1.2881 -1.9621 -0.793 0
M  V30 17 H 2.4738 0.06 -0.1278 0
M  V30 18 H 1.4157 2.0663 -0.808 0
M  V30 19 H 1.5367 -0.8378 2.0779 0
M  V30 20 H 2.6656 0.5135 2.2224 0
M  V30 21 H 0.7959 1.9775 2.3763 0
M  V30 22 H -0.24 0.736 2.3877 0
M  V30 END ATOM
M  V30 BEGIN BOND
M  V30 1 1 1 2
M  V30 2 2 2 3
M  V30 3 1 2 4
M  V30 4 1 3 5
M  V30 5 2 4 6
M  V30 6 2 5 7
M  V30 7 1 5 8
M  V30 8 1 8 9
M  V30 9 1 8 10
M  V30 10 1 10 11
M  V30 11 1 6 7
M  V30 12 1 1 12
M  V30 13 1 3 13
M  V30 14 1 4 14
M  V30 15 1 6 15
M  V30 16 1 7 16
M  V30 17 1 8 17
M  V30 18 1 9 18
M  V30 19 1 10 19
M  V30 20 1 10 20
M  V30 21 1 11 21
M  V30 22 1 11 22
M  V30 END BOND
M  V30 BEGIN COLLECTION
M  V30 MDLV30/STERAC1 ATOMS=(1 8)
M  V30 END COLLECTION
M  V30 END CTAB
M  END
>  <Column 1>
2126

>  <level_0>
2307

>  <index>
2307

>  <Unnamed: 0>
2307

>  <NO.>
2319

>  <Name>
norfenefrine

>  <IUPAC_name>
3-(2-amino-1-hydroxyethyl)phenol

>  <SMILES>
NCC(O)c1cccc(O)c1

>  <CID>
4538

>  <logBB>


>  <BBB+/BBB->
BBB-

>  <Inchi>
InChI=1S/C8H11NO2/c9-5-8(11)6-2-1-3-7(10)4-6/h1-4-8-10-11H-5-9H2

>  <threshold>
-1

>  <reference>
R1|R7|R19|R6|R27|R29|R30|

>  <group>
B

>  <Class>
1

>  <ABC>
7.96

>  <ABCGG>
7.61

>  <nAcid>
0

>  <nBase>
1

>  <nAromAtom>
6

>  <nAromBond>
6

>  <nAtom>
22

>  <nHeavyAtom>
11

>  <nSpiro>
0

>  <nBridgehead>
0

>  <nHetero>
3

>  <nN>
1

>  <nO>
2

>  <nF>
0

>  <BalabanJ>
2.33

>  <BertzCT>
237.29

>  <nBonds>
22

>  <nBondsO>
11

>  <nBondsS>
16

>  <nBondsD>
0

>  <nBondsT>
0

>  <nBondsA>
6

>  <nBondsM>
6

>  <nBondsKS>
19

>  <nBondsKD>
3

>  <RNCG>
0.37

>  <RPCG>
0.21

>  <FCSP3>
0.25

>  <SZ>
13.67

>  <Sm>
12.75

>  <Sv>
13.17

>  <Sse>
22.21

>  <Sp>
14.01

>  <Si>
24.99

>  <MZ>
0.62

>  <Mm>
0.58

>  <Mv>
0.6

>  <Mse>
1.01

>  <Mp>
0.64

>  <Mi>
1.14

>  <NsCH3>
0

>  <NdCH2>
0

>  <NssCH2>
1

>  <NtCH>
0

>  <NdsCH>
0

>  <NaaCH>
4

>  <NsssCH>
1

>  <NddC>
0

>  <NtsC>
0

>  <NdssC>
0

>  <NaasC>
2

>  <NaaaC>
0

>  <NssssC>
0

>  <NsNH3>
0

>  <NsNH2>
1

>  <NssNH2>
0

>  <NdNH>
0

>  <NssNH>
0

>  <NaaNH>
0

>  <NtN>
0

>  <NsssNH>
0

>  <NdsN>
0

>  <NaaN>
0

>  <NsssN>
0

>  <NddsN>
0

>  <NaasN>
0

>  <NssssN>
0

>  <NsOH>
2

>  <NdO>
0

>  <NssO>
0

>  <NaaO>
0

>  <NsF>
0

>  <NsSiH3>
0

>  <NssSiH2>
0

>  <NsssSiH>
0

>  <NssssSi>
0

>  <NsPH2>
0

>  <NssPH>
0

>  <NsssP>
0

>  <NdsssP>
0

>  <NsssssP>
0

>  <NsSH>
0

>  <NdS>
0

>  <NssS>
0

>  <NaaS>
0

>  <NdssS>
0

>  <NddssS>
0

>  <NsCl>
0

>  <NsBr>
0

>  <NsI>
0

>  <fragCpx>
11.03

>  <fMF>
0.27

>  <nHBAcc>
3

>  <nHBDon>
3

>  <Kier1>
9.09

>  <Kier2>
4.13

>  <Lipinski>
1

>  <GhoseFilter>
0

>  <FilterItLogS>
-0.72

>  <VMcGowan>
121.54

>  <LabuteASA>
65.09

>  <PEOE_VSA1>
15.95

>  <PEOE_VSA2>
0

>  <PEOE_VSA3>
0

>  <PEOE_VSA4>
0

>  <PEOE_VSA5>
0

>  <PEOE_VSA6>
12.13

>  <PEOE_VSA7>
17.7

>  <PEOE_VSA8>
6.54

>  <PEOE_VSA9>
6.1

>  <PEOE_VSA10>
5.75

>  <PEOE_VSA11>
0

>  <PEOE_VSA12>
0

>  <PEOE_VSA13>
0

>  <SMR_VSA1>
10.21

>  <SMR_VSA2>
0

>  <SMR_VSA3>
0

>  <SMR_VSA4>
5.73

>  <SMR_VSA5>
6.1

>  <SMR_VSA6>
6.54

>  <SMR_VSA7>
29.83

>  <SMR_VSA8>
0

>  <SMR_VSA9>
5.75

>  <SlogP_VSA1>
5.73

>  <SlogP_VSA2>
16.76

>  <SlogP_VSA3>
0

>  <SlogP_VSA4>
0

>  <SlogP_VSA5>
11.67

>  <SlogP_VSA6>
24.27

>  <SlogP_VSA7>
0

>  <SlogP_VSA8>
0

>  <SlogP_VSA9>
0

>  <SlogP_VSA10>
0

>  <SlogP_VSA11>
5.75

>  <EState_VSA1>
6.1

>  <EState_VSA2>
12.29

>  <EState_VSA3>
5.56

>  <EState_VSA4>
0

>  <EState_VSA5>
6.07

>  <EState_VSA6>
18.2

>  <EState_VSA7>
0

>  <EState_VSA8>
0

>  <EState_VSA9>
10.84

>  <EState_VSA10>
5.11

>  <VSA_EState1>
0

>  <VSA_EState2>
0

>  <VSA_EState3>
18.22

>  <VSA_EState4>
5.87

>  <VSA_EState5>
0.15

>  <VSA_EState6>
6.44

>  <VSA_EState7>
-0.68

>  <VSA_EState8>
0.17

>  <VSA_EState9>
0

>  <apol>
23.4

>  <bpol>
10.47

>  <nRing>
1

>  <nHRing>
0

>  <naRing>
1

>  <naHRing>
0

>  <nARing 2>
0

>  <nAHRing 2>
0

>  <nFRing>
0

>  <nFHRing>
0

>  <nFaRing>
0

>  <nFaHRing>
0

>  <nFARing 2>
0

>  <nFAHRing 2>
0

>  <nRot>
2

>  <SLogP>
0.38

>  <SMR>
42.12

>  <TopoPSA(NO)>
66.48

>  <TopoPSA>
66.48

>  <JGI1>
0.23

>  <JGI2>
0.1

>  <JGI3>
0.05

>  <JGI4>
0.05

>  <JGI5>
0.03

>  <Diameter>
6

>  <Radius>
3

>  <TMWC10>
86.34

>  <TSRW10>
40.59

>  <MW>
153.08

>  <AMW>
6.96

>  <WPath>
156

>  <WPol>
13

>  <Zagreb1>
50

>  <Zagreb2>
55

>  <mZagreb2>
2.61

>  <yes>


>  <nAR-cont>
0.336376

>  <nHA-cont>
0.720786536

>  <MWHBN>
0.484944484

>  <MWHBN-cont>
0

>  <TPSA-cont>
0.535928318

>  <pka_cont>
0.97

>  <yes.1>


>  <BBB_SCORE>
2.614019173

>  <MMFF94 Energy>
40.186

$$$$
Compound 1745
Actelion Java MolfileCreator 2.0

  0  0  0  0  0  0              0 V3000
M  V30 BEGIN CTAB
M  V30 COUNTS 31 32 0 0 0
M  V30 BEGIN ATOM
M  V30 1 O -0.9443 -2.2832 -1.8105 0
M  V30 2 C -0.4955 -1.1596 -1.6534 0
M  V30 3 N -0.9186 -0.221 -0.728 0
M  V30 4 C 0.6712 -0.5699 -2.4063 0
M  V30 5 C -0.1028 0.9654 -0.7352 0
M  V30 6 C -1.9327 -0.4715 0.2775 0
M  V30 7 C 0.5555 0.9304 -2.1093 0 CFG=1
M  V30 8 C -1.3325 -0.7111 1.6409 0
M  V30 9 C 1.8859 1.6752 -2.1331 0
M  V30 10 C -0.6642 -1.9134 1.9158 0
M  V30 11 C -1.4129 0.2656 2.6437 0
M  V30 12 N 2.4984 1.6127 -3.4543 0
M  V30 13 C -0.0932 -2.1363 3.1692 0
M  V30 14 C -0.8413 0.0402 3.8974 0
M  V30 15 C -0.1824 -1.1598 4.1596 0
M  V30 16 H 0.584 -0.7805 -3.4755 0
M  V30 17 H 1.5953 -1.0042 -2.0112 0
M  V30 18 H -0.724 1.8563 -0.6014 0
M  V30 19 H 0.6253 0.8952 0.08 0
M  V30 20 H -2.6116 0.389 0.2921 0
M  V30 21 H -2.5292 -1.3453 -0.0097 0
M  V30 22 H -0.1352 1.3768 -2.8394 0
M  V30 23 H 2.5792 1.244 -1.4021 0
M  V30 24 H 1.7313 2.7243 -1.8563 0
M  V30 25 H -0.5867 -2.6813 1.1471 0
M  V30 26 H -1.9221 1.2078 2.4554 0
M  V30 27 H 3.3748 2.1347 -3.4507 0
M  V30 28 H 1.8993 2.0698 -4.1415 0
M  V30 29 H 0.4206 -3.0725 3.3711 0
M  V30 30 H -0.9105 0.8007 4.671 0
M  V30 31 H 0.2614 -1.335 5.136 0
M  V30 END ATOM
M  V30 BEGIN BOND
M  V30 1 2 1 2
M  V30 2 1 2 3
M  V30 3 1 2 4
M  V30 4 1 3 5
M  V30 5 1 3 6
M  V30 6 1 4 7
M  V30 7 1 6 8
M  V30 8 1 7 9
M  V30 9 2 8 10
M  V30 10 1 8 11
M  V30 11 1 9 12
M  V30 12 1 10 13
M  V30 13 2 11 14
M  V30 14 2 13 15
M  V30 15 1 5 7
M  V30 16 1 14 15
M  V30 17 1 4 16
M  V30 18 1 4 17
M  V30 19 1 5 18
M  V30 20 1 5 19
M  V30 21 1 6 20
M  V30 22 1 6 21
M  V30 23 1 7 22
M  V30 24 1 9 23
M  V30 25 1 9 24
M  V30 26 1 10 25
M  V30 27 1 11 26
M  V30 28 1 12 27
M  V30 29 1 12 28
M  V30 30 1 13 29
M  V30 31 1 14 30
M  V30 32 1 15 31
M  V30 END BOND
M  V30 BEGIN COLLECTION
M  V30 MDLV30/STERAC1 ATOMS=(1 7)
M  V30 END COLLECTION
M  V30 END CTAB
M  END
>  <Column 1>
2127

>  <level_0>
2308

>  <index>
2308

>  <Unnamed: 0>
2308

>  <NO.>
2320

>  <Name>
nebracetam

>  <IUPAC_name>
4-(aminomethyl)-1-benzylpyrrolidin-2-one

>  <SMILES>
NCC1CC(=O)N(Cc2ccccc2)C1

>  <CID>
65926

>  <logBB>


>  <BBB+/BBB->
BBB+

>  <Inchi>
InChI=1S/C12H16N2O/c13-7-11-6-12(15)14(9-11)8-10-4-2-1-3-5-10/h1-5-11H-6-9-13H2

>  <threshold>
-1

>  <reference>
R1|R19|R6|R27|R27|R30|

>  <group>
B

>  <Class>
-1

>  <ABC>
11.38

>  <ABCGG>
10.11

>  <nAcid>
0

>  <nBase>
1

>  <nAromAtom>
6

>  <nAromBond>
6

>  <nAtom>
31

>  <nHeavyAtom>
15

>  <nSpiro>
0

>  <nBridgehead>
0

>  <nHetero>
3

>  <nN>
2

>  <nO>
1

>  <nF>
0

>  <BalabanJ>
1.78

>  <BertzCT>
336.74

>  <nBonds>
32

>  <nBondsO>
16

>  <nBondsS>
25

>  <nBondsD>
1

>  <nBondsT>
0

>  <nBondsA>
6

>  <nBondsM>
7

>  <nBondsKS>
28

>  <nBondsKD>
4

>  <RNCG>
0.26

>  <RPCG>
0.17

>  <FCSP3>
0.42

>  <SZ>
18.33

>  <Sm>
17.01

>  <Sv>
18.57

>  <Sse>
30.76

>  <Sp>
20.19

>  <Si>
35.11

>  <MZ>
0.59

>  <Mm>
0.55

>  <Mv>
0.6

>  <Mse>
0.99

>  <Mp>
0.65

>  <Mi>
1.13

>  <NsCH3>
0

>  <NdCH2>
0

>  <NssCH2>
4

>  <NtCH>
0

>  <NdsCH>
0

>  <NaaCH>
5

>  <NsssCH>
1

>  <NddC>
0

>  <NtsC>
0

>  <NdssC>
1

>  <NaasC>
1

>  <NaaaC>
0

>  <NssssC>
0

>  <NsNH3>
0

>  <NsNH2>
1

>  <NssNH2>
0

>  <NdNH>
0

>  <NssNH>
0

>  <NaaNH>
0

>  <NtN>
0

>  <NsssNH>
0

>  <NdsN>
0

>  <NaaN>
0

>  <NsssN>
1

>  <NddsN>
0

>  <NaasN>
0

>  <NssssN>
0

>  <NsOH>
0

>  <NdO>
1

>  <NssO>
0

>  <NaaO>
0

>  <NsF>
0

>  <NsSiH3>
0

>  <NssSiH2>
0

>  <NsssSiH>
0

>  <NssssSi>
0

>  <NsPH2>
0

>  <NssPH>
0

>  <NsssP>
0

>  <NdsssP>
0

>  <NsssssP>
0

>  <NsSH>
0

>  <NdS>
0

>  <NssS>
0

>  <NaaS>
0

>  <NdssS>
0

>  <NddssS>
0

>  <NsCl>
0

>  <NsBr>
0

>  <NsI>
0

>  <fragCpx>
46.03

>  <fMF>
0.39

>  <nHBAcc>
2

>  <nHBDon>
1

>  <Kier1>
11.48

>  <Kier2>
5.37

>  <Lipinski>
1

>  <GhoseFilter>
1

>  <FilterItLogS>
-2.2

>  <VMcGowan>
166.85

>  <LabuteASA>
89.88

>  <PEOE_VSA1>
10.63

>  <PEOE_VSA2>
4.79

>  <PEOE_VSA3>
0

>  <PEOE_VSA4>
0

>  <PEOE_VSA5>
0

>  <PEOE_VSA6>
30.33

>  <PEOE_VSA7>
18.03

>  <PEOE_VSA8>
19.51

>  <PEOE_VSA9>
0

>  <PEOE_VSA10>
0

>  <PEOE_VSA11>
0

>  <PEOE_VSA12>
5.91

>  <PEOE_VSA13>
0

>  <SMR_VSA1>
4.79

>  <SMR_VSA2>
0

>  <SMR_VSA3>
4.9

>  <SMR_VSA4>
11.65

>  <SMR_VSA5>
12.97

>  <SMR_VSA6>
13.09

>  <SMR_VSA7>
35.9

>  <SMR_VSA8>
0

>  <SMR_VSA9>
0

>  <SlogP_VSA1>
5.73

>  <SlogP_VSA2>
23.9

>  <SlogP_VSA3>
11.34

>  <SlogP_VSA4>
5.92

>  <SlogP_VSA5>
11.98

>  <SlogP_VSA6>
30.33

>  <SlogP_VSA7>
0

>  <SlogP_VSA8>
0

>  <SlogP_VSA9>
0

>  <SlogP_VSA10>
0

>  <SlogP_VSA11>
0

>  <EState_VSA1>
0

>  <EState_VSA2>
5.91

>  <EState_VSA3>
18.88

>  <EState_VSA4>
13.09

>  <EState_VSA5>
5.56

>  <EState_VSA6>
0

>  <EState_VSA7>
35.23

>  <EState_VSA8>
0

>  <EState_VSA9>
5.73

>  <EState_VSA10>
4.79

>  <VSA_EState1>
0

>  <VSA_EState2>
13.51

>  <VSA_EState3>
0

>  <VSA_EState4>
6.76

>  <VSA_EState5>
0.58

>  <VSA_EState6>
10.07

>  <VSA_EState7>
0.61

>  <VSA_EState8>
2.14

>  <VSA_EState9>
0

>  <apol>
33.71

>  <bpol>
18.06

>  <nRing>
2

>  <nHRing>
1

>  <naRing>
1

>  <naHRing>
0

>  <nARing 2>
1

>  <nAHRing 2>
1

>  <nFRing>
0

>  <nFHRing>
0

>  <nFaRing>
0

>  <nFaHRing>
0

>  <nFARing 2>
0

>  <nFAHRing 2>
0

>  <nRot>
3

>  <SLogP>
0.99

>  <SMR>
59.02

>  <TopoPSA(NO)>
46.33

>  <TopoPSA>
46.33

>  <JGI1>
0.19

>  <JGI2>
0.05

>  <JGI3>
0.06

>  <JGI4>
0.04

>  <JGI5>
0.02

>  <Diameter>
9

>  <Radius>
5

>  <TMWC10>
99.99

>  <TSRW10>
60.45

>  <MW>
204.13

>  <AMW>
6.58

>  <WPath>
386

>  <WPol>
18

>  <Zagreb1>
74

>  <Zagreb2>
84

>  <mZagreb2>
3.44

>  <yes>


>  <nAR-cont>
0.816016

>  <nHA-cont>
0.92539861

>  <MWHBN>
0.209975119

>  <MWHBN-cont>
0.999323337

>  <TPSA-cont>
0.676587831

>  <pka_cont>
0.97

>  <yes.1>


>  <BBB_SCORE>
5.078575277

>  <MMFF94 Energy>
-3.8592

$$$$
Compound 1746
Actelion Java MolfileCreator 2.0

  0  0  0  0  0  0              0 V3000
M  V30 BEGIN CTAB
M  V30 COUNTS 37 38 0 0 0
M  V30 BEGIN ATOM
M  V30 1 F 5.28 -2.9573 -0.3193 0
M  V30 2 C 4.1341 -3.3818 -0.9201 0
M  V30 3 F 3.7991 -4.5493 -0.3027 0
M  V30 4 F 4.4832 -3.7224 -2.1923 0
M  V30 5 C 3.0395 -2.345 -0.8623 0
M  V30 6 C 2.1531 -2.3001 0.2239 0
M  V30 7 C 2.9062 -1.3885 -1.8776 0
M  V30 8 C 1.149 -1.3268 0.2906 0
M  V30 9 C 1.9019 -0.4196 -1.8078 0
M  V30 10 C 1.0258 -0.3762 -0.7209 0
M  V30 11 O 0.087 0.6151 -0.7853 0
M  V30 12 C -0.6104 0.9813 0.4169 0 CFG=2
M  V30 13 C -1.8602 0.1379 0.6251 0
M  V30 14 C -1.0071 2.4643 0.2909 0
M  V30 15 C -2.591 -0.3725 -0.4584 0
M  V30 16 C -2.3189 -0.1183 1.9274 0
M  V30 17 C 0.2227 3.3628 0.1565 0
M  V30 18 C -3.7414 -1.1337 -0.2445 0
M  V30 19 C -3.4702 -0.8789 2.139 0
M  V30 20 N -0.1747 4.7681 0.1326 0
M  V30 21 C -4.1797 -1.3876 1.0533 0
M  V30 22 H 2.2329 -3.0341 1.0252 0
M  V30 23 H 3.5809 -1.3954 -2.7322 0
M  V30 24 H 0.4698 -1.3545 1.1365 0
M  V30 25 H 1.804 0.3112 -2.6074 0
M  V30 26 H 0.0578 0.8866 1.2838 0
M  V30 27 H -1.6476 2.6059 -0.5902 0
M  V30 28 H -1.5927 2.7688 1.1685 0
M  V30 29 H -2.2645 -0.1822 -1.4788 0
M  V30 30 H -1.7828 0.2769 2.7877 0
M  V30 31 H 0.7729 3.1319 -0.7617 0
M  V30 32 H 0.9004 3.2031 1.0018 0
M  V30 33 H -4.2956 -1.5274 -1.0925 0
M  V30 34 H -3.816 -1.0718 3.1513 0
M  V30 35 H 0.6503 5.3488 -0.0136 0
M  V30 36 H -0.784 4.9372 -0.6676 0
M  V30 37 H -5.0764 -1.9792 1.218 0
M  V30 END ATOM
M  V30 BEGIN BOND
M  V30 1 1 1 2
M  V30 2 1 2 3
M  V30 3 1 2 4
M  V30 4 1 2 5
M  V30 5 2 5 6
M  V30 6 1 5 7
M  V30 7 1 6 8
M  V30 8 2 7 9
M  V30 9 2 8 10
M  V30 10 1 10 11
M  V30 11 1 11 12
M  V30 12 1 12 13
M  V30 13 1 12 14
M  V30 14 2 13 15
M  V30 15 1 13 16
M  V30 16 1 14 17
M  V30 17 1 15 18
M  V30 18 2 16 19
M  V30 19 1 17 20
M  V30 20 2 18 21
M  V30 21 1 9 10
M  V30 22 1 19 21
M  V30 23 1 6 22
M  V30 24 1 7 23
M  V30 25 1 8 24
M  V30 26 1 9 25
M  V30 27 1 12 26
M  V30 28 1 14 27
M  V30 29 1 14 28
M  V30 30 1 15 29
M  V30 31 1 16 30
M  V30 32 1 17 31
M  V30 33 1 17 32
M  V30 34 1 18 33
M  V30 35 1 19 34
M  V30 36 1 20 35
M  V30 37 1 20 36
M  V30 38 1 21 37
M  V30 END BOND
M  V30 BEGIN COLLECTION
M  V30 MDLV30/STERAC1 ATOMS=(1 12)
M  V30 END COLLECTION
M  V30 END CTAB
M  END
>  <Column 1>
2133

>  <level_0>
2314

>  <index>
2314

>  <Unnamed: 0>
2314

>  <NO.>
2326

>  <Name>
seproxetine

>  <IUPAC_name>
3-phenyl-3-[4-(trifluoromethyl)phenoxy]propan-1-amine

>  <SMILES>
NCCC(Oc1ccc(C(F)(F)F)cc1)c1ccccc1

>  <CID>
4541

>  <logBB>


>  <BBB+/BBB->
BBB+

>  <Inchi>
InChI=1S/C16H16F3NO/c17-16(18-19)13-6-8-14(9-7-13)21-15(10-11-20)12-4-2-1-3-5-12/h1-9-15H-10-11-20H2

>  <threshold>
-1

>  <reference>
R1|R19|R27|R27|R30|

>  <group>
B

>  <Class>
-1

>  <ABC>
15.93

>  <ABCGG>
13.22

>  <nAcid>
0

>  <nBase>
1

>  <nAromAtom>
12

>  <nAromBond>
12

>  <nAtom>
37

>  <nHeavyAtom>
21

>  <nSpiro>
0

>  <nBridgehead>
0

>  <nHetero>
5

>  <nN>
1

>  <nO>
1

>  <nF>
3

>  <BalabanJ>
1.81

>  <BertzCT>
551.98

>  <nBonds>
38

>  <nBondsO>
22

>  <nBondsS>
26

>  <nBondsD>
0

>  <nBondsT>
0

>  <nBondsA>
12

>  <nBondsM>
12

>  <nBondsKS>
32

>  <nBondsKD>
6

>  <RNCG>
0.28

>  <RPCG>
0.24

>  <FCSP3>
0.25

>  <SZ>
25.67

>  <Sm>
24.59

>  <Sv>
23.75

>  <Sse>
37.97

>  <Sp>
24.53

>  <Si>
42.46

>  <MZ>
0.69

>  <Mm>
0.66

>  <Mv>
0.64

>  <Mse>
1.03

>  <Mp>
0.66

>  <Mi>
1.15

>  <NsCH3>
0

>  <NdCH2>
0

>  <NssCH2>
2

>  <NtCH>
0

>  <NdsCH>
0

>  <NaaCH>
9

>  <NsssCH>
1

>  <NddC>
0

>  <NtsC>
0

>  <NdssC>
0

>  <NaasC>
3

>  <NaaaC>
0

>  <NssssC>
1

>  <NsNH3>
0

>  <NsNH2>
1

>  <NssNH2>
0

>  <NdNH>
0

>  <NssNH>
0

>  <NaaNH>
0

>  <NtN>
0

>  <NsssNH>
0

>  <NdsN>
0

>  <NaaN>
0

>  <NsssN>
0

>  <NddsN>
0

>  <NaasN>
0

>  <NssssN>
0

>  <NsOH>
0

>  <NdO>
0

>  <NssO>
1

>  <NaaO>
0

>  <NsF>
3

>  <NsSiH3>
0

>  <NssSiH2>
0

>  <NsssSiH>
0

>  <NssssSi>
0

>  <NsPH2>
0

>  <NssPH>
0

>  <NsssP>
0

>  <NdsssP>
0

>  <NsssssP>
0

>  <NsSH>
0

>  <NdS>
0

>  <NssS>
0

>  <NaaS>
0

>  <NdssS>
0

>  <NddssS>
0

>  <NsCl>
0

>  <NsBr>
0

>  <NsI>
0

>  <fragCpx>
64.05

>  <fMF>
0.38

>  <nHBAcc>
2

>  <nHBDon>
1

>  <Kier1>
17.36

>  <Kier2>
8.02

>  <Lipinski>
1

>  <GhoseFilter>
1

>  <FilterItLogS>
-4.67

>  <VMcGowan>
209.91

>  <LabuteASA>
120.9

>  <PEOE_VSA1>
10.47

>  <PEOE_VSA2>
0

>  <PEOE_VSA3>
0

>  <PEOE_VSA4>
13.17

>  <PEOE_VSA5>
0

>  <PEOE_VSA6>
30.33

>  <PEOE_VSA7>
36.37

>  <PEOE_VSA8>
6.42

>  <PEOE_VSA9>
5.56

>  <PEOE_VSA10>
11.85

>  <PEOE_VSA11>
0

>  <PEOE_VSA12>
0

>  <PEOE_VSA13>
0

>  <SMR_VSA1>
17.91

>  <SMR_VSA2>
0

>  <SMR_VSA3>
0

>  <SMR_VSA4>
5.73

>  <SMR_VSA5>
18.7

>  <SMR_VSA6>
6.54

>  <SMR_VSA7>
65.72

>  <SMR_VSA8>
0

>  <SMR_VSA9>
5.75

>  <SlogP_VSA1>
10.47

>  <SlogP_VSA2>
6.54

>  <SlogP_VSA3>
6.18

>  <SlogP_VSA4>
0

>  <SlogP_VSA5>
23.65

>  <SlogP_VSA6>
54.6

>  <SlogP_VSA7>
0

>  <SlogP_VSA8>
0

>  <SlogP_VSA9>
0

>  <SlogP_VSA10>
13.17

>  <SlogP_VSA11>
5.75

>  <EState_VSA1>
11.74

>  <EState_VSA2>
6.1

>  <EState_VSA3>
18.72

>  <EState_VSA4>
17.7

>  <EState_VSA5>
12.13

>  <EState_VSA6>
0

>  <EState_VSA7>
30.33

>  <EState_VSA8>
0

>  <EState_VSA9>
10.47

>  <EState_VSA10>
13.17

>  <VSA_EState1>
43.29

>  <VSA_EState2>
0

>  <VSA_EState3>
0

>  <VSA_EState4>
5.83

>  <VSA_EState5>
0.39

>  <VSA_EState6>
14.16

>  <VSA_EState7>
-4.02

>  <VSA_EState8>
0.43

>  <VSA_EState9>
0

>  <apol>
40.96

>  <bpol>
20.56

>  <nRing>
2

>  <nHRing>
0

>  <naRing>
2

>  <naHRing>
0

>  <nARing 2>
0

>  <nAHRing 2>
0

>  <nFRing>
0

>  <nFHRing>
0

>  <nFaRing>
0

>  <nFaHRing>
0

>  <nFARing 2>
0

>  <nFAHRing 2>
0

>  <nRot>
5

>  <SLogP>
4.17

>  <SMR>
74.93

>  <TopoPSA(NO)>
35.25

>  <TopoPSA>
35.25

>  <JGI1>
0.23

>  <JGI2>
0.08

>  <JGI3>
0.04

>  <JGI4>
0.03

>  <JGI5>
0.03

>  <Diameter>
11

>  <Radius>
6

>  <TMWC10>
115.09

>  <TSRW10>
54.47

>  <MW>
295.12

>  <AMW>
7.98

>  <WPath>
1006

>  <WPol>
29

>  <Zagreb1>
104

>  <Zagreb2>
117

>  <mZagreb2>
4.69

>  <yes>


>  <nAR-cont>
0.336376

>  <nHA-cont>
0.994529749

>  <MWHBN>
0.174631238

>  <MWHBN-cont>
0.980678921

>  <TPSA-cont>
0.753933111

>  <pka_cont>
0.97

>  <yes.1>


>  <BBB_SCORE>
4.794790353

>  <MMFF94 Energy>
72.556

$$$$
Compound 1747
Actelion Java MolfileCreator 2.0

  0  0  0  0  0  0              0 V3000
M  V30 BEGIN CTAB
M  V30 COUNTS 23 24 0 0 0
M  V30 BEGIN ATOM
M  V30 1 N 0.942 -0.4709 0.0784 0
M  V30 2 C 0.7124 -0.3654 -1.2134 0
M  V30 3 C -0.2859 -0.3306 0.687 0
M  V30 4 N -0.6377 -0.1586 -1.4724 0
M  V30 5 C 1.5858 -0.427 -2.3362 0
M  V30 6 C -1.2736 -0.1359 -0.2577 0
M  V30 7 C -0.4165 -0.4056 2.1704 0
M  V30 8 C -1.1634 -0.0117 -2.7539 0
M  V30 9 C 1.0866 -0.2857 -3.5803 0
M  V30 10 C 0.4612 0.6269 2.8844 0
M  V30 11 C -0.3348 -0.07 -3.8107 0
M  V30 12 N 0.2304 0.6262 4.3329 0
M  V30 13 H 2.6428 -0.5888 -2.1599 0
M  V30 14 H -2.3407 0.0073 -0.1711 0
M  V30 15 H -0.1459 -1.4164 2.4997 0
M  V30 16 H -1.4673 -0.2517 2.4479 0
M  V30 17 H -2.2305 0.1446 -2.8425 0
M  V30 18 H 1.74 -0.3311 -4.4463 0
M  V30 19 H 0.2619 1.6321 2.4945 0
M  V30 20 H 1.5195 0.4121 2.6972 0
M  V30 21 H -0.6925 0.0375 -4.829 0
M  V30 22 H 0.851 1.3108 4.7641 0
M  V30 23 H -0.7188 0.9425 4.5259 0
M  V30 END ATOM
M  V30 BEGIN BOND
M  V30 1 2 1 2
M  V30 2 1 1 3
M  V30 3 1 2 4
M  V30 4 1 2 5
M  V30 5 2 3 6
M  V30 6 1 3 7
M  V30 7 1 4 8
M  V30 8 2 5 9
M  V30 9 1 7 10
M  V30 10 2 8 11
M  V30 11 1 10 12
M  V30 12 1 4 6
M  V30 13 1 9 11
M  V30 14 1 5 13
M  V30 15 1 6 14
M  V30 16 1 7 15
M  V30 17 1 7 16
M  V30 18 1 8 17
M  V30 19 1 9 18
M  V30 20 1 10 19
M  V30 21 1 10 20
M  V30 22 1 11 21
M  V30 23 1 12 22
M  V30 24 1 12 23
M  V30 END BOND
M  V30 END CTAB
M  END
>  <Column 1>
2136

>  <level_0>
2317

>  <index>
2317

>  <Unnamed: 0>
2317

>  <NO.>
2329

>  <Name>
1-47

>  <IUPAC_name>
2-imidazo[1-2-a]pyridin-2-ylethanamine

>  <SMILES>
NCCc1cn2ccccc2n1

>  <CID>
7536516

>  <logBB>


>  <BBB+/BBB->
BBB-

>  <Inchi>
InChI=1S/C9H11N3/c10-5-4-8-7-12-6-2-1-3-9(12)11-8/h1-3-6-7H-4-5-10H2

>  <threshold>
-1

>  <reference>
R1|R1|R1|R13|R19|R19|R28|R28|R9|R9|R24|R27|R27|R27|R30|R30|R30|

>  <group>
B

>  <Class>
1

>  <ABC>
9.15

>  <ABCGG>
8.21

>  <nAcid>
0

>  <nBase>
1

>  <nAromAtom>
9

>  <nAromBond>
10

>  <nAtom>
23

>  <nHeavyAtom>
12

>  <nSpiro>
0

>  <nBridgehead>
0

>  <nHetero>
3

>  <nN>
3

>  <nO>
0

>  <nF>
0

>  <BalabanJ>
1.85

>  <BertzCT>
344.91

>  <nBonds>
24

>  <nBondsO>
13

>  <nBondsS>
14

>  <nBondsD>
0

>  <nBondsT>
0

>  <nBondsA>
10

>  <nBondsM>
10

>  <nBondsKS>
20

>  <nBondsKD>
4

>  <RNCG>
0.33

>  <RPCG>
0.14

>  <FCSP3>
0.22

>  <SZ>
14.33

>  <Sm>
13.42

>  <Sv>
14.25

>  <Sse>
22.87

>  <Sp>
15.37

>  <Si>
26.16

>  <MZ>
0.62

>  <Mm>
0.58

>  <Mv>
0.62

>  <Mse>
0.99

>  <Mp>
0.67

>  <Mi>
1.14

>  <NsCH3>
0

>  <NdCH2>
0

>  <NssCH2>
2

>  <NtCH>
0

>  <NdsCH>
0

>  <NaaCH>
5

>  <NsssCH>
0

>  <NddC>
0

>  <NtsC>
0

>  <NdssC>
0

>  <NaasC>
1

>  <NaaaC>
1

>  <NssssC>
0

>  <NsNH3>
0

>  <NsNH2>
1

>  <NssNH2>
0

>  <NdNH>
0

>  <NssNH>
0

>  <NaaNH>
0

>  <NtN>
0

>  <NsssNH>
0

>  <NdsN>
0

>  <NaaN>
1

>  <NsssN>
0

>  <NddsN>
0

>  <NaasN>
1

>  <NssssN>
0

>  <NsOH>
0

>  <NdO>
0

>  <NssO>
0

>  <NaaO>
0

>  <NsF>
0

>  <NsSiH3>
0

>  <NssSiH2>
0

>  <NsssSiH>
0

>  <NssssSi>
0

>  <NsPH2>
0

>  <NssPH>
0

>  <NsssP>
0

>  <NdsssP>
0

>  <NsssssP>
0

>  <NsSH>
0

>  <NdS>
0

>  <NssS>
0

>  <NaaS>
0

>  <NdssS>
0

>  <NddssS>
0

>  <NsCl>
0

>  <NsBr>
0

>  <NsI>
0

>  <fragCpx>
37.03

>  <fMF>
0.39

>  <nHBAcc>
3

>  <nHBDon>
1

>  <Kier1>
8.59

>  <Kier2>
3.81

>  <Lipinski>
1

>  <GhoseFilter>
1

>  <FilterItLogS>
-1.77

>  <VMcGowan>
128.69

>  <LabuteASA>
70.84

>  <PEOE_VSA1>
10.13

>  <PEOE_VSA2>
0

>  <PEOE_VSA3>
4.98

>  <PEOE_VSA4>
0

>  <PEOE_VSA5>
0

>  <PEOE_VSA6>
6.07

>  <PEOE_VSA7>
18.68

>  <PEOE_VSA8>
18.81

>  <PEOE_VSA9>
5.69

>  <PEOE_VSA10>
5.65

>  <PEOE_VSA11>
0

>  <PEOE_VSA12>
0

>  <PEOE_VSA13>
0

>  <SMR_VSA1>
0

>  <SMR_VSA2>
0

>  <SMR_VSA3>
9.38

>  <SMR_VSA4>
5.73

>  <SMR_VSA5>
6.42

>  <SMR_VSA6>
6.54

>  <SMR_VSA7>
36.29

>  <SMR_VSA8>
0

>  <SMR_VSA9>
0

>  <SlogP_VSA1>
5.73

>  <SlogP_VSA2>
15.93

>  <SlogP_VSA3>
6.42

>  <SlogP_VSA4>
0

>  <SlogP_VSA5>
5.69

>  <SlogP_VSA6>
30.59

>  <SlogP_VSA7>
0

>  <SlogP_VSA8>
5.65

>  <SlogP_VSA9>
0

>  <SlogP_VSA10>
0

>  <SlogP_VSA11>
0

>  <EState_VSA1>
0

>  <EState_VSA2>
0

>  <EState_VSA3>
6.54

>  <EState_VSA4>
17.76

>  <EState_VSA5>
0

>  <EState_VSA6>
0

>  <EState_VSA7>
34.99

>  <EState_VSA8>
4.98

>  <EState_VSA9>
5.73

>  <EState_VSA10>
0

>  <VSA_EState1>
2

>  <VSA_EState2>
4.39

>  <VSA_EState3>
0

>  <VSA_EState4>
7.48

>  <VSA_EState5>
0

>  <VSA_EState6>
5.95

>  <VSA_EState7>
4.85

>  <VSA_EState8>
0.66

>  <VSA_EState9>
0

>  <apol>
25.66

>  <bpol>
13.32

>  <nRing>
2

>  <nHRing>
2

>  <naRing>
2

>  <naHRing>
2

>  <nARing 2>
0

>  <nAHRing 2>
0

>  <nFRing>
1

>  <nFHRing>
1

>  <nFaRing>
1

>  <nFaHRing>
1

>  <nFARing 2>
0

>  <nFAHRing 2>
0

>  <nRot>
2

>  <SLogP>
0.84

>  <SMR>
47.95

>  <TopoPSA(NO)>
43.32

>  <TopoPSA>
43.32

>  <JGI1>
0.15

>  <JGI2>
0.05

>  <JGI3>
0.06

>  <JGI4>
0.04

>  <JGI5>
0.03

>  <Diameter>
7

>  <Radius>
4

>  <TMWC10>
92.64

>  <TSRW10>
56.59

>  <MW>
161.1

>  <AMW>
7

>  <WPath>
197

>  <WPol>
14

>  <Zagreb1>
60

>  <Zagreb2>
69

>  <mZagreb2>
2.78

>  <yes>


>  <nAR-cont>
0.336376

>  <nHA-cont>
0.785745021

>  <MWHBN>
0.315146306

>  <MWHBN-cont>
0.793253265

>  <TPSA-cont>
0.6975995

>  <pka_cont>
0.97

>  <yes.1>


>  <BBB_SCORE>
4.192199918

>  <MMFF94 Energy>
33.739

$$$$
Compound 1748
Actelion Java MolfileCreator 2.0

  0  0  0  0  0  0              0 V3000
M  V30 BEGIN CTAB
M  V30 COUNTS 16 16 0 0 0
M  V30 BEGIN ATOM
M  V30 1 S 0.7241 0.3218 -1.8515 0
M  V30 2 C -0.4318 -0.1881 -0.6825 0
M  V30 3 C -0.4517 1.3558 -2.5455 0
M  V30 4 N -1.6298 0.3497 -0.7997 0
M  V30 5 C -0.0704 -1.2015 0.3594 0
M  V30 6 C -1.6387 1.2372 -1.8571 0
M  V30 7 C 0.3408 -0.5542 1.6859 0
M  V30 8 N 1.713 -0.0412 1.6745 0
M  V30 9 H -0.226 1.9802 -3.3972 0
M  V30 10 H 0.71 -1.8831 0.0 0
M  V30 11 H -0.9562 -1.8244 0.5397 0
M  V30 12 H -2.5489 1.7773 -2.0866 0
M  V30 13 H 0.2709 -1.3048 2.4815 0
M  V30 14 H -0.3437 0.2605 1.9478 0
M  V30 15 H 1.9249 0.3718 2.5823 0
M  V30 16 H 2.3713 -0.8087 1.5481 0
M  V30 END ATOM
M  V30 BEGIN BOND
M  V30 1 1 1 2
M  V30 2 1 1 3
M  V30 3 2 2 4
M  V30 4 1 2 5
M  V30 5 2 3 6
M  V30 6 1 5 7
M  V30 7 1 7 8
M  V30 8 1 4 6
M  V30 9 1 3 9
M  V30 10 1 5 10
M  V30 11 1 5 11
M  V30 12 1 6 12
M  V30 13 1 7 13
M  V30 14 1 7 14
M  V30 15 1 8 15
M  V30 16 1 8 16
M  V30 END BOND
M  V30 END CTAB
M  END
>  <Column 1>
2137

>  <level_0>
2318

>  <index>
2318

>  <Unnamed: 0>
2318

>  <NO.>
2330

>  <Name>
y-g16

>  <IUPAC_name>
2-(1-3-thiazol-2-yl)ethanamine

>  <SMILES>
NCCc1nccs1

>  <CID>
87653

>  <logBB>


>  <BBB+/BBB->
BBB+

>  <Inchi>
InChI=1S/C5H8N2S/c6-2-1-5-7-3-4-8-5/h3-4H-1-2-6H2

>  <threshold>
-1

>  <reference>
R1|R1|R13|R19|R19|R28|R28|R9|R9|R24|R27|R27|R30|R30|R36|

>  <group>
B

>  <Class>
-1

>  <ABC>
5.66

>  <ABCGG>
5.8

>  <nAcid>
0

>  <nBase>
1

>  <nAromAtom>
5

>  <nAromBond>
5

>  <nAtom>
16

>  <nHeavyAtom>
8

>  <nSpiro>
0

>  <nBridgehead>
0

>  <nHetero>
3

>  <nN>
2

>  <nO>
0

>  <nF>
0

>  <BalabanJ>
2.06

>  <BertzCT>
136.15

>  <nBonds>
16

>  <nBondsO>
8

>  <nBondsS>
11

>  <nBondsD>
0

>  <nBondsT>
0

>  <nBondsA>
5

>  <nBondsM>
5

>  <nBondsKS>
14

>  <nBondsKD>
2

>  <RNCG>
0.47

>  <RPCG>
0.17

>  <FCSP3>
0.4

>  <SZ>
11.33

>  <Sm>
10.67

>  <Sv>
9.87

>  <Sse>
15.95

>  <Sp>
11.25

>  <Si>
18.16

>  <MZ>
0.71

>  <Mm>
0.67

>  <Mv>
0.62

>  <Mse>
1

>  <Mp>
0.7

>  <Mi>
1.14

>  <NsCH3>
0

>  <NdCH2>
0

>  <NssCH2>
2

>  <NtCH>
0

>  <NdsCH>
0

>  <NaaCH>
2

>  <NsssCH>
0

>  <NddC>
0

>  <NtsC>
0

>  <NdssC>
0

>  <NaasC>
1

>  <NaaaC>
0

>  <NssssC>
0

>  <NsNH3>
0

>  <NsNH2>
1

>  <NssNH2>
0

>  <NdNH>
0

>  <NssNH>
0

>  <NaaNH>
0

>  <NtN>
0

>  <NsssNH>
0

>  <NdsN>
0

>  <NaaN>
1

>  <NsssN>
0

>  <NddsN>
0

>  <NaasN>
0

>  <NssssN>
0

>  <NsOH>
0

>  <NdO>
0

>  <NssO>
0

>  <NaaO>
0

>  <NsF>
0

>  <NsSiH3>
0

>  <NssSiH2>
0

>  <NsssSiH>
0

>  <NssssSi>
0

>  <NsPH2>
0

>  <NssPH>
0

>  <NsssP>
0

>  <NdsssP>
0

>  <NsssssP>
0

>  <NsSH>
0

>  <NdS>
0

>  <NssS>
0

>  <NaaS>
1

>  <NdssS>
0

>  <NddssS>
0

>  <NsCl>
0

>  <NsBr>
0

>  <NsI>
0

>  <fragCpx>
8.03

>  <fMF>
0.31

>  <nHBAcc>
3

>  <nHBDon>
1

>  <Kier1>
6.13

>  <Kier2>
3.11

>  <Lipinski>
1

>  <GhoseFilter>
0

>  <FilterItLogS>
-1.4

>  <VMcGowan>
98.16

>  <LabuteASA>
52.36

>  <PEOE_VSA1>
5.73

>  <PEOE_VSA2>
0

>  <PEOE_VSA3>
4.98

>  <PEOE_VSA4>
0

>  <PEOE_VSA5>
11.34

>  <PEOE_VSA6>
0

>  <PEOE_VSA7>
6.54

>  <PEOE_VSA8>
18

>  <PEOE_VSA9>
5.01

>  <PEOE_VSA10>
0

>  <PEOE_VSA11>
0

>  <PEOE_VSA12>
0

>  <PEOE_VSA13>
0

>  <SMR_VSA1>
0

>  <SMR_VSA2>
0

>  <SMR_VSA3>
4.98

>  <SMR_VSA4>
5.73

>  <SMR_VSA5>
6.42

>  <SMR_VSA6>
6.54

>  <SMR_VSA7>
16.58

>  <SMR_VSA8>
0

>  <SMR_VSA9>
0

>  <SlogP_VSA1>
5.73

>  <SlogP_VSA2>
11.53

>  <SlogP_VSA3>
6.42

>  <SlogP_VSA4>
0

>  <SlogP_VSA5>
5.01

>  <SlogP_VSA6>
11.58

>  <SlogP_VSA7>
0

>  <SlogP_VSA8>
0

>  <SlogP_VSA9>
0

>  <SlogP_VSA10>
0

>  <SlogP_VSA11>
0

>  <EState_VSA1>
0

>  <EState_VSA2>
0

>  <EState_VSA3>
6.54

>  <EState_VSA4>
11.43

>  <EState_VSA5>
0

>  <EState_VSA6>
17.53

>  <EState_VSA7>
5.38

>  <EState_VSA8>
4.98

>  <EState_VSA9>
5.73

>  <EState_VSA10>
0

>  <VSA_EState1>
0

>  <VSA_EState2>
4.04

>  <VSA_EState3>
3.1

>  <VSA_EState4>
5.29

>  <VSA_EState5>
0

>  <VSA_EState6>
0

>  <VSA_EState7>
2.72

>  <VSA_EState8>
0.7

>  <VSA_EState9>
0

>  <apol>
18.78

>  <bpol>
11.06

>  <nRing>
1

>  <nHRing>
1

>  <naRing>
1

>  <naHRing>
1

>  <nARing 2>
0

>  <nAHRing 2>
0

>  <nFRing>
0

>  <nFHRing>
0

>  <nFaRing>
0

>  <nFaHRing>
0

>  <nFARing 2>
0

>  <nFAHRing 2>
0

>  <nRot>
2

>  <SLogP>
0.64

>  <SMR>
34.87

>  <TopoPSA(NO)>
38.91

>  <TopoPSA>
67.15

>  <JGI1>
0.13

>  <JGI2>
0.05

>  <JGI3>
0.04

>  <JGI4>
0.03

>  <JGI5>
0.04

>  <Diameter>
5

>  <Radius>
3

>  <TMWC10>
75.36

>  <TSRW10>
47.99

>  <MW>
128.04

>  <AMW>
8

>  <WPath>
67

>  <WPol>
5

>  <Zagreb1>
34

>  <Zagreb2>
36

>  <mZagreb2>
2

>  <yes>


>  <nAR-cont>
0.336376

>  <nHA-cont>
0.464727961

>  <MWHBN>
0.353498161

>  <MWHBN-cont>
0.657113875

>  <TPSA-cont>
0.531251302

>  <pka_cont>
0.97

>  <yes.1>


>  <BBB_SCORE>
3.334277378

>  <MMFF94 Energy>
17.536

$$$$
Compound 1749
Actelion Java MolfileCreator 2.0

  0  0  0  0  0  0              0 V3000
M  V30 BEGIN CTAB
M  V30 COUNTS 34 35 0 0 0
M  V30 BEGIN ATOM
M  V30 1 P 0.4047 0.4857 -0.4857 0
M  V30 2 O 1.1499 1.8035 -0.6104 0
M  V30 3 C 1.44 -0.9354 -0.8138 0
M  V30 4 C -0.3515 0.2702 1.1178 0
M  V30 5 C -0.8576 0.4903 -1.7694 0
M  V30 6 C 0.9507 -2.2429 -0.6857 0
M  V30 7 C 2.7697 -0.7482 -1.2168 0
M  V30 8 C -1.5965 -0.3481 1.2957 0
M  V30 9 C 0.3342 0.7376 2.2496 0
M  V30 10 C -1.874 1.571 -1.5674 0
M  V30 11 C 1.7741 -3.3371 -0.9563 0
M  V30 12 C 3.5917 -1.8423 -1.4875 0
M  V30 13 C -2.1399 -0.4944 2.574 0
M  V30 14 C -0.2083 0.5898 3.5262 0
M  V30 15 O -3.0817 1.3351 -1.5818 0
M  V30 16 N -1.3476 2.8436 -1.4234 0
M  V30 17 C 3.0931 -3.1364 -1.3577 0
M  V30 18 C -1.446 -0.0269 3.6878 0
M  V30 19 N -2.2166 3.9445 -1.2836 0
M  V30 20 H -0.3846 0.6404 -2.7459 0
M  V30 21 H -1.3709 -0.476 -1.7994 0
M  V30 22 H -0.0733 -2.4229 -0.3683 0
M  V30 23 H 3.1696 0.2598 -1.3179 0
M  V30 24 H -2.1665 -0.72 0.4482 0
M  V30 25 H 1.3001 1.227 2.1318 0
M  V30 26 H 1.3881 -4.3482 -0.8507 0
M  V30 27 H 4.6216 -1.684 -1.7973 0
M  V30 28 H -3.1095 -0.9704 2.7009 0
M  V30 29 H 0.3338 0.9591 4.3931 0
M  V30 30 H -0.332 2.9927 -1.3599 0
M  V30 31 H 3.7343 -3.989 -1.5662 0
M  V30 32 H -1.8718 -0.1399 4.6816 0
M  V30 33 H -3.104 3.6888 -1.7362 0
M  V30 34 H -2.4627 4.0221 -0.2924 0
M  V30 END ATOM
M  V30 BEGIN BOND
M  V30 1 2 1 2
M  V30 2 1 1 3
M  V30 3 1 1 4
M  V30 4 1 1 5
M  V30 5 2 3 6
M  V30 6 1 3 7
M  V30 7 2 4 8
M  V30 8 1 4 9
M  V30 9 1 5 10
M  V30 10 1 6 11
M  V30 11 2 7 12
M  V30 12 1 8 13
M  V30 13 2 9 14
M  V30 14 2 10 15
M  V30 15 1 10 16
M  V30 16 2 11 17
M  V30 17 2 13 18
M  V30 18 1 16 19
M  V30 19 1 12 17
M  V30 20 1 14 18
M  V30 21 1 5 20
M  V30 22 1 5 21
M  V30 23 1 6 22
M  V30 24 1 7 23
M  V30 25 1 8 24
M  V30 26 1 9 25
M  V30 27 1 11 26
M  V30 28 1 12 27
M  V30 29 1 13 28
M  V30 30 1 14 29
M  V30 31 1 16 30
M  V30 32 1 17 31
M  V30 33 1 18 32
M  V30 34 1 19 33
M  V30 35 1 19 34
M  V30 END BOND
M  V30 END CTAB
M  END
>  <Column 1>
2141

>  <level_0>
2322

>  <index>
2322

>  <Unnamed: 0>
2322

>  <NO.>
2334

>  <Name>
fosenazide

>  <IUPAC_name>
2-diphenylphosphorylacetohydrazide

>  <SMILES>
NNC(=O)CP(=O)(c1ccccc1)c1ccccc1

>  <CID>
27918

>  <logBB>


>  <BBB+/BBB->
BBB+

>  <Inchi>
InChI=1S/C14H15N2O2P/c15-16-14(17)11-19(18-12-7-3-1-4-8-12)13-9-5-2-6-10-13/h1-10H-11-15H2-(H-16-17)

>  <threshold>
-1

>  <reference>
R1|R13|R19|R6|R24|R27|R27|R27|R30|R30|

>  <group>
B

>  <Class>
1

>  <ABC>
14.29

>  <ABCGG>
12.72

>  <nAcid>
0

>  <nBase>
0

>  <nAromAtom>
12

>  <nAromBond>
12

>  <nAtom>
34

>  <nHeavyAtom>
19

>  <nSpiro>
0

>  <nBridgehead>
0

>  <nHetero>
5

>  <nN>
2

>  <nO>
2

>  <nF>
0

>  <BalabanJ>
2.09

>  <BertzCT>
555.86

>  <nBonds>
35

>  <nBondsO>
20

>  <nBondsS>
21

>  <nBondsD>
2

>  <nBondsT>
0

>  <nBondsA>
12

>  <nBondsM>
14

>  <nBondsKS>
27

>  <nBondsKD>
8

>  <RNCG>
0.18

>  <RPCG>
0.14

>  <FCSP3>
0.07

>  <SZ>
24

>  <Sm>
22.83

>  <Sv>
22.2

>  <Sse>
34.06

>  <Sp>
24.44

>  <Si>
38.05

>  <MZ>
0.71

>  <Mm>
0.67

>  <Mv>
0.65

>  <Mse>
1

>  <Mp>
0.72

>  <Mi>
1.12

>  <NsCH3>
0

>  <NdCH2>
0

>  <NssCH2>
1

>  <NtCH>
0

>  <NdsCH>
0

>  <NaaCH>
10

>  <NsssCH>
0

>  <NddC>
0

>  <NtsC>
0

>  <NdssC>
1

>  <NaasC>
2

>  <NaaaC>
0

>  <NssssC>
0

>  <NsNH3>
0

>  <NsNH2>
1

>  <NssNH2>
0

>  <NdNH>
0

>  <NssNH>
1

>  <NaaNH>
0

>  <NtN>
0

>  <NsssNH>
0

>  <NdsN>
0

>  <NaaN>
0

>  <NsssN>
0

>  <NddsN>
0

>  <NaasN>
0

>  <NssssN>
0

>  <NsOH>
0

>  <NdO>
2

>  <NssO>
0

>  <NaaO>
0

>  <NsF>
0

>  <NsSiH3>
0

>  <NssSiH2>
0

>  <NsssSiH>
0

>  <NssssSi>
0

>  <NsPH2>
0

>  <NssPH>
0

>  <NsssP>
0

>  <NdsssP>
1

>  <NsssssP>
0

>  <NsSH>
0

>  <NdS>
0

>  <NssS>
0

>  <NaaS>
0

>  <NdssS>
0

>  <NddssS>
0

>  <NsCl>
0

>  <NsBr>
0

>  <NsI>
0

>  <fragCpx>
58.05

>  <fMF>
0.38

>  <nHBAcc>
3

>  <nHBDon>
2

>  <Kier1>
15.39

>  <Kier2>
7.14

>  <Lipinski>
1

>  <GhoseFilter>
1

>  <FilterItLogS>
-3.46

>  <VMcGowan>
208.46

>  <LabuteASA>
111.53

>  <PEOE_VSA1>
4.57

>  <PEOE_VSA2>
10.22

>  <PEOE_VSA3>
5.84

>  <PEOE_VSA4>
0

>  <PEOE_VSA5>
0

>  <PEOE_VSA6>
60.66

>  <PEOE_VSA7>
0

>  <PEOE_VSA8>
10.61

>  <PEOE_VSA9>
6.16

>  <PEOE_VSA10>
0

>  <PEOE_VSA11>
7.14

>  <PEOE_VSA12>
5.91

>  <PEOE_VSA13>
0

>  <SMR_VSA1>
9.36

>  <SMR_VSA2>
0

>  <SMR_VSA3>
5.43

>  <SMR_VSA4>
5.84

>  <SMR_VSA5>
0

>  <SMR_VSA6>
6.16

>  <SMR_VSA7>
60.66

>  <SMR_VSA8>
0

>  <SMR_VSA9>
0

>  <SlogP_VSA1>
21.88

>  <SlogP_VSA2>
12.07

>  <SlogP_VSA3>
9.36

>  <SlogP_VSA4>
0

>  <SlogP_VSA5>
0

>  <SlogP_VSA6>
60.66

>  <SlogP_VSA7>
0

>  <SlogP_VSA8>
0

>  <SlogP_VSA9>
0

>  <SlogP_VSA10>
0

>  <SlogP_VSA11>
0

>  <EState_VSA1>
13.05

>  <EState_VSA2>
6.16

>  <EState_VSA3>
10.61

>  <EState_VSA4>
0

>  <EState_VSA5>
0

>  <EState_VSA6>
24.27

>  <EState_VSA7>
41.82

>  <EState_VSA8>
0

>  <EState_VSA9>
5.84

>  <EState_VSA10>
9.36

>  <VSA_EState1>
13.27

>  <VSA_EState2>
11.57

>  <VSA_EState3>
1.31

>  <VSA_EState4>
2.05

>  <VSA_EState5>
4.68

>  <VSA_EState6>
18.04

>  <VSA_EState7>
-0.13

>  <VSA_EState8>
0

>  <VSA_EState9>
-2.99

>  <apol>
40.82

>  <bpol>
23.48

>  <nRing>
2

>  <nHRing>
0

>  <naRing>
2

>  <naHRing>
0

>  <nARing 2>
0

>  <nAHRing 2>
0

>  <nFRing>
0

>  <nFHRing>
0

>  <nFaRing>
0

>  <nFaHRing>
0

>  <nFARing 2>
0

>  <nFAHRing 2>
0

>  <nRot>
4

>  <SLogP>
0.99

>  <SMR>
76.96

>  <TopoPSA(NO)>
72.19

>  <TopoPSA>
82

>  <JGI1>
0.2

>  <JGI2>
0.1

>  <JGI3>
0.06

>  <JGI4>
0.03

>  <JGI5>
0.02

>  <Diameter>
8

>  <Radius>
4

>  <TMWC10>
111.32

>  <TSRW10>
52.23

>  <MW>
274.09

>  <AMW>
8.06

>  <WPath>
662

>  <WPol>
29

>  <Zagreb1>
94

>  <Zagreb2>
109

>  <mZagreb2>
4.38

>  <yes>


>  <nAR-cont>
0.336376

>  <nHA-cont>
0.998649058

>  <MWHBN>
0.30201145

>  <MWHBN-cont>
0.834687695

>  <TPSA-cont>
0.427589081

>  <pka_cont>
0.97

>  <yes.1>


>  <BBB_SCORE>
3.927234763

>  <MMFF94 Energy>
81.763

$$$$
Compound 1750
Actelion Java MolfileCreator 2.0

  0  0  0  0  0  0              0 V3000
M  V30 BEGIN CTAB
M  V30 COUNTS 25 25 0 0 0
M  V30 BEGIN ATOM
M  V30 1 N 0.3873 -2.4811 0.4648 0
M  V30 2 N 0.3032 -3.6141 -0.4288 0
M  V30 3 C -0.4696 -1.4002 -0.0508 0
M  V30 4 C -0.4532 -0.1765 0.893 0
M  V30 5 C 0.9435 0.4516 1.0533 0
M  V30 6 C -1.4577 0.8927 0.4258 0
M  V30 7 C 1.4106 1.1932 -0.1978 0
M  V30 8 C -0.9981 1.6421 -0.8236 0
M  V30 9 C 0.3937 2.2394 -0.6434 0
M  V30 10 H 0.055 -2.7285 1.4036 0
M  V30 11 H 0.697 -3.3794 -1.3456 0
M  V30 12 H 0.8907 -4.3823 -0.0902 0
M  V30 13 H -1.5013 -1.7649 -0.1401 0
M  V30 14 H -0.1351 -1.1144 -1.0544 0
M  V30 15 H -0.7806 -0.5205 1.884 0
M  V30 16 H 1.6853 -0.3055 1.33 0
M  V30 17 H 0.9112 1.164 1.8884 0
M  V30 18 H -2.4386 0.4385 0.2423 0
M  V30 19 H -1.6004 1.6189 1.2369 0
M  V30 20 H 2.3703 1.6821 0.0052 0
M  V30 21 H 1.5878 0.4807 -1.0115 0
M  V30 22 H -1.7116 2.4424 -1.0518 0
M  V30 23 H -0.9996 0.9669 -1.6869 0
M  V30 24 H 0.3491 3.0418 0.1035 0
M  V30 25 H 0.7231 2.6982 -1.5824 0
M  V30 END ATOM
M  V30 BEGIN BOND
M  V30 1 1 1 2
M  V30 2 1 1 3
M  V30 3 1 3 4
M  V30 4 1 4 5
M  V30 5 1 4 6
M  V30 6 1 5 7
M  V30 7 1 6 8
M  V30 8 1 7 9
M  V30 9 1 8 9
M  V30 10 1 1 10
M  V30 11 1 2 11
M  V30 12 1 2 12
M  V30 13 1 3 13
M  V30 14 1 3 14
M  V30 15 1 4 15
M  V30 16 1 5 16
M  V30 17 1 5 17
M  V30 18 1 6 18
M  V30 19 1 6 19
M  V30 20 1 7 20
M  V30 21 1 7 21
M  V30 22 1 8 22
M  V30 23 1 8 23
M  V30 24 1 9 24
M  V30 25 1 9 25
M  V30 END BOND
M  V30 END CTAB
M  END
>  <Column 1>
2142

>  <level_0>
2323

>  <index>
2323

>  <Unnamed: 0>
2323

>  <NO.>
2335

>  <Name>
cimemoxin

>  <IUPAC_name>
cyclohexylmethylhydrazine

>  <SMILES>
NNCC1CCCCC1

>  <CID>
71824

>  <logBB>


>  <BBB+/BBB->
BBB+

>  <Inchi>
InChI=1S/C7H16N2/c8-9-6-7-4-2-1-3-5-7/h7-9H-1-6-8H2

>  <threshold>
-1

>  <reference>
R1|R13|R19|R6|R24|R27|R27|R27|R30|R30|

>  <group>
B

>  <Class>
1

>  <ABC>
6.36

>  <ABCGG>
6.01

>  <nAcid>
0

>  <nBase>
0

>  <nAromAtom>
0

>  <nAromBond>
0

>  <nAtom>
25

>  <nHeavyAtom>
9

>  <nSpiro>
0

>  <nBridgehead>
0

>  <nHetero>
2

>  <nN>
2

>  <nO>
0

>  <nF>
0

>  <BalabanJ>
2.08

>  <BertzCT>
64.56

>  <nBonds>
25

>  <nBondsO>
9

>  <nBondsS>
25

>  <nBondsD>
0

>  <nBondsT>
0

>  <nBondsA>
0

>  <nBondsM>
0

>  <nBondsKS>
25

>  <nBondsKD>
0

>  <RNCG>
0.33

>  <RPCG>
0.17

>  <FCSP3>
1

>  <SZ>
12

>  <Sm>
10.68

>  <Sv>
12.85

>  <Sse>
24.43

>  <Sp>
14.71

>  <Si>
28.9

>  <MZ>
0.48

>  <Mm>
0.43

>  <Mv>
0.51

>  <Mse>
0.98

>  <Mp>
0.59

>  <Mi>
1.16

>  <NsCH3>
0

>  <NdCH2>
0

>  <NssCH2>
6

>  <NtCH>
0

>  <NdsCH>
0

>  <NaaCH>
0

>  <NsssCH>
1

>  <NddC>
0

>  <NtsC>
0

>  <NdssC>
0

>  <NaasC>
0

>  <NaaaC>
0

>  <NssssC>
0

>  <NsNH3>
0

>  <NsNH2>
1

>  <NssNH2>
0

>  <NdNH>
0

>  <NssNH>
1

>  <NaaNH>
0

>  <NtN>
0

>  <NsssNH>
0

>  <NdsN>
0

>  <NaaN>
0

>  <NsssN>
0

>  <NddsN>
0

>  <NaasN>
0

>  <NssssN>
0

>  <NsOH>
0

>  <NdO>
0

>  <NssO>
0

>  <NaaO>
0

>  <NsF>
0

>  <NsSiH3>
0

>  <NssSiH2>
0

>  <NsssSiH>
0

>  <NssssSi>
0

>  <NsPH2>
0

>  <NssPH>
0

>  <NsssP>
0

>  <NdsssP>
0

>  <NsssssP>
0

>  <NsSH>
0

>  <NdS>
0

>  <NssS>
0

>  <NaaS>
0

>  <NdssS>
0

>  <NddssS>
0

>  <NsCl>
0

>  <NsBr>
0

>  <NsI>
0

>  <fragCpx>
9.02

>  <fMF>
0.24

>  <nHBAcc>
2

>  <nHBDon>
2

>  <Kier1>
7.11

>  <Kier2>
3.92

>  <Lipinski>
1

>  <GhoseFilter>
0

>  <FilterItLogS>
-1.37

>  <VMcGowan>
118.59

>  <LabuteASA>
56.78

>  <PEOE_VSA1>
0

>  <PEOE_VSA2>
11.27

>  <PEOE_VSA3>
0

>  <PEOE_VSA4>
0

>  <PEOE_VSA5>
0

>  <PEOE_VSA6>
19.26

>  <PEOE_VSA7>
18.76

>  <PEOE_VSA8>
6.54

>  <PEOE_VSA9>
0

>  <PEOE_VSA10>
0

>  <PEOE_VSA11>
0

>  <PEOE_VSA12>
0

>  <PEOE_VSA13>
0

>  <SMR_VSA1>
0

>  <SMR_VSA2>
0

>  <SMR_VSA3>
5.43

>  <SMR_VSA4>
11.76

>  <SMR_VSA5>
32.1

>  <SMR_VSA6>
6.54

>  <SMR_VSA7>
0

>  <SMR_VSA8>
0

>  <SMR_VSA9>
0

>  <SlogP_VSA1>
11.27

>  <SlogP_VSA2>
6.54

>  <SlogP_VSA3>
0

>  <SlogP_VSA4>
5.92

>  <SlogP_VSA5>
32.1

>  <SlogP_VSA6>
0

>  <SlogP_VSA7>
0

>  <SlogP_VSA8>
0

>  <SlogP_VSA9>
0

>  <SlogP_VSA10>
0

>  <SlogP_VSA11>
0

>  <EState_VSA1>
0

>  <EState_VSA2>
0

>  <EState_VSA3>
0

>  <EState_VSA4>
12.46

>  <EState_VSA5>
32.1

>  <EState_VSA6>
0

>  <EState_VSA7>
0

>  <EState_VSA8>
5.43

>  <EState_VSA9>
5.84

>  <EState_VSA10>
0

>  <VSA_EState1>
0

>  <VSA_EState2>
0

>  <VSA_EState3>
0

>  <VSA_EState4>
2.74

>  <VSA_EState5>
6.07

>  <VSA_EState6>
0

>  <VSA_EState7>
7.01

>  <VSA_EState8>
1.01

>  <VSA_EState9>
0

>  <apol>
24.56

>  <bpol>
14.91

>  <nRing>
1

>  <nHRing>
0

>  <naRing>
0

>  <naHRing>
0

>  <nARing 2>
1

>  <nAHRing 2>
0

>  <nFRing>
0

>  <nFHRing>
0

>  <nFaRing>
0

>  <nFaHRing>
0

>  <nFARing 2>
0

>  <nFAHRing 2>
0

>  <nRot>
2

>  <SLogP>
1.03

>  <SMR>
38.77

>  <TopoPSA(NO)>
38.05

>  <TopoPSA>
38.05

>  <JGI1>
0.11

>  <JGI2>
0.04

>  <JGI3>
0.02

>  <JGI4>
0.03

>  <JGI5>
0.03

>  <Diameter>
6

>  <Radius>
3

>  <TMWC10>
78.11

>  <TSRW10>
36.72

>  <MW>
128.13

>  <AMW>
5.13

>  <WPath>
94

>  <WPol>
8

>  <Zagreb1>
38

>  <Zagreb2>
40

>  <mZagreb2>
2.25

>  <yes>


>  <nAR-cont>
0.816016

>  <nHA-cont>
0.56070381

>  <MWHBN>
0.353373988

>  <MWHBN-cont>
0.657582071

>  <TPSA-cont>
0.734387372

>  <pka_cont>
0.97

>  <yes.1>


>  <BBB_SCORE>
4.316867662

>  <MMFF94 Energy>
44.618

$$$$
Compound 1751
Actelion Java MolfileCreator 2.0

  0  0  0  0  0  0              0 V3000
M  V30 BEGIN CTAB
M  V30 COUNTS 22 23 0 0 0
M  V30 BEGIN ATOM
M  V30 1 S 2.6377 -0.4118 0.9061 0
M  V30 2 O 2.0328 0.6903 1.6194 0
M  V30 3 O 4.0755 -0.5507 0.8365 0
M  V30 4 N 2.1033 -1.7973 1.6708 0
M  V30 5 C 1.963 -0.5236 -0.7538 0
M  V30 6 C 0.492 -0.695 -0.7779 0
M  V30 7 N -0.0354 -1.8707 -1.1534 0
M  V30 8 C -0.5223 0.2609 -0.5023 0
M  V30 9 O -1.4089 -1.7037 -1.1025 0
M  V30 10 C -1.6994 -0.4331 -0.7203 0
M  V30 11 C -0.5992 1.6071 -0.1048 0
M  V30 12 C -2.9733 0.1077 -0.5694 0
M  V30 13 C -1.8674 2.1849 0.0579 0
M  V30 14 C -3.0326 1.4471 -0.1709 0
M  V30 15 H 1.4444 -1.5794 2.4197 0
M  V30 16 H 2.8861 -2.3854 1.9595 0
M  V30 17 H 2.2511 0.3994 -1.2679 0
M  V30 18 H 2.4768 -1.3552 -1.2481 0
M  V30 19 H 0.2947 2.1938 0.0881 0
M  V30 20 H -3.8646 -0.4796 -0.7526 0
M  V30 21 H -1.9432 3.2244 0.3723 0
M  V30 22 H -4.0026 1.9218 -0.0355 0
M  V30 END ATOM
M  V30 BEGIN BOND
M  V30 1 2 1 2
M  V30 2 2 1 3
M  V30 3 1 1 4
M  V30 4 1 1 5
M  V30 5 1 5 6
M  V30 6 2 6 7
M  V30 7 1 6 8
M  V30 8 1 7 9
M  V30 9 2 8 10
M  V30 10 1 8 11
M  V30 11 1 10 12
M  V30 12 2 11 13
M  V30 13 2 12 14
M  V30 14 1 9 10
M  V30 15 1 13 14
M  V30 16 1 4 15
M  V30 17 1 4 16
M  V30 18 1 5 17
M  V30 19 1 5 18
M  V30 20 1 11 19
M  V30 21 1 12 20
M  V30 22 1 13 21
M  V30 23 1 14 22
M  V30 END BOND
M  V30 END CTAB
M  END
>  <Column 1>
2143

>  <level_0>
2324

>  <index>
2324

>  <Unnamed: 0>
2324

>  <NO.>
2336

>  <Name>
zonisamide

>  <IUPAC_name>
1-2-benzoxazol-3-ylmethanesulfonamide

>  <SMILES>
NS(=O)(=O)Cc1noc2ccccc12

>  <CID>
5734

>  <logBB>


>  <BBB+/BBB->
BBB+

>  <Inchi>
InChI=1S/C8H8N2O3S/c9-14(11-12)5-7-6-3-1-2-4-8(6)13-10-7/h1-4H-5H2-(H2-9-11-12)

>  <threshold>
-1

>  <reference>
R1|R7|R13|R19|R19|R28|R6|R9|R14|R23|R24|R26|R27|R27|R27|R27|R29|R30|R30|R34|R36|R37|

>  <group>
B

>  <Class>
-1

>  <ABC>
11

>  <ABCGG>
9.96

>  <nAcid>
0

>  <nBase>
0

>  <nAromAtom>
9

>  <nAromBond>
10

>  <nAtom>
22

>  <nHeavyAtom>
14

>  <nSpiro>
0

>  <nBridgehead>
0

>  <nHetero>
6

>  <nN>
2

>  <nO>
3

>  <nF>
0

>  <BalabanJ>
1.94

>  <BertzCT>
558.73

>  <nBonds>
23

>  <nBondsO>
15

>  <nBondsS>
11

>  <nBondsD>
2

>  <nBondsT>
0

>  <nBondsA>
10

>  <nBondsM>
12

>  <nBondsKS>
17

>  <nBondsKD>
6

>  <RNCG>
0.28

>  <RPCG>
0.17

>  <FCSP3>
0.13

>  <SZ>
18.33

>  <Sm>
17.67

>  <Sv>
15.01

>  <Sse>
22.95

>  <Sp>
15.69

>  <Si>
24.79

>  <MZ>
0.83

>  <Mm>
0.8

>  <Mv>
0.68

>  <Mse>
1.04

>  <Mp>
0.71

>  <Mi>
1.13

>  <NsCH3>
0

>  <NdCH2>
0

>  <NssCH2>
1

>  <NtCH>
0

>  <NdsCH>
0

>  <NaaCH>
4

>  <NsssCH>
0

>  <NddC>
0

>  <NtsC>
0

>  <NdssC>
0

>  <NaasC>
1

>  <NaaaC>
2

>  <NssssC>
0

>  <NsNH3>
0

>  <NsNH2>
1

>  <NssNH2>
0

>  <NdNH>
0

>  <NssNH>
0

>  <NaaNH>
0

>  <NtN>
0

>  <NsssNH>
0

>  <NdsN>
0

>  <NaaN>
1

>  <NsssN>
0

>  <NddsN>
0

>  <NaasN>
0

>  <NssssN>
0

>  <NsOH>
0

>  <NdO>
2

>  <NssO>
0

>  <NaaO>
1

>  <NsF>
0

>  <NsSiH3>
0

>  <NssSiH2>
0

>  <NsssSiH>
0

>  <NssssSi>
0

>  <NsPH2>
0

>  <NssPH>
0

>  <NsssP>
0

>  <NdsssP>
0

>  <NsssssP>
0

>  <NsSH>
0

>  <NdS>
0

>  <NssS>
0

>  <NaaS>
0

>  <NdssS>
0

>  <NddssS>
1

>  <NsCl>
0

>  <NsBr>
0

>  <NsI>
0

>  <fragCpx>
43.06

>  <fMF>
0.41

>  <nHBAcc>
4

>  <nHBDon>
1

>  <Kier1>
10.52

>  <Kier2>
3.87

>  <Lipinski>
1

>  <GhoseFilter>
1

>  <FilterItLogS>
-2.29

>  <VMcGowan>
138.58

>  <LabuteASA>
80.54

>  <PEOE_VSA1>
4.52

>  <PEOE_VSA2>
0

>  <PEOE_VSA3>
13.56

>  <PEOE_VSA4>
0

>  <PEOE_VSA5>
0

>  <PEOE_VSA6>
17.29

>  <PEOE_VSA7>
12.13

>  <PEOE_VSA8>
5.39

>  <PEOE_VSA9>
0

>  <PEOE_VSA10>
11.45

>  <PEOE_VSA11>
5.58

>  <PEOE_VSA12>
10.02

>  <PEOE_VSA13>
0

>  <SMR_VSA1>
12.94

>  <SMR_VSA2>
0

>  <SMR_VSA3>
5.16

>  <SMR_VSA4>
5.14

>  <SMR_VSA5>
5.75

>  <SMR_VSA6>
0

>  <SMR_VSA7>
29.96

>  <SMR_VSA8>
0

>  <SMR_VSA9>
0

>  <SlogP_VSA1>
5.14

>  <SlogP_VSA2>
13.57

>  <SlogP_VSA3>
15.78

>  <SlogP_VSA4>
0

>  <SlogP_VSA5>
5.69

>  <SlogP_VSA6>
28.79

>  <SlogP_VSA7>
0

>  <SlogP_VSA8>
10.97

>  <SlogP_VSA9>
0

>  <SlogP_VSA10>
0

>  <SlogP_VSA11>
0

>  <EState_VSA1>
10.02

>  <EState_VSA2>
5.75

>  <EState_VSA3>
16.66

>  <EState_VSA4>
0

>  <EState_VSA5>
0

>  <EState_VSA6>
24.27

>  <EState_VSA7>
0

>  <EState_VSA8>
5.16

>  <EState_VSA9>
9.66

>  <EState_VSA10>
8.42

>  <VSA_EState1>
26.6

>  <VSA_EState2>
0

>  <VSA_EState3>
9.24

>  <VSA_EState4>
0.91

>  <VSA_EState5>
-0.3

>  <VSA_EState6>
7.03

>  <VSA_EState7>
0

>  <VSA_EState8>
0

>  <VSA_EState9>
-3.56

>  <apol>
26.2

>  <bpol>
15.85

>  <nRing>
2

>  <nHRing>
1

>  <naRing>
2

>  <naHRing>
1

>  <nARing 2>
0

>  <nAHRing 2>
0

>  <nFRing>
1

>  <nFHRing>
1

>  <nFaRing>
1

>  <nFaHRing>
1

>  <nFARing 2>
0

>  <nFAHRing 2>
0

>  <nRot>
2

>  <SLogP>
0.62

>  <SMR>
50.82

>  <TopoPSA(NO)>
86.19

>  <TopoPSA>
94.57

>  <JGI1>
0.27

>  <JGI2>
0.07

>  <JGI3>
0.07

>  <JGI4>
0.04

>  <JGI5>
0.05

>  <Diameter>
7

>  <Radius>
4

>  <TMWC10>
98.95

>  <TSRW10>
59.86

>  <MW>
212.03

>  <AMW>
9.64

>  <WPath>
293

>  <WPol>
17

>  <Zagreb1>
74

>  <Zagreb2>
84

>  <mZagreb2>
2.93

>  <yes>


>  <nAR-cont>
0.336376

>  <nHA-cont>
0.887625254

>  <MWHBN>
0.343377115

>  <MWHBN-cont>
0.694796958

>  <TPSA-cont>
0.339842676

>  <pka_cont>
0.97

>  <yes.1>


>  <BBB_SCORE>
3.430882042

>  <MMFF94 Energy>
-48.961

$$$$
Compound 1752
Actelion Java MolfileCreator 2.0

  0  0  0  0  0  0              0 V3000
M  V30 BEGIN CTAB
M  V30 COUNTS 32 33 0 0 0
M  V30 BEGIN ATOM
M  V30 1 Cl 1.8916 3.2091 -2.3032 0
M  V30 2 C 0.832 2.4169 -1.1935 0
M  V30 3 C 0.0026 3.0797 -0.2993 0
M  V30 4 C 0.8399 1.0131 -1.2048 0
M  V30 5 S -0.0834 4.8384 -0.2306 0
M  V30 6 C -0.8073 2.3382 0.5668 0
M  V30 7 C 0.0335 0.2252 -0.3512 0
M  V30 8 O -0.9163 5.2197 0.8882 0
M  V30 9 O -0.3115 5.3608 -1.5553 0
M  V30 10 N 1.4682 5.2831 0.2248 0
M  V30 11 C -0.7901 0.9275 0.5479 0
M  V30 12 N 0.1985 -1.1391 -0.4702 0
M  V30 13 C -1.7032 0.2839 1.5146 0
M  V30 14 C -0.5299 -2.2101 0.1921 0
M  V30 15 O -2.5969 -0.5046 1.2831 0
M  V30 16 O -1.435 0.7075 2.7643 0
M  V30 17 C 0.0219 -3.5716 -0.0954 0
M  V30 18 O 0.6164 -3.7553 -1.3134 0
M  V30 19 C 0.0646 -4.7459 0.6281 0
M  V30 20 C 1.0347 -5.0459 -1.3594 0
M  V30 21 C 0.7201 -5.697 -0.1902 0
M  V30 22 H 1.5055 0.51 -1.9069 0
M  V30 23 H -1.4653 2.8505 1.2692 0
M  V30 24 H 1.4419 5.7797 1.1161 0
M  V30 25 H 1.9156 5.8078 -0.5285 0
M  V30 26 H 0.7925 -1.4868 -1.2192 0
M  V30 27 H -1.5722 -2.2046 -0.1426 0
M  V30 28 H -0.4953 -2.0668 1.2774 0
M  V30 29 H -2.0941 0.249 3.3263 0
M  V30 30 H -0.3306 -4.8953 1.6234 0
M  V30 31 H 1.5288 -5.3447 -2.2734 0
M  V30 32 H 0.9358 -6.7305 0.0412 0
M  V30 END ATOM
M  V30 BEGIN BOND
M  V30 1 1 1 2
M  V30 2 2 2 3
M  V30 3 1 2 4
M  V30 4 1 3 5
M  V30 5 1 3 6
M  V30 6 2 4 7
M  V30 7 2 5 8
M  V30 8 2 5 9
M  V30 9 1 5 10
M  V30 10 2 6 11
M  V30 11 1 7 12
M  V30 12 1 11 13
M  V30 13 1 12 14
M  V30 14 2 13 15
M  V30 15 1 13 16
M  V30 16 1 14 17
M  V30 17 1 17 18
M  V30 18 2 17 19
M  V30 19 1 18 20
M  V30 20 1 19 21
M  V30 21 1 7 11
M  V30 22 2 20 21
M  V30 23 1 4 22
M  V30 24 1 6 23
M  V30 25 1 10 24
M  V30 26 1 10 25
M  V30 27 1 12 26
M  V30 28 1 14 27
M  V30 29 1 14 28
M  V30 30 1 16 29
M  V30 31 1 19 30
M  V30 32 1 20 31
M  V30 33 1 21 32
M  V30 END BOND
M  V30 END CTAB
M  END
>  <Column 1>
2144

>  <level_0>
2325

>  <index>
2325

>  <Unnamed: 0>
2325

>  <NO.>
2337

>  <Name>
furosemide

>  <IUPAC_name>
4-chloro-2-(furan-2-ylmethylamino)-5-sulfamoylbenzoic acid

>  <SMILES>
NS(=O)(=O)c1cc(C(=O)O)c(NCc2ccco2)cc1Cl

>  <CID>
3440

>  <logBB>


>  <BBB+/BBB->
BBB-

>  <Inchi>
InChI=1S/C12H11ClN2O5S/c13-9-5-10(15-6-7-2-1-3-20-7)8(12(16)17)4-11(9)21(14-18)19/h1-5-15H-6H2-(H-16-17)(H2-14-18-19)

>  <threshold>
-1

>  <reference>
R1|R7|R13|R19|R28|R9|R14|R15|R23|R24|R27|R27|R29|R30|R36|R50|

>  <group>
B

>  <Class>
-1

>  <ABC>
16.18

>  <ABCGG>
14.43

>  <nAcid>
1

>  <nBase>
0

>  <nAromAtom>
11

>  <nAromBond>
11

>  <nAtom>
32

>  <nHeavyAtom>
21

>  <nSpiro>
0

>  <nBridgehead>
0

>  <nHetero>
9

>  <nN>
2

>  <nO>
5

>  <nF>
0

>  <BalabanJ>
1.96

>  <BertzCT>
771.2

>  <nBonds>
33

>  <nBondsO>
22

>  <nBondsS>
19

>  <nBondsD>
3

>  <nBondsT>
0

>  <nBondsA>
11

>  <nBondsM>
14

>  <nBondsKS>
25

>  <nBondsKD>
8

>  <RNCG>
0.2

>  <RPCG>
0.14

>  <FCSP3>
0.08

>  <SZ>
28.33

>  <Sm>
27.54

>  <Sv>
22.35

>  <Sse>
33.71

>  <Sp>
23.15

>  <Si>
35.98

>  <MZ>
0.89

>  <Mm>
0.86

>  <Mv>
0.7

>  <Mse>
1.05

>  <Mp>
0.72

>  <Mi>
1.12

>  <NsCH3>
0

>  <NdCH2>
0

>  <NssCH2>
1

>  <NtCH>
0

>  <NdsCH>
0

>  <NaaCH>
5

>  <NsssCH>
0

>  <NddC>
0

>  <NtsC>
0

>  <NdssC>
1

>  <NaasC>
5

>  <NaaaC>
0

>  <NssssC>
0

>  <NsNH3>
0

>  <NsNH2>
1

>  <NssNH2>
0

>  <NdNH>
0

>  <NssNH>
1

>  <NaaNH>
0

>  <NtN>
0

>  <NsssNH>
0

>  <NdsN>
0

>  <NaaN>
0

>  <NsssN>
0

>  <NddsN>
0

>  <NaasN>
0

>  <NssssN>
0

>  <NsOH>
1

>  <NdO>
3

>  <NssO>
0

>  <NaaO>
1

>  <NsF>
0

>  <NsSiH3>
0

>  <NssSiH2>
0

>  <NsssSiH>
0

>  <NssssSi>
0

>  <NsPH2>
0

>  <NssPH>
0

>  <NsssP>
0

>  <NdsssP>
0

>  <NsssssP>
0

>  <NsSH>
0

>  <NdS>
0

>  <NssS>
0

>  <NaaS>
0

>  <NdssS>
0

>  <NddssS>
1

>  <NsCl>
1

>  <NsBr>
0

>  <NsI>
0

>  <fragCpx>
64.09

>  <fMF>
0.41

>  <nHBAcc>
5

>  <nHBDon>
3

>  <Kier1>
17.36

>  <Kier2>
7.05

>  <Lipinski>
1

>  <GhoseFilter>
1

>  <FilterItLogS>
-3.36

>  <VMcGowan>
210.32

>  <LabuteASA>
124.92

>  <PEOE_VSA1>
14.84

>  <PEOE_VSA2>
0

>  <PEOE_VSA3>
18.35

>  <PEOE_VSA4>
0

>  <PEOE_VSA5>
0

>  <PEOE_VSA6>
11.6

>  <PEOE_VSA7>
24.27

>  <PEOE_VSA8>
0

>  <PEOE_VSA9>
29.08

>  <PEOE_VSA10>
10.66

>  <PEOE_VSA11>
0

>  <PEOE_VSA12>
10.02

>  <PEOE_VSA13>
0

>  <SMR_VSA1>
22.74

>  <SMR_VSA2>
0

>  <SMR_VSA3>
0

>  <SMR_VSA4>
5.14

>  <SMR_VSA5>
11.44

>  <SMR_VSA6>
5.32

>  <SMR_VSA7>
46.87

>  <SMR_VSA8>
0

>  <SMR_VSA9>
0

>  <SlogP_VSA1>
10.46

>  <SlogP_VSA2>
19.49

>  <SlogP_VSA3>
16.57

>  <SlogP_VSA4>
0

>  <SlogP_VSA5>
16.12

>  <SlogP_VSA6>
39.84

>  <SlogP_VSA7>
5.02

>  <SlogP_VSA8>
0

>  <SlogP_VSA9>
0

>  <SlogP_VSA10>
5.69

>  <SlogP_VSA11>
0

>  <EState_VSA1>
20.89

>  <EState_VSA2>
22.82

>  <EState_VSA3>
5.76

>  <EState_VSA4>
6.07

>  <EState_VSA5>
12.33

>  <EState_VSA6>
12.13

>  <EState_VSA7>
0

>  <EState_VSA8>
5.32

>  <EState_VSA9>
26.26

>  <EState_VSA10>
13.21

>  <VSA_EState1>
27.8

>  <VSA_EState2>
10.79

>  <VSA_EState3>
16.81

>  <VSA_EState4>
-0.09

>  <VSA_EState5>
-0.73

>  <VSA_EState6>
5.51

>  <VSA_EState7>
1.48

>  <VSA_EState8>
0.22

>  <VSA_EState9>
-4.11

>  <apol>
38.66

>  <bpol>
20.81

>  <nRing>
2

>  <nHRing>
1

>  <naRing>
2

>  <naHRing>
1

>  <nARing 2>
0

>  <nAHRing 2>
0

>  <nFRing>
0

>  <nFHRing>
0

>  <nFaRing>
0

>  <nFaHRing>
0

>  <nFARing 2>
0

>  <nFAHRing 2>
0

>  <nRot>
5

>  <SLogP>
1.89

>  <SMR>
75.82

>  <TopoPSA(NO)>
122.63

>  <TopoPSA>
131.01

>  <JGI1>
0.27

>  <JGI2>
0.09

>  <JGI3>
0.06

>  <JGI4>
0.05

>  <JGI5>
0.05

>  <Diameter>
10

>  <Radius>
5

>  <TMWC10>
116.39

>  <TSRW10>
67.94

>  <MW>
330.01

>  <AMW>
10.31

>  <WPath>
939

>  <WPol>
30

>  <Zagreb1>
108

>  <Zagreb2>
124

>  <mZagreb2>
4.5

>  <yes>


>  <nAR-cont>
0.336376

>  <nHA-cont>
0.994529749

>  <MWHBN>
0.440378834

>  <MWHBN-cont>
0.320890917

>  <TPSA-cont>
0

>  <pka_cont>
0.97

>  <yes.1>


>  <BBB_SCORE>
2.297242124

>  <MMFF94 Energy>
-58.319

$$$$
Compound 1753
Actelion Java MolfileCreator 2.0

  0  0  0  0  0  0              0 V3000
M  V30 BEGIN CTAB
M  V30 COUNTS 28 29 0 0 0
M  V30 BEGIN ATOM
M  V30 1 Cl -3.6844 -1.3147 -0.1752 0
M  V30 2 C -2.0178 -0.8899 -0.018 0
M  V30 3 C -1.0487 -1.7223 0.5418 0
M  V30 4 C -1.6519 0.3891 -0.474 0
M  V30 5 S -1.4342 -3.3462 1.1155 0
M  V30 6 C 0.2737 -1.2759 0.6448 0
M  V30 7 C -0.3317 0.854 -0.398 0
M  V30 8 O -0.2624 -3.9007 1.7543 0
M  V30 9 O -2.147 -4.0599 0.0851 0
M  V30 10 N -2.5107 -3.0624 2.3702 0
M  V30 11 C 0.6069 0.0 0.1754 0
M  V30 12 N -0.0388 2.1337 -0.8221 0
M  V30 13 S 2.2599 0.5647 0.3546 0
M  V30 14 C 1.3095 2.6715 -0.9381 0 CFG=1
M  V30 15 O 3.0052 0.0665 -0.7766 0
M  V30 16 O 2.665 0.3299 1.7209 0
M  V30 17 N 2.0954 2.2137 0.1955 0
M  V30 18 C 1.952 2.4345 -2.3427 0
M  V30 19 Cl 0.8963 3.1313 -3.6278 0
M  V30 20 Cl 3.5581 3.2129 -2.469 0
M  V30 21 H -2.4217 1.0344 -0.8959 0
M  V30 22 H 1.0451 -1.9065 1.0866 0
M  V30 23 H -2.1254 -3.4208 3.2454 0
M  V30 24 H -3.4266 -3.4501 2.1366 0
M  V30 25 H -0.7536 2.6422 -1.3384 0
M  V30 26 H 1.2128 3.7588 -0.8122 0
M  V30 27 H 1.8961 2.667 1.0843 0
M  V30 28 H 2.0603 1.3766 -2.5867 0
M  V30 END ATOM
M  V30 BEGIN BOND
M  V30 1 1 1 2
M  V30 2 2 2 3
M  V30 3 1 2 4
M  V30 4 1 3 5
M  V30 5 1 3 6
M  V30 6 2 4 7
M  V30 7 2 5 8
M  V30 8 2 5 9
M  V30 9 1 5 10
M  V30 10 2 6 11
M  V30 11 1 7 12
M  V30 12 1 11 13
M  V30 13 1 12 14
M  V30 14 2 13 15
M  V30 15 2 13 16
M  V30 16 1 13 17
M  V30 17 1 14 18
M  V30 18 1 18 19
M  V30 19 1 18 20
M  V30 20 1 7 11
M  V30 21 1 14 17
M  V30 22 1 4 21
M  V30 23 1 6 22
M  V30 24 1 10 23
M  V30 25 1 10 24
M  V30 26 1 12 25
M  V30 27 1 14 26
M  V30 28 1 17 27
M  V30 29 1 18 28
M  V30 END BOND
M  V30 BEGIN COLLECTION
M  V30 MDLV30/STERAC1 ATOMS=(1 14)
M  V30 END COLLECTION
M  V30 END CTAB
M  END
>  <Column 1>
2145

>  <level_0>
2326

>  <index>
2326

>  <Unnamed: 0>
2326

>  <NO.>
2338

>  <Name>
trichlormethiazide

>  <IUPAC_name>
6-chloro-3-(dichloromethyl)-1-1-dioxo-3-4-dihydro-2h-1lambda6-2-4-benzothiadiazine-7-sulfonamide

>  <SMILES>
NS(=O)(=O)c1cc2c(cc1Cl)NC(C(Cl)Cl)NS2(=O)=O

>  <CID>
5560

>  <logBB>


>  <BBB+/BBB->
BBB-

>  <Inchi>
InChI=1S/C8H8Cl3N3O4S2/c9-3-1-4-6(2-5(3)19(12-15)16)20(17-18)14-8(13-4)7(10)11/h1-2-7-8-13-14H-(H2-12-15-16)

>  <threshold>
-1

>  <reference>
R1|R14|R23|R27|R30|

>  <group>
B

>  <Class>
-1

>  <ABC>
15.73

>  <ABCGG>
13.71

>  <nAcid>
0

>  <nBase>
0

>  <nAromAtom>
6

>  <nAromBond>
6

>  <nAtom>
28

>  <nHeavyAtom>
20

>  <nSpiro>
0

>  <nBridgehead>
0

>  <nHetero>
12

>  <nN>
3

>  <nO>
4

>  <nF>
0

>  <BalabanJ>
2.19

>  <BertzCT>
763.42

>  <nBonds>
29

>  <nBondsO>
21

>  <nBondsS>
19

>  <nBondsD>
4

>  <nBondsT>
0

>  <nBondsA>
6

>  <nBondsM>
10

>  <nBondsKS>
22

>  <nBondsKD>
7

>  <RNCG>
0.19

>  <RPCG>
0.13

>  <FCSP3>
0.25

>  <SZ>
32

>  <Sm>
31.69

>  <Sv>
20.95

>  <Sse>
30.31

>  <Sp>
22.48

>  <Si>
31.67

>  <MZ>
1.14

>  <Mm>
1.13

>  <Mv>
0.75

>  <Mse>
1.08

>  <Mp>
0.8

>  <Mi>
1.13

>  <NsCH3>
0

>  <NdCH2>
0

>  <NssCH2>
0

>  <NtCH>
0

>  <NdsCH>
0

>  <NaaCH>
2

>  <NsssCH>
2

>  <NddC>
0

>  <NtsC>
0

>  <NdssC>
0

>  <NaasC>
4

>  <NaaaC>
0

>  <NssssC>
0

>  <NsNH3>
0

>  <NsNH2>
1

>  <NssNH2>
0

>  <NdNH>
0

>  <NssNH>
2

>  <NaaNH>
0

>  <NtN>
0

>  <NsssNH>
0

>  <NdsN>
0

>  <NaaN>
0

>  <NsssN>
0

>  <NddsN>
0

>  <NaasN>
0

>  <NssssN>
0

>  <NsOH>
0

>  <NdO>
4

>  <NssO>
0

>  <NaaO>
0

>  <NsF>
0

>  <NsSiH3>
0

>  <NssSiH2>
0

>  <NsssSiH>
0

>  <NssssSi>
0

>  <NsPH2>
0

>  <NssPH>
0

>  <NsssP>
0

>  <NdsssP>
0

>  <NsssssP>
0

>  <NsSH>
0

>  <NdS>
0

>  <NssS>
0

>  <NaaS>
0

>  <NdssS>
0

>  <NddssS>
2

>  <NsCl>
3

>  <NsBr>
0

>  <NsI>
0

>  <fragCpx>
61.12

>  <fMF>
0.36

>  <nHBAcc>
5

>  <nHBDon>
3

>  <Kier1>
16.37

>  <Kier2>
5.33

>  <Lipinski>
1

>  <GhoseFilter>
1

>  <FilterItLogS>
-3.57

>  <VMcGowan>
211.8

>  <LabuteASA>
130.03

>  <PEOE_VSA1>
5.32

>  <PEOE_VSA2>
0

>  <PEOE_VSA3>
21.97

>  <PEOE_VSA4>
4.72

>  <PEOE_VSA5>
23.2

>  <PEOE_VSA6>
11.6

>  <PEOE_VSA7>
12.13

>  <PEOE_VSA8>
0

>  <PEOE_VSA9>
10.71

>  <PEOE_VSA10>
20.79

>  <PEOE_VSA11>
0

>  <PEOE_VSA12>
20.05

>  <PEOE_VSA13>
0

>  <SMR_VSA1>
16.84

>  <SMR_VSA2>
0

>  <SMR_VSA3>
4.72

>  <SMR_VSA4>
5.14

>  <SMR_VSA5>
20.79

>  <SMR_VSA6>
5.32

>  <SMR_VSA7>
17.16

>  <SMR_VSA8>
0

>  <SMR_VSA9>
0

>  <SlogP_VSA1>
15.18

>  <SlogP_VSA2>
27.84

>  <SlogP_VSA3>
20.05

>  <SlogP_VSA4>
0

>  <SlogP_VSA5>
0

>  <SlogP_VSA6>
21.92

>  <SlogP_VSA7>
5.02

>  <SlogP_VSA8>
0

>  <SlogP_VSA9>
0

>  <SlogP_VSA10>
5.69

>  <SlogP_VSA11>
0

>  <EState_VSA1>
35.94

>  <EState_VSA2>
15.61

>  <EState_VSA3>
0

>  <EState_VSA4>
12.13

>  <EState_VSA5>
0

>  <EState_VSA6>
0

>  <EState_VSA7>
0

>  <EState_VSA8>
10.04

>  <EState_VSA9>
39.94

>  <EState_VSA10>
16.84

>  <VSA_EState1>
48.9

>  <VSA_EState2>
-1.86

>  <VSA_EState3>
7.45

>  <VSA_EState4>
0.08

>  <VSA_EState5>
0

>  <VSA_EState6>
2.01

>  <VSA_EState7>
-0.97

>  <VSA_EState8>
0

>  <VSA_EState9>
-8.15

>  <apol>
37.54

>  <bpol>
23.44

>  <nRing>
2

>  <nHRing>
1

>  <naRing>
1

>  <naHRing>
0

>  <nARing 2>
1

>  <nAHRing 2>
1

>  <nFRing>
1

>  <nFHRing>
1

>  <nFaRing>
0

>  <nFaHRing>
0

>  <nFARing 2>
1

>  <nFAHRing 2>
1

>  <nRot>
2

>  <SLogP>
0.82

>  <SMR>
76.05

>  <TopoPSA(NO)>
118.36

>  <TopoPSA>
135.12

>  <JGI1>
0.38

>  <JGI2>
0.11

>  <JGI3>
0.07

>  <JGI4>
0.06

>  <JGI5>
0.05

>  <Diameter>
9

>  <Radius>
5

>  <TMWC10>
116.02

>  <TSRW10>
54.44

>  <MW>
378.9

>  <AMW>
13.53

>  <WPath>
738

>  <WPol>
35

>  <Zagreb1>
110

>  <Zagreb2>
130

>  <mZagreb2>
4.04

>  <yes>


>  <nAR-cont>
0.816016

>  <nHA-cont>
0.999629945

>  <MWHBN>
0.410986621

>  <MWHBN-cont>
0.432965908

>  <TPSA-cont>
0

>  <pka_cont>
0.97

>  <yes.1>


>  <BBB_SCORE>
2.950094807

>  <MMFF94 Energy>
-164.82

$$$$
Compound 1754
Actelion Java MolfileCreator 2.0

  0  0  0  0  0  0              0 V3000
M  V30 BEGIN CTAB
M  V30 COUNTS 23 24 0 0 0
M  V30 BEGIN ATOM
M  V30 1 Cl -0.69 -2.8488 -1.8122 0
M  V30 2 C -0.2373 -1.4774 -0.8645 0
M  V30 3 C -0.4297 -0.1523 -1.2637 0
M  V30 4 C 0.3445 -1.7491 0.3866 0
M  V30 5 S -1.133 0.2546 -2.831 0
M  V30 6 C -0.0414 0.8934 -0.4171 0
M  V30 7 C 0.737 -0.7157 1.2453 0
M  V30 8 O -0.4396 -0.4699 -3.8672 0
M  V30 9 O -1.323 1.6855 -2.8973 0
M  V30 10 N -2.6838 -0.377 -2.7263 0
M  V30 11 C 0.5319 0.5924 0.8231 0
M  V30 12 N 1.3123 -0.9939 2.4836 0
M  V30 13 S 1.0127 1.9154 1.8974 0
M  V30 14 C 1.706 -0.0131 3.3448 0
M  V30 15 O -0.2251 2.5841 2.2474 0
M  V30 16 O 2.0614 2.6183 1.1851 0
M  V30 17 N 1.6442 1.2625 3.2363 0
M  V30 18 H 0.4884 -2.7856 0.6872 0
M  V30 19 H -0.1773 1.9351 -0.7081 0
M  V30 20 H -2.8025 -1.1213 -3.4157 0
M  V30 21 H -3.3696 0.3748 -2.814 0
M  V30 22 H 1.4452 -1.9649 2.7435 0
M  V30 23 H 2.1405 -0.435 4.2674 0
M  V30 END ATOM
M  V30 BEGIN BOND
M  V30 1 1 1 2
M  V30 2 2 2 3
M  V30 3 1 2 4
M  V30 4 1 3 5
M  V30 5 1 3 6
M  V30 6 2 4 7
M  V30 7 2 5 8
M  V30 8 2 5 9
M  V30 9 1 5 10
M  V30 10 2 6 11
M  V30 11 1 7 12
M  V30 12 1 11 13
M  V30 13 1 12 14
M  V30 14 2 13 15
M  V30 15 2 13 16
M  V30 16 1 13 17
M  V30 17 1 7 11
M  V30 18 2 14 17
M  V30 19 1 4 18
M  V30 20 1 6 19
M  V30 21 1 10 20
M  V30 22 1 10 21
M  V30 23 1 12 22
M  V30 24 1 14 23
M  V30 END BOND
M  V30 END CTAB
M  END
>  <Column 1>
2146

>  <level_0>
2327

>  <index>
2327

>  <Unnamed: 0>
2327

>  <NO.>
2339

>  <Name>
chlorothiazide sodium

>  <IUPAC_name>
6-chloro-1-1-dioxo-4h-1lambda6-2-4-benzothiadiazine-7-sulfonamide

>  <SMILES>
NS(=O)(=O)c1cc2c(cc1Cl)NC=NS2(=O)=O

>  <CID>
2720

>  <logBB>


>  <BBB+/BBB->
BBB-

>  <Inchi>
InChI=1S/C7H6ClN3O4S2/c8-4-1-5-7(2-6(4)16(9-12)13)17(14-15)11-3-10-5/h1-3H-(H-10-11)(H2-9-12-13)

>  <threshold>
-1

>  <reference>
R1|R13|R19|R28|R9|R14|R23|R23|R24|R27|R27|R27|R30|R34|R36|

>  <group>
B

>  <Class>
1

>  <ABC>
13.43

>  <ABCGG>
11.8

>  <nAcid>
0

>  <nBase>
2

>  <nAromAtom>
6

>  <nAromBond>
6

>  <nAtom>
23

>  <nHeavyAtom>
17

>  <nSpiro>
0

>  <nBridgehead>
0

>  <nHetero>
10

>  <nN>
3

>  <nO>
4

>  <nF>
0

>  <BalabanJ>
2.18

>  <BertzCT>
723.73

>  <nBonds>
24

>  <nBondsO>
18

>  <nBondsS>
13

>  <nBondsD>
5

>  <nBondsT>
0

>  <nBondsA>
6

>  <nBondsM>
11

>  <nBondsKS>
16

>  <nBondsKD>
8

>  <RNCG>
0.21

>  <RPCG>
0.17

>  <FCSP3>
0

>  <SZ>
25

>  <Sm>
24.62

>  <Sv>
17.22

>  <Sse>
24.89

>  <Sp>
18.07

>  <Si>
25.95

>  <MZ>
1.09

>  <Mm>
1.07

>  <Mv>
0.75

>  <Mse>
1.08

>  <Mp>
0.79

>  <Mi>
1.13

>  <NsCH3>
0

>  <NdCH2>
0

>  <NssCH2>
0

>  <NtCH>
0

>  <NdsCH>
1

>  <NaaCH>
2

>  <NsssCH>
0

>  <NddC>
0

>  <NtsC>
0

>  <NdssC>
0

>  <NaasC>
4

>  <NaaaC>
0

>  <NssssC>
0

>  <NsNH3>
0

>  <NsNH2>
1

>  <NssNH2>
0

>  <NdNH>
0

>  <NssNH>
1

>  <NaaNH>
0

>  <NtN>
0

>  <NsssNH>
0

>  <NdsN>
1

>  <NaaN>
0

>  <NsssN>
0

>  <NddsN>
0

>  <NaasN>
0

>  <NssssN>
0

>  <NsOH>
0

>  <NdO>
4

>  <NssO>
0

>  <NaaO>
0

>  <NsF>
0

>  <NsSiH3>
0

>  <NssSiH2>
0

>  <NsssSiH>
0

>  <NssssSi>
0

>  <NsPH2>
0

>  <NssPH>
0

>  <NsssP>
0

>  <NdsssP>
0

>  <NsssssP>
0

>  <NsSH>
0

>  <NdS>
0

>  <NssS>
0

>  <NaaS>
0

>  <NdssS>
0

>  <NddssS>
2

>  <NsCl>
1

>  <NsBr>
0

>  <NsI>
0

>  <fragCpx>
52.1

>  <fMF>
0.43

>  <nHBAcc>
5

>  <nHBDon>
2

>  <Kier1>
13.43

>  <Kier2>
4.28

>  <Lipinski>
1

>  <GhoseFilter>
1

>  <FilterItLogS>
-2.33

>  <VMcGowan>
168.93

>  <LabuteASA>
102.4

>  <PEOE_VSA1>
5.32

>  <PEOE_VSA2>
0

>  <PEOE_VSA3>
13.56

>  <PEOE_VSA4>
8.42

>  <PEOE_VSA5>
4.4

>  <PEOE_VSA6>
11.6

>  <PEOE_VSA7>
12.13

>  <PEOE_VSA8>
0

>  <PEOE_VSA9>
10.71

>  <PEOE_VSA10>
16.13

>  <PEOE_VSA11>
0

>  <PEOE_VSA12>
10.02

>  <PEOE_VSA13>
10.02

>  <SMR_VSA1>
16.84

>  <SMR_VSA2>
0

>  <SMR_VSA3>
0

>  <SMR_VSA4>
9.54

>  <SMR_VSA5>
9.79

>  <SMR_VSA6>
5.32

>  <SMR_VSA7>
17.16

>  <SMR_VSA8>
0

>  <SMR_VSA9>
0

>  <SlogP_VSA1>
10.46

>  <SlogP_VSA2>
23.17

>  <SlogP_VSA3>
20.05

>  <SlogP_VSA4>
0

>  <SlogP_VSA5>
0

>  <SlogP_VSA6>
26.32

>  <SlogP_VSA7>
5.02

>  <SlogP_VSA8>
0

>  <SlogP_VSA9>
0

>  <SlogP_VSA10>
5.69

>  <SlogP_VSA11>
0

>  <EState_VSA1>
24.94

>  <EState_VSA2>
15.61

>  <EState_VSA3>
0

>  <EState_VSA4>
12.4

>  <EState_VSA5>
6.07

>  <EState_VSA6>
0

>  <EState_VSA7>
0

>  <EState_VSA8>
9.71

>  <EState_VSA9>
16.74

>  <EState_VSA10>
16.84

>  <VSA_EState1>
48.69

>  <VSA_EState2>
-0.74

>  <VSA_EState3>
7.3

>  <VSA_EState4>
0.15

>  <VSA_EState5>
0

>  <VSA_EState6>
2.05

>  <VSA_EState7>
0.98

>  <VSA_EState8>
0

>  <VSA_EState9>
-8.01

>  <apol>
30.18

>  <bpol>
20.98

>  <nRing>
2

>  <nHRing>
1

>  <naRing>
1

>  <naHRing>
0

>  <nARing 2>
1

>  <nAHRing 2>
1

>  <nFRing>
1

>  <nFHRing>
1

>  <nFaRing>
0

>  <nFaHRing>
0

>  <nFARing 2>
1

>  <nFAHRing 2>
1

>  <nRot>
1

>  <SLogP>
0.13

>  <SMR>
62.13

>  <TopoPSA(NO)>
118.69

>  <TopoPSA>
135.45

>  <JGI1>
0.36

>  <JGI2>
0.11

>  <JGI3>
0.07

>  <JGI4>
0.06

>  <JGI5>
0.07

>  <Diameter>
7

>  <Radius>
4

>  <TMWC10>
108.43

>  <TSRW10>
50.68

>  <MW>
294.95

>  <AMW>
12.82

>  <WPath>
460

>  <WPol>
29

>  <Zagreb1>
94

>  <Zagreb2>
111

>  <mZagreb2>
3.43

>  <yes>


>  <nAR-cont>
0.816016

>  <nHA-cont>
0.976740822

>  <MWHBN>
0.4075903

>  <MWHBN-cont>
0.446249359

>  <TPSA-cont>
0

>  <pka_cont>
0.97

>  <yes.1>


>  <BBB_SCORE>
2.94713086

>  <MMFF94 Energy>
-124.21

$$$$
Compound 1755
Actelion Java MolfileCreator 2.0

  0  0  0  0  0  0              0 V3000
M  V30 BEGIN CTAB
M  V30 COUNTS 20 20 0 0 0
M  V30 BEGIN ATOM
M  V30 1 S 1.4718 -1.1446 -2.0446 0
M  V30 2 O 1.9736 -2.4449 -1.6679 0
M  V30 3 O 2.299 -0.148 -2.683 0
M  V30 4 N 0.1931 -1.4265 -3.0944 0
M  V30 5 C 0.6487 -0.4152 -0.6575 0
M  V30 6 C 0.5219 0.9752 -0.581 0
M  V30 7 C 0.1734 -1.2331 0.3717 0
M  V30 8 C -0.106 1.5512 0.5269 0
M  V30 9 C -0.4539 -0.6534 1.4773 0
M  V30 10 C -0.5978 0.7391 1.5587 0
M  V30 11 C -1.2712 1.3061 2.7528 0
M  V30 12 O -1.7247 0.6681 3.6845 0
M  V30 13 O -1.3455 2.648 2.722 0
M  V30 14 H 0.0966 -2.4286 -3.2612 0
M  V30 15 H 0.3176 -0.879 -3.9465 0
M  V30 16 H 0.9072 1.6136 -1.3734 0
M  V30 17 H 0.2871 -2.314 0.3221 0
M  V30 18 H -0.2038 2.6335 0.5783 0
M  V30 19 H -0.8272 -1.2903 2.2779 0
M  V30 20 H -1.8027 2.8778 3.5584 0
M  V30 END ATOM
M  V30 BEGIN BOND
M  V30 1 2 1 2
M  V30 2 2 1 3
M  V30 3 1 1 4
M  V30 4 1 1 5
M  V30 5 2 5 6
M  V30 6 1 5 7
M  V30 7 1 6 8
M  V30 8 2 7 9
M  V30 9 2 8 10
M  V30 10 1 10 11
M  V30 11 2 11 12
M  V30 12 1 11 13
M  V30 13 1 9 10
M  V30 14 1 4 14
M  V30 15 1 4 15
M  V30 16 1 6 16
M  V30 17 1 7 17
M  V30 18 1 8 18
M  V30 19 1 9 19
M  V30 20 1 13 20
M  V30 END BOND
M  V30 END CTAB
M  END
>  <Column 1>
2147

>  <level_0>
2328

>  <index>
2328

>  <Unnamed: 0>
2328

>  <NO.>
2340

>  <Name>
4-sulfamoylbenzoic acid

>  <IUPAC_name>
4-sulfamoylbenzoic acid

>  <SMILES>
NS(=O)(=O)c1ccc(C(=O)O)cc1

>  <CID>
8739

>  <logBB>


>  <BBB+/BBB->
BBB+

>  <Inchi>
InChI=1S/C7H7NO4S/c8-13(11-12)6-3-1-5(2-4-6)7(9)10/h1-4H-(H-9-10)(H2-8-11-12)

>  <threshold>
-1

>  <reference>
R1|R13|R19|R6|R24|R27|R27|R27|R30|R30|

>  <group>
B

>  <Class>
1

>  <ABC>
9.79

>  <ABCGG>
9.02

>  <nAcid>
1

>  <nBase>
0

>  <nAromAtom>
6

>  <nAromBond>
6

>  <nAtom>
20

>  <nHeavyAtom>
13

>  <nSpiro>
0

>  <nBridgehead>
0

>  <nHetero>
6

>  <nN>
1

>  <nO>
4

>  <nF>
0

>  <BalabanJ>
2.39

>  <BertzCT>
420.31

>  <nBonds>
20

>  <nBondsO>
13

>  <nBondsS>
11

>  <nBondsD>
3

>  <nBondsT>
0

>  <nBondsA>
6

>  <nBondsM>
9

>  <nBondsKS>
14

>  <nBondsKD>
6

>  <RNCG>
0.31

>  <RPCG>
0.22

>  <FCSP3>
0

>  <SZ>
17.33

>  <Sm>
16.75

>  <Sv>
13.7

>  <Sse>
21.17

>  <Sp>
14.11

>  <Si>
22.5

>  <MZ>
0.87

>  <Mm>
0.84

>  <Mv>
0.69

>  <Mse>
1.06

>  <Mp>
0.71

>  <Mi>
1.13

>  <NsCH3>
0

>  <NdCH2>
0

>  <NssCH2>
0

>  <NtCH>
0

>  <NdsCH>
0

>  <NaaCH>
4

>  <NsssCH>
0

>  <NddC>
0

>  <NtsC>
0

>  <NdssC>
1

>  <NaasC>
2

>  <NaaaC>
0

>  <NssssC>
0

>  <NsNH3>
0

>  <NsNH2>
1

>  <NssNH2>
0

>  <NdNH>
0

>  <NssNH>
0

>  <NaaNH>
0

>  <NtN>
0

>  <NsssNH>
0

>  <NdsN>
0

>  <NaaN>
0

>  <NsssN>
0

>  <NddsN>
0

>  <NaasN>
0

>  <NssssN>
0

>  <NsOH>
1

>  <NdO>
3

>  <NssO>
0

>  <NaaO>
0

>  <NsF>
0

>  <NsSiH3>
0

>  <NssSiH2>
0

>  <NsssSiH>
0

>  <NssssSi>
0

>  <NsPH2>
0

>  <NssPH>
0

>  <NsssP>
0

>  <NdsssP>
0

>  <NsssssP>
0

>  <NsSH>
0

>  <NdS>
0

>  <NssS>
0

>  <NaaS>
0

>  <NdssS>
0

>  <NddssS>
1

>  <NsCl>
0

>  <NsBr>
0

>  <NsI>
0

>  <fragCpx>
13.06

>  <fMF>
0.3

>  <nHBAcc>
3

>  <nHBDon>
2

>  <Kier1>
11.08

>  <Kier2>
4.02

>  <Lipinski>
1

>  <GhoseFilter>
1

>  <FilterItLogS>
-0.74

>  <VMcGowan>
131.24

>  <LabuteASA>
74.85

>  <PEOE_VSA1>
5.11

>  <PEOE_VSA2>
0

>  <PEOE_VSA3>
18.35

>  <PEOE_VSA4>
0

>  <PEOE_VSA5>
0

>  <PEOE_VSA6>
0

>  <PEOE_VSA7>
24.27

>  <PEOE_VSA8>
0

>  <PEOE_VSA9>
10.46

>  <PEOE_VSA10>
0

>  <PEOE_VSA11>
0

>  <PEOE_VSA12>
10.02

>  <PEOE_VSA13>
0

>  <SMR_VSA1>
18.32

>  <SMR_VSA2>
0

>  <SMR_VSA3>
0

>  <SMR_VSA4>
5.14

>  <SMR_VSA5>
4.9

>  <SMR_VSA6>
0

>  <SMR_VSA7>
29.83

>  <SMR_VSA8>
0

>  <SMR_VSA9>
0

>  <SlogP_VSA1>
5.14

>  <SlogP_VSA2>
19.49

>  <SlogP_VSA3>
10.02

>  <SlogP_VSA4>
0

>  <SlogP_VSA5>
10.36

>  <SlogP_VSA6>
29.16

>  <SlogP_VSA7>
0

>  <SlogP_VSA8>
0

>  <SlogP_VSA9>
0

>  <SlogP_VSA10>
0

>  <SlogP_VSA11>
0

>  <EState_VSA1>
15.99

>  <EState_VSA2>
10.46

>  <EState_VSA3>
0

>  <EState_VSA4>
12.13

>  <EState_VSA5>
12.13

>  <EState_VSA6>
0

>  <EState_VSA7>
0

>  <EState_VSA8>
0

>  <EState_VSA9>
10.25

>  <EState_VSA10>
13.21

>  <VSA_EState1>
21.49

>  <VSA_EState2>
10.28

>  <VSA_EState3>
13.31

>  <VSA_EState4>
0.02

>  <VSA_EState5>
-1.11

>  <VSA_EState6>
4.67

>  <VSA_EState7>
0

>  <VSA_EState8>
0

>  <VSA_EState9>
-3.74

>  <apol>
23.57

>  <bpol>
13.98

>  <nRing>
1

>  <nHRing>
0

>  <naRing>
1

>  <naHRing>
0

>  <nARing 2>
0

>  <nAHRing 2>
0

>  <nFRing>
0

>  <nFHRing>
0

>  <nFaRing>
0

>  <nFaHRing>
0

>  <nFARing 2>
0

>  <nFAHRing 2>
0

>  <nRot>
2

>  <SLogP>
0.03

>  <SMR>
44.77

>  <TopoPSA(NO)>
97.46

>  <TopoPSA>
105.84

>  <JGI1>
0.35

>  <JGI2>
0.12

>  <JGI3>
0.06

>  <JGI4>
0.04

>  <JGI5>
0.08

>  <Diameter>
7

>  <Radius>
4

>  <TMWC10>
93.61

>  <TSRW10>
44.2

>  <MW>
201.01

>  <AMW>
10.05

>  <WPath>
252

>  <WPol>
17

>  <Zagreb1>
64

>  <Zagreb2>
71

>  <mZagreb2>
2.78

>  <yes>


>  <nAR-cont>
0.336376

>  <nHA-cont>
0.841215992

>  <MWHBN>
0.352664035

>  <MWHBN-cont>
0.660256378

>  <TPSA-cont>
0.261171077

>  <pka_cont>
0.97

>  <yes.1>


>  <BBB_SCORE>
3.175318714

>  <MMFF94 Energy>
-62.649

$$$$
Compound 1756
Actelion Java MolfileCreator 2.0

  0  0  0  0  0  0              0 V3000
M  V30 BEGIN CTAB
M  V30 COUNTS 37 39 0 0 0
M  V30 BEGIN ATOM
M  V30 1 Cl 2.0658 -0.5781 -1.1564 0
M  V30 2 C 1.0151 -1.6244 -0.2673 0
M  V30 3 C -0.295 -1.246 0.0739 0
M  V30 4 C 1.5222 -2.8575 0.1461 0
M  V30 5 N -0.84 -0.0189 -0.3454 0
M  V30 6 C -1.0831 -2.1058 0.853 0
M  V30 7 C 0.7158 -3.7142 0.9003 0
M  V30 8 C -1.1498 1.0048 0.5129 0
M  V30 9 C -1.1724 0.2504 -1.6469 0
M  V30 10 C -0.579 -3.34 1.2683 0
M  V30 11 S 1.373 -5.2643 1.4417 0
M  V30 12 O -1.0972 0.9895 1.7353 0
M  V30 13 C -1.5756 2.1968 -0.3157 0 CFG=2
M  V30 14 O -1.0535 -0.4832 -2.6176 0
M  V30 15 C -1.8167 1.605 -1.7031 0
M  V30 16 O 0.525 -5.8047 2.4776 0
M  V30 17 O 2.8031 -5.1398 1.5919 0
M  V30 18 N 1.1246 -6.2295 0.0926 0
M  V30 19 C -0.5518 3.3139 -0.2655 0
M  V30 20 C -0.8048 4.4385 0.5363 0
M  V30 21 C 0.6646 3.2523 -0.9639 0
M  V30 22 C 0.1217 5.4792 0.622 0
M  V30 23 C 1.5899 4.2947 -0.8763 0
M  V30 24 C 1.3178 5.4083 -0.0862 0
M  V30 25 H 2.539 -3.1454 -0.1116 0
M  V30 26 H -2.0918 -1.8198 1.1442 0
M  V30 27 H -1.1982 -3.9971 1.8762 0
M  V30 28 H -2.5351 2.5604 0.0736 0
M  V30 29 H -1.407 2.1987 -2.5245 0
M  V30 30 H -2.8887 1.4555 -1.8757 0
M  V30 31 H 0.482 -6.9887 0.3219 0
M  V30 32 H 2.0205 -6.5502 -0.2764 0
M  V30 33 H -1.7256 4.512 1.1123 0
M  V30 34 H 0.9201 2.3962 -1.5838 0
M  V30 35 H -0.0877 6.3426 1.2485 0
M  V30 36 H 2.5283 4.2339 -1.4221 0
M  V30 37 H 2.0411 6.2164 -0.0161 0
M  V30 END ATOM
M  V30 BEGIN BOND
M  V30 1 1 1 2
M  V30 2 2 2 3
M  V30 3 1 2 4
M  V30 4 1 3 5
M  V30 5 1 3 6
M  V30 6 2 4 7
M  V30 7 1 5 8
M  V30 8 1 5 9
M  V30 9 2 6 10
M  V30 10 1 7 11
M  V30 11 2 8 12
M  V30 12 1 8 13
M  V30 13 2 9 14
M  V30 14 1 9 15
M  V30 15 2 11 16
M  V30 16 2 11 17
M  V30 17 1 11 18
M  V30 18 1 13 19
M  V30 19 2 19 20
M  V30 20 1 19 21
M  V30 21 1 20 22
M  V30 22 2 21 23
M  V30 23 2 22 24
M  V30 24 1 7 10
M  V30 25 1 13 15
M  V30 26 1 23 24
M  V30 27 1 4 25
M  V30 28 1 6 26
M  V30 29 1 10 27
M  V30 30 1 13 28
M  V30 31 1 15 29
M  V30 32 1 15 30
M  V30 33 1 18 31
M  V30 34 1 18 32
M  V30 35 1 20 33
M  V30 36 1 21 34
M  V30 37 1 22 35
M  V30 38 1 23 36
M  V30 39 1 24 37
M  V30 END BOND
M  V30 BEGIN COLLECTION
M  V30 MDLV30/STERAC1 ATOMS=(1 13)
M  V30 END COLLECTION
M  V30 END CTAB
M  END
>  <Column 1>
2148

>  <level_0>
2329

>  <index>
2329

>  <Unnamed: 0>
2329

>  <NO.>
2341

>  <Name>
suclofenide

>  <IUPAC_name>
3-chloro-4-(2-5-dioxo-3-phenylpyrrolidin-1-yl)benzenesulfonamide

>  <SMILES>
NS(=O)(=O)c1ccc(N2C(=O)CC(c3ccccc3)C2=O)c(Cl)c1

>  <CID>
72094

>  <logBB>


>  <BBB+/BBB->
BBB+

>  <Inchi>
InChI=1S/C16H13ClN2O4S/c17-13-8-11(24(18-22)23)6-7-14(13)19-15(20)9-12(16(19)21)10-4-2-1-3-5-10/h1-8-12H-9H2-(H2-18-22-23)

>  <threshold>
-1

>  <reference>
R1|R19|R6|R27|R27|R30|

>  <group>
B

>  <Class>
1

>  <ABC>
18.89

>  <ABCGG>
15.79

>  <nAcid>
0

>  <nBase>
0

>  <nAromAtom>
12

>  <nAromBond>
12

>  <nAtom>
37

>  <nHeavyAtom>
24

>  <nSpiro>
0

>  <nBridgehead>
0

>  <nHetero>
8

>  <nN>
2

>  <nO>
4

>  <nF>
0

>  <BalabanJ>
1.66

>  <BertzCT>
928.35

>  <nBonds>
39

>  <nBondsO>
26

>  <nBondsS>
23

>  <nBondsD>
4

>  <nBondsT>
0

>  <nBondsA>
12

>  <nBondsM>
16

>  <nBondsKS>
29

>  <nBondsKD>
10

>  <RNCG>
0.14

>  <RPCG>
0.12

>  <FCSP3>
0.13

>  <SZ>
31.33

>  <Sm>
30.37

>  <Sv>
26.17

>  <Sse>
38.26

>  <Sp>
27.47

>  <Si>
41.19

>  <MZ>
0.85

>  <Mm>
0.82

>  <Mv>
0.71

>  <Mse>
1.03

>  <Mp>
0.74

>  <Mi>
1.11

>  <NsCH3>
0

>  <NdCH2>
0

>  <NssCH2>
1

>  <NtCH>
0

>  <NdsCH>
0

>  <NaaCH>
8

>  <NsssCH>
1

>  <NddC>
0

>  <NtsC>
0

>  <NdssC>
2

>  <NaasC>
4

>  <NaaaC>
0

>  <NssssC>
0

>  <NsNH3>
0

>  <NsNH2>
1

>  <NssNH2>
0

>  <NdNH>
0

>  <NssNH>
0

>  <NaaNH>
0

>  <NtN>
0

>  <NsssNH>
0

>  <NdsN>
0

>  <NaaN>
0

>  <NsssN>
1

>  <NddsN>
0

>  <NaasN>
0

>  <NssssN>
0

>  <NsOH>
0

>  <NdO>
4

>  <NssO>
0

>  <NaaO>
0

>  <NsF>
0

>  <NsSiH3>
0

>  <NssSiH2>
0

>  <NsssSiH>
0

>  <NssssSi>
0

>  <NsPH2>
0

>  <NssPH>
0

>  <NsssP>
0

>  <NdsssP>
0

>  <NsssssP>
0

>  <NsSH>
0

>  <NdS>
0

>  <NssS>
0

>  <NaaS>
0

>  <NdssS>
0

>  <NddssS>
1

>  <NsCl>
1

>  <NsBr>
0

>  <NsI>
0

>  <fragCpx>
124.08

>  <fMF>
0.46

>  <nHBAcc>
4

>  <nHBDon>
1

>  <Kier1>
18.78

>  <Kier2>
7.32

>  <Lipinski>
1

>  <GhoseFilter>
1

>  <FilterItLogS>
-3.83

>  <VMcGowan>
241.35

>  <LabuteASA>
143.43

>  <PEOE_VSA1>
0

>  <PEOE_VSA2>
9.59

>  <PEOE_VSA3>
18.46

>  <PEOE_VSA4>
0

>  <PEOE_VSA5>
0

>  <PEOE_VSA6>
41.93

>  <PEOE_VSA7>
23.76

>  <PEOE_VSA8>
6.42

>  <PEOE_VSA9>
21.52

>  <PEOE_VSA10>
0

>  <PEOE_VSA11>
0

>  <PEOE_VSA12>
21.84

>  <PEOE_VSA13>
0

>  <SMR_VSA1>
18.01

>  <SMR_VSA2>
0

>  <SMR_VSA3>
0

>  <SMR_VSA4>
5.14

>  <SMR_VSA5>
17.23

>  <SMR_VSA6>
4.9

>  <SMR_VSA7>
59.12

>  <SMR_VSA8>
0

>  <SMR_VSA9>
0

>  <SlogP_VSA1>
10.04

>  <SlogP_VSA2>
20.23

>  <SlogP_VSA3>
19.61

>  <SlogP_VSA4>
0

>  <SlogP_VSA5>
17.9

>  <SlogP_VSA6>
53.43

>  <SlogP_VSA7>
5.02

>  <SlogP_VSA8>
0

>  <SlogP_VSA9>
0

>  <SlogP_VSA10>
5.69

>  <SlogP_VSA11>
0

>  <EState_VSA1>
21.85

>  <EState_VSA2>
27.93

>  <EState_VSA3>
0

>  <EState_VSA4>
16.53

>  <EState_VSA5>
12.13

>  <EState_VSA6>
24.27

>  <EState_VSA7>
6.07

>  <EState_VSA8>
0

>  <EState_VSA9>
16.74

>  <EState_VSA10>
18.01

>  <VSA_EState1>
22.71

>  <VSA_EState2>
25.77

>  <VSA_EState3>
5.02

>  <VSA_EState4>
0.9

>  <VSA_EState5>
-1.36

>  <VSA_EState6>
12.63

>  <VSA_EState7>
0.04

>  <VSA_EState8>
0

>  <VSA_EState9>
-3.92

>  <apol>
45.88

>  <bpol>
23.08

>  <nRing>
3

>  <nHRing>
1

>  <naRing>
2

>  <naHRing>
0

>  <nARing 2>
1

>  <nAHRing 2>
1

>  <nFRing>
0

>  <nFHRing>
0

>  <nFaRing>
0

>  <nFaHRing>
0

>  <nFARing 2>
0

>  <nFAHRing 2>
0

>  <nRot>
3

>  <SLogP>
2.03

>  <SMR>
89.12

>  <TopoPSA(NO)>
97.54

>  <TopoPSA>
105.92

>  <JGI1>
0.23

>  <JGI2>
0.09

>  <JGI3>
0.07

>  <JGI4>
0.05

>  <JGI5>
0.03

>  <Diameter>
12

>  <Radius>
6

>  <TMWC10>
126.14

>  <TSRW10>
73.25

>  <MW>
364.03

>  <AMW>
9.84

>  <WPath>
1327

>  <WPol>
40

>  <Zagreb1>
130

>  <Zagreb2>
155

>  <mZagreb2>
5.08

>  <yes>


>  <nAR-cont>
0.816016

>  <nHA-cont>
0.94700071

>  <MWHBN>
0.26206041

>  <MWHBN-cont>
0.937260966

>  <TPSA-cont>
0.260612628

>  <pka_cont>
0.97

>  <yes.1>


>  <BBB_SCORE>
4.175133415

>  <MMFF94 Energy>
-49.215

$$$$
Compound 1757
Actelion Java MolfileCreator 2.0

  0  0  0  0  0  0              0 V3000
M  V30 BEGIN CTAB
M  V30 COUNTS 32 33 0 0 0
M  V30 BEGIN ATOM
M  V30 1 S -1.078 1.244 -1.7419 0
M  V30 2 O 0.1235 1.2126 -2.548 0
M  V30 3 O -2.199 0.3716 -2.0277 0
M  V30 4 N -0.6486 1.0539 -0.0962 0
M  V30 5 C -1.669 2.9254 -1.6923 0
M  V30 6 C 0.1697 -0.0955 0.173 0
M  V30 7 C -1.7634 1.2783 0.8579 0
M  V30 8 C -2.7358 3.1083 -0.6215 0
M  V30 9 C -0.3088 -1.3994 0.0081 0
M  V30 10 C 1.4564 0.1226 0.6712 0
M  V30 11 C -2.2276 2.7321 0.771 0
M  V30 12 C 0.5098 -2.4876 0.3179 0
M  V30 13 C 2.2799 -0.9609 0.9829 0
M  V30 14 C 1.8054 -2.2622 0.793 0
M  V30 15 S 2.8327 -3.6399 1.2142 0
M  V30 16 O 1.9969 -4.7812 1.5052 0
M  V30 17 O 3.8758 -3.1972 2.11 0
M  V30 18 N 3.5851 -3.9721 -0.2468 0
M  V30 19 H -0.8058 3.5734 -1.5092 0
M  V30 20 H -2.0711 3.1556 -2.6835 0
M  V30 21 H -1.4165 1.0869 1.8809 0
M  V30 22 H -2.5909 0.5873 0.6598 0
M  V30 23 H -3.0641 4.154 -0.6154 0
M  V30 24 H -3.6154 2.4991 -0.8623 0
M  V30 25 H -1.314 -1.5784 -0.3658 0
M  V30 26 H 1.8223 1.1366 0.8092 0
M  V30 27 H -1.4011 3.3993 1.0463 0
M  V30 28 H -3.0284 2.8967 1.5012 0
M  V30 29 H 0.1333 -3.4994 0.1845 0
M  V30 30 H 3.2818 -0.783 1.3668 0
M  V30 31 H 3.3224 -4.9017 -0.5743 0
M  V30 32 H 4.5919 -3.8303 -0.1641 0
M  V30 END ATOM
M  V30 BEGIN BOND
M  V30 1 2 1 2
M  V30 2 2 1 3
M  V30 3 1 1 4
M  V30 4 1 1 5
M  V30 5 1 4 6
M  V30 6 1 4 7
M  V30 7 1 5 8
M  V30 8 2 6 9
M  V30 9 1 6 10
M  V30 10 1 7 11
M  V30 11 1 9 12
M  V30 12 2 10 13
M  V30 13 2 12 14
M  V30 14 1 14 15
M  V30 15 2 15 16
M  V30 16 2 15 17
M  V30 17 1 15 18
M  V30 18 1 8 11
M  V30 19 1 13 14
M  V30 20 1 5 19
M  V30 21 1 5 20
M  V30 22 1 7 21
M  V30 23 1 7 22
M  V30 24 1 8 23
M  V30 25 1 8 24
M  V30 26 1 9 25
M  V30 27 1 10 26
M  V30 28 1 11 27
M  V30 29 1 11 28
M  V30 30 1 12 29
M  V30 31 1 13 30
M  V30 32 1 18 31
M  V30 33 1 18 32
M  V30 END BOND
M  V30 END CTAB
M  END
>  <Column 1>
2149

>  <level_0>
2330

>  <index>
2330

>  <Unnamed: 0>
2330

>  <NO.>
2342

>  <Name>
sulthiame(sultiame)

>  <IUPAC_name>
4-(1-1-dioxothiazinan-2-yl)benzenesulfonamide

>  <SMILES>
NS(=O)(=O)c1ccc(N2CCCCS2(=O)=O)cc1

>  <CID>
5356

>  <logBB>


>  <BBB+/BBB->
BBB+

>  <Inchi>
InChI=1S/C10H14N2O4S2/c11-18(15-16)10-5-3-9(4-6-10)12-7-1-2-8-17(12-13)14/h3-6H-1-2-7-8H2-(H2-11-15-16)

>  <threshold>
-1

>  <reference>
R1|R13|R19|R6|R14|R23|R24|R27|R27|R27|R30|R30|

>  <group>
B

>  <Class>
-1

>  <ABC>
14.07

>  <ABCGG>
11.94

>  <nAcid>
0

>  <nBase>
0

>  <nAromAtom>
6

>  <nAromBond>
6

>  <nAtom>
32

>  <nHeavyAtom>
18

>  <nSpiro>
0

>  <nBridgehead>
0

>  <nHetero>
8

>  <nN>
2

>  <nO>
4

>  <nF>
0

>  <BalabanJ>
1.93

>  <BertzCT>
634.96

>  <nBonds>
33

>  <nBondsO>
19

>  <nBondsS>
23

>  <nBondsD>
4

>  <nBondsT>
0

>  <nBondsA>
6

>  <nBondsM>
10

>  <nBondsKS>
26

>  <nBondsKD>
7

>  <RNCG>
0.18

>  <RPCG>
0.15

>  <FCSP3>
0.4

>  <SZ>
25.33

>  <Sm>
24.17

>  <Sv>
20.54

>  <Sse>
33.02

>  <Sp>
22.3

>  <Si>
36.17

>  <MZ>
0.79

>  <Mm>
0.76

>  <Mv>
0.64

>  <Mse>
1.03

>  <Mp>
0.7

>  <Mi>
1.13

>  <NsCH3>
0

>  <NdCH2>
0

>  <NssCH2>
4

>  <NtCH>
0

>  <NdsCH>
0

>  <NaaCH>
4

>  <NsssCH>
0

>  <NddC>
0

>  <NtsC>
0

>  <NdssC>
0

>  <NaasC>
2

>  <NaaaC>
0

>  <NssssC>
0

>  <NsNH3>
0

>  <NsNH2>
1

>  <NssNH2>
0

>  <NdNH>
0

>  <NssNH>
0

>  <NaaNH>
0

>  <NtN>
0

>  <NsssNH>
0

>  <NdsN>
0

>  <NaaN>
0

>  <NsssN>
1

>  <NddsN>
0

>  <NaasN>
0

>  <NssssN>
0

>  <NsOH>
0

>  <NdO>
4

>  <NssO>
0

>  <NaaO>
0

>  <NsF>
0

>  <NsSiH3>
0

>  <NssSiH2>
0

>  <NsssSiH>
0

>  <NssssSi>
0

>  <NsPH2>
0

>  <NssPH>
0

>  <NsssP>
0

>  <NdsssP>
0

>  <NsssssP>
0

>  <NsSH>
0

>  <NdS>
0

>  <NssS>
0

>  <NaaS>
0

>  <NdssS>
0

>  <NddssS>
2

>  <NsCl>
0

>  <NsBr>
0

>  <NsI>
0

>  <fragCpx>
55.08

>  <fMF>
0.38

>  <nHBAcc>
4

>  <nHBDon>
1

>  <Kier1>
14.41

>  <Kier2>
5.17

>  <Lipinski>
1

>  <GhoseFilter>
1

>  <FilterItLogS>
-1.72

>  <VMcGowan>
193.28

>  <LabuteASA>
106.51

>  <PEOE_VSA1>
0

>  <PEOE_VSA2>
4.31

>  <PEOE_VSA3>
21.97

>  <PEOE_VSA4>
0

>  <PEOE_VSA5>
0

>  <PEOE_VSA6>
0

>  <PEOE_VSA7>
37.11

>  <PEOE_VSA8>
6.54

>  <PEOE_VSA9>
16.34

>  <PEOE_VSA10>
0

>  <PEOE_VSA11>
0

>  <PEOE_VSA12>
20.05

>  <PEOE_VSA13>
0

>  <SMR_VSA1>
16.84

>  <SMR_VSA2>
0

>  <SMR_VSA3>
0

>  <SMR_VSA4>
5.14

>  <SMR_VSA5>
17.74

>  <SMR_VSA6>
16.6

>  <SMR_VSA7>
24.27

>  <SMR_VSA8>
0

>  <SMR_VSA9>
0

>  <SlogP_VSA1>
9.44

>  <SlogP_VSA2>
29.13

>  <SlogP_VSA3>
20.05

>  <SlogP_VSA4>
0

>  <SlogP_VSA5>
12.84

>  <SlogP_VSA6>
29.16

>  <SlogP_VSA7>
0

>  <SlogP_VSA8>
0

>  <SlogP_VSA9>
0

>  <SlogP_VSA10>
5.69

>  <SlogP_VSA11>
0

>  <EState_VSA1>
20.05

>  <EState_VSA2>
10.65

>  <EState_VSA3>
18.65

>  <EState_VSA4>
6.42

>  <EState_VSA5>
28.57

>  <EState_VSA6>
0

>  <EState_VSA7>
0

>  <EState_VSA8>
0

>  <EState_VSA9>
5.14

>  <EState_VSA10>
16.84

>  <VSA_EState1>
47.19

>  <VSA_EState2>
-0.03

>  <VSA_EState3>
4.98

>  <VSA_EState4>
0.47

>  <VSA_EState5>
0.13

>  <VSA_EState6>
5.55

>  <VSA_EState7>
1.46

>  <VSA_EState8>
0.43

>  <VSA_EState9>
-7.02

>  <apol>
37.24

>  <bpol>
28.5

>  <nRing>
2

>  <nHRing>
1

>  <naRing>
1

>  <naHRing>
0

>  <nARing 2>
1

>  <nAHRing 2>
1

>  <nFRing>
0

>  <nFHRing>
0

>  <nFaRing>
0

>  <nFaHRing>
0

>  <nFARing 2>
0

>  <nFAHRing 2>
0

>  <nRot>
2

>  <SLogP>
0.26

>  <SMR>
68.18

>  <TopoPSA(NO)>
97.54

>  <TopoPSA>
114.3

>  <JGI1>
0.32

>  <JGI2>
0.11

>  <JGI3>
0.06

>  <JGI4>
0.04

>  <JGI5>
0.03

>  <Diameter>
9

>  <Radius>
5

>  <TMWC10>
109.63

>  <TSRW10>
51.55

>  <MW>
290.04

>  <AMW>
9.06

>  <WPath>
607

>  <WPol>
28

>  <Zagreb1>
96

>  <Zagreb2>
111

>  <mZagreb2>
3.74

>  <yes>


>  <nAR-cont>
0.816016

>  <nHA-cont>
0.991161285

>  <MWHBN>
0.293589863

>  <MWHBN-cont>
0.859458087

>  <TPSA-cont>
0.202115024

>  <pka_cont>
0.97

>  <yes.1>


>  <BBB_SCORE>
3.985594463

>  <MMFF94 Energy>
-93.378

$$$$
Compound 1758
Actelion Java MolfileCreator 2.0

  0  0  0  0  0  0              0 V3000
M  V30 BEGIN CTAB
M  V30 COUNTS 40 42 0 0 0
M  V30 BEGIN ATOM
M  V30 1 Cl 0.4857 5.1096 -2.4306 0
M  V30 2 C 0.8304 3.7795 -1.3811 0
M  V30 3 C 2.0153 3.1395 -1.3457 0
M  V30 4 C -0.3323 3.3566 -0.5051 0
M  V30 5 N 2.1994 2.1389 -0.4437 0
M  V30 6 C 3.1156 3.4651 -2.2836 0
M  V30 7 C -0.1452 1.9413 0.0752 0
M  V30 8 C 3.0194 1.085 -0.2825 0
M  V30 9 C 1.2657 1.8479 0.6334 0
M  V30 10 O 3.0453 3.5425 -3.4963 0
M  V30 11 O 4.2653 3.6897 -1.62 0
M  V30 12 O 3.998 0.706 -0.8808 0
M  V30 13 C 2.0887 0.5282 0.8532 0
M  V30 14 N 1.4001 -0.7385 0.5399 0
M  V30 15 C 0.3291 -1.2117 1.2707 0
M  V30 16 O -0.1398 -0.5832 2.2161 0
M  V30 17 C -0.1811 -2.5991 0.7964 0 CFG=2
M  V30 18 N 0.3759 -2.92 -0.5458 0
M  V30 19 C -1.6917 -2.7255 0.7754 0
M  V30 20 C -2.507 -1.7315 0.2092 0
M  V30 21 C -2.301 -3.886 1.2797 0
M  V30 22 C -3.8939 -1.8873 0.1663 0
M  V30 23 C -3.688 -4.0395 1.235 0
M  V30 24 C -4.4835 -3.0402 0.6795 0
M  V30 25 H -1.2702 3.374 -1.0727 0
M  V30 26 H -0.4304 4.0794 0.3145 0
M  V30 27 H -0.8888 1.7572 0.8577 0
M  V30 28 H -0.3083 1.197 -0.7144 0
M  V30 29 H 1.3976 2.5402 1.4783 0
M  V30 30 H 4.9265 3.8187 -2.3304 0
M  V30 31 H 2.5972 0.4767 1.8229 0
M  V30 32 H 1.7224 -1.3617 -0.2022 0
M  V30 33 H 0.2432 -3.316 1.5108 0
M  V30 34 H 0.1285 -3.8905 -0.7495 0
M  V30 35 H -0.1474 -2.3782 -1.2367 0
M  V30 36 H -2.0718 -0.821 -0.1961 0
M  V30 37 H -1.699 -4.6805 1.7161 0
M  V30 38 H -4.5156 -1.1067 -0.265 0
M  V30 39 H -4.1485 -4.9392 1.6356 0
M  V30 40 H -5.5635 -3.1591 0.6482 0
M  V30 END ATOM
M  V30 BEGIN BOND
M  V30 1 1 1 2
M  V30 2 2 2 3
M  V30 3 1 2 4
M  V30 4 1 3 5
M  V30 5 1 3 6
M  V30 6 1 4 7
M  V30 7 1 5 8
M  V30 8 1 5 9
M  V30 9 2 6 10
M  V30 10 1 6 11
M  V30 11 2 8 12
M  V30 12 1 8 13
M  V30 13 1 13 14
M  V30 14 1 14 15
M  V30 15 2 15 16
M  V30 16 1 15 17
M  V30 17 1 17 18
M  V30 18 1 17 19
M  V30 19 2 19 20
M  V30 20 1 19 21
M  V30 21 1 20 22
M  V30 22 2 21 23
M  V30 23 2 22 24
M  V30 24 1 7 9
M  V30 25 1 9 13
M  V30 26 1 23 24
M  V30 27 1 4 25
M  V30 28 1 4 26
M  V30 29 1 7 27
M  V30 30 1 7 28
M  V30 31 1 9 29
M  V30 32 1 11 30
M  V30 33 1 13 31
M  V30 34 1 14 32
M  V30 35 1 17 33
M  V30 36 1 18 34
M  V30 37 1 18 35
M  V30 38 1 20 36
M  V30 39 1 21 37
M  V30 40 1 22 38
M  V30 41 1 23 39
M  V30 42 1 24 40
M  V30 END BOND
M  V30 BEGIN COLLECTION
M  V30 MDLV30/STEABS ATOMS=(1 17)
M  V30 END COLLECTION
M  V30 END CTAB
M  END
>  <Column 1>
2150

>  <level_0>
2331

>  <index>
2331

>  <Unnamed: 0>
2331

>  <NO.>
2343

>  <Name>
loracarbef

>  <IUPAC_name>
7-[[(2r)-2-amino-2-phenylacetyl]amino]-3-chloro-8-oxo-1-azabicyclo[4.2.0]oct-2-ene-2-carboxylic acid;hydrate

>  <SMILES>
N[C@@H](C(=O)NC1C(=O)N2C(C(=O)O)=C(Cl)CCC12)c1ccccc1

>  <CID>
60747

>  <logBB>


>  <BBB+/BBB->
BBB-

>  <Inchi>
InChI=1S/C16H16ClN3O4/c17-9-6-7-10-12(15(22)20(10)13(9)16(23)24)19-14(21)11(18)8-4-2-1-3-5-8/h1-5-10-12H-6-7-18H2-(H-19-21)(H-23-24)/t10?-11--12?/m1/s1

>  <threshold>
-1

>  <reference>
R1|R27|R30|

>  <group>
B

>  <Class>
-1

>  <ABC>
18.68

>  <ABCGG>
15.57

>  <nAcid>
1

>  <nBase>
1

>  <nAromAtom>
6

>  <nAromBond>
6

>  <nAtom>
40

>  <nHeavyAtom>
24

>  <nSpiro>
0

>  <nBridgehead>
0

>  <nHetero>
8

>  <nN>
3

>  <nO>
4

>  <nF>
0

>  <BalabanJ>
1.58

>  <BertzCT>
734.1

>  <nBonds>
42

>  <nBondsO>
26

>  <nBondsS>
32

>  <nBondsD>
4

>  <nBondsT>
0

>  <nBondsA>
6

>  <nBondsM>
10

>  <nBondsKS>
35

>  <nBondsKD>
7

>  <RNCG>
0.18

>  <RPCG>
0.13

>  <FCSP3>
0.31

>  <SZ>
30.33

>  <Sm>
29.12

>  <Sv>
26.56

>  <Sse>
41.18

>  <Sp>
27.59

>  <Si>
45.18

>  <MZ>
0.76

>  <Mm>
0.73

>  <Mv>
0.66

>  <Mse>
1.03

>  <Mp>
0.69

>  <Mi>
1.13

>  <NsCH3>
0

>  <NdCH2>
0

>  <NssCH2>
2

>  <NtCH>
0

>  <NdsCH>
0

>  <NaaCH>
5

>  <NsssCH>
3

>  <NddC>
0

>  <NtsC>
0

>  <NdssC>
5

>  <NaasC>
1

>  <NaaaC>
0

>  <NssssC>
0

>  <NsNH3>
0

>  <NsNH2>
1

>  <NssNH2>
0

>  <NdNH>
0

>  <NssNH>
1

>  <NaaNH>
0

>  <NtN>
0

>  <NsssNH>
0

>  <NdsN>
0

>  <NaaN>
0

>  <NsssN>
1

>  <NddsN>
0

>  <NaasN>
0

>  <NssssN>
0

>  <NsOH>
1

>  <NdO>
3

>  <NssO>
0

>  <NaaO>
0

>  <NsF>
0

>  <NsSiH3>
0

>  <NssSiH2>
0

>  <NsssSiH>
0

>  <NssssSi>
0

>  <NsPH2>
0

>  <NssPH>
0

>  <NsssP>
0

>  <NdsssP>
0

>  <NsssssP>
0

>  <NsSH>
0

>  <NdS>
0

>  <NssS>
0

>  <NaaS>
0

>  <NdssS>
0

>  <NddssS>
0

>  <NsCl>
1

>  <NsBr>
0

>  <NsI>
0

>  <fragCpx>
124.08

>  <fMF>
0.43

>  <nHBAcc>
4

>  <nHBDon>
3

>  <Kier1>
18.78

>  <Kier2>
7.71

>  <Lipinski>
1

>  <GhoseFilter>
1

>  <FilterItLogS>
-1.95

>  <VMcGowan>
239.28

>  <LabuteASA>
142.61

>  <PEOE_VSA1>
16.16

>  <PEOE_VSA2>
14.49

>  <PEOE_VSA3>
4.79

>  <PEOE_VSA4>
0

>  <PEOE_VSA5>
0

>  <PEOE_VSA6>
41.93

>  <PEOE_VSA7>
18.41

>  <PEOE_VSA8>
5.03

>  <PEOE_VSA9>
6.04

>  <PEOE_VSA10>
17.78

>  <PEOE_VSA11>
0

>  <PEOE_VSA12>
5.91

>  <PEOE_VSA13>
5.91

>  <SMR_VSA1>
19.49

>  <SMR_VSA2>
0

>  <SMR_VSA3>
10.22

>  <SMR_VSA4>
5.73

>  <SMR_VSA5>
30.97

>  <SMR_VSA6>
0

>  <SMR_VSA7>
46.62

>  <SMR_VSA8>
0

>  <SMR_VSA9>
0

>  <SlogP_VSA1>
11.05

>  <SlogP_VSA2>
39.87

>  <SlogP_VSA3>
14.38

>  <SlogP_VSA4>
0

>  <SlogP_VSA5>
24.45

>  <SlogP_VSA6>
41.06

>  <SlogP_VSA7>
0

>  <SlogP_VSA8>
0

>  <SlogP_VSA9>
0

>  <SlogP_VSA10>
0

>  <SlogP_VSA11>
0

>  <EState_VSA1>
35.91

>  <EState_VSA2>
10.73

>  <EState_VSA3>
18.41

>  <EState_VSA4>
4.9

>  <EState_VSA5>
0

>  <EState_VSA6>
24.27

>  <EState_VSA7>
6.07

>  <EState_VSA8>
5.32

>  <EState_VSA9>
17.33

>  <EState_VSA10>
19.49

>  <VSA_EState1>
0

>  <VSA_EState2>
36.98

>  <VSA_EState3>
11.98

>  <VSA_EState4>
6.35

>  <VSA_EState5>
-2.2

>  <VSA_EState6>
6.74

>  <VSA_EState7>
0.85

>  <VSA_EState8>
0

>  <VSA_EState9>
0

>  <apol>
46.08

>  <bpol>
20.88

>  <nRing>
3

>  <nHRing>
2

>  <naRing>
1

>  <naHRing>
0

>  <nARing 2>
2

>  <nAHRing 2>
2

>  <nFRing>
1

>  <nFHRing>
1

>  <nFaRing>
0

>  <nFaHRing>
0

>  <nFARing 2>
1

>  <nFAHRing 2>
1

>  <nRot>
4

>  <SLogP>
0.71

>  <SMR>
85.68

>  <TopoPSA(NO)>
112.73

>  <TopoPSA>
112.73

>  <JGI1>
0.17

>  <JGI2>
0.09

>  <JGI3>
0.08

>  <JGI4>
0.05

>  <JGI5>
0.04

>  <Diameter>
12

>  <Radius>
6

>  <TMWC10>
126.39

>  <TSRW10>
59.44

>  <MW>
349.08

>  <AMW>
8.73

>  <WPath>
1383

>  <WPol>
39

>  <Zagreb1>
128

>  <Zagreb2>
155

>  <mZagreb2>
5.25

>  <yes>


>  <nAR-cont>
1

>  <nHA-cont>
0.94700071

>  <MWHBN>
0.374658471

>  <MWHBN-cont>
0.575718487

>  <TPSA-cont>
0.213074599

>  <pka_cont>
0.97

>  <yes.1>


>  <BBB_SCORE>
3.721727637

>  <MMFF94 Energy>
79.299

$$$$
Compound 1759
Actelion Java MolfileCreator 2.0

  0  0  0  0  0  0              0 V3000
M  V30 BEGIN CTAB
M  V30 COUNTS 38 40 0 0 0
M  V30 BEGIN ATOM
M  V30 1 Cl -0.8248 -6.2811 0.9898 0
M  V30 2 C -0.5395 -4.6235 1.4305 0
M  V30 3 C 0.5175 -3.9298 0.9667 0
M  V30 4 C -1.6183 -4.0435 2.3151 0
M  V30 5 N 0.7227 -2.639 1.3282 0
M  V30 6 C 1.4498 -4.5336 -0.007 0
M  V30 7 S -1.7342 -2.2175 2.2168 0
M  V30 8 C 1.4983 -1.6087 0.9378 0
M  V30 9 C 0.0521 -1.973 2.4196 0 CFG=2
M  V30 10 O 2.3604 -5.2978 0.2529 0
M  V30 11 O 1.1737 -4.1227 -1.2564 0
M  V30 12 O 2.3822 -1.5281 0.1204 0
M  V30 13 C 0.6813 -0.6487 1.8901 0 CFG=2
M  V30 14 N -0.2146 0.2991 1.1912 0
M  V30 15 C 0.1465 1.5991 0.9015 0
M  V30 16 O 1.1937 2.0943 1.3074 0
M  V30 17 C -0.9135 2.3585 0.0581 0 CFG=2
M  V30 18 N -1.8824 1.3943 -0.535 0
M  V30 19 C -0.3274 3.2335 -1.0326 0
M  V30 20 C 0.7245 2.7884 -1.8499 0
M  V30 21 C -0.8832 4.4989 -1.2839 0
M  V30 22 C 1.2189 3.596 -2.8758 0
M  V30 23 C -0.3877 5.3037 -2.3115 0
M  V30 24 C 0.6633 4.8525 -3.106 0
M  V30 25 H -2.6023 -4.4274 2.0257 0
M  V30 26 H -1.4391 -4.3324 3.3564 0
M  V30 27 H 0.4374 -2.2735 3.4017 0
M  V30 28 H 1.8937 -4.5065 -1.7982 0
M  V30 29 H 1.3065 -0.1491 2.6389 0
M  V30 30 H -1.1254 0.0147 0.8267 0
M  V30 31 H -1.4607 2.979 0.7793 0
M  V30 32 H -2.6115 1.9458 -0.9911 0
M  V30 33 H -1.4045 0.9241 -1.3078 0
M  V30 34 H 1.1808 1.8131 -1.6882 0
M  V30 35 H -1.7063 4.8698 -0.6766 0
M  V30 36 H 2.0427 3.2445 -3.4918 0
M  V30 37 H -0.8205 6.2845 -2.4907 0
M  V30 38 H 1.0525 5.4808 -3.9027 0
M  V30 END ATOM
M  V30 BEGIN BOND
M  V30 1 1 1 2
M  V30 2 2 2 3
M  V30 3 1 2 4
M  V30 4 1 3 5
M  V30 5 1 3 6
M  V30 6 1 4 7
M  V30 7 1 5 8
M  V30 8 1 5 9
M  V30 9 2 6 10
M  V30 10 1 6 11
M  V30 11 2 8 12
M  V30 12 1 8 13
M  V30 13 1 13 14
M  V30 14 1 14 15
M  V30 15 2 15 16
M  V30 16 1 15 17
M  V30 17 1 17 18
M  V30 18 1 17 19
M  V30 19 2 19 20
M  V30 20 1 19 21
M  V30 21 1 20 22
M  V30 22 2 21 23
M  V30 23 2 22 24
M  V30 24 1 7 9
M  V30 25 1 9 13
M  V30 26 1 23 24
M  V30 27 1 4 25
M  V30 28 1 4 26
M  V30 29 1 9 27
M  V30 30 1 11 28
M  V30 31 1 13 29
M  V30 32 1 14 30
M  V30 33 1 17 31
M  V30 34 1 18 32
M  V30 35 1 18 33
M  V30 36 1 20 34
M  V30 37 1 21 35
M  V30 38 1 22 36
M  V30 39 1 23 37
M  V30 40 1 24 38
M  V30 END BOND
M  V30 BEGIN COLLECTION
M  V30 MDLV30/STEABS ATOMS=(3 9 13 17)
M  V30 END COLLECTION
M  V30 END CTAB
M  END
>  <Column 1>
2151

>  <level_0>
2332

>  <index>
2332

>  <Unnamed: 0>
2332

>  <NO.>
2344

>  <Name>
cefaclor

>  <IUPAC_name>
(6r-7r)-7-[[(2r)-2-amino-2-phenylacetyl]amino]-3-chloro-8-oxo-5-thia-1-azabicyclo[4.2.0]oct-2-ene-2-carboxylic acid

>  <SMILES>
N[C@@H](C(=O)N[C@@H]1C(=O)N2C(C(=O)O)=C(Cl)CS[C@H]12)c1ccccc1

>  <CID>
51039

>  <logBB>


>  <BBB+/BBB->
BBB-

>  <Inchi>
InChI=1S/C15H14ClN3O4S/c16-8-6-24-14-10(13(21)19(14)11(8)15(22)23)18-12(20)9(17)7-4-2-1-3-5-7/h1-5-9-10-14H-6-17H2-(H-18-20)(H-22-23)/t9--10--14-/m1/s1

>  <threshold>
-1

>  <reference>
R1|R6|R15|R27|R30|

>  <group>
B

>  <Class>
1

>  <ABC>
18.68

>  <ABCGG>
15.57

>  <nAcid>
1

>  <nBase>
1

>  <nAromAtom>
6

>  <nAromBond>
6

>  <nAtom>
38

>  <nHeavyAtom>
24

>  <nSpiro>
0

>  <nBridgehead>
0

>  <nHetero>
9

>  <nN>
3

>  <nO>
4

>  <nF>
0

>  <BalabanJ>
1.58

>  <BertzCT>
739.49

>  <nBonds>
40

>  <nBondsO>
26

>  <nBondsS>
30

>  <nBondsD>
4

>  <nBondsT>
0

>  <nBondsA>
6

>  <nBondsM>
10

>  <nBondsKS>
33

>  <nBondsKD>
7

>  <RNCG>
0.17

>  <RPCG>
0.13

>  <FCSP3>
0.27

>  <SZ>
31.67

>  <Sm>
30.62

>  <Sv>
26.2

>  <Sse>
39.37

>  <Sp>
27.53

>  <Si>
42.69

>  <MZ>
0.83

>  <Mm>
0.81

>  <Mv>
0.69

>  <Mse>
1.04

>  <Mp>
0.72

>  <Mi>
1.12

>  <NsCH3>
0

>  <NdCH2>
0

>  <NssCH2>
1

>  <NtCH>
0

>  <NdsCH>
0

>  <NaaCH>
5

>  <NsssCH>
3

>  <NddC>
0

>  <NtsC>
0

>  <NdssC>
5

>  <NaasC>
1

>  <NaaaC>
0

>  <NssssC>
0

>  <NsNH3>
0

>  <NsNH2>
1

>  <NssNH2>
0

>  <NdNH>
0

>  <NssNH>
1

>  <NaaNH>
0

>  <NtN>
0

>  <NsssNH>
0

>  <NdsN>
0

>  <NaaN>
0

>  <NsssN>
1

>  <NddsN>
0

>  <NaasN>
0

>  <NssssN>
0

>  <NsOH>
1

>  <NdO>
3

>  <NssO>
0

>  <NaaO>
0

>  <NsF>
0

>  <NsSiH3>
0

>  <NssSiH2>
0

>  <NsssSiH>
0

>  <NssssSi>
0

>  <NsPH2>
0

>  <NssPH>
0

>  <NsssP>
0

>  <NdsssP>
0

>  <NsssssP>
0

>  <NsSH>
0

>  <NdS>
0

>  <NssS>
1

>  <NaaS>
0

>  <NdssS>
0

>  <NddssS>
0

>  <NsCl>
1

>  <NsBr>
0

>  <NsI>
0

>  <fragCpx>
124.09

>  <fMF>
0.45

>  <nHBAcc>
5

>  <nHBDon>
3

>  <Kier1>
18.78

>  <Kier2>
7.71

>  <Lipinski>
1

>  <GhoseFilter>
1

>  <FilterItLogS>
-1.77

>  <VMcGowan>
241.54

>  <LabuteASA>
146.37

>  <PEOE_VSA1>
16.16

>  <PEOE_VSA2>
14.49

>  <PEOE_VSA3>
4.79

>  <PEOE_VSA4>
0

>  <PEOE_VSA5>
11.76

>  <PEOE_VSA6>
41.93

>  <PEOE_VSA7>
5.56

>  <PEOE_VSA8>
5.75

>  <PEOE_VSA9>
5.03

>  <PEOE_VSA10>
23.15

>  <PEOE_VSA11>
0

>  <PEOE_VSA12>
5.91

>  <PEOE_VSA13>
5.91

>  <SMR_VSA1>
19.49

>  <SMR_VSA2>
0

>  <SMR_VSA3>
10.22

>  <SMR_VSA4>
5.73

>  <SMR_VSA5>
17.46

>  <SMR_VSA6>
5.75

>  <SMR_VSA7>
46.62

>  <SMR_VSA8>
0

>  <SMR_VSA9>
0

>  <SlogP_VSA1>
11.05

>  <SlogP_VSA2>
44.96

>  <SlogP_VSA3>
14.38

>  <SlogP_VSA4>
0

>  <SlogP_VSA5>
11.61

>  <SlogP_VSA6>
41.06

>  <SlogP_VSA7>
0

>  <SlogP_VSA8>
0

>  <SlogP_VSA9>
0

>  <SlogP_VSA10>
0

>  <SlogP_VSA11>
0

>  <EState_VSA1>
35.24

>  <EState_VSA2>
16.48

>  <EState_VSA3>
5.56

>  <EState_VSA4>
4.9

>  <EState_VSA5>
11.76

>  <EState_VSA6>
24.27

>  <EState_VSA7>
6.07

>  <EState_VSA8>
5.32

>  <EState_VSA9>
17.33

>  <EState_VSA10>
19.49

>  <VSA_EState1>
0

>  <VSA_EState2>
36.91

>  <VSA_EState3>
11.43

>  <VSA_EState4>
6.32

>  <VSA_EState5>
-1.98

>  <VSA_EState6>
7.07

>  <VSA_EState7>
0

>  <VSA_EState8>
0

>  <VSA_EState9>
0

>  <apol>
45.97

>  <bpol>
21.33

>  <nRing>
3

>  <nHRing>
2

>  <naRing>
1

>  <naHRing>
0

>  <nARing 2>
2

>  <nAHRing 2>
2

>  <nFRing>
1

>  <nFHRing>
1

>  <nFaRing>
0

>  <nFaHRing>
0

>  <nFARing 2>
1

>  <nFAHRing 2>
1

>  <nRot>
4

>  <SLogP>
0.62

>  <SMR>
88.91

>  <TopoPSA(NO)>
112.73

>  <TopoPSA>
138.03

>  <JGI1>
0.17

>  <JGI2>
0.09

>  <JGI3>
0.08

>  <JGI4>
0.05

>  <JGI5>
0.04

>  <Diameter>
12

>  <Radius>
6

>  <TMWC10>
126.39

>  <TSRW10>
59.44

>  <MW>
367.04

>  <AMW>
9.66

>  <WPath>
1383

>  <WPol>
39

>  <Zagreb1>
128

>  <Zagreb2>
155

>  <mZagreb2>
5.25

>  <yes>


>  <nAR-cont>
1

>  <nHA-cont>
0.94700071

>  <MWHBN>
0.417573845

>  <MWHBN-cont>
0.407343586

>  <TPSA-cont>
0

>  <pka_cont>
0.97

>  <yes.1>


>  <BBB_SCORE>
3.043016088

>  <MMFF94 Energy>
70.043

$$$$
Compound 1760
Actelion Java MolfileCreator 2.0

  0  0  0  0  0  0              0 V3000
M  V30 BEGIN CTAB
M  V30 COUNTS 27 28 0 0 0
M  V30 BEGIN ATOM
M  V30 1 O -0.5521 -4.5025 -0.2365 0
M  V30 2 C 0.2286 -3.5688 -0.1261 0
M  V30 3 O 1.4114 -3.7428 0.4994 0
M  V30 4 C 0.0031 -2.1292 -0.5843 0 CFG=1
M  V30 5 N -0.7845 -2.1283 -1.8421 0
M  V30 6 C -0.6891 -1.379 0.5657 0
M  V30 7 C -0.8386 0.0922 0.3199 0
M  V30 8 C 0.1916 1.0837 0.4039 0
M  V30 9 C -2.0031 0.7527 -0.0221 0
M  V30 10 C -0.3877 2.3156 0.0992 0
M  V30 11 C 1.5674 1.0465 0.7112 0
M  V30 12 N -1.7192 2.0853 -0.1537 0
M  V30 13 C 0.3388 3.5123 0.0834 0
M  V30 14 C 2.309 2.2336 0.6996 0
M  V30 15 C 1.701 3.4473 0.3894 0
M  V30 16 H 1.4219 -4.6996 0.7125 0
M  V30 17 H 0.9782 -1.6857 -0.8156 0
M  V30 18 H -1.6457 -2.6544 -1.6834 0
M  V30 19 H -1.0683 -1.1688 -2.0425 0
M  V30 20 H -1.6772 -1.8199 0.7573 0
M  V30 21 H -0.1211 -1.52 1.4952 0
M  V30 22 H -3.0096 0.3881 -0.18 0
M  V30 23 H 2.0545 0.1072 0.9555 0
M  V30 24 H -2.3873 2.8036 -0.3967 0
M  V30 25 H -0.1318 4.4599 -0.1564 0
M  V30 26 H 3.3699 2.2052 0.9352 0
M  V30 27 H 2.2939 4.3591 0.3855 0
M  V30 END ATOM
M  V30 BEGIN BOND
M  V30 1 2 1 2
M  V30 2 1 2 3
M  V30 3 1 2 4
M  V30 4 1 4 5
M  V30 5 1 4 6
M  V30 6 1 6 7
M  V30 7 1 7 8
M  V30 8 2 7 9
M  V30 9 2 8 10
M  V30 10 1 8 11
M  V30 11 1 9 12
M  V30 12 1 10 13
M  V30 13 2 11 14
M  V30 14 2 13 15
M  V30 15 1 10 12
M  V30 16 1 14 15
M  V30 17 1 3 16
M  V30 18 1 4 17
M  V30 19 1 5 18
M  V30 20 1 5 19
M  V30 21 1 6 20
M  V30 22 1 6 21
M  V30 23 1 9 22
M  V30 24 1 11 23
M  V30 25 1 12 24
M  V30 26 1 13 25
M  V30 27 1 14 26
M  V30 28 1 15 27
M  V30 END BOND
M  V30 BEGIN COLLECTION
M  V30 MDLV30/STEABS ATOMS=(1 4)
M  V30 END COLLECTION
M  V30 END CTAB
M  END
>  <Column 1>
2152

>  <level_0>
2333

>  <index>
2333

>  <Unnamed: 0>
2333

>  <NO.>
2345

>  <Name>
l-tryptophan

>  <IUPAC_name>
(2s)-2-amino-3-(1h-indol-3-yl)propanoic acid

>  <SMILES>
N[C@@H](Cc1c[nH]c2ccccc12)C(=O)O

>  <CID>
6305

>  <logBB>


>  <BBB+/BBB->
BBB+

>  <Inchi>
InChI=1S/C11H12N2O2/c12-9(11(14)15)5-7-6-13-10-4-2-1-3-8(7)10/h1-4-6-9-13H-5-12H2-(H-14-15)/t9-/m0/s1

>  <threshold>
-1

>  <reference>
R1|R13|R6|R24|R27|R27|R30|R30|

>  <group>
B

>  <Class>
1

>  <ABC>
11.52

>  <ABCGG>
10.46

>  <nAcid>
1

>  <nBase>
1

>  <nAromAtom>
9

>  <nAromBond>
10

>  <nAtom>
27

>  <nHeavyAtom>
15

>  <nSpiro>
0

>  <nBridgehead>
0

>  <nHetero>
4

>  <nN>
2

>  <nO>
2

>  <nF>
0

>  <BalabanJ>
1.87

>  <BertzCT>
490.05

>  <nBonds>
28

>  <nBondsO>
16

>  <nBondsS>
17

>  <nBondsD>
1

>  <nBondsT>
0

>  <nBondsA>
10

>  <nBondsM>
11

>  <nBondsKS>
23

>  <nBondsKD>
5

>  <RNCG>
0.29

>  <RPCG>
0.2

>  <FCSP3>
0.18

>  <SZ>
18

>  <Sm>
17

>  <Sv>
17.2

>  <Sse>
27.31

>  <Sp>
18.07

>  <Si>
30.49

>  <MZ>
0.67

>  <Mm>
0.63

>  <Mv>
0.64

>  <Mse>
1.01

>  <Mp>
0.67

>  <Mi>
1.13

>  <NsCH3>
0

>  <NdCH2>
0

>  <NssCH2>
1

>  <NtCH>
0

>  <NdsCH>
0

>  <NaaCH>
5

>  <NsssCH>
1

>  <NddC>
0

>  <NtsC>
0

>  <NdssC>
1

>  <NaasC>
1

>  <NaaaC>
2

>  <NssssC>
0

>  <NsNH3>
0

>  <NsNH2>
1

>  <NssNH2>
0

>  <NdNH>
0

>  <NssNH>
0

>  <NaaNH>
1

>  <NtN>
0

>  <NsssNH>
0

>  <NdsN>
0

>  <NaaN>
0

>  <NsssN>
0

>  <NddsN>
0

>  <NaasN>
0

>  <NssssN>
0

>  <NsOH>
1

>  <NdO>
1

>  <NssO>
0

>  <NaaO>
0

>  <NsF>
0

>  <NsSiH3>
0

>  <NssSiH2>
0

>  <NsssSiH>
0

>  <NssssSi>
0

>  <NsPH2>
0

>  <NssPH>
0

>  <NsssP>
0

>  <NdsssP>
0

>  <NsssssP>
0

>  <NsSH>
0

>  <NdS>
0

>  <NssS>
0

>  <NaaS>
0

>  <NdssS>
0

>  <NddssS>
0

>  <NsCl>
0

>  <NsBr>
0

>  <NsI>
0

>  <fragCpx>
46.04

>  <fMF>
0.33

>  <nHBAcc>
2

>  <nHBDon>
3

>  <Kier1>
11.48

>  <Kier2>
4.89

>  <Lipinski>
1

>  <GhoseFilter>
1

>  <FilterItLogS>
-2

>  <VMcGowan>
154.33

>  <LabuteASA>
86.71

>  <PEOE_VSA1>
15.82

>  <PEOE_VSA2>
4.79

>  <PEOE_VSA3>
0

>  <PEOE_VSA4>
0

>  <PEOE_VSA5>
0

>  <PEOE_VSA6>
18.2

>  <PEOE_VSA7>
11.63

>  <PEOE_VSA8>
23.52

>  <PEOE_VSA9>
0

>  <PEOE_VSA10>
6.04

>  <PEOE_VSA11>
0

>  <PEOE_VSA12>
0

>  <PEOE_VSA13>
0

>  <SMR_VSA1>
9.9

>  <SMR_VSA2>
0

>  <SMR_VSA3>
4.98

>  <SMR_VSA4>
5.73

>  <SMR_VSA5>
12.46

>  <SMR_VSA6>
0

>  <SMR_VSA7>
36.03

>  <SMR_VSA8>
0

>  <SMR_VSA9>
0

>  <SlogP_VSA1>
5.73

>  <SlogP_VSA2>
22.1

>  <SlogP_VSA3>
11.22

>  <SlogP_VSA4>
0

>  <SlogP_VSA5>
5.56

>  <SlogP_VSA6>
30.46

>  <SlogP_VSA7>
0

>  <SlogP_VSA8>
10.9

>  <SlogP_VSA9>
0

>  <SlogP_VSA10>
0

>  <SlogP_VSA11>
0

>  <EState_VSA1>
12.01

>  <EState_VSA2>
0

>  <EState_VSA3>
6.42

>  <EState_VSA4>
16.47

>  <EState_VSA5>
0

>  <EState_VSA6>
0

>  <EState_VSA7>
30.46

>  <EState_VSA8>
4.98

>  <EState_VSA9>
10.84

>  <EState_VSA10>
4.79

>  <VSA_EState1>
0

>  <VSA_EState2>
13.71

>  <VSA_EState3>
9.75

>  <VSA_EState4>
7.43

>  <VSA_EState5>
-0.97

>  <VSA_EState6>
6.91

>  <VSA_EState7>
2.16

>  <VSA_EState8>
0

>  <VSA_EState9>
0

>  <apol>
30.18

>  <bpol>
12.91

>  <nRing>
2

>  <nHRing>
1

>  <naRing>
2

>  <naHRing>
1

>  <nARing 2>
0

>  <nAHRing 2>
0

>  <nFRing>
1

>  <nFHRing>
1

>  <nFaRing>
1

>  <nFaHRing>
1

>  <nFARing 2>
0

>  <nFAHRing 2>
0

>  <nRot>
3

>  <SLogP>
1.12

>  <SMR>
57.61

>  <TopoPSA(NO)>
79.11

>  <TopoPSA>
79.11

>  <JGI1>
0.19

>  <JGI2>
0.09

>  <JGI3>
0.05

>  <JGI4>
0.03

>  <JGI5>
0.03

>  <Diameter>
8

>  <Radius>
4

>  <TMWC10>
100.99

>  <TSRW10>
60.87

>  <MW>
204.09

>  <AMW>
7.56

>  <WPath>
369

>  <WPol>
20

>  <Zagreb1>
76

>  <Zagreb2>
88

>  <mZagreb2>
3.33

>  <yes>


>  <nAR-cont>
0.336376

>  <nHA-cont>
0.92539861

>  <MWHBN>
0.349992825

>  <MWHBN-cont>
0.6702777

>  <TPSA-cont>
0.447763076

>  <pka_cont>
0.97

>  <yes.1>


>  <BBB_SCORE>
3.647717312

>  <MMFF94 Energy>
48.96

$$$$
Compound 1761
Actelion Java MolfileCreator 2.0

  0  0  0  0  0  0              0 V3000
M  V30 BEGIN CTAB
M  V30 COUNTS 21 22 0 0 0
M  V30 BEGIN ATOM
M  V30 1 N -1.9689 2.5208 -1.1022 0
M  V30 2 C -0.9361 1.4854 -1.1004 0 CFG=1
M  V30 3 C -1.1852 0.1933 -0.356 0 CFG=1
M  V30 4 C -1.1842 0.22 -1.8652 0
M  V30 5 C -0.0664 -0.481 0.4031 0
M  V30 6 C 0.682 0.2143 1.3679 0
M  V30 7 C 0.342 -1.7895 0.0946 0
M  V30 8 C 1.7612 -0.3819 2.026 0
M  V30 9 C 1.4201 -2.3925 0.7483 0
M  V30 10 C 2.1281 -1.688 1.7172 0
M  V30 11 H -1.8676 3.1297 -0.2908 0
M  V30 12 H -1.8723 3.1217 -1.9203 0
M  V30 13 H 0.0842 1.8633 -1.1208 0
M  V30 14 H -2.1653 0.0896 0.1072 0
M  V30 15 H -2.1367 0.0973 -2.3678 0
M  V30 16 H -0.3463 -0.2112 -2.3999 0
M  V30 17 H 0.4126 1.2385 1.6173 0
M  V30 18 H -0.1957 -2.3523 -0.6656 0
M  V30 19 H 2.3145 0.1764 2.7763 0
M  V30 20 H 1.7061 -3.41 0.4963 0
M  V30 21 H 2.967 -2.1542 2.2266 0
M  V30 END ATOM
M  V30 BEGIN BOND
M  V30 1 1 1 2
M  V30 2 1 2 3
M  V30 3 1 2 4
M  V30 4 1 3 5
M  V30 5 2 5 6
M  V30 6 1 5 7
M  V30 7 1 6 8
M  V30 8 2 7 9
M  V30 9 2 8 10
M  V30 10 1 3 4
M  V30 11 1 9 10
M  V30 12 1 1 11
M  V30 13 1 1 12
M  V30 14 1 2 13
M  V30 15 1 3 14
M  V30 16 1 4 15
M  V30 17 1 4 16
M  V30 18 1 6 17
M  V30 19 1 7 18
M  V30 20 1 8 19
M  V30 21 1 9 20
M  V30 22 1 10 21
M  V30 END BOND
M  V30 BEGIN COLLECTION
M  V30 MDLV30/STEABS ATOMS=(2 2 3)
M  V30 END COLLECTION
M  V30 END CTAB
M  END
>  <Column 1>
2153

>  <level_0>
2334

>  <index>
2334

>  <Unnamed: 0>
2334

>  <NO.>
2346

>  <Name>
48264-ep2275420a1

>  <IUPAC_name>
hydron;(1r-2s)-2-phenylcyclopropan-1-amine;chloride

>  <SMILES>
N[C@@H]1C[C@H]1c1ccccc1

>  <CID>
19493

>  <logBB>


>  <BBB+/BBB->
BBB+

>  <Inchi>
InChI=1S/C9H11N/c10-9-6-8(9)7-4-2-1-3-5-7/h1-5-8-9H-6-10H2/t8--9+/m0/s1

>  <threshold>
-1

>  <reference>
R1|R7|R26|R27|R29|R30|

>  <group>
B

>  <Class>
1

>  <ABC>
7.81

>  <ABCGG>
7.56

>  <nAcid>
0

>  <nBase>
1

>  <nAromAtom>
6

>  <nAromBond>
6

>  <nAtom>
21

>  <nHeavyAtom>
10

>  <nSpiro>
0

>  <nBridgehead>
0

>  <nHetero>
1

>  <nN>
1

>  <nO>
0

>  <nF>
0

>  <BalabanJ>
1.81

>  <BertzCT>
217.43

>  <nBonds>
22

>  <nBondsO>
11

>  <nBondsS>
16

>  <nBondsD>
0

>  <nBondsT>
0

>  <nBondsA>
6

>  <nBondsM>
6

>  <nBondsKS>
19

>  <nBondsKD>
3

>  <RNCG>
0.47

>  <RPCG>
0.17

>  <FCSP3>
0.33

>  <SZ>
12

>  <Sm>
11.09

>  <Sv>
12.74

>  <Sse>
20.55

>  <Sp>
14.05

>  <Si>
23.57

>  <MZ>
0.57

>  <Mm>
0.53

>  <Mv>
0.61

>  <Mse>
0.98

>  <Mp>
0.67

>  <Mi>
1.12

>  <NsCH3>
0

>  <NdCH2>
0

>  <NssCH2>
1

>  <NtCH>
0

>  <NdsCH>
0

>  <NaaCH>
5

>  <NsssCH>
2

>  <NddC>
0

>  <NtsC>
0

>  <NdssC>
0

>  <NaasC>
1

>  <NaaaC>
0

>  <NssssC>
0

>  <NsNH3>
0

>  <NsNH2>
1

>  <NssNH2>
0

>  <NdNH>
0

>  <NssNH>
0

>  <NaaNH>
0

>  <NtN>
0

>  <NsssNH>
0

>  <NdsN>
0

>  <NaaN>
0

>  <NsssN>
0

>  <NddsN>
0

>  <NaasN>
0

>  <NssssN>
0

>  <NsOH>
0

>  <NdO>
0

>  <NssO>
0

>  <NaaO>
0

>  <NsF>
0

>  <NsSiH3>
0

>  <NssSiH2>
0

>  <NsssSiH>
0

>  <NssssSi>
0

>  <NsPH2>
0

>  <NssPH>
0

>  <NsssP>
0

>  <NdsssP>
0

>  <NsssssP>
0

>  <NsSH>
0

>  <NdS>
0

>  <NssS>
0

>  <NaaS>
0

>  <NdssS>
0

>  <NddssS>
0

>  <NsCl>
0

>  <NsBr>
0

>  <NsI>
0

>  <fragCpx>
31.01

>  <fMF>
0.43

>  <nHBAcc>
1

>  <nHBDon>
1

>  <Kier1>
6.69

>  <Kier2>
2.56

>  <Lipinski>
1

>  <GhoseFilter>
0

>  <FilterItLogS>
-1.62

>  <VMcGowan>
113.03

>  <LabuteASA>
60.86

>  <PEOE_VSA1>
5.73

>  <PEOE_VSA2>
0

>  <PEOE_VSA3>
0

>  <PEOE_VSA4>
0

>  <PEOE_VSA5>
0

>  <PEOE_VSA6>
30.33

>  <PEOE_VSA7>
11.98

>  <PEOE_VSA8>
11.96

>  <PEOE_VSA9>
0

>  <PEOE_VSA10>
0

>  <PEOE_VSA11>
0

>  <PEOE_VSA12>
0

>  <PEOE_VSA13>
0

>  <SMR_VSA1>
0

>  <SMR_VSA2>
0

>  <SMR_VSA3>
0

>  <SMR_VSA4>
5.73

>  <SMR_VSA5>
18.38

>  <SMR_VSA6>
0

>  <SMR_VSA7>
35.9

>  <SMR_VSA8>
0

>  <SMR_VSA9>
0

>  <SlogP_VSA1>
5.73

>  <SlogP_VSA2>
6.04

>  <SlogP_VSA3>
0

>  <SlogP_VSA4>
0

>  <SlogP_VSA5>
17.9

>  <SlogP_VSA6>
30.33

>  <SlogP_VSA7>
0

>  <SlogP_VSA8>
0

>  <SlogP_VSA9>
0

>  <SlogP_VSA10>
0

>  <SlogP_VSA11>
0

>  <EState_VSA1>
0

>  <EState_VSA2>
0

>  <EState_VSA3>
11.96

>  <EState_VSA4>
0

>  <EState_VSA5>
11.98

>  <EState_VSA6>
0

>  <EState_VSA7>
6.07

>  <EState_VSA8>
24.27

>  <EState_VSA9>
5.73

>  <EState_VSA10>
0

>  <VSA_EState1>
0

>  <VSA_EState2>
0

>  <VSA_EState3>
0

>  <VSA_EState4>
7.1

>  <VSA_EState5>
0.65

>  <VSA_EState6>
10.91

>  <VSA_EState7>
1.17

>  <VSA_EState8>
0

>  <VSA_EState9>
0

>  <apol>
23.46

>  <bpol>
10.47

>  <nRing>
2

>  <nHRing>
0

>  <naRing>
1

>  <naHRing>
0

>  <nARing 2>
1

>  <nAHRing 2>
0

>  <nFRing>
0

>  <nFHRing>
0

>  <nFaRing>
0

>  <nFaHRing>
0

>  <nFARing 2>
0

>  <nFAHRing 2>
0

>  <nRot>
1

>  <SLogP>
1.5

>  <SMR>
41.78

>  <TopoPSA(NO)>
26.02

>  <TopoPSA>
26.02

>  <JGI1>
0.14

>  <JGI2>
0.1

>  <JGI3>
0.06

>  <JGI4>
0.04

>  <JGI5>
0.02

>  <Diameter>
6

>  <Radius>
3

>  <TMWC10>
87.91

>  <TSRW10>
59.6

>  <MW>
133.09

>  <AMW>
6.34

>  <WPath>
119

>  <WPol>
10

>  <Zagreb1>
52

>  <Zagreb2>
61

>  <mZagreb2>
2.22

>  <yes>


>  <nAR-cont>
0.816016

>  <nHA-cont>
0.645914733

>  <MWHBN>
0.173363347

>  <MWHBN-cont>
0.978945041

>  <TPSA-cont>
0.818364243

>  <pka_cont>
0.97

>  <yes.1>


>  <BBB_SCORE>
5.052076779

>  <MMFF94 Energy>
9.6509

$$$$
Compound 1762
Actelion Java MolfileCreator 2.0

  0  0  0  0  0  0              0 V3000
M  V30 BEGIN CTAB
M  V30 COUNTS 29 31 0 0 0
M  V30 BEGIN ATOM
M  V30 1 N -1.6711 -0.2385 0.3181 0
M  V30 2 C -1.2592 0.6274 1.2512 0
M  V30 3 C -0.7853 -0.6768 -0.6047 0
M  V30 4 C 0.0583 1.1262 1.3102 0
M  V30 5 C -2.1869 1.0407 2.1989 0
M  V30 6 C 0.5517 -0.2721 -0.6341 0
M  V30 7 C -1.3336 -1.6879 -1.5786 0
M  V30 8 C 0.9714 0.6874 0.3096 0
M  V30 9 C 0.3825 2.0303 2.3557 0
M  V30 10 C -1.857 1.9342 3.2184 0
M  V30 11 C 1.4902 -0.7986 -1.6956 0
M  V30 12 C -0.4859 -1.8342 -2.8359 0
M  V30 13 N 2.2998 1.1285 0.3062 0
M  V30 14 C -0.5656 2.4295 3.2986 0
M  V30 15 C 0.9718 -2.0231 -2.4487 0
M  V30 16 H -3.2006 0.6501 2.1414 0
M  V30 17 H -1.3929 -2.6541 -1.0621 0
M  V30 18 H -2.3545 -1.4074 -1.8635 0
M  V30 19 H 1.3866 2.4302 2.4533 0
M  V30 20 H -2.6086 2.2335 3.9436 0
M  V30 21 H 2.4521 -1.0714 -1.2459 0
M  V30 22 H 1.6724 0.0092 -2.4157 0
M  V30 23 H -0.5899 -0.9437 -3.4685 0
M  V30 24 H -0.8372 -2.6908 -3.4217 0
M  V30 25 H 2.9063 0.9054 -0.4694 0
M  V30 26 H 2.5749 1.9131 0.8775 0
M  V30 27 H -0.2919 3.1218 4.0904 0
M  V30 28 H 1.5841 -2.1934 -3.3412 0
M  V30 29 H 1.0708 -2.9159 -1.8178 0
M  V30 END ATOM
M  V30 BEGIN BOND
M  V30 1 1 1 2
M  V30 2 2 1 3
M  V30 3 1 2 4
M  V30 4 2 2 5
M  V30 5 1 3 6
M  V30 6 1 3 7
M  V30 7 1 4 8
M  V30 8 2 4 9
M  V30 9 1 5 10
M  V30 10 1 6 11
M  V30 11 1 7 12
M  V30 12 1 8 13
M  V30 13 1 9 14
M  V30 14 1 11 15
M  V30 15 2 6 8
M  V30 16 2 10 14
M  V30 17 1 12 15
M  V30 18 1 5 16
M  V30 19 1 7 17
M  V30 20 1 7 18
M  V30 21 1 9 19
M  V30 22 1 10 20
M  V30 23 1 11 21
M  V30 24 1 11 22
M  V30 25 1 12 23
M  V30 26 1 12 24
M  V30 27 1 13 25
M  V30 28 1 13 26
M  V30 29 1 14 27
M  V30 30 1 15 28
M  V30 31 1 15 29
M  V30 END BOND
M  V30 END CTAB
M  END
>  <Column 1>
2154

>  <level_0>
2335

>  <index>
2335

>  <Unnamed: 0>
2335

>  <NO.>
2347

>  <Name>
tacrine;cognex

>  <IUPAC_name>
1-2-3-4-tetrahydroacridin-9-amine

>  <SMILES>
Nc1c2c(nc3ccccc13)CCCC2

>  <CID>
1935

>  <logBB>


>  <BBB+/BBB->
BBB+

>  <Inchi>
InChI=1S/C13H14N2/c14-13-9-5-1-3-7-11(9)15-12-8-4-2-6-10(12)13/h1-3-5-7H-2-4-6-8H2-(H2-14-15)

>  <threshold>
-1

>  <reference>
R1|R13|R19|R28|R9|R14|R23|R24|R26|R27|R27|R27|R30|R34|R36|

>  <group>
B

>  <Class>
1

>  <ABC>
11.97

>  <ABCGG>
9.63

>  <nAcid>
0

>  <nBase>
0

>  <nAromAtom>
10

>  <nAromBond>
11

>  <nAtom>
29

>  <nHeavyAtom>
15

>  <nSpiro>
0

>  <nBridgehead>
0

>  <nHetero>
2

>  <nN>
2

>  <nO>
0

>  <nF>
0

>  <BalabanJ>
1.76

>  <BertzCT>
517.17

>  <nBonds>
31

>  <nBondsO>
17

>  <nBondsS>
20

>  <nBondsD>
0

>  <nBondsT>
0

>  <nBondsA>
11

>  <nBondsM>
11

>  <nBondsKS>
26

>  <nBondsKD>
5

>  <RNCG>
0.4

>  <RPCG>
0.16

>  <FCSP3>
0.31

>  <SZ>
17.67

>  <Sm>
16.51

>  <Sv>
18.31

>  <Sse>
28.54

>  <Sp>
19.91

>  <Si>
32.49

>  <MZ>
0.61

>  <Mm>
0.57

>  <Mv>
0.63

>  <Mse>
0.98

>  <Mp>
0.69

>  <Mi>
1.12

>  <NsCH3>
0

>  <NdCH2>
0

>  <NssCH2>
4

>  <NtCH>
0

>  <NdsCH>
0

>  <NaaCH>
4

>  <NsssCH>
0

>  <NddC>
0

>  <NtsC>
0

>  <NdssC>
0

>  <NaasC>
3

>  <NaaaC>
2

>  <NssssC>
0

>  <NsNH3>
0

>  <NsNH2>
1

>  <NssNH2>
0

>  <NdNH>
0

>  <NssNH>
0

>  <NaaNH>
0

>  <NtN>
0

>  <NsssNH>
0

>  <NdsN>
0

>  <NaaN>
1

>  <NsssN>
0

>  <NddsN>
0

>  <NaasN>
0

>  <NssssN>
0

>  <NsOH>
0

>  <NdO>
0

>  <NssO>
0

>  <NaaO>
0

>  <NsF>
0

>  <NsSiH3>
0

>  <NssSiH2>
0

>  <NsssSiH>
0

>  <NssssSi>
0

>  <NsPH2>
0

>  <NssPH>
0

>  <NsssP>
0

>  <NdsssP>
0

>  <NsssssP>
0

>  <NsSH>
0

>  <NdS>
0

>  <NssS>
0

>  <NaaS>
0

>  <NdssS>
0

>  <NddssS>
0

>  <NsCl>
0

>  <NsBr>
0

>  <NsI>
0

>  <fragCpx>
79.02

>  <fMF>
0.48

>  <nHBAcc>
2

>  <nHBDon>
1

>  <Kier1>
10.17

>  <Kier2>
4.11

>  <Lipinski>
1

>  <GhoseFilter>
1

>  <FilterItLogS>
-3.85

>  <VMcGowan>
159.91

>  <LabuteASA>
89.13

>  <PEOE_VSA1>
5.73

>  <PEOE_VSA2>
4.98

>  <PEOE_VSA3>
0

>  <PEOE_VSA4>
0

>  <PEOE_VSA5>
0

>  <PEOE_VSA6>
18.2

>  <PEOE_VSA7>
37.31

>  <PEOE_VSA8>
16.77

>  <PEOE_VSA9>
5.52

>  <PEOE_VSA10>
0

>  <PEOE_VSA11>
0

>  <PEOE_VSA12>
0

>  <PEOE_VSA13>
0

>  <SMR_VSA1>
0

>  <SMR_VSA2>
0

>  <SMR_VSA3>
4.98

>  <SMR_VSA4>
0

>  <SMR_VSA5>
25.68

>  <SMR_VSA6>
5.73

>  <SMR_VSA7>
35.52

>  <SMR_VSA8>
0

>  <SMR_VSA9>
0

>  <SlogP_VSA1>
5.73

>  <SlogP_VSA2>
4.98

>  <SlogP_VSA3>
12.84

>  <SlogP_VSA4>
0

>  <SlogP_VSA5>
24.1

>  <SlogP_VSA6>
24.27

>  <SlogP_VSA7>
0

>  <SlogP_VSA8>
10.9

>  <SlogP_VSA9>
0

>  <SlogP_VSA10>
5.69

>  <SlogP_VSA11>
0

>  <EState_VSA1>
0

>  <EState_VSA2>
0

>  <EState_VSA3>
0

>  <EState_VSA4>
29.43

>  <EState_VSA5>
24.1

>  <EState_VSA6>
0

>  <EState_VSA7>
18.2

>  <EState_VSA8>
6.07

>  <EState_VSA9>
10.72

>  <EState_VSA10>
0

>  <VSA_EState1>
0

>  <VSA_EState2>
4.7

>  <VSA_EState3>
1.11

>  <VSA_EState4>
10.7

>  <VSA_EState5>
0

>  <VSA_EState6>
8.15

>  <VSA_EState7>
4.68

>  <VSA_EState8>
0

>  <VSA_EState9>
0

>  <apol>
33.25

>  <bpol>
14.61

>  <nRing>
3

>  <nHRing>
1

>  <naRing>
2

>  <naHRing>
1

>  <nARing 2>
1

>  <nAHRing 2>
0

>  <nFRing>
1

>  <nFHRing>
1

>  <nFaRing>
0

>  <nFaHRing>
0

>  <nFARing 2>
1

>  <nFAHRing 2>
1

>  <nRot>
0

>  <SLogP>
2.7

>  <SMR>
62.8

>  <TopoPSA(NO)>
38.91

>  <TopoPSA>
38.91

>  <JGI1>
0.12

>  <JGI2>
0.07

>  <JGI3>
0.05

>  <JGI4>
0.06

>  <JGI5>
0.02

>  <Diameter>
7

>  <Radius>
4

>  <TMWC10>
103.83

>  <TSRW10>
47.8

>  <MW>
198.12

>  <AMW>
6.83

>  <WPath>
326

>  <WPol>
25

>  <Zagreb1>
82

>  <Zagreb2>
99

>  <mZagreb2>
3.28

>  <yes>


>  <nAR-cont>
0.816016

>  <nHA-cont>
0.92539861

>  <MWHBN>
0.213136139

>  <MWHBN-cont>
0.998377309

>  <TPSA-cont>
0.728384038

>  <pka_cont>
0.97

>  <yes.1>


>  <BBB_SCORE>
5.180748651

>  <MMFF94 Energy>
45.126

$$$$
Compound 1763
Actelion Java MolfileCreator 2.0

  0  0  0  0  0  0              0 V3000
M  V30 BEGIN CTAB
M  V30 COUNTS 30 32 0 0 0
M  V30 BEGIN ATOM
M  V30 1 O 1.2743 1.1946 2.5499 0
M  V30 2 C 1.6392 0.1581 1.6328 0 CFG=2
M  V30 3 C 0.6132 0.0577 0.5256 0
M  V30 4 C 1.8459 -1.1319 2.4302 0
M  V30 5 C 0.4695 1.0769 -0.4391 0
M  V30 6 C -0.2516 -1.036 0.4553 0
M  V30 7 C 0.5093 -1.7884 2.7481 0
M  V30 8 N 1.2988 2.2014 -0.379 0
M  V30 9 C -0.4701 0.9114 -1.4944 0
M  V30 10 N -1.1722 -1.1863 -0.5234 0
M  V30 11 C -0.1923 -2.1667 1.4499 0
M  V30 12 C -1.2709 -0.2488 -1.4738 0
M  V30 13 C -0.6583 1.8339 -2.5562 0
M  V30 14 C -2.211 -0.4447 -2.4771 0
M  V30 15 C -1.6077 1.615 -3.5549 0
M  V30 16 C -2.3888 0.4713 -3.5142 0
M  V30 17 H 0.4004 1.5336 2.2863 0
M  V30 18 H 2.6112 0.4331 1.2066 0
M  V30 19 H 2.459 -1.8321 1.8488 0
M  V30 20 H 2.3801 -0.9213 3.364 0
M  V30 21 H 0.6641 -2.6846 3.3591 0
M  V30 22 H -0.1168 -1.1027 3.3323 0
M  V30 23 H 1.8572 2.3777 0.4486 0
M  V30 24 H 1.1592 2.9835 -1.0007 0
M  V30 25 H -1.2085 -2.5097 1.6771 0
M  V30 26 H 0.3363 -3.0035 0.977 0
M  V30 27 H -0.0589 2.7363 -2.6224 0
M  V30 28 H -2.8241 -1.3428 -2.4501 0
M  V30 29 H -1.7321 2.3354 -4.359 0
M  V30 30 H -3.133 0.2842 -4.2833 0
M  V30 END ATOM
M  V30 BEGIN BOND
M  V30 1 1 1 2
M  V30 2 1 2 3
M  V30 3 1 2 4
M  V30 4 2 3 5
M  V30 5 1 3 6
M  V30 6 1 4 7
M  V30 7 1 5 8
M  V30 8 1 5 9
M  V30 9 2 6 10
M  V30 10 1 6 11
M  V30 11 1 9 12
M  V30 12 2 9 13
M  V30 13 2 12 14
M  V30 14 1 13 15
M  V30 15 1 14 16
M  V30 16 1 7 11
M  V30 17 1 10 12
M  V30 18 2 15 16
M  V30 19 1 1 17
M  V30 20 1 2 18
M  V30 21 1 4 19
M  V30 22 1 4 20
M  V30 23 1 7 21
M  V30 24 1 7 22
M  V30 25 1 8 23
M  V30 26 1 8 24
M  V30 27 1 11 25
M  V30 28 1 11 26
M  V30 29 1 13 27
M  V30 30 1 14 28
M  V30 31 1 15 29
M  V30 32 1 16 30
M  V30 END BOND
M  V30 BEGIN COLLECTION
M  V30 MDLV30/STERAC1 ATOMS=(1 2)
M  V30 END COLLECTION
M  V30 END CTAB
M  END
>  <Column 1>
2155

>  <level_0>
2336

>  <index>
2336

>  <Unnamed: 0>
2336

>  <NO.>
2348

>  <Name>
velnacrine

>  <IUPAC_name>
9-amino-1-2-3-4-tetrahydroacridin-1-ol

>  <SMILES>
Nc1c2c(nc3ccccc13)CCCC2O

>  <CID>
3655

>  <logBB>


>  <BBB+/BBB->
BBB+

>  <Inchi>
InChI=1S/C13H14N2O/c14-13-8-4-1-2-5-9(8)15-10-6-3-7-11(16)12(10)13/h1-2-4-5-11-16H-3-6-7H2-(H2-14-15)

>  <threshold>
-1

>  <reference>
R1|R19|R6|R27|R27|R30|

>  <group>
B

>  <Class>
1

>  <ABC>
12.74

>  <ABCGG>
10.37

>  <nAcid>
0

>  <nBase>
0

>  <nAromAtom>
10

>  <nAromBond>
11

>  <nAtom>
30

>  <nHeavyAtom>
16

>  <nSpiro>
0

>  <nBridgehead>
0

>  <nHetero>
3

>  <nN>
2

>  <nO>
1

>  <nF>
0

>  <BalabanJ>
1.79

>  <BertzCT>
550.87

>  <nBonds>
32

>  <nBondsO>
18

>  <nBondsS>
21

>  <nBondsD>
0

>  <nBondsT>
0

>  <nBondsA>
11

>  <nBondsM>
11

>  <nBondsKS>
27

>  <nBondsKD>
5

>  <RNCG>
0.3

>  <RPCG>
0.16

>  <FCSP3>
0.31

>  <SZ>
19

>  <Sm>
17.84

>  <Sv>
19.02

>  <Sse>
29.87

>  <Sp>
20.39

>  <Si>
33.7

>  <MZ>
0.63

>  <Mm>
0.59

>  <Mv>
0.63

>  <Mse>
1

>  <Mp>
0.68

>  <Mi>
1.12

>  <NsCH3>
0

>  <NdCH2>
0

>  <NssCH2>
3

>  <NtCH>
0

>  <NdsCH>
0

>  <NaaCH>
4

>  <NsssCH>
1

>  <NddC>
0

>  <NtsC>
0

>  <NdssC>
0

>  <NaasC>
3

>  <NaaaC>
2

>  <NssssC>
0

>  <NsNH3>
0

>  <NsNH2>
1

>  <NssNH2>
0

>  <NdNH>
0

>  <NssNH>
0

>  <NaaNH>
0

>  <NtN>
0

>  <NsssNH>
0

>  <NdsN>
0

>  <NaaN>
1

>  <NsssN>
0

>  <NddsN>
0

>  <NaasN>
0

>  <NssssN>
0

>  <NsOH>
1

>  <NdO>
0

>  <NssO>
0

>  <NaaO>
0

>  <NsF>
0

>  <NsSiH3>
0

>  <NssSiH2>
0

>  <NsssSiH>
0

>  <NssssSi>
0

>  <NsPH2>
0

>  <NssPH>
0

>  <NsssP>
0

>  <NdsssP>
0

>  <NsssssP>
0

>  <NsSH>
0

>  <NdS>
0

>  <NssS>
0

>  <NaaS>
0

>  <NdssS>
0

>  <NddssS>
0

>  <NsCl>
0

>  <NsBr>
0

>  <NsI>
0

>  <fragCpx>
84.03

>  <fMF>
0.47

>  <nHBAcc>
3

>  <nHBDon>
2

>  <Kier1>
11.11

>  <Kier2>
4.35

>  <Lipinski>
1

>  <GhoseFilter>
1

>  <FilterItLogS>
-3.05

>  <VMcGowan>
165.78

>  <LabuteASA>
93.92

>  <PEOE_VSA1>
10.84

>  <PEOE_VSA2>
4.98

>  <PEOE_VSA3>
0

>  <PEOE_VSA4>
0

>  <PEOE_VSA5>
0

>  <PEOE_VSA6>
18.2

>  <PEOE_VSA7>
25.33

>  <PEOE_VSA8>
22.33

>  <PEOE_VSA9>
11.62

>  <PEOE_VSA10>
0

>  <PEOE_VSA11>
0

>  <PEOE_VSA12>
0

>  <PEOE_VSA13>
0

>  <SMR_VSA1>
5.11

>  <SMR_VSA2>
0

>  <SMR_VSA3>
4.98

>  <SMR_VSA4>
0

>  <SMR_VSA5>
25.37

>  <SMR_VSA6>
5.73

>  <SMR_VSA7>
35.52

>  <SMR_VSA8>
0

>  <SMR_VSA9>
0

>  <SlogP_VSA1>
5.73

>  <SlogP_VSA2>
10.09

>  <SlogP_VSA3>
6.42

>  <SlogP_VSA4>
0

>  <SlogP_VSA5>
30.2

>  <SlogP_VSA6>
24.27

>  <SlogP_VSA7>
0

>  <SlogP_VSA8>
10.9

>  <SlogP_VSA9>
0

>  <SlogP_VSA10>
5.69

>  <SlogP_VSA11>
0

>  <EState_VSA1>
6.1

>  <EState_VSA2>
0

>  <EState_VSA3>
5.69

>  <EState_VSA4>
41.42

>  <EState_VSA5>
0

>  <EState_VSA6>
0

>  <EState_VSA7>
24.27

>  <EState_VSA8>
4.98

>  <EState_VSA9>
5.73

>  <EState_VSA10>
5.11

>  <VSA_EState1>
0

>  <VSA_EState2>
4.59

>  <VSA_EState3>
10.93

>  <VSA_EState4>
9.58

>  <VSA_EState5>
0

>  <VSA_EState6>
7.83

>  <VSA_EState7>
2.25

>  <VSA_EState8>
0

>  <VSA_EState9>
0

>  <apol>
34.05

>  <bpol>
14.61

>  <nRing>
3

>  <nHRing>
1

>  <naRing>
2

>  <naHRing>
1

>  <nARing 2>
1

>  <nAHRing 2>
0

>  <nFRing>
1

>  <nFHRing>
1

>  <nFaRing>
0

>  <nFaHRing>
0

>  <nFARing 2>
1

>  <nFAHRing 2>
1

>  <nRot>
0

>  <SLogP>
2.19

>  <SMR>
64.05

>  <TopoPSA(NO)>
59.14

>  <TopoPSA>
59.14

>  <JGI1>
0.14

>  <JGI2>
0.08

>  <JGI3>
0.06

>  <JGI4>
0.06

>  <JGI5>
0.03

>  <Diameter>
7

>  <Radius>
4

>  <TMWC10>
106.79

>  <TSRW10>
49.22

>  <MW>
214.11

>  <AMW>
7.14

>  <WPath>
385

>  <WPol>
28

>  <Zagreb1>
88

>  <Zagreb2>
107

>  <mZagreb2>
3.47

>  <yes>


>  <nAR-cont>
0.816016

>  <nHA-cont>
0.954961865

>  <MWHBN>
0.341705153

>  <MWHBN-cont>
0.700920273

>  <TPSA-cont>
0.587166076

>  <pka_cont>
0.97

>  <yes.1>


>  <BBB_SCORE>
4.481690428

>  <MMFF94 Energy>
47.43

$$$$
Compound 1764
Actelion Java MolfileCreator 2.0

  0  0  0  0  0  0              0 V3000
M  V30 BEGIN CTAB
M  V30 COUNTS 48 51 0 0 0
M  V30 BEGIN ATOM
M  V30 1 Cl 3.4612 -1.2868 5.3162 0
M  V30 2 C 2.1651 -1.1137 4.1831 0
M  V30 3 C 0.832 -1.0965 4.6185 0
M  V30 4 C 2.4776 -0.9939 2.8301 0
M  V30 5 N 0.4951 -1.1731 5.964 0
M  V30 6 C -0.1788 -0.9369 3.662 0
M  V30 7 C 1.4615 -0.8444 1.8717 0
M  V30 8 C 0.1151 -0.8249 2.2924 0
M  V30 9 C 1.9159 -0.718 0.4461 0
M  V30 10 O -0.8509 -0.6753 1.3301 0
M  V30 11 O 3.1008 -0.8692 0.1627 0
M  V30 12 N 0.9676 -0.4139 -0.5009 0
M  V30 13 C -2.2099 -0.9241 1.689 0
M  V30 14 C 1.2903 -0.2123 -1.9052 0 CFG=2
M  V30 15 C -3.0114 -0.9529 0.4236 0
M  V30 16 C 1.8143 1.2189 -2.1649 0
M  V30 17 C 0.0659 -0.4605 -2.8263 0
M  V30 18 C -4.4587 -0.5328 0.4214 0
M  V30 19 C -3.4258 0.3284 -0.2528 0
M  V30 20 C 2.2016 1.3044 -3.6508 0
M  V30 21 C 0.6715 2.2234 -1.9354 0
M  V30 22 N -0.2267 0.7007 -3.7044 0
M  V30 23 C 0.9737 0.9887 -4.5212 0
M  V30 24 C -0.5115 1.8748 -2.8512 0
M  V30 25 H 3.5207 -1.0117 2.5191 0
M  V30 26 H -0.4631 -1.2457 6.2734 0
M  V30 27 H 1.2362 -1.3261 6.6403 0
M  V30 28 H -1.2033 -0.8932 4.0175 0
M  V30 29 H 0.0112 -0.2726 -0.1889 0
M  V30 30 H -2.3083 -1.8976 2.1835 0
M  V30 31 H -2.5678 -0.1291 2.3537 0
M  V30 32 H 2.0788 -0.9296 -2.1677 0
M  V30 33 H -2.727 -1.7851 -0.2113 0
M  V30 34 H 2.6712 1.4583 -1.5263 0
M  V30 35 H -0.8312 -0.7078 -2.2445 0
M  V30 36 H 0.2554 -1.3423 -3.4518 0
M  V30 37 H -4.9019 -0.1648 1.3398 0
M  V30 38 H -5.1465 -1.0852 -0.2096 0
M  V30 39 H -3.1653 1.2719 0.2131 0
M  V30 40 H -3.4178 0.3538 -1.3372 0
M  V30 41 H 3.0094 0.5969 -3.8715 0
M  V30 42 H 2.5762 2.3082 -3.8844 0
M  V30 43 H 0.3515 2.212 -0.8871 0
M  V30 44 H 1.0209 3.2402 -2.1517 0
M  V30 45 H 0.7681 1.8291 -5.1959 0
M  V30 46 H 1.189 0.1343 -5.175 0
M  V30 47 H -1.4069 1.6845 -2.2474 0
M  V30 48 H -0.7627 2.7372 -3.4813 0
M  V30 END ATOM
M  V30 BEGIN BOND
M  V30 1 1 1 2
M  V30 2 2 2 3
M  V30 3 1 2 4
M  V30 4 1 3 5
M  V30 5 1 3 6
M  V30 6 2 4 7
M  V30 7 2 6 8
M  V30 8 1 7 9
M  V30 9 1 8 10
M  V30 10 2 9 11
M  V30 11 1 9 12
M  V30 12 1 10 13
M  V30 13 1 12 14
M  V30 14 1 13 15
M  V30 15 1 14 16
M  V30 16 1 14 17
M  V30 17 1 15 18
M  V30 18 1 15 19
M  V30 19 1 16 20
M  V30 20 1 16 21
M  V30 21 1 17 22
M  V30 22 1 20 23
M  V30 23 1 21 24
M  V30 24 1 7 8
M  V30 25 1 18 19
M  V30 26 1 22 23
M  V30 27 1 22 24
M  V30 28 1 4 25
M  V30 29 1 5 26
M  V30 30 1 5 27
M  V30 31 1 6 28
M  V30 32 1 12 29
M  V30 33 1 13 30
M  V30 34 1 13 31
M  V30 35 1 14 32
M  V30 36 1 15 33
M  V30 37 1 16 34
M  V30 38 1 17 35
M  V30 39 1 17 36
M  V30 40 1 18 37
M  V30 41 1 18 38
M  V30 42 1 19 39
M  V30 43 1 19 40
M  V30 44 1 20 41
M  V30 45 1 20 42
M  V30 46 1 21 43
M  V30 47 1 21 44
M  V30 48 1 23 45
M  V30 49 1 23 46
M  V30 50 1 24 47
M  V30 51 1 24 48
M  V30 END BOND
M  V30 BEGIN COLLECTION
M  V30 MDLV30/STERAC1 ATOMS=(1 14)
M  V30 END COLLECTION
M  V30 END CTAB
M  END
>  <Column 1>
2156

>  <level_0>
2337

>  <index>
2337

>  <Unnamed: 0>
2337

>  <NO.>
2349

>  <Name>
pancopride

>  <IUPAC_name>
4-amino-n-(1-azabicyclo[2.2.2]octan-3-yl)-5-chloro-2-(cyclopropylmethoxy)benzamide

>  <SMILES>
Nc1cc(OCC2CC2)c(C(=O)NC2CN3CCC2CC3)cc1Cl

>  <CID>
71342

>  <logBB>


>  <BBB+/BBB->
BBB+

>  <Inchi>
InChI=1S/C18H24ClN3O2/c19-14-7-13(17(8-15(14)20)24-10-11-1-2-11)18(23)21-16-9-22-5-3-12(16)4-6-22/h7-8-11-12-16H-1-6-9-10-20H2-(H-21-23)

>  <threshold>
-1

>  <reference>
R1|R13|R19|R6|R27|R27|R30|

>  <group>
B

>  <Class>
-1

>  <ABC>
19.26

>  <ABCGG>
15.33

>  <nAcid>
0

>  <nBase>
1

>  <nAromAtom>
6

>  <nAromBond>
6

>  <nAtom>
48

>  <nHeavyAtom>
24

>  <nSpiro>
0

>  <nBridgehead>
2

>  <nHetero>
6

>  <nN>
3

>  <nO>
2

>  <nF>
0

>  <BalabanJ>
1.36

>  <BertzCT>
639.4

>  <nBonds>
51

>  <nBondsO>
27

>  <nBondsS>
44

>  <nBondsD>
1

>  <nBondsT>
0

>  <nBondsA>
6

>  <nBondsM>
7

>  <nBondsKS>
47

>  <nBondsKD>
4

>  <RNCG>
0.23

>  <RPCG>
0.12

>  <FCSP3>
0.61

>  <SZ>
31

>  <Sm>
29.13

>  <Sv>
29.3

>  <Sse>
48.07

>  <Sp>
31.82

>  <Si>
54.43

>  <MZ>
0.65

>  <Mm>
0.61

>  <Mv>
0.61

>  <Mse>
1

>  <Mp>
0.66

>  <Mi>
1.13

>  <NsCH3>
0

>  <NdCH2>
0

>  <NssCH2>
8

>  <NtCH>
0

>  <NdsCH>
0

>  <NaaCH>
2

>  <NsssCH>
3

>  <NddC>
0

>  <NtsC>
0

>  <NdssC>
1

>  <NaasC>
4

>  <NaaaC>
0

>  <NssssC>
0

>  <NsNH3>
0

>  <NsNH2>
1

>  <NssNH2>
0

>  <NdNH>
0

>  <NssNH>
1

>  <NaaNH>
0

>  <NtN>
0

>  <NsssNH>
0

>  <NdsN>
0

>  <NaaN>
0

>  <NsssN>
1

>  <NddsN>
0

>  <NaasN>
0

>  <NssssN>
0

>  <NsOH>
0

>  <NdO>
1

>  <NssO>
1

>  <NaaO>
0

>  <NsF>
0

>  <NsSiH3>
0

>  <NssSiH2>
0

>  <NsssSiH>
0

>  <NssssSi>
0

>  <NsPH2>
0

>  <NssPH>
0

>  <NsssP>
0

>  <NdsssP>
0

>  <NsssssP>
0

>  <NsSH>
0

>  <NdS>
0

>  <NssS>
0

>  <NaaS>
0

>  <NdssS>
0

>  <NddssS>
0

>  <NsCl>
1

>  <NsBr>
0

>  <NsI>
0

>  <fragCpx>
177.06

>  <fMF>
0.44

>  <nHBAcc>
4

>  <nHBDon>
2

>  <Kier1>
17.42

>  <Kier2>
7.32

>  <Lipinski>
1

>  <GhoseFilter>
1

>  <FilterItLogS>
-3.87

>  <VMcGowan>
257.76

>  <LabuteASA>
147.02

>  <PEOE_VSA1>
20.69

>  <PEOE_VSA2>
4.79

>  <PEOE_VSA3>
0

>  <PEOE_VSA4>
0

>  <PEOE_VSA5>
0

>  <PEOE_VSA6>
11.6

>  <PEOE_VSA7>
56.67

>  <PEOE_VSA8>
18.65

>  <PEOE_VSA9>
22.88

>  <PEOE_VSA10>
5.75

>  <PEOE_VSA11>
0

>  <PEOE_VSA12>
0

>  <PEOE_VSA13>
5.91

>  <SMR_VSA1>
9.53

>  <SMR_VSA2>
0

>  <SMR_VSA3>
10.22

>  <SMR_VSA4>
11.84

>  <SMR_VSA5>
31.73

>  <SMR_VSA6>
31.97

>  <SMR_VSA7>
22.72

>  <SMR_VSA8>
0

>  <SMR_VSA9>
5.75

>  <SlogP_VSA1>
15.79

>  <SlogP_VSA2>
43.09

>  <SlogP_VSA3>
0

>  <SlogP_VSA4>
11.84

>  <SlogP_VSA5>
36.04

>  <SlogP_VSA6>
12.13

>  <SlogP_VSA7>
5.02

>  <SlogP_VSA8>
0

>  <SlogP_VSA9>
0

>  <SlogP_VSA10>
5.69

>  <SlogP_VSA11>
5.75

>  <EState_VSA1>
0

>  <EState_VSA2>
11.95

>  <EState_VSA3>
40.47

>  <EState_VSA4>
19.63

>  <EState_VSA5>
25.68

>  <EState_VSA6>
12.13

>  <EState_VSA7>
0

>  <EState_VSA8>
10.22

>  <EState_VSA9>
22.07

>  <EState_VSA10>
4.79

>  <VSA_EState1>
5.86

>  <VSA_EState2>
15.25

>  <VSA_EState3>
3.59

>  <VSA_EState4>
6.83

>  <VSA_EState5>
1.63

>  <VSA_EState6>
3.53

>  <VSA_EState7>
4.73

>  <VSA_EState8>
3.89

>  <VSA_EState9>
0

>  <apol>
53.15

>  <bpol>
28.9

>  <nRing>
5

>  <nHRing>
3

>  <naRing>
1

>  <naHRing>
0

>  <nARing 2>
4

>  <nAHRing 2>
3

>  <nFRing>
1

>  <nFHRing>
1

>  <nFaRing>
0

>  <nFaHRing>
0

>  <nFARing 2>
1

>  <nFAHRing 2>
1

>  <nRot>
5

>  <SLogP>
2.54

>  <SMR>
94.5

>  <TopoPSA(NO)>
67.59

>  <TopoPSA>
67.59

>  <JGI1>
0.2

>  <JGI2>
0.09

>  <JGI3>
0.04

>  <JGI4>
0.05

>  <JGI5>
0.02

>  <Diameter>
11

>  <Radius>
6

>  <TMWC10>
126.61

>  <TSRW10>
77.2

>  <MW>
349.16

>  <AMW>
7.27

>  <WPath>
1361

>  <WPol>
36

>  <Zagreb1>
132

>  <Zagreb2>
157

>  <mZagreb2>
5.11

>  <yes>


>  <nAR-cont>
0.199399

>  <nHA-cont>
0.94700071

>  <MWHBN>
0.321099041

>  <MWHBN-cont>
0.773466768

>  <TPSA-cont>
0.528179829

>  <pka_cont>
0.97

>  <yes.1>


>  <BBB_SCORE>
3.84795952

>  <MMFF94 Energy>
83.562

$$$$
Compound 1765
Actelion Java MolfileCreator 2.0

  0  0  0  0  0  0              0 V3000
M  V30 BEGIN CTAB
M  V30 COUNTS 18 18 0 0 0
M  V30 BEGIN ATOM
M  V30 1 O 3.1971 0.8569 0.1557 0
M  V30 2 C 2.0866 1.3603 0.1131 0
M  V30 3 O 1.9115 2.6919 0.1374 0
M  V30 4 C 0.8257 0.5917 0.0312 0
M  V30 5 C 0.8683 -0.8075 -0.002 0
M  V30 6 C -0.4169 1.2347 -0.0106 0
M  V30 7 O 2.0337 -1.529 0.0386 0
M  V30 8 C -0.3116 -1.5502 -0.0789 0
M  V30 9 C -1.595 0.483 -0.0878 0
M  V30 10 C -1.5532 -0.9125 -0.1314 0
M  V30 11 N -2.7215 -1.6486 -0.1859 0
M  V30 12 H 2.8183 3.0601 0.1919 0
M  V30 13 H -0.4849 2.3195 0.0182 0
M  V30 14 H 2.7905 -0.906 0.0929 0
M  V30 15 H -0.2503 -2.6349 -0.098 0
M  V30 16 H -2.5504 1.0014 -0.1139 0
M  V30 17 H -2.6873 -2.6568 -0.2559 0
M  V30 18 H -3.6191 -1.1921 -0.2681 0
M  V30 END ATOM
M  V30 BEGIN BOND
M  V30 1 2 1 2
M  V30 2 1 2 3
M  V30 3 1 2 4
M  V30 4 2 4 5
M  V30 5 1 4 6
M  V30 6 1 5 7
M  V30 7 1 5 8
M  V30 8 2 6 9
M  V30 9 2 8 10
M  V30 10 1 10 11
M  V30 11 1 9 10
M  V30 12 1 3 12
M  V30 13 1 6 13
M  V30 14 1 7 14
M  V30 15 1 8 15
M  V30 16 1 9 16
M  V30 17 1 11 17
M  V30 18 1 11 18
M  V30 END BOND
M  V30 END CTAB
M  END
>  <Column 1>
2157

>  <level_0>
2338

>  <index>
2338

>  <Unnamed: 0>
2338

>  <NO.>
2350

>  <Name>
clofazimine

>  <IUPAC_name>
4-amino-2-hydroxybenzoic acid

>  <SMILES>
Nc1ccc(C(=O)O)c(O)c1

>  <CID>
4649

>  <logBB>


>  <BBB+/BBB->
BBB-

>  <Inchi>
InChI=1S/C7H7NO3/c8-4-1-2-5(7(10)11)6(9)3-4/h1-3-9H-8H2-(H-10-11)

>  <threshold>
-1

>  <reference>
R1|R13|R19|R28|R9|R14|R24|R27|R27|R27|R30|R36|

>  <group>
B

>  <Class>
1

>  <ABC>
8.13

>  <ABCGG>
7.77

>  <nAcid>
1

>  <nBase>
0

>  <nAromAtom>
6

>  <nAromBond>
6

>  <nAtom>
18

>  <nHeavyAtom>
11

>  <nSpiro>
0

>  <nBridgehead>
0

>  <nHetero>
4

>  <nN>
1

>  <nO>
3

>  <nF>
0

>  <BalabanJ>
2.44

>  <BertzCT>
295.74

>  <nBonds>
18

>  <nBondsO>
11

>  <nBondsS>
11

>  <nBondsD>
1

>  <nBondsT>
0

>  <nBondsA>
6

>  <nBondsM>
7

>  <nBondsKS>
14

>  <nBondsKD>
4

>  <RNCG>
0.3

>  <RPCG>
0.2

>  <FCSP3>
0

>  <SZ>
13.33

>  <Sm>
12.75

>  <Sv>
11.8

>  <Sse>
18.76

>  <Sp>
11.89

>  <Si>
20.37

>  <MZ>
0.74

>  <Mm>
0.71

>  <Mv>
0.66

>  <Mse>
1.04

>  <Mp>
0.66

>  <Mi>
1.13

>  <NsCH3>
0

>  <NdCH2>
0

>  <NssCH2>
0

>  <NtCH>
0

>  <NdsCH>
0

>  <NaaCH>
3

>  <NsssCH>
0

>  <NddC>
0

>  <NtsC>
0

>  <NdssC>
1

>  <NaasC>
3

>  <NaaaC>
0

>  <NssssC>
0

>  <NsNH3>
0

>  <NsNH2>
1

>  <NssNH2>
0

>  <NdNH>
0

>  <NssNH>
0

>  <NaaNH>
0

>  <NtN>
0

>  <NsssNH>
0

>  <NdsN>
0

>  <NaaN>
0

>  <NsssN>
0

>  <NddsN>
0

>  <NaasN>
0

>  <NssssN>
0

>  <NsOH>
2

>  <NdO>
1

>  <NssO>
0

>  <NaaO>
0

>  <NsF>
0

>  <NsSiH3>
0

>  <NssSiH2>
0

>  <NsssSiH>
0

>  <NssssSi>
0

>  <NsPH2>
0

>  <NssPH>
0

>  <NsssP>
0

>  <NdsssP>
0

>  <NsssssP>
0

>  <NsSH>
0

>  <NdS>
0

>  <NssS>
0

>  <NaaS>
0

>  <NdssS>
0

>  <NddssS>
0

>  <NsCl>
0

>  <NsBr>
0

>  <NsI>
0

>  <fragCpx>
11.04

>  <fMF>
0.33

>  <nHBAcc>
3

>  <nHBDon>
3

>  <Kier1>
9.09

>  <Kier2>
3.6

>  <Lipinski>
1

>  <GhoseFilter>
0

>  <FilterItLogS>
-0.37

>  <VMcGowan>
109.02

>  <LabuteASA>
62.89

>  <PEOE_VSA1>
15.95

>  <PEOE_VSA2>
0

>  <PEOE_VSA3>
4.79

>  <PEOE_VSA4>
0

>  <PEOE_VSA5>
0

>  <PEOE_VSA6>
0

>  <PEOE_VSA7>
12.13

>  <PEOE_VSA8>
11.75

>  <PEOE_VSA9>
0

>  <PEOE_VSA10>
11.31

>  <PEOE_VSA11>
0

>  <PEOE_VSA12>
0

>  <PEOE_VSA13>
0

>  <SMR_VSA1>
15.01

>  <SMR_VSA2>
0

>  <SMR_VSA3>
0

>  <SMR_VSA4>
0

>  <SMR_VSA5>
0

>  <SMR_VSA6>
5.73

>  <SMR_VSA7>
23.76

>  <SMR_VSA8>
0

>  <SMR_VSA9>
5.75

>  <SlogP_VSA1>
5.73

>  <SlogP_VSA2>
16.18

>  <SlogP_VSA3>
0

>  <SlogP_VSA4>
0

>  <SlogP_VSA5>
10.36

>  <SlogP_VSA6>
18.2

>  <SlogP_VSA7>
0

>  <SlogP_VSA8>
0

>  <SlogP_VSA9>
0

>  <SlogP_VSA10>
5.69

>  <SlogP_VSA11>
5.75

>  <EState_VSA1>
5.97

>  <EState_VSA2>
11.31

>  <EState_VSA3>
5.69

>  <EState_VSA4>
0

>  <EState_VSA5>
18.2

>  <EState_VSA6>
0

>  <EState_VSA7>
0

>  <EState_VSA8>
0

>  <EState_VSA9>
15.95

>  <EState_VSA10>
4.79

>  <VSA_EState1>
0

>  <VSA_EState2>
10.33

>  <VSA_EState3>
17.46

>  <VSA_EState4>
5.48

>  <VSA_EState5>
-1.47

>  <VSA_EState6>
3.87

>  <VSA_EState7>
0

>  <VSA_EState8>
0

>  <VSA_EState9>
0

>  <apol>
19.86

>  <bpol>
7.32

>  <nRing>
1

>  <nHRing>
0

>  <naRing>
1

>  <naHRing>
0

>  <nARing 2>
0

>  <nAHRing 2>
0

>  <nFRing>
0

>  <nFHRing>
0

>  <nFaRing>
0

>  <nFaHRing>
0

>  <nFARing 2>
0

>  <nFAHRing 2>
0

>  <nRot>
1

>  <SLogP>
0.67

>  <SMR>
39.48

>  <TopoPSA(NO)>
83.55

>  <TopoPSA>
83.55

>  <JGI1>
0.27

>  <JGI2>
0.1

>  <JGI3>
0.08

>  <JGI4>
0.05

>  <JGI5>
0.08

>  <Diameter>
6

>  <Radius>
3

>  <TMWC10>
87.42

>  <TSRW10>
41.02

>  <MW>
153.04

>  <AMW>
8.5

>  <WPath>
150

>  <WPol>
14

>  <Zagreb1>
52

>  <Zagreb2>
58

>  <mZagreb2>
2.47

>  <yes>


>  <nAR-cont>
0.336376

>  <nHA-cont>
0.720786536

>  <MWHBN>
0.485007854

>  <MWHBN-cont>
0

>  <TPSA-cont>
0.416769119

>  <pka_cont>
0.97

>  <yes.1>


>  <BBB_SCORE>
2.375700773

>  <MMFF94 Energy>
1.2012

$$$$
Compound 1766
Actelion Java MolfileCreator 2.0

  0  0  0  0  0  0              0 V3000
M  V30 BEGIN CTAB
M  V30 COUNTS 39 41 0 0 0
M  V30 BEGIN ATOM
M  V30 1 S -1.0531 -1.1341 1.6205 0
M  V30 2 O -1.9876 -0.4569 2.3676 0
M  V30 3 O -1.0563 -2.5078 1.5656 0
M  V30 4 N -1.0975 -0.5601 0.1014 0
M  V30 5 C 0.474 -0.6533 2.1646 0
M  V30 6 C -0.265 -1.2068 -0.8272 0
M  V30 7 C -1.1925 0.8356 -0.0285 0
M  V30 8 C 1.5116 -1.464 2.0137 0
M  V30 9 C 0.6155 0.5092 2.7854 0
M  V30 10 C -0.6828 -0.9871 -2.2109 0
M  V30 11 C -1.6984 1.2491 -1.3363 0
M  V30 12 C 2.7038 -1.0882 2.458 0
M  V30 13 C 1.813 0.8731 3.225 0
M  V30 14 C -2.1308 -0.9153 -2.3621 0
M  V30 15 C -0.0549 0.196 -2.7785 0
M  V30 16 C -0.6188 1.4376 -2.2929 0
M  V30 17 C -2.6986 0.3348 -1.8732 0
M  V30 18 C 2.8631 0.0747 3.0778 0
M  V30 19 N 4.0531 0.4592 3.4766 0
M  V30 20 H 0.7241 -0.9176 -0.6886 0
M  V30 21 H -0.3129 -2.233 -0.6612 0
M  V30 22 H -0.2741 1.2805 0.1709 0
M  V30 23 H -1.8682 1.192 0.6781 0
M  V30 24 H 1.4033 -2.3829 1.5557 0
M  V30 25 H -0.1936 1.1337 2.9309 0
M  V30 26 H -0.3369 -1.8034 -2.7599 0
M  V30 27 H -2.1465 2.1812 -1.2016 0
M  V30 28 H 3.5099 -1.7185 2.3241 0
M  V30 29 H 1.9183 1.7861 3.6947 0
M  V30 30 H -2.5838 -1.7218 -1.8836 0
M  V30 31 H -2.3704 -1.0134 -3.3715 0
M  V30 32 H -0.1618 0.1682 -3.815 0
M  V30 33 H 0.9714 0.182 -2.6036 0
M  V30 34 H -0.9827 1.9758 -3.1082 0
M  V30 35 H 0.1323 2.0296 -1.8812 0
M  V30 36 H -3.195 0.802 -2.6615 0
M  V30 37 H -3.428 0.1371 -1.1566 0
M  V30 38 H 4.1521 1.2576 4.0003 0
M  V30 39 H 4.7924 -0.1522 3.4489 0
M  V30 END ATOM
M  V30 BEGIN BOND
M  V30 1 2 1 2
M  V30 2 2 1 3
M  V30 3 1 1 4
M  V30 4 1 1 5
M  V30 5 1 4 6
M  V30 6 1 4 7
M  V30 7 2 5 8
M  V30 8 1 5 9
M  V30 9 1 6 10
M  V30 10 1 7 11
M  V30 11 1 8 12
M  V30 12 2 9 13
M  V30 13 1 10 14
M  V30 14 1 10 15
M  V30 15 1 11 16
M  V30 16 1 11 17
M  V30 17 2 12 18
M  V30 18 1 18 19
M  V30 19 1 13 18
M  V30 20 1 14 16
M  V30 21 1 15 17
M  V30 22 1 6 20
M  V30 23 1 6 21
M  V30 24 1 7 22
M  V30 25 1 7 23
M  V30 26 1 8 24
M  V30 27 1 9 25
M  V30 28 1 10 26
M  V30 29 1 11 27
M  V30 30 1 12 28
M  V30 31 1 13 29
M  V30 32 1 14 30
M  V30 33 1 14 31
M  V30 34 1 15 32
M  V30 35 1 15 33
M  V30 36 1 16 34
M  V30 37 1 16 35
M  V30 38 1 17 36
M  V30 39 1 17 37
M  V30 40 1 19 38
M  V30 41 1 19 39
M  V30 END BOND
M  V30 END CTAB
M  END
>  <Column 1>
2158

>  <level_0>
2339

>  <index>
2339

>  <Unnamed: 0>
2339

>  <NO.>
2351

>  <Name>
azabon

>  <IUPAC_name>
4-(3-azabicyclo[3.2.2]nonan-3-ylsulfonyl)aniline

>  <SMILES>
Nc1ccc(S(=O)(=O)N2CC3CCC(CC3)C2)cc1

>  <CID>
14380

>  <logBB>


>  <BBB+/BBB->
BBB+

>  <Inchi>
InChI=1S/C14H20N2O2S/c15-13-5-7-14(8-6-13)19(17-18)16-9-11-1-2-12(10-16)4-3-11/h5-8-11-12H-1-4-9-10-15H2

>  <threshold>
-1

>  <reference>
R1|R13|R19|R6|R24|R27|R27|R27|R30|R30|

>  <group>
B

>  <Class>
1

>  <ABC>
15.15

>  <ABCGG>
12.67

>  <nAcid>
0

>  <nBase>
0

>  <nAromAtom>
6

>  <nAromBond>
6

>  <nAtom>
39

>  <nHeavyAtom>
19

>  <nSpiro>
0

>  <nBridgehead>
2

>  <nHetero>
5

>  <nN>
2

>  <nO>
2

>  <nF>
0

>  <BalabanJ>
1.69

>  <BertzCT>
531.31

>  <nBonds>
41

>  <nBondsO>
21

>  <nBondsS>
33

>  <nBondsD>
2

>  <nBondsT>
0

>  <nBondsA>
6

>  <nBondsM>
8

>  <nBondsKS>
36

>  <nBondsKD>
5

>  <RNCG>
0.28

>  <RPCG>
0.17

>  <FCSP3>
0.57

>  <SZ>
25

>  <Sm>
23.34

>  <Sv>
23.55

>  <Sse>
38.94

>  <Sp>
26

>  <Si>
44.07

>  <MZ>
0.64

>  <Mm>
0.6

>  <Mv>
0.6

>  <Mse>
1

>  <Mp>
0.67

>  <Mi>
1.13

>  <NsCH3>
0

>  <NdCH2>
0

>  <NssCH2>
6

>  <NtCH>
0

>  <NdsCH>
0

>  <NaaCH>
4

>  <NsssCH>
2

>  <NddC>
0

>  <NtsC>
0

>  <NdssC>
0

>  <NaasC>
2

>  <NaaaC>
0

>  <NssssC>
0

>  <NsNH3>
0

>  <NsNH2>
1

>  <NssNH2>
0

>  <NdNH>
0

>  <NssNH>
0

>  <NaaNH>
0

>  <NtN>
0

>  <NsssNH>
0

>  <NdsN>
0

>  <NaaN>
0

>  <NsssN>
1

>  <NddsN>
0

>  <NaasN>
0

>  <NssssN>
0

>  <NsOH>
0

>  <NdO>
2

>  <NssO>
0

>  <NaaO>
0

>  <NsF>
0

>  <NsSiH3>
0

>  <NssSiH2>
0

>  <NsssSiH>
0

>  <NssssSi>
0

>  <NsPH2>
0

>  <NssPH>
0

>  <NsssP>
0

>  <NdsssP>
0

>  <NsssssP>
0

>  <NsSH>
0

>  <NdS>
0

>  <NssS>
0

>  <NaaS>
0

>  <NdssS>
0

>  <NddssS>
1

>  <NsCl>
0

>  <NsBr>
0

>  <NsI>
0

>  <fragCpx>
99.05

>  <fMF>
0.41

>  <nHBAcc>
3

>  <nHBDon>
1

>  <Kier1>
13.96

>  <Kier2>
5.41

>  <Lipinski>
1

>  <GhoseFilter>
1

>  <FilterItLogS>
-2.45

>  <VMcGowan>
210.69

>  <LabuteASA>
114.2

>  <PEOE_VSA1>
5.73

>  <PEOE_VSA2>
0

>  <PEOE_VSA3>
8.42

>  <PEOE_VSA4>
4.31

>  <PEOE_VSA5>
0

>  <PEOE_VSA6>
0

>  <PEOE_VSA7>
61.78

>  <PEOE_VSA8>
18.78

>  <PEOE_VSA9>
4.9

>  <PEOE_VSA10>
0

>  <PEOE_VSA11>
0

>  <PEOE_VSA12>
10.02

>  <PEOE_VSA13>
0

>  <SMR_VSA1>
8.42

>  <SMR_VSA2>
0

>  <SMR_VSA3>
4.31

>  <SMR_VSA4>
11.84

>  <SMR_VSA5>
30.58

>  <SMR_VSA6>
18.82

>  <SMR_VSA7>
24.27

>  <SMR_VSA8>
0

>  <SMR_VSA9>
0

>  <SlogP_VSA1>
5.73

>  <SlogP_VSA2>
25.81

>  <SlogP_VSA3>
10.02

>  <SlogP_VSA4>
11.84

>  <SlogP_VSA5>
25.68

>  <SlogP_VSA6>
29.16

>  <SlogP_VSA7>
0

>  <SlogP_VSA8>
0

>  <SlogP_VSA9>
0

>  <SlogP_VSA10>
5.69

>  <SlogP_VSA11>
0

>  <EState_VSA1>
10.02

>  <EState_VSA2>
0

>  <EState_VSA3>
35.51

>  <EState_VSA4>
0

>  <EState_VSA5>
25.68

>  <EState_VSA6>
28.57

>  <EState_VSA7>
0

>  <EState_VSA8>
0

>  <EState_VSA9>
5.73

>  <EState_VSA10>
8.42

>  <VSA_EState1>
27

>  <VSA_EState2>
0.36

>  <VSA_EState3>
0

>  <VSA_EState4>
6.21

>  <VSA_EState5>
1.09

>  <VSA_EState6>
6.52

>  <VSA_EState7>
4.72

>  <VSA_EState8>
1.37

>  <VSA_EState9>
-3.35

>  <apol>
43.42

>  <bpol>
27.86

>  <nRing>
4

>  <nHRing>
2

>  <naRing>
1

>  <naHRing>
0

>  <nARing 2>
3

>  <nAHRing 2>
2

>  <nFRing>
1

>  <nFHRing>
1

>  <nFaRing>
0

>  <nFaHRing>
0

>  <nFARing 2>
1

>  <nFAHRing 2>
1

>  <nRot>
2

>  <SLogP>
2.08

>  <SMR>
75.06

>  <TopoPSA(NO)>
63.4

>  <TopoPSA>
71.78

>  <JGI1>
0.26

>  <JGI2>
0.09

>  <JGI3>
0.05

>  <JGI4>
0.04

>  <JGI5>
0.03

>  <Diameter>
9

>  <Radius>
5

>  <TMWC10>
113.63

>  <TSRW10>
62.07

>  <MW>
280.12

>  <AMW>
7.18

>  <WPath>
663

>  <WPol>
34

>  <Zagreb1>
104

>  <Zagreb2>
123

>  <mZagreb2>
4

>  <yes>


>  <nAR-cont>
0.691115

>  <nHA-cont>
0.998649058

>  <MWHBN>
0.238994514

>  <MWHBN-cont>
0.976312499

>  <TPSA-cont>
0.498931027

>  <pka_cont>
0.97

>  <yes.1>


>  <BBB_SCORE>
4.63709486

>  <MMFF94 Energy>
-9.0631

$$$$
Compound 1767
Actelion Java MolfileCreator 2.0

  0  0  0  0  0  0              0 V3000
M  V30 BEGIN CTAB
M  V30 COUNTS 24 25 0 0 0
M  V30 BEGIN ATOM
M  V30 1 O -2.5258 0.2365 0.2365 0
M  V30 2 C -1.7194 1.0984 -0.1095 0
M  V30 3 N -0.3178 0.9795 -0.106 0
M  V30 4 C -2.2587 2.41 -0.5749 0
M  V30 5 C 0.2633 -0.2469 0.335 0
M  V30 6 C 0.4964 2.027 -0.5231 0
M  V30 7 C -1.4344 3.3908 -0.9607 0
M  V30 8 C -0.0861 -1.4592 -0.2761 0
M  V30 9 C 1.2143 -0.243 1.3619 0
M  V30 10 C -0.0105 3.1939 -0.9384 0
M  V30 11 C 0.4862 -2.6647 0.14 0
M  V30 12 C 1.8132 -1.4365 1.7619 0
M  V30 13 N 0.178 -3.8508 -0.5076 0
M  V30 14 C 1.4578 -2.637 1.1431 0
M  V30 15 H -3.3361 2.5141 -0.5767 0
M  V30 16 H 1.5688 1.8544 -0.5124 0
M  V30 17 H -1.8218 4.3464 -1.2986 0
M  V30 18 H -0.8159 -1.4615 -1.0813 0
M  V30 19 H 1.488 0.6836 1.8587 0
M  V30 20 H 0.6345 4.0015 -1.2684 0
M  V30 21 H 2.5567 -1.4344 2.5543 0
M  V30 22 H -0.6203 -3.8776 -1.1288 0
M  V30 23 H 0.498 -4.7283 -0.1214 0
M  V30 24 H 1.9427 -3.5571 1.4582 0
M  V30 END ATOM
M  V30 BEGIN BOND
M  V30 1 2 1 2
M  V30 2 1 2 3
M  V30 3 1 2 4
M  V30 4 1 3 5
M  V30 5 1 3 6
M  V30 6 2 4 7
M  V30 7 2 5 8
M  V30 8 1 5 9
M  V30 9 2 6 10
M  V30 10 1 8 11
M  V30 11 2 9 12
M  V30 12 1 11 13
M  V30 13 2 11 14
M  V30 14 1 7 10
M  V30 15 1 12 14
M  V30 16 1 4 15
M  V30 17 1 6 16
M  V30 18 1 7 17
M  V30 19 1 8 18
M  V30 20 1 9 19
M  V30 21 1 10 20
M  V30 22 1 12 21
M  V30 23 1 13 22
M  V30 24 1 13 23
M  V30 25 1 14 24
M  V30 END BOND
M  V30 END CTAB
M  END
>  <Column 1>
2159

>  <level_0>
2340

>  <index>
2340

>  <Unnamed: 0>
2340

>  <NO.>
2352

>  <Name>
amphenidone

>  <IUPAC_name>
1-(3-aminophenyl)pyridin-2-one

>  <SMILES>
Nc1cccc(-n2ccccc2=O)c1

>  <CID>
8641

>  <logBB>


>  <BBB+/BBB->
BBB+

>  <Inchi>
InChI=1S/C11H10N2O/c12-9-4-3-5-10(8-9)13-7-2-1-6-11(13)14/h1-8H-12H2

>  <threshold>
-1

>  <reference>
R1|R13|R19|R6|R24|R27|R27|R27|R30|R30|

>  <group>
B

>  <Class>
-1

>  <ABC>
10.74

>  <ABCGG>
9.32

>  <nAcid>
0

>  <nBase>
0

>  <nAromAtom>
12

>  <nAromBond>
12

>  <nAtom>
24

>  <nHeavyAtom>
14

>  <nSpiro>
0

>  <nBridgehead>
0

>  <nHetero>
3

>  <nN>
2

>  <nO>
1

>  <nF>
0

>  <BalabanJ>
1.91

>  <BertzCT>
502.39

>  <nBonds>
25

>  <nBondsO>
15

>  <nBondsS>
12

>  <nBondsD>
1

>  <nBondsT>
0

>  <nBondsA>
12

>  <nBondsM>
13

>  <nBondsKS>
19

>  <nBondsKD>
6

>  <RNCG>
0.33

>  <RPCG>
0.21

>  <FCSP3>
0

>  <SZ>
16.33

>  <Sm>
15.5

>  <Sv>
15.94

>  <Sse>
24.1

>  <Sp>
16.79

>  <Si>
26.87

>  <MZ>
0.68

>  <Mm>
0.65

>  <Mv>
0.66

>  <Mse>
1

>  <Mp>
0.7

>  <Mi>
1.12

>  <NsCH3>
0

>  <NdCH2>
0

>  <NssCH2>
0

>  <NtCH>
0

>  <NdsCH>
0

>  <NaaCH>
8

>  <NsssCH>
0

>  <NddC>
0

>  <NtsC>
0

>  <NdssC>
0

>  <NaasC>
2

>  <NaaaC>
0

>  <NssssC>
0

>  <NsNH3>
0

>  <NsNH2>
1

>  <NssNH2>
0

>  <NdNH>
0

>  <NssNH>
0

>  <NaaNH>
0

>  <NtN>
0

>  <NsssNH>
0

>  <NdsN>
0

>  <NaaN>
0

>  <NsssN>
0

>  <NddsN>
0

>  <NaasN>
1

>  <NssssN>
0

>  <NsOH>
0

>  <NdO>
1

>  <NssO>
0

>  <NaaO>
0

>  <NsF>
0

>  <NsSiH3>
0

>  <NssSiH2>
0

>  <NsssSiH>
0

>  <NssssSi>
0

>  <NsPH2>
0

>  <NssPH>
0

>  <NsssP>
0

>  <NdsssP>
0

>  <NsssssP>
0

>  <NsSH>
0

>  <NdS>
0

>  <NssS>
0

>  <NaaS>
0

>  <NdssS>
0

>  <NddssS>
0

>  <NsCl>
0

>  <NsBr>
0

>  <NsI>
0

>  <fragCpx>
43.03

>  <fMF>
0.5

>  <nHBAcc>
3

>  <nHBDon>
1

>  <Kier1>
10.52

>  <Kier2>
4.68

>  <Lipinski>
1

>  <GhoseFilter>
1

>  <FilterItLogS>
-2.05

>  <VMcGowan>
144.16

>  <LabuteASA>
81.42

>  <PEOE_VSA1>
5.73

>  <PEOE_VSA2>
9.36

>  <PEOE_VSA3>
0

>  <PEOE_VSA4>
0

>  <PEOE_VSA5>
0

>  <PEOE_VSA6>
12.13

>  <PEOE_VSA7>
24.27

>  <PEOE_VSA8>
17.95

>  <PEOE_VSA9>
5.69

>  <PEOE_VSA10>
0

>  <PEOE_VSA11>
0

>  <PEOE_VSA12>
0

>  <PEOE_VSA13>
5.56

>  <SMR_VSA1>
0

>  <SMR_VSA2>
0

>  <SMR_VSA3>
4.57

>  <SMR_VSA4>
0

>  <SMR_VSA5>
0

>  <SMR_VSA6>
5.73

>  <SMR_VSA7>
59.02

>  <SMR_VSA8>
0

>  <SMR_VSA9>
5.69

>  <SlogP_VSA1>
11.29

>  <SlogP_VSA2>
4.57

>  <SlogP_VSA3>
0

>  <SlogP_VSA4>
0

>  <SlogP_VSA5>
0

>  <SlogP_VSA6>
53.46

>  <SlogP_VSA7>
0

>  <SlogP_VSA8>
5.69

>  <SlogP_VSA9>
0

>  <SlogP_VSA10>
5.69

>  <SlogP_VSA11>
0

>  <EState_VSA1>
0

>  <EState_VSA2>
5.56

>  <EState_VSA3>
5.69

>  <EState_VSA4>
5.69

>  <EState_VSA5>
6.07

>  <EState_VSA6>
28.96

>  <EState_VSA7>
18.2

>  <EState_VSA8>
0

>  <EState_VSA9>
5.73

>  <EState_VSA10>
4.79

>  <VSA_EState1>
1.55

>  <VSA_EState2>
11.45

>  <VSA_EState3>
0

>  <VSA_EState4>
7.01

>  <VSA_EState5>
0

>  <VSA_EState6>
12.26

>  <VSA_EState7>
1.72

>  <VSA_EState8>
0

>  <VSA_EState9>
0

>  <apol>
28.04

>  <bpol>
12.04

>  <nRing>
2

>  <nHRing>
1

>  <naRing>
2

>  <naHRing>
1

>  <nARing 2>
0

>  <nAHRing 2>
0

>  <nFRing>
0

>  <nFHRing>
0

>  <nFaRing>
0

>  <nFaHRing>
0

>  <nFARing 2>
0

>  <nFAHRing 2>
0

>  <nRot>
1

>  <SLogP>
1.42

>  <SMR>
56.45

>  <TopoPSA(NO)>
48.02

>  <TopoPSA>
48.02

>  <JGI1>
0.17

>  <JGI2>
0.08

>  <JGI3>
0.05

>  <JGI4>
0.03

>  <JGI5>
0.03

>  <Diameter>
7

>  <Radius>
4

>  <TMWC10>
97.67

>  <TSRW10>
45.55

>  <MW>
186.08

>  <AMW>
7.75

>  <WPath>
294

>  <WPol>
19

>  <Zagreb1>
70

>  <Zagreb2>
80

>  <mZagreb2>
3.14

>  <yes>


>  <nAR-cont>
0.336376

>  <nHA-cont>
0.887625254

>  <MWHBN>
0.293231176

>  <MWHBN-cont>
0.860479382

>  <TPSA-cont>
0.664790581

>  <pka_cont>
0.97

>  <yes.1>


>  <BBB_SCORE>
4.32930149

>  <MMFF94 Energy>
30.437

$$$$
Compound 1768
Actelion Java MolfileCreator 2.0

  0  0  0  0  0  0              0 V3000
M  V30 BEGIN CTAB
M  V30 COUNTS 16 17 0 0 0
M  V30 BEGIN ATOM
M  V30 1 S 2.9601 -1.4392 -0.2397 0
M  V30 2 C 1.5239 -0.6975 0.1884 0
M  V30 3 N 1.1391 -0.3491 1.4697 0
M  V30 4 C 0.5708 -0.3722 -0.8269 0
M  V30 5 C -0.0155 0.2263 1.6523 0
M  V30 6 N 0.5536 -0.5383 -2.1853 0
M  V30 7 C -0.6208 0.233 -0.5502 0
M  V30 8 N -0.9444 0.5486 0.7027 0
M  V30 9 N -0.386 0.5645 2.9068 0
M  V30 10 C -0.6374 -0.0268 -2.6375 0
M  V30 11 N -1.3742 0.4515 -1.6541 0
M  V30 12 H 1.2839 -0.9592 -2.7447 0
M  V30 13 H -1.8171 0.995 0.9302 0
M  V30 14 H 0.2582 0.3529 3.6581 0
M  V30 15 H -1.2596 1.0112 3.1332 0
M  V30 16 H -0.9061 -0.0329 -3.6859 0
M  V30 END ATOM
M  V30 BEGIN BOND
M  V30 1 2 1 2
M  V30 2 1 2 3
M  V30 3 1 2 4
M  V30 4 2 3 5
M  V30 5 1 4 6
M  V30 6 2 4 7
M  V30 7 1 5 8
M  V30 8 1 5 9
M  V30 9 1 6 10
M  V30 10 1 7 11
M  V30 11 1 7 8
M  V30 12 2 10 11
M  V30 13 1 6 12
M  V30 14 1 8 13
M  V30 15 1 9 14
M  V30 16 1 9 15
M  V30 17 1 10 16
M  V30 END BOND
M  V30 END CTAB
M  END
>  <Column 1>
2161

>  <level_0>
2342

>  <index>
2342

>  <Unnamed: 0>
2342

>  <NO.>
2354

>  <Name>
thioguanine

>  <IUPAC_name>
2-amino-3-7-dihydropurine-6-thione

>  <SMILES>
Nc1nc(=S)c2[nH]cnc2[nH]1

>  <CID>
2723601

>  <logBB>


>  <BBB+/BBB->
BBB-

>  <Inchi>
InChI=1S/C5H5N5S/c6-5-9-3-2(4(11)10-5)7-1-8-3/h1H-(H4-6-7-8-9-10-11)

>  <threshold>
-1

>  <reference>
R1|R13|R14|R15|R23|R27|R30|

>  <group>
B

>  <Class>
-1

>  <ABC>
8.62

>  <ABCGG>
8.09

>  <nAcid>
0

>  <nBase>
0

>  <nAromAtom>
9

>  <nAromBond>
10

>  <nAtom>
16

>  <nHeavyAtom>
11

>  <nSpiro>
0

>  <nBridgehead>
0

>  <nHetero>
6

>  <nN>
5

>  <nO>
0

>  <nF>
0

>  <BalabanJ>
2.04

>  <BertzCT>
441.31

>  <nBonds>
17

>  <nBondsO>
12

>  <nBondsS>
6

>  <nBondsD>
1

>  <nBondsT>
0

>  <nBondsA>
10

>  <nBondsM>
11

>  <nBondsKS>
13

>  <nBondsKD>
4

>  <RNCG>
0.25

>  <RPCG>
0.13

>  <FCSP3>
0

>  <SZ>
14.33

>  <Sm>
13.92

>  <Sv>
11.33

>  <Sse>
16.61

>  <Sp>
12.03

>  <Si>
18.41

>  <MZ>
0.9

>  <Mm>
0.87

>  <Mv>
0.71

>  <Mse>
1.04

>  <Mp>
0.75

>  <Mi>
1.15

>  <NsCH3>
0

>  <NdCH2>
0

>  <NssCH2>
0

>  <NtCH>
0

>  <NdsCH>
0

>  <NaaCH>
1

>  <NsssCH>
0

>  <NddC>
0

>  <NtsC>
0

>  <NdssC>
0

>  <NaasC>
1

>  <NaaaC>
2

>  <NssssC>
0

>  <NsNH3>
0

>  <NsNH2>
1

>  <NssNH2>
0

>  <NdNH>
0

>  <NssNH>
0

>  <NaaNH>
2

>  <NtN>
0

>  <NsssNH>
0

>  <NdsN>
0

>  <NaaN>
2

>  <NsssN>
0

>  <NddsN>
0

>  <NaasN>
0

>  <NssssN>
0

>  <NsOH>
0

>  <NdO>
0

>  <NssO>
0

>  <NaaO>
0

>  <NsF>
0

>  <NsSiH3>
0

>  <NssSiH2>
0

>  <NsssSiH>
0

>  <NssssSi>
0

>  <NsPH2>
0

>  <NssPH>
0

>  <NsssP>
0

>  <NdsssP>
0

>  <NsssssP>
0

>  <NsSH>
0

>  <NdS>
1

>  <NssS>
0

>  <NaaS>
0

>  <NdssS>
0

>  <NddssS>
0

>  <NsCl>
0

>  <NsBr>
0

>  <NsI>
0

>  <fragCpx>
34.06

>  <fMF>
0.56

>  <nHBAcc>
4

>  <nHBDon>
3

>  <Kier1>
7.64

>  <Kier2>
2.8

>  <Lipinski>
1

>  <GhoseFilter>
0

>  <FilterItLogS>
-1.76

>  <VMcGowan>
108.64

>  <LabuteASA>
66.68

>  <PEOE_VSA1>
15.7

>  <PEOE_VSA2>
0

>  <PEOE_VSA3>
9.97

>  <PEOE_VSA4>
0

>  <PEOE_VSA5>
0

>  <PEOE_VSA6>
12.22

>  <PEOE_VSA7>
0

>  <PEOE_VSA8>
0

>  <PEOE_VSA9>
6.33

>  <PEOE_VSA10>
5.52

>  <PEOE_VSA11>
10.29

>  <PEOE_VSA12>
5.95

>  <PEOE_VSA13>
0

>  <SMR_VSA1>
0

>  <SMR_VSA2>
0

>  <SMR_VSA3>
19.94

>  <SMR_VSA4>
0

>  <SMR_VSA5>
0

>  <SMR_VSA6>
5.73

>  <SMR_VSA7>
10.97

>  <SMR_VSA8>
0

>  <SMR_VSA9>
0

>  <SlogP_VSA1>
5.73

>  <SlogP_VSA2>
19.94

>  <SlogP_VSA3>
0

>  <SlogP_VSA4>
4.64

>  <SlogP_VSA5>
0

>  <SlogP_VSA6>
6.33

>  <SlogP_VSA7>
0

>  <SlogP_VSA8>
11.16

>  <SlogP_VSA9>
0

>  <SlogP_VSA10>
5.95

>  <SlogP_VSA11>
0

>  <EState_VSA1>
0

>  <EState_VSA2>
5.95

>  <EState_VSA3>
15.8

>  <EState_VSA4>
0

>  <EState_VSA5>
6.33

>  <EState_VSA6>
0

>  <EState_VSA7>
0

>  <EState_VSA8>
19.94

>  <EState_VSA9>
17.95

>  <EState_VSA10>
0

>  <VSA_EState1>
0.44

>  <VSA_EState2>
13.4

>  <VSA_EState3>
0

>  <VSA_EState4>
6.75

>  <VSA_EState5>
0.29

>  <VSA_EState6>
0

>  <VSA_EState7>
1.54

>  <VSA_EState8>
0

>  <VSA_EState9>
0

>  <apol>
20.08

>  <bpol>
9.1

>  <nRing>
2

>  <nHRing>
2

>  <naRing>
2

>  <naHRing>
2

>  <nARing 2>
0

>  <nAHRing 2>
0

>  <nFRing>
1

>  <nFHRing>
1

>  <nFaRing>
1

>  <nFaHRing>
1

>  <nFARing 2>
0

>  <nFAHRing 2>
0

>  <nRot>
0

>  <SLogP>
0.6

>  <SMR>
43.49

>  <TopoPSA(NO)>
83.38

>  <TopoPSA>
115.47

>  <JGI1>
0.21

>  <JGI2>
0.08

>  <JGI3>
0.06

>  <JGI4>
0.06

>  <JGI5>
0.04

>  <Diameter>
5

>  <Radius>
3

>  <TMWC10>
90.9

>  <TSRW10>
55.36

>  <MW>
167.03

>  <AMW>
10.44

>  <WPath>
138

>  <WPol>
14

>  <Zagreb1>
58

>  <Zagreb2>
68

>  <mZagreb2>
2.39

>  <yes>


>  <nAR-cont>
0.336376

>  <nHA-cont>
0.720786536

>  <MWHBN>
0.541627616

>  <MWHBN-cont>
0

>  <TPSA-cont>
0.193947697

>  <pka_cont>
0.97

>  <yes.1>


>  <BBB_SCORE>
1.930057931

>  <MMFF94 Energy>
-146.01

$$$$
Compound 1769
Actelion Java MolfileCreator 2.0

  0  0  0  0  0  0              0 V3000
M  V30 BEGIN CTAB
M  V30 COUNTS 30 32 0 0 0
M  V30 BEGIN ATOM
M  V30 1 N -1.58 2.7663 -1.6591 0
M  V30 2 C -0.686 3.6868 -2.0008 0
M  V30 3 C -1.1413 1.6795 -1.0325 0
M  V30 4 N 0.619 3.6021 -1.7633 0
M  V30 5 N -1.1399 4.8013 -2.6405 0
M  V30 6 N -2.0504 0.7617 -0.6864 0
M  V30 7 C 0.205 1.4665 -0.726 0
M  V30 8 C 1.0449 2.4942 -1.1387 0
M  V30 9 C -1.6417 -0.3521 -0.0424 0
M  V30 10 N 0.6508 0.343 -0.0927 0
M  V30 11 N 2.4061 2.4465 -0.8609 0
M  V30 12 N -2.6557 -1.2384 0.2748 0
M  V30 13 C -0.2849 -0.5819 0.2353 0
M  V30 14 C 0.2421 -1.7891 0.8972 0
M  V30 15 C -0.1284 -3.0829 0.4895 0
M  V30 16 C 1.1621 -1.6772 1.9557 0
M  V30 17 C 0.3813 -4.2172 1.1281 0
M  V30 18 C 1.6729 -2.8096 2.5959 0
M  V30 19 C 1.279 -4.0793 2.1832 0
M  V30 20 H -2.1263 4.8765 -2.8195 0
M  V30 21 H -0.4733 5.5081 -2.8969 0
M  V30 22 H 2.8169 1.5341 -0.708 0
M  V30 23 H 2.9616 3.2104 -1.2159 0
M  V30 24 H -3.5728 -0.9081 -0.0017 0
M  V30 25 H -2.5852 -1.7499 1.1439 0
M  V30 26 H -0.8139 -3.2196 -0.3456 0
M  V30 27 H 1.488 -0.6922 2.2878 0
M  V30 28 H 0.0818 -5.2076 0.7947 0
M  V30 29 H 2.3813 -2.697 3.4125 0
M  V30 30 H 1.6786 -4.9609 2.6776 0
M  V30 END ATOM
M  V30 BEGIN BOND
M  V30 1 2 1 2
M  V30 2 1 1 3
M  V30 3 1 2 4
M  V30 4 1 2 5
M  V30 5 2 3 6
M  V30 6 1 3 7
M  V30 7 2 4 8
M  V30 8 1 6 9
M  V30 9 2 7 10
M  V30 10 1 8 11
M  V30 11 1 9 12
M  V30 12 2 9 13
M  V30 13 1 13 14
M  V30 14 2 14 15
M  V30 15 1 14 16
M  V30 16 1 15 17
M  V30 17 2 16 18
M  V30 18 2 17 19
M  V30 19 1 7 8
M  V30 20 1 10 13
M  V30 21 1 18 19
M  V30 22 1 5 20
M  V30 23 1 5 21
M  V30 24 1 11 22
M  V30 25 1 11 23
M  V30 26 1 12 24
M  V30 27 1 12 25
M  V30 28 1 15 26
M  V30 29 1 16 27
M  V30 30 1 17 28
M  V30 31 1 18 29
M  V30 32 1 19 30
M  V30 END BOND
M  V30 END CTAB
M  END
>  <Column 1>
2162

>  <level_0>
2343

>  <index>
2343

>  <Unnamed: 0>
2343

>  <NO.>
2355

>  <Name>
triamterene

>  <IUPAC_name>
6-phenylpteridine-2-4-7-triamine

>  <SMILES>
Nc1nc(N)c2nc(-c3ccccc3)c(N)nc2n1

>  <CID>
5546

>  <logBB>


>  <BBB+/BBB->
BBB-

>  <Inchi>
InChI=1S/C12H11N7/c13-9-7(6-4-2-1-3-5-6)16-8-10(14)18-12(15)19-11(8)17-9/h1-5H-(H6-13-14-15-17-18-19)

>  <threshold>
-1

>  <reference>
R1|R13|R14|R15|R23|R27|R30|

>  <group>
B

>  <Class>
1

>  <ABC>
15.02

>  <ABCGG>
12.09

>  <nAcid>
0

>  <nBase>
0

>  <nAromAtom>
16

>  <nAromBond>
17

>  <nAtom>
30

>  <nHeavyAtom>
19

>  <nSpiro>
0

>  <nBridgehead>
0

>  <nHetero>
7

>  <nN>
7

>  <nO>
0

>  <nF>
0

>  <BalabanJ>
1.68

>  <BertzCT>
754.87

>  <nBonds>
32

>  <nBondsO>
21

>  <nBondsS>
15

>  <nBondsD>
0

>  <nBondsT>
0

>  <nBondsA>
17

>  <nBondsM>
17

>  <nBondsKS>
24

>  <nBondsKD>
8

>  <RNCG>
0.17

>  <RPCG>
0.1

>  <FCSP3>
0

>  <SZ>
22

>  <Sm>
21.09

>  <Sv>
20.29

>  <Sse>
30.53

>  <Sp>
21

>  <Si>
34.32

>  <MZ>
0.73

>  <Mm>
0.7

>  <Mv>
0.68

>  <Mse>
1.02

>  <Mp>
0.7

>  <Mi>
1.14

>  <NsCH3>
0

>  <NdCH2>
0

>  <NssCH2>
0

>  <NtCH>
0

>  <NdsCH>
0

>  <NaaCH>
5

>  <NsssCH>
0

>  <NddC>
0

>  <NtsC>
0

>  <NdssC>
0

>  <NaasC>
5

>  <NaaaC>
2

>  <NssssC>
0

>  <NsNH3>
0

>  <NsNH2>
3

>  <NssNH2>
0

>  <NdNH>
0

>  <NssNH>
0

>  <NaaNH>
0

>  <NtN>
0

>  <NsssNH>
0

>  <NdsN>
0

>  <NaaN>
4

>  <NsssN>
0

>  <NddsN>
0

>  <NaasN>
0

>  <NssssN>
0

>  <NsOH>
0

>  <NdO>
0

>  <NssO>
0

>  <NaaO>
0

>  <NsF>
0

>  <NsSiH3>
0

>  <NssSiH2>
0

>  <NsssSiH>
0

>  <NssssSi>
0

>  <NsPH2>
0

>  <NssPH>
0

>  <NsssP>
0

>  <NdsssP>
0

>  <NsssssP>
0

>  <NsSH>
0

>  <NdS>
0

>  <NssS>
0

>  <NaaS>
0

>  <NdssS>
0

>  <NddssS>
0

>  <NsCl>
0

>  <NsBr>
0

>  <NsI>
0

>  <fragCpx>
99.07

>  <fMF>
0.53

>  <nHBAcc>
7

>  <nHBDon>
3

>  <Kier1>
13.96

>  <Kier2>
5.78

>  <Lipinski>
1

>  <GhoseFilter>
1

>  <FilterItLogS>
-3.27

>  <VMcGowan>
182.82

>  <LabuteASA>
108.07

>  <PEOE_VSA1>
17.2

>  <PEOE_VSA2>
0

>  <PEOE_VSA3>
9.97

>  <PEOE_VSA4>
9.97

>  <PEOE_VSA5>
0

>  <PEOE_VSA6>
30.33

>  <PEOE_VSA7>
0

>  <PEOE_VSA8>
5.56

>  <PEOE_VSA9>
0

>  <PEOE_VSA10>
5.69

>  <PEOE_VSA11>
22.8

>  <PEOE_VSA12>
5.95

>  <PEOE_VSA13>
0

>  <SMR_VSA1>
0

>  <SMR_VSA2>
0

>  <SMR_VSA3>
19.94

>  <SMR_VSA4>
0

>  <SMR_VSA5>
0

>  <SMR_VSA6>
17.2

>  <SMR_VSA7>
30.33

>  <SMR_VSA8>
0

>  <SMR_VSA9>
11.26

>  <SlogP_VSA1>
17.2

>  <SlogP_VSA2>
19.94

>  <SlogP_VSA3>
0

>  <SlogP_VSA4>
0

>  <SlogP_VSA5>
0

>  <SlogP_VSA6>
30.33

>  <SlogP_VSA7>
0

>  <SlogP_VSA8>
22.42

>  <SlogP_VSA9>
0

>  <SlogP_VSA10>
17.58

>  <SlogP_VSA11>
0

>  <EState_VSA1>
0

>  <EState_VSA2>
17.58

>  <EState_VSA3>
16.86

>  <EState_VSA4>
5.56

>  <EState_VSA5>
0

>  <EState_VSA6>
0

>  <EState_VSA7>
30.33

>  <EState_VSA8>
19.94

>  <EState_VSA9>
17.2

>  <EState_VSA10>
0

>  <VSA_EState1>
0

>  <VSA_EState2>
16.4

>  <VSA_EState3>
0

>  <VSA_EState4>
19.28

>  <VSA_EState5>
0.51

>  <VSA_EState6>
9.47

>  <VSA_EState7>
0

>  <VSA_EState8>
0

>  <VSA_EState9>
0

>  <apol>
35.07

>  <bpol>
13.89

>  <nRing>
3

>  <nHRing>
2

>  <naRing>
3

>  <naHRing>
2

>  <nARing 2>
0

>  <nAHRing 2>
0

>  <nFRing>
1

>  <nFHRing>
1

>  <nFaRing>
1

>  <nFaHRing>
1

>  <nFARing 2>
0

>  <nFAHRing 2>
0

>  <nRot>
1

>  <SLogP>
0.83

>  <SMR>
73.8

>  <TopoPSA(NO)>
129.62

>  <TopoPSA>
129.62

>  <JGI1>
0.19

>  <JGI2>
0.07

>  <JGI3>
0.05

>  <JGI4>
0.05

>  <JGI5>
0.03

>  <Diameter>
10

>  <Radius>
5

>  <TMWC10>
113.51

>  <TSRW10>
52.75

>  <MW>
253.11

>  <AMW>
8.44

>  <WPath>
670

>  <WPol>
31

>  <Zagreb1>
102

>  <Zagreb2>
121

>  <mZagreb2>
4.11

>  <yes>


>  <nAR-cont>
0.336376

>  <nHA-cont>
0.998649058

>  <MWHBN>
0.628557985

>  <MWHBN-cont>
0

>  <TPSA-cont>
0

>  <pka_cont>
0.97

>  <yes.1>


>  <BBB_SCORE>
1.820025058

>  <MMFF94 Energy>
-11.946

$$$$
Compound 1770
Actelion Java MolfileCreator 2.0

  0  0  0  0  0  0              0 V3000
M  V30 BEGIN CTAB
M  V30 COUNTS 25 27 0 0 0
M  V30 BEGIN ATOM
M  V30 1 O -0.6423 -0.7226 3.1344 0
M  V30 2 C -0.0073 0.0935 2.4696 0
M  V30 3 N 0.7494 1.1233 3.0244 0
M  V30 4 C -2.0E-4 0.0405 0.9943 0
M  V30 5 N 0.7985 1.2485 4.4374 0
M  V30 6 C 1.4505 2.0228 2.253 0
M  V30 7 C 0.7448 1.0021 0.3076 0
M  V30 8 C -0.7204 -0.946 0.3117 0
M  V30 9 N 1.4796 2.0069 0.9613 0
M  V30 10 C 0.7608 0.9642 -1.0882 0
M  V30 11 C -0.7038 -0.9832 -1.0893 0
M  V30 12 C 0.0462 -0.0157 -1.7995 0
M  V30 13 C -1.4162 -1.9605 -1.8019 0
M  V30 14 C 0.0612 -0.0553 -3.2026 0
M  V30 15 C -1.3901 -1.9848 -3.1971 0
M  V30 16 C -0.6526 -1.0337 -3.8962 0
M  V30 17 H -0.1765 1.3005 4.7499 0
M  V30 18 H 1.1053 0.3364 4.7908 0
M  V30 19 H 2.0051 2.7845 2.8247 0
M  V30 20 H -1.2913 -1.681 0.876 0
M  V30 21 H 1.3419 1.7143 -1.6208 0
M  V30 22 H -1.9991 -2.713 -1.2745 0
M  V30 23 H 0.6314 0.6789 -3.768 0
M  V30 24 H -1.9461 -2.7469 -3.7373 0
M  V30 25 H -0.632 -1.0523 -4.9829 0
M  V30 END ATOM
M  V30 BEGIN BOND
M  V30 1 2 1 2
M  V30 2 1 2 3
M  V30 3 1 2 4
M  V30 4 1 3 5
M  V30 5 1 3 6
M  V30 6 1 4 7
M  V30 7 2 4 8
M  V30 8 2 6 9
M  V30 9 2 7 10
M  V30 10 1 8 11
M  V30 11 1 10 12
M  V30 12 2 11 13
M  V30 13 2 12 14
M  V30 14 1 13 15
M  V30 15 1 14 16
M  V30 16 1 7 9
M  V30 17 1 11 12
M  V30 18 2 15 16
M  V30 19 1 5 17
M  V30 20 1 5 18
M  V30 21 1 6 19
M  V30 22 1 8 20
M  V30 23 1 10 21
M  V30 24 1 13 22
M  V30 25 1 14 23
M  V30 26 1 15 24
M  V30 27 1 16 25
M  V30 END BOND
M  V30 END CTAB
M  END
>  <Column 1>
2166

>  <level_0>
2347

>  <index>
2347

>  <Unnamed: 0>
2347

>  <NO.>
2359

>  <Name>
centazolone

>  <IUPAC_name>
3-aminobenzo[g]quinazolin-4-one

>  <SMILES>
Nn1cnc2cc3ccccc3cc2c1=O

>  <CID>
72846

>  <logBB>


>  <BBB+/BBB->
BBB+

>  <Inchi>
InChI=1S/C12H9N3O/c13-15-7-14-11-6-9-4-2-1-3-8(9)5-10(11)12(15)16/h1-7H-13H2

>  <threshold>
-1

>  <reference>
R1|R13|R27|R30|

>  <group>
B

>  <Class>
1

>  <ABC>
12.78

>  <ABCGG>
10.19

>  <nAcid>
0

>  <nBase>
0

>  <nAromAtom>
14

>  <nAromBond>
16

>  <nAtom>
25

>  <nHeavyAtom>
16

>  <nSpiro>
0

>  <nBridgehead>
0

>  <nHetero>
4

>  <nN>
3

>  <nO>
1

>  <nF>
0

>  <BalabanJ>
1.72

>  <BertzCT>
745.92

>  <nBonds>
27

>  <nBondsO>
18

>  <nBondsS>
10

>  <nBondsD>
1

>  <nBondsT>
0

>  <nBondsA>
16

>  <nBondsM>
17

>  <nBondsKS>
20

>  <nBondsKD>
7

>  <RNCG>
0.24

>  <RPCG>
0.2

>  <FCSP3>
0

>  <SZ>
18.33

>  <Sm>
17.59

>  <Sv>
17.43

>  <Sse>
25.32

>  <Sp>
18.05

>  <Si>
27.95

>  <MZ>
0.73

>  <Mm>
0.7

>  <Mv>
0.7

>  <Mse>
1.01

>  <Mp>
0.72

>  <Mi>
1.12

>  <NsCH3>
0

>  <NdCH2>
0

>  <NssCH2>
0

>  <NtCH>
0

>  <NdsCH>
0

>  <NaaCH>
7

>  <NsssCH>
0

>  <NddC>
0

>  <NtsC>
0

>  <NdssC>
0

>  <NaasC>
0

>  <NaaaC>
4

>  <NssssC>
0

>  <NsNH3>
0

>  <NsNH2>
1

>  <NssNH2>
0

>  <NdNH>
0

>  <NssNH>
0

>  <NaaNH>
0

>  <NtN>
0

>  <NsssNH>
0

>  <NdsN>
0

>  <NaaN>
1

>  <NsssN>
0

>  <NddsN>
0

>  <NaasN>
1

>  <NssssN>
0

>  <NsOH>
0

>  <NdO>
1

>  <NssO>
0

>  <NaaO>
0

>  <NsF>
0

>  <NsSiH3>
0

>  <NssSiH2>
0

>  <NsssSiH>
0

>  <NssssSi>
0

>  <NsPH2>
0

>  <NssPH>
0

>  <NsssP>
0

>  <NdsssP>
0

>  <NsssssP>
0

>  <NsSH>
0

>  <NdS>
0

>  <NssS>
0

>  <NaaS>
0

>  <NdssS>
0

>  <NddssS>
0

>  <NsCl>
0

>  <NsBr>
0

>  <NsI>
0

>  <fragCpx>
84.04

>  <fMF>
0.56

>  <nHBAcc>
4

>  <nHBDon>
1

>  <Kier1>
11.11

>  <Kier2>
4.35

>  <Lipinski>
1

>  <GhoseFilter>
1

>  <FilterItLogS>
-2.67

>  <VMcGowan>
153.07

>  <LabuteASA>
90.92

>  <PEOE_VSA1>
5.84

>  <PEOE_VSA2>
4.79

>  <PEOE_VSA3>
9.66

>  <PEOE_VSA4>
0

>  <PEOE_VSA5>
0

>  <PEOE_VSA6>
24.27

>  <PEOE_VSA7>
22.91

>  <PEOE_VSA8>
0

>  <PEOE_VSA9>
10.9

>  <PEOE_VSA10>
6.33

>  <PEOE_VSA11>
0

>  <PEOE_VSA12>
0

>  <PEOE_VSA13>
5.56

>  <SMR_VSA1>
0

>  <SMR_VSA2>
0

>  <SMR_VSA3>
9.66

>  <SMR_VSA4>
0

>  <SMR_VSA5>
0

>  <SMR_VSA6>
5.84

>  <SMR_VSA7>
53.08

>  <SMR_VSA8>
0

>  <SMR_VSA9>
0

>  <SlogP_VSA1>
11.4

>  <SlogP_VSA2>
9.66

>  <SlogP_VSA3>
0

>  <SlogP_VSA4>
0

>  <SlogP_VSA5>
0

>  <SlogP_VSA6>
47.52

>  <SlogP_VSA7>
0

>  <SlogP_VSA8>
21.68

>  <SlogP_VSA9>
0

>  <SlogP_VSA10>
0

>  <SlogP_VSA11>
0

>  <EState_VSA1>
0

>  <EState_VSA2>
5.56

>  <EState_VSA3>
10.9

>  <EState_VSA4>
15.45

>  <EState_VSA5>
6.33

>  <EState_VSA6>
0

>  <EState_VSA7>
36.4

>  <EState_VSA8>
4.98

>  <EState_VSA9>
5.84

>  <EState_VSA10>
4.79

>  <VSA_EState1>
1

>  <VSA_EState2>
15.9

>  <VSA_EState3>
2.63

>  <VSA_EState4>
0.45

>  <VSA_EState5>
5.47

>  <VSA_EState6>
11.56

>  <VSA_EState7>
1.33

>  <VSA_EState8>
0

>  <VSA_EState9>
0

>  <apol>
30.14

>  <bpol>
11.04

>  <nRing>
3

>  <nHRing>
1

>  <naRing>
3

>  <naHRing>
1

>  <nARing 2>
0

>  <nAHRing 2>
0

>  <nFRing>
1

>  <nFHRing>
1

>  <nFaRing>
1

>  <nFaHRing>
1

>  <nFARing 2>
0

>  <nFAHRing 2>
0

>  <nRot>
0

>  <SLogP>
1.26

>  <SMR>
63.66

>  <TopoPSA(NO)>
60.91

>  <TopoPSA>
60.91

>  <JGI1>
0.17

>  <JGI2>
0.09

>  <JGI3>
0.04

>  <JGI4>
0.07

>  <JGI5>
0.03

>  <Diameter>
8

>  <Radius>
4

>  <TMWC10>
106.41

>  <TSRW10>
49.14

>  <MW>
211.07

>  <AMW>
8.44

>  <WPath>
400

>  <WPol>
27

>  <Zagreb1>
88

>  <Zagreb2>
106

>  <mZagreb2>
3.44

>  <yes>


>  <nAR-cont>
0.336376

>  <nHA-cont>
0.954961865

>  <MWHBN>
0.344157112

>  <MWHBN-cont>
0.691929797

>  <TPSA-cont>
0.574810377

>  <pka_cont>
0.97

>  <yes.1>


>  <BBB_SCORE>
3.963853315

>  <MMFF94 Energy>
66.995

$$$$
Compound 1771
Actelion Java MolfileCreator 2.0

  0  0  0  0  0  0              0 V3000
M  V30 BEGIN CTAB
M  V30 COUNTS 36 38 0 0 0
M  V30 BEGIN ATOM
M  V30 1 O 2.9532 -0.2392 0.4784 0
M  V30 2 C 1.9409 0.3077 0.045 0
M  V30 3 N 1.9584 1.5241 -0.6178 0
M  V30 4 C 0.6209 -0.3538 0.2085 0
M  V30 5 C 3.2501 2.1389 -0.9174 0
M  V30 6 C 0.7953 2.3498 -0.9496 0
M  V30 7 C 0.4142 -1.1604 1.261 0
M  V30 8 C 3.3286 2.5462 -2.3875 0
M  V30 9 C 0.8176 2.7465 -2.4229 0
M  V30 10 C -0.8308 -1.9039 1.4957 0
M  V30 11 C 2.1403 3.4187 -2.7899 0
M  V30 12 C -2.0905 -1.3654 1.1915 0
M  V30 13 C -0.7493 -3.1809 2.0958 0
M  V30 14 C -3.2084 -2.1247 1.4719 0
M  V30 15 C -1.9006 -3.9284 2.369 0
M  V30 16 O -4.4966 -1.7557 1.2371 0
M  V30 17 C -3.1163 -3.3712 2.0427 0
M  V30 18 C -5.2035 -2.9159 1.7237 0
M  V30 19 O -4.333 -3.9454 2.2366 0
M  V30 20 H -0.1158 -0.2222 -0.5703 0
M  V30 21 H 3.354 3.0177 -0.2698 0
M  V30 22 H 4.0784 1.4623 -0.6844 0
M  V30 23 H -0.1488 1.8592 -0.7086 0
M  V30 24 H 0.8488 3.2455 -0.3182 0
M  V30 25 H 1.2076 -1.3141 1.9911 0
M  V30 26 H 3.3379 1.6449 -3.013 0
M  V30 27 H 4.2653 3.0818 -2.5766 0
M  V30 28 H 0.6825 1.8523 -3.0438 0
M  V30 29 H -0.0158 3.4233 -2.6402 0
M  V30 30 H 2.2107 4.3884 -2.282 0
M  V30 31 H 2.1712 3.6163 -3.867 0
M  V30 32 H -2.2057 -0.3781 0.7597 0
M  V30 33 H 0.2219 -3.6045 2.3467 0
M  V30 34 H -1.8383 -4.9106 2.8231 0
M  V30 35 H -5.8841 -2.6016 2.5234 0
M  V30 36 H -5.7962 -3.3349 0.9023 0
M  V30 END ATOM
M  V30 BEGIN BOND
M  V30 1 2 1 2
M  V30 2 1 2 3
M  V30 3 1 2 4
M  V30 4 1 3 5
M  V30 5 1 3 6
M  V30 6 2 4 7
M  V30 7 1 5 8
M  V30 8 1 6 9
M  V30 9 1 7 10
M  V30 10 1 8 11
M  V30 11 2 10 12
M  V30 12 1 10 13
M  V30 13 1 12 14
M  V30 14 2 13 15
M  V30 15 1 14 16
M  V30 16 2 14 17
M  V30 17 1 16 18
M  V30 18 1 17 19
M  V30 19 1 9 11
M  V30 20 1 15 17
M  V30 21 1 18 19
M  V30 22 1 4 20
M  V30 23 1 5 21
M  V30 24 1 5 22
M  V30 25 1 6 23
M  V30 26 1 6 24
M  V30 27 1 7 25
M  V30 28 1 8 26
M  V30 29 1 8 27
M  V30 30 1 9 28
M  V30 31 1 9 29
M  V30 32 1 11 30
M  V30 33 1 11 31
M  V30 34 1 12 32
M  V30 35 1 13 33
M  V30 36 1 15 34
M  V30 37 1 18 35
M  V30 38 1 18 36
M  V30 END BOND
M  V30 END CTAB
M  END
>  <Column 1>
2167

>  <level_0>
2348

>  <index>
2348

>  <Unnamed: 0>
2348

>  <NO.>
2360

>  <Name>
ilepcimide

>  <IUPAC_name>
(e)-3-(1-3-benzodioxol-5-yl)-1-piperidin-1-ylprop-2-en-1-one

>  <SMILES>
O=C(/C=C/c1ccc2c(c1)OCO2)N1CCCCC1

>  <CID>
641115

>  <logBB>


>  <BBB+/BBB->
BBB+

>  <Inchi>
InChI=1S/C15H17NO3/c17-15(16-8-2-1-3-9-16)7-5-12-4-6-13-14(10-12)19-11-18-13/h4-7-10H-1-3-8-9-11H2/b7-5+

>  <threshold>
-1

>  <reference>
R1|R13|R6|R24|R27|R27|R30|R30|

>  <group>
B

>  <Class>
1

>  <ABC>
14.88

>  <ABCGG>
12.08

>  <nAcid>
0

>  <nBase>
0

>  <nAromAtom>
6

>  <nAromBond>
6

>  <nAtom>
36

>  <nHeavyAtom>
19

>  <nSpiro>
0

>  <nBridgehead>
0

>  <nHetero>
4

>  <nN>
1

>  <nO>
3

>  <nF>
0

>  <BalabanJ>
1.39

>  <BertzCT>
504.11

>  <nBonds>
38

>  <nBondsO>
21

>  <nBondsS>
30

>  <nBondsD>
2

>  <nBondsT>
0

>  <nBondsA>
6

>  <nBondsM>
8

>  <nBondsKS>
33

>  <nBondsKD>
5

>  <RNCG>
0.25

>  <RPCG>
0.14

>  <FCSP3>
0.4

>  <SZ>
23

>  <Sm>
21.59

>  <Sv>
22.51

>  <Sse>
36.2

>  <Sp>
23.89

>  <Si>
40.45

>  <MZ>
0.64

>  <Mm>
0.6

>  <Mv>
0.63

>  <Mse>
1.01

>  <Mp>
0.66

>  <Mi>
1.12

>  <NsCH3>
0

>  <NdCH2>
0

>  <NssCH2>
6

>  <NtCH>
0

>  <NdsCH>
2

>  <NaaCH>
3

>  <NsssCH>
0

>  <NddC>
0

>  <NtsC>
0

>  <NdssC>
1

>  <NaasC>
3

>  <NaaaC>
0

>  <NssssC>
0

>  <NsNH3>
0

>  <NsNH2>
0

>  <NssNH2>
0

>  <NdNH>
0

>  <NssNH>
0

>  <NaaNH>
0

>  <NtN>
0

>  <NsssNH>
0

>  <NdsN>
0

>  <NaaN>
0

>  <NsssN>
1

>  <NddsN>
0

>  <NaasN>
0

>  <NssssN>
0

>  <NsOH>
0

>  <NdO>
1

>  <NssO>
2

>  <NaaO>
0

>  <NsF>
0

>  <NsSiH3>
0

>  <NssSiH2>
0

>  <NsssSiH>
0

>  <NssssSi>
0

>  <NsPH2>
0

>  <NssPH>
0

>  <NsssP>
0

>  <NdsssP>
0

>  <NsssssP>
0

>  <NsSH>
0

>  <NdS>
0

>  <NssS>
0

>  <NaaS>
0

>  <NdssS>
0

>  <NddssS>
0

>  <NsCl>
0

>  <NsBr>
0

>  <NsI>
0

>  <fragCpx>
99.04

>  <fMF>
0.5

>  <nHBAcc>
3

>  <nHBDon>
0

>  <Kier1>
13.96

>  <Kier2>
6.64

>  <Lipinski>
1

>  <GhoseFilter>
1

>  <FilterItLogS>
-2.46

>  <VMcGowan>
195.72

>  <LabuteASA>
112.16

>  <PEOE_VSA1>
14.37

>  <PEOE_VSA2>
4.79

>  <PEOE_VSA3>
0

>  <PEOE_VSA4>
0

>  <PEOE_VSA5>
0

>  <PEOE_VSA6>
6.07

>  <PEOE_VSA7>
43.03

>  <PEOE_VSA8>
19.17

>  <PEOE_VSA9>
0

>  <PEOE_VSA10>
0

>  <PEOE_VSA11>
11.5

>  <PEOE_VSA12>
12.7

>  <PEOE_VSA13>
0

>  <SMR_VSA1>
14.27

>  <SMR_VSA2>
0

>  <SMR_VSA3>
4.9

>  <SMR_VSA4>
0

>  <SMR_VSA5>
19.26

>  <SMR_VSA6>
19.88

>  <SMR_VSA7>
29.84

>  <SMR_VSA8>
0

>  <SMR_VSA9>
11.5

>  <SlogP_VSA1>
9.47

>  <SlogP_VSA2>
30.69

>  <SlogP_VSA3>
4.79

>  <SlogP_VSA4>
0

>  <SlogP_VSA5>
24.83

>  <SlogP_VSA6>
24.28

>  <SlogP_VSA7>
0

>  <SlogP_VSA8>
6.08

>  <SlogP_VSA9>
0

>  <SlogP_VSA10>
0

>  <SlogP_VSA11>
11.5

>  <EState_VSA1>
0

>  <EState_VSA2>
12.7

>  <EState_VSA3>
0

>  <EState_VSA4>
42.99

>  <EState_VSA5>
6.42

>  <EState_VSA6>
6.08

>  <EState_VSA7>
29.18

>  <EState_VSA8>
0

>  <EState_VSA9>
9.47

>  <EState_VSA10>
4.79

>  <VSA_EState1>
10.56

>  <VSA_EState2>
13.9

>  <VSA_EState3>
0

>  <VSA_EState4>
0.95

>  <VSA_EState5>
1.6

>  <VSA_EState6>
5.68

>  <VSA_EState7>
6.94

>  <VSA_EState8>
2.03

>  <VSA_EState9>
0

>  <apol>
39.89

>  <bpol>
23.1

>  <nRing>
3

>  <nHRing>
2

>  <naRing>
1

>  <naHRing>
0

>  <nARing 2>
2

>  <nAHRing 2>
2

>  <nFRing>
1

>  <nFHRing>
1

>  <nFaRing>
0

>  <nFaHRing>
0

>  <nFARing 2>
1

>  <nFAHRing 2>
1

>  <nRot>
2

>  <SLogP>
2.44

>  <SMR>
72.03

>  <TopoPSA(NO)>
38.77

>  <TopoPSA>
38.77

>  <JGI1>
0.14

>  <JGI2>
0.07

>  <JGI3>
0.03

>  <JGI4>
0.03

>  <JGI5>
0.02

>  <Diameter>
11

>  <Radius>
6

>  <TMWC10>
111.71

>  <TSRW10>
65.67

>  <MW>
259.12

>  <AMW>
7.2

>  <WPath>
787

>  <WPol>
25

>  <Zagreb1>
98

>  <Zagreb2>
113

>  <mZagreb2>
4.22

>  <yes>


>  <nAR-cont>
1

>  <nHA-cont>
0.998649058

>  <MWHBN>
0.186367761

>  <MWHBN-cont>
0.993093831

>  <TPSA-cont>
0.729361325

>  <pka_cont>
0.97

>  <yes.1>


>  <BBB_SCORE>
5.432012454

>  <MMFF94 Energy>
-1.1392

$$$$
Compound 1772
Actelion Java MolfileCreator 2.0

  0  0  0  0  0  0              0 V3000
M  V30 BEGIN CTAB
M  V30 COUNTS 57 62 0 0 0
M  V30 BEGIN ATOM
M  V30 1 Cl -2.6876 -3.5847 -3.7479 0
M  V30 2 C -3.0297 -2.5192 -2.447 0
M  V30 3 N -2.1198 -2.5421 -1.4549 0
M  V30 4 C -4.1545 -1.7199 -2.4713 0
M  V30 5 C -2.3072 -1.7332 -0.4152 0
M  V30 6 C -4.3536 -0.8751 -1.3918 0
M  V30 7 N -1.3893 -1.7504 0.5488 0
M  V30 8 C -3.4182 -0.8723 -0.3482 0
M  V30 9 C -1.5021 -0.9231 1.6131 0
M  V30 10 C -3.5467 -0.0271 0.7549 0
M  V30 11 N -0.4509 -0.9419 2.5488 0
M  V30 12 C -2.5711 -0.0489 1.7434 0
M  V30 13 C -0.4943 -0.4391 3.8454 0
M  V30 14 C 0.839 -1.5659 2.2429 0 CFG=2
M  V30 15 O -1.4082 0.082 4.46 0
M  V30 16 C 0.8265 -0.6802 4.4398 0
M  V30 17 C 1.6243 -1.3364 3.5051 0
M  V30 18 C 1.5399 -1.0968 0.9594 0
M  V30 19 C 1.2755 -0.3506 5.7058 0
M  V30 20 C 2.9222 -1.6961 3.8306 0
M  V30 21 C 1.572 0.4096 0.7663 0
M  V30 22 C 2.5845 -0.7026 6.036 0
M  V30 23 C 3.4004 -1.371 5.1055 0
M  V30 24 O 1.4658 1.1817 1.7194 0
M  V30 25 N 1.7409 0.8787 -0.5319 0
M  V30 26 C 1.5349 2.2971 -0.8105 0
M  V30 27 C 1.929 0.0626 -1.7303 0
M  V30 28 C 0.2714 2.4651 -1.6495 0
M  V30 29 C 0.6795 0.1416 -2.5978 0
M  V30 30 C 0.3301 1.6008 -2.9146 0
M  V30 31 O -0.9569 1.6473 -3.5609 0
M  V30 32 O 1.3264 2.129 -3.8125 0
M  V30 33 C -0.6681 1.9052 -4.9339 0
M  V30 34 C 0.5842 2.7337 -4.8712 0
M  V30 35 H -4.8501 -1.7467 -3.3017 0
M  V30 36 H -5.2209 -0.2203 -1.3687 0
M  V30 37 H -4.3839 0.6596 0.8473 0
M  V30 38 H -2.6553 0.6351 2.5809 0
M  V30 39 H 0.6614 -2.6483 2.1728 0
M  V30 40 H 1.0143 -1.5484 0.1147 0
M  V30 41 H 2.5729 -1.4615 0.9225 0
M  V30 42 H 0.6298 0.1647 6.4088 0
M  V30 43 H 3.5605 -2.2175 3.1246 0
M  V30 44 H 2.9777 -0.4578 7.0201 0
M  V30 45 H 4.4182 -1.6377 5.3831 0
M  V30 46 H 1.4414 2.8781 0.1121 0
M  V30 47 H 2.4166 2.6704 -1.344 0
M  V30 48 H 2.1643 -0.9751 -1.4874 0
M  V30 49 H 2.7996 0.459 -2.2667 0
M  V30 50 H -0.6093 2.1853 -1.0566 0
M  V30 51 H 0.1488 3.5219 -1.9149 0
M  V30 52 H -0.1645 -0.3331 -2.0848 0
M  V30 53 H 0.8432 -0.4211 -3.5244 0
M  V30 54 H -1.5042 2.4173 -5.4161 0
M  V30 55 H -0.4939 0.9456 -5.4323 0
M  V30 56 H 0.3692 3.7697 -4.5875 0
M  V30 57 H 1.1585 2.7245 -5.8006 0
M  V30 END ATOM
M  V30 BEGIN BOND
M  V30 1 1 1 2
M  V30 2 2 2 3
M  V30 3 1 2 4
M  V30 4 1 3 5
M  V30 5 2 4 6
M  V30 6 2 5 7
M  V30 7 1 5 8
M  V30 8 1 7 9
M  V30 9 2 8 10
M  V30 10 1 9 11
M  V30 11 2 9 12
M  V30 12 1 11 13
M  V30 13 1 11 14
M  V30 14 2 13 15
M  V30 15 1 13 16
M  V30 16 1 14 17
M  V30 17 1 14 18
M  V30 18 1 16 19
M  V30 19 1 17 20
M  V30 20 1 18 21
M  V30 21 2 19 22
M  V30 22 2 20 23
M  V30 23 2 21 24
M  V30 24 1 21 25
M  V30 25 1 25 26
M  V30 26 1 25 27
M  V30 27 1 26 28
M  V30 28 1 27 29
M  V30 29 1 28 30
M  V30 30 1 30 31
M  V30 31 1 30 32
M  V30 32 1 31 33
M  V30 33 1 32 34
M  V30 34 1 6 8
M  V30 35 1 10 12
M  V30 36 2 16 17
M  V30 37 1 22 23
M  V30 38 1 29 30
M  V30 39 1 33 34
M  V30 40 1 4 35
M  V30 41 1 6 36
M  V30 42 1 10 37
M  V30 43 1 12 38
M  V30 44 1 14 39
M  V30 45 1 18 40
M  V30 46 1 18 41
M  V30 47 1 19 42
M  V30 48 1 20 43
M  V30 49 1 22 44
M  V30 50 1 23 45
M  V30 51 1 26 46
M  V30 52 1 26 47
M  V30 53 1 27 48
M  V30 54 1 27 49
M  V30 55 1 28 50
M  V30 56 1 28 51
M  V30 57 1 29 52
M  V30 58 1 29 53
M  V30 59 1 33 54
M  V30 60 1 33 55
M  V30 61 1 34 56
M  V30 62 1 34 57
M  V30 END BOND
M  V30 BEGIN COLLECTION
M  V30 MDLV30/STERAC1 ATOMS=(1 14)
M  V30 END COLLECTION
M  V30 END CTAB
M  END
>  <Column 1>
2168

>  <level_0>
2349

>  <index>
2349

>  <Unnamed: 0>
2349

>  <NO.>
2361

>  <Name>
pazinaclone

>  <IUPAC_name>
2-(7-chloro-1-8-naphthyridin-2-yl)-3-[2-(1-4-dioxa-8-azaspiro[4.5]decan-8-yl)-2-oxoethyl]-3h-isoindol-1-one

>  <SMILES>
O=C(CC1c2ccccc2C(=O)N1c1ccc2ccc(Cl)nc2n1)N1CCC2(CC1)OCCO2

>  <CID>
59743

>  <logBB>


>  <BBB+/BBB->
BBB+

>  <Inchi>
InChI=1S/C25H23ClN4O4/c26-20-7-5-16-6-8-21(28-23(16)27-20)30-19(17-3-1-2-4-18(17)24(30)32)15-22(31)29-11-9-25(10-12-29)33-13-14-34-25/h1-8-19H-9-15H2

>  <threshold>
-1

>  <reference>
R1|R19|R6|R27|R27|R30|

>  <group>
B

>  <Class>
1

>  <ABC>
27.58

>  <ABCGG>
20.45

>  <nAcid>
0

>  <nBase>
0

>  <nAromAtom>
16

>  <nAromBond>
17

>  <nAtom>
57

>  <nHeavyAtom>
34

>  <nSpiro>
1

>  <nBridgehead>
0

>  <nHetero>
9

>  <nN>
4

>  <nO>
4

>  <nF>
0

>  <BalabanJ>
1.15

>  <BertzCT>
1282.9

>  <nBonds>
62

>  <nBondsO>
39

>  <nBondsS>
43

>  <nBondsD>
2

>  <nBondsT>
0

>  <nBondsA>
17

>  <nBondsM>
19

>  <nBondsKS>
52

>  <nBondsKD>
10

>  <RNCG>
0.13

>  <RPCG>
0.1

>  <FCSP3>
0.36

>  <SZ>
41.67

>  <Sm>
39.87

>  <Sv>
38.21

>  <Sse>
57.95

>  <Sp>
40.04

>  <Si>
63.93

>  <MZ>
0.73

>  <Mm>
0.7

>  <Mv>
0.67

>  <Mse>
1.02

>  <Mp>
0.7

>  <Mi>
1.12

>  <NsCH3>
0

>  <NdCH2>
0

>  <NssCH2>
7

>  <NtCH>
0

>  <NdsCH>
0

>  <NaaCH>
8

>  <NsssCH>
1

>  <NddC>
0

>  <NtsC>
0

>  <NdssC>
2

>  <NaasC>
4

>  <NaaaC>
2

>  <NssssC>
1

>  <NsNH3>
0

>  <NsNH2>
0

>  <NssNH2>
0

>  <NdNH>
0

>  <NssNH>
0

>  <NaaNH>
0

>  <NtN>
0

>  <NsssNH>
0

>  <NdsN>
0

>  <NaaN>
2

>  <NsssN>
2

>  <NddsN>
0

>  <NaasN>
0

>  <NssssN>
0

>  <NsOH>
0

>  <NdO>
2

>  <NssO>
2

>  <NaaO>
0

>  <NsF>
0

>  <NsSiH3>
0

>  <NssSiH2>
0

>  <NsssSiH>
0

>  <NssssSi>
0

>  <NsPH2>
0

>  <NssPH>
0

>  <NsssP>
0

>  <NdsssP>
0

>  <NsssssP>
0

>  <NsSH>
0

>  <NdS>
0

>  <NssS>
0

>  <NaaS>
0

>  <NdssS>
0

>  <NddssS>
0

>  <NsCl>
1

>  <NsBr>
0

>  <NsI>
0

>  <fragCpx>
399.09

>  <fMF>
0.54

>  <nHBAcc>
6

>  <nHBDon>
0

>  <Kier1>
24.34

>  <Kier2>
10.05

>  <Lipinski>
1

>  <GhoseFilter>
1

>  <FilterItLogS>
-5.74

>  <VMcGowan>
330.59

>  <LabuteASA>
200.98

>  <PEOE_VSA1>
14.37

>  <PEOE_VSA2>
14.49

>  <PEOE_VSA3>
9.97

>  <PEOE_VSA4>
0

>  <PEOE_VSA5>
0

>  <PEOE_VSA6>
29.8

>  <PEOE_VSA7>
35.9

>  <PEOE_VSA8>
36.88

>  <PEOE_VSA9>
25.68

>  <PEOE_VSA10>
10.97

>  <PEOE_VSA11>
11.43

>  <PEOE_VSA12>
5.91

>  <PEOE_VSA13>
5.91

>  <SMR_VSA1>
19.06

>  <SMR_VSA2>
0

>  <SMR_VSA3>
14.87

>  <SMR_VSA4>
0

>  <SMR_VSA5>
31.09

>  <SMR_VSA6>
31.2

>  <SMR_VSA7>
64.81

>  <SMR_VSA8>
0

>  <SMR_VSA9>
0

>  <SlogP_VSA1>
4.9

>  <SlogP_VSA2>
58.77

>  <SlogP_VSA3>
14.27

>  <SlogP_VSA4>
0

>  <SlogP_VSA5>
41.23

>  <SlogP_VSA6>
48.53

>  <SlogP_VSA7>
5.15

>  <SlogP_VSA8>
11.03

>  <SlogP_VSA9>
0

>  <SlogP_VSA10>
5.82

>  <SlogP_VSA11>
0

>  <EState_VSA1>
11.83

>  <EState_VSA2>
18.24

>  <EState_VSA3>
61.33

>  <EState_VSA4>
10.95

>  <EState_VSA5>
0

>  <EState_VSA6>
23.1

>  <EState_VSA7>
35.23

>  <EState_VSA8>
9.97

>  <EState_VSA9>
21.07

>  <EState_VSA10>
9.59

>  <VSA_EState1>
11.57

>  <VSA_EState2>
39.15

>  <VSA_EState3>
1.15

>  <VSA_EState4>
1.88

>  <VSA_EState5>
-0.27

>  <VSA_EState6>
14.17

>  <VSA_EState7>
1.47

>  <VSA_EState8>
2.33

>  <VSA_EState9>
0

>  <apol>
66.87

>  <bpol>
34.49

>  <nRing>
6

>  <nHRing>
5

>  <naRing>
3

>  <naHRing>
2

>  <nARing 2>
3

>  <nAHRing 2>
3

>  <nFRing>
2

>  <nFHRing>
2

>  <nFaRing>
1

>  <nFaHRing>
1

>  <nFARing 2>
1

>  <nFAHRing 2>
1

>  <nRot>
3

>  <SLogP>
3.74

>  <SMR>
125.61

>  <TopoPSA(NO)>
84.86

>  <TopoPSA>
84.86

>  <JGI1>
0.18

>  <JGI2>
0.08

>  <JGI3>
0.05

>  <JGI4>
0.04

>  <JGI5>
0.03

>  <Diameter>
15

>  <Radius>
8

>  <TMWC10>
153.22

>  <TSRW10>
87.22

>  <MW>
478.14

>  <AMW>
8.39

>  <WPath>
3417

>  <WPol>
60

>  <Zagreb1>
194

>  <Zagreb2>
237

>  <mZagreb2>
7.22

>  <yes>


>  <nAR-cont>
0.691115

>  <nHA-cont>
0.568589513

>  <MWHBN>
0.274393432

>  <MWHBN-cont>
0.909876573

>  <TPSA-cont>
0.407624505

>  <pka_cont>
0.97

>  <yes.1>


>  <BBB_SCORE>
3.924768382

>  <MMFF94 Energy>
-5.5513

$$$$
Compound 1773
Actelion Java MolfileCreator 2.0

  0  0  0  0  0  0              0 V3000
M  V30 BEGIN CTAB
M  V30 COUNTS 45 47 0 0 0
M  V30 BEGIN ATOM
M  V30 1 F 5.3583 -6.3203 2.7963 0
M  V30 2 C 4.4413 -5.4607 2.5606 0
M  V30 3 C 3.3001 -5.5189 3.2339 0
M  V30 4 C 4.6461 -4.5211 1.645 0
M  V30 5 C 2.3456 -4.6207 2.9862 0
M  V30 6 C 3.6929 -3.6198 1.3939 0
M  V30 7 C 2.5338 -3.665 2.0637 0
M  V30 8 C 1.4809 -2.7257 1.8359 0
M  V30 9 O 0.5146 -2.7819 2.5002 0
M  V30 10 C 1.6513 -1.7287 0.7949 0
M  V30 11 C 0.4553 -0.9064 0.6165 0
M  V30 12 C 0.671 0.1179 -0.4089 0
M  V30 13 N -0.4926 0.8257 -0.7656 0
M  V30 14 C -1.0469 1.5276 0.3119 0
M  V30 15 C -0.2551 1.5974 -1.9113 0
M  V30 16 C -2.2331 2.3569 0.0224 0
M  V30 17 C -1.4188 2.3188 -2.4604 0
M  V30 18 C -1.8639 3.6758 -0.4943 0
M  V30 19 C -3.1732 1.6879 -0.8831 0
M  V30 20 C -2.6769 1.5912 -2.2588 0
M  V30 21 C -1.5278 3.6672 -1.9089 0
M  V30 22 H 3.158 -6.2592 3.9457 0
M  V30 23 H 5.5477 -4.4962 1.1329 0
M  V30 24 H 1.452 -4.6696 3.5164 0
M  V30 25 H 3.8814 -2.8958 0.6759 0
M  V30 26 H 2.4576 -1.1146 1.056 0
M  V30 27 H 1.8646 -2.2184 -0.1049 0
M  V30 28 H -0.3515 -1.5184 0.347 0
M  V30 29 H 0.2118 -0.46 1.5317 0
M  V30 30 H 1.418 0.7816 -0.0909 0
M  V30 31 H 1.0416 -0.3679 -1.2609 0
M  V30 32 H -1.3629 0.8281 1.0246 0
M  V30 33 H -0.3171 2.1176 0.7793 0
M  V30 34 H 0.5362 2.2663 -1.7502 0
M  V30 35 H 0.0644 0.9455 -2.6688 0
M  V30 36 H -2.7202 2.5102 0.939 0
M  V30 37 H -1.2617 2.4131 -3.4931 0
M  V30 38 H -2.6642 4.3372 -0.3482 0
M  V30 39 H -1.0676 4.0726 0.0586 0
M  V30 40 H -3.4107 0.7334 -0.5231 0
M  V30 41 H -4.0738 2.2248 -0.8906 0
M  V30 42 H -3.407 1.9793 -2.9032 0
M  V30 43 H -2.563 0.586 -2.5308 0
M  V30 44 H -2.2701 4.1885 -2.4353 0
M  V30 45 H -0.6408 4.2015 -2.0663 0
M  V30 END ATOM
M  V30 BEGIN BOND
M  V30 1 1 1 2
M  V30 2 2 2 3
M  V30 3 1 2 4
M  V30 4 1 3 5
M  V30 5 2 4 6
M  V30 6 2 5 7
M  V30 7 1 7 8
M  V30 8 2 8 9
M  V30 9 1 8 10
M  V30 10 1 10 11
M  V30 11 1 11 12
M  V30 12 1 12 13
M  V30 13 1 13 14
M  V30 14 1 13 15
M  V30 15 1 14 16
M  V30 16 1 15 17
M  V30 17 1 16 18
M  V30 18 1 16 19
M  V30 19 1 17 20
M  V30 20 1 17 21
M  V30 21 1 6 7
M  V30 22 1 18 20
M  V30 23 1 19 21
M  V30 24 1 3 22
M  V30 25 1 4 23
M  V30 26 1 5 24
M  V30 27 1 6 25
M  V30 28 1 10 26
M  V30 29 1 10 27
M  V30 30 1 11 28
M  V30 31 1 11 29
M  V30 32 1 12 30
M  V30 33 1 12 31
M  V30 34 1 14 32
M  V30 35 1 14 33
M  V30 36 1 15 34
M  V30 37 1 15 35
M  V30 38 1 16 36
M  V30 39 1 17 37
M  V30 40 1 18 38
M  V30 41 1 18 39
M  V30 42 1 19 40
M  V30 43 1 19 41
M  V30 44 1 20 42
M  V30 45 1 20 43
M  V30 46 1 21 44
M  V30 47 1 21 45
M  V30 END BOND
M  V30 END CTAB
M  END
>  <Column 1>
2169

>  <level_0>
2350

>  <index>
2350

>  <Unnamed: 0>
2350

>  <NO.>
2362

>  <Name>
nonaperone

>  <IUPAC_name>
4-(3-azabicyclo[3.2.2]nonan-3-yl)-1-(4-fluorophenyl)butan-1-one

>  <SMILES>
O=C(CCCN1CC2CCC(CC2)C1)c1ccc(F)cc1

>  <CID>
3037070

>  <logBB>


>  <BBB+/BBB->
BBB+

>  <Inchi>
InChI=1S/C18H24FNO/c19-17-9-7-16(8-10-17)18(21)2-1-11-20-12-14-3-4-15(13-20)6-5-14/h7-10-14-15H-1-6-11-13H2

>  <threshold>
-1

>  <reference>
R1|R13|R19|R6|R24|R27|R27|R27|R30|R30|

>  <group>
B

>  <Class>
1

>  <ABC>
16.44

>  <ABCGG>
12.88

>  <nAcid>
0

>  <nBase>
1

>  <nAromAtom>
6

>  <nAromBond>
6

>  <nAtom>
45

>  <nHeavyAtom>
21

>  <nSpiro>
0

>  <nBridgehead>
2

>  <nHetero>
3

>  <nN>
1

>  <nO>
1

>  <nF>
1

>  <BalabanJ>
1.35

>  <BertzCT>
462.5

>  <nBonds>
47

>  <nBondsO>
23

>  <nBondsS>
40

>  <nBondsD>
1

>  <nBondsT>
0

>  <nBondsA>
6

>  <nBondsM>
7

>  <nBondsKS>
43

>  <nBondsKD>
4

>  <RNCG>
0.24

>  <RPCG>
0.13

>  <FCSP3>
0.61

>  <SZ>
26

>  <Sm>
24.09

>  <Sv>
26.62

>  <Sse>
44.6

>  <Sp>
29.06

>  <Si>
51.03

>  <MZ>
0.58

>  <Mm>
0.54

>  <Mv>
0.59

>  <Mse>
0.99

>  <Mp>
0.65

>  <Mi>
1.13

>  <NsCH3>
0

>  <NdCH2>
0

>  <NssCH2>
9

>  <NtCH>
0

>  <NdsCH>
0

>  <NaaCH>
4

>  <NsssCH>
2

>  <NddC>
0

>  <NtsC>
0

>  <NdssC>
1

>  <NaasC>
2

>  <NaaaC>
0

>  <NssssC>
0

>  <NsNH3>
0

>  <NsNH2>
0

>  <NssNH2>
0

>  <NdNH>
0

>  <NssNH>
0

>  <NaaNH>
0

>  <NtN>
0

>  <NsssNH>
0

>  <NdsN>
0

>  <NaaN>
0

>  <NsssN>
1

>  <NddsN>
0

>  <NaasN>
0

>  <NssssN>
0

>  <NsOH>
0

>  <NdO>
1

>  <NssO>
0

>  <NaaO>
0

>  <NsF>
1

>  <NsSiH3>
0

>  <NssSiH2>
0

>  <NsssSiH>
0

>  <NssssSi>
0

>  <NsPH2>
0

>  <NssPH>
0

>  <NsssP>
0

>  <NdsssP>
0

>  <NsssssP>
0

>  <NsSH>
0

>  <NdS>
0

>  <NssS>
0

>  <NaaS>
0

>  <NdssS>
0

>  <NddssS>
0

>  <NsCl>
0

>  <NsBr>
0

>  <NsI>
0

>  <fragCpx>
109.03

>  <fMF>
0.42

>  <nHBAcc>
2

>  <nHBDon>
0

>  <Kier1>
15.88

>  <Kier2>
7.51

>  <Lipinski>
1

>  <GhoseFilter>
1

>  <FilterItLogS>
-4.32

>  <VMcGowan>
232.31

>  <LabuteASA>
125.89

>  <PEOE_VSA1>
4.9

>  <PEOE_VSA2>
4.79

>  <PEOE_VSA3>
4.39

>  <PEOE_VSA4>
0

>  <PEOE_VSA5>
0

>  <PEOE_VSA6>
0

>  <PEOE_VSA7>
74.75

>  <PEOE_VSA8>
25.07

>  <PEOE_VSA9>
0

>  <PEOE_VSA10>
5.82

>  <PEOE_VSA11>
5.78

>  <PEOE_VSA12>
0

>  <PEOE_VSA13>
0

>  <SMR_VSA1>
9.18

>  <SMR_VSA2>
0

>  <SMR_VSA3>
4.9

>  <SMR_VSA4>
11.84

>  <SMR_VSA5>
38.52

>  <SMR_VSA6>
19.63

>  <SMR_VSA7>
35.65

>  <SMR_VSA8>
0

>  <SMR_VSA9>
0

>  <SlogP_VSA1>
0

>  <SlogP_VSA2>
30.32

>  <SlogP_VSA3>
0

>  <SlogP_VSA4>
17.65

>  <SlogP_VSA5>
48.88

>  <SlogP_VSA6>
24.27

>  <SlogP_VSA7>
0

>  <SlogP_VSA8>
0

>  <SlogP_VSA9>
0

>  <SlogP_VSA10>
4.39

>  <SlogP_VSA11>
0

>  <EState_VSA1>
0

>  <EState_VSA2>
11.6

>  <EState_VSA3>
11.98

>  <EState_VSA4>
24.8

>  <EState_VSA5>
50.91

>  <EState_VSA6>
12.13

>  <EState_VSA7>
0

>  <EState_VSA8>
4.9

>  <EState_VSA9>
0

>  <EState_VSA10>
9.18

>  <VSA_EState1>
12.84

>  <VSA_EState2>
14.63

>  <VSA_EState3>
0

>  <VSA_EState4>
0.63

>  <VSA_EState5>
1.62

>  <VSA_EState6>
5.9

>  <VSA_EState7>
7.07

>  <VSA_EState8>
3.47

>  <VSA_EState9>
0

>  <apol>
48.52

>  <bpol>
27.77

>  <nRing>
4

>  <nHRing>
2

>  <naRing>
1

>  <naHRing>
0

>  <nARing 2>
3

>  <nAHRing 2>
2

>  <nFRing>
1

>  <nFHRing>
1

>  <nFaRing>
0

>  <nFaHRing>
0

>  <nFARing 2>
1

>  <nFAHRing 2>
1

>  <nRot>
5

>  <SLogP>
3.91

>  <SMR>
81.85

>  <TopoPSA(NO)>
20.31

>  <TopoPSA>
20.31

>  <JGI1>
0.2

>  <JGI2>
0.06

>  <JGI3>
0.04

>  <JGI4>
0.03

>  <JGI5>
0.02

>  <Diameter>
12

>  <Radius>
6

>  <TMWC10>
116.28

>  <TSRW10>
63.74

>  <MW>
289.18

>  <AMW>
6.43

>  <WPath>
1069

>  <WPol>
32

>  <Zagreb1>
108

>  <Zagreb2>
123

>  <mZagreb2>
4.61

>  <yes>


>  <nAR-cont>
0.691115

>  <nHA-cont>
0.994529749

>  <MWHBN>
0.117610438

>  <MWHBN-cont>
0.818897377

>  <TPSA-cont>
0.858223588

>  <pka_cont>
0.97

>  <yes.1>


>  <BBB_SCORE>
5.115437991

>  <MMFF94 Energy>
57.409

$$$$
Compound 1774
Actelion Java MolfileCreator 2.0

  0  0  0  0  0  0              0 V3000
M  V30 BEGIN CTAB
M  V30 COUNTS 50 53 0 0 0
M  V30 BEGIN ATOM
M  V30 1 F -8.517 5.377 -0.3203 0
M  V30 2 C -7.3047 4.8093 -0.3446 0
M  V30 3 C -6.2478 5.4751 -0.9514 0
M  V30 4 C -7.1218 3.561 0.2395 0
M  V30 5 C -4.9843 4.8807 -0.9748 0
M  V30 6 C -5.8583 2.9622 0.2183 0
M  V30 7 C -4.7798 3.6193 -0.3915 0
M  V30 8 C -3.4064 3.0277 -0.4431 0
M  V30 9 O -2.4906 3.6885 -0.9283 0
M  V30 10 C -3.1931 1.6316 0.1186 0
M  V30 11 C -1.7656 1.1284 -0.1121 0
M  V30 12 C -1.5666 -0.2612 0.5053 0
M  V30 13 N -0.2724 -0.8653 0.1587 0
M  V30 14 C -0.2622 -2.2862 0.5387 0
M  V30 15 C 0.8662 -0.1844 0.784 0
M  V30 16 C 1.0883 -2.9368 0.4517 0
M  V30 17 C 2.1902 -0.7666 0.2565 0
M  V30 18 C 2.2543 -2.2767 0.3053 0
M  V30 19 N 3.4922 -2.9234 0.2456 0
M  V30 20 C 3.72 -4.2946 0.6506 0
M  V30 21 C 4.7656 -2.4136 -0.1567 0
M  V30 22 O 2.9425 -5.1333 1.0825 0
M  V30 23 N 5.089 -4.5477 0.5005 0
M  V30 24 C 5.718 -3.4189 0.0174 0
M  V30 25 C 5.1586 -1.2033 -0.6988 0
M  V30 26 C 7.0562 -3.271 -0.2845 0
M  V30 27 C 6.5139 -1.0192 -1.0148 0
M  V30 28 C 7.455 -2.0414 -0.8044 0
M  V30 29 H -6.4102 6.4495 -1.4015 0
M  V30 30 H -7.9649 3.0625 0.7086 0
M  V30 31 H -4.1582 5.4063 -1.4515 0
M  V30 32 H -5.7455 1.9887 0.6856 0
M  V30 33 H -3.3989 1.6582 1.1945 0
M  V30 34 H -3.8951 0.9464 -0.3693 0
M  V30 35 H -1.5619 1.0922 -1.1898 0
M  V30 36 H -1.061 1.846 0.3229 0
M  V30 37 H -1.6929 -0.2068 1.5946 0
M  V30 38 H -2.3683 -0.9078 0.1246 0
M  V30 39 H -0.631 -2.422 1.5641 0
M  V30 40 H -0.9422 -2.8298 -0.1284 0
M  V30 41 H 0.8697 0.8843 0.5462 0
M  V30 42 H 0.8234 -0.2708 1.8784 0
M  V30 43 H 1.0506 -4.0194 0.5059 0
M  V30 44 H 2.9922 -0.3322 0.8643 0
M  V30 45 H 2.3176 -0.4413 -0.7829 0
M  V30 46 H 5.5089 -5.4349 0.7223 0
M  V30 47 H 4.4697 -0.3978 -0.9075 0
M  V30 48 H 7.7681 -4.0736 -0.1347 0
M  V30 49 H 6.8404 -0.0713 -1.439 0
M  V30 50 H 8.4983 -1.8737 -1.062 0
M  V30 END ATOM
M  V30 BEGIN BOND
M  V30 1 1 1 2
M  V30 2 2 2 3
M  V30 3 1 2 4
M  V30 4 1 3 5
M  V30 5 2 4 6
M  V30 6 2 5 7
M  V30 7 1 7 8
M  V30 8 2 8 9
M  V30 9 1 8 10
M  V30 10 1 10 11
M  V30 11 1 11 12
M  V30 12 1 12 13
M  V30 13 1 13 14
M  V30 14 1 13 15
M  V30 15 1 14 16
M  V30 16 1 15 17
M  V30 17 2 16 18
M  V30 18 1 18 19
M  V30 19 1 19 20
M  V30 20 1 19 21
M  V30 21 2 20 22
M  V30 22 1 20 23
M  V30 23 2 21 24
M  V30 24 1 21 25
M  V30 25 1 24 26
M  V30 26 2 25 27
M  V30 27 2 26 28
M  V30 28 1 6 7
M  V30 29 1 17 18
M  V30 30 1 23 24
M  V30 31 1 27 28
M  V30 32 1 3 29
M  V30 33 1 4 30
M  V30 34 1 5 31
M  V30 35 1 6 32
M  V30 36 1 10 33
M  V30 37 1 10 34
M  V30 38 1 11 35
M  V30 39 1 11 36
M  V30 40 1 12 37
M  V30 41 1 12 38
M  V30 42 1 14 39
M  V30 43 1 14 40
M  V30 44 1 15 41
M  V30 45 1 15 42
M  V30 46 1 16 43
M  V30 47 1 17 44
M  V30 48 1 17 45
M  V30 49 1 23 46
M  V30 50 1 25 47
M  V30 51 1 26 48
M  V30 52 1 27 49
M  V30 53 1 28 50
M  V30 END BOND
M  V30 END CTAB
M  END
>  <Column 1>
2170

>  <level_0>
2351

>  <index>
2351

>  <Unnamed: 0>
2351

>  <NO.>
2363

>  <Name>
droperidol

>  <IUPAC_name>
3-[1-[4-(4-fluorophenyl)-4-oxobutyl]-3-6-dihydro-2h-pyridin-4-yl]-1h-benzimidazol-2-one

>  <SMILES>
O=C(CCCN1CC=C(n2c(=O)[nH]c3ccccc32)CC1)c1ccc(F)cc1

>  <CID>
3168

>  <logBB>


>  <BBB+/BBB->
BBB+

>  <Inchi>
InChI=1S/C22H22FN3O2/c23-17-9-7-16(8-10-17)21(27)6-3-13-25-14-11-18(12-15-25)26-20-5-2-1-4-19(20)24-22(26)28/h1-2-4-5-7-11H-3-6-12-15H2-(H-24-28)

>  <threshold>
-1

>  <reference>
R1|R13|R19|R6|R14|R15|R23|R24|R26|R27|R27|R27|R30|R30|

>  <group>
B

>  <Class>
1

>  <ABC>
22.05

>  <ABCGG>
16.15

>  <nAcid>
0

>  <nBase>
1

>  <nAromAtom>
15

>  <nAromBond>
16

>  <nAtom>
50

>  <nHeavyAtom>
28

>  <nSpiro>
0

>  <nBridgehead>
0

>  <nHetero>
6

>  <nN>
3

>  <nO>
2

>  <nF>
1

>  <BalabanJ>
1.16

>  <BertzCT>
1079.1

>  <nBonds>
53

>  <nBondsO>
31

>  <nBondsS>
34

>  <nBondsD>
3

>  <nBondsT>
0

>  <nBondsA>
16

>  <nBondsM>
19

>  <nBondsKS>
44

>  <nBondsKD>
9

>  <RNCG>
0.15

>  <RPCG>
0.16

>  <FCSP3>
0.27

>  <SZ>
33.33

>  <Sm>
31.59

>  <Sv>
32.31

>  <Sse>
50.37

>  <Sp>
34.05

>  <Si>
56.41

>  <MZ>
0.67

>  <Mm>
0.63

>  <Mv>
0.65

>  <Mse>
1.01

>  <Mp>
0.68

>  <Mi>
1.13

>  <NsCH3>
0

>  <NdCH2>
0

>  <NssCH2>
6

>  <NtCH>
0

>  <NdsCH>
1

>  <NaaCH>
8

>  <NsssCH>
0

>  <NddC>
0

>  <NtsC>
0

>  <NdssC>
2

>  <NaasC>
2

>  <NaaaC>
2

>  <NssssC>
0

>  <NsNH3>
0

>  <NsNH2>
0

>  <NssNH2>
0

>  <NdNH>
0

>  <NssNH>
0

>  <NaaNH>
1

>  <NtN>
0

>  <NsssNH>
0

>  <NdsN>
0

>  <NaaN>
0

>  <NsssN>
1

>  <NddsN>
0

>  <NaasN>
1

>  <NssssN>
0

>  <NsOH>
0

>  <NdO>
2

>  <NssO>
0

>  <NaaO>
0

>  <NsF>
1

>  <NsSiH3>
0

>  <NssSiH2>
0

>  <NsssSiH>
0

>  <NssssSi>
0

>  <NsPH2>
0

>  <NssPH>
0

>  <NsssP>
0

>  <NdsssP>
0

>  <NsssssP>
0

>  <NsSH>
0

>  <NdS>
0

>  <NssS>
0

>  <NaaS>
0

>  <NdssS>
0

>  <NddssS>
0

>  <NsCl>
0

>  <NsBr>
0

>  <NsI>
0

>  <fragCpx>
205.06

>  <fMF>
0.5

>  <nHBAcc>
4

>  <nHBDon>
1

>  <Kier1>
21.24

>  <Kier2>
9.87

>  <Lipinski>
1

>  <GhoseFilter>
1

>  <FilterItLogS>
-5.16

>  <VMcGowan>
282.14

>  <LabuteASA>
161.65

>  <PEOE_VSA1>
4.98

>  <PEOE_VSA2>
14.26

>  <PEOE_VSA3>
9.18

>  <PEOE_VSA4>
0

>  <PEOE_VSA5>
0

>  <PEOE_VSA6>
18.21

>  <PEOE_VSA7>
49.36

>  <PEOE_VSA8>
37.19

>  <PEOE_VSA9>
11.03

>  <PEOE_VSA10>
5.82

>  <PEOE_VSA11>
5.78

>  <PEOE_VSA12>
0

>  <PEOE_VSA13>
0

>  <SMR_VSA1>
9.18

>  <SMR_VSA2>
0

>  <SMR_VSA3>
14.45

>  <SMR_VSA4>
0

>  <SMR_VSA5>
19.26

>  <SMR_VSA6>
19.63

>  <SMR_VSA7>
76.47

>  <SMR_VSA8>
0

>  <SMR_VSA9>
0

>  <SlogP_VSA1>
5.69

>  <SlogP_VSA2>
39.87

>  <SlogP_VSA3>
0

>  <SlogP_VSA4>
5.82

>  <SlogP_VSA5>
29.62

>  <SlogP_VSA6>
59.4

>  <SlogP_VSA7>
0

>  <SlogP_VSA8>
16.73

>  <SlogP_VSA9>
0

>  <SlogP_VSA10>
4.39

>  <SlogP_VSA11>
0

>  <EState_VSA1>
0

>  <EState_VSA2>
17.29

>  <EState_VSA3>
11.98

>  <EState_VSA4>
49.21

>  <EState_VSA5>
24.27

>  <EState_VSA6>
4.57

>  <EState_VSA7>
24.27

>  <EState_VSA8>
15.96

>  <EState_VSA9>
0

>  <EState_VSA10>
13.98

>  <VSA_EState1>
14.7

>  <VSA_EState2>
29.66

>  <VSA_EState3>
0

>  <VSA_EState4>
3.21

>  <VSA_EState5>
-0.29

>  <VSA_EState6>
13.39

>  <VSA_EState7>
4.08

>  <VSA_EState8>
2.42

>  <VSA_EState9>
0

>  <apol>
56.87

>  <bpol>
28.91

>  <nRing>
4

>  <nHRing>
2

>  <naRing>
3

>  <naHRing>
1

>  <nARing 2>
1

>  <nAHRing 2>
1

>  <nFRing>
1

>  <nFHRing>
1

>  <nFaRing>
1

>  <nFaHRing>
1

>  <nFARing 2>
0

>  <nFAHRing 2>
0

>  <nRot>
6

>  <SLogP>
3.68

>  <SMR>
107.85

>  <TopoPSA(NO)>
58.1

>  <TopoPSA>
58.1

>  <JGI1>
0.16

>  <JGI2>
0.08

>  <JGI3>
0.05

>  <JGI4>
0.03

>  <JGI5>
0.02

>  <Diameter>
17

>  <Radius>
9

>  <TMWC10>
135.4

>  <TSRW10>
77.63

>  <MW>
379.17

>  <AMW>
7.58

>  <WPath>
2452

>  <WPol>
43

>  <Zagreb1>
148

>  <Zagreb2>
174

>  <mZagreb2>
6.14

>  <yes>


>  <nAR-cont>
0.816016

>  <nHA-cont>
0.82432561

>  <MWHBN>
0.256775167

>  <MWHBN-cont>
0.947670393

>  <TPSA-cont>
0.594425922

>  <pka_cont>
0.97

>  <yes.1>


>  <BBB_SCORE>
4.735699044

>  <MMFF94 Energy>
52.162

$$$$
Compound 1775
Actelion Java MolfileCreator 2.0

  0  0  0  0  0  0              0 V3000
M  V30 BEGIN CTAB
M  V30 COUNTS 50 52 0 0 0
M  V30 BEGIN ATOM
M  V30 1 F 6.9122 -4.9796 3.2908 0
M  V30 2 C 6.121 -4.4523 2.348 0
M  V30 3 C 6.6585 -4.1078 1.1152 0
M  V30 4 C 4.7706 -4.2603 2.6167 0
M  V30 5 C 5.8297 -3.5588 0.1342 0
M  V30 6 C 3.9375 -3.7109 1.6365 0
M  V30 7 C 4.4633 -3.35 0.3878 0
M  V30 8 C 3.6269 -2.7622 -0.7074 0
M  V30 9 O 4.0953 -2.7363 -1.8452 0
M  V30 10 C 2.2333 -2.2185 -0.3928 0
M  V30 11 C 2.3199 -0.9222 0.4157 0
M  V30 12 C 1.4461 -1.9501 -1.6823 0
M  V30 13 C 0.9328 -0.3242 0.6532 0
M  V30 14 C 0.0837 -1.3244 -1.3833 0
M  V30 15 N 0.2255 -0.0809 -0.6116 0
M  V30 16 C -1.0772 0.5603 -0.3507 0
M  V30 17 C -1.6316 1.2754 -1.5927 0
M  V30 18 C -3.0108 1.8961 -1.3477 0
M  V30 19 C -2.9873 3.1336 -0.4638 0
M  V30 20 O -1.946 3.6033 -0.0117 0
M  V30 21 C -4.285 3.8027 -0.1339 0
M  V30 22 C -4.2616 4.9175 0.7208 0
M  V30 23 C -5.5122 3.3577 -0.6468 0
M  V30 24 C -5.4461 5.5753 1.0598 0
M  V30 25 C -6.696 4.0194 -0.3048 0
M  V30 26 C -6.6523 5.1197 0.544 0
M  V30 27 F -7.7895 5.7482 0.8675 0
M  V30 28 H 7.7146 -4.268 0.9222 0
M  V30 29 H 4.3742 -4.5428 3.5875 0
M  V30 30 H 6.2555 -3.292 -0.8321 0
M  V30 31 H 2.8865 -3.5837 1.875 0
M  V30 32 H 1.6801 -2.9823 0.1664 0
M  V30 33 H 2.8017 -1.096 1.3841 0
M  V30 34 H 2.951 -0.1941 -0.1116 0
M  V30 35 H 1.3048 -2.8874 -2.2346 0
M  V30 36 H 2.0127 -1.2815 -2.3443 0
M  V30 37 H 0.3497 -0.9903 1.3029 0
M  V30 38 H 1.0663 0.6214 1.193 0
M  V30 39 H -0.4033 -1.1301 -2.3443 0
M  V30 40 H -0.5417 -2.0474 -0.8435 0
M  V30 41 H -0.9567 1.3097 0.4403 0
M  V30 42 H -1.801 -0.174 0.0257 0
M  V30 43 H -1.7386 0.5647 -2.4193 0
M  V30 44 H -0.924 2.0458 -1.9235 0
M  V30 45 H -3.6716 1.1463 -0.8988 0
M  V30 46 H -3.4216 2.1948 -2.3194 0
M  V30 47 H -3.3179 5.2795 1.1265 0
M  V30 48 H -5.5781 2.5042 -1.3148 0
M  V30 49 H -5.432 6.4372 1.7197 0
M  V30 50 H -7.6523 3.6849 -0.6962 0
M  V30 END ATOM
M  V30 BEGIN BOND
M  V30 1 1 1 2
M  V30 2 2 2 3
M  V30 3 1 2 4
M  V30 4 1 3 5
M  V30 5 2 4 6
M  V30 6 2 5 7
M  V30 7 1 7 8
M  V30 8 2 8 9
M  V30 9 1 8 10
M  V30 10 1 10 11
M  V30 11 1 10 12
M  V30 12 1 11 13
M  V30 13 1 12 14
M  V30 14 1 13 15
M  V30 15 1 15 16
M  V30 16 1 16 17
M  V30 17 1 17 18
M  V30 18 1 18 19
M  V30 19 2 19 20
M  V30 20 1 19 21
M  V30 21 2 21 22
M  V30 22 1 21 23
M  V30 23 1 22 24
M  V30 24 2 23 25
M  V30 25 2 24 26
M  V30 26 1 26 27
M  V30 27 1 6 7
M  V30 28 1 14 15
M  V30 29 1 25 26
M  V30 30 1 3 28
M  V30 31 1 4 29
M  V30 32 1 5 30
M  V30 33 1 6 31
M  V30 34 1 10 32
M  V30 35 1 11 33
M  V30 36 1 11 34
M  V30 37 1 12 35
M  V30 38 1 12 36
M  V30 39 1 13 37
M  V30 40 1 13 38
M  V30 41 1 14 39
M  V30 42 1 14 40
M  V30 43 1 16 41
M  V30 44 1 16 42
M  V30 45 1 17 43
M  V30 46 1 17 44
M  V30 47 1 18 45
M  V30 48 1 18 46
M  V30 49 1 22 47
M  V30 50 1 23 48
M  V30 51 1 24 49
M  V30 52 1 25 50
M  V30 END BOND
M  V30 END CTAB
M  END
>  <Column 1>
2172

>  <level_0>
2353

>  <index>
2353

>  <Unnamed: 0>
2353

>  <NO.>
2365

>  <Name>
lenperone

>  <IUPAC_name>
4-[4-(4-fluorobenzoyl)piperidin-1-yl]-1-(4-fluorophenyl)butan-1-one

>  <SMILES>
O=C(CCCN1CCC(C(=O)c2ccc(F)cc2)CC1)c1ccc(F)cc1

>  <CID>
32593

>  <logBB>


>  <BBB+/BBB->
BBB+

>  <Inchi>
InChI=1S/C22H23F2NO2/c23-19-7-3-16(4-8-19)21(26)2-1-13-25-14-11-18(12-15-25)22(27)17-5-9-20(24)10-6-17/h3-10-18H-1-2-11-15H2

>  <threshold>
-1

>  <reference>
R1|R13|R19|R6|R24|R27|R27|R27|R30|R30|

>  <group>
B

>  <Class>
1

>  <ABC>
20.82

>  <ABCGG>
15.18

>  <nAcid>
0

>  <nBase>
1

>  <nAromAtom>
12

>  <nAromBond>
12

>  <nAtom>
50

>  <nHeavyAtom>
27

>  <nSpiro>
0

>  <nBridgehead>
0

>  <nHetero>
5

>  <nN>
1

>  <nO>
2

>  <nF>
2

>  <BalabanJ>
1.29

>  <BertzCT>
776.21

>  <nBonds>
52

>  <nBondsO>
29

>  <nBondsS>
38

>  <nBondsD>
2

>  <nBondsT>
0

>  <nBondsA>
12

>  <nBondsM>
14

>  <nBondsKS>
44

>  <nBondsKD>
8

>  <RNCG>
0.18

>  <RPCG>
0.1

>  <FCSP3>
0.36

>  <SZ>
32.67

>  <Sm>
30.92

>  <Sv>
31.71

>  <Sse>
50.45

>  <Sp>
33.47

>  <Si>
56.58

>  <MZ>
0.65

>  <Mm>
0.62

>  <Mv>
0.63

>  <Mse>
1.01

>  <Mp>
0.67

>  <Mi>
1.13

>  <NsCH3>
0

>  <NdCH2>
0

>  <NssCH2>
7

>  <NtCH>
0

>  <NdsCH>
0

>  <NaaCH>
8

>  <NsssCH>
1

>  <NddC>
0

>  <NtsC>
0

>  <NdssC>
2

>  <NaasC>
4

>  <NaaaC>
0

>  <NssssC>
0

>  <NsNH3>
0

>  <NsNH2>
0

>  <NssNH2>
0

>  <NdNH>
0

>  <NssNH>
0

>  <NaaNH>
0

>  <NtN>
0

>  <NsssNH>
0

>  <NdsN>
0

>  <NaaN>
0

>  <NsssN>
1

>  <NddsN>
0

>  <NaasN>
0

>  <NssssN>
0

>  <NsOH>
0

>  <NdO>
2

>  <NssO>
0

>  <NaaO>
0

>  <NsF>
2

>  <NsSiH3>
0

>  <NssSiH2>
0

>  <NsssSiH>
0

>  <NssssSi>
0

>  <NsPH2>
0

>  <NssPH>
0

>  <NsssP>
0

>  <NdsssP>
0

>  <NsssssP>
0

>  <NsSH>
0

>  <NdS>
0

>  <NssS>
0

>  <NaaS>
0

>  <NdssS>
0

>  <NddssS>
0

>  <NsCl>
0

>  <NsBr>
0

>  <NsI>
0

>  <fragCpx>
139.05

>  <fMF>
0.46

>  <nHBAcc>
3

>  <nHBDon>
0

>  <Kier1>
21.7

>  <Kier2>
10.68

>  <Lipinski>
1

>  <GhoseFilter>
1

>  <FilterItLogS>
-5.81

>  <VMcGowan>
279.1

>  <LabuteASA>
157.55

>  <PEOE_VSA1>
4.9

>  <PEOE_VSA2>
9.59

>  <PEOE_VSA3>
8.78

>  <PEOE_VSA4>
0

>  <PEOE_VSA5>
0

>  <PEOE_VSA6>
0

>  <PEOE_VSA7>
87.43

>  <PEOE_VSA8>
23.47

>  <PEOE_VSA9>
0

>  <PEOE_VSA10>
11.63

>  <PEOE_VSA11>
11.57

>  <PEOE_VSA12>
0

>  <PEOE_VSA13>
0

>  <SMR_VSA1>
18.37

>  <SMR_VSA2>
0

>  <SMR_VSA3>
4.9

>  <SMR_VSA4>
5.92

>  <SMR_VSA5>
25.68

>  <SMR_VSA6>
19.63

>  <SMR_VSA7>
71.29

>  <SMR_VSA8>
0

>  <SMR_VSA9>
0

>  <SlogP_VSA1>
0

>  <SlogP_VSA2>
36.1

>  <SlogP_VSA3>
0

>  <SlogP_VSA4>
17.55

>  <SlogP_VSA5>
46.4

>  <SlogP_VSA6>
48.53

>  <SlogP_VSA7>
0

>  <SlogP_VSA8>
0

>  <SlogP_VSA9>
0

>  <SlogP_VSA10>
8.78

>  <SlogP_VSA11>
0

>  <EState_VSA1>
0

>  <EState_VSA2>
29.12

>  <EState_VSA3>
17.55

>  <EState_VSA4>
38.9

>  <EState_VSA5>
36.4

>  <EState_VSA6>
12.13

>  <EState_VSA7>
0

>  <EState_VSA8>
4.9

>  <EState_VSA9>
0

>  <EState_VSA10>
18.37

>  <VSA_EState1>
25.89

>  <VSA_EState2>
26.87

>  <VSA_EState3>
0

>  <VSA_EState4>
1.11

>  <VSA_EState5>
-0.59

>  <VSA_EState6>
11.37

>  <VSA_EState7>
2.73

>  <VSA_EState8>
2.45

>  <VSA_EState9>
0

>  <apol>
55.89

>  <bpol>
28.75

>  <nRing>
3

>  <nHRing>
1

>  <naRing>
2

>  <naHRing>
0

>  <nARing 2>
1

>  <nAHRing 2>
1

>  <nFRing>
0

>  <nFHRing>
0

>  <nFaRing>
0

>  <nFaHRing>
0

>  <nFARing 2>
0

>  <nFAHRing 2>
0

>  <nRot>
7

>  <SLogP>
4.52

>  <SMR>
99.86

>  <TopoPSA(NO)>
37.38

>  <TopoPSA>
37.38

>  <JGI1>
0.19

>  <JGI2>
0.09

>  <JGI3>
0.04

>  <JGI4>
0.04

>  <JGI5>
0.03

>  <Diameter>
18

>  <Radius>
9

>  <TMWC10>
130.34

>  <TSRW10>
61.72

>  <MW>
371.17

>  <AMW>
7.42

>  <WPath>
2326

>  <WPol>
39

>  <Zagreb1>
136

>  <Zagreb2>
155

>  <mZagreb2>
6

>  <yes>


>  <nAR-cont>
0.816016

>  <nHA-cont>
0.860070871

>  <MWHBN>
0.155716567

>  <MWHBN-cont>
0.946484209

>  <TPSA-cont>
0.739064388

>  <pka_cont>
0.97

>  <yes.1>


>  <BBB_SCORE>
5.058941961

>  <MMFF94 Energy>
66.261

$$$$
Compound 1776
Actelion Java MolfileCreator 2.0

  0  0  0  0  0  0              0 V3000
M  V30 BEGIN CTAB
M  V30 COUNTS 52 54 0 0 0
M  V30 BEGIN ATOM
M  V30 1 F 2.0961 -3.7107 -1.2895 0
M  V30 2 C 0.918 -3.0827 -1.3929 0
M  V30 3 C -0.1255 -3.4378 -0.5496 0
M  V30 4 C 0.7594 -2.0765 -2.3381 0
M  V30 5 C -1.35 -2.774 -0.6562 0
M  V30 6 C -0.4648 -1.4074 -2.4443 0
M  V30 7 C -1.5327 -1.7523 -1.6055 0
M  V30 8 C -2.8595 -1.0582 -1.6364 0
M  V30 9 O -3.656 -1.2648 -0.7176 0
M  V30 10 C -3.2423 -0.1498 -2.793 0
M  V30 11 C -3.5669 1.2747 -2.3347 0
M  V30 12 C -2.3292 2.1695 -2.1578 0
M  V30 13 N -1.3332 1.6328 -1.221 0
M  V30 14 C -1.7916 1.7251 0.177 0
M  V30 15 C -0.0551 2.3509 -1.3552 0
M  V30 16 C -0.8006 1.0089 1.0961 0
M  V30 17 C 1.0286 1.6987 -0.4959 0
M  V30 18 C 0.6186 1.592 0.9814 0
M  V30 19 O 0.5566 2.9251 1.5232 0
M  V30 20 C 1.6967 0.8258 1.7594 0
M  V30 21 C 1.5446 -0.5108 2.1674 0
M  V30 22 C 2.92 1.4602 2.0514 0
M  V30 23 C 2.5695 -1.1965 2.8475 0
M  V30 24 C 3.9389 0.7974 2.737 0
M  V30 25 C 3.7632 -0.5238 3.1377 0
M  V30 26 C 2.3705 -2.6266 3.2895 0
M  V30 27 F 1.8423 -2.7097 4.542 0
M  V30 28 F 1.5246 -3.3266 2.4818 0
M  V30 29 F 3.5284 -3.3436 3.3242 0
M  V30 30 H 0.0191 -4.2209 0.1885 0
M  V30 31 H 1.5945 -1.8069 -2.9774 0
M  V30 32 H -2.1631 -3.0521 0.0128 0
M  V30 33 H -0.5394 -0.5979 -3.1627 0
M  V30 34 H -2.5084 -0.1445 -3.5998 0
M  V30 35 H -4.147 -0.5954 -3.2276 0
M  V30 36 H -4.1993 1.7409 -3.1013 0
M  V30 37 H -4.1661 1.2612 -1.4174 0
M  V30 38 H -1.8713 2.2714 -3.1507 0
M  V30 39 H -2.6456 3.1772 -1.8583 0
M  V30 40 H -1.9211 2.7706 0.4858 0
M  V30 41 H -2.7629 1.2361 0.3027 0
M  V30 42 H 0.2838 2.3132 -2.3979 0
M  V30 43 H -0.1666 3.411 -1.0921 0
M  V30 44 H -0.8143 -0.0524 0.828 0
M  V30 45 H -1.1611 1.0876 2.1298 0
M  V30 46 H 1.9441 2.2954 -0.5997 0
M  V30 47 H 1.253 0.7016 -0.8957 0
M  V30 48 H 0.5862 2.8366 2.4925 0
M  V30 49 H 0.6284 -1.058 1.9541 0
M  V30 50 H 3.0872 2.4902 1.7367 0
M  V30 51 H 4.8715 1.3133 2.9531 0
M  V30 52 H 4.5652 -1.0323 3.6709 0
M  V30 END ATOM
M  V30 BEGIN BOND
M  V30 1 1 1 2
M  V30 2 2 2 3
M  V30 3 1 2 4
M  V30 4 1 3 5
M  V30 5 2 4 6
M  V30 6 2 5 7
M  V30 7 1 7 8
M  V30 8 2 8 9
M  V30 9 1 8 10
M  V30 10 1 10 11
M  V30 11 1 11 12
M  V30 12 1 12 13
M  V30 13 1 13 14
M  V30 14 1 13 15
M  V30 15 1 14 16
M  V30 16 1 15 17
M  V30 17 1 16 18
M  V30 18 1 18 19
M  V30 19 1 18 20
M  V30 20 2 20 21
M  V30 21 1 20 22
M  V30 22 1 21 23
M  V30 23 2 22 24
M  V30 24 2 23 25
M  V30 25 1 23 26
M  V30 26 1 26 27
M  V30 27 1 26 28
M  V30 28 1 26 29
M  V30 29 1 6 7
M  V30 30 1 17 18
M  V30 31 1 24 25
M  V30 32 1 3 30
M  V30 33 1 4 31
M  V30 34 1 5 32
M  V30 35 1 6 33
M  V30 36 1 10 34
M  V30 37 1 10 35
M  V30 38 1 11 36
M  V30 39 1 11 37
M  V30 40 1 12 38
M  V30 41 1 12 39
M  V30 42 1 14 40
M  V30 43 1 14 41
M  V30 44 1 15 42
M  V30 45 1 15 43
M  V30 46 1 16 44
M  V30 47 1 16 45
M  V30 48 1 17 46
M  V30 49 1 17 47
M  V30 50 1 19 48
M  V30 51 1 21 49
M  V30 52 1 22 50
M  V30 53 1 24 51
M  V30 54 1 25 52
M  V30 END BOND
M  V30 END CTAB
M  END
>  <Column 1>
2174

>  <level_0>
2355

>  <index>
2355

>  <Unnamed: 0>
2355

>  <NO.>
2367

>  <Name>
trifluperidol

>  <IUPAC_name>
1-(4-fluorophenyl)-4-[4-hydroxy-4-[3-(trifluoromethyl)phenyl]piperidin-1-yl]butan-1-one

>  <SMILES>
O=C(CCCN1CCC(O)(c2cccc(C(F)(F)F)c2)CC1)c1ccc(F)cc1

>  <CID>
5567

>  <logBB>


>  <BBB+/BBB->
BBB+

>  <Inchi>
InChI=1S/C22H23F4NO2/c23-19-8-6-16(7-9-19)20(28)5-2-12-27-13-10-21(29-11-14-27)17-3-1-4-18(15-17)22(24-25)26/h1-3-4-6-9-15-29H-2-5-10-14H2

>  <threshold>
-1

>  <reference>
R1|R13|R19|R6|R24|R27|R27|R27|R30|R30|

>  <group>
B

>  <Class>
1

>  <ABC>
22.61

>  <ABCGG>
16.83

>  <nAcid>
0

>  <nBase>
1

>  <nAromAtom>
12

>  <nAromBond>
12

>  <nAtom>
52

>  <nHeavyAtom>
29

>  <nSpiro>
0

>  <nBridgehead>
0

>  <nHetero>
7

>  <nN>
1

>  <nO>
2

>  <nF>
4

>  <BalabanJ>
1.37

>  <BertzCT>
840.64

>  <nBonds>
54

>  <nBondsO>
31

>  <nBondsS>
41

>  <nBondsD>
1

>  <nBondsT>
0

>  <nBondsA>
12

>  <nBondsM>
13

>  <nBondsKS>
47

>  <nBondsKD>
7

>  <RNCG>
0.18

>  <RPCG>
0.2

>  <FCSP3>
0.41

>  <SZ>
35.67

>  <Sm>
34.09

>  <Sv>
33

>  <Sse>
53.36

>  <Sp>
34.14

>  <Si>
59.67

>  <MZ>
0.69

>  <Mm>
0.66

>  <Mv>
0.63

>  <Mse>
1.03

>  <Mp>
0.66

>  <Mi>
1.15

>  <NsCH3>
0

>  <NdCH2>
0

>  <NssCH2>
7

>  <NtCH>
0

>  <NdsCH>
0

>  <NaaCH>
8

>  <NsssCH>
0

>  <NddC>
0

>  <NtsC>
0

>  <NdssC>
1

>  <NaasC>
4

>  <NaaaC>
0

>  <NssssC>
2

>  <NsNH3>
0

>  <NsNH2>
0

>  <NssNH2>
0

>  <NdNH>
0

>  <NssNH>
0

>  <NaaNH>
0

>  <NtN>
0

>  <NsssNH>
0

>  <NdsN>
0

>  <NaaN>
0

>  <NsssN>
1

>  <NddsN>
0

>  <NaasN>
0

>  <NssssN>
0

>  <NsOH>
1

>  <NdO>
1

>  <NssO>
0

>  <NaaO>
0

>  <NsF>
4

>  <NsSiH3>
0

>  <NssSiH2>
0

>  <NsssSiH>
0

>  <NssssSi>
0

>  <NsPH2>
0

>  <NssPH>
0

>  <NsssP>
0

>  <NdsssP>
0

>  <NsssssP>
0

>  <NsSH>
0

>  <NdS>
0

>  <NssS>
0

>  <NaaS>
0

>  <NdssS>
0

>  <NddssS>
0

>  <NsCl>
0

>  <NsBr>
0

>  <NsI>
0

>  <fragCpx>
149.07

>  <fMF>
0.42

>  <nHBAcc>
3

>  <nHBDon>
1

>  <Kier1>
23.66

>  <Kier2>
10.08

>  <Lipinski>
1

>  <GhoseFilter>
1

>  <FilterItLogS>
-6.08

>  <VMcGowan>
286.92

>  <LabuteASA>
166.51

>  <PEOE_VSA1>
10.01

>  <PEOE_VSA2>
4.79

>  <PEOE_VSA3>
4.39

>  <PEOE_VSA4>
13.17

>  <PEOE_VSA5>
0

>  <PEOE_VSA6>
12.13

>  <PEOE_VSA7>
67.77

>  <PEOE_VSA8>
25.07

>  <PEOE_VSA9>
11.16

>  <PEOE_VSA10>
5.82

>  <PEOE_VSA11>
5.78

>  <PEOE_VSA12>
0

>  <PEOE_VSA13>
0

>  <SMR_VSA1>
27.46

>  <SMR_VSA2>
0

>  <SMR_VSA3>
4.9

>  <SMR_VSA4>
0

>  <SMR_VSA5>
37.46

>  <SMR_VSA6>
19.63

>  <SMR_VSA7>
71.04

>  <SMR_VSA8>
0

>  <SMR_VSA9>
0

>  <SlogP_VSA1>
0

>  <SlogP_VSA2>
35.42

>  <SlogP_VSA3>
11.78

>  <SlogP_VSA4>
5.82

>  <SlogP_VSA5>
47.17

>  <SlogP_VSA6>
48.53

>  <SlogP_VSA7>
0

>  <SlogP_VSA8>
0

>  <SlogP_VSA9>
0

>  <SlogP_VSA10>
17.56

>  <SlogP_VSA11>
0

>  <EState_VSA1>
17.34

>  <EState_VSA2>
11.6

>  <EState_VSA3>
56.44

>  <EState_VSA4>
12.13

>  <EState_VSA5>
36.4

>  <EState_VSA6>
0

>  <EState_VSA7>
0

>  <EState_VSA8>
4.9

>  <EState_VSA9>
0

>  <EState_VSA10>
27.46

>  <VSA_EState1>
51.72

>  <VSA_EState2>
14.22

>  <VSA_EState3>
10.86

>  <VSA_EState4>
-1.27

>  <VSA_EState5>
-0.44

>  <VSA_EState6>
10.33

>  <VSA_EState7>
-2.82

>  <VSA_EState8>
1.74

>  <VSA_EState9>
0

>  <apol>
57.01

>  <bpol>
30.1

>  <nRing>
3

>  <nHRing>
1

>  <naRing>
2

>  <naHRing>
0

>  <nARing 2>
1

>  <nAHRing 2>
1

>  <nFRing>
0

>  <nFHRing>
0

>  <nFaRing>
0

>  <nFaHRing>
0

>  <nFARing 2>
0

>  <nFAHRing 2>
0

>  <nRot>
6

>  <SLogP>
4.79

>  <SMR>
100.98

>  <TopoPSA(NO)>
40.54

>  <TopoPSA>
40.54

>  <JGI1>
0.27

>  <JGI2>
0.1

>  <JGI3>
0.04

>  <JGI4>
0.04

>  <JGI5>
0.04

>  <Diameter>
17

>  <Radius>
9

>  <TMWC10>
136.31

>  <TSRW10>
64.62

>  <MW>
409.17

>  <AMW>
7.87

>  <WPath>
2700

>  <WPol>
45

>  <Zagreb1>
152

>  <Zagreb2>
175

>  <mZagreb2>
6.19

>  <yes>


>  <nAR-cont>
0.816016

>  <nHA-cont>
0.785905698

>  <MWHBN>
0.197746178

>  <MWHBN-cont>
0.999102976

>  <TPSA-cont>
0.717005626

>  <pka_cont>
0.97

>  <yes.1>


>  <BBB_SCORE>
5.019587415

>  <MMFF94 Energy>
78.994

$$$$
Compound 1777
Actelion Java MolfileCreator 2.0

  0  0  0  0  0  0              0 V3000
M  V30 BEGIN CTAB
M  V30 COUNTS 52 55 0 0 0
M  V30 BEGIN ATOM
M  V30 1 F -4.3244 -2.7211 7.8586 0
M  V30 2 C -3.8933 -2.0046 6.8128 0
M  V30 3 C -4.6446 -0.9258 6.3643 0
M  V30 4 C -2.6991 -2.3514 6.191 0
M  V30 5 C -4.1927 -0.1799 5.2733 0
M  V30 6 C -2.243 -1.6072 5.0985 0
M  V30 7 C -2.9888 -0.5146 4.6318 0
M  V30 8 C -2.5485 0.3168 3.4681 0
M  V30 9 O -3.2431 1.2688 3.1166 0
M  V30 10 C -1.2511 -0.045 2.7661 0
M  V30 11 C -0.9681 0.8736 1.5751 0
M  V30 12 C 0.3929 0.5995 0.9219 0
M  V30 13 N 0.5924 -0.7956 0.5005 0
M  V30 14 C 1.9971 -1.0682 0.1544 0
M  V30 15 C -0.2977 -1.2293 -0.5877 0
M  V30 16 C 2.444 -0.4421 -1.1674 0
M  V30 17 C 0.033 -0.6135 -1.9478 0
M  V30 18 C 1.5035 -0.8551 -2.3042 0
M  V30 19 N 1.88 -0.2919 -3.5867 0
M  V30 20 C 2.3025 -1.07 -4.6905 0
M  V30 21 C 1.9014 1.0629 -3.9668 0
M  V30 22 O 2.4177 -2.2826 -4.7535 0
M  V30 23 N 2.5754 -0.1748 -5.7328 0
M  V30 24 C 2.3323 1.1194 -5.2943 0
M  V30 25 C 1.5883 2.2161 -3.279 0
M  V30 26 C 2.4694 2.3006 -5.9885 0
M  V30 27 C 1.7184 3.4333 -3.9612 0
M  V30 28 C 2.1542 3.4751 -5.3013 0
M  V30 29 H -5.5746 -0.6708 6.8629 0
M  V30 30 H -2.1305 -3.1997 6.5607 0
M  V30 31 H -4.7848 0.6649 4.9246 0
M  V30 32 H -1.3069 -1.9015 4.6325 0
M  V30 33 H -0.4323 0.0381 3.4896 0
M  V30 34 H -1.3287 -1.0809 2.419 0
M  V30 35 H -1.7749 0.7913 0.8373 0
M  V30 36 H -0.9783 1.9186 1.9121 0
M  V30 37 H 0.5304 1.2981 0.0889 0
M  V30 38 H 1.1586 0.8563 1.666 0
M  V30 39 H 2.6593 -0.7365 0.9638 0
M  V30 40 H 2.134 -2.1563 0.099 0
M  V30 41 H -0.2274 -2.3224 -0.6689 0
M  V30 42 H -1.3471 -1.0368 -0.3401 0
M  V30 43 H 2.4896 0.6464 -1.0624 0
M  V30 44 H 3.4662 -0.7678 -1.397 0
M  V30 45 H -0.6101 -1.0611 -2.7157 0
M  V30 46 H -0.2075 0.4539 -1.9371 0
M  V30 47 H 1.6147 -1.9439 -2.4085 0
M  V30 48 H 2.8956 -0.4615 -6.6427 0
M  V30 49 H 1.2518 2.2066 -2.2508 0
M  V30 50 H 2.8047 2.3249 -7.0181 0
M  V30 51 H 1.4786 4.3636 -3.4494 0
M  V30 52 H 2.2449 4.4357 -5.8046 0
M  V30 END ATOM
M  V30 BEGIN BOND
M  V30 1 1 1 2
M  V30 2 2 2 3
M  V30 3 1 2 4
M  V30 4 1 3 5
M  V30 5 2 4 6
M  V30 6 2 5 7
M  V30 7 1 7 8
M  V30 8 2 8 9
M  V30 9 1 8 10
M  V30 10 1 10 11
M  V30 11 1 11 12
M  V30 12 1 12 13
M  V30 13 1 13 14
M  V30 14 1 13 15
M  V30 15 1 14 16
M  V30 16 1 15 17
M  V30 17 1 16 18
M  V30 18 1 18 19
M  V30 19 1 19 20
M  V30 20 1 19 21
M  V30 21 2 20 22
M  V30 22 1 20 23
M  V30 23 2 21 24
M  V30 24 1 21 25
M  V30 25 1 24 26
M  V30 26 2 25 27
M  V30 27 2 26 28
M  V30 28 1 6 7
M  V30 29 1 17 18
M  V30 30 1 23 24
M  V30 31 1 27 28
M  V30 32 1 3 29
M  V30 33 1 4 30
M  V30 34 1 5 31
M  V30 35 1 6 32
M  V30 36 1 10 33
M  V30 37 1 10 34
M  V30 38 1 11 35
M  V30 39 1 11 36
M  V30 40 1 12 37
M  V30 41 1 12 38
M  V30 42 1 14 39
M  V30 43 1 14 40
M  V30 44 1 15 41
M  V30 45 1 15 42
M  V30 46 1 16 43
M  V30 47 1 16 44
M  V30 48 1 17 45
M  V30 49 1 17 46
M  V30 50 1 18 47
M  V30 51 1 23 48
M  V30 52 1 25 49
M  V30 53 1 26 50
M  V30 54 1 27 51
M  V30 55 1 28 52
M  V30 END BOND
M  V30 END CTAB
M  END
>  <Column 1>
2175

>  <level_0>
2356

>  <index>
2356

>  <Unnamed: 0>
2356

>  <NO.>
2368

>  <Name>
benperidol

>  <IUPAC_name>
3-[1-[4-(4-fluorophenyl)-4-oxobutyl]piperidin-4-yl]-1h-benzimidazol-2-one

>  <SMILES>
O=C(CCCN1CCC(n2c(=O)[nH]c3ccccc32)CC1)c1ccc(F)cc1

>  <CID>
16363

>  <logBB>


>  <BBB+/BBB->
BBB+

>  <Inchi>
InChI=1S/C22H24FN3O2/c23-17-9-7-16(8-10-17)21(27)6-3-13-25-14-11-18(12-15-25)26-20-5-2-1-4-19(20)24-22(26)28/h1-2-4-5-7-10-18H-3-6-11-15H2-(H-24-28)

>  <threshold>
-1

>  <reference>
R1|R13|R19|R6|R14|R23|R24|R27|R27|R27|R30|R30|

>  <group>
B

>  <Class>
1

>  <ABC>
22.05

>  <ABCGG>
16.15

>  <nAcid>
0

>  <nBase>
1

>  <nAromAtom>
15

>  <nAromBond>
16

>  <nAtom>
52

>  <nHeavyAtom>
28

>  <nSpiro>
0

>  <nBridgehead>
0

>  <nHetero>
6

>  <nN>
3

>  <nO>
2

>  <nF>
1

>  <BalabanJ>
1.16

>  <BertzCT>
1014.19

>  <nBonds>
55

>  <nBondsO>
31

>  <nBondsS>
37

>  <nBondsD>
2

>  <nBondsT>
0

>  <nBondsA>
16

>  <nBondsM>
18

>  <nBondsKS>
47

>  <nBondsKD>
8

>  <RNCG>
0.15

>  <RPCG>
0.16

>  <FCSP3>
0.36

>  <SZ>
33.67

>  <Sm>
31.76

>  <Sv>
32.85

>  <Sse>
52.26

>  <Sp>
34.85

>  <Si>
58.82

>  <MZ>
0.65

>  <Mm>
0.61

>  <Mv>
0.63

>  <Mse>
1.01

>  <Mp>
0.67

>  <Mi>
1.13

>  <NsCH3>
0

>  <NdCH2>
0

>  <NssCH2>
7

>  <NtCH>
0

>  <NdsCH>
0

>  <NaaCH>
8

>  <NsssCH>
1

>  <NddC>
0

>  <NtsC>
0

>  <NdssC>
1

>  <NaasC>
2

>  <NaaaC>
2

>  <NssssC>
0

>  <NsNH3>
0

>  <NsNH2>
0

>  <NssNH2>
0

>  <NdNH>
0

>  <NssNH>
0

>  <NaaNH>
1

>  <NtN>
0

>  <NsssNH>
0

>  <NdsN>
0

>  <NaaN>
0

>  <NsssN>
1

>  <NddsN>
0

>  <NaasN>
1

>  <NssssN>
0

>  <NsOH>
0

>  <NdO>
2

>  <NssO>
0

>  <NaaO>
0

>  <NsF>
1

>  <NsSiH3>
0

>  <NssSiH2>
0

>  <NsssSiH>
0

>  <NssssSi>
0

>  <NsPH2>
0

>  <NssPH>
0

>  <NsssP>
0

>  <NdsssP>
0

>  <NsssssP>
0

>  <NsSH>
0

>  <NdS>
0

>  <NssS>
0

>  <NaaS>
0

>  <NdssS>
0

>  <NddssS>
0

>  <NsCl>
0

>  <NsBr>
0

>  <NsI>
0

>  <fragCpx>
205.06

>  <fMF>
0.48

>  <nHBAcc>
4

>  <nHBDon>
1

>  <Kier1>
21.24

>  <Kier2>
9.87

>  <Lipinski>
1

>  <GhoseFilter>
1

>  <FilterItLogS>
-5.17

>  <VMcGowan>
286.44

>  <LabuteASA>
162.34

>  <PEOE_VSA1>
9.88

>  <PEOE_VSA2>
9.36

>  <PEOE_VSA3>
9.18

>  <PEOE_VSA4>
0

>  <PEOE_VSA5>
0

>  <PEOE_VSA6>
12.13

>  <PEOE_VSA7>
62.21

>  <PEOE_VSA8>
31.12

>  <PEOE_VSA9>
11.03

>  <PEOE_VSA10>
5.82

>  <PEOE_VSA11>
5.78

>  <PEOE_VSA12>
0

>  <PEOE_VSA13>
0

>  <SMR_VSA1>
9.18

>  <SMR_VSA2>
0

>  <SMR_VSA3>
14.45

>  <SMR_VSA4>
0

>  <SMR_VSA5>
31.73

>  <SMR_VSA6>
19.63

>  <SMR_VSA7>
70.4

>  <SMR_VSA8>
0

>  <SMR_VSA9>
0

>  <SlogP_VSA1>
5.69

>  <SlogP_VSA2>
39.87

>  <SlogP_VSA3>
0

>  <SlogP_VSA4>
5.82

>  <SlogP_VSA5>
42.08

>  <SlogP_VSA6>
53.33

>  <SlogP_VSA7>
0

>  <SlogP_VSA8>
11.03

>  <SlogP_VSA9>
0

>  <SlogP_VSA10>
4.39

>  <SlogP_VSA11>
0

>  <EState_VSA1>
0

>  <EState_VSA2>
23.33

>  <EState_VSA3>
11.98

>  <EState_VSA4>
49.93

>  <EState_VSA5>
12.13

>  <EState_VSA6>
12.13

>  <EState_VSA7>
28.83

>  <EState_VSA8>
9.88

>  <EState_VSA9>
0

>  <EState_VSA10>
13.98

>  <VSA_EState1>
14.84

>  <VSA_EState2>
29.83

>  <VSA_EState3>
0

>  <VSA_EState4>
2.38

>  <VSA_EState5>
-0.27

>  <VSA_EState6>
13.75

>  <VSA_EState7>
3.1

>  <VSA_EState8>
2.7

>  <VSA_EState9>
0

>  <apol>
58.2

>  <bpol>
30.92

>  <nRing>
4

>  <nHRing>
2

>  <naRing>
3

>  <naHRing>
1

>  <nARing 2>
1

>  <nAHRing 2>
1

>  <nFRing>
1

>  <nFHRing>
1

>  <nFaRing>
1

>  <nFaHRing>
1

>  <nFARing 2>
0

>  <nFAHRing 2>
0

>  <nRot>
6

>  <SLogP>
3.77

>  <SMR>
107.23

>  <TopoPSA(NO)>
58.1

>  <TopoPSA>
58.1

>  <JGI1>
0.16

>  <JGI2>
0.08

>  <JGI3>
0.05

>  <JGI4>
0.03

>  <JGI5>
0.02

>  <Diameter>
17

>  <Radius>
9

>  <TMWC10>
135.4

>  <TSRW10>
77.63

>  <MW>
381.19

>  <AMW>
7.33

>  <WPath>
2452

>  <WPol>
43

>  <Zagreb1>
148

>  <Zagreb2>
174

>  <mZagreb2>
6.14

>  <yes>


>  <nAR-cont>
0.816016

>  <nHA-cont>
0.82432561

>  <MWHBN>
0.256093912

>  <MWHBN-cont>
0.948951509

>  <TPSA-cont>
0.594425922

>  <pka_cont>
0.97

>  <yes.1>


>  <BBB_SCORE>
4.737620717

>  <MMFF94 Energy>
12.201

$$$$
Compound 1778
Actelion Java MolfileCreator 2.0

  0  0  0  0  0  0              0 V3000
M  V30 BEGIN CTAB
M  V30 COUNTS 55 58 0 0 0
M  V30 BEGIN ATOM
M  V30 1 F -6.992 0.5612 0.6413 0
M  V30 2 C -5.8885 -0.1813 0.7962 0
M  V30 3 C -5.2659 -0.7256 -0.3175 0
M  V30 4 C -5.3842 -0.4022 2.0699 0
M  V30 5 C -4.115 -1.5 -0.1507 0
M  V30 6 C -4.2333 -1.1784 2.2281 0
M  V30 7 C -3.5726 -1.7291 1.1201 0
M  V30 8 N -2.451 -2.5029 1.2681 0
M  V30 9 C -1.0426 -2.0436 1.1505 0
M  V30 10 C -2.5624 -3.783 1.9346 0
M  V30 11 C -0.2893 -3.313 1.5972 0
M  V30 12 C -0.624 -1.7274 -0.2867 0
M  V30 13 C -0.6883 -0.934 2.1463 0
M  V30 14 N -1.2195 -4.2358 2.0156 0
M  V30 15 O 0.9157 -3.5086 1.6134 0
M  V30 16 C -0.84 -0.2691 -0.685 0
M  V30 17 C -0.9377 0.466 1.5976 0
M  V30 18 N -0.2602 0.6505 0.3051 0
M  V30 19 C -0.3801 2.0565 -0.1239 0
M  V30 20 C 0.5055 2.426 -1.3214 0
M  V30 21 C 1.9788 2.0764 -1.097 0
M  V30 22 C 2.8595 2.5521 -2.239 0
M  V30 23 O 2.4133 3.1826 -3.1959 0
M  V30 24 C 4.3234 2.2453 -2.1886 0
M  V30 25 C 5.1366 2.6987 -3.2405 0
M  V30 26 C 4.9037 1.5263 -1.1333 0
M  V30 27 C 6.5086 2.4376 -3.2376 0
M  V30 28 C 6.2778 1.2665 -1.1346 0
M  V30 29 C 7.0662 1.7239 -2.1844 0
M  V30 30 F 8.3814 1.4725 -2.1797 0
M  V30 31 H -5.678 -0.5505 -1.3058 0
M  V30 32 H -5.886 0.0288 2.9301 0
M  V30 33 H -3.643 -1.938 -1.0269 0
M  V30 34 H -3.8435 -1.3396 3.2302 0
M  V30 35 H -2.959 -3.7038 2.9519 0
M  V30 36 H -3.1475 -4.5024 1.3538 0
M  V30 37 H -1.1427 -2.3824 -0.9981 0
M  V30 38 H 0.4461 -1.9432 -0.4146 0
M  V30 39 H 0.3766 -1.0016 2.4107 0
M  V30 40 H -1.2336 -1.0609 3.0901 0
M  V30 41 H -0.9355 -5.1414 2.3579 0
M  V30 42 H -0.3583 -0.1342 -1.6597 0
M  V30 43 H -1.9035 -0.0571 -0.834 0
M  V30 44 H -2.0113 0.6704 1.5126 0
M  V30 45 H -0.5398 1.1798 2.3301 0
M  V30 46 H -0.0778 2.7093 0.7059 0
M  V30 47 H -1.4243 2.3072 -0.3529 0
M  V30 48 H 0.4088 3.5055 -1.496 0
M  V30 49 H 0.1417 1.9426 -2.2358 0
M  V30 50 H 2.0867 0.9897 -1.0138 0
M  V30 51 H 2.3269 2.5506 -0.1723 0
M  V30 52 H 4.703 3.2581 -4.0682 0
M  V30 53 H 4.3127 1.1552 -0.3005 0
M  V30 54 H 7.1407 2.7858 -4.0484 0
M  V30 55 H 6.7372 0.7092 -0.3235 0
M  V30 END ATOM
M  V30 BEGIN BOND
M  V30 1 1 1 2
M  V30 2 2 2 3
M  V30 3 1 2 4
M  V30 4 1 3 5
M  V30 5 2 4 6
M  V30 6 2 5 7
M  V30 7 1 7 8
M  V30 8 1 8 9
M  V30 9 1 8 10
M  V30 10 1 9 11
M  V30 11 1 9 12
M  V30 12 1 9 13
M  V30 13 1 10 14
M  V30 14 2 11 15
M  V30 15 1 12 16
M  V30 16 1 13 17
M  V30 17 1 16 18
M  V30 18 1 18 19
M  V30 19 1 19 20
M  V30 20 1 20 21
M  V30 21 1 21 22
M  V30 22 2 22 23
M  V30 23 1 22 24
M  V30 24 2 24 25
M  V30 25 1 24 26
M  V30 26 1 25 27
M  V30 27 2 26 28
M  V30 28 2 27 29
M  V30 29 1 29 30
M  V30 30 1 6 7
M  V30 31 1 11 14
M  V30 32 1 17 18
M  V30 33 1 28 29
M  V30 34 1 3 31
M  V30 35 1 4 32
M  V30 36 1 5 33
M  V30 37 1 6 34
M  V30 38 1 10 35
M  V30 39 1 10 36
M  V30 40 1 12 37
M  V30 41 1 12 38
M  V30 42 1 13 39
M  V30 43 1 13 40
M  V30 44 1 14 41
M  V30 45 1 16 42
M  V30 46 1 16 43
M  V30 47 1 17 44
M  V30 48 1 17 45
M  V30 49 1 19 46
M  V30 50 1 19 47
M  V30 51 1 20 48
M  V30 52 1 20 49
M  V30 53 1 21 50
M  V30 54 1 21 51
M  V30 55 1 25 52
M  V30 56 1 26 53
M  V30 57 1 27 54
M  V30 58 1 28 55
M  V30 END BOND
M  V30 END CTAB
M  END
>  <Column 1>
2177

>  <level_0>
2358

>  <index>
2358

>  <Unnamed: 0>
2358

>  <NO.>
2370

>  <Name>
fluspiperone

>  <IUPAC_name>
1-(4-fluorophenyl)-8-[4-(4-fluorophenyl)-4-oxobutyl]-1-3-8-triazaspiro[4.5]decan-4-one

>  <SMILES>
O=C(CCCN1CCC2(CC1)C(=O)NCN2c1ccc(F)cc1)c1ccc(F)cc1

>  <CID>
166535

>  <logBB>


>  <BBB+/BBB->
BBB+

>  <Inchi>
InChI=1S/C23H25F2N3O2/c24-18-5-3-17(4-6-18)21(29)2-1-13-27-14-11-23(12-15-27)22(30)26-16-28(23)20-9-7-19(25)8-10-20/h3-10H-1-2-11-16H2-(H-26-30)

>  <threshold>
-1

>  <reference>
R1|R13|R19|R6|R24|R27|R27|R27|R30|R30|

>  <group>
B

>  <Class>
1

>  <ABC>
23.57

>  <ABCGG>
17.59

>  <nAcid>
0

>  <nBase>
1

>  <nAromAtom>
12

>  <nAromBond>
12

>  <nAtom>
55

>  <nHeavyAtom>
30

>  <nSpiro>
1

>  <nBridgehead>
0

>  <nHetero>
7

>  <nN>
3

>  <nO>
2

>  <nF>
2

>  <BalabanJ>
1.22

>  <BertzCT>
907.05

>  <nBonds>
58

>  <nBondsO>
33

>  <nBondsS>
44

>  <nBondsD>
2

>  <nBondsT>
0

>  <nBondsA>
12

>  <nBondsM>
14

>  <nBondsKS>
50

>  <nBondsKD>
8

>  <RNCG>
0.15

>  <RPCG>
0.11

>  <FCSP3>
0.39

>  <SZ>
36.33

>  <Sm>
34.42

>  <Sv>
34.77

>  <Sse>
55.66

>  <Sp>
36.59

>  <Si>
62.58

>  <MZ>
0.66

>  <Mm>
0.63

>  <Mv>
0.63

>  <Mse>
1.01

>  <Mp>
0.67

>  <Mi>
1.14

>  <NsCH3>
0

>  <NdCH2>
0

>  <NssCH2>
8

>  <NtCH>
0

>  <NdsCH>
0

>  <NaaCH>
8

>  <NsssCH>
0

>  <NddC>
0

>  <NtsC>
0

>  <NdssC>
2

>  <NaasC>
4

>  <NaaaC>
0

>  <NssssC>
1

>  <NsNH3>
0

>  <NsNH2>
0

>  <NssNH2>
0

>  <NdNH>
0

>  <NssNH>
1

>  <NaaNH>
0

>  <NtN>
0

>  <NsssNH>
0

>  <NdsN>
0

>  <NaaN>
0

>  <NsssN>
2

>  <NddsN>
0

>  <NaasN>
0

>  <NssssN>
0

>  <NsOH>
0

>  <NdO>
2

>  <NssO>
0

>  <NaaO>
0

>  <NsF>
2

>  <NsSiH3>
0

>  <NssSiH2>
0

>  <NsssSiH>
0

>  <NssssSi>
0

>  <NsPH2>
0

>  <NssPH>
0

>  <NsssP>
0

>  <NdsssP>
0

>  <NsssssP>
0

>  <NsSH>
0

>  <NdS>
0

>  <NssS>
0

>  <NaaS>
0

>  <NdssS>
0

>  <NddssS>
0

>  <NsCl>
0

>  <NsBr>
0

>  <NsI>
0

>  <fragCpx>
219.07

>  <fMF>
0.47

>  <nHBAcc>
4

>  <nHBDon>
1

>  <Kier1>
23.17

>  <Kier2>
10.29

>  <Lipinski>
1

>  <GhoseFilter>
1

>  <FilterItLogS>
-5.88

>  <VMcGowan>
302.29

>  <LabuteASA>
174.21

>  <PEOE_VSA1>
15.12

>  <PEOE_VSA2>
9.59

>  <PEOE_VSA3>
8.78

>  <PEOE_VSA4>
0

>  <PEOE_VSA5>
0

>  <PEOE_VSA6>
0

>  <PEOE_VSA7>
74.34

>  <PEOE_VSA8>
30.76

>  <PEOE_VSA9>
6.67

>  <PEOE_VSA10>
17.17

>  <PEOE_VSA11>
5.78

>  <PEOE_VSA12>
5.91

>  <PEOE_VSA13>
0

>  <SMR_VSA1>
18.37

>  <SMR_VSA2>
0

>  <SMR_VSA3>
10.22

>  <SMR_VSA4>
0

>  <SMR_VSA5>
31.22

>  <SMR_VSA6>
31.2

>  <SMR_VSA7>
65.73

>  <SMR_VSA8>
0

>  <SMR_VSA9>
0

>  <SlogP_VSA1>
10.22

>  <SlogP_VSA2>
48.43

>  <SlogP_VSA3>
4.79

>  <SlogP_VSA4>
11.63

>  <SlogP_VSA5>
36.04

>  <SlogP_VSA6>
48.53

>  <SlogP_VSA7>
0

>  <SlogP_VSA8>
0

>  <SlogP_VSA9>
0

>  <SlogP_VSA10>
14.47

>  <SlogP_VSA11>
0

>  <EState_VSA1>
5.54

>  <EState_VSA2>
23.32

>  <EState_VSA3>
31.49

>  <EState_VSA4>
31.74

>  <EState_VSA5>
36.4

>  <EState_VSA6>
12.13

>  <EState_VSA7>
4.9

>  <EState_VSA8>
10.22

>  <EState_VSA9>
0

>  <EState_VSA10>
18.37

>  <VSA_EState1>
26.27

>  <VSA_EState2>
29.24

>  <VSA_EState3>
2.94

>  <VSA_EState4>
0.78

>  <VSA_EState5>
-0.6

>  <VSA_EState6>
11.9

>  <VSA_EState7>
2.5

>  <VSA_EState8>
2.73

>  <VSA_EState9>
0

>  <apol>
61.1

>  <bpol>
33.03

>  <nRing>
4

>  <nHRing>
2

>  <naRing>
2

>  <naHRing>
0

>  <nARing 2>
2

>  <nAHRing 2>
2

>  <nFRing>
0

>  <nFHRing>
0

>  <nFaRing>
0

>  <nFaHRing>
0

>  <nFARing 2>
0

>  <nFAHRing 2>
0

>  <nRot>
6

>  <SLogP>
3.36

>  <SMR>
110.26

>  <TopoPSA(NO)>
52.65

>  <TopoPSA>
52.65

>  <JGI1>
0.21

>  <JGI2>
0.1

>  <JGI3>
0.05

>  <JGI4>
0.04

>  <JGI5>
0.03

>  <Diameter>
18

>  <Radius>
9

>  <TMWC10>
140.62

>  <TSRW10>
80.21

>  <MW>
413.19

>  <AMW>
7.51

>  <WPath>
2866

>  <WPol>
49

>  <Zagreb1>
160

>  <Zagreb2>
190

>  <mZagreb2>
6.56

>  <yes>


>  <nAR-cont>
1

>  <nHA-cont>
0.74523694

>  <MWHBN>
0.245977341

>  <MWHBN-cont>
0.96628146

>  <TPSA-cont>
0.632470306

>  <pka_cont>
0.97

>  <yes.1>


>  <BBB_SCORE>
4.944599742

>  <MMFF94 Energy>
28.089

$$$$
Compound 1779
Actelion Java MolfileCreator 2.0

  0  0  0  0  0  0              0 V3000
M  V30 BEGIN CTAB
M  V30 COUNTS 56 58 0 0 0
M  V30 BEGIN ATOM
M  V30 1 F -6.6965 -5.2586 0.0 0
M  V30 2 C -6.4663 -3.9398 0.0166 0
M  V30 3 C -7.2809 -3.1106 0.7759 0
M  V30 4 C -5.4122 -3.4198 -0.7255 0
M  V30 5 C -7.0372 -1.7355 0.7913 0
M  V30 6 C -5.1651 -2.0431 -0.7128 0
M  V30 7 C -5.9795 -1.1894 0.0448 0
M  V30 8 C -5.7692 0.2908 0.1042 0
M  V30 9 O -6.4336 0.9627 0.8926 0
M  V30 10 C -4.7401 0.9503 -0.7904 0
M  V30 11 C -3.3769 1.0027 -0.1057 0
M  V30 12 C -2.3431 1.7008 -0.9966 0
M  V30 13 N -1.0422 1.8759 -0.3319 0
M  V30 14 C -0.3273 0.593 -0.1401 0
M  V30 15 C -0.1913 2.7983 -1.1241 0
M  V30 16 C 1.0608 0.7763 0.5065 0
M  V30 17 C 1.1925 3.0217 -0.4885 0
M  V30 18 N 1.8636 1.7564 -0.2199 0
M  V30 19 C 3.1865 1.5831 -0.5606 0
M  V30 20 O 3.8611 2.427 -1.1382 0
M  V30 21 O 3.6612 0.3661 -0.1835 0
M  V30 22 C 5.0469 0.0949 -0.473 0
M  V30 23 C 5.9389 0.6938 0.6206 0
M  V30 24 C 5.2133 -1.4271 -0.5387 0
M  V30 25 C 5.7098 0.0298 1.9786 0
M  V30 26 C 4.9896 -2.0945 0.8187 0
M  V30 27 C 5.878 -1.4843 1.8983 0
M  V30 28 H -8.0978 -3.535 1.3512 0
M  V30 29 H -4.788 -4.0908 -1.3079 0
M  V30 30 H -7.678 -1.0895 1.39 0
M  V30 31 H -4.3284 -1.6713 -1.2952 0
M  V30 32 H -4.692 0.4474 -1.761 0
M  V30 33 H -5.0973 1.9658 -1.0042 0
M  V30 34 H -3.4674 1.5372 0.8486 0
M  V30 35 H -3.0557 -0.0158 0.1356 0
M  V30 36 H -2.2285 1.1525 -1.9407 0
M  V30 37 H -2.746 2.6899 -1.2512 0
M  V30 38 H -0.9041 -0.071 0.5115 0
M  V30 39 H -0.2042 0.0852 -1.1058 0
M  V30 40 H -0.0572 2.4032 -2.14 0
M  V30 41 H -0.686 3.773 -1.2113 0
M  V30 42 H 0.9513 1.1484 1.5325 0
M  V30 43 H 1.5638 -0.1932 0.5628 0
M  V30 44 H 1.7996 3.6568 -1.1416 0
M  V30 45 H 1.0873 3.5424 0.471 0
M  V30 46 H 5.3118 0.5121 -1.4523 0
M  V30 47 H 6.991 0.5756 0.3342 0
M  V30 48 H 5.7493 1.768 0.7234 0
M  V30 49 H 4.4988 -1.8476 -1.2563 0
M  V30 50 H 6.2211 -1.6681 -0.8978 0
M  V30 51 H 6.4153 0.4392 2.7104 0
M  V30 52 H 4.7025 0.2679 2.3416 0
M  V30 53 H 3.9373 -1.994 1.1116 0
M  V30 54 H 5.1941 -3.168 0.7375 0
M  V30 55 H 6.9269 -1.7228 1.6839 0
M  V30 56 H 5.6408 -1.9339 2.8691 0
M  V30 END ATOM
M  V30 BEGIN BOND
M  V30 1 1 1 2
M  V30 2 2 2 3
M  V30 3 1 2 4
M  V30 4 1 3 5
M  V30 5 2 4 6
M  V30 6 2 5 7
M  V30 7 1 7 8
M  V30 8 2 8 9
M  V30 9 1 8 10
M  V30 10 1 10 11
M  V30 11 1 11 12
M  V30 12 1 12 13
M  V30 13 1 13 14
M  V30 14 1 13 15
M  V30 15 1 14 16
M  V30 16 1 15 17
M  V30 17 1 16 18
M  V30 18 1 18 19
M  V30 19 2 19 20
M  V30 20 1 19 21
M  V30 21 1 21 22
M  V30 22 1 22 23
M  V30 23 1 22 24
M  V30 24 1 23 25
M  V30 25 1 24 26
M  V30 26 1 25 27
M  V30 27 1 6 7
M  V30 28 1 17 18
M  V30 29 1 26 27
M  V30 30 1 3 28
M  V30 31 1 4 29
M  V30 32 1 5 30
M  V30 33 1 6 31
M  V30 34 1 10 32
M  V30 35 1 10 33
M  V30 36 1 11 34
M  V30 37 1 11 35
M  V30 38 1 12 36
M  V30 39 1 12 37
M  V30 40 1 14 38
M  V30 41 1 14 39
M  V30 42 1 15 40
M  V30 43 1 15 41
M  V30 44 1 16 42
M  V30 45 1 16 43
M  V30 46 1 17 44
M  V30 47 1 17 45
M  V30 48 1 22 46
M  V30 49 1 23 47
M  V30 50 1 23 48
M  V30 51 1 24 49
M  V30 52 1 24 50
M  V30 53 1 25 51
M  V30 54 1 25 52
M  V30 55 1 26 53
M  V30 56 1 26 54
M  V30 57 1 27 55
M  V30 58 1 27 56
M  V30 END BOND
M  V30 END CTAB
M  END
>  <Column 1>
2178

>  <level_0>
2359

>  <index>
2359

>  <Unnamed: 0>
2359

>  <NO.>
2371

>  <Name>
fenaperone

>  <IUPAC_name>
cyclohexyl 4-[4-(4-fluorophenyl)-4-oxobutyl]piperazine-1-carboxylate

>  <SMILES>
O=C(CCCN1CCN(C(=O)OC2CCCCC2)CC1)c1ccc(F)cc1

>  <CID>
198061

>  <logBB>


>  <BBB+/BBB->
BBB+

>  <Inchi>
InChI=1S/C21H29FN2O3/c22-18-10-8-17(9-11-18)20(25)7-4-12-23-13-15-24(16-14-23)21(26)27-19-5-2-1-3-6-19/h8-11-19H-1-7-12-16H2

>  <threshold>
-1

>  <reference>
R1|R13|R19|R6|R24|R27|R27|R27|R30|R30|

>  <group>
B

>  <Class>
1

>  <ABC>
20.75

>  <ABCGG>
15.05

>  <nAcid>
0

>  <nBase>
1

>  <nAromAtom>
6

>  <nAromBond>
6

>  <nAtom>
56

>  <nHeavyAtom>
27

>  <nSpiro>
0

>  <nBridgehead>
0

>  <nHetero>
6

>  <nN>
2

>  <nO>
3

>  <nF>
1

>  <BalabanJ>
1.27

>  <BertzCT>
620.82

>  <nBonds>
58

>  <nBondsO>
29

>  <nBondsS>
50

>  <nBondsD>
2

>  <nBondsT>
0

>  <nBondsA>
6

>  <nBondsM>
8

>  <nBondsKS>
53

>  <nBondsKD>
5

>  <RNCG>
0.21

>  <RPCG>
0.19

>  <FCSP3>
0.62

>  <SZ>
33.67

>  <Sm>
31.34

>  <Sv>
33.16

>  <Sse>
56.15

>  <Sp>
35.67

>  <Si>
63.78

>  <MZ>
0.6

>  <Mm>
0.56

>  <Mv>
0.59

>  <Mse>
1

>  <Mp>
0.64

>  <Mi>
1.14

>  <NsCH3>
0

>  <NdCH2>
0

>  <NssCH2>
12

>  <NtCH>
0

>  <NdsCH>
0

>  <NaaCH>
4

>  <NsssCH>
1

>  <NddC>
0

>  <NtsC>
0

>  <NdssC>
2

>  <NaasC>
2

>  <NaaaC>
0

>  <NssssC>
0

>  <NsNH3>
0

>  <NsNH2>
0

>  <NssNH2>
0

>  <NdNH>
0

>  <NssNH>
0

>  <NaaNH>
0

>  <NtN>
0

>  <NsssNH>
0

>  <NdsN>
0

>  <NaaN>
0

>  <NsssN>
2

>  <NddsN>
0

>  <NaasN>
0

>  <NssssN>
0

>  <NsOH>
0

>  <NdO>
2

>  <NssO>
1

>  <NaaO>
0

>  <NsF>
1

>  <NsSiH3>
0

>  <NssSiH2>
0

>  <NsssSiH>
0

>  <NssssSi>
0

>  <NsPH2>
0

>  <NssPH>
0

>  <NsssP>
0

>  <NdsssP>
0

>  <NsssssP>
0

>  <NsSH>
0

>  <NdS>
0

>  <NssS>
0

>  <NaaS>
0

>  <NdssS>
0

>  <NddssS>
0

>  <NsCl>
0

>  <NsBr>
0

>  <NsI>
0

>  <fragCpx>
139.06

>  <fMF>
0.43

>  <nHBAcc>
4

>  <nHBDon>
0

>  <Kier1>
21.7

>  <Kier2>
11.25

>  <Lipinski>
1

>  <GhoseFilter>
1

>  <FilterItLogS>
-4.08

>  <VMcGowan>
292

>  <LabuteASA>
160.02

>  <PEOE_VSA1>
9.64

>  <PEOE_VSA2>
9.69

>  <PEOE_VSA3>
9.18

>  <PEOE_VSA4>
0

>  <PEOE_VSA5>
0

>  <PEOE_VSA6>
6.42

>  <PEOE_VSA7>
62.91

>  <PEOE_VSA8>
38.16

>  <PEOE_VSA9>
0

>  <PEOE_VSA10>
11.92

>  <PEOE_VSA11>
5.78

>  <PEOE_VSA12>
0

>  <PEOE_VSA13>
0

>  <SMR_VSA1>
18.72

>  <SMR_VSA2>
0

>  <SMR_VSA3>
9.8

>  <SMR_VSA4>
0

>  <SMR_VSA5>
51.05

>  <SMR_VSA6>
32.72

>  <SMR_VSA7>
35.65

>  <SMR_VSA8>
0

>  <SMR_VSA9>
0

>  <SlogP_VSA1>
0

>  <SlogP_VSA2>
60.5

>  <SlogP_VSA3>
4.74

>  <SlogP_VSA4>
5.82

>  <SlogP_VSA5>
55.3

>  <SlogP_VSA6>
24.27

>  <SlogP_VSA7>
0

>  <SlogP_VSA8>
0

>  <SlogP_VSA9>
0

>  <SlogP_VSA10>
9.18

>  <SlogP_VSA11>
0

>  <EState_VSA1>
0

>  <EState_VSA2>
23.8

>  <EState_VSA3>
25.07

>  <EState_VSA4>
51.74

>  <EState_VSA5>
30.69

>  <EState_VSA6>
4.9

>  <EState_VSA7>
0

>  <EState_VSA8>
4.9

>  <EState_VSA9>
4.74

>  <EState_VSA10>
13.98

>  <VSA_EState1>
18.54

>  <VSA_EState2>
28.47

>  <VSA_EState3>
0

>  <VSA_EState4>
0.56

>  <VSA_EState5>
-0.28

>  <VSA_EState6>
5.71

>  <VSA_EState7>
6.69

>  <VSA_EState8>
3.81

>  <VSA_EState9>
0

>  <apol>
59.57

>  <bpol>
37.1

>  <nRing>
3

>  <nHRing>
1

>  <naRing>
1

>  <naHRing>
0

>  <nARing 2>
2

>  <nAHRing 2>
1

>  <nFRing>
0

>  <nFHRing>
0

>  <nFaRing>
0

>  <nFaHRing>
0

>  <nFARing 2>
0

>  <nFAHRing 2>
0

>  <nRot>
6

>  <SLogP>
3.88

>  <SMR>
101.33

>  <TopoPSA(NO)>
49.85

>  <TopoPSA>
49.85

>  <JGI1>
0.17

>  <JGI2>
0.08

>  <JGI3>
0.03

>  <JGI4>
0.03

>  <JGI5>
0.03

>  <Diameter>
18

>  <Radius>
9

>  <TMWC10>
129.79

>  <TSRW10>
61.52

>  <MW>
376.22

>  <AMW>
6.72

>  <WPath>
2366

>  <WPol>
37

>  <Zagreb1>
134

>  <Zagreb2>
151

>  <mZagreb2>
6.06

>  <yes>


>  <nAR-cont>
1

>  <nHA-cont>
0.860070871

>  <MWHBN>
0.206223927

>  <MWHBN-cont>
0.999919538

>  <TPSA-cont>
0.652016045

>  <pka_cont>
0.97

>  <yes.1>


>  <BBB_SCORE>
5.148982267

>  <MMFF94 Energy>
35.424

$$$$
Compound 1780
Actelion Java MolfileCreator 2.0

  0  0  0  0  0  0              0 V3000
M  V30 BEGIN CTAB
M  V30 COUNTS 52 55 0 0 0
M  V30 BEGIN ATOM
M  V30 1 F -3.8463 1.0406 9.8789 0
M  V30 2 C -3.6061 0.9574 8.5644 0
M  V30 3 C -4.6354 1.1942 7.6627 0
M  V30 4 C -2.3281 0.6356 8.1215 0
M  V30 5 C -4.3816 1.1069 6.2921 0
M  V30 6 C -2.0697 0.5471 6.7499 0
M  V30 7 C -3.0974 0.7817 5.8249 0
M  V30 8 C -2.879 0.7019 4.3466 0
M  V30 9 O -3.8096 0.9745 3.5912 0
M  V30 10 C -1.5077 0.2936 3.8338 0
M  V30 11 C -1.4723 0.1768 2.3076 0
M  V30 12 C -0.0683 -0.1999 1.8186 0
M  V30 13 N -0.0163 -0.4893 0.3777 0
M  V30 14 C 1.3084 -1.0454 0.0179 0
M  V30 15 C -0.2546 0.7191 -0.4475 0
M  V30 16 C 1.4552 -1.3636 -1.4877 0
M  V30 17 C -0.1427 0.4592 -1.9682 0
M  V30 18 N 1.136 -0.187 -2.3063 0
M  V30 19 C 1.4666 -0.2042 -3.6592 0
M  V30 20 N 0.5545 0.2314 -4.5555 0
M  V30 21 C 2.7266 -0.6252 -4.0895 0
M  V30 22 C 0.875 0.2195 -5.8712 0
M  V30 23 C 3.0561 -0.6339 -5.4553 0
M  V30 24 C 2.0981 -0.2013 -6.3835 0
M  V30 25 C 4.3134 -1.0569 -5.921 0
M  V30 26 C 2.3995 -0.2005 -7.7579 0
M  V30 27 C 4.6067 -1.0535 -7.2866 0
M  V30 28 C 3.6503 -0.6266 -8.2045 0
M  V30 29 H -5.6267 1.445 8.0277 0
M  V30 30 H -1.5409 0.4564 8.8478 0
M  V30 31 H -5.1917 1.2937 5.5883 0
M  V30 32 H -1.0615 0.2968 6.4342 0
M  V30 33 H -0.7804 1.0475 4.1559 0
M  V30 34 H -1.2453 -0.6757 4.2721 0
M  V30 35 H -2.1976 -0.5797 1.9821 0
M  V30 36 H -1.7869 1.1315 1.8706 0
M  V30 37 H 0.6433 0.5926 2.0848 0
M  V30 38 H 0.2405 -1.1 2.3661 0
M  V30 39 H 1.4768 -1.9753 0.5748 0
M  V30 40 H 2.1018 -0.3429 0.3083 0
M  V30 41 H 0.4598 1.5066 -0.1714 0
M  V30 42 H -1.2607 1.1103 -0.2624 0
M  V30 43 H 2.4811 -1.711 -1.6459 0
M  V30 44 H 0.7829 -2.1886 -1.7569 0
M  V30 45 H -0.978 -0.1761 -2.2909 0
M  V30 46 H -0.2361 1.4296 -2.4724 0
M  V30 47 H 3.4757 -0.9227 -3.3649 0
M  V30 48 H 0.0835 0.5756 -6.525 0
M  V30 49 H 5.074 -1.3935 -5.22 0
M  V30 50 H 1.6616 0.1337 -8.4835 0
M  V30 51 H 5.5828 -1.3842 -7.6324 0
M  V30 52 H 3.8787 -0.6236 -9.2672 0
M  V30 END ATOM
M  V30 BEGIN BOND
M  V30 1 1 1 2
M  V30 2 2 2 3
M  V30 3 1 2 4
M  V30 4 1 3 5
M  V30 5 2 4 6
M  V30 6 2 5 7
M  V30 7 1 7 8
M  V30 8 2 8 9
M  V30 9 1 8 10
M  V30 10 1 10 11
M  V30 11 1 11 12
M  V30 12 1 12 13
M  V30 13 1 13 14
M  V30 14 1 13 15
M  V30 15 1 14 16
M  V30 16 1 15 17
M  V30 17 1 16 18
M  V30 18 1 18 19
M  V30 19 1 19 20
M  V30 20 2 19 21
M  V30 21 2 20 22
M  V30 22 1 21 23
M  V30 23 1 22 24
M  V30 24 2 23 25
M  V30 25 2 24 26
M  V30 26 1 25 27
M  V30 27 1 26 28
M  V30 28 1 6 7
M  V30 29 1 17 18
M  V30 30 1 23 24
M  V30 31 2 27 28
M  V30 32 1 3 29
M  V30 33 1 4 30
M  V30 34 1 5 31
M  V30 35 1 6 32
M  V30 36 1 10 33
M  V30 37 1 10 34
M  V30 38 1 11 35
M  V30 39 1 11 36
M  V30 40 1 12 37
M  V30 41 1 12 38
M  V30 42 1 14 39
M  V30 43 1 14 40
M  V30 44 1 15 41
M  V30 45 1 15 42
M  V30 46 1 16 43
M  V30 47 1 16 44
M  V30 48 1 17 45
M  V30 49 1 17 46
M  V30 50 1 21 47
M  V30 51 1 22 48
M  V30 52 1 25 49
M  V30 53 1 26 50
M  V30 54 1 27 51
M  V30 55 1 28 52
M  V30 END BOND
M  V30 END CTAB
M  END
>  <Column 1>
2179

>  <level_0>
2360

>  <index>
2360

>  <Unnamed: 0>
2360

>  <NO.>
2372

>  <Name>
cinuperone

>  <IUPAC_name>
1-(4-fluorophenyl)-4-(4-isoquinolin-3-ylpiperazin-1-yl)butan-1-one

>  <SMILES>
O=C(CCCN1CCN(c2cc3ccccc3cn2)CC1)c1ccc(F)cc1

>  <CID>
133832

>  <logBB>


>  <BBB+/BBB->
BBB+

>  <Inchi>
InChI=1S/C23H24FN3O/c24-21-9-7-18(8-10-21)22(28)6-3-11-26-12-14-27(15-13-26)23-16-19-4-1-2-5-20(19)17-25-23/h1-2-4-5-7-10-16-17H-3-6-11-15H2

>  <threshold>
-1

>  <reference>
R1|R13|R19|R6|R24|R27|R27|R27|R30|R30|

>  <group>
B

>  <Class>
1

>  <ABC>
22.02

>  <ABCGG>
15.05

>  <nAcid>
0

>  <nBase>
1

>  <nAromAtom>
16

>  <nAromBond>
17

>  <nAtom>
52

>  <nHeavyAtom>
28

>  <nSpiro>
0

>  <nBridgehead>
0

>  <nHetero>
5

>  <nN>
3

>  <nO>
1

>  <nF>
1

>  <BalabanJ>
1.11

>  <BertzCT>
949.48

>  <nBonds>
55

>  <nBondsO>
31

>  <nBondsS>
37

>  <nBondsD>
1

>  <nBondsT>
0

>  <nBondsA>
17

>  <nBondsM>
18

>  <nBondsKS>
46

>  <nBondsKD>
9

>  <RNCG>
0.19

>  <RPCG>
0.09

>  <FCSP3>
0.3

>  <SZ>
33.33

>  <Sm>
31.43

>  <Sv>
33.14

>  <Sse>
51.93

>  <Sp>
35.37

>  <Si>
58.61

>  <MZ>
0.64

>  <Mm>
0.6

>  <Mv>
0.64

>  <Mse>
1

>  <Mp>
0.68

>  <Mi>
1.13

>  <NsCH3>
0

>  <NdCH2>
0

>  <NssCH2>
7

>  <NtCH>
0

>  <NdsCH>
0

>  <NaaCH>
10

>  <NsssCH>
0

>  <NddC>
0

>  <NtsC>
0

>  <NdssC>
1

>  <NaasC>
3

>  <NaaaC>
2

>  <NssssC>
0

>  <NsNH3>
0

>  <NsNH2>
0

>  <NssNH2>
0

>  <NdNH>
0

>  <NssNH>
0

>  <NaaNH>
0

>  <NtN>
0

>  <NsssNH>
0

>  <NdsN>
0

>  <NaaN>
1

>  <NsssN>
2

>  <NddsN>
0

>  <NaasN>
0

>  <NssssN>
0

>  <NsOH>
0

>  <NdO>
1

>  <NssO>
0

>  <NaaO>
0

>  <NsF>
1

>  <NsSiH3>
0

>  <NssSiH2>
0

>  <NsssSiH>
0

>  <NssssSi>
0

>  <NsPH2>
0

>  <NssPH>
0

>  <NsssP>
0

>  <NdsssP>
0

>  <NsssssP>
0

>  <NsSH>
0

>  <NdS>
0

>  <NssS>
0

>  <NaaS>
0

>  <NdssS>
0

>  <NddssS>
0

>  <NsCl>
0

>  <NsBr>
0

>  <NsI>
0

>  <fragCpx>
205.05

>  <fMF>
0.5

>  <nHBAcc>
4

>  <nHBDon>
0

>  <Kier1>
21.24

>  <Kier2>
10.35

>  <Lipinski>
1

>  <GhoseFilter>
1

>  <FilterItLogS>
-5.87

>  <VMcGowan>
290.36

>  <LabuteASA>
164.15

>  <PEOE_VSA1>
4.9

>  <PEOE_VSA2>
9.69

>  <PEOE_VSA3>
9.37

>  <PEOE_VSA4>
0

>  <PEOE_VSA5>
0

>  <PEOE_VSA6>
24.27

>  <PEOE_VSA7>
48.68

>  <PEOE_VSA8>
49.75

>  <PEOE_VSA9>
0

>  <PEOE_VSA10>
11.64

>  <PEOE_VSA11>
5.78

>  <PEOE_VSA12>
0

>  <PEOE_VSA13>
0

>  <SMR_VSA1>
9.18

>  <SMR_VSA2>
0

>  <SMR_VSA3>
9.88

>  <SMR_VSA4>
0

>  <SMR_VSA5>
12.84

>  <SMR_VSA6>
37.62

>  <SMR_VSA7>
72.17

>  <SMR_VSA8>
0

>  <SMR_VSA9>
0

>  <SlogP_VSA1>
4.9

>  <SlogP_VSA2>
48.39

>  <SlogP_VSA3>
0

>  <SlogP_VSA4>
5.82

>  <SlogP_VSA5>
23.2

>  <SlogP_VSA6>
60.79

>  <SlogP_VSA7>
0

>  <SlogP_VSA8>
10.77

>  <SlogP_VSA9>
0

>  <SlogP_VSA10>
10.21

>  <SlogP_VSA11>
0

>  <EState_VSA1>
0

>  <EState_VSA2>
11.6

>  <EState_VSA3>
11.98

>  <EState_VSA4>
50.35

>  <EState_VSA5>
17.52

>  <EState_VSA6>
12.13

>  <EState_VSA7>
12.26

>  <EState_VSA8>
39.05

>  <EState_VSA9>
0

>  <EState_VSA10>
9.18

>  <VSA_EState1>
12.95

>  <VSA_EState2>
21.53

>  <VSA_EState3>
2.38

>  <VSA_EState4>
0.59

>  <VSA_EState5>
0.8

>  <VSA_EState6>
16.25

>  <VSA_EState7>
3.26

>  <VSA_EState8>
4.74

>  <VSA_EState9>
0

>  <apol>
59.07

>  <bpol>
30.62

>  <nRing>
4

>  <nHRing>
2

>  <naRing>
3

>  <naHRing>
1

>  <nARing 2>
1

>  <nAHRing 2>
1

>  <nFRing>
1

>  <nFHRing>
1

>  <nFaRing>
1

>  <nFaHRing>
1

>  <nFARing 2>
0

>  <nFAHRing 2>
0

>  <nRot>
6

>  <SLogP>
4.16

>  <SMR>
110.36

>  <TopoPSA(NO)>
36.44

>  <TopoPSA>
36.44

>  <JGI1>
0.16

>  <JGI2>
0.08

>  <JGI3>
0.03

>  <JGI4>
0.03

>  <JGI5>
0.03

>  <Diameter>
18

>  <Radius>
9

>  <TMWC10>
134.49

>  <TSRW10>
63.21

>  <MW>
377.19

>  <AMW>
7.25

>  <WPath>
2543

>  <WPol>
42

>  <Zagreb1>
146

>  <Zagreb2>
169

>  <mZagreb2>
6.17

>  <yes>


>  <nAR-cont>
0.816016

>  <nHA-cont>
0.82432561

>  <MWHBN>
0.205958588

>  <MWHBN-cont>
0.999939788

>  <TPSA-cont>
0.745626172

>  <pka_cont>
0.97

>  <yes.1>


>  <BBB_SCORE>
5.116503637

>  <MMFF94 Energy>
106.39

$$$$
Compound 1781
Actelion Java MolfileCreator 2.0

  0  0  0  0  0  0              0 V3000
M  V30 BEGIN CTAB
M  V30 COUNTS 46 48 0 0 0
M  V30 BEGIN ATOM
M  V30 1 F -1.9935 5.0296 -7.4315 0
M  V30 2 C -1.9608 4.2358 -6.3538 0
M  V30 3 C -2.0515 2.8593 -6.5128 0
M  V30 4 C -1.8376 4.8024 -5.09 0
M  V30 5 C -2.0171 2.0339 -5.3868 0
M  V30 6 C -1.8027 3.9796 -3.9598 0
M  V30 7 C -1.8904 2.5871 -4.1017 0
M  V30 8 C -1.858 1.658 -2.9291 0
M  V30 9 O -2.0329 0.4569 -3.1185 0
M  V30 10 C -1.6163 2.2403 -1.5452 0
M  V30 11 C -1.4944 1.1867 -0.4395 0
M  V30 12 C -0.1675 0.4154 -0.5093 0
M  V30 13 N -0.0399 -0.5841 0.5648 0
M  V30 14 C 0.2238 0.0344 1.8824 0
M  V30 15 C 1.0744 -1.514 0.2575 0
M  V30 16 C 0.4203 -0.9989 3.0181 0
M  V30 17 C 1.2951 -2.5914 1.342 0
M  V30 18 N 1.456 -1.9802 2.6715 0
M  V30 19 C 1.9493 -2.8187 3.6671 0
M  V30 20 N 2.1382 -4.1278 3.3822 0
M  V30 21 C 2.2856 -2.3272 4.9299 0
M  V30 22 C 2.6232 -4.9451 4.3438 0
M  V30 23 C 2.7876 -3.1842 5.9109 0
M  V30 24 C 2.9567 -4.5258 5.6155 0
M  V30 25 H -2.1492 2.4357 -7.5075 0
M  V30 26 H -1.7715 5.8821 -4.9932 0
M  V30 27 H -2.0901 0.955 -5.516 0
M  V30 28 H -1.7122 4.4513 -2.9859 0
M  V30 29 H -0.7074 2.8515 -1.5635 0
M  V30 30 H -2.4716 2.8837 -1.3071 0
M  V30 31 H -1.5718 1.7116 0.5189 0
M  V30 32 H -2.3362 0.4851 -0.4897 0
M  V30 33 H -0.127 -0.0986 -1.4768 0
M  V30 34 H 0.6785 1.1147 -0.4911 0
M  V30 35 H 1.1184 0.6695 1.8275 0
M  V30 36 H -0.6138 0.6767 2.1733 0
M  V30 37 H 0.8706 -2.0291 -0.689 0
M  V30 38 H 2.0072 -0.9483 0.1271 0
M  V30 39 H -0.5268 -1.5207 3.207 0
M  V30 40 H 0.6718 -0.4366 3.923 0
M  V30 41 H 2.1912 -3.1583 1.0596 0
M  V30 42 H 0.4414 -3.2817 1.3503 0
M  V30 43 H 2.192 -1.2731 5.1611 0
M  V30 44 H 2.74 -5.983 4.0472 0
M  V30 45 H 3.0503 -2.7978 6.891 0
M  V30 46 H 3.3447 -5.2221 6.3489 0
M  V30 END ATOM
M  V30 BEGIN BOND
M  V30 1 1 1 2
M  V30 2 2 2 3
M  V30 3 1 2 4
M  V30 4 1 3 5
M  V30 5 2 4 6
M  V30 6 2 5 7
M  V30 7 1 7 8
M  V30 8 2 8 9
M  V30 9 1 8 10
M  V30 10 1 10 11
M  V30 11 1 11 12
M  V30 12 1 12 13
M  V30 13 1 13 14
M  V30 14 1 13 15
M  V30 15 1 14 16
M  V30 16 1 15 17
M  V30 17 1 16 18
M  V30 18 1 18 19
M  V30 19 2 19 20
M  V30 20 1 19 21
M  V30 21 1 20 22
M  V30 22 2 21 23
M  V30 23 2 22 24
M  V30 24 1 6 7
M  V30 25 1 17 18
M  V30 26 1 23 24
M  V30 27 1 3 25
M  V30 28 1 4 26
M  V30 29 1 5 27
M  V30 30 1 6 28
M  V30 31 1 10 29
M  V30 32 1 10 30
M  V30 33 1 11 31
M  V30 34 1 11 32
M  V30 35 1 12 33
M  V30 36 1 12 34
M  V30 37 1 14 35
M  V30 38 1 14 36
M  V30 39 1 15 37
M  V30 40 1 15 38
M  V30 41 1 16 39
M  V30 42 1 16 40
M  V30 43 1 17 41
M  V30 44 1 17 42
M  V30 45 1 21 43
M  V30 46 1 22 44
M  V30 47 1 23 45
M  V30 48 1 24 46
M  V30 END BOND
M  V30 END CTAB
M  END
>  <Column 1>
2180

>  <level_0>
2361

>  <index>
2361

>  <Unnamed: 0>
2361

>  <NO.>
2373

>  <Name>
azaperone

>  <IUPAC_name>
1-(4-fluorophenyl)-4-(4-pyridin-2-ylpiperazin-1-yl)butan-1-one

>  <SMILES>
O=C(CCCN1CCN(c2ccccn2)CC1)c1ccc(F)cc1

>  <CID>
15443

>  <logBB>


>  <BBB+/BBB->
BBB+

>  <Inchi>
InChI=1S/C19H22FN3O/c20-17-8-6-16(7-9-17)18(24)4-3-11-22-12-14-23(15-13-22)19-5-1-2-10-21-19/h1-2-5-10H-3-4-11-15H2

>  <threshold>
-1

>  <reference>
R1|R13|R19|R6|R24|R27|R27|R27|R30|R30|

>  <group>
B

>  <Class>
1

>  <ABC>
18.52

>  <ABCGG>
13.53

>  <nAcid>
0

>  <nBase>
1

>  <nAromAtom>
12

>  <nAromBond>
12

>  <nAtom>
46

>  <nHeavyAtom>
24

>  <nSpiro>
0

>  <nBridgehead>
0

>  <nHetero>
5

>  <nN>
3

>  <nO>
1

>  <nF>
1

>  <BalabanJ>
1.28

>  <BertzCT>
652.07

>  <nBonds>
48

>  <nBondsO>
26

>  <nBondsS>
35

>  <nBondsD>
1

>  <nBondsT>
0

>  <nBondsA>
12

>  <nBondsM>
13

>  <nBondsKS>
41

>  <nBondsKD>
7

>  <RNCG>
0.21

>  <RPCG>
0.1

>  <FCSP3>
0.37

>  <SZ>
29

>  <Sm>
27.26

>  <Sv>
28.6

>  <Sse>
46.04

>  <Sp>
30.57

>  <Si>
52.2

>  <MZ>
0.63

>  <Mm>
0.59

>  <Mv>
0.62

>  <Mse>
1

>  <Mp>
0.66

>  <Mi>
1.13

>  <NsCH3>
0

>  <NdCH2>
0

>  <NssCH2>
7

>  <NtCH>
0

>  <NdsCH>
0

>  <NaaCH>
8

>  <NsssCH>
0

>  <NddC>
0

>  <NtsC>
0

>  <NdssC>
1

>  <NaasC>
3

>  <NaaaC>
0

>  <NssssC>
0

>  <NsNH3>
0

>  <NsNH2>
0

>  <NssNH2>
0

>  <NdNH>
0

>  <NssNH>
0

>  <NaaNH>
0

>  <NtN>
0

>  <NsssNH>
0

>  <NdsN>
0

>  <NaaN>
1

>  <NsssN>
2

>  <NddsN>
0

>  <NaasN>
0

>  <NssssN>
0

>  <NsOH>
0

>  <NdO>
1

>  <NssO>
0

>  <NaaO>
0

>  <NsF>
1

>  <NsSiH3>
0

>  <NssSiH2>
0

>  <NsssSiH>
0

>  <NssssSi>
0

>  <NsPH2>
0

>  <NssPH>
0

>  <NsssP>
0

>  <NdsssP>
0

>  <NsssssP>
0

>  <NsSH>
0

>  <NdS>
0

>  <NssS>
0

>  <NaaS>
0

>  <NdssS>
0

>  <NddssS>
0

>  <NsCl>
0

>  <NsBr>
0

>  <NsI>
0

>  <fragCpx>
124.05

>  <fMF>
0.48

>  <nHBAcc>
4

>  <nHBDon>
0

>  <Kier1>
18.78

>  <Kier2>
9.63

>  <Lipinski>
1

>  <GhoseFilter>
1

>  <FilterItLogS>
-4.53

>  <VMcGowan>
253.46

>  <LabuteASA>
141.47

>  <PEOE_VSA1>
4.9

>  <PEOE_VSA2>
9.69

>  <PEOE_VSA3>
9.37

>  <PEOE_VSA4>
0

>  <PEOE_VSA5>
0

>  <PEOE_VSA6>
6.07

>  <PEOE_VSA7>
49.36

>  <PEOE_VSA8>
44.36

>  <PEOE_VSA9>
0

>  <PEOE_VSA10>
11.64

>  <PEOE_VSA11>
5.78

>  <PEOE_VSA12>
0

>  <PEOE_VSA13>
0

>  <SMR_VSA1>
9.18

>  <SMR_VSA2>
0

>  <SMR_VSA3>
9.88

>  <SMR_VSA4>
0

>  <SMR_VSA5>
12.84

>  <SMR_VSA6>
37.62

>  <SMR_VSA7>
60.04

>  <SMR_VSA8>
0

>  <SMR_VSA9>
0

>  <SlogP_VSA1>
4.9

>  <SlogP_VSA2>
48.39

>  <SlogP_VSA3>
0

>  <SlogP_VSA4>
5.82

>  <SlogP_VSA5>
23.2

>  <SlogP_VSA6>
48.66

>  <SlogP_VSA7>
0

>  <SlogP_VSA8>
0

>  <SlogP_VSA9>
0

>  <SlogP_VSA10>
10.21

>  <SlogP_VSA11>
0

>  <EState_VSA1>
0

>  <EState_VSA2>
11.6

>  <EState_VSA3>
11.98

>  <EState_VSA4>
44.96

>  <EState_VSA5>
12.13

>  <EState_VSA6>
12.13

>  <EState_VSA7>
24.4

>  <EState_VSA8>
14.78

>  <EState_VSA9>
0

>  <EState_VSA10>
9.18

>  <VSA_EState1>
12.87

>  <VSA_EState2>
21.14

>  <VSA_EState3>
0

>  <VSA_EState4>
0.59

>  <VSA_EState5>
0.81

>  <VSA_EState6>
11.77

>  <VSA_EState7>
3.16

>  <VSA_EState8>
4.82

>  <VSA_EState9>
0

>  <apol>
51.06

>  <bpol>
28.61

>  <nRing>
3

>  <nHRing>
2

>  <naRing>
2

>  <naHRing>
1

>  <nARing 2>
1

>  <nAHRing 2>
1

>  <nFRing>
0

>  <nFHRing>
0

>  <nFaRing>
0

>  <nFaHRing>
0

>  <nFARing 2>
0

>  <nFAHRing 2>
0

>  <nRot>
6

>  <SLogP>
3.01

>  <SMR>
92.85

>  <TopoPSA(NO)>
36.44

>  <TopoPSA>
36.44

>  <JGI1>
0.15

>  <JGI2>
0.08

>  <JGI3>
0.03

>  <JGI4>
0.02

>  <JGI5>
0.03

>  <Diameter>
16

>  <Radius>
8

>  <TMWC10>
122.95

>  <TSRW10>
58.03

>  <MW>
327.17

>  <AMW>
7.11

>  <WPath>
1669

>  <WPol>
33

>  <Zagreb1>
120

>  <Zagreb2>
136

>  <mZagreb2>
5.39

>  <yes>


>  <nAR-cont>
0.816016

>  <nHA-cont>
0.94700071

>  <MWHBN>
0.221143029

>  <MWHBN-cont>
0.994214816

>  <TPSA-cont>
0.745626172

>  <pka_cont>
0.97

>  <yes.1>


>  <BBB_SCORE>
5.230591278

>  <MMFF94 Energy>
89.616

$$$$
Compound 1782
Actelion Java MolfileCreator 2.0

  0  0  0  0  0  0              0 V3000
M  V30 BEGIN CTAB
M  V30 COUNTS 44 46 0 0 0
M  V30 BEGIN ATOM
M  V30 1 F -3.5964 6.2401 -5.0378 0
M  V30 2 C -3.1372 5.1553 -4.4016 0
M  V30 3 C -3.5607 3.8948 -4.8018 0
M  V30 4 C -2.2416 5.3072 -3.349 0
M  V30 5 C -3.0797 2.7651 -4.1364 0
M  V30 6 C -1.7576 4.1786 -2.6799 0
M  V30 7 C -2.1755 2.8979 -3.0697 0
M  V30 8 C -1.6904 1.6555 -2.3913 0
M  V30 9 O -2.0531 0.5622 -2.82 0
M  V30 10 C -0.7577 1.7933 -1.1992 0
M  V30 11 C -0.4238 0.4395 -0.5674 0
M  V30 12 C 0.5474 0.6066 0.6075 0
M  V30 13 N 0.7687 -0.6396 1.3554 0
M  V30 14 C 1.4835 -1.6576 0.556 0
M  V30 15 C 1.554 -0.3671 2.5787 0
M  V30 16 C 1.8533 -2.9348 1.3491 0 CFG=1
M  V30 17 C 1.7838 -1.6437 3.4136 0
M  V30 18 N 2.4977 -2.6971 2.663 0
M  V30 19 C 0.6597 -3.835 1.6677 0
M  V30 20 C 2.4015 -3.9914 3.3523 0
M  V30 21 C 1.1037 -4.6406 2.8826 0
M  V30 22 H -4.26 3.7965 -5.6263 0
M  V30 23 H -1.9257 6.3042 -3.0565 0
M  V30 24 H -3.4143 1.7785 -4.4537 0
M  V30 25 H -1.0573 4.3286 -1.8637 0
M  V30 26 H 0.1675 2.2723 -1.5386 0
M  V30 27 H -1.2416 2.4279 -0.4482 0
M  V30 28 H -1.3485 -0.041 -0.2232 0
M  V30 29 H 0.0108 -0.2127 -1.3333 0
M  V30 30 H 1.498 1.0214 0.2477 0
M  V30 31 H 0.1154 1.3503 1.29 0
M  V30 32 H 0.8702 -1.9636 -0.2986 0
M  V30 33 H 2.4099 -1.2244 0.1548 0
M  V30 34 H 2.5228 0.0846 2.3261 0
M  V30 35 H 1.0135 0.3512 3.2074 0
M  V30 36 H 2.56 -3.5079 0.7327 0
M  V30 37 H 0.8114 -1.9963 3.7827 0
M  V30 38 H 2.379 -1.3791 4.296 0
M  V30 39 H -0.2373 -3.2555 1.9155 0
M  V30 40 H 0.4088 -4.4868 0.8245 0
M  V30 41 H 3.2505 -4.6135 3.043 0
M  V30 42 H 2.4566 -3.9071 4.4435 0
M  V30 43 H 1.2661 -5.692 2.6227 0
M  V30 44 H 0.3349 -4.601 3.6621 0
M  V30 END ATOM
M  V30 BEGIN BOND
M  V30 1 1 1 2
M  V30 2 2 2 3
M  V30 3 1 2 4
M  V30 4 1 3 5
M  V30 5 2 4 6
M  V30 6 2 5 7
M  V30 7 1 7 8
M  V30 8 2 8 9
M  V30 9 1 8 10
M  V30 10 1 10 11
M  V30 11 1 11 12
M  V30 12 1 12 13
M  V30 13 1 13 14
M  V30 14 1 13 15
M  V30 15 1 14 16
M  V30 16 1 15 17
M  V30 17 1 16 18
M  V30 18 1 16 19
M  V30 19 1 18 20
M  V30 20 1 19 21
M  V30 21 1 6 7
M  V30 22 1 17 18
M  V30 23 1 20 21
M  V30 24 1 3 22
M  V30 25 1 4 23
M  V30 26 1 5 24
M  V30 27 1 6 25
M  V30 28 1 10 26
M  V30 29 1 10 27
M  V30 30 1 11 28
M  V30 31 1 11 29
M  V30 32 1 12 30
M  V30 33 1 12 31
M  V30 34 1 14 32
M  V30 35 1 14 33
M  V30 36 1 15 34
M  V30 37 1 15 35
M  V30 38 1 16 36
M  V30 39 1 17 37
M  V30 40 1 17 38
M  V30 41 1 19 39
M  V30 42 1 19 40
M  V30 43 1 20 41
M  V30 44 1 20 42
M  V30 45 1 21 43
M  V30 46 1 21 44
M  V30 END BOND
M  V30 BEGIN COLLECTION
M  V30 MDLV30/STERAC1 ATOMS=(1 16)
M  V30 END COLLECTION
M  V30 END CTAB
M  END
>  <Column 1>
2181

>  <level_0>
2362

>  <index>
2362

>  <Unnamed: 0>
2362

>  <NO.>
2374

>  <Name>
azabuperone

>  <IUPAC_name>
4-(3-4-6-7-8-8a-hexahydro-1h-pyrrolo[1-2-a]pyrazin-2-yl)-1-(4-fluorophenyl)butan-1-one

>  <SMILES>
O=C(CCCN1CCN2CCCC2C1)c1ccc(F)cc1

>  <CID>
18484

>  <logBB>


>  <BBB+/BBB->
BBB+

>  <Inchi>
InChI=1S/C17H23FN2O/c18-15-7-5-14(6-8-15)17(21)4-2-9-19-11-12-20-10-1-3-16(20)13-19/h5-8-16H-1-4-9-13H2

>  <threshold>
-1

>  <reference>
R1|R19|R6|R27|R27|R30|

>  <group>
B

>  <Class>
1

>  <ABC>
16.4

>  <ABCGG>
12.96

>  <nAcid>
0

>  <nBase>
2

>  <nAromAtom>
6

>  <nAromBond>
6

>  <nAtom>
44

>  <nHeavyAtom>
21

>  <nSpiro>
0

>  <nBridgehead>
0

>  <nHetero>
4

>  <nN>
2

>  <nO>
1

>  <nF>
1

>  <BalabanJ>
1.32

>  <BertzCT>
488.07

>  <nBonds>
46

>  <nBondsO>
23

>  <nBondsS>
39

>  <nBondsD>
1

>  <nBondsT>
0

>  <nBondsA>
6

>  <nBondsM>
7

>  <nBondsKS>
42

>  <nBondsKD>
4

>  <RNCG>
0.22

>  <RPCG>
0.12

>  <FCSP3>
0.59

>  <SZ>
26

>  <Sm>
24.18

>  <Sv>
26.11

>  <Sse>
43.82

>  <Sp>
28.31

>  <Si>
50.11

>  <MZ>
0.59

>  <Mm>
0.55

>  <Mv>
0.59

>  <Mse>
1

>  <Mp>
0.64

>  <Mi>
1.14

>  <NsCH3>
0

>  <NdCH2>
0

>  <NssCH2>
9

>  <NtCH>
0

>  <NdsCH>
0

>  <NaaCH>
4

>  <NsssCH>
1

>  <NddC>
0

>  <NtsC>
0

>  <NdssC>
1

>  <NaasC>
2

>  <NaaaC>
0

>  <NssssC>
0

>  <NsNH3>
0

>  <NsNH2>
0

>  <NssNH2>
0

>  <NdNH>
0

>  <NssNH>
0

>  <NaaNH>
0

>  <NtN>
0

>  <NsssNH>
0

>  <NdsN>
0

>  <NaaN>
0

>  <NsssN>
2

>  <NddsN>
0

>  <NaasN>
0

>  <NssssN>
0

>  <NsOH>
0

>  <NdO>
1

>  <NssO>
0

>  <NaaO>
0

>  <NsF>
1

>  <NsSiH3>
0

>  <NssSiH2>
0

>  <NsssSiH>
0

>  <NssssSi>
0

>  <NsPH2>
0

>  <NssPH>
0

>  <NsssP>
0

>  <NdsssP>
0

>  <NsssssP>
0

>  <NsSH>
0

>  <NdS>
0

>  <NssS>
0

>  <NaaS>
0

>  <NdssS>
0

>  <NddssS>
0

>  <NsCl>
0

>  <NsBr>
0

>  <NsI>
0

>  <fragCpx>
109.04

>  <fMF>
0.43

>  <nHBAcc>
3

>  <nHBDon>
0

>  <Kier1>
15.88

>  <Kier2>
7.51

>  <Lipinski>
1

>  <GhoseFilter>
1

>  <FilterItLogS>
-3.61

>  <VMcGowan>
228.2

>  <LabuteASA>
125.28

>  <PEOE_VSA1>
4.9

>  <PEOE_VSA2>
9.69

>  <PEOE_VSA3>
4.39

>  <PEOE_VSA4>
0

>  <PEOE_VSA5>
0

>  <PEOE_VSA6>
0

>  <PEOE_VSA7>
56.62

>  <PEOE_VSA8>
37.66

>  <PEOE_VSA9>
0

>  <PEOE_VSA10>
5.82

>  <PEOE_VSA11>
5.78

>  <PEOE_VSA12>
0

>  <PEOE_VSA13>
0

>  <SMR_VSA1>
9.18

>  <SMR_VSA2>
0

>  <SMR_VSA3>
9.8

>  <SMR_VSA4>
0

>  <SMR_VSA5>
31.73

>  <SMR_VSA6>
32.72

>  <SMR_VSA7>
35.65

>  <SMR_VSA8>
0

>  <SMR_VSA9>
0

>  <SlogP_VSA1>
0

>  <SlogP_VSA2>
54.35

>  <SlogP_VSA3>
0

>  <SlogP_VSA4>
5.82

>  <SlogP_VSA5>
36.04

>  <SlogP_VSA6>
24.27

>  <SlogP_VSA7>
0

>  <SlogP_VSA8>
0

>  <SlogP_VSA9>
0

>  <SlogP_VSA10>
4.39

>  <SlogP_VSA11>
0

>  <EState_VSA1>
0

>  <EState_VSA2>
11.6

>  <EState_VSA3>
11.98

>  <EState_VSA4>
32.1

>  <EState_VSA5>
38.06

>  <EState_VSA6>
12.13

>  <EState_VSA7>
0

>  <EState_VSA8>
9.8

>  <EState_VSA9>
0

>  <EState_VSA10>
9.18

>  <VSA_EState1>
12.83

>  <VSA_EState2>
17.12

>  <VSA_EState3>
0

>  <VSA_EState4>
0.62

>  <VSA_EState5>
-0.17

>  <VSA_EState6>
6.61

>  <VSA_EState7>
4.1

>  <VSA_EState8>
5.72

>  <VSA_EState9>
0

>  <apol>
47.29

>  <bpol>
28.47

>  <nRing>
3

>  <nHRing>
2

>  <naRing>
1

>  <naHRing>
0

>  <nARing 2>
2

>  <nAHRing 2>
2

>  <nFRing>
1

>  <nFHRing>
1

>  <nFaRing>
0

>  <nFaHRing>
0

>  <nFARing 2>
1

>  <nFAHRing 2>
1

>  <nRot>
5

>  <SLogP>
2.57

>  <SMR>
81

>  <TopoPSA(NO)>
23.55

>  <TopoPSA>
23.55

>  <JGI1>
0.17

>  <JGI2>
0.08

>  <JGI3>
0.04

>  <JGI4>
0.03

>  <JGI5>
0.03

>  <Diameter>
13

>  <Radius>
7

>  <TMWC10>
116.51

>  <TSRW10>
68.14

>  <MW>
290.18

>  <AMW>
6.59

>  <WPath>
1097

>  <WPol>
28

>  <Zagreb1>
108

>  <Zagreb2>
124

>  <mZagreb2>
4.64

>  <yes>


>  <nAR-cont>
1

>  <nHA-cont>
0.994529749

>  <MWHBN>
0.176111419

>  <MWHBN-cont>
0.982604691

>  <TPSA-cont>
0.835606376

>  <pka_cont>
0.97

>  <yes.1>


>  <BBB_SCORE>
5.624649538

>  <MMFF94 Energy>
106.31

$$$$
Compound 1783
Actelion Java MolfileCreator 2.0

  0  0  0  0  0  0              0 V3000
M  V30 BEGIN CTAB
M  V30 COUNTS 55 59 0 0 0
M  V30 BEGIN ATOM
M  V30 1 F 4.5874 0.4017 -5.9586 0
M  V30 2 C 4.5937 0.1771 -4.6386 0
M  V30 3 C 5.0303 -1.0493 -4.1541 0
M  V30 4 C 4.1666 1.1775 -3.7721 0
M  V30 5 C 5.036 -1.2812 -2.7772 0
M  V30 6 C 4.1709 0.9496 -2.3927 0
M  V30 7 C 4.5994 -0.286 -1.8879 0
M  V30 8 C 4.6271 -0.5837 -0.4249 0
M  V30 9 O 5.312 -1.5228 -0.0218 0
M  V30 10 C 3.8356 0.3024 0.5211 0
M  V30 11 C 3.4348 -0.4226 1.8092 0
M  V30 12 C 2.4972 -1.6195 1.5811 0
M  V30 13 N 1.3002 -1.2876 0.79 0
M  V30 14 C 0.3466 -0.4511 1.5521 0
M  V30 15 C 0.609 -2.5275 0.3759 0
M  V30 16 C -0.9556 -0.1449 0.7587 0 CFG=1
M  V30 17 C -0.6603 -2.235 -0.4505 0
M  V30 18 N -1.6262 -1.3942 0.2777 0
M  V30 19 C -1.8964 0.7141 1.6605 0
M  V30 20 C -2.7905 -1.0964 -0.5823 0
M  V30 21 C -3.2583 0.8005 1.0645 0
M  V30 22 C -3.6432 -0.0589 0.0586 0
M  V30 23 C -4.359 1.6477 1.3573 0
M  V30 24 N -4.9373 0.2258 -0.2735 0
M  V30 25 C -5.3989 1.2695 0.5022 0
M  V30 26 C -4.5801 2.6993 2.2676 0
M  V30 27 C -6.6498 1.8986 0.5134 0
M  V30 28 C -5.8256 3.3377 2.2899 0
M  V30 29 C -6.843 2.9418 1.4244 0
M  V30 30 H 5.3645 -1.8154 -4.8466 0
M  V30 31 H 3.8367 2.13 -4.176 0
M  V30 32 H 5.3807 -2.2419 -2.3982 0
M  V30 33 H 3.8483 1.7521 -1.7359 0
M  V30 34 H 4.4684 1.1609 0.7736 0
M  V30 35 H 2.9355 0.6798 0.0267 0
M  V30 36 H 4.334 -0.7813 2.3257 0
M  V30 37 H 2.9629 0.2974 2.4879 0
M  V30 38 H 3.0681 -2.3974 1.0593 0
M  V30 39 H 2.2174 -2.0485 2.5522 0
M  V30 40 H 0.8167 0.5074 1.7998 0
M  V30 41 H 0.0897 -0.9431 2.5005 0
M  V30 42 H 1.2826 -3.1304 -0.2451 0
M  V30 43 H 0.3412 -3.1333 1.2523 0
M  V30 44 H -0.6793 0.4573 -0.1205 0
M  V30 45 H -1.1316 -3.1918 -0.7056 0
M  V30 46 H -0.3642 -1.7554 -1.3935 0
M  V30 47 H -1.983 0.2622 2.6567 0
M  V30 48 H -1.4724 1.7174 1.7842 0
M  V30 49 H -2.4711 -0.7254 -1.5647 0
M  V30 50 H -3.3728 -2.0121 -0.7367 0
M  V30 51 H -5.4839 -0.2479 -0.9785 0
M  V30 52 H -3.7938 3.0129 2.947 0
M  V30 53 H -7.4459 1.5913 -0.1563 0
M  V30 54 H -5.999 4.1496 2.9917 0
M  V30 55 H -7.8041 3.4499 1.4585 0
M  V30 END ATOM
M  V30 BEGIN BOND
M  V30 1 1 1 2
M  V30 2 2 2 3
M  V30 3 1 2 4
M  V30 4 1 3 5
M  V30 5 2 4 6
M  V30 6 2 5 7
M  V30 7 1 7 8
M  V30 8 2 8 9
M  V30 9 1 8 10
M  V30 10 1 10 11
M  V30 11 1 11 12
M  V30 12 1 12 13
M  V30 13 1 13 14
M  V30 14 1 13 15
M  V30 15 1 14 16
M  V30 16 1 15 17
M  V30 17 1 16 18
M  V30 18 1 16 19
M  V30 19 1 18 20
M  V30 20 1 19 21
M  V30 21 1 20 22
M  V30 22 1 21 23
M  V30 23 1 22 24
M  V30 24 2 23 25
M  V30 25 1 23 26
M  V30 26 1 25 27
M  V30 27 2 26 28
M  V30 28 2 27 29
M  V30 29 1 6 7
M  V30 30 1 17 18
M  V30 31 2 21 22
M  V30 32 1 24 25
M  V30 33 1 28 29
M  V30 34 1 3 30
M  V30 35 1 4 31
M  V30 36 1 5 32
M  V30 37 1 6 33
M  V30 38 1 10 34
M  V30 39 1 10 35
M  V30 40 1 11 36
M  V30 41 1 11 37
M  V30 42 1 12 38
M  V30 43 1 12 39
M  V30 44 1 14 40
M  V30 45 1 14 41
M  V30 46 1 15 42
M  V30 47 1 15 43
M  V30 48 1 16 44
M  V30 49 1 17 45
M  V30 50 1 17 46
M  V30 51 1 19 47
M  V30 52 1 19 48
M  V30 53 1 20 49
M  V30 54 1 20 50
M  V30 55 1 24 51
M  V30 56 1 26 52
M  V30 57 1 27 53
M  V30 58 1 28 54
M  V30 59 1 29 55
M  V30 END BOND
M  V30 BEGIN COLLECTION
M  V30 MDLV30/STERAC1 ATOMS=(1 16)
M  V30 END COLLECTION
M  V30 END CTAB
M  END
>  <Column 1>
2182

>  <level_0>
2363

>  <index>
2363

>  <Unnamed: 0>
2363

>  <NO.>
2375

>  <Name>
biriperone

>  <IUPAC_name>
1-(4-fluorophenyl)-4-(3-6-17-triazatetracyclo[8.7.0.03-8.011-16]heptadeca-1(10)-11-13-15-tetraen-6-yl)butan-1-one

>  <SMILES>
O=C(CCCN1CCN2Cc3[nH]c4ccccc4c3CC2C1)c1ccc(F)cc1

>  <CID>
68663

>  <logBB>


>  <BBB+/BBB->
BBB+

>  <Inchi>
InChI=1S/C24H26FN3O/c25-18-9-7-17(8-10-18)24(29)6-3-11-27-12-13-28-16-23-21(14-19(28)15-27)20-4-1-2-5-22(20)26-23/h1-2-4-5-7-10-19-26H-3-6-11-16H2

>  <threshold>
-1

>  <reference>
R1|R19|R6|R27|R27|R30|

>  <group>
B

>  <Class>
1

>  <ABC>
23.35

>  <ABCGG>
16.18

>  <nAcid>
0

>  <nBase>
2

>  <nAromAtom>
15

>  <nAromBond>
16

>  <nAtom>
55

>  <nHeavyAtom>
29

>  <nSpiro>
0

>  <nBridgehead>
0

>  <nHetero>
5

>  <nN>
3

>  <nO>
1

>  <nF>
1

>  <BalabanJ>
1.07

>  <BertzCT>
1026.29

>  <nBonds>
59

>  <nBondsO>
33

>  <nBondsS>
42

>  <nBondsD>
1

>  <nBondsT>
0

>  <nBondsA>
16

>  <nBondsM>
17

>  <nBondsKS>
51

>  <nBondsKD>
8

>  <RNCG>
0.19

>  <RPCG>
0.09

>  <FCSP3>
0.38

>  <SZ>
34.67

>  <Sm>
32.59

>  <Sv>
34.68

>  <Sse>
54.82

>  <Sp>
37.17

>  <Si>
62.03

>  <MZ>
0.63

>  <Mm>
0.59

>  <Mv>
0.63

>  <Mse>
1

>  <Mp>
0.68

>  <Mi>
1.13

>  <NsCH3>
0

>  <NdCH2>
0

>  <NssCH2>
8

>  <NtCH>
0

>  <NdsCH>
0

>  <NaaCH>
8

>  <NsssCH>
1

>  <NddC>
0

>  <NtsC>
0

>  <NdssC>
1

>  <NaasC>
4

>  <NaaaC>
2

>  <NssssC>
0

>  <NsNH3>
0

>  <NsNH2>
0

>  <NssNH2>
0

>  <NdNH>
0

>  <NssNH>
0

>  <NaaNH>
1

>  <NtN>
0

>  <NsssNH>
0

>  <NdsN>
0

>  <NaaN>
0

>  <NsssN>
2

>  <NddsN>
0

>  <NaasN>
0

>  <NssssN>
0

>  <NsOH>
0

>  <NdO>
1

>  <NssO>
0

>  <NaaO>
0

>  <NsF>
1

>  <NsSiH3>
0

>  <NssSiH2>
0

>  <NsssSiH>
0

>  <NssssSi>
0

>  <NsPH2>
0

>  <NssPH>
0

>  <NsssP>
0

>  <NdsssP>
0

>  <NsssssP>
0

>  <NsSH>
0

>  <NdS>
0

>  <NssS>
0

>  <NaaS>
0

>  <NdssS>
0

>  <NddssS>
0

>  <NsCl>
0

>  <NsBr>
0

>  <NsI>
0

>  <fragCpx>
277.05

>  <fMF>
0.49

>  <nHBAcc>
3

>  <nHBDon>
1

>  <Kier1>
20.88

>  <Kier2>
9.24

>  <Lipinski>
1

>  <GhoseFilter>
1

>  <FilterItLogS>
-6.06

>  <VMcGowan>
297.89

>  <LabuteASA>
169.86

>  <PEOE_VSA1>
9.88

>  <PEOE_VSA2>
9.69

>  <PEOE_VSA3>
4.39

>  <PEOE_VSA4>
0

>  <PEOE_VSA5>
0

>  <PEOE_VSA6>
18.2

>  <PEOE_VSA7>
55.28

>  <PEOE_VSA8>
60.8

>  <PEOE_VSA9>
0

>  <PEOE_VSA10>
5.82

>  <PEOE_VSA11>
5.78

>  <PEOE_VSA12>
0

>  <PEOE_VSA13>
0

>  <SMR_VSA1>
9.18

>  <SMR_VSA2>
0

>  <SMR_VSA3>
14.78

>  <SMR_VSA4>
0

>  <SMR_VSA5>
31.85

>  <SMR_VSA6>
26.18

>  <SMR_VSA7>
71.17

>  <SMR_VSA8>
0

>  <SMR_VSA9>
0

>  <SlogP_VSA1>
0

>  <SlogP_VSA2>
52.79

>  <SlogP_VSA3>
12.97

>  <SlogP_VSA4>
5.82

>  <SlogP_VSA5>
34.46

>  <SlogP_VSA6>
48.53

>  <SlogP_VSA7>
0

>  <SlogP_VSA8>
10.9

>  <SlogP_VSA9>
0

>  <SlogP_VSA10>
4.39

>  <SlogP_VSA11>
0

>  <EState_VSA1>
0

>  <EState_VSA2>
11.6

>  <EState_VSA3>
18.03

>  <EState_VSA4>
45.57

>  <EState_VSA5>
34.29

>  <EState_VSA6>
12.13

>  <EState_VSA7>
0

>  <EState_VSA8>
39.05

>  <EState_VSA9>
0

>  <EState_VSA10>
9.18

>  <VSA_EState1>
13.02

>  <VSA_EState2>
21.01

>  <VSA_EState3>
1.36

>  <VSA_EState4>
4.71

>  <VSA_EState5>
-0.2

>  <VSA_EState6>
15.01

>  <VSA_EState7>
2.45

>  <VSA_EState8>
5.13

>  <VSA_EState9>
0

>  <apol>
62.08

>  <bpol>
32.05

>  <nRing>
5

>  <nHRing>
3

>  <naRing>
3

>  <naHRing>
1

>  <nARing 2>
2

>  <nAHRing 2>
2

>  <nFRing>
1

>  <nFHRing>
1

>  <nFaRing>
0

>  <nFaHRing>
0

>  <nFARing 2>
1

>  <nFAHRing 2>
1

>  <nRot>
5

>  <SLogP>
4.01

>  <SMR>
112.61

>  <TopoPSA(NO)>
39.34

>  <TopoPSA>
39.34

>  <JGI1>
0.17

>  <JGI2>
0.07

>  <JGI3>
0.04

>  <JGI4>
0.04

>  <JGI5>
0.03

>  <Diameter>
17

>  <Radius>
9

>  <TMWC10>
139.65

>  <TSRW10>
79.19

>  <MW>
391.21

>  <AMW>
7.11

>  <WPath>
2593

>  <WPol>
47

>  <Zagreb1>
160

>  <Zagreb2>
191

>  <mZagreb2>
6.22

>  <yes>


>  <nAR-cont>
1

>  <nHA-cont>
0.785905698

>  <MWHBN>
0.202234394

>  <MWHBN-cont>
0.99991415

>  <TPSA-cont>
0.725382371

>  <pka_cont>
0.97

>  <yes.1>


>  <BBB_SCORE>
5.221541666

>  <MMFF94 Energy>
121.35

$$$$
Compound 1784
Actelion Java MolfileCreator 2.0

  0  0  0  0  0  0              0 V3000
M  V30 BEGIN CTAB
M  V30 COUNTS 28 28 0 0 0
M  V30 BEGIN ATOM
M  V30 1 Cl 1.5066 -4.366 1.7446 0
M  V30 2 C 2.9833 -3.3791 1.5635 0
M  V30 3 C 2.7579 -1.9562 2.0392 0
M  V30 4 C 2.0531 -1.1381 0.9835 0
M  V30 5 O 2.6688 -0.4127 0.209 0
M  V30 6 N 0.687 -1.285 0.9664 0
M  V30 7 C -0.1482 -0.5858 0.0076 0
M  V30 8 C -0.3991 0.8681 0.4127 0
M  V30 9 C -1.3041 1.5714 -0.5673 0
M  V30 10 C -0.7726 2.1528 -1.7265 0
M  V30 11 C -2.6871 1.6283 -0.3492 0
M  V30 12 C -1.6088 2.7868 -2.6464 0
M  V30 13 C -3.5215 2.2631 -1.2708 0
M  V30 14 C -2.9825 2.8423 -2.4183 0
M  V30 15 H 3.2845 -3.4202 0.5123 0
M  V30 16 H 3.7573 -3.8614 2.1675 0
M  V30 17 H 3.7263 -1.4761 2.225 0
M  V30 18 H 2.199 -1.92 2.9813 0
M  V30 19 H 0.2514 -1.9565 1.5888 0
M  V30 20 H -1.0927 -1.1381 -0.055 0
M  V30 21 H 0.3328 -0.6374 -0.9761 0
M  V30 22 H -0.8408 0.9059 1.4172 0
M  V30 23 H 0.5482 1.4164 0.4903 0
M  V30 24 H 0.2982 2.1144 -1.9176 0
M  V30 25 H -3.1237 1.1803 0.5403 0
M  V30 26 H -1.1872 3.2371 -3.5413 0
M  V30 27 H -4.593 2.3062 -1.0935 0
M  V30 28 H -3.6328 3.3368 -3.135 0
M  V30 END ATOM
M  V30 BEGIN BOND
M  V30 1 1 1 2
M  V30 2 1 2 3
M  V30 3 1 3 4
M  V30 4 2 4 5
M  V30 5 1 4 6
M  V30 6 1 6 7
M  V30 7 1 7 8
M  V30 8 1 8 9
M  V30 9 2 9 10
M  V30 10 1 9 11
M  V30 11 1 10 12
M  V30 12 2 11 13
M  V30 13 2 12 14
M  V30 14 1 13 14
M  V30 15 1 2 15
M  V30 16 1 2 16
M  V30 17 1 3 17
M  V30 18 1 3 18
M  V30 19 1 6 19
M  V30 20 1 7 20
M  V30 21 1 7 21
M  V30 22 1 8 22
M  V30 23 1 8 23
M  V30 24 1 10 24
M  V30 25 1 11 25
M  V30 26 1 12 26
M  V30 27 1 13 27
M  V30 28 1 14 28
M  V30 END BOND
M  V30 END CTAB
M  END
>  <Column 1>
2183

>  <level_0>
2364

>  <index>
2364

>  <Unnamed: 0>
2364

>  <NO.>
2376

>  <Name>
fenaclon

>  <IUPAC_name>
3-chloro-n-(2-phenylethyl)propanamide

>  <SMILES>
O=C(CCCl)NCCc1ccccc1

>  <CID>
9376

>  <logBB>


>  <BBB+/BBB->
BBB+

>  <Inchi>
InChI=1S/C11H14ClNO/c12-8-6-11(14)13-9-7-10-4-2-1-3-5-10/h1-5H-6-9H2-(H-13-14)

>  <threshold>
-1

>  <reference>
R1|R13|R19|R6|R24|R27|R27|R27|R30|R30|

>  <group>
B

>  <Class>
1

>  <ABC>
10.01

>  <ABCGG>
8.86

>  <nAcid>
0

>  <nBase>
0

>  <nAromAtom>
6

>  <nAromBond>
6

>  <nAtom>
28

>  <nHeavyAtom>
14

>  <nSpiro>
0

>  <nBridgehead>
0

>  <nHetero>
3

>  <nN>
1

>  <nO>
1

>  <nF>
0

>  <BalabanJ>
1.96

>  <BertzCT>
273.88

>  <nBonds>
28

>  <nBondsO>
14

>  <nBondsS>
21

>  <nBondsD>
1

>  <nBondsT>
0

>  <nBondsA>
6

>  <nBondsM>
7

>  <nBondsKS>
24

>  <nBondsKD>
4

>  <RNCG>
0.32

>  <RPCG>
0.2

>  <FCSP3>
0.36

>  <SZ>
18.67

>  <Sm>
17.62

>  <Sv>
17.36

>  <Sse>
27.97

>  <Sp>
19.03

>  <Si>
31.56

>  <MZ>
0.67

>  <Mm>
0.63

>  <Mv>
0.62

>  <Mse>
1

>  <Mp>
0.68

>  <Mi>
1.13

>  <NsCH3>
0

>  <NdCH2>
0

>  <NssCH2>
4

>  <NtCH>
0

>  <NdsCH>
0

>  <NaaCH>
5

>  <NsssCH>
0

>  <NddC>
0

>  <NtsC>
0

>  <NdssC>
1

>  <NaasC>
1

>  <NaaaC>
0

>  <NssssC>
0

>  <NsNH3>
0

>  <NsNH2>
0

>  <NssNH2>
0

>  <NdNH>
0

>  <NssNH>
1

>  <NaaNH>
0

>  <NtN>
0

>  <NsssNH>
0

>  <NdsN>
0

>  <NaaN>
0

>  <NsssN>
0

>  <NddsN>
0

>  <NaasN>
0

>  <NssssN>
0

>  <NsOH>
0

>  <NdO>
1

>  <NssO>
0

>  <NaaO>
0

>  <NsF>
0

>  <NsSiH3>
0

>  <NssSiH2>
0

>  <NsssSiH>
0

>  <NssssSi>
0

>  <NsPH2>
0

>  <NssPH>
0

>  <NsssP>
0

>  <NdsssP>
0

>  <NsssssP>
0

>  <NsSH>
0

>  <NdS>
0

>  <NssS>
0

>  <NaaS>
0

>  <NdssS>
0

>  <NddssS>
0

>  <NsCl>
1

>  <NsBr>
0

>  <NsI>
0

>  <fragCpx>
14.03

>  <fMF>
0.21

>  <nHBAcc>
1

>  <nHBDon>
1

>  <Kier1>
12.07

>  <Kier2>
7.31

>  <Lipinski>
1

>  <GhoseFilter>
1

>  <FilterItLogS>
-3.88

>  <VMcGowan>
165.88

>  <LabuteASA>
89.27

>  <PEOE_VSA1>
5.32

>  <PEOE_VSA2>
4.79

>  <PEOE_VSA3>
0

>  <PEOE_VSA4>
0

>  <PEOE_VSA5>
11.6

>  <PEOE_VSA6>
30.33

>  <PEOE_VSA7>
11.98

>  <PEOE_VSA8>
18.85

>  <PEOE_VSA9>
0

>  <PEOE_VSA10>
0

>  <PEOE_VSA11>
0

>  <PEOE_VSA12>
5.91

>  <PEOE_VSA13>
0

>  <SMR_VSA1>
4.79

>  <SMR_VSA2>
0

>  <SMR_VSA3>
5.32

>  <SMR_VSA4>
0

>  <SMR_VSA5>
12.84

>  <SMR_VSA6>
12.42

>  <SMR_VSA7>
35.9

>  <SMR_VSA8>
0

>  <SMR_VSA9>
0

>  <SlogP_VSA1>
5.32

>  <SlogP_VSA2>
18.33

>  <SlogP_VSA3>
11.22

>  <SlogP_VSA4>
0

>  <SlogP_VSA5>
11.98

>  <SlogP_VSA6>
30.33

>  <SlogP_VSA7>
0

>  <SlogP_VSA8>
0

>  <SlogP_VSA9>
0

>  <SlogP_VSA10>
0

>  <SlogP_VSA11>
0

>  <EState_VSA1>
0

>  <EState_VSA2>
5.91

>  <EState_VSA3>
18.85

>  <EState_VSA4>
6.42

>  <EState_VSA5>
5.56

>  <EState_VSA6>
0

>  <EState_VSA7>
30.33

>  <EState_VSA8>
5.32

>  <EState_VSA9>
11.6

>  <EState_VSA10>
4.79

>  <VSA_EState1>
0

>  <VSA_EState2>
11.04

>  <VSA_EState3>
2.81

>  <VSA_EState4>
1.23

>  <VSA_EState5>
0.41

>  <VSA_EState6>
10.07

>  <VSA_EState7>
1.27

>  <VSA_EState8>
0.68

>  <VSA_EState9>
0

>  <apol>
31.79

>  <bpol>
15.99

>  <nRing>
1

>  <nHRing>
0

>  <naRing>
1

>  <naHRing>
0

>  <nARing 2>
0

>  <nAHRing 2>
0

>  <nFRing>
0

>  <nFHRing>
0

>  <nFaRing>
0

>  <nFaHRing>
0

>  <nFARing 2>
0

>  <nFAHRing 2>
0

>  <nRot>
5

>  <SLogP>
1.97

>  <SMR>
58.49

>  <TopoPSA(NO)>
29.1

>  <TopoPSA>
29.1

>  <JGI1>
0.14

>  <JGI2>
0.06

>  <JGI3>
0.03

>  <JGI4>
0.01

>  <JGI5>
0.02

>  <Diameter>
10

>  <Radius>
5

>  <TMWC10>
92.2

>  <TSRW10>
43.88

>  <MW>
211.08

>  <AMW>
7.54

>  <WPath>
372

>  <WPol>
14

>  <Zagreb1>
60

>  <Zagreb2>
63

>  <mZagreb2>
3.42

>  <yes>


>  <nAR-cont>
0.336376

>  <nHA-cont>
0.887625254

>  <MWHBN>
0.137659584

>  <MWHBN-cont>
0.896300837

>  <TPSA-cont>
0.79686393

>  <pka_cont>
0.97

>  <yes.1>


>  <BBB_SCORE>
4.647180369

>  <MMFF94 Energy>
-3.9336

$$$$
Compound 1785
Actelion Java MolfileCreator 2.0

  0  0  0  0  0  0              0 V3000
M  V30 BEGIN CTAB
M  V30 COUNTS 25 25 0 0 0
M  V30 BEGIN ATOM
M  V30 1 Cl 0.7149 5.4114 -0.8738 0
M  V30 2 C 0.8597 3.7403 -1.4735 0
M  V30 3 C 0.9561 2.7744 -0.3078 0
M  V30 4 C 1.0826 1.3508 -0.7983 0
M  V30 5 O 1.1082 1.0484 -1.9855 0
M  V30 6 N 1.1662 0.4368 0.2257 0
M  V30 7 C 1.2499 -0.9864 -0.0118 0
M  V30 8 C -0.0418 -1.6597 0.3699 0
M  V30 9 C -0.1814 -2.2994 1.6094 0
M  V30 10 C -1.1388 -1.623 -0.5033 0
M  V30 11 C -1.3907 -2.9021 1.9611 0
M  V30 12 C -2.3464 -2.2256 -0.1495 0
M  V30 13 C -2.4716 -2.8659 1.0818 0
M  V30 14 H 1.7494 3.6919 -2.1091 0
M  V30 15 H -0.0174 3.5329 -2.0944 0
M  V30 16 H 0.0625 2.8435 0.3241 0
M  V30 17 H 1.8307 3.0044 0.312 0
M  V30 18 H 1.087 0.748 1.1844 0
M  V30 19 H 1.4929 -1.1994 -1.0586 0
M  V30 20 H 2.0769 -1.3684 0.5966 0
M  V30 21 H 0.6505 -2.3356 2.3086 0
M  V30 22 H -1.0527 -1.1198 -1.4653 0
M  V30 23 H -1.4905 -3.4006 2.9219 0
M  V30 24 H -3.1893 -2.1939 -0.835 0
M  V30 25 H -3.4124 -3.3357 1.3564 0
M  V30 END ATOM
M  V30 BEGIN BOND
M  V30 1 1 1 2
M  V30 2 1 2 3
M  V30 3 1 3 4
M  V30 4 2 4 5
M  V30 5 1 4 6
M  V30 6 1 6 7
M  V30 7 1 7 8
M  V30 8 2 8 9
M  V30 9 1 8 10
M  V30 10 1 9 11
M  V30 11 2 10 12
M  V30 12 2 11 13
M  V30 13 1 12 13
M  V30 14 1 2 14
M  V30 15 1 2 15
M  V30 16 1 3 16
M  V30 17 1 3 17
M  V30 18 1 6 18
M  V30 19 1 7 19
M  V30 20 1 7 20
M  V30 21 1 9 21
M  V30 22 1 10 22
M  V30 23 1 11 23
M  V30 24 1 12 24
M  V30 25 1 13 25
M  V30 END BOND
M  V30 END CTAB
M  END
>  <Column 1>
2184

>  <level_0>
2365

>  <index>
2365

>  <Unnamed: 0>
2365

>  <NO.>
2377

>  <Name>
beclamide

>  <IUPAC_name>
n-benzyl-3-chloropropanamide

>  <SMILES>
O=C(CCCl)NCc1ccccc1

>  <CID>
10391

>  <logBB>


>  <BBB+/BBB->
BBB+

>  <Inchi>
InChI=1S/C10H12ClNO/c11-7-6-10(13)12-8-9-4-2-1-3-5-9/h1-5H-6-8H2-(H-12-13)

>  <threshold>
-1

>  <reference>
R1|R13|R19|R6|R24|R27|R27|R27|R30|R30|

>  <group>
B

>  <Class>
1

>  <ABC>
9.3

>  <ABCGG>
8.41

>  <nAcid>
0

>  <nBase>
0

>  <nAromAtom>
6

>  <nAromBond>
6

>  <nAtom>
25

>  <nHeavyAtom>
13

>  <nSpiro>
0

>  <nBridgehead>
0

>  <nHetero>
3

>  <nN>
1

>  <nO>
1

>  <nF>
0

>  <BalabanJ>
2.03

>  <BertzCT>
260.89

>  <nBonds>
25

>  <nBondsO>
13

>  <nBondsS>
18

>  <nBondsD>
1

>  <nBondsT>
0

>  <nBondsA>
6

>  <nBondsM>
7

>  <nBondsKS>
21

>  <nBondsKD>
4

>  <RNCG>
0.33

>  <RPCG>
0.2

>  <FCSP3>
0.3

>  <SZ>
17.33

>  <Sm>
16.46

>  <Sv>
15.81

>  <Sse>
25.09

>  <Sp>
17.24

>  <Si>
28.14

>  <MZ>
0.69

>  <Mm>
0.66

>  <Mv>
0.63

>  <Mse>
1

>  <Mp>
0.69

>  <Mi>
1.13

>  <NsCH3>
0

>  <NdCH2>
0

>  <NssCH2>
3

>  <NtCH>
0

>  <NdsCH>
0

>  <NaaCH>
5

>  <NsssCH>
0

>  <NddC>
0

>  <NtsC>
0

>  <NdssC>
1

>  <NaasC>
1

>  <NaaaC>
0

>  <NssssC>
0

>  <NsNH3>
0

>  <NsNH2>
0

>  <NssNH2>
0

>  <NdNH>
0

>  <NssNH>
1

>  <NaaNH>
0

>  <NtN>
0

>  <NsssNH>
0

>  <NdsN>
0

>  <NaaN>
0

>  <NsssN>
0

>  <NddsN>
0

>  <NaasN>
0

>  <NssssN>
0

>  <NsOH>
0

>  <NdO>
1

>  <NssO>
0

>  <NaaO>
0

>  <NsF>
0

>  <NsSiH3>
0

>  <NssSiH2>
0

>  <NsssSiH>
0

>  <NssssSi>
0

>  <NsPH2>
0

>  <NssPH>
0

>  <NsssP>
0

>  <NdsssP>
0

>  <NsssssP>
0

>  <NsSH>
0

>  <NdS>
0

>  <NssS>
0

>  <NaaS>
0

>  <NdssS>
0

>  <NddssS>
0

>  <NsCl>
1

>  <NsBr>
0

>  <NsI>
0

>  <fragCpx>
13.03

>  <fMF>
0.24

>  <nHBAcc>
1

>  <nHBDon>
1

>  <Kier1>
11.08

>  <Kier2>
6.45

>  <Lipinski>
1

>  <GhoseFilter>
1

>  <FilterItLogS>
-3.48

>  <VMcGowan>
151.79

>  <LabuteASA>
82.91

>  <PEOE_VSA1>
5.32

>  <PEOE_VSA2>
4.79

>  <PEOE_VSA3>
0

>  <PEOE_VSA4>
0

>  <PEOE_VSA5>
11.6

>  <PEOE_VSA6>
30.33

>  <PEOE_VSA7>
5.56

>  <PEOE_VSA8>
18.85

>  <PEOE_VSA9>
0

>  <PEOE_VSA10>
0

>  <PEOE_VSA11>
0

>  <PEOE_VSA12>
5.91

>  <PEOE_VSA13>
0

>  <SMR_VSA1>
4.79

>  <SMR_VSA2>
0

>  <SMR_VSA3>
5.32

>  <SMR_VSA4>
0

>  <SMR_VSA5>
12.97

>  <SMR_VSA6>
5.88

>  <SMR_VSA7>
35.9

>  <SMR_VSA8>
0

>  <SMR_VSA9>
0

>  <SlogP_VSA1>
5.32

>  <SlogP_VSA2>
11.79

>  <SlogP_VSA3>
11.34

>  <SlogP_VSA4>
0

>  <SlogP_VSA5>
11.98

>  <SlogP_VSA6>
30.33

>  <SlogP_VSA7>
0

>  <SlogP_VSA8>
0

>  <SlogP_VSA9>
0

>  <SlogP_VSA10>
0

>  <SlogP_VSA11>
0

>  <EState_VSA1>
0

>  <EState_VSA2>
5.91

>  <EState_VSA3>
18.85

>  <EState_VSA4>
5.56

>  <EState_VSA5>
0

>  <EState_VSA6>
0

>  <EState_VSA7>
30.33

>  <EState_VSA8>
5.32

>  <EState_VSA9>
11.6

>  <EState_VSA10>
4.79

>  <VSA_EState1>
0

>  <VSA_EState2>
11.02

>  <VSA_EState3>
2.78

>  <VSA_EState4>
1.1

>  <VSA_EState5>
0.37

>  <VSA_EState6>
9.79

>  <VSA_EState7>
0.38

>  <VSA_EState8>
0.58

>  <VSA_EState9>
0

>  <apol>
28.78

>  <bpol>
13.99

>  <nRing>
1

>  <nHRing>
0

>  <naRing>
1

>  <naHRing>
0

>  <nARing 2>
0

>  <nAHRing 2>
0

>  <nFRing>
0

>  <nFHRing>
0

>  <nFaRing>
0

>  <nFaHRing>
0

>  <nFARing 2>
0

>  <nFAHRing 2>
0

>  <nRot>
4

>  <SLogP>
1.93

>  <SMR>
53.63

>  <TopoPSA(NO)>
29.1

>  <TopoPSA>
29.1

>  <JGI1>
0.15

>  <JGI2>
0.06

>  <JGI3>
0.02

>  <JGI4>
0.03

>  <JGI5>
0.02

>  <Diameter>
9

>  <Radius>
5

>  <TMWC10>
89.78

>  <TSRW10>
42.6

>  <MW>
197.06

>  <AMW>
7.88

>  <WPath>
290

>  <WPol>
13

>  <Zagreb1>
56

>  <Zagreb2>
59

>  <mZagreb2>
3.17

>  <yes>


>  <nAR-cont>
0.336376

>  <nHA-cont>
0.841215992

>  <MWHBN>
0.142472405

>  <MWHBN-cont>
0.911426945

>  <TPSA-cont>
0.79686393

>  <pka_cont>
0.97

>  <yes.1>


>  <BBB_SCORE>
4.623460269

>  <MMFF94 Energy>
-20.209

$$$$
Compound 1786
Actelion Java MolfileCreator 2.0

  0  0  0  0  0  0              0 V3000
M  V30 BEGIN CTAB
M  V30 COUNTS 55 58 0 0 0
M  V30 BEGIN ATOM
M  V30 1 S -1.385 1.548 -1.385 0
M  V30 2 C -2.9276 0.6459 -1.425 0
M  V30 3 C -1.0147 1.3518 0.3507 0
M  V30 4 C -3.2064 -0.3726 -0.4954 0
M  V30 5 C -3.8823 0.9912 -2.3881 0
M  V30 6 C -1.502 0.2525 1.0792 0
M  V30 7 C -0.2896 2.3554 1.0042 0
M  V30 8 N -2.2025 -0.8016 0.4286 0
M  V30 9 C -4.4628 -0.9972 -0.5187 0
M  V30 10 C -5.1237 0.3512 -2.4122 0
M  V30 11 C -1.3367 0.2267 2.4716 0
M  V30 12 C -0.091 2.2948 2.3844 0
M  V30 13 C -1.8431 -2.1515 0.4796 0
M  V30 14 C -5.4329 -0.6387 -1.4689 0
M  V30 15 C -0.6261 1.2392 3.1193 0
M  V30 16 O -2.5373 -3.0556 -0.0049 0
M  V30 17 C -0.4983 -2.5468 1.0715 0
M  V30 18 C -6.7673 -1.3427 -1.5022 0
M  V30 19 C 0.5898 -2.5067 -0.0057 0
M  V30 20 F -7.1705 -1.7887 -0.2799 0
M  V30 21 F -7.7754 -0.542 -1.9517 0
M  V30 22 F -6.7636 -2.4302 -2.3198 0
M  V30 23 N 1.3112 -1.2244 -0.0461 0
M  V30 24 C 2.3173 -1.1209 1.0314 0
M  V30 25 C 1.9928 -1.053 -1.3459 0
M  V30 26 C 3.1387 0.1892 0.9583 0
M  V30 27 C 2.7943 0.2655 -1.4172 0
M  V30 28 N 3.8094 0.3696 -0.3455 0
M  V30 29 C 4.4945 1.6719 -0.4347 0
M  V30 30 C 5.7386 1.7805 0.4574 0
M  V30 31 O 6.3728 3.0395 0.2413 0
M  V30 32 H -3.6716 1.7698 -3.1183 0
M  V30 33 H 0.1025 3.2031 0.447 0
M  V30 34 H -4.6884 -1.7842 0.2007 0
M  V30 35 H -5.8546 0.6348 -3.1688 0
M  V30 36 H -1.7639 -0.5795 3.0629 0
M  V30 37 H 0.4626 3.0842 2.8872 0
M  V30 38 H -0.4944 1.2061 4.1982 0
M  V30 39 H -0.6083 -3.5858 1.4114 0
M  V30 40 H -0.2382 -1.9893 1.9687 0
M  V30 41 H 1.2978 -3.3296 0.1587 0
M  V30 42 H 0.1222 -2.6989 -0.9806 0
M  V30 43 H 1.826 -1.1501 2.0101 0
M  V30 44 H 3.0103 -1.9723 0.9914 0
M  V30 45 H 2.6674 -1.8976 -1.5412 0
M  V30 46 H 1.2464 -1.0369 -2.1496 0
M  V30 47 H 2.4776 1.0385 1.1698 0
M  V30 48 H 3.8855 0.1503 1.7589 0
M  V30 49 H 2.097 1.1131 -1.37 0
M  V30 50 H 3.2915 0.3061 -2.394 0
M  V30 51 H 3.809 2.5014 -0.2133 0
M  V30 52 H 4.829 1.8368 -1.468 0
M  V30 53 H 5.48 1.7171 1.5182 0
M  V30 54 H 6.4549 0.988 0.2166 0
M  V30 55 H 7.1899 3.0354 0.7688 0
M  V30 END ATOM
M  V30 BEGIN BOND
M  V30 1 1 1 2
M  V30 2 1 1 3
M  V30 3 2 2 4
M  V30 4 1 2 5
M  V30 5 2 3 6
M  V30 6 1 3 7
M  V30 7 1 4 8
M  V30 8 1 4 9
M  V30 9 2 5 10
M  V30 10 1 6 11
M  V30 11 2 7 12
M  V30 12 1 8 13
M  V30 13 2 9 14
M  V30 14 2 11 15
M  V30 15 2 13 16
M  V30 16 1 13 17
M  V30 17 1 14 18
M  V30 18 1 17 19
M  V30 19 1 18 20
M  V30 20 1 18 21
M  V30 21 1 18 22
M  V30 22 1 19 23
M  V30 23 1 23 24
M  V30 24 1 23 25
M  V30 25 1 24 26
M  V30 26 1 25 27
M  V30 27 1 26 28
M  V30 28 1 28 29
M  V30 29 1 29 30
M  V30 30 1 30 31
M  V30 31 1 6 8
M  V30 32 1 10 14
M  V30 33 1 12 15
M  V30 34 1 27 28
M  V30 35 1 5 32
M  V30 36 1 7 33
M  V30 37 1 9 34
M  V30 38 1 10 35
M  V30 39 1 11 36
M  V30 40 1 12 37
M  V30 41 1 15 38
M  V30 42 1 17 39
M  V30 43 1 17 40
M  V30 44 1 19 41
M  V30 45 1 19 42
M  V30 46 1 24 43
M  V30 47 1 24 44
M  V30 48 1 25 45
M  V30 49 1 25 46
M  V30 50 1 26 47
M  V30 51 1 26 48
M  V30 52 1 27 49
M  V30 53 1 27 50
M  V30 54 1 29 51
M  V30 55 1 29 52
M  V30 56 1 30 53
M  V30 57 1 30 54
M  V30 58 1 31 55
M  V30 END BOND
M  V30 END CTAB
M  END
>  <Column 1>
2185

>  <level_0>
2366

>  <index>
2366

>  <Unnamed: 0>
2366

>  <NO.>
2378

>  <Name>
ftorpropazine

>  <IUPAC_name>
3-[4-(2-hydroxyethyl)piperazin-1-yl]-1-[2-(trifluoromethyl)phenothiazin-10-yl]propan-1-one

>  <SMILES>
O=C(CCN1CCN(CCO)CC1)N1c2ccccc2Sc2ccc(C(F)(F)F)cc21

>  <CID>
219081

>  <logBB>


>  <BBB+/BBB->
BBB+

>  <Inchi>
InChI=1S/C22H24F3N3O2S/c23-22(24-25)16-5-6-20-18(15-16)28(17-3-1-2-4-19(17)31-20)21(30)7-8-26-9-11-27(12-10-26)13-14-29/h1-6-15-29H-7-14H2

>  <threshold>
-1

>  <reference>
R1|R13|R19|R6|R24|R27|R27|R27|R30|R30|

>  <group>
B

>  <Class>
1

>  <ABC>
24.36

>  <ABCGG>
18.07

>  <nAcid>
0

>  <nBase>
2

>  <nAromAtom>
12

>  <nAromBond>
12

>  <nAtom>
55

>  <nHeavyAtom>
31

>  <nSpiro>
0

>  <nBridgehead>
0

>  <nHetero>
9

>  <nN>
3

>  <nO>
2

>  <nF>
3

>  <BalabanJ>
1.4

>  <BertzCT>
945.84

>  <nBonds>
58

>  <nBondsO>
34

>  <nBondsS>
45

>  <nBondsD>
1

>  <nBondsT>
0

>  <nBondsA>
12

>  <nBondsM>
13

>  <nBondsKS>
51

>  <nBondsKD>
7

>  <RNCG>
0.16

>  <RPCG>
0.17

>  <FCSP3>
0.41

>  <SZ>
39.33

>  <Sm>
37.59

>  <Sv>
35.33

>  <Sse>
56.25

>  <Sp>
37.26

>  <Si>
62.84

>  <MZ>
0.72

>  <Mm>
0.68

>  <Mv>
0.64

>  <Mse>
1.02

>  <Mp>
0.68

>  <Mi>
1.14

>  <NsCH3>
0

>  <NdCH2>
0

>  <NssCH2>
8

>  <NtCH>
0

>  <NdsCH>
0

>  <NaaCH>
7

>  <NsssCH>
0

>  <NddC>
0

>  <NtsC>
0

>  <NdssC>
1

>  <NaasC>
5

>  <NaaaC>
0

>  <NssssC>
1

>  <NsNH3>
0

>  <NsNH2>
0

>  <NssNH2>
0

>  <NdNH>
0

>  <NssNH>
0

>  <NaaNH>
0

>  <NtN>
0

>  <NsssNH>
0

>  <NdsN>
0

>  <NaaN>
0

>  <NsssN>
3

>  <NddsN>
0

>  <NaasN>
0

>  <NssssN>
0

>  <NsOH>
1

>  <NdO>
1

>  <NssO>
0

>  <NaaO>
0

>  <NsF>
3

>  <NsSiH3>
0

>  <NssSiH2>
0

>  <NsssSiH>
0

>  <NssssSi>
0

>  <NsPH2>
0

>  <NssPH>
0

>  <NsssP>
0

>  <NdsssP>
0

>  <NsssssP>
0

>  <NsSH>
0

>  <NdS>
0

>  <NssS>
1

>  <NaaS>
0

>  <NdssS>
0

>  <NddssS>
0

>  <NsCl>
0

>  <NsBr>
0

>  <NsI>
0

>  <fragCpx>
226.09

>  <fMF>
0.42

>  <nHBAcc>
5

>  <nHBDon>
1

>  <Kier1>
24.13

>  <Kier2>
10.51

>  <Lipinski>
1

>  <GhoseFilter>
1

>  <FilterItLogS>
-4.83

>  <VMcGowan>
310.61

>  <LabuteASA>
182.98

>  <PEOE_VSA1>
10.01

>  <PEOE_VSA2>
14.59

>  <PEOE_VSA3>
0

>  <PEOE_VSA4>
13.17

>  <PEOE_VSA5>
0

>  <PEOE_VSA6>
23.89

>  <PEOE_VSA7>
30.33

>  <PEOE_VSA8>
55.48

>  <PEOE_VSA9>
23.55

>  <PEOE_VSA10>
0

>  <PEOE_VSA11>
0

>  <PEOE_VSA12>
5.91

>  <PEOE_VSA13>
0

>  <SMR_VSA1>
23.07

>  <SMR_VSA2>
0

>  <SMR_VSA3>
9.8

>  <SMR_VSA4>
0

>  <SMR_VSA5>
22.39

>  <SMR_VSA6>
50.78

>  <SMR_VSA7>
48.03

>  <SMR_VSA8>
0

>  <SMR_VSA9>
0

>  <SlogP_VSA1>
4.9

>  <SlogP_VSA2>
66.69

>  <SlogP_VSA3>
10.97

>  <SlogP_VSA4>
0

>  <SlogP_VSA5>
11.98

>  <SlogP_VSA6>
52.26

>  <SlogP_VSA7>
0

>  <SlogP_VSA8>
0

>  <SlogP_VSA9>
0

>  <SlogP_VSA10>
24.55

>  <SlogP_VSA11>
0

>  <EState_VSA1>
11.74

>  <EState_VSA2>
24.62

>  <EState_VSA3>
23.67

>  <EState_VSA4>
43.21

>  <EState_VSA5>
22.73

>  <EState_VSA6>
12.13

>  <EState_VSA7>
12.13

>  <EState_VSA8>
9.8

>  <EState_VSA9>
5.11

>  <EState_VSA10>
17.97

>  <VSA_EState1>
39.97

>  <VSA_EState2>
20.54

>  <VSA_EState3>
9.06

>  <VSA_EState4>
0.15

>  <VSA_EState5>
-0.22

>  <VSA_EState6>
10.88

>  <VSA_EState7>
-4.26

>  <VSA_EState8>
4.58

>  <VSA_EState9>
0

>  <apol>
62.22

>  <bpol>
35.87

>  <nRing>
4

>  <nHRing>
2

>  <naRing>
2

>  <naHRing>
0

>  <nARing 2>
2

>  <nAHRing 2>
2

>  <nFRing>
1

>  <nFHRing>
1

>  <nFaRing>
0

>  <nFaHRing>
0

>  <nFARing 2>
1

>  <nFAHRing 2>
1

>  <nRot>
5

>  <SLogP>
3.83

>  <SMR>
113.74

>  <TopoPSA(NO)>
47.02

>  <TopoPSA>
72.32

>  <JGI1>
0.21

>  <JGI2>
0.08

>  <JGI3>
0.04

>  <JGI4>
0.05

>  <JGI5>
0.03

>  <Diameter>
15

>  <Radius>
8

>  <TMWC10>
143.03

>  <TSRW10>
67.18

>  <MW>
451.15

>  <AMW>
8.2

>  <WPath>
2772

>  <WPol>
52

>  <Zagreb1>
166

>  <Zagreb2>
196

>  <mZagreb2>
6.72

>  <yes>


>  <nAR-cont>
1

>  <nHA-cont>
0.702745138

>  <MWHBN>
0.282481994

>  <MWHBN-cont>
0.889721533

>  <TPSA-cont>
0.495161492

>  <pka_cont>
0.97

>  <yes.1>


>  <BBB_SCORE>
4.512650421

>  <MMFF94 Energy>
180.63

$$$$
Compound 1787
Actelion Java MolfileCreator 2.0

  0  0  0  0  0  0              0 V3000
M  V30 BEGIN CTAB
M  V30 COUNTS 40 41 0 0 0
M  V30 BEGIN ATOM
M  V30 1 O 1.1811 0.4723 3.3889 0
M  V30 2 C 1.8782 -0.3636 2.8184 0
M  V30 3 N 2.8357 -0.0317 1.8689 0
M  V30 4 C 1.7351 -1.806 3.1433 0
M  V30 5 N 3.0462 1.3247 1.5432 0
M  V30 6 C 1.2504 -2.1496 4.4061 0
M  V30 7 C 2.0354 -2.8105 2.2227 0
M  V30 8 C 2.4655 1.6653 0.2341 0
M  V30 9 C 1.1107 -3.4911 4.7061 0
M  V30 10 C 1.8576 -4.124 2.6207 0
M  V30 11 C 0.9401 1.7391 0.2569 0
M  V30 12 N 1.4098 -4.4842 3.8419 0
M  V30 13 C 0.3842 2.1405 -1.0921 0
M  V30 14 O 1.0785 2.3221 -2.0856 0
M  V30 15 N -0.9862 2.2673 -1.0848 0
M  V30 16 C -1.74 2.5921 -2.2737 0
M  V30 17 C -2.4401 1.3692 -2.8055 0
M  V30 18 C -1.7405 0.446 -3.5964 0
M  V30 19 C -3.7825 1.1147 -2.4913 0
M  V30 20 C -2.3751 -0.7001 -4.0764 0
M  V30 21 C -4.4155 -0.0327 -2.9727 0
M  V30 22 C -3.7125 -0.9383 -3.7656 0
M  V30 23 H 3.4856 -0.718 1.4971 0
M  V30 24 H 2.5874 1.8905 2.2707 0
M  V30 25 H 0.9911 -1.3913 5.1382 0
M  V30 26 H 2.3695 -2.5997 1.2144 0
M  V30 27 H 2.8678 2.6425 -0.0591 0
M  V30 28 H 2.8114 0.9535 -0.526 0
M  V30 29 H 0.7428 -3.8141 5.6761 0
M  V30 30 H 2.0699 -4.9492 1.946 0
M  V30 31 H 0.5069 0.7665 0.517 0
M  V30 32 H 0.6051 2.4721 1.0008 0
M  V30 33 H -1.502 2.0494 -0.2427 0
M  V30 34 H -2.4692 3.3617 -1.9969 0
M  V30 35 H -1.0916 3.0235 -3.0444 0
M  V30 36 H -0.693 0.6205 -3.8381 0
M  V30 37 H -4.345 1.8092 -1.8716 0
M  V30 38 H -1.8245 -1.4067 -4.6917 0
M  V30 39 H -5.4579 -0.2211 -2.7288 0
M  V30 40 H -4.2066 -1.8309 -4.1402 0
M  V30 END ATOM
M  V30 BEGIN BOND
M  V30 1 2 1 2
M  V30 2 1 2 3
M  V30 3 1 2 4
M  V30 4 1 3 5
M  V30 5 2 4 6
M  V30 6 1 4 7
M  V30 7 1 5 8
M  V30 8 1 6 9
M  V30 9 2 7 10
M  V30 10 1 8 11
M  V30 11 2 9 12
M  V30 12 1 11 13
M  V30 13 2 13 14
M  V30 14 1 13 15
M  V30 15 1 15 16
M  V30 16 1 16 17
M  V30 17 2 17 18
M  V30 18 1 17 19
M  V30 19 1 18 20
M  V30 20 2 19 21
M  V30 21 2 20 22
M  V30 22 1 10 12
M  V30 23 1 21 22
M  V30 24 1 3 23
M  V30 25 1 5 24
M  V30 26 1 6 25
M  V30 27 1 7 26
M  V30 28 1 8 27
M  V30 29 1 8 28
M  V30 30 1 9 29
M  V30 31 1 10 30
M  V30 32 1 11 31
M  V30 33 1 11 32
M  V30 34 1 15 33
M  V30 35 1 16 34
M  V30 36 1 16 35
M  V30 37 1 18 36
M  V30 38 1 19 37
M  V30 39 1 20 38
M  V30 40 1 21 39
M  V30 41 1 22 40
M  V30 END BOND
M  V30 END CTAB
M  END
>  <Column 1>
2186

>  <level_0>
2367

>  <index>
2367

>  <Unnamed: 0>
2367

>  <NO.>
2379

>  <Name>
nialamide

>  <IUPAC_name>
n-benzyl-3-[2-(pyridine-4-carbonyl)hydrazinyl]propanamide

>  <SMILES>
O=C(CCNNC(=O)c1ccncc1)NCc1ccccc1

>  <CID>
4472

>  <logBB>


>  <BBB+/BBB->
BBB+

>  <Inchi>
InChI=1S/C16H18N4O2/c21-15(18-12-13-4-2-1-3-5-13)8-11-19-20-16(22)14-6-9-17-10-7-14/h1-7-9-10-19H-8-11-12H2-(H-18-21)(H-20-22)

>  <threshold>
-1

>  <reference>
R1|R13|R19|R6|R24|R27|R27|R27|R30|R30|

>  <group>
B

>  <Class>
1

>  <ABC>
16.44

>  <ABCGG>
12.89

>  <nAcid>
0

>  <nBase>
0

>  <nAromAtom>
12

>  <nAromBond>
12

>  <nAtom>
40

>  <nHeavyAtom>
22

>  <nSpiro>
0

>  <nBridgehead>
0

>  <nHetero>
6

>  <nN>
4

>  <nO>
2

>  <nF>
0

>  <BalabanJ>
1.46

>  <BertzCT>
602.06

>  <nBonds>
41

>  <nBondsO>
23

>  <nBondsS>
27

>  <nBondsD>
2

>  <nBondsT>
0

>  <nBondsA>
12

>  <nBondsM>
14

>  <nBondsKS>
33

>  <nBondsKD>
8

>  <RNCG>
0.17

>  <RPCG>
0.13

>  <FCSP3>
0.19

>  <SZ>
26.33

>  <Sm>
24.84

>  <Sv>
25.34

>  <Sse>
40.3

>  <Sp>
26.78

>  <Si>
45.32

>  <MZ>
0.66

>  <Mm>
0.62

>  <Mv>
0.63

>  <Mse>
1.01

>  <Mp>
0.67

>  <Mi>
1.13

>  <NsCH3>
0

>  <NdCH2>
0

>  <NssCH2>
3

>  <NtCH>
0

>  <NdsCH>
0

>  <NaaCH>
9

>  <NsssCH>
0

>  <NddC>
0

>  <NtsC>
0

>  <NdssC>
2

>  <NaasC>
2

>  <NaaaC>
0

>  <NssssC>
0

>  <NsNH3>
0

>  <NsNH2>
0

>  <NssNH2>
0

>  <NdNH>
0

>  <NssNH>
3

>  <NaaNH>
0

>  <NtN>
0

>  <NsssNH>
0

>  <NdsN>
0

>  <NaaN>
1

>  <NsssN>
0

>  <NddsN>
0

>  <NaasN>
0

>  <NssssN>
0

>  <NsOH>
0

>  <NdO>
2

>  <NssO>
0

>  <NaaO>
0

>  <NsF>
0

>  <NsSiH3>
0

>  <NssSiH2>
0

>  <NsssSiH>
0

>  <NssssSi>
0

>  <NsPH2>
0

>  <NssPH>
0

>  <NsssP>
0

>  <NdsssP>
0

>  <NsssssP>
0

>  <NsSH>
0

>  <NdS>
0

>  <NssS>
0

>  <NaaS>
0

>  <NdssS>
0

>  <NddssS>
0

>  <NsCl>
0

>  <NsBr>
0

>  <NsI>
0

>  <fragCpx>
67.06

>  <fMF>
0.5

>  <nHBAcc>
4

>  <nHBDon>
3

>  <Kier1>
18.34

>  <Kier2>
10.71

>  <Lipinski>
1

>  <GhoseFilter>
1

>  <FilterItLogS>
-4.44

>  <VMcGowan>
231.84

>  <LabuteASA>
128.48

>  <PEOE_VSA1>
5.32

>  <PEOE_VSA2>
20

>  <PEOE_VSA3>
5.43

>  <PEOE_VSA4>
0

>  <PEOE_VSA5>
0

>  <PEOE_VSA6>
30.33

>  <PEOE_VSA7>
17.7

>  <PEOE_VSA8>
37.47

>  <PEOE_VSA9>
0

>  <PEOE_VSA10>
0

>  <PEOE_VSA11>
0

>  <PEOE_VSA12>
5.91

>  <PEOE_VSA13>
5.91

>  <SMR_VSA1>
9.59

>  <SMR_VSA2>
0

>  <SMR_VSA3>
21.15

>  <SMR_VSA4>
0

>  <SMR_VSA5>
12.97

>  <SMR_VSA6>
6.54

>  <SMR_VSA7>
65.99

>  <SMR_VSA8>
0

>  <SMR_VSA9>
0

>  <SlogP_VSA1>
16.17

>  <SlogP_VSA2>
23.34

>  <SlogP_VSA3>
11.34

>  <SlogP_VSA4>
0

>  <SlogP_VSA5>
22.34

>  <SlogP_VSA6>
54.86

>  <SlogP_VSA7>
0

>  <SlogP_VSA8>
0

>  <SlogP_VSA9>
0

>  <SlogP_VSA10>
0

>  <SlogP_VSA11>
0

>  <EState_VSA1>
0

>  <EState_VSA2>
18.24

>  <EState_VSA3>
18.65

>  <EState_VSA4>
5.56

>  <EState_VSA5>
0

>  <EState_VSA6>
24.53

>  <EState_VSA7>
30.33

>  <EState_VSA8>
21.15

>  <EState_VSA9>
0

>  <EState_VSA10>
9.59

>  <VSA_EState1>
0

>  <VSA_EState2>
27.2

>  <VSA_EState3>
2.82

>  <VSA_EState4>
6.82

>  <VSA_EState5>
-0.33

>  <VSA_EState6>
12.92

>  <VSA_EState7>
3.38

>  <VSA_EState8>
0.86

>  <VSA_EState9>
0

>  <apol>
44.73

>  <bpol>
21.5

>  <nRing>
2

>  <nHRing>
1

>  <naRing>
2

>  <naHRing>
1

>  <nARing 2>
0

>  <nAHRing 2>
0

>  <nFRing>
0

>  <nFHRing>
0

>  <nFaRing>
0

>  <nFaHRing>
0

>  <nFARing 2>
0

>  <nFAHRing 2>
0

>  <nRot>
7

>  <SLogP>
1.02

>  <SMR>
82.61

>  <TopoPSA(NO)>
83.12

>  <TopoPSA>
83.12

>  <JGI1>
0.13

>  <JGI2>
0.06

>  <JGI3>
0.03

>  <JGI4>
0.03

>  <JGI5>
0.02

>  <Diameter>
15

>  <Radius>
8

>  <TMWC10>
115.06

>  <TSRW10>
54.81

>  <MW>
298.14

>  <AMW>
7.45

>  <WPath>
1383

>  <WPol>
26

>  <Zagreb1>
102

>  <Zagreb2>
111

>  <mZagreb2>
5.11

>  <yes>


>  <nAR-cont>
0.336376

>  <nHA-cont>
0.983774276

>  <MWHBN>
0.405403895

>  <MWHBN-cont>
0.454821377

>  <TPSA-cont>
0.419770786

>  <pka_cont>
0.97

>  <yes.1>


>  <BBB_SCORE>
3.326923912

>  <MMFF94 Energy>
33.267

$$$$
Compound 1788
Actelion Java MolfileCreator 2.0

  0  0  0  0  0  0              0 V3000
M  V30 BEGIN CTAB
M  V30 COUNTS 54 58 0 0 0
M  V30 BEGIN ATOM
M  V30 1 O -2.8208 2.5788 0.4026 0
M  V30 2 C -3.0653 1.4007 0.6623 0
M  V30 3 C -4.4989 0.9754 0.7372 0
M  V30 4 C -1.9888 0.3393 0.9324 0
M  V30 5 C -5.4804 1.857 0.2608 0
M  V30 6 C -4.8915 -0.2594 1.2703 0
M  V30 7 N -0.6381 0.8002 0.5532 0
M  V30 8 C -6.8311 1.5063 0.3068 0
M  V30 9 C -6.2453 -0.6069 1.3149 0
M  V30 10 C 0.4437 0.0563 1.2441 0
M  V30 11 C -0.4706 0.8632 -0.9058 0
M  V30 12 C -7.2124 0.2739 0.8324 0
M  V30 13 C 1.7798 0.7645 0.956 0
M  V30 14 C 0.5513 -1.4496 0.9128 0
M  V30 15 C 0.9136 1.3922 -1.3038 0
M  V30 16 C 2.0705 0.6694 -0.566 0
M  V30 17 C 2.948 0.2493 1.8205 0
M  V30 18 C 1.339 -1.7796 -0.3361 0
M  V30 19 C 2.0783 -0.7989 -1.0367 0
M  V30 20 C 3.398 1.4293 -0.8412 0
M  V30 21 C 4.2462 0.9811 1.4921 0
M  V30 22 C 1.3377 -3.1134 -0.7831 0
M  V30 23 C 2.7525 -1.19 -2.2074 0
M  V30 24 C 4.5666 0.9178 0.0028 0
M  V30 25 C 2.0351 -3.4827 -1.9307 0
M  V30 26 C 2.7318 -2.514 -2.6369 0
M  V30 27 O 3.4164 -2.8212 -3.7762 0
M  V30 28 H -2.2407 -0.5807 0.394 0
M  V30 29 H -2.0206 0.146 2.0116 0
M  V30 30 H -5.1958 2.8245 -0.1501 0
M  V30 31 H -4.1711 -0.9672 1.6684 0
M  V30 32 H -7.5832 2.1976 -0.066 0
M  V30 33 H -6.5476 -1.5654 1.7307 0
M  V30 34 H 0.248 0.1446 2.3216 0
M  V30 35 H -1.2134 1.5386 -1.346 0
M  V30 36 H -0.6482 -0.1166 -1.3651 0
M  V30 37 H -8.2646 0.0018 0.8698 0
M  V30 38 H 1.6574 1.8274 1.2206 0
M  V30 39 H 1.0485 -1.9515 1.754 0
M  V30 40 H -0.4457 -1.8992 0.8434 0
M  V30 41 H 0.9475 2.4663 -1.0732 0
M  V30 42 H 1.0314 1.308 -2.3919 0
M  V30 43 H 3.1106 -0.8248 1.6827 0
M  V30 44 H 2.7114 0.3946 2.8815 0
M  V30 45 H 3.6715 1.4055 -1.9012 0
M  V30 46 H 3.2569 2.4938 -0.6052 0
M  V30 47 H 5.0715 0.5461 2.0671 0
M  V30 48 H 4.1613 2.03 1.8026 0
M  V30 49 H 0.7838 -3.8717 -0.2335 0
M  V30 50 H 3.2986 -0.4722 -2.8116 0
M  V30 51 H 5.4563 1.5243 -0.2024 0
M  V30 52 H 4.816 -0.1117 -0.2779 0
M  V30 53 H 2.016 -4.5171 -2.257 0
M  V30 54 H 3.3186 -3.7716 -3.9484 0
M  V30 END ATOM
M  V30 BEGIN BOND
M  V30 1 2 1 2
M  V30 2 1 2 3
M  V30 3 1 2 4
M  V30 4 2 3 5
M  V30 5 1 3 6
M  V30 6 1 4 7
M  V30 7 1 5 8
M  V30 8 2 6 9
M  V30 9 1 7 10
M  V30 10 1 7 11
M  V30 11 2 8 12
M  V30 12 1 10 13
M  V30 13 1 10 14
M  V30 14 1 11 15
M  V30 15 1 13 16
M  V30 16 1 13 17
M  V30 17 1 14 18
M  V30 18 1 16 19
M  V30 19 1 16 20
M  V30 20 1 17 21
M  V30 21 1 18 22
M  V30 22 1 19 23
M  V30 23 1 20 24
M  V30 24 2 22 25
M  V30 25 2 23 26
M  V30 26 1 26 27
M  V30 27 1 9 12
M  V30 28 1 15 16
M  V30 29 2 18 19
M  V30 30 1 21 24
M  V30 31 1 25 26
M  V30 32 1 4 28
M  V30 33 1 4 29
M  V30 34 1 5 30
M  V30 35 1 6 31
M  V30 36 1 8 32
M  V30 37 1 9 33
M  V30 38 1 10 34
M  V30 39 1 11 35
M  V30 40 1 11 36
M  V30 41 1 12 37
M  V30 42 1 13 38
M  V30 43 1 14 39
M  V30 44 1 14 40
M  V30 45 1 15 41
M  V30 46 1 15 42
M  V30 47 1 17 43
M  V30 48 1 17 44
M  V30 49 1 20 45
M  V30 50 1 20 46
M  V30 51 1 21 47
M  V30 52 1 21 48
M  V30 53 1 22 49
M  V30 54 1 23 50
M  V30 55 1 24 51
M  V30 56 1 24 52
M  V30 57 1 25 53
M  V30 58 1 27 54
M  V30 END BOND
M  V30 END CTAB
M  END
>  <Column 1>
2187

>  <level_0>
2368

>  <index>
2368

>  <Unnamed: 0>
2368

>  <NO.>
2380

>  <Name>
morphinan-3-ol;17-(2-oxo-2-phenylethyl)-

>  <IUPAC_name>
2-(4-hydroxy-17-azatetracyclo[7.5.3.01-10.02-7]heptadeca-2(7)-3-5-trien-17-yl)-1-phenylethanone

>  <SMILES>
O=C(CN1CCC23CCCCC2C1Cc1ccc(O)cc13)c1ccccc1

>  <CID>
517743

>  <logBB>


>  <BBB+/BBB->
BBB+

>  <Inchi>
InChI=1S/C24H27NO2/c26-19-10-9-18-14-22-20-8-4-5-11-24(20-21(18)15-19)12-13-25(22)16-23(27)17-6-2-1-3-7-17/h1-3-6-7-9-10-15-20-22-26H-4-5-8-11-14-16H2

>  <threshold>
-1

>  <reference>
R1|R19|R27|R27|R30|

>  <group>
B

>  <Class>
1

>  <ABC>
21.85

>  <ABCGG>
15.75

>  <nAcid>
0

>  <nBase>
1

>  <nAromAtom>
12

>  <nAromBond>
12

>  <nAtom>
54

>  <nHeavyAtom>
27

>  <nSpiro>
0

>  <nBridgehead>
2

>  <nHetero>
3

>  <nN>
1

>  <nO>
2

>  <nF>
0

>  <BalabanJ>
1.34

>  <BertzCT>
861.94

>  <nBonds>
58

>  <nBondsO>
31

>  <nBondsS>
45

>  <nBondsD>
1

>  <nBondsT>
0

>  <nBondsA>
12

>  <nBondsM>
13

>  <nBondsKS>
51

>  <nBondsKD>
7

>  <RNCG>
0.28

>  <RPCG>
0.16

>  <FCSP3>
0.46

>  <SZ>
32.33

>  <Sm>
30.1

>  <Sv>
33.5

>  <Sse>
53.31

>  <Sp>
36.4

>  <Si>
60.32

>  <MZ>
0.6

>  <Mm>
0.56

>  <Mv>
0.62

>  <Mse>
0.99

>  <Mp>
0.67

>  <Mi>
1.12

>  <NsCH3>
0

>  <NdCH2>
0

>  <NssCH2>
8

>  <NtCH>
0

>  <NdsCH>
0

>  <NaaCH>
8

>  <NsssCH>
2

>  <NddC>
0

>  <NtsC>
0

>  <NdssC>
1

>  <NaasC>
4

>  <NaaaC>
0

>  <NssssC>
1

>  <NsNH3>
0

>  <NsNH2>
0

>  <NssNH2>
0

>  <NdNH>
0

>  <NssNH>
0

>  <NaaNH>
0

>  <NtN>
0

>  <NsssNH>
0

>  <NdsN>
0

>  <NaaN>
0

>  <NsssN>
1

>  <NddsN>
0

>  <NaasN>
0

>  <NssssN>
0

>  <NsOH>
1

>  <NdO>
1

>  <NssO>
0

>  <NaaO>
0

>  <NsF>
0

>  <NsSiH3>
0

>  <NssSiH2>
0

>  <NsssSiH>
0

>  <NssssSi>
0

>  <NsPH2>
0

>  <NssPH>
0

>  <NsssP>
0

>  <NdsssP>
0

>  <NsssssP>
0

>  <NsSH>
0

>  <NdS>
0

>  <NssS>
0

>  <NaaS>
0

>  <NdssS>
0

>  <NddssS>
0

>  <NsCl>
0

>  <NsBr>
0

>  <NsI>
0

>  <fragCpx>
259.03

>  <fMF>
0.46

>  <nHBAcc>
3

>  <nHBDon>
1

>  <Kier1>
18.99

>  <Kier2>
7.68

>  <Lipinski>
1

>  <GhoseFilter>
1

>  <FilterItLogS>
-5.07

>  <VMcGowan>
286.34

>  <LabuteASA>
160.57

>  <PEOE_VSA1>
5.11

>  <PEOE_VSA2>
9.69

>  <PEOE_VSA3>
0

>  <PEOE_VSA4>
0

>  <PEOE_VSA5>
0

>  <PEOE_VSA6>
49.24

>  <PEOE_VSA7>
61.41

>  <PEOE_VSA8>
17.02

>  <PEOE_VSA9>
6.54

>  <PEOE_VSA10>
5.75

>  <PEOE_VSA11>
5.78

>  <PEOE_VSA12>
0

>  <PEOE_VSA13>
0

>  <SMR_VSA1>
9.9

>  <SMR_VSA2>
0

>  <SMR_VSA3>
4.9

>  <SMR_VSA4>
5.92

>  <SMR_VSA5>
49.98

>  <SMR_VSA6>
13.09

>  <SMR_VSA7>
65.22

>  <SMR_VSA8>
0

>  <SMR_VSA9>
5.75

>  <SlogP_VSA1>
0

>  <SlogP_VSA2>
34.92

>  <SlogP_VSA3>
11.84

>  <SlogP_VSA4>
5.92

>  <SlogP_VSA5>
53.59

>  <SlogP_VSA6>
48.53

>  <SlogP_VSA7>
0

>  <SlogP_VSA8>
0

>  <SlogP_VSA9>
0

>  <SlogP_VSA10>
0

>  <SlogP_VSA11>
5.75

>  <EState_VSA1>
0

>  <EState_VSA2>
11.2

>  <EState_VSA3>
24.25

>  <EState_VSA4>
24.95

>  <EState_VSA5>
36.81

>  <EState_VSA6>
0

>  <EState_VSA7>
42.46

>  <EState_VSA8>
10.97

>  <EState_VSA9>
0

>  <EState_VSA10>
9.9

>  <VSA_EState1>
0

>  <VSA_EState2>
15.31

>  <VSA_EState3>
10.11

>  <VSA_EState4>
3.81

>  <VSA_EState5>
1.24

>  <VSA_EState6>
16.13

>  <VSA_EState7>
7.15

>  <VSA_EState8>
1.5

>  <VSA_EState9>
0

>  <apol>
60.79

>  <bpol>
29.66

>  <nRing>
5

>  <nHRing>
1

>  <naRing>
2

>  <naHRing>
0

>  <nARing 2>
3

>  <nAHRing 2>
1

>  <nFRing>
1

>  <nFHRing>
1

>  <nFaRing>
0

>  <nFaHRing>
0

>  <nFARing 2>
1

>  <nFAHRing 2>
1

>  <nRot>
3

>  <SLogP>
4.33

>  <SMR>
106.2

>  <TopoPSA(NO)>
40.54

>  <TopoPSA>
40.54

>  <JGI1>
0.18

>  <JGI2>
0.09

>  <JGI3>
0.04

>  <JGI4>
0.04

>  <JGI5>
0.03

>  <Diameter>
13

>  <Radius>
7

>  <TMWC10>
136.76

>  <TSRW10>
63.19

>  <MW>
361.2

>  <AMW>
6.69

>  <WPath>
1730

>  <WPol>
52

>  <Zagreb1>
154

>  <Zagreb2>
190

>  <mZagreb2>
5.78

>  <yes>


>  <nAR-cont>
0.691115

>  <nHA-cont>
0.860070871

>  <MWHBN>
0.210468022

>  <MWHBN-cont>
0.999202316

>  <TPSA-cont>
0.717005626

>  <pka_cont>
0.97

>  <yes.1>


>  <BBB_SCORE>
4.969000598

>  <MMFF94 Energy>
114.11

$$$$
Compound 1789
Actelion Java MolfileCreator 2.0

  0  0  0  0  0  0              0 V3000
M  V30 BEGIN CTAB
M  V30 COUNTS 48 51 0 0 0
M  V30 BEGIN ATOM
M  V30 1 Cl -1.6972 -2.5871 8.8334 0
M  V30 2 C -2.0769 -2.1989 7.2013 0
M  V30 3 C -1.0838 -1.7041 6.358 0
M  V30 4 C -3.373 -2.3796 6.7286 0
M  V30 5 C -1.3871 -1.3868 5.0289 0
M  V30 6 C -3.6727 -2.0621 5.402 0
M  V30 7 C -2.6848 -1.5654 4.5459 0
M  V30 8 O -3.1169 -1.2979 3.2779 0
M  V30 9 C -2.1601 -0.7999 2.3521 0
M  V30 10 C -2.7871 -0.5533 0.9723 0
M  V30 11 O -3.9712 -0.8095 0.7455 0
M  V30 12 N -1.9546 -0.0313 -0.0122 0
M  V30 13 C -0.5542 0.3626 0.1643 0
M  V30 14 C -2.5163 0.3073 -1.3214 0
M  V30 15 C 0.3239 -0.0966 -1.0172 0
M  V30 16 C -1.6025 -0.1496 -2.4726 0
M  V30 17 N -0.2162 0.3464 -2.3204 0
M  V30 18 C 0.6132 -0.1247 -3.4421 0
M  V30 19 C 1.9769 0.5341 -3.492 0
M  V30 20 C 2.0827 1.9329 -3.5916 0
M  V30 21 C 3.1524 -0.2517 -3.4547 0
M  V30 22 C 3.3427 2.4895 -3.6417 0
M  V30 23 C 4.4175 0.3425 -3.5077 0
M  V30 24 O 3.6226 3.817 -3.7339 0
M  V30 25 C 4.4778 1.7157 -3.6005 0
M  V30 26 C 5.0645 3.7891 -3.751 0
M  V30 27 O 5.6152 2.4585 -3.6617 0
M  V30 28 H -0.0718 -1.5624 6.7281 0
M  V30 29 H -4.1527 -2.7643 7.38 0
M  V30 30 H -0.5883 -1.0034 4.4036 0
M  V30 31 H -4.6854 -2.202 5.0294 0
M  V30 32 H -1.3592 -1.5369 2.2215 0
M  V30 33 H -1.7645 0.1572 2.7118 0
M  V30 34 H -0.1408 -0.0366 1.0929 0
M  V30 35 H -0.5378 1.4565 0.2431 0
M  V30 36 H -2.6353 1.3977 -1.3456 0
M  V30 37 H -3.5107 -0.1313 -1.4511 0
M  V30 38 H 1.3285 0.3113 -0.8592 0
M  V30 39 H 0.4047 -1.1916 -0.9942 0
M  V30 40 H -2.027 0.222 -3.4129 0
M  V30 41 H -1.6078 -1.2468 -2.5181 0
M  V30 42 H 0.7171 -1.2175 -3.414 0
M  V30 43 H 0.1204 0.1129 -4.3946 0
M  V30 44 H 1.1986 2.5617 -3.6209 0
M  V30 45 H 3.083 -1.3352 -3.3831 0
M  V30 46 H 5.3217 -0.2544 -3.4787 0
M  V30 47 H 5.4363 4.3795 -2.9056 0
M  V30 48 H 5.413 4.2509 -4.682 0
M  V30 END ATOM
M  V30 BEGIN BOND
M  V30 1 1 1 2
M  V30 2 2 2 3
M  V30 3 1 2 4
M  V30 4 1 3 5
M  V30 5 2 4 6
M  V30 6 2 5 7
M  V30 7 1 7 8
M  V30 8 1 8 9
M  V30 9 1 9 10
M  V30 10 2 10 11
M  V30 11 1 10 12
M  V30 12 1 12 13
M  V30 13 1 12 14
M  V30 14 1 13 15
M  V30 15 1 14 16
M  V30 16 1 15 17
M  V30 17 1 17 18
M  V30 18 1 18 19
M  V30 19 2 19 20
M  V30 20 1 19 21
M  V30 21 1 20 22
M  V30 22 2 21 23
M  V30 23 1 22 24
M  V30 24 2 22 25
M  V30 25 1 24 26
M  V30 26 1 25 27
M  V30 27 1 6 7
M  V30 28 1 16 17
M  V30 29 1 23 25
M  V30 30 1 26 27
M  V30 31 1 3 28
M  V30 32 1 4 29
M  V30 33 1 5 30
M  V30 34 1 6 31
M  V30 35 1 9 32
M  V30 36 1 9 33
M  V30 37 1 13 34
M  V30 38 1 13 35
M  V30 39 1 14 36
M  V30 40 1 14 37
M  V30 41 1 15 38
M  V30 42 1 15 39
M  V30 43 1 16 40
M  V30 44 1 16 41
M  V30 45 1 18 42
M  V30 46 1 18 43
M  V30 47 1 20 44
M  V30 48 1 21 45
M  V30 49 1 23 46
M  V30 50 1 26 47
M  V30 51 1 26 48
M  V30 END BOND
M  V30 END CTAB
M  END
>  <Column 1>
2190

>  <level_0>
2371

>  <index>
2371

>  <Unnamed: 0>
2371

>  <NO.>
2383

>  <Name>
fipexide

>  <IUPAC_name>
1-[4-(1-3-benzodioxol-5-ylmethyl)piperazin-1-yl]-2-(4-chlorophenoxy)ethanone

>  <SMILES>
O=C(COc1ccc(Cl)cc1)N1CCN(Cc2ccc3c(c2)OCO3)CC1

>  <CID>
3351

>  <logBB>


>  <BBB+/BBB->
BBB+

>  <Inchi>
InChI=1S/C20H21ClN2O4/c21-16-2-4-17(5-3-16)25-13-20(24)23-9-7-22(8-10-23)12-15-1-6-18-19(11-15)27-14-26-18/h1-6-11H-7-10-12-14H2

>  <threshold>
-1

>  <reference>
R1|R13|R19|R6|R24|R27|R27|R27|R30|R30|

>  <group>
B

>  <Class>
1

>  <ABC>
21.35

>  <ABCGG>
15.34

>  <nAcid>
0

>  <nBase>
1

>  <nAromAtom>
12

>  <nAromBond>
12

>  <nAtom>
48

>  <nHeavyAtom>
27

>  <nSpiro>
0

>  <nBridgehead>
0

>  <nHetero>
7

>  <nN>
2

>  <nO>
4

>  <nF>
0

>  <BalabanJ>
1.12

>  <BertzCT>
804.13

>  <nBonds>
51

>  <nBondsO>
30

>  <nBondsS>
38

>  <nBondsD>
1

>  <nBondsT>
0

>  <nBondsA>
12

>  <nBondsM>
13

>  <nBondsKS>
44

>  <nBondsKD>
7

>  <RNCG>
0.19

>  <RPCG>
0.1

>  <FCSP3>
0.35

>  <SZ>
34

>  <Sm>
32.37

>  <Sv>
31.16

>  <Sse>
48.74

>  <Sp>
32.93

>  <Si>
53.93

>  <MZ>
0.71

>  <Mm>
0.67

>  <Mv>
0.65

>  <Mse>
1.02

>  <Mp>
0.69

>  <Mi>
1.12

>  <NsCH3>
0

>  <NdCH2>
0

>  <NssCH2>
7

>  <NtCH>
0

>  <NdsCH>
0

>  <NaaCH>
7

>  <NsssCH>
0

>  <NddC>
0

>  <NtsC>
0

>  <NdssC>
1

>  <NaasC>
5

>  <NaaaC>
0

>  <NssssC>
0

>  <NsNH3>
0

>  <NsNH2>
0

>  <NssNH2>
0

>  <NdNH>
0

>  <NssNH>
0

>  <NaaNH>
0

>  <NtN>
0

>  <NsssNH>
0

>  <NdsN>
0

>  <NaaN>
0

>  <NsssN>
2

>  <NddsN>
0

>  <NaasN>
0

>  <NssssN>
0

>  <NsOH>
0

>  <NdO>
1

>  <NssO>
3

>  <NaaO>
0

>  <NsF>
0

>  <NsSiH3>
0

>  <NssSiH2>
0

>  <NsssSiH>
0

>  <NssssSi>
0

>  <NsPH2>
0

>  <NssPH>
0

>  <NsssP>
0

>  <NdsssP>
0

>  <NsssssP>
0

>  <NsSH>
0

>  <NdS>
0

>  <NssS>
0

>  <NaaS>
0

>  <NdssS>
0

>  <NddssS>
0

>  <NsCl>
1

>  <NsBr>
0

>  <NsI>
0

>  <fragCpx>
198.07

>  <fMF>
0.52

>  <nHBAcc>
5

>  <nHBDon>
0

>  <Kier1>
20.28

>  <Kier2>
9.67

>  <Lipinski>
1

>  <GhoseFilter>
1

>  <FilterItLogS>
-4.44

>  <VMcGowan>
274.8

>  <LabuteASA>
162.72

>  <PEOE_VSA1>
19.11

>  <PEOE_VSA2>
9.69

>  <PEOE_VSA3>
0

>  <PEOE_VSA4>
0

>  <PEOE_VSA5>
0

>  <PEOE_VSA6>
17.67

>  <PEOE_VSA7>
41.96

>  <PEOE_VSA8>
37.75

>  <PEOE_VSA9>
0

>  <PEOE_VSA10>
5.75

>  <PEOE_VSA11>
18.11

>  <PEOE_VSA12>
6.79

>  <PEOE_VSA13>
5.91

>  <SMR_VSA1>
19.01

>  <SMR_VSA2>
0

>  <SMR_VSA3>
9.8

>  <SMR_VSA4>
0

>  <SMR_VSA5>
6.54

>  <SMR_VSA6>
39.58

>  <SMR_VSA7>
53.05

>  <SMR_VSA8>
0

>  <SMR_VSA9>
17.25

>  <SlogP_VSA1>
14.21

>  <SlogP_VSA2>
55.29

>  <SlogP_VSA3>
11.34

>  <SlogP_VSA4>
0

>  <SlogP_VSA5>
5.56

>  <SlogP_VSA6>
42.46

>  <SlogP_VSA7>
5.02

>  <SlogP_VSA8>
0

>  <SlogP_VSA9>
0

>  <SlogP_VSA10>
0

>  <SlogP_VSA11>
17.25

>  <EState_VSA1>
0

>  <EState_VSA2>
19.31

>  <EState_VSA3>
23.86

>  <EState_VSA4>
31.13

>  <EState_VSA5>
5.56

>  <EState_VSA6>
24.27

>  <EState_VSA7>
17.03

>  <EState_VSA8>
10.97

>  <EState_VSA9>
25.81

>  <EState_VSA10>
4.79

>  <VSA_EState1>
16.33

>  <VSA_EState2>
16.55

>  <VSA_EState3>
0.65

>  <VSA_EState4>
1.19

>  <VSA_EState5>
2.26

>  <VSA_EState6>
13.06

>  <VSA_EState7>
0

>  <VSA_EState8>
4.24

>  <VSA_EState9>
0

>  <apol>
54.99

>  <bpol>
31.07

>  <nRing>
4

>  <nHRing>
2

>  <naRing>
2

>  <naHRing>
0

>  <nARing 2>
2

>  <nAHRing 2>
2

>  <nFRing>
1

>  <nFHRing>
1

>  <nFaRing>
0

>  <nFaHRing>
0

>  <nFARing 2>
1

>  <nFAHRing 2>
1

>  <nRot>
5

>  <SLogP>
2.79

>  <SMR>
101.37

>  <TopoPSA(NO)>
51.24

>  <TopoPSA>
51.24

>  <JGI1>
0.18

>  <JGI2>
0.07

>  <JGI3>
0.03

>  <JGI4>
0.04

>  <JGI5>
0.02

>  <Diameter>
17

>  <Radius>
9

>  <TMWC10>
132.17

>  <TSRW10>
75.55

>  <MW>
388.12

>  <AMW>
8.09

>  <WPath>
2275

>  <WPol>
38

>  <Zagreb1>
142

>  <Zagreb2>
164

>  <mZagreb2>
5.89

>  <yes>


>  <nAR-cont>
1

>  <nHA-cont>
0.860070871

>  <MWHBN>
0.253797297

>  <MWHBN-cont>
0.953166238

>  <TPSA-cont>
0.642312982

>  <pka_cont>
0.97

>  <yes.1>


>  <BBB_SCORE>
5.059446192

>  <MMFF94 Energy>
106.86

$$$$
Compound 1790
Actelion Java MolfileCreator 2.0

  0  0  0  0  0  0              0 V3000
M  V30 BEGIN CTAB
M  V30 COUNTS 51 54 0 0 0
M  V30 BEGIN ATOM
M  V30 1 Cl 2.264 -9.6489 0.9698 0
M  V30 2 C 1.7394 -8.2145 0.1785 0
M  V30 3 C 1.3709 -7.102 0.9327 0
M  V30 4 C 1.6845 -8.1694 -1.2111 0
M  V30 5 C 0.9431 -5.9323 0.2937 0
M  V30 6 C 1.2573 -7.001 -1.8462 0
M  V30 7 C 0.8847 -5.8782 -1.1002 0
M  V30 8 O 0.4881 -4.806 -1.8489 0
M  V30 9 C 0.0906 -3.6343 -1.1467 0
M  V30 10 C -0.3187 -2.5371 -2.1182 0
M  V30 11 O -0.3078 -2.6093 -3.3395 0
M  V30 12 O -0.7085 -1.4371 -1.4102 0
M  V30 13 C -1.0794 -0.3116 -2.2208 0
M  V30 14 C -1.35 0.9023 -1.3171 0
M  V30 15 N -0.126 1.3479 -0.6407 0
M  V30 16 C -0.2388 2.5644 0.1787 0
M  V30 17 C -0.4584 3.8331 -0.6855 0
M  V30 18 C -1.3611 2.4814 1.2449 0
M  V30 19 C 1.1171 2.7212 0.9217 0
M  V30 20 C -0.4657 5.0949 0.1979 0
M  V30 21 C -1.3657 3.744 2.1268 0
M  V30 22 C 1.1183 3.9803 1.8054 0
M  V30 23 C -1.5912 4.9798 1.2396 0
M  V30 24 C 0.884 5.2162 0.9226 0
M  V30 25 C -0.0114 3.8717 2.8408 0
M  V30 26 H 1.4141 -7.1369 2.0184 0
M  V30 27 H 1.9703 -9.0326 -1.8055 0
M  V30 28 H 0.6653 -5.0872 0.9151 0
M  V30 29 H 1.214 -6.9636 -2.9327 0
M  V30 30 H 0.93 -3.2505 -0.5552 0
M  V30 31 H -0.7783 -3.8549 -0.5159 0
M  V30 32 H -1.995 -0.5606 -2.7698 0
M  V30 33 H -0.2817 -0.0795 -2.9372 0
M  V30 34 H -2.097 0.6088 -0.5723 0
M  V30 35 H -1.7637 1.7016 -1.9393 0
M  V30 36 H 0.621 1.4666 -1.3252 0
M  V30 37 H -1.4108 3.7776 -1.2266 0
M  V30 38 H 0.3311 3.9213 -1.4434 0
M  V30 39 H -1.2245 1.5925 1.8746 0
M  V30 40 H -2.3456 2.3878 0.7699 0
M  V30 41 H 1.9442 2.7856 0.2014 0
M  V30 42 H 1.3135 1.8389 1.5462 0
M  V30 43 H -0.6298 5.9804 -0.4263 0
M  V30 44 H -2.1686 3.6715 2.8693 0
M  V30 45 H 2.0822 4.0706 2.3187 0
M  V30 46 H -2.5628 4.9076 0.7354 0
M  V30 47 H -1.6212 5.8846 1.8594 0
M  V30 48 H 1.6952 5.314 0.1907 0
M  V30 49 H 0.8991 6.1245 1.5377 0
M  V30 50 H 0.1548 3.002 3.4883 0
M  V30 51 H -0.0116 4.7562 3.4898 0
M  V30 END ATOM
M  V30 BEGIN BOND
M  V30 1 1 1 2
M  V30 2 2 2 3
M  V30 3 1 2 4
M  V30 4 1 3 5
M  V30 5 2 4 6
M  V30 6 2 5 7
M  V30 7 1 7 8
M  V30 8 1 8 9
M  V30 9 1 9 10
M  V30 10 2 10 11
M  V30 11 1 10 12
M  V30 12 1 12 13
M  V30 13 1 13 14
M  V30 14 1 14 15
M  V30 15 1 15 16
M  V30 16 1 16 17
M  V30 17 1 16 18
M  V30 18 1 16 19
M  V30 19 1 17 20
M  V30 20 1 18 21
M  V30 21 1 19 22
M  V30 22 1 20 23
M  V30 23 1 20 24
M  V30 24 1 21 25
M  V30 25 1 6 7
M  V30 26 1 21 23
M  V30 27 1 22 24
M  V30 28 1 22 25
M  V30 29 1 3 26
M  V30 30 1 4 27
M  V30 31 1 5 28
M  V30 32 1 6 29
M  V30 33 1 9 30
M  V30 34 1 9 31
M  V30 35 1 13 32
M  V30 36 1 13 33
M  V30 37 1 14 34
M  V30 38 1 14 35
M  V30 39 1 15 36
M  V30 40 1 17 37
M  V30 41 1 17 38
M  V30 42 1 18 39
M  V30 43 1 18 40
M  V30 44 1 19 41
M  V30 45 1 19 42
M  V30 46 1 20 43
M  V30 47 1 21 44
M  V30 48 1 22 45
M  V30 49 1 23 46
M  V30 50 1 23 47
M  V30 51 1 24 48
M  V30 52 1 24 49
M  V30 53 1 25 50
M  V30 54 1 25 51
M  V30 END BOND
M  V30 END CTAB
M  END
>  <Column 1>
2191

>  <level_0>
2372

>  <index>
2372

>  <Unnamed: 0>
2372

>  <NO.>
2384

>  <Name>
adafenoxate

>  <IUPAC_name>
2-(1-adamantylamino)ethyl 2-(4-chlorophenoxy)acetate

>  <SMILES>
O=C(COc1ccc(Cl)cc1)OCCNC12CC3CC(CC(C3)C1)C2

>  <CID>
64517

>  <logBB>


>  <BBB+/BBB->
BBB+

>  <Inchi>
InChI=1S/C20H26ClNO3/c21-17-1-3-18(4-2-17)25-13-19(23)24-6-5-22-20-10-14-7-15(11-20)9-16(8-14)12-20/h1-4-14-16-22H-5-13H2

>  <threshold>
-1

>  <reference>
R1|R13|R13|R19|R6|R24|R27|R27|R27|R30|R30|

>  <group>
B

>  <Class>
1

>  <ABC>
20.02

>  <ABCGG>
14.33

>  <nAcid>
0

>  <nBase>
1

>  <nAromAtom>
6

>  <nAromBond>
6

>  <nAtom>
51

>  <nHeavyAtom>
25

>  <nSpiro>
0

>  <nBridgehead>
4

>  <nHetero>
5

>  <nN>
1

>  <nO>
3

>  <nF>
0

>  <BalabanJ>
1.11

>  <BertzCT>
580.59

>  <nBonds>
54

>  <nBondsO>
28

>  <nBondsS>
47

>  <nBondsD>
1

>  <nBondsT>
0

>  <nBondsA>
6

>  <nBondsM>
7

>  <nBondsKS>
50

>  <nBondsKD>
4

>  <RNCG>
0.23

>  <RPCG>
0.17

>  <FCSP3>
0.65

>  <SZ>
32.33

>  <Sm>
30.3

>  <Sv>
31.04

>  <Sse>
50.96

>  <Sp>
33.79

>  <Si>
57.47

>  <MZ>
0.63

>  <Mm>
0.59

>  <Mv>
0.61

>  <Mse>
1

>  <Mp>
0.66

>  <Mi>
1.13

>  <NsCH3>
0

>  <NdCH2>
0

>  <NssCH2>
9

>  <NtCH>
0

>  <NdsCH>
0

>  <NaaCH>
4

>  <NsssCH>
3

>  <NddC>
0

>  <NtsC>
0

>  <NdssC>
1

>  <NaasC>
2

>  <NaaaC>
0

>  <NssssC>
1

>  <NsNH3>
0

>  <NsNH2>
0

>  <NssNH2>
0

>  <NdNH>
0

>  <NssNH>
1

>  <NaaNH>
0

>  <NtN>
0

>  <NsssNH>
0

>  <NdsN>
0

>  <NaaN>
0

>  <NsssN>
0

>  <NddsN>
0

>  <NaasN>
0

>  <NssssN>
0

>  <NsOH>
0

>  <NdO>
1

>  <NssO>
2

>  <NaaO>
0

>  <NsF>
0

>  <NsSiH3>
0

>  <NssSiH2>
0

>  <NsssSiH>
0

>  <NssssSi>
0

>  <NsPH2>
0

>  <NssPH>
0

>  <NsssP>
0

>  <NdsssP>
0

>  <NsssssP>
0

>  <NsSH>
0

>  <NdS>
0

>  <NssS>
0

>  <NaaS>
0

>  <NdssS>
0

>  <NddssS>
0

>  <NsCl>
1

>  <NsBr>
0

>  <NsI>
0

>  <fragCpx>
184.05

>  <fMF>
0.45

>  <nHBAcc>
4

>  <nHBDon>
1

>  <Kier1>
18.37

>  <Kier2>
7.94

>  <Lipinski>
1

>  <GhoseFilter>
1

>  <FilterItLogS>
-5.12

>  <VMcGowan>
271.85

>  <LabuteASA>
153.76

>  <PEOE_VSA1>
14.79

>  <PEOE_VSA2>
0

>  <PEOE_VSA3>
4.79

>  <PEOE_VSA4>
0

>  <PEOE_VSA5>
0

>  <PEOE_VSA6>
11.6

>  <PEOE_VSA7>
80.54

>  <PEOE_VSA8>
17.11

>  <PEOE_VSA9>
0

>  <PEOE_VSA10>
12.36

>  <PEOE_VSA11>
6.61

>  <PEOE_VSA12>
0

>  <PEOE_VSA13>
0

>  <SMR_VSA1>
14.27

>  <SMR_VSA2>
0

>  <SMR_VSA3>
5.32

>  <SMR_VSA4>
17.75

>  <SMR_VSA5>
44.06

>  <SMR_VSA6>
19.76

>  <SMR_VSA7>
29.29

>  <SMR_VSA8>
0

>  <SMR_VSA9>
5.75

>  <SlogP_VSA1>
10.05

>  <SlogP_VSA2>
31.27

>  <SlogP_VSA3>
9.53

>  <SlogP_VSA4>
17.75

>  <SlogP_VSA5>
38.52

>  <SlogP_VSA6>
24.27

>  <SlogP_VSA7>
5.02

>  <SlogP_VSA8>
0

>  <SlogP_VSA9>
0

>  <SlogP_VSA10>
0

>  <SlogP_VSA11>
5.75

>  <EState_VSA1>
0

>  <EState_VSA2>
12.58

>  <EState_VSA3>
22.92

>  <EState_VSA4>
24.3

>  <EState_VSA5>
38.52

>  <EState_VSA6>
24.27

>  <EState_VSA7>
0

>  <EState_VSA8>
5.32

>  <EState_VSA9>
21.07

>  <EState_VSA10>
4.79

>  <VSA_EState1>
10.7

>  <VSA_EState2>
11.81

>  <VSA_EState3>
4.37

>  <VSA_EState4>
0.32

>  <VSA_EState5>
3.06

>  <VSA_EState6>
6.95

>  <VSA_EState7>
8.26

>  <VSA_EState8>
1.07

>  <VSA_EState9>
0

>  <apol>
56.42

>  <bpol>
31.5

>  <nRing>
5

>  <nHRing>
0

>  <naRing>
1

>  <naHRing>
0

>  <nARing 2>
4

>  <nAHRing 2>
0

>  <nFRing>
1

>  <nFHRing>
0

>  <nFaRing>
0

>  <nFaHRing>
0

>  <nFARing 2>
1

>  <nFAHRing 2>
0

>  <nRot>
7

>  <SLogP>
3.82

>  <SMR>
96.81

>  <TopoPSA(NO)>
47.56

>  <TopoPSA>
47.56

>  <JGI1>
0.25

>  <JGI2>
0.04

>  <JGI3>
0.04

>  <JGI4>
0.04

>  <JGI5>
0.02

>  <Diameter>
15

>  <Radius>
8

>  <TMWC10>
128.8

>  <TSRW10>
60.24

>  <MW>
363.16

>  <AMW>
7.12

>  <WPath>
1842

>  <WPol>
35

>  <Zagreb1>
136

>  <Zagreb2>
158

>  <mZagreb2>
5.33

>  <yes>


>  <nAR-cont>
0.199399

>  <nHA-cont>
0.921834225

>  <MWHBN>
0.262374123

>  <MWHBN-cont>
0.936617307

>  <TPSA-cont>
0.668001667

>  <pka_cont>
0.97

>  <yes.1>


>  <BBB_SCORE>
4.347162519

>  <MMFF94 Energy>
71.447

$$$$
Compound 1791
Actelion Java MolfileCreator 2.0

  0  0  0  0  0  0              0 V3000
M  V30 BEGIN CTAB
M  V30 COUNTS 50 52 0 0 0
M  V30 BEGIN ATOM
M  V30 1 F 1.3619 -0.1601 -7.7094 0
M  V30 2 C 0.1245 0.1441 -7.2271 0
M  V30 3 F -0.702 -0.8416 -7.6769 0
M  V30 4 F -0.2607 1.2767 -7.8799 0
M  V30 5 C 0.1162 0.2889 -5.7262 0
M  V30 6 C -0.1097 -0.8241 -4.9035 0
M  V30 7 C 0.3643 1.5327 -5.1276 0
M  V30 8 C -0.1002 -0.6938 -3.5127 0
M  V30 9 C 0.3738 1.663 -3.7369 0
M  V30 10 C 0.1483 0.5496 -2.9173 0
M  V30 11 C 0.148 0.693 -1.4119 0
M  V30 12 C -1.2162 1.0126 -0.8043 0
M  V30 13 O -2.2126 1.1862 -1.5082 0
M  V30 14 N -1.2822 1.1093 0.5897 0
M  V30 15 C -0.1802 0.7417 1.5112 0 CFG=1
M  V30 16 C -2.5888 1.3716 1.1999 0
M  V30 17 C -0.1057 1.7245 2.6935 0
M  V30 18 C -0.3072 -0.7469 1.9514 0
M  V30 19 C -2.4999 2.357 2.3592 0
M  V30 20 C -1.453 1.9256 3.3785 0
M  V30 21 N 0.8014 -1.2303 2.7831 0
M  V30 22 C 0.5532 -2.5821 3.2915 0
M  V30 23 C 2.075 -1.3293 2.0667 0
M  V30 24 C 1.9176 -3.0031 3.8106 0
M  V30 25 C 2.9178 -2.23 2.9595 0
M  V30 26 H -0.3055 -1.8001 -5.3449 0
M  V30 27 H 0.5416 2.4122 -5.745 0
M  V30 28 H -0.2974 -1.569 -2.8973 0
M  V30 29 H 0.5491 2.6429 -3.2973 0
M  V30 30 H 0.5251 -0.2397 -0.977 0
M  V30 31 H 0.8481 1.4901 -1.1335 0
M  V30 32 H 0.7641 0.8449 0.9709 0
M  V30 33 H -2.9869 0.4106 1.5456 0
M  V30 34 H -3.2969 1.7586 0.46 0
M  V30 35 H 0.6412 1.4027 3.4272 0
M  V30 36 H 0.2348 2.6974 2.3142 0
M  V30 37 H -1.2405 -0.8644 2.516 0
M  V30 38 H -0.4173 -1.3784 1.0593 0
M  V30 39 H -3.4776 2.4491 2.845 0
M  V30 40 H -2.2376 3.3496 1.9719 0
M  V30 41 H -1.7699 1.0012 3.8744 0
M  V30 42 H -1.3605 2.6903 4.158 0
M  V30 43 H -0.1996 -2.5927 4.0859 0
M  V30 44 H 0.2312 -3.2624 2.4927 0
M  V30 45 H 2.5528 -0.3544 1.9296 0
M  V30 46 H 1.95 -1.7982 1.0824 0
M  V30 47 H 2.0335 -2.722 4.8641 0
M  V30 48 H 2.0655 -4.0847 3.7337 0
M  V30 49 H 3.5446 -2.9024 2.3648 0
M  V30 50 H 3.5772 -1.6382 3.6047 0
M  V30 END ATOM
M  V30 BEGIN BOND
M  V30 1 1 1 2
M  V30 2 1 2 3
M  V30 3 1 2 4
M  V30 4 1 2 5
M  V30 5 2 5 6
M  V30 6 1 5 7
M  V30 7 1 6 8
M  V30 8 2 7 9
M  V30 9 2 8 10
M  V30 10 1 10 11
M  V30 11 1 11 12
M  V30 12 2 12 13
M  V30 13 1 12 14
M  V30 14 1 14 15
M  V30 15 1 14 16
M  V30 16 1 15 17
M  V30 17 1 15 18
M  V30 18 1 16 19
M  V30 19 1 17 20
M  V30 20 1 18 21
M  V30 21 1 21 22
M  V30 22 1 21 23
M  V30 23 1 22 24
M  V30 24 1 23 25
M  V30 25 1 9 10
M  V30 26 1 19 20
M  V30 27 1 24 25
M  V30 28 1 6 26
M  V30 29 1 7 27
M  V30 30 1 8 28
M  V30 31 1 9 29
M  V30 32 1 11 30
M  V30 33 1 11 31
M  V30 34 1 15 32
M  V30 35 1 16 33
M  V30 36 1 16 34
M  V30 37 1 17 35
M  V30 38 1 17 36
M  V30 39 1 18 37
M  V30 40 1 18 38
M  V30 41 1 19 39
M  V30 42 1 19 40
M  V30 43 1 20 41
M  V30 44 1 20 42
M  V30 45 1 22 43
M  V30 46 1 22 44
M  V30 47 1 23 45
M  V30 48 1 23 46
M  V30 49 1 24 47
M  V30 50 1 24 48
M  V30 51 1 25 49
M  V30 52 1 25 50
M  V30 END BOND
M  V30 BEGIN COLLECTION
M  V30 MDLV30/STEABS ATOMS=(1 15)
M  V30 END COLLECTION
M  V30 END CTAB
M  END
>  <Column 1>
2192

>  <level_0>
2373

>  <index>
2373

>  <Unnamed: 0>
2373

>  <NO.>
2385

>  <Name>
brl52656

>  <IUPAC_name>
1-[(2s)-2-(pyrrolidin-1-ylmethyl)piperidin-1-yl]-2-[4-(trifluoromethyl)phenyl]ethanone

>  <SMILES>
O=C(Cc1ccc(C(F)(F)F)cc1)N1CCCC[C@H]1CN1CCCC1

>  <CID>
9865223

>  <logBB>


>  <BBB+/BBB->
BBB+

>  <Inchi>
InChI=1S/C19H25F3N2O/c20-19(21-22)16-8-6-15(7-9-16)13-18(25)24-12-2-1-5-17(24)14-23-10-3-4-11-23/h6-9-17H-1-5-10-14H2/t17-/m0/s1

>  <threshold>
-1

>  <reference>
R1|R13|R28|R9|R24|R27|R30|

>  <group>
B

>  <Class>
1

>  <ABC>
19.54

>  <ABCGG>
15.79

>  <nAcid>
0

>  <nBase>
1

>  <nAromAtom>
6

>  <nAromBond>
6

>  <nAtom>
50

>  <nHeavyAtom>
25

>  <nSpiro>
0

>  <nBridgehead>
0

>  <nHetero>
6

>  <nN>
2

>  <nO>
1

>  <nF>
3

>  <BalabanJ>
1.48

>  <BertzCT>
579.33

>  <nBonds>
52

>  <nBondsO>
27

>  <nBondsS>
45

>  <nBondsD>
1

>  <nBondsT>
0

>  <nBondsA>
6

>  <nBondsM>
7

>  <nBondsKS>
48

>  <nBondsKD>
4

>  <RNCG>
0.18

>  <RPCG>
0.22

>  <FCSP3>
0.63

>  <SZ>
31.33

>  <Sm>
29.51

>  <Sv>
29.94

>  <Sse>
50.62

>  <Sp>
31.78

>  <Si>
57.62

>  <MZ>
0.63

>  <Mm>
0.59

>  <Mv>
0.6

>  <Mse>
1.01

>  <Mp>
0.64

>  <Mi>
1.15

>  <NsCH3>
0

>  <NdCH2>
0

>  <NssCH2>
10

>  <NtCH>
0

>  <NdsCH>
0

>  <NaaCH>
4

>  <NsssCH>
1

>  <NddC>
0

>  <NtsC>
0

>  <NdssC>
1

>  <NaasC>
2

>  <NaaaC>
0

>  <NssssC>
1

>  <NsNH3>
0

>  <NsNH2>
0

>  <NssNH2>
0

>  <NdNH>
0

>  <NssNH>
0

>  <NaaNH>
0

>  <NtN>
0

>  <NsssNH>
0

>  <NdsN>
0

>  <NaaN>
0

>  <NsssN>
2

>  <NddsN>
0

>  <NaasN>
0

>  <NssssN>
0

>  <NsOH>
0

>  <NdO>
1

>  <NssO>
0

>  <NaaO>
0

>  <NsF>
3

>  <NsSiH3>
0

>  <NssSiH2>
0

>  <NsssSiH>
0

>  <NssssSi>
0

>  <NsPH2>
0

>  <NssPH>
0

>  <NsssP>
0

>  <NdsssP>
0

>  <NsssssP>
0

>  <NsSH>
0

>  <NdS>
0

>  <NssS>
0

>  <NaaS>
0

>  <NdssS>
0

>  <NddssS>
0

>  <NsCl>
0

>  <NsBr>
0

>  <NsI>
0

>  <fragCpx>
129.06

>  <fMF>
0.4

>  <nHBAcc>
2

>  <nHBDon>
0

>  <Kier1>
19.75

>  <Kier2>
8.79

>  <Lipinski>
1

>  <GhoseFilter>
1

>  <FilterItLogS>
-4.33

>  <VMcGowan>
259.9

>  <LabuteASA>
146.34

>  <PEOE_VSA1>
9.8

>  <PEOE_VSA2>
4.79

>  <PEOE_VSA3>
0

>  <PEOE_VSA4>
13.17

>  <PEOE_VSA5>
0

>  <PEOE_VSA6>
12.13

>  <PEOE_VSA7>
62.89

>  <PEOE_VSA8>
19.13

>  <PEOE_VSA9>
11.98

>  <PEOE_VSA10>
0

>  <PEOE_VSA11>
0

>  <PEOE_VSA12>
5.91

>  <PEOE_VSA13>
0

>  <SMR_VSA1>
17.97

>  <SMR_VSA2>
0

>  <SMR_VSA3>
9.8

>  <SMR_VSA4>
0

>  <SMR_VSA5>
50.74

>  <SMR_VSA6>
26.18

>  <SMR_VSA7>
35.39

>  <SMR_VSA8>
0

>  <SMR_VSA9>
0

>  <SlogP_VSA1>
0

>  <SlogP_VSA2>
47.93

>  <SlogP_VSA3>
17.39

>  <SlogP_VSA4>
0

>  <SlogP_VSA5>
43.23

>  <SlogP_VSA6>
24.27

>  <SlogP_VSA7>
0

>  <SlogP_VSA8>
0

>  <SlogP_VSA9>
0

>  <SlogP_VSA10>
13.17

>  <SlogP_VSA11>
0

>  <EState_VSA1>
11.74

>  <EState_VSA2>
18.37

>  <EState_VSA3>
5.56

>  <EState_VSA4>
57.57

>  <EState_VSA5>
24.97

>  <EState_VSA6>
0

>  <EState_VSA7>
4.9

>  <EState_VSA8>
4.9

>  <EState_VSA9>
0

>  <EState_VSA10>
17.97

>  <VSA_EState1>
37.91

>  <VSA_EState2>
17.1

>  <VSA_EState3>
0

>  <VSA_EState4>
-0.03

>  <VSA_EState5>
0.03

>  <VSA_EState6>
5.19

>  <VSA_EState7>
1.47

>  <VSA_EState8>
3.91

>  <VSA_EState9>
0

>  <apol>
53.07

>  <bpol>
32.71

>  <nRing>
3

>  <nHRing>
2

>  <naRing>
1

>  <naHRing>
0

>  <nARing 2>
2

>  <nAHRing 2>
2

>  <nFRing>
0

>  <nFHRing>
0

>  <nFaRing>
0

>  <nFaHRing>
0

>  <nFARing 2>
0

>  <nFAHRing 2>
0

>  <nRot>
4

>  <SLogP>
3.72

>  <SMR>
90.17

>  <TopoPSA(NO)>
23.55

>  <TopoPSA>
23.55

>  <JGI1>
0.22

>  <JGI2>
0.08

>  <JGI3>
0.05

>  <JGI4>
0.03

>  <JGI5>
0.03

>  <Diameter>
13

>  <Radius>
7

>  <TMWC10>
126.57

>  <TSRW10>
72.73

>  <MW>
354.19

>  <AMW>
7.08

>  <WPath>
1643

>  <WPol>
35

>  <Zagreb1>
130

>  <Zagreb2>
149

>  <mZagreb2>
5.39

>  <yes>


>  <nAR-cont>
1

>  <nHA-cont>
0.921834225

>  <MWHBN>
0.106270286

>  <MWHBN-cont>
0.764362676

>  <TPSA-cont>
0.835606376

>  <pka_cont>
0.97

>  <yes.1>


>  <BBB_SCORE>
5.224590992

>  <MMFF94 Energy>
78.879

$$$$
Compound 1792
Actelion Java MolfileCreator 2.0

  0  0  0  0  0  0              0 V3000
M  V30 BEGIN CTAB
M  V30 COUNTS 47 49 0 0 0
M  V30 BEGIN ATOM
M  V30 1 Cl 2.0231 -6.0787 -3.2385 0
M  V30 2 C 2.2654 -4.8579 -2.0388 0
M  V30 3 C 3.5208 -4.5904 -1.4841 0
M  V30 4 C 1.1476 -4.1263 -1.6206 0
M  V30 5 Cl 4.9434 -5.4557 -1.9464 0
M  V30 6 C 3.6532 -3.5904 -0.5171 0
M  V30 7 C 1.2722 -3.1278 -0.6428 0
M  V30 8 C 2.5365 -2.8618 -0.1001 0
M  V30 9 C 0.066 -2.3272 -0.2021 0
M  V30 10 C -0.0632 -0.9635 -0.8747 0
M  V30 11 O 0.6709 -0.6409 -1.8096 0
M  V30 12 N -1.045 -0.1051 -0.3741 0
M  V30 13 C -1.1769 1.2474 -0.9649 0 CFG=1
M  V30 14 C -2.1025 -0.4991 0.5606 0
M  V30 15 C -2.5431 1.328 -1.6776 0
M  V30 16 C -1.0098 2.4161 0.0582 0
M  V30 17 C -3.4672 -0.4271 -0.1207 0
M  V30 18 C -3.7041 0.9408 -0.7592 0
M  V30 19 N 0.3592 2.6588 0.5359 0
M  V30 20 C 0.9114 1.6026 1.3818 0
M  V30 21 C 0.4482 3.8816 1.3372 0
M  V30 22 C 2.0411 2.2806 2.1518 0
M  V30 23 C 1.8345 3.7739 1.943 0
M  V30 24 H 0.1765 -4.3306 -2.0668 0
M  V30 25 H 4.6271 -3.3665 -0.0884 0
M  V30 26 H 2.6633 -2.0744 0.6406 0
M  V30 27 H -0.8445 -2.9026 -0.4077 0
M  V30 28 H 0.1307 -2.1863 0.8837 0
M  V30 29 H -0.4096 1.3909 -1.7351 0
M  V30 30 H -2.0675 0.1728 1.4238 0
M  V30 31 H -1.9539 -1.5093 0.9452 0
M  V30 32 H -2.7083 2.333 -2.0827 0
M  V30 33 H -2.5349 0.6415 -2.5347 0
M  V30 34 H -1.3349 3.3316 -0.4543 0
M  V30 35 H -1.6879 2.2889 0.9102 0
M  V30 36 H -4.2593 -0.6418 0.605 0
M  V30 37 H -3.5239 -1.1985 -0.899 0
M  V30 38 H -3.8298 1.6968 0.0244 0
M  V30 39 H -4.6375 0.9222 -1.3332 0
M  V30 40 H 1.3039 0.7674 0.7969 0
M  V30 41 H 0.1696 1.2186 2.0927 0
M  V30 42 H 0.3467 4.785 0.7276 0
M  V30 43 H -0.3098 3.9028 2.1306 0
M  V30 44 H 3.0238 1.9767 1.7751 0
M  V30 45 H 1.9931 2.0215 3.2151 0
M  V30 46 H 2.588 4.1572 1.2441 0
M  V30 47 H 1.924 4.3374 2.8767 0
M  V30 END ATOM
M  V30 BEGIN BOND
M  V30 1 1 1 2
M  V30 2 2 2 3
M  V30 3 1 2 4
M  V30 4 1 3 5
M  V30 5 1 3 6
M  V30 6 2 4 7
M  V30 7 2 6 8
M  V30 8 1 7 9
M  V30 9 1 9 10
M  V30 10 2 10 11
M  V30 11 1 10 12
M  V30 12 1 12 13
M  V30 13 1 12 14
M  V30 14 1 13 15
M  V30 15 1 13 16
M  V30 16 1 14 17
M  V30 17 1 15 18
M  V30 18 1 16 19
M  V30 19 1 19 20
M  V30 20 1 19 21
M  V30 21 1 20 22
M  V30 22 1 21 23
M  V30 23 1 7 8
M  V30 24 1 17 18
M  V30 25 1 22 23
M  V30 26 1 4 24
M  V30 27 1 6 25
M  V30 28 1 8 26
M  V30 29 1 9 27
M  V30 30 1 9 28
M  V30 31 1 13 29
M  V30 32 1 14 30
M  V30 33 1 14 31
M  V30 34 1 15 32
M  V30 35 1 15 33
M  V30 36 1 16 34
M  V30 37 1 16 35
M  V30 38 1 17 36
M  V30 39 1 17 37
M  V30 40 1 18 38
M  V30 41 1 18 39
M  V30 42 1 20 40
M  V30 43 1 20 41
M  V30 44 1 21 42
M  V30 45 1 21 43
M  V30 46 1 22 44
M  V30 47 1 22 45
M  V30 48 1 23 46
M  V30 49 1 23 47
M  V30 END BOND
M  V30 BEGIN COLLECTION
M  V30 MDLV30/STEABS ATOMS=(1 13)
M  V30 END COLLECTION
M  V30 END CTAB
M  END
>  <Column 1>
2193

>  <level_0>
2374

>  <index>
2374

>  <Unnamed: 0>
2374

>  <NO.>
2386

>  <Name>
brl-52537

>  <IUPAC_name>
2-(3-4-dichlorophenyl)-1-[(2s)-2-(pyrrolidin-1-ylmethyl)piperidin-1-yl]ethanone

>  <SMILES>
O=C(Cc1ccc(Cl)c(Cl)c1)N1CCCC[C@H]1CN1CCCC1

>  <CID>
6603740

>  <logBB>


>  <BBB+/BBB->
BBB+

>  <Inchi>
InChI=1S/C18H24Cl2N2O/c19-16-7-6-14(11-17(16)20)12-18(23)22-10-2-1-5-15(22)13-21-8-3-4-9-21/h6-7-11-15H-1-5-8-10-12-13H2/t15-/m0/s1

>  <threshold>
-1

>  <reference>
R1|R13|R28|R9|R24|R27|R30|

>  <group>
B

>  <Class>
-1

>  <ABC>
17.88

>  <ABCGG>
14.8

>  <nAcid>
0

>  <nBase>
1

>  <nAromAtom>
6

>  <nAromBond>
6

>  <nAtom>
47

>  <nHeavyAtom>
23

>  <nSpiro>
0

>  <nBridgehead>
0

>  <nHetero>
5

>  <nN>
2

>  <nO>
1

>  <nF>
0

>  <BalabanJ>
1.52

>  <BertzCT>
557.95

>  <nBonds>
49

>  <nBondsO>
25

>  <nBondsS>
42

>  <nBondsD>
1

>  <nBondsT>
0

>  <nBondsA>
6

>  <nBondsM>
7

>  <nBondsKS>
45

>  <nBondsKD>
4

>  <RNCG>
0.23

>  <RPCG>
0.16

>  <FCSP3>
0.61

>  <SZ>
31.33

>  <Sm>
29.58

>  <Sv>
28.91

>  <Sse>
46.84

>  <Sp>
31.99

>  <Si>
53.08

>  <MZ>
0.67

>  <Mm>
0.63

>  <Mv>
0.62

>  <Mse>
1

>  <Mp>
0.68

>  <Mi>
1.13

>  <NsCH3>
0

>  <NdCH2>
0

>  <NssCH2>
10

>  <NtCH>
0

>  <NdsCH>
0

>  <NaaCH>
3

>  <NsssCH>
1

>  <NddC>
0

>  <NtsC>
0

>  <NdssC>
1

>  <NaasC>
3

>  <NaaaC>
0

>  <NssssC>
0

>  <NsNH3>
0

>  <NsNH2>
0

>  <NssNH2>
0

>  <NdNH>
0

>  <NssNH>
0

>  <NaaNH>
0

>  <NtN>
0

>  <NsssNH>
0

>  <NdsN>
0

>  <NaaN>
0

>  <NsssN>
2

>  <NddsN>
0

>  <NaasN>
0

>  <NssssN>
0

>  <NsOH>
0

>  <NdO>
1

>  <NssO>
0

>  <NaaO>
0

>  <NsF>
0

>  <NsSiH3>
0

>  <NssSiH2>
0

>  <NsssSiH>
0

>  <NssssSi>
0

>  <NsPH2>
0

>  <NssPH>
0

>  <NsssP>
0

>  <NdsssP>
0

>  <NsssssP>
0

>  <NsSH>
0

>  <NdS>
0

>  <NssS>
0

>  <NaaS>
0

>  <NdssS>
0

>  <NddssS>
0

>  <NsCl>
2

>  <NsBr>
0

>  <NsI>
0

>  <fragCpx>
119.05

>  <fMF>
0.43

>  <nHBAcc>
2

>  <nHBDon>
0

>  <Kier1>
17.81

>  <Kier2>
8.39

>  <Lipinski>
1

>  <GhoseFilter>
1

>  <FilterItLogS>
-4.83

>  <VMcGowan>
265.01

>  <LabuteASA>
148.09

>  <PEOE_VSA1>
9.8

>  <PEOE_VSA2>
4.79

>  <PEOE_VSA3>
0

>  <PEOE_VSA4>
0

>  <PEOE_VSA5>
0

>  <PEOE_VSA6>
29.27

>  <PEOE_VSA7>
62.89

>  <PEOE_VSA8>
19.13

>  <PEOE_VSA9>
16.47

>  <PEOE_VSA10>
0

>  <PEOE_VSA11>
0

>  <PEOE_VSA12>
5.91

>  <PEOE_VSA13>
0

>  <SMR_VSA1>
4.79

>  <SMR_VSA2>
0

>  <SMR_VSA3>
9.8

>  <SMR_VSA4>
0

>  <SMR_VSA5>
44.57

>  <SMR_VSA6>
26.18

>  <SMR_VSA7>
33.81

>  <SMR_VSA8>
0

>  <SMR_VSA9>
0

>  <SlogP_VSA1>
0

>  <SlogP_VSA2>
47.93

>  <SlogP_VSA3>
11.22

>  <SlogP_VSA4>
0

>  <SlogP_VSA5>
37.67

>  <SlogP_VSA6>
18.2

>  <SlogP_VSA7>
10.05

>  <SlogP_VSA8>
0

>  <SlogP_VSA9>
0

>  <SlogP_VSA10>
0

>  <SlogP_VSA11>
0

>  <EState_VSA1>
0

>  <EState_VSA2>
5.91

>  <EState_VSA3>
22.51

>  <EState_VSA4>
31.49

>  <EState_VSA5>
32.35

>  <EState_VSA6>
12.13

>  <EState_VSA7>
6.07

>  <EState_VSA8>
9.8

>  <EState_VSA9>
23.2

>  <EState_VSA10>
4.79

>  <VSA_EState1>
0

>  <VSA_EState2>
17.39

>  <VSA_EState3>
1.05

>  <VSA_EState4>
0.94

>  <VSA_EState5>
0.22

>  <VSA_EState6>
5.84

>  <VSA_EState7>
6.48

>  <VSA_EState8>
4.29

>  <VSA_EState9>
0

>  <apol>
53.43

>  <bpol>
29.38

>  <nRing>
3

>  <nHRing>
2

>  <naRing>
1

>  <naHRing>
0

>  <nARing 2>
2

>  <nAHRing 2>
2

>  <nFRing>
0

>  <nFHRing>
0

>  <nFaRing>
0

>  <nFaHRing>
0

>  <nFARing 2>
0

>  <nFAHRing 2>
0

>  <nRot>
4

>  <SLogP>
4.01

>  <SMR>
95.19

>  <TopoPSA(NO)>
23.55

>  <TopoPSA>
23.55

>  <JGI1>
0.18

>  <JGI2>
0.07

>  <JGI3>
0.05

>  <JGI4>
0.04

>  <JGI5>
0.02

>  <Diameter>
12

>  <Radius>
6

>  <TMWC10>
121.57

>  <TSRW10>
70.16

>  <MW>
354.13

>  <AMW>
7.53

>  <WPath>
1261

>  <WPol>
32

>  <Zagreb1>
118

>  <Zagreb2>
136

>  <mZagreb2>
5.08

>  <yes>


>  <nAR-cont>
1

>  <nHA-cont>
0.967789328

>  <MWHBN>
0.106279288

>  <MWHBN-cont>
0.764409168

>  <TPSA-cont>
0.835606376

>  <pka_cont>
0.97

>  <yes.1>


>  <BBB_SCORE>
5.270615833

>  <MMFF94 Energy>
64.801

$$$$
Compound 1793
Actelion Java MolfileCreator 2.0

  0  0  0  0  0  0              0 V3000
M  V30 BEGIN CTAB
M  V30 COUNTS 54 56 0 0 0
M  V30 BEGIN ATOM
M  V30 1 Cl 2.9062 3.9572 -5.3329 0
M  V30 2 C 1.2672 3.5212 -4.9985 0
M  V30 3 C 0.1828 4.1373 -5.631 0
M  V30 4 C 1.0428 2.5087 -4.0587 0
M  V30 5 Cl 0.3821 5.3896 -6.805 0
M  V30 6 C -1.12 3.7408 -5.3173 0
M  V30 7 C -0.2627 2.0984 -3.7476 0
M  V30 8 C -1.3422 2.7295 -4.3792 0
M  V30 9 C -0.4994 1.0154 -2.7175 0
M  V30 10 C -0.6201 1.5267 -1.2839 0
M  V30 11 O -0.6392 2.7343 -1.0372 0
M  V30 12 N -0.7422 0.5723 -0.279 0
M  V30 13 C -0.5972 -0.8941 -0.4503 0 CFG=2
M  V30 14 C -0.8692 1.0282 1.1083 0
M  V30 15 C -1.5926 -1.6753 0.451 0
M  V30 16 C 0.8905 -1.3669 -0.3659 0
M  V30 17 C -1.9202 0.2288 1.899 0
M  V30 18 N -1.6824 -1.2278 1.8554 0
M  V30 19 N 1.6117 -1.1405 0.891 0
M  V30 20 C -2.7335 -1.9859 2.5675 0
M  V30 21 C 3.0516 -0.9293 0.6842 0
M  V30 22 C 1.5481 -2.2719 1.8219 0
M  V30 23 C -2.8084 -1.7061 4.0783 0
M  V30 24 C 3.6973 -1.2338 2.0427 0 CFG=1
M  V30 25 C 2.5956 -1.8974 2.8588 0
M  V30 26 O -3.6139 -0.5608 4.3452 0
M  V30 27 O 4.7872 -2.1416 1.8995 0
M  V30 28 H 1.8902 2.044 -3.5589 0
M  V30 29 H -1.9703 4.2218 -5.7949 0
M  V30 30 H -2.365 2.4477 -4.1357 0
M  V30 31 H -1.4214 0.4779 -2.971 0
M  V30 32 H 0.3224 0.2958 -2.7845 0
M  V30 33 H -0.9041 -1.1288 -1.4761 0
M  V30 34 H -1.1393 2.0891 1.144 0
M  V30 35 H 0.1139 0.9408 1.5824 0
M  V30 36 H -1.3324 -2.7406 0.4176 0
M  V30 37 H -2.5872 -1.5821 -0.0088 0
M  V30 38 H 1.4199 -0.8186 -1.1565 0
M  V30 39 H 0.948 -2.4232 -0.6609 0
M  V30 40 H -2.9169 0.4605 1.5007 0
M  V30 41 H -1.8806 0.588 2.9325 0
M  V30 42 H -2.5018 -3.0527 2.4566 0
M  V30 43 H -3.7142 -1.807 2.1083 0
M  V30 44 H 3.2455 0.1059 0.3845 0
M  V30 45 H 3.4573 -1.5932 -0.0901 0
M  V30 46 H 1.8244 -3.2158 1.3343 0
M  V30 47 H 0.572 -2.3983 2.2912 0
M  V30 48 H -3.2755 -2.5579 4.5838 0
M  V30 49 H -1.8116 -1.5569 4.507 0
M  V30 50 H 4.0589 -0.3304 2.5455 0
M  V30 51 H 2.1681 -1.171 3.5615 0
M  V30 52 H 2.9373 -2.7697 3.4244 0
M  V30 53 H -3.5521 -0.3913 5.3009 0
M  V30 54 H 5.4912 -1.671 1.421 0
M  V30 END ATOM
M  V30 BEGIN BOND
M  V30 1 1 1 2
M  V30 2 2 2 3
M  V30 3 1 2 4
M  V30 4 1 3 5
M  V30 5 1 3 6
M  V30 6 2 4 7
M  V30 7 2 6 8
M  V30 8 1 7 9
M  V30 9 1 9 10
M  V30 10 2 10 11
M  V30 11 1 10 12
M  V30 12 1 12 13
M  V30 13 1 12 14
M  V30 14 1 13 15
M  V30 15 1 13 16
M  V30 16 1 14 17
M  V30 17 1 15 18
M  V30 18 1 16 19
M  V30 19 1 18 20
M  V30 20 1 19 21
M  V30 21 1 19 22
M  V30 22 1 20 23
M  V30 23 1 21 24
M  V30 24 1 22 25
M  V30 25 1 23 26
M  V30 26 1 24 27
M  V30 27 1 7 8
M  V30 28 1 17 18
M  V30 29 1 24 25
M  V30 30 1 4 28
M  V30 31 1 6 29
M  V30 32 1 8 30
M  V30 33 1 9 31
M  V30 34 1 9 32
M  V30 35 1 13 33
M  V30 36 1 14 34
M  V30 37 1 14 35
M  V30 38 1 15 36
M  V30 39 1 15 37
M  V30 40 1 16 38
M  V30 41 1 16 39
M  V30 42 1 17 40
M  V30 43 1 17 41
M  V30 44 1 20 42
M  V30 45 1 20 43
M  V30 46 1 21 44
M  V30 47 1 21 45
M  V30 48 1 22 46
M  V30 49 1 22 47
M  V30 50 1 23 48
M  V30 51 1 23 49
M  V30 52 1 24 50
M  V30 53 1 25 51
M  V30 54 1 25 52
M  V30 55 1 26 53
M  V30 56 1 27 54
M  V30 END BOND
M  V30 BEGIN COLLECTION
M  V30 MDLV30/STEABS ATOMS=(2 13 24)
M  V30 END COLLECTION
M  V30 END CTAB
M  END
>  <Column 1>
2194

>  <level_0>
2375

>  <index>
2375

>  <Unnamed: 0>
2375

>  <NO.>
2387

>  <Name>
sb205563

>  <IUPAC_name>
2-(3-4-dichlorophenyl)-1-[(2r)-4-(2-hydroxyethyl)-2-[[(3r)-3-hydroxypyrrolidin-1-yl]methyl]piperazin-1-yl]ethanone

>  <SMILES>
O=C(Cc1ccc(Cl)c(Cl)c1)N1CCN(CCO)C[C@@H]1CN1CC[C@@H](O)C1

>  <CID>
44310721

>  <logBB>


>  <BBB+/BBB->
BBB-

>  <Inchi>
InChI=1S/C19H27Cl2N3O3/c20-17-2-1-14(9-18(17)21)10-19(27)24-6-5-22(7-8-25)11-15(24)12-23-4-3-16(26)13-23/h1-2-9-15-16-25-26H-3-8-10-13H2/t15--16-/m1/s1

>  <threshold>
-1

>  <reference>
R1|R28|R9|R24|R27|R30|

>  <group>
B

>  <Class>
-1

>  <ABC>
20.82

>  <ABCGG>
16.9

>  <nAcid>
0

>  <nBase>
2

>  <nAromAtom>
6

>  <nAromBond>
6

>  <nAtom>
54

>  <nHeavyAtom>
27

>  <nSpiro>
0

>  <nBridgehead>
0

>  <nHetero>
8

>  <nN>
3

>  <nO>
3

>  <nF>
0

>  <BalabanJ>
1.58

>  <BertzCT>
661.09

>  <nBonds>
56

>  <nBondsO>
29

>  <nBondsS>
49

>  <nBondsD>
1

>  <nBondsT>
0

>  <nBondsA>
6

>  <nBondsM>
7

>  <nBondsKS>
52

>  <nBondsKD>
4

>  <RNCG>
0.17

>  <RPCG>
0.1

>  <FCSP3>
0.63

>  <SZ>
36.67

>  <Sm>
34.66

>  <Sv>
32.91

>  <Sse>
54.5

>  <Sp>
35.81

>  <Si>
61.41

>  <MZ>
0.68

>  <Mm>
0.64

>  <Mv>
0.61

>  <Mse>
1.01

>  <Mp>
0.66

>  <Mi>
1.14

>  <NsCH3>
0

>  <NdCH2>
0

>  <NssCH2>
10

>  <NtCH>
0

>  <NdsCH>
0

>  <NaaCH>
3

>  <NsssCH>
2

>  <NddC>
0

>  <NtsC>
0

>  <NdssC>
1

>  <NaasC>
3

>  <NaaaC>
0

>  <NssssC>
0

>  <NsNH3>
0

>  <NsNH2>
0

>  <NssNH2>
0

>  <NdNH>
0

>  <NssNH>
0

>  <NaaNH>
0

>  <NtN>
0

>  <NsssNH>
0

>  <NdsN>
0

>  <NaaN>
0

>  <NsssN>
3

>  <NddsN>
0

>  <NaasN>
0

>  <NssssN>
0

>  <NsOH>
2

>  <NdO>
1

>  <NssO>
0

>  <NaaO>
0

>  <NsF>
0

>  <NsSiH3>
0

>  <NssSiH2>
0

>  <NsssSiH>
0

>  <NssssSi>
0

>  <NsPH2>
0

>  <NssPH>
0

>  <NsssP>
0

>  <NdsssP>
0

>  <NsssssP>
0

>  <NsSH>
0

>  <NdS>
0

>  <NssS>
0

>  <NaaS>
0

>  <NdssS>
0

>  <NddssS>
0

>  <NsCl>
2

>  <NsBr>
0

>  <NsI>
0

>  <fragCpx>
139.08

>  <fMF>
0.37

>  <nHBAcc>
5

>  <nHBDon>
2

>  <Kier1>
21.7

>  <Kier2>
10.16

>  <Lipinski>
1

>  <GhoseFilter>
1

>  <FilterItLogS>
-3.27

>  <VMcGowan>
300.82

>  <LabuteASA>
169.8

>  <PEOE_VSA1>
15.11

>  <PEOE_VSA2>
14.59

>  <PEOE_VSA3>
0

>  <PEOE_VSA4>
0

>  <PEOE_VSA5>
0

>  <PEOE_VSA6>
29.27

>  <PEOE_VSA7>
24.12

>  <PEOE_VSA8>
45.81

>  <PEOE_VSA9>
35.22

>  <PEOE_VSA10>
0

>  <PEOE_VSA11>
0

>  <PEOE_VSA12>
5.91

>  <PEOE_VSA13>
0

>  <SMR_VSA1>
15.01

>  <SMR_VSA2>
0

>  <SMR_VSA3>
14.7

>  <SMR_VSA4>
0

>  <SMR_VSA5>
24.99

>  <SMR_VSA6>
52.42

>  <SMR_VSA7>
33.81

>  <SMR_VSA8>
0

>  <SMR_VSA9>
0

>  <SlogP_VSA1>
0

>  <SlogP_VSA2>
95.39

>  <SlogP_VSA3>
11.22

>  <SlogP_VSA4>
0

>  <SlogP_VSA5>
11.98

>  <SlogP_VSA6>
18.2

>  <SlogP_VSA7>
10.05

>  <SlogP_VSA8>
0

>  <SlogP_VSA9>
0

>  <SlogP_VSA10>
0

>  <SlogP_VSA11>
0

>  <EState_VSA1>
0

>  <EState_VSA2>
31.08

>  <EState_VSA3>
29.68

>  <EState_VSA4>
38.16

>  <EState_VSA5>
0

>  <EState_VSA6>
12.13

>  <EState_VSA7>
10.97

>  <EState_VSA8>
9.8

>  <EState_VSA9>
23.2

>  <EState_VSA10>
15.01

>  <VSA_EState1>
0

>  <VSA_EState2>
19.35

>  <VSA_EState3>
19.99

>  <VSA_EState4>
0.85

>  <VSA_EState5>
0.07

>  <VSA_EState6>
5.34

>  <VSA_EState7>
0.79

>  <VSA_EState8>
5.12

>  <VSA_EState9>
0

>  <apol>
59.8

>  <bpol>
34.1

>  <nRing>
3

>  <nHRing>
2

>  <naRing>
1

>  <naHRing>
0

>  <nARing 2>
2

>  <nAHRing 2>
2

>  <nFRing>
0

>  <nFHRing>
0

>  <nFaRing>
0

>  <nFaHRing>
0

>  <nFARing 2>
0

>  <nFAHRing 2>
0

>  <nRot>
6

>  <SLogP>
1.11

>  <SMR>
106.26

>  <TopoPSA(NO)>
67.25

>  <TopoPSA>
67.25

>  <JGI1>
0.22

>  <JGI2>
0.07

>  <JGI3>
0.05

>  <JGI4>
0.04

>  <JGI5>
0.03

>  <Diameter>
13

>  <Radius>
7

>  <TMWC10>
131.21

>  <TSRW10>
75.39

>  <MW>
415.14

>  <AMW>
7.69

>  <WPath>
1943

>  <WPol>
39

>  <Zagreb1>
138

>  <Zagreb2>
159

>  <mZagreb2>
6

>  <yes>


>  <nAR-cont>
1

>  <nHA-cont>
0.860070871

>  <MWHBN>
0.343558541

>  <MWHBN-cont>
0.694130653

>  <TPSA-cont>
0.53055324

>  <pka_cont>
0.97

>  <yes.1>


>  <BBB_SCORE>
4.447373332

>  <MMFF94 Energy>
167.42

$$$$
Compound 1794
Actelion Java MolfileCreator 2.0

  0  0  0  0  0  0              0 V3000
M  V30 BEGIN CTAB
M  V30 COUNTS 48 51 0 0 0
M  V30 BEGIN ATOM
M  V30 1 Cl -5.2144 3.5011 -1.953 0
M  V30 2 C -3.8175 2.9967 -2.8371 0
M  V30 3 C -3.7824 2.9741 -4.2348 0
M  V30 4 C -2.6912 2.604 -2.1053 0
M  V30 5 Cl -5.1311 3.4497 -5.205 0
M  V30 6 C -2.6233 2.5548 -4.8932 0
M  V30 7 C -1.5205 2.1923 -2.7609 0
M  V30 8 C -1.4997 2.1633 -4.1612 0
M  V30 9 C -0.3131 1.7505 -1.9631 0
M  V30 10 C -0.3146 0.2715 -1.5921 0
M  V30 11 O -1.1785 -0.4973 -2.0191 0
M  V30 12 N 0.7055 -0.174 -0.7568 0
M  V30 13 C 0.5957 -1.5855 -0.2587 0 CFG=1
M  V30 14 C 1.7683 0.6879 -0.1829 0
M  V30 15 C 1.9523 -2.0981 0.1313 0
M  V30 16 C -0.4822 -1.7426 0.8582 0
M  V30 17 C 3.183 0.0712 -0.2881 0
M  V30 18 N 2.2279 -3.3771 0.5459 0
M  V30 19 C 3.105 -1.3475 0.1102 0
M  V30 20 N -0.4053 -0.8154 2.014 0
M  V30 21 C 3.5258 -3.3955 0.765 0
M  V30 22 N 4.1056 -2.1797 0.5116 0
M  V30 23 C 0.6258 -1.2024 2.9828 0
M  V30 24 C -1.6527 -0.8342 2.7857 0
M  V30 25 C 0.2226 -0.4608 4.2516 0
M  V30 26 C -1.2578 -0.1468 4.0809 0
M  V30 27 H -2.7291 2.6092 -1.0176 0
M  V30 28 H -2.5903 2.5229 -5.9795 0
M  V30 29 H -0.6129 1.8233 -4.6925 0
M  V30 30 H 0.5947 1.965 -2.5396 0
M  V30 31 H -0.27 2.3492 -1.0453 0
M  V30 32 H 0.2656 -2.2006 -1.107 0
M  V30 33 H 1.5082 0.8583 0.8677 0
M  V30 34 H 1.7891 1.6688 -0.6619 0
M  V30 35 H -1.4519 -1.5659 0.3736 0
M  V30 36 H -0.5077 -2.7853 1.2031 0
M  V30 37 H 3.8833 0.6295 0.3413 0
M  V30 38 H 3.532 0.1336 -1.3253 0
M  V30 39 H 4.0982 -4.2495 1.1017 0
M  V30 40 H 5.088 -1.9597 0.6036 0
M  V30 41 H 1.6302 -0.9059 2.6714 0
M  V30 42 H 0.6226 -2.2828 3.1752 0
M  V30 43 H -2.46 -0.2978 2.277 0
M  V30 44 H -1.987 -1.859 2.9931 0
M  V30 45 H 0.7913 0.4697 4.3618 0
M  V30 46 H 0.4039 -1.0728 5.1413 0
M  V30 47 H -1.3993 0.9377 4.0012 0
M  V30 48 H -1.8522 -0.5016 4.9286 0
M  V30 END ATOM
M  V30 BEGIN BOND
M  V30 1 1 1 2
M  V30 2 2 2 3
M  V30 3 1 2 4
M  V30 4 1 3 5
M  V30 5 1 3 6
M  V30 6 2 4 7
M  V30 7 2 6 8
M  V30 8 1 7 9
M  V30 9 1 9 10
M  V30 10 2 10 11
M  V30 11 1 10 12
M  V30 12 1 12 13
M  V30 13 1 12 14
M  V30 14 1 13 15
M  V30 15 1 13 16
M  V30 16 1 14 17
M  V30 17 1 15 18
M  V30 18 2 15 19
M  V30 19 1 16 20
M  V30 20 2 18 21
M  V30 21 1 19 22
M  V30 22 1 20 23
M  V30 23 1 20 24
M  V30 24 1 23 25
M  V30 25 1 24 26
M  V30 26 1 7 8
M  V30 27 1 17 19
M  V30 28 1 21 22
M  V30 29 1 25 26
M  V30 30 1 4 27
M  V30 31 1 6 28
M  V30 32 1 8 29
M  V30 33 1 9 30
M  V30 34 1 9 31
M  V30 35 1 13 32
M  V30 36 1 14 33
M  V30 37 1 14 34
M  V30 38 1 16 35
M  V30 39 1 16 36
M  V30 40 1 17 37
M  V30 41 1 17 38
M  V30 42 1 21 39
M  V30 43 1 22 40
M  V30 44 1 23 41
M  V30 45 1 23 42
M  V30 46 1 24 43
M  V30 47 1 24 44
M  V30 48 1 25 45
M  V30 49 1 25 46
M  V30 50 1 26 47
M  V30 51 1 26 48
M  V30 END BOND
M  V30 BEGIN COLLECTION
M  V30 MDLV30/STEABS ATOMS=(1 13)
M  V30 END COLLECTION
M  V30 END CTAB
M  END
>  <Column 1>
2195

>  <level_0>
2376

>  <index>
2376

>  <Unnamed: 0>
2376

>  <NO.>
2388

>  <Name>
brl52974

>  <IUPAC_name>
2-(3-4-dichlorophenyl)-1-[(4r)-4-(pyrrolidin-1-ylmethyl)-1-4-6-7-tetrahydroimidazo[4-5-c]pyridin-5-yl]ethanone

>  <SMILES>
O=C(Cc1ccc(Cl)c(Cl)c1)N1CCc2[nH]cnc2[C@H]1CN1CCCC1

>  <CID>
44310436

>  <logBB>


>  <BBB+/BBB->
BBB-

>  <Inchi>
InChI=1S/C19H22Cl2N4O/c20-14-4-3-13(9-15(14)21)10-18(26)25-8-5-16-19(23-12-22-16)17(25)11-24-6-1-2-7-24/h3-4-9-12-17H-1-2-5-8-10-11H2-(H-22-23)/t17-/m1/s1

>  <threshold>
-1

>  <reference>
R1|R28|R9|R24|R27|R30|

>  <group>
B

>  <Class>
-1

>  <ABC>
20.63

>  <ABCGG>
17.07

>  <nAcid>
0

>  <nBase>
1

>  <nAromAtom>
11

>  <nAromBond>
11

>  <nAtom>
48

>  <nHeavyAtom>
26

>  <nSpiro>
0

>  <nBridgehead>
0

>  <nHetero>
7

>  <nN>
4

>  <nO>
1

>  <nF>
0

>  <BalabanJ>
1.4

>  <BertzCT>
800.59

>  <nBonds>
51

>  <nBondsO>
29

>  <nBondsS>
39

>  <nBondsD>
1

>  <nBondsT>
0

>  <nBondsA>
11

>  <nBondsM>
12

>  <nBondsKS>
45

>  <nBondsKD>
6

>  <RNCG>
0.18

>  <RPCG>
0.12

>  <FCSP3>
0.47

>  <SZ>
34.33

>  <Sm>
32.75

>  <Sv>
30.89

>  <Sse>
48.28

>  <Sp>
33.51

>  <Si>
54.24

>  <MZ>
0.72

>  <Mm>
0.68

>  <Mv>
0.64

>  <Mse>
1.01

>  <Mp>
0.7

>  <Mi>
1.13

>  <NsCH3>
0

>  <NdCH2>
0

>  <NssCH2>
8

>  <NtCH>
0

>  <NdsCH>
0

>  <NaaCH>
4

>  <NsssCH>
1

>  <NddC>
0

>  <NtsC>
0

>  <NdssC>
1

>  <NaasC>
5

>  <NaaaC>
0

>  <NssssC>
0

>  <NsNH3>
0

>  <NsNH2>
0

>  <NssNH2>
0

>  <NdNH>
0

>  <NssNH>
0

>  <NaaNH>
1

>  <NtN>
0

>  <NsssNH>
0

>  <NdsN>
0

>  <NaaN>
1

>  <NsssN>
2

>  <NddsN>
0

>  <NaasN>
0

>  <NssssN>
0

>  <NsOH>
0

>  <NdO>
1

>  <NssO>
0

>  <NaaO>
0

>  <NsF>
0

>  <NsSiH3>
0

>  <NssSiH2>
0

>  <NsssSiH>
0

>  <NssssSi>
0

>  <NsPH2>
0

>  <NssPH>
0

>  <NsssP>
0

>  <NdsssP>
0

>  <NsssssP>
0

>  <NsSH>
0

>  <NdS>
0

>  <NssS>
0

>  <NaaS>
0

>  <NdssS>
0

>  <NddssS>
0

>  <NsCl>
2

>  <NsBr>
0

>  <NsI>
0

>  <fragCpx>
191.07

>  <fMF>
0.48

>  <nHBAcc>
3

>  <nHBDon>
1

>  <Kier1>
19.32

>  <Kier2>
8.57

>  <Lipinski>
1

>  <GhoseFilter>
1

>  <FilterItLogS>
-5.45

>  <VMcGowan>
279.6

>  <LabuteASA>
162.84

>  <PEOE_VSA1>
14.78

>  <PEOE_VSA2>
4.79

>  <PEOE_VSA3>
4.98

>  <PEOE_VSA4>
0

>  <PEOE_VSA5>
0

>  <PEOE_VSA6>
29.27

>  <PEOE_VSA7>
43.63

>  <PEOE_VSA8>
25.2

>  <PEOE_VSA9>
34.53

>  <PEOE_VSA10>
0

>  <PEOE_VSA11>
0

>  <PEOE_VSA12>
5.91

>  <PEOE_VSA13>
0

>  <SMR_VSA1>
4.79

>  <SMR_VSA2>
0

>  <SMR_VSA3>
19.77

>  <SMR_VSA4>
0

>  <SMR_VSA5>
31.73

>  <SMR_VSA6>
26.18

>  <SMR_VSA7>
51.52

>  <SMR_VSA8>
0

>  <SMR_VSA9>
0

>  <SlogP_VSA1>
0

>  <SlogP_VSA2>
51.85

>  <SlogP_VSA3>
17.64

>  <SlogP_VSA4>
0

>  <SlogP_VSA5>
35.83

>  <SlogP_VSA6>
24.53

>  <SlogP_VSA7>
10.05

>  <SlogP_VSA8>
0

>  <SlogP_VSA9>
0

>  <SlogP_VSA10>
0

>  <SlogP_VSA11>
0

>  <EState_VSA1>
0

>  <EState_VSA2>
11.95

>  <EState_VSA3>
23.01

>  <EState_VSA4>
43.01

>  <EState_VSA5>
12.84

>  <EState_VSA6>
18.46

>  <EState_VSA7>
10.97

>  <EState_VSA8>
14.87

>  <EState_VSA9>
23.2

>  <EState_VSA10>
4.79

>  <VSA_EState1>
0

>  <VSA_EState2>
25.27

>  <VSA_EState3>
0.99

>  <VSA_EState4>
3.07

>  <VSA_EState5>
0.11

>  <VSA_EState6>
5.4

>  <VSA_EState7>
5.36

>  <VSA_EState8>
3.77

>  <VSA_EState9>
0

>  <apol>
55.96

>  <bpol>
29.09

>  <nRing>
4

>  <nHRing>
3

>  <naRing>
2

>  <naHRing>
1

>  <nARing 2>
2

>  <nAHRing 2>
2

>  <nFRing>
1

>  <nFHRing>
1

>  <nFaRing>
0

>  <nFaHRing>
0

>  <nFARing 2>
1

>  <nFAHRing 2>
1

>  <nRot>
4

>  <SLogP>
3.48

>  <SMR>
102.59

>  <TopoPSA(NO)>
52.23

>  <TopoPSA>
52.23

>  <JGI1>
0.17

>  <JGI2>
0.08

>  <JGI3>
0.04

>  <JGI4>
0.04

>  <JGI5>
0.02

>  <Diameter>
12

>  <Radius>
6

>  <TMWC10>
131.17

>  <TSRW10>
76.5

>  <MW>
392.12

>  <AMW>
8.17

>  <WPath>
1668

>  <WPol>
39

>  <Zagreb1>
140

>  <Zagreb2>
166

>  <mZagreb2>
5.64

>  <yes>


>  <nAR-cont>
1

>  <nHA-cont>
0.892715677

>  <MWHBN>
0.201999593

>  <MWHBN-cont>
0.999893002

>  <TPSA-cont>
0.635402167

>  <pka_cont>
0.97

>  <yes.1>


>  <BBB_SCORE>
5.148359514

>  <MMFF94 Energy>
102.85

$$$$
Compound 1795
Actelion Java MolfileCreator 2.0

  0  0  0  0  0  0              0 V3000
M  V30 BEGIN CTAB
M  V30 COUNTS 49 52 0 0 0
M  V30 BEGIN ATOM
M  V30 1 Cl 4.4003 -0.6509 3.2581 0
M  V30 2 C 2.8142 -1.3202 3.4113 0
M  V30 3 C 2.3378 -1.861 4.6095 0
M  V30 4 C 1.9924 -1.3044 2.2795 0
M  V30 5 Cl 3.2945 -1.9149 6.0474 0
M  V30 6 C 1.0416 -2.3802 4.6694 0
M  V30 7 C 0.6897 -1.8234 2.3324 0
M  V30 8 C 0.2217 -2.36 3.5383 0
M  V30 9 C -0.1982 -1.7756 1.106 0
M  V30 10 C -1.2081 -0.6266 1.1253 0
M  V30 11 O -1.6948 -0.2376 2.1919 0
M  V30 12 N -1.5859 -0.0496 -0.0802 0
M  V30 13 C -1.1337 -0.5236 -1.4267 0 CFG=1
M  V30 14 C -2.5491 1.0765 -0.0601 0
M  V30 15 C -2.3405 -0.5411 -2.3331 0
M  V30 16 C 0.0052 0.3439 -2.0427 0
M  V30 17 C -3.8826 0.7101 -0.7526 0
M  V30 18 N -2.3821 -1.1115 -3.5781 0
M  V30 19 C -3.5594 0.0203 -2.0229 0
M  V30 20 N 1.2219 0.5031 -1.2137 0
M  V30 21 C -3.6099 -0.9053 -4.0082 0
M  V30 22 N -4.3671 -0.2201 -3.093 0
M  V30 23 C 1.1267 1.6178 -0.2506 0
M  V30 24 C 2.3843 0.847 -2.0464 0
M  V30 25 C 2.5716 2.0942 -0.0238 0 CFG=1
M  V30 26 C 3.4045 1.2997 -1.0178 0
M  V30 27 O 2.6992 3.4839 -0.3173 0
M  V30 28 H 2.3691 -0.8853 1.3485 0
M  V30 29 H 0.6576 -2.7951 5.5983 0
M  V30 30 H -0.7931 -2.7486 3.6083 0
M  V30 31 H 0.457 -1.7225 0.235 0
M  V30 32 H -0.7593 -2.7139 1.0203 0
M  V30 33 H -0.7891 -1.5589 -1.3491 0
M  V30 34 H -2.0718 1.9143 -0.5833 0
M  V30 35 H -2.7518 1.4149 0.9608 0
M  V30 36 H 0.2909 -0.1553 -2.98 0
M  V30 37 H -0.3823 1.3264 -2.346 0
M  V30 38 H -4.4796 1.6114 -0.9238 0
M  V30 39 H -4.4571 0.0323 -0.1108 0
M  V30 40 H -4.0085 -1.2255 -4.9618 0
M  V30 41 H -5.3379 0.042 -3.2012 0
M  V30 42 H 0.7023 1.275 0.6957 0
M  V30 43 H 0.51 2.4442 -0.6245 0
M  V30 44 H 2.1581 1.6635 -2.7447 0
M  V30 45 H 2.7467 -0.0154 -2.6145 0
M  V30 46 H 2.9163 1.9212 1.0009 0
M  V30 47 H 3.841 0.4234 -0.5227 0
M  V30 48 H 4.2104 1.8826 -1.4741 0
M  V30 49 H 2.2239 3.9691 0.3791 0
M  V30 END ATOM
M  V30 BEGIN BOND
M  V30 1 1 1 2
M  V30 2 2 2 3
M  V30 3 1 2 4
M  V30 4 1 3 5
M  V30 5 1 3 6
M  V30 6 2 4 7
M  V30 7 2 6 8
M  V30 8 1 7 9
M  V30 9 1 9 10
M  V30 10 2 10 11
M  V30 11 1 10 12
M  V30 12 1 12 13
M  V30 13 1 12 14
M  V30 14 1 13 15
M  V30 15 1 13 16
M  V30 16 1 14 17
M  V30 17 1 15 18
M  V30 18 2 15 19
M  V30 19 1 16 20
M  V30 20 2 18 21
M  V30 21 1 19 22
M  V30 22 1 20 23
M  V30 23 1 20 24
M  V30 24 1 23 25
M  V30 25 1 24 26
M  V30 26 1 25 27
M  V30 27 1 7 8
M  V30 28 1 17 19
M  V30 29 1 21 22
M  V30 30 1 25 26
M  V30 31 1 4 28
M  V30 32 1 6 29
M  V30 33 1 8 30
M  V30 34 1 9 31
M  V30 35 1 9 32
M  V30 36 1 13 33
M  V30 37 1 14 34
M  V30 38 1 14 35
M  V30 39 1 16 36
M  V30 40 1 16 37
M  V30 41 1 17 38
M  V30 42 1 17 39
M  V30 43 1 21 40
M  V30 44 1 22 41
M  V30 45 1 23 42
M  V30 46 1 23 43
M  V30 47 1 24 44
M  V30 48 1 24 45
M  V30 49 1 25 46
M  V30 50 1 26 47
M  V30 51 1 26 48
M  V30 52 1 27 49
M  V30 END BOND
M  V30 BEGIN COLLECTION
M  V30 MDLV30/STEABS ATOMS=(2 13 25)
M  V30 END COLLECTION
M  V30 END CTAB
M  END
>  <Column 1>
2196

>  <level_0>
2377

>  <index>
2377

>  <Unnamed: 0>
2377

>  <NO.>
2389

>  <Name>
sb205605

>  <IUPAC_name>


>  <SMILES>
O=C(Cc1ccc(Cl)c(Cl)c1)N1CCc2[nH]cnc2[C@H]1CN1CC[C@@H](O)C1

>  <CID>


>  <logBB>


>  <BBB+/BBB->
BBB-

>  <Inchi>
InChI=1S/C19H22Cl2N4O2/c20-14-2-1-12(7-15(14)21)8-18(27)25-6-4-16-19(23-11-22-16)17(25)10-24-5-3-13(26)9-24/h1-2-7-11-13-17-26H-3-6-8-10H2-(H-22-23)/t13--17-/m1/s1

>  <threshold>
-1

>  <reference>
R1|R28|R9|R24|R27|R30|

>  <group>
B

>  <Class>
1

>  <ABC>
21.45

>  <ABCGG>
17.6

>  <nAcid>
0

>  <nBase>
1

>  <nAromAtom>
11

>  <nAromBond>
11

>  <nAtom>
49

>  <nHeavyAtom>
27

>  <nSpiro>
0

>  <nBridgehead>
0

>  <nHetero>
8

>  <nN>
4

>  <nO>
2

>  <nF>
0

>  <BalabanJ>
1.4

>  <BertzCT>
840.87

>  <nBonds>
52

>  <nBondsO>
30

>  <nBondsS>
40

>  <nBondsD>
1

>  <nBondsT>
0

>  <nBondsA>
11

>  <nBondsM>
12

>  <nBondsKS>
46

>  <nBondsKD>
6

>  <RNCG>
0.18

>  <RPCG>
0.1

>  <FCSP3>
0.47

>  <SZ>
35.67

>  <Sm>
34.08

>  <Sv>
31.6

>  <Sse>
49.61

>  <Sp>
33.99

>  <Si>
55.45

>  <MZ>
0.73

>  <Mm>
0.7

>  <Mv>
0.64

>  <Mse>
1.01

>  <Mp>
0.69

>  <Mi>
1.13

>  <NsCH3>
0

>  <NdCH2>
0

>  <NssCH2>
7

>  <NtCH>
0

>  <NdsCH>
0

>  <NaaCH>
4

>  <NsssCH>
2

>  <NddC>
0

>  <NtsC>
0

>  <NdssC>
1

>  <NaasC>
5

>  <NaaaC>
0

>  <NssssC>
0

>  <NsNH3>
0

>  <NsNH2>
0

>  <NssNH2>
0

>  <NdNH>
0

>  <NssNH>
0

>  <NaaNH>
1

>  <NtN>
0

>  <NsssNH>
0

>  <NdsN>
0

>  <NaaN>
1

>  <NsssN>
2

>  <NddsN>
0

>  <NaasN>
0

>  <NssssN>
0

>  <NsOH>
1

>  <NdO>
1

>  <NssO>
0

>  <NaaO>
0

>  <NsF>
0

>  <NsSiH3>
0

>  <NssSiH2>
0

>  <NsssSiH>
0

>  <NssssSi>
0

>  <NsPH2>
0

>  <NssPH>
0

>  <NsssP>
0

>  <NdsssP>
0

>  <NsssssP>
0

>  <NsSH>
0

>  <NdS>
0

>  <NssS>
0

>  <NaaS>
0

>  <NdssS>
0

>  <NddssS>
0

>  <NsCl>
2

>  <NsBr>
0

>  <NsI>
0

>  <fragCpx>
198.08

>  <fMF>
0.47

>  <nHBAcc>
4

>  <nHBDon>
2

>  <Kier1>
20.28

>  <Kier2>
8.79

>  <Lipinski>
1

>  <GhoseFilter>
1

>  <FilterItLogS>
-4.63

>  <VMcGowan>
285.47

>  <LabuteASA>
167.64

>  <PEOE_VSA1>
14.99

>  <PEOE_VSA2>
9.69

>  <PEOE_VSA3>
4.98

>  <PEOE_VSA4>
0

>  <PEOE_VSA5>
0

>  <PEOE_VSA6>
29.27

>  <PEOE_VSA7>
24.12

>  <PEOE_VSA8>
38.29

>  <PEOE_VSA9>
40.63

>  <PEOE_VSA10>
0

>  <PEOE_VSA11>
0

>  <PEOE_VSA12>
5.91

>  <PEOE_VSA13>
0

>  <SMR_VSA1>
9.9

>  <SMR_VSA2>
0

>  <SMR_VSA3>
19.77

>  <SMR_VSA4>
0

>  <SMR_VSA5>
31.41

>  <SMR_VSA6>
26.18

>  <SMR_VSA7>
51.52

>  <SMR_VSA8>
0

>  <SMR_VSA9>
0

>  <SlogP_VSA1>
0

>  <SlogP_VSA2>
63.06

>  <SlogP_VSA3>
17.64

>  <SlogP_VSA4>
0

>  <SlogP_VSA5>
29.41

>  <SlogP_VSA6>
24.53

>  <SlogP_VSA7>
10.05

>  <SlogP_VSA8>
0

>  <SlogP_VSA9>
0

>  <SlogP_VSA10>
0

>  <SlogP_VSA11>
0

>  <EState_VSA1>
0

>  <EState_VSA2>
24.47

>  <EState_VSA3>
29.68

>  <EState_VSA4>
36.34

>  <EState_VSA5>
0

>  <EState_VSA6>
18.46

>  <EState_VSA7>
10.97

>  <EState_VSA8>
14.87

>  <EState_VSA9>
23.2

>  <EState_VSA10>
9.9

>  <VSA_EState1>
0

>  <VSA_EState2>
24.89

>  <VSA_EState3>
10.78

>  <VSA_EState4>
2.88

>  <VSA_EState5>
0.05

>  <VSA_EState6>
5.19

>  <VSA_EState7>
3.23

>  <VSA_EState8>
2.82

>  <VSA_EState9>
0

>  <apol>
56.76

>  <bpol>
29.09

>  <nRing>
4

>  <nHRing>
3

>  <naRing>
2

>  <naHRing>
1

>  <nARing 2>
2

>  <nAHRing 2>
2

>  <nFRing>
1

>  <nFHRing>
1

>  <nFaRing>
0

>  <nFaHRing>
0

>  <nFARing 2>
1

>  <nFAHRing 2>
1

>  <nRot>
4

>  <SLogP>
2.45

>  <SMR>
103.98

>  <TopoPSA(NO)>
72.46

>  <TopoPSA>
72.46

>  <JGI1>
0.2

>  <JGI2>
0.08

>  <JGI3>
0.05

>  <JGI4>
0.04

>  <JGI5>
0.02

>  <Diameter>
13

>  <Radius>
7

>  <TMWC10>
133.59

>  <TSRW10>
77.92

>  <MW>
408.11

>  <AMW>
8.33

>  <WPath>
1856

>  <WPol>
41

>  <Zagreb1>
146

>  <Zagreb2>
173

>  <mZagreb2>
5.81

>  <yes>


>  <nAR-cont>
1

>  <nHA-cont>
0.860070871

>  <MWHBN>
0.297004228

>  <MWHBN-cont>
0.849596022

>  <TPSA-cont>
0.494184205

>  <pka_cont>
0.97

>  <yes.1>


>  <BBB_SCORE>
4.607833315

>  <MMFF94 Energy>
121.47

$$$$
Compound 1796
Actelion Java MolfileCreator 2.0

  0  0  0  0  0  0              0 V3000
M  V30 BEGIN CTAB
M  V30 COUNTS 51 54 0 0 0
M  V30 BEGIN ATOM
M  V30 1 Cl 5.7806 1.9512 1.5444 0
M  V30 2 C 4.6898 1.4602 0.2973 0
M  V30 3 C 5.013 0.4665 -0.6306 0
M  V30 4 C 3.4446 2.0978 0.2309 0
M  V30 5 Cl 6.5269 -0.3654 -0.6134 0
M  V30 6 C 4.0935 0.1219 -1.6244 0
M  V30 7 C 2.5043 1.7415 -0.7496 0
M  V30 8 C 2.852 0.7599 -1.6883 0
M  V30 9 C 1.1626 2.4374 -0.8477 0
M  V30 10 C 0.4924 2.6977 0.4958 0
M  V30 11 O 0.66 3.7906 1.0474 0
M  V30 12 N -0.2746 1.698 1.0849 0
M  V30 13 C -0.509 0.3536 0.4952 0 CFG=1
M  V30 14 C -0.7964 1.983 2.4276 0
M  V30 15 C -0.6816 -0.7183 1.5634 0
M  V30 16 C -1.7359 0.39 -0.4765 0
M  V30 17 C -1.8389 0.9986 2.951 0
M  V30 18 C -1.3481 -0.4077 2.7616 0
M  V30 19 C -0.2227 -2.0262 1.3569 0
M  V30 20 N -1.8671 -0.7768 -1.365 0
M  V30 21 C -1.5632 -1.3978 3.7255 0
M  V30 22 C -0.4263 -3.0071 2.3281 0
M  V30 23 C -3.1443 -0.7799 -2.0816 0
M  V30 24 C -0.8485 -0.8476 -2.411 0
M  V30 25 C -1.0971 -2.6937 3.5091 0
M  V30 26 C -2.9301 -1.834 -3.1559 0
M  V30 27 C -1.4242 -1.8594 -3.3914 0
M  V30 28 H 3.2115 2.8807 0.9525 0
M  V30 29 H 4.3409 -0.6422 -2.3577 0
M  V30 30 H 2.1597 0.482 -2.4806 0
M  V30 31 H 1.3178 3.4074 -1.3374 0
M  V30 32 H 0.4818 1.8834 -1.4991 0
M  V30 33 H 0.3887 0.1028 -0.0746 0
M  V30 34 H 0.0733 1.9886 3.0986 0
M  V30 35 H -1.2123 2.9977 2.4431 0
M  V30 36 H -2.6493 0.4687 0.1278 0
M  V30 37 H -1.7035 1.3076 -1.0786 0
M  V30 38 H -2.7869 1.1193 2.4142 0
M  V30 39 H -2.0313 1.2075 4.0096 0
M  V30 40 H 0.2815 -2.2925 0.4312 0
M  V30 41 H -2.0886 -1.1664 4.6488 0
M  V30 42 H -0.0701 -4.0199 2.1585 0
M  V30 43 H -3.9841 -1.0372 -1.4284 0
M  V30 44 H -3.348 0.1922 -2.5486 0
M  V30 45 H 0.1216 -1.1791 -2.03 0
M  V30 46 H -0.716 0.1185 -2.9139 0
M  V30 47 H -1.26 -3.4619 4.2604 0
M  V30 48 H -3.267 -2.8174 -2.8073 0
M  V30 49 H -3.4813 -1.5953 -4.071 0
M  V30 50 H -1.172 -1.6018 -4.4251 0
M  V30 51 H -1.0339 -2.8639 -3.1903 0
M  V30 END ATOM
M  V30 BEGIN BOND
M  V30 1 1 1 2
M  V30 2 2 2 3
M  V30 3 1 2 4
M  V30 4 1 3 5
M  V30 5 1 3 6
M  V30 6 2 4 7
M  V30 7 2 6 8
M  V30 8 1 7 9
M  V30 9 1 9 10
M  V30 10 2 10 11
M  V30 11 1 10 12
M  V30 12 1 12 13
M  V30 13 1 12 14
M  V30 14 1 13 15
M  V30 15 1 13 16
M  V30 16 1 14 17
M  V30 17 2 15 18
M  V30 18 1 15 19
M  V30 19 1 16 20
M  V30 20 1 18 21
M  V30 21 2 19 22
M  V30 22 1 20 23
M  V30 23 1 20 24
M  V30 24 2 21 25
M  V30 25 1 23 26
M  V30 26 1 24 27
M  V30 27 1 7 8
M  V30 28 1 17 18
M  V30 29 1 22 25
M  V30 30 1 26 27
M  V30 31 1 4 28
M  V30 32 1 6 29
M  V30 33 1 8 30
M  V30 34 1 9 31
M  V30 35 1 9 32
M  V30 36 1 13 33
M  V30 37 1 14 34
M  V30 38 1 14 35
M  V30 39 1 16 36
M  V30 40 1 16 37
M  V30 41 1 17 38
M  V30 42 1 17 39
M  V30 43 1 19 40
M  V30 44 1 21 41
M  V30 45 1 22 42
M  V30 46 1 23 43
M  V30 47 1 23 44
M  V30 48 1 24 45
M  V30 49 1 24 46
M  V30 50 1 25 47
M  V30 51 1 26 48
M  V30 52 1 26 49
M  V30 53 1 27 50
M  V30 54 1 27 51
M  V30 END BOND
M  V30 BEGIN COLLECTION
M  V30 MDLV30/STEABS ATOMS=(1 13)
M  V30 END COLLECTION
M  V30 END CTAB
M  END
>  <Column 1>
2197

>  <level_0>
2378

>  <index>
2378

>  <Unnamed: 0>
2378

>  <NO.>
2390

>  <Name>
chembl68441

>  <IUPAC_name>
2-(3-4-dichlorophenyl)-1-[(1s)-1-(pyrrolidin-1-ylmethyl)-3-4-dihydro-1h-isoquinolin-2-yl]ethanone

>  <SMILES>
O=C(Cc1ccc(Cl)c(Cl)c1)N1CCc2ccccc2[C@H]1CN1CCCC1

>  <CID>
14726011

>  <logBB>


>  <BBB+/BBB->
BBB+

>  <Inchi>
InChI=1S/C22H24Cl2N2O/c23-19-8-7-16(13-20(19)24)14-22(27)26-12-9-17-5-1-2-6-18(17)21(26)15-25-10-3-4-11-25/h1-2-5-8-13-21H-3-4-9-12-14-15H2/t21-/m1/s1

>  <threshold>
-1

>  <reference>
R1|R13|R28|R9|R24|R27|R30|

>  <group>
B

>  <Class>
1

>  <ABC>
21.34

>  <ABCGG>
16.9

>  <nAcid>
0

>  <nBase>
1

>  <nAromAtom>
12

>  <nAromBond>
12

>  <nAtom>
51

>  <nHeavyAtom>
27

>  <nSpiro>
0

>  <nBridgehead>
0

>  <nHetero>
5

>  <nN>
2

>  <nO>
1

>  <nF>
0

>  <BalabanJ>
1.41

>  <BertzCT>
832.81

>  <nBonds>
54

>  <nBondsO>
30

>  <nBondsS>
41

>  <nBondsD>
1

>  <nBondsT>
0

>  <nBondsA>
12

>  <nBondsM>
13

>  <nBondsKS>
47

>  <nBondsKD>
7

>  <RNCG>
0.2

>  <RPCG>
0.14

>  <FCSP3>
0.41

>  <SZ>
35.33

>  <Sm>
33.58

>  <Sv>
32.91

>  <Sse>
50.84

>  <Sp>
35.99

>  <Si>
57.08

>  <MZ>
0.69

>  <Mm>
0.66

>  <Mv>
0.65

>  <Mse>
1

>  <Mp>
0.71

>  <Mi>
1.12

>  <NsCH3>
0

>  <NdCH2>
0

>  <NssCH2>
8

>  <NtCH>
0

>  <NdsCH>
0

>  <NaaCH>
7

>  <NsssCH>
1

>  <NddC>
0

>  <NtsC>
0

>  <NdssC>
1

>  <NaasC>
5

>  <NaaaC>
0

>  <NssssC>
0

>  <NsNH3>
0

>  <NsNH2>
0

>  <NssNH2>
0

>  <NdNH>
0

>  <NssNH>
0

>  <NaaNH>
0

>  <NtN>
0

>  <NsssNH>
0

>  <NdsN>
0

>  <NaaN>
0

>  <NsssN>
2

>  <NddsN>
0

>  <NaasN>
0

>  <NssssN>
0

>  <NsOH>
0

>  <NdO>
1

>  <NssO>
0

>  <NaaO>
0

>  <NsF>
0

>  <NsSiH3>
0

>  <NssSiH2>
0

>  <NsssSiH>
0

>  <NssssSi>
0

>  <NsPH2>
0

>  <NssPH>
0

>  <NsssP>
0

>  <NdsssP>
0

>  <NsssssP>
0

>  <NsSH>
0

>  <NdS>
0

>  <NssS>
0

>  <NaaS>
0

>  <NdssS>
0

>  <NddssS>
0

>  <NsCl>
2

>  <NsBr>
0

>  <NsI>
0

>  <fragCpx>
198.05

>  <fMF>
0.47

>  <nHBAcc>
2

>  <nHBDon>
0

>  <Kier1>
20.28

>  <Kier2>
9.21

>  <Lipinski>
1

>  <GhoseFilter>
1

>  <FilterItLogS>
-6.15

>  <VMcGowan>
297.61

>  <LabuteASA>
170.41

>  <PEOE_VSA1>
9.8

>  <PEOE_VSA2>
4.79

>  <PEOE_VSA3>
0

>  <PEOE_VSA4>
0

>  <PEOE_VSA5>
0

>  <PEOE_VSA6>
53.53

>  <PEOE_VSA7>
61.18

>  <PEOE_VSA8>
13.09

>  <PEOE_VSA9>
22.51

>  <PEOE_VSA10>
0

>  <PEOE_VSA11>
0

>  <PEOE_VSA12>
5.91

>  <PEOE_VSA13>
0

>  <SMR_VSA1>
4.79

>  <SMR_VSA2>
0

>  <SMR_VSA3>
9.8

>  <SMR_VSA4>
0

>  <SMR_VSA5>
31.73

>  <SMR_VSA6>
26.18

>  <SMR_VSA7>
69.2

>  <SMR_VSA8>
0

>  <SMR_VSA9>
0

>  <SlogP_VSA1>
0

>  <SlogP_VSA2>
41.89

>  <SlogP_VSA3>
17.64

>  <SlogP_VSA4>
0

>  <SlogP_VSA5>
35.57

>  <SlogP_VSA6>
42.46

>  <SlogP_VSA7>
10.05

>  <SlogP_VSA8>
0

>  <SlogP_VSA9>
0

>  <SlogP_VSA10>
0

>  <SlogP_VSA11>
0

>  <EState_VSA1>
0

>  <EState_VSA2>
11.95

>  <EState_VSA3>
16.47

>  <EState_VSA4>
38.16

>  <EState_VSA5>
23.97

>  <EState_VSA6>
12.13

>  <EState_VSA7>
6.07

>  <EState_VSA8>
34.07

>  <EState_VSA9>
23.2

>  <EState_VSA10>
4.79

>  <VSA_EState1>
0

>  <VSA_EState2>
17.75

>  <VSA_EState3>
1.02

>  <VSA_EState4>
3.59

>  <VSA_EState5>
0.16

>  <VSA_EState6>
14.15

>  <VSA_EState7>
3.78

>  <VSA_EState8>
3.96

>  <VSA_EState9>
0

>  <apol>
60.11

>  <bpol>
29.38

>  <nRing>
4

>  <nHRing>
2

>  <naRing>
2

>  <naHRing>
0

>  <nARing 2>
2

>  <nAHRing 2>
2

>  <nFRing>
1

>  <nFHRing>
1

>  <nFaRing>
0

>  <nFaHRing>
0

>  <nFARing 2>
1

>  <nFAHRing 2>
1

>  <nRot>
4

>  <SLogP>
4.76

>  <SMR>
110.44

>  <TopoPSA(NO)>
23.55

>  <TopoPSA>
23.55

>  <JGI1>
0.17

>  <JGI2>
0.07

>  <JGI3>
0.04

>  <JGI4>
0.04

>  <JGI5>
0.02

>  <Diameter>
12

>  <Radius>
6

>  <TMWC10>
133.29

>  <TSRW10>
75.39

>  <MW>
402.13

>  <AMW>
7.88

>  <WPath>
1839

>  <WPol>
42

>  <Zagreb1>
144

>  <Zagreb2>
170

>  <mZagreb2>
5.89

>  <yes>


>  <nAR-cont>
1

>  <nHA-cont>
0.860070871

>  <MWHBN>
0.099734809

>  <MWHBN-cont>
0.729240269

>  <TPSA-cont>
0.835606376

>  <pka_cont>
0.97

>  <yes.1>


>  <BBB_SCORE>
5.110144027

>  <MMFF94 Energy>
102.44

$$$$
Compound 1797
Actelion Java MolfileCreator 2.0

  0  0  0  0  0  0              0 V3000
M  V30 BEGIN CTAB
M  V30 COUNTS 48 51 0 0 0
M  V30 BEGIN ATOM
M  V30 1 Cl 2.366 0.6522 -4.8998 0
M  V30 2 C 0.7081 0.3657 -4.5038 0
M  V30 3 C -0.3447 0.95 -5.2139 0
M  V30 4 C 0.4357 -0.488 -3.4278 0
M  V30 5 Cl -0.0858 2.0122 -6.5514 0
M  V30 6 C -1.6638 0.6732 -4.8473 0
M  V30 7 C -0.8867 -0.7566 -3.041 0
M  V30 8 C -1.9332 -0.178 -3.7724 0
M  V30 9 C -1.1693 -1.6911 -1.8849 0
M  V30 10 C -2.1708 -1.1366 -0.8778 0
M  V30 11 O -3.3627 -1.441 -0.9867 0
M  V30 12 N -1.7212 -0.2988 0.133 0
M  V30 13 C -0.2917 0.1085 0.3291 0 CFG=1
M  V30 14 C -2.7045 0.2098 1.1215 0
M  V30 15 C -0.2782 1.5697 0.6717 0
M  V30 16 C 0.3814 -0.8173 1.3875 0
M  V30 17 C -2.7863 1.7473 1.129 0
M  V30 18 C -1.407 2.2658 1.0429 0
M  V30 19 C 0.7569 2.5384 0.6383 0
M  V30 20 N 1.8611 -0.7258 1.3961 0
M  V30 21 O -1.1443 3.57 1.2783 0
M  V30 22 C 0.1848 3.7308 1.03 0
M  V30 23 C 2.4923 -2.0368 1.6295 0
M  V30 24 C 2.3412 0.0845 2.5334 0
M  V30 25 C 2.4227 -2.2611 3.1289 0
M  V30 26 C 2.4751 -0.8622 3.7219 0
M  V30 27 H 1.2638 -0.9411 -2.8856 0
M  V30 28 H -2.4918 1.1167 -5.3958 0
M  V30 29 H -2.9714 -0.3843 -3.5111 0
M  V30 30 H -1.5842 -2.622 -2.2929 0
M  V30 31 H -0.2492 -1.9857 -1.3697 0
M  V30 32 H 0.2416 -0.0077 -0.616 0
M  V30 33 H -3.7025 -0.2035 0.9451 0
M  V30 34 H -2.3828 -0.1551 2.1049 0
M  V30 35 H -0.0442 -0.6399 2.3844 0
M  V30 36 H 0.0881 -1.8437 1.128 0
M  V30 37 H -3.3529 2.0917 0.2564 0
M  V30 38 H -3.2959 2.0994 2.0311 0
M  V30 39 H 1.7926 2.3883 0.366 0
M  V30 40 H 0.5638 4.7347 1.1626 0
M  V30 41 H 2.0381 -2.8521 1.0563 0
M  V30 42 H 3.5416 -1.9793 1.3125 0
M  V30 43 H 3.3284 0.4883 2.2763 0
M  V30 44 H 1.7053 0.9422 2.7724 0
M  V30 45 H 3.2421 -2.8905 3.4891 0
M  V30 46 H 1.4786 -2.7465 3.4031 0
M  V30 47 H 3.417 -0.6899 4.2534 0
M  V30 48 H 1.6548 -0.7241 4.4351 0
M  V30 END ATOM
M  V30 BEGIN BOND
M  V30 1 1 1 2
M  V30 2 2 2 3
M  V30 3 1 2 4
M  V30 4 1 3 5
M  V30 5 1 3 6
M  V30 6 2 4 7
M  V30 7 2 6 8
M  V30 8 1 7 9
M  V30 9 1 9 10
M  V30 10 2 10 11
M  V30 11 1 10 12
M  V30 12 1 12 13
M  V30 13 1 12 14
M  V30 14 1 13 15
M  V30 15 1 13 16
M  V30 16 1 14 17
M  V30 17 2 15 18
M  V30 18 1 15 19
M  V30 19 1 16 20
M  V30 20 1 18 21
M  V30 21 2 19 22
M  V30 22 1 20 23
M  V30 23 1 20 24
M  V30 24 1 23 25
M  V30 25 1 24 26
M  V30 26 1 7 8
M  V30 27 1 17 18
M  V30 28 1 21 22
M  V30 29 1 25 26
M  V30 30 1 4 27
M  V30 31 1 6 28
M  V30 32 1 8 29
M  V30 33 1 9 30
M  V30 34 1 9 31
M  V30 35 1 13 32
M  V30 36 1 14 33
M  V30 37 1 14 34
M  V30 38 1 16 35
M  V30 39 1 16 36
M  V30 40 1 17 37
M  V30 41 1 17 38
M  V30 42 1 19 39
M  V30 43 1 22 40
M  V30 44 1 23 41
M  V30 45 1 23 42
M  V30 46 1 24 43
M  V30 47 1 24 44
M  V30 48 1 25 45
M  V30 49 1 25 46
M  V30 50 1 26 47
M  V30 51 1 26 48
M  V30 END BOND
M  V30 BEGIN COLLECTION
M  V30 MDLV30/STEABS ATOMS=(1 13)
M  V30 END COLLECTION
M  V30 END CTAB
M  END
>  <Column 1>
2198

>  <level_0>
2379

>  <index>
2379

>  <Unnamed: 0>
2379

>  <NO.>
2391

>  <Name>
chembl70762

>  <IUPAC_name>
2-(3-4-dichlorophenyl)-1-[(4s)-4-(pyrrolidin-1-ylmethyl)-6-7-dihydro-4h-furo[3-2-c]pyridin-5-yl]ethanone

>  <SMILES>
O=C(Cc1ccc(Cl)c(Cl)c1)N1CCc2occc2[C@H]1CN1CCCC1

>  <CID>
44310763

>  <logBB>


>  <BBB+/BBB->
BBB+

>  <Inchi>
InChI=1S/C20H22Cl2N2O2/c21-16-4-3-14(11-17(16)22)12-20(25)24-9-5-19-15(6-10-26-19)18(24)13-23-7-1-2-8-23/h3-4-6-10-11-18H-1-2-5-7-9-12-13H2/t18-/m1/s1

>  <threshold>
-1

>  <reference>
R1|R13|R28|R9|R24|R27|R30|

>  <group>
B

>  <Class>
1

>  <ABC>
20.63

>  <ABCGG>
17.07

>  <nAcid>
0

>  <nBase>
1

>  <nAromAtom>
11

>  <nAromBond>
11

>  <nAtom>
48

>  <nHeavyAtom>
26

>  <nSpiro>
0

>  <nBridgehead>
0

>  <nHetero>
6

>  <nN>
2

>  <nO>
2

>  <nF>
0

>  <BalabanJ>
1.4

>  <BertzCT>
798.86

>  <nBonds>
51

>  <nBondsO>
29

>  <nBondsS>
39

>  <nBondsD>
1

>  <nBondsT>
0

>  <nBondsA>
11

>  <nBondsM>
12

>  <nBondsKS>
45

>  <nBondsKD>
6

>  <RNCG>
0.26

>  <RPCG>
0.12

>  <FCSP3>
0.45

>  <SZ>
34.33

>  <Sm>
32.75

>  <Sv>
31.09

>  <Sse>
48.28

>  <Sp>
33.67

>  <Si>
53.87

>  <MZ>
0.72

>  <Mm>
0.68

>  <Mv>
0.65

>  <Mse>
1.01

>  <Mp>
0.7

>  <Mi>
1.12

>  <NsCH3>
0

>  <NdCH2>
0

>  <NssCH2>
8

>  <NtCH>
0

>  <NdsCH>
0

>  <NaaCH>
5

>  <NsssCH>
1

>  <NddC>
0

>  <NtsC>
0

>  <NdssC>
1

>  <NaasC>
5

>  <NaaaC>
0

>  <NssssC>
0

>  <NsNH3>
0

>  <NsNH2>
0

>  <NssNH2>
0

>  <NdNH>
0

>  <NssNH>
0

>  <NaaNH>
0

>  <NtN>
0

>  <NsssNH>
0

>  <NdsN>
0

>  <NaaN>
0

>  <NsssN>
2

>  <NddsN>
0

>  <NaasN>
0

>  <NssssN>
0

>  <NsOH>
0

>  <NdO>
1

>  <NssO>
0

>  <NaaO>
1

>  <NsF>
0

>  <NsSiH3>
0

>  <NssSiH2>
0

>  <NsssSiH>
0

>  <NssssSi>
0

>  <NsPH2>
0

>  <NssPH>
0

>  <NsssP>
0

>  <NdsssP>
0

>  <NsssssP>
0

>  <NsSH>
0

>  <NdS>
0

>  <NssS>
0

>  <NaaS>
0

>  <NdssS>
0

>  <NddssS>
0

>  <NsCl>
2

>  <NsBr>
0

>  <NsI>
0

>  <fragCpx>
191.06

>  <fMF>
0.48

>  <nHBAcc>
3

>  <nHBDon>
0

>  <Kier1>
19.32

>  <Kier2>
8.57

>  <Lipinski>
1

>  <GhoseFilter>
1

>  <FilterItLogS>
-5.67

>  <VMcGowan>
279.6

>  <LabuteASA>
163.21

>  <PEOE_VSA1>
14.22

>  <PEOE_VSA2>
4.79

>  <PEOE_VSA3>
0

>  <PEOE_VSA4>
0

>  <PEOE_VSA5>
0

>  <PEOE_VSA6>
29.27

>  <PEOE_VSA7>
49.69

>  <PEOE_VSA8>
25.07

>  <PEOE_VSA9>
28.77

>  <PEOE_VSA10>
5.76

>  <PEOE_VSA11>
0

>  <PEOE_VSA12>
5.91

>  <PEOE_VSA13>
0

>  <SMR_VSA1>
9.21

>  <SMR_VSA2>
0

>  <SMR_VSA3>
9.8

>  <SMR_VSA4>
0

>  <SMR_VSA5>
31.73

>  <SMR_VSA6>
26.18

>  <SMR_VSA7>
57.46

>  <SMR_VSA8>
0

>  <SMR_VSA9>
0

>  <SlogP_VSA1>
0

>  <SlogP_VSA2>
41.89

>  <SlogP_VSA3>
17.64

>  <SlogP_VSA4>
0

>  <SlogP_VSA5>
35.77

>  <SlogP_VSA6>
34.95

>  <SlogP_VSA7>
10.05

>  <SlogP_VSA8>
0

>  <SlogP_VSA9>
0

>  <SlogP_VSA10>
0

>  <SlogP_VSA11>
0

>  <EState_VSA1>
0

>  <EState_VSA2>
11.95

>  <EState_VSA3>
23.01

>  <EState_VSA4>
42.94

>  <EState_VSA5>
12.84

>  <EState_VSA6>
18.4

>  <EState_VSA7>
17.03

>  <EState_VSA8>
4.9

>  <EState_VSA9>
27.62

>  <EState_VSA10>
4.79

>  <VSA_EState1>
5.64

>  <VSA_EState2>
17.54

>  <VSA_EState3>
1

>  <VSA_EState4>
2.05

>  <VSA_EState5>
1.15

>  <VSA_EState6>
7.48

>  <VSA_EState7>
5.32

>  <VSA_EState8>
3.79

>  <VSA_EState9>
0

>  <apol>
56.23

>  <bpol>
29.11

>  <nRing>
4

>  <nHRing>
3

>  <naRing>
2

>  <naHRing>
1

>  <nARing 2>
2

>  <nAHRing 2>
2

>  <nFRing>
1

>  <nFHRing>
1

>  <nFaRing>
0

>  <nFaHRing>
0

>  <nFARing 2>
1

>  <nFAHRing 2>
1

>  <nRot>
4

>  <SLogP>
4.35

>  <SMR>
102.71

>  <TopoPSA(NO)>
36.69

>  <TopoPSA>
36.69

>  <JGI1>
0.17

>  <JGI2>
0.08

>  <JGI3>
0.04

>  <JGI4>
0.04

>  <JGI5>
0.02

>  <Diameter>
12

>  <Radius>
6

>  <TMWC10>
131.17

>  <TSRW10>
76.5

>  <MW>
392.11

>  <AMW>
8.17

>  <WPath>
1668

>  <WPol>
39

>  <Zagreb1>
140

>  <Zagreb2>
166

>  <mZagreb2>
5.64

>  <yes>


>  <nAR-cont>
1

>  <nHA-cont>
0.892715677

>  <MWHBN>
0.151501627

>  <MWHBN-cont>
0.936352919

>  <TPSA-cont>
0.743881017

>  <pka_cont>
0.97

>  <yes.1>


>  <BBB_SCORE>
5.270007089

>  <MMFF94 Energy>
85.058

$$$$
Compound 1798
Actelion Java MolfileCreator 2.0

  0  0  0  0  0  0              0 V3000
M  V30 BEGIN CTAB
M  V30 COUNTS 49 52 0 0 0
M  V30 BEGIN ATOM
M  V30 1 Cl -1.3047 -2.3657 5.5538 0
M  V30 2 C -1.2827 -0.7778 4.8719 0
M  V30 3 C -2.2008 0.2099 5.239 0
M  V30 4 C -0.2975 -0.4959 3.9175 0
M  V30 5 Cl -3.4428 -0.0653 6.4074 0
M  V30 6 C -2.1244 1.4758 4.6542 0
M  V30 7 C -0.2272 0.7668 3.3083 0
M  V30 8 C -1.1411 1.7544 3.701 0
M  V30 9 C 0.8546 1.06 2.2912 0
M  V30 10 C 0.3603 1.8096 1.06 0
M  V30 11 O 0.4645 3.04 1.0323 0
M  V30 12 N -0.2122 1.0977 0.0151 0
M  V30 13 C -0.3426 -0.3926 -0.0275 0 CFG=1
M  V30 14 C -0.7156 1.8625 -1.1576 0
M  V30 15 C -1.6157 -0.7602 -0.7397 0
M  V30 16 C 0.9132 -1.1355 -0.5917 0
M  V30 17 C -2.2117 1.6212 -1.4225 0
M  V30 18 C -2.4291 0.1656 -1.3509 0
M  V30 19 C -2.2724 -2.0045 -0.9239 0
M  V30 20 N 1.4138 -0.6776 -1.8982 0
M  V30 21 O -3.5224 -0.402 -1.9041 0
M  V30 22 C -3.4199 -1.7338 -1.6408 0
M  V30 23 C 2.0162 -1.7654 -2.6825 0
M  V30 24 C 2.4886 0.3185 -1.7891 0
M  V30 25 C 2.938 -1.0653 -3.6912 0 CFG=1
M  V30 26 C 3.0124 0.38 -3.2147 0
M  V30 27 O 4.2449 -1.6336 -3.6661 0
M  V30 28 H 0.4186 -1.27 3.6493 0
M  V30 29 H -2.8275 2.2561 4.9374 0
M  V30 30 H -1.0971 2.7545 3.269 0
M  V30 31 H 1.6196 1.6795 2.7771 0
M  V30 32 H 1.3695 0.1452 1.9869 0
M  V30 33 H -0.4701 -0.7436 1.0008 0
M  V30 34 H -0.1336 1.5503 -2.031 0
M  V30 35 H -0.5441 2.9366 -1.0364 0
M  V30 36 H 1.7213 -1.0945 0.1489 0
M  V30 37 H 0.6449 -2.1989 -0.662 0
M  V30 38 H -2.813 2.1166 -0.6521 0
M  V30 39 H -2.4973 2.0258 -2.3982 0
M  V30 40 H -1.9588 -2.9802 -0.5811 0
M  V30 41 H -4.2286 -2.3442 -2.0178 0
M  V30 42 H 1.2376 -2.3376 -3.1977 0
M  V30 43 H 2.592 -2.4565 -2.0534 0
M  V30 44 H 3.2859 -0.0135 -1.1115 0
M  V30 45 H 2.138 1.2984 -1.457 0
M  V30 46 H 2.5537 -1.1155 -4.7154 0
M  V30 47 H 2.3449 1.0045 -3.8215 0
M  V30 48 H 4.0212 0.8018 -3.2591 0
M  V30 49 H 4.1771 -2.529 -4.0397 0
M  V30 END ATOM
M  V30 BEGIN BOND
M  V30 1 1 1 2
M  V30 2 2 2 3
M  V30 3 1 2 4
M  V30 4 1 3 5
M  V30 5 1 3 6
M  V30 6 2 4 7
M  V30 7 2 6 8
M  V30 8 1 7 9
M  V30 9 1 9 10
M  V30 10 2 10 11
M  V30 11 1 10 12
M  V30 12 1 12 13
M  V30 13 1 12 14
M  V30 14 1 13 15
M  V30 15 1 13 16
M  V30 16 1 14 17
M  V30 17 2 15 18
M  V30 18 1 15 19
M  V30 19 1 16 20
M  V30 20 1 18 21
M  V30 21 2 19 22
M  V30 22 1 20 23
M  V30 23 1 20 24
M  V30 24 1 23 25
M  V30 25 1 24 26
M  V30 26 1 25 27
M  V30 27 1 7 8
M  V30 28 1 17 18
M  V30 29 1 21 22
M  V30 30 1 25 26
M  V30 31 1 4 28
M  V30 32 1 6 29
M  V30 33 1 8 30
M  V30 34 1 9 31
M  V30 35 1 9 32
M  V30 36 1 13 33
M  V30 37 1 14 34
M  V30 38 1 14 35
M  V30 39 1 16 36
M  V30 40 1 16 37
M  V30 41 1 17 38
M  V30 42 1 17 39
M  V30 43 1 19 40
M  V30 44 1 22 41
M  V30 45 1 23 42
M  V30 46 1 23 43
M  V30 47 1 24 44
M  V30 48 1 24 45
M  V30 49 1 25 46
M  V30 50 1 26 47
M  V30 51 1 26 48
M  V30 52 1 27 49
M  V30 END BOND
M  V30 BEGIN COLLECTION
M  V30 MDLV30/STEABS ATOMS=(2 13 25)
M  V30 END COLLECTION
M  V30 END CTAB
M  END
>  <Column 1>
2199

>  <level_0>
2380

>  <index>
2380

>  <Unnamed: 0>
2380

>  <NO.>
2392

>  <Name>
gr91272

>  <IUPAC_name>
2-(3-4-dichlorophenyl)-1-[(4s)-4-[[(3r)-3-hydroxypyrrolidin-1-yl]methyl]-6-7-dihydro-4h-furo[3-2-c]pyridin-5-yl]ethanone

>  <SMILES>
O=C(Cc1ccc(Cl)c(Cl)c1)N1CCc2occc2[C@H]1CN1CC[C@@H](O)C1

>  <CID>
44308032

>  <logBB>


>  <BBB+/BBB->
BBB+

>  <Inchi>
InChI=1S/C20H22Cl2N2O3/c21-16-2-1-13(9-17(16)22)10-20(26)24-7-4-19-15(5-8-27-19)18(24)12-23-6-3-14(25)11-23/h1-2-5-8-9-14-18-25H-3-4-6-7-10-12H2/t14--18-/m1/s1

>  <threshold>
-1

>  <reference>
R1|R28|R9|R24|R27|R30|

>  <group>
B

>  <Class>
1

>  <ABC>
21.45

>  <ABCGG>
17.6

>  <nAcid>
0

>  <nBase>
1

>  <nAromAtom>
11

>  <nAromBond>
11

>  <nAtom>
49

>  <nHeavyAtom>
27

>  <nSpiro>
0

>  <nBridgehead>
0

>  <nHetero>
7

>  <nN>
2

>  <nO>
3

>  <nF>
0

>  <BalabanJ>
1.4

>  <BertzCT>
838.38

>  <nBonds>
52

>  <nBondsO>
30

>  <nBondsS>
40

>  <nBondsD>
1

>  <nBondsT>
0

>  <nBondsA>
11

>  <nBondsM>
12

>  <nBondsKS>
46

>  <nBondsKD>
6

>  <RNCG>
0.22

>  <RPCG>
0.11

>  <FCSP3>
0.45

>  <SZ>
35.67

>  <Sm>
34.08

>  <Sv>
31.8

>  <Sse>
49.62

>  <Sp>
34.15

>  <Si>
55.08

>  <MZ>
0.73

>  <Mm>
0.7

>  <Mv>
0.65

>  <Mse>
1.01

>  <Mp>
0.7

>  <Mi>
1.12

>  <NsCH3>
0

>  <NdCH2>
0

>  <NssCH2>
7

>  <NtCH>
0

>  <NdsCH>
0

>  <NaaCH>
5

>  <NsssCH>
2

>  <NddC>
0

>  <NtsC>
0

>  <NdssC>
1

>  <NaasC>
5

>  <NaaaC>
0

>  <NssssC>
0

>  <NsNH3>
0

>  <NsNH2>
0

>  <NssNH2>
0

>  <NdNH>
0

>  <NssNH>
0

>  <NaaNH>
0

>  <NtN>
0

>  <NsssNH>
0

>  <NdsN>
0

>  <NaaN>
0

>  <NsssN>
2

>  <NddsN>
0

>  <NaasN>
0

>  <NssssN>
0

>  <NsOH>
1

>  <NdO>
1

>  <NssO>
0

>  <NaaO>
1

>  <NsF>
0

>  <NsSiH3>
0

>  <NssSiH2>
0

>  <NsssSiH>
0

>  <NssssSi>
0

>  <NsPH2>
0

>  <NssPH>
0

>  <NsssP>
0

>  <NdsssP>
0

>  <NsssssP>
0

>  <NsSH>
0

>  <NdS>
0

>  <NssS>
0

>  <NaaS>
0

>  <NdssS>
0

>  <NddssS>
0

>  <NsCl>
2

>  <NsBr>
0

>  <NsI>
0

>  <fragCpx>
198.07

>  <fMF>
0.47

>  <nHBAcc>
4

>  <nHBDon>
1

>  <Kier1>
20.28

>  <Kier2>
8.79

>  <Lipinski>
1

>  <GhoseFilter>
1

>  <FilterItLogS>
-4.85

>  <VMcGowan>
285.47

>  <LabuteASA>
168

>  <PEOE_VSA1>
14.42

>  <PEOE_VSA2>
9.69

>  <PEOE_VSA3>
0

>  <PEOE_VSA4>
0

>  <PEOE_VSA5>
0

>  <PEOE_VSA6>
29.27

>  <PEOE_VSA7>
30.18

>  <PEOE_VSA8>
38.16

>  <PEOE_VSA9>
34.88

>  <PEOE_VSA10>
5.76

>  <PEOE_VSA11>
0

>  <PEOE_VSA12>
5.91

>  <PEOE_VSA13>
0

>  <SMR_VSA1>
14.32

>  <SMR_VSA2>
0

>  <SMR_VSA3>
9.8

>  <SMR_VSA4>
0

>  <SMR_VSA5>
31.41

>  <SMR_VSA6>
26.18

>  <SMR_VSA7>
57.46

>  <SMR_VSA8>
0

>  <SMR_VSA9>
0

>  <SlogP_VSA1>
0

>  <SlogP_VSA2>
53.1

>  <SlogP_VSA3>
17.64

>  <SlogP_VSA4>
0

>  <SlogP_VSA5>
29.35

>  <SlogP_VSA6>
34.95

>  <SlogP_VSA7>
10.05

>  <SlogP_VSA8>
0

>  <SlogP_VSA9>
0

>  <SlogP_VSA10>
0

>  <SlogP_VSA11>
0

>  <EState_VSA1>
0

>  <EState_VSA2>
24.47

>  <EState_VSA3>
36.1

>  <EState_VSA4>
29.85

>  <EState_VSA5>
0

>  <EState_VSA6>
18.4

>  <EState_VSA7>
17.03

>  <EState_VSA8>
4.9

>  <EState_VSA9>
27.62

>  <EState_VSA10>
9.9

>  <VSA_EState1>
5.61

>  <VSA_EState2>
17.25

>  <VSA_EState3>
10.78

>  <VSA_EState4>
1.92

>  <VSA_EState5>
1.02

>  <VSA_EState6>
7.21

>  <VSA_EState7>
3.2

>  <VSA_EState8>
2.83

>  <VSA_EState9>
0

>  <apol>
57.04

>  <bpol>
29.11

>  <nRing>
4

>  <nHRing>
3

>  <naRing>
2

>  <naHRing>
1

>  <nARing 2>
2

>  <nAHRing 2>
2

>  <nFRing>
1

>  <nFHRing>
1

>  <nFaRing>
0

>  <nFaHRing>
0

>  <nFARing 2>
1

>  <nFAHRing 2>
1

>  <nRot>
4

>  <SLogP>
3.32

>  <SMR>
104.1

>  <TopoPSA(NO)>
56.92

>  <TopoPSA>
56.92

>  <JGI1>
0.2

>  <JGI2>
0.08

>  <JGI3>
0.05

>  <JGI4>
0.04

>  <JGI5>
0.02

>  <Diameter>
13

>  <Radius>
7

>  <TMWC10>
133.59

>  <TSRW10>
77.92

>  <MW>
408.1

>  <AMW>
8.33

>  <WPath>
1856

>  <WPol>
41

>  <Zagreb1>
146

>  <Zagreb2>
173

>  <mZagreb2>
5.81

>  <yes>


>  <nAR-cont>
1

>  <nHA-cont>
0.860070871

>  <MWHBN>
0.247506556

>  <MWHBN-cont>
0.963870082

>  <TPSA-cont>
0.602663055

>  <pka_cont>
0.97

>  <yes.1>


>  <BBB_SCORE>
4.996202104

>  <MMFF94 Energy>
106.4

$$$$
Compound 1799
Actelion Java MolfileCreator 2.0

  0  0  0  0  0  0              0 V3000
M  V30 BEGIN CTAB
M  V30 COUNTS 48 51 0 0 0
M  V30 BEGIN ATOM
M  V30 1 Cl 0.0824 1.0716 -6.0285 0
M  V30 2 C 0.1308 -0.3837 -5.0975 0
M  V30 3 C 0.2121 -1.6491 -5.6864 0
M  V30 4 C 0.0819 -0.2645 -3.7037 0
M  V30 5 Cl 0.2713 -1.8737 -7.3984 0
M  V30 6 C 0.248 -2.7887 -4.8785 0
M  V30 7 C 0.107 -1.4058 -2.8876 0
M  V30 8 C 0.1981 -2.6682 -3.4875 0
M  V30 9 C 0.0692 -1.2706 -1.3814 0
M  V30 10 C 1.4458 -1.1812 -0.7262 0
M  V30 11 O 2.4693 -1.4797 -1.3458 0
M  V30 12 N 1.5056 -0.7825 0.6121 0
M  V30 13 C 0.3031 -0.4132 1.4205 0 CFG=1
M  V30 14 C 2.8499 -0.8147 1.2353 0
M  V30 15 C 0.5472 -0.7384 2.8749 0
M  V30 16 C -0.0474 1.0988 1.217 0
M  V30 17 C 2.9811 -0.2074 2.6385 0
M  V30 18 C 1.8001 -0.6251 3.436 0
M  V30 19 C -0.4084 -1.1635 3.8477 0
M  V30 20 N -1.3753 1.4987 1.7373 0
M  V30 21 S 1.8442 -1.0138 5.0822 0
M  V30 22 C 0.1639 -1.351 5.0891 0
M  V30 23 C -2.4859 1.0617 0.8785 0
M  V30 24 C -1.5178 2.9642 1.7666 0
M  V30 25 C -2.6268 2.1221 -0.2046 0
M  V30 26 C -1.9635 3.3662 0.3691 0
M  V30 27 H 0.03 0.7245 -3.2532 0
M  V30 28 H 0.3226 -3.7769 -5.326 0
M  V30 29 H 0.2455 -3.5672 -2.8754 0
M  V30 30 H -0.5216 -0.3835 -1.1408 0
M  V30 31 H -0.4574 -2.1326 -0.9544 0
M  V30 32 H -0.5264 -1.0362 1.0733 0
M  V30 33 H 3.5642 -0.3282 0.56 0
M  V30 34 H 3.1332 -1.8753 1.2773 0
M  V30 35 H 0.7224 1.6868 1.7353 0
M  V30 36 H 0.0482 1.3653 0.1573 0
M  V30 37 H 2.9945 0.8868 2.5673 0
M  V30 38 H 3.9263 -0.5218 3.0935 0
M  V30 39 H -1.464 -1.3094 3.6532 0
M  V30 40 H -0.3224 -1.6629 6.003 0
M  V30 41 H -2.3663 0.0574 0.4628 0
M  V30 42 H -3.4009 1.0381 1.4842 0
M  V30 43 H -2.3019 3.2223 2.4898 0
M  V30 44 H -0.6116 3.4897 2.0868 0
M  V30 45 H -3.6779 2.3027 -0.4516 0
M  V30 46 H -2.1134 1.8153 -1.1229 0
M  V30 47 H -2.6506 4.2179 0.3945 0
M  V30 48 H -1.1023 3.6469 -0.2479 0
M  V30 END ATOM
M  V30 BEGIN BOND
M  V30 1 1 1 2
M  V30 2 2 2 3
M  V30 3 1 2 4
M  V30 4 1 3 5
M  V30 5 1 3 6
M  V30 6 2 4 7
M  V30 7 2 6 8
M  V30 8 1 7 9
M  V30 9 1 9 10
M  V30 10 2 10 11
M  V30 11 1 10 12
M  V30 12 1 12 13
M  V30 13 1 12 14
M  V30 14 1 13 15
M  V30 15 1 13 16
M  V30 16 1 14 17
M  V30 17 2 15 18
M  V30 18 1 15 19
M  V30 19 1 16 20
M  V30 20 1 18 21
M  V30 21 2 19 22
M  V30 22 1 20 23
M  V30 23 1 20 24
M  V30 24 1 23 25
M  V30 25 1 24 26
M  V30 26 1 7 8
M  V30 27 1 17 18
M  V30 28 1 21 22
M  V30 29 1 25 26
M  V30 30 1 4 27
M  V30 31 1 6 28
M  V30 32 1 8 29
M  V30 33 1 9 30
M  V30 34 1 9 31
M  V30 35 1 13 32
M  V30 36 1 14 33
M  V30 37 1 14 34
M  V30 38 1 16 35
M  V30 39 1 16 36
M  V30 40 1 17 37
M  V30 41 1 17 38
M  V30 42 1 19 39
M  V30 43 1 22 40
M  V30 44 1 23 41
M  V30 45 1 23 42
M  V30 46 1 24 43
M  V30 47 1 24 44
M  V30 48 1 25 45
M  V30 49 1 25 46
M  V30 50 1 26 47
M  V30 51 1 26 48
M  V30 END BOND
M  V30 BEGIN COLLECTION
M  V30 MDLV30/STEABS ATOMS=(1 13)
M  V30 END COLLECTION
M  V30 END CTAB
M  END
>  <Column 1>
2200

>  <level_0>
2381

>  <index>
2381

>  <Unnamed: 0>
2381

>  <NO.>
2393

>  <Name>
chembl411088

>  <IUPAC_name>
2-(3-4-dichlorophenyl)-1-[(4s)-4-(pyrrolidin-1-ylmethyl)-6-7-dihydro-4h-thieno[3-2-c]pyridin-5-yl]ethanone

>  <SMILES>
O=C(Cc1ccc(Cl)c(Cl)c1)N1CCc2sccc2[C@H]1CN1CCCC1

>  <CID>
15697370

>  <logBB>


>  <BBB+/BBB->
BBB+

>  <Inchi>
InChI=1S/C20H22Cl2N2OS/c21-16-4-3-14(11-17(16)22)12-20(25)24-9-5-19-15(6-10-26-19)18(24)13-23-7-1-2-8-23/h3-4-6-10-11-18H-1-2-5-7-9-12-13H2/t18-/m1/s1

>  <threshold>
-1

>  <reference>
R1|R13|R28|R9|R24|R27|R30|

>  <group>
B

>  <Class>
1

>  <ABC>
20.63

>  <ABCGG>
17.07

>  <nAcid>
0

>  <nBase>
1

>  <nAromAtom>
11

>  <nAromBond>
11

>  <nAtom>
48

>  <nHeavyAtom>
26

>  <nSpiro>
0

>  <nBridgehead>
0

>  <nHetero>
6

>  <nN>
2

>  <nO>
1

>  <nF>
0

>  <BalabanJ>
1.4

>  <BertzCT>
800.86

>  <nBonds>
51

>  <nBondsO>
29

>  <nBondsS>
39

>  <nBondsD>
1

>  <nBondsT>
0

>  <nBondsA>
11

>  <nBondsM>
12

>  <nBondsKS>
45

>  <nBondsKD>
6

>  <RNCG>
0.22

>  <RPCG>
0.15

>  <FCSP3>
0.45

>  <SZ>
35.67

>  <Sm>
34.08

>  <Sv>
31.56

>  <Sse>
48.03

>  <Sp>
34.93

>  <Si>
53.58

>  <MZ>
0.74

>  <Mm>
0.71

>  <Mv>
0.66

>  <Mse>
1

>  <Mp>
0.73

>  <Mi>
1.12

>  <NsCH3>
0

>  <NdCH2>
0

>  <NssCH2>
8

>  <NtCH>
0

>  <NdsCH>
0

>  <NaaCH>
5

>  <NsssCH>
1

>  <NddC>
0

>  <NtsC>
0

>  <NdssC>
1

>  <NaasC>
5

>  <NaaaC>
0

>  <NssssC>
0

>  <NsNH3>
0

>  <NsNH2>
0

>  <NssNH2>
0

>  <NdNH>
0

>  <NssNH>
0

>  <NaaNH>
0

>  <NtN>
0

>  <NsssNH>
0

>  <NdsN>
0

>  <NaaN>
0

>  <NsssN>
2

>  <NddsN>
0

>  <NaasN>
0

>  <NssssN>
0

>  <NsOH>
0

>  <NdO>
1

>  <NssO>
0

>  <NaaO>
0

>  <NsF>
0

>  <NsSiH3>
0

>  <NssSiH2>
0

>  <NsssSiH>
0

>  <NssssSi>
0

>  <NsPH2>
0

>  <NssPH>
0

>  <NsssP>
0

>  <NdsssP>
0

>  <NsssssP>
0

>  <NsSH>
0

>  <NdS>
0

>  <NssS>
0

>  <NaaS>
1

>  <NdssS>
0

>  <NddssS>
0

>  <NsCl>
2

>  <NsBr>
0

>  <NsI>
0

>  <fragCpx>
191.06

>  <fMF>
0.48

>  <nHBAcc>
3

>  <nHBDon>
0

>  <Kier1>
19.32

>  <Kier2>
8.57

>  <Lipinski>
1

>  <GhoseFilter>
1

>  <FilterItLogS>
-5.71

>  <VMcGowan>
290.08

>  <LabuteASA>
168.05

>  <PEOE_VSA1>
9.8

>  <PEOE_VSA2>
4.79

>  <PEOE_VSA3>
0

>  <PEOE_VSA4>
0

>  <PEOE_VSA5>
11.34

>  <PEOE_VSA6>
29.27

>  <PEOE_VSA7>
67.06

>  <PEOE_VSA8>
17.97

>  <PEOE_VSA9>
22.51

>  <PEOE_VSA10>
0

>  <PEOE_VSA11>
0

>  <PEOE_VSA12>
5.91

>  <PEOE_VSA13>
0

>  <SMR_VSA1>
4.79

>  <SMR_VSA2>
0

>  <SMR_VSA3>
9.8

>  <SMR_VSA4>
0

>  <SMR_VSA5>
31.73

>  <SMR_VSA6>
26.18

>  <SMR_VSA7>
55.69

>  <SMR_VSA8>
0

>  <SMR_VSA9>
0

>  <SlogP_VSA1>
0

>  <SlogP_VSA2>
41.89

>  <SlogP_VSA3>
17.64

>  <SlogP_VSA4>
0

>  <SlogP_VSA5>
34.89

>  <SlogP_VSA6>
29.65

>  <SlogP_VSA7>
10.05

>  <SlogP_VSA8>
0

>  <SlogP_VSA9>
0

>  <SlogP_VSA10>
0

>  <SlogP_VSA11>
0

>  <EState_VSA1>
0

>  <EState_VSA2>
11.95

>  <EState_VSA3>
16.47

>  <EState_VSA4>
38.16

>  <EState_VSA5>
23.28

>  <EState_VSA6>
12.13

>  <EState_VSA7>
17.4

>  <EState_VSA8>
21.25

>  <EState_VSA9>
23.2

>  <EState_VSA10>
4.79

>  <VSA_EState1>
0

>  <VSA_EState2>
19.13

>  <VSA_EState3>
3.19

>  <VSA_EState4>
2.26

>  <VSA_EState5>
0.17

>  <VSA_EState6>
7.83

>  <VSA_EState7>
3.85

>  <VSA_EState8>
4.03

>  <VSA_EState9>
0

>  <apol>
58.33

>  <bpol>
29.84

>  <nRing>
4

>  <nHRing>
3

>  <naRing>
2

>  <naHRing>
1

>  <nARing 2>
2

>  <nAHRing 2>
2

>  <nFRing>
1

>  <nFHRing>
1

>  <nFaRing>
0

>  <nFaHRing>
0

>  <nFARing 2>
1

>  <nFAHRing 2>
1

>  <nRot>
4

>  <SLogP>
4.82

>  <SMR>
108.32

>  <TopoPSA(NO)>
23.55

>  <TopoPSA>
51.79

>  <JGI1>
0.17

>  <JGI2>
0.08

>  <JGI3>
0.04

>  <JGI4>
0.04

>  <JGI5>
0.02

>  <Diameter>
12

>  <Radius>
6

>  <TMWC10>
131.17

>  <TSRW10>
76.5

>  <MW>
408.08

>  <AMW>
8.5

>  <WPath>
1668

>  <WPol>
39

>  <Zagreb1>
140

>  <Zagreb2>
166

>  <mZagreb2>
5.64

>  <yes>


>  <nAR-cont>
1

>  <nHA-cont>
0.892715677

>  <MWHBN>
0.148507573

>  <MWHBN-cont>
0.928579357

>  <TPSA-cont>
0.63847364

>  <pka_cont>
0.97

>  <yes.1>


>  <BBB_SCORE>
5.047531994

>  <MMFF94 Energy>
93.531

$$$$
Compound 1800
Actelion Java MolfileCreator 2.0

  0  0  0  0  0  0              0 V3000
M  V30 BEGIN CTAB
M  V30 COUNTS 48 51 0 0 0
M  V30 BEGIN ATOM
M  V30 1 Cl 3.8273 4.8879 3.9088 0
M  V30 2 C 2.4056 4.7513 2.9352 0
M  V30 3 C 1.919 5.8122 2.1654 0
M  V30 4 C 1.7314 3.5245 2.9383 0
M  V30 5 Cl 2.6935 7.3561 2.1172 0
M  V30 6 C 0.7634 5.6396 1.3992 0
M  V30 7 C 0.5638 3.3484 2.1802 0
M  V30 8 C 0.0908 4.4151 1.4044 0
M  V30 9 C -0.1543 2.0172 2.1736 0
M  V30 10 C 0.2496 1.0879 1.0332 0
M  V30 11 O 1.0316 1.4517 0.1559 0
M  V30 12 N -0.3074 -0.1888 1.0312 0
M  V30 13 C 0.0686 -1.1124 -0.0791 0 CFG=1
M  V30 14 C -1.3235 -0.6772 1.9702 0
M  V30 15 C 0.1061 -2.5391 0.4397 0
M  V30 16 C -0.9318 -0.9642 -1.2734 0
M  V30 17 C -0.8391 -1.94 2.6686 0
M  V30 18 N 0.5314 -3.6185 -0.1912 0
M  V30 19 N -0.3323 -2.8836 1.6969 0
M  V30 20 N -0.3437 -0.9877 -2.6236 0
M  V30 21 C 0.3581 -4.6641 0.6783 0
M  V30 22 C -0.1843 -4.2273 1.8623 0
M  V30 23 C 0.2867 -2.2613 -2.9739 0
M  V30 24 C -1.3425 -0.7615 -3.6682 0
M  V30 25 C 0.4439 -2.167 -4.4857 0
M  V30 26 C -0.606 -1.1587 -4.9371 0
M  V30 27 H 2.1252 2.7003 3.5293 0
M  V30 28 H 0.384 6.4543 0.7869 0
M  V30 29 H -0.7964 4.2961 0.7854 0
M  V30 30 H 0.0373 1.5104 3.1271 0
M  V30 31 H -1.2338 2.2009 2.1103 0
M  V30 32 H 1.0792 -0.8484 -0.4134 0
M  V30 33 H -2.2288 -0.8826 1.3855 0
M  V30 34 H -1.5929 0.072 2.7163 0
M  V30 35 H -1.7301 -1.7148 -1.1889 0
M  V30 36 H -1.426 0.0119 -1.1743 0
M  V30 37 H -1.6514 -2.4158 3.2268 0
M  V30 38 H -0.0113 -1.7187 3.3515 0
M  V30 39 H 0.6354 -5.674 0.4049 0
M  V30 40 H -0.4537 -4.7463 2.7713 0
M  V30 41 H 1.2589 -2.3937 -2.4905 0
M  V30 42 H -0.3588 -3.1133 -2.7275 0
M  V30 43 H -1.6731 0.2812 -3.7058 0
M  V30 44 H -2.2227 -1.403 -3.533 0
M  V30 45 H 1.444 -1.8065 -4.7531 0
M  V30 46 H 0.3001 -3.1418 -4.963 0
M  V30 47 H -1.2857 -1.5844 -5.6821 0
M  V30 48 H -0.1143 -0.289 -5.3888 0
M  V30 END ATOM
M  V30 BEGIN BOND
M  V30 1 1 1 2
M  V30 2 2 2 3
M  V30 3 1 2 4
M  V30 4 1 3 5
M  V30 5 1 3 6
M  V30 6 2 4 7
M  V30 7 2 6 8
M  V30 8 1 7 9
M  V30 9 1 9 10
M  V30 10 2 10 11
M  V30 11 1 10 12
M  V30 12 1 12 13
M  V30 13 1 12 14
M  V30 14 1 13 15
M  V30 15 1 13 16
M  V30 16 1 14 17
M  V30 17 2 15 18
M  V30 18 1 15 19
M  V30 19 1 16 20
M  V30 20 1 18 21
M  V30 21 1 19 22
M  V30 22 1 20 23
M  V30 23 1 20 24
M  V30 24 1 23 25
M  V30 25 1 24 26
M  V30 26 1 7 8
M  V30 27 1 17 19
M  V30 28 2 21 22
M  V30 29 1 25 26
M  V30 30 1 4 27
M  V30 31 1 6 28
M  V30 32 1 8 29
M  V30 33 1 9 30
M  V30 34 1 9 31
M  V30 35 1 13 32
M  V30 36 1 14 33
M  V30 37 1 14 34
M  V30 38 1 16 35
M  V30 39 1 16 36
M  V30 40 1 17 37
M  V30 41 1 17 38
M  V30 42 1 21 39
M  V30 43 1 22 40
M  V30 44 1 23 41
M  V30 45 1 23 42
M  V30 46 1 24 43
M  V30 47 1 24 44
M  V30 48 1 25 45
M  V30 49 1 25 46
M  V30 50 1 26 47
M  V30 51 1 26 48
M  V30 END BOND
M  V30 BEGIN COLLECTION
M  V30 MDLV30/STEABS ATOMS=(1 13)
M  V30 END COLLECTION
M  V30 END CTAB
M  END
>  <Column 1>
2201

>  <level_0>
2382

>  <index>
2382

>  <Unnamed: 0>
2382

>  <NO.>
2394

>  <Name>
sb201708

>  <IUPAC_name>
2-(3-4-dichlorophenyl)-1-[(8r)-8-(pyrrolidin-1-ylmethyl)-6-8-dihydro-5h-imidazo[1-2-a]pyrazin-7-yl]ethanone

>  <SMILES>
O=C(Cc1ccc(Cl)c(Cl)c1)N1CCn2ccnc2[C@H]1CN1CCCC1

>  <CID>
44310539

>  <logBB>


>  <BBB+/BBB->
BBB+

>  <Inchi>
InChI=1S/C19H22Cl2N4O/c20-15-4-3-14(11-16(15)21)12-18(26)25-10-9-24-8-5-22-19(24)17(25)13-23-6-1-2-7-23/h3-5-8-11-17H-1-2-6-7-9-10-12-13H2/t17-/m1/s1

>  <threshold>
-1

>  <reference>
R1|R28|R9|R24|R27|R30|

>  <group>
B

>  <Class>
-1

>  <ABC>
20.63

>  <ABCGG>
17.07

>  <nAcid>
0

>  <nBase>
1

>  <nAromAtom>
11

>  <nAromBond>
11

>  <nAtom>
48

>  <nHeavyAtom>
26

>  <nSpiro>
0

>  <nBridgehead>
0

>  <nHetero>
7

>  <nN>
4

>  <nO>
1

>  <nF>
0

>  <BalabanJ>
1.4

>  <BertzCT>
800.59

>  <nBonds>
51

>  <nBondsO>
29

>  <nBondsS>
39

>  <nBondsD>
1

>  <nBondsT>
0

>  <nBondsA>
11

>  <nBondsM>
12

>  <nBondsKS>
45

>  <nBondsKD>
6

>  <RNCG>
0.17

>  <RPCG>
0.12

>  <FCSP3>
0.47

>  <SZ>
34.33

>  <Sm>
32.75

>  <Sv>
30.89

>  <Sse>
48.28

>  <Sp>
33.51

>  <Si>
54.24

>  <MZ>
0.72

>  <Mm>
0.68

>  <Mv>
0.64

>  <Mse>
1.01

>  <Mp>
0.7

>  <Mi>
1.13

>  <NsCH3>
0

>  <NdCH2>
0

>  <NssCH2>
8

>  <NtCH>
0

>  <NdsCH>
0

>  <NaaCH>
5

>  <NsssCH>
1

>  <NddC>
0

>  <NtsC>
0

>  <NdssC>
1

>  <NaasC>
4

>  <NaaaC>
0

>  <NssssC>
0

>  <NsNH3>
0

>  <NsNH2>
0

>  <NssNH2>
0

>  <NdNH>
0

>  <NssNH>
0

>  <NaaNH>
0

>  <NtN>
0

>  <NsssNH>
0

>  <NdsN>
0

>  <NaaN>
1

>  <NsssN>
2

>  <NddsN>
0

>  <NaasN>
1

>  <NssssN>
0

>  <NsOH>
0

>  <NdO>
1

>  <NssO>
0

>  <NaaO>
0

>  <NsF>
0

>  <NsSiH3>
0

>  <NssSiH2>
0

>  <NsssSiH>
0

>  <NssssSi>
0

>  <NsPH2>
0

>  <NssPH>
0

>  <NsssP>
0

>  <NdsssP>
0

>  <NsssssP>
0

>  <NsSH>
0

>  <NdS>
0

>  <NssS>
0

>  <NaaS>
0

>  <NdssS>
0

>  <NddssS>
0

>  <NsCl>
2

>  <NsBr>
0

>  <NsI>
0

>  <fragCpx>
191.07

>  <fMF>
0.48

>  <nHBAcc>
4

>  <nHBDon>
0

>  <Kier1>
19.32

>  <Kier2>
8.57

>  <Lipinski>
1

>  <GhoseFilter>
1

>  <FilterItLogS>
-4.47

>  <VMcGowan>
279.6

>  <LabuteASA>
163.05

>  <PEOE_VSA1>
14.37

>  <PEOE_VSA2>
4.79

>  <PEOE_VSA3>
4.98

>  <PEOE_VSA4>
0

>  <PEOE_VSA5>
0

>  <PEOE_VSA6>
29.27

>  <PEOE_VSA7>
43.63

>  <PEOE_VSA8>
32.03

>  <PEOE_VSA9>
16.47

>  <PEOE_VSA10>
11.87

>  <PEOE_VSA11>
0

>  <PEOE_VSA12>
5.91

>  <PEOE_VSA13>
0

>  <SMR_VSA1>
4.79

>  <SMR_VSA2>
0

>  <SMR_VSA3>
19.35

>  <SMR_VSA4>
0

>  <SMR_VSA5>
31.85

>  <SMR_VSA6>
26.18

>  <SMR_VSA7>
52.03

>  <SMR_VSA8>
0

>  <SMR_VSA9>
0

>  <SlogP_VSA1>
0

>  <SlogP_VSA2>
51.44

>  <SlogP_VSA3>
17.76

>  <SlogP_VSA4>
0

>  <SlogP_VSA5>
30.27

>  <SlogP_VSA6>
30.59

>  <SlogP_VSA7>
10.05

>  <SlogP_VSA8>
0

>  <SlogP_VSA9>
0

>  <SlogP_VSA10>
0

>  <SlogP_VSA11>
0

>  <EState_VSA1>
0

>  <EState_VSA2>
11.95

>  <EState_VSA3>
23.01

>  <EState_VSA4>
37.57

>  <EState_VSA5>
12.84

>  <EState_VSA6>
12.13

>  <EState_VSA7>
23.36

>  <EState_VSA8>
14.45

>  <EState_VSA9>
23.2

>  <EState_VSA10>
4.79

>  <VSA_EState1>
2.17

>  <VSA_EState2>
22.05

>  <VSA_EState3>
0.99

>  <VSA_EState4>
0.89

>  <VSA_EState5>
1.1

>  <VSA_EState6>
5.4

>  <VSA_EState7>
6.64

>  <VSA_EState8>
4.56

>  <VSA_EState9>
0

>  <apol>
55.96

>  <bpol>
30.23

>  <nRing>
4

>  <nHRing>
3

>  <naRing>
2

>  <naHRing>
1

>  <nARing 2>
2

>  <nAHRing 2>
2

>  <nFRing>
1

>  <nFHRing>
1

>  <nFaRing>
0

>  <nFaHRing>
0

>  <nFARing 2>
1

>  <nFAHRing 2>
1

>  <nRot>
4

>  <SLogP>
3.41

>  <SMR>
102.52

>  <TopoPSA(NO)>
41.37

>  <TopoPSA>
41.37

>  <JGI1>
0.17

>  <JGI2>
0.08

>  <JGI3>
0.04

>  <JGI4>
0.04

>  <JGI5>
0.02

>  <Diameter>
12

>  <Radius>
6

>  <TMWC10>
131.17

>  <TSRW10>
76.5

>  <MW>
392.12

>  <AMW>
8.17

>  <WPath>
1668

>  <WPol>
39

>  <Zagreb1>
140

>  <Zagreb2>
166

>  <mZagreb2>
5.64

>  <yes>


>  <nAR-cont>
1

>  <nHA-cont>
0.892715677

>  <MWHBN>
0.201999593

>  <MWHBN-cont>
0.999893002

>  <TPSA-cont>
0.711211711

>  <pka_cont>
0.97

>  <yes.1>


>  <BBB_SCORE>
5.299978601

>  <MMFF94 Energy>
89.727

$$$$
Compound 1801
Actelion Java MolfileCreator 2.0

  0  0  0  0  0  0              0 V3000
M  V30 BEGIN CTAB
M  V30 COUNTS 49 52 0 0 0
M  V30 BEGIN ATOM
M  V30 1 Cl 3.9913 2.6052 -2.0349 0
M  V30 2 C 3.9114 2.0128 -0.4128 0
M  V30 3 C 5.0538 1.7756 0.3576 0
M  V30 4 C 2.6449 1.7693 0.1287 0
M  V30 5 Cl 6.6504 2.0554 -0.2411 0
M  V30 6 C 4.9232 1.2929 1.6632 0
M  V30 7 C 2.5073 1.2917 1.4421 0
M  V30 8 C 3.6572 1.0498 2.2025 0
M  V30 9 C 1.1298 1.0167 2.0046 0
M  V30 10 C 0.5179 -0.2823 1.4902 0
M  V30 11 O 1.2297 -1.2408 1.1856 0
M  V30 12 N -0.8671 -0.3358 1.3907 0
M  V30 13 C -1.4593 -1.3543 0.4844 0 CFG=1
M  V30 14 C -1.7972 0.5927 2.0411 0
M  V30 15 C -2.7726 -1.8505 1.0393 0
M  V30 16 C -1.6983 -0.7682 -0.9473 0
M  V30 17 C -2.8291 -0.1669 2.871 0
M  V30 18 N -3.5145 -2.8385 0.5748 0
M  V30 19 N -3.3881 -1.2665 2.1178 0
M  V30 20 N -0.5019 -0.2006 -1.6037 0
M  V30 21 C -4.6212 -2.8886 1.3845 0
M  V30 22 C -4.5637 -1.9131 2.3518 0
M  V30 23 C -0.8496 0.5428 -2.8228 0
M  V30 24 C 0.4104 -1.2477 -2.0845 0
M  V30 25 C 0.475 0.6417 -3.5852 0 CFG=1
M  V30 26 C 1.3323 -0.4941 -3.0331 0
M  V30 27 O 0.2661 0.4833 -4.9831 0
M  V30 28 H 1.7574 1.9383 -0.4792 0
M  V30 29 H 5.8066 1.0955 2.266 0
M  V30 30 H 3.5782 0.6575 3.2147 0
M  V30 31 H 1.1622 0.9682 3.0993 0
M  V30 32 H 0.5003 1.8713 1.7332 0
M  V30 33 H -0.781 -2.2117 0.4067 0
M  V30 34 H -2.2834 1.1798 1.2535 0
M  V30 35 H -1.2756 1.2894 2.7012 0
M  V30 36 H -2.1611 -1.5333 -1.5863 0
M  V30 37 H -2.4418 0.0364 -0.8573 0
M  V30 38 H -3.6438 0.4945 3.1823 0
M  V30 39 H -2.3638 -0.6062 3.7608 0
M  V30 40 H -5.3993 -3.6245 1.2269 0
M  V30 41 H -5.236 -1.6489 3.1559 0
M  V30 42 H -1.6044 0.0213 -3.426 0
M  V30 43 H -1.2382 1.5378 -2.5808 0
M  V30 44 H 0.9769 -1.7245 -1.2817 0
M  V30 45 H -0.1268 -2.0289 -2.6381 0
M  V30 46 H 0.9588 1.6097 -3.4125 0
M  V30 47 H 2.1734 -0.0766 -2.4683 0
M  V30 48 H 1.7358 -1.1513 -3.8097 0
M  V30 49 H 1.1408 0.52 -5.4079 0
M  V30 END ATOM
M  V30 BEGIN BOND
M  V30 1 1 1 2
M  V30 2 2 2 3
M  V30 3 1 2 4
M  V30 4 1 3 5
M  V30 5 1 3 6
M  V30 6 2 4 7
M  V30 7 2 6 8
M  V30 8 1 7 9
M  V30 9 1 9 10
M  V30 10 2 10 11
M  V30 11 1 10 12
M  V30 12 1 12 13
M  V30 13 1 12 14
M  V30 14 1 13 15
M  V30 15 1 13 16
M  V30 16 1 14 17
M  V30 17 2 15 18
M  V30 18 1 15 19
M  V30 19 1 16 20
M  V30 20 1 18 21
M  V30 21 1 19 22
M  V30 22 1 20 23
M  V30 23 1 20 24
M  V30 24 1 23 25
M  V30 25 1 24 26
M  V30 26 1 25 27
M  V30 27 1 7 8
M  V30 28 1 17 19
M  V30 29 2 21 22
M  V30 30 1 25 26
M  V30 31 1 4 28
M  V30 32 1 6 29
M  V30 33 1 8 30
M  V30 34 1 9 31
M  V30 35 1 9 32
M  V30 36 1 13 33
M  V30 37 1 14 34
M  V30 38 1 14 35
M  V30 39 1 16 36
M  V30 40 1 16 37
M  V30 41 1 17 38
M  V30 42 1 17 39
M  V30 43 1 21 40
M  V30 44 1 22 41
M  V30 45 1 23 42
M  V30 46 1 23 43
M  V30 47 1 24 44
M  V30 48 1 24 45
M  V30 49 1 25 46
M  V30 50 1 26 47
M  V30 51 1 26 48
M  V30 52 1 27 49
M  V30 END BOND
M  V30 BEGIN COLLECTION
M  V30 MDLV30/STEABS ATOMS=(2 13 25)
M  V30 END COLLECTION
M  V30 END CTAB
M  END
>  <Column 1>
2202

>  <level_0>
2383

>  <index>
2383

>  <Unnamed: 0>
2383

>  <NO.>
2395

>  <Name>
chembl304504

>  <IUPAC_name>
2-(3-4-dichlorophenyl)-1-[(8r)-8-[[(3r)-3-hydroxypyrrolidin-1-yl]methyl]-6-8-dihydro-5h-imidazo[1-2-a]pyrazin-7-yl]ethanone

>  <SMILES>
O=C(Cc1ccc(Cl)c(Cl)c1)N1CCn2ccnc2[C@H]1CN1CC[C@@H](O)C1

>  <CID>
44310065

>  <logBB>


>  <BBB+/BBB->
BBB-

>  <Inchi>
InChI=1S/C19H22Cl2N4O2/c20-15-2-1-13(9-16(15)21)10-18(27)25-8-7-24-6-4-22-19(24)17(25)12-23-5-3-14(26)11-23/h1-2-4-6-9-14-17-26H-3-5-7-8-10-12H2/t14--17-/m1/s1

>  <threshold>
-1

>  <reference>
R1|R28|R9|R24|R27|R30|

>  <group>
B

>  <Class>
1

>  <ABC>
21.45

>  <ABCGG>
17.6

>  <nAcid>
0

>  <nBase>
1

>  <nAromAtom>
11

>  <nAromBond>
11

>  <nAtom>
49

>  <nHeavyAtom>
27

>  <nSpiro>
0

>  <nBridgehead>
0

>  <nHetero>
8

>  <nN>
4

>  <nO>
2

>  <nF>
0

>  <BalabanJ>
1.4

>  <BertzCT>
840.87

>  <nBonds>
52

>  <nBondsO>
30

>  <nBondsS>
40

>  <nBondsD>
1

>  <nBondsT>
0

>  <nBondsA>
11

>  <nBondsM>
12

>  <nBondsKS>
46

>  <nBondsKD>
6

>  <RNCG>
0.18

>  <RPCG>
0.1

>  <FCSP3>
0.47

>  <SZ>
35.67

>  <Sm>
34.08

>  <Sv>
31.6

>  <Sse>
49.61

>  <Sp>
33.99

>  <Si>
55.45

>  <MZ>
0.73

>  <Mm>
0.7

>  <Mv>
0.64

>  <Mse>
1.01

>  <Mp>
0.69

>  <Mi>
1.13

>  <NsCH3>
0

>  <NdCH2>
0

>  <NssCH2>
7

>  <NtCH>
0

>  <NdsCH>
0

>  <NaaCH>
5

>  <NsssCH>
2

>  <NddC>
0

>  <NtsC>
0

>  <NdssC>
1

>  <NaasC>
4

>  <NaaaC>
0

>  <NssssC>
0

>  <NsNH3>
0

>  <NsNH2>
0

>  <NssNH2>
0

>  <NdNH>
0

>  <NssNH>
0

>  <NaaNH>
0

>  <NtN>
0

>  <NsssNH>
0

>  <NdsN>
0

>  <NaaN>
1

>  <NsssN>
2

>  <NddsN>
0

>  <NaasN>
1

>  <NssssN>
0

>  <NsOH>
1

>  <NdO>
1

>  <NssO>
0

>  <NaaO>
0

>  <NsF>
0

>  <NsSiH3>
0

>  <NssSiH2>
0

>  <NsssSiH>
0

>  <NssssSi>
0

>  <NsPH2>
0

>  <NssPH>
0

>  <NsssP>
0

>  <NdsssP>
0

>  <NsssssP>
0

>  <NsSH>
0

>  <NdS>
0

>  <NssS>
0

>  <NaaS>
0

>  <NdssS>
0

>  <NddssS>
0

>  <NsCl>
2

>  <NsBr>
0

>  <NsI>
0

>  <fragCpx>
198.08

>  <fMF>
0.47

>  <nHBAcc>
5

>  <nHBDon>
1

>  <Kier1>
20.28

>  <Kier2>
8.79

>  <Lipinski>
1

>  <GhoseFilter>
1

>  <FilterItLogS>
-3.65

>  <VMcGowan>
285.47

>  <LabuteASA>
167.85

>  <PEOE_VSA1>
14.57

>  <PEOE_VSA2>
9.69

>  <PEOE_VSA3>
4.98

>  <PEOE_VSA4>
0

>  <PEOE_VSA5>
0

>  <PEOE_VSA6>
29.27

>  <PEOE_VSA7>
24.12

>  <PEOE_VSA8>
45.12

>  <PEOE_VSA9>
22.57

>  <PEOE_VSA10>
11.87

>  <PEOE_VSA11>
0

>  <PEOE_VSA12>
5.91

>  <PEOE_VSA13>
0

>  <SMR_VSA1>
9.9

>  <SMR_VSA2>
0

>  <SMR_VSA3>
19.35

>  <SMR_VSA4>
0

>  <SMR_VSA5>
31.53

>  <SMR_VSA6>
26.18

>  <SMR_VSA7>
52.03

>  <SMR_VSA8>
0

>  <SMR_VSA9>
0

>  <SlogP_VSA1>
0

>  <SlogP_VSA2>
62.65

>  <SlogP_VSA3>
17.76

>  <SlogP_VSA4>
0

>  <SlogP_VSA5>
23.85

>  <SlogP_VSA6>
30.59

>  <SlogP_VSA7>
10.05

>  <SlogP_VSA8>
0

>  <SlogP_VSA9>
0

>  <SlogP_VSA10>
0

>  <SlogP_VSA11>
0

>  <EState_VSA1>
0

>  <EState_VSA2>
24.47

>  <EState_VSA3>
29.68

>  <EState_VSA4>
30.9

>  <EState_VSA5>
0

>  <EState_VSA6>
18.33

>  <EState_VSA7>
17.16

>  <EState_VSA8>
14.45

>  <EState_VSA9>
23.2

>  <EState_VSA10>
9.9

>  <VSA_EState1>
2.11

>  <VSA_EState2>
21.71

>  <VSA_EState3>
10.78

>  <VSA_EState4>
0.85

>  <VSA_EState5>
0.96

>  <VSA_EState6>
5.19

>  <VSA_EState7>
4.51

>  <VSA_EState8>
3.55

>  <VSA_EState9>
0

>  <apol>
56.76

>  <bpol>
30.23

>  <nRing>
4

>  <nHRing>
3

>  <naRing>
2

>  <naHRing>
1

>  <nARing 2>
2

>  <nAHRing 2>
2

>  <nFRing>
1

>  <nFHRing>
1

>  <nFaRing>
0

>  <nFaHRing>
0

>  <nFARing 2>
1

>  <nFAHRing 2>
1

>  <nRot>
4

>  <SLogP>
2.38

>  <SMR>
103.91

>  <TopoPSA(NO)>
61.6

>  <TopoPSA>
61.6

>  <JGI1>
0.2

>  <JGI2>
0.08

>  <JGI3>
0.05

>  <JGI4>
0.04

>  <JGI5>
0.02

>  <Diameter>
13

>  <Radius>
7

>  <TMWC10>
133.59

>  <TSRW10>
77.92

>  <MW>
408.11

>  <AMW>
8.33

>  <WPath>
1856

>  <WPol>
41

>  <Zagreb1>
146

>  <Zagreb2>
173

>  <mZagreb2>
5.81

>  <yes>


>  <nAR-cont>
1

>  <nHA-cont>
0.860070871

>  <MWHBN>
0.297004228

>  <MWHBN-cont>
0.849596022

>  <TPSA-cont>
0.569993749

>  <pka_cont>
0.97

>  <yes.1>


>  <BBB_SCORE>
4.759452402

>  <MMFF94 Energy>
104

$$$$
Compound 1802
Actelion Java MolfileCreator 2.0

  0  0  0  0  0  0              0 V3000
M  V30 BEGIN CTAB
M  V30 COUNTS 47 50 0 0 0
M  V30 BEGIN ATOM
M  V30 1 Cl 6.6167 -1.7938 -1.3859 0
M  V30 2 C 5.2754 -0.7399 -1.6629 0
M  V30 3 C 5.3465 0.3512 -2.534 0
M  V30 4 C 4.0836 -1.0101 -0.9803 0
M  V30 5 Cl 6.7802 0.745 -3.4141 0
M  V30 6 C 4.2273 1.1683 -2.7153 0
M  V30 7 C 2.9538 -0.1985 -1.1647 0
M  V30 8 C 3.0386 0.8976 -2.033 0
M  V30 9 C 1.6742 -0.483 -0.4107 0
M  V30 10 C 1.5704 0.2297 0.9358 0
M  V30 11 O 2.5303 0.8246 1.4276 0
M  V30 12 N 0.3479 0.1713 1.5996 0
M  V30 13 C -0.8686 -0.5093 1.0744 0 CFG=1
M  V30 14 C 0.1954 0.8933 2.8729 0
M  V30 15 C -1.5971 -1.1675 2.2113 0
M  V30 16 C -1.7624 0.5165 0.3076 0
M  V30 17 C -0.2369 -0.0461 3.9874 0
M  V30 18 N -2.5378 -2.0903 2.1798 0
M  V30 19 N -1.3069 -0.8949 3.5184 0
M  V30 20 N -2.8359 -0.0569 -0.5274 0
M  V30 21 C -2.8109 -2.3105 3.5011 0
M  V30 22 N -2.0751 -1.601 4.3609 0
M  V30 23 C -2.3448 -0.7194 -1.7431 0
M  V30 24 C -3.7408 0.9844 -1.0386 0
M  V30 25 C -2.1822 0.381 -2.7818 0
M  V30 26 C -3.095 1.5058 -2.3135 0
M  V30 27 H 4.0397 -1.8532 -0.2935 0
M  V30 28 H 4.2764 2.0241 -3.3846 0
M  V30 29 H 2.1837 1.5548 -2.1801 0
M  V30 30 H 0.8313 -0.1877 -1.0447 0
M  V30 31 H 1.5905 -1.5627 -0.2386 0
M  V30 32 H -0.5484 -1.3029 0.3959 0
M  V30 33 H -0.5595 1.6726 2.7132 0
M  V30 34 H 1.1185 1.404 3.1635 0
M  V30 35 H -2.2256 1.1725 1.0576 0
M  V30 36 H -1.1185 1.1663 -0.2995 0
M  V30 37 H -0.5876 0.5107 4.8615 0
M  V30 38 H 0.5827 -0.7098 4.2831 0
M  V30 39 H -3.5619 -3.0109 3.8433 0
M  V30 40 H -1.4268 -1.2972 -1.6063 0
M  V30 41 H -3.1097 -1.4295 -2.0824 0
M  V30 42 H -4.705 0.5195 -1.28 0
M  V30 43 H -3.9493 1.7818 -0.317 0
M  V30 44 H -2.4533 0.0301 -3.7825 0
M  V30 45 H -1.145 0.7334 -2.8182 0
M  V30 46 H -3.8453 1.7602 -3.0688 0
M  V30 47 H -2.5031 2.4057 -2.1107 0
M  V30 END ATOM
M  V30 BEGIN BOND
M  V30 1 1 1 2
M  V30 2 2 2 3
M  V30 3 1 2 4
M  V30 4 1 3 5
M  V30 5 1 3 6
M  V30 6 2 4 7
M  V30 7 2 6 8
M  V30 8 1 7 9
M  V30 9 1 9 10
M  V30 10 2 10 11
M  V30 11 1 10 12
M  V30 12 1 12 13
M  V30 13 1 12 14
M  V30 14 1 13 15
M  V30 15 1 13 16
M  V30 16 1 14 17
M  V30 17 2 15 18
M  V30 18 1 15 19
M  V30 19 1 16 20
M  V30 20 1 18 21
M  V30 21 1 19 22
M  V30 22 1 20 23
M  V30 23 1 20 24
M  V30 24 1 23 25
M  V30 25 1 24 26
M  V30 26 1 7 8
M  V30 27 1 17 19
M  V30 28 2 21 22
M  V30 29 1 25 26
M  V30 30 1 4 27
M  V30 31 1 6 28
M  V30 32 1 8 29
M  V30 33 1 9 30
M  V30 34 1 9 31
M  V30 35 1 13 32
M  V30 36 1 14 33
M  V30 37 1 14 34
M  V30 38 1 16 35
M  V30 39 1 16 36
M  V30 40 1 17 37
M  V30 41 1 17 38
M  V30 42 1 21 39
M  V30 43 1 23 40
M  V30 44 1 23 41
M  V30 45 1 24 42
M  V30 46 1 24 43
M  V30 47 1 25 44
M  V30 48 1 25 45
M  V30 49 1 26 46
M  V30 50 1 26 47
M  V30 END BOND
M  V30 BEGIN COLLECTION
M  V30 MDLV30/STEABS ATOMS=(1 13)
M  V30 END COLLECTION
M  V30 END CTAB
M  END
>  <Column 1>
2203

>  <level_0>
2384

>  <index>
2384

>  <Unnamed: 0>
2384

>  <NO.>
2396

>  <Name>
sb204484

>  <IUPAC_name>
2-(3-4-dichlorophenyl)-1-[(8r)-8-(pyrrolidin-1-ylmethyl)-6-8-dihydro-5h-[1-2-4]triazolo[1-5-a]pyrazin-7-yl]ethanone

>  <SMILES>
O=C(Cc1ccc(Cl)c(Cl)c1)N1CCn2ncnc2[C@H]1CN1CCCC1

>  <CID>
44310743

>  <logBB>


>  <BBB+/BBB->
BBB+

>  <Inchi>
InChI=1S/C18H21Cl2N5O/c19-14-4-3-13(9-15(14)20)10-17(26)24-7-8-25-18(21-12-22-25)16(24)11-23-5-1-2-6-23/h3-4-9-12-16H-1-2-5-8-10-11H2/t16-/m1/s1

>  <threshold>
-1

>  <reference>
R1|R28|R9|R24|R27|R30|

>  <group>
B

>  <Class>
-1

>  <ABC>
20.63

>  <ABCGG>
17.07

>  <nAcid>
0

>  <nBase>
1

>  <nAromAtom>
11

>  <nAromBond>
11

>  <nAtom>
47

>  <nHeavyAtom>
26

>  <nSpiro>
0

>  <nBridgehead>
0

>  <nHetero>
8

>  <nN>
5

>  <nO>
1

>  <nF>
0

>  <BalabanJ>
1.4

>  <BertzCT>
802.63

>  <nBonds>
50

>  <nBondsO>
29

>  <nBondsS>
38

>  <nBondsD>
1

>  <nBondsT>
0

>  <nBondsA>
11

>  <nBondsM>
12

>  <nBondsKS>
44

>  <nBondsKD>
6

>  <RNCG>
0.17

>  <RPCG>
0.12

>  <FCSP3>
0.5

>  <SZ>
34.33

>  <Sm>
32.83

>  <Sv>
30.38

>  <Sse>
47.5

>  <Sp>
32.77

>  <Si>
53.33

>  <MZ>
0.73

>  <Mm>
0.7

>  <Mv>
0.65

>  <Mse>
1.01

>  <Mp>
0.7

>  <Mi>
1.13

>  <NsCH3>
0

>  <NdCH2>
0

>  <NssCH2>
8

>  <NtCH>
0

>  <NdsCH>
0

>  <NaaCH>
4

>  <NsssCH>
1

>  <NddC>
0

>  <NtsC>
0

>  <NdssC>
1

>  <NaasC>
4

>  <NaaaC>
0

>  <NssssC>
0

>  <NsNH3>
0

>  <NsNH2>
0

>  <NssNH2>
0

>  <NdNH>
0

>  <NssNH>
0

>  <NaaNH>
0

>  <NtN>
0

>  <NsssNH>
0

>  <NdsN>
0

>  <NaaN>
2

>  <NsssN>
2

>  <NddsN>
0

>  <NaasN>
1

>  <NssssN>
0

>  <NsOH>
0

>  <NdO>
1

>  <NssO>
0

>  <NaaO>
0

>  <NsF>
0

>  <NsSiH3>
0

>  <NssSiH2>
0

>  <NsssSiH>
0

>  <NssssSi>
0

>  <NsPH2>
0

>  <NssPH>
0

>  <NsssP>
0

>  <NdsssP>
0

>  <NsssssP>
0

>  <NsSH>
0

>  <NdS>
0

>  <NssS>
0

>  <NaaS>
0

>  <NdssS>
0

>  <NddssS>
0

>  <NsCl>
2

>  <NsBr>
0

>  <NsI>
0

>  <fragCpx>
191.08

>  <fMF>
0.49

>  <nHBAcc>
5

>  <nHBDon>
0

>  <Kier1>
19.32

>  <Kier2>
8.57

>  <Lipinski>
1

>  <GhoseFilter>
1

>  <FilterItLogS>
-4.25

>  <VMcGowan>
275.49

>  <LabuteASA>
162.24

>  <PEOE_VSA1>
9.8

>  <PEOE_VSA2>
4.79

>  <PEOE_VSA3>
9.67

>  <PEOE_VSA4>
5.1

>  <PEOE_VSA5>
0

>  <PEOE_VSA6>
29.27

>  <PEOE_VSA7>
43.63

>  <PEOE_VSA8>
13.09

>  <PEOE_VSA9>
23.01

>  <PEOE_VSA10>
12.37

>  <PEOE_VSA11>
5.82

>  <PEOE_VSA12>
5.91

>  <PEOE_VSA13>
0

>  <SMR_VSA1>
4.79

>  <SMR_VSA2>
0

>  <SMR_VSA3>
24.56

>  <SMR_VSA4>
0

>  <SMR_VSA5>
31.85

>  <SMR_VSA6>
26.18

>  <SMR_VSA7>
45.96

>  <SMR_VSA8>
0

>  <SMR_VSA9>
0

>  <SlogP_VSA1>
0

>  <SlogP_VSA2>
56.65

>  <SlogP_VSA3>
17.76

>  <SlogP_VSA4>
0

>  <SlogP_VSA5>
30.27

>  <SlogP_VSA6>
24.53

>  <SlogP_VSA7>
10.05

>  <SlogP_VSA8>
0

>  <SlogP_VSA9>
0

>  <SlogP_VSA10>
0

>  <SlogP_VSA11>
0

>  <EState_VSA1>
0

>  <EState_VSA2>
11.95

>  <EState_VSA3>
29.56

>  <EState_VSA4>
31.02

>  <EState_VSA5>
12.84

>  <EState_VSA6>
18.46

>  <EState_VSA7>
15.65

>  <EState_VSA8>
14.98

>  <EState_VSA9>
23.2

>  <EState_VSA10>
4.79

>  <VSA_EState1>
1.92

>  <VSA_EState2>
21.85

>  <VSA_EState3>
5.27

>  <VSA_EState4>
0.87

>  <VSA_EState5>
0.97

>  <VSA_EState6>
5.3

>  <VSA_EState7>
4.33

>  <VSA_EState8>
4.3

>  <VSA_EState9>
0

>  <apol>
54.72

>  <bpol>
29.23

>  <nRing>
4

>  <nHRing>
3

>  <naRing>
2

>  <naHRing>
1

>  <nARing 2>
2

>  <nAHRing 2>
2

>  <nFRing>
1

>  <nFHRing>
1

>  <nFaRing>
0

>  <nFaHRing>
0

>  <nFARing 2>
1

>  <nFAHRing 2>
1

>  <nRot>
4

>  <SLogP>
2.81

>  <SMR>
100.32

>  <TopoPSA(NO)>
54.26

>  <TopoPSA>
54.26

>  <JGI1>
0.17

>  <JGI2>
0.08

>  <JGI3>
0.04

>  <JGI4>
0.04

>  <JGI5>
0.02

>  <Diameter>
12

>  <Radius>
6

>  <TMWC10>
131.17

>  <TSRW10>
76.5

>  <MW>
393.11

>  <AMW>
8.36

>  <WPath>
1668

>  <WPol>
39

>  <Zagreb1>
140

>  <Zagreb2>
166

>  <mZagreb2>
5.64

>  <yes>


>  <nAR-cont>
1

>  <nHA-cont>
0.892715677

>  <MWHBN>
0.252181346

>  <MWHBN-cont>
0.956034498

>  <TPSA-cont>
0.621231507

>  <pka_cont>
0.97

>  <yes.1>


>  <BBB_SCORE>
5.054230437

>  <MMFF94 Energy>
84.495

$$$$
Compound 1803
Actelion Java MolfileCreator 2.0

  0  0  0  0  0  0              0 V3000
M  V30 BEGIN CTAB
M  V30 COUNTS 30 32 0 0 0
M  V30 BEGIN ATOM
M  V30 1 O 1.8407 -1.9208 -0.72 0
M  V30 2 C 1.2221 -0.8601 -0.6637 0
M  V30 3 C -0.0094 -0.7932 0.1818 0
M  V30 4 C 1.6325 0.3802 -1.4279 0
M  V30 5 C -0.9126 0.2762 0.1121 0
M  V30 6 C -0.2635 -1.8477 1.0662 0
M  V30 7 N 2.9779 0.3065 -1.9721 0
M  V30 8 C -2.0604 0.3033 0.9261 0
M  V30 9 C -1.399 -1.832 1.8792 0
M  V30 10 C 3.3536 -0.3852 -3.0884 0
M  V30 11 C 4.07 0.9986 -1.5259 0
M  V30 12 C -2.3048 -0.7636 1.8213 0
M  V30 13 C -2.9734 1.3697 0.8684 0
M  V30 14 N 4.6135 -0.1618 -3.3883 0
M  V30 15 C 5.0728 0.6858 -2.4142 0
M  V30 16 C -3.4502 -0.7343 2.6324 0
M  V30 17 C -4.1078 1.3839 1.6819 0
M  V30 18 C -4.3457 0.3335 2.5628 0
M  V30 19 H 1.604 1.254 -0.7683 0
M  V30 20 H 0.953 0.533 -2.273 0
M  V30 21 H -0.7527 1.1005 -0.577 0
M  V30 22 H 0.4222 -2.6915 1.131 0
M  V30 23 H -1.57 -2.665 2.5585 0
M  V30 24 H 2.6797 -1.0291 -3.6389 0
M  V30 25 H 4.0523 1.6313 -0.6499 0
M  V30 26 H -2.8106 2.2026 0.1878 0
M  V30 27 H 6.0988 1.0298 -2.4075 0
M  V30 28 H -3.6549 -1.5467 3.3268 0
M  V30 29 H -4.8062 2.2155 1.627 0
M  V30 30 H -5.2292 0.3434 3.1965 0
M  V30 END ATOM
M  V30 BEGIN BOND
M  V30 1 2 1 2
M  V30 2 1 2 3
M  V30 3 1 2 4
M  V30 4 2 3 5
M  V30 5 1 3 6
M  V30 6 1 4 7
M  V30 7 1 5 8
M  V30 8 2 6 9
M  V30 9 1 7 10
M  V30 10 1 7 11
M  V30 11 1 8 12
M  V30 12 2 8 13
M  V30 13 2 10 14
M  V30 14 2 11 15
M  V30 15 2 12 16
M  V30 16 1 13 17
M  V30 17 1 16 18
M  V30 18 1 9 12
M  V30 19 1 14 15
M  V30 20 2 17 18
M  V30 21 1 4 19
M  V30 22 1 4 20
M  V30 23 1 5 21
M  V30 24 1 6 22
M  V30 25 1 9 23
M  V30 26 1 10 24
M  V30 27 1 11 25
M  V30 28 1 13 26
M  V30 29 1 15 27
M  V30 30 1 16 28
M  V30 31 1 17 29
M  V30 32 1 18 30
M  V30 END BOND
M  V30 END CTAB
M  END
>  <Column 1>
2205

>  <level_0>
2386

>  <index>
2386

>  <Unnamed: 0>
2386

>  <NO.>
2398

>  <Name>
nafimidone

>  <IUPAC_name>
2-imidazol-1-yl-1-naphthalen-2-ylethanone

>  <SMILES>
O=C(Cn1ccnc1)c1ccc2ccccc2c1

>  <CID>
51200

>  <logBB>


>  <BBB+/BBB->
BBB+

>  <Inchi>
InChI=1S/C15H12N2O/c18-15(10-17-8-7-16-11-17)14-6-5-12-3-1-2-4-13(12)9-14/h1-9-11H-10H2

>  <threshold>
-1

>  <reference>
R1|R13|R19|R6|R24|R27|R27|R27|R30|R30|

>  <group>
B

>  <Class>
-1

>  <ABC>
14.17

>  <ABCGG>
11.62

>  <nAcid>
0

>  <nBase>
0

>  <nAromAtom>
15

>  <nAromBond>
16

>  <nAtom>
30

>  <nHeavyAtom>
18

>  <nSpiro>
0

>  <nBridgehead>
0

>  <nHetero>
3

>  <nN>
2

>  <nO>
1

>  <nF>
0

>  <BalabanJ>
1.49

>  <BertzCT>
686.54

>  <nBonds>
32

>  <nBondsO>
20

>  <nBondsS>
15

>  <nBondsD>
1

>  <nBondsT>
0

>  <nBondsA>
16

>  <nBondsM>
17

>  <nBondsKS>
24

>  <nBondsKD>
8

>  <RNCG>
0.26

>  <RPCG>
0.14

>  <FCSP3>
0.07

>  <SZ>
20.67

>  <Sm>
19.67

>  <Sv>
20.48

>  <Sse>
29.98

>  <Sp>
21.59

>  <Si>
33.28

>  <MZ>
0.69

>  <Mm>
0.66

>  <Mv>
0.68

>  <Mse>
1

>  <Mp>
0.72

>  <Mi>
1.11

>  <NsCH3>
0

>  <NdCH2>
0

>  <NssCH2>
1

>  <NtCH>
0

>  <NdsCH>
0

>  <NaaCH>
10

>  <NsssCH>
0

>  <NddC>
0

>  <NtsC>
0

>  <NdssC>
1

>  <NaasC>
1

>  <NaaaC>
2

>  <NssssC>
0

>  <NsNH3>
0

>  <NsNH2>
0

>  <NssNH2>
0

>  <NdNH>
0

>  <NssNH>
0

>  <NaaNH>
0

>  <NtN>
0

>  <NsssNH>
0

>  <NdsN>
0

>  <NaaN>
1

>  <NsssN>
0

>  <NddsN>
0

>  <NaasN>
1

>  <NssssN>
0

>  <NsOH>
0

>  <NdO>
1

>  <NssO>
0

>  <NaaO>
0

>  <NsF>
0

>  <NsSiH3>
0

>  <NssSiH2>
0

>  <NsssSiH>
0

>  <NssssSi>
0

>  <NsPH2>
0

>  <NssPH>
0

>  <NsssP>
0

>  <NdsssP>
0

>  <NsssssP>
0

>  <NsSH>
0

>  <NdS>
0

>  <NssS>
0

>  <NaaS>
0

>  <NdssS>
0

>  <NddssS>
0

>  <NsCl>
0

>  <NsBr>
0

>  <NsI>
0

>  <fragCpx>
94.03

>  <fMF>
0.57

>  <nHBAcc>
3

>  <nHBDon>
0

>  <Kier1>
13.01

>  <Kier2>
5.97

>  <Lipinski>
1

>  <GhoseFilter>
1

>  <FilterItLogS>
-3.45

>  <VMcGowan>
181.06

>  <LabuteASA>
104.7

>  <PEOE_VSA1>
4.57

>  <PEOE_VSA2>
4.79

>  <PEOE_VSA3>
4.98

>  <PEOE_VSA4>
0

>  <PEOE_VSA5>
0

>  <PEOE_VSA6>
36.4

>  <PEOE_VSA7>
16.84

>  <PEOE_VSA8>
17.96

>  <PEOE_VSA9>
12.87

>  <PEOE_VSA10>
0

>  <PEOE_VSA11>
5.78

>  <PEOE_VSA12>
0

>  <PEOE_VSA13>
0

>  <SMR_VSA1>
4.79

>  <SMR_VSA2>
0

>  <SMR_VSA3>
9.55

>  <SMR_VSA4>
0

>  <SMR_VSA5>
6.54

>  <SMR_VSA6>
0

>  <SMR_VSA7>
66.75

>  <SMR_VSA8>
0

>  <SMR_VSA9>
0

>  <SlogP_VSA1>
0

>  <SlogP_VSA2>
15.33

>  <SlogP_VSA3>
6.54

>  <SlogP_VSA4>
0

>  <SlogP_VSA5>
10.36

>  <SlogP_VSA6>
61.19

>  <SlogP_VSA7>
0

>  <SlogP_VSA8>
10.77

>  <SlogP_VSA9>
0

>  <SlogP_VSA10>
0

>  <SlogP_VSA11>
0

>  <EState_VSA1>
0

>  <EState_VSA2>
5.78

>  <EState_VSA3>
6.54

>  <EState_VSA4>
16.34

>  <EState_VSA5>
0

>  <EState_VSA6>
23.29

>  <EState_VSA7>
42.46

>  <EState_VSA8>
4.98

>  <EState_VSA9>
0

>  <EState_VSA10>
4.79

>  <VSA_EState1>
1.78

>  <VSA_EState2>
16.04

>  <VSA_EState3>
2.24

>  <VSA_EState4>
0.74

>  <VSA_EState5>
0.1

>  <VSA_EState6>
13.83

>  <VSA_EState7>
5.12

>  <VSA_EState8>
0.33

>  <VSA_EState9>
0

>  <apol>
36.05

>  <bpol>
15.76

>  <nRing>
3

>  <nHRing>
1

>  <naRing>
3

>  <naHRing>
1

>  <nARing 2>
0

>  <nAHRing 2>
0

>  <nFRing>
1

>  <nFHRing>
0

>  <nFaRing>
1

>  <nFaHRing>
0

>  <nFARing 2>
0

>  <nFAHRing 2>
0

>  <nRot>
3

>  <SLogP>
2.92

>  <SMR>
70.51

>  <TopoPSA(NO)>
34.89

>  <TopoPSA>
34.89

>  <JGI1>
0.15

>  <JGI2>
0.07

>  <JGI3>
0.03

>  <JGI4>
0.05

>  <JGI5>
0.02

>  <Diameter>
10

>  <Radius>
5

>  <TMWC10>
109.63

>  <TSRW10>
64.07

>  <MW>
236.09

>  <AMW>
7.87

>  <WPath>
636

>  <WPol>
24

>  <Zagreb1>
94

>  <Zagreb2>
109

>  <mZagreb2>
3.97

>  <yes>


>  <nAR-cont>
0.336376

>  <nHA-cont>
0.991161285

>  <MWHBN>
0.195246141

>  <MWHBN-cont>
0.998274365

>  <TPSA-cont>
0.756446135

>  <pka_cont>
0.97

>  <yes.1>


>  <BBB_SCORE>
4.822841102

>  <MMFF94 Energy>
53.792

$$$$
Compound 1804
Actelion Java MolfileCreator 2.0

  0  0  0  0  0  0              0 V3000
M  V30 BEGIN CTAB
M  V30 COUNTS 54 57 0 0 0
M  V30 BEGIN ATOM
M  V30 1 O 2.945 -2.3873 1.9891 0
M  V30 2 C 2.1679 -1.5715 2.4647 0
M  V30 3 N 2.2436 -1.0291 3.7262 0
M  V30 4 N 1.1308 -1.0206 1.7382 0
M  V30 5 C 2.9777 -1.5605 4.7689 0
M  V30 6 C 0.8972 -1.3877 0.3451 0
M  V30 7 O 3.3605 -2.7196 4.8601 0
M  V30 8 C 3.1807 -0.6394 5.9214 0
M  V30 9 C -0.5588 -1.1266 -0.0454 0
M  V30 10 C 1.8458 -0.6307 -0.5885 0
M  V30 11 C 3.1837 -1.1743 7.2152 0
M  V30 12 C 3.3909 0.7339 5.7353 0
M  V30 13 C -0.7854 -1.4131 -1.5301 0
M  V30 14 C 1.5289 -0.9395 -2.0519 0
M  V30 15 C 3.3649 -0.3381 8.3177 0
M  V30 16 C 3.5733 1.5661 6.8422 0
M  V30 17 N 0.1293 -0.6892 -2.424 0
M  V30 18 C 3.5547 1.0308 8.1306 0
M  V30 19 C -0.1618 0.7495 -2.5349 0
M  V30 20 C -1.4887 1.0477 -3.2027 0
M  V30 21 C -1.771 0.5432 -4.4825 0
M  V30 22 C -2.4439 1.8493 -2.5675 0
M  V30 23 C -2.9897 0.8193 -5.124 0
M  V30 24 C -3.6601 2.1338 -3.1941 0
M  V30 25 C -3.9476 1.6264 -4.4704 0
M  V30 26 C -3.277 0.31 -6.4006 0
M  V30 27 C -5.1659 1.9029 -5.1124 0
M  V30 28 C -4.4926 0.5936 -7.0253 0
M  V30 29 C -5.436 1.3894 -6.382 0
M  V30 30 H 1.7676 -0.1573 3.8714 0
M  V30 31 H 0.4622 -0.4235 2.1992 0
M  V30 32 H 1.096 -2.4634 0.249 0
M  V30 33 H -0.8375 -0.0912 0.1877 0
M  V30 34 H -1.2218 -1.7624 0.5542 0
M  V30 35 H 1.7773 0.4488 -0.4038 0
M  V30 36 H 2.8854 -0.9094 -0.3784 0
M  V30 37 H 3.0461 -2.2438 7.3655 0
M  V30 38 H 3.4511 1.1651 4.74 0
M  V30 39 H -0.6517 -2.4889 -1.7053 0
M  V30 40 H -1.832 -1.2144 -1.7872 0
M  V30 41 H 1.7548 -1.9956 -2.2497 0
M  V30 42 H 2.204 -0.3729 -2.705 0
M  V30 43 H 3.3658 -0.7567 9.3213 0
M  V30 44 H 3.7457 2.6307 6.7022 0
M  V30 45 H 3.7035 1.6792 8.9911 0
M  V30 46 H -0.1149 1.2439 -1.5574 0
M  V30 47 H 0.6046 1.2336 -3.1551 0
M  V30 48 H -1.0277 -0.0817 -4.9755 0
M  V30 49 H -2.2513 2.259 -1.5792 0
M  V30 50 H -4.3852 2.758 -2.6767 0
M  V30 51 H -2.552 -0.3145 -6.9175 0
M  V30 52 H -5.9157 2.5222 -4.6256 0
M  V30 53 H -4.7012 0.192 -8.0133 0
M  V30 54 H -6.3829 1.6108 -6.8673 0
M  V30 END ATOM
M  V30 BEGIN BOND
M  V30 1 2 1 2
M  V30 2 1 2 3
M  V30 3 1 2 4
M  V30 4 1 3 5
M  V30 5 1 4 6
M  V30 6 2 5 7
M  V30 7 1 5 8
M  V30 8 1 6 9
M  V30 9 1 6 10
M  V30 10 2 8 11
M  V30 11 1 8 12
M  V30 12 1 9 13
M  V30 13 1 10 14
M  V30 14 1 11 15
M  V30 15 2 12 16
M  V30 16 1 13 17
M  V30 17 2 15 18
M  V30 18 1 17 19
M  V30 19 1 19 20
M  V30 20 2 20 21
M  V30 21 1 20 22
M  V30 22 1 21 23
M  V30 23 2 22 24
M  V30 24 1 23 25
M  V30 25 2 23 26
M  V30 26 2 25 27
M  V30 27 1 26 28
M  V30 28 1 27 29
M  V30 29 1 14 17
M  V30 30 1 16 18
M  V30 31 1 24 25
M  V30 32 2 28 29
M  V30 33 1 3 30
M  V30 34 1 4 31
M  V30 35 1 6 32
M  V30 36 1 9 33
M  V30 37 1 9 34
M  V30 38 1 10 35
M  V30 39 1 10 36
M  V30 40 1 11 37
M  V30 41 1 12 38
M  V30 42 1 13 39
M  V30 43 1 13 40
M  V30 44 1 14 41
M  V30 45 1 14 42
M  V30 46 1 15 43
M  V30 47 1 16 44
M  V30 48 1 18 45
M  V30 49 1 19 46
M  V30 50 1 19 47
M  V30 51 1 21 48
M  V30 52 1 22 49
M  V30 53 1 24 50
M  V30 54 1 26 51
M  V30 55 1 27 52
M  V30 56 1 28 53
M  V30 57 1 29 54
M  V30 END BOND
M  V30 END CTAB
M  END
>  <Column 1>
2207

>  <level_0>
2388

>  <index>
2388

>  <Unnamed: 0>
2388

>  <NO.>
2400

>  <Name>
panuramine

>  <IUPAC_name>
n-[[1-(naphthalen-2-ylmethyl)piperidin-4-yl]carbamoyl]benzamide

>  <SMILES>
O=C(NC(=O)c1ccccc1)NC1CCN(Cc2ccc3ccccc3c2)CC1

>  <CID>
72002

>  <logBB>


>  <BBB+/BBB->
BBB+

>  <Inchi>
InChI=1S/C24H25N3O2/c28-23(20-7-2-1-3-8-20)26-24(29)25-22-12-14-27(15-13-22)17-18-10-11-19-6-4-5-9-21(19)16-18/h1-11-16-22H-12-15-17H2-(H2-25-26-28-29)

>  <threshold>
-1

>  <reference>
R1|R13|R19|R6|R24|R27|R27|R27|R30|R30|

>  <group>
B

>  <Class>
1

>  <ABC>
22.77

>  <ABCGG>
15.81

>  <nAcid>
0

>  <nBase>
1

>  <nAromAtom>
16

>  <nAromBond>
17

>  <nAtom>
54

>  <nHeavyAtom>
29

>  <nSpiro>
0

>  <nBridgehead>
0

>  <nHetero>
5

>  <nN>
3

>  <nO>
2

>  <nF>
0

>  <BalabanJ>
1.12

>  <BertzCT>
995.19

>  <nBonds>
57

>  <nBondsO>
32

>  <nBondsS>
38

>  <nBondsD>
2

>  <nBondsT>
0

>  <nBondsA>
17

>  <nBondsM>
19

>  <nBondsKS>
47

>  <nBondsKD>
10

>  <RNCG>
0.15

>  <RPCG>
0.15

>  <FCSP3>
0.25

>  <SZ>
34.33

>  <Sm>
32.26

>  <Sv>
34.48

>  <Sse>
53.75

>  <Sp>
36.92

>  <Si>
60.48

>  <MZ>
0.64

>  <Mm>
0.6

>  <Mv>
0.64

>  <Mse>
1

>  <Mp>
0.68

>  <Mi>
1.12

>  <NsCH3>
0

>  <NdCH2>
0

>  <NssCH2>
5

>  <NtCH>
0

>  <NdsCH>
0

>  <NaaCH>
12

>  <NsssCH>
1

>  <NddC>
0

>  <NtsC>
0

>  <NdssC>
2

>  <NaasC>
2

>  <NaaaC>
2

>  <NssssC>
0

>  <NsNH3>
0

>  <NsNH2>
0

>  <NssNH2>
0

>  <NdNH>
0

>  <NssNH>
2

>  <NaaNH>
0

>  <NtN>
0

>  <NsssNH>
0

>  <NdsN>
0

>  <NaaN>
0

>  <NsssN>
1

>  <NddsN>
0

>  <NaasN>
0

>  <NssssN>
0

>  <NsOH>
0

>  <NdO>
2

>  <NssO>
0

>  <NaaO>
0

>  <NsF>
0

>  <NsSiH3>
0

>  <NssSiH2>
0

>  <NsssSiH>
0

>  <NssssSi>
0

>  <NsPH2>
0

>  <NssPH>
0

>  <NsssP>
0

>  <NdsssP>
0

>  <NsssssP>
0

>  <NsSH>
0

>  <NdS>
0

>  <NssS>
0

>  <NaaS>
0

>  <NdssS>
0

>  <NddssS>
0

>  <NsCl>
0

>  <NsBr>
0

>  <NsI>
0

>  <fragCpx>
212.05

>  <fMF>
0.5

>  <nHBAcc>
3

>  <nHBDon>
2

>  <Kier1>
22.2

>  <Kier2>
11.04

>  <Lipinski>
1

>  <GhoseFilter>
1

>  <FilterItLogS>
-5.61

>  <VMcGowan>
304.26

>  <LabuteASA>
170.27

>  <PEOE_VSA1>
5.32

>  <PEOE_VSA2>
15.01

>  <PEOE_VSA3>
4.79

>  <PEOE_VSA4>
0

>  <PEOE_VSA5>
0

>  <PEOE_VSA6>
54.6

>  <PEOE_VSA7>
47.38

>  <PEOE_VSA8>
31.24

>  <PEOE_VSA9>
0

>  <PEOE_VSA10>
0

>  <PEOE_VSA11>
0

>  <PEOE_VSA12>
0

>  <PEOE_VSA13>
5.91

>  <SMR_VSA1>
9.59

>  <SMR_VSA2>
0

>  <SMR_VSA3>
15.53

>  <SMR_VSA4>
0

>  <SMR_VSA5>
25.43

>  <SMR_VSA6>
13.09

>  <SMR_VSA7>
83.92

>  <SMR_VSA8>
0

>  <SMR_VSA9>
0

>  <SlogP_VSA1>
10.63

>  <SlogP_VSA2>
35.97

>  <SlogP_VSA3>
6.54

>  <SlogP_VSA4>
0

>  <SlogP_VSA5>
28.76

>  <SlogP_VSA6>
72.8

>  <SlogP_VSA7>
0

>  <SlogP_VSA8>
10.77

>  <SlogP_VSA9>
0

>  <SlogP_VSA10>
4.79

>  <SlogP_VSA11>
0

>  <EState_VSA1>
6.03

>  <EState_VSA2>
11.95

>  <EState_VSA3>
5.56

>  <EState_VSA4>
32.48

>  <EState_VSA5>
16.34

>  <EState_VSA6>
24.27

>  <EState_VSA7>
6.07

>  <EState_VSA8>
58

>  <EState_VSA9>
0

>  <EState_VSA10>
9.59

>  <VSA_EState1>
0

>  <VSA_EState2>
26.61

>  <VSA_EState3>
7.86

>  <VSA_EState4>
1.79

>  <VSA_EState5>
-0.38

>  <VSA_EState6>
23.44

>  <VSA_EState7>
1.75

>  <VSA_EState8>
2.76

>  <VSA_EState9>
0

>  <apol>
61.65

>  <bpol>
29.67

>  <nRing>
4

>  <nHRing>
1

>  <naRing>
3

>  <naHRing>
0

>  <nARing 2>
1

>  <nAHRing 2>
1

>  <nFRing>
1

>  <nFHRing>
0

>  <nFaRing>
1

>  <nFaHRing>
0

>  <nFARing 2>
0

>  <nFAHRing 2>
0

>  <nRot>
4

>  <SLogP>
3.94

>  <SMR>
114.69

>  <TopoPSA(NO)>
61.44

>  <TopoPSA>
61.44

>  <JGI1>
0.17

>  <JGI2>
0.06

>  <JGI3>
0.04

>  <JGI4>
0.04

>  <JGI5>
0.02

>  <Diameter>
18

>  <Radius>
9

>  <TMWC10>
136.5

>  <TSRW10>
64.26

>  <MW>
387.19

>  <AMW>
7.17

>  <WPath>
2780

>  <WPol>
42

>  <Zagreb1>
150

>  <Zagreb2>
172

>  <mZagreb2>
6.39

>  <yes>


>  <nAR-cont>
0.816016

>  <nHA-cont>
0.785905698

>  <MWHBN>
0.254101915

>  <MWHBN-cont>
0.952616503

>  <TPSA-cont>
0.571110648

>  <pka_cont>
0.97

>  <yes.1>


>  <BBB_SCORE>
4.658067749

>  <MMFF94 Energy>
-19.46

$$$$
Compound 1805
Actelion Java MolfileCreator 2.0

  0  0  0  0  0  0              0 V3000
M  V30 BEGIN CTAB
M  V30 COUNTS 38 39 0 0 0
M  V30 BEGIN ATOM
M  V30 1 Cl -5.9187 2.0765 -5.2775 0
M  V30 2 C -4.9853 1.5192 -3.9444 0
M  V30 3 C -5.5419 1.5038 -2.6669 0
M  V30 4 C -3.6729 1.093 -4.1491 0
M  V30 5 C -4.7813 1.0514 -1.5854 0
M  V30 6 C -2.9099 0.6386 -3.0683 0
M  V30 7 C -3.4673 0.6043 -1.7826 0
M  V30 8 C -2.6971 0.1359 -0.5974 0
M  V30 9 O -2.9555 0.5814 0.5146 0
M  V30 10 N -1.7316 -0.8213 -0.8301 0
M  V30 11 C -0.8993 -1.3345 0.2403 0
M  V30 12 C 0.3522 -0.4802 0.4341 0
M  V30 13 C 1.2226 -1.0422 1.5638 0
M  V30 14 N 2.4041 -0.2108 1.8461 0
M  V30 15 C 3.0461 -0.6494 3.1068 0
M  V30 16 C 3.4091 -0.2674 0.7623 0
M  V30 17 C 4.315 0.1622 3.4092 0
M  V30 18 C 4.6737 0.5314 1.1217 0
M  V30 19 O 5.2622 0.0551 2.3386 0
M  V30 20 H -6.5611 1.8448 -2.5033 0
M  V30 21 H -3.2361 1.1224 -5.1443 0
M  V30 22 H -5.2149 1.0467 -0.5865 0
M  V30 23 H -1.8785 0.3467 -3.2427 0
M  V30 24 H -1.6242 -1.2222 -1.7509 0
M  V30 25 H -0.6238 -2.3588 -0.0327 0
M  V30 26 H -1.486 -1.3763 1.1648 0
M  V30 27 H 0.0647 0.5535 0.6645 0
M  V30 28 H 0.9072 -0.4518 -0.5104 0
M  V30 29 H 0.599 -1.0862 2.4666 0
M  V30 30 H 1.5188 -2.0739 1.333 0
M  V30 31 H 2.3477 -0.5289 3.9431 0
M  V30 32 H 3.3129 -1.7123 3.0373 0
M  V30 33 H 3.6917 -1.3108 0.5711 0
M  V30 34 H 3.0011 0.1497 -0.1636 0
M  V30 35 H 4.7947 -0.224 4.3143 0
M  V30 36 H 4.0803 1.2196 3.5825 0
M  V30 37 H 5.4195 0.4183 0.3283 0
M  V30 38 H 4.4531 1.6014 1.2201 0
M  V30 END ATOM
M  V30 BEGIN BOND
M  V30 1 1 1 2
M  V30 2 2 2 3
M  V30 3 1 2 4
M  V30 4 1 3 5
M  V30 5 2 4 6
M  V30 6 2 5 7
M  V30 7 1 7 8
M  V30 8 2 8 9
M  V30 9 1 8 10
M  V30 10 1 10 11
M  V30 11 1 11 12
M  V30 12 1 12 13
M  V30 13 1 13 14
M  V30 14 1 14 15
M  V30 15 1 14 16
M  V30 16 1 15 17
M  V30 17 1 16 18
M  V30 18 1 17 19
M  V30 19 1 6 7
M  V30 20 1 18 19
M  V30 21 1 3 20
M  V30 22 1 4 21
M  V30 23 1 5 22
M  V30 24 1 6 23
M  V30 25 1 10 24
M  V30 26 1 11 25
M  V30 27 1 11 26
M  V30 28 1 12 27
M  V30 29 1 12 28
M  V30 30 1 13 29
M  V30 31 1 13 30
M  V30 32 1 15 31
M  V30 33 1 15 32
M  V30 34 1 16 33
M  V30 35 1 16 34
M  V30 36 1 17 35
M  V30 37 1 17 36
M  V30 38 1 18 37
M  V30 39 1 18 38
M  V30 END BOND
M  V30 END CTAB
M  END
>  <Column 1>
2208

>  <level_0>
2389

>  <index>
2389

>  <Unnamed: 0>
2389

>  <NO.>
2401

>  <Name>
eprobemide

>  <IUPAC_name>
4-chloro-n-(3-morpholin-4-ylpropyl)benzamide

>  <SMILES>
O=C(NCCCN1CCOCC1)c1ccc(Cl)cc1

>  <CID>
65659

>  <logBB>


>  <BBB+/BBB->
BBB+

>  <Inchi>
InChI=1S/C14H19ClN2O2/c15-13-4-2-12(3-5-13)14(18)16-6-1-7-17-8-10-19-11-9-17/h2-5H-1-6-11H2-(H-16-18)

>  <threshold>
-1

>  <reference>
R1|R13|R19|R6|R24|R27|R27|R27|R30|R30|

>  <group>
B

>  <Class>
1

>  <ABC>
14.32

>  <ABCGG>
11.38

>  <nAcid>
0

>  <nBase>
1

>  <nAromAtom>
6

>  <nAromBond>
6

>  <nAtom>
38

>  <nHeavyAtom>
19

>  <nSpiro>
0

>  <nBridgehead>
0

>  <nHetero>
5

>  <nN>
2

>  <nO>
2

>  <nF>
0

>  <BalabanJ>
1.52

>  <BertzCT>
402.41

>  <nBonds>
39

>  <nBondsO>
20

>  <nBondsS>
32

>  <nBondsD>
1

>  <nBondsT>
0

>  <nBondsA>
6

>  <nBondsM>
7

>  <nBondsKS>
35

>  <nBondsKD>
4

>  <RNCG>
0.24

>  <RPCG>
0.16

>  <FCSP3>
0.5

>  <SZ>
25

>  <Sm>
23.54

>  <Sv>
23.18

>  <Sse>
38.19

>  <Sp>
25.17

>  <Si>
43.1

>  <MZ>
0.66

>  <Mm>
0.62

>  <Mv>
0.61

>  <Mse>
1

>  <Mp>
0.66

>  <Mi>
1.13

>  <NsCH3>
0

>  <NdCH2>
0

>  <NssCH2>
7

>  <NtCH>
0

>  <NdsCH>
0

>  <NaaCH>
4

>  <NsssCH>
0

>  <NddC>
0

>  <NtsC>
0

>  <NdssC>
1

>  <NaasC>
2

>  <NaaaC>
0

>  <NssssC>
0

>  <NsNH3>
0

>  <NsNH2>
0

>  <NssNH2>
0

>  <NdNH>
0

>  <NssNH>
1

>  <NaaNH>
0

>  <NtN>
0

>  <NsssNH>
0

>  <NdsN>
0

>  <NaaN>
0

>  <NsssN>
1

>  <NddsN>
0

>  <NaasN>
0

>  <NssssN>
0

>  <NsOH>
0

>  <NdO>
1

>  <NssO>
1

>  <NaaO>
0

>  <NsF>
0

>  <NsSiH3>
0

>  <NssSiH2>
0

>  <NsssSiH>
0

>  <NssssSi>
0

>  <NsPH2>
0

>  <NssPH>
0

>  <NsssP>
0

>  <NdsssP>
0

>  <NsssssP>
0

>  <NsSH>
0

>  <NdS>
0

>  <NssS>
0

>  <NaaS>
0

>  <NdssS>
0

>  <NddssS>
0

>  <NsCl>
1

>  <NsBr>
0

>  <NsI>
0

>  <fragCpx>
58.05

>  <fMF>
0.45

>  <nHBAcc>
3

>  <nHBDon>
1

>  <Kier1>
15.39

>  <Kier2>
8.32

>  <Lipinski>
1

>  <GhoseFilter>
1

>  <FilterItLogS>
-3.8

>  <VMcGowan>
213.14

>  <LabuteASA>
118.23

>  <PEOE_VSA1>
10.05

>  <PEOE_VSA2>
9.69

>  <PEOE_VSA3>
0

>  <PEOE_VSA4>
0

>  <PEOE_VSA5>
0

>  <PEOE_VSA6>
11.6

>  <PEOE_VSA7>
37.23

>  <PEOE_VSA8>
30.22

>  <PEOE_VSA9>
13.21

>  <PEOE_VSA10>
0

>  <PEOE_VSA11>
0

>  <PEOE_VSA12>
0

>  <PEOE_VSA13>
5.91

>  <SMR_VSA1>
9.53

>  <SMR_VSA2>
0

>  <SMR_VSA3>
10.22

>  <SMR_VSA4>
0

>  <SMR_VSA5>
6.42

>  <SMR_VSA6>
39.39

>  <SMR_VSA7>
34.85

>  <SMR_VSA8>
0

>  <SMR_VSA9>
0

>  <SlogP_VSA1>
5.32

>  <SlogP_VSA2>
50.2

>  <SlogP_VSA3>
4.74

>  <SlogP_VSA4>
0

>  <SlogP_VSA5>
16.78

>  <SlogP_VSA6>
24.27

>  <SlogP_VSA7>
5.02

>  <SlogP_VSA8>
0

>  <SlogP_VSA9>
0

>  <SlogP_VSA10>
0

>  <SlogP_VSA11>
0

>  <EState_VSA1>
0

>  <EState_VSA2>
5.91

>  <EState_VSA3>
17.13

>  <EState_VSA4>
39.27

>  <EState_VSA5>
0

>  <EState_VSA6>
24.27

>  <EState_VSA7>
0

>  <EState_VSA8>
10.22

>  <EState_VSA9>
16.34

>  <EState_VSA10>
4.79

>  <VSA_EState1>
5.29

>  <VSA_EState2>
14.18

>  <VSA_EState3>
3.56

>  <VSA_EState4>
0.65

>  <VSA_EState5>
-0.04

>  <VSA_EState6>
6.92

>  <VSA_EState7>
0.96

>  <VSA_EState8>
5.31

>  <VSA_EState9>
0

>  <apol>
42.03

>  <bpol>
24.45

>  <nRing>
2

>  <nHRing>
1

>  <naRing>
1

>  <naHRing>
0

>  <nARing 2>
1

>  <nAHRing 2>
1

>  <nFRing>
0

>  <nFHRing>
0

>  <nFaRing>
0

>  <nFaHRing>
0

>  <nFARing 2>
0

>  <nFAHRing 2>
0

>  <nRot>
5

>  <SLogP>
1.79

>  <SMR>
75.66

>  <TopoPSA(NO)>
41.57

>  <TopoPSA>
41.57

>  <JGI1>
0.15

>  <JGI2>
0.07

>  <JGI3>
0.03

>  <JGI4>
0.03

>  <JGI5>
0.02

>  <Diameter>
13

>  <Radius>
7

>  <TMWC10>
108.35

>  <TSRW10>
51.34

>  <MW>
282.11

>  <AMW>
7.42

>  <WPath>
874

>  <WPol>
23

>  <Zagreb1>
90

>  <Zagreb2>
99

>  <mZagreb2>
4.36

>  <yes>


>  <nAR-cont>
0.816016

>  <nHA-cont>
0.998649058

>  <MWHBN>
0.23815009

>  <MWHBN-cont>
0.977414275

>  <TPSA-cont>
0.709815587

>  <pka_cont>
0.97

>  <yes.1>


>  <BBB_SCORE>
5.185417643

>  <MMFF94 Energy>
66.596

$$$$
Compound 1806
Actelion Java MolfileCreator 2.0

  0  0  0  0  0  0              0 V3000
M  V30 BEGIN CTAB
M  V30 COUNTS 51 54 0 0 0
M  V30 BEGIN ATOM
M  V30 1 Cl 3.9522 4.7602 -5.407 0
M  V30 2 C 3.149 3.3536 -4.8222 0
M  V30 3 C 3.175 2.1846 -5.5823 0
M  V30 4 C 2.4781 3.4085 -3.5837 0
M  V30 5 C 2.5133 1.0979 -5.0569 0
M  V30 6 C 1.8129 2.2845 -3.0749 0
M  V30 7 N 2.3798 -0.1747 -5.5946 0
M  V30 8 C 1.8422 1.1318 -3.8308 0
M  V30 9 C 1.6237 -0.9654 -4.7195 0
M  V30 10 N 1.2895 -0.1435 -3.6164 0
M  V30 11 O 1.3268 -2.1339 -4.9012 0
M  V30 12 C 0.5047 -0.6025 -2.4861 0
M  V30 13 C 1.2863 -0.5989 -1.1685 0
M  V30 14 C -0.8395 0.1198 -2.3534 0
M  V30 15 C 0.407 -1.0977 -0.0209 0
M  V30 16 C -1.6203 -0.4157 -1.1524 0
M  V30 17 N -0.8708 -0.3796 0.114 0
M  V30 18 C -0.7266 1.0017 0.628 0
M  V30 19 C -0.246 1.0671 2.0892 0
M  V30 20 N -0.9835 0.1395 2.9245 0
M  V30 21 C -1.0034 0.2478 4.294 0
M  V30 22 O -0.4072 1.1275 4.9055 0
M  V30 23 C -1.771 -0.7927 5.0354 0
M  V30 24 C -1.4199 -1.0496 6.3699 0
M  V30 25 C -2.8373 -1.4944 4.4528 0
M  V30 26 C -2.1114 -2.0131 7.1068 0
M  V30 27 C -3.527 -2.4576 5.1945 0
M  V30 28 C -3.1561 -2.7097 6.5112 0
M  V30 29 F -3.8212 -3.6328 7.2173 0
M  V30 30 H 3.6884 2.1357 -6.5343 0
M  V30 31 H 2.4746 4.3345 -3.0119 0
M  V30 32 H 1.3027 2.3439 -2.1227 0
M  V30 33 H 2.7504 -0.514 -6.4673 0
M  V30 34 H 0.2641 -1.655 -2.693 0
M  V30 35 H 1.6694 0.3985 -0.9324 0
M  V30 36 H 2.1662 -1.2475 -1.2604 0
M  V30 37 H -1.4299 -0.0275 -3.2663 0
M  V30 38 H -0.7038 1.201 -2.2515 0
M  V30 39 H 0.9738 -1.072 0.9159 0
M  V30 40 H 0.1835 -2.1605 -0.1837 0
M  V30 41 H -1.9116 -1.4556 -1.3507 0
M  V30 42 H -2.5649 0.1325 -1.0504 0
M  V30 43 H -1.7161 1.4774 0.6046 0
M  V30 44 H -0.0695 1.6138 0.0012 0
M  V30 45 H 0.8157 0.8121 2.1702 0
M  V30 46 H -0.3718 2.0826 2.4812 0
M  V30 47 H -1.3612 -0.6706 2.4479 0
M  V30 48 H -0.6045 -0.4988 6.8355 0
M  V30 49 H -3.161 -1.2883 3.4368 0
M  V30 50 H -1.8435 -2.2198 8.1381 0
M  V30 51 H -4.3556 -3.0063 4.7575 0
M  V30 END ATOM
M  V30 BEGIN BOND
M  V30 1 1 1 2
M  V30 2 2 2 3
M  V30 3 1 2 4
M  V30 4 1 3 5
M  V30 5 2 4 6
M  V30 6 1 5 7
M  V30 7 2 5 8
M  V30 8 1 7 9
M  V30 9 1 8 10
M  V30 10 2 9 11
M  V30 11 1 10 12
M  V30 12 1 12 13
M  V30 13 1 12 14
M  V30 14 1 13 15
M  V30 15 1 14 16
M  V30 16 1 15 17
M  V30 17 1 17 18
M  V30 18 1 18 19
M  V30 19 1 19 20
M  V30 20 1 20 21
M  V30 21 2 21 22
M  V30 22 1 21 23
M  V30 23 2 23 24
M  V30 24 1 23 25
M  V30 25 1 24 26
M  V30 26 2 25 27
M  V30 27 2 26 28
M  V30 28 1 28 29
M  V30 29 1 6 8
M  V30 30 1 9 10
M  V30 31 1 16 17
M  V30 32 1 27 28
M  V30 33 1 3 30
M  V30 34 1 4 31
M  V30 35 1 6 32
M  V30 36 1 7 33
M  V30 37 1 12 34
M  V30 38 1 13 35
M  V30 39 1 13 36
M  V30 40 1 14 37
M  V30 41 1 14 38
M  V30 42 1 15 39
M  V30 43 1 15 40
M  V30 44 1 16 41
M  V30 45 1 16 42
M  V30 46 1 18 43
M  V30 47 1 18 44
M  V30 48 1 19 45
M  V30 49 1 19 46
M  V30 50 1 20 47
M  V30 51 1 24 48
M  V30 52 1 25 49
M  V30 53 1 26 50
M  V30 54 1 27 51
M  V30 END BOND
M  V30 END CTAB
M  END
>  <Column 1>
2209

>  <level_0>
2390

>  <index>
2390

>  <Unnamed: 0>
2390

>  <NO.>
2402

>  <Name>
halopemide

>  <IUPAC_name>
n-[2-[4-(5-chloro-2-oxo-3h-benzimidazol-1-yl)piperidin-1-yl]ethyl]-4-fluorobenzamide

>  <SMILES>
O=C(NCCN1CCC(n2c(=O)[nH]c3cc(Cl)ccc32)CC1)c1ccc(F)cc1

>  <CID>
65490

>  <logBB>


>  <BBB+/BBB->
BBB+

>  <Inchi>
InChI=1S/C21H22ClFN4O2/c22-15-3-6-19-18(13-15)25-21(29)27(19)17-7-10-26(11-8-17)12-9-24-20(28)14-1-4-16(23)5-2-14/h1-6-13-17H-7-12H2-(H-24-28)(H-25-29)

>  <threshold>
-1

>  <reference>
R1|R13|R19|R6|R24|R27|R27|R27|R30|R30|

>  <group>
B

>  <Class>
1

>  <ABC>
22.86

>  <ABCGG>
16.62

>  <nAcid>
0

>  <nBase>
1

>  <nAromAtom>
15

>  <nAromBond>
16

>  <nAtom>
51

>  <nHeavyAtom>
29

>  <nSpiro>
0

>  <nBridgehead>
0

>  <nHetero>
8

>  <nN>
4

>  <nO>
2

>  <nF>
1

>  <BalabanJ>
1.16

>  <BertzCT>
1068.47

>  <nBonds>
54

>  <nBondsO>
32

>  <nBondsS>
36

>  <nBondsD>
2

>  <nBondsT>
0

>  <nBondsA>
16

>  <nBondsM>
18

>  <nBondsKS>
46

>  <nBondsKD>
8

>  <RNCG>
0.15

>  <RPCG>
0.14

>  <FCSP3>
0.33

>  <SZ>
36.33

>  <Sm>
34.71

>  <Sv>
33.16

>  <Sse>
51.8

>  <Sp>
35.02

>  <Si>
57.85

>  <MZ>
0.71

>  <Mm>
0.68

>  <Mv>
0.65

>  <Mse>
1.02

>  <Mp>
0.69

>  <Mi>
1.13

>  <NsCH3>
0

>  <NdCH2>
0

>  <NssCH2>
6

>  <NtCH>
0

>  <NdsCH>
0

>  <NaaCH>
7

>  <NsssCH>
1

>  <NddC>
0

>  <NtsC>
0

>  <NdssC>
1

>  <NaasC>
3

>  <NaaaC>
2

>  <NssssC>
0

>  <NsNH3>
0

>  <NsNH2>
0

>  <NssNH2>
0

>  <NdNH>
0

>  <NssNH>
1

>  <NaaNH>
1

>  <NtN>
0

>  <NsssNH>
0

>  <NdsN>
0

>  <NaaN>
0

>  <NsssN>
1

>  <NddsN>
0

>  <NaasN>
1

>  <NssssN>
0

>  <NsOH>
0

>  <NdO>
2

>  <NssO>
0

>  <NaaO>
0

>  <NsF>
1

>  <NsSiH3>
0

>  <NssSiH2>
0

>  <NsssSiH>
0

>  <NssssSi>
0

>  <NsPH2>
0

>  <NssPH>
0

>  <NsssP>
0

>  <NdsssP>
0

>  <NsssssP>
0

>  <NsSH>
0

>  <NdS>
0

>  <NssS>
0

>  <NaaS>
0

>  <NdssS>
0

>  <NddssS>
0

>  <NsCl>
1

>  <NsBr>
0

>  <NsI>
0

>  <fragCpx>
212.08

>  <fMF>
0.49

>  <nHBAcc>
4

>  <nHBDon>
2

>  <Kier1>
22.2

>  <Kier2>
10.08

>  <Lipinski>
1

>  <GhoseFilter>
1

>  <FilterItLogS>
-5.56

>  <VMcGowan>
294.57

>  <LabuteASA>
171.82

>  <PEOE_VSA1>
15.2

>  <PEOE_VSA2>
9.36

>  <PEOE_VSA3>
9.18

>  <PEOE_VSA4>
0

>  <PEOE_VSA5>
0

>  <PEOE_VSA6>
11.6

>  <PEOE_VSA7>
55.31

>  <PEOE_VSA8>
42.81

>  <PEOE_VSA9>
11.03

>  <PEOE_VSA10>
5.82

>  <PEOE_VSA11>
0

>  <PEOE_VSA12>
0

>  <PEOE_VSA13>
5.91

>  <SMR_VSA1>
9.18

>  <SMR_VSA2>
0

>  <SMR_VSA3>
19.77

>  <SMR_VSA4>
0

>  <SMR_VSA5>
18.88

>  <SMR_VSA6>
26.18

>  <SMR_VSA7>
69.35

>  <SMR_VSA8>
0

>  <SMR_VSA9>
0

>  <SlogP_VSA1>
11.01

>  <SlogP_VSA2>
46.54

>  <SlogP_VSA3>
0

>  <SlogP_VSA4>
5.82

>  <SlogP_VSA5>
29.24

>  <SlogP_VSA6>
47.26

>  <SlogP_VSA7>
5.02

>  <SlogP_VSA8>
11.03

>  <SlogP_VSA9>
0

>  <SlogP_VSA10>
4.39

>  <SlogP_VSA11>
0

>  <EState_VSA1>
0

>  <EState_VSA2>
23.46

>  <EState_VSA3>
17.13

>  <EState_VSA4>
43.51

>  <EState_VSA5>
24.27

>  <EState_VSA6>
12.13

>  <EState_VSA7>
10.63

>  <EState_VSA8>
15.2

>  <EState_VSA9>
11.6

>  <EState_VSA10>
13.98

>  <VSA_EState1>
14.77

>  <VSA_EState2>
29.66

>  <VSA_EState3>
3.47

>  <VSA_EState4>
1.98

>  <VSA_EState5>
-0.56

>  <VSA_EState6>
11.1

>  <VSA_EState7>
1.72

>  <VSA_EState8>
2.96

>  <VSA_EState9>
0

>  <apol>
58.48

>  <bpol>
29.99

>  <nRing>
4

>  <nHRing>
2

>  <naRing>
3

>  <naHRing>
1

>  <nARing 2>
1

>  <nAHRing 2>
1

>  <nFRing>
1

>  <nFHRing>
1

>  <nFaRing>
1

>  <nFaHRing>
1

>  <nFARing 2>
0

>  <nFAHRing 2>
0

>  <nRot>
5

>  <SLogP>
3.19

>  <SMR>
111.01

>  <TopoPSA(NO)>
70.13

>  <TopoPSA>
70.13

>  <JGI1>
0.19

>  <JGI2>
0.08

>  <JGI3>
0.05

>  <JGI4>
0.04

>  <JGI5>
0.03

>  <Diameter>
18

>  <Radius>
9

>  <TMWC10>
137.85

>  <TSRW10>
78.85

>  <MW>
416.14

>  <AMW>
8.16

>  <WPath>
2703

>  <WPol>
45

>  <Zagreb1>
154

>  <Zagreb2>
181

>  <mZagreb2>
6.31

>  <yes>


>  <nAR-cont>
0.816016

>  <nHA-cont>
0.785905698

>  <MWHBN>
0.294124715

>  <MWHBN-cont>
0.857929937

>  <TPSA-cont>
0.510449052

>  <pka_cont>
0.97

>  <yes.1>


>  <BBB_SCORE>
4.394714708

>  <MMFF94 Energy>
-1.2499

$$$$
Compound 1807
Actelion Java MolfileCreator 2.0

  0  0  0  0  0  0              0 V3000
M  V30 BEGIN CTAB
M  V30 COUNTS 58 62 0 0 0
M  V30 BEGIN ATOM
M  V30 1 O -0.3204 3.4491 0.4807 0
M  V30 2 C -0.3431 2.6358 -0.4396 0
M  V30 3 N 0.8034 2.0347 -0.9081 0
M  V30 4 C -1.6418 2.2104 -1.1437 0
M  V30 5 C 2.1064 2.327 -0.3405 0
M  V30 6 C -2.8502 2.9521 -0.5141 0
M  V30 7 C -1.8769 0.6879 -0.9904 0
M  V30 8 C -1.5919 2.561 -2.6505 0
M  V30 9 C 2.3576 1.6986 1.0466 0
M  V30 10 C -4.1628 2.5424 -1.2013 0
M  V30 11 C -3.1873 0.2716 -1.6814 0
M  V30 12 C -2.9019 2.1465 -3.3443 0
M  V30 13 N 2.721 0.2619 1.0229 0
M  V30 14 C -4.363 1.027 -1.0417 0
M  V30 15 C -4.0793 2.8915 -2.6957 0
M  V30 16 C -3.1064 0.6311 -3.175 0
M  V30 17 C 3.2477 -0.1281 2.3563 0
M  V30 18 C 1.5529 -0.6007 0.7317 0
M  V30 19 C 3.6423 -1.6174 2.4558 0
M  V30 20 C 1.8692 -2.1143 0.7802 0
M  V30 21 N 2.5516 -2.4832 2.0165 0
M  V30 22 C 2.6345 -3.8269 2.3263 0
M  V30 23 N 3.5069 -4.2248 3.2697 0
M  V30 24 N 1.8316 -4.6938 1.6828 0
M  V30 25 C 3.561 -5.5369 3.5661 0
M  V30 26 C 1.9189 -5.9967 2.0109 0
M  V30 27 C 2.7787 -6.4832 2.9595 0
M  V30 28 H 0.7605 1.3806 -1.6763 0
M  V30 29 H 2.1926 3.417 -0.257 0
M  V30 30 H 2.863 1.9927 -1.0586 0
M  V30 31 H -2.7149 4.0387 -0.5983 0
M  V30 32 H -2.9134 2.732 0.5598 0
M  V30 33 H -1.0481 0.1169 -1.426 0
M  V30 34 H -1.9098 0.4164 0.0728 0
M  V30 35 H -0.751 2.0578 -3.1434 0
M  V30 36 H -1.4227 3.6378 -2.7814 0
M  V30 37 H 3.2099 2.2494 1.4666 0
M  V30 38 H 1.5078 1.8767 1.7175 0
M  V30 39 H -5.0028 3.0765 -0.7432 0
M  V30 40 H -3.337 -0.8079 -1.5687 0
M  V30 41 H -2.8495 2.3957 -4.41 0
M  V30 42 H -5.3054 0.722 -1.513 0
M  V30 43 H -4.4405 0.7687 0.0215 0
M  V30 44 H -3.9533 3.9739 -2.8216 0
M  V30 45 H -5.0166 2.6197 -3.1967 0
M  V30 46 H -4.026 0.3187 -3.6851 0
M  V30 47 H -2.2797 0.0864 -3.6472 0
M  V30 48 H 2.501 0.0909 3.1323 0
M  V30 49 H 4.139 0.4686 2.5862 0
M  V30 50 H 0.7396 -0.3877 1.4387 0
M  V30 51 H 1.1768 -0.396 -0.2738 0
M  V30 52 H 3.9142 -1.8096 3.501 0
M  V30 53 H 4.5299 -1.8026 1.8374 0
M  V30 54 H 0.915 -2.6449 0.6726 0
M  V30 55 H 2.4997 -2.3802 -0.078 0
M  V30 56 H 4.2786 -5.8069 4.3346 0
M  V30 57 H 1.2498 -6.6554 1.4661 0
M  V30 58 H 2.8346 -7.5319 3.2107 0
M  V30 END ATOM
M  V30 BEGIN BOND
M  V30 1 2 1 2
M  V30 2 1 2 3
M  V30 3 1 2 4
M  V30 4 1 3 5
M  V30 5 1 4 6
M  V30 6 1 4 7
M  V30 7 1 4 8
M  V30 8 1 5 9
M  V30 9 1 6 10
M  V30 10 1 7 11
M  V30 11 1 8 12
M  V30 12 1 9 13
M  V30 13 1 10 14
M  V30 14 1 10 15
M  V30 15 1 11 16
M  V30 16 1 13 17
M  V30 17 1 13 18
M  V30 18 1 17 19
M  V30 19 1 18 20
M  V30 20 1 19 21
M  V30 21 1 21 22
M  V30 22 2 22 23
M  V30 23 1 22 24
M  V30 24 1 23 25
M  V30 25 2 24 26
M  V30 26 2 25 27
M  V30 27 1 11 14
M  V30 28 1 12 15
M  V30 29 1 12 16
M  V30 30 1 20 21
M  V30 31 1 26 27
M  V30 32 1 3 28
M  V30 33 1 5 29
M  V30 34 1 5 30
M  V30 35 1 6 31
M  V30 36 1 6 32
M  V30 37 1 7 33
M  V30 38 1 7 34
M  V30 39 1 8 35
M  V30 40 1 8 36
M  V30 41 1 9 37
M  V30 42 1 9 38
M  V30 43 1 10 39
M  V30 44 1 11 40
M  V30 45 1 12 41
M  V30 46 1 14 42
M  V30 47 1 14 43
M  V30 48 1 15 44
M  V30 49 1 15 45
M  V30 50 1 16 46
M  V30 51 1 16 47
M  V30 52 1 17 48
M  V30 53 1 17 49
M  V30 54 1 18 50
M  V30 55 1 18 51
M  V30 56 1 19 52
M  V30 57 1 19 53
M  V30 58 1 20 54
M  V30 59 1 20 55
M  V30 60 1 25 56
M  V30 61 1 26 57
M  V30 62 1 27 58
M  V30 END BOND
M  V30 END CTAB
M  END
>  <Column 1>
2210

>  <level_0>
2391

>  <index>
2391

>  <Unnamed: 0>
2391

>  <NO.>
2403

>  <Name>
adatanserin

>  <IUPAC_name>
n-[2-(4-pyrimidin-2-ylpiperazin-1-yl)ethyl]adamantane-1-carboxamide

>  <SMILES>
O=C(NCCN1CCN(c2ncccn2)CC1)C12CC3CC(CC(C3)C1)C2

>  <CID>
130918

>  <logBB>


>  <BBB+/BBB->
BBB+

>  <Inchi>
InChI=1S/C21H31N5O/c27-19(21-13-16-10-17(14-21)12-18(11-16)15-21)22-4-5-25-6-8-26(9-7-25)20-23-2-1-3-24-20/h1-3-16-18H-4-15H2-(H-22-27)

>  <threshold>
-1

>  <reference>
R1|R13|R19|R6|R24|R27|R27|R27|R30|R30|

>  <group>
B

>  <Class>
1

>  <ABC>
21.93

>  <ABCGG>
15.22

>  <nAcid>
0

>  <nBase>
1

>  <nAromAtom>
6

>  <nAromBond>
6

>  <nAtom>
58

>  <nHeavyAtom>
27

>  <nSpiro>
0

>  <nBridgehead>
4

>  <nHetero>
6

>  <nN>
5

>  <nO>
1

>  <nF>
0

>  <BalabanJ>
1.05

>  <BertzCT>
635.13

>  <nBonds>
62

>  <nBondsO>
31

>  <nBondsS>
55

>  <nBondsD>
1

>  <nBondsT>
0

>  <nBondsA>
6

>  <nBondsM>
7

>  <nBondsKS>
58

>  <nBondsKD>
4

>  <RNCG>
0.17

>  <RPCG>
0.11

>  <FCSP3>
0.76

>  <SZ>
33.33

>  <Sm>
30.76

>  <Sv>
33.9

>  <Sse>
57.41

>  <Sp>
37.15

>  <Si>
66.1

>  <MZ>
0.57

>  <Mm>
0.53

>  <Mv>
0.58

>  <Mse>
0.99

>  <Mp>
0.64

>  <Mi>
1.14

>  <NsCH3>
0

>  <NdCH2>
0

>  <NssCH2>
12

>  <NtCH>
0

>  <NdsCH>
0

>  <NaaCH>
3

>  <NsssCH>
3

>  <NddC>
0

>  <NtsC>
0

>  <NdssC>
1

>  <NaasC>
1

>  <NaaaC>
0

>  <NssssC>
1

>  <NsNH3>
0

>  <NsNH2>
0

>  <NssNH2>
0

>  <NdNH>
0

>  <NssNH>
1

>  <NaaNH>
0

>  <NtN>
0

>  <NsssNH>
0

>  <NdsN>
0

>  <NaaN>
2

>  <NsssN>
2

>  <NddsN>
0

>  <NaasN>
0

>  <NssssN>
0

>  <NsOH>
0

>  <NdO>
1

>  <NssO>
0

>  <NaaO>
0

>  <NsF>
0

>  <NsSiH3>
0

>  <NssSiH2>
0

>  <NsssSiH>
0

>  <NssssSi>
0

>  <NsPH2>
0

>  <NssPH>
0

>  <NsssP>
0

>  <NdsssP>
0

>  <NsssssP>
0

>  <NsSH>
0

>  <NdS>
0

>  <NssS>
0

>  <NaaS>
0

>  <NdssS>
0

>  <NddssS>
0

>  <NsCl>
0

>  <NsBr>
0

>  <NsI>
0

>  <fragCpx>
259.06

>  <fMF>
0.45

>  <nHBAcc>
5

>  <nHBDon>
1

>  <Kier1>
18.99

>  <Kier2>
8.02

>  <Lipinski>
1

>  <GhoseFilter>
1

>  <FilterItLogS>
-3.8

>  <VMcGowan>
291.02

>  <LabuteASA>
161.28

>  <PEOE_VSA1>
10.22

>  <PEOE_VSA2>
9.69

>  <PEOE_VSA3>
9.97

>  <PEOE_VSA4>
0

>  <PEOE_VSA5>
0

>  <PEOE_VSA6>
0

>  <PEOE_VSA7>
62.35

>  <PEOE_VSA8>
57.08

>  <PEOE_VSA9>
0

>  <PEOE_VSA10>
0

>  <PEOE_VSA11>
0

>  <PEOE_VSA12>
11.86

>  <PEOE_VSA13>
0

>  <SMR_VSA1>
4.79

>  <SMR_VSA2>
0

>  <SMR_VSA3>
20.18

>  <SMR_VSA4>
23.17

>  <SMR_VSA5>
38.52

>  <SMR_VSA6>
44.17

>  <SMR_VSA7>
18.46

>  <SMR_VSA8>
0

>  <SMR_VSA9>
0

>  <SlogP_VSA1>
10.22

>  <SlogP_VSA2>
60.04

>  <SlogP_VSA3>
4.79

>  <SlogP_VSA4>
23.17

>  <SlogP_VSA5>
38.52

>  <SlogP_VSA6>
18.46

>  <SlogP_VSA7>
0

>  <SlogP_VSA8>
0

>  <SlogP_VSA9>
0

>  <SlogP_VSA10>
5.95

>  <SlogP_VSA11>
0

>  <EState_VSA1>
0

>  <EState_VSA2>
5.41

>  <EState_VSA3>
5.91

>  <EState_VSA4>
82.23

>  <EState_VSA5>
19.26

>  <EState_VSA6>
12.39

>  <EState_VSA7>
6.07

>  <EState_VSA8>
25.08

>  <EState_VSA9>
0

>  <EState_VSA10>
4.79

>  <VSA_EState1>
0

>  <VSA_EState2>
26.39

>  <VSA_EState3>
3.31

>  <VSA_EState4>
-0.02

>  <VSA_EState5>
3.67

>  <VSA_EState6>
1.85

>  <VSA_EState7>
11.23

>  <VSA_EState8>
5.64

>  <VSA_EState9>
0

>  <apol>
62.04

>  <bpol>
38.24

>  <nRing>
6

>  <nHRing>
2

>  <naRing>
1

>  <naHRing>
1

>  <nARing 2>
5

>  <nAHRing 2>
1

>  <nFRing>
1

>  <nFHRing>
0

>  <nFaRing>
0

>  <nFaHRing>
0

>  <nFARing 2>
1

>  <nFAHRing 2>
0

>  <nRot>
5

>  <SLogP>
1.93

>  <SMR>
104.3

>  <TopoPSA(NO)>
61.36

>  <TopoPSA>
61.36

>  <JGI1>
0.21

>  <JGI2>
0.06

>  <JGI3>
0.04

>  <JGI4>
0.02

>  <JGI5>
0.03

>  <Diameter>
15

>  <Radius>
8

>  <TMWC10>
135.47

>  <TSRW10>
62.95

>  <MW>
369.25

>  <AMW>
6.37

>  <WPath>
2150

>  <WPol>
43

>  <Zagreb1>
152

>  <Zagreb2>
182

>  <mZagreb2>
5.74

>  <yes>


>  <nAR-cont>
0

>  <nHA-cont>
0.860070871

>  <MWHBN>
0.312241769

>  <MWHBN-cont>
0.802689184

>  <TPSA-cont>
0.571669098

>  <pka_cont>
0.97

>  <yes.1>


>  <BBB_SCORE>
3.692442843

>  <MMFF94 Energy>
20.796

$$$$
Compound 1808
Actelion Java MolfileCreator 2.0

  0  0  0  0  0  0              0 V3000
M  V30 BEGIN CTAB
M  V30 COUNTS 35 36 0 0 0
M  V30 BEGIN ATOM
M  V30 1 Cl -6.6589 3.2851 -0.08 0
M  V30 2 C -5.0795 2.6226 -0.238 0
M  V30 3 C -4.8925 1.2451 -0.1236 0
M  V30 4 C -3.9947 3.4654 -0.4717 0
M  V30 5 C -3.6099 0.7013 -0.2512 0
M  V30 6 C -2.7124 2.9248 -0.5985 0
M  V30 7 C -2.5152 1.54 -0.5017 0
M  V30 8 C -1.1281 1.0158 -0.6397 0
M  V30 9 O -0.1708 1.7275 -0.3569 0
M  V30 10 N -0.9969 -0.2718 -1.1141 0
M  V30 11 C 0.312 -0.8741 -1.3045 0
M  V30 12 C 0.9685 -1.287 0.0278 0
M  V30 13 N 2.222 -2.0445 -0.1506 0
M  V30 14 C 3.336 -1.2019 -0.6485 0
M  V30 15 C 2.6587 -2.6616 1.1245 0
M  V30 16 C 3.9141 -0.2305 0.3964 0
M  V30 17 C 3.2443 -1.6654 2.1407 0
M  V30 18 O 4.3347 -0.9279 1.576 0
M  V30 19 H -5.739 0.5919 0.0742 0
M  V30 20 H -4.1367 4.5401 -0.5525 0
M  V30 21 H -3.4831 -0.3695 -0.1234 0
M  V30 22 H -1.8654 3.586 -0.7751 0
M  V30 23 H -1.8047 -0.7875 -1.4331 0
M  V30 24 H 0.9336 -0.1543 -1.8466 0
M  V30 25 H 0.1673 -1.7514 -1.9443 0
M  V30 26 H 1.1086 -0.4081 0.6669 0
M  V30 27 H 0.2446 -1.9267 0.5509 0
M  V30 28 H 4.1382 -1.8848 -0.9585 0
M  V30 29 H 3.05 -0.6551 -1.5524 0
M  V30 30 H 3.4338 -3.3993 0.8789 0
M  V30 31 H 1.8372 -3.2269 1.5803 0
M  V30 32 H 3.1945 0.5482 0.673 0
M  V30 33 H 4.7949 0.2706 -0.0178 0
M  V30 34 H 3.6319 -2.2112 3.007 0
M  V30 35 H 2.4851 -0.9651 2.5075 0
M  V30 END ATOM
M  V30 BEGIN BOND
M  V30 1 1 1 2
M  V30 2 2 2 3
M  V30 3 1 2 4
M  V30 4 1 3 5
M  V30 5 2 4 6
M  V30 6 2 5 7
M  V30 7 1 7 8
M  V30 8 2 8 9
M  V30 9 1 8 10
M  V30 10 1 10 11
M  V30 11 1 11 12
M  V30 12 1 12 13
M  V30 13 1 13 14
M  V30 14 1 13 15
M  V30 15 1 14 16
M  V30 16 1 15 17
M  V30 17 1 16 18
M  V30 18 1 6 7
M  V30 19 1 17 18
M  V30 20 1 3 19
M  V30 21 1 4 20
M  V30 22 1 5 21
M  V30 23 1 6 22
M  V30 24 1 10 23
M  V30 25 1 11 24
M  V30 26 1 11 25
M  V30 27 1 12 26
M  V30 28 1 12 27
M  V30 29 1 14 28
M  V30 30 1 14 29
M  V30 31 1 15 30
M  V30 32 1 15 31
M  V30 33 1 16 32
M  V30 34 1 16 33
M  V30 35 1 17 34
M  V30 36 1 17 35
M  V30 END BOND
M  V30 END CTAB
M  END
>  <Column 1>
2211

>  <level_0>
2392

>  <index>
2392

>  <Unnamed: 0>
2392

>  <NO.>
2404

>  <Name>
teflurane

>  <IUPAC_name>
4-chloro-n-(2-morpholin-4-ylethyl)benzamide

>  <SMILES>
O=C(NCCN1CCOCC1)c1ccc(Cl)cc1

>  <CID>
4235

>  <logBB>


>  <BBB+/BBB->
BBB+

>  <Inchi>
InChI=1S/C13H17ClN2O2/c14-12-3-1-11(2-4-12)13(17)15-5-6-16-7-9-18-10-8-16/h1-4H-5-10H2-(H-15-17)

>  <threshold>
-1

>  <reference>
R1|R1|R13|R19|R19|R28|R6|R9|R14|R23|R24|R27|R27|R27|R27|R27|R30|R30|R30|R36|R37|

>  <group>
B

>  <Class>
1

>  <ABC>
13.61

>  <ABCGG>
11

>  <nAcid>
0

>  <nBase>
1

>  <nAromAtom>
6

>  <nAromBond>
6

>  <nAtom>
35

>  <nHeavyAtom>
18

>  <nSpiro>
0

>  <nBridgehead>
0

>  <nHetero>
5

>  <nN>
2

>  <nO>
2

>  <nF>
0

>  <BalabanJ>
1.57

>  <BertzCT>
388.48

>  <nBonds>
36

>  <nBondsO>
19

>  <nBondsS>
29

>  <nBondsD>
1

>  <nBondsT>
0

>  <nBondsA>
6

>  <nBondsM>
7

>  <nBondsKS>
32

>  <nBondsKD>
4

>  <RNCG>
0.24

>  <RPCG>
0.16

>  <FCSP3>
0.46

>  <SZ>
23.67

>  <Sm>
22.37

>  <Sv>
21.64

>  <Sse>
35.3

>  <Sp>
23.37

>  <Si>
39.68

>  <MZ>
0.68

>  <Mm>
0.64

>  <Mv>
0.62

>  <Mse>
1.01

>  <Mp>
0.67

>  <Mi>
1.13

>  <NsCH3>
0

>  <NdCH2>
0

>  <NssCH2>
6

>  <NtCH>
0

>  <NdsCH>
0

>  <NaaCH>
4

>  <NsssCH>
0

>  <NddC>
0

>  <NtsC>
0

>  <NdssC>
1

>  <NaasC>
2

>  <NaaaC>
0

>  <NssssC>
0

>  <NsNH3>
0

>  <NsNH2>
0

>  <NssNH2>
0

>  <NdNH>
0

>  <NssNH>
1

>  <NaaNH>
0

>  <NtN>
0

>  <NsssNH>
0

>  <NdsN>
0

>  <NaaN>
0

>  <NsssN>
1

>  <NddsN>
0

>  <NaasN>
0

>  <NssssN>
0

>  <NsOH>
0

>  <NdO>
1

>  <NssO>
1

>  <NaaO>
0

>  <NsF>
0

>  <NsSiH3>
0

>  <NssSiH2>
0

>  <NsssSiH>
0

>  <NssssSi>
0

>  <NsPH2>
0

>  <NssPH>
0

>  <NsssP>
0

>  <NdsssP>
0

>  <NsssssP>
0

>  <NsSH>
0

>  <NdS>
0

>  <NssS>
0

>  <NaaS>
0

>  <NdssS>
0

>  <NddssS>
0

>  <NsCl>
1

>  <NsBr>
0

>  <NsI>
0

>  <fragCpx>
55.05

>  <fMF>
0.46

>  <nHBAcc>
3

>  <nHBDon>
1

>  <Kier1>
14.41

>  <Kier2>
7.56

>  <Lipinski>
1

>  <GhoseFilter>
1

>  <FilterItLogS>
-3.4

>  <VMcGowan>
199.05

>  <LabuteASA>
111.87

>  <PEOE_VSA1>
10.05

>  <PEOE_VSA2>
9.69

>  <PEOE_VSA3>
0

>  <PEOE_VSA4>
0

>  <PEOE_VSA5>
0

>  <PEOE_VSA6>
11.6

>  <PEOE_VSA7>
24.27

>  <PEOE_VSA8>
36.77

>  <PEOE_VSA9>
13.21

>  <PEOE_VSA10>
0

>  <PEOE_VSA11>
0

>  <PEOE_VSA12>
0

>  <PEOE_VSA13>
5.91

>  <SMR_VSA1>
9.53

>  <SMR_VSA2>
0

>  <SMR_VSA3>
10.22

>  <SMR_VSA4>
0

>  <SMR_VSA5>
0

>  <SMR_VSA6>
39.39

>  <SMR_VSA7>
34.85

>  <SMR_VSA8>
0

>  <SMR_VSA9>
0

>  <SlogP_VSA1>
5.32

>  <SlogP_VSA2>
50.2

>  <SlogP_VSA3>
4.74

>  <SlogP_VSA4>
0

>  <SlogP_VSA5>
10.36

>  <SlogP_VSA6>
24.27

>  <SlogP_VSA7>
5.02

>  <SlogP_VSA8>
0

>  <SlogP_VSA9>
0

>  <SlogP_VSA10>
0

>  <SlogP_VSA11>
0

>  <EState_VSA1>
0

>  <EState_VSA2>
5.91

>  <EState_VSA3>
17.13

>  <EState_VSA4>
32.85

>  <EState_VSA5>
0

>  <EState_VSA6>
24.27

>  <EState_VSA7>
0

>  <EState_VSA8>
10.22

>  <EState_VSA9>
16.34

>  <EState_VSA10>
4.79

>  <VSA_EState1>
5.27

>  <VSA_EState2>
14.08

>  <VSA_EState3>
3.54

>  <VSA_EState4>
0.64

>  <VSA_EState5>
-0.06

>  <VSA_EState6>
6.9

>  <VSA_EState7>
0

>  <VSA_EState8>
4.97

>  <VSA_EState9>
0

>  <apol>
39.03

>  <bpol>
22.45

>  <nRing>
2

>  <nHRing>
1

>  <naRing>
1

>  <naHRing>
0

>  <nARing 2>
1

>  <nAHRing 2>
1

>  <nFRing>
0

>  <nFHRing>
0

>  <nFaRing>
0

>  <nFaHRing>
0

>  <nFARing 2>
0

>  <nFAHRing 2>
0

>  <nRot>
4

>  <SLogP>
1.4

>  <SMR>
71.04

>  <TopoPSA(NO)>
41.57

>  <TopoPSA>
41.57

>  <JGI1>
0.16

>  <JGI2>
0.07

>  <JGI3>
0.03

>  <JGI4>
0.03

>  <JGI5>
0.03

>  <Diameter>
12

>  <Radius>
6

>  <TMWC10>
106.09

>  <TSRW10>
50.17

>  <MW>
268.1

>  <AMW>
7.66

>  <WPath>
724

>  <WPol>
22

>  <Zagreb1>
86

>  <Zagreb2>
95

>  <mZagreb2>
4.11

>  <yes>


>  <nAR-cont>
0.816016

>  <nHA-cont>
0.991161285

>  <MWHBN>
0.244293316

>  <MWHBN-cont>
0.968848798

>  <TPSA-cont>
0.709815587

>  <pka_cont>
0.97

>  <yes.1>


>  <BBB_SCORE>
5.165081655

>  <MMFF94 Energy>
85.814

$$$$
Compound 1809
Actelion Java MolfileCreator 2.0

  0  0  0  0  0  0              0 V3000
M  V30 BEGIN CTAB
M  V30 COUNTS 48 51 0 0 0
M  V30 BEGIN ATOM
M  V30 1 O -1.7613 -0.6402 0.24 0
M  V30 2 C -0.9036 0.109 -0.2204 0
M  V30 3 N 0.344 -0.348 -0.5859 0
M  V30 4 C -1.1352 1.6154 -0.4226 0
M  V30 5 C 0.7103 -1.7465 -0.4607 0
M  V30 6 C -2.5715 1.9937 0.0248 0
M  V30 7 C -0.9769 2.0021 -1.9131 0
M  V30 8 C -0.134 2.4425 0.4201 0
M  V30 9 C 1.0896 -2.1164 0.9748 0
M  V30 10 C -2.8266 3.4974 -0.1668 0
M  V30 11 C -1.2249 3.5082 -2.1091 0
M  V30 12 C -0.3812 3.9491 0.2264 0
M  V30 13 C 1.5091 -3.5609 1.0868 0
M  V30 14 C -2.651 3.8531 -1.6514 0
M  V30 15 C -1.812 4.2914 0.6711 0
M  V30 16 C -0.2152 4.3013 -1.2617 0
M  V30 17 C 2.8612 -3.9196 0.9876 0
M  V30 18 C 0.541 -4.566 1.2559 0
M  V30 19 C 3.2232 -5.2579 1.0661 0
M  V30 20 C 0.9174 -5.9078 1.3504 0
M  V30 21 O 4.5357 -5.5962 0.9032 0
M  V30 22 C 2.2609 -6.2414 1.273 0
M  V30 23 O 2.6299 -7.5458 1.4316 0
M  V30 24 H 1.0286 0.2939 -0.9604 0
M  V30 25 H 1.5534 -1.917 -1.1394 0
M  V30 26 H -0.1273 -2.3606 -0.8117 0
M  V30 27 H -2.7238 1.7267 1.0791 0
M  V30 28 H -3.3115 1.4193 -0.5481 0
M  V30 29 H -1.6778 1.4234 -2.5288 0
M  V30 30 H 0.0269 1.7545 -2.2791 0
M  V30 31 H -0.2289 2.1804 1.482 0
M  V30 32 H 0.9008 2.2109 0.1401 0
M  V30 33 H 1.9021 -1.4671 1.326 0
M  V30 34 H 0.2512 -1.9282 1.6573 0
M  V30 35 H -3.8447 3.7441 0.1544 0
M  V30 36 H -1.1039 3.7674 -3.1668 0
M  V30 37 H 0.3376 4.5207 0.8239 0
M  V30 38 H -2.8464 4.9213 -1.8064 0
M  V30 39 H -3.3822 3.3045 -2.2577 0
M  V30 40 H -1.9399 4.0581 1.7352 0
M  V30 41 H -1.9926 5.3674 0.5573 0
M  V30 42 H -0.3663 5.3776 -1.4103 0
M  V30 43 H 0.8071 4.0754 -1.5884 0
M  V30 44 H 3.6284 -3.1659 0.8347 0
M  V30 45 H -0.5138 -4.3037 1.3228 0
M  V30 46 H 0.1676 -6.6788 1.4997 0
M  V30 47 H 4.5335 -6.4623 0.4554 0
M  V30 48 H 3.4209 -7.5288 2.0013 0
M  V30 END ATOM
M  V30 BEGIN BOND
M  V30 1 2 1 2
M  V30 2 1 2 3
M  V30 3 1 2 4
M  V30 4 1 3 5
M  V30 5 1 4 6
M  V30 6 1 4 7
M  V30 7 1 4 8
M  V30 8 1 5 9
M  V30 9 1 6 10
M  V30 10 1 7 11
M  V30 11 1 8 12
M  V30 12 1 9 13
M  V30 13 1 10 14
M  V30 14 1 10 15
M  V30 15 1 11 16
M  V30 16 2 13 17
M  V30 17 1 13 18
M  V30 18 1 17 19
M  V30 19 2 18 20
M  V30 20 1 19 21
M  V30 21 2 19 22
M  V30 22 1 22 23
M  V30 23 1 11 14
M  V30 24 1 12 15
M  V30 25 1 12 16
M  V30 26 1 20 22
M  V30 27 1 3 24
M  V30 28 1 5 25
M  V30 29 1 5 26
M  V30 30 1 6 27
M  V30 31 1 6 28
M  V30 32 1 7 29
M  V30 33 1 7 30
M  V30 34 1 8 31
M  V30 35 1 8 32
M  V30 36 1 9 33
M  V30 37 1 9 34
M  V30 38 1 10 35
M  V30 39 1 11 36
M  V30 40 1 12 37
M  V30 41 1 14 38
M  V30 42 1 14 39
M  V30 43 1 15 40
M  V30 44 1 15 41
M  V30 45 1 16 42
M  V30 46 1 16 43
M  V30 47 1 17 44
M  V30 48 1 18 45
M  V30 49 1 20 46
M  V30 50 1 21 47
M  V30 51 1 23 48
M  V30 END BOND
M  V30 END CTAB
M  END
>  <Column 1>
2212

>  <level_0>
2393

>  <index>
2393

>  <Unnamed: 0>
2393

>  <NO.>
2405

>  <Name>
dopamantine

>  <IUPAC_name>
n-[2-(3-4-dihydroxyphenyl)ethyl]adamantane-1-carboxamide

>  <SMILES>
O=C(NCCc1ccc(O)c(O)c1)C12CC3CC(CC(C3)C1)C2

>  <CID>
38361

>  <logBB>


>  <BBB+/BBB->
BBB+

>  <Inchi>
InChI=1S/C19H25NO3/c21-16-2-1-12(8-17(16)22)3-4-20-18(23)19-9-13-5-14(10-19)7-15(6-13)11-19/h1-2-8-13-15-21-22H-3-7-9-11H2-(H-20-23)

>  <threshold>
-1

>  <reference>
R1|R13|R19|R6|R24|R27|R27|R27|R30|R30|

>  <group>
B

>  <Class>
1

>  <ABC>
18.61

>  <ABCGG>
14.04

>  <nAcid>
0

>  <nBase>
0

>  <nAromAtom>
6

>  <nAromBond>
6

>  <nAtom>
48

>  <nHeavyAtom>
23

>  <nSpiro>
0

>  <nBridgehead>
4

>  <nHetero>
4

>  <nN>
1

>  <nO>
3

>  <nF>
0

>  <BalabanJ>
1.27

>  <BertzCT>
589.76

>  <nBonds>
51

>  <nBondsO>
26

>  <nBondsS>
44

>  <nBondsD>
1

>  <nBondsT>
0

>  <nBondsA>
6

>  <nBondsM>
7

>  <nBondsKS>
47

>  <nBondsKD>
4

>  <RNCG>
0.24

>  <RPCG>
0.14

>  <FCSP3>
0.63

>  <SZ>
28.33

>  <Sm>
26.26

>  <Sv>
28.68

>  <Sse>
47.75

>  <Sp>
31.08

>  <Si>
54.11

>  <MZ>
0.59

>  <Mm>
0.55

>  <Mv>
0.6

>  <Mse>
0.99

>  <Mp>
0.65

>  <Mi>
1.13

>  <NsCH3>
0

>  <NdCH2>
0

>  <NssCH2>
8

>  <NtCH>
0

>  <NdsCH>
0

>  <NaaCH>
3

>  <NsssCH>
3

>  <NddC>
0

>  <NtsC>
0

>  <NdssC>
1

>  <NaasC>
3

>  <NaaaC>
0

>  <NssssC>
1

>  <NsNH3>
0

>  <NsNH2>
0

>  <NssNH2>
0

>  <NdNH>
0

>  <NssNH>
1

>  <NaaNH>
0

>  <NtN>
0

>  <NsssNH>
0

>  <NdsN>
0

>  <NaaN>
0

>  <NsssN>
0

>  <NddsN>
0

>  <NaasN>
0

>  <NssssN>
0

>  <NsOH>
2

>  <NdO>
1

>  <NssO>
0

>  <NaaO>
0

>  <NsF>
0

>  <NsSiH3>
0

>  <NssSiH2>
0

>  <NsssSiH>
0

>  <NssssSi>
0

>  <NsPH2>
0

>  <NssPH>
0

>  <NsssP>
0

>  <NdsssP>
0

>  <NsssssP>
0

>  <NsSH>
0

>  <NdS>
0

>  <NssS>
0

>  <NaaS>
0

>  <NdssS>
0

>  <NddssS>
0

>  <NsCl>
0

>  <NsBr>
0

>  <NsI>
0

>  <fragCpx>
170.04

>  <fMF>
0.42

>  <nHBAcc>
3

>  <nHBDon>
3

>  <Kier1>
16.47

>  <Kier2>
6.38

>  <Lipinski>
1

>  <GhoseFilter>
1

>  <FilterItLogS>
-3.65

>  <VMcGowan>
245.52

>  <LabuteASA>
136.46

>  <PEOE_VSA1>
15.53

>  <PEOE_VSA2>
4.79

>  <PEOE_VSA3>
0

>  <PEOE_VSA4>
0

>  <PEOE_VSA5>
0

>  <PEOE_VSA6>
6.07

>  <PEOE_VSA7>
80.4

>  <PEOE_VSA8>
11.96

>  <PEOE_VSA9>
0

>  <PEOE_VSA10>
0

>  <PEOE_VSA11>
11.5

>  <PEOE_VSA12>
5.91

>  <PEOE_VSA13>
0

>  <SMR_VSA1>
15.01

>  <SMR_VSA2>
0

>  <SMR_VSA3>
5.32

>  <SMR_VSA4>
23.17

>  <SMR_VSA5>
44.95

>  <SMR_VSA6>
6.54

>  <SMR_VSA7>
23.76

>  <SMR_VSA8>
0

>  <SMR_VSA9>
11.5

>  <SlogP_VSA1>
5.32

>  <SlogP_VSA2>
22.66

>  <SlogP_VSA3>
11.22

>  <SlogP_VSA4>
23.17

>  <SlogP_VSA5>
44.09

>  <SlogP_VSA6>
18.2

>  <SlogP_VSA7>
0

>  <SlogP_VSA8>
0

>  <SlogP_VSA9>
0

>  <SlogP_VSA10>
0

>  <SlogP_VSA11>
11.5

>  <EState_VSA1>
0

>  <EState_VSA2>
22.82

>  <EState_VSA3>
12.97

>  <EState_VSA4>
42.58

>  <EState_VSA5>
25.33

>  <EState_VSA6>
12.13

>  <EState_VSA7>
0

>  <EState_VSA8>
5.32

>  <EState_VSA9>
0

>  <EState_VSA10>
15.01

>  <VSA_EState1>
0

>  <VSA_EState2>
12.81

>  <VSA_EState3>
22

>  <VSA_EState4>
0.83

>  <VSA_EState5>
2.38

>  <VSA_EState6>
4.84

>  <VSA_EState7>
7.98

>  <VSA_EState8>
0.59

>  <VSA_EState9>
0

>  <apol>
51.91

>  <bpol>
26.52

>  <nRing>
5

>  <nHRing>
0

>  <naRing>
1

>  <naHRing>
0

>  <nARing 2>
4

>  <nAHRing 2>
0

>  <nFRing>
1

>  <nFHRing>
0

>  <nFaRing>
0

>  <nFaHRing>
0

>  <nFARing 2>
1

>  <nFAHRing 2>
0

>  <nRot>
4

>  <SLogP>
2.97

>  <SMR>
87.09

>  <TopoPSA(NO)>
69.56

>  <TopoPSA>
69.56

>  <JGI1>
0.27

>  <JGI2>
0.07

>  <JGI3>
0.05

>  <JGI4>
0.04

>  <JGI5>
0.03

>  <Diameter>
12

>  <Radius>
6

>  <TMWC10>
125.28

>  <TSRW10>
58.28

>  <MW>
315.18

>  <AMW>
6.57

>  <WPath>
1290

>  <WPol>
37

>  <Zagreb1>
130

>  <Zagreb2>
156

>  <mZagreb2>
4.82

>  <yes>


>  <nAR-cont>
0.199399

>  <nHA-cont>
0.967789328

>  <MWHBN>
0.337965154

>  <MWHBN-cont>
0.71450134

>  <TPSA-cont>
0.514428006

>  <pka_cont>
0.97

>  <yes.1>


>  <BBB_SCORE>
3.75279635

>  <MMFF94 Energy>
24.272

$$$$
Compound 1810
Actelion Java MolfileCreator 2.0

  0  0  0  0  0  0              0 V3000
M  V30 BEGIN CTAB
M  V30 COUNTS 27 27 0 0 0
M  V30 BEGIN ATOM
M  V30 1 O 0.3115 1.0908 -1.7145 0
M  V30 2 C 0.659 1.0505 -0.5439 0
M  V30 3 O 0.8584 2.1281 0.2506 0
M  V30 4 N 0.9089 -0.0753 0.1708 0
M  V30 5 C 0.631 3.406 -0.3718 0
M  V30 6 C 0.756 -1.402 -0.3644 0
M  V30 7 C 1.8133 3.8178 -1.2471 0
M  V30 8 C -0.4582 -2.0767 0.2171 0
M  V30 9 O 2.9485 4.1033 -0.4305 0
M  V30 10 C -0.3393 -2.97 1.2911 0
M  V30 11 C -1.7343 -1.791 -0.2905 0
M  V30 12 C -1.4731 -3.5769 1.8348 0
M  V30 13 C -2.8662 -2.3984 0.2546 0
M  V30 14 C -2.7351 -3.2922 1.3158 0
M  V30 15 H 1.154 0.0554 1.1411 0
M  V30 16 H 0.4992 4.1265 0.4424 0
M  V30 17 H -0.3006 3.3826 -0.949 0
M  V30 18 H 0.6855 -1.3768 -1.4578 0
M  V30 19 H 1.6635 -1.9619 -0.1124 0
M  V30 20 H 2.0946 3.0261 -1.9469 0
M  V30 21 H 1.5672 4.7246 -1.8076 0
M  V30 22 H 3.6918 4.2791 -1.0325 0
M  V30 23 H 0.637 -3.1997 1.7114 0
M  V30 24 H -1.8486 -1.0876 -1.1139 0
M  V30 25 H -1.3725 -4.2709 2.6653 0
M  V30 26 H -3.8501 -2.171 -0.1473 0
M  V30 27 H -3.6172 -3.7641 1.7405 0
M  V30 END ATOM
M  V30 BEGIN BOND
M  V30 1 2 1 2
M  V30 2 1 2 3
M  V30 3 1 2 4
M  V30 4 1 3 5
M  V30 5 1 4 6
M  V30 6 1 5 7
M  V30 7 1 6 8
M  V30 8 1 7 9
M  V30 9 2 8 10
M  V30 10 1 8 11
M  V30 11 1 10 12
M  V30 12 2 11 13
M  V30 13 2 12 14
M  V30 14 1 13 14
M  V30 15 1 4 15
M  V30 16 1 5 16
M  V30 17 1 5 17
M  V30 18 1 6 18
M  V30 19 1 6 19
M  V30 20 1 7 20
M  V30 21 1 7 21
M  V30 22 1 9 22
M  V30 23 1 10 23
M  V30 24 1 11 24
M  V30 25 1 12 25
M  V30 26 1 13 26
M  V30 27 1 14 27
M  V30 END BOND
M  V30 END CTAB
M  END
>  <Column 1>
2213

>  <level_0>
2394

>  <index>
2394

>  <Unnamed: 0>
2394

>  <NO.>
2406

>  <Name>
buramate

>  <IUPAC_name>
2-hydroxyethyl n-benzylcarbamate

>  <SMILES>
O=C(NCc1ccccc1)OCCO

>  <CID>
20787

>  <logBB>


>  <BBB+/BBB->
BBB+

>  <Inchi>
InChI=1S/C10H13NO3/c12-6-7-14-10(13)11-8-9-4-2-1-3-5-9/h1-5-12H-6-8H2-(H-11-13)

>  <threshold>
-1

>  <reference>
R1|R13|R19|R6|R24|R27|R27|R27|R30|R30|

>  <group>
B

>  <Class>
1

>  <ABC>
10.01

>  <ABCGG>
8.89

>  <nAcid>
0

>  <nBase>
0

>  <nAromAtom>
6

>  <nAromBond>
6

>  <nAtom>
27

>  <nHeavyAtom>
14

>  <nSpiro>
0

>  <nBridgehead>
0

>  <nHetero>
4

>  <nN>
1

>  <nO>
3

>  <nF>
0

>  <BalabanJ>
2

>  <BertzCT>
273.96

>  <nBonds>
27

>  <nBondsO>
14

>  <nBondsS>
20

>  <nBondsD>
1

>  <nBondsT>
0

>  <nBondsA>
6

>  <nBondsM>
7

>  <nBondsKS>
23

>  <nBondsKD>
4

>  <RNCG>
0.26

>  <RPCG>
0.24

>  <FCSP3>
0.3

>  <SZ>
17.33

>  <Sm>
16.25

>  <Sv>
16.42

>  <Sse>
27.43

>  <Sp>
17.29

>  <Si>
30.62

>  <MZ>
0.64

>  <Mm>
0.6

>  <Mv>
0.61

>  <Mse>
1.02

>  <Mp>
0.64

>  <Mi>
1.13

>  <NsCH3>
0

>  <NdCH2>
0

>  <NssCH2>
3

>  <NtCH>
0

>  <NdsCH>
0

>  <NaaCH>
5

>  <NsssCH>
0

>  <NddC>
0

>  <NtsC>
0

>  <NdssC>
1

>  <NaasC>
1

>  <NaaaC>
0

>  <NssssC>
0

>  <NsNH3>
0

>  <NsNH2>
0

>  <NssNH2>
0

>  <NdNH>
0

>  <NssNH>
1

>  <NaaNH>
0

>  <NtN>
0

>  <NsssNH>
0

>  <NdsN>
0

>  <NaaN>
0

>  <NsssN>
0

>  <NddsN>
0

>  <NaasN>
0

>  <NssssN>
0

>  <NsOH>
1

>  <NdO>
1

>  <NssO>
1

>  <NaaO>
0

>  <NsF>
0

>  <NsSiH3>
0

>  <NssSiH2>
0

>  <NsssSiH>
0

>  <NssssSi>
0

>  <NsPH2>
0

>  <NssPH>
0

>  <NsssP>
0

>  <NdsssP>
0

>  <NsssssP>
0

>  <NsSH>
0

>  <NdS>
0

>  <NssS>
0

>  <NaaS>
0

>  <NdssS>
0

>  <NddssS>
0

>  <NsCl>
0

>  <NsBr>
0

>  <NsI>
0

>  <fragCpx>
14.04

>  <fMF>
0.22

>  <nHBAcc>
3

>  <nHBDon>
2

>  <Kier1>
12.07

>  <Kier2>
7.31

>  <Lipinski>
1

>  <GhoseFilter>
1

>  <FilterItLogS>
-2.02

>  <VMcGowan>
151.29

>  <LabuteASA>
82.51

>  <PEOE_VSA1>
15.16

>  <PEOE_VSA2>
0

>  <PEOE_VSA3>
4.79

>  <PEOE_VSA4>
0

>  <PEOE_VSA5>
0

>  <PEOE_VSA6>
30.33

>  <PEOE_VSA7>
5.56

>  <PEOE_VSA8>
6.54

>  <PEOE_VSA9>
6.61

>  <PEOE_VSA10>
6.61

>  <PEOE_VSA11>
0

>  <PEOE_VSA12>
0

>  <PEOE_VSA13>
0

>  <SMR_VSA1>
14.64

>  <SMR_VSA2>
0

>  <SMR_VSA3>
5.32

>  <SMR_VSA4>
0

>  <SMR_VSA5>
6.54

>  <SMR_VSA6>
13.21

>  <SMR_VSA7>
35.9

>  <SMR_VSA8>
0

>  <SMR_VSA9>
0

>  <SlogP_VSA1>
5.32

>  <SlogP_VSA2>
24.41

>  <SlogP_VSA3>
11.28

>  <SlogP_VSA4>
0

>  <SlogP_VSA5>
5.56

>  <SlogP_VSA6>
30.33

>  <SlogP_VSA7>
0

>  <SlogP_VSA8>
0

>  <SlogP_VSA9>
0

>  <SlogP_VSA10>
4.79

>  <SlogP_VSA11>
0

>  <EState_VSA1>
6.09

>  <EState_VSA2>
13.21

>  <EState_VSA3>
6.54

>  <EState_VSA4>
5.56

>  <EState_VSA5>
0

>  <EState_VSA6>
0

>  <EState_VSA7>
30.33

>  <EState_VSA8>
10.05

>  <EState_VSA9>
5.11

>  <EState_VSA10>
4.79

>  <VSA_EState1>
4.61

>  <VSA_EState2>
10.93

>  <VSA_EState3>
10.96

>  <VSA_EState4>
1.01

>  <VSA_EState5>
0

>  <VSA_EState6>
9.53

>  <VSA_EState7>
-0.51

>  <VSA_EState8>
0.31

>  <VSA_EState9>
0

>  <apol>
28.87

>  <bpol>
16.22

>  <nRing>
1

>  <nHRing>
0

>  <naRing>
1

>  <naHRing>
0

>  <nARing 2>
0

>  <nAHRing 2>
0

>  <nFRing>
0

>  <nFHRing>
0

>  <nFaRing>
0

>  <nFaHRing>
0

>  <nFARing 2>
0

>  <nFAHRing 2>
0

>  <nRot>
4

>  <SLogP>
0.91

>  <SMR>
51.72

>  <TopoPSA(NO)>
58.56

>  <TopoPSA>
58.56

>  <JGI1>
0.14

>  <JGI2>
0.06

>  <JGI3>
0.02

>  <JGI4>
0.04

>  <JGI5>
0.02

>  <Diameter>
10

>  <Radius>
5

>  <TMWC10>
92.3

>  <TSRW10>
43.88

>  <MW>
195.09

>  <AMW>
7.23

>  <WPath>
367

>  <WPol>
14

>  <Zagreb1>
60

>  <Zagreb2>
63

>  <mZagreb2>
3.42

>  <yes>


>  <nAR-cont>
0.336376

>  <nHA-cont>
0.887625254

>  <MWHBN>
0.357974837

>  <MWHBN-cont>
0.640148076

>  <TPSA-cont>
0.591214836

>  <pka_cont>
0.97

>  <yes.1>


>  <BBB_SCORE>
3.851653041

>  <MMFF94 Energy>
-42.564

$$$$
Compound 1811
Actelion Java MolfileCreator 2.0

  0  0  0  0  0  0              0 V3000
M  V30 BEGIN CTAB
M  V30 COUNTS 20 20 0 0 0
M  V30 BEGIN ATOM
M  V30 1 Cl -3.5501 -3.0424 2.1121 0
M  V30 2 C -3.1321 -1.9502 0.773 0
M  V30 3 Cl -4.3489 -0.6503 0.6385 0
M  V30 4 Cl -3.0963 -2.8829 -0.7563 0
M  V30 5 C -1.75 -1.2819 1.0043 0
M  V30 6 O -1.2029 -1.2581 2.108 0
M  V30 7 N -1.2117 -0.6811 -0.139 0
M  V30 8 C -0.0073 0.0429 -0.2417 0
M  V30 9 C 0.6964 0.544 0.8561 0
M  V30 10 C 0.4804 0.291 -1.5316 0
M  V30 11 C 1.8797 1.2684 0.6714 0
M  V30 12 C 1.6608 1.0142 -1.7176 0
M  V30 13 C 2.3523 1.4958 -0.615 0
M  V30 14 O 3.4994 2.1957 -0.8392 0
M  V30 15 H -1.7113 -0.8307 -1.0111 0
M  V30 16 H 0.3473 0.3981 1.8738 0
M  V30 17 H -0.0419 -0.0782 -2.4101 0
M  V30 18 H 2.4083 1.6446 1.5419 0
M  V30 19 H 2.0388 1.1999 -2.719 0
M  V30 20 H 3.8767 2.4554 0.0175 0
M  V30 END ATOM
M  V30 BEGIN BOND
M  V30 1 1 1 2
M  V30 2 1 2 3
M  V30 3 1 2 4
M  V30 4 1 2 5
M  V30 5 2 5 6
M  V30 6 1 5 7
M  V30 7 1 7 8
M  V30 8 2 8 9
M  V30 9 1 8 10
M  V30 10 1 9 11
M  V30 11 2 10 12
M  V30 12 2 11 13
M  V30 13 1 13 14
M  V30 14 1 12 13
M  V30 15 1 7 15
M  V30 16 1 9 16
M  V30 17 1 10 17
M  V30 18 1 11 18
M  V30 19 1 12 19
M  V30 20 1 14 20
M  V30 END BOND
M  V30 END CTAB
M  END
>  <Column 1>
2214

>  <level_0>
2395

>  <index>
2395

>  <Unnamed: 0>
2395

>  <NO.>
2407

>  <Name>
triclacetamol

>  <IUPAC_name>
2-2-2-trichloro-n-(4-hydroxyphenyl)acetamide

>  <SMILES>
O=C(Nc1ccc(O)cc1)C(Cl)(Cl)Cl

>  <CID>
242364

>  <logBB>


>  <BBB+/BBB->
BBB+

>  <Inchi>
InChI=1S/C8H6Cl3NO2/c9-8(10-11)7(14)12-5-1-3-6(13)4-2-5/h1-4-13H-(H-12-14)

>  <threshold>
-1

>  <reference>
R1|R13|R19|R6|R24|R27|R27|R27|R30|R30|

>  <group>
B

>  <Class>
1

>  <ABC>
10.53

>  <ABCGG>
9.63

>  <nAcid>
0

>  <nBase>
0

>  <nAromAtom>
6

>  <nAromBond>
6

>  <nAtom>
20

>  <nHeavyAtom>
14

>  <nSpiro>
0

>  <nBridgehead>
0

>  <nHetero>
6

>  <nN>
1

>  <nO>
2

>  <nF>
0

>  <BalabanJ>
2.31

>  <BertzCT>
331.43

>  <nBonds>
20

>  <nBondsO>
14

>  <nBondsS>
13

>  <nBondsD>
1

>  <nBondsT>
0

>  <nBondsA>
6

>  <nBondsM>
7

>  <nBondsKS>
16

>  <nBondsKD>
4

>  <RNCG>
0.36

>  <RPCG>
0.21

>  <FCSP3>
0.13

>  <SZ>
21.33

>  <Sm>
21.19

>  <Sv>
15.09

>  <Sse>
21.28

>  <Sp>
15.93

>  <Si>
22.41

>  <MZ>
1.07

>  <Mm>
1.06

>  <Mv>
0.75

>  <Mse>
1.06

>  <Mp>
0.8

>  <Mi>
1.12

>  <NsCH3>
0

>  <NdCH2>
0

>  <NssCH2>
0

>  <NtCH>
0

>  <NdsCH>
0

>  <NaaCH>
4

>  <NsssCH>
0

>  <NddC>
0

>  <NtsC>
0

>  <NdssC>
1

>  <NaasC>
2

>  <NaaaC>
0

>  <NssssC>
1

>  <NsNH3>
0

>  <NsNH2>
0

>  <NssNH2>
0

>  <NdNH>
0

>  <NssNH>
1

>  <NaaNH>
0

>  <NtN>
0

>  <NsssNH>
0

>  <NdsN>
0

>  <NaaN>
0

>  <NsssN>
0

>  <NddsN>
0

>  <NaasN>
0

>  <NssssN>
0

>  <NsOH>
1

>  <NdO>
1

>  <NssO>
0

>  <NaaO>
0

>  <NsF>
0

>  <NsSiH3>
0

>  <NssSiH2>
0

>  <NsssSiH>
0

>  <NssssSi>
0

>  <NsPH2>
0

>  <NssPH>
0

>  <NsssP>
0

>  <NdsssP>
0

>  <NsssssP>
0

>  <NsSH>
0

>  <NdS>
0

>  <NssS>
0

>  <NaaS>
0

>  <NdssS>
0

>  <NddssS>
0

>  <NsCl>
3

>  <NsBr>
0

>  <NsI>
0

>  <fragCpx>
14.06

>  <fMF>
0.3

>  <nHBAcc>
2

>  <nHBDon>
2

>  <Kier1>
12.07

>  <Kier2>
4.68

>  <Lipinski>
1

>  <GhoseFilter>
1

>  <FilterItLogS>
-3.12

>  <VMcGowan>
153.96

>  <LabuteASA>
95.58

>  <PEOE_VSA1>
10.42

>  <PEOE_VSA2>
4.79

>  <PEOE_VSA3>
0

>  <PEOE_VSA4>
0

>  <PEOE_VSA5>
0

>  <PEOE_VSA6>
34.8

>  <PEOE_VSA7>
24.27

>  <PEOE_VSA8>
5.69

>  <PEOE_VSA9>
0

>  <PEOE_VSA10>
5.75

>  <PEOE_VSA11>
0

>  <PEOE_VSA12>
0

>  <PEOE_VSA13>
9.7

>  <SMR_VSA1>
9.9

>  <SMR_VSA2>
0

>  <SMR_VSA3>
0

>  <SMR_VSA4>
0

>  <SMR_VSA5>
3.79

>  <SMR_VSA6>
5.32

>  <SMR_VSA7>
24.27

>  <SMR_VSA8>
0

>  <SMR_VSA9>
5.75

>  <SlogP_VSA1>
5.32

>  <SlogP_VSA2>
14.81

>  <SlogP_VSA3>
4.79

>  <SlogP_VSA4>
0

>  <SlogP_VSA5>
0

>  <SlogP_VSA6>
24.27

>  <SlogP_VSA7>
0

>  <SlogP_VSA8>
0

>  <SlogP_VSA9>
0

>  <SlogP_VSA10>
5.69

>  <SlogP_VSA11>
5.75

>  <EState_VSA1>
9.7

>  <EState_VSA2>
5.75

>  <EState_VSA3>
5.69

>  <EState_VSA4>
0

>  <EState_VSA5>
24.27

>  <EState_VSA6>
0

>  <EState_VSA7>
0

>  <EState_VSA8>
5.32

>  <EState_VSA9>
39.91

>  <EState_VSA10>
4.79

>  <VSA_EState1>
-1.99

>  <VSA_EState2>
11.15

>  <VSA_EState3>
11.32

>  <VSA_EState4>
0.44

>  <VSA_EState5>
-0.65

>  <VSA_EState6>
5.8

>  <VSA_EState7>
0

>  <VSA_EState8>
0

>  <VSA_EState9>
0

>  <apol>
26.6

>  <bpol>
8.99

>  <nRing>
1

>  <nHRing>
0

>  <naRing>
1

>  <naHRing>
0

>  <nARing 2>
0

>  <nAHRing 2>
0

>  <nFRing>
0

>  <nFHRing>
0

>  <nFaRing>
0

>  <nFaHRing>
0

>  <nFARing 2>
0

>  <nFAHRing 2>
0

>  <nRot>
1

>  <SLogP>
2.7

>  <SMR>
57.03

>  <TopoPSA(NO)>
49.33

>  <TopoPSA>
49.33

>  <JGI1>
0.36

>  <JGI2>
0.1

>  <JGI3>
0.04

>  <JGI4>
0.07

>  <JGI5>
0.03

>  <Diameter>
8

>  <Radius>
4

>  <TMWC10>
95.47

>  <TSRW10>
45.31

>  <MW>
252.95

>  <AMW>
12.65

>  <WPath>
322

>  <WPol>
17

>  <Zagreb1>
68

>  <Zagreb2>
74

>  <mZagreb2>
3

>  <yes>


>  <nAR-cont>
0.336376

>  <nHA-cont>
0.887625254

>  <MWHBN>
0.251502699

>  <MWHBN-cont>
0.95721484

>  <TPSA-cont>
0.655645968

>  <pka_cont>
0.97

>  <yes.1>


>  <BBB_SCORE>
4.45611545

>  <MMFF94 Energy>
62.257

$$$$
Compound 1812
Actelion Java MolfileCreator 2.0

  0  0  0  0  0  0              0 V3000
M  V30 BEGIN CTAB
M  V30 COUNTS 38 41 0 0 0
M  V30 BEGIN ATOM
M  V30 1 O -3.4869 -1.2964 -0.3239 0
M  V30 2 C -3.1228 -0.8711 -1.4141 0
M  V30 3 O -3.9041 -1.1768 -2.4847 0
M  V30 4 C -1.8749 0.0257 -1.7812 0 CFG=1
M  V30 5 N -0.5502 -0.6136 -1.4855 0
M  V30 6 C -1.428 0.042 -3.271 0
M  V30 7 C 0.1277 -0.1778 -0.2429 0
M  V30 8 C 0.0017 -0.0132 -2.7205 0
M  V30 9 C -0.6173 -0.796 0.9763 0
M  V30 10 C 0.2665 1.3525 0.02 0
M  V30 11 C 1.561 -0.7952 -0.2604 0
M  V30 12 C 0.1301 -0.5254 2.2945 0
M  V30 13 C 1.0192 1.6223 1.3384 0
M  V30 14 C 2.3124 -0.5158 1.0518 0
M  V30 15 C 0.2467 0.991 2.5058 0
M  V30 16 C 1.5349 -1.1386 2.2196 0
M  V30 17 C 2.4217 1.0013 1.2609 0
M  V30 18 H -4.6019 -1.7407 -2.0899 0
M  V30 19 H -2.0009 1.0445 -1.3969 0
M  V30 20 H -1.6865 0.9396 -3.8387 0
M  V30 21 H -1.705 -0.844 -3.854 0
M  V30 22 H 0.459 0.9769 -2.64 0
M  V30 23 H 0.6829 -0.6634 -3.2776 0
M  V30 24 H -1.6228 -0.3687 1.0626 0
M  V30 25 H -0.7373 -1.8794 0.844 0
M  V30 26 H 0.8119 1.8495 -0.7889 0
M  V30 27 H -0.7169 1.8313 0.0831 0
M  V30 28 H 2.1459 -0.3865 -1.0947 0
M  V30 29 H 1.5056 -1.8809 -0.419 0
M  V30 30 H -0.4226 -0.9716 3.1289 0
M  V30 31 H 1.1042 2.7034 1.4965 0
M  V30 32 H 3.3154 -0.9542 1.002 0
M  V30 33 H 0.7606 1.1995 3.4522 0
M  V30 34 H -0.752 1.4383 2.5813 0
M  V30 35 H 2.0704 -0.9669 3.1614 0
M  V30 36 H 1.464 -2.2252 2.0875 0
M  V30 37 H 2.9763 1.2131 2.1833 0
M  V30 38 H 2.9883 1.4544 0.4382 0
M  V30 END ATOM
M  V30 BEGIN BOND
M  V30 1 2 1 2
M  V30 2 1 2 3
M  V30 3 1 2 4
M  V30 4 1 4 5
M  V30 5 1 4 6
M  V30 6 1 5 7
M  V30 7 1 5 8
M  V30 8 1 7 9
M  V30 9 1 7 10
M  V30 10 1 7 11
M  V30 11 1 9 12
M  V30 12 1 10 13
M  V30 13 1 11 14
M  V30 14 1 12 15
M  V30 15 1 12 16
M  V30 16 1 13 17
M  V30 17 1 6 8
M  V30 18 1 13 15
M  V30 19 1 14 16
M  V30 20 1 14 17
M  V30 21 1 3 18
M  V30 22 1 4 19
M  V30 23 1 6 20
M  V30 24 1 6 21
M  V30 25 1 8 22
M  V30 26 1 8 23
M  V30 27 1 9 24
M  V30 28 1 9 25
M  V30 29 1 10 26
M  V30 30 1 10 27
M  V30 31 1 11 28
M  V30 32 1 11 29
M  V30 33 1 12 30
M  V30 34 1 13 31
M  V30 35 1 14 32
M  V30 36 1 15 33
M  V30 37 1 15 34
M  V30 38 1 16 35
M  V30 39 1 16 36
M  V30 40 1 17 37
M  V30 41 1 17 38
M  V30 END BOND
M  V30 BEGIN COLLECTION
M  V30 MDLV30/STERAC1 ATOMS=(1 4)
M  V30 END COLLECTION
M  V30 END CTAB
M  END
>  <Column 1>
2217

>  <level_0>
2398

>  <index>
2398

>  <Unnamed: 0>
2398

>  <NO.>
2410

>  <Name>
carmantadine

>  <IUPAC_name>
1-(1-adamantyl)azetidine-2-carboxylic acid

>  <SMILES>
O=C(O)C1CCN1C12CC3CC(CC(C3)C1)C2

>  <CID>
37906

>  <logBB>


>  <BBB+/BBB->
BBB+

>  <Inchi>
InChI=1S/C14H21NO2/c16-13(17)12-1-2-15(12)14-6-9-3-10(7-14)5-11(4-9)8-14/h9-12H-1-8H2-(H-16-17)

>  <threshold>
-1

>  <reference>
R1|R13|R19|R6|R27|R27|R30|

>  <group>
B

>  <Class>
1

>  <ABC>
14.22

>  <ABCGG>
11.68

>  <nAcid>
1

>  <nBase>
1

>  <nAromAtom>
0

>  <nAromBond>
0

>  <nAtom>
38

>  <nHeavyAtom>
17

>  <nSpiro>
0

>  <nBridgehead>
4

>  <nHetero>
3

>  <nN>
1

>  <nO>
2

>  <nF>
0

>  <BalabanJ>
1.6

>  <BertzCT>
329.95

>  <nBonds>
41

>  <nBondsO>
20

>  <nBondsS>
40

>  <nBondsD>
1

>  <nBondsT>
0

>  <nBondsA>
0

>  <nBondsM>
1

>  <nBondsKS>
40

>  <nBondsKD>
1

>  <RNCG>
0.35

>  <RPCG>
0.23

>  <FCSP3>
0.93

>  <SZ>
21.33

>  <Sm>
19.59

>  <Sv>
21.88

>  <Sse>
37.65

>  <Sp>
24

>  <Si>
43.07

>  <MZ>
0.56

>  <Mm>
0.52

>  <Mv>
0.58

>  <Mse>
0.99

>  <Mp>
0.63

>  <Mi>
1.13

>  <NsCH3>
0

>  <NdCH2>
0

>  <NssCH2>
8

>  <NtCH>
0

>  <NdsCH>
0

>  <NaaCH>
0

>  <NsssCH>
4

>  <NddC>
0

>  <NtsC>
0

>  <NdssC>
1

>  <NaasC>
0

>  <NaaaC>
0

>  <NssssC>
1

>  <NsNH3>
0

>  <NsNH2>
0

>  <NssNH2>
0

>  <NdNH>
0

>  <NssNH>
0

>  <NaaNH>
0

>  <NtN>
0

>  <NsssNH>
0

>  <NdsN>
0

>  <NaaN>
0

>  <NsssN>
1

>  <NddsN>
0

>  <NaasN>
0

>  <NssssN>
0

>  <NsOH>
1

>  <NdO>
1

>  <NssO>
0

>  <NaaO>
0

>  <NsF>
0

>  <NsSiH3>
0

>  <NssSiH2>
0

>  <NsssSiH>
0

>  <NssssSi>
0

>  <NsPH2>
0

>  <NssPH>
0

>  <NsssP>
0

>  <NdsssP>
0

>  <NsssssP>
0

>  <NsSH>
0

>  <NdS>
0

>  <NssS>
0

>  <NaaS>
0

>  <NdssS>
0

>  <NddssS>
0

>  <NsCl>
0

>  <NsBr>
0

>  <NsI>
0

>  <fragCpx>
128.03

>  <fMF>
0.37

>  <nHBAcc>
2

>  <nHBDon>
1

>  <Kier1>
10.88

>  <Kier2>
3.52

>  <Lipinski>
1

>  <GhoseFilter>
1

>  <FilterItLogS>
-1.26

>  <VMcGowan>
182.1

>  <LabuteASA>
102.18

>  <PEOE_VSA1>
5.11

>  <PEOE_VSA2>
9.69

>  <PEOE_VSA3>
0

>  <PEOE_VSA4>
0

>  <PEOE_VSA5>
0

>  <PEOE_VSA6>
0

>  <PEOE_VSA7>
62.7

>  <PEOE_VSA8>
12.08

>  <PEOE_VSA9>
0

>  <PEOE_VSA10>
6.04

>  <PEOE_VSA11>
0

>  <PEOE_VSA12>
0

>  <PEOE_VSA13>
0

>  <SMR_VSA1>
9.9

>  <SMR_VSA2>
0

>  <SMR_VSA3>
4.9

>  <SMR_VSA4>
17.75

>  <SMR_VSA5>
56.53

>  <SMR_VSA6>
6.54

>  <SMR_VSA7>
0

>  <SMR_VSA8>
0

>  <SMR_VSA9>
0

>  <SlogP_VSA1>
0

>  <SlogP_VSA2>
34.1

>  <SlogP_VSA3>
4.79

>  <SlogP_VSA4>
17.75

>  <SlogP_VSA5>
44.95

>  <SlogP_VSA6>
0

>  <SlogP_VSA7>
0

>  <SlogP_VSA8>
0

>  <SlogP_VSA9>
0

>  <SlogP_VSA10>
0

>  <SlogP_VSA11>
0

>  <EState_VSA1>
5.97

>  <EState_VSA2>
6.04

>  <EState_VSA3>
5.54

>  <EState_VSA4>
30.72

>  <EState_VSA5>
38.52

>  <EState_VSA6>
0

>  <EState_VSA7>
0

>  <EState_VSA8>
4.9

>  <EState_VSA9>
0

>  <EState_VSA10>
9.9

>  <VSA_EState1>
0

>  <VSA_EState2>
13.6

>  <VSA_EState3>
9.26

>  <VSA_EState4>
0.3

>  <VSA_EState5>
2.15

>  <VSA_EState6>
-0.16

>  <VSA_EState7>
9.06

>  <VSA_EState8>
1.03

>  <VSA_EState9>
0

>  <apol>
40.09

>  <bpol>
23.65

>  <nRing>
5

>  <nHRing>
1

>  <naRing>
0

>  <naHRing>
0

>  <nARing 2>
5

>  <nAHRing 2>
1

>  <nFRing>
1

>  <nFHRing>
0

>  <nFaRing>
0

>  <nFaHRing>
0

>  <nFARing 2>
1

>  <nFAHRing 2>
0

>  <nRot>
2

>  <SLogP>
2.11

>  <SMR>
63.65

>  <TopoPSA(NO)>
40.54

>  <TopoPSA>
40.54

>  <JGI1>
0.28

>  <JGI2>
0.06

>  <JGI3>
0.06

>  <JGI4>
0.05

>  <JGI5>
0.02

>  <Diameter>
7

>  <Radius>
4

>  <TMWC10>
112.8

>  <TSRW10>
51.81

>  <MW>
235.16

>  <AMW>
6.19

>  <WPath>
456

>  <WPol>
28

>  <Zagreb1>
104

>  <Zagreb2>
130

>  <mZagreb2>
3.43

>  <yes>


>  <nAR-cont>
0

>  <nHA-cont>
0.976740822

>  <MWHBN>
0.195631835

>  <MWHBN-cont>
0.998419985

>  <TPSA-cont>
0.717005626

>  <pka_cont>
0.97

>  <yes.1>


>  <BBB_SCORE>
4.393382052

>  <MMFF94 Energy>
50.555

$$$$
Compound 1813
Actelion Java MolfileCreator 2.0

  0  0  0  0  0  0              0 V3000
M  V30 BEGIN CTAB
M  V30 COUNTS 32 33 0 0 0
M  V30 BEGIN ATOM
M  V30 1 S 1.5321 0.8868 -2.097 0
M  V30 2 C 0.4064 -0.5146 -1.8413 0
M  V30 3 C 2.9269 -0.1907 -2.4894 0
M  V30 4 C 1.2717 -1.6255 -1.2128 0
M  V30 5 C -0.9117 -0.1893 -1.1218 0
M  V30 6 C 2.7562 -1.4307 -1.6154 0
M  V30 7 N 1.3172 -1.6463 0.2321 0
M  V30 8 C -0.841 0.768 0.0758 0
M  V30 9 N 3.4414 -1.3192 -0.3439 0
M  V30 10 C 2.5865 -1.4562 0.723 0
M  V30 11 C -2.1939 0.858 0.7868 0
M  V30 12 O 2.9004 -1.4356 1.8975 0
M  V30 13 C -2.141 1.8289 1.9654 0
M  V30 14 C -3.4669 1.9143 2.6714 0
M  V30 15 O -4.4817 1.2858 2.4247 0
M  V30 16 O -3.442 2.8066 3.6809 0
M  V30 17 H 0.1426 -0.8575 -2.8506 0
M  V30 18 H 2.8541 -0.4598 -3.5479 0
M  V30 19 H 3.8789 0.322 -2.3243 0
M  V30 20 H 0.9028 -2.6084 -1.5279 0
M  V30 21 H -1.3839 -1.1317 -0.8157 0
M  V30 22 H -1.5952 0.2568 -1.8576 0
M  V30 23 H 3.1623 -2.316 -2.1166 0
M  V30 24 H 0.5456 -1.8168 0.8633 0
M  V30 25 H -0.5574 1.7706 -0.2645 0
M  V30 26 H -0.0819 0.445 0.7937 0
M  V30 27 H 4.4343 -1.1981 -0.1948 0
M  V30 28 H -2.4904 -0.1367 1.1422 0
M  V30 29 H -2.9651 1.1819 0.0767 0
M  V30 30 H -1.3889 1.4968 2.6894 0
M  V30 31 H -1.877 2.8305 1.6086 0
M  V30 32 H -4.3458 2.7663 4.0579 0
M  V30 END ATOM
M  V30 BEGIN BOND
M  V30 1 1 1 2
M  V30 2 1 1 3
M  V30 3 1 2 4
M  V30 4 1 2 5
M  V30 5 1 3 6
M  V30 6 1 4 7
M  V30 7 1 5 8
M  V30 8 1 6 9
M  V30 9 1 7 10
M  V30 10 1 8 11
M  V30 11 2 10 12
M  V30 12 1 11 13
M  V30 13 1 13 14
M  V30 14 2 14 15
M  V30 15 1 14 16
M  V30 16 1 4 6
M  V30 17 1 9 10
M  V30 18 1 2 17
M  V30 19 1 3 18
M  V30 20 1 3 19
M  V30 21 1 4 20
M  V30 22 1 5 21
M  V30 23 1 5 22
M  V30 24 1 6 23
M  V30 25 1 7 24
M  V30 26 1 8 25
M  V30 27 1 8 26
M  V30 28 1 9 27
M  V30 29 1 11 28
M  V30 30 1 11 29
M  V30 31 1 13 30
M  V30 32 1 13 31
M  V30 33 1 16 32
M  V30 END BOND
M  V30 END CTAB
M  END
>  <Column 1>
2218

>  <level_0>
2399

>  <index>
2399

>  <Unnamed: 0>
2399

>  <NO.>
2411

>  <Name>
bioepiderm

>  <IUPAC_name>
5-(2-oxo-1-3-3a-4-6-6a-hexahydrothieno[3-4-d]imidazol-4-yl)pentanoic acid

>  <SMILES>
O=C(O)CCCCC1SCC2NC(=O)NC21

>  <CID>
253

>  <logBB>


>  <BBB+/BBB->
BBB+

>  <Inchi>
InChI=1S/C10H16N2O3S/c13-8(14)4-2-1-3-7-9-6(5-16-7)11-10(15)12-9/h6-7-9H-1-5H2-(H-13-14)(H2-11-12-15)

>  <threshold>
-1

>  <reference>
R1|R19|R27|R27|R30|

>  <group>
B

>  <Class>
-1

>  <ABC>
12.27

>  <ABCGG>
10.97

>  <nAcid>
1

>  <nBase>
0

>  <nAromAtom>
0

>  <nAromBond>
0

>  <nAtom>
32

>  <nHeavyAtom>
16

>  <nSpiro>
0

>  <nBridgehead>
0

>  <nHetero>
6

>  <nN>
2

>  <nO>
3

>  <nF>
0

>  <BalabanJ>
1.67

>  <BertzCT>
297.79

>  <nBonds>
33

>  <nBondsO>
17

>  <nBondsS>
31

>  <nBondsD>
2

>  <nBondsT>
0

>  <nBondsA>
0

>  <nBondsM>
2

>  <nBondsKS>
31

>  <nBondsKD>
2

>  <RNCG>
0.25

>  <RPCG>
0.16

>  <FCSP3>
0.8

>  <SZ>
21.67

>  <Sm>
20.34

>  <Sv>
19.18

>  <Sse>
32.5

>  <Sp>
20.88

>  <Si>
36.45

>  <MZ>
0.68

>  <Mm>
0.64

>  <Mv>
0.6

>  <Mse>
1.02

>  <Mp>
0.65

>  <Mi>
1.14

>  <NsCH3>
0

>  <NdCH2>
0

>  <NssCH2>
5

>  <NtCH>
0

>  <NdsCH>
0

>  <NaaCH>
0

>  <NsssCH>
3

>  <NddC>
0

>  <NtsC>
0

>  <NdssC>
2

>  <NaasC>
0

>  <NaaaC>
0

>  <NssssC>
0

>  <NsNH3>
0

>  <NsNH2>
0

>  <NssNH2>
0

>  <NdNH>
0

>  <NssNH>
2

>  <NaaNH>
0

>  <NtN>
0

>  <NsssNH>
0

>  <NdsN>
0

>  <NaaN>
0

>  <NsssN>
0

>  <NddsN>
0

>  <NaasN>
0

>  <NssssN>
0

>  <NsOH>
1

>  <NdO>
2

>  <NssO>
0

>  <NaaO>
0

>  <NsF>
0

>  <NsSiH3>
0

>  <NssSiH2>
0

>  <NsssSiH>
0

>  <NssssSi>
0

>  <NsPH2>
0

>  <NssPH>
0

>  <NsssP>
0

>  <NdsssP>
0

>  <NsssssP>
0

>  <NsSH>
0

>  <NdS>
0

>  <NssS>
1

>  <NaaS>
0

>  <NdssS>
0

>  <NddssS>
0

>  <NsCl>
0

>  <NsBr>
0

>  <NsI>
0

>  <fragCpx>
49.06

>  <fMF>
0.25

>  <nHBAcc>
3

>  <nHBDon>
3

>  <Kier1>
12.46

>  <Kier2>
5.56

>  <Lipinski>
1

>  <GhoseFilter>
1

>  <FilterItLogS>
-1.67

>  <VMcGowan>
175.36

>  <LabuteASA>
98.35

>  <PEOE_VSA1>
15.74

>  <PEOE_VSA2>
4.79

>  <PEOE_VSA3>
4.79

>  <PEOE_VSA4>
11.76

>  <PEOE_VSA5>
0

>  <PEOE_VSA6>
6.42

>  <PEOE_VSA7>
12.84

>  <PEOE_VSA8>
17.42

>  <PEOE_VSA9>
12.08

>  <PEOE_VSA10>
0

>  <PEOE_VSA11>
0

>  <PEOE_VSA12>
0

>  <PEOE_VSA13>
0

>  <SMR_VSA1>
14.7

>  <SMR_VSA2>
0

>  <SMR_VSA3>
10.63

>  <SMR_VSA4>
0

>  <SMR_VSA5>
43.02

>  <SMR_VSA6>
5.75

>  <SMR_VSA7>
0

>  <SMR_VSA8>
0

>  <SMR_VSA9>
0

>  <SlogP_VSA1>
10.63

>  <SlogP_VSA2>
40.19

>  <SlogP_VSA3>
4.79

>  <SlogP_VSA4>
0

>  <SlogP_VSA5>
25.68

>  <SlogP_VSA6>
0

>  <SlogP_VSA7>
0

>  <SlogP_VSA8>
0

>  <SlogP_VSA9>
0

>  <SlogP_VSA10>
4.79

>  <SlogP_VSA11>
0

>  <EState_VSA1>
5.97

>  <EState_VSA2>
24.54

>  <EState_VSA3>
5.25

>  <EState_VSA4>
25.02

>  <EState_VSA5>
0

>  <EState_VSA6>
0

>  <EState_VSA7>
11.76

>  <EState_VSA8>
10.63

>  <EState_VSA9>
5.11

>  <EState_VSA10>
9.59

>  <VSA_EState1>
0

>  <VSA_EState2>
21.46

>  <VSA_EState3>
14.78

>  <VSA_EState4>
0

>  <VSA_EState5>
0.24

>  <VSA_EState6>
0.44

>  <VSA_EState7>
2.88

>  <VSA_EState8>
0

>  <VSA_EState9>
0

>  <apol>
34.87

>  <bpol>
21.39

>  <nRing>
2

>  <nHRing>
2

>  <naRing>
0

>  <naHRing>
0

>  <nARing 2>
2

>  <nAHRing 2>
2

>  <nFRing>
1

>  <nFHRing>
1

>  <nFaRing>
0

>  <nFaHRing>
0

>  <nFARing 2>
1

>  <nFAHRing 2>
1

>  <nRot>
5

>  <SLogP>
0.8

>  <SMR>
61.59

>  <TopoPSA(NO)>
78.43

>  <TopoPSA>
103.73

>  <JGI1>
0.21

>  <JGI2>
0.07

>  <JGI3>
0.06

>  <JGI4>
0.04

>  <JGI5>
0.02

>  <Diameter>
10

>  <Radius>
5

>  <TMWC10>
103.33

>  <TSRW10>
63.9

>  <MW>
244.09

>  <AMW>
7.63

>  <WPath>
500

>  <WPol>
18

>  <Zagreb1>
80

>  <Zagreb2>
91

>  <mZagreb2>
3.56

>  <yes>


>  <nAR-cont>
1

>  <nHA-cont>
0.954961865

>  <MWHBN>
0.384039819

>  <MWHBN-cont>
0.538933192

>  <TPSA-cont>
0.275900188

>  <pka_cont>
0.97

>  <yes.1>


>  <BBB_SCORE>
3.800162029

>  <MMFF94 Energy>
-55.246

$$$$
Compound 1814
Actelion Java MolfileCreator 2.0

  0  0  0  0  0  0              0 V3000
M  V30 BEGIN CTAB
M  V30 COUNTS 29 28 0 0 0
M  V30 BEGIN ATOM
M  V30 1 O -3.6373 0.3864 -4.1024 0
M  V30 2 C -3.687 0.7926 -2.9539 0
M  V30 3 O -4.4485 1.8543 -2.6296 0
M  V30 4 C -2.9353 0.236 -1.7803 0
M  V30 5 C -1.6566 1.0278 -1.5363 0
M  V30 6 C -0.8703 0.4645 -0.3514 0
M  V30 7 C 0.4169 1.257 -0.114 0
M  V30 8 C 1.1845 0.8134 1.1345 0
M  V30 9 C 1.735 -0.6103 1.0369 0
M  V30 10 C 2.5919 -0.9571 2.2539 0
M  V30 11 C 3.1318 -2.3592 2.1724 0
M  V30 12 O 2.9439 -3.179 1.2907 0
M  V30 13 O 3.8999 -2.6628 3.2375 0
M  V30 14 H -4.863 2.1165 -3.4783 0
M  V30 15 H -2.7113 -0.8161 -1.99 0
M  V30 16 H -3.5893 0.2484 -0.9009 0
M  V30 17 H -1.9031 2.0807 -1.3502 0
M  V30 18 H -1.0332 1.008 -2.439 0
M  V30 19 H -0.6334 -0.587 -0.5472 0
M  V30 20 H -1.4936 0.4962 0.5503 0
M  V30 21 H 0.1676 2.3195 -0.001 0
M  V30 22 H 1.0678 1.1778 -0.9932 0
M  V30 23 H 0.536 0.9001 2.0148 0
M  V30 24 H 2.0183 1.5099 1.2874 0
M  V30 25 H 2.3333 -0.7147 0.1234 0
M  V30 26 H 0.9115 -1.3296 0.9606 0
M  V30 27 H 3.4405 -0.2673 2.3195 0
M  V30 28 H 1.9919 -0.8742 3.1669 0
M  V30 29 H 4.1853 -3.5851 3.0681 0
M  V30 END ATOM
M  V30 BEGIN BOND
M  V30 1 2 1 2
M  V30 2 1 2 3
M  V30 3 1 2 4
M  V30 4 1 4 5
M  V30 5 1 5 6
M  V30 6 1 6 7
M  V30 7 1 7 8
M  V30 8 1 8 9
M  V30 9 1 9 10
M  V30 10 1 10 11
M  V30 11 2 11 12
M  V30 12 1 11 13
M  V30 13 1 3 14
M  V30 14 1 4 15
M  V30 15 1 4 16
M  V30 16 1 5 17
M  V30 17 1 5 18
M  V30 18 1 6 19
M  V30 19 1 6 20
M  V30 20 1 7 21
M  V30 21 1 7 22
M  V30 22 1 8 23
M  V30 23 1 8 24
M  V30 24 1 9 25
M  V30 25 1 9 26
M  V30 26 1 10 27
M  V30 27 1 10 28
M  V30 28 1 13 29
M  V30 END BOND
M  V30 END CTAB
M  END
>  <Column 1>
2219

>  <level_0>
2400

>  <index>
2400

>  <Unnamed: 0>
2400

>  <NO.>
2412

>  <Name>
gr94839_c

>  <IUPAC_name>
nonanedioic acid

>  <SMILES>
O=C(O)CCCCCCCC(=O)O

>  <CID>
2266

>  <logBB>


>  <BBB+/BBB->
BBB-

>  <Inchi>
InChI=1S/C9H16O4/c10-8(11)6-4-2-1-3-5-7-9(12)13/h1-7H2-(H-10-11)(H-12-13)

>  <threshold>
-1

>  <reference>
R1|R13|R19|R28|R9|R24|R27|R27|R27|R30|R36|

>  <group>
B

>  <Class>
1

>  <ABC>
8.92

>  <ABCGG>
8.22

>  <nAcid>
2

>  <nBase>
0

>  <nAromAtom>
0

>  <nAromBond>
0

>  <nAtom>
29

>  <nHeavyAtom>
13

>  <nSpiro>
0

>  <nBridgehead>
0

>  <nHetero>
4

>  <nN>
0

>  <nO>
4

>  <nF>
0

>  <BalabanJ>
2.92

>  <BertzCT>
147

>  <nBonds>
28

>  <nBondsO>
12

>  <nBondsS>
26

>  <nBondsD>
2

>  <nBondsT>
0

>  <nBondsA>
0

>  <nBondsM>
2

>  <nBondsKS>
26

>  <nBondsKD>
2

>  <RNCG>
0.28

>  <RPCG>
0.18

>  <FCSP3>
0.78

>  <SZ>
17

>  <Sm>
15.67

>  <Sv>
16.19

>  <Sse>
29.43

>  <Sp>
17.31

>  <Si>
33.16

>  <MZ>
0.59

>  <Mm>
0.54

>  <Mv>
0.56

>  <Mse>
1.01

>  <Mp>
0.6

>  <Mi>
1.14

>  <NsCH3>
0

>  <NdCH2>
0

>  <NssCH2>
7

>  <NtCH>
0

>  <NdsCH>
0

>  <NaaCH>
0

>  <NsssCH>
0

>  <NddC>
0

>  <NtsC>
0

>  <NdssC>
2

>  <NaasC>
0

>  <NaaaC>
0

>  <NssssC>
0

>  <NsNH3>
0

>  <NsNH2>
0

>  <NssNH2>
0

>  <NdNH>
0

>  <NssNH>
0

>  <NaaNH>
0

>  <NtN>
0

>  <NsssNH>
0

>  <NdsN>
0

>  <NaaN>
0

>  <NsssN>
0

>  <NddsN>
0

>  <NaasN>
0

>  <NssssN>
0

>  <NsOH>
2

>  <NdO>
2

>  <NssO>
0

>  <NaaO>
0

>  <NsF>
0

>  <NsSiH3>
0

>  <NssSiH2>
0

>  <NsssSiH>
0

>  <NssssSi>
0

>  <NsPH2>
0

>  <NssPH>
0

>  <NsssP>
0

>  <NdsssP>
0

>  <NsssssP>
0

>  <NsSH>
0

>  <NdS>
0

>  <NssS>
0

>  <NaaS>
0

>  <NdssS>
0

>  <NddssS>
0

>  <NsCl>
0

>  <NsBr>
0

>  <NsI>
0

>  <fragCpx>
12.04

>  <fMF>
0

>  <nHBAcc>
2

>  <nHBDon>
2

>  <Kier1>
13

>  <Kier2>
8.59

>  <Lipinski>
1

>  <GhoseFilter>
1

>  <FilterItLogS>
-1.46

>  <VMcGowan>
152.55

>  <LabuteASA>
77.57

>  <PEOE_VSA1>
10.21

>  <PEOE_VSA2>
9.59

>  <PEOE_VSA3>
0

>  <PEOE_VSA4>
0

>  <PEOE_VSA5>
0

>  <PEOE_VSA6>
19.26

>  <PEOE_VSA7>
12.84

>  <PEOE_VSA8>
12.84

>  <PEOE_VSA9>
0

>  <PEOE_VSA10>
0

>  <PEOE_VSA11>
0

>  <PEOE_VSA12>
0

>  <PEOE_VSA13>
0

>  <SMR_VSA1>
19.8

>  <SMR_VSA2>
0

>  <SMR_VSA3>
0

>  <SMR_VSA4>
0

>  <SMR_VSA5>
44.95

>  <SMR_VSA6>
0

>  <SMR_VSA7>
0

>  <SMR_VSA8>
0

>  <SMR_VSA9>
0

>  <SlogP_VSA1>
0

>  <SlogP_VSA2>
22.15

>  <SlogP_VSA3>
9.59

>  <SlogP_VSA4>
0

>  <SlogP_VSA5>
44.95

>  <SlogP_VSA6>
0

>  <SlogP_VSA7>
0

>  <SlogP_VSA8>
0

>  <SlogP_VSA9>
0

>  <SlogP_VSA10>
0

>  <SlogP_VSA11>
0

>  <EState_VSA1>
11.94

>  <EState_VSA2>
12.84

>  <EState_VSA3>
12.84

>  <EState_VSA4>
19.26

>  <EState_VSA5>
0

>  <EState_VSA6>
0

>  <EState_VSA7>
0

>  <EState_VSA8>
0

>  <EState_VSA9>
10.21

>  <EState_VSA10>
9.59

>  <VSA_EState1>
0

>  <VSA_EState2>
20.2

>  <VSA_EState3>
16.62

>  <VSA_EState4>
0

>  <VSA_EState5>
-1.52

>  <VSA_EState6>
0

>  <VSA_EState7>
4.53

>  <VSA_EState8>
0

>  <VSA_EState9>
0

>  <apol>
28.91

>  <bpol>
17.79

>  <nRing>
0

>  <nHRing>
0

>  <naRing>
0

>  <naHRing>
0

>  <nARing 2>
0

>  <nAHRing 2>
0

>  <nFRing>
0

>  <nFHRing>
0

>  <nFaRing>
0

>  <nFaHRing>
0

>  <nFARing 2>
0

>  <nFAHRing 2>
0

>  <nRot>
8

>  <SLogP>
1.89

>  <SMR>
47.59

>  <TopoPSA(NO)>
74.6

>  <TopoPSA>
74.6

>  <JGI1>
0.21

>  <JGI2>
0.05

>  <JGI3>
0.04

>  <JGI4>
0.03

>  <JGI5>
0.02

>  <Diameter>
10

>  <Radius>
5

>  <TMWC10>
84.97

>  <TSRW10>
41.18

>  <MW>
188.1

>  <AMW>
6.49

>  <WPath>
344

>  <WPol>
10

>  <Zagreb1>
50

>  <Zagreb2>
48

>  <mZagreb2>
3.17

>  <yes>


>  <nAR-cont>
0.336376

>  <nHA-cont>
0.841215992

>  <MWHBN>
0.291652426

>  <MWHBN-cont>
0.864940681

>  <TPSA-cont>
0.479245676

>  <pka_cont>
0.97

>  <yes.1>


>  <BBB_SCORE>
3.918494366

>  <MMFF94 Energy>
-50.433

$$$$
Compound 1815
Actelion Java MolfileCreator 2.0

  0  0  0  0  0  0              0 V3000
M  V30 BEGIN CTAB
M  V30 COUNTS 52 54 0 0 0
M  V30 BEGIN ATOM
M  V30 1 O 1.4271 -2.5381 7.2309 0
M  V30 2 C 2.1429 -2.8404 6.2913 0
M  V30 3 O 3.3597 -3.3783 6.4952 0
M  V30 4 C 1.8291 -2.6456 4.8367 0
M  V30 5 C 2.379 -1.3126 4.3443 0
M  V30 6 C 2.0481 -1.0849 2.8684 0
M  V30 7 C 2.5957 0.2577 2.3785 0
M  V30 8 C 2.3979 0.4846 0.8762 0
M  V30 9 C 0.9272 0.623 0.4728 0
M  V30 10 N 0.8485 0.9111 -0.9657 0
M  V30 11 C -0.5564 0.9998 -1.4394 0
M  V30 12 C -0.6843 1.8604 -2.6985 0
M  V30 13 C -1.2747 -0.3357 -1.6443 0
M  V30 14 C -1.9256 2.4777 -2.9704 0
M  V30 15 C 0.3621 2.0074 -3.6244 0
M  V30 16 C -2.6706 -0.3984 -1.8839 0
M  V30 17 C -0.5454 -1.5455 -1.625 0
M  V30 18 C -2.0754 3.271 -4.1166 0
M  V30 19 C -3.0966 2.2358 -2.0489 0
M  V30 20 C 0.2008 2.7973 -4.7634 0
M  V30 21 C -3.2806 -1.6666 -2.017 0
M  V30 22 C -3.6036 0.7879 -2.0898 0
M  V30 23 C -1.1695 -2.7844 -1.7688 0
M  V30 24 C -1.0128 3.4355 -5.0038 0
M  V30 25 C -2.5418 -2.8459 -1.9523 0
M  V30 26 H 3.435 -3.4334 7.471 0
M  V30 27 H 0.7404 -2.6913 4.7167 0
M  V30 28 H 2.2426 -3.4851 4.2661 0
M  V30 29 H 3.4662 -1.2853 4.4895 0
M  V30 30 H 1.9628 -0.4962 4.9482 0
M  V30 31 H 0.9607 -1.1181 2.7375 0
M  V30 32 H 2.4739 -1.8975 2.2677 0
M  V30 33 H 3.6711 0.304 2.5912 0
M  V30 34 H 2.1276 1.0762 2.9391 0
M  V30 35 H 2.9378 1.3992 0.5982 0
M  V30 36 H 2.863 -0.3382 0.3185 0
M  V30 37 H 0.4676 1.437 1.0466 0
M  V30 38 H 0.3919 -0.3002 0.7113 0
M  V30 39 H 1.2736 1.8262 -1.1157 0
M  V30 40 H -1.08 1.5273 -0.6333 0
M  V30 41 H 1.309 1.4941 -3.4712 0
M  V30 42 H 0.5354 -1.5298 -1.4969 0
M  V30 43 H -3.0257 3.7525 -4.3349 0
M  V30 44 H -3.9276 2.8967 -2.3294 0
M  V30 45 H -2.8401 2.5347 -1.0261 0
M  V30 46 H 1.0211 2.9048 -5.468 0
M  V30 47 H -4.3524 -1.7363 -2.1976 0
M  V30 48 H -4.4072 0.7057 -1.3453 0
M  V30 49 H -4.073 0.644 -3.0741 0
M  V30 50 H -0.5788 -3.6957 -1.7409 0
M  V30 51 H -1.138 4.0459 -5.8942 0
M  V30 52 H -3.036 -3.8064 -2.0675 0
M  V30 END ATOM
M  V30 BEGIN BOND
M  V30 1 2 1 2
M  V30 2 1 2 3
M  V30 3 1 2 4
M  V30 4 1 4 5
M  V30 5 1 5 6
M  V30 6 1 6 7
M  V30 7 1 7 8
M  V30 8 1 8 9
M  V30 9 1 9 10
M  V30 10 1 10 11
M  V30 11 1 11 12
M  V30 12 1 11 13
M  V30 13 2 12 14
M  V30 14 1 12 15
M  V30 15 2 13 16
M  V30 16 1 13 17
M  V30 17 1 14 18
M  V30 18 1 14 19
M  V30 19 2 15 20
M  V30 20 1 16 21
M  V30 21 1 16 22
M  V30 22 2 17 23
M  V30 23 2 18 24
M  V30 24 2 21 25
M  V30 25 1 19 22
M  V30 26 1 20 24
M  V30 27 1 23 25
M  V30 28 1 3 26
M  V30 29 1 4 27
M  V30 30 1 4 28
M  V30 31 1 5 29
M  V30 32 1 5 30
M  V30 33 1 6 31
M  V30 34 1 6 32
M  V30 35 1 7 33
M  V30 36 1 7 34
M  V30 37 1 8 35
M  V30 38 1 8 36
M  V30 39 1 9 37
M  V30 40 1 9 38
M  V30 41 1 10 39
M  V30 42 1 11 40
M  V30 43 1 15 41
M  V30 44 1 17 42
M  V30 45 1 18 43
M  V30 46 1 19 44
M  V30 47 1 19 45
M  V30 48 1 20 46
M  V30 49 1 21 47
M  V30 50 1 22 48
M  V30 51 1 22 49
M  V30 52 1 23 50
M  V30 53 1 24 51
M  V30 54 1 25 52
M  V30 END BOND
M  V30 END CTAB
M  END
>  <Column 1>
2220

>  <level_0>
2401

>  <index>
2401

>  <Unnamed: 0>
2401

>  <NO.>
2413

>  <Name>
survector

>  <IUPAC_name>
6-carboxyhexyl(2-tricyclo[9.4.0.03-8]pentadeca-1(15)-3-5-7-11-13-hexaenyl)azanium;chloride

>  <SMILES>
O=C(O)CCCCCCNC1c2ccccc2CCc2ccccc21

>  <CID>
34870

>  <logBB>


>  <BBB+/BBB->
BBB+

>  <Inchi>
InChI=1S/C22H27NO2/c24-21(25)13-3-1-2-8-16-23-22-19-11-6-4-9-17(19)14-15-18-10-5-7-12-20(18)22/h4-7-9-12-22-23H-1-3-8-13-16H2-(H-24-25)

>  <threshold>
-1

>  <reference>
R1|R13|R19|R6|R14|R23|R24|R27|R27|R27|R30|R30|

>  <group>
B

>  <Class>
1

>  <ABC>
19.15

>  <ABCGG>
14.62

>  <nAcid>
1

>  <nBase>
1

>  <nAromAtom>
12

>  <nAromBond>
12

>  <nAtom>
52

>  <nHeavyAtom>
25

>  <nSpiro>
0

>  <nBridgehead>
0

>  <nHetero>
3

>  <nN>
1

>  <nO>
2

>  <nF>
0

>  <BalabanJ>
1.48

>  <BertzCT>
663.18

>  <nBonds>
54

>  <nBondsO>
27

>  <nBondsS>
41

>  <nBondsD>
1

>  <nBondsT>
0

>  <nBondsA>
12

>  <nBondsM>
13

>  <nBondsKS>
47

>  <nBondsKD>
7

>  <RNCG>
0.25

>  <RPCG>
0.16

>  <FCSP3>
0.41

>  <SZ>
30.33

>  <Sm>
28.1

>  <Sv>
31.5

>  <Sse>
51.31

>  <Sp>
34.4

>  <Si>
58.32

>  <MZ>
0.58

>  <Mm>
0.54

>  <Mv>
0.61

>  <Mse>
0.99

>  <Mp>
0.66

>  <Mi>
1.12

>  <NsCH3>
0

>  <NdCH2>
0

>  <NssCH2>
8

>  <NtCH>
0

>  <NdsCH>
0

>  <NaaCH>
8

>  <NsssCH>
1

>  <NddC>
0

>  <NtsC>
0

>  <NdssC>
1

>  <NaasC>
4

>  <NaaaC>
0

>  <NssssC>
0

>  <NsNH3>
0

>  <NsNH2>
0

>  <NssNH2>
0

>  <NdNH>
0

>  <NssNH>
1

>  <NaaNH>
0

>  <NtN>
0

>  <NsssNH>
0

>  <NdsN>
0

>  <NaaN>
0

>  <NsssN>
0

>  <NddsN>
0

>  <NaasN>
0

>  <NssssN>
0

>  <NsOH>
1

>  <NdO>
1

>  <NssO>
0

>  <NaaO>
0

>  <NsF>
0

>  <NsSiH3>
0

>  <NssSiH2>
0

>  <NsssSiH>
0

>  <NssssSi>
0

>  <NsPH2>
0

>  <NssPH>
0

>  <NsssP>
0

>  <NdsssP>
0

>  <NsssssP>
0

>  <NsSH>
0

>  <NdS>
0

>  <NssS>
0

>  <NaaS>
0

>  <NdssS>
0

>  <NddssS>
0

>  <NsCl>
0

>  <NsBr>
0

>  <NsI>
0

>  <fragCpx>
129.03

>  <fMF>
0.29

>  <nHBAcc>
2

>  <nHBDon>
2

>  <Kier1>
19.75

>  <Kier2>
10.36

>  <Lipinski>
1

>  <GhoseFilter>
1

>  <FilterItLogS>
-6.13

>  <VMcGowan>
279.88

>  <LabuteASA>
149.64

>  <PEOE_VSA1>
10.42

>  <PEOE_VSA2>
4.79

>  <PEOE_VSA3>
0

>  <PEOE_VSA4>
0

>  <PEOE_VSA5>
0

>  <PEOE_VSA6>
61.37

>  <PEOE_VSA7>
54.48

>  <PEOE_VSA8>
6.42

>  <PEOE_VSA9>
6.04

>  <PEOE_VSA10>
0

>  <PEOE_VSA11>
0

>  <PEOE_VSA12>
0

>  <PEOE_VSA13>
0

>  <SMR_VSA1>
9.9

>  <SMR_VSA2>
0

>  <SMR_VSA3>
5.32

>  <SMR_VSA4>
0

>  <SMR_VSA5>
50.99

>  <SMR_VSA6>
6.54

>  <SMR_VSA7>
70.78

>  <SMR_VSA8>
0

>  <SMR_VSA9>
0

>  <SlogP_VSA1>
5.32

>  <SlogP_VSA2>
17.62

>  <SlogP_VSA3>
17.64

>  <SlogP_VSA4>
0

>  <SlogP_VSA5>
60.4

>  <SlogP_VSA6>
48.53

>  <SlogP_VSA7>
0

>  <SlogP_VSA8>
0

>  <SlogP_VSA9>
0

>  <SlogP_VSA10>
0

>  <SlogP_VSA11>
0

>  <EState_VSA1>
5.97

>  <EState_VSA2>
12.46

>  <EState_VSA3>
0

>  <EState_VSA4>
45.07

>  <EState_VSA5>
22.25

>  <EState_VSA6>
0

>  <EState_VSA7>
0

>  <EState_VSA8>
53.85

>  <EState_VSA9>
5.11

>  <EState_VSA10>
4.79

>  <VSA_EState1>
0

>  <VSA_EState2>
10.55

>  <VSA_EState3>
12.44

>  <VSA_EState4>
5.69

>  <VSA_EState5>
-0.69

>  <VSA_EState6>
17.8

>  <VSA_EState7>
6.42

>  <VSA_EState8>
0.96

>  <VSA_EState9>
0

>  <apol>
57.45

>  <bpol>
28.52

>  <nRing>
3

>  <nHRing>
0

>  <naRing>
2

>  <naHRing>
0

>  <nARing 2>
1

>  <nAHRing 2>
0

>  <nFRing>
1

>  <nFHRing>
0

>  <nFaRing>
0

>  <nFaHRing>
0

>  <nFARing 2>
1

>  <nFAHRing 2>
0

>  <nRot>
8

>  <SLogP>
4.5

>  <SMR>
100.86

>  <TopoPSA(NO)>
49.33

>  <TopoPSA>
49.33

>  <JGI1>
0.11

>  <JGI2>
0.06

>  <JGI3>
0.04

>  <JGI4>
0.03

>  <JGI5>
0.01

>  <Diameter>
13

>  <Radius>
7

>  <TMWC10>
126.24

>  <TSRW10>
67.33

>  <MW>
337.2

>  <AMW>
6.48

>  <WPath>
1662

>  <WPol>
39

>  <Zagreb1>
124

>  <Zagreb2>
142

>  <mZagreb2>
5.69

>  <yes>


>  <nAR-cont>
0.816016

>  <nHA-cont>
0.921834225

>  <MWHBN>
0.217829256

>  <MWHBN-cont>
0.996240184

>  <TPSA-cont>
0.655645968

>  <pka_cont>
0.97

>  <yes.1>


>  <BBB_SCORE>
5.028502437

>  <MMFF94 Energy>
36.448

$$$$
Compound 1816
Actelion Java MolfileCreator 2.0

  0  0  0  0  0  0              0 V3000
M  V30 BEGIN CTAB
M  V30 COUNTS 28 30 0 0 0
M  V30 BEGIN ATOM
M  V30 1 O -0.1618 -1.9439 2.1061 0
M  V30 2 C 0.0711 -1.1467 1.2009 0
M  V30 3 N 0.9469 -1.4104 0.1513 0
M  V30 4 C -0.5965 0.1746 1.2001 0
M  V30 5 C 1.2098 -0.5478 -0.9094 0
M  V30 6 C 1.5727 -2.7269 0.1155 0
M  V30 7 C -0.3424 1.0788 0.1619 0
M  V30 8 C -1.4756 0.5048 2.2397 0
M  V30 9 O 1.9658 -0.8249 -1.8371 0
M  V30 10 C 0.53 0.767 -0.8876 0
M  V30 11 C 0.6741 -3.6878 -0.6419 0
M  V30 12 C -0.9858 2.3397 0.1725 0
M  V30 13 C -2.1072 1.7455 2.2491 0
M  V30 14 C 0.7683 1.6848 -1.9188 0
M  V30 15 O -0.4071 -3.4514 -1.1582 0
M  V30 16 O 1.1988 -4.931 -0.7114 0
M  V30 17 C -1.8633 2.6572 1.2218 0
M  V30 18 C -0.7361 3.2499 -0.867 0
M  V30 19 C 0.1352 2.9246 -1.9067 0
M  V30 20 H 1.716 -3.1083 1.1314 0
M  V30 21 H 2.5396 -2.6752 -0.3947 0
M  V30 22 H -1.6707 -0.2043 3.0422 0
M  V30 23 H -2.7908 2.002 3.0552 0
M  V30 24 H 1.4457 1.4343 -2.7333 0
M  V30 25 H 0.529 -5.4387 -1.2169 0
M  V30 26 H -2.3678 3.6218 1.2459 0
M  V30 27 H -1.2227 4.2238 -0.8759 0
M  V30 28 H 0.3188 3.6372 -2.7076 0
M  V30 END ATOM
M  V30 BEGIN BOND
M  V30 1 2 1 2
M  V30 2 1 2 3
M  V30 3 1 2 4
M  V30 4 1 3 5
M  V30 5 1 3 6
M  V30 6 1 4 7
M  V30 7 2 4 8
M  V30 8 2 5 9
M  V30 9 1 5 10
M  V30 10 1 6 11
M  V30 11 1 7 12
M  V30 12 1 8 13
M  V30 13 1 10 14
M  V30 14 2 11 15
M  V30 15 1 11 16
M  V30 16 1 12 17
M  V30 17 2 12 18
M  V30 18 2 14 19
M  V30 19 2 7 10
M  V30 20 2 13 17
M  V30 21 1 18 19
M  V30 22 1 6 20
M  V30 23 1 6 21
M  V30 24 1 8 22
M  V30 25 1 13 23
M  V30 26 1 14 24
M  V30 27 1 16 25
M  V30 28 1 17 26
M  V30 29 1 18 27
M  V30 30 1 19 28
M  V30 END BOND
M  V30 END CTAB
M  END
>  <Column 1>
2221

>  <level_0>
2402

>  <index>
2402

>  <Unnamed: 0>
2402

>  <NO.>
2414

>  <Name>
alrestatin

>  <IUPAC_name>
2-(1-3-dioxobenzo[de]isoquinolin-2-yl)acetic acid

>  <SMILES>
O=C(O)CN1C(=O)c2cccc3cccc(c23)C1=O

>  <CID>
2120

>  <logBB>


>  <BBB+/BBB->
BBB+

>  <Inchi>
InChI=1S/C14H9NO4/c16-11(17)7-15-13(18)9-5-1-3-8-4-2-6-10(12(8)9)14(15)19/h1-6H-7H2-(H-16-17)

>  <threshold>
-1

>  <reference>
R1|R13|R19|R6|R24|R27|R27|R27|R30|R30|

>  <group>
B

>  <Class>
-1

>  <ABC>
15

>  <ABCGG>
12.35

>  <nAcid>
1

>  <nBase>
0

>  <nAromAtom>
10

>  <nAromBond>
11

>  <nAtom>
28

>  <nHeavyAtom>
19

>  <nSpiro>
0

>  <nBridgehead>
0

>  <nHetero>
5

>  <nN>
1

>  <nO>
4

>  <nF>
0

>  <BalabanJ>
1.84

>  <BertzCT>
684.55

>  <nBonds>
30

>  <nBondsO>
21

>  <nBondsS>
16

>  <nBondsD>
3

>  <nBondsT>
0

>  <nBondsA>
11

>  <nBondsM>
14

>  <nBondsKS>
22

>  <nBondsKD>
8

>  <RNCG>
0.26

>  <RPCG>
0.17

>  <FCSP3>
0.07

>  <SZ>
22

>  <Sm>
21.25

>  <Sv>
20.06

>  <Sse>
28.98

>  <Sp>
20.17

>  <Si>
31

>  <MZ>
0.79

>  <Mm>
0.76

>  <Mv>
0.72

>  <Mse>
1.04

>  <Mp>
0.72

>  <Mi>
1.11

>  <NsCH3>
0

>  <NdCH2>
0

>  <NssCH2>
1

>  <NtCH>
0

>  <NdsCH>
0

>  <NaaCH>
6

>  <NsssCH>
0

>  <NddC>
0

>  <NtsC>
0

>  <NdssC>
3

>  <NaasC>
2

>  <NaaaC>
2

>  <NssssC>
0

>  <NsNH3>
0

>  <NsNH2>
0

>  <NssNH2>
0

>  <NdNH>
0

>  <NssNH>
0

>  <NaaNH>
0

>  <NtN>
0

>  <NsssNH>
0

>  <NdsN>
0

>  <NaaN>
0

>  <NsssN>
1

>  <NddsN>
0

>  <NaasN>
0

>  <NssssN>
0

>  <NsOH>
1

>  <NdO>
3

>  <NssO>
0

>  <NaaO>
0

>  <NsF>
0

>  <NsSiH3>
0

>  <NssSiH2>
0

>  <NsssSiH>
0

>  <NssssSi>
0

>  <NsPH2>
0

>  <NssPH>
0

>  <NsssP>
0

>  <NdsssP>
0

>  <NsssssP>
0

>  <NsSH>
0

>  <NdS>
0

>  <NssS>
0

>  <NaaS>
0

>  <NdssS>
0

>  <NddssS>
0

>  <NsCl>
0

>  <NsBr>
0

>  <NsI>
0

>  <fragCpx>
99.05

>  <fMF>
0.46

>  <nHBAcc>
3

>  <nHBDon>
1

>  <Kier1>
13.96

>  <Kier2>
5.41

>  <Lipinski>
1

>  <GhoseFilter>
1

>  <FilterItLogS>
-2.61

>  <VMcGowan>
174.6

>  <LabuteASA>
107.61

>  <PEOE_VSA1>
5.11

>  <PEOE_VSA2>
19.28

>  <PEOE_VSA3>
0

>  <PEOE_VSA4>
0

>  <PEOE_VSA5>
0

>  <PEOE_VSA6>
24.27

>  <PEOE_VSA7>
17.52

>  <PEOE_VSA8>
16.51

>  <PEOE_VSA9>
0

>  <PEOE_VSA10>
6.54

>  <PEOE_VSA11>
0

>  <PEOE_VSA12>
0

>  <PEOE_VSA13>
11.81

>  <SMR_VSA1>
19.49

>  <SMR_VSA2>
0

>  <SMR_VSA3>
4.9

>  <SMR_VSA4>
0

>  <SMR_VSA5>
0

>  <SMR_VSA6>
6.54

>  <SMR_VSA7>
47.53

>  <SMR_VSA8>
0

>  <SMR_VSA9>
0

>  <SlogP_VSA1>
0

>  <SlogP_VSA2>
34.33

>  <SlogP_VSA3>
4.79

>  <SlogP_VSA4>
0

>  <SlogP_VSA5>
20.72

>  <SlogP_VSA6>
36.4

>  <SlogP_VSA7>
0

>  <SlogP_VSA8>
10.77

>  <SlogP_VSA9>
0

>  <SlogP_VSA10>
0

>  <SlogP_VSA11>
0

>  <EState_VSA1>
24.33

>  <EState_VSA2>
0

>  <EState_VSA3>
16.51

>  <EState_VSA4>
10.29

>  <EState_VSA5>
0

>  <EState_VSA6>
24.27

>  <EState_VSA7>
12.13

>  <EState_VSA8>
0

>  <EState_VSA9>
5.11

>  <EState_VSA10>
14.38

>  <VSA_EState1>
0

>  <VSA_EState2>
35.91

>  <VSA_EState3>
10.19

>  <VSA_EState4>
0.74

>  <VSA_EState5>
-2.33

>  <VSA_EState6>
10.28

>  <VSA_EState7>
0

>  <VSA_EState8>
-0.62

>  <VSA_EState9>
0

>  <apol>
33.69

>  <bpol>
13.34

>  <nRing>
3

>  <nHRing>
1

>  <naRing>
2

>  <naHRing>
0

>  <nARing 2>
1

>  <nAHRing 2>
1

>  <nFRing>
1

>  <nFHRing>
1

>  <nFaRing>
0

>  <nFaHRing>
0

>  <nFARing 2>
1

>  <nFAHRing 2>
1

>  <nRot>
2

>  <SLogP>
1.52

>  <SMR>
66.95

>  <TopoPSA(NO)>
74.68

>  <TopoPSA>
74.68

>  <JGI1>
0.17

>  <JGI2>
0.08

>  <JGI3>
0.06

>  <JGI4>
0.06

>  <JGI5>
0.03

>  <Diameter>
8

>  <Radius>
5

>  <TMWC10>
114.82

>  <TSRW10>
53.13

>  <MW>
255.05

>  <AMW>
9.11

>  <WPath>
616

>  <WPol>
35

>  <Zagreb1>
104

>  <Zagreb2>
127

>  <mZagreb2>
4.11

>  <yes>


>  <nAR-cont>
0.816016

>  <nHA-cont>
0.998649058

>  <MWHBN>
0.250465162

>  <MWHBN-cont>
0.958991452

>  <TPSA-cont>
0.478687227

>  <pka_cont>
0.97

>  <yes.1>


>  <BBB_SCORE>
4.695526688

>  <MMFF94 Energy>
-0.085574

$$$$
Compound 1817
Actelion Java MolfileCreator 2.0

  0  0  0  0  0  0              0 V3000
M  V30 BEGIN CTAB
M  V30 COUNTS 52 54 0 0 0
M  V30 BEGIN ATOM
M  V30 1 Cl -4.9796 -4.5773 -3.2908 0
M  V30 2 C -3.9534 -3.6904 -2.2318 0
M  V30 3 C -4.107 -2.312 -2.1126 0
M  V30 4 C -2.9746 -4.357 -1.4986 0
M  V30 5 C -3.2731 -1.5936 -1.2525 0
M  V30 6 C -2.1397 -3.6385 -0.6386 0
M  V30 7 C -2.2725 -2.2446 -0.5081 0
M  V30 8 C -1.3592 -1.4771 0.4607 0 CFG=1
M  V30 9 N -0.8018 -0.2176 -0.1179 0
M  V30 10 C -2.0954 -1.2724 1.7921 0
M  V30 11 C -0.0328 -0.4877 -1.3584 0
M  V30 12 C 0.0913 0.4731 0.8442 0
M  V30 13 C -1.8323 -2.1274 2.8765 0
M  V30 14 C -3.0602 -0.263 1.9562 0
M  V30 15 C 0.6239 0.785 -1.9419 0
M  V30 16 C 0.776 1.7281 0.247 0
M  V30 17 C -2.5052 -1.9686 4.0898 0
M  V30 18 C -3.7311 -0.1057 3.1702 0
M  V30 19 N 1.5159 1.4994 -1.0083 0
M  V30 20 C -3.453 -0.958 4.2362 0
M  V30 21 C 2.7899 0.778 -0.8151 0
M  V30 22 C 3.9142 1.6586 -0.2364 0
M  V30 23 O 4.388 2.5646 -1.2345 0
M  V30 24 C 5.2982 3.5161 -0.7014 0
M  V30 25 C 5.919 4.3993 -1.7735 0
M  V30 26 O 5.7819 4.3348 -2.9835 0
M  V30 27 O 6.7254 5.346 -1.2401 0
M  V30 28 H -4.8709 -1.7899 -2.6819 0
M  V30 29 H -2.8591 -5.4337 -1.5879 0
M  V30 30 H -3.3986 -0.5158 -1.1693 0
M  V30 31 H -1.3869 -4.1757 -0.0661 0
M  V30 32 H -0.4947 -2.1258 0.6681 0
M  V30 33 H -0.691 -0.8854 -2.138 0
M  V30 34 H 0.741 -1.2442 -1.1738 0
M  V30 35 H 0.8593 -0.2168 1.2165 0
M  V30 36 H -0.4781 0.8162 1.7145 0
M  V30 37 H -1.1026 -2.9281 2.782 0
M  V30 38 H -3.2847 0.414 1.135 0
M  V30 39 H 1.1618 0.5317 -2.8639 0
M  V30 40 H -0.17 1.4778 -2.2523 0
M  V30 41 H 1.4218 2.1825 1.0059 0
M  V30 42 H 3.0E-4 2.4797 0.0458 0
M  V30 43 H -2.2935 -2.6371 4.9202 0
M  V30 44 H -4.4722 0.6814 3.2813 0
M  V30 45 H -3.9783 -0.8367 5.1799 0
M  V30 46 H 3.1434 0.4144 -1.7886 0
M  V30 47 H 2.6543 -0.0998 -0.1741 0
M  V30 48 H 3.5809 2.207 0.6507 0
M  V30 49 H 4.7491 1.0125 0.0595 0
M  V30 50 H 6.1143 2.9945 -0.1892 0
M  V30 51 H 4.7633 4.164 0.0016 0
M  V30 52 H 7.0462 5.8335 -2.0287 0
M  V30 END ATOM
M  V30 BEGIN BOND
M  V30 1 1 1 2
M  V30 2 2 2 3
M  V30 3 1 2 4
M  V30 4 1 3 5
M  V30 5 2 4 6
M  V30 6 2 5 7
M  V30 7 1 7 8
M  V30 8 1 8 9
M  V30 9 1 8 10
M  V30 10 1 9 11
M  V30 11 1 9 12
M  V30 12 2 10 13
M  V30 13 1 10 14
M  V30 14 1 11 15
M  V30 15 1 12 16
M  V30 16 1 13 17
M  V30 17 2 14 18
M  V30 18 1 15 19
M  V30 19 2 17 20
M  V30 20 1 19 21
M  V30 21 1 21 22
M  V30 22 1 22 23
M  V30 23 1 23 24
M  V30 24 1 24 25
M  V30 25 2 25 26
M  V30 26 1 25 27
M  V30 27 1 6 7
M  V30 28 1 16 19
M  V30 29 1 18 20
M  V30 30 1 3 28
M  V30 31 1 4 29
M  V30 32 1 5 30
M  V30 33 1 6 31
M  V30 34 1 8 32
M  V30 35 1 11 33
M  V30 36 1 11 34
M  V30 37 1 12 35
M  V30 38 1 12 36
M  V30 39 1 13 37
M  V30 40 1 14 38
M  V30 41 1 15 39
M  V30 42 1 15 40
M  V30 43 1 16 41
M  V30 44 1 16 42
M  V30 45 1 17 43
M  V30 46 1 18 44
M  V30 47 1 20 45
M  V30 48 1 21 46
M  V30 49 1 21 47
M  V30 50 1 22 48
M  V30 51 1 22 49
M  V30 52 1 24 50
M  V30 53 1 24 51
M  V30 54 1 27 52
M  V30 END BOND
M  V30 BEGIN COLLECTION
M  V30 MDLV30/STERAC1 ATOMS=(1 8)
M  V30 END COLLECTION
M  V30 END CTAB
M  END
>  <Column 1>
2222

>  <level_0>
2403

>  <index>
2403

>  <Unnamed: 0>
2403

>  <NO.>
2415

>  <Name>
levocetirizine

>  <IUPAC_name>
2-[2-[4-[(4-chlorophenyl)-phenylmethyl]piperazin-1-yl]ethoxy]acetic acid

>  <SMILES>
O=C(O)COCCN1CCN(C(c2ccccc2)c2ccc(Cl)cc2)CC1

>  <CID>
2678

>  <logBB>


>  <BBB+/BBB->
BBB-

>  <Inchi>
InChI=1S/C21H25ClN2O3/c22-19-8-6-18(7-9-19)21(17-4-2-1-3-5-17)24-12-10-23(11-13-24)14-15-27-16-20(25)26/h1-9-21H-10-16H2-(H-25-26)

>  <threshold>
-1

>  <reference>
R1|R7|R19|R19|R28|R6|R14|R27|R27|R29|R30|R34|R36|

>  <group>
B

>  <Class>
1

>  <ABC>
20.71

>  <ABCGG>
15.6

>  <nAcid>
1

>  <nBase>
2

>  <nAromAtom>
12

>  <nAromBond>
12

>  <nAtom>
52

>  <nHeavyAtom>
27

>  <nSpiro>
0

>  <nBridgehead>
0

>  <nHetero>
6

>  <nN>
2

>  <nO>
3

>  <nF>
0

>  <BalabanJ>
1.49

>  <BertzCT>
715.97

>  <nBonds>
54

>  <nBondsO>
29

>  <nBondsS>
41

>  <nBondsD>
1

>  <nBondsT>
0

>  <nBondsA>
12

>  <nBondsM>
13

>  <nBondsKS>
47

>  <nBondsKD>
7

>  <RNCG>
0.21

>  <RPCG>
0.14

>  <FCSP3>
0.38

>  <SZ>
34.33

>  <Sm>
32.38

>  <Sv>
32.52

>  <Sse>
52.18

>  <Sp>
35.05

>  <Si>
58.55

>  <MZ>
0.66

>  <Mm>
0.62

>  <Mv>
0.63

>  <Mse>
1

>  <Mp>
0.67

>  <Mi>
1.13

>  <NsCH3>
0

>  <NdCH2>
0

>  <NssCH2>
7

>  <NtCH>
0

>  <NdsCH>
0

>  <NaaCH>
9

>  <NsssCH>
1

>  <NddC>
0

>  <NtsC>
0

>  <NdssC>
1

>  <NaasC>
3

>  <NaaaC>
0

>  <NssssC>
0

>  <NsNH3>
0

>  <NsNH2>
0

>  <NssNH2>
0

>  <NdNH>
0

>  <NssNH>
0

>  <NaaNH>
0

>  <NtN>
0

>  <NsssNH>
0

>  <NdsN>
0

>  <NaaN>
0

>  <NsssN>
2

>  <NddsN>
0

>  <NaasN>
0

>  <NssssN>
0

>  <NsOH>
1

>  <NdO>
1

>  <NssO>
1

>  <NaaO>
0

>  <NsF>
0

>  <NsSiH3>
0

>  <NssSiH2>
0

>  <NsssSiH>
0

>  <NssssSi>
0

>  <NsPH2>
0

>  <NssPH>
0

>  <NsssP>
0

>  <NdsssP>
0

>  <NsssssP>
0

>  <NsSH>
0

>  <NdS>
0

>  <NssS>
0

>  <NaaS>
0

>  <NdssS>
0

>  <NddssS>
0

>  <NsCl>
1

>  <NsBr>
0

>  <NsI>
0

>  <fragCpx>
139.06

>  <fMF>
0.37

>  <nHBAcc>
4

>  <nHBDon>
1

>  <Kier1>
21.7

>  <Kier2>
11.25

>  <Lipinski>
1

>  <GhoseFilter>
1

>  <FilterItLogS>
-4.26

>  <VMcGowan>
293.88

>  <LabuteASA>
164.66

>  <PEOE_VSA1>
9.84

>  <PEOE_VSA2>
9.8

>  <PEOE_VSA3>
4.79

>  <PEOE_VSA4>
0

>  <PEOE_VSA5>
0

>  <PEOE_VSA6>
54.07

>  <PEOE_VSA7>
23.26

>  <PEOE_VSA8>
37.75

>  <PEOE_VSA9>
12.65

>  <PEOE_VSA10>
6.61

>  <PEOE_VSA11>
0

>  <PEOE_VSA12>
0

>  <PEOE_VSA13>
0

>  <SMR_VSA1>
14.64

>  <SMR_VSA2>
0

>  <SMR_VSA3>
9.8

>  <SMR_VSA4>
0

>  <SMR_VSA5>
6.04

>  <SMR_VSA6>
45.94

>  <SMR_VSA7>
70.75

>  <SMR_VSA8>
0

>  <SMR_VSA9>
0

>  <SlogP_VSA1>
0

>  <SlogP_VSA2>
66.81

>  <SlogP_VSA3>
9.53

>  <SlogP_VSA4>
0

>  <SlogP_VSA5>
17.17

>  <SlogP_VSA6>
54.6

>  <SlogP_VSA7>
5.02

>  <SlogP_VSA8>
0

>  <SlogP_VSA9>
0

>  <SlogP_VSA10>
0

>  <SlogP_VSA11>
0

>  <EState_VSA1>
5.97

>  <EState_VSA2>
12.65

>  <EState_VSA3>
6.61

>  <EState_VSA4>
37.75

>  <EState_VSA5>
11.13

>  <EState_VSA6>
0

>  <EState_VSA7>
18.2

>  <EState_VSA8>
46.2

>  <EState_VSA9>
21.44

>  <EState_VSA10>
4.79

>  <VSA_EState1>
5.15

>  <VSA_EState2>
15.32

>  <VSA_EState3>
9.37

>  <VSA_EState4>
2.52

>  <VSA_EState5>
-0.92

>  <VSA_EState6>
18.84

>  <VSA_EState7>
0

>  <VSA_EState8>
4.75

>  <VSA_EState9>
0

>  <apol>
58.53

>  <bpol>
31.61

>  <nRing>
3

>  <nHRing>
1

>  <naRing>
2

>  <naHRing>
0

>  <nARing 2>
1

>  <nAHRing 2>
1

>  <nFRing>
0

>  <nFHRing>
0

>  <nFaRing>
0

>  <nFaHRing>
0

>  <nFARing 2>
0

>  <nFAHRing 2>
0

>  <nRot>
8

>  <SLogP>
3.15

>  <SMR>
106.2

>  <TopoPSA(NO)>
53.01

>  <TopoPSA>
53.01

>  <JGI1>
0.16

>  <JGI2>
0.06

>  <JGI3>
0.04

>  <JGI4>
0.03

>  <JGI5>
0.01

>  <Diameter>
15

>  <Radius>
8

>  <TMWC10>
130.59

>  <TSRW10>
61.62

>  <MW>
388.16

>  <AMW>
7.46

>  <WPath>
2068

>  <WPol>
38

>  <Zagreb1>
134

>  <Zagreb2>
152

>  <mZagreb2>
6.08

>  <yes>


>  <nAR-cont>
0.816016

>  <nHA-cont>
0.860070871

>  <MWHBN>
0.25378422

>  <MWHBN-cont>
0.953189774

>  <TPSA-cont>
0.629957283

>  <pka_cont>
0.97

>  <yes.1>


>  <BBB_SCORE>
4.850786098

>  <MMFF94 Energy>
154.92

$$$$
Compound 1818
Actelion Java MolfileCreator 2.0

  0  0  0  0  0  0              0 V3000
M  V30 BEGIN CTAB
M  V30 COUNTS 50 53 0 0 0
M  V30 BEGIN ATOM
M  V30 1 O -0.9712 -1.4572 -1.3762 0
M  V30 2 C -1.195 -2.4609 -2.0402 0
M  V30 3 C -0.9565 -3.8395 -1.5644 0
M  V30 4 C -1.7582 -2.3161 -3.3926 0
M  V30 5 C -1.3365 -4.8905 -2.4013 0
M  V30 6 C -0.3795 -4.1313 -0.3225 0
M  V30 7 C -2.0752 -3.4092 -4.0986 0
M  V30 8 O -1.9041 -4.7033 -3.6366 0
M  V30 9 C -1.1438 -6.2178 -2.0084 0
M  V30 10 O 0.0786 -3.1489 0.512 0
M  V30 11 C -0.1635 -5.4593 0.0605 0
M  V30 12 C -2.6546 -3.2819 -5.4591 0
M  V30 13 C -0.5549 -6.5021 -0.7774 0
M  V30 14 C -0.8836 -2.8577 1.5399 0
M  V30 15 O -2.9837 -4.213 -6.1734 0
M  V30 16 O -2.8022 -2.0117 -5.8769 0
M  V30 17 C -0.4081 -1.6623 2.3734 0 CFG=1
M  V30 18 O 0.7215 -2.0523 3.1721 0
M  V30 19 C -0.0348 -0.4588 1.5004 0
M  V30 20 O 0.3112 0.6236 2.3793 0
M  V30 21 C 0.657 1.8068 1.7856 0
M  V30 22 C 0.9774 2.8343 2.6762 0
M  V30 23 C 0.7103 2.0487 0.4094 0
M  V30 24 C 1.3473 4.0907 2.1888 0
M  V30 25 C 1.0816 3.3094 -0.0721 0
M  V30 26 C 1.6881 5.1861 3.1068 0
M  V30 27 C 1.4002 4.3303 0.8204 0
M  V30 28 O 1.6632 5.0556 4.323 0
M  V30 29 C 2.066 6.4677 2.4924 0
M  V30 30 O 1.7561 5.5423 0.2882 0
M  V30 31 C 2.08 6.5763 1.1557 0
M  V30 32 C 2.4573 7.8601 0.5133 0
M  V30 33 O 2.4973 8.0609 -0.6883 0
M  V30 34 O 2.7684 8.8393 1.3818 0
M  V30 35 H -1.8986 -1.303 -3.7489 0
M  V30 36 H -1.4424 -7.0303 -2.6671 0
M  V30 37 H 0.3211 -5.6778 1.0097 0
M  V30 38 H -0.3892 -7.5339 -0.4762 0
M  V30 39 H -0.9923 -3.7332 2.192 0
M  V30 40 H -1.8548 -2.6199 1.0875 0
M  V30 41 H -3.1865 -2.1057 -6.7745 0
M  V30 42 H -1.1939 -1.3782 3.0828 0
M  V30 43 H 1.11 -1.222 3.508 0
M  V30 44 H 0.8348 -0.7001 0.8784 0
M  V30 45 H -0.8962 -0.173 0.8872 0
M  V30 46 H 0.9379 2.6548 3.7486 0
M  V30 47 H 0.4693 1.2773 -0.3177 0
M  V30 48 H 1.1208 3.4882 -1.144 0
M  V30 49 H 2.3178 7.2724 3.1718 0
M  V30 50 H 2.9897 9.6004 0.8043 0
M  V30 END ATOM
M  V30 BEGIN BOND
M  V30 1 2 1 2
M  V30 2 1 2 3
M  V30 3 1 2 4
M  V30 4 2 3 5
M  V30 5 1 3 6
M  V30 6 2 4 7
M  V30 7 1 5 8
M  V30 8 1 5 9
M  V30 9 1 6 10
M  V30 10 2 6 11
M  V30 11 1 7 12
M  V30 12 2 9 13
M  V30 13 1 10 14
M  V30 14 2 12 15
M  V30 15 1 12 16
M  V30 16 1 14 17
M  V30 17 1 17 18
M  V30 18 1 17 19
M  V30 19 1 19 20
M  V30 20 1 20 21
M  V30 21 2 21 22
M  V30 22 1 21 23
M  V30 23 1 22 24
M  V30 24 2 23 25
M  V30 25 1 24 26
M  V30 26 2 24 27
M  V30 27 2 26 28
M  V30 28 1 26 29
M  V30 29 1 27 30
M  V30 30 2 29 31
M  V30 31 1 31 32
M  V30 32 2 32 33
M  V30 33 1 32 34
M  V30 34 1 7 8
M  V30 35 1 11 13
M  V30 36 1 25 27
M  V30 37 1 30 31
M  V30 38 1 4 35
M  V30 39 1 9 36
M  V30 40 1 11 37
M  V30 41 1 13 38
M  V30 42 1 14 39
M  V30 43 1 14 40
M  V30 44 1 16 41
M  V30 45 1 17 42
M  V30 46 1 18 43
M  V30 47 1 19 44
M  V30 48 1 19 45
M  V30 49 1 22 46
M  V30 50 1 23 47
M  V30 51 1 25 48
M  V30 52 1 29 49
M  V30 53 1 34 50
M  V30 END BOND
M  V30 BEGIN COLLECTION
M  V30 MDLV30/STERAC1 ATOMS=(1 17)
M  V30 END COLLECTION
M  V30 END CTAB
M  END
>  <Column 1>
2224

>  <level_0>
2405

>  <index>
2405

>  <Unnamed: 0>
2405

>  <NO.>
2417

>  <Name>
cromoglicicacid

>  <IUPAC_name>
5-[3-(2-carboxy-4-oxochromen-6-yl)oxy-2-hydroxypropoxy]-4-oxochromene-2-carboxylic acid

>  <SMILES>
O=C(O)c1cc(=O)c2cc(OCC(O)COc3cccc4oc(C(=O)O)cc(=O)c34)ccc2o1

>  <CID>
27686

>  <logBB>


>  <BBB+/BBB->
BBB-

>  <Inchi>
InChI=1S/C23H16O11/c24-11(9-31-12-4-5-16-13(6-12)14(25)7-19(33-16)22(27)28)10-32-17-2-1-3-18-21(17)15(26)8-20(34-18)23(29)30/h1-8-11-24H-9-10H2-(H-27-28)(H-29-30)

>  <threshold>
-1

>  <reference>
R1|R27|R30|

>  <group>
B

>  <Class>
1

>  <ABC>
26.65

>  <ABCGG>
19.13

>  <nAcid>
2

>  <nBase>
0

>  <nAromAtom>
20

>  <nAromBond>
22

>  <nAtom>
50

>  <nHeavyAtom>
34

>  <nSpiro>
0

>  <nBridgehead>
0

>  <nHetero>
11

>  <nN>
0

>  <nO>
11

>  <nF>
0

>  <BalabanJ>
1.2

>  <BertzCT>
1530.01

>  <nBonds>
53

>  <nBondsO>
37

>  <nBondsS>
27

>  <nBondsD>
4

>  <nBondsT>
0

>  <nBondsA>
22

>  <nBondsM>
26

>  <nBondsKS>
41

>  <nBondsKD>
12

>  <RNCG>
0.11

>  <RPCG>
0.08

>  <FCSP3>
0.13

>  <SZ>
40.33

>  <Sm>
39

>  <Sv>
35.2

>  <Sse>
52.74

>  <Sp>
34.67

>  <Si>
55.63

>  <MZ>
0.81

>  <Mm>
0.78

>  <Mv>
0.7

>  <Mse>
1.05

>  <Mp>
0.69

>  <Mi>
1.11

>  <NsCH3>
0

>  <NdCH2>
0

>  <NssCH2>
2

>  <NtCH>
0

>  <NdsCH>
0

>  <NaaCH>
8

>  <NsssCH>
1

>  <NddC>
0

>  <NtsC>
0

>  <NdssC>
2

>  <NaasC>
4

>  <NaaaC>
4

>  <NssssC>
0

>  <NsNH3>
0

>  <NsNH2>
0

>  <NssNH2>
0

>  <NdNH>
0

>  <NssNH>
0

>  <NaaNH>
0

>  <NtN>
0

>  <NsssNH>
0

>  <NdsN>
0

>  <NaaN>
0

>  <NsssN>
0

>  <NddsN>
0

>  <NaasN>
0

>  <NssssN>
0

>  <NsOH>
3

>  <NdO>
4

>  <NssO>
2

>  <NaaO>
2

>  <NsF>
0

>  <NsSiH3>
0

>  <NssSiH2>
0

>  <NsssSiH>
0

>  <NssssSi>
0

>  <NsPH2>
0

>  <NssPH>
0

>  <NsssP>
0

>  <NdsssP>
0

>  <NsssssP>
0

>  <NsSH>
0

>  <NdS>
0

>  <NssS>
0

>  <NaaS>
0

>  <NdssS>
0

>  <NddssS>
0

>  <NsCl>
0

>  <NsBr>
0

>  <NsI>
0

>  <fragCpx>
247.11

>  <fMF>
0.5

>  <nHBAcc>
9

>  <nHBDon>
3

>  <Kier1>
27.05

>  <Kier2>
12.03

>  <Lipinski>
1

>  <GhoseFilter>
1

>  <FilterItLogS>
-4.5

>  <VMcGowan>
304.46

>  <LabuteASA>
188.54

>  <PEOE_VSA1>
33.63

>  <PEOE_VSA2>
9.59

>  <PEOE_VSA3>
9.59

>  <PEOE_VSA4>
0

>  <PEOE_VSA5>
0

>  <PEOE_VSA6>
6.07

>  <PEOE_VSA7>
30.33

>  <PEOE_VSA8>
12.13

>  <PEOE_VSA9>
5.39

>  <PEOE_VSA10>
47.37

>  <PEOE_VSA11>
10.86

>  <PEOE_VSA12>
11.52

>  <PEOE_VSA13>
0

>  <SMR_VSA1>
43.22

>  <SMR_VSA2>
0

>  <SMR_VSA3>
0

>  <SMR_VSA4>
0

>  <SMR_VSA5>
6.1

>  <SMR_VSA6>
13.21

>  <SMR_VSA7>
80.5

>  <SMR_VSA8>
0

>  <SMR_VSA9>
11.5

>  <SlogP_VSA1>
20.33

>  <SlogP_VSA2>
46.58

>  <SlogP_VSA3>
0

>  <SlogP_VSA4>
0

>  <SlogP_VSA5>
21.11

>  <SlogP_VSA6>
66.95

>  <SlogP_VSA7>
0

>  <SlogP_VSA8>
21.94

>  <SlogP_VSA9>
0

>  <SlogP_VSA10>
0

>  <SlogP_VSA11>
11.5

>  <EState_VSA1>
40.42

>  <EState_VSA2>
46.65

>  <EState_VSA3>
0

>  <EState_VSA4>
12.13

>  <EState_VSA5>
36.4

>  <EState_VSA6>
0

>  <EState_VSA7>
0

>  <EState_VSA8>
0

>  <EState_VSA9>
28.52

>  <EState_VSA10>
24.28

>  <VSA_EState1>
21.33

>  <VSA_EState2>
46.51

>  <VSA_EState3>
28.34

>  <VSA_EState4>
-1.08

>  <VSA_EState5>
-3.42

>  <VSA_EState6>
10.28

>  <VSA_EState7>
-1.14

>  <VSA_EState8>
-0.5

>  <VSA_EState9>
0

>  <apol>
57.9

>  <bpol>
26.47

>  <nRing>
4

>  <nHRing>
2

>  <naRing>
4

>  <naHRing>
2

>  <nARing 2>
0

>  <nAHRing 2>
0

>  <nFRing>
2

>  <nFHRing>
2

>  <nFaRing>
2

>  <nFaHRing>
2

>  <nFARing 2>
0

>  <nFAHRing 2>
0

>  <nRot>
8

>  <SLogP>
2.11

>  <SMR>
115.88

>  <TopoPSA(NO)>
173.71

>  <TopoPSA>
173.71

>  <JGI1>
0.22

>  <JGI2>
0.08

>  <JGI3>
0.04

>  <JGI4>
0.06

>  <JGI5>
0.03

>  <Diameter>
19

>  <Radius>
10

>  <TMWC10>
149.4

>  <TSRW10>
70.49

>  <MW>
468.07

>  <AMW>
9.36

>  <WPath>
4105

>  <WPol>
57

>  <Zagreb1>
180

>  <Zagreb2>
212

>  <mZagreb2>
7.36

>  <yes>


>  <nAR-cont>
0.336376

>  <nHA-cont>
0.568589513

>  <MWHBN>
0.554658717

>  <MWHBN-cont>
0

>  <TPSA-cont>
0

>  <pka_cont>
0.97

>  <yes.1>


>  <BBB_SCORE>
1.389965513

>  <MMFF94 Energy>
58.278

$$$$
Compound 1819
Actelion Java MolfileCreator 2.0

  0  0  0  0  0  0              0 V3000
M  V30 BEGIN CTAB
M  V30 COUNTS 21 22 0 0 0
M  V30 BEGIN ATOM
M  V30 1 O -1.6823 2.2436 0.961 0
M  V30 2 C -0.8466 1.4468 0.5496 0
M  V30 3 C -1.1703 0.0131 0.3405 0
M  V30 4 C 0.5309 1.902 0.2451 0
M  V30 5 C -0.1594 -0.839 -0.1336 0
M  V30 6 C -2.4535 -0.4712 0.6113 0
M  V30 7 C 1.4208 1.0042 -0.2035 0
M  V30 8 N 1.1133 -0.3287 -0.3959 0
M  V30 9 C -0.4546 -2.1892 -0.3332 0
M  V30 10 C -2.734 -1.8215 0.4074 0
M  V30 11 C 2.8169 1.4198 -0.5216 0
M  V30 12 C -1.737 -2.6777 -0.0635 0
M  V30 13 O 3.6777 0.6575 -0.9331 0
M  V30 14 O 3.0731 2.7224 -0.3206 0
M  V30 15 H 0.7437 2.9508 0.405 0
M  V30 16 H -3.2277 0.1987 0.9782 0
M  V30 17 H 1.8579 -0.9284 -0.7392 0
M  V30 18 H 0.307 -2.8724 -0.6992 0
M  V30 19 H -3.7296 -2.2064 0.6156 0
M  V30 20 H -1.9592 -3.7307 -0.2215 0
M  V30 21 H 4.0146 2.8229 -0.5732 0
M  V30 END ATOM
M  V30 BEGIN BOND
M  V30 1 2 1 2
M  V30 2 1 2 3
M  V30 3 1 2 4
M  V30 4 2 3 5
M  V30 5 1 3 6
M  V30 6 2 4 7
M  V30 7 1 5 8
M  V30 8 1 5 9
M  V30 9 2 6 10
M  V30 10 1 7 11
M  V30 11 2 9 12
M  V30 12 2 11 13
M  V30 13 1 11 14
M  V30 14 1 7 8
M  V30 15 1 10 12
M  V30 16 1 4 15
M  V30 17 1 6 16
M  V30 18 1 8 17
M  V30 19 1 9 18
M  V30 20 1 10 19
M  V30 21 1 12 20
M  V30 22 1 14 21
M  V30 END BOND
M  V30 END CTAB
M  END
>  <Column 1>
2225

>  <level_0>
2406

>  <index>
2406

>  <Unnamed: 0>
2406

>  <NO.>
2418

>  <Name>
kynurenic acid

>  <IUPAC_name>
4-oxo-1h-quinoline-2-carboxylic acid

>  <SMILES>
O=C(O)c1cc(=O)c2ccccc2[nH]1

>  <CID>
3845

>  <logBB>


>  <BBB+/BBB->
BBB+

>  <Inchi>
InChI=1S/C10H7NO3/c12-9-5-8(10(13)14)11-7-4-2-1-3-6(7)9/h1-5H-(H-11-12)(H-13-14)

>  <threshold>
-1

>  <reference>
R1|R13|R27|R30|

>  <group>
B

>  <Class>
1

>  <ABC>
10.81

>  <ABCGG>
9.39

>  <nAcid>
1

>  <nBase>
0

>  <nAromAtom>
10

>  <nAromBond>
11

>  <nAtom>
21

>  <nHeavyAtom>
14

>  <nSpiro>
0

>  <nBridgehead>
0

>  <nHetero>
4

>  <nN>
1

>  <nO>
3

>  <nF>
0

>  <BalabanJ>
2

>  <BertzCT>
556.54

>  <nBonds>
22

>  <nBondsO>
15

>  <nBondsS>
9

>  <nBondsD>
2

>  <nBondsT>
0

>  <nBondsA>
11

>  <nBondsM>
13

>  <nBondsKS>
16

>  <nBondsKD>
6

>  <RNCG>
0.3

>  <RPCG>
0.22

>  <FCSP3>
0

>  <SZ>
16.33

>  <Sm>
15.75

>  <Sv>
14.8

>  <Sse>
21.76

>  <Sp>
14.89

>  <Si>
23.37

>  <MZ>
0.78

>  <Mm>
0.75

>  <Mv>
0.7

>  <Mse>
1.04

>  <Mp>
0.71

>  <Mi>
1.11

>  <NsCH3>
0

>  <NdCH2>
0

>  <NssCH2>
0

>  <NtCH>
0

>  <NdsCH>
0

>  <NaaCH>
5

>  <NsssCH>
0

>  <NddC>
0

>  <NtsC>
0

>  <NdssC>
1

>  <NaasC>
1

>  <NaaaC>
2

>  <NssssC>
0

>  <NsNH3>
0

>  <NsNH2>
0

>  <NssNH2>
0

>  <NdNH>
0

>  <NssNH>
0

>  <NaaNH>
1

>  <NtN>
0

>  <NsssNH>
0

>  <NdsN>
0

>  <NaaN>
0

>  <NsssN>
0

>  <NddsN>
0

>  <NaasN>
0

>  <NssssN>
0

>  <NsOH>
1

>  <NdO>
2

>  <NssO>
0

>  <NaaO>
0

>  <NsF>
0

>  <NsSiH3>
0

>  <NssSiH2>
0

>  <NsssSiH>
0

>  <NssssSi>
0

>  <NsPH2>
0

>  <NssPH>
0

>  <NsssP>
0

>  <NdsssP>
0

>  <NsssssP>
0

>  <NsSH>
0

>  <NdS>
0

>  <NssS>
0

>  <NaaS>
0

>  <NdssS>
0

>  <NddssS>
0

>  <NsCl>
0

>  <NsBr>
0

>  <NsI>
0

>  <fragCpx>
43.04

>  <fMF>
0.48

>  <nHBAcc>
2

>  <nHBDon>
2

>  <Kier1>
10.52

>  <Kier2>
4.24

>  <Lipinski>
1

>  <GhoseFilter>
1

>  <FilterItLogS>
-2.23

>  <VMcGowan>
131.83

>  <LabuteASA>
78.81

>  <PEOE_VSA1>
10.09

>  <PEOE_VSA2>
4.79

>  <PEOE_VSA3>
4.79

>  <PEOE_VSA4>
0

>  <PEOE_VSA5>
0

>  <PEOE_VSA6>
12.13

>  <PEOE_VSA7>
12.13

>  <PEOE_VSA8>
16.97

>  <PEOE_VSA9>
0

>  <PEOE_VSA10>
5.69

>  <PEOE_VSA11>
5.43

>  <PEOE_VSA12>
0

>  <PEOE_VSA13>
0

>  <SMR_VSA1>
9.9

>  <SMR_VSA2>
0

>  <SMR_VSA3>
4.98

>  <SMR_VSA4>
0

>  <SMR_VSA5>
0

>  <SMR_VSA6>
0

>  <SMR_VSA7>
46.25

>  <SMR_VSA8>
0

>  <SMR_VSA9>
0

>  <SlogP_VSA1>
5.43

>  <SlogP_VSA2>
16.06

>  <SlogP_VSA3>
0

>  <SlogP_VSA4>
0

>  <SlogP_VSA5>
10.49

>  <SlogP_VSA6>
35.13

>  <SlogP_VSA7>
0

>  <SlogP_VSA8>
10.9

>  <SlogP_VSA9>
0

>  <SlogP_VSA10>
0

>  <SlogP_VSA11>
0

>  <EState_VSA1>
5.97

>  <EState_VSA2>
11.12

>  <EState_VSA3>
10.9

>  <EState_VSA4>
6.07

>  <EState_VSA5>
0

>  <EState_VSA6>
24.27

>  <EState_VSA7>
0

>  <EState_VSA8>
4.98

>  <EState_VSA9>
5.11

>  <EState_VSA10>
9.59

>  <VSA_EState1>
0

>  <VSA_EState2>
24.71

>  <VSA_EState3>
9.2

>  <VSA_EState4>
0.17

>  <VSA_EState5>
-1.13

>  <VSA_EState6>
7.88

>  <VSA_EState7>
0

>  <VSA_EState8>
0

>  <VSA_EState9>
0

>  <apol>
24.87

>  <bpol>
9.33

>  <nRing>
2

>  <nHRing>
1

>  <naRing>
2

>  <naHRing>
1

>  <nARing 2>
0

>  <nAHRing 2>
0

>  <nFRing>
1

>  <nFHRing>
1

>  <nFaRing>
1

>  <nFaHRing>
1

>  <nFARing 2>
0

>  <nFAHRing 2>
0

>  <nRot>
1

>  <SLogP>
1.23

>  <SMR>
51.53

>  <TopoPSA(NO)>
70.16

>  <TopoPSA>
70.16

>  <JGI1>
0.2

>  <JGI2>
0.08

>  <JGI3>
0.05

>  <JGI4>
0.06

>  <JGI5>
0.03

>  <Diameter>
7

>  <Radius>
4

>  <TMWC10>
98.76

>  <TSRW10>
45.92

>  <MW>
189.04

>  <AMW>
9

>  <WPath>
283

>  <WPol>
21

>  <Zagreb1>
72

>  <Zagreb2>
84

>  <mZagreb2>
3.08

>  <yes>


>  <nAR-cont>
0.336376

>  <nHA-cont>
0.887625254

>  <MWHBN>
0.290926403

>  <MWHBN-cont>
0.866973593

>  <TPSA-cont>
0.510239633

>  <pka_cont>
0.97

>  <yes.1>


>  <BBB_SCORE>
4.029940909

>  <MMFF94 Energy>
26.452

$$$$
Compound 1820
Actelion Java MolfileCreator 2.0

  0  0  0  0  0  0              0 V3000
M  V30 BEGIN CTAB
M  V30 COUNTS 20 21 0 0 0
M  V30 BEGIN ATOM
M  V30 1 O 2.0985 1.8562 -0.5646 0
M  V30 2 C 1.3528 0.9531 -0.2106 0
M  V30 3 C -0.0768 0.9339 -0.5494 0
M  V30 4 C 1.8572 -0.1762 0.5842 0
M  V30 5 C -0.8514 -0.1335 -0.1047 0
M  V30 6 C -0.6504 1.963 -1.3014 0
M  V30 7 C 1.0109 -1.1485 0.9547 0
M  V30 8 O -0.3395 -1.1678 0.6354 0
M  V30 9 C -2.2113 -0.1799 -0.4102 0
M  V30 10 C -2.0113 1.9154 -1.6065 0
M  V30 11 C 1.4979 -2.298 1.7572 0
M  V30 12 C -2.7903 0.8453 -1.1614 0
M  V30 13 O 0.8115 -3.2288 2.1423 0
M  V30 14 O 2.81 -2.2483 2.0494 0
M  V30 15 H 2.9109 -0.1587 0.832 0
M  V30 16 H -0.0426 2.7961 -1.6476 0
M  V30 17 H -2.8208 -1.0115 -0.0653 0
M  V30 18 H -2.4646 2.7126 -2.1913 0
M  V30 19 H -3.8509 0.8101 -1.4003 0
M  V30 20 H 2.9624 -3.0642 2.5717 0
M  V30 END ATOM
M  V30 BEGIN BOND
M  V30 1 2 1 2
M  V30 2 1 2 3
M  V30 3 1 2 4
M  V30 4 2 3 5
M  V30 5 1 3 6
M  V30 6 2 4 7
M  V30 7 1 5 8
M  V30 8 1 5 9
M  V30 9 2 6 10
M  V30 10 1 7 11
M  V30 11 2 9 12
M  V30 12 2 11 13
M  V30 13 1 11 14
M  V30 14 1 7 8
M  V30 15 1 10 12
M  V30 16 1 4 15
M  V30 17 1 6 16
M  V30 18 1 9 17
M  V30 19 1 10 18
M  V30 20 1 12 19
M  V30 21 1 14 20
M  V30 END BOND
M  V30 END CTAB
M  END
>  <Column 1>
2226

>  <level_0>
2407

>  <index>
2407

>  <Unnamed: 0>
2407

>  <NO.>
2419

>  <Name>
chromocarb

>  <IUPAC_name>
4-oxochromene-2-carboxylic acid

>  <SMILES>
O=C(O)c1cc(=O)c2ccccc2o1

>  <CID>
2741

>  <logBB>


>  <BBB+/BBB->
BBB+

>  <Inchi>
InChI=1S/C10H6O4/c11-7-5-9(10(12)13)14-8-4-2-1-3-6(7)8/h1-5H-(H-12-13)

>  <threshold>
-1

>  <reference>
R1|R13|R19|R6|R24|R27|R27|R27|R30|R30|

>  <group>
B

>  <Class>
1

>  <ABC>
10.81

>  <ABCGG>
9.39

>  <nAcid>
1

>  <nBase>
0

>  <nAromAtom>
10

>  <nAromBond>
11

>  <nAtom>
20

>  <nHeavyAtom>
14

>  <nSpiro>
0

>  <nBridgehead>
0

>  <nHetero>
4

>  <nN>
0

>  <nO>
4

>  <nF>
0

>  <BalabanJ>
2

>  <BertzCT>
553.3

>  <nBonds>
21

>  <nBondsO>
15

>  <nBondsS>
8

>  <nBondsD>
2

>  <nBondsT>
0

>  <nBondsA>
11

>  <nBondsM>
13

>  <nBondsKS>
15

>  <nBondsKD>
6

>  <RNCG>
0.29

>  <RPCG>
0.23

>  <FCSP3>
0

>  <SZ>
16.33

>  <Sm>
15.83

>  <Sv>
14.48

>  <Sse>
20.99

>  <Sp>
14.32

>  <Si>
22.08

>  <MZ>
0.82

>  <Mm>
0.79

>  <Mv>
0.72

>  <Mse>
1.05

>  <Mp>
0.72

>  <Mi>
1.1

>  <NsCH3>
0

>  <NdCH2>
0

>  <NssCH2>
0

>  <NtCH>
0

>  <NdsCH>
0

>  <NaaCH>
5

>  <NsssCH>
0

>  <NddC>
0

>  <NtsC>
0

>  <NdssC>
1

>  <NaasC>
1

>  <NaaaC>
2

>  <NssssC>
0

>  <NsNH3>
0

>  <NsNH2>
0

>  <NssNH2>
0

>  <NdNH>
0

>  <NssNH>
0

>  <NaaNH>
0

>  <NtN>
0

>  <NsssNH>
0

>  <NdsN>
0

>  <NaaN>
0

>  <NsssN>
0

>  <NddsN>
0

>  <NaasN>
0

>  <NssssN>
0

>  <NsOH>
1

>  <NdO>
2

>  <NssO>
0

>  <NaaO>
1

>  <NsF>
0

>  <NsSiH3>
0

>  <NssSiH2>
0

>  <NsssSiH>
0

>  <NssssSi>
0

>  <NsPH2>
0

>  <NssPH>
0

>  <NsssP>
0

>  <NdsssP>
0

>  <NsssssP>
0

>  <NsSH>
0

>  <NdS>
0

>  <NssS>
0

>  <NaaS>
0

>  <NdssS>
0

>  <NddssS>
0

>  <NsCl>
0

>  <NsBr>
0

>  <NsI>
0

>  <fragCpx>
43.04

>  <fMF>
0.5

>  <nHBAcc>
3

>  <nHBDon>
1

>  <Kier1>
10.52

>  <Kier2>
4.24

>  <Lipinski>
1

>  <GhoseFilter>
1

>  <FilterItLogS>
-2.23

>  <VMcGowan>
127.72

>  <LabuteASA>
78.4

>  <PEOE_VSA1>
9.52

>  <PEOE_VSA2>
4.79

>  <PEOE_VSA3>
4.79

>  <PEOE_VSA4>
0

>  <PEOE_VSA5>
0

>  <PEOE_VSA6>
12.13

>  <PEOE_VSA7>
12.13

>  <PEOE_VSA8>
6.07

>  <PEOE_VSA9>
5.39

>  <PEOE_VSA10>
5.58

>  <PEOE_VSA11>
5.43

>  <PEOE_VSA12>
5.76

>  <PEOE_VSA13>
0

>  <SMR_VSA1>
14.32

>  <SMR_VSA2>
0

>  <SMR_VSA3>
0

>  <SMR_VSA4>
0

>  <SMR_VSA5>
0

>  <SMR_VSA6>
0

>  <SMR_VSA7>
46.32

>  <SMR_VSA8>
0

>  <SMR_VSA9>
0

>  <SlogP_VSA1>
5.43

>  <SlogP_VSA2>
11.08

>  <SlogP_VSA3>
0

>  <SlogP_VSA4>
0

>  <SlogP_VSA5>
10.55

>  <SlogP_VSA6>
39.54

>  <SlogP_VSA7>
0

>  <SlogP_VSA8>
10.97

>  <SlogP_VSA9>
0

>  <SlogP_VSA10>
0

>  <SlogP_VSA11>
0

>  <EState_VSA1>
5.97

>  <EState_VSA2>
16.77

>  <EState_VSA3>
5.39

>  <EState_VSA4>
6.07

>  <EState_VSA5>
0

>  <EState_VSA6>
24.27

>  <EState_VSA7>
0

>  <EState_VSA8>
0

>  <EState_VSA9>
9.52

>  <EState_VSA10>
9.59

>  <VSA_EState1>
5

>  <VSA_EState2>
21.94

>  <VSA_EState3>
9.02

>  <VSA_EState4>
-0.05

>  <VSA_EState5>
-1.58

>  <VSA_EState6>
7.5

>  <VSA_EState7>
0

>  <VSA_EState8>
0

>  <VSA_EState9>
0

>  <apol>
23.91

>  <bpol>
9.49

>  <nRing>
2

>  <nHRing>
1

>  <naRing>
2

>  <naHRing>
1

>  <nARing 2>
0

>  <nAHRing 2>
0

>  <nFRing>
1

>  <nFHRing>
1

>  <nFaRing>
1

>  <nFaHRing>
1

>  <nFARing 2>
0

>  <nFAHRing 2>
0

>  <nRot>
1

>  <SLogP>
1.49

>  <SMR>
49.44

>  <TopoPSA(NO)>
67.51

>  <TopoPSA>
67.51

>  <JGI1>
0.2

>  <JGI2>
0.08

>  <JGI3>
0.05

>  <JGI4>
0.06

>  <JGI5>
0.03

>  <Diameter>
7

>  <Radius>
4

>  <TMWC10>
98.76

>  <TSRW10>
45.92

>  <MW>
190.03

>  <AMW>
9.5

>  <WPath>
283

>  <WPol>
21

>  <Zagreb1>
72

>  <Zagreb2>
84

>  <mZagreb2>
3.08

>  <yes>


>  <nAR-cont>
0.336376

>  <nHA-cont>
0.887625254

>  <MWHBN>
0.290167593

>  <MWHBN-cont>
0.869085578

>  <TPSA-cont>
0.528738279

>  <pka_cont>
0.97

>  <yes.1>


>  <BBB_SCORE>
4.070106179

>  <MMFF94 Energy>
11.149

$$$$
Compound 1821
Actelion Java MolfileCreator 2.0

  0  0  0  0  0  0              0 V3000
M  V30 BEGIN CTAB
M  V30 COUNTS 26 27 0 0 0
M  V30 BEGIN ATOM
M  V30 1 O 2.7044 0.0 -0.6358 0
M  V30 2 C 2.1446 0.9201 -0.0725 0
M  V30 3 O 2.3196 2.1918 -0.4827 0
M  V30 4 C 1.2274 0.8441 1.0879 0
M  V30 5 C 0.4303 -0.2866 1.3047 0
M  V30 6 C 1.1847 1.8979 2.0144 0
M  V30 7 O 0.4063 -1.3548 0.4413 0
M  V30 8 C -0.3542 -0.3869 2.4597 0
M  V30 9 C 0.3762 1.8081 3.1506 0
M  V30 10 C -0.3144 -1.2063 -0.7262 0
M  V30 11 C -0.3861 0.6632 3.3767 0
M  V30 12 C -1.4372 -0.386 -0.8693 0
M  V30 13 C 0.119 -1.9805 -1.8048 0
M  V30 14 C -2.1068 -0.3288 -2.0942 0
M  V30 15 C -0.5502 -1.9215 -3.0276 0
M  V30 16 C -1.6626 -1.0941 -3.1722 0
M  V30 17 H 2.9099 2.0983 -1.2598 0
M  V30 18 H 1.7931 2.7873 1.8653 0
M  V30 19 H -0.9483 -1.2805 2.6343 0
M  V30 20 H 0.3531 2.627 3.866 0
M  V30 21 H -1.0045 0.5875 4.268 0
M  V30 22 H -1.8129 0.2083 -0.0423 0
M  V30 23 H 0.992 -2.6188 -1.6937 0
M  V30 24 H -2.9783 0.311 -2.2058 0
M  V30 25 H -0.2013 -2.5192 -3.8653 0
M  V30 26 H -2.1849 -1.0476 -4.1242 0
M  V30 END ATOM
M  V30 BEGIN BOND
M  V30 1 2 1 2
M  V30 2 1 2 3
M  V30 3 1 2 4
M  V30 4 2 4 5
M  V30 5 1 4 6
M  V30 6 1 5 7
M  V30 7 1 5 8
M  V30 8 2 6 9
M  V30 9 1 7 10
M  V30 10 2 8 11
M  V30 11 2 10 12
M  V30 12 1 10 13
M  V30 13 1 12 14
M  V30 14 2 13 15
M  V30 15 2 14 16
M  V30 16 1 9 11
M  V30 17 1 15 16
M  V30 18 1 3 17
M  V30 19 1 6 18
M  V30 20 1 8 19
M  V30 21 1 9 20
M  V30 22 1 11 21
M  V30 23 1 12 22
M  V30 24 1 13 23
M  V30 25 1 14 24
M  V30 26 1 15 25
M  V30 27 1 16 26
M  V30 END BOND
M  V30 END CTAB
M  END
>  <Column 1>
2227

>  <level_0>
2408

>  <index>
2408

>  <Unnamed: 0>
2408

>  <NO.>
2420

>  <Name>
phenyl-salicylate

>  <IUPAC_name>
2-phenoxybenzoate

>  <SMILES>
O=C(O)c1ccccc1Oc1ccccc1

>  <CID>
75237

>  <logBB>


>  <BBB+/BBB->
BBB+

>  <Inchi>
InChI=1S/C13H10O3/c14-13(15)11-8-4-5-9-12(11)16-10-6-2-1-3-7-10/h1-9H-(H-14-15)

>  <threshold>
-1

>  <reference>
R1|R13|R27|R30|

>  <group>
B

>  <Class>
-1

>  <ABC>
12.16

>  <ABCGG>
10.44

>  <nAcid>
1

>  <nBase>
0

>  <nAromAtom>
12

>  <nAromBond>
12

>  <nAtom>
26

>  <nHeavyAtom>
16

>  <nSpiro>
0

>  <nBridgehead>
0

>  <nHetero>
3

>  <nN>
0

>  <nO>
3

>  <nF>
0

>  <BalabanJ>
1.85

>  <BertzCT>
491.54

>  <nBonds>
27

>  <nBondsO>
17

>  <nBondsS>
14

>  <nBondsD>
1

>  <nBondsT>
0

>  <nBondsA>
12

>  <nBondsM>
13

>  <nBondsKS>
20

>  <nBondsKD>
7

>  <RNCG>
0.3

>  <RPCG>
0.21

>  <FCSP3>
0

>  <SZ>
18.67

>  <Sm>
17.84

>  <Sv>
17.85

>  <Sse>
26.43

>  <Sp>
18.43

>  <Si>
28.7

>  <MZ>
0.72

>  <Mm>
0.69

>  <Mv>
0.69

>  <Mse>
1.02

>  <Mp>
0.71

>  <Mi>
1.1

>  <NsCH3>
0

>  <NdCH2>
0

>  <NssCH2>
0

>  <NtCH>
0

>  <NdsCH>
0

>  <NaaCH>
9

>  <NsssCH>
0

>  <NddC>
0

>  <NtsC>
0

>  <NdssC>
1

>  <NaasC>
3

>  <NaaaC>
0

>  <NssssC>
0

>  <NsNH3>
0

>  <NsNH2>
0

>  <NssNH2>
0

>  <NdNH>
0

>  <NssNH>
0

>  <NaaNH>
0

>  <NtN>
0

>  <NsssNH>
0

>  <NdsN>
0

>  <NaaN>
0

>  <NsssN>
0

>  <NddsN>
0

>  <NaasN>
0

>  <NssssN>
0

>  <NsOH>
1

>  <NdO>
1

>  <NssO>
1

>  <NaaO>
0

>  <NsF>
0

>  <NsSiH3>
0

>  <NssSiH2>
0

>  <NsssSiH>
0

>  <NssssSi>
0

>  <NsPH2>
0

>  <NssPH>
0

>  <NsssP>
0

>  <NdsssP>
0

>  <NsssssP>
0

>  <NsSH>
0

>  <NdS>
0

>  <NssS>
0

>  <NaaS>
0

>  <NdssS>
0

>  <NddssS>
0

>  <NsCl>
0

>  <NsBr>
0

>  <NsI>
0

>  <fragCpx>
49.03

>  <fMF>
0.5

>  <nHBAcc>
2

>  <nHBDon>
1

>  <Kier1>
12.46

>  <Kier2>
6.07

>  <Lipinski>
1

>  <GhoseFilter>
1

>  <FilterItLogS>
-2.67

>  <VMcGowan>
159.82

>  <LabuteASA>
92.92

>  <PEOE_VSA1>
9.84

>  <PEOE_VSA2>
0

>  <PEOE_VSA3>
4.79

>  <PEOE_VSA4>
0

>  <PEOE_VSA5>
0

>  <PEOE_VSA6>
30.33

>  <PEOE_VSA7>
24.27

>  <PEOE_VSA8>
0

>  <PEOE_VSA9>
0

>  <PEOE_VSA10>
17.06

>  <PEOE_VSA11>
0

>  <PEOE_VSA12>
0

>  <PEOE_VSA13>
0

>  <SMR_VSA1>
14.64

>  <SMR_VSA2>
0

>  <SMR_VSA3>
0

>  <SMR_VSA4>
0

>  <SMR_VSA5>
0

>  <SMR_VSA6>
0

>  <SMR_VSA7>
60.16

>  <SMR_VSA8>
0

>  <SMR_VSA9>
11.5

>  <SlogP_VSA1>
4.74

>  <SlogP_VSA2>
11.08

>  <SlogP_VSA3>
0

>  <SlogP_VSA4>
0

>  <SlogP_VSA5>
10.36

>  <SlogP_VSA6>
54.6

>  <SlogP_VSA7>
0

>  <SlogP_VSA8>
0

>  <SlogP_VSA9>
0

>  <SlogP_VSA10>
0

>  <SlogP_VSA11>
11.5

>  <EState_VSA1>
5.97

>  <EState_VSA2>
5.56

>  <EState_VSA3>
11.5

>  <EState_VSA4>
0

>  <EState_VSA5>
6.07

>  <EState_VSA6>
30.33

>  <EState_VSA7>
18.2

>  <EState_VSA8>
0

>  <EState_VSA9>
9.84

>  <EState_VSA10>
4.79

>  <VSA_EState1>
5.49

>  <VSA_EState2>
10.93

>  <VSA_EState3>
8.96

>  <VSA_EState4>
0.16

>  <VSA_EState5>
-0.02

>  <VSA_EState6>
15.65

>  <VSA_EState7>
0

>  <VSA_EState8>
0

>  <VSA_EState9>
0

>  <apol>
30.78

>  <bpol>
12.64

>  <nRing>
2

>  <nHRing>
0

>  <naRing>
2

>  <naHRing>
0

>  <nARing 2>
0

>  <nAHRing 2>
0

>  <nFRing>
0

>  <nFHRing>
0

>  <nFaRing>
0

>  <nFaHRing>
0

>  <nFARing 2>
0

>  <nFAHRing 2>
0

>  <nRot>
3

>  <SLogP>
3.18

>  <SMR>
59.92

>  <TopoPSA(NO)>
46.53

>  <TopoPSA>
46.53

>  <JGI1>
0.15

>  <JGI2>
0.06

>  <JGI3>
0.04

>  <JGI4>
0.04

>  <JGI5>
0.02

>  <Diameter>
8

>  <Radius>
4

>  <TMWC10>
102.21

>  <TSRW10>
47.92

>  <MW>
214.06

>  <AMW>
8.23

>  <WPath>
447

>  <WPol>
21

>  <Zagreb1>
78

>  <Zagreb2>
88

>  <mZagreb2>
3.64

>  <yes>


>  <nAR-cont>
0.336376

>  <nHA-cont>
0.954961865

>  <MWHBN>
0.205047035

>  <MWHBN-cont>
0.999987095

>  <TPSA-cont>
0.675191707

>  <pka_cont>
0.97

>  <yes.1>


>  <BBB_SCORE>
4.626701921

>  <MMFF94 Energy>
40.503

$$$$
Compound 1822
Actelion Java MolfileCreator 2.0

  0  0  0  0  0  0              0 V3000
M  V30 BEGIN CTAB
M  V30 COUNTS 42 45 0 0 0
M  V30 BEGIN ATOM
M  V30 1 F -2.8204 -0.322 -2.1752 0
M  V30 2 C -1.7099 -0.5346 -1.4502 0
M  V30 3 C -1.1132 0.5235 -0.7367 0
M  V30 4 C -1.1666 -1.8146 -1.4779 0
M  V30 5 N -1.6637 1.8035 -0.7247 0
M  V30 6 C 0.0806 0.2246 -0.0507 0
M  V30 7 C 0.0139 -2.074 -0.7818 0
M  V30 8 C -3.0873 1.9448 -0.3556 0
M  V30 9 C -0.8384 2.9878 -0.4358 0
M  V30 10 C 0.6559 -1.0614 -0.0479 0
M  V30 11 C 0.5936 -3.4416 -0.8214 0
M  V30 12 C -3.6738 3.2622 -0.9099 0
M  V30 13 C -1.4994 4.2713 -0.9882 0
M  V30 14 N 1.8519 -1.3666 0.6622 0
M  V30 15 O -0.0365 -4.3538 -1.3446 0
M  V30 16 C 1.918 -3.6406 -0.1872 0
M  V30 17 N -2.8916 4.4583 -0.5407 0
M  V30 18 C 2.4322 -2.6117 0.5039 0
M  V30 19 C 2.5648 -0.3571 1.4675 0
M  V30 20 C 2.705 -4.8771 -0.2507 0
M  V30 21 C 1.9591 0.2266 2.721 0
M  V30 22 C 3.1504 -0.6715 2.8241 0
M  V30 23 O 3.539 -5.2316 0.5669 0
M  V30 24 O 2.4843 -5.5944 -1.3616 0
M  V30 25 H -1.6644 -2.591 -2.0518 0
M  V30 26 H 0.5655 1.0131 0.5144 0
M  V30 27 H -3.706 1.1215 -0.7244 0
M  V30 28 H -3.1691 1.9391 0.7391 0
M  V30 29 H 0.1489 2.895 -0.9043 0
M  V30 30 H -0.6965 3.0837 0.648 0
M  V30 31 H -4.6951 3.3838 -0.5323 0
M  V30 32 H -3.7411 3.1989 -2.0034 0
M  V30 33 H -0.9101 5.139 -0.6719 0
M  V30 34 H -1.4741 4.2498 -2.0853 0
M  V30 35 H -3.2866 5.2683 -1.017 0
M  V30 36 H 3.3975 -2.7093 0.9972 0
M  V30 37 H 3.1455 0.3167 0.8406 0
M  V30 38 H 1.0059 -0.1614 3.062 0
M  V30 39 H 2.1011 1.2845 2.9073 0
M  V30 40 H 4.1052 -0.2255 3.0771 0
M  V30 41 H 2.9942 -1.6546 3.2529 0
M  V30 42 H 3.0495 -6.3876 -1.2699 0
M  V30 END ATOM
M  V30 BEGIN BOND
M  V30 1 1 1 2
M  V30 2 2 2 3
M  V30 3 1 2 4
M  V30 4 1 3 5
M  V30 5 1 3 6
M  V30 6 2 4 7
M  V30 7 1 5 8
M  V30 8 1 5 9
M  V30 9 2 6 10
M  V30 10 1 7 11
M  V30 11 1 8 12
M  V30 12 1 9 13
M  V30 13 1 10 14
M  V30 14 2 11 15
M  V30 15 1 11 16
M  V30 16 1 12 17
M  V30 17 1 14 18
M  V30 18 1 14 19
M  V30 19 1 16 20
M  V30 20 1 19 21
M  V30 21 1 19 22
M  V30 22 2 20 23
M  V30 23 1 20 24
M  V30 24 1 7 10
M  V30 25 1 13 17
M  V30 26 2 16 18
M  V30 27 1 21 22
M  V30 28 1 4 25
M  V30 29 1 6 26
M  V30 30 1 8 27
M  V30 31 1 8 28
M  V30 32 1 9 29
M  V30 33 1 9 30
M  V30 34 1 12 31
M  V30 35 1 12 32
M  V30 36 1 13 33
M  V30 37 1 13 34
M  V30 38 1 17 35
M  V30 39 1 18 36
M  V30 40 1 19 37
M  V30 41 1 21 38
M  V30 42 1 21 39
M  V30 43 1 22 40
M  V30 44 1 22 41
M  V30 45 1 24 42
M  V30 END BOND
M  V30 END CTAB
M  END
>  <Column 1>
2228

>  <level_0>
2409

>  <index>
2409

>  <Unnamed: 0>
2409

>  <NO.>
2421

>  <Name>
ciprofloxacin

>  <IUPAC_name>
1-cyclopropyl-6-fluoro-4-oxo-7-piperazin-1-ylquinoline-3-carboxylic acid

>  <SMILES>
O=C(O)c1cn(C2CC2)c2cc(N3CCNCC3)c(F)cc2c1=O

>  <CID>
2764

>  <logBB>


>  <BBB+/BBB->
BBB-

>  <Inchi>
InChI=1S/C17H18FN3O3/c18-13-7-11-14(8-15(13)20-5-3-19-4-6-20)21(10-1-2-10)9-12(16(11)22)17(23)24/h7-10-19H-1-6H2-(H-23-24)

>  <threshold>
-1

>  <reference>
R1|R13|R19|R28|R9|R14|R23|R24|R27|R27|R30|R36|

>  <group>
B

>  <Class>
1

>  <ABC>
19.21

>  <ABCGG>
15.49

>  <nAcid>
1

>  <nBase>
1

>  <nAromAtom>
10

>  <nAromBond>
11

>  <nAtom>
42

>  <nHeavyAtom>
24

>  <nSpiro>
0

>  <nBridgehead>
0

>  <nHetero>
7

>  <nN>
3

>  <nO>
3

>  <nF>
1

>  <BalabanJ>
1.53

>  <BertzCT>
882.76

>  <nBonds>
45

>  <nBondsO>
27

>  <nBondsS>
32

>  <nBondsD>
2

>  <nBondsT>
0

>  <nBondsA>
11

>  <nBondsM>
13

>  <nBondsKS>
39

>  <nBondsKD>
6

>  <RNCG>
0.21

>  <RPCG>
0.15

>  <FCSP3>
0.41

>  <SZ>
29

>  <Sm>
27.59

>  <Sv>
26.94

>  <Sse>
42.93

>  <Sp>
27.94

>  <Si>
47.79

>  <MZ>
0.69

>  <Mm>
0.66

>  <Mv>
0.64

>  <Mse>
1.02

>  <Mp>
0.67

>  <Mi>
1.14

>  <NsCH3>
0

>  <NdCH2>
0

>  <NssCH2>
6

>  <NtCH>
0

>  <NdsCH>
0

>  <NaaCH>
3

>  <NsssCH>
1

>  <NddC>
0

>  <NtsC>
0

>  <NdssC>
1

>  <NaasC>
3

>  <NaaaC>
2

>  <NssssC>
0

>  <NsNH3>
0

>  <NsNH2>
0

>  <NssNH2>
0

>  <NdNH>
0

>  <NssNH>
1

>  <NaaNH>
0

>  <NtN>
0

>  <NsssNH>
0

>  <NdsN>
0

>  <NaaN>
0

>  <NsssN>
1

>  <NddsN>
0

>  <NaasN>
1

>  <NssssN>
0

>  <NsOH>
1

>  <NdO>
2

>  <NssO>
0

>  <NaaO>
0

>  <NsF>
1

>  <NsSiH3>
0

>  <NssSiH2>
0

>  <NsssSiH>
0

>  <NssssSi>
0

>  <NsPH2>
0

>  <NssPH>
0

>  <NsssP>
0

>  <NdsssP>
0

>  <NsssssP>
0

>  <NsSH>
0

>  <NdS>
0

>  <NssS>
0

>  <NaaS>
0

>  <NdssS>
0

>  <NddssS>
0

>  <NsCl>
0

>  <NsBr>
0

>  <NsI>
0

>  <fragCpx>
177.07

>  <fMF>
0.45

>  <nHBAcc>
5

>  <nHBDon>
2

>  <Kier1>
17.42

>  <Kier2>
6.96

>  <Lipinski>
1

>  <GhoseFilter>
1

>  <FilterItLogS>
-3.05

>  <VMcGowan>
230.46

>  <LabuteASA>
137.04

>  <PEOE_VSA1>
19.89

>  <PEOE_VSA2>
4.79

>  <PEOE_VSA3>
9.18

>  <PEOE_VSA4>
0

>  <PEOE_VSA5>
0

>  <PEOE_VSA6>
0

>  <PEOE_VSA7>
24.97

>  <PEOE_VSA8>
43.8

>  <PEOE_VSA9>
11.2

>  <PEOE_VSA10>
11.38

>  <PEOE_VSA11>
0

>  <PEOE_VSA12>
5.43

>  <PEOE_VSA13>
0

>  <SMR_VSA1>
14.29

>  <SMR_VSA2>
0

>  <SMR_VSA3>
9.88

>  <SMR_VSA4>
0

>  <SMR_VSA5>
18.88

>  <SMR_VSA6>
31.08

>  <SMR_VSA7>
39.93

>  <SMR_VSA8>
0

>  <SMR_VSA9>
0

>  <SlogP_VSA1>
15.65

>  <SlogP_VSA2>
41.82

>  <SlogP_VSA3>
0

>  <SlogP_VSA4>
5.82

>  <SlogP_VSA5>
29.24

>  <SlogP_VSA6>
23.12

>  <SlogP_VSA7>
0

>  <SlogP_VSA8>
10.9

>  <SlogP_VSA9>
0

>  <SlogP_VSA10>
10.08

>  <SlogP_VSA11>
0

>  <EState_VSA1>
17.22

>  <EState_VSA2>
16.99

>  <EState_VSA3>
24.29

>  <EState_VSA4>
25.93

>  <EState_VSA5>
12.26

>  <EState_VSA6>
6.07

>  <EState_VSA7>
9.47

>  <EState_VSA8>
5.32

>  <EState_VSA9>
0

>  <EState_VSA10>
19.09

>  <VSA_EState1>
16.43

>  <VSA_EState2>
25.71

>  <VSA_EState3>
12.62

>  <VSA_EState4>
0.16

>  <VSA_EState5>
-1.76

>  <VSA_EState6>
3.08

>  <VSA_EState7>
3.29

>  <VSA_EState8>
2.96

>  <VSA_EState9>
0

>  <apol>
46.66

>  <bpol>
24.9

>  <nRing>
4

>  <nHRing>
2

>  <naRing>
2

>  <naHRing>
1

>  <nARing 2>
2

>  <nAHRing 2>
1

>  <nFRing>
1

>  <nFHRing>
1

>  <nFaRing>
1

>  <nFaHRing>
1

>  <nFARing 2>
0

>  <nFAHRing 2>
0

>  <nRot>
3

>  <SLogP>
1.58

>  <SMR>
88.48

>  <TopoPSA(NO)>
74.57

>  <TopoPSA>
74.57

>  <JGI1>
0.17

>  <JGI2>
0.08

>  <JGI3>
0.04

>  <JGI4>
0.04

>  <JGI5>
0.03

>  <Diameter>
11

>  <Radius>
6

>  <TMWC10>
128.01

>  <TSRW10>
77.68

>  <MW>
331.13

>  <AMW>
7.88

>  <WPath>
1234

>  <WPol>
43

>  <Zagreb1>
134

>  <Zagreb2>
164

>  <mZagreb2>
5.14

>  <yes>


>  <nAR-cont>
1

>  <nHA-cont>
0.94700071

>  <MWHBN>
0.384679263

>  <MWHBN-cont>
0.536417624

>  <TPSA-cont>
0.479455095

>  <pka_cont>
0.97

>  <yes.1>


>  <BBB_SCORE>
4.195537336

>  <MMFF94 Energy>
107.38

$$$$
Compound 1823
Actelion Java MolfileCreator 2.0

  0  0  0  0  0  0              0 V3000
M  V30 BEGIN CTAB
M  V30 COUNTS 34 36 0 0 0
M  V30 BEGIN ATOM
M  V30 1 O -1.765 -0.8822 1.5241 0
M  V30 2 C -1.5436 -0.511 0.3826 0
M  V30 3 O -0.3394 -0.5297 -0.2391 0
M  V30 4 C -2.5898 0.0369 -0.523 0
M  V30 5 C 0.7638 -1.0232 0.5438 0 CFG=2
M  V30 6 C -3.9032 0.123 -0.0404 0
M  V30 7 C -2.3067 0.4668 -1.8271 0
M  V30 8 C 1.318 0.0903 1.4594 0
M  V30 9 C 1.8929 -1.4703 -0.4174 0
M  V30 10 C -4.92 0.6314 -0.8512 0
M  V30 11 C -3.327 0.9749 -2.6352 0
M  V30 12 C 2.5261 -0.4851 2.2132 0
M  V30 13 C 1.8279 1.2478 0.5824 0
M  V30 14 N 3.1568 -0.7208 -0.196 0
M  V30 15 C -4.6309 1.0565 -2.1471 0
M  V30 16 C 3.5953 -0.9304 1.2017 0
M  V30 17 C 2.8848 0.7192 -0.4 0
M  V30 18 H 0.4452 -1.8914 1.1358 0
M  V30 19 H -4.1394 -0.206 0.97 0
M  V30 20 H -1.2978 0.4127 -2.2284 0
M  V30 21 H 0.5558 0.4568 2.1545 0
M  V30 22 H 2.0912 -2.5401 -0.2725 0
M  V30 23 H 1.5847 -1.3665 -1.4655 0
M  V30 24 H -5.9367 0.6952 -0.471 0
M  V30 25 H -3.1042 1.3071 -3.6463 0
M  V30 26 H 2.9441 0.2708 2.8886 0
M  V30 27 H 2.2147 -1.3363 2.8302 0
M  V30 28 H 0.9998 1.709 0.0318 0
M  V30 29 H 2.2664 2.0287 1.2155 0
M  V30 30 H -5.4234 1.4522 -2.778 0
M  V30 31 H 4.5306 -0.3852 1.381 0
M  V30 32 H 3.8385 -1.9888 1.3579 0
M  V30 33 H 3.8151 1.2905 -0.2906 0
M  V30 34 H 2.5551 0.8905 -1.4325 0
M  V30 END ATOM
M  V30 BEGIN BOND
M  V30 1 2 1 2
M  V30 2 1 2 3
M  V30 3 1 2 4
M  V30 4 1 3 5
M  V30 5 2 4 6
M  V30 6 1 4 7
M  V30 7 1 5 8
M  V30 8 1 5 9
M  V30 9 1 6 10
M  V30 10 2 7 11
M  V30 11 1 8 12
M  V30 12 1 8 13
M  V30 13 1 9 14
M  V30 14 2 10 15
M  V30 15 1 12 16
M  V30 16 1 13 17
M  V30 17 1 11 15
M  V30 18 1 14 16
M  V30 19 1 14 17
M  V30 20 1 5 18
M  V30 21 1 6 19
M  V30 22 1 7 20
M  V30 23 1 8 21
M  V30 24 1 9 22
M  V30 25 1 9 23
M  V30 26 1 10 24
M  V30 27 1 11 25
M  V30 28 1 12 26
M  V30 29 1 12 27
M  V30 30 1 13 28
M  V30 31 1 13 29
M  V30 32 1 15 30
M  V30 33 1 16 31
M  V30 34 1 16 32
M  V30 35 1 17 33
M  V30 36 1 17 34
M  V30 END BOND
M  V30 BEGIN COLLECTION
M  V30 MDLV30/STERAC1 ATOMS=(1 5)
M  V30 END COLLECTION
M  V30 END CTAB
M  END
>  <Column 1>
2229

>  <level_0>
2410

>  <index>
2410

>  <Unnamed: 0>
2410

>  <NO.>
2422

>  <Name>
benzoclidine

>  <IUPAC_name>
1-azabicyclo[2.2.2]octan-3-yl benzoate

>  <SMILES>
O=C(OC1CN2CCC1CC2)c1ccccc1

>  <CID>
65630

>  <logBB>


>  <BBB+/BBB->
BBB+

>  <Inchi>
InChI=1S/C14H17NO2/c16-14(12-4-2-1-3-5-12)17-13-10-15-8-6-11(13)7-9-15/h1-5-11-13H-6-10H2

>  <threshold>
-1

>  <reference>
R1|R13|R19|R6|R27|R27|R30|

>  <group>
B

>  <Class>
1

>  <ABC>
13.46

>  <ABCGG>
10.95

>  <nAcid>
0

>  <nBase>
1

>  <nAromAtom>
6

>  <nAromBond>
6

>  <nAtom>
34

>  <nHeavyAtom>
17

>  <nSpiro>
0

>  <nBridgehead>
2

>  <nHetero>
3

>  <nN>
1

>  <nO>
2

>  <nF>
0

>  <BalabanJ>
1.52

>  <BertzCT>
395.94

>  <nBonds>
36

>  <nBondsO>
19

>  <nBondsS>
29

>  <nBondsD>
1

>  <nBondsT>
0

>  <nBondsA>
6

>  <nBondsM>
7

>  <nBondsKS>
32

>  <nBondsKD>
4

>  <RNCG>
0.34

>  <RPCG>
0.25

>  <FCSP3>
0.5

>  <SZ>
20.67

>  <Sm>
19.26

>  <Sv>
20.79

>  <Sse>
33.87

>  <Sp>
22.41

>  <Si>
38.24

>  <MZ>
0.61

>  <Mm>
0.57

>  <Mv>
0.61

>  <Mse>
1

>  <Mp>
0.66

>  <Mi>
1.12

>  <NsCH3>
0

>  <NdCH2>
0

>  <NssCH2>
5

>  <NtCH>
0

>  <NdsCH>
0

>  <NaaCH>
5

>  <NsssCH>
2

>  <NddC>
0

>  <NtsC>
0

>  <NdssC>
1

>  <NaasC>
1

>  <NaaaC>
0

>  <NssssC>
0

>  <NsNH3>
0

>  <NsNH2>
0

>  <NssNH2>
0

>  <NdNH>
0

>  <NssNH>
0

>  <NaaNH>
0

>  <NtN>
0

>  <NsssNH>
0

>  <NdsN>
0

>  <NaaN>
0

>  <NsssN>
1

>  <NddsN>
0

>  <NaasN>
0

>  <NssssN>
0

>  <NsOH>
0

>  <NdO>
1

>  <NssO>
1

>  <NaaO>
0

>  <NsF>
0

>  <NsSiH3>
0

>  <NssSiH2>
0

>  <NsssSiH>
0

>  <NssssSi>
0

>  <NsPH2>
0

>  <NssPH>
0

>  <NsssP>
0

>  <NdsssP>
0

>  <NsssssP>
0

>  <NsSH>
0

>  <NdS>
0

>  <NssS>
0

>  <NaaS>
0

>  <NdssS>
0

>  <NddssS>
0

>  <NsCl>
0

>  <NsBr>
0

>  <NsI>
0

>  <fragCpx>
89.03

>  <fMF>
0.47

>  <nHBAcc>
3

>  <nHBDon>
0

>  <Kier1>
12.06

>  <Kier2>
5.33

>  <Lipinski>
1

>  <GhoseFilter>
1

>  <FilterItLogS>
-2.15

>  <VMcGowan>
180.06

>  <LabuteASA>
101.37

>  <PEOE_VSA1>
4.74

>  <PEOE_VSA2>
4.9

>  <PEOE_VSA3>
4.79

>  <PEOE_VSA4>
0

>  <PEOE_VSA5>
0

>  <PEOE_VSA6>
18.2

>  <PEOE_VSA7>
43.98

>  <PEOE_VSA8>
6.54

>  <PEOE_VSA9>
5.56

>  <PEOE_VSA10>
6.1

>  <PEOE_VSA11>
0

>  <PEOE_VSA12>
0

>  <PEOE_VSA13>
0

>  <SMR_VSA1>
9.53

>  <SMR_VSA2>
0

>  <SMR_VSA3>
4.9

>  <SMR_VSA4>
5.92

>  <SMR_VSA5>
18.95

>  <SMR_VSA6>
19.63

>  <SMR_VSA7>
35.9

>  <SMR_VSA8>
0

>  <SMR_VSA9>
0

>  <SlogP_VSA1>
0

>  <SlogP_VSA2>
36.61

>  <SlogP_VSA3>
4.74

>  <SlogP_VSA4>
5.92

>  <SlogP_VSA5>
23.2

>  <SlogP_VSA6>
30.33

>  <SlogP_VSA7>
0

>  <SlogP_VSA8>
0

>  <SlogP_VSA9>
0

>  <SlogP_VSA10>
0

>  <SlogP_VSA11>
0

>  <EState_VSA1>
0

>  <EState_VSA2>
12.07

>  <EState_VSA3>
11.48

>  <EState_VSA4>
6.54

>  <EState_VSA5>
25.93

>  <EState_VSA6>
0

>  <EState_VSA7>
30.33

>  <EState_VSA8>
4.9

>  <EState_VSA9>
4.74

>  <EState_VSA10>
4.79

>  <VSA_EState1>
5.63

>  <VSA_EState2>
14.34

>  <VSA_EState3>
0

>  <VSA_EState4>
0.66

>  <VSA_EState5>
0.4

>  <VSA_EState6>
9.26

>  <VSA_EState7>
2.45

>  <VSA_EState8>
3.26

>  <VSA_EState9>
0

>  <apol>
37.42

>  <bpol>
21.37

>  <nRing>
4

>  <nHRing>
3

>  <naRing>
1

>  <naHRing>
0

>  <nARing 2>
3

>  <nAHRing 2>
3

>  <nFRing>
1

>  <nFHRing>
1

>  <nFaRing>
0

>  <nFaHRing>
0

>  <nFARing 2>
1

>  <nFAHRing 2>
1

>  <nRot>
2

>  <SLogP>
1.94

>  <SMR>
64.81

>  <TopoPSA(NO)>
29.54

>  <TopoPSA>
29.54

>  <JGI1>
0.16

>  <JGI2>
0.07

>  <JGI3>
0.03

>  <JGI4>
0.04

>  <JGI5>
0.02

>  <Diameter>
9

>  <Radius>
5

>  <TMWC10>
107.46

>  <TSRW10>
50.04

>  <MW>
231.13

>  <AMW>
6.8

>  <WPath>
532

>  <WPol>
23

>  <Zagreb1>
90

>  <Zagreb2>
105

>  <mZagreb2>
3.72

>  <yes>


>  <nAR-cont>
0.691115

>  <nHA-cont>
0.976740822

>  <MWHBN>
0.197329991

>  <MWHBN-cont>
0.998983896

>  <TPSA-cont>
0.793792457

>  <pka_cont>
0.97

>  <yes.1>


>  <BBB_SCORE>
5.238916579

>  <MMFF94 Energy>
65.405

$$$$
Compound 1824
Actelion Java MolfileCreator 2.0

  0  0  0  0  0  0              0 V3000
M  V30 BEGIN CTAB
M  V30 COUNTS 18 17 0 0 0
M  V30 BEGIN ATOM
M  V30 1 Cl -1.7489 -2.1174 -3.1311 0
M  V30 2 C -2.2641 -0.4406 -2.7723 0
M  V30 3 Cl -2.6642 0.3733 -4.3195 0
M  V30 4 Cl -3.7387 -0.4841 -1.7576 0
M  V30 5 C -1.1405 0.3338 -2.0651 0
M  V30 6 O -0.7808 -0.2809 -0.8127 0
M  V30 7 C 0.2057 0.3593 -0.1445 0
M  V30 8 O 0.7795 1.3703 -0.5152 0
M  V30 9 O 0.4478 -0.3119 1.0045 0
M  V30 10 C 1.4855 0.2676 1.8189 0
M  V30 11 C 1.7105 -0.5409 3.1066 0
M  V30 12 Cl 0.2189 -0.584 4.0961 0
M  V30 13 Cl 3.0101 0.23 4.0728 0
M  V30 14 Cl 2.2087 -2.2172 2.7227 0
M  V30 15 H -0.2496 0.3678 -2.7063 0
M  V30 16 H -1.4641 1.3646 -1.868 0
M  V30 17 H 1.1984 1.2975 2.0701 0
M  V30 18 H 2.4129 0.3006 1.2317 0
M  V30 END ATOM
M  V30 BEGIN BOND
M  V30 1 1 1 2
M  V30 2 1 2 3
M  V30 3 1 2 4
M  V30 4 1 2 5
M  V30 5 1 5 6
M  V30 6 1 6 7
M  V30 7 2 7 8
M  V30 8 1 7 9
M  V30 9 1 9 10
M  V30 10 1 10 11
M  V30 11 1 11 12
M  V30 12 1 11 13
M  V30 13 1 11 14
M  V30 14 1 5 15
M  V30 15 1 5 16
M  V30 16 1 10 17
M  V30 17 1 10 18
M  V30 END BOND
M  V30 END CTAB
M  END
>  <Column 1>
2230

>  <level_0>
2411

>  <index>
2411

>  <Unnamed: 0>
2411

>  <NO.>
2423

>  <Name>
clorethate

>  <IUPAC_name>
bis(2-2-2-trichloroethyl) carbonate

>  <SMILES>
O=C(OCC(Cl)(Cl)Cl)OCC(Cl)(Cl)Cl

>  <CID>
21851

>  <logBB>


>  <BBB+/BBB->
BBB+

>  <Inchi>
InChI=1S/C5H4Cl6O3/c6-4(7-8)1-13-3(12)14-2-5(9-10)11/h1-2H2

>  <threshold>
-1

>  <reference>
R1|R13|R19|R6|R24|R27|R27|R27|R30|R30|

>  <group>
B

>  <Class>
1

>  <ABC>
10.26

>  <ABCGG>
9.85

>  <nAcid>
0

>  <nBase>
0

>  <nAromAtom>
0

>  <nAromBond>
0

>  <nAtom>
18

>  <nHeavyAtom>
14

>  <nSpiro>
0

>  <nBridgehead>
0

>  <nHetero>
9

>  <nN>
0

>  <nO>
3

>  <nF>
0

>  <BalabanJ>
3.62

>  <BertzCT>
174.62

>  <nBonds>
17

>  <nBondsO>
13

>  <nBondsS>
16

>  <nBondsD>
1

>  <nBondsT>
0

>  <nBondsA>
0

>  <nBondsM>
1

>  <nBondsKS>
16

>  <nBondsKD>
1

>  <RNCG>
0.28

>  <RPCG>
0.33

>  <FCSP3>
0.8

>  <SZ>
26.67

>  <Sm>
27.04

>  <Sv>
14.77

>  <Sse>
20.36

>  <Sp>
15.87

>  <Si>
20.37

>  <MZ>
1.48

>  <Mm>
1.5

>  <Mv>
0.82

>  <Mse>
1.13

>  <Mp>
0.88

>  <Mi>
1.13

>  <NsCH3>
0

>  <NdCH2>
0

>  <NssCH2>
2

>  <NtCH>
0

>  <NdsCH>
0

>  <NaaCH>
0

>  <NsssCH>
0

>  <NddC>
0

>  <NtsC>
0

>  <NdssC>
1

>  <NaasC>
0

>  <NaaaC>
0

>  <NssssC>
2

>  <NsNH3>
0

>  <NsNH2>
0

>  <NssNH2>
0

>  <NdNH>
0

>  <NssNH>
0

>  <NaaNH>
0

>  <NtN>
0

>  <NsssNH>
0

>  <NdsN>
0

>  <NaaN>
0

>  <NsssN>
0

>  <NddsN>
0

>  <NaasN>
0

>  <NssssN>
0

>  <NsOH>
0

>  <NdO>
1

>  <NssO>
2

>  <NaaO>
0

>  <NsF>
0

>  <NsSiH3>
0

>  <NssSiH2>
0

>  <NsssSiH>
0

>  <NssssSi>
0

>  <NsPH2>
0

>  <NssPH>
0

>  <NsssP>
0

>  <NdsssP>
0

>  <NsssssP>
0

>  <NsSH>
0

>  <NdS>
0

>  <NssS>
0

>  <NaaS>
0

>  <NdssS>
0

>  <NddssS>
0

>  <NsCl>
6

>  <NsBr>
0

>  <NsI>
0

>  <fragCpx>
13.09

>  <fMF>
0

>  <nHBAcc>
3

>  <nHBDon>
0

>  <Kier1>
14

>  <Kier2>
5.19

>  <Lipinski>
1

>  <GhoseFilter>
0

>  <FilterItLogS>
-3.89

>  <VMcGowan>
168.06

>  <LabuteASA>
110.41

>  <PEOE_VSA1>
9.47

>  <PEOE_VSA2>
0

>  <PEOE_VSA3>
4.79

>  <PEOE_VSA4>
0

>  <PEOE_VSA5>
0

>  <PEOE_VSA6>
69.61

>  <PEOE_VSA7>
0

>  <PEOE_VSA8>
0

>  <PEOE_VSA9>
0

>  <PEOE_VSA10>
13.21

>  <PEOE_VSA11>
0

>  <PEOE_VSA12>
7.59

>  <PEOE_VSA13>
0

>  <SMR_VSA1>
14.27

>  <SMR_VSA2>
0

>  <SMR_VSA3>
0

>  <SMR_VSA4>
0

>  <SMR_VSA5>
7.59

>  <SMR_VSA6>
13.21

>  <SMR_VSA7>
0

>  <SMR_VSA8>
0

>  <SMR_VSA9>
0

>  <SlogP_VSA1>
0

>  <SlogP_VSA2>
26.95

>  <SlogP_VSA3>
9.47

>  <SlogP_VSA4>
0

>  <SlogP_VSA5>
0

>  <SlogP_VSA6>
0

>  <SlogP_VSA7>
0

>  <SlogP_VSA8>
0

>  <SlogP_VSA9>
0

>  <SlogP_VSA10>
4.79

>  <SlogP_VSA11>
0

>  <EState_VSA1>
26.95

>  <EState_VSA2>
0

>  <EState_VSA3>
0

>  <EState_VSA4>
0

>  <EState_VSA5>
0

>  <EState_VSA6>
0

>  <EState_VSA7>
0

>  <EState_VSA8>
9.47

>  <EState_VSA9>
69.61

>  <EState_VSA10>
4.79

>  <VSA_EState1>
5.35

>  <VSA_EState2>
10.74

>  <VSA_EState3>
0

>  <VSA_EState4>
0

>  <VSA_EState5>
0

>  <VSA_EState6>
0

>  <VSA_EState7>
-1.08

>  <VSA_EState8>
-0.9

>  <VSA_EState9>
0

>  <apol>
26.5

>  <bpol>
11.41

>  <nRing>
0

>  <nHRing>
0

>  <naRing>
0

>  <naHRing>
0

>  <nARing 2>
0

>  <nAHRing 2>
0

>  <nFRing>
0

>  <nFHRing>
0

>  <nFaRing>
0

>  <nFaHRing>
0

>  <nFARing 2>
0

>  <nFAHRing 2>
0

>  <nRot>
2

>  <SLogP>
3.88

>  <SMR>
57.88

>  <TopoPSA(NO)>
35.53

>  <TopoPSA>
35.53

>  <JGI1>
0.5

>  <JGI2>
0.08

>  <JGI3>
0.05

>  <JGI4>
0.08

>  <JGI5>
0.02

>  <Diameter>
8

>  <Radius>
4

>  <TMWC10>
92.18

>  <TSRW10>
44.6

>  <MW>
321.83

>  <AMW>
17.88

>  <WPath>
357

>  <WPol>
12

>  <Zagreb1>
64

>  <Zagreb2>
63

>  <mZagreb2>
2.92

>  <yes>


>  <nAR-cont>
0.336376

>  <nHA-cont>
0.887625254

>  <MWHBN>
0.167227614

>  <MWHBN-cont>
0.969440127

>  <TPSA-cont>
0.751978537

>  <pka_cont>
0.97

>  <yes.1>


>  <BBB_SCORE>
4.667118518

>  <MMFF94 Energy>
6.2256

$$$$
Compound 1825
Actelion Java MolfileCreator 2.0

  0  0  0  0  0  0              0 V3000
M  V30 BEGIN CTAB
M  V30 COUNTS 50 52 0 0 0
M  V30 BEGIN ATOM
M  V30 1 O -2.309 0.7957 0.7161 0
M  V30 2 C -1.2686 0.9999 0.1001 0
M  V30 3 O -0.8333 0.2163 -0.9372 0
M  V30 4 C -0.1963 2.0979 0.4139 0
M  V30 5 C -1.6644 -0.9158 -1.2293 0
M  V30 6 O 0.5516 2.338 -0.8021 0
M  V30 7 C 0.8424 1.6292 1.4509 0
M  V30 8 C -0.8827 3.409 0.8339 0
M  V30 9 C -0.9328 -1.8345 -2.2229 0
M  V30 10 C 0.6283 0.5277 2.2994 0
M  V30 11 C 2.0522 2.3395 1.5893 0
M  V30 12 C -0.9339 4.5217 -0.0257 0
M  V30 13 C -1.5028 3.5249 2.0932 0
M  V30 14 N 0.4123 -2.2635 -1.7879 0
M  V30 15 C 1.5946 0.143 3.2337 0
M  V30 16 C 3.0155 1.9538 2.5232 0
M  V30 17 C -1.5685 5.7049 0.3618 0
M  V30 18 C -2.1376 4.7081 2.4793 0
M  V30 19 C 1.1434 -2.9431 -2.8699 0
M  V30 20 C 0.4212 -3.085 -0.5691 0
M  V30 21 C 2.787 0.8535 3.3435 0
M  V30 22 C -2.169 5.7979 1.6141 0
M  V30 23 C 0.6392 -4.3582 -3.1665 0
M  V30 24 C -0.1217 -4.501 -0.7735 0
M  V30 25 C 0.6126 -5.2142 -1.9043 0
M  V30 26 H -2.593 -0.5576 -1.689 0
M  V30 27 H -1.9158 -1.4592 -0.3118 0
M  V30 28 H 0.8143 1.4493 -1.1117 0
M  V30 29 H -1.5781 -2.6882 -2.4567 0
M  V30 30 H -0.8141 -1.2579 -3.1496 0
M  V30 31 H -0.2943 -0.0476 2.2615 0
M  V30 32 H 2.2456 3.2086 0.9609 0
M  V30 33 H -0.4733 4.4793 -1.011 0
M  V30 34 H -1.5032 2.6866 2.7876 0
M  V30 35 H 1.412 -0.7109 3.8814 0
M  V30 36 H 3.9413 2.5165 2.6099 0
M  V30 37 H -1.5924 6.5531 -0.3172 0
M  V30 38 H -2.6099 4.775 3.456 0
M  V30 39 H 2.2035 -2.9956 -2.5888 0
M  V30 40 H 1.1167 -2.3403 -3.786 0
M  V30 41 H -0.1196 -2.5924 0.2457 0
M  V30 42 H 1.4579 -3.1542 -0.2129 0
M  V30 43 H 3.5352 0.5535 4.0723 0
M  V30 44 H -2.6631 6.7179 1.9145 0
M  V30 45 H 1.288 -4.8292 -3.9139 0
M  V30 46 H -0.3651 -4.3172 -3.6043 0
M  V30 47 H -1.1954 -4.467 -0.9926 0
M  V30 48 H -0.0082 -5.0746 0.1536 0
M  V30 49 H 0.1361 -6.1783 -2.1133 0
M  V30 50 H 1.6418 -5.4272 -1.5898 0
M  V30 END ATOM
M  V30 BEGIN BOND
M  V30 1 2 1 2
M  V30 2 1 2 3
M  V30 3 1 2 4
M  V30 4 1 3 5
M  V30 5 1 4 6
M  V30 6 1 4 7
M  V30 7 1 4 8
M  V30 8 1 5 9
M  V30 9 2 7 10
M  V30 10 1 7 11
M  V30 11 2 8 12
M  V30 12 1 8 13
M  V30 13 1 9 14
M  V30 14 1 10 15
M  V30 15 2 11 16
M  V30 16 1 12 17
M  V30 17 2 13 18
M  V30 18 1 14 19
M  V30 19 1 14 20
M  V30 20 2 15 21
M  V30 21 2 17 22
M  V30 22 1 19 23
M  V30 23 1 20 24
M  V30 24 1 23 25
M  V30 25 1 16 21
M  V30 26 1 18 22
M  V30 27 1 24 25
M  V30 28 1 5 26
M  V30 29 1 5 27
M  V30 30 1 6 28
M  V30 31 1 9 29
M  V30 32 1 9 30
M  V30 33 1 10 31
M  V30 34 1 11 32
M  V30 35 1 12 33
M  V30 36 1 13 34
M  V30 37 1 15 35
M  V30 38 1 16 36
M  V30 39 1 17 37
M  V30 40 1 18 38
M  V30 41 1 19 39
M  V30 42 1 19 40
M  V30 43 1 20 41
M  V30 44 1 20 42
M  V30 45 1 21 43
M  V30 46 1 22 44
M  V30 47 1 23 45
M  V30 48 1 23 46
M  V30 49 1 24 47
M  V30 50 1 24 48
M  V30 51 1 25 49
M  V30 52 1 25 50
M  V30 END BOND
M  V30 END CTAB
M  END
>  <Column 1>
2231

>  <level_0>
2412

>  <index>
2412

>  <Unnamed: 0>
2412

>  <NO.>
2424

>  <Name>
piperilate

>  <IUPAC_name>
2-piperidin-1-ylethyl 2-hydroxy-2-2-diphenylacetate

>  <SMILES>
O=C(OCCN1CCCCC1)C(O)(c1ccccc1)c1ccccc1

>  <CID>
20674

>  <logBB>


>  <BBB+/BBB->
BBB+

>  <Inchi>
InChI=1S/C21H25NO3/c23-20(25-17-16-22-14-8-3-9-15-22)21(24-18-10-4-1-5-11-18)19-12-6-2-7-13-19/h1-2-4-7-10-13-24H-3-8-9-14-17H2

>  <threshold>
-1

>  <reference>
R1|R13|R19|R6|R24|R27|R27|R27|R30|R30|

>  <group>
B

>  <Class>
1

>  <ABC>
19.18

>  <ABCGG>
15.56

>  <nAcid>
0

>  <nBase>
1

>  <nAromAtom>
12

>  <nAromBond>
12

>  <nAtom>
50

>  <nHeavyAtom>
25

>  <nSpiro>
0

>  <nBridgehead>
0

>  <nHetero>
4

>  <nN>
1

>  <nO>
3

>  <nF>
0

>  <BalabanJ>
1.58

>  <BertzCT>
626.56

>  <nBonds>
52

>  <nBondsO>
27

>  <nBondsS>
39

>  <nBondsD>
1

>  <nBondsT>
0

>  <nBondsA>
12

>  <nBondsM>
13

>  <nBondsKS>
45

>  <nBondsKD>
7

>  <RNCG>
0.22

>  <RPCG>
0.16

>  <FCSP3>
0.38

>  <SZ>
30.33

>  <Sm>
28.26

>  <Sv>
30.68

>  <Sse>
49.75

>  <Sp>
33.08

>  <Si>
56.11

>  <MZ>
0.61

>  <Mm>
0.57

>  <Mv>
0.61

>  <Mse>
1

>  <Mp>
0.66

>  <Mi>
1.12

>  <NsCH3>
0

>  <NdCH2>
0

>  <NssCH2>
7

>  <NtCH>
0

>  <NdsCH>
0

>  <NaaCH>
10

>  <NsssCH>
0

>  <NddC>
0

>  <NtsC>
0

>  <NdssC>
1

>  <NaasC>
2

>  <NaaaC>
0

>  <NssssC>
1

>  <NsNH3>
0

>  <NsNH2>
0

>  <NssNH2>
0

>  <NdNH>
0

>  <NssNH>
0

>  <NaaNH>
0

>  <NtN>
0

>  <NsssNH>
0

>  <NdsN>
0

>  <NaaN>
0

>  <NsssN>
1

>  <NddsN>
0

>  <NaasN>
0

>  <NssssN>
0

>  <NsOH>
1

>  <NdO>
1

>  <NssO>
1

>  <NaaO>
0

>  <NsF>
0

>  <NsSiH3>
0

>  <NssSiH2>
0

>  <NsssSiH>
0

>  <NssssSi>
0

>  <NsPH2>
0

>  <NssPH>
0

>  <NsssP>
0

>  <NdsssP>
0

>  <NsssssP>
0

>  <NsSH>
0

>  <NdS>
0

>  <NssS>
0

>  <NaaS>
0

>  <NdssS>
0

>  <NddssS>
0

>  <NsCl>
0

>  <NsBr>
0

>  <NsI>
0

>  <fragCpx>
129.04

>  <fMF>
0.46

>  <nHBAcc>
4

>  <nHBDon>
1

>  <Kier1>
19.75

>  <Kier2>
9.8

>  <Lipinski>
1

>  <GhoseFilter>
1

>  <FilterItLogS>
-4.06

>  <VMcGowan>
271.66

>  <LabuteASA>
148.6

>  <PEOE_VSA1>
9.84

>  <PEOE_VSA2>
4.9

>  <PEOE_VSA3>
4.79

>  <PEOE_VSA4>
0

>  <PEOE_VSA5>
0

>  <PEOE_VSA6>
67.08

>  <PEOE_VSA7>
37.06

>  <PEOE_VSA8>
6.54

>  <PEOE_VSA9>
0

>  <PEOE_VSA10>
6.61

>  <PEOE_VSA11>
0

>  <PEOE_VSA12>
5.6

>  <PEOE_VSA13>
0

>  <SMR_VSA1>
14.64

>  <SMR_VSA2>
0

>  <SMR_VSA3>
4.9

>  <SMR_VSA4>
0

>  <SMR_VSA5>
24.86

>  <SMR_VSA6>
26.24

>  <SMR_VSA7>
71.79

>  <SMR_VSA8>
0

>  <SMR_VSA9>
0

>  <SlogP_VSA1>
0

>  <SlogP_VSA2>
42.22

>  <SlogP_VSA3>
15.13

>  <SlogP_VSA4>
0

>  <SlogP_VSA5>
30.39

>  <SlogP_VSA6>
60.66

>  <SlogP_VSA7>
0

>  <SlogP_VSA8>
0

>  <SlogP_VSA9>
0

>  <SlogP_VSA10>
0

>  <SlogP_VSA11>
0

>  <EState_VSA1>
11.57

>  <EState_VSA2>
0

>  <EState_VSA3>
24.28

>  <EState_VSA4>
13.09

>  <EState_VSA5>
19.26

>  <EState_VSA6>
24.27

>  <EState_VSA7>
36.4

>  <EState_VSA8>
4.9

>  <EState_VSA9>
4.74

>  <EState_VSA10>
9.9

>  <VSA_EState1>
5.49

>  <VSA_EState2>
15.12

>  <VSA_EState3>
11.27

>  <VSA_EState4>
-0.75

>  <VSA_EState5>
-0.62

>  <VSA_EState6>
17.95

>  <VSA_EState7>
3.68

>  <VSA_EState8>
3.12

>  <VSA_EState9>
0

>  <apol>
55.25

>  <bpol>
29.39

>  <nRing>
3

>  <nHRing>
1

>  <naRing>
2

>  <naHRing>
0

>  <nARing 2>
1

>  <nAHRing 2>
1

>  <nFRing>
0

>  <nFHRing>
0

>  <nFaRing>
0

>  <nFaHRing>
0

>  <nFARing 2>
0

>  <nFAHRing 2>
0

>  <nRot>
6

>  <SLogP>
2.95

>  <SMR>
97.13

>  <TopoPSA(NO)>
49.77

>  <TopoPSA>
49.77

>  <JGI1>
0.15

>  <JGI2>
0.09

>  <JGI3>
0.06

>  <JGI4>
0.03

>  <JGI5>
0.01

>  <Diameter>
12

>  <Radius>
6

>  <TMWC10>
126.81

>  <TSRW10>
59.65

>  <MW>
339.18

>  <AMW>
6.78

>  <WPath>
1544

>  <WPol>
39

>  <Zagreb1>
126

>  <Zagreb2>
147

>  <mZagreb2>
5.67

>  <yes>


>  <nAR-cont>
0.816016

>  <nHA-cont>
0.921834225

>  <MWHBN>
0.271490656

>  <MWHBN-cont>
0.916696837

>  <TPSA-cont>
0.652574495

>  <pka_cont>
0.97

>  <yes.1>


>  <BBB_SCORE>
4.90304447

>  <MMFF94 Energy>
133.22

$$$$
Compound 1826
Actelion Java MolfileCreator 2.0

  0  0  0  0  0  0              0 V3000
M  V30 BEGIN CTAB
M  V30 COUNTS 44 47 0 0 0
M  V30 BEGIN ATOM
M  V30 1 O -2.8837 0.4001 3.0441 0
M  V30 2 C -1.7977 0.4716 2.4646 0
M  V30 3 N -1.7452 0.7803 1.1075 0
M  V30 4 C -0.5626 0.2234 3.1875 0
M  V30 5 C -2.9607 0.7141 0.3002 0
M  V30 6 C -0.5679 1.1983 0.3435 0
M  V30 7 O 0.5232 -0.3226 2.5533 0
M  V30 8 C -0.2833 0.3565 4.5374 0
M  V30 9 C -2.738 -0.1888 -0.9312 0
M  V30 10 C -0.3514 0.2675 -0.863 0
M  V30 11 C 1.4987 -0.4908 3.4864 0
M  V30 12 C 1.0496 -0.0834 4.7354 0
M  V30 13 N -1.555 0.2113 -1.7304 0
M  V30 14 C 2.7706 -1.0026 3.2414 0
M  V30 15 C 1.922 -0.192 5.8323 0
M  V30 16 C -1.3658 -0.7228 -2.8534 0
M  V30 17 C 3.6261 -1.0995 4.344 0
M  V30 18 C 3.2109 -0.7019 5.618 0
M  V30 19 C -0.3374 -0.2512 -3.86 0
M  V30 20 C -0.4945 0.9798 -4.5149 0
M  V30 21 C 0.7776 -1.0438 -4.1673 0
M  V30 22 C 0.446 1.4113 -5.4511 0
M  V30 23 C 1.7175 -0.6107 -5.1047 0
M  V30 24 C 1.5515 0.6158 -5.7456 0
M  V30 25 H -3.8059 0.3315 0.8809 0
M  V30 26 H -3.207 1.7356 -0.0138 0
M  V30 27 H -0.767 2.2184 -0.0108 0
M  V30 28 H 0.3326 1.2678 0.9532 0
M  V30 29 H -0.9738 0.728 5.2822 0
M  V30 30 H -2.6248 -1.227 -0.5907 0
M  V30 31 H -3.637 -0.1419 -1.5571 0
M  V30 32 H 0.5059 0.649 -1.4283 0
M  V30 33 H -0.0952 -0.7371 -0.5018 0
M  V30 34 H 3.0747 -1.3094 2.2485 0
M  V30 35 H 1.6082 0.1109 6.8268 0
M  V30 36 H -1.1071 -1.7237 -2.4831 0
M  V30 37 H -2.3091 -0.8346 -3.4052 0
M  V30 38 H 4.6311 -1.4933 4.2065 0
M  V30 39 H 3.8965 -0.7905 6.4585 0
M  V30 40 H -1.3524 1.6091 -4.2863 0
M  V30 41 H 0.9226 -2.0036 -3.6773 0
M  V30 42 H 0.3154 2.3685 -5.9486 0
M  V30 43 H 2.5795 -1.231 -5.3356 0
M  V30 44 H 2.2838 0.9521 -6.4747 0
M  V30 END ATOM
M  V30 BEGIN BOND
M  V30 1 2 1 2
M  V30 2 1 2 3
M  V30 3 1 2 4
M  V30 4 1 3 5
M  V30 5 1 3 6
M  V30 6 1 4 7
M  V30 7 2 4 8
M  V30 8 1 5 9
M  V30 9 1 6 10
M  V30 10 1 7 11
M  V30 11 1 8 12
M  V30 12 1 9 13
M  V30 13 1 11 14
M  V30 14 1 12 15
M  V30 15 1 13 16
M  V30 16 2 14 17
M  V30 17 2 15 18
M  V30 18 1 16 19
M  V30 19 2 19 20
M  V30 20 1 19 21
M  V30 21 1 20 22
M  V30 22 2 21 23
M  V30 23 2 22 24
M  V30 24 1 10 13
M  V30 25 2 11 12
M  V30 26 1 17 18
M  V30 27 1 23 24
M  V30 28 1 5 25
M  V30 29 1 5 26
M  V30 30 1 6 27
M  V30 31 1 6 28
M  V30 32 1 8 29
M  V30 33 1 9 30
M  V30 34 1 9 31
M  V30 35 1 10 32
M  V30 36 1 10 33
M  V30 37 1 14 34
M  V30 38 1 15 35
M  V30 39 1 16 36
M  V30 40 1 16 37
M  V30 41 1 17 38
M  V30 42 1 18 39
M  V30 43 1 20 40
M  V30 44 1 21 41
M  V30 45 1 22 42
M  V30 46 1 23 43
M  V30 47 1 24 44
M  V30 END BOND
M  V30 END CTAB
M  END
>  <Column 1>
2232

>  <level_0>
2413

>  <index>
2413

>  <Unnamed: 0>
2413

>  <NO.>
2425

>  <Name>
befuraline

>  <IUPAC_name>
1-benzofuran-2-yl-(4-benzylpiperazin-1-yl)methanone

>  <SMILES>
O=C(c1cc2ccccc2o1)N1CCN(Cc2ccccc2)CC1

>  <CID>
68664

>  <logBB>


>  <BBB+/BBB->
BBB+

>  <Inchi>
InChI=1S/C20H20N2O2/c23-20(19-14-17-8-4-5-9-18(17)24-19)22-12-10-21(11-13-22)15-16-6-2-1-3-7-16/h1-9-14H-10-13-15H2

>  <threshold>
-1

>  <reference>
R1|R13|R19|R6|R24|R27|R27|R27|R30|R30|

>  <group>
B

>  <Class>
1

>  <ABC>
19.08

>  <ABCGG>
14.13

>  <nAcid>
0

>  <nBase>
1

>  <nAromAtom>
15

>  <nAromBond>
16

>  <nAtom>
44

>  <nHeavyAtom>
24

>  <nSpiro>
0

>  <nBridgehead>
0

>  <nHetero>
4

>  <nN>
2

>  <nO>
2

>  <nF>
0

>  <BalabanJ>
1.22

>  <BertzCT>
799.98

>  <nBonds>
47

>  <nBondsO>
27

>  <nBondsS>
30

>  <nBondsD>
1

>  <nBondsT>
0

>  <nBondsA>
16

>  <nBondsM>
17

>  <nBondsKS>
39

>  <nBondsKD>
8

>  <RNCG>
0.24

>  <RPCG>
0.15

>  <FCSP3>
0.25

>  <SZ>
28.33

>  <Sm>
26.67

>  <Sv>
28.36

>  <Sse>
43.87

>  <Sp>
30.26

>  <Si>
49.15

>  <MZ>
0.64

>  <Mm>
0.61

>  <Mv>
0.64

>  <Mse>
1

>  <Mp>
0.69

>  <Mi>
1.12

>  <NsCH3>
0

>  <NdCH2>
0

>  <NssCH2>
5

>  <NtCH>
0

>  <NdsCH>
0

>  <NaaCH>
10

>  <NsssCH>
0

>  <NddC>
0

>  <NtsC>
0

>  <NdssC>
1

>  <NaasC>
2

>  <NaaaC>
2

>  <NssssC>
0

>  <NsNH3>
0

>  <NsNH2>
0

>  <NssNH2>
0

>  <NdNH>
0

>  <NssNH>
0

>  <NaaNH>
0

>  <NtN>
0

>  <NsssNH>
0

>  <NdsN>
0

>  <NaaN>
0

>  <NsssN>
2

>  <NddsN>
0

>  <NaasN>
0

>  <NssssN>
0

>  <NsOH>
0

>  <NdO>
1

>  <NssO>
0

>  <NaaO>
1

>  <NsF>
0

>  <NsSiH3>
0

>  <NssSiH2>
0

>  <NsssSiH>
0

>  <NssssSi>
0

>  <NsPH2>
0

>  <NssPH>
0

>  <NsssP>
0

>  <NdsssP>
0

>  <NsssssP>
0

>  <NsSH>
0

>  <NdS>
0

>  <NssS>
0

>  <NaaS>
0

>  <NdssS>
0

>  <NddssS>
0

>  <NsCl>
0

>  <NsBr>
0

>  <NsI>
0

>  <fragCpx>
177.04

>  <fMF>
0.52

>  <nHBAcc>
3

>  <nHBDon>
0

>  <Kier1>
17.42

>  <Kier2>
8.13

>  <Lipinski>
1

>  <GhoseFilter>
1

>  <FilterItLogS>
-4.4

>  <VMcGowan>
246.52

>  <LabuteASA>
140.83

>  <PEOE_VSA1>
9.32

>  <PEOE_VSA2>
9.69

>  <PEOE_VSA3>
0

>  <PEOE_VSA4>
0

>  <PEOE_VSA5>
0

>  <PEOE_VSA6>
48.53

>  <PEOE_VSA7>
17.7

>  <PEOE_VSA8>
38.11

>  <PEOE_VSA9>
0

>  <PEOE_VSA10>
5.58

>  <PEOE_VSA11>
5.76

>  <PEOE_VSA12>
0

>  <PEOE_VSA13>
5.91

>  <SMR_VSA1>
9.21

>  <SMR_VSA2>
0

>  <SMR_VSA3>
9.8

>  <SMR_VSA4>
0

>  <SMR_VSA5>
6.54

>  <SMR_VSA6>
26.18

>  <SMR_VSA7>
71.99

>  <SMR_VSA8>
0

>  <SMR_VSA9>
0

>  <SlogP_VSA1>
0

>  <SlogP_VSA2>
41.89

>  <SlogP_VSA3>
6.54

>  <SlogP_VSA4>
0

>  <SlogP_VSA5>
16.12

>  <SlogP_VSA6>
65.08

>  <SlogP_VSA7>
0

>  <SlogP_VSA8>
10.97

>  <SlogP_VSA9>
0

>  <SlogP_VSA10>
0

>  <SlogP_VSA11>
0

>  <EState_VSA1>
0

>  <EState_VSA2>
5.91

>  <EState_VSA3>
5.76

>  <EState_VSA4>
43.69

>  <EState_VSA5>
5.56

>  <EState_VSA6>
0

>  <EState_VSA7>
41.3

>  <EState_VSA8>
29.17

>  <EState_VSA9>
4.42

>  <EState_VSA10>
4.79

>  <VSA_EState1>
5.7

>  <VSA_EState2>
16.92

>  <VSA_EState3>
0.98

>  <VSA_EState4>
2.08

>  <VSA_EState5>
0.43

>  <VSA_EState6>
20.03

>  <VSA_EState7>
0

>  <VSA_EState8>
4.2

>  <VSA_EState9>
0

>  <apol>
50.54

>  <bpol>
26.09

>  <nRing>
4

>  <nHRing>
2

>  <naRing>
3

>  <naHRing>
1

>  <nARing 2>
1

>  <nAHRing 2>
1

>  <nFRing>
1

>  <nFHRing>
1

>  <nFaRing>
1

>  <nFaHRing>
1

>  <nFARing 2>
0

>  <nFAHRing 2>
0

>  <nRot>
3

>  <SLogP>
3.39

>  <SMR>
93.84

>  <TopoPSA(NO)>
36.69

>  <TopoPSA>
36.69

>  <JGI1>
0.15

>  <JGI2>
0.06

>  <JGI3>
0.04

>  <JGI4>
0.04

>  <JGI5>
0.02

>  <Diameter>
14

>  <Radius>
7

>  <TMWC10>
125.82

>  <TSRW10>
72.53

>  <MW>
320.15

>  <AMW>
7.28

>  <WPath>
1516

>  <WPol>
35

>  <Zagreb1>
128

>  <Zagreb2>
150

>  <mZagreb2>
5.25

>  <yes>


>  <nAR-cont>
0.816016

>  <nHA-cont>
0.94700071

>  <MWHBN>
0.167665806

>  <MWHBN-cont>
0.970180808

>  <TPSA-cont>
0.743881017

>  <pka_cont>
0.97

>  <yes.1>


>  <BBB_SCORE>
5.191049956

>  <MMFF94 Energy>
89.02

$$$$
Compound 1827
Actelion Java MolfileCreator 2.0

  0  0  0  0  0  0              0 V3000
M  V30 BEGIN CTAB
M  V30 COUNTS 52 55 0 0 0
M  V30 BEGIN ATOM
M  V30 1 Cl -2.1798 7.2801 4.7679 0
M  V30 2 C -2.3982 6.2024 3.4416 0
M  V30 3 C -2.5686 6.7243 2.1576 0
M  V30 4 C -2.4009 4.811 3.6797 0
M  V30 5 C -2.7384 5.8098 1.1445 0
M  V30 6 C -2.576 3.9026 2.6281 0
M  V30 7 N -2.9248 6.0328 -0.2149 0
M  V30 8 C -2.7429 4.4307 1.3661 0
M  V30 9 C -3.0451 4.7962 -0.8698 0
M  V30 10 N -2.9379 3.8049 0.1278 0
M  V30 11 O -3.2084 4.6395 -2.0676 0
M  V30 12 C -2.9607 2.3842 -0.1131 0
M  V30 13 C -1.5533 1.7922 -0.2057 0
M  V30 14 C -1.6171 0.2908 -0.5098 0
M  V30 15 N -0.2865 -0.3154 -0.6932 0
M  V30 16 C 0.4588 -0.4151 0.5705 0
M  V30 17 C -0.4146 -1.6321 -1.3344 0
M  V30 18 C 1.8503 -1.0092 0.3509 0
M  V30 19 C 0.9513 -2.261 -1.6096 0
M  V30 20 C 1.7724 -2.3845 -0.3244 0
M  V30 21 C 3.1706 -2.9275 -0.6189 0
M  V30 22 O 4.1735 -2.2178 -0.5458 0
M  V30 23 C 3.3467 -4.363 -1.0104 0
M  V30 24 C 4.584 -4.7514 -1.5519 0
M  V30 25 C 2.3412 -5.3262 -0.8448 0
M  V30 26 C 4.8087 -6.0765 -1.9317 0
M  V30 27 C 2.5698 -6.6523 -1.2263 0
M  V30 28 C 3.7985 -7.0144 -1.7662 0
M  V30 29 F 4.0102 -8.2859 -2.1285 0
M  V30 30 H -2.5662 7.7908 1.9708 0
M  V30 31 H -2.265 4.4358 4.6921 0
M  V30 32 H -2.5775 2.8353 2.8114 0
M  V30 33 H -2.9612 6.9185 -0.6925 0
M  V30 34 H -3.5396 1.8994 0.6813 0
M  V30 35 H -3.4908 2.2091 -1.0568 0
M  V30 36 H -1.0257 1.9772 0.7359 0
M  V30 37 H -0.9882 2.308 -0.9925 0
M  V30 38 H -2.1766 -0.2329 0.2762 0
M  V30 39 H -2.193 0.1742 -1.4375 0
M  V30 40 H -0.0914 -1.0252 1.2986 0
M  V30 41 H 0.5974 0.5753 1.0162 0
M  V30 42 H -0.9338 -1.5286 -2.2952 0
M  V30 43 H -1.0139 -2.3103 -0.7124 0
M  V30 44 H 2.3672 -1.0958 1.3148 0
M  V30 45 H 2.4453 -0.3164 -0.2595 0
M  V30 46 H 0.8035 -3.2415 -2.0753 0
M  V30 47 H 1.4966 -1.6538 -2.3449 0
M  V30 48 H 1.2778 -3.0606 0.3829 0
M  V30 49 H 5.3805 -4.0197 -1.6816 0
M  V30 50 H 1.3747 -5.0794 -0.4174 0
M  V30 51 H 5.7631 -6.3782 -2.3518 0
M  V30 52 H 1.7982 -7.4066 -1.1029 0
M  V30 END ATOM
M  V30 BEGIN BOND
M  V30 1 1 1 2
M  V30 2 2 2 3
M  V30 3 1 2 4
M  V30 4 1 3 5
M  V30 5 2 4 6
M  V30 6 1 5 7
M  V30 7 2 5 8
M  V30 8 1 7 9
M  V30 9 1 8 10
M  V30 10 2 9 11
M  V30 11 1 10 12
M  V30 12 1 12 13
M  V30 13 1 13 14
M  V30 14 1 14 15
M  V30 15 1 15 16
M  V30 16 1 15 17
M  V30 17 1 16 18
M  V30 18 1 17 19
M  V30 19 1 18 20
M  V30 20 1 20 21
M  V30 21 2 21 22
M  V30 22 1 21 23
M  V30 23 2 23 24
M  V30 24 1 23 25
M  V30 25 1 24 26
M  V30 26 2 25 27
M  V30 27 2 26 28
M  V30 28 1 28 29
M  V30 29 1 6 8
M  V30 30 1 9 10
M  V30 31 1 19 20
M  V30 32 1 27 28
M  V30 33 1 3 30
M  V30 34 1 4 31
M  V30 35 1 6 32
M  V30 36 1 7 33
M  V30 37 1 12 34
M  V30 38 1 12 35
M  V30 39 1 13 36
M  V30 40 1 13 37
M  V30 41 1 14 38
M  V30 42 1 14 39
M  V30 43 1 16 40
M  V30 44 1 16 41
M  V30 45 1 17 42
M  V30 46 1 17 43
M  V30 47 1 18 44
M  V30 48 1 18 45
M  V30 49 1 19 46
M  V30 50 1 19 47
M  V30 51 1 20 48
M  V30 52 1 24 49
M  V30 53 1 25 50
M  V30 54 1 26 51
M  V30 55 1 27 52
M  V30 END BOND
M  V30 END CTAB
M  END
>  <Column 1>
2234

>  <level_0>
2415

>  <index>
2415

>  <Unnamed: 0>
2415

>  <NO.>
2427

>  <Name>
milenperone

>  <IUPAC_name>
6-chloro-3-[3-[4-(4-fluorobenzoyl)piperidin-1-yl]propyl]-1h-benzimidazol-2-one

>  <SMILES>
O=C(c1ccc(F)cc1)C1CCN(CCCn2c(=O)[nH]c3cc(Cl)ccc32)CC1

>  <CID>
65489

>  <logBB>


>  <BBB+/BBB->
BBB+

>  <Inchi>
InChI=1S/C22H23ClFN3O2/c23-17-4-7-20-19(14-17)25-22(29)27(20)11-1-10-26-12-8-16(9-13-26)21(28)15-2-5-18(24)6-3-15/h2-7-14-16H-1-8-13H2-(H-25-29)

>  <threshold>
-1

>  <reference>
R1|R13|R19|R6|R24|R27|R27|R27|R30|R30|

>  <group>
B

>  <Class>
1

>  <ABC>
22.86

>  <ABCGG>
16.62

>  <nAcid>
0

>  <nBase>
1

>  <nAromAtom>
15

>  <nAromBond>
16

>  <nAtom>
52

>  <nHeavyAtom>
29

>  <nSpiro>
0

>  <nBridgehead>
0

>  <nHetero>
7

>  <nN>
3

>  <nO>
2

>  <nF>
1

>  <BalabanJ>
1.15

>  <BertzCT>
1065.85

>  <nBonds>
55

>  <nBondsO>
32

>  <nBondsS>
37

>  <nBondsD>
2

>  <nBondsT>
0

>  <nBondsA>
16

>  <nBondsM>
18

>  <nBondsKS>
47

>  <nBondsKD>
8

>  <RNCG>
0.15

>  <RPCG>
0.16

>  <FCSP3>
0.36

>  <SZ>
36.33

>  <Sm>
34.63

>  <Sv>
33.67

>  <Sse>
52.58

>  <Sp>
35.76

>  <Si>
58.77

>  <MZ>
0.7

>  <Mm>
0.67

>  <Mv>
0.65

>  <Mse>
1.01

>  <Mp>
0.69

>  <Mi>
1.13

>  <NsCH3>
0

>  <NdCH2>
0

>  <NssCH2>
7

>  <NtCH>
0

>  <NdsCH>
0

>  <NaaCH>
7

>  <NsssCH>
1

>  <NddC>
0

>  <NtsC>
0

>  <NdssC>
1

>  <NaasC>
3

>  <NaaaC>
2

>  <NssssC>
0

>  <NsNH3>
0

>  <NsNH2>
0

>  <NssNH2>
0

>  <NdNH>
0

>  <NssNH>
0

>  <NaaNH>
1

>  <NtN>
0

>  <NsssNH>
0

>  <NdsN>
0

>  <NaaN>
0

>  <NsssN>
1

>  <NddsN>
0

>  <NaasN>
1

>  <NssssN>
0

>  <NsOH>
0

>  <NdO>
2

>  <NssO>
0

>  <NaaO>
0

>  <NsF>
1

>  <NsSiH3>
0

>  <NssSiH2>
0

>  <NsssSiH>
0

>  <NssssSi>
0

>  <NsPH2>
0

>  <NssPH>
0

>  <NsssP>
0

>  <NdsssP>
0

>  <NsssssP>
0

>  <NsSH>
0

>  <NdS>
0

>  <NssS>
0

>  <NaaS>
0

>  <NdssS>
0

>  <NddssS>
0

>  <NsCl>
1

>  <NsBr>
0

>  <NsI>
0

>  <fragCpx>
212.07

>  <fMF>
0.48

>  <nHBAcc>
4

>  <nHBDon>
1

>  <Kier1>
22.2

>  <Kier2>
10.08

>  <Lipinski>
1

>  <GhoseFilter>
1

>  <FilterItLogS>
-5.91

>  <VMcGowan>
298.68

>  <LabuteASA>
172.64

>  <PEOE_VSA1>
9.88

>  <PEOE_VSA2>
9.36

>  <PEOE_VSA3>
9.18

>  <PEOE_VSA4>
0

>  <PEOE_VSA5>
0

>  <PEOE_VSA6>
11.6

>  <PEOE_VSA7>
81.36

>  <PEOE_VSA8>
23.05

>  <PEOE_VSA9>
11.03

>  <PEOE_VSA10>
5.82

>  <PEOE_VSA11>
5.78

>  <PEOE_VSA12>
0

>  <PEOE_VSA13>
0

>  <SMR_VSA1>
9.18

>  <SMR_VSA2>
0

>  <SMR_VSA3>
14.45

>  <SMR_VSA4>
5.92

>  <SMR_VSA5>
25.81

>  <SMR_VSA6>
19.63

>  <SMR_VSA7>
69.35

>  <SMR_VSA8>
0

>  <SMR_VSA9>
0

>  <SlogP_VSA1>
5.69

>  <SlogP_VSA2>
39.87

>  <SlogP_VSA3>
6.54

>  <SlogP_VSA4>
11.74

>  <SlogP_VSA5>
29.62

>  <SlogP_VSA6>
47.26

>  <SlogP_VSA7>
5.02

>  <SlogP_VSA8>
11.03

>  <SlogP_VSA9>
0

>  <SlogP_VSA10>
4.39

>  <SlogP_VSA11>
0

>  <EState_VSA1>
0

>  <EState_VSA2>
23.21

>  <EState_VSA3>
17.13

>  <EState_VSA4>
49.93

>  <EState_VSA5>
12.13

>  <EState_VSA6>
28.83

>  <EState_VSA7>
6.07

>  <EState_VSA8>
9.88

>  <EState_VSA9>
11.6

>  <EState_VSA10>
13.98

>  <VSA_EState1>
14.79

>  <VSA_EState2>
29.96

>  <VSA_EState3>
0.6

>  <VSA_EState4>
2.08

>  <VSA_EState5>
-0.22

>  <VSA_EState6>
11.22

>  <VSA_EState7>
2.47

>  <VSA_EState8>
3.23

>  <VSA_EState9>
0

>  <apol>
59.72

>  <bpol>
30.42

>  <nRing>
4

>  <nHRing>
2

>  <naRing>
3

>  <naHRing>
1

>  <nARing 2>
1

>  <nAHRing 2>
1

>  <nFRing>
1

>  <nFHRing>
1

>  <nFaRing>
1

>  <nFaHRing>
1

>  <nFARing 2>
0

>  <nFAHRing 2>
0

>  <nRot>
6

>  <SLogP>
4.11

>  <SMR>
112.08

>  <TopoPSA(NO)>
58.1

>  <TopoPSA>
58.1

>  <JGI1>
0.19

>  <JGI2>
0.08

>  <JGI3>
0.05

>  <JGI4>
0.04

>  <JGI5>
0.03

>  <Diameter>
18

>  <Radius>
9

>  <TMWC10>
137.68

>  <TSRW10>
78.82

>  <MW>
415.15

>  <AMW>
7.98

>  <WPath>
2715

>  <WPol>
45

>  <Zagreb1>
154

>  <Zagreb2>
181

>  <mZagreb2>
6.31

>  <yes>


>  <nAR-cont>
0.816016

>  <nHA-cont>
0.785905698

>  <MWHBN>
0.245396002

>  <MWHBN-cont>
0.967178219

>  <TPSA-cont>
0.594425922

>  <pka_cont>
0.97

>  <yes.1>


>  <BBB_SCORE>
4.726540872

>  <MMFF94 Energy>
9.2281

$$$$
Compound 1828
Actelion Java MolfileCreator 2.0

  0  0  0  0  0  0              0 V3000
M  V30 BEGIN CTAB
M  V30 COUNTS 52 55 0 0 0
M  V30 BEGIN ATOM
M  V30 1 F 6.4109 -5.1262 3.5221 0
M  V30 2 C 5.5655 -4.734 2.5609 0
M  V30 3 C 6.0262 -4.5887 1.2596 0
M  V30 4 C 4.2367 -4.4799 2.8798 0
M  V30 5 C 5.141 -4.1797 0.2597 0
M  V30 6 C 3.3474 -4.0704 1.8808 0
M  V30 7 C 3.7945 -3.9122 0.5613 0
M  V30 8 C 2.896 -3.4808 -0.5581 0
M  V30 9 O 3.3163 -3.5746 -1.711 0
M  V30 10 C 1.5013 -2.9379 -0.2496 0
M  V30 11 C 1.584 -1.5268 0.3353 0
M  V30 12 C 0.6346 -2.9025 -1.5145 0
M  V30 13 C 0.192 -0.9326 0.5616 0
M  V30 14 C -0.7306 -2.2807 -1.229 0
M  V30 15 N -0.5996 -0.9223 -0.6762 0
M  V30 16 C -1.9367 -0.3325 -0.4797 0
M  V30 17 C -1.8971 1.1659 -0.1597 0
M  V30 18 C -3.308 1.7553 -0.1576 0
M  V30 19 N -3.3121 3.1439 0.2246 0
M  V30 20 C -3.5235 3.6242 1.533 0
M  V30 21 C -3.0401 4.232 -0.6156 0
M  V30 22 O -3.763 2.9758 2.5377 0
M  V30 23 N -3.3969 5.0209 1.4696 0
M  V30 24 C -3.0997 5.3888 0.1625 0
M  V30 25 C -2.7523 4.2841 -1.9618 0
M  V30 26 C -2.8797 6.6431 -0.3575 0
M  V30 27 C -2.5241 5.5492 -2.5161 0
M  V30 28 C -2.5878 6.7155 -1.723 0
M  V30 29 H 7.0666 -4.7942 1.0285 0
M  V30 30 H 3.9005 -4.6047 3.9049 0
M  V30 31 H 5.5078 -4.0691 -0.7598 0
M  V30 32 H 2.3157 -3.8882 2.1637 0
M  V30 33 H 1.009 -3.6173 0.4557 0
M  V30 34 H 2.1275 -1.53 1.2866 0
M  V30 35 H 2.1568 -0.8761 -0.3392 0
M  V30 36 H 0.5006 -3.9191 -1.904 0
M  V30 37 H 1.1345 -2.3291 -2.3066 0
M  V30 38 H -0.3246 -1.4972 1.3487 0
M  V30 39 H 0.3371 0.0868 0.9335 0
M  V30 40 H -1.2873 -2.2452 -2.1734 0
M  V30 41 H -1.2946 -2.9265 -0.543 0
M  V30 42 H -2.4848 -0.8684 0.3062 0
M  V30 43 H -2.5121 -0.4535 -1.4069 0
M  V30 44 H -1.4402 1.3398 0.8211 0
M  V30 45 H -1.2778 1.6901 -0.8978 0
M  V30 46 H -3.9275 1.2055 0.5609 0
M  V30 47 H -3.7807 1.6541 -1.1409 0
M  V30 48 H -3.4975 5.627 2.2664 0
M  V30 49 H -2.699 3.3925 -2.5741 0
M  V30 50 H -2.9269 7.5349 0.255 0
M  V30 51 H -2.292 5.6369 -3.5757 0
M  V30 52 H -2.4045 7.6842 -2.1837 0
M  V30 END ATOM
M  V30 BEGIN BOND
M  V30 1 1 1 2
M  V30 2 2 2 3
M  V30 3 1 2 4
M  V30 4 1 3 5
M  V30 5 2 4 6
M  V30 6 2 5 7
M  V30 7 1 7 8
M  V30 8 2 8 9
M  V30 9 1 8 10
M  V30 10 1 10 11
M  V30 11 1 10 12
M  V30 12 1 11 13
M  V30 13 1 12 14
M  V30 14 1 13 15
M  V30 15 1 15 16
M  V30 16 1 16 17
M  V30 17 1 17 18
M  V30 18 1 18 19
M  V30 19 1 19 20
M  V30 20 1 19 21
M  V30 21 2 20 22
M  V30 22 1 20 23
M  V30 23 2 21 24
M  V30 24 1 21 25
M  V30 25 1 24 26
M  V30 26 2 25 27
M  V30 27 2 26 28
M  V30 28 1 6 7
M  V30 29 1 14 15
M  V30 30 1 23 24
M  V30 31 1 27 28
M  V30 32 1 3 29
M  V30 33 1 4 30
M  V30 34 1 5 31
M  V30 35 1 6 32
M  V30 36 1 10 33
M  V30 37 1 11 34
M  V30 38 1 11 35
M  V30 39 1 12 36
M  V30 40 1 12 37
M  V30 41 1 13 38
M  V30 42 1 13 39
M  V30 43 1 14 40
M  V30 44 1 14 41
M  V30 45 1 16 42
M  V30 46 1 16 43
M  V30 47 1 17 44
M  V30 48 1 17 45
M  V30 49 1 18 46
M  V30 50 1 18 47
M  V30 51 1 23 48
M  V30 52 1 25 49
M  V30 53 1 26 50
M  V30 54 1 27 51
M  V30 55 1 28 52
M  V30 END BOND
M  V30 END CTAB
M  END
>  <Column 1>
2235

>  <level_0>
2416

>  <index>
2416

>  <Unnamed: 0>
2416

>  <NO.>
2428

>  <Name>
declenperone

>  <IUPAC_name>
3-[3-[4-(4-fluorobenzoyl)piperidin-1-yl]propyl]-1h-benzimidazol-2-one

>  <SMILES>
O=C(c1ccc(F)cc1)C1CCN(CCCn2c(=O)[nH]c3ccccc32)CC1

>  <CID>
71744

>  <logBB>


>  <BBB+/BBB->
BBB+

>  <Inchi>
InChI=1S/C22H24FN3O2/c23-18-8-6-16(7-9-18)21(27)17-10-14-25(15-11-17)12-3-13-26-20-5-2-1-4-19(20)24-22(26)28/h1-2-4-9-17H-3-10-15H2-(H-24-28)

>  <threshold>
-1

>  <reference>
R1|R13|R19|R6|R24|R27|R27|R27|R30|R30|

>  <group>
B

>  <Class>
1

>  <ABC>
22.05

>  <ABCGG>
16.15

>  <nAcid>
0

>  <nBase>
1

>  <nAromAtom>
15

>  <nAromBond>
16

>  <nAtom>
52

>  <nHeavyAtom>
28

>  <nSpiro>
0

>  <nBridgehead>
0

>  <nHetero>
6

>  <nN>
3

>  <nO>
2

>  <nF>
1

>  <BalabanJ>
1.15

>  <BertzCT>
1014.19

>  <nBonds>
55

>  <nBondsO>
31

>  <nBondsS>
37

>  <nBondsD>
2

>  <nBondsT>
0

>  <nBondsA>
16

>  <nBondsM>
18

>  <nBondsKS>
47

>  <nBondsKD>
8

>  <RNCG>
0.15

>  <RPCG>
0.16

>  <FCSP3>
0.36

>  <SZ>
33.67

>  <Sm>
31.76

>  <Sv>
32.85

>  <Sse>
52.26

>  <Sp>
34.85

>  <Si>
58.82

>  <MZ>
0.65

>  <Mm>
0.61

>  <Mv>
0.63

>  <Mse>
1.01

>  <Mp>
0.67

>  <Mi>
1.13

>  <NsCH3>
0

>  <NdCH2>
0

>  <NssCH2>
7

>  <NtCH>
0

>  <NdsCH>
0

>  <NaaCH>
8

>  <NsssCH>
1

>  <NddC>
0

>  <NtsC>
0

>  <NdssC>
1

>  <NaasC>
2

>  <NaaaC>
2

>  <NssssC>
0

>  <NsNH3>
0

>  <NsNH2>
0

>  <NssNH2>
0

>  <NdNH>
0

>  <NssNH>
0

>  <NaaNH>
1

>  <NtN>
0

>  <NsssNH>
0

>  <NdsN>
0

>  <NaaN>
0

>  <NsssN>
1

>  <NddsN>
0

>  <NaasN>
1

>  <NssssN>
0

>  <NsOH>
0

>  <NdO>
2

>  <NssO>
0

>  <NaaO>
0

>  <NsF>
1

>  <NsSiH3>
0

>  <NssSiH2>
0

>  <NsssSiH>
0

>  <NssssSi>
0

>  <NsPH2>
0

>  <NssPH>
0

>  <NsssP>
0

>  <NdsssP>
0

>  <NsssssP>
0

>  <NsSH>
0

>  <NdS>
0

>  <NssS>
0

>  <NaaS>
0

>  <NdssS>
0

>  <NddssS>
0

>  <NsCl>
0

>  <NsBr>
0

>  <NsI>
0

>  <fragCpx>
205.06

>  <fMF>
0.48

>  <nHBAcc>
4

>  <nHBDon>
1

>  <Kier1>
21.24

>  <Kier2>
9.87

>  <Lipinski>
1

>  <GhoseFilter>
1

>  <FilterItLogS>
-5.17

>  <VMcGowan>
286.44

>  <LabuteASA>
162.34

>  <PEOE_VSA1>
9.88

>  <PEOE_VSA2>
9.36

>  <PEOE_VSA3>
9.18

>  <PEOE_VSA4>
0

>  <PEOE_VSA5>
0

>  <PEOE_VSA6>
12.13

>  <PEOE_VSA7>
75.29

>  <PEOE_VSA8>
18.03

>  <PEOE_VSA9>
11.03

>  <PEOE_VSA10>
5.82

>  <PEOE_VSA11>
5.78

>  <PEOE_VSA12>
0

>  <PEOE_VSA13>
0

>  <SMR_VSA1>
9.18

>  <SMR_VSA2>
0

>  <SMR_VSA3>
14.45

>  <SMR_VSA4>
5.92

>  <SMR_VSA5>
25.81

>  <SMR_VSA6>
19.63

>  <SMR_VSA7>
70.4

>  <SMR_VSA8>
0

>  <SMR_VSA9>
0

>  <SlogP_VSA1>
5.69

>  <SlogP_VSA2>
39.87

>  <SlogP_VSA3>
6.54

>  <SlogP_VSA4>
11.74

>  <SlogP_VSA5>
29.62

>  <SlogP_VSA6>
53.33

>  <SlogP_VSA7>
0

>  <SlogP_VSA8>
11.03

>  <SlogP_VSA9>
0

>  <SlogP_VSA10>
4.39

>  <SlogP_VSA11>
0

>  <EState_VSA1>
0

>  <EState_VSA2>
23.21

>  <EState_VSA3>
12.11

>  <EState_VSA4>
49.93

>  <EState_VSA5>
12.13

>  <EState_VSA6>
16.7

>  <EState_VSA7>
24.27

>  <EState_VSA8>
9.88

>  <EState_VSA9>
0

>  <EState_VSA10>
13.98

>  <VSA_EState1>
14.83

>  <VSA_EState2>
29.94

>  <VSA_EState3>
0

>  <VSA_EState4>
2.34

>  <VSA_EState5>
-0.19

>  <VSA_EState6>
13.56

>  <VSA_EState7>
2.53

>  <VSA_EState8>
3.33

>  <VSA_EState9>
0

>  <apol>
58.2

>  <bpol>
30.92

>  <nRing>
4

>  <nHRing>
2

>  <naRing>
3

>  <naHRing>
1

>  <nARing 2>
1

>  <nAHRing 2>
1

>  <nFRing>
1

>  <nFHRing>
1

>  <nFaRing>
1

>  <nFaHRing>
1

>  <nFARing 2>
0

>  <nFAHRing 2>
0

>  <nRot>
6

>  <SLogP>
3.45

>  <SMR>
107.07

>  <TopoPSA(NO)>
58.1

>  <TopoPSA>
58.1

>  <JGI1>
0.16

>  <JGI2>
0.08

>  <JGI3>
0.05

>  <JGI4>
0.03

>  <JGI5>
0.02

>  <Diameter>
17

>  <Radius>
9

>  <TMWC10>
135.22

>  <TSRW10>
77.6

>  <MW>
381.19

>  <AMW>
7.33

>  <WPath>
2458

>  <WPol>
43

>  <Zagreb1>
148

>  <Zagreb2>
174

>  <mZagreb2>
6.14

>  <yes>


>  <nAR-cont>
0.816016

>  <nHA-cont>
0.82432561

>  <MWHBN>
0.256093912

>  <MWHBN-cont>
0.948951509

>  <TPSA-cont>
0.594425922

>  <pka_cont>
0.97

>  <yes.1>


>  <BBB_SCORE>
4.737620717

>  <MMFF94 Energy>
13.477

$$$$
Compound 1829
Actelion Java MolfileCreator 2.0

  0  0  0  0  0  0              0 V3000
M  V30 BEGIN CTAB
M  V30 COUNTS 40 42 0 0 0
M  V30 BEGIN ATOM
M  V30 1 O -3.9855 -0.6368 1.4334 0
M  V30 2 C -2.7615 -0.5733 1.5696 0
M  V30 3 N -1.98 0.304 0.8244 0
M  V30 4 C -2.1282 -1.4904 2.5696 0
M  V30 5 C -0.5695 0.6295 1.0441 0
M  V30 6 C -2.5469 0.9641 -0.3476 0
M  V30 7 N -0.9201 -2.0356 2.2604 0
M  V30 8 C -2.8362 -1.8077 3.7247 0
M  V30 9 C 0.26 0.2867 -0.2067 0
M  V30 10 C -1.6983 0.6522 -1.5984 0
M  V30 11 C -0.4013 -2.9041 3.155 0
M  V30 12 C -2.2687 -2.7041 4.6255 0
M  V30 13 N -0.262 0.9766 -1.415 0
M  V30 14 C -1.0279 -3.2623 4.3384 0
M  V30 15 C 0.4966 0.5968 -2.6186 0
M  V30 16 C 1.9191 1.1162 -2.6206 0
M  V30 17 C 2.1748 2.4926 -2.5255 0
M  V30 18 C 3.0023 0.2332 -2.7361 0
M  V30 19 C 3.4843 2.9744 -2.5394 0
M  V30 20 C 4.3119 0.7171 -2.7504 0
M  V30 21 C 4.5523 2.0865 -2.6521 0
M  V30 22 H -0.1587 0.152 1.9335 0
M  V30 23 H -0.5191 1.7098 1.2333 0
M  V30 24 H -2.555 2.0429 -0.1506 0
M  V30 25 H -3.5807 0.6492 -0.5209 0
M  V30 26 H -3.8119 -1.3705 3.9131 0
M  V30 27 H 1.2945 0.592 -0.0145 0
M  V30 28 H 0.2535 -0.8007 -0.3576 0
M  V30 29 H -2.1004 1.2316 -2.438 0
M  V30 30 H -1.8123 -0.412 -1.845 0
M  V30 31 H 0.5647 -3.3231 2.8873 0
M  V30 32 H -2.7953 -2.9707 5.5377 0
M  V30 33 H -0.5626 -3.9678 5.0184 0
M  V30 34 H 0.4874 -0.4929 -2.7532 0
M  V30 35 H 0.0129 1.0194 -3.5098 0
M  V30 36 H 1.346 3.1915 -2.4314 0
M  V30 37 H 2.8325 -0.8379 -2.8135 0
M  V30 38 H 3.6693 4.0423 -2.4608 0
M  V30 39 H 5.145 0.025 -2.8387 0
M  V30 40 H 5.5719 2.4621 -2.6629 0
M  V30 END ATOM
M  V30 BEGIN BOND
M  V30 1 2 1 2
M  V30 2 1 2 3
M  V30 3 1 2 4
M  V30 4 1 3 5
M  V30 5 1 3 6
M  V30 6 2 4 7
M  V30 7 1 4 8
M  V30 8 1 5 9
M  V30 9 1 6 10
M  V30 10 1 7 11
M  V30 11 2 8 12
M  V30 12 1 9 13
M  V30 13 2 11 14
M  V30 14 1 13 15
M  V30 15 1 15 16
M  V30 16 2 16 17
M  V30 17 1 16 18
M  V30 18 1 17 19
M  V30 19 2 18 20
M  V30 20 2 19 21
M  V30 21 1 10 13
M  V30 22 1 12 14
M  V30 23 1 20 21
M  V30 24 1 5 22
M  V30 25 1 5 23
M  V30 26 1 6 24
M  V30 27 1 6 25
M  V30 28 1 8 26
M  V30 29 1 9 27
M  V30 30 1 9 28
M  V30 31 1 10 29
M  V30 32 1 10 30
M  V30 33 1 11 31
M  V30 34 1 12 32
M  V30 35 1 14 33
M  V30 36 1 15 34
M  V30 37 1 15 35
M  V30 38 1 17 36
M  V30 39 1 18 37
M  V30 40 1 19 38
M  V30 41 1 20 39
M  V30 42 1 21 40
M  V30 END BOND
M  V30 END CTAB
M  END
>  <Column 1>
2236

>  <level_0>
2417

>  <index>
2417

>  <Unnamed: 0>
2417

>  <NO.>
2429

>  <Name>
piberaline

>  <IUPAC_name>
(4-benzylpiperazin-1-yl)-pyridin-2-ylmethanone

>  <SMILES>
O=C(c1ccccn1)N1CCN(Cc2ccccc2)CC1

>  <CID>
65975

>  <logBB>


>  <BBB+/BBB->
BBB+

>  <Inchi>
InChI=1S/C17H19N3O/c21-17(16-8-4-5-9-18-16)20-12-10-19(11-13-20)14-15-6-2-1-3-7-15/h1-9H-10-14H2

>  <threshold>
-1

>  <reference>
R1|R13|R19|R6|R24|R27|R27|R27|R30|R30|

>  <group>
B

>  <Class>
1

>  <ABC>
16.29

>  <ABCGG>
12.37

>  <nAcid>
0

>  <nBase>
1

>  <nAromAtom>
12

>  <nAromBond>
12

>  <nAtom>
40

>  <nHeavyAtom>
21

>  <nSpiro>
0

>  <nBridgehead>
0

>  <nHetero>
4

>  <nN>
3

>  <nO>
1

>  <nF>
0

>  <BalabanJ>
1.39

>  <BertzCT>
577.5

>  <nBonds>
42

>  <nBondsO>
23

>  <nBondsS>
29

>  <nBondsD>
1

>  <nBondsT>
0

>  <nBondsA>
12

>  <nBondsM>
13

>  <nBondsKS>
35

>  <nBondsKD>
7

>  <RNCG>
0.21

>  <RPCG>
0.17

>  <FCSP3>
0.29

>  <SZ>
25

>  <Sm>
23.43

>  <Sv>
25.14

>  <Sse>
39.75

>  <Sp>
27.04

>  <Si>
45.03

>  <MZ>
0.63

>  <Mm>
0.59

>  <Mv>
0.63

>  <Mse>
0.99

>  <Mp>
0.68

>  <Mi>
1.13

>  <NsCH3>
0

>  <NdCH2>
0

>  <NssCH2>
5

>  <NtCH>
0

>  <NdsCH>
0

>  <NaaCH>
9

>  <NsssCH>
0

>  <NddC>
0

>  <NtsC>
0

>  <NdssC>
1

>  <NaasC>
2

>  <NaaaC>
0

>  <NssssC>
0

>  <NsNH3>
0

>  <NsNH2>
0

>  <NssNH2>
0

>  <NdNH>
0

>  <NssNH>
0

>  <NaaNH>
0

>  <NtN>
0

>  <NsssNH>
0

>  <NdsN>
0

>  <NaaN>
1

>  <NsssN>
2

>  <NddsN>
0

>  <NaasN>
0

>  <NssssN>
0

>  <NsOH>
0

>  <NdO>
1

>  <NssO>
0

>  <NaaO>
0

>  <NsF>
0

>  <NsSiH3>
0

>  <NssSiH2>
0

>  <NsssSiH>
0

>  <NssssSi>
0

>  <NsPH2>
0

>  <NssPH>
0

>  <NsssP>
0

>  <NdsssP>
0

>  <NsssssP>
0

>  <NsSH>
0

>  <NdS>
0

>  <NssS>
0

>  <NaaS>
0

>  <NdssS>
0

>  <NddssS>
0

>  <NsCl>
0

>  <NsBr>
0

>  <NsI>
0

>  <fragCpx>
109.04

>  <fMF>
0.5

>  <nHBAcc>
3

>  <nHBDon>
0

>  <Kier1>
15.88

>  <Kier2>
8.02

>  <Lipinski>
1

>  <GhoseFilter>
1

>  <FilterItLogS>
-3.31

>  <VMcGowan>
223.52

>  <LabuteASA>
124.57

>  <PEOE_VSA1>
4.9

>  <PEOE_VSA2>
14.68

>  <PEOE_VSA3>
0

>  <PEOE_VSA4>
0

>  <PEOE_VSA5>
0

>  <PEOE_VSA6>
36.4

>  <PEOE_VSA7>
17.7

>  <PEOE_VSA8>
38.92

>  <PEOE_VSA9>
0

>  <PEOE_VSA10>
5.69

>  <PEOE_VSA11>
0

>  <PEOE_VSA12>
0

>  <PEOE_VSA13>
5.91

>  <SMR_VSA1>
4.79

>  <SMR_VSA2>
0

>  <SMR_VSA3>
14.78

>  <SMR_VSA4>
0

>  <SMR_VSA5>
6.54

>  <SMR_VSA6>
26.18

>  <SMR_VSA7>
65.99

>  <SMR_VSA8>
0

>  <SMR_VSA9>
0

>  <SlogP_VSA1>
0

>  <SlogP_VSA2>
46.87

>  <SlogP_VSA3>
6.54

>  <SlogP_VSA4>
0

>  <SlogP_VSA5>
16.05

>  <SlogP_VSA6>
54.73

>  <SlogP_VSA7>
0

>  <SlogP_VSA8>
0

>  <SlogP_VSA9>
0

>  <SlogP_VSA10>
0

>  <SlogP_VSA11>
0

>  <EState_VSA1>
0

>  <EState_VSA2>
5.91

>  <EState_VSA3>
5.69

>  <EState_VSA4>
32.72

>  <EState_VSA5>
5.56

>  <EState_VSA6>
12.26

>  <EState_VSA7>
23.1

>  <EState_VSA8>
34.15

>  <EState_VSA9>
0

>  <EState_VSA10>
4.79

>  <VSA_EState1>
0

>  <VSA_EState2>
20.72

>  <VSA_EState3>
0

>  <VSA_EState4>
1.86

>  <VSA_EState5>
0.04

>  <VSA_EState6>
15.91

>  <VSA_EState7>
1.67

>  <VSA_EState8>
4.3

>  <VSA_EState9>
0

>  <apol>
45.16

>  <bpol>
24.49

>  <nRing>
3

>  <nHRing>
2

>  <naRing>
2

>  <naHRing>
1

>  <nARing 2>
1

>  <nAHRing 2>
1

>  <nFRing>
0

>  <nFHRing>
0

>  <nFaRing>
0

>  <nFaHRing>
0

>  <nFARing 2>
0

>  <nFAHRing 2>
0

>  <nRot>
3

>  <SLogP>
2.04

>  <SMR>
81.86

>  <TopoPSA(NO)>
36.44

>  <TopoPSA>
36.44

>  <JGI1>
0.13

>  <JGI2>
0.06

>  <JGI3>
0.04

>  <JGI4>
0.03

>  <JGI5>
0.01

>  <Diameter>
13

>  <Radius>
7

>  <TMWC10>
116.1

>  <TSRW10>
54.46

>  <MW>
281.15

>  <AMW>
7.03

>  <WPath>
1056

>  <WPol>
29

>  <Zagreb1>
106

>  <Zagreb2>
121

>  <mZagreb2>
4.72

>  <yes>


>  <nAR-cont>
0.816016

>  <nHA-cont>
0.994529749

>  <MWHBN>
0.178917249

>  <MWHBN-cont>
0.985966664

>  <TPSA-cont>
0.745626172

>  <pka_cont>
0.97

>  <yes.1>


>  <BBB_SCORE>
5.265748089

>  <MMFF94 Energy>
121.82

$$$$
Compound 1830
Actelion Java MolfileCreator 2.0

  0  0  0  0  0  0              0 V3000
M  V30 BEGIN CTAB
M  V30 COUNTS 34 37 0 0 0
M  V30 BEGIN ATOM
M  V30 1 O -0.6482 -3.4878 -0.7292 0
M  V30 2 C -1.1917 -2.3832 -0.7606 0
M  V30 3 C -2.6387 -2.3257 -1.1499 0
M  V30 4 C -0.4716 -1.1542 -0.4513 0
M  V30 5 N -3.3002 -1.1473 -1.0058 0
M  V30 6 C -3.2583 -3.4827 -1.6191 0
M  V30 7 C 0.6695 -1.0542 0.3295 0
M  V30 8 C -0.7122 0.1714 -0.8668 0
M  V30 9 C -4.6087 -1.1294 -1.3436 0
M  V30 10 C -4.607 -3.4294 -1.9616 0
M  V30 11 N 1.3828 -1.9947 1.0243 0
M  V30 12 N 1.0439 0.2997 0.3298 0
M  V30 13 N 0.1803 1.0467 -0.4076 0
M  V30 14 C -5.2972 -2.2314 -1.8222 0
M  V30 15 C 2.4248 -1.5702 1.6668 0
M  V30 16 C 2.1861 0.7332 1.0345 0
M  V30 17 C 2.9097 -0.1691 1.7235 0
M  V30 18 C 2.5999 2.151 1.0606 0
M  V30 19 C 3.8839 2.5334 0.6593 0
M  V30 20 C 1.7148 3.1431 1.4895 0
M  V30 21 C 4.225 3.8755 0.7159 0
M  V30 22 C 2.1496 4.4584 1.5082 0
M  V30 23 N 3.389 4.8455 1.1397 0
M  V30 24 H -2.7043 -4.4122 -1.7142 0
M  V30 25 H -1.5039 0.5442 -1.5049 0
M  V30 26 H -5.1084 -0.1726 -1.2144 0
M  V30 27 H -5.1135 -4.3176 -2.3297 0
M  V30 28 H -6.3491 -2.159 -2.0776 0
M  V30 29 H 3.0273 -2.2965 2.2375 0
M  V30 30 H 3.7888 0.0519 2.3126 0
M  V30 31 H 4.6072 1.8114 0.2961 0
M  V30 32 H 0.7005 2.9072 1.796 0
M  V30 33 H 5.2101 4.2159 0.4098 0
M  V30 34 H 1.4899 5.2595 1.8295 0
M  V30 END ATOM
M  V30 BEGIN BOND
M  V30 1 2 1 2
M  V30 2 1 2 3
M  V30 3 1 2 4
M  V30 4 2 3 5
M  V30 5 1 3 6
M  V30 6 2 4 7
M  V30 7 1 4 8
M  V30 8 1 5 9
M  V30 9 2 6 10
M  V30 10 1 7 11
M  V30 11 1 7 12
M  V30 12 2 8 13
M  V30 13 2 9 14
M  V30 14 2 11 15
M  V30 15 1 12 16
M  V30 16 1 15 17
M  V30 17 1 16 18
M  V30 18 2 18 19
M  V30 19 1 18 20
M  V30 20 1 19 21
M  V30 21 2 20 22
M  V30 22 2 21 23
M  V30 23 1 10 14
M  V30 24 1 12 13
M  V30 25 2 16 17
M  V30 26 1 22 23
M  V30 27 1 6 24
M  V30 28 1 8 25
M  V30 29 1 9 26
M  V30 30 1 10 27
M  V30 31 1 14 28
M  V30 32 1 15 29
M  V30 33 1 17 30
M  V30 34 1 19 31
M  V30 35 1 20 32
M  V30 36 1 21 33
M  V30 37 1 22 34
M  V30 END BOND
M  V30 END CTAB
M  END
>  <Column 1>
2237

>  <level_0>
2418

>  <index>
2418

>  <Unnamed: 0>
2418

>  <NO.>
2430

>  <Name>
ocinaplon

>  <IUPAC_name>
pyridin-2-yl-(7-pyridin-4-ylpyrazolo[1-5-a]pyrimidin-3-yl)methanone

>  <SMILES>
O=C(c1ccccn1)c1cnn2c(-c3ccncc3)ccnc12

>  <CID>
216456

>  <logBB>


>  <BBB+/BBB->
BBB+

>  <Inchi>
InChI=1S/C17H11N5O/c23-16(14-3-1-2-7-19-14)13-11-21-22-15(6-10-20-17(13)22)12-4-8-18-9-5-12/h1-11H

>  <threshold>
-1

>  <reference>
R1|R13|R19|R6|R24|R27|R27|R27|R30|R30|

>  <group>
B

>  <Class>
1

>  <ABC>
18.25

>  <ABCGG>
14.47

>  <nAcid>
0

>  <nBase>
0

>  <nAromAtom>
21

>  <nAromBond>
22

>  <nAtom>
34

>  <nHeavyAtom>
23

>  <nSpiro>
0

>  <nBridgehead>
0

>  <nHetero>
6

>  <nN>
5

>  <nO>
1

>  <nF>
0

>  <BalabanJ>
1.42

>  <BertzCT>
979.73

>  <nBonds>
37

>  <nBondsO>
26

>  <nBondsS>
14

>  <nBondsD>
1

>  <nBondsT>
0

>  <nBondsA>
22

>  <nBondsM>
23

>  <nBondsKS>
26

>  <nBondsKD>
11

>  <RNCG>
0.17

>  <RPCG>
0.13

>  <FCSP3>
0

>  <SZ>
26

>  <Sm>
25.09

>  <Sv>
24.48

>  <Sse>
34.53

>  <Sp>
25.17

>  <Si>
37.95

>  <MZ>
0.76

>  <Mm>
0.74

>  <Mv>
0.72

>  <Mse>
1.02

>  <Mp>
0.74

>  <Mi>
1.12

>  <NsCH3>
0

>  <NdCH2>
0

>  <NssCH2>
0

>  <NtCH>
0

>  <NdsCH>
0

>  <NaaCH>
11

>  <NsssCH>
0

>  <NddC>
0

>  <NtsC>
0

>  <NdssC>
1

>  <NaasC>
4

>  <NaaaC>
1

>  <NssssC>
0

>  <NsNH3>
0

>  <NsNH2>
0

>  <NssNH2>
0

>  <NdNH>
0

>  <NssNH>
0

>  <NaaNH>
0

>  <NtN>
0

>  <NsssNH>
0

>  <NdsN>
0

>  <NaaN>
4

>  <NsssN>
0

>  <NddsN>
0

>  <NaasN>
1

>  <NssssN>
0

>  <NsOH>
0

>  <NdO>
1

>  <NssO>
0

>  <NaaO>
0

>  <NsF>
0

>  <NsSiH3>
0

>  <NssSiH2>
0

>  <NsssSiH>
0

>  <NssssSi>
0

>  <NsPH2>
0

>  <NssPH>
0

>  <NsssP>
0

>  <NdsssP>
0

>  <NsssssP>
0

>  <NsSH>
0

>  <NdS>
0

>  <NssS>
0

>  <NaaS>
0

>  <NdssS>
0

>  <NddssS>
0

>  <NsCl>
0

>  <NsBr>
0

>  <NsI>
0

>  <fragCpx>
170.06

>  <fMF>
0.65

>  <nHBAcc>
6

>  <nHBDon>
0

>  <Kier1>
16.47

>  <Kier2>
7.49

>  <Lipinski>
1

>  <GhoseFilter>
1

>  <FilterItLogS>
-4.27

>  <VMcGowan>
215.42

>  <LabuteASA>
131.04

>  <PEOE_VSA1>
0

>  <PEOE_VSA2>
14.76

>  <PEOE_VSA3>
9.5

>  <PEOE_VSA4>
5.1

>  <PEOE_VSA5>
0

>  <PEOE_VSA6>
6.07

>  <PEOE_VSA7>
30.33

>  <PEOE_VSA8>
30.35

>  <PEOE_VSA9>
17.45

>  <PEOE_VSA10>
5.69

>  <PEOE_VSA11>
5.65

>  <PEOE_VSA12>
5.78

>  <PEOE_VSA13>
0

>  <SMR_VSA1>
4.79

>  <SMR_VSA2>
0

>  <SMR_VSA3>
24.57

>  <SMR_VSA4>
0

>  <SMR_VSA5>
0

>  <SMR_VSA6>
0

>  <SMR_VSA7>
78.64

>  <SMR_VSA8>
0

>  <SMR_VSA9>
11.26

>  <SlogP_VSA1>
0

>  <SlogP_VSA2>
30.35

>  <SlogP_VSA3>
0

>  <SlogP_VSA4>
0

>  <SlogP_VSA5>
16.05

>  <SlogP_VSA6>
67.38

>  <SlogP_VSA7>
0

>  <SlogP_VSA8>
16.9

>  <SlogP_VSA9>
0

>  <SlogP_VSA10>
0

>  <SlogP_VSA11>
0

>  <EState_VSA1>
0

>  <EState_VSA2>
5.78

>  <EState_VSA3>
16.9

>  <EState_VSA4>
11.26

>  <EState_VSA5>
6.2

>  <EState_VSA6>
47.5

>  <EState_VSA7>
18.2

>  <EState_VSA8>
20.05

>  <EState_VSA9>
0

>  <EState_VSA10>
4.79

>  <VSA_EState1>
1.66

>  <VSA_EState2>
25.03

>  <VSA_EState3>
4.33

>  <VSA_EState4>
3.11

>  <VSA_EState5>
-0.19

>  <VSA_EState6>
10.85

>  <VSA_EState7>
8.22

>  <VSA_EState8>
0

>  <VSA_EState9>
0

>  <apol>
42.03

>  <bpol>
17.03

>  <nRing>
4

>  <nHRing>
4

>  <naRing>
4

>  <naHRing>
4

>  <nARing 2>
0

>  <nAHRing 2>
0

>  <nFRing>
1

>  <nFHRing>
1

>  <nFaRing>
1

>  <nFaHRing>
1

>  <nFARing 2>
0

>  <nFAHRing 2>
0

>  <nRot>
3

>  <SLogP>
2.42

>  <SMR>
83.89

>  <TopoPSA(NO)>
73.04

>  <TopoPSA>
73.04

>  <JGI1>
0.1

>  <JGI2>
0.07

>  <JGI3>
0.04

>  <JGI4>
0.03

>  <JGI5>
0.02

>  <Diameter>
12

>  <Radius>
6

>  <TMWC10>
124.48

>  <TSRW10>
71.61

>  <MW>
301.1

>  <AMW>
8.86

>  <WPath>
1175

>  <WPol>
37

>  <Zagreb1>
124

>  <Zagreb2>
149

>  <mZagreb2>
5.08

>  <yes>


>  <nAR-cont>
0.336376

>  <nHA-cont>
0.967789328

>  <MWHBN>
0.345776817

>  <MWHBN-cont>
0.685955163

>  <TPSA-cont>
0.490135445

>  <pka_cont>
0.97

>  <yes.1>


>  <BBB_SCORE>
3.798368962

>  <MMFF94 Energy>
125.76

$$$$
Compound 1831
Actelion Java MolfileCreator 2.0

  0  0  0  0  0  0              0 V3000
M  V30 BEGIN CTAB
M  V30 COUNTS 26 27 0 0 0
M  V30 BEGIN ATOM
M  V30 1 O -2.3064 -1.0333 0.2384 0
M  V30 2 C -1.2784 -0.3739 0.1098 0
M  V30 3 N -0.1278 -0.5924 0.8546 0
M  V30 4 C -1.285 0.6924 -0.9013 0
M  V30 5 C -0.1 -1.7049 1.8065 0
M  V30 6 C 1.0074 0.3296 0.9848 0
M  V30 7 C -2.2363 1.6973 -0.8211 0
M  V30 8 C -0.4069 0.6845 -1.9855 0
M  V30 9 C 1.2687 -2.3921 1.8043 0
M  V30 10 C 2.3319 -0.4387 1.0058 0
M  V30 11 N -2.326 2.7123 -1.7154 0
M  V30 12 C -0.4877 1.7093 -2.9248 0
M  V30 13 O 2.3283 -1.4473 2.0271 0
M  V30 14 C -1.4509 2.6926 -2.7461 0
M  V30 15 H -0.8868 -2.4332 1.5869 0
M  V30 16 H -0.3013 -1.274 2.7944 0
M  V30 17 H 0.8674 0.8467 1.942 0
M  V30 18 H 1.0173 1.091 0.2041 0
M  V30 19 H -2.968 1.7192 -0.0179 0
M  V30 20 H 0.3193 -0.1137 -2.1041 0
M  V30 21 H 1.314 -3.1391 2.6028 0
M  V30 22 H 1.4483 -2.906 0.8526 0
M  V30 23 H 2.5268 -0.9135 0.037 0
M  V30 24 H 3.1585 0.2465 1.217 0
M  V30 25 H 0.1764 1.7381 -3.7816 0
M  V30 26 H -1.5525 3.5116 -3.4533 0
M  V30 END ATOM
M  V30 BEGIN BOND
M  V30 1 2 1 2
M  V30 2 1 2 3
M  V30 3 1 2 4
M  V30 4 1 3 5
M  V30 5 1 3 6
M  V30 6 2 4 7
M  V30 7 1 4 8
M  V30 8 1 5 9
M  V30 9 1 6 10
M  V30 10 1 7 11
M  V30 11 2 8 12
M  V30 12 1 9 13
M  V30 13 2 11 14
M  V30 14 1 10 13
M  V30 15 1 12 14
M  V30 16 1 5 15
M  V30 17 1 5 16
M  V30 18 1 6 17
M  V30 19 1 6 18
M  V30 20 1 7 19
M  V30 21 1 8 20
M  V30 22 1 9 21
M  V30 23 1 9 22
M  V30 24 1 10 23
M  V30 25 1 10 24
M  V30 26 1 12 25
M  V30 27 1 14 26
M  V30 END BOND
M  V30 END CTAB
M  END
>  <Column 1>
2238

>  <level_0>
2419

>  <index>
2419

>  <Unnamed: 0>
2419

>  <NO.>
2431

>  <Name>
nicopholine

>  <IUPAC_name>
morpholin-4-yl(pyridin-3-yl)methanone

>  <SMILES>
O=C(c1cccnc1)N1CCOCC1

>  <CID>
68116

>  <logBB>


>  <BBB+/BBB->
BBB+

>  <Inchi>
InChI=1S/C10H12N2O2/c13-10(9-2-1-3-11-8-9)12-4-6-14-7-5-12/h1-3-8H-4-7H2

>  <threshold>
-1

>  <reference>
R1|R13|R19|R6|R24|R27|R27|R27|R30|R30|

>  <group>
B

>  <Class>
1

>  <ABC>
10.64

>  <ABCGG>
9.2

>  <nAcid>
0

>  <nBase>
0

>  <nAromAtom>
6

>  <nAromBond>
6

>  <nAtom>
26

>  <nHeavyAtom>
14

>  <nSpiro>
0

>  <nBridgehead>
0

>  <nHetero>
4

>  <nN>
2

>  <nO>
2

>  <nF>
0

>  <BalabanJ>
1.82

>  <BertzCT>
307.16

>  <nBonds>
27

>  <nBondsO>
15

>  <nBondsS>
20

>  <nBondsD>
1

>  <nBondsT>
0

>  <nBondsA>
6

>  <nBondsM>
7

>  <nBondsKS>
23

>  <nBondsKD>
4

>  <RNCG>
0.28

>  <RPCG>
0.19

>  <FCSP3>
0.4

>  <SZ>
17

>  <Sm>
16

>  <Sv>
16.2

>  <Sse>
26.31

>  <Sp>
17.07

>  <Si>
29.49

>  <MZ>
0.65

>  <Mm>
0.62

>  <Mv>
0.62

>  <Mse>
1.01

>  <Mp>
0.66

>  <Mi>
1.13

>  <NsCH3>
0

>  <NdCH2>
0

>  <NssCH2>
4

>  <NtCH>
0

>  <NdsCH>
0

>  <NaaCH>
4

>  <NsssCH>
0

>  <NddC>
0

>  <NtsC>
0

>  <NdssC>
1

>  <NaasC>
1

>  <NaaaC>
0

>  <NssssC>
0

>  <NsNH3>
0

>  <NsNH2>
0

>  <NssNH2>
0

>  <NdNH>
0

>  <NssNH>
0

>  <NaaNH>
0

>  <NtN>
0

>  <NsssNH>
0

>  <NdsN>
0

>  <NaaN>
1

>  <NsssN>
1

>  <NddsN>
0

>  <NaasN>
0

>  <NssssN>
0

>  <NsOH>
0

>  <NdO>
1

>  <NssO>
1

>  <NaaO>
0

>  <NsF>
0

>  <NsSiH3>
0

>  <NssSiH2>
0

>  <NsssSiH>
0

>  <NssssSi>
0

>  <NsPH2>
0

>  <NssPH>
0

>  <NsssP>
0

>  <NdsssP>
0

>  <NsssssP>
0

>  <NsSH>
0

>  <NdS>
0

>  <NssS>
0

>  <NaaS>
0

>  <NdssS>
0

>  <NddssS>
0

>  <NsCl>
0

>  <NsBr>
0

>  <NsI>
0

>  <fragCpx>
43.04

>  <fMF>
0.5

>  <nHBAcc>
3

>  <nHBDon>
0

>  <Kier1>
10.52

>  <Kier2>
5.19

>  <Lipinski>
1

>  <GhoseFilter>
1

>  <FilterItLogS>
-1.56

>  <VMcGowan>
144.54

>  <LabuteASA>
82.5

>  <PEOE_VSA1>
9.64

>  <PEOE_VSA2>
9.78

>  <PEOE_VSA3>
0

>  <PEOE_VSA4>
0

>  <PEOE_VSA5>
0

>  <PEOE_VSA6>
0

>  <PEOE_VSA7>
12.13

>  <PEOE_VSA8>
25.48

>  <PEOE_VSA9>
18.78

>  <PEOE_VSA10>
0

>  <PEOE_VSA11>
0

>  <PEOE_VSA12>
0

>  <PEOE_VSA13>
5.91

>  <SMR_VSA1>
9.53

>  <SMR_VSA2>
0

>  <SMR_VSA3>
9.88

>  <SMR_VSA4>
0

>  <SMR_VSA5>
0

>  <SMR_VSA6>
26.3

>  <SMR_VSA7>
30.09

>  <SMR_VSA8>
0

>  <SMR_VSA9>
0

>  <SlogP_VSA1>
0

>  <SlogP_VSA2>
42.09

>  <SlogP_VSA3>
4.74

>  <SlogP_VSA4>
0

>  <SlogP_VSA5>
10.36

>  <SlogP_VSA6>
24.53

>  <SlogP_VSA7>
0

>  <SlogP_VSA8>
0

>  <SlogP_VSA9>
0

>  <SlogP_VSA10>
0

>  <SlogP_VSA11>
0

>  <EState_VSA1>
0

>  <EState_VSA2>
5.91

>  <EState_VSA3>
31.87

>  <EState_VSA4>
0

>  <EState_VSA5>
0

>  <EState_VSA6>
29.43

>  <EState_VSA7>
0

>  <EState_VSA8>
4.98

>  <EState_VSA9>
4.74

>  <EState_VSA10>
4.79

>  <VSA_EState1>
5.18

>  <VSA_EState2>
17.54

>  <VSA_EState3>
0

>  <VSA_EState4>
0.65

>  <VSA_EState5>
0.04

>  <VSA_EState6>
3.55

>  <VSA_EState7>
3.26

>  <VSA_EState8>
2.61

>  <VSA_EState9>
0

>  <apol>
28.51

>  <bpol>
17.49

>  <nRing>
2

>  <nHRing>
2

>  <naRing>
1

>  <naHRing>
1

>  <nARing 2>
1

>  <nAHRing 2>
1

>  <nFRing>
0

>  <nFHRing>
0

>  <nFaRing>
0

>  <nFaHRing>
0

>  <nFARing 2>
0

>  <nFAHRing 2>
0

>  <nRot>
1

>  <SLogP>
0.55

>  <SMR>
50.96

>  <TopoPSA(NO)>
42.43

>  <TopoPSA>
42.43

>  <JGI1>
0.1

>  <JGI2>
0.07

>  <JGI3>
0.05

>  <JGI4>
0.03

>  <JGI5>
0.01

>  <Diameter>
8

>  <Radius>
4

>  <TMWC10>
96.8

>  <TSRW10>
45.22

>  <MW>
192.09

>  <AMW>
7.39

>  <WPath>
307

>  <WPol>
18

>  <Zagreb1>
68

>  <Zagreb2>
77

>  <mZagreb2>
3.22

>  <yes>


>  <nAR-cont>
0.816016

>  <nHA-cont>
0.887625254

>  <MWHBN>
0.216455625

>  <MWHBN-cont>
0.996955229

>  <TPSA-cont>
0.703812253

>  <pka_cont>
0.97

>  <yes.1>


>  <BBB_SCORE>
5.091698603

>  <MMFF94 Energy>
69.025

$$$$
Compound 1832
Actelion Java MolfileCreator 2.0

  0  0  0  0  0  0              0 V3000
M  V30 BEGIN CTAB
M  V30 COUNTS 52 55 0 0 0
M  V30 BEGIN ATOM
M  V30 1 O 1.278 -2.2374 -3.3575 0
M  V30 2 C 1.3947 -1.0083 -3.4024 0
M  V30 3 N 1.2617 -0.2516 -2.223 0
M  V30 4 C 1.6726 -0.3627 -4.6809 0
M  V30 5 C 1.545 1.1285 -2.1496 0
M  V30 6 C 0.72 -0.9077 -1.0156 0
M  V30 7 O 1.457 0.9745 -4.8766 0
M  V30 8 C 2.1071 -0.9214 -5.8722 0
M  V30 9 N 0.5493 1.9816 -1.8148 0
M  V30 10 C 2.8539 1.5851 -2.3258 0
M  V30 11 C 1.3062 -0.4106 0.3171 0
M  V30 12 C -0.8149 -0.8731 -0.991 0
M  V30 13 C 1.7809 1.2613 -6.1619 0
M  V30 14 C 2.1878 0.1266 -6.8192 0
M  V30 15 C 0.8986 3.2855 -1.7152 0
M  V30 16 N 3.2095 2.8895 -2.2077 0
M  V30 17 C 0.6673 -1.1473 1.4962 0
M  V30 18 C -1.3522 -1.5923 0.2464 0
M  V30 19 C 2.196 3.7296 -1.907 0
M  V30 20 N -0.8 -1.0907 1.514 0
M  V30 21 C -1.3499 0.2351 1.8614 0
M  V30 22 C -1.1396 0.6659 3.3269 0
M  V30 23 C -1.9825 -0.1025 4.3179 0
M  V30 24 C -3.1938 0.4275 4.7841 0
M  V30 25 C -1.5735 -1.3609 4.7774 0
M  V30 26 C -3.974 -0.2838 5.6975 0
M  V30 27 C -2.3549 -2.0718 5.6896 0
M  V30 28 C -3.554 -1.5326 6.1509 0
M  V30 29 H 1.0032 -1.9673 -1.0814 0
M  V30 30 H 2.3336 -1.9685 -6.0239 0
M  V30 31 H 3.6648 0.905 -2.5613 0
M  V30 32 H 1.1617 0.6668 0.447 0
M  V30 33 H 2.39 -0.5795 0.3272 0
M  V30 34 H -1.2142 -1.3567 -1.8908 0
M  V30 35 H -1.1828 0.1586 -1.0107 0
M  V30 36 H 1.6658 2.2965 -6.4526 0
M  V30 37 H 2.4944 0.0614 -7.8537 0
M  V30 38 H 0.0968 3.9729 -1.4702 0
M  V30 39 H 1.0892 -0.7729 2.4345 0
M  V30 40 H 0.9675 -2.2029 1.4569 0
M  V30 41 H -1.1183 -2.6622 0.1672 0
M  V30 42 H -2.4478 -1.5394 0.2599 0
M  V30 43 H 2.4556 4.7785 -1.8199 0
M  V30 44 H -2.4325 0.2352 1.6752 0
M  V30 45 H -0.9306 1.0106 1.2101 0
M  V30 46 H -0.0858 0.6093 3.6209 0
M  V30 47 H -1.3946 1.7313 3.4067 0
M  V30 48 H -3.5387 1.3988 4.438 0
M  V30 49 H -0.6464 -1.7989 4.4154 0
M  V30 50 H -4.9111 0.1356 6.0532 0
M  V30 51 H -2.0288 -3.049 6.0348 0
M  V30 52 H -4.1626 -2.0876 6.8594 0
M  V30 END ATOM
M  V30 BEGIN BOND
M  V30 1 2 1 2
M  V30 2 1 2 3
M  V30 3 1 2 4
M  V30 4 1 3 5
M  V30 5 1 3 6
M  V30 6 1 4 7
M  V30 7 2 4 8
M  V30 8 2 5 9
M  V30 9 1 5 10
M  V30 10 1 6 11
M  V30 11 1 6 12
M  V30 12 1 7 13
M  V30 13 1 8 14
M  V30 14 1 9 15
M  V30 15 2 10 16
M  V30 16 1 11 17
M  V30 17 1 12 18
M  V30 18 2 15 19
M  V30 19 1 17 20
M  V30 20 1 20 21
M  V30 21 1 21 22
M  V30 22 1 22 23
M  V30 23 2 23 24
M  V30 24 1 23 25
M  V30 25 1 24 26
M  V30 26 2 25 27
M  V30 27 2 26 28
M  V30 28 2 13 14
M  V30 29 1 16 19
M  V30 30 1 18 20
M  V30 31 1 27 28
M  V30 32 1 6 29
M  V30 33 1 8 30
M  V30 34 1 10 31
M  V30 35 1 11 32
M  V30 36 1 11 33
M  V30 37 1 12 34
M  V30 38 1 12 35
M  V30 39 1 13 36
M  V30 40 1 14 37
M  V30 41 1 15 38
M  V30 42 1 17 39
M  V30 43 1 17 40
M  V30 44 1 18 41
M  V30 45 1 18 42
M  V30 46 1 19 43
M  V30 47 1 21 44
M  V30 48 1 21 45
M  V30 49 1 22 46
M  V30 50 1 22 47
M  V30 51 1 24 48
M  V30 52 1 25 49
M  V30 53 1 26 50
M  V30 54 1 27 51
M  V30 55 1 28 52
M  V30 END BOND
M  V30 END CTAB
M  END
>  <Column 1>
2239

>  <level_0>
2420

>  <index>
2420

>  <Unnamed: 0>
2420

>  <NO.>
2432

>  <Name>
mirfentanil

>  <IUPAC_name>
n-[1-(2-phenylethyl)piperidin-4-yl]-n-pyrazin-2-ylfuran-2-carboxamide

>  <SMILES>
O=C(c1ccco1)N(c1cnccn1)C1CCN(CCc2ccccc2)CC1

>  <CID>
60698

>  <logBB>


>  <BBB+/BBB->
BBB+

>  <Inchi>
InChI=1S/C22H24N4O2/c27-22(20-7-4-16-28-20)26(21-17-23-11-12-24-21)19-9-14-25(15-10-19)13-8-18-5-2-1-3-6-18/h1-7-11-12-16-17-19H-8-10-13-15H2

>  <threshold>
-1

>  <reference>
R1|R13|R19|R6|R24|R27|R27|R27|R30|R30|

>  <group>
B

>  <Class>
1

>  <ABC>
21.87

>  <ABCGG>
16.79

>  <nAcid>
0

>  <nBase>
1

>  <nAromAtom>
17

>  <nAromBond>
17

>  <nAtom>
52

>  <nHeavyAtom>
28

>  <nSpiro>
0

>  <nBridgehead>
0

>  <nHetero>
6

>  <nN>
4

>  <nO>
2

>  <nF>
0

>  <BalabanJ>
1.29

>  <BertzCT>
860.08

>  <nBonds>
55

>  <nBondsO>
31

>  <nBondsS>
37

>  <nBondsD>
1

>  <nBondsT>
0

>  <nBondsA>
17

>  <nBondsM>
18

>  <nBondsKS>
46

>  <nBondsKD>
9

>  <RNCG>
0.2

>  <RPCG>
0.13

>  <FCSP3>
0.32

>  <SZ>
33.33

>  <Sm>
31.34

>  <Sv>
32.96

>  <Sse>
51.97

>  <Sp>
35.18

>  <Si>
58.57

>  <MZ>
0.64

>  <Mm>
0.6

>  <Mv>
0.63

>  <Mse>
1

>  <Mp>
0.68

>  <Mi>
1.13

>  <NsCH3>
0

>  <NdCH2>
0

>  <NssCH2>
6

>  <NtCH>
0

>  <NdsCH>
0

>  <NaaCH>
11

>  <NsssCH>
1

>  <NddC>
0

>  <NtsC>
0

>  <NdssC>
1

>  <NaasC>
3

>  <NaaaC>
0

>  <NssssC>
0

>  <NsNH3>
0

>  <NsNH2>
0

>  <NssNH2>
0

>  <NdNH>
0

>  <NssNH>
0

>  <NaaNH>
0

>  <NtN>
0

>  <NsssNH>
0

>  <NdsN>
0

>  <NaaN>
2

>  <NsssN>
2

>  <NddsN>
0

>  <NaasN>
0

>  <NssssN>
0

>  <NsOH>
0

>  <NdO>
1

>  <NssO>
0

>  <NaaO>
1

>  <NsF>
0

>  <NsSiH3>
0

>  <NssSiH2>
0

>  <NsssSiH>
0

>  <NssssSi>
0

>  <NsPH2>
0

>  <NssPH>
0

>  <NsssP>
0

>  <NdsssP>
0

>  <NsssssP>
0

>  <NsSH>
0

>  <NdS>
0

>  <NssS>
0

>  <NaaS>
0

>  <NdssS>
0

>  <NddssS>
0

>  <NsCl>
0

>  <NsBr>
0

>  <NsI>
0

>  <fragCpx>
205.06

>  <fMF>
0.52

>  <nHBAcc>
5

>  <nHBDon>
0

>  <Kier1>
21.24

>  <Kier2>
10.86

>  <Lipinski>
1

>  <GhoseFilter>
1

>  <FilterItLogS>
-4.76

>  <VMcGowan>
290.36

>  <LabuteASA>
164.37

>  <PEOE_VSA1>
9.32

>  <PEOE_VSA2>
14.68

>  <PEOE_VSA3>
4.98

>  <PEOE_VSA4>
0

>  <PEOE_VSA5>
0

>  <PEOE_VSA6>
30.33

>  <PEOE_VSA7>
36.96

>  <PEOE_VSA8>
38.07

>  <PEOE_VSA9>
12.46

>  <PEOE_VSA10>
0

>  <PEOE_VSA11>
11.58

>  <PEOE_VSA12>
0

>  <PEOE_VSA13>
5.91

>  <SMR_VSA1>
9.21

>  <SMR_VSA2>
0

>  <SMR_VSA3>
14.87

>  <SMR_VSA4>
0

>  <SMR_VSA5>
25.3

>  <SMR_VSA6>
24.53

>  <SMR_VSA7>
78.64

>  <SMR_VSA8>
0

>  <SMR_VSA9>
0

>  <SlogP_VSA1>
4.9

>  <SlogP_VSA2>
46.45

>  <SlogP_VSA3>
6.42

>  <SlogP_VSA4>
0

>  <SlogP_VSA5>
28.96

>  <SlogP_VSA6>
71.74

>  <SlogP_VSA7>
0

>  <SlogP_VSA8>
0

>  <SlogP_VSA9>
0

>  <SlogP_VSA10>
5.82

>  <SlogP_VSA11>
0

>  <EState_VSA1>
0

>  <EState_VSA2>
11.95

>  <EState_VSA3>
11.58

>  <EState_VSA4>
38.9

>  <EState_VSA5>
11.83

>  <EState_VSA6>
35.62

>  <EState_VSA7>
6.07

>  <EState_VSA8>
39.13

>  <EState_VSA9>
4.42

>  <EState_VSA10>
4.79

>  <VSA_EState1>
5.35

>  <VSA_EState2>
25.78

>  <VSA_EState3>
0

>  <VSA_EState4>
1.36

>  <VSA_EState5>
0.75

>  <VSA_EState6>
14.07

>  <VSA_EState7>
9.25

>  <VSA_EState8>
2.95

>  <VSA_EState9>
0

>  <apol>
58.75

>  <bpol>
32.38

>  <nRing>
4

>  <nHRing>
3

>  <naRing>
3

>  <naHRing>
2

>  <nARing 2>
1

>  <nAHRing 2>
1

>  <nFRing>
0

>  <nFHRing>
0

>  <nFaRing>
0

>  <nFaHRing>
0

>  <nFARing 2>
0

>  <nFAHRing 2>
0

>  <nRot>
6

>  <SLogP>
3.42

>  <SMR>
107.16

>  <TopoPSA(NO)>
62.47

>  <TopoPSA>
62.47

>  <JGI1>
0.11

>  <JGI2>
0.06

>  <JGI3>
0.04

>  <JGI4>
0.04

>  <JGI5>
0.01

>  <Diameter>
14

>  <Radius>
7

>  <TMWC10>
134.57

>  <TSRW10>
76.17

>  <MW>
376.19

>  <AMW>
7.23

>  <WPath>
2220

>  <WPol>
40

>  <Zagreb1>
144

>  <Zagreb2>
167

>  <mZagreb2>
6.28

>  <yes>


>  <nAR-cont>
0.816016

>  <nHA-cont>
0.82432561

>  <MWHBN>
0.257790187

>  <MWHBN-cont>
0.945735669

>  <TPSA-cont>
0.563920608

>  <pka_cont>
0.97

>  <yes.1>


>  <BBB_SCORE>
4.671786331

>  <MMFF94 Energy>
92.285

$$$$
Compound 1833
Actelion Java MolfileCreator 2.0

  0  0  0  0  0  0              0 V3000
M  V30 BEGIN CTAB
M  V30 COUNTS 38 40 0 0 0
M  V30 BEGIN ATOM
M  V30 1 Cl 1.0577 4.4809 1.5462 0
M  V30 2 C 1.2771 2.8987 0.9097 0
M  V30 3 C 0.3648 1.8948 1.221 0
M  V30 4 C 2.3731 2.6278 0.0974 0
M  V30 5 C 0.5416 0.6024 0.7012 0
M  V30 6 C 2.5543 1.3423 -0.4188 0
M  V30 7 C -0.4298 -0.4531 1.1061 0
M  V30 8 C 1.6363 0.3175 -0.1371 0
M  V30 9 N -0.1092 -1.6406 1.4982 0
M  V30 10 C -1.8697 -0.1183 1.0481 0
M  V30 11 N 1.8387 -0.9679 -0.7136 0
M  V30 12 C 1.3081 -1.9959 1.5248 0 CFG=2
M  V30 13 C -2.6231 -0.0619 2.2188 0
M  V30 14 C -2.4706 0.1288 -0.1897 0
M  V30 15 C 1.7581 -2.1482 0.0388 0
M  V30 16 C 2.1637 -1.0751 -2.144 0
M  V30 17 O 1.5445 -3.1968 2.2415 0
M  V30 18 F -2.0517 -0.2566 3.4157 0
M  V30 19 C -3.9789 0.2486 2.1655 0
M  V30 20 C -3.8313 0.4381 -0.2432 0
M  V30 21 O 2.0246 -3.2575 -0.4359 0
M  V30 22 C 1.2416 -0.2865 -3.0857 0
M  V30 23 C -4.5842 0.4985 0.9325 0
M  V30 24 O -0.1107 -0.7144 -2.9592 0
M  V30 25 H -0.4644 2.1185 1.8877 0
M  V30 26 H 3.095 3.4083 -0.1314 0
M  V30 27 H 3.432 1.1527 -1.0319 0
M  V30 28 H 1.9173 -1.2336 2.0224 0
M  V30 29 H -1.8935 0.0586 -1.108 0
M  V30 30 H 2.1156 -2.1273 -2.4455 0
M  V30 31 H 3.2043 -0.76 -2.2806 0
M  V30 32 H 0.9803 -3.8446 1.7837 0
M  V30 33 H -4.5541 0.2942 3.0852 0
M  V30 34 H -4.3089 0.6215 -1.2031 0
M  V30 35 H 1.2785 0.7891 -2.8939 0
M  V30 36 H 1.5576 -0.4562 -4.1206 0
M  V30 37 H -5.6449 0.7354 0.8872 0
M  V30 38 H -0.5953 -0.3646 -3.7266 0
M  V30 END ATOM
M  V30 BEGIN BOND
M  V30 1 1 1 2
M  V30 2 2 2 3
M  V30 3 1 2 4
M  V30 4 1 3 5
M  V30 5 2 4 6
M  V30 6 1 5 7
M  V30 7 2 5 8
M  V30 8 2 7 9
M  V30 9 1 7 10
M  V30 10 1 8 11
M  V30 11 1 9 12
M  V30 12 2 10 13
M  V30 13 1 10 14
M  V30 14 1 11 15
M  V30 15 1 11 16
M  V30 16 1 12 17
M  V30 17 1 13 18
M  V30 18 1 13 19
M  V30 19 2 14 20
M  V30 20 2 15 21
M  V30 21 1 16 22
M  V30 22 2 19 23
M  V30 23 1 22 24
M  V30 24 1 6 8
M  V30 25 1 12 15
M  V30 26 1 20 23
M  V30 27 1 3 25
M  V30 28 1 4 26
M  V30 29 1 6 27
M  V30 30 1 12 28
M  V30 31 1 14 29
M  V30 32 1 16 30
M  V30 33 1 16 31
M  V30 34 1 17 32
M  V30 35 1 19 33
M  V30 36 1 20 34
M  V30 37 1 22 35
M  V30 38 1 22 36
M  V30 39 1 23 37
M  V30 40 1 24 38
M  V30 END BOND
M  V30 BEGIN COLLECTION
M  V30 MDLV30/STERAC1 ATOMS=(1 12)
M  V30 END COLLECTION
M  V30 END CTAB
M  END
>  <Column 1>
2240

>  <level_0>
2421

>  <index>
2421

>  <Unnamed: 0>
2421

>  <NO.>
2433

>  <Name>
doxefazepam

>  <IUPAC_name>
7-chloro-5-(2-fluorophenyl)-3-hydroxy-1-(2-hydroxyethyl)-3h-1-4-benzodiazepin-2-one

>  <SMILES>
O=C1C(O)N=C(c2ccccc2F)c2cc(Cl)ccc2N1CCO

>  <CID>
38668

>  <logBB>


>  <BBB+/BBB->
BBB+

>  <Inchi>
InChI=1S/C17H14ClFN2O3/c18-10-5-6-14-12(9-10)15(11-3-1-2-4-13(11)19)20-16(23)17(24)21(14)7-8-22/h1-6-9-16-22-23H-7-8H2

>  <threshold>
-1

>  <reference>
R1|R19|R6|R27|R27|R30|

>  <group>
B

>  <Class>
1

>  <ABC>
18.54

>  <ABCGG>
15.63

>  <nAcid>
0

>  <nBase>
0

>  <nAromAtom>
12

>  <nAromBond>
12

>  <nAtom>
38

>  <nHeavyAtom>
24

>  <nSpiro>
0

>  <nBridgehead>
0

>  <nHetero>
7

>  <nN>
2

>  <nO>
3

>  <nF>
1

>  <BalabanJ>
1.89

>  <BertzCT>
825.23

>  <nBonds>
40

>  <nBondsO>
26

>  <nBondsS>
26

>  <nBondsD>
2

>  <nBondsT>
0

>  <nBondsA>
12

>  <nBondsM>
14

>  <nBondsKS>
32

>  <nBondsKD>
8

>  <RNCG>
0.18

>  <RPCG>
0.13

>  <FCSP3>
0.18

>  <SZ>
30

>  <Sm>
29.04

>  <Sv>
26.19

>  <Sse>
39.26

>  <Sp>
26.99

>  <Si>
42.82

>  <MZ>
0.79

>  <Mm>
0.76

>  <Mv>
0.69

>  <Mse>
1.03

>  <Mp>
0.71

>  <Mi>
1.13

>  <NsCH3>
0

>  <NdCH2>
0

>  <NssCH2>
2

>  <NtCH>
0

>  <NdsCH>
0

>  <NaaCH>
7

>  <NsssCH>
1

>  <NddC>
0

>  <NtsC>
0

>  <NdssC>
2

>  <NaasC>
5

>  <NaaaC>
0

>  <NssssC>
0

>  <NsNH3>
0

>  <NsNH2>
0

>  <NssNH2>
0

>  <NdNH>
0

>  <NssNH>
0

>  <NaaNH>
0

>  <NtN>
0

>  <NsssNH>
0

>  <NdsN>
1

>  <NaaN>
0

>  <NsssN>
1

>  <NddsN>
0

>  <NaasN>
0

>  <NssssN>
0

>  <NsOH>
2

>  <NdO>
1

>  <NssO>
0

>  <NaaO>
0

>  <NsF>
1

>  <NsSiH3>
0

>  <NssSiH2>
0

>  <NsssSiH>
0

>  <NssssSi>
0

>  <NsPH2>
0

>  <NssPH>
0

>  <NsssP>
0

>  <NdsssP>
0

>  <NsssssP>
0

>  <NsSH>
0

>  <NdS>
0

>  <NssS>
0

>  <NaaS>
0

>  <NdssS>
0

>  <NddssS>
0

>  <NsCl>
1

>  <NsBr>
0

>  <NsI>
0

>  <fragCpx>
124.07

>  <fMF>
0.45

>  <nHBAcc>
4

>  <nHBDon>
2

>  <Kier1>
18.78

>  <Kier2>
8.13

>  <Lipinski>
1

>  <GhoseFilter>
1

>  <FilterItLogS>
-4.23

>  <VMcGowan>
234.98

>  <LabuteASA>
142.18

>  <PEOE_VSA1>
15.11

>  <PEOE_VSA2>
4.79

>  <PEOE_VSA3>
9.38

>  <PEOE_VSA4>
0

>  <PEOE_VSA5>
0

>  <PEOE_VSA6>
23.73

>  <PEOE_VSA7>
30.33

>  <PEOE_VSA8>
22.69

>  <PEOE_VSA9>
18.01

>  <PEOE_VSA10>
5.82

>  <PEOE_VSA11>
0

>  <PEOE_VSA12>
6.23

>  <PEOE_VSA13>
5.91

>  <SMR_VSA1>
19.4

>  <SMR_VSA2>
0

>  <SMR_VSA3>
0

>  <SMR_VSA4>
4.99

>  <SMR_VSA5>
6.23

>  <SMR_VSA6>
18.05

>  <SMR_VSA7>
64.43

>  <SMR_VSA8>
0

>  <SMR_VSA9>
0

>  <SlogP_VSA1>
4.9

>  <SlogP_VSA2>
41.21

>  <SlogP_VSA3>
4.79

>  <SlogP_VSA4>
5.82

>  <SlogP_VSA5>
11.13

>  <SlogP_VSA6>
47.46

>  <SlogP_VSA7>
5.02

>  <SlogP_VSA8>
0

>  <SlogP_VSA9>
0

>  <SlogP_VSA10>
10.08

>  <SlogP_VSA11>
0

>  <EState_VSA1>
17.95

>  <EState_VSA2>
24.43

>  <EState_VSA3>
16.27

>  <EState_VSA4>
0

>  <EState_VSA5>
23.1

>  <EState_VSA6>
24.27

>  <EState_VSA7>
0

>  <EState_VSA8>
4.99

>  <EState_VSA9>
11.6

>  <EState_VSA10>
19.4

>  <VSA_EState1>
14.24

>  <VSA_EState2>
17.6

>  <VSA_EState3>
19.71

>  <VSA_EState4>
1.09

>  <VSA_EState5>
-1.23

>  <VSA_EState6>
10.67

>  <VSA_EState7>
-1.7

>  <VSA_EState8>
-0.32

>  <VSA_EState9>
0

>  <apol>
45.07

>  <bpol>
19.39

>  <nRing>
3

>  <nHRing>
1

>  <naRing>
2

>  <naHRing>
0

>  <nARing 2>
1

>  <nAHRing 2>
1

>  <nFRing>
1

>  <nFHRing>
1

>  <nFaRing>
0

>  <nFaHRing>
0

>  <nFARing 2>
1

>  <nFAHRing 2>
1

>  <nRot>
3

>  <SLogP>
1.97

>  <SMR>
88.94

>  <TopoPSA(NO)>
73.13

>  <TopoPSA>
73.13

>  <JGI1>
0.17

>  <JGI2>
0.09

>  <JGI3>
0.05

>  <JGI4>
0.05

>  <JGI5>
0.03

>  <Diameter>
10

>  <Radius>
5

>  <TMWC10>
125.87

>  <TSRW10>
66.91

>  <MW>
348.07

>  <AMW>
9.16

>  <WPath>
1168

>  <WPol>
45

>  <Zagreb1>
126

>  <Zagreb2>
151

>  <mZagreb2>
5.36

>  <yes>


>  <nAR-cont>
0.816016

>  <nHA-cont>
0.94700071

>  <MWHBN>
0.321601417

>  <MWHBN-cont>
0.771770472

>  <TPSA-cont>
0.489507189

>  <pka_cont>
0.97

>  <yes.1>


>  <BBB_SCORE>
4.384686796

>  <MMFF94 Energy>
124.22

$$$$
Compound 1834
Actelion Java MolfileCreator 2.0

  0  0  0  0  0  0              0 V3000
M  V30 BEGIN CTAB
M  V30 COUNTS 22 23 0 0 0
M  V30 BEGIN ATOM
M  V30 1 Br 0.8191 4.2652 1.8848 0
M  V30 2 C 0.9066 2.6983 0.8299 0
M  V30 3 C -0.0165 1.6719 1.0382 0
M  V30 4 C 1.8902 2.5792 -0.1478 0
M  V30 5 C 0.0336 0.5028 0.2617 0
M  V30 6 C 1.9525 1.4227 -0.9227 0
M  V30 7 C 1.0322 0.3913 -0.7204 0
M  V30 8 C -0.9802 -0.5981 0.4997 0 CFG=2
M  V30 9 C -0.3413 -1.9154 0.8819 0
M  V30 10 C -1.8122 -0.9422 -0.7401 0
M  V30 11 O 0.3385 -2.132 1.8721 0
M  V30 12 N -0.6334 -2.8368 -0.0704 0
M  V30 13 C -1.4354 -2.3604 -1.0519 0
M  V30 14 O -1.8103 -2.9947 -2.0237 0
M  V30 15 H -0.7738 1.7834 1.8117 0
M  V30 16 H 2.6114 3.3757 -0.3108 0
M  V30 17 H 2.7219 1.3226 -1.6848 0
M  V30 18 H 1.1121 -0.4998 -1.34 0
M  V30 19 H -1.6586 -0.3141 1.3145 0
M  V30 20 H -1.6159 -0.2991 -1.6029 0
M  V30 21 H -2.8828 -0.913 -0.5095 0
M  V30 22 H -0.2858 -3.7824 -0.0479 0
M  V30 END ATOM
M  V30 BEGIN BOND
M  V30 1 1 1 2
M  V30 2 2 2 3
M  V30 3 1 2 4
M  V30 4 1 3 5
M  V30 5 2 4 6
M  V30 6 2 5 7
M  V30 7 1 5 8
M  V30 8 1 8 9
M  V30 9 1 8 10
M  V30 10 2 9 11
M  V30 11 1 9 12
M  V30 12 1 10 13
M  V30 13 2 13 14
M  V30 14 1 6 7
M  V30 15 1 12 13
M  V30 16 1 3 15
M  V30 17 1 4 16
M  V30 18 1 6 17
M  V30 19 1 7 18
M  V30 20 1 8 19
M  V30 21 1 10 20
M  V30 22 1 10 21
M  V30 23 1 12 22
M  V30 END BOND
M  V30 BEGIN COLLECTION
M  V30 MDLV30/STERAC1 ATOMS=(1 8)
M  V30 END COLLECTION
M  V30 END CTAB
M  END
>  <Column 1>
2241

>  <level_0>
2422

>  <index>
2422

>  <Unnamed: 0>
2422

>  <NO.>
2434

>  <Name>
brosuximide

>  <IUPAC_name>
3-(3-bromophenyl)pyrrolidine-2-5-dione

>  <SMILES>
O=C1CC(c2cccc(Br)c2)C(=O)N1

>  <CID>
65706

>  <logBB>


>  <BBB+/BBB->
BBB+

>  <Inchi>
InChI=1S/C10H8BrNO2/c11-7-3-1-2-6(4-7)8-5-9(13)12-10(8)14/h1-4-8H-5H2-(H-12-13-14)

>  <threshold>
-1

>  <reference>
R1|R19|R6|R27|R27|R30|

>  <group>
B

>  <Class>
1

>  <ABC>
10.85

>  <ABCGG>
9.87

>  <nAcid>
0

>  <nBase>
0

>  <nAromAtom>
6

>  <nAromBond>
6

>  <nAtom>
22

>  <nHeavyAtom>
14

>  <nSpiro>
0

>  <nBridgehead>
0

>  <nHetero>
4

>  <nN>
1

>  <nO>
2

>  <nF>
0

>  <BalabanJ>
1.93

>  <BertzCT>
402.86

>  <nBonds>
23

>  <nBondsO>
15

>  <nBondsS>
15

>  <nBondsD>
2

>  <nBondsT>
0

>  <nBondsA>
6

>  <nBondsM>
8

>  <nBondsKS>
18

>  <nBondsKD>
5

>  <RNCG>
0.26

>  <RPCG>
0.21

>  <FCSP3>
0.2

>  <SZ>
21

>  <Sm>
21.15

>  <Sv>
15.64

>  <Sse>
22.55

>  <Sp>
16.64

>  <Si>
24.42

>  <MZ>
0.95

>  <Mm>
0.96

>  <Mv>
0.71

>  <Mse>
1.02

>  <Mp>
0.76

>  <Mi>
1.11

>  <NsCH3>
0

>  <NdCH2>
0

>  <NssCH2>
1

>  <NtCH>
0

>  <NdsCH>
0

>  <NaaCH>
4

>  <NsssCH>
1

>  <NddC>
0

>  <NtsC>
0

>  <NdssC>
2

>  <NaasC>
2

>  <NaaaC>
0

>  <NssssC>
0

>  <NsNH3>
0

>  <NsNH2>
0

>  <NssNH2>
0

>  <NdNH>
0

>  <NssNH>
1

>  <NaaNH>
0

>  <NtN>
0

>  <NsssNH>
0

>  <NdsN>
0

>  <NaaN>
0

>  <NsssN>
0

>  <NddsN>
0

>  <NaasN>
0

>  <NssssN>
0

>  <NsOH>
0

>  <NdO>
2

>  <NssO>
0

>  <NaaO>
0

>  <NsF>
0

>  <NsSiH3>
0

>  <NssSiH2>
0

>  <NsssSiH>
0

>  <NssssSi>
0

>  <NsPH2>
0

>  <NssPH>
0

>  <NsssP>
0

>  <NdsssP>
0

>  <NsssssP>
0

>  <NsSH>
0

>  <NdS>
0

>  <NssS>
0

>  <NaaS>
0

>  <NdssS>
0

>  <NddssS>
0

>  <NsCl>
0

>  <NsBr>
1

>  <NsI>
0

>  <fragCpx>
43.04

>  <fMF>
0.5

>  <nHBAcc>
2

>  <nHBDon>
1

>  <Kier1>
10.52

>  <Kier2>
4.24

>  <Lipinski>
1

>  <GhoseFilter>
1

>  <FilterItLogS>
-3.36

>  <VMcGowan>
147.76

>  <LabuteASA>
89.63

>  <PEOE_VSA1>
0

>  <PEOE_VSA2>
14.91

>  <PEOE_VSA3>
0

>  <PEOE_VSA4>
0

>  <PEOE_VSA5>
0

>  <PEOE_VSA6>
28.06

>  <PEOE_VSA7>
17.7

>  <PEOE_VSA8>
10.89

>  <PEOE_VSA9>
5.92

>  <PEOE_VSA10>
0

>  <PEOE_VSA11>
0

>  <PEOE_VSA12>
11.81

>  <PEOE_VSA13>
0

>  <SMR_VSA1>
9.59

>  <SMR_VSA2>
0

>  <SMR_VSA3>
5.32

>  <SMR_VSA4>
0

>  <SMR_VSA5>
12.34

>  <SMR_VSA6>
0

>  <SMR_VSA7>
34.3

>  <SMR_VSA8>
0

>  <SMR_VSA9>
0

>  <SlogP_VSA1>
5.32

>  <SlogP_VSA2>
11.81

>  <SlogP_VSA3>
9.59

>  <SlogP_VSA4>
0

>  <SlogP_VSA5>
17.9

>  <SlogP_VSA6>
28.74

>  <SlogP_VSA7>
0

>  <SlogP_VSA8>
0

>  <SlogP_VSA9>
0

>  <SlogP_VSA10>
0

>  <SlogP_VSA11>
0

>  <EState_VSA1>
0

>  <EState_VSA2>
24.15

>  <EState_VSA3>
0

>  <EState_VSA4>
10.04

>  <EState_VSA5>
0

>  <EState_VSA6>
0

>  <EState_VSA7>
24.27

>  <EState_VSA8>
21.25

>  <EState_VSA9>
0

>  <EState_VSA10>
9.59

>  <VSA_EState1>
0.92

>  <VSA_EState2>
22.33

>  <VSA_EState3>
2.29

>  <VSA_EState4>
0.88

>  <VSA_EState5>
-0.71

>  <VSA_EState6>
7.46

>  <VSA_EState7>
0.26

>  <VSA_EState8>
0

>  <VSA_EState9>
0

>  <apol>
27.79

>  <bpol>
11.71

>  <nRing>
2

>  <nHRing>
1

>  <naRing>
1

>  <naHRing>
0

>  <nARing 2>
1

>  <nAHRing 2>
1

>  <nFRing>
0

>  <nFHRing>
0

>  <nFaRing>
0

>  <nFaHRing>
0

>  <nFARing 2>
0

>  <nFAHRing 2>
0

>  <nRot>
1

>  <SLogP>
1.58

>  <SMR>
54.65

>  <TopoPSA(NO)>
46.17

>  <TopoPSA>
46.17

>  <JGI1>
0.23

>  <JGI2>
0.07

>  <JGI3>
0.07

>  <JGI4>
0.04

>  <JGI5>
0.03

>  <Diameter>
7

>  <Radius>
4

>  <TMWC10>
98.51

>  <TSRW10>
59.56

>  <MW>
252.97

>  <AMW>
11.5

>  <WPath>
293

>  <WPol>
18

>  <Zagreb1>
72

>  <Zagreb2>
83

>  <mZagreb2>
3.06

>  <yes>


>  <nAR-cont>
0.816016

>  <nHA-cont>
0.887625254

>  <MWHBN>
0.188619567

>  <MWHBN-cont>
0.994743353

>  <TPSA-cont>
0.67770473

>  <pka_cont>
0.97

>  <yes.1>


>  <BBB_SCORE>
5.036165743

>  <MMFF94 Energy>
-19.925

$$$$
Compound 1835
Actelion Java MolfileCreator 2.0

  0  0  0  0  0  0              0 V3000
M  V30 BEGIN CTAB
M  V30 COUNTS 63 67 0 0 0
M  V30 BEGIN ATOM
M  V30 1 S -7.6063 -0.8071 1.3723 0
M  V30 2 N -6.4659 -0.2008 0.3532 0
M  V30 3 C -6.9266 -2.3729 1.5208 0
M  V30 4 C -5.5204 -1.1145 0.1373 0
M  V30 5 C -5.7584 -2.4134 0.7554 0
M  V30 6 C -7.395 -3.4807 2.2488 0
M  V30 7 N -4.422 -0.874 -0.6442 0
M  V30 8 C -5.0616 -3.6491 0.6972 0
M  V30 9 C -6.6705 -4.6729 2.1851 0
M  V30 10 C -4.5218 0.1465 -1.7012 0
M  V30 11 C -3.0798 -0.952 -0.0469 0
M  V30 12 C -5.5194 -4.7606 1.4133 0
M  V30 13 C -3.414 -0.0558 -2.7604 0
M  V30 14 C -2.0102 -1.1505 -1.1441 0
M  V30 15 N -2.0507 -0.0901 -2.1789 0
M  V30 16 C -1.034 -0.3062 -3.217 0
M  V30 17 C 0.1334 0.6809 -3.0828 0
M  V30 18 C 0.9384 0.5318 -1.7913 0
M  V30 19 C 2.1706 1.4422 -1.8 0
M  V30 20 N 2.9616 1.286 -0.58 0
M  V30 21 C 2.6655 2.131 0.4864 0
M  V30 22 C 3.9197 0.2757 -0.5686 0
M  V30 23 O 1.7575 2.9625 0.4617 0
M  V30 24 C 3.4771 1.9463 1.7485 0
M  V30 25 O 4.0847 -0.5097 -1.5034 0
M  V30 26 C 4.7351 0.117 0.6947 0
M  V30 27 C 4.8871 1.4204 1.4732 0
M  V30 28 C 5.7532 2.4686 0.7247 0
M  V30 29 C 5.6372 1.1737 2.8011 0
M  V30 30 C 6.9484 2.7612 1.6281 0
M  V30 31 C 6.4525 2.4371 3.0242 0
M  V30 32 H -8.304 -3.4156 2.8394 0
M  V30 33 H -4.172 -3.7378 0.08 0
M  V30 34 H -7.0192 -5.543 2.7371 0
M  V30 35 H -5.4928 0.0839 -2.2084 0
M  V30 36 H -4.4354 1.1484 -1.2608 0
M  V30 37 H -2.9964 -1.774 0.6712 0
M  V30 38 H -2.8742 -0.0254 0.5052 0
M  V30 39 H -4.9724 -5.6988 1.3585 0
M  V30 40 H -3.6115 -0.9883 -3.3065 0
M  V30 41 H -3.4819 0.7688 -3.4804 0
M  V30 42 H -2.1604 -2.1355 -1.6069 0
M  V30 43 H -1.0282 -1.166 -0.6596 0
M  V30 44 H -1.4623 -0.1488 -4.2159 0
M  V30 45 H -0.6583 -1.3374 -3.2172 0
M  V30 46 H -0.245 1.7082 -3.1609 0
M  V30 47 H 0.8012 0.5304 -3.9405 0
M  V30 48 H 0.3142 0.7824 -0.9258 0
M  V30 49 H 1.25 -0.5124 -1.6698 0
M  V30 50 H 1.8586 2.488 -1.9056 0
M  V30 51 H 2.7991 1.2079 -2.6676 0
M  V30 52 H 2.9196 1.2519 2.39 0
M  V30 53 H 3.5206 2.9101 2.2704 0
M  V30 54 H 5.7205 -0.2744 0.4136 0
M  V30 55 H 4.2398 -0.6466 1.3074 0
M  V30 56 H 6.0967 2.1199 -0.2552 0
M  V30 57 H 5.1954 3.3978 0.5568 0
M  V30 58 H 4.9687 0.9702 3.644 0
M  V30 59 H 6.3192 0.3187 2.7096 0
M  V30 60 H 7.2923 3.7957 1.5373 0
M  V30 61 H 7.7843 2.1027 1.3633 0
M  V30 62 H 5.8168 3.245 3.4046 0
M  V30 63 H 7.2727 2.2823 3.7308 0
M  V30 END ATOM
M  V30 BEGIN BOND
M  V30 1 1 1 2
M  V30 2 1 1 3
M  V30 3 2 2 4
M  V30 4 2 3 5
M  V30 5 1 3 6
M  V30 6 1 4 7
M  V30 7 1 5 8
M  V30 8 2 6 9
M  V30 9 1 7 10
M  V30 10 1 7 11
M  V30 11 2 8 12
M  V30 12 1 10 13
M  V30 13 1 11 14
M  V30 14 1 13 15
M  V30 15 1 15 16
M  V30 16 1 16 17
M  V30 17 1 17 18
M  V30 18 1 18 19
M  V30 19 1 19 20
M  V30 20 1 20 21
M  V30 21 1 20 22
M  V30 22 2 21 23
M  V30 23 1 21 24
M  V30 24 2 22 25
M  V30 25 1 22 26
M  V30 26 1 24 27
M  V30 27 1 27 28
M  V30 28 1 27 29
M  V30 29 1 28 30
M  V30 30 1 29 31
M  V30 31 1 4 5
M  V30 32 1 9 12
M  V30 33 1 14 15
M  V30 34 1 26 27
M  V30 35 1 30 31
M  V30 36 1 6 32
M  V30 37 1 8 33
M  V30 38 1 9 34
M  V30 39 1 10 35
M  V30 40 1 10 36
M  V30 41 1 11 37
M  V30 42 1 11 38
M  V30 43 1 12 39
M  V30 44 1 13 40
M  V30 45 1 13 41
M  V30 46 1 14 42
M  V30 47 1 14 43
M  V30 48 1 16 44
M  V30 49 1 16 45
M  V30 50 1 17 46
M  V30 51 1 17 47
M  V30 52 1 18 48
M  V30 53 1 18 49
M  V30 54 1 19 50
M  V30 55 1 19 51
M  V30 56 1 24 52
M  V30 57 1 24 53
M  V30 58 1 26 54
M  V30 59 1 26 55
M  V30 60 1 28 56
M  V30 61 1 28 57
M  V30 62 1 29 58
M  V30 63 1 29 59
M  V30 64 1 30 60
M  V30 65 1 30 61
M  V30 66 1 31 62
M  V30 67 1 31 63
M  V30 END BOND
M  V30 END CTAB
M  END
>  <Column 1>
2242

>  <level_0>
2423

>  <index>
2423

>  <Unnamed: 0>
2423

>  <NO.>
2435

>  <Name>
tiospirone

>  <IUPAC_name>
8-[4-[4-(1-2-benzothiazol-3-yl)piperazin-1-yl]butyl]-8-azaspiro[4.5]decane-7-9-dione

>  <SMILES>
O=C1CC2(CCCC2)CC(=O)N1CCCCN1CCN(c2nsc3ccccc23)CC1

>  <CID>
55752

>  <logBB>


>  <BBB+/BBB->
BBB+

>  <Inchi>
InChI=1S/C24H32N4O2S/c29-21-17-24(9-3-4-10-24)18-22(30)28(21)12-6-5-11-26-13-15-27(16-14-26)23-19-7-1-2-8-20(19)31-25-23/h1-2-7-8H-3-6-9-18H2

>  <threshold>
-1

>  <reference>
R1|R13|R19|R6|R24|R27|R27|R27|R30|R30|

>  <group>
B

>  <Class>
1

>  <ABC>
24.77

>  <ABCGG>
17.96

>  <nAcid>
0

>  <nBase>
1

>  <nAromAtom>
9

>  <nAromBond>
10

>  <nAtom>
63

>  <nHeavyAtom>
31

>  <nSpiro>
1

>  <nBridgehead>
0

>  <nHetero>
7

>  <nN>
4

>  <nO>
2

>  <nF>
0

>  <BalabanJ>
0.99

>  <BertzCT>
923.96

>  <nBonds>
67

>  <nBondsO>
35

>  <nBondsS>
55

>  <nBondsD>
2

>  <nBondsT>
0

>  <nBondsA>
10

>  <nBondsM>
12

>  <nBondsKS>
61

>  <nBondsKD>
6

>  <RNCG>
0.16

>  <RPCG>
0.1

>  <FCSP3>
0.63

>  <SZ>
39.33

>  <Sm>
36.68

>  <Sv>
38.32

>  <Sse>
62.6

>  <Sp>
42.11

>  <Si>
71.15

>  <MZ>
0.62

>  <Mm>
0.58

>  <Mv>
0.61

>  <Mse>
0.99

>  <Mp>
0.67

>  <Mi>
1.13

>  <NsCH3>
0

>  <NdCH2>
0

>  <NssCH2>
14

>  <NtCH>
0

>  <NdsCH>
0

>  <NaaCH>
4

>  <NsssCH>
0

>  <NddC>
0

>  <NtsC>
0

>  <NdssC>
2

>  <NaasC>
1

>  <NaaaC>
2

>  <NssssC>
1

>  <NsNH3>
0

>  <NsNH2>
0

>  <NssNH2>
0

>  <NdNH>
0

>  <NssNH>
0

>  <NaaNH>
0

>  <NtN>
0

>  <NsssNH>
0

>  <NdsN>
0

>  <NaaN>
1

>  <NsssN>
3

>  <NddsN>
0

>  <NaasN>
0

>  <NssssN>
0

>  <NsOH>
0

>  <NdO>
2

>  <NssO>
0

>  <NaaO>
0

>  <NsF>
0

>  <NsSiH3>
0

>  <NssSiH2>
0

>  <NsssSiH>
0

>  <NssssSi>
0

>  <NsPH2>
0

>  <NssPH>
0

>  <NsssP>
0

>  <NdsssP>
0

>  <NsssssP>
0

>  <NsSH>
0

>  <NdS>
0

>  <NssS>
0

>  <NaaS>
1

>  <NdssS>
0

>  <NddssS>
0

>  <NsCl>
0

>  <NsBr>
0

>  <NsI>
0

>  <fragCpx>
295.07

>  <fMF>
0.46

>  <nHBAcc>
6

>  <nHBDon>
0

>  <Kier1>
22.78

>  <Kier2>
10.09

>  <Lipinski>
1

>  <GhoseFilter>
1

>  <FilterItLogS>
-5.25

>  <VMcGowan>
336.93

>  <LabuteASA>
187.9

>  <PEOE_VSA1>
4.9

>  <PEOE_VSA2>
19.39

>  <PEOE_VSA3>
0

>  <PEOE_VSA4>
4.37

>  <PEOE_VSA5>
0

>  <PEOE_VSA6>
24.97

>  <PEOE_VSA7>
61.31

>  <PEOE_VSA8>
50.95

>  <PEOE_VSA9>
4.7

>  <PEOE_VSA10>
5.82

>  <PEOE_VSA11>
0

>  <PEOE_VSA12>
11.81

>  <PEOE_VSA13>
0

>  <SMR_VSA1>
9.59

>  <SMR_VSA2>
0

>  <SMR_VSA3>
14.17

>  <SMR_VSA4>
5.41

>  <SMR_VSA5>
51.37

>  <SMR_VSA6>
44.17

>  <SMR_VSA7>
24.27

>  <SMR_VSA8>
0

>  <SMR_VSA9>
0

>  <SlogP_VSA1>
4.9

>  <SlogP_VSA2>
65.26

>  <SlogP_VSA3>
9.59

>  <SlogP_VSA4>
5.41

>  <SlogP_VSA5>
51.37

>  <SlogP_VSA6>
24.27

>  <SlogP_VSA7>
0

>  <SlogP_VSA8>
10.09

>  <SlogP_VSA9>
0

>  <SlogP_VSA10>
5.82

>  <SlogP_VSA11>
0

>  <EState_VSA1>
0

>  <EState_VSA2>
17.23

>  <EState_VSA3>
19.39

>  <EState_VSA4>
64.22

>  <EState_VSA5>
22.93

>  <EState_VSA6>
16.43

>  <EState_VSA7>
0

>  <EState_VSA8>
34.07

>  <EState_VSA9>
4.37

>  <EState_VSA10>
9.59

>  <VSA_EState1>
5.94

>  <VSA_EState2>
31.63

>  <VSA_EState3>
1.26

>  <VSA_EState4>
0.01

>  <VSA_EState5>
1.27

>  <VSA_EState6>
8.46

>  <VSA_EState7>
7.57

>  <VSA_EState8>
5.7

>  <VSA_EState9>
0

>  <apol>
70.32

>  <bpol>
42.57

>  <nRing>
5

>  <nHRing>
3

>  <naRing>
2

>  <naHRing>
1

>  <nARing 2>
3

>  <nAHRing 2>
2

>  <nFRing>
1

>  <nFHRing>
1

>  <nFaRing>
1

>  <nFaHRing>
1

>  <nFARing 2>
0

>  <nFAHRing 2>
0

>  <nRot>
6

>  <SLogP>
3.91

>  <SMR>
124.36

>  <TopoPSA(NO)>
56.75

>  <TopoPSA>
84.99

>  <JGI1>
0.17

>  <JGI2>
0.08

>  <JGI3>
0.05

>  <JGI4>
0.04

>  <JGI5>
0.02

>  <Diameter>
18

>  <Radius>
9

>  <TMWC10>
144.19

>  <TSRW10>
83.03

>  <MW>
440.22

>  <AMW>
6.99

>  <WPath>
3304

>  <WPol>
49

>  <Zagreb1>
170

>  <Zagreb2>
203

>  <mZagreb2>
6.72

>  <yes>


>  <nAR-cont>
0.691115

>  <nHA-cont>
0.702745138

>  <MWHBN>
0.285967294

>  <MWHBN-cont>
0.880536498

>  <TPSA-cont>
0.406717024

>  <pka_cont>
0.97

>  <yes.1>


>  <BBB_SCORE>
4.013098933

>  <MMFF94 Energy>
66.694

$$$$
Compound 1836
Actelion Java MolfileCreator 2.0

  0  0  0  0  0  0              0 V3000
M  V30 BEGIN CTAB
M  V30 COUNTS 52 55 0 0 0
M  V30 BEGIN ATOM
M  V30 1 O -2.0806 0.2399 0.1599 0
M  V30 2 C -1.2357 -0.5679 -0.2305 0
M  V30 3 N -0.7823 -1.6397 0.5352 0
M  V30 4 C -0.6078 -0.4004 -1.5935 0
M  V30 5 C 0.1248 -2.6083 0.1204 0
M  V30 6 C -1.2555 -1.7223 1.9166 0
M  V30 7 C -0.2495 -1.7351 -2.2328 0
M  V30 8 O 0.5039 -3.5313 0.8447 0
M  V30 9 C 0.6925 -2.4676 -1.2744 0
M  V30 10 C -0.2246 -1.152 2.9153 0
M  V30 11 C -1.4834 -2.5728 -2.6105 0
M  V30 12 C 0.4066 -1.5345 -3.6084 0
M  V30 13 N 0.2875 0.1573 2.4982 0
M  V30 14 C -1.0011 -3.5242 -3.7037 0
M  V30 15 C 0.2269 -2.8665 -4.3307 0
M  V30 16 C 1.1936 0.7401 3.4873 0
M  V30 17 C 1.7834 2.1194 3.1047 0 CFG=2
M  V30 18 O 0.7797 3.1437 3.1806 0
M  V30 19 C 2.5679 2.1589 1.7923 0
M  V30 20 C 0.2274 3.4699 1.9719 0
M  V30 21 O 1.7414 2.1174 0.6284 0
M  V30 22 C 0.68 2.9741 0.7476 0
M  V30 23 C -0.8609 4.3416 2.0087 0
M  V30 24 C 0.0261 3.3246 -0.4329 0
M  V30 25 C -1.5089 4.7016 0.826 0
M  V30 26 C -1.068 4.1897 -0.3942 0
M  V30 27 H -1.3099 0.1561 -2.2263 0
M  V30 28 H 0.2858 0.2234 -1.4702 0
M  V30 29 H -1.4559 -2.7707 2.1683 0
M  V30 30 H -2.2018 -1.1805 2.0261 0
M  V30 31 H 0.9312 -3.4727 -1.6404 0
M  V30 32 H 1.6412 -1.924 -1.1782 0
M  V30 33 H 0.6163 -1.8505 2.9973 0
M  V30 34 H -0.6982 -1.0871 3.9022 0
M  V30 35 H -1.9193 -3.1204 -1.769 0
M  V30 36 H -2.271 -1.9283 -3.0221 0
M  V30 37 H 1.4611 -1.2461 -3.5446 0
M  V30 38 H -0.1142 -0.7494 -4.1717 0
M  V30 39 H -0.4889 0.8 2.313 0
M  V30 40 H -1.7869 -3.7044 -4.4447 0
M  V30 41 H -0.7279 -4.4956 -3.276 0
M  V30 42 H 0.1048 -2.7213 -5.4089 0
M  V30 43 H 1.1068 -3.5036 -4.1851 0
M  V30 44 H 2.029 0.0492 3.6535 0
M  V30 45 H 0.6553 0.8523 4.4369 0
M  V30 46 H 2.4984 2.3632 3.9017 0
M  V30 47 H 3.165 3.0792 1.7399 0
M  V30 48 H 3.2681 1.3183 1.7386 0
M  V30 49 H -1.2127 4.7301 2.9602 0
M  V30 50 H 0.3702 2.926 -1.3823 0
M  V30 51 H -2.3633 5.3727 0.8577 0
M  V30 52 H -1.5789 4.4604 -1.3143 0
M  V30 END ATOM
M  V30 BEGIN BOND
M  V30 1 2 1 2
M  V30 2 1 2 3
M  V30 3 1 2 4
M  V30 4 1 3 5
M  V30 5 1 3 6
M  V30 6 1 4 7
M  V30 7 2 5 8
M  V30 8 1 5 9
M  V30 9 1 6 10
M  V30 10 1 7 11
M  V30 11 1 7 12
M  V30 12 1 10 13
M  V30 13 1 11 14
M  V30 14 1 12 15
M  V30 15 1 13 16
M  V30 16 1 16 17
M  V30 17 1 17 18
M  V30 18 1 17 19
M  V30 19 1 18 20
M  V30 20 1 19 21
M  V30 21 2 20 22
M  V30 22 1 20 23
M  V30 23 1 22 24
M  V30 24 2 23 25
M  V30 25 2 24 26
M  V30 26 1 7 9
M  V30 27 1 14 15
M  V30 28 1 21 22
M  V30 29 1 25 26
M  V30 30 1 4 27
M  V30 31 1 4 28
M  V30 32 1 6 29
M  V30 33 1 6 30
M  V30 34 1 9 31
M  V30 35 1 9 32
M  V30 36 1 10 33
M  V30 37 1 10 34
M  V30 38 1 11 35
M  V30 39 1 11 36
M  V30 40 1 12 37
M  V30 41 1 12 38
M  V30 42 1 13 39
M  V30 43 1 14 40
M  V30 44 1 14 41
M  V30 45 1 15 42
M  V30 46 1 15 43
M  V30 47 1 16 44
M  V30 48 1 16 45
M  V30 49 1 17 46
M  V30 50 1 19 47
M  V30 51 1 19 48
M  V30 52 1 23 49
M  V30 53 1 24 50
M  V30 54 1 25 51
M  V30 55 1 26 52
M  V30 END BOND
M  V30 BEGIN COLLECTION
M  V30 MDLV30/STERAC1 ATOMS=(1 17)
M  V30 END COLLECTION
M  V30 END CTAB
M  END
>  <Column 1>
2243

>  <level_0>
2424

>  <index>
2424

>  <Unnamed: 0>
2424

>  <NO.>
2436

>  <Name>
binospirone

>  <IUPAC_name>
8-[2-(2-3-dihydro-1-4-benzodioxin-3-ylmethylamino)ethyl]-8-azaspiro[4.5]decane-7-9-dione

>  <SMILES>
O=C1CC2(CCCC2)CC(=O)N1CCNCC1COc2ccccc2O1

>  <CID>
60769

>  <logBB>


>  <BBB+/BBB->
BBB+

>  <Inchi>
InChI=1S/C20H26N2O4/c23-18-11-20(7-3-4-8-20)12-19(24)22(18)10-9-21-13-15-14-25-16-5-1-2-6-17(16)26-15/h1-2-5-6-15-21H-3-4-7-14H2

>  <threshold>
-1

>  <reference>
R1|R19|R6|R27|R27|R30|

>  <group>
B

>  <Class>
1

>  <ABC>
20.6

>  <ABCGG>
15.37

>  <nAcid>
0

>  <nBase>
1

>  <nAromAtom>
6

>  <nAromBond>
6

>  <nAtom>
52

>  <nHeavyAtom>
26

>  <nSpiro>
1

>  <nBridgehead>
0

>  <nHetero>
6

>  <nN>
2

>  <nO>
4

>  <nF>
0

>  <BalabanJ>
1.17

>  <BertzCT>
664.14

>  <nBonds>
55

>  <nBondsO>
29

>  <nBondsS>
47

>  <nBondsD>
2

>  <nBondsT>
0

>  <nBondsA>
6

>  <nBondsM>
8

>  <nBondsKS>
50

>  <nBondsKD>
5

>  <RNCG>
0.2

>  <RPCG>
0.09

>  <FCSP3>
0.6

>  <SZ>
32

>  <Sm>
29.84

>  <Sv>
31.42

>  <Sse>
52.19

>  <Sp>
33.62

>  <Si>
58.82

>  <MZ>
0.62

>  <Mm>
0.57

>  <Mv>
0.6

>  <Mse>
1

>  <Mp>
0.65

>  <Mi>
1.13

>  <NsCH3>
0

>  <NdCH2>
0

>  <NssCH2>
10

>  <NtCH>
0

>  <NdsCH>
0

>  <NaaCH>
4

>  <NsssCH>
1

>  <NddC>
0

>  <NtsC>
0

>  <NdssC>
2

>  <NaasC>
2

>  <NaaaC>
0

>  <NssssC>
1

>  <NsNH3>
0

>  <NsNH2>
0

>  <NssNH2>
0

>  <NdNH>
0

>  <NssNH>
1

>  <NaaNH>
0

>  <NtN>
0

>  <NsssNH>
0

>  <NdsN>
0

>  <NaaN>
0

>  <NsssN>
1

>  <NddsN>
0

>  <NaasN>
0

>  <NssssN>
0

>  <NsOH>
0

>  <NdO>
2

>  <NssO>
2

>  <NaaO>
0

>  <NsF>
0

>  <NsSiH3>
0

>  <NssSiH2>
0

>  <NsssSiH>
0

>  <NssssSi>
0

>  <NsPH2>
0

>  <NssPH>
0

>  <NsssP>
0

>  <NdsssP>
0

>  <NsssssP>
0

>  <NsSH>
0

>  <NdS>
0

>  <NssS>
0

>  <NaaS>
0

>  <NdssS>
0

>  <NddssS>
0

>  <NsCl>
0

>  <NsBr>
0

>  <NsI>
0

>  <fragCpx>
191.06

>  <fMF>
0.46

>  <nHBAcc>
5

>  <nHBDon>
1

>  <Kier1>
19.32

>  <Kier2>
8.57

>  <Lipinski>
1

>  <GhoseFilter>
1

>  <FilterItLogS>
-4.41

>  <VMcGowan>
271.16

>  <LabuteASA>
153.38

>  <PEOE_VSA1>
14.79

>  <PEOE_VSA2>
14.49

>  <PEOE_VSA3>
0

>  <PEOE_VSA4>
0

>  <PEOE_VSA5>
0

>  <PEOE_VSA6>
24.97

>  <PEOE_VSA7>
30.39

>  <PEOE_VSA8>
32.48

>  <PEOE_VSA9>
0

>  <PEOE_VSA10>
12.71

>  <PEOE_VSA11>
11.5

>  <PEOE_VSA12>
11.81

>  <PEOE_VSA13>
0

>  <SMR_VSA1>
19.06

>  <SMR_VSA2>
0

>  <SMR_VSA3>
10.22

>  <SMR_VSA4>
5.41

>  <SMR_VSA5>
44.63

>  <SMR_VSA6>
26.24

>  <SMR_VSA7>
24.27

>  <SMR_VSA8>
0

>  <SMR_VSA9>
11.5

>  <SlogP_VSA1>
14.79

>  <SlogP_VSA2>
49.06

>  <SlogP_VSA3>
9.59

>  <SlogP_VSA4>
5.41

>  <SlogP_VSA5>
38.52

>  <SlogP_VSA6>
24.27

>  <SlogP_VSA7>
0

>  <SlogP_VSA8>
0

>  <SlogP_VSA9>
0

>  <SlogP_VSA10>
0

>  <SlogP_VSA11>
11.5

>  <EState_VSA1>
0

>  <EState_VSA2>
23.33

>  <EState_VSA3>
39.08

>  <EState_VSA4>
37.18

>  <EState_VSA5>
4.9

>  <EState_VSA6>
0

>  <EState_VSA7>
24.27

>  <EState_VSA8>
5.32

>  <EState_VSA9>
9.47

>  <EState_VSA10>
9.59

>  <VSA_EState1>
11.58

>  <VSA_EState2>
26.3

>  <VSA_EState3>
3.28

>  <VSA_EState4>
-0.03

>  <VSA_EState5>
1.52

>  <VSA_EState6>
7.63

>  <VSA_EState7>
5.35

>  <VSA_EState8>
2.12

>  <VSA_EState9>
0

>  <apol>
56.14

>  <bpol>
33.57

>  <nRing>
4

>  <nHRing>
2

>  <naRing>
1

>  <naHRing>
0

>  <nARing 2>
3

>  <nAHRing 2>
2

>  <nFRing>
1

>  <nFHRing>
1

>  <nFaRing>
0

>  <nFaHRing>
0

>  <nFARing 2>
1

>  <nFAHRing 2>
1

>  <nRot>
5

>  <SLogP>
2.13

>  <SMR>
96.08

>  <TopoPSA(NO)>
67.87

>  <TopoPSA>
67.87

>  <JGI1>
0.19

>  <JGI2>
0.07

>  <JGI3>
0.05

>  <JGI4>
0.05

>  <JGI5>
0.02

>  <Diameter>
15

>  <Radius>
8

>  <TMWC10>
131.07

>  <TSRW10>
74.82

>  <MW>
358.19

>  <AMW>
6.89

>  <WPath>
1951

>  <WPol>
40

>  <Zagreb1>
140

>  <Zagreb2>
165

>  <mZagreb2>
5.67

>  <yes>


>  <nAR-cont>
0.691115

>  <nHA-cont>
0.892715677

>  <MWHBN>
0.317025738

>  <MWHBN-cont>
0.787069845

>  <TPSA-cont>
0.526225255

>  <pka_cont>
0.97

>  <yes.1>


>  <BBB_SCORE>
4.301885955

>  <MMFF94 Energy>
56.156

$$$$
Compound 1837
Actelion Java MolfileCreator 2.0

  0  0  0  0  0  0              0 V3000
M  V30 BEGIN CTAB
M  V30 COUNTS 47 50 0 0 0
M  V30 BEGIN ATOM
M  V30 1 O -1.1197 -4.164 -0.3998 0
M  V30 2 C -1.0515 -4.3035 0.8121 0
M  V30 3 N -1.1775 -3.3267 1.7556 0
M  V30 4 C -0.8143 -5.6163 1.4961 0
M  V30 5 C -1.0659 -3.8054 3.0282 0
M  V30 6 C -1.4279 -1.9291 1.4464 0
M  V30 7 C -0.7964 -5.2792 2.9742 0
M  V30 8 O -1.1647 -3.1628 4.0624 0
M  V30 9 C -0.1507 -1.0692 1.4871 0
M  V30 10 C -0.5269 0.4175 1.3541 0
M  V30 11 C 0.8456 -1.4674 0.3886 0
M  V30 12 N 0.6649 1.2734 1.3868 0
M  V30 13 C 2.0349 -0.5107 0.3573 0
M  V30 14 C 1.6133 0.9652 0.2882 0
M  V30 15 C 0.3127 2.7074 1.3089 0
M  V30 16 C 1.1159 1.3605 -1.1326 0
M  V30 17 C -0.2241 3.1968 -0.0542 0
M  V30 18 N 0.6037 2.7307 -1.1638 0
M  V30 19 C 0.3825 3.2996 -2.4045 0
M  V30 20 N 0.9079 2.7105 -3.4933 0
M  V30 21 N -0.3496 4.4253 -2.4829 0
M  V30 22 C 0.6881 3.2863 -4.6902 0
M  V30 23 C -0.5441 4.9675 -3.6998 0
M  V30 24 C -0.0415 4.4332 -4.8562 0
M  V30 25 H 0.1392 -6.0403 1.1691 0
M  V30 26 H -1.624 -6.3106 1.2533 0
M  V30 27 H -2.143 -1.5515 2.1873 0
M  V30 28 H -1.9005 -1.8596 0.4597 0
M  V30 29 H 0.1782 -5.4926 3.4224 0
M  V30 30 H -1.5744 -5.8213 3.5193 0
M  V30 31 H 0.3391 -1.2147 2.4602 0
M  V30 32 H -1.1783 0.6848 2.196 0
M  V30 33 H -1.113 0.5698 0.4395 0
M  V30 34 H 1.2165 -2.4841 0.5602 0
M  V30 35 H 0.3484 -1.4732 -0.5885 0
M  V30 36 H 2.632 -0.6669 1.2657 0
M  V30 37 H 2.6863 -0.7606 -0.4882 0
M  V30 38 H 2.5224 1.5542 0.4777 0
M  V30 39 H 1.2166 3.2835 1.5491 0
M  V30 40 H -0.408 2.9592 2.0968 0
M  V30 41 H 1.9679 1.2466 -1.8152 0
M  V30 42 H 0.3282 0.6776 -1.4723 0
M  V30 43 H -1.254 2.8447 -0.1922 0
M  V30 44 H -0.2516 4.2929 -0.0128 0
M  V30 45 H 1.1354 2.7752 -5.537 0
M  V30 46 H -1.1373 5.8767 -3.7104 0
M  V30 47 H -0.2068 4.8823 -5.8242 0
M  V30 END ATOM
M  V30 BEGIN BOND
M  V30 1 2 1 2
M  V30 2 1 2 3
M  V30 3 1 2 4
M  V30 4 1 3 5
M  V30 5 1 3 6
M  V30 6 1 4 7
M  V30 7 2 5 8
M  V30 8 1 6 9
M  V30 9 1 9 10
M  V30 10 1 9 11
M  V30 11 1 10 12
M  V30 12 1 11 13
M  V30 13 1 12 14
M  V30 14 1 12 15
M  V30 15 1 14 16
M  V30 16 1 15 17
M  V30 17 1 16 18
M  V30 18 1 18 19
M  V30 19 2 19 20
M  V30 20 1 19 21
M  V30 21 1 20 22
M  V30 22 2 21 23
M  V30 23 2 22 24
M  V30 24 1 5 7
M  V30 25 1 13 14
M  V30 26 1 17 18
M  V30 27 1 23 24
M  V30 28 1 4 25
M  V30 29 1 4 26
M  V30 30 1 6 27
M  V30 31 1 6 28
M  V30 32 1 7 29
M  V30 33 1 7 30
M  V30 34 1 9 31
M  V30 35 1 10 32
M  V30 36 1 10 33
M  V30 37 1 11 34
M  V30 38 1 11 35
M  V30 39 1 13 36
M  V30 40 1 13 37
M  V30 41 1 14 38
M  V30 42 1 15 39
M  V30 43 1 15 40
M  V30 44 1 16 41
M  V30 45 1 16 42
M  V30 46 1 17 43
M  V30 47 1 17 44
M  V30 48 1 22 45
M  V30 49 1 23 46
M  V30 50 1 24 47
M  V30 END BOND
M  V30 END CTAB
M  END
>  <Column 1>
2244

>  <level_0>
2425

>  <index>
2425

>  <Unnamed: 0>
2425

>  <NO.>
2437

>  <Name>
sunepitron

>  <IUPAC_name>
1-[(2-pyrimidin-2-yl-1-3-4-6-7-8-9-9a-octahydropyrido[1-2-a]pyrazin-7-yl)methyl]pyrrolidine-2-5-dione

>  <SMILES>
O=C1CCC(=O)N1CC1CCC2CN(c3ncccn3)CCN2C1

>  <CID>
9799246

>  <logBB>


>  <BBB+/BBB->
BBB+

>  <Inchi>
InChI=1S/C17H23N5O2/c23-15-4-5-16(24)22(15)11-13-2-3-14-12-21(9-8-20(14)10-13)17-18-6-1-7-19-17/h1-6-7-13-14H-2-5-8-12H2

>  <threshold>
-1

>  <reference>
R1|R19|R27|R30|

>  <group>
B

>  <Class>
1

>  <ABC>
19.15

>  <ABCGG>
14.42

>  <nAcid>
0

>  <nBase>
1

>  <nAromAtom>
6

>  <nAromBond>
6

>  <nAtom>
47

>  <nHeavyAtom>
24

>  <nSpiro>
0

>  <nBridgehead>
0

>  <nHetero>
7

>  <nN>
5

>  <nO>
2

>  <nF>
0

>  <BalabanJ>
1.28

>  <BertzCT>
606.67

>  <nBonds>
50

>  <nBondsO>
27

>  <nBondsS>
42

>  <nBondsD>
2

>  <nBondsT>
0

>  <nBondsA>
6

>  <nBondsM>
8

>  <nBondsKS>
45

>  <nBondsKD>
5

>  <RNCG>
0.17

>  <RPCG>
0.11

>  <FCSP3>
0.65

>  <SZ>
29.33

>  <Sm>
27.43

>  <Sv>
28.45

>  <Sse>
47.19

>  <Sp>
30.44

>  <Si>
53.65

>  <MZ>
0.62

>  <Mm>
0.58

>  <Mv>
0.61

>  <Mse>
1

>  <Mp>
0.65

>  <Mi>
1.14

>  <NsCH3>
0

>  <NdCH2>
0

>  <NssCH2>
9

>  <NtCH>
0

>  <NdsCH>
0

>  <NaaCH>
3

>  <NsssCH>
2

>  <NddC>
0

>  <NtsC>
0

>  <NdssC>
2

>  <NaasC>
1

>  <NaaaC>
0

>  <NssssC>
0

>  <NsNH3>
0

>  <NsNH2>
0

>  <NssNH2>
0

>  <NdNH>
0

>  <NssNH>
0

>  <NaaNH>
0

>  <NtN>
0

>  <NsssNH>
0

>  <NdsN>
0

>  <NaaN>
2

>  <NsssN>
3

>  <NddsN>
0

>  <NaasN>
0

>  <NssssN>
0

>  <NsOH>
0

>  <NdO>
2

>  <NssO>
0

>  <NaaO>
0

>  <NsF>
0

>  <NsSiH3>
0

>  <NssSiH2>
0

>  <NsssSiH>
0

>  <NssssSi>
0

>  <NsPH2>
0

>  <NssPH>
0

>  <NsssP>
0

>  <NdsssP>
0

>  <NsssssP>
0

>  <NsSH>
0

>  <NdS>
0

>  <NssS>
0

>  <NaaS>
0

>  <NdssS>
0

>  <NddssS>
0

>  <NsCl>
0

>  <NsBr>
0

>  <NsI>
0

>  <fragCpx>
177.07

>  <fMF>
0.47

>  <nHBAcc>
6

>  <nHBDon>
0

>  <Kier1>
17.42

>  <Kier2>
7.71

>  <Lipinski>
1

>  <GhoseFilter>
1

>  <FilterItLogS>
-2.23

>  <VMcGowan>
247.09

>  <LabuteASA>
141.2

>  <PEOE_VSA1>
4.9

>  <PEOE_VSA2>
19.39

>  <PEOE_VSA3>
9.97

>  <PEOE_VSA4>
0

>  <PEOE_VSA5>
0

>  <PEOE_VSA6>
0

>  <PEOE_VSA7>
24.83

>  <PEOE_VSA8>
64

>  <PEOE_VSA9>
0

>  <PEOE_VSA10>
0

>  <PEOE_VSA11>
0

>  <PEOE_VSA12>
17.76

>  <PEOE_VSA13>
0

>  <SMR_VSA1>
9.59

>  <SMR_VSA2>
0

>  <SMR_VSA3>
19.77

>  <SMR_VSA4>
5.92

>  <SMR_VSA5>
31.73

>  <SMR_VSA6>
37.62

>  <SMR_VSA7>
18.46

>  <SMR_VSA8>
0

>  <SMR_VSA9>
0

>  <SlogP_VSA1>
4.9

>  <SlogP_VSA2>
70.35

>  <SlogP_VSA3>
9.59

>  <SlogP_VSA4>
5.92

>  <SlogP_VSA5>
25.68

>  <SlogP_VSA6>
18.46

>  <SlogP_VSA7>
0

>  <SlogP_VSA8>
0

>  <SlogP_VSA9>
0

>  <SlogP_VSA10>
5.95

>  <SlogP_VSA11>
0

>  <EState_VSA1>
0

>  <EState_VSA2>
11.81

>  <EState_VSA3>
31.35

>  <EState_VSA4>
44.97

>  <EState_VSA5>
4.9

>  <EState_VSA6>
12.39

>  <EState_VSA7>
6.07

>  <EState_VSA8>
19.77

>  <EState_VSA9>
0

>  <EState_VSA10>
9.59

>  <VSA_EState1>
0

>  <VSA_EState2>
38.59

>  <VSA_EState3>
0

>  <VSA_EState4>
0

>  <VSA_EState5>
1.24

>  <VSA_EState6>
2.36

>  <VSA_EState7>
6.53

>  <VSA_EState8>
4.45

>  <VSA_EState9>
0

>  <apol>
50.83

>  <bpol>
32.22

>  <nRing>
4

>  <nHRing>
4

>  <naRing>
1

>  <naHRing>
1

>  <nARing 2>
3

>  <nAHRing 2>
3

>  <nFRing>
1

>  <nFHRing>
1

>  <nFaRing>
0

>  <nFaHRing>
0

>  <nFARing 2>
1

>  <nFAHRing 2>
1

>  <nRot>
3

>  <SLogP>
0.53

>  <SMR>
88.28

>  <TopoPSA(NO)>
69.64

>  <TopoPSA>
69.64

>  <JGI1>
0.17

>  <JGI2>
0.08

>  <JGI3>
0.04

>  <JGI4>
0.04

>  <JGI5>
0.02

>  <Diameter>
13

>  <Radius>
7

>  <TMWC10>
126.31

>  <TSRW10>
72.66

>  <MW>
329.19

>  <AMW>
7

>  <WPath>
1454

>  <WPol>
37

>  <Zagreb1>
130

>  <Zagreb2>
154

>  <mZagreb2>
5.19

>  <yes>


>  <nAR-cont>
0.691115

>  <nHA-cont>
0.94700071

>  <MWHBN>
0.330695232

>  <MWHBN-cont>
0.740403824

>  <TPSA-cont>
0.513869556

>  <pka_cont>
0.97

>  <yes.1>


>  <BBB_SCORE>
4.261460558

>  <MMFF94 Energy>
-44.121

$$$$
Compound 1838
Actelion Java MolfileCreator 2.0

  0  0  0  0  0  0              0 V3000
M  V30 BEGIN CTAB
M  V30 COUNTS 34 36 0 0 0
M  V30 BEGIN ATOM
M  V30 1 O 1.1956 1.8337 -3.1908 0
M  V30 2 C 0.9426 2.2487 -2.075 0
M  V30 3 N 1.3209 1.6352 -0.9008 0
M  V30 4 C 0.1149 3.4583 -1.728 0
M  V30 5 C 0.7952 2.2995 0.2692 0
M  V30 6 C 0.4479 3.6873 -0.2543 0
M  V30 7 C -0.4429 1.6115 0.8751 0
M  V30 8 O -0.9351 1.9816 1.9387 0
M  V30 9 N -0.9658 0.5969 0.1007 0
M  V30 10 C -2.0522 -0.2313 0.521 0
M  V30 11 C -1.842 -1.6949 0.8587 0
M  V30 12 C -2.5788 -1.2985 -0.3961 0
M  V30 13 C -0.4565 -2.3014 0.8056 0
M  V30 14 C 0.5485 -1.8666 1.6885 0
M  V30 15 C -0.0894 -3.2413 -0.1712 0
M  V30 16 C 1.8526 -2.3621 1.616 0
M  V30 17 C 1.2136 -3.7411 -0.2501 0
M  V30 18 C 2.1844 -3.3013 0.6449 0
M  V30 19 H 1.8793 0.7886 -0.8968 0
M  V30 20 H 0.3915 4.3154 -2.3464 0
M  V30 21 H -0.943 3.2161 -1.8677 0
M  V30 22 H 1.5756 2.3296 1.0361 0
M  V30 23 H -0.3715 4.1766 0.2809 0
M  V30 24 H 1.3298 4.3369 -0.184 0
M  V30 25 H -0.4683 0.3492 -0.749 0
M  V30 26 H -2.7922 0.3014 1.1161 0
M  V30 27 H -2.4668 -2.0835 1.662 0
M  V30 28 H -2.1006 -1.4299 -1.3592 0
M  V30 29 H -3.6517 -1.4559 -0.4205 0
M  V30 30 H 0.3039 -1.1284 2.4512 0
M  V30 31 H -0.832 -3.5976 -0.8819 0
M  V30 32 H 2.6046 -2.0158 2.3202 0
M  V30 33 H 1.4673 -4.4742 -1.0115 0
M  V30 34 H 3.1967 -3.6923 0.5866 0
M  V30 END ATOM
M  V30 BEGIN BOND
M  V30 1 2 1 2
M  V30 2 1 2 3
M  V30 3 1 2 4
M  V30 4 1 3 5
M  V30 5 1 4 6
M  V30 6 1 5 7
M  V30 7 2 7 8
M  V30 8 1 7 9
M  V30 9 1 9 10
M  V30 10 1 10 11
M  V30 11 1 10 12
M  V30 12 1 11 13
M  V30 13 2 13 14
M  V30 14 1 13 15
M  V30 15 1 14 16
M  V30 16 2 15 17
M  V30 17 2 16 18
M  V30 18 1 5 6
M  V30 19 1 11 12
M  V30 20 1 17 18
M  V30 21 1 3 19
M  V30 22 1 4 20
M  V30 23 1 4 21
M  V30 24 1 5 22
M  V30 25 1 6 23
M  V30 26 1 6 24
M  V30 27 1 9 25
M  V30 28 1 10 26
M  V30 29 1 11 27
M  V30 30 1 12 28
M  V30 31 1 12 29
M  V30 32 1 14 30
M  V30 33 1 15 31
M  V30 34 1 16 32
M  V30 35 1 17 33
M  V30 36 1 18 34
M  V30 END BOND
M  V30 END CTAB
M  END
>  <Column 1>
2245

>  <level_0>
2426

>  <index>
2426

>  <Unnamed: 0>
2426

>  <NO.>
2438

>  <Name>
rolicyprine

>  <IUPAC_name>
5-oxo-n-(2-phenylcyclopropyl)pyrrolidine-2-carboxamide

>  <SMILES>
O=C1CCC(C(=O)NC2CC2c2ccccc2)N1

>  <CID>
90993

>  <logBB>


>  <BBB+/BBB->
BBB+

>  <Inchi>
InChI=1S/C14H16N2O2/c17-13-7-6-11(15-13)14(18)16-12-8-10(12)9-4-2-1-3-5-9/h1-5-10-12H-6-8H2-(H-15-17)(H-16-18)

>  <threshold>
-1

>  <reference>
R1|R19|R27|R27|R30|

>  <group>
B

>  <Class>
1

>  <ABC>
14.24

>  <ABCGG>
12.9

>  <nAcid>
0

>  <nBase>
0

>  <nAromAtom>
6

>  <nAromBond>
6

>  <nAtom>
34

>  <nHeavyAtom>
18

>  <nSpiro>
0

>  <nBridgehead>
0

>  <nHetero>
4

>  <nN>
2

>  <nO>
2

>  <nF>
0

>  <BalabanJ>
1.41

>  <BertzCT>
471.94

>  <nBonds>
36

>  <nBondsO>
20

>  <nBondsS>
28

>  <nBondsD>
2

>  <nBondsT>
0

>  <nBondsA>
6

>  <nBondsM>
8

>  <nBondsKS>
31

>  <nBondsKD>
5

>  <RNCG>
0.22

>  <RPCG>
0.15

>  <FCSP3>
0.43

>  <SZ>
21.67

>  <Sm>
20.34

>  <Sv>
21.28

>  <Sse>
34.09

>  <Sp>
22.67

>  <Si>
38.32

>  <MZ>
0.64

>  <Mm>
0.6

>  <Mv>
0.63

>  <Mse>
1

>  <Mp>
0.67

>  <Mi>
1.13

>  <NsCH3>
0

>  <NdCH2>
0

>  <NssCH2>
3

>  <NtCH>
0

>  <NdsCH>
0

>  <NaaCH>
5

>  <NsssCH>
3

>  <NddC>
0

>  <NtsC>
0

>  <NdssC>
2

>  <NaasC>
1

>  <NaaaC>
0

>  <NssssC>
0

>  <NsNH3>
0

>  <NsNH2>
0

>  <NssNH2>
0

>  <NdNH>
0

>  <NssNH>
2

>  <NaaNH>
0

>  <NtN>
0

>  <NsssNH>
0

>  <NdsN>
0

>  <NaaN>
0

>  <NsssN>
0

>  <NddsN>
0

>  <NaasN>
0

>  <NssssN>
0

>  <NsOH>
0

>  <NdO>
2

>  <NssO>
0

>  <NaaO>
0

>  <NsF>
0

>  <NsSiH3>
0

>  <NssSiH2>
0

>  <NsssSiH>
0

>  <NssssSi>
0

>  <NsPH2>
0

>  <NssPH>
0

>  <NsssP>
0

>  <NdsssP>
0

>  <NsssssP>
0

>  <NsSH>
0

>  <NdS>
0

>  <NssS>
0

>  <NaaS>
0

>  <NdssS>
0

>  <NddssS>
0

>  <NsCl>
0

>  <NsBr>
0

>  <NsI>
0

>  <fragCpx>
94.04

>  <fMF>
0.47

>  <nHBAcc>
2

>  <nHBDon>
2

>  <Kier1>
13.01

>  <Kier2>
5.55

>  <Lipinski>
1

>  <GhoseFilter>
1

>  <FilterItLogS>
-2.83

>  <VMcGowan>
185.74

>  <LabuteASA>
105.76

>  <PEOE_VSA1>
10.63

>  <PEOE_VSA2>
9.59

>  <PEOE_VSA3>
0

>  <PEOE_VSA4>
0

>  <PEOE_VSA5>
0

>  <PEOE_VSA6>
30.33

>  <PEOE_VSA7>
18.41

>  <PEOE_VSA8>
18.38

>  <PEOE_VSA9>
0

>  <PEOE_VSA10>
6.04

>  <PEOE_VSA11>
0

>  <PEOE_VSA12>
11.81

>  <PEOE_VSA13>
0

>  <SMR_VSA1>
9.59

>  <SMR_VSA2>
0

>  <SMR_VSA3>
10.63

>  <SMR_VSA4>
0

>  <SMR_VSA5>
37.26

>  <SMR_VSA6>
0

>  <SMR_VSA7>
35.9

>  <SMR_VSA8>
0

>  <SMR_VSA9>
0

>  <SlogP_VSA1>
10.63

>  <SlogP_VSA2>
23.9

>  <SlogP_VSA3>
9.59

>  <SlogP_VSA4>
0

>  <SlogP_VSA5>
30.74

>  <SlogP_VSA6>
30.33

>  <SlogP_VSA7>
0

>  <SlogP_VSA8>
0

>  <SlogP_VSA9>
0

>  <SlogP_VSA10>
0

>  <SlogP_VSA11>
0

>  <EState_VSA1>
0

>  <EState_VSA2>
23.9

>  <EState_VSA3>
18.76

>  <EState_VSA4>
6.42

>  <EState_VSA5>
5.56

>  <EState_VSA6>
0

>  <EState_VSA7>
18.2

>  <EState_VSA8>
22.77

>  <EState_VSA9>
0

>  <EState_VSA10>
9.59

>  <VSA_EState1>
0

>  <VSA_EState2>
22.95

>  <VSA_EState3>
5.7

>  <VSA_EState4>
1.28

>  <VSA_EState5>
0.38

>  <VSA_EState6>
10.12

>  <VSA_EState7>
2.08

>  <VSA_EState8>
0

>  <VSA_EState9>
0

>  <apol>
37.85

>  <bpol>
18.93

>  <nRing>
3

>  <nHRing>
1

>  <naRing>
1

>  <naHRing>
0

>  <nARing 2>
2

>  <nAHRing 2>
1

>  <nFRing>
0

>  <nFHRing>
0

>  <nFaRing>
0

>  <nFaHRing>
0

>  <nFARing 2>
0

>  <nFAHRing 2>
0

>  <nRot>
3

>  <SLogP>
0.94

>  <SMR>
66.9

>  <TopoPSA(NO)>
58.2

>  <TopoPSA>
58.2

>  <JGI1>
0.18

>  <JGI2>
0.08

>  <JGI3>
0.06

>  <JGI4>
0.04

>  <JGI5>
0.02

>  <Diameter>
11

>  <Radius>
6

>  <TMWC10>
110.68

>  <TSRW10>
71.35

>  <MW>
244.12

>  <AMW>
7.18

>  <WPath>
678

>  <WPol>
22

>  <Zagreb1>
96

>  <Zagreb2>
113

>  <mZagreb2>
3.92

>  <yes>


>  <nAR-cont>
1

>  <nHA-cont>
0.991161285

>  <MWHBN>
0.256010814

>  <MWHBN-cont>
0.949106815

>  <TPSA-cont>
0.59372786

>  <pka_cont>
0.97

>  <yes.1>


>  <BBB_SCORE>
5.087277227

>  <MMFF94 Energy>
8.8125

$$$$
Compound 1839
Actelion Java MolfileCreator 2.0

  0  0  0  0  0  0              0 V3000
M  V30 BEGIN CTAB
M  V30 COUNTS 57 60 0 0 0
M  V30 BEGIN ATOM
M  V30 1 O -0.6389 -3.9985 -2.3176 0
M  V30 2 C -1.5482 -3.1849 -2.4826 0
M  V30 3 N -2.6163 -3.5504 -3.2681 0
M  V30 4 C -1.5475 -1.744 -1.8879 0 CFG=2
M  V30 5 C -3.7937 -2.884 -3.4736 0
M  V30 6 C -1.0049 -0.715 -2.9068 0
M  V30 7 C -0.6732 -1.7706 -0.562 0
M  V30 8 C -3.0447 -1.4737 -1.5463 0
M  V30 9 O -4.6613 -3.3431 -4.2112 0
M  V30 10 C -3.9492 -1.5648 -2.7712 0
M  V30 11 C -0.1771 -1.107 -3.9768 0
M  V30 12 C -1.2895 0.658 -2.7826 0
M  V30 13 C 0.8538 -1.7629 -0.8056 0
M  V30 14 C -0.9931 -0.6639 0.4652 0
M  V30 15 C 0.3152 -0.1746 -4.8947 0
M  V30 16 C -0.7964 1.5897 -3.7007 0
M  V30 17 C 1.6371 -1.8741 0.5044 0
M  V30 18 C -0.1393 -0.8021 1.7317 0
M  V30 19 C 0.0019 1.1728 -4.7594 0
M  V30 20 N 1.295 -0.7721 1.4142 0
M  V30 21 C 2.1104 -0.845 2.6357 0
M  V30 22 C 2.2178 0.4382 3.4206 0
M  V30 23 C 1.886 1.6691 2.9939 0
M  V30 24 C 2.0043 2.8893 3.8034 0
M  V30 25 C 3.078 3.1103 4.6757 0
M  V30 26 C 1.0375 3.8928 3.6576 0
M  V30 27 C 3.1679 4.298 5.4069 0
M  V30 28 C 1.1265 5.0801 4.3889 0
M  V30 29 C 2.1905 5.281 5.2655 0
M  V30 30 H -2.5462 -4.4576 -3.7075 0
M  V30 31 H -0.9077 -2.719 -0.0538 0
M  V30 32 H -3.1971 -0.4904 -1.0899 0
M  V30 33 H -3.3834 -2.213 -0.8062 0
M  V30 34 H -4.9939 -1.4676 -2.4546 0
M  V30 35 H -3.7453 -0.7661 -3.4909 0
M  V30 36 H 0.1226 -2.1447 -4.1124 0
M  V30 37 H -1.8955 1.0365 -1.9636 0
M  V30 38 H 1.1563 -0.8345 -1.3059 0
M  V30 39 H 1.1543 -2.5873 -1.4588 0
M  V30 40 H -0.8243 0.3266 0.029 0
M  V30 41 H -2.043 -0.7121 0.7722 0
M  V30 42 H 0.9535 -0.5039 -5.711 0
M  V30 43 H -1.0316 2.6446 -3.5822 0
M  V30 44 H 1.4459 -2.8482 0.9736 0
M  V30 45 H 2.7054 -1.8347 0.2584 0
M  V30 46 H -0.406 -1.7328 2.2506 0
M  V30 47 H -0.4055 0.0229 2.4022 0
M  V30 48 H 0.3891 1.8976 -5.4703 0
M  V30 49 H 3.1427 -1.1189 2.3797 0
M  V30 50 H 1.7385 -1.6386 3.2972 0
M  V30 51 H 2.6115 0.3096 4.4263 0
M  V30 52 H 1.4884 1.8054 1.9903 0
M  V30 53 H 3.8628 2.3664 4.7857 0
M  V30 54 H 0.2011 3.7538 2.9765 0
M  V30 55 H 4.0051 4.4566 6.0813 0
M  V30 56 H 0.3661 5.8476 4.2714 0
M  V30 57 H 2.2617 6.2051 5.8331 0
M  V30 END ATOM
M  V30 BEGIN BOND
M  V30 1 2 1 2
M  V30 2 1 2 3
M  V30 3 1 2 4
M  V30 4 1 3 5
M  V30 5 1 4 6
M  V30 6 1 4 7
M  V30 7 1 4 8
M  V30 8 2 5 9
M  V30 9 1 5 10
M  V30 10 2 6 11
M  V30 11 1 6 12
M  V30 12 1 7 13
M  V30 13 1 7 14
M  V30 14 1 11 15
M  V30 15 2 12 16
M  V30 16 1 13 17
M  V30 17 1 14 18
M  V30 18 2 15 19
M  V30 19 1 17 20
M  V30 20 1 20 21
M  V30 21 1 21 22
M  V30 22 2 22 23
M  V30 23 1 23 24
M  V30 24 2 24 25
M  V30 25 1 24 26
M  V30 26 1 25 27
M  V30 27 2 26 28
M  V30 28 2 27 29
M  V30 29 1 8 10
M  V30 30 1 16 19
M  V30 31 1 18 20
M  V30 32 1 28 29
M  V30 33 1 3 30
M  V30 34 1 7 31
M  V30 35 1 8 32
M  V30 36 1 8 33
M  V30 37 1 10 34
M  V30 38 1 10 35
M  V30 39 1 11 36
M  V30 40 1 12 37
M  V30 41 1 13 38
M  V30 42 1 13 39
M  V30 43 1 14 40
M  V30 44 1 14 41
M  V30 45 1 15 42
M  V30 46 1 16 43
M  V30 47 1 17 44
M  V30 48 1 17 45
M  V30 49 1 18 46
M  V30 50 1 18 47
M  V30 51 1 19 48
M  V30 52 1 21 49
M  V30 53 1 21 50
M  V30 54 1 22 51
M  V30 55 1 23 52
M  V30 56 1 25 53
M  V30 57 1 26 54
M  V30 58 1 27 55
M  V30 59 1 28 56
M  V30 60 1 29 57
M  V30 END BOND
M  V30 BEGIN COLLECTION
M  V30 MDLV30/STERAC1 ATOMS=(1 4)
M  V30 END COLLECTION
M  V30 END CTAB
M  END
>  <Column 1>
2247

>  <level_0>
2428

>  <index>
2428

>  <Unnamed: 0>
2428

>  <NO.>
2440

>  <Name>
cinperene

>  <IUPAC_name>
3-phenyl-3-[1-[(e)-3-phenylprop-2-enyl]piperidin-4-yl]piperidine-2-6-dione

>  <SMILES>
O=C1CCC(c2ccccc2)(C2CCN(C/C=C/c3ccccc3)CC2)C(=O)N1

>  <CID>
6433620

>  <logBB>


>  <BBB+/BBB->
BBB+

>  <Inchi>
InChI=1S/C25H28N2O2/c28-23-13-16-25(24(29)26-23-21-11-5-2-6-12-21)22-14-18-27(19-15-22)17-7-10-20-8-3-1-4-9-20/h1-12-22H-13-19H2-(H-26-28-29)/b10-7+

>  <threshold>
-1

>  <reference>
R1|R13|R6|R27|R30|

>  <group>
B

>  <Class>
1

>  <ABC>
22.66

>  <ABCGG>
16.68

>  <nAcid>
0

>  <nBase>
1

>  <nAromAtom>
12

>  <nAromBond>
12

>  <nAtom>
57

>  <nHeavyAtom>
29

>  <nSpiro>
0

>  <nBridgehead>
0

>  <nHetero>
4

>  <nN>
2

>  <nO>
2

>  <nF>
0

>  <BalabanJ>
1.3

>  <BertzCT>
870.21

>  <nBonds>
60

>  <nBondsO>
32

>  <nBondsS>
45

>  <nBondsD>
3

>  <nBondsT>
0

>  <nBondsA>
12

>  <nBondsM>
15

>  <nBondsKS>
51

>  <nBondsKD>
9

>  <RNCG>
0.15

>  <RPCG>
0.12

>  <FCSP3>
0.36

>  <SZ>
34.67

>  <Sm>
32.35

>  <Sv>
35.53

>  <Sse>
56.42

>  <Sp>
38.46

>  <Si>
63.81

>  <MZ>
0.61

>  <Mm>
0.57

>  <Mv>
0.62

>  <Mse>
0.99

>  <Mp>
0.67

>  <Mi>
1.12

>  <NsCH3>
0

>  <NdCH2>
0

>  <NssCH2>
7

>  <NtCH>
0

>  <NdsCH>
2

>  <NaaCH>
10

>  <NsssCH>
1

>  <NddC>
0

>  <NtsC>
0

>  <NdssC>
2

>  <NaasC>
2

>  <NaaaC>
0

>  <NssssC>
1

>  <NsNH3>
0

>  <NsNH2>
0

>  <NssNH2>
0

>  <NdNH>
0

>  <NssNH>
1

>  <NaaNH>
0

>  <NtN>
0

>  <NsssNH>
0

>  <NdsN>
0

>  <NaaN>
0

>  <NsssN>
1

>  <NddsN>
0

>  <NaasN>
0

>  <NssssN>
0

>  <NsOH>
0

>  <NdO>
2

>  <NssO>
0

>  <NaaO>
0

>  <NsF>
0

>  <NsSiH3>
0

>  <NssSiH2>
0

>  <NsssSiH>
0

>  <NssssSi>
0

>  <NsPH2>
0

>  <NssPH>
0

>  <NsssP>
0

>  <NdsssP>
0

>  <NsssssP>
0

>  <NsSH>
0

>  <NdS>
0

>  <NssS>
0

>  <NaaS>
0

>  <NdssS>
0

>  <NddssS>
0

>  <NsCl>
0

>  <NsBr>
0

>  <NsI>
0

>  <fragCpx>
212.04

>  <fMF>
0.47

>  <nHBAcc>
3

>  <nHBDon>
1

>  <Kier1>
22.2

>  <Kier2>
10.54

>  <Lipinski>
1

>  <GhoseFilter>
1

>  <FilterItLogS>
-5.53

>  <VMcGowan>
312.67

>  <LabuteASA>
172.16

>  <PEOE_VSA1>
0

>  <PEOE_VSA2>
19.81

>  <PEOE_VSA3>
0

>  <PEOE_VSA4>
0

>  <PEOE_VSA5>
0

>  <PEOE_VSA6>
72.82

>  <PEOE_VSA7>
49.4

>  <PEOE_VSA8>
12.97

>  <PEOE_VSA9>
5.41

>  <PEOE_VSA10>
0

>  <PEOE_VSA11>
0

>  <PEOE_VSA12>
11.81

>  <PEOE_VSA13>
0

>  <SMR_VSA1>
9.59

>  <SMR_VSA2>
0

>  <SMR_VSA3>
10.22

>  <SMR_VSA4>
5.92

>  <SMR_VSA5>
31.1

>  <SMR_VSA6>
19.63

>  <SMR_VSA7>
77.87

>  <SMR_VSA8>
0

>  <SMR_VSA9>
0

>  <SlogP_VSA1>
5.32

>  <SlogP_VSA2>
36.35

>  <SlogP_VSA3>
15

>  <SlogP_VSA4>
5.92

>  <SlogP_VSA5>
36.81

>  <SlogP_VSA6>
66.74

>  <SlogP_VSA7>
0

>  <SlogP_VSA8>
6.08

>  <SlogP_VSA9>
0

>  <SlogP_VSA10>
0

>  <SlogP_VSA11>
0

>  <EState_VSA1>
5.41

>  <EState_VSA2>
17.73

>  <EState_VSA3>
12.84

>  <EState_VSA4>
38.04

>  <EState_VSA5>
5.56

>  <EState_VSA6>
0

>  <EState_VSA7>
48.53

>  <EState_VSA8>
34.5

>  <EState_VSA9>
0

>  <EState_VSA10>
9.59

>  <VSA_EState1>
0

>  <VSA_EState2>
27.34

>  <VSA_EState3>
2.63

>  <VSA_EState4>
1.68

>  <VSA_EState5>
0

>  <VSA_EState6>
20.39

>  <VSA_EState7>
7.35

>  <VSA_EState8>
2.86

>  <VSA_EState9>
0

>  <apol>
64.22

>  <bpol>
32.11

>  <nRing>
4

>  <nHRing>
2

>  <naRing>
2

>  <naHRing>
0

>  <nARing 2>
2

>  <nAHRing 2>
2

>  <nFRing>
0

>  <nFHRing>
0

>  <nFaRing>
0

>  <nFaHRing>
0

>  <nFARing 2>
0

>  <nFAHRing 2>
0

>  <nRot>
5

>  <SLogP>
3.79

>  <SMR>
115.14

>  <TopoPSA(NO)>
49.41

>  <TopoPSA>
49.41

>  <JGI1>
0.17

>  <JGI2>
0.08

>  <JGI3>
0.05

>  <JGI4>
0.02

>  <JGI5>
0.02

>  <Diameter>
15

>  <Radius>
8

>  <TMWC10>
138.15

>  <TSRW10>
64.72

>  <MW>
388.22

>  <AMW>
6.81

>  <WPath>
2444

>  <WPol>
48

>  <Zagreb1>
152

>  <Zagreb2>
180

>  <mZagreb2>
6.46

>  <yes>


>  <nAR-cont>
1

>  <nHA-cont>
0.785905698

>  <MWHBN>
0.203011686

>  <MWHBN-cont>
0.999967545

>  <TPSA-cont>
0.655087518

>  <pka_cont>
0.97

>  <yes.1>


>  <BBB_SCORE>
5.081032053

>  <MMFF94 Energy>
23.218

$$$$
Compound 1840
Actelion Java MolfileCreator 2.0

  0  0  0  0  0  0              0 V3000
M  V30 BEGIN CTAB
M  V30 COUNTS 31 33 0 0 0
M  V30 BEGIN ATOM
M  V30 1 O 0.7278 -2.9136 0.4851 0
M  V30 2 C 0.8722 -1.7674 0.9084 0
M  V30 3 N 2.0195 -1.4436 1.5933 0
M  V30 4 C -0.1487 -0.6399 0.6608 0 CFG=2
M  V30 5 C 2.4112 -0.2268 2.088 0
M  V30 6 C -0.0443 -0.0425 -0.7472 0
M  V30 7 C 0.0309 0.4521 1.7417 0
M  V30 8 C -1.5516 -1.2861 0.7875 0
M  V30 9 O 3.5009 -0.089 2.6355 0
M  V30 10 C 1.4714 0.9263 1.8609 0
M  V30 11 C -1.183 0.5059 -1.3749 0
M  V30 12 C 1.177 0.0059 -1.4462 0
M  V30 13 C -2.6815 -0.294 0.5652 0
M  V30 14 C -2.5183 0.4866 -0.7153 0
M  V30 15 C -1.0898 1.0894 -2.6471 0
M  V30 16 C 1.2609 0.5838 -2.716 0
M  V30 17 O -3.455 1.1242 -1.1903 0
M  V30 18 C 0.1304 1.1275 -3.3154 0
M  V30 19 H 2.6726 -2.203 1.7339 0
M  V30 20 H -0.6038 1.324 1.5436 0
M  V30 21 H -0.2783 0.0499 2.7166 0
M  V30 22 H -1.6704 -1.753 1.7741 0
M  V30 23 H -1.6578 -2.0991 0.0545 0
M  V30 24 H 1.7934 1.4668 0.9656 0
M  V30 25 H 1.5575 1.6118 2.7116 0
M  V30 26 H 2.0923 -0.4046 -1.0259 0
M  V30 27 H -2.7531 0.4167 1.3949 0
M  V30 28 H -3.6286 -0.8428 0.5102 0
M  V30 29 H -1.9724 1.5131 -3.1239 0
M  V30 30 H 2.2146 0.6078 -3.2392 0
M  V30 31 H 0.1964 1.5771 -4.303 0
M  V30 END ATOM
M  V30 BEGIN BOND
M  V30 1 2 1 2
M  V30 2 1 2 3
M  V30 3 1 2 4
M  V30 4 1 3 5
M  V30 5 1 4 6
M  V30 6 1 4 7
M  V30 7 1 4 8
M  V30 8 2 5 9
M  V30 9 1 5 10
M  V30 10 2 6 11
M  V30 11 1 6 12
M  V30 12 1 8 13
M  V30 13 1 11 14
M  V30 14 1 11 15
M  V30 15 2 12 16
M  V30 16 2 14 17
M  V30 17 2 15 18
M  V30 18 1 7 10
M  V30 19 1 13 14
M  V30 20 1 16 18
M  V30 21 1 3 19
M  V30 22 1 7 20
M  V30 23 1 7 21
M  V30 24 1 8 22
M  V30 25 1 8 23
M  V30 26 1 10 24
M  V30 27 1 10 25
M  V30 28 1 12 26
M  V30 29 1 13 27
M  V30 30 1 13 28
M  V30 31 1 15 29
M  V30 32 1 16 30
M  V30 33 1 18 31
M  V30 END BOND
M  V30 BEGIN COLLECTION
M  V30 MDLV30/STERAC1 ATOMS=(1 4)
M  V30 END COLLECTION
M  V30 END CTAB
M  END
>  <Column 1>
2248

>  <level_0>
2429

>  <index>
2429

>  <Unnamed: 0>
2429

>  <NO.>
2441

>  <Name>
alonimid

>  <IUPAC_name>
spiro[2-3-dihydronaphthalene-4-3'-piperidine]-1-2'-6'-trione

>  <SMILES>
O=C1CCC2(CCC(=O)c3ccccc32)C(=O)N1

>  <CID>
17928

>  <logBB>


>  <BBB+/BBB->
BBB+

>  <Inchi>
InChI=1S/C14H13NO3/c16-11-5-7-14(8-6-12(17)15-13(14)18)10-4-2-1-3-9(10)11/h1-4H-5-8H2-(H-15-17-18)

>  <threshold>
-1

>  <reference>
R1|R13|R19|R6|R27|R27|R30|

>  <group>
B

>  <Class>
1

>  <ABC>
14.27

>  <ABCGG>
11.8

>  <nAcid>
0

>  <nBase>
0

>  <nAromAtom>
6

>  <nAromBond>
6

>  <nAtom>
31

>  <nHeavyAtom>
18

>  <nSpiro>
1

>  <nBridgehead>
0

>  <nHetero>
4

>  <nN>
1

>  <nO>
3

>  <nF>
0

>  <BalabanJ>
1.86

>  <BertzCT>
563.91

>  <nBonds>
33

>  <nBondsO>
20

>  <nBondsS>
24

>  <nBondsD>
3

>  <nBondsT>
0

>  <nBondsA>
6

>  <nBondsM>
9

>  <nBondsKS>
27

>  <nBondsKD>
6

>  <RNCG>
0.2

>  <RPCG>
0.16

>  <FCSP3>
0.36

>  <SZ>
21.33

>  <Sm>
20.25

>  <Sv>
20.42

>  <Sse>
31.43

>  <Sp>
21.29

>  <Si>
34.62

>  <MZ>
0.69

>  <Mm>
0.65

>  <Mv>
0.66

>  <Mse>
1.01

>  <Mp>
0.69

>  <Mi>
1.12

>  <NsCH3>
0

>  <NdCH2>
0

>  <NssCH2>
4

>  <NtCH>
0

>  <NdsCH>
0

>  <NaaCH>
4

>  <NsssCH>
0

>  <NddC>
0

>  <NtsC>
0

>  <NdssC>
3

>  <NaasC>
2

>  <NaaaC>
0

>  <NssssC>
1

>  <NsNH3>
0

>  <NsNH2>
0

>  <NssNH2>
0

>  <NdNH>
0

>  <NssNH>
1

>  <NaaNH>
0

>  <NtN>
0

>  <NsssNH>
0

>  <NdsN>
0

>  <NaaN>
0

>  <NsssN>
0

>  <NddsN>
0

>  <NaasN>
0

>  <NssssN>
0

>  <NsOH>
0

>  <NdO>
3

>  <NssO>
0

>  <NaaO>
0

>  <NsF>
0

>  <NsSiH3>
0

>  <NssSiH2>
0

>  <NsssSiH>
0

>  <NssssSi>
0

>  <NsPH2>
0

>  <NssPH>
0

>  <NsssP>
0

>  <NdsssP>
0

>  <NsssssP>
0

>  <NsSH>
0

>  <NdS>
0

>  <NssS>
0

>  <NaaS>
0

>  <NdssS>
0

>  <NddssS>
0

>  <NsCl>
0

>  <NsBr>
0

>  <NsI>
0

>  <fragCpx>
94.04

>  <fMF>
0.48

>  <nHBAcc>
3

>  <nHBDon>
1

>  <Kier1>
13.01

>  <Kier2>
4.84

>  <Lipinski>
1

>  <GhoseFilter>
1

>  <FilterItLogS>
-3.72

>  <VMcGowan>
177.33

>  <LabuteASA>
104.37

>  <PEOE_VSA1>
0

>  <PEOE_VSA2>
19.7

>  <PEOE_VSA3>
0

>  <PEOE_VSA4>
0

>  <PEOE_VSA5>
0

>  <PEOE_VSA6>
24.27

>  <PEOE_VSA7>
18.41

>  <PEOE_VSA8>
18.41

>  <PEOE_VSA9>
5.41

>  <PEOE_VSA10>
0

>  <PEOE_VSA11>
5.78

>  <PEOE_VSA12>
11.81

>  <PEOE_VSA13>
0

>  <SMR_VSA1>
14.38

>  <SMR_VSA2>
0

>  <SMR_VSA3>
5.32

>  <SMR_VSA4>
0

>  <SMR_VSA5>
31.1

>  <SMR_VSA6>
0

>  <SMR_VSA7>
35.39

>  <SMR_VSA8>
0

>  <SMR_VSA9>
0

>  <SlogP_VSA1>
5.32

>  <SlogP_VSA2>
17.6

>  <SlogP_VSA3>
15

>  <SlogP_VSA4>
0

>  <SlogP_VSA5>
41.6

>  <SlogP_VSA6>
24.27

>  <SlogP_VSA7>
0

>  <SlogP_VSA8>
0

>  <SlogP_VSA9>
0

>  <SlogP_VSA10>
0

>  <SlogP_VSA11>
0

>  <EState_VSA1>
5.41

>  <EState_VSA2>
17.6

>  <EState_VSA3>
31.25

>  <EState_VSA4>
5.56

>  <EState_VSA5>
0

>  <EState_VSA6>
6.07

>  <EState_VSA7>
18.2

>  <EState_VSA8>
5.32

>  <EState_VSA9>
0

>  <EState_VSA10>
14.38

>  <VSA_EState1>
0

>  <VSA_EState2>
35.37

>  <VSA_EState3>
2.41

>  <VSA_EState4>
0.73

>  <VSA_EState5>
-0.39

>  <VSA_EState6>
7.24

>  <VSA_EState7>
1.72

>  <VSA_EState8>
0

>  <VSA_EState9>
0

>  <apol>
35.55

>  <bpol>
16.22

>  <nRing>
3

>  <nHRing>
1

>  <naRing>
1

>  <naHRing>
0

>  <nARing 2>
2

>  <nAHRing 2>
1

>  <nFRing>
1

>  <nFHRing>
0

>  <nFaRing>
0

>  <nFaHRing>
0

>  <nFARing 2>
1

>  <nFAHRing 2>
0

>  <nRot>
0

>  <SLogP>
1.34

>  <SMR>
64.07

>  <TopoPSA(NO)>
63.24

>  <TopoPSA>
63.24

>  <JGI1>
0.23

>  <JGI2>
0.11

>  <JGI3>
0.06

>  <JGI4>
0.05

>  <JGI5>
0.03

>  <Diameter>
8

>  <Radius>
4

>  <TMWC10>
112.66

>  <TSRW10>
52.08

>  <MW>
243.09

>  <AMW>
7.84

>  <WPath>
526

>  <WPol>
34

>  <Zagreb1>
100

>  <Zagreb2>
123

>  <mZagreb2>
3.89

>  <yes>


>  <nAR-cont>
1

>  <nHA-cont>
0.991161285

>  <MWHBN>
0.256552614

>  <MWHBN-cont>
0.948090452

>  <TPSA-cont>
0.55854553

>  <pka_cont>
0.97

>  <yes.1>


>  <BBB_SCORE>
5.015388024

>  <MMFF94 Energy>
12.89

$$$$
Compound 1841
Actelion Java MolfileCreator 2.0

  0  0  0  0  0  0              0 V3000
M  V30 BEGIN CTAB
M  V30 COUNTS 19 20 0 0 0
M  V30 BEGIN ATOM
M  V30 1 O -0.4807 -2.887 -0.641 0
M  V30 2 C -0.1369 -1.8632 -0.0791 0
M  V30 3 N -0.5757 -0.5551 -0.2942 0
M  V30 4 C 0.844 -1.7885 1.0754 0
M  V30 5 C -1.2527 0.0584 -1.35 0
M  V30 6 C -0.0137 0.3802 0.6265 0
M  V30 7 C 1.2481 -0.3101 1.0967 0
M  V30 8 O -1.8928 -0.4553 -2.2491 0
M  V30 9 C -1.0954 1.5516 -1.1336 0
M  V30 10 C 0.1133 1.6441 -0.1958 0
M  V30 11 H 1.7036 -2.4401 0.902 0
M  V30 12 H 0.329 -2.0773 1.9971 0
M  V30 13 H -0.7285 0.5095 1.4495 0
M  V30 14 H 1.5733 0.0243 2.0859 0
M  V30 15 H 2.0751 -0.1477 0.3945 0
M  V30 16 H -0.9138 2.0677 -2.0793 0
M  V30 17 H -2.0026 1.9383 -0.6587 0
M  V30 18 H 0.1057 2.5518 0.4142 0
M  V30 19 H 1.0363 1.6413 -0.7888 0
M  V30 END ATOM
M  V30 BEGIN BOND
M  V30 1 2 1 2
M  V30 2 1 2 3
M  V30 3 1 2 4
M  V30 4 1 3 5
M  V30 5 1 3 6
M  V30 6 1 4 7
M  V30 7 2 5 8
M  V30 8 1 5 9
M  V30 9 1 6 10
M  V30 10 1 6 7
M  V30 11 1 9 10
M  V30 12 1 4 11
M  V30 13 1 4 12
M  V30 14 1 6 13
M  V30 15 1 7 14
M  V30 16 1 7 15
M  V30 17 1 9 16
M  V30 18 1 9 17
M  V30 19 1 10 18
M  V30 20 1 10 19
M  V30 END BOND
M  V30 END CTAB
M  END
>  <Column 1>
2249

>  <level_0>
2430

>  <index>
2430

>  <Unnamed: 0>
2430

>  <NO.>
2442

>  <Name>
rolziracetam

>  <IUPAC_name>
2-6-7-8-tetrahydro-1h-pyrrolizine-3-5-dione

>  <SMILES>
O=C1CCC2CCC(=O)N12

>  <CID>
71893

>  <logBB>


>  <BBB+/BBB->
BBB+

>  <Inchi>
InChI=1S/C7H9NO2/c9-6-3-1-5-2-4-7(10)8(5)6/h5H-1-4H2

>  <threshold>
-1

>  <reference>
R1|R13|R19|R24|R27|R27|R27|R30|R30|

>  <group>
B

>  <Class>
1

>  <ABC>
7.88

>  <ABCGG>
7.88

>  <nAcid>
0

>  <nBase>
0

>  <nAromAtom>
0

>  <nAromBond>
0

>  <nAtom>
19

>  <nHeavyAtom>
10

>  <nSpiro>
0

>  <nBridgehead>
0

>  <nHetero>
3

>  <nN>
1

>  <nO>
2

>  <nF>
0

>  <BalabanJ>
2.11

>  <BertzCT>
179.78

>  <nBonds>
20

>  <nBondsO>
11

>  <nBondsS>
18

>  <nBondsD>
2

>  <nBondsT>
0

>  <nBondsA>
0

>  <nBondsM>
2

>  <nBondsKS>
18

>  <nBondsKD>
2

>  <RNCG>
0.32

>  <RPCG>
0.26

>  <FCSP3>
0.71

>  <SZ>
12.33

>  <Sm>
11.59

>  <Sv>
11.63

>  <Sse>
19.32

>  <Sp>
12.21

>  <Si>
21.58

>  <MZ>
0.65

>  <Mm>
0.61

>  <Mv>
0.61

>  <Mse>
1.02

>  <Mp>
0.64

>  <Mi>
1.14

>  <NsCH3>
0

>  <NdCH2>
0

>  <NssCH2>
4

>  <NtCH>
0

>  <NdsCH>
0

>  <NaaCH>
0

>  <NsssCH>
1

>  <NddC>
0

>  <NtsC>
0

>  <NdssC>
2

>  <NaasC>
0

>  <NaaaC>
0

>  <NssssC>
0

>  <NsNH3>
0

>  <NsNH2>
0

>  <NssNH2>
0

>  <NdNH>
0

>  <NssNH>
0

>  <NaaNH>
0

>  <NtN>
0

>  <NsssNH>
0

>  <NdsN>
0

>  <NaaN>
0

>  <NsssN>
1

>  <NddsN>
0

>  <NaasN>
0

>  <NssssN>
0

>  <NsOH>
0

>  <NdO>
2

>  <NssO>
0

>  <NaaO>
0

>  <NsF>
0

>  <NsSiH3>
0

>  <NssSiH2>
0

>  <NsssSiH>
0

>  <NssssSi>
0

>  <NsPH2>
0

>  <NssPH>
0

>  <NsssP>
0

>  <NdsssP>
0

>  <NsssssP>
0

>  <NsSH>
0

>  <NdS>
0

>  <NssS>
0

>  <NaaS>
0

>  <NdssS>
0

>  <NddssS>
0

>  <NsCl>
0

>  <NsBr>
0

>  <NsI>
0

>  <fragCpx>
31.03

>  <fMF>
0.42

>  <nHBAcc>
2

>  <nHBDon>
0

>  <Kier1>
6.69

>  <Kier2>
2.25

>  <Lipinski>
1

>  <GhoseFilter>
0

>  <FilterItLogS>
-0.67

>  <VMcGowan>
100.89

>  <LabuteASA>
59

>  <PEOE_VSA1>
0

>  <PEOE_VSA2>
14.49

>  <PEOE_VSA3>
0

>  <PEOE_VSA4>
0

>  <PEOE_VSA5>
0

>  <PEOE_VSA6>
0

>  <PEOE_VSA7>
12.84

>  <PEOE_VSA8>
18.88

>  <PEOE_VSA9>
0

>  <PEOE_VSA10>
0

>  <PEOE_VSA11>
0

>  <PEOE_VSA12>
11.81

>  <PEOE_VSA13>
0

>  <SMR_VSA1>
9.59

>  <SMR_VSA2>
0

>  <SMR_VSA3>
4.9

>  <SMR_VSA4>
0

>  <SMR_VSA5>
31.73

>  <SMR_VSA6>
0

>  <SMR_VSA7>
0

>  <SMR_VSA8>
0

>  <SMR_VSA9>
0

>  <SlogP_VSA1>
0

>  <SlogP_VSA2>
22.76

>  <SlogP_VSA3>
9.59

>  <SlogP_VSA4>
0

>  <SlogP_VSA5>
25.68

>  <SlogP_VSA6>
0

>  <SlogP_VSA7>
0

>  <SlogP_VSA8>
0

>  <SlogP_VSA9>
0

>  <SlogP_VSA10>
0

>  <SlogP_VSA11>
0

>  <EState_VSA1>
0

>  <EState_VSA2>
17.86

>  <EState_VSA3>
12.84

>  <EState_VSA4>
12.84

>  <EState_VSA5>
4.9

>  <EState_VSA6>
0

>  <EState_VSA7>
0

>  <EState_VSA8>
0

>  <EState_VSA9>
0

>  <EState_VSA10>
9.59

>  <VSA_EState1>
0

>  <VSA_EState2>
23.39

>  <VSA_EState3>
0

>  <VSA_EState4>
0

>  <VSA_EState5>
0.07

>  <VSA_EState6>
0.26

>  <VSA_EState7>
2.95

>  <VSA_EState8>
0

>  <VSA_EState9>
0

>  <apol>
20.4

>  <bpol>
12.47

>  <nRing>
2

>  <nHRing>
2

>  <naRing>
0

>  <naHRing>
0

>  <nARing 2>
2

>  <nAHRing 2>
2

>  <nFRing>
1

>  <nFHRing>
1

>  <nFaRing>
0

>  <nFaHRing>
0

>  <nFARing 2>
1

>  <nFAHRing 2>
1

>  <nRot>
0

>  <SLogP>
0.3

>  <SMR>
34.11

>  <TopoPSA(NO)>
37.38

>  <TopoPSA>
37.38

>  <JGI1>
0.18

>  <JGI2>
0.1

>  <JGI3>
0.09

>  <JGI4>
0.04

>  <JGI5>
0

>  <Diameter>
4

>  <Radius>
2

>  <TMWC10>
88.96

>  <TSRW10>
56.37

>  <MW>
139.06

>  <AMW>
7.32

>  <WPath>
103

>  <WPol>
12

>  <Zagreb1>
54

>  <Zagreb2>
65

>  <mZagreb2>
2.17

>  <yes>


>  <nAR-cont>
1

>  <nHA-cont>
0.645914733

>  <MWHBN>
0.169601185

>  <MWHBN-cont>
0.973337713

>  <TPSA-cont>
0.739064388

>  <pka_cont>
0.97

>  <yes.1>


>  <BBB_SCORE>
5.06905008

>  <MMFF94 Energy>
-19.88

$$$$
Compound 1842
Actelion Java MolfileCreator 2.0

  0  0  0  0  0  0              0 V3000
M  V30 BEGIN CTAB
M  V30 COUNTS 30 32 0 0 0
M  V30 BEGIN ATOM
M  V30 1 O 1.2807 3.2041 0.0 0
M  V30 2 C 1.7043 2.0525 -0.0277 0
M  V30 3 N 1.1094 0.9987 0.6156 0
M  V30 4 C 2.884 1.639 -0.8667 0
M  V30 5 C 1.6625 -0.2582 0.6797 0
M  V30 6 C -0.1614 1.0564 1.2914 0
M  V30 7 C 3.6736 0.5547 -0.1587 0
M  V30 8 N 2.8391 -0.5739 0.2802 0
M  V30 9 C 0.6927 -1.2038 1.3256 0
M  V30 10 C -0.621 -0.4046 1.3462 0 CFG=2
M  V30 11 C -1.5827 -0.7347 0.2153 0
M  V30 12 C -2.96 -0.7839 0.4887 0
M  V30 13 C -1.1584 -0.9603 -1.1031 0
M  V30 14 C -3.8824 -1.0624 -0.5218 0
M  V30 15 C -2.0828 -1.2389 -2.1128 0
M  V30 16 C -3.4435 -1.2909 -1.8225 0
M  V30 17 H 2.501 1.2739 -1.8266 0
M  V30 18 H 3.52 2.5098 -1.0546 0
M  V30 19 H -0.8507 1.7362 0.7798 0
M  V30 20 H 0.0267 1.445 2.2992 0
M  V30 21 H 4.1914 0.9664 0.7162 0
M  V30 22 H 4.4449 0.1721 -0.8357 0
M  V30 23 H 0.6397 -2.1548 0.7891 0
M  V30 24 H 1.0478 -1.3949 2.3449 0
M  V30 25 H -1.1384 -0.5996 2.2943 0
M  V30 26 H -3.3309 -0.605 1.4961 0
M  V30 27 H -0.1057 -0.9237 -1.3724 0
M  V30 28 H -4.9444 -1.0992 -0.2931 0
M  V30 29 H -1.7385 -1.4138 -3.1291 0
M  V30 30 H -4.1606 -1.507 -2.6099 0
M  V30 END ATOM
M  V30 BEGIN BOND
M  V30 1 2 1 2
M  V30 2 1 2 3
M  V30 3 1 2 4
M  V30 4 1 3 5
M  V30 5 1 3 6
M  V30 6 1 4 7
M  V30 7 2 5 8
M  V30 8 1 5 9
M  V30 9 1 6 10
M  V30 10 1 10 11
M  V30 11 2 11 12
M  V30 12 1 11 13
M  V30 13 1 12 14
M  V30 14 2 13 15
M  V30 15 2 14 16
M  V30 16 1 7 8
M  V30 17 1 9 10
M  V30 18 1 15 16
M  V30 19 1 4 17
M  V30 20 1 4 18
M  V30 21 1 6 19
M  V30 22 1 6 20
M  V30 23 1 7 21
M  V30 24 1 7 22
M  V30 25 1 9 23
M  V30 26 1 9 24
M  V30 27 1 10 25
M  V30 28 1 12 26
M  V30 29 1 13 27
M  V30 30 1 14 28
M  V30 31 1 15 29
M  V30 32 1 16 30
M  V30 END BOND
M  V30 BEGIN COLLECTION
M  V30 MDLV30/STERAC1 ATOMS=(1 10)
M  V30 END COLLECTION
M  V30 END CTAB
M  END
>  <Column 1>
2250

>  <level_0>
2431

>  <index>
2431

>  <Unnamed: 0>
2431

>  <NO.>
2443

>  <Name>
rofelodine

>  <IUPAC_name>
7-phenyl-3-6-7-8-tetrahydro-2h-pyrrolo[1-2-a]pyrimidin-4-one

>  <SMILES>
O=C1CCN=C2CC(c3ccccc3)CN12

>  <CID>
71152

>  <logBB>


>  <BBB+/BBB->
BBB+

>  <Inchi>
InChI=1S/C13H14N2O/c16-13-6-7-14-12-8-11(9-15(12)13)10-4-2-1-3-5-10/h1-5-11H-6-9H2

>  <threshold>
-1

>  <reference>
R1|R19|R6|R27|R27|R30|

>  <group>
B

>  <Class>
1

>  <ABC>
12.72

>  <ABCGG>
10.55

>  <nAcid>
0

>  <nBase>
2

>  <nAromAtom>
6

>  <nAromBond>
6

>  <nAtom>
30

>  <nHeavyAtom>
16

>  <nSpiro>
0

>  <nBridgehead>
0

>  <nHetero>
3

>  <nN>
2

>  <nO>
1

>  <nF>
0

>  <BalabanJ>
1.62

>  <BertzCT>
438.51

>  <nBonds>
32

>  <nBondsO>
18

>  <nBondsS>
24

>  <nBondsD>
2

>  <nBondsT>
0

>  <nBondsA>
6

>  <nBondsM>
8

>  <nBondsKS>
27

>  <nBondsKD>
5

>  <RNCG>
0.25

>  <RPCG>
0.19

>  <FCSP3>
0.38

>  <SZ>
19

>  <Sm>
17.84

>  <Sv>
19.02

>  <Sse>
29.87

>  <Sp>
20.39

>  <Si>
33.7

>  <MZ>
0.63

>  <Mm>
0.59

>  <Mv>
0.63

>  <Mse>
1

>  <Mp>
0.68

>  <Mi>
1.12

>  <NsCH3>
0

>  <NdCH2>
0

>  <NssCH2>
4

>  <NtCH>
0

>  <NdsCH>
0

>  <NaaCH>
5

>  <NsssCH>
1

>  <NddC>
0

>  <NtsC>
0

>  <NdssC>
2

>  <NaasC>
1

>  <NaaaC>
0

>  <NssssC>
0

>  <NsNH3>
0

>  <NsNH2>
0

>  <NssNH2>
0

>  <NdNH>
0

>  <NssNH>
0

>  <NaaNH>
0

>  <NtN>
0

>  <NsssNH>
0

>  <NdsN>
1

>  <NaaN>
0

>  <NsssN>
1

>  <NddsN>
0

>  <NaasN>
0

>  <NssssN>
0

>  <NsOH>
0

>  <NdO>
1

>  <NssO>
0

>  <NaaO>
0

>  <NsF>
0

>  <NsSiH3>
0

>  <NssSiH2>
0

>  <NsssSiH>
0

>  <NssssSi>
0

>  <NsPH2>
0

>  <NssPH>
0

>  <NsssP>
0

>  <NdsssP>
0

>  <NsssssP>
0

>  <NsSH>
0

>  <NdS>
0

>  <NssS>
0

>  <NaaS>
0

>  <NdssS>
0

>  <NddssS>
0

>  <NsCl>
0

>  <NsBr>
0

>  <NsI>
0

>  <fragCpx>
84.03

>  <fMF>
0.5

>  <nHBAcc>
2

>  <nHBDon>
0

>  <Kier1>
11.11

>  <Kier2>
4.7

>  <Lipinski>
1

>  <GhoseFilter>
1

>  <FilterItLogS>
-2.61

>  <VMcGowan>
165.78

>  <LabuteASA>
94.79

>  <PEOE_VSA1>
0

>  <PEOE_VSA2>
14.69

>  <PEOE_VSA3>
0

>  <PEOE_VSA4>
0

>  <PEOE_VSA5>
0

>  <PEOE_VSA6>
30.33

>  <PEOE_VSA7>
5.56

>  <PEOE_VSA8>
31.85

>  <PEOE_VSA9>
0

>  <PEOE_VSA10>
5.84

>  <PEOE_VSA11>
0

>  <PEOE_VSA12>
5.91

>  <PEOE_VSA13>
0

>  <SMR_VSA1>
4.79

>  <SMR_VSA2>
0

>  <SMR_VSA3>
4.9

>  <SMR_VSA4>
4.99

>  <SMR_VSA5>
18.76

>  <SMR_VSA6>
13.09

>  <SMR_VSA7>
35.9

>  <SMR_VSA8>
0

>  <SMR_VSA9>
0

>  <SlogP_VSA1>
0

>  <SlogP_VSA2>
29.73

>  <SlogP_VSA3>
4.79

>  <SlogP_VSA4>
0

>  <SlogP_VSA5>
24.32

>  <SlogP_VSA6>
35.32

>  <SlogP_VSA7>
0

>  <SlogP_VSA8>
0

>  <SlogP_VSA9>
0

>  <SlogP_VSA10>
0

>  <SlogP_VSA11>
0

>  <EState_VSA1>
0

>  <EState_VSA2>
5.91

>  <EState_VSA3>
18.88

>  <EState_VSA4>
18.8

>  <EState_VSA5>
5.56

>  <EState_VSA6>
0

>  <EState_VSA7>
10.97

>  <EState_VSA8>
29.26

>  <EState_VSA9>
0

>  <EState_VSA10>
4.79

>  <VSA_EState1>
0

>  <VSA_EState2>
18

>  <VSA_EState3>
0

>  <VSA_EState4>
1.31

>  <VSA_EState5>
1.66

>  <VSA_EState6>
10.39

>  <VSA_EState7>
1.49

>  <VSA_EState8>
1.48

>  <VSA_EState9>
0

>  <apol>
34.05

>  <bpol>
17.76

>  <nRing>
3

>  <nHRing>
2

>  <naRing>
1

>  <naHRing>
0

>  <nARing 2>
2

>  <nAHRing 2>
2

>  <nFRing>
1

>  <nFHRing>
1

>  <nFaRing>
0

>  <nFaHRing>
0

>  <nFARing 2>
1

>  <nFAHRing 2>
1

>  <nRot>
1

>  <SLogP>
1.8

>  <SMR>
62.43

>  <TopoPSA(NO)>
32.67

>  <TopoPSA>
32.67

>  <JGI1>
0.14

>  <JGI2>
0.07

>  <JGI3>
0.04

>  <JGI4>
0.04

>  <JGI5>
0.03

>  <Diameter>
8

>  <Radius>
4

>  <TMWC10>
105.76

>  <TSRW10>
62.7

>  <MW>
214.11

>  <AMW>
7.14

>  <WPath>
426

>  <WPol>
23

>  <Zagreb1>
86

>  <Zagreb2>
102

>  <mZagreb2>
3.5

>  <yes>


>  <nAR-cont>
1

>  <nHA-cont>
0.954961865

>  <MWHBN>
0.136682061

>  <MWHBN-cont>
0.893069176

>  <TPSA-cont>
0.771943113

>  <pka_cont>
0.97

>  <yes.1>


>  <BBB_SCORE>
5.323451856

>  <MMFF94 Energy>
-10.544

$$$$
Compound 1843
Actelion Java MolfileCreator 2.0

  0  0  0  0  0  0              0 V3000
M  V30 BEGIN CTAB
M  V30 COUNTS 32 34 0 0 0
M  V30 BEGIN ATOM
M  V30 1 Cl -0.4848 -0.7273 -4.5324 0
M  V30 2 C -1.0913 -0.4019 -2.9563 0
M  V30 3 C -0.2649 -0.5543 -1.8474 0
M  V30 4 C -2.4015 0.0128 -2.7931 0
M  V30 5 C -0.7308 -0.2859 -0.5384 0
M  V30 6 C -2.8848 0.2568 -1.5072 0
M  V30 7 N 0.2181 -0.4016 0.535 0
M  V30 8 C -2.0788 0.1083 -0.3573 0
M  V30 9 C -0.0214 -1.0224 1.7592 0
M  V30 10 C 1.4964 0.1918 0.2983 0
M  V30 11 N -2.7225 0.2915 0.8537 0
M  V30 12 O 0.8421 -1.2302 2.6178 0
M  V30 13 C -1.4392 -1.4135 2.0592 0
M  V30 14 C 1.5901 1.5541 -0.0215 0
M  V30 15 C 2.6646 -0.5766 0.3753 0
M  V30 16 C -2.2254 -0.1235 2.1473 0
M  V30 17 C 2.8351 2.1343 -0.2714 0
M  V30 18 C 3.9083 0.0069 0.1258 0
M  V30 19 C 3.9924 1.3602 -0.1994 0
M  V30 20 H 0.7593 -0.8848 -2.0067 0
M  V30 21 H -3.0574 0.1347 -3.6505 0
M  V30 22 H -3.9275 0.5521 -1.4017 0
M  V30 23 H -3.6198 0.765 0.8472 0
M  V30 24 H -1.4498 -1.9198 3.0318 0
M  V30 25 H -1.819 -2.122 1.3163 0
M  V30 26 H 0.6963 2.171 -0.071 0
M  V30 27 H 2.6133 -1.6311 0.6346 0
M  V30 28 H -1.6389 0.6905 2.5906 0
M  V30 29 H -3.0919 -0.2783 2.8005 0
M  V30 30 H 2.9019 3.1908 -0.5177 0
M  V30 31 H 4.8111 -0.5945 0.192 0
M  V30 32 H 4.962 1.8132 -0.3899 0
M  V30 END ATOM
M  V30 BEGIN BOND
M  V30 1 1 1 2
M  V30 2 2 2 3
M  V30 3 1 2 4
M  V30 4 1 3 5
M  V30 5 2 4 6
M  V30 6 1 5 7
M  V30 7 2 5 8
M  V30 8 1 7 9
M  V30 9 1 7 10
M  V30 10 1 8 11
M  V30 11 2 9 12
M  V30 12 1 9 13
M  V30 13 2 10 14
M  V30 14 1 10 15
M  V30 15 1 11 16
M  V30 16 1 14 17
M  V30 17 2 15 18
M  V30 18 2 17 19
M  V30 19 1 6 8
M  V30 20 1 13 16
M  V30 21 1 18 19
M  V30 22 1 3 20
M  V30 23 1 4 21
M  V30 24 1 6 22
M  V30 25 1 11 23
M  V30 26 1 13 24
M  V30 27 1 13 25
M  V30 28 1 14 26
M  V30 29 1 15 27
M  V30 30 1 16 28
M  V30 31 1 16 29
M  V30 32 1 17 30
M  V30 33 1 18 31
M  V30 34 1 19 32
M  V30 END BOND
M  V30 END CTAB
M  END
>  <Column 1>
2251

>  <level_0>
2432

>  <index>
2432

>  <Unnamed: 0>
2432

>  <NO.>
2444

>  <Name>
lofendazam

>  <IUPAC_name>
7-chloro-5-phenyl-2-3-dihydro-1h-1-5-benzodiazepin-4-one

>  <SMILES>
O=C1CCNc2ccc(Cl)cc2N1c1ccccc1

>  <CID>
71709

>  <logBB>


>  <BBB+/BBB->
BBB+

>  <Inchi>
InChI=1S/C15H13ClN2O/c16-11-6-7-13-14(10-11)18(15(19)8-9-17-13)12-4-2-1-3-5-12/h1-7-10-17H-8-9H2

>  <threshold>
-1

>  <reference>
R1|R13|R19|R6|R24|R27|R27|R27|R30|R30|

>  <group>
B

>  <Class>
1

>  <ABC>
14.91

>  <ABCGG>
12.35

>  <nAcid>
0

>  <nBase>
0

>  <nAromAtom>
12

>  <nAromBond>
12

>  <nAtom>
32

>  <nHeavyAtom>
19

>  <nSpiro>
0

>  <nBridgehead>
0

>  <nHetero>
4

>  <nN>
2

>  <nO>
1

>  <nF>
0

>  <BalabanJ>
1.78

>  <BertzCT>
612.8

>  <nBonds>
34

>  <nBondsO>
21

>  <nBondsS>
21

>  <nBondsD>
1

>  <nBondsT>
0

>  <nBondsA>
12

>  <nBondsM>
13

>  <nBondsKS>
27

>  <nBondsKD>
7

>  <RNCG>
0.28

>  <RPCG>
0.17

>  <FCSP3>
0.13

>  <SZ>
23.67

>  <Sm>
22.71

>  <Sv>
21.84

>  <Sse>
32.19

>  <Sp>
23.29

>  <Si>
35.64

>  <MZ>
0.74

>  <Mm>
0.71

>  <Mv>
0.68

>  <Mse>
1.01

>  <Mp>
0.73

>  <Mi>
1.11

>  <NsCH3>
0

>  <NdCH2>
0

>  <NssCH2>
2

>  <NtCH>
0

>  <NdsCH>
0

>  <NaaCH>
8

>  <NsssCH>
0

>  <NddC>
0

>  <NtsC>
0

>  <NdssC>
1

>  <NaasC>
4

>  <NaaaC>
0

>  <NssssC>
0

>  <NsNH3>
0

>  <NsNH2>
0

>  <NssNH2>
0

>  <NdNH>
0

>  <NssNH>
1

>  <NaaNH>
0

>  <NtN>
0

>  <NsssNH>
0

>  <NdsN>
0

>  <NaaN>
0

>  <NsssN>
1

>  <NddsN>
0

>  <NaasN>
0

>  <NssssN>
0

>  <NsOH>
0

>  <NdO>
1

>  <NssO>
0

>  <NaaO>
0

>  <NsF>
0

>  <NsSiH3>
0

>  <NssSiH2>
0

>  <NsssSiH>
0

>  <NssssSi>
0

>  <NsPH2>
0

>  <NssPH>
0

>  <NsssP>
0

>  <NdsssP>
0

>  <NsssssP>
0

>  <NsSH>
0

>  <NdS>
0

>  <NssS>
0

>  <NaaS>
0

>  <NdssS>
0

>  <NddssS>
0

>  <NsCl>
1

>  <NsBr>
0

>  <NsI>
0

>  <fragCpx>
99.04

>  <fMF>
0.53

>  <nHBAcc>
2

>  <nHBDon>
1

>  <Kier1>
13.96

>  <Kier2>
6.19

>  <Lipinski>
1

>  <GhoseFilter>
1

>  <FilterItLogS>
-4.43

>  <VMcGowan>
197.6

>  <LabuteASA>
116.35

>  <PEOE_VSA1>
5.32

>  <PEOE_VSA2>
9.69

>  <PEOE_VSA3>
0

>  <PEOE_VSA4>
0

>  <PEOE_VSA5>
0

>  <PEOE_VSA6>
29.8

>  <PEOE_VSA7>
30.33

>  <PEOE_VSA8>
23.68

>  <PEOE_VSA9>
11.37

>  <PEOE_VSA10>
0

>  <PEOE_VSA11>
0

>  <PEOE_VSA12>
5.91

>  <PEOE_VSA13>
0

>  <SMR_VSA1>
4.79

>  <SMR_VSA2>
0

>  <SMR_VSA3>
0

>  <SMR_VSA4>
0

>  <SMR_VSA5>
6.42

>  <SMR_VSA6>
16.76

>  <SMR_VSA7>
53.55

>  <SMR_VSA8>
0

>  <SMR_VSA9>
0

>  <SlogP_VSA1>
10.22

>  <SlogP_VSA2>
12.45

>  <SlogP_VSA3>
4.79

>  <SlogP_VSA4>
0

>  <SlogP_VSA5>
6.42

>  <SlogP_VSA6>
48.53

>  <SlogP_VSA7>
5.02

>  <SlogP_VSA8>
0

>  <SlogP_VSA9>
0

>  <SlogP_VSA10>
17.06

>  <SlogP_VSA11>
0

>  <EState_VSA1>
0

>  <EState_VSA2>
5.91

>  <EState_VSA3>
17.99

>  <EState_VSA4>
17.06

>  <EState_VSA5>
0

>  <EState_VSA6>
4.9

>  <EState_VSA7>
48.53

>  <EState_VSA8>
5.32

>  <EState_VSA9>
11.6

>  <EState_VSA10>
4.79

>  <VSA_EState1>
0

>  <VSA_EState2>
14.06

>  <VSA_EState3>
3.88

>  <VSA_EState4>
2.6

>  <VSA_EState5>
0.07

>  <VSA_EState6>
15.18

>  <VSA_EState7>
0.46

>  <VSA_EState8>
0.64

>  <VSA_EState9>
0

>  <apol>
38.9

>  <bpol>
16.7

>  <nRing>
3

>  <nHRing>
1

>  <naRing>
2

>  <naHRing>
0

>  <nARing 2>
1

>  <nAHRing 2>
1

>  <nFRing>
1

>  <nFHRing>
1

>  <nFaRing>
0

>  <nFaHRing>
0

>  <nFARing 2>
1

>  <nFAHRing 2>
1

>  <nRot>
1

>  <SLogP>
3.82

>  <SMR>
78.15

>  <TopoPSA(NO)>
32.34

>  <TopoPSA>
32.34

>  <JGI1>
0.14

>  <JGI2>
0.07

>  <JGI3>
0.05

>  <JGI4>
0.04

>  <JGI5>
0.02

>  <Diameter>
8

>  <Radius>
4

>  <TMWC10>
113.15

>  <TSRW10>
60.45

>  <MW>
272.07

>  <AMW>
8.5

>  <WPath>
630

>  <WPol>
33

>  <Zagreb1>
100

>  <Zagreb2>
118

>  <mZagreb2>
4.19

>  <yes>


>  <nAR-cont>
0.816016

>  <nHA-cont>
0.998649058

>  <MWHBN>
0.181878317

>  <MWHBN-cont>
0.989109545

>  <TPSA-cont>
0.774246718

>  <pka_cont>
0.97

>  <yes.1>


>  <BBB_SCORE>
5.331822811

>  <MMFF94 Energy>
55.833

$$$$
Compound 1844
Actelion Java MolfileCreator 2.0

  0  0  0  0  0  0              0 V3000
M  V30 BEGIN CTAB
M  V30 COUNTS 48 53 0 0 0
M  V30 BEGIN ATOM
M  V30 1 O -1.8724 4.1555 -1.3837 0
M  V30 2 C -1.5034 2.9783 -1.3989 0
M  V30 3 C -2.1271 1.9156 -0.4771 0 CFG=2
M  V30 4 C -0.475 2.5206 -2.407 0
M  V30 5 O -2.5071 2.5633 0.7859 0
M  V30 6 C -1.1816 0.7593 -0.1206 0 CFG=2
M  V30 7 C 0.5764 1.6328 -1.7491 0
M  V30 8 C -1.404 2.3622 1.5798 0
M  V30 9 C -0.5728 1.3821 1.085 0
M  V30 10 C -0.0803 0.3978 -1.1227 0 CFG=2
M  V30 11 C -1.9448 -0.5146 0.3083 0
M  V30 12 C -1.066 3.0418 2.7242 0
M  V30 13 C 0.6616 1.0843 1.63 0
M  V30 14 O -0.663 -0.3359 -2.2205 0
M  V30 15 C 0.915 -0.5515 -0.364 0 CFG=1
M  V30 16 C -0.9951 -1.6264 0.7869 0
M  V30 17 O -1.8657 4.0139 3.2358 0
M  V30 18 C 0.1465 2.7385 3.3455 0
M  V30 19 C 1.0181 1.7739 2.7914 0
M  V30 20 C 1.5639 0.1271 0.8948 0
M  V30 21 N 0.1539 -1.8203 -0.1168 0
M  V30 22 C 0.9797 -2.9449 0.3467 0
M  V30 23 C 1.9677 -3.3608 -0.7043 0
M  V30 24 C 2.1807 -4.8211 -1.0214 0
M  V30 25 C 1.5 -3.9299 -2.0215 0
M  V30 26 H -3.0382 1.557 -0.97 0
M  V30 27 H -0.9952 2.0058 -3.2212 0
M  V30 28 H 0.0144 3.404 -2.832 0
M  V30 29 H 1.1336 2.2159 -1.0078 0
M  V30 30 H 1.2935 1.3212 -2.5185 0
M  V30 31 H -2.6668 -0.3022 1.1078 0
M  V30 32 H -2.5339 -0.889 -0.5392 0
M  V30 33 H -0.5939 -1.2805 -1.9563 0
M  V30 34 H 1.7208 -0.7916 -1.0681 0
M  V30 35 H -0.6572 -1.4194 1.8097 0
M  V30 36 H -1.5803 -2.5533 0.8394 0
M  V30 37 H -2.6003 4.1192 2.6006 0
M  V30 38 H 0.4346 3.2745 4.2464 0
M  V30 39 H 1.9767 1.5898 3.2711 0
M  V30 40 H 2.4305 0.7042 0.5461 0
M  V30 41 H 1.951 -0.6211 1.5929 0
M  V30 42 H 0.3264 -3.8008 0.5604 0
M  V30 43 H 1.5028 -2.7196 1.2821 0
M  V30 44 H 2.852 -2.7333 -0.7061 0
M  V30 45 H 1.5757 -5.5644 -0.5148 0
M  V30 46 H 3.1898 -5.1509 -1.2421 0
M  V30 47 H 0.4354 -4.0626 -2.1787 0
M  V30 48 H 2.0472 -3.6514 -2.9147 0
M  V30 END ATOM
M  V30 BEGIN BOND
M  V30 1 2 1 2
M  V30 2 1 2 3
M  V30 3 1 2 4
M  V30 4 1 3 5
M  V30 5 1 3 6
M  V30 6 1 4 7
M  V30 7 1 5 8
M  V30 8 1 6 9
M  V30 9 1 6 10
M  V30 10 1 6 11
M  V30 11 1 8 12
M  V30 12 1 9 13
M  V30 13 1 10 14
M  V30 14 1 10 15
M  V30 15 1 11 16
M  V30 16 1 12 17
M  V30 17 2 12 18
M  V30 18 2 13 19
M  V30 19 1 13 20
M  V30 20 1 15 21
M  V30 21 1 21 22
M  V30 22 1 22 23
M  V30 23 1 23 24
M  V30 24 1 23 25
M  V30 25 1 7 10
M  V30 26 2 8 9
M  V30 27 1 15 20
M  V30 28 1 16 21
M  V30 29 1 18 19
M  V30 30 1 24 25
M  V30 31 1 3 26
M  V30 32 1 4 27
M  V30 33 1 4 28
M  V30 34 1 7 29
M  V30 35 1 7 30
M  V30 36 1 11 31
M  V30 37 1 11 32
M  V30 38 1 14 33
M  V30 39 1 15 34
M  V30 40 1 16 35
M  V30 41 1 16 36
M  V30 42 1 17 37
M  V30 43 1 18 38
M  V30 44 1 19 39
M  V30 45 1 20 40
M  V30 46 1 20 41
M  V30 47 1 22 42
M  V30 48 1 22 43
M  V30 49 1 23 44
M  V30 50 1 24 45
M  V30 51 1 24 46
M  V30 52 1 25 47
M  V30 53 1 25 48
M  V30 END BOND
M  V30 BEGIN COLLECTION
M  V30 MDLV30/STEABS ATOMS=(4 3 6 10 15)
M  V30 END COLLECTION
M  V30 END CTAB
M  END
>  <Column 1>
2252

>  <level_0>
2433

>  <index>
2433

>  <Unnamed: 0>
2433

>  <NO.>
2445

>  <Name>
naltrexone

>  <IUPAC_name>
(4r-4as-7ar-12bs)-3-(cyclopropylmethyl)-4a-9-dihydroxy-2-4-5-6-7a-13-hexahydro-1h-4-12-methanobenzofuro[3-2-e]isoquinolin-7-one

>  <SMILES>
O=C1CC[C@@]2(O)[C@H]3Cc4ccc(O)c5c4[C@@]2(CCN3CC2CC2)[C@H]1O5

>  <CID>
5360515

>  <logBB>


>  <BBB+/BBB->
BBB+

>  <Inchi>
InChI=1S/C20H23NO4/c22-13-4-3-12-9-15-20(24)6-5-14(23)18-19(20-16(12)17(13)25-18)7-8-21(15)10-11-1-2-11/h3-4-11-15-18-22-24H-1-2-5-10H2/t15--18+-19+-20-/m1/s1

>  <threshold>
-1

>  <reference>
R1|R7|R6|R27|R29|R30|R34|R37|

>  <group>
B

>  <Class>
1

>  <ABC>
21.11

>  <ABCGG>
15.87

>  <nAcid>
0

>  <nBase>
1

>  <nAromAtom>
6

>  <nAromBond>
6

>  <nAtom>
48

>  <nHeavyAtom>
25

>  <nSpiro>
1

>  <nBridgehead>
2

>  <nHetero>
5

>  <nN>
1

>  <nO>
4

>  <nF>
0

>  <BalabanJ>
1.46

>  <BertzCT>
803.13

>  <nBonds>
53

>  <nBondsO>
30

>  <nBondsS>
46

>  <nBondsD>
1

>  <nBondsT>
0

>  <nBondsA>
6

>  <nBondsM>
7

>  <nBondsKS>
49

>  <nBondsKD>
4

>  <RNCG>
0.22

>  <RPCG>
0.13

>  <FCSP3>
0.65

>  <SZ>
30.33

>  <Sm>
28.42

>  <Sv>
29.85

>  <Sse>
48.2

>  <Sp>
31.76

>  <Si>
53.9

>  <MZ>
0.63

>  <Mm>
0.59

>  <Mv>
0.62

>  <Mse>
1

>  <Mp>
0.66

>  <Mi>
1.12

>  <NsCH3>
0

>  <NdCH2>
0

>  <NssCH2>
8

>  <NtCH>
0

>  <NdsCH>
0

>  <NaaCH>
2

>  <NsssCH>
3

>  <NddC>
0

>  <NtsC>
0

>  <NdssC>
1

>  <NaasC>
4

>  <NaaaC>
0

>  <NssssC>
2

>  <NsNH3>
0

>  <NsNH2>
0

>  <NssNH2>
0

>  <NdNH>
0

>  <NssNH>
0

>  <NaaNH>
0

>  <NtN>
0

>  <NsssNH>
0

>  <NdsN>
0

>  <NaaN>
0

>  <NsssN>
1

>  <NddsN>
0

>  <NaasN>
0

>  <NssssN>
0

>  <NsOH>
2

>  <NdO>
1

>  <NssO>
1

>  <NaaO>
0

>  <NsF>
0

>  <NsSiH3>
0

>  <NssSiH2>
0

>  <NsssSiH>
0

>  <NssssSi>
0

>  <NsPH2>
0

>  <NssPH>
0

>  <NsssP>
0

>  <NdsssP>
0

>  <NsssssP>
0

>  <NsSH>
0

>  <NdS>
0

>  <NssS>
0

>  <NaaS>
0

>  <NdssS>
0

>  <NddssS>
0

>  <NsCl>
0

>  <NsBr>
0

>  <NsI>
0

>  <fragCpx>
300.05

>  <fMF>
0.46

>  <nHBAcc>
5

>  <nHBDon>
2

>  <Kier1>
16

>  <Kier2>
5.08

>  <Lipinski>
1

>  <GhoseFilter>
1

>  <FilterItLogS>
-3.16

>  <VMcGowan>
243.76

>  <LabuteASA>
146.13

>  <PEOE_VSA1>
14.95

>  <PEOE_VSA2>
9.69

>  <PEOE_VSA3>
0

>  <PEOE_VSA4>
0

>  <PEOE_VSA5>
0

>  <PEOE_VSA6>
6.07

>  <PEOE_VSA7>
56.2

>  <PEOE_VSA8>
24.57

>  <PEOE_VSA9>
11.02

>  <PEOE_VSA10>
0

>  <PEOE_VSA11>
23.39

>  <PEOE_VSA12>
0

>  <PEOE_VSA13>
0

>  <SMR_VSA1>
19.74

>  <SMR_VSA2>
0

>  <SMR_VSA3>
4.9

>  <SMR_VSA4>
5.92

>  <SMR_VSA5>
61.69

>  <SMR_VSA6>
13.09

>  <SMR_VSA7>
23.26

>  <SMR_VSA8>
0

>  <SMR_VSA9>
11.5

>  <SlogP_VSA1>
4.74

>  <SlogP_VSA2>
51.73

>  <SlogP_VSA3>
16.63

>  <SlogP_VSA4>
5.92

>  <SlogP_VSA5>
43.23

>  <SlogP_VSA6>
12.13

>  <SlogP_VSA7>
0

>  <SlogP_VSA8>
0

>  <SlogP_VSA9>
0

>  <SlogP_VSA10>
0

>  <SlogP_VSA11>
11.5

>  <EState_VSA1>
17.12

>  <EState_VSA2>
17.57

>  <EState_VSA3>
18.59

>  <EState_VSA4>
42.98

>  <EState_VSA5>
12.84

>  <EState_VSA6>
6.07

>  <EState_VSA7>
6.07

>  <EState_VSA8>
4.9

>  <EState_VSA9>
4.74

>  <EState_VSA10>
15.01

>  <VSA_EState1>
6.04

>  <VSA_EState2>
15.19

>  <VSA_EState3>
22.3

>  <VSA_EState4>
0.45

>  <VSA_EState5>
1.39

>  <VSA_EState6>
3.69

>  <VSA_EState7>
4.33

>  <VSA_EState8>
1.95

>  <VSA_EState9>
0

>  <apol>
53.04

>  <bpol>
27.39

>  <nRing>
6

>  <nHRing>
2

>  <naRing>
1

>  <naHRing>
0

>  <nARing 2>
5

>  <nAHRing 2>
2

>  <nFRing>
1

>  <nFHRing>
1

>  <nFaRing>
0

>  <nFaHRing>
0

>  <nFARing 2>
1

>  <nFAHRing 2>
1

>  <nRot>
2

>  <SLogP>
1.53

>  <SMR>
89.8

>  <TopoPSA(NO)>
70

>  <TopoPSA>
70

>  <JGI1>
0.22

>  <JGI2>
0.12

>  <JGI3>
0.06

>  <JGI4>
0.06

>  <JGI5>
0.03

>  <Diameter>
10

>  <Radius>
5

>  <TMWC10>
136.4

>  <TSRW10>
81.6

>  <MW>
341.16

>  <AMW>
7.11

>  <WPath>
1189

>  <WPol>
59

>  <Zagreb1>
160

>  <Zagreb2>
211

>  <mZagreb2>
5.03

>  <yes>


>  <nAR-cont>
0

>  <nHA-cont>
0.921834225

>  <MWHBN>
0.378982352

>  <MWHBN-cont>
0.558796801

>  <TPSA-cont>
0.511356533

>  <pka_cont>
0.97

>  <yes.1>


>  <BBB_SCORE>
3.267742491

>  <MMFF94 Energy>
105.16

$$$$
Compound 1845
Actelion Java MolfileCreator 2.0

  0  0  0  0  0  0              0 V3000
M  V30 BEGIN CTAB
M  V30 COUNTS 30 31 0 0 0
M  V30 BEGIN ATOM
M  V30 1 O -4.279 -2.0585 -1.5039 0
M  V30 2 C -3.409 -1.3177 -1.0831 0
M  V30 3 N -2.9106 -1.3208 0.1994 0
M  V30 4 C -2.6732 -0.2653 -1.8686 0
M  V30 5 C -1.8165 -0.3992 0.3773 0 CFG=2
M  V30 6 C -2.0105 0.5759 -0.7787 0
M  V30 7 C -0.4368 -1.0945 0.3112 0
M  V30 8 O -0.3419 -2.2574 -0.0893 0
M  V30 9 N 0.6825 -0.3604 0.6948 0
M  V30 10 C 1.997 -1.0021 0.6446 0
M  V30 11 C 0.6698 0.9837 1.2749 0
M  V30 12 C 3.0134 -0.1212 -0.0768 0
M  V30 13 C 1.6658 1.8993 0.5673 0
M  V30 14 C 3.0606 1.2794 0.5289 0
M  V30 15 H -3.1813 -2.0446 0.8531 0
M  V30 16 H -3.362 0.3257 -2.4765 0
M  V30 17 H -1.9302 -0.7541 -2.5058 0
M  V30 18 H -1.9434 0.0707 1.3564 0
M  V30 19 H -2.6986 1.3745 -0.4733 0
M  V30 20 H -1.0898 1.0455 -1.1363 0
M  V30 21 H 2.3117 -1.1776 1.6803 0
M  V30 22 H 1.9488 -1.9777 0.1515 0
M  V30 23 H -0.3215 1.4368 1.2369 0
M  V30 24 H 0.9353 0.8795 2.3337 0
M  V30 25 H 2.741 -0.0452 -1.1368 0
M  V30 26 H 4.0062 -0.5816 -0.0288 0
M  V30 27 H 1.3258 2.0816 -0.4596 0
M  V30 28 H 1.7036 2.8702 1.0732 0
M  V30 29 H 3.4668 1.2262 1.5463 0
M  V30 30 H 3.7348 1.9154 -0.055 0
M  V30 END ATOM
M  V30 BEGIN BOND
M  V30 1 2 1 2
M  V30 2 1 2 3
M  V30 3 1 2 4
M  V30 4 1 3 5
M  V30 5 1 4 6
M  V30 6 1 5 7
M  V30 7 2 7 8
M  V30 8 1 7 9
M  V30 9 1 9 10
M  V30 10 1 9 11
M  V30 11 1 10 12
M  V30 12 1 11 13
M  V30 13 1 12 14
M  V30 14 1 5 6
M  V30 15 1 13 14
M  V30 16 1 3 15
M  V30 17 1 4 16
M  V30 18 1 4 17
M  V30 19 1 5 18
M  V30 20 1 6 19
M  V30 21 1 6 20
M  V30 22 1 10 21
M  V30 23 1 10 22
M  V30 24 1 11 23
M  V30 25 1 11 24
M  V30 26 1 12 25
M  V30 27 1 12 26
M  V30 28 1 13 27
M  V30 29 1 13 28
M  V30 30 1 14 29
M  V30 31 1 14 30
M  V30 END BOND
M  V30 BEGIN COLLECTION
M  V30 MDLV30/STEABS ATOMS=(1 5)
M  V30 END COLLECTION
M  V30 END CTAB
M  END
>  <Column 1>
2253

>  <level_0>
2434

>  <index>
2434

>  <Unnamed: 0>
2434

>  <NO.>
2446

>  <Name>
fasoracetam

>  <IUPAC_name>
(5r)-5-(piperidine-1-carbonyl)pyrrolidin-2-one

>  <SMILES>
O=C1CC[C@H](C(=O)N2CCCCC2)N1

>  <CID>
198695

>  <logBB>


>  <BBB+/BBB->
BBB+

>  <Inchi>
InChI=1S/C10H16N2O2/c13-9-5-4-8(11-9)10(14)12-6-2-1-3-7-12/h8H-1-7H2-(H-11-13)/t8-/m1/s1

>  <threshold>
-1

>  <reference>
R1|R6|R27|R27|R30|R30|

>  <group>
B

>  <Class>
1

>  <ABC>
10.74

>  <ABCGG>
9.77

>  <nAcid>
0

>  <nBase>
0

>  <nAromAtom>
0

>  <nAromBond>
0

>  <nAtom>
30

>  <nHeavyAtom>
14

>  <nSpiro>
0

>  <nBridgehead>
0

>  <nHetero>
4

>  <nN>
2

>  <nO>
2

>  <nF>
0

>  <BalabanJ>
1.84

>  <BertzCT>
246.51

>  <nBonds>
31

>  <nBondsO>
15

>  <nBondsS>
29

>  <nBondsD>
2

>  <nBondsT>
0

>  <nBondsA>
0

>  <nBondsM>
2

>  <nBondsKS>
29

>  <nBondsKD>
2

>  <RNCG>
0.25

>  <RPCG>
0.18

>  <FCSP3>
0.8

>  <SZ>
17.67

>  <Sm>
16.34

>  <Sv>
17.28

>  <Sse>
30.09

>  <Sp>
18.67

>  <Si>
34.32

>  <MZ>
0.59

>  <Mm>
0.54

>  <Mv>
0.58

>  <Mse>
1

>  <Mp>
0.62

>  <Mi>
1.14

>  <NsCH3>
0

>  <NdCH2>
0

>  <NssCH2>
7

>  <NtCH>
0

>  <NdsCH>
0

>  <NaaCH>
0

>  <NsssCH>
1

>  <NddC>
0

>  <NtsC>
0

>  <NdssC>
2

>  <NaasC>
0

>  <NaaaC>
0

>  <NssssC>
0

>  <NsNH3>
0

>  <NsNH2>
0

>  <NssNH2>
0

>  <NdNH>
0

>  <NssNH>
1

>  <NaaNH>
0

>  <NtN>
0

>  <NsssNH>
0

>  <NdsN>
0

>  <NaaN>
0

>  <NsssN>
1

>  <NddsN>
0

>  <NaasN>
0

>  <NssssN>
0

>  <NsOH>
0

>  <NdO>
2

>  <NssO>
0

>  <NaaO>
0

>  <NsF>
0

>  <NsSiH3>
0

>  <NssSiH2>
0

>  <NsssSiH>
0

>  <NssssSi>
0

>  <NsPH2>
0

>  <NssPH>
0

>  <NsssP>
0

>  <NdsssP>
0

>  <NsssssP>
0

>  <NsSH>
0

>  <NdS>
0

>  <NssS>
0

>  <NaaS>
0

>  <NdssS>
0

>  <NddssS>
0

>  <NsCl>
0

>  <NsBr>
0

>  <NsI>
0

>  <fragCpx>
43.04

>  <fMF>
0.4

>  <nHBAcc>
2

>  <nHBDon>
1

>  <Kier1>
10.52

>  <Kier2>
4.68

>  <Lipinski>
1

>  <GhoseFilter>
1

>  <FilterItLogS>
-1.38

>  <VMcGowan>
153.14

>  <LabuteASA>
83.64

>  <PEOE_VSA1>
10.22

>  <PEOE_VSA2>
9.59

>  <PEOE_VSA3>
0

>  <PEOE_VSA4>
0

>  <PEOE_VSA5>
0

>  <PEOE_VSA6>
0

>  <PEOE_VSA7>
25.68

>  <PEOE_VSA8>
19.51

>  <PEOE_VSA9>
0

>  <PEOE_VSA10>
6.04

>  <PEOE_VSA11>
0

>  <PEOE_VSA12>
11.81

>  <PEOE_VSA13>
0

>  <SMR_VSA1>
9.59

>  <SMR_VSA2>
0

>  <SMR_VSA3>
10.22

>  <SMR_VSA4>
0

>  <SMR_VSA5>
38.15

>  <SMR_VSA6>
13.09

>  <SMR_VSA7>
0

>  <SMR_VSA8>
0

>  <SMR_VSA9>
0

>  <SlogP_VSA1>
5.32

>  <SlogP_VSA2>
35.85

>  <SlogP_VSA3>
9.59

>  <SlogP_VSA4>
0

>  <SlogP_VSA5>
32.1

>  <SlogP_VSA6>
0

>  <SlogP_VSA7>
0

>  <SlogP_VSA8>
0

>  <SlogP_VSA9>
0

>  <SlogP_VSA10>
0

>  <SlogP_VSA11>
0

>  <EState_VSA1>
0

>  <EState_VSA2>
17.86

>  <EState_VSA3>
12.84

>  <EState_VSA4>
25.93

>  <EState_VSA5>
6.42

>  <EState_VSA6>
0

>  <EState_VSA7>
4.9

>  <EState_VSA8>
5.32

>  <EState_VSA9>
0

>  <EState_VSA10>
9.59

>  <VSA_EState1>
0

>  <VSA_EState2>
24.7

>  <VSA_EState3>
2.72

>  <VSA_EState4>
0

>  <VSA_EState5>
0.14

>  <VSA_EState6>
-0.24

>  <VSA_EState7>
4.61

>  <VSA_EState8>
1.73

>  <VSA_EState9>
0

>  <apol>
31.17

>  <bpol>
20.07

>  <nRing>
2

>  <nHRing>
2

>  <naRing>
0

>  <naHRing>
0

>  <nARing 2>
2

>  <nAHRing 2>
2

>  <nFRing>
0

>  <nFHRing>
0

>  <nFaRing>
0

>  <nFaHRing>
0

>  <nFARing 2>
0

>  <nFAHRing 2>
0

>  <nRot>
1

>  <SLogP>
0.28

>  <SMR>
51.6

>  <TopoPSA(NO)>
49.41

>  <TopoPSA>
49.41

>  <JGI1>
0.17

>  <JGI2>
0.08

>  <JGI3>
0.06

>  <JGI4>
0.03

>  <JGI5>
0.02

>  <Diameter>
8

>  <Radius>
4

>  <TMWC10>
97.59

>  <TSRW10>
58.9

>  <MW>
196.12

>  <AMW>
6.54

>  <WPath>
306

>  <WPol>
17

>  <Zagreb1>
70

>  <Zagreb2>
80

>  <mZagreb2>
3.14

>  <yes>


>  <nAR-cont>
1

>  <nHA-cont>
0.887625254

>  <MWHBN>
0.214220147

>  <MWHBN-cont>
0.99796082

>  <TPSA-cont>
0.655087518

>  <pka_cont>
0.97

>  <yes.1>


>  <BBB_SCORE>
5.17974152

>  <MMFF94 Energy>
-1.1686

$$$$
Compound 1846
Actelion Java MolfileCreator 2.0

  0  0  0  0  0  0              0 V3000
M  V30 BEGIN CTAB
M  V30 COUNTS 48 52 0 0 0
M  V30 BEGIN ATOM
M  V30 1 O 0.9678 -3.4712 3.0671 0
M  V30 2 C 0.221 -2.651 2.5351 0
M  V30 3 C -0.3144 -2.8343 1.1344 0
M  V30 4 C -0.3265 -1.4667 3.2959 0
M  V30 5 C -0.0836 -1.5675 0.2732 0 CFG=2
M  V30 6 C -0.2182 -0.1991 2.4605 0
M  V30 7 C 1.3899 -1.2185 -0.0415 0
M  V30 8 C -0.7747 -0.3925 1.0303 0 CFG=1
M  V30 9 C -0.8246 -1.7531 -1.0759 0
M  V30 10 C 2.3791 -2.188 -0.2839 0
M  V30 11 C 1.777 0.1411 -0.163 0
M  V30 12 C -0.6781 0.8787 0.1669 0 CFG=1
M  V30 13 C -0.925 -0.4575 -1.8875 0
M  V30 14 O 2.0512 -3.5122 -0.309 0
M  V30 15 C 3.7067 -1.8418 -0.5532 0
M  V30 16 C 3.1165 0.4802 -0.4316 0
M  V30 17 C 0.8 1.2874 0.0 0
M  V30 18 N -1.4504 0.6543 -1.0813 0
M  V30 19 C 4.0775 -0.5056 -0.6163 0
M  V30 20 C -1.6231 1.8469 -1.9202 0
M  V30 21 C -2.4214 2.9032 -1.2145 0
M  V30 22 C -1.7534 4.0911 -0.5646 0
M  V30 23 C -2.5457 4.2769 -1.827 0
M  V30 24 H -1.3912 -3.0268 1.2432 0
M  V30 25 H 0.0885 -3.7509 0.7024 0
M  V30 26 H -1.3714 -1.6792 3.547 0
M  V30 27 H 0.2298 -1.3479 4.2314 0
M  V30 28 H -0.7658 0.6085 2.9612 0
M  V30 29 H 0.833 0.1069 2.4425 0
M  V30 30 H -1.8436 -0.6324 1.15 0
M  V30 31 H -1.8452 -2.1141 -0.886 0
M  V30 32 H -0.3368 -2.5234 -1.6867 0
M  V30 33 H -1.1809 1.678 0.7248 0
M  V30 34 H -1.6038 -0.6521 -2.7279 0
M  V30 35 H 0.0448 -0.2044 -2.3324 0
M  V30 36 H 2.8595 -4.0393 -0.1957 0
M  V30 37 H 4.4573 -2.6049 -0.7363 0
M  V30 38 H 3.4114 1.5255 -0.504 0
M  V30 39 H 1.1019 1.8476 0.8956 0
M  V30 40 H 0.9192 1.9832 -0.8373 0
M  V30 41 H 5.1074 -0.2323 -0.8283 0
M  V30 42 H -0.6661 2.2399 -2.2819 0
M  V30 43 H -2.2001 1.5732 -2.8131 0
M  V30 44 H -3.316 2.4967 -0.7538 0
M  V30 45 H -0.6755 4.183 -0.6264 0
M  V30 46 H -2.1775 4.4616 0.3618 0
M  V30 47 H -2.0024 4.4913 -2.7403 0
M  V30 48 H -3.5054 4.7767 -1.756 0
M  V30 END ATOM
M  V30 BEGIN BOND
M  V30 1 2 1 2
M  V30 2 1 2 3
M  V30 3 1 2 4
M  V30 4 1 3 5
M  V30 5 1 4 6
M  V30 6 1 5 7
M  V30 7 1 5 8
M  V30 8 1 5 9
M  V30 9 2 7 10
M  V30 10 1 7 11
M  V30 11 1 8 12
M  V30 12 1 9 13
M  V30 13 1 10 14
M  V30 14 1 10 15
M  V30 15 2 11 16
M  V30 16 1 11 17
M  V30 17 1 12 18
M  V30 18 2 15 19
M  V30 19 1 18 20
M  V30 20 1 20 21
M  V30 21 1 21 22
M  V30 22 1 21 23
M  V30 23 1 6 8
M  V30 24 1 12 17
M  V30 25 1 13 18
M  V30 26 1 16 19
M  V30 27 1 22 23
M  V30 28 1 3 24
M  V30 29 1 3 25
M  V30 30 1 4 26
M  V30 31 1 4 27
M  V30 32 1 6 28
M  V30 33 1 6 29
M  V30 34 1 8 30
M  V30 35 1 9 31
M  V30 36 1 9 32
M  V30 37 1 12 33
M  V30 38 1 13 34
M  V30 39 1 13 35
M  V30 40 1 14 36
M  V30 41 1 15 37
M  V30 42 1 16 38
M  V30 43 1 17 39
M  V30 44 1 17 40
M  V30 45 1 19 41
M  V30 46 1 20 42
M  V30 47 1 20 43
M  V30 48 1 21 44
M  V30 49 1 22 45
M  V30 50 1 22 46
M  V30 51 1 23 47
M  V30 52 1 23 48
M  V30 END BOND
M  V30 BEGIN COLLECTION
M  V30 MDLV30/STEABS ATOMS=(3 5 8 12)
M  V30 END COLLECTION
M  V30 END CTAB
M  END
>  <Column 1>
2254

>  <level_0>
2435

>  <index>
2435

>  <Unnamed: 0>
2435

>  <NO.>
2447

>  <Name>
ketorfanol

>  <IUPAC_name>
(1s-9r-10r)-17-(cyclopropylmethyl)-3-hydroxy-17-azatetracyclo[7.5.3.01-10.02-7]heptadeca-2(7)-3-5-trien-13-one

>  <SMILES>
O=C1CC[C@H]2[C@H]3Cc4cccc(O)c4[C@@]2(CCN3CC2CC2)C1

>  <CID>
5490677

>  <logBB>


>  <BBB+/BBB->
BBB+

>  <Inchi>
InChI=1S/C20H25NO2/c22-15-6-7-16-17-10-14-2-1-3-18(23)19(14)20(16-11-15)8-9-21(17)12-13-4-5-13/h1-3-13-16-17-23H-4-12H2/t16--17+-20-/m0/s1

>  <threshold>
-1

>  <reference>
R1|R6|R27|R27|R30|R30|

>  <group>
B

>  <Class>
1

>  <ABC>
19.03

>  <ABCGG>
14.29

>  <nAcid>
0

>  <nBase>
1

>  <nAromAtom>
6

>  <nAromBond>
6

>  <nAtom>
48

>  <nHeavyAtom>
23

>  <nSpiro>
0

>  <nBridgehead>
2

>  <nHetero>
3

>  <nN>
1

>  <nO>
2

>  <nF>
0

>  <BalabanJ>
1.49

>  <BertzCT>
665.61

>  <nBonds>
52

>  <nBondsO>
27

>  <nBondsS>
45

>  <nBondsD>
1

>  <nBondsT>
0

>  <nBondsA>
6

>  <nBondsM>
7

>  <nBondsKS>
48

>  <nBondsKD>
4

>  <RNCG>
0.34

>  <RPCG>
0.19

>  <FCSP3>
0.65

>  <SZ>
28

>  <Sm>
25.93

>  <Sv>
28.96

>  <Sse>
47.42

>  <Sp>
31.6

>  <Si>
53.9

>  <MZ>
0.58

>  <Mm>
0.54

>  <Mv>
0.6

>  <Mse>
0.99

>  <Mp>
0.66

>  <Mi>
1.12

>  <NsCH3>
0

>  <NdCH2>
0

>  <NssCH2>
9

>  <NtCH>
0

>  <NdsCH>
0

>  <NaaCH>
3

>  <NsssCH>
3

>  <NddC>
0

>  <NtsC>
0

>  <NdssC>
1

>  <NaasC>
3

>  <NaaaC>
0

>  <NssssC>
1

>  <NsNH3>
0

>  <NsNH2>
0

>  <NssNH2>
0

>  <NdNH>
0

>  <NssNH>
0

>  <NaaNH>
0

>  <NtN>
0

>  <NsssNH>
0

>  <NdsN>
0

>  <NaaN>
0

>  <NsssN>
1

>  <NddsN>
0

>  <NaasN>
0

>  <NssssN>
0

>  <NsOH>
1

>  <NdO>
1

>  <NssO>
0

>  <NaaO>
0

>  <NsF>
0

>  <NsSiH3>
0

>  <NssSiH2>
0

>  <NsssSiH>
0

>  <NssssSi>
0

>  <NsPH2>
0

>  <NssPH>
0

>  <NsssP>
0

>  <NdsssP>
0

>  <NsssssP>
0

>  <NsSH>
0

>  <NdS>
0

>  <NssS>
0

>  <NaaS>
0

>  <NdssS>
0

>  <NddssS>
0

>  <NsCl>
0

>  <NsBr>
0

>  <NsI>
0

>  <fragCpx>
223.03

>  <fMF>
0.44

>  <nHBAcc>
3

>  <nHBDon>
1

>  <Kier1>
15.27

>  <Kier2>
5.5

>  <Lipinski>
1

>  <GhoseFilter>
1

>  <FilterItLogS>
-3.88

>  <VMcGowan>
242.88

>  <LabuteASA>
137.23

>  <PEOE_VSA1>
5.11

>  <PEOE_VSA2>
9.69

>  <PEOE_VSA3>
0

>  <PEOE_VSA4>
0

>  <PEOE_VSA5>
0

>  <PEOE_VSA6>
12.13

>  <PEOE_VSA7>
62.11

>  <PEOE_VSA8>
36.41

>  <PEOE_VSA9>
0

>  <PEOE_VSA10>
11.53

>  <PEOE_VSA11>
0

>  <PEOE_VSA12>
0

>  <PEOE_VSA13>
0

>  <SMR_VSA1>
9.9

>  <SMR_VSA2>
0

>  <SMR_VSA3>
4.9

>  <SMR_VSA4>
11.84

>  <SMR_VSA5>
56.4

>  <SMR_VSA6>
13.09

>  <SMR_VSA7>
29.33

>  <SMR_VSA8>
0

>  <SMR_VSA9>
5.75

>  <SlogP_VSA1>
0

>  <SlogP_VSA2>
34.92

>  <SlogP_VSA3>
16.63

>  <SlogP_VSA4>
11.84

>  <SlogP_VSA5>
49.65

>  <SlogP_VSA6>
18.2

>  <SlogP_VSA7>
0

>  <SlogP_VSA8>
0

>  <SlogP_VSA9>
0

>  <SlogP_VSA10>
0

>  <SlogP_VSA11>
5.75

>  <EState_VSA1>
0

>  <EState_VSA2>
5.41

>  <EState_VSA3>
29.91

>  <EState_VSA4>
43.71

>  <EState_VSA5>
24.95

>  <EState_VSA6>
0

>  <EState_VSA7>
12.13

>  <EState_VSA8>
10.97

>  <EState_VSA9>
0

>  <EState_VSA10>
9.9

>  <VSA_EState1>
0

>  <VSA_EState2>
15.03

>  <VSA_EState3>
10.58

>  <VSA_EState4>
2.33

>  <VSA_EState5>
2.29

>  <VSA_EState6>
6.55

>  <VSA_EState7>
7.29

>  <VSA_EState8>
2.35

>  <VSA_EState9>
0

>  <apol>
52.77

>  <bpol>
27.66

>  <nRing>
5

>  <nHRing>
1

>  <naRing>
1

>  <naHRing>
0

>  <nARing 2>
4

>  <nAHRing 2>
1

>  <nFRing>
1

>  <nFHRing>
1

>  <nFaRing>
0

>  <nFaHRing>
0

>  <nFARing 2>
1

>  <nFAHRing 2>
1

>  <nRot>
2

>  <SLogP>
3.04

>  <SMR>
88.54

>  <TopoPSA(NO)>
40.54

>  <TopoPSA>
40.54

>  <JGI1>
0.2

>  <JGI2>
0.09

>  <JGI3>
0.05

>  <JGI4>
0.04

>  <JGI5>
0.03

>  <Diameter>
9

>  <Radius>
5

>  <TMWC10>
128.53

>  <TSRW10>
77

>  <MW>
311.19

>  <AMW>
6.48

>  <WPath>
1011

>  <WPol>
46

>  <Zagreb1>
138

>  <Zagreb2>
174

>  <mZagreb2>
4.78

>  <yes>


>  <nAR-cont>
0.199399

>  <nHA-cont>
0.967789328

>  <MWHBN>
0.226749937

>  <MWHBN-cont>
0.98983969

>  <TPSA-cont>
0.717005626

>  <pka_cont>
0.97

>  <yes.1>


>  <BBB_SCORE>
4.570959115

>  <MMFF94 Energy>
60.634

$$$$
Compound 1847
Actelion Java MolfileCreator 2.0

  0  0  0  0  0  0              0 V3000
M  V30 BEGIN CTAB
M  V30 COUNTS 57 60 0 0 0
M  V30 BEGIN ATOM
M  V30 1 Cl -5.0167 -4.4493 -2.5868 0
M  V30 2 C -5.2112 -3.131 -3.7106 0
M  V30 3 C -5.9129 -3.331 -4.9119 0
M  V30 4 C -4.6196 -1.8743 -3.426 0
M  V30 5 Cl -6.6583 -4.8399 -5.3188 0
M  V30 6 C -6.0319 -2.2941 -5.8395 0
M  V30 7 N -3.9362 -1.6324 -2.2337 0
M  V30 8 C -4.7552 -0.8542 -4.3848 0
M  V30 9 C -5.452 -1.0577 -5.5773 0
M  V30 10 C -2.677 -0.877 -2.2502 0
M  V30 11 C -4.7623 -1.4086 -1.036 0
M  V30 12 C -1.8888 -1.1091 -0.9383 0
M  V30 13 C -3.9236 -1.6266 0.2434 0
M  V30 14 N -2.6839 -0.8076 0.2783 0
M  V30 15 C -1.934 -1.0952 1.5124 0
M  V30 16 C -0.7778 -0.1142 1.7469 0
M  V30 17 C -0.1262 -0.3487 3.1149 0
M  V30 18 C 1.0215 0.6245 3.3801 0
M  V30 19 O 2.0607 0.3775 2.4337 0
M  V30 20 C 3.1689 1.1764 2.4984 0
M  V30 21 C 4.1336 0.9108 1.523 0
M  V30 22 C 3.3975 2.1888 3.4325 0
M  V30 23 C 5.3073 1.6607 1.477 0
M  V30 24 C 4.582 2.9328 3.3915 0
M  V30 25 N 6.2758 1.3797 0.5085 0
M  V30 26 C 5.5392 2.6783 2.4062 0
M  V30 27 C 7.3453 2.1918 0.2386 0
M  V30 28 C 6.8493 3.4138 2.3739 0
M  V30 29 O 8.1867 1.8755 -0.599 0
M  V30 30 C 7.3726 3.5253 0.9502 0
M  V30 31 H -6.5742 -2.446 -6.7695 0
M  V30 32 H -4.3314 0.1297 -4.1986 0
M  V30 33 H -5.5448 -0.2477 -6.2967 0
M  V30 34 H -2.0511 -1.1972 -3.0919 0
M  V30 35 H -2.8796 0.1951 -2.3647 0
M  V30 36 H -5.1529 -0.3827 -1.0511 0
M  V30 37 H -5.6259 -2.0824 -1.0047 0
M  V30 38 H -1.002 -0.4681 -0.9783 0
M  V30 39 H -1.5426 -2.151 -0.9127 0
M  V30 40 H -3.6716 -2.6927 0.3241 0
M  V30 41 H -4.5524 -1.3719 1.1051 0
M  V30 42 H -1.5577 -2.1264 1.5129 0
M  V30 43 H -2.618 -1.0065 2.3667 0
M  V30 44 H -1.1509 0.9162 1.6946 0
M  V30 45 H -0.0198 -0.2269 0.9647 0
M  V30 46 H 0.2534 -1.3768 3.1557 0
M  V30 47 H -0.8775 -0.2384 3.9055 0
M  V30 48 H 0.6565 1.6547 3.2894 0
M  V30 49 H 1.3974 0.4526 4.3957 0
M  V30 50 H 3.9531 0.1185 0.8022 0
M  V30 51 H 2.6792 2.4204 4.2121 0
M  V30 52 H 4.7517 3.7065 4.1369 0
M  V30 53 H 6.2175 0.528 -0.0345 0
M  V30 54 H 7.5667 2.8672 2.9982 0
M  V30 55 H 6.7365 4.4193 2.7952 0
M  V30 56 H 8.3995 3.9056 0.9595 0
M  V30 57 H 6.7575 4.2214 0.367 0
M  V30 END ATOM
M  V30 BEGIN BOND
M  V30 1 1 1 2
M  V30 2 2 2 3
M  V30 3 1 2 4
M  V30 4 1 3 5
M  V30 5 1 3 6
M  V30 6 1 4 7
M  V30 7 2 4 8
M  V30 8 2 6 9
M  V30 9 1 7 10
M  V30 10 1 7 11
M  V30 11 1 10 12
M  V30 12 1 11 13
M  V30 13 1 12 14
M  V30 14 1 14 15
M  V30 15 1 15 16
M  V30 16 1 16 17
M  V30 17 1 17 18
M  V30 18 1 18 19
M  V30 19 1 19 20
M  V30 20 2 20 21
M  V30 21 1 20 22
M  V30 22 1 21 23
M  V30 23 2 22 24
M  V30 24 1 23 25
M  V30 25 2 23 26
M  V30 26 1 25 27
M  V30 27 1 26 28
M  V30 28 2 27 29
M  V30 29 1 27 30
M  V30 30 1 8 9
M  V30 31 1 13 14
M  V30 32 1 24 26
M  V30 33 1 28 30
M  V30 34 1 6 31
M  V30 35 1 8 32
M  V30 36 1 9 33
M  V30 37 1 10 34
M  V30 38 1 10 35
M  V30 39 1 11 36
M  V30 40 1 11 37
M  V30 41 1 12 38
M  V30 42 1 12 39
M  V30 43 1 13 40
M  V30 44 1 13 41
M  V30 45 1 15 42
M  V30 46 1 15 43
M  V30 47 1 16 44
M  V30 48 1 16 45
M  V30 49 1 17 46
M  V30 50 1 17 47
M  V30 51 1 18 48
M  V30 52 1 18 49
M  V30 53 1 21 50
M  V30 54 1 22 51
M  V30 55 1 24 52
M  V30 56 1 25 53
M  V30 57 1 28 54
M  V30 58 1 28 55
M  V30 59 1 30 56
M  V30 60 1 30 57
M  V30 END BOND
M  V30 END CTAB
M  END
>  <Column 1>
2255

>  <level_0>
2436

>  <index>
2436

>  <Unnamed: 0>
2436

>  <NO.>
2448

>  <Name>
aripiprazole;abilify

>  <IUPAC_name>
7-[4-[4-(2-3-dichlorophenyl)piperazin-1-yl]butoxy]-3-4-dihydro-1h-quinolin-2-one

>  <SMILES>
O=C1CCc2ccc(OCCCCN3CCN(c4cccc(Cl)c4Cl)CC3)cc2N1

>  <CID>
60795

>  <logBB>


>  <BBB+/BBB->
BBB+

>  <Inchi>
InChI=1S/C23H27Cl2N3O2/c24-19-4-3-5-21(23(19)25)28-13-11-27(12-14-28)10-1-2-15-30-18-8-6-17-7-9-22(29)26-20(17)16-18/h3-6-8-16H-1-2-7-9-15H2-(H-26-29)

>  <threshold>
-1

>  <reference>
R1|R13|R19|R6|R14|R15|R23|R24|R26|R27|R27|R27|R30|R30|R37|

>  <group>
B

>  <Class>
1

>  <ABC>
23.5

>  <ABCGG>
15.94

>  <nAcid>
0

>  <nBase>
1

>  <nAromAtom>
12

>  <nAromBond>
12

>  <nAtom>
57

>  <nHeavyAtom>
30

>  <nSpiro>
0

>  <nBridgehead>
0

>  <nHetero>
7

>  <nN>
3

>  <nO>
2

>  <nF>
0

>  <BalabanJ>
1.06

>  <BertzCT>
898.01

>  <nBonds>
60

>  <nBondsO>
33

>  <nBondsS>
47

>  <nBondsD>
1

>  <nBondsT>
0

>  <nBondsA>
12

>  <nBondsM>
13

>  <nBondsKS>
53

>  <nBondsKD>
7

>  <RNCG>
0.22

>  <RPCG>
0.1

>  <FCSP3>
0.43

>  <SZ>
39.33

>  <Sm>
37.33

>  <Sv>
36.2

>  <Sse>
57.17

>  <Sp>
39.33

>  <Si>
64.2

>  <MZ>
0.69

>  <Mm>
0.65

>  <Mv>
0.64

>  <Mse>
1

>  <Mp>
0.69

>  <Mi>
1.13

>  <NsCH3>
0

>  <NdCH2>
0

>  <NssCH2>
10

>  <NtCH>
0

>  <NdsCH>
0

>  <NaaCH>
6

>  <NsssCH>
0

>  <NddC>
0

>  <NtsC>
0

>  <NdssC>
1

>  <NaasC>
6

>  <NaaaC>
0

>  <NssssC>
0

>  <NsNH3>
0

>  <NsNH2>
0

>  <NssNH2>
0

>  <NdNH>
0

>  <NssNH>
1

>  <NaaNH>
0

>  <NtN>
0

>  <NsssNH>
0

>  <NdsN>
0

>  <NaaN>
0

>  <NsssN>
2

>  <NddsN>
0

>  <NaasN>
0

>  <NssssN>
0

>  <NsOH>
0

>  <NdO>
1

>  <NssO>
1

>  <NaaO>
0

>  <NsF>
0

>  <NsSiH3>
0

>  <NssSiH2>
0

>  <NsssSiH>
0

>  <NssssSi>
0

>  <NsPH2>
0

>  <NssPH>
0

>  <NsssP>
0

>  <NdsssP>
0

>  <NsssssP>
0

>  <NsSH>
0

>  <NdS>
0

>  <NssS>
0

>  <NaaS>
0

>  <NdssS>
0

>  <NddssS>
0

>  <NsCl>
2

>  <NsBr>
0

>  <NsI>
0

>  <fragCpx>
219.07

>  <fMF>
0.47

>  <nHBAcc>
4

>  <nHBDon>
1

>  <Kier1>
23.17

>  <Kier2>
11.23

>  <Lipinski>
1

>  <GhoseFilter>
1

>  <FilterItLogS>
-7.03

>  <VMcGowan>
327.55

>  <LabuteASA>
187.44

>  <PEOE_VSA1>
14.95

>  <PEOE_VSA2>
9.69

>  <PEOE_VSA3>
0

>  <PEOE_VSA4>
0

>  <PEOE_VSA5>
0

>  <PEOE_VSA6>
35.33

>  <PEOE_VSA7>
49.57

>  <PEOE_VSA8>
44.35

>  <PEOE_VSA9>
22.34

>  <PEOE_VSA10>
5.75

>  <PEOE_VSA11>
0

>  <PEOE_VSA12>
5.91

>  <PEOE_VSA13>
0

>  <SMR_VSA1>
9.53

>  <SMR_VSA2>
0

>  <SMR_VSA3>
4.9

>  <SMR_VSA4>
0

>  <SMR_VSA5>
25.68

>  <SMR_VSA6>
49.55

>  <SMR_VSA7>
52.01

>  <SMR_VSA8>
0

>  <SMR_VSA9>
5.75

>  <SlogP_VSA1>
14.95

>  <SlogP_VSA2>
50.14

>  <SlogP_VSA3>
11.22

>  <SlogP_VSA4>
0

>  <SlogP_VSA5>
24.83

>  <SlogP_VSA6>
36.4

>  <SlogP_VSA7>
10.05

>  <SlogP_VSA8>
0

>  <SlogP_VSA9>
0

>  <SlogP_VSA10>
11.37

>  <SlogP_VSA11>
5.75

>  <EState_VSA1>
0

>  <EState_VSA2>
5.91

>  <EState_VSA3>
23.07

>  <EState_VSA4>
69.11

>  <EState_VSA5>
5.56

>  <EState_VSA6>
0

>  <EState_VSA7>
30.33

>  <EState_VSA8>
21.18

>  <EState_VSA9>
27.94

>  <EState_VSA10>
4.79

>  <VSA_EState1>
5.89

>  <VSA_EState2>
16.34

>  <VSA_EState3>
4.18

>  <VSA_EState4>
3.1

>  <VSA_EState5>
0.9

>  <VSA_EState6>
11.8

>  <VSA_EState7>
3.47

>  <VSA_EState8>
5.71

>  <VSA_EState9>
0

>  <apol>
65.68

>  <bpol>
34.7

>  <nRing>
4

>  <nHRing>
2

>  <naRing>
2

>  <naHRing>
0

>  <nARing 2>
2

>  <nAHRing 2>
2

>  <nFRing>
1

>  <nFHRing>
1

>  <nFaRing>
0

>  <nFaHRing>
0

>  <nFARing 2>
1

>  <nFAHRing 2>
1

>  <nRot>
7

>  <SLogP>
4.86

>  <SMR>
123.24

>  <TopoPSA(NO)>
44.81

>  <TopoPSA>
44.81

>  <JGI1>
0.17

>  <JGI2>
0.07

>  <JGI3>
0.03

>  <JGI4>
0.04

>  <JGI5>
0.02

>  <Diameter>
18

>  <Radius>
9

>  <TMWC10>
139.25

>  <TSRW10>
65.59

>  <MW>
447.15

>  <AMW>
7.84

>  <WPath>
3204

>  <WPol>
46

>  <Zagreb1>
156

>  <Zagreb2>
181

>  <mZagreb2>
6.61

>  <yes>


>  <nAR-cont>
1

>  <nHA-cont>
0.74523694

>  <MWHBN>
0.236452215

>  <MWHBN-cont>
0.979555423

>  <TPSA-cont>
0.687198375

>  <pka_cont>
0.97

>  <yes.1>


>  <BBB_SCORE>
5.073966823

>  <MMFF94 Energy>
118.16

$$$$
Compound 1848
Actelion Java MolfileCreator 2.0

  0  0  0  0  0  0              0 V3000
M  V30 BEGIN CTAB
M  V30 COUNTS 41 43 0 0 0
M  V30 BEGIN ATOM
M  V30 1 Cl 2.6644 3.3111 -6.6305 0
M  V30 2 C 2.5704 2.3877 -5.1822 0
M  V30 3 C 3.3233 1.2243 -5.0525 0
M  V30 4 C 1.7423 2.8074 -4.1452 0
M  V30 5 C 3.2465 0.4737 -3.8762 0
M  V30 6 C 1.6658 2.0567 -2.9691 0
M  V30 7 C 2.4156 0.8789 -2.8197 0
M  V30 8 C 2.3494 0.0506 -1.5587 0 CFG=2
M  V30 9 C 0.9532 -0.4566 -1.1951 0
M  V30 10 C 2.8048 0.7858 -0.291 0
M  V30 11 N 1.0454 -0.6718 0.2279 0
M  V30 12 C 2.0724 0.0537 0.806 0
M  V30 13 C -0.0064 -1.3092 1.0007 0
M  V30 14 O 2.3212 0.1294 1.998 0
M  V30 15 C -1.2148 -0.3825 1.2448 0
M  V30 16 O -1.3263 0.7027 0.6688 0
M  V30 17 N -2.2009 -0.8481 2.109 0
M  V30 18 C -2.1974 -2.1938 2.6981 0
M  V30 19 C -3.4015 -0.0395 2.3167 0
M  V30 20 C -3.2662 -2.5123 3.757 0
M  V30 21 C -3.8652 -0.1161 3.7679 0
M  V30 22 O -3.4033 -3.64 4.2265 0
M  V30 23 N -4.06 -1.4852 4.1901 0
M  V30 24 H 3.972 0.8962 -5.8601 0
M  V30 25 H 1.1546 3.7165 -4.2428 0
M  V30 26 H 3.8452 -0.4313 -3.7939 0
M  V30 27 H 1.0131 2.4064 -2.1703 0
M  V30 28 H 2.9984 -0.8304 -1.6724 0
M  V30 29 H 0.1621 0.2719 -1.3942 0
M  V30 30 H 0.7142 -1.3955 -1.7045 0
M  V30 31 H 2.5031 1.8376 -0.265 0
M  V30 32 H 3.8867 0.712 -0.1496 0
M  V30 33 H -0.3348 -2.2063 0.4676 0
M  V30 34 H 0.4159 -1.5939 1.9687 0
M  V30 35 H -1.2226 -2.3701 3.1625 0
M  V30 36 H -2.3223 -2.9063 1.8751 0
M  V30 37 H -4.1722 -0.44 1.647 0
M  V30 38 H -3.2278 1.0043 2.0374 0
M  V30 39 H -4.811 0.4166 3.9043 0
M  V30 40 H -3.1167 0.3236 4.436 0
M  V30 41 H -4.7258 -1.7153 4.9183 0
M  V30 END ATOM
M  V30 BEGIN BOND
M  V30 1 1 1 2
M  V30 2 2 2 3
M  V30 3 1 2 4
M  V30 4 1 3 5
M  V30 5 2 4 6
M  V30 6 2 5 7
M  V30 7 1 7 8
M  V30 8 1 8 9
M  V30 9 1 8 10
M  V30 10 1 9 11
M  V30 11 1 10 12
M  V30 12 1 11 13
M  V30 13 2 12 14
M  V30 14 1 13 15
M  V30 15 2 15 16
M  V30 16 1 15 17
M  V30 17 1 17 18
M  V30 18 1 17 19
M  V30 19 1 18 20
M  V30 20 1 19 21
M  V30 21 2 20 22
M  V30 22 1 20 23
M  V30 23 1 6 7
M  V30 24 1 11 12
M  V30 25 1 21 23
M  V30 26 1 3 24
M  V30 27 1 4 25
M  V30 28 1 5 26
M  V30 29 1 6 27
M  V30 30 1 8 28
M  V30 31 1 9 29
M  V30 32 1 9 30
M  V30 33 1 10 31
M  V30 34 1 10 32
M  V30 35 1 13 33
M  V30 36 1 13 34
M  V30 37 1 18 35
M  V30 38 1 18 36
M  V30 39 1 19 37
M  V30 40 1 19 38
M  V30 41 1 21 39
M  V30 42 1 21 40
M  V30 43 1 23 41
M  V30 END BOND
M  V30 BEGIN COLLECTION
M  V30 MDLV30/STERAC1 ATOMS=(1 8)
M  V30 END COLLECTION
M  V30 END CTAB
M  END
>  <Column 1>
2256

>  <level_0>
2437

>  <index>
2437

>  <Unnamed: 0>
2437

>  <NO.>
2449

>  <Name>
cebaracetam

>  <IUPAC_name>
4-[2-[4-(4-chlorophenyl)-2-oxopyrrolidin-1-yl]acetyl]piperazin-2-one

>  <SMILES>
O=C1CN(C(=O)CN2CC(c3ccc(Cl)cc3)CC2=O)CCN1

>  <CID>
65919

>  <logBB>


>  <BBB+/BBB->
BBB+

>  <Inchi>
InChI=1S/C16H18ClN3O3/c17-13-3-1-11(2-4-13)12-7-15(22)20(8-12)10-16(23)19-6-5-18-14(21)9-19/h1-4-12H-5-10H2-(H-18-21)

>  <threshold>
-1

>  <reference>
R1|R19|R6|R27|R27|R30|

>  <group>
B

>  <Class>
1

>  <ABC>
17.99

>  <ABCGG>
14.48

>  <nAcid>
0

>  <nBase>
0

>  <nAromAtom>
6

>  <nAromBond>
6

>  <nAtom>
41

>  <nHeavyAtom>
23

>  <nSpiro>
0

>  <nBridgehead>
0

>  <nHetero>
7

>  <nN>
3

>  <nO>
3

>  <nF>
0

>  <BalabanJ>
1.48

>  <BertzCT>
631.96

>  <nBonds>
43

>  <nBondsO>
25

>  <nBondsS>
34

>  <nBondsD>
3

>  <nBondsT>
0

>  <nBondsA>
6

>  <nBondsM>
9

>  <nBondsKS>
37

>  <nBondsKD>
6

>  <RNCG>
0.16

>  <RPCG>
0.11

>  <FCSP3>
0.44

>  <SZ>
29.33

>  <Sm>
27.96

>  <Sv>
26.39

>  <Sse>
41.74

>  <Sp>
27.91

>  <Si>
46.39

>  <MZ>
0.72

>  <Mm>
0.68

>  <Mv>
0.64

>  <Mse>
1.02

>  <Mp>
0.68

>  <Mi>
1.13

>  <NsCH3>
0

>  <NdCH2>
0

>  <NssCH2>
6

>  <NtCH>
0

>  <NdsCH>
0

>  <NaaCH>
4

>  <NsssCH>
1

>  <NddC>
0

>  <NtsC>
0

>  <NdssC>
3

>  <NaasC>
2

>  <NaaaC>
0

>  <NssssC>
0

>  <NsNH3>
0

>  <NsNH2>
0

>  <NssNH2>
0

>  <NdNH>
0

>  <NssNH>
1

>  <NaaNH>
0

>  <NtN>
0

>  <NsssNH>
0

>  <NdsN>
0

>  <NaaN>
0

>  <NsssN>
2

>  <NddsN>
0

>  <NaasN>
0

>  <NssssN>
0

>  <NsOH>
0

>  <NdO>
3

>  <NssO>
0

>  <NaaO>
0

>  <NsF>
0

>  <NsSiH3>
0

>  <NssSiH2>
0

>  <NsssSiH>
0

>  <NssssSi>
0

>  <NsPH2>
0

>  <NssPH>
0

>  <NsssP>
0

>  <NdsssP>
0

>  <NsssssP>
0

>  <NsSH>
0

>  <NdS>
0

>  <NssS>
0

>  <NaaS>
0

>  <NdssS>
0

>  <NddssS>
0

>  <NsCl>
1

>  <NsBr>
0

>  <NsI>
0

>  <fragCpx>
119.07

>  <fMF>
0.46

>  <nHBAcc>
3

>  <nHBDon>
1

>  <Kier1>
17.81

>  <Kier2>
7.92

>  <Lipinski>
1

>  <GhoseFilter>
1

>  <FilterItLogS>
-3.22

>  <VMcGowan>
237.71

>  <LabuteASA>
138.93

>  <PEOE_VSA1>
15.12

>  <PEOE_VSA2>
14.38

>  <PEOE_VSA3>
0

>  <PEOE_VSA4>
0

>  <PEOE_VSA5>
0

>  <PEOE_VSA6>
23.73

>  <PEOE_VSA7>
17.7

>  <PEOE_VSA8>
37

>  <PEOE_VSA9>
13.09

>  <PEOE_VSA10>
0

>  <PEOE_VSA11>
0

>  <PEOE_VSA12>
17.72

>  <PEOE_VSA13>
0

>  <SMR_VSA1>
14.38

>  <SMR_VSA2>
0

>  <SMR_VSA3>
15.12

>  <SMR_VSA4>
0

>  <SMR_VSA5>
12.34

>  <SMR_VSA6>
32.72

>  <SMR_VSA7>
34.85

>  <SMR_VSA8>
0

>  <SMR_VSA9>
0

>  <SlogP_VSA1>
5.32

>  <SlogP_VSA2>
60.25

>  <SlogP_VSA3>
14.38

>  <SlogP_VSA4>
0

>  <SlogP_VSA5>
17.9

>  <SlogP_VSA6>
24.27

>  <SlogP_VSA7>
5.02

>  <SlogP_VSA8>
0

>  <SlogP_VSA9>
0

>  <SlogP_VSA10>
0

>  <SlogP_VSA11>
0

>  <EState_VSA1>
0

>  <EState_VSA2>
36.73

>  <EState_VSA3>
31.08

>  <EState_VSA4>
5.56

>  <EState_VSA5>
4.9

>  <EState_VSA6>
4.9

>  <EState_VSA7>
24.27

>  <EState_VSA8>
5.32

>  <EState_VSA9>
11.6

>  <EState_VSA10>
14.38

>  <VSA_EState1>
0

>  <VSA_EState2>
38.85

>  <VSA_EState3>
3.34

>  <VSA_EState4>
1.05

>  <VSA_EState5>
-0.28

>  <VSA_EState6>
7.45

>  <VSA_EState7>
0.4

>  <VSA_EState8>
1.59

>  <VSA_EState9>
0

>  <apol>
46.61

>  <bpol>
25.16

>  <nRing>
3

>  <nHRing>
2

>  <naRing>
1

>  <naHRing>
0

>  <nARing 2>
2

>  <nAHRing 2>
2

>  <nFRing>
0

>  <nFHRing>
0

>  <nFaRing>
0

>  <nFaHRing>
0

>  <nFARing 2>
0

>  <nFAHRing 2>
0

>  <nRot>
3

>  <SLogP>
0.61

>  <SMR>
84.98

>  <TopoPSA(NO)>
69.72

>  <TopoPSA>
69.72

>  <JGI1>
0.22

>  <JGI2>
0.08

>  <JGI3>
0.05

>  <JGI4>
0.05

>  <JGI5>
0.03

>  <Diameter>
13

>  <Radius>
7

>  <TMWC10>
122.07

>  <TSRW10>
71.13

>  <MW>
335.1

>  <AMW>
8.17

>  <WPath>
1295

>  <WPol>
33

>  <Zagreb1>
120

>  <Zagreb2>
139

>  <mZagreb2>
5

>  <yes>


>  <nAR-cont>
1

>  <nHA-cont>
0.967789328

>  <MWHBN>
0.218510735

>  <MWHBN-cont>
0.99585822

>  <TPSA-cont>
0.513311106

>  <pka_cont>
0.97

>  <yes.1>


>  <BBB_SCORE>
4.973198871

>  <MMFF94 Energy>
69.447

$$$$
Compound 1849
Actelion Java MolfileCreator 2.0

  0  0  0  0  0  0              0 V3000
M  V30 BEGIN CTAB
M  V30 COUNTS 31 33 0 0 0
M  V30 BEGIN ATOM
M  V30 1 Cl -2.5328 -0.8165 3.7601 0
M  V30 2 C -1.3267 0.0986 2.9358 0
M  V30 3 C -1.1257 -0.0589 1.6211 0
M  V30 4 C -0.5238 1.0076 3.7076 0
M  V30 5 C -0.0857 0.6861 0.8926 0
M  V30 6 C 0.3346 1.8504 3.1227 0
M  V30 7 C 0.3763 0.2995 -0.3297 0
M  V30 8 C 0.4959 1.8899 1.6346 0
M  V30 9 N 1.3847 0.8761 -1.106 0
M  V30 10 C -0.2438 -0.899 -0.965 0
M  V30 11 N 1.0749 2.9606 1.1911 0
M  V30 12 O 1.9834 0.1567 -2.1501 0
M  V30 13 C 2.111 2.1083 -0.826 0
M  V30 14 C -1.3467 -0.747 -1.8189 0
M  V30 15 C 0.272 -2.1804 -0.7269 0
M  V30 16 C 1.1926 3.1115 -0.1627 0
M  V30 17 C -1.9313 -1.8648 -2.4156 0
M  V30 18 C -0.3152 -3.2954 -1.3262 0
M  V30 19 O 0.6048 3.9865 -0.7915 0
M  V30 20 C -1.4165 -3.1371 -2.1676 0
M  V30 21 H -1.7381 -0.7769 1.0838 0
M  V30 22 H -0.645 1.018 4.7868 0
M  V30 23 H 0.9033 2.5731 3.6974 0
M  V30 24 H 1.2651 0.0573 -2.8048 0
M  V30 25 H 2.4887 2.5554 -1.7529 0
M  V30 26 H 2.9734 1.9087 -0.1802 0
M  V30 27 H -1.7537 0.242 -2.0185 0
M  V30 28 H 1.1381 -2.3096 -0.0819 0
M  V30 29 H -2.7879 -1.744 -3.074 0
M  V30 30 H 0.0888 -4.2872 -1.14 0
M  V30 31 H -1.8721 -4.0073 -2.6338 0
M  V30 END ATOM
M  V30 BEGIN BOND
M  V30 1 1 1 2
M  V30 2 2 2 3
M  V30 3 1 2 4
M  V30 4 1 3 5
M  V30 5 2 4 6
M  V30 6 2 5 7
M  V30 7 1 5 8
M  V30 8 1 7 9
M  V30 9 1 7 10
M  V30 10 2 8 11
M  V30 11 1 9 12
M  V30 12 1 9 13
M  V30 13 2 10 14
M  V30 14 1 10 15
M  V30 15 1 11 16
M  V30 16 1 14 17
M  V30 17 2 15 18
M  V30 18 2 16 19
M  V30 19 2 17 20
M  V30 20 1 6 8
M  V30 21 1 13 16
M  V30 22 1 18 20
M  V30 23 1 3 21
M  V30 24 1 4 22
M  V30 25 1 6 23
M  V30 26 1 12 24
M  V30 27 1 13 25
M  V30 28 1 13 26
M  V30 29 1 14 27
M  V30 30 1 15 28
M  V30 31 1 17 29
M  V30 32 1 18 30
M  V30 33 1 20 31
M  V30 END BOND
M  V30 END CTAB
M  END
>  <Column 1>
2257

>  <level_0>
2438

>  <index>
2438

>  <Unnamed: 0>
2438

>  <NO.>
2450

>  <Name>
demoxepam

>  <IUPAC_name>
7-chloro-4-hydroxy-5-phenyl-3h-1-4-benzodiazepin-2-one

>  <SMILES>
O=C1CN(O)C(c2ccccc2)=c2cc(Cl)ccc2=N1

>  <CID>
13756

>  <logBB>


>  <BBB+/BBB->
BBB+

>  <Inchi>
InChI=1S/C15H11ClN2O2/c16-11-6-7-13-12(8-11)15(10-4-2-1-3-5-10)18(20)9-14(19)17-13/h1-8-20H-9H2

>  <threshold>
-1

>  <reference>
R1|R13|R6|R27|R30|R30|

>  <group>
B

>  <Class>
1

>  <ABC>
15.72

>  <ABCGG>
13.02

>  <nAcid>
0

>  <nBase>
0

>  <nAromAtom>
12

>  <nAromBond>
12

>  <nAtom>
31

>  <nHeavyAtom>
20

>  <nSpiro>
0

>  <nBridgehead>
0

>  <nHetero>
5

>  <nN>
2

>  <nO>
2

>  <nF>
0

>  <BalabanJ>
1.81

>  <BertzCT>
787.27

>  <nBonds>
33

>  <nBondsO>
22

>  <nBondsS>
18

>  <nBondsD>
3

>  <nBondsT>
0

>  <nBondsA>
12

>  <nBondsM>
15

>  <nBondsKS>
25

>  <nBondsKD>
8

>  <RNCG>
0.19

>  <RPCG>
0.18

>  <FCSP3>
0.07

>  <SZ>
24.67

>  <Sm>
23.87

>  <Sv>
22.02

>  <Sse>
31.64

>  <Sp>
22.98

>  <Si>
34.44

>  <MZ>
0.8

>  <Mm>
0.77

>  <Mv>
0.71

>  <Mse>
1.02

>  <Mp>
0.74

>  <Mi>
1.11

>  <NsCH3>
0

>  <NdCH2>
0

>  <NssCH2>
1

>  <NtCH>
0

>  <NdsCH>
0

>  <NaaCH>
8

>  <NsssCH>
0

>  <NddC>
0

>  <NtsC>
0

>  <NdssC>
2

>  <NaasC>
2

>  <NaaaC>
0

>  <NssssC>
0

>  <NsNH3>
0

>  <NsNH2>
0

>  <NssNH2>
0

>  <NdNH>
0

>  <NssNH>
0

>  <NaaNH>
0

>  <NtN>
0

>  <NsssNH>
0

>  <NdsN>
1

>  <NaaN>
0

>  <NsssN>
1

>  <NddsN>
0

>  <NaasN>
0

>  <NssssN>
0

>  <NsOH>
1

>  <NdO>
1

>  <NssO>
0

>  <NaaO>
0

>  <NsF>
0

>  <NsSiH3>
0

>  <NssSiH2>
0

>  <NsssSiH>
0

>  <NssssSi>
0

>  <NsPH2>
0

>  <NssPH>
0

>  <NsssP>
0

>  <NdsssP>
0

>  <NsssssP>
0

>  <NsSH>
0

>  <NdS>
0

>  <NssS>
0

>  <NaaS>
0

>  <NdssS>
0

>  <NddssS>
0

>  <NsCl>
1

>  <NsBr>
0

>  <NsI>
0

>  <fragCpx>
104.05

>  <fMF>
0.55

>  <nHBAcc>
3

>  <nHBDon>
1

>  <Kier1>
14.92

>  <Kier2>
6.41

>  <Lipinski>
1

>  <GhoseFilter>
1

>  <FilterItLogS>
-3.83

>  <VMcGowan>
199.17

>  <LabuteASA>
119.76

>  <PEOE_VSA1>
0

>  <PEOE_VSA2>
10

>  <PEOE_VSA3>
10.06

>  <PEOE_VSA4>
0

>  <PEOE_VSA5>
0

>  <PEOE_VSA6>
41.93

>  <PEOE_VSA7>
18.2

>  <PEOE_VSA8>
15.8

>  <PEOE_VSA9>
11.05

>  <PEOE_VSA10>
6.54

>  <PEOE_VSA11>
0

>  <PEOE_VSA12>
0

>  <PEOE_VSA13>
5.91

>  <SMR_VSA1>
10

>  <SMR_VSA2>
0

>  <SMR_VSA3>
5.06

>  <SMR_VSA4>
4.99

>  <SMR_VSA5>
0

>  <SMR_VSA6>
6.54

>  <SMR_VSA7>
69.69

>  <SMR_VSA8>
0

>  <SMR_VSA9>
0

>  <SlogP_VSA1>
10.58

>  <SlogP_VSA2>
22.72

>  <SlogP_VSA3>
4.79

>  <SlogP_VSA4>
0

>  <SlogP_VSA5>
5.56

>  <SlogP_VSA6>
53.52

>  <SlogP_VSA7>
5.02

>  <SlogP_VSA8>
5.7

>  <SlogP_VSA9>
0

>  <SlogP_VSA10>
0

>  <SlogP_VSA11>
0

>  <EState_VSA1>
5.91

>  <EState_VSA2>
6.54

>  <EState_VSA3>
21.3

>  <EState_VSA4>
10.63

>  <EState_VSA5>
0

>  <EState_VSA6>
18.2

>  <EState_VSA7>
30.33

>  <EState_VSA8>
4.99

>  <EState_VSA9>
11.6

>  <EState_VSA10>
10

>  <VSA_EState1>
0

>  <VSA_EState2>
15.69

>  <VSA_EState3>
12.77

>  <VSA_EState4>
1.32

>  <VSA_EState5>
-0.4

>  <VSA_EState6>
14.39

>  <VSA_EState7>
0

>  <VSA_EState8>
-0.18

>  <VSA_EState9>
0

>  <apol>
38.37

>  <bpol>
14.12

>  <nRing>
3

>  <nHRing>
1

>  <naRing>
2

>  <naHRing>
0

>  <nARing 2>
1

>  <nAHRing 2>
1

>  <nFRing>
1

>  <nFHRing>
1

>  <nFaRing>
0

>  <nFaHRing>
0

>  <nFARing 2>
1

>  <nFAHRing 2>
1

>  <nRot>
1

>  <SLogP>
1.35

>  <SMR>
74.68

>  <TopoPSA(NO)>
52.9

>  <TopoPSA>
52.9

>  <JGI1>
0.18

>  <JGI2>
0.06

>  <JGI3>
0.05

>  <JGI4>
0.04

>  <JGI5>
0.02

>  <Diameter>
8

>  <Radius>
4

>  <TMWC10>
115.83

>  <TSRW10>
61.85

>  <MW>
286.05

>  <AMW>
9.23

>  <WPath>
719

>  <WPol>
35

>  <Zagreb1>
106

>  <Zagreb2>
125

>  <mZagreb2>
4.36

>  <yes>


>  <nAR-cont>
0.816016

>  <nHA-cont>
0.999629945

>  <MWHBN>
0.236504286

>  <MWHBN-cont>
0.979491238

>  <TPSA-cont>
0.630725151

>  <pka_cont>
0.97

>  <yes.1>


>  <BBB_SCORE>
5.031333104

>  <MMFF94 Energy>
118.61

$$$$
Compound 1850
Actelion Java MolfileCreator 2.0

  0  0  0  0  0  0              0 V3000
M  V30 BEGIN CTAB
M  V30 COUNTS 37 40 0 0 0
M  V30 BEGIN ATOM
M  V30 1 Cl 0.5785 2.9778 1.819 0
M  V30 2 C 1.2578 2.3055 0.3749 0
M  V30 3 C 1.1126 0.9651 -0.0418 0
M  V30 4 C 2.0385 3.2119 -0.3671 0
M  V30 5 C 1.8647 0.5834 -1.1872 0
M  V30 6 C 0.2812 -0.1291 0.6773 0 CFG=1
M  V30 7 C 2.719 2.81 -1.5118 0
M  V30 8 C 2.6423 1.488 -1.9156 0
M  V30 9 O 1.2771 -0.8185 1.4824 0
M  V30 10 N -0.7358 0.3716 1.6116 0
M  V30 11 C -0.3172 -1.1675 -0.3094 0
M  V30 12 C 0.894 -0.6455 2.8506 0
M  V30 13 C -2.1174 0.5002 1.1595 0
M  V30 14 C -0.6014 -0.4452 2.8063 0
M  V30 15 C -1.2744 -0.7858 -1.2738 0
M  V30 16 C 0.1275 -2.5075 -0.3233 0
M  V30 17 C -2.2194 1.211 -0.1897 0
M  V30 18 N -1.8238 0.5002 -1.2969 0
M  V30 19 C -1.7172 -1.6878 -2.2476 0
M  V30 20 C -0.34 -3.4089 -1.2802 0
M  V30 21 O -2.6896 2.3405 -0.319 0
M  V30 22 C -1.2525 -3.0019 -2.2477 0
M  V30 23 Cl 0.2298 -5.032 -1.2756 0
M  V30 24 H 2.1292 4.2461 -0.0399 0
M  V30 25 H 1.8625 -0.4506 -1.5281 0
M  V30 26 H 3.3214 3.5224 -2.0686 0
M  V30 27 H 3.1916 1.1507 -2.791 0
M  V30 28 H 1.4193 0.228 3.2522 0
M  V30 29 H 1.1841 -1.5294 3.4249 0
M  V30 30 H -2.6317 -0.4667 1.0902 0
M  V30 31 H -2.6782 1.101 1.8859 0
M  V30 32 H -0.977 0.0458 3.7087 0
M  V30 33 H -1.1051 -1.4125 2.6885 0
M  V30 34 H 0.8648 -2.8493 0.4005 0
M  V30 35 H -2.0087 0.9528 -2.184 0
M  V30 36 H -2.4464 -1.3838 -2.9952 0
M  V30 37 H -1.6106 -3.7022 -2.9977 0
M  V30 END ATOM
M  V30 BEGIN BOND
M  V30 1 1 1 2
M  V30 2 2 2 3
M  V30 3 1 2 4
M  V30 4 1 3 5
M  V30 5 1 3 6
M  V30 6 2 4 7
M  V30 7 2 5 8
M  V30 8 1 6 9
M  V30 9 1 6 10
M  V30 10 1 6 11
M  V30 11 1 9 12
M  V30 12 1 10 13
M  V30 13 1 10 14
M  V30 14 2 11 15
M  V30 15 1 11 16
M  V30 16 1 13 17
M  V30 17 1 15 18
M  V30 18 1 15 19
M  V30 19 2 16 20
M  V30 20 2 17 21
M  V30 21 2 19 22
M  V30 22 1 20 23
M  V30 23 1 7 8
M  V30 24 1 12 14
M  V30 25 1 17 18
M  V30 26 1 20 22
M  V30 27 1 4 24
M  V30 28 1 5 25
M  V30 29 1 7 26
M  V30 30 1 8 27
M  V30 31 1 12 28
M  V30 32 1 12 29
M  V30 33 1 13 30
M  V30 34 1 13 31
M  V30 35 1 14 32
M  V30 36 1 14 33
M  V30 37 1 16 34
M  V30 38 1 18 35
M  V30 39 1 19 36
M  V30 40 1 22 37
M  V30 END BOND
M  V30 BEGIN COLLECTION
M  V30 MDLV30/STERAC1 ATOMS=(1 6)
M  V30 END COLLECTION
M  V30 END CTAB
M  END
>  <Column 1>
2259

>  <level_0>
2440

>  <index>
2440

>  <Unnamed: 0>
2440

>  <NO.>
2452

>  <Name>
cloxazolam

>  <IUPAC_name>
10-chloro-11b-(2-chlorophenyl)-2-3-5-7-tetrahydro-[1-3]oxazolo[3-2-d][1-4]benzodiazepin-6-one

>  <SMILES>
O=C1CN2CCOC2(c2ccccc2Cl)c2cc(Cl)ccc2N1

>  <CID>
2816

>  <logBB>


>  <BBB+/BBB->
BBB+

>  <Inchi>
InChI=1S/C17H14Cl2N2O2/c18-11-5-6-15-13(9-11)17(12-3-1-2-4-14(12)19)21(7-8-23-17)10-16(22)20-15/h1-6-9H-7-8-10H2-(H-20-22)

>  <threshold>
-1

>  <reference>
R1|R13|R19|R6|R27|R27|R30|

>  <group>
B

>  <Class>
1

>  <ABC>
18.45

>  <ABCGG>
15.57

>  <nAcid>
0

>  <nBase>
1

>  <nAromAtom>
12

>  <nAromBond>
12

>  <nAtom>
37

>  <nHeavyAtom>
23

>  <nSpiro>
0

>  <nBridgehead>
0

>  <nHetero>
6

>  <nN>
2

>  <nO>
2

>  <nF>
0

>  <BalabanJ>
1.74

>  <BertzCT>
795.91

>  <nBonds>
40

>  <nBondsO>
26

>  <nBondsS>
27

>  <nBondsD>
1

>  <nBondsT>
0

>  <nBondsA>
12

>  <nBondsM>
13

>  <nBondsKS>
33

>  <nBondsKD>
7

>  <RNCG>
0.21

>  <RPCG>
0.14

>  <FCSP3>
0.24

>  <SZ>
30

>  <Sm>
29.07

>  <Sv>
25.92

>  <Sse>
37.73

>  <Sp>
27.48

>  <Si>
41.21

>  <MZ>
0.81

>  <Mm>
0.79

>  <Mv>
0.7

>  <Mse>
1.02

>  <Mp>
0.74

>  <Mi>
1.11

>  <NsCH3>
0

>  <NdCH2>
0

>  <NssCH2>
3

>  <NtCH>
0

>  <NdsCH>
0

>  <NaaCH>
7

>  <NsssCH>
0

>  <NddC>
0

>  <NtsC>
0

>  <NdssC>
1

>  <NaasC>
5

>  <NaaaC>
0

>  <NssssC>
1

>  <NsNH3>
0

>  <NsNH2>
0

>  <NssNH2>
0

>  <NdNH>
0

>  <NssNH>
1

>  <NaaNH>
0

>  <NtN>
0

>  <NsssNH>
0

>  <NdsN>
0

>  <NaaN>
0

>  <NsssN>
1

>  <NddsN>
0

>  <NaasN>
0

>  <NssssN>
0

>  <NsOH>
0

>  <NdO>
1

>  <NssO>
1

>  <NaaO>
0

>  <NsF>
0

>  <NsSiH3>
0

>  <NssSiH2>
0

>  <NsssSiH>
0

>  <NssssSi>
0

>  <NsPH2>
0

>  <NssPH>
0

>  <NsssP>
0

>  <NdsssP>
0

>  <NsssssP>
0

>  <NsSH>
0

>  <NdS>
0

>  <NssS>
0

>  <NaaS>
0

>  <NdssS>
0

>  <NddssS>
0

>  <NsCl>
2

>  <NsBr>
0

>  <NsI>
0

>  <fragCpx>
170.06

>  <fMF>
0.54

>  <nHBAcc>
3

>  <nHBDon>
1

>  <Kier1>
16.47

>  <Kier2>
6.38

>  <Lipinski>
1

>  <GhoseFilter>
1

>  <FilterItLogS>
-5.43

>  <VMcGowan>
233.03

>  <LabuteASA>
143.49

>  <PEOE_VSA1>
10.05

>  <PEOE_VSA2>
9.69

>  <PEOE_VSA3>
0

>  <PEOE_VSA4>
0

>  <PEOE_VSA5>
0

>  <PEOE_VSA6>
41.4

>  <PEOE_VSA7>
24.27

>  <PEOE_VSA8>
33.4

>  <PEOE_VSA9>
13.15

>  <PEOE_VSA10>
0

>  <PEOE_VSA11>
5.72

>  <PEOE_VSA12>
5.91

>  <PEOE_VSA13>
0

>  <SMR_VSA1>
9.53

>  <SMR_VSA2>
0

>  <SMR_VSA3>
4.9

>  <SMR_VSA4>
0

>  <SMR_VSA5>
5.72

>  <SMR_VSA6>
25.01

>  <SMR_VSA7>
63.64

>  <SMR_VSA8>
0

>  <SMR_VSA9>
0

>  <SlogP_VSA1>
5.32

>  <SlogP_VSA2>
30.5

>  <SlogP_VSA3>
15.26

>  <SlogP_VSA4>
0

>  <SlogP_VSA5>
11.13

>  <SlogP_VSA6>
42.46

>  <SlogP_VSA7>
10.05

>  <SlogP_VSA8>
0

>  <SlogP_VSA9>
0

>  <SlogP_VSA10>
5.69

>  <SlogP_VSA11>
0

>  <EState_VSA1>
5.72

>  <EState_VSA2>
12.45

>  <EState_VSA3>
28.88

>  <EState_VSA4>
11.13

>  <EState_VSA5>
0

>  <EState_VSA6>
12.13

>  <EState_VSA7>
35.23

>  <EState_VSA8>
5.32

>  <EState_VSA9>
27.94

>  <EState_VSA10>
4.79

>  <VSA_EState1>
6.21

>  <VSA_EState2>
14.26

>  <VSA_EState3>
4.11

>  <VSA_EState4>
1.42

>  <VSA_EState5>
-0.08

>  <VSA_EState6>
12.95

>  <VSA_EState7>
0

>  <VSA_EState8>
1.4

>  <VSA_EState9>
0

>  <apol>
45.89

>  <bpol>
19.95

>  <nRing>
4

>  <nHRing>
2

>  <naRing>
2

>  <naHRing>
0

>  <nARing 2>
2

>  <nAHRing 2>
2

>  <nFRing>
1

>  <nFHRing>
1

>  <nFaRing>
0

>  <nFaHRing>
0

>  <nFARing 2>
1

>  <nFAHRing 2>
1

>  <nRot>
1

>  <SLogP>
3.48

>  <SMR>
89.84

>  <TopoPSA(NO)>
41.57

>  <TopoPSA>
41.57

>  <JGI1>
0.21

>  <JGI2>
0.09

>  <JGI3>
0.05

>  <JGI4>
0.04

>  <JGI5>
0.02

>  <Diameter>
8

>  <Radius>
4

>  <TMWC10>
126.52

>  <TSRW10>
72.56

>  <MW>
348.04

>  <AMW>
9.41

>  <WPath>
970

>  <WPol>
46

>  <Zagreb1>
130

>  <Zagreb2>
161

>  <mZagreb2>
4.93

>  <yes>


>  <nAR-cont>
1

>  <nHA-cont>
0.967789328

>  <MWHBN>
0.214410185

>  <MWHBN-cont>
0.997883

>  <TPSA-cont>
0.709815587

>  <pka_cont>
0.97

>  <yes.1>


>  <BBB_SCORE>
5.369245001

>  <MMFF94 Energy>
67.362

$$$$
Compound 1851
Actelion Java MolfileCreator 2.0

  0  0  0  0  0  0              0 V3000
M  V30 BEGIN CTAB
M  V30 COUNTS 37 40 0 0 0
M  V30 BEGIN ATOM
M  V30 1 Br 0.6579 -4.2 3.2106 0
M  V30 2 C -0.1576 -3.0739 1.9299 0
M  V30 3 C 0.3079 -1.7695 1.7582 0
M  V30 4 C -1.2064 -3.5574 1.1564 0
M  V30 5 C -0.2752 -0.9078 0.8031 0
M  V30 6 C -1.8075 -2.7218 0.217 0
M  V30 7 C -1.3642 -1.4031 0.0579 0
M  V30 8 C 0.317 0.4929 0.5215 0 CFG=2
M  V30 9 N -2.0604 -0.6076 -0.8573 0
M  V30 10 O 1.445 0.6826 1.4257 0
M  V30 11 N -0.6228 1.591 0.8036 0
M  V30 12 C 0.9747 0.5561 -0.8698 0
M  V30 13 C -2.4235 0.7015 -0.6581 0
M  V30 14 C 1.2431 1.9421 2.0717 0
M  V30 15 C -2.0562 1.3319 0.6848 0
M  V30 16 C -0.2555 2.0937 2.1174 0
M  V30 17 C 0.7212 1.5646 -1.8097 0
M  V30 18 C 1.9206 -0.4305 -1.2368 0
M  V30 19 O -3.0798 1.2911 -1.5164 0
M  V30 20 F -0.1219 2.5727 -1.5489 0
M  V30 21 C 1.3417 1.5759 -3.0613 0
M  V30 22 C 2.5455 -0.4219 -2.4877 0
M  V30 23 C 2.2511 0.5807 -3.4043 0
M  V30 24 H 1.1508 -1.4299 2.3573 0
M  V30 25 H -1.5673 -4.5749 1.2811 0
M  V30 26 H -2.642 -3.1003 -0.3689 0
M  V30 27 H -2.4136 -1.019 -1.7126 0
M  V30 28 H 1.6974 1.9208 3.0658 0
M  V30 29 H 1.7233 2.725 1.4735 0
M  V30 30 H -2.44 0.6964 1.4929 0
M  V30 31 H -2.5977 2.2837 0.751 0
M  V30 32 H -0.5604 3.1313 2.2813 0
M  V30 33 H -0.6701 1.466 2.9161 0
M  V30 34 H 2.1868 -1.2175 -0.5328 0
M  V30 35 H 1.1075 2.3745 -3.759 0
M  V30 36 H 3.266 -1.1964 -2.739 0
M  V30 37 H 2.7344 0.594 -4.3773 0
M  V30 END ATOM
M  V30 BEGIN BOND
M  V30 1 1 1 2
M  V30 2 2 2 3
M  V30 3 1 2 4
M  V30 4 1 3 5
M  V30 5 2 4 6
M  V30 6 2 5 7
M  V30 7 1 5 8
M  V30 8 1 7 9
M  V30 9 1 8 10
M  V30 10 1 8 11
M  V30 11 1 8 12
M  V30 12 1 9 13
M  V30 13 1 10 14
M  V30 14 1 11 15
M  V30 15 1 11 16
M  V30 16 2 12 17
M  V30 17 1 12 18
M  V30 18 2 13 19
M  V30 19 1 17 20
M  V30 20 1 17 21
M  V30 21 2 18 22
M  V30 22 2 21 23
M  V30 23 1 6 7
M  V30 24 1 13 15
M  V30 25 1 14 16
M  V30 26 1 22 23
M  V30 27 1 3 24
M  V30 28 1 4 25
M  V30 29 1 6 26
M  V30 30 1 9 27
M  V30 31 1 14 28
M  V30 32 1 14 29
M  V30 33 1 15 30
M  V30 34 1 15 31
M  V30 35 1 16 32
M  V30 36 1 16 33
M  V30 37 1 18 34
M  V30 38 1 21 35
M  V30 39 1 22 36
M  V30 40 1 23 37
M  V30 END BOND
M  V30 BEGIN COLLECTION
M  V30 MDLV30/STERAC1 ATOMS=(1 8)
M  V30 END COLLECTION
M  V30 END CTAB
M  END
>  <Column 1>
2260

>  <level_0>
2441

>  <index>
2441

>  <Unnamed: 0>
2441

>  <NO.>
2453

>  <Name>
haloxazolam

>  <IUPAC_name>
10-bromo-11b-(2-fluorophenyl)-2-3-5-7-tetrahydro-[1-3]oxazolo[3-2-d][1-4]benzodiazepin-6-one

>  <SMILES>
O=C1CN2CCOC2(c2ccccc2F)c2cc(Br)ccc2N1

>  <CID>
3563

>  <logBB>


>  <BBB+/BBB->
BBB+

>  <Inchi>
InChI=1S/C17H14BrFN2O2/c18-11-5-6-15-13(9-11)17(12-3-1-2-4-14(12)19)21(7-8-23-17)10-16(22)20-15/h1-6-9H-7-8-10H2-(H-20-22)

>  <threshold>
-1

>  <reference>
R1|R13|R19|R6|R27|R27|R30|

>  <group>
B

>  <Class>
1

>  <ABC>
18.45

>  <ABCGG>
15.57

>  <nAcid>
0

>  <nBase>
1

>  <nAromAtom>
12

>  <nAromBond>
12

>  <nAtom>
37

>  <nHeavyAtom>
23

>  <nSpiro>
0

>  <nBridgehead>
0

>  <nHetero>
6

>  <nN>
2

>  <nO>
2

>  <nF>
1

>  <BalabanJ>
1.74

>  <BertzCT>
797.91

>  <nBonds>
40

>  <nBondsO>
26

>  <nBondsS>
27

>  <nBondsD>
1

>  <nBondsT>
0

>  <nBondsA>
12

>  <nBondsM>
13

>  <nBondsKS>
33

>  <nBondsKD>
7

>  <RNCG>
0.2

>  <RPCG>
0.13

>  <FCSP3>
0.24

>  <SZ>
31.67

>  <Sm>
31.41

>  <Sv>
25.67

>  <Sse>
37.83

>  <Sp>
27.03

>  <Si>
41.5

>  <MZ>
0.86

>  <Mm>
0.85

>  <Mv>
0.69

>  <Mse>
1.02

>  <Mp>
0.73

>  <Mi>
1.12

>  <NsCH3>
0

>  <NdCH2>
0

>  <NssCH2>
3

>  <NtCH>
0

>  <NdsCH>
0

>  <NaaCH>
7

>  <NsssCH>
0

>  <NddC>
0

>  <NtsC>
0

>  <NdssC>
1

>  <NaasC>
5

>  <NaaaC>
0

>  <NssssC>
1

>  <NsNH3>
0

>  <NsNH2>
0

>  <NssNH2>
0

>  <NdNH>
0

>  <NssNH>
1

>  <NaaNH>
0

>  <NtN>
0

>  <NsssNH>
0

>  <NdsN>
0

>  <NaaN>
0

>  <NsssN>
1

>  <NddsN>
0

>  <NaasN>
0

>  <NssssN>
0

>  <NsOH>
0

>  <NdO>
1

>  <NssO>
1

>  <NaaO>
0

>  <NsF>
1

>  <NsSiH3>
0

>  <NssSiH2>
0

>  <NsssSiH>
0

>  <NssssSi>
0

>  <NsPH2>
0

>  <NssPH>
0

>  <NsssP>
0

>  <NdsssP>
0

>  <NsssssP>
0

>  <NsSH>
0

>  <NdS>
0

>  <NssS>
0

>  <NaaS>
0

>  <NdssS>
0

>  <NddssS>
0

>  <NsCl>
0

>  <NsBr>
1

>  <NsI>
0

>  <fragCpx>
170.06

>  <fMF>
0.54

>  <nHBAcc>
3

>  <nHBDon>
1

>  <Kier1>
16.47

>  <Kier2>
6.38

>  <Lipinski>
1

>  <GhoseFilter>
1

>  <FilterItLogS>
-5.31

>  <VMcGowan>
227.81

>  <LabuteASA>
140.92

>  <PEOE_VSA1>
10.05

>  <PEOE_VSA2>
9.69

>  <PEOE_VSA3>
4.39

>  <PEOE_VSA4>
0

>  <PEOE_VSA5>
0

>  <PEOE_VSA6>
34.13

>  <PEOE_VSA7>
24.27

>  <PEOE_VSA8>
27.83

>  <PEOE_VSA9>
13.15

>  <PEOE_VSA10>
5.82

>  <PEOE_VSA11>
5.72

>  <PEOE_VSA12>
5.91

>  <PEOE_VSA13>
0

>  <SMR_VSA1>
13.92

>  <SMR_VSA2>
0

>  <SMR_VSA3>
4.9

>  <SMR_VSA4>
0

>  <SMR_VSA5>
5.72

>  <SMR_VSA6>
25.01

>  <SMR_VSA7>
63.88

>  <SMR_VSA8>
0

>  <SMR_VSA9>
0

>  <SlogP_VSA1>
5.32

>  <SlogP_VSA2>
30.5

>  <SlogP_VSA3>
15.26

>  <SlogP_VSA4>
5.82

>  <SlogP_VSA5>
11.13

>  <SlogP_VSA6>
46.94

>  <SlogP_VSA7>
0

>  <SlogP_VSA8>
0

>  <SlogP_VSA9>
0

>  <SlogP_VSA10>
10.08

>  <SlogP_VSA11>
0

>  <EState_VSA1>
5.72

>  <EState_VSA2>
18.27

>  <EState_VSA3>
24.4

>  <EState_VSA4>
10.04

>  <EState_VSA5>
6.07

>  <EState_VSA6>
18.2

>  <EState_VSA7>
23.1

>  <EState_VSA8>
21.25

>  <EState_VSA9>
4.74

>  <EState_VSA10>
9.18

>  <VSA_EState1>
21.55

>  <VSA_EState2>
14.11

>  <VSA_EState3>
2.89

>  <VSA_EState4>
0.71

>  <VSA_EState5>
-0.48

>  <VSA_EState6>
12.1

>  <VSA_EState7>
0

>  <VSA_EState8>
1.15

>  <VSA_EState9>
0

>  <apol>
45.14

>  <bpol>
21.42

>  <nRing>
4

>  <nHRing>
2

>  <naRing>
2

>  <naHRing>
0

>  <nARing 2>
2

>  <nAHRing 2>
2

>  <nFRing>
1

>  <nFHRing>
1

>  <nFaRing>
0

>  <nFaHRing>
0

>  <nFARing 2>
1

>  <nFAHRing 2>
1

>  <nRot>
1

>  <SLogP>
3.07

>  <SMR>
87.48

>  <TopoPSA(NO)>
41.57

>  <TopoPSA>
41.57

>  <JGI1>
0.21

>  <JGI2>
0.09

>  <JGI3>
0.05

>  <JGI4>
0.04

>  <JGI5>
0.02

>  <Diameter>
8

>  <Radius>
4

>  <TMWC10>
126.52

>  <TSRW10>
72.56

>  <MW>
376.02

>  <AMW>
10.16

>  <WPath>
970

>  <WPol>
46

>  <Zagreb1>
130

>  <Zagreb2>
161

>  <mZagreb2>
4.93

>  <yes>


>  <nAR-cont>
1

>  <nHA-cont>
0.967789328

>  <MWHBN>
0.206278763

>  <MWHBN-cont>
0.999914989

>  <TPSA-cont>
0.709815587

>  <pka_cont>
0.97

>  <yes.1>


>  <BBB_SCORE>
5.372292984

>  <MMFF94 Energy>
62.646

$$$$
Compound 1852
Actelion Java MolfileCreator 2.0

  0  0  0  0  0  0              0 V3000
M  V30 BEGIN CTAB
M  V30 COUNTS 44 47 0 0 0
M  V30 BEGIN ATOM
M  V30 1 Cl -4.6527 -2.2835 1.4675 0
M  V30 2 C -3.3935 -1.4508 0.6433 0
M  V30 3 C -2.2482 -1.0629 1.337 0
M  V30 4 C -3.5233 -1.1705 -0.7105 0
M  V30 5 C -1.196 -0.3803 0.6855 0
M  V30 6 C -2.5022 -0.4911 -1.3746 0
M  V30 7 C -1.343 -0.0901 -0.6903 0
M  V30 8 C 0.0894 0.0138 1.4505 0 CFG=2
M  V30 9 N -0.3508 0.637 -1.3989 0
M  V30 10 O -0.041 -0.4688 2.8173 0
M  V30 11 N 0.2486 1.4762 1.5417 0
M  V30 12 C 1.3284 -0.7356 0.9325 0
M  V30 13 C 0.2178 1.813 -0.9053 0
M  V30 14 C 0.1607 0.0834 -2.6552 0
M  V30 15 C 0.1739 0.6602 3.6705 0
M  V30 16 C -0.2897 2.2953 0.457 0
M  V30 17 C -0.2734 1.8429 2.8468 0
M  V30 18 C 2.5811 -0.1298 0.7588 0
M  V30 19 C 1.2482 -2.1201 0.6533 0
M  V30 20 O 1.0588 2.4547 -1.5383 0
M  V30 21 C -0.2382 0.903 -3.8853 0
M  V30 22 F 2.7821 1.1617 1.0554 0
M  V30 23 C 3.6831 -0.8431 0.2818 0
M  V30 24 C 2.3495 -2.8384 0.177 0
M  V30 25 O -0.0144 0.1394 -5.0677 0
M  V30 26 C 3.5675 -2.1968 -0.0164 0
M  V30 27 H -2.1721 -1.3076 2.3949 0
M  V30 28 H -4.4149 -1.4718 -1.2543 0
M  V30 29 H -2.6318 -0.2673 -2.4305 0
M  V30 30 H -0.1573 -0.9607 -2.7674 0
M  V30 31 H 1.2564 0.0525 -2.5944 0
M  V30 32 H -0.4071 0.5401 4.5889 0
M  V30 33 H 1.2393 0.7092 3.9235 0
M  V30 34 H 0.0579 3.3284 0.5825 0
M  V30 35 H -1.3859 2.3373 0.4497 0
M  V30 36 H 0.1336 2.7854 3.2241 0
M  V30 37 H -1.3689 1.9016 2.8383 0
M  V30 38 H 0.3154 -2.6582 0.8147 0
M  V30 39 H -1.2986 1.1721 -3.8547 0
M  V30 40 H 0.3472 1.8254 -3.9503 0
M  V30 41 H 4.6302 -0.3277 0.1529 0
M  V30 42 H 2.2534 -3.9005 -0.0352 0
M  V30 43 H -0.136 0.7446 -5.8201 0
M  V30 44 H 4.4267 -2.7502 -0.3854 0
M  V30 END ATOM
M  V30 BEGIN BOND
M  V30 1 1 1 2
M  V30 2 2 2 3
M  V30 3 1 2 4
M  V30 4 1 3 5
M  V30 5 2 4 6
M  V30 6 2 5 7
M  V30 7 1 5 8
M  V30 8 1 7 9
M  V30 9 1 8 10
M  V30 10 1 8 11
M  V30 11 1 8 12
M  V30 12 1 9 13
M  V30 13 1 9 14
M  V30 14 1 10 15
M  V30 15 1 11 16
M  V30 16 1 11 17
M  V30 17 2 12 18
M  V30 18 1 12 19
M  V30 19 2 13 20
M  V30 20 1 14 21
M  V30 21 1 18 22
M  V30 22 1 18 23
M  V30 23 2 19 24
M  V30 24 1 21 25
M  V30 25 2 23 26
M  V30 26 1 6 7
M  V30 27 1 13 16
M  V30 28 1 15 17
M  V30 29 1 24 26
M  V30 30 1 3 27
M  V30 31 1 4 28
M  V30 32 1 6 29
M  V30 33 1 14 30
M  V30 34 1 14 31
M  V30 35 1 15 32
M  V30 36 1 15 33
M  V30 37 1 16 34
M  V30 38 1 16 35
M  V30 39 1 17 36
M  V30 40 1 17 37
M  V30 41 1 19 38
M  V30 42 1 21 39
M  V30 43 1 21 40
M  V30 44 1 23 41
M  V30 45 1 24 42
M  V30 46 1 25 43
M  V30 47 1 26 44
M  V30 END BOND
M  V30 BEGIN COLLECTION
M  V30 MDLV30/STERAC1 ATOMS=(1 8)
M  V30 END COLLECTION
M  V30 END CTAB
M  END
>  <Column 1>
2261

>  <level_0>
2442

>  <index>
2442

>  <Unnamed: 0>
2442

>  <NO.>
2454

>  <Name>
flutazolam

>  <IUPAC_name>
10-chloro-11b-(2-fluorophenyl)-7-(2-hydroxyethyl)-3-5-dihydro-2h-[1-3]oxazolo[3-2-d][1-4]benzodiazepin-6-one

>  <SMILES>
O=C1CN2CCOC2(c2ccccc2F)c2cc(Cl)ccc2N1CCO

>  <CID>
3398

>  <logBB>


>  <BBB+/BBB->
BBB+

>  <Inchi>
InChI=1S/C19H18ClFN2O3/c20-13-5-6-17-15(11-13)19(14-3-1-2-4-16(14)21)22(8-10-26-19)12-18(25)23(17)7-9-24/h1-6-11-24H-7-10-12H2

>  <threshold>
-1

>  <reference>
R1|R13|R19|R6|R27|R27|R30|

>  <group>
B

>  <Class>
1

>  <ABC>
20.49

>  <ABCGG>
17.39

>  <nAcid>
0

>  <nBase>
1

>  <nAromAtom>
12

>  <nAromBond>
12

>  <nAtom>
44

>  <nHeavyAtom>
26

>  <nSpiro>
0

>  <nBridgehead>
0

>  <nHetero>
7

>  <nN>
2

>  <nO>
3

>  <nF>
1

>  <BalabanJ>
1.75

>  <BertzCT>
862.43

>  <nBonds>
47

>  <nBondsO>
29

>  <nBondsS>
34

>  <nBondsD>
1

>  <nBondsT>
0

>  <nBondsA>
12

>  <nBondsM>
13

>  <nBondsKS>
40

>  <nBondsKD>
7

>  <RNCG>
0.18

>  <RPCG>
0.11

>  <FCSP3>
0.32

>  <SZ>
32.67

>  <Sm>
31.37

>  <Sv>
29.27

>  <Sse>
45.03

>  <Sp>
30.58

>  <Si>
49.65

>  <MZ>
0.74

>  <Mm>
0.71

>  <Mv>
0.67

>  <Mse>
1.02

>  <Mp>
0.7

>  <Mi>
1.13

>  <NsCH3>
0

>  <NdCH2>
0

>  <NssCH2>
5

>  <NtCH>
0

>  <NdsCH>
0

>  <NaaCH>
7

>  <NsssCH>
0

>  <NddC>
0

>  <NtsC>
0

>  <NdssC>
1

>  <NaasC>
5

>  <NaaaC>
0

>  <NssssC>
1

>  <NsNH3>
0

>  <NsNH2>
0

>  <NssNH2>
0

>  <NdNH>
0

>  <NssNH>
0

>  <NaaNH>
0

>  <NtN>
0

>  <NsssNH>
0

>  <NdsN>
0

>  <NaaN>
0

>  <NsssN>
2

>  <NddsN>
0

>  <NaasN>
0

>  <NssssN>
0

>  <NsOH>
1

>  <NdO>
1

>  <NssO>
1

>  <NaaO>
0

>  <NsF>
1

>  <NsSiH3>
0

>  <NssSiH2>
0

>  <NsssSiH>
0

>  <NssssSi>
0

>  <NsPH2>
0

>  <NssPH>
0

>  <NsssP>
0

>  <NdsssP>
0

>  <NsssssP>
0

>  <NsSH>
0

>  <NdS>
0

>  <NssS>
0

>  <NaaS>
0

>  <NdssS>
0

>  <NddssS>
0

>  <NsCl>
1

>  <NsBr>
0

>  <NsI>
0

>  <fragCpx>
191.07

>  <fMF>
0.45

>  <nHBAcc>
4

>  <nHBDon>
1

>  <Kier1>
19.32

>  <Kier2>
7.79

>  <Lipinski>
1

>  <GhoseFilter>
1

>  <FilterItLogS>
-4.6

>  <VMcGowan>
256.6

>  <LabuteASA>
155.09

>  <PEOE_VSA1>
14.74

>  <PEOE_VSA2>
9.69

>  <PEOE_VSA3>
4.39

>  <PEOE_VSA4>
0

>  <PEOE_VSA5>
0

>  <PEOE_VSA6>
29.8

>  <PEOE_VSA7>
24.27

>  <PEOE_VSA8>
29.24

>  <PEOE_VSA9>
25.45

>  <PEOE_VSA10>
5.82

>  <PEOE_VSA11>
5.72

>  <PEOE_VSA12>
5.91

>  <PEOE_VSA13>
0

>  <SMR_VSA1>
19.03

>  <SMR_VSA2>
0

>  <SMR_VSA3>
4.9

>  <SMR_VSA4>
0

>  <SMR_VSA5>
5.72

>  <SMR_VSA6>
37.75

>  <SMR_VSA7>
64.43

>  <SMR_VSA8>
0

>  <SMR_VSA9>
0

>  <SlogP_VSA1>
4.9

>  <SlogP_VSA2>
48.76

>  <SlogP_VSA3>
15.26

>  <SlogP_VSA4>
5.82

>  <SlogP_VSA5>
11.13

>  <SlogP_VSA6>
42.46

>  <SlogP_VSA7>
5.02

>  <SlogP_VSA8>
0

>  <SlogP_VSA9>
0

>  <SlogP_VSA10>
10.08

>  <SlogP_VSA11>
0

>  <EState_VSA1>
11.54

>  <EState_VSA2>
25.6

>  <EState_VSA3>
34.99

>  <EState_VSA4>
0

>  <EState_VSA5>
10.97

>  <EState_VSA6>
36.4

>  <EState_VSA7>
4.9

>  <EState_VSA8>
0

>  <EState_VSA9>
16.34

>  <EState_VSA10>
14.29

>  <VSA_EState1>
20.93

>  <VSA_EState2>
16.19

>  <VSA_EState3>
9.88

>  <VSA_EState4>
0.29

>  <VSA_EState5>
-0.58

>  <VSA_EState6>
11.53

>  <VSA_EState7>
0

>  <VSA_EState8>
0.88

>  <VSA_EState9>
0

>  <apol>
51.08

>  <bpol>
25.7

>  <nRing>
4

>  <nHRing>
2

>  <naRing>
2

>  <naHRing>
0

>  <nARing 2>
2

>  <nAHRing 2>
2

>  <nFRing>
1

>  <nFHRing>
1

>  <nFaRing>
0

>  <nFaHRing>
0

>  <nFARing 2>
1

>  <nFAHRing 2>
1

>  <nRot>
3

>  <SLogP>
2.35

>  <SMR>
95.6

>  <TopoPSA(NO)>
53.01

>  <TopoPSA>
53.01

>  <JGI1>
0.19

>  <JGI2>
0.1

>  <JGI3>
0.05

>  <JGI4>
0.04

>  <JGI5>
0.02

>  <Diameter>
10

>  <Radius>
5

>  <TMWC10>
133.57

>  <TSRW10>
76.09

>  <MW>
376.1

>  <AMW>
8.55

>  <WPath>
1361

>  <WPol>
53

>  <Zagreb1>
144

>  <Zagreb2>
179

>  <mZagreb2>
5.74

>  <yes>


>  <nAR-cont>
1

>  <nHA-cont>
0.892715677

>  <MWHBN>
0.257821029

>  <MWHBN-cont>
0.945676396

>  <TPSA-cont>
0.629957283

>  <pka_cont>
0.97

>  <yes.1>


>  <BBB_SCORE>
5.056144837

>  <MMFF94 Energy>
85.379

$$$$
Compound 1853
Actelion Java MolfileCreator 2.0

  0  0  0  0  0  0              0 V3000
M  V30 BEGIN CTAB
M  V30 COUNTS 34 36 0 0 0
M  V30 BEGIN ATOM
M  V30 1 Cl -4.2179 1.8639 0.3239 0
M  V30 2 C -2.5154 2.0692 0.4522 0
M  V30 3 C -1.661 1.1633 -0.1712 0
M  V30 4 C -2.0011 3.1338 1.1862 0
M  V30 5 C -0.2694 1.3178 -0.06 0
M  V30 6 C -0.6186 3.3068 1.2803 0
M  V30 7 C 0.6115 0.2804 -0.6693 0
M  V30 8 C 0.2537 2.4178 0.6392 0
M  V30 9 N 1.6892 0.5156 -1.3416 0
M  V30 10 C 0.2058 -1.1464 -0.4371 0
M  V30 11 N 1.6231 2.6909 0.7529 0
M  V30 12 C 2.1182 1.8989 -1.5378 0
M  V30 13 C 0.2402 -1.9883 -1.4853 0
M  V30 14 C -0.1291 -1.5943 0.9601 0
M  V30 15 C 2.5753 2.4905 -0.214 0
M  V30 16 C -0.0907 -3.4479 -1.3782 0
M  V30 17 C -0.0413 -3.115 1.124 0
M  V30 18 O 3.7357 2.8437 -0.0028 0
M  V30 19 C -0.7248 -3.83 -0.0385 0
M  V30 20 H -2.081 0.3365 -0.7396 0
M  V30 21 H -2.6681 3.8383 1.6776 0
M  V30 22 H -0.2327 4.1572 1.839 0
M  V30 23 H 1.9709 3.1705 1.5742 0
M  V30 24 H 2.9704 1.9056 -2.2259 0
M  V30 25 H 1.3363 2.5181 -1.992 0
M  V30 26 H 0.5457 -1.629 -2.4664 0
M  V30 27 H 0.5493 -1.1239 1.6817 0
M  V30 28 H -1.1462 -1.2724 1.212 0
M  V30 29 H 0.8337 -4.0197 -1.522 0
M  V30 30 H -0.7711 -3.7287 -2.19 0
M  V30 31 H -0.5055 -3.4103 2.0718 0
M  V30 32 H 1.0112 -3.4216 1.1742 0
M  V30 33 H -1.7904 -3.5663 -0.0493 0
M  V30 34 H -0.6682 -4.9155 0.0999 0
M  V30 END ATOM
M  V30 BEGIN BOND
M  V30 1 1 1 2
M  V30 2 2 2 3
M  V30 3 1 2 4
M  V30 4 1 3 5
M  V30 5 2 4 6
M  V30 6 1 5 7
M  V30 7 2 5 8
M  V30 8 2 7 9
M  V30 9 1 7 10
M  V30 10 1 8 11
M  V30 11 1 9 12
M  V30 12 2 10 13
M  V30 13 1 10 14
M  V30 14 1 11 15
M  V30 15 1 13 16
M  V30 16 1 14 17
M  V30 17 2 15 18
M  V30 18 1 16 19
M  V30 19 1 6 8
M  V30 20 1 12 15
M  V30 21 1 17 19
M  V30 22 1 3 20
M  V30 23 1 4 21
M  V30 24 1 6 22
M  V30 25 1 11 23
M  V30 26 1 12 24
M  V30 27 1 12 25
M  V30 28 1 13 26
M  V30 29 1 14 27
M  V30 30 1 14 28
M  V30 31 1 16 29
M  V30 32 1 16 30
M  V30 33 1 17 31
M  V30 34 1 17 32
M  V30 35 1 19 33
M  V30 36 1 19 34
M  V30 END BOND
M  V30 END CTAB
M  END
>  <Column 1>
2262

>  <level_0>
2443

>  <index>
2443

>  <Unnamed: 0>
2443

>  <NO.>
2455

>  <Name>
nortetrazepam

>  <IUPAC_name>
7-chloro-5-(cyclohexen-1-yl)-1-3-dihydro-1-4-benzodiazepin-2-one

>  <SMILES>
O=C1CN=C(C2=CCCCC2)c2cc(Cl)ccc2N1

>  <CID>
166581

>  <logBB>


>  <BBB+/BBB->
BBB+

>  <Inchi>
InChI=1S/C15H15ClN2O/c16-11-6-7-13-12(8-11)15(17-9-14(19)18-13)10-4-2-1-3-5-10/h4-6-8H-1-3-5-9H2-(H-18-19)

>  <threshold>
-1

>  <reference>
R1|R13|R19|R6|R24|R27|R27|R27|R30|R30|

>  <group>
B

>  <Class>
1

>  <ABC>
14.95

>  <ABCGG>
12.17

>  <nAcid>
0

>  <nBase>
0

>  <nAromAtom>
6

>  <nAromBond>
6

>  <nAtom>
34

>  <nHeavyAtom>
19

>  <nSpiro>
0

>  <nBridgehead>
0

>  <nHetero>
4

>  <nN>
2

>  <nO>
1

>  <nF>
0

>  <BalabanJ>
1.75

>  <BertzCT>
589.81

>  <nBonds>
36

>  <nBondsO>
21

>  <nBondsS>
27

>  <nBondsD>
3

>  <nBondsT>
0

>  <nBondsA>
6

>  <nBondsM>
9

>  <nBondsKS>
30

>  <nBondsKD>
6

>  <RNCG>
0.24

>  <RPCG>
0.18

>  <FCSP3>
0.33

>  <SZ>
24

>  <Sm>
22.87

>  <Sv>
22.39

>  <Sse>
34.08

>  <Sp>
24.09

>  <Si>
38.06

>  <MZ>
0.71

>  <Mm>
0.67

>  <Mv>
0.66

>  <Mse>
1

>  <Mp>
0.71

>  <Mi>
1.12

>  <NsCH3>
0

>  <NdCH2>
0

>  <NssCH2>
5

>  <NtCH>
0

>  <NdsCH>
1

>  <NaaCH>
3

>  <NsssCH>
0

>  <NddC>
0

>  <NtsC>
0

>  <NdssC>
3

>  <NaasC>
3

>  <NaaaC>
0

>  <NssssC>
0

>  <NsNH3>
0

>  <NsNH2>
0

>  <NssNH2>
0

>  <NdNH>
0

>  <NssNH>
1

>  <NaaNH>
0

>  <NtN>
0

>  <NsssNH>
0

>  <NdsN>
1

>  <NaaN>
0

>  <NsssN>
0

>  <NddsN>
0

>  <NaasN>
0

>  <NssssN>
0

>  <NsOH>
0

>  <NdO>
1

>  <NssO>
0

>  <NaaO>
0

>  <NsF>
0

>  <NsSiH3>
0

>  <NssSiH2>
0

>  <NsssSiH>
0

>  <NssssSi>
0

>  <NsPH2>
0

>  <NssPH>
0

>  <NsssP>
0

>  <NdsssP>
0

>  <NsssssP>
0

>  <NsSH>
0

>  <NdS>
0

>  <NssS>
0

>  <NaaS>
0

>  <NdssS>
0

>  <NddssS>
0

>  <NsCl>
1

>  <NsBr>
0

>  <NsI>
0

>  <fragCpx>
99.04

>  <fMF>
0.5

>  <nHBAcc>
2

>  <nHBDon>
1

>  <Kier1>
13.96

>  <Kier2>
6.19

>  <Lipinski>
1

>  <GhoseFilter>
1

>  <FilterItLogS>
-4.78

>  <VMcGowan>
201.9

>  <LabuteASA>
116.92

>  <PEOE_VSA1>
5.32

>  <PEOE_VSA2>
9.79

>  <PEOE_VSA3>
0

>  <PEOE_VSA4>
0

>  <PEOE_VSA5>
0

>  <PEOE_VSA6>
17.68

>  <PEOE_VSA7>
49.46

>  <PEOE_VSA8>
10.59

>  <PEOE_VSA9>
11.4

>  <PEOE_VSA10>
6.54

>  <PEOE_VSA11>
0

>  <PEOE_VSA12>
5.91

>  <PEOE_VSA13>
0

>  <SMR_VSA1>
4.79

>  <SMR_VSA2>
0

>  <SMR_VSA3>
0

>  <SMR_VSA4>
4.99

>  <SMR_VSA5>
25.68

>  <SMR_VSA6>
11.86

>  <SMR_VSA7>
40.43

>  <SMR_VSA8>
0

>  <SMR_VSA9>
0

>  <SlogP_VSA1>
5.32

>  <SlogP_VSA2>
18.16

>  <SlogP_VSA3>
4.79

>  <SlogP_VSA4>
0

>  <SlogP_VSA5>
31.25

>  <SlogP_VSA6>
34.84

>  <SlogP_VSA7>
5.02

>  <SlogP_VSA8>
0

>  <SlogP_VSA9>
0

>  <SlogP_VSA10>
5.69

>  <SlogP_VSA11>
0

>  <EState_VSA1>
0

>  <EState_VSA2>
12.45

>  <EState_VSA3>
5.02

>  <EState_VSA4>
29.8

>  <EState_VSA5>
18.41

>  <EState_VSA6>
6.07

>  <EState_VSA7>
12.13

>  <EState_VSA8>
16.39

>  <EState_VSA9>
11.6

>  <EState_VSA10>
4.79

>  <VSA_EState1>
0

>  <VSA_EState2>
16.18

>  <VSA_EState3>
3.55

>  <VSA_EState4>
3.91

>  <VSA_EState5>
-0.07

>  <VSA_EState6>
5.52

>  <VSA_EState7>
6.77

>  <VSA_EState8>
0.18

>  <VSA_EState9>
0

>  <apol>
40.23

>  <bpol>
18.14

>  <nRing>
3

>  <nHRing>
1

>  <naRing>
1

>  <naHRing>
0

>  <nARing 2>
2

>  <nAHRing 2>
1

>  <nFRing>
1

>  <nFHRing>
1

>  <nFaRing>
0

>  <nFaHRing>
0

>  <nFARing 2>
1

>  <nFAHRing 2>
1

>  <nRot>
1

>  <SLogP>
3.58

>  <SMR>
78.04

>  <TopoPSA(NO)>
41.46

>  <TopoPSA>
41.46

>  <JGI1>
0.17

>  <JGI2>
0.07

>  <JGI3>
0.04

>  <JGI4>
0.04

>  <JGI5>
0.02

>  <Diameter>
8

>  <Radius>
4

>  <TMWC10>
112.9

>  <TSRW10>
60.38

>  <MW>
274.09

>  <AMW>
8.06

>  <WPath>
643

>  <WPol>
32

>  <Zagreb1>
100

>  <Zagreb2>
117

>  <mZagreb2>
4.17

>  <yes>


>  <nAR-cont>
1

>  <nHA-cont>
0.998649058

>  <MWHBN>
0.18120687

>  <MWHBN-cont>
0.988433052

>  <TPSA-cont>
0.710583455

>  <pka_cont>
0.97

>  <yes.1>


>  <BBB_SCORE>
5.387465545

>  <MMFF94 Energy>
70.787

$$$$
Compound 1854
Actelion Java MolfileCreator 2.0

  0  0  0  0  0  0              0 V3000
M  V30 BEGIN CTAB
M  V30 COUNTS 37 40 0 0 0
M  V30 BEGIN ATOM
M  V30 1 S 2.8587 -0.9794 -1.2244 0
M  V30 2 C 2.0604 0.5014 -1.0786 0
M  V30 3 C 1.4445 -1.8228 -0.8024 0
M  V30 4 N 2.8057 1.5973 -1.4162 0
M  V30 5 C 0.7743 0.4132 -0.5888 0
M  V30 6 C 0.3892 -0.9804 -0.4856 0
M  V30 7 C 1.4041 -3.3201 -0.7761 0
M  V30 8 C 2.2448 2.7261 -1.9571 0
M  V30 9 C -0.0229 1.603 -0.2785 0
M  V30 10 C -0.972 -1.5373 -0.1594 0
M  V30 11 C -0.0467 -3.8183 -0.7925 0
M  V30 12 O 2.9531 3.699 -2.2197 0
M  V30 13 C 0.7485 2.69 -2.2682 0
M  V30 14 N -0.0442 2.6492 -1.0349 0
M  V30 15 C -0.8096 1.6314 0.9869 0
M  V30 16 C -0.9203 -3.0324 0.192 0
M  V30 17 C -0.3073 1.0619 2.165 0
M  V30 18 C -2.0489 2.2833 1.0039 0
M  V30 19 C -1.0582 1.1164 3.3409 0
M  V30 20 C -2.7956 2.3348 2.182 0
M  V30 21 C -2.3019 1.7483 3.3472 0
M  V30 22 H 3.8034 1.5988 -1.2561 0
M  V30 23 H 1.8992 -3.6714 0.1376 0
M  V30 24 H 1.9435 -3.7457 -1.6298 0
M  V30 25 H -1.616 -1.3954 -1.0364 0
M  V30 26 H -1.439 -1.0058 0.6719 0
M  V30 27 H -0.4614 -3.7139 -1.8033 0
M  V30 28 H -0.0697 -4.8855 -0.5454 0
M  V30 29 H 0.4968 3.6103 -2.8067 0
M  V30 30 H 0.5101 1.8582 -2.941 0
M  V30 31 H -0.5198 -3.1567 1.2064 0
M  V30 32 H -1.9373 -3.4405 0.1974 0
M  V30 33 H 0.6687 0.5841 2.1829 0
M  V30 34 H -2.4336 2.7537 0.1017 0
M  V30 35 H -0.6695 0.6744 4.2551 0
M  V30 36 H -3.7583 2.8401 2.1922 0
M  V30 37 H -2.8829 1.7947 4.2654 0
M  V30 END ATOM
M  V30 BEGIN BOND
M  V30 1 1 1 2
M  V30 2 1 1 3
M  V30 3 1 2 4
M  V30 4 2 2 5
M  V30 5 2 3 6
M  V30 6 1 3 7
M  V30 7 1 4 8
M  V30 8 1 5 9
M  V30 9 1 6 10
M  V30 10 1 7 11
M  V30 11 2 8 12
M  V30 12 1 8 13
M  V30 13 2 9 14
M  V30 14 1 9 15
M  V30 15 1 10 16
M  V30 16 2 15 17
M  V30 17 1 15 18
M  V30 18 1 17 19
M  V30 19 2 18 20
M  V30 20 2 19 21
M  V30 21 1 5 6
M  V30 22 1 11 16
M  V30 23 1 13 14
M  V30 24 1 20 21
M  V30 25 1 4 22
M  V30 26 1 7 23
M  V30 27 1 7 24
M  V30 28 1 10 25
M  V30 29 1 10 26
M  V30 30 1 11 27
M  V30 31 1 11 28
M  V30 32 1 13 29
M  V30 33 1 13 30
M  V30 34 1 16 31
M  V30 35 1 16 32
M  V30 36 1 17 33
M  V30 37 1 18 34
M  V30 38 1 19 35
M  V30 39 1 20 36
M  V30 40 1 21 37
M  V30 END BOND
M  V30 END CTAB
M  END
>  <Column 1>
2263

>  <level_0>
2444

>  <index>
2444

>  <Unnamed: 0>
2444

>  <NO.>
2456

>  <Name>
bentazepam

>  <IUPAC_name>
5-phenyl-1-3-6-7-8-9-hexahydro-[1]benzothiolo[2-3-e][1-4]diazepin-2-one

>  <SMILES>
O=C1CN=C(c2ccccc2)c2c(sc3c2CCCC3)N1

>  <CID>
135412795

>  <logBB>


>  <BBB+/BBB->
BBB+

>  <Inchi>
InChI=1S/C17H16N2OS/c20-14-10-18-16(11-6-2-1-3-7-11)15-12-8-4-5-9-13(12)21-17(15)19-14/h1-3-6-7H-4-5-8-10H2-(H-19-20)

>  <threshold>
-1

>  <reference>
R1|R13|R13|R19|R6|R24|R27|R27|R27|R30|R30|

>  <group>
B

>  <Class>
1

>  <ABC>
16.88

>  <ABCGG>
13.5

>  <nAcid>
0

>  <nBase>
0

>  <nAromAtom>
11

>  <nAromBond>
11

>  <nAtom>
37

>  <nHeavyAtom>
21

>  <nSpiro>
0

>  <nBridgehead>
0

>  <nHetero>
4

>  <nN>
2

>  <nO>
1

>  <nF>
0

>  <BalabanJ>
1.58

>  <BertzCT>
730.75

>  <nBonds>
40

>  <nBondsO>
24

>  <nBondsS>
27

>  <nBondsD>
2

>  <nBondsT>
0

>  <nBondsA>
11

>  <nBondsM>
13

>  <nBondsKS>
33

>  <nBondsKD>
7

>  <RNCG>
0.22

>  <RPCG>
0.17

>  <FCSP3>
0.29

>  <SZ>
26

>  <Sm>
24.68

>  <Sv>
24.75

>  <Sse>
36.84

>  <Sp>
26.92

>  <Si>
41.03

>  <MZ>
0.7

>  <Mm>
0.67

>  <Mv>
0.67

>  <Mse>
1

>  <Mp>
0.73

>  <Mi>
1.11

>  <NsCH3>
0

>  <NdCH2>
0

>  <NssCH2>
5

>  <NtCH>
0

>  <NdsCH>
0

>  <NaaCH>
5

>  <NsssCH>
0

>  <NddC>
0

>  <NtsC>
0

>  <NdssC>
2

>  <NaasC>
5

>  <NaaaC>
0

>  <NssssC>
0

>  <NsNH3>
0

>  <NsNH2>
0

>  <NssNH2>
0

>  <NdNH>
0

>  <NssNH>
1

>  <NaaNH>
0

>  <NtN>
0

>  <NsssNH>
0

>  <NdsN>
1

>  <NaaN>
0

>  <NsssN>
0

>  <NddsN>
0

>  <NaasN>
0

>  <NssssN>
0

>  <NsOH>
0

>  <NdO>
1

>  <NssO>
0

>  <NaaO>
0

>  <NsF>
0

>  <NsSiH3>
0

>  <NssSiH2>
0

>  <NsssSiH>
0

>  <NssssSi>
0

>  <NsPH2>
0

>  <NssPH>
0

>  <NsssP>
0

>  <NdsssP>
0

>  <NsssssP>
0

>  <NsSH>
0

>  <NdS>
0

>  <NssS>
0

>  <NaaS>
1

>  <NdssS>
0

>  <NddssS>
0

>  <NsCl>
0

>  <NsBr>
0

>  <NsI>
0

>  <fragCpx>
156.04

>  <fMF>
0.54

>  <nHBAcc>
3

>  <nHBDon>
1

>  <Kier1>
14.58

>  <Kier2>
6.25

>  <Lipinski>
1

>  <GhoseFilter>
1

>  <FilterItLogS>
-5.33

>  <VMcGowan>
219.03

>  <LabuteASA>
127.28

>  <PEOE_VSA1>
5.32

>  <PEOE_VSA2>
9.79

>  <PEOE_VSA3>
0

>  <PEOE_VSA4>
0

>  <PEOE_VSA5>
11.34

>  <PEOE_VSA6>
30.33

>  <PEOE_VSA7>
31.25

>  <PEOE_VSA8>
16

>  <PEOE_VSA9>
5.71

>  <PEOE_VSA10>
11.55

>  <PEOE_VSA11>
0

>  <PEOE_VSA12>
5.91

>  <PEOE_VSA13>
0

>  <SMR_VSA1>
4.79

>  <SMR_VSA2>
0

>  <SMR_VSA3>
0

>  <SMR_VSA4>
4.99

>  <SMR_VSA5>
25.68

>  <SMR_VSA6>
11.86

>  <SMR_VSA7>
51.9

>  <SMR_VSA8>
0

>  <SMR_VSA9>
0

>  <SlogP_VSA1>
5.32

>  <SlogP_VSA2>
18.16

>  <SlogP_VSA3>
17.64

>  <SlogP_VSA4>
0

>  <SlogP_VSA5>
34.41

>  <SlogP_VSA6>
35.32

>  <SlogP_VSA7>
0

>  <SlogP_VSA8>
0

>  <SlogP_VSA9>
0

>  <SlogP_VSA10>
5

>  <SlogP_VSA11>
0

>  <EState_VSA1>
0

>  <EState_VSA2>
12.45

>  <EState_VSA3>
0

>  <EState_VSA4>
29.12

>  <EState_VSA5>
28.85

>  <EState_VSA6>
11.34

>  <EState_VSA7>
18.2

>  <EState_VSA8>
22.44

>  <EState_VSA9>
0

>  <EState_VSA10>
4.79

>  <VSA_EState1>
0

>  <VSA_EState2>
17.96

>  <VSA_EState3>
4.04

>  <VSA_EState4>
4.66

>  <VSA_EState5>
-0.01

>  <VSA_EState6>
10.21

>  <VSA_EState7>
4.71

>  <VSA_EState8>
0.21

>  <VSA_EState9>
0

>  <apol>
44.96

>  <bpol>
21.09

>  <nRing>
4

>  <nHRing>
2

>  <naRing>
2

>  <naHRing>
1

>  <nARing 2>
2

>  <nAHRing 2>
1

>  <nFRing>
1

>  <nFHRing>
1

>  <nFaRing>
0

>  <nFaHRing>
0

>  <nFARing 2>
1

>  <nFAHRing 2>
1

>  <nRot>
1

>  <SLogP>
3.42

>  <SMR>
86.54

>  <TopoPSA(NO)>
41.46

>  <TopoPSA>
69.7

>  <JGI1>
0.13

>  <JGI2>
0.06

>  <JGI3>
0.05

>  <JGI4>
0.03

>  <JGI5>
0.02

>  <Diameter>
9

>  <Radius>
5

>  <TMWC10>
120.34

>  <TSRW10>
69.83

>  <MW>
296.1

>  <AMW>
8

>  <WPath>
822

>  <WPol>
37

>  <Zagreb1>
116

>  <Zagreb2>
140

>  <mZagreb2>
4.56

>  <yes>


>  <nAR-cont>
1

>  <nHA-cont>
0.994529749

>  <MWHBN>
0.232456015

>  <MWHBN-cont>
0.984198359

>  <TPSA-cont>
0.513450719

>  <pka_cont>
0.97

>  <yes.1>


>  <BBB_SCORE>
4.982728725

>  <MMFF94 Energy>
83.641

$$$$
Compound 1855
Actelion Java MolfileCreator 2.0

  0  0  0  0  0  0              0 V3000
M  V30 BEGIN CTAB
M  V30 COUNTS 36 38 0 0 0
M  V30 BEGIN ATOM
M  V30 1 Cl 2.7143 0.3287 -4.0323 0
M  V30 2 C 2.1018 0.7288 -2.4764 0
M  V30 3 C 1.5282 -0.2593 -1.6826 0
M  V30 4 C 2.1954 2.0367 -2.0123 0
M  V30 5 C 1.0225 0.0662 -0.4127 0
M  V30 6 C 1.7084 2.3611 -0.743 0
M  V30 7 C 0.4528 -1.0375 0.4125 0
M  V30 8 C 1.1087 1.3853 0.0691 0
M  V30 9 N 0.7623 -1.2394 1.6511 0
M  V30 10 C -0.5183 -1.9806 -0.2235 0
M  V30 11 N 0.6342 1.7656 1.3544 0
M  V30 12 C 1.6476 -0.2845 2.3242 0
M  V30 13 C -0.5028 -3.3291 0.1513 0
M  V30 14 C -1.458 -1.5294 -1.1593 0
M  V30 15 C 0.8823 1.0214 2.5093 0
M  V30 16 C -0.3162 2.8875 1.457 0
M  V30 17 C -1.4002 -4.2267 -0.429 0
M  V30 18 C -2.3541 -2.4315 -1.7367 0
M  V30 19 O 0.4997 1.396 3.6193 0
M  V30 20 C -1.7706 2.4807 1.2252 0
M  V30 21 C -2.3215 -3.7784 -1.3752 0
M  V30 22 F -1.9387 1.9711 -0.0199 0
M  V30 23 F -2.2065 1.5613 2.1077 0
M  V30 24 F -2.582 3.5611 1.3219 0
M  V30 25 H 1.49 -1.2834 -2.0477 0
M  V30 26 H 2.6582 2.8065 -2.6256 0
M  V30 27 H 1.8327 3.3831 -0.3915 0
M  V30 28 H 1.8991 -0.6774 3.3152 0
M  V30 29 H 2.5937 -0.1294 1.7945 0
M  V30 30 H 0.2056 -3.6828 0.897 0
M  V30 31 H -1.522 -0.4793 -1.4322 0
M  V30 32 H -0.236 3.335 2.4543 0
M  V30 33 H -0.0463 3.6766 0.7484 0
M  V30 34 H -1.3851 -5.2735 -0.1362 0
M  V30 35 H -3.0867 -2.0819 -2.4601 0
M  V30 36 H -3.0243 -4.4779 -1.8215 0
M  V30 END ATOM
M  V30 BEGIN BOND
M  V30 1 1 1 2
M  V30 2 2 2 3
M  V30 3 1 2 4
M  V30 4 1 3 5
M  V30 5 2 4 6
M  V30 6 1 5 7
M  V30 7 2 5 8
M  V30 8 2 7 9
M  V30 9 1 7 10
M  V30 10 1 8 11
M  V30 11 1 9 12
M  V30 12 2 10 13
M  V30 13 1 10 14
M  V30 14 1 11 15
M  V30 15 1 11 16
M  V30 16 1 13 17
M  V30 17 2 14 18
M  V30 18 2 15 19
M  V30 19 1 16 20
M  V30 20 2 17 21
M  V30 21 1 20 22
M  V30 22 1 20 23
M  V30 23 1 20 24
M  V30 24 1 6 8
M  V30 25 1 12 15
M  V30 26 1 18 21
M  V30 27 1 3 25
M  V30 28 1 4 26
M  V30 29 1 6 27
M  V30 30 1 12 28
M  V30 31 1 12 29
M  V30 32 1 13 30
M  V30 33 1 14 31
M  V30 34 1 16 32
M  V30 35 1 16 33
M  V30 36 1 17 34
M  V30 37 1 18 35
M  V30 38 1 21 36
M  V30 END BOND
M  V30 END CTAB
M  END
>  <Column 1>
2264

>  <level_0>
2445

>  <index>
2445

>  <Unnamed: 0>
2445

>  <NO.>
2457

>  <Name>
halazepam

>  <IUPAC_name>
7-chloro-5-phenyl-1-(2-2-2-trifluoroethyl)-3h-1-4-benzodiazepin-2-one

>  <SMILES>
O=C1CN=C(c2ccccc2)c2cc(Cl)ccc2N1CC(F)(F)F

>  <CID>
31640

>  <logBB>


>  <BBB+/BBB->
BBB+

>  <Inchi>
InChI=1S/C17H12ClF3N2O/c18-12-6-7-14-13(8-12)16(11-4-2-1-3-5-11)22-9-15(24)23(14)10-17(19-20)21/h1-8H-9-10H2

>  <threshold>
-1

>  <reference>
R1|R13|R19|R6|R14|R23|R24|R27|R27|R27|R30|R30|

>  <group>
B

>  <Class>
1

>  <ABC>
18.88

>  <ABCGG>
15.53

>  <nAcid>
0

>  <nBase>
0

>  <nAromAtom>
12

>  <nAromBond>
12

>  <nAtom>
36

>  <nHeavyAtom>
24

>  <nSpiro>
0

>  <nBridgehead>
0

>  <nHetero>
7

>  <nN>
2

>  <nO>
1

>  <nF>
3

>  <BalabanJ>
1.83

>  <BertzCT>
803.23

>  <nBonds>
38

>  <nBondsO>
26

>  <nBondsS>
24

>  <nBondsD>
2

>  <nBondsT>
0

>  <nBondsA>
12

>  <nBondsM>
14

>  <nBondsKS>
30

>  <nBondsKD>
8

>  <RNCG>
0.16

>  <RPCG>
0.22

>  <FCSP3>
0.18

>  <SZ>
30

>  <Sm>
29.37

>  <Sv>
25.51

>  <Sse>
37.62

>  <Sp>
25.89

>  <Si>
41.08

>  <MZ>
0.83

>  <Mm>
0.82

>  <Mv>
0.71

>  <Mse>
1.04

>  <Mp>
0.72

>  <Mi>
1.14

>  <NsCH3>
0

>  <NdCH2>
0

>  <NssCH2>
2

>  <NtCH>
0

>  <NdsCH>
0

>  <NaaCH>
8

>  <NsssCH>
0

>  <NddC>
0

>  <NtsC>
0

>  <NdssC>
2

>  <NaasC>
4

>  <NaaaC>
0

>  <NssssC>
1

>  <NsNH3>
0

>  <NsNH2>
0

>  <NssNH2>
0

>  <NdNH>
0

>  <NssNH>
0

>  <NaaNH>
0

>  <NtN>
0

>  <NsssNH>
0

>  <NdsN>
1

>  <NaaN>
0

>  <NsssN>
1

>  <NddsN>
0

>  <NaasN>
0

>  <NssssN>
0

>  <NsOH>
0

>  <NdO>
1

>  <NssO>
0

>  <NaaO>
0

>  <NsF>
3

>  <NsSiH3>
0

>  <NssSiH2>
0

>  <NsssSiH>
0

>  <NssssSi>
0

>  <NsPH2>
0

>  <NssPH>
0

>  <NsssP>
0

>  <NdsssP>
0

>  <NsssssP>
0

>  <NsSH>
0

>  <NdS>
0

>  <NssS>
0

>  <NaaS>
0

>  <NdssS>
0

>  <NddssS>
0

>  <NsCl>
1

>  <NsBr>
0

>  <NsI>
0

>  <fragCpx>
124.07

>  <fMF>
0.47

>  <nHBAcc>
2

>  <nHBDon>
0

>  <Kier1>
18.78

>  <Kier2>
7.71

>  <Lipinski>
1

>  <GhoseFilter>
1

>  <FilterItLogS>
-5.66

>  <VMcGowan>
226.76

>  <LabuteASA>
140.92

>  <PEOE_VSA1>
4.9

>  <PEOE_VSA2>
9.79

>  <PEOE_VSA3>
0

>  <PEOE_VSA4>
13.17

>  <PEOE_VSA5>
0

>  <PEOE_VSA6>
41.93

>  <PEOE_VSA7>
18.2

>  <PEOE_VSA8>
16.15

>  <PEOE_VSA9>
11.4

>  <PEOE_VSA10>
13.09

>  <PEOE_VSA11>
0

>  <PEOE_VSA12>
5.91

>  <PEOE_VSA13>
0

>  <SMR_VSA1>
17.97

>  <SMR_VSA2>
0

>  <SMR_VSA3>
0

>  <SMR_VSA4>
4.99

>  <SMR_VSA5>
6.18

>  <SMR_VSA6>
17.99

>  <SMR_VSA7>
64.68

>  <SMR_VSA8>
0

>  <SMR_VSA9>
0

>  <SlogP_VSA1>
4.9

>  <SlogP_VSA2>
30.88

>  <SlogP_VSA3>
4.79

>  <SlogP_VSA4>
0

>  <SlogP_VSA5>
11.13

>  <SlogP_VSA6>
53.52

>  <SlogP_VSA7>
5.02

>  <SlogP_VSA8>
0

>  <SlogP_VSA9>
0

>  <SlogP_VSA10>
18.86

>  <SlogP_VSA11>
0

>  <EState_VSA1>
18.63

>  <EState_VSA2>
12.23

>  <EState_VSA3>
26.76

>  <EState_VSA4>
0

>  <EState_VSA5>
18.2

>  <EState_VSA6>
24.27

>  <EState_VSA7>
6.07

>  <EState_VSA8>
4.99

>  <EState_VSA9>
11.6

>  <EState_VSA10>
17.97

>  <VSA_EState1>
38.65

>  <VSA_EState2>
17.15

>  <VSA_EState3>
0.36

>  <VSA_EState4>
1.72

>  <VSA_EState5>
-0.71

>  <VSA_EState6>
13.4

>  <VSA_EState7>
-4.51

>  <VSA_EState8>
-1.72

>  <VSA_EState9>
0

>  <apol>
43.24

>  <bpol>
19.61

>  <nRing>
3

>  <nHRing>
1

>  <naRing>
2

>  <naHRing>
0

>  <nARing 2>
1

>  <nAHRing 2>
1

>  <nFRing>
1

>  <nFHRing>
1

>  <nFaRing>
0

>  <nFaHRing>
0

>  <nFARing 2>
1

>  <nFAHRing 2>
1

>  <nRot>
2

>  <SLogP>
4.09

>  <SMR>
86.81

>  <TopoPSA(NO)>
32.67

>  <TopoPSA>
32.67

>  <JGI1>
0.23

>  <JGI2>
0.08

>  <JGI3>
0.05

>  <JGI4>
0.05

>  <JGI5>
0.03

>  <Diameter>
10

>  <Radius>
5

>  <TMWC10>
125.57

>  <TSRW10>
66.83

>  <MW>
352.06

>  <AMW>
9.78

>  <WPath>
1207

>  <WPol>
41

>  <Zagreb1>
128

>  <Zagreb2>
149

>  <mZagreb2>
5.1

>  <yes>


>  <nAR-cont>
0.816016

>  <nHA-cont>
0.94700071

>  <MWHBN>
0.106591274

>  <MWHBN-cont>
0.76601723

>  <TPSA-cont>
0.771943113

>  <pka_cont>
0.97

>  <yes.1>


>  <BBB_SCORE>
4.940928781

>  <MMFF94 Energy>
134.99

$$$$
Compound 1856
Actelion Java MolfileCreator 2.0

  0  0  0  0  0  0              0 V3000
M  V30 BEGIN CTAB
M  V30 COUNTS 40 43 0 0 0
M  V30 BEGIN ATOM
M  V30 1 Cl 1.461 -4.8765 0.7303 0
M  V30 2 C 0.5282 -3.5384 0.1869 0
M  V30 3 C 0.4296 -2.3972 0.9764 0
M  V30 4 C -0.1318 -3.607 -1.0352 0
M  V30 5 C -0.3259 -1.3002 0.5303 0
M  V30 6 C -0.8989 -2.5239 -1.4733 0
M  V30 7 C -0.4258 -0.1122 1.4256 0
M  V30 8 C -1.0035 -1.3563 -0.7007 0
M  V30 9 N -1.5443 0.4596 1.7318 0
M  V30 10 C 0.828 0.4468 2.021 0
M  V30 11 N -1.7973 -0.2776 -1.1837 0
M  V30 12 C -2.7721 -0.0199 1.0871 0
M  V30 13 C 2.0343 0.4427 1.3087 0
M  V30 14 C 0.7802 1.0139 3.3 0
M  V30 15 C -2.7322 0.3864 -0.3836 0
M  V30 16 C -1.558 0.2242 -2.5377 0
M  V30 17 C 3.188 0.9758 1.8873 0
M  V30 18 C 1.9359 1.5454 3.8743 0
M  V30 19 O -3.4904 1.2557 -0.82 0
M  V30 20 C -0.2111 0.8904 -2.6189 0
M  V30 21 C 3.139 1.5221 3.1698 0
M  V30 22 C -0.0243 2.1464 -3.4325 0
M  V30 23 C 0.0305 2.2115 -1.9315 0
M  V30 24 H 0.9283 -2.3687 1.9427 0
M  V30 25 H -0.0664 -4.5034 -1.6474 0
M  V30 26 H -1.4321 -2.6193 -2.4161 0
M  V30 27 H -3.6281 0.4774 1.5561 0
M  V30 28 H -2.9293 -1.0971 1.2077 0
M  V30 29 H 2.089 0.0486 0.2979 0
M  V30 30 H -0.1571 1.045 3.8512 0
M  V30 31 H -1.6142 -0.5965 -3.2594 0
M  V30 32 H -2.3441 0.9319 -2.8236 0
M  V30 33 H 4.1242 0.9746 1.3346 0
M  V30 34 H 1.8943 1.9835 4.8684 0
M  V30 35 H 0.6004 0.1718 -2.6249 0
M  V30 36 H 4.0371 1.9411 3.617 0
M  V30 37 H -0.8848 2.5896 -3.9217 0
M  V30 38 H 0.9045 2.2671 -3.9782 0
M  V30 39 H -0.7966 2.6854 -1.4122 0
M  V30 40 H 0.9933 2.3723 -1.4603 0
M  V30 END ATOM
M  V30 BEGIN BOND
M  V30 1 1 1 2
M  V30 2 2 2 3
M  V30 3 1 2 4
M  V30 4 1 3 5
M  V30 5 2 4 6
M  V30 6 1 5 7
M  V30 7 2 5 8
M  V30 8 2 7 9
M  V30 9 1 7 10
M  V30 10 1 8 11
M  V30 11 1 9 12
M  V30 12 2 10 13
M  V30 13 1 10 14
M  V30 14 1 11 15
M  V30 15 1 11 16
M  V30 16 1 13 17
M  V30 17 2 14 18
M  V30 18 2 15 19
M  V30 19 1 16 20
M  V30 20 2 17 21
M  V30 21 1 20 22
M  V30 22 1 20 23
M  V30 23 1 6 8
M  V30 24 1 12 15
M  V30 25 1 18 21
M  V30 26 1 22 23
M  V30 27 1 3 24
M  V30 28 1 4 25
M  V30 29 1 6 26
M  V30 30 1 12 27
M  V30 31 1 12 28
M  V30 32 1 13 29
M  V30 33 1 14 30
M  V30 34 1 16 31
M  V30 35 1 16 32
M  V30 36 1 17 33
M  V30 37 1 18 34
M  V30 38 1 20 35
M  V30 39 1 21 36
M  V30 40 1 22 37
M  V30 41 1 22 38
M  V30 42 1 23 39
M  V30 43 1 23 40
M  V30 END BOND
M  V30 END CTAB
M  END
>  <Column 1>
2265

>  <level_0>
2446

>  <index>
2446

>  <Unnamed: 0>
2446

>  <NO.>
2458

>  <Name>
prazepam

>  <IUPAC_name>
7-chloro-1-(cyclopropylmethyl)-5-phenyl-3h-1-4-benzodiazepin-2-one

>  <SMILES>
O=C1CN=C(c2ccccc2)c2cc(Cl)ccc2N1CC1CC1

>  <CID>
4890

>  <logBB>


>  <BBB+/BBB->
BBB+

>  <Inchi>
InChI=1S/C19H17ClN2O/c20-15-8-9-17-16(10-15)19(14-4-2-1-3-5-14)21-11-18(23)22(17)12-13-6-7-13/h1-5-8-10-13H-6-7-11-12H2

>  <threshold>
-1

>  <reference>
R1|R13|R19|R6|R14|R23|R24|R27|R27|R27|R30|R30|

>  <group>
B

>  <Class>
1

>  <ABC>
18.4

>  <ABCGG>
14.73

>  <nAcid>
0

>  <nBase>
0

>  <nAromAtom>
12

>  <nAromBond>
12

>  <nAtom>
40

>  <nHeavyAtom>
23

>  <nSpiro>
0

>  <nBridgehead>
0

>  <nHetero>
4

>  <nN>
2

>  <nO>
1

>  <nF>
0

>  <BalabanJ>
1.55

>  <BertzCT>
781.21

>  <nBonds>
43

>  <nBondsO>
26

>  <nBondsS>
29

>  <nBondsD>
2

>  <nBondsT>
0

>  <nBondsA>
12

>  <nBondsM>
14

>  <nBondsKS>
35

>  <nBondsKD>
8

>  <RNCG>
0.21

>  <RPCG>
0.17

>  <FCSP3>
0.26

>  <SZ>
28.33

>  <Sm>
27.04

>  <Sv>
26.93

>  <Sse>
39.97

>  <Sp>
28.89

>  <Si>
44.47

>  <MZ>
0.71

>  <Mm>
0.68

>  <Mv>
0.67

>  <Mse>
1

>  <Mp>
0.72

>  <Mi>
1.11

>  <NsCH3>
0

>  <NdCH2>
0

>  <NssCH2>
4

>  <NtCH>
0

>  <NdsCH>
0

>  <NaaCH>
8

>  <NsssCH>
1

>  <NddC>
0

>  <NtsC>
0

>  <NdssC>
2

>  <NaasC>
4

>  <NaaaC>
0

>  <NssssC>
0

>  <NsNH3>
0

>  <NsNH2>
0

>  <NssNH2>
0

>  <NdNH>
0

>  <NssNH>
0

>  <NaaNH>
0

>  <NtN>
0

>  <NsssNH>
0

>  <NdsN>
1

>  <NaaN>
0

>  <NsssN>
1

>  <NddsN>
0

>  <NaasN>
0

>  <NssssN>
0

>  <NsOH>
0

>  <NdO>
1

>  <NssO>
0

>  <NaaO>
0

>  <NsF>
0

>  <NsSiH3>
0

>  <NssSiH2>
0

>  <NsssSiH>
0

>  <NssssSi>
0

>  <NsPH2>
0

>  <NssPH>
0

>  <NsssP>
0

>  <NdsssP>
0

>  <NsssssP>
0

>  <NsSH>
0

>  <NdS>
0

>  <NssS>
0

>  <NaaS>
0

>  <NdssS>
0

>  <NddssS>
0

>  <NsCl>
1

>  <NsBr>
0

>  <NsI>
0

>  <fragCpx>
170.04

>  <fMF>
0.53

>  <nHBAcc>
2

>  <nHBDon>
0

>  <Kier1>
16.47

>  <Kier2>
7.09

>  <Lipinski>
1

>  <GhoseFilter>
1

>  <FilterItLogS>
-5.39

>  <VMcGowan>
238.8

>  <LabuteASA>
140.15

>  <PEOE_VSA1>
4.9

>  <PEOE_VSA2>
9.79

>  <PEOE_VSA3>
0

>  <PEOE_VSA4>
0

>  <PEOE_VSA5>
0

>  <PEOE_VSA6>
41.93

>  <PEOE_VSA7>
36.96

>  <PEOE_VSA8>
22.69

>  <PEOE_VSA9>
11.4

>  <PEOE_VSA10>
6.54

>  <PEOE_VSA11>
0

>  <PEOE_VSA12>
5.91

>  <PEOE_VSA13>
0

>  <SMR_VSA1>
4.79

>  <SMR_VSA2>
0

>  <SMR_VSA3>
0

>  <SMR_VSA4>
10.91

>  <SMR_VSA5>
12.84

>  <SMR_VSA6>
17.99

>  <SMR_VSA7>
64.68

>  <SMR_VSA8>
0

>  <SMR_VSA9>
0

>  <SlogP_VSA1>
4.9

>  <SlogP_VSA2>
24.71

>  <SlogP_VSA3>
4.79

>  <SlogP_VSA4>
5.92

>  <SlogP_VSA5>
23.97

>  <SlogP_VSA6>
53.52

>  <SlogP_VSA7>
5.02

>  <SlogP_VSA8>
0

>  <SlogP_VSA9>
0

>  <SlogP_VSA10>
5.69

>  <SlogP_VSA11>
0

>  <EState_VSA1>
0

>  <EState_VSA2>
12.45

>  <EState_VSA3>
10.94

>  <EState_VSA4>
29.07

>  <EState_VSA5>
12.84

>  <EState_VSA6>
0

>  <EState_VSA7>
53.43

>  <EState_VSA8>
4.99

>  <EState_VSA9>
11.6

>  <EState_VSA10>
4.79

>  <VSA_EState1>
0

>  <VSA_EState2>
19.08

>  <VSA_EState3>
0.66

>  <VSA_EState4>
3.72

>  <VSA_EState5>
0.69

>  <VSA_EState6>
15.69

>  <VSA_EState7>
2.41

>  <VSA_EState8>
0.97

>  <VSA_EState9>
0

>  <apol>
48.25

>  <bpol>
21.28

>  <nRing>
4

>  <nHRing>
1

>  <naRing>
2

>  <naHRing>
0

>  <nARing 2>
2

>  <nAHRing 2>
1

>  <nFRing>
1

>  <nFHRing>
1

>  <nFaRing>
0

>  <nFaHRing>
0

>  <nFARing 2>
1

>  <nFAHRing 2>
1

>  <nRot>
3

>  <SLogP>
3.93

>  <SMR>
93.48

>  <TopoPSA(NO)>
32.67

>  <TopoPSA>
32.67

>  <JGI1>
0.15

>  <JGI2>
0.08

>  <JGI3>
0.04

>  <JGI4>
0.03

>  <JGI5>
0.02

>  <Diameter>
10

>  <Radius>
5

>  <TMWC10>
124.7

>  <TSRW10>
76.08

>  <MW>
324.1

>  <AMW>
8.1

>  <WPath>
1078

>  <WPol>
40

>  <Zagreb1>
126

>  <Zagreb2>
151

>  <mZagreb2>
4.97

>  <yes>


>  <nAR-cont>
1

>  <nHA-cont>
0.967789328

>  <MWHBN>
0.111093968

>  <MWHBN-cont>
0.788540257

>  <TPSA-cont>
0.771943113

>  <pka_cont>
0.97

>  <yes.1>


>  <BBB_SCORE>
5.17948594

>  <MMFF94 Energy>
123.3

$$$$
Compound 1857
Actelion Java MolfileCreator 2.0

  0  0  0  0  0  0              0 V3000
M  V30 BEGIN CTAB
M  V30 COUNTS 47 50 0 0 0
M  V30 BEGIN ATOM
M  V30 1 Cl -2.6665 -2.1813 -3.9613 0
M  V30 2 C -1.5216 -2.1937 -2.6786 0
M  V30 3 C -1.8953 -1.7525 -1.4133 0
M  V30 4 C -0.231 -2.6569 -2.9088 0
M  V30 5 C -0.9594 -1.7535 -0.3652 0
M  V30 6 C 0.6954 -2.6795 -1.8629 0
M  V30 7 C -1.4209 -1.3003 0.9791 0
M  V30 8 C 0.3484 -2.2228 -0.5813 0
M  V30 9 N -1.2207 -1.97 2.0677 0
M  V30 10 C -2.1714 -0.0085 1.0858 0
M  V30 11 N 1.3199 -2.2872 0.4544 0
M  V30 12 C -0.4074 -3.1886 1.9953 0
M  V30 13 C -3.1349 0.1414 2.0904 0
M  V30 14 C -1.8997 1.0617 0.2244 0
M  V30 15 C 1.037 -2.7762 1.7322 0
M  V30 16 C 2.6365 -1.6755 0.2342 0
M  V30 17 C -3.8389 1.3404 2.2141 0
M  V30 18 C -2.605 2.2601 0.3516 0
M  V30 19 O 1.8971 -2.854 2.6132 0
M  V30 20 C 2.6855 -0.2293 0.7422 0
M  V30 21 C -3.5761 2.397 1.3429 0
M  V30 22 O 2.0258 0.6306 -0.1949 0
M  V30 23 C 1.9751 1.9733 0.2833 0
M  V30 24 C 1.548 2.8534 -0.847 0
M  V30 25 C 1.8961 4.3196 -0.8506 0
M  V30 26 C 2.5617 3.3875 -1.826 0
M  V30 27 H -2.9168 -1.4209 -1.2415 0
M  V30 28 H 0.0596 -3.0137 -3.8937 0
M  V30 29 H 1.6866 -3.0805 -2.0605 0
M  V30 30 H -0.7698 -3.9049 1.2503 0
M  V30 31 H -0.4475 -3.6947 2.9658 0
M  V30 32 H -3.3388 -0.6744 2.7804 0
M  V30 33 H -1.1294 0.9844 -0.5375 0
M  V30 34 H 2.9079 -1.709 -0.825 0
M  V30 35 H 3.3811 -2.2659 0.7806 0
M  V30 36 H -4.5874 1.4505 2.9947 0
M  V30 37 H -2.391 3.09 -0.3171 0
M  V30 38 H 2.2143 -0.137 1.7275 0
M  V30 39 H 3.7328 0.0844 0.8176 0
M  V30 40 H -4.1226 3.3316 1.4436 0
M  V30 41 H 1.247 2.036 1.0993 0
M  V30 42 H 2.9579 2.2777 0.6631 0
M  V30 43 H 0.5804 2.5654 -1.2385 0
M  V30 44 H 2.4964 4.7167 -0.04 0
M  V30 45 H 1.1588 5.0148 -1.2362 0
M  V30 46 H 3.607 3.1459 -1.6713 0
M  V30 47 H 2.272 3.4472 -2.8689 0
M  V30 END ATOM
M  V30 BEGIN BOND
M  V30 1 1 1 2
M  V30 2 2 2 3
M  V30 3 1 2 4
M  V30 4 1 3 5
M  V30 5 2 4 6
M  V30 6 1 5 7
M  V30 7 2 5 8
M  V30 8 2 7 9
M  V30 9 1 7 10
M  V30 10 1 8 11
M  V30 11 1 9 12
M  V30 12 2 10 13
M  V30 13 1 10 14
M  V30 14 1 11 15
M  V30 15 1 11 16
M  V30 16 1 13 17
M  V30 17 2 14 18
M  V30 18 2 15 19
M  V30 19 1 16 20
M  V30 20 2 17 21
M  V30 21 1 20 22
M  V30 22 1 22 23
M  V30 23 1 23 24
M  V30 24 1 24 25
M  V30 25 1 24 26
M  V30 26 1 6 8
M  V30 27 1 12 15
M  V30 28 1 18 21
M  V30 29 1 25 26
M  V30 30 1 3 27
M  V30 31 1 4 28
M  V30 32 1 6 29
M  V30 33 1 12 30
M  V30 34 1 12 31
M  V30 35 1 13 32
M  V30 36 1 14 33
M  V30 37 1 16 34
M  V30 38 1 16 35
M  V30 39 1 17 36
M  V30 40 1 18 37
M  V30 41 1 20 38
M  V30 42 1 20 39
M  V30 43 1 21 40
M  V30 44 1 23 41
M  V30 45 1 23 42
M  V30 46 1 24 43
M  V30 47 1 25 44
M  V30 48 1 25 45
M  V30 49 1 26 46
M  V30 50 1 26 47
M  V30 END BOND
M  V30 END CTAB
M  END
>  <Column 1>
2266

>  <level_0>
2447

>  <index>
2447

>  <Unnamed: 0>
2447

>  <NO.>
2459

>  <Name>
iclazepam

>  <IUPAC_name>
7-chloro-1-[2-(cyclopropylmethoxy)ethyl]-5-phenyl-3h-1-4-benzodiazepin-2-one

>  <SMILES>
O=C1CN=C(c2ccccc2)c2cc(Cl)ccc2N1CCOCC1CC1

>  <CID>
68777

>  <logBB>


>  <BBB+/BBB->
BBB+

>  <Inchi>
InChI=1S/C21H21ClN2O2/c22-17-8-9-19-18(12-17)21(16-4-2-1-3-5-16)23-13-20(25)24(19)10-11-26-14-15-6-7-15/h1-5-8-9-12-15H-6-7-10-11-13-14H2

>  <threshold>
-1

>  <reference>
R1|R13|R19|R6|R24|R27|R27|R27|R30|R30|

>  <group>
B

>  <Class>
1

>  <ABC>
20.52

>  <ABCGG>
15.89

>  <nAcid>
0

>  <nBase>
0

>  <nAromAtom>
12

>  <nAromBond>
12

>  <nAtom>
47

>  <nHeavyAtom>
26

>  <nSpiro>
0

>  <nBridgehead>
0

>  <nHetero>
5

>  <nN>
2

>  <nO>
2

>  <nF>
0

>  <BalabanJ>
1.42

>  <BertzCT>
831.16

>  <nBonds>
50

>  <nBondsO>
29

>  <nBondsS>
36

>  <nBondsD>
2

>  <nBondsT>
0

>  <nBondsA>
12

>  <nBondsM>
14

>  <nBondsKS>
42

>  <nBondsKD>
8

>  <RNCG>
0.21

>  <RPCG>
0.14

>  <FCSP3>
0.33

>  <SZ>
32.33

>  <Sm>
30.71

>  <Sv>
30.73

>  <Sse>
47.08

>  <Sp>
32.97

>  <Si>
52.51

>  <MZ>
0.69

>  <Mm>
0.65

>  <Mv>
0.65

>  <Mse>
1

>  <Mp>
0.7

>  <Mi>
1.12

>  <NsCH3>
0

>  <NdCH2>
0

>  <NssCH2>
6

>  <NtCH>
0

>  <NdsCH>
0

>  <NaaCH>
8

>  <NsssCH>
1

>  <NddC>
0

>  <NtsC>
0

>  <NdssC>
2

>  <NaasC>
4

>  <NaaaC>
0

>  <NssssC>
0

>  <NsNH3>
0

>  <NsNH2>
0

>  <NssNH2>
0

>  <NdNH>
0

>  <NssNH>
0

>  <NaaNH>
0

>  <NtN>
0

>  <NsssNH>
0

>  <NdsN>
1

>  <NaaN>
0

>  <NsssN>
1

>  <NddsN>
0

>  <NaasN>
0

>  <NssssN>
0

>  <NsOH>
0

>  <NdO>
1

>  <NssO>
1

>  <NaaO>
0

>  <NsF>
0

>  <NsSiH3>
0

>  <NssSiH2>
0

>  <NsssSiH>
0

>  <NssssSi>
0

>  <NsPH2>
0

>  <NssPH>
0

>  <NsssP>
0

>  <NdsssP>
0

>  <NsssssP>
0

>  <NsSH>
0

>  <NdS>
0

>  <NssS>
0

>  <NaaS>
0

>  <NdssS>
0

>  <NddssS>
0

>  <NsCl>
1

>  <NsBr>
0

>  <NsI>
0

>  <fragCpx>
191.05

>  <fMF>
0.51

>  <nHBAcc>
3

>  <nHBDon>
0

>  <Kier1>
19.32

>  <Kier2>
9

>  <Lipinski>
1

>  <GhoseFilter>
1

>  <FilterItLogS>
-5.91

>  <VMcGowan>
272.85

>  <LabuteASA>
157.99

>  <PEOE_VSA1>
9.64

>  <PEOE_VSA2>
9.79

>  <PEOE_VSA3>
0

>  <PEOE_VSA4>
0

>  <PEOE_VSA5>
0

>  <PEOE_VSA6>
41.93

>  <PEOE_VSA7>
36.96

>  <PEOE_VSA8>
29.3

>  <PEOE_VSA9>
18.01

>  <PEOE_VSA10>
6.54

>  <PEOE_VSA11>
0

>  <PEOE_VSA12>
5.91

>  <PEOE_VSA13>
0

>  <SMR_VSA1>
9.53

>  <SMR_VSA2>
0

>  <SMR_VSA3>
0

>  <SMR_VSA4>
10.91

>  <SMR_VSA5>
12.84

>  <SMR_VSA6>
31.2

>  <SMR_VSA7>
64.68

>  <SMR_VSA8>
0

>  <SMR_VSA9>
0

>  <SlogP_VSA1>
4.9

>  <SlogP_VSA2>
37.92

>  <SlogP_VSA3>
9.53

>  <SlogP_VSA4>
5.92

>  <SlogP_VSA5>
23.97

>  <SlogP_VSA6>
53.52

>  <SlogP_VSA7>
5.02

>  <SlogP_VSA8>
0

>  <SlogP_VSA9>
0

>  <SlogP_VSA10>
5.69

>  <SlogP_VSA11>
0

>  <EState_VSA1>
0

>  <EState_VSA2>
12.45

>  <EState_VSA3>
24.09

>  <EState_VSA4>
29.13

>  <EState_VSA5>
12.84

>  <EState_VSA6>
4.9

>  <EState_VSA7>
48.53

>  <EState_VSA8>
4.99

>  <EState_VSA9>
16.34

>  <EState_VSA10>
4.79

>  <VSA_EState1>
5.74

>  <VSA_EState2>
19.08

>  <VSA_EState3>
0.63

>  <VSA_EState4>
3.51

>  <VSA_EState5>
0.7

>  <VSA_EState6>
15.52

>  <VSA_EState7>
2.52

>  <VSA_EState8>
1.98

>  <VSA_EState9>
0

>  <apol>
55.06

>  <bpol>
27.03

>  <nRing>
4

>  <nHRing>
1

>  <naRing>
2

>  <naHRing>
0

>  <nARing 2>
2

>  <nAHRing 2>
1

>  <nFRing>
1

>  <nFHRing>
1

>  <nFaRing>
0

>  <nFaHRing>
0

>  <nFARing 2>
1

>  <nFAHRing 2>
1

>  <nRot>
6

>  <SLogP>
3.95

>  <SMR>
104.3

>  <TopoPSA(NO)>
41.9

>  <TopoPSA>
41.9

>  <JGI1>
0.14

>  <JGI2>
0.08

>  <JGI3>
0.04

>  <JGI4>
0.03

>  <JGI5>
0.02

>  <Diameter>
13

>  <Radius>
7

>  <TMWC10>
130.99

>  <TSRW10>
79.39

>  <MW>
368.13

>  <AMW>
7.83

>  <WPath>
1655

>  <WPol>
43

>  <Zagreb1>
138

>  <Zagreb2>
163

>  <mZagreb2>
5.72

>  <yes>


>  <nAR-cont>
1

>  <nHA-cont>
0.892715677

>  <MWHBN>
0.156358195

>  <MWHBN-cont>
0.947944088

>  <TPSA-cont>
0.707511982

>  <pka_cont>
0.97

>  <yes.1>


>  <BBB_SCORE>
5.214655772

>  <MMFF94 Energy>
135.4

$$$$
Compound 1858
Actelion Java MolfileCreator 2.0

  0  0  0  0  0  0              0 V3000
M  V30 BEGIN CTAB
M  V30 COUNTS 30 32 0 0 0
M  V30 BEGIN ATOM
M  V30 1 Cl 3.0596 -1.6529 -0.7435 0
M  V30 2 C 2.3266 -1.3624 0.7922 0
M  V30 3 C 1.2719 -0.4586 0.9615 0
M  V30 4 C 2.7807 -2.1007 1.8882 0
M  V30 5 C 0.7573 0.3635 -0.1632 0
M  V30 6 C 0.68 -0.2865 2.2199 0
M  V30 7 C 2.1887 -1.9329 3.1429 0
M  V30 8 N 1.5135 1.3279 -0.5624 0
M  V30 9 C -0.597 0.0313 -0.6974 0
M  V30 10 C 1.1403 -1.0273 3.3086 0
M  V30 11 C 1.0715 2.1724 -1.6697 0
M  V30 12 C -1.5348 1.0279 -1.0194 0
M  V30 13 C -0.9571 -1.3214 -0.8172 0
M  V30 14 C -0.0961 3.0353 -1.2279 0
M  V30 15 N -1.2787 2.4036 -0.9437 0
M  V30 16 C -2.8287 0.6586 -1.4126 0
M  V30 17 C -2.2411 -1.6706 -1.2307 0
M  V30 18 O -0.0389 4.264 -1.1706 0
M  V30 19 C -3.1806 -0.6874 -1.5222 0
M  V30 20 Cl -2.6715 -3.3298 -1.37 0
M  V30 21 H 3.5964 -2.8104 1.7723 0
M  V30 22 H -0.1225 0.4337 2.3593 0
M  V30 23 H 2.55 -2.5069 3.9935 0
M  V30 24 H 0.689 -0.8918 4.2891 0
M  V30 25 H 1.8963 2.8338 -1.9557 0
M  V30 26 H 0.8075 1.5881 -2.5584 0
M  V30 27 H -0.2441 -2.1113 -0.5956 0
M  V30 28 H -2.0403 3.0418 -0.7486 0
M  V30 29 H -3.5717 1.4158 -1.6562 0
M  V30 30 H -4.1842 -0.9596 -1.8401 0
M  V30 END ATOM
M  V30 BEGIN BOND
M  V30 1 1 1 2
M  V30 2 2 2 3
M  V30 3 1 2 4
M  V30 4 1 3 5
M  V30 5 1 3 6
M  V30 6 2 4 7
M  V30 7 2 5 8
M  V30 8 1 5 9
M  V30 9 2 6 10
M  V30 10 1 8 11
M  V30 11 2 9 12
M  V30 12 1 9 13
M  V30 13 1 11 14
M  V30 14 1 12 15
M  V30 15 1 12 16
M  V30 16 2 13 17
M  V30 17 2 14 18
M  V30 18 2 16 19
M  V30 19 1 17 20
M  V30 20 1 7 10
M  V30 21 1 14 15
M  V30 22 1 17 19
M  V30 23 1 4 21
M  V30 24 1 6 22
M  V30 25 1 7 23
M  V30 26 1 10 24
M  V30 27 1 11 25
M  V30 28 1 11 26
M  V30 29 1 13 27
M  V30 30 1 15 28
M  V30 31 1 16 29
M  V30 32 1 19 30
M  V30 END BOND
M  V30 END CTAB
M  END
>  <Column 1>
2267

>  <level_0>
2448

>  <index>
2448

>  <Unnamed: 0>
2448

>  <NO.>
2460

>  <Name>
delorazepam

>  <IUPAC_name>
7-chloro-5-(2-chlorophenyl)-1-3-dihydro-1-4-benzodiazepin-2-one

>  <SMILES>
O=C1CN=C(c2ccccc2Cl)c2cc(Cl)ccc2N1

>  <CID>
17925

>  <logBB>


>  <BBB+/BBB->
BBB+

>  <Inchi>
InChI=1S/C15H10Cl2N2O/c16-9-5-6-13-11(7-9)15(18-8-14(20)19-13)10-3-1-2-4-12(10)17/h1-7H-8H2-(H-19-20)

>  <threshold>
-1

>  <reference>
R1|R13|R19|R6|R14|R23|R24|R27|R27|R27|R30|R30|

>  <group>
B

>  <Class>
1

>  <ABC>
15.72

>  <ABCGG>
12.95

>  <nAcid>
0

>  <nBase>
0

>  <nAromAtom>
12

>  <nAromBond>
12

>  <nAtom>
30

>  <nHeavyAtom>
20

>  <nSpiro>
0

>  <nBridgehead>
0

>  <nHetero>
5

>  <nN>
2

>  <nO>
1

>  <nF>
0

>  <BalabanJ>
1.78

>  <BertzCT>
725.56

>  <nBonds>
32

>  <nBondsO>
22

>  <nBondsS>
18

>  <nBondsD>
2

>  <nBondsT>
0

>  <nBondsA>
12

>  <nBondsM>
14

>  <nBondsKS>
24

>  <nBondsKD>
8

>  <RNCG>
0.24

>  <RPCG>
0.18

>  <FCSP3>
0.07

>  <SZ>
26

>  <Sm>
25.41

>  <Sv>
22.12

>  <Sse>
30.63

>  <Sp>
23.4

>  <Si>
33.17

>  <MZ>
0.87

>  <Mm>
0.85

>  <Mv>
0.74

>  <Mse>
1.02

>  <Mp>
0.78

>  <Mi>
1.11

>  <NsCH3>
0

>  <NdCH2>
0

>  <NssCH2>
1

>  <NtCH>
0

>  <NdsCH>
0

>  <NaaCH>
7

>  <NsssCH>
0

>  <NddC>
0

>  <NtsC>
0

>  <NdssC>
2

>  <NaasC>
5

>  <NaaaC>
0

>  <NssssC>
0

>  <NsNH3>
0

>  <NsNH2>
0

>  <NssNH2>
0

>  <NdNH>
0

>  <NssNH>
1

>  <NaaNH>
0

>  <NtN>
0

>  <NsssNH>
0

>  <NdsN>
1

>  <NaaN>
0

>  <NsssN>
0

>  <NddsN>
0

>  <NaasN>
0

>  <NssssN>
0

>  <NsOH>
0

>  <NdO>
1

>  <NssO>
0

>  <NaaO>
0

>  <NsF>
0

>  <NsSiH3>
0

>  <NssSiH2>
0

>  <NsssSiH>
0

>  <NssssSi>
0

>  <NsPH2>
0

>  <NssPH>
0

>  <NsssP>
0

>  <NdsssP>
0

>  <NsssssP>
0

>  <NsSH>
0

>  <NdS>
0

>  <NssS>
0

>  <NaaS>
0

>  <NdssS>
0

>  <NddssS>
0

>  <NsCl>
2

>  <NsBr>
0

>  <NsI>
0

>  <fragCpx>
104.05

>  <fMF>
0.57

>  <nHBAcc>
2

>  <nHBDon>
1

>  <Kier1>
14.92

>  <Kier2>
6.41

>  <Lipinski>
1

>  <GhoseFilter>
1

>  <FilterItLogS>
-5.88

>  <VMcGowan>
205.54

>  <LabuteASA>
125.79

>  <PEOE_VSA1>
5.32

>  <PEOE_VSA2>
9.79

>  <PEOE_VSA3>
0

>  <PEOE_VSA4>
0

>  <PEOE_VSA5>
0

>  <PEOE_VSA6>
41.4

>  <PEOE_VSA7>
24.27

>  <PEOE_VSA8>
21.17

>  <PEOE_VSA9>
11.4

>  <PEOE_VSA10>
6.54

>  <PEOE_VSA11>
0

>  <PEOE_VSA12>
5.91

>  <PEOE_VSA13>
0

>  <SMR_VSA1>
4.79

>  <SMR_VSA2>
0

>  <SMR_VSA3>
0

>  <SMR_VSA4>
4.99

>  <SMR_VSA5>
0

>  <SMR_VSA6>
11.86

>  <SMR_VSA7>
63.64

>  <SMR_VSA8>
0

>  <SMR_VSA9>
0

>  <SlogP_VSA1>
5.32

>  <SlogP_VSA2>
18.16

>  <SlogP_VSA3>
4.79

>  <SlogP_VSA4>
0

>  <SlogP_VSA5>
11.13

>  <SlogP_VSA6>
47.46

>  <SlogP_VSA7>
10.05

>  <SlogP_VSA8>
0

>  <SlogP_VSA9>
0

>  <SlogP_VSA10>
5.69

>  <SlogP_VSA11>
0

>  <EState_VSA1>
0

>  <EState_VSA2>
12.45

>  <EState_VSA3>
21.44

>  <EState_VSA4>
11.13

>  <EState_VSA5>
0

>  <EState_VSA6>
24.27

>  <EState_VSA7>
18.2

>  <EState_VSA8>
10.31

>  <EState_VSA9>
23.2

>  <EState_VSA10>
4.79

>  <VSA_EState1>
0

>  <VSA_EState2>
16.09

>  <VSA_EState3>
3.99

>  <VSA_EState4>
2.92

>  <VSA_EState5>
-0.16

>  <VSA_EState6>
12.69

>  <VSA_EState7>
0

>  <VSA_EState8>
0.06

>  <VSA_EState9>
0

>  <apol>
39.08

>  <bpol>
13.63

>  <nRing>
3

>  <nHRing>
1

>  <naRing>
2

>  <naHRing>
0

>  <nARing 2>
1

>  <nAHRing 2>
1

>  <nFRing>
1

>  <nFHRing>
1

>  <nFaRing>
0

>  <nFaHRing>
0

>  <nFARing 2>
1

>  <nFAHRing 2>
1

>  <nRot>
1

>  <SLogP>
3.78

>  <SMR>
82.04

>  <TopoPSA(NO)>
41.46

>  <TopoPSA>
41.46

>  <JGI1>
0.18

>  <JGI2>
0.08

>  <JGI3>
0.04

>  <JGI4>
0.04

>  <JGI5>
0.02

>  <Diameter>
8

>  <Radius>
4

>  <TMWC10>
115.7

>  <TSRW10>
61.76

>  <MW>
304.02

>  <AMW>
10.13

>  <WPath>
729

>  <WPol>
35

>  <Zagreb1>
106

>  <Zagreb2>
125

>  <mZagreb2>
4.36

>  <yes>


>  <nAR-cont>
0.816016

>  <nHA-cont>
0.999629945

>  <MWHBN>
0.172056141

>  <MWHBN-cont>
0.97707544

>  <TPSA-cont>
0.710583455

>  <pka_cont>
0.97

>  <yes.1>


>  <BBB_SCORE>
5.187426014

>  <MMFF94 Energy>
98.672

$$$$
Compound 1859
Actelion Java MolfileCreator 2.0

  0  0  0  0  0  0              0 V3000
M  V30 BEGIN CTAB
M  V30 COUNTS 32 34 0 0 0
M  V30 BEGIN ATOM
M  V30 1 Cl 0.4095 -2.7055 -0.4915 0
M  V30 2 C 1.0896 -1.9797 0.921 0
M  V30 3 C 1.3417 -0.6053 1.029 0
M  V30 4 C 1.4277 -2.8303 1.9793 0
M  V30 5 C 0.9965 0.3801 -0.0393 0
M  V30 6 C 1.9635 -0.1012 2.1818 0
M  V30 7 C 2.0251 -2.3189 3.1332 0
M  V30 8 N 1.9505 1.1523 -0.4379 0
M  V30 9 C -0.4104 0.4265 -0.5404 0
M  V30 10 C 2.2983 -0.9563 3.232 0
M  V30 11 C 1.6908 2.1453 -1.4789 0
M  V30 12 C -0.7078 0.5495 -1.909 0
M  V30 13 C -1.4539 0.2866 0.3907 0
M  V30 14 C 1.417 1.4522 -2.8024 0
M  V30 15 N 0.2608 0.7229 -2.9057 0
M  V30 16 C -2.0397 0.4711 -2.3391 0
M  V30 17 C -2.781 0.2309 -0.0542 0
M  V30 18 O 2.1505 1.5697 -3.7839 0
M  V30 19 C -3.0782 0.3147 -1.4181 0
M  V30 20 N -3.869 0.0734 0.9198 0 CHG=1
M  V30 21 O -3.5592 -0.0228 2.1152 0
M  V30 22 O -5.0293 0.0484 0.4875 0 CHG=-1
M  V30 23 H 1.2394 -3.8991 1.9076 0
M  V30 24 H 2.1902 0.9603 2.261 0
M  V30 25 H 2.2903 -2.987 3.9496 0
M  V30 26 H 2.7787 -0.5594 4.1236 0
M  V30 27 H 2.5849 2.7664 -1.5984 0
M  V30 28 H 0.8676 2.8184 -1.2145 0
M  V30 29 H -1.2313 0.2168 1.4538 0
M  V30 30 H 0.0928 0.3552 -3.8343 0
M  V30 31 H -2.2841 0.5485 -3.3973 0
M  V30 32 H -4.1042 0.2656 -1.7792 0
M  V30 END ATOM
M  V30 BEGIN BOND
M  V30 1 1 1 2
M  V30 2 2 2 3
M  V30 3 1 2 4
M  V30 4 1 3 5
M  V30 5 1 3 6
M  V30 6 2 4 7
M  V30 7 2 5 8
M  V30 8 1 5 9
M  V30 9 2 6 10
M  V30 10 1 8 11
M  V30 11 2 9 12
M  V30 12 1 9 13
M  V30 13 1 11 14
M  V30 14 1 12 15
M  V30 15 1 12 16
M  V30 16 2 13 17
M  V30 17 2 14 18
M  V30 18 2 16 19
M  V30 19 1 17 20
M  V30 20 2 20 21
M  V30 21 1 20 22
M  V30 22 1 7 10
M  V30 23 1 14 15
M  V30 24 1 17 19
M  V30 25 1 4 23
M  V30 26 1 6 24
M  V30 27 1 7 25
M  V30 28 1 10 26
M  V30 29 1 11 27
M  V30 30 1 11 28
M  V30 31 1 13 29
M  V30 32 1 15 30
M  V30 33 1 16 31
M  V30 34 1 19 32
M  V30 END BOND
M  V30 END CTAB
M  END
>  <Column 1>
2268

>  <level_0>
2449

>  <index>
2449

>  <Unnamed: 0>
2449

>  <NO.>
2461

>  <Name>
clonazepam

>  <IUPAC_name>
5-(2-chlorophenyl)-7-nitro-1-3-dihydro-1-4-benzodiazepin-2-one

>  <SMILES>
O=C1CN=C(c2ccccc2Cl)c2cc([N+](=O)[O-])ccc2N1

>  <CID>
2802

>  <logBB>


>  <BBB+/BBB->
BBB+

>  <Inchi>
InChI=1S/C15H10ClN3O3/c16-12-4-2-1-3-10(12)15-11-7-9(19(21)22)5-6-13(11)18-14(20)8-17-15/h1-7H-8H2-(H-18-20)

>  <threshold>
-1

>  <reference>
R1|R7|R13|R19|R6|R14|R15|R24|R26|R27|R27|R27|R27|R29|R30|R30|R34|R36|R37|

>  <group>
B

>  <Class>
1

>  <ABC>
17.21

>  <ABCGG>
14.15

>  <nAcid>
0

>  <nBase>
0

>  <nAromAtom>
12

>  <nAromBond>
12

>  <nAtom>
32

>  <nHeavyAtom>
22

>  <nSpiro>
0

>  <nBridgehead>
0

>  <nHetero>
7

>  <nN>
3

>  <nO>
3

>  <nF>
0

>  <BalabanJ>
1.79

>  <BertzCT>
817.43

>  <nBonds>
34

>  <nBondsO>
24

>  <nBondsS>
19

>  <nBondsD>
3

>  <nBondsT>
0

>  <nBondsA>
12

>  <nBondsM>
15

>  <nBondsKS>
25

>  <nBondsKD>
9

>  <RNCG>
0.19

>  <RPCG>
0.16

>  <FCSP3>
0.07

>  <SZ>
27

>  <Sm>
26.29

>  <Sv>
23.22

>  <Sse>
33.19

>  <Sp>
23.71

>  <Si>
35.73

>  <MZ>
0.84

>  <Mm>
0.82

>  <Mv>
0.73

>  <Mse>
1.04

>  <Mp>
0.74

>  <Mi>
1.12

>  <NsCH3>
0

>  <NdCH2>
0

>  <NssCH2>
1

>  <NtCH>
0

>  <NdsCH>
0

>  <NaaCH>
7

>  <NsssCH>
0

>  <NddC>
0

>  <NtsC>
0

>  <NdssC>
2

>  <NaasC>
5

>  <NaaaC>
0

>  <NssssC>
0

>  <NsNH3>
0

>  <NsNH2>
0

>  <NssNH2>
0

>  <NdNH>
0

>  <NssNH>
1

>  <NaaNH>
0

>  <NtN>
0

>  <NsssNH>
0

>  <NdsN>
1

>  <NaaN>
0

>  <NsssN>
0

>  <NddsN>
1

>  <NaasN>
0

>  <NssssN>
0

>  <NsOH>
0

>  <NdO>
2

>  <NssO>
0

>  <NaaO>
0

>  <NsF>
0

>  <NsSiH3>
0

>  <NssSiH2>
0

>  <NsssSiH>
0

>  <NssssSi>
0

>  <NsPH2>
0

>  <NssPH>
0

>  <NsssP>
0

>  <NdsssP>
0

>  <NsssssP>
0

>  <NsSH>
0

>  <NdS>
0

>  <NssS>
0

>  <NaaS>
0

>  <NdssS>
0

>  <NddssS>
0

>  <NsCl>
1

>  <NsBr>
0

>  <NsI>
0

>  <fragCpx>
114.07

>  <fMF>
0.53

>  <nHBAcc>
4

>  <nHBDon>
1

>  <Kier1>
16.84

>  <Kier2>
7.27

>  <Lipinski>
1

>  <GhoseFilter>
1

>  <FilterItLogS>
-5.26

>  <VMcGowan>
210.72

>  <LabuteASA>
130.14

>  <PEOE_VSA1>
5.32

>  <PEOE_VSA2>
19.9

>  <PEOE_VSA3>
0

>  <PEOE_VSA4>
0

>  <PEOE_VSA5>
0

>  <PEOE_VSA6>
29.8

>  <PEOE_VSA7>
12.13

>  <PEOE_VSA8>
28.28

>  <PEOE_VSA9>
16.32

>  <PEOE_VSA10>
6.54

>  <PEOE_VSA11>
0

>  <PEOE_VSA12>
5.91

>  <PEOE_VSA13>
5.69

>  <SMR_VSA1>
9.72

>  <SMR_VSA2>
0

>  <SMR_VSA3>
0

>  <SMR_VSA4>
4.99

>  <SMR_VSA5>
0

>  <SMR_VSA6>
11.86

>  <SMR_VSA7>
68.73

>  <SMR_VSA8>
0

>  <SMR_VSA9>
0

>  <SlogP_VSA1>
5.32

>  <SlogP_VSA2>
23.09

>  <SlogP_VSA3>
4.79

>  <SlogP_VSA4>
10.11

>  <SlogP_VSA5>
11.13

>  <SlogP_VSA6>
47.46

>  <SlogP_VSA7>
5.02

>  <SlogP_VSA8>
0

>  <SlogP_VSA9>
0

>  <SlogP_VSA10>
11.37

>  <SlogP_VSA11>
0

>  <EState_VSA1>
4.92

>  <EState_VSA2>
18.14

>  <EState_VSA3>
27.55

>  <EState_VSA4>
0

>  <EState_VSA5>
18.2

>  <EState_VSA6>
24.27

>  <EState_VSA7>
0

>  <EState_VSA8>
10.31

>  <EState_VSA9>
11.6

>  <EState_VSA10>
14.91

>  <VSA_EState1>
0

>  <VSA_EState2>
26.53

>  <VSA_EState3>
14.15

>  <VSA_EState4>
1.97

>  <VSA_EState5>
-0.28

>  <VSA_EState6>
11.28

>  <VSA_EState7>
0

>  <VSA_EState8>
-0.07

>  <VSA_EState9>
0

>  <apol>
39.6

>  <bpol>
14.29

>  <nRing>
3

>  <nHRing>
1

>  <naRing>
2

>  <naHRing>
0

>  <nARing 2>
1

>  <nAHRing 2>
1

>  <nFRing>
1

>  <nFHRing>
1

>  <nFaRing>
0

>  <nFaHRing>
0

>  <nFARing 2>
1

>  <nFAHRing 2>
1

>  <nRot>
2

>  <SLogP>
3.04

>  <SMR>
83.68

>  <TopoPSA(NO)>
84.6

>  <TopoPSA>
84.6

>  <JGI1>
0.19

>  <JGI2>
0.08

>  <JGI3>
0.04

>  <JGI4>
0.04

>  <JGI5>
0.03

>  <Diameter>
9

>  <Radius>
5

>  <TMWC10>
120.57

>  <TSRW10>
64.22

>  <MW>
315.04

>  <AMW>
9.85

>  <WPath>
959

>  <WPol>
39

>  <Zagreb1>
116

>  <Zagreb2>
137

>  <mZagreb2>
4.81

>  <yes>


>  <nAR-cont>
0.816016

>  <nHA-cont>
0.983774276

>  <MWHBN>
0.2817002

>  <MWHBN-cont>
0.891741364

>  <TPSA-cont>
0.409439467

>  <pka_cont>
0.97

>  <yes.1>


>  <BBB_SCORE>
4.441281255

>  <MMFF94 Energy>
129.24

$$$$
Compound 1860
Actelion Java MolfileCreator 2.0

  0  0  0  0  0  0              0 V3000
M  V30 BEGIN CTAB
M  V30 COUNTS 41 43 0 0 0
M  V30 BEGIN ATOM
M  V30 1 Cl 3.9793 -3.2475 -0.9734 0
M  V30 2 C 2.793 -2.3845 -0.0761 0
M  V30 3 C 2.3764 -1.1294 -0.5079 0
M  V30 4 C 2.2669 -2.9382 1.0853 0
M  V30 5 C 1.4062 -0.4229 0.2227 0
M  V30 6 C 1.3089 -2.2331 1.8192 0
M  V30 7 C 1.0234 0.9332 -0.2638 0
M  V30 8 C 0.8545 -0.9739 1.3944 0
M  V30 9 N 0.9199 1.9752 0.4931 0
M  V30 10 C 0.7314 1.0954 -1.7116 0
M  V30 11 N -0.1299 -0.2983 2.1726 0
M  V30 12 C 1.1553 1.8127 1.9318 0
M  V30 13 C 1.3347 2.1192 -2.4421 0
M  V30 14 C -0.1672 0.2263 -2.3434 0
M  V30 15 C -0.028 1.0519 2.5154 0
M  V30 16 C -1.366 -1.0125 2.5277 0
M  V30 17 F 2.2301 2.9411 -1.8762 0
M  V30 18 C 1.0523 2.2794 -3.7966 0
M  V30 19 C -0.4508 0.3882 -3.7014 0
M  V30 20 O -0.8697 1.6169 3.2188 0
M  V30 21 C -2.4546 -0.9656 1.4409 0 CFG=2
M  V30 22 C 0.1578 1.4138 -4.4272 0
M  V30 23 O -2.0404 -1.6927 0.2712 0
M  V30 24 C -2.8722 0.444 1.0169 0
M  V30 25 O -3.9005 0.3178 0.0249 0
M  V30 26 H 2.8222 -0.6983 -1.4009 0
M  V30 27 H 2.6003 -3.9132 1.432 0
M  V30 28 H 0.9378 -2.6791 2.7387 0
M  V30 29 H 2.1078 1.3229 2.1608 0
M  V30 30 H 1.1899 2.804 2.3965 0
M  V30 31 H -0.66 -0.5666 -1.7861 0
M  V30 32 H -1.1353 -2.0575 2.7558 0
M  V30 33 H -1.7723 -0.5788 3.4492 0
M  V30 34 H 1.5355 3.0778 -4.3515 0
M  V30 35 H -1.1517 -0.283 -4.1929 0
M  V30 36 H -3.3379 -1.496 1.8173 0
M  V30 37 H -0.0652 1.5391 -5.4842 0
M  V30 38 H -2.7459 -1.504 -0.3818 0
M  V30 39 H -2.0477 0.9849 0.5458 0
M  V30 40 H -3.266 1.0163 1.8616 0
M  V30 41 H -4.1558 1.228 -0.2133 0
M  V30 END ATOM
M  V30 BEGIN BOND
M  V30 1 1 1 2
M  V30 2 2 2 3
M  V30 3 1 2 4
M  V30 4 1 3 5
M  V30 5 2 4 6
M  V30 6 1 5 7
M  V30 7 2 5 8
M  V30 8 2 7 9
M  V30 9 1 7 10
M  V30 10 1 8 11
M  V30 11 1 9 12
M  V30 12 2 10 13
M  V30 13 1 10 14
M  V30 14 1 11 15
M  V30 15 1 11 16
M  V30 16 1 13 17
M  V30 17 1 13 18
M  V30 18 2 14 19
M  V30 19 2 15 20
M  V30 20 1 16 21
M  V30 21 2 18 22
M  V30 22 1 21 23
M  V30 23 1 21 24
M  V30 24 1 24 25
M  V30 25 1 6 8
M  V30 26 1 12 15
M  V30 27 1 19 22
M  V30 28 1 3 26
M  V30 29 1 4 27
M  V30 30 1 6 28
M  V30 31 1 12 29
M  V30 32 1 12 30
M  V30 33 1 14 31
M  V30 34 1 16 32
M  V30 35 1 16 33
M  V30 36 1 18 34
M  V30 37 1 19 35
M  V30 38 1 21 36
M  V30 39 1 22 37
M  V30 40 1 23 38
M  V30 41 1 24 39
M  V30 42 1 24 40
M  V30 43 1 25 41
M  V30 END BOND
M  V30 BEGIN COLLECTION
M  V30 MDLV30/STERAC1 ATOMS=(1 21)
M  V30 END COLLECTION
M  V30 END CTAB
M  END
>  <Column 1>
2269

>  <level_0>
2450

>  <index>
2450

>  <Unnamed: 0>
2450

>  <NO.>
2462

>  <Name>
proflazepam

>  <IUPAC_name>
7-chloro-1-(2-3-dihydroxypropyl)-5-(2-fluorophenyl)-3h-1-4-benzodiazepin-2-one

>  <SMILES>
O=C1CN=C(c2ccccc2F)c2cc(Cl)ccc2N1CC(O)CO

>  <CID>
3050433

>  <logBB>


>  <BBB+/BBB->
BBB+

>  <Inchi>
InChI=1S/C18H16ClFN2O3/c19-11-5-6-16-14(7-11)18(13-3-1-2-4-15(13)20)21-8-17(25)22(16)9-12(24)10-23/h1-7-12-23-24H-8-10H2

>  <threshold>
-1

>  <reference>
R1|R19|R6|R27|R27|R30|

>  <group>
B

>  <Class>
1

>  <ABC>
19.29

>  <ABCGG>
16.02

>  <nAcid>
0

>  <nBase>
0

>  <nAromAtom>
12

>  <nAromBond>
12

>  <nAtom>
41

>  <nHeavyAtom>
25

>  <nSpiro>
0

>  <nBridgehead>
0

>  <nHetero>
7

>  <nN>
2

>  <nO>
3

>  <nF>
1

>  <BalabanJ>
1.83

>  <BertzCT>
840.82

>  <nBonds>
43

>  <nBondsO>
27

>  <nBondsS>
29

>  <nBondsD>
2

>  <nBondsT>
0

>  <nBondsA>
12

>  <nBondsM>
14

>  <nBondsKS>
35

>  <nBondsKD>
8

>  <RNCG>
0.18

>  <RPCG>
0.11

>  <FCSP3>
0.22

>  <SZ>
31.33

>  <Sm>
30.2

>  <Sv>
27.73

>  <Sse>
42.14

>  <Sp>
28.79

>  <Si>
46.23

>  <MZ>
0.76

>  <Mm>
0.74

>  <Mv>
0.68

>  <Mse>
1.03

>  <Mp>
0.7

>  <Mi>
1.13

>  <NsCH3>
0

>  <NdCH2>
0

>  <NssCH2>
3

>  <NtCH>
0

>  <NdsCH>
0

>  <NaaCH>
7

>  <NsssCH>
1

>  <NddC>
0

>  <NtsC>
0

>  <NdssC>
2

>  <NaasC>
5

>  <NaaaC>
0

>  <NssssC>
0

>  <NsNH3>
0

>  <NsNH2>
0

>  <NssNH2>
0

>  <NdNH>
0

>  <NssNH>
0

>  <NaaNH>
0

>  <NtN>
0

>  <NsssNH>
0

>  <NdsN>
1

>  <NaaN>
0

>  <NsssN>
1

>  <NddsN>
0

>  <NaasN>
0

>  <NssssN>
0

>  <NsOH>
2

>  <NdO>
1

>  <NssO>
0

>  <NaaO>
0

>  <NsF>
1

>  <NsSiH3>
0

>  <NssSiH2>
0

>  <NsssSiH>
0

>  <NssssSi>
0

>  <NsPH2>
0

>  <NssPH>
0

>  <NsssP>
0

>  <NdsssP>
0

>  <NsssssP>
0

>  <NsSH>
0

>  <NdS>
0

>  <NssS>
0

>  <NaaS>
0

>  <NdssS>
0

>  <NddssS>
0

>  <NsCl>
1

>  <NsBr>
0

>  <NsI>
0

>  <fragCpx>
129.07

>  <fMF>
0.41

>  <nHBAcc>
4

>  <nHBDon>
2

>  <Kier1>
19.75

>  <Kier2>
8.79

>  <Lipinski>
1

>  <GhoseFilter>
1

>  <FilterItLogS>
-4.5

>  <VMcGowan>
249.07

>  <LabuteASA>
148.55

>  <PEOE_VSA1>
15.11

>  <PEOE_VSA2>
9.79

>  <PEOE_VSA3>
4.39

>  <PEOE_VSA4>
0

>  <PEOE_VSA5>
0

>  <PEOE_VSA6>
23.73

>  <PEOE_VSA7>
30.33

>  <PEOE_VSA8>
16.15

>  <PEOE_VSA9>
30.65

>  <PEOE_VSA10>
12.36

>  <PEOE_VSA11>
0

>  <PEOE_VSA12>
5.91

>  <PEOE_VSA13>
0

>  <SMR_VSA1>
19.4

>  <SMR_VSA2>
0

>  <SMR_VSA3>
0

>  <SMR_VSA4>
4.99

>  <SMR_VSA5>
6.1

>  <SMR_VSA6>
24.6

>  <SMR_VSA7>
64.43

>  <SMR_VSA8>
0

>  <SMR_VSA9>
0

>  <SlogP_VSA1>
4.9

>  <SlogP_VSA2>
47.63

>  <SlogP_VSA3>
4.79

>  <SlogP_VSA4>
5.82

>  <SlogP_VSA5>
11.13

>  <SlogP_VSA6>
47.46

>  <SlogP_VSA7>
5.02

>  <SlogP_VSA8>
0

>  <SlogP_VSA9>
0

>  <SlogP_VSA10>
10.08

>  <SlogP_VSA11>
0

>  <EState_VSA1>
18.53

>  <EState_VSA2>
24.56

>  <EState_VSA3>
21.99

>  <EState_VSA4>
0

>  <EState_VSA5>
10.97

>  <EState_VSA6>
36.4

>  <EState_VSA7>
0

>  <EState_VSA8>
4.99

>  <EState_VSA9>
16.71

>  <EState_VSA10>
14.29

>  <VSA_EState1>
14.27

>  <VSA_EState2>
18.1

>  <VSA_EState3>
19.27

>  <VSA_EState4>
1.54

>  <VSA_EState5>
-0.81

>  <VSA_EState6>
11.01

>  <VSA_EState7>
-1.09

>  <VSA_EState8>
-0.77

>  <VSA_EState9>
0

>  <apol>
48.07

>  <bpol>
21.39

>  <nRing>
3

>  <nHRing>
1

>  <naRing>
2

>  <naHRing>
0

>  <nARing 2>
1

>  <nAHRing 2>
1

>  <nFRing>
1

>  <nFHRing>
1

>  <nFaRing>
0

>  <nFaHRing>
0

>  <nFARing 2>
1

>  <nFAHRing 2>
1

>  <nRot>
4

>  <SLogP>
2.02

>  <SMR>
93.8

>  <TopoPSA(NO)>
73.13

>  <TopoPSA>
73.13

>  <JGI1>
0.19

>  <JGI2>
0.09

>  <JGI3>
0.05

>  <JGI4>
0.04

>  <JGI5>
0.02

>  <Diameter>
11

>  <Radius>
6

>  <TMWC10>
127.81

>  <TSRW10>
67.89

>  <MW>
362.08

>  <AMW>
8.83

>  <WPath>
1357

>  <WPol>
45

>  <Zagreb1>
130

>  <Zagreb2>
154

>  <mZagreb2>
5.58

>  <yes>


>  <nAR-cont>
0.816016

>  <nHA-cont>
0.921834225

>  <MWHBN>
0.315318159

>  <MWHBN-cont>
0.792690365

>  <TPSA-cont>
0.489507189

>  <pka_cont>
0.97

>  <yes.1>


>  <BBB_SCORE>
4.390900151

>  <MMFF94 Energy>
134.7

$$$$
Compound 1861
Actelion Java MolfileCreator 2.0

  0  0  0  0  0  0              0 V3000
M  V30 BEGIN CTAB
M  V30 COUNTS 40 43 0 0 0
M  V30 BEGIN ATOM
M  V30 1 Cl 2.6094 -2.936 -2.8543 0
M  V30 2 C 1.5889 -2.1931 -1.687 0
M  V30 3 C 1.9102 -0.936 -1.1855 0
M  V30 4 C 0.4524 -2.8559 -1.2405 0
M  V30 5 C 1.077 -0.3239 -0.2323 0
M  V30 6 C -0.3731 -2.2534 -0.2871 0
M  V30 7 C 1.4894 1.0114 0.286 0
M  V30 8 C -0.0828 -0.9789 0.2255 0
M  V30 9 N 1.4693 1.3529 1.5301 0
M  V30 10 C 1.9488 2.0242 -0.6958 0
M  V30 11 N -0.9686 -0.4044 1.1825 0
M  V30 12 C 0.9795 0.3797 2.5099 0
M  V30 13 C 3.2122 2.6005 -0.5692 0
M  V30 14 C 1.1051 2.4079 -1.7451 0
M  V30 15 C -0.5275 0.2444 2.3402 0
M  V30 16 C -2.4071 -0.4092 0.9143 0
M  V30 17 F 4.0533 2.217 0.4017 0
M  V30 18 C 3.6442 3.555 -1.4863 0
M  V30 19 C 1.5389 3.3664 -2.6639 0
M  V30 20 O -1.3052 0.6868 3.1896 0
M  V30 21 C -3.1236 -1.4906 1.676 0
M  V30 22 C 2.8064 3.9392 -2.5346 0
M  V30 23 C -4.6299 -1.569 1.5903 0
M  V30 24 C -3.792 -2.649 0.973 0
M  V30 25 H 2.8208 -0.4471 -1.524 0
M  V30 26 H 0.2056 -3.8451 -1.6188 0
M  V30 27 H -1.2355 -2.8111 0.0649 0
M  V30 28 H 1.4829 -0.5906 2.4397 0
M  V30 29 H 1.1785 0.7658 3.5156 0
M  V30 30 H 0.1094 1.9832 -1.8422 0
M  V30 31 H -2.5834 -0.4883 -0.1655 0
M  V30 32 H -2.8145 0.5614 1.224 0
M  V30 33 H 4.6325 3.9914 -1.3779 0
M  V30 34 H 0.8854 3.6749 -3.4772 0
M  V30 35 H -2.7021 -1.6531 2.6628 0
M  V30 36 H 3.1405 4.6881 -3.2492 0
M  V30 37 H -5.1511 -0.8862 0.9286 0
M  V30 38 H -5.1741 -1.8007 2.4997 0
M  V30 39 H -3.7636 -2.7005 -0.1091 0
M  V30 40 H -3.7721 -3.6161 1.4634 0
M  V30 END ATOM
M  V30 BEGIN BOND
M  V30 1 1 1 2
M  V30 2 2 2 3
M  V30 3 1 2 4
M  V30 4 1 3 5
M  V30 5 2 4 6
M  V30 6 1 5 7
M  V30 7 2 5 8
M  V30 8 2 7 9
M  V30 9 1 7 10
M  V30 10 1 8 11
M  V30 11 1 9 12
M  V30 12 2 10 13
M  V30 13 1 10 14
M  V30 14 1 11 15
M  V30 15 1 11 16
M  V30 16 1 13 17
M  V30 17 1 13 18
M  V30 18 2 14 19
M  V30 19 2 15 20
M  V30 20 1 16 21
M  V30 21 2 18 22
M  V30 22 1 21 23
M  V30 23 1 21 24
M  V30 24 1 6 8
M  V30 25 1 12 15
M  V30 26 1 19 22
M  V30 27 1 23 24
M  V30 28 1 3 25
M  V30 29 1 4 26
M  V30 30 1 6 27
M  V30 31 1 12 28
M  V30 32 1 12 29
M  V30 33 1 14 30
M  V30 34 1 16 31
M  V30 35 1 16 32
M  V30 36 1 18 33
M  V30 37 1 19 34
M  V30 38 1 21 35
M  V30 39 1 22 36
M  V30 40 1 23 37
M  V30 41 1 23 38
M  V30 42 1 24 39
M  V30 43 1 24 40
M  V30 END BOND
M  V30 END CTAB
M  END
>  <Column 1>
2270

>  <level_0>
2451

>  <index>
2451

>  <Unnamed: 0>
2451

>  <NO.>
2463

>  <Name>
flutoprazepam

>  <IUPAC_name>
7-chloro-1-(cyclopropylmethyl)-5-(2-fluorophenyl)-3h-1-4-benzodiazepin-2-one

>  <SMILES>
O=C1CN=C(c2ccccc2F)c2cc(Cl)ccc2N1CC1CC1

>  <CID>
3400

>  <logBB>


>  <BBB+/BBB->
BBB+

>  <Inchi>
InChI=1S/C19H16ClFN2O/c20-13-7-8-17-15(9-13)19(14-3-1-2-4-16(14)21)22-10-18(24)23(17)11-12-5-6-12/h1-4-7-9-12H-5-6-10-11H2

>  <threshold>
-1

>  <reference>
R1|R13|R19|R6|R14|R23|R24|R27|R27|R27|R30|R30|

>  <group>
B

>  <Class>
1

>  <ABC>
19.18

>  <ABCGG>
15.5

>  <nAcid>
0

>  <nBase>
0

>  <nAromAtom>
12

>  <nAromBond>
12

>  <nAtom>
40

>  <nHeavyAtom>
24

>  <nSpiro>
0

>  <nBridgehead>
0

>  <nHetero>
5

>  <nN>
2

>  <nO>
1

>  <nF>
1

>  <BalabanJ>
1.57

>  <BertzCT>
845.01

>  <nBonds>
43

>  <nBondsO>
27

>  <nBondsS>
29

>  <nBondsD>
2

>  <nBondsT>
0

>  <nBondsA>
12

>  <nBondsM>
14

>  <nBondsKS>
35

>  <nBondsKD>
8

>  <RNCG>
0.2

>  <RPCG>
0.16

>  <FCSP3>
0.26

>  <SZ>
29.67

>  <Sm>
28.54

>  <Sv>
27.3

>  <Sse>
40.48

>  <Sp>
28.82

>  <Si>
44.81

>  <MZ>
0.74

>  <Mm>
0.71

>  <Mv>
0.68

>  <Mse>
1.01

>  <Mp>
0.72

>  <Mi>
1.12

>  <NsCH3>
0

>  <NdCH2>
0

>  <NssCH2>
4

>  <NtCH>
0

>  <NdsCH>
0

>  <NaaCH>
7

>  <NsssCH>
1

>  <NddC>
0

>  <NtsC>
0

>  <NdssC>
2

>  <NaasC>
5

>  <NaaaC>
0

>  <NssssC>
0

>  <NsNH3>
0

>  <NsNH2>
0

>  <NssNH2>
0

>  <NdNH>
0

>  <NssNH>
0

>  <NaaNH>
0

>  <NtN>
0

>  <NsssNH>
0

>  <NdsN>
1

>  <NaaN>
0

>  <NsssN>
1

>  <NddsN>
0

>  <NaasN>
0

>  <NssssN>
0

>  <NsOH>
0

>  <NdO>
1

>  <NssO>
0

>  <NaaO>
0

>  <NsF>
1

>  <NsSiH3>
0

>  <NssSiH2>
0

>  <NsssSiH>
0

>  <NssssSi>
0

>  <NsPH2>
0

>  <NssPH>
0

>  <NsssP>
0

>  <NdsssP>
0

>  <NsssssP>
0

>  <NsSH>
0

>  <NdS>
0

>  <NssS>
0

>  <NaaS>
0

>  <NdssS>
0

>  <NddssS>
0

>  <NsCl>
1

>  <NsBr>
0

>  <NsI>
0

>  <fragCpx>
177.05

>  <fMF>
0.53

>  <nHBAcc>
2

>  <nHBDon>
0

>  <Kier1>
17.42

>  <Kier2>
7.32

>  <Lipinski>
1

>  <GhoseFilter>
1

>  <FilterItLogS>
-5.81

>  <VMcGowan>
240.56

>  <LabuteASA>
144.32

>  <PEOE_VSA1>
4.9

>  <PEOE_VSA2>
9.79

>  <PEOE_VSA3>
4.39

>  <PEOE_VSA4>
0

>  <PEOE_VSA5>
0

>  <PEOE_VSA6>
23.73

>  <PEOE_VSA7>
49.09

>  <PEOE_VSA8>
22.69

>  <PEOE_VSA9>
11.4

>  <PEOE_VSA10>
12.36

>  <PEOE_VSA11>
0

>  <PEOE_VSA12>
5.91

>  <PEOE_VSA13>
0

>  <SMR_VSA1>
9.18

>  <SMR_VSA2>
0

>  <SMR_VSA3>
0

>  <SMR_VSA4>
10.91

>  <SMR_VSA5>
12.84

>  <SMR_VSA6>
17.99

>  <SMR_VSA7>
64.43

>  <SMR_VSA8>
0

>  <SMR_VSA9>
0

>  <SlogP_VSA1>
4.9

>  <SlogP_VSA2>
24.71

>  <SlogP_VSA3>
4.79

>  <SlogP_VSA4>
11.74

>  <SlogP_VSA5>
23.97

>  <SlogP_VSA6>
47.46

>  <SlogP_VSA7>
5.02

>  <SlogP_VSA8>
0

>  <SlogP_VSA9>
0

>  <SlogP_VSA10>
10.08

>  <SlogP_VSA11>
0

>  <EState_VSA1>
0

>  <EState_VSA2>
18.27

>  <EState_VSA3>
34.32

>  <EState_VSA4>
18.53

>  <EState_VSA5>
6.07

>  <EState_VSA6>
35.23

>  <EState_VSA7>
6.07

>  <EState_VSA8>
4.99

>  <EState_VSA9>
11.6

>  <EState_VSA10>
9.18

>  <VSA_EState1>
14.3

>  <VSA_EState2>
18.78

>  <VSA_EState3>
0.54

>  <VSA_EState4>
2.34

>  <VSA_EState5>
0.13

>  <VSA_EState6>
11.84

>  <VSA_EState7>
2.29

>  <VSA_EState8>
0.7

>  <VSA_EState9>
0

>  <apol>
48.14

>  <bpol>
21.39

>  <nRing>
4

>  <nHRing>
1

>  <naRing>
2

>  <naHRing>
0

>  <nARing 2>
2

>  <nAHRing 2>
1

>  <nFRing>
1

>  <nFHRing>
1

>  <nFaRing>
0

>  <nFaHRing>
0

>  <nFARing 2>
1

>  <nFAHRing 2>
1

>  <nRot>
3

>  <SLogP>
4.07

>  <SMR>
93.44

>  <TopoPSA(NO)>
32.67

>  <TopoPSA>
32.67

>  <JGI1>
0.17

>  <JGI2>
0.09

>  <JGI3>
0.04

>  <JGI4>
0.04

>  <JGI5>
0.02

>  <Diameter>
10

>  <Radius>
5

>  <TMWC10>
127.29

>  <TSRW10>
77.37

>  <MW>
342.09

>  <AMW>
8.55

>  <WPath>
1197

>  <WPol>
43

>  <Zagreb1>
132

>  <Zagreb2>
159

>  <mZagreb2>
5.17

>  <yes>


>  <nAR-cont>
1

>  <nHA-cont>
0.94700071

>  <MWHBN>
0.108133387

>  <MWHBN-cont>
0.773875031

>  <TPSA-cont>
0.771943113

>  <pka_cont>
0.97

>  <yes.1>


>  <BBB_SCORE>
5.136699483

>  <MMFF94 Energy>
126.74

$$$$
Compound 1862
Actelion Java MolfileCreator 2.0

  0  0  0  0  0  0              0 V3000
M  V30 BEGIN CTAB
M  V30 COUNTS 29 31 0 0 0
M  V30 BEGIN ATOM
M  V30 1 Br -2.707 3.6106 1.3938 0
M  V30 2 C -1.2303 2.8371 0.5028 0
M  V30 3 C -0.8808 1.5137 0.7639 0
M  V30 4 C -0.5055 3.5921 -0.4143 0
M  V30 5 C 0.2054 0.9262 0.0952 0
M  V30 6 C 0.5938 3.0242 -1.0603 0
M  V30 7 C 0.507 -0.5209 0.3347 0
M  V30 8 C 0.9717 1.7023 -0.7904 0
M  V30 9 N 1.6957 -0.986 0.5559 0
M  V30 10 C -0.6334 -1.5061 0.2961 0
M  V30 11 N 2.1261 1.2365 -1.4345 0
M  V30 12 C 2.8391 -0.0741 0.5356 0
M  V30 13 N -1.7995 -1.076 -0.2491 0
M  V30 14 C -0.4515 -2.8004 0.7744 0
M  V30 15 C 3.0761 0.4129 -0.8861 0
M  V30 16 C -2.8129 -1.9674 -0.3077 0
M  V30 17 C -1.5176 -3.6931 0.7019 0
M  V30 18 O 4.0916 0.1401 -1.5264 0
M  V30 19 C -2.7222 -3.2712 0.1514 0
M  V30 20 H -1.4658 0.934 1.4741 0
M  V30 21 H -0.7794 4.623 -0.6252 0
M  V30 22 H 1.167 3.6339 -1.7553 0
M  V30 23 H 2.3682 1.5989 -2.348 0
M  V30 24 H 2.7165 0.7688 1.225 0
M  V30 25 H 3.7292 -0.6239 0.8597 0
M  V30 26 H 0.5004 -3.1129 1.1914 0
M  V30 27 H -3.7327 -1.5946 -0.7504 0
M  V30 28 H -1.4043 -4.7102 1.0667 0
M  V30 29 H -3.5693 -3.9444 0.0772 0
M  V30 END ATOM
M  V30 BEGIN BOND
M  V30 1 1 1 2
M  V30 2 2 2 3
M  V30 3 1 2 4
M  V30 4 1 3 5
M  V30 5 2 4 6
M  V30 6 1 5 7
M  V30 7 2 5 8
M  V30 8 2 7 9
M  V30 9 1 7 10
M  V30 10 1 8 11
M  V30 11 1 9 12
M  V30 12 2 10 13
M  V30 13 1 10 14
M  V30 14 1 11 15
M  V30 15 1 13 16
M  V30 16 2 14 17
M  V30 17 2 15 18
M  V30 18 2 16 19
M  V30 19 1 6 8
M  V30 20 1 12 15
M  V30 21 1 17 19
M  V30 22 1 3 20
M  V30 23 1 4 21
M  V30 24 1 6 22
M  V30 25 1 11 23
M  V30 26 1 12 24
M  V30 27 1 12 25
M  V30 28 1 14 26
M  V30 29 1 16 27
M  V30 30 1 17 28
M  V30 31 1 19 29
M  V30 END BOND
M  V30 END CTAB
M  END
>  <Column 1>
2271

>  <level_0>
2452

>  <index>
2452

>  <Unnamed: 0>
2452

>  <NO.>
2464

>  <Name>
bromazepam

>  <IUPAC_name>
7-bromo-5-pyridin-2-yl-1-3-dihydro-1-4-benzodiazepin-2-one

>  <SMILES>
O=C1CN=C(c2ccccn2)c2cc(Br)ccc2N1

>  <CID>
2441

>  <logBB>


>  <BBB+/BBB->
BBB+

>  <Inchi>
InChI=1S/C14H10BrN3O/c15-9-4-5-11-10(7-9)14(17-8-13(19)18-11)12-3-1-2-6-16-12/h1-7H-8H2-(H-18-19)

>  <threshold>
-1

>  <reference>
R1|R13|R19|R6|R14|R23|R24|R27|R27|R27|R27|R30|R30|R34|R37|R50|

>  <group>
B

>  <Class>
1

>  <ABC>
14.95

>  <ABCGG>
12.17

>  <nAcid>
0

>  <nBase>
0

>  <nAromAtom>
12

>  <nAromBond>
12

>  <nAtom>
29

>  <nHeavyAtom>
19

>  <nSpiro>
0

>  <nBridgehead>
0

>  <nHetero>
5

>  <nN>
3

>  <nO>
1

>  <nF>
0

>  <BalabanJ>
1.75

>  <BertzCT>
667.65

>  <nBonds>
31

>  <nBondsO>
21

>  <nBondsS>
17

>  <nBondsD>
2

>  <nBondsT>
0

>  <nBondsA>
12

>  <nBondsM>
14

>  <nBondsKS>
23

>  <nBondsKD>
8

>  <RNCG>
0.23

>  <RPCG>
0.17

>  <FCSP3>
0.07

>  <SZ>
26.33

>  <Sm>
26.32

>  <Sv>
20.99

>  <Sse>
29.43

>  <Sp>
22.28

>  <Si>
32.21

>  <MZ>
0.91

>  <Mm>
0.91

>  <Mv>
0.72

>  <Mse>
1.01

>  <Mp>
0.77

>  <Mi>
1.11

>  <NsCH3>
0

>  <NdCH2>
0

>  <NssCH2>
1

>  <NtCH>
0

>  <NdsCH>
0

>  <NaaCH>
7

>  <NsssCH>
0

>  <NddC>
0

>  <NtsC>
0

>  <NdssC>
2

>  <NaasC>
4

>  <NaaaC>
0

>  <NssssC>
0

>  <NsNH3>
0

>  <NsNH2>
0

>  <NssNH2>
0

>  <NdNH>
0

>  <NssNH>
1

>  <NaaNH>
0

>  <NtN>
0

>  <NsssNH>
0

>  <NdsN>
1

>  <NaaN>
1

>  <NsssN>
0

>  <NddsN>
0

>  <NaasN>
0

>  <NssssN>
0

>  <NsOH>
0

>  <NdO>
1

>  <NssO>
0

>  <NaaO>
0

>  <NsF>
0

>  <NsSiH3>
0

>  <NssSiH2>
0

>  <NsssSiH>
0

>  <NssssSi>
0

>  <NsPH2>
0

>  <NssPH>
0

>  <NsssP>
0

>  <NdsssP>
0

>  <NsssssP>
0

>  <NsSH>
0

>  <NdS>
0

>  <NssS>
0

>  <NaaS>
0

>  <NdssS>
0

>  <NddssS>
0

>  <NsCl>
0

>  <NsBr>
1

>  <NsI>
0

>  <fragCpx>
99.05

>  <fMF>
0.59

>  <nHBAcc>
3

>  <nHBDon>
1

>  <Kier1>
13.96

>  <Kier2>
6.19

>  <Lipinski>
1

>  <GhoseFilter>
1

>  <FilterItLogS>
-5.12

>  <VMcGowan>
194.45

>  <LabuteASA>
118.27

>  <PEOE_VSA1>
5.32

>  <PEOE_VSA2>
14.77

>  <PEOE_VSA3>
0

>  <PEOE_VSA4>
0

>  <PEOE_VSA5>
0

>  <PEOE_VSA6>
22

>  <PEOE_VSA7>
30.33

>  <PEOE_VSA8>
16.23

>  <PEOE_VSA9>
17.09

>  <PEOE_VSA10>
6.54

>  <PEOE_VSA11>
0

>  <PEOE_VSA12>
5.91

>  <PEOE_VSA13>
0

>  <SMR_VSA1>
4.79

>  <SMR_VSA2>
0

>  <SMR_VSA3>
4.98

>  <SMR_VSA4>
4.99

>  <SMR_VSA5>
0

>  <SMR_VSA6>
11.86

>  <SMR_VSA7>
58.33

>  <SMR_VSA8>
0

>  <SMR_VSA9>
0

>  <SlogP_VSA1>
5.32

>  <SlogP_VSA2>
23.15

>  <SlogP_VSA3>
4.79

>  <SlogP_VSA4>
0

>  <SlogP_VSA5>
11.26

>  <SlogP_VSA6>
52.06

>  <SlogP_VSA7>
0

>  <SlogP_VSA8>
0

>  <SlogP_VSA9>
0

>  <SlogP_VSA10>
5.69

>  <SlogP_VSA11>
0

>  <EState_VSA1>
0

>  <EState_VSA2>
12.45

>  <EState_VSA3>
0

>  <EState_VSA4>
27.13

>  <EState_VSA5>
0

>  <EState_VSA6>
6.2

>  <EState_VSA7>
36.4

>  <EState_VSA8>
31.22

>  <EState_VSA9>
0

>  <EState_VSA10>
4.79

>  <VSA_EState1>
0.94

>  <VSA_EState2>
20.35

>  <VSA_EState3>
2.85

>  <VSA_EState4>
3.13

>  <VSA_EState5>
-0.12

>  <VSA_EState6>
11.34

>  <VSA_EState7>
1.72

>  <VSA_EState8>
0.11

>  <VSA_EState9>
0

>  <apol>
37.2

>  <bpol>
15.13

>  <nRing>
3

>  <nHRing>
2

>  <naRing>
2

>  <naHRing>
1

>  <nARing 2>
1

>  <nAHRing 2>
1

>  <nFRing>
1

>  <nFHRing>
1

>  <nFaRing>
0

>  <nFaHRing>
0

>  <nFARing 2>
1

>  <nFAHRing 2>
1

>  <nRot>
1

>  <SLogP>
2.63

>  <SMR>
77.51

>  <TopoPSA(NO)>
54.35

>  <TopoPSA>
54.35

>  <JGI1>
0.17

>  <JGI2>
0.07

>  <JGI3>
0.04

>  <JGI4>
0.04

>  <JGI5>
0.02

>  <Diameter>
8

>  <Radius>
4

>  <TMWC10>
112.9

>  <TSRW10>
60.38

>  <MW>
315

>  <AMW>
10.86

>  <WPath>
643

>  <WPol>
32

>  <Zagreb1>
100

>  <Zagreb2>
117

>  <mZagreb2>
4.17

>  <yes>


>  <nAR-cont>
0.816016

>  <nHA-cont>
0.998649058

>  <MWHBN>
0.225374468

>  <MWHBN-cont>
0.991021694

>  <TPSA-cont>
0.620603251

>  <pka_cont>
0.97

>  <yes.1>


>  <BBB_SCORE>
5.0274041

>  <MMFF94 Energy>
107.51

$$$$
Compound 1863
Actelion Java MolfileCreator 2.0

  0  0  0  0  0  0              0 V3000
M  V30 BEGIN CTAB
M  V30 COUNTS 38 41 0 0 0
M  V30 BEGIN ATOM
M  V30 1 Cl 0.9904 2.1467 -0.7427 0
M  V30 2 C -0.4623 2.6826 0.0225 0
M  V30 3 C -1.4243 1.807 0.5432 0
M  V30 4 C -0.6857 4.0636 0.0719 0
M  V30 5 C -1.267 0.3247 0.5589 0
M  V30 6 C -2.6166 2.3226 1.0757 0
M  V30 7 C -1.864 4.5706 0.6237 0
M  V30 8 N -2.2411 -0.3831 0.0839 0
M  V30 9 C -0.0352 -0.26 1.1613 0
M  V30 10 C -2.832 3.7003 1.1198 0
M  V30 11 C -2.0944 -1.841 0.1211 0
M  V30 12 C 0.68 -1.2733 0.489 0
M  V30 13 C 0.3865 0.2249 2.4095 0
M  V30 14 C -1.0718 -2.3177 -0.9108 0
M  V30 15 N 0.2905 -1.7661 -0.7723 0
M  V30 16 C 1.8393 -1.7706 1.1135 0
M  V30 17 C 1.5369 -0.2915 2.9948 0
M  V30 18 C 1.1534 -1.8877 -1.8396 0
M  V30 19 C 2.266 -1.2864 2.3537 0
M  V30 20 Cl 2.0578 0.3007 4.5229 0
M  V30 21 O 2.3451 -1.2349 -1.725 0
M  V30 22 N 0.956 -2.5301 -2.94 0
M  V30 23 C 3.0367 -1.4548 -2.9517 0
M  V30 24 C 2.0773 -2.3365 -3.6936 0
M  V30 25 O 2.2838 -2.8061 -4.8029 0
M  V30 26 H 0.0518 4.7537 -0.3316 0
M  V30 27 H -3.3806 1.6473 1.4566 0
M  V30 28 H -2.0323 5.6449 0.6527 0
M  V30 29 H -3.7575 4.0924 1.5353 0
M  V30 30 H -3.0683 -2.2805 -0.1243 0
M  V30 31 H -1.859 -2.1977 1.1319 0
M  V30 32 H -0.1804 0.9937 2.9274 0
M  V30 33 H -1.0101 -3.4118 -0.8593 0
M  V30 34 H -1.4564 -2.064 -1.9074 0
M  V30 35 H 2.4226 -2.554 0.6333 0
M  V30 36 H 3.1662 -1.692 2.8086 0
M  V30 37 H 3.9788 -1.9715 -2.758 0
M  V30 38 H 3.1854 -0.5057 -3.4706 0
M  V30 END ATOM
M  V30 BEGIN BOND
M  V30 1 1 1 2
M  V30 2 2 2 3
M  V30 3 1 2 4
M  V30 4 1 3 5
M  V30 5 1 3 6
M  V30 6 2 4 7
M  V30 7 2 5 8
M  V30 8 1 5 9
M  V30 9 2 6 10
M  V30 10 1 8 11
M  V30 11 2 9 12
M  V30 12 1 9 13
M  V30 13 1 11 14
M  V30 14 1 12 15
M  V30 15 1 12 16
M  V30 16 2 13 17
M  V30 17 1 15 18
M  V30 18 2 16 19
M  V30 19 1 17 20
M  V30 20 1 18 21
M  V30 21 2 18 22
M  V30 22 1 21 23
M  V30 23 1 22 24
M  V30 24 2 24 25
M  V30 25 1 7 10
M  V30 26 1 14 15
M  V30 27 1 17 19
M  V30 28 1 23 24
M  V30 29 1 4 26
M  V30 30 1 6 27
M  V30 31 1 7 28
M  V30 32 1 10 29
M  V30 33 1 11 30
M  V30 34 1 11 31
M  V30 35 1 13 32
M  V30 36 1 14 33
M  V30 37 1 14 34
M  V30 38 1 16 35
M  V30 39 1 19 36
M  V30 40 1 23 37
M  V30 41 1 23 38
M  V30 END BOND
M  V30 END CTAB
M  END
>  <Column 1>
2272

>  <level_0>
2453

>  <index>
2453

>  <Unnamed: 0>
2453

>  <NO.>
2465

>  <Name>
reclazepam

>  <IUPAC_name>
2-[7-chloro-5-(2-chlorophenyl)-2-3-dihydro-1-4-benzodiazepin-1-yl]-1-3-oxazol-4-one

>  <SMILES>
O=C1COC(N2CCN=C(c3ccccc3Cl)c3cc(Cl)ccc32)=N1

>  <CID>
3052777

>  <logBB>


>  <BBB+/BBB->
BBB+

>  <Inchi>
InChI=1S/C18H13Cl2N3O2/c19-11-5-6-15-13(9-11)17(12-3-1-2-4-14(12)20)21-7-8-23(15)18-22-16(24)10-25-18/h1-6-9H-7-8-10H2

>  <threshold>
-1

>  <reference>
R1|R13|R19|R6|R24|R27|R27|R27|R30|R30|

>  <group>
B

>  <Class>
1

>  <ABC>
19.88

>  <ABCGG>
16.11

>  <nAcid>
0

>  <nBase>
2

>  <nAromAtom>
12

>  <nAromBond>
12

>  <nAtom>
38

>  <nHeavyAtom>
25

>  <nSpiro>
0

>  <nBridgehead>
0

>  <nHetero>
7

>  <nN>
3

>  <nO>
2

>  <nF>
0

>  <BalabanJ>
1.55

>  <BertzCT>
924.29

>  <nBonds>
41

>  <nBondsO>
28

>  <nBondsS>
26

>  <nBondsD>
3

>  <nBondsT>
0

>  <nBondsA>
12

>  <nBondsM>
15

>  <nBondsKS>
32

>  <nBondsKD>
9

>  <RNCG>
0.23

>  <RPCG>
0.15

>  <FCSP3>
0.17

>  <SZ>
32

>  <Sm>
31.16

>  <Sv>
27.41

>  <Sse>
38.95

>  <Sp>
28.74

>  <Si>
42.29

>  <MZ>
0.84

>  <Mm>
0.82

>  <Mv>
0.72

>  <Mse>
1.03

>  <Mp>
0.76

>  <Mi>
1.11

>  <NsCH3>
0

>  <NdCH2>
0

>  <NssCH2>
3

>  <NtCH>
0

>  <NdsCH>
0

>  <NaaCH>
7

>  <NsssCH>
0

>  <NddC>
0

>  <NtsC>
0

>  <NdssC>
3

>  <NaasC>
5

>  <NaaaC>
0

>  <NssssC>
0

>  <NsNH3>
0

>  <NsNH2>
0

>  <NssNH2>
0

>  <NdNH>
0

>  <NssNH>
0

>  <NaaNH>
0

>  <NtN>
0

>  <NsssNH>
0

>  <NdsN>
2

>  <NaaN>
0

>  <NsssN>
1

>  <NddsN>
0

>  <NaasN>
0

>  <NssssN>
0

>  <NsOH>
0

>  <NdO>
1

>  <NssO>
1

>  <NaaO>
0

>  <NsF>
0

>  <NsSiH3>
0

>  <NssSiH2>
0

>  <NsssSiH>
0

>  <NssssSi>
0

>  <NsPH2>
0

>  <NssPH>
0

>  <NsssP>
0

>  <NdsssP>
0

>  <NsssssP>
0

>  <NsSH>
0

>  <NdS>
0

>  <NssS>
0

>  <NaaS>
0

>  <NdssS>
0

>  <NddssS>
0

>  <NsCl>
2

>  <NsBr>
0

>  <NsI>
0

>  <fragCpx>
184.07

>  <fMF>
0.58

>  <nHBAcc>
4

>  <nHBDon>
0

>  <Kier1>
18.37

>  <Kier2>
7.94

>  <Lipinski>
1

>  <GhoseFilter>
1

>  <FilterItLogS>
-5.72

>  <VMcGowan>
248.5

>  <LabuteASA>
154.1

>  <PEOE_VSA1>
4.74

>  <PEOE_VSA2>
14.69

>  <PEOE_VSA3>
0

>  <PEOE_VSA4>
4.99

>  <PEOE_VSA5>
0

>  <PEOE_VSA6>
41.4

>  <PEOE_VSA7>
24.27

>  <PEOE_VSA8>
27.72

>  <PEOE_VSA9>
17.94

>  <PEOE_VSA10>
0

>  <PEOE_VSA11>
6.61

>  <PEOE_VSA12>
0

>  <PEOE_VSA13>
5.91

>  <SMR_VSA1>
9.53

>  <SMR_VSA2>
0

>  <SMR_VSA3>
0

>  <SMR_VSA4>
9.98

>  <SMR_VSA5>
0

>  <SMR_VSA6>
24.6

>  <SMR_VSA7>
63.64

>  <SMR_VSA8>
0

>  <SMR_VSA9>
0

>  <SlogP_VSA1>
4.9

>  <SlogP_VSA2>
37.34

>  <SlogP_VSA3>
9.53

>  <SlogP_VSA4>
0

>  <SlogP_VSA5>
11.13

>  <SlogP_VSA6>
52.45

>  <SlogP_VSA7>
10.05

>  <SlogP_VSA8>
0

>  <SlogP_VSA9>
0

>  <SlogP_VSA10>
5.69

>  <SlogP_VSA11>
0

>  <EState_VSA1>
0

>  <EState_VSA2>
12.51

>  <EState_VSA3>
29.16

>  <EState_VSA4>
22.53

>  <EState_VSA5>
0

>  <EState_VSA6>
6.07

>  <EState_VSA7>
41.3

>  <EState_VSA8>
4.99

>  <EState_VSA9>
32.93

>  <EState_VSA10>
4.79

>  <VSA_EState1>
5.43

>  <VSA_EState2>
22

>  <VSA_EState3>
1.2

>  <VSA_EState4>
3.24

>  <VSA_EState5>
-0.29

>  <VSA_EState6>
13.35

>  <VSA_EState7>
0

>  <VSA_EState8>
1.01

>  <VSA_EState9>
0

>  <apol>
47.99

>  <bpol>
20.66

>  <nRing>
4

>  <nHRing>
2

>  <naRing>
2

>  <naHRing>
0

>  <nARing 2>
2

>  <nAHRing 2>
2

>  <nFRing>
1

>  <nFHRing>
1

>  <nFaRing>
0

>  <nFaHRing>
0

>  <nFARing 2>
1

>  <nFAHRing 2>
1

>  <nRot>
1

>  <SLogP>
3.56

>  <SMR>
99.15

>  <TopoPSA(NO)>
54.26

>  <TopoPSA>
54.26

>  <JGI1>
0.16

>  <JGI2>
0.08

>  <JGI3>
0.05

>  <JGI4>
0.03

>  <JGI5>
0.02

>  <Diameter>
11

>  <Radius>
6

>  <TMWC10>
129.45

>  <TSRW10>
73.98

>  <MW>
373.04

>  <AMW>
9.82

>  <WPath>
1356

>  <WPol>
44

>  <Zagreb1>
136

>  <Zagreb2>
163

>  <mZagreb2>
5.42

>  <yes>


>  <nAR-cont>
1

>  <nHA-cont>
0.921834225

>  <MWHBN>
0.207101045

>  <MWHBN-cont>
0.999831878

>  <TPSA-cont>
0.621231507

>  <pka_cont>
0.97

>  <yes.1>


>  <BBB_SCORE>
5.149045055

>  <MMFF94 Energy>
67.454

$$$$
Compound 1864
Actelion Java MolfileCreator 2.0

  0  0  0  0  0  0              0 V3000
M  V30 BEGIN CTAB
M  V30 COUNTS 53 57 0 0 0
M  V30 BEGIN ATOM
M  V30 1 Cl 1.2404 -2.7304 -5.8813 0
M  V30 2 C -0.1484 -1.8264 -5.4138 0
M  V30 3 C -0.2374 -1.3138 -4.1151 0
M  V30 4 C -1.165 -1.6103 -6.3264 0
M  V30 5 C -1.3517 -0.5638 -3.6724 0
M  V30 6 C -2.2717 -0.8684 -5.931 0
M  V30 7 N -1.4431 -0.0459 -2.3462 0
M  V30 8 C -2.3684 -0.343 -4.6255 0
M  V30 9 C -2.4307 0.8733 -1.8814 0
M  V30 10 C -0.4676 -0.5508 -1.3473 0
M  V30 11 S -3.8476 0.5815 -4.2961 0
M  V30 12 C -3.5442 1.2273 -2.6701 0
M  V30 13 C -2.3503 1.4933 -0.6125 0
M  V30 14 C 0.7943 0.3247 -1.306 0
M  V30 15 C -4.5168 2.1307 -2.1939 0
M  V30 16 C -3.3166 2.393 -0.1448 0
M  V30 17 C 1.8697 -0.2534 -0.3783 0
M  V30 18 C -4.4054 2.7112 -0.9366 0
M  V30 19 N 1.431 -0.3903 1.0221 0
M  V30 20 C 2.3276 -1.3053 1.7472 0
M  V30 21 C 1.3608 0.9138 1.7001 0
M  V30 22 C 1.8349 -1.5465 3.175 0
M  V30 23 C 0.8319 0.7664 3.1282 0
M  V30 24 C 1.6697 -0.2271 3.9338 0
M  V30 25 S 0.8477 -0.5581 5.5363 0
M  V30 26 N 2.9535 0.3301 4.2965 0
M  V30 27 C 2.3547 -0.352 6.5163 0
M  V30 28 C 3.3797 0.2568 5.5957 0
M  V30 29 O 4.4888 0.6409 5.9419 0
M  V30 30 H 0.6062 -1.511 -3.4636 0
M  V30 31 H -1.1055 -2.0052 -7.3361 0
M  V30 32 H -3.0687 -0.6952 -6.6522 0
M  V30 33 H -0.2025 -1.5956 -1.5529 0
M  V30 34 H -0.9259 -0.6292 -0.354 0
M  V30 35 H -1.5218 1.3055 0.0613 0
M  V30 36 H 0.5462 1.3514 -1.0181 0
M  V30 37 H 1.2257 0.4083 -2.3104 0
M  V30 38 H -5.3749 2.3882 -2.8122 0
M  V30 39 H -3.209 2.8405 0.8399 0
M  V30 40 H 2.1362 -1.241 -0.7777 0
M  V30 41 H 2.7784 0.359 -0.4411 0
M  V30 42 H -5.1619 3.4062 -0.5836 0
M  V30 43 H 2.3552 -2.2768 1.2383 0
M  V30 44 H 3.355 -0.9193 1.759 0
M  V30 45 H 0.6784 1.5861 1.1701 0
M  V30 46 H 2.3436 1.4024 1.7103 0
M  V30 47 H 2.5422 -2.2131 3.6856 0
M  V30 48 H 0.8751 -2.0789 3.1193 0
M  V30 49 H -0.2125 0.4292 3.0711 0
M  V30 50 H 0.8242 1.7545 3.6067 0
M  V30 51 H 3.5968 0.7146 3.6171 0
M  V30 52 H 2.1681 0.3152 7.3608 0
M  V30 53 H 2.7112 -1.3225 6.8696 0
M  V30 END ATOM
M  V30 BEGIN BOND
M  V30 1 1 1 2
M  V30 2 2 2 3
M  V30 3 1 2 4
M  V30 4 1 3 5
M  V30 5 2 4 6
M  V30 6 1 5 7
M  V30 7 2 5 8
M  V30 8 1 7 9
M  V30 9 1 7 10
M  V30 10 1 8 11
M  V30 11 2 9 12
M  V30 12 1 9 13
M  V30 13 1 10 14
M  V30 14 1 12 15
M  V30 15 2 13 16
M  V30 16 1 14 17
M  V30 17 2 15 18
M  V30 18 1 17 19
M  V30 19 1 19 20
M  V30 20 1 19 21
M  V30 21 1 20 22
M  V30 22 1 21 23
M  V30 23 1 22 24
M  V30 24 1 24 25
M  V30 25 1 24 26
M  V30 26 1 25 27
M  V30 27 1 26 28
M  V30 28 2 28 29
M  V30 29 1 6 8
M  V30 30 1 11 12
M  V30 31 1 16 18
M  V30 32 1 23 24
M  V30 33 1 27 28
M  V30 34 1 3 30
M  V30 35 1 4 31
M  V30 36 1 6 32
M  V30 37 1 10 33
M  V30 38 1 10 34
M  V30 39 1 13 35
M  V30 40 1 14 36
M  V30 41 1 14 37
M  V30 42 1 15 38
M  V30 43 1 16 39
M  V30 44 1 17 40
M  V30 45 1 17 41
M  V30 46 1 18 42
M  V30 47 1 20 43
M  V30 48 1 20 44
M  V30 49 1 21 45
M  V30 50 1 21 46
M  V30 51 1 22 47
M  V30 52 1 22 48
M  V30 53 1 23 49
M  V30 54 1 23 50
M  V30 55 1 26 51
M  V30 56 1 27 52
M  V30 57 1 27 53
M  V30 END BOND
M  V30 END CTAB
M  END
>  <Column 1>
2273

>  <level_0>
2454

>  <index>
2454

>  <Unnamed: 0>
2454

>  <NO.>
2466

>  <Name>
spiclomazine

>  <IUPAC_name>
8-[3-(2-chlorophenothiazin-10-yl)propyl]-1-thia-4-8-diazaspiro[4.5]decan-3-one;hydron;chloride

>  <SMILES>
O=C1CSC2(CCN(CCCN3c4ccccc4Sc4ccc(Cl)cc43)CC2)N1

>  <CID>
65714

>  <logBB>


>  <BBB+/BBB->
BBB+

>  <Inchi>
InChI=1S/C22H24ClN3OS2/c23-16-6-7-20-18(14-16)26(17-4-1-2-5-19(17)29-20)11-3-10-25-12-8-22(9-13-25)24-21(27)15-28-22/h1-2-4-7-14H-3-8-13-15H2-(H-24-27)

>  <threshold>
-1

>  <reference>
R1|R13|R19|R6|R24|R27|R27|R27|R30|R30|

>  <group>
B

>  <Class>
1

>  <ABC>
23.39

>  <ABCGG>
16.75

>  <nAcid>
0

>  <nBase>
1

>  <nAromAtom>
12

>  <nAromBond>
12

>  <nAtom>
53

>  <nHeavyAtom>
29

>  <nSpiro>
1

>  <nBridgehead>
0

>  <nHetero>
7

>  <nN>
3

>  <nO>
1

>  <nF>
0

>  <BalabanJ>
1.15

>  <BertzCT>
930.02

>  <nBonds>
57

>  <nBondsO>
33

>  <nBondsS>
44

>  <nBondsD>
1

>  <nBondsT>
0

>  <nBondsA>
12

>  <nBondsM>
13

>  <nBondsKS>
50

>  <nBondsKD>
7

>  <RNCG>
0.18

>  <RPCG>
0.12

>  <FCSP3>
0.41

>  <SZ>
39

>  <Sm>
37.13

>  <Sv>
34.96

>  <Sse>
52.89

>  <Sp>
38.82

>  <Si>
59.06

>  <MZ>
0.74

>  <Mm>
0.7

>  <Mv>
0.66

>  <Mse>
1

>  <Mp>
0.73

>  <Mi>
1.11

>  <NsCH3>
0

>  <NdCH2>
0

>  <NssCH2>
8

>  <NtCH>
0

>  <NdsCH>
0

>  <NaaCH>
7

>  <NsssCH>
0

>  <NddC>
0

>  <NtsC>
0

>  <NdssC>
1

>  <NaasC>
5

>  <NaaaC>
0

>  <NssssC>
1

>  <NsNH3>
0

>  <NsNH2>
0

>  <NssNH2>
0

>  <NdNH>
0

>  <NssNH>
1

>  <NaaNH>
0

>  <NtN>
0

>  <NsssNH>
0

>  <NdsN>
0

>  <NaaN>
0

>  <NsssN>
2

>  <NddsN>
0

>  <NaasN>
0

>  <NssssN>
0

>  <NsOH>
0

>  <NdO>
1

>  <NssO>
0

>  <NaaO>
0

>  <NsF>
0

>  <NsSiH3>
0

>  <NssSiH2>
0

>  <NsssSiH>
0

>  <NssssSi>
0

>  <NsPH2>
0

>  <NssPH>
0

>  <NsssP>
0

>  <NdsssP>
0

>  <NsssssP>
0

>  <NsSH>
0

>  <NdS>
0

>  <NssS>
2

>  <NaaS>
0

>  <NdssS>
0

>  <NddssS>
0

>  <NsCl>
1

>  <NsBr>
0

>  <NsI>
0

>  <fragCpx>
277.07

>  <fMF>
0.51

>  <nHBAcc>
5

>  <nHBDon>
1

>  <Kier1>
20.88

>  <Kier2>
8.86

>  <Lipinski>
1

>  <GhoseFilter>
1

>  <FilterItLogS>
-6.32

>  <VMcGowan>
317.19

>  <LabuteASA>
184.9

>  <PEOE_VSA1>
15.12

>  <PEOE_VSA2>
4.79

>  <PEOE_VSA3>
0

>  <PEOE_VSA4>
0

>  <PEOE_VSA5>
11.76

>  <PEOE_VSA6>
35.5

>  <PEOE_VSA7>
56.14

>  <PEOE_VSA8>
34.45

>  <PEOE_VSA9>
22

>  <PEOE_VSA10>
0

>  <PEOE_VSA11>
0

>  <PEOE_VSA12>
5.91

>  <PEOE_VSA13>
0

>  <SMR_VSA1>
4.79

>  <SMR_VSA2>
0

>  <SMR_VSA3>
10.22

>  <SMR_VSA4>
0

>  <SMR_VSA5>
33.92

>  <SMR_VSA6>
36.83

>  <SMR_VSA7>
47.49

>  <SMR_VSA8>
0

>  <SMR_VSA9>
0

>  <SlogP_VSA1>
10.22

>  <SlogP_VSA2>
47.61

>  <SlogP_VSA3>
4.79

>  <SlogP_VSA4>
0

>  <SlogP_VSA5>
19.26

>  <SlogP_VSA6>
52.26

>  <SlogP_VSA7>
5.02

>  <SlogP_VSA8>
0

>  <SlogP_VSA9>
0

>  <SlogP_VSA10>
11.37

>  <SlogP_VSA11>
0

>  <EState_VSA1>
0

>  <EState_VSA2>
10.78

>  <EState_VSA3>
5.75

>  <EState_VSA4>
50.46

>  <EState_VSA5>
21.17

>  <EState_VSA6>
11.76

>  <EState_VSA7>
17.83

>  <EState_VSA8>
51.51

>  <EState_VSA9>
11.6

>  <EState_VSA10>
4.79

>  <VSA_EState1>
0

>  <VSA_EState2>
19.15

>  <VSA_EState3>
3.98

>  <VSA_EState4>
2.49

>  <VSA_EState5>
0.82

>  <VSA_EState6>
14.81

>  <VSA_EState7>
3.19

>  <VSA_EState8>
4.17

>  <VSA_EState9>
0

>  <apol>
64.83

>  <bpol>
34.36

>  <nRing>
5

>  <nHRing>
3

>  <naRing>
2

>  <naHRing>
0

>  <nARing 2>
3

>  <nAHRing 2>
3

>  <nFRing>
1

>  <nFHRing>
1

>  <nFaRing>
0

>  <nFaHRing>
0

>  <nFARing 2>
1

>  <nFAHRing 2>
1

>  <nRot>
4

>  <SLogP>
4.99

>  <SMR>
122.65

>  <TopoPSA(NO)>
35.58

>  <TopoPSA>
86.18

>  <JGI1>
0.2

>  <JGI2>
0.07

>  <JGI3>
0.04

>  <JGI4>
0.05

>  <JGI5>
0.02

>  <Diameter>
14

>  <Radius>
7

>  <TMWC10>
140.02

>  <TSRW10>
79.03

>  <MW>
445.1

>  <AMW>
8.4

>  <WPath>
2417

>  <WPol>
48

>  <Zagreb1>
162

>  <Zagreb2>
194

>  <mZagreb2>
6.19

>  <yes>


>  <nAR-cont>
0.691115

>  <nHA-cont>
0.785905698

>  <MWHBN>
0.284395325

>  <MWHBN-cont>
0.884715404

>  <TPSA-cont>
0.398410085

>  <pka_cont>
0.97

>  <yes.1>


>  <BBB_SCORE>
4.085913975

>  <MMFF94 Energy>
39.15

$$$$
Compound 1865
Actelion Java MolfileCreator 2.0

  0  0  0  0  0  0              0 V3000
M  V30 BEGIN CTAB
M  V30 COUNTS 49 53 0 0 0
M  V30 BEGIN ATOM
M  V30 1 Cl -1.8855 2.5419 -4.5954 0
M  V30 2 C -2.7648 2.0056 -3.2047 0
M  V30 3 C -2.2872 2.2362 -1.8886 0
M  V30 4 C -3.971 1.3338 -3.436 0
M  V30 5 C -3.0392 1.7681 -0.7921 0
M  V30 6 C -0.9753 2.9445 -1.6114 0
M  V30 7 C -4.6733 0.899 -2.3356 0
M  V30 8 C -4.227 1.1042 -1.0348 0
M  V30 9 C 0.252 2.0156 -1.6836 0
M  V30 10 N -5.8773 0.2136 -2.3134 0
M  V30 11 C -5.206 0.5042 -0.0702 0
M  V30 12 N 0.2859 0.9774 -0.6357 0
M  V30 13 C -6.2751 -0.0648 -1.0106 0
M  V30 14 C 0.6306 1.539 0.6924 0
M  V30 15 C 1.2787 -0.0675 -0.9804 0
M  V30 16 O -7.2925 -0.6544 -0.6875 0
M  V30 17 C 0.7325 0.4628 1.7982 0
M  V30 18 C 1.3811 -1.1757 0.0905 0
M  V30 19 N 1.6783 -0.595 1.409 0
M  V30 20 C 2.2012 -1.3943 2.3908 0
M  V30 21 N 1.5758 -1.6182 3.5461 0
M  V30 22 C 3.5094 -2.0239 2.2593 0
M  V30 23 S 2.4589 -2.6575 4.4665 0
M  V30 24 C 3.7799 -2.8058 3.3852 0
M  V30 25 C 4.5095 -1.9639 1.2535 0
M  V30 26 C 4.9657 -3.5475 3.5261 0
M  V30 27 C 5.6961 -2.6938 1.3833 0
M  V30 28 C 5.9166 -3.4813 2.5057 0
M  V30 29 H -4.3349 1.1601 -4.4417 0
M  V30 30 H -2.6881 1.9114 0.2259 0
M  V30 31 H -1.0272 3.4467 -0.6377 0
M  V30 32 H -0.8466 3.7654 -2.3273 0
M  V30 33 H 0.2488 1.5301 -2.6676 0
M  V30 34 H 1.1647 2.6244 -1.6435 0
M  V30 35 H -6.4181 -0.0634 -3.1188 0
M  V30 36 H -5.6515 1.266 0.5742 0
M  V30 37 H -4.7546 -0.3068 0.5061 0
M  V30 38 H 1.587 2.076 0.6356 0
M  V30 39 H -0.1308 2.2603 1.0065 0
M  V30 40 H 0.9953 -0.5408 -1.9281 0
M  V30 41 H 2.2696 0.3851 -1.121 0
M  V30 42 H -0.2582 0.0278 1.9835 0
M  V30 43 H 1.0622 0.9554 2.7216 0
M  V30 44 H 2.145 -1.8933 -0.2251 0
M  V30 45 H 0.4318 -1.7249 0.1435 0
M  V30 46 H 4.3595 -1.3352 0.3802 0
M  V30 47 H 5.1439 -4.1509 4.4112 0
M  V30 48 H 6.4507 -2.6379 0.6024 0
M  V30 49 H 6.8428 -4.0441 2.5978 0
M  V30 END ATOM
M  V30 BEGIN BOND
M  V30 1 1 1 2
M  V30 2 2 2 3
M  V30 3 1 2 4
M  V30 4 1 3 5
M  V30 5 1 3 6
M  V30 6 2 4 7
M  V30 7 2 5 8
M  V30 8 1 6 9
M  V30 9 1 7 10
M  V30 10 1 8 11
M  V30 11 1 9 12
M  V30 12 1 10 13
M  V30 13 1 12 14
M  V30 14 1 12 15
M  V30 15 2 13 16
M  V30 16 1 14 17
M  V30 17 1 15 18
M  V30 18 1 17 19
M  V30 19 1 19 20
M  V30 20 2 20 21
M  V30 21 1 20 22
M  V30 22 1 21 23
M  V30 23 2 22 24
M  V30 24 1 22 25
M  V30 25 1 24 26
M  V30 26 2 25 27
M  V30 27 2 26 28
M  V30 28 1 7 8
M  V30 29 1 11 13
M  V30 30 1 18 19
M  V30 31 1 23 24
M  V30 32 1 27 28
M  V30 33 1 4 29
M  V30 34 1 5 30
M  V30 35 1 6 31
M  V30 36 1 6 32
M  V30 37 1 9 33
M  V30 38 1 9 34
M  V30 39 1 10 35
M  V30 40 1 11 36
M  V30 41 1 11 37
M  V30 42 1 14 38
M  V30 43 1 14 39
M  V30 44 1 15 40
M  V30 45 1 15 41
M  V30 46 1 17 42
M  V30 47 1 17 43
M  V30 48 1 18 44
M  V30 49 1 18 45
M  V30 50 1 25 46
M  V30 51 1 26 47
M  V30 52 1 27 48
M  V30 53 1 28 49
M  V30 END BOND
M  V30 END CTAB
M  END
>  <Column 1>
2275

>  <level_0>
2456

>  <index>
2456

>  <Unnamed: 0>
2456

>  <NO.>
2468

>  <Name>
ziprasidone

>  <IUPAC_name>
5-[2-[4-(1-2-benzothiazol-3-yl)piperazin-1-yl]ethyl]-6-chloro-1-3-dihydroindol-2-one

>  <SMILES>
O=C1Cc2cc(CCN3CCN(c4nsc5ccccc45)CC3)c(Cl)cc2N1

>  <CID>
60854

>  <logBB>


>  <BBB+/BBB->
BBB+

>  <Inchi>
InChI=1S/C21H21ClN4OS/c22-17-13-18-15(12-20(27)23-18)11-14(17)5-6-25-7-9-26(10-8-25)21-16-3-1-2-4-19(16)28-24-21/h1-4-11-13H-5-10-12H2-(H-23-27)

>  <threshold>
-1

>  <reference>
R1|R13|R19|R6|R15|R23|R24|R26|R27|R27|R27|R27|R30|R30|R34|

>  <group>
B

>  <Class>
1

>  <ABC>
22.64

>  <ABCGG>
16.49

>  <nAcid>
0

>  <nBase>
1

>  <nAromAtom>
15

>  <nAromBond>
16

>  <nAtom>
49

>  <nHeavyAtom>
28

>  <nSpiro>
0

>  <nBridgehead>
0

>  <nHetero>
7

>  <nN>
4

>  <nO>
1

>  <nF>
0

>  <BalabanJ>
1.06

>  <BertzCT>
1042.06

>  <nBonds>
53

>  <nBondsO>
32

>  <nBondsS>
36

>  <nBondsD>
1

>  <nBondsT>
0

>  <nBondsA>
16

>  <nBondsM>
17

>  <nBondsKS>
45

>  <nBondsKD>
8

>  <RNCG>
0.19

>  <RPCG>
0.12

>  <FCSP3>
0.33

>  <SZ>
36

>  <Sm>
34.38

>  <Sv>
32.71

>  <Sse>
49.15

>  <Sp>
35.54

>  <Si>
54.8

>  <MZ>
0.73

>  <Mm>
0.7

>  <Mv>
0.67

>  <Mse>
1

>  <Mp>
0.73

>  <Mi>
1.12

>  <NsCH3>
0

>  <NdCH2>
0

>  <NssCH2>
7

>  <NtCH>
0

>  <NdsCH>
0

>  <NaaCH>
6

>  <NsssCH>
0

>  <NddC>
0

>  <NtsC>
0

>  <NdssC>
1

>  <NaasC>
5

>  <NaaaC>
2

>  <NssssC>
0

>  <NsNH3>
0

>  <NsNH2>
0

>  <NssNH2>
0

>  <NdNH>
0

>  <NssNH>
1

>  <NaaNH>
0

>  <NtN>
0

>  <NsssNH>
0

>  <NdsN>
0

>  <NaaN>
1

>  <NsssN>
2

>  <NddsN>
0

>  <NaasN>
0

>  <NssssN>
0

>  <NsOH>
0

>  <NdO>
1

>  <NssO>
0

>  <NaaO>
0

>  <NsF>
0

>  <NsSiH3>
0

>  <NssSiH2>
0

>  <NsssSiH>
0

>  <NssssSi>
0

>  <NsPH2>
0

>  <NssPH>
0

>  <NsssP>
0

>  <NdsssP>
0

>  <NsssssP>
0

>  <NsSH>
0

>  <NdS>
0

>  <NssS>
0

>  <NaaS>
1

>  <NdssS>
0

>  <NddssS>
0

>  <NsCl>
1

>  <NsBr>
0

>  <NsI>
0

>  <fragCpx>
268.07

>  <fMF>
0.53

>  <nHBAcc>
5

>  <nHBDon>
1

>  <Kier1>
19.93

>  <Kier2>
8.63

>  <Lipinski>
1

>  <GhoseFilter>
1

>  <FilterItLogS>
-6.19

>  <VMcGowan>
292.43

>  <LabuteASA>
172.61

>  <PEOE_VSA1>
10.22

>  <PEOE_VSA2>
9.69

>  <PEOE_VSA3>
0

>  <PEOE_VSA4>
4.37

>  <PEOE_VSA5>
0

>  <PEOE_VSA6>
29.8

>  <PEOE_VSA7>
47.28

>  <PEOE_VSA8>
48.82

>  <PEOE_VSA9>
11.12

>  <PEOE_VSA10>
5.82

>  <PEOE_VSA11>
0

>  <PEOE_VSA12>
5.91

>  <PEOE_VSA13>
0

>  <SMR_VSA1>
4.79

>  <SMR_VSA2>
0

>  <SMR_VSA3>
9.27

>  <SMR_VSA4>
0

>  <SMR_VSA5>
12.84

>  <SMR_VSA6>
42.94

>  <SMR_VSA7>
52.55

>  <SMR_VSA8>
0

>  <SMR_VSA9>
0

>  <SlogP_VSA1>
10.22

>  <SlogP_VSA2>
47.9

>  <SlogP_VSA3>
17.64

>  <SlogP_VSA4>
0

>  <SlogP_VSA5>
11.13

>  <SlogP_VSA6>
36.4

>  <SlogP_VSA7>
5.02

>  <SlogP_VSA8>
10.09

>  <SlogP_VSA9>
0

>  <SlogP_VSA10>
11.51

>  <SlogP_VSA11>
0

>  <EState_VSA1>
0

>  <EState_VSA2>
5.91

>  <EState_VSA3>
6.42

>  <EState_VSA4>
66.8

>  <EState_VSA5>
10.09

>  <EState_VSA6>
11.53

>  <EState_VSA7>
6.07

>  <EState_VSA8>
49.82

>  <EState_VSA9>
11.6

>  <EState_VSA10>
4.79

>  <VSA_EState1>
5.94

>  <VSA_EState2>
16.45

>  <VSA_EState3>
4.86

>  <VSA_EState4>
3.05

>  <VSA_EState5>
1.17

>  <VSA_EState6>
12.43

>  <VSA_EState7>
1.36

>  <VSA_EState8>
5

>  <VSA_EState9>
0

>  <apol>
59.35

>  <bpol>
30.04

>  <nRing>
5

>  <nHRing>
3

>  <naRing>
3

>  <naHRing>
1

>  <nARing 2>
2

>  <nAHRing 2>
2

>  <nFRing>
2

>  <nFHRing>
2

>  <nFaRing>
1

>  <nFaHRing>
1

>  <nFARing 2>
1

>  <nFAHRing 2>
1

>  <nRot>
4

>  <SLogP>
3.81

>  <SMR>
115.76

>  <TopoPSA(NO)>
48.47

>  <TopoPSA>
76.71

>  <JGI1>
0.17

>  <JGI2>
0.07

>  <JGI3>
0.05

>  <JGI4>
0.04

>  <JGI5>
0.03

>  <Diameter>
16

>  <Radius>
8

>  <TMWC10>
137.4

>  <TSRW10>
79.71

>  <MW>
412.11

>  <AMW>
8.41

>  <WPath>
2344

>  <WPol>
44

>  <Zagreb1>
156

>  <Zagreb2>
187

>  <mZagreb2>
5.97

>  <yes>


>  <nAR-cont>
1

>  <nHA-cont>
0.82432561

>  <MWHBN>
0.29555933

>  <MWHBN-cont>
0.85380021

>  <TPSA-cont>
0.464516566

>  <pka_cont>
0.97

>  <yes.1>


>  <BBB_SCORE>
4.519059057

>  <MMFF94 Energy>
105.25

$$$$
Compound 1866
Actelion Java MolfileCreator 2.0

  0  0  0  0  0  0              0 V3000
M  V30 BEGIN CTAB
M  V30 COUNTS 39 41 0 0 0
M  V30 BEGIN ATOM
M  V30 1 Cl -4.9887 1.6608 2.8246 0
M  V30 2 C -3.334 1.806 2.1208 0
M  V30 3 Cl -2.5916 3.298 2.8043 0
M  V30 4 Cl -3.5107 2.0344 0.3482 0
M  V30 5 C -2.4933 0.5152 2.4627 0 CFG=2
M  V30 6 O -2.2156 0.3787 3.8563 0
M  V30 7 N -1.2149 0.353 1.7896 0
M  V30 8 C -1.0635 -0.4099 0.6431 0
M  V30 9 C -0.0982 1.2101 1.9947 0
M  V30 10 O -1.9481 -1.1052 0.1652 0
M  V30 11 C 0.3888 -0.1643 0.1235 0
M  V30 12 N 0.9962 0.5316 1.317 0
M  V30 13 C 0.3457 0.7457 -1.1229 0
M  V30 14 C 1.2066 -1.4413 -0.159 0
M  V30 15 C 1.1262 1.9129 -1.225 0
M  V30 16 C -0.4609 0.3997 -2.2241 0
M  V30 17 C 2.6006 -1.3346 -0.3582 0
M  V30 18 C 0.6376 -2.7227 -0.2444 0
M  V30 19 C 1.0769 2.7167 -2.3667 0
M  V30 20 C -0.5097 1.2048 -3.3645 0
M  V30 21 C 3.3887 -2.458 -0.6165 0
M  V30 22 C 1.4282 -3.8476 -0.5034 0
M  V30 23 C 0.2559 2.3647 -3.4338 0
M  V30 24 C 2.8013 -3.716 -0.6868 0
M  V30 25 H -3.1129 -0.3483 2.1888 0
M  V30 26 H -1.7785 -0.4855 3.946 0
M  V30 27 H -0.2839 2.1849 1.5354 0
M  V30 28 H 0.1124 1.3363 3.0603 0
M  V30 29 H 1.3096 -0.2097 1.9433 0
M  V30 30 H 1.789 2.2086 -0.4144 0
M  V30 31 H -1.0623 -0.5081 -2.2076 0
M  V30 32 H 3.0835 -0.359 -0.3162 0
M  V30 33 H -0.4304 -2.8837 -0.1245 0
M  V30 34 H 1.6844 3.6163 -2.4228 0
M  V30 35 H -1.1448 0.9214 -4.2 0
M  V30 36 H 4.4591 -2.3465 -0.7683 0
M  V30 37 H 0.9648 -4.8292 -0.5689 0
M  V30 38 H 0.2182 2.9896 -4.322 0
M  V30 39 H 3.4105 -4.5919 -0.8925 0
M  V30 END ATOM
M  V30 BEGIN BOND
M  V30 1 1 1 2
M  V30 2 1 2 3
M  V30 3 1 2 4
M  V30 4 1 2 5
M  V30 5 1 5 6
M  V30 6 1 5 7
M  V30 7 1 7 8
M  V30 8 1 7 9
M  V30 9 2 8 10
M  V30 10 1 8 11
M  V30 11 1 9 12
M  V30 12 1 11 13
M  V30 13 1 11 14
M  V30 14 2 13 15
M  V30 15 1 13 16
M  V30 16 2 14 17
M  V30 17 1 14 18
M  V30 18 1 15 19
M  V30 19 2 16 20
M  V30 20 1 17 21
M  V30 21 2 18 22
M  V30 22 2 19 23
M  V30 23 2 21 24
M  V30 24 1 11 12
M  V30 25 1 20 23
M  V30 26 1 22 24
M  V30 27 1 5 25
M  V30 28 1 6 26
M  V30 29 1 9 27
M  V30 30 1 9 28
M  V30 31 1 12 29
M  V30 32 1 15 30
M  V30 33 1 16 31
M  V30 34 1 17 32
M  V30 35 1 18 33
M  V30 36 1 19 34
M  V30 37 1 20 35
M  V30 38 1 21 36
M  V30 39 1 22 37
M  V30 40 1 23 38
M  V30 41 1 24 39
M  V30 END BOND
M  V30 BEGIN COLLECTION
M  V30 MDLV30/STERAC1 ATOMS=(1 5)
M  V30 END COLLECTION
M  V30 END CTAB
M  END
>  <Column 1>
2276

>  <level_0>
2457

>  <index>
2457

>  <Unnamed: 0>
2457

>  <NO.>
2469

>  <Name>
triclodazol

>  <IUPAC_name>
5-5-diphenyl-3-(2-2-2-trichloro-1-hydroxyethyl)imidazolidin-4-one

>  <SMILES>
O=C1N(C(O)C(Cl)(Cl)Cl)CNC1(c1ccccc1)c1ccccc1

>  <CID>
3083540

>  <logBB>


>  <BBB+/BBB->
BBB+

>  <Inchi>
InChI=1S/C17H15Cl3N2O2/c18-17(19-20)15(24)22-11-21-16(14(22)23-12-7-3-1-4-8-12)13-9-5-2-6-10-13/h1-10-15-21-24H-11H2

>  <threshold>
-1

>  <reference>
R1|R19|R6|R27|R27|R30|

>  <group>
B

>  <Class>
1

>  <ABC>
18.75

>  <ABCGG>
16.52

>  <nAcid>
0

>  <nBase>
1

>  <nAromAtom>
12

>  <nAromBond>
12

>  <nAtom>
39

>  <nHeavyAtom>
24

>  <nSpiro>
0

>  <nBridgehead>
0

>  <nHetero>
7

>  <nN>
2

>  <nO>
2

>  <nF>
0

>  <BalabanJ>
1.87

>  <BertzCT>
680.12

>  <nBonds>
41

>  <nBondsO>
26

>  <nBondsS>
28

>  <nBondsD>
1

>  <nBondsT>
0

>  <nBondsA>
12

>  <nBondsM>
13

>  <nBondsKS>
34

>  <nBondsKD>
7

>  <RNCG>
0.18

>  <RPCG>
0.12

>  <FCSP3>
0.24

>  <SZ>
33

>  <Sm>
32.11

>  <Sv>
27.28

>  <Sse>
39.94

>  <Sp>
29.18

>  <Si>
43.57

>  <MZ>
0.85

>  <Mm>
0.82

>  <Mv>
0.7

>  <Mse>
1.02

>  <Mp>
0.75

>  <Mi>
1.12

>  <NsCH3>
0

>  <NdCH2>
0

>  <NssCH2>
1

>  <NtCH>
0

>  <NdsCH>
0

>  <NaaCH>
10

>  <NsssCH>
1

>  <NddC>
0

>  <NtsC>
0

>  <NdssC>
1

>  <NaasC>
2

>  <NaaaC>
0

>  <NssssC>
2

>  <NsNH3>
0

>  <NsNH2>
0

>  <NssNH2>
0

>  <NdNH>
0

>  <NssNH>
1

>  <NaaNH>
0

>  <NtN>
0

>  <NsssNH>
0

>  <NdsN>
0

>  <NaaN>
0

>  <NsssN>
1

>  <NddsN>
0

>  <NaasN>
0

>  <NssssN>
0

>  <NsOH>
1

>  <NdO>
1

>  <NssO>
0

>  <NaaO>
0

>  <NsF>
0

>  <NsSiH3>
0

>  <NssSiH2>
0

>  <NsssSiH>
0

>  <NssssSi>
0

>  <NsPH2>
0

>  <NssPH>
0

>  <NsssP>
0

>  <NdsssP>
0

>  <NsssssP>
0

>  <NsSH>
0

>  <NdS>
0

>  <NssS>
0

>  <NaaS>
0

>  <NdssS>
0

>  <NddssS>
0

>  <NsCl>
3

>  <NsBr>
0

>  <NsI>
0

>  <fragCpx>
124.07

>  <fMF>
0.44

>  <nHBAcc>
3

>  <nHBDon>
2

>  <Kier1>
18.78

>  <Kier2>
7.32

>  <Lipinski>
1

>  <GhoseFilter>
1

>  <FilterItLogS>
-4.8

>  <VMcGowan>
256.13

>  <LabuteASA>
154.48

>  <PEOE_VSA1>
5.11

>  <PEOE_VSA2>
15.01

>  <PEOE_VSA3>
0

>  <PEOE_VSA4>
0

>  <PEOE_VSA5>
0

>  <PEOE_VSA6>
95.47

>  <PEOE_VSA7>
11.13

>  <PEOE_VSA8>
0

>  <PEOE_VSA9>
6.67

>  <PEOE_VSA10>
0

>  <PEOE_VSA11>
11.77

>  <PEOE_VSA12>
3.79

>  <PEOE_VSA13>
5.91

>  <SMR_VSA1>
9.9

>  <SMR_VSA2>
0

>  <SMR_VSA3>
10.22

>  <SMR_VSA4>
0

>  <SMR_VSA5>
15.56

>  <SMR_VSA6>
6.67

>  <SMR_VSA7>
71.79

>  <SMR_VSA8>
0

>  <SMR_VSA9>
0

>  <SlogP_VSA1>
5.32

>  <SlogP_VSA2>
32.6

>  <SlogP_VSA3>
10.33

>  <SlogP_VSA4>
0

>  <SlogP_VSA5>
11.13

>  <SlogP_VSA6>
60.66

>  <SlogP_VSA7>
0

>  <SlogP_VSA8>
0

>  <SlogP_VSA9>
0

>  <SlogP_VSA10>
0

>  <SlogP_VSA11>
0

>  <EState_VSA1>
15.56

>  <EState_VSA2>
12.58

>  <EState_VSA3>
0

>  <EState_VSA4>
16.03

>  <EState_VSA5>
0

>  <EState_VSA6>
0

>  <EState_VSA7>
60.66

>  <EState_VSA8>
5.32

>  <EState_VSA9>
34.8

>  <EState_VSA10>
9.9

>  <VSA_EState1>
-2

>  <VSA_EState2>
14.38

>  <VSA_EState3>
13.45

>  <VSA_EState4>
0.36

>  <VSA_EState5>
-0.38

>  <VSA_EState6>
18.54

>  <VSA_EState7>
-1.56

>  <VSA_EState8>
0.05

>  <VSA_EState9>
0

>  <apol>
48.74

>  <bpol>
19.73

>  <nRing>
3

>  <nHRing>
1

>  <naRing>
2

>  <naHRing>
0

>  <nARing 2>
1

>  <nAHRing 2>
1

>  <nFRing>
0

>  <nFHRing>
0

>  <nFaRing>
0

>  <nFaHRing>
0

>  <nFARing 2>
0

>  <nFAHRing 2>
0

>  <nRot>
3

>  <SLogP>
3.01

>  <SMR>
94.81

>  <TopoPSA(NO)>
52.57

>  <TopoPSA>
52.57

>  <JGI1>
0.23

>  <JGI2>
0.11

>  <JGI3>
0.06

>  <JGI4>
0.04

>  <JGI5>
0.03

>  <Diameter>
9

>  <Radius>
5

>  <TMWC10>
126.99

>  <TSRW10>
73.53

>  <MW>
384.02

>  <AMW>
9.85

>  <WPath>
1188

>  <WPol>
43

>  <Zagreb1>
130

>  <Zagreb2>
158

>  <mZagreb2>
5.18

>  <yes>


>  <nAR-cont>
0.816016

>  <nHA-cont>
0.94700071

>  <MWHBN>
0.255148537

>  <MWHBN-cont>
0.950705976

>  <TPSA-cont>
0.633028756

>  <pka_cont>
0.97

>  <yes.1>


>  <BBB_SCORE>
4.940133186

>  <MMFF94 Energy>
95.839

$$$$
Compound 1867
Actelion Java MolfileCreator 2.0

  0  0  0  0  0  0              0 V3000
M  V30 BEGIN CTAB
M  V30 COUNTS 51 55 0 0 0
M  V30 BEGIN ATOM
M  V30 1 O -1.7703 -0.563 1.5287 0
M  V30 2 C -0.9811 -0.2195 0.6577 0
M  V30 3 N 0.3938 -0.4673 0.5834 0
M  V30 4 C -1.3466 0.6234 -0.5862 0
M  V30 5 C 1.1371 -1.1407 1.5568 0
M  V30 6 C 0.9654 0.0649 -0.5789 0
M  V30 7 C -0.0223 0.7234 -1.3177 0
M  V30 8 C -2.441 -0.1014 -1.4104 0
M  V30 9 C -1.8743 2.011 -0.1305 0
M  V30 10 C 2.0733 -0.4471 2.3318 0
M  V30 11 C 0.924 -2.5045 1.7727 0
M  V30 12 C 2.2707 -0.0127 -1.0328 0
M  V30 13 C 0.2782 1.3403 -2.5239 0
M  V30 14 C -2.1516 -1.5369 -1.7961 0
M  V30 15 C -0.9601 2.8107 0.7755 0
M  V30 16 C 2.8062 -1.1227 3.3082 0
M  V30 17 C 1.6598 -3.1775 2.7491 0
M  V30 18 C 2.5821 0.6044 -2.2475 0
M  V30 19 C 1.5945 1.2774 -2.9855 0
M  V30 20 C -1.4709 -1.8485 -2.9753 0
M  V30 21 C -2.551 -2.5902 -0.9671 0
M  V30 22 C -1.0044 2.6425 2.1631 0
M  V30 23 C -0.0336 3.7152 0.2506 0
M  V30 24 C 2.6009 -2.4873 3.5143 0
M  V30 25 C -1.2133 -3.1803 -3.2649 0
M  V30 26 C -2.2493 -3.8898 -1.3439 0
M  V30 27 C -0.1219 3.3635 2.9529 0
M  V30 28 C 0.8069 4.391 1.1227 0
M  V30 29 N -1.5875 -4.2089 -2.4754 0
M  V30 30 N 0.7858 4.2337 2.4629 0
M  V30 31 H -3.3858 -0.0938 -0.8484 0
M  V30 32 H -2.6519 0.4648 -2.3283 0
M  V30 33 H -2.8328 1.8855 0.393 0
M  V30 34 H -2.1078 2.6251 -1.0116 0
M  V30 35 H 2.2264 0.6198 2.1863 0
M  V30 36 H 0.1901 -3.0463 1.1816 0
M  V30 37 H 3.0383 -0.5394 -0.4758 0
M  V30 38 H -0.4812 1.8578 -3.1014 0
M  V30 39 H 3.5317 -0.5836 3.9119 0
M  V30 40 H 1.4958 -4.2391 2.9151 0
M  V30 41 H 3.6008 0.5599 -2.6267 0
M  V30 42 H 1.861 1.75 -3.9287 0
M  V30 43 H -1.1373 -1.0779 -3.6615 0
M  V30 44 H -3.0815 -2.4105 -0.0362 0
M  V30 45 H -1.7022 1.9536 2.631 0
M  V30 46 H 0.0481 3.8915 -0.8162 0
M  V30 47 H 3.1701 -3.0127 4.2772 0
M  V30 48 H -0.6814 -3.4618 -4.1691 0
M  V30 49 H -2.5406 -4.7324 -0.7232 0
M  V30 50 H -0.1224 3.2519 4.0335 0
M  V30 51 H 1.5443 5.0973 0.7521 0
M  V30 END ATOM
M  V30 BEGIN BOND
M  V30 1 2 1 2
M  V30 2 1 2 3
M  V30 3 1 2 4
M  V30 4 1 3 5
M  V30 5 1 3 6
M  V30 6 1 4 7
M  V30 7 1 4 8
M  V30 8 1 4 9
M  V30 9 2 5 10
M  V30 10 1 5 11
M  V30 11 1 6 12
M  V30 12 1 7 13
M  V30 13 1 8 14
M  V30 14 1 9 15
M  V30 15 1 10 16
M  V30 16 2 11 17
M  V30 17 2 12 18
M  V30 18 2 13 19
M  V30 19 2 14 20
M  V30 20 1 14 21
M  V30 21 2 15 22
M  V30 22 1 15 23
M  V30 23 2 16 24
M  V30 24 1 20 25
M  V30 25 2 21 26
M  V30 26 1 22 27
M  V30 27 2 23 28
M  V30 28 2 25 29
M  V30 29 2 27 30
M  V30 30 2 6 7
M  V30 31 1 17 24
M  V30 32 1 18 19
M  V30 33 1 26 29
M  V30 34 1 28 30
M  V30 35 1 8 31
M  V30 36 1 8 32
M  V30 37 1 9 33
M  V30 38 1 9 34
M  V30 39 1 10 35
M  V30 40 1 11 36
M  V30 41 1 12 37
M  V30 42 1 13 38
M  V30 43 1 16 39
M  V30 44 1 17 40
M  V30 45 1 18 41
M  V30 46 1 19 42
M  V30 47 1 20 43
M  V30 48 1 21 44
M  V30 49 1 22 45
M  V30 50 1 23 46
M  V30 51 1 24 47
M  V30 52 1 25 48
M  V30 53 1 26 49
M  V30 54 1 27 50
M  V30 55 1 28 51
M  V30 END BOND
M  V30 END CTAB
M  END
>  <Column 1>
2277

>  <level_0>
2458

>  <index>
2458

>  <Unnamed: 0>
2458

>  <NO.>
2470

>  <Name>
linopirdine

>  <IUPAC_name>
1-phenyl-3-3-bis(pyridin-4-ylmethyl)indol-2-one

>  <SMILES>
O=C1N(c2ccccc2)c2ccccc2C1(Cc1ccncc1)Cc1ccncc1

>  <CID>
3932

>  <logBB>


>  <BBB+/BBB->
BBB+

>  <Inchi>
InChI=1S/C26H21N3O/c30-25-26(18-20-10-14-27-15-11-20-19-21-12-16-28-17-13-21)23-8-4-5-9-24(23)29(25)22-6-2-1-3-7-22/h1-17H-18-19H2

>  <threshold>
-1

>  <reference>
R1|R13|R19|R6|R24|R27|R27|R27|R30|R30|

>  <group>
B

>  <Class>
1

>  <ABC>
23.87

>  <ABCGG>
18.56

>  <nAcid>
0

>  <nBase>
0

>  <nAromAtom>
24

>  <nAromBond>
24

>  <nAtom>
51

>  <nHeavyAtom>
30

>  <nSpiro>
0

>  <nBridgehead>
0

>  <nHetero>
4

>  <nN>
3

>  <nO>
1

>  <nF>
0

>  <BalabanJ>
1.45

>  <BertzCT>
1119.05

>  <nBonds>
55

>  <nBondsO>
34

>  <nBondsS>
30

>  <nBondsD>
1

>  <nBondsT>
0

>  <nBondsA>
24

>  <nBondsM>
25

>  <nBondsKS>
42

>  <nBondsKD>
13

>  <RNCG>
0.15

>  <RPCG>
0.13

>  <FCSP3>
0.12

>  <SZ>
34.33

>  <Sm>
32.59

>  <Sv>
34.68

>  <Sse>
50.64

>  <Sp>
36.84

>  <Si>
56.44

>  <MZ>
0.67

>  <Mm>
0.64

>  <Mv>
0.68

>  <Mse>
0.99

>  <Mp>
0.72

>  <Mi>
1.11

>  <NsCH3>
0

>  <NdCH2>
0

>  <NssCH2>
2

>  <NtCH>
0

>  <NdsCH>
0

>  <NaaCH>
17

>  <NsssCH>
0

>  <NddC>
0

>  <NtsC>
0

>  <NdssC>
1

>  <NaasC>
5

>  <NaaaC>
0

>  <NssssC>
1

>  <NsNH3>
0

>  <NsNH2>
0

>  <NssNH2>
0

>  <NdNH>
0

>  <NssNH>
0

>  <NaaNH>
0

>  <NtN>
0

>  <NsssNH>
0

>  <NdsN>
0

>  <NaaN>
2

>  <NsssN>
1

>  <NddsN>
0

>  <NaasN>
0

>  <NssssN>
0

>  <NsOH>
0

>  <NdO>
1

>  <NssO>
0

>  <NaaO>
0

>  <NsF>
0

>  <NsSiH3>
0

>  <NssSiH2>
0

>  <NsssSiH>
0

>  <NssssSi>
0

>  <NsPH2>
0

>  <NssPH>
0

>  <NsssP>
0

>  <NdsssP>
0

>  <NsssssP>
0

>  <NsSH>
0

>  <NdS>
0

>  <NssS>
0

>  <NaaS>
0

>  <NdssS>
0

>  <NddssS>
0

>  <NsCl>
0

>  <NsBr>
0

>  <NsI>
0

>  <fragCpx>
286.04

>  <fMF>
0.57

>  <nHBAcc>
3

>  <nHBDon>
0

>  <Kier1>
21.83

>  <Kier2>
9.87

>  <Lipinski>
1

>  <GhoseFilter>
1

>  <FilterItLogS>
-7.13

>  <VMcGowan>
302.81

>  <LabuteASA>
175.42

>  <PEOE_VSA1>
0

>  <PEOE_VSA2>
19.66

>  <PEOE_VSA3>
0

>  <PEOE_VSA4>
0

>  <PEOE_VSA5>
0

>  <PEOE_VSA6>
36.4

>  <PEOE_VSA7>
72

>  <PEOE_VSA8>
30.47

>  <PEOE_VSA9>
11.1

>  <PEOE_VSA10>
0

>  <PEOE_VSA11>
0

>  <PEOE_VSA12>
5.91

>  <PEOE_VSA13>
0

>  <SMR_VSA1>
4.79

>  <SMR_VSA2>
0

>  <SMR_VSA3>
9.97

>  <SMR_VSA4>
0

>  <SMR_VSA5>
18.26

>  <SMR_VSA6>
4.9

>  <SMR_VSA7>
120.34

>  <SMR_VSA8>
0

>  <SMR_VSA9>
0

>  <SlogP_VSA1>
4.9

>  <SlogP_VSA2>
15.88

>  <SlogP_VSA3>
23.05

>  <SlogP_VSA4>
0

>  <SlogP_VSA5>
16.69

>  <SlogP_VSA6>
103.65

>  <SlogP_VSA7>
0

>  <SlogP_VSA8>
0

>  <SlogP_VSA9>
0

>  <SlogP_VSA10>
11.37

>  <SlogP_VSA11>
0

>  <EState_VSA1>
5.41

>  <EState_VSA2>
5.91

>  <EState_VSA3>
12.84

>  <EState_VSA4>
28.07

>  <EState_VSA5>
0

>  <EState_VSA6>
24.79

>  <EState_VSA7>
77.7

>  <EState_VSA8>
16.03

>  <EState_VSA9>
0

>  <EState_VSA10>
4.79

>  <VSA_EState1>
0

>  <VSA_EState2>
24.36

>  <VSA_EState3>
0

>  <VSA_EState4>
4.4

>  <VSA_EState5>
0.1

>  <VSA_EState6>
26.03

>  <VSA_EState7>
8.37

>  <VSA_EState8>
0

>  <VSA_EState9>
0

>  <apol>
61.52

>  <bpol>
25.93

>  <nRing>
5

>  <nHRing>
3

>  <naRing>
4

>  <naHRing>
2

>  <nARing 2>
1

>  <nAHRing 2>
1

>  <nFRing>
1

>  <nFHRing>
1

>  <nFaRing>
0

>  <nFaHRing>
0

>  <nFARing 2>
1

>  <nFAHRing 2>
1

>  <nRot>
5

>  <SLogP>
4.88

>  <SMR>
117.59

>  <TopoPSA(NO)>
46.09

>  <TopoPSA>
46.09

>  <JGI1>
0.13

>  <JGI2>
0.06

>  <JGI3>
0.06

>  <JGI4>
0.04

>  <JGI5>
0.02

>  <Diameter>
11

>  <Radius>
6

>  <TMWC10>
143.02

>  <TSRW10>
81.05

>  <MW>
391.17

>  <AMW>
7.67

>  <WPath>
2159

>  <WPol>
52

>  <Zagreb1>
164

>  <Zagreb2>
199

>  <mZagreb2>
6.61

>  <yes>


>  <nAR-cont>
0.816016

>  <nHA-cont>
0.74523694

>  <MWHBN>
0.15168355

>  <MWHBN-cont>
0.936809724

>  <TPSA-cont>
0.67826318

>  <pka_cont>
0.97

>  <yes.1>


>  <BBB_SCORE>
4.807993886

>  <MMFF94 Energy>
101.67

$$$$
Compound 1868
Actelion Java MolfileCreator 2.0

  0  0  0  0  0  0              0 V3000
M  V30 BEGIN CTAB
M  V30 COUNTS 28 30 0 0 0
M  V30 BEGIN ATOM
M  V30 1 O -0.5591 -1.0385 -2.4779 0
M  V30 2 C -0.2043 -0.8776 -1.3202 0
M  V30 3 N -0.9394 -1.2027 -0.2353 0
M  V30 4 C 1.1105 -0.3142 -0.8259 0 CFG=2
M  V30 5 C -0.2411 -0.9617 0.88 0
M  V30 6 O 0.9876 -0.4646 0.6012 0
M  V30 7 C 1.3572 1.1227 -1.2353 0
M  V30 8 N -0.6177 -1.1608 2.0918 0
M  V30 9 C 1.4743 2.1566 -0.2925 0
M  V30 10 C 1.4986 1.4435 -2.5962 0
M  V30 11 C -1.9613 -1.688 2.3364 0
M  V30 12 C 1.7128 3.4714 -0.6995 0
M  V30 13 C 1.7359 2.7585 -3.0014 0
M  V30 14 C -2.1597 -3.1753 2.268 0
M  V30 15 C -2.1311 -2.4842 3.5992 0
M  V30 16 C 1.842 3.7722 -2.0528 0
M  V30 17 H -1.8621 -1.5962 -0.2797 0
M  V30 18 H 1.9352 -0.9541 -1.1576 0
M  V30 19 H 1.3848 1.9517 0.7731 0
M  V30 20 H 1.4177 0.6685 -3.3575 0
M  V30 21 H -2.7897 -1.0372 2.0701 0
M  V30 22 H 1.7997 4.2606 0.0432 0
M  V30 23 H 1.837 2.9906 -4.0585 0
M  V30 24 H -1.3116 -3.7993 2.012 0
M  V30 25 H -3.1134 -3.5473 1.914 0
M  V30 26 H -1.2609 -2.6251 4.2301 0
M  V30 27 H -3.062 -2.3774 4.1424 0
M  V30 28 H 2.0273 4.7957 -2.3678 0
M  V30 END ATOM
M  V30 BEGIN BOND
M  V30 1 2 1 2
M  V30 2 1 2 3
M  V30 3 1 2 4
M  V30 4 1 3 5
M  V30 5 1 4 6
M  V30 6 1 4 7
M  V30 7 2 5 8
M  V30 8 2 7 9
M  V30 9 1 7 10
M  V30 10 1 8 11
M  V30 11 1 9 12
M  V30 12 2 10 13
M  V30 13 1 11 14
M  V30 14 1 11 15
M  V30 15 2 12 16
M  V30 16 1 5 6
M  V30 17 1 13 16
M  V30 18 1 14 15
M  V30 19 1 3 17
M  V30 20 1 4 18
M  V30 21 1 9 19
M  V30 22 1 10 20
M  V30 23 1 11 21
M  V30 24 1 12 22
M  V30 25 1 13 23
M  V30 26 1 14 24
M  V30 27 1 14 25
M  V30 28 1 15 26
M  V30 29 1 15 27
M  V30 30 1 16 28
M  V30 END BOND
M  V30 BEGIN COLLECTION
M  V30 MDLV30/STERAC1 ATOMS=(1 4)
M  V30 END COLLECTION
M  V30 END CTAB
M  END
>  <Column 1>
2278

>  <level_0>
2459

>  <index>
2459

>  <Unnamed: 0>
2459

>  <NO.>
2471

>  <Name>
cyclazodone

>  <IUPAC_name>
2-cyclopropylimino-5-phenyl-1-3-oxazolidin-4-one

>  <SMILES>
O=C1NC(=NC2CC2)OC1c1ccccc1

>  <CID>
135438121

>  <logBB>


>  <BBB+/BBB->
BBB+

>  <Inchi>
InChI=1S/C12H12N2O2/c15-11-10(8-4-2-1-3-5-8)16-12(14-11)13-9-6-7-9/h1-5-9-10H-6-7H2-(H-13-14-15)

>  <threshold>
-1

>  <reference>
R1|R19|R6|R27|R27|R30|

>  <group>
B

>  <Class>
1

>  <ABC>
12.76

>  <ABCGG>
10.83

>  <nAcid>
0

>  <nBase>
2

>  <nAromAtom>
6

>  <nAromBond>
6

>  <nAtom>
28

>  <nHeavyAtom>
16

>  <nSpiro>
0

>  <nBridgehead>
0

>  <nHetero>
4

>  <nN>
2

>  <nO>
2

>  <nF>
0

>  <BalabanJ>
1.53

>  <BertzCT>
437.59

>  <nBonds>
30

>  <nBondsO>
18

>  <nBondsS>
22

>  <nBondsD>
2

>  <nBondsT>
0

>  <nBondsA>
6

>  <nBondsM>
8

>  <nBondsKS>
25

>  <nBondsKD>
5

>  <RNCG>
0.28

>  <RPCG>
0.19

>  <FCSP3>
0.33

>  <SZ>
19

>  <Sm>
18

>  <Sv>
18.2

>  <Sse>
28.31

>  <Sp>
19.07

>  <Si>
31.49

>  <MZ>
0.68

>  <Mm>
0.64

>  <Mv>
0.65

>  <Mse>
1.01

>  <Mp>
0.68

>  <Mi>
1.12

>  <NsCH3>
0

>  <NdCH2>
0

>  <NssCH2>
2

>  <NtCH>
0

>  <NdsCH>
0

>  <NaaCH>
5

>  <NsssCH>
2

>  <NddC>
0

>  <NtsC>
0

>  <NdssC>
2

>  <NaasC>
1

>  <NaaaC>
0

>  <NssssC>
0

>  <NsNH3>
0

>  <NsNH2>
0

>  <NssNH2>
0

>  <NdNH>
0

>  <NssNH>
1

>  <NaaNH>
0

>  <NtN>
0

>  <NsssNH>
0

>  <NdsN>
1

>  <NaaN>
0

>  <NsssN>
0

>  <NddsN>
0

>  <NaasN>
0

>  <NssssN>
0

>  <NsOH>
0

>  <NdO>
1

>  <NssO>
1

>  <NaaO>
0

>  <NsF>
0

>  <NsSiH3>
0

>  <NssSiH2>
0

>  <NsssSiH>
0

>  <NssssSi>
0

>  <NsPH2>
0

>  <NssPH>
0

>  <NsssP>
0

>  <NdsssP>
0

>  <NsssssP>
0

>  <NsSH>
0

>  <NdS>
0

>  <NssS>
0

>  <NaaS>
0

>  <NdssS>
0

>  <NddssS>
0

>  <NsCl>
0

>  <NsBr>
0

>  <NsI>
0

>  <fragCpx>
84.04

>  <fMF>
0.54

>  <nHBAcc>
3

>  <nHBDon>
1

>  <Kier1>
11.11

>  <Kier2>
4.7

>  <Lipinski>
1

>  <GhoseFilter>
1

>  <FilterItLogS>
-2.56

>  <VMcGowan>
157.56

>  <LabuteASA>
93.33

>  <PEOE_VSA1>
4.74

>  <PEOE_VSA2>
10.11

>  <PEOE_VSA3>
4.99

>  <PEOE_VSA4>
0

>  <PEOE_VSA5>
0

>  <PEOE_VSA6>
30.33

>  <PEOE_VSA7>
12.84

>  <PEOE_VSA8>
5.56

>  <PEOE_VSA9>
6.04

>  <PEOE_VSA10>
0

>  <PEOE_VSA11>
0

>  <PEOE_VSA12>
6.1

>  <PEOE_VSA13>
11.93

>  <SMR_VSA1>
9.53

>  <SMR_VSA2>
0

>  <SMR_VSA3>
5.32

>  <SMR_VSA4>
4.99

>  <SMR_VSA5>
24.99

>  <SMR_VSA6>
0

>  <SMR_VSA7>
35.9

>  <SMR_VSA8>
0

>  <SMR_VSA9>
0

>  <SlogP_VSA1>
5.32

>  <SlogP_VSA2>
17.97

>  <SlogP_VSA3>
9.53

>  <SlogP_VSA4>
0

>  <SlogP_VSA5>
24.51

>  <SlogP_VSA6>
35.32

>  <SlogP_VSA7>
0

>  <SlogP_VSA8>
0

>  <SlogP_VSA9>
0

>  <SlogP_VSA10>
0

>  <SlogP_VSA11>
0

>  <EState_VSA1>
6.1

>  <EState_VSA2>
5.91

>  <EState_VSA3>
12.06

>  <EState_VSA4>
18.41

>  <EState_VSA5>
0

>  <EState_VSA6>
0

>  <EState_VSA7>
30.33

>  <EState_VSA8>
10.31

>  <EState_VSA9>
4.74

>  <EState_VSA10>
4.79

>  <VSA_EState1>
5.5

>  <VSA_EState2>
15.95

>  <VSA_EState3>
2.66

>  <VSA_EState4>
0.86

>  <VSA_EState5>
-0.13

>  <VSA_EState6>
10.18

>  <VSA_EState7>
1.65

>  <VSA_EState8>
0

>  <VSA_EState9>
0

>  <apol>
31.85

>  <bpol>
16.35

>  <nRing>
3

>  <nHRing>
1

>  <naRing>
1

>  <naHRing>
0

>  <nARing 2>
2

>  <nAHRing 2>
1

>  <nFRing>
0

>  <nFHRing>
0

>  <nFaRing>
0

>  <nFaHRing>
0

>  <nFARing 2>
0

>  <nFAHRing 2>
0

>  <nRot>
2

>  <SLogP>
1.39

>  <SMR>
58.87

>  <TopoPSA(NO)>
50.69

>  <TopoPSA>
50.69

>  <JGI1>
0.17

>  <JGI2>
0.06

>  <JGI3>
0.06

>  <JGI4>
0.03

>  <JGI5>
0.02

>  <Diameter>
9

>  <Radius>
5

>  <TMWC10>
105.43

>  <TSRW10>
67.91

>  <MW>
216.09

>  <AMW>
7.72

>  <WPath>
451

>  <WPol>
20

>  <Zagreb1>
86

>  <Zagreb2>
101

>  <mZagreb2>
3.47

>  <yes>


>  <nAR-cont>
1

>  <nHA-cont>
0.954961865

>  <MWHBN>
0.272108844

>  <MWHBN-cont>
0.915263181

>  <TPSA-cont>
0.646152323

>  <pka_cont>
0.97

>  <yes.1>


>  <BBB_SCORE>
5.105161284

>  <MMFF94 Energy>
-22.722

$$$$
Compound 1869
Actelion Java MolfileCreator 2.0

  0  0  0  0  0  0              0 V3000
M  V30 BEGIN CTAB
M  V30 COUNTS 41 43 0 0 0
M  V30 BEGIN ATOM
M  V30 1 O 1.117 2.235 -4.0739 0
M  V30 2 C 0.8325 1.771 -2.9755 0
M  V30 3 N -0.2347 2.2203 -2.2679 0
M  V30 4 N 1.5343 0.7467 -2.4299 0
M  V30 5 C -0.6436 1.7789 -1.0409 0
M  V30 6 C 1.2613 0.1189 -1.2475 0
M  V30 7 O -1.6929 2.2179 -0.5681 0
M  V30 8 C 0.2872 0.8203 -0.2896 0
M  V30 9 O 1.8337 -0.9397 -0.9872 0
M  V30 10 C 1.1457 1.5929 0.7636 0
M  V30 11 C -0.5831 -0.2265 0.4845 0
M  V30 12 C 2.1109 0.9037 1.5282 0
M  V30 13 C 0.999 2.9721 1.0027 0
M  V30 14 C -1.7217 -0.9403 -0.2982 0 CFG=2
M  V30 15 C 2.8997 1.564 2.4735 0
M  V30 16 C 1.7894 3.6305 1.9507 0
M  V30 17 N -2.6323 -1.644 0.6246 0
M  V30 18 C -1.2782 -1.9119 -1.403 0
M  V30 19 C 2.7402 2.9284 2.6832 0
M  V30 20 C -2.0619 -2.8532 1.2164 0
M  V30 21 C -0.6644 -3.1953 -0.8504 0
M  V30 22 C -1.6138 -3.8458 0.1485 0
M  V30 23 H -0.8096 2.9209 -2.7156 0
M  V30 24 H 2.2616 0.3428 -3.0037 0
M  V30 25 H -1.0515 0.2972 1.3322 0
M  V30 26 H 0.0693 -0.9835 0.9363 0
M  V30 27 H 2.2673 -0.1668 1.3989 0
M  V30 28 H 0.262 3.5748 0.4766 0
M  V30 29 H -2.3394 -0.1777 -0.7825 0
M  V30 30 H 3.6378 1.0081 3.0465 0
M  V30 31 H 1.6549 4.6964 2.1206 0
M  V30 32 H -2.9353 -1.0103 1.3649 0
M  V30 33 H -0.5933 -1.4345 -2.1072 0
M  V30 34 H -2.1604 -2.1852 -1.9993 0
M  V30 35 H 3.3511 3.4428 3.4203 0
M  V30 36 H -2.8249 -3.3286 1.843 0
M  V30 37 H -1.2267 -2.6036 1.8802 0
M  V30 38 H 0.2914 -2.982 -0.3609 0
M  V30 39 H -0.4546 -3.8908 -1.6705 0
M  V30 40 H -2.4923 -4.2321 -0.3838 0
M  V30 41 H -1.1247 -4.7051 0.6206 0
M  V30 END ATOM
M  V30 BEGIN BOND
M  V30 1 2 1 2
M  V30 2 1 2 3
M  V30 3 1 2 4
M  V30 4 1 3 5
M  V30 5 1 4 6
M  V30 6 2 5 7
M  V30 7 1 5 8
M  V30 8 2 6 9
M  V30 9 1 8 10
M  V30 10 1 8 11
M  V30 11 2 10 12
M  V30 12 1 10 13
M  V30 13 1 11 14
M  V30 14 1 12 15
M  V30 15 2 13 16
M  V30 16 1 14 17
M  V30 17 1 14 18
M  V30 18 2 15 19
M  V30 19 1 17 20
M  V30 20 1 18 21
M  V30 21 1 20 22
M  V30 22 1 6 8
M  V30 23 1 16 19
M  V30 24 1 21 22
M  V30 25 1 3 23
M  V30 26 1 4 24
M  V30 27 1 11 25
M  V30 28 1 11 26
M  V30 29 1 12 27
M  V30 30 1 13 28
M  V30 31 1 14 29
M  V30 32 1 15 30
M  V30 33 1 16 31
M  V30 34 1 17 32
M  V30 35 1 18 33
M  V30 36 1 18 34
M  V30 37 1 19 35
M  V30 38 1 20 36
M  V30 39 1 20 37
M  V30 40 1 21 38
M  V30 41 1 21 39
M  V30 42 1 22 40
M  V30 43 1 22 41
M  V30 END BOND
M  V30 BEGIN COLLECTION
M  V30 MDLV30/STERAC1 ATOMS=(1 14)
M  V30 END COLLECTION
M  V30 END CTAB
M  END
>  <Column 1>
2279

>  <level_0>
2460

>  <index>
2460

>  <Unnamed: 0>
2460

>  <NO.>
2472

>  <Name>
prazitone

>  <IUPAC_name>
5-phenyl-5-(piperidin-2-ylmethyl)-1-3-diazinane-2-4-6-trione

>  <SMILES>
O=C1NC(=O)C(CC2CCCCN2)(c2ccccc2)C(=O)N1

>  <CID>
3050417

>  <logBB>


>  <BBB+/BBB->
BBB+

>  <Inchi>
InChI=1S/C16H19N3O3/c20-13-16(11-6-2-1-3-7-11-14(21)19-15(22)18-13)10-12-8-4-5-9-17-12/h1-3-6-7-12-17H-4-5-8-10H2-(H2-18-19-20-21-22)

>  <threshold>
-1

>  <reference>
R1|R19|R6|R27|R27|R30|

>  <group>
B

>  <Class>
1

>  <ABC>
17.11

>  <ABCGG>
14.38

>  <nAcid>
0

>  <nBase>
1

>  <nAromAtom>
6

>  <nAromBond>
6

>  <nAtom>
41

>  <nHeavyAtom>
22

>  <nSpiro>
0

>  <nBridgehead>
0

>  <nHetero>
6

>  <nN>
3

>  <nO>
3

>  <nF>
0

>  <BalabanJ>
1.82

>  <BertzCT>
573.91

>  <nBonds>
43

>  <nBondsO>
24

>  <nBondsS>
34

>  <nBondsD>
3

>  <nBondsT>
0

>  <nBondsA>
6

>  <nBondsM>
9

>  <nBondsKS>
37

>  <nBondsKD>
6

>  <RNCG>
0.15

>  <RPCG>
0.15

>  <FCSP3>
0.44

>  <SZ>
26.67

>  <Sm>
25.09

>  <Sv>
25.57

>  <Sse>
41.42

>  <Sp>
27

>  <Si>
46.45

>  <MZ>
0.65

>  <Mm>
0.61

>  <Mv>
0.62

>  <Mse>
1.01

>  <Mp>
0.66

>  <Mi>
1.13

>  <NsCH3>
0

>  <NdCH2>
0

>  <NssCH2>
5

>  <NtCH>
0

>  <NdsCH>
0

>  <NaaCH>
5

>  <NsssCH>
1

>  <NddC>
0

>  <NtsC>
0

>  <NdssC>
3

>  <NaasC>
1

>  <NaaaC>
0

>  <NssssC>
1

>  <NsNH3>
0

>  <NsNH2>
0

>  <NssNH2>
0

>  <NdNH>
0

>  <NssNH>
3

>  <NaaNH>
0

>  <NtN>
0

>  <NsssNH>
0

>  <NdsN>
0

>  <NaaN>
0

>  <NsssN>
0

>  <NddsN>
0

>  <NaasN>
0

>  <NssssN>
0

>  <NsOH>
0

>  <NdO>
3

>  <NssO>
0

>  <NaaO>
0

>  <NsF>
0

>  <NsSiH3>
0

>  <NssSiH2>
0

>  <NsssSiH>
0

>  <NssssSi>
0

>  <NsPH2>
0

>  <NssPH>
0

>  <NsssP>
0

>  <NdsssP>
0

>  <NsssssP>
0

>  <NsSH>
0

>  <NdS>
0

>  <NssS>
0

>  <NaaS>
0

>  <NdssS>
0

>  <NddssS>
0

>  <NsCl>
0

>  <NsBr>
0

>  <NsI>
0

>  <fragCpx>
114.06

>  <fMF>
0.46

>  <nHBAcc>
4

>  <nHBDon>
3

>  <Kier1>
16.84

>  <Kier2>
7.27

>  <Lipinski>
1

>  <GhoseFilter>
1

>  <FilterItLogS>
-4.11

>  <VMcGowan>
225.47

>  <LabuteASA>
128.2

>  <PEOE_VSA1>
5.32

>  <PEOE_VSA2>
20.22

>  <PEOE_VSA3>
4.79

>  <PEOE_VSA4>
0

>  <PEOE_VSA5>
0

>  <PEOE_VSA6>
36.75

>  <PEOE_VSA7>
31.37

>  <PEOE_VSA8>
6.04

>  <PEOE_VSA9>
0

>  <PEOE_VSA10>
0

>  <PEOE_VSA11>
5.41

>  <PEOE_VSA12>
11.81

>  <PEOE_VSA13>
0

>  <SMR_VSA1>
14.38

>  <SMR_VSA2>
0

>  <SMR_VSA3>
15.95

>  <SMR_VSA4>
0

>  <SMR_VSA5>
37.14

>  <SMR_VSA6>
6.54

>  <SMR_VSA7>
35.9

>  <SMR_VSA8>
0

>  <SMR_VSA9>
0

>  <SlogP_VSA1>
15.95

>  <SlogP_VSA2>
30.43

>  <SlogP_VSA3>
15

>  <SlogP_VSA4>
0

>  <SlogP_VSA5>
31.25

>  <SlogP_VSA6>
30.33

>  <SlogP_VSA7>
0

>  <SlogP_VSA8>
0

>  <SlogP_VSA9>
0

>  <SlogP_VSA10>
4.79

>  <SlogP_VSA11>
0

>  <EState_VSA1>
23.26

>  <EState_VSA2>
6.04

>  <EState_VSA3>
11.98

>  <EState_VSA4>
25.81

>  <EState_VSA5>
0

>  <EState_VSA6>
24.27

>  <EState_VSA7>
6.07

>  <EState_VSA8>
15.95

>  <EState_VSA9>
0

>  <EState_VSA10>
14.38

>  <VSA_EState1>
0

>  <VSA_EState2>
36.6

>  <VSA_EState3>
7.87

>  <VSA_EState4>
-0.74

>  <VSA_EState5>
-1.08

>  <VSA_EState6>
8.27

>  <VSA_EState7>
3.45

>  <VSA_EState8>
0.89

>  <VSA_EState9>
0

>  <apol>
45.1

>  <bpol>
23.37

>  <nRing>
3

>  <nHRing>
2

>  <naRing>
1

>  <naHRing>
0

>  <nARing 2>
2

>  <nAHRing 2>
2

>  <nFRing>
0

>  <nFHRing>
0

>  <nFaRing>
0

>  <nFaHRing>
0

>  <nFARing 2>
0

>  <nFAHRing 2>
0

>  <nRot>
3

>  <SLogP>
0.82

>  <SMR>
80.06

>  <TopoPSA(NO)>
87.3

>  <TopoPSA>
87.3

>  <JGI1>
0.21

>  <JGI2>
0.08

>  <JGI3>
0.06

>  <JGI4>
0.05

>  <JGI5>
0.02

>  <Diameter>
9

>  <Radius>
5

>  <TMWC10>
121.3

>  <TSRW10>
56.56

>  <MW>
301.14

>  <AMW>
7.34

>  <WPath>
944

>  <WPol>
38

>  <Zagreb1>
116

>  <Zagreb2>
139

>  <mZagreb2>
4.88

>  <yes>


>  <nAR-cont>
1

>  <nHA-cont>
0.983774276

>  <MWHBN>
0.403379494

>  <MWHBN-cont>
0.462770299

>  <TPSA-cont>
0.39059179

>  <pka_cont>
0.97

>  <yes.1>


>  <BBB_SCORE>
3.944113304

>  <MMFF94 Energy>
-80.659

$$$$
Compound 1870
Actelion Java MolfileCreator 2.0

  0  0  0  0  0  0              0 V3000
M  V30 BEGIN CTAB
M  V30 COUNTS 28 30 0 0 0
M  V30 BEGIN ATOM
M  V30 1 O 0.4809 -3.129 3.0487 0
M  V30 2 C 0.9405 -2.4119 2.1795 0
M  V30 3 N 2.2507 -2.2372 1.8951 0
M  V30 4 N 0.2031 -1.6348 1.3222 0
M  V30 5 C 2.4151 -1.3528 0.8744 0
M  V30 6 C 1.032 -0.8785 0.4002 0 CFG=2
M  V30 7 O 3.4945 -1.0052 0.4192 0
M  V30 8 C 0.9007 0.6342 0.5903 0
M  V30 9 C 0.7988 -1.2808 -1.053 0
M  V30 10 C -0.3257 1.2073 -0.083 0
M  V30 11 C -0.6008 -0.8839 -1.5168 0
M  V30 12 C -1.0046 0.5085 -1.0982 0
M  V30 13 C -0.7598 2.4919 0.279 0
M  V30 14 C -2.1254 1.0962 -1.7044 0
M  V30 15 C -1.8694 3.0674 -0.3383 0
M  V30 16 C -2.5536 2.3688 -1.328 0
M  V30 17 H 2.9987 -2.6969 2.3846 0
M  V30 18 H -0.807 -1.593 1.3817 0
M  V30 19 H 0.8762 0.8757 1.6613 0
M  V30 20 H 1.7761 1.1432 0.1657 0
M  V30 21 H 0.9387 -2.3596 -1.1969 0
M  V30 22 H 1.5445 -0.7874 -1.6914 0
M  V30 23 H -0.644 -0.969 -2.6094 0
M  V30 24 H -1.3347 -1.5883 -1.1055 0
M  V30 25 H -0.2323 3.0536 1.0474 0
M  V30 26 H -2.6729 0.5623 -2.4786 0
M  V30 27 H -2.1989 4.0615 -0.0475 0
M  V30 28 H -3.4203 2.8151 -1.8085 0
M  V30 END ATOM
M  V30 BEGIN BOND
M  V30 1 2 1 2
M  V30 2 1 2 3
M  V30 3 1 2 4
M  V30 4 1 3 5
M  V30 5 1 4 6
M  V30 6 2 5 7
M  V30 7 1 6 8
M  V30 8 1 6 9
M  V30 9 1 8 10
M  V30 10 1 9 11
M  V30 11 2 10 12
M  V30 12 1 10 13
M  V30 13 1 12 14
M  V30 14 2 13 15
M  V30 15 2 14 16
M  V30 16 1 5 6
M  V30 17 1 11 12
M  V30 18 1 15 16
M  V30 19 1 3 17
M  V30 20 1 4 18
M  V30 21 1 8 19
M  V30 22 1 8 20
M  V30 23 1 9 21
M  V30 24 1 9 22
M  V30 25 1 11 23
M  V30 26 1 11 24
M  V30 27 1 13 25
M  V30 28 1 14 26
M  V30 29 1 15 27
M  V30 30 1 16 28
M  V30 END BOND
M  V30 BEGIN COLLECTION
M  V30 MDLV30/STERAC1 ATOMS=(1 6)
M  V30 END COLLECTION
M  V30 END CTAB
M  END
>  <Column 1>
2280

>  <level_0>
2461

>  <index>
2461

>  <Unnamed: 0>
2461

>  <NO.>
2473

>  <Name>
tetrantoin

>  <IUPAC_name>
spiro[2-4-dihydro-1h-naphthalene-3-5'-imidazolidine]-2'-4'-dione

>  <SMILES>
O=C1NC(=O)C2(CCc3ccccc3C2)N1

>  <CID>
71726

>  <logBB>


>  <BBB+/BBB->
BBB+

>  <Inchi>
InChI=1S/C12H12N2O2/c15-10-12(14-11(16)13-10)6-5-8-3-1-2-4-9(8)7-12/h1-4H-5-7H2-(H2-13-14-15-16)

>  <threshold>
-1

>  <reference>
R1|R13|R19|R6|R27|R27|R30|

>  <group>
B

>  <Class>
1

>  <ABC>
12.84

>  <ABCGG>
10.8

>  <nAcid>
0

>  <nBase>
0

>  <nAromAtom>
6

>  <nAromBond>
6

>  <nAtom>
28

>  <nHeavyAtom>
16

>  <nSpiro>
1

>  <nBridgehead>
0

>  <nHetero>
4

>  <nN>
2

>  <nO>
2

>  <nF>
0

>  <BalabanJ>
1.74

>  <BertzCT>
483.66

>  <nBonds>
30

>  <nBondsO>
18

>  <nBondsS>
22

>  <nBondsD>
2

>  <nBondsT>
0

>  <nBondsA>
6

>  <nBondsM>
8

>  <nBondsKS>
25

>  <nBondsKD>
5

>  <RNCG>
0.22

>  <RPCG>
0.22

>  <FCSP3>
0.33

>  <SZ>
19

>  <Sm>
18

>  <Sv>
18.2

>  <Sse>
28.31

>  <Sp>
19.07

>  <Si>
31.49

>  <MZ>
0.68

>  <Mm>
0.64

>  <Mv>
0.65

>  <Mse>
1.01

>  <Mp>
0.68

>  <Mi>
1.12

>  <NsCH3>
0

>  <NdCH2>
0

>  <NssCH2>
3

>  <NtCH>
0

>  <NdsCH>
0

>  <NaaCH>
4

>  <NsssCH>
0

>  <NddC>
0

>  <NtsC>
0

>  <NdssC>
2

>  <NaasC>
2

>  <NaaaC>
0

>  <NssssC>
1

>  <NsNH3>
0

>  <NsNH2>
0

>  <NssNH2>
0

>  <NdNH>
0

>  <NssNH>
2

>  <NaaNH>
0

>  <NtN>
0

>  <NsssNH>
0

>  <NdsN>
0

>  <NaaN>
0

>  <NsssN>
0

>  <NddsN>
0

>  <NaasN>
0

>  <NssssN>
0

>  <NsOH>
0

>  <NdO>
2

>  <NssO>
0

>  <NaaO>
0

>  <NsF>
0

>  <NsSiH3>
0

>  <NssSiH2>
0

>  <NsssSiH>
0

>  <NssssSi>
0

>  <NsPH2>
0

>  <NssPH>
0

>  <NsssP>
0

>  <NdsssP>
0

>  <NsssssP>
0

>  <NsSH>
0

>  <NdS>
0

>  <NssS>
0

>  <NaaS>
0

>  <NdssS>
0

>  <NddssS>
0

>  <NsCl>
0

>  <NsBr>
0

>  <NsI>
0

>  <fragCpx>
84.04

>  <fMF>
0.5

>  <nHBAcc>
2

>  <nHBDon>
2

>  <Kier1>
11.11

>  <Kier2>
4.03

>  <Lipinski>
1

>  <GhoseFilter>
1

>  <FilterItLogS>
-3.33

>  <VMcGowan>
157.56

>  <LabuteASA>
93.03

>  <PEOE_VSA1>
5.32

>  <PEOE_VSA2>
10.11

>  <PEOE_VSA3>
4.79

>  <PEOE_VSA4>
0

>  <PEOE_VSA5>
0

>  <PEOE_VSA6>
24.27

>  <PEOE_VSA7>
23.97

>  <PEOE_VSA8>
6.42

>  <PEOE_VSA9>
0

>  <PEOE_VSA10>
5.54

>  <PEOE_VSA11>
0

>  <PEOE_VSA12>
0

>  <PEOE_VSA13>
5.91

>  <SMR_VSA1>
9.59

>  <SMR_VSA2>
0

>  <SMR_VSA3>
10.63

>  <SMR_VSA4>
0

>  <SMR_VSA5>
24.8

>  <SMR_VSA6>
0

>  <SMR_VSA7>
35.39

>  <SMR_VSA8>
0

>  <SMR_VSA9>
0

>  <SlogP_VSA1>
10.63

>  <SlogP_VSA2>
17.48

>  <SlogP_VSA3>
17.64

>  <SlogP_VSA4>
0

>  <SlogP_VSA5>
17.55

>  <SlogP_VSA6>
24.27

>  <SlogP_VSA7>
0

>  <SlogP_VSA8>
0

>  <SlogP_VSA9>
0

>  <SlogP_VSA10>
4.79

>  <SlogP_VSA11>
0

>  <EState_VSA1>
5.54

>  <EState_VSA2>
11.94

>  <EState_VSA3>
12.84

>  <EState_VSA4>
11.98

>  <EState_VSA5>
5.56

>  <EState_VSA6>
0

>  <EState_VSA7>
18.2

>  <EState_VSA8>
16.7

>  <EState_VSA9>
0

>  <EState_VSA10>
9.59

>  <VSA_EState1>
0

>  <VSA_EState2>
22.97

>  <VSA_EState3>
5.08

>  <VSA_EState4>
1.74

>  <VSA_EState5>
-0.19

>  <VSA_EState6>
7.7

>  <VSA_EState7>
2.12

>  <VSA_EState8>
0

>  <VSA_EState9>
0

>  <apol>
31.85

>  <bpol>
14.91

>  <nRing>
3

>  <nHRing>
1

>  <naRing>
1

>  <naHRing>
0

>  <nARing 2>
2

>  <nAHRing 2>
1

>  <nFRing>
1

>  <nFHRing>
0

>  <nFaRing>
0

>  <nFaHRing>
0

>  <nFARing 2>
1

>  <nFAHRing 2>
0

>  <nRot>
0

>  <SLogP>
0.75

>  <SMR>
57.87

>  <TopoPSA(NO)>
58.2

>  <TopoPSA>
58.2

>  <JGI1>
0.25

>  <JGI2>
0.09

>  <JGI3>
0.06

>  <JGI4>
0.05

>  <JGI5>
0.03

>  <Diameter>
8

>  <Radius>
4

>  <TMWC10>
107.23

>  <TSRW10>
63.57

>  <MW>
216.09

>  <AMW>
7.72

>  <WPath>
399

>  <WPol>
26

>  <Zagreb1>
90

>  <Zagreb2>
109

>  <mZagreb2>
3.4

>  <yes>


>  <nAR-cont>
1

>  <nHA-cont>
0.954961865

>  <MWHBN>
0.272108844

>  <MWHBN-cont>
0.915263181

>  <TPSA-cont>
0.59372786

>  <pka_cont>
0.97

>  <yes.1>


>  <BBB_SCORE>
5.000312357

>  <MMFF94 Energy>
-44.744

$$$$
Compound 1871
Actelion Java MolfileCreator 2.0

  0  0  0  0  0  0              0 V3000
M  V30 BEGIN CTAB
M  V30 COUNTS 23 25 0 0 0
M  V30 BEGIN ATOM
M  V30 1 Cl -4.868 0.1647 -1.6482 0
M  V30 2 C -3.2659 0.1296 -1.0241 0
M  V30 3 C -3.0574 0.0178 0.346 0
M  V30 4 C -2.1818 0.2058 -1.8919 0
M  V30 5 C -1.7525 -0.0133 0.8482 0
M  V30 6 C -0.8796 0.1744 -1.3817 0
M  V30 7 C -0.6335 0.0848 8.0E-4 0
M  V30 8 C 0.7686 -0.0257 0.5596 0
M  V30 9 C 1.5384 1.236 0.8583 0
M  V30 10 C 1.8171 -0.9471 -0.0937 0
M  V30 11 C 1.1937 -1.3195 1.2233 0
M  V30 12 O 1.0497 2.252 1.3222 0
M  V30 13 N 2.8248 1.0666 0.4471 0
M  V30 14 C 3.0515 -0.1248 -0.1654 0
M  V30 15 O 4.0543 -0.468 -0.7639 0
M  V30 16 H -3.8998 -0.0458 1.0296 0
M  V30 17 H -2.3394 0.2881 -2.9641 0
M  V30 18 H -1.6056 -0.1022 1.9237 0
M  V30 19 H -0.0467 0.232 -2.08 0
M  V30 20 H 1.5662 -1.5382 -0.9632 0
M  V30 21 H 0.5014 -2.1552 1.2283 0
M  V30 22 H 1.8014 -1.265 2.1205 0
M  V30 23 H 3.5141 1.7979 0.4974 0
M  V30 END ATOM
M  V30 BEGIN BOND
M  V30 1 1 1 2
M  V30 2 2 2 3
M  V30 3 1 2 4
M  V30 4 1 3 5
M  V30 5 2 4 6
M  V30 6 2 5 7
M  V30 7 1 7 8
M  V30 8 1 8 9
M  V30 9 1 8 10
M  V30 10 1 8 11
M  V30 11 2 9 12
M  V30 12 1 9 13
M  V30 13 1 10 14
M  V30 14 2 14 15
M  V30 15 1 6 7
M  V30 16 1 10 11
M  V30 17 1 13 14
M  V30 18 1 3 16
M  V30 19 1 4 17
M  V30 20 1 5 18
M  V30 21 1 6 19
M  V30 22 1 10 20
M  V30 23 1 11 21
M  V30 24 1 11 22
M  V30 25 1 13 23
M  V30 END BOND
M  V30 END CTAB
M  END
>  <Column 1>
2281

>  <level_0>
2462

>  <index>
2462

>  <Unnamed: 0>
2462

>  <NO.>
2474

>  <Name>
cyproximide(ciproximide)

>  <IUPAC_name>
1-(4-chlorophenyl)-3-azabicyclo[3.1.0]hexane-2-4-dione

>  <SMILES>
O=C1NC(=O)C2(c3ccc(Cl)cc3)CC12

>  <CID>
27361

>  <logBB>


>  <BBB+/BBB->
BBB+

>  <Inchi>
InChI=1S/C11H8ClNO2/c12-7-3-1-6(2-4-7)11-5-8(11)9(14)13-10(11)15/h1-4-8H-5H2-(H-13-14-15)

>  <threshold>
-1

>  <reference>
R1|R19|R6|R27|R27|R30|

>  <group>
B

>  <Class>
-1

>  <ABC>
12.12

>  <ABCGG>
11.52

>  <nAcid>
0

>  <nBase>
0

>  <nAromAtom>
6

>  <nAromBond>
6

>  <nAtom>
23

>  <nHeavyAtom>
15

>  <nSpiro>
0

>  <nBridgehead>
0

>  <nHetero>
4

>  <nN>
1

>  <nO>
2

>  <nF>
0

>  <BalabanJ>
1.73

>  <BertzCT>
467.98

>  <nBonds>
25

>  <nBondsO>
17

>  <nBondsS>
17

>  <nBondsD>
2

>  <nBondsT>
0

>  <nBondsA>
6

>  <nBondsM>
8

>  <nBondsKS>
20

>  <nBondsKD>
5

>  <RNCG>
0.25

>  <RPCG>
0.2

>  <FCSP3>
0.27

>  <SZ>
19

>  <Sm>
18.45

>  <Sv>
16.45

>  <Sse>
23.64

>  <Sp>
17.12

>  <Si>
25.52

>  <MZ>
0.83

>  <Mm>
0.8

>  <Mv>
0.72

>  <Mse>
1.03

>  <Mp>
0.74

>  <Mi>
1.11

>  <NsCH3>
0

>  <NdCH2>
0

>  <NssCH2>
1

>  <NtCH>
0

>  <NdsCH>
0

>  <NaaCH>
4

>  <NsssCH>
1

>  <NddC>
0

>  <NtsC>
0

>  <NdssC>
2

>  <NaasC>
2

>  <NaaaC>
0

>  <NssssC>
1

>  <NsNH3>
0

>  <NsNH2>
0

>  <NssNH2>
0

>  <NdNH>
0

>  <NssNH>
1

>  <NaaNH>
0

>  <NtN>
0

>  <NsssNH>
0

>  <NdsN>
0

>  <NaaN>
0

>  <NsssN>
0

>  <NddsN>
0

>  <NaasN>
0

>  <NssssN>
0

>  <NsOH>
0

>  <NdO>
2

>  <NssO>
0

>  <NaaO>
0

>  <NsF>
0

>  <NsSiH3>
0

>  <NssSiH2>
0

>  <NsssSiH>
0

>  <NssssSi>
0

>  <NsPH2>
0

>  <NssPH>
0

>  <NsssP>
0

>  <NdsssP>
0

>  <NsssssP>
0

>  <NsSH>
0

>  <NdS>
0

>  <NssS>
0

>  <NaaS>
0

>  <NdssS>
0

>  <NddssS>
0

>  <NsCl>
1

>  <NsBr>
0

>  <NsI>
0

>  <fragCpx>
79.04

>  <fMF>
0.52

>  <nHBAcc>
2

>  <nHBDon>
1

>  <Kier1>
10.17

>  <Kier2>
3.25

>  <Lipinski>
1

>  <GhoseFilter>
1

>  <FilterItLogS>
-3.38

>  <VMcGowan>
145.73

>  <LabuteASA>
91.42

>  <PEOE_VSA1>
0

>  <PEOE_VSA2>
14.91

>  <PEOE_VSA3>
0

>  <PEOE_VSA4>
0

>  <PEOE_VSA5>
0

>  <PEOE_VSA6>
23.73

>  <PEOE_VSA7>
24.12

>  <PEOE_VSA8>
5.02

>  <PEOE_VSA9>
11.33

>  <PEOE_VSA10>
0

>  <PEOE_VSA11>
0

>  <PEOE_VSA12>
11.81

>  <PEOE_VSA13>
0

>  <SMR_VSA1>
9.59

>  <SMR_VSA2>
0

>  <SMR_VSA3>
5.32

>  <SMR_VSA4>
5.92

>  <SMR_VSA5>
11.84

>  <SMR_VSA6>
0

>  <SMR_VSA7>
34.85

>  <SMR_VSA8>
0

>  <SMR_VSA9>
0

>  <SlogP_VSA1>
5.32

>  <SlogP_VSA2>
11.81

>  <SlogP_VSA3>
15

>  <SlogP_VSA4>
5.92

>  <SlogP_VSA5>
11.98

>  <SlogP_VSA6>
24.27

>  <SlogP_VSA7>
5.02

>  <SlogP_VSA8>
0

>  <SlogP_VSA9>
0

>  <SlogP_VSA10>
0

>  <SlogP_VSA11>
0

>  <EState_VSA1>
5.41

>  <EState_VSA2>
17.73

>  <EState_VSA3>
11.44

>  <EState_VSA4>
5.56

>  <EState_VSA5>
0

>  <EState_VSA6>
12.13

>  <EState_VSA7>
12.13

>  <EState_VSA8>
5.32

>  <EState_VSA9>
11.6

>  <EState_VSA10>
9.59

>  <VSA_EState1>
0

>  <VSA_EState2>
22.98

>  <VSA_EState3>
3

>  <VSA_EState4>
0.31

>  <VSA_EState5>
-0.47

>  <VSA_EState6>
7.13

>  <VSA_EState7>
0.64

>  <VSA_EState8>
0

>  <VSA_EState9>
0

>  <apol>
28.59

>  <bpol>
10.84

>  <nRing>
3

>  <nHRing>
1

>  <naRing>
1

>  <naHRing>
0

>  <nARing 2>
2

>  <nAHRing 2>
1

>  <nFRing>
1

>  <nFHRing>
1

>  <nFaRing>
0

>  <nFaHRing>
0

>  <nFARing 2>
1

>  <nFAHRing 2>
1

>  <nRot>
1

>  <SLogP>
1.25

>  <SMR>
54.39

>  <TopoPSA(NO)>
46.17

>  <TopoPSA>
46.17

>  <JGI1>
0.26

>  <JGI2>
0.12

>  <JGI3>
0.09

>  <JGI4>
0.05

>  <JGI5>
0.03

>  <Diameter>
8

>  <Radius>
4

>  <TMWC10>
107

>  <TSRW10>
70.04

>  <MW>
221.02

>  <AMW>
9.61

>  <WPath>
342

>  <WPol>
23

>  <Zagreb1>
88

>  <Zagreb2>
112

>  <mZagreb2>
3.15

>  <yes>


>  <nAR-cont>
1

>  <nHA-cont>
0.92539861

>  <MWHBN>
0.201792708

>  <MWHBN-cont>
0.999872433

>  <TPSA-cont>
0.67770473

>  <pka_cont>
0.97

>  <yes.1>


>  <BBB_SCORE>
5.265616721

>  <MMFF94 Energy>
-7.7207

$$$$
Compound 1872
Actelion Java MolfileCreator 2.0

  0  0  0  0  0  0              0 V3000
M  V30 BEGIN CTAB
M  V30 COUNTS 53 56 0 0 0
M  V30 BEGIN ATOM
M  V30 1 Cl -4.0654 3.7397 0.8933 0
M  V30 2 C -3.5447 2.7954 -0.4566 0
M  V30 3 C -3.1223 3.3729 -1.6578 0
M  V30 4 C -3.55 1.4024 -0.3141 0
M  V30 5 Cl -3.0791 5.0822 -1.9015 0
M  V30 6 C -2.7134 2.5545 -2.713 0
M  V30 7 C -3.1232 0.5748 -1.3624 0
M  V30 8 C -2.7168 1.1654 -2.5675 0
M  V30 9 C -3.1072 -0.929 -1.206 0
M  V30 10 C -1.7186 -1.529 -1.3921 0
M  V30 11 O -1.3971 -1.9562 -2.5062 0
M  V30 12 N -0.8338 -1.5652 -0.3128 0
M  V30 13 C 0.5372 -2.0457 -0.5936 0 CFG=2
M  V30 14 C -1.0899 -0.9288 0.983 0
M  V30 15 C 1.217 -2.6995 0.6222 0
M  V30 16 C 1.4418 -1.0034 -1.3298 0
M  V30 17 C -0.4802 -1.6758 2.1568 0
M  V30 18 C 0.9971 -1.9493 1.9269 0 CFG=2
M  V30 19 N 1.7045 0.2564 -0.6066 0
M  V30 20 N 1.8141 -0.7649 2.0339 0
M  V30 21 C 1.5735 -2.7404 3.1155 0
M  V30 22 C 3.0741 0.7434 -0.8498 0
M  V30 23 C 0.8696 1.3645 -1.1001 0
M  V30 24 C 2.7188 -0.8232 3.0616 0
M  V30 25 O 1.2232 -3.8534 3.4789 0
M  V30 26 N 2.5462 -1.9976 3.7098 0
M  V30 27 C 3.0172 2.1876 -0.3742 0
M  V30 28 C 1.5524 2.5869 -0.5067 0
M  V30 29 O 3.5445 0.0305 3.3269 0
M  V30 30 H -3.8874 0.9647 0.6232 0
M  V30 31 H -2.3889 2.9915 -3.6547 0
M  V30 32 H -2.3922 0.5439 -3.4025 0
M  V30 33 H -3.545 -1.2506 -0.2568 0
M  V30 34 H -3.7625 -1.3589 -1.9754 0
M  V30 35 H 0.4324 -2.8631 -1.322 0
M  V30 36 H -0.6982 0.0903 0.9447 0
M  V30 37 H -2.1608 -0.8381 1.1663 0
M  V30 38 H 0.7912 -3.7073 0.7337 0
M  V30 39 H 2.2861 -2.8545 0.4274 0
M  V30 40 H 1.0266 -0.7981 -2.3251 0
M  V30 41 H 2.3959 -1.5146 -1.5208 0
M  V30 42 H -0.6369 -1.1006 3.0782 0
M  V30 43 H -1.015 -2.6257 2.29 0
M  V30 44 H 1.819 -0.0118 1.3458 0
M  V30 45 H 3.819 0.1657 -0.2935 0
M  V30 46 H 3.3306 0.7123 -1.9169 0
M  V30 47 H -0.1692 1.2983 -0.776 0
M  V30 48 H 0.8851 1.4328 -2.1957 0
M  V30 49 H 3.0887 -2.2869 4.5046 0
M  V30 50 H 3.3318 2.2681 0.6728 0
M  V30 51 H 3.6692 2.8316 -0.9728 0
M  V30 52 H 1.4249 3.4694 -1.1413 0
M  V30 53 H 1.14 2.8197 0.4823 0
M  V30 END ATOM
M  V30 BEGIN BOND
M  V30 1 1 1 2
M  V30 2 2 2 3
M  V30 3 1 2 4
M  V30 4 1 3 5
M  V30 5 1 3 6
M  V30 6 2 4 7
M  V30 7 2 6 8
M  V30 8 1 7 9
M  V30 9 1 9 10
M  V30 10 2 10 11
M  V30 11 1 10 12
M  V30 12 1 12 13
M  V30 13 1 12 14
M  V30 14 1 13 15
M  V30 15 1 13 16
M  V30 16 1 14 17
M  V30 17 1 15 18
M  V30 18 1 16 19
M  V30 19 1 18 20
M  V30 20 1 18 21
M  V30 21 1 19 22
M  V30 22 1 19 23
M  V30 23 1 20 24
M  V30 24 2 21 25
M  V30 25 1 21 26
M  V30 26 1 22 27
M  V30 27 1 23 28
M  V30 28 2 24 29
M  V30 29 1 7 8
M  V30 30 1 17 18
M  V30 31 1 24 26
M  V30 32 1 27 28
M  V30 33 1 4 30
M  V30 34 1 6 31
M  V30 35 1 8 32
M  V30 36 1 9 33
M  V30 37 1 9 34
M  V30 38 1 13 35
M  V30 39 1 14 36
M  V30 40 1 14 37
M  V30 41 1 15 38
M  V30 42 1 15 39
M  V30 43 1 16 40
M  V30 44 1 16 41
M  V30 45 1 17 42
M  V30 46 1 17 43
M  V30 47 1 20 44
M  V30 48 1 22 45
M  V30 49 1 22 46
M  V30 50 1 23 47
M  V30 51 1 23 48
M  V30 52 1 26 49
M  V30 53 1 27 50
M  V30 54 1 27 51
M  V30 55 1 28 52
M  V30 56 1 28 53
M  V30 END BOND
M  V30 BEGIN COLLECTION
M  V30 MDLV30/STEABS ATOMS=(2 13 18)
M  V30 END COLLECTION
M  V30 END CTAB
M  END
>  <Column 1>
2282

>  <level_0>
2463

>  <index>
2463

>  <Unnamed: 0>
2463

>  <NO.>
2475

>  <Name>
sb204454

>  <IUPAC_name>


>  <SMILES>
O=C1NC(=O)[C@@]2(CCN(C(=O)Cc3ccc(Cl)c(Cl)c3)[C@@H](CN3CCCC3)C2)N1

>  <CID>


>  <logBB>


>  <BBB+/BBB->
BBB-

>  <Inchi>
InChI=1S/C20H24Cl2N4O3/c21-15-4-3-13(9-16(15)22)10-17(27)26-8-5-20(18(28)23-19(29)24-20)11-14(26)12-25-6-1-2-7-25/h3-4-9-14H-1-2-5-8-10-12H2-(H2-23-24-28-29)/t14--20+/m1/s1

>  <threshold>
-1

>  <reference>
R1|R28|R9|R24|R27|R30|

>  <group>
B

>  <Class>
1

>  <ABC>
22.99

>  <ABCGG>
18.75

>  <nAcid>
0

>  <nBase>
1

>  <nAromAtom>
6

>  <nAromBond>
6

>  <nAtom>
53

>  <nHeavyAtom>
29

>  <nSpiro>
1

>  <nBridgehead>
0

>  <nHetero>
9

>  <nN>
4

>  <nO>
3

>  <nF>
0

>  <BalabanJ>
1.42

>  <BertzCT>
843.02

>  <nBonds>
56

>  <nBondsO>
32

>  <nBondsS>
47

>  <nBondsD>
3

>  <nBondsT>
0

>  <nBondsA>
6

>  <nBondsM>
9

>  <nBondsKS>
50

>  <nBondsKD>
6

>  <RNCG>
0.14

>  <RPCG>
0.13

>  <FCSP3>
0.55

>  <SZ>
38.33

>  <Sm>
36.58

>  <Sv>
33.86

>  <Sse>
53.83

>  <Sp>
36.27

>  <Si>
60.08

>  <MZ>
0.72

>  <Mm>
0.69

>  <Mv>
0.64

>  <Mse>
1.02

>  <Mp>
0.68

>  <Mi>
1.13

>  <NsCH3>
0

>  <NdCH2>
0

>  <NssCH2>
9

>  <NtCH>
0

>  <NdsCH>
0

>  <NaaCH>
3

>  <NsssCH>
1

>  <NddC>
0

>  <NtsC>
0

>  <NdssC>
3

>  <NaasC>
3

>  <NaaaC>
0

>  <NssssC>
1

>  <NsNH3>
0

>  <NsNH2>
0

>  <NssNH2>
0

>  <NdNH>
0

>  <NssNH>
2

>  <NaaNH>
0

>  <NtN>
0

>  <NsssNH>
0

>  <NdsN>
0

>  <NaaN>
0

>  <NsssN>
2

>  <NddsN>
0

>  <NaasN>
0

>  <NssssN>
0

>  <NsOH>
0

>  <NdO>
3

>  <NssO>
0

>  <NaaO>
0

>  <NsF>
0

>  <NsSiH3>
0

>  <NssSiH2>
0

>  <NsssSiH>
0

>  <NssssSi>
0

>  <NsPH2>
0

>  <NssPH>
0

>  <NsssP>
0

>  <NdsssP>
0

>  <NsssssP>
0

>  <NsSH>
0

>  <NdS>
0

>  <NssS>
0

>  <NaaS>
0

>  <NdssS>
0

>  <NddssS>
0

>  <NsCl>
2

>  <NsBr>
0

>  <NsI>
0

>  <fragCpx>
212.09

>  <fMF>
0.45

>  <nHBAcc>
4

>  <nHBDon>
2

>  <Kier1>
22.2

>  <Kier2>
9.24

>  <Lipinski>
1

>  <GhoseFilter>
1

>  <FilterItLogS>
-5.18

>  <VMcGowan>
305.43

>  <LabuteASA>
179.23

>  <PEOE_VSA1>
15.12

>  <PEOE_VSA2>
14.91

>  <PEOE_VSA3>
4.79

>  <PEOE_VSA4>
0

>  <PEOE_VSA5>
0

>  <PEOE_VSA6>
29.27

>  <PEOE_VSA7>
50.05

>  <PEOE_VSA8>
25.55

>  <PEOE_VSA9>
16.47

>  <PEOE_VSA10>
5.54

>  <PEOE_VSA11>
0

>  <PEOE_VSA12>
5.91

>  <PEOE_VSA13>
5.91

>  <SMR_VSA1>
14.38

>  <SMR_VSA2>
0

>  <SMR_VSA3>
20.43

>  <SMR_VSA4>
0

>  <SMR_VSA5>
43.68

>  <SMR_VSA6>
26.18

>  <SMR_VSA7>
33.81

>  <SMR_VSA8>
0

>  <SMR_VSA9>
0

>  <SlogP_VSA1>
10.63

>  <SlogP_VSA2>
65.41

>  <SlogP_VSA3>
16.01

>  <SlogP_VSA4>
0

>  <SlogP_VSA5>
31.25

>  <SlogP_VSA6>
18.2

>  <SlogP_VSA7>
10.05

>  <SlogP_VSA8>
0

>  <SlogP_VSA9>
0

>  <SlogP_VSA10>
4.79

>  <SlogP_VSA11>
0

>  <EState_VSA1>
11.57

>  <EState_VSA2>
24.28

>  <EState_VSA3>
35.98

>  <EState_VSA4>
31.49

>  <EState_VSA5>
0

>  <EState_VSA6>
18.2

>  <EState_VSA7>
4.9

>  <EState_VSA8>
15.53

>  <EState_VSA9>
23.2

>  <EState_VSA10>
14.38

>  <VSA_EState1>
0

>  <VSA_EState2>
41.52

>  <VSA_EState3>
6.04

>  <VSA_EState4>
-0.11

>  <VSA_EState5>
-0.29

>  <VSA_EState6>
4.62

>  <VSA_EState7>
3.35

>  <VSA_EState8>
3.12

>  <VSA_EState9>
0

>  <apol>
60.57

>  <bpol>
32.26

>  <nRing>
4

>  <nHRing>
3

>  <naRing>
1

>  <naHRing>
0

>  <nARing 2>
3

>  <nAHRing 2>
3

>  <nFRing>
0

>  <nFHRing>
0

>  <nFaRing>
0

>  <nFaHRing>
0

>  <nFARing 2>
0

>  <nFAHRing 2>
0

>  <nRot>
4

>  <SLogP>
2.2

>  <SMR>
109.98

>  <TopoPSA(NO)>
81.75

>  <TopoPSA>
81.75

>  <JGI1>
0.25

>  <JGI2>
0.09

>  <JGI3>
0.06

>  <JGI4>
0.04

>  <JGI5>
0.03

>  <Diameter>
13

>  <Radius>
7

>  <TMWC10>
138.68

>  <TSRW10>
80.65

>  <MW>
438.12

>  <AMW>
8.27

>  <WPath>
2240

>  <WPol>
46

>  <Zagreb1>
158

>  <Zagreb2>
188

>  <mZagreb2>
6.21

>  <yes>


>  <nAR-cont>
0.691115

>  <nHA-cont>
0.785905698

>  <MWHBN>
0.286651825

>  <MWHBN-cont>
0.878698397

>  <TPSA-cont>
0.429334236

>  <pka_cont>
0.97

>  <yes.1>


>  <BBB_SCORE>
4.138736766

>  <MMFF94 Energy>
-21.609

$$$$
Compound 1873
Actelion Java MolfileCreator 2.0

  0  0  0  0  0  0              0 V3000
M  V30 BEGIN CTAB
M  V30 COUNTS 24 25 0 0 0
M  V30 BEGIN ATOM
M  V30 1 Cl -1.4553 -0.8891 -2.4264 0
M  V30 2 C -2.3178 -0.6768 -0.8893 0
M  V30 3 C -1.9584 -1.7456 0.1361 0
M  V30 4 C -0.598 -1.6039 0.8321 0 CFG=2
M  V30 5 O -0.4824 -0.3324 1.4811 0
M  V30 6 N 0.5291 -1.9666 0.0221 0
M  V30 7 C 0.31 0.6029 0.8851 0
M  V30 8 C 1.4136 -1.0838 -0.5149 0
M  V30 9 C 1.2407 0.3122 -0.1043 0
M  V30 10 C 0.1689 1.9174 1.3317 0
M  V30 11 O 2.3065 -1.442 -1.2706 0
M  V30 12 C 2.0232 1.3245 -0.6682 0
M  V30 13 C 0.9439 2.9354 0.7709 0
M  V30 14 C 1.8688 2.64 -0.231 0
M  V30 15 H -3.3844 -0.7471 -1.1252 0
M  V30 16 H -2.1326 0.3356 -0.5228 0
M  V30 17 H -2.048 -2.7428 -0.3122 0
M  V30 18 H -2.7247 -1.6845 0.9207 0
M  V30 19 H -0.5899 -2.3416 1.6438 0
M  V30 20 H 0.6651 -2.9298 -0.254 0
M  V30 21 H -0.5464 2.1522 2.1155 0
M  V30 22 H 2.752 1.0867 -1.4399 0
M  V30 23 H 0.8285 3.9594 1.1182 0
M  V30 24 H 2.4745 3.4313 -0.6659 0
M  V30 END ATOM
M  V30 BEGIN BOND
M  V30 1 1 1 2
M  V30 2 1 2 3
M  V30 3 1 3 4
M  V30 4 1 4 5
M  V30 5 1 4 6
M  V30 6 1 5 7
M  V30 7 1 6 8
M  V30 8 2 7 9
M  V30 9 1 7 10
M  V30 10 2 8 11
M  V30 11 1 9 12
M  V30 12 2 10 13
M  V30 13 2 12 14
M  V30 14 1 8 9
M  V30 15 1 13 14
M  V30 16 1 2 15
M  V30 17 1 2 16
M  V30 18 1 3 17
M  V30 19 1 3 18
M  V30 20 1 4 19
M  V30 21 1 6 20
M  V30 22 1 10 21
M  V30 23 1 12 22
M  V30 24 1 13 23
M  V30 25 1 14 24
M  V30 END BOND
M  V30 BEGIN COLLECTION
M  V30 MDLV30/STERAC1 ATOMS=(1 4)
M  V30 END COLLECTION
M  V30 END CTAB
M  END
>  <Column 1>
2283

>  <level_0>
2464

>  <index>
2464

>  <Unnamed: 0>
2464

>  <NO.>
2476

>  <Name>
chlorthenoxazine

>  <IUPAC_name>
2-(2-chloroethyl)-2-3-dihydro-1-3-benzoxazin-4-one

>  <SMILES>
O=C1NC(CCCl)Oc2ccccc21

>  <CID>
8602

>  <logBB>


>  <BBB+/BBB->
BBB+

>  <Inchi>
InChI=1S/C10H10ClNO2/c11-6-5-9-12-10(13)7-3-1-2-4-8(7)14-9/h1-4-9H-5-6H2-(H-12-13)

>  <threshold>
-1

>  <reference>
R1|R19|R6|R27|R27|R30|

>  <group>
B

>  <Class>
1

>  <ABC>
10.64

>  <ABCGG>
9.13

>  <nAcid>
0

>  <nBase>
0

>  <nAromAtom>
6

>  <nAromBond>
6

>  <nAtom>
24

>  <nHeavyAtom>
14

>  <nSpiro>
0

>  <nBridgehead>
0

>  <nHetero>
4

>  <nN>
1

>  <nO>
2

>  <nF>
0

>  <BalabanJ>
1.93

>  <BertzCT>
353.73

>  <nBonds>
25

>  <nBondsO>
15

>  <nBondsS>
18

>  <nBondsD>
1

>  <nBondsT>
0

>  <nBondsA>
6

>  <nBondsM>
7

>  <nBondsKS>
21

>  <nBondsKD>
4

>  <RNCG>
0.34

>  <RPCG>
0.19

>  <FCSP3>
0.3

>  <SZ>
18.33

>  <Sm>
17.62

>  <Sv>
15.99

>  <Sse>
24.53

>  <Sp>
16.92

>  <Si>
26.94

>  <MZ>
0.76

>  <Mm>
0.73

>  <Mv>
0.67

>  <Mse>
1.02

>  <Mp>
0.7

>  <Mi>
1.12

>  <NsCH3>
0

>  <NdCH2>
0

>  <NssCH2>
2

>  <NtCH>
0

>  <NdsCH>
0

>  <NaaCH>
4

>  <NsssCH>
1

>  <NddC>
0

>  <NtsC>
0

>  <NdssC>
1

>  <NaasC>
2

>  <NaaaC>
0

>  <NssssC>
0

>  <NsNH3>
0

>  <NsNH2>
0

>  <NssNH2>
0

>  <NdNH>
0

>  <NssNH>
1

>  <NaaNH>
0

>  <NtN>
0

>  <NsssNH>
0

>  <NdsN>
0

>  <NaaN>
0

>  <NsssN>
0

>  <NddsN>
0

>  <NaasN>
0

>  <NssssN>
0

>  <NsOH>
0

>  <NdO>
1

>  <NssO>
1

>  <NaaO>
0

>  <NsF>
0

>  <NsSiH3>
0

>  <NssSiH2>
0

>  <NsssSiH>
0

>  <NssssSi>
0

>  <NsPH2>
0

>  <NssPH>
0

>  <NsssP>
0

>  <NdsssP>
0

>  <NsssssP>
0

>  <NsSH>
0

>  <NdS>
0

>  <NssS>
0

>  <NaaS>
0

>  <NdssS>
0

>  <NddssS>
0

>  <NsCl>
1

>  <NsBr>
0

>  <NsI>
0

>  <fragCpx>
43.04

>  <fMF>
0.42

>  <nHBAcc>
2

>  <nHBDon>
1

>  <Kier1>
10.52

>  <Kier2>
4.68

>  <Lipinski>
1

>  <GhoseFilter>
1

>  <FilterItLogS>
-3.23

>  <VMcGowan>
146.8

>  <LabuteASA>
87.01

>  <PEOE_VSA1>
10.05

>  <PEOE_VSA2>
4.79

>  <PEOE_VSA3>
0

>  <PEOE_VSA4>
0

>  <PEOE_VSA5>
11.6

>  <PEOE_VSA6>
12.13

>  <PEOE_VSA7>
12.13

>  <PEOE_VSA8>
12.3

>  <PEOE_VSA9>
5.56

>  <PEOE_VSA10>
5.75

>  <PEOE_VSA11>
6.23

>  <PEOE_VSA12>
0

>  <PEOE_VSA13>
5.91

>  <SMR_VSA1>
9.53

>  <SMR_VSA2>
0

>  <SMR_VSA3>
5.32

>  <SMR_VSA4>
0

>  <SMR_VSA5>
12.65

>  <SMR_VSA6>
5.88

>  <SMR_VSA7>
29.83

>  <SMR_VSA8>
0

>  <SMR_VSA9>
5.75

>  <SlogP_VSA1>
10.05

>  <SlogP_VSA2>
18.02

>  <SlogP_VSA3>
0

>  <SlogP_VSA4>
0

>  <SlogP_VSA5>
16.78

>  <SlogP_VSA6>
24.27

>  <SlogP_VSA7>
0

>  <SlogP_VSA8>
0

>  <SlogP_VSA9>
0

>  <SlogP_VSA10>
0

>  <SlogP_VSA11>
5.75

>  <EState_VSA1>
0

>  <EState_VSA2>
12.14

>  <EState_VSA3>
23.61

>  <EState_VSA4>
0

>  <EState_VSA5>
0

>  <EState_VSA6>
12.13

>  <EState_VSA7>
12.13

>  <EState_VSA8>
5.32

>  <EState_VSA9>
16.34

>  <EState_VSA10>
4.79

>  <VSA_EState1>
5.53

>  <VSA_EState2>
11.54

>  <VSA_EState3>
2.73

>  <VSA_EState4>
0.58

>  <VSA_EState5>
1

>  <VSA_EState6>
7.18

>  <VSA_EState7>
0.32

>  <VSA_EState8>
0

>  <VSA_EState9>
0

>  <apol>
28.25

>  <bpol>
13.72

>  <nRing>
2

>  <nHRing>
1

>  <naRing>
1

>  <naHRing>
0

>  <nARing 2>
1

>  <nAHRing 2>
1

>  <nFRing>
1

>  <nFHRing>
1

>  <nFaRing>
0

>  <nFaHRing>
0

>  <nFARing 2>
1

>  <nFAHRing 2>
1

>  <nRot>
2

>  <SLogP>
1.76

>  <SMR>
53.66

>  <TopoPSA(NO)>
38.33

>  <TopoPSA>
38.33

>  <JGI1>
0.17

>  <JGI2>
0.07

>  <JGI3>
0.05

>  <JGI4>
0.05

>  <JGI5>
0.03

>  <Diameter>
8

>  <Radius>
4

>  <TMWC10>
98.24

>  <TSRW10>
45.69

>  <MW>
211.04

>  <AMW>
8.79

>  <WPath>
294

>  <WPol>
20

>  <Zagreb1>
70

>  <Zagreb2>
81

>  <mZagreb2>
3.22

>  <yes>


>  <nAR-cont>
0.816016

>  <nHA-cont>
0.887625254

>  <MWHBN>
0.206508944

>  <MWHBN-cont>
0.999894538

>  <TPSA-cont>
0.732432798

>  <pka_cont>
0.97

>  <yes.1>


>  <BBB_SCORE>
5.153348659

>  <MMFF94 Energy>
-13.617

$$$$
Compound 1874
Actelion Java MolfileCreator 2.0

  0  0  0  0  0  0              0 V3000
M  V30 BEGIN CTAB
M  V30 COUNTS 40 42 0 0 0
M  V30 BEGIN ATOM
M  V30 1 P 1.8683 4.1463 0.0 0
M  V30 2 O 3.0579 4.9565 0.382 0
M  V30 3 O 1.935 3.4159 -1.4113 0
M  V30 4 O 1.5771 2.9889 1.0587 0
M  V30 5 O 0.52 4.9953 0.0127 0
M  V30 6 C 0.7848 2.7752 -1.9182 0
M  V30 7 N 0.7208 1.42 -1.4509 0
M  V30 8 C 1.5743 0.4362 -1.8171 0
M  V30 9 C -0.2681 0.92 -0.6488 0
M  V30 10 O 2.5229 0.5121 -2.5791 0
M  V30 11 N 1.2057 -0.7256 -1.1948 0
M  V30 12 O -1.2244 1.5633 -0.2274 0
M  V30 13 C 0.0118 -0.5929 -0.3793 0
M  V30 14 C -1.1568 -1.4391 -0.9076 0
M  V30 15 C 0.3845 -0.9295 1.0726 0
M  V30 16 C -1.0704 -2.1982 -2.0895 0
M  V30 17 C -2.3787 -1.4545 -0.2061 0
M  V30 18 C 0.8474 -2.2248 1.3869 0
M  V30 19 C 0.2763 -0.0023 2.1234 0
M  V30 20 C -2.1573 -2.9522 -2.541 0
M  V30 21 C -3.4631 -2.2085 -0.6593 0
M  V30 22 C 1.1995 -2.5708 2.6931 0
M  V30 23 C 0.6294 -0.3511 3.4304 0
M  V30 24 C -3.3512 -2.9588 -1.8253 0
M  V30 25 C 1.0926 -1.6323 3.7143 0
M  V30 26 H 2.415 2.6543 1.4318 0
M  V30 27 H 0.5406 5.6681 0.7173 0
M  V30 28 H 0.8808 2.7533 -3.0085 0
M  V30 29 H -0.1275 3.3236 -1.6682 0
M  V30 30 H 1.7414 -1.573 -1.3065 0
M  V30 31 H -0.1611 -2.2134 -2.6859 0
M  V30 32 H -2.4989 -0.8683 0.7047 0
M  V30 33 H 0.9269 -2.9839 0.6107 0
M  V30 34 H -0.0929 1.0079 1.9557 0
M  V30 35 H -2.0722 -3.5322 -3.4566 0
M  V30 36 H -4.3962 -2.2046 -0.1014 0
M  V30 37 H 1.5512 -3.5756 2.9133 0
M  V30 38 H 0.5342 0.3806 4.2292 0
M  V30 39 H -4.196 -3.5437 -2.1793 0
M  V30 40 H 1.3622 -1.9011 4.7323 0
M  V30 END ATOM
M  V30 BEGIN BOND
M  V30 1 2 1 2
M  V30 2 1 1 3
M  V30 3 1 1 4
M  V30 4 1 1 5
M  V30 5 1 3 6
M  V30 6 1 6 7
M  V30 7 1 7 8
M  V30 8 1 7 9
M  V30 9 2 8 10
M  V30 10 1 8 11
M  V30 11 2 9 12
M  V30 12 1 9 13
M  V30 13 1 13 14
M  V30 14 1 13 15
M  V30 15 2 14 16
M  V30 16 1 14 17
M  V30 17 2 15 18
M  V30 18 1 15 19
M  V30 19 1 16 20
M  V30 20 2 17 21
M  V30 21 1 18 22
M  V30 22 2 19 23
M  V30 23 2 20 24
M  V30 24 2 22 25
M  V30 25 1 11 13
M  V30 26 1 21 24
M  V30 27 1 23 25
M  V30 28 1 4 26
M  V30 29 1 5 27
M  V30 30 1 6 28
M  V30 31 1 6 29
M  V30 32 1 11 30
M  V30 33 1 16 31
M  V30 34 1 17 32
M  V30 35 1 18 33
M  V30 36 1 19 34
M  V30 37 1 20 35
M  V30 38 1 21 36
M  V30 39 1 22 37
M  V30 40 1 23 38
M  V30 41 1 24 39
M  V30 42 1 25 40
M  V30 END BOND
M  V30 END CTAB
M  END
>  <Column 1>
2284

>  <level_0>
2465

>  <index>
2465

>  <Unnamed: 0>
2465

>  <NO.>
2477

>  <Name>
fosphenytoin

>  <IUPAC_name>
(2-5-dioxo-4-4-diphenylimidazolidin-1-yl)methyl dihydrogen phosphate

>  <SMILES>
O=C1NC(c2ccccc2)(c2ccccc2)C(=O)N1COP(=O)(O)O

>  <CID>
56339

>  <logBB>


>  <BBB+/BBB->
BBB+

>  <Inchi>
InChI=1S/C16H15N2O6P/c19-14-16(12-7-3-1-4-8-12-13-9-5-2-6-10-13)17-15(20)18(14)11-24-25(21-22)23/h1-10H-11H2-(H-17-20)(H2-21-22-23)

>  <threshold>
-1

>  <reference>
R1|R13|R6|R15|R23|R27|R30|

>  <group>
B

>  <Class>
1

>  <ABC>
19.52

>  <ABCGG>
16.75

>  <nAcid>
2

>  <nBase>
0

>  <nAromAtom>
12

>  <nAromBond>
12

>  <nAtom>
40

>  <nHeavyAtom>
25

>  <nSpiro>
0

>  <nBridgehead>
0

>  <nHetero>
9

>  <nN>
2

>  <nO>
6

>  <nF>
0

>  <BalabanJ>
1.83

>  <BertzCT>
796.72

>  <nBonds>
42

>  <nBondsO>
27

>  <nBondsS>
27

>  <nBondsD>
3

>  <nBondsT>
0

>  <nBondsA>
12

>  <nBondsM>
15

>  <nBondsKS>
33

>  <nBondsKD>
9

>  <RNCG>
0.11

>  <RPCG>
0.17

>  <FCSP3>
0.13

>  <SZ>
31.33

>  <Sm>
30.16

>  <Sv>
27.06

>  <Sse>
41.38

>  <Sp>
28.36

>  <Si>
44.88

>  <MZ>
0.78

>  <Mm>
0.75

>  <Mv>
0.68

>  <Mse>
1.03

>  <Mp>
0.71

>  <Mi>
1.12

>  <NsCH3>
0

>  <NdCH2>
0

>  <NssCH2>
1

>  <NtCH>
0

>  <NdsCH>
0

>  <NaaCH>
10

>  <NsssCH>
0

>  <NddC>
0

>  <NtsC>
0

>  <NdssC>
2

>  <NaasC>
2

>  <NaaaC>
0

>  <NssssC>
1

>  <NsNH3>
0

>  <NsNH2>
0

>  <NssNH2>
0

>  <NdNH>
0

>  <NssNH>
1

>  <NaaNH>
0

>  <NtN>
0

>  <NsssNH>
0

>  <NdsN>
0

>  <NaaN>
0

>  <NsssN>
1

>  <NddsN>
0

>  <NaasN>
0

>  <NssssN>
0

>  <NsOH>
2

>  <NdO>
3

>  <NssO>
1

>  <NaaO>
0

>  <NsF>
0

>  <NsSiH3>
0

>  <NssSiH2>
0

>  <NsssSiH>
0

>  <NssssSi>
0

>  <NsPH2>
0

>  <NssPH>
0

>  <NsssP>
0

>  <NdsssP>
1

>  <NsssssP>
0

>  <NsSH>
0

>  <NdS>
0

>  <NssS>
0

>  <NaaS>
0

>  <NdssS>
0

>  <NddssS>
0

>  <NsCl>
0

>  <NsBr>
0

>  <NsI>
0

>  <fragCpx>
129.09

>  <fMF>
0.43

>  <nHBAcc>
4

>  <nHBDon>
3

>  <Kier1>
19.75

>  <Kier2>
7.94

>  <Lipinski>
1

>  <GhoseFilter>
1

>  <FilterItLogS>
-2.35

>  <VMcGowan>
244.96

>  <LabuteASA>
142.83

>  <PEOE_VSA1>
15.1

>  <PEOE_VSA2>
9.32

>  <PEOE_VSA3>
14.26

>  <PEOE_VSA4>
0

>  <PEOE_VSA5>
0

>  <PEOE_VSA6>
60.66

>  <PEOE_VSA7>
11.13

>  <PEOE_VSA8>
0

>  <PEOE_VSA9>
0

>  <PEOE_VSA10>
6.73

>  <PEOE_VSA11>
5.54

>  <PEOE_VSA12>
0

>  <PEOE_VSA13>
5.91

>  <SMR_VSA1>
28.46

>  <SMR_VSA2>
0

>  <SMR_VSA3>
10.22

>  <SMR_VSA4>
0

>  <SMR_VSA5>
5.54

>  <SMR_VSA6>
6.73

>  <SMR_VSA7>
71.79

>  <SMR_VSA8>
0

>  <SMR_VSA9>
0

>  <SlogP_VSA1>
5.32

>  <SlogP_VSA2>
33.36

>  <SlogP_VSA3>
19.42

>  <SlogP_VSA4>
0

>  <SlogP_VSA5>
11.13

>  <SlogP_VSA6>
60.66

>  <SlogP_VSA7>
0

>  <SlogP_VSA8>
0

>  <SlogP_VSA9>
0

>  <SlogP_VSA10>
4.79

>  <SlogP_VSA11>
0

>  <EState_VSA1>
32.03

>  <EState_VSA2>
0

>  <EState_VSA3>
16.03

>  <EState_VSA4>
0

>  <EState_VSA5>
0

>  <EState_VSA6>
60.66

>  <EState_VSA7>
0

>  <EState_VSA8>
9.84

>  <EState_VSA9>
9.79

>  <EState_VSA10>
14.15

>  <VSA_EState1>
15.24

>  <VSA_EState2>
43.7

>  <VSA_EState3>
2.64

>  <VSA_EState4>
-0.44

>  <VSA_EState5>
-0.68

>  <VSA_EState6>
16.45

>  <VSA_EState7>
0

>  <VSA_EState8>
-0.85

>  <VSA_EState9>
-4.83

>  <apol>
47.36

>  <bpol>
29.51

>  <nRing>
3

>  <nHRing>
1

>  <naRing>
2

>  <naHRing>
0

>  <nARing 2>
1

>  <nAHRing 2>
1

>  <nFRing>
0

>  <nFHRing>
0

>  <nFaRing>
0

>  <nFaHRing>
0

>  <nFARing 2>
0

>  <nFAHRing 2>
0

>  <nRot>
5

>  <SLogP>
1.55

>  <SMR>
87.04

>  <TopoPSA(NO)>
116.17

>  <TopoPSA>
125.98

>  <JGI1>
0.24

>  <JGI2>
0.09

>  <JGI3>
0.07

>  <JGI4>
0.04

>  <JGI5>
0.03

>  <Diameter>
10

>  <Radius>
5

>  <TMWC10>
129.03

>  <TSRW10>
74.82

>  <MW>
362.07

>  <AMW>
9.05

>  <WPath>
1371

>  <WPol>
42

>  <Zagreb1>
134

>  <Zagreb2>
160

>  <mZagreb2>
5.39

>  <yes>


>  <nAR-cont>
0.816016

>  <nHA-cont>
0.921834225

>  <MWHBN>
0.367876265

>  <MWHBN-cont>
0.602103154

>  <TPSA-cont>
0

>  <pka_cont>
0.97

>  <yes.1>


>  <BBB_SCORE>
3.126004956

>  <MMFF94 Energy>
-221.39

$$$$
Compound 1875
Actelion Java MolfileCreator 2.0

  0  0  0  0  0  0              0 V3000
M  V30 BEGIN CTAB
M  V30 COUNTS 69 74 0 0 0
M  V30 BEGIN ATOM
M  V30 1 Cl -8.0802 -1.6927 0.7251 0
M  V30 2 C -6.9308 -0.7326 -0.1232 0
M  V30 3 C -5.7724 -1.3219 -0.6262 0
M  V30 4 C -7.1632 0.6253 -0.3012 0
M  V30 5 C -4.8152 -0.5605 -1.3213 0
M  V30 6 C -6.2314 1.3938 -0.996 0
M  V30 7 N -3.6371 -1.1837 -1.7942 0
M  V30 8 C -5.0622 0.8068 -1.5112 0
M  V30 9 C -3.1018 -1.1552 -3.1055 0
M  V30 10 C -2.7884 -1.7305 -0.706 0
M  V30 11 C -4.0759 1.645 -2.2734 0
M  V30 12 C -3.2842 -0.0918 -4.0176 0
M  V30 13 C -2.3784 -2.2792 -3.5735 0
M  V30 14 C -1.5991 -0.8062 -0.4087 0
M  V30 15 C -4.0217 1.1986 -3.7276 0
M  V30 16 C -2.7589 -0.1956 -5.3299 0
M  V30 17 C -1.8499 -2.3575 -4.865 0
M  V30 18 C -0.7146 -1.4043 0.692 0
M  V30 19 C -2.0421 -1.3111 -5.7478 0
M  V30 20 N 0.3656 -0.4984 1.1289 0
M  V30 21 C 0.9817 -1.0231 2.3563 0
M  V30 22 C 1.3885 -0.3234 0.0902 0
M  V30 23 C 2.0551 -0.0769 2.8984 0
M  V30 24 C 2.4696 0.6654 0.5335 0
M  V30 25 C 3.1413 0.2618 1.863 0
M  V30 26 N 4.1197 1.3587 2.2543 0
M  V30 27 C 4.0949 -0.9248 1.6234 0
M  V30 28 C 5.3438 1.0277 1.4995 0 CFG=2
M  V30 29 C 4.3599 1.3855 3.7114 0
M  V30 30 O 3.8294 -2.1102 1.5313 0
M  V30 31 N 5.3608 -0.3946 1.4951 0
M  V30 32 C 6.6485 1.6821 1.9549 0
M  V30 33 C 5.563 2.2342 4.1135 0
M  V30 34 C 6.8236 1.6884 3.4639 0
M  V30 35 H -5.6151 -2.3892 -0.4946 0
M  V30 36 H -8.0643 1.0891 0.09 0
M  V30 37 H -6.4231 2.4551 -1.1391 0
M  V30 38 H -2.438 -2.7406 -0.9422 0
M  V30 39 H -3.36 -1.8541 0.2237 0
M  V30 40 H -3.0896 1.6042 -1.7962 0
M  V30 41 H -4.3861 2.6972 -2.2409 0
M  V30 42 H -2.2483 -3.1543 -2.9438 0
M  V30 43 H -1.9689 0.177 -0.0927 0
M  V30 44 H -1.0172 -0.6524 -1.323 0
M  V30 45 H -5.0346 1.1153 -4.1439 0
M  V30 46 H -3.519 2.0056 -4.2785 0
M  V30 47 H -2.9104 0.6161 -6.04 0
M  V30 48 H -1.3091 -3.2463 -5.1777 0
M  V30 49 H -1.3639 -1.6156 1.5522 0
M  V30 50 H -0.3037 -2.3673 0.3614 0
M  V30 51 H -1.6479 -1.3629 -6.7585 0
M  V30 52 H 0.2148 -1.1261 3.135 0
M  V30 53 H 1.3958 -2.0251 2.1923 0
M  V30 54 H 0.9414 0.089 -0.8204 0
M  V30 55 H 1.8415 -1.2843 -0.1847 0
M  V30 56 H 2.4884 -0.5466 3.7895 0
M  V30 57 H 1.5617 0.8478 3.2272 0
M  V30 58 H 3.1981 0.7434 -0.2825 0
M  V30 59 H 2.014 1.6598 0.6427 0
M  V30 60 H 5.2044 1.3278 0.453 0
M  V30 61 H 4.5184 0.3751 4.1107 0
M  V30 62 H 3.4784 1.8025 4.212 0
M  V30 63 H 6.1482 -0.9769 1.2476 0
M  V30 64 H 7.5094 1.19 1.4871 0
M  V30 65 H 6.6518 2.7245 1.6089 0
M  V30 66 H 5.6754 2.2204 5.2037 0
M  V30 67 H 5.4044 3.2791 3.819 0
M  V30 68 H 7.0226 0.6716 3.8233 0
M  V30 69 H 7.6872 2.3037 3.7393 0
M  V30 END ATOM
M  V30 BEGIN BOND
M  V30 1 1 1 2
M  V30 2 2 2 3
M  V30 3 1 2 4
M  V30 4 1 3 5
M  V30 5 2 4 6
M  V30 6 1 5 7
M  V30 7 2 5 8
M  V30 8 1 7 9
M  V30 9 1 7 10
M  V30 10 1 8 11
M  V30 11 2 9 12
M  V30 12 1 9 13
M  V30 13 1 10 14
M  V30 14 1 11 15
M  V30 15 1 12 16
M  V30 16 2 13 17
M  V30 17 1 14 18
M  V30 18 2 16 19
M  V30 19 1 18 20
M  V30 20 1 20 21
M  V30 21 1 20 22
M  V30 22 1 21 23
M  V30 23 1 22 24
M  V30 24 1 23 25
M  V30 25 1 25 26
M  V30 26 1 25 27
M  V30 27 1 26 28
M  V30 28 1 26 29
M  V30 29 2 27 30
M  V30 30 1 27 31
M  V30 31 1 28 32
M  V30 32 1 29 33
M  V30 33 1 32 34
M  V30 34 1 6 8
M  V30 35 1 12 15
M  V30 36 1 17 19
M  V30 37 1 24 25
M  V30 38 1 28 31
M  V30 39 1 33 34
M  V30 40 1 3 35
M  V30 41 1 4 36
M  V30 42 1 6 37
M  V30 43 1 10 38
M  V30 44 1 10 39
M  V30 45 1 11 40
M  V30 46 1 11 41
M  V30 47 1 13 42
M  V30 48 1 14 43
M  V30 49 1 14 44
M  V30 50 1 15 45
M  V30 51 1 15 46
M  V30 52 1 16 47
M  V30 53 1 17 48
M  V30 54 1 18 49
M  V30 55 1 18 50
M  V30 56 1 19 51
M  V30 57 1 21 52
M  V30 58 1 21 53
M  V30 59 1 22 54
M  V30 60 1 22 55
M  V30 61 1 23 56
M  V30 62 1 23 57
M  V30 63 1 24 58
M  V30 64 1 24 59
M  V30 65 1 28 60
M  V30 66 1 29 61
M  V30 67 1 29 62
M  V30 68 1 31 63
M  V30 69 1 32 64
M  V30 70 1 32 65
M  V30 71 1 33 66
M  V30 72 1 33 67
M  V30 73 1 34 68
M  V30 74 1 34 69
M  V30 END BOND
M  V30 BEGIN COLLECTION
M  V30 MDLV30/STERAC1 ATOMS=(1 28)
M  V30 END COLLECTION
M  V30 END CTAB
M  END
>  <Column 1>
2285

>  <level_0>
2466

>  <index>
2466

>  <Unnamed: 0>
2466

>  <NO.>
2478

>  <Name>
mosapramine

>  <IUPAC_name>
1'-[3-(2-chloro-5-6-dihydrobenzo[b][1]benzazepin-11-yl)propyl]spiro[1-5-6-7-8-8a-hexahydroimidazo[1-2-a]pyridine-3-4'-piperidine]-2-one

>  <SMILES>
O=C1NC2CCCCN2C12CCN(CCCN1c3ccccc3CCc3ccc(Cl)cc31)CC2

>  <CID>
4257

>  <logBB>


>  <BBB+/BBB->
BBB+

>  <Inchi>
InChI=1S/C28H35ClN4O/c29-23-12-11-22-10-9-21-6-1-2-7-24(21)32(25(22)20-23)16-5-15-31-18-13-28(14-19-31)27(34)30-26-8-3-4-17-33(26)28/h1-2-6-7-11-12-20-26H-3-5-8-10-13-19H2-(H-30-34)

>  <threshold>
-1

>  <reference>
R1|R19|R6|R27|R27|R30|

>  <group>
B

>  <Class>
1

>  <ABC>
27.47

>  <ABCGG>
19.48

>  <nAcid>
0

>  <nBase>
2

>  <nAromAtom>
12

>  <nAromBond>
12

>  <nAtom>
69

>  <nHeavyAtom>
34

>  <nSpiro>
1

>  <nBridgehead>
0

>  <nHetero>
6

>  <nN>
4

>  <nO>
1

>  <nF>
0

>  <BalabanJ>
1.06

>  <BertzCT>
1064.12

>  <nBonds>
74

>  <nBondsO>
39

>  <nBondsS>
61

>  <nBondsD>
1

>  <nBondsT>
0

>  <nBondsA>
12

>  <nBondsM>
13

>  <nBondsKS>
67

>  <nBondsKD>
7

>  <RNCG>
0.16

>  <RPCG>
0.11

>  <FCSP3>
0.54

>  <SZ>
42.67

>  <Sm>
39.89

>  <Sv>
42.32

>  <Sse>
68.29

>  <Sp>
46.4

>  <Si>
77.79

>  <MZ>
0.62

>  <Mm>
0.58

>  <Mv>
0.61

>  <Mse>
0.99

>  <Mp>
0.67

>  <Mi>
1.13

>  <NsCH3>
0

>  <NdCH2>
0

>  <NssCH2>
13

>  <NtCH>
0

>  <NdsCH>
0

>  <NaaCH>
7

>  <NsssCH>
1

>  <NddC>
0

>  <NtsC>
0

>  <NdssC>
1

>  <NaasC>
5

>  <NaaaC>
0

>  <NssssC>
1

>  <NsNH3>
0

>  <NsNH2>
0

>  <NssNH2>
0

>  <NdNH>
0

>  <NssNH>
1

>  <NaaNH>
0

>  <NtN>
0

>  <NsssNH>
0

>  <NdsN>
0

>  <NaaN>
0

>  <NsssN>
3

>  <NddsN>
0

>  <NaasN>
0

>  <NssssN>
0

>  <NsOH>
0

>  <NdO>
1

>  <NssO>
0

>  <NaaO>
0

>  <NsF>
0

>  <NsSiH3>
0

>  <NssSiH2>
0

>  <NsssSiH>
0

>  <NssssSi>
0

>  <NsPH2>
0

>  <NssPH>
0

>  <NsssP>
0

>  <NdsssP>
0

>  <NsssssP>
0

>  <NsSH>
0

>  <NdS>
0

>  <NssS>
0

>  <NaaS>
0

>  <NdssS>
0

>  <NddssS>
0

>  <NsCl>
1

>  <NsBr>
0

>  <NsI>
0

>  <fragCpx>
399.06

>  <fMF>
0.46

>  <nHBAcc>
4

>  <nHBDon>
1

>  <Kier1>
24.34

>  <Kier2>
10.4

>  <Lipinski>
1

>  <GhoseFilter>
0

>  <FilterItLogS>
-6.84

>  <VMcGowan>
368.15

>  <LabuteASA>
207.6

>  <PEOE_VSA1>
15.12

>  <PEOE_VSA2>
9.69

>  <PEOE_VSA3>
0

>  <PEOE_VSA4>
0

>  <PEOE_VSA5>
0

>  <PEOE_VSA6>
35.87

>  <PEOE_VSA7>
87.24

>  <PEOE_VSA8>
42.58

>  <PEOE_VSA9>
6.17

>  <PEOE_VSA10>
5.54

>  <PEOE_VSA11>
0

>  <PEOE_VSA12>
5.91

>  <PEOE_VSA13>
0

>  <SMR_VSA1>
4.79

>  <SMR_VSA2>
0

>  <SMR_VSA3>
15.12

>  <SMR_VSA4>
0

>  <SMR_VSA5>
63.07

>  <SMR_VSA6>
37.62

>  <SMR_VSA7>
58.61

>  <SMR_VSA8>
0

>  <SMR_VSA9>
0

>  <SlogP_VSA1>
10.22

>  <SlogP_VSA2>
60.14

>  <SlogP_VSA3>
17.64

>  <SlogP_VSA4>
0

>  <SlogP_VSA5>
49.65

>  <SlogP_VSA6>
42.46

>  <SlogP_VSA7>
5.02

>  <SlogP_VSA8>
0

>  <SlogP_VSA9>
0

>  <SlogP_VSA10>
11.37

>  <SlogP_VSA11>
0

>  <EState_VSA1>
0

>  <EState_VSA2>
17.61

>  <EState_VSA3>
0

>  <EState_VSA4>
76.27

>  <EState_VSA5>
35.34

>  <EState_VSA6>
0

>  <EState_VSA7>
6.07

>  <EState_VSA8>
56.41

>  <EState_VSA9>
11.6

>  <EState_VSA10>
4.79

>  <VSA_EState1>
0

>  <VSA_EState2>
20.51

>  <VSA_EState3>
4.1

>  <VSA_EState4>
5.12

>  <VSA_EState5>
0.29

>  <VSA_EState6>
15.16

>  <VSA_EState7>
8.97

>  <VSA_EState8>
5.13

>  <VSA_EState9>
0

>  <apol>
77.48

>  <bpol>
42.19

>  <nRing>
6

>  <nHRing>
4

>  <naRing>
2

>  <naHRing>
0

>  <nARing 2>
4

>  <nAHRing 2>
4

>  <nFRing>
2

>  <nFHRing>
2

>  <nFaRing>
0

>  <nFaHRing>
0

>  <nFARing 2>
2

>  <nFAHRing 2>
2

>  <nRot>
4

>  <SLogP>
4.74

>  <SMR>
137.82

>  <TopoPSA(NO)>
38.82

>  <TopoPSA>
38.82

>  <JGI1>
0.17

>  <JGI2>
0.09

>  <JGI3>
0.05

>  <JGI4>
0.03

>  <JGI5>
0.02

>  <Diameter>
15

>  <Radius>
8

>  <TMWC10>
153.15

>  <TSRW10>
85.83

>  <MW>
478.25

>  <AMW>
6.93

>  <WPath>
3653

>  <WPol>
65

>  <Zagreb1>
192

>  <Zagreb2>
235

>  <mZagreb2>
7.31

>  <yes>


>  <nAR-cont>
0.199399

>  <nHA-cont>
0.568589513

>  <MWHBN>
0.228634895

>  <MWHBN-cont>
0.98810677

>  <TPSA-cont>
0.729012294

>  <pka_cont>
0.97

>  <yes.1>


>  <BBB_SCORE>
4.193173255

>  <MMFF94 Energy>
30.672

$$$$
Compound 1876
Actelion Java MolfileCreator 2.0

  0  0  0  0  0  0              0 V3000
M  V30 BEGIN CTAB
M  V30 COUNTS 31 33 0 0 0
M  V30 BEGIN ATOM
M  V30 1 S 0.987 -0.2467 -1.8925 0
M  V30 2 O 0.772 -1.5922 -2.3701 0
M  V30 3 O 1.0344 0.9048 -2.7593 0
M  V30 4 N -0.0628 0.0439 -0.6137 0
M  V30 5 C 2.3935 -0.2355 -0.8728 0
M  V30 6 C 0.5857 0.1805 0.6342 0
M  V30 7 C -1.4814 0.2769 -0.9307 0 CFG=2
M  V30 8 C 2.0381 0.0057 0.4466 0
M  V30 9 C 3.7029 -0.4319 -1.2711 0
M  V30 10 O 0.0496 0.3844 1.7066 0
M  V30 11 C -1.9634 1.5387 -0.2092 0
M  V30 12 C -2.3086 -0.9804 -0.6544 0
M  V30 13 C 3.007 0.0599 1.4364 0
M  V30 14 C 4.6858 -0.3792 -0.2805 0
M  V30 15 O -1.4906 2.6504 -0.4491 0
M  V30 16 N -2.9094 1.4112 0.7676 0
M  V30 17 C -2.8152 -1.049 0.7796 0
M  V30 18 C 4.3412 -0.1351 1.0625 0
M  V30 19 C -3.6169 0.1996 1.0983 0
M  V30 20 H -1.5769 0.5009 -2.0014 0
M  V30 21 H 3.9574 -0.6166 -2.31 0
M  V30 22 H -3.1796 -0.9784 -1.3233 0
M  V30 23 H -1.7393 -1.887 -0.8903 0
M  V30 24 H 2.7382 0.2508 2.4718 0
M  V30 25 H 5.7311 -0.5259 -0.5475 0
M  V30 26 H -3.1562 2.2784 1.23 0
M  V30 27 H -1.9747 -1.15 1.4731 0
M  V30 28 H -3.444 -1.9362 0.9133 0
M  V30 29 H 5.1241 -0.0958 1.8182 0
M  V30 30 H -4.5541 0.2113 0.5312 0
M  V30 31 H -3.8679 0.2376 2.1629 0
M  V30 END ATOM
M  V30 BEGIN BOND
M  V30 1 2 1 2
M  V30 2 2 1 3
M  V30 3 1 1 4
M  V30 4 1 1 5
M  V30 5 1 4 6
M  V30 6 1 4 7
M  V30 7 2 5 8
M  V30 8 1 5 9
M  V30 9 2 6 10
M  V30 10 1 7 11
M  V30 11 1 7 12
M  V30 12 1 8 13
M  V30 13 2 9 14
M  V30 14 2 11 15
M  V30 15 1 11 16
M  V30 16 1 12 17
M  V30 17 2 13 18
M  V30 18 1 16 19
M  V30 19 1 6 8
M  V30 20 1 14 18
M  V30 21 1 17 19
M  V30 22 1 7 20
M  V30 23 1 9 21
M  V30 24 1 12 22
M  V30 25 1 12 23
M  V30 26 1 13 24
M  V30 27 1 14 25
M  V30 28 1 16 26
M  V30 29 1 17 27
M  V30 30 1 17 28
M  V30 31 1 18 29
M  V30 32 1 19 30
M  V30 33 1 19 31
M  V30 END BOND
M  V30 BEGIN COLLECTION
M  V30 MDLV30/STERAC1 ATOMS=(1 7)
M  V30 END COLLECTION
M  V30 END CTAB
M  END
>  <Column 1>
2286

>  <level_0>
2467

>  <index>
2467

>  <Unnamed: 0>
2467

>  <NO.>
2479

>  <Name>
supidimide

>  <IUPAC_name>
1-1-dioxo-2-(2-oxopiperidin-3-yl)-1-2-benzothiazol-3-one

>  <SMILES>
O=C1NCCCC1N1C(=O)c2ccccc2S1(=O)=O

>  <CID>
39528

>  <logBB>


>  <BBB+/BBB->
BBB+

>  <Inchi>
InChI=1S/C12H12N2O4S/c15-11-9(5-3-7-13-11)14-12(16)8-4-1-2-6-10(8)19(14-17)18/h1-2-4-6-9H-3-5-7H2-(H-13-15)

>  <threshold>
-1

>  <reference>
R1|R19|R6|R27|R27|R30|

>  <group>
B

>  <Class>
1

>  <ABC>
15.06

>  <ABCGG>
13.21

>  <nAcid>
0

>  <nBase>
0

>  <nAromAtom>
6

>  <nAromBond>
6

>  <nAtom>
31

>  <nHeavyAtom>
19

>  <nSpiro>
0

>  <nBridgehead>
0

>  <nHetero>
7

>  <nN>
2

>  <nO>
4

>  <nF>
0

>  <BalabanJ>
1.86

>  <BertzCT>
668.06

>  <nBonds>
33

>  <nBondsO>
21

>  <nBondsS>
23

>  <nBondsD>
4

>  <nBondsT>
0

>  <nBondsA>
6

>  <nBondsM>
10

>  <nBondsKS>
26

>  <nBondsKD>
7

>  <RNCG>
0.2

>  <RPCG>
0.15

>  <FCSP3>
0.33

>  <SZ>
24.33

>  <Sm>
23.34

>  <Sv>
20.81

>  <Sse>
32.05

>  <Sp>
21.77

>  <Si>
34.83

>  <MZ>
0.78

>  <Mm>
0.75

>  <Mv>
0.67

>  <Mse>
1.03

>  <Mp>
0.7

>  <Mi>
1.12

>  <NsCH3>
0

>  <NdCH2>
0

>  <NssCH2>
3

>  <NtCH>
0

>  <NdsCH>
0

>  <NaaCH>
4

>  <NsssCH>
1

>  <NddC>
0

>  <NtsC>
0

>  <NdssC>
2

>  <NaasC>
2

>  <NaaaC>
0

>  <NssssC>
0

>  <NsNH3>
0

>  <NsNH2>
0

>  <NssNH2>
0

>  <NdNH>
0

>  <NssNH>
1

>  <NaaNH>
0

>  <NtN>
0

>  <NsssNH>
0

>  <NdsN>
0

>  <NaaN>
0

>  <NsssN>
1

>  <NddsN>
0

>  <NaasN>
0

>  <NssssN>
0

>  <NsOH>
0

>  <NdO>
4

>  <NssO>
0

>  <NaaO>
0

>  <NsF>
0

>  <NsSiH3>
0

>  <NssSiH2>
0

>  <NsssSiH>
0

>  <NssssSi>
0

>  <NsPH2>
0

>  <NssPH>
0

>  <NsssP>
0

>  <NdsssP>
0

>  <NsssssP>
0

>  <NsSH>
0

>  <NdS>
0

>  <NssS>
0

>  <NaaS>
0

>  <NdssS>
0

>  <NddssS>
1

>  <NsCl>
0

>  <NsBr>
0

>  <NsI>
0

>  <fragCpx>
99.07

>  <fMF>
0.48

>  <nHBAcc>
4

>  <nHBDon>
1

>  <Kier1>
13.96

>  <Kier2>
5.08

>  <Lipinski>
1

>  <GhoseFilter>
1

>  <FilterItLogS>
-2.31

>  <VMcGowan>
185.65

>  <LabuteASA>
110

>  <PEOE_VSA1>
5.32

>  <PEOE_VSA2>
9.59

>  <PEOE_VSA3>
12.72

>  <PEOE_VSA4>
0

>  <PEOE_VSA5>
0

>  <PEOE_VSA6>
12.13

>  <PEOE_VSA7>
24.97

>  <PEOE_VSA8>
6.54

>  <PEOE_VSA9>
5.56

>  <PEOE_VSA10>
10.94

>  <PEOE_VSA11>
0

>  <PEOE_VSA12>
5.91

>  <PEOE_VSA13>
15.93

>  <SMR_VSA1>
18.01

>  <SMR_VSA2>
0

>  <SMR_VSA3>
9.62

>  <SMR_VSA4>
0

>  <SMR_VSA5>
23.78

>  <SMR_VSA6>
6.54

>  <SMR_VSA7>
29.83

>  <SMR_VSA8>
0

>  <SMR_VSA9>
0

>  <SlogP_VSA1>
5.32

>  <SlogP_VSA2>
37.12

>  <SlogP_VSA3>
14.82

>  <SlogP_VSA4>
0

>  <SlogP_VSA5>
23.2

>  <SlogP_VSA6>
29.16

>  <SlogP_VSA7>
0

>  <SlogP_VSA8>
0

>  <SlogP_VSA9>
0

>  <SlogP_VSA10>
0

>  <SlogP_VSA11>
0

>  <EState_VSA1>
27.88

>  <EState_VSA2>
10.46

>  <EState_VSA3>
19.39

>  <EState_VSA4>
4.31

>  <EState_VSA5>
12.13

>  <EState_VSA6>
12.13

>  <EState_VSA7>
0

>  <EState_VSA8>
5.32

>  <EState_VSA9>
0

>  <EState_VSA10>
18.01

>  <VSA_EState1>
25.46

>  <VSA_EState2>
24

>  <VSA_EState3>
2.6

>  <VSA_EState4>
0.14

>  <VSA_EState5>
-1.02

>  <VSA_EState6>
5.1

>  <VSA_EState7>
1.02

>  <VSA_EState8>
0.52

>  <VSA_EState9>
-3.91

>  <apol>
36.35

>  <bpol>
22.71

>  <nRing>
3

>  <nHRing>
2

>  <naRing>
1

>  <naHRing>
0

>  <nARing 2>
2

>  <nAHRing 2>
2

>  <nFRing>
1

>  <nFHRing>
1

>  <nFaRing>
0

>  <nFaHRing>
0

>  <nFARing 2>
1

>  <nFAHRing 2>
1

>  <nRot>
1

>  <SLogP>
0.11

>  <SMR>
65.83

>  <TopoPSA(NO)>
83.55

>  <TopoPSA>
91.93

>  <JGI1>
0.19

>  <JGI2>
0.1

>  <JGI3>
0.1

>  <JGI4>
0.05

>  <JGI5>
0.03

>  <Diameter>
8

>  <Radius>
4

>  <TMWC10>
115.53

>  <TSRW10>
68.09

>  <MW>
280.05

>  <AMW>
9.03

>  <WPath>
610

>  <WPol>
35

>  <Zagreb1>
106

>  <Zagreb2>
131

>  <mZagreb2>
4.06

>  <yes>


>  <nAR-cont>
1

>  <nHA-cont>
0.998649058

>  <MWHBN>
0.298780477

>  <MWHBN-cont>
0.844367005

>  <TPSA-cont>
0.358271515

>  <pka_cont>
0.97

>  <yes.1>


>  <BBB_SCORE>
4.466742594

>  <MMFF94 Energy>
-70.914

$$$$
Compound 1877
Actelion Java MolfileCreator 2.0

  0  0  0  0  0  0              0 V3000
M  V30 BEGIN CTAB
M  V30 COUNTS 49 52 0 0 0
M  V30 BEGIN ATOM
M  V30 1 O 1.594 0.6373 -2.5514 0
M  V30 2 C 1.8588 -0.2553 -3.3364 0
M  V30 3 N 1.6826 -1.6234 -3.1648 0
M  V30 4 N 2.3991 -0.0566 -4.5931 0
M  V30 5 C 1.0691 -2.269 -2.0071 0
M  V30 6 C 2.0227 -2.3495 -4.3699 0
M  V30 7 C 2.6518 -1.2949 -5.2723 0
M  V30 8 C 1.8348 -1.9774 -0.7119 0
M  V30 9 C -0.4144 -1.9109 -1.8761 0
M  V30 10 C 1.1238 -2.5972 0.4904 0
M  V30 11 C -1.0183 -2.5293 -0.6141 0
M  V30 12 N -0.2857 -2.2014 0.6209 0
M  V30 13 C -0.4869 -0.7869 0.9968 0
M  V30 14 C 0.0263 -0.4599 2.4075 0
M  V30 15 C -0.3169 0.9613 2.8758 0 CFG=2
M  V30 16 O -1.7466 1.1029 2.9223 0
M  V30 17 C 0.2888 2.0517 1.9913 0
M  V30 18 C -2.1174 2.4075 3.1259 0
M  V30 19 O 0.0634 3.3438 2.5734 0
M  V30 20 C -1.2419 3.487 2.97 0
M  V30 21 C -3.4414 2.6311 3.4994 0
M  V30 22 C -1.6799 4.7842 3.2306 0
M  V30 23 C -3.8839 3.9318 3.7467 0
M  V30 24 C -3.0025 5.0069 3.6178 0
M  V30 25 H 2.6234 0.8737 -4.9185 0
M  V30 26 H 1.1368 -3.351 -2.1868 0
M  V30 27 H 2.7138 -3.1655 -4.1397 0
M  V30 28 H 1.1038 -2.7552 -4.8056 0
M  V30 29 H 3.7346 -1.4252 -5.3589 0
M  V30 30 H 2.2065 -1.2711 -6.2703 0
M  V30 31 H 1.955 -0.9003 -0.5537 0
M  V30 32 H 2.8501 -2.3863 -0.7867 0
M  V30 33 H -0.9601 -2.273 -2.7562 0
M  V30 34 H -0.5537 -0.8236 -1.8616 0
M  V30 35 H 1.6833 -2.3786 1.4057 0
M  V30 36 H 1.1638 -3.691 0.3977 0
M  V30 37 H -1.0372 -3.6215 -0.7257 0
M  V30 38 H -2.0704 -2.2318 -0.5228 0
M  V30 39 H -1.5636 -0.576 0.9769 0
M  V30 40 H -0.0223 -0.1154 0.2679 0
M  V30 41 H 1.1133 -0.5835 2.46 0
M  V30 42 H -0.4208 -1.1732 3.112 0
M  V30 43 H 0.0539 1.0748 3.9046 0
M  V30 44 H -0.1413 2.0586 0.9825 0
M  V30 45 H 1.3718 1.9186 1.9007 0
M  V30 46 H -4.1233 1.7925 3.6078 0
M  V30 47 H -0.995 5.6201 3.1207 0
M  V30 48 H -4.9149 4.1063 4.0439 0
M  V30 49 H -3.3466 6.0191 3.8142 0
M  V30 END ATOM
M  V30 BEGIN BOND
M  V30 1 2 1 2
M  V30 2 1 2 3
M  V30 3 1 2 4
M  V30 4 1 3 5
M  V30 5 1 3 6
M  V30 6 1 4 7
M  V30 7 1 5 8
M  V30 8 1 5 9
M  V30 9 1 8 10
M  V30 10 1 9 11
M  V30 11 1 10 12
M  V30 12 1 12 13
M  V30 13 1 13 14
M  V30 14 1 14 15
M  V30 15 1 15 16
M  V30 16 1 15 17
M  V30 17 1 16 18
M  V30 18 1 17 19
M  V30 19 2 18 20
M  V30 20 1 18 21
M  V30 21 1 20 22
M  V30 22 2 21 23
M  V30 23 2 22 24
M  V30 24 1 6 7
M  V30 25 1 11 12
M  V30 26 1 19 20
M  V30 27 1 23 24
M  V30 28 1 4 25
M  V30 29 1 5 26
M  V30 30 1 6 27
M  V30 31 1 6 28
M  V30 32 1 7 29
M  V30 33 1 7 30
M  V30 34 1 8 31
M  V30 35 1 8 32
M  V30 36 1 9 33
M  V30 37 1 9 34
M  V30 38 1 10 35
M  V30 39 1 10 36
M  V30 40 1 11 37
M  V30 41 1 11 38
M  V30 42 1 13 39
M  V30 43 1 13 40
M  V30 44 1 14 41
M  V30 45 1 14 42
M  V30 46 1 15 43
M  V30 47 1 17 44
M  V30 48 1 17 45
M  V30 49 1 21 46
M  V30 50 1 22 47
M  V30 51 1 23 48
M  V30 52 1 24 49
M  V30 END BOND
M  V30 BEGIN COLLECTION
M  V30 MDLV30/STERAC1 ATOMS=(1 15)
M  V30 END COLLECTION
M  V30 END CTAB
M  END
>  <Column 1>
2287

>  <level_0>
2468

>  <index>
2468

>  <Unnamed: 0>
2468

>  <NO.>
2480

>  <Name>
schembl11222377

>  <IUPAC_name>
1-[1-[2-(2-3-dihydro-1-4-benzodioxin-3-yl)ethyl]piperidin-4-yl]imidazolidin-2-one

>  <SMILES>
O=C1NCCN1C1CCN(CCC2COc3ccccc3O2)CC1

>  <CID>
12850587

>  <logBB>


>  <BBB+/BBB->
BBB+

>  <Inchi>
InChI=1S/C18H25N3O3/c22-18-19-8-12-21(18)14-5-9-20(10-6-14)11-7-15-13-23-16-3-1-2-4-17(16)24-15/h1-4-14-15H-5-13H2-(H-19-22)

>  <threshold>
-1

>  <reference>
R1|R19|R27|R27|R30|

>  <group>
B

>  <Class>
1

>  <ABC>
19.08

>  <ABCGG>
13.98

>  <nAcid>
0

>  <nBase>
1

>  <nAromAtom>
6

>  <nAromBond>
6

>  <nAtom>
49

>  <nHeavyAtom>
24

>  <nSpiro>
0

>  <nBridgehead>
0

>  <nHetero>
6

>  <nN>
3

>  <nO>
3

>  <nF>
0

>  <BalabanJ>
1.17

>  <BertzCT>
586.63

>  <nBonds>
52

>  <nBondsO>
27

>  <nBondsS>
45

>  <nBondsD>
1

>  <nBondsT>
0

>  <nBondsA>
6

>  <nBondsM>
7

>  <nBondsKS>
48

>  <nBondsKD>
4

>  <RNCG>
0.21

>  <RPCG>
0.13

>  <FCSP3>
0.61

>  <SZ>
29.67

>  <Sm>
27.59

>  <Sv>
29.19

>  <Sse>
49.08

>  <Sp>
31.4

>  <Si>
55.69

>  <MZ>
0.61

>  <Mm>
0.56

>  <Mv>
0.6

>  <Mse>
1

>  <Mp>
0.64

>  <Mi>
1.14

>  <NsCH3>
0

>  <NdCH2>
0

>  <NssCH2>
9

>  <NtCH>
0

>  <NdsCH>
0

>  <NaaCH>
4

>  <NsssCH>
2

>  <NddC>
0

>  <NtsC>
0

>  <NdssC>
1

>  <NaasC>
2

>  <NaaaC>
0

>  <NssssC>
0

>  <NsNH3>
0

>  <NsNH2>
0

>  <NssNH2>
0

>  <NdNH>
0

>  <NssNH>
1

>  <NaaNH>
0

>  <NtN>
0

>  <NsssNH>
0

>  <NdsN>
0

>  <NaaN>
0

>  <NsssN>
2

>  <NddsN>
0

>  <NaasN>
0

>  <NssssN>
0

>  <NsOH>
0

>  <NdO>
1

>  <NssO>
2

>  <NaaO>
0

>  <NsF>
0

>  <NsSiH3>
0

>  <NssSiH2>
0

>  <NsssSiH>
0

>  <NssssSi>
0

>  <NsPH2>
0

>  <NssPH>
0

>  <NsssP>
0

>  <NdsssP>
0

>  <NsssssP>
0

>  <NsSH>
0

>  <NdS>
0

>  <NssS>
0

>  <NaaS>
0

>  <NdssS>
0

>  <NddssS>
0

>  <NsCl>
0

>  <NsBr>
0

>  <NsI>
0

>  <fragCpx>
177.06

>  <fMF>
0.47

>  <nHBAcc>
4

>  <nHBDon>
1

>  <Kier1>
17.42

>  <Kier2>
8.13

>  <Lipinski>
1

>  <GhoseFilter>
1

>  <FilterItLogS>
-2.98

>  <VMcGowan>
251.39

>  <LabuteASA>
142.25

>  <PEOE_VSA1>
24.59

>  <PEOE_VSA2>
0

>  <PEOE_VSA3>
4.79

>  <PEOE_VSA4>
0

>  <PEOE_VSA5>
0

>  <PEOE_VSA6>
12.13

>  <PEOE_VSA7>
24.97

>  <PEOE_VSA8>
45.19

>  <PEOE_VSA9>
0

>  <PEOE_VSA10>
12.71

>  <PEOE_VSA11>
11.5

>  <PEOE_VSA12>
0

>  <PEOE_VSA13>
0

>  <SMR_VSA1>
14.27

>  <SMR_VSA2>
0

>  <SMR_VSA3>
15.12

>  <SMR_VSA4>
0

>  <SMR_VSA5>
31.41

>  <SMR_VSA6>
39.33

>  <SMR_VSA7>
24.27

>  <SMR_VSA8>
0

>  <SMR_VSA9>
11.5

>  <SlogP_VSA1>
14.79

>  <SlogP_VSA2>
67.31

>  <SlogP_VSA3>
0

>  <SlogP_VSA4>
0

>  <SlogP_VSA5>
19.26

>  <SlogP_VSA6>
24.27

>  <SlogP_VSA7>
0

>  <SlogP_VSA8>
0

>  <SlogP_VSA9>
0

>  <SlogP_VSA10>
4.79

>  <SlogP_VSA11>
11.5

>  <EState_VSA1>
0

>  <EState_VSA2>
12.14

>  <EState_VSA3>
12.65

>  <EState_VSA4>
63.49

>  <EState_VSA5>
0

>  <EState_VSA6>
0

>  <EState_VSA7>
29.17

>  <EState_VSA8>
10.22

>  <EState_VSA9>
9.47

>  <EState_VSA10>
4.79

>  <VSA_EState1>
11.8

>  <VSA_EState2>
16.25

>  <VSA_EState3>
2.9

>  <VSA_EState4>
0

>  <VSA_EState5>
1.7

>  <VSA_EState6>
8.38

>  <VSA_EState7>
3.24

>  <VSA_EState8>
5.41

>  <VSA_EState9>
0

>  <apol>
52.44

>  <bpol>
33.41

>  <nRing>
4

>  <nHRing>
3

>  <naRing>
1

>  <naHRing>
0

>  <nARing 2>
3

>  <nAHRing 2>
3

>  <nFRing>
1

>  <nFHRing>
1

>  <nFaRing>
0

>  <nFaHRing>
0

>  <nFARing 2>
1

>  <nFAHRing 2>
1

>  <nRot>
4

>  <SLogP>
1.71

>  <SMR>
90.54

>  <TopoPSA(NO)>
54.04

>  <TopoPSA>
54.04

>  <JGI1>
0.15

>  <JGI2>
0.07

>  <JGI3>
0.03

>  <JGI4>
0.04

>  <JGI5>
0.02

>  <Diameter>
14

>  <Radius>
7

>  <TMWC10>
125.64

>  <TSRW10>
72.13

>  <MW>
331.19

>  <AMW>
6.76

>  <WPath>
1569

>  <WPol>
35

>  <Zagreb1>
128

>  <Zagreb2>
150

>  <mZagreb2>
5.25

>  <yes>


>  <nAR-cont>
0.691115

>  <nHA-cont>
0.94700071

>  <MWHBN>
0.274746012

>  <MWHBN-cont>
0.909032983

>  <TPSA-cont>
0.622767243

>  <pka_cont>
0.97

>  <yes.1>


>  <BBB_SCORE>
4.73219967

>  <MMFF94 Energy>
-10.035

$$$$
Compound 1878
Actelion Java MolfileCreator 2.0

  0  0  0  0  0  0              0 V3000
M  V30 BEGIN CTAB
M  V30 COUNTS 57 61 0 0 0
M  V30 BEGIN ATOM
M  V30 1 Cl 5.2465 3.3876 -1.854 0
M  V30 2 C 3.5343 3.4441 -1.6735 0
M  V30 3 C 2.8278 2.2568 -1.467 0
M  V30 4 C 2.8786 4.6677 -1.727 0
M  V30 5 C 1.4237 2.2977 -1.3148 0
M  V30 6 C 1.4902 4.7363 -1.582 0
M  V30 7 C 0.7774 3.5371 -1.3885 0
M  V30 8 C 0.4299 1.2879 -1.071 0
M  V30 9 N -0.5776 3.2984 -1.2175 0
M  V30 10 C -0.7794 1.9519 -1.0103 0
M  V30 11 C 0.7079 -0.1939 -0.9128 0
M  V30 12 C -1.6123 4.2609 -1.2457 0
M  V30 13 C 1.2072 -0.5367 0.4993 0
M  V30 14 C -0.443 -1.1211 -1.3355 0
M  V30 15 C -1.7695 5.076 -2.3736 0
M  V30 16 C -2.4808 4.3666 -0.1519 0
M  V30 17 C 0.0615 -0.7325 1.4927 0
M  V30 18 C -1.4904 -1.3507 -0.2407 0
M  V30 19 C -2.8011 6.0148 -2.3973 0
M  V30 20 C -3.5085 5.3094 -0.1864 0
M  V30 21 N -0.9309 -1.7255 1.0646 0
M  V30 22 C -3.6584 6.1238 -1.3056 0
M  V30 23 C -0.4492 -3.1193 1.0746 0
M  V30 24 F -4.6471 7.0271 -1.3339 0
M  V30 25 C -0.1769 -3.6779 2.4852 0
M  V30 26 N 0.2927 -5.0528 2.4461 0
M  V30 27 C -0.5355 -6.1638 2.4001 0
M  V30 28 C 1.677 -5.4144 2.2361 0
M  V30 29 O -1.7517 -6.1865 2.4441 0
M  V30 30 N 0.2718 -7.2797 2.2771 0
M  V30 31 C 1.6663 -6.9378 2.3099 0
M  V30 32 H 3.3555 1.3093 -1.417 0
M  V30 33 H 3.4429 5.5848 -1.879 0
M  V30 34 H 0.9847 5.6974 -1.612 0
M  V30 35 H -1.7845 1.5841 -0.8591 0
M  V30 36 H 1.5347 -0.4072 -1.6063 0
M  V30 37 H 1.8816 0.2416 0.8771 0
M  V30 38 H 1.8067 -1.4543 0.4515 0
M  V30 39 H -0.0151 -2.0946 -1.6095 0
M  V30 40 H -0.935 -0.7433 -2.2403 0
M  V30 41 H -1.1111 4.9805 -3.2338 0
M  V30 42 H -2.3614 3.7351 0.7255 0
M  V30 43 H -0.4505 0.2264 1.6466 0
M  V30 44 H 0.4699 -0.9882 2.476 0
M  V30 45 H -2.2074 -2.1098 -0.5784 0
M  V30 46 H -2.0934 -0.4474 -0.1029 0
M  V30 47 H -2.9469 6.6584 -3.2593 0
M  V30 48 H -4.1928 5.4159 0.6495 0
M  V30 49 H 0.4435 -3.2403 0.4506 0
M  V30 50 H -1.2168 -3.7623 0.623 0
M  V30 51 H 0.5761 -3.094 3.0222 0
M  V30 52 H -1.1066 -3.6527 3.0658 0
M  V30 53 H 1.9872 -5.0645 1.2464 0
M  V30 54 H 2.3118 -4.963 3.0038 0
M  V30 55 H -0.129 -8.2073 2.2486 0
M  V30 56 H 2.086 -7.3023 3.2524 0
M  V30 57 H 2.1879 -7.4071 1.4719 0
M  V30 END ATOM
M  V30 BEGIN BOND
M  V30 1 1 1 2
M  V30 2 2 2 3
M  V30 3 1 2 4
M  V30 4 1 3 5
M  V30 5 2 4 6
M  V30 6 2 5 7
M  V30 7 1 5 8
M  V30 8 1 7 9
M  V30 9 2 8 10
M  V30 10 1 8 11
M  V30 11 1 9 12
M  V30 12 1 11 13
M  V30 13 1 11 14
M  V30 14 2 12 15
M  V30 15 1 12 16
M  V30 16 1 13 17
M  V30 17 1 14 18
M  V30 18 1 15 19
M  V30 19 2 16 20
M  V30 20 1 17 21
M  V30 21 2 19 22
M  V30 22 1 21 23
M  V30 23 1 22 24
M  V30 24 1 23 25
M  V30 25 1 25 26
M  V30 26 1 26 27
M  V30 27 1 26 28
M  V30 28 2 27 29
M  V30 29 1 27 30
M  V30 30 1 28 31
M  V30 31 1 6 7
M  V30 32 1 9 10
M  V30 33 1 18 21
M  V30 34 1 20 22
M  V30 35 1 30 31
M  V30 36 1 3 32
M  V30 37 1 4 33
M  V30 38 1 6 34
M  V30 39 1 10 35
M  V30 40 1 11 36
M  V30 41 1 13 37
M  V30 42 1 13 38
M  V30 43 1 14 39
M  V30 44 1 14 40
M  V30 45 1 15 41
M  V30 46 1 16 42
M  V30 47 1 17 43
M  V30 48 1 17 44
M  V30 49 1 18 45
M  V30 50 1 18 46
M  V30 51 1 19 47
M  V30 52 1 20 48
M  V30 53 1 23 49
M  V30 54 1 23 50
M  V30 55 1 25 51
M  V30 56 1 25 52
M  V30 57 1 28 53
M  V30 58 1 28 54
M  V30 59 1 30 55
M  V30 60 1 31 56
M  V30 61 1 31 57
M  V30 END BOND
M  V30 END CTAB
M  END
>  <Column 1>
2288

>  <level_0>
2469

>  <index>
2469

>  <Unnamed: 0>
2469

>  <NO.>
2481

>  <Name>
sertindole

>  <IUPAC_name>
1-[2-[4-[5-chloro-1-(4-fluorophenyl)indol-3-yl]piperidin-1-yl]ethyl]imidazolidin-2-one

>  <SMILES>
O=C1NCCN1CCN1CCC(c2cn(-c3ccc(F)cc3)c3ccc(Cl)cc23)CC1

>  <CID>
60149

>  <logBB>


>  <BBB+/BBB->
BBB+

>  <Inchi>
InChI=1S/C24H26ClFN4O/c25-18-1-6-23-21(15-18)22(16-30(23)20-4-2-19(26)3-5-20)17-7-10-28(11-8-17)13-14-29-12-9-27-24(29)31/h1-6-15-17H-7-14H2-(H-27-31)

>  <threshold>
-1

>  <reference>
R1|R13|R19|R6|R14|R23|R24|R27|R27|R27|R30|R30|R37|R50|

>  <group>
B

>  <Class>
1

>  <ABC>
24.83

>  <ABCGG>
18.15

>  <nAcid>
0

>  <nBase>
1

>  <nAromAtom>
15

>  <nAromBond>
16

>  <nAtom>
57

>  <nHeavyAtom>
31

>  <nSpiro>
0

>  <nBridgehead>
0

>  <nHetero>
7

>  <nN>
4

>  <nO>
1

>  <nF>
1

>  <BalabanJ>
1.16

>  <BertzCT>
1088.9

>  <nBonds>
61

>  <nBondsO>
35

>  <nBondsS>
44

>  <nBondsD>
1

>  <nBondsT>
0

>  <nBondsA>
16

>  <nBondsM>
17

>  <nBondsKS>
53

>  <nBondsKD>
8

>  <RNCG>
0.16

>  <RPCG>
0.15

>  <FCSP3>
0.38

>  <SZ>
38.67

>  <Sm>
36.71

>  <Sv>
36.53

>  <Sse>
57.25

>  <Sp>
39.14

>  <Si>
64.47

>  <MZ>
0.68

>  <Mm>
0.64

>  <Mv>
0.64

>  <Mse>
1

>  <Mp>
0.69

>  <Mi>
1.13

>  <NsCH3>
0

>  <NdCH2>
0

>  <NssCH2>
8

>  <NtCH>
0

>  <NdsCH>
0

>  <NaaCH>
8

>  <NsssCH>
1

>  <NddC>
0

>  <NtsC>
0

>  <NdssC>
1

>  <NaasC>
4

>  <NaaaC>
2

>  <NssssC>
0

>  <NsNH3>
0

>  <NsNH2>
0

>  <NssNH2>
0

>  <NdNH>
0

>  <NssNH>
1

>  <NaaNH>
0

>  <NtN>
0

>  <NsssNH>
0

>  <NdsN>
0

>  <NaaN>
0

>  <NsssN>
2

>  <NddsN>
0

>  <NaasN>
1

>  <NssssN>
0

>  <NsOH>
0

>  <NdO>
1

>  <NssO>
0

>  <NaaO>
0

>  <NsF>
1

>  <NsSiH3>
0

>  <NssSiH2>
0

>  <NsssSiH>
0

>  <NssssSi>
0

>  <NsPH2>
0

>  <NssPH>
0

>  <NsssP>
0

>  <NdsssP>
0

>  <NsssssP>
0

>  <NsSH>
0

>  <NdS>
0

>  <NssS>
0

>  <NaaS>
0

>  <NdssS>
0

>  <NddssS>
0

>  <NsCl>
1

>  <NsBr>
0

>  <NsI>
0

>  <fragCpx>
295.07

>  <fMF>
0.49

>  <nHBAcc>
3

>  <nHBDon>
1

>  <Kier1>
22.78

>  <Kier2>
10.09

>  <Lipinski>
1

>  <GhoseFilter>
1

>  <FilterItLogS>
-5.95

>  <VMcGowan>
320.11

>  <LabuteASA>
185.93

>  <PEOE_VSA1>
19.68

>  <PEOE_VSA2>
0

>  <PEOE_VSA3>
9.18

>  <PEOE_VSA4>
0

>  <PEOE_VSA5>
0

>  <PEOE_VSA6>
11.6

>  <PEOE_VSA7>
79.88

>  <PEOE_VSA8>
48.47

>  <PEOE_VSA9>
5.52

>  <PEOE_VSA10>
5.82

>  <PEOE_VSA11>
0

>  <PEOE_VSA12>
0

>  <PEOE_VSA13>
0

>  <SMR_VSA1>
9.18

>  <SMR_VSA2>
0

>  <SMR_VSA3>
19.68

>  <SMR_VSA4>
0

>  <SMR_VSA5>
18.76

>  <SMR_VSA6>
39.27

>  <SMR_VSA7>
65.06

>  <SMR_VSA8>
0

>  <SMR_VSA9>
5.69

>  <SlogP_VSA1>
5.32

>  <SlogP_VSA2>
59.67

>  <SlogP_VSA3>
0

>  <SlogP_VSA4>
5.82

>  <SlogP_VSA5>
24.32

>  <SlogP_VSA6>
48.66

>  <SlogP_VSA7>
5.02

>  <SlogP_VSA8>
16.59

>  <SlogP_VSA9>
0

>  <SlogP_VSA10>
9.18

>  <SlogP_VSA11>
0

>  <EState_VSA1>
0

>  <EState_VSA2>
11.85

>  <EState_VSA3>
5.92

>  <EState_VSA4>
68.34

>  <EState_VSA5>
23.08

>  <EState_VSA6>
0

>  <EState_VSA7>
35.23

>  <EState_VSA8>
20.98

>  <EState_VSA9>
11.6

>  <EState_VSA10>
9.18

>  <VSA_EState1>
15.57

>  <VSA_EState2>
16.08

>  <VSA_EState3>
4.76

>  <VSA_EState4>
3.34

>  <VSA_EState5>
0.22

>  <VSA_EState6>
12.66

>  <VSA_EState7>
4.34

>  <VSA_EState8>
5.3

>  <VSA_EState9>
0

>  <apol>
65.36

>  <bpol>
34.27

>  <nRing>
5

>  <nHRing>
3

>  <naRing>
3

>  <naHRing>
1

>  <nARing 2>
2

>  <nAHRing 2>
2

>  <nFRing>
1

>  <nFHRing>
1

>  <nFaRing>
1

>  <nFaHRing>
1

>  <nFARing 2>
0

>  <nFAHRing 2>
0

>  <nRot>
5

>  <SLogP>
4.63

>  <SMR>
121.63

>  <TopoPSA(NO)>
40.51

>  <TopoPSA>
40.51

>  <JGI1>
0.17

>  <JGI2>
0.08

>  <JGI3>
0.04

>  <JGI4>
0.04

>  <JGI5>
0.03

>  <Diameter>
16

>  <Radius>
8

>  <TMWC10>
144.28

>  <TSRW10>
83.11

>  <MW>
440.18

>  <AMW>
7.72

>  <WPath>
2921

>  <WPol>
49

>  <Zagreb1>
170

>  <Zagreb2>
203

>  <mZagreb2>
6.67

>  <yes>


>  <nAR-cont>
1

>  <nHA-cont>
0.702745138

>  <MWHBN>
0.190653525

>  <MWHBN-cont>
0.996035764

>  <TPSA-cont>
0.717215045

>  <pka_cont>
0.97

>  <yes.1>


>  <BBB_SCORE>
5.116228873

>  <MMFF94 Energy>
14.498

$$$$
Compound 1879
Actelion Java MolfileCreator 2.0

  0  0  0  0  0  0              0 V3000
M  V30 BEGIN CTAB
M  V30 COUNTS 22 23 0 0 0
M  V30 BEGIN ATOM
M  V30 1 S -0.2443 -2.3643 1.6301 0
M  V30 2 C 0.0296 -0.7804 1.0131 0
M  V30 3 C 1.3818 -2.5293 2.1248 0
M  V30 4 C 1.3506 -0.405 1.1883 0
M  V30 5 C -1.1221 -0.029 0.3768 0 CFG=2
M  V30 6 C 2.1279 -1.4119 1.8303 0
M  V30 7 N -1.3687 -0.4969 -1.0139 0
M  V30 8 C -0.8945 1.5043 0.4862 0
M  V30 9 C -0.4252 0.0982 -1.9616 0
M  V30 10 O -0.9682 2.116 1.5538 0
M  V30 11 N -0.5178 2.1926 -0.6416 0
M  V30 12 C -0.571 1.621 -1.9679 0
M  V30 13 H 1.7124 -3.4368 2.6112 0
M  V30 14 H 1.747 0.5551 0.8786 0
M  V30 15 H -2.0403 -0.2288 0.9448 0
M  V30 16 H 3.1804 -1.3179 2.068 0
M  V30 17 H -1.2762 -1.5122 -1.0207 0
M  V30 18 H 0.604 -0.187 -1.7164 0
M  V30 19 H -0.6315 -0.2867 -2.9659 0
M  V30 20 H -0.3805 3.1872 -0.515 0
M  V30 21 H 0.2222 2.083 -2.5635 0
M  V30 22 H -1.5347 1.9115 -2.4013 0
M  V30 END ATOM
M  V30 BEGIN BOND
M  V30 1 1 1 2
M  V30 2 1 1 3
M  V30 3 2 2 4
M  V30 4 1 2 5
M  V30 5 2 3 6
M  V30 6 1 5 7
M  V30 7 1 5 8
M  V30 8 1 7 9
M  V30 9 2 8 10
M  V30 10 1 8 11
M  V30 11 1 9 12
M  V30 12 1 4 6
M  V30 13 1 11 12
M  V30 14 1 3 13
M  V30 15 1 4 14
M  V30 16 1 5 15
M  V30 17 1 6 16
M  V30 18 1 7 17
M  V30 19 1 9 18
M  V30 20 1 9 19
M  V30 21 1 11 20
M  V30 22 1 12 21
M  V30 23 1 12 22
M  V30 END BOND
M  V30 BEGIN COLLECTION
M  V30 MDLV30/STERAC1 ATOMS=(1 5)
M  V30 END COLLECTION
M  V30 END CTAB
M  END
>  <Column 1>
2289

>  <level_0>
2470

>  <index>
2470

>  <Unnamed: 0>
2470

>  <NO.>
2482

>  <Name>
tenilsetam

>  <IUPAC_name>
3-thiophen-2-ylpiperazin-2-one

>  <SMILES>
O=C1NCCNC1c1cccs1

>  <CID>
65649

>  <logBB>


>  <BBB+/BBB->
BBB+

>  <Inchi>
InChI=1S/C8H10N2OS/c11-8-7(9-3-4-10-8)6-2-1-5-12-6/h1-2-5-7-9H-3-4H2-(H-10-11)

>  <threshold>
-1

>  <reference>
R1|R19|R6|R27|R27|R30|

>  <group>
B

>  <Class>
1

>  <ABC>
9.22

>  <ABCGG>
8.58

>  <nAcid>
0

>  <nBase>
1

>  <nAromAtom>
5

>  <nAromBond>
5

>  <nAtom>
22

>  <nHeavyAtom>
12

>  <nSpiro>
0

>  <nBridgehead>
0

>  <nHetero>
4

>  <nN>
2

>  <nO>
1

>  <nF>
0

>  <BalabanJ>
1.91

>  <BertzCT>
270.6

>  <nBonds>
23

>  <nBondsO>
13

>  <nBondsS>
17

>  <nBondsD>
1

>  <nBondsT>
0

>  <nBondsA>
5

>  <nBondsM>
6

>  <nBondsKS>
20

>  <nBondsKD>
3

>  <RNCG>
0.3

>  <RPCG>
0.21

>  <FCSP3>
0.38

>  <SZ>
16

>  <Sm>
15.17

>  <Sv>
14.13

>  <Sse>
22.17

>  <Sp>
15.53

>  <Si>
24.79

>  <MZ>
0.73

>  <Mm>
0.69

>  <Mv>
0.64

>  <Mse>
1.01

>  <Mp>
0.71

>  <Mi>
1.13

>  <NsCH3>
0

>  <NdCH2>
0

>  <NssCH2>
2

>  <NtCH>
0

>  <NdsCH>
0

>  <NaaCH>
3

>  <NsssCH>
1

>  <NddC>
0

>  <NtsC>
0

>  <NdssC>
1

>  <NaasC>
1

>  <NaaaC>
0

>  <NssssC>
0

>  <NsNH3>
0

>  <NsNH2>
0

>  <NssNH2>
0

>  <NdNH>
0

>  <NssNH>
2

>  <NaaNH>
0

>  <NtN>
0

>  <NsssNH>
0

>  <NdsN>
0

>  <NaaN>
0

>  <NsssN>
0

>  <NddsN>
0

>  <NaasN>
0

>  <NssssN>
0

>  <NsOH>
0

>  <NdO>
1

>  <NssO>
0

>  <NaaO>
0

>  <NsF>
0

>  <NsSiH3>
0

>  <NssSiH2>
0

>  <NsssSiH>
0

>  <NssssSi>
0

>  <NsPH2>
0

>  <NssPH>
0

>  <NsssP>
0

>  <NdsssP>
0

>  <NsssssP>
0

>  <NsSH>
0

>  <NdS>
0

>  <NssS>
0

>  <NaaS>
1

>  <NdssS>
0

>  <NddssS>
0

>  <NsCl>
0

>  <NsBr>
0

>  <NsI>
0

>  <fragCpx>
37.04

>  <fMF>
0.5

>  <nHBAcc>
3

>  <nHBDon>
2

>  <Kier1>
8.59

>  <Kier2>
3.81

>  <Lipinski>
1

>  <GhoseFilter>
1

>  <FilterItLogS>
-2.08

>  <VMcGowan>
131.14

>  <LabuteASA>
74.79

>  <PEOE_VSA1>
5.32

>  <PEOE_VSA2>
10.11

>  <PEOE_VSA3>
0

>  <PEOE_VSA4>
0

>  <PEOE_VSA5>
11.34

>  <PEOE_VSA6>
6.07

>  <PEOE_VSA7>
11.45

>  <PEOE_VSA8>
17.97

>  <PEOE_VSA9>
0

>  <PEOE_VSA10>
6.04

>  <PEOE_VSA11>
0

>  <PEOE_VSA12>
5.91

>  <PEOE_VSA13>
0

>  <SMR_VSA1>
4.79

>  <SMR_VSA2>
0

>  <SMR_VSA3>
10.63

>  <SMR_VSA4>
0

>  <SMR_VSA5>
6.04

>  <SMR_VSA6>
13.09

>  <SMR_VSA7>
22.39

>  <SMR_VSA8>
0

>  <SMR_VSA9>
0

>  <SlogP_VSA1>
10.63

>  <SlogP_VSA2>
19

>  <SlogP_VSA3>
4.79

>  <SlogP_VSA4>
0

>  <SlogP_VSA5>
10.92

>  <SlogP_VSA6>
17.51

>  <SlogP_VSA7>
0

>  <SlogP_VSA8>
0

>  <SlogP_VSA9>
0

>  <SlogP_VSA10>
0

>  <SlogP_VSA11>
0

>  <EState_VSA1>
0

>  <EState_VSA2>
11.95

>  <EState_VSA3>
0

>  <EState_VSA4>
17.97

>  <EState_VSA5>
0

>  <EState_VSA6>
11.34

>  <EState_VSA7>
17.51

>  <EState_VSA8>
10.63

>  <EState_VSA9>
0

>  <EState_VSA10>
4.79

>  <VSA_EState1>
0

>  <VSA_EState2>
12.42

>  <VSA_EState3>
7.98

>  <VSA_EState4>
0

>  <VSA_EState5>
0.09

>  <VSA_EState6>
3.82

>  <VSA_EState7>
0

>  <VSA_EState8>
1.59

>  <VSA_EState9>
0

>  <apol>
25.93

>  <bpol>
14.5

>  <nRing>
2

>  <nHRing>
2

>  <naRing>
1

>  <naHRing>
1

>  <nARing 2>
1

>  <nAHRing 2>
1

>  <nFRing>
0

>  <nFHRing>
0

>  <nFaRing>
0

>  <nFaHRing>
0

>  <nFARing 2>
0

>  <nFAHRing 2>
0

>  <nRot>
1

>  <SLogP>
0.51

>  <SMR>
48.07

>  <TopoPSA(NO)>
41.13

>  <TopoPSA>
69.37

>  <JGI1>
0.12

>  <JGI2>
0.08

>  <JGI3>
0.05

>  <JGI4>
0.03

>  <JGI5>
0.02

>  <Diameter>
6

>  <Radius>
3

>  <TMWC10>
92.26

>  <TSRW10>
55.77

>  <MW>
182.05

>  <AMW>
8.28

>  <WPath>
189

>  <WPol>
14

>  <Zagreb1>
60

>  <Zagreb2>
69

>  <mZagreb2>
2.72

>  <yes>


>  <nAR-cont>
0.816016

>  <nHA-cont>
0.785745021

>  <MWHBN>
0.370573759

>  <MWHBN-cont>
0.59163566

>  <TPSA-cont>
0.515754324

>  <pka_cont>
0.97

>  <yes.1>


>  <BBB_SCORE>
4.005723159

>  <MMFF94 Energy>
83.193

$$$$
Compound 1880
Actelion Java MolfileCreator 2.0

  0  0  0  0  0  0              0 V3000
M  V30 BEGIN CTAB
M  V30 COUNTS 53 57 0 0 0
M  V30 BEGIN ATOM
M  V30 1 O -3.2082 -1.924 -0.5608 0
M  V30 2 C -2.3632 -1.7272 -1.4195 0
M  V30 3 N -2.3892 -2.322 -2.6601 0
M  V30 4 C -1.1314 -0.8001 -1.3597 0
M  V30 5 C -1.3251 -1.93 -3.5132 0
M  V30 6 N -0.4857 -1.1186 -2.6603 0
M  V30 7 C -0.2883 -1.2063 -0.1489 0
M  V30 8 C -1.6482 0.6413 -1.2868 0
M  V30 9 C 0.5971 -0.482 -3.2092 0
M  V30 10 C 0.6432 -0.1002 0.3371 0
M  V30 11 C -0.6175 1.6252 -0.7412 0
M  V30 12 C 1.8971 -0.8784 -2.8797 0
M  V30 13 C 0.4453 0.5489 -4.1449 0
M  V30 14 N -0.0895 1.1571 0.545 0
M  V30 15 C 3.0119 -0.2523 -3.4439 0
M  V30 16 C 1.5547 1.181 -4.7133 0
M  V30 17 C 0.7662 2.1748 1.1837 0
M  V30 18 C 2.8398 0.7808 -4.36 0
M  V30 19 C 0.6916 2.263 2.7326 0 CFG=2
M  V30 20 O 1.3631 1.1755 3.3833 0
M  V30 21 C -0.7074 2.5182 3.2959 0
M  V30 22 C 0.5189 0.1946 3.832 0
M  V30 23 O -1.5436 1.3635 3.2825 0
M  V30 24 C -0.8731 0.2697 3.7588 0
M  V30 25 C 1.1259 -0.9484 4.3533 0
M  V30 26 C -1.6537 -0.813 4.161 0
M  V30 27 C 0.3441 -2.0251 4.7751 0
M  V30 28 C -1.0453 -1.9601 4.6718 0
M  V30 29 H -3.1243 -2.9654 -2.9107 0
M  V30 30 H -0.8084 -2.8247 -3.873 0
M  V30 31 H -1.7487 -1.3722 -4.3542 0
M  V30 32 H 0.2954 -2.1098 -0.3647 0
M  V30 33 H -0.9474 -1.4729 0.689 0
M  V30 34 H -2.0008 0.9853 -2.2671 0
M  V30 35 H -2.5269 0.6832 -0.6273 0
M  V30 36 H 1.1044 -0.4437 1.2666 0
M  V30 37 H 1.469 0.049 -0.3658 0
M  V30 38 H 0.1898 1.7969 -1.4617 0
M  V30 39 H -1.1288 2.5868 -0.6057 0
M  V30 40 H 2.0494 -1.6944 -2.1777 0
M  V30 41 H -0.5497 0.8803 -4.4306 0
M  V30 42 H 4.0116 -0.5768 -3.1685 0
M  V30 43 H 1.4124 1.9847 -5.4307 0
M  V30 44 H 1.812 2.0409 0.877 0
M  V30 45 H 0.4742 3.1695 0.8198 0
M  V30 46 H 3.7047 1.2693 -4.8004 0
M  V30 47 H 1.2872 3.1486 2.9931 0
M  V30 48 H -0.6367 2.8645 4.3359 0
M  V30 49 H -1.2128 3.3082 2.7298 0
M  V30 50 H 2.2088 -1.0059 4.4142 0
M  V30 51 H -2.7356 -0.7598 4.0768 0
M  V30 52 H 0.8188 -2.918 5.173 0
M  V30 53 H -1.6564 -2.8018 4.9868 0
M  V30 END ATOM
M  V30 BEGIN BOND
M  V30 1 2 1 2
M  V30 2 1 2 3
M  V30 3 1 2 4
M  V30 4 1 3 5
M  V30 5 1 4 6
M  V30 6 1 4 7
M  V30 7 1 4 8
M  V30 8 1 6 9
M  V30 9 1 7 10
M  V30 10 1 8 11
M  V30 11 2 9 12
M  V30 12 1 9 13
M  V30 13 1 10 14
M  V30 14 1 12 15
M  V30 15 2 13 16
M  V30 16 1 14 17
M  V30 17 2 15 18
M  V30 18 1 17 19
M  V30 19 1 19 20
M  V30 20 1 19 21
M  V30 21 1 20 22
M  V30 22 1 21 23
M  V30 23 2 22 24
M  V30 24 1 22 25
M  V30 25 1 24 26
M  V30 26 2 25 27
M  V30 27 2 26 28
M  V30 28 1 5 6
M  V30 29 1 11 14
M  V30 30 1 16 18
M  V30 31 1 23 24
M  V30 32 1 27 28
M  V30 33 1 3 29
M  V30 34 1 5 30
M  V30 35 1 5 31
M  V30 36 1 7 32
M  V30 37 1 7 33
M  V30 38 1 8 34
M  V30 39 1 8 35
M  V30 40 1 10 36
M  V30 41 1 10 37
M  V30 42 1 11 38
M  V30 43 1 11 39
M  V30 44 1 12 40
M  V30 45 1 13 41
M  V30 46 1 15 42
M  V30 47 1 16 43
M  V30 48 1 17 44
M  V30 49 1 17 45
M  V30 50 1 18 46
M  V30 51 1 19 47
M  V30 52 1 21 48
M  V30 53 1 21 49
M  V30 54 1 25 50
M  V30 55 1 26 51
M  V30 56 1 27 52
M  V30 57 1 28 53
M  V30 END BOND
M  V30 BEGIN COLLECTION
M  V30 MDLV30/STERAC1 ATOMS=(1 19)
M  V30 END COLLECTION
M  V30 END CTAB
M  END
>  <Column 1>
2290

>  <level_0>
2471

>  <index>
2471

>  <Unnamed: 0>
2471

>  <NO.>
2483

>  <Name>
spiroxatrine

>  <IUPAC_name>
8-(2-3-dihydro-1-4-benzodioxin-3-ylmethyl)-1-phenyl-1-3-8-triazaspiro[4.5]decan-4-one

>  <SMILES>
O=C1NCN(c2ccccc2)C12CCN(CC1COc3ccccc3O1)CC2

>  <CID>
5268

>  <logBB>


>  <BBB+/BBB->
BBB+

>  <Inchi>
InChI=1S/C22H25N3O3/c26-21-22(25(16-23-21)17-6-2-1-3-7-17)10-12-24(13-11-22)14-18-15-27-19-8-4-5-9-20(19)28-18/h1-9-18H-10-16H2-(H-23-26)

>  <threshold>
-1

>  <reference>
R1|R19|R6|R27|R27|R30|

>  <group>
B

>  <Class>
1

>  <ABC>
22.53

>  <ABCGG>
16.38

>  <nAcid>
0

>  <nBase>
1

>  <nAromAtom>
12

>  <nAromBond>
12

>  <nAtom>
53

>  <nHeavyAtom>
28

>  <nSpiro>
1

>  <nBridgehead>
0

>  <nHetero>
6

>  <nN>
3

>  <nO>
3

>  <nF>
0

>  <BalabanJ>
1.16

>  <BertzCT>
849.12

>  <nBonds>
57

>  <nBondsO>
32

>  <nBondsS>
44

>  <nBondsD>
1

>  <nBondsT>
0

>  <nBondsA>
12

>  <nBondsM>
13

>  <nBondsKS>
50

>  <nBondsKD>
7

>  <RNCG>
0.18

>  <RPCG>
0.09

>  <FCSP3>
0.41

>  <SZ>
33.67

>  <Sm>
31.59

>  <Sv>
33.19

>  <Sse>
53.08

>  <Sp>
35.4

>  <Si>
59.69

>  <MZ>
0.64

>  <Mm>
0.6

>  <Mv>
0.63

>  <Mse>
1

>  <Mp>
0.67

>  <Mi>
1.13

>  <NsCH3>
0

>  <NdCH2>
0

>  <NssCH2>
7

>  <NtCH>
0

>  <NdsCH>
0

>  <NaaCH>
9

>  <NsssCH>
1

>  <NddC>
0

>  <NtsC>
0

>  <NdssC>
1

>  <NaasC>
3

>  <NaaaC>
0

>  <NssssC>
1

>  <NsNH3>
0

>  <NsNH2>
0

>  <NssNH2>
0

>  <NdNH>
0

>  <NssNH>
1

>  <NaaNH>
0

>  <NtN>
0

>  <NsssNH>
0

>  <NdsN>
0

>  <NaaN>
0

>  <NsssN>
2

>  <NddsN>
0

>  <NaasN>
0

>  <NssssN>
0

>  <NsOH>
0

>  <NdO>
1

>  <NssO>
2

>  <NaaO>
0

>  <NsF>
0

>  <NsSiH3>
0

>  <NssSiH2>
0

>  <NsssSiH>
0

>  <NssssSi>
0

>  <NsPH2>
0

>  <NssPH>
0

>  <NsssP>
0

>  <NdsssP>
0

>  <NsssssP>
0

>  <NsSH>
0

>  <NdS>
0

>  <NssS>
0

>  <NaaS>
0

>  <NdssS>
0

>  <NddssS>
0

>  <NsCl>
0

>  <NsBr>
0

>  <NsI>
0

>  <fragCpx>
268.06

>  <fMF>
0.51

>  <nHBAcc>
5

>  <nHBDon>
1

>  <Kier1>
19.93

>  <Kier2>
8.63

>  <Lipinski>
1

>  <GhoseFilter>
1

>  <FilterItLogS>
-4.24

>  <VMcGowan>
283.99

>  <LabuteASA>
164.58

>  <PEOE_VSA1>
19.69

>  <PEOE_VSA2>
9.69

>  <PEOE_VSA3>
0

>  <PEOE_VSA4>
0

>  <PEOE_VSA5>
0

>  <PEOE_VSA6>
30.33

>  <PEOE_VSA7>
37.11

>  <PEOE_VSA8>
25.32

>  <PEOE_VSA9>
6.67

>  <PEOE_VSA10>
18.25

>  <PEOE_VSA11>
11.5

>  <PEOE_VSA12>
5.91

>  <PEOE_VSA13>
0

>  <SMR_VSA1>
14.27

>  <SMR_VSA2>
0

>  <SMR_VSA3>
10.22

>  <SMR_VSA4>
0

>  <SMR_VSA5>
24.48

>  <SMR_VSA6>
37.81

>  <SMR_VSA7>
54.6

>  <SMR_VSA8>
0

>  <SMR_VSA9>
11.5

>  <SlogP_VSA1>
19.69

>  <SlogP_VSA2>
55.36

>  <SlogP_VSA3>
4.79

>  <SlogP_VSA4>
0

>  <SlogP_VSA5>
12.84

>  <SlogP_VSA6>
54.6

>  <SlogP_VSA7>
0

>  <SlogP_VSA8>
0

>  <SlogP_VSA9>
0

>  <SlogP_VSA10>
5.69

>  <SlogP_VSA11>
11.5

>  <EState_VSA1>
5.54

>  <EState_VSA2>
12.01

>  <EState_VSA3>
13.28

>  <EState_VSA4>
49.66

>  <EState_VSA5>
0

>  <EState_VSA6>
0

>  <EState_VSA7>
42.46

>  <EState_VSA8>
27.25

>  <EState_VSA9>
9.47

>  <EState_VSA10>
4.79

>  <VSA_EState1>
11.95

>  <VSA_EState2>
17.38

>  <VSA_EState3>
3.06

>  <VSA_EState4>
0.67

>  <VSA_EState5>
1.79

>  <VSA_EState6>
18.04

>  <VSA_EState7>
1.65

>  <VSA_EState8>
3.71

>  <VSA_EState9>
0

>  <apol>
59.12

>  <bpol>
33.41

>  <nRing>
5

>  <nHRing>
3

>  <naRing>
2

>  <naHRing>
0

>  <nARing 2>
3

>  <nAHRing 2>
3

>  <nFRing>
1

>  <nFHRing>
1

>  <nFaRing>
0

>  <nFaHRing>
0

>  <nFARing 2>
1

>  <nFAHRing 2>
1

>  <nRot>
3

>  <SLogP>
2.25

>  <SMR>
106.69

>  <TopoPSA(NO)>
54.04

>  <TopoPSA>
54.04

>  <JGI1>
0.17

>  <JGI2>
0.08

>  <JGI3>
0.04

>  <JGI4>
0.04

>  <JGI5>
0.02

>  <Diameter>
15

>  <Radius>
8

>  <TMWC10>
137.91

>  <TSRW10>
78.23

>  <MW>
379.19

>  <AMW>
7.15

>  <WPath>
2175

>  <WPol>
48

>  <Zagreb1>
156

>  <Zagreb2>
189

>  <mZagreb2>
6.06

>  <yes>


>  <nAR-cont>
0.691115

>  <nHA-cont>
0.82432561

>  <MWHBN>
0.308122074

>  <MWHBN-cont>
0.815813012

>  <TPSA-cont>
0.622767243

>  <pka_cont>
0.97

>  <yes.1>


>  <BBB_SCORE>
4.469694615

>  <MMFF94 Energy>
71.608

$$$$
Compound 1881
Actelion Java MolfileCreator 2.0

  0  0  0  0  0  0              0 V3000
M  V30 BEGIN CTAB
M  V30 COUNTS 54 57 0 0 0
M  V30 BEGIN ATOM
M  V30 1 F 4.0696 -3.3505 -4.949 0
M  V30 2 C 3.7164 -2.274 -4.2343 0
M  V30 3 C 3.81 -1.0109 -4.809 0
M  V30 4 C 3.2675 -2.4332 -2.9298 0
M  V30 5 C 3.4419 0.1155 -4.0689 0
M  V30 6 C 2.9032 -1.3078 -2.1903 0
M  V30 7 C 2.9744 -0.034 -2.7607 0
M  V30 8 O 2.607 1.0006 -1.9454 0
M  V30 9 C 1.9907 2.1075 -2.6059 0
M  V30 10 C 1.2045 2.9447 -1.5938 0
M  V30 11 C -0.1476 2.3252 -1.1973 0
M  V30 12 N -0.0573 1.0038 -0.5618 0
M  V30 13 C -1.365 0.3399 -0.5468 0
M  V30 14 C 0.4676 1.0902 0.8066 0
M  V30 15 C -1.2151 -1.1077 -0.0952 0
M  V30 16 C 0.7003 -0.2935 1.4068 0
M  V30 17 C -0.4845 -1.248 1.2449 0
M  V30 18 N -1.4088 -1.2432 2.409 0
M  V30 19 C 0.0569 -2.6907 1.3162 0
M  V30 20 C -2.2817 -0.2377 2.739 0
M  V30 21 C -1.621 -2.5677 2.9503 0
M  V30 22 O 0.9276 -3.2065 0.6328 0
M  V30 23 N -0.6336 -3.356 2.3029 0
M  V30 24 C -3.6357 -0.2941 2.3839 0
M  V30 25 C -1.848 0.8677 3.4775 0
M  V30 26 C -4.5213 0.7292 2.734 0
M  V30 27 C -2.7268 1.8949 3.833 0
M  V30 28 C -4.065 1.8263 3.4581 0
M  V30 29 H 4.1741 -0.9112 -5.8261 0
M  V30 30 H 3.2005 -3.4241 -2.4928 0
M  V30 31 H 3.5421 1.0954 -4.5232 0
M  V30 32 H 2.5468 -1.4267 -1.1703 0
M  V30 33 H 1.3209 1.7764 -3.4098 0
M  V30 34 H 2.7803 2.7359 -3.0342 0
M  V30 35 H 1.8163 3.1326 -0.7051 0
M  V30 36 H 0.9956 3.9215 -2.0476 0
M  V30 37 H -0.6899 3.0266 -0.5496 0
M  V30 38 H -0.737 2.2439 -2.1203 0
M  V30 39 H -1.7882 0.3235 -1.559 0
M  V30 40 H -2.0789 0.8828 0.083 0
M  V30 41 H -0.2022 1.6812 1.4396 0
M  V30 42 H 1.4337 1.6063 0.8169 0
M  V30 43 H -2.2023 -1.5852 -0.0599 0
M  V30 44 H -0.658 -1.6432 -0.8772 0
M  V30 45 H 1.5852 -0.7154 0.9127 0
M  V30 46 H 0.9795 -0.1921 2.4631 0
M  V30 47 H -1.455 -2.6043 4.0312 0
M  V30 48 H -2.6034 -2.9819 2.7031 0
M  V30 49 H -0.4396 -4.3236 2.5107 0
M  V30 50 H -4.0127 -1.1366 1.81 0
M  V30 51 H -0.8108 0.9296 3.7964 0
M  V30 52 H -5.5653 0.6675 2.4391 0
M  V30 53 H -2.3638 2.7435 4.4064 0
M  V30 54 H -4.7506 2.6233 3.7329 0
M  V30 END ATOM
M  V30 BEGIN BOND
M  V30 1 1 1 2
M  V30 2 2 2 3
M  V30 3 1 2 4
M  V30 4 1 3 5
M  V30 5 2 4 6
M  V30 6 2 5 7
M  V30 7 1 7 8
M  V30 8 1 8 9
M  V30 9 1 9 10
M  V30 10 1 10 11
M  V30 11 1 11 12
M  V30 12 1 12 13
M  V30 13 1 12 14
M  V30 14 1 13 15
M  V30 15 1 14 16
M  V30 16 1 15 17
M  V30 17 1 17 18
M  V30 18 1 17 19
M  V30 19 1 18 20
M  V30 20 1 18 21
M  V30 21 2 19 22
M  V30 22 1 19 23
M  V30 23 2 20 24
M  V30 24 1 20 25
M  V30 25 1 24 26
M  V30 26 2 25 27
M  V30 27 2 26 28
M  V30 28 1 6 7
M  V30 29 1 16 17
M  V30 30 1 21 23
M  V30 31 1 27 28
M  V30 32 1 3 29
M  V30 33 1 4 30
M  V30 34 1 5 31
M  V30 35 1 6 32
M  V30 36 1 9 33
M  V30 37 1 9 34
M  V30 38 1 10 35
M  V30 39 1 10 36
M  V30 40 1 11 37
M  V30 41 1 11 38
M  V30 42 1 13 39
M  V30 43 1 13 40
M  V30 44 1 14 41
M  V30 45 1 14 42
M  V30 46 1 15 43
M  V30 47 1 15 44
M  V30 48 1 16 45
M  V30 49 1 16 46
M  V30 50 1 21 47
M  V30 51 1 21 48
M  V30 52 1 23 49
M  V30 53 1 24 50
M  V30 54 1 25 51
M  V30 55 1 26 52
M  V30 56 1 27 53
M  V30 57 1 28 54
M  V30 END BOND
M  V30 END CTAB
M  END
>  <Column 1>
2292

>  <level_0>
2473

>  <index>
2473

>  <Unnamed: 0>
2473

>  <NO.>
2485

>  <Name>
spiramide

>  <IUPAC_name>
8-[3-(4-fluorophenoxy)propyl]-1-phenyl-1-3-8-triazaspiro[4.5]decan-4-one

>  <SMILES>
O=C1NCN(c2ccccc2)C12CCN(CCCOc1ccc(F)cc1)CC2

>  <CID>
68186

>  <logBB>


>  <BBB+/BBB->
BBB+

>  <Inchi>
InChI=1S/C22H26FN3O2/c23-18-7-9-20(10-8-18)28-16-4-13-25-14-11-22(12-15-25)21(27)24-17-26(22)19-5-2-1-3-6-19/h1-3-5-10H-4-11-17H2-(H-24-27)

>  <threshold>
-1

>  <reference>
R1|R13|R19|R6|R24|R27|R27|R27|R30|R30|

>  <group>
B

>  <Class>
1

>  <ABC>
21.98

>  <ABCGG>
16.23

>  <nAcid>
0

>  <nBase>
1

>  <nAromAtom>
12

>  <nAromBond>
12

>  <nAtom>
54

>  <nHeavyAtom>
28

>  <nSpiro>
1

>  <nBridgehead>
0

>  <nHetero>
6

>  <nN>
3

>  <nO>
2

>  <nF>
1

>  <BalabanJ>
1.19

>  <BertzCT>
789.19

>  <nBonds>
57

>  <nBondsO>
31

>  <nBondsS>
44

>  <nBondsD>
1

>  <nBondsT>
0

>  <nBondsA>
12

>  <nBondsM>
13

>  <nBondsKS>
50

>  <nBondsKD>
7

>  <RNCG>
0.21

>  <RPCG>
0.11

>  <FCSP3>
0.41

>  <SZ>
34

>  <Sm>
31.93

>  <Sv>
33.39

>  <Sse>
54.15

>  <Sp>
35.65

>  <Si>
61.24

>  <MZ>
0.63

>  <Mm>
0.59

>  <Mv>
0.62

>  <Mse>
1

>  <Mp>
0.66

>  <Mi>
1.13

>  <NsCH3>
0

>  <NdCH2>
0

>  <NssCH2>
8

>  <NtCH>
0

>  <NdsCH>
0

>  <NaaCH>
9

>  <NsssCH>
0

>  <NddC>
0

>  <NtsC>
0

>  <NdssC>
1

>  <NaasC>
3

>  <NaaaC>
0

>  <NssssC>
1

>  <NsNH3>
0

>  <NsNH2>
0

>  <NssNH2>
0

>  <NdNH>
0

>  <NssNH>
1

>  <NaaNH>
0

>  <NtN>
0

>  <NsssNH>
0

>  <NdsN>
0

>  <NaaN>
0

>  <NsssN>
2

>  <NddsN>
0

>  <NaasN>
0

>  <NssssN>
0

>  <NsOH>
0

>  <NdO>
1

>  <NssO>
1

>  <NaaO>
0

>  <NsF>
1

>  <NsSiH3>
0

>  <NssSiH2>
0

>  <NsssSiH>
0

>  <NssssSi>
0

>  <NsPH2>
0

>  <NssPH>
0

>  <NsssP>
0

>  <NdsssP>
0

>  <NsssssP>
0

>  <NsSH>
0

>  <NdS>
0

>  <NssS>
0

>  <NaaS>
0

>  <NdssS>
0

>  <NddssS>
0

>  <NsCl>
0

>  <NsBr>
0

>  <NsI>
0

>  <fragCpx>
205.06

>  <fMF>
0.48

>  <nHBAcc>
4

>  <nHBDon>
1

>  <Kier1>
21.24

>  <Kier2>
9.87

>  <Lipinski>
1

>  <GhoseFilter>
1

>  <FilterItLogS>
-5.26

>  <VMcGowan>
290.74

>  <LabuteASA>
164.64

>  <PEOE_VSA1>
19.85

>  <PEOE_VSA2>
4.79

>  <PEOE_VSA3>
4.39

>  <PEOE_VSA4>
0

>  <PEOE_VSA5>
0

>  <PEOE_VSA6>
18.2

>  <PEOE_VSA7>
55.66

>  <PEOE_VSA8>
25.32

>  <PEOE_VSA9>
13.28

>  <PEOE_VSA10>
17.11

>  <PEOE_VSA11>
0

>  <PEOE_VSA12>
5.91

>  <PEOE_VSA13>
0

>  <SMR_VSA1>
13.92

>  <SMR_VSA2>
0

>  <SMR_VSA3>
10.22

>  <SMR_VSA4>
0

>  <SMR_VSA5>
24.8

>  <SMR_VSA6>
37.81

>  <SMR_VSA7>
60.41

>  <SMR_VSA8>
0

>  <SMR_VSA9>
5.75

>  <SlogP_VSA1>
14.95

>  <SlogP_VSA2>
49.26

>  <SlogP_VSA3>
4.79

>  <SlogP_VSA4>
5.82

>  <SlogP_VSA5>
19.26

>  <SlogP_VSA6>
54.6

>  <SlogP_VSA7>
0

>  <SlogP_VSA8>
0

>  <SlogP_VSA9>
0

>  <SlogP_VSA10>
10.08

>  <SlogP_VSA11>
5.75

>  <EState_VSA1>
5.54

>  <EState_VSA2>
11.72

>  <EState_VSA3>
19.03

>  <EState_VSA4>
44.58

>  <EState_VSA5>
12.13

>  <EState_VSA6>
12.13

>  <EState_VSA7>
18.2

>  <EState_VSA8>
27.25

>  <EState_VSA9>
4.74

>  <EState_VSA10>
9.18

>  <VSA_EState1>
18.58

>  <VSA_EState2>
17.29

>  <VSA_EState3>
3.04

>  <VSA_EState4>
0.67

>  <VSA_EState5>
0.59

>  <VSA_EState6>
16.29

>  <VSA_EState7>
2.55

>  <VSA_EState8>
3.91

>  <VSA_EState9>
0

>  <apol>
59.54

>  <bpol>
33.79

>  <nRing>
4

>  <nHRing>
2

>  <naRing>
2

>  <naHRing>
0

>  <nARing 2>
2

>  <nAHRing 2>
2

>  <nFRing>
0

>  <nFHRing>
0

>  <nFaRing>
0

>  <nFaHRing>
0

>  <nFARing 2>
0

>  <nFAHRing 2>
0

>  <nRot>
6

>  <SLogP>
3.02

>  <SMR>
106.85

>  <TopoPSA(NO)>
44.81

>  <TopoPSA>
44.81

>  <JGI1>
0.18

>  <JGI2>
0.09

>  <JGI3>
0.04

>  <JGI4>
0.04

>  <JGI5>
0.02

>  <Diameter>
17

>  <Radius>
9

>  <TMWC10>
135.81

>  <TSRW10>
77.78

>  <MW>
383.2

>  <AMW>
7.1

>  <WPath>
2409

>  <WPol>
44

>  <Zagreb1>
148

>  <Zagreb2>
175

>  <mZagreb2>
6.19

>  <yes>


>  <nAR-cont>
1

>  <nHA-cont>
0.82432561

>  <MWHBN>
0.255421384

>  <MWHBN-cont>
0.950202408

>  <TPSA-cont>
0.687198375

>  <pka_cont>
0.97

>  <yes.1>


>  <BBB_SCORE>
5.109025972

>  <MMFF94 Energy>
20.57

$$$$
Compound 1882
Actelion Java MolfileCreator 2.0

  0  0  0  0  0  0              0 V3000
M  V30 BEGIN CTAB
M  V30 COUNTS 32 34 0 0 0
M  V30 BEGIN ATOM
M  V30 1 O -2.8019 0.3199 -0.6399 0
M  V30 2 C -2.0427 0.5832 0.2799 0
M  V30 3 N -2.411 1.3445 1.3673 0
M  V30 4 C -0.5439 0.2019 0.4816 0
M  V30 5 C -1.3117 1.6574 2.1926 0
M  V30 6 N -0.3477 0.6034 1.9267 0
M  V30 7 C 0.3373 1.0273 -0.4815 0
M  V30 8 C -0.2304 -1.3041 0.3555 0
M  V30 9 C 1.4326 1.7883 -0.0311 0
M  V30 10 C 0.0858 0.998 -1.8669 0
M  V30 11 C 1.0452 -1.7755 0.7353 0
M  V30 12 C -1.1534 -2.2486 -0.1231 0
M  V30 13 C 2.2255 2.5115 -0.926 0
M  V30 14 C 0.879 1.7217 -2.7603 0
M  V30 15 C 1.3791 -3.1284 0.6448 0
M  V30 16 C -0.8179 -3.6037 -0.2133 0
M  V30 17 C 1.9463 2.4806 -2.2893 0
M  V30 18 C 0.4454 -4.0432 0.1708 0
M  V30 19 H -3.3299 1.7609 1.4237 0
M  V30 20 H -1.6244 1.6751 3.2403 0
M  V30 21 H -0.9235 2.6425 1.9154 0
M  V30 22 H -0.6544 -0.2015 2.4733 0
M  V30 23 H 1.6857 1.82 1.0264 0
M  V30 24 H -0.7345 0.4026 -2.2663 0
M  V30 25 H 1.7944 -1.0772 1.106 0
M  V30 26 H -2.1508 -1.9593 -0.4446 0
M  V30 27 H 3.0651 3.0943 -0.5565 0
M  V30 28 H 0.6634 1.6866 -3.8251 0
M  V30 29 H 2.3695 -3.4634 0.9409 0
M  V30 30 H -1.548 -4.3157 -0.5907 0
M  V30 31 H 2.5646 3.041 -2.9852 0
M  V30 32 H 0.7027 -5.0961 0.0954 0
M  V30 END ATOM
M  V30 BEGIN BOND
M  V30 1 2 1 2
M  V30 2 1 2 3
M  V30 3 1 2 4
M  V30 4 1 3 5
M  V30 5 1 4 6
M  V30 6 1 4 7
M  V30 7 1 4 8
M  V30 8 2 7 9
M  V30 9 1 7 10
M  V30 10 2 8 11
M  V30 11 1 8 12
M  V30 12 1 9 13
M  V30 13 2 10 14
M  V30 14 1 11 15
M  V30 15 2 12 16
M  V30 16 2 13 17
M  V30 17 2 15 18
M  V30 18 1 5 6
M  V30 19 1 14 17
M  V30 20 1 16 18
M  V30 21 1 3 19
M  V30 22 1 5 20
M  V30 23 1 5 21
M  V30 24 1 6 22
M  V30 25 1 9 23
M  V30 26 1 10 24
M  V30 27 1 11 25
M  V30 28 1 12 26
M  V30 29 1 13 27
M  V30 30 1 14 28
M  V30 31 1 15 29
M  V30 32 1 16 30
M  V30 33 1 17 31
M  V30 34 1 18 32
M  V30 END BOND
M  V30 END CTAB
M  END
>  <Column 1>
2293

>  <level_0>
2474

>  <index>
2474

>  <Unnamed: 0>
2474

>  <NO.>
2486

>  <Name>
doxenitoin

>  <IUPAC_name>
5-5-diphenylimidazolidin-4-one

>  <SMILES>
O=C1NCNC1(c1ccccc1)c1ccccc1

>  <CID>
18622

>  <logBB>


>  <BBB+/BBB->
BBB+

>  <Inchi>
InChI=1S/C15H14N2O/c18-14-15(17-11-16-14-12-7-3-1-4-8-12)13-9-5-2-6-10-13/h1-10-17H-11H2-(H-16-18)

>  <threshold>
-1

>  <reference>
R1|R13|R19|R6|R24|R27|R27|R27|R30|R30|

>  <group>
B

>  <Class>
-1

>  <ABC>
14.07

>  <ABCGG>
12.49

>  <nAcid>
0

>  <nBase>
1

>  <nAromAtom>
12

>  <nAromBond>
12

>  <nAtom>
32

>  <nHeavyAtom>
18

>  <nSpiro>
0

>  <nBridgehead>
0

>  <nHetero>
3

>  <nN>
2

>  <nO>
1

>  <nF>
0

>  <BalabanJ>
1.82

>  <BertzCT>
511.72

>  <nBonds>
34

>  <nBondsO>
20

>  <nBondsS>
21

>  <nBondsD>
1

>  <nBondsT>
0

>  <nBondsA>
12

>  <nBondsM>
13

>  <nBondsKS>
27

>  <nBondsKD>
7

>  <RNCG>
0.22

>  <RPCG>
0.16

>  <FCSP3>
0.13

>  <SZ>
21

>  <Sm>
19.84

>  <Sv>
21.02

>  <Sse>
31.87

>  <Sp>
22.39

>  <Si>
35.7

>  <MZ>
0.66

>  <Mm>
0.62

>  <Mv>
0.66

>  <Mse>
1

>  <Mp>
0.7

>  <Mi>
1.12

>  <NsCH3>
0

>  <NdCH2>
0

>  <NssCH2>
1

>  <NtCH>
0

>  <NdsCH>
0

>  <NaaCH>
10

>  <NsssCH>
0

>  <NddC>
0

>  <NtsC>
0

>  <NdssC>
1

>  <NaasC>
2

>  <NaaaC>
0

>  <NssssC>
1

>  <NsNH3>
0

>  <NsNH2>
0

>  <NssNH2>
0

>  <NdNH>
0

>  <NssNH>
2

>  <NaaNH>
0

>  <NtN>
0

>  <NsssNH>
0

>  <NdsN>
0

>  <NaaN>
0

>  <NsssN>
0

>  <NddsN>
0

>  <NaasN>
0

>  <NssssN>
0

>  <NsOH>
0

>  <NdO>
1

>  <NssO>
0

>  <NaaO>
0

>  <NsF>
0

>  <NsSiH3>
0

>  <NssSiH2>
0

>  <NsssSiH>
0

>  <NssssSi>
0

>  <NsPH2>
0

>  <NssPH>
0

>  <NsssP>
0

>  <NdsssP>
0

>  <NsssssP>
0

>  <NsSH>
0

>  <NdS>
0

>  <NssS>
0

>  <NaaS>
0

>  <NdssS>
0

>  <NddssS>
0

>  <NsCl>
0

>  <NsBr>
0

>  <NsI>
0

>  <fragCpx>
94.03

>  <fMF>
0.53

>  <nHBAcc>
2

>  <nHBDon>
2

>  <Kier1>
13.01

>  <Kier2>
5.55

>  <Lipinski>
1

>  <GhoseFilter>
1

>  <FilterItLogS>
-4.22

>  <VMcGowan>
185.36

>  <LabuteASA>
105.84

>  <PEOE_VSA1>
5.32

>  <PEOE_VSA2>
10.11

>  <PEOE_VSA3>
0

>  <PEOE_VSA4>
0

>  <PEOE_VSA5>
0

>  <PEOE_VSA6>
60.66

>  <PEOE_VSA7>
11.13

>  <PEOE_VSA8>
0

>  <PEOE_VSA9>
6.67

>  <PEOE_VSA10>
0

>  <PEOE_VSA11>
5.54

>  <PEOE_VSA12>
0

>  <PEOE_VSA13>
5.91

>  <SMR_VSA1>
4.79

>  <SMR_VSA2>
0

>  <SMR_VSA3>
10.63

>  <SMR_VSA4>
0

>  <SMR_VSA5>
5.54

>  <SMR_VSA6>
6.67

>  <SMR_VSA7>
71.79

>  <SMR_VSA8>
0

>  <SMR_VSA9>
0

>  <SlogP_VSA1>
10.63

>  <SlogP_VSA2>
12.58

>  <SlogP_VSA3>
10.33

>  <SlogP_VSA4>
0

>  <SlogP_VSA5>
11.13

>  <SlogP_VSA6>
60.66

>  <SlogP_VSA7>
0

>  <SlogP_VSA8>
0

>  <SlogP_VSA9>
0

>  <SlogP_VSA10>
0

>  <SlogP_VSA11>
0

>  <EState_VSA1>
5.54

>  <EState_VSA2>
5.91

>  <EState_VSA3>
6.67

>  <EState_VSA4>
11.13

>  <EState_VSA5>
0

>  <EState_VSA6>
0

>  <EState_VSA7>
60.66

>  <EState_VSA8>
10.63

>  <EState_VSA9>
0

>  <EState_VSA10>
4.79

>  <VSA_EState1>
0

>  <VSA_EState2>
12.32

>  <VSA_EState3>
6.15

>  <VSA_EState4>
1.17

>  <VSA_EState5>
0

>  <VSA_EState6>
19.62

>  <VSA_EState7>
0

>  <VSA_EState8>
0.49

>  <VSA_EState9>
0

>  <apol>
37.39

>  <bpol>
16.05

>  <nRing>
3

>  <nHRing>
1

>  <naRing>
2

>  <naHRing>
0

>  <nARing 2>
1

>  <nAHRing 2>
1

>  <nFRing>
0

>  <nFHRing>
0

>  <nFaRing>
0

>  <nFaHRing>
0

>  <nFARing 2>
0

>  <nFAHRing 2>
0

>  <nRot>
2

>  <SLogP>
1.61

>  <SMR>
69.81

>  <TopoPSA(NO)>
41.13

>  <TopoPSA>
41.13

>  <JGI1>
0.15

>  <JGI2>
0.1

>  <JGI3>
0.06

>  <JGI4>
0.02

>  <JGI5>
0.01

>  <Diameter>
8

>  <Radius>
4

>  <TMWC10>
111.9

>  <TSRW10>
65.59

>  <MW>
238.11

>  <AMW>
7.44

>  <WPath>
536

>  <WPol>
30

>  <Zagreb1>
96

>  <Zagreb2>
117

>  <mZagreb2>
4.04

>  <yes>


>  <nAR-cont>
0.816016

>  <nHA-cont>
0.991161285

>  <MWHBN>
0.259221592

>  <MWHBN-cont>
0.942954889

>  <TPSA-cont>
0.71288706

>  <pka_cont>
0.97

>  <yes.1>


>  <BBB_SCORE>
5.132383738

>  <MMFF94 Energy>
50.418

$$$$
Compound 1883
Actelion Java MolfileCreator 2.0

  0  0  0  0  0  0              0 V3000
M  V30 BEGIN CTAB
M  V30 COUNTS 30 32 0 0 0
M  V30 BEGIN ATOM
M  V30 1 Cl -2.1527 -0.9103 -3.5622 0
M  V30 2 C -0.7539 -1.2508 -2.6212 0
M  V30 3 C -0.6471 -0.7352 -1.3282 0
M  V30 4 C 0.2587 -2.0478 -3.1511 0
M  V30 5 C 0.4953 -1.0025 -0.554 0
M  V30 6 C 1.3891 -2.3315 -2.3843 0
M  V30 7 C 1.4967 -1.8031 -1.098 0
M  V30 8 C 0.6729 -0.5497 0.8872 0 CFG=1
M  V30 9 N 2.613 -2.0777 -0.3215 0
M  V30 10 O 2.0794 -0.4384 1.2229 0
M  V30 11 C 0.1045 0.808 1.0936 0
M  V30 12 C -0.0068 -1.5615 1.8547 0
M  V30 13 C 2.9383 -1.4052 0.8216 0
M  V30 14 C -0.3593 1.9044 1.2561 0
M  V30 15 F 0.5026 -2.8125 1.7258 0
M  V30 16 F -1.3424 -1.6594 1.6318 0
M  V30 17 F 0.151 -1.2094 3.1546 0
M  V30 18 O 3.9859 -1.6277 1.4147 0
M  V30 19 C -0.9191 3.2098 1.4423 0
M  V30 20 C -1.657 3.8485 0.295 0
M  V30 21 C -2.4178 3.3523 1.49 0
M  V30 22 H -1.4632 -0.1351 -0.9289 0
M  V30 23 H 0.1715 -2.4523 -4.1565 0
M  V30 24 H 2.1742 -2.9558 -2.8026 0
M  V30 25 H 3.3037 -2.7509 -0.629 0
M  V30 26 H -0.3472 3.8755 2.083 0
M  V30 27 H -1.7581 3.3 -0.6347 0
M  V30 28 H -1.5566 4.9201 0.1647 0
M  V30 29 H -2.8332 4.0875 2.1701 0
M  V30 30 H -3.0335 2.4682 1.3689 0
M  V30 END ATOM
M  V30 BEGIN BOND
M  V30 1 1 1 2
M  V30 2 2 2 3
M  V30 3 1 2 4
M  V30 4 1 3 5
M  V30 5 2 4 6
M  V30 6 2 5 7
M  V30 7 1 5 8
M  V30 8 1 7 9
M  V30 9 1 8 10
M  V30 10 1 8 11
M  V30 11 1 8 12
M  V30 12 1 9 13
M  V30 13 3 11 14
M  V30 14 1 12 15
M  V30 15 1 12 16
M  V30 16 1 12 17
M  V30 17 2 13 18
M  V30 18 1 14 19
M  V30 19 1 19 20
M  V30 20 1 19 21
M  V30 21 1 6 7
M  V30 22 1 10 13
M  V30 23 1 20 21
M  V30 24 1 3 22
M  V30 25 1 4 23
M  V30 26 1 6 24
M  V30 27 1 9 25
M  V30 28 1 19 26
M  V30 29 1 20 27
M  V30 30 1 20 28
M  V30 31 1 21 29
M  V30 32 1 21 30
M  V30 END BOND
M  V30 BEGIN COLLECTION
M  V30 MDLV30/STEABS ATOMS=(1 8)
M  V30 END COLLECTION
M  V30 END CTAB
M  END
>  <Column 1>
2294

>  <level_0>
2475

>  <index>
2475

>  <Unnamed: 0>
2475

>  <NO.>
2487

>  <Name>
efavirenz

>  <IUPAC_name>
(4s)-6-chloro-4-(2-cyclopropylethynyl)-4-(trifluoromethyl)-1h-3-1-benzoxazin-2-one

>  <SMILES>
O=C1Nc2ccc(Cl)cc2[C@@](C#CC2CC2)(C(F)(F)F)O1

>  <CID>
64139

>  <logBB>


>  <BBB+/BBB->
BBB-

>  <Inchi>
InChI=1S/C14H9ClF3NO2/c15-9-3-4-11-10(7-9)13(14(16-17)18-21-12(20)19-11)6-5-8-1-2-8/h3-4-7-8H-1-2H2-(H-19-20)/t13-/m0/s1

>  <threshold>
-1

>  <reference>
R1|R9|R24|R27|R27|R30|

>  <group>
B

>  <Class>
1

>  <ABC>
16.76

>  <ABCGG>
14.36

>  <nAcid>
0

>  <nBase>
0

>  <nAromAtom>
6

>  <nAromBond>
6

>  <nAtom>
30

>  <nHeavyAtom>
21

>  <nSpiro>
0

>  <nBridgehead>
0

>  <nHetero>
7

>  <nN>
1

>  <nO>
2

>  <nF>
3

>  <BalabanJ>
1.88

>  <BertzCT>
673.02

>  <nBonds>
32

>  <nBondsO>
23

>  <nBondsS>
24

>  <nBondsD>
1

>  <nBondsT>
1

>  <nBondsA>
6

>  <nBondsM>
8

>  <nBondsKS>
27

>  <nBondsKD>
4

>  <RNCG>
0.23

>  <RPCG>
0.24

>  <FCSP3>
0.36

>  <SZ>
26.67

>  <Sm>
26.28

>  <Sv>
21.66

>  <Sse>
31.96

>  <Sp>
21.52

>  <Si>
34.37

>  <MZ>
0.89

>  <Mm>
0.88

>  <Mv>
0.72

>  <Mse>
1.07

>  <Mp>
0.72

>  <Mi>
1.15

>  <NsCH3>
0

>  <NdCH2>
0

>  <NssCH2>
2

>  <NtCH>
0

>  <NdsCH>
0

>  <NaaCH>
3

>  <NsssCH>
1

>  <NddC>
0

>  <NtsC>
2

>  <NdssC>
1

>  <NaasC>
3

>  <NaaaC>
0

>  <NssssC>
2

>  <NsNH3>
0

>  <NsNH2>
0

>  <NssNH2>
0

>  <NdNH>
0

>  <NssNH>
1

>  <NaaNH>
0

>  <NtN>
0

>  <NsssNH>
0

>  <NdsN>
0

>  <NaaN>
0

>  <NsssN>
0

>  <NddsN>
0

>  <NaasN>
0

>  <NssssN>
0

>  <NsOH>
0

>  <NdO>
1

>  <NssO>
1

>  <NaaO>
0

>  <NsF>
3

>  <NsSiH3>
0

>  <NssSiH2>
0

>  <NsssSiH>
0

>  <NssssSi>
0

>  <NsPH2>
0

>  <NssPH>
0

>  <NsssP>
0

>  <NdsssP>
0

>  <NsssssP>
0

>  <NsSH>
0

>  <NdS>
0

>  <NssS>
0

>  <NaaS>
0

>  <NdssS>
0

>  <NddssS>
0

>  <NsCl>
1

>  <NsBr>
0

>  <NsI>
0

>  <fragCpx>
109.07

>  <fMF>
0.5

>  <nHBAcc>
2

>  <nHBDon>
1

>  <Kier1>
15.88

>  <Kier2>
5.57

>  <Lipinski>
1

>  <GhoseFilter>
1

>  <FilterItLogS>
-4.33

>  <VMcGowan>
188.98

>  <LabuteASA>
122.96

>  <PEOE_VSA1>
4.74

>  <PEOE_VSA2>
5.32

>  <PEOE_VSA3>
4.79

>  <PEOE_VSA4>
13.17

>  <PEOE_VSA5>
0

>  <PEOE_VSA6>
17.52

>  <PEOE_VSA7>
36.96

>  <PEOE_VSA8>
16.5

>  <PEOE_VSA9>
5.69

>  <PEOE_VSA10>
0

>  <PEOE_VSA11>
0

>  <PEOE_VSA12>
0

>  <PEOE_VSA13>
5.6

>  <SMR_VSA1>
22.7

>  <SMR_VSA2>
0

>  <SMR_VSA3>
0

>  <SMR_VSA4>
5.92

>  <SMR_VSA5>
24.62

>  <SMR_VSA6>
5.32

>  <SMR_VSA7>
28.79

>  <SMR_VSA8>
0

>  <SMR_VSA9>
11.84

>  <SlogP_VSA1>
5.32

>  <SlogP_VSA2>
12.27

>  <SlogP_VSA3>
10.34

>  <SlogP_VSA4>
17.76

>  <SlogP_VSA5>
18.41

>  <SlogP_VSA6>
18.2

>  <SlogP_VSA7>
5.02

>  <SlogP_VSA8>
0

>  <SlogP_VSA9>
0

>  <SlogP_VSA10>
23.65

>  <SlogP_VSA11>
0

>  <EState_VSA1>
17.87

>  <EState_VSA2>
22.19

>  <EState_VSA3>
0

>  <EState_VSA4>
18.91

>  <EState_VSA5>
12.13

>  <EState_VSA6>
0

>  <EState_VSA7>
0

>  <EState_VSA8>
21.89

>  <EState_VSA9>
11.6

>  <EState_VSA10>
17.97

>  <VSA_EState1>
45.39

>  <VSA_EState2>
11.5

>  <VSA_EState3>
2.34

>  <VSA_EState4>
-3.27

>  <VSA_EState5>
4.6

>  <VSA_EState6>
3.81

>  <VSA_EState7>
-4.54

>  <VSA_EState8>
0

>  <VSA_EState9>
0

>  <apol>
35.94

>  <bpol>
16.05

>  <nRing>
3

>  <nHRing>
1

>  <naRing>
1

>  <naHRing>
0

>  <nARing 2>
2

>  <nAHRing 2>
1

>  <nFRing>
1

>  <nFHRing>
1

>  <nFaRing>
0

>  <nFaHRing>
0

>  <nFARing 2>
1

>  <nFAHRing 2>
1

>  <nRot>
0

>  <SLogP>
4.07

>  <SMR>
69.79

>  <TopoPSA(NO)>
38.33

>  <TopoPSA>
38.33

>  <JGI1>
0.3

>  <JGI2>
0.12

>  <JGI3>
0.07

>  <JGI4>
0.06

>  <JGI5>
0.03

>  <Diameter>
8

>  <Radius>
4

>  <TMWC10>
120.18

>  <TSRW10>
74.04

>  <MW>
315.03

>  <AMW>
10.5

>  <WPath>
807

>  <WPol>
37

>  <Zagreb1>
118

>  <Zagreb2>
143

>  <mZagreb2>
4.34

>  <yes>


>  <nAR-cont>
1

>  <nHA-cont>
0.994529749

>  <MWHBN>
0.169022802

>  <MWHBN-cont>
0.972413789

>  <TPSA-cont>
0.732432798

>  <pka_cont>
0.97

>  <yes.1>


>  <BBB_SCORE>
5.40301603

>  <MMFF94 Energy>
13.826

$$$$
Compound 1884
Actelion Java MolfileCreator 2.0

  0  0  0  0  0  0              0 V3000
M  V30 BEGIN CTAB
M  V30 COUNTS 30 32 0 0 0
M  V30 BEGIN ATOM
M  V30 1 Cl 2.2379 0.8284 -3.732 0
M  V30 2 C 2.2061 0.6291 -2.0311 0
M  V30 3 N 0.974 0.5561 -1.4975 0
M  V30 4 C 3.3772 0.5374 -1.303 0
M  V30 5 C 0.8939 0.4068 -0.151 0
M  V30 6 C 3.2774 0.362 0.0751 0
M  V30 7 C -0.5013 0.256 0.3699 0
M  V30 8 C 2.0184 0.3049 0.6788 0
M  V30 9 N -0.9537 0.6426 1.5174 0
M  V30 10 C -1.4622 -0.4372 -0.5201 0
M  V30 11 N 1.9849 0.0771 2.0616 0
M  V30 12 C -0.0891 1.4298 2.3872 0 CFG=2
M  V30 13 C -2.2809 0.2715 -1.405 0
M  V30 14 C -1.5436 -1.8328 -0.435 0
M  V30 15 C 1.0188 0.4992 2.9404 0
M  V30 16 O -0.8055 2.0311 3.4502 0
M  V30 17 Cl -2.2343 1.9928 -1.5309 0
M  V30 18 C -3.1727 -0.4276 -2.222 0
M  V30 19 C -2.4381 -2.5223 -1.2539 0
M  V30 20 O 1.0916 0.1489 4.1197 0
M  V30 21 C -3.249 -1.8212 -2.1476 0
M  V30 22 H 4.3449 0.595 -1.7896 0
M  V30 23 H 4.1865 0.2811 0.6667 0
M  V30 24 H 2.7421 -0.4309 2.5037 0
M  V30 25 H 0.3808 2.255 1.8398 0
M  V30 26 H -0.924 -2.3809 0.2695 0
M  V30 27 H -1.284 1.2879 3.8564 0
M  V30 28 H -3.8139 0.1077 -2.918 0
M  V30 29 H -2.5082 -3.6058 -1.1927 0
M  V30 30 H -3.9473 -2.3594 -2.7846 0
M  V30 END ATOM
M  V30 BEGIN BOND
M  V30 1 1 1 2
M  V30 2 2 2 3
M  V30 3 1 2 4
M  V30 4 1 3 5
M  V30 5 2 4 6
M  V30 6 1 5 7
M  V30 7 2 5 8
M  V30 8 2 7 9
M  V30 9 1 7 10
M  V30 10 1 8 11
M  V30 11 1 9 12
M  V30 12 2 10 13
M  V30 13 1 10 14
M  V30 14 1 11 15
M  V30 15 1 12 16
M  V30 16 1 13 17
M  V30 17 1 13 18
M  V30 18 2 14 19
M  V30 19 2 15 20
M  V30 20 2 18 21
M  V30 21 1 6 8
M  V30 22 1 12 15
M  V30 23 1 19 21
M  V30 24 1 4 22
M  V30 25 1 6 23
M  V30 26 1 11 24
M  V30 27 1 12 25
M  V30 28 1 14 26
M  V30 29 1 16 27
M  V30 30 1 18 28
M  V30 31 1 19 29
M  V30 32 1 21 30
M  V30 END BOND
M  V30 BEGIN COLLECTION
M  V30 MDLV30/STERAC1 ATOMS=(1 12)
M  V30 END COLLECTION
M  V30 END CTAB
M  END
>  <Column 1>
2295

>  <level_0>
2476

>  <index>
2476

>  <Unnamed: 0>
2476

>  <NO.>
2488

>  <Name>
lopirazepam

>  <IUPAC_name>
7-chloro-5-(2-chlorophenyl)-3-hydroxy-1-3-dihydropyrido[3-2-e][1-4]diazepin-2-one

>  <SMILES>
O=C1Nc2ccc(Cl)nc2C(c2ccccc2Cl)=NC1O

>  <CID>
68672

>  <logBB>


>  <BBB+/BBB->
BBB+

>  <Inchi>
InChI=1S/C14H9Cl2N3O2/c15-8-4-2-1-3-7(8)11-12-9(5-6-10(16)18-12)17-13(20)14(21)19-11/h1-6-14-21H-(H-17-20)

>  <threshold>
-1

>  <reference>
R1|R19|R6|R27|R27|R30|

>  <group>
B

>  <Class>
-1

>  <ABC>
16.5

>  <ABCGG>
13.73

>  <nAcid>
0

>  <nBase>
0

>  <nAromAtom>
12

>  <nAromBond>
12

>  <nAtom>
30

>  <nHeavyAtom>
21

>  <nSpiro>
0

>  <nBridgehead>
0

>  <nHetero>
7

>  <nN>
3

>  <nO>
2

>  <nF>
0

>  <BalabanJ>
1.83

>  <BertzCT>
761.63

>  <nBonds>
32

>  <nBondsO>
23

>  <nBondsS>
18

>  <nBondsD>
2

>  <nBondsT>
0

>  <nBondsA>
12

>  <nBondsM>
14

>  <nBondsKS>
24

>  <nBondsKD>
8

>  <RNCG>
0.2

>  <RPCG>
0.15

>  <FCSP3>
0.07

>  <SZ>
27.33

>  <Sm>
26.82

>  <Sv>
22.32

>  <Sse>
31.18

>  <Sp>
23.14

>  <Si>
33.46

>  <MZ>
0.91

>  <Mm>
0.89

>  <Mv>
0.74

>  <Mse>
1.04

>  <Mp>
0.77

>  <Mi>
1.12

>  <NsCH3>
0

>  <NdCH2>
0

>  <NssCH2>
0

>  <NtCH>
0

>  <NdsCH>
0

>  <NaaCH>
6

>  <NsssCH>
1

>  <NddC>
0

>  <NtsC>
0

>  <NdssC>
2

>  <NaasC>
5

>  <NaaaC>
0

>  <NssssC>
0

>  <NsNH3>
0

>  <NsNH2>
0

>  <NssNH2>
0

>  <NdNH>
0

>  <NssNH>
1

>  <NaaNH>
0

>  <NtN>
0

>  <NsssNH>
0

>  <NdsN>
1

>  <NaaN>
1

>  <NsssN>
0

>  <NddsN>
0

>  <NaasN>
0

>  <NssssN>
0

>  <NsOH>
1

>  <NdO>
1

>  <NssO>
0

>  <NaaO>
0

>  <NsF>
0

>  <NsSiH3>
0

>  <NssSiH2>
0

>  <NsssSiH>
0

>  <NssssSi>
0

>  <NsPH2>
0

>  <NssPH>
0

>  <NsssP>
0

>  <NdsssP>
0

>  <NsssssP>
0

>  <NsSH>
0

>  <NdS>
0

>  <NssS>
0

>  <NaaS>
0

>  <NdssS>
0

>  <NddssS>
0

>  <NsCl>
2

>  <NsBr>
0

>  <NsI>
0

>  <fragCpx>
109.07

>  <fMF>
0.57

>  <nHBAcc>
4

>  <nHBDon>
2

>  <Kier1>
15.88

>  <Kier2>
6.63

>  <Lipinski>
1

>  <GhoseFilter>
1

>  <FilterItLogS>
-4.84

>  <VMcGowan>
207.3

>  <LabuteASA>
129.8

>  <PEOE_VSA1>
10.42

>  <PEOE_VSA2>
4.79

>  <PEOE_VSA3>
9.98

>  <PEOE_VSA4>
0

>  <PEOE_VSA5>
0

>  <PEOE_VSA6>
41.4

>  <PEOE_VSA7>
18.2

>  <PEOE_VSA8>
5.56

>  <PEOE_VSA9>
16.42

>  <PEOE_VSA10>
10.85

>  <PEOE_VSA11>
0

>  <PEOE_VSA12>
6.23

>  <PEOE_VSA13>
5.91

>  <SMR_VSA1>
9.9

>  <SMR_VSA2>
0

>  <SMR_VSA3>
4.98

>  <SMR_VSA4>
4.99

>  <SMR_VSA5>
6.23

>  <SMR_VSA6>
5.32

>  <SMR_VSA7>
57.83

>  <SMR_VSA8>
0

>  <SMR_VSA9>
0

>  <SlogP_VSA1>
5.32

>  <SlogP_VSA2>
27.94

>  <SlogP_VSA3>
4.79

>  <SlogP_VSA4>
0

>  <SlogP_VSA5>
11.26

>  <SlogP_VSA6>
41.39

>  <SlogP_VSA7>
10.18

>  <SlogP_VSA8>
0

>  <SlogP_VSA9>
0

>  <SlogP_VSA10>
5.69

>  <SlogP_VSA11>
0

>  <EState_VSA1>
12.14

>  <EState_VSA2>
5.15

>  <EState_VSA3>
27.68

>  <EState_VSA4>
0

>  <EState_VSA5>
0

>  <EState_VSA6>
36.4

>  <EState_VSA7>
0

>  <EState_VSA8>
15.29

>  <EState_VSA9>
23.2

>  <EState_VSA10>
9.9

>  <VSA_EState1>
0

>  <VSA_EState2>
19.98

>  <VSA_EState3>
13.05

>  <VSA_EState4>
1.65

>  <VSA_EState5>
-0.64

>  <VSA_EState6>
10.12

>  <VSA_EState7>
-1.54

>  <VSA_EState8>
0

>  <VSA_EState9>
0

>  <apol>
38.65

>  <bpol>
13.77

>  <nRing>
3

>  <nHRing>
2

>  <naRing>
2

>  <naHRing>
1

>  <nARing 2>
1

>  <nAHRing 2>
1

>  <nFRing>
1

>  <nFHRing>
1

>  <nFaRing>
0

>  <nFaHRing>
0

>  <nFARing 2>
1

>  <nFAHRing 2>
1

>  <nRot>
1

>  <SLogP>
2.5

>  <SMR>
80.97

>  <TopoPSA(NO)>
74.58

>  <TopoPSA>
74.58

>  <JGI1>
0.2

>  <JGI2>
0.09

>  <JGI3>
0.04

>  <JGI4>
0.05

>  <JGI5>
0.03

>  <Diameter>
8

>  <Radius>
4

>  <TMWC10>
118.42

>  <TSRW10>
63.18

>  <MW>
321.01

>  <AMW>
10.7

>  <WPath>
819

>  <WPol>
38

>  <Zagreb1>
112

>  <Zagreb2>
133

>  <mZagreb2>
4.56

>  <yes>


>  <nAR-cont>
0.816016

>  <nHA-cont>
0.994529749

>  <MWHBN>
0.334882127

>  <MWHBN-cont>
0.725569438

>  <TPSA-cont>
0.479385289

>  <pka_cont>
0.97

>  <yes.1>


>  <BBB_SCORE>
4.342670483

>  <MMFF94 Energy>
120.84

$$$$
Compound 1885
Actelion Java MolfileCreator 2.0

  0  0  0  0  0  0              0 V3000
M  V30 BEGIN CTAB
M  V30 COUNTS 38 41 0 0 0
M  V30 BEGIN ATOM
M  V30 1 O 3.7968 -0.7262 -1.4528 0
M  V30 2 C 2.6152 -0.585 -1.211 0
M  V30 3 O 2.0737 0.0437 -0.1327 0
M  V30 4 C 1.5065 -1.0225 -2.0398 0
M  V30 5 C 0.613 -0.0131 -0.1111 0
M  V30 6 C 0.3198 -0.6753 -1.4265 0
M  V30 7 C 1.5628 -1.6555 -3.2705 0
M  V30 8 C 0.2892 -0.8302 1.1531 0
M  V30 9 C 0.0413 1.4163 -0.0734 0
M  V30 10 C -0.8868 -0.9426 -2.0639 0
M  V30 11 C 0.3555 -1.9408 -3.9068 0
M  V30 12 C -0.3713 -2.0728 1.1273 0
M  V30 13 C 0.6842 -0.327 2.4121 0
M  V30 14 C -1.2853 1.6514 0.3446 0
M  V30 15 C 0.8046 2.5228 -0.4921 0
M  V30 16 C -0.8626 -1.5826 -3.308 0
M  V30 17 C -0.6414 -2.7735 2.3088 0
M  V30 18 C 0.4122 -1.0242 3.5907 0
M  V30 19 C -1.8216 2.9423 0.3597 0
M  V30 20 C 0.2672 3.8123 -0.479 0
M  V30 21 C -0.2493 -2.2409 3.5304 0
M  V30 22 C -1.0381 4.0125 -0.0525 0
M  V30 23 O -0.4943 -2.8914 4.7025 0
M  V30 24 O -1.5192 5.2877 -0.0542 0
M  V30 25 H 2.5159 -1.9093 -3.7242 0
M  V30 26 H -1.8359 -0.6638 -1.6149 0
M  V30 27 H 0.357 -2.4335 -4.8766 0
M  V30 28 H -0.6822 -2.5303 0.1919 0
M  V30 29 H 1.2161 0.6217 2.4791 0
M  V30 30 H -1.9146 0.826 0.6729 0
M  V30 31 H 1.8309 2.3975 -0.8319 0
M  V30 32 H -1.7971 -1.8007 -3.8215 0
M  V30 33 H -1.1521 -3.7298 2.2523 0
M  V30 34 H 0.7232 -0.6191 4.5496 0
M  V30 35 H -2.8434 3.0892 0.6949 0
M  V30 36 H 0.8695 4.6576 -0.8004 0
M  V30 37 H -0.9149 -3.7436 4.504 0
M  V30 38 H -2.4257 5.2789 0.2935 0
M  V30 END ATOM
M  V30 BEGIN BOND
M  V30 1 2 1 2
M  V30 2 1 2 3
M  V30 3 1 2 4
M  V30 4 1 3 5
M  V30 5 2 4 6
M  V30 6 1 4 7
M  V30 7 1 5 8
M  V30 8 1 5 9
M  V30 9 1 6 10
M  V30 10 2 7 11
M  V30 11 2 8 12
M  V30 12 1 8 13
M  V30 13 2 9 14
M  V30 14 1 9 15
M  V30 15 2 10 16
M  V30 16 1 12 17
M  V30 17 2 13 18
M  V30 18 1 14 19
M  V30 19 2 15 20
M  V30 20 2 17 21
M  V30 21 2 19 22
M  V30 22 1 21 23
M  V30 23 1 22 24
M  V30 24 1 5 6
M  V30 25 1 11 16
M  V30 26 1 18 21
M  V30 27 1 20 22
M  V30 28 1 7 25
M  V30 29 1 10 26
M  V30 30 1 11 27
M  V30 31 1 12 28
M  V30 32 1 13 29
M  V30 33 1 14 30
M  V30 34 1 15 31
M  V30 35 1 16 32
M  V30 36 1 17 33
M  V30 37 1 18 34
M  V30 38 1 19 35
M  V30 39 1 20 36
M  V30 40 1 23 37
M  V30 41 1 24 38
M  V30 END BOND
M  V30 END CTAB
M  END
>  <Column 1>
2296

>  <level_0>
2477

>  <index>
2477

>  <Unnamed: 0>
2477

>  <NO.>
2489

>  <Name>
phenolphthalein

>  <IUPAC_name>
3-3-bis(4-hydroxyphenyl)-2-benzofuran-1-one

>  <SMILES>
O=C1OC(c2ccc(O)cc2)(c2ccc(O)cc2)c2ccccc21

>  <CID>
4764

>  <logBB>


>  <BBB+/BBB->
BBB-

>  <Inchi>
InChI=1S/C20H14O4/c21-15-9-5-13(6-10-15)20(14-7-11-16(22)12-8-14)18-4-2-1-3-17(18)19(23)24-20/h1-12-21-22H

>  <threshold>
-1

>  <reference>
R1|R13|R14|R27|R30|

>  <group>
B

>  <Class>
1

>  <ABC>
19.15

>  <ABCGG>
15.58

>  <nAcid>
0

>  <nBase>
0

>  <nAromAtom>
18

>  <nAromBond>
18

>  <nAtom>
38

>  <nHeavyAtom>
24

>  <nSpiro>
0

>  <nBridgehead>
0

>  <nHetero>
4

>  <nN>
0

>  <nO>
4

>  <nF>
0

>  <BalabanJ>
1.64

>  <BertzCT>
865.63

>  <nBonds>
41

>  <nBondsO>
27

>  <nBondsS>
22

>  <nBondsD>
1

>  <nBondsT>
0

>  <nBondsA>
18

>  <nBondsM>
19

>  <nBondsKS>
31

>  <nBondsKD>
10

>  <RNCG>
0.23

>  <RPCG>
0.15

>  <FCSP3>
0.05

>  <SZ>
27.67

>  <Sm>
26.5

>  <Sv>
26.65

>  <Sse>
38.54

>  <Sp>
27.51

>  <Si>
41.74

>  <MZ>
0.73

>  <Mm>
0.7

>  <Mv>
0.7

>  <Mse>
1.01

>  <Mp>
0.72

>  <Mi>
1.1

>  <NsCH3>
0

>  <NdCH2>
0

>  <NssCH2>
0

>  <NtCH>
0

>  <NdsCH>
0

>  <NaaCH>
12

>  <NsssCH>
0

>  <NddC>
0

>  <NtsC>
0

>  <NdssC>
1

>  <NaasC>
6

>  <NaaaC>
0

>  <NssssC>
1

>  <NsNH3>
0

>  <NsNH2>
0

>  <NssNH2>
0

>  <NdNH>
0

>  <NssNH>
0

>  <NaaNH>
0

>  <NtN>
0

>  <NsssNH>
0

>  <NdsN>
0

>  <NaaN>
0

>  <NsssN>
0

>  <NddsN>
0

>  <NaasN>
0

>  <NssssN>
0

>  <NsOH>
2

>  <NdO>
1

>  <NssO>
1

>  <NaaO>
0

>  <NsF>
0

>  <NsSiH3>
0

>  <NssSiH2>
0

>  <NsssSiH>
0

>  <NssssSi>
0

>  <NsPH2>
0

>  <NssPH>
0

>  <NsssP>
0

>  <NdsssP>
0

>  <NsssssP>
0

>  <NsSH>
0

>  <NdS>
0

>  <NssS>
0

>  <NaaS>
0

>  <NdssS>
0

>  <NddssS>
0

>  <NsCl>
0

>  <NsBr>
0

>  <NsI>
0

>  <fragCpx>
177.04

>  <fMF>
0.55

>  <nHBAcc>
4

>  <nHBDon>
2

>  <Kier1>
17.42

>  <Kier2>
6.96

>  <Lipinski>
1

>  <GhoseFilter>
1

>  <FilterItLogS>
-4.61

>  <VMcGowan>
229.7

>  <LabuteASA>
138.13

>  <PEOE_VSA1>
14.95

>  <PEOE_VSA2>
0

>  <PEOE_VSA3>
4.79

>  <PEOE_VSA4>
0

>  <PEOE_VSA5>
0

>  <PEOE_VSA6>
42.46

>  <PEOE_VSA7>
30.33

>  <PEOE_VSA8>
16.69

>  <PEOE_VSA9>
5.56

>  <PEOE_VSA10>
11.5

>  <PEOE_VSA11>
5.6

>  <PEOE_VSA12>
0

>  <PEOE_VSA13>
0

>  <SMR_VSA1>
19.74

>  <SMR_VSA2>
0

>  <SMR_VSA3>
0

>  <SMR_VSA4>
0

>  <SMR_VSA5>
5.6

>  <SMR_VSA6>
0

>  <SMR_VSA7>
95.05

>  <SMR_VSA8>
0

>  <SMR_VSA9>
11.5

>  <SlogP_VSA1>
0

>  <SlogP_VSA2>
16.18

>  <SlogP_VSA3>
10.34

>  <SlogP_VSA4>
0

>  <SlogP_VSA5>
27.05

>  <SlogP_VSA6>
72.8

>  <SlogP_VSA7>
0

>  <SlogP_VSA8>
0

>  <SlogP_VSA9>
0

>  <SlogP_VSA10>
0

>  <SlogP_VSA11>
11.5

>  <EState_VSA1>
11.57

>  <EState_VSA2>
11.5

>  <EState_VSA3>
5.56

>  <EState_VSA4>
16.69

>  <EState_VSA5>
0

>  <EState_VSA6>
60.66

>  <EState_VSA7>
12.13

>  <EState_VSA8>
0

>  <EState_VSA9>
4.74

>  <EState_VSA10>
15.01

>  <VSA_EState1>
5.87

>  <VSA_EState2>
12.44

>  <VSA_EState3>
19.19

>  <VSA_EState4>
1.6

>  <VSA_EState5>
-0.12

>  <VSA_EState6>
20.43

>  <VSA_EState7>
0

>  <VSA_EState8>
0

>  <VSA_EState9>
0

>  <apol>
45.94

>  <bpol>
16.65

>  <nRing>
4

>  <nHRing>
1

>  <naRing>
3

>  <naHRing>
0

>  <nARing 2>
1

>  <nAHRing 2>
1

>  <nFRing>
1

>  <nFHRing>
1

>  <nFaRing>
0

>  <nFaHRing>
0

>  <nFARing 2>
1

>  <nFAHRing 2>
1

>  <nRot>
2

>  <SLogP>
3.56

>  <SMR>
87.95

>  <TopoPSA(NO)>
66.76

>  <TopoPSA>
66.76

>  <JGI1>
0.2

>  <JGI2>
0.1

>  <JGI3>
0.06

>  <JGI4>
0.04

>  <JGI5>
0.02

>  <Diameter>
10

>  <Radius>
5

>  <TMWC10>
128.63

>  <TSRW10>
73.98

>  <MW>
318.09

>  <AMW>
8.37

>  <WPath>
1164

>  <WPol>
44

>  <Zagreb1>
134

>  <Zagreb2>
165

>  <mZagreb2>
5.18

>  <yes>


>  <nAR-cont>
0.816016

>  <nHA-cont>
0.94700071

>  <MWHBN>
0.33641569

>  <MWHBN-cont>
0.720078778

>  <TPSA-cont>
0.533973745

>  <pka_cont>
0.97

>  <yes.1>


>  <BBB_SCORE>
4.396082366

>  <MMFF94 Energy>
70.177

$$$$
Compound 1886
Actelion Java MolfileCreator 2.0

  0  0  0  0  0  0              0 V3000
M  V30 BEGIN CTAB
M  V30 COUNTS 58 62 0 0 0
M  V30 BEGIN ATOM
M  V30 1 Cl 1.2251 2.8603 -3.5968 0
M  V30 2 C -0.2405 1.9656 -3.7125 0
M  V30 3 C -0.9177 1.59 -2.5504 0
M  V30 4 C -0.7386 1.6225 -4.9603 0
M  V30 5 C -2.112 0.8414 -2.6016 0
M  V30 6 C -1.9303 0.9073 -5.0414 0
M  V30 7 N -2.7817 0.4391 -1.4128 0
M  V30 8 C -2.6227 0.526 -3.8777 0
M  V30 9 C -4.1432 0.0419 -1.3483 0
M  V30 10 C -1.9087 -0.0215 -0.3006 0
M  V30 11 S -4.1266 -0.3955 -4.1223 0
M  V30 12 C -4.852 -0.3609 -2.4966 0
M  V30 13 C -4.8592 0.0819 -0.134 0
M  V30 14 C -1.2936 -1.3915 -0.6241 0
M  V30 15 C -6.1935 -0.7735 -2.4022 0
M  V30 16 C -6.1962 -0.3194 -0.0471 0
M  V30 17 C -0.4164 -1.9252 0.5147 0
M  V30 18 C -6.8617 -0.7592 -1.1813 0
M  V30 19 N 0.6579 -1.0085 0.9352 0
M  V30 20 C 1.6794 -0.8414 -0.1138 0
M  V30 21 C 1.2857 -1.5019 2.169 0
M  V30 22 C 2.733 0.1834 0.3141 0
M  V30 23 C 2.3357 -0.5163 2.6928 0
M  V30 24 C 3.4123 -0.2006 1.641 0
M  V30 25 O 4.1633 -1.4037 1.3692 0
M  V30 26 C 4.4368 0.8745 2.0734 0 CFG=1
M  V30 27 C 3.8197 2.194 2.4641 0
M  V30 28 C 5.2615 0.5454 3.31 0
M  V30 29 O 3.28 2.9833 1.7066 0
M  V30 30 O 3.9377 2.406 3.8068 0
M  V30 31 C 4.576 1.2936 4.423 0
M  V30 32 H -0.5059 1.9161 -1.6004 0
M  V30 33 H -0.2159 1.912 -5.8672 0
M  V30 34 H -2.322 0.6486 -6.0231 0
M  V30 35 H -2.448 -0.1049 0.6477 0
M  V30 36 H -1.1296 0.715 -0.0848 0
M  V30 37 H -4.3989 0.4688 0.7705 0
M  V30 38 H -0.7183 -1.3502 -1.5554 0
M  V30 39 H -2.0983 -2.1158 -0.805 0
M  V30 40 H -6.7306 -1.0996 -3.2905 0
M  V30 41 H -6.7151 -0.2735 0.9068 0
M  V30 42 H -1.0803 -2.1115 1.3693 0
M  V30 43 H -0.0021 -2.8992 0.2237 0
M  V30 44 H -7.9007 -1.0714 -1.1231 0
M  V30 45 H 2.1542 -1.8001 -0.3582 0
M  V30 46 H 1.2249 -0.464 -1.0357 0
M  V30 47 H 1.7403 -2.4887 2.012 0
M  V30 48 H 0.5247 -1.6206 2.9505 0
M  V30 49 H 3.4822 0.2586 -0.4839 0
M  V30 50 H 2.2428 1.1599 0.3941 0
M  V30 51 H 2.7902 -0.9624 3.5849 0
M  V30 52 H 1.8274 0.4036 3.0066 0
M  V30 53 H 4.3204 -1.8822 2.2001 0
M  V30 54 H 5.1427 1.05 1.2511 0
M  V30 55 H 5.3778 -0.5185 3.5294 0
M  V30 56 H 6.2718 0.9549 3.1796 0
M  V30 57 H 5.2905 1.6495 5.1713 0
M  V30 58 H 3.8172 0.691 4.9309 0
M  V30 END ATOM
M  V30 BEGIN BOND
M  V30 1 1 1 2
M  V30 2 2 2 3
M  V30 3 1 2 4
M  V30 4 1 3 5
M  V30 5 2 4 6
M  V30 6 1 5 7
M  V30 7 2 5 8
M  V30 8 1 7 9
M  V30 9 1 7 10
M  V30 10 1 8 11
M  V30 11 2 9 12
M  V30 12 1 9 13
M  V30 13 1 10 14
M  V30 14 1 12 15
M  V30 15 2 13 16
M  V30 16 1 14 17
M  V30 17 2 15 18
M  V30 18 1 17 19
M  V30 19 1 19 20
M  V30 20 1 19 21
M  V30 21 1 20 22
M  V30 22 1 21 23
M  V30 23 1 22 24
M  V30 24 1 24 25
M  V30 25 1 24 26
M  V30 26 1 26 27
M  V30 27 1 26 28
M  V30 28 2 27 29
M  V30 29 1 27 30
M  V30 30 1 28 31
M  V30 31 1 6 8
M  V30 32 1 11 12
M  V30 33 1 16 18
M  V30 34 1 23 24
M  V30 35 1 30 31
M  V30 36 1 3 32
M  V30 37 1 4 33
M  V30 38 1 6 34
M  V30 39 1 10 35
M  V30 40 1 10 36
M  V30 41 1 13 37
M  V30 42 1 14 38
M  V30 43 1 14 39
M  V30 44 1 15 40
M  V30 45 1 16 41
M  V30 46 1 17 42
M  V30 47 1 17 43
M  V30 48 1 18 44
M  V30 49 1 20 45
M  V30 50 1 20 46
M  V30 51 1 21 47
M  V30 52 1 21 48
M  V30 53 1 22 49
M  V30 54 1 22 50
M  V30 55 1 23 51
M  V30 56 1 23 52
M  V30 57 1 25 53
M  V30 58 1 26 54
M  V30 59 1 28 55
M  V30 60 1 28 56
M  V30 61 1 31 57
M  V30 62 1 31 58
M  V30 END BOND
M  V30 BEGIN COLLECTION
M  V30 MDLV30/STERAC1 ATOMS=(1 26)
M  V30 END COLLECTION
M  V30 END CTAB
M  END
>  <Column 1>
2297

>  <level_0>
2478

>  <index>
2478

>  <Unnamed: 0>
2478

>  <NO.>
2490

>  <Name>
furomazine

>  <IUPAC_name>
3-[1-[3-(2-chlorophenothiazin-10-yl)propyl]-4-hydroxypiperidin-4-yl]oxolan-2-one

>  <SMILES>
O=C1OCCC1C1(O)CCN(CCCN2c3ccccc3Sc3ccc(Cl)cc32)CC1

>  <CID>
219083

>  <logBB>


>  <BBB+/BBB->
BBB+

>  <Inchi>
InChI=1S/C24H27ClN2O3S/c25-17-6-7-22-20(16-17)27(19-4-1-2-5-21(19)31-22)12-3-11-26-13-9-24(29-10-14-26)18-8-15-30-23(18)28/h1-2-4-7-16-18-29H-3-8-15H2

>  <threshold>
-1

>  <reference>
R1|R19|R6|R27|R27|R30|

>  <group>
B

>  <Class>
1

>  <ABC>
24.86

>  <ABCGG>
18.14

>  <nAcid>
0

>  <nBase>
1

>  <nAromAtom>
12

>  <nAromBond>
12

>  <nAtom>
58

>  <nHeavyAtom>
31

>  <nSpiro>
0

>  <nBridgehead>
0

>  <nHetero>
7

>  <nN>
2

>  <nO>
3

>  <nF>
0

>  <BalabanJ>
1.14

>  <BertzCT>
977.05

>  <nBonds>
62

>  <nBondsO>
35

>  <nBondsS>
49

>  <nBondsD>
1

>  <nBondsT>
0

>  <nBondsA>
12

>  <nBondsM>
13

>  <nBondsKS>
55

>  <nBondsKD>
7

>  <RNCG>
0.2

>  <RPCG>
0.14

>  <FCSP3>
0.46

>  <SZ>
40.33

>  <Sm>
38.22

>  <Sv>
37.25

>  <Sse>
58.15

>  <Sp>
40.58

>  <Si>
64.89

>  <MZ>
0.7

>  <Mm>
0.66

>  <Mv>
0.64

>  <Mse>
1

>  <Mp>
0.7

>  <Mi>
1.12

>  <NsCH3>
0

>  <NdCH2>
0

>  <NssCH2>
9

>  <NtCH>
0

>  <NdsCH>
0

>  <NaaCH>
7

>  <NsssCH>
1

>  <NddC>
0

>  <NtsC>
0

>  <NdssC>
1

>  <NaasC>
5

>  <NaaaC>
0

>  <NssssC>
1

>  <NsNH3>
0

>  <NsNH2>
0

>  <NssNH2>
0

>  <NdNH>
0

>  <NssNH>
0

>  <NaaNH>
0

>  <NtN>
0

>  <NsssNH>
0

>  <NdsN>
0

>  <NaaN>
0

>  <NsssN>
2

>  <NddsN>
0

>  <NaasN>
0

>  <NssssN>
0

>  <NsOH>
1

>  <NdO>
1

>  <NssO>
1

>  <NaaO>
0

>  <NsF>
0

>  <NsSiH3>
0

>  <NssSiH2>
0

>  <NsssSiH>
0

>  <NssssSi>
0

>  <NsPH2>
0

>  <NssPH>
0

>  <NsssP>
0

>  <NdsssP>
0

>  <NsssssP>
0

>  <NsSH>
0

>  <NdS>
0

>  <NssS>
1

>  <NaaS>
0

>  <NdssS>
0

>  <NddssS>
0

>  <NsCl>
1

>  <NsBr>
0

>  <NsI>
0

>  <fragCpx>
295.07

>  <fMF>
0.48

>  <nHBAcc>
6

>  <nHBDon>
1

>  <Kier1>
22.78

>  <Kier2>
9.7

>  <Lipinski>
1

>  <GhoseFilter>
1

>  <FilterItLogS>
-5.64

>  <VMcGowan>
330.78

>  <LabuteASA>
191.87

>  <PEOE_VSA1>
19.64

>  <PEOE_VSA2>
4.79

>  <PEOE_VSA3>
0

>  <PEOE_VSA4>
0

>  <PEOE_VSA5>
0

>  <PEOE_VSA6>
35.5

>  <PEOE_VSA7>
62.56

>  <PEOE_VSA8>
34.45

>  <PEOE_VSA9>
29.5

>  <PEOE_VSA10>
0

>  <PEOE_VSA11>
0

>  <PEOE_VSA12>
0

>  <PEOE_VSA13>
0

>  <SMR_VSA1>
14.64

>  <SMR_VSA2>
0

>  <SMR_VSA3>
4.9

>  <SMR_VSA4>
5.92

>  <SMR_VSA5>
41.08

>  <SMR_VSA6>
37.69

>  <SMR_VSA7>
47.49

>  <SMR_VSA8>
0

>  <SMR_VSA9>
0

>  <SlogP_VSA1>
4.9

>  <SlogP_VSA2>
54.36

>  <SlogP_VSA3>
9.53

>  <SlogP_VSA4>
5.92

>  <SlogP_VSA5>
25.68

>  <SlogP_VSA6>
52.26

>  <SlogP_VSA7>
5.02

>  <SlogP_VSA8>
0

>  <SlogP_VSA9>
0

>  <SlogP_VSA10>
11.37

>  <SlogP_VSA11>
0

>  <EState_VSA1>
5.6

>  <EState_VSA2>
11.89

>  <EState_VSA3>
25.87

>  <EState_VSA4>
37.62

>  <EState_VSA5>
21.17

>  <EState_VSA6>
11.76

>  <EState_VSA7>
6.07

>  <EState_VSA8>
46.2

>  <EState_VSA9>
16.34

>  <EState_VSA10>
9.9

>  <VSA_EState1>
5.08

>  <VSA_EState2>
19.2

>  <VSA_EState3>
11.74

>  <VSA_EState4>
1.5

>  <VSA_EState5>
-0.58

>  <VSA_EState6>
14.63

>  <VSA_EState7>
2.92

>  <VSA_EState8>
3.94

>  <VSA_EState9>
0

>  <apol>
67.77

>  <bpol>
36.08

>  <nRing>
5

>  <nHRing>
3

>  <naRing>
2

>  <naHRing>
0

>  <nARing 2>
3

>  <nAHRing 2>
3

>  <nFRing>
1

>  <nFHRing>
1

>  <nFaRing>
0

>  <nFaHRing>
0

>  <nFARing 2>
1

>  <nFAHRing 2>
1

>  <nRot>
5

>  <SLogP>
4.72

>  <SMR>
123.33

>  <TopoPSA(NO)>
53.01

>  <TopoPSA>
78.31

>  <JGI1>
0.19

>  <JGI2>
0.09

>  <JGI3>
0.05

>  <JGI4>
0.04

>  <JGI5>
0.02

>  <Diameter>
14

>  <Radius>
7

>  <TMWC10>
144.63

>  <TSRW10>
81

>  <MW>
458.14

>  <AMW>
7.9

>  <WPath>
2922

>  <WPol>
53

>  <Zagreb1>
172

>  <Zagreb2>
207

>  <mZagreb2>
6.64

>  <yes>


>  <nAR-cont>
0.691115

>  <nHA-cont>
0.702745138

>  <MWHBN>
0.327038539

>  <MWHBN-cont>
0.753162822

>  <TPSA-cont>
0.453347572

>  <pka_cont>
0.97

>  <yes.1>


>  <BBB_SCORE>
3.915299515

>  <MMFF94 Energy>
64.248

$$$$
Compound 1887
Actelion Java MolfileCreator 2.0

  0  0  0  0  0  0              0 V3000
M  V30 BEGIN CTAB
M  V30 COUNTS 60 64 0 0 0
M  V30 BEGIN ATOM
M  V30 1 S -4.7718 -2.5859 -4.9339 0
M  V30 2 N -4.5906 -1.5701 -3.6523 0
M  V30 3 C -4.3823 -1.4429 -6.1494 0
M  V30 4 C -4.1909 -0.3719 -4.0774 0
M  V30 5 C -4.0906 -0.2276 -5.5247 0
M  V30 6 C -4.3466 -1.6055 -7.5453 0
M  V30 7 N -3.9227 0.6658 -3.2252 0
M  V30 8 C -3.7878 0.8783 -6.362 0
M  V30 9 C -4.0236 -0.5002 -8.3355 0
M  V30 10 C -2.587 1.2787 -3.2072 0
M  V30 11 C -4.5811 0.7123 -1.9105 0
M  V30 12 C -3.7526 0.731 -7.7529 0
M  V30 13 C -1.7103 0.6426 -2.098 0
M  V30 14 C -3.6837 0.0795 -0.8237 0
M  V30 15 N -2.3357 0.7068 -0.7531 0
M  V30 16 C -1.5253 0.0228 0.2676 0
M  V30 17 C -0.235 0.7823 0.6014 0
M  V30 18 C 0.5181 0.1089 1.7506 0
M  V30 19 C 1.8004 0.8682 2.0934 0
M  V30 20 N 2.5253 0.2158 3.1671 0
M  V30 21 C 3.4572 -0.7664 2.9685 0
M  V30 22 C 2.3474 0.5068 4.492 0
M  V30 23 O 3.8829 -1.1651 1.8963 0
M  V30 24 C 3.804 -1.3413 4.3226 0 CFG=2
M  V30 25 O 1.5193 1.2644 4.9731 0
M  V30 26 C 3.4185 -0.2108 5.279 0 CFG=1
M  V30 27 C 5.2253 -1.8745 4.4437 0
M  V30 28 C 4.544 0.7808 5.5906 0
M  V30 29 C 6.2654 -0.7848 4.669 0
M  V30 30 C 5.8793 0.0988 5.8468 0
M  V30 31 H -4.5737 -2.5647 -8.0008 0
M  V30 32 H -3.5944 1.8522 -5.9198 0
M  V30 33 H -3.9955 -0.6038 -9.4179 0
M  V30 34 H -2.0675 1.1762 -4.1659 0
M  V30 35 H -2.6936 2.3543 -3.018 0
M  V30 36 H -5.5606 0.2187 -1.9291 0
M  V30 37 H -4.7731 1.7624 -1.6543 0
M  V30 38 H -3.5177 1.5887 -8.3789 0
M  V30 39 H -1.499 -0.401 -2.3666 0
M  V30 40 H -0.757 1.1813 -2.0928 0
M  V30 41 H -3.5879 -0.998 -1.0107 0
M  V30 42 H -4.1887 0.2008 0.1422 0
M  V30 43 H -1.2904 -1.0044 -0.0397 0
M  V30 44 H -2.1112 -0.0492 1.1934 0
M  V30 45 H -0.4764 1.816 0.879 0
M  V30 46 H 0.4237 0.8245 -0.2728 0
M  V30 47 H -0.1255 0.0551 2.6375 0
M  V30 48 H 0.7622 -0.9249 1.4764 0
M  V30 49 H 1.5572 1.8908 2.4038 0
M  V30 50 H 2.4503 0.9193 1.2126 0
M  V30 51 H 3.1085 -2.1819 4.4613 0
M  V30 52 H 2.9994 -0.6234 6.203 0
M  V30 53 H 5.4982 -2.4595 3.5578 0
M  V30 54 H 5.2627 -2.5653 5.2962 0
M  V30 55 H 4.6672 1.4966 4.7663 0
M  V30 56 H 4.2644 1.3826 6.4643 0
M  V30 57 H 7.2416 -1.2453 4.8588 0
M  V30 58 H 6.3696 -0.1755 3.7631 0
M  V30 59 H 5.8218 -0.5008 6.7631 0
M  V30 60 H 6.6535 0.8576 6.0073 0
M  V30 END ATOM
M  V30 BEGIN BOND
M  V30 1 1 1 2
M  V30 2 1 1 3
M  V30 3 2 2 4
M  V30 4 2 3 5
M  V30 5 1 3 6
M  V30 6 1 4 7
M  V30 7 1 5 8
M  V30 8 2 6 9
M  V30 9 1 7 10
M  V30 10 1 7 11
M  V30 11 2 8 12
M  V30 12 1 10 13
M  V30 13 1 11 14
M  V30 14 1 13 15
M  V30 15 1 15 16
M  V30 16 1 16 17
M  V30 17 1 17 18
M  V30 18 1 18 19
M  V30 19 1 19 20
M  V30 20 1 20 21
M  V30 21 1 20 22
M  V30 22 2 21 23
M  V30 23 1 21 24
M  V30 24 2 22 25
M  V30 25 1 22 26
M  V30 26 1 24 27
M  V30 27 1 26 28
M  V30 28 1 27 29
M  V30 29 1 28 30
M  V30 30 1 4 5
M  V30 31 1 9 12
M  V30 32 1 14 15
M  V30 33 1 24 26
M  V30 34 1 29 30
M  V30 35 1 6 31
M  V30 36 1 8 32
M  V30 37 1 9 33
M  V30 38 1 10 34
M  V30 39 1 10 35
M  V30 40 1 11 36
M  V30 41 1 11 37
M  V30 42 1 12 38
M  V30 43 1 13 39
M  V30 44 1 13 40
M  V30 45 1 14 41
M  V30 46 1 14 42
M  V30 47 1 16 43
M  V30 48 1 16 44
M  V30 49 1 17 45
M  V30 50 1 17 46
M  V30 51 1 18 47
M  V30 52 1 18 48
M  V30 53 1 19 49
M  V30 54 1 19 50
M  V30 55 1 24 51
M  V30 56 1 26 52
M  V30 57 1 27 53
M  V30 58 1 27 54
M  V30 59 1 28 55
M  V30 60 1 28 56
M  V30 61 1 29 57
M  V30 62 1 29 58
M  V30 63 1 30 59
M  V30 64 1 30 60
M  V30 END BOND
M  V30 BEGIN COLLECTION
M  V30 MDLV30/STEABS ATOMS=(2 24 26)
M  V30 END COLLECTION
M  V30 END CTAB
M  END
>  <Column 1>
2298

>  <level_0>
2479

>  <index>
2479

>  <Unnamed: 0>
2479

>  <NO.>
2491

>  <Name>
perospirone

>  <IUPAC_name>
(3ar-7as)-2-[4-[4-(1-2-benzothiazol-3-yl)piperazin-1-yl]butyl]-3a-4-5-6-7-7a-hexahydroisoindole-1-3-dione

>  <SMILES>
O=C1[C@H]2CCCC[C@H]2C(=O)N1CCCCN1CCN(c2nsc3ccccc23)CC1

>  <CID>
115368

>  <logBB>


>  <BBB+/BBB->
BBB+

>  <Inchi>
InChI=1S/C23H30N4O2S/c28-22-17-7-1-2-8-18(17)23(29)27(22)12-6-5-11-25-13-15-26(16-14-25)21-19-9-3-4-10-20(19)30-24-21/h3-4-9-10-17-18H-1-2-5-8-11-16H2/t17--18+

>  <threshold>
-1

>  <reference>
R1|R6|R24|R27|R27|R30|R30|R37|

>  <group>
B

>  <Class>
1

>  <ABC>
23.94

>  <ABCGG>
17.39

>  <nAcid>
0

>  <nBase>
1

>  <nAromAtom>
9

>  <nAromBond>
10

>  <nAtom>
60

>  <nHeavyAtom>
30

>  <nSpiro>
0

>  <nBridgehead>
0

>  <nHetero>
7

>  <nN>
4

>  <nO>
2

>  <nF>
0

>  <BalabanJ>
1.01

>  <BertzCT>
896.82

>  <nBonds>
64

>  <nBondsO>
34

>  <nBondsS>
52

>  <nBondsD>
2

>  <nBondsT>
0

>  <nBondsA>
10

>  <nBondsM>
12

>  <nBondsKS>
58

>  <nBondsKD>
6

>  <RNCG>
0.16

>  <RPCG>
0.11

>  <FCSP3>
0.61

>  <SZ>
38

>  <Sm>
35.52

>  <Sv>
36.78

>  <Sse>
59.71

>  <Sp>
40.31

>  <Si>
67.73

>  <MZ>
0.63

>  <Mm>
0.59

>  <Mv>
0.61

>  <Mse>
1

>  <Mp>
0.67

>  <Mi>
1.13

>  <NsCH3>
0

>  <NdCH2>
0

>  <NssCH2>
12

>  <NtCH>
0

>  <NdsCH>
0

>  <NaaCH>
4

>  <NsssCH>
2

>  <NddC>
0

>  <NtsC>
0

>  <NdssC>
2

>  <NaasC>
1

>  <NaaaC>
2

>  <NssssC>
0

>  <NsNH3>
0

>  <NsNH2>
0

>  <NssNH2>
0

>  <NdNH>
0

>  <NssNH>
0

>  <NaaNH>
0

>  <NtN>
0

>  <NsssNH>
0

>  <NdsN>
0

>  <NaaN>
1

>  <NsssN>
3

>  <NddsN>
0

>  <NaasN>
0

>  <NssssN>
0

>  <NsOH>
0

>  <NdO>
2

>  <NssO>
0

>  <NaaO>
0

>  <NsF>
0

>  <NsSiH3>
0

>  <NssSiH2>
0

>  <NsssSiH>
0

>  <NssssSi>
0

>  <NsPH2>
0

>  <NssPH>
0

>  <NsssP>
0

>  <NdsssP>
0

>  <NsssssP>
0

>  <NsSH>
0

>  <NdS>
0

>  <NssS>
0

>  <NaaS>
1

>  <NdssS>
0

>  <NddssS>
0

>  <NsCl>
0

>  <NsBr>
0

>  <NsI>
0

>  <fragCpx>
286.07

>  <fMF>
0.47

>  <nHBAcc>
6

>  <nHBDon>
0

>  <Kier1>
21.83

>  <Kier2>
9.87

>  <Lipinski>
1

>  <GhoseFilter>
1

>  <FilterItLogS>
-4.53

>  <VMcGowan>
322.84

>  <LabuteASA>
181.54

>  <PEOE_VSA1>
4.9

>  <PEOE_VSA2>
19.39

>  <PEOE_VSA3>
0

>  <PEOE_VSA4>
4.37

>  <PEOE_VSA5>
0

>  <PEOE_VSA6>
24.97

>  <PEOE_VSA7>
55.89

>  <PEOE_VSA8>
38.11

>  <PEOE_VSA9>
16.54

>  <PEOE_VSA10>
5.82

>  <PEOE_VSA11>
0

>  <PEOE_VSA12>
11.81

>  <PEOE_VSA13>
0

>  <SMR_VSA1>
9.59

>  <SMR_VSA2>
0

>  <SMR_VSA3>
14.17

>  <SMR_VSA4>
11.84

>  <SMR_VSA5>
38.52

>  <SMR_VSA6>
44.17

>  <SMR_VSA7>
24.27

>  <SMR_VSA8>
0

>  <SMR_VSA9>
0

>  <SlogP_VSA1>
4.9

>  <SlogP_VSA2>
65.26

>  <SlogP_VSA3>
9.59

>  <SlogP_VSA4>
11.84

>  <SlogP_VSA5>
38.52

>  <SlogP_VSA6>
24.27

>  <SlogP_VSA7>
0

>  <SlogP_VSA8>
10.09

>  <SlogP_VSA9>
0

>  <SlogP_VSA10>
5.82

>  <SlogP_VSA11>
0

>  <EState_VSA1>
0

>  <EState_VSA2>
23.65

>  <EState_VSA3>
6.54

>  <EState_VSA4>
77.07

>  <EState_VSA5>
10.09

>  <EState_VSA6>
16.43

>  <EState_VSA7>
0

>  <EState_VSA8>
38.44

>  <EState_VSA9>
0

>  <EState_VSA10>
9.59

>  <VSA_EState1>
5.94

>  <VSA_EState2>
31.62

>  <VSA_EState3>
1.26

>  <VSA_EState4>
0

>  <VSA_EState5>
1.31

>  <VSA_EState6>
8.45

>  <VSA_EState7>
5.95

>  <VSA_EState8>
5.72

>  <VSA_EState9>
0

>  <apol>
67.32

>  <bpol>
40.56

>  <nRing>
5

>  <nHRing>
3

>  <naRing>
2

>  <naHRing>
1

>  <nARing 2>
3

>  <nAHRing 2>
2

>  <nFRing>
2

>  <nFHRing>
2

>  <nFaRing>
1

>  <nFaHRing>
1

>  <nFARing 2>
1

>  <nFAHRing 2>
1

>  <nRot>
6

>  <SLogP>
3.37

>  <SMR>
119.68

>  <TopoPSA(NO)>
56.75

>  <TopoPSA>
84.99

>  <JGI1>
0.12

>  <JGI2>
0.08

>  <JGI3>
0.06

>  <JGI4>
0.03

>  <JGI5>
0.02

>  <Diameter>
17

>  <Radius>
9

>  <TMWC10>
142.03

>  <TSRW10>
82.31

>  <MW>
426.21

>  <AMW>
7.1

>  <WPath>
2982

>  <WPol>
49

>  <Zagreb1>
164

>  <Zagreb2>
198

>  <mZagreb2>
6.56

>  <yes>


>  <nAR-cont>
0.691115

>  <nHA-cont>
0.74523694

>  <MWHBN>
0.290629325

>  <MWHBN-cont>
0.867802001

>  <TPSA-cont>
0.406717024

>  <pka_cont>
0.97

>  <yes.1>


>  <BBB_SCORE>
4.03648899

>  <MMFF94 Energy>
42.055

$$$$
Compound 1888
Actelion Java MolfileCreator 2.0

  0  0  0  0  0  0              0 V3000
M  V30 BEGIN CTAB
M  V30 COUNTS 57 61 0 0 0
M  V30 BEGIN ATOM
M  V30 1 O 4.3355 -1.1226 0.7215 0
M  V30 2 C 3.8856 -0.7155 1.7819 0
M  V30 3 N 2.786 0.0786 1.954 0
M  V30 4 C 4.488 -1.0118 3.1297 0 CFG=2
M  V30 5 C 2.5414 0.389 3.263 0
M  V30 6 C 1.9656 0.5553 0.8559 0
M  V30 7 C 3.5862 -0.2705 4.1235 0 CFG=2
M  V30 8 C 5.8641 -0.3552 3.3503 0 CFG=1
M  V30 9 O 1.6389 1.0924 3.6914 0
M  V30 10 C 0.82 -0.4136 0.5611 0
M  V30 11 C 4.5516 0.7236 4.7966 0 CFG=2
M  V30 12 C 5.5049 1.1008 3.6592 0
M  V30 13 C 6.4002 -0.821 4.7175 0
M  V30 14 C -0.0598 0.0985 -0.5811 0
M  V30 15 C 5.4941 -0.0762 5.7158 0
M  V30 16 C -1.2038 -0.8795 -0.8777 0
M  V30 17 N -1.999 -0.478 -2.0488 0
M  V30 18 C -2.8943 -1.5888 -2.4544 0
M  V30 19 C -2.8421 0.7085 -1.77 0
M  V30 20 C -3.7737 -1.2556 -3.6793 0
M  V30 21 C -3.727 1.1298 -2.9661 0
M  V30 22 N -4.4935 0.001 -3.4881 0
M  V30 23 C -5.5364 0.2794 -4.3505 0
M  V30 24 N -6.0549 -0.7185 -5.0886 0
M  V30 25 N -6.0096 1.537 -4.4154 0
M  V30 26 C -7.0787 -0.4274 -5.9129 0
M  V30 27 C -7.0344 1.7832 -5.2531 0
M  V30 28 C -7.6176 0.8251 -6.0385 0
M  V30 29 H 4.4949 -2.0939 3.2952 0
M  V30 30 H 1.5627 1.5396 1.1201 0
M  V30 31 H 2.5961 0.6688 -0.0329 0
M  V30 32 H 3.0989 -0.9464 4.8336 0
M  V30 33 H 6.5678 -0.4906 2.5265 0
M  V30 34 H 0.2107 -0.5518 1.463 0
M  V30 35 H 1.2287 -1.3986 0.304 0
M  V30 36 H 4.0628 1.5684 5.2866 0
M  V30 37 H 6.3629 1.6928 3.9965 0
M  V30 38 H 5.0193 1.6225 2.8296 0
M  V30 39 H 7.4427 -0.5123 4.8536 0
M  V30 40 H 6.346 -1.9068 4.8439 0
M  V30 41 H -0.4557 1.082 -0.3054 0
M  V30 42 H 0.5528 0.2336 -1.4811 0
M  V30 43 H 6.0946 0.5959 6.3391 0
M  V30 44 H 4.9561 -0.7641 6.3755 0
M  V30 45 H -0.7513 -1.8597 -1.0768 0
M  V30 46 H -1.8397 -0.9984 0.0091 0
M  V30 47 H -3.5474 -1.868 -1.616 0
M  V30 48 H -2.293 -2.4713 -2.7047 0
M  V30 49 H -3.4904 0.5123 -0.905 0
M  V30 50 H -2.2139 1.5687 -1.5161 0
M  V30 51 H -4.4624 -2.0976 -3.8197 0
M  V30 52 H -3.1423 -1.1841 -4.5741 0
M  V30 53 H -4.3843 1.9336 -2.6121 0
M  V30 54 H -3.0921 1.5403 -3.7618 0
M  V30 55 H -7.4619 -1.2659 -6.486 0
M  V30 56 H -7.3802 2.8121 -5.2687 0
M  V30 57 H -8.4396 1.0405 -6.7046 0
M  V30 END ATOM
M  V30 BEGIN BOND
M  V30 1 2 1 2
M  V30 2 1 2 3
M  V30 3 1 2 4
M  V30 4 1 3 5
M  V30 5 1 3 6
M  V30 6 1 4 7
M  V30 7 1 4 8
M  V30 8 2 5 9
M  V30 9 1 6 10
M  V30 10 1 7 11
M  V30 11 1 8 12
M  V30 12 1 8 13
M  V30 13 1 10 14
M  V30 14 1 11 15
M  V30 15 1 14 16
M  V30 16 1 16 17
M  V30 17 1 17 18
M  V30 18 1 17 19
M  V30 19 1 18 20
M  V30 20 1 19 21
M  V30 21 1 20 22
M  V30 22 1 22 23
M  V30 23 2 23 24
M  V30 24 1 23 25
M  V30 25 1 24 26
M  V30 26 2 25 27
M  V30 27 2 26 28
M  V30 28 1 5 7
M  V30 29 1 11 12
M  V30 30 1 13 15
M  V30 31 1 21 22
M  V30 32 1 27 28
M  V30 33 1 4 29
M  V30 34 1 6 30
M  V30 35 1 6 31
M  V30 36 1 7 32
M  V30 37 1 8 33
M  V30 38 1 10 34
M  V30 39 1 10 35
M  V30 40 1 11 36
M  V30 41 1 12 37
M  V30 42 1 12 38
M  V30 43 1 13 39
M  V30 44 1 13 40
M  V30 45 1 14 41
M  V30 46 1 14 42
M  V30 47 1 15 43
M  V30 48 1 15 44
M  V30 49 1 16 45
M  V30 50 1 16 46
M  V30 51 1 18 47
M  V30 52 1 18 48
M  V30 53 1 19 49
M  V30 54 1 19 50
M  V30 55 1 20 51
M  V30 56 1 20 52
M  V30 57 1 21 53
M  V30 58 1 21 54
M  V30 59 1 26 55
M  V30 60 1 27 56
M  V30 61 1 28 57
M  V30 END BOND
M  V30 BEGIN COLLECTION
M  V30 MDLV30/STEABS ATOMS=(4 4 7 8 11)
M  V30 END COLLECTION
M  V30 END CTAB
M  END
>  <Column 1>
2299

>  <level_0>
2480

>  <index>
2480

>  <Unnamed: 0>
2480

>  <NO.>
2492

>  <Name>
tandospirone

>  <IUPAC_name>
2-hydroxypropane-1-2-3-tricarboxylic acid;(1r-2s-6r-7s)-4-[4-(4-pyrimidin-2-ylpiperazin-1-yl)butyl]-4-azatricyclo[5.2.1.02-6]decane-3-5-dione

>  <SMILES>
O=C1[C@H]2[C@@H]3CC[C@@H](C3)[C@H]2C(=O)N1CCCCN1CCN(c2ncccn2)CC1

>  <CID>
91273

>  <logBB>


>  <BBB+/BBB->
BBB+

>  <Inchi>
InChI=1S/C21H29N5O2/c27-19-17-15-4-5-16(14-15)18(17)20(28)26(19)9-2-1-8-24-10-12-25(13-11-24)21-22-6-3-7-23-21/h3-6-7-15-18H-1-2-4-5-8-14H2/t15--16+-17+-18-

>  <threshold>
-1

>  <reference>
R1|R27|R30|

>  <group>
B

>  <Class>
1

>  <ABC>
22.52

>  <ABCGG>
16.86

>  <nAcid>
0

>  <nBase>
1

>  <nAromAtom>
6

>  <nAromBond>
6

>  <nAtom>
57

>  <nHeavyAtom>
28

>  <nSpiro>
0

>  <nBridgehead>
2

>  <nHetero>
7

>  <nN>
5

>  <nO>
2

>  <nF>
0

>  <BalabanJ>
1.01

>  <BertzCT>
705.57

>  <nBonds>
61

>  <nBondsO>
32

>  <nBondsS>
53

>  <nBondsD>
2

>  <nBondsT>
0

>  <nBondsA>
6

>  <nBondsM>
8

>  <nBondsKS>
56

>  <nBondsKD>
5

>  <RNCG>
0.15

>  <RPCG>
0.11

>  <FCSP3>
0.71

>  <SZ>
34.33

>  <Sm>
31.93

>  <Sv>
34.08

>  <Sse>
56.85

>  <Sp>
36.83

>  <Si>
64.89

>  <MZ>
0.6

>  <Mm>
0.56

>  <Mv>
0.6

>  <Mse>
1

>  <Mp>
0.65

>  <Mi>
1.14

>  <NsCH3>
0

>  <NdCH2>
0

>  <NssCH2>
11

>  <NtCH>
0

>  <NdsCH>
0

>  <NaaCH>
3

>  <NsssCH>
4

>  <NddC>
0

>  <NtsC>
0

>  <NdssC>
2

>  <NaasC>
1

>  <NaaaC>
0

>  <NssssC>
0

>  <NsNH3>
0

>  <NsNH2>
0

>  <NssNH2>
0

>  <NdNH>
0

>  <NssNH>
0

>  <NaaNH>
0

>  <NtN>
0

>  <NsssNH>
0

>  <NdsN>
0

>  <NaaN>
2

>  <NsssN>
3

>  <NddsN>
0

>  <NaasN>
0

>  <NssssN>
0

>  <NsOH>
0

>  <NdO>
2

>  <NssO>
0

>  <NaaO>
0

>  <NsF>
0

>  <NsSiH3>
0

>  <NssSiH2>
0

>  <NsssSiH>
0

>  <NssssSi>
0

>  <NsPH2>
0

>  <NssPH>
0

>  <NsssP>
0

>  <NdsssP>
0

>  <NsssssP>
0

>  <NsSH>
0

>  <NdS>
0

>  <NssS>
0

>  <NaaS>
0

>  <NdssS>
0

>  <NddssS>
0

>  <NsCl>
0

>  <NsBr>
0

>  <NsI>
0

>  <fragCpx>
268.07

>  <fMF>
0.46

>  <nHBAcc>
6

>  <nHBDon>
0

>  <Kier1>
19.93

>  <Kier2>
8.63

>  <Lipinski>
1

>  <GhoseFilter>
1

>  <FilterItLogS>
-3.22

>  <VMcGowan>
292.59

>  <LabuteASA>
165.65

>  <PEOE_VSA1>
4.9

>  <PEOE_VSA2>
19.39

>  <PEOE_VSA3>
9.97

>  <PEOE_VSA4>
0

>  <PEOE_VSA5>
0

>  <PEOE_VSA6>
0

>  <PEOE_VSA7>
56.55

>  <PEOE_VSA8>
45.12

>  <PEOE_VSA9>
11.84

>  <PEOE_VSA10>
0

>  <PEOE_VSA11>
0

>  <PEOE_VSA12>
17.76

>  <PEOE_VSA13>
0

>  <SMR_VSA1>
9.59

>  <SMR_VSA2>
0

>  <SMR_VSA3>
19.77

>  <SMR_VSA4>
23.67

>  <SMR_VSA5>
32.1

>  <SMR_VSA6>
44.17

>  <SMR_VSA7>
18.46

>  <SMR_VSA8>
0

>  <SMR_VSA9>
0

>  <SlogP_VSA1>
4.9

>  <SlogP_VSA2>
70.85

>  <SlogP_VSA3>
9.59

>  <SlogP_VSA4>
23.67

>  <SlogP_VSA5>
32.1

>  <SlogP_VSA6>
18.46

>  <SlogP_VSA7>
0

>  <SlogP_VSA8>
0

>  <SlogP_VSA9>
0

>  <SlogP_VSA10>
5.95

>  <SlogP_VSA11>
0

>  <EState_VSA1>
0

>  <EState_VSA2>
23.65

>  <EState_VSA3>
18.38

>  <EState_VSA4>
70.78

>  <EState_VSA5>
0

>  <EState_VSA6>
17.29

>  <EState_VSA7>
6.07

>  <EState_VSA8>
19.77

>  <EState_VSA9>
0

>  <EState_VSA10>
9.59

>  <VSA_EState1>
0

>  <VSA_EState2>
40.41

>  <VSA_EState3>
0

>  <VSA_EState4>
0

>  <VSA_EState5>
2.12

>  <VSA_EState6>
1.84

>  <VSA_EState7>
8.93

>  <VSA_EState8>
5.54

>  <VSA_EState9>
0

>  <apol>
61.51

>  <bpol>
38.24

>  <nRing>
5

>  <nHRing>
3

>  <naRing>
1

>  <naHRing>
1

>  <nARing 2>
4

>  <nAHRing 2>
2

>  <nFRing>
1

>  <nFHRing>
1

>  <nFaRing>
0

>  <nFaHRing>
0

>  <nFARing 2>
1

>  <nFAHRing 2>
1

>  <nRot>
6

>  <SLogP>
1.41

>  <SMR>
104.45

>  <TopoPSA(NO)>
69.64

>  <TopoPSA>
69.64

>  <JGI1>
0.13

>  <JGI2>
0.07

>  <JGI3>
0.05

>  <JGI4>
0.03

>  <JGI5>
0.03

>  <Diameter>
16

>  <Radius>
8

>  <TMWC10>
138.14

>  <TSRW10>
81.29

>  <MW>
383.23

>  <AMW>
6.72

>  <WPath>
2452

>  <WPol>
43

>  <Zagreb1>
156

>  <Zagreb2>
190

>  <mZagreb2>
6.06

>  <yes>


>  <nAR-cont>
0.199399

>  <nHA-cont>
0.82432561

>  <MWHBN>
0.306493664

>  <MWHBN-cont>
0.820913511

>  <TPSA-cont>
0.513869556

>  <pka_cont>
0.97

>  <yes.1>


>  <BBB_SCORE>
3.767833989

>  <MMFF94 Energy>
-23.067

$$$$
Compound 1889
Actelion Java MolfileCreator 2.0

  0  0  0  0  0  0              0 V3000
M  V30 BEGIN CTAB
M  V30 COUNTS 60 65 0 0 0
M  V30 BEGIN ATOM
M  V30 1 O 1.2931 1.1314 3.3971 0
M  V30 2 C 2.1828 0.3955 2.996 0
M  V30 3 N 2.4114 0.0196 1.7009 0
M  V30 4 C 3.202 -0.2636 3.8856 0 CFG=2
M  V30 5 C 3.4751 -0.8279 1.5575 0
M  V30 6 C 1.6034 0.4786 0.5865 0
M  V30 7 C 4.0789 0.7508 4.6645 0 CFG=2
M  V30 8 C 4.0776 -1.0923 2.9111 0 CFG=1
M  V30 9 O 3.8829 -1.3198 0.5157 0
M  V30 10 C 0.4185 -0.4561 0.3404 0
M  V30 11 C 4.8656 1.5711 3.6559 0
M  V30 12 C 5.0821 -0.1257 5.4695 0 CFG=2
M  V30 13 C 5.5606 -0.6513 3.0151 0 CFG=1
M  V30 14 C -0.4469 0.0391 -0.8201 0
M  V30 15 C 5.6242 0.8532 2.8114 0
M  V30 16 C 6.3894 0.4652 5.9694 0
M  V30 17 C 5.9662 -0.9622 4.4854 0 CFG=1
M  V30 18 C -1.6313 -0.904 -1.0668 0
M  V30 19 C 7.1511 -0.2554 5.1215 0
M  V30 20 N -2.4168 -0.5248 -2.2519 0
M  V30 21 C -3.2084 0.7075 -2.0251 0
M  V30 22 C -3.3597 -1.6152 -2.6011 0
M  V30 23 C -4.083 1.109 -3.2356 0
M  V30 24 C -4.2324 -1.303 -3.8363 0
M  V30 25 N -4.8988 -0.0101 -3.7007 0
M  V30 26 C -5.935 0.2708 -4.5703 0
M  V30 27 N -6.3564 1.5425 -4.6916 0
M  V30 28 N -6.4989 -0.738 -5.2586 0
M  V30 29 C -7.3755 1.7919 -5.5352 0
M  V30 30 C -7.5151 -0.4433 -6.091 0
M  V30 31 C -8.0027 0.8234 -6.2725 0
M  V30 32 H 2.6747 -0.9345 4.5751 0
M  V30 33 H 1.2416 1.489 0.8082 0
M  V30 34 H 2.2324 0.5273 -0.3093 0
M  V30 35 H 3.4865 1.3959 5.3207 0
M  V30 36 H 3.9714 -2.1615 3.1323 0
M  V30 37 H -0.1905 -0.5292 1.2501 0
M  V30 38 H 0.7861 -1.4672 0.1262 0
M  V30 39 H 4.8238 2.6543 3.6481 0
M  V30 40 H 4.5533 -0.7395 6.2122 0
M  V30 41 H 6.2017 -1.1734 2.2983 0
M  V30 42 H -0.8012 1.0494 -0.5876 0
M  V30 43 H 0.165 0.1084 -1.7279 0
M  V30 44 H 6.2573 1.2975 2.052 0
M  V30 45 H 6.6135 1.2071 6.7309 0
M  V30 46 H 5.9317 -2.0437 4.6781 0
M  V30 47 H -1.2201 -1.91 -1.2224 0
M  V30 48 H -2.2662 -0.9563 -0.1728 0
M  V30 49 H 8.2208 -0.3136 4.9415 0
M  V30 50 H -3.8586 0.5791 -1.1489 0
M  V30 51 H -2.5435 1.5518 -1.8147 0
M  V30 52 H -2.7969 -2.5326 -2.8127 0
M  V30 53 H -4.0184 -1.8278 -1.7477 0
M  V30 54 H -3.4369 1.4552 -4.0526 0
M  V30 55 H -4.7042 1.955 -2.9167 0
M  V30 56 H -4.9562 -2.1215 -3.9343 0
M  V30 57 H -3.6044 -1.2993 -4.7363 0
M  V30 58 H -7.6788 2.8325 -5.5973 0
M  V30 59 H -7.9363 -1.2909 -6.6226 0
M  V30 60 H -8.8195 1.0414 -6.9442 0
M  V30 END ATOM
M  V30 BEGIN BOND
M  V30 1 2 1 2
M  V30 2 1 2 3
M  V30 3 1 2 4
M  V30 4 1 3 5
M  V30 5 1 3 6
M  V30 6 1 4 7
M  V30 7 1 4 8
M  V30 8 2 5 9
M  V30 9 1 6 10
M  V30 10 1 7 11
M  V30 11 1 7 12
M  V30 12 1 8 13
M  V30 13 1 10 14
M  V30 14 2 11 15
M  V30 15 1 12 16
M  V30 16 1 12 17
M  V30 17 1 14 18
M  V30 18 2 16 19
M  V30 19 1 18 20
M  V30 20 1 20 21
M  V30 21 1 20 22
M  V30 22 1 21 23
M  V30 23 1 22 24
M  V30 24 1 23 25
M  V30 25 1 25 26
M  V30 26 2 26 27
M  V30 27 1 26 28
M  V30 28 1 27 29
M  V30 29 2 28 30
M  V30 30 2 29 31
M  V30 31 1 5 8
M  V30 32 1 13 15
M  V30 33 1 13 17
M  V30 34 1 17 19
M  V30 35 1 24 25
M  V30 36 1 30 31
M  V30 37 1 4 32
M  V30 38 1 6 33
M  V30 39 1 6 34
M  V30 40 1 7 35
M  V30 41 1 8 36
M  V30 42 1 10 37
M  V30 43 1 10 38
M  V30 44 1 11 39
M  V30 45 1 12 40
M  V30 46 1 13 41
M  V30 47 1 14 42
M  V30 48 1 14 43
M  V30 49 1 15 44
M  V30 50 1 16 45
M  V30 51 1 17 46
M  V30 52 1 18 47
M  V30 53 1 18 48
M  V30 54 1 19 49
M  V30 55 1 21 50
M  V30 56 1 21 51
M  V30 57 1 22 52
M  V30 58 1 22 53
M  V30 59 1 23 54
M  V30 60 1 23 55
M  V30 61 1 24 56
M  V30 62 1 24 57
M  V30 63 1 29 58
M  V30 64 1 30 59
M  V30 65 1 31 60
M  V30 END BOND
M  V30 BEGIN COLLECTION
M  V30 MDLV30/STEABS ATOMS=(6 4 7 8 12 13 17)
M  V30 END COLLECTION
M  V30 END CTAB
M  END
>  <Column 1>
2300

>  <level_0>
2481

>  <index>
2481

>  <Unnamed: 0>
2481

>  <NO.>
2493

>  <Name>
zalospirone

>  <IUPAC_name>
(1s-2s-6r-7r-8r-11s)-4-[4-(4-pyrimidin-2-ylpiperazin-1-yl)butyl]-4-azatetracyclo[5.4.2.02-6.08-11]trideca-9-12-diene-3-5-dione

>  <SMILES>
O=C1[C@H]2[C@H]3C=C[C@H]([C@@H]4C=C[C@@H]43)[C@H]2C(=O)N1CCCCN1CCN(c2ncccn2)CC1

>  <CID>
163925

>  <logBB>


>  <BBB+/BBB->
BBB+

>  <Inchi>
InChI=1S/C24H29N5O2/c30-22-20-18-6-7-19(17-5-4-16(17)18)21(20)23(31)29(22)11-2-1-10-27-12-14-28(15-13-27)24-25-8-3-9-26-24/h3-9-16-21H-1-2-10-15H2/t16--17+-18--19+-20--21+

>  <threshold>
-1

>  <reference>
R1|R27|R30|

>  <group>
B

>  <Class>
1

>  <ABC>
25.23

>  <ABCGG>
17.93

>  <nAcid>
0

>  <nBase>
1

>  <nAromAtom>
6

>  <nAromBond>
6

>  <nAtom>
60

>  <nHeavyAtom>
31

>  <nSpiro>
0

>  <nBridgehead>
2

>  <nHetero>
7

>  <nN>
5

>  <nO>
2

>  <nF>
0

>  <BalabanJ>
0.95

>  <BertzCT>
883.16

>  <nBonds>
65

>  <nBondsO>
36

>  <nBondsS>
55

>  <nBondsD>
4

>  <nBondsT>
0

>  <nBondsA>
6

>  <nBondsM>
10

>  <nBondsKS>
58

>  <nBondsKD>
7

>  <RNCG>
0.14

>  <RPCG>
0.1

>  <FCSP3>
0.58

>  <SZ>
37.33

>  <Sm>
34.93

>  <Sv>
37.08

>  <Sse>
59.85

>  <Sp>
39.83

>  <Si>
67.89

>  <MZ>
0.62

>  <Mm>
0.58

>  <Mv>
0.62

>  <Mse>
1

>  <Mp>
0.66

>  <Mi>
1.13

>  <NsCH3>
0

>  <NdCH2>
0

>  <NssCH2>
8

>  <NtCH>
0

>  <NdsCH>
4

>  <NaaCH>
3

>  <NsssCH>
6

>  <NddC>
0

>  <NtsC>
0

>  <NdssC>
2

>  <NaasC>
1

>  <NaaaC>
0

>  <NssssC>
0

>  <NsNH3>
0

>  <NsNH2>
0

>  <NssNH2>
0

>  <NdNH>
0

>  <NssNH>
0

>  <NaaNH>
0

>  <NtN>
0

>  <NsssNH>
0

>  <NdsN>
0

>  <NaaN>
2

>  <NsssN>
3

>  <NddsN>
0

>  <NaasN>
0

>  <NssssN>
0

>  <NsOH>
0

>  <NdO>
2

>  <NssO>
0

>  <NaaO>
0

>  <NsF>
0

>  <NsSiH3>
0

>  <NssSiH2>
0

>  <NsssSiH>
0

>  <NssssSi>
0

>  <NsPH2>
0

>  <NssPH>
0

>  <NsssP>
0

>  <NdsssP>
0

>  <NsssssP>
0

>  <NsSH>
0

>  <NdS>
0

>  <NssS>
0

>  <NaaS>
0

>  <NdssS>
0

>  <NddssS>
0

>  <NsCl>
0

>  <NsBr>
0

>  <NsI>
0

>  <fragCpx>
366.07

>  <fMF>
0.48

>  <nHBAcc>
6

>  <nHBDon>
0

>  <Kier1>
21.53

>  <Kier2>
8.98

>  <Lipinski>
1

>  <GhoseFilter>
1

>  <FilterItLogS>
-2.62

>  <VMcGowan>
315.4

>  <LabuteASA>
182.36

>  <PEOE_VSA1>
4.9

>  <PEOE_VSA2>
19.39

>  <PEOE_VSA3>
9.97

>  <PEOE_VSA4>
0

>  <PEOE_VSA5>
0

>  <PEOE_VSA6>
24.3

>  <PEOE_VSA7>
49.12

>  <PEOE_VSA8>
45.12

>  <PEOE_VSA9>
11.84

>  <PEOE_VSA10>
0

>  <PEOE_VSA11>
0

>  <PEOE_VSA12>
17.76

>  <PEOE_VSA13>
0

>  <SMR_VSA1>
9.59

>  <SMR_VSA2>
0

>  <SMR_VSA3>
19.77

>  <SMR_VSA4>
35.51

>  <SMR_VSA5>
12.84

>  <SMR_VSA6>
44.17

>  <SMR_VSA7>
42.76

>  <SMR_VSA8>
0

>  <SMR_VSA9>
0

>  <SlogP_VSA1>
4.9

>  <SlogP_VSA2>
70.85

>  <SlogP_VSA3>
9.59

>  <SlogP_VSA4>
35.51

>  <SlogP_VSA5>
12.84

>  <SlogP_VSA6>
42.76

>  <SlogP_VSA7>
0

>  <SlogP_VSA8>
0

>  <SlogP_VSA9>
0

>  <SlogP_VSA10>
5.95

>  <SlogP_VSA11>
0

>  <EState_VSA1>
0

>  <EState_VSA2>
35.49

>  <EState_VSA3>
18.38

>  <EState_VSA4>
51.51

>  <EState_VSA5>
0

>  <EState_VSA6>
17.29

>  <EState_VSA7>
6.07

>  <EState_VSA8>
44.07

>  <EState_VSA9>
0

>  <EState_VSA10>
9.59

>  <VSA_EState1>
0

>  <VSA_EState2>
41.16

>  <VSA_EState3>
0

>  <VSA_EState4>
0

>  <VSA_EState5>
2.19

>  <VSA_EState6>
1.84

>  <VSA_EState7>
14.37

>  <VSA_EState8>
5.44

>  <VSA_EState9>
0

>  <apol>
66.52

>  <bpol>
38.24

>  <nRing>
7

>  <nHRing>
3

>  <naRing>
1

>  <naHRing>
1

>  <nARing 2>
6

>  <nAHRing 2>
2

>  <nFRing>
1

>  <nFHRing>
1

>  <nFaRing>
0

>  <nFaHRing>
0

>  <nFARing 2>
1

>  <nFAHRing 2>
1

>  <nRot>
6

>  <SLogP>
1.6

>  <SMR>
115.86

>  <TopoPSA(NO)>
69.64

>  <TopoPSA>
69.64

>  <JGI1>
0.11

>  <JGI2>
0.07

>  <JGI3>
0.05

>  <JGI4>
0.03

>  <JGI5>
0.03

>  <Diameter>
17

>  <Radius>
9

>  <TMWC10>
147.02

>  <TSRW10>
82.6

>  <MW>
419.23

>  <AMW>
6.99

>  <WPath>
3147

>  <WPol>
54

>  <Zagreb1>
178

>  <Zagreb2>
221

>  <mZagreb2>
6.64

>  <yes>


>  <nAR-cont>
0

>  <nHA-cont>
0.702745138

>  <MWHBN>
0.293038764

>  <MWHBN-cont>
0.861026072

>  <TPSA-cont>
0.513869556

>  <pka_cont>
0.97

>  <yes.1>


>  <BBB_SCORE>
3.507023358

>  <MMFF94 Energy>
-4.9307

$$$$
Compound 1890
Actelion Java MolfileCreator 2.0

  0  0  0  0  0  0              0 V3000
M  V30 BEGIN CTAB
M  V30 COUNTS 51 54 0 0 0
M  V30 BEGIN ATOM
M  V30 1 S 3.9719 1.2146 0.4047 0
M  V30 2 O 2.7936 1.783 -0.2044 0
M  V30 3 O 4.7542 1.8909 1.4123 0
M  V30 4 N 3.637 -0.3487 0.9233 0
M  V30 5 C 5.042 0.6689 -0.8529 0
M  V30 6 C 4.3214 -1.3512 0.2028 0
M  V30 7 C 2.71 -0.5507 2.0345 0
M  V30 8 C 5.1394 -0.7162 -0.8475 0
M  V30 9 C 5.7237 1.4628 -1.7568 0
M  V30 10 O 4.2547 -2.5477 0.4104 0
M  V30 11 C 1.3643 -1.0478 1.5138 0
M  V30 12 C 5.9437 -1.368 -1.7691 0
M  V30 13 C 6.5364 0.8145 -2.6894 0
M  V30 14 C 0.3632 -1.2296 2.6578 0
M  V30 15 C 6.6461 -0.5891 -2.6957 0
M  V30 16 C -0.9788 -1.8157 2.1953 0
M  V30 17 N -1.6424 -1.0461 1.1332 0
M  V30 18 C -2.8143 -1.7948 0.6204 0
M  V30 19 C -2.1104 0.2769 1.607 0
M  V30 20 C -3.5719 -1.0568 -0.5049 0
M  V30 21 C -2.8479 1.0934 0.5203 0
M  V30 22 N -3.9086 0.3085 -0.1086 0
M  V30 23 C -4.8396 0.9862 -0.8719 0
M  V30 24 N -5.6226 0.2889 -1.7149 0
M  V30 25 N -4.9447 2.3206 -0.7375 0
M  V30 26 C -6.531 0.9683 -2.4401 0
M  V30 27 C -5.8663 2.9598 -1.4823 0
M  V30 28 C -6.6998 2.3253 -2.3642 0
M  V30 29 H 3.1441 -1.2739 2.7346 0
M  V30 30 H 2.5768 0.3823 2.5943 0
M  V30 31 H 5.6312 2.5445 -1.7431 0
M  V30 32 H 1.4971 -2.0005 0.9868 0
M  V30 33 H 0.9728 -0.3334 0.7798 0
M  V30 34 H 6.0254 -2.4514 -1.7724 0
M  V30 35 H 7.0921 1.399 -3.421 0
M  V30 36 H 0.7913 -1.9107 3.4044 0
M  V30 37 H 0.2064 -0.2741 3.1717 0
M  V30 38 H 7.2853 -1.0733 -3.4323 0
M  V30 39 H -0.7759 -2.8295 1.8256 0
M  V30 40 H -1.6388 -1.9274 3.0656 0
M  V30 41 H -3.5153 -2.0005 1.4413 0
M  V30 42 H -2.4858 -2.7635 0.2241 0
M  V30 43 H -2.7806 0.1501 2.4683 0
M  V30 44 H -1.2604 0.8808 1.9427 0
M  V30 45 H -4.4703 -1.6455 -0.728 0
M  V30 46 H -2.9511 -1.0337 -1.4098 0
M  V30 47 H -3.2463 1.9916 1.0081 0
M  V30 48 H -2.129 1.4161 -0.2438 0
M  V30 49 H -7.1377 0.3612 -3.1048 0
M  V30 50 H -5.9109 4.0348 -1.3379 0
M  V30 51 H -7.4341 2.854 -2.9535 0
M  V30 END ATOM
M  V30 BEGIN BOND
M  V30 1 2 1 2
M  V30 2 2 1 3
M  V30 3 1 1 4
M  V30 4 1 1 5
M  V30 5 1 4 6
M  V30 6 1 4 7
M  V30 7 2 5 8
M  V30 8 1 5 9
M  V30 9 2 6 10
M  V30 10 1 7 11
M  V30 11 1 8 12
M  V30 12 2 9 13
M  V30 13 1 11 14
M  V30 14 2 12 15
M  V30 15 1 14 16
M  V30 16 1 16 17
M  V30 17 1 17 18
M  V30 18 1 17 19
M  V30 19 1 18 20
M  V30 20 1 19 21
M  V30 21 1 20 22
M  V30 22 1 22 23
M  V30 23 2 23 24
M  V30 24 1 23 25
M  V30 25 1 24 26
M  V30 26 2 25 27
M  V30 27 2 26 28
M  V30 28 1 6 8
M  V30 29 1 13 15
M  V30 30 1 21 22
M  V30 31 1 27 28
M  V30 32 1 7 29
M  V30 33 1 7 30
M  V30 34 1 9 31
M  V30 35 1 11 32
M  V30 36 1 11 33
M  V30 37 1 12 34
M  V30 38 1 13 35
M  V30 39 1 14 36
M  V30 40 1 14 37
M  V30 41 1 15 38
M  V30 42 1 16 39
M  V30 43 1 16 40
M  V30 44 1 18 41
M  V30 45 1 18 42
M  V30 46 1 19 43
M  V30 47 1 19 44
M  V30 48 1 20 45
M  V30 49 1 20 46
M  V30 50 1 21 47
M  V30 51 1 21 48
M  V30 52 1 26 49
M  V30 53 1 27 50
M  V30 54 1 28 51
M  V30 END BOND
M  V30 END CTAB
M  END
>  <Column 1>
2301

>  <level_0>
2482

>  <index>
2482

>  <Unnamed: 0>
2482

>  <NO.>
2494

>  <Name>
ipsapirone

>  <IUPAC_name>
1-1-dioxo-2-[4-(4-pyrimidin-2-ylpiperazin-1-yl)butyl]-1-2-benzothiazol-3-one

>  <SMILES>
O=C1c2ccccc2S(=O)(=O)N1CCCCN1CCN(c2ncccn2)CC1

>  <CID>
56971

>  <logBB>


>  <BBB+/BBB->
BBB+

>  <Inchi>
InChI=1S/C19H23N5O3S/c25-18-16-6-1-2-7-17(16)28(26-27)24(18)11-4-3-10-22-12-14-23(15-13-22)19-20-8-5-9-21-19/h1-2-5-9H-3-4-10-15H2

>  <threshold>
-1

>  <reference>
R1|R13|R19|R6|R24|R27|R27|R27|R30|R30|

>  <group>
B

>  <Class>
1

>  <ABC>
22.06

>  <ABCGG>
16.37

>  <nAcid>
0

>  <nBase>
1

>  <nAromAtom>
12

>  <nAromBond>
12

>  <nAtom>
51

>  <nHeavyAtom>
28

>  <nSpiro>
0

>  <nBridgehead>
0

>  <nHetero>
9

>  <nN>
5

>  <nO>
3

>  <nF>
0

>  <BalabanJ>
1.16

>  <BertzCT>
943.05

>  <nBonds>
54

>  <nBondsO>
31

>  <nBondsS>
39

>  <nBondsD>
3

>  <nBondsT>
0

>  <nBondsA>
12

>  <nBondsM>
15

>  <nBondsKS>
45

>  <nBondsKD>
9

>  <RNCG>
0.15

>  <RPCG>
0.12

>  <FCSP3>
0.42

>  <SZ>
35.33

>  <Sm>
33.43

>  <Sv>
32.35

>  <Sse>
51.59

>  <Sp>
34.65

>  <Si>
57.78

>  <MZ>
0.69

>  <Mm>
0.66

>  <Mv>
0.63

>  <Mse>
1.01

>  <Mp>
0.68

>  <Mi>
1.13

>  <NsCH3>
0

>  <NdCH2>
0

>  <NssCH2>
8

>  <NtCH>
0

>  <NdsCH>
0

>  <NaaCH>
7

>  <NsssCH>
0

>  <NddC>
0

>  <NtsC>
0

>  <NdssC>
1

>  <NaasC>
3

>  <NaaaC>
0

>  <NssssC>
0

>  <NsNH3>
0

>  <NsNH2>
0

>  <NssNH2>
0

>  <NdNH>
0

>  <NssNH>
0

>  <NaaNH>
0

>  <NtN>
0

>  <NsssNH>
0

>  <NdsN>
0

>  <NaaN>
2

>  <NsssN>
3

>  <NddsN>
0

>  <NaasN>
0

>  <NssssN>
0

>  <NsOH>
0

>  <NdO>
3

>  <NssO>
0

>  <NaaO>
0

>  <NsF>
0

>  <NsSiH3>
0

>  <NssSiH2>
0

>  <NsssSiH>
0

>  <NssssSi>
0

>  <NsPH2>
0

>  <NssPH>
0

>  <NsssP>
0

>  <NdsssP>
0

>  <NsssssP>
0

>  <NsSH>
0

>  <NdS>
0

>  <NssS>
0

>  <NaaS>
0

>  <NdssS>
0

>  <NddssS>
1

>  <NsCl>
0

>  <NsBr>
0

>  <NsI>
0

>  <fragCpx>
205.09

>  <fMF>
0.49

>  <nHBAcc>
7

>  <nHBDon>
0

>  <Kier1>
21.24

>  <Kier2>
9.43

>  <Lipinski>
1

>  <GhoseFilter>
1

>  <FilterItLogS>
-3.85

>  <VMcGowan>
288.89

>  <LabuteASA>
164.4

>  <PEOE_VSA1>
4.9

>  <PEOE_VSA2>
9.69

>  <PEOE_VSA3>
22.69

>  <PEOE_VSA4>
0

>  <PEOE_VSA5>
0

>  <PEOE_VSA6>
12.13

>  <PEOE_VSA7>
37.59

>  <PEOE_VSA8>
45.12

>  <PEOE_VSA9>
5.56

>  <PEOE_VSA10>
4.9

>  <PEOE_VSA11>
0

>  <PEOE_VSA12>
5.95

>  <PEOE_VSA13>
15.93

>  <SMR_VSA1>
13.21

>  <SMR_VSA2>
0

>  <SMR_VSA3>
19.17

>  <SMR_VSA4>
0

>  <SMR_VSA5>
17.74

>  <SMR_VSA6>
44.17

>  <SMR_VSA7>
48.29

>  <SMR_VSA8>
0

>  <SMR_VSA9>
0

>  <SlogP_VSA1>
4.9

>  <SlogP_VSA2>
72.77

>  <SlogP_VSA3>
10.02

>  <SlogP_VSA4>
0

>  <SlogP_VSA5>
23.2

>  <SlogP_VSA6>
47.62

>  <SlogP_VSA7>
0

>  <SlogP_VSA8>
0

>  <SlogP_VSA9>
0

>  <SlogP_VSA10>
5.95

>  <SlogP_VSA11>
0

>  <EState_VSA1>
15.93

>  <EState_VSA2>
17

>  <EState_VSA3>
6.42

>  <EState_VSA4>
49.4

>  <EState_VSA5>
6.07

>  <EState_VSA6>
30.59

>  <EState_VSA7>
6.07

>  <EState_VSA8>
19.77

>  <EState_VSA9>
0

>  <EState_VSA10>
13.21

>  <VSA_EState1>
26.09

>  <VSA_EState2>
25.62

>  <VSA_EState3>
0

>  <VSA_EState4>
0.28

>  <VSA_EState5>
0.35

>  <VSA_EState6>
8.22

>  <VSA_EState7>
5

>  <VSA_EState8>
4.71

>  <VSA_EState9>
-3.69

>  <apol>
57.87

>  <bpol>
38.01

>  <nRing>
4

>  <nHRing>
3

>  <naRing>
2

>  <naHRing>
1

>  <nARing 2>
2

>  <nAHRing 2>
2

>  <nFRing>
1

>  <nFHRing>
1

>  <nFaRing>
0

>  <nFaHRing>
0

>  <nFARing 2>
1

>  <nFAHRing 2>
1

>  <nRot>
6

>  <SLogP>
1.22

>  <SMR>
104.58

>  <TopoPSA(NO)>
86.71

>  <TopoPSA>
95.09

>  <JGI1>
0.16

>  <JGI2>
0.09

>  <JGI3>
0.07

>  <JGI4>
0.03

>  <JGI5>
0.03

>  <Diameter>
16

>  <Radius>
8

>  <TMWC10>
136.19

>  <TSRW10>
78.45

>  <MW>
401.15

>  <AMW>
7.87

>  <WPath>
2426

>  <WPol>
46

>  <Zagreb1>
150

>  <Zagreb2>
179

>  <mZagreb2>
6.11

>  <yes>


>  <nAR-cont>
1

>  <nHA-cont>
0.82432561

>  <MWHBN>
0.349497957

>  <MWHBN-cont>
0.672126946

>  <TPSA-cont>
0.336212753

>  <pka_cont>
0.97

>  <yes.1>


>  <BBB_SCORE>
3.989941535

>  <MMFF94 Energy>
-69.295

$$$$
Compound 1891
Actelion Java MolfileCreator 2.0

  0  0  0  0  0  0              0 V3000
M  V30 BEGIN CTAB
M  V30 COUNTS 48 51 0 0 0
M  V30 BEGIN ATOM
M  V30 1 S -1.2176 3.7375 -2.355 0
M  V30 2 O -0.3554 4.6056 -3.1209 0
M  V30 3 O -1.6812 2.4547 -2.8269 0
M  V30 4 N -0.5911 3.5665 -0.8044 0
M  V30 5 C -2.586 4.6574 -1.8027 0
M  V30 6 C -1.3623 4.194 0.1981 0
M  V30 7 C 0.6446 2.81 -0.6081 0
M  V30 8 C -2.5393 4.8277 -0.4252 0
M  V30 9 C -3.6049 5.1693 -2.585 0
M  V30 10 O -1.1022 4.2148 1.3857 0
M  V30 11 C 0.3291 1.3948 -0.1298 0
M  V30 12 C -3.5357 5.5342 0.2302 0
M  V30 13 C -4.6132 5.8826 -1.9329 0
M  V30 14 C 1.6181 0.5857 0.055 0
M  V30 15 C -4.5794 6.0639 -0.5369 0
M  V30 16 N 1.3776 -0.7493 0.6258 0
M  V30 17 C 2.6655 -1.3702 1.0198 0
M  V30 18 C 0.7074 -1.6561 -0.3365 0
M  V30 19 C 2.5087 -2.7802 1.63 0
M  V30 20 C 0.4817 -3.0829 0.2153 0
M  V30 21 N 1.7139 -3.6461 0.7627 0
M  V30 22 C 1.7401 -5.004 1.0158 0
M  V30 23 N 2.7151 -5.5018 1.7977 0
M  V30 24 N 0.7978 -5.7879 0.4617 0
M  V30 25 C 2.729 -6.8294 2.0207 0
M  V30 26 C 0.8497 -7.1098 0.7111 0
M  V30 27 C 1.8072 -7.6955 1.4956 0
M  V30 28 H 1.2193 2.7762 -1.5409 0
M  V30 29 H 1.2715 3.3344 0.1224 0
M  V30 30 H -3.6214 5.0236 -3.6607 0
M  V30 31 H -0.3296 0.9105 -0.8586 0
M  V30 32 H -0.2222 1.4376 0.8179 0
M  V30 33 H -3.5073 5.6719 1.3077 0
M  V30 34 H -5.4362 6.3042 -2.5081 0
M  V30 35 H 2.1573 0.5129 -0.8984 0
M  V30 36 H 2.2629 1.1506 0.7412 0
M  V30 37 H -5.3765 6.6233 -0.0495 0
M  V30 38 H 3.3317 -1.4343 0.1484 0
M  V30 39 H 3.1649 -0.7374 1.7638 0
M  V30 40 H -0.2755 -1.2587 -0.6105 0
M  V30 41 H 1.2996 -1.7254 -1.2591 0
M  V30 42 H 2.0259 -2.7021 2.6127 0
M  V30 43 H 3.5191 -3.179 1.7823 0
M  V30 44 H 0.0941 -3.6899 -0.612 0
M  V30 45 H -0.2863 -3.0528 0.9991 0
M  V30 46 H 3.535 -7.1817 2.6569 0
M  V30 47 H 0.0683 -7.6988 0.2409 0
M  V30 48 H 1.834 -8.7582 1.6846 0
M  V30 END ATOM
M  V30 BEGIN BOND
M  V30 1 2 1 2
M  V30 2 2 1 3
M  V30 3 1 1 4
M  V30 4 1 1 5
M  V30 5 1 4 6
M  V30 6 1 4 7
M  V30 7 2 5 8
M  V30 8 1 5 9
M  V30 9 2 6 10
M  V30 10 1 7 11
M  V30 11 1 8 12
M  V30 12 2 9 13
M  V30 13 1 11 14
M  V30 14 2 12 15
M  V30 15 1 14 16
M  V30 16 1 16 17
M  V30 17 1 16 18
M  V30 18 1 17 19
M  V30 19 1 18 20
M  V30 20 1 19 21
M  V30 21 1 21 22
M  V30 22 2 22 23
M  V30 23 1 22 24
M  V30 24 1 23 25
M  V30 25 2 24 26
M  V30 26 2 25 27
M  V30 27 1 6 8
M  V30 28 1 13 15
M  V30 29 1 20 21
M  V30 30 1 26 27
M  V30 31 1 7 28
M  V30 32 1 7 29
M  V30 33 1 9 30
M  V30 34 1 11 31
M  V30 35 1 11 32
M  V30 36 1 12 33
M  V30 37 1 13 34
M  V30 38 1 14 35
M  V30 39 1 14 36
M  V30 40 1 15 37
M  V30 41 1 17 38
M  V30 42 1 17 39
M  V30 43 1 18 40
M  V30 44 1 18 41
M  V30 45 1 19 42
M  V30 46 1 19 43
M  V30 47 1 20 44
M  V30 48 1 20 45
M  V30 49 1 25 46
M  V30 50 1 26 47
M  V30 51 1 27 48
M  V30 END BOND
M  V30 END CTAB
M  END
>  <Column 1>
2302

>  <level_0>
2483

>  <index>
2483

>  <Unnamed: 0>
2483

>  <NO.>
2495

>  <Name>
revospirone

>  <IUPAC_name>
1-1-dioxo-2-[3-(4-pyrimidin-2-ylpiperazin-1-yl)propyl]-1-2-benzothiazol-3-one

>  <SMILES>
O=C1c2ccccc2S(=O)(=O)N1CCCN1CCN(c2ncccn2)CC1

>  <CID>
72024

>  <logBB>


>  <BBB+/BBB->
BBB+

>  <Inchi>
InChI=1S/C18H21N5O3S/c24-17-15-5-1-2-6-16(15)27(25-26)23(17)10-4-9-21-11-13-22(14-12-21)18-19-7-3-8-20-18/h1-3-5-8H-4-9-14H2

>  <threshold>
-1

>  <reference>
R1|R13|R19|R6|R24|R27|R27|R27|R30|R30|

>  <group>
B

>  <Class>
1

>  <ABC>
21.36

>  <ABCGG>
16.05

>  <nAcid>
0

>  <nBase>
1

>  <nAromAtom>
12

>  <nAromBond>
12

>  <nAtom>
48

>  <nHeavyAtom>
27

>  <nSpiro>
0

>  <nBridgehead>
0

>  <nHetero>
9

>  <nN>
5

>  <nO>
3

>  <nF>
0

>  <BalabanJ>
1.21

>  <BertzCT>
927.02

>  <nBonds>
51

>  <nBondsO>
30

>  <nBondsS>
36

>  <nBondsD>
3

>  <nBondsT>
0

>  <nBondsA>
12

>  <nBondsM>
15

>  <nBondsKS>
42

>  <nBondsKD>
9

>  <RNCG>
0.15

>  <RPCG>
0.12

>  <FCSP3>
0.39

>  <SZ>
34

>  <Sm>
32.26

>  <Sv>
30.81

>  <Sse>
48.71

>  <Sp>
32.86

>  <Si>
54.36

>  <MZ>
0.71

>  <Mm>
0.67

>  <Mv>
0.64

>  <Mse>
1.01

>  <Mp>
0.68

>  <Mi>
1.13

>  <NsCH3>
0

>  <NdCH2>
0

>  <NssCH2>
7

>  <NtCH>
0

>  <NdsCH>
0

>  <NaaCH>
7

>  <NsssCH>
0

>  <NddC>
0

>  <NtsC>
0

>  <NdssC>
1

>  <NaasC>
3

>  <NaaaC>
0

>  <NssssC>
0

>  <NsNH3>
0

>  <NsNH2>
0

>  <NssNH2>
0

>  <NdNH>
0

>  <NssNH>
0

>  <NaaNH>
0

>  <NtN>
0

>  <NsssNH>
0

>  <NdsN>
0

>  <NaaN>
2

>  <NsssN>
3

>  <NddsN>
0

>  <NaasN>
0

>  <NssssN>
0

>  <NsOH>
0

>  <NdO>
3

>  <NssO>
0

>  <NaaO>
0

>  <NsF>
0

>  <NsSiH3>
0

>  <NssSiH2>
0

>  <NsssSiH>
0

>  <NssssSi>
0

>  <NsPH2>
0

>  <NssPH>
0

>  <NsssP>
0

>  <NdsssP>
0

>  <NsssssP>
0

>  <NsSH>
0

>  <NdS>
0

>  <NssS>
0

>  <NaaS>
0

>  <NdssS>
0

>  <NddssS>
1

>  <NsCl>
0

>  <NsBr>
0

>  <NsI>
0

>  <fragCpx>
198.09

>  <fMF>
0.5

>  <nHBAcc>
7

>  <nHBDon>
0

>  <Kier1>
20.28

>  <Kier2>
8.79

>  <Lipinski>
1

>  <GhoseFilter>
1

>  <FilterItLogS>
-3.46

>  <VMcGowan>
274.8

>  <LabuteASA>
158.04

>  <PEOE_VSA1>
4.9

>  <PEOE_VSA2>
9.69

>  <PEOE_VSA3>
22.69

>  <PEOE_VSA4>
0

>  <PEOE_VSA5>
0

>  <PEOE_VSA6>
12.13

>  <PEOE_VSA7>
24.62

>  <PEOE_VSA8>
51.66

>  <PEOE_VSA9>
5.56

>  <PEOE_VSA10>
4.9

>  <PEOE_VSA11>
0

>  <PEOE_VSA12>
5.95

>  <PEOE_VSA13>
15.93

>  <SMR_VSA1>
13.21

>  <SMR_VSA2>
0

>  <SMR_VSA3>
19.17

>  <SMR_VSA4>
0

>  <SMR_VSA5>
11.32

>  <SMR_VSA6>
44.17

>  <SMR_VSA7>
48.29

>  <SMR_VSA8>
0

>  <SMR_VSA9>
0

>  <SlogP_VSA1>
4.9

>  <SlogP_VSA2>
72.77

>  <SlogP_VSA3>
10.02

>  <SlogP_VSA4>
0

>  <SlogP_VSA5>
16.78

>  <SlogP_VSA6>
47.62

>  <SlogP_VSA7>
0

>  <SlogP_VSA8>
0

>  <SlogP_VSA9>
0

>  <SlogP_VSA10>
5.95

>  <SlogP_VSA11>
0

>  <EState_VSA1>
15.93

>  <EState_VSA2>
17

>  <EState_VSA3>
6.42

>  <EState_VSA4>
42.98

>  <EState_VSA5>
6.07

>  <EState_VSA6>
36.66

>  <EState_VSA7>
0

>  <EState_VSA8>
19.77

>  <EState_VSA9>
0

>  <EState_VSA10>
13.21

>  <VSA_EState1>
26.1

>  <VSA_EState2>
25.48

>  <VSA_EState3>
0

>  <VSA_EState4>
0.27

>  <VSA_EState5>
0.32

>  <VSA_EState6>
8.19

>  <VSA_EState7>
4.08

>  <VSA_EState8>
4.34

>  <VSA_EState9>
-3.7

>  <apol>
54.87

>  <bpol>
36

>  <nRing>
4

>  <nHRing>
3

>  <naRing>
2

>  <naHRing>
1

>  <nARing 2>
2

>  <nAHRing 2>
2

>  <nFRing>
1

>  <nFHRing>
1

>  <nFaRing>
0

>  <nFaHRing>
0

>  <nFARing 2>
1

>  <nFAHRing 2>
1

>  <nRot>
5

>  <SLogP>
0.83

>  <SMR>
99.97

>  <TopoPSA(NO)>
86.71

>  <TopoPSA>
95.09

>  <JGI1>
0.17

>  <JGI2>
0.09

>  <JGI3>
0.07

>  <JGI4>
0.03

>  <JGI5>
0.03

>  <Diameter>
15

>  <Radius>
8

>  <TMWC10>
134.07

>  <TSRW10>
77.36

>  <MW>
387.14

>  <AMW>
8.07

>  <WPath>
2112

>  <WPol>
45

>  <Zagreb1>
146

>  <Zagreb2>
175

>  <mZagreb2>
5.86

>  <yes>


>  <nAR-cont>
1

>  <nHA-cont>
0.860070871

>  <MWHBN>
0.355765653

>  <MWHBN-cont>
0.648541038

>  <TPSA-cont>
0.336212753

>  <pka_cont>
0.97

>  <yes.1>


>  <BBB_SCORE>
3.990307934

>  <MMFF94 Energy>
-67.864

$$$$
Compound 1892
Actelion Java MolfileCreator 2.0

  0  0  0  0  0  0              0 V3000
M  V30 BEGIN CTAB
M  V30 COUNTS 31 31 0 0 0
M  V30 BEGIN ATOM
M  V30 1 Cl 4.0772 0.2394 2.5567 0
M  V30 2 C 4.4486 -1.0168 1.3521 0
M  V30 3 C 3.2084 -1.8008 0.9301 0
M  V30 4 N 2.2186 -0.9865 0.2285 0
M  V30 5 N 2.6184 -0.5787 -1.1642 0
M  V30 6 C 1.02 -0.6693 0.8668 0
M  V30 7 O 1.7738 0.06 -1.7952 0
M  V30 8 O 0.7353 -1.1067 1.9836 0
M  V30 9 N 0.1597 0.1609 0.1987 0
M  V30 10 C -1.1382 0.5613 0.7243 0
M  V30 11 C -1.5425 1.9399 0.1861 0
M  V30 12 C -2.207 -0.4938 0.4088 0
M  V30 13 C -1.9398 1.9111 -1.29 0
M  V30 14 C -2.5809 -0.5216 -1.0726 0
M  V30 15 C -3.0056 0.8565 -1.5694 0
M  V30 16 H 4.9244 -0.5232 0.4996 0
M  V30 17 H 5.1808 -1.6919 1.8051 0
M  V30 18 H 3.5053 -2.611 0.2527 0
M  V30 19 H 2.7609 -2.2812 1.8073 0
M  V30 20 H 0.4165 0.4397 -0.7389 0
M  V30 21 H -1.0387 0.6351 1.8144 0
M  V30 22 H -2.3953 2.3102 0.7696 0
M  V30 23 H -0.7258 2.6578 0.3283 0
M  V30 24 H -3.1081 -0.2723 0.9951 0
M  V30 25 H -1.8679 -1.4903 0.7154 0
M  V30 26 H -2.3143 2.8977 -1.5864 0
M  V30 27 H -1.0575 1.7118 -1.9095 0
M  V30 28 H -1.7289 -0.8785 -1.6637 0
M  V30 29 H -3.3972 -1.2355 -1.2305 0
M  V30 30 H -3.2091 0.8143 -2.6453 0
M  V30 31 H -3.9428 1.1474 -1.079 0
M  V30 END ATOM
M  V30 BEGIN BOND
M  V30 1 1 1 2
M  V30 2 1 2 3
M  V30 3 1 3 4
M  V30 4 1 4 5
M  V30 5 1 4 6
M  V30 6 2 5 7
M  V30 7 2 6 8
M  V30 8 1 6 9
M  V30 9 1 9 10
M  V30 10 1 10 11
M  V30 11 1 10 12
M  V30 12 1 11 13
M  V30 13 1 12 14
M  V30 14 1 13 15
M  V30 15 1 14 15
M  V30 16 1 2 16
M  V30 17 1 2 17
M  V30 18 1 3 18
M  V30 19 1 3 19
M  V30 20 1 9 20
M  V30 21 1 10 21
M  V30 22 1 11 22
M  V30 23 1 11 23
M  V30 24 1 12 24
M  V30 25 1 12 25
M  V30 26 1 13 26
M  V30 27 1 13 27
M  V30 28 1 14 28
M  V30 29 1 14 29
M  V30 30 1 15 30
M  V30 31 1 15 31
M  V30 END BOND
M  V30 END CTAB
M  END
>  <Column 1>
2303

>  <level_0>
2484

>  <index>
2484

>  <Unnamed: 0>
2484

>  <NO.>
2496

>  <Name>
lomustine

>  <IUPAC_name>
1-(2-chloroethyl)-3-cyclohexyl-1-nitrosourea

>  <SMILES>
O=NN(CCCl)C(=O)NC1CCCCC1

>  <CID>
3950

>  <logBB>


>  <BBB+/BBB->
BBB+

>  <Inchi>
InChI=1S/C9H16ClN3O2/c10-6-7-13(12-15)9(14)11-8-4-2-1-3-5-8/h8H-1-7H2-(H-11-14)

>  <threshold>
-1

>  <reference>
R1|R19|R28|R9|R24|R27|R27|R30|R36|

>  <group>
B

>  <Class>
-1

>  <ABC>
10.68

>  <ABCGG>
9.97

>  <nAcid>
0

>  <nBase>
0

>  <nAromAtom>
0

>  <nAromBond>
0

>  <nAtom>
31

>  <nHeavyAtom>
15

>  <nSpiro>
0

>  <nBridgehead>
0

>  <nHetero>
6

>  <nN>
3

>  <nO>
2

>  <nF>
0

>  <BalabanJ>
2.27

>  <BertzCT>
219.4

>  <nBonds>
31

>  <nBondsO>
15

>  <nBondsS>
29

>  <nBondsD>
2

>  <nBondsT>
0

>  <nBondsA>
0

>  <nBondsM>
2

>  <nBondsKS>
29

>  <nBondsKD>
2

>  <RNCG>
0.27

>  <RPCG>
0.28

>  <FCSP3>
0.89

>  <SZ>
20.67

>  <Sm>
19.46

>  <Sv>
18.13

>  <Sse>
31.52

>  <Sp>
19.63

>  <Si>
35.76

>  <MZ>
0.67

>  <Mm>
0.63

>  <Mv>
0.58

>  <Mse>
1.02

>  <Mp>
0.63

>  <Mi>
1.15

>  <NsCH3>
0

>  <NdCH2>
0

>  <NssCH2>
7

>  <NtCH>
0

>  <NdsCH>
0

>  <NaaCH>
0

>  <NsssCH>
1

>  <NddC>
0

>  <NtsC>
0

>  <NdssC>
1

>  <NaasC>
0

>  <NaaaC>
0

>  <NssssC>
0

>  <NsNH3>
0

>  <NsNH2>
0

>  <NssNH2>
0

>  <NdNH>
0

>  <NssNH>
1

>  <NaaNH>
0

>  <NtN>
0

>  <NsssNH>
0

>  <NdsN>
1

>  <NaaN>
0

>  <NsssN>
1

>  <NddsN>
0

>  <NaasN>
0

>  <NssssN>
0

>  <NsOH>
0

>  <NdO>
2

>  <NssO>
0

>  <NaaO>
0

>  <NsF>
0

>  <NsSiH3>
0

>  <NssSiH2>
0

>  <NsssSiH>
0

>  <NssssSi>
0

>  <NsPH2>
0

>  <NssPH>
0

>  <NsssP>
0

>  <NdsssP>
0

>  <NsssssP>
0

>  <NsSH>
0

>  <NdS>
0

>  <NssS>
0

>  <NaaS>
0

>  <NdssS>
0

>  <NddssS>
0

>  <NsCl>
1

>  <NsBr>
0

>  <NsI>
0

>  <fragCpx>
15.06

>  <fMF>
0.19

>  <nHBAcc>
3

>  <nHBDon>
1

>  <Kier1>
13.07

>  <Kier2>
7.3

>  <Lipinski>
1

>  <GhoseFilter>
1

>  <FilterItLogS>
-2.04

>  <VMcGowan>
172.13

>  <LabuteASA>
94.09

>  <PEOE_VSA1>
5.32

>  <PEOE_VSA2>
0

>  <PEOE_VSA3>
4.79

>  <PEOE_VSA4>
5.01

>  <PEOE_VSA5>
16.51

>  <PEOE_VSA6>
19.26

>  <PEOE_VSA7>
12.84

>  <PEOE_VSA8>
11.92

>  <PEOE_VSA9>
11.83

>  <PEOE_VSA10>
0

>  <PEOE_VSA11>
0

>  <PEOE_VSA12>
0

>  <PEOE_VSA13>
0

>  <SMR_VSA1>
4.79

>  <SMR_VSA2>
0

>  <SMR_VSA3>
10.33

>  <SMR_VSA4>
5.29

>  <SMR_VSA5>
38.15

>  <SMR_VSA6>
12.42

>  <SMR_VSA7>
4.91

>  <SMR_VSA8>
0

>  <SMR_VSA9>
0

>  <SlogP_VSA1>
5.32

>  <SlogP_VSA2>
29.51

>  <SlogP_VSA3>
0

>  <SlogP_VSA4>
4.91

>  <SlogP_VSA5>
32.1

>  <SlogP_VSA6>
5.29

>  <SlogP_VSA7>
0

>  <SlogP_VSA8>
0

>  <SlogP_VSA9>
0

>  <SlogP_VSA10>
4.79

>  <SlogP_VSA11>
0

>  <EState_VSA1>
6.03

>  <EState_VSA2>
18.47

>  <EState_VSA3>
0

>  <EState_VSA4>
30.69

>  <EState_VSA5>
6.42

>  <EState_VSA6>
0

>  <EState_VSA7>
0

>  <EState_VSA8>
10.6

>  <EState_VSA9>
11.6

>  <EState_VSA10>
9.7

>  <VSA_EState1>
0

>  <VSA_EState2>
21.83

>  <VSA_EState3>
6.25

>  <VSA_EState4>
0

>  <VSA_EState5>
0.21

>  <VSA_EState6>
-0.25

>  <VSA_EState7>
5.46

>  <VSA_EState8>
0.16

>  <VSA_EState9>
0

>  <apol>
32.78

>  <bpol>
19.44

>  <nRing>
1

>  <nHRing>
0

>  <naRing>
0

>  <naHRing>
0

>  <nARing 2>
1

>  <nAHRing 2>
0

>  <nFRing>
0

>  <nFHRing>
0

>  <nFaRing>
0

>  <nFaHRing>
0

>  <nFARing 2>
0

>  <nFAHRing 2>
0

>  <nRot>
4

>  <SLogP>
2.25

>  <SMR>
58.63

>  <TopoPSA(NO)>
61.77

>  <TopoPSA>
61.77

>  <JGI1>
0.17

>  <JGI2>
0.07

>  <JGI3>
0.05

>  <JGI4>
0.04

>  <JGI5>
0.02

>  <Diameter>
9

>  <Radius>
5

>  <TMWC10>
96.45

>  <TSRW10>
45.72

>  <MW>
233.09

>  <AMW>
7.52

>  <WPath>
402

>  <WPol>
18

>  <Zagreb1>
66

>  <Zagreb2>
72

>  <mZagreb2>
3.69

>  <yes>


>  <nAR-cont>
0.816016

>  <nHA-cont>
0.92539861

>  <MWHBN>
0.261998117

>  <MWHBN-cont>
0.937388436

>  <TPSA-cont>
0.568807043

>  <pka_cont>
0.97

>  <yes.1>


>  <BBB_SCORE>
4.770111351

>  <MMFF94 Energy>
-42.024

$$$$
Compound 1893
Actelion Java MolfileCreator 2.0

  0  0  0  0  0  0              0 V3000
M  V30 BEGIN CTAB
M  V30 COUNTS 20 21 0 0 0
M  V30 BEGIN ATOM
M  V30 1 Cl -0.9316 3.6453 1.44 0
M  V30 2 C -0.7101 1.9575 1.1089 0
M  V30 3 C -0.0318 1.5187 -0.036 0
M  V30 4 C -1.1894 0.9895 2.0025 0
M  V30 5 N 0.4348 2.4924 -0.9874 0 CHG=1
M  V30 6 C 0.1945 0.1576 -0.3009 0
M  V30 7 Cl -2.042 1.402 3.4498 0
M  V30 8 C -0.9905 -0.3738 1.7506 0
M  V30 9 O -0.415 3.0179 -1.7149 0
M  V30 10 O 1.6569 2.6722 -1.0443 0 CHG=-1
M  V30 11 N 0.8961 -0.3 -1.432 0
M  V30 12 C -0.3019 -0.7827 0.6078 0
M  V30 13 C 1.1173 -1.6326 -1.7126 0
M  V30 14 N -0.1187 -2.1489 0.382 0
M  V30 15 O 1.7402 -1.9835 -2.7039 0
M  V30 16 C 0.5444 -2.6602 -0.7113 0
M  V30 17 O 0.6741 -3.8641 -0.8776 0
M  V30 18 H -1.3732 -1.1108 2.4546 0
M  V30 19 H 1.3184 0.3387 -2.1002 0
M  V30 20 H -0.4796 -2.8431 1.0256 0
M  V30 END ATOM
M  V30 BEGIN BOND
M  V30 1 1 1 2
M  V30 2 2 2 3
M  V30 3 1 2 4
M  V30 4 1 3 5
M  V30 5 1 3 6
M  V30 6 1 4 7
M  V30 7 2 4 8
M  V30 8 2 5 9
M  V30 9 1 5 10
M  V30 10 1 6 11
M  V30 11 2 6 12
M  V30 12 1 11 13
M  V30 13 1 12 14
M  V30 14 2 13 15
M  V30 15 1 13 16
M  V30 16 2 16 17
M  V30 17 1 8 12
M  V30 18 1 14 16
M  V30 19 1 8 18
M  V30 20 1 11 19
M  V30 21 1 14 20
M  V30 END BOND
M  V30 END CTAB
M  END
>  <Column 1>
2305

>  <level_0>
2486

>  <index>
2486

>  <Unnamed: 0>
2486

>  <NO.>
2498

>  <Name>
licostinel

>  <IUPAC_name>
6-7-dichloro-5-nitro-1-4-dihydroquinoxaline-2-3-dione

>  <SMILES>
O=c1[nH]c2cc(Cl)c(Cl)c([N+](=O)[O-])c2[nH]c1=O

>  <CID>
5486198

>  <logBB>


>  <BBB+/BBB->
BBB+

>  <Inchi>
InChI=1S/C8H3Cl2N3O4/c9-2-1-3-5(6(4(2)10)13(16)17)12-8(15)7(14)11-3/h1H-(H-11-14)(H-12-15)

>  <threshold>
-1

>  <reference>
R1|R13|R6|R24|R27|R30|

>  <group>
B

>  <Class>
1

>  <ABC>
13.14

>  <ABCGG>
11.71

>  <nAcid>
0

>  <nBase>
0

>  <nAromAtom>
10

>  <nAromBond>
11

>  <nAtom>
20

>  <nHeavyAtom>
17

>  <nSpiro>
0

>  <nBridgehead>
0

>  <nHetero>
9

>  <nN>
3

>  <nO>
4

>  <nF>
0

>  <BalabanJ>
2.19

>  <BertzCT>
748.74

>  <nBonds>
21

>  <nBondsO>
18

>  <nBondsS>
7

>  <nBondsD>
3

>  <nBondsT>
0

>  <nBondsA>
11

>  <nBondsM>
14

>  <nBondsKS>
15

>  <nBondsKD>
6

>  <RNCG>
0.17

>  <RPCG>
0.17

>  <FCSP3>
0

>  <SZ>
23

>  <Sm>
22.98

>  <Sv>
16.13

>  <Sse>
22.17

>  <Sp>
15.71

>  <Si>
22.64

>  <MZ>
1.15

>  <Mm>
1.15

>  <Mv>
0.81

>  <Mse>
1.11

>  <Mp>
0.79

>  <Mi>
1.13

>  <NsCH3>
0

>  <NdCH2>
0

>  <NssCH2>
0

>  <NtCH>
0

>  <NdsCH>
0

>  <NaaCH>
1

>  <NsssCH>
0

>  <NddC>
0

>  <NtsC>
0

>  <NdssC>
0

>  <NaasC>
3

>  <NaaaC>
2

>  <NssssC>
0

>  <NsNH3>
0

>  <NsNH2>
0

>  <NssNH2>
0

>  <NdNH>
0

>  <NssNH>
0

>  <NaaNH>
2

>  <NtN>
0

>  <NsssNH>
0

>  <NdsN>
0

>  <NaaN>
0

>  <NsssN>
0

>  <NddsN>
1

>  <NaasN>
0

>  <NssssN>
0

>  <NsOH>
0

>  <NdO>
3

>  <NssO>
0

>  <NaaO>
0

>  <NsF>
0

>  <NsSiH3>
0

>  <NssSiH2>
0

>  <NsssSiH>
0

>  <NssssSi>
0

>  <NsPH2>
0

>  <NssPH>
0

>  <NsssP>
0

>  <NdsssP>
0

>  <NsssssP>
0

>  <NsSH>
0

>  <NdS>
0

>  <NssS>
0

>  <NaaS>
0

>  <NdssS>
0

>  <NddssS>
0

>  <NsCl>
2

>  <NsBr>
0

>  <NsI>
0

>  <fragCpx>
52.09

>  <fMF>
0.5

>  <nHBAcc>
4

>  <nHBDon>
2

>  <Kier1>
13.43

>  <Kier2>
4.94

>  <Lipinski>
1

>  <GhoseFilter>
1

>  <FilterItLogS>
-4.23

>  <VMcGowan>
153.96

>  <LabuteASA>
102.13

>  <PEOE_VSA1>
9.97

>  <PEOE_VSA2>
19.7

>  <PEOE_VSA3>
0

>  <PEOE_VSA4>
0

>  <PEOE_VSA5>
0

>  <PEOE_VSA6>
23.2

>  <PEOE_VSA7>
6.07

>  <PEOE_VSA8>
0

>  <PEOE_VSA9>
15.46

>  <PEOE_VSA10>
10.54

>  <PEOE_VSA11>
0

>  <PEOE_VSA12>
0

>  <PEOE_VSA13>
0

>  <SMR_VSA1>
4.92

>  <SMR_VSA2>
0

>  <SMR_VSA3>
9.97

>  <SMR_VSA4>
0

>  <SMR_VSA5>
0

>  <SMR_VSA6>
0

>  <SMR_VSA7>
46.93

>  <SMR_VSA8>
0

>  <SMR_VSA9>
0

>  <SlogP_VSA1>
11.12

>  <SlogP_VSA2>
14.89

>  <SlogP_VSA3>
0

>  <SlogP_VSA4>
10.11

>  <SlogP_VSA5>
0

>  <SlogP_VSA6>
15.66

>  <SlogP_VSA7>
10.05

>  <SlogP_VSA8>
11.03

>  <SlogP_VSA9>
0

>  <SlogP_VSA10>
5.69

>  <SlogP_VSA11>
0

>  <EState_VSA1>
21.73

>  <EState_VSA2>
21.08

>  <EState_VSA3>
0

>  <EState_VSA4>
0

>  <EState_VSA5>
6.07

>  <EState_VSA6>
0

>  <EState_VSA7>
0

>  <EState_VSA8>
9.97

>  <EState_VSA9>
23.2

>  <EState_VSA10>
19.7

>  <VSA_EState1>
0

>  <VSA_EState2>
36.48

>  <VSA_EState3>
10.44

>  <VSA_EState4>
-2.61

>  <VSA_EState5>
0

>  <VSA_EState6>
1.23

>  <VSA_EState7>
0

>  <VSA_EState8>
0

>  <VSA_EState9>
0

>  <apol>
26.23

>  <bpol>
8.07

>  <nRing>
2

>  <nHRing>
1

>  <naRing>
2

>  <naHRing>
1

>  <nARing 2>
0

>  <nAHRing 2>
0

>  <nFRing>
1

>  <nFHRing>
1

>  <nFaRing>
1

>  <nFaHRing>
1

>  <nFARing 2>
0

>  <nFAHRing 2>
0

>  <nRot>
1

>  <SLogP>
1.43

>  <SMR>
61.86

>  <TopoPSA(NO)>
108.86

>  <TopoPSA>
108.86

>  <JGI1>
0.25

>  <JGI2>
0.1

>  <JGI3>
0.06

>  <JGI4>
0.07

>  <JGI5>
0.04

>  <Diameter>
7

>  <Radius>
4

>  <TMWC10>
107.91

>  <TSRW10>
50.3

>  <MW>
274.95

>  <AMW>
13.75

>  <WPath>
460

>  <WPol>
30

>  <Zagreb1>
90

>  <Zagreb2>
108

>  <mZagreb2>
3.67

>  <yes>


>  <nAR-cont>
0.336376

>  <nHA-cont>
0.976740822

>  <MWHBN>
0.36184651

>  <MWHBN-cont>
0.625349794

>  <TPSA-cont>
0.240089602

>  <pka_cont>
0.97

>  <yes.1>


>  <BBB_SCORE>
3.216320717

>  <MMFF94 Energy>
70.822

$$$$
Compound 1894
Actelion Java MolfileCreator 2.0

  0  0  0  0  0  0              0 V3000
M  V30 BEGIN CTAB
M  V30 COUNTS 50 54 0 0 0
M  V30 BEGIN ATOM
M  V30 1 Cl 2.1053 5.3509 -4.7011 0
M  V30 2 C 1.6604 3.771 -4.1795 0
M  V30 3 C 2.0004 2.6697 -4.9648 0
M  V30 4 C 0.959 3.6187 -2.9664 0
M  V30 5 C 1.6146 1.4368 -4.4899 0
M  V30 6 C 0.5793 2.3492 -2.5094 0
M  V30 7 N 1.8182 0.1884 -5.0615 0
M  V30 8 C 0.9188 1.2643 -3.2896 0
M  V30 9 C 1.2553 -0.7925 -4.2341 0
M  V30 10 N 0.6949 -0.1145 -3.1253 0
M  V30 11 O 1.2625 -1.9911 -4.4574 0
M  V30 12 C 0.0104 -0.7868 -2.0363 0
M  V30 13 C 0.7148 -0.6209 -0.687 0
M  V30 14 C -1.4756 -0.4268 -1.9511 0
M  V30 15 C -0.0635 -1.3254 0.4269 0
M  V30 16 C -2.1383 -1.178 -0.7973 0
M  V30 17 N -1.4859 -0.9589 0.5019 0
M  V30 18 C -1.7302 0.3905 1.0405 0
M  V30 19 C -1.7401 0.563 2.5837 0 CFG=2
M  V30 20 O -0.4214 0.723 3.1227 0
M  V30 21 C -2.6083 -0.4383 3.3467 0
M  V30 22 C 0.0248 -0.3439 3.8527 0
M  V30 23 O -1.9714 -1.6965 3.5573 0
M  V30 24 C -0.7062 -1.5169 4.0455 0
M  V30 25 C 1.3106 -0.2338 4.3823 0
M  V30 26 C -0.1419 -2.5895 4.7343 0
M  V30 27 C 1.8697 -1.2994 5.0898 0
M  V30 28 C 1.1453 -2.4792 5.2613 0
M  V30 29 H 2.5388 2.7797 -5.8975 0
M  V30 30 H 0.7075 4.4957 -2.3734 0
M  V30 31 H 0.0418 2.2488 -1.5754 0
M  V30 32 H 2.2876 -0.0212 -5.9272 0
M  V30 33 H 0.0509 -1.8602 -2.2701 0
M  V30 34 H 0.8461 0.4345 -0.4312 0
M  V30 35 H 1.7258 -1.0431 -0.7459 0
M  V30 36 H -1.9747 -0.6894 -2.892 0
M  V30 37 H -1.6194 0.6504 -1.8192 0
M  V30 38 H 0.4451 -1.1498 1.3754 0
M  V30 39 H -4.0E-4 -2.4102 0.2685 0
M  V30 40 H -2.1266 -2.2541 -1.0151 0
M  V30 41 H -3.2008 -0.9109 -0.741 0
M  V30 42 H -1.0371 1.1185 0.6035 0
M  V30 43 H -2.7336 0.7024 0.7185 0
M  V30 44 H -2.2131 1.5421 2.744 0
M  V30 45 H -2.8711 -0.0311 4.3328 0
M  V30 46 H -3.551 -0.6168 2.8179 0
M  V30 47 H 1.8819 0.6779 4.2329 0
M  V30 48 H -0.7086 -3.5071 4.8642 0
M  V30 49 H 2.8731 -1.2127 5.4984 0
M  V30 50 H 1.5824 -3.3134 5.8036 0
M  V30 END ATOM
M  V30 BEGIN BOND
M  V30 1 1 1 2
M  V30 2 2 2 3
M  V30 3 1 2 4
M  V30 4 1 3 5
M  V30 5 2 4 6
M  V30 6 1 5 7
M  V30 7 2 5 8
M  V30 8 1 7 9
M  V30 9 1 8 10
M  V30 10 2 9 11
M  V30 11 1 10 12
M  V30 12 1 12 13
M  V30 13 1 12 14
M  V30 14 1 13 15
M  V30 15 1 14 16
M  V30 16 1 15 17
M  V30 17 1 17 18
M  V30 18 1 18 19
M  V30 19 1 19 20
M  V30 20 1 19 21
M  V30 21 1 20 22
M  V30 22 1 21 23
M  V30 23 2 22 24
M  V30 24 1 22 25
M  V30 25 1 24 26
M  V30 26 2 25 27
M  V30 27 2 26 28
M  V30 28 1 6 8
M  V30 29 1 9 10
M  V30 30 1 16 17
M  V30 31 1 23 24
M  V30 32 1 27 28
M  V30 33 1 3 29
M  V30 34 1 4 30
M  V30 35 1 6 31
M  V30 36 1 7 32
M  V30 37 1 12 33
M  V30 38 1 13 34
M  V30 39 1 13 35
M  V30 40 1 14 36
M  V30 41 1 14 37
M  V30 42 1 15 38
M  V30 43 1 15 39
M  V30 44 1 16 40
M  V30 45 1 16 41
M  V30 46 1 18 42
M  V30 47 1 18 43
M  V30 48 1 19 44
M  V30 49 1 21 45
M  V30 50 1 21 46
M  V30 51 1 25 47
M  V30 52 1 26 48
M  V30 53 1 27 49
M  V30 54 1 28 50
M  V30 END BOND
M  V30 BEGIN COLLECTION
M  V30 MDLV30/STERAC1 ATOMS=(1 19)
M  V30 END COLLECTION
M  V30 END CTAB
M  END
>  <Column 1>
2306

>  <level_0>
2487

>  <index>
2487

>  <Unnamed: 0>
2487

>  <NO.>
2499

>  <Name>
axamozide

>  <IUPAC_name>
6-chloro-3-[1-(2-3-dihydro-1-4-benzodioxin-3-ylmethyl)piperidin-4-yl]-1h-benzimidazol-2-one

>  <SMILES>
O=c1[nH]c2cc(Cl)ccc2n1C1CCN(CC2COc3ccccc3O2)CC1

>  <CID>
170359

>  <logBB>


>  <BBB+/BBB->
BBB+

>  <Inchi>
InChI=1S/C21H22ClN3O3/c22-14-5-6-18-17(11-14)23-21(26)25(18)15-7-9-24(10-8-15)12-16-13-27-19-3-1-2-4-20(19)28-16/h1-6-11-15-16H-7-10-12-13H2-(H-23-26)

>  <threshold>
-1

>  <reference>
R1|R19|R6|R27|R27|R30|

>  <group>
B

>  <Class>
1

>  <ABC>
22.64

>  <ABCGG>
15.89

>  <nAcid>
0

>  <nBase>
1

>  <nAromAtom>
15

>  <nAromBond>
16

>  <nAtom>
50

>  <nHeavyAtom>
28

>  <nSpiro>
0

>  <nBridgehead>
0

>  <nHetero>
7

>  <nN>
3

>  <nO>
3

>  <nF>
0

>  <BalabanJ>
1.11

>  <BertzCT>
1052.48

>  <nBonds>
54

>  <nBondsO>
32

>  <nBondsS>
37

>  <nBondsD>
1

>  <nBondsT>
0

>  <nBondsA>
16

>  <nBondsM>
17

>  <nBondsKS>
47

>  <nBondsKD>
7

>  <RNCG>
0.2

>  <RPCG>
0.13

>  <FCSP3>
0.38

>  <SZ>
35

>  <Sm>
33.29

>  <Sv>
32.47

>  <Sse>
50.51

>  <Sp>
34.51

>  <Si>
56.22

>  <MZ>
0.7

>  <Mm>
0.67

>  <Mv>
0.65

>  <Mse>
1.01

>  <Mp>
0.69

>  <Mi>
1.12

>  <NsCH3>
0

>  <NdCH2>
0

>  <NssCH2>
6

>  <NtCH>
0

>  <NdsCH>
0

>  <NaaCH>
7

>  <NsssCH>
2

>  <NddC>
0

>  <NtsC>
0

>  <NdssC>
0

>  <NaasC>
3

>  <NaaaC>
2

>  <NssssC>
0

>  <NsNH3>
0

>  <NsNH2>
0

>  <NssNH2>
0

>  <NdNH>
0

>  <NssNH>
0

>  <NaaNH>
1

>  <NtN>
0

>  <NsssNH>
0

>  <NdsN>
0

>  <NaaN>
0

>  <NsssN>
1

>  <NddsN>
0

>  <NaasN>
1

>  <NssssN>
0

>  <NsOH>
0

>  <NdO>
1

>  <NssO>
2

>  <NaaO>
0

>  <NsF>
0

>  <NsSiH3>
0

>  <NssSiH2>
0

>  <NsssSiH>
0

>  <NssssSi>
0

>  <NsPH2>
0

>  <NssPH>
0

>  <NsssP>
0

>  <NdsssP>
0

>  <NsssssP>
0

>  <NsSH>
0

>  <NdS>
0

>  <NssS>
0

>  <NaaS>
0

>  <NdssS>
0

>  <NddssS>
0

>  <NsCl>
1

>  <NsBr>
0

>  <NsI>
0

>  <fragCpx>
268.07

>  <fMF>
0.52

>  <nHBAcc>
5

>  <nHBDon>
1

>  <Kier1>
19.93

>  <Kier2>
8.63

>  <Lipinski>
1

>  <GhoseFilter>
1

>  <FilterItLogS>
-4.69

>  <VMcGowan>
282.14

>  <LabuteASA>
167.17

>  <PEOE_VSA1>
14.46

>  <PEOE_VSA2>
9.47

>  <PEOE_VSA3>
4.79

>  <PEOE_VSA4>
0

>  <PEOE_VSA5>
0

>  <PEOE_VSA6>
23.73

>  <PEOE_VSA7>
43.17

>  <PEOE_VSA8>
30.7

>  <PEOE_VSA9>
11.03

>  <PEOE_VSA10>
12.71

>  <PEOE_VSA11>
11.5

>  <PEOE_VSA12>
0

>  <PEOE_VSA13>
0

>  <SMR_VSA1>
9.47

>  <SMR_VSA2>
0

>  <SMR_VSA3>
14.45

>  <SMR_VSA4>
0

>  <SMR_VSA5>
24.99

>  <SMR_VSA6>
26.24

>  <SMR_VSA7>
57.97

>  <SMR_VSA8>
0

>  <SMR_VSA9>
11.5

>  <SlogP_VSA1>
15.16

>  <SlogP_VSA2>
46.8

>  <SlogP_VSA3>
0

>  <SlogP_VSA4>
0

>  <SlogP_VSA5>
18.88

>  <SlogP_VSA6>
47.26

>  <SlogP_VSA7>
5.02

>  <SlogP_VSA8>
11.03

>  <SlogP_VSA9>
0

>  <SlogP_VSA10>
0

>  <SlogP_VSA11>
11.5

>  <EState_VSA1>
0

>  <EState_VSA2>
17.84

>  <EState_VSA3>
11.63

>  <EState_VSA4>
55.01

>  <EState_VSA5>
0

>  <EState_VSA6>
0

>  <EState_VSA7>
47.03

>  <EState_VSA8>
9.88

>  <EState_VSA9>
21.07

>  <EState_VSA10>
4.79

>  <VSA_EState1>
13.79

>  <VSA_EState2>
17.8

>  <VSA_EState3>
0.63

>  <VSA_EState4>
1.66

>  <VSA_EState5>
1.63

>  <VSA_EState6>
13.56

>  <VSA_EState7>
1.89

>  <VSA_EState8>
3.26

>  <VSA_EState9>
0

>  <apol>
57.63

>  <bpol>
30.91

>  <nRing>
5

>  <nHRing>
3

>  <naRing>
3

>  <naHRing>
1

>  <nARing 2>
2

>  <nAHRing 2>
2

>  <nFRing>
2

>  <nFHRing>
2

>  <nFaRing>
1

>  <nFaHRing>
1

>  <nFARing 2>
1

>  <nFAHRing 2>
1

>  <nRot>
3

>  <SLogP>
3.46

>  <SMR>
108.63

>  <TopoPSA(NO)>
59.49

>  <TopoPSA>
59.49

>  <JGI1>
0.17

>  <JGI2>
0.06

>  <JGI3>
0.05

>  <JGI4>
0.04

>  <JGI5>
0.02

>  <Diameter>
16

>  <Radius>
8

>  <TMWC10>
137.52

>  <TSRW10>
78.08

>  <MW>
399.13

>  <AMW>
7.98

>  <WPath>
2269

>  <WPol>
46

>  <Zagreb1>
156

>  <Zagreb2>
187

>  <mZagreb2>
5.97

>  <yes>


>  <nAR-cont>
1

>  <nHA-cont>
0.82432561

>  <MWHBN>
0.300326783

>  <MWHBN-cont>
0.839761297

>  <TPSA-cont>
0.584722859

>  <pka_cont>
0.97

>  <yes.1>


>  <BBB_SCORE>
4.738413274

>  <MMFF94 Energy>
46.593

$$$$
Compound 1895
Actelion Java MolfileCreator 2.0

  0  0  0  0  0  0              0 V3000
M  V30 BEGIN CTAB
M  V30 COUNTS 15 16 0 0 0
M  V30 BEGIN ATOM
M  V30 1 Cl 1.7296 -0.5763 3.214 0
M  V30 2 C 0.7314 -0.3223 1.8338 0
M  V30 3 C 1.3252 -0.1495 0.5816 0
M  V30 4 C -0.67 -0.2931 1.9921 0
M  V30 5 C 0.4686 0.0483 -0.4748 0
M  V30 6 C -1.5078 -0.0886 0.8892 0
M  V30 7 N 0.722 0.2457 -1.8009 0
M  V30 8 C -0.9041 0.0797 -0.3375 0
M  V30 9 C -0.4857 0.3924 -2.4428 0
M  V30 10 O -1.5544 0.2928 -1.5417 0
M  V30 11 O -0.6196 0.5849 -3.642 0
M  V30 12 H 2.4002 -0.1708 0.4534 0
M  V30 13 H -1.1083 -0.4302 2.9785 0
M  V30 14 H -2.5866 -0.0637 0.9955 0
M  V30 15 H 1.6121 0.2847 -2.2696 0
M  V30 END ATOM
M  V30 BEGIN BOND
M  V30 1 1 1 2
M  V30 2 2 2 3
M  V30 3 1 2 4
M  V30 4 1 3 5
M  V30 5 2 4 6
M  V30 6 1 5 7
M  V30 7 2 5 8
M  V30 8 1 7 9
M  V30 9 1 8 10
M  V30 10 2 9 11
M  V30 11 1 6 8
M  V30 12 1 9 10
M  V30 13 1 3 12
M  V30 14 1 4 13
M  V30 15 1 6 14
M  V30 16 1 7 15
M  V30 END BOND
M  V30 END CTAB
M  END
>  <Column 1>
2308

>  <level_0>
2489

>  <index>
2489

>  <Unnamed: 0>
2489

>  <NO.>
2501

>  <Name>
chlorzoxazone

>  <IUPAC_name>
5-chloro-3h-1-3-benzoxazol-2-one

>  <SMILES>
O=c1[nH]c2cc(Cl)ccc2o1

>  <CID>
2733

>  <logBB>


>  <BBB+/BBB->
BBB+

>  <Inchi>
InChI=1S/C7H4ClNO2/c8-4-1-2-6-5(3-4)9-7(10)11-6/h1-3H-(H-9-10)

>  <threshold>
-1

>  <reference>
R1|R13|R14|R15|R23|R27|R27|R30|

>  <group>
B

>  <Class>
1

>  <ABC>
8.66

>  <ABCGG>
7.86

>  <nAcid>
0

>  <nBase>
0

>  <nAromAtom>
9

>  <nAromBond>
10

>  <nAtom>
15

>  <nHeavyAtom>
11

>  <nSpiro>
0

>  <nBridgehead>
0

>  <nHetero>
4

>  <nN>
1

>  <nO>
2

>  <nF>
0

>  <BalabanJ>
1.97

>  <BertzCT>
442.88

>  <nBonds>
16

>  <nBondsO>
12

>  <nBondsS>
5

>  <nBondsD>
1

>  <nBondsT>
0

>  <nBondsA>
10

>  <nBondsM>
11

>  <nBondsKS>
12

>  <nBondsKD>
4

>  <RNCG>
0.38

>  <RPCG>
0.39

>  <FCSP3>
0

>  <SZ>
14.33

>  <Sm>
14.12

>  <Sv>
11.36

>  <Sse>
15.87

>  <Sp>
11.52

>  <Si>
16.69

>  <MZ>
0.96

>  <Mm>
0.94

>  <Mv>
0.76

>  <Mse>
1.06

>  <Mp>
0.77

>  <Mi>
1.11

>  <NsCH3>
0

>  <NdCH2>
0

>  <NssCH2>
0

>  <NtCH>
0

>  <NdsCH>
0

>  <NaaCH>
3

>  <NsssCH>
0

>  <NddC>
0

>  <NtsC>
0

>  <NdssC>
0

>  <NaasC>
1

>  <NaaaC>
2

>  <NssssC>
0

>  <NsNH3>
0

>  <NsNH2>
0

>  <NssNH2>
0

>  <NdNH>
0

>  <NssNH>
0

>  <NaaNH>
1

>  <NtN>
0

>  <NsssNH>
0

>  <NdsN>
0

>  <NaaN>
0

>  <NsssN>
0

>  <NddsN>
0

>  <NaasN>
0

>  <NssssN>
0

>  <NsOH>
0

>  <NdO>
1

>  <NssO>
0

>  <NaaO>
1

>  <NsF>
0

>  <NsSiH3>
0

>  <NssSiH2>
0

>  <NsssSiH>
0

>  <NssssSi>
0

>  <NsPH2>
0

>  <NssPH>
0

>  <NsssP>
0

>  <NdsssP>
0

>  <NsssssP>
0

>  <NsSH>
0

>  <NdS>
0

>  <NssS>
0

>  <NaaS>
0

>  <NdssS>
0

>  <NddssS>
0

>  <NsCl>
1

>  <NsBr>
0

>  <NsI>
0

>  <fragCpx>
34.04

>  <fMF>
0.6

>  <nHBAcc>
2

>  <nHBDon>
1

>  <Kier1>
7.64

>  <Kier2>
2.8

>  <Lipinski>
1

>  <GhoseFilter>
0

>  <FilterItLogS>
-2.98

>  <VMcGowan>
104.53

>  <LabuteASA>
66.59

>  <PEOE_VSA1>
4.42

>  <PEOE_VSA2>
4.98

>  <PEOE_VSA3>
4.79

>  <PEOE_VSA4>
0

>  <PEOE_VSA5>
0

>  <PEOE_VSA6>
11.6

>  <PEOE_VSA7>
18.2

>  <PEOE_VSA8>
5.02

>  <PEOE_VSA9>
5.52

>  <PEOE_VSA10>
0

>  <PEOE_VSA11>
5.58

>  <PEOE_VSA12>
0

>  <PEOE_VSA13>
0

>  <SMR_VSA1>
4.42

>  <SMR_VSA2>
0

>  <SMR_VSA3>
4.98

>  <SMR_VSA4>
0

>  <SMR_VSA5>
0

>  <SMR_VSA6>
0

>  <SMR_VSA7>
33.77

>  <SMR_VSA8>
0

>  <SMR_VSA9>
0

>  <SlogP_VSA1>
5.76

>  <SlogP_VSA2>
4.98

>  <SlogP_VSA3>
0

>  <SlogP_VSA4>
0

>  <SlogP_VSA5>
0

>  <SlogP_VSA6>
27.41

>  <SlogP_VSA7>
5.02

>  <SlogP_VSA8>
11.1

>  <SlogP_VSA9>
0

>  <SlogP_VSA10>
0

>  <SlogP_VSA11>
0

>  <EState_VSA1>
5.76

>  <EState_VSA2>
0

>  <EState_VSA3>
16.12

>  <EState_VSA4>
0

>  <EState_VSA5>
0

>  <EState_VSA6>
18.2

>  <EState_VSA7>
0

>  <EState_VSA8>
4.98

>  <EState_VSA9>
16.02

>  <EState_VSA10>
4.79

>  <VSA_EState1>
4.75

>  <VSA_EState2>
13.13

>  <VSA_EState3>
0.58

>  <VSA_EState4>
1.15

>  <VSA_EState5>
-0.46

>  <VSA_EState6>
4.96

>  <VSA_EState7>
0

>  <VSA_EState8>
0

>  <VSA_EState9>
0

>  <apol>
19.24

>  <bpol>
7.7

>  <nRing>
2

>  <nHRing>
1

>  <naRing>
2

>  <naHRing>
1

>  <nARing 2>
0

>  <nAHRing 2>
0

>  <nFRing>
1

>  <nFHRing>
1

>  <nFaRing>
1

>  <nFaHRing>
1

>  <nFARing 2>
0

>  <nFAHRing 2>
0

>  <nRot>
0

>  <SLogP>
1.77

>  <SMR>
41.84

>  <TopoPSA(NO)>
46

>  <TopoPSA>
46

>  <JGI1>
0.25

>  <JGI2>
0.07

>  <JGI3>
0.08

>  <JGI4>
0.06

>  <JGI5>
0.05

>  <Diameter>
6

>  <Radius>
3

>  <TMWC10>
90.64

>  <TSRW10>
55.56

>  <MW>
168.99

>  <AMW>
11.27

>  <WPath>
143

>  <WPol>
13

>  <Zagreb1>
58

>  <Zagreb2>
67

>  <mZagreb2>
2.36

>  <yes>


>  <nAR-cont>
0.336376

>  <nHA-cont>
0.720786536

>  <MWHBN>
0.230776059

>  <MWHBN-cont>
0.985981404

>  <TPSA-cont>
0.678891436

>  <pka_cont>
0.97

>  <yes.1>


>  <BBB_SCORE>
4.378917513

>  <MMFF94 Energy>
-7.1424

$$$$
Compound 1896
Actelion Java MolfileCreator 2.0

  0  0  0  0  0  0              0 V3000
M  V30 BEGIN CTAB
M  V30 COUNTS 51 54 0 0 0
M  V30 BEGIN ATOM
M  V30 1 Cl 0.9644 3.7814 -7.6545 0
M  V30 2 C 1.5491 2.4825 -6.6861 0
M  V30 3 C 1.1225 2.3612 -5.3598 0
M  V30 4 C 2.4387 1.5655 -7.2332 0
M  V30 5 C 1.569 1.3112 -4.5436 0
M  V30 6 C 2.9067 0.5219 -6.4436 0
M  V30 7 N 1.1681 1.1678 -3.2188 0
M  V30 8 C 2.4758 0.4033 -5.1172 0
M  V30 9 C 0.5981 2.3092 -2.4838 0
M  V30 10 C 0.6517 -0.1449 -2.7876 0
M  V30 11 C 0.6672 2.0862 -0.9542 0
M  V30 12 C 0.7183 -0.2936 -1.2509 0
M  V30 13 N 0.0488 0.8114 -0.5218 0
M  V30 14 C 0.1774 0.5953 0.9316 0
M  V30 15 C -0.7181 1.5324 1.753 0
M  V30 16 C -0.6066 1.2857 3.2638 0
M  V30 17 N -1.1906 0.0169 3.6886 0
M  V30 18 C -2.5634 -0.0288 3.8807 0
M  V30 19 C -0.3376 -1.0685 3.8834 0
M  V30 20 O -3.3169 0.9294 3.7155 0
M  V30 21 N -3.0898 -1.2236 4.2803 0
M  V30 22 O 0.8774 -1.0291 3.7017 0
M  V30 23 C -0.9578 -2.3335 4.3208 0
M  V30 24 C -2.3346 -2.3697 4.5055 0
M  V30 25 C -0.187 -3.4787 4.5445 0
M  V30 26 C -2.9584 -3.5478 4.9155 0
M  V30 27 C -0.8074 -4.6594 4.955 0
M  V30 28 C -2.1909 -4.6931 5.1398 0
M  V30 29 H 0.4148 3.091 -4.9794 0
M  V30 30 H 2.7717 1.6613 -8.2623 0
M  V30 31 H 3.6132 -0.1965 -6.8498 0
M  V30 32 H 2.8904 -0.4024 -4.5165 0
M  V30 33 H -0.4465 2.4587 -2.7849 0
M  V30 34 H 1.154 3.2279 -2.7079 0
M  V30 35 H 1.2141 -0.9767 -3.2242 0
M  V30 36 H -0.3886 -0.2465 -3.1227 0
M  V30 37 H 0.1574 2.9332 -0.4836 0
M  V30 38 H 1.7189 2.1206 -0.6395 0
M  V30 39 H 1.7723 -0.3599 -0.9481 0
M  V30 40 H 0.2422 -1.2457 -0.9866 0
M  V30 41 H 1.2227 0.6928 1.2513 0
M  V30 42 H -0.1312 -0.4338 1.149 0
M  V30 43 H -0.4322 2.5746 1.5739 0
M  V30 44 H -1.7604 1.4245 1.4292 0
M  V30 45 H -1.1304 2.0957 3.7864 0
M  V30 46 H 0.4434 1.341 3.5725 0
M  V30 47 H -4.0932 -1.2317 4.4107 0
M  V30 48 H 0.8909 -3.4534 4.4006 0
M  V30 49 H -4.034 -3.5901 5.0638 0
M  V30 50 H -0.2123 -5.5527 5.1306 0
M  V30 51 H -2.6718 -5.6149 5.4598 0
M  V30 END ATOM
M  V30 BEGIN BOND
M  V30 1 1 1 2
M  V30 2 2 2 3
M  V30 3 1 2 4
M  V30 4 1 3 5
M  V30 5 2 4 6
M  V30 6 1 5 7
M  V30 7 2 5 8
M  V30 8 1 7 9
M  V30 9 1 7 10
M  V30 10 1 9 11
M  V30 11 1 10 12
M  V30 12 1 11 13
M  V30 13 1 13 14
M  V30 14 1 14 15
M  V30 15 1 15 16
M  V30 16 1 16 17
M  V30 17 1 17 18
M  V30 18 1 17 19
M  V30 19 2 18 20
M  V30 20 1 18 21
M  V30 21 2 19 22
M  V30 22 1 19 23
M  V30 23 1 21 24
M  V30 24 1 23 25
M  V30 25 1 24 26
M  V30 26 2 25 27
M  V30 27 2 26 28
M  V30 28 1 6 8
M  V30 29 1 12 13
M  V30 30 2 23 24
M  V30 31 1 27 28
M  V30 32 1 3 29
M  V30 33 1 4 30
M  V30 34 1 6 31
M  V30 35 1 8 32
M  V30 36 1 9 33
M  V30 37 1 9 34
M  V30 38 1 10 35
M  V30 39 1 10 36
M  V30 40 1 11 37
M  V30 41 1 11 38
M  V30 42 1 12 39
M  V30 43 1 12 40
M  V30 44 1 14 41
M  V30 45 1 14 42
M  V30 46 1 15 43
M  V30 47 1 15 44
M  V30 48 1 16 45
M  V30 49 1 16 46
M  V30 50 1 21 47
M  V30 51 1 25 48
M  V30 52 1 26 49
M  V30 53 1 27 50
M  V30 54 1 28 51
M  V30 END BOND
M  V30 END CTAB
M  END
>  <Column 1>
2309

>  <level_0>
2490

>  <index>
2490

>  <Unnamed: 0>
2490

>  <NO.>
2502

>  <Name>
cloperidone

>  <IUPAC_name>
3-[3-[4-(3-chlorophenyl)piperazin-1-yl]propyl]-1h-quinazoline-2-4-dione

>  <SMILES>
O=c1[nH]c2ccccc2c(=O)n1CCCN1CCN(c2cccc(Cl)c2)CC1

>  <CID>
10675

>  <logBB>


>  <BBB+/BBB->
BBB+

>  <Inchi>
InChI=1S/C21H23ClN4O2/c22-16-5-3-6-17(15-16)25-13-11-24(12-14-25)9-4-10-26-20(27)18-7-1-2-8-19(18)23-21(26)28/h1-3-5-8-15H-4-9-14H2-(H-23-28)

>  <threshold>
-1

>  <reference>
R1|R13|R19|R6|R24|R27|R27|R27|R30|R30|

>  <group>
B

>  <Class>
1

>  <ABC>
22.05

>  <ABCGG>
15.7

>  <nAcid>
0

>  <nBase>
1

>  <nAromAtom>
16

>  <nAromBond>
17

>  <nAtom>
51

>  <nHeavyAtom>
28

>  <nSpiro>
0

>  <nBridgehead>
0

>  <nHetero>
7

>  <nN>
4

>  <nO>
2

>  <nF>
0

>  <BalabanJ>
1.17

>  <BertzCT>
1083.45

>  <nBonds>
54

>  <nBondsO>
31

>  <nBondsS>
35

>  <nBondsD>
2

>  <nBondsT>
0

>  <nBondsA>
17

>  <nBondsM>
19

>  <nBondsKS>
46

>  <nBondsKD>
8

>  <RNCG>
0.17

>  <RPCG>
0.15

>  <FCSP3>
0.33

>  <SZ>
35

>  <Sm>
33.21

>  <Sv>
32.78

>  <Sse>
51.29

>  <Sp>
35.08

>  <Si>
57.51

>  <MZ>
0.69

>  <Mm>
0.65

>  <Mv>
0.64

>  <Mse>
1.01

>  <Mp>
0.69

>  <Mi>
1.13

>  <NsCH3>
0

>  <NdCH2>
0

>  <NssCH2>
7

>  <NtCH>
0

>  <NdsCH>
0

>  <NaaCH>
8

>  <NsssCH>
0

>  <NddC>
0

>  <NtsC>
0

>  <NdssC>
0

>  <NaasC>
2

>  <NaaaC>
2

>  <NssssC>
0

>  <NsNH3>
0

>  <NsNH2>
0

>  <NssNH2>
0

>  <NdNH>
0

>  <NssNH>
0

>  <NaaNH>
1

>  <NtN>
0

>  <NsssNH>
0

>  <NdsN>
0

>  <NaaN>
0

>  <NsssN>
2

>  <NddsN>
0

>  <NaasN>
1

>  <NssssN>
0

>  <NsOH>
0

>  <NdO>
2

>  <NssO>
0

>  <NaaO>
0

>  <NsF>
0

>  <NsSiH3>
0

>  <NssSiH2>
0

>  <NsssSiH>
0

>  <NssssSi>
0

>  <NsPH2>
0

>  <NssPH>
0

>  <NsssP>
0

>  <NdsssP>
0

>  <NsssssP>
0

>  <NsSH>
0

>  <NdS>
0

>  <NssS>
0

>  <NaaS>
0

>  <NdssS>
0

>  <NddssS>
0

>  <NsCl>
1

>  <NsBr>
0

>  <NsI>
0

>  <fragCpx>
205.07

>  <fMF>
0.49

>  <nHBAcc>
5

>  <nHBDon>
1

>  <Kier1>
21.24

>  <Kier2>
9.87

>  <Lipinski>
1

>  <GhoseFilter>
1

>  <FilterItLogS>
-5.16

>  <VMcGowan>
292.81

>  <LabuteASA>
167.51

>  <PEOE_VSA1>
9.88

>  <PEOE_VSA2>
14.26

>  <PEOE_VSA3>
4.79

>  <PEOE_VSA4>
0

>  <PEOE_VSA5>
0

>  <PEOE_VSA6>
29.8

>  <PEOE_VSA7>
43.3

>  <PEOE_VSA8>
43.43

>  <PEOE_VSA9>
10.9

>  <PEOE_VSA10>
0

>  <PEOE_VSA11>
0

>  <PEOE_VSA12>
0

>  <PEOE_VSA13>
5.56

>  <SMR_VSA1>
0

>  <SMR_VSA2>
0

>  <SMR_VSA3>
14.45

>  <SMR_VSA4>
0

>  <SMR_VSA5>
12.97

>  <SMR_VSA6>
37.62

>  <SMR_VSA7>
74.39

>  <SMR_VSA8>
0

>  <SMR_VSA9>
0

>  <SlogP_VSA1>
16.15

>  <SlogP_VSA2>
47.17

>  <SlogP_VSA3>
6.54

>  <SlogP_VSA4>
0

>  <SlogP_VSA5>
6.42

>  <SlogP_VSA6>
58.12

>  <SlogP_VSA7>
5.02

>  <SlogP_VSA8>
10.9

>  <SlogP_VSA9>
0

>  <SlogP_VSA10>
5.69

>  <SlogP_VSA11>
0

>  <EState_VSA1>
0

>  <EState_VSA2>
11.25

>  <EState_VSA3>
17.45

>  <EState_VSA4>
49.85

>  <EState_VSA5>
4.57

>  <EState_VSA6>
12.13

>  <EState_VSA7>
30.33

>  <EState_VSA8>
20.85

>  <EState_VSA9>
11.6

>  <EState_VSA10>
9.59

>  <VSA_EState1>
1.31

>  <VSA_EState2>
32.31

>  <VSA_EState3>
1.31

>  <VSA_EState4>
1.19

>  <VSA_EState5>
0

>  <VSA_EState6>
15.06

>  <VSA_EState7>
0.76

>  <VSA_EState8>
5.08

>  <VSA_EState9>
0

>  <apol>
58.59

>  <bpol>
31.02

>  <nRing>
4

>  <nHRing>
2

>  <naRing>
3

>  <naHRing>
1

>  <nARing 2>
1

>  <nAHRing 2>
1

>  <nFRing>
1

>  <nFHRing>
1

>  <nFaRing>
1

>  <nFaHRing>
1

>  <nFARing 2>
0

>  <nFAHRing 2>
0

>  <nRot>
5

>  <SLogP>
2.56

>  <SMR>
113.55

>  <TopoPSA(NO)>
61.34

>  <TopoPSA>
61.34

>  <JGI1>
0.16

>  <JGI2>
0.08

>  <JGI3>
0.04

>  <JGI4>
0.04

>  <JGI5>
0.02

>  <Diameter>
16

>  <Radius>
8

>  <TMWC10>
135.24

>  <TSRW10>
63.45

>  <MW>
398.15

>  <AMW>
7.81

>  <WPath>
2402

>  <WPol>
45

>  <Zagreb1>
148

>  <Zagreb2>
174

>  <mZagreb2>
6.14

>  <yes>


>  <nAR-cont>
0.816016

>  <nHA-cont>
0.82432561

>  <MWHBN>
0.300696166

>  <MWHBN-cont>
0.838653796

>  <TPSA-cont>
0.57180871

>  <pka_cont>
0.97

>  <yes.1>


>  <BBB_SCORE>
4.526939725

>  <MMFF94 Energy>
35.053

$$$$
Compound 1897
Actelion Java MolfileCreator 2.0

  0  0  0  0  0  0              0 V3000
M  V30 BEGIN CTAB
M  V30 COUNTS 50 54 0 0 0
M  V30 BEGIN ATOM
M  V30 1 F 1.7777 -6.3136 -5.4214 0
M  V30 2 C 1.3519 -5.2381 -4.7465 0
M  V30 3 C 0.7768 -4.1806 -5.4331 0
M  V30 4 C 1.4967 -5.1904 -3.3692 0
M  V30 5 C 0.335 -3.059 -4.7248 0
M  V30 6 C 1.0519 -4.0649 -2.6696 0
M  V30 7 C 0.4456 -2.9681 -3.3205 0
M  V30 8 C -0.0428 -1.6795 -2.5128 0 CFG=2
M  V30 9 C -0.746 -1.8912 -1.1376 0 CFG=2
M  V30 10 C -1.3061 -0.9243 -2.996 0
M  V30 11 C -1.9511 -1.0823 -1.6085 0 CFG=2
M  V30 12 C -0.1944 -1.1342 0.0646 0
M  V30 13 C -2.0345 0.114 -0.6716 0
M  V30 14 N -0.7664 0.2205 0.0619 0
M  V30 15 C 0.12 1.2518 -0.502 0
M  V30 16 C 1.373 1.5649 0.3505 0
M  V30 17 N 1.0431 1.9005 1.7327 0
M  V30 18 C 1.2425 0.9377 2.7087 0
M  V30 19 C 0.5262 3.1711 1.9779 0
M  V30 20 O 1.7479 -0.1673 2.5113 0
M  V30 21 N 0.8686 1.2677 3.9815 0
M  V30 22 O 0.3936 4.0379 1.1156 0
M  V30 23 C 0.1297 3.4713 3.3667 0
M  V30 24 C 0.3136 2.4929 4.3361 0
M  V30 25 C -0.4211 4.7098 3.7116 0
M  V30 26 C -0.0497 2.7382 5.6604 0
M  V30 27 C -0.7862 4.9589 5.0354 0
M  V30 28 C -0.6007 3.9742 6.0077 0
M  V30 29 H 0.6775 -4.2293 -6.5124 0
M  V30 30 H 1.9563 -6.0226 -2.8462 0
M  V30 31 H -0.103 -2.2327 -5.282 0
M  V30 32 H 1.1841 -4.0388 -1.589 0
M  V30 33 H 0.8113 -0.9919 -2.4304 0
M  V30 34 H -0.983 -2.937 -0.909 0
M  V30 35 H -1.8767 -1.426 -3.7852 0
M  V30 36 H -1.1254 0.1077 -3.3133 0
M  V30 37 H -2.8903 -1.6473 -1.6473 0
M  V30 38 H -0.5371 -1.6296 0.9816 0
M  V30 39 H 0.8987 -1.163 0.0893 0
M  V30 40 H -2.8224 -0.0714 0.0691 0
M  V30 41 H -2.3201 1.0316 -1.1983 0
M  V30 42 H -0.4545 2.1833 -0.5843 0
M  V30 43 H 0.4391 1.003 -1.5187 0
M  V30 44 H 2.074 0.7247 0.3181 0
M  V30 45 H 1.8912 2.4212 -0.0988 0
M  V30 46 H 1.0182 0.5472 4.6749 0
M  V30 47 H -0.5667 5.4766 2.954 0
M  V30 48 H 0.0886 1.982 6.4281 0
M  V30 49 H -1.2158 5.9202 5.3081 0
M  V30 50 H -0.8867 4.1708 7.0386 0
M  V30 END ATOM
M  V30 BEGIN BOND
M  V30 1 1 1 2
M  V30 2 2 2 3
M  V30 3 1 2 4
M  V30 4 1 3 5
M  V30 5 2 4 6
M  V30 6 2 5 7
M  V30 7 1 7 8
M  V30 8 1 8 9
M  V30 9 1 8 10
M  V30 10 1 9 11
M  V30 11 1 9 12
M  V30 12 1 11 13
M  V30 13 1 12 14
M  V30 14 1 14 15
M  V30 15 1 15 16
M  V30 16 1 16 17
M  V30 17 1 17 18
M  V30 18 1 17 19
M  V30 19 2 18 20
M  V30 20 1 18 21
M  V30 21 2 19 22
M  V30 22 1 19 23
M  V30 23 1 21 24
M  V30 24 1 23 25
M  V30 25 1 24 26
M  V30 26 2 25 27
M  V30 27 2 26 28
M  V30 28 1 6 7
M  V30 29 1 10 11
M  V30 30 1 13 14
M  V30 31 2 23 24
M  V30 32 1 27 28
M  V30 33 1 3 29
M  V30 34 1 4 30
M  V30 35 1 5 31
M  V30 36 1 6 32
M  V30 37 1 8 33
M  V30 38 1 9 34
M  V30 39 1 10 35
M  V30 40 1 10 36
M  V30 41 1 11 37
M  V30 42 1 12 38
M  V30 43 1 12 39
M  V30 44 1 13 40
M  V30 45 1 13 41
M  V30 46 1 15 42
M  V30 47 1 15 43
M  V30 48 1 16 44
M  V30 49 1 16 45
M  V30 50 1 21 46
M  V30 51 1 25 47
M  V30 52 1 26 48
M  V30 53 1 27 49
M  V30 54 1 28 50
M  V30 END BOND
M  V30 BEGIN COLLECTION
M  V30 MDLV30/STEABS ATOMS=(3 8 9 11)
M  V30 END COLLECTION
M  V30 END CTAB
M  END
>  <Column 1>
2310

>  <level_0>
2491

>  <index>
2491

>  <Unnamed: 0>
2491

>  <NO.>
2503

>  <Name>
balaperidone

>  <IUPAC_name>
3-[2-[(1s-5r-6s)-6-(4-fluorophenyl)-3-azabicyclo[3.2.0]heptan-3-yl]ethyl]-1h-quinazoline-2-4-dione

>  <SMILES>
O=c1[nH]c2ccccc2c(=O)n1CCN1C[C@H]2C[C@H](c3ccc(F)cc3)[C@H]2C1

>  <CID>
184841

>  <logBB>


>  <BBB+/BBB->
BBB+

>  <Inchi>
InChI=1S/C22H22FN3O2/c23-16-7-5-14(6-8-16)18-11-15-12-25(13-19(15)18)9-10-26-21(27)17-3-1-2-4-20(17)24-22(26)28/h1-8-15-18-19H-9-13H2-(H-24-28)/t15--18--19+/m1/s1

>  <threshold>
-1

>  <reference>
R1|R6|R27|R30|

>  <group>
B

>  <Class>
1

>  <ABC>
22.67

>  <ABCGG>
16.65

>  <nAcid>
0

>  <nBase>
1

>  <nAromAtom>
16

>  <nAromBond>
17

>  <nAtom>
50

>  <nHeavyAtom>
28

>  <nSpiro>
0

>  <nBridgehead>
0

>  <nHetero>
6

>  <nN>
3

>  <nO>
2

>  <nF>
1

>  <BalabanJ>
1.11

>  <BertzCT>
1134.97

>  <nBonds>
54

>  <nBondsO>
32

>  <nBondsS>
35

>  <nBondsD>
2

>  <nBondsT>
0

>  <nBondsA>
17

>  <nBondsM>
19

>  <nBondsKS>
46

>  <nBondsKD>
8

>  <RNCG>
0.15

>  <RPCG>
0.16

>  <FCSP3>
0.36

>  <SZ>
33.33

>  <Sm>
31.59

>  <Sv>
32.31

>  <Sse>
50.37

>  <Sp>
34.05

>  <Si>
56.41

>  <MZ>
0.67

>  <Mm>
0.63

>  <Mv>
0.65

>  <Mse>
1.01

>  <Mp>
0.68

>  <Mi>
1.13

>  <NsCH3>
0

>  <NdCH2>
0

>  <NssCH2>
5

>  <NtCH>
0

>  <NdsCH>
0

>  <NaaCH>
8

>  <NsssCH>
3

>  <NddC>
0

>  <NtsC>
0

>  <NdssC>
0

>  <NaasC>
2

>  <NaaaC>
2

>  <NssssC>
0

>  <NsNH3>
0

>  <NsNH2>
0

>  <NssNH2>
0

>  <NdNH>
0

>  <NssNH>
0

>  <NaaNH>
1

>  <NtN>
0

>  <NsssNH>
0

>  <NdsN>
0

>  <NaaN>
0

>  <NsssN>
1

>  <NddsN>
0

>  <NaasN>
1

>  <NssssN>
0

>  <NsOH>
0

>  <NdO>
2

>  <NssO>
0

>  <NaaO>
0

>  <NsF>
1

>  <NsSiH3>
0

>  <NssSiH2>
0

>  <NsssSiH>
0

>  <NssssSi>
0

>  <NsPH2>
0

>  <NssPH>
0

>  <NsssP>
0

>  <NdsssP>
0

>  <NsssssP>
0

>  <NsSH>
0

>  <NdS>
0

>  <NssS>
0

>  <NaaS>
0

>  <NdssS>
0

>  <NddssS>
0

>  <NsCl>
0

>  <NsBr>
0

>  <NsI>
0

>  <fragCpx>
268.06

>  <fMF>
0.5

>  <nHBAcc>
4

>  <nHBDon>
1

>  <Kier1>
19.93

>  <Kier2>
8.26

>  <Lipinski>
1

>  <GhoseFilter>
1

>  <FilterItLogS>
-4.96

>  <VMcGowan>
275.58

>  <LabuteASA>
160.98

>  <PEOE_VSA1>
9.88

>  <PEOE_VSA2>
9.36

>  <PEOE_VSA3>
9.18

>  <PEOE_VSA4>
0

>  <PEOE_VSA5>
0

>  <PEOE_VSA6>
24.27

>  <PEOE_VSA7>
54

>  <PEOE_VSA8>
26.18

>  <PEOE_VSA9>
10.9

>  <PEOE_VSA10>
5.82

>  <PEOE_VSA11>
0

>  <PEOE_VSA12>
0

>  <PEOE_VSA13>
5.56

>  <SMR_VSA1>
4.39

>  <SMR_VSA2>
0

>  <SMR_VSA3>
14.45

>  <SMR_VSA4>
11.84

>  <SMR_VSA5>
18.88

>  <SMR_VSA6>
19.63

>  <SMR_VSA7>
80.75

>  <SMR_VSA8>
0

>  <SMR_VSA9>
0

>  <SlogP_VSA1>
11.25

>  <SlogP_VSA2>
34.09

>  <SlogP_VSA3>
6.54

>  <SlogP_VSA4>
17.65

>  <SlogP_VSA5>
17.9

>  <SlogP_VSA6>
58.12

>  <SlogP_VSA7>
0

>  <SlogP_VSA8>
10.9

>  <SlogP_VSA9>
0

>  <SlogP_VSA10>
4.39

>  <SlogP_VSA11>
0

>  <EState_VSA1>
0

>  <EState_VSA2>
17.07

>  <EState_VSA3>
41.75

>  <EState_VSA4>
19.51

>  <EState_VSA5>
22.26

>  <EState_VSA6>
24.27

>  <EState_VSA7>
12.13

>  <EState_VSA8>
9.88

>  <EState_VSA9>
0

>  <EState_VSA10>
13.98

>  <VSA_EState1>
14.47

>  <VSA_EState2>
30.12

>  <VSA_EState3>
0.54

>  <VSA_EState4>
1.21

>  <VSA_EState5>
1.53

>  <VSA_EState6>
13.96

>  <VSA_EState7>
1.13

>  <VSA_EState8>
3.04

>  <VSA_EState9>
0

>  <apol>
56.87

>  <bpol>
28.91

>  <nRing>
5

>  <nHRing>
2

>  <naRing>
3

>  <naHRing>
1

>  <nARing 2>
2

>  <nAHRing 2>
1

>  <nFRing>
2

>  <nFHRing>
2

>  <nFaRing>
1

>  <nFaHRing>
1

>  <nFARing 2>
1

>  <nFAHRing 2>
1

>  <nRot>
4

>  <SLogP>
2.56

>  <SMR>
106.01

>  <TopoPSA(NO)>
58.1

>  <TopoPSA>
58.1

>  <JGI1>
0.17

>  <JGI2>
0.08

>  <JGI3>
0.06

>  <JGI4>
0.05

>  <JGI5>
0.03

>  <Diameter>
16

>  <Radius>
8

>  <TMWC10>
138.11

>  <TSRW10>
78.55

>  <MW>
379.17

>  <AMW>
7.58

>  <WPath>
2272

>  <WPol>
45

>  <Zagreb1>
158

>  <Zagreb2>
192

>  <mZagreb2>
5.94

>  <yes>


>  <nAR-cont>
1

>  <nHA-cont>
0.82432561

>  <MWHBN>
0.256775167

>  <MWHBN-cont>
0.947670393

>  <TPSA-cont>
0.594425922

>  <pka_cont>
0.97

>  <yes.1>


>  <BBB_SCORE>
4.919683044

>  <MMFF94 Energy>
0.58368

$$$$
Compound 1898
Actelion Java MolfileCreator 2.0

  0  0  0  0  0  0              0 V3000
M  V30 BEGIN CTAB
M  V30 COUNTS 52 56 0 0 0
M  V30 BEGIN ATOM
M  V30 1 F -5.3957 1.3669 7.738 0
M  V30 2 C -4.6587 1.5171 6.629 0
M  V30 3 C -5.2463 2.0893 5.5028 0
M  V30 4 C -3.3293 1.0944 6.6421 0
M  V30 5 C -4.4184 2.2109 4.3925 0
M  V30 6 C -2.5234 1.2333 5.5032 0
M  V30 7 O -4.7656 2.7331 3.1867 0
M  V30 8 C -3.0938 1.8091 4.3538 0
M  V30 9 N -3.6782 2.6854 2.3295 0
M  V30 10 C -2.6815 2.1321 3.0349 0
M  V30 11 C -1.3446 1.9271 2.4091 0
M  V30 12 C -1.1705 0.503 1.8748 0
M  V30 13 C 0.2178 0.3201 1.2495 0
M  V30 14 N 0.4883 -1.0775 0.8681 0
M  V30 15 C 1.9178 -1.2939 0.591 0
M  V30 16 C -0.3265 -1.5541 -0.2601 0
M  V30 17 C 2.3993 -0.6616 -0.7146 0
M  V30 18 C 0.0511 -0.9375 -1.6071 0
M  V30 19 C 1.5436 -1.134 -1.896 0
M  V30 20 N 1.9389 -0.497 -3.1408 0
M  V30 21 C 1.9042 0.8916 -3.4076 0
M  V30 22 C 2.3922 -1.1584 -4.2957 0
M  V30 23 O 1.5618 1.795 -2.6631 0
M  V30 24 N 2.3474 1.057 -4.7276 0
M  V30 25 C 2.6423 -0.1875 -5.2669 0
M  V30 26 C 2.5965 -2.4963 -4.5592 0
M  V30 27 C 3.1011 -0.4941 -6.5277 0
M  V30 28 C 3.0637 -2.8363 -5.8353 0
M  V30 29 C 3.3133 -1.8463 -6.8086 0
M  V30 30 H -6.2773 2.4154 5.4949 0
M  V30 31 H -2.923 0.6533 7.5484 0
M  V30 32 H -1.4896 0.9013 5.5141 0
M  V30 33 H -0.5656 2.1438 3.1508 0
M  V30 34 H -1.2034 2.6471 1.5929 0
M  V30 35 H -1.3061 -0.218 2.6912 0
M  V30 36 H -1.9567 0.3027 1.1378 0
M  V30 37 H 0.3379 1.0081 0.4049 0
M  V30 38 H 0.9547 0.6233 2.005 0
M  V30 39 H 2.5269 -0.9277 1.4267 0
M  V30 40 H 2.1025 -2.3756 0.5537 0
M  V30 41 H -0.2086 -2.6441 -0.3271 0
M  V30 42 H -1.3941 -1.4031 -0.0705 0
M  V30 43 H 2.3801 0.4302 -0.6245 0
M  V30 44 H 3.4479 -0.9339 -0.8871 0
M  V30 45 H -0.5417 -1.4079 -2.4015 0
M  V30 46 H -0.2162 0.1251 -1.6194 0
M  V30 47 H 1.7124 -2.2126 -1.9991 0
M  V30 48 H 2.4202 1.9523 -5.1814 0
M  V30 49 H 2.4094 -3.2687 -3.8241 0
M  V30 50 H 3.2897 0.2706 -7.2709 0
M  V30 51 H 3.2373 -3.882 -6.0823 0
M  V30 52 H 3.6754 -2.1421 -7.7911 0
M  V30 END ATOM
M  V30 BEGIN BOND
M  V30 1 1 1 2
M  V30 2 2 2 3
M  V30 3 1 2 4
M  V30 4 1 3 5
M  V30 5 2 4 6
M  V30 6 1 5 7
M  V30 7 2 5 8
M  V30 8 1 7 9
M  V30 9 1 8 10
M  V30 10 1 10 11
M  V30 11 1 11 12
M  V30 12 1 12 13
M  V30 13 1 13 14
M  V30 14 1 14 15
M  V30 15 1 14 16
M  V30 16 1 15 17
M  V30 17 1 16 18
M  V30 18 1 17 19
M  V30 19 1 19 20
M  V30 20 1 20 21
M  V30 21 1 20 22
M  V30 22 2 21 23
M  V30 23 1 21 24
M  V30 24 2 22 25
M  V30 25 1 22 26
M  V30 26 1 25 27
M  V30 27 2 26 28
M  V30 28 2 27 29
M  V30 29 1 6 8
M  V30 30 2 9 10
M  V30 31 1 18 19
M  V30 32 1 24 25
M  V30 33 1 28 29
M  V30 34 1 3 30
M  V30 35 1 4 31
M  V30 36 1 6 32
M  V30 37 1 11 33
M  V30 38 1 11 34
M  V30 39 1 12 35
M  V30 40 1 12 36
M  V30 41 1 13 37
M  V30 42 1 13 38
M  V30 43 1 15 39
M  V30 44 1 15 40
M  V30 45 1 16 41
M  V30 46 1 16 42
M  V30 47 1 17 43
M  V30 48 1 17 44
M  V30 49 1 18 45
M  V30 50 1 18 46
M  V30 51 1 19 47
M  V30 52 1 24 48
M  V30 53 1 26 49
M  V30 54 1 27 50
M  V30 55 1 28 51
M  V30 56 1 29 52
M  V30 END BOND
M  V30 END CTAB
M  END
>  <Column 1>
2312

>  <level_0>
2493

>  <index>
2493

>  <Unnamed: 0>
2493

>  <NO.>
2505

>  <Name>
neflumozide

>  <IUPAC_name>
3-[1-[3-(6-fluoro-1-2-benzoxazol-3-yl)propyl]piperidin-4-yl]-1h-benzimidazol-2-one

>  <SMILES>
O=c1[nH]c2ccccc2n1C1CCN(CCCc2noc3cc(F)ccc23)CC1

>  <CID>
55463

>  <logBB>


>  <BBB+/BBB->
BBB+

>  <Inchi>
InChI=1S/C22H23FN4O2/c23-15-7-8-17-18(25-29-21(17)14-15)5-3-11-26-12-9-16(10-13-26)27-20-6-2-1-4-19(20)24-22(27)28/h1-2-4-6-8-14-16H-3-5-9-13H2-(H-24-28)

>  <threshold>
-1

>  <reference>
R1|R13|R19|R6|R24|R27|R27|R27|R30|R30|

>  <group>
B

>  <Class>
1

>  <ABC>
23.31

>  <ABCGG>
16.89

>  <nAcid>
0

>  <nBase>
1

>  <nAromAtom>
18

>  <nAromBond>
20

>  <nAtom>
52

>  <nHeavyAtom>
29

>  <nSpiro>
0

>  <nBridgehead>
0

>  <nHetero>
7

>  <nN>
4

>  <nO>
2

>  <nF>
1

>  <BalabanJ>
1.04

>  <BertzCT>
1200.44

>  <nBonds>
56

>  <nBondsO>
33

>  <nBondsS>
35

>  <nBondsD>
1

>  <nBondsT>
0

>  <nBondsA>
20

>  <nBondsM>
21

>  <nBondsKS>
48

>  <nBondsKD>
8

>  <RNCG>
0.17

>  <RPCG>
0.15

>  <FCSP3>
0.36

>  <SZ>
34.67

>  <Sm>
32.84

>  <Sv>
33.34

>  <Sse>
52.48

>  <Sp>
35.11

>  <Si>
58.9

>  <MZ>
0.67

>  <Mm>
0.63

>  <Mv>
0.64

>  <Mse>
1.01

>  <Mp>
0.68

>  <Mi>
1.13

>  <NsCH3>
0

>  <NdCH2>
0

>  <NssCH2>
7

>  <NtCH>
0

>  <NdsCH>
0

>  <NaaCH>
7

>  <NsssCH>
1

>  <NddC>
0

>  <NtsC>
0

>  <NdssC>
0

>  <NaasC>
2

>  <NaaaC>
4

>  <NssssC>
0

>  <NsNH3>
0

>  <NsNH2>
0

>  <NssNH2>
0

>  <NdNH>
0

>  <NssNH>
0

>  <NaaNH>
1

>  <NtN>
0

>  <NsssNH>
0

>  <NdsN>
0

>  <NaaN>
1

>  <NsssN>
1

>  <NddsN>
0

>  <NaasN>
1

>  <NssssN>
0

>  <NsOH>
0

>  <NdO>
1

>  <NssO>
0

>  <NaaO>
1

>  <NsF>
1

>  <NsSiH3>
0

>  <NssSiH2>
0

>  <NsssSiH>
0

>  <NssssSi>
0

>  <NsPH2>
0

>  <NssPH>
0

>  <NsssP>
0

>  <NdsssP>
0

>  <NsssssP>
0

>  <NsSH>
0

>  <NdS>
0

>  <NssS>
0

>  <NaaS>
0

>  <NdssS>
0

>  <NddssS>
0

>  <NsCl>
0

>  <NsBr>
0

>  <NsI>
0

>  <fragCpx>
277.07

>  <fMF>
0.52

>  <nHBAcc>
5

>  <nHBDon>
1

>  <Kier1>
20.88

>  <Kier2>
9.24

>  <Lipinski>
1

>  <GhoseFilter>
1

>  <FilterItLogS>
-5.88

>  <VMcGowan>
285.56

>  <LabuteASA>
166.46

>  <PEOE_VSA1>
14.41

>  <PEOE_VSA2>
4.57

>  <PEOE_VSA3>
9.18

>  <PEOE_VSA4>
0

>  <PEOE_VSA5>
0

>  <PEOE_VSA6>
17.29

>  <PEOE_VSA7>
56.49

>  <PEOE_VSA8>
30.58

>  <PEOE_VSA9>
16.73

>  <PEOE_VSA10>
5.82

>  <PEOE_VSA11>
5.58

>  <PEOE_VSA12>
0

>  <PEOE_VSA13>
0

>  <SMR_VSA1>
8.91

>  <SMR_VSA2>
0

>  <SMR_VSA3>
19.61

>  <SMR_VSA4>
0

>  <SMR_VSA5>
31.73

>  <SMR_VSA6>
19.63

>  <SMR_VSA7>
64.46

>  <SMR_VSA8>
0

>  <SMR_VSA9>
0

>  <SlogP_VSA1>
5.69

>  <SlogP_VSA2>
39.24

>  <SlogP_VSA3>
6.42

>  <SlogP_VSA4>
5.82

>  <SlogP_VSA5>
31

>  <SlogP_VSA6>
51.78

>  <SlogP_VSA7>
0

>  <SlogP_VSA8>
22

>  <SlogP_VSA9>
0

>  <SlogP_VSA10>
4.39

>  <SlogP_VSA11>
0

>  <EState_VSA1>
0

>  <EState_VSA2>
17.55

>  <EState_VSA3>
5.58

>  <EState_VSA4>
67.43

>  <EState_VSA5>
12.13

>  <EState_VSA6>
6.07

>  <EState_VSA7>
28.83

>  <EState_VSA8>
15.04

>  <EState_VSA9>
4.52

>  <EState_VSA10>
9.18

>  <VSA_EState1>
20.43

>  <VSA_EState2>
17.81

>  <VSA_EState3>
4.99

>  <VSA_EState4>
3.27

>  <VSA_EState5>
-0.31

>  <VSA_EState6>
12.68

>  <VSA_EState7>
3.71

>  <VSA_EState8>
2.92

>  <VSA_EState9>
0

>  <apol>
58.64

>  <bpol>
30.78

>  <nRing>
5

>  <nHRing>
3

>  <naRing>
4

>  <naHRing>
2

>  <nARing 2>
1

>  <nAHRing 2>
1

>  <nFRing>
2

>  <nFHRing>
2

>  <nFaRing>
2

>  <nFaHRing>
2

>  <nFARing 2>
0

>  <nFAHRing 2>
0

>  <nRot>
5

>  <SLogP>
3.88

>  <SMR>
109.56

>  <TopoPSA(NO)>
67.06

>  <TopoPSA>
67.06

>  <JGI1>
0.15

>  <JGI2>
0.07

>  <JGI3>
0.05

>  <JGI4>
0.03

>  <JGI5>
0.02

>  <Diameter>
17

>  <Radius>
9

>  <TMWC10>
139.73

>  <TSRW10>
81.01

>  <MW>
394.18

>  <AMW>
7.58

>  <WPath>
2647

>  <WPol>
46

>  <Zagreb1>
160

>  <Zagreb2>
192

>  <mZagreb2>
6.25

>  <yes>


>  <nAR-cont>
0.816016

>  <nHA-cont>
0.785905698

>  <MWHBN>
0.302206609

>  <MWHBN-cont>
0.834096235

>  <TPSA-cont>
0.531879558

>  <pka_cont>
0.97

>  <yes.1>


>  <BBB_SCORE>
4.401825168

>  <MMFF94 Energy>
-6.3961

$$$$
Compound 1899
Actelion Java MolfileCreator 2.0

  0  0  0  0  0  0              0 V3000
M  V30 BEGIN CTAB
M  V30 COUNTS 48 51 0 0 0
M  V30 BEGIN ATOM
M  V30 1 O 0.4775 2.3098 -2.3896 0
M  V30 2 C 0.8502 1.431 -3.1489 0
M  V30 3 N 0.7312 0.0303 -2.9926 0
M  V30 4 N 1.495 1.6438 -4.3759 0
M  V30 5 C 1.2967 -0.5905 -4.1203 0
M  V30 6 C 0.1133 -0.6509 -1.8671 0
M  V30 7 C 1.7653 0.4165 -4.9656 0
M  V30 8 C 1.4306 -1.9208 -4.4574 0
M  V30 9 C 0.8383 -0.3481 -0.5496 0
M  V30 10 C -1.3824 -0.3298 -1.7611 0
M  V30 11 C 2.3806 0.1547 -6.1685 0
M  V30 12 C 2.0537 -2.2155 -5.677 0
M  V30 13 C 0.1282 -1.0221 0.6232 0
M  V30 14 C -1.9972 -0.99 -0.526 0
M  V30 15 C 2.5235 -1.1892 -6.523 0
M  V30 16 N -1.294 -0.678 0.7269 0
M  V30 17 C -1.5557 0.7114 1.1646 0
M  V30 18 C -1.011 1.0962 2.5553 0
M  V30 19 O -1.5996 0.2592 3.5521 0
M  V30 20 C -1.1991 0.4516 4.845 0
M  V30 21 C -0.3235 1.4396 5.2975 0
M  V30 22 C -1.7497 -0.4452 5.7645 0
M  V30 23 C -0.0014 1.524 6.6562 0
M  V30 24 C -1.4291 -0.3623 7.1206 0
M  V30 25 C -0.5531 0.624 7.5667 0
M  V30 26 H 1.7087 2.5569 -4.7411 0
M  V30 27 H 0.1984 -1.7311 -2.0365 0
M  V30 28 H 1.0756 -2.7206 -3.8199 0
M  V30 29 H 0.9038 0.7311 -0.3719 0
M  V30 30 H 1.8723 -0.7104 -0.6076 0
M  V30 31 H -1.9003 -0.6861 -2.6603 0
M  V30 32 H -1.5496 0.7527 -1.7251 0
M  V30 33 H 2.7387 0.9474 -6.814 0
M  V30 34 H 2.1783 -3.2538 -5.9788 0
M  V30 35 H 0.6592 -0.8068 1.5561 0
M  V30 36 H 0.2089 -2.1113 0.5052 0
M  V30 37 H -1.9905 -2.0793 -0.664 0
M  V30 38 H -3.0567 -0.7163 -0.4479 0
M  V30 39 H 3.0032 -1.4502 -7.4642 0
M  V30 40 H -2.6447 0.845 1.2079 0
M  V30 41 H -1.1725 1.435 0.4364 0
M  V30 42 H 0.0814 1.0176 2.5745 0
M  V30 43 H -1.2931 2.1392 2.7477 0
M  V30 44 H 0.1236 2.1609 4.6223 0
M  V30 45 H -2.4333 -1.2162 5.4172 0
M  V30 46 H 0.681 2.2955 7.0035 0
M  V30 47 H -1.8637 -1.067 7.8243 0
M  V30 48 H -0.3013 0.6922 8.6217 0
M  V30 END ATOM
M  V30 BEGIN BOND
M  V30 1 2 1 2
M  V30 2 1 2 3
M  V30 3 1 2 4
M  V30 4 1 3 5
M  V30 5 1 3 6
M  V30 6 1 4 7
M  V30 7 1 5 8
M  V30 8 1 6 9
M  V30 9 1 6 10
M  V30 10 1 7 11
M  V30 11 2 8 12
M  V30 12 1 9 13
M  V30 13 1 10 14
M  V30 14 2 11 15
M  V30 15 1 13 16
M  V30 16 1 16 17
M  V30 17 1 17 18
M  V30 18 1 18 19
M  V30 19 1 19 20
M  V30 20 2 20 21
M  V30 21 1 20 22
M  V30 22 1 21 23
M  V30 23 2 22 24
M  V30 24 2 23 25
M  V30 25 2 5 7
M  V30 26 1 12 15
M  V30 27 1 14 16
M  V30 28 1 24 25
M  V30 29 1 4 26
M  V30 30 1 6 27
M  V30 31 1 8 28
M  V30 32 1 9 29
M  V30 33 1 9 30
M  V30 34 1 10 31
M  V30 35 1 10 32
M  V30 36 1 11 33
M  V30 37 1 12 34
M  V30 38 1 13 35
M  V30 39 1 13 36
M  V30 40 1 14 37
M  V30 41 1 14 38
M  V30 42 1 15 39
M  V30 43 1 17 40
M  V30 44 1 17 41
M  V30 45 1 18 42
M  V30 46 1 18 43
M  V30 47 1 21 44
M  V30 48 1 22 45
M  V30 49 1 23 46
M  V30 50 1 24 47
M  V30 51 1 25 48
M  V30 END BOND
M  V30 END CTAB
M  END
>  <Column 1>
2313

>  <level_0>
2494

>  <index>
2494

>  <Unnamed: 0>
2494

>  <NO.>
2506

>  <Name>
oxiperomide

>  <IUPAC_name>
3-[1-(2-phenoxyethyl)piperidin-4-yl]-1h-benzimidazol-2-one

>  <SMILES>
O=c1[nH]c2ccccc2n1C1CCN(CCOc2ccccc2)CC1

>  <CID>
68634

>  <logBB>


>  <BBB+/BBB->
BBB+

>  <Inchi>
InChI=1S/C20H23N3O2/c24-20-21-18-8-4-5-9-19(18)23(20)16-10-12-22(13-11-16)14-15-25-17-6-2-1-3-7-17/h1-9-16H-10-15H2-(H-21-24)

>  <threshold>
-1

>  <reference>
R1|R13|R19|R6|R24|R27|R27|R27|R30|R30|

>  <group>
B

>  <Class>
-1

>  <ABC>
19.75

>  <ABCGG>
14.51

>  <nAcid>
0

>  <nBase>
1

>  <nAromAtom>
15

>  <nAromBond>
16

>  <nAtom>
48

>  <nHeavyAtom>
25

>  <nSpiro>
0

>  <nBridgehead>
0

>  <nHetero>
5

>  <nN>
3

>  <nO>
2

>  <nF>
0

>  <BalabanJ>
1.19

>  <BertzCT>
876.6

>  <nBonds>
51

>  <nBondsO>
28

>  <nBondsS>
34

>  <nBondsD>
1

>  <nBondsT>
0

>  <nBondsA>
16

>  <nBondsM>
17

>  <nBondsKS>
44

>  <nBondsKD>
7

>  <RNCG>
0.24

>  <RPCG>
0.16

>  <FCSP3>
0.35

>  <SZ>
30

>  <Sm>
28.09

>  <Sv>
29.93

>  <Sse>
47.86

>  <Sp>
32.12

>  <Si>
54.07

>  <MZ>
0.63

>  <Mm>
0.59

>  <Mv>
0.62

>  <Mse>
1

>  <Mp>
0.67

>  <Mi>
1.13

>  <NsCH3>
0

>  <NdCH2>
0

>  <NssCH2>
6

>  <NtCH>
0

>  <NdsCH>
0

>  <NaaCH>
9

>  <NsssCH>
1

>  <NddC>
0

>  <NtsC>
0

>  <NdssC>
0

>  <NaasC>
1

>  <NaaaC>
2

>  <NssssC>
0

>  <NsNH3>
0

>  <NsNH2>
0

>  <NssNH2>
0

>  <NdNH>
0

>  <NssNH>
0

>  <NaaNH>
1

>  <NtN>
0

>  <NsssNH>
0

>  <NdsN>
0

>  <NaaN>
0

>  <NsssN>
1

>  <NddsN>
0

>  <NaasN>
1

>  <NssssN>
0

>  <NsOH>
0

>  <NdO>
1

>  <NssO>
1

>  <NaaO>
0

>  <NsF>
0

>  <NsSiH3>
0

>  <NssSiH2>
0

>  <NsssSiH>
0

>  <NssssSi>
0

>  <NsPH2>
0

>  <NssPH>
0

>  <NsssP>
0

>  <NdsssP>
0

>  <NsssssP>
0

>  <NsSH>
0

>  <NdS>
0

>  <NssS>
0

>  <NaaS>
0

>  <NdssS>
0

>  <NddssS>
0

>  <NsCl>
0

>  <NsBr>
0

>  <NsI>
0

>  <fragCpx>
184.05

>  <fMF>
0.5

>  <nHBAcc>
4

>  <nHBDon>
1

>  <Kier1>
18.37

>  <Kier2>
8.79

>  <Lipinski>
1

>  <GhoseFilter>
1

>  <FilterItLogS>
-4.16

>  <VMcGowan>
260.8

>  <LabuteASA>
146.39

>  <PEOE_VSA1>
9.72

>  <PEOE_VSA2>
9.47

>  <PEOE_VSA3>
4.79

>  <PEOE_VSA4>
0

>  <PEOE_VSA5>
0

>  <PEOE_VSA6>
30.33

>  <PEOE_VSA7>
37.11

>  <PEOE_VSA8>
25.68

>  <PEOE_VSA9>
11.03

>  <PEOE_VSA10>
12.36

>  <PEOE_VSA11>
0

>  <PEOE_VSA12>
0

>  <PEOE_VSA13>
0

>  <SMR_VSA1>
4.74

>  <SMR_VSA2>
0

>  <SMR_VSA3>
14.45

>  <SMR_VSA4>
0

>  <SMR_VSA5>
18.88

>  <SMR_VSA6>
26.24

>  <SMR_VSA7>
65.08

>  <SMR_VSA8>
0

>  <SMR_VSA9>
5.75

>  <SlogP_VSA1>
10.43

>  <SlogP_VSA2>
40.69

>  <SlogP_VSA3>
0

>  <SlogP_VSA4>
0

>  <SlogP_VSA5>
18.88

>  <SlogP_VSA6>
59.39

>  <SlogP_VSA7>
0

>  <SlogP_VSA8>
11.03

>  <SlogP_VSA9>
0

>  <SlogP_VSA10>
0

>  <SlogP_VSA11>
5.75

>  <EState_VSA1>
0

>  <EState_VSA2>
11.73

>  <EState_VSA3>
6.61

>  <EState_VSA4>
49.26

>  <EState_VSA5>
0

>  <EState_VSA6>
0

>  <EState_VSA7>
59.16

>  <EState_VSA8>
9.88

>  <EState_VSA9>
4.74

>  <EState_VSA10>
4.79

>  <VSA_EState1>
7.72

>  <VSA_EState2>
17.7

>  <VSA_EState3>
0

>  <VSA_EState4>
1.94

>  <VSA_EState5>
0.92

>  <VSA_EState6>
18.13

>  <VSA_EState7>
1.99

>  <VSA_EState8>
3.61

>  <VSA_EState9>
0

>  <apol>
53.64

>  <bpol>
29.67

>  <nRing>
4

>  <nHRing>
2

>  <naRing>
3

>  <naHRing>
1

>  <nARing 2>
1

>  <nAHRing 2>
1

>  <nFRing>
1

>  <nFHRing>
1

>  <nFaRing>
1

>  <nFaHRing>
1

>  <nFARing 2>
0

>  <nFAHRing 2>
0

>  <nRot>
5

>  <SLogP>
3.05

>  <SMR>
99.21

>  <TopoPSA(NO)>
50.26

>  <TopoPSA>
50.26

>  <JGI1>
0.13

>  <JGI2>
0.06

>  <JGI3>
0.05

>  <JGI4>
0.03

>  <JGI5>
0.02

>  <Diameter>
15

>  <Radius>
8

>  <TMWC10>
128.34

>  <TSRW10>
74.02

>  <MW>
337.18

>  <AMW>
7.02

>  <WPath>
1744

>  <WPol>
37

>  <Zagreb1>
132

>  <Zagreb2>
155

>  <mZagreb2>
5.53

>  <yes>


>  <nAR-cont>
0.816016

>  <nHA-cont>
0.921834225

>  <MWHBN>
0.272294645

>  <MWHBN-cont>
0.914830282

>  <TPSA-cont>
0.64915399

>  <pka_cont>
0.97

>  <yes.1>


>  <BBB_SCORE>
4.893403628

>  <MMFF94 Energy>
21.856

$$$$
Compound 1900
Actelion Java MolfileCreator 2.0

  0  0  0  0  0  0              0 V3000
M  V30 BEGIN CTAB
M  V30 COUNTS 37 40 0 0 0
M  V30 BEGIN ATOM
M  V30 1 O 0.4063 0.6501 3.9872 0
M  V30 2 C -0.4943 0.4779 3.1724 0
M  V30 3 O -1.7593 0.9982 3.4023 0
M  V30 4 C -0.2888 -0.3191 1.9302 0
M  V30 5 C -2.8523 0.6484 2.5963 0
M  V30 6 C -1.3486 -0.6751 1.1786 0
M  V30 7 C 1.1424 -0.719 1.6531 0
M  V30 8 C -2.692 -0.1933 1.5027 0
M  V30 9 C -4.0956 1.1688 2.9559 0
M  V30 10 O -1.2835 -1.4885 0.0653 0
M  V30 11 C 1.6927 -0.1487 0.3634 0
M  V30 12 C -3.8283 -0.5196 0.7517 0
M  V30 13 C -5.2169 0.8366 2.2003 0
M  V30 14 C 2.1615 1.2565 0.4153 0
M  V30 15 C 1.8127 -0.864 -0.7654 0
M  V30 16 C -5.0839 -0.0084 1.099 0
M  V30 17 O 2.0064 1.9519 1.4116 0
M  V30 18 O 2.8051 1.7521 -0.7089 0
M  V30 19 O 1.3831 -2.1791 -0.8019 0
M  V30 20 C 2.3711 -0.2775 -1.9851 0
M  V30 21 C 2.8784 1.0173 -1.9047 0
M  V30 22 C 2.4131 -0.9188 -3.2301 0
M  V30 23 C 3.4523 1.6626 -2.9998 0
M  V30 24 C 2.9836 -0.283 -4.3402 0
M  V30 25 C 3.5091 1.0031 -4.2232 0
M  V30 26 H 1.1911 -1.8164 1.6457 0
M  V30 27 H 1.8198 -0.4426 2.4699 0
M  V30 28 H -4.1871 1.8235 3.8179 0
M  V30 29 H -0.3747 -1.8154 -0.0734 0
M  V30 30 H -3.7457 -1.1722 -0.1144 0
M  V30 31 H -6.1924 1.2341 2.4686 0
M  V30 32 H -5.9567 -0.2699 0.5056 0
M  V30 33 H 1.9457 -2.666 -1.4318 0
M  V30 34 H 1.9901 -1.9082 -3.3777 0
M  V30 35 H 3.8396 2.673 -2.9007 0
M  V30 36 H 3.0098 -0.7908 -5.302 0
M  V30 37 H 3.9481 1.495 -5.0877 0
M  V30 END ATOM
M  V30 BEGIN BOND
M  V30 1 2 1 2
M  V30 2 1 2 3
M  V30 3 1 2 4
M  V30 4 1 3 5
M  V30 5 2 4 6
M  V30 6 1 4 7
M  V30 7 2 5 8
M  V30 8 1 5 9
M  V30 9 1 6 10
M  V30 10 1 7 11
M  V30 11 1 8 12
M  V30 12 2 9 13
M  V30 13 1 11 14
M  V30 14 2 11 15
M  V30 15 2 12 16
M  V30 16 2 14 17
M  V30 17 1 14 18
M  V30 18 1 15 19
M  V30 19 1 15 20
M  V30 20 1 18 21
M  V30 21 1 20 22
M  V30 22 1 21 23
M  V30 23 2 22 24
M  V30 24 2 23 25
M  V30 25 1 6 8
M  V30 26 1 13 16
M  V30 27 2 20 21
M  V30 28 1 24 25
M  V30 29 1 7 26
M  V30 30 1 7 27
M  V30 31 1 9 28
M  V30 32 1 10 29
M  V30 33 1 12 30
M  V30 34 1 13 31
M  V30 35 1 16 32
M  V30 36 1 19 33
M  V30 37 1 22 34
M  V30 38 1 23 35
M  V30 39 1 24 36
M  V30 40 1 25 37
M  V30 END BOND
M  V30 END CTAB
M  END
>  <Column 1>
2319

>  <level_0>
2500

>  <index>
2500

>  <Unnamed: 0>
2500

>  <NO.>
2512

>  <Name>
dicumarol

>  <IUPAC_name>
4-hydroxy-3-[(4-hydroxy-2-oxochromen-3-yl)methyl]chromen-2-one

>  <SMILES>
O=c1oc2ccccc2c(O)c1Cc1c(O)c2ccccc2oc1=O

>  <CID>
54676038

>  <logBB>


>  <BBB+/BBB->
BBB-

>  <Inchi>
InChI=1S/C19H12O6/c20-16-10-5-1-3-7-14(10)24-18(22)12(16)9-13-17(21)11-6-2-4-8-15(11)25-19(13)23/h1-8-20-21H-9H2

>  <threshold>
-1

>  <reference>
R1|R13|R14|R23|R27|R30|

>  <group>
B

>  <Class>
1

>  <ABC>
19.91

>  <ABCGG>
15.46

>  <nAcid>
0

>  <nBase>
0

>  <nAromAtom>
20

>  <nAromBond>
22

>  <nAtom>
37

>  <nHeavyAtom>
25

>  <nSpiro>
0

>  <nBridgehead>
0

>  <nHetero>
6

>  <nN>
0

>  <nO>
6

>  <nF>
0

>  <BalabanJ>
1.46

>  <BertzCT>
1135.07

>  <nBonds>
40

>  <nBondsO>
28

>  <nBondsS>
16

>  <nBondsD>
2

>  <nBondsT>
0

>  <nBondsA>
22

>  <nBondsM>
24

>  <nBondsKS>
30

>  <nBondsKD>
10

>  <RNCG>
0.19

>  <RPCG>
0.13

>  <FCSP3>
0.05

>  <SZ>
29

>  <Sm>
28

>  <Sv>
26.54

>  <Sse>
38.31

>  <Sp>
26.67

>  <Si>
40.75

>  <MZ>
0.78

>  <Mm>
0.76

>  <Mv>
0.72

>  <Mse>
1.04

>  <Mp>
0.72

>  <Mi>
1.1

>  <NsCH3>
0

>  <NdCH2>
0

>  <NssCH2>
1

>  <NtCH>
0

>  <NdsCH>
0

>  <NaaCH>
8

>  <NsssCH>
0

>  <NddC>
0

>  <NtsC>
0

>  <NdssC>
0

>  <NaasC>
4

>  <NaaaC>
4

>  <NssssC>
0

>  <NsNH3>
0

>  <NsNH2>
0

>  <NssNH2>
0

>  <NdNH>
0

>  <NssNH>
0

>  <NaaNH>
0

>  <NtN>
0

>  <NsssNH>
0

>  <NdsN>
0

>  <NaaN>
0

>  <NsssN>
0

>  <NddsN>
0

>  <NaasN>
0

>  <NssssN>
0

>  <NsOH>
2

>  <NdO>
2

>  <NssO>
0

>  <NaaO>
2

>  <NsF>
0

>  <NsSiH3>
0

>  <NssSiH2>
0

>  <NsssSiH>
0

>  <NssssSi>
0

>  <NsPH2>
0

>  <NssPH>
0

>  <NsssP>
0

>  <NdsssP>
0

>  <NsssssP>
0

>  <NsSH>
0

>  <NdS>
0

>  <NssS>
0

>  <NaaS>
0

>  <NdssS>
0

>  <NddssS>
0

>  <NsCl>
0

>  <NsBr>
0

>  <NsI>
0

>  <fragCpx>
184.06

>  <fMF>
0.57

>  <nHBAcc>
6

>  <nHBDon>
2

>  <Kier1>
18.37

>  <Kier2>
7.55

>  <Lipinski>
1

>  <GhoseFilter>
1

>  <FilterItLogS>
-5.36

>  <VMcGowan>
227.35

>  <LabuteASA>
139.74

>  <PEOE_VSA1>
19.05

>  <PEOE_VSA2>
0

>  <PEOE_VSA3>
9.59

>  <PEOE_VSA4>
0

>  <PEOE_VSA5>
0

>  <PEOE_VSA6>
24.27

>  <PEOE_VSA7>
24.27

>  <PEOE_VSA8>
6.42

>  <PEOE_VSA9>
21.9

>  <PEOE_VSA10>
22.67

>  <PEOE_VSA11>
0

>  <PEOE_VSA12>
0

>  <PEOE_VSA13>
0

>  <SMR_VSA1>
19.05

>  <SMR_VSA2>
0

>  <SMR_VSA3>
0

>  <SMR_VSA4>
0

>  <SMR_VSA5>
6.42

>  <SMR_VSA6>
0

>  <SMR_VSA7>
80.5

>  <SMR_VSA8>
0

>  <SMR_VSA9>
11.5

>  <SlogP_VSA1>
11.25

>  <SlogP_VSA2>
10.21

>  <SlogP_VSA3>
6.42

>  <SlogP_VSA4>
0

>  <SlogP_VSA5>
11.13

>  <SlogP_VSA6>
66.95

>  <SlogP_VSA7>
0

>  <SlogP_VSA8>
21.94

>  <SlogP_VSA9>
0

>  <SlogP_VSA10>
0

>  <SlogP_VSA11>
11.5

>  <EState_VSA1>
11.25

>  <EState_VSA2>
40.21

>  <EState_VSA3>
10.77

>  <EState_VSA4>
0

>  <EState_VSA5>
0

>  <EState_VSA6>
48.53

>  <EState_VSA7>
0

>  <EState_VSA8>
0

>  <EState_VSA9>
8.83

>  <EState_VSA10>
19.8

>  <VSA_EState1>
10.37

>  <VSA_EState2>
24.41

>  <VSA_EState3>
21.52

>  <VSA_EState4>
-1.3

>  <VSA_EState5>
-0.56

>  <VSA_EState6>
13.04

>  <VSA_EState7>
-0.31

>  <VSA_EState8>
0

>  <VSA_EState9>
0

>  <apol>
44.54

>  <bpol>
17.25

>  <nRing>
4

>  <nHRing>
2

>  <naRing>
4

>  <naHRing>
2

>  <nARing 2>
0

>  <nAHRing 2>
0

>  <nFRing>
2

>  <nFHRing>
2

>  <nFaRing>
2

>  <nFaHRing>
2

>  <nFARing 2>
0

>  <nFAHRing 2>
0

>  <nRot>
2

>  <SLogP>
2.9

>  <SMR>
91.1

>  <TopoPSA(NO)>
100.88

>  <TopoPSA>
100.88

>  <JGI1>
0.16

>  <JGI2>
0.09

>  <JGI3>
0.05

>  <JGI4>
0.05

>  <JGI5>
0.03

>  <Diameter>
12

>  <Radius>
6

>  <TMWC10>
129.84

>  <TSRW10>
60.43

>  <MW>
336.06

>  <AMW>
9.08

>  <WPath>
1424

>  <WPol>
46

>  <Zagreb1>
138

>  <Zagreb2>
168

>  <mZagreb2>
5.39

>  <yes>


>  <nAR-cont>
0.336376

>  <nHA-cont>
0.921834225

>  <MWHBN>
0.436396818

>  <MWHBN-cont>
0.335664282

>  <TPSA-cont>
0.295794957

>  <pka_cont>
0.97

>  <yes.1>


>  <BBB_SCORE>
2.838296562

>  <MMFF94 Energy>
53.409

$$$$
Compound 1901
Actelion Java MolfileCreator 2.0

  0  0  0  0  0  0              0 V3000
M  V30 BEGIN CTAB
M  V30 COUNTS 9 8 0 0 0
M  V30 BEGIN ATOM
M  V30 1 Br -1.3108 1.6855 0.5616 0
M  V30 2 C 0.0755 0.3236 0.3829 0
M  V30 3 Br 1.8316 1.1273 0.7613 0
M  V30 4 O -0.1367 -0.6696 1.3703 0
M  V30 5 C 0.1258 -0.2618 -1.0217 0
M  V30 6 Br -1.5054 -1.228 -1.5134 0
M  V30 7 H -0.2724 -0.1724 2.1943 0
M  V30 8 H 0.2679 0.5003 -1.7946 0
M  V30 9 H 0.9156 -1.0148 -1.1147 0
M  V30 END ATOM
M  V30 BEGIN BOND
M  V30 1 1 1 2
M  V30 2 1 2 3
M  V30 3 1 2 4
M  V30 4 1 2 5
M  V30 5 1 5 6
M  V30 6 1 4 7
M  V30 7 1 5 8
M  V30 8 1 5 9
M  V30 END BOND
M  V30 END CTAB
M  END
>  <Column 1>
2320

>  <level_0>
2501

>  <index>
2501

>  <Unnamed: 0>
2501

>  <NO.>
2513

>  <Name>
1-1-2-tribromoethanol

>  <IUPAC_name>
1-1-2-tribromoethanol

>  <SMILES>
OC(Br)(Br)CBr

>  <CID>
21917377

>  <logBB>


>  <BBB+/BBB->
BBB+

>  <Inchi>
InChI=1S/C2H3Br3O/c3-1-2(4-5)6/h6H-1H2

>  <threshold>
-1

>  <reference>
R1|R13|R27|R30|

>  <group>
B

>  <Class>
1

>  <ABC>
4.01

>  <ABCGG>
4.28

>  <nAcid>
0

>  <nBase>
0

>  <nAromAtom>
0

>  <nAromBond>
0

>  <nAtom>
9

>  <nHeavyAtom>
6

>  <nSpiro>
0

>  <nBridgehead>
0

>  <nHetero>
4

>  <nN>
0

>  <nO>
1

>  <nF>
0

>  <BalabanJ>
3.17

>  <BertzCT>
38.55

>  <nBonds>
8

>  <nBondsO>
5

>  <nBondsS>
8

>  <nBondsD>
0

>  <nBondsT>
0

>  <nBondsA>
0

>  <nBondsM>
0

>  <nBondsKS>
8

>  <nBondsKD>
0

>  <RNCG>
0.69

>  <RPCG>
0.4

>  <FCSP3>
1

>  <SZ>
21.33

>  <Sm>
23.54

>  <Sv>
7.39

>  <Sse>
9.68

>  <Sp>
9.16

>  <Si>
9.98

>  <MZ>
2.37

>  <Mm>
2.62

>  <Mv>
0.82

>  <Mse>
1.08

>  <Mp>
1.02

>  <Mi>
1.11

>  <NsCH3>
0

>  <NdCH2>
0

>  <NssCH2>
1

>  <NtCH>
0

>  <NdsCH>
0

>  <NaaCH>
0

>  <NsssCH>
0

>  <NddC>
0

>  <NtsC>
0

>  <NdssC>
0

>  <NaasC>
0

>  <NaaaC>
0

>  <NssssC>
1

>  <NsNH3>
0

>  <NsNH2>
0

>  <NssNH2>
0

>  <NdNH>
0

>  <NssNH>
0

>  <NaaNH>
0

>  <NtN>
0

>  <NsssNH>
0

>  <NdsN>
0

>  <NaaN>
0

>  <NsssN>
0

>  <NddsN>
0

>  <NaasN>
0

>  <NssssN>
0

>  <NsOH>
1

>  <NdO>
0

>  <NssO>
0

>  <NaaO>
0

>  <NsF>
0

>  <NsSiH3>
0

>  <NssSiH2>
0

>  <NsssSiH>
0

>  <NssssSi>
0

>  <NsPH2>
0

>  <NssPH>
0

>  <NsssP>
0

>  <NdsssP>
0

>  <NsssssP>
0

>  <NsSH>
0

>  <NdS>
0

>  <NssS>
0

>  <NaaS>
0

>  <NdssS>
0

>  <NddssS>
0

>  <NsCl>
0

>  <NsBr>
3

>  <NsI>
0

>  <fragCpx>
5.04

>  <fMF>
0

>  <nHBAcc>
1

>  <nHBDon>
1

>  <Kier1>
6

>  <Kier2>
1.63

>  <Lipinski>
1

>  <GhoseFilter>
0

>  <FilterItLogS>
-2.31

>  <VMcGowan>
97.41

>  <LabuteASA>
61.5

>  <PEOE_VSA1>
5.11

>  <PEOE_VSA2>
0

>  <PEOE_VSA3>
0

>  <PEOE_VSA4>
0

>  <PEOE_VSA5>
0

>  <PEOE_VSA6>
15.93

>  <PEOE_VSA7>
31.86

>  <PEOE_VSA8>
0

>  <PEOE_VSA9>
5.33

>  <PEOE_VSA10>
0

>  <PEOE_VSA11>
3.42

>  <PEOE_VSA12>
0

>  <PEOE_VSA13>
0

>  <SMR_VSA1>
5.11

>  <SMR_VSA2>
0

>  <SMR_VSA3>
0

>  <SMR_VSA4>
0

>  <SMR_VSA5>
3.42

>  <SMR_VSA6>
5.33

>  <SMR_VSA7>
0

>  <SMR_VSA8>
0

>  <SMR_VSA9>
0

>  <SlogP_VSA1>
0

>  <SlogP_VSA2>
13.86

>  <SlogP_VSA3>
0

>  <SlogP_VSA4>
0

>  <SlogP_VSA5>
0

>  <SlogP_VSA6>
0

>  <SlogP_VSA7>
0

>  <SlogP_VSA8>
0

>  <SlogP_VSA9>
0

>  <SlogP_VSA10>
0

>  <SlogP_VSA11>
0

>  <EState_VSA1>
3.42

>  <EState_VSA2>
0

>  <EState_VSA3>
5.33

>  <EState_VSA4>
0

>  <EState_VSA5>
0

>  <EState_VSA6>
0

>  <EState_VSA7>
0

>  <EState_VSA8>
47.79

>  <EState_VSA9>
5.11

>  <EState_VSA10>
0

>  <VSA_EState1>
-0.92

>  <VSA_EState2>
0

>  <VSA_EState3>
9.09

>  <VSA_EState4>
0

>  <VSA_EState5>
0

>  <VSA_EState6>
0

>  <VSA_EState7>
0

>  <VSA_EState8>
0

>  <VSA_EState9>
0

>  <apol>
15.29

>  <bpol>
7.15

>  <nRing>
0

>  <nHRing>
0

>  <naRing>
0

>  <naHRing>
0

>  <nARing 2>
0

>  <nAHRing 2>
0

>  <nFRing>
0

>  <nFHRing>
0

>  <nFaRing>
0

>  <nFaHRing>
0

>  <nFARing 2>
0

>  <nFAHRing 2>
0

>  <nRot>
1

>  <SLogP>
1.82

>  <SMR>
36.6

>  <TopoPSA(NO)>
20.23

>  <TopoPSA>
20.23

>  <JGI1>
0.6

>  <JGI2>
0.1

>  <JGI3>
0

>  <JGI4>
0

>  <JGI5>
0

>  <Diameter>
3

>  <Radius>
2

>  <TMWC10>
65.41

>  <TSRW10>
31.67

>  <MW>
279.77

>  <AMW>
31.09

>  <WPath>
28

>  <WPol>
3

>  <Zagreb1>
24

>  <Zagreb2>
22

>  <mZagreb2>
1.38

>  <yes>


>  <nAR-cont>
0.336376

>  <nHA-cont>
0.238778273

>  <MWHBN>
0.119571981

>  <MWHBN-cont>
0.827524695

>  <TPSA-cont>
0.858782038

>  <pka_cont>
0.97

>  <yes.1>


>  <BBB_SCORE>
4.019005391

>  <MMFF94 Energy>
7.6563

$$$$
Compound 1902
Actelion Java MolfileCreator 2.0

  0  0  0  0  0  0              0 V3000
M  V30 BEGIN CTAB
M  V30 COUNTS 34 36 0 0 0
M  V30 BEGIN ATOM
M  V30 1 Cl 5.4422 1.541 1.4599 0
M  V30 2 C 3.8161 1.2511 0.9788 0
M  V30 3 C 2.8103 2.1273 1.3721 0
M  V30 4 C 3.5118 0.1376 0.2015 0
M  V30 5 C 1.4905 1.8871 0.9806 0
M  V30 6 C 2.1901 -0.1017 -0.19 0
M  V30 7 C 1.1542 0.7728 0.1842 0
M  V30 8 C -0.3103 0.5303 -0.1977 0 CFG=2
M  V30 9 O -0.8477 1.825 -0.6064 0
M  V30 10 C -1.167 0.0118 0.9673 0
M  V30 11 C -0.5004 -0.3562 -1.4599 0
M  V30 12 N -2.2675 0.7609 1.2917 0
M  V30 13 C -0.8373 -1.1541 1.6588 0
M  V30 14 N -0.4371 -1.6708 -1.4506 0
M  V30 15 N -0.7271 0.1982 -2.6926 0
M  V30 16 C -3.0316 0.3291 2.3198 0
M  V30 17 C -1.6488 -1.568 2.7116 0
M  V30 18 C -0.6584 -2.0771 -2.8736 0
M  V30 19 C -0.9382 -0.8041 -3.6844 0
M  V30 20 C -2.7654 -0.8147 3.0515 0
M  V30 21 H 3.041 2.997 1.9811 0
M  V30 22 H 4.295 -0.5513 -0.103 0
M  V30 23 H 0.7128 2.5813 1.2978 0
M  V30 24 H 1.988 -0.9876 -0.7889 0
M  V30 25 H -1.7221 1.8521 -0.1627 0
M  V30 26 H 0.0312 -1.7425 1.3783 0
M  V30 27 H -0.8432 1.1973 -2.8158 0
M  V30 28 H -3.8946 0.9481 2.5488 0
M  V30 29 H -1.4105 -2.4757 3.2589 0
M  V30 30 H 0.2374 -2.5872 -3.2431 0
M  V30 31 H -1.5004 -2.7745 -2.9318 0
M  V30 32 H -1.968 -0.7858 -4.0532 0
M  V30 33 H -0.2485 -0.7001 -4.5264 0
M  V30 34 H -3.4147 -1.1147 3.8663 0
M  V30 END ATOM
M  V30 BEGIN BOND
M  V30 1 1 1 2
M  V30 2 2 2 3
M  V30 3 1 2 4
M  V30 4 1 3 5
M  V30 5 2 4 6
M  V30 6 2 5 7
M  V30 7 1 7 8
M  V30 8 1 8 9
M  V30 9 1 8 10
M  V30 10 1 8 11
M  V30 11 2 10 12
M  V30 12 1 10 13
M  V30 13 2 11 14
M  V30 14 1 11 15
M  V30 15 1 12 16
M  V30 16 2 13 17
M  V30 17 1 14 18
M  V30 18 1 15 19
M  V30 19 2 16 20
M  V30 20 1 6 7
M  V30 21 1 17 20
M  V30 22 1 18 19
M  V30 23 1 3 21
M  V30 24 1 4 22
M  V30 25 1 5 23
M  V30 26 1 6 24
M  V30 27 1 9 25
M  V30 28 1 13 26
M  V30 29 1 15 27
M  V30 30 1 16 28
M  V30 31 1 17 29
M  V30 32 1 18 30
M  V30 33 1 18 31
M  V30 34 1 19 32
M  V30 35 1 19 33
M  V30 36 1 20 34
M  V30 END BOND
M  V30 BEGIN COLLECTION
M  V30 MDLV30/STERAC1 ATOMS=(1 8)
M  V30 END COLLECTION
M  V30 END CTAB
M  END
>  <Column 1>
2321

>  <level_0>
2502

>  <index>
2502

>  <Unnamed: 0>
2502

>  <NO.>
2514

>  <Name>
dazadrol

>  <IUPAC_name>
(4-chlorophenyl)-(4-5-dihydro-1h-imidazol-2-yl)-pyridin-2-ylmethanol

>  <SMILES>
OC(C1=NCCN1)(c1ccc(Cl)cc1)c1ccccn1

>  <CID>
32940

>  <logBB>


>  <BBB+/BBB->
BBB+

>  <Inchi>
InChI=1S/C15H14ClN3O/c16-12-6-4-11(5-7-12)15(20-14-18-9-10-19-14)13-3-1-2-8-17-13/h1-8-20H-9-10H2-(H-18-19)

>  <threshold>
-1

>  <reference>
R1|R13|R19|R6|R27|R27|R30|

>  <group>
B

>  <Class>
1

>  <ABC>
15.64

>  <ABCGG>
13.63

>  <nAcid>
0

>  <nBase>
2

>  <nAromAtom>
12

>  <nAromBond>
12

>  <nAtom>
34

>  <nHeavyAtom>
20

>  <nSpiro>
0

>  <nBridgehead>
0

>  <nHetero>
5

>  <nN>
3

>  <nO>
1

>  <nF>
0

>  <BalabanJ>
1.78

>  <BertzCT>
627.33

>  <nBonds>
36

>  <nBondsO>
22

>  <nBondsS>
23

>  <nBondsD>
1

>  <nBondsT>
0

>  <nBondsA>
12

>  <nBondsM>
13

>  <nBondsKS>
29

>  <nBondsKD>
7

>  <RNCG>
0.22

>  <RPCG>
0.13

>  <FCSP3>
0.2

>  <SZ>
25

>  <Sm>
23.96

>  <Sv>
22.87

>  <Sse>
34.3

>  <Sp>
24.35

>  <Si>
38.14

>  <MZ>
0.74

>  <Mm>
0.7

>  <Mv>
0.67

>  <Mse>
1.01

>  <Mp>
0.72

>  <Mi>
1.12

>  <NsCH3>
0

>  <NdCH2>
0

>  <NssCH2>
2

>  <NtCH>
0

>  <NdsCH>
0

>  <NaaCH>
8

>  <NsssCH>
0

>  <NddC>
0

>  <NtsC>
0

>  <NdssC>
1

>  <NaasC>
3

>  <NaaaC>
0

>  <NssssC>
1

>  <NsNH3>
0

>  <NsNH2>
0

>  <NssNH2>
0

>  <NdNH>
0

>  <NssNH>
1

>  <NaaNH>
0

>  <NtN>
0

>  <NsssNH>
0

>  <NdsN>
1

>  <NaaN>
1

>  <NsssN>
0

>  <NddsN>
0

>  <NaasN>
0

>  <NssssN>
0

>  <NsOH>
1

>  <NdO>
0

>  <NssO>
0

>  <NaaO>
0

>  <NsF>
0

>  <NsSiH3>
0

>  <NssSiH2>
0

>  <NsssSiH>
0

>  <NssssSi>
0

>  <NsPH2>
0

>  <NssPH>
0

>  <NsssP>
0

>  <NdsssP>
0

>  <NsssssP>
0

>  <NsSH>
0

>  <NdS>
0

>  <NssS>
0

>  <NaaS>
0

>  <NdssS>
0

>  <NddssS>
0

>  <NsCl>
1

>  <NsBr>
0

>  <NsI>
0

>  <fragCpx>
104.05

>  <fMF>
0.53

>  <nHBAcc>
4

>  <nHBDon>
2

>  <Kier1>
14.92

>  <Kier2>
6.41

>  <Lipinski>
1

>  <GhoseFilter>
1

>  <FilterItLogS>
-4.33

>  <VMcGowan>
207.58

>  <LabuteASA>
121.7

>  <PEOE_VSA1>
10.42

>  <PEOE_VSA2>
9.98

>  <PEOE_VSA3>
0

>  <PEOE_VSA4>
0

>  <PEOE_VSA5>
0

>  <PEOE_VSA6>
29.8

>  <PEOE_VSA7>
29.83

>  <PEOE_VSA8>
17.76

>  <PEOE_VSA9>
12.24

>  <PEOE_VSA10>
5.84

>  <PEOE_VSA11>
5.6

>  <PEOE_VSA12>
0

>  <PEOE_VSA13>
0

>  <SMR_VSA1>
5.11

>  <SMR_VSA2>
0

>  <SMR_VSA3>
10.3

>  <SMR_VSA4>
4.99

>  <SMR_VSA5>
5.6

>  <SMR_VSA6>
13.09

>  <SMR_VSA7>
64.94

>  <SMR_VSA8>
0

>  <SMR_VSA9>
0

>  <SlogP_VSA1>
5.32

>  <SlogP_VSA2>
29.02

>  <SlogP_VSA3>
5.6

>  <SlogP_VSA4>
0

>  <SlogP_VSA5>
11.26

>  <SlogP_VSA6>
53.65

>  <SlogP_VSA7>
5.02

>  <SlogP_VSA8>
0

>  <SlogP_VSA9>
0

>  <SlogP_VSA10>
0

>  <SlogP_VSA11>
0

>  <EState_VSA1>
5.6

>  <EState_VSA2>
0

>  <EState_VSA3>
28.66

>  <EState_VSA4>
6.54

>  <EState_VSA5>
0

>  <EState_VSA6>
36.53

>  <EState_VSA7>
12.13

>  <EState_VSA8>
15.29

>  <EState_VSA9>
11.6

>  <EState_VSA10>
5.11

>  <VSA_EState1>
0

>  <VSA_EState2>
8.66

>  <VSA_EState3>
15.01

>  <VSA_EState4>
-0.15

>  <VSA_EState5>
0.53

>  <VSA_EState6>
12.53

>  <VSA_EState7>
1.66

>  <VSA_EState8>
1.37

>  <VSA_EState9>
0

>  <apol>
40.67

>  <bpol>
17.4

>  <nRing>
3

>  <nHRing>
2

>  <naRing>
2

>  <naHRing>
1

>  <nARing 2>
1

>  <nAHRing 2>
1

>  <nFRing>
0

>  <nFHRing>
0

>  <nFaRing>
0

>  <nFaHRing>
0

>  <nFARing 2>
0

>  <nFAHRing 2>
0

>  <nRot>
3

>  <SLogP>
1.97

>  <SMR>
78.99

>  <TopoPSA(NO)>
57.51

>  <TopoPSA>
57.51

>  <JGI1>
0.18

>  <JGI2>
0.1

>  <JGI3>
0.06

>  <JGI4>
0.03

>  <JGI5>
0.01

>  <Diameter>
9

>  <Radius>
5

>  <TMWC10>
116.27

>  <TSRW10>
67.16

>  <MW>
287.08

>  <AMW>
8.44

>  <WPath>
738

>  <WPol>
32

>  <Zagreb1>
106

>  <Zagreb2>
127

>  <mZagreb2>
4.42

>  <yes>


>  <nAR-cont>
0.816016

>  <nHA-cont>
0.999629945

>  <MWHBN>
0.35411945

>  <MWHBN-cont>
0.654769271

>  <TPSA-cont>
0.598544488

>  <pka_cont>
0.97

>  <yes.1>


>  <BBB_SCORE>
4.479888829

>  <MMFF94 Energy>
140.36

$$$$
Compound 1903
Actelion Java MolfileCreator 2.0

  0  0  0  0  0  0              0 V3000
M  V30 BEGIN CTAB
M  V30 COUNTS 50 52 0 0 0
M  V30 BEGIN ATOM
M  V30 1 O -2.3757 -0.0791 -1.1873 0
M  V30 2 C -1.2004 0.1973 -0.3936 0 CFG=2
M  V30 3 C -1.6926 0.706 0.9743 0
M  V30 4 C -0.3511 1.2503 -1.1994 0
M  V30 5 C -0.4909 -1.172 -0.1874 0
M  V30 6 C -2.9492 0.3082 1.4705 0
M  V30 7 C -0.9067 1.5337 1.7971 0
M  V30 8 C 0.2194 0.6925 -2.5253 0
M  V30 9 C -1.1658 2.5307 -1.5127 0
M  V30 10 C 0.8389 -1.1188 0.5771 0
M  V30 11 C -3.4076 0.7319 2.7206 0
M  V30 12 C -1.3645 1.9581 3.0487 0
M  V30 13 C 1.0479 1.7343 -3.2772 0
M  V30 14 C -0.3339 3.5717 -2.2595 0
M  V30 15 N 1.5311 -2.4139 0.5561 0
M  V30 16 C -2.615 1.5586 3.5094 0
M  V30 17 C 0.2507 3.0038 -3.5458 0
M  V30 18 C 0.8409 -3.4586 1.3186 0
M  V30 19 C 2.8615 -2.3288 1.165 0
M  V30 20 C 1.9145 -4.5185 1.5269 0
M  V30 21 C 3.2405 -3.7879 1.3535 0
M  V30 22 H -2.1006 -0.5984 -1.9599 0
M  V30 23 H 0.5133 1.5508 -0.5952 0
M  V30 24 H -1.1838 -1.8501 0.3306 0
M  V30 25 H -0.3302 -1.6489 -1.1635 0
M  V30 26 H -3.5903 -0.3396 0.875 0
M  V30 27 H 0.0804 1.8621 1.4849 0
M  V30 28 H 0.8641 -0.1711 -2.3336 0
M  V30 29 H -0.593 0.3503 -3.177 0
M  V30 30 H -1.5394 2.989 -0.5911 0
M  V30 31 H -2.0449 2.2799 -2.1194 0
M  V30 32 H 1.4934 -0.3798 0.1027 0
M  V30 33 H 0.6762 -0.7926 1.6106 0
M  V30 34 H -4.3854 0.4148 3.0732 0
M  V30 35 H -0.741 2.6017 3.664 0
M  V30 36 H 1.3956 1.3111 -4.2264 0
M  V30 37 H 1.9422 1.9801 -2.6913 0
M  V30 38 H 0.4771 3.9248 -1.6109 0
M  V30 39 H -0.9577 4.4421 -2.4927 0
M  V30 40 H -2.9711 1.8902 4.4808 0
M  V30 41 H 0.8946 3.7518 -4.0218 0
M  V30 42 H -0.5602 2.7843 -4.251 0
M  V30 43 H -0.0168 -3.8709 0.7784 0
M  V30 44 H 0.4955 -3.088 2.2923 0
M  V30 45 H 3.5773 -1.8076 0.5216 0
M  V30 46 H 2.8304 -1.8223 2.1383 0
M  V30 47 H 1.8287 -5.3175 0.7816 0
M  V30 48 H 1.8332 -4.9744 2.5191 0
M  V30 49 H 3.7597 -4.1696 0.4663 0
M  V30 50 H 3.9005 -3.9286 2.2152 0
M  V30 END ATOM
M  V30 BEGIN BOND
M  V30 1 1 1 2
M  V30 2 1 2 3
M  V30 3 1 2 4
M  V30 4 1 2 5
M  V30 5 2 3 6
M  V30 6 1 3 7
M  V30 7 1 4 8
M  V30 8 1 4 9
M  V30 9 1 5 10
M  V30 10 1 6 11
M  V30 11 2 7 12
M  V30 12 1 8 13
M  V30 13 1 9 14
M  V30 14 1 10 15
M  V30 15 2 11 16
M  V30 16 1 13 17
M  V30 17 1 15 18
M  V30 18 1 15 19
M  V30 19 1 18 20
M  V30 20 1 19 21
M  V30 21 1 12 16
M  V30 22 1 14 17
M  V30 23 1 20 21
M  V30 24 1 1 22
M  V30 25 1 4 23
M  V30 26 1 5 24
M  V30 27 1 5 25
M  V30 28 1 6 26
M  V30 29 1 7 27
M  V30 30 1 8 28
M  V30 31 1 8 29
M  V30 32 1 9 30
M  V30 33 1 9 31
M  V30 34 1 10 32
M  V30 35 1 10 33
M  V30 36 1 11 34
M  V30 37 1 12 35
M  V30 38 1 13 36
M  V30 39 1 13 37
M  V30 40 1 14 38
M  V30 41 1 14 39
M  V30 42 1 16 40
M  V30 43 1 17 41
M  V30 44 1 17 42
M  V30 45 1 18 43
M  V30 46 1 18 44
M  V30 47 1 19 45
M  V30 48 1 19 46
M  V30 49 1 20 47
M  V30 50 1 20 48
M  V30 51 1 21 49
M  V30 52 1 21 50
M  V30 END BOND
M  V30 BEGIN COLLECTION
M  V30 MDLV30/STERAC1 ATOMS=(1 2)
M  V30 END COLLECTION
M  V30 END CTAB
M  END
>  <Column 1>
2323

>  <level_0>
2504

>  <index>
2504

>  <Unnamed: 0>
2504

>  <NO.>
2516

>  <Name>
procyclidine hydrochloride

>  <IUPAC_name>
1-cyclohexyl-1-phenyl-3-pyrrolidin-1-ylpropan-1-ol

>  <SMILES>
OC(CCN1CCCC1)(c1ccccc1)C1CCCCC1

>  <CID>
4919

>  <logBB>


>  <BBB+/BBB->
BBB+

>  <Inchi>
InChI=1S/C19H29NO/c21-19(17-9-3-1-4-10-17-18-11-5-2-6-12-18)13-16-20-14-7-8-15-20/h1-3-4-9-10-18-21H-2-5-8-11-16H2

>  <threshold>
-1

>  <reference>
R1|R7|R13|R14|R15|R23|R26|R27|R29|R30|

>  <group>
B

>  <Class>
1

>  <ABC>
16.3

>  <ABCGG>
13.93

>  <nAcid>
0

>  <nBase>
1

>  <nAromAtom>
6

>  <nAromBond>
6

>  <nAtom>
50

>  <nHeavyAtom>
21

>  <nSpiro>
0

>  <nBridgehead>
0

>  <nHetero>
2

>  <nN>
1

>  <nO>
1

>  <nF>
0

>  <BalabanJ>
1.65

>  <BertzCT>
420.45

>  <nBonds>
52

>  <nBondsO>
23

>  <nBondsS>
46

>  <nBondsD>
0

>  <nBondsT>
0

>  <nBondsA>
6

>  <nBondsM>
6

>  <nBondsKS>
49

>  <nBondsKD>
3

>  <RNCG>
0.28

>  <RPCG>
0.16

>  <FCSP3>
0.68

>  <SZ>
26.33

>  <Sm>
23.93

>  <Sv>
28.33

>  <Sse>
48.87

>  <Sp>
31.72

>  <Si>
56.52

>  <MZ>
0.53

>  <Mm>
0.48

>  <Mv>
0.57

>  <Mse>
0.98

>  <Mp>
0.63

>  <Mi>
1.13

>  <NsCH3>
0

>  <NdCH2>
0

>  <NssCH2>
11

>  <NtCH>
0

>  <NdsCH>
0

>  <NaaCH>
5

>  <NsssCH>
1

>  <NddC>
0

>  <NtsC>
0

>  <NdssC>
0

>  <NaasC>
1

>  <NaaaC>
0

>  <NssssC>
1

>  <NsNH3>
0

>  <NsNH2>
0

>  <NssNH2>
0

>  <NdNH>
0

>  <NssNH>
0

>  <NaaNH>
0

>  <NtN>
0

>  <NsssNH>
0

>  <NdsN>
0

>  <NaaN>
0

>  <NsssN>
1

>  <NddsN>
0

>  <NaasN>
0

>  <NssssN>
0

>  <NsOH>
1

>  <NdO>
0

>  <NssO>
0

>  <NaaO>
0

>  <NsF>
0

>  <NsSiH3>
0

>  <NssSiH2>
0

>  <NsssSiH>
0

>  <NssssSi>
0

>  <NsPH2>
0

>  <NssPH>
0

>  <NsssP>
0

>  <NdsssP>
0

>  <NsssssP>
0

>  <NsSH>
0

>  <NdS>
0

>  <NssS>
0

>  <NaaS>
0

>  <NdssS>
0

>  <NddssS>
0

>  <NsCl>
0

>  <NsBr>
0

>  <NsI>
0

>  <fragCpx>
109.02

>  <fMF>
0.4

>  <nHBAcc>
2

>  <nHBDon>
1

>  <Kier1>
15.88

>  <Kier2>
7.51

>  <Lipinski>
1

>  <GhoseFilter>
1

>  <FilterItLogS>
-3.8

>  <VMcGowan>
248.94

>  <LabuteASA>
128.72

>  <PEOE_VSA1>
10.01

>  <PEOE_VSA2>
0

>  <PEOE_VSA3>
0

>  <PEOE_VSA4>
0

>  <PEOE_VSA5>
0

>  <PEOE_VSA6>
49.59

>  <PEOE_VSA7>
56.67

>  <PEOE_VSA8>
6.54

>  <PEOE_VSA9>
5.6

>  <PEOE_VSA10>
0

>  <PEOE_VSA11>
0

>  <PEOE_VSA12>
0

>  <PEOE_VSA13>
0

>  <SMR_VSA1>
5.11

>  <SMR_VSA2>
0

>  <SMR_VSA3>
4.9

>  <SMR_VSA4>
5.92

>  <SMR_VSA5>
56.97

>  <SMR_VSA6>
19.63

>  <SMR_VSA7>
35.9

>  <SMR_VSA8>
0

>  <SMR_VSA9>
0

>  <SlogP_VSA1>
0

>  <SlogP_VSA2>
29.64

>  <SlogP_VSA3>
5.6

>  <SlogP_VSA4>
5.92

>  <SlogP_VSA5>
56.93

>  <SlogP_VSA6>
30.33

>  <SlogP_VSA7>
0

>  <SlogP_VSA8>
0

>  <SlogP_VSA9>
0

>  <SlogP_VSA10>
0

>  <SlogP_VSA11>
0

>  <EState_VSA1>
5.6

>  <EState_VSA2>
0

>  <EState_VSA3>
5.92

>  <EState_VSA4>
18.53

>  <EState_VSA5>
58.04

>  <EState_VSA6>
0

>  <EState_VSA7>
6.07

>  <EState_VSA8>
29.17

>  <EState_VSA9>
0

>  <EState_VSA10>
5.11

>  <VSA_EState1>
0

>  <VSA_EState2>
2.52

>  <VSA_EState3>
11.54

>  <VSA_EState4>
0.51

>  <VSA_EState5>
0.44

>  <VSA_EState6>
10.43

>  <VSA_EState7>
9.82

>  <VSA_EState8>
3.48

>  <VSA_EState9>
0

>  <apol>
52.97

>  <bpol>
30.8

>  <nRing>
3

>  <nHRing>
1

>  <naRing>
1

>  <naHRing>
0

>  <nARing 2>
2

>  <nAHRing 2>
1

>  <nFRing>
0

>  <nFHRing>
0

>  <nFaRing>
0

>  <nFaHRing>
0

>  <nFARing 2>
0

>  <nFAHRing 2>
0

>  <nRot>
5

>  <SLogP>
3.94

>  <SMR>
87.2

>  <TopoPSA(NO)>
23.47

>  <TopoPSA>
23.47

>  <JGI1>
0.15

>  <JGI2>
0.09

>  <JGI3>
0.05

>  <JGI4>
0.02

>  <JGI5>
0.02

>  <Diameter>
9

>  <Radius>
5

>  <TMWC10>
117.4

>  <TSRW10>
67.92

>  <MW>
287.22

>  <AMW>
5.74

>  <WPath>
903

>  <WPol>
30

>  <Zagreb1>
108

>  <Zagreb2>
126

>  <mZagreb2>
4.71

>  <yes>


>  <nAR-cont>
1

>  <nHA-cont>
0.994529749

>  <MWHBN>
0.177016568

>  <MWHBN-cont>
0.983730372

>  <TPSA-cont>
0.836164826

>  <pka_cont>
0.97

>  <yes.1>


>  <BBB_SCORE>
5.627454959

>  <MMFF94 Energy>
44.354

$$$$
Compound 1904
Actelion Java MolfileCreator 2.0

  0  0  0  0  0  0              0 V3000
M  V30 BEGIN CTAB
M  V30 COUNTS 40 42 0 0 0
M  V30 BEGIN ATOM
M  V30 1 O 3.1084 -0.7963 -0.2388 0
M  V30 2 N 2.1855 -1.5347 -0.9579 0
M  V30 3 C 2.5196 -0.2668 0.8733 0
M  V30 4 C 1.0363 -1.4417 -0.2734 0
M  V30 5 C 3.367 0.5444 1.7415 0
M  V30 6 C 1.2012 -0.6569 0.8919 0
M  V30 7 C -0.1981 -2.1289 -0.7663 0 CFG=1
M  V30 8 C 4.7245 0.7537 1.4521 0
M  V30 9 C 2.8378 1.1394 2.8975 0
M  V30 10 O -0.9891 -2.6602 0.3094 0
M  V30 11 C -1.0518 -1.2374 -1.7168 0
M  V30 12 C 5.5273 1.5324 2.291 0
M  V30 13 C 3.64 1.9184 3.7371 0
M  V30 14 N -1.5051 0.0797 -1.211 0
M  V30 15 C 4.9844 2.1144 3.4333 0
M  V30 16 C -2.4635 0.021 -0.0997 0
M  V30 17 C -2.0355 0.9239 -2.2949 0
M  V30 18 C -3.8571 -0.4603 -0.5091 0
M  V30 19 C -3.4149 0.4888 -2.7978 0
M  V30 20 C -4.416 0.382 -1.6517 0
M  V30 21 H 0.4497 -0.4179 1.6278 0
M  V30 22 H 0.1184 -3.0062 -1.3463 0
M  V30 23 H 5.1758 0.3112 0.5663 0
M  V30 24 H 1.7915 1.0054 3.1609 0
M  V30 25 H -1.7396 -3.1212 -0.0992 0
M  V30 26 H -1.9124 -1.8273 -2.0533 0
M  V30 27 H -0.4301 -1.0566 -2.6044 0
M  V30 28 H 6.5763 1.6824 2.0492 0
M  V30 29 H 3.2126 2.3715 4.628 0
M  V30 30 H 5.6085 2.7197 4.0854 0
M  V30 31 H -2.5545 1.0314 0.322 0
M  V30 32 H -2.0851 -0.5838 0.7279 0
M  V30 33 H -1.329 0.9602 -3.133 0
M  V30 34 H -2.1006 1.9567 -1.9277 0
M  V30 35 H -4.5332 -0.4002 0.3515 0
M  V30 36 H -3.8227 -1.5143 -0.8078 0
M  V30 37 H -3.3416 -0.4759 -3.3132 0
M  V30 38 H -3.7807 1.2115 -3.5361 0
M  V30 39 H -5.3564 -0.0489 -2.0121 0
M  V30 40 H -4.6473 1.3878 -1.2795 0
M  V30 END ATOM
M  V30 BEGIN BOND
M  V30 1 1 1 2
M  V30 2 1 1 3
M  V30 3 2 2 4
M  V30 4 1 3 5
M  V30 5 2 3 6
M  V30 6 1 4 7
M  V30 7 2 5 8
M  V30 8 1 5 9
M  V30 9 1 7 10
M  V30 10 1 7 11
M  V30 11 1 8 12
M  V30 12 2 9 13
M  V30 13 1 11 14
M  V30 14 2 12 15
M  V30 15 1 14 16
M  V30 16 1 14 17
M  V30 17 1 16 18
M  V30 18 1 17 19
M  V30 19 1 18 20
M  V30 20 1 4 6
M  V30 21 1 13 15
M  V30 22 1 19 20
M  V30 23 1 6 21
M  V30 24 1 7 22
M  V30 25 1 8 23
M  V30 26 1 9 24
M  V30 27 1 10 25
M  V30 28 1 11 26
M  V30 29 1 11 27
M  V30 30 1 12 28
M  V30 31 1 13 29
M  V30 32 1 15 30
M  V30 33 1 16 31
M  V30 34 1 16 32
M  V30 35 1 17 33
M  V30 36 1 17 34
M  V30 37 1 18 35
M  V30 38 1 18 36
M  V30 39 1 19 37
M  V30 40 1 19 38
M  V30 41 1 20 39
M  V30 42 1 20 40
M  V30 END BOND
M  V30 BEGIN COLLECTION
M  V30 MDLV30/STERAC1 ATOMS=(1 7)
M  V30 END COLLECTION
M  V30 END CTAB
M  END
>  <Column 1>
2324

>  <level_0>
2505

>  <index>
2505

>  <Unnamed: 0>
2505

>  <NO.>
2517

>  <Name>
perisoxal

>  <IUPAC_name>
1-(5-phenyl-1-2-oxazol-3-yl)-2-piperidin-1-ylethanol

>  <SMILES>
OC(CN1CCCCC1)c1cc(-c2ccccc2)on1

>  <CID>
71109

>  <logBB>


>  <BBB+/BBB->
BBB+

>  <Inchi>
InChI=1S/C16H20N2O2/c19-15(12-18-9-5-2-6-10-18)14-11-16(20-17-14)13-7-3-1-4-8-13/h1-3-4-7-8-11-15-19H-2-5-6-9-10-12H2

>  <threshold>
-1

>  <reference>
R1|R19|R6|R27|R27|R30|

>  <group>
B

>  <Class>
1

>  <ABC>
15.58

>  <ABCGG>
12.63

>  <nAcid>
0

>  <nBase>
1

>  <nAromAtom>
11

>  <nAromBond>
11

>  <nAtom>
40

>  <nHeavyAtom>
20

>  <nSpiro>
0

>  <nBridgehead>
0

>  <nHetero>
4

>  <nN>
2

>  <nO>
2

>  <nF>
0

>  <BalabanJ>
1.43

>  <BertzCT>
532.42

>  <nBonds>
42

>  <nBondsO>
22

>  <nBondsS>
31

>  <nBondsD>
0

>  <nBondsT>
0

>  <nBondsA>
11

>  <nBondsM>
11

>  <nBondsKS>
37

>  <nBondsKD>
5

>  <RNCG>
0.25

>  <RPCG>
0.14

>  <FCSP3>
0.44

>  <SZ>
24.33

>  <Sm>
22.67

>  <Sv>
24.36

>  <Sse>
39.87

>  <Sp>
26.26

>  <Si>
45.15

>  <MZ>
0.61

>  <Mm>
0.57

>  <Mv>
0.61

>  <Mse>
1

>  <Mp>
0.66

>  <Mi>
1.13

>  <NsCH3>
0

>  <NdCH2>
0

>  <NssCH2>
6

>  <NtCH>
0

>  <NdsCH>
0

>  <NaaCH>
6

>  <NsssCH>
1

>  <NddC>
0

>  <NtsC>
0

>  <NdssC>
0

>  <NaasC>
3

>  <NaaaC>
0

>  <NssssC>
0

>  <NsNH3>
0

>  <NsNH2>
0

>  <NssNH2>
0

>  <NdNH>
0

>  <NssNH>
0

>  <NaaNH>
0

>  <NtN>
0

>  <NsssNH>
0

>  <NdsN>
0

>  <NaaN>
1

>  <NsssN>
1

>  <NddsN>
0

>  <NaasN>
0

>  <NssssN>
0

>  <NsOH>
1

>  <NdO>
0

>  <NssO>
0

>  <NaaO>
1

>  <NsF>
0

>  <NsSiH3>
0

>  <NssSiH2>
0

>  <NsssSiH>
0

>  <NssssSi>
0

>  <NsPH2>
0

>  <NssPH>
0

>  <NsssP>
0

>  <NdsssP>
0

>  <NsssssP>
0

>  <NsSH>
0

>  <NdS>
0

>  <NssS>
0

>  <NaaS>
0

>  <NdssS>
0

>  <NddssS>
0

>  <NsCl>
0

>  <NsBr>
0

>  <NsI>
0

>  <fragCpx>
104.04

>  <fMF>
0.48

>  <nHBAcc>
4

>  <nHBDon>
1

>  <Kier1>
14.92

>  <Kier2>
7.32

>  <Lipinski>
1

>  <GhoseFilter>
1

>  <FilterItLogS>
-3.45

>  <VMcGowan>
213.92

>  <LabuteASA>
118.56

>  <PEOE_VSA1>
14.53

>  <PEOE_VSA2>
0

>  <PEOE_VSA3>
0

>  <PEOE_VSA4>
0

>  <PEOE_VSA5>
0

>  <PEOE_VSA6>
41.91

>  <PEOE_VSA7>
25.93

>  <PEOE_VSA8>
18.17

>  <PEOE_VSA9>
0

>  <PEOE_VSA10>
11.8

>  <PEOE_VSA11>
5.76

>  <PEOE_VSA12>
0

>  <PEOE_VSA13>
0

>  <SMR_VSA1>
9.63

>  <SMR_VSA2>
0

>  <SMR_VSA3>
10.06

>  <SMR_VSA4>
0

>  <SMR_VSA5>
25.37

>  <SMR_VSA6>
19.63

>  <SMR_VSA7>
42.09

>  <SMR_VSA8>
0

>  <SMR_VSA9>
11.32

>  <SlogP_VSA1>
0

>  <SlogP_VSA2>
34.8

>  <SlogP_VSA3>
0

>  <SlogP_VSA4>
0

>  <SlogP_VSA5>
31.06

>  <SlogP_VSA6>
40.92

>  <SlogP_VSA7>
0

>  <SlogP_VSA8>
11.32

>  <SlogP_VSA9>
0

>  <SlogP_VSA10>
0

>  <SlogP_VSA11>
0

>  <EState_VSA1>
6.1

>  <EState_VSA2>
0

>  <EState_VSA3>
18

>  <EState_VSA4>
18.65

>  <EState_VSA5>
19.26

>  <EState_VSA6>
0

>  <EState_VSA7>
36.4

>  <EState_VSA8>
10.06

>  <EState_VSA9>
4.52

>  <EState_VSA10>
5.11

>  <VSA_EState1>
5.33

>  <VSA_EState2>
2.3

>  <VSA_EState3>
14.28

>  <VSA_EState4>
1.6

>  <VSA_EState5>
0.71

>  <VSA_EState6>
11.67

>  <VSA_EState7>
3.17

>  <VSA_EState8>
2.78

>  <VSA_EState9>
0

>  <apol>
43.86

>  <bpol>
23.51

>  <nRing>
3

>  <nHRing>
2

>  <naRing>
2

>  <naHRing>
1

>  <nARing 2>
1

>  <nAHRing 2>
1

>  <nFRing>
0

>  <nFHRing>
0

>  <nFaRing>
0

>  <nFaHRing>
0

>  <nFARing 2>
0

>  <nFAHRing 2>
0

>  <nRot>
4

>  <SLogP>
2.86

>  <SMR>
77.19

>  <TopoPSA(NO)>
49.5

>  <TopoPSA>
49.5

>  <JGI1>
0.14

>  <JGI2>
0.06

>  <JGI3>
0.03

>  <JGI4>
0.04

>  <JGI5>
0.02

>  <Diameter>
12

>  <Radius>
6

>  <TMWC10>
114.05

>  <TSRW10>
66.81

>  <MW>
272.15

>  <AMW>
6.8

>  <WPath>
896

>  <WPol>
26

>  <Zagreb1>
102

>  <Zagreb2>
117

>  <mZagreb2>
4.47

>  <yes>


>  <nAR-cont>
0.816016

>  <nHA-cont>
0.999629945

>  <MWHBN>
0.303085971

>  <MWHBN-cont>
0.831421718

>  <TPSA-cont>
0.654459262

>  <pka_cont>
0.97

>  <yes.1>


>  <BBB_SCORE>
4.856697046

>  <MMFF94 Energy>
72.369

$$$$
Compound 1905
Actelion Java MolfileCreator 2.0

  0  0  0  0  0  0              0 V3000
M  V30 BEGIN CTAB
M  V30 COUNTS 42 44 0 0 0
M  V30 BEGIN ATOM
M  V30 1 O 0.8713 3.9652 -2.2983 0
M  V30 2 C -0.0863 3.8244 -1.2455 0 CFG=2
M  V30 3 C -0.0298 2.4439 -0.6232 0
M  V30 4 C -1.4844 4.2589 -1.7161 0
M  V30 5 C 0.0617 1.2884 -1.4132 0
M  V30 6 C -0.0887 2.2994 0.7704 0
M  V30 7 N -2.0706 3.4271 -2.748 0
M  V30 8 C 0.0956 0.0223 -0.8254 0
M  V30 9 C -0.0516 1.0325 1.3585 0
M  V30 10 C -1.728 3.4316 -4.0704 0
M  V30 11 C -3.097 2.538 -2.5893 0
M  V30 12 C 0.0355 -0.1167 0.5653 0
M  V30 13 N -2.46 2.5836 -4.758 0
M  V30 14 C -3.3152 2.0223 -3.8454 0
M  V30 15 C 0.091 -1.4845 1.2002 0
M  V30 16 C 1.5331 -1.9261 1.4636 0
M  V30 17 C 1.5881 -3.291 2.104 0
M  V30 18 C 1.5767 -3.4226 3.499 0
M  V30 19 C 1.6214 -4.446 1.3115 0
M  V30 20 C 1.608 -4.6867 4.0898 0
M  V30 21 C 1.6526 -5.7091 1.9043 0
M  V30 22 C 1.6466 -5.8292 3.2927 0
M  V30 23 H 1.6161 3.372 -2.0933 0
M  V30 24 H 0.2338 4.5471 -0.4841 0
M  V30 25 H -1.4394 5.2726 -2.1331 0
M  V30 26 H -2.1841 4.275 -0.8718 0
M  V30 27 H 0.0942 1.362 -2.4999 0
M  V30 28 H -0.1621 3.1726 1.4157 0
M  V30 29 H 0.1627 -0.8558 -1.4644 0
M  V30 30 H -0.0939 0.9478 2.4425 0
M  V30 31 H -0.9417 4.0589 -4.4712 0
M  V30 32 H -3.5636 2.3415 -1.6343 0
M  V30 33 H -4.0429 1.2779 -4.141 0
M  V30 34 H -0.4195 -2.2067 0.5495 0
M  V30 35 H -0.484 -1.4749 2.1355 0
M  V30 36 H 2.1075 -1.9412 0.528 0
M  V30 37 H 2.0444 -1.2003 2.1099 0
M  V30 38 H 1.5439 -2.5405 4.1344 0
M  V30 39 H 1.6235 -4.3685 0.2266 0
M  V30 40 H 1.6016 -4.7802 5.1726 0
M  V30 41 H 1.6807 -6.5999 1.2823 0
M  V30 42 H 1.671 -6.8131 3.7534 0
M  V30 END ATOM
M  V30 BEGIN BOND
M  V30 1 1 1 2
M  V30 2 1 2 3
M  V30 3 1 2 4
M  V30 4 2 3 5
M  V30 5 1 3 6
M  V30 6 1 4 7
M  V30 7 1 5 8
M  V30 8 2 6 9
M  V30 9 1 7 10
M  V30 10 1 7 11
M  V30 11 2 8 12
M  V30 12 2 10 13
M  V30 13 2 11 14
M  V30 14 1 12 15
M  V30 15 1 15 16
M  V30 16 1 16 17
M  V30 17 2 17 18
M  V30 18 1 17 19
M  V30 19 1 18 20
M  V30 20 2 19 21
M  V30 21 2 20 22
M  V30 22 1 9 12
M  V30 23 1 13 14
M  V30 24 1 21 22
M  V30 25 1 1 23
M  V30 26 1 2 24
M  V30 27 1 4 25
M  V30 28 1 4 26
M  V30 29 1 5 27
M  V30 30 1 6 28
M  V30 31 1 8 29
M  V30 32 1 9 30
M  V30 33 1 10 31
M  V30 34 1 11 32
M  V30 35 1 14 33
M  V30 36 1 15 34
M  V30 37 1 15 35
M  V30 38 1 16 36
M  V30 39 1 16 37
M  V30 40 1 18 38
M  V30 41 1 19 39
M  V30 42 1 20 40
M  V30 43 1 21 41
M  V30 44 1 22 42
M  V30 END BOND
M  V30 BEGIN COLLECTION
M  V30 MDLV30/STERAC1 ATOMS=(1 2)
M  V30 END COLLECTION
M  V30 END CTAB
M  END
>  <Column 1>
2325

>  <level_0>
2506

>  <index>
2506

>  <Unnamed: 0>
2506

>  <NO.>
2518

>  <Name>
denzimol

>  <IUPAC_name>
2-imidazol-1-yl-1-[4-(2-phenylethyl)phenyl]ethanol

>  <SMILES>
OC(Cn1ccnc1)c1ccc(CCc2ccccc2)cc1

>  <CID>
53626

>  <logBB>


>  <BBB+/BBB->
BBB+

>  <Inchi>
InChI=1S/C19H20N2O/c22-19(14-21-13-12-20-15-21)18-10-8-17(9-11-18)7-6-16-4-2-1-3-5-16/h1-5-8-13-15-19-22H-6-7-14H2

>  <threshold>
-1

>  <reference>
R1|R19|R6|R27|R27|R30|

>  <group>
B

>  <Class>
1

>  <ABC>
17.04

>  <ABCGG>
13.18

>  <nAcid>
0

>  <nBase>
0

>  <nAromAtom>
17

>  <nAromBond>
17

>  <nAtom>
42

>  <nHeavyAtom>
22

>  <nSpiro>
0

>  <nBridgehead>
0

>  <nHetero>
3

>  <nN>
2

>  <nO>
1

>  <nF>
0

>  <BalabanJ>
1.31

>  <BertzCT>
675.22

>  <nBonds>
44

>  <nBondsO>
24

>  <nBondsS>
27

>  <nBondsD>
0

>  <nBondsT>
0

>  <nBondsA>
17

>  <nBondsM>
17

>  <nBondsKS>
36

>  <nBondsKD>
8

>  <RNCG>
0.23

>  <RPCG>
0.13

>  <FCSP3>
0.21

>  <SZ>
26

>  <Sm>
24.34

>  <Sv>
26.65

>  <Sse>
41.54

>  <Sp>
28.78

>  <Si>
46.94

>  <MZ>
0.62

>  <Mm>
0.58

>  <Mv>
0.63

>  <Mse>
0.99

>  <Mp>
0.69

>  <Mi>
1.12

>  <NsCH3>
0

>  <NdCH2>
0

>  <NssCH2>
3

>  <NtCH>
0

>  <NdsCH>
0

>  <NaaCH>
12

>  <NsssCH>
1

>  <NddC>
0

>  <NtsC>
0

>  <NdssC>
0

>  <NaasC>
3

>  <NaaaC>
0

>  <NssssC>
0

>  <NsNH3>
0

>  <NsNH2>
0

>  <NssNH2>
0

>  <NdNH>
0

>  <NssNH>
0

>  <NaaNH>
0

>  <NtN>
0

>  <NsssNH>
0

>  <NdsN>
0

>  <NaaN>
1

>  <NsssN>
0

>  <NddsN>
0

>  <NaasN>
1

>  <NssssN>
0

>  <NsOH>
1

>  <NdO>
0

>  <NssO>
0

>  <NaaO>
0

>  <NsF>
0

>  <NsSiH3>
0

>  <NssSiH2>
0

>  <NsssSiH>
0

>  <NssssSi>
0

>  <NsPH2>
0

>  <NssPH>
0

>  <NsssP>
0

>  <NdsssP>
0

>  <NsssssP>
0

>  <NsSH>
0

>  <NdS>
0

>  <NssS>
0

>  <NaaS>
0

>  <NdssS>
0

>  <NddssS>
0

>  <NsCl>
0

>  <NsBr>
0

>  <NsI>
0

>  <fragCpx>
114.03

>  <fMF>
0.5

>  <nHBAcc>
3

>  <nHBDon>
1

>  <Kier1>
16.84

>  <Kier2>
8.74

>  <Lipinski>
1

>  <GhoseFilter>
1

>  <FilterItLogS>
-4.31

>  <VMcGowan>
237.42

>  <LabuteASA>
130.44

>  <PEOE_VSA1>
9.67

>  <PEOE_VSA2>
0

>  <PEOE_VSA3>
4.98

>  <PEOE_VSA4>
0

>  <PEOE_VSA5>
0

>  <PEOE_VSA6>
54.6

>  <PEOE_VSA7>
29.53

>  <PEOE_VSA8>
12.39

>  <PEOE_VSA9>
18.98

>  <PEOE_VSA10>
0

>  <PEOE_VSA11>
0

>  <PEOE_VSA12>
0

>  <PEOE_VSA13>
0

>  <SMR_VSA1>
5.11

>  <SMR_VSA2>
0

>  <SMR_VSA3>
9.55

>  <SMR_VSA4>
0

>  <SMR_VSA5>
25.49

>  <SMR_VSA6>
0

>  <SMR_VSA7>
90.01

>  <SMR_VSA8>
0

>  <SMR_VSA9>
0

>  <SlogP_VSA1>
0

>  <SlogP_VSA2>
14.66

>  <SlogP_VSA3>
19.39

>  <SlogP_VSA4>
0

>  <SlogP_VSA5>
22.79

>  <SlogP_VSA6>
73.32

>  <SlogP_VSA7>
0

>  <SlogP_VSA8>
0

>  <SlogP_VSA9>
0

>  <SlogP_VSA10>
0

>  <SlogP_VSA11>
0

>  <EState_VSA1>
6.1

>  <EState_VSA2>
0

>  <EState_VSA3>
6.54

>  <EState_VSA4>
18.41

>  <EState_VSA5>
11.13

>  <EState_VSA6>
12.52

>  <EState_VSA7>
28.96

>  <EState_VSA8>
41.38

>  <EState_VSA9>
0

>  <EState_VSA10>
5.11

>  <VSA_EState1>
1.88

>  <VSA_EState2>
3.99

>  <VSA_EState3>
10.24

>  <VSA_EState4>
3.59

>  <VSA_EState5>
0

>  <VSA_EState6>
18.75

>  <VSA_EState7>
6.85

>  <VSA_EState8>
0.53

>  <VSA_EState9>
0

>  <apol>
48.07

>  <bpol>
22.91

>  <nRing>
3

>  <nHRing>
1

>  <naRing>
3

>  <naHRing>
1

>  <nARing 2>
0

>  <nAHRing 2>
0

>  <nFRing>
0

>  <nFHRing>
0

>  <nFaRing>
0

>  <nFaHRing>
0

>  <nFARing 2>
0

>  <nFAHRing 2>
0

>  <nRot>
6

>  <SLogP>
3.4

>  <SMR>
87.48

>  <TopoPSA(NO)>
38.05

>  <TopoPSA>
38.05

>  <JGI1>
0.15

>  <JGI2>
0.06

>  <JGI3>
0.02

>  <JGI4>
0.03

>  <JGI5>
0.02

>  <Diameter>
14

>  <Radius>
7

>  <TMWC10>
117.97

>  <TSRW10>
68.53

>  <MW>
292.16

>  <AMW>
6.96

>  <WPath>
1278

>  <WPol>
27

>  <Zagreb1>
110

>  <Zagreb2>
124

>  <mZagreb2>
4.94

>  <yes>


>  <nAR-cont>
0.336376

>  <nHA-cont>
0.983774276

>  <MWHBN>
0.234018189

>  <MWHBN-cont>
0.982450216

>  <TPSA-cont>
0.734387372

>  <pka_cont>
0.97

>  <yes.1>


>  <BBB_SCORE>
4.747600344

>  <MMFF94 Energy>
60.323

$$$$
Compound 1906
Actelion Java MolfileCreator 2.0

  0  0  0  0  0  0              0 V3000
M  V30 BEGIN CTAB
M  V30 COUNTS 10 9 0 0 0
M  V30 BEGIN ATOM
M  V30 1 Cl 2.2335 0.3571 -0.9823 0
M  V30 2 C 1.0918 -0.1101 0.3309 0
M  V30 3 Cl 1.4165 -1.8119 0.7913 0
M  V30 4 Cl 1.4414 0.945 1.749 0
M  V30 5 C -0.3916 0.105 -0.1454 0
M  V30 6 O -0.7172 -0.6825 -1.2863 0
M  V30 7 O -1.3411 -0.2195 0.8652 0
M  V30 8 H -0.5254 1.1614 -0.4114 0
M  V30 9 H -1.4317 -0.2292 -1.7608 0
M  V30 10 H -2.1427 0.2983 0.6912 0
M  V30 END ATOM
M  V30 BEGIN BOND
M  V30 1 1 1 2
M  V30 2 1 2 3
M  V30 3 1 2 4
M  V30 4 1 2 5
M  V30 5 1 5 6
M  V30 6 1 5 7
M  V30 7 1 5 8
M  V30 8 1 6 9
M  V30 9 1 7 10
M  V30 END BOND
M  V30 END CTAB
M  END
>  <Column 1>
2326

>  <level_0>
2507

>  <index>
2507

>  <Unnamed: 0>
2507

>  <NO.>
2519

>  <Name>
chloralhydrate

>  <IUPAC_name>
2-2-2-trichloroethane-1-1-diol

>  <SMILES>
OC(O)C(Cl)(Cl)Cl

>  <CID>
2707

>  <logBB>


>  <BBB+/BBB->
BBB+

>  <Inchi>
InChI=1S/C2H3Cl3O2/c3-2(4-5)1(6)7/h1-6-7H

>  <threshold>
-1

>  <reference>
R1|R13|R19|R6|R14|R15|R24|R27|R27|R27|R30|R30|R36|

>  <group>
B

>  <Class>
1

>  <ABC>
4.88

>  <ABCGG>
5.21

>  <nAcid>
0

>  <nBase>
0

>  <nAromAtom>
0

>  <nAromBond>
0

>  <nAtom>
10

>  <nHeavyAtom>
7

>  <nSpiro>
0

>  <nBridgehead>
0

>  <nHetero>
5

>  <nN>
0

>  <nO>
2

>  <nF>
0

>  <BalabanJ>
3.54

>  <BertzCT>
56.45

>  <nBonds>
9

>  <nBondsO>
6

>  <nBondsS>
9

>  <nBondsD>
0

>  <nBondsT>
0

>  <nBondsA>
0

>  <nBondsM>
0

>  <nBondsKS>
9

>  <nBondsKD>
0

>  <RNCG>
0.38

>  <RPCG>
0.25

>  <FCSP3>
1

>  <SZ>
13.67

>  <Sm>
13.77

>  <Sv>
7.51

>  <Sse>
11.29

>  <Sp>
8.07

>  <Si>
11.5

>  <MZ>
1.37

>  <Mm>
1.38

>  <Mv>
0.75

>  <Mse>
1.13

>  <Mp>
0.81

>  <Mi>
1.15

>  <NsCH3>
0

>  <NdCH2>
0

>  <NssCH2>
0

>  <NtCH>
0

>  <NdsCH>
0

>  <NaaCH>
0

>  <NsssCH>
1

>  <NddC>
0

>  <NtsC>
0

>  <NdssC>
0

>  <NaasC>
0

>  <NaaaC>
0

>  <NssssC>
1

>  <NsNH3>
0

>  <NsNH2>
0

>  <NssNH2>
0

>  <NdNH>
0

>  <NssNH>
0

>  <NaaNH>
0

>  <NtN>
0

>  <NsssNH>
0

>  <NdsN>
0

>  <NaaN>
0

>  <NsssN>
0

>  <NddsN>
0

>  <NaasN>
0

>  <NssssN>
0

>  <NsOH>
2

>  <NdO>
0

>  <NssO>
0

>  <NaaO>
0

>  <NsF>
0

>  <NsSiH3>
0

>  <NssSiH2>
0

>  <NsssSiH>
0

>  <NssssSi>
0

>  <NsPH2>
0

>  <NssPH>
0

>  <NsssP>
0

>  <NdsssP>
0

>  <NsssssP>
0

>  <NsSH>
0

>  <NdS>
0

>  <NssS>
0

>  <NaaS>
0

>  <NdssS>
0

>  <NddssS>
0

>  <NsCl>
3

>  <NsBr>
0

>  <NsI>
0

>  <fragCpx>
6.05

>  <fMF>
0

>  <nHBAcc>
2

>  <nHBDon>
2

>  <Kier1>
7

>  <Kier2>
1.85

>  <Lipinski>
1

>  <GhoseFilter>
0

>  <FilterItLogS>
-0.67

>  <VMcGowan>
87.5

>  <LabuteASA>
55.6

>  <PEOE_VSA1>
10.21

>  <PEOE_VSA2>
0

>  <PEOE_VSA3>
0

>  <PEOE_VSA4>
0

>  <PEOE_VSA5>
0

>  <PEOE_VSA6>
34.8

>  <PEOE_VSA7>
0

>  <PEOE_VSA8>
0

>  <PEOE_VSA9>
0

>  <PEOE_VSA10>
0

>  <PEOE_VSA11>
6.29

>  <PEOE_VSA12>
3.79

>  <PEOE_VSA13>
0

>  <SMR_VSA1>
10.21

>  <SMR_VSA2>
0

>  <SMR_VSA3>
0

>  <SMR_VSA4>
0

>  <SMR_VSA5>
10.08

>  <SMR_VSA6>
0

>  <SMR_VSA7>
0

>  <SMR_VSA8>
0

>  <SMR_VSA9>
0

>  <SlogP_VSA1>
0

>  <SlogP_VSA2>
20.3

>  <SlogP_VSA3>
0

>  <SlogP_VSA4>
0

>  <SlogP_VSA5>
0

>  <SlogP_VSA6>
0

>  <SlogP_VSA7>
0

>  <SlogP_VSA8>
0

>  <SlogP_VSA9>
0

>  <SlogP_VSA10>
0

>  <SlogP_VSA11>
0

>  <EState_VSA1>
10.08

>  <EState_VSA2>
0

>  <EState_VSA3>
0

>  <EState_VSA4>
0

>  <EState_VSA5>
0

>  <EState_VSA6>
0

>  <EState_VSA7>
0

>  <EState_VSA8>
0

>  <EState_VSA9>
45.02

>  <EState_VSA10>
0

>  <VSA_EState1>
-1.97

>  <VSA_EState2>
0

>  <VSA_EState3>
16.1

>  <VSA_EState4>
0

>  <VSA_EState5>
0

>  <VSA_EState6>
0

>  <VSA_EState7>
-1.91

>  <VSA_EState8>
0

>  <VSA_EState9>
0

>  <apol>
13.48

>  <bpol>
4.54

>  <nRing>
0

>  <nHRing>
0

>  <naRing>
0

>  <naHRing>
0

>  <nARing 2>
0

>  <nAHRing 2>
0

>  <nFRing>
0

>  <nFHRing>
0

>  <nFaRing>
0

>  <nFaHRing>
0

>  <nFARing 2>
0

>  <nFAHRing 2>
0

>  <nRot>
0

>  <SLogP>
0.67

>  <SMR>
28.52

>  <TopoPSA(NO)>
40.46

>  <TopoPSA>
40.46

>  <JGI1>
0.58

>  <JGI2>
0.15

>  <JGI3>
0

>  <JGI4>
0

>  <JGI5>
0

>  <Diameter>
3

>  <Radius>
2

>  <TMWC10>
71.23

>  <TSRW10>
34.22

>  <MW>
163.92

>  <AMW>
16.39

>  <WPath>
42

>  <WPol>
6

>  <Zagreb1>
30

>  <Zagreb2>
30

>  <mZagreb2>
1.5

>  <yes>


>  <nAR-cont>
0.336376

>  <nHA-cont>
0.357561384

>  <MWHBN>
0.312423734

>  <MWHBN-cont>
0.802102405

>  <TPSA-cont>
0.717564076

>  <pka_cont>
0.97

>  <yes.1>


>  <BBB_SCORE>
3.817219142

>  <MMFF94 Energy>
54.921

$$$$
Compound 1907
Actelion Java MolfileCreator 2.0

  0  0  0  0  0  0              0 V3000
M  V30 BEGIN CTAB
M  V30 COUNTS 49 48 0 0 0
M  V30 BEGIN ATOM
M  V30 1 Cl -4.4513 -4.0947 -2.313 0
M  V30 2 C -3.7588 -2.9541 -1.1138 0
M  V30 3 Cl -5.0617 -1.829 -0.5913 0
M  V30 4 Cl -3.2115 -3.895 0.3171 0
M  V30 5 C -2.5681 -2.15 -1.7418 0
M  V30 6 O -1.934 -1.3199 -0.7587 0
M  V30 7 O -2.9595 -1.327 -2.8437 0
M  V30 8 C -0.701 -0.7596 -1.2176 0
M  V30 9 C 0.0109 -0.0558 -0.0411 0
M  V30 10 C -0.8387 1.1219 0.4867 0
M  V30 11 C 0.2271 -1.0528 1.119 0
M  V30 12 C 1.367 0.4802 -0.5504 0
M  V30 13 O -1.0443 2.0662 -0.5633 0
M  V30 14 O 0.9643 -2.1774 0.642 0
M  V30 15 O 2.0226 1.1746 0.5113 0
M  V30 16 C -1.3421 3.3913 -0.1028 0
M  V30 17 C 1.082 -3.2394 1.5974 0
M  V30 18 C 3.1347 1.9657 0.0788 0
M  V30 19 O -2.5281 3.3677 0.6967 0
M  V30 20 C -1.4731 4.3756 -1.3192 0
M  V30 21 O 1.9815 -2.8376 2.632 0
M  V30 22 C 1.5562 -4.5573 0.8866 0
M  V30 23 O 2.6173 3.1898 -0.4532 0
M  V30 24 C 4.1226 2.226 1.2712 0
M  V30 25 Cl -1.7378 6.0567 -0.7353 0
M  V30 26 Cl -2.8367 3.9234 -2.3987 0
M  V30 27 Cl 0.0408 4.3676 -2.3022 0
M  V30 28 Cl 1.6323 -5.9121 2.0664 0
M  V30 29 Cl 0.3807 -5.0194 -0.4035 0
M  V30 30 Cl 3.1704 -4.3639 0.1236 0
M  V30 31 Cl 4.7681 0.6666 1.8957 0
M  V30 32 Cl 5.5185 3.2173 0.72 0
M  V30 33 Cl 3.3108 3.0837 2.6279 0
M  V30 34 H -1.8287 -2.8682 -2.1181 0
M  V30 35 H -3.7284 -0.809 -2.5416 0
M  V30 36 H -0.0665 -1.5566 -1.6243 0
M  V30 37 H -0.9053 -0.0506 -2.0283 0
M  V30 38 H -1.8184 0.7742 0.8348 0
M  V30 39 H -0.338 1.6019 1.3369 0
M  V30 40 H -0.7374 -1.3919 1.5163 0
M  V30 41 H 0.7785 -0.5821 1.9412 0
M  V30 42 H 1.2148 1.1539 -1.4019 0
M  V30 43 H 2.0163 -0.3369 -0.8858 0
M  V30 44 H -0.5101 3.7336 0.5276 0
M  V30 45 H 0.0999 -3.4299 2.0512 0
M  V30 46 H 3.6782 1.4415 -0.719 0
M  V30 47 H -2.2459 3.3377 1.6256 0
M  V30 48 H 1.4564 -2.402 3.3224 0
M  V30 49 H 2.4838 3.0606 -1.4075 0
M  V30 END ATOM
M  V30 BEGIN BOND
M  V30 1 1 1 2
M  V30 2 1 2 3
M  V30 3 1 2 4
M  V30 4 1 2 5
M  V30 5 1 5 6
M  V30 6 1 5 7
M  V30 7 1 6 8
M  V30 8 1 8 9
M  V30 9 1 9 10
M  V30 10 1 9 11
M  V30 11 1 9 12
M  V30 12 1 10 13
M  V30 13 1 11 14
M  V30 14 1 12 15
M  V30 15 1 13 16
M  V30 16 1 14 17
M  V30 17 1 15 18
M  V30 18 1 16 19
M  V30 19 1 16 20
M  V30 20 1 17 21
M  V30 21 1 17 22
M  V30 22 1 18 23
M  V30 23 1 18 24
M  V30 24 1 20 25
M  V30 25 1 20 26
M  V30 26 1 20 27
M  V30 27 1 22 28
M  V30 28 1 22 29
M  V30 29 1 22 30
M  V30 30 1 24 31
M  V30 31 1 24 32
M  V30 32 1 24 33
M  V30 33 1 5 34
M  V30 34 1 7 35
M  V30 35 1 8 36
M  V30 36 1 8 37
M  V30 37 1 10 38
M  V30 38 1 10 39
M  V30 39 1 11 40
M  V30 40 1 11 41
M  V30 41 1 12 42
M  V30 42 1 12 43
M  V30 43 1 16 44
M  V30 44 1 17 45
M  V30 45 1 18 46
M  V30 46 1 19 47
M  V30 47 1 21 48
M  V30 48 1 23 49
M  V30 END BOND
M  V30 END CTAB
M  END
>  <Column 1>
2327

>  <level_0>
2508

>  <index>
2508

>  <Unnamed: 0>
2508

>  <NO.>
2520

>  <Name>
petrichloral

>  <IUPAC_name>
2-2-2-trichloro-1-[3-(2-2-2-trichloro-1-hydroxyethoxy)-2-2-bis[(2-2-2-trichloro-1-hydroxyethoxy)methyl]propoxy]ethanol

>  <SMILES>
OC(OCC(COC(O)C(Cl)(Cl)Cl)(COC(O)C(Cl)(Cl)Cl)COC(O)C(Cl)(Cl)Cl)C(Cl)(Cl)Cl

>  <CID>
6519

>  <logBB>


>  <BBB+/BBB->
BBB+

>  <Inchi>
InChI=1S/C13H16Cl12O8/c14-10(15-16)5(26)30-1-9(2-31-6(27)11(17-18)19-3-32-7(28)12(20-21)22)4-33-8(29)13(23-24)25/h5-8-26-29H-1-4H2

>  <threshold>
-1

>  <reference>
R1|R19|R6|R27|R27|R30|

>  <group>
B

>  <Class>
1

>  <ABC>
24.73

>  <ABCGG>
22.79

>  <nAcid>
0

>  <nBase>
0

>  <nAromAtom>
0

>  <nAromBond>
0

>  <nAtom>
49

>  <nHeavyAtom>
33

>  <nSpiro>
0

>  <nBridgehead>
0

>  <nHetero>
20

>  <nN>
0

>  <nO>
8

>  <nF>
0

>  <BalabanJ>
5.9

>  <BertzCT>
474.18

>  <nBonds>
48

>  <nBondsO>
32

>  <nBondsS>
48

>  <nBondsD>
0

>  <nBondsT>
0

>  <nBondsA>
0

>  <nBondsM>
0

>  <nBondsKS>
48

>  <nBondsKD>
0

>  <RNCG>
0.1

>  <RPCG>
0.06

>  <FCSP3>
1

>  <SZ>
60.33

>  <Sm>
60.42

>  <Sv>
36.14

>  <Sse>
53.93

>  <Sp>
38.9

>  <Si>
55.82

>  <MZ>
1.23

>  <Mm>
1.23

>  <Mv>
0.74

>  <Mse>
1.1

>  <Mp>
0.79

>  <Mi>
1.14

>  <NsCH3>
0

>  <NdCH2>
0

>  <NssCH2>
4

>  <NtCH>
0

>  <NdsCH>
0

>  <NaaCH>
0

>  <NsssCH>
4

>  <NddC>
0

>  <NtsC>
0

>  <NdssC>
0

>  <NaasC>
0

>  <NaaaC>
0

>  <NssssC>
5

>  <NsNH3>
0

>  <NsNH2>
0

>  <NssNH2>
0

>  <NdNH>
0

>  <NssNH>
0

>  <NaaNH>
0

>  <NtN>
0

>  <NsssNH>
0

>  <NdsN>
0

>  <NaaN>
0

>  <NsssN>
0

>  <NddsN>
0

>  <NaasN>
0

>  <NssssN>
0

>  <NsOH>
4

>  <NdO>
0

>  <NssO>
4

>  <NaaO>
0

>  <NsF>
0

>  <NsSiH3>
0

>  <NssSiH2>
0

>  <NsssSiH>
0

>  <NssssSi>
0

>  <NsPH2>
0

>  <NssPH>
0

>  <NsssP>
0

>  <NdsssP>
0

>  <NsssssP>
0

>  <NsSH>
0

>  <NdS>
0

>  <NssS>
0

>  <NaaS>
0

>  <NdssS>
0

>  <NddssS>
0

>  <NsCl>
12

>  <NsBr>
0

>  <NsI>
0

>  <fragCpx>
32.2

>  <fMF>
0

>  <nHBAcc>
8

>  <nHBDon>
4

>  <Kier1>
33

>  <Kier2>
12.3

>  <Lipinski>
0

>  <GhoseFilter>
0

>  <FilterItLogS>
-5.51

>  <VMcGowan>
387.87

>  <LabuteASA>
248.39

>  <PEOE_VSA1>
39.37

>  <PEOE_VSA2>
0

>  <PEOE_VSA3>
0

>  <PEOE_VSA4>
0

>  <PEOE_VSA5>
0

>  <PEOE_VSA6>
139.21

>  <PEOE_VSA7>
0

>  <PEOE_VSA8>
0

>  <PEOE_VSA9>
31.84

>  <PEOE_VSA10>
0

>  <PEOE_VSA11>
0

>  <PEOE_VSA12>
40.33

>  <PEOE_VSA13>
0

>  <SMR_VSA1>
39.37

>  <SMR_VSA2>
0

>  <SMR_VSA3>
0

>  <SMR_VSA4>
5.41

>  <SMR_VSA5>
40.33

>  <SMR_VSA6>
26.43

>  <SMR_VSA7>
0

>  <SMR_VSA8>
0

>  <SMR_VSA9>
0

>  <SlogP_VSA1>
0

>  <SlogP_VSA2>
87.18

>  <SlogP_VSA3>
18.95

>  <SlogP_VSA4>
5.41

>  <SlogP_VSA5>
0

>  <SlogP_VSA6>
0

>  <SlogP_VSA7>
0

>  <SlogP_VSA8>
0

>  <SlogP_VSA9>
0

>  <SlogP_VSA10>
0

>  <SlogP_VSA11>
0

>  <EState_VSA1>
72.17

>  <EState_VSA2>
0

>  <EState_VSA3>
0

>  <EState_VSA4>
0

>  <EState_VSA5>
0

>  <EState_VSA6>
0

>  <EState_VSA7>
0

>  <EState_VSA8>
0

>  <EState_VSA9>
158.16

>  <EState_VSA10>
20.43

>  <VSA_EState1>
11.19

>  <VSA_EState2>
0

>  <VSA_EState3>
39.56

>  <VSA_EState4>
-1.73

>  <VSA_EState5>
0

>  <VSA_EState6>
0

>  <VSA_EState7>
-8.07

>  <VSA_EState8>
-2.75

>  <VSA_EState9>
0

>  <apol>
64.95

>  <bpol>
29.12

>  <nRing>
0

>  <nHRing>
0

>  <naRing>
0

>  <naHRing>
0

>  <nARing 2>
0

>  <nAHRing 2>
0

>  <nFRing>
0

>  <nFHRing>
0

>  <nFaRing>
0

>  <nFaHRing>
0

>  <nFARing 2>
0

>  <nFAHRing 2>
0

>  <nRot>
12

>  <SLogP>
4.79

>  <SMR>
131.43

>  <TopoPSA(NO)>
117.84

>  <TopoPSA>
117.84

>  <JGI1>
0.47

>  <JGI2>
0.13

>  <JGI3>
0.04

>  <JGI4>
0.04

>  <JGI5>
0.05

>  <Diameter>
10

>  <Radius>
5

>  <TMWC10>
141.23

>  <TSRW10>
68.93

>  <MW>
719.71

>  <AMW>
14.69

>  <WPath>
3152

>  <WPol>
48

>  <Zagreb1>
164

>  <Zagreb2>
180

>  <mZagreb2>
6.83

>  <yes>


>  <nAR-cont>
0.336376

>  <nHA-cont>
0.61399562

>  <MWHBN>
0.447303687

>  <MWHBN-cont>
0.29560738

>  <TPSA-cont>
0.177403626

>  <pka_cont>
0.97

>  <yes.1>


>  <BBB_SCORE>
2.233589942

>  <MMFF94 Energy>
242.62

$$$$
Compound 1908
Actelion Java MolfileCreator 2.0

  0  0  0  0  0  0              0 V3000
M  V30 BEGIN CTAB
M  V30 COUNTS 42 45 0 0 0
M  V30 BEGIN ATOM
M  V30 1 O -0.8815 2.1649 0.0 0
M  V30 2 C -0.6706 0.8013 -0.3999 0
M  V30 3 C -1.3599 -0.1398 0.6031 0
M  V30 4 C -1.2358 0.6802 -1.8268 0
M  V30 5 C 0.8222 0.5073 -0.3255 0
M  V30 6 C -1.567 -1.4987 0.2937 0
M  V30 7 C -1.7541 0.3111 1.8756 0
M  V30 8 C -2.616 0.8922 -2.0317 0
M  V30 9 C -0.4457 0.401 -2.9549 0
M  V30 10 C 1.6719 1.0701 0.8057 0
M  V30 11 C 1.8893 1.5424 -0.6115 0
M  V30 12 C -2.159 -2.3654 1.2153 0
M  V30 13 C -2.3449 -0.5568 2.7968 0
M  V30 14 C -3.1822 0.8128 -3.3052 0
M  V30 15 C -1.0141 0.3221 -4.2301 0
M  V30 16 C 2.6694 0.1741 1.4986 0
M  V30 17 C -2.5482 -1.8937 2.4659 0
M  V30 18 C -2.3801 0.5263 -4.4045 0
M  V30 19 C 2.268 -1.0251 2.1005 0
M  V30 20 C 4.0432 0.4403 1.4748 0
M  V30 21 C 3.219 -1.8589 2.6687 0
M  V30 22 C 4.9238 -0.4523 2.068 0
M  V30 23 N 4.5416 -1.5976 2.6677 0
M  V30 24 H -0.9098 2.6924 -0.8149 0
M  V30 25 H 1.0415 -0.5112 -0.6362 0
M  V30 26 H -1.268 -1.8939 -0.6752 0
M  V30 27 H -1.5976 1.3499 2.1607 0
M  V30 28 H -3.2619 1.1195 -1.1835 0
M  V30 29 H 0.6255 0.2394 -2.8694 0
M  V30 30 H 1.1917 1.7921 1.4655 0
M  V30 31 H 2.7714 1.2118 -1.148 0
M  V30 32 H 1.5894 2.5561 -0.8508 0
M  V30 33 H -2.3162 -3.4088 0.9548 0
M  V30 34 H -2.6445 -0.1858 3.7736 0
M  V30 35 H -4.2493 0.9741 -3.4354 0
M  V30 36 H -0.3861 0.101 -5.0897 0
M  V30 37 H -3.0097 -2.5674 3.183 0
M  V30 38 H -2.8185 0.4631 -5.3969 0
M  V30 39 H 1.2188 -1.303 2.1333 0
M  V30 40 H 4.4237 1.3402 1.0034 0
M  V30 41 H 2.9289 -2.788 3.1502 0
M  V30 42 H 5.993 -0.2622 2.0712 0
M  V30 END ATOM
M  V30 BEGIN BOND
M  V30 1 1 1 2
M  V30 2 1 2 3
M  V30 3 1 2 4
M  V30 4 1 2 5
M  V30 5 2 3 6
M  V30 6 1 3 7
M  V30 7 2 4 8
M  V30 8 1 4 9
M  V30 9 1 5 10
M  V30 10 1 5 11
M  V30 11 1 6 12
M  V30 12 2 7 13
M  V30 13 1 8 14
M  V30 14 2 9 15
M  V30 15 1 10 16
M  V30 16 2 12 17
M  V30 17 2 14 18
M  V30 18 2 16 19
M  V30 19 1 16 20
M  V30 20 1 19 21
M  V30 21 2 20 22
M  V30 22 2 21 23
M  V30 23 1 10 11
M  V30 24 1 13 17
M  V30 25 1 15 18
M  V30 26 1 22 23
M  V30 27 1 1 24
M  V30 28 1 5 25
M  V30 29 1 6 26
M  V30 30 1 7 27
M  V30 31 1 8 28
M  V30 32 1 9 29
M  V30 33 1 10 30
M  V30 34 1 11 31
M  V30 35 1 11 32
M  V30 36 1 12 33
M  V30 37 1 13 34
M  V30 38 1 14 35
M  V30 39 1 15 36
M  V30 40 1 17 37
M  V30 41 1 18 38
M  V30 42 1 19 39
M  V30 43 1 20 40
M  V30 44 1 21 41
M  V30 45 1 22 42
M  V30 END BOND
M  V30 END CTAB
M  END
>  <Column 1>
2328

>  <level_0>
2509

>  <index>
2509

>  <Unnamed: 0>
2509

>  <NO.>
2521

>  <Name>
cyprolidol

>  <IUPAC_name>
diphenyl-(2-pyridin-4-ylcyclopropyl)methanol

>  <SMILES>
OC(c1ccccc1)(c1ccccc1)C1CC1c1ccncc1

>  <CID>
23287

>  <logBB>


>  <BBB+/BBB->
BBB+

>  <Inchi>
InChI=1S/C21H19NO/c23-21(17-7-3-1-4-8-17-18-9-5-2-6-10-18)20-15-19(20)16-11-13-22-14-12-16/h1-14-19-20-23H-15H2

>  <threshold>
-1

>  <reference>
R1|R19|R6|R27|R27|R30|

>  <group>
B

>  <Class>
1

>  <ABC>
18.28

>  <ABCGG>
15.72

>  <nAcid>
0

>  <nBase>
0

>  <nAromAtom>
18

>  <nAromBond>
18

>  <nAtom>
42

>  <nHeavyAtom>
23

>  <nSpiro>
0

>  <nBridgehead>
0

>  <nHetero>
2

>  <nN>
1

>  <nO>
1

>  <nF>
0

>  <BalabanJ>
1.5

>  <BertzCT>
731.21

>  <nBonds>
45

>  <nBondsO>
26

>  <nBondsS>
27

>  <nBondsD>
0

>  <nBondsT>
0

>  <nBondsA>
18

>  <nBondsM>
18

>  <nBondsKS>
36

>  <nBondsKD>
9

>  <RNCG>
0.27

>  <RPCG>
0.15

>  <FCSP3>
0.19

>  <SZ>
26.67

>  <Sm>
25.09

>  <Sv>
27.62

>  <Sse>
41.43

>  <Sp>
29.73

>  <Si>
46.45

>  <MZ>
0.63

>  <Mm>
0.6

>  <Mv>
0.66

>  <Mse>
0.99

>  <Mp>
0.71

>  <Mi>
1.11

>  <NsCH3>
0

>  <NdCH2>
0

>  <NssCH2>
1

>  <NtCH>
0

>  <NdsCH>
0

>  <NaaCH>
14

>  <NsssCH>
2

>  <NddC>
0

>  <NtsC>
0

>  <NdssC>
0

>  <NaasC>
3

>  <NaaaC>
0

>  <NssssC>
1

>  <NsNH3>
0

>  <NsNH2>
0

>  <NssNH2>
0

>  <NdNH>
0

>  <NssNH>
0

>  <NaaNH>
0

>  <NtN>
0

>  <NsssNH>
0

>  <NdsN>
0

>  <NaaN>
1

>  <NsssN>
0

>  <NddsN>
0

>  <NaasN>
0

>  <NssssN>
0

>  <NsOH>
1

>  <NdO>
0

>  <NssO>
0

>  <NaaO>
0

>  <NsF>
0

>  <NsSiH3>
0

>  <NssSiH2>
0

>  <NsssSiH>
0

>  <NssssSi>
0

>  <NsPH2>
0

>  <NssPH>
0

>  <NsssP>
0

>  <NdsssP>
0

>  <NsssssP>
0

>  <NsSH>
0

>  <NdS>
0

>  <NssS>
0

>  <NaaS>
0

>  <NdssS>
0

>  <NddssS>
0

>  <NsCl>
0

>  <NsBr>
0

>  <NsI>
0

>  <fragCpx>
170.02

>  <fMF>
0.52

>  <nHBAcc>
2

>  <nHBDon>
1

>  <Kier1>
16.47

>  <Kier2>
7.09

>  <Lipinski>
1

>  <GhoseFilter>
1

>  <FilterItLogS>
-4.77

>  <VMcGowan>
240.46

>  <LabuteASA>
136.01

>  <PEOE_VSA1>
5.11

>  <PEOE_VSA2>
4.98

>  <PEOE_VSA3>
0

>  <PEOE_VSA4>
0

>  <PEOE_VSA5>
0

>  <PEOE_VSA6>
60.66

>  <PEOE_VSA7>
41.16

>  <PEOE_VSA8>
18.31

>  <PEOE_VSA9>
0

>  <PEOE_VSA10>
5.6

>  <PEOE_VSA11>
0

>  <PEOE_VSA12>
0

>  <PEOE_VSA13>
0

>  <SMR_VSA1>
5.11

>  <SMR_VSA2>
0

>  <SMR_VSA3>
4.98

>  <SMR_VSA4>
5.92

>  <SMR_VSA5>
17.94

>  <SMR_VSA6>
0

>  <SMR_VSA7>
101.88

>  <SMR_VSA8>
0

>  <SMR_VSA9>
0

>  <SlogP_VSA1>
0

>  <SlogP_VSA2>
10.09

>  <SlogP_VSA3>
5.6

>  <SlogP_VSA4>
5.92

>  <SlogP_VSA5>
29.03

>  <SlogP_VSA6>
85.19

>  <SlogP_VSA7>
0

>  <SlogP_VSA8>
0

>  <SlogP_VSA9>
0

>  <SlogP_VSA10>
0

>  <SlogP_VSA11>
0

>  <EState_VSA1>
5.6

>  <EState_VSA2>
5.92

>  <EState_VSA3>
5.92

>  <EState_VSA4>
17.55

>  <EState_VSA5>
5.56

>  <EState_VSA6>
0

>  <EState_VSA7>
73.06

>  <EState_VSA8>
17.12

>  <EState_VSA9>
0

>  <EState_VSA10>
5.11

>  <VSA_EState1>
0

>  <VSA_EState2>
4.1

>  <VSA_EState3>
11.71

>  <VSA_EState4>
2.24

>  <VSA_EState5>
0.57

>  <VSA_EState6>
24.15

>  <VSA_EState7>
4.65

>  <VSA_EState8>
0

>  <VSA_EState9>
0

>  <apol>
49.64

>  <bpol>
20.2

>  <nRing>
4

>  <nHRing>
1

>  <naRing>
3

>  <naHRing>
1

>  <nARing 2>
1

>  <nAHRing 2>
0

>  <nFRing>
0

>  <nFHRing>
0

>  <nFaRing>
0

>  <nFaHRing>
0

>  <nFARing 2>
0

>  <nFAHRing 2>
0

>  <nRot>
4

>  <SLogP>
4.12

>  <SMR>
90.97

>  <TopoPSA(NO)>
33.12

>  <TopoPSA>
33.12

>  <JGI1>
0.13

>  <JGI2>
0.08

>  <JGI3>
0.06

>  <JGI4>
0.04

>  <JGI5>
0.02

>  <Diameter>
10

>  <Radius>
5

>  <TMWC10>
125.71

>  <TSRW10>
77.76

>  <MW>
301.15

>  <AMW>
7.17

>  <WPath>
1121

>  <WPol>
38

>  <Zagreb1>
126

>  <Zagreb2>
154

>  <mZagreb2>
5.06

>  <yes>


>  <nAR-cont>
0.816016

>  <nHA-cont>
0.967789328

>  <MWHBN>
0.172874056

>  <MWHBN-cont>
0.978255013

>  <TPSA-cont>
0.768801834

>  <pka_cont>
0.97

>  <yes.1>


>  <BBB_SCORE>
5.273791515

>  <MMFF94 Energy>
67.033

$$$$
Compound 1909
Actelion Java MolfileCreator 2.0

  0  0  0  0  0  0              0 V3000
M  V30 BEGIN CTAB
M  V30 COUNTS 41 43 0 0 0
M  V30 BEGIN ATOM
M  V30 1 O 1.831 -0.7161 0.0795 0
M  V30 2 C 0.4043 -0.4707 -0.0399 0
M  V30 3 C -0.0328 -0.9779 -1.4334 0
M  V30 4 C -0.3334 -1.2833 1.0457 0
M  V30 5 C 0.2311 1.1041 0.1994 0 CFG=1
M  V30 6 C 0.4799 -2.1998 -1.9185 0
M  V30 7 C -0.9789 -0.3104 -2.2305 0
M  V30 8 C -1.7277 -1.1654 1.2061 0
M  V30 9 C 0.3489 -2.1784 1.8895 0
M  V30 10 N 0.5993 1.491 1.5885 0
M  V30 11 C 1.0918 1.938 -0.7851 0
M  V30 12 C 0.0993 -2.7061 -3.1628 0
M  V30 13 C -1.3588 -0.8174 -3.4774 0
M  V30 14 C -2.4087 -1.9093 2.1732 0
M  V30 15 C -0.3329 -2.9215 2.8568 0
M  V30 16 C 0.4323 2.9144 1.852 0
M  V30 17 C 0.9372 3.4381 -0.5453 0
M  V30 18 C -0.8159 -2.0103 -3.9452 0
M  V30 19 C -1.7112 -2.7869 2.9982 0
M  V30 20 C 1.2553 3.7774 0.9041 0
M  V30 21 H 2.2064 -0.6077 -0.8096 0
M  V30 22 H -0.8246 1.3704 0.065 0
M  V30 23 H 1.1751 -2.7784 -1.3107 0
M  V30 24 H -1.4494 0.611 -1.8991 0
M  V30 25 H -2.2999 -0.4903 0.5751 0
M  V30 26 H 1.4262 -2.3007 1.804 0
M  V30 27 H 1.5615 1.1914 1.7587 0
M  V30 28 H 0.8185 1.7255 -1.823 0
M  V30 29 H 2.153 1.6791 -0.6809 0
M  V30 30 H 0.5094 -3.6498 -3.5126 0
M  V30 31 H -2.0891 -0.2828 -4.08 0
M  V30 32 H -3.4845 -1.8012 2.2814 0
M  V30 33 H 0.2163 -3.6029 3.5006 0
M  V30 34 H 0.7315 3.1215 2.8854 0
M  V30 35 H -0.6294 3.1794 1.7781 0
M  V30 36 H -0.0889 3.7446 -0.7818 0
M  V30 37 H 1.6029 3.9948 -1.2141 0
M  V30 38 H -1.1179 -2.4052 -4.9116 0
M  V30 39 H -2.2401 -3.3636 3.7517 0
M  V30 40 H 1.0502 4.8374 1.0916 0
M  V30 41 H 2.3245 3.6187 1.0929 0
M  V30 END ATOM
M  V30 BEGIN BOND
M  V30 1 1 1 2
M  V30 2 1 2 3
M  V30 3 1 2 4
M  V30 4 1 2 5
M  V30 5 2 3 6
M  V30 6 1 3 7
M  V30 7 2 4 8
M  V30 8 1 4 9
M  V30 9 1 5 10
M  V30 10 1 5 11
M  V30 11 1 6 12
M  V30 12 2 7 13
M  V30 13 1 8 14
M  V30 14 2 9 15
M  V30 15 1 10 16
M  V30 16 1 11 17
M  V30 17 2 12 18
M  V30 18 2 14 19
M  V30 19 1 16 20
M  V30 20 1 13 18
M  V30 21 1 15 19
M  V30 22 1 17 20
M  V30 23 1 1 21
M  V30 24 1 5 22
M  V30 25 1 6 23
M  V30 26 1 7 24
M  V30 27 1 8 25
M  V30 28 1 9 26
M  V30 29 1 10 27
M  V30 30 1 11 28
M  V30 31 1 11 29
M  V30 32 1 12 30
M  V30 33 1 13 31
M  V30 34 1 14 32
M  V30 35 1 15 33
M  V30 36 1 16 34
M  V30 37 1 16 35
M  V30 38 1 17 36
M  V30 39 1 17 37
M  V30 40 1 18 38
M  V30 41 1 19 39
M  V30 42 1 20 40
M  V30 43 1 20 41
M  V30 END BOND
M  V30 BEGIN COLLECTION
M  V30 MDLV30/STERAC1 ATOMS=(1 5)
M  V30 END COLLECTION
M  V30 END CTAB
M  END
>  <Column 1>
2329

>  <level_0>
2510

>  <index>
2510

>  <Unnamed: 0>
2510

>  <NO.>
2522

>  <Name>
pipradrol

>  <IUPAC_name>
diphenyl(piperidin-2-yl)methanol

>  <SMILES>
OC(c1ccccc1)(c1ccccc1)C1CCCCN1

>  <CID>
10083

>  <logBB>


>  <BBB+/BBB->
BBB+

>  <Inchi>
InChI=1S/C18H21NO/c20-18(15-9-3-1-4-10-15-16-11-5-2-6-12-16)17-13-7-8-14-19-17/h1-6-9-12-17-19-20H-7-8-13-14H2

>  <threshold>
-1

>  <reference>
R1|R19|R6|R27|R27|R30|

>  <group>
B

>  <Class>
1

>  <ABC>
15.53

>  <ABCGG>
13.06

>  <nAcid>
0

>  <nBase>
1

>  <nAromAtom>
12

>  <nAromBond>
12

>  <nAtom>
41

>  <nHeavyAtom>
20

>  <nSpiro>
0

>  <nBridgehead>
0

>  <nHetero>
2

>  <nN>
1

>  <nO>
1

>  <nF>
0

>  <BalabanJ>
1.79

>  <BertzCT>
492.36

>  <nBonds>
43

>  <nBondsO>
22

>  <nBondsS>
31

>  <nBondsD>
0

>  <nBondsT>
0

>  <nBondsA>
12

>  <nBondsM>
12

>  <nBondsKS>
37

>  <nBondsKD>
6

>  <RNCG>
0.26

>  <RPCG>
0.15

>  <FCSP3>
0.33

>  <SZ>
24

>  <Sm>
22.26

>  <Sv>
25.16

>  <Sse>
40.32

>  <Sp>
27.52

>  <Si>
45.86

>  <MZ>
0.59

>  <Mm>
0.54

>  <Mv>
0.61

>  <Mse>
0.98

>  <Mp>
0.67

>  <Mi>
1.12

>  <NsCH3>
0

>  <NdCH2>
0

>  <NssCH2>
4

>  <NtCH>
0

>  <NdsCH>
0

>  <NaaCH>
10

>  <NsssCH>
1

>  <NddC>
0

>  <NtsC>
0

>  <NdssC>
0

>  <NaasC>
2

>  <NaaaC>
0

>  <NssssC>
1

>  <NsNH3>
0

>  <NsNH2>
0

>  <NssNH2>
0

>  <NdNH>
0

>  <NssNH>
1

>  <NaaNH>
0

>  <NtN>
0

>  <NsssNH>
0

>  <NdsN>
0

>  <NaaN>
0

>  <NsssN>
0

>  <NddsN>
0

>  <NaasN>
0

>  <NssssN>
0

>  <NsOH>
1

>  <NdO>
0

>  <NssO>
0

>  <NaaO>
0

>  <NsF>
0

>  <NsSiH3>
0

>  <NssSiH2>
0

>  <NsssSiH>
0

>  <NssssSi>
0

>  <NsPH2>
0

>  <NssPH>
0

>  <NsssP>
0

>  <NdsssP>
0

>  <NsssssP>
0

>  <NsSH>
0

>  <NdS>
0

>  <NssS>
0

>  <NaaS>
0

>  <NdssS>
0

>  <NddssS>
0

>  <NsCl>
0

>  <NsBr>
0

>  <NsI>
0

>  <fragCpx>
104.02

>  <fMF>
0.46

>  <nHBAcc>
2

>  <nHBDon>
2

>  <Kier1>
14.92

>  <Kier2>
6.84

>  <Lipinski>
1

>  <GhoseFilter>
1

>  <FilterItLogS>
-4.08

>  <VMcGowan>
221.95

>  <LabuteASA>
120.02

>  <PEOE_VSA1>
10.42

>  <PEOE_VSA2>
0

>  <PEOE_VSA3>
0

>  <PEOE_VSA4>
0

>  <PEOE_VSA5>
0

>  <PEOE_VSA6>
67.08

>  <PEOE_VSA7>
30.51

>  <PEOE_VSA8>
6.04

>  <PEOE_VSA9>
0

>  <PEOE_VSA10>
5.6

>  <PEOE_VSA11>
0

>  <PEOE_VSA12>
0

>  <PEOE_VSA13>
0

>  <SMR_VSA1>
5.11

>  <SMR_VSA2>
0

>  <SMR_VSA3>
5.32

>  <SMR_VSA4>
0

>  <SMR_VSA5>
30.91

>  <SMR_VSA6>
6.54

>  <SMR_VSA7>
71.79

>  <SMR_VSA8>
0

>  <SMR_VSA9>
0

>  <SlogP_VSA1>
5.32

>  <SlogP_VSA2>
17.69

>  <SlogP_VSA3>
5.6

>  <SlogP_VSA4>
0

>  <SlogP_VSA5>
30.39

>  <SlogP_VSA6>
60.66

>  <SlogP_VSA7>
0

>  <SlogP_VSA8>
0

>  <SlogP_VSA9>
0

>  <SlogP_VSA10>
0

>  <SlogP_VSA11>
0

>  <EState_VSA1>
5.6

>  <EState_VSA2>
6.04

>  <EState_VSA3>
0

>  <EState_VSA4>
24.09

>  <EState_VSA5>
12.84

>  <EState_VSA6>
0

>  <EState_VSA7>
60.66

>  <EState_VSA8>
5.32

>  <EState_VSA9>
0

>  <EState_VSA10>
5.11

>  <VSA_EState1>
0

>  <VSA_EState2>
0

>  <VSA_EState3>
15.02

>  <VSA_EState4>
0.97

>  <VSA_EState5>
0

>  <VSA_EState6>
20.09

>  <VSA_EState7>
3.36

>  <VSA_EState8>
0.98

>  <VSA_EState9>
0

>  <apol>
45.96

>  <bpol>
21.64

>  <nRing>
3

>  <nHRing>
1

>  <naRing>
2

>  <naHRing>
0

>  <nARing 2>
1

>  <nAHRing 2>
1

>  <nFRing>
0

>  <nFHRing>
0

>  <nFaRing>
0

>  <nFaHRing>
0

>  <nFARing 2>
0

>  <nFAHRing 2>
0

>  <nRot>
3

>  <SLogP>
3.06

>  <SMR>
81.52

>  <TopoPSA(NO)>
32.26

>  <TopoPSA>
32.26

>  <JGI1>
0.14

>  <JGI2>
0.09

>  <JGI3>
0.06

>  <JGI4>
0.02

>  <JGI5>
0.01

>  <Diameter>
8

>  <Radius>
4

>  <TMWC10>
115.92

>  <TSRW10>
53.91

>  <MW>
267.16

>  <AMW>
6.52

>  <WPath>
730

>  <WPol>
33

>  <Zagreb1>
104

>  <Zagreb2>
124

>  <mZagreb2>
4.5

>  <yes>


>  <nAR-cont>
0.816016

>  <nHA-cont>
0.999629945

>  <MWHBN>
0.24472271

>  <MWHBN-cont>
0.968203008

>  <TPSA-cont>
0.774805168

>  <pka_cont>
0.97

>  <yes.1>


>  <BBB_SCORE>
5.302560792

>  <MMFF94 Energy>
101.66

$$$$
Compound 1910
Actelion Java MolfileCreator 2.0

  0  0  0  0  0  0              0 V3000
M  V30 BEGIN CTAB
M  V30 COUNTS 41 43 0 0 0
M  V30 BEGIN ATOM
M  V30 1 O 2.1487 0.3181 0.4771 0
M  V30 2 C 0.7254 0.0538 0.3568 0
M  V30 3 C 0.6204 -1.4836 0.274 0
M  V30 4 C 0.065 0.6079 1.6413 0
M  V30 5 C 0.2745 0.9449 -0.8609 0
M  V30 6 C -0.0246 -2.1908 -0.7496 0
M  V30 7 C 1.2136 -2.25 1.306 0
M  V30 8 C -1.1403 0.0732 2.137 0
M  V30 9 C 0.6301 1.6966 2.332 0
M  V30 10 C 1.066 0.675 -2.1624 0
M  V30 11 C -1.2442 1.0022 -1.1302 0
M  V30 12 C -0.0733 -3.5905 -0.7482 0
M  V30 13 C 1.1655 -3.6455 1.3097 0
M  V30 14 C -1.7443 0.596 3.2836 0
M  V30 15 C 0.0252 2.2189 3.4779 0
M  V30 16 C 0.6053 1.5811 -3.3029 0
M  V30 17 C -1.5734 1.8814 -2.3371 0
M  V30 18 C 0.5207 -4.3166 0.2788 0
M  V30 19 C -1.1609 1.6675 3.9539 0
M  V30 20 N -0.8345 1.4737 -3.5302 0
M  V30 21 H 2.6168 -0.4168 0.0465 0
M  V30 22 H 0.5546 1.978 -0.5936 0
M  V30 23 H -0.5065 -1.6882 -1.5794 0
M  V30 24 H 1.7179 -1.7456 2.1315 0
M  V30 25 H -1.6254 -0.76 1.6324 0
M  V30 26 H 1.5556 2.1469 1.9771 0
M  V30 27 H 0.966 -0.3653 -2.4826 0
M  V30 28 H 2.136 0.8465 -1.9969 0
M  V30 29 H -1.7682 1.4201 -0.2638 0
M  V30 30 H -1.6639 0.0071 -1.2939 0
M  V30 31 H -0.5802 -4.1141 -1.5556 0
M  V30 32 H 1.6282 -4.2024 2.1203 0
M  V30 33 H -2.6716 0.1648 3.6519 0
M  V30 34 H 0.4832 3.0568 3.9968 0
M  V30 35 H 1.1303 1.3009 -4.2229 0
M  V30 36 H 0.8765 2.6237 -3.0963 0
M  V30 37 H -1.3639 2.9338 -2.109 0
M  V30 38 H -2.647 1.8193 -2.5477 0
M  V30 39 H 0.4783 -5.4024 0.2764 0
M  V30 40 H -1.6305 2.0734 4.8458 0
M  V30 41 H -1.071 0.5102 -3.7638 0
M  V30 END ATOM
M  V30 BEGIN BOND
M  V30 1 1 1 2
M  V30 2 1 2 3
M  V30 3 1 2 4
M  V30 4 1 2 5
M  V30 5 2 3 6
M  V30 6 1 3 7
M  V30 7 2 4 8
M  V30 8 1 4 9
M  V30 9 1 5 10
M  V30 10 1 5 11
M  V30 11 1 6 12
M  V30 12 2 7 13
M  V30 13 1 8 14
M  V30 14 2 9 15
M  V30 15 1 10 16
M  V30 16 1 11 17
M  V30 17 2 12 18
M  V30 18 2 14 19
M  V30 19 1 16 20
M  V30 20 1 13 18
M  V30 21 1 15 19
M  V30 22 1 17 20
M  V30 23 1 1 21
M  V30 24 1 5 22
M  V30 25 1 6 23
M  V30 26 1 7 24
M  V30 27 1 8 25
M  V30 28 1 9 26
M  V30 29 1 10 27
M  V30 30 1 10 28
M  V30 31 1 11 29
M  V30 32 1 11 30
M  V30 33 1 12 31
M  V30 34 1 13 32
M  V30 35 1 14 33
M  V30 36 1 15 34
M  V30 37 1 16 35
M  V30 38 1 16 36
M  V30 39 1 17 37
M  V30 40 1 17 38
M  V30 41 1 18 39
M  V30 42 1 19 40
M  V30 43 1 20 41
M  V30 END BOND
M  V30 END CTAB
M  END
>  <Column 1>
2330

>  <level_0>
2511

>  <index>
2511

>  <Unnamed: 0>
2511

>  <NO.>
2523

>  <Name>
azacyclonol

>  <IUPAC_name>
diphenyl(piperidin-4-yl)methanol

>  <SMILES>
OC(c1ccccc1)(c1ccccc1)C1CCNCC1

>  <CID>
15723

>  <logBB>


>  <BBB+/BBB->
BBB+

>  <Inchi>
InChI=1S/C18H21NO/c20-18(15-7-3-1-4-8-15-16-9-5-2-6-10-16)17-11-13-19-14-12-17/h1-10-17-19-20H-11-14H2

>  <threshold>
-1

>  <reference>
R1|R13|R19|R6|R24|R27|R27|R27|R30|R30|

>  <group>
B

>  <Class>
1

>  <ABC>
15.53

>  <ABCGG>
13.06

>  <nAcid>
0

>  <nBase>
1

>  <nAromAtom>
12

>  <nAromBond>
12

>  <nAtom>
41

>  <nHeavyAtom>
20

>  <nSpiro>
0

>  <nBridgehead>
0

>  <nHetero>
2

>  <nN>
1

>  <nO>
1

>  <nF>
0

>  <BalabanJ>
1.79

>  <BertzCT>
492.36

>  <nBonds>
43

>  <nBondsO>
22

>  <nBondsS>
31

>  <nBondsD>
0

>  <nBondsT>
0

>  <nBondsA>
12

>  <nBondsM>
12

>  <nBondsKS>
37

>  <nBondsKD>
6

>  <RNCG>
0.27

>  <RPCG>
0.15

>  <FCSP3>
0.33

>  <SZ>
24

>  <Sm>
22.26

>  <Sv>
25.16

>  <Sse>
40.32

>  <Sp>
27.52

>  <Si>
45.86

>  <MZ>
0.59

>  <Mm>
0.54

>  <Mv>
0.61

>  <Mse>
0.98

>  <Mp>
0.67

>  <Mi>
1.12

>  <NsCH3>
0

>  <NdCH2>
0

>  <NssCH2>
4

>  <NtCH>
0

>  <NdsCH>
0

>  <NaaCH>
10

>  <NsssCH>
1

>  <NddC>
0

>  <NtsC>
0

>  <NdssC>
0

>  <NaasC>
2

>  <NaaaC>
0

>  <NssssC>
1

>  <NsNH3>
0

>  <NsNH2>
0

>  <NssNH2>
0

>  <NdNH>
0

>  <NssNH>
1

>  <NaaNH>
0

>  <NtN>
0

>  <NsssNH>
0

>  <NdsN>
0

>  <NaaN>
0

>  <NsssN>
0

>  <NddsN>
0

>  <NaasN>
0

>  <NssssN>
0

>  <NsOH>
1

>  <NdO>
0

>  <NssO>
0

>  <NaaO>
0

>  <NsF>
0

>  <NsSiH3>
0

>  <NssSiH2>
0

>  <NsssSiH>
0

>  <NssssSi>
0

>  <NsPH2>
0

>  <NssPH>
0

>  <NsssP>
0

>  <NdsssP>
0

>  <NsssssP>
0

>  <NsSH>
0

>  <NdS>
0

>  <NssS>
0

>  <NaaS>
0

>  <NdssS>
0

>  <NddssS>
0

>  <NsCl>
0

>  <NsBr>
0

>  <NsI>
0

>  <fragCpx>
104.02

>  <fMF>
0.46

>  <nHBAcc>
2

>  <nHBDon>
2

>  <Kier1>
14.92

>  <Kier2>
6.84

>  <Lipinski>
1

>  <GhoseFilter>
1

>  <FilterItLogS>
-4.08

>  <VMcGowan>
221.95

>  <LabuteASA>
120.02

>  <PEOE_VSA1>
10.42

>  <PEOE_VSA2>
0

>  <PEOE_VSA3>
0

>  <PEOE_VSA4>
0

>  <PEOE_VSA5>
0

>  <PEOE_VSA6>
60.66

>  <PEOE_VSA7>
42.98

>  <PEOE_VSA8>
0

>  <PEOE_VSA9>
0

>  <PEOE_VSA10>
5.6

>  <PEOE_VSA11>
0

>  <PEOE_VSA12>
0

>  <PEOE_VSA13>
0

>  <SMR_VSA1>
5.11

>  <SMR_VSA2>
0

>  <SMR_VSA3>
5.32

>  <SMR_VSA4>
5.92

>  <SMR_VSA5>
18.44

>  <SMR_VSA6>
13.09

>  <SMR_VSA7>
71.79

>  <SMR_VSA8>
0

>  <SMR_VSA9>
0

>  <SlogP_VSA1>
5.32

>  <SlogP_VSA2>
18.2

>  <SlogP_VSA3>
5.6

>  <SlogP_VSA4>
5.92

>  <SlogP_VSA5>
23.97

>  <SlogP_VSA6>
60.66

>  <SlogP_VSA7>
0

>  <SlogP_VSA8>
0

>  <SlogP_VSA9>
0

>  <SlogP_VSA10>
0

>  <SlogP_VSA11>
0

>  <EState_VSA1>
5.6

>  <EState_VSA2>
5.92

>  <EState_VSA3>
0

>  <EState_VSA4>
37.06

>  <EState_VSA5>
0

>  <EState_VSA6>
0

>  <EState_VSA7>
60.66

>  <EState_VSA8>
5.32

>  <EState_VSA9>
0

>  <EState_VSA10>
5.11

>  <VSA_EState1>
0

>  <VSA_EState2>
0

>  <VSA_EState3>
14.93

>  <VSA_EState4>
1.11

>  <VSA_EState5>
0.26

>  <VSA_EState6>
20.16

>  <VSA_EState7>
2

>  <VSA_EState8>
1.96

>  <VSA_EState9>
0

>  <apol>
45.96

>  <bpol>
21.64

>  <nRing>
3

>  <nHRing>
1

>  <naRing>
2

>  <naHRing>
0

>  <nARing 2>
1

>  <nAHRing 2>
1

>  <nFRing>
0

>  <nFHRing>
0

>  <nFaRing>
0

>  <nFaHRing>
0

>  <nFARing 2>
0

>  <nFAHRing 2>
0

>  <nRot>
3

>  <SLogP>
2.92

>  <SMR>
81.48

>  <TopoPSA(NO)>
32.26

>  <TopoPSA>
32.26

>  <JGI1>
0.14

>  <JGI2>
0.09

>  <JGI3>
0.06

>  <JGI4>
0.02

>  <JGI5>
0.01

>  <Diameter>
8

>  <Radius>
4

>  <TMWC10>
115.92

>  <TSRW10>
53.91

>  <MW>
267.16

>  <AMW>
6.52

>  <WPath>
730

>  <WPol>
33

>  <Zagreb1>
104

>  <Zagreb2>
124

>  <mZagreb2>
4.5

>  <yes>


>  <nAR-cont>
0.816016

>  <nHA-cont>
0.999629945

>  <MWHBN>
0.24472271

>  <MWHBN-cont>
0.968203008

>  <TPSA-cont>
0.774805168

>  <pka_cont>
0.97

>  <yes.1>


>  <BBB_SCORE>
5.302560792

>  <MMFF94 Energy>
59.452

$$$$
Compound 1911
Actelion Java MolfileCreator 2.0

  0  0  0  0  0  0              0 V3000
M  V30 BEGIN CTAB
M  V30 COUNTS 33 36 0 0 0
M  V30 BEGIN ATOM
M  V30 1 Cl 4.1709 -2.4519 -3.0246 0
M  V30 2 C 2.8687 -1.9489 -2.0196 0
M  V30 3 C 2.2426 -2.8696 -1.1846 0
M  V30 4 C 2.4455 -0.6236 -2.0457 0
M  V30 5 C 1.1832 -2.4614 -0.368 0
M  V30 6 C 1.3866 -0.2164 -1.2288 0
M  V30 7 C 0.7337 -1.1278 -0.3732 0
M  V30 8 C -0.4193 -0.6819 0.515 0 CFG=2
M  V30 9 O -0.9484 -1.7331 1.2909 0
M  V30 10 N -1.5103 -0.1105 -0.2207 0
M  V30 11 C -0.0791 0.4808 1.4442 0
M  V30 12 C -1.7293 1.1981 0.0574 0
M  V30 13 C -2.1571 -0.4778 -1.4321 0
M  V30 14 C -0.8747 1.6078 1.1502 0
M  V30 15 C 0.8538 0.553 2.4661 0
M  V30 16 N -2.5781 1.8541 -0.6723 0
M  V30 17 C -3.046 0.7838 -1.6388 0
M  V30 18 C -0.7707 2.8085 1.8164 0
M  V30 19 C 0.9757 1.7619 3.1638 0
M  V30 20 C 0.1742 2.8773 2.8413 0
M  V30 21 H 2.5716 -3.9051 -1.1612 0
M  V30 22 H 2.9323 0.098 -2.6963 0
M  V30 23 H 0.7092 -3.1979 0.2794 0
M  V30 24 H 1.069 0.825 -1.2667 0
M  V30 25 H -1.8939 -1.5116 1.3073 0
M  V30 26 H -1.4544 -0.5872 -2.2636 0
M  V30 27 H -2.7595 -1.3854 -1.3367 0
M  V30 28 H 1.4739 -0.3013 2.7197 0
M  V30 29 H -2.9672 1.1548 -2.6656 0
M  V30 30 H -4.0968 0.5584 -1.4255 0
M  V30 31 H -1.3973 3.6532 1.5537 0
M  V30 32 H 1.7024 1.8443 3.97 0
M  V30 33 H 0.2944 3.8024 3.4012 0
M  V30 END ATOM
M  V30 BEGIN BOND
M  V30 1 1 1 2
M  V30 2 2 2 3
M  V30 3 1 2 4
M  V30 4 1 3 5
M  V30 5 2 4 6
M  V30 6 2 5 7
M  V30 7 1 7 8
M  V30 8 1 8 9
M  V30 9 1 8 10
M  V30 10 1 8 11
M  V30 11 1 10 12
M  V30 12 1 10 13
M  V30 13 2 11 14
M  V30 14 1 11 15
M  V30 15 2 12 16
M  V30 16 1 13 17
M  V30 17 1 14 18
M  V30 18 2 15 19
M  V30 19 2 18 20
M  V30 20 1 6 7
M  V30 21 1 12 14
M  V30 22 1 16 17
M  V30 23 1 19 20
M  V30 24 1 3 21
M  V30 25 1 4 22
M  V30 26 1 5 23
M  V30 27 1 6 24
M  V30 28 1 9 25
M  V30 29 1 13 26
M  V30 30 1 13 27
M  V30 31 1 15 28
M  V30 32 1 17 29
M  V30 33 1 17 30
M  V30 34 1 18 31
M  V30 35 1 19 32
M  V30 36 1 20 33
M  V30 END BOND
M  V30 BEGIN COLLECTION
M  V30 MDLV30/STERAC1 ATOMS=(1 8)
M  V30 END COLLECTION
M  V30 END CTAB
M  END
>  <Column 1>
2332

>  <level_0>
2513

>  <index>
2513

>  <Unnamed: 0>
2513

>  <NO.>
2525

>  <Name>
mazindol

>  <IUPAC_name>
5-(4-chlorophenyl)-2-3-dihydroimidazo[1-2-b]isoindol-5-ol

>  <SMILES>
OC1(c2ccc(Cl)cc2)c2ccccc2C2=NCCN21

>  <CID>
4020

>  <logBB>


>  <BBB+/BBB->
BBB+

>  <Inchi>
InChI=1S/C16H13ClN2O/c17-12-7-5-11(6-8-12)16(20)14-4-2-1-3-13(14)15-18-9-10-19(15)16/h1-8-20H-9-10H2

>  <threshold>
-1

>  <reference>
R1|R13|R19|R6|R14|R23|R27|R27|R30|

>  <group>
B

>  <Class>
1

>  <ABC>
16.23

>  <ABCGG>
13.74

>  <nAcid>
0

>  <nBase>
2

>  <nAromAtom>
12

>  <nAromBond>
12

>  <nAtom>
33

>  <nHeavyAtom>
20

>  <nSpiro>
0

>  <nBridgehead>
0

>  <nHetero>
4

>  <nN>
2

>  <nO>
1

>  <nF>
0

>  <BalabanJ>
1.63

>  <BertzCT>
710.67

>  <nBonds>
36

>  <nBondsO>
23

>  <nBondsS>
23

>  <nBondsD>
1

>  <nBondsT>
0

>  <nBondsA>
12

>  <nBondsM>
13

>  <nBondsKS>
29

>  <nBondsKD>
7

>  <RNCG>
0.25

>  <RPCG>
0.15

>  <FCSP3>
0.19

>  <SZ>
24.67

>  <Sm>
23.71

>  <Sv>
22.84

>  <Sse>
33.19

>  <Sp>
24.29

>  <Si>
36.64

>  <MZ>
0.75

>  <Mm>
0.72

>  <Mv>
0.69

>  <Mse>
1.01

>  <Mp>
0.74

>  <Mi>
1.11

>  <NsCH3>
0

>  <NdCH2>
0

>  <NssCH2>
2

>  <NtCH>
0

>  <NdsCH>
0

>  <NaaCH>
8

>  <NsssCH>
0

>  <NddC>
0

>  <NtsC>
0

>  <NdssC>
1

>  <NaasC>
4

>  <NaaaC>
0

>  <NssssC>
1

>  <NsNH3>
0

>  <NsNH2>
0

>  <NssNH2>
0

>  <NdNH>
0

>  <NssNH>
0

>  <NaaNH>
0

>  <NtN>
0

>  <NsssNH>
0

>  <NdsN>
1

>  <NaaN>
0

>  <NsssN>
1

>  <NddsN>
0

>  <NaasN>
0

>  <NssssN>
0

>  <NsOH>
1

>  <NdO>
0

>  <NssO>
0

>  <NaaO>
0

>  <NsF>
0

>  <NsSiH3>
0

>  <NssSiH2>
0

>  <NsssSiH>
0

>  <NssssSi>
0

>  <NsPH2>
0

>  <NssPH>
0

>  <NsssP>
0

>  <NdsssP>
0

>  <NsssssP>
0

>  <NsSH>
0

>  <NdS>
0

>  <NssS>
0

>  <NaaS>
0

>  <NdssS>
0

>  <NddssS>
0

>  <NsCl>
1

>  <NsBr>
0

>  <NsI>
0

>  <fragCpx>
149.04

>  <fMF>
0.55

>  <nHBAcc>
3

>  <nHBDon>
1

>  <Kier1>
13.65

>  <Kier2>
5.03

>  <Lipinski>
1

>  <GhoseFilter>
1

>  <FilterItLogS>
-4.2

>  <VMcGowan>
200.83

>  <LabuteASA>
121.69

>  <PEOE_VSA1>
10.01

>  <PEOE_VSA2>
4.99

>  <PEOE_VSA3>
0

>  <PEOE_VSA4>
0

>  <PEOE_VSA5>
0

>  <PEOE_VSA6>
48

>  <PEOE_VSA7>
12.13

>  <PEOE_VSA8>
28.26

>  <PEOE_VSA9>
6.54

>  <PEOE_VSA10>
5.84

>  <PEOE_VSA11>
5.72

>  <PEOE_VSA12>
0

>  <PEOE_VSA13>
0

>  <SMR_VSA1>
5.11

>  <SMR_VSA2>
0

>  <SMR_VSA3>
4.9

>  <SMR_VSA4>
4.99

>  <SMR_VSA5>
5.72

>  <SMR_VSA6>
13.09

>  <SMR_VSA7>
70.24

>  <SMR_VSA8>
0

>  <SMR_VSA9>
0

>  <SlogP_VSA1>
0

>  <SlogP_VSA2>
28.93

>  <SlogP_VSA3>
5.72

>  <SlogP_VSA4>
0

>  <SlogP_VSA5>
16.69

>  <SlogP_VSA6>
53.52

>  <SlogP_VSA7>
5.02

>  <SlogP_VSA8>
0

>  <SlogP_VSA9>
0

>  <SlogP_VSA10>
0

>  <SlogP_VSA11>
0

>  <EState_VSA1>
5.72

>  <EState_VSA2>
0

>  <EState_VSA3>
5.02

>  <EState_VSA4>
35.62

>  <EState_VSA5>
0

>  <EState_VSA6>
0

>  <EState_VSA7>
53.43

>  <EState_VSA8>
4.99

>  <EState_VSA9>
11.6

>  <EState_VSA10>
5.11

>  <VSA_EState1>
0

>  <VSA_EState2>
6.51

>  <VSA_EState3>
12.04

>  <VSA_EState4>
1.58

>  <VSA_EState5>
0.89

>  <VSA_EState6>
15.27

>  <VSA_EState7>
0

>  <VSA_EState8>
1.45

>  <VSA_EState9>
0

>  <apol>
40.57

>  <bpol>
16.4

>  <nRing>
4

>  <nHRing>
2

>  <naRing>
2

>  <naHRing>
0

>  <nARing 2>
2

>  <nAHRing 2>
2

>  <nFRing>
1

>  <nFHRing>
1

>  <nFaRing>
0

>  <nFaHRing>
0

>  <nFARing 2>
1

>  <nFAHRing 2>
1

>  <nRot>
1

>  <SLogP>
2.61

>  <SMR>
79

>  <TopoPSA(NO)>
35.83

>  <TopoPSA>
35.83

>  <JGI1>
0.17

>  <JGI2>
0.1

>  <JGI3>
0.07

>  <JGI4>
0.04

>  <JGI5>
0.02

>  <Diameter>
9

>  <Radius>
5

>  <TMWC10>
119.86

>  <TSRW10>
71.13

>  <MW>
284.07

>  <AMW>
8.61

>  <WPath>
702

>  <WPol>
37

>  <Zagreb1>
116

>  <Zagreb2>
146

>  <mZagreb2>
4.25

>  <yes>


>  <nAR-cont>
1

>  <nHA-cont>
0.999629945

>  <MWHBN>
0.237327085

>  <MWHBN-cont>
0.978464565

>  <TPSA-cont>
0.749884351

>  <pka_cont>
0.97

>  <yes.1>


>  <BBB_SCORE>
5.452095493

>  <MMFF94 Energy>
29.844

$$$$
Compound 1912
Actelion Java MolfileCreator 2.0

  0  0  0  0  0  0              0 V3000
M  V30 BEGIN CTAB
M  V30 COUNTS 36 39 0 0 0
M  V30 BEGIN ATOM
M  V30 1 Cl -3.1795 -4.241 -2.4451 0
M  V30 2 C -2.8247 -2.7696 -1.6254 0
M  V30 3 C -1.5028 -2.3351 -1.5231 0
M  V30 4 C -3.859 -2.0258 -1.0651 0
M  V30 5 C -1.1896 -1.1335 -0.8599 0
M  V30 6 C -3.5686 -0.8412 -0.3919 0
M  V30 7 C -2.2462 -0.402 -0.2856 0
M  V30 8 C 0.2589 -0.6776 -0.7236 0 CFG=1
M  V30 9 O 1.0877 -1.2658 -1.7219 0
M  V30 10 C 0.4467 0.883 -0.7947 0
M  V30 11 C 0.8445 -0.9424 0.6553 0
M  V30 12 N 0.1295 1.5782 -1.8378 0
M  V30 13 N 1.0146 1.337 0.3793 0
M  V30 14 C 1.2432 0.2809 1.2429 0
M  V30 15 C 1.0011 -2.1524 1.3159 0
M  V30 16 C 0.3412 3.0287 -1.6833 0
M  V30 17 C 1.3551 2.7182 0.588 0
M  V30 18 C 1.7883 0.2925 2.5134 0
M  V30 19 C 1.554 -2.1345 2.596 0
M  V30 20 C 1.5265 3.368 -0.7821 0
M  V30 21 C 1.9412 -0.9228 3.1907 0
M  V30 22 H -0.7088 -2.9391 -1.9582 0
M  V30 23 H -4.8881 -2.3643 -1.1448 0
M  V30 24 H -4.3711 -0.2585 0.0535 0
M  V30 25 H -2.0492 0.5221 0.255 0
M  V30 26 H 0.9103 -0.7337 -2.5204 0
M  V30 27 H 0.7032 -3.0859 0.8491 0
M  V30 28 H 0.5184 3.4548 -2.6768 0
M  V30 29 H -0.5789 3.4838 -1.2979 0
M  V30 30 H 2.2869 2.8272 1.154 0
M  V30 31 H 0.5572 3.2162 1.1505 0
M  V30 32 H 2.0997 1.2158 2.9886 0
M  V30 33 H 1.6882 -3.0678 3.1382 0
M  V30 34 H 1.6262 4.4535 -0.6752 0
M  V30 35 H 2.4495 2.9992 -1.2478 0
M  V30 36 H 2.3711 -0.9317 4.1898 0
M  V30 END ATOM
M  V30 BEGIN BOND
M  V30 1 1 1 2
M  V30 2 2 2 3
M  V30 3 1 2 4
M  V30 4 1 3 5
M  V30 5 2 4 6
M  V30 6 2 5 7
M  V30 7 1 5 8
M  V30 8 1 8 9
M  V30 9 1 8 10
M  V30 10 1 8 11
M  V30 11 2 10 12
M  V30 12 1 10 13
M  V30 13 2 11 14
M  V30 14 1 11 15
M  V30 15 1 12 16
M  V30 16 1 13 17
M  V30 17 1 14 18
M  V30 18 2 15 19
M  V30 19 1 16 20
M  V30 20 2 18 21
M  V30 21 1 6 7
M  V30 22 1 13 14
M  V30 23 1 17 20
M  V30 24 1 19 21
M  V30 25 1 3 22
M  V30 26 1 4 23
M  V30 27 1 6 24
M  V30 28 1 7 25
M  V30 29 1 9 26
M  V30 30 1 15 27
M  V30 31 1 16 28
M  V30 32 1 16 29
M  V30 33 1 17 30
M  V30 34 1 17 31
M  V30 35 1 18 32
M  V30 36 1 19 33
M  V30 37 1 20 34
M  V30 38 1 20 35
M  V30 39 1 21 36
M  V30 END BOND
M  V30 BEGIN COLLECTION
M  V30 MDLV30/STERAC1 ATOMS=(1 8)
M  V30 END COLLECTION
M  V30 END CTAB
M  END
>  <Column 1>
2333

>  <level_0>
2514

>  <index>
2514

>  <Unnamed: 0>
2514

>  <NO.>
2526

>  <Name>
ciclazindol

>  <IUPAC_name>
10-(3-chlorophenyl)-3-4-dihydro-2h-pyrimido[1-2-a]indol-10-ol

>  <SMILES>
OC1(c2cccc(Cl)c2)C2=NCCCN2c2ccccc21

>  <CID>
37825

>  <logBB>


>  <BBB+/BBB->
BBB+

>  <Inchi>
InChI=1S/C17H15ClN2O/c18-13-6-3-5-12(11-13)17(21)14-7-1-2-8-15(14)20-10-4-9-19-16(17)20/h1-3-5-8-11-21H-4-9-10H2

>  <threshold>
-1

>  <reference>
R1|R13|R6|R27|R30|

>  <group>
B

>  <Class>
1

>  <ABC>
16.93

>  <ABCGG>
13.79

>  <nAcid>
0

>  <nBase>
2

>  <nAromAtom>
12

>  <nAromBond>
12

>  <nAtom>
36

>  <nHeavyAtom>
21

>  <nSpiro>
0

>  <nBridgehead>
0

>  <nHetero>
4

>  <nN>
2

>  <nO>
1

>  <nF>
0

>  <BalabanJ>
1.66

>  <BertzCT>
743.07

>  <nBonds>
39

>  <nBondsO>
24

>  <nBondsS>
26

>  <nBondsD>
1

>  <nBondsT>
0

>  <nBondsA>
12

>  <nBondsM>
13

>  <nBondsKS>
32

>  <nBondsKD>
7

>  <RNCG>
0.25

>  <RPCG>
0.14

>  <FCSP3>
0.24

>  <SZ>
26

>  <Sm>
24.87

>  <Sv>
24.39

>  <Sse>
36.08

>  <Sp>
26.09

>  <Si>
40.06

>  <MZ>
0.72

>  <Mm>
0.69

>  <Mv>
0.68

>  <Mse>
1

>  <Mp>
0.72

>  <Mi>
1.11

>  <NsCH3>
0

>  <NdCH2>
0

>  <NssCH2>
3

>  <NtCH>
0

>  <NdsCH>
0

>  <NaaCH>
8

>  <NsssCH>
0

>  <NddC>
0

>  <NtsC>
0

>  <NdssC>
1

>  <NaasC>
4

>  <NaaaC>
0

>  <NssssC>
1

>  <NsNH3>
0

>  <NsNH2>
0

>  <NssNH2>
0

>  <NdNH>
0

>  <NssNH>
0

>  <NaaNH>
0

>  <NtN>
0

>  <NsssNH>
0

>  <NdsN>
1

>  <NaaN>
0

>  <NsssN>
1

>  <NddsN>
0

>  <NaasN>
0

>  <NssssN>
0

>  <NsOH>
1

>  <NdO>
0

>  <NssO>
0

>  <NaaO>
0

>  <NsF>
0

>  <NsSiH3>
0

>  <NssSiH2>
0

>  <NsssSiH>
0

>  <NssssSi>
0

>  <NsPH2>
0

>  <NssPH>
0

>  <NsssP>
0

>  <NdsssP>
0

>  <NsssssP>
0

>  <NsSH>
0

>  <NdS>
0

>  <NssS>
0

>  <NaaS>
0

>  <NdssS>
0

>  <NddssS>
0

>  <NsCl>
1

>  <NsBr>
0

>  <NsI>
0

>  <fragCpx>
156.04

>  <fMF>
0.53

>  <nHBAcc>
3

>  <nHBDon>
1

>  <Kier1>
14.58

>  <Kier2>
5.57

>  <Lipinski>
1

>  <GhoseFilter>
1

>  <FilterItLogS>
-4.47

>  <VMcGowan>
214.92

>  <LabuteASA>
128.05

>  <PEOE_VSA1>
10.01

>  <PEOE_VSA2>
4.99

>  <PEOE_VSA3>
0

>  <PEOE_VSA4>
0

>  <PEOE_VSA5>
0

>  <PEOE_VSA6>
41.93

>  <PEOE_VSA7>
30.18

>  <PEOE_VSA8>
29.36

>  <PEOE_VSA9>
0

>  <PEOE_VSA10>
5.84

>  <PEOE_VSA11>
5.6

>  <PEOE_VSA12>
0

>  <PEOE_VSA13>
0

>  <SMR_VSA1>
5.11

>  <SMR_VSA2>
0

>  <SMR_VSA3>
0

>  <SMR_VSA4>
4.99

>  <SMR_VSA5>
12.02

>  <SMR_VSA6>
17.99

>  <SMR_VSA7>
64.68

>  <SMR_VSA8>
0

>  <SMR_VSA9>
0

>  <SlogP_VSA1>
4.9

>  <SlogP_VSA2>
24.03

>  <SlogP_VSA3>
5.6

>  <SlogP_VSA4>
0

>  <SlogP_VSA5>
17.55

>  <SlogP_VSA6>
53.52

>  <SlogP_VSA7>
5.02

>  <SlogP_VSA8>
0

>  <SlogP_VSA9>
0

>  <SlogP_VSA10>
5.69

>  <SlogP_VSA11>
0

>  <EState_VSA1>
5.6

>  <EState_VSA2>
0

>  <EState_VSA3>
5.02

>  <EState_VSA4>
42.16

>  <EState_VSA5>
0

>  <EState_VSA6>
0

>  <EState_VSA7>
48.53

>  <EState_VSA8>
9.89

>  <EState_VSA9>
11.6

>  <EState_VSA10>
5.11

>  <VSA_EState1>
0

>  <VSA_EState2>
6.74

>  <VSA_EState3>
12.12

>  <VSA_EState4>
1.49

>  <VSA_EState5>
0.72

>  <VSA_EState6>
15.36

>  <VSA_EState7>
1

>  <VSA_EState8>
1.64

>  <VSA_EState9>
0

>  <apol>
43.57

>  <bpol>
18.41

>  <nRing>
4

>  <nHRing>
2

>  <naRing>
2

>  <naHRing>
0

>  <nARing 2>
2

>  <nAHRing 2>
2

>  <nFRing>
1

>  <nFHRing>
1

>  <nFaRing>
0

>  <nFaHRing>
0

>  <nFARing 2>
1

>  <nFAHRing 2>
1

>  <nRot>
1

>  <SLogP>
3.2

>  <SMR>
85.16

>  <TopoPSA(NO)>
35.83

>  <TopoPSA>
35.83

>  <JGI1>
0.17

>  <JGI2>
0.09

>  <JGI3>
0.08

>  <JGI4>
0.03

>  <JGI5>
0.02

>  <Diameter>
8

>  <Radius>
4

>  <TMWC10>
122.03

>  <TSRW10>
70.8

>  <MW>
298.09

>  <AMW>
8.28

>  <WPath>
787

>  <WPol>
40

>  <Zagreb1>
120

>  <Zagreb2>
150

>  <mZagreb2>
4.5

>  <yes>


>  <nAR-cont>
1

>  <nHA-cont>
0.994529749

>  <MWHBN>
0.231678796

>  <MWHBN-cont>
0.985035814

>  <TPSA-cont>
0.749884351

>  <pka_cont>
0.97

>  <yes.1>


>  <BBB_SCORE>
5.456852172

>  <MMFF94 Energy>
78.871

$$$$
Compound 1913
Actelion Java MolfileCreator 2.0

  0  0  0  0  0  0              0 V3000
M  V30 BEGIN CTAB
M  V30 COUNTS 36 38 0 0 0
M  V30 BEGIN ATOM
M  V30 1 Cl -1.7997 -1.5541 4.1757 0
M  V30 2 C -1.0922 -0.0116 4.5249 0
M  V30 3 C -0.4572 0.7675 3.5372 0
M  V30 4 C -1.1529 0.4177 5.8572 0
M  V30 5 C -0.3655 0.3824 2.1231 0
M  V30 6 C 0.1323 1.9825 3.9472 0
M  V30 7 C -0.5726 1.6276 6.2239 0
M  V30 8 N 0.8727 0.3681 1.5928 0
M  V30 9 C -1.4602 0.095 1.3255 0
M  V30 10 C 0.0736 2.4121 5.2759 0
M  V30 11 Cl -0.6491 2.1528 7.8599 0
M  V30 12 N 1.0597 0.0412 0.2596 0
M  V30 13 C -1.2591 -0.2299 -0.0181 0
M  V30 14 C 0.0224 -0.2474 -0.5554 0
M  V30 15 N 0.2439 -0.5816 -1.8954 0
M  V30 16 C -0.5543 0.1165 -2.9038 0
M  V30 17 C 1.642 -0.8718 -2.2346 0
M  V30 18 C -0.463 -0.5962 -4.2483 0
M  V30 19 C 1.7287 -1.5883 -3.5764 0
M  V30 20 C 0.9891 -0.8102 -4.6555 0
M  V30 21 O 1.0477 -1.5458 -5.8747 0
M  V30 22 H -1.6442 -0.1964 6.6077 0
M  V30 23 H 0.6493 2.6059 3.2168 0
M  V30 24 H -2.468 0.1145 1.7272 0
M  V30 25 H 0.5373 3.3539 5.5589 0
M  V30 26 H -2.1178 -0.4987 -0.6231 0
M  V30 27 H -0.1936 1.1483 -3.0044 0
M  V30 28 H -1.6137 0.1706 -2.632 0
M  V30 29 H 2.1024 -1.5236 -1.4811 0
M  V30 30 H 2.2198 0.0607 -2.2726 0
M  V30 31 H -0.9892 -0.0195 -5.0182 0
M  V30 32 H -0.9773 -1.5651 -4.1961 0
M  V30 33 H 1.3032 -2.5973 -3.4923 0
M  V30 34 H 2.7772 -1.729 -3.8644 0
M  V30 35 H 1.4832 0.1538 -4.8244 0
M  V30 36 H 0.5782 -1.0336 -6.555 0
M  V30 END ATOM
M  V30 BEGIN BOND
M  V30 1 1 1 2
M  V30 2 2 2 3
M  V30 3 1 2 4
M  V30 4 1 3 5
M  V30 5 1 3 6
M  V30 6 2 4 7
M  V30 7 2 5 8
M  V30 8 1 5 9
M  V30 9 2 6 10
M  V30 10 1 7 11
M  V30 11 1 8 12
M  V30 12 2 9 13
M  V30 13 2 12 14
M  V30 14 1 14 15
M  V30 15 1 15 16
M  V30 16 1 15 17
M  V30 17 1 16 18
M  V30 18 1 17 19
M  V30 19 1 18 20
M  V30 20 1 20 21
M  V30 21 1 7 10
M  V30 22 1 13 14
M  V30 23 1 19 20
M  V30 24 1 4 22
M  V30 25 1 6 23
M  V30 26 1 9 24
M  V30 27 1 10 25
M  V30 28 1 13 26
M  V30 29 1 16 27
M  V30 30 1 16 28
M  V30 31 1 17 29
M  V30 32 1 17 30
M  V30 33 1 18 31
M  V30 34 1 18 32
M  V30 35 1 19 33
M  V30 36 1 19 34
M  V30 37 1 20 35
M  V30 38 1 21 36
M  V30 END BOND
M  V30 END CTAB
M  END
>  <Column 1>
2334

>  <level_0>
2515

>  <index>
2515

>  <Unnamed: 0>
2515

>  <NO.>
2527

>  <Name>
endixaprine

>  <IUPAC_name>
1-[6-(2-4-dichlorophenyl)pyridazin-3-yl]piperidin-4-ol

>  <SMILES>
OC1CCN(c2ccc(-c3ccc(Cl)cc3Cl)nn2)CC1

>  <CID>
65836

>  <logBB>


>  <BBB+/BBB->
BBB+

>  <Inchi>
InChI=1S/C15H15Cl2N3O/c16-10-1-2-12(13(17)9-10)14-3-4-15(19-18-14)20-7-5-11(21)6-8-20/h1-4-9-11-21H-5-8H2

>  <threshold>
-1

>  <reference>
R1|R13|R19|R6|R24|R27|R27|R27|R30|R30|

>  <group>
B

>  <Class>
1

>  <ABC>
16.47

>  <ABCGG>
12.55

>  <nAcid>
0

>  <nBase>
0

>  <nAromAtom>
12

>  <nAromBond>
12

>  <nAtom>
36

>  <nHeavyAtom>
21

>  <nSpiro>
0

>  <nBridgehead>
0

>  <nHetero>
6

>  <nN>
3

>  <nO>
1

>  <nF>
0

>  <BalabanJ>
1.46

>  <BertzCT>
625.32

>  <nBonds>
38

>  <nBondsO>
23

>  <nBondsS>
26

>  <nBondsD>
0

>  <nBondsT>
0

>  <nBondsA>
12

>  <nBondsM>
12

>  <nBondsKS>
32

>  <nBondsKD>
6

>  <RNCG>
0.29

>  <RPCG>
0.15

>  <FCSP3>
0.33

>  <SZ>
28

>  <Sm>
26.99

>  <Sv>
24.23

>  <Sse>
36.51

>  <Sp>
26.06

>  <Si>
40.5

>  <MZ>
0.78

>  <Mm>
0.75

>  <Mv>
0.67

>  <Mse>
1.01

>  <Mp>
0.72

>  <Mi>
1.12

>  <NsCH3>
0

>  <NdCH2>
0

>  <NssCH2>
4

>  <NtCH>
0

>  <NdsCH>
0

>  <NaaCH>
5

>  <NsssCH>
1

>  <NddC>
0

>  <NtsC>
0

>  <NdssC>
0

>  <NaasC>
5

>  <NaaaC>
0

>  <NssssC>
0

>  <NsNH3>
0

>  <NsNH2>
0

>  <NssNH2>
0

>  <NdNH>
0

>  <NssNH>
0

>  <NaaNH>
0

>  <NtN>
0

>  <NsssNH>
0

>  <NdsN>
0

>  <NaaN>
2

>  <NsssN>
1

>  <NddsN>
0

>  <NaasN>
0

>  <NssssN>
0

>  <NsOH>
1

>  <NdO>
0

>  <NssO>
0

>  <NaaO>
0

>  <NsF>
0

>  <NsSiH3>
0

>  <NssSiH2>
0

>  <NsssSiH>
0

>  <NssssSi>
0

>  <NsPH2>
0

>  <NssPH>
0

>  <NsssP>
0

>  <NdsssP>
0

>  <NsssssP>
0

>  <NsSH>
0

>  <NdS>
0

>  <NssS>
0

>  <NaaS>
0

>  <NdssS>
0

>  <NddssS>
0

>  <NsCl>
2

>  <NsBr>
0

>  <NsI>
0

>  <fragCpx>
109.06

>  <fMF>
0.5

>  <nHBAcc>
4

>  <nHBDon>
1

>  <Kier1>
15.88

>  <Kier2>
7.05

>  <Lipinski>
1

>  <GhoseFilter>
1

>  <FilterItLogS>
-4.54

>  <VMcGowan>
224.12

>  <LabuteASA>
132.88

>  <PEOE_VSA1>
10.01

>  <PEOE_VSA2>
0

>  <PEOE_VSA3>
0

>  <PEOE_VSA4>
0

>  <PEOE_VSA5>
10.2

>  <PEOE_VSA6>
23.2

>  <PEOE_VSA7>
43.17

>  <PEOE_VSA8>
23.68

>  <PEOE_VSA9>
16.82

>  <PEOE_VSA10>
0

>  <PEOE_VSA11>
5.82

>  <PEOE_VSA12>
0

>  <PEOE_VSA13>
0

>  <SMR_VSA1>
5.11

>  <SMR_VSA2>
0

>  <SMR_VSA3>
10.2

>  <SMR_VSA4>
0

>  <SMR_VSA5>
18.95

>  <SMR_VSA6>
17.99

>  <SMR_VSA7>
40.38

>  <SMR_VSA8>
0

>  <SMR_VSA9>
11.26

>  <SlogP_VSA1>
4.9

>  <SlogP_VSA2>
34.5

>  <SlogP_VSA3>
0

>  <SlogP_VSA4>
0

>  <SlogP_VSA5>
12.84

>  <SlogP_VSA6>
30.33

>  <SlogP_VSA7>
10.05

>  <SlogP_VSA8>
11.26

>  <SlogP_VSA9>
0

>  <SlogP_VSA10>
5.82

>  <SlogP_VSA11>
0

>  <EState_VSA1>
0

>  <EState_VSA2>
6.1

>  <EState_VSA3>
10.05

>  <EState_VSA4>
43.01

>  <EState_VSA5>
0

>  <EState_VSA6>
12.13

>  <EState_VSA7>
18.2

>  <EState_VSA8>
15.1

>  <EState_VSA9>
23.2

>  <EState_VSA10>
5.11

>  <VSA_EState1>
0

>  <VSA_EState2>
2.13

>  <VSA_EState3>
19.21

>  <VSA_EState4>
1.53

>  <VSA_EState5>
0.83

>  <VSA_EState6>
9.16

>  <VSA_EState7>
1.35

>  <VSA_EState8>
1.6

>  <VSA_EState9>
0

>  <apol>
43.51

>  <bpol>
18.92

>  <nRing>
3

>  <nHRing>
2

>  <naRing>
2

>  <naHRing>
1

>  <nARing 2>
1

>  <nAHRing 2>
1

>  <nFRing>
0

>  <nFHRing>
0

>  <nFaRing>
0

>  <nFaHRing>
0

>  <nFARing 2>
0

>  <nFAHRing 2>
0

>  <nRot>
2

>  <SLogP>
3.41

>  <SMR>
84.94

>  <TopoPSA(NO)>
49.25

>  <TopoPSA>
49.25

>  <JGI1>
0.2

>  <JGI2>
0.09

>  <JGI3>
0.04

>  <JGI4>
0.03

>  <JGI5>
0.03

>  <Diameter>
13

>  <Radius>
7

>  <TMWC10>
117.27

>  <TSRW10>
54.9

>  <MW>
323.06

>  <AMW>
8.97

>  <WPath>
1012

>  <WPol>
32

>  <Zagreb1>
110

>  <Zagreb2>
128

>  <mZagreb2>
4.58

>  <yes>


>  <nAR-cont>
0.816016

>  <nHA-cont>
0.994529749

>  <MWHBN>
0.278181606

>  <MWHBN-cont>
0.900643989

>  <TPSA-cont>
0.656204418

>  <pka_cont>
0.97

>  <yes.1>


>  <BBB_SCORE>
4.958920568

>  <MMFF94 Energy>
33.471

$$$$
Compound 1914
Actelion Java MolfileCreator 2.0

  0  0  0  0  0  0              0 V3000
M  V30 BEGIN CTAB
M  V30 COUNTS 36 38 0 0 0
M  V30 BEGIN ATOM
M  V30 1 Cl -0.2422 3.7189 3.2332 0
M  V30 2 C -1.0362 2.2962 3.8222 0
M  V30 3 C -1.1336 1.115 3.0622 0
M  V30 4 C -1.6149 2.3824 5.0964 0
M  V30 5 C -0.5428 0.9472 1.7288 0
M  V30 6 C -1.8526 0.039 3.625 0
M  V30 7 C -2.3069 1.2983 5.6325 0
M  V30 8 N -1.3771 0.5369 0.7549 0
M  V30 9 C 0.7995 1.1336 1.4477 0
M  V30 10 C -2.4295 0.1266 4.8947 0
M  V30 11 N -0.903 0.3266 -0.5318 0
M  V30 12 C 1.2641 0.9142 0.1477 0
M  V30 13 C 0.3973 0.4953 -0.854 0
M  V30 14 N 0.8293 0.2752 -2.1542 0
M  V30 15 C 2.108 -0.3749 -2.4291 0
M  V30 16 C -0.1885 0.0524 -3.1862 0
M  V30 17 C 1.8941 -1.889 -2.5085 0
M  V30 18 C -0.4805 -1.4436 -3.3074 0
M  V30 19 C 0.8033 -2.2484 -3.5219 0
M  V30 20 O 1.2835 -2.0134 -4.8469 0
M  V30 21 H -1.537 3.3014 5.6729 0
M  V30 22 H -1.9666 -0.8869 3.0608 0
M  V30 23 H -2.7581 1.3726 6.6189 0
M  V30 24 H 1.4943 1.4493 2.219 0
M  V30 25 H -2.9778 -0.7202 5.3006 0
M  V30 26 H 2.3087 1.1085 -0.0646 0
M  V30 27 H 2.4967 -0.0067 -3.3871 0
M  V30 28 H 2.8801 -0.1475 -1.6881 0
M  V30 29 H -1.1093 0.6171 -2.996 0
M  V30 30 H 0.1942 0.4286 -4.1437 0
M  V30 31 H 1.6066 -2.2689 -1.5204 0
M  V30 32 H 2.8406 -2.3665 -2.7868 0
M  V30 33 H -0.9768 -1.7979 -2.396 0
M  V30 34 H -1.1705 -1.6034 -4.1441 0
M  V30 35 H 0.5705 -3.317 -3.4517 0
M  V30 36 H 1.9782 -2.6704 -5.0266 0
M  V30 END ATOM
M  V30 BEGIN BOND
M  V30 1 1 1 2
M  V30 2 2 2 3
M  V30 3 1 2 4
M  V30 4 1 3 5
M  V30 5 1 3 6
M  V30 6 2 4 7
M  V30 7 2 5 8
M  V30 8 1 5 9
M  V30 9 2 6 10
M  V30 10 1 8 11
M  V30 11 2 9 12
M  V30 12 2 11 13
M  V30 13 1 13 14
M  V30 14 1 14 15
M  V30 15 1 14 16
M  V30 16 1 15 17
M  V30 17 1 16 18
M  V30 18 1 17 19
M  V30 19 1 19 20
M  V30 20 1 7 10
M  V30 21 1 12 13
M  V30 22 1 18 19
M  V30 23 1 4 21
M  V30 24 1 6 22
M  V30 25 1 7 23
M  V30 26 1 9 24
M  V30 27 1 10 25
M  V30 28 1 12 26
M  V30 29 1 15 27
M  V30 30 1 15 28
M  V30 31 1 16 29
M  V30 32 1 16 30
M  V30 33 1 17 31
M  V30 34 1 17 32
M  V30 35 1 18 33
M  V30 36 1 18 34
M  V30 37 1 19 35
M  V30 38 1 20 36
M  V30 END BOND
M  V30 END CTAB
M  END
>  <Column 1>
2335

>  <level_0>
2516

>  <index>
2516

>  <Unnamed: 0>
2516

>  <NO.>
2528

>  <Name>
lodaxaprine

>  <IUPAC_name>
1-[6-(2-chlorophenyl)pyridazin-3-yl]piperidin-4-ol

>  <SMILES>
OC1CCN(c2ccc(-c3ccccc3Cl)nn2)CC1

>  <CID>
65835

>  <logBB>


>  <BBB+/BBB->
BBB+

>  <Inchi>
InChI=1S/C15H16ClN3O/c16-13-4-2-1-3-12(13)14-5-6-15(18-17-14)19-9-7-11(20)8-10-19/h1-6-11-20H-7-10H2

>  <threshold>
-1

>  <reference>
R1|R13|R19|R6|R24|R27|R27|R27|R30|R30|

>  <group>
B

>  <Class>
1

>  <ABC>
15.65

>  <ABCGG>
12

>  <nAcid>
0

>  <nBase>
0

>  <nAromAtom>
12

>  <nAromBond>
12

>  <nAtom>
36

>  <nHeavyAtom>
20

>  <nSpiro>
0

>  <nBridgehead>
0

>  <nHetero>
5

>  <nN>
3

>  <nO>
1

>  <nF>
0

>  <BalabanJ>
1.47

>  <BertzCT>
579.93

>  <nBonds>
38

>  <nBondsO>
22

>  <nBondsS>
26

>  <nBondsD>
0

>  <nBondsT>
0

>  <nBondsA>
12

>  <nBondsM>
12

>  <nBondsKS>
32

>  <nBondsKD>
6

>  <RNCG>
0.28

>  <RPCG>
0.15

>  <FCSP3>
0.33

>  <SZ>
25.33

>  <Sm>
24.12

>  <Sv>
23.41

>  <Sse>
36.19

>  <Sp>
25.15

>  <Si>
40.56

>  <MZ>
0.7

>  <Mm>
0.67

>  <Mv>
0.65

>  <Mse>
1.01

>  <Mp>
0.7

>  <Mi>
1.13

>  <NsCH3>
0

>  <NdCH2>
0

>  <NssCH2>
4

>  <NtCH>
0

>  <NdsCH>
0

>  <NaaCH>
6

>  <NsssCH>
1

>  <NddC>
0

>  <NtsC>
0

>  <NdssC>
0

>  <NaasC>
4

>  <NaaaC>
0

>  <NssssC>
0

>  <NsNH3>
0

>  <NsNH2>
0

>  <NssNH2>
0

>  <NdNH>
0

>  <NssNH>
0

>  <NaaNH>
0

>  <NtN>
0

>  <NsssNH>
0

>  <NdsN>
0

>  <NaaN>
2

>  <NsssN>
1

>  <NddsN>
0

>  <NaasN>
0

>  <NssssN>
0

>  <NsOH>
1

>  <NdO>
0

>  <NssO>
0

>  <NaaO>
0

>  <NsF>
0

>  <NsSiH3>
0

>  <NssSiH2>
0

>  <NsssSiH>
0

>  <NssssSi>
0

>  <NsPH2>
0

>  <NssPH>
0

>  <NsssP>
0

>  <NdsssP>
0

>  <NsssssP>
0

>  <NsSH>
0

>  <NdS>
0

>  <NssS>
0

>  <NaaS>
0

>  <NdssS>
0

>  <NddssS>
0

>  <NsCl>
1

>  <NsBr>
0

>  <NsI>
0

>  <fragCpx>
104.05

>  <fMF>
0.5

>  <nHBAcc>
4

>  <nHBDon>
1

>  <Kier1>
14.92

>  <Kier2>
6.84

>  <Lipinski>
1

>  <GhoseFilter>
1

>  <FilterItLogS>
-3.79

>  <VMcGowan>
211.88

>  <LabuteASA>
122.57

>  <PEOE_VSA1>
10.01

>  <PEOE_VSA2>
0

>  <PEOE_VSA3>
0

>  <PEOE_VSA4>
0

>  <PEOE_VSA5>
10.2

>  <PEOE_VSA6>
29.8

>  <PEOE_VSA7>
31.04

>  <PEOE_VSA8>
18.65

>  <PEOE_VSA9>
16.82

>  <PEOE_VSA10>
0

>  <PEOE_VSA11>
5.82

>  <PEOE_VSA12>
0

>  <PEOE_VSA13>
0

>  <SMR_VSA1>
5.11

>  <SMR_VSA2>
0

>  <SMR_VSA3>
10.2

>  <SMR_VSA4>
0

>  <SMR_VSA5>
18.95

>  <SMR_VSA6>
17.99

>  <SMR_VSA7>
41.42

>  <SMR_VSA8>
0

>  <SMR_VSA9>
11.26

>  <SlogP_VSA1>
4.9

>  <SlogP_VSA2>
34.5

>  <SlogP_VSA3>
0

>  <SlogP_VSA4>
0

>  <SlogP_VSA5>
12.84

>  <SlogP_VSA6>
36.4

>  <SlogP_VSA7>
5.02

>  <SlogP_VSA8>
11.26

>  <SlogP_VSA9>
0

>  <SlogP_VSA10>
5.82

>  <SlogP_VSA11>
0

>  <EState_VSA1>
0

>  <EState_VSA2>
6.1

>  <EState_VSA3>
5.02

>  <EState_VSA4>
43.01

>  <EState_VSA5>
0

>  <EState_VSA6>
0

>  <EState_VSA7>
36.4

>  <EState_VSA8>
15.1

>  <EState_VSA9>
11.6

>  <EState_VSA10>
5.11

>  <VSA_EState1>
0

>  <VSA_EState2>
2.15

>  <VSA_EState3>
18.74

>  <VSA_EState4>
1.67

>  <VSA_EState5>
0.85

>  <VSA_EState6>
11.51

>  <VSA_EState7>
1.39

>  <VSA_EState8>
1.64

>  <VSA_EState9>
0

>  <apol>
42

>  <bpol>
19.41

>  <nRing>
3

>  <nHRing>
2

>  <naRing>
2

>  <naHRing>
1

>  <nARing 2>
1

>  <nAHRing 2>
1

>  <nFRing>
0

>  <nFHRing>
0

>  <nFaRing>
0

>  <nFaHRing>
0

>  <nFARing 2>
0

>  <nFAHRing 2>
0

>  <nRot>
2

>  <SLogP>
2.76

>  <SMR>
79.93

>  <TopoPSA(NO)>
49.25

>  <TopoPSA>
49.25

>  <JGI1>
0.16

>  <JGI2>
0.09

>  <JGI3>
0.04

>  <JGI4>
0.03

>  <JGI5>
0.03

>  <Diameter>
12

>  <Radius>
6

>  <TMWC10>
114.64

>  <TSRW10>
53.59

>  <MW>
289.1

>  <AMW>
8.03

>  <WPath>
878

>  <WPol>
30

>  <Zagreb1>
104

>  <Zagreb2>
121

>  <mZagreb2>
4.42

>  <yes>


>  <nAR-cont>
0.816016

>  <nHA-cont>
0.999629945

>  <MWHBN>
0.294066775

>  <MWHBN-cont>
0.858095783

>  <TPSA-cont>
0.656204418

>  <pka_cont>
0.97

>  <yes.1>


>  <BBB_SCORE>
4.900198454

>  <MMFF94 Energy>
44.076

$$$$
Compound 1915
Actelion Java MolfileCreator 2.0

  0  0  0  0  0  0              0 V3000
M  V30 BEGIN CTAB
M  V30 COUNTS 25 25 0 0 0
M  V30 BEGIN ATOM
M  V30 1 Cl -1.2569 4.2782 -0.9216 0
M  V30 2 C -0.629 2.8385 -1.8147 0
M  V30 3 Cl 0.6405 3.4424 -2.9501 0
M  V30 4 Cl -1.9718 2.1519 -2.7875 0
M  V30 5 C -0.0142 1.8041 -0.8137 0
M  V30 6 O -0.9958 1.3672 0.1361 0
M  V30 7 O 0.5559 0.691 -1.5159 0
M  V30 8 C -0.4459 0.4814 1.1044 0
M  V30 9 C 1.1677 -0.2438 -0.6381 0
M  V30 10 C 0.2258 -0.7438 0.4668 0
M  V30 11 C 1.0584 -1.4951 1.5242 0
M  V30 12 C -0.8438 -1.7144 -0.0908 0
M  V30 13 O 0.2377 -1.9425 2.5945 0
M  V30 14 O -1.5721 -1.1747 -1.1811 0
M  V30 15 H 0.7929 2.3095 -0.2637 0
M  V30 16 H -1.2596 0.1813 1.774 0
M  V30 17 H 0.2688 1.0481 1.715 0
M  V30 18 H 2.0568 0.2347 -0.2076 0
M  V30 19 H 1.5284 -1.0819 -1.2451 0
M  V30 20 H 1.8345 -0.8457 1.9451 0
M  V30 21 H 1.5517 -2.3685 1.083 0
M  V30 22 H -0.3697 -2.6377 -0.4425 0
M  V30 23 H -1.5635 -1.987 0.6895 0
M  V30 24 H 0.8103 -2.4127 3.2269 0
M  V30 25 H -2.3036 -1.7826 -1.3809 0
M  V30 END ATOM
M  V30 BEGIN BOND
M  V30 1 1 1 2
M  V30 2 1 2 3
M  V30 3 1 2 4
M  V30 4 1 2 5
M  V30 5 1 5 6
M  V30 6 1 5 7
M  V30 7 1 6 8
M  V30 8 1 7 9
M  V30 9 1 8 10
M  V30 10 1 10 11
M  V30 11 1 10 12
M  V30 12 1 11 13
M  V30 13 1 12 14
M  V30 14 1 9 10
M  V30 15 1 5 15
M  V30 16 1 8 16
M  V30 17 1 8 17
M  V30 18 1 9 18
M  V30 19 1 9 19
M  V30 20 1 11 20
M  V30 21 1 11 21
M  V30 22 1 12 22
M  V30 23 1 12 23
M  V30 24 1 13 24
M  V30 25 1 14 25
M  V30 END BOND
M  V30 END CTAB
M  END
>  <Column 1>
2337

>  <level_0>
2518

>  <index>
2518

>  <Unnamed: 0>
2518

>  <NO.>
2530

>  <Name>
penthrichloral

>  <IUPAC_name>
[5-(hydroxymethyl)-2-(trichloromethyl)-1-3-dioxan-5-yl]methanol

>  <SMILES>
OCC1(CO)COC(C(Cl)(Cl)Cl)OC1

>  <CID>
71839

>  <logBB>


>  <BBB+/BBB->
BBB+

>  <Inchi>
InChI=1S/C7H11Cl3O4/c8-7(9-10)5-13-3-6(1-11-2-12)4-14-5/h5-11-12H-1-4H2

>  <threshold>
-1

>  <reference>
R1|R13|R19|R6|R24|R27|R27|R27|R30|R30|

>  <group>
B

>  <Class>
1

>  <ABC>
10.31

>  <ABCGG>
9.74

>  <nAcid>
0

>  <nBase>
0

>  <nAromAtom>
0

>  <nAromBond>
0

>  <nAtom>
25

>  <nHeavyAtom>
14

>  <nSpiro>
0

>  <nBridgehead>
0

>  <nHetero>
7

>  <nN>
0

>  <nO>
4

>  <nF>
0

>  <BalabanJ>
2.53

>  <BertzCT>
179.86

>  <nBonds>
25

>  <nBondsO>
14

>  <nBondsS>
25

>  <nBondsD>
0

>  <nBondsT>
0

>  <nBondsA>
0

>  <nBondsM>
0

>  <nBondsKS>
25

>  <nBondsKD>
0

>  <RNCG>
0.23

>  <RPCG>
0.14

>  <FCSP3>
1

>  <SZ>
22.67

>  <Sm>
22.11

>  <Sv>
16.11

>  <Sse>
26.5

>  <Sp>
17.23

>  <Si>
28.58

>  <MZ>
0.91

>  <Mm>
0.88

>  <Mv>
0.64

>  <Mse>
1.06

>  <Mp>
0.69

>  <Mi>
1.14

>  <NsCH3>
0

>  <NdCH2>
0

>  <NssCH2>
4

>  <NtCH>
0

>  <NdsCH>
0

>  <NaaCH>
0

>  <NsssCH>
1

>  <NddC>
0

>  <NtsC>
0

>  <NdssC>
0

>  <NaasC>
0

>  <NaaaC>
0

>  <NssssC>
2

>  <NsNH3>
0

>  <NsNH2>
0

>  <NssNH2>
0

>  <NdNH>
0

>  <NssNH>
0

>  <NaaNH>
0

>  <NtN>
0

>  <NsssNH>
0

>  <NdsN>
0

>  <NaaN>
0

>  <NsssN>
0

>  <NddsN>
0

>  <NaasN>
0

>  <NssssN>
0

>  <NsOH>
2

>  <NdO>
0

>  <NssO>
2

>  <NaaO>
0

>  <NsF>
0

>  <NsSiH3>
0

>  <NssSiH2>
0

>  <NsssSiH>
0

>  <NssssSi>
0

>  <NsPH2>
0

>  <NssPH>
0

>  <NsssP>
0

>  <NdsssP>
0

>  <NsssssP>
0

>  <NsSH>
0

>  <NdS>
0

>  <NssS>
0

>  <NaaS>
0

>  <NdssS>
0

>  <NddssS>
0

>  <NsCl>
3

>  <NsBr>
0

>  <NsI>
0

>  <fragCpx>
14.07

>  <fMF>
0.24

>  <nHBAcc>
4

>  <nHBDon>
2

>  <Kier1>
12.07

>  <Kier2>
4.24

>  <Lipinski>
1

>  <GhoseFilter>
1

>  <FilterItLogS>
-1.79

>  <VMcGowan>
158.83

>  <LabuteASA>
96.65

>  <PEOE_VSA1>
19.69

>  <PEOE_VSA2>
0

>  <PEOE_VSA3>
0

>  <PEOE_VSA4>
0

>  <PEOE_VSA5>
0

>  <PEOE_VSA6>
34.8

>  <PEOE_VSA7>
0

>  <PEOE_VSA8>
0

>  <PEOE_VSA9>
31.84

>  <PEOE_VSA10>
0

>  <PEOE_VSA11>
0

>  <PEOE_VSA12>
10.08

>  <PEOE_VSA13>
0

>  <SMR_VSA1>
19.69

>  <SMR_VSA2>
0

>  <SMR_VSA3>
0

>  <SMR_VSA4>
5.41

>  <SMR_VSA5>
10.08

>  <SMR_VSA6>
26.43

>  <SMR_VSA7>
0

>  <SMR_VSA8>
0

>  <SMR_VSA9>
0

>  <SlogP_VSA1>
0

>  <SlogP_VSA2>
46.72

>  <SlogP_VSA3>
9.47

>  <SlogP_VSA4>
5.41

>  <SlogP_VSA5>
0

>  <SlogP_VSA6>
0

>  <SlogP_VSA7>
0

>  <SlogP_VSA8>
0

>  <SlogP_VSA9>
0

>  <SlogP_VSA10>
0

>  <SlogP_VSA11>
0

>  <EState_VSA1>
15.5

>  <EState_VSA2>
26.43

>  <EState_VSA3>
0

>  <EState_VSA4>
0

>  <EState_VSA5>
0

>  <EState_VSA6>
0

>  <EState_VSA7>
0

>  <EState_VSA8>
0

>  <EState_VSA9>
54.49

>  <EState_VSA10>
0

>  <VSA_EState1>
8.55

>  <VSA_EState2>
0

>  <VSA_EState3>
18.02

>  <VSA_EState4>
-0.8

>  <VSA_EState5>
0

>  <VSA_EState6>
0

>  <VSA_EState7>
-0.96

>  <VSA_EState8>
-0.29

>  <VSA_EState9>
0

>  <apol>
28.77

>  <bpol>
16.04

>  <nRing>
1

>  <nHRing>
1

>  <naRing>
0

>  <naHRing>
0

>  <nARing 2>
1

>  <nAHRing 2>
1

>  <nFRing>
0

>  <nFHRing>
0

>  <nFaRing>
0

>  <nFaHRing>
0

>  <nFARing 2>
0

>  <nFAHRing 2>
0

>  <nRot>
2

>  <SLogP>
0.7

>  <SMR>
52.59

>  <TopoPSA(NO)>
58.92

>  <TopoPSA>
58.92

>  <JGI1>
0.39

>  <JGI2>
0.12

>  <JGI3>
0.05

>  <JGI4>
0.05

>  <JGI5>
0.09

>  <Diameter>
7

>  <Radius>
4

>  <TMWC10>
97.35

>  <TSRW10>
45.96

>  <MW>
263.97

>  <AMW>
10.56

>  <WPath>
300

>  <WPol>
21

>  <Zagreb1>
70

>  <Zagreb2>
80

>  <mZagreb2>
3.17

>  <yes>


>  <nAR-cont>
0.816016

>  <nHA-cont>
0.887625254

>  <MWHBN>
0.369295456

>  <MWHBN-cont>
0.596600777

>  <TPSA-cont>
0.588701813

>  <pka_cont>
0.97

>  <yes.1>


>  <BBB_SCORE>
4.260946045

>  <MMFF94 Energy>
73.79

$$$$
Compound 1916
Actelion Java MolfileCreator 2.0

  0  0  0  0  0  0              0 V3000
M  V30 BEGIN CTAB
M  V30 COUNTS 57 60 0 0 0
M  V30 BEGIN ATOM
M  V30 1 Cl 6.8243 -3.3265 2.5956 0
M  V30 2 C 5.6905 -2.1639 3.163 0
M  V30 3 C 4.9449 -1.42 2.2498 0
M  V30 4 C 5.5139 -1.9792 4.5296 0
M  V30 5 C 4.0108 -0.465 2.6973 0
M  V30 6 C 4.5894 -1.0367 4.9844 0
M  V30 7 C 3.8419 -0.2712 4.0776 0
M  V30 8 C 3.1496 0.2654 1.6752 0 CFG=2
M  V30 9 S 2.7127 0.937 4.7395 0
M  V30 10 C 2.8481 1.7063 2.0539 0
M  V30 11 C 1.8617 -0.5594 1.4201 0
M  V30 12 C 2.5747 2.079 3.3788 0
M  V30 13 C 2.788 2.6876 1.0458 0
M  V30 14 C 1.0618 -0.0939 0.1959 0
M  V30 15 C 2.2099 3.4013 3.6688 0
M  V30 16 C 2.4386 4.0041 1.3465 0
M  V30 17 C -0.1193 -1.0348 -0.0809 0
M  V30 18 C 2.1419 4.3597 2.6575 0
M  V30 19 N -0.8333 -0.696 -1.3224 0
M  V30 20 C -1.7811 -1.7775 -1.6698 0
M  V30 21 C -1.5867 0.5702 -1.2071 0
M  V30 22 C -2.6066 -1.4649 -2.9396 0
M  V30 23 C -2.4137 0.8821 -2.4765 0
M  V30 24 N -3.3616 -0.1995 -2.8208 0
M  V30 25 C -4.0801 0.1331 -4.061 0
M  V30 26 C -5.2367 -0.8138 -4.3946 0
M  V30 27 C -6.2697 -0.9058 -3.2806 0
M  V30 28 O -7.3507 -1.7198 -3.7248 0
M  V30 29 H 5.0809 -1.5915 1.1841 0
M  V30 30 H 6.0894 -2.5596 5.2455 0
M  V30 31 H 4.4644 -0.896 6.0564 0
M  V30 32 H 3.7309 0.2946 0.7422 0
M  V30 33 H 2.1357 -1.6122 1.2679 0
M  V30 34 H 1.2088 -0.5387 2.3026 0
M  V30 35 H 2.9989 2.4249 0.0108 0
M  V30 36 H 0.6912 0.9201 0.3722 0
M  V30 37 H 1.72 -0.0617 -0.6808 0
M  V30 38 H 1.9914 3.6995 4.6921 0
M  V30 39 H 2.3917 4.7488 0.556 0
M  V30 40 H 0.2844 -2.0514 -0.1744 0
M  V30 41 H -0.8035 -1.0425 0.7776 0
M  V30 42 H 1.8657 5.3834 2.8967 0
M  V30 43 H -1.224 -2.705 -1.8504 0
M  V30 44 H -2.4695 -1.9673 -0.8347 0
M  V30 45 H -2.26 0.5406 -0.3397 0
M  V30 46 H -0.8961 1.4072 -1.0582 0
M  V30 47 H -1.9326 -1.432 -3.8061 0
M  V30 48 H -3.2978 -2.3009 -3.0928 0
M  V30 49 H -1.7264 1.0712 -3.3125 0
M  V30 50 H -2.971 1.8096 -2.2964 0
M  V30 51 H -3.3885 0.1679 -4.9129 0
M  V30 52 H -4.5058 1.1409 -3.9648 0
M  V30 53 H -4.8688 -1.8167 -4.6417 0
M  V30 54 H -5.7301 -0.4601 -5.3093 0
M  V30 55 H -5.8469 -1.3615 -2.38 0
M  V30 56 H -6.6646 0.0837 -3.0294 0
M  V30 57 H -7.9785 -1.7793 -2.9843 0
M  V30 END ATOM
M  V30 BEGIN BOND
M  V30 1 1 1 2
M  V30 2 2 2 3
M  V30 3 1 2 4
M  V30 4 1 3 5
M  V30 5 2 4 6
M  V30 6 2 5 7
M  V30 7 1 5 8
M  V30 8 1 7 9
M  V30 9 1 8 10
M  V30 10 1 8 11
M  V30 11 1 9 12
M  V30 12 1 10 13
M  V30 13 1 11 14
M  V30 14 1 12 15
M  V30 15 2 13 16
M  V30 16 1 14 17
M  V30 17 2 15 18
M  V30 18 1 17 19
M  V30 19 1 19 20
M  V30 20 1 19 21
M  V30 21 1 20 22
M  V30 22 1 21 23
M  V30 23 1 22 24
M  V30 24 1 24 25
M  V30 25 1 25 26
M  V30 26 1 26 27
M  V30 27 1 27 28
M  V30 28 1 6 7
M  V30 29 2 10 12
M  V30 30 1 16 18
M  V30 31 1 23 24
M  V30 32 1 3 29
M  V30 33 1 4 30
M  V30 34 1 6 31
M  V30 35 1 8 32
M  V30 36 1 11 33
M  V30 37 1 11 34
M  V30 38 1 13 35
M  V30 39 1 14 36
M  V30 40 1 14 37
M  V30 41 1 15 38
M  V30 42 1 16 39
M  V30 43 1 17 40
M  V30 44 1 17 41
M  V30 45 1 18 42
M  V30 46 1 20 43
M  V30 47 1 20 44
M  V30 48 1 21 45
M  V30 49 1 21 46
M  V30 50 1 22 47
M  V30 51 1 22 48
M  V30 52 1 23 49
M  V30 53 1 23 50
M  V30 54 1 25 51
M  V30 55 1 25 52
M  V30 56 1 26 53
M  V30 57 1 26 54
M  V30 58 1 27 55
M  V30 59 1 27 56
M  V30 60 1 28 57
M  V30 END BOND
M  V30 BEGIN COLLECTION
M  V30 MDLV30/STERAC1 ATOMS=(1 8)
M  V30 END COLLECTION
M  V30 END CTAB
M  END
>  <Column 1>
2339

>  <level_0>
2520

>  <index>
2520

>  <Unnamed: 0>
2520

>  <NO.>
2532

>  <Name>
xanthiol

>  <IUPAC_name>
3-[4-[3-(2-chloro-9h-thioxanthen-9-yl)propyl]piperazin-1-yl]propan-1-ol

>  <SMILES>
OCCCN1CCN(CCCC2c3ccccc3Sc3ccc(Cl)cc32)CC1

>  <CID>
28361

>  <logBB>


>  <BBB+/BBB->
BBB+

>  <Inchi>
InChI=1S/C23H29ClN2OS/c24-18-8-9-23-21(17-18)19(20-5-1-2-7-22(20)28-23)6-3-10-25-12-14-26(15-13-25)11-4-16-27/h1-2-5-7-9-17-19-27H-3-4-6-10-16H2

>  <threshold>
-1

>  <reference>
R1|R19|R6|R27|R27|R30|

>  <group>
B

>  <Class>
1

>  <ABC>
21.87

>  <ABCGG>
15.55

>  <nAcid>
0

>  <nBase>
2

>  <nAromAtom>
12

>  <nAromBond>
12

>  <nAtom>
57

>  <nHeavyAtom>
28

>  <nSpiro>
0

>  <nBridgehead>
0

>  <nHetero>
5

>  <nN>
2

>  <nO>
1

>  <nF>
0

>  <BalabanJ>
1.27

>  <BertzCT>
791.92

>  <nBonds>
60

>  <nBondsO>
31

>  <nBondsS>
48

>  <nBondsD>
0

>  <nBondsT>
0

>  <nBondsA>
12

>  <nBondsM>
12

>  <nBondsKS>
54

>  <nBondsKD>
6

>  <RNCG>
0.24

>  <RPCG>
0.13

>  <FCSP3>
0.48

>  <SZ>
37

>  <Sm>
34.72

>  <Sv>
35.37

>  <Sse>
56.37

>  <Sp>
39.42

>  <Si>
63.88

>  <MZ>
0.65

>  <Mm>
0.61

>  <Mv>
0.62

>  <Mse>
0.99

>  <Mp>
0.69

>  <Mi>
1.12

>  <NsCH3>
0

>  <NdCH2>
0

>  <NssCH2>
10

>  <NtCH>
0

>  <NdsCH>
0

>  <NaaCH>
7

>  <NsssCH>
1

>  <NddC>
0

>  <NtsC>
0

>  <NdssC>
0

>  <NaasC>
5

>  <NaaaC>
0

>  <NssssC>
0

>  <NsNH3>
0

>  <NsNH2>
0

>  <NssNH2>
0

>  <NdNH>
0

>  <NssNH>
0

>  <NaaNH>
0

>  <NtN>
0

>  <NsssNH>
0

>  <NdsN>
0

>  <NaaN>
0

>  <NsssN>
2

>  <NddsN>
0

>  <NaasN>
0

>  <NssssN>
0

>  <NsOH>
1

>  <NdO>
0

>  <NssO>
0

>  <NaaO>
0

>  <NsF>
0

>  <NsSiH3>
0

>  <NssSiH2>
0

>  <NsssSiH>
0

>  <NssssSi>
0

>  <NsPH2>
0

>  <NssPH>
0

>  <NsssP>
0

>  <NdsssP>
0

>  <NsssssP>
0

>  <NsSH>
0

>  <NdS>
0

>  <NssS>
1

>  <NaaS>
0

>  <NdssS>
0

>  <NddssS>
0

>  <NsCl>
1

>  <NsBr>
0

>  <NsI>
0

>  <fragCpx>
205.05

>  <fMF>
0.4

>  <nHBAcc>
4

>  <nHBDon>
1

>  <Kier1>
21.24

>  <Kier2>
10.35

>  <Lipinski>
1

>  <GhoseFilter>
1

>  <FilterItLogS>
-6.17

>  <VMcGowan>
320.11

>  <LabuteASA>
177.23

>  <PEOE_VSA1>
14.91

>  <PEOE_VSA2>
0

>  <PEOE_VSA3>
0

>  <PEOE_VSA4>
0

>  <PEOE_VSA5>
0

>  <PEOE_VSA6>
41.56

>  <PEOE_VSA7>
61.2

>  <PEOE_VSA8>
60.06

>  <PEOE_VSA9>
0

>  <PEOE_VSA10>
0

>  <PEOE_VSA11>
0

>  <PEOE_VSA12>
0

>  <PEOE_VSA13>
0

>  <SMR_VSA1>
5.11

>  <SMR_VSA2>
0

>  <SMR_VSA3>
9.8

>  <SMR_VSA4>
0

>  <SMR_VSA5>
34.97

>  <SMR_VSA6>
45.88

>  <SMR_VSA7>
58.61

>  <SMR_VSA8>
0

>  <SMR_VSA9>
0

>  <SlogP_VSA1>
0

>  <SlogP_VSA2>
60.78

>  <SlogP_VSA3>
0

>  <SlogP_VSA4>
0

>  <SlogP_VSA5>
36.31

>  <SlogP_VSA6>
52.26

>  <SlogP_VSA7>
5.02

>  <SlogP_VSA8>
0

>  <SlogP_VSA9>
0

>  <SlogP_VSA10>
0

>  <SlogP_VSA11>
0

>  <EState_VSA1>
0

>  <EState_VSA2>
0

>  <EState_VSA3>
12.52

>  <EState_VSA4>
57.13

>  <EState_VSA5>
27.34

>  <EState_VSA6>
0

>  <EState_VSA7>
17.83

>  <EState_VSA8>
46.2

>  <EState_VSA9>
16.71

>  <EState_VSA10>
0

>  <VSA_EState1>
0

>  <VSA_EState2>
7.81

>  <VSA_EState3>
9.83

>  <VSA_EState4>
2.85

>  <VSA_EState5>
0.44

>  <VSA_EState6>
15.19

>  <VSA_EState7>
3.25

>  <VSA_EState8>
7.03

>  <VSA_EState9>
0

>  <apol>
65.83

>  <bpol>
35.48

>  <nRing>
4

>  <nHRing>
2

>  <naRing>
2

>  <naHRing>
0

>  <nARing 2>
2

>  <nAHRing 2>
2

>  <nFRing>
1

>  <nFHRing>
1

>  <nFaRing>
0

>  <nFaHRing>
0

>  <nFARing 2>
1

>  <nFAHRing 2>
1

>  <nRot>
7

>  <SLogP>
4.72

>  <SMR>
117.68

>  <TopoPSA(NO)>
26.71

>  <TopoPSA>
52.01

>  <JGI1>
0.15

>  <JGI2>
0.06

>  <JGI3>
0.03

>  <JGI4>
0.04

>  <JGI5>
0.02

>  <Diameter>
15

>  <Radius>
8

>  <TMWC10>
135.32

>  <TSRW10>
63.36

>  <MW>
416.17

>  <AMW>
7.3

>  <WPath>
2268

>  <WPol>
44

>  <Zagreb1>
146

>  <Zagreb2>
171

>  <mZagreb2>
6.28

>  <yes>


>  <nAR-cont>
1

>  <nHA-cont>
0.82432561

>  <MWHBN>
0.245095095

>  <MWHBN-cont>
0.967638054

>  <TPSA-cont>
0.636937904

>  <pka_cont>
0.97

>  <yes.1>


>  <BBB_SCORE>
5.034658499

>  <MMFF94 Energy>
110.51

$$$$
Compound 1917
Actelion Java MolfileCreator 2.0

  0  0  0  0  0  0              0 V3000
M  V30 BEGIN CTAB
M  V30 COUNTS 55 58 0 0 0
M  V30 BEGIN ATOM
M  V30 1 O -5.8763 0.4754 -4.365 0
M  V30 2 C -6.2975 0.3564 -3.0046 0
M  V30 3 C -5.5875 1.383 -2.1113 0
M  V30 4 N -4.2304 0.9266 -1.7633 0
M  V30 5 C -3.9281 0.4296 -0.5071 0
M  V30 6 C -3.1933 1.2219 -2.7526 0
M  V30 7 C -2.8855 -0.3128 -0.1118 0
M  V30 8 C -2.3344 0.046 -3.0819 0
M  V30 9 N -1.855 -0.9049 -0.8412 0
M  V30 10 C -1.7576 -0.8047 -2.224 0
M  V30 11 C -0.8611 -1.7308 -0.1179 0
M  V30 12 C 0.3262 -0.8751 0.3191 0
M  V30 13 C 1.3555 -1.7297 1.0646 0
M  V30 14 N 2.5099 -0.9211 1.5027 0
M  V30 15 C 2.3306 -0.1967 2.7013 0
M  V30 16 C 3.4969 -0.6807 0.522 0
M  V30 17 C 2.3845 1.2075 2.7773 0
M  V30 18 C 2.1164 -0.9204 3.8945 0
M  V30 19 C 3.8386 0.6042 0.0608 0
M  V30 20 C 4.2014 -1.7859 -0.0025 0
M  V30 21 C 2.5129 2.0894 1.6095 0
M  V30 22 C 2.2011 1.8401 4.0236 0
M  V30 23 C 1.9461 -0.282 5.1236 0
M  V30 24 C 3.1331 1.8322 0.4512 0
M  V30 25 C 4.8453 0.743 -0.9159 0
M  V30 26 C 5.2027 -1.6336 -0.9621 0
M  V30 27 C 1.9875 1.1027 5.1879 0
M  V30 28 C 5.5248 -0.365 -1.4209 0
M  V30 29 H -6.101 -0.3662 -4.7966 0
M  V30 30 H -6.1042 -0.6658 -2.6619 0
M  V30 31 H -7.3773 0.5344 -2.9862 0
M  V30 32 H -5.5378 2.3589 -2.6093 0
M  V30 33 H -6.1785 1.5196 -1.1976 0
M  V30 34 H -4.6728 0.6933 0.2408 0
M  V30 35 H -3.6412 1.5819 -3.6864 0
M  V30 36 H -2.5631 2.0452 -2.3927 0
M  V30 37 H -2.8371 -0.5648 0.9455 0
M  V30 38 H -2.1035 -0.0667 -4.1371 0
M  V30 39 H -1.0834 -1.5483 -2.6445 0
M  V30 40 H -1.3261 -2.2058 0.756 0
M  V30 41 H -0.516 -2.5564 -0.7538 0
M  V30 42 H -0.0232 -0.0571 0.961 0
M  V30 43 H 0.7877 -0.4061 -0.5584 0
M  V30 44 H 0.87 -2.2164 1.9198 0
M  V30 45 H 1.6772 -2.555 0.4171 0
M  V30 46 H 2.1136 -2.0075 3.8703 0
M  V30 47 H 3.9867 -2.7852 0.3684 0
M  V30 48 H 2.0508 3.0687 1.719 0
M  V30 49 H 2.2262 2.9257 4.0956 0
M  V30 50 H 1.7921 -0.8683 6.0251 0
M  V30 51 H 3.1314 2.6205 -0.299 0
M  V30 52 H 5.1108 1.7289 -1.2922 0
M  V30 53 H 5.7325 -2.5039 -1.3391 0
M  V30 54 H 1.8571 1.6117 6.1389 0
M  V30 55 H 6.303 -0.2331 -2.1675 0
M  V30 END ATOM
M  V30 BEGIN BOND
M  V30 1 1 1 2
M  V30 2 1 2 3
M  V30 3 1 3 4
M  V30 4 1 4 5
M  V30 5 1 4 6
M  V30 6 2 5 7
M  V30 7 1 6 8
M  V30 8 1 7 9
M  V30 9 2 8 10
M  V30 10 1 9 11
M  V30 11 1 11 12
M  V30 12 1 12 13
M  V30 13 1 13 14
M  V30 14 1 14 15
M  V30 15 1 14 16
M  V30 16 2 15 17
M  V30 17 1 15 18
M  V30 18 2 16 19
M  V30 19 1 16 20
M  V30 20 1 17 21
M  V30 21 1 17 22
M  V30 22 2 18 23
M  V30 23 1 19 24
M  V30 24 1 19 25
M  V30 25 2 20 26
M  V30 26 2 22 27
M  V30 27 2 25 28
M  V30 28 1 9 10
M  V30 29 2 21 24
M  V30 30 1 23 27
M  V30 31 1 26 28
M  V30 32 1 1 29
M  V30 33 1 2 30
M  V30 34 1 2 31
M  V30 35 1 3 32
M  V30 36 1 3 33
M  V30 37 1 5 34
M  V30 38 1 6 35
M  V30 39 1 6 36
M  V30 40 1 7 37
M  V30 41 1 8 38
M  V30 42 1 10 39
M  V30 43 1 11 40
M  V30 44 1 11 41
M  V30 45 1 12 42
M  V30 46 1 12 43
M  V30 47 1 13 44
M  V30 48 1 13 45
M  V30 49 1 18 46
M  V30 50 1 20 47
M  V30 51 1 21 48
M  V30 52 1 22 49
M  V30 53 1 23 50
M  V30 54 1 24 51
M  V30 55 1 25 52
M  V30 56 1 26 53
M  V30 57 1 27 54
M  V30 58 1 28 55
M  V30 END BOND
M  V30 END CTAB
M  END
>  <Column 1>
2340

>  <level_0>
2521

>  <index>
2521

>  <Unnamed: 0>
2521

>  <NO.>
2533

>  <Name>
homopipramol

>  <IUPAC_name>
2-[1-(3-benzo[b][1]benzazepin-11-ylpropyl)-5h-1-4-diazepin-4-yl]ethanol

>  <SMILES>
OCCN1C=CN(CCCN2c3ccccc3C=Cc3ccccc32)C=CC1

>  <CID>
216247

>  <logBB>


>  <BBB+/BBB->
BBB+

>  <Inchi>
InChI=1S/C24H27N3O/c28-20-19-26-14-5-13-25(17-18-26)15-6-16-27-23-9-3-1-7-21(23)11-12-22-8-2-4-10-24(22)27/h1-5-7-13-17-18-28H-6-14-16-19-20H2

>  <threshold>
-1

>  <reference>
R1|R13|R27|R30|

>  <group>
B

>  <Class>
1

>  <ABC>
21.76

>  <ABCGG>
16.13

>  <nAcid>
0

>  <nBase>
0

>  <nAromAtom>
12

>  <nAromBond>
12

>  <nAtom>
55

>  <nHeavyAtom>
28

>  <nSpiro>
0

>  <nBridgehead>
0

>  <nHetero>
4

>  <nN>
3

>  <nO>
1

>  <nF>
0

>  <BalabanJ>
1.32

>  <BertzCT>
837.42

>  <nBonds>
58

>  <nBondsO>
31

>  <nBondsS>
43

>  <nBondsD>
3

>  <nBondsT>
0

>  <nBondsA>
12

>  <nBondsM>
15

>  <nBondsKS>
49

>  <nBondsKD>
9

>  <RNCG>
0.19

>  <RPCG>
0.1

>  <FCSP3>
0.25

>  <SZ>
33.33

>  <Sm>
31.1

>  <Sv>
34.3

>  <Sse>
54.31

>  <Sp>
37.24

>  <Si>
61.69

>  <MZ>
0.61

>  <Mm>
0.57

>  <Mv>
0.62

>  <Mse>
0.99

>  <Mp>
0.68

>  <Mi>
1.12

>  <NsCH3>
0

>  <NdCH2>
0

>  <NssCH2>
6

>  <NtCH>
0

>  <NdsCH>
6

>  <NaaCH>
8

>  <NsssCH>
0

>  <NddC>
0

>  <NtsC>
0

>  <NdssC>
0

>  <NaasC>
4

>  <NaaaC>
0

>  <NssssC>
0

>  <NsNH3>
0

>  <NsNH2>
0

>  <NssNH2>
0

>  <NdNH>
0

>  <NssNH>
0

>  <NaaNH>
0

>  <NtN>
0

>  <NsssNH>
0

>  <NdsN>
0

>  <NaaN>
0

>  <NsssN>
3

>  <NddsN>
0

>  <NaasN>
0

>  <NssssN>
0

>  <NsOH>
1

>  <NdO>
0

>  <NssO>
0

>  <NaaO>
0

>  <NsF>
0

>  <NsSiH3>
0

>  <NssSiH2>
0

>  <NsssSiH>
0

>  <NssssSi>
0

>  <NsPH2>
0

>  <NssPH>
0

>  <NsssP>
0

>  <NdsssP>
0

>  <NsssssP>
0

>  <NsSH>
0

>  <NdS>
0

>  <NssS>
0

>  <NaaS>
0

>  <NdssS>
0

>  <NddssS>
0

>  <NsCl>
0

>  <NsBr>
0

>  <NsI>
0

>  <fragCpx>
205.04

>  <fMF>
0.45

>  <nHBAcc>
4

>  <nHBDon>
1

>  <Kier1>
21.24

>  <Kier2>
10.86

>  <Lipinski>
1

>  <GhoseFilter>
1

>  <FilterItLogS>
-3.64

>  <VMcGowan>
302.69

>  <LabuteASA>
166.86

>  <PEOE_VSA1>
19.81

>  <PEOE_VSA2>
0

>  <PEOE_VSA3>
0

>  <PEOE_VSA4>
0

>  <PEOE_VSA5>
0

>  <PEOE_VSA6>
48.55

>  <PEOE_VSA7>
35.76

>  <PEOE_VSA8>
56.15

>  <PEOE_VSA9>
6.61

>  <PEOE_VSA10>
0

>  <PEOE_VSA11>
0

>  <PEOE_VSA12>
0

>  <PEOE_VSA13>
0

>  <SMR_VSA1>
5.11

>  <SMR_VSA2>
0

>  <SMR_VSA3>
9.8

>  <SMR_VSA4>
0

>  <SMR_VSA5>
6.42

>  <SMR_VSA6>
37.69

>  <SMR_VSA7>
84.33

>  <SMR_VSA8>
0

>  <SMR_VSA9>
0

>  <SlogP_VSA1>
4.9

>  <SlogP_VSA2>
47.69

>  <SlogP_VSA3>
0

>  <SlogP_VSA4>
0

>  <SlogP_VSA5>
17.55

>  <SlogP_VSA6>
73.21

>  <SlogP_VSA7>
0

>  <SlogP_VSA8>
12.15

>  <SlogP_VSA9>
0

>  <SlogP_VSA10>
11.37

>  <SlogP_VSA11>
0

>  <EState_VSA1>
0

>  <EState_VSA2>
6.61

>  <EState_VSA3>
6.54

>  <EState_VSA4>
26.06

>  <EState_VSA5>
22.5

>  <EState_VSA6>
0

>  <EState_VSA7>
0

>  <EState_VSA8>
100.06

>  <EState_VSA9>
5.11

>  <EState_VSA10>
0

>  <VSA_EState1>
0

>  <VSA_EState2>
6.78

>  <VSA_EState3>
9.12

>  <VSA_EState4>
5.04

>  <VSA_EState5>
0

>  <VSA_EState6>
17.21

>  <VSA_EState7>
13.92

>  <VSA_EState8>
3.59

>  <VSA_EState9>
0

>  <apol>
62.19

>  <bpol>
32.22

>  <nRing>
4

>  <nHRing>
2

>  <naRing>
2

>  <naHRing>
0

>  <nARing 2>
2

>  <nAHRing 2>
2

>  <nFRing>
1

>  <nFHRing>
1

>  <nFaRing>
0

>  <nFaHRing>
0

>  <nFARing 2>
1

>  <nFAHRing 2>
1

>  <nRot>
6

>  <SLogP>
4.29

>  <SMR>
117.08

>  <TopoPSA(NO)>
29.95

>  <TopoPSA>
29.95

>  <JGI1>
0.11

>  <JGI2>
0.07

>  <JGI3>
0.03

>  <JGI4>
0.03

>  <JGI5>
0.01

>  <Diameter>
14

>  <Radius>
7

>  <TMWC10>
134.83

>  <TSRW10>
72.34

>  <MW>
373.22

>  <AMW>
6.79

>  <WPath>
2166

>  <WPol>
49

>  <Zagreb1>
144

>  <Zagreb2>
168

>  <mZagreb2>
6.36

>  <yes>


>  <nAR-cont>
1

>  <nHA-cont>
0.82432561

>  <MWHBN>
0.258813872

>  <MWHBN-cont>
0.943753176

>  <TPSA-cont>
0.790930402

>  <pka_cont>
0.97

>  <yes.1>


>  <BBB_SCORE>
5.306816178

>  <MMFF94 Energy>
117.75

$$$$
Compound 1918
Actelion Java MolfileCreator 2.0

  0  0  0  0  0  0              0 V3000
M  V30 BEGIN CTAB
M  V30 COUNTS 59 62 0 0 0
M  V30 BEGIN ATOM
M  V30 1 S -3.0792 1.2146 -3.5661 0
M  V30 2 C -2.5939 -0.4969 -3.6407 0
M  V30 3 C -3.8804 1.3025 -1.9775 0
M  V30 4 C -2.6031 -1.3457 -2.518 0
M  V30 5 C -2.1732 -0.9727 -4.8963 0
M  V30 6 C -3.7699 0.2885 -1.0059 0
M  V30 7 C -4.6285 2.4641 -1.7158 0
M  V30 8 N -2.9988 -0.8836 -1.235 0
M  V30 9 C -2.2402 -2.691 -2.7257 0
M  V30 10 C -1.792 -2.3075 -5.0792 0
M  V30 11 C -4.4835 0.4667 0.1969 0
M  V30 12 C -5.2991 2.6247 -0.5066 0
M  V30 13 C -2.1553 -1.328 -0.0972 0
M  V30 14 C -1.8322 -3.1642 -3.978 0
M  V30 15 C -1.3275 -2.7963 -6.4272 0
M  V30 16 C -5.2336 1.6201 0.4477 0
M  V30 17 C -0.9123 -0.4369 0.0545 0
M  V30 18 F -1.9438 -2.1688 -7.4669 0
M  V30 19 F 0.0077 -2.6066 -6.6127 0
M  V30 20 F -1.5446 -4.1281 -6.6168 0
M  V30 21 C 0.002 -0.9739 1.1649 0
M  V30 22 N 1.1172 -0.0663 1.5032 0
M  V30 23 C 1.7576 -0.5161 2.7592 0
M  V30 24 C 2.1151 -0.0173 0.4199 0
M  V30 25 C 2.4657 0.5754 3.6009 0
M  V30 26 C 3.1395 1.1119 0.5212 0
M  V30 27 N 3.2731 1.5935 2.9218 0
M  V30 28 C 4.0182 1.1097 1.7693 0
M  V30 29 C 4.0741 2.3962 3.8638 0
M  V30 30 C 5.3439 1.7562 4.4585 0
M  V30 31 O 5.0344 0.8174 5.483 0
M  V30 32 H -2.1526 -0.2936 -5.7491 0
M  V30 33 H -4.6963 3.2527 -2.4623 0
M  V30 34 H -2.3037 -3.4136 -1.9168 0
M  V30 35 H -4.4967 -0.3082 0.957 0
M  V30 36 H -5.8777 3.5249 -0.318 0
M  V30 37 H -1.8331 -2.3679 -0.2101 0
M  V30 38 H -2.7158 -1.3371 0.8432 0
M  V30 39 H -1.558 -4.2128 -4.0865 0
M  V30 40 H -5.7699 1.7248 1.3874 0
M  V30 41 H -1.2168 0.5899 0.2916 0
M  V30 42 H -0.38 -0.4011 -0.9014 0
M  V30 43 H -0.6291 -1.1028 2.0541 0
M  V30 44 H 0.3794 -1.9692 0.8962 0
M  V30 45 H 2.4597 -1.3367 2.5572 0
M  V30 46 H 1.0015 -0.9455 3.4309 0
M  V30 47 H 2.6363 -0.9797 0.3283 0
M  V30 48 H 1.6143 0.1403 -0.5409 0
M  V30 49 H 1.6875 1.1058 4.1655 0
M  V30 50 H 3.0663 0.0329 4.338 0
M  V30 51 H 2.6275 2.0794 0.4286 0
M  V30 52 H 3.7978 1.04 -0.3546 0
M  V30 53 H 4.8479 1.7958 1.5534 0
M  V30 54 H 4.4711 0.1267 1.9465 0
M  V30 55 H 3.4254 2.7362 4.6813 0
M  V30 56 H 4.3796 3.3058 3.3307 0
M  V30 57 H 5.9477 1.2594 3.6934 0
M  V30 58 H 5.9575 2.5426 4.9113 0
M  V30 59 H 5.8805 0.4744 5.8168 0
M  V30 END ATOM
M  V30 BEGIN BOND
M  V30 1 1 1 2
M  V30 2 1 1 3
M  V30 3 2 2 4
M  V30 4 1 2 5
M  V30 5 2 3 6
M  V30 6 1 3 7
M  V30 7 1 4 8
M  V30 8 1 4 9
M  V30 9 2 5 10
M  V30 10 1 6 11
M  V30 11 2 7 12
M  V30 12 1 8 13
M  V30 13 2 9 14
M  V30 14 1 10 15
M  V30 15 2 11 16
M  V30 16 1 13 17
M  V30 17 1 15 18
M  V30 18 1 15 19
M  V30 19 1 15 20
M  V30 20 1 17 21
M  V30 21 1 21 22
M  V30 22 1 22 23
M  V30 23 1 22 24
M  V30 24 1 23 25
M  V30 25 1 24 26
M  V30 26 1 25 27
M  V30 27 1 26 28
M  V30 28 1 27 29
M  V30 29 1 29 30
M  V30 30 1 30 31
M  V30 31 1 6 8
M  V30 32 1 10 14
M  V30 33 1 12 16
M  V30 34 1 27 28
M  V30 35 1 5 32
M  V30 36 1 7 33
M  V30 37 1 9 34
M  V30 38 1 11 35
M  V30 39 1 12 36
M  V30 40 1 13 37
M  V30 41 1 13 38
M  V30 42 1 14 39
M  V30 43 1 16 40
M  V30 44 1 17 41
M  V30 45 1 17 42
M  V30 46 1 21 43
M  V30 47 1 21 44
M  V30 48 1 23 45
M  V30 49 1 23 46
M  V30 50 1 24 47
M  V30 51 1 24 48
M  V30 52 1 25 49
M  V30 53 1 25 50
M  V30 54 1 26 51
M  V30 55 1 26 52
M  V30 56 1 28 53
M  V30 57 1 28 54
M  V30 58 1 29 55
M  V30 59 1 29 56
M  V30 60 1 30 57
M  V30 61 1 30 58
M  V30 62 1 31 59
M  V30 END BOND
M  V30 END CTAB
M  END
>  <Column 1>
2341

>  <level_0>
2522

>  <index>
2522

>  <Unnamed: 0>
2522

>  <NO.>
2534

>  <Name>
homophenazine

>  <IUPAC_name>
hydron;2-[4-[3-[3-(trifluoromethyl)phenothiazin-10-yl]propyl]-1-4-diazepan-1-yl]ethanol;dichloride

>  <SMILES>
OCCN1CCCN(CCCN2c3ccccc3Sc3cc(C(F)(F)F)ccc32)CC1

>  <CID>
102065

>  <logBB>


>  <BBB+/BBB->
BBB+

>  <Inchi>
InChI=1S/C23H28F3N3OS/c24-23(25-26)18-7-8-20-22(17-18)31-21-6-2-1-5-19(21)29(20)12-4-11-27-9-3-10-28(14-13-27)15-16-30/h1-2-5-8-17-30H-3-4-9-16H2

>  <threshold>
-1

>  <reference>
R1|R13|R27|R30|

>  <group>
B

>  <Class>
1

>  <ABC>
24.3

>  <ABCGG>
17.63

>  <nAcid>
0

>  <nBase>
2

>  <nAromAtom>
12

>  <nAromBond>
12

>  <nAtom>
59

>  <nHeavyAtom>
31

>  <nSpiro>
0

>  <nBridgehead>
0

>  <nHetero>
8

>  <nN>
3

>  <nO>
1

>  <nF>
3

>  <BalabanJ>
1.33

>  <BertzCT>
892.61

>  <nBonds>
62

>  <nBondsO>
34

>  <nBondsS>
50

>  <nBondsD>
0

>  <nBondsT>
0

>  <nBondsA>
12

>  <nBondsM>
12

>  <nBondsKS>
56

>  <nBondsKD>
6

>  <RNCG>
0.17

>  <RPCG>
0.18

>  <FCSP3>
0.48

>  <SZ>
39.67

>  <Sm>
37.59

>  <Sv>
36.7

>  <Sse>
59.7

>  <Sp>
39.37

>  <Si>
67.46

>  <MZ>
0.67

>  <Mm>
0.64

>  <Mv>
0.62

>  <Mse>
1.01

>  <Mp>
0.67

>  <Mi>
1.14

>  <NsCH3>
0

>  <NdCH2>
0

>  <NssCH2>
10

>  <NtCH>
0

>  <NdsCH>
0

>  <NaaCH>
7

>  <NsssCH>
0

>  <NddC>
0

>  <NtsC>
0

>  <NdssC>
0

>  <NaasC>
5

>  <NaaaC>
0

>  <NssssC>
1

>  <NsNH3>
0

>  <NsNH2>
0

>  <NssNH2>
0

>  <NdNH>
0

>  <NssNH>
0

>  <NaaNH>
0

>  <NtN>
0

>  <NsssNH>
0

>  <NdsN>
0

>  <NaaN>
0

>  <NsssN>
3

>  <NddsN>
0

>  <NaasN>
0

>  <NssssN>
0

>  <NsOH>
1

>  <NdO>
0

>  <NssO>
0

>  <NaaO>
0

>  <NsF>
3

>  <NsSiH3>
0

>  <NssSiH2>
0

>  <NsssSiH>
0

>  <NssssSi>
0

>  <NsPH2>
0

>  <NssPH>
0

>  <NsssP>
0

>  <NdsssP>
0

>  <NsssssP>
0

>  <NsSH>
0

>  <NdS>
0

>  <NssS>
1

>  <NaaS>
0

>  <NdssS>
0

>  <NddssS>
0

>  <NsCl>
0

>  <NsBr>
0

>  <NsI>
0

>  <fragCpx>
226.08

>  <fMF>
0.41

>  <nHBAcc>
5

>  <nHBDon>
1

>  <Kier1>
24.13

>  <Kier2>
10.95

>  <Lipinski>
1

>  <GhoseFilter>
1

>  <FilterItLogS>
-5.56

>  <VMcGowan>
323.13

>  <LabuteASA>
185.18

>  <PEOE_VSA1>
14.91

>  <PEOE_VSA2>
4.9

>  <PEOE_VSA3>
0

>  <PEOE_VSA4>
13.17

>  <PEOE_VSA5>
0

>  <PEOE_VSA6>
23.89

>  <PEOE_VSA7>
62.81

>  <PEOE_VSA8>
35.97

>  <PEOE_VSA9>
23.55

>  <PEOE_VSA10>
0

>  <PEOE_VSA11>
0

>  <PEOE_VSA12>
0

>  <PEOE_VSA13>
0

>  <SMR_VSA1>
18.28

>  <SMR_VSA2>
0

>  <SMR_VSA3>
9.8

>  <SMR_VSA4>
0

>  <SMR_VSA5>
28.81

>  <SMR_VSA6>
57.32

>  <SMR_VSA7>
48.03

>  <SMR_VSA8>
0

>  <SMR_VSA9>
0

>  <SlogP_VSA1>
4.9

>  <SlogP_VSA2>
67.33

>  <SlogP_VSA3>
6.18

>  <SlogP_VSA4>
0

>  <SlogP_VSA5>
18.41

>  <SlogP_VSA6>
52.26

>  <SlogP_VSA7>
0

>  <SlogP_VSA8>
0

>  <SlogP_VSA9>
0

>  <SlogP_VSA10>
24.55

>  <SlogP_VSA11>
0

>  <EState_VSA1>
11.74

>  <EState_VSA2>
6.61

>  <EState_VSA3>
4.9

>  <EState_VSA4>
74.93

>  <EState_VSA5>
23.89

>  <EState_VSA6>
6.07

>  <EState_VSA7>
24.27

>  <EState_VSA8>
14.7

>  <EState_VSA9>
5.11

>  <EState_VSA10>
13.17

>  <VSA_EState1>
39.67

>  <VSA_EState2>
8.56

>  <VSA_EState3>
9.16

>  <VSA_EState4>
1.31

>  <VSA_EState5>
0

>  <VSA_EState6>
11.99

>  <VSA_EState7>
-2.32

>  <VSA_EState8>
6.64

>  <VSA_EState9>
0

>  <apol>
65.75

>  <bpol>
39.02

>  <nRing>
4

>  <nHRing>
2

>  <naRing>
2

>  <naHRing>
0

>  <nARing 2>
2

>  <nAHRing 2>
2

>  <nFRing>
1

>  <nFHRing>
1

>  <nFaRing>
0

>  <nFaHRing>
0

>  <nFARing 2>
1

>  <nFAHRing 2>
1

>  <nRot>
6

>  <SLogP>
4.7

>  <SMR>
118.21

>  <TopoPSA(NO)>
29.95

>  <TopoPSA>
55.25

>  <JGI1>
0.19

>  <JGI2>
0.07

>  <JGI3>
0.04

>  <JGI4>
0.04

>  <JGI5>
0.02

>  <Diameter>
16

>  <Radius>
8

>  <TMWC10>
142.55

>  <TSRW10>
74.78

>  <MW>
451.19

>  <AMW>
7.65

>  <WPath>
2893

>  <WPol>
53

>  <Zagreb1>
164

>  <Zagreb2>
192

>  <mZagreb2>
6.78

>  <yes>


>  <nAR-cont>
1

>  <nHA-cont>
0.702745138

>  <MWHBN>
0.282469472

>  <MWHBN-cont>
0.889754002

>  <TPSA-cont>
0.614320692

>  <pka_cont>
0.97

>  <yes.1>


>  <BBB_SCORE>
4.751017525

>  <MMFF94 Energy>
153.85

$$$$
Compound 1919
Actelion Java MolfileCreator 2.0

  0  0  0  0  0  0              0 V3000
M  V30 BEGIN CTAB
M  V30 COUNTS 59 62 0 0 0
M  V30 BEGIN ATOM
M  V30 1 S -5.192 -0.5668 -3.1615 0
M  V30 2 C -3.6532 -1.4472 -3.2598 0
M  V30 3 C -5.0588 0.2618 -1.5957 0
M  V30 4 C -2.7336 -1.5368 -2.1965 0
M  V30 5 C -3.4042 -2.0843 -4.4915 0
M  V30 6 C -4.0183 0.0288 -0.6734 0
M  V30 7 C -6.0896 1.1815 -1.3133 0
M  V30 8 N -2.9759 -0.9074 -0.9408 0
M  V30 9 C -1.5535 -2.2733 -2.4556 0
M  V30 10 C -2.2361 -2.808 -4.7062 0
M  V30 11 C -4.0652 0.7879 0.5189 0
M  V30 12 C -6.1061 1.8997 -0.124 0
M  V30 13 C -2.1307 -1.3207 0.2037 0
M  V30 14 C -1.2891 -2.9001 -3.6903 0
M  V30 15 C -5.0881 1.7048 0.7926 0
M  V30 16 C -0.8793 -0.441 0.3402 0
M  V30 17 C -0.0155 -3.6841 -3.886 0
M  V30 18 C 0.0238 -0.9682 1.4635 0
M  V30 19 F 1.0496 -3.1354 -3.2362 0
M  V30 20 F -0.1179 -4.9591 -3.4198 0
M  V30 21 F 0.3596 -3.7898 -5.1907 0
M  V30 22 N 1.1744 -0.0971 1.7524 0
M  V30 23 C 2.0477 0.0797 0.5791 0
M  V30 24 C 1.8908 -0.534 2.9503 0
M  V30 25 C 3.5126 0.5504 0.7645 0
M  V30 26 C 2.5144 0.6567 3.6747 0
M  V30 27 N 3.7055 1.6875 1.6883 0
M  V30 28 C 3.8097 1.1981 3.0737 0
M  V30 29 C 4.9286 2.4299 1.3086 0
M  V30 30 C 5.0308 3.8261 1.9419 0
M  V30 31 O 6.1907 4.4906 1.4425 0
M  V30 32 H -4.1308 -2.0144 -5.2998 0
M  V30 33 H -6.8904 1.3449 -2.0321 0
M  V30 34 H -0.7798 -2.3691 -1.6985 0
M  V30 35 H -2.0709 -3.2888 -5.6686 0
M  V30 36 H -3.2937 0.7071 1.2774 0
M  V30 37 H -6.9039 2.6085 0.0784 0
M  V30 38 H -1.8468 -2.3775 0.1155 0
M  V30 39 H -2.7029 -1.3174 1.1407 0
M  V30 40 H -5.077 2.2663 1.7236 0
M  V30 41 H -1.1621 0.5963 0.5516 0
M  V30 42 H -0.3335 -0.4193 -0.6085 0
M  V30 43 H -0.5942 -1.046 2.3675 0
M  V30 44 H 0.365 -1.9832 1.2213 0
M  V30 45 H 1.562 0.8124 -0.078 0
M  V30 46 H 2.1023 -0.8613 0.0146 0
M  V30 47 H 1.1815 -0.977 3.6623 0
M  V30 48 H 2.6273 -1.3174 2.7337 0
M  V30 49 H 3.8498 0.8256 -0.2441 0
M  V30 50 H 4.1439 -0.2998 1.056 0
M  V30 51 H 1.78 1.4692 3.7587 0
M  V30 52 H 2.7335 0.3477 4.7055 0
M  V30 53 H 4.115 2.0182 3.7331 0
M  V30 54 H 4.598 0.4378 3.1592 0
M  V30 55 H 4.9425 2.5929 0.2223 0
M  V30 56 H 5.8342 1.8488 1.5282 0
M  V30 57 H 4.1528 4.4285 1.6855 0
M  V30 58 H 5.1224 3.7773 3.03 0
M  V30 59 H 6.1747 5.3912 1.8096 0
M  V30 END ATOM
M  V30 BEGIN BOND
M  V30 1 1 1 2
M  V30 2 1 1 3
M  V30 3 2 2 4
M  V30 4 1 2 5
M  V30 5 2 3 6
M  V30 6 1 3 7
M  V30 7 1 4 8
M  V30 8 1 4 9
M  V30 9 2 5 10
M  V30 10 1 6 11
M  V30 11 2 7 12
M  V30 12 1 8 13
M  V30 13 2 9 14
M  V30 14 2 11 15
M  V30 15 1 13 16
M  V30 16 1 14 17
M  V30 17 1 16 18
M  V30 18 1 17 19
M  V30 19 1 17 20
M  V30 20 1 17 21
M  V30 21 1 18 22
M  V30 22 1 22 23
M  V30 23 1 22 24
M  V30 24 1 23 25
M  V30 25 1 24 26
M  V30 26 1 25 27
M  V30 27 1 26 28
M  V30 28 1 27 29
M  V30 29 1 29 30
M  V30 30 1 30 31
M  V30 31 1 6 8
M  V30 32 1 10 14
M  V30 33 1 12 15
M  V30 34 1 27 28
M  V30 35 1 5 32
M  V30 36 1 7 33
M  V30 37 1 9 34
M  V30 38 1 10 35
M  V30 39 1 11 36
M  V30 40 1 12 37
M  V30 41 1 13 38
M  V30 42 1 13 39
M  V30 43 1 15 40
M  V30 44 1 16 41
M  V30 45 1 16 42
M  V30 46 1 18 43
M  V30 47 1 18 44
M  V30 48 1 23 45
M  V30 49 1 23 46
M  V30 50 1 24 47
M  V30 51 1 24 48
M  V30 52 1 25 49
M  V30 53 1 25 50
M  V30 54 1 26 51
M  V30 55 1 26 52
M  V30 56 1 28 53
M  V30 57 1 28 54
M  V30 58 1 29 55
M  V30 59 1 29 56
M  V30 60 1 30 57
M  V30 61 1 30 58
M  V30 62 1 31 59
M  V30 END BOND
M  V30 END CTAB
M  END
>  <Column 1>
2342

>  <level_0>
2523

>  <index>
2523

>  <Unnamed: 0>
2523

>  <NO.>
2535

>  <Name>
homofenazine

>  <IUPAC_name>
2-[4-[3-[2-(trifluoromethyl)phenothiazin-10-yl]propyl]-1-4-diazepan-1-yl]ethanol

>  <SMILES>
OCCN1CCCN(CCCN2c3ccccc3Sc3ccc(C(F)(F)F)cc32)CC1

>  <CID>
19687

>  <logBB>


>  <BBB+/BBB->
BBB+

>  <Inchi>
InChI=1S/C23H28F3N3OS/c24-23(25-26)18-7-8-22-20(17-18)29(19-5-1-2-6-21(19)31-22)12-4-11-27-9-3-10-28(14-13-27)15-16-30/h1-2-5-8-17-30H-3-4-9-16H2

>  <threshold>
-1

>  <reference>
R1|R13|R19|R6|R24|R27|R27|R27|R30|R30|

>  <group>
B

>  <Class>
1

>  <ABC>
24.3

>  <ABCGG>
17.84

>  <nAcid>
0

>  <nBase>
2

>  <nAromAtom>
12

>  <nAromBond>
12

>  <nAtom>
59

>  <nHeavyAtom>
31

>  <nSpiro>
0

>  <nBridgehead>
0

>  <nHetero>
8

>  <nN>
3

>  <nO>
1

>  <nF>
3

>  <BalabanJ>
1.35

>  <BertzCT>
892.61

>  <nBonds>
62

>  <nBondsO>
34

>  <nBondsS>
50

>  <nBondsD>
0

>  <nBondsT>
0

>  <nBondsA>
12

>  <nBondsM>
12

>  <nBondsKS>
56

>  <nBondsKD>
6

>  <RNCG>
0.17

>  <RPCG>
0.18

>  <FCSP3>
0.48

>  <SZ>
39.67

>  <Sm>
37.59

>  <Sv>
36.7

>  <Sse>
59.7

>  <Sp>
39.37

>  <Si>
67.46

>  <MZ>
0.67

>  <Mm>
0.64

>  <Mv>
0.62

>  <Mse>
1.01

>  <Mp>
0.67

>  <Mi>
1.14

>  <NsCH3>
0

>  <NdCH2>
0

>  <NssCH2>
10

>  <NtCH>
0

>  <NdsCH>
0

>  <NaaCH>
7

>  <NsssCH>
0

>  <NddC>
0

>  <NtsC>
0

>  <NdssC>
0

>  <NaasC>
5

>  <NaaaC>
0

>  <NssssC>
1

>  <NsNH3>
0

>  <NsNH2>
0

>  <NssNH2>
0

>  <NdNH>
0

>  <NssNH>
0

>  <NaaNH>
0

>  <NtN>
0

>  <NsssNH>
0

>  <NdsN>
0

>  <NaaN>
0

>  <NsssN>
3

>  <NddsN>
0

>  <NaasN>
0

>  <NssssN>
0

>  <NsOH>
1

>  <NdO>
0

>  <NssO>
0

>  <NaaO>
0

>  <NsF>
3

>  <NsSiH3>
0

>  <NssSiH2>
0

>  <NsssSiH>
0

>  <NssssSi>
0

>  <NsPH2>
0

>  <NssPH>
0

>  <NsssP>
0

>  <NdsssP>
0

>  <NsssssP>
0

>  <NsSH>
0

>  <NdS>
0

>  <NssS>
1

>  <NaaS>
0

>  <NdssS>
0

>  <NddssS>
0

>  <NsCl>
0

>  <NsBr>
0

>  <NsI>
0

>  <fragCpx>
226.08

>  <fMF>
0.41

>  <nHBAcc>
5

>  <nHBDon>
1

>  <Kier1>
24.13

>  <Kier2>
10.95

>  <Lipinski>
1

>  <GhoseFilter>
1

>  <FilterItLogS>
-5.56

>  <VMcGowan>
323.13

>  <LabuteASA>
185.18

>  <PEOE_VSA1>
14.91

>  <PEOE_VSA2>
4.9

>  <PEOE_VSA3>
0

>  <PEOE_VSA4>
13.17

>  <PEOE_VSA5>
0

>  <PEOE_VSA6>
23.89

>  <PEOE_VSA7>
62.81

>  <PEOE_VSA8>
35.97

>  <PEOE_VSA9>
23.55

>  <PEOE_VSA10>
0

>  <PEOE_VSA11>
0

>  <PEOE_VSA12>
0

>  <PEOE_VSA13>
0

>  <SMR_VSA1>
18.28

>  <SMR_VSA2>
0

>  <SMR_VSA3>
9.8

>  <SMR_VSA4>
0

>  <SMR_VSA5>
28.81

>  <SMR_VSA6>
57.32

>  <SMR_VSA7>
48.03

>  <SMR_VSA8>
0

>  <SMR_VSA9>
0

>  <SlogP_VSA1>
4.9

>  <SlogP_VSA2>
67.33

>  <SlogP_VSA3>
6.18

>  <SlogP_VSA4>
0

>  <SlogP_VSA5>
18.41

>  <SlogP_VSA6>
52.26

>  <SlogP_VSA7>
0

>  <SlogP_VSA8>
0

>  <SlogP_VSA9>
0

>  <SlogP_VSA10>
24.55

>  <SlogP_VSA11>
0

>  <EState_VSA1>
11.74

>  <EState_VSA2>
6.61

>  <EState_VSA3>
18.78

>  <EState_VSA4>
61.04

>  <EState_VSA5>
23.89

>  <EState_VSA6>
6.07

>  <EState_VSA7>
29.17

>  <EState_VSA8>
9.8

>  <EState_VSA9>
5.11

>  <EState_VSA10>
13.17

>  <VSA_EState1>
40.05

>  <VSA_EState2>
8.69

>  <VSA_EState3>
9.16

>  <VSA_EState4>
1.01

>  <VSA_EState5>
0

>  <VSA_EState6>
11.98

>  <VSA_EState7>
-2.41

>  <VSA_EState8>
6.41

>  <VSA_EState9>
0

>  <apol>
65.75

>  <bpol>
39.02

>  <nRing>
4

>  <nHRing>
2

>  <naRing>
2

>  <naHRing>
0

>  <nARing 2>
2

>  <nAHRing 2>
2

>  <nFRing>
1

>  <nFHRing>
1

>  <nFaRing>
0

>  <nFaHRing>
0

>  <nFARing 2>
1

>  <nFAHRing 2>
1

>  <nRot>
6

>  <SLogP>
4.7

>  <SMR>
118.21

>  <TopoPSA(NO)>
29.95

>  <TopoPSA>
55.25

>  <JGI1>
0.19

>  <JGI2>
0.07

>  <JGI3>
0.04

>  <JGI4>
0.04

>  <JGI5>
0.03

>  <Diameter>
15

>  <Radius>
8

>  <TMWC10>
142.57

>  <TSRW10>
74.78

>  <MW>
451.19

>  <AMW>
7.65

>  <WPath>
2841

>  <WPol>
53

>  <Zagreb1>
164

>  <Zagreb2>
192

>  <mZagreb2>
6.78

>  <yes>


>  <nAR-cont>
1

>  <nHA-cont>
0.702745138

>  <MWHBN>
0.282469472

>  <MWHBN-cont>
0.889754002

>  <TPSA-cont>
0.614320692

>  <pka_cont>
0.97

>  <yes.1>


>  <BBB_SCORE>
4.751017525

>  <MMFF94 Energy>
149.19

$$$$
Compound 1920
Actelion Java MolfileCreator 2.0

  0  0  0  0  0  0              0 V3000
M  V30 BEGIN CTAB
M  V30 COUNTS 55 58 0 0 0
M  V30 BEGIN ATOM
M  V30 1 Cl -2.6536 -1.8489 -2.7341 0
M  V30 2 C -0.9937 -1.4925 -3.0196 0
M  V30 3 C -0.2621 -0.797 -2.0567 0
M  V30 4 C -0.3921 -1.9101 -4.2078 0
M  V30 5 C 1.0909 -0.5149 -2.2772 0
M  V30 6 C 0.9506 -1.6162 -4.4443 0
M  V30 7 C 1.9254 0.1796 -1.2732 0
M  V30 8 C 1.6717 -0.8989 -3.4911 0
M  V30 9 C 2.5997 1.4756 -1.5762 0
M  V30 10 C 2.2097 -0.4241 -0.0946 0
M  V30 11 O 2.9865 -0.608 -3.7468 0
M  V30 12 C 3.1806 1.7396 -2.8349 0
M  V30 13 C 2.6223 2.4883 -0.5945 0
M  V30 14 C 1.7602 -1.7743 0.4058 0
M  V30 15 C 3.1337 0.7912 -4.0223 0
M  V30 16 C 3.7851 2.9967 -3.0572 0
M  V30 17 C 3.2321 3.7206 -0.8316 0
M  V30 18 C 1.0033 -1.7523 1.75 0
M  V30 19 C 3.8192 3.9731 -2.063 0
M  V30 20 N -0.3839 -1.2638 1.6438 0
M  V30 21 C -1.2399 -1.9021 2.667 0
M  V30 22 C -0.4685 0.2012 1.8305 0
M  V30 23 C -2.7015 -1.3966 2.6172 0
M  V30 24 C -1.926 0.7144 1.7721 0
M  V30 25 N -2.7972 0.0665 2.7732 0
M  V30 26 C -4.1827 0.5603 2.6338 0
M  V30 27 C -5.1417 0.1353 3.7604 0
M  V30 28 O -4.7713 0.7298 5.0008 0
M  V30 29 H -0.7378 -0.4946 -1.1284 0
M  V30 30 H -0.9629 -2.4617 -4.9498 0
M  V30 31 H 1.4291 -1.9348 -5.3655 0
M  V30 32 H 2.8942 0.068 0.5956 0
M  V30 33 H 2.1489 2.3273 0.3718 0
M  V30 34 H 2.671 -2.3709 0.5507 0
M  V30 35 H 1.1722 -2.3279 -0.3323 0
M  V30 36 H 4.0883 0.8722 -4.5571 0
M  V30 37 H 2.3578 1.1293 -4.7245 0
M  V30 38 H 4.2308 3.224 -4.0243 0
M  V30 39 H 3.2398 4.4816 -0.0557 0
M  V30 40 H 0.9874 -2.7975 2.0887 0
M  V30 41 H 1.57 -1.2013 2.512 0
M  V30 42 H 4.2914 4.9327 -2.2564 0
M  V30 43 H -1.2569 -2.9864 2.5021 0
M  V30 44 H -0.8317 -1.7298 3.6724 0
M  V30 45 H -0.0255 0.4948 2.792 0
M  V30 46 H 0.0888 0.7199 1.0466 0
M  V30 47 H -3.1562 -1.713 1.6687 0
M  V30 48 H -3.2454 -1.8975 3.425 0
M  V30 49 H -2.3202 0.5553 0.7591 0
M  V30 50 H -1.9096 1.7969 1.9493 0
M  V30 51 H -4.6021 0.2439 1.6703 0
M  V30 52 H -4.1572 1.6579 2.6358 0
M  V30 53 H -6.1535 0.4791 3.5203 0
M  V30 54 H -5.1783 -0.9509 3.8808 0
M  V30 55 H -5.3263 0.3264 5.688 0
M  V30 END ATOM
M  V30 BEGIN BOND
M  V30 1 1 1 2
M  V30 2 2 2 3
M  V30 3 1 2 4
M  V30 4 1 3 5
M  V30 5 2 4 6
M  V30 6 1 5 7
M  V30 7 2 5 8
M  V30 8 1 7 9
M  V30 9 2 7 10
M  V30 10 1 8 11
M  V30 11 2 9 12
M  V30 12 1 9 13
M  V30 13 1 10 14
M  V30 14 1 11 15
M  V30 15 1 12 16
M  V30 16 2 13 17
M  V30 17 1 14 18
M  V30 18 2 16 19
M  V30 19 1 18 20
M  V30 20 1 20 21
M  V30 21 1 20 22
M  V30 22 1 21 23
M  V30 23 1 22 24
M  V30 24 1 23 25
M  V30 25 1 25 26
M  V30 26 1 26 27
M  V30 27 1 27 28
M  V30 28 1 6 8
M  V30 29 1 12 15
M  V30 30 1 17 19
M  V30 31 1 24 25
M  V30 32 1 3 29
M  V30 33 1 4 30
M  V30 34 1 6 31
M  V30 35 1 10 32
M  V30 36 1 13 33
M  V30 37 1 14 34
M  V30 38 1 14 35
M  V30 39 1 15 36
M  V30 40 1 15 37
M  V30 41 1 16 38
M  V30 42 1 17 39
M  V30 43 1 18 40
M  V30 44 1 18 41
M  V30 45 1 19 42
M  V30 46 1 21 43
M  V30 47 1 21 44
M  V30 48 1 22 45
M  V30 49 1 22 46
M  V30 50 1 23 47
M  V30 51 1 23 48
M  V30 52 1 24 49
M  V30 53 1 24 50
M  V30 54 1 26 51
M  V30 55 1 26 52
M  V30 56 1 27 53
M  V30 57 1 27 54
M  V30 58 1 28 55
M  V30 END BOND
M  V30 END CTAB
M  END
>  <Column 1>
2343

>  <level_0>
2524

>  <index>
2524

>  <Unnamed: 0>
2524

>  <NO.>
2536

>  <Name>
pinoxepin

>  <IUPAC_name>
2-[4-[(3z)-3-(2-chloro-6h-benzo[c][1]benzoxepin-11-ylidene)propyl]piperazin-1-yl]ethanol

>  <SMILES>
OCCN1CCN(CC/C=C2/c3ccccc3COc3ccc(Cl)cc32)CC1

>  <CID>
6436541

>  <logBB>


>  <BBB+/BBB->
BBB+

>  <Inchi>
InChI=1S/C23H27ClN2O2/c24-19-7-8-23-22(16-19)21(20-5-2-1-4-18(20)17-28-23)6-3-9-25-10-12-26(13-11-25)14-15-27/h1-2-4-8-16-27H-3-9-15-17H2/b21-6-

>  <threshold>
-1

>  <reference>
R1|R13|R6|R27|R27|R30|R30|

>  <group>
B

>  <Class>
1

>  <ABC>
21.87

>  <ABCGG>
16.06

>  <nAcid>
0

>  <nBase>
2

>  <nAromAtom>
12

>  <nAromBond>
12

>  <nAtom>
55

>  <nHeavyAtom>
28

>  <nSpiro>
0

>  <nBridgehead>
0

>  <nHetero>
5

>  <nN>
2

>  <nO>
2

>  <nF>
0

>  <BalabanJ>
1.33

>  <BertzCT>
844.25

>  <nBonds>
58

>  <nBondsO>
31

>  <nBondsS>
45

>  <nBondsD>
1

>  <nBondsT>
0

>  <nBondsA>
12

>  <nBondsM>
13

>  <nBondsKS>
51

>  <nBondsKD>
7

>  <RNCG>
0.24

>  <RPCG>
0.1

>  <FCSP3>
0.39

>  <SZ>
35.33

>  <Sm>
33.21

>  <Sv>
34.35

>  <Sse>
54.74

>  <Sp>
37.36

>  <Si>
61.76

>  <MZ>
0.64

>  <Mm>
0.6

>  <Mv>
0.62

>  <Mse>
1

>  <Mp>
0.68

>  <Mi>
1.12

>  <NsCH3>
0

>  <NdCH2>
0

>  <NssCH2>
9

>  <NtCH>
0

>  <NdsCH>
1

>  <NaaCH>
7

>  <NsssCH>
0

>  <NddC>
0

>  <NtsC>
0

>  <NdssC>
1

>  <NaasC>
5

>  <NaaaC>
0

>  <NssssC>
0

>  <NsNH3>
0

>  <NsNH2>
0

>  <NssNH2>
0

>  <NdNH>
0

>  <NssNH>
0

>  <NaaNH>
0

>  <NtN>
0

>  <NsssNH>
0

>  <NdsN>
0

>  <NaaN>
0

>  <NsssN>
2

>  <NddsN>
0

>  <NaasN>
0

>  <NssssN>
0

>  <NsOH>
1

>  <NdO>
0

>  <NssO>
1

>  <NaaO>
0

>  <NsF>
0

>  <NsSiH3>
0

>  <NssSiH2>
0

>  <NsssSiH>
0

>  <NssssSi>
0

>  <NsPH2>
0

>  <NssPH>
0

>  <NsssP>
0

>  <NdsssP>
0

>  <NsssssP>
0

>  <NsSH>
0

>  <NdS>
0

>  <NssS>
0

>  <NaaS>
0

>  <NdssS>
0

>  <NddssS>
0

>  <NsCl>
1

>  <NsBr>
0

>  <NsI>
0

>  <fragCpx>
205.05

>  <fMF>
0.44

>  <nHBAcc>
4

>  <nHBDon>
1

>  <Kier1>
21.24

>  <Kier2>
10.35

>  <Lipinski>
1

>  <GhoseFilter>
1

>  <FilterItLogS>
-5.54

>  <VMcGowan>
305.33

>  <LabuteASA>
171.53

>  <PEOE_VSA1>
14.74

>  <PEOE_VSA2>
4.9

>  <PEOE_VSA3>
0

>  <PEOE_VSA4>
0

>  <PEOE_VSA5>
0

>  <PEOE_VSA6>
41.94

>  <PEOE_VSA7>
41.32

>  <PEOE_VSA8>
49.85

>  <PEOE_VSA9>
6.61

>  <PEOE_VSA10>
12.36

>  <PEOE_VSA11>
0

>  <PEOE_VSA12>
0

>  <PEOE_VSA13>
0

>  <SMR_VSA1>
9.84

>  <SMR_VSA2>
0

>  <SMR_VSA3>
9.8

>  <SMR_VSA4>
0

>  <SMR_VSA5>
13.03

>  <SMR_VSA6>
45.88

>  <SMR_VSA7>
70.25

>  <SMR_VSA8>
0

>  <SMR_VSA9>
5.75

>  <SlogP_VSA1>
4.74

>  <SlogP_VSA2>
60.78

>  <SlogP_VSA3>
6.61

>  <SlogP_VSA4>
0

>  <SlogP_VSA5>
23.11

>  <SlogP_VSA6>
48.54

>  <SlogP_VSA7>
5.02

>  <SlogP_VSA8>
5.57

>  <SlogP_VSA9>
0

>  <SlogP_VSA10>
0

>  <SlogP_VSA11>
5.75

>  <EState_VSA1>
0

>  <EState_VSA2>
6.61

>  <EState_VSA3>
6.61

>  <EState_VSA4>
62.02

>  <EState_VSA5>
16.7

>  <EState_VSA6>
0

>  <EState_VSA7>
18.2

>  <EState_VSA8>
40.14

>  <EState_VSA9>
21.44

>  <EState_VSA10>
0

>  <VSA_EState1>
6.06

>  <VSA_EState2>
4.83

>  <VSA_EState3>
9.82

>  <VSA_EState4>
4.73

>  <VSA_EState5>
0.89

>  <VSA_EState6>
14.33

>  <VSA_EState7>
3.32

>  <VSA_EState8>
6.83

>  <VSA_EState9>
0

>  <apol>
62.4

>  <bpol>
32.75

>  <nRing>
4

>  <nHRing>
2

>  <naRing>
2

>  <naHRing>
0

>  <nARing 2>
2

>  <nAHRing 2>
2

>  <nFRing>
1

>  <nFHRing>
1

>  <nFaRing>
0

>  <nFaHRing>
0

>  <nFARing 2>
1

>  <nFAHRing 2>
1

>  <nRot>
5

>  <SLogP>
3.66

>  <SMR>
113.89

>  <TopoPSA(NO)>
35.94

>  <TopoPSA>
35.94

>  <JGI1>
0.15

>  <JGI2>
0.07

>  <JGI3>
0.03

>  <JGI4>
0.04

>  <JGI5>
0.02

>  <Diameter>
14

>  <Radius>
7

>  <TMWC10>
135.19

>  <TSRW10>
71.33

>  <MW>
398.18

>  <AMW>
7.24

>  <WPath>
2163

>  <WPol>
47

>  <Zagreb1>
146

>  <Zagreb2>
171

>  <mZagreb2>
6.28

>  <yes>


>  <nAR-cont>
1

>  <nHA-cont>
0.82432561

>  <MWHBN>
0.250570698

>  <MWHBN-cont>
0.958812287

>  <TPSA-cont>
0.749116483

>  <pka_cont>
0.97

>  <yes.1>


>  <BBB_SCORE>
5.245777006

>  <MMFF94 Energy>
171.99

$$$$
Compound 1921
Actelion Java MolfileCreator 2.0

  0  0  0  0  0  0              0 V3000
M  V30 BEGIN CTAB
M  V30 COUNTS 55 58 0 0 0
M  V30 BEGIN ATOM
M  V30 1 S 3.4224 0.4883 -0.2441 0
M  V30 2 C 2.4255 1.8166 -0.9174 0
M  V30 3 C 3.2831 0.7895 1.5182 0
M  V30 4 C 1.4226 2.4622 -0.1717 0
M  V30 5 C 2.6978 2.2377 -2.2256 0
M  V30 6 C 2.2064 1.5012 2.0806 0
M  V30 7 C 4.2992 0.2977 2.349 0
M  V30 8 C 1.1068 1.9615 1.1887 0
M  V30 9 C 0.7804 3.5838 -0.7195 0
M  V30 10 C 2.0156 3.3235 -2.7787 0
M  V30 11 C 2.2001 1.7559 3.4621 0
M  V30 12 C 4.2689 0.5384 3.7235 0
M  V30 13 C -0.1571 1.6815 1.5852 0
M  V30 14 C 1.0552 4.0136 -2.0286 0
M  V30 15 C 3.2253 1.2745 4.2781 0
M  V30 16 C -1.459 1.8014 0.8324 0
M  V30 17 C 0.3482 5.2209 -2.594 0
M  V30 18 C -1.6382 0.8843 -0.396 0
M  V30 19 F -0.9631 5.2818 -2.2291 0
M  V30 20 F 0.9073 6.3905 -2.18 0
M  V30 21 F 0.3559 5.2615 -3.9555 0
M  V30 22 N -1.9982 -0.5134 -0.0819 0
M  V30 23 C -0.8364 -1.2907 0.4025 0
M  V30 24 C -2.5238 -1.1754 -1.2972 0
M  V30 25 C -1.1674 -2.787 0.6176 0
M  V30 26 C -2.8654 -2.6662 -1.0705 0
M  V30 27 N -1.7003 -3.4395 -0.5975 0
M  V30 28 C -2.0505 -4.8398 -0.3005 0
M  V30 29 C -2.3612 -5.6781 -1.5479 0
M  V30 30 O -2.5943 -7.0329 -1.1677 0
M  V30 31 H 3.4615 1.7357 -2.8165 0
M  V30 32 H 5.1299 -0.2649 1.929 0
M  V30 33 H 0.0609 4.1413 -0.1214 0
M  V30 34 H 2.2535 3.6397 -3.7937 0
M  V30 35 H 1.396 2.3329 3.9133 0
M  V30 36 H 5.066 0.1594 4.3584 0
M  V30 37 H -0.3054 1.2246 2.5648 0
M  V30 38 H 3.2072 1.4731 5.347 0
M  V30 39 H -1.6088 2.8436 0.531 0
M  V30 40 H -2.2787 1.6057 1.5376 0
M  V30 41 H -2.4706 1.3241 -0.9628 0
M  V30 42 H -0.7682 0.9248 -1.0612 0
M  V30 43 H -0.5013 -0.9038 1.3684 0
M  V30 44 H 0.0038 -1.2086 -0.2997 0
M  V30 45 H -3.4414 -0.6673 -1.6189 0
M  V30 46 H -1.8008 -1.0959 -2.1209 0
M  V30 47 H -0.2457 -3.2943 0.9282 0
M  V30 48 H -1.8839 -2.8763 1.446 0
M  V30 49 H -3.2195 -3.0692 -2.0255 0
M  V30 50 H -3.6956 -2.7392 -0.3548 0
M  V30 51 H -2.8909 -4.9025 0.4039 0
M  V30 52 H -1.206 -5.3258 0.207 0
M  V30 53 H -3.2574 -5.318 -2.0612 0
M  V30 54 H -1.5175 -5.6572 -2.2456 0
M  V30 55 H -2.7302 -7.5341 -1.9899 0
M  V30 END ATOM
M  V30 BEGIN BOND
M  V30 1 1 1 2
M  V30 2 1 1 3
M  V30 3 2 2 4
M  V30 4 1 2 5
M  V30 5 2 3 6
M  V30 6 1 3 7
M  V30 7 1 4 8
M  V30 8 1 4 9
M  V30 9 2 5 10
M  V30 10 1 6 11
M  V30 11 2 7 12
M  V30 12 2 8 13
M  V30 13 2 9 14
M  V30 14 2 11 15
M  V30 15 1 13 16
M  V30 16 1 14 17
M  V30 17 1 16 18
M  V30 18 1 17 19
M  V30 19 1 17 20
M  V30 20 1 17 21
M  V30 21 1 18 22
M  V30 22 1 22 23
M  V30 23 1 22 24
M  V30 24 1 23 25
M  V30 25 1 24 26
M  V30 26 1 25 27
M  V30 27 1 27 28
M  V30 28 1 28 29
M  V30 29 1 29 30
M  V30 30 1 6 8
M  V30 31 1 10 14
M  V30 32 1 12 15
M  V30 33 1 26 27
M  V30 34 1 5 31
M  V30 35 1 7 32
M  V30 36 1 9 33
M  V30 37 1 10 34
M  V30 38 1 11 35
M  V30 39 1 12 36
M  V30 40 1 13 37
M  V30 41 1 15 38
M  V30 42 1 16 39
M  V30 43 1 16 40
M  V30 44 1 18 41
M  V30 45 1 18 42
M  V30 46 1 23 43
M  V30 47 1 23 44
M  V30 48 1 24 45
M  V30 49 1 24 46
M  V30 50 1 25 47
M  V30 51 1 25 48
M  V30 52 1 26 49
M  V30 53 1 26 50
M  V30 54 1 28 51
M  V30 55 1 28 52
M  V30 56 1 29 53
M  V30 57 1 29 54
M  V30 58 1 30 55
M  V30 END BOND
M  V30 END CTAB
M  END
>  <Column 1>
2344

>  <level_0>
2525

>  <index>
2525

>  <Unnamed: 0>
2525

>  <NO.>
2537

>  <Name>
flupentixol

>  <IUPAC_name>
2-[4-[(3z)-3-[2-(trifluoromethyl)thioxanthen-9-ylidene]propyl]piperazin-1-yl]ethanol

>  <SMILES>
OCCN1CCN(CC/C=C2/c3ccccc3Sc3ccc(C(F)(F)F)cc32)CC1

>  <CID>
5281881

>  <logBB>


>  <BBB+/BBB->
BBB+

>  <Inchi>
InChI=1S/C23H25F3N2OS/c24-23(25-26)17-7-8-22-20(16-17)18(19-4-1-2-6-21(19)30-22)5-3-9-27-10-12-28(13-11-27)14-15-29/h1-2-4-8-16-29H-3-9-15H2/b18-5-

>  <threshold>
-1

>  <reference>
R1|R7|R13|R6|R27|R27|R29|R30|R30|R50|

>  <group>
B

>  <Class>
1

>  <ABC>
23.59

>  <ABCGG>
17.13

>  <nAcid>
0

>  <nBase>
2

>  <nAromAtom>
12

>  <nAromBond>
12

>  <nAtom>
55

>  <nHeavyAtom>
30

>  <nSpiro>
0

>  <nBridgehead>
0

>  <nHetero>
7

>  <nN>
2

>  <nO>
1

>  <nF>
3

>  <BalabanJ>
1.34

>  <BertzCT>
920.9

>  <nBonds>
58

>  <nBondsO>
33

>  <nBondsS>
45

>  <nBondsD>
1

>  <nBondsT>
0

>  <nBondsA>
12

>  <nBondsM>
13

>  <nBondsKS>
51

>  <nBondsKD>
7

>  <RNCG>
0.19

>  <RPCG>
0.2

>  <FCSP3>
0.39

>  <SZ>
38

>  <Sm>
36.18

>  <Sv>
35.13

>  <Sse>
55.7

>  <Sp>
37.52

>  <Si>
62.54

>  <MZ>
0.69

>  <Mm>
0.66

>  <Mv>
0.64

>  <Mse>
1.01

>  <Mp>
0.68

>  <Mi>
1.14

>  <NsCH3>
0

>  <NdCH2>
0

>  <NssCH2>
8

>  <NtCH>
0

>  <NdsCH>
1

>  <NaaCH>
7

>  <NsssCH>
0

>  <NddC>
0

>  <NtsC>
0

>  <NdssC>
1

>  <NaasC>
5

>  <NaaaC>
0

>  <NssssC>
1

>  <NsNH3>
0

>  <NsNH2>
0

>  <NssNH2>
0

>  <NdNH>
0

>  <NssNH>
0

>  <NaaNH>
0

>  <NtN>
0

>  <NsssNH>
0

>  <NdsN>
0

>  <NaaN>
0

>  <NsssN>
2

>  <NddsN>
0

>  <NaasN>
0

>  <NssssN>
0

>  <NsOH>
1

>  <NdO>
0

>  <NssO>
0

>  <NaaO>
0

>  <NsF>
3

>  <NsSiH3>
0

>  <NssSiH2>
0

>  <NsssSiH>
0

>  <NssssSi>
0

>  <NsPH2>
0

>  <NssPH>
0

>  <NsssP>
0

>  <NdsssP>
0

>  <NsssssP>
0

>  <NsSH>
0

>  <NdS>
0

>  <NssS>
1

>  <NaaS>
0

>  <NdssS>
0

>  <NddssS>
0

>  <NsCl>
0

>  <NsBr>
0

>  <NsI>
0

>  <fragCpx>
219.07

>  <fMF>
0.42

>  <nHBAcc>
4

>  <nHBDon>
1

>  <Kier1>
23.17

>  <Kier2>
10.29

>  <Lipinski>
1

>  <GhoseFilter>
1

>  <FilterItLogS>
-5.87

>  <VMcGowan>
308.85

>  <LabuteASA>
178.74

>  <PEOE_VSA1>
10.01

>  <PEOE_VSA2>
4.9

>  <PEOE_VSA3>
0

>  <PEOE_VSA4>
13.17

>  <PEOE_VSA5>
0

>  <PEOE_VSA6>
36.04

>  <PEOE_VSA7>
47.39

>  <PEOE_VSA8>
49.06

>  <PEOE_VSA9>
12.17

>  <PEOE_VSA10>
0

>  <PEOE_VSA11>
0

>  <PEOE_VSA12>
0

>  <PEOE_VSA13>
0

>  <SMR_VSA1>
18.28

>  <SMR_VSA2>
0

>  <SMR_VSA3>
9.8

>  <SMR_VSA4>
0

>  <SMR_VSA5>
22.39

>  <SMR_VSA6>
45.88

>  <SMR_VSA7>
65.23

>  <SMR_VSA8>
0

>  <SMR_VSA9>
0

>  <SlogP_VSA1>
0

>  <SlogP_VSA2>
60.78

>  <SlogP_VSA3>
6.18

>  <SlogP_VSA4>
0

>  <SlogP_VSA5>
23.11

>  <SlogP_VSA6>
58.33

>  <SlogP_VSA7>
0

>  <SlogP_VSA8>
5.57

>  <SlogP_VSA9>
0

>  <SlogP_VSA10>
13.17

>  <SlogP_VSA11>
0

>  <EState_VSA1>
11.74

>  <EState_VSA2>
6.61

>  <EState_VSA3>
12.11

>  <EState_VSA4>
60.07

>  <EState_VSA5>
23.89

>  <EState_VSA6>
6.07

>  <EState_VSA7>
24.27

>  <EState_VSA8>
15.88

>  <EState_VSA9>
5.11

>  <EState_VSA10>
13.17

>  <VSA_EState1>
39.93

>  <VSA_EState2>
6.57

>  <VSA_EState3>
9.06

>  <VSA_EState4>
1.96

>  <VSA_EState5>
0

>  <VSA_EState6>
11.96

>  <VSA_EState7>
-1.47

>  <VSA_EState8>
5.55

>  <VSA_EState9>
0

>  <apol>
62.65

>  <bpol>
34.3

>  <nRing>
4

>  <nHRing>
2

>  <naRing>
2

>  <naHRing>
0

>  <nARing 2>
2

>  <nAHRing 2>
2

>  <nFRing>
1

>  <nFHRing>
1

>  <nFaRing>
0

>  <nFaHRing>
0

>  <nFARing 2>
1

>  <nFAHRing 2>
1

>  <nRot>
5

>  <SLogP>
4.6

>  <SMR>
113.67

>  <TopoPSA(NO)>
26.71

>  <TopoPSA>
52.01

>  <JGI1>
0.2

>  <JGI2>
0.08

>  <JGI3>
0.04

>  <JGI4>
0.04

>  <JGI5>
0.03

>  <Diameter>
15

>  <Radius>
8

>  <TMWC10>
140.46

>  <TSRW10>
65.95

>  <MW>
434.16

>  <AMW>
7.89

>  <WPath>
2618

>  <WPol>
49

>  <Zagreb1>
160

>  <Zagreb2>
188

>  <mZagreb2>
6.53

>  <yes>


>  <nAR-cont>
1

>  <nHA-cont>
0.74523694

>  <MWHBN>
0.239963452

>  <MWHBN-cont>
0.975018292

>  <TPSA-cont>
0.636937904

>  <pka_cont>
0.97

>  <yes.1>


>  <BBB_SCORE>
4.966640186

>  <MMFF94 Energy>
188.43

$$$$
Compound 1922
Actelion Java MolfileCreator 2.0

  0  0  0  0  0  0              0 V3000
M  V30 BEGIN CTAB
M  V30 COUNTS 52 55 0 0 0
M  V30 BEGIN ATOM
M  V30 1 Cl 1.3028 0.1627 -5.3009 0
M  V30 2 C 0.2364 -0.8696 -4.4308 0
M  V30 3 C -0.6915 -0.3194 -3.5479 0
M  V30 4 C 0.3085 -2.2473 -4.6123 0
M  V30 5 C -1.5496 -1.1514 -2.8119 0
M  V30 6 C -0.5755 -3.0811 -3.9255 0
M  V30 7 C -1.5231 -2.5399 -3.0447 0
M  V30 8 C -2.5294 -0.6025 -1.8407 0
M  V30 9 S -2.7 -3.6633 -2.2938 0
M  V30 10 C -3.9042 -1.1736 -1.7787 0
M  V30 11 C -2.1803 0.2681 -0.8641 0
M  V30 12 C -4.0706 -2.5628 -1.937 0
M  V30 13 C -5.0375 -0.3683 -1.5746 0
M  V30 14 C -0.8268 0.854 -0.5333 0
M  V30 15 C -5.3497 -3.1262 -1.8278 0
M  V30 16 C -6.3086 -0.9383 -1.483 0
M  V30 17 C -0.455 0.6057 0.9424 0
M  V30 18 C -6.4634 -2.3168 -1.5998 0
M  V30 19 N 0.7748 1.3042 1.36 0
M  V30 20 C 1.9816 0.7396 0.7194 0
M  V30 21 C 0.9333 1.2114 2.8275 0
M  V30 22 C 3.2843 1.4019 1.2268 0
M  V30 23 C 2.2349 1.8776 3.3316 0
M  V30 24 N 3.4392 1.307 2.6946 0
M  V30 25 C 4.6677 2.0055 3.1137 0
M  V30 26 C 5.0607 1.7463 4.5745 0
M  V30 27 O 6.3065 2.3818 4.8542 0
M  V30 28 H -0.7444 0.7603 -3.4312 0
M  V30 29 H 1.0328 -2.6773 -5.299 0
M  V30 30 H -0.5349 -4.1542 -4.1002 0
M  V30 31 H -2.945 0.5803 -0.1513 0
M  V30 32 H -4.9396 0.7114 -1.4889 0
M  V30 33 H -0.866 1.933 -0.7264 0
M  V30 34 H -0.0437 0.4357 -1.1666 0
M  V30 35 H -5.4895 -4.1996 -1.935 0
M  V30 36 H -7.1773 -0.305 -1.3199 0
M  V30 37 H -1.2859 0.9707 1.5613 0
M  V30 38 H -0.3741 -0.4736 1.1297 0
M  V30 39 H -7.4522 -2.7625 -1.5253 0
M  V30 40 H 1.9406 0.8965 -0.3637 0
M  V30 41 H 2.0391 -0.3432 0.8938 0
M  V30 42 H 0.0881 1.711 3.3169 0
M  V30 43 H 0.9224 0.1609 3.1493 0
M  V30 44 H 4.1292 0.9009 0.7388 0
M  V30 45 H 3.298 2.4528 0.9062 0
M  V30 46 H 2.2792 1.7289 4.4161 0
M  V30 47 H 2.1771 2.9594 3.1502 0
M  V30 48 H 4.5933 3.0874 2.939 0
M  V30 49 H 5.5081 1.6658 2.4932 0
M  V30 50 H 4.318 2.1506 5.2683 0
M  V30 51 H 5.1736 0.6727 4.7582 0
M  V30 52 H 6.5409 2.1472 5.7685 0
M  V30 END ATOM
M  V30 BEGIN BOND
M  V30 1 1 1 2
M  V30 2 2 2 3
M  V30 3 1 2 4
M  V30 4 1 3 5
M  V30 5 2 4 6
M  V30 6 2 5 7
M  V30 7 1 5 8
M  V30 8 1 7 9
M  V30 9 1 8 10
M  V30 10 2 8 11
M  V30 11 1 9 12
M  V30 12 1 10 13
M  V30 13 1 11 14
M  V30 14 1 12 15
M  V30 15 2 13 16
M  V30 16 1 14 17
M  V30 17 2 15 18
M  V30 18 1 17 19
M  V30 19 1 19 20
M  V30 20 1 19 21
M  V30 21 1 20 22
M  V30 22 1 21 23
M  V30 23 1 22 24
M  V30 24 1 24 25
M  V30 25 1 25 26
M  V30 26 1 26 27
M  V30 27 1 6 7
M  V30 28 2 10 12
M  V30 29 1 16 18
M  V30 30 1 23 24
M  V30 31 1 3 28
M  V30 32 1 4 29
M  V30 33 1 6 30
M  V30 34 1 11 31
M  V30 35 1 13 32
M  V30 36 1 14 33
M  V30 37 1 14 34
M  V30 38 1 15 35
M  V30 39 1 16 36
M  V30 40 1 17 37
M  V30 41 1 17 38
M  V30 42 1 18 39
M  V30 43 1 20 40
M  V30 44 1 20 41
M  V30 45 1 21 42
M  V30 46 1 21 43
M  V30 47 1 22 44
M  V30 48 1 22 45
M  V30 49 1 23 46
M  V30 50 1 23 47
M  V30 51 1 25 48
M  V30 52 1 25 49
M  V30 53 1 26 50
M  V30 54 1 26 51
M  V30 55 1 27 52
M  V30 END BOND
M  V30 END CTAB
M  END
>  <Column 1>
2345

>  <level_0>
2526

>  <index>
2526

>  <Unnamed: 0>
2526

>  <NO.>
2538

>  <Name>
clopenthixol/zuclopenthixol

>  <IUPAC_name>
2-[4-[(3z)-3-(2-chlorothioxanthen-9-ylidene)propyl]piperazin-1-yl]ethanol

>  <SMILES>
OCCN1CCN(CC/C=C2/c3ccccc3Sc3ccc(Cl)cc32)CC1

>  <CID>
5311507

>  <logBB>


>  <BBB+/BBB->
BBB+

>  <Inchi>
InChI=1S/C22H25ClN2OS/c23-17-7-8-22-20(16-17)18(19-4-1-2-6-21(19)27-22)5-3-9-24-10-12-25(13-11-24)14-15-26/h1-2-4-8-16-26H-3-9-15H2/b18-5-

>  <threshold>
-1

>  <reference>
R1|R1|R13|R6|R23|R27|R27|R27|R30|R30|R30|R50|

>  <group>
B

>  <Class>
1

>  <ABC>
21.16

>  <ABCGG>
15.24

>  <nAcid>
0

>  <nBase>
2

>  <nAromAtom>
12

>  <nAromBond>
12

>  <nAtom>
52

>  <nHeavyAtom>
27

>  <nSpiro>
0

>  <nBridgehead>
0

>  <nHetero>
5

>  <nN>
2

>  <nO>
1

>  <nF>
0

>  <BalabanJ>
1.3

>  <BertzCT>
830.81

>  <nBonds>
55

>  <nBondsO>
30

>  <nBondsS>
42

>  <nBondsD>
1

>  <nBondsT>
0

>  <nBondsA>
12

>  <nBondsM>
13

>  <nBondsKS>
48

>  <nBondsKD>
7

>  <RNCG>
0.24

>  <RPCG>
0.13

>  <FCSP3>
0.36

>  <SZ>
35.33

>  <Sm>
33.38

>  <Sv>
33.28

>  <Sse>
51.6

>  <Sp>
36.82

>  <Si>
58.05

>  <MZ>
0.68

>  <Mm>
0.64

>  <Mv>
0.64

>  <Mse>
0.99

>  <Mp>
0.71

>  <Mi>
1.12

>  <NsCH3>
0

>  <NdCH2>
0

>  <NssCH2>
8

>  <NtCH>
0

>  <NdsCH>
1

>  <NaaCH>
7

>  <NsssCH>
0

>  <NddC>
0

>  <NtsC>
0

>  <NdssC>
1

>  <NaasC>
5

>  <NaaaC>
0

>  <NssssC>
0

>  <NsNH3>
0

>  <NsNH2>
0

>  <NssNH2>
0

>  <NdNH>
0

>  <NssNH>
0

>  <NaaNH>
0

>  <NtN>
0

>  <NsssNH>
0

>  <NdsN>
0

>  <NaaN>
0

>  <NsssN>
2

>  <NddsN>
0

>  <NaasN>
0

>  <NssssN>
0

>  <NsOH>
1

>  <NdO>
0

>  <NssO>
0

>  <NaaO>
0

>  <NsF>
0

>  <NsSiH3>
0

>  <NssSiH2>
0

>  <NsssSiH>
0

>  <NssssSi>
0

>  <NsPH2>
0

>  <NssPH>
0

>  <NsssP>
0

>  <NdsssP>
0

>  <NsssssP>
0

>  <NsSH>
0

>  <NdS>
0

>  <NssS>
1

>  <NaaS>
0

>  <NdssS>
0

>  <NddssS>
0

>  <NsCl>
1

>  <NsBr>
0

>  <NsI>
0

>  <fragCpx>
198.05

>  <fMF>
0.44

>  <nHBAcc>
4

>  <nHBDon>
1

>  <Kier1>
20.28

>  <Kier2>
9.67

>  <Lipinski>
1

>  <GhoseFilter>
1

>  <FilterItLogS>
-5.63

>  <VMcGowan>
301.72

>  <LabuteASA>
170.18

>  <PEOE_VSA1>
10.01

>  <PEOE_VSA2>
4.9

>  <PEOE_VSA3>
0

>  <PEOE_VSA4>
0

>  <PEOE_VSA5>
0

>  <PEOE_VSA6>
47.64

>  <PEOE_VSA7>
47.39

>  <PEOE_VSA8>
54.08

>  <PEOE_VSA9>
6.61

>  <PEOE_VSA10>
0

>  <PEOE_VSA11>
0

>  <PEOE_VSA12>
0

>  <PEOE_VSA13>
0

>  <SMR_VSA1>
5.11

>  <SMR_VSA2>
0

>  <SMR_VSA3>
9.8

>  <SMR_VSA4>
0

>  <SMR_VSA5>
16.21

>  <SMR_VSA6>
45.88

>  <SMR_VSA7>
64.69

>  <SMR_VSA8>
0

>  <SMR_VSA9>
0

>  <SlogP_VSA1>
0

>  <SlogP_VSA2>
60.78

>  <SlogP_VSA3>
0

>  <SlogP_VSA4>
0

>  <SlogP_VSA5>
17.55

>  <SlogP_VSA6>
58.33

>  <SlogP_VSA7>
5.02

>  <SlogP_VSA8>
5.57

>  <SlogP_VSA9>
0

>  <SlogP_VSA10>
0

>  <SlogP_VSA11>
0

>  <EState_VSA1>
0

>  <EState_VSA2>
6.61

>  <EState_VSA3>
0

>  <EState_VSA4>
50.71

>  <EState_VSA5>
26.49

>  <EState_VSA6>
0

>  <EState_VSA7>
17.83

>  <EState_VSA8>
52.27

>  <EState_VSA9>
16.71

>  <EState_VSA10>
0

>  <VSA_EState1>
0

>  <VSA_EState2>
7.45

>  <VSA_EState3>
9.87

>  <VSA_EState4>
3.87

>  <VSA_EState5>
0

>  <VSA_EState6>
14.84

>  <VSA_EState7>
3.41

>  <VSA_EState8>
6.39

>  <VSA_EState9>
0

>  <apol>
61.49

>  <bpol>
31.47

>  <nRing>
4

>  <nHRing>
2

>  <naRing>
2

>  <naHRing>
0

>  <nARing 2>
2

>  <nAHRing 2>
2

>  <nFRing>
1

>  <nFHRing>
1

>  <nFaRing>
0

>  <nFaHRing>
0

>  <nFARing 2>
1

>  <nFAHRing 2>
1

>  <nRot>
5

>  <SLogP>
4.24

>  <SMR>
113.68

>  <TopoPSA(NO)>
26.71

>  <TopoPSA>
52.01

>  <JGI1>
0.15

>  <JGI2>
0.07

>  <JGI3>
0.03

>  <JGI4>
0.04

>  <JGI5>
0.02

>  <Diameter>
14

>  <Radius>
7

>  <TMWC10>
133.17

>  <TSRW10>
62.26

>  <MW>
400.14

>  <AMW>
7.69

>  <WPath>
2000

>  <WPol>
43

>  <Zagreb1>
142

>  <Zagreb2>
167

>  <mZagreb2>
6.03

>  <yes>


>  <nAR-cont>
1

>  <nHA-cont>
0.860070871

>  <MWHBN>
0.249956261

>  <MWHBN-cont>
0.959850452

>  <TPSA-cont>
0.636937904

>  <pka_cont>
0.97

>  <yes.1>


>  <BBB_SCORE>
5.058722356

>  <MMFF94 Energy>
155.62

$$$$
Compound 1923
Actelion Java MolfileCreator 2.0

  0  0  0  0  0  0              0 V3000
M  V30 BEGIN CTAB
M  V30 COUNTS 57 60 0 0 0
M  V30 BEGIN ATOM
M  V30 1 S 1.5489 1.4673 4.734 0
M  V30 2 C 1.4048 2.5409 3.3197 0
M  V30 3 C 2.6805 0.2317 4.1309 0
M  V30 4 C 1.6768 2.1033 2.0119 0
M  V30 5 C 1.0365 3.8723 3.547 0
M  V30 6 C 2.8487 -0.0303 2.7639 0
M  V30 7 C 3.4333 -0.4826 5.0717 0
M  V30 8 C 1.6096 3.0309 0.953 0
M  V30 9 C 1.9842 0.6453 1.7067 0 CFG=1
M  V30 10 C 0.9667 4.7641 2.4845 0
M  V30 11 C 3.7869 -1.0034 2.3639 0
M  V30 12 C 4.3618 -1.443 4.6644 0
M  V30 13 C 1.2563 4.3582 1.1905 0
M  V30 14 C 0.6989 -0.1945 1.4923 0
M  V30 15 F 0.6217 6.0379 2.7138 0
M  V30 16 C 4.5464 -1.7171 3.3047 0
M  V30 17 C -0.0794 0.1808 0.2239 0
M  V30 18 C 5.5629 -2.7383 2.8545 0
M  V30 19 C -1.2647 -0.7702 0.0056 0
M  V30 20 F 5.1962 -3.3836 1.7117 0
M  V30 21 F 6.7768 -2.18 2.5952 0
M  V30 22 F 5.7876 -3.7154 3.7764 0
M  V30 23 N -2.1038 -0.3737 -1.1359 0
M  V30 24 C -1.4287 -0.5935 -2.4319 0
M  V30 25 C -3.3631 -1.1514 -1.1282 0
M  V30 26 C -2.3385 -0.2675 -3.6424 0
M  V30 27 C -4.2737 -0.8142 -2.3292 0
M  V30 28 N -3.5998 -1.0301 -3.6255 0
M  V30 29 C -4.5022 -0.6592 -4.7346 0
M  V30 30 C -4.0048 -1.051 -6.1377 0
M  V30 31 O -3.9581 -2.4664 -6.2882 0
M  V30 32 H 0.8165 4.233 4.5475 0
M  V30 33 H 3.3108 -0.2866 6.1356 0
M  V30 34 H 1.8158 2.7171 -0.0683 0
M  V30 35 H 2.5667 0.6305 0.7742 0
M  V30 36 H 3.919 -1.2194 1.3032 0
M  V30 37 H 4.9407 -1.9762 5.4174 0
M  V30 38 H 1.1965 5.0729 0.376 0
M  V30 39 H 0.9704 -1.2565 1.4189 0
M  V30 40 H 0.0337 -0.1089 2.3616 0
M  V30 41 H -0.458 1.2058 0.3053 0
M  V30 42 H 0.6032 0.145 -0.6318 0
M  V30 43 H -0.9057 -1.8012 -0.1099 0
M  V30 44 H -1.8747 -0.747 0.9183 0
M  V30 45 H -0.546 0.0503 -2.509 0
M  V30 46 H -1.0847 -1.6333 -2.5147 0
M  V30 47 H -3.1497 -2.2292 -1.1307 0
M  V30 48 H -3.9213 -0.9313 -0.2099 0
M  V30 49 H -2.5423 0.8117 -3.6543 0
M  V30 50 H -1.7686 -0.503 -4.5474 0
M  V30 51 H -4.6126 0.227 -2.2406 0
M  V30 52 H -5.1631 -1.4533 -2.2685 0
M  V30 53 H -4.702 0.4196 -4.7154 0
M  V30 54 H -5.4605 -1.1727 -4.5829 0
M  V30 55 H -4.7024 -0.6629 -6.8875 0
M  V30 56 H -3.0169 -0.6351 -6.354 0
M  V30 57 H -3.5328 -2.6497 -7.1417 0
M  V30 END ATOM
M  V30 BEGIN BOND
M  V30 1 1 1 2
M  V30 2 1 1 3
M  V30 3 2 2 4
M  V30 4 1 2 5
M  V30 5 2 3 6
M  V30 6 1 3 7
M  V30 7 1 4 8
M  V30 8 1 4 9
M  V30 9 2 5 10
M  V30 10 1 6 11
M  V30 11 2 7 12
M  V30 12 2 8 13
M  V30 13 1 9 14
M  V30 14 1 10 15
M  V30 15 2 11 16
M  V30 16 1 14 17
M  V30 17 1 16 18
M  V30 18 1 17 19
M  V30 19 1 18 20
M  V30 20 1 18 21
M  V30 21 1 18 22
M  V30 22 1 19 23
M  V30 23 1 23 24
M  V30 24 1 23 25
M  V30 25 1 24 26
M  V30 26 1 25 27
M  V30 27 1 26 28
M  V30 28 1 28 29
M  V30 29 1 29 30
M  V30 30 1 30 31
M  V30 31 1 6 9
M  V30 32 1 10 13
M  V30 33 1 12 16
M  V30 34 1 27 28
M  V30 35 1 5 32
M  V30 36 1 7 33
M  V30 37 1 8 34
M  V30 38 1 9 35
M  V30 39 1 11 36
M  V30 40 1 12 37
M  V30 41 1 13 38
M  V30 42 1 14 39
M  V30 43 1 14 40
M  V30 44 1 17 41
M  V30 45 1 17 42
M  V30 46 1 19 43
M  V30 47 1 19 44
M  V30 48 1 24 45
M  V30 49 1 24 46
M  V30 50 1 25 47
M  V30 51 1 25 48
M  V30 52 1 26 49
M  V30 53 1 26 50
M  V30 54 1 27 51
M  V30 55 1 27 52
M  V30 56 1 29 53
M  V30 57 1 29 54
M  V30 58 1 30 55
M  V30 59 1 30 56
M  V30 60 1 31 57
M  V30 END BOND
M  V30 BEGIN COLLECTION
M  V30 MDLV30/STERAC1 ATOMS=(1 9)
M  V30 END COLLECTION
M  V30 END CTAB
M  END
>  <Column 1>
2346

>  <level_0>
2527

>  <index>
2527

>  <Unnamed: 0>
2527

>  <NO.>
2539

>  <Name>
teflutixol

>  <IUPAC_name>
2-[4-[3-[6-fluoro-2-(trifluoromethyl)-9h-thioxanthen-9-yl]propyl]piperazin-1-yl]ethanol

>  <SMILES>
OCCN1CCN(CCCC2c3ccc(F)cc3Sc3ccc(C(F)(F)F)cc32)CC1

>  <CID>
68751

>  <logBB>


>  <BBB+/BBB->
BBB+

>  <Inchi>
InChI=1S/C23H26F4N2OS/c24-17-4-5-19-18(2-1-7-28-8-10-29(11-9-28)12-13-30)20-14-16(23(25-26)27)3-6-21(20)31-22(19)15-17/h3-6-14-15-18-30H-1-2-7-13H2

>  <threshold>
-1

>  <reference>
R1|R19|R6|R27|R27|R30|

>  <group>
B

>  <Class>
1

>  <ABC>
24.4

>  <ABCGG>
17.68

>  <nAcid>
0

>  <nBase>
2

>  <nAromAtom>
12

>  <nAromBond>
12

>  <nAtom>
57

>  <nHeavyAtom>
31

>  <nSpiro>
0

>  <nBridgehead>
0

>  <nHetero>
8

>  <nN>
2

>  <nO>
1

>  <nF>
4

>  <BalabanJ>
1.36

>  <BertzCT>
912.93

>  <nBonds>
60

>  <nBondsO>
34

>  <nBondsS>
48

>  <nBondsD>
0

>  <nBondsT>
0

>  <nBondsA>
12

>  <nBondsM>
12

>  <nBondsKS>
54

>  <nBondsKD>
6

>  <RNCG>
0.18

>  <RPCG>
0.19

>  <FCSP3>
0.48

>  <SZ>
39.67

>  <Sm>
37.84

>  <Sv>
36.05

>  <Sse>
58.1

>  <Sp>
38.25

>  <Si>
65.3

>  <MZ>
0.7

>  <Mm>
0.66

>  <Mv>
0.63

>  <Mse>
1.02

>  <Mp>
0.67

>  <Mi>
1.15

>  <NsCH3>
0

>  <NdCH2>
0

>  <NssCH2>
9

>  <NtCH>
0

>  <NdsCH>
0

>  <NaaCH>
6

>  <NsssCH>
1

>  <NddC>
0

>  <NtsC>
0

>  <NdssC>
0

>  <NaasC>
6

>  <NaaaC>
0

>  <NssssC>
1

>  <NsNH3>
0

>  <NsNH2>
0

>  <NssNH2>
0

>  <NdNH>
0

>  <NssNH>
0

>  <NaaNH>
0

>  <NtN>
0

>  <NsssNH>
0

>  <NdsN>
0

>  <NaaN>
0

>  <NsssN>
2

>  <NddsN>
0

>  <NaasN>
0

>  <NssssN>
0

>  <NsOH>
1

>  <NdO>
0

>  <NssO>
0

>  <NaaO>
0

>  <NsF>
4

>  <NsSiH3>
0

>  <NssSiH2>
0

>  <NsssSiH>
0

>  <NssssSi>
0

>  <NsPH2>
0

>  <NssPH>
0

>  <NsssP>
0

>  <NdsssP>
0

>  <NsssssP>
0

>  <NsSH>
0

>  <NdS>
0

>  <NssS>
1

>  <NaaS>
0

>  <NdssS>
0

>  <NddssS>
0

>  <NsCl>
0

>  <NsBr>
0

>  <NsI>
0

>  <fragCpx>
226.08

>  <fMF>
0.4

>  <nHBAcc>
4

>  <nHBDon>
1

>  <Kier1>
24.13

>  <Kier2>
10.51

>  <Lipinski>
1

>  <GhoseFilter>
1

>  <FilterItLogS>
-6.43

>  <VMcGowan>
314.91

>  <LabuteASA>
183.59

>  <PEOE_VSA1>
10.01

>  <PEOE_VSA2>
4.9

>  <PEOE_VSA3>
4.39

>  <PEOE_VSA4>
13.17

>  <PEOE_VSA5>
0

>  <PEOE_VSA6>
17.83

>  <PEOE_VSA7>
60.85

>  <PEOE_VSA8>
48.43

>  <PEOE_VSA9>
12.17

>  <PEOE_VSA10>
5.82

>  <PEOE_VSA11>
0

>  <PEOE_VSA12>
0

>  <PEOE_VSA13>
0

>  <SMR_VSA1>
22.67

>  <SMR_VSA2>
0

>  <SMR_VSA3>
9.8

>  <SMR_VSA4>
0

>  <SMR_VSA5>
34.73

>  <SMR_VSA6>
45.88

>  <SMR_VSA7>
58.91

>  <SMR_VSA8>
0

>  <SMR_VSA9>
0

>  <SlogP_VSA1>
0

>  <SlogP_VSA2>
60.78

>  <SlogP_VSA3>
6.18

>  <SlogP_VSA4>
5.82

>  <SlogP_VSA5>
35.45

>  <SlogP_VSA6>
46.19

>  <SlogP_VSA7>
0

>  <SlogP_VSA8>
0

>  <SlogP_VSA9>
0

>  <SlogP_VSA10>
17.56

>  <SlogP_VSA11>
0

>  <EState_VSA1>
11.74

>  <EState_VSA2>
18.34

>  <EState_VSA3>
18.53

>  <EState_VSA4>
60.57

>  <EState_VSA5>
36.03

>  <EState_VSA6>
6.07

>  <EState_VSA7>
0

>  <EState_VSA8>
9.8

>  <EState_VSA9>
5.11

>  <EState_VSA10>
17.56

>  <VSA_EState1>
53.81

>  <VSA_EState2>
6.15

>  <VSA_EState3>
9.07

>  <VSA_EState4>
0.96

>  <VSA_EState5>
-0.51

>  <VSA_EState6>
8.49

>  <VSA_EState7>
-2.83

>  <VSA_EState8>
5.43

>  <VSA_EState9>
0

>  <apol>
63.88

>  <bpol>
36.42

>  <nRing>
4

>  <nHRing>
2

>  <naRing>
2

>  <naHRing>
0

>  <nARing 2>
2

>  <nAHRing 2>
2

>  <nFRing>
1

>  <nFHRing>
1

>  <nFaRing>
0

>  <nFaHRing>
0

>  <nFARing 2>
1

>  <nFAHRing 2>
1

>  <nRot>
6

>  <SLogP>
4.83

>  <SMR>
113.01

>  <TopoPSA(NO)>
26.71

>  <TopoPSA>
52.01

>  <JGI1>
0.22

>  <JGI2>
0.08

>  <JGI3>
0.04

>  <JGI4>
0.04

>  <JGI5>
0.03

>  <Diameter>
15

>  <Radius>
8

>  <TMWC10>
142.86

>  <TSRW10>
67.14

>  <MW>
454.17

>  <AMW>
7.97

>  <WPath>
2846

>  <WPol>
51

>  <Zagreb1>
166

>  <Zagreb2>
195

>  <mZagreb2>
6.69

>  <yes>


>  <nAR-cont>
1

>  <nHA-cont>
0.702745138

>  <MWHBN>
0.234617705

>  <MWHBN-cont>
0.981756457

>  <TPSA-cont>
0.636937904

>  <pka_cont>
0.97

>  <yes.1>


>  <BBB_SCORE>
4.934255631

>  <MMFF94 Energy>
156.65

$$$$
Compound 1924
Actelion Java MolfileCreator 2.0

  0  0  0  0  0  0              0 V3000
M  V30 BEGIN CTAB
M  V30 COUNTS 53 56 0 0 0
M  V30 BEGIN ATOM
M  V30 1 S -5.1023 0.5751 -3.7014 0
M  V30 2 C -3.668 -0.497 -3.7025 0
M  V30 3 C -4.9679 1.2266 -2.0885 0
M  V30 4 C -2.8503 -0.7512 -2.5729 0
M  V30 5 C -3.3939 -1.1077 -4.9422 0
M  V30 6 S -6.0224 2.4654 -1.5617 0
M  V30 7 C -4.0695 0.8385 -1.115 0
M  V30 8 N -3.1219 -0.1473 -1.3046 0
M  V30 9 C -1.75 -1.6155 -2.7773 0
M  V30 10 C -2.3073 -1.9622 -5.1007 0
M  V30 11 C -5.2878 2.5196 -0.0253 0
M  V30 12 C -4.2627 1.6054 0.0826 0
M  V30 13 C -2.3626 -0.638 -0.1325 0
M  V30 14 C -1.4649 -2.2158 -4.0207 0
M  V30 15 C -1.0705 0.1615 0.0757 0
M  V30 16 C -0.2822 -3.1425 -4.1604 0
M  V30 17 C -0.265 -0.418 1.2443 0
M  V30 18 F 0.7992 -2.7295 -3.4412 0
M  V30 19 F -0.5598 -4.402 -3.7251 0
M  V30 20 F 0.1533 -3.275 -5.4437 0
M  V30 21 N 0.909 0.396 1.5909 0
M  V30 22 C 1.5013 -0.0799 2.8608 0
M  V30 23 C 1.951 0.3614 0.5437 0
M  V30 24 C 2.7778 0.6951 3.2647 0
M  V30 25 C 3.22 1.1467 0.9487 0
M  V30 26 N 3.814 0.6594 2.2116 0
M  V30 27 C 4.9857 1.4896 2.5665 0
M  V30 28 C 5.7761 0.9842 3.7858 0
M  V30 29 O 5.1983 1.4489 5.0035 0
M  V30 30 H -4.0342 -0.9145 -5.8021 0
M  V30 31 H -1.0569 -1.8387 -1.9703 0
M  V30 32 H -2.1213 -2.4189 -6.0714 0
M  V30 33 H -5.6356 3.2173 0.7241 0
M  V30 34 H -3.6817 1.5172 0.9906 0
M  V30 35 H -2.1574 -1.713 -0.2099 0
M  V30 36 H -2.978 -0.5778 0.7749 0
M  V30 37 H -1.3102 1.2127 0.277 0
M  V30 38 H -0.475 0.1497 -0.8426 0
M  V30 39 H -0.9315 -0.4593 2.116 0
M  V30 40 H 0.0284 -1.4517 1.0195 0
M  V30 41 H 0.7681 0.035 3.6688 0
M  V30 42 H 1.7433 -1.1494 2.7906 0
M  V30 43 H 2.2291 -0.6754 0.3117 0
M  V30 44 H 1.572 0.8138 -0.3788 0
M  V30 45 H 2.5062 1.7316 3.5061 0
M  V30 46 H 3.1573 0.2277 4.1794 0
M  V30 47 H 2.9683 2.2135 1.0274 0
M  V30 48 H 3.9531 1.0439 0.1392 0
M  V30 49 H 4.6854 2.5333 2.7256 0
M  V30 50 H 5.6763 1.4673 1.714 0
M  V30 51 H 5.8252 -0.1097 3.8037 0
M  V30 52 H 6.799 1.3728 3.7415 0
M  V30 53 H 5.7138 1.0521 5.7261 0
M  V30 END ATOM
M  V30 BEGIN BOND
M  V30 1 1 1 2
M  V30 2 1 1 3
M  V30 3 2 2 4
M  V30 4 1 2 5
M  V30 5 1 3 6
M  V30 6 2 3 7
M  V30 7 1 4 8
M  V30 8 1 4 9
M  V30 9 2 5 10
M  V30 10 1 6 11
M  V30 11 1 7 12
M  V30 12 1 8 13
M  V30 13 2 9 14
M  V30 14 1 13 15
M  V30 15 1 14 16
M  V30 16 1 15 17
M  V30 17 1 16 18
M  V30 18 1 16 19
M  V30 19 1 16 20
M  V30 20 1 17 21
M  V30 21 1 21 22
M  V30 22 1 21 23
M  V30 23 1 22 24
M  V30 24 1 23 25
M  V30 25 1 24 26
M  V30 26 1 26 27
M  V30 27 1 27 28
M  V30 28 1 28 29
M  V30 29 1 7 8
M  V30 30 1 10 14
M  V30 31 2 11 12
M  V30 32 1 25 26
M  V30 33 1 5 30
M  V30 34 1 9 31
M  V30 35 1 10 32
M  V30 36 1 11 33
M  V30 37 1 12 34
M  V30 38 1 13 35
M  V30 39 1 13 36
M  V30 40 1 15 37
M  V30 41 1 15 38
M  V30 42 1 17 39
M  V30 43 1 17 40
M  V30 44 1 22 41
M  V30 45 1 22 42
M  V30 46 1 23 43
M  V30 47 1 23 44
M  V30 48 1 24 45
M  V30 49 1 24 46
M  V30 50 1 25 47
M  V30 51 1 25 48
M  V30 52 1 27 49
M  V30 53 1 27 50
M  V30 54 1 28 51
M  V30 55 1 28 52
M  V30 56 1 29 53
M  V30 END BOND
M  V30 END CTAB
M  END
>  <Column 1>
2347

>  <level_0>
2528

>  <index>
2528

>  <Unnamed: 0>
2528

>  <NO.>
2540

>  <Name>
flutizenol

>  <IUPAC_name>
2-[4-[3-[6-(trifluoromethyl)thieno[2-3-b][1-4]benzothiazin-4-yl]propyl]piperazin-1-yl]ethanol

>  <SMILES>
OCCN1CCN(CCCN2c3cc(C(F)(F)F)ccc3Sc3sccc32)CC1

>  <CID>
219071

>  <logBB>


>  <BBB+/BBB->
BBB+

>  <Inchi>
InChI=1S/C20H24F3N3OS2/c21-20(22-23)15-2-3-18-17(14-15)26(16-4-13-28-19(16)29-18)6-1-5-24-7-9-25(10-8-24)11-12-27/h2-4-13-14-27H-1-5-12H2

>  <threshold>
-1

>  <reference>
R1|R13|R19|R6|R24|R27|R27|R27|R30|R30|

>  <group>
B

>  <Class>
1

>  <ABC>
22.88

>  <ABCGG>
17.35

>  <nAcid>
0

>  <nBase>
2

>  <nAromAtom>
11

>  <nAromBond>
11

>  <nAtom>
53

>  <nHeavyAtom>
29

>  <nSpiro>
0

>  <nBridgehead>
0

>  <nHetero>
9

>  <nN>
3

>  <nO>
1

>  <nF>
3

>  <BalabanJ>
1.32

>  <BertzCT>
834.62

>  <nBonds>
56

>  <nBondsO>
32

>  <nBondsS>
45

>  <nBondsD>
0

>  <nBondsT>
0

>  <nBondsA>
11

>  <nBondsM>
11

>  <nBondsKS>
51

>  <nBondsKD>
5

>  <RNCG>
0.18

>  <RPCG>
0.19

>  <FCSP3>
0.5

>  <SZ>
38.67

>  <Sm>
36.93

>  <Sv>
33.8

>  <Sse>
54

>  <Sp>
36.51

>  <Si>
60.55

>  <MZ>
0.73

>  <Mm>
0.7

>  <Mv>
0.64

>  <Mse>
1.02

>  <Mp>
0.69

>  <Mi>
1.14

>  <NsCH3>
0

>  <NdCH2>
0

>  <NssCH2>
9

>  <NtCH>
0

>  <NdsCH>
0

>  <NaaCH>
5

>  <NsssCH>
0

>  <NddC>
0

>  <NtsC>
0

>  <NdssC>
0

>  <NaasC>
5

>  <NaaaC>
0

>  <NssssC>
1

>  <NsNH3>
0

>  <NsNH2>
0

>  <NssNH2>
0

>  <NdNH>
0

>  <NssNH>
0

>  <NaaNH>
0

>  <NtN>
0

>  <NsssNH>
0

>  <NdsN>
0

>  <NaaN>
0

>  <NsssN>
3

>  <NddsN>
0

>  <NaasN>
0

>  <NssssN>
0

>  <NsOH>
1

>  <NdO>
0

>  <NssO>
0

>  <NaaO>
0

>  <NsF>
3

>  <NsSiH3>
0

>  <NssSiH2>
0

>  <NsssSiH>
0

>  <NssssSi>
0

>  <NsPH2>
0

>  <NssPH>
0

>  <NsssP>
0

>  <NdsssP>
0

>  <NsssssP>
0

>  <NsSH>
0

>  <NdS>
0

>  <NssS>
1

>  <NaaS>
1

>  <NdssS>
0

>  <NddssS>
0

>  <NsCl>
0

>  <NsBr>
0

>  <NsI>
0

>  <fragCpx>
212.09

>  <fMF>
0.42

>  <nHBAcc>
6

>  <nHBDon>
1

>  <Kier1>
22.2

>  <Kier2>
9.65

>  <Lipinski>
1

>  <GhoseFilter>
1

>  <FilterItLogS>
-4.87

>  <VMcGowan>
301.51

>  <LabuteASA>
176.46

>  <PEOE_VSA1>
14.91

>  <PEOE_VSA2>
4.9

>  <PEOE_VSA3>
0

>  <PEOE_VSA4>
13.17

>  <PEOE_VSA5>
11.34

>  <PEOE_VSA6>
11.76

>  <PEOE_VSA7>
42.61

>  <PEOE_VSA8>
44.16

>  <PEOE_VSA9>
27.75

>  <PEOE_VSA10>
0

>  <PEOE_VSA11>
0

>  <PEOE_VSA12>
0

>  <PEOE_VSA13>
0

>  <SMR_VSA1>
18.28

>  <SMR_VSA2>
0

>  <SMR_VSA3>
9.8

>  <SMR_VSA4>
0

>  <SMR_VSA5>
21.7

>  <SMR_VSA6>
57.32

>  <SMR_VSA7>
35.21

>  <SMR_VSA8>
0

>  <SMR_VSA9>
0

>  <SlogP_VSA1>
4.9

>  <SlogP_VSA2>
67.33

>  <SlogP_VSA3>
6.18

>  <SlogP_VSA4>
0

>  <SlogP_VSA5>
11.98

>  <SlogP_VSA6>
38.75

>  <SlogP_VSA7>
0

>  <SlogP_VSA8>
0

>  <SlogP_VSA9>
0

>  <SlogP_VSA10>
24.55

>  <SlogP_VSA11>
0

>  <EState_VSA1>
11.74

>  <EState_VSA2>
6.61

>  <EState_VSA3>
12.23

>  <EState_VSA4>
60.48

>  <EState_VSA5>
12.13

>  <EState_VSA6>
29.17

>  <EState_VSA7>
11.45

>  <EState_VSA8>
14.7

>  <EState_VSA9>
5.11

>  <EState_VSA10>
13.17

>  <VSA_EState1>
40.89

>  <VSA_EState2>
7.58

>  <VSA_EState3>
11.05

>  <VSA_EState4>
1.07

>  <VSA_EState5>
0

>  <VSA_EState6>
6.06

>  <VSA_EState7>
-3.45

>  <VSA_EState8>
6.36

>  <VSA_EState9>
0

>  <apol>
60.98

>  <bpol>
37.47

>  <nRing>
4

>  <nHRing>
3

>  <naRing>
2

>  <naHRing>
1

>  <nARing 2>
2

>  <nAHRing 2>
2

>  <nFRing>
1

>  <nFHRing>
1

>  <nFaRing>
0

>  <nFaHRing>
0

>  <nFARing 2>
1

>  <nFAHRing 2>
1

>  <nRot>
6

>  <SLogP>
4.37

>  <SMR>
111.47

>  <TopoPSA(NO)>
29.95

>  <TopoPSA>
83.49

>  <JGI1>
0.2

>  <JGI2>
0.08

>  <JGI3>
0.04

>  <JGI4>
0.04

>  <JGI5>
0.03

>  <Diameter>
15

>  <Radius>
8

>  <TMWC10>
138.35

>  <TSRW10>
78.39

>  <MW>
443.13

>  <AMW>
8.36

>  <WPath>
2413

>  <WPol>
46

>  <Zagreb1>
156

>  <Zagreb2>
184

>  <mZagreb2>
6.28

>  <yes>


>  <nAR-cont>
1

>  <nHA-cont>
0.785905698

>  <MWHBN>
0.332531249

>  <MWHBN-cont>
0.733927468

>  <TPSA-cont>
0.417187956

>  <pka_cont>
0.97

>  <yes.1>


>  <BBB_SCORE>
4.206172812

>  <MMFF94 Energy>
156.39

$$$$
Compound 1925
Actelion Java MolfileCreator 2.0

  0  0  0  0  0  0              0 V3000
M  V30 BEGIN CTAB
M  V30 COUNTS 56 59 0 0 0
M  V30 BEGIN ATOM
M  V30 1 O -0.7943 -3.8971 -4.8533 0
M  V30 2 C -2.1791 -4.1034 -4.5848 0
M  V30 3 C -2.4402 -4.2193 -3.0733 0
M  V30 4 N -2.6096 -2.923 -2.3819 0
M  V30 5 C -1.3693 -2.119 -2.4112 0
M  V30 6 C -2.9924 -3.1527 -0.9729 0
M  V30 7 C -1.4852 -0.8091 -1.5927 0
M  V30 8 C -3.13 -1.8366 -0.1769 0
M  V30 9 N -1.884 -1.0422 -0.1877 0
M  V30 10 C -2.0759 0.2149 0.5511 0
M  V30 11 C -0.7961 1.0337 0.7543 0
M  V30 12 C 0.3055 0.235 1.4623 0
M  V30 13 N 1.4936 1.0829 1.7062 0
M  V30 14 C 1.489 1.8227 2.9082 0
M  V30 15 C 2.3375 1.295 0.5936 0
M  V30 16 C 1.5787 3.2261 2.9595 0
M  V30 17 C 1.4296 1.1169 4.1299 0
M  V30 18 C 2.637 2.5697 0.077 0
M  V30 19 C 2.9384 0.1737 -0.0186 0
M  V30 20 C 1.565 4.0956 1.776 0
M  V30 21 C 1.5799 3.8749 4.2115 0
M  V30 22 C 1.4409 1.7705 5.3628 0
M  V30 23 C 2.017 3.8157 0.5474 0
M  V30 24 C 3.4992 2.6822 -1.0329 0
M  V30 25 C 3.7959 0.2994 -1.1122 0
M  V30 26 C 1.515 3.1544 5.4035 0
M  V30 27 C 4.077 1.5579 -1.6211 0
M  V30 28 H -0.7135 -3.76 -5.8123 0
M  V30 29 H -2.4704 -5.0374 -5.0766 0
M  V30 30 H -2.7592 -3.287 -5.0283 0
M  V30 31 H -3.3771 -4.7788 -2.9585 0
M  V30 32 H -1.6412 -4.8061 -2.6026 0
M  V30 33 H -1.136 -1.8301 -3.4413 0
M  V30 34 H -0.5223 -2.7036 -2.0278 0
M  V30 35 H -3.958 -3.6717 -0.9383 0
M  V30 36 H -2.2569 -3.7976 -0.4728 0
M  V30 37 H -0.5064 -0.3183 -1.628 0
M  V30 38 H -2.2046 -0.1431 -2.088 0
M  V30 39 H -3.3897 -2.0923 0.8575 0
M  V30 40 H -3.9642 -1.2524 -0.5887 0
M  V30 41 H -2.4744 -0.0172 1.5476 0
M  V30 42 H -2.8259 0.8448 0.0552 0
M  V30 43 H -1.0496 1.9176 1.3535 0
M  V30 44 H -0.4346 1.4181 -0.2061 0
M  V30 45 H -0.0948 -0.169 2.4001 0
M  V30 46 H 0.5734 -0.6453 0.8677 0
M  V30 47 H 1.4064 0.0297 4.121 0
M  V30 48 H 2.7588 -0.8204 0.3839 0
M  V30 49 H 1.1466 5.087 1.9377 0
M  V30 50 H 1.6361 4.9602 4.2659 0
M  V30 51 H 1.4025 1.1955 6.2836 0
M  V30 52 H 1.9334 4.5995 -0.2027 0
M  V30 53 H 3.7297 3.6601 -1.4505 0
M  V30 54 H 4.2462 -0.5849 -1.5538 0
M  V30 55 H 1.5263 3.6751 6.3569 0
M  V30 56 H 4.7441 1.6688 -2.4711 0
M  V30 END ATOM
M  V30 BEGIN BOND
M  V30 1 1 1 2
M  V30 2 1 2 3
M  V30 3 1 3 4
M  V30 4 1 4 5
M  V30 5 1 4 6
M  V30 6 1 5 7
M  V30 7 1 6 8
M  V30 8 1 7 9
M  V30 9 1 9 10
M  V30 10 1 10 11
M  V30 11 1 11 12
M  V30 12 1 12 13
M  V30 13 1 13 14
M  V30 14 1 13 15
M  V30 15 2 14 16
M  V30 16 1 14 17
M  V30 17 2 15 18
M  V30 18 1 15 19
M  V30 19 1 16 20
M  V30 20 1 16 21
M  V30 21 2 17 22
M  V30 22 1 18 23
M  V30 23 1 18 24
M  V30 24 2 19 25
M  V30 25 2 21 26
M  V30 26 2 24 27
M  V30 27 1 8 9
M  V30 28 2 20 23
M  V30 29 1 22 26
M  V30 30 1 25 27
M  V30 31 1 1 28
M  V30 32 1 2 29
M  V30 33 1 2 30
M  V30 34 1 3 31
M  V30 35 1 3 32
M  V30 36 1 5 33
M  V30 37 1 5 34
M  V30 38 1 6 35
M  V30 39 1 6 36
M  V30 40 1 7 37
M  V30 41 1 7 38
M  V30 42 1 8 39
M  V30 43 1 8 40
M  V30 44 1 10 41
M  V30 45 1 10 42
M  V30 46 1 11 43
M  V30 47 1 11 44
M  V30 48 1 12 45
M  V30 49 1 12 46
M  V30 50 1 17 47
M  V30 51 1 19 48
M  V30 52 1 20 49
M  V30 53 1 21 50
M  V30 54 1 22 51
M  V30 55 1 23 52
M  V30 56 1 24 53
M  V30 57 1 25 54
M  V30 58 1 26 55
M  V30 59 1 27 56
M  V30 END BOND
M  V30 END CTAB
M  END
>  <Column 1>
2348

>  <level_0>
2529

>  <index>
2529

>  <Unnamed: 0>
2529

>  <NO.>
2541

>  <Name>
opipramol

>  <IUPAC_name>
2-[4-(3-benzo[b][1]benzazepin-11-ylpropyl)piperazin-1-yl]ethanol

>  <SMILES>
OCCN1CCN(CCCN2c3ccccc3C=Cc3ccccc32)CC1

>  <CID>
9417

>  <logBB>


>  <BBB+/BBB->
BBB+

>  <Inchi>
InChI=1S/C23H29N3O/c27-19-18-25-16-14-24(15-17-25)12-5-13-26-22-8-3-1-6-20(22)10-11-21-7-2-4-9-23(21)26/h1-4-6-11-27H-5-12-19H2

>  <threshold>
-1

>  <reference>
R1|R13|R19|R6|R14|R23|R24|R27|R27|R27|R30|R30|

>  <group>
B

>  <Class>
1

>  <ABC>
21.05

>  <ABCGG>
15.42

>  <nAcid>
0

>  <nBase>
2

>  <nAromAtom>
12

>  <nAromBond>
12

>  <nAtom>
56

>  <nHeavyAtom>
27

>  <nSpiro>
0

>  <nBridgehead>
0

>  <nHetero>
4

>  <nN>
3

>  <nO>
1

>  <nF>
0

>  <BalabanJ>
1.31

>  <BertzCT>
731.2

>  <nBonds>
59

>  <nBondsO>
30

>  <nBondsS>
46

>  <nBondsD>
1

>  <nBondsT>
0

>  <nBondsA>
12

>  <nBondsM>
13

>  <nBondsKS>
52

>  <nBondsKD>
7

>  <RNCG>
0.21

>  <RPCG>
0.11

>  <FCSP3>
0.39

>  <SZ>
32.67

>  <Sm>
30.26

>  <Sv>
33.85

>  <Sse>
55.19

>  <Sp>
37.04

>  <Si>
63.1

>  <MZ>
0.58

>  <Mm>
0.54

>  <Mv>
0.6

>  <Mse>
0.99

>  <Mp>
0.66

>  <Mi>
1.13

>  <NsCH3>
0

>  <NdCH2>
0

>  <NssCH2>
9

>  <NtCH>
0

>  <NdsCH>
2

>  <NaaCH>
8

>  <NsssCH>
0

>  <NddC>
0

>  <NtsC>
0

>  <NdssC>
0

>  <NaasC>
4

>  <NaaaC>
0

>  <NssssC>
0

>  <NsNH3>
0

>  <NsNH2>
0

>  <NssNH2>
0

>  <NdNH>
0

>  <NssNH>
0

>  <NaaNH>
0

>  <NtN>
0

>  <NsssNH>
0

>  <NdsN>
0

>  <NaaN>
0

>  <NsssN>
3

>  <NddsN>
0

>  <NaasN>
0

>  <NssssN>
0

>  <NsOH>
1

>  <NdO>
0

>  <NssO>
0

>  <NaaO>
0

>  <NsF>
0

>  <NsSiH3>
0

>  <NssSiH2>
0

>  <NsssSiH>
0

>  <NssssSi>
0

>  <NsPH2>
0

>  <NssPH>
0

>  <NsssP>
0

>  <NdsssP>
0

>  <NsssssP>
0

>  <NsSH>
0

>  <NdS>
0

>  <NssS>
0

>  <NaaS>
0

>  <NdssS>
0

>  <NddssS>
0

>  <NsCl>
0

>  <NsBr>
0

>  <NsI>
0

>  <fragCpx>
198.04

>  <fMF>
0.43

>  <nHBAcc>
4

>  <nHBDon>
1

>  <Kier1>
20.28

>  <Kier2>
10.16

>  <Lipinski>
1

>  <GhoseFilter>
1

>  <FilterItLogS>
-4.3

>  <VMcGowan>
297.2

>  <LabuteASA>
161.88

>  <PEOE_VSA1>
14.91

>  <PEOE_VSA2>
4.9

>  <PEOE_VSA3>
0

>  <PEOE_VSA4>
0

>  <PEOE_VSA5>
0

>  <PEOE_VSA6>
48.55

>  <PEOE_VSA7>
36.23

>  <PEOE_VSA8>
50.64

>  <PEOE_VSA9>
6.61

>  <PEOE_VSA10>
0

>  <PEOE_VSA11>
0

>  <PEOE_VSA12>
0

>  <PEOE_VSA13>
0

>  <SMR_VSA1>
5.11

>  <SMR_VSA2>
0

>  <SMR_VSA3>
9.8

>  <SMR_VSA4>
0

>  <SMR_VSA5>
6.42

>  <SMR_VSA6>
57.32

>  <SMR_VSA7>
59.66

>  <SMR_VSA8>
0

>  <SMR_VSA9>
0

>  <SlogP_VSA1>
4.9

>  <SlogP_VSA2>
67.33

>  <SlogP_VSA3>
0

>  <SlogP_VSA4>
0

>  <SlogP_VSA5>
17.55

>  <SlogP_VSA6>
48.53

>  <SlogP_VSA7>
0

>  <SlogP_VSA8>
12.15

>  <SlogP_VSA9>
0

>  <SlogP_VSA10>
11.37

>  <SlogP_VSA11>
0

>  <EState_VSA1>
0

>  <EState_VSA2>
6.61

>  <EState_VSA3>
0

>  <EState_VSA4>
52.23

>  <EState_VSA5>
22.5

>  <EState_VSA6>
0

>  <EState_VSA7>
0

>  <EState_VSA8>
75.38

>  <EState_VSA9>
5.11

>  <EState_VSA10>
0

>  <VSA_EState1>
0

>  <VSA_EState2>
7.39

>  <VSA_EState3>
9.09

>  <VSA_EState4>
5.16

>  <VSA_EState5>
0

>  <VSA_EState6>
17.36

>  <VSA_EState7>
5.6

>  <VSA_EState8>
7.57

>  <VSA_EState9>
0

>  <apol>
61.85

>  <bpol>
34.22

>  <nRing>
4

>  <nHRing>
2

>  <naRing>
2

>  <naHRing>
0

>  <nARing 2>
2

>  <nAHRing 2>
2

>  <nFRing>
1

>  <nFHRing>
1

>  <nFaRing>
0

>  <nFaHRing>
0

>  <nFARing 2>
1

>  <nFAHRing 2>
1

>  <nRot>
6

>  <SLogP>
3.31

>  <SMR>
113.4

>  <TopoPSA(NO)>
29.95

>  <TopoPSA>
29.95

>  <JGI1>
0.12

>  <JGI2>
0.07

>  <JGI3>
0.03

>  <JGI4>
0.03

>  <JGI5>
0.02

>  <Diameter>
14

>  <Radius>
7

>  <TMWC10>
132.7

>  <TSRW10>
70.09

>  <MW>
363.23

>  <AMW>
6.49

>  <WPath>
1980

>  <WPol>
45

>  <Zagreb1>
140

>  <Zagreb2>
164

>  <mZagreb2>
6.11

>  <yes>


>  <nAR-cont>
1

>  <nHA-cont>
0.860070871

>  <MWHBN>
0.26234884

>  <MWHBN-cont>
0.936669286

>  <TPSA-cont>
0.790930402

>  <pka_cont>
0.97

>  <yes.1>


>  <BBB_SCORE>
5.331935605

>  <MMFF94 Energy>
163.77

$$$$
Compound 1926
Actelion Java MolfileCreator 2.0

  0  0  0  0  0  0              0 V3000
M  V30 BEGIN CTAB
M  V30 COUNTS 52 55 0 0 0
M  V30 BEGIN ATOM
M  V30 1 Cl -6.4342 4.8839 1.7073 0
M  V30 2 C -5.2784 3.8612 0.9605 0
M  V30 3 C -4.3067 3.2238 1.7003 0
M  V30 4 C -5.2924 3.6501 -0.4073 0
M  V30 5 N -3.3715 2.4061 1.1619 0
M  V30 6 C -4.3339 2.8089 -0.9963 0
M  V30 7 C -3.3725 2.1856 -0.1846 0
M  V30 8 S -4.4389 2.6027 -2.7542 0
M  V30 9 N -2.387 1.3251 -0.7361 0
M  V30 10 C -3.0128 1.5966 -3.107 0
M  V30 11 C -2.1569 1.0796 -2.1112 0
M  V30 12 C -1.5205 0.682 0.2774 0
M  V30 13 C -2.7796 1.3371 -4.4721 0
M  V30 14 C -1.0609 0.3143 -2.5678 0
M  V30 15 C -0.2993 1.5553 0.5932 0
M  V30 16 C -1.694 0.5717 -4.8809 0
M  V30 17 C -0.831 0.0617 -3.9257 0
M  V30 18 C 0.592 0.9317 1.6725 0
M  V30 19 N 1.1578 -0.3713 1.2872 0
M  V30 20 C 2.2377 -0.2273 0.286 0
M  V30 21 C 1.7187 -1.0532 2.4747 0
M  V30 22 C 2.887 -1.5841 -0.0713 0
M  V30 23 C 2.3722 -2.4116 2.1265 0
M  V30 24 N 3.4323 -2.2815 1.11 0
M  V30 25 C 4.0006 -3.5862 0.7143 0
M  V30 26 C 4.8155 -4.2985 1.8089 0
M  V30 27 O 6.0037 -3.5749 2.1143 0
M  V30 28 H -4.2414 3.3482 2.7772 0
M  V30 29 H -6.0462 4.1385 -1.02 0
M  V30 30 H -2.0743 0.4702 1.2025 0
M  V30 31 H -1.2199 -0.3207 -0.0459 0
M  V30 32 H -3.4503 1.7381 -5.2298 0
M  V30 33 H -0.3367 -0.1065 -1.8778 0
M  V30 34 H -0.6324 2.5362 0.9549 0
M  V30 35 H 0.2767 1.7595 -0.3155 0
M  V30 36 H -1.5241 0.3802 -5.9366 0
M  V30 37 H 0.0266 -0.5339 -4.2276 0
M  V30 38 H 1.3885 1.6378 1.9408 0
M  V30 39 H -0.0264 0.8082 2.5717 0
M  V30 40 H 1.8382 0.1993 -0.6399 0
M  V30 41 H 3.0154 0.4567 0.6518 0
M  V30 42 H 2.4618 -0.4137 2.9707 0
M  V30 43 H 0.9158 -1.2421 3.1981 0
M  V30 44 H 2.1425 -2.2128 -0.5789 0
M  V30 45 H 3.6952 -1.3925 -0.7877 0
M  V30 46 H 1.5928 -3.1048 1.7827 0
M  V30 47 H 2.7875 -2.8191 3.0543 0
M  V30 48 H 4.6808 -3.422 -0.1314 0
M  V30 49 H 3.2037 -4.2567 0.3685 0
M  V30 50 H 4.2366 -4.4399 2.726 0
M  V30 51 H 5.1162 -5.2874 1.4473 0
M  V30 52 H 6.4046 -3.9974 2.8913 0
M  V30 END ATOM
M  V30 BEGIN BOND
M  V30 1 1 1 2
M  V30 2 2 2 3
M  V30 3 1 2 4
M  V30 4 1 3 5
M  V30 5 2 4 6
M  V30 6 2 5 7
M  V30 7 1 6 8
M  V30 8 1 7 9
M  V30 9 1 8 10
M  V30 10 1 9 11
M  V30 11 1 9 12
M  V30 12 1 10 13
M  V30 13 1 11 14
M  V30 14 1 12 15
M  V30 15 2 13 16
M  V30 16 2 14 17
M  V30 17 1 15 18
M  V30 18 1 18 19
M  V30 19 1 19 20
M  V30 20 1 19 21
M  V30 21 1 20 22
M  V30 22 1 21 23
M  V30 23 1 22 24
M  V30 24 1 24 25
M  V30 25 1 25 26
M  V30 26 1 26 27
M  V30 27 1 6 7
M  V30 28 2 10 11
M  V30 29 1 16 17
M  V30 30 1 23 24
M  V30 31 1 3 28
M  V30 32 1 4 29
M  V30 33 1 12 30
M  V30 34 1 12 31
M  V30 35 1 13 32
M  V30 36 1 14 33
M  V30 37 1 15 34
M  V30 38 1 15 35
M  V30 39 1 16 36
M  V30 40 1 17 37
M  V30 41 1 18 38
M  V30 42 1 18 39
M  V30 43 1 20 40
M  V30 44 1 20 41
M  V30 45 1 21 42
M  V30 46 1 21 43
M  V30 47 1 22 44
M  V30 48 1 22 45
M  V30 49 1 23 46
M  V30 50 1 23 47
M  V30 51 1 25 48
M  V30 52 1 25 49
M  V30 53 1 26 50
M  V30 54 1 26 51
M  V30 55 1 27 52
M  V30 END BOND
M  V30 END CTAB
M  END
>  <Column 1>
2349

>  <level_0>
2530

>  <index>
2530

>  <Unnamed: 0>
2530

>  <NO.>
2542

>  <Name>
cloxypendyl

>  <IUPAC_name>
2-[4-[3-(3-chloropyrido[3-2-b][1-4]benzothiazin-10-yl)propyl]piperazin-1-yl]ethanol

>  <SMILES>
OCCN1CCN(CCCN2c3ccccc3Sc3cc(Cl)cnc32)CC1

>  <CID>
65615

>  <logBB>


>  <BBB+/BBB->
BBB+

>  <Inchi>
InChI=1S/C20H25ClN4OS/c21-16-14-19-20(22-15-16)25(17-4-1-2-5-18(17)27-19)7-3-6-23-8-10-24(11-9-23)12-13-26/h1-2-4-5-14-15-26H-3-6-13H2

>  <threshold>
-1

>  <reference>
R1|R13|R19|R6|R24|R27|R27|R27|R30|R30|

>  <group>
B

>  <Class>
1

>  <ABC>
21.16

>  <ABCGG>
15.18

>  <nAcid>
0

>  <nBase>
2

>  <nAromAtom>
12

>  <nAromBond>
12

>  <nAtom>
52

>  <nHeavyAtom>
27

>  <nSpiro>
0

>  <nBridgehead>
0

>  <nHetero>
7

>  <nN>
4

>  <nO>
1

>  <nF>
0

>  <BalabanJ>
1.29

>  <BertzCT>
782.33

>  <nBonds>
55

>  <nBondsO>
30

>  <nBondsS>
43

>  <nBondsD>
0

>  <nBondsT>
0

>  <nBondsA>
12

>  <nBondsM>
12

>  <nBondsKS>
49

>  <nBondsKD>
6

>  <RNCG>
0.2

>  <RPCG>
0.11

>  <FCSP3>
0.45

>  <SZ>
35.67

>  <Sm>
33.72

>  <Sv>
32.8

>  <Sse>
51.92

>  <Sp>
36.14

>  <Si>
58.64

>  <MZ>
0.69

>  <Mm>
0.65

>  <Mv>
0.63

>  <Mse>
1

>  <Mp>
0.69

>  <Mi>
1.13

>  <NsCH3>
0

>  <NdCH2>
0

>  <NssCH2>
9

>  <NtCH>
0

>  <NdsCH>
0

>  <NaaCH>
6

>  <NsssCH>
0

>  <NddC>
0

>  <NtsC>
0

>  <NdssC>
0

>  <NaasC>
5

>  <NaaaC>
0

>  <NssssC>
0

>  <NsNH3>
0

>  <NsNH2>
0

>  <NssNH2>
0

>  <NdNH>
0

>  <NssNH>
0

>  <NaaNH>
0

>  <NtN>
0

>  <NsssNH>
0

>  <NdsN>
0

>  <NaaN>
1

>  <NsssN>
3

>  <NddsN>
0

>  <NaasN>
0

>  <NssssN>
0

>  <NsOH>
1

>  <NdO>
0

>  <NssO>
0

>  <NaaO>
0

>  <NsF>
0

>  <NsSiH3>
0

>  <NssSiH2>
0

>  <NsssSiH>
0

>  <NssssSi>
0

>  <NsPH2>
0

>  <NssPH>
0

>  <NsssP>
0

>  <NdsssP>
0

>  <NsssssP>
0

>  <NsSH>
0

>  <NdS>
0

>  <NssS>
1

>  <NaaS>
0

>  <NdssS>
0

>  <NddssS>
0

>  <NsCl>
1

>  <NsBr>
0

>  <NsI>
0

>  <fragCpx>
198.07

>  <fMF>
0.44

>  <nHBAcc>
6

>  <nHBDon>
1

>  <Kier1>
20.28

>  <Kier2>
9.67

>  <Lipinski>
1

>  <GhoseFilter>
1

>  <FilterItLogS>
-4.84

>  <VMcGowan>
297.8

>  <LabuteASA>
169.48

>  <PEOE_VSA1>
14.91

>  <PEOE_VSA2>
4.9

>  <PEOE_VSA3>
4.98

>  <PEOE_VSA4>
0

>  <PEOE_VSA5>
0

>  <PEOE_VSA6>
35.5

>  <PEOE_VSA7>
31.16

>  <PEOE_VSA8>
50.36

>  <PEOE_VSA9>
22.21

>  <PEOE_VSA10>
5.82

>  <PEOE_VSA11>
0

>  <PEOE_VSA12>
0

>  <PEOE_VSA13>
0

>  <SMR_VSA1>
5.11

>  <SMR_VSA2>
0

>  <SMR_VSA3>
14.78

>  <SMR_VSA4>
0

>  <SMR_VSA5>
16.21

>  <SMR_VSA6>
57.32

>  <SMR_VSA7>
41.55

>  <SMR_VSA8>
0

>  <SMR_VSA9>
0

>  <SlogP_VSA1>
4.9

>  <SlogP_VSA2>
72.31

>  <SlogP_VSA3>
0

>  <SlogP_VSA4>
0

>  <SlogP_VSA5>
6.42

>  <SlogP_VSA6>
46.32

>  <SlogP_VSA7>
5.02

>  <SlogP_VSA8>
0

>  <SlogP_VSA9>
0

>  <SlogP_VSA10>
11.51

>  <SlogP_VSA11>
0

>  <EState_VSA1>
0

>  <EState_VSA2>
6.61

>  <EState_VSA3>
5.02

>  <EState_VSA4>
62.95

>  <EState_VSA5>
10.58

>  <EState_VSA6>
17.96

>  <EState_VSA7>
6.07

>  <EState_VSA8>
43.95

>  <EState_VSA9>
16.71

>  <EState_VSA10>
0

>  <VSA_EState1>
0

>  <VSA_EState2>
14.19

>  <VSA_EState3>
9.75

>  <VSA_EState4>
1.23

>  <VSA_EState5>
1.01

>  <VSA_EState6>
10.52

>  <VSA_EState7>
2.82

>  <VSA_EState8>
7.33

>  <VSA_EState9>
0

>  <apol>
60.35

>  <bpol>
34.32

>  <nRing>
4

>  <nHRing>
3

>  <naRing>
2

>  <naHRing>
1

>  <nARing 2>
2

>  <nAHRing 2>
2

>  <nFRing>
1

>  <nFHRing>
1

>  <nFaRing>
0

>  <nFaHRing>
0

>  <nFARing 2>
1

>  <nFAHRing 2>
1

>  <nRot>
6

>  <SLogP>
3.34

>  <SMR>
111.4

>  <TopoPSA(NO)>
42.84

>  <TopoPSA>
68.14

>  <JGI1>
0.15

>  <JGI2>
0.07

>  <JGI3>
0.03

>  <JGI4>
0.04

>  <JGI5>
0.02

>  <Diameter>
15

>  <Radius>
8

>  <TMWC10>
133.17

>  <TSRW10>
62.26

>  <MW>
404.14

>  <AMW>
7.77

>  <WPath>
2012

>  <WPol>
43

>  <Zagreb1>
142

>  <Zagreb2>
167

>  <mZagreb2>
6.03

>  <yes>


>  <nAR-cont>
1

>  <nHA-cont>
0.860070871

>  <MWHBN>
0.34820269

>  <MWHBN-cont>
0.676955975

>  <TPSA-cont>
0.524340488

>  <pka_cont>
0.97

>  <yes.1>


>  <BBB_SCORE>
4.409185808

>  <MMFF94 Energy>
142.13

$$$$
Compound 1927
Actelion Java MolfileCreator 2.0

  0  0  0  0  0  0              0 V3000
M  V30 BEGIN CTAB
M  V30 COUNTS 53 56 0 0 0
M  V30 BEGIN ATOM
M  V30 1 F 7.3723 -1.1315 0.3231 0
M  V30 2 C 6.0908 -1.1582 -0.0652 0
M  V30 3 C 5.7561 -0.7511 -1.3492 0
M  V30 4 C 5.1145 -1.5896 0.8223 0
M  V30 5 C 4.4201 -0.7782 -1.7534 0
M  V30 6 C 3.7773 -1.617 0.4195 0
M  V30 7 C 3.4102 -1.2178 -0.8772 0
M  V30 8 C 1.9718 -1.2037 -1.3629 0 CFG=1
M  V30 9 C 1.0268 -2.167 -0.6874 0
M  V30 10 C 1.2661 0.1452 -1.0825 0
M  V30 11 C 0.1847 -1.5029 0.2155 0
M  V30 12 C 0.9535 -3.5407 -0.8563 0
M  V30 13 C 0.5101 -0.0277 0.2573 0 CFG=2
M  V30 14 C -0.7285 -2.2099 0.9855 0
M  V30 15 C 0.0199 -4.2547 -0.1008 0
M  V30 16 N -0.6282 0.8551 0.5294 0
M  V30 17 C -0.8305 -3.6009 0.8186 0
M  V30 18 C -1.689 0.8565 -0.4947 0
M  V30 19 C -0.1942 2.2433 0.7702 0
M  V30 20 C -1.809 -4.394 1.65 0
M  V30 21 C -2.878 1.7674 -0.0993 0
M  V30 22 C -1.3768 3.1563 1.1661 0
M  V30 23 F -1.2884 -4.76 2.854 0
M  V30 24 F -2.9544 -3.7111 1.9293 0
M  V30 25 F -2.2073 -5.5514 1.0498 0
M  V30 26 N -2.4561 3.1624 0.1555 0
M  V30 27 C -3.5814 3.9972 0.63 0
M  V30 28 C -4.7026 4.1994 -0.4033 0
M  V30 29 O -5.6268 3.1146 -0.3785 0
M  V30 30 H 6.5346 -0.4146 -2.026 0
M  V30 31 H 5.3974 -1.9019 1.8224 0
M  V30 32 H 4.1696 -0.4522 -2.7611 0
M  V30 33 H 3.0303 -1.9571 1.1338 0
M  V30 34 H 1.9562 -1.402 -2.4427 0
M  V30 35 H 0.5642 0.3223 -1.9067 0
M  V30 36 H 1.9503 1.0008 -1.0605 0
M  V30 37 H 1.6116 -4.0547 -1.5506 0
M  V30 38 H 1.2306 0.0856 1.08 0
M  V30 39 H -1.356 -1.6852 1.7035 0
M  V30 40 H -0.0434 -5.3356 -0.2233 0
M  V30 41 H -1.3074 1.2046 -1.4618 0
M  V30 42 H -2.0817 -0.155 -0.6434 0
M  V30 43 H 0.2976 2.6577 -0.1192 0
M  V30 44 H 0.5356 2.2664 1.5884 0
M  V30 45 H -3.3762 1.3451 0.7836 0
M  V30 46 H -3.5901 1.739 -0.9306 0
M  V30 47 H -0.9909 4.1753 1.2917 0
M  V30 48 H -1.765 2.8319 2.1415 0
M  V30 49 H -3.1803 4.9931 0.8566 0
M  V30 50 H -4.0012 3.5875 1.5577 0
M  V30 51 H -5.2614 5.109 -0.1594 0
M  V30 52 H -4.2979 4.3065 -1.4153 0
M  V30 53 H -6.2698 3.2786 -1.089 0
M  V30 END ATOM
M  V30 BEGIN BOND
M  V30 1 1 1 2
M  V30 2 2 2 3
M  V30 3 1 2 4
M  V30 4 1 3 5
M  V30 5 2 4 6
M  V30 6 2 5 7
M  V30 7 1 7 8
M  V30 8 1 8 9
M  V30 9 1 8 10
M  V30 10 2 9 11
M  V30 11 1 9 12
M  V30 12 1 10 13
M  V30 13 1 11 14
M  V30 14 2 12 15
M  V30 15 1 13 16
M  V30 16 2 14 17
M  V30 17 1 16 18
M  V30 18 1 16 19
M  V30 19 1 17 20
M  V30 20 1 18 21
M  V30 21 1 19 22
M  V30 22 1 20 23
M  V30 23 1 20 24
M  V30 24 1 20 25
M  V30 25 1 21 26
M  V30 26 1 26 27
M  V30 27 1 27 28
M  V30 28 1 28 29
M  V30 29 1 6 7
M  V30 30 1 11 13
M  V30 31 1 15 17
M  V30 32 1 22 26
M  V30 33 1 3 30
M  V30 34 1 4 31
M  V30 35 1 5 32
M  V30 36 1 6 33
M  V30 37 1 8 34
M  V30 38 1 10 35
M  V30 39 1 10 36
M  V30 40 1 12 37
M  V30 41 1 13 38
M  V30 42 1 14 39
M  V30 43 1 15 40
M  V30 44 1 18 41
M  V30 45 1 18 42
M  V30 46 1 19 43
M  V30 47 1 19 44
M  V30 48 1 21 45
M  V30 49 1 21 46
M  V30 50 1 22 47
M  V30 51 1 22 48
M  V30 52 1 27 49
M  V30 53 1 27 50
M  V30 54 1 28 51
M  V30 55 1 28 52
M  V30 56 1 29 53
M  V30 END BOND
M  V30 BEGIN COLLECTION
M  V30 MDLV30/STEABS ATOMS=(2 8 13)
M  V30 END COLLECTION
M  V30 END CTAB
M  END
>  <Column 1>
2350

>  <level_0>
2531

>  <index>
2531

>  <Unnamed: 0>
2531

>  <NO.>
2543

>  <Name>
tefludazine

>  <IUPAC_name>
2-[4-[(1r-3s)-3-(4-fluorophenyl)-6-(trifluoromethyl)-2-3-dihydro-1h-inden-1-yl]piperazin-1-yl]ethanol

>  <SMILES>
OCCN1CCN([C@@H]2C[C@@H](c3ccc(F)cc3)c3ccc(C(F)(F)F)cc32)CC1

>  <CID>
71240

>  <logBB>


>  <BBB+/BBB->
BBB+

>  <Inchi>
InChI=1S/C22H24F4N2O/c23-17-4-1-15(2-5-17)19-14-21(28-9-7-27(8-10-28)11-12-29)20-13-16(22(24-25)26)3-6-18(19)20/h1-6-13-19-21-29H-7-12-14H2/t19--21+/m0/s1

>  <threshold>
-1

>  <reference>
R1|R6|R27|R30|

>  <group>
B

>  <Class>
1

>  <ABC>
22.95

>  <ABCGG>
17.38

>  <nAcid>
0

>  <nBase>
2

>  <nAromAtom>
12

>  <nAromBond>
12

>  <nAtom>
53

>  <nHeavyAtom>
29

>  <nSpiro>
0

>  <nBridgehead>
0

>  <nHetero>
7

>  <nN>
2

>  <nO>
1

>  <nF>
4

>  <BalabanJ>
1.47

>  <BertzCT>
844.88

>  <nBonds>
56

>  <nBondsO>
32

>  <nBondsS>
44

>  <nBondsD>
0

>  <nBondsT>
0

>  <nBondsA>
12

>  <nBondsM>
12

>  <nBondsKS>
50

>  <nBondsKD>
6

>  <RNCG>
0.19

>  <RPCG>
0.2

>  <FCSP3>
0.45

>  <SZ>
35.67

>  <Sm>
34.01

>  <Sv>
33.32

>  <Sse>
54.14

>  <Sp>
34.71

>  <Si>
60.96

>  <MZ>
0.67

>  <Mm>
0.64

>  <Mv>
0.63

>  <Mse>
1.02

>  <Mp>
0.65

>  <Mi>
1.15

>  <NsCH3>
0

>  <NdCH2>
0

>  <NssCH2>
7

>  <NtCH>
0

>  <NdsCH>
0

>  <NaaCH>
7

>  <NsssCH>
2

>  <NddC>
0

>  <NtsC>
0

>  <NdssC>
0

>  <NaasC>
5

>  <NaaaC>
0

>  <NssssC>
1

>  <NsNH3>
0

>  <NsNH2>
0

>  <NssNH2>
0

>  <NdNH>
0

>  <NssNH>
0

>  <NaaNH>
0

>  <NtN>
0

>  <NsssNH>
0

>  <NdsN>
0

>  <NaaN>
0

>  <NsssN>
2

>  <NddsN>
0

>  <NaasN>
0

>  <NssssN>
0

>  <NsOH>
1

>  <NdO>
0

>  <NssO>
0

>  <NaaO>
0

>  <NsF>
4

>  <NsSiH3>
0

>  <NssSiH2>
0

>  <NsssSiH>
0

>  <NssssSi>
0

>  <NsPH2>
0

>  <NssPH>
0

>  <NsssP>
0

>  <NdsssP>
0

>  <NsssssP>
0

>  <NsSH>
0

>  <NdS>
0

>  <NssS>
0

>  <NaaS>
0

>  <NdssS>
0

>  <NddssS>
0

>  <NsCl>
0

>  <NsBr>
0

>  <NsI>
0

>  <fragCpx>
212.07

>  <fMF>
0.4

>  <nHBAcc>
3

>  <nHBDon>
1

>  <Kier1>
22.2

>  <Kier2>
9.24

>  <Lipinski>
1

>  <GhoseFilter>
1

>  <FilterItLogS>
-5.32

>  <VMcGowan>
284.47

>  <LabuteASA>
167.1

>  <PEOE_VSA1>
5.11

>  <PEOE_VSA2>
9.8

>  <PEOE_VSA3>
4.39

>  <PEOE_VSA4>
13.17

>  <PEOE_VSA5>
0

>  <PEOE_VSA6>
18.2

>  <PEOE_VSA7>
47.38

>  <PEOE_VSA8>
44.68

>  <PEOE_VSA9>
12.17

>  <PEOE_VSA10>
5.82

>  <PEOE_VSA11>
0

>  <PEOE_VSA12>
0

>  <PEOE_VSA13>
0

>  <SMR_VSA1>
22.67

>  <SMR_VSA2>
0

>  <SMR_VSA3>
9.8

>  <SMR_VSA4>
0

>  <SMR_VSA5>
24.56

>  <SMR_VSA6>
39.33

>  <SMR_VSA7>
70.54

>  <SMR_VSA8>
0

>  <SMR_VSA9>
0

>  <SlogP_VSA1>
0

>  <SlogP_VSA2>
54.24

>  <SlogP_VSA3>
6.18

>  <SlogP_VSA4>
5.82

>  <SlogP_VSA5>
40.63

>  <SlogP_VSA6>
42.46

>  <SlogP_VSA7>
0

>  <SlogP_VSA8>
0

>  <SlogP_VSA9>
0

>  <SlogP_VSA10>
17.56

>  <SlogP_VSA11>
0

>  <EState_VSA1>
11.74

>  <EState_VSA2>
24.38

>  <EState_VSA3>
12.97

>  <EState_VSA4>
48.94

>  <EState_VSA5>
18.2

>  <EState_VSA6>
18.2

>  <EState_VSA7>
0

>  <EState_VSA8>
9.8

>  <EState_VSA9>
5.11

>  <EState_VSA10>
17.56

>  <VSA_EState1>
53.39

>  <VSA_EState2>
4.41

>  <VSA_EState3>
9.12

>  <VSA_EState4>
1.92

>  <VSA_EState5>
-0.37

>  <VSA_EState6>
10.19

>  <VSA_EState7>
-3.7

>  <VSA_EState8>
3.78

>  <VSA_EState9>
0

>  <apol>
57.97

>  <bpol>
31.95

>  <nRing>
4

>  <nHRing>
1

>  <naRing>
2

>  <naHRing>
0

>  <nARing 2>
2

>  <nAHRing 2>
1

>  <nFRing>
1

>  <nFHRing>
0

>  <nFaRing>
0

>  <nFaHRing>
0

>  <nFARing 2>
1

>  <nFAHRing 2>
0

>  <nRot>
4

>  <SLogP>
4.03

>  <SMR>
102.14

>  <TopoPSA(NO)>
26.71

>  <TopoPSA>
26.71

>  <JGI1>
0.22

>  <JGI2>
0.09

>  <JGI3>
0.04

>  <JGI4>
0.04

>  <JGI5>
0.03

>  <Diameter>
14

>  <Radius>
7

>  <TMWC10>
138.93

>  <TSRW10>
79.22

>  <MW>
408.18

>  <AMW>
7.7

>  <WPath>
2213

>  <WPol>
48

>  <Zagreb1>
158

>  <Zagreb2>
188

>  <mZagreb2>
6.22

>  <yes>


>  <nAR-cont>
1

>  <nHA-cont>
0.785905698

>  <MWHBN>
0.19798584

>  <MWHBN-cont>
0.999168146

>  <TPSA-cont>
0.813547614

>  <pka_cont>
0.97

>  <yes.1>


>  <BBB_SCORE>
5.396753146

>  <MMFF94 Energy>
165.21

$$$$
Compound 1928
Actelion Java MolfileCreator 2.0

  0  0  0  0  0  0              0 V3000
M  V30 BEGIN CTAB
M  V30 COUNTS 60 62 0 0 0
M  V30 BEGIN ATOM
M  V30 1 Cl -6.2329 -3.6722 -2.873 0
M  V30 2 C -5.018 -3.2407 -1.7335 0
M  V30 3 C -5.0004 -1.9582 -1.1926 0
M  V30 4 C -4.0586 -4.1778 -1.3578 0
M  V30 5 C -4.0133 -1.6096 -0.2681 0
M  V30 6 C -3.0704 -3.8291 -0.4335 0
M  V30 7 C -3.0293 -2.5371 0.1198 0
M  V30 8 C -1.9475 -2.1813 1.1518 0 CFG=1
M  V30 9 N -1.2973 -0.86 0.9018 0
M  V30 10 C -2.5318 -2.3251 2.564 0
M  V30 11 C -0.6923 -0.8015 -0.4524 0
M  V30 12 C -0.2365 -0.5808 1.9023 0
M  V30 13 C -2.287 -3.4925 3.3075 0
M  V30 14 C -3.3411 -1.3272 3.1347 0
M  V30 15 C 0.0727 0.5178 -0.7131 0
M  V30 16 C 0.5341 0.7316 1.619 0
M  V30 17 C -2.8256 -3.6499 4.5862 0
M  V30 18 C -3.8779 -1.4865 4.4133 0
M  V30 19 N 1.1256 0.8204 0.2705 0
M  V30 20 C -3.6196 -2.6471 5.1384 0
M  V30 21 C 2.325 -0.0312 0.1493 0
M  V30 22 C 3.1241 0.1184 -1.1612 0
M  V30 23 O 3.6294 1.4465 -1.2932 0
M  V30 24 C 4.4076 1.6051 -2.4843 0
M  V30 25 C 4.7964 3.0744 -2.6504 0
M  V30 26 O 3.6728 3.8013 -3.1606 0
M  V30 27 C 3.9641 5.1726 -3.4487 0
M  V30 28 C 4.1628 6.0156 -2.1884 0
M  V30 29 O 5.521 5.9483 -1.7522 0
M  V30 30 H -5.7489 -1.226 -1.4822 0
M  V30 31 H -4.0767 -5.1804 -1.7758 0
M  V30 32 H -4.0054 -0.6034 0.146 0
M  V30 33 H -2.3346 -4.5756 -0.1434 0
M  V30 34 H -1.1519 -2.9355 1.055 0
M  V30 35 H -1.4703 -0.8676 -1.2202 0
M  V30 36 H -0.0152 -1.6512 -0.608 0
M  V30 37 H 0.4745 -1.4157 1.9486 0
M  V30 38 H -0.6721 -0.4756 2.9015 0
M  V30 39 H -1.6765 -4.2911 2.8932 0
M  V30 40 H -3.547 -0.4123 2.5836 0
M  V30 41 H 0.4708 0.517 -1.7328 0
M  V30 42 H -0.651 1.3444 -0.6968 0
M  V30 43 H 1.307 0.8757 2.3841 0
M  V30 44 H -0.1578 1.5757 1.7433 0
M  V30 45 H -2.6289 -4.5576 5.1506 0
M  V30 46 H -4.4986 -0.7038 4.8414 0
M  V30 47 H -4.0399 -2.7712 6.1328 0
M  V30 48 H 2.0742 -1.0898 0.28 0
M  V30 49 H 3.0097 0.2397 0.9635 0
M  V30 50 H 3.9716 -0.5768 -1.13 0
M  V30 51 H 2.5121 -0.1397 -2.0313 0
M  V30 52 H 3.8268 1.2673 -3.35 0
M  V30 53 H 5.3121 0.9954 -2.3861 0
M  V30 54 H 5.0961 3.4837 -1.6816 0
M  V30 55 H 5.6222 3.1539 -3.3652 0
M  V30 56 H 3.0898 5.5527 -3.9871 0
M  V30 57 H 4.8279 5.2325 -4.12 0
M  V30 58 H 3.9469 7.0664 -2.4032 0
M  V30 59 H 3.5182 5.6666 -1.3757 0
M  V30 60 H 5.5524 6.3757 -0.8787 0
M  V30 END ATOM
M  V30 BEGIN BOND
M  V30 1 1 1 2
M  V30 2 2 2 3
M  V30 3 1 2 4
M  V30 4 1 3 5
M  V30 5 2 4 6
M  V30 6 2 5 7
M  V30 7 1 7 8
M  V30 8 1 8 9
M  V30 9 1 8 10
M  V30 10 1 9 11
M  V30 11 1 9 12
M  V30 12 2 10 13
M  V30 13 1 10 14
M  V30 14 1 11 15
M  V30 15 1 12 16
M  V30 16 1 13 17
M  V30 17 2 14 18
M  V30 18 1 15 19
M  V30 19 2 17 20
M  V30 20 1 19 21
M  V30 21 1 21 22
M  V30 22 1 22 23
M  V30 23 1 23 24
M  V30 24 1 24 25
M  V30 25 1 25 26
M  V30 26 1 26 27
M  V30 27 1 27 28
M  V30 28 1 28 29
M  V30 29 1 6 7
M  V30 30 1 16 19
M  V30 31 1 18 20
M  V30 32 1 3 30
M  V30 33 1 4 31
M  V30 34 1 5 32
M  V30 35 1 6 33
M  V30 36 1 8 34
M  V30 37 1 11 35
M  V30 38 1 11 36
M  V30 39 1 12 37
M  V30 40 1 12 38
M  V30 41 1 13 39
M  V30 42 1 14 40
M  V30 43 1 15 41
M  V30 44 1 15 42
M  V30 45 1 16 43
M  V30 46 1 16 44
M  V30 47 1 17 45
M  V30 48 1 18 46
M  V30 49 1 20 47
M  V30 50 1 21 48
M  V30 51 1 21 49
M  V30 52 1 22 50
M  V30 53 1 22 51
M  V30 54 1 24 52
M  V30 55 1 24 53
M  V30 56 1 25 54
M  V30 57 1 25 55
M  V30 58 1 27 56
M  V30 59 1 27 57
M  V30 60 1 28 58
M  V30 61 1 28 59
M  V30 62 1 29 60
M  V30 END BOND
M  V30 BEGIN COLLECTION
M  V30 MDLV30/STERAC1 ATOMS=(1 8)
M  V30 END COLLECTION
M  V30 END CTAB
M  END
>  <Column 1>
2352

>  <level_0>
2533

>  <index>
2533

>  <Unnamed: 0>
2533

>  <NO.>
2545

>  <Name>
etodroxizine

>  <IUPAC_name>
(e)-but-2-enedioic acid;2-[2-[2-[4-[(4-chlorophenyl)-phenylmethyl]piperazin-1-yl]ethoxy]ethoxy]ethanol

>  <SMILES>
OCCOCCOCCN1CCN(C(c2ccccc2)c2ccc(Cl)cc2)CC1

>  <CID>
63345

>  <logBB>


>  <BBB+/BBB->
BBB+

>  <Inchi>
InChI=1S/C23H31ClN2O3/c24-22-8-6-21(7-9-22)23(20-4-2-1-3-5-20)26-12-10-25(11-13-26)14-16-28-18-19-29-17-15-27/h1-9-23-27H-10-19H2

>  <threshold>
-1

>  <reference>
R1|R19|R6|R27|R27|R30|

>  <group>
B

>  <Class>
1

>  <ABC>
21.91

>  <ABCGG>
15.95

>  <nAcid>
0

>  <nBase>
2

>  <nAromAtom>
12

>  <nAromBond>
12

>  <nAtom>
60

>  <nHeavyAtom>
29

>  <nSpiro>
0

>  <nBridgehead>
0

>  <nHetero>
6

>  <nN>
2

>  <nO>
3

>  <nF>
0

>  <BalabanJ>
1.41

>  <BertzCT>
691.03

>  <nBonds>
62

>  <nBondsO>
31

>  <nBondsS>
50

>  <nBondsD>
0

>  <nBondsT>
0

>  <nBondsA>
12

>  <nBondsM>
12

>  <nBondsKS>
56

>  <nBondsKD>
6

>  <RNCG>
0.17

>  <RPCG>
0.09

>  <FCSP3>
0.48

>  <SZ>
37.33

>  <Sm>
34.88

>  <Sv>
36.15

>  <Sse>
59.85

>  <Sp>
39.44

>  <Si>
67.8

>  <MZ>
0.62

>  <Mm>
0.58

>  <Mv>
0.6

>  <Mse>
1

>  <Mp>
0.66

>  <Mi>
1.13

>  <NsCH3>
0

>  <NdCH2>
0

>  <NssCH2>
10

>  <NtCH>
0

>  <NdsCH>
0

>  <NaaCH>
9

>  <NsssCH>
1

>  <NddC>
0

>  <NtsC>
0

>  <NdssC>
0

>  <NaasC>
3

>  <NaaaC>
0

>  <NssssC>
0

>  <NsNH3>
0

>  <NsNH2>
0

>  <NssNH2>
0

>  <NdNH>
0

>  <NssNH>
0

>  <NaaNH>
0

>  <NtN>
0

>  <NsssNH>
0

>  <NdsN>
0

>  <NaaN>
0

>  <NsssN>
2

>  <NddsN>
0

>  <NaasN>
0

>  <NssssN>
0

>  <NsOH>
1

>  <NdO>
0

>  <NssO>
2

>  <NaaO>
0

>  <NsF>
0

>  <NsSiH3>
0

>  <NssSiH2>
0

>  <NsssSiH>
0

>  <NssssSi>
0

>  <NsPH2>
0

>  <NssPH>
0

>  <NsssP>
0

>  <NdsssP>
0

>  <NsssssP>
0

>  <NsSH>
0

>  <NdS>
0

>  <NssS>
0

>  <NaaS>
0

>  <NdssS>
0

>  <NddssS>
0

>  <NsCl>
1

>  <NsBr>
0

>  <NsI>
0

>  <fragCpx>
149.06

>  <fMF>
0.32

>  <nHBAcc>
5

>  <nHBDon>
1

>  <Kier1>
23.66

>  <Kier2>
13.42

>  <Lipinski>
1

>  <GhoseFilter>
1

>  <FilterItLogS>
-5.24

>  <VMcGowan>
326.36

>  <LabuteASA>
178.34

>  <PEOE_VSA1>
14.58

>  <PEOE_VSA2>
9.8

>  <PEOE_VSA3>
0

>  <PEOE_VSA4>
0

>  <PEOE_VSA5>
0

>  <PEOE_VSA6>
54.07

>  <PEOE_VSA7>
23.26

>  <PEOE_VSA8>
37.75

>  <PEOE_VSA9>
39.08

>  <PEOE_VSA10>
0

>  <PEOE_VSA11>
0

>  <PEOE_VSA12>
0

>  <PEOE_VSA13>
0

>  <SMR_VSA1>
14.58

>  <SMR_VSA2>
0

>  <SMR_VSA3>
9.8

>  <SMR_VSA4>
0

>  <SMR_VSA5>
6.04

>  <SMR_VSA6>
65.76

>  <SMR_VSA7>
70.75

>  <SMR_VSA8>
0

>  <SMR_VSA9>
0

>  <SlogP_VSA1>
0

>  <SlogP_VSA2>
80.66

>  <SlogP_VSA3>
9.47

>  <SlogP_VSA4>
0

>  <SlogP_VSA5>
17.17

>  <SlogP_VSA6>
54.6

>  <SlogP_VSA7>
5.02

>  <SlogP_VSA8>
0

>  <SlogP_VSA9>
0

>  <SlogP_VSA10>
0

>  <SlogP_VSA11>
0

>  <EState_VSA1>
0

>  <EState_VSA2>
12.65

>  <EState_VSA3>
26.43

>  <EState_VSA4>
37.75

>  <EState_VSA5>
11.13

>  <EState_VSA6>
0

>  <EState_VSA7>
12.13

>  <EState_VSA8>
52.26

>  <EState_VSA9>
26.18

>  <EState_VSA10>
0

>  <VSA_EState1>
10.84

>  <VSA_EState2>
5.01

>  <VSA_EState3>
9.45

>  <VSA_EState4>
2.59

>  <VSA_EState5>
0

>  <VSA_EState6>
19.17

>  <VSA_EState7>
0

>  <VSA_EState8>
7.28

>  <VSA_EState9>
0

>  <apol>
65.87

>  <bpol>
38.5

>  <nRing>
3

>  <nHRing>
1

>  <naRing>
2

>  <naHRing>
0

>  <nARing 2>
1

>  <nAHRing 2>
1

>  <nFRing>
0

>  <nFHRing>
0

>  <nFaRing>
0

>  <nFaHRing>
0

>  <nFARing 2>
0

>  <nFAHRing 2>
0

>  <nRot>
11

>  <SLogP>
3.07

>  <SMR>
116.47

>  <TopoPSA(NO)>
45.17

>  <TopoPSA>
45.17

>  <JGI1>
0.11

>  <JGI2>
0.06

>  <JGI3>
0.04

>  <JGI4>
0.03

>  <JGI5>
0.01

>  <Diameter>
18

>  <Radius>
9

>  <TMWC10>
134.75

>  <TSRW10>
63.75

>  <MW>
418.2

>  <AMW>
6.97

>  <WPath>
2696

>  <WPol>
40

>  <Zagreb1>
140

>  <Zagreb2>
158

>  <mZagreb2>
6.75

>  <yes>


>  <nAR-cont>
0.816016

>  <nHA-cont>
0.785905698

>  <MWHBN>
0.29339941

>  <MWHBN-cont>
0.86000072

>  <TPSA-cont>
0.684685351

>  <pka_cont>
0.97

>  <yes.1>


>  <BBB_SCORE>
4.746293481

>  <MMFF94 Energy>
186.3

$$$$
Compound 1929
Actelion Java MolfileCreator 2.0

  0  0  0  0  0  0              0 V3000
M  V30 BEGIN CTAB
M  V30 COUNTS 16 16 0 0 0
M  V30 BEGIN ATOM
M  V30 1 O -2.4911 -0.9336 -0.7779 0
M  V30 2 C -1.7192 0.2522 -0.9191 0
M  V30 3 C -0.3944 0.1293 -0.2133 0
M  V30 4 C 0.2377 1.2767 0.2894 0
M  V30 5 C 0.2631 -1.1037 -0.0989 0
M  V30 6 C 1.485 1.188 0.9116 0
M  V30 7 C 1.5099 -1.1921 0.5234 0
M  V30 8 C 2.1198 -0.0464 1.0297 0
M  V30 9 H -3.3365 -0.7689 -1.2268 0
M  V30 10 H -2.3002 1.0795 -0.4977 0
M  V30 11 H -1.5499 0.4373 -1.9848 0
M  V30 12 H -0.2397 2.25 0.2017 0
M  V30 13 H -0.2016 -2.0061 -0.4912 0
M  V30 14 H 1.9616 2.0829 1.303 0
M  V30 15 H 2.0027 -2.1565 0.612 0
M  V30 16 H 3.0897 -0.1161 1.5147 0
M  V30 END ATOM
M  V30 BEGIN BOND
M  V30 1 1 1 2
M  V30 2 1 2 3
M  V30 3 2 3 4
M  V30 4 1 3 5
M  V30 5 1 4 6
M  V30 6 2 5 7
M  V30 7 2 6 8
M  V30 8 1 7 8
M  V30 9 1 1 9
M  V30 10 1 2 10
M  V30 11 1 2 11
M  V30 12 1 4 12
M  V30 13 1 5 13
M  V30 14 1 6 14
M  V30 15 1 7 15
M  V30 16 1 8 16
M  V30 END BOND
M  V30 END CTAB
M  END
>  <Column 1>
2355

>  <level_0>
2536

>  <index>
2536

>  <Unnamed: 0>
2536

>  <NO.>
2548

>  <Name>
benzyl alcohol

>  <IUPAC_name>
phenylmethanol

>  <SMILES>
OCc1ccccc1

>  <CID>
244

>  <logBB>


>  <BBB+/BBB->
BBB+

>  <Inchi>
InChI=1S/C7H8O/c8-6-7-4-2-1-3-5-7/h1-5-8H-6H2

>  <threshold>
-1

>  <reference>
R1|R13|R19|R6|R24|R27|R27|R27|R30|R30|

>  <group>
B

>  <Class>
1

>  <ABC>
5.66

>  <ABCGG>
5.43

>  <nAcid>
0

>  <nBase>
0

>  <nAromAtom>
6

>  <nAromBond>
6

>  <nAtom>
16

>  <nHeavyAtom>
8

>  <nSpiro>
0

>  <nBridgehead>
0

>  <nHetero>
1

>  <nN>
0

>  <nO>
1

>  <nF>
0

>  <BalabanJ>
2.13

>  <BertzCT>
145.73

>  <nBonds>
16

>  <nBondsO>
8

>  <nBondsS>
10

>  <nBondsD>
0

>  <nBondsT>
0

>  <nBondsA>
6

>  <nBondsM>
6

>  <nBondsKS>
13

>  <nBondsKD>
3

>  <RNCG>
0.55

>  <RPCG>
0.29

>  <FCSP3>
0.14

>  <SZ>
9.67

>  <Sm>
9

>  <Sv>
9.88

>  <Sse>
15.88

>  <Sp>
10.67

>  <Si>
17.87

>  <MZ>
0.6

>  <Mm>
0.56

>  <Mv>
0.62

>  <Mse>
0.99

>  <Mp>
0.67

>  <Mi>
1.12

>  <NsCH3>
0

>  <NdCH2>
0

>  <NssCH2>
1

>  <NtCH>
0

>  <NdsCH>
0

>  <NaaCH>
5

>  <NsssCH>
0

>  <NddC>
0

>  <NtsC>
0

>  <NdssC>
0

>  <NaasC>
1

>  <NaaaC>
0

>  <NssssC>
0

>  <NsNH3>
0

>  <NsNH2>
0

>  <NssNH2>
0

>  <NdNH>
0

>  <NssNH>
0

>  <NaaNH>
0

>  <NtN>
0

>  <NsssNH>
0

>  <NdsN>
0

>  <NaaN>
0

>  <NsssN>
0

>  <NddsN>
0

>  <NaasN>
0

>  <NssssN>
0

>  <NsOH>
1

>  <NdO>
0

>  <NssO>
0

>  <NaaO>
0

>  <NsF>
0

>  <NsSiH3>
0

>  <NssSiH2>
0

>  <NsssSiH>
0

>  <NssssSi>
0

>  <NsPH2>
0

>  <NssPH>
0

>  <NsssP>
0

>  <NdsssP>
0

>  <NsssssP>
0

>  <NsSH>
0

>  <NdS>
0

>  <NssS>
0

>  <NaaS>
0

>  <NdssS>
0

>  <NddssS>
0

>  <NsCl>
0

>  <NsBr>
0

>  <NsI>
0

>  <fragCpx>
8.01

>  <fMF>
0.38

>  <nHBAcc>
1

>  <nHBDon>
1

>  <Kier1>
6.13

>  <Kier2>
3.11

>  <Lipinski>
1

>  <GhoseFilter>
0

>  <FilterItLogS>
-1.4

>  <VMcGowan>
91.6

>  <LabuteASA>
48.59

>  <PEOE_VSA1>
5.11

>  <PEOE_VSA2>
0

>  <PEOE_VSA3>
0

>  <PEOE_VSA4>
0

>  <PEOE_VSA5>
0

>  <PEOE_VSA6>
30.33

>  <PEOE_VSA7>
5.56

>  <PEOE_VSA8>
0

>  <PEOE_VSA9>
6.61

>  <PEOE_VSA10>
0

>  <PEOE_VSA11>
0

>  <PEOE_VSA12>
0

>  <PEOE_VSA13>
0

>  <SMR_VSA1>
5.11

>  <SMR_VSA2>
0

>  <SMR_VSA3>
0

>  <SMR_VSA4>
0

>  <SMR_VSA5>
6.61

>  <SMR_VSA6>
0

>  <SMR_VSA7>
35.9

>  <SMR_VSA8>
0

>  <SMR_VSA9>
0

>  <SlogP_VSA1>
0

>  <SlogP_VSA2>
5.11

>  <SlogP_VSA3>
6.61

>  <SlogP_VSA4>
0

>  <SlogP_VSA5>
5.56

>  <SlogP_VSA6>
30.33

>  <SlogP_VSA7>
0

>  <SlogP_VSA8>
0

>  <SlogP_VSA9>
0

>  <SlogP_VSA10>
0

>  <SlogP_VSA11>
0

>  <EState_VSA1>
0

>  <EState_VSA2>
6.61

>  <EState_VSA3>
0

>  <EState_VSA4>
5.56

>  <EState_VSA5>
0

>  <EState_VSA6>
0

>  <EState_VSA7>
30.33

>  <EState_VSA8>
0

>  <EState_VSA9>
5.11

>  <EState_VSA10>
0

>  <VSA_EState1>
0

>  <VSA_EState2>
0

>  <VSA_EState3>
8.54

>  <VSA_EState4>
0.97

>  <VSA_EState5>
0

>  <VSA_EState6>
9.52

>  <VSA_EState7>
0

>  <VSA_EState8>
0.14

>  <VSA_EState9>
0

>  <apol>
17.83

>  <bpol>
8.03

>  <nRing>
1

>  <nHRing>
0

>  <naRing>
1

>  <naHRing>
0

>  <nARing 2>
0

>  <nAHRing 2>
0

>  <nFRing>
0

>  <nFHRing>
0

>  <nFaRing>
0

>  <nFaHRing>
0

>  <nFARing 2>
0

>  <nFAHRing 2>
0

>  <nRot>
1

>  <SLogP>
1.18

>  <SMR>
32.36

>  <TopoPSA(NO)>
20.23

>  <TopoPSA>
20.23

>  <JGI1>
0.13

>  <JGI2>
0.05

>  <JGI3>
0.03

>  <JGI4>
0.05

>  <JGI5>
0.06

>  <Diameter>
5

>  <Radius>
3

>  <TMWC10>
75.04

>  <TSRW10>
35.25

>  <MW>
108.06

>  <AMW>
6.75

>  <WPath>
64

>  <WPol>
7

>  <Zagreb1>
34

>  <Zagreb2>
36

>  <mZagreb2>
2

>  <yes>


>  <nAR-cont>
0.336376

>  <nHA-cont>
0.464727961

>  <MWHBN>
0.192396654

>  <MWHBN-cont>
0.996995653

>  <TPSA-cont>
0.858782038

>  <pka_cont>
0.97

>  <yes.1>


>  <BBB_SCORE>
4.499161517

>  <MMFF94 Energy>
19.915

$$$$
Compound 1930
Actelion Java MolfileCreator 2.0

  0  0  0  0  0  0              0 V3000
M  V30 BEGIN CTAB
M  V30 COUNTS 15 15 0 0 0
M  V30 BEGIN ATOM
M  V30 1 O -1.0132 -1.6371 1.7151 0
M  V30 2 C -0.3925 -1.7118 0.4378 0
M  V30 3 C 0.0401 -0.3576 -0.0409 0
M  V30 4 C 1.0114 -0.2483 -1.0328 0
M  V30 5 C -0.5293 0.8315 0.4218 0
M  V30 6 N 1.444 0.9219 -1.5562 0
M  V30 7 C -0.1037 2.0529 -0.0934 0
M  V30 8 C 0.8769 2.0465 -1.0704 0
M  V30 9 H -1.243 -2.5468 1.9679 0
M  V30 10 H -1.1076 -2.141 -0.2714 0
M  V30 11 H 0.4732 -2.3765 0.5265 0
M  V30 12 H 1.4884 -1.1297 -1.4536 0
M  V30 13 H -1.3013 0.8097 1.1877 0
M  V30 14 H -0.5288 2.9856 0.2594 0
M  V30 15 H 1.2419 2.9736 -1.5025 0
M  V30 END ATOM
M  V30 BEGIN BOND
M  V30 1 1 1 2
M  V30 2 1 2 3
M  V30 3 2 3 4
M  V30 4 1 3 5
M  V30 5 1 4 6
M  V30 6 2 5 7
M  V30 7 2 6 8
M  V30 8 1 7 8
M  V30 9 1 1 9
M  V30 10 1 2 10
M  V30 11 1 2 11
M  V30 12 1 4 12
M  V30 13 1 5 13
M  V30 14 1 7 14
M  V30 15 1 8 15
M  V30 END BOND
M  V30 END CTAB
M  END
>  <Column 1>
2357

>  <level_0>
2538

>  <index>
2538

>  <Unnamed: 0>
2538

>  <NO.>
2550

>  <Name>
nicotinyl alcohol

>  <IUPAC_name>
pyridin-3-ylmethanol

>  <SMILES>
OCc1cccnc1

>  <CID>
7510

>  <logBB>


>  <BBB+/BBB->
BBB-

>  <Inchi>
InChI=1S/C6H7NO/c8-5-6-2-1-3-7-4-6/h1-4-8H-5H2

>  <threshold>
-1

>  <reference>
R1|R13|R27|R30|

>  <group>
B

>  <Class>
1

>  <ABC>
5.66

>  <ABCGG>
5.43

>  <nAcid>
0

>  <nBase>
0

>  <nAromAtom>
6

>  <nAromBond>
6

>  <nAtom>
15

>  <nHeavyAtom>
8

>  <nSpiro>
0

>  <nBridgehead>
0

>  <nHetero>
2

>  <nN>
1

>  <nO>
1

>  <nF>
0

>  <BalabanJ>
2.13

>  <BertzCT>
149.87

>  <nBonds>
15

>  <nBondsO>
8

>  <nBondsS>
9

>  <nBondsD>
0

>  <nBondsT>
0

>  <nBondsA>
6

>  <nBondsM>
6

>  <nBondsKS>
12

>  <nBondsKD>
3

>  <RNCG>
0.52

>  <RPCG>
0.28

>  <FCSP3>
0.17

>  <SZ>
9.67

>  <Sm>
9.09

>  <Sv>
9.37

>  <Sse>
15.1

>  <Sp>
9.93

>  <Si>
16.95

>  <MZ>
0.64

>  <Mm>
0.61

>  <Mv>
0.62

>  <Mse>
1.01

>  <Mp>
0.66

>  <Mi>
1.13

>  <NsCH3>
0

>  <NdCH2>
0

>  <NssCH2>
1

>  <NtCH>
0

>  <NdsCH>
0

>  <NaaCH>
4

>  <NsssCH>
0

>  <NddC>
0

>  <NtsC>
0

>  <NdssC>
0

>  <NaasC>
1

>  <NaaaC>
0

>  <NssssC>
0

>  <NsNH3>
0

>  <NsNH2>
0

>  <NssNH2>
0

>  <NdNH>
0

>  <NssNH>
0

>  <NaaNH>
0

>  <NtN>
0

>  <NsssNH>
0

>  <NdsN>
0

>  <NaaN>
1

>  <NsssN>
0

>  <NddsN>
0

>  <NaasN>
0

>  <NssssN>
0

>  <NsOH>
1

>  <NdO>
0

>  <NssO>
0

>  <NaaO>
0

>  <NsF>
0

>  <NsSiH3>
0

>  <NssSiH2>
0

>  <NsssSiH>
0

>  <NssssSi>
0

>  <NsPH2>
0

>  <NssPH>
0

>  <NsssP>
0

>  <NdsssP>
0

>  <NsssssP>
0

>  <NsSH>
0

>  <NdS>
0

>  <NssS>
0

>  <NaaS>
0

>  <NdssS>
0

>  <NddssS>
0

>  <NsCl>
0

>  <NsBr>
0

>  <NsI>
0

>  <fragCpx>
8.02

>  <fMF>
0.4

>  <nHBAcc>
2

>  <nHBDon>
1

>  <Kier1>
6.13

>  <Kier2>
3.11

>  <Lipinski>
1

>  <GhoseFilter>
0

>  <FilterItLogS>
-1.18

>  <VMcGowan>
87.49

>  <LabuteASA>
47.81

>  <PEOE_VSA1>
5.11

>  <PEOE_VSA2>
4.98

>  <PEOE_VSA3>
0

>  <PEOE_VSA4>
0

>  <PEOE_VSA5>
0

>  <PEOE_VSA6>
6.07

>  <PEOE_VSA7>
11.63

>  <PEOE_VSA8>
12.39

>  <PEOE_VSA9>
6.61

>  <PEOE_VSA10>
0

>  <PEOE_VSA11>
0

>  <PEOE_VSA12>
0

>  <PEOE_VSA13>
0

>  <SMR_VSA1>
5.11

>  <SMR_VSA2>
0

>  <SMR_VSA3>
4.98

>  <SMR_VSA4>
0

>  <SMR_VSA5>
6.61

>  <SMR_VSA6>
0

>  <SMR_VSA7>
30.09

>  <SMR_VSA8>
0

>  <SMR_VSA9>
0

>  <SlogP_VSA1>
0

>  <SlogP_VSA2>
10.09

>  <SlogP_VSA3>
6.61

>  <SlogP_VSA4>
0

>  <SlogP_VSA5>
5.56

>  <SlogP_VSA6>
24.53

>  <SlogP_VSA7>
0

>  <SlogP_VSA8>
0

>  <SlogP_VSA9>
0

>  <SlogP_VSA10>
0

>  <SlogP_VSA11>
0

>  <EState_VSA1>
0

>  <EState_VSA2>
6.61

>  <EState_VSA3>
0

>  <EState_VSA4>
5.56

>  <EState_VSA5>
0

>  <EState_VSA6>
18.46

>  <EState_VSA7>
6.07

>  <EState_VSA8>
4.98

>  <EState_VSA9>
5.11

>  <EState_VSA10>
0

>  <VSA_EState1>
0

>  <VSA_EState2>
3.8

>  <VSA_EState3>
8.5

>  <VSA_EState4>
0.85

>  <VSA_EState5>
0

>  <VSA_EState6>
3.62

>  <VSA_EState7>
3.32

>  <VSA_EState8>
0.08

>  <VSA_EState9>
0

>  <apol>
16.59

>  <bpol>
8.16

>  <nRing>
1

>  <nHRing>
1

>  <naRing>
1

>  <naHRing>
1

>  <nARing 2>
0

>  <nAHRing 2>
0

>  <nFRing>
0

>  <nFHRing>
0

>  <nFaRing>
0

>  <nFaHRing>
0

>  <nFARing 2>
0

>  <nFAHRing 2>
0

>  <nRot>
1

>  <SLogP>
0.57

>  <SMR>
30.16

>  <TopoPSA(NO)>
33.12

>  <TopoPSA>
33.12

>  <JGI1>
0.13

>  <JGI2>
0.05

>  <JGI3>
0.03

>  <JGI4>
0.05

>  <JGI5>
0.06

>  <Diameter>
5

>  <Radius>
3

>  <TMWC10>
75.04

>  <TSRW10>
35.25

>  <MW>
109.05

>  <AMW>
7.27

>  <WPath>
64

>  <WPol>
7

>  <Zagreb1>
34

>  <Zagreb2>
36

>  <mZagreb2>
2

>  <yes>


>  <nAR-cont>
0.336376

>  <nHA-cont>
0.464727961

>  <MWHBN>
0.287282003

>  <MWHBN-cont>
0.87699649

>  <TPSA-cont>
0.768801834

>  <pka_cont>
0.97

>  <yes.1>


>  <BBB_SCORE>
4.139202364

>  <MMFF94 Energy>
16.49

$$$$
Compound 1931
Actelion Java MolfileCreator 2.0

  0  0  0  0  0  0              0 V3000
M  V30 BEGIN CTAB
M  V30 COUNTS 42 45 0 0 0
M  V30 BEGIN ATOM
M  V30 1 Cl -0.7281 -4.6183 0.89 0
M  V30 2 C -0.6557 -3.2014 -0.0891 0
M  V30 3 C 0.1505 -2.183 0.2372 0
M  V30 4 C -1.46 -3.1619 -1.2797 0
M  V30 5 C 0.2539 -0.9687 -0.5894 0
M  V30 6 C -1.5663 -2.0485 -2.0135 0
M  V30 7 C 1.2873 -0.0878 -0.4772 0
M  V30 8 C -0.8569 -0.7892 -1.624 0
M  V30 9 N 1.5381 1.0674 -1.2207 0
M  V30 10 C 2.3167 -0.3481 0.57 0
M  V30 11 N -1.3253 0.2799 -2.1877 0
M  V30 12 O 2.809 1.6596 -1.2119 0
M  V30 13 C 0.6779 1.6672 -2.2341 0
M  V30 14 C 3.4465 -1.1268 0.2848 0
M  V30 15 C 2.1609 0.1984 1.853 0
M  V30 16 C -0.7709 1.4779 -1.8467 0
M  V30 17 C 4.4015 -1.3652 1.2741 0
M  V30 18 C 3.1179 -0.0429 2.8394 0
M  V30 19 N -1.4164 2.4077 -1.2342 0
M  V30 20 C 4.2355 -0.8255 2.5498 0
M  V30 21 C -2.8102 2.1904 -0.8699 0
M  V30 22 C -2.8724 2.0711 0.6221 0
M  V30 23 C -4.0833 1.4707 1.2892 0
M  V30 24 C -2.777 0.7258 1.2959 0
M  V30 25 H 0.7607 -2.2686 1.1311 0
M  V30 26 H -2.0063 -4.0555 -1.5662 0
M  V30 27 H -2.2104 -1.9988 -2.8842 0
M  V30 28 H 2.8797 2.0309 -0.3114 0
M  V30 29 H 0.8814 2.7407 -2.3221 0
M  V30 30 H 0.8648 1.2011 -3.2076 0
M  V30 31 H 3.5878 -1.5388 -0.7114 0
M  V30 32 H 1.2925 0.8116 2.0848 0
M  V30 33 H 5.2773 -1.9679 1.048 0
M  V30 34 H 2.9929 0.3797 3.8331 0
M  V30 35 H 4.9816 -1.0117 3.3184 0
M  V30 36 H -3.2821 1.3332 -1.3624 0
M  V30 37 H -3.3855 3.0713 -1.1766 0
M  V30 38 H -2.4084 2.9204 1.1122 0
M  V30 39 H -4.8826 1.0867 0.6658 0
M  V30 40 H -4.4201 1.9146 2.219 0
M  V30 41 H -2.7054 -0.1623 0.6806 0
M  V30 42 H -2.2258 0.6682 2.227 0
M  V30 END ATOM
M  V30 BEGIN BOND
M  V30 1 1 1 2
M  V30 2 2 2 3
M  V30 3 1 2 4
M  V30 4 1 3 5
M  V30 5 2 4 6
M  V30 6 2 5 7
M  V30 7 1 5 8
M  V30 8 1 7 9
M  V30 9 1 7 10
M  V30 10 2 8 11
M  V30 11 1 9 12
M  V30 12 1 9 13
M  V30 13 2 10 14
M  V30 14 1 10 15
M  V30 15 1 11 16
M  V30 16 1 14 17
M  V30 17 2 15 18
M  V30 18 2 16 19
M  V30 19 2 17 20
M  V30 20 1 19 21
M  V30 21 1 21 22
M  V30 22 1 22 23
M  V30 23 1 22 24
M  V30 24 1 6 8
M  V30 25 1 13 16
M  V30 26 1 18 20
M  V30 27 1 23 24
M  V30 28 1 3 25
M  V30 29 1 4 26
M  V30 30 1 6 27
M  V30 31 1 12 28
M  V30 32 1 13 29
M  V30 33 1 13 30
M  V30 34 1 14 31
M  V30 35 1 15 32
M  V30 36 1 17 33
M  V30 37 1 18 34
M  V30 38 1 20 35
M  V30 39 1 21 36
M  V30 40 1 21 37
M  V30 41 1 22 38
M  V30 42 1 23 39
M  V30 43 1 23 40
M  V30 44 1 24 41
M  V30 45 1 24 42
M  V30 END BOND
M  V30 END CTAB
M  END
>  <Column 1>
2358

>  <level_0>
2539

>  <index>
2539

>  <Unnamed: 0>
2539

>  <NO.>
2551

>  <Name>
cyprazepam

>  <IUPAC_name>
7-chloro-n-(cyclopropylmethyl)-4-hydroxy-5-phenyl-3h-1-4-benzodiazepin-2-imine

>  <SMILES>
ON1CC(=NCC2CC2)N=c2ccc(Cl)cc2=C1c1ccccc1

>  <CID>
27452

>  <logBB>


>  <BBB+/BBB->
BBB+

>  <Inchi>
InChI=1S/C19H18ClN3O/c20-15-8-9-17-16(10-15)19(14-4-2-1-3-5-14)23(24)12-18(22-17)21-11-13-6-7-13/h1-5-8-10-13-24H-6-7-11-12H2

>  <threshold>
-1

>  <reference>
R1|R6|R27|R30|R30|

>  <group>
B

>  <Class>
1

>  <ABC>
19.15

>  <ABCGG>
14.99

>  <nAcid>
0

>  <nBase>
2

>  <nAromAtom>
12

>  <nAromBond>
12

>  <nAtom>
42

>  <nHeavyAtom>
24

>  <nSpiro>
0

>  <nBridgehead>
0

>  <nHetero>
5

>  <nN>
3

>  <nO>
1

>  <nF>
0

>  <BalabanJ>
1.49

>  <BertzCT>
903.95

>  <nBonds>
45

>  <nBondsO>
27

>  <nBondsS>
30

>  <nBondsD>
3

>  <nBondsT>
0

>  <nBondsA>
12

>  <nBondsM>
15

>  <nBondsKS>
37

>  <nBondsKD>
8

>  <RNCG>
0.18

>  <RPCG>
0.15

>  <FCSP3>
0.26

>  <SZ>
29.67

>  <Sm>
28.29

>  <Sv>
27.96

>  <Sse>
42.08

>  <Sp>
29.95

>  <Si>
46.97

>  <MZ>
0.71

>  <Mm>
0.67

>  <Mv>
0.67

>  <Mse>
1

>  <Mp>
0.71

>  <Mi>
1.12

>  <NsCH3>
0

>  <NdCH2>
0

>  <NssCH2>
4

>  <NtCH>
0

>  <NdsCH>
0

>  <NaaCH>
8

>  <NsssCH>
1

>  <NddC>
0

>  <NtsC>
0

>  <NdssC>
2

>  <NaasC>
2

>  <NaaaC>
0

>  <NssssC>
0

>  <NsNH3>
0

>  <NsNH2>
0

>  <NssNH2>
0

>  <NdNH>
0

>  <NssNH>
0

>  <NaaNH>
0

>  <NtN>
0

>  <NsssNH>
0

>  <NdsN>
2

>  <NaaN>
0

>  <NsssN>
1

>  <NddsN>
0

>  <NaasN>
0

>  <NssssN>
0

>  <NsOH>
1

>  <NdO>
0

>  <NssO>
0

>  <NaaO>
0

>  <NsF>
0

>  <NsSiH3>
0

>  <NssSiH2>
0

>  <NsssSiH>
0

>  <NssssSi>
0

>  <NsPH2>
0

>  <NssPH>
0

>  <NsssP>
0

>  <NdsssP>
0

>  <NsssssP>
0

>  <NsSH>
0

>  <NdS>
0

>  <NssS>
0

>  <NaaS>
0

>  <NdssS>
0

>  <NddssS>
0

>  <NsCl>
1

>  <NsBr>
0

>  <NsI>
0

>  <fragCpx>
177.05

>  <fMF>
0.52

>  <nHBAcc>
3

>  <nHBDon>
1

>  <Kier1>
17.42

>  <Kier2>
7.71

>  <Lipinski>
1

>  <GhoseFilter>
1

>  <FilterItLogS>
-4.95

>  <VMcGowan>
248.78

>  <LabuteASA>
144.94

>  <PEOE_VSA1>
0

>  <PEOE_VSA2>
10.2

>  <PEOE_VSA3>
10.06

>  <PEOE_VSA4>
0

>  <PEOE_VSA5>
0

>  <PEOE_VSA6>
41.93

>  <PEOE_VSA7>
36.96

>  <PEOE_VSA8>
22.35

>  <PEOE_VSA9>
11.05

>  <PEOE_VSA10>
12.38

>  <PEOE_VSA11>
0

>  <PEOE_VSA12>
0

>  <PEOE_VSA13>
0

>  <SMR_VSA1>
5.21

>  <SMR_VSA2>
0

>  <SMR_VSA3>
5.06

>  <SMR_VSA4>
15.9

>  <SMR_VSA5>
12.84

>  <SMR_VSA6>
13.09

>  <SMR_VSA7>
69.69

>  <SMR_VSA8>
0

>  <SMR_VSA9>
0

>  <SlogP_VSA1>
10.58

>  <SlogP_VSA2>
29.2

>  <SlogP_VSA3>
0

>  <SlogP_VSA4>
5.92

>  <SlogP_VSA5>
18.41

>  <SlogP_VSA6>
58.52

>  <SlogP_VSA7>
5.02

>  <SlogP_VSA8>
5.7

>  <SlogP_VSA9>
0

>  <SlogP_VSA10>
0

>  <SlogP_VSA11>
0

>  <EState_VSA1>
0

>  <EState_VSA2>
6.54

>  <EState_VSA3>
22.47

>  <EState_VSA4>
22.68

>  <EState_VSA5>
17.9

>  <EState_VSA6>
0

>  <EState_VSA7>
48.53

>  <EState_VSA8>
9.98

>  <EState_VSA9>
11.6

>  <EState_VSA10>
5.21

>  <VSA_EState1>
0

>  <VSA_EState2>
9.28

>  <VSA_EState3>
14.14

>  <VSA_EState4>
1.62

>  <VSA_EState5>
1.34

>  <VSA_EState6>
15.33

>  <VSA_EState7>
2.49

>  <VSA_EState8>
1.06

>  <VSA_EState9>
0

>  <apol>
50.01

>  <bpol>
21.42

>  <nRing>
4

>  <nHRing>
1

>  <naRing>
2

>  <naHRing>
0

>  <nARing 2>
2

>  <nAHRing 2>
1

>  <nFRing>
1

>  <nFHRing>
1

>  <nFaRing>
0

>  <nFaHRing>
0

>  <nFARing 2>
1

>  <nFAHRing 2>
1

>  <nRot>
3

>  <SLogP>
2.63

>  <SMR>
94.7

>  <TopoPSA(NO)>
48.19

>  <TopoPSA>
48.19

>  <JGI1>
0.17

>  <JGI2>
0.07

>  <JGI3>
0.05

>  <JGI4>
0.04

>  <JGI5>
0.02

>  <Diameter>
11

>  <Radius>
6

>  <TMWC10>
126.62

>  <TSRW10>
77.13

>  <MW>
339.11

>  <AMW>
8.07

>  <WPath>
1263

>  <WPol>
40

>  <Zagreb1>
130

>  <Zagreb2>
154

>  <mZagreb2>
5.19

>  <yes>


>  <nAR-cont>
1

>  <nHA-cont>
0.94700071

>  <MWHBN>
0.21721494

>  <MWHBN-cont>
0.996569055

>  <TPSA-cont>
0.663603876

>  <pka_cont>
0.97

>  <yes.1>


>  <BBB_SCORE>
5.254062044

>  <MMFF94 Energy>
127.88

$$$$
Compound 1932
Actelion Java MolfileCreator 2.0

  0  0  0  0  0  0              0 V3000
M  V30 BEGIN CTAB
M  V30 COUNTS 52 55 0 0 0
M  V30 BEGIN ATOM
M  V30 1 O 2.5405 5.2452 -1.8254 0
M  V30 2 C 3.1571 4.2072 -1.1862 0
M  V30 3 C 2.6559 3.7057 0.0169 0
M  V30 4 C 4.2933 3.6738 -1.7788 0
M  V30 5 C 3.3239 2.6276 0.6371 0
M  V30 6 C 4.9719 2.6072 -1.1838 0
M  V30 7 C 4.4624 2.1062 0.0206 0
M  V30 8 C 3.0996 1.8724 1.8351 0
M  V30 9 N 4.9159 1.078 0.8125 0
M  V30 10 C 4.1063 0.9286 1.9052 0
M  V30 11 C 1.9983 2.0621 2.8311 0
M  V30 12 C 0.8259 1.0946 2.6418 0
M  V30 13 C 0.0044 1.3887 1.381 0
M  V30 14 C -1.1998 0.4427 1.2719 0
M  V30 15 N -2.0643 0.7875 0.1307 0
M  V30 16 C -1.5011 0.3586 -1.1616 0
M  V30 17 C -3.417 0.22 0.2834 0
M  V30 18 C -1.7297 -1.0863 -1.5177 0
M  V30 19 C -3.4616 -1.3183 0.2345 0
M  V30 20 C -2.6212 -1.8767 -0.8895 0
M  V30 21 C -2.8062 -3.2932 -1.2669 0
M  V30 22 C -2.8849 -3.6764 -2.6145 0
M  V30 23 C -2.9365 -4.286 -0.2853 0
M  V30 24 C -3.0773 -5.0141 -2.9704 0
M  V30 25 C -3.1278 -5.6245 -0.6403 0
M  V30 26 C -3.1976 -5.988 -1.9826 0
M  V30 27 H 1.7562 5.4974 -1.3108 0
M  V30 28 H 1.7669 4.1233 0.4754 0
M  V30 29 H 4.6565 4.0894 -2.715 0
M  V30 30 H 5.8592 2.1876 -1.6455 0
M  V30 31 H 5.7313 0.517 0.6099 0
M  V30 32 H 4.3126 0.1634 2.6418 0
M  V30 33 H 1.637 3.0971 2.8045 0
M  V30 34 H 2.4131 1.9125 3.8365 0
M  V30 35 H 0.1708 1.1761 3.5182 0
M  V30 36 H 1.19 0.0602 2.6119 0
M  V30 37 H -0.3462 2.428 1.41 0
M  V30 38 H 0.6453 1.2852 0.5007 0
M  V30 39 H -0.8566 -0.5981 1.2279 0
M  V30 40 H -1.7761 0.5457 2.2008 0
M  V30 41 H -0.4288 0.5719 -1.2162 0
M  V30 42 H -1.9559 0.9697 -1.9519 0
M  V30 43 H -3.8712 0.5712 1.2184 0
M  V30 44 H -4.055 0.6243 -0.5146 0
M  V30 45 H -1.117 -1.4698 -2.329 0
M  V30 46 H -4.5069 -1.6285 0.1142 0
M  V30 47 H -3.108 -1.7206 1.1916 0
M  V30 48 H -2.8117 -2.9319 -3.404 0
M  V30 49 H -2.8744 -4.0331 0.7698 0
M  V30 50 H -3.1371 -5.2922 -4.0192 0
M  V30 51 H -3.2201 -6.3821 0.1334 0
M  V30 52 H -3.3469 -7.0283 -2.2586 0
M  V30 END ATOM
M  V30 BEGIN BOND
M  V30 1 1 1 2
M  V30 2 2 2 3
M  V30 3 1 2 4
M  V30 4 1 3 5
M  V30 5 2 4 6
M  V30 6 2 5 7
M  V30 7 1 5 8
M  V30 8 1 7 9
M  V30 9 2 8 10
M  V30 10 1 8 11
M  V30 11 1 11 12
M  V30 12 1 12 13
M  V30 13 1 13 14
M  V30 14 1 14 15
M  V30 15 1 15 16
M  V30 16 1 15 17
M  V30 17 1 16 18
M  V30 18 1 17 19
M  V30 19 2 18 20
M  V30 20 1 20 21
M  V30 21 2 21 22
M  V30 22 1 21 23
M  V30 23 1 22 24
M  V30 24 2 23 25
M  V30 25 2 24 26
M  V30 26 1 6 7
M  V30 27 1 9 10
M  V30 28 1 19 20
M  V30 29 1 25 26
M  V30 30 1 1 27
M  V30 31 1 3 28
M  V30 32 1 4 29
M  V30 33 1 6 30
M  V30 34 1 9 31
M  V30 35 1 10 32
M  V30 36 1 11 33
M  V30 37 1 11 34
M  V30 38 1 12 35
M  V30 39 1 12 36
M  V30 40 1 13 37
M  V30 41 1 13 38
M  V30 42 1 14 39
M  V30 43 1 14 40
M  V30 44 1 16 41
M  V30 45 1 16 42
M  V30 46 1 17 43
M  V30 47 1 17 44
M  V30 48 1 18 45
M  V30 49 1 19 46
M  V30 50 1 19 47
M  V30 51 1 22 48
M  V30 52 1 23 49
M  V30 53 1 24 50
M  V30 54 1 25 51
M  V30 55 1 26 52
M  V30 END BOND
M  V30 END CTAB
M  END
>  <Column 1>
2359

>  <level_0>
2540

>  <index>
2540

>  <Unnamed: 0>
2540

>  <NO.>
2552

>  <Name>
roxindole mesylate

>  <IUPAC_name>
methanesulfonic acid;3-[4-(4-phenyl-3-6-dihydro-2h-pyridin-1-yl)butyl]-1h-indol-5-ol

>  <SMILES>
Oc1ccc2[nH]cc(CCCCN3CC=C(c4ccccc4)CC3)c2c1

>  <CID>
219050

>  <logBB>


>  <BBB+/BBB->
BBB+

>  <Inchi>
InChI=1S/C23H26N2O/c26-21-9-10-23-22(16-21)20(17-24-23)8-4-5-13-25-14-11-19(12-15-25)18-6-2-1-3-7-18/h1-3-6-7-9-11-16-17-24-26H-4-5-8-12-15H2

>  <threshold>
-1

>  <reference>
R1|R7|R13|R19|R28|R9|R24|R27|R27|R29|R30|R36|

>  <group>
B

>  <Class>
1

>  <ABC>
20.49

>  <ABCGG>
14.75

>  <nAcid>
0

>  <nBase>
1

>  <nAromAtom>
15

>  <nAromBond>
16

>  <nAtom>
52

>  <nHeavyAtom>
26

>  <nSpiro>
0

>  <nBridgehead>
0

>  <nHetero>
3

>  <nN>
2

>  <nO>
1

>  <nF>
0

>  <BalabanJ>
1.1

>  <BertzCT>
894.97

>  <nBonds>
55

>  <nBondsO>
29

>  <nBondsS>
38

>  <nBondsD>
1

>  <nBondsT>
0

>  <nBondsA>
16

>  <nBondsM>
17

>  <nBondsKS>
47

>  <nBondsKD>
8

>  <RNCG>
0.28

>  <RPCG>
0.16

>  <FCSP3>
0.3

>  <SZ>
31

>  <Sm>
28.85

>  <Sv>
32.27

>  <Sse>
51.2

>  <Sp>
35.18

>  <Si>
58.19

>  <MZ>
0.6

>  <Mm>
0.55

>  <Mv>
0.62

>  <Mse>
0.98

>  <Mp>
0.68

>  <Mi>
1.12

>  <NsCH3>
0

>  <NdCH2>
0

>  <NssCH2>
7

>  <NtCH>
0

>  <NdsCH>
1

>  <NaaCH>
9

>  <NsssCH>
0

>  <NddC>
0

>  <NtsC>
0

>  <NdssC>
1

>  <NaasC>
3

>  <NaaaC>
2

>  <NssssC>
0

>  <NsNH3>
0

>  <NsNH2>
0

>  <NssNH2>
0

>  <NdNH>
0

>  <NssNH>
0

>  <NaaNH>
1

>  <NtN>
0

>  <NsssNH>
0

>  <NdsN>
0

>  <NaaN>
0

>  <NsssN>
1

>  <NddsN>
0

>  <NaasN>
0

>  <NssssN>
0

>  <NsOH>
1

>  <NdO>
0

>  <NssO>
0

>  <NaaO>
0

>  <NsF>
0

>  <NsSiH3>
0

>  <NssSiH2>
0

>  <NsssSiH>
0

>  <NssssSi>
0

>  <NsPH2>
0

>  <NssPH>
0

>  <NsssP>
0

>  <NdsssP>
0

>  <NsssssP>
0

>  <NsSH>
0

>  <NdS>
0

>  <NssS>
0

>  <NaaS>
0

>  <NdssS>
0

>  <NddssS>
0

>  <NsCl>
0

>  <NsBr>
0

>  <NsI>
0

>  <fragCpx>
191.03

>  <fMF>
0.48

>  <nHBAcc>
2

>  <nHBDon>
2

>  <Kier1>
19.32

>  <Kier2>
9.47

>  <Lipinski>
1

>  <GhoseFilter>
1

>  <FilterItLogS>
-5.92

>  <VMcGowan>
282.92

>  <LabuteASA>
154.52

>  <PEOE_VSA1>
10.09

>  <PEOE_VSA2>
4.9

>  <PEOE_VSA3>
0

>  <PEOE_VSA4>
0

>  <PEOE_VSA5>
0

>  <PEOE_VSA6>
36.41

>  <PEOE_VSA7>
67.13

>  <PEOE_VSA8>
30.19

>  <PEOE_VSA9>
0

>  <PEOE_VSA10>
5.75

>  <PEOE_VSA11>
0

>  <PEOE_VSA12>
0

>  <PEOE_VSA13>
0

>  <SMR_VSA1>
5.11

>  <SMR_VSA2>
0

>  <SMR_VSA3>
9.88

>  <SMR_VSA4>
0

>  <SMR_VSA5>
25.68

>  <SMR_VSA6>
19.63

>  <SMR_VSA7>
71.93

>  <SMR_VSA8>
0

>  <SMR_VSA9>
5.75

>  <SlogP_VSA1>
0

>  <SlogP_VSA2>
34.62

>  <SlogP_VSA3>
6.42

>  <SlogP_VSA4>
0

>  <SlogP_VSA5>
30.39

>  <SlogP_VSA6>
60.8

>  <SlogP_VSA7>
0

>  <SlogP_VSA8>
16.48

>  <SlogP_VSA9>
0

>  <SlogP_VSA10>
0

>  <SlogP_VSA11>
5.75

>  <EState_VSA1>
0

>  <EState_VSA2>
0

>  <EState_VSA3>
5.75

>  <EState_VSA4>
43.38

>  <EState_VSA5>
29.54

>  <EState_VSA6>
6.07

>  <EState_VSA7>
12.13

>  <EState_VSA8>
52.49

>  <EState_VSA9>
0

>  <EState_VSA10>
5.11

>  <VSA_EState1>
0

>  <VSA_EState2>
5.85

>  <VSA_EState3>
10.84

>  <VSA_EState4>
5.27

>  <VSA_EState5>
0.34

>  <VSA_EState6>
16.27

>  <VSA_EState7>
9.06

>  <VSA_EState8>
3.37

>  <VSA_EState9>
0

>  <apol>
58.75

>  <bpol>
28.36

>  <nRing>
4

>  <nHRing>
2

>  <naRing>
3

>  <naHRing>
1

>  <nARing 2>
1

>  <nAHRing 2>
1

>  <nFRing>
1

>  <nFHRing>
1

>  <nFaRing>
1

>  <nFaHRing>
1

>  <nFARing 2>
0

>  <nFAHRing 2>
0

>  <nRot>
6

>  <SLogP>
4.99

>  <SMR>
108.38

>  <TopoPSA(NO)>
39.26

>  <TopoPSA>
39.26

>  <JGI1>
0.14

>  <JGI2>
0.07

>  <JGI3>
0.03

>  <JGI4>
0.03

>  <JGI5>
0.02

>  <Diameter>
16

>  <Radius>
8

>  <TMWC10>
130.05

>  <TSRW10>
74.75

>  <MW>
346.2

>  <AMW>
6.66

>  <WPath>
2076

>  <WPol>
37

>  <Zagreb1>
136

>  <Zagreb2>
158

>  <mZagreb2>
5.75

>  <yes>


>  <nAR-cont>
0.816016

>  <nHA-cont>
0.892715677

>  <MWHBN>
0.214979208

>  <MWHBN-cont>
0.997641447

>  <TPSA-cont>
0.725940821

>  <pka_cont>
0.97

>  <yes.1>


>  <BBB_SCORE>
5.142075489

>  <MMFF94 Energy>
36.184

$$$$
Compound 1933
Actelion Java MolfileCreator 2.0

  0  0  0  0  0  0              0 V3000
M  V30 BEGIN CTAB
M  V30 COUNTS 55 59 0 0 0
M  V30 BEGIN ATOM
M  V30 1 O -4.0952 -2.1664 4.0952 0
M  V30 2 C -3.4342 -1.2948 3.2801 0
M  V30 3 C -2.0472 -1.3935 3.2171 0
M  V30 4 C -4.1168 -0.3448 2.5354 0
M  V30 5 C -1.2977 -0.5247 2.4036 0
M  V30 6 C -3.3965 0.512 1.7066 0
M  V30 7 C -1.9954 0.4246 1.6221 0
M  V30 8 C 0.2389 -0.6429 2.298 0
M  V30 9 C -1.2779 1.3856 0.6986 0
M  V30 10 C 0.8245 0.7335 1.882 0
M  V30 11 C 0.549 -1.6893 1.1962 0
M  V30 12 C 0.8798 -1.0709 3.649 0
M  V30 13 C 0.235 1.1178 0.5113 0
M  V30 14 C 2.3629 0.7715 1.8856 0
M  V30 15 C 0.1232 -1.2325 -0.2051 0
M  V30 16 C 2.407 -0.9836 3.6852 0
M  V30 17 N 0.6118 0.1169 -0.5183 0
M  V30 18 C 2.9152 0.3827 3.2507 0
M  V30 19 C 0.2294 0.5441 -1.8773 0
M  V30 20 C 1.0315 -0.1744 -2.9759 0
M  V30 21 C 0.7022 0.3694 -4.3467 0
M  V30 22 C -0.3791 -0.1454 -5.0742 0
M  V30 23 C 1.4555 1.4158 -4.8953 0
M  V30 24 C -0.6948 0.3713 -6.3316 0
M  V30 25 C 1.138 1.9311 -6.1527 0
M  V30 26 C 0.0637 1.4088 -6.8705 0
M  V30 27 H -5.0458 -1.9758 4.0433 0
M  V30 28 H -1.568 -2.1673 3.809 0
M  V30 29 H -5.1973 -0.2596 2.58 0
M  V30 30 H -3.9322 1.253 1.1167 0
M  V30 31 H -1.3873 2.3873 1.1374 0
M  V30 32 H -1.7896 1.4179 -0.2693 0
M  V30 33 H 0.4997 1.4893 2.615 0
M  V30 34 H 1.6227 -1.908 1.1657 0
M  V30 35 H 0.0563 -2.6442 1.422 0
M  V30 36 H 0.484 -0.4366 4.4543 0
M  V30 37 H 0.6028 -2.1016 3.9011 0
M  V30 38 H 0.6936 2.0703 0.2115 0
M  V30 39 H 2.7053 1.7835 1.6374 0
M  V30 40 H 2.783 0.107 1.1225 0
M  V30 41 H -0.966 -1.2962 -0.3129 0
M  V30 42 H 0.54 -1.9572 -0.9132 0
M  V30 43 H 2.7566 -1.1944 4.7027 0
M  V30 44 H 2.8422 -1.7588 3.0446 0
M  V30 45 H 2.6223 1.1354 3.993 0
M  V30 46 H 4.0104 0.3771 3.2189 0
M  V30 47 H 0.4211 1.6204 -1.9827 0
M  V30 48 H -0.8456 0.4033 -2.0468 0
M  V30 49 H 2.1076 -0.064 -2.7901 0
M  V30 50 H 0.8318 -1.2522 -2.9725 0
M  V30 51 H -0.981 -0.9539 -4.6654 0
M  V30 52 H 2.2949 1.835 -4.3449 0
M  V30 53 H -1.5328 -0.0358 -6.8908 0
M  V30 54 H 1.7294 2.7407 -6.5721 0
M  V30 55 H -0.1821 1.8101 -7.8499 0
M  V30 END ATOM
M  V30 BEGIN BOND
M  V30 1 1 1 2
M  V30 2 2 2 3
M  V30 3 1 2 4
M  V30 4 1 3 5
M  V30 5 2 4 6
M  V30 6 2 5 7
M  V30 7 1 5 8
M  V30 8 1 7 9
M  V30 9 1 8 10
M  V30 10 1 8 11
M  V30 11 1 8 12
M  V30 12 1 9 13
M  V30 13 1 10 14
M  V30 14 1 11 15
M  V30 15 1 12 16
M  V30 16 1 13 17
M  V30 17 1 14 18
M  V30 18 1 17 19
M  V30 19 1 19 20
M  V30 20 1 20 21
M  V30 21 2 21 22
M  V30 22 1 21 23
M  V30 23 1 22 24
M  V30 24 2 23 25
M  V30 25 2 24 26
M  V30 26 1 6 7
M  V30 27 1 10 13
M  V30 28 1 15 17
M  V30 29 1 16 18
M  V30 30 1 25 26
M  V30 31 1 1 27
M  V30 32 1 3 28
M  V30 33 1 4 29
M  V30 34 1 6 30
M  V30 35 1 9 31
M  V30 36 1 9 32
M  V30 37 1 10 33
M  V30 38 1 11 34
M  V30 39 1 11 35
M  V30 40 1 12 36
M  V30 41 1 12 37
M  V30 42 1 13 38
M  V30 43 1 14 39
M  V30 44 1 14 40
M  V30 45 1 15 41
M  V30 46 1 15 42
M  V30 47 1 16 43
M  V30 48 1 16 44
M  V30 49 1 18 45
M  V30 50 1 18 46
M  V30 51 1 19 47
M  V30 52 1 19 48
M  V30 53 1 20 49
M  V30 54 1 20 50
M  V30 55 1 22 51
M  V30 56 1 23 52
M  V30 57 1 24 53
M  V30 58 1 25 54
M  V30 59 1 26 55
M  V30 END BOND
M  V30 END CTAB
M  END
>  <Column 1>
2360

>  <level_0>
2541

>  <index>
2541

>  <Unnamed: 0>
2541

>  <NO.>
2553

>  <Name>
morphinan-3-ol;17-(2-phenylethyl)-

>  <IUPAC_name>
17-(2-phenylethyl)-17-azatetracyclo[7.5.3.01-10.02-7]heptadeca-2(7)-3-5-trien-4-ol

>  <SMILES>
Oc1ccc2c(c1)C13CCCCC1C(C2)N(CCc1ccccc1)CC3

>  <CID>
521204

>  <logBB>


>  <BBB+/BBB->
BBB+

>  <Inchi>
InChI=1S/C24H29NO/c26-20-10-9-19-16-23-21-8-4-5-12-24(21-22(19)17-20)13-15-25(23)14-11-18-6-2-1-3-7-18/h1-3-6-7-9-10-17-21-23-26H-4-5-8-11-16H2

>  <threshold>
-1

>  <reference>
R1|R19|R27|R27|R30|

>  <group>
B

>  <Class>
1

>  <ABC>
21.08

>  <ABCGG>
14.87

>  <nAcid>
0

>  <nBase>
1

>  <nAromAtom>
12

>  <nAromBond>
12

>  <nAtom>
55

>  <nHeavyAtom>
26

>  <nSpiro>
0

>  <nBridgehead>
2

>  <nHetero>
2

>  <nN>
1

>  <nO>
1

>  <nF>
0

>  <BalabanJ>
1.32

>  <BertzCT>
786.05

>  <nBonds>
59

>  <nBondsO>
30

>  <nBondsS>
47

>  <nBondsD>
0

>  <nBondsT>
0

>  <nBondsA>
12

>  <nBondsM>
12

>  <nBondsKS>
53

>  <nBondsKD>
6

>  <RNCG>
0.32

>  <RPCG>
0.18

>  <FCSP3>
0.5

>  <SZ>
31.33

>  <Sm>
28.93

>  <Sv>
33.33

>  <Sse>
53.87

>  <Sp>
36.72

>  <Si>
61.52

>  <MZ>
0.57

>  <Mm>
0.53

>  <Mv>
0.61

>  <Mse>
0.98

>  <Mp>
0.67

>  <Mi>
1.12

>  <NsCH3>
0

>  <NdCH2>
0

>  <NssCH2>
9

>  <NtCH>
0

>  <NdsCH>
0

>  <NaaCH>
8

>  <NsssCH>
2

>  <NddC>
0

>  <NtsC>
0

>  <NdssC>
0

>  <NaasC>
4

>  <NaaaC>
0

>  <NssssC>
1

>  <NsNH3>
0

>  <NsNH2>
0

>  <NssNH2>
0

>  <NdNH>
0

>  <NssNH>
0

>  <NaaNH>
0

>  <NtN>
0

>  <NsssNH>
0

>  <NdsN>
0

>  <NaaN>
0

>  <NsssN>
1

>  <NddsN>
0

>  <NaasN>
0

>  <NssssN>
0

>  <NsOH>
1

>  <NdO>
0

>  <NssO>
0

>  <NaaO>
0

>  <NsF>
0

>  <NsSiH3>
0

>  <NssSiH2>
0

>  <NsssSiH>
0

>  <NssssSi>
0

>  <NsPH2>
0

>  <NssPH>
0

>  <NsssP>
0

>  <NdsssP>
0

>  <NsssssP>
0

>  <NsSH>
0

>  <NdS>
0

>  <NssS>
0

>  <NaaS>
0

>  <NdssS>
0

>  <NddssS>
0

>  <NsCl>
0

>  <NsBr>
0

>  <NsI>
0

>  <fragCpx>
250.02

>  <fMF>
0.45

>  <nHBAcc>
2

>  <nHBDon>
1

>  <Kier1>
18.06

>  <Kier2>
7.44

>  <Lipinski>
1

>  <GhoseFilter>
1

>  <FilterItLogS>
-5.53

>  <VMcGowan>
284.77

>  <LabuteASA>
156.4

>  <PEOE_VSA1>
5.11

>  <PEOE_VSA2>
4.9

>  <PEOE_VSA3>
0

>  <PEOE_VSA4>
0

>  <PEOE_VSA5>
0

>  <PEOE_VSA6>
49.24

>  <PEOE_VSA7>
73.39

>  <PEOE_VSA8>
18

>  <PEOE_VSA9>
0

>  <PEOE_VSA10>
5.75

>  <PEOE_VSA11>
0

>  <PEOE_VSA12>
0

>  <PEOE_VSA13>
0

>  <SMR_VSA1>
5.11

>  <SMR_VSA2>
0

>  <SMR_VSA3>
4.9

>  <SMR_VSA4>
5.92

>  <SMR_VSA5>
56.4

>  <SMR_VSA6>
13.09

>  <SMR_VSA7>
65.22

>  <SMR_VSA8>
0

>  <SMR_VSA9>
5.75

>  <SlogP_VSA1>
0

>  <SlogP_VSA2>
29.14

>  <SlogP_VSA3>
18.26

>  <SlogP_VSA4>
5.92

>  <SlogP_VSA5>
48.79

>  <SlogP_VSA6>
48.53

>  <SlogP_VSA7>
0

>  <SlogP_VSA8>
0

>  <SlogP_VSA9>
0

>  <SlogP_VSA10>
0

>  <SlogP_VSA11>
5.75

>  <EState_VSA1>
0

>  <EState_VSA2>
0

>  <EState_VSA3>
17.21

>  <EState_VSA4>
18.76

>  <EState_VSA5>
61.88

>  <EState_VSA6>
0

>  <EState_VSA7>
6.07

>  <EState_VSA8>
47.36

>  <EState_VSA9>
0

>  <EState_VSA10>
5.11

>  <VSA_EState1>
0

>  <VSA_EState2>
2.79

>  <VSA_EState3>
10.12

>  <VSA_EState4>
4.77

>  <VSA_EState5>
1.22

>  <VSA_EState6>
17.81

>  <VSA_EState7>
8.99

>  <VSA_EState8>
2.39

>  <VSA_EState9>
0

>  <apol>
61.32

>  <bpol>
30.8

>  <nRing>
5

>  <nHRing>
1

>  <naRing>
2

>  <naHRing>
0

>  <nARing 2>
3

>  <nAHRing 2>
1

>  <nFRing>
1

>  <nFHRing>
1

>  <nFaRing>
0

>  <nFaHRing>
0

>  <nFARing 2>
1

>  <nFAHRing 2>
1

>  <nRot>
3

>  <SLogP>
4.69

>  <SMR>
105.57

>  <TopoPSA(NO)>
23.47

>  <TopoPSA>
23.47

>  <JGI1>
0.17

>  <JGI2>
0.08

>  <JGI3>
0.04

>  <JGI4>
0.04

>  <JGI5>
0.02

>  <Diameter>
13

>  <Radius>
7

>  <TMWC10>
134.32

>  <TSRW10>
61.97

>  <MW>
347.22

>  <AMW>
6.31

>  <WPath>
1591

>  <WPol>
49

>  <Zagreb1>
148

>  <Zagreb2>
182

>  <mZagreb2>
5.58

>  <yes>


>  <nAR-cont>
0.691115

>  <nHA-cont>
0.892715677

>  <MWHBN>
0.16099741

>  <MWHBN-cont>
0.957860514

>  <TPSA-cont>
0.836164826

>  <pka_cont>
0.97

>  <yes.1>


>  <BBB_SCORE>
5.1779511

>  <MMFF94 Energy>
75.75

$$$$
Compound 1934
Actelion Java MolfileCreator 2.0

  0  0  0  0  0  0              0 V3000
M  V30 BEGIN CTAB
M  V30 COUNTS 39 42 0 0 0
M  V30 BEGIN ATOM
M  V30 1 O 3.8602 -1.4462 2.0091 0
M  V30 2 C 2.8353 -1.3917 1.1101 0
M  V30 3 C 1.7316 -0.5655 1.3171 0
M  V30 4 C 2.9257 -2.1915 -0.0168 0
M  V30 5 C 0.6872 -0.5122 0.3743 0
M  V30 6 C 1.8927 -2.1761 -0.9487 0
M  V30 7 C 0.7676 -1.3542 -0.7601 0
M  V30 8 C -0.5554 0.3744 0.5939 0
M  V30 9 C -0.3244 -1.4022 -1.8087 0
M  V30 10 C -1.2322 0.7267 -0.759 0
M  V30 11 C -1.5797 -0.4463 1.4246 0
M  V30 12 C -0.2587 1.7112 1.3286 0
M  V30 13 C -1.5865 -0.5814 -1.4778 0
M  V30 14 C -0.3871 1.6881 -1.6163 0
M  V30 15 C -2.1169 -1.6655 0.6657 0
M  V30 16 C 0.5876 2.6759 0.4952 0
M  V30 17 N -2.5822 -1.3393 -0.6852 0
M  V30 18 C -0.063 2.9694 -0.8524 0
M  V30 19 H 3.6663 -0.8339 2.737 0
M  V30 20 H 1.6861 0.0294 2.2221 0
M  V30 21 H 3.7905 -2.831 -0.1652 0
M  V30 22 H 1.9616 -2.8162 -1.8256 0
M  V30 23 H -0.6025 -2.4467 -2.001 0
M  V30 24 H 0.1024 -1.0165 -2.7443 0
M  V30 25 H -2.1739 1.2586 -0.5486 0
M  V30 26 H -2.432 0.1944 1.6897 0
M  V30 27 H -1.1367 -0.778 2.3724 0
M  V30 28 H 0.218 1.5475 2.3007 0
M  V30 29 H -1.2098 2.2132 1.5569 0
M  V30 30 H -2.0821 -0.3484 -2.4288 0
M  V30 31 H 0.5518 1.2245 -1.9373 0
M  V30 32 H -0.9359 1.9437 -2.5308 0
M  V30 33 H -1.3673 -2.4631 0.6235 0
M  V30 34 H -2.9575 -2.0901 1.2273 0
M  V30 35 H 0.7176 3.6145 1.0466 0
M  V30 36 H 1.5904 2.2629 0.338 0
M  V30 37 H -3.4295 -0.7756 -0.6081 0
M  V30 38 H 0.6003 3.6009 -1.454 0
M  V30 39 H -0.9863 3.5405 -0.6935 0
M  V30 END ATOM
M  V30 BEGIN BOND
M  V30 1 1 1 2
M  V30 2 2 2 3
M  V30 3 1 2 4
M  V30 4 1 3 5
M  V30 5 2 4 6
M  V30 6 2 5 7
M  V30 7 1 5 8
M  V30 8 1 7 9
M  V30 9 1 8 10
M  V30 10 1 8 11
M  V30 11 1 8 12
M  V30 12 1 9 13
M  V30 13 1 10 14
M  V30 14 1 11 15
M  V30 15 1 12 16
M  V30 16 1 13 17
M  V30 17 1 14 18
M  V30 18 1 6 7
M  V30 19 1 10 13
M  V30 20 1 15 17
M  V30 21 1 16 18
M  V30 22 1 1 19
M  V30 23 1 3 20
M  V30 24 1 4 21
M  V30 25 1 6 22
M  V30 26 1 9 23
M  V30 27 1 9 24
M  V30 28 1 10 25
M  V30 29 1 11 26
M  V30 30 1 11 27
M  V30 31 1 12 28
M  V30 32 1 12 29
M  V30 33 1 13 30
M  V30 34 1 14 31
M  V30 35 1 14 32
M  V30 36 1 15 33
M  V30 37 1 15 34
M  V30 38 1 16 35
M  V30 39 1 16 36
M  V30 40 1 17 37
M  V30 41 1 18 38
M  V30 42 1 18 39
M  V30 END BOND
M  V30 END CTAB
M  END
>  <Column 1>
2361

>  <level_0>
2542

>  <index>
2542

>  <Unnamed: 0>
2542

>  <NO.>
2554

>  <Name>
norlevorphanol

>  <IUPAC_name>
17-azatetracyclo[7.5.3.01-10.02-7]heptadeca-2(7)-3-5-trien-4-ol

>  <SMILES>
Oc1ccc2c(c1)C13CCCCC1C(C2)NCC3

>  <CID>
519103

>  <logBB>


>  <BBB+/BBB->
BBB+

>  <Inchi>
InChI=1S/C16H21NO/c18-12-5-4-11-9-15-13-3-1-2-6-16(13-7-8-17-15)14(11)10-12/h4-5-10-13-15-17-18H-1-3-6-9H2

>  <threshold>
-1

>  <reference>
R1|R19|R27|R27|R30|

>  <group>
B

>  <Class>
1

>  <ABC>
14.75

>  <ABCGG>
11.36

>  <nAcid>
0

>  <nBase>
1

>  <nAromAtom>
6

>  <nAromBond>
6

>  <nAtom>
39

>  <nHeavyAtom>
18

>  <nSpiro>
0

>  <nBridgehead>
2

>  <nHetero>
2

>  <nN>
1

>  <nO>
1

>  <nF>
0

>  <BalabanJ>
1.7

>  <BertzCT>
479.99

>  <nBonds>
42

>  <nBondsO>
21

>  <nBondsS>
36

>  <nBondsD>
0

>  <nBondsT>
0

>  <nBondsA>
6

>  <nBondsM>
6

>  <nBondsKS>
39

>  <nBondsKD>
3

>  <RNCG>
0.41

>  <RPCG>
0.23

>  <FCSP3>
0.63

>  <SZ>
22

>  <Sm>
20.26

>  <Sv>
23.16

>  <Sse>
38.32

>  <Sp>
25.52

>  <Si>
43.86

>  <MZ>
0.56

>  <Mm>
0.52

>  <Mv>
0.59

>  <Mse>
0.98

>  <Mp>
0.65

>  <Mi>
1.12

>  <NsCH3>
0

>  <NdCH2>
0

>  <NssCH2>
7

>  <NtCH>
0

>  <NdsCH>
0

>  <NaaCH>
3

>  <NsssCH>
2

>  <NddC>
0

>  <NtsC>
0

>  <NdssC>
0

>  <NaasC>
3

>  <NaaaC>
0

>  <NssssC>
1

>  <NsNH3>
0

>  <NsNH2>
0

>  <NssNH2>
0

>  <NdNH>
0

>  <NssNH>
1

>  <NaaNH>
0

>  <NtN>
0

>  <NsssNH>
0

>  <NdsN>
0

>  <NaaN>
0

>  <NsssN>
0

>  <NddsN>
0

>  <NaasN>
0

>  <NssssN>
0

>  <NsOH>
1

>  <NdO>
0

>  <NssO>
0

>  <NaaO>
0

>  <NsF>
0

>  <NsSiH3>
0

>  <NssSiH2>
0

>  <NsssSiH>
0

>  <NssssSi>
0

>  <NsPH2>
0

>  <NssPH>
0

>  <NsssP>
0

>  <NdsssP>
0

>  <NsssssP>
0

>  <NsSH>
0

>  <NdS>
0

>  <NssS>
0

>  <NaaS>
0

>  <NdssS>
0

>  <NddssS>
0

>  <NsCl>
0

>  <NsBr>
0

>  <NsI>
0

>  <fragCpx>
135.02

>  <fMF>
0.44

>  <nHBAcc>
2

>  <nHBDon>
2

>  <Kier1>
11.8

>  <Kier2>
4.25

>  <Lipinski>
1

>  <GhoseFilter>
1

>  <FilterItLogS>
-3.72

>  <VMcGowan>
195.81

>  <LabuteASA>
108.41

>  <PEOE_VSA1>
10.42

>  <PEOE_VSA2>
0

>  <PEOE_VSA3>
0

>  <PEOE_VSA4>
0

>  <PEOE_VSA5>
0

>  <PEOE_VSA6>
18.91

>  <PEOE_VSA7>
61.41

>  <PEOE_VSA8>
11.46

>  <PEOE_VSA9>
0

>  <PEOE_VSA10>
5.75

>  <PEOE_VSA11>
0

>  <PEOE_VSA12>
0

>  <PEOE_VSA13>
0

>  <SMR_VSA1>
5.11

>  <SMR_VSA2>
0

>  <SMR_VSA3>
5.32

>  <SMR_VSA4>
5.92

>  <SMR_VSA5>
49.98

>  <SMR_VSA6>
6.54

>  <SMR_VSA7>
29.33

>  <SMR_VSA8>
0

>  <SMR_VSA9>
5.75

>  <SlogP_VSA1>
5.32

>  <SlogP_VSA2>
17.69

>  <SlogP_VSA3>
11.84

>  <SlogP_VSA4>
5.92

>  <SlogP_VSA5>
43.23

>  <SlogP_VSA6>
18.2

>  <SlogP_VSA7>
0

>  <SlogP_VSA8>
0

>  <SlogP_VSA9>
0

>  <SlogP_VSA10>
0

>  <SlogP_VSA11>
5.75

>  <EState_VSA1>
0

>  <EState_VSA2>
0

>  <EState_VSA3>
17.21

>  <EState_VSA4>
18.88

>  <EState_VSA5>
43.23

>  <EState_VSA6>
0

>  <EState_VSA7>
6.07

>  <EState_VSA8>
17.45

>  <EState_VSA9>
0

>  <EState_VSA10>
5.11

>  <VSA_EState1>
0

>  <VSA_EState2>
0

>  <VSA_EState3>
13.59

>  <VSA_EState4>
3.33

>  <VSA_EState5>
1.25

>  <VSA_EState6>
6.75

>  <VSA_EState7>
7.85

>  <VSA_EState8>
1.15

>  <VSA_EState9>
0

>  <apol>
42.62

>  <bpol>
21.64

>  <nRing>
4

>  <nHRing>
1

>  <naRing>
1

>  <naHRing>
0

>  <nARing 2>
3

>  <nAHRing 2>
1

>  <nFRing>
1

>  <nFHRing>
1

>  <nFaRing>
0

>  <nFaHRing>
0

>  <nFARing 2>
1

>  <nFAHRing 2>
1

>  <nRot>
0

>  <SLogP>
2.74

>  <SMR>
71.85

>  <TopoPSA(NO)>
32.26

>  <TopoPSA>
32.26

>  <JGI1>
0.19

>  <JGI2>
0.09

>  <JGI3>
0.05

>  <JGI4>
0.04

>  <JGI5>
0.02

>  <Diameter>
7

>  <Radius>
4

>  <TMWC10>
114.88

>  <TSRW10>
52.54

>  <MW>
243.16

>  <AMW>
6.23

>  <WPath>
499

>  <WPol>
36

>  <Zagreb1>
106

>  <Zagreb2>
133

>  <mZagreb2>
3.81

>  <yes>


>  <nAR-cont>
0.691115

>  <nHA-cont>
0.991161285

>  <MWHBN>
0.256515684

>  <MWHBN-cont>
0.948160012

>  <TPSA-cont>
0.774805168

>  <pka_cont>
0.97

>  <yes.1>


>  <BBB_SCORE>
5.139126638

>  <MMFF94 Energy>
40.32

$$$$
Compound 1935
Actelion Java MolfileCreator 2.0

  0  0  0  0  0  0              0 V3000
M  V30 BEGIN CTAB
M  V30 COUNTS 47 51 0 0 0
M  V30 BEGIN ATOM
M  V30 1 O -2.1737 2.5767 -1.4487 0
M  V30 2 C -1.4347 1.6048 -2.1968 0
M  V30 3 C -1.3446 3.3387 -0.5764 0
M  V30 4 C -0.7387 0.5581 -1.2901 0
M  V30 5 C -0.6811 2.4388 0.454 0
M  V30 6 C 0.1721 -0.4046 -2.0727 0
M  V30 7 C 0.1144 1.3297 -0.2516 0
M  V30 8 C -1.8102 -0.2838 -0.5508 0
M  V30 9 C 1.3338 -0.9334 -1.4644 0
M  V30 10 C -0.1544 -0.8325 -3.3712 0
M  V30 11 C 0.7342 0.3152 0.7264 0
M  V30 12 C -1.2193 -1.1668 0.5528 0
M  V30 13 C 2.1513 -1.8297 -2.175 0
M  V30 14 C 1.7547 -0.543 -0.0621 0
M  V30 15 C 0.6661 -1.726 -4.0536 0
M  V30 16 N -0.3315 -0.4151 1.4498 0
M  V30 17 C 1.8202 -2.2256 -3.4689 0
M  V30 18 O 0.2917 -2.0934 -5.3126 0
M  V30 19 C 0.136 -1.2766 2.5424 0
M  V30 20 C 0.8181 -0.4838 3.6205 0
M  V30 21 C 0.052 0.5335 4.4301 0
M  V30 22 C 0.5108 -0.7432 5.0757 0
M  V30 23 H -2.1577 1.1256 -2.8651 0
M  V30 24 H -0.7086 2.128 -2.8324 0
M  V30 25 H -0.6013 3.888 -1.1659 0
M  V30 26 H -1.977 4.0774 -0.0737 0
M  V30 27 H -0.0173 3.0321 1.0931 0
M  V30 28 H -1.4531 2.0117 1.1035 0
M  V30 29 H 0.9371 1.8375 -0.7804 0
M  V30 30 H -2.5651 0.3719 -0.0984 0
M  V30 31 H -2.3558 -0.9203 -1.2597 0
M  V30 32 H -1.0557 -0.4906 -3.8716 0
M  V30 33 H 1.3039 0.8944 1.4636 0
M  V30 34 H -0.7028 -2.0302 0.1165 0
M  V30 35 H -2.0605 -1.575 1.1277 0
M  V30 36 H 3.0536 -2.2266 -1.7142 0
M  V30 37 H 2.0291 -1.4403 0.502 0
M  V30 38 H 2.6758 0.0479 -0.1634 0
M  V30 39 H 2.4656 -2.9209 -3.9951 0
M  V30 40 H 0.9491 -2.7172 -5.661 0
M  V30 41 H 0.8038 -2.0691 2.1877 0
M  V30 42 H -0.7292 -1.7849 2.9876 0
M  V30 43 H 1.8501 -0.2626 3.3734 0
M  V30 44 H -1.0065 0.6549 4.2275 0
M  V30 45 H 0.5598 1.4538 4.6934 0
M  V30 46 H -0.2447 -1.4773 5.331 0
M  V30 47 H 1.3286 -0.6862 5.7849 0
M  V30 END ATOM
M  V30 BEGIN BOND
M  V30 1 1 1 2
M  V30 2 1 1 3
M  V30 3 1 2 4
M  V30 4 1 3 5
M  V30 5 1 4 6
M  V30 6 1 4 7
M  V30 7 1 4 8
M  V30 8 2 6 9
M  V30 9 1 6 10
M  V30 10 1 7 11
M  V30 11 1 8 12
M  V30 12 1 9 13
M  V30 13 1 9 14
M  V30 14 2 10 15
M  V30 15 1 11 16
M  V30 16 2 13 17
M  V30 17 1 15 18
M  V30 18 1 16 19
M  V30 19 1 19 20
M  V30 20 1 20 21
M  V30 21 1 20 22
M  V30 22 1 5 7
M  V30 23 1 11 14
M  V30 24 1 12 16
M  V30 25 1 15 17
M  V30 26 1 21 22
M  V30 27 1 2 23
M  V30 28 1 2 24
M  V30 29 1 3 25
M  V30 30 1 3 26
M  V30 31 1 5 27
M  V30 32 1 5 28
M  V30 33 1 7 29
M  V30 34 1 8 30
M  V30 35 1 8 31
M  V30 36 1 10 32
M  V30 37 1 11 33
M  V30 38 1 12 34
M  V30 39 1 12 35
M  V30 40 1 13 36
M  V30 41 1 14 37
M  V30 42 1 14 38
M  V30 43 1 17 39
M  V30 44 1 18 40
M  V30 45 1 19 41
M  V30 46 1 19 42
M  V30 47 1 20 43
M  V30 48 1 21 44
M  V30 49 1 21 45
M  V30 50 1 22 46
M  V30 51 1 22 47
M  V30 END BOND
M  V30 END CTAB
M  END
>  <Column 1>
2362

>  <level_0>
2543

>  <index>
2543

>  <Unnamed: 0>
2543

>  <NO.>
2555

>  <Name>
proxorphan

>  <IUPAC_name>
17-(cyclopropylmethyl)-13-oxa-17-azatetracyclo[7.5.3.01-10.02-7]heptadeca-2(7)-3-5-trien-4-ol

>  <SMILES>
Oc1ccc2c(c1)C13CCN(CC4CC4)C(C2)C1CCOC3

>  <CID>
13559474

>  <logBB>


>  <BBB+/BBB->
BBB+

>  <Inchi>
InChI=1S/C19H25NO2/c21-15-4-3-14-9-18-16-5-8-22-12-19(16-17(14)10-15)6-7-20(18)11-13-1-2-13/h3-4-10-13-16-18-21H-1-2-5-9-11-12H2

>  <threshold>
-1

>  <reference>
R1|R19|R27|R27|R30|

>  <group>
B

>  <Class>
1

>  <ABC>
18.25

>  <ABCGG>
13.52

>  <nAcid>
0

>  <nBase>
1

>  <nAromAtom>
6

>  <nAromBond>
6

>  <nAtom>
47

>  <nHeavyAtom>
22

>  <nSpiro>
0

>  <nBridgehead>
2

>  <nHetero>
3

>  <nN>
1

>  <nO>
2

>  <nF>
0

>  <BalabanJ>
1.46

>  <BertzCT>
597.1

>  <nBonds>
51

>  <nBondsO>
26

>  <nBondsS>
45

>  <nBondsD>
0

>  <nBondsT>
0

>  <nBondsA>
6

>  <nBondsM>
6

>  <nBondsKS>
48

>  <nBondsKD>
3

>  <RNCG>
0.33

>  <RPCG>
0.19

>  <FCSP3>
0.68

>  <SZ>
27

>  <Sm>
24.93

>  <Sv>
27.96

>  <Sse>
46.42

>  <Sp>
30.6

>  <Si>
52.9

>  <MZ>
0.57

>  <Mm>
0.53

>  <Mv>
0.59

>  <Mse>
0.99

>  <Mp>
0.65

>  <Mi>
1.13

>  <NsCH3>
0

>  <NdCH2>
0

>  <NssCH2>
9

>  <NtCH>
0

>  <NdsCH>
0

>  <NaaCH>
3

>  <NsssCH>
3

>  <NddC>
0

>  <NtsC>
0

>  <NdssC>
0

>  <NaasC>
3

>  <NaaaC>
0

>  <NssssC>
1

>  <NsNH3>
0

>  <NsNH2>
0

>  <NssNH2>
0

>  <NdNH>
0

>  <NssNH>
0

>  <NaaNH>
0

>  <NtN>
0

>  <NsssNH>
0

>  <NdsN>
0

>  <NaaN>
0

>  <NsssN>
1

>  <NddsN>
0

>  <NaasN>
0

>  <NssssN>
0

>  <NsOH>
1

>  <NdO>
0

>  <NssO>
1

>  <NaaO>
0

>  <NsF>
0

>  <NsSiH3>
0

>  <NssSiH2>
0

>  <NsssSiH>
0

>  <NssssSi>
0

>  <NsPH2>
0

>  <NssPH>
0

>  <NsssP>
0

>  <NdsssP>
0

>  <NsssssP>
0

>  <NsSH>
0

>  <NdS>
0

>  <NssS>
0

>  <NaaS>
0

>  <NdssS>
0

>  <NddssS>
0

>  <NsCl>
0

>  <NsBr>
0

>  <NsI>
0

>  <fragCpx>
214.03

>  <fMF>
0.45

>  <nHBAcc>
3

>  <nHBDon>
1

>  <Kier1>
14.35

>  <Kier2>
5.25

>  <Lipinski>
1

>  <GhoseFilter>
1

>  <FilterItLogS>
-3.46

>  <VMcGowan>
233.09

>  <LabuteASA>
131.82

>  <PEOE_VSA1>
9.84

>  <PEOE_VSA2>
4.9

>  <PEOE_VSA3>
0

>  <PEOE_VSA4>
0

>  <PEOE_VSA5>
0

>  <PEOE_VSA6>
6.07

>  <PEOE_VSA7>
73.74

>  <PEOE_VSA8>
24.61

>  <PEOE_VSA9>
6.61

>  <PEOE_VSA10>
5.75

>  <PEOE_VSA11>
0

>  <PEOE_VSA12>
0

>  <PEOE_VSA13>
0

>  <SMR_VSA1>
9.84

>  <SMR_VSA2>
0

>  <SMR_VSA3>
4.9

>  <SMR_VSA4>
11.84

>  <SMR_VSA5>
43.56

>  <SMR_VSA6>
26.3

>  <SMR_VSA7>
29.33

>  <SMR_VSA8>
0

>  <SMR_VSA9>
5.75

>  <SlogP_VSA1>
0

>  <SlogP_VSA2>
42.35

>  <SlogP_VSA3>
16.57

>  <SlogP_VSA4>
11.84

>  <SlogP_VSA5>
36.81

>  <SlogP_VSA6>
18.2

>  <SlogP_VSA7>
0

>  <SlogP_VSA8>
0

>  <SlogP_VSA9>
0

>  <SlogP_VSA10>
0

>  <SlogP_VSA11>
5.75

>  <EState_VSA1>
0

>  <EState_VSA2>
5.41

>  <EState_VSA3>
17.71

>  <EState_VSA4>
25.55

>  <EState_VSA5>
49.9

>  <EState_VSA6>
0

>  <EState_VSA7>
12.13

>  <EState_VSA8>
10.97

>  <EState_VSA9>
4.74

>  <EState_VSA10>
5.11

>  <VSA_EState1>
5.94

>  <VSA_EState2>
2.79

>  <VSA_EState3>
10

>  <VSA_EState4>
3

>  <VSA_EState5>
2.09

>  <VSA_EState6>
6.74

>  <VSA_EState7>
6.41

>  <VSA_EState8>
4.28

>  <VSA_EState9>
0

>  <apol>
51.1

>  <bpol>
28.53

>  <nRing>
5

>  <nHRing>
2

>  <naRing>
1

>  <naHRing>
0

>  <nARing 2>
4

>  <nAHRing 2>
2

>  <nFRing>
1

>  <nFHRing>
1

>  <nFaRing>
0

>  <nFaHRing>
0

>  <nFARing 2>
1

>  <nFAHRing 2>
1

>  <nRot>
2

>  <SLogP>
2.71

>  <SMR>
85.12

>  <TopoPSA(NO)>
32.7

>  <TopoPSA>
32.7

>  <JGI1>
0.19

>  <JGI2>
0.09

>  <JGI3>
0.04

>  <JGI4>
0.04

>  <JGI5>
0.02

>  <Diameter>
10

>  <Radius>
5

>  <TMWC10>
125.92

>  <TSRW10>
75.75

>  <MW>
299.19

>  <AMW>
6.37

>  <WPath>
913

>  <WPol>
43

>  <Zagreb1>
132

>  <Zagreb2>
166

>  <mZagreb2>
4.58

>  <yes>


>  <nAR-cont>
0.199399

>  <nHA-cont>
0.983774276

>  <MWHBN>
0.23125251

>  <MWHBN-cont>
0.985485976

>  <TPSA-cont>
0.771733695

>  <pka_cont>
0.97

>  <yes.1>


>  <BBB_SCORE>
4.689869629

>  <MMFF94 Energy>
67.826

$$$$
Compound 1936
Actelion Java MolfileCreator 2.0

  0  0  0  0  0  0              0 V3000
M  V30 BEGIN CTAB
M  V30 COUNTS 50 54 0 0 0
M  V30 BEGIN ATOM
M  V30 1 O -4.7503 1.206 -2.5743 0
M  V30 2 C -3.8099 1.0289 -1.6023 0
M  V30 3 C -2.4538 0.9419 -1.9115 0
M  V30 4 C -4.2491 0.933 -0.2928 0
M  V30 5 C -1.4932 0.7699 -0.8956 0
M  V30 6 C -3.3212 0.7362 0.7247 0
M  V30 7 C -1.9482 0.6396 0.4369 0
M  V30 8 C 0.0127 0.6403 -1.2211 0 CFG=1
M  V30 9 C -1.0023 0.4159 1.595 0
M  V30 10 C 0.8864 1.042 0.0095 0 CFG=1
M  V30 11 C 0.2751 -0.8565 -1.5418 0
M  V30 12 C 0.468 1.5033 -2.4331 0
M  V30 13 C 0.464 0.1521 1.2038 0 CFG=2
M  V30 14 O 2.2818 0.752 -0.2559 0
M  V30 15 C 0.8195 2.5538 0.3043 0
M  V30 16 C 0.1026 -1.7678 -0.3156 0
M  V30 17 C 0.3968 3.006 -2.1508 0
M  V30 18 N 0.8258 -1.2621 0.8641 0
M  V30 19 C 1.2074 3.3895 -0.917 0
M  V30 20 C 0.6841 -2.1576 2.0206 0
M  V30 21 C 1.5615 -3.3644 1.8428 0
M  V30 22 C 3.064 -3.2379 1.9025 0
M  V30 23 C 2.327 -3.9332 3.0126 0
M  V30 24 H -4.3009 1.2805 -3.4317 0
M  V30 25 H -2.151 0.9989 -2.9511 0
M  V30 26 H -5.3086 1.0037 -0.0655 0
M  V30 27 H -3.6745 0.6528 1.7505 0
M  V30 28 H -1.0328 1.319 2.2196 0
M  V30 29 H -1.3828 -0.3976 2.2232 0
M  V30 30 H 1.2967 -0.9831 -1.9247 0
M  V30 31 H -0.3897 -1.2061 -2.3424 0
M  V30 32 H 1.5082 1.257 -2.6875 0
M  V30 33 H -0.1042 1.2729 -3.3377 0
M  V30 34 H 1.0979 0.4255 2.0592 0
M  V30 35 H 2.3908 -0.1924 -0.0131 0
M  V30 36 H 1.5086 2.8025 1.1212 0
M  V30 37 H -0.1804 2.8598 0.6288 0
M  V30 38 H 0.4888 -2.7542 -0.5973 0
M  V30 39 H -0.962 -1.9109 -0.0958 0
M  V30 40 H -0.6453 3.317 -2.0155 0
M  V30 41 H 0.7768 3.5569 -3.0189 0
M  V30 42 H 2.2756 3.2597 -1.1291 0
M  V30 43 H 1.0601 4.4529 -0.6956 0
M  V30 44 H -0.355 -2.4728 2.172 0
M  V30 45 H 0.9934 -1.6375 2.9362 0
M  V30 46 H 1.1411 -4.0788 1.1442 0
M  V30 47 H 3.4907 -2.2618 2.1048 0
M  V30 48 H 3.6475 -3.8419 1.2175 0
M  V30 49 H 2.2712 -3.4318 3.972 0
M  V30 50 H 2.4181 -5.0113 3.0827 0
M  V30 END ATOM
M  V30 BEGIN BOND
M  V30 1 1 1 2
M  V30 2 2 2 3
M  V30 3 1 2 4
M  V30 4 1 3 5
M  V30 5 2 4 6
M  V30 6 2 5 7
M  V30 7 1 5 8
M  V30 8 1 7 9
M  V30 9 1 8 10
M  V30 10 1 8 11
M  V30 11 1 8 12
M  V30 12 1 9 13
M  V30 13 1 10 14
M  V30 14 1 10 15
M  V30 15 1 11 16
M  V30 16 1 12 17
M  V30 17 1 13 18
M  V30 18 1 15 19
M  V30 19 1 18 20
M  V30 20 1 20 21
M  V30 21 1 21 22
M  V30 22 1 21 23
M  V30 23 1 6 7
M  V30 24 1 10 13
M  V30 25 1 16 18
M  V30 26 1 17 19
M  V30 27 1 22 23
M  V30 28 1 1 24
M  V30 29 1 3 25
M  V30 30 1 4 26
M  V30 31 1 6 27
M  V30 32 1 9 28
M  V30 33 1 9 29
M  V30 34 1 11 30
M  V30 35 1 11 31
M  V30 36 1 12 32
M  V30 37 1 12 33
M  V30 38 1 13 34
M  V30 39 1 14 35
M  V30 40 1 15 36
M  V30 41 1 15 37
M  V30 42 1 16 38
M  V30 43 1 16 39
M  V30 44 1 17 40
M  V30 45 1 17 41
M  V30 46 1 19 42
M  V30 47 1 19 43
M  V30 48 1 20 44
M  V30 49 1 20 45
M  V30 50 1 21 46
M  V30 51 1 22 47
M  V30 52 1 22 48
M  V30 53 1 23 49
M  V30 54 1 23 50
M  V30 END BOND
M  V30 BEGIN COLLECTION
M  V30 MDLV30/STEABS ATOMS=(3 8 10 13)
M  V30 END COLLECTION
M  V30 END CTAB
M  END
>  <Column 1>
2363

>  <level_0>
2544

>  <index>
2544

>  <Unnamed: 0>
2544

>  <NO.>
2556

>  <Name>
oxilorphan

>  <IUPAC_name>
(1s-9r-10s)-17-(cyclopropylmethyl)-17-azatetracyclo[7.5.3.01-10.02-7]heptadeca-2(7)-3-5-triene-4-10-diol

>  <SMILES>
Oc1ccc2c(c1)[C@@]13CCCC[C@@]1(O)[C@@H](C2)N(CC1CC1)CC3

>  <CID>
5361090

>  <logBB>


>  <BBB+/BBB->
BBB+

>  <Inchi>
InChI=1S/C20H27NO2/c22-16-6-5-15-11-18-20(23)8-2-1-7-19(20-17(15)12-16)9-10-21(18)13-14-3-4-14/h5-6-12-14-18-22-23H-1-4-7-11-13H2/t18--19+-20-/m1/s1

>  <threshold>
-1

>  <reference>
R1|R6|R27|R27|R30|R30|

>  <group>
B

>  <Class>
1

>  <ABC>
19.06

>  <ABCGG>
14.42

>  <nAcid>
0

>  <nBase>
1

>  <nAromAtom>
6

>  <nAromBond>
6

>  <nAtom>
50

>  <nHeavyAtom>
23

>  <nSpiro>
0

>  <nBridgehead>
2

>  <nHetero>
3

>  <nN>
1

>  <nO>
2

>  <nF>
0

>  <BalabanJ>
1.51

>  <BertzCT>
640.53

>  <nBonds>
54

>  <nBondsO>
27

>  <nBondsS>
48

>  <nBondsD>
0

>  <nBondsT>
0

>  <nBondsA>
6

>  <nBondsM>
6

>  <nBondsKS>
51

>  <nBondsKD>
3

>  <RNCG>
0.3

>  <RPCG>
0.17

>  <FCSP3>
0.7

>  <SZ>
28.33

>  <Sm>
26.1

>  <Sv>
29.5

>  <Sse>
49.31

>  <Sp>
32.4

>  <Si>
56.32

>  <MZ>
0.57

>  <Mm>
0.52

>  <Mv>
0.59

>  <Mse>
0.99

>  <Mp>
0.65

>  <Mi>
1.13

>  <NsCH3>
0

>  <NdCH2>
0

>  <NssCH2>
10

>  <NtCH>
0

>  <NdsCH>
0

>  <NaaCH>
3

>  <NsssCH>
2

>  <NddC>
0

>  <NtsC>
0

>  <NdssC>
0

>  <NaasC>
3

>  <NaaaC>
0

>  <NssssC>
2

>  <NsNH3>
0

>  <NsNH2>
0

>  <NssNH2>
0

>  <NdNH>
0

>  <NssNH>
0

>  <NaaNH>
0

>  <NtN>
0

>  <NsssNH>
0

>  <NdsN>
0

>  <NaaN>
0

>  <NsssN>
1

>  <NddsN>
0

>  <NaasN>
0

>  <NssssN>
0

>  <NsOH>
2

>  <NdO>
0

>  <NssO>
0

>  <NaaO>
0

>  <NsF>
0

>  <NsSiH3>
0

>  <NssSiH2>
0

>  <NsssSiH>
0

>  <NssssSi>
0

>  <NsPH2>
0

>  <NssPH>
0

>  <NsssP>
0

>  <NdsssP>
0

>  <NsssssP>
0

>  <NsSH>
0

>  <NdS>
0

>  <NssS>
0

>  <NaaS>
0

>  <NdssS>
0

>  <NddssS>
0

>  <NsCl>
0

>  <NsBr>
0

>  <NsI>
0

>  <fragCpx>
223.03

>  <fMF>
0.42

>  <nHBAcc>
3

>  <nHBDon>
2

>  <Kier1>
15.27

>  <Kier2>
5.25

>  <Lipinski>
1

>  <GhoseFilter>
1

>  <FilterItLogS>
-3.63

>  <VMcGowan>
247.18

>  <LabuteASA>
137.87

>  <PEOE_VSA1>
10.21

>  <PEOE_VSA2>
4.9

>  <PEOE_VSA3>
0

>  <PEOE_VSA4>
0

>  <PEOE_VSA5>
0

>  <PEOE_VSA6>
18.91

>  <PEOE_VSA7>
74.25

>  <PEOE_VSA8>
18

>  <PEOE_VSA9>
5.6

>  <PEOE_VSA10>
5.75

>  <PEOE_VSA11>
0

>  <PEOE_VSA12>
0

>  <PEOE_VSA13>
0

>  <SMR_VSA1>
10.21

>  <SMR_VSA2>
0

>  <SMR_VSA3>
4.9

>  <SMR_VSA4>
5.92

>  <SMR_VSA5>
68.42

>  <SMR_VSA6>
13.09

>  <SMR_VSA7>
29.33

>  <SMR_VSA8>
0

>  <SMR_VSA9>
5.75

>  <SlogP_VSA1>
0

>  <SlogP_VSA2>
39.85

>  <SlogP_VSA3>
11.84

>  <SlogP_VSA4>
5.92

>  <SlogP_VSA5>
56.07

>  <SlogP_VSA6>
18.2

>  <SlogP_VSA7>
0

>  <SlogP_VSA8>
0

>  <SlogP_VSA9>
0

>  <SlogP_VSA10>
0

>  <SlogP_VSA11>
5.75

>  <EState_VSA1>
5.6

>  <EState_VSA2>
11.46

>  <EState_VSA3>
5.75

>  <EState_VSA4>
44.57

>  <EState_VSA5>
36.93

>  <EState_VSA6>
0

>  <EState_VSA7>
12.13

>  <EState_VSA8>
10.97

>  <EState_VSA9>
0

>  <EState_VSA10>
10.21

>  <VSA_EState1>
0

>  <VSA_EState2>
2.61

>  <VSA_EState3>
21.92

>  <VSA_EState4>
1.89

>  <VSA_EState5>
1.22

>  <VSA_EState6>
6.16

>  <VSA_EState7>
9.08

>  <VSA_EState8>
2.29

>  <VSA_EState9>
0

>  <apol>
54.11

>  <bpol>
28.8

>  <nRing>
5

>  <nHRing>
1

>  <naRing>
1

>  <naHRing>
0

>  <nARing 2>
4

>  <nAHRing 2>
1

>  <nFRing>
1

>  <nFHRing>
1

>  <nFaRing>
0

>  <nFaHRing>
0

>  <nFARing 2>
1

>  <nFAHRing 2>
1

>  <nRot>
2

>  <SLogP>
2.98

>  <SMR>
89.61

>  <TopoPSA(NO)>
43.7

>  <TopoPSA>
43.7

>  <JGI1>
0.22

>  <JGI2>
0.12

>  <JGI3>
0.05

>  <JGI4>
0.05

>  <JGI5>
0.03

>  <Diameter>
10

>  <Radius>
5

>  <TMWC10>
129.12

>  <TSRW10>
77.27

>  <MW>
313.2

>  <AMW>
6.26

>  <WPath>
997

>  <WPol>
49

>  <Zagreb1>
140

>  <Zagreb2>
179

>  <mZagreb2>
4.74

>  <yes>


>  <nAR-cont>
0.199399

>  <nHA-cont>
0.967789328

>  <MWHBN>
0.28252646

>  <MWHBN-cont>
0.8896062

>  <TPSA-cont>
0.694946864

>  <pka_cont>
0.97

>  <yes.1>


>  <BBB_SCORE>
4.376491355

>  <MMFF94 Energy>
86.706

$$$$
Compound 1937
Actelion Java MolfileCreator 2.0

  0  0  0  0  0  0              0 V3000
M  V30 BEGIN CTAB
M  V30 COUNTS 53 57 0 0 0
M  V30 BEGIN ATOM
M  V30 1 O 5.1602 0.0804 1.9327 0
M  V30 2 C 4.1029 0.2856 1.0957 0
M  V30 3 C 2.8452 0.447 1.6704 0
M  V30 4 C 4.2691 0.3279 -0.2795 0
M  V30 5 C 1.7077 0.6717 0.8735 0
M  V30 6 C 3.1533 0.5222 -1.0897 0
M  V30 7 C 1.8722 0.6799 -0.5297 0
M  V30 8 C 0.3021 0.821 1.4977 0 CFG=1
M  V30 9 C 0.7092 0.8777 -1.4749 0
M  V30 10 C -0.652 1.6083 0.5449 0 CFG=1
M  V30 11 C -0.2621 -0.6133 1.6786 0
M  V30 12 C 0.3034 1.5403 2.8774 0
M  V30 13 C -0.6835 0.8667 -0.8145 0 CFG=2
M  V30 14 O -2.0052 1.5878 1.0647 0
M  V30 15 C -0.2675 3.0974 0.4344 0
M  V30 16 C -0.5466 -1.3179 0.342 0
M  V30 17 C 0.6916 3.0173 2.7756 0
M  V30 18 N -1.3161 -0.4773 -0.5905 0
M  V30 19 C -0.2098 3.7738 1.8055 0
M  V30 20 C -1.603 -1.1655 -1.8641 0
M  V30 21 C -2.651 -2.2755 -1.6967 0
M  V30 22 C -3.2652 -2.7929 -3.0285 0
M  V30 23 C -2.133 -3.7276 -1.4829 0
M  V30 24 C -2.2356 -3.9349 -3.0046 0
M  V30 25 H 5.9666 -0.002 1.3982 0
M  V30 26 H 2.7757 0.3847 2.7521 0
M  V30 27 H 5.2455 0.2051 -0.7359 0
M  V30 28 H 3.2826 0.5458 -2.17 0
M  V30 29 H 0.8485 1.8517 -1.9631 0
M  V30 30 H 0.7615 0.132 -2.2758 0
M  V30 31 H 0.4267 -1.2325 2.2682 0
M  V30 32 H -1.1969 -0.5767 2.2545 0
M  V30 33 H -0.7009 1.4855 3.3198 0
M  V30 34 H 0.9564 1.0389 3.5993 0
M  V30 35 H -1.3737 1.414 -1.4719 0
M  V30 36 H -2.3847 0.7441 0.7396 0
M  V30 37 H 0.7017 3.2309 -0.0567 0
M  V30 38 H -1.0093 3.6269 -0.1766 0
M  V30 39 H -1.1207 -2.2179 0.5862 0
M  V30 40 H 0.3888 -1.6614 -0.1147 0
M  V30 41 H 1.7356 3.1132 2.4565 0
M  V30 42 H 0.6244 3.4796 3.7673 0
M  V30 43 H -1.2203 3.8429 2.2265 0
M  V30 44 H 0.152 4.8021 1.6923 0
M  V30 45 H -0.6903 -1.5556 -2.3294 0
M  V30 46 H -2.0241 -0.4305 -2.5619 0
M  V30 47 H -3.4312 -1.9768 -0.9837 0
M  V30 48 H -4.301 -3.1382 -2.9245 0
M  V30 49 H -3.2067 -2.1235 -3.8909 0
M  V30 50 H -2.8239 -4.3552 -0.9075 0
M  V30 51 H -1.1275 -3.8453 -1.0721 0
M  V30 52 H -2.6028 -4.9125 -3.3268 0
M  V30 53 H -1.3103 -3.7071 -3.5456 0
M  V30 END ATOM
M  V30 BEGIN BOND
M  V30 1 1 1 2
M  V30 2 2 2 3
M  V30 3 1 2 4
M  V30 4 1 3 5
M  V30 5 2 4 6
M  V30 6 2 5 7
M  V30 7 1 5 8
M  V30 8 1 7 9
M  V30 9 1 8 10
M  V30 10 1 8 11
M  V30 11 1 8 12
M  V30 12 1 9 13
M  V30 13 1 10 14
M  V30 14 1 10 15
M  V30 15 1 11 16
M  V30 16 1 12 17
M  V30 17 1 13 18
M  V30 18 1 15 19
M  V30 19 1 18 20
M  V30 20 1 20 21
M  V30 21 1 21 22
M  V30 22 1 21 23
M  V30 23 1 22 24
M  V30 24 1 6 7
M  V30 25 1 10 13
M  V30 26 1 16 18
M  V30 27 1 17 19
M  V30 28 1 23 24
M  V30 29 1 1 25
M  V30 30 1 3 26
M  V30 31 1 4 27
M  V30 32 1 6 28
M  V30 33 1 9 29
M  V30 34 1 9 30
M  V30 35 1 11 31
M  V30 36 1 11 32
M  V30 37 1 12 33
M  V30 38 1 12 34
M  V30 39 1 13 35
M  V30 40 1 14 36
M  V30 41 1 15 37
M  V30 42 1 15 38
M  V30 43 1 16 39
M  V30 44 1 16 40
M  V30 45 1 17 41
M  V30 46 1 17 42
M  V30 47 1 19 43
M  V30 48 1 19 44
M  V30 49 1 20 45
M  V30 50 1 20 46
M  V30 51 1 21 47
M  V30 52 1 22 48
M  V30 53 1 22 49
M  V30 54 1 23 50
M  V30 55 1 23 51
M  V30 56 1 24 52
M  V30 57 1 24 53
M  V30 END BOND
M  V30 BEGIN COLLECTION
M  V30 MDLV30/STEABS ATOMS=(3 8 10 13)
M  V30 END COLLECTION
M  V30 END CTAB
M  END
>  <Column 1>
2364

>  <level_0>
2545

>  <index>
2545

>  <Unnamed: 0>
2545

>  <NO.>
2557

>  <Name>
butorphanol

>  <IUPAC_name>
(1s-9r-10s)-17-(cyclobutylmethyl)-17-azatetracyclo[7.5.3.01-10.02-7]heptadeca-2(7)-3-5-triene-4-10-diol

>  <SMILES>
Oc1ccc2c(c1)[C@@]13CCCC[C@@]1(O)[C@@H](C2)N(CC1CCC1)CC3

>  <CID>
5361092

>  <logBB>


>  <BBB+/BBB->
BBB+

>  <Inchi>
InChI=1S/C21H29NO2/c23-17-7-6-16-12-19-21(24)9-2-1-8-20(21-18(16)13-17)10-11-22(19)14-15-4-3-5-15/h6-7-13-15-19-23-24H-1-5-8-12-14H2/t19--20+-21-/m1/s1

>  <threshold>
-1

>  <reference>
R1|R6|R15|R27|R27|R30|R30|

>  <group>
B

>  <Class>
1

>  <ABC>
19.77

>  <ABCGG>
15.07

>  <nAcid>
0

>  <nBase>
1

>  <nAromAtom>
6

>  <nAromBond>
6

>  <nAtom>
53

>  <nHeavyAtom>
24

>  <nSpiro>
0

>  <nBridgehead>
2

>  <nHetero>
3

>  <nN>
1

>  <nO>
2

>  <nF>
0

>  <BalabanJ>
1.48

>  <BertzCT>
655.24

>  <nBonds>
57

>  <nBondsO>
28

>  <nBondsS>
51

>  <nBondsD>
0

>  <nBondsT>
0

>  <nBondsA>
6

>  <nBondsM>
6

>  <nBondsKS>
54

>  <nBondsKD>
3

>  <RNCG>
0.29

>  <RPCG>
0.17

>  <FCSP3>
0.71

>  <SZ>
29.67

>  <Sm>
27.26

>  <Sv>
31.04

>  <Sse>
52.2

>  <Sp>
34.2

>  <Si>
59.73

>  <MZ>
0.56

>  <Mm>
0.51

>  <Mv>
0.59

>  <Mse>
0.98

>  <Mp>
0.65

>  <Mi>
1.13

>  <NsCH3>
0

>  <NdCH2>
0

>  <NssCH2>
11

>  <NtCH>
0

>  <NdsCH>
0

>  <NaaCH>
3

>  <NsssCH>
2

>  <NddC>
0

>  <NtsC>
0

>  <NdssC>
0

>  <NaasC>
3

>  <NaaaC>
0

>  <NssssC>
2

>  <NsNH3>
0

>  <NsNH2>
0

>  <NssNH2>
0

>  <NdNH>
0

>  <NssNH>
0

>  <NaaNH>
0

>  <NtN>
0

>  <NsssNH>
0

>  <NdsN>
0

>  <NaaN>
0

>  <NsssN>
1

>  <NddsN>
0

>  <NaasN>
0

>  <NssssN>
0

>  <NsOH>
2

>  <NdO>
0

>  <NssO>
0

>  <NaaO>
0

>  <NsF>
0

>  <NsSiH3>
0

>  <NssSiH2>
0

>  <NsssSiH>
0

>  <NssssSi>
0

>  <NsPH2>
0

>  <NssPH>
0

>  <NsssP>
0

>  <NdsssP>
0

>  <NsssssP>
0

>  <NsSH>
0

>  <NdS>
0

>  <NssS>
0

>  <NaaS>
0

>  <NdssS>
0

>  <NddssS>
0

>  <NsCl>
0

>  <NsBr>
0

>  <NsI>
0

>  <fragCpx>
232.03

>  <fMF>
0.42

>  <nHBAcc>
3

>  <nHBDon>
2

>  <Kier1>
16.19

>  <Kier2>
5.75

>  <Lipinski>
1

>  <GhoseFilter>
1

>  <FilterItLogS>
-3.9

>  <VMcGowan>
261.27

>  <LabuteASA>
144.23

>  <PEOE_VSA1>
10.21

>  <PEOE_VSA2>
4.9

>  <PEOE_VSA3>
0

>  <PEOE_VSA4>
0

>  <PEOE_VSA5>
0

>  <PEOE_VSA6>
25.33

>  <PEOE_VSA7>
74.25

>  <PEOE_VSA8>
18

>  <PEOE_VSA9>
5.6

>  <PEOE_VSA10>
5.75

>  <PEOE_VSA11>
0

>  <PEOE_VSA12>
0

>  <PEOE_VSA13>
0

>  <SMR_VSA1>
10.21

>  <SMR_VSA2>
0

>  <SMR_VSA3>
4.9

>  <SMR_VSA4>
5.92

>  <SMR_VSA5>
74.85

>  <SMR_VSA6>
13.09

>  <SMR_VSA7>
29.33

>  <SMR_VSA8>
0

>  <SMR_VSA9>
5.75

>  <SlogP_VSA1>
0

>  <SlogP_VSA2>
39.85

>  <SlogP_VSA3>
11.84

>  <SlogP_VSA4>
5.92

>  <SlogP_VSA5>
62.49

>  <SlogP_VSA6>
18.2

>  <SlogP_VSA7>
0

>  <SlogP_VSA8>
0

>  <SlogP_VSA9>
0

>  <SlogP_VSA10>
0

>  <SlogP_VSA11>
5.75

>  <EState_VSA1>
5.6

>  <EState_VSA2>
11.46

>  <EState_VSA3>
5.75

>  <EState_VSA4>
44.57

>  <EState_VSA5>
43.35

>  <EState_VSA6>
0

>  <EState_VSA7>
12.13

>  <EState_VSA8>
10.97

>  <EState_VSA9>
0

>  <EState_VSA10>
10.21

>  <VSA_EState1>
0

>  <VSA_EState2>
2.63

>  <VSA_EState3>
22.02

>  <VSA_EState4>
1.89

>  <VSA_EState5>
1.21

>  <VSA_EState6>
6.17

>  <VSA_EState7>
10.46

>  <VSA_EState8>
2.29

>  <VSA_EState9>
0

>  <apol>
57.11

>  <bpol>
30.8

>  <nRing>
5

>  <nHRing>
1

>  <naRing>
1

>  <naHRing>
0

>  <nARing 2>
4

>  <nAHRing 2>
1

>  <nFRing>
1

>  <nFHRing>
1

>  <nFaRing>
0

>  <nFaHRing>
0

>  <nFARing 2>
1

>  <nFAHRing 2>
1

>  <nRot>
2

>  <SLogP>
3.37

>  <SMR>
94.23

>  <TopoPSA(NO)>
43.7

>  <TopoPSA>
43.7

>  <JGI1>
0.21

>  <JGI2>
0.11

>  <JGI3>
0.06

>  <JGI4>
0.05

>  <JGI5>
0.03

>  <Diameter>
11

>  <Radius>
6

>  <TMWC10>
131.22

>  <TSRW10>
60.33

>  <MW>
327.22

>  <AMW>
6.17

>  <WPath>
1145

>  <WPol>
50

>  <Zagreb1>
144

>  <Zagreb2>
183

>  <mZagreb2>
4.99

>  <yes>


>  <nAR-cont>
0.199399

>  <nHA-cont>
0.94700071

>  <MWHBN>
0.276407666

>  <MWHBN-cont>
0.905013612

>  <TPSA-cont>
0.694946864

>  <pka_cont>
0.97

>  <yes.1>


>  <BBB_SCORE>
4.378813855

>  <MMFF94 Energy>
91.136

$$$$
Compound 1938
Actelion Java MolfileCreator 2.0

  0  0  0  0  0  0              0 V3000
M  V30 BEGIN CTAB
M  V30 COUNTS 37 41 0 0 0
M  V30 BEGIN ATOM
M  V30 1 O -1.8741 1.548 0.3257 0
M  V30 2 C -0.5219 1.8032 0.334 0
M  V30 3 C -1.9225 0.0631 0.3194 0
M  V30 4 C 0.1046 2.9681 0.7057 0
M  V30 5 C 0.2202 0.7009 -0.0276 0
M  V30 6 C -0.6786 -0.4066 -0.4551 0
M  V30 7 C -1.9825 -0.4099 1.8044 0
M  V30 8 O -0.6007 4.077 1.0525 0
M  V30 9 C 1.4995 2.9882 0.7521 0
M  V30 10 C 1.5988 0.6553 0.0502 0
M  V30 11 C -0.08 -1.7669 -0.0865 0
M  V30 12 C -0.8481 -0.3545 -1.9896 0
M  V30 13 O -3.2922 -0.9039 2.0967 0
M  V30 14 C -1.0181 -1.486 2.2062 0
M  V30 15 C 2.2465 1.8294 0.442 0
M  V30 16 C 2.2888 -0.6584 -0.2106 0
M  V30 17 C -0.143 -2.0798 1.382 0
M  V30 18 C 1.343 -1.7997 -0.7224 0
M  V30 19 C 0.4732 -0.6402 -2.7223 0
M  V30 20 N 1.2068 -1.8008 -2.2034 0
M  V30 21 H -2.8438 -0.2184 -0.205 0
M  V30 22 H -1.8204 0.4399 2.4791 0
M  V30 23 H -1.5403 3.8469 0.9294 0
M  V30 24 H 2.0136 3.8968 1.0547 0
M  V30 25 H -0.6778 -2.5619 -0.5588 0
M  V30 26 H -1.5931 -1.1024 -2.292 0
M  V30 27 H -1.2331 0.6182 -2.3212 0
M  V30 28 H -3.8939 -0.1411 2.0434 0
M  V30 29 H -1.0483 -1.7866 3.2512 0
M  V30 30 H 3.3307 1.8582 0.5215 0
M  V30 31 H 3.1148 -0.5109 -0.9169 0
M  V30 32 H 2.7319 -0.9889 0.7378 0
M  V30 33 H 0.4996 -2.8685 1.7661 0
M  V30 34 H 1.8281 -2.7513 -0.4696 0
M  V30 35 H 0.2602 -0.8104 -3.7842 0
M  V30 36 H 1.1221 0.2424 -2.6967 0
M  V30 37 H 0.7122 -2.6493 -2.4825 0
M  V30 END ATOM
M  V30 BEGIN BOND
M  V30 1 1 1 2
M  V30 2 1 1 3
M  V30 3 2 2 4
M  V30 4 1 2 5
M  V30 5 1 3 6
M  V30 6 1 3 7
M  V30 7 1 4 8
M  V30 8 1 4 9
M  V30 9 2 5 10
M  V30 10 1 6 11
M  V30 11 1 6 12
M  V30 12 1 7 13
M  V30 13 1 7 14
M  V30 14 2 9 15
M  V30 15 1 10 16
M  V30 16 1 11 17
M  V30 17 1 11 18
M  V30 18 1 12 19
M  V30 19 1 18 20
M  V30 20 1 5 6
M  V30 21 1 10 15
M  V30 22 2 14 17
M  V30 23 1 16 18
M  V30 24 1 19 20
M  V30 25 1 3 21
M  V30 26 1 7 22
M  V30 27 1 8 23
M  V30 28 1 9 24
M  V30 29 1 11 25
M  V30 30 1 12 26
M  V30 31 1 12 27
M  V30 32 1 13 28
M  V30 33 1 14 29
M  V30 34 1 15 30
M  V30 35 1 16 31
M  V30 36 1 16 32
M  V30 37 1 17 33
M  V30 38 1 18 34
M  V30 39 1 19 35
M  V30 40 1 19 36
M  V30 41 1 20 37
M  V30 END BOND
M  V30 END CTAB
M  END
>  <Column 1>
2365

>  <level_0>
2546

>  <index>
2546

>  <Unnamed: 0>
2546

>  <NO.>
2558

>  <Name>
normorphine

>  <IUPAC_name>
1-2-3-4-4a-7-7a-13-octahydro-4-12-methanobenzofuro[3-2-e]isoquinoline-7-9-diol

>  <SMILES>
Oc1ccc2c3c1OC1C(O)C=CC4C(C2)NCCC341

>  <CID>
430245

>  <logBB>


>  <BBB+/BBB->
BBB+

>  <Inchi>
InChI=1S/C16H17NO3/c18-11-3-1-8-7-10-9-2-4-12(19)15-16(9-5-6-17-10)13(8)14(11)20-15/h1-4-9-10-12-15-17-19H-5-7H2

>  <threshold>
-1

>  <reference>
R1|R19|R27|R27|R30|

>  <group>
B

>  <Class>
1

>  <ABC>
16.8

>  <ABCGG>
12.88

>  <nAcid>
0

>  <nBase>
1

>  <nAromAtom>
6

>  <nAromBond>
6

>  <nAtom>
37

>  <nHeavyAtom>
20

>  <nSpiro>
1

>  <nBridgehead>
2

>  <nHetero>
4

>  <nN>
1

>  <nO>
3

>  <nF>
0

>  <BalabanJ>
1.66

>  <BertzCT>
640.85

>  <nBonds>
41

>  <nBondsO>
24

>  <nBondsS>
34

>  <nBondsD>
1

>  <nBondsT>
0

>  <nBondsA>
6

>  <nBondsM>
7

>  <nBondsKS>
37

>  <nBondsKD>
4

>  <RNCG>
0.26

>  <RPCG>
0.15

>  <FCSP3>
0.5

>  <SZ>
24

>  <Sm>
22.59

>  <Sv>
23.51

>  <Sse>
37.2

>  <Sp>
24.89

>  <Si>
41.45

>  <MZ>
0.65

>  <Mm>
0.61

>  <Mv>
0.64

>  <Mse>
1.01

>  <Mp>
0.67

>  <Mi>
1.12

>  <NsCH3>
0

>  <NdCH2>
0

>  <NssCH2>
3

>  <NtCH>
0

>  <NdsCH>
2

>  <NaaCH>
2

>  <NsssCH>
4

>  <NddC>
0

>  <NtsC>
0

>  <NdssC>
0

>  <NaasC>
4

>  <NaaaC>
0

>  <NssssC>
1

>  <NsNH3>
0

>  <NsNH2>
0

>  <NssNH2>
0

>  <NdNH>
0

>  <NssNH>
1

>  <NaaNH>
0

>  <NtN>
0

>  <NsssNH>
0

>  <NdsN>
0

>  <NaaN>
0

>  <NsssN>
0

>  <NddsN>
0

>  <NaasN>
0

>  <NssssN>
0

>  <NsOH>
2

>  <NdO>
0

>  <NssO>
1

>  <NaaO>
0

>  <NsF>
0

>  <NsSiH3>
0

>  <NssSiH2>
0

>  <NsssSiH>
0

>  <NssssSi>
0

>  <NsPH2>
0

>  <NssPH>
0

>  <NsssP>
0

>  <NdsssP>
0

>  <NsssssP>
0

>  <NsSH>
0

>  <NdS>
0

>  <NssS>
0

>  <NaaS>
0

>  <NdssS>
0

>  <NddssS>
0

>  <NsCl>
0

>  <NsBr>
0

>  <NsI>
0

>  <fragCpx>
196.04

>  <fMF>
0.49

>  <nHBAcc>
4

>  <nHBDon>
3

>  <Kier1>
12.53

>  <Kier2>
4.05

>  <Lipinski>
1

>  <GhoseFilter>
1

>  <FilterItLogS>
-2.1

>  <VMcGowan>
192.39

>  <LabuteASA>
116.62

>  <PEOE_VSA1>
20.27

>  <PEOE_VSA2>
0

>  <PEOE_VSA3>
0

>  <PEOE_VSA4>
0

>  <PEOE_VSA5>
0

>  <PEOE_VSA6>
18.22

>  <PEOE_VSA7>
31.02

>  <PEOE_VSA8>
22.94

>  <PEOE_VSA9>
0

>  <PEOE_VSA10>
12.21

>  <PEOE_VSA11>
11.5

>  <PEOE_VSA12>
0

>  <PEOE_VSA13>
0

>  <SMR_VSA1>
14.95

>  <SMR_VSA2>
0

>  <SMR_VSA3>
5.32

>  <SMR_VSA4>
5.92

>  <SMR_VSA5>
36.51

>  <SMR_VSA6>
6.54

>  <SMR_VSA7>
35.41

>  <SMR_VSA8>
0

>  <SMR_VSA9>
11.5

>  <SlogP_VSA1>
10.05

>  <SlogP_VSA2>
35.01

>  <SlogP_VSA3>
11.84

>  <SlogP_VSA4>
5.92

>  <SlogP_VSA5>
17.55

>  <SlogP_VSA6>
24.28

>  <SlogP_VSA7>
0

>  <SlogP_VSA8>
0

>  <SlogP_VSA9>
0

>  <SlogP_VSA10>
0

>  <SlogP_VSA11>
11.5

>  <EState_VSA1>
6.1

>  <EState_VSA2>
17.27

>  <EState_VSA3>
17.71

>  <EState_VSA4>
24.95

>  <EState_VSA5>
5.56

>  <EState_VSA6>
6.07

>  <EState_VSA7>
12.14

>  <EState_VSA8>
11.39

>  <EState_VSA9>
4.74

>  <EState_VSA10>
10.21

>  <VSA_EState1>
6.04

>  <VSA_EState2>
0

>  <VSA_EState3>
24.13

>  <VSA_EState4>
2.26

>  <VSA_EState5>
1.16

>  <VSA_EState6>
4.14

>  <VSA_EState7>
5.08

>  <VSA_EState8>
0.94

>  <VSA_EState9>
0

>  <apol>
41.56

>  <bpol>
19.36

>  <nRing>
5

>  <nHRing>
2

>  <naRing>
1

>  <naHRing>
0

>  <nARing 2>
4

>  <nAHRing 2>
2

>  <nFRing>
1

>  <nFHRing>
1

>  <nFaRing>
0

>  <nFaHRing>
0

>  <nFARing 2>
1

>  <nFAHRing 2>
1

>  <nRot>
0

>  <SLogP>
0.86

>  <SMR>
72.95

>  <TopoPSA(NO)>
61.72

>  <TopoPSA>
61.72

>  <JGI1>
0.19

>  <JGI2>
0.1

>  <JGI3>
0.05

>  <JGI4>
0.05

>  <JGI5>
0.03

>  <Diameter>
7

>  <Radius>
4

>  <TMWC10>
122.9

>  <TSRW10>
70.28

>  <MW>
271.12

>  <AMW>
7.33

>  <WPath>
620

>  <WPol>
46

>  <Zagreb1>
126

>  <Zagreb2>
165

>  <mZagreb2>
4.1

>  <yes>


>  <nAR-cont>
0.199399

>  <nHA-cont>
0.999629945

>  <MWHBN>
0.425125604

>  <MWHBN-cont>
0.378267975

>  <TPSA-cont>
0.569156074

>  <pka_cont>
0.97

>  <yes.1>


>  <BBB_SCORE>
3.389743055

>  <MMFF94 Energy>
87.055

$$$$
Compound 1939
Actelion Java MolfileCreator 2.0

  0  0  0  0  0  0              0 V3000
M  V30 BEGIN CTAB
M  V30 COUNTS 53 58 0 0 0
M  V30 BEGIN ATOM
M  V30 1 O 2.6792 2.6792 -0.2433 0
M  V30 2 C 3.0772 1.3782 -0.0337 0
M  V30 3 C 1.3044 2.5334 -0.7771 0
M  V30 4 C 4.3567 0.8922 0.1047 0
M  V30 5 C 2.0044 0.51 -0.0248 0
M  V30 6 C 0.7254 1.2714 -0.1141 0
M  V30 7 C 1.4158 2.4699 -2.3252 0
M  V30 8 O 5.4154 1.7458 0.107 0
M  V30 9 C 4.5332 -0.4938 0.2104 0
M  V30 10 C 2.1326 -0.8663 0.029 0
M  V30 11 C -0.3122 0.4667 -0.8996 0
M  V30 12 C 0.1969 1.5293 1.3164 0
M  V30 13 O 1.4388 3.8023 -2.8533 0
M  V30 14 C 0.2839 1.7065 -3.0087 0
M  V30 15 C 3.4266 -1.3712 0.1557 0
M  V30 16 C 0.8941 -1.7133 -0.1242 0
M  V30 17 O -1.5625 1.1806 -0.9026 0
M  V30 18 C -0.4582 -0.9026 -0.1364 0
M  V30 19 C 0.0628 0.3264 -2.3853 0
M  V30 20 C -0.1539 0.2202 2.0463 0
M  V30 21 N -0.9478 -0.7548 1.2692 0
M  V30 22 C -2.3883 -0.4972 1.4442 0
M  V30 23 C -3.28 -1.5847 0.831 0
M  V30 24 C -3.149 -3.0254 1.3972 0
M  V30 25 C -4.7418 -1.6024 1.3545 0
M  V30 26 C -4.3221 -2.7068 2.3425 0
M  V30 27 H 0.749 3.4314 -0.48 0
M  V30 28 H 2.3722 2.0145 -2.6111 0
M  V30 29 H 6.2275 1.24 0.2637 0
M  V30 30 H 5.5283 -0.9177 0.3118 0
M  V30 31 H -0.692 2.1713 1.2737 0
M  V30 32 H 0.9348 2.0742 1.92 0
M  V30 33 H 1.7699 3.7472 -3.7655 0
M  V30 34 H 0.5168 1.5935 -4.075 0
M  V30 35 H -0.6384 2.3001 -2.9794 0
M  V30 36 H 3.5935 -2.4447 0.2075 0
M  V30 37 H 0.9764 -2.2472 -1.0798 0
M  V30 38 H 0.8677 -2.4781 0.662 0
M  V30 39 H -2.2474 0.5745 -1.2339 0
M  V30 40 H -1.1695 -1.5334 -0.6788 0
M  V30 41 H -0.7515 -0.1697 -2.9277 0
M  V30 42 H 0.9597 -0.2837 -2.5331 0
M  V30 43 H 0.7723 -0.2748 2.3623 0
M  V30 44 H -0.6515 0.4641 2.9941 0
M  V30 45 H -2.5937 -0.4643 2.5226 0
M  V30 46 H -2.6841 0.4838 1.0613 0
M  V30 47 H -3.2564 -1.5452 -0.2647 0
M  V30 48 H -3.3808 -3.8037 0.6606 0
M  V30 49 H -2.2065 -3.2796 1.8887 0
M  V30 50 H -5.4687 -1.9408 0.6065 0
M  V30 51 H -5.1107 -0.6781 1.8074 0
M  V30 52 H -5.0459 -3.5126 2.4882 0
M  V30 53 H -4.0102 -2.3292 3.3228 0
M  V30 END ATOM
M  V30 BEGIN BOND
M  V30 1 1 1 2
M  V30 2 1 1 3
M  V30 3 2 2 4
M  V30 4 1 2 5
M  V30 5 1 3 6
M  V30 6 1 3 7
M  V30 7 1 4 8
M  V30 8 1 4 9
M  V30 9 2 5 10
M  V30 10 1 6 11
M  V30 11 1 6 12
M  V30 12 1 7 13
M  V30 13 1 7 14
M  V30 14 2 9 15
M  V30 15 1 10 16
M  V30 16 1 11 17
M  V30 17 1 11 18
M  V30 18 1 11 19
M  V30 19 1 12 20
M  V30 20 1 18 21
M  V30 21 1 21 22
M  V30 22 1 22 23
M  V30 23 1 23 24
M  V30 24 1 23 25
M  V30 25 1 24 26
M  V30 26 1 5 6
M  V30 27 1 10 15
M  V30 28 1 14 19
M  V30 29 1 16 18
M  V30 30 1 20 21
M  V30 31 1 25 26
M  V30 32 1 3 27
M  V30 33 1 7 28
M  V30 34 1 8 29
M  V30 35 1 9 30
M  V30 36 1 12 31
M  V30 37 1 12 32
M  V30 38 1 13 33
M  V30 39 1 14 34
M  V30 40 1 14 35
M  V30 41 1 15 36
M  V30 42 1 16 37
M  V30 43 1 16 38
M  V30 44 1 17 39
M  V30 45 1 18 40
M  V30 46 1 19 41
M  V30 47 1 19 42
M  V30 48 1 20 43
M  V30 49 1 20 44
M  V30 50 1 22 45
M  V30 51 1 22 46
M  V30 52 1 23 47
M  V30 53 1 24 48
M  V30 54 1 24 49
M  V30 55 1 25 50
M  V30 56 1 25 51
M  V30 57 1 26 52
M  V30 58 1 26 53
M  V30 END BOND
M  V30 END CTAB
M  END
>  <Column 1>
2366

>  <level_0>
2547

>  <index>
2547

>  <Unnamed: 0>
2547

>  <NO.>
2559

>  <Name>
nalbuphine

>  <IUPAC_name>
3-(cyclobutylmethyl)-1-2-4-5-6-7-7a-13-octahydro-4-12-methanobenzofuro[3-2-e]isoquinoline-4a-7-9-triol

>  <SMILES>
Oc1ccc2c3c1OC1C(O)CCC4(O)C(C2)N(CC2CCC2)CCC314

>  <CID>
4419

>  <logBB>


>  <BBB+/BBB->
BBB+

>  <Inchi>
InChI=1S/C21H27NO4/c23-14-5-4-13-10-16-21(25)7-6-15(24)19-20(21-17(13)18(14)26-19)8-9-22(16)11-12-2-1-3-12/h4-5-12-15-16-19-23-25H-1-3-6-11H2

>  <threshold>
-1

>  <reference>
R1|R19|R14|R23|R27|R30|

>  <group>
B

>  <Class>
1

>  <ABC>
21.82

>  <ABCGG>
16.5

>  <nAcid>
0

>  <nBase>
1

>  <nAromAtom>
6

>  <nAromBond>
6

>  <nAtom>
53

>  <nHeavyAtom>
26

>  <nSpiro>
1

>  <nBridgehead>
2

>  <nHetero>
5

>  <nN>
1

>  <nO>
4

>  <nF>
0

>  <BalabanJ>
1.43

>  <BertzCT>
777.52

>  <nBonds>
58

>  <nBondsO>
31

>  <nBondsS>
52

>  <nBondsD>
0

>  <nBondsT>
0

>  <nBondsA>
6

>  <nBondsM>
6

>  <nBondsKS>
55

>  <nBondsKD>
3

>  <RNCG>
0.21

>  <RPCG>
0.12

>  <FCSP3>
0.71

>  <SZ>
32

>  <Sm>
29.76

>  <Sv>
31.93

>  <Sse>
52.97

>  <Sp>
34.36

>  <Si>
59.73

>  <MZ>
0.6

>  <Mm>
0.56

>  <Mv>
0.6

>  <Mse>
1

>  <Mp>
0.65

>  <Mi>
1.13

>  <NsCH3>
0

>  <NdCH2>
0

>  <NssCH2>
9

>  <NtCH>
0

>  <NdsCH>
0

>  <NaaCH>
2

>  <NsssCH>
4

>  <NddC>
0

>  <NtsC>
0

>  <NdssC>
0

>  <NaasC>
4

>  <NaaaC>
0

>  <NssssC>
2

>  <NsNH3>
0

>  <NsNH2>
0

>  <NssNH2>
0

>  <NdNH>
0

>  <NssNH>
0

>  <NaaNH>
0

>  <NtN>
0

>  <NsssNH>
0

>  <NdsN>
0

>  <NaaN>
0

>  <NsssN>
1

>  <NddsN>
0

>  <NaasN>
0

>  <NssssN>
0

>  <NsOH>
3

>  <NdO>
0

>  <NssO>
1

>  <NaaO>
0

>  <NsF>
0

>  <NsSiH3>
0

>  <NssSiH2>
0

>  <NsssSiH>
0

>  <NssssSi>
0

>  <NsPH2>
0

>  <NssPH>
0

>  <NsssP>
0

>  <NdsssP>
0

>  <NsssssP>
0

>  <NsSH>
0

>  <NdS>
0

>  <NssS>
0

>  <NaaS>
0

>  <NdssS>
0

>  <NddssS>
0

>  <NsCl>
0

>  <NsBr>
0

>  <NsI>
0

>  <fragCpx>
311.05

>  <fMF>
0.43

>  <nHBAcc>
5

>  <nHBDon>
3

>  <Kier1>
16.91

>  <Kier2>
5.54

>  <Lipinski>
1

>  <GhoseFilter>
1

>  <FilterItLogS>
-2.73

>  <VMcGowan>
262.15

>  <LabuteASA>
153.13

>  <PEOE_VSA1>
20.06

>  <PEOE_VSA2>
4.9

>  <PEOE_VSA3>
0

>  <PEOE_VSA4>
0

>  <PEOE_VSA5>
0

>  <PEOE_VSA6>
12.49

>  <PEOE_VSA7>
62.62

>  <PEOE_VSA8>
18.15

>  <PEOE_VSA9>
17.12

>  <PEOE_VSA10>
6.1

>  <PEOE_VSA11>
11.5

>  <PEOE_VSA12>
0

>  <PEOE_VSA13>
0

>  <SMR_VSA1>
20.06

>  <SMR_VSA2>
0

>  <SMR_VSA3>
4.9

>  <SMR_VSA4>
5.92

>  <SMR_VSA5>
74.21

>  <SMR_VSA6>
13.09

>  <SMR_VSA7>
23.26

>  <SMR_VSA8>
0

>  <SMR_VSA9>
11.5

>  <SlogP_VSA1>
4.74

>  <SlogP_VSA2>
57.16

>  <SlogP_VSA3>
11.84

>  <SlogP_VSA4>
5.92

>  <SlogP_VSA5>
49.65

>  <SlogP_VSA6>
12.13

>  <SlogP_VSA7>
0

>  <SlogP_VSA8>
0

>  <SlogP_VSA9>
0

>  <SlogP_VSA10>
0

>  <SlogP_VSA11>
11.5

>  <EState_VSA1>
23.22

>  <EState_VSA2>
11.79

>  <EState_VSA3>
18.59

>  <EState_VSA4>
37.41

>  <EState_VSA5>
24.83

>  <EState_VSA6>
6.07

>  <EState_VSA7>
6.07

>  <EState_VSA8>
4.9

>  <EState_VSA9>
4.74

>  <EState_VSA10>
15.32

>  <VSA_EState1>
6.16

>  <VSA_EState2>
2.53

>  <VSA_EState3>
33.19

>  <VSA_EState4>
0.71

>  <VSA_EState5>
1.42

>  <VSA_EState6>
3.8

>  <VSA_EState7>
5.68

>  <VSA_EState8>
2.02

>  <VSA_EState9>
0

>  <apol>
57.38

>  <bpol>
30.53

>  <nRing>
6

>  <nHRing>
2

>  <naRing>
1

>  <naHRing>
0

>  <nARing 2>
5

>  <nAHRing 2>
2

>  <nFRing>
1

>  <nFHRing>
1

>  <nFaRing>
0

>  <nFaHRing>
0

>  <nFARing 2>
1

>  <nFAHRing 2>
1

>  <nRot>
2

>  <SLogP>
1.71

>  <SMR>
95.41

>  <TopoPSA(NO)>
73.16

>  <TopoPSA>
73.16

>  <JGI1>
0.21

>  <JGI2>
0.11

>  <JGI3>
0.06

>  <JGI4>
0.06

>  <JGI5>
0.03

>  <Diameter>
11

>  <Radius>
6

>  <TMWC10>
138.48

>  <TSRW10>
77.79

>  <MW>
357.19

>  <AMW>
6.74

>  <WPath>
1356

>  <WPol>
60

>  <Zagreb1>
164

>  <Zagreb2>
215

>  <mZagreb2>
5.28

>  <yes>


>  <nAR-cont>
0

>  <nHA-cont>
0.892715677

>  <MWHBN>
0.423292273

>  <MWHBN-cont>
0.385292546

>  <TPSA-cont>
0.48929777

>  <pka_cont>
0.97

>  <yes.1>


>  <BBB_SCORE>
2.934250037

>  <MMFF94 Energy>
137.42

$$$$
Compound 1940
Actelion Java MolfileCreator 2.0

  0  0  0  0  0  0              0 V3000
M  V30 BEGIN CTAB
M  V30 COUNTS 18 19 0 0 0
M  V30 BEGIN ATOM
M  V30 1 O 0.9623 1.2832 -1.845 0
M  V30 2 C 0.3344 0.1439 -1.4087 0
M  V30 3 C 1.1032 1.0222 -3.1737 0
M  V30 4 N 0.1194 -0.7186 -2.3851 0
M  V30 5 C 0.0016 0.0364 0.0043 0
M  V30 6 N 0.6214 -0.1435 -3.5335 0
M  V30 7 C -0.6416 -1.1059 0.5103 0
M  V30 8 C 0.3134 1.0709 0.9038 0
M  V30 9 O -0.9968 -2.1797 -0.2653 0
M  V30 10 C -0.9619 -1.2121 1.8644 0
M  V30 11 C -0.0072 0.9653 2.2609 0
M  V30 12 C -0.6447 -0.1761 2.7401 0
M  V30 13 H 1.5816 1.775 -3.7813 0
M  V30 14 H 0.8113 1.9748 0.5583 0
M  V30 15 H -0.7346 -2.0169 -1.1934 0
M  V30 16 H -1.4596 -2.1052 2.2335 0
M  V30 17 H 0.2411 1.775 2.9431 0
M  V30 18 H -0.8952 -0.2611 3.7945 0
M  V30 END ATOM
M  V30 BEGIN BOND
M  V30 1 1 1 2
M  V30 2 1 1 3
M  V30 3 2 2 4
M  V30 4 1 2 5
M  V30 5 2 3 6
M  V30 6 2 5 7
M  V30 7 1 5 8
M  V30 8 1 7 9
M  V30 9 1 7 10
M  V30 10 2 8 11
M  V30 11 2 10 12
M  V30 12 1 4 6
M  V30 13 1 11 12
M  V30 14 1 3 13
M  V30 15 1 8 14
M  V30 16 1 9 15
M  V30 17 1 10 16
M  V30 18 1 11 17
M  V30 19 1 12 18
M  V30 END BOND
M  V30 END CTAB
M  END
>  <Column 1>
2367

>  <level_0>
2548

>  <index>
2548

>  <Unnamed: 0>
2548

>  <NO.>
2560

>  <Name>
fenadiazole

>  <IUPAC_name>
2-(1-3-4-oxadiazol-2-yl)phenol

>  <SMILES>
Oc1ccccc1-c1nnco1

>  <CID>
13883

>  <logBB>


>  <BBB+/BBB->
BBB+

>  <Inchi>
InChI=1S/C8H6N2O2/c11-7-4-2-1-3-6(7)8-10-9-5-12-8/h1-5-11H

>  <threshold>
-1

>  <reference>
R1|R13|R13|R19|R6|R24|R27|R27|R27|R30|R30|

>  <group>
B

>  <Class>
1

>  <ABC>
9.22

>  <ABCGG>
8.58

>  <nAcid>
0

>  <nBase>
0

>  <nAromAtom>
11

>  <nAromBond>
11

>  <nAtom>
18

>  <nHeavyAtom>
12

>  <nSpiro>
0

>  <nBridgehead>
0

>  <nHetero>
4

>  <nN>
2

>  <nO>
2

>  <nF>
0

>  <BalabanJ>
1.91

>  <BertzCT>
370.31

>  <nBonds>
19

>  <nBondsO>
13

>  <nBondsS>
8

>  <nBondsD>
0

>  <nBondsT>
0

>  <nBondsA>
11

>  <nBondsM>
11

>  <nBondsKS>
14

>  <nBondsKD>
5

>  <RNCG>
0.38

>  <RPCG>
0.22

>  <FCSP3>
0

>  <SZ>
14

>  <Sm>
13.5

>  <Sv>
12.57

>  <Sse>
18.65

>  <Sp>
12.67

>  <Si>
20.25

>  <MZ>
0.78

>  <Mm>
0.75

>  <Mv>
0.7

>  <Mse>
1.04

>  <Mp>
0.7

>  <Mi>
1.12

>  <NsCH3>
0

>  <NdCH2>
0

>  <NssCH2>
0

>  <NtCH>
0

>  <NdsCH>
0

>  <NaaCH>
5

>  <NsssCH>
0

>  <NddC>
0

>  <NtsC>
0

>  <NdssC>
0

>  <NaasC>
3

>  <NaaaC>
0

>  <NssssC>
0

>  <NsNH3>
0

>  <NsNH2>
0

>  <NssNH2>
0

>  <NdNH>
0

>  <NssNH>
0

>  <NaaNH>
0

>  <NtN>
0

>  <NsssNH>
0

>  <NdsN>
0

>  <NaaN>
2

>  <NsssN>
0

>  <NddsN>
0

>  <NaasN>
0

>  <NssssN>
0

>  <NsOH>
1

>  <NdO>
0

>  <NssO>
0

>  <NaaO>
1

>  <NsF>
0

>  <NsSiH3>
0

>  <NssSiH2>
0

>  <NsssSiH>
0

>  <NssssSi>
0

>  <NsPH2>
0

>  <NssPH>
0

>  <NsssP>
0

>  <NdsssP>
0

>  <NsssssP>
0

>  <NsSH>
0

>  <NdS>
0

>  <NssS>
0

>  <NaaS>
0

>  <NdssS>
0

>  <NddssS>
0

>  <NsCl>
0

>  <NsBr>
0

>  <NsI>
0

>  <fragCpx>
37.04

>  <fMF>
0.61

>  <nHBAcc>
4

>  <nHBDon>
1

>  <Kier1>
8.59

>  <Kier2>
3.81

>  <Lipinski>
1

>  <GhoseFilter>
0

>  <FilterItLogS>
-2.04

>  <VMcGowan>
112.06

>  <LabuteASA>
68.48

>  <PEOE_VSA1>
9.52

>  <PEOE_VSA2>
0

>  <PEOE_VSA3>
0

>  <PEOE_VSA4>
0

>  <PEOE_VSA5>
10.2

>  <PEOE_VSA6>
12.13

>  <PEOE_VSA7>
12.13

>  <PEOE_VSA8>
0

>  <PEOE_VSA9>
5.56

>  <PEOE_VSA10>
5.75

>  <PEOE_VSA11>
0

>  <PEOE_VSA12>
6.39

>  <PEOE_VSA13>
5.89

>  <SMR_VSA1>
9.52

>  <SMR_VSA2>
0

>  <SMR_VSA3>
10.2

>  <SMR_VSA4>
0

>  <SMR_VSA5>
0

>  <SMR_VSA6>
0

>  <SMR_VSA7>
30.66

>  <SMR_VSA8>
0

>  <SMR_VSA9>
17.2

>  <SlogP_VSA1>
0

>  <SlogP_VSA2>
15.3

>  <SlogP_VSA3>
0

>  <SlogP_VSA4>
0

>  <SlogP_VSA5>
0

>  <SlogP_VSA6>
35.08

>  <SlogP_VSA7>
0

>  <SlogP_VSA8>
11.45

>  <SlogP_VSA9>
0

>  <SlogP_VSA10>
0

>  <SlogP_VSA11>
5.75

>  <EState_VSA1>
0

>  <EState_VSA2>
5.75

>  <EState_VSA3>
11.45

>  <EState_VSA4>
0

>  <EState_VSA5>
6.39

>  <EState_VSA6>
24.27

>  <EState_VSA7>
0

>  <EState_VSA8>
10.2

>  <EState_VSA9>
4.42

>  <EState_VSA10>
5.11

>  <VSA_EState1>
4.92

>  <VSA_EState2>
0

>  <VSA_EState3>
16.54

>  <VSA_EState4>
0.55

>  <VSA_EState5>
0.47

>  <VSA_EState6>
6.8

>  <VSA_EState7>
1.22

>  <VSA_EState8>
0

>  <VSA_EState9>
0

>  <apol>
21.16

>  <bpol>
8.9

>  <nRing>
2

>  <nHRing>
1

>  <naRing>
2

>  <naHRing>
1

>  <nARing 2>
0

>  <nAHRing 2>
0

>  <nFRing>
0

>  <nFHRing>
0

>  <nFaRing>
0

>  <nFaHRing>
0

>  <nFARing 2>
0

>  <nFAHRing 2>
0

>  <nRot>
1

>  <SLogP>
1.44

>  <SMR>
41.4

>  <TopoPSA(NO)>
59.15

>  <TopoPSA>
59.15

>  <JGI1>
0.12

>  <JGI2>
0.08

>  <JGI3>
0.05

>  <JGI4>
0.03

>  <JGI5>
0.02

>  <Diameter>
6

>  <Radius>
3

>  <TMWC10>
92.26

>  <TSRW10>
55.77

>  <MW>
162.04

>  <AMW>
9

>  <WPath>
189

>  <WPol>
14

>  <Zagreb1>
60

>  <Zagreb2>
69

>  <mZagreb2>
2.72

>  <yes>


>  <nAR-cont>
0.336376

>  <nHA-cont>
0.785745021

>  <MWHBN>
0.392788611

>  <MWHBN-cont>
0.504471861

>  <TPSA-cont>
0.58709627

>  <pka_cont>
0.97

>  <yes.1>


>  <BBB_SCORE>
3.538021352

>  <MMFF94 Energy>
29.039

$$$$
Compound 1941
Actelion Java MolfileCreator 2.0

  0  0  0  0  0  0              0 V3000
M  V30 BEGIN CTAB
M  V30 COUNTS 28 29 0 0 0
M  V30 BEGIN ATOM
M  V30 1 S -3.0423 1.2 3.0423 0
M  V30 2 C -2.1575 -0.015 2.3486 0
M  V30 3 O -2.5888 -0.5063 1.1674 0
M  V30 4 N -1.0578 -0.555 2.9379 0
M  V30 5 C -1.81 -1.4615 0.4116 0 CFG=2
M  V30 6 C -0.2274 -1.5678 2.3462 0
M  V30 7 C -0.9917 -2.3705 1.3201 0
M  V30 8 C -1.0155 -0.7321 -0.6853 0
M  V30 9 O 0.0191 0.0718 -0.1222 0
M  V30 10 C 0.7976 0.7897 -0.9864 0
M  V30 11 C 0.6976 0.7894 -2.3783 0
M  V30 12 C 1.7723 1.5802 -0.3715 0
M  V30 13 C 1.5673 1.5725 -3.1443 0
M  V30 14 C 2.6405 2.3622 -1.135 0
M  V30 15 C 2.5378 2.3575 -2.5237 0
M  V30 16 H -0.7764 -0.1319 3.8144 0
M  V30 17 H -2.5471 -2.0913 -0.102 0
M  V30 18 H 0.652 -1.0774 1.9212 0
M  V30 19 H 0.1281 -2.2175 3.1529 0
M  V30 20 H -0.3203 -3.0166 0.7449 0
M  V30 21 H -1.6886 -3.0273 1.858 0
M  V30 22 H -0.5761 -1.4813 -1.355 0
M  V30 23 H -1.7062 -0.0887 -1.2446 0
M  V30 24 H -0.045 0.1962 -2.9004 0
M  V30 25 H 1.852 1.5908 0.7127 0
M  V30 26 H 1.4845 1.5714 -4.2283 0
M  V30 27 H 3.392 2.9754 -0.6449 0
M  V30 28 H 3.2104 2.9669 -3.1217 0
M  V30 END ATOM
M  V30 BEGIN BOND
M  V30 1 2 1 2
M  V30 2 1 2 3
M  V30 3 1 2 4
M  V30 4 1 3 5
M  V30 5 1 4 6
M  V30 6 1 5 7
M  V30 7 1 5 8
M  V30 8 1 8 9
M  V30 9 1 9 10
M  V30 10 2 10 11
M  V30 11 1 10 12
M  V30 12 1 11 13
M  V30 13 2 12 14
M  V30 14 2 13 15
M  V30 15 1 6 7
M  V30 16 1 14 15
M  V30 17 1 4 16
M  V30 18 1 5 17
M  V30 19 1 6 18
M  V30 20 1 6 19
M  V30 21 1 7 20
M  V30 22 1 7 21
M  V30 23 1 8 22
M  V30 24 1 8 23
M  V30 25 1 11 24
M  V30 26 1 12 25
M  V30 27 1 13 26
M  V30 28 1 14 27
M  V30 29 1 15 28
M  V30 END BOND
M  V30 BEGIN COLLECTION
M  V30 MDLV30/STERAC1 ATOMS=(1 5)
M  V30 END COLLECTION
M  V30 END CTAB
M  END
>  <Column 1>
2368

>  <level_0>
2549

>  <index>
2549

>  <Unnamed: 0>
2549

>  <NO.>
2561

>  <Name>
tifemoxone

>  <IUPAC_name>
6-(phenoxymethyl)-1-3-oxazinane-2-thione

>  <SMILES>
S=C1NCCC(COc2ccccc2)O1

>  <CID>
3033964

>  <logBB>


>  <BBB+/BBB->
BBB+

>  <Inchi>
InChI=1S/C11H13NO2S/c15-11-12-7-6-10(14-11)8-13-9-4-2-1-3-5-9/h1-5-10H-6-8H2-(H-12-15)

>  <threshold>
-1

>  <reference>
R1|R19|R6|R27|R27|R30|

>  <group>
B

>  <Class>
-1

>  <ABC>
11.42

>  <ABCGG>
9.4

>  <nAcid>
0

>  <nBase>
0

>  <nAromAtom>
6

>  <nAromBond>
6

>  <nAtom>
28

>  <nHeavyAtom>
15

>  <nSpiro>
0

>  <nBridgehead>
0

>  <nHetero>
4

>  <nN>
1

>  <nO>
2

>  <nF>
0

>  <BalabanJ>
1.63

>  <BertzCT>
328.62

>  <nBonds>
29

>  <nBondsO>
16

>  <nBondsS>
22

>  <nBondsD>
1

>  <nBondsT>
0

>  <nBondsA>
6

>  <nBondsM>
7

>  <nBondsKS>
25

>  <nBondsKD>
4

>  <RNCG>
0.32

>  <RPCG>
0.17

>  <FCSP3>
0.36

>  <SZ>
19.67

>  <Sm>
18.59

>  <Sv>
17.9

>  <Sse>
28.17

>  <Sp>
19.55

>  <Si>
31.33

>  <MZ>
0.7

>  <Mm>
0.66

>  <Mv>
0.64

>  <Mse>
1.01

>  <Mp>
0.7

>  <Mi>
1.12

>  <NsCH3>
0

>  <NdCH2>
0

>  <NssCH2>
3

>  <NtCH>
0

>  <NdsCH>
0

>  <NaaCH>
5

>  <NsssCH>
1

>  <NddC>
0

>  <NtsC>
0

>  <NdssC>
1

>  <NaasC>
1

>  <NaaaC>
0

>  <NssssC>
0

>  <NsNH3>
0

>  <NsNH2>
0

>  <NssNH2>
0

>  <NdNH>
0

>  <NssNH>
1

>  <NaaNH>
0

>  <NtN>
0

>  <NsssNH>
0

>  <NdsN>
0

>  <NaaN>
0

>  <NsssN>
0

>  <NddsN>
0

>  <NaasN>
0

>  <NssssN>
0

>  <NsOH>
0

>  <NdO>
0

>  <NssO>
2

>  <NaaO>
0

>  <NsF>
0

>  <NsSiH3>
0

>  <NssSiH2>
0

>  <NsssSiH>
0

>  <NssssSi>
0

>  <NsPH2>
0

>  <NssPH>
0

>  <NsssP>
0

>  <NdsssP>
0

>  <NsssssP>
0

>  <NsSH>
0

>  <NdS>
1

>  <NssS>
0

>  <NaaS>
0

>  <NdssS>
0

>  <NddssS>
0

>  <NsCl>
0

>  <NsBr>
0

>  <NsI>
0

>  <fragCpx>
46.04

>  <fMF>
0.5

>  <nHBAcc>
3

>  <nHBDon>
1

>  <Kier1>
11.48

>  <Kier2>
5.92

>  <Lipinski>
1

>  <GhoseFilter>
1

>  <FilterItLogS>
-2.56

>  <VMcGowan>
165

>  <LabuteASA>
94.39

>  <PEOE_VSA1>
14.79

>  <PEOE_VSA2>
0

>  <PEOE_VSA3>
0

>  <PEOE_VSA4>
0

>  <PEOE_VSA5>
0

>  <PEOE_VSA6>
18.2

>  <PEOE_VSA7>
24.35

>  <PEOE_VSA8>
12.97

>  <PEOE_VSA9>
0

>  <PEOE_VSA10>
18.46

>  <PEOE_VSA11>
0

>  <PEOE_VSA12>
0

>  <PEOE_VSA13>
5.17

>  <SMR_VSA1>
9.47

>  <SMR_VSA2>
0

>  <SMR_VSA3>
5.32

>  <SMR_VSA4>
0

>  <SMR_VSA5>
12.52

>  <SMR_VSA6>
13.15

>  <SMR_VSA7>
30.33

>  <SMR_VSA8>
0

>  <SMR_VSA9>
5.75

>  <SlogP_VSA1>
10.05

>  <SlogP_VSA2>
24.43

>  <SlogP_VSA3>
4.74

>  <SlogP_VSA4>
0

>  <SlogP_VSA5>
6.42

>  <SlogP_VSA6>
30.33

>  <SlogP_VSA7>
0

>  <SlogP_VSA8>
0

>  <SlogP_VSA9>
0

>  <SlogP_VSA10>
0

>  <SlogP_VSA11>
5.75

>  <EState_VSA1>
0

>  <EState_VSA2>
6.1

>  <EState_VSA3>
11.78

>  <EState_VSA4>
18.72

>  <EState_VSA5>
0

>  <EState_VSA6>
0

>  <EState_VSA7>
30.33

>  <EState_VSA8>
5.32

>  <EState_VSA9>
21.69

>  <EState_VSA10>
0

>  <VSA_EState1>
10.98

>  <VSA_EState2>
0

>  <VSA_EState3>
3.44

>  <VSA_EState4>
0

>  <VSA_EState5>
0.87

>  <VSA_EState6>
9.72

>  <VSA_EState7>
0.99

>  <VSA_EState8>
1.41

>  <VSA_EState9>
0

>  <apol>
32.64

>  <bpol>
18.31

>  <nRing>
2

>  <nHRing>
1

>  <naRing>
1

>  <naHRing>
0

>  <nARing 2>
1

>  <nAHRing 2>
1

>  <nFRing>
0

>  <nFHRing>
0

>  <nFaRing>
0

>  <nFaHRing>
0

>  <nFARing 2>
0

>  <nFAHRing 2>
0

>  <nRot>
3

>  <SLogP>
1.73

>  <SMR>
62.03

>  <TopoPSA(NO)>
30.49

>  <TopoPSA>
62.58

>  <JGI1>
0.16

>  <JGI2>
0.04

>  <JGI3>
0.03

>  <JGI4>
0.04

>  <JGI5>
0.02

>  <Diameter>
9

>  <Radius>
5

>  <TMWC10>
98.33

>  <TSRW10>
46.25

>  <MW>
223.07

>  <AMW>
7.97

>  <WPath>
412

>  <WPol>
17

>  <Zagreb1>
72

>  <Zagreb2>
79

>  <mZagreb2>
3.42

>  <yes>


>  <nAR-cont>
0.816016

>  <nHA-cont>
0.92539861

>  <MWHBN>
0.267817781

>  <MWHBN-cont>
0.92500087

>  <TPSA-cont>
0.56315274

>  <pka_cont>
0.97

>  <yes.1>


>  <BBB_SCORE>
4.740221396

>  <MMFF94 Energy>
-19.381

$$$$
Compound 1942
Actelion Java MolfileCreator 2.0

  0  0  0  0  0  0              0 V3000
M  V30 BEGIN CTAB
M  V30 COUNTS 34 35 0 0 0
M  V30 BEGIN ATOM
M  V30 1 O 2.7167 -4.2373 -5.1986 0
M  V30 2 C 2.1163 -3.3556 -4.3501 0
M  V30 3 C 2.8071 -2.2683 -3.8258 0
M  V30 4 C 0.7833 -3.5761 -4.0251 0
M  V30 5 C 2.1507 -1.3901 -2.959 0
M  V30 6 C 0.1281 -2.7003 -3.1573 0
M  V30 7 C 0.811 -1.6072 -2.6108 0
M  V30 8 C 0.0957 -0.69 -1.7162 0
M  V30 9 C 0.3971 -0.4819 -0.4184 0
M  V30 10 N 1.5298 -1.2235 0.1897 0 CHG=1
M  V30 11 C -0.3475 0.445 0.4396 0
M  V30 12 C 2.4242 -1.7971 0.6853 0 CHG=-1
M  V30 13 N -1.3761 1.3014 -0.2019 0 CHG=1
M  V30 14 C -0.1438 0.5457 1.7688 0
M  V30 15 C -2.1812 1.9735 -0.7262 0 CHG=-1
M  V30 16 C -0.8649 1.4563 2.6653 0
M  V30 17 C -0.7444 2.847 2.5437 0
M  V30 18 C -1.6596 0.9228 3.687 0
M  V30 19 C -1.4281 3.695 3.4194 0
M  V30 20 C -2.3406 1.7702 4.5631 0
M  V30 21 C -2.2223 3.1474 4.4213 0
M  V30 22 O -2.9068 3.9365 5.2969 0
M  V30 23 H 3.6462 -3.9783 -5.3092 0
M  V30 24 H 3.8471 -2.0868 -4.0777 0
M  V30 25 H 0.2559 -4.428 -4.4449 0
M  V30 26 H 2.6965 -0.538 -2.56 0
M  V30 27 H -0.915 -2.8846 -2.9107 0
M  V30 28 H -0.7443 -0.19 -2.1924 0
M  V30 29 H 0.5783 -0.0839 2.283 0
M  V30 30 H -0.1195 3.284 1.7683 0
M  V30 31 H -1.7612 -0.153 3.8087 0
M  V30 32 H -1.3274 4.7696 3.3044 0
M  V30 33 H -2.9622 1.3571 5.3526 0
M  V30 34 H -2.7566 4.8664 5.0602 0
M  V30 END ATOM
M  V30 BEGIN BOND
M  V30 1 1 1 2
M  V30 2 2 2 3
M  V30 3 1 2 4
M  V30 4 1 3 5
M  V30 5 2 4 6
M  V30 6 2 5 7
M  V30 7 1 7 8
M  V30 8 2 8 9
M  V30 9 1 9 10
M  V30 10 1 9 11
M  V30 11 3 10 12
M  V30 12 1 11 13
M  V30 13 2 11 14
M  V30 14 3 13 15
M  V30 15 1 14 16
M  V30 16 2 16 17
M  V30 17 1 16 18
M  V30 18 1 17 19
M  V30 19 2 18 20
M  V30 20 2 19 21
M  V30 21 1 21 22
M  V30 22 1 6 7
M  V30 23 1 20 21
M  V30 24 1 1 23
M  V30 25 1 3 24
M  V30 26 1 4 25
M  V30 27 1 5 26
M  V30 28 1 6 27
M  V30 29 1 8 28
M  V30 30 1 14 29
M  V30 31 1 17 30
M  V30 32 1 18 31
M  V30 33 1 19 32
M  V30 34 1 20 33
M  V30 35 1 22 34
M  V30 END BOND
M  V30 END CTAB
M  END
>  <Column 1>
2369

>  <level_0>
2550

>  <index>
2550

>  <Unnamed: 0>
2550

>  <NO.>
2562

>  <Name>
xantocillin

>  <IUPAC_name>
4-[(1z-3z)-4-(4-hydroxyphenyl)-2-3-diisocyanobuta-1-3-dienyl]phenol

>  <SMILES>
[C-]#[N+]C(=C\c1ccc(O)cc1)/C(=C/c1ccc(O)cc1)[N+]#[C-]

>  <CID>
5378293

>  <logBB>


>  <BBB+/BBB->
BBB-

>  <Inchi>
InChI=1S/C18H12N2O2/c1-19-17(11-13-3-7-15(21)8-4-13)18(20-2)12-14-5-9-16(22)10-6-14/h3-12-21-22H/b17-11--18-12-

>  <threshold>
-1

>  <reference>
R1|R6|R27|R30|

>  <group>
B

>  <Class>
1

>  <ABC>
16.44

>  <ABCGG>
13.77

>  <nAcid>
0

>  <nBase>
0

>  <nAromAtom>
12

>  <nAromBond>
12

>  <nAtom>
34

>  <nHeavyAtom>
22

>  <nSpiro>
0

>  <nBridgehead>
0

>  <nHetero>
4

>  <nN>
2

>  <nO>
2

>  <nF>
0

>  <BalabanJ>
1.81

>  <BertzCT>
730.65

>  <nBonds>
35

>  <nBondsO>
23

>  <nBondsS>
19

>  <nBondsD>
2

>  <nBondsT>
2

>  <nBondsA>
12

>  <nBondsM>
16

>  <nBondsKS>
25

>  <nBondsKD>
8

>  <RNCG>
0.25

>  <RPCG>
0.15

>  <FCSP3>
0

>  <SZ>
25

>  <Sm>
24

>  <Sv>
24.2

>  <Sse>
34.31

>  <Sp>
25.07

>  <Si>
37.49

>  <MZ>
0.74

>  <Mm>
0.71

>  <Mv>
0.71

>  <Mse>
1.01

>  <Mp>
0.74

>  <Mi>
1.1

>  <NsCH3>
0

>  <NdCH2>
0

>  <NssCH2>
0

>  <NtCH>
0

>  <NdsCH>
2

>  <NaaCH>
8

>  <NsssCH>
0

>  <NddC>
0

>  <NtsC>
0

>  <NdssC>
2

>  <NaasC>
4

>  <NaaaC>
0

>  <NssssC>
0

>  <NsNH3>
0

>  <NsNH2>
0

>  <NssNH2>
0

>  <NdNH>
0

>  <NssNH>
0

>  <NaaNH>
0

>  <NtN>
0

>  <NsssNH>
0

>  <NdsN>
0

>  <NaaN>
0

>  <NsssN>
0

>  <NddsN>
0

>  <NaasN>
0

>  <NssssN>
0

>  <NsOH>
2

>  <NdO>
0

>  <NssO>
0

>  <NaaO>
0

>  <NsF>
0

>  <NsSiH3>
0

>  <NssSiH2>
0

>  <NsssSiH>
0

>  <NssssSi>
0

>  <NsPH2>
0

>  <NssPH>
0

>  <NsssP>
0

>  <NdsssP>
0

>  <NsssssP>
0

>  <NsSH>
0

>  <NdS>
0

>  <NssS>
0

>  <NaaS>
0

>  <NdssS>
0

>  <NddssS>
0

>  <NsCl>
0

>  <NsBr>
0

>  <NsI>
0

>  <fragCpx>
67.04

>  <fMF>
0.47

>  <nHBAcc>
2

>  <nHBDon>
2

>  <Kier1>
18.34

>  <Kier2>
9.33

>  <Lipinski>
1

>  <GhoseFilter>
1

>  <FilterItLogS>
-2.9

>  <VMcGowan>
222.86

>  <LabuteASA>
128.09

>  <PEOE_VSA1>
10.21

>  <PEOE_VSA2>
9.69

>  <PEOE_VSA3>
0

>  <PEOE_VSA4>
0

>  <PEOE_VSA5>
0

>  <PEOE_VSA6>
36.42

>  <PEOE_VSA7>
35.39

>  <PEOE_VSA8>
0

>  <PEOE_VSA9>
13.14

>  <PEOE_VSA10>
11.5

>  <PEOE_VSA11>
11.39

>  <PEOE_VSA12>
0

>  <PEOE_VSA13>
0

>  <SMR_VSA1>
10.21

>  <SMR_VSA2>
0

>  <SMR_VSA3>
0

>  <SMR_VSA4>
0

>  <SMR_VSA5>
0

>  <SMR_VSA6>
0

>  <SMR_VSA7>
93.89

>  <SMR_VSA8>
0

>  <SMR_VSA9>
11.5

>  <SlogP_VSA1>
0

>  <SlogP_VSA2>
10.21

>  <SlogP_VSA3>
0

>  <SlogP_VSA4>
13.14

>  <SlogP_VSA5>
11.13

>  <SlogP_VSA6>
59.93

>  <SlogP_VSA7>
0

>  <SlogP_VSA8>
21.84

>  <SlogP_VSA9>
0

>  <SlogP_VSA10>
0

>  <SlogP_VSA11>
11.5

>  <EState_VSA1>
0

>  <EState_VSA2>
22.89

>  <EState_VSA3>
0

>  <EState_VSA4>
11.13

>  <EState_VSA5>
24.27

>  <EState_VSA6>
36.42

>  <EState_VSA7>
0

>  <EState_VSA8>
9.69

>  <EState_VSA9>
13.14

>  <EState_VSA10>
10.21

>  <VSA_EState1>
0

>  <VSA_EState2>
6.82

>  <VSA_EState3>
18.52

>  <VSA_EState4>
1.88

>  <VSA_EState5>
0.29

>  <VSA_EState6>
12.77

>  <VSA_EState7>
3.19

>  <VSA_EState8>
14.54

>  <VSA_EState9>
0

>  <apol>
41.87

>  <bpol>
14.32

>  <nRing>
2

>  <nHRing>
0

>  <naRing>
2

>  <naHRing>
0

>  <nARing 2>
0

>  <nAHRing 2>
0

>  <nFRing>
0

>  <nFHRing>
0

>  <nFaRing>
0

>  <nFaHRing>
0

>  <nFARing 2>
0

>  <nFAHRing 2>
0

>  <nRot>
3

>  <SLogP>
4.32

>  <SMR>
85.37

>  <TopoPSA(NO)>
49.18

>  <TopoPSA>
49.18

>  <JGI1>
0.22

>  <JGI2>
0.07

>  <JGI3>
0.03

>  <JGI4>
0.05

>  <JGI5>
0.02

>  <Diameter>
13

>  <Radius>
7

>  <TMWC10>
116.78

>  <TSRW10>
55.36

>  <MW>
288.09

>  <AMW>
8.47

>  <WPath>
1151

>  <WPol>
30

>  <Zagreb1>
106

>  <Zagreb2>
119

>  <mZagreb2>
5.11

>  <yes>


>  <nAR-cont>
0.336376

>  <nHA-cont>
0.983774276

>  <MWHBN>
0.235665441

>  <MWHBN-cont>
0.980513767

>  <TPSA-cont>
0.656693061

>  <pka_cont>
0.97

>  <yes.1>


>  <BBB_SCORE>
4.589307048

>  <MMFF94 Energy>
30.649

$$$$
Compound 1943
Actelion Java MolfileCreator 2.0

  0  0  0  0  0  0              0 V3000
M  V30 BEGIN CTAB
M  V30 COUNTS 34 34 0 0 0
M  V30 BEGIN ATOM
M  V30 1 O 1.5085 1.6674 -4.7697 0
M  V30 2 N 1.5974 0.4965 -4.3725 0 CHG=1
M  V30 3 O 1.7742 -0.4834 -5.1106 0 CHG=-1
M  V30 4 C 1.5088 0.2569 -2.927 0
M  V30 5 C 1.6985 -1.0349 -2.4239 0
M  V30 6 C 1.2392 1.3232 -2.062 0
M  V30 7 C 1.6215 -1.2563 -1.046 0
M  V30 8 C 1.1568 1.0904 -0.6866 0
M  V30 9 C 1.357 -0.1978 -0.1606 0
M  V30 10 C 1.2573 -0.4751 1.3306 0 CFG=1
M  V30 11 O 1.643 0.6797 2.0898 0
M  V30 12 C -0.1355 -0.9806 1.794 0 CFG=2
M  V30 13 N -1.2012 -0.0146 1.4934 0
M  V30 14 C -0.1137 -1.275 3.3069 0
M  V30 15 C -2.0911 -0.1915 0.4599 0
M  V30 16 O -1.3261 -1.9132 3.7089 0
M  V30 17 O -2.0446 -1.126 -0.3343 0
M  V30 18 C -3.135 0.9099 0.3489 0
M  V30 19 N -2.524 2.0824 -0.2955 0
M  V30 20 N -2.3778 1.9879 -1.5289 0 CHG=1
M  V30 21 N -2.2417 1.9165 -2.6575 0 CHG=-1
M  V30 22 H 1.8965 -1.8756 -3.0855 0
M  V30 23 H 1.0771 2.3303 -2.4408 0
M  V30 24 H 1.7542 -2.2695 -0.6698 0
M  V30 25 H 0.916 1.9228 -0.0267 0
M  V30 26 H 2.0027 -1.2426 1.5761 0
M  V30 27 H 2.4455 1.0354 1.6683 0
M  V30 28 H -0.3735 -1.9118 1.2652 0
M  V30 29 H -1.2313 0.8399 2.0352 0
M  V30 30 H -0.0111 -0.354 3.8907 0
M  V30 31 H 0.7144 -1.9465 3.5557 0
M  V30 32 H -1.2676 -2.0621 4.6681 0
M  V30 33 H -4.0011 0.5415 -0.2126 0
M  V30 34 H -3.4804 1.1874 1.3502 0
M  V30 END ATOM
M  V30 BEGIN BOND
M  V30 1 2 1 2
M  V30 2 1 2 3
M  V30 3 1 2 4
M  V30 4 2 4 5
M  V30 5 1 4 6
M  V30 6 1 5 7
M  V30 7 2 6 8
M  V30 8 2 7 9
M  V30 9 1 9 10
M  V30 10 1 10 11
M  V30 11 1 10 12
M  V30 12 1 12 13
M  V30 13 1 12 14
M  V30 14 1 13 15
M  V30 15 1 14 16
M  V30 16 2 15 17
M  V30 17 1 15 18
M  V30 18 1 18 19
M  V30 19 2 19 20
M  V30 20 2 20 21
M  V30 21 1 8 9
M  V30 22 1 5 22
M  V30 23 1 6 23
M  V30 24 1 7 24
M  V30 25 1 8 25
M  V30 26 1 10 26
M  V30 27 1 11 27
M  V30 28 1 12 28
M  V30 29 1 13 29
M  V30 30 1 14 30
M  V30 31 1 14 31
M  V30 32 1 16 32
M  V30 33 1 18 33
M  V30 34 1 18 34
M  V30 END BOND
M  V30 BEGIN COLLECTION
M  V30 MDLV30/STEABS ATOMS=(2 10 12)
M  V30 END COLLECTION
M  V30 END CTAB
M  END
>  <Column 1>
2370

>  <level_0>
2551

>  <index>
2551

>  <Unnamed: 0>
2551

>  <NO.>
2563

>  <Name>
azidamfenicol

>  <IUPAC_name>
2-azido-n-[(1r-2r)-1-3-dihydroxy-1-(4-nitrophenyl)propan-2-yl]acetamide

>  <SMILES>
[N-]=[N+]=NCC(=O)N[C@H](CO)[C@H](O)c1ccc([N+](=O)[O-])cc1

>  <CID>
62858

>  <logBB>


>  <BBB+/BBB->
BBB+

>  <Inchi>
InChI=1S/C11H13N5O5/c12-15-13-5-10(18)14-9(6-17)11(19)7-1-3-8(4-2-7)16(20)21/h1-4-9-11-17-19H-5-6H2-(H-14-18)/t9--11-/m1/s1

>  <threshold>
-1

>  <reference>
R1|R27|R30|

>  <group>
B

>  <Class>
1

>  <ABC>
15.17

>  <ABCGG>
13.47

>  <nAcid>
0

>  <nBase>
0

>  <nAromAtom>
6

>  <nAromBond>
6

>  <nAtom>
34

>  <nHeavyAtom>
21

>  <nSpiro>
0

>  <nBridgehead>
0

>  <nHetero>
10

>  <nN>
5

>  <nO>
5

>  <nF>
0

>  <BalabanJ>
2.42

>  <BertzCT>
554.63

>  <nBonds>
34

>  <nBondsO>
21

>  <nBondsS>
24

>  <nBondsD>
4

>  <nBondsT>
0

>  <nBondsA>
6

>  <nBondsM>
10

>  <nBondsKS>
27

>  <nBondsKD>
7

>  <RNCG>
0.19

>  <RPCG>
0.13

>  <FCSP3>
0.36

>  <SZ>
25.67

>  <Sm>
24.58

>  <Sv>
21.89

>  <Sse>
35.74

>  <Sp>
21.89

>  <Si>
39.2

>  <MZ>
0.75

>  <Mm>
0.72

>  <Mv>
0.64

>  <Mse>
1.05

>  <Mp>
0.64

>  <Mi>
1.15

>  <NsCH3>
0

>  <NdCH2>
0

>  <NssCH2>
2

>  <NtCH>
0

>  <NdsCH>
0

>  <NaaCH>
4

>  <NsssCH>
2

>  <NddC>
0

>  <NtsC>
0

>  <NdssC>
1

>  <NaasC>
2

>  <NaaaC>
0

>  <NssssC>
0

>  <NsNH3>
0

>  <NsNH2>
0

>  <NssNH2>
0

>  <NdNH>
0

>  <NssNH>
1

>  <NaaNH>
0

>  <NtN>
0

>  <NsssNH>
0

>  <NdsN>
1

>  <NaaN>
0

>  <NsssN>
0

>  <NddsN>
1

>  <NaasN>
0

>  <NssssN>
0

>  <NsOH>
2

>  <NdO>
2

>  <NssO>
0

>  <NaaO>
0

>  <NsF>
0

>  <NsSiH3>
0

>  <NssSiH2>
0

>  <NsssSiH>
0

>  <NssssSi>
0

>  <NsPH2>
0

>  <NssPH>
0

>  <NsssP>
0

>  <NdsssP>
0

>  <NsssssP>
0

>  <NsSH>
0

>  <NdS>
0

>  <NssS>
0

>  <NaaS>
0

>  <NdssS>
0

>  <NddssS>
0

>  <NsCl>
0

>  <NsBr>
0

>  <NsI>
0

>  <fragCpx>
21.1

>  <fMF>
0.18

>  <nHBAcc>
6

>  <nHBDon>
3

>  <Kier1>
19.05

>  <Kier2>
9.9

>  <Lipinski>
1

>  <GhoseFilter>
1

>  <FilterItLogS>
-1.69

>  <VMcGowan>
204.14

>  <LabuteASA>
118.34

>  <PEOE_VSA1>
15.53

>  <PEOE_VSA2>
14.91

>  <PEOE_VSA3>
0

>  <PEOE_VSA4>
0

>  <PEOE_VSA5>
0

>  <PEOE_VSA6>
5.11

>  <PEOE_VSA7>
23.23

>  <PEOE_VSA8>
17.04

>  <PEOE_VSA9>
17.57

>  <PEOE_VSA10>
12.65

>  <PEOE_VSA11>
0

>  <PEOE_VSA12>
5.91

>  <PEOE_VSA13>
5.69

>  <SMR_VSA1>
19.93

>  <SMR_VSA2>
0

>  <SMR_VSA3>
5.32

>  <SMR_VSA4>
5.11

>  <SMR_VSA5>
12.15

>  <SMR_VSA6>
13.15

>  <SMR_VSA7>
50.39

>  <SMR_VSA8>
0

>  <SMR_VSA9>
0

>  <SlogP_VSA1>
5.32

>  <SlogP_VSA2>
40.24

>  <SlogP_VSA3>
4.79

>  <SlogP_VSA4>
10.11

>  <SlogP_VSA5>
11.67

>  <SlogP_VSA6>
29.38

>  <SlogP_VSA7>
0

>  <SlogP_VSA8>
10.44

>  <SlogP_VSA9>
0

>  <SlogP_VSA10>
5.69

>  <SlogP_VSA11>
0

>  <EState_VSA1>
36.13

>  <EState_VSA2>
5.69

>  <EState_VSA3>
5.56

>  <EState_VSA4>
0

>  <EState_VSA5>
24.27

>  <EState_VSA6>
0

>  <EState_VSA7>
0

>  <EState_VSA8>
15.34

>  <EState_VSA9>
5.53

>  <EState_VSA10>
25.12

>  <VSA_EState1>
0

>  <VSA_EState2>
23.72

>  <VSA_EState3>
35.1

>  <VSA_EState4>
8.24

>  <VSA_EState5>
-0.66

>  <VSA_EState6>
4.03

>  <VSA_EState7>
-1.26

>  <VSA_EState8>
-1.01

>  <VSA_EState9>
0

>  <apol>
36.55

>  <bpol>
16.22

>  <nRing>
1

>  <nHRing>
0

>  <naRing>
1

>  <naHRing>
0

>  <nARing 2>
0

>  <nAHRing 2>
0

>  <nFRing>
0

>  <nFHRing>
0

>  <nFaRing>
0

>  <nFaHRing>
0

>  <nFARing 2>
0

>  <nFAHRing 2>
0

>  <nRot>
7

>  <SLogP>
0.42

>  <SMR>
71.09

>  <TopoPSA(NO)>
161.46

>  <TopoPSA>
161.46

>  <JGI1>
0.21

>  <JGI2>
0.1

>  <JGI3>
0.06

>  <JGI4>
0.04

>  <JGI5>
0.03

>  <Diameter>
13

>  <Radius>
7

>  <TMWC10>
112.83

>  <TSRW10>
53.83

>  <MW>
295.09

>  <AMW>
8.68

>  <WPath>
1048

>  <WPol>
29

>  <Zagreb1>
96

>  <Zagreb2>
107

>  <mZagreb2>
5

>  <yes>


>  <nAR-cont>
0.336376

>  <nHA-cont>
0.994529749

>  <MWHBN>
0.523920345

>  <MWHBN-cont>
0

>  <TPSA-cont>
0

>  <pka_cont>
0.97

>  <yes.1>


>  <BBB_SCORE>
1.815905749

>  <MMFF94 Energy>
92.51

$$$$
Compound 1944
Actelion Java MolfileCreator 2.0

  0  0  0  0  0  0              0 V3000
M  V30 BEGIN CTAB
M  V30 COUNTS 32 34 0 0 0
M  V30 BEGIN ATOM
M  V30 1 O -1.2756 0.1593 1.2756 0
M  V30 2 C -0.4721 -0.9092 0.9289 0
M  V30 3 C -1.8729 -0.015 2.561 0
M  V30 4 C -0.5783 -2.1484 1.5859 0
M  V30 5 C 0.4295 -0.7343 -0.1477 0
M  V30 6 C -2.4817 -1.3985 2.6729 0
M  V30 7 O -1.4604 -2.3969 2.6094 0
M  V30 8 C 0.2336 -3.2155 1.2149 0
M  V30 9 N 0.5453 0.4808 -0.8213 0
M  V30 10 C 1.2155 -1.842 -0.5128 0
M  V30 11 C 1.1285 -3.0641 0.1623 0
M  V30 12 C 1.0148 1.6421 -0.0464 0
M  V30 13 C 0.8948 0.5173 -2.2474 0
M  V30 14 C 0.5891 2.958 -0.7354 0
M  V30 15 C 0.4709 1.8664 -2.8725 0
M  V30 16 N 0.9956 3.0447 -2.1535 0
M  V30 17 H -1.1095 0.1554 3.3302 0
M  V30 18 H -2.6472 0.75 2.6739 0
M  V30 19 H -2.996 -1.5105 3.6326 0
M  V30 20 H -3.207 -1.5872 1.8717 0
M  V30 21 H 0.1558 -4.1657 1.7351 0
M  V30 22 H 1.9369 -1.7584 -1.3209 0
M  V30 23 H 1.761 -3.895 -0.1379 0
M  V30 24 H 0.6294 1.6521 0.9781 0
M  V30 25 H 2.1094 1.6031 0.0258 0
M  V30 26 H 0.3831 -0.286 -2.7912 0
M  V30 27 H 1.9763 0.3809 -2.3717 0
M  V30 28 H 1.031 3.8022 -0.195 0
M  V30 29 H -0.5008 3.0676 -0.6673 0
M  V30 30 H 0.8224 1.9045 -3.9093 0
M  V30 31 H -0.6247 1.9242 -2.9029 0
M  V30 32 H 0.5886 3.8859 -2.5597 0
M  V30 END ATOM
M  V30 BEGIN BOND
M  V30 1 1 1 2
M  V30 2 1 1 3
M  V30 3 2 2 4
M  V30 4 1 2 5
M  V30 5 1 3 6
M  V30 6 1 4 7
M  V30 7 1 4 8
M  V30 8 1 5 9
M  V30 9 2 5 10
M  V30 10 2 8 11
M  V30 11 1 9 12
M  V30 12 1 9 13
M  V30 13 1 12 14
M  V30 14 1 13 15
M  V30 15 1 14 16
M  V30 16 1 6 7
M  V30 17 1 10 11
M  V30 18 1 15 16
M  V30 19 1 3 17
M  V30 20 1 3 18
M  V30 21 1 6 19
M  V30 22 1 6 20
M  V30 23 1 8 21
M  V30 24 1 10 22
M  V30 25 1 11 23
M  V30 26 1 12 24
M  V30 27 1 12 25
M  V30 28 1 13 26
M  V30 29 1 13 27
M  V30 30 1 14 28
M  V30 31 1 14 29
M  V30 32 1 15 30
M  V30 33 1 15 31
M  V30 34 1 16 32
M  V30 END BOND
M  V30 END CTAB
M  END
>  <Column 1>
2371

>  <level_0>
2552

>  <index>
2552

>  <Unnamed: 0>
2552

>  <NO.>
2564

>  <Name>
eltoprazine

>  <IUPAC_name>
1-(2-3-dihydro-1-4-benzodioxin-5-yl)piperazine

>  <SMILES>
c1cc2c(c(N3CCNCC3)c1)OCCO2

>  <CID>
65853

>  <logBB>


>  <BBB+/BBB->
BBB+

>  <Inchi>
InChI=1S/C12H16N2O2/c1-2-10(14-6-4-13-5-7-14)12-11(3-1)15-8-9-16-12/h1-3-13H-4-9H2

>  <threshold>
-1

>  <reference>
R1|R13|R19|R6|R24|R27|R27|R27|R30|R30|

>  <group>
B

>  <Class>
1

>  <ABC>
12.61

>  <ABCGG>
10.13

>  <nAcid>
0

>  <nBase>
1

>  <nAromAtom>
6

>  <nAromBond>
6

>  <nAtom>
32

>  <nHeavyAtom>
16

>  <nSpiro>
0

>  <nBridgehead>
0

>  <nHetero>
4

>  <nN>
2

>  <nO>
2

>  <nF>
0

>  <BalabanJ>
1.67

>  <BertzCT>
375.28

>  <nBonds>
34

>  <nBondsO>
18

>  <nBondsS>
28

>  <nBondsD>
0

>  <nBondsT>
0

>  <nBondsA>
6

>  <nBondsM>
6

>  <nBondsKS>
31

>  <nBondsKD>
3

>  <RNCG>
0.28

>  <RPCG>
0.1

>  <FCSP3>
0.5

>  <SZ>
19.67

>  <Sm>
18.34

>  <Sv>
19.28

>  <Sse>
32.09

>  <Sp>
20.67

>  <Si>
36.32

>  <MZ>
0.61

>  <Mm>
0.57

>  <Mv>
0.6

>  <Mse>
1

>  <Mp>
0.65

>  <Mi>
1.14

>  <NsCH3>
0

>  <NdCH2>
0

>  <NssCH2>
6

>  <NtCH>
0

>  <NdsCH>
0

>  <NaaCH>
3

>  <NsssCH>
0

>  <NddC>
0

>  <NtsC>
0

>  <NdssC>
0

>  <NaasC>
3

>  <NaaaC>
0

>  <NssssC>
0

>  <NsNH3>
0

>  <NsNH2>
0

>  <NssNH2>
0

>  <NdNH>
0

>  <NssNH>
1

>  <NaaNH>
0

>  <NtN>
0

>  <NsssNH>
0

>  <NdsN>
0

>  <NaaN>
0

>  <NsssN>
1

>  <NddsN>
0

>  <NaasN>
0

>  <NssssN>
0

>  <NsOH>
0

>  <NdO>
0

>  <NssO>
2

>  <NaaO>
0

>  <NsF>
0

>  <NsSiH3>
0

>  <NssSiH2>
0

>  <NsssSiH>
0

>  <NssssSi>
0

>  <NsPH2>
0

>  <NssPH>
0

>  <NsssP>
0

>  <NdsssP>
0

>  <NsssssP>
0

>  <NsSH>
0

>  <NdS>
0

>  <NssS>
0

>  <NaaS>
0

>  <NdssS>
0

>  <NddssS>
0

>  <NsCl>
0

>  <NsBr>
0

>  <NsI>
0

>  <fragCpx>
84.04

>  <fMF>
0.5

>  <nHBAcc>
4

>  <nHBDon>
1

>  <Kier1>
11.11

>  <Kier2>
5.1

>  <Lipinski>
1

>  <GhoseFilter>
1

>  <FilterItLogS>
-2.48

>  <VMcGowan>
166.16

>  <LabuteASA>
95.15

>  <PEOE_VSA1>
19.69

>  <PEOE_VSA2>
0

>  <PEOE_VSA3>
0

>  <PEOE_VSA4>
0

>  <PEOE_VSA5>
0

>  <PEOE_VSA6>
6.07

>  <PEOE_VSA7>
12.13

>  <PEOE_VSA8>
26.18

>  <PEOE_VSA9>
5.69

>  <PEOE_VSA10>
13.21

>  <PEOE_VSA11>
11.5

>  <PEOE_VSA12>
0

>  <PEOE_VSA13>
0

>  <SMR_VSA1>
9.47

>  <SMR_VSA2>
0

>  <SMR_VSA3>
5.32

>  <SMR_VSA4>
0

>  <SMR_VSA5>
0

>  <SMR_VSA6>
44.29

>  <SMR_VSA7>
18.2

>  <SMR_VSA8>
0

>  <SMR_VSA9>
11.5

>  <SlogP_VSA1>
19.69

>  <SlogP_VSA2>
39.39

>  <SlogP_VSA3>
0

>  <SlogP_VSA4>
0

>  <SlogP_VSA5>
0

>  <SlogP_VSA6>
18.2

>  <SlogP_VSA7>
0

>  <SlogP_VSA8>
0

>  <SlogP_VSA9>
0

>  <SlogP_VSA10>
5.69

>  <SlogP_VSA11>
11.5

>  <EState_VSA1>
0

>  <EState_VSA2>
0

>  <EState_VSA3>
13.21

>  <EState_VSA4>
37.68

>  <EState_VSA5>
5.69

>  <EState_VSA6>
0

>  <EState_VSA7>
12.13

>  <EState_VSA8>
16.28

>  <EState_VSA9>
9.47

>  <EState_VSA10>
0

>  <VSA_EState1>
11.31

>  <VSA_EState2>
2.35

>  <VSA_EState3>
3.35

>  <VSA_EState4>
1.17

>  <VSA_EState5>
1.79

>  <VSA_EState6>
6.11

>  <VSA_EState7>
0

>  <VSA_EState8>
5.42

>  <VSA_EState9>
0

>  <apol>
34.51

>  <bpol>
21.8

>  <nRing>
3

>  <nHRing>
2

>  <naRing>
1

>  <naHRing>
0

>  <nARing 2>
2

>  <nAHRing 2>
2

>  <nFRing>
1

>  <nFHRing>
1

>  <nFaRing>
0

>  <nFaHRing>
0

>  <nFARing 2>
1

>  <nFAHRing 2>
1

>  <nRot>
1

>  <SLogP>
0.87

>  <SMR>
62.51

>  <TopoPSA(NO)>
33.73

>  <TopoPSA>
33.73

>  <JGI1>
0.08

>  <JGI2>
0.06

>  <JGI3>
0.04

>  <JGI4>
0.03

>  <JGI5>
0.01

>  <Diameter>
8

>  <Radius>
4

>  <TMWC10>
105.22

>  <TSRW10>
48.65

>  <MW>
220.12

>  <AMW>
6.88

>  <WPath>
412

>  <WPol>
24

>  <Zagreb1>
84

>  <Zagreb2>
99

>  <mZagreb2>
3.58

>  <yes>


>  <nAR-cont>
1

>  <nHA-cont>
0.954961865

>  <MWHBN>
0.337008032

>  <MWHBN-cont>
0.717950084

>  <TPSA-cont>
0.764543655

>  <pka_cont>
0.97

>  <yes.1>


>  <BBB_SCORE>
5.045974301

>  <MMFF94 Energy>
139.41

$$$$
Compound 1945
Actelion Java MolfileCreator 2.0

  0  0  0  0  0  0              0 V3000
M  V30 BEGIN CTAB
M  V30 COUNTS 48 51 0 0 0
M  V30 BEGIN ATOM
M  V30 1 N -1.9921 -0.6371 -2.5505 0
M  V30 2 C -1.7439 0.514 -1.8818 0
M  V30 3 C -1.1265 -1.6577 -2.45 0
M  V30 4 C -2.7588 1.5775 -2.0377 0
M  V30 5 C -0.5969 0.671 -1.1118 0
M  V30 6 C 0.0586 -1.5936 -1.684 0
M  V30 7 C -1.4231 -2.8285 -3.1343 0
M  V30 8 C -3.4749 1.7138 -3.2419 0
M  V30 9 C -3.0597 2.484 -1.0038 0
M  V30 10 C 0.3266 -0.3791 -1.0072 0
M  V30 11 C 0.8976 -2.7336 -1.6389 0
M  V30 12 C -0.5883 -3.946 -3.0863 0
M  V30 13 C -4.4343 2.7163 -3.4134 0
M  V30 14 C -4.0197 3.4881 -1.1717 0
M  V30 15 C 1.5553 -0.163 -0.1487 0
M  V30 16 C 0.5756 -3.8985 -2.3347 0
M  V30 17 C -4.7042 3.6052 -2.3778 0
M  V30 18 C 1.3362 -0.6574 1.2862 0
M  V30 19 C 2.6143 -0.6103 2.1519 0
M  V30 20 C 3.1548 0.8102 2.3845 0
M  V30 21 C 2.3731 -1.2763 3.519 0
M  V30 22 C 2.2842 1.6134 3.3515 0
M  V30 23 C 1.5345 -0.4033 4.4545 0
M  V30 24 N 2.1213 0.926 4.6333 0
M  V30 25 H -0.4054 1.6113 -0.6037 0
M  V30 26 H -2.3374 -2.8721 -3.7223 0
M  V30 27 H -3.2811 1.0263 -4.0641 0
M  V30 28 H -2.5624 2.4077 -0.0396 0
M  V30 29 H 1.8141 -2.7293 -1.0554 0
M  V30 30 H -0.8539 -4.8459 -3.634 0
M  V30 31 H -4.9696 2.7962 -4.3557 0
M  V30 32 H -4.2365 4.1728 -0.3558 0
M  V30 33 H 1.796 0.9068 -0.146 0
M  V30 34 H 2.4254 -0.6492 -0.6036 0
M  V30 35 H 1.2325 -4.763 -2.2873 0
M  V30 36 H -5.452 4.3828 -2.5081 0
M  V30 37 H 0.5301 -0.0755 1.7486 0
M  V30 38 H 0.978 -1.6948 1.2574 0
M  V30 39 H 3.3863 -1.1892 1.6281 0
M  V30 40 H 4.1673 0.7336 2.8041 0
M  V30 41 H 3.263 1.3554 1.4418 0
M  V30 42 H 1.8893 -2.2517 3.3906 0
M  V30 43 H 3.3444 -1.4727 3.9923 0
M  V30 44 H 1.3028 1.8232 2.9111 0
M  V30 45 H 2.7532 2.5866 3.5348 0
M  V30 46 H 0.507 -0.3103 4.085 0
M  V30 47 H 1.465 -0.8892 5.4343 0
M  V30 48 H 3.0367 0.825 5.0726 0
M  V30 END ATOM
M  V30 BEGIN BOND
M  V30 1 2 1 2
M  V30 2 1 1 3
M  V30 3 1 2 4
M  V30 4 1 2 5
M  V30 5 1 3 6
M  V30 6 2 3 7
M  V30 7 2 4 8
M  V30 8 1 4 9
M  V30 9 2 5 10
M  V30 10 2 6 11
M  V30 11 1 7 12
M  V30 12 1 8 13
M  V30 13 2 9 14
M  V30 14 1 10 15
M  V30 15 1 11 16
M  V30 16 2 13 17
M  V30 17 1 15 18
M  V30 18 1 18 19
M  V30 19 1 19 20
M  V30 20 1 19 21
M  V30 21 1 20 22
M  V30 22 1 21 23
M  V30 23 1 22 24
M  V30 24 1 6 10
M  V30 25 2 12 16
M  V30 26 1 14 17
M  V30 27 1 23 24
M  V30 28 1 5 25
M  V30 29 1 7 26
M  V30 30 1 8 27
M  V30 31 1 9 28
M  V30 32 1 11 29
M  V30 33 1 12 30
M  V30 34 1 13 31
M  V30 35 1 14 32
M  V30 36 1 15 33
M  V30 37 1 15 34
M  V30 38 1 16 35
M  V30 39 1 17 36
M  V30 40 1 18 37
M  V30 41 1 18 38
M  V30 42 1 19 39
M  V30 43 1 20 40
M  V30 44 1 20 41
M  V30 45 1 21 42
M  V30 46 1 21 43
M  V30 47 1 22 44
M  V30 48 1 22 45
M  V30 49 1 23 46
M  V30 50 1 23 47
M  V30 51 1 24 48
M  V30 END BOND
M  V30 END CTAB
M  END
>  <Column 1>
2372

>  <level_0>
2553

>  <index>
2553

>  <Unnamed: 0>
2553

>  <NO.>
2565

>  <Name>
pipequaline

>  <IUPAC_name>
2-phenyl-4-(2-piperidin-4-ylethyl)quinoline

>  <SMILES>
c1ccc(-c2cc(CCC3CCNCC3)c3ccccc3n2)cc1

>  <CID>
71219

>  <logBB>


>  <BBB+/BBB->
BBB+

>  <Inchi>
InChI=1S/C22H24N2/c1-2-6-18(7-3-1)22-16-19(11-10-17-12-14-23-15-13-17)20-8-4-5-9-21(20)24-22/h1-9-16-17-23H-10-15H2

>  <threshold>
-1

>  <reference>
R1|R13|R19|R6|R24|R27|R27|R27|R30|R30|

>  <group>
B

>  <Class>
1

>  <ABC>
18.97

>  <ABCGG>
14.05

>  <nAcid>
0

>  <nBase>
1

>  <nAromAtom>
16

>  <nAromBond>
17

>  <nAtom>
48

>  <nHeavyAtom>
24

>  <nSpiro>
0

>  <nBridgehead>
0

>  <nHetero>
2

>  <nN>
2

>  <nO>
0

>  <nF>
0

>  <BalabanJ>
1.37

>  <BertzCT>
804.57

>  <nBonds>
51

>  <nBondsO>
27

>  <nBondsS>
34

>  <nBondsD>
0

>  <nBondsT>
0

>  <nBondsA>
17

>  <nBondsM>
17

>  <nBondsKS>
43

>  <nBondsKD>
8

>  <RNCG>
0.24

>  <RPCG>
0.09

>  <FCSP3>
0.32

>  <SZ>
28.33

>  <Sm>
26.35

>  <Sv>
30.02

>  <Sse>
46.98

>  <Sp>
32.9

>  <Si>
53.56

>  <MZ>
0.59

>  <Mm>
0.55

>  <Mv>
0.63

>  <Mse>
0.98

>  <Mp>
0.69

>  <Mi>
1.12

>  <NsCH3>
0

>  <NdCH2>
0

>  <NssCH2>
6

>  <NtCH>
0

>  <NdsCH>
0

>  <NaaCH>
10

>  <NsssCH>
1

>  <NddC>
0

>  <NtsC>
0

>  <NdssC>
0

>  <NaasC>
3

>  <NaaaC>
2

>  <NssssC>
0

>  <NsNH3>
0

>  <NsNH2>
0

>  <NssNH2>
0

>  <NdNH>
0

>  <NssNH>
1

>  <NaaNH>
0

>  <NtN>
0

>  <NsssNH>
0

>  <NdsN>
0

>  <NaaN>
1

>  <NsssN>
0

>  <NddsN>
0

>  <NaasN>
0

>  <NssssN>
0

>  <NsOH>
0

>  <NdO>
0

>  <NssO>
0

>  <NaaO>
0

>  <NsF>
0

>  <NsSiH3>
0

>  <NssSiH2>
0

>  <NsssSiH>
0

>  <NssssSi>
0

>  <NsPH2>
0

>  <NssPH>
0

>  <NsssP>
0

>  <NdsssP>
0

>  <NsssssP>
0

>  <NsSH>
0

>  <NdS>
0

>  <NssS>
0

>  <NaaS>
0

>  <NdssS>
0

>  <NddssS>
0

>  <NsCl>
0

>  <NsBr>
0

>  <NsI>
0

>  <fragCpx>
177.02

>  <fMF>
0.5

>  <nHBAcc>
2

>  <nHBDon>
1

>  <Kier1>
17.42

>  <Kier2>
8.59

>  <Lipinski>
1

>  <GhoseFilter>
1

>  <FilterItLogS>
-6.7

>  <VMcGowan>
262.96

>  <LabuteASA>
143.49

>  <PEOE_VSA1>
5.32

>  <PEOE_VSA2>
0

>  <PEOE_VSA3>
4.98

>  <PEOE_VSA4>
0

>  <PEOE_VSA5>
0

>  <PEOE_VSA6>
48.53

>  <PEOE_VSA7>
62.39

>  <PEOE_VSA8>
10.95

>  <PEOE_VSA9>
11.21

>  <PEOE_VSA10>
0

>  <PEOE_VSA11>
0

>  <PEOE_VSA12>
0

>  <PEOE_VSA13>
0

>  <SMR_VSA1>
0

>  <SMR_VSA2>
0

>  <SMR_VSA3>
10.3

>  <SMR_VSA4>
5.92

>  <SMR_VSA5>
25.68

>  <SMR_VSA6>
13.09

>  <SMR_VSA7>
66.23

>  <SMR_VSA8>
0

>  <SMR_VSA9>
11.26

>  <SlogP_VSA1>
5.32

>  <SlogP_VSA2>
18.07

>  <SlogP_VSA3>
6.42

>  <SlogP_VSA4>
5.92

>  <SlogP_VSA5>
24.83

>  <SlogP_VSA6>
60.66

>  <SlogP_VSA7>
0

>  <SlogP_VSA8>
22.16

>  <SlogP_VSA9>
0

>  <SlogP_VSA10>
0

>  <SlogP_VSA11>
0

>  <EState_VSA1>
0

>  <EState_VSA2>
0

>  <EState_VSA3>
0

>  <EState_VSA4>
23.55

>  <EState_VSA5>
48.87

>  <EState_VSA6>
0

>  <EState_VSA7>
0

>  <EState_VSA8>
65.98

>  <EState_VSA9>
4.98

>  <EState_VSA10>
0

>  <VSA_EState1>
0

>  <VSA_EState2>
4.89

>  <VSA_EState3>
4.77

>  <VSA_EState4>
4.85

>  <VSA_EState5>
0.86

>  <VSA_EState6>
21.39

>  <VSA_EState7>
5.06

>  <VSA_EState8>
2.36

>  <VSA_EState9>
0

>  <apol>
54.94

>  <bpol>
25.79

>  <nRing>
4

>  <nHRing>
2

>  <naRing>
3

>  <naHRing>
1

>  <nARing 2>
1

>  <nAHRing 2>
1

>  <nFRing>
1

>  <nFHRing>
1

>  <nFaRing>
1

>  <nFaHRing>
1

>  <nFARing 2>
0

>  <nFAHRing 2>
0

>  <nRot>
4

>  <SLogP>
4.83

>  <SMR>
101.09

>  <TopoPSA(NO)>
24.92

>  <TopoPSA>
24.92

>  <JGI1>
0.11

>  <JGI2>
0.06

>  <JGI3>
0.02

>  <JGI4>
0.03

>  <JGI5>
0.02

>  <Diameter>
12

>  <Radius>
6

>  <TMWC10>
125.62

>  <TSRW10>
58.54

>  <MW>
316.19

>  <AMW>
6.59

>  <WPath>
1364

>  <WPol>
36

>  <Zagreb1>
126

>  <Zagreb2>
147

>  <mZagreb2>
5.33

>  <yes>


>  <nAR-cont>
0.816016

>  <nHA-cont>
0.94700071

>  <MWHBN>
0.168712472

>  <MWHBN-cont>
0.971911215

>  <TPSA-cont>
0.826042926

>  <pka_cont>
0.97

>  <yes.1>


>  <BBB_SCORE>
5.357969384

>  <MMFF94 Energy>
68.741

$$$$
Compound 1946
Actelion Java MolfileCreator 2.0

  0  0  0  0  0  0              0 V3000
M  V30 BEGIN CTAB
M  V30 COUNTS 41 44 0 0 0
M  V30 BEGIN ATOM
M  V30 1 N 0.3195 0.2396 0.0 0
M  V30 2 C -0.8207 0.8995 -0.3395 0
M  V30 3 C 0.2606 -1.0454 0.4001 0
M  V30 4 C -2.104 0.3185 -0.2611 0
M  V30 5 C -0.5798 2.2792 -0.7931 0
M  V30 6 N 1.4461 -1.6937 0.7377 0
M  V30 7 C -0.9717 -1.684 0.5043 0
M  V30 8 C -2.1608 -1.0168 0.1755 0
M  V30 9 C -3.3224 0.9775 -0.5648 0
M  V30 10 C -0.0851 3.2458 0.0976 0
M  V30 11 C -0.8131 2.6609 -2.1253 0
M  V30 12 C 1.6596 -3.0733 0.2752 0
M  V30 13 C 2.6557 -0.8504 0.7342 0
M  V30 14 C -3.4055 -1.6629 0.2862 0
M  V30 15 C -4.5502 0.3235 -0.4518 0
M  V30 16 C 0.1458 4.558 -0.3221 0
M  V30 17 C -0.5822 3.9729 -2.5465 0
M  V30 18 C 2.8711 -3.7168 0.9878 0
M  V30 19 C 3.8345 -1.5668 1.4286 0
M  V30 20 C -4.5909 -0.9985 -0.028 0
M  V30 21 C -0.1062 4.9212 -1.6433 0
M  V30 22 N 4.1052 -2.9177 0.9013 0
M  V30 23 H -1.0245 -2.7004 0.8771 0
M  V30 24 H -3.3218 2.0179 -0.8839 0
M  V30 25 H 0.1263 2.9684 1.1287 0
M  V30 26 H -1.1694 1.9271 -2.8456 0
M  V30 27 H 1.8301 -3.0702 -0.809 0
M  V30 28 H 0.7936 -3.7132 0.4714 0
M  V30 29 H 2.4811 0.0888 1.2744 0
M  V30 30 H 2.9351 -0.6059 -0.2989 0
M  V30 31 H -3.4601 -2.6962 0.6234 0
M  V30 32 H -5.4708 0.8501 -0.6902 0
M  V30 33 H 0.5285 5.2921 0.3818 0
M  V30 34 H -0.7665 4.2509 -3.5808 0
M  V30 35 H 3.0605 -4.7014 0.5463 0
M  V30 36 H 2.6236 -3.8827 2.0443 0
M  V30 37 H 3.632 -1.6374 2.5052 0
M  V30 38 H 4.7383 -0.9585 1.3135 0
M  V30 39 H -5.5441 -1.5127 0.0642 0
M  V30 40 H 0.0779 5.9408 -1.9714 0
M  V30 41 H 4.828 -3.3554 1.4705 0
M  V30 END ATOM
M  V30 BEGIN BOND
M  V30 1 2 1 2
M  V30 2 1 1 3
M  V30 3 1 2 4
M  V30 4 1 2 5
M  V30 5 1 3 6
M  V30 6 2 3 7
M  V30 7 1 4 8
M  V30 8 2 4 9
M  V30 9 2 5 10
M  V30 10 1 5 11
M  V30 11 1 6 12
M  V30 12 1 6 13
M  V30 13 2 8 14
M  V30 14 1 9 15
M  V30 15 1 10 16
M  V30 16 2 11 17
M  V30 17 1 12 18
M  V30 18 1 13 19
M  V30 19 1 14 20
M  V30 20 2 16 21
M  V30 21 1 18 22
M  V30 22 1 7 8
M  V30 23 2 15 20
M  V30 24 1 17 21
M  V30 25 1 19 22
M  V30 26 1 7 23
M  V30 27 1 9 24
M  V30 28 1 10 25
M  V30 29 1 11 26
M  V30 30 1 12 27
M  V30 31 1 12 28
M  V30 32 1 13 29
M  V30 33 1 13 30
M  V30 34 1 14 31
M  V30 35 1 15 32
M  V30 36 1 16 33
M  V30 37 1 17 34
M  V30 38 1 18 35
M  V30 39 1 18 36
M  V30 40 1 19 37
M  V30 41 1 19 38
M  V30 42 1 20 39
M  V30 43 1 21 40
M  V30 44 1 22 41
M  V30 END BOND
M  V30 END CTAB
M  END
>  <Column 1>
2373

>  <level_0>
2554

>  <index>
2554

>  <Unnamed: 0>
2554

>  <NO.>
2566

>  <Name>
perafensine

>  <IUPAC_name>
1-phenyl-3-piperazin-1-ylisoquinoline

>  <SMILES>
c1ccc(-c2nc(N3CCNCC3)cc3ccccc23)cc1

>  <CID>
3047830

>  <logBB>


>  <BBB+/BBB->
BBB+

>  <Inchi>
InChI=1S/C19H19N3/c1-2-6-15(7-3-1)19-17-9-5-4-8-16(17)14-18(21-19)22-12-10-20-11-13-22/h1-9-14-20H-10-13H2

>  <threshold>
-1

>  <reference>
R1|R13|R19|R6|R24|R27|R27|R27|R30|R30|

>  <group>
B

>  <Class>
1

>  <ABC>
17.52

>  <ABCGG>
13.31

>  <nAcid>
0

>  <nBase>
1

>  <nAromAtom>
16

>  <nAromBond>
17

>  <nAtom>
41

>  <nHeavyAtom>
22

>  <nSpiro>
0

>  <nBridgehead>
0

>  <nHetero>
3

>  <nN>
3

>  <nO>
0

>  <nF>
0

>  <BalabanJ>
1.48

>  <BertzCT>
777.05

>  <nBonds>
44

>  <nBondsO>
25

>  <nBondsS>
27

>  <nBondsD>
0

>  <nBondsT>
0

>  <nBondsA>
17

>  <nBondsM>
17

>  <nBondsKS>
36

>  <nBondsKD>
8

>  <RNCG>
0.25

>  <RPCG>
0.09

>  <FCSP3>
0.21

>  <SZ>
25.67

>  <Sm>
24.09

>  <Sv>
26.42

>  <Sse>
40.42

>  <Sp>
28.56

>  <Si>
45.82

>  <MZ>
0.63

>  <Mm>
0.59

>  <Mv>
0.64

>  <Mse>
0.99

>  <Mp>
0.7

>  <Mi>
1.12

>  <NsCH3>
0

>  <NdCH2>
0

>  <NssCH2>
4

>  <NtCH>
0

>  <NdsCH>
0

>  <NaaCH>
10

>  <NsssCH>
0

>  <NddC>
0

>  <NtsC>
0

>  <NdssC>
0

>  <NaasC>
3

>  <NaaaC>
2

>  <NssssC>
0

>  <NsNH3>
0

>  <NsNH2>
0

>  <NssNH2>
0

>  <NdNH>
0

>  <NssNH>
1

>  <NaaNH>
0

>  <NtN>
0

>  <NsssNH>
0

>  <NdsN>
0

>  <NaaN>
1

>  <NsssN>
1

>  <NddsN>
0

>  <NaasN>
0

>  <NssssN>
0

>  <NsOH>
0

>  <NdO>
0

>  <NssO>
0

>  <NaaO>
0

>  <NsF>
0

>  <NsSiH3>
0

>  <NssSiH2>
0

>  <NsssSiH>
0

>  <NssssSi>
0

>  <NsPH2>
0

>  <NssPH>
0

>  <NsssP>
0

>  <NdsssP>
0

>  <NsssssP>
0

>  <NsSH>
0

>  <NdS>
0

>  <NssS>
0

>  <NaaS>
0

>  <NdssS>
0

>  <NddssS>
0

>  <NsCl>
0

>  <NsBr>
0

>  <NsI>
0

>  <fragCpx>
163.03

>  <fMF>
0.54

>  <nHBAcc>
3

>  <nHBDon>
1

>  <Kier1>
15.52

>  <Kier2>
7.27

>  <Lipinski>
1

>  <GhoseFilter>
1

>  <FilterItLogS>
-5.19

>  <VMcGowan>
230.67

>  <LabuteASA>
130.15

>  <PEOE_VSA1>
10.22

>  <PEOE_VSA2>
0

>  <PEOE_VSA3>
4.98

>  <PEOE_VSA4>
0

>  <PEOE_VSA5>
0

>  <PEOE_VSA6>
54.6

>  <PEOE_VSA7>
11.45

>  <PEOE_VSA8>
37.13

>  <PEOE_VSA9>
5.69

>  <PEOE_VSA10>
5.82

>  <PEOE_VSA11>
0

>  <PEOE_VSA12>
0

>  <PEOE_VSA13>
0

>  <SMR_VSA1>
0

>  <SMR_VSA2>
0

>  <SMR_VSA3>
10.3

>  <SMR_VSA4>
0

>  <SMR_VSA5>
0

>  <SMR_VSA6>
31.08

>  <SMR_VSA7>
60.66

>  <SMR_VSA8>
0

>  <SMR_VSA9>
11.26

>  <SlogP_VSA1>
10.22

>  <SlogP_VSA2>
31.16

>  <SlogP_VSA3>
0

>  <SlogP_VSA4>
0

>  <SlogP_VSA5>
0

>  <SlogP_VSA6>
60.66

>  <SlogP_VSA7>
0

>  <SlogP_VSA8>
22.03

>  <SlogP_VSA9>
0

>  <SlogP_VSA10>
5.82

>  <SlogP_VSA11>
0

>  <EState_VSA1>
0

>  <EState_VSA2>
0

>  <EState_VSA3>
0

>  <EState_VSA4>
37.69

>  <EState_VSA5>
16.34

>  <EState_VSA6>
0

>  <EState_VSA7>
6.07

>  <EState_VSA8>
64.81

>  <EState_VSA9>
4.98

>  <EState_VSA10>
0

>  <VSA_EState1>
0

>  <VSA_EState2>
7.36

>  <VSA_EState3>
5.87

>  <VSA_EState4>
2.25

>  <VSA_EState5>
1.08

>  <VSA_EState6>
21.19

>  <VSA_EState7>
0

>  <VSA_EState8>
4.07

>  <VSA_EState9>
0

>  <apol>
47.7

>  <bpol>
22.48

>  <nRing>
4

>  <nHRing>
2

>  <naRing>
3

>  <naHRing>
1

>  <nARing 2>
1

>  <nAHRing 2>
1

>  <nFRing>
1

>  <nFHRing>
1

>  <nFaRing>
1

>  <nFaHRing>
1

>  <nFARing 2>
0

>  <nFAHRing 2>
0

>  <nRot>
2

>  <SLogP>
3.31

>  <SMR>
92.26

>  <TopoPSA(NO)>
28.16

>  <TopoPSA>
28.16

>  <JGI1>
0.1

>  <JGI2>
0.06

>  <JGI3>
0.03

>  <JGI4>
0.03

>  <JGI5>
0.02

>  <Diameter>
10

>  <Radius>
5

>  <TMWC10>
121.68

>  <TSRW10>
56.37

>  <MW>
289.16

>  <AMW>
7.05

>  <WPath>
991

>  <WPol>
35

>  <Zagreb1>
118

>  <Zagreb2>
140

>  <mZagreb2>
4.86

>  <yes>


>  <nAR-cont>
0.816016

>  <nHA-cont>
0.983774276

>  <MWHBN>
0.235229011

>  <MWHBN-cont>
0.981036068

>  <TPSA-cont>
0.803425714

>  <pka_cont>
0.97

>  <yes.1>


>  <BBB_SCORE>
5.363195806

>  <MMFF94 Energy>
105.63

$$$$
Compound 1947
Actelion Java MolfileCreator 2.0

  0  0  0  0  0  0              0 V3000
M  V30 BEGIN CTAB
M  V30 COUNTS 46 49 0 0 0
M  V30 BEGIN ATOM
M  V30 1 O 0.1601 1.2013 -0.5604 0
M  V30 2 C -0.903 0.6183 0.2294 0
M  V30 3 C 0.3294 0.3643 -1.7105 0 CFG=1
M  V30 4 O -1.3921 -0.5567 -0.4598 0
M  V30 5 C -0.3922 0.2207 1.6162 0
M  V30 6 C -2.0376 1.6494 0.341 0
M  V30 7 C 1.6195 -0.497 -1.5817 0 CFG=1
M  V30 8 C -0.9735 -0.3903 -1.8087 0
M  V30 9 C 0.7046 0.8759 2.2042 0
M  V30 10 C -1.0336 -0.7876 2.3596 0
M  V30 11 C -3.3844 1.247 0.4092 0
M  V30 12 C -1.7564 3.0264 0.4157 0
M  V30 13 N 1.5895 -1.4444 -0.4567 0
M  V30 14 C 1.9204 -1.2315 -2.9019 0
M  V30 15 C 1.1506 0.5281 3.4814 0
M  V30 16 C -0.588 -1.1344 3.6372 0
M  V30 17 C -4.411 2.1867 0.5288 0
M  V30 18 C -2.7834 3.9654 0.5353 0
M  V30 19 C 2.8265 -2.2068 -0.3277 0
M  V30 20 C 3.2011 -2.0574 -2.8065 0
M  V30 21 C 0.5041 -0.4765 4.1971 0
M  V30 22 C -4.11 3.545 0.5898 0
M  V30 23 C 3.1498 -2.9856 -1.5985 0
M  V30 24 H 0.4492 1.0173 -2.583 0
M  V30 25 H 2.4382 0.2079 -1.38 0
M  V30 26 H -0.9116 -1.3584 -2.3101 0
M  V30 27 H -1.7332 0.2097 -2.323 0
M  V30 28 H 1.2256 1.6602 1.6593 0
M  V30 29 H -1.8891 -1.3116 1.9389 0
M  V30 30 H -3.6405 0.19 0.3721 0
M  V30 31 H -0.7253 3.3735 0.3832 0
M  V30 32 H 0.7882 -2.0709 -0.527 0
M  V30 33 H 1.0927 -1.8989 -3.1696 0
M  V30 34 H 2.0215 -0.5069 -3.7186 0
M  V30 35 H 2.0046 1.0418 3.9141 0
M  V30 36 H -1.0948 -1.9182 4.1933 0
M  V30 37 H -5.4451 1.856 0.5792 0
M  V30 38 H -2.5452 5.0243 0.5907 0
M  V30 39 H 2.7295 -2.9022 0.5132 0
M  V30 40 H 3.6526 -1.5301 -0.0776 0
M  V30 41 H 4.064 -1.386 -2.7178 0
M  V30 42 H 3.34 -2.6411 -3.7231 0
M  V30 43 H 0.8521 -0.7469 5.19 0
M  V30 44 H -4.9086 4.2757 0.6862 0
M  V30 45 H 2.3889 -3.7591 -1.7622 0
M  V30 46 H 4.1108 -3.4998 -1.4851 0
M  V30 END ATOM
M  V30 BEGIN BOND
M  V30 1 1 1 2
M  V30 2 1 1 3
M  V30 3 1 2 4
M  V30 4 1 2 5
M  V30 5 1 2 6
M  V30 6 1 3 7
M  V30 7 1 3 8
M  V30 8 2 5 9
M  V30 9 1 5 10
M  V30 10 2 6 11
M  V30 11 1 6 12
M  V30 12 1 7 13
M  V30 13 1 7 14
M  V30 14 1 9 15
M  V30 15 2 10 16
M  V30 16 1 11 17
M  V30 17 2 12 18
M  V30 18 1 13 19
M  V30 19 1 14 20
M  V30 20 2 15 21
M  V30 21 2 17 22
M  V30 22 1 19 23
M  V30 23 1 4 8
M  V30 24 1 16 21
M  V30 25 1 18 22
M  V30 26 1 20 23
M  V30 27 1 3 24
M  V30 28 1 7 25
M  V30 29 1 8 26
M  V30 30 1 8 27
M  V30 31 1 9 28
M  V30 32 1 10 29
M  V30 33 1 11 30
M  V30 34 1 12 31
M  V30 35 1 13 32
M  V30 36 1 14 33
M  V30 37 1 14 34
M  V30 38 1 15 35
M  V30 39 1 16 36
M  V30 40 1 17 37
M  V30 41 1 18 38
M  V30 42 1 19 39
M  V30 43 1 19 40
M  V30 44 1 20 41
M  V30 45 1 20 42
M  V30 46 1 21 43
M  V30 47 1 22 44
M  V30 48 1 23 45
M  V30 49 1 23 46
M  V30 END BOND
M  V30 BEGIN COLLECTION
M  V30 MDLV30/STEABS ATOMS=(2 3 7)
M  V30 END COLLECTION
M  V30 END CTAB
M  END
>  <Column 1>
2374

>  <level_0>
2555

>  <index>
2555

>  <Unnamed: 0>
2555

>  <NO.>
2567

>  <Name>
dexoxadrol

>  <IUPAC_name>
(2s)-2-[(4s)-2-2-diphenyl-1-3-dioxolan-4-yl]piperidine

>  <SMILES>
c1ccc(C2(c3ccccc3)OC[C@H]([C@@H]3CCCCN3)O2)cc1

>  <CID>
3034023

>  <logBB>


>  <BBB+/BBB->
BBB+

>  <Inchi>
InChI=1S/C20H23NO2/c1-3-9-16(10-4-1)20(17-11-5-2-6-12-17)22-15-19(23-20)18-13-7-8-14-21-18/h1-6-9-12-18-19-21H-7-8-13-15H2/t18--19+/m0/s1

>  <threshold>
-1

>  <reference>
R1|R13|R27|R30|

>  <group>
B

>  <Class>
1

>  <ABC>
18.22

>  <ABCGG>
14.69

>  <nAcid>
0

>  <nBase>
1

>  <nAromAtom>
12

>  <nAromBond>
12

>  <nAtom>
46

>  <nHeavyAtom>
23

>  <nSpiro>
0

>  <nBridgehead>
0

>  <nHetero>
3

>  <nN>
1

>  <nO>
2

>  <nF>
0

>  <BalabanJ>
1.5

>  <BertzCT>
583.1

>  <nBonds>
49

>  <nBondsO>
26

>  <nBondsS>
37

>  <nBondsD>
0

>  <nBondsT>
0

>  <nBondsA>
12

>  <nBondsM>
12

>  <nBondsKS>
43

>  <nBondsKD>
6

>  <RNCG>
0.2

>  <RPCG>
0.13

>  <FCSP3>
0.4

>  <SZ>
27.67

>  <Sm>
25.76

>  <Sv>
28.42

>  <Sse>
45.53

>  <Sp>
30.8

>  <Si>
51.49

>  <MZ>
0.6

>  <Mm>
0.56

>  <Mv>
0.62

>  <Mse>
0.99

>  <Mp>
0.67

>  <Mi>
1.12

>  <NsCH3>
0

>  <NdCH2>
0

>  <NssCH2>
5

>  <NtCH>
0

>  <NdsCH>
0

>  <NaaCH>
10

>  <NsssCH>
2

>  <NddC>
0

>  <NtsC>
0

>  <NdssC>
0

>  <NaasC>
2

>  <NaaaC>
0

>  <NssssC>
1

>  <NsNH3>
0

>  <NsNH2>
0

>  <NssNH2>
0

>  <NdNH>
0

>  <NssNH>
1

>  <NaaNH>
0

>  <NtN>
0

>  <NsssNH>
0

>  <NdsN>
0

>  <NaaN>
0

>  <NsssN>
0

>  <NddsN>
0

>  <NaasN>
0

>  <NssssN>
0

>  <NsOH>
0

>  <NdO>
0

>  <NssO>
2

>  <NaaO>
0

>  <NsF>
0

>  <NsSiH3>
0

>  <NssSiH2>
0

>  <NsssSiH>
0

>  <NssssSi>
0

>  <NsPH2>
0

>  <NssPH>
0

>  <NsssP>
0

>  <NdsssP>
0

>  <NsssssP>
0

>  <NsSH>
0

>  <NdS>
0

>  <NssS>
0

>  <NaaS>
0

>  <NdssS>
0

>  <NddssS>
0

>  <NsCl>
0

>  <NsBr>
0

>  <NsI>
0

>  <fragCpx>
170.03

>  <fMF>
0.5

>  <nHBAcc>
3

>  <nHBDon>
1

>  <Kier1>
16.47

>  <Kier2>
7.49

>  <Lipinski>
1

>  <GhoseFilter>
1

>  <FilterItLogS>
-4.66

>  <VMcGowan>
245.14

>  <LabuteASA>
137.17

>  <PEOE_VSA1>
14.79

>  <PEOE_VSA2>
0

>  <PEOE_VSA3>
0

>  <PEOE_VSA4>
0

>  <PEOE_VSA5>
0

>  <PEOE_VSA6>
67.08

>  <PEOE_VSA7>
19.39

>  <PEOE_VSA8>
17.17

>  <PEOE_VSA9>
6.61

>  <PEOE_VSA10>
6.1

>  <PEOE_VSA11>
0

>  <PEOE_VSA12>
5.79

>  <PEOE_VSA13>
0

>  <SMR_VSA1>
9.47

>  <SMR_VSA2>
0

>  <SMR_VSA3>
5.32

>  <SMR_VSA4>
0

>  <SMR_VSA5>
37.2

>  <SMR_VSA6>
13.15

>  <SMR_VSA7>
71.79

>  <SMR_VSA8>
0

>  <SMR_VSA9>
0

>  <SlogP_VSA1>
5.32

>  <SlogP_VSA2>
25.3

>  <SlogP_VSA3>
15.26

>  <SlogP_VSA4>
0

>  <SlogP_VSA5>
30.39

>  <SlogP_VSA6>
60.66

>  <SlogP_VSA7>
0

>  <SlogP_VSA8>
0

>  <SlogP_VSA9>
0

>  <SlogP_VSA10>
0

>  <SlogP_VSA11>
0

>  <EState_VSA1>
5.79

>  <EState_VSA2>
6.1

>  <EState_VSA3>
12.65

>  <EState_VSA4>
24.09

>  <EState_VSA5>
12.84

>  <EState_VSA6>
0

>  <EState_VSA7>
36.4

>  <EState_VSA8>
29.58

>  <EState_VSA9>
9.47

>  <EState_VSA10>
0

>  <VSA_EState1>
12.89

>  <VSA_EState2>
0

>  <VSA_EState3>
3.6

>  <VSA_EState4>
2.12

>  <VSA_EState5>
-0.79

>  <VSA_EState6>
20.95

>  <VSA_EState7>
3.78

>  <VSA_EState8>
1.7

>  <VSA_EState9>
0

>  <apol>
51.44

>  <bpol>
27.12

>  <nRing>
4

>  <nHRing>
2

>  <naRing>
2

>  <naHRing>
0

>  <nARing 2>
2

>  <nAHRing 2>
2

>  <nFRing>
0

>  <nFHRing>
0

>  <nFaRing>
0

>  <nFaHRing>
0

>  <nFARing 2>
0

>  <nFAHRing 2>
0

>  <nRot>
3

>  <SLogP>
3.45

>  <SMR>
90.13

>  <TopoPSA(NO)>
30.49

>  <TopoPSA>
30.49

>  <JGI1>
0.13

>  <JGI2>
0.08

>  <JGI3>
0.04

>  <JGI4>
0.02

>  <JGI5>
0.02

>  <Diameter>
10

>  <Radius>
5

>  <TMWC10>
124.82

>  <TSRW10>
71.73

>  <MW>
309.17

>  <AMW>
6.72

>  <WPath>
1113

>  <WPol>
37

>  <Zagreb1>
124

>  <Zagreb2>
149

>  <mZagreb2>
5.11

>  <yes>


>  <nAR-cont>
1

>  <nHA-cont>
0.967789328

>  <MWHBN>
0.22748948

>  <MWHBN-cont>
0.989175318

>  <TPSA-cont>
0.787160867

>  <pka_cont>
0.97

>  <yes.1>


>  <BBB_SCORE>
5.510874039

>  <MMFF94 Energy>
86.945

$$$$
Compound 1948
Actelion Java MolfileCreator 2.0

  0  0  0  0  0  0              0 V3000
M  V30 BEGIN CTAB
M  V30 COUNTS 50 54 0 0 0
M  V30 BEGIN ATOM
M  V30 1 O -3.3794 3.7823 3.5405 0
M  V30 2 C -2.918 2.753 2.7739 0
M  V30 3 C -4.7928 3.7196 3.2657 0
M  V30 4 C -1.5919 2.3528 2.6642 0
M  V30 5 C -3.9342 2.122 2.0975 0
M  V30 6 O -5.1538 2.6667 2.3513 0
M  V30 7 C -1.296 1.2807 1.7888 0
M  V30 8 C -0.5308 3.0903 3.4328 0
M  V30 9 C -3.6921 1.0527 1.2705 0
M  V30 10 C -2.3668 0.6305 1.125 0
M  V30 11 C 0.1407 0.7742 1.6207 0
M  V30 12 C 0.7701 2.3068 3.5342 0
M  V30 13 C 1.17 1.7919 2.1608 0
M  V30 14 C 0.5524 0.43 0.1543 0
M  V30 15 N 0.0836 -0.8886 -0.3222 0
M  V30 16 C 0.2609 -1.034 -1.7805 0
M  V30 17 C 0.8675 -2.005 0.2306 0
M  V30 18 C 1.709 -1.4984 -1.9905 0
M  V30 19 C 2.0927 -2.1639 -0.663 0
M  V30 20 C 1.8946 -2.3732 -3.2102 0
M  V30 21 C 2.6853 -1.923 -4.278 0
M  V30 22 C 1.2856 -3.6338 -3.3133 0
M  V30 23 C 2.865 -2.7131 -5.4154 0
M  V30 24 C 1.4658 -4.4227 -4.4511 0
M  V30 25 C 2.2557 -3.9625 -5.5016 0
M  V30 26 H -5.3268 3.5625 4.2102 0
M  V30 27 H -5.1098 4.6786 2.8396 0
M  V30 28 H -0.3444 4.0477 2.9302 0
M  V30 29 H -0.8827 3.3113 4.4477 0
M  V30 30 H -4.4999 0.5509 0.7506 0
M  V30 31 H -2.178 -0.2272 0.4836 0
M  V30 32 H 0.2208 -0.1216 2.2502 0
M  V30 33 H 1.5573 2.9517 3.9408 0
M  V30 34 H 0.6533 1.4642 4.2275 0
M  V30 35 H 2.1561 1.3157 2.2264 0
M  V30 36 H 1.2698 2.639 1.4687 0
M  V30 37 H 0.1416 1.2149 -0.4956 0
M  V30 38 H 1.6437 0.4908 0.0525 0
M  V30 39 H -0.4594 -1.7834 -2.1319 0
M  V30 40 H 0.0372 -0.1161 -2.3369 0
M  V30 41 H 1.142 -1.8832 1.2829 0
M  V30 42 H 0.2565 -2.9148 0.1717 0
M  V30 43 H 2.341 -0.6053 -2.0979 0
M  V30 44 H 2.947 -1.6324 -0.225 0
M  V30 45 H 2.3813 -3.2161 -0.7546 0
M  V30 46 H 3.1702 -0.9501 -4.2339 0
M  V30 47 H 0.6616 -4.013 -2.5065 0
M  V30 48 H 3.4808 -2.3517 -6.2349 0
M  V30 49 H 0.9877 -5.3966 -4.5169 0
M  V30 50 H 2.3954 -4.5765 -6.3872 0
M  V30 END ATOM
M  V30 BEGIN BOND
M  V30 1 1 1 2
M  V30 2 1 1 3
M  V30 3 2 2 4
M  V30 4 1 2 5
M  V30 5 1 3 6
M  V30 6 1 4 7
M  V30 7 1 4 8
M  V30 8 2 5 9
M  V30 9 2 7 10
M  V30 10 1 7 11
M  V30 11 1 8 12
M  V30 12 1 11 13
M  V30 13 1 11 14
M  V30 14 1 14 15
M  V30 15 1 15 16
M  V30 16 1 15 17
M  V30 17 1 16 18
M  V30 18 1 17 19
M  V30 19 1 18 20
M  V30 20 2 20 21
M  V30 21 1 20 22
M  V30 22 1 21 23
M  V30 23 2 22 24
M  V30 24 2 23 25
M  V30 25 1 5 6
M  V30 26 1 9 10
M  V30 27 1 12 13
M  V30 28 1 18 19
M  V30 29 1 24 25
M  V30 30 1 3 26
M  V30 31 1 3 27
M  V30 32 1 8 28
M  V30 33 1 8 29
M  V30 34 1 9 30
M  V30 35 1 10 31
M  V30 36 1 11 32
M  V30 37 1 12 33
M  V30 38 1 12 34
M  V30 39 1 13 35
M  V30 40 1 13 36
M  V30 41 1 14 37
M  V30 42 1 14 38
M  V30 43 1 16 39
M  V30 44 1 16 40
M  V30 45 1 17 41
M  V30 46 1 17 42
M  V30 47 1 18 43
M  V30 48 1 19 44
M  V30 49 1 19 45
M  V30 50 1 21 46
M  V30 51 1 22 47
M  V30 52 1 23 48
M  V30 53 1 24 49
M  V30 54 1 25 50
M  V30 END BOND
M  V30 END CTAB
M  END
>  <Column 1>
2375

>  <level_0>
2556

>  <index>
2556

>  <Unnamed: 0>
2556

>  <NO.>
2568

>  <Name>
napitane

>  <IUPAC_name>
3-phenyl-1-(6-7-8-9-tetrahydrobenzo[g][1-3]benzodioxol-6-ylmethyl)pyrrolidine

>  <SMILES>
c1ccc(C2CCN(CC3CCCc4c3ccc3c4OCO3)C2)cc1

>  <CID>
60932

>  <logBB>


>  <BBB+/BBB->
BBB+

>  <Inchi>
InChI=1S/C22H25NO2/c1-2-5-16(6-3-1)17-11-12-23(13-17)14-18-7-4-8-20-19(18)9-10-21-22(20)25-15-24-21/h1-3-5-6-9-10-17-18H-4-7-8-11-15H2

>  <threshold>
-1

>  <reference>
R1|R19|R6|R27|R27|R30|

>  <group>
B

>  <Class>
1

>  <ABC>
20.3

>  <ABCGG>
15.39

>  <nAcid>
0

>  <nBase>
1

>  <nAromAtom>
12

>  <nAromBond>
12

>  <nAtom>
50

>  <nHeavyAtom>
25

>  <nSpiro>
0

>  <nBridgehead>
0

>  <nHetero>
3

>  <nN>
1

>  <nO>
2

>  <nF>
0

>  <BalabanJ>
1.18

>  <BertzCT>
758.12

>  <nBonds>
54

>  <nBondsO>
29

>  <nBondsS>
42

>  <nBondsD>
0

>  <nBondsT>
0

>  <nBondsA>
12

>  <nBondsM>
12

>  <nBondsKS>
48

>  <nBondsKD>
6

>  <RNCG>
0.25

>  <RPCG>
0.13

>  <FCSP3>
0.45

>  <SZ>
30

>  <Sm>
27.93

>  <Sv>
30.96

>  <Sse>
49.42

>  <Sp>
33.6

>  <Si>
55.9

>  <MZ>
0.6

>  <Mm>
0.56

>  <Mv>
0.62

>  <Mse>
0.99

>  <Mp>
0.67

>  <Mi>
1.12

>  <NsCH3>
0

>  <NdCH2>
0

>  <NssCH2>
8

>  <NtCH>
0

>  <NdsCH>
0

>  <NaaCH>
7

>  <NsssCH>
2

>  <NddC>
0

>  <NtsC>
0

>  <NdssC>
0

>  <NaasC>
5

>  <NaaaC>
0

>  <NssssC>
0

>  <NsNH3>
0

>  <NsNH2>
0

>  <NssNH2>
0

>  <NdNH>
0

>  <NssNH>
0

>  <NaaNH>
0

>  <NtN>
0

>  <NsssNH>
0

>  <NdsN>
0

>  <NaaN>
0

>  <NsssN>
1

>  <NddsN>
0

>  <NaasN>
0

>  <NssssN>
0

>  <NsOH>
0

>  <NdO>
0

>  <NssO>
2

>  <NaaO>
0

>  <NsF>
0

>  <NsSiH3>
0

>  <NssSiH2>
0

>  <NsssSiH>
0

>  <NssssSi>
0

>  <NsPH2>
0

>  <NssPH>
0

>  <NsssP>
0

>  <NdsssP>
0

>  <NsssssP>
0

>  <NsSH>
0

>  <NdS>
0

>  <NssS>
0

>  <NaaS>
0

>  <NdssS>
0

>  <NddssS>
0

>  <NsCl>
0

>  <NsBr>
0

>  <NsI>
0

>  <fragCpx>
241.03

>  <fMF>
0.5

>  <nHBAcc>
3

>  <nHBDon>
0

>  <Kier1>
17.12

>  <Kier2>
7.55

>  <Lipinski>
1

>  <GhoseFilter>
1

>  <FilterItLogS>
-5.08

>  <VMcGowan>
262.46

>  <LabuteASA>
149.11

>  <PEOE_VSA1>
14.37

>  <PEOE_VSA2>
0

>  <PEOE_VSA3>
0

>  <PEOE_VSA4>
0

>  <PEOE_VSA5>
0

>  <PEOE_VSA6>
36.4

>  <PEOE_VSA7>
61.26

>  <PEOE_VSA8>
18.65

>  <PEOE_VSA9>
0

>  <PEOE_VSA10>
0

>  <PEOE_VSA11>
11.5

>  <PEOE_VSA12>
6.79

>  <PEOE_VSA13>
0

>  <SMR_VSA1>
9.47

>  <SMR_VSA2>
0

>  <SMR_VSA3>
4.9

>  <SMR_VSA4>
0

>  <SMR_VSA5>
37.52

>  <SMR_VSA6>
26.43

>  <SMR_VSA7>
59.15

>  <SMR_VSA8>
0

>  <SMR_VSA9>
11.5

>  <SlogP_VSA1>
9.47

>  <SlogP_VSA2>
31.33

>  <SlogP_VSA3>
6.42

>  <SlogP_VSA4>
0

>  <SlogP_VSA5>
47.79

>  <SlogP_VSA6>
42.46

>  <SlogP_VSA7>
0

>  <SlogP_VSA8>
0

>  <SlogP_VSA9>
0

>  <SlogP_VSA10>
0

>  <SlogP_VSA11>
11.5

>  <EState_VSA1>
0

>  <EState_VSA2>
0

>  <EState_VSA3>
18.63

>  <EState_VSA4>
17.92

>  <EState_VSA5>
55.59

>  <EState_VSA6>
0

>  <EState_VSA7>
0

>  <EState_VSA8>
47.36

>  <EState_VSA9>
9.47

>  <EState_VSA10>
0

>  <VSA_EState1>
11.32

>  <VSA_EState2>
2.67

>  <VSA_EState3>
0

>  <VSA_EState4>
4.4

>  <VSA_EState5>
3.28

>  <VSA_EState6>
15.4

>  <VSA_EState7>
4.96

>  <VSA_EState8>
3.97

>  <VSA_EState9>
0

>  <apol>
56.11

>  <bpol>
30.26

>  <nRing>
5

>  <nHRing>
2

>  <naRing>
2

>  <naHRing>
0

>  <nARing 2>
3

>  <nAHRing 2>
2

>  <nFRing>
1

>  <nFHRing>
1

>  <nFaRing>
0

>  <nFaHRing>
0

>  <nFARing 2>
1

>  <nFAHRing 2>
1

>  <nRot>
3

>  <SLogP>
4.32

>  <SMR>
98.48

>  <TopoPSA(NO)>
21.7

>  <TopoPSA>
21.7

>  <JGI1>
0.12

>  <JGI2>
0.07

>  <JGI3>
0.03

>  <JGI4>
0.03

>  <JGI5>
0.02

>  <Diameter>
13

>  <Radius>
7

>  <TMWC10>
130.61

>  <TSRW10>
75.84

>  <MW>
335.19

>  <AMW>
6.7

>  <WPath>
1562

>  <WPol>
39

>  <Zagreb1>
140

>  <Zagreb2>
169

>  <mZagreb2>
5.39

>  <yes>


>  <nAR-cont>
0.691115

>  <nHA-cont>
0.921834225

>  <MWHBN>
0.163861048

>  <MWHBN-cont>
0.963427636

>  <TPSA-cont>
0.848520525

>  <pka_cont>
0.97

>  <yes.1>


>  <BBB_SCORE>
5.240131729

>  <MMFF94 Energy>
85.486

$$$$
Compound 1949
Actelion Java MolfileCreator 2.0

  0  0  0  0  0  0              0 V3000
M  V30 BEGIN CTAB
M  V30 COUNTS 27 29 0 0 0
M  V30 BEGIN ATOM
M  V30 1 N 0.478 2.4716 1.4345 0
M  V30 2 C -0.6481 1.8566 1.3139 0
M  V30 3 C 1.3299 1.7812 0.3885 0
M  V30 4 N -0.7673 0.8831 0.3811 0
M  V30 5 N -1.8589 2.0065 1.8939 0
M  V30 6 C 0.3812 0.8826 -0.4712 0 CFG=2
M  V30 7 C -2.1233 0.4916 0.1081 0
M  V30 8 C -2.8655 1.1247 1.3223 0
M  V30 9 C 0.9014 -0.5079 -0.7391 0
M  V30 10 C 1.1899 -0.9083 -2.0529 0
M  V30 11 C 1.1179 -1.4246 0.3031 0
M  V30 12 C 1.6794 -2.1897 -2.316 0
M  V30 13 C 1.6071 -2.7048 0.039 0
M  V30 14 C 1.8877 -3.0867 -1.2705 0
M  V30 15 H 2.1129 1.2114 0.9013 0
M  V30 16 H 1.812 2.5385 -0.2391 0
M  V30 17 H -2.0328 2.6892 2.6147 0
M  V30 18 H 0.144 1.4029 -1.4077 0
M  V30 19 H -2.479 0.9311 -0.8295 0
M  V30 20 H -2.2521 -0.5938 0.076 0
M  V30 21 H -3.1481 0.3559 2.0483 0
M  V30 22 H -3.7572 1.674 1.0072 0
M  V30 23 H 1.0365 -0.2238 -2.8844 0
M  V30 24 H 0.9009 -1.1387 1.3316 0
M  V30 25 H 1.8998 -2.4876 -3.3378 0
M  V30 26 H 1.7695 -3.4017 0.8571 0
M  V30 27 H 2.2699 -4.0831 -1.4758 0
M  V30 END ATOM
M  V30 BEGIN BOND
M  V30 1 2 1 2
M  V30 2 1 1 3
M  V30 3 1 2 4
M  V30 4 1 2 5
M  V30 5 1 3 6
M  V30 6 1 4 7
M  V30 7 1 5 8
M  V30 8 1 6 9
M  V30 9 2 9 10
M  V30 10 1 9 11
M  V30 11 1 10 12
M  V30 12 2 11 13
M  V30 13 2 12 14
M  V30 14 1 4 6
M  V30 15 1 7 8
M  V30 16 1 13 14
M  V30 17 1 3 15
M  V30 18 1 3 16
M  V30 19 1 5 17
M  V30 20 1 6 18
M  V30 21 1 7 19
M  V30 22 1 7 20
M  V30 23 1 8 21
M  V30 24 1 8 22
M  V30 25 1 10 23
M  V30 26 1 11 24
M  V30 27 1 12 25
M  V30 28 1 13 26
M  V30 29 1 14 27
M  V30 END BOND
M  V30 BEGIN COLLECTION
M  V30 MDLV30/STERAC1 ATOMS=(1 6)
M  V30 END COLLECTION
M  V30 END CTAB
M  END
>  <Column 1>
2376

>  <level_0>
2557

>  <index>
2557

>  <Unnamed: 0>
2557

>  <NO.>
2569

>  <Name>
deximafen (imafen)

>  <IUPAC_name>
5-phenyl-2-3-5-6-tetrahydro-1h-imidazo[1-2-a]imidazole

>  <SMILES>
c1ccc(C2CN=C3NCCN32)cc1

>  <CID>
163316

>  <logBB>


>  <BBB+/BBB->
BBB+

>  <Inchi>
InChI=1S/C11H13N3/c1-2-4-9(5-3-1)10-8-13-11-12-6-7-14(10)11/h1-5-10H-6-8H2-(H-12-13)

>  <threshold>
-1

>  <reference>
R1|R19|R6|R6|R27|R27|R30|

>  <group>
B

>  <Class>
1

>  <ABC>
11.19

>  <ABCGG>
10.05

>  <nAcid>
0

>  <nBase>
3

>  <nAromAtom>
6

>  <nAromBond>
6

>  <nAtom>
27

>  <nHeavyAtom>
14

>  <nSpiro>
0

>  <nBridgehead>
0

>  <nHetero>
3

>  <nN>
3

>  <nO>
0

>  <nF>
0

>  <BalabanJ>
1.66

>  <BertzCT>
358.06

>  <nBonds>
29

>  <nBondsO>
16

>  <nBondsS>
22

>  <nBondsD>
1

>  <nBondsT>
0

>  <nBondsA>
6

>  <nBondsM>
7

>  <nBondsKS>
25

>  <nBondsKD>
4

>  <RNCG>
0.28

>  <RPCG>
0.15

>  <FCSP3>
0.36

>  <SZ>
16.67

>  <Sm>
15.59

>  <Sv>
16.8

>  <Sse>
26.76

>  <Sp>
18.17

>  <Si>
30.57

>  <MZ>
0.62

>  <Mm>
0.58

>  <Mv>
0.62

>  <Mse>
0.99

>  <Mp>
0.67

>  <Mi>
1.13

>  <NsCH3>
0

>  <NdCH2>
0

>  <NssCH2>
3

>  <NtCH>
0

>  <NdsCH>
0

>  <NaaCH>
5

>  <NsssCH>
1

>  <NddC>
0

>  <NtsC>
0

>  <NdssC>
1

>  <NaasC>
1

>  <NaaaC>
0

>  <NssssC>
0

>  <NsNH3>
0

>  <NsNH2>
0

>  <NssNH2>
0

>  <NdNH>
0

>  <NssNH>
1

>  <NaaNH>
0

>  <NtN>
0

>  <NsssNH>
0

>  <NdsN>
1

>  <NaaN>
0

>  <NsssN>
1

>  <NddsN>
0

>  <NaasN>
0

>  <NssssN>
0

>  <NsOH>
0

>  <NdO>
0

>  <NssO>
0

>  <NaaO>
0

>  <NsF>
0

>  <NsSiH3>
0

>  <NssSiH2>
0

>  <NsssSiH>
0

>  <NssssSi>
0

>  <NsPH2>
0

>  <NssPH>
0

>  <NsssP>
0

>  <NdsssP>
0

>  <NsssssP>
0

>  <NsSH>
0

>  <NdS>
0

>  <NssS>
0

>  <NaaS>
0

>  <NdssS>
0

>  <NddssS>
0

>  <NsCl>
0

>  <NsBr>
0

>  <NsI>
0

>  <fragCpx>
74.03

>  <fMF>
0.52

>  <nHBAcc>
3

>  <nHBDon>
1

>  <Kier1>
9.24

>  <Kier2>
3.87

>  <Lipinski>
1

>  <GhoseFilter>
1

>  <FilterItLogS>
-2.21

>  <VMcGowan>
146.01

>  <LabuteASA>
83.45

>  <PEOE_VSA1>
10.22

>  <PEOE_VSA2>
4.99

>  <PEOE_VSA3>
0

>  <PEOE_VSA4>
0

>  <PEOE_VSA5>
0

>  <PEOE_VSA6>
30.33

>  <PEOE_VSA7>
5.56

>  <PEOE_VSA8>
13.09

>  <PEOE_VSA9>
12.59

>  <PEOE_VSA10>
0

>  <PEOE_VSA11>
5.96

>  <PEOE_VSA12>
0

>  <PEOE_VSA13>
0

>  <SMR_VSA1>
0

>  <SMR_VSA2>
0

>  <SMR_VSA3>
10.22

>  <SMR_VSA4>
4.99

>  <SMR_VSA5>
6.04

>  <SMR_VSA6>
19.63

>  <SMR_VSA7>
35.9

>  <SMR_VSA8>
0

>  <SMR_VSA9>
0

>  <SlogP_VSA1>
5.32

>  <SlogP_VSA2>
30.49

>  <SlogP_VSA3>
0

>  <SlogP_VSA4>
0

>  <SlogP_VSA5>
11.61

>  <SlogP_VSA6>
35.32

>  <SlogP_VSA7>
0

>  <SlogP_VSA8>
0

>  <SlogP_VSA9>
0

>  <SlogP_VSA10>
0

>  <SlogP_VSA11>
0

>  <EState_VSA1>
0

>  <EState_VSA2>
0

>  <EState_VSA3>
6.04

>  <EState_VSA4>
25.59

>  <EState_VSA5>
5.56

>  <EState_VSA6>
0

>  <EState_VSA7>
0

>  <EState_VSA8>
45.54

>  <EState_VSA9>
0

>  <EState_VSA10>
0

>  <VSA_EState1>
0

>  <VSA_EState2>
6.84

>  <VSA_EState3>
3.29

>  <VSA_EState4>
1.37

>  <VSA_EState5>
1.08

>  <VSA_EState6>
11.07

>  <VSA_EState7>
0

>  <VSA_EState8>
3.01

>  <VSA_EState9>
0

>  <apol>
30.34

>  <bpol>
16.46

>  <nRing>
3

>  <nHRing>
2

>  <naRing>
1

>  <naHRing>
0

>  <nARing 2>
2

>  <nAHRing 2>
2

>  <nFRing>
1

>  <nFHRing>
1

>  <nFaRing>
0

>  <nFaHRing>
0

>  <nFARing 2>
1

>  <nFAHRing 2>
1

>  <nRot>
1

>  <SLogP>
1

>  <SMR>
56.19

>  <TopoPSA(NO)>
27.63

>  <TopoPSA>
27.63

>  <JGI1>
0.09

>  <JGI2>
0.07

>  <JGI3>
0.04

>  <JGI4>
0.02

>  <JGI5>
0.02

>  <Diameter>
7

>  <Radius>
4

>  <TMWC10>
100.84

>  <TSRW10>
61.83

>  <MW>
187.11

>  <AMW>
6.93

>  <WPath>
286

>  <WPol>
18

>  <Zagreb1>
76

>  <Zagreb2>
91

>  <mZagreb2>
3.08

>  <yes>


>  <nAR-cont>
1

>  <nHA-cont>
0.887625254

>  <MWHBN>
0.292422976

>  <MWHBN-cont>
0.862770161

>  <TPSA-cont>
0.807125443

>  <pka_cont>
0.97

>  <yes.1>


>  <BBB_SCORE>
5.281031381

>  <MMFF94 Energy>
-6.3774

$$$$
Compound 1950
Actelion Java MolfileCreator 2.0

  0  0  0  0  0  0              0 V3000
M  V30 BEGIN CTAB
M  V30 COUNTS 38 41 0 0 0
M  V30 BEGIN ATOM
M  V30 1 N 0.8784 0.0798 2.557 0
M  V30 2 C -0.4695 0.3336 1.9917 0 CFG=2
M  V30 3 C 1.8703 -0.3928 1.5671 0
M  V30 4 C -0.8091 -0.6774 0.9408 0
M  V30 5 C -0.7222 1.8018 1.5538 0
M  V30 6 C 1.4655 -1.6864 0.8257 0
M  V30 7 N -2.0447 -0.8632 0.3826 0
M  V30 8 C 0.051 -1.5968 0.3787 0
M  V30 9 C 0.215 2.4044 0.5312 0
M  V30 10 C -1.9852 -1.8587 -0.5697 0
M  V30 11 C -0.6741 -2.3424 -0.5869 0
M  V30 12 C 1.1932 3.3294 0.9261 0
M  V30 13 C 0.121 2.0602 -0.8241 0
M  V30 14 C -2.9878 -2.3687 -1.4034 0
M  V30 15 C -0.3501 -3.3872 -1.4734 0
M  V30 16 C 2.0623 3.8886 -0.0123 0
M  V30 17 C 0.9924 2.6187 -1.7608 0
M  V30 18 C -2.6396 -3.4022 -2.2783 0
M  V30 19 C -1.3413 -3.9064 -2.3142 0
M  V30 20 C 1.9626 3.5322 -1.3552 0
M  V30 21 H 1.2258 0.9378 2.9792 0
M  V30 22 H -1.1653 0.1525 2.8231 0
M  V30 23 H 2.8165 -0.5752 2.0894 0
M  V30 24 H 2.0762 0.396 0.8366 0
M  V30 25 H -1.7471 1.9034 1.1708 0
M  V30 26 H -0.698 2.4308 2.4549 0
M  V30 27 H 2.1337 -1.8461 -0.0272 0
M  V30 28 H 1.5712 -2.5444 1.5006 0
M  V30 29 H -2.8813 -0.3475 0.6159 0
M  V30 30 H 1.2875 3.6213 1.9694 0
M  V30 31 H -0.6254 1.346 -1.164 0
M  V30 32 H -4.0013 -1.9827 -1.3749 0
M  V30 33 H 0.6586 -3.7867 -1.506 0
M  V30 34 H 2.8176 4.6028 0.3047 0
M  V30 35 H 0.9132 2.3368 -2.8074 0
M  V30 36 H -3.3958 -3.8208 -2.9384 0
M  V30 37 H -1.0933 -4.7123 -3.0001 0
M  V30 38 H 2.6399 3.9658 -2.0858 0
M  V30 END ATOM
M  V30 BEGIN BOND
M  V30 1 1 1 2
M  V30 2 1 1 3
M  V30 3 1 2 4
M  V30 4 1 2 5
M  V30 5 1 3 6
M  V30 6 1 4 7
M  V30 7 2 4 8
M  V30 8 1 5 9
M  V30 9 1 7 10
M  V30 10 1 8 11
M  V30 11 2 9 12
M  V30 12 1 9 13
M  V30 13 1 10 14
M  V30 14 1 11 15
M  V30 15 1 12 16
M  V30 16 2 13 17
M  V30 17 2 14 18
M  V30 18 2 15 19
M  V30 19 2 16 20
M  V30 20 1 6 8
M  V30 21 2 10 11
M  V30 22 1 17 20
M  V30 23 1 18 19
M  V30 24 1 1 21
M  V30 25 1 2 22
M  V30 26 1 3 23
M  V30 27 1 3 24
M  V30 28 1 5 25
M  V30 29 1 5 26
M  V30 30 1 6 27
M  V30 31 1 6 28
M  V30 32 1 7 29
M  V30 33 1 12 30
M  V30 34 1 13 31
M  V30 35 1 14 32
M  V30 36 1 15 33
M  V30 37 1 16 34
M  V30 38 1 17 35
M  V30 39 1 18 36
M  V30 40 1 19 37
M  V30 41 1 20 38
M  V30 END BOND
M  V30 BEGIN COLLECTION
M  V30 MDLV30/STERAC1 ATOMS=(1 2)
M  V30 END COLLECTION
M  V30 END CTAB
M  END
>  <Column 1>
2377

>  <level_0>
2558

>  <index>
2558

>  <Unnamed: 0>
2558

>  <NO.>
2570

>  <Name>
fenharmane

>  <IUPAC_name>
1-benzyl-2-3-4-9-tetrahydro-1h-pyrido[3-4-b]indole

>  <SMILES>
c1ccc(CC2NCCc3c2[nH]c2ccccc32)cc1

>  <CID>
71167

>  <logBB>


>  <BBB+/BBB->
BBB+

>  <Inchi>
InChI=1S/C18H18N2/c1-2-6-13(7-3-1)12-17-18-15(10-11-19-17)14-8-4-5-9-16(14)20-18/h1-9-17-19-20H-10-12H2

>  <threshold>
-1

>  <reference>
R1|R27|R30|

>  <group>
B

>  <Class>
1

>  <ABC>
16.1

>  <ABCGG>
12.47

>  <nAcid>
0

>  <nBase>
1

>  <nAromAtom>
15

>  <nAromBond>
16

>  <nAtom>
38

>  <nHeavyAtom>
20

>  <nSpiro>
0

>  <nBridgehead>
0

>  <nHetero>
2

>  <nN>
2

>  <nO>
0

>  <nF>
0

>  <BalabanJ>
1.42

>  <BertzCT>
727.52

>  <nBonds>
41

>  <nBondsO>
23

>  <nBondsS>
25

>  <nBondsD>
0

>  <nBondsT>
0

>  <nBondsA>
16

>  <nBondsM>
16

>  <nBondsKS>
34

>  <nBondsKD>
7

>  <RNCG>
0.28

>  <RPCG>
0.13

>  <FCSP3>
0.22

>  <SZ>
23.33

>  <Sm>
21.84

>  <Sv>
24.39

>  <Sse>
37.32

>  <Sp>
26.5

>  <Si>
42.32

>  <MZ>
0.61

>  <Mm>
0.57

>  <Mv>
0.64

>  <Mse>
0.98

>  <Mp>
0.7

>  <Mi>
1.11

>  <NsCH3>
0

>  <NdCH2>
0

>  <NssCH2>
3

>  <NtCH>
0

>  <NdsCH>
0

>  <NaaCH>
9

>  <NsssCH>
1

>  <NddC>
0

>  <NtsC>
0

>  <NdssC>
0

>  <NaasC>
3

>  <NaaaC>
2

>  <NssssC>
0

>  <NsNH3>
0

>  <NsNH2>
0

>  <NssNH2>
0

>  <NdNH>
0

>  <NssNH>
1

>  <NaaNH>
1

>  <NtN>
0

>  <NsssNH>
0

>  <NdsN>
0

>  <NaaN>
0

>  <NsssN>
0

>  <NddsN>
0

>  <NaasN>
0

>  <NssssN>
0

>  <NsOH>
0

>  <NdO>
0

>  <NssO>
0

>  <NaaO>
0

>  <NsF>
0

>  <NsSiH3>
0

>  <NssSiH2>
0

>  <NsssSiH>
0

>  <NssssSi>
0

>  <NsPH2>
0

>  <NssPH>
0

>  <NsssP>
0

>  <NdsssP>
0

>  <NsssssP>
0

>  <NsSH>
0

>  <NdS>
0

>  <NssS>
0

>  <NaaS>
0

>  <NdssS>
0

>  <NddssS>
0

>  <NsCl>
0

>  <NsBr>
0

>  <NsI>
0

>  <fragCpx>
149.02

>  <fMF>
0.53

>  <nHBAcc>
1

>  <nHBDon>
2

>  <Kier1>
13.65

>  <Kier2>
6.01

>  <Lipinski>
1

>  <GhoseFilter>
1

>  <FilterItLogS>
-5.5

>  <VMcGowan>
210.9

>  <LabuteASA>
118.38

>  <PEOE_VSA1>
10.3

>  <PEOE_VSA2>
0

>  <PEOE_VSA3>
0

>  <PEOE_VSA4>
0

>  <PEOE_VSA5>
0

>  <PEOE_VSA6>
48.53

>  <PEOE_VSA7>
36.58

>  <PEOE_VSA8>
16.6

>  <PEOE_VSA9>
6.04

>  <PEOE_VSA10>
0

>  <PEOE_VSA11>
0

>  <PEOE_VSA12>
0

>  <PEOE_VSA13>
0

>  <SMR_VSA1>
0

>  <SMR_VSA2>
0

>  <SMR_VSA3>
10.3

>  <SMR_VSA4>
0

>  <SMR_VSA5>
18.88

>  <SMR_VSA6>
6.54

>  <SMR_VSA7>
71.42

>  <SMR_VSA8>
0

>  <SMR_VSA9>
0

>  <SlogP_VSA1>
5.32

>  <SlogP_VSA2>
11.53

>  <SlogP_VSA3>
12.84

>  <SlogP_VSA4>
0

>  <SlogP_VSA5>
22.86

>  <SlogP_VSA6>
54.6

>  <SlogP_VSA7>
0

>  <SlogP_VSA8>
10.9

>  <SlogP_VSA9>
0

>  <SlogP_VSA10>
0

>  <SlogP_VSA11>
0

>  <EState_VSA1>
0

>  <EState_VSA2>
0

>  <EState_VSA3>
6.04

>  <EState_VSA4>
19.39

>  <EState_VSA5>
27.72

>  <EState_VSA6>
0

>  <EState_VSA7>
0

>  <EState_VSA8>
64.9

>  <EState_VSA9>
0

>  <EState_VSA10>
0

>  <VSA_EState1>
0

>  <VSA_EState2>
3.62

>  <VSA_EState3>
5.04

>  <VSA_EState4>
5.53

>  <VSA_EState5>
0

>  <VSA_EState6>
19.75

>  <VSA_EState7>
2.16

>  <VSA_EState8>
1.06

>  <VSA_EState9>
0

>  <apol>
44.26

>  <bpol>
19.2

>  <nRing>
4

>  <nHRing>
2

>  <naRing>
3

>  <naHRing>
1

>  <nARing 2>
1

>  <nAHRing 2>
1

>  <nFRing>
1

>  <nFHRing>
1

>  <nFaRing>
0

>  <nFaHRing>
0

>  <nFARing 2>
1

>  <nFAHRing 2>
1

>  <nRot>
2

>  <SLogP>
3.6

>  <SMR>
82.89

>  <TopoPSA(NO)>
27.82

>  <TopoPSA>
27.82

>  <JGI1>
0.11

>  <JGI2>
0.06

>  <JGI3>
0.04

>  <JGI4>
0.03

>  <JGI5>
0.01

>  <Diameter>
10

>  <Radius>
5

>  <TMWC10>
117.48

>  <TSRW10>
68.34

>  <MW>
262.15

>  <AMW>
6.9

>  <WPath>
792

>  <WPol>
31

>  <Zagreb1>
110

>  <Zagreb2>
132

>  <mZagreb2>
4.36

>  <yes>


>  <nAR-cont>
0.816016

>  <nHA-cont>
0.999629945

>  <MWHBN>
0.185287586

>  <MWHBN-cont>
0.992220296

>  <TPSA-cont>
0.805799125

>  <pka_cont>
0.97

>  <yes.1>


>  <BBB_SCORE>
5.400574639

>  <MMFF94 Energy>
63.263

$$$$
Compound 1951
Actelion Java MolfileCreator 2.0

  0  0  0  0  0  0              0 V3000
M  V30 BEGIN CTAB
M  V30 COUNTS 44 47 0 0 0
M  V30 BEGIN ATOM
M  V30 1 N -4.7891 2.4721 4.3893 0
M  V30 2 C -3.6888 3.1632 4.023 0
M  V30 3 C -4.7666 1.1406 4.168 0
M  V30 4 C -2.5685 2.5839 3.4468 0
M  V30 5 C -3.6952 0.4697 3.5983 0
M  V30 6 C -2.5646 1.2037 3.2315 0
M  V30 7 C -1.3801 0.5265 2.5906 0
M  V30 8 C -1.4878 0.5151 1.0631 0
M  V30 9 C -0.319 -0.1651 0.4232 0
M  V30 10 C -0.1614 -1.569 0.1949 0
M  V30 11 C 0.8193 0.4479 -0.0585 0
M  V30 12 C 1.078 -1.7641 -0.4241 0
M  V30 13 C -0.9689 -2.6942 0.4662 0
M  V30 14 N 1.6486 -0.5157 -0.578 0
M  V30 15 C 1.5347 -3.0456 -0.7777 0
M  V30 16 C -0.5211 -3.9719 0.1173 0
M  V30 17 C 2.961 -0.2349 -1.1513 0
M  V30 18 C 0.7148 -4.1423 -0.4959 0
M  V30 19 C 2.8634 0.3765 -2.5277 0
M  V30 20 C 2.3156 -0.3443 -3.6 0
M  V30 21 C 3.3382 1.6761 -2.761 0
M  V30 22 C 2.2395 0.2239 -4.8727 0
M  V30 23 C 3.2619 2.2419 -4.0352 0
M  V30 24 C 2.7127 1.516 -5.0899 0
M  V30 25 H -3.7314 4.2326 4.2091 0
M  V30 26 H -5.6634 0.6069 4.4695 0
M  V30 27 H -1.7191 3.201 3.1735 0
M  V30 28 H -3.7466 -0.6031 3.4467 0
M  V30 29 H -1.2953 -0.4977 2.9767 0
M  V30 30 H -0.4583 1.0346 2.904 0
M  V30 31 H -2.4144 0.015 0.7528 0
M  V30 32 H -1.5595 1.5437 0.6856 0
M  V30 33 H 1.1001 1.4931 -0.0853 0
M  V30 34 H -1.9367 -2.5723 0.9436 0
M  V30 35 H 2.494 -3.1967 -1.2613 0
M  V30 36 H -1.146 -4.8363 0.327 0
M  V30 37 H 3.4713 0.437 -0.4503 0
M  V30 38 H 3.5469 -1.1584 -1.189 0
M  V30 39 H 1.0489 -5.1423 -0.7626 0
M  V30 40 H 1.9337 -1.3522 -3.4497 0
M  V30 41 H 3.7691 2.2612 -1.9513 0
M  V30 42 H 1.8062 -0.3416 -5.6936 0
M  V30 43 H 3.6293 3.2508 -4.2048 0
M  V30 44 H 2.6506 1.958 -6.0808 0
M  V30 END ATOM
M  V30 BEGIN BOND
M  V30 1 2 1 2
M  V30 2 1 1 3
M  V30 3 1 2 4
M  V30 4 2 3 5
M  V30 5 2 4 6
M  V30 6 1 6 7
M  V30 7 1 7 8
M  V30 8 1 8 9
M  V30 9 1 9 10
M  V30 10 2 9 11
M  V30 11 2 10 12
M  V30 12 1 10 13
M  V30 13 1 11 14
M  V30 14 1 12 15
M  V30 15 2 13 16
M  V30 16 1 14 17
M  V30 17 2 15 18
M  V30 18 1 17 19
M  V30 19 2 19 20
M  V30 20 1 19 21
M  V30 21 1 20 22
M  V30 22 2 21 23
M  V30 23 2 22 24
M  V30 24 1 5 6
M  V30 25 1 12 14
M  V30 26 1 16 18
M  V30 27 1 23 24
M  V30 28 1 2 25
M  V30 29 1 3 26
M  V30 30 1 4 27
M  V30 31 1 5 28
M  V30 32 1 7 29
M  V30 33 1 7 30
M  V30 34 1 8 31
M  V30 35 1 8 32
M  V30 36 1 11 33
M  V30 37 1 13 34
M  V30 38 1 15 35
M  V30 39 1 16 36
M  V30 40 1 17 37
M  V30 41 1 17 38
M  V30 42 1 18 39
M  V30 43 1 20 40
M  V30 44 1 21 41
M  V30 45 1 22 42
M  V30 46 1 23 43
M  V30 47 1 24 44
M  V30 END BOND
M  V30 END CTAB
M  END
>  <Column 1>
2378

>  <level_0>
2559

>  <index>
2559

>  <Unnamed: 0>
2559

>  <NO.>
2571

>  <Name>
benzindopyrine hydrochloride

>  <IUPAC_name>
1-benzyl-3-(2-pyridin-4-ylethyl)indole;hydrochloride

>  <SMILES>
c1ccc(Cn2cc(CCc3ccncc3)c3ccccc32)cc1

>  <CID>
21770

>  <logBB>


>  <BBB+/BBB->
BBB+

>  <Inchi>
InChI=1S/C22H20N2/c1-2-6-19(7-3-1)16-24-17-20(21-8-4-5-9-22(21)24)11-10-18-12-14-23-15-13-18/h1-9-12-15-17H-10-11-16H2

>  <threshold>
-1

>  <reference>
R1|R13|R19|R6|R24|R27|R27|R27|R30|R30|

>  <group>
B

>  <Class>
1

>  <ABC>
18.97

>  <ABCGG>
14.24

>  <nAcid>
0

>  <nBase>
0

>  <nAromAtom>
21

>  <nAromBond>
22

>  <nAtom>
44

>  <nHeavyAtom>
24

>  <nSpiro>
0

>  <nBridgehead>
0

>  <nHetero>
2

>  <nN>
2

>  <nO>
0

>  <nF>
0

>  <BalabanJ>
1.32

>  <BertzCT>
924.03

>  <nBonds>
47

>  <nBondsO>
27

>  <nBondsS>
25

>  <nBondsD>
0

>  <nBondsT>
0

>  <nBondsA>
22

>  <nBondsM>
22

>  <nBondsKS>
37

>  <nBondsKD>
10

>  <RNCG>
0.26

>  <RPCG>
0.06

>  <FCSP3>
0.14

>  <SZ>
27.67

>  <Sm>
26.01

>  <Sv>
28.93

>  <Sse>
43.2

>  <Sp>
31.3

>  <Si>
48.73

>  <MZ>
0.63

>  <Mm>
0.59

>  <Mv>
0.66

>  <Mse>
0.98

>  <Mp>
0.71

>  <Mi>
1.11

>  <NsCH3>
0

>  <NdCH2>
0

>  <NssCH2>
3

>  <NtCH>
0

>  <NdsCH>
0

>  <NaaCH>
14

>  <NsssCH>
0

>  <NddC>
0

>  <NtsC>
0

>  <NdssC>
0

>  <NaasC>
3

>  <NaaaC>
2

>  <NssssC>
0

>  <NsNH3>
0

>  <NsNH2>
0

>  <NssNH2>
0

>  <NdNH>
0

>  <NssNH>
0

>  <NaaNH>
0

>  <NtN>
0

>  <NsssNH>
0

>  <NdsN>
0

>  <NaaN>
1

>  <NsssN>
0

>  <NddsN>
0

>  <NaasN>
1

>  <NssssN>
0

>  <NsOH>
0

>  <NdO>
0

>  <NssO>
0

>  <NaaO>
0

>  <NsF>
0

>  <NsSiH3>
0

>  <NssSiH2>
0

>  <NsssSiH>
0

>  <NssssSi>
0

>  <NsPH2>
0

>  <NssPH>
0

>  <NsssP>
0

>  <NdsssP>
0

>  <NsssssP>
0

>  <NsSH>
0

>  <NdS>
0

>  <NssS>
0

>  <NaaS>
0

>  <NdssS>
0

>  <NddssS>
0

>  <NsCl>
0

>  <NsBr>
0

>  <NsI>
0

>  <fragCpx>
177.02

>  <fMF>
0.55

>  <nHBAcc>
2

>  <nHBDon>
0

>  <Kier1>
17.42

>  <Kier2>
8.59

>  <Lipinski>
1

>  <GhoseFilter>
1

>  <FilterItLogS>
-6.2

>  <VMcGowan>
254.36

>  <LabuteASA>
141.96

>  <PEOE_VSA1>
4.57

>  <PEOE_VSA2>
4.98

>  <PEOE_VSA3>
0

>  <PEOE_VSA4>
0

>  <PEOE_VSA5>
0

>  <PEOE_VSA6>
48.53

>  <PEOE_VSA7>
47.73

>  <PEOE_VSA8>
36.04

>  <PEOE_VSA9>
0

>  <PEOE_VSA10>
0

>  <PEOE_VSA11>
0

>  <PEOE_VSA12>
0

>  <PEOE_VSA13>
0

>  <SMR_VSA1>
0

>  <SMR_VSA2>
0

>  <SMR_VSA3>
9.55

>  <SMR_VSA4>
0

>  <SMR_VSA5>
19.39

>  <SMR_VSA6>
0

>  <SMR_VSA7>
102.01

>  <SMR_VSA8>
0

>  <SMR_VSA9>
0

>  <SlogP_VSA1>
0

>  <SlogP_VSA2>
9.55

>  <SlogP_VSA3>
19.39

>  <SlogP_VSA4>
0

>  <SlogP_VSA5>
16.69

>  <SlogP_VSA6>
85.32

>  <SlogP_VSA7>
0

>  <SlogP_VSA8>
10.9

>  <SlogP_VSA9>
0

>  <SlogP_VSA10>
0

>  <SlogP_VSA11>
0

>  <EState_VSA1>
0

>  <EState_VSA2>
0

>  <EState_VSA3>
0

>  <EState_VSA4>
19.39

>  <EState_VSA5>
27.59

>  <EState_VSA6>
0

>  <EState_VSA7>
12.39

>  <EState_VSA8>
82.48

>  <EState_VSA9>
0

>  <EState_VSA10>
0

>  <VSA_EState1>
2.37

>  <VSA_EState2>
4.1

>  <VSA_EState3>
1.36

>  <VSA_EState4>
5.4

>  <VSA_EState5>
0

>  <VSA_EState6>
23.55

>  <VSA_EState7>
8.15

>  <VSA_EState8>
0.91

>  <VSA_EState9>
0

>  <apol>
52.28

>  <bpol>
22.91

>  <nRing>
4

>  <nHRing>
2

>  <naRing>
4

>  <naHRing>
2

>  <nARing 2>
0

>  <nAHRing 2>
0

>  <nFRing>
1

>  <nFHRing>
1

>  <nFaRing>
1

>  <nFaHRing>
1

>  <nFARing 2>
0

>  <nFAHRing 2>
0

>  <nRot>
5

>  <SLogP>
4.87

>  <SMR>
99.13

>  <TopoPSA(NO)>
17.82

>  <TopoPSA>
17.82

>  <JGI1>
0.11

>  <JGI2>
0.05

>  <JGI3>
0.04

>  <JGI4>
0.02

>  <JGI5>
0.02

>  <Diameter>
13

>  <Radius>
7

>  <TMWC10>
125.73

>  <TSRW10>
72.71

>  <MW>
312.16

>  <AMW>
7.09

>  <WPath>
1421

>  <WPol>
34

>  <Zagreb1>
126

>  <Zagreb2>
147

>  <mZagreb2>
5.33

>  <yes>


>  <nAR-cont>
0.336376

>  <nHA-cont>
0.94700071

>  <MWHBN>
0.113198682

>  <MWHBN-cont>
0.798632382

>  <TPSA-cont>
0.875605334

>  <pka_cont>
0.97

>  <yes.1>


>  <BBB_SCORE>
4.717535952

>  <MMFF94 Energy>
75.467

$$$$
Compound 1952
Actelion Java MolfileCreator 2.0

  0  0  0  0  0  0              0 V3000
M  V30 BEGIN CTAB
M  V30 COUNTS 26 28 0 0 0
M  V30 BEGIN ATOM
M  V30 1 S 3.528 -0.0819 1.3116 0
M  V30 2 C 1.8191 0.1003 1.1284 0
M  V30 3 C 3.8078 1.6571 0.7813 0
M  V30 4 N 0.8995 -0.7842 1.3534 0
M  V30 5 N 1.4759 1.3064 0.6195 0
M  V30 6 C 2.5338 2.0778 0.0285 0
M  V30 7 C -0.36 -0.0404 0.9495 0 CFG=1
M  V30 8 C 0.1048 1.2536 0.2043 0
M  V30 9 C -1.3174 -0.858 0.11 0
M  V30 10 C -0.8844 -1.9664 -0.6312 0
M  V30 11 C -2.6694 -0.4857 0.0354 0
M  V30 12 C -1.7799 -2.687 -1.4236 0
M  V30 13 C -3.5639 -1.207 -0.7576 0
M  V30 14 C -3.1186 -2.3068 -1.4874 0
M  V30 15 H 4.7017 1.7458 0.1585 0
M  V30 16 H 3.9379 2.2665 1.6816 0
M  V30 17 H 2.6289 1.8364 -1.0367 0
M  V30 18 H 2.3565 3.1537 0.1217 0
M  V30 19 H -0.8616 0.2352 1.8876 0
M  V30 20 H 0.0306 1.1532 -0.8844 0
M  V30 21 H -0.4633 2.1314 0.527 0
M  V30 22 H 0.1566 -2.2813 -0.5878 0
M  V30 23 H -3.0375 0.3665 0.6024 0
M  V30 24 H -1.4304 -3.5486 -1.9861 0
M  V30 25 H -4.6094 -0.9138 -0.8025 0
M  V30 26 H -3.8149 -2.8717 -2.1013 0
M  V30 END ATOM
M  V30 BEGIN BOND
M  V30 1 1 1 2
M  V30 2 1 1 3
M  V30 3 2 2 4
M  V30 4 1 2 5
M  V30 5 1 3 6
M  V30 6 1 4 7
M  V30 7 1 5 8
M  V30 8 1 7 9
M  V30 9 2 9 10
M  V30 10 1 9 11
M  V30 11 1 10 12
M  V30 12 2 11 13
M  V30 13 2 12 14
M  V30 14 1 5 6
M  V30 15 1 7 8
M  V30 16 1 13 14
M  V30 17 1 3 15
M  V30 18 1 3 16
M  V30 19 1 6 17
M  V30 20 1 6 18
M  V30 21 1 7 19
M  V30 22 1 8 20
M  V30 23 1 8 21
M  V30 24 1 10 22
M  V30 25 1 11 23
M  V30 26 1 12 24
M  V30 27 1 13 25
M  V30 28 1 14 26
M  V30 END BOND
M  V30 BEGIN COLLECTION
M  V30 MDLV30/STEABS ATOMS=(1 7)
M  V30 END COLLECTION
M  V30 END CTAB
M  END
>  <Column 1>
2379

>  <level_0>
2560

>  <index>
2560

>  <Unnamed: 0>
2560

>  <NO.>
2572

>  <Name>
dexamisole

>  <IUPAC_name>
(6r)-6-phenyl-2-3-5-6-tetrahydroimidazo[2-1-b][1-3]thiazole

>  <SMILES>
c1ccc([C@@H]2CN3CCSC3=N2)cc1

>  <CID>
66374

>  <logBB>


>  <BBB+/BBB->
BBB+

>  <Inchi>
InChI=1S/C11H12N2S/c1-2-4-9(5-3-1)10-8-13-6-7-14-11(13)12-10/h1-5-10H-6-8H2/t10-/m0/s1

>  <threshold>
-1

>  <reference>
R1|R6|R27|R27|R30|

>  <group>
B

>  <Class>
1

>  <ABC>
11.23

>  <ABCGG>
9.78

>  <nAcid>
0

>  <nBase>
2

>  <nAromAtom>
6

>  <nAromBond>
6

>  <nAtom>
26

>  <nHeavyAtom>
14

>  <nSpiro>
0

>  <nBridgehead>
0

>  <nHetero>
3

>  <nN>
2

>  <nO>
0

>  <nF>
0

>  <BalabanJ>
1.59

>  <BertzCT>
360.81

>  <nBonds>
28

>  <nBondsO>
16

>  <nBondsS>
21

>  <nBondsD>
1

>  <nBondsT>
0

>  <nBondsA>
6

>  <nBondsM>
7

>  <nBondsKS>
24

>  <nBondsKD>
4

>  <RNCG>
0.35

>  <RPCG>
0.16

>  <FCSP3>
0.36

>  <SZ>
18

>  <Sm>
17.01

>  <Sv>
16.95

>  <Sse>
25.73

>  <Sp>
18.85

>  <Si>
28.99

>  <MZ>
0.69

>  <Mm>
0.65

>  <Mv>
0.65

>  <Mse>
0.99

>  <Mp>
0.72

>  <Mi>
1.12

>  <NsCH3>
0

>  <NdCH2>
0

>  <NssCH2>
3

>  <NtCH>
0

>  <NdsCH>
0

>  <NaaCH>
5

>  <NsssCH>
1

>  <NddC>
0

>  <NtsC>
0

>  <NdssC>
1

>  <NaasC>
1

>  <NaaaC>
0

>  <NssssC>
0

>  <NsNH3>
0

>  <NsNH2>
0

>  <NssNH2>
0

>  <NdNH>
0

>  <NssNH>
0

>  <NaaNH>
0

>  <NtN>
0

>  <NsssNH>
0

>  <NdsN>
1

>  <NaaN>
0

>  <NsssN>
1

>  <NddsN>
0

>  <NaasN>
0

>  <NssssN>
0

>  <NsOH>
0

>  <NdO>
0

>  <NssO>
0

>  <NaaO>
0

>  <NsF>
0

>  <NsSiH3>
0

>  <NssSiH2>
0

>  <NsssSiH>
0

>  <NssssSi>
0

>  <NsPH2>
0

>  <NssPH>
0

>  <NsssP>
0

>  <NdsssP>
0

>  <NsssssP>
0

>  <NsSH>
0

>  <NdS>
0

>  <NssS>
1

>  <NaaS>
0

>  <NdssS>
0

>  <NddssS>
0

>  <NsCl>
0

>  <NsBr>
0

>  <NsI>
0

>  <fragCpx>
74.03

>  <fMF>
0.54

>  <nHBAcc>
3

>  <nHBDon>
0

>  <Kier1>
9.24

>  <Kier2>
3.87

>  <Lipinski>
1

>  <GhoseFilter>
1

>  <FilterItLogS>
-2.28

>  <VMcGowan>
152.38

>  <LabuteASA>
88.02

>  <PEOE_VSA1>
4.9

>  <PEOE_VSA2>
4.99

>  <PEOE_VSA3>
0

>  <PEOE_VSA4>
0

>  <PEOE_VSA5>
0

>  <PEOE_VSA6>
42.09

>  <PEOE_VSA7>
5.56

>  <PEOE_VSA8>
18.84

>  <PEOE_VSA9>
6.04

>  <PEOE_VSA10>
0

>  <PEOE_VSA11>
5.17

>  <PEOE_VSA12>
0

>  <PEOE_VSA13>
0

>  <SMR_VSA1>
0

>  <SMR_VSA2>
0

>  <SMR_VSA3>
4.9

>  <SMR_VSA4>
4.99

>  <SMR_VSA5>
6.04

>  <SMR_VSA6>
18.84

>  <SMR_VSA7>
35.9

>  <SMR_VSA8>
0

>  <SMR_VSA9>
0

>  <SlogP_VSA1>
0

>  <SlogP_VSA2>
28.91

>  <SlogP_VSA3>
0

>  <SlogP_VSA4>
0

>  <SlogP_VSA5>
11.61

>  <SlogP_VSA6>
35.32

>  <SlogP_VSA7>
0

>  <SlogP_VSA8>
0

>  <SlogP_VSA9>
0

>  <SlogP_VSA10>
0

>  <SlogP_VSA11>
0

>  <EState_VSA1>
0

>  <EState_VSA2>
0

>  <EState_VSA3>
6.04

>  <EState_VSA4>
6.54

>  <EState_VSA5>
23.03

>  <EState_VSA6>
0

>  <EState_VSA7>
11.76

>  <EState_VSA8>
35.23

>  <EState_VSA9>
4.99

>  <EState_VSA10>
0

>  <VSA_EState1>
0

>  <VSA_EState2>
7.12

>  <VSA_EState3>
1.25

>  <VSA_EState4>
1.34

>  <VSA_EState5>
1.21

>  <VSA_EState6>
10.95

>  <VSA_EState7>
0

>  <VSA_EState8>
2.25

>  <VSA_EState9>
0

>  <apol>
31.47

>  <bpol>
17.35

>  <nRing>
3

>  <nHRing>
2

>  <naRing>
1

>  <naHRing>
0

>  <nARing 2>
2

>  <nAHRing 2>
2

>  <nFRing>
1

>  <nFHRing>
1

>  <nFaRing>
0

>  <nFaHRing>
0

>  <nFARing 2>
1

>  <nFAHRing 2>
1

>  <nRot>
1

>  <SLogP>
2.15

>  <SMR>
60.65

>  <TopoPSA(NO)>
15.6

>  <TopoPSA>
40.9

>  <JGI1>
0.13

>  <JGI2>
0.06

>  <JGI3>
0.04

>  <JGI4>
0.03

>  <JGI5>
0.02

>  <Diameter>
8

>  <Radius>
4

>  <TMWC10>
100.5

>  <TSRW10>
61.72

>  <MW>
204.07

>  <AMW>
7.85

>  <WPath>
298

>  <WPol>
17

>  <Zagreb1>
76

>  <Zagreb2>
90

>  <mZagreb2>
3.06

>  <yes>


>  <nAR-cont>
1

>  <nHA-cont>
0.887625254

>  <MWHBN>
0.210005985

>  <MWHBN-cont>
0.999316047

>  <TPSA-cont>
0.714492603

>  <pka_cont>
0.97

>  <yes.1>


>  <BBB_SCORE>
5.30058453

>  <MMFF94 Energy>
25.494

$$$$
Compound 1953
Actelion Java MolfileCreator 2.0

  0  0  0  0  0  0              0 V3000
M  V30 BEGIN CTAB
M  V30 COUNTS 37 39 0 0 0
M  V30 BEGIN ATOM
M  V30 1 N 3.5607 -1.5813 1.1858 0
M  V30 2 C 2.7487 -2.4575 0.3388 0
M  V30 3 C 2.7897 -0.4235 1.6428 0
M  V30 4 C 1.4927 -2.9467 1.0628 0
M  V30 5 C 1.5414 -0.8457 2.4186 0
M  V30 6 C 0.6372 -1.7873 1.6059 0
M  V30 7 C -0.1232 -1.0843 0.4603 0
M  V30 8 C -1.1279 -0.0342 0.949 0
M  V30 9 C -1.9466 0.5242 -0.1728 0
M  V30 10 C -1.5571 1.5548 -1.0887 0
M  V30 11 C -3.2272 0.1416 -0.5221 0
M  V30 12 C -2.6226 1.7604 -1.9655 0
M  V30 13 C -0.3919 2.3318 -1.2543 0
M  V30 14 N -3.6216 0.8901 -1.598 0
M  V30 15 C -2.5832 2.7044 -2.9989 0
M  V30 16 C -0.3349 3.2797 -2.2826 0
M  V30 17 C -1.4166 3.4615 -3.1407 0
M  V30 18 H 3.8743 -2.1103 2.0 0
M  V30 19 H 3.3557 -3.3221 0.0477 0
M  V30 20 H 2.4869 -1.9396 -0.5908 0
M  V30 21 H 2.5239 0.2112 0.7898 0
M  V30 22 H 3.4281 0.1857 2.2924 0
M  V30 23 H 1.7938 -3.5866 1.9031 0
M  V30 24 H 0.9004 -3.5783 0.3903 0
M  V30 25 H 0.9953 0.0412 2.7543 0
M  V30 26 H 1.8557 -1.3676 3.333 0
M  V30 27 H -0.113 -2.213 2.2853 0
M  V30 28 H -0.6657 -1.8459 -0.1163 0
M  V30 29 H 0.577 -0.6182 -0.2423 0
M  V30 30 H -1.7947 -0.4817 1.6967 0
M  V30 31 H -0.6088 0.7924 1.4464 0
M  V30 32 H -3.8894 -0.5997 -0.0953 0
M  V30 33 H 0.458 2.1971 -0.5923 0
M  V30 34 H -4.5165 0.8186 -2.0613 0
M  V30 35 H -3.4237 2.8479 -3.6696 0
M  V30 36 H 0.5637 3.8778 -2.4109 0
M  V30 37 H -1.3535 4.2028 -3.934 0
M  V30 END ATOM
M  V30 BEGIN BOND
M  V30 1 1 1 2
M  V30 2 1 1 3
M  V30 3 1 2 4
M  V30 4 1 3 5
M  V30 5 1 4 6
M  V30 6 1 6 7
M  V30 7 1 7 8
M  V30 8 1 8 9
M  V30 9 1 9 10
M  V30 10 2 9 11
M  V30 11 2 10 12
M  V30 12 1 10 13
M  V30 13 1 11 14
M  V30 14 1 12 15
M  V30 15 2 13 16
M  V30 16 2 15 17
M  V30 17 1 5 6
M  V30 18 1 12 14
M  V30 19 1 16 17
M  V30 20 1 1 18
M  V30 21 1 2 19
M  V30 22 1 2 20
M  V30 23 1 3 21
M  V30 24 1 3 22
M  V30 25 1 4 23
M  V30 26 1 4 24
M  V30 27 1 5 25
M  V30 28 1 5 26
M  V30 29 1 6 27
M  V30 30 1 7 28
M  V30 31 1 7 29
M  V30 32 1 8 30
M  V30 33 1 8 31
M  V30 34 1 11 32
M  V30 35 1 13 33
M  V30 36 1 14 34
M  V30 37 1 15 35
M  V30 38 1 16 36
M  V30 39 1 17 37
M  V30 END BOND
M  V30 END CTAB
M  END
>  <Column 1>
2380

>  <level_0>
2561

>  <index>
2561

>  <Unnamed: 0>
2561

>  <NO.>
2573

>  <Name>
indalpine

>  <IUPAC_name>
3-(2-piperidin-4-ylethyl)-1h-indole

>  <SMILES>
c1ccc2c(CCC3CCNCC3)c[nH]c2c1

>  <CID>
44668

>  <logBB>


>  <BBB+/BBB->
BBB+

>  <Inchi>
InChI=1S/C15H20N2/c1-2-4-15-14(3-1)13(11-17-15)6-5-12-7-9-16-10-8-12/h1-4-11-12-16-17H-5-10H2

>  <threshold>
-1

>  <reference>
R1|R13|R19|R6|R24|R27|R27|R27|R30|R30|

>  <group>
B

>  <Class>
1

>  <ABC>
13.35

>  <ABCGG>
10.9

>  <nAcid>
0

>  <nBase>
1

>  <nAromAtom>
9

>  <nAromBond>
10

>  <nAtom>
37

>  <nHeavyAtom>
17

>  <nSpiro>
0

>  <nBridgehead>
0

>  <nHetero>
2

>  <nN>
2

>  <nO>
0

>  <nF>
0

>  <BalabanJ>
1.45

>  <BertzCT>
480.38

>  <nBonds>
39

>  <nBondsO>
19

>  <nBondsS>
29

>  <nBondsD>
0

>  <nBondsT>
0

>  <nBondsA>
10

>  <nBondsM>
10

>  <nBondsKS>
35

>  <nBondsKD>
4

>  <RNCG>
0.33

>  <RPCG>
0.15

>  <FCSP3>
0.47

>  <SZ>
20.67

>  <Sm>
19.01

>  <Sv>
21.93

>  <Sse>
36.2

>  <Sp>
24.3

>  <Si>
41.73

>  <MZ>
0.56

>  <Mm>
0.51

>  <Mv>
0.59

>  <Mse>
0.98

>  <Mp>
0.66

>  <Mi>
1.13

>  <NsCH3>
0

>  <NdCH2>
0

>  <NssCH2>
6

>  <NtCH>
0

>  <NdsCH>
0

>  <NaaCH>
5

>  <NsssCH>
1

>  <NddC>
0

>  <NtsC>
0

>  <NdssC>
0

>  <NaasC>
1

>  <NaaaC>
2

>  <NssssC>
0

>  <NsNH3>
0

>  <NsNH2>
0

>  <NssNH2>
0

>  <NdNH>
0

>  <NssNH>
1

>  <NaaNH>
1

>  <NtN>
0

>  <NsssNH>
0

>  <NdsN>
0

>  <NaaN>
0

>  <NsssN>
0

>  <NddsN>
0

>  <NaasN>
0

>  <NssssN>
0

>  <NsOH>
0

>  <NdO>
0

>  <NssO>
0

>  <NaaO>
0

>  <NsF>
0

>  <NsSiH3>
0

>  <NssSiH2>
0

>  <NsssSiH>
0

>  <NssssSi>
0

>  <NsPH2>
0

>  <NssPH>
0

>  <NsssP>
0

>  <NdsssP>
0

>  <NsssssP>
0

>  <NsSH>
0

>  <NdS>
0

>  <NssS>
0

>  <NaaS>
0

>  <NdssS>
0

>  <NddssS>
0

>  <NsCl>
0

>  <NsBr>
0

>  <NsI>
0

>  <fragCpx>
89.02

>  <fMF>
0.46

>  <nHBAcc>
1

>  <nHBDon>
2

>  <Kier1>
12.06

>  <Kier2>
5.76

>  <Lipinski>
1

>  <GhoseFilter>
1

>  <FilterItLogS>
-4.55

>  <VMcGowan>
192.39

>  <LabuteASA>
102.42

>  <PEOE_VSA1>
10.3

>  <PEOE_VSA2>
0

>  <PEOE_VSA3>
0

>  <PEOE_VSA4>
0

>  <PEOE_VSA5>
0

>  <PEOE_VSA6>
18.2

>  <PEOE_VSA7>
56.32

>  <PEOE_VSA8>
17.1

>  <PEOE_VSA9>
0

>  <PEOE_VSA10>
0

>  <PEOE_VSA11>
0

>  <PEOE_VSA12>
0

>  <PEOE_VSA13>
0

>  <SMR_VSA1>
0

>  <SMR_VSA2>
0

>  <SMR_VSA3>
10.3

>  <SMR_VSA4>
5.92

>  <SMR_VSA5>
25.68

>  <SMR_VSA6>
13.09

>  <SMR_VSA7>
36.03

>  <SMR_VSA8>
0

>  <SMR_VSA9>
0

>  <SlogP_VSA1>
5.32

>  <SlogP_VSA2>
18.07

>  <SlogP_VSA3>
6.42

>  <SlogP_VSA4>
5.92

>  <SlogP_VSA5>
24.83

>  <SlogP_VSA6>
30.46

>  <SlogP_VSA7>
0

>  <SlogP_VSA8>
10.9

>  <SlogP_VSA9>
0

>  <SlogP_VSA10>
0

>  <SlogP_VSA11>
0

>  <EState_VSA1>
0

>  <EState_VSA2>
0

>  <EState_VSA3>
0

>  <EState_VSA4>
5.92

>  <EState_VSA5>
55.24

>  <EState_VSA6>
0

>  <EState_VSA7>
0

>  <EState_VSA8>
40.76

>  <EState_VSA9>
0

>  <EState_VSA10>
0

>  <VSA_EState1>
0

>  <VSA_EState2>
3.36

>  <VSA_EState3>
4.84

>  <VSA_EState4>
2.76

>  <VSA_EState5>
0.92

>  <VSA_EState6>
8.6

>  <VSA_EState7>
7.44

>  <VSA_EState8>
2.41

>  <VSA_EState9>
0

>  <apol>
40.59

>  <bpol>
21.2

>  <nRing>
3

>  <nHRing>
2

>  <naRing>
2

>  <naHRing>
1

>  <nARing 2>
1

>  <nAHRing 2>
1

>  <nFRing>
1

>  <nFHRing>
1

>  <nFaRing>
1

>  <nFaHRing>
1

>  <nFARing 2>
0

>  <nFAHRing 2>
0

>  <nRot>
3

>  <SLogP>
3.1

>  <SMR>
72.21

>  <TopoPSA(NO)>
27.82

>  <TopoPSA>
27.82

>  <JGI1>
0.11

>  <JGI2>
0.06

>  <JGI3>
0.03

>  <JGI4>
0.02

>  <JGI5>
0.02

>  <Diameter>
10

>  <Radius>
5

>  <TMWC10>
107

>  <TSRW10>
63.52

>  <MW>
228.16

>  <AMW>
6.17

>  <WPath>
557

>  <WPol>
22

>  <Zagreb1>
88

>  <Zagreb2>
102

>  <mZagreb2>
3.81

>  <yes>


>  <nAR-cont>
0.816016

>  <nHA-cont>
0.976740822

>  <MWHBN>
0.198610178

>  <MWHBN-cont>
0.999326269

>  <TPSA-cont>
0.805799125

>  <pka_cont>
0.97

>  <yes.1>


>  <BBB_SCORE>
5.388344475

>  <MMFF94 Energy>
19.763

$$$$
Compound 1954
Actelion Java MolfileCreator 2.0

  0  0  0  0  0  0              0 V3000
M  V30 BEGIN CTAB
M  V30 COUNTS 30 32 0 0 0
M  V30 BEGIN ATOM
M  V30 1 N 0.799 -0.0798 1.1187 0
M  V30 2 C 0.1426 0.6967 0.0294 0 CFG=2
M  V30 3 C 1.5569 0.8122 2.0075 0
M  V30 4 C -0.1912 -0.8699 1.8505 0
M  V30 5 C -0.7194 -0.1889 -0.8738 0
M  V30 6 C 1.2322 1.5179 -0.7375 0
M  V30 7 C 2.6108 1.6257 1.2266 0
M  V30 8 C -0.7468 -1.9659 0.9375 0
M  V30 9 C -1.1749 -1.4426 -0.4118 0
M  V30 10 C -1.1608 0.2527 -2.1335 0
M  V30 11 N 2.0291 2.418 0.1304 0
M  V30 12 C -1.9927 -2.2429 -1.2248 0
M  V30 13 C -1.984 -0.5462 -2.9313 0
M  V30 14 C -2.3947 -1.7954 -2.4801 0
M  V30 15 H -0.5525 1.4187 0.4855 0
M  V30 16 H 0.8818 1.4986 2.5356 0
M  V30 17 H 2.0805 0.2191 2.7669 0
M  V30 18 H 0.267 -1.3547 2.7213 0
M  V30 19 H -1.0035 -0.2332 2.226 0
M  V30 20 H 0.7684 2.1565 -1.4959 0
M  V30 21 H 1.9091 0.8405 -1.2746 0
M  V30 22 H 3.3767 0.9535 0.8201 0
M  V30 23 H 3.1244 2.306 1.9152 0
M  V30 24 H 0.0207 -2.7338 0.7769 0
M  V30 25 H -1.5978 -2.4429 1.4384 0
M  V30 26 H -0.881 1.2297 -2.5175 0
M  V30 27 H 1.3918 3.1013 0.539 0
M  V30 28 H -2.3197 -3.2206 -0.8783 0
M  V30 29 H -2.3057 -0.1889 -3.9062 0
M  V30 30 H -3.0302 -2.4188 -3.1029 0
M  V30 END ATOM
M  V30 BEGIN BOND
M  V30 1 1 1 2
M  V30 2 1 1 3
M  V30 3 1 1 4
M  V30 4 1 2 5
M  V30 5 1 2 6
M  V30 6 1 3 7
M  V30 7 1 4 8
M  V30 8 2 5 9
M  V30 9 1 5 10
M  V30 10 1 6 11
M  V30 11 1 9 12
M  V30 12 2 10 13
M  V30 13 2 12 14
M  V30 14 1 7 11
M  V30 15 1 8 9
M  V30 16 1 13 14
M  V30 17 1 2 15
M  V30 18 1 3 16
M  V30 19 1 3 17
M  V30 20 1 4 18
M  V30 21 1 4 19
M  V30 22 1 6 20
M  V30 23 1 6 21
M  V30 24 1 7 22
M  V30 25 1 7 23
M  V30 26 1 8 24
M  V30 27 1 8 25
M  V30 28 1 10 26
M  V30 29 1 11 27
M  V30 30 1 12 28
M  V30 31 1 13 29
M  V30 32 1 14 30
M  V30 END BOND
M  V30 BEGIN COLLECTION
M  V30 MDLV30/STERAC1 ATOMS=(1 2)
M  V30 END COLLECTION
M  V30 END CTAB
M  END
>  <Column 1>
2381

>  <level_0>
2562

>  <index>
2562

>  <Unnamed: 0>
2562

>  <NO.>
2574

>  <Name>
5234-86-6

>  <IUPAC_name>
2-3-4-6-7-11b-hexahydro-1h-pyrazino[2-1-a]isoquinoline

>  <SMILES>
c1ccc2c(c1)CCN1CCNCC21

>  <CID>
179345

>  <logBB>


>  <BBB+/BBB->
BBB+

>  <Inchi>
InChI=1S/C12H16N2/c1-2-4-11-10(3-1)5-7-14-8-6-13-9-12(11)14/h1-4-12-13H-5-9H2

>  <threshold>
-1

>  <reference>
R1|R19|R6|R27|R27|R30|

>  <group>
B

>  <Class>
1

>  <ABC>
11.19

>  <ABCGG>
8.91

>  <nAcid>
0

>  <nBase>
2

>  <nAromAtom>
6

>  <nAromBond>
6

>  <nAtom>
30

>  <nHeavyAtom>
14

>  <nSpiro>
0

>  <nBridgehead>
0

>  <nHetero>
2

>  <nN>
2

>  <nO>
0

>  <nF>
0

>  <BalabanJ>
1.74

>  <BertzCT>
334.85

>  <nBonds>
32

>  <nBondsO>
16

>  <nBondsS>
26

>  <nBondsD>
0

>  <nBondsT>
0

>  <nBondsA>
6

>  <nBondsM>
6

>  <nBondsKS>
29

>  <nBondsKD>
3

>  <RNCG>
0.34

>  <RPCG>
0.13

>  <FCSP3>
0.5

>  <SZ>
17

>  <Sm>
15.68

>  <Sv>
17.85

>  <Sse>
29.43

>  <Sp>
19.71

>  <Si>
33.9

>  <MZ>
0.57

>  <Mm>
0.52

>  <Mv>
0.6

>  <Mse>
0.98

>  <Mp>
0.66

>  <Mi>
1.13

>  <NsCH3>
0

>  <NdCH2>
0

>  <NssCH2>
5

>  <NtCH>
0

>  <NdsCH>
0

>  <NaaCH>
4

>  <NsssCH>
1

>  <NddC>
0

>  <NtsC>
0

>  <NdssC>
0

>  <NaasC>
2

>  <NaaaC>
0

>  <NssssC>
0

>  <NsNH3>
0

>  <NsNH2>
0

>  <NssNH2>
0

>  <NdNH>
0

>  <NssNH>
1

>  <NaaNH>
0

>  <NtN>
0

>  <NsssNH>
0

>  <NdsN>
0

>  <NaaN>
0

>  <NsssN>
1

>  <NddsN>
0

>  <NaasN>
0

>  <NssssN>
0

>  <NsOH>
0

>  <NdO>
0

>  <NssO>
0

>  <NaaO>
0

>  <NsF>
0

>  <NsSiH3>
0

>  <NssSiH2>
0

>  <NsssSiH>
0

>  <NssssSi>
0

>  <NsPH2>
0

>  <NssPH>
0

>  <NsssP>
0

>  <NdsssP>
0

>  <NsssssP>
0

>  <NsSH>
0

>  <NdS>
0

>  <NssS>
0

>  <NaaS>
0

>  <NdssS>
0

>  <NddssS>
0

>  <NsCl>
0

>  <NsBr>
0

>  <NsI>
0

>  <fragCpx>
74.02

>  <fMF>
0.47

>  <nHBAcc>
2

>  <nHBDon>
1

>  <Kier1>
9.24

>  <Kier2>
3.87

>  <Lipinski>
1

>  <GhoseFilter>
1

>  <FilterItLogS>
-2.61

>  <VMcGowan>
154.42

>  <LabuteASA>
84.92

>  <PEOE_VSA1>
5.32

>  <PEOE_VSA2>
4.9

>  <PEOE_VSA3>
0

>  <PEOE_VSA4>
0

>  <PEOE_VSA5>
0

>  <PEOE_VSA6>
24.27

>  <PEOE_VSA7>
17.55

>  <PEOE_VSA8>
32.22

>  <PEOE_VSA9>
0

>  <PEOE_VSA10>
0

>  <PEOE_VSA11>
0

>  <PEOE_VSA12>
0

>  <PEOE_VSA13>
0

>  <SMR_VSA1>
0

>  <SMR_VSA2>
0

>  <SMR_VSA3>
10.22

>  <SMR_VSA4>
0

>  <SMR_VSA5>
12.46

>  <SMR_VSA6>
26.18

>  <SMR_VSA7>
35.39

>  <SMR_VSA8>
0

>  <SMR_VSA9>
0

>  <SlogP_VSA1>
5.32

>  <SlogP_VSA2>
31.08

>  <SlogP_VSA3>
6.42

>  <SlogP_VSA4>
0

>  <SlogP_VSA5>
17.17

>  <SlogP_VSA6>
24.27

>  <SlogP_VSA7>
0

>  <SlogP_VSA8>
0

>  <SlogP_VSA9>
0

>  <SlogP_VSA10>
0

>  <SlogP_VSA11>
0

>  <EState_VSA1>
0

>  <EState_VSA2>
0

>  <EState_VSA3>
6.04

>  <EState_VSA4>
13.09

>  <EState_VSA5>
19.51

>  <EState_VSA6>
11.13

>  <EState_VSA7>
0

>  <EState_VSA8>
34.48

>  <EState_VSA9>
0

>  <EState_VSA10>
0

>  <VSA_EState1>
0

>  <VSA_EState2>
2.61

>  <VSA_EState3>
3.48

>  <VSA_EState4>
3.1

>  <VSA_EState5>
0

>  <VSA_EState6>
9.52

>  <VSA_EState7>
1.23

>  <VSA_EState8>
4.72

>  <VSA_EState9>
0

>  <apol>
32.91

>  <bpol>
18.33

>  <nRing>
3

>  <nHRing>
2

>  <naRing>
1

>  <naHRing>
0

>  <nARing 2>
2

>  <nAHRing 2>
2

>  <nFRing>
1

>  <nFHRing>
1

>  <nFaRing>
0

>  <nFaHRing>
0

>  <nFARing 2>
1

>  <nFAHRing 2>
1

>  <nRot>
0

>  <SLogP>
1.19

>  <SMR>
57.33

>  <TopoPSA(NO)>
15.27

>  <TopoPSA>
15.27

>  <JGI1>
0.09

>  <JGI2>
0.07

>  <JGI3>
0.03

>  <JGI4>
0.04

>  <JGI5>
0.01

>  <Diameter>
7

>  <Radius>
4

>  <TMWC10>
100.8

>  <TSRW10>
46.33

>  <MW>
188.13

>  <AMW>
6.27

>  <WPath>
271

>  <WPol>
22

>  <Zagreb1>
76

>  <Zagreb2>
91

>  <mZagreb2>
3.08

>  <yes>


>  <nAR-cont>
1

>  <nHA-cont>
0.887625254

>  <MWHBN>
0.218721878

>  <MWHBN-cont>
0.995736228

>  <TPSA-cont>
0.893405918

>  <pka_cont>
0.97

>  <yes.1>


>  <BBB_SCORE>
5.653041433

>  <MMFF94 Energy>
116.03

$$$$
Compound 1955
Actelion Java MolfileCreator 2.0

  0  0  0  0  0  0              0 V3000
M  V30 BEGIN CTAB
M  V30 COUNTS 45 49 0 0 0
M  V30 BEGIN ATOM
M  V30 1 N 1.5339 0.5649 1.6955 0
M  V30 2 C 0.1683 0.7153 2.2407 0
M  V30 3 C 1.567 -0.6445 0.8668 0
M  V30 4 C 2.0156 1.7578 0.9882 0
M  V30 5 C -0.9271 0.6874 1.1646 0
M  V30 6 C 0.1783 1.9254 3.206 0
M  V30 7 C 0.6396 -0.6158 -0.3809 0
M  V30 8 C 2.0344 2.9756 1.9099 0
M  V30 9 C -0.7175 0.0552 -0.1028 0
M  V30 10 C -2.1868 1.2443 1.4565 0
M  V30 11 C 0.6659 3.2069 2.5371 0
M  V30 12 C 0.5584 -1.9756 -1.0929 0
M  V30 13 C -1.7352 0.1523 -1.0903 0
M  V30 14 C -3.2007 1.2696 0.5112 0
M  V30 15 C 0.1588 -2.0148 -2.4449 0
M  V30 16 C 0.8847 -3.1965 -0.4753 0
M  V30 17 C -2.9695 0.7451 -0.7497 0
M  V30 18 C -1.6641 -0.3339 -2.5285 0
M  V30 19 C 0.1306 -3.2309 -3.1484 0
M  V30 20 C -0.3246 -0.7592 -3.1194 0
M  V30 21 C 0.8499 -4.4032 -1.1809 0
M  V30 22 C 0.4817 -4.4198 -2.5192 0
M  V30 23 H -0.036 -0.1603 2.8745 0
M  V30 24 H 1.2997 -1.4711 1.5348 0
M  V30 25 H 2.5995 -0.8506 0.5544 0
M  V30 26 H 3.0381 1.5831 0.6327 0
M  V30 27 H 1.408 1.9962 0.1077 0
M  V30 28 H -0.797 2.0962 3.6703 0
M  V30 29 H 0.8563 1.6959 4.0408 0
M  V30 30 H 1.1611 0.0605 -1.0721 0
M  V30 31 H 2.3398 3.8644 1.3464 0
M  V30 32 H 2.7804 2.8273 2.701 0
M  V30 33 H -2.4052 1.669 2.4315 0
M  V30 34 H -0.0474 3.5277 1.7692 0
M  V30 35 H 0.7278 4.0138 3.2757 0
M  V30 36 H -4.1645 1.7088 0.7528 0
M  V30 37 H 1.1754 -3.2526 0.5687 0
M  V30 38 H -3.7702 0.7963 -1.4863 0
M  V30 39 H -2.0353 0.4818 -3.1646 0
M  V30 40 H -2.3792 -1.1624 -2.6303 0
M  V30 41 H -0.1837 -3.2584 -4.1891 0
M  V30 42 H 0.4231 0.0384 -3.0569 0
M  V30 43 H -0.4592 -0.9462 -4.1926 0
M  V30 44 H 1.1116 -5.3309 -0.6785 0
M  V30 45 H 0.453 -5.3574 -3.0669 0
M  V30 END ATOM
M  V30 BEGIN BOND
M  V30 1 1 1 2
M  V30 2 1 1 3
M  V30 3 1 1 4
M  V30 4 1 2 5
M  V30 5 1 2 6
M  V30 6 1 3 7
M  V30 7 1 4 8
M  V30 8 2 5 9
M  V30 9 1 5 10
M  V30 10 1 6 11
M  V30 11 1 7 12
M  V30 12 1 9 13
M  V30 13 2 10 14
M  V30 14 2 12 15
M  V30 15 1 12 16
M  V30 16 2 13 17
M  V30 17 1 13 18
M  V30 18 1 15 19
M  V30 19 1 15 20
M  V30 20 2 16 21
M  V30 21 2 19 22
M  V30 22 1 7 9
M  V30 23 1 8 11
M  V30 24 1 14 17
M  V30 25 1 18 20
M  V30 26 1 21 22
M  V30 27 1 2 23
M  V30 28 1 3 24
M  V30 29 1 3 25
M  V30 30 1 4 26
M  V30 31 1 4 27
M  V30 32 1 6 28
M  V30 33 1 6 29
M  V30 34 1 7 30
M  V30 35 1 8 31
M  V30 36 1 8 32
M  V30 37 1 10 33
M  V30 38 1 11 34
M  V30 39 1 11 35
M  V30 40 1 14 36
M  V30 41 1 16 37
M  V30 42 1 17 38
M  V30 43 1 18 39
M  V30 44 1 18 40
M  V30 45 1 19 41
M  V30 46 1 20 42
M  V30 47 1 20 43
M  V30 48 1 21 44
M  V30 49 1 22 45
M  V30 END BOND
M  V30 END CTAB
M  END
>  <Column 1>
2382

>  <level_0>
2563

>  <index>
2563

>  <Unnamed: 0>
2563

>  <NO.>
2575

>  <Name>
taclamine

>  <IUPAC_name>
3-azapentacyclo[11.8.1.03-8.09-22.016-21]docosa-9-11-13(22)-16-18-20-hexaene

>  <SMILES>
c1ccc2c(c1)CCc1cccc3c1C2CN1CCCCC31

>  <CID>
36667

>  <logBB>


>  <BBB+/BBB->
BBB+

>  <Inchi>
InChI=1S/C21H23N/c1-2-8-17-15(6-1)11-12-16-7-5-9-18-20-10-3-4-13-22(20)14-19(17)21(16)18/h1-2-5-9-19-20H-3-4-10-14H2

>  <threshold>
-1

>  <reference>
R1|R19|R6|R27|R27|R30|

>  <group>
B

>  <Class>
1

>  <ABC>
18.1

>  <ABCGG>
13.16

>  <nAcid>
0

>  <nBase>
1

>  <nAromAtom>
12

>  <nAromBond>
12

>  <nAtom>
45

>  <nHeavyAtom>
22

>  <nSpiro>
0

>  <nBridgehead>
0

>  <nHetero>
1

>  <nN>
1

>  <nO>
0

>  <nF>
0

>  <BalabanJ>
1.49

>  <BertzCT>
717.6

>  <nBonds>
49

>  <nBondsO>
26

>  <nBondsS>
37

>  <nBondsD>
0

>  <nBondsT>
0

>  <nBondsA>
12

>  <nBondsM>
12

>  <nBondsKS>
43

>  <nBondsKD>
6

>  <RNCG>
0.28

>  <RPCG>
0.06

>  <FCSP3>
0.43

>  <SZ>
26

>  <Sm>
24.1

>  <Sv>
27.99

>  <Sse>
43.87

>  <Sp>
30.84

>  <Si>
50.07

>  <MZ>
0.58

>  <Mm>
0.54

>  <Mv>
0.62

>  <Mse>
0.97

>  <Mp>
0.69

>  <Mi>
1.11

>  <NsCH3>
0

>  <NdCH2>
0

>  <NssCH2>
7

>  <NtCH>
0

>  <NdsCH>
0

>  <NaaCH>
7

>  <NsssCH>
2

>  <NddC>
0

>  <NtsC>
0

>  <NdssC>
0

>  <NaasC>
5

>  <NaaaC>
0

>  <NssssC>
0

>  <NsNH3>
0

>  <NsNH2>
0

>  <NssNH2>
0

>  <NdNH>
0

>  <NssNH>
0

>  <NaaNH>
0

>  <NtN>
0

>  <NsssNH>
0

>  <NdsN>
0

>  <NaaN>
0

>  <NsssN>
1

>  <NddsN>
0

>  <NaasN>
0

>  <NssssN>
0

>  <NsOH>
0

>  <NdO>
0

>  <NssO>
0

>  <NaaO>
0

>  <NsF>
0

>  <NsSiH3>
0

>  <NssSiH2>
0

>  <NsssSiH>
0

>  <NssssSi>
0

>  <NsPH2>
0

>  <NssPH>
0

>  <NsssP>
0

>  <NdsssP>
0

>  <NsssssP>
0

>  <NsSH>
0

>  <NdS>
0

>  <NssS>
0

>  <NaaS>
0

>  <NdssS>
0

>  <NddssS>
0

>  <NsCl>
0

>  <NsBr>
0

>  <NsI>
0

>  <fragCpx>
214.01

>  <fMF>
0.49

>  <nHBAcc>
1

>  <nHBDon>
0

>  <Kier1>
14.35

>  <Kier2>
5.82

>  <Lipinski>
1

>  <GhoseFilter>
1

>  <FilterItLogS>
-5.21

>  <VMcGowan>
236.63

>  <LabuteASA>
132.52

>  <PEOE_VSA1>
0

>  <PEOE_VSA2>
4.9

>  <PEOE_VSA3>
0

>  <PEOE_VSA4>
0

>  <PEOE_VSA5>
0

>  <PEOE_VSA6>
48.89

>  <PEOE_VSA7>
60.05

>  <PEOE_VSA8>
18.5

>  <PEOE_VSA9>
0

>  <PEOE_VSA10>
0

>  <PEOE_VSA11>
0

>  <PEOE_VSA12>
0

>  <PEOE_VSA13>
0

>  <SMR_VSA1>
0

>  <SMR_VSA2>
0

>  <SMR_VSA3>
4.9

>  <SMR_VSA4>
0

>  <SMR_VSA5>
44.06

>  <SMR_VSA6>
13.09

>  <SMR_VSA7>
70.28

>  <SMR_VSA8>
0

>  <SMR_VSA9>
0

>  <SlogP_VSA1>
0

>  <SlogP_VSA2>
17.99

>  <SlogP_VSA3>
12.84

>  <SlogP_VSA4>
0

>  <SlogP_VSA5>
59.04

>  <SlogP_VSA6>
42.46

>  <SlogP_VSA7>
0

>  <SlogP_VSA8>
0

>  <SlogP_VSA9>
0

>  <SlogP_VSA10>
0

>  <SlogP_VSA11>
0

>  <EState_VSA1>
0

>  <EState_VSA2>
0

>  <EState_VSA3>
11.96

>  <EState_VSA4>
0

>  <EState_VSA5>
45.19

>  <EState_VSA6>
27.82

>  <EState_VSA7>
0

>  <EState_VSA8>
47.36

>  <EState_VSA9>
0

>  <EState_VSA10>
0

>  <VSA_EState1>
0

>  <VSA_EState2>
2.77

>  <VSA_EState3>
0

>  <VSA_EState4>
8.12

>  <VSA_EState5>
0.6

>  <VSA_EState6>
16.97

>  <VSA_EState7>
6.54

>  <VSA_EState8>
2.51

>  <VSA_EState9>
0

>  <apol>
51.51

>  <bpol>
24.78

>  <nRing>
5

>  <nHRing>
2

>  <naRing>
2

>  <naHRing>
0

>  <nARing 2>
3

>  <nAHRing 2>
2

>  <nFRing>
1

>  <nFHRing>
1

>  <nFaRing>
0

>  <nFaHRing>
0

>  <nFARing 2>
1

>  <nFAHRing 2>
1

>  <nRot>
0

>  <SLogP>
4.46

>  <SMR>
90.3

>  <TopoPSA(NO)>
3.24

>  <TopoPSA>
3.24

>  <JGI1>
0.1

>  <JGI2>
0.06

>  <JGI3>
0.04

>  <JGI4>
0.04

>  <JGI5>
0.02

>  <Diameter>
9

>  <Radius>
5

>  <TMWC10>
124.96

>  <TSRW10>
65.21

>  <MW>
289.18

>  <AMW>
6.43

>  <WPath>
877

>  <WPol>
45

>  <Zagreb1>
128

>  <Zagreb2>
159

>  <mZagreb2>
4.69

>  <yes>


>  <nAR-cont>
0.691115

>  <nHA-cont>
0.983774276

>  <MWHBN>
0.058805219

>  <MWHBN-cont>
0.443635642

>  <TPSA-cont>
0.977382788

>  <pka_cont>
0.97

>  <yes.1>


>  <BBB_SCORE>
4.780108315

>  <MMFF94 Energy>
103.14

$$$$
Compound 1956
Actelion Java MolfileCreator 2.0

  0  0  0  0  0  0              0 V3000
M  V30 BEGIN CTAB
M  V30 COUNTS 47 51 0 0 0
M  V30 BEGIN ATOM
M  V30 1 N 0.5634 -0.0804 0.0 0
M  V30 2 C 0.6446 -0.4228 1.3663 0
M  V30 3 C 1.2743 -0.8326 -0.9729 0
M  V30 4 C 0.0758 1.2917 -0.3565 0 CFG=2
M  V30 5 C 0.0519 -1.6138 1.8177 0
M  V30 6 C 1.3452 0.3713 2.2866 0
M  V30 7 C 1.2016 -2.2439 -1.0467 0
M  V30 8 C 2.1398 -0.1778 -1.8785 0
M  V30 9 C -0.9823 1.8971 0.6225 0
M  V30 10 C -0.6017 1.3312 -1.7751 0
M  V30 11 C 0.1234 -1.969 3.1723 0
M  V30 12 C -0.6304 -2.5055 0.8158 0
M  V30 13 C 1.4169 0.0133 3.6343 0
M  V30 14 C 1.9566 -2.9266 -2.03 0
M  V30 15 C 0.3829 -3.1399 -0.1332 0
M  V30 16 C 2.8726 -0.8687 -2.8463 0
M  V30 17 C -1.1663 3.3791 0.2333 0
M  V30 18 C -2.348 1.2138 0.4304 0
M  V30 19 N -1.846 2.1481 -1.8226 0
M  V30 20 C 0.7995 -1.1528 4.0777 0
M  V30 21 C 2.776 -2.2473 -2.926 0
M  V30 22 C -1.57 3.4776 -1.2443 0
M  V30 23 C -2.8606 1.463 -0.9942 0
M  V30 24 H 0.9424 1.9678 -0.3567 0
M  V30 25 H 1.8515 1.2722 1.9518 0
M  V30 26 H 2.2851 0.8972 -1.8232 0
M  V30 27 H -0.6847 1.8495 1.6717 0
M  V30 28 H 0.1063 1.7506 -2.5008 0
M  V30 29 H -0.8406 0.3245 -2.1407 0
M  V30 30 H -0.3371 -2.8883 3.5253 0
M  V30 31 H -1.1747 -3.3021 1.3385 0
M  V30 32 H -1.3875 -1.9423 0.258 0
M  V30 33 H 1.9613 0.6414 4.3341 0
M  V30 34 H 1.906 -4.0126 -2.0923 0
M  V30 35 H 1.0906 -3.7393 0.4562 0
M  V30 36 H -0.1744 -3.8403 -0.7702 0
M  V30 37 H 3.5257 -0.3259 -3.5239 0
M  V30 38 H -1.9394 3.8358 0.8635 0
M  V30 39 H -0.2381 3.9363 0.4067 0
M  V30 40 H -3.0692 1.6151 1.153 0
M  V30 41 H -2.2737 0.1402 0.6223 0
M  V30 42 H 0.8572 -1.4348 5.1257 0
M  V30 43 H 3.3456 -2.7962 -3.6705 0
M  V30 44 H -2.4532 4.1201 -1.3477 0
M  V30 45 H -0.777 3.9726 -1.8189 0
M  V30 46 H -3.1427 0.511 -1.461 0
M  V30 47 H -3.7812 2.0599 -0.9663 0
M  V30 END ATOM
M  V30 BEGIN BOND
M  V30 1 1 1 2
M  V30 2 1 1 3
M  V30 3 1 1 4
M  V30 4 2 2 5
M  V30 5 1 2 6
M  V30 6 2 3 7
M  V30 7 1 3 8
M  V30 8 1 4 9
M  V30 9 1 4 10
M  V30 10 1 5 11
M  V30 11 1 5 12
M  V30 12 2 6 13
M  V30 13 1 7 14
M  V30 14 1 7 15
M  V30 15 2 8 16
M  V30 16 1 9 17
M  V30 17 1 9 18
M  V30 18 1 10 19
M  V30 19 2 11 20
M  V30 20 2 14 21
M  V30 21 1 17 22
M  V30 22 1 18 23
M  V30 23 1 12 15
M  V30 24 1 13 20
M  V30 25 1 16 21
M  V30 26 1 19 22
M  V30 27 1 19 23
M  V30 28 1 4 24
M  V30 29 1 6 25
M  V30 30 1 8 26
M  V30 31 1 9 27
M  V30 32 1 10 28
M  V30 33 1 10 29
M  V30 34 1 11 30
M  V30 35 1 12 31
M  V30 36 1 12 32
M  V30 37 1 13 33
M  V30 38 1 14 34
M  V30 39 1 15 35
M  V30 40 1 15 36
M  V30 41 1 16 37
M  V30 42 1 17 38
M  V30 43 1 17 39
M  V30 44 1 18 40
M  V30 45 1 18 41
M  V30 46 1 20 42
M  V30 47 1 21 43
M  V30 48 1 22 44
M  V30 49 1 22 45
M  V30 50 1 23 46
M  V30 51 1 23 47
M  V30 END BOND
M  V30 BEGIN COLLECTION
M  V30 MDLV30/STERAC1 ATOMS=(1 4)
M  V30 END COLLECTION
M  V30 END CTAB
M  END
>  <Column 1>
2383

>  <level_0>
2564

>  <index>
2564

>  <Unnamed: 0>
2564

>  <NO.>
2576

>  <Name>
quinupramine

>  <IUPAC_name>
11-(1-azabicyclo[2.2.2]octan-3-yl)-5-6-dihydrobenzo[b][1]benzazepine

>  <SMILES>
c1ccc2c(c1)CCc1ccccc1N2C1CN2CCC1CC2

>  <CID>
93154

>  <logBB>


>  <BBB+/BBB->
BBB+

>  <Inchi>
InChI=1S/C21H24N2/c1-3-7-19-16(5-1)9-10-17-6-2-4-8-20(17)23(19)21-15-22-13-11-18(21)12-14-22/h1-8-18-21H-9-15H2

>  <threshold>
-1

>  <reference>
R1|R13|R19|R6|R27|R27|R30|

>  <group>
B

>  <Class>
1

>  <ABC>
18.85

>  <ABCGG>
14.37

>  <nAcid>
0

>  <nBase>
1

>  <nAromAtom>
12

>  <nAromBond>
12

>  <nAtom>
47

>  <nHeavyAtom>
23

>  <nSpiro>
0

>  <nBridgehead>
2

>  <nHetero>
2

>  <nN>
2

>  <nO>
0

>  <nF>
0

>  <BalabanJ>
1.47

>  <BertzCT>
667.79

>  <nBonds>
51

>  <nBondsO>
27

>  <nBondsS>
39

>  <nBondsD>
0

>  <nBondsT>
0

>  <nBondsA>
12

>  <nBondsM>
12

>  <nBondsKS>
45

>  <nBondsKD>
6

>  <RNCG>
0.27

>  <RPCG>
0.05

>  <FCSP3>
0.43

>  <SZ>
27.33

>  <Sm>
25.35

>  <Sv>
29.02

>  <Sse>
45.98

>  <Sp>
31.9

>  <Si>
52.56

>  <MZ>
0.58

>  <Mm>
0.54

>  <Mv>
0.62

>  <Mse>
0.98

>  <Mp>
0.68

>  <Mi>
1.12

>  <NsCH3>
0

>  <NdCH2>
0

>  <NssCH2>
7

>  <NtCH>
0

>  <NdsCH>
0

>  <NaaCH>
8

>  <NsssCH>
2

>  <NddC>
0

>  <NtsC>
0

>  <NdssC>
0

>  <NaasC>
4

>  <NaaaC>
0

>  <NssssC>
0

>  <NsNH3>
0

>  <NsNH2>
0

>  <NssNH2>
0

>  <NdNH>
0

>  <NssNH>
0

>  <NaaNH>
0

>  <NtN>
0

>  <NsssNH>
0

>  <NdsN>
0

>  <NaaN>
0

>  <NsssN>
2

>  <NddsN>
0

>  <NaasN>
0

>  <NssssN>
0

>  <NsOH>
0

>  <NdO>
0

>  <NssO>
0

>  <NaaO>
0

>  <NsF>
0

>  <NsSiH3>
0

>  <NssSiH2>
0

>  <NsssSiH>
0

>  <NssssSi>
0

>  <NsPH2>
0

>  <NssPH>
0

>  <NsssP>
0

>  <NdsssP>
0

>  <NsssssP>
0

>  <NsSH>
0

>  <NdS>
0

>  <NssS>
0

>  <NaaS>
0

>  <NdssS>
0

>  <NddssS>
0

>  <NsCl>
0

>  <NsBr>
0

>  <NsI>
0

>  <fragCpx>
223.02

>  <fMF>
0.49

>  <nHBAcc>
2

>  <nHBDon>
0

>  <Kier1>
15.27

>  <Kier2>
6.38

>  <Lipinski>
1

>  <GhoseFilter>
1

>  <FilterItLogS>
-4.39

>  <VMcGowan>
246.61

>  <LabuteASA>
138.28

>  <PEOE_VSA1>
9.8

>  <PEOE_VSA2>
0

>  <PEOE_VSA3>
0

>  <PEOE_VSA4>
0

>  <PEOE_VSA5>
0

>  <PEOE_VSA6>
36.4

>  <PEOE_VSA7>
67.95

>  <PEOE_VSA8>
23.96

>  <PEOE_VSA9>
0

>  <PEOE_VSA10>
0

>  <PEOE_VSA11>
0

>  <PEOE_VSA12>
0

>  <PEOE_VSA13>
0

>  <SMR_VSA1>
0

>  <SMR_VSA2>
0

>  <SMR_VSA3>
4.9

>  <SMR_VSA4>
5.92

>  <SMR_VSA5>
31.73

>  <SMR_VSA6>
24.53

>  <SMR_VSA7>
59.66

>  <SMR_VSA8>
0

>  <SMR_VSA9>
0

>  <SlogP_VSA1>
4.9

>  <SlogP_VSA2>
30.58

>  <SlogP_VSA3>
12.84

>  <SlogP_VSA4>
5.92

>  <SlogP_VSA5>
23.97

>  <SlogP_VSA6>
48.53

>  <SlogP_VSA7>
0

>  <SlogP_VSA8>
0

>  <SlogP_VSA9>
0

>  <SlogP_VSA10>
11.37

>  <SlogP_VSA11>
0

>  <EState_VSA1>
0

>  <EState_VSA2>
0

>  <EState_VSA3>
6.04

>  <EState_VSA4>
18.76

>  <EState_VSA5>
54.98

>  <EState_VSA6>
0

>  <EState_VSA7>
0

>  <EState_VSA8>
58.33

>  <EState_VSA9>
0

>  <EState_VSA10>
0

>  <VSA_EState1>
0

>  <VSA_EState2>
5.37

>  <VSA_EState3>
0

>  <VSA_EState4>
5.94

>  <VSA_EState5>
0.85

>  <VSA_EState6>
18.79

>  <VSA_EState7>
5.05

>  <VSA_EState8>
3.84

>  <VSA_EState9>
0

>  <apol>
53.27

>  <bpol>
27.5

>  <nRing>
6

>  <nHRing>
4

>  <naRing>
2

>  <naHRing>
0

>  <nARing 2>
4

>  <nAHRing 2>
4

>  <nFRing>
2

>  <nFHRing>
2

>  <nFaRing>
0

>  <nFaHRing>
0

>  <nFARing 2>
2

>  <nFAHRing 2>
2

>  <nRot>
1

>  <SLogP>
4.02

>  <SMR>
95.38

>  <TopoPSA(NO)>
6.48

>  <TopoPSA>
6.48

>  <JGI1>
0.11

>  <JGI2>
0.06

>  <JGI3>
0.03

>  <JGI4>
0.03

>  <JGI5>
0.01

>  <Diameter>
8

>  <Radius>
4

>  <TMWC10>
126.81

>  <TSRW10>
66.3

>  <MW>
304.19

>  <AMW>
6.47

>  <WPath>
1006

>  <WPol>
43

>  <Zagreb1>
132

>  <Zagreb2>
162

>  <mZagreb2>
4.92

>  <yes>


>  <nAR-cont>
0.199399

>  <nHA-cont>
0.967789328

>  <MWHBN>
0.114672038

>  <MWHBN-cont>
0.80553347

>  <TPSA-cont>
0.954765576

>  <pka_cont>
0.97

>  <yes.1>


>  <BBB_SCORE>
4.770019686

>  <MMFF94 Energy>
108.58

$$$$
Compound 1957
Actelion Java MolfileCreator 2.0

  0  0  0  0  0  0              0 V3000
M  V30 BEGIN CTAB
M  V30 COUNTS 28 30 0 0 0
M  V30 BEGIN ATOM
M  V30 1 N 0.3174 0.1587 0.238 0
M  V30 2 C -0.7925 0.0587 1.0556 0
M  V30 3 C 0.5599 -1.0422 -0.3928 0
M  V30 4 C 1.1216 1.3527 0.0339 0
M  V30 5 C -1.2652 -1.2512 0.9374 0
M  V30 6 C -1.4292 0.9959 1.8879 0
M  V30 7 C -0.4109 -1.9281 0.0289 0
M  V30 8 C 1.6873 -1.2488 -1.3433 0
M  V30 9 C 1.121 1.8219 -1.4175 0
M  V30 10 C -2.4041 -1.6408 1.67 0
M  V30 11 C -2.558 0.5863 2.6054 0
M  V30 12 N 1.5414 -0.4103 -2.5269 0
M  V30 13 C 1.9931 0.963 -2.3355 0
M  V30 14 C -3.041 -0.7136 2.5 0
M  V30 15 H 0.7245 2.1505 0.6676 0
M  V30 16 H 2.1339 1.13 0.3903 0
M  V30 17 H -1.0687 2.0142 1.9841 0
M  V30 18 H -0.4996 -2.9597 -0.2859 0
M  V30 19 H 2.6534 -1.0914 -0.8491 0
M  V30 20 H 1.6854 -2.2944 -1.6736 0
M  V30 21 H 0.0958 1.8657 -1.8066 0
M  V30 22 H 1.5131 2.8461 -1.4474 0
M  V30 23 H -2.7858 -2.6542 1.5909 0
M  V30 24 H -3.0646 1.2962 3.2552 0
M  V30 25 H 0.5662 -0.4301 -2.825 0
M  V30 26 H 3.0337 0.9735 -1.9882 0
M  V30 27 H 2.0074 1.4391 -3.3233 0
M  V30 28 H -3.9195 -1.0131 3.0656 0
M  V30 END ATOM
M  V30 BEGIN BOND
M  V30 1 1 1 2
M  V30 2 1 1 3
M  V30 3 1 1 4
M  V30 4 2 2 5
M  V30 5 1 2 6
M  V30 6 2 3 7
M  V30 7 1 3 8
M  V30 8 1 4 9
M  V30 9 1 5 10
M  V30 10 2 6 11
M  V30 11 1 8 12
M  V30 12 1 9 13
M  V30 13 2 10 14
M  V30 14 1 5 7
M  V30 15 1 11 14
M  V30 16 1 12 13
M  V30 17 1 4 15
M  V30 18 1 4 16
M  V30 19 1 6 17
M  V30 20 1 7 18
M  V30 21 1 8 19
M  V30 22 1 8 20
M  V30 23 1 9 21
M  V30 24 1 9 22
M  V30 25 1 10 23
M  V30 26 1 11 24
M  V30 27 1 12 25
M  V30 28 1 13 26
M  V30 29 1 13 27
M  V30 30 1 14 28
M  V30 END BOND
M  V30 END CTAB
M  END
>  <Column 1>
2384

>  <level_0>
2565

>  <index>
2565

>  <Unnamed: 0>
2565

>  <NO.>
2577

>  <Name>
azepindole

>  <IUPAC_name>
2-3-4-5-tetrahydro-1h-[1-4]diazepino[1-2-a]indole

>  <SMILES>
c1ccc2c(c1)cc1n2CCCNC1

>  <CID>
33471

>  <logBB>


>  <BBB+/BBB->
BBB+

>  <Inchi>
InChI=1S/C12H14N2/c1-2-5-12-10(4-1)8-11-9-13-6-3-7-14(11)12/h1-2-4-5-8-13H-3-6-7-9H2

>  <threshold>
-1

>  <reference>
R1|R13|R19|R6|R24|R27|R27|R27|R30|R30|

>  <group>
B

>  <Class>
1

>  <ABC>
11.19

>  <ABCGG>
9.4

>  <nAcid>
0

>  <nBase>
1

>  <nAromAtom>
9

>  <nAromBond>
10

>  <nAtom>
28

>  <nHeavyAtom>
14

>  <nSpiro>
0

>  <nBridgehead>
0

>  <nHetero>
2

>  <nN>
2

>  <nO>
0

>  <nF>
0

>  <BalabanJ>
1.75

>  <BertzCT>
456.29

>  <nBonds>
30

>  <nBondsO>
16

>  <nBondsS>
20

>  <nBondsD>
0

>  <nBondsT>
0

>  <nBondsA>
10

>  <nBondsM>
10

>  <nBondsKS>
26

>  <nBondsKD>
4

>  <RNCG>
0.37

>  <RPCG>
0.13

>  <FCSP3>
0.33

>  <SZ>
16.67

>  <Sm>
15.51

>  <Sv>
17.31

>  <Sse>
27.54

>  <Sp>
18.91

>  <Si>
31.49

>  <MZ>
0.6

>  <Mm>
0.55

>  <Mv>
0.62

>  <Mse>
0.98

>  <Mp>
0.68

>  <Mi>
1.12

>  <NsCH3>
0

>  <NdCH2>
0

>  <NssCH2>
4

>  <NtCH>
0

>  <NdsCH>
0

>  <NaaCH>
5

>  <NsssCH>
0

>  <NddC>
0

>  <NtsC>
0

>  <NdssC>
0

>  <NaasC>
1

>  <NaaaC>
2

>  <NssssC>
0

>  <NsNH3>
0

>  <NsNH2>
0

>  <NssNH2>
0

>  <NdNH>
0

>  <NssNH>
1

>  <NaaNH>
0

>  <NtN>
0

>  <NsssNH>
0

>  <NdsN>
0

>  <NaaN>
0

>  <NsssN>
0

>  <NddsN>
0

>  <NaasN>
1

>  <NssssN>
0

>  <NsOH>
0

>  <NdO>
0

>  <NssO>
0

>  <NaaO>
0

>  <NsF>
0

>  <NsSiH3>
0

>  <NssSiH2>
0

>  <NsssSiH>
0

>  <NssssSi>
0

>  <NsPH2>
0

>  <NssPH>
0

>  <NsssP>
0

>  <NdsssP>
0

>  <NsssssP>
0

>  <NsSH>
0

>  <NdS>
0

>  <NssS>
0

>  <NaaS>
0

>  <NdssS>
0

>  <NddssS>
0

>  <NsCl>
0

>  <NsBr>
0

>  <NsI>
0

>  <fragCpx>
74.02

>  <fMF>
0.5

>  <nHBAcc>
2

>  <nHBDon>
1

>  <Kier1>
9.24

>  <Kier2>
3.87

>  <Lipinski>
1

>  <GhoseFilter>
1

>  <FilterItLogS>
-2.86

>  <VMcGowan>
150.12

>  <LabuteASA>
83.54

>  <PEOE_VSA1>
9.88

>  <PEOE_VSA2>
0

>  <PEOE_VSA3>
0

>  <PEOE_VSA4>
0

>  <PEOE_VSA5>
0

>  <PEOE_VSA6>
18.2

>  <PEOE_VSA7>
30.48

>  <PEOE_VSA8>
24.3

>  <PEOE_VSA9>
0

>  <PEOE_VSA10>
0

>  <PEOE_VSA11>
0

>  <PEOE_VSA12>
0

>  <PEOE_VSA13>
0

>  <SMR_VSA1>
0

>  <SMR_VSA2>
0

>  <SMR_VSA3>
9.88

>  <SMR_VSA4>
0

>  <SMR_VSA5>
19.51

>  <SMR_VSA6>
6.54

>  <SMR_VSA7>
36.03

>  <SMR_VSA8>
0

>  <SMR_VSA9>
0

>  <SlogP_VSA1>
5.32

>  <SlogP_VSA2>
11.11

>  <SlogP_VSA3>
13.09

>  <SlogP_VSA4>
0

>  <SlogP_VSA5>
12.11

>  <SlogP_VSA6>
30.33

>  <SlogP_VSA7>
0

>  <SlogP_VSA8>
10.9

>  <SlogP_VSA9>
0

>  <SlogP_VSA10>
0

>  <SlogP_VSA11>
0

>  <EState_VSA1>
0

>  <EState_VSA2>
0

>  <EState_VSA3>
0

>  <EState_VSA4>
19.63

>  <EState_VSA5>
23.02

>  <EState_VSA6>
0

>  <EState_VSA7>
0

>  <EState_VSA8>
40.22

>  <EState_VSA9>
0

>  <EState_VSA10>
0

>  <VSA_EState1>
2.44

>  <VSA_EState2>
0

>  <VSA_EState3>
4.81

>  <VSA_EState4>
2.8

>  <VSA_EState5>
0

>  <VSA_EState6>
10.93

>  <VSA_EState7>
1.23

>  <VSA_EState8>
3.29

>  <VSA_EState9>
0

>  <apol>
31.58

>  <bpol>
16.32

>  <nRing>
3

>  <nHRing>
2

>  <naRing>
2

>  <naHRing>
1

>  <nARing 2>
1

>  <nAHRing 2>
1

>  <nFRing>
1

>  <nFHRing>
1

>  <nFaRing>
0

>  <nFaHRing>
0

>  <nFARing 2>
1

>  <nFAHRing 2>
1

>  <nRot>
0

>  <SLogP>
2.13

>  <SMR>
58.26

>  <TopoPSA(NO)>
16.96

>  <TopoPSA>
16.96

>  <JGI1>
0.09

>  <JGI2>
0.06

>  <JGI3>
0.05

>  <JGI4>
0.02

>  <JGI5>
0.01

>  <Diameter>
7

>  <Radius>
4

>  <TMWC10>
100.99

>  <TSRW10>
60.55

>  <MW>
186.12

>  <AMW>
6.65

>  <WPath>
271

>  <WPol>
23

>  <Zagreb1>
76

>  <Zagreb2>
91

>  <mZagreb2>
3.08

>  <yes>


>  <nAR-cont>
0.816016

>  <nHA-cont>
0.887625254

>  <MWHBN>
0.219899749

>  <MWHBN-cont>
0.995024158

>  <TPSA-cont>
0.881608668

>  <pka_cont>
0.97

>  <yes.1>


>  <BBB_SCORE>
5.444394828

>  <MMFF94 Energy>
1.6899

$$$$
Compound 1958
Actelion Java MolfileCreator 2.0

  0  0  0  0  0  0              0 V3000
M  V30 BEGIN CTAB
M  V30 COUNTS 37 39 0 0 0
M  V30 BEGIN ATOM
M  V30 1 O -0.9525 -1.5085 -1.3496 0
M  V30 2 C -1.8624 -0.5895 -0.735 0
M  V30 3 C 0.0222 -2.0495 -0.4563 0
M  V30 4 C -2.4067 0.323 -1.8342 0
M  V30 5 C -3.017 -1.3401 -0.0684 0
M  V30 6 C 1.1554 -1.082 -0.2143 0
M  V30 7 C -3.4991 1.2374 -1.2936 0
M  V30 8 C -4.0938 -0.3705 0.4079 0
M  V30 9 C 1.6512 -0.8764 1.0817 0
M  V30 10 C 1.7513 -0.401 -1.2818 0
M  V30 11 N -4.589 0.4764 -0.6781 0
M  V30 12 C 2.716 0.0093 1.322 0
M  V30 13 C 2.8097 0.482 -1.0591 0
M  V30 14 C 3.3019 0.6985 0.2363 0
M  V30 15 C 3.2119 0.2246 2.6184 0
M  V30 16 C 4.3651 1.5838 0.4768 0
M  V30 17 C 4.2695 1.108 2.841 0
M  V30 18 C 4.8453 1.787 1.7714 0
M  V30 19 H -1.3401 0.0295 0.0056 0
M  V30 20 H 0.4365 -2.9474 -0.9283 0
M  V30 21 H -0.4489 -2.3666 0.4801 0
M  V30 22 H -1.5895 0.9201 -2.2568 0
M  V30 23 H -2.7943 -0.2812 -2.6652 0
M  V30 24 H -3.4437 -2.0665 -0.7726 0
M  V30 25 H -2.6517 -1.9281 0.7806 0
M  V30 26 H -3.9083 1.8406 -2.1114 0
M  V30 27 H -3.0813 1.9421 -0.5644 0
M  V30 28 H -4.9343 -0.9361 0.8248 0
M  V30 29 H -3.7075 0.2574 1.2199 0
M  V30 30 H 1.202 -1.4105 1.9168 0
M  V30 31 H 1.3854 -0.5534 -2.2956 0
M  V30 32 H -5.0216 -0.1143 -1.3898 0
M  V30 33 H 3.2481 1.0003 -1.9087 0
M  V30 34 H 2.7758 -0.296 3.4678 0
M  V30 35 H 4.8282 2.1227 -0.3465 0
M  V30 36 H 4.6427 1.2651 3.8495 0
M  V30 37 H 5.6689 2.475 1.943 0
M  V30 END ATOM
M  V30 BEGIN BOND
M  V30 1 1 1 2
M  V30 2 1 1 3
M  V30 3 1 2 4
M  V30 4 1 2 5
M  V30 5 1 3 6
M  V30 6 1 4 7
M  V30 7 1 5 8
M  V30 8 2 6 9
M  V30 9 1 6 10
M  V30 10 1 7 11
M  V30 11 1 9 12
M  V30 12 2 10 13
M  V30 13 1 12 14
M  V30 14 2 12 15
M  V30 15 2 14 16
M  V30 16 1 15 17
M  V30 17 1 16 18
M  V30 18 1 8 11
M  V30 19 1 13 14
M  V30 20 2 17 18
M  V30 21 1 2 19
M  V30 22 1 3 20
M  V30 23 1 3 21
M  V30 24 1 4 22
M  V30 25 1 4 23
M  V30 26 1 5 24
M  V30 27 1 5 25
M  V30 28 1 7 26
M  V30 29 1 7 27
M  V30 30 1 8 28
M  V30 31 1 8 29
M  V30 32 1 9 30
M  V30 33 1 10 31
M  V30 34 1 11 32
M  V30 35 1 13 33
M  V30 36 1 15 34
M  V30 37 1 16 35
M  V30 38 1 17 36
M  V30 39 1 18 37
M  V30 END BOND
M  V30 END CTAB
M  END
>  <Column 1>
2385

>  <level_0>
2566

>  <index>
2566

>  <Unnamed: 0>
2566

>  <NO.>
2578

>  <Name>
litoxetine

>  <IUPAC_name>
4-(naphthalen-2-ylmethoxy)piperidine

>  <SMILES>
c1ccc2cc(COC3CCNCC3)ccc2c1

>  <CID>
65650

>  <logBB>


>  <BBB+/BBB->
BBB+

>  <Inchi>
InChI=1S/C16H19NO/c1-2-4-15-11-13(5-6-14(15)3-1)12-18-16-7-9-17-10-8-16/h1-6-11-16-17H-7-10-12H2

>  <threshold>
-1

>  <reference>
R1|R13|R19|R6|R24|R27|R27|R27|R30|R30|

>  <group>
B

>  <Class>
1

>  <ABC>
14.1

>  <ABCGG>
10.65

>  <nAcid>
0

>  <nBase>
1

>  <nAromAtom>
10

>  <nAromBond>
11

>  <nAtom>
37

>  <nHeavyAtom>
18

>  <nSpiro>
0

>  <nBridgehead>
0

>  <nHetero>
2

>  <nN>
1

>  <nO>
1

>  <nF>
0

>  <BalabanJ>
1.4

>  <BertzCT>
517.24

>  <nBonds>
39

>  <nBondsO>
20

>  <nBondsS>
28

>  <nBondsD>
0

>  <nBondsT>
0

>  <nBondsA>
11

>  <nBondsM>
11

>  <nBondsKS>
34

>  <nBondsKD>
5

>  <RNCG>
0.32

>  <RPCG>
0.1

>  <FCSP3>
0.38

>  <SZ>
21.67

>  <Sm>
20.09

>  <Sv>
22.62

>  <Sse>
36.43

>  <Sp>
24.73

>  <Si>
41.45

>  <MZ>
0.59

>  <Mm>
0.54

>  <Mv>
0.61

>  <Mse>
0.98

>  <Mp>
0.67

>  <Mi>
1.12

>  <NsCH3>
0

>  <NdCH2>
0

>  <NssCH2>
5

>  <NtCH>
0

>  <NdsCH>
0

>  <NaaCH>
7

>  <NsssCH>
1

>  <NddC>
0

>  <NtsC>
0

>  <NdssC>
0

>  <NaasC>
1

>  <NaaaC>
2

>  <NssssC>
0

>  <NsNH3>
0

>  <NsNH2>
0

>  <NssNH2>
0

>  <NdNH>
0

>  <NssNH>
1

>  <NaaNH>
0

>  <NtN>
0

>  <NsssNH>
0

>  <NdsN>
0

>  <NaaN>
0

>  <NsssN>
0

>  <NddsN>
0

>  <NaasN>
0

>  <NssssN>
0

>  <NsOH>
0

>  <NdO>
0

>  <NssO>
1

>  <NaaO>
0

>  <NsF>
0

>  <NsSiH3>
0

>  <NssSiH2>
0

>  <NsssSiH>
0

>  <NssssSi>
0

>  <NsPH2>
0

>  <NssPH>
0

>  <NsssP>
0

>  <NdsssP>
0

>  <NsssssP>
0

>  <NsSH>
0

>  <NdS>
0

>  <NssS>
0

>  <NaaS>
0

>  <NdssS>
0

>  <NddssS>
0

>  <NsCl>
0

>  <NsBr>
0

>  <NsI>
0

>  <fragCpx>
94.02

>  <fMF>
0.49

>  <nHBAcc>
2

>  <nHBDon>
1

>  <Kier1>
13.01

>  <Kier2>
6.44

>  <Lipinski>
1

>  <GhoseFilter>
1

>  <FilterItLogS>
-4.37

>  <VMcGowan>
198.07

>  <LabuteASA>
107.96

>  <PEOE_VSA1>
10.05

>  <PEOE_VSA2>
0

>  <PEOE_VSA3>
0

>  <PEOE_VSA4>
0

>  <PEOE_VSA5>
0

>  <PEOE_VSA6>
36.4

>  <PEOE_VSA7>
48.33

>  <PEOE_VSA8>
0

>  <PEOE_VSA9>
12.71

>  <PEOE_VSA10>
0

>  <PEOE_VSA11>
0

>  <PEOE_VSA12>
0

>  <PEOE_VSA13>
0

>  <SMR_VSA1>
4.74

>  <SMR_VSA2>
0

>  <SMR_VSA3>
5.32

>  <SMR_VSA4>
0

>  <SMR_VSA5>
25.55

>  <SMR_VSA6>
13.09

>  <SMR_VSA7>
48.03

>  <SMR_VSA8>
0

>  <SMR_VSA9>
0

>  <SlogP_VSA1>
5.32

>  <SlogP_VSA2>
19.19

>  <SlogP_VSA3>
11.34

>  <SlogP_VSA4>
0

>  <SlogP_VSA5>
18.41

>  <SlogP_VSA6>
42.46

>  <SlogP_VSA7>
0

>  <SlogP_VSA8>
10.77

>  <SlogP_VSA9>
0

>  <SlogP_VSA10>
0

>  <SlogP_VSA11>
0

>  <EState_VSA1>
0

>  <EState_VSA2>
0

>  <EState_VSA3>
6.1

>  <EState_VSA4>
32.54

>  <EState_VSA5>
16.34

>  <EState_VSA6>
0

>  <EState_VSA7>
0

>  <EState_VSA8>
47.78

>  <EState_VSA9>
4.74

>  <EState_VSA10>
0

>  <VSA_EState1>
5.98

>  <VSA_EState2>
0

>  <VSA_EState3>
5.95

>  <VSA_EState4>
1.27

>  <VSA_EState5>
0

>  <VSA_EState6>
15.04

>  <VSA_EState7>
2.69

>  <VSA_EState8>
2.9

>  <VSA_EState9>
0

>  <apol>
41.29

>  <bpol>
21.37

>  <nRing>
3

>  <nHRing>
1

>  <naRing>
2

>  <naHRing>
0

>  <nARing 2>
1

>  <nAHRing 2>
1

>  <nFRing>
1

>  <nFHRing>
0

>  <nFaRing>
1

>  <nFaHRing>
0

>  <nFARing 2>
0

>  <nFAHRing 2>
0

>  <nRot>
3

>  <SLogP>
3.11

>  <SMR>
74.63

>  <TopoPSA(NO)>
21.26

>  <TopoPSA>
21.26

>  <JGI1>
0.13

>  <JGI2>
0.05

>  <JGI3>
0.02

>  <JGI4>
0.04

>  <JGI5>
0.01

>  <Diameter>
11

>  <Radius>
6

>  <TMWC10>
108.83

>  <TSRW10>
50.8

>  <MW>
241.15

>  <AMW>
6.52

>  <WPath>
673

>  <WPol>
24

>  <Zagreb1>
92

>  <Zagreb2>
105

>  <mZagreb2>
4.03

>  <yes>


>  <nAR-cont>
0.816016

>  <nHA-cont>
0.991161285

>  <MWHBN>
0.193186877

>  <MWHBN-cont>
0.997386227

>  <TPSA-cont>
0.851591998

>  <pka_cont>
0.97

>  <yes.1>


>  <BBB_SCORE>
5.491440622

>  <MMFF94 Energy>
36.343

$$$$
Compound 1959
Actelion Java MolfileCreator 2.0

  0  0  0  0  0  0              0 V3000
M  V30 BEGIN CTAB
M  V30 COUNTS 24 26 0 0 0
M  V30 BEGIN ATOM
M  V30 1 O -0.6426 -0.6426 0.4016 0
M  V30 2 C -1.0636 0.2798 1.3082 0
M  V30 3 C 0.2819 -0.0364 -0.4047 0
M  V30 4 C -0.4177 1.4906 1.0992 0
M  V30 5 C -2.0064 0.0587 2.3092 0
M  V30 6 C 0.8631 -0.8666 -1.4569 0
M  V30 7 C 0.4475 1.2777 -0.0065 0
M  V30 8 C -0.7249 2.5715 1.9443 0
M  V30 9 C -2.2993 1.1452 3.1402 0
M  V30 10 C 0.4863 -2.2032 -1.6188 0
M  V30 11 C 1.8168 -0.3437 -2.3348 0
M  V30 12 C -1.6707 2.3809 2.9625 0
M  V30 13 C 1.0685 -2.9462 -2.6328 0
M  V30 14 C 2.3427 -1.1664 -3.319 0
M  V30 15 N 1.9896 -2.4566 -3.4876 0
M  V30 16 H -2.4834 -0.9056 2.4319 0
M  V30 17 H 1.1107 2.003 -0.4543 0
M  V30 18 H -0.2428 3.5357 1.8156 0
M  V30 19 H -3.0294 1.0245 3.938 0
M  V30 20 H -0.2489 -2.6677 -0.9697 0
M  V30 21 H 2.1552 0.6837 -2.2672 0
M  V30 22 H -1.918 3.2089 3.6239 0
M  V30 23 H 0.7991 -3.9872 -2.787 0
M  V30 24 H 3.0857 -0.7954 -4.0193 0
M  V30 END ATOM
M  V30 BEGIN BOND
M  V30 1 1 1 2
M  V30 2 1 1 3
M  V30 3 2 2 4
M  V30 4 1 2 5
M  V30 5 1 3 6
M  V30 6 2 3 7
M  V30 7 1 4 8
M  V30 8 2 5 9
M  V30 9 2 6 10
M  V30 10 1 6 11
M  V30 11 2 8 12
M  V30 12 1 10 13
M  V30 13 2 11 14
M  V30 14 2 13 15
M  V30 15 1 4 7
M  V30 16 1 9 12
M  V30 17 1 14 15
M  V30 18 1 5 16
M  V30 19 1 7 17
M  V30 20 1 8 18
M  V30 21 1 9 19
M  V30 22 1 10 20
M  V30 23 1 11 21
M  V30 24 1 12 22
M  V30 25 1 13 23
M  V30 26 1 14 24
M  V30 END BOND
M  V30 END CTAB
M  END
>  <Column 1>
2386

>  <level_0>
2567

>  <index>
2567

>  <Unnamed: 0>
2567

>  <NO.>
2579

>  <Name>
pyridarone

>  <IUPAC_name>
4-(1-benzofuran-2-yl)pyridine

>  <SMILES>
c1ccc2oc(-c3ccncc3)cc2c1

>  <CID>
65590

>  <logBB>


>  <BBB+/BBB->
BBB+

>  <Inchi>
InChI=1S/C13H9NO/c1-2-4-12-11(3-1)9-13(15-12)10-5-7-14-8-6-10/h1-9H

>  <threshold>
-1

>  <reference>
R1|R13|R19|R6|R24|R27|R27|R27|R30|R30|

>  <group>
B

>  <Class>
1

>  <ABC>
11.94

>  <ABCGG>
9.84

>  <nAcid>
0

>  <nBase>
0

>  <nAromAtom>
15

>  <nAromBond>
16

>  <nAtom>
24

>  <nHeavyAtom>
15

>  <nSpiro>
0

>  <nBridgehead>
0

>  <nHetero>
2

>  <nN>
1

>  <nO>
1

>  <nF>
0

>  <BalabanJ>
1.59

>  <BertzCT>
550.55

>  <nBonds>
26

>  <nBondsO>
17

>  <nBondsS>
10

>  <nBondsD>
0

>  <nBondsT>
0

>  <nBondsA>
16

>  <nBondsM>
16

>  <nBondsKS>
19

>  <nBondsKD>
7

>  <RNCG>
0.46

>  <RPCG>
0.14

>  <FCSP3>
0

>  <SZ>
17

>  <Sm>
16.25

>  <Sv>
16.91

>  <Sse>
23.99

>  <Sp>
17.73

>  <Si>
26.37

>  <MZ>
0.71

>  <Mm>
0.68

>  <Mv>
0.7

>  <Mse>
1

>  <Mp>
0.74

>  <Mi>
1.1

>  <NsCH3>
0

>  <NdCH2>
0

>  <NssCH2>
0

>  <NtCH>
0

>  <NdsCH>
0

>  <NaaCH>
9

>  <NsssCH>
0

>  <NddC>
0

>  <NtsC>
0

>  <NdssC>
0

>  <NaasC>
2

>  <NaaaC>
2

>  <NssssC>
0

>  <NsNH3>
0

>  <NsNH2>
0

>  <NssNH2>
0

>  <NdNH>
0

>  <NssNH>
0

>  <NaaNH>
0

>  <NtN>
0

>  <NsssNH>
0

>  <NdsN>
0

>  <NaaN>
1

>  <NsssN>
0

>  <NddsN>
0

>  <NaasN>
0

>  <NssssN>
0

>  <NsOH>
0

>  <NdO>
0

>  <NssO>
0

>  <NaaO>
1

>  <NsF>
0

>  <NsSiH3>
0

>  <NssSiH2>
0

>  <NsssSiH>
0

>  <NssssSi>
0

>  <NsPH2>
0

>  <NssPH>
0

>  <NsssP>
0

>  <NdsssP>
0

>  <NsssssP>
0

>  <NsSH>
0

>  <NdS>
0

>  <NssS>
0

>  <NaaS>
0

>  <NdssS>
0

>  <NddssS>
0

>  <NsCl>
0

>  <NsBr>
0

>  <NsI>
0

>  <fragCpx>
79.02

>  <fMF>
0.63

>  <nHBAcc>
2

>  <nHBDon>
0

>  <Kier1>
10.17

>  <Kier2>
4.47

>  <Lipinski>
1

>  <GhoseFilter>
1

>  <FilterItLogS>
-4.07

>  <VMcGowan>
147.2

>  <LabuteASA>
87.18

>  <PEOE_VSA1>
4.42

>  <PEOE_VSA2>
4.98

>  <PEOE_VSA3>
0

>  <PEOE_VSA4>
0

>  <PEOE_VSA5>
0

>  <PEOE_VSA6>
18.2

>  <PEOE_VSA7>
24.27

>  <PEOE_VSA8>
23.34

>  <PEOE_VSA9>
0

>  <PEOE_VSA10>
11.34

>  <PEOE_VSA11>
0

>  <PEOE_VSA12>
0

>  <PEOE_VSA13>
0

>  <SMR_VSA1>
4.42

>  <SMR_VSA2>
0

>  <SMR_VSA3>
4.98

>  <SMR_VSA4>
0

>  <SMR_VSA5>
0

>  <SMR_VSA6>
0

>  <SMR_VSA7>
54.86

>  <SMR_VSA8>
0

>  <SMR_VSA9>
11.32

>  <SlogP_VSA1>
0

>  <SlogP_VSA2>
4.98

>  <SlogP_VSA3>
0

>  <SlogP_VSA4>
0

>  <SlogP_VSA5>
0

>  <SlogP_VSA6>
59.28

>  <SlogP_VSA7>
0

>  <SlogP_VSA8>
22.29

>  <SlogP_VSA9>
0

>  <SlogP_VSA10>
0

>  <SlogP_VSA11>
0

>  <EState_VSA1>
0

>  <EState_VSA2>
0

>  <EState_VSA3>
0

>  <EState_VSA4>
22.29

>  <EState_VSA5>
0

>  <EState_VSA6>
12.39

>  <EState_VSA7>
42.46

>  <EState_VSA8>
4.98

>  <EState_VSA9>
4.42

>  <EState_VSA10>
0

>  <VSA_EState1>
5.73

>  <VSA_EState2>
3.98

>  <VSA_EState3>
1.13

>  <VSA_EState4>
1.98

>  <VSA_EState5>
0.89

>  <VSA_EState6>
13.93

>  <VSA_EState7>
3.53

>  <VSA_EState8>
0

>  <VSA_EState9>
0

>  <apol>
29.61

>  <bpol>
11.9

>  <nRing>
3

>  <nHRing>
2

>  <naRing>
3

>  <naHRing>
2

>  <nARing 2>
0

>  <nAHRing 2>
0

>  <nFRing>
1

>  <nFHRing>
1

>  <nFaRing>
1

>  <nFaHRing>
1

>  <nFARing 2>
0

>  <nFAHRing 2>
0

>  <nRot>
1

>  <SLogP>
3.49

>  <SMR>
59.45

>  <TopoPSA(NO)>
26.03

>  <TopoPSA>
26.03

>  <JGI1>
0.12

>  <JGI2>
0.06

>  <JGI3>
0.04

>  <JGI4>
0.04

>  <JGI5>
0.02

>  <Diameter>
8

>  <Radius>
4

>  <TMWC10>
102.73

>  <TSRW10>
61.2

>  <MW>
195.07

>  <AMW>
8.13

>  <WPath>
361

>  <WPol>
20

>  <Zagreb1>
80

>  <Zagreb2>
94

>  <mZagreb2>
3.31

>  <yes>


>  <nAR-cont>
0.336376

>  <nHA-cont>
0.92539861

>  <MWHBN>
0.143197275

>  <MWHBN-cont>
0.913593027

>  <TPSA-cont>
0.818294436

>  <pka_cont>
0.97

>  <yes.1>


>  <BBB_SCORE>
4.753753024

>  <MMFF94 Energy>
23.206

$$$$
Compound 1960
Actelion Java MolfileCreator 2.0

  0  0  0  0  0  0              0 V3000
M  V30 BEGIN CTAB
M  V30 COUNTS 40 43 0 0 0
M  V30 BEGIN ATOM
M  V30 1 O 2.886 0.2402 4.4118 0
M  V30 2 C 2.4153 1.079 3.4504 0
M  V30 3 C 2.762 1.0737 5.5821 0
M  V30 4 C 2.0428 2.3013 3.9572 0
M  V30 5 C 2.3043 0.7856 2.1083 0
M  V30 6 O 2.2317 2.3858 5.3013 0
M  V30 7 C 1.5391 3.2986 3.1514 0
M  V30 8 C 1.7913 1.7754 1.2513 0
M  V30 9 C 1.4144 3.0303 1.7843 0
M  V30 10 C 1.6596 1.5032 -0.2335 0
M  V30 11 N 0.8066 0.3433 -0.5358 0
M  V30 12 C -0.6162 0.6208 -0.2283 0
M  V30 13 C 0.9119 -0.0031 -1.9709 0
M  V30 14 C -1.5535 -0.5598 -0.5672 0
M  V30 15 C 0.0347 -1.2084 -2.3741 0
M  V30 16 N -1.3476 -1.0263 -1.9374 0
M  V30 17 C -2.3051 -1.8624 -2.479 0
M  V30 18 N -3.5096 -1.9434 -1.8857 0
M  V30 19 N -2.0074 -2.5583 -3.591 0
M  V30 20 C -4.4315 -2.755 -2.4369 0
M  V30 21 C -2.9591 -3.3578 -4.1085 0
M  V30 22 C -4.2084 -3.498 -3.5653 0
M  V30 23 H 3.7523 1.1868 6.0382 0
M  V30 24 H 2.1003 0.5747 6.2995 0
M  V30 25 H 2.5968 -0.1877 1.7283 0
M  V30 26 H 1.2497 4.2576 3.5654 0
M  V30 27 H 1.0177 3.804 1.1301 0
M  V30 28 H 2.6775 1.3223 -0.6044 0
M  V30 29 H 1.2984 2.3991 -0.756 0
M  V30 30 H -0.9536 1.5075 -0.7826 0
M  V30 31 H -0.7388 0.84 0.8385 0
M  V30 32 H 0.6293 0.861 -2.588 0
M  V30 33 H 1.9529 -0.2484 -2.2139 0
M  V30 34 H -2.5813 -0.2097 -0.4109 0
M  V30 35 H -1.3689 -1.3851 0.1323 0
M  V30 36 H 0.1039 -1.3064 -3.4644 0
M  V30 37 H 0.443 -2.1239 -1.927 0
M  V30 38 H -5.3863 -2.7857 -1.9212 0
M  V30 39 H -2.6705 -3.8976 -5.0049 0
M  V30 40 H -4.9599 -4.1437 -3.9942 0
M  V30 END ATOM
M  V30 BEGIN BOND
M  V30 1 1 1 2
M  V30 2 1 1 3
M  V30 3 2 2 4
M  V30 4 1 2 5
M  V30 5 1 3 6
M  V30 6 1 4 7
M  V30 7 2 5 8
M  V30 8 2 7 9
M  V30 9 1 8 10
M  V30 10 1 10 11
M  V30 11 1 11 12
M  V30 12 1 11 13
M  V30 13 1 12 14
M  V30 14 1 13 15
M  V30 15 1 14 16
M  V30 16 1 16 17
M  V30 17 2 17 18
M  V30 18 1 17 19
M  V30 19 1 18 20
M  V30 20 2 19 21
M  V30 21 2 20 22
M  V30 22 1 4 6
M  V30 23 1 8 9
M  V30 24 1 15 16
M  V30 25 1 21 22
M  V30 26 1 3 23
M  V30 27 1 3 24
M  V30 28 1 5 25
M  V30 29 1 7 26
M  V30 30 1 9 27
M  V30 31 1 10 28
M  V30 32 1 10 29
M  V30 33 1 12 30
M  V30 34 1 12 31
M  V30 35 1 13 32
M  V30 36 1 13 33
M  V30 37 1 14 34
M  V30 38 1 14 35
M  V30 39 1 15 36
M  V30 40 1 15 37
M  V30 41 1 20 38
M  V30 42 1 21 39
M  V30 43 1 22 40
M  V30 END BOND
M  V30 END CTAB
M  END
>  <Column 1>
2387

>  <level_0>
2568

>  <index>
2568

>  <Unnamed: 0>
2568

>  <NO.>
2580

>  <Name>
piribedil

>  <IUPAC_name>
2-[4-(1-3-benzodioxol-5-ylmethyl)piperazin-1-yl]pyrimidine

>  <SMILES>
c1cnc(N2CCN(Cc3ccc4c(c3)OCO4)CC2)nc1

>  <CID>
4850

>  <logBB>


>  <BBB+/BBB->
BBB+

>  <Inchi>
InChI=1S/C16H18N4O2/c1-4-17-16(18-5-1)20-8-6-19(7-9-20)11-13-2-3-14-15(10-13)22-12-21-14/h1-5-10H-6-9-11-12H2

>  <threshold>
-1

>  <reference>
R1|R13|R19|R6|R24|R27|R27|R27|R30|R30|

>  <group>
B

>  <Class>
1

>  <ABC>
17.6

>  <ABCGG>
13.02

>  <nAcid>
0

>  <nBase>
1

>  <nAromAtom>
12

>  <nAromBond>
12

>  <nAtom>
40

>  <nHeavyAtom>
22

>  <nSpiro>
0

>  <nBridgehead>
0

>  <nHetero>
6

>  <nN>
4

>  <nO>
2

>  <nF>
0

>  <BalabanJ>
1.2

>  <BertzCT>
641.85

>  <nBonds>
43

>  <nBondsO>
25

>  <nBondsS>
31

>  <nBondsD>
0

>  <nBondsT>
0

>  <nBondsA>
12

>  <nBondsM>
12

>  <nBondsKS>
37

>  <nBondsKD>
6

>  <RNCG>
0.21

>  <RPCG>
0.11

>  <FCSP3>
0.38

>  <SZ>
26.33

>  <Sm>
24.84

>  <Sv>
25.34

>  <Sse>
40.3

>  <Sp>
26.78

>  <Si>
45.32

>  <MZ>
0.66

>  <Mm>
0.62

>  <Mv>
0.63

>  <Mse>
1.01

>  <Mp>
0.67

>  <Mi>
1.13

>  <NsCH3>
0

>  <NdCH2>
0

>  <NssCH2>
6

>  <NtCH>
0

>  <NdsCH>
0

>  <NaaCH>
6

>  <NsssCH>
0

>  <NddC>
0

>  <NtsC>
0

>  <NdssC>
0

>  <NaasC>
4

>  <NaaaC>
0

>  <NssssC>
0

>  <NsNH3>
0

>  <NsNH2>
0

>  <NssNH2>
0

>  <NdNH>
0

>  <NssNH>
0

>  <NaaNH>
0

>  <NtN>
0

>  <NsssNH>
0

>  <NdsN>
0

>  <NaaN>
2

>  <NsssN>
2

>  <NddsN>
0

>  <NaasN>
0

>  <NssssN>
0

>  <NsOH>
0

>  <NdO>
0

>  <NssO>
2

>  <NaaO>
0

>  <NsF>
0

>  <NsSiH3>
0

>  <NssSiH2>
0

>  <NsssSiH>
0

>  <NssssSi>
0

>  <NsPH2>
0

>  <NssPH>
0

>  <NsssP>
0

>  <NdsssP>
0

>  <NsssssP>
0

>  <NsSH>
0

>  <NdS>
0

>  <NssS>
0

>  <NaaS>
0

>  <NdssS>
0

>  <NddssS>
0

>  <NsCl>
0

>  <NsBr>
0

>  <NsI>
0

>  <fragCpx>
163.06

>  <fMF>
0.55

>  <nHBAcc>
6

>  <nHBDon>
0

>  <Kier1>
15.52

>  <Kier2>
7.27

>  <Lipinski>
1

>  <GhoseFilter>
1

>  <FilterItLogS>
-3.19

>  <VMcGowan>
218.72

>  <LabuteASA>
128.85

>  <PEOE_VSA1>
14.37

>  <PEOE_VSA2>
4.9

>  <PEOE_VSA3>
9.97

>  <PEOE_VSA4>
0

>  <PEOE_VSA5>
0

>  <PEOE_VSA6>
6.07

>  <PEOE_VSA7>
23.76

>  <PEOE_VSA8>
45.12

>  <PEOE_VSA9>
0

>  <PEOE_VSA10>
0

>  <PEOE_VSA11>
11.5

>  <PEOE_VSA12>
12.74

>  <PEOE_VSA13>
0

>  <SMR_VSA1>
9.47

>  <SMR_VSA2>
0

>  <SMR_VSA3>
14.87

>  <SMR_VSA4>
0

>  <SMR_VSA5>
6.54

>  <SMR_VSA6>
37.87

>  <SMR_VSA7>
42.22

>  <SMR_VSA8>
0

>  <SMR_VSA9>
11.5

>  <SlogP_VSA1>
14.37

>  <SlogP_VSA2>
47.84

>  <SlogP_VSA3>
6.54

>  <SlogP_VSA4>
0

>  <SlogP_VSA5>
5.56

>  <SlogP_VSA6>
36.66

>  <SlogP_VSA7>
0

>  <SlogP_VSA8>
0

>  <SlogP_VSA9>
0

>  <SlogP_VSA10>
5.95

>  <SlogP_VSA11>
11.5

>  <EState_VSA1>
0

>  <EState_VSA2>
0

>  <EState_VSA3>
6.79

>  <EState_VSA4>
50.17

>  <EState_VSA5>
5.56

>  <EState_VSA6>
12.39

>  <EState_VSA7>
12.13

>  <EState_VSA8>
31.9

>  <EState_VSA9>
9.47

>  <EState_VSA10>
0

>  <VSA_EState1>
10.79

>  <VSA_EState2>
13.31

>  <VSA_EState3>
0

>  <VSA_EState4>
1.26

>  <VSA_EState5>
2.52

>  <VSA_EState6>
8.03

>  <VSA_EState7>
3.59

>  <VSA_EState8>
5.18

>  <VSA_EState9>
0

>  <apol>
44.73

>  <bpol>
27.23

>  <nRing>
4

>  <nHRing>
3

>  <naRing>
2

>  <naHRing>
1

>  <nARing 2>
2

>  <nAHRing 2>
2

>  <nFRing>
1

>  <nFHRing>
1

>  <nFaRing>
0

>  <nFaHRing>
0

>  <nFARing 2>
1

>  <nFAHRing 2>
1

>  <nRot>
3

>  <SLogP>
1.53

>  <SMR>
82.09

>  <TopoPSA(NO)>
50.72

>  <TopoPSA>
50.72

>  <JGI1>
0.14

>  <JGI2>
0.06

>  <JGI3>
0.03

>  <JGI4>
0.02

>  <JGI5>
0.02

>  <Diameter>
13

>  <Radius>
7

>  <TMWC10>
120.86

>  <TSRW10>
69.72

>  <MW>
298.14

>  <AMW>
7.45

>  <WPath>
1194

>  <WPol>
31

>  <Zagreb1>
118

>  <Zagreb2>
138

>  <mZagreb2>
4.81

>  <yes>


>  <nAR-cont>
1

>  <nHA-cont>
0.983774276

>  <MWHBN>
0.347489052

>  <MWHBN-cont>
0.679609512

>  <TPSA-cont>
0.645942905

>  <pka_cont>
0.97

>  <yes.1>


>  <BBB_SCORE>
4.780074353

>  <MMFF94 Energy>
16.02

$$$$
Compound 1961
Actelion Java MolfileCreator 2.0

  0  0  0  0  0  0              0 V3000
M  V30 BEGIN CTAB
M  V30 COUNTS 45 49 0 0 0
M  V30 BEGIN ATOM
M  V30 1 N 2.1831 -2.9925 -0.8889 0
M  V30 2 C 1.5698 -1.8613 -0.5019 0
M  V30 3 C 1.8244 -3.4495 -2.1097 0
M  V30 4 C 1.7735 -1.1614 0.7496 0
M  V30 5 C 0.6293 -1.1622 -1.2719 0
M  V30 6 C 0.9011 -2.8217 -2.9484 0
M  V30 7 N 2.5952 -1.5406 1.7437 0
M  V30 8 C 0.9616 -0.0175 0.7772 0
M  V30 9 C 0.2887 -1.6435 -2.5246 0
M  V30 10 C 0.1633 0.101 -0.5259 0
M  V30 11 C 2.5889 -0.7378 2.8309 0
M  V30 12 C 0.9666 0.78 1.9089 0
M  V30 13 C 0.6265 1.3224 -1.3852 0
M  V30 14 C -1.3751 0.1071 -0.2902 0
M  V30 15 C 1.805 0.4094 2.9591 0
M  V30 16 C 0.4079 2.7043 -0.8231 0
M  V30 17 C -1.9886 -1.1242 0.3456 0
M  V30 18 C -0.813 3.3601 -0.9475 0
M  V30 19 C 1.4382 3.3936 -0.176 0
M  V30 20 C -2.5539 -2.132 -0.4415 0
M  V30 21 C -2.0196 -1.2826 1.7338 0
M  V30 22 N -1.0671 4.5934 -0.458 0
M  V30 23 C 1.2082 4.6691 0.3307 0
M  V30 24 C -3.1071 -3.2401 0.1831 0
M  V30 25 C -2.5944 -2.4279 2.2651 0
M  V30 26 C -0.0501 5.221 0.1688 0
M  V30 27 N -3.144 -3.4089 1.5204 0
M  V30 28 H 2.3163 -4.3691 -2.4157 0
M  V30 29 H 0.671 -3.2511 -3.918 0
M  V30 30 H -0.4258 -1.1331 -3.1606 0
M  V30 31 H 3.2515 -1.0502 3.6339 0
M  V30 32 H 0.3398 1.6619 1.9922 0
M  V30 33 H 1.6975 1.2232 -1.6189 0
M  V30 34 H 0.1305 1.2875 -2.3663 0
M  V30 35 H -1.8848 0.2728 -1.2499 0
M  V30 36 H -1.6551 0.9649 0.3353 0
M  V30 37 H 1.8501 0.9997 3.8686 0
M  V30 38 H -1.6539 2.9039 -1.4629 0
M  V30 39 H 2.4215 2.9424 -0.0606 0
M  V30 40 H -2.5699 -2.0682 -1.5235 0
M  V30 41 H -1.6092 -0.5354 2.4033 0
M  V30 42 H 1.993 5.2197 0.8372 0
M  V30 43 H -3.55 -4.045 -0.3959 0
M  V30 44 H -2.6295 -2.5879 3.3389 0
M  V30 45 H -0.2798 6.2133 0.5464 0
M  V30 END ATOM
M  V30 BEGIN BOND
M  V30 1 2 1 2
M  V30 2 1 1 3
M  V30 3 1 2 4
M  V30 4 1 2 5
M  V30 5 2 3 6
M  V30 6 2 4 7
M  V30 7 1 4 8
M  V30 8 2 5 9
M  V30 9 1 5 10
M  V30 10 1 7 11
M  V30 11 2 8 12
M  V30 12 1 10 13
M  V30 13 1 10 14
M  V30 14 2 11 15
M  V30 15 1 13 16
M  V30 16 1 14 17
M  V30 17 2 16 18
M  V30 18 1 16 19
M  V30 19 2 17 20
M  V30 20 1 17 21
M  V30 21 1 18 22
M  V30 22 2 19 23
M  V30 23 1 20 24
M  V30 24 2 21 25
M  V30 25 2 22 26
M  V30 26 2 24 27
M  V30 27 1 6 9
M  V30 28 1 8 10
M  V30 29 1 12 15
M  V30 30 1 23 26
M  V30 31 1 25 27
M  V30 32 1 3 28
M  V30 33 1 6 29
M  V30 34 1 9 30
M  V30 35 1 11 31
M  V30 36 1 12 32
M  V30 37 1 13 33
M  V30 38 1 13 34
M  V30 39 1 14 35
M  V30 40 1 14 36
M  V30 41 1 15 37
M  V30 42 1 18 38
M  V30 43 1 19 39
M  V30 44 1 20 40
M  V30 45 1 21 41
M  V30 46 1 23 42
M  V30 47 1 24 43
M  V30 48 1 25 44
M  V30 49 1 26 45
M  V30 END BOND
M  V30 END CTAB
M  END
>  <Column 1>
2388

>  <level_0>
2569

>  <index>
2569

>  <Unnamed: 0>
2569

>  <NO.>
2581

>  <Name>
schembl120952

>  <IUPAC_name>
8-(pyridin-3-ylmethyl)-8-(pyridin-4-ylmethyl)-3-13-diazatricyclo[7.4.0.02-7]trideca-1(9)-2(7)-3-5-10-12-hexaene;hydrate

>  <SMILES>
c1cncc(CC2(Cc3ccncc3)c3cccnc3-c3ncccc32)c1

>  <CID>
183810

>  <logBB>


>  <BBB+/BBB->
BBB+

>  <Inchi>
InChI=1S/C23H18N4/c1-4-18(16-25-9-1)15-23(14-17-7-12-24-13-8-17)19-5-2-10-26-21(19)22-20(23)6-3-11-27-22/h1-13-16H-14-15H2

>  <threshold>
-1

>  <reference>
R1|R13|R27|R30|

>  <group>
B

>  <Class>
1

>  <ABC>
21.68

>  <ABCGG>
16.76

>  <nAcid>
0

>  <nBase>
0

>  <nAromAtom>
24

>  <nAromBond>
24

>  <nAtom>
45

>  <nHeavyAtom>
27

>  <nSpiro>
0

>  <nBridgehead>
0

>  <nHetero>
4

>  <nN>
4

>  <nO>
0

>  <nF>
0

>  <BalabanJ>
1.46

>  <BertzCT>
988.55

>  <nBonds>
49

>  <nBondsO>
31

>  <nBondsS>
25

>  <nBondsD>
0

>  <nBondsT>
0

>  <nBondsA>
24

>  <nBondsM>
24

>  <nBondsKS>
37

>  <nBondsKD>
12

>  <RNCG>
0.17

>  <RPCG>
0.06

>  <FCSP3>
0.13

>  <SZ>
30.67

>  <Sm>
29.18

>  <Sv>
30.91

>  <Sse>
44.64

>  <Sp>
32.82

>  <Si>
49.9

>  <MZ>
0.68

>  <Mm>
0.65

>  <Mv>
0.69

>  <Mse>
0.99

>  <Mp>
0.73

>  <Mi>
1.11

>  <NsCH3>
0

>  <NdCH2>
0

>  <NssCH2>
2

>  <NtCH>
0

>  <NdsCH>
0

>  <NaaCH>
14

>  <NsssCH>
0

>  <NddC>
0

>  <NtsC>
0

>  <NdssC>
0

>  <NaasC>
6

>  <NaaaC>
0

>  <NssssC>
1

>  <NsNH3>
0

>  <NsNH2>
0

>  <NssNH2>
0

>  <NdNH>
0

>  <NssNH>
0

>  <NaaNH>
0

>  <NtN>
0

>  <NsssNH>
0

>  <NdsN>
0

>  <NaaN>
4

>  <NsssN>
0

>  <NddsN>
0

>  <NaasN>
0

>  <NssssN>
0

>  <NsOH>
0

>  <NdO>
0

>  <NssO>
0

>  <NaaO>
0

>  <NsF>
0

>  <NsSiH3>
0

>  <NssSiH2>
0

>  <NsssSiH>
0

>  <NssssSi>
0

>  <NsPH2>
0

>  <NssPH>
0

>  <NsssP>
0

>  <NdsssP>
0

>  <NsssssP>
0

>  <NsSH>
0

>  <NdS>
0

>  <NssS>
0

>  <NaaS>
0

>  <NdssS>
0

>  <NddssS>
0

>  <NsCl>
0

>  <NsBr>
0

>  <NsI>
0

>  <fragCpx>
259.04

>  <fMF>
0.6

>  <nHBAcc>
4

>  <nHBDon>
0

>  <Kier1>
18.99

>  <Kier2>
8.39

>  <Lipinski>
1

>  <GhoseFilter>
1

>  <FilterItLogS>
-7.37

>  <VMcGowan>
268.95

>  <LabuteASA>
157.57

>  <PEOE_VSA1>
0

>  <PEOE_VSA2>
19.94

>  <PEOE_VSA3>
0

>  <PEOE_VSA4>
0

>  <PEOE_VSA5>
0

>  <PEOE_VSA6>
18.2

>  <PEOE_VSA7>
65.43

>  <PEOE_VSA8>
42.6

>  <PEOE_VSA9>
11.39

>  <PEOE_VSA10>
0

>  <PEOE_VSA11>
0

>  <PEOE_VSA12>
0

>  <PEOE_VSA13>
0

>  <SMR_VSA1>
0

>  <SMR_VSA2>
0

>  <SMR_VSA3>
19.94

>  <SMR_VSA4>
0

>  <SMR_VSA5>
18.26

>  <SMR_VSA6>
0

>  <SMR_VSA7>
107.97

>  <SMR_VSA8>
0

>  <SMR_VSA9>
11.39

>  <SlogP_VSA1>
0

>  <SlogP_VSA2>
19.94

>  <SlogP_VSA3>
18.26

>  <SlogP_VSA4>
0

>  <SlogP_VSA5>
22.25

>  <SlogP_VSA6>
85.71

>  <SlogP_VSA7>
0

>  <SlogP_VSA8>
11.39

>  <SlogP_VSA9>
0

>  <SlogP_VSA10>
0

>  <SlogP_VSA11>
0

>  <EState_VSA1>
0

>  <EState_VSA2>
5.41

>  <EState_VSA3>
0

>  <EState_VSA4>
24.23

>  <EState_VSA5>
22.25

>  <EState_VSA6>
0

>  <EState_VSA7>
55.38

>  <EState_VSA8>
50.27

>  <EState_VSA9>
0

>  <EState_VSA10>
0

>  <VSA_EState1>
0

>  <VSA_EState2>
17.89

>  <VSA_EState3>
0

>  <VSA_EState4>
6.69

>  <VSA_EState5>
0

>  <VSA_EState6>
16.77

>  <VSA_EState7>
12.9

>  <VSA_EState8>
0

>  <VSA_EState9>
0

>  <apol>
54.81

>  <bpol>
22.62

>  <nRing>
5

>  <nHRing>
4

>  <naRing>
4

>  <naHRing>
4

>  <nARing 2>
1

>  <nAHRing 2>
0

>  <nFRing>
1

>  <nFHRing>
1

>  <nFaRing>
0

>  <nFaHRing>
0

>  <nFARing 2>
1

>  <nFAHRing 2>
1

>  <nRot>
4

>  <SLogP>
4.02

>  <SMR>
104.13

>  <TopoPSA(NO)>
51.56

>  <TopoPSA>
51.56

>  <JGI1>
0.13

>  <JGI2>
0.07

>  <JGI3>
0.06

>  <JGI4>
0.03

>  <JGI5>
0.02

>  <Diameter>
10

>  <Radius>
5

>  <TMWC10>
136.42

>  <TSRW10>
77.68

>  <MW>
350.15

>  <AMW>
7.78

>  <WPath>
1603

>  <WPol>
47

>  <Zagreb1>
150

>  <Zagreb2>
183

>  <mZagreb2>
5.92

>  <yes>


>  <nAR-cont>
0.816016

>  <nHA-cont>
0.860070871

>  <MWHBN>
0.213763192

>  <MWHBN-cont>
0.99814208

>  <TPSA-cont>
0.640079183

>  <pka_cont>
0.97

>  <yes.1>


>  <BBB_SCORE>
4.938458358

>  <MMFF94 Energy>
136.82

$$$$
Compound 1962
Actelion Java MolfileCreator 2.0

  0  0  0  0  0  0              0 V3000
M  V30 BEGIN CTAB
M  V30 COUNTS 39 41 0 0 0
M  V30 BEGIN ATOM
M  V30 1 S 1.9385 1.3728 1.4536 0
M  V30 2 C 2.7356 0.8249 0.0374 0
M  V30 3 C 3.3879 2.0033 2.1041 0
M  V30 4 C 4.0832 1.1309 0.0681 0
M  V30 5 C 1.9652 0.1234 -1.0492 0
M  V30 6 C 4.46 1.8088 1.2633 0
M  V30 7 C 1.6727 -1.3306 -0.7317 0
M  V30 8 C 0.3802 -1.7687 -0.3865 0
M  V30 9 C 2.7274 -2.262 -0.7635 0
M  V30 10 O -0.6023 -0.8142 -0.3896 0
M  V30 11 C 0.1662 -3.12 -0.0914 0
M  V30 12 C 2.5038 -3.6038 -0.4622 0
M  V30 13 C -1.8521 -1.1477 0.219 0
M  V30 14 C 1.224 -4.0319 -0.1275 0
M  V30 15 C -2.7781 0.0794 0.2488 0 CFG=2
M  V30 16 O -3.2406 0.3526 -1.0908 0
M  V30 17 C -2.0833 1.3232 0.8448 0
M  V30 18 C -4.124 1.4809 -1.1091 0
M  V30 19 N -2.98 2.5001 0.8649 0
M  V30 20 C -3.4605 2.7298 -0.5102 0
M  V30 21 H 3.3824 2.4877 3.0708 0
M  V30 22 H 4.7693 0.8784 -0.7311 0
M  V30 23 H 1.0478 0.6812 -1.2728 0
M  V30 24 H 2.5434 0.1566 -1.983 0
M  V30 25 H 5.4655 2.1384 1.4938 0
M  V30 26 H 3.7339 -1.9384 -1.0198 0
M  V30 27 H -0.8174 -3.5007 0.1613 0
M  V30 28 H 3.3274 -4.3122 -0.4887 0
M  V30 29 H -1.6804 -1.4855 1.2485 0
M  V30 30 H -2.3393 -1.9387 -0.3632 0
M  V30 31 H 1.0452 -5.0789 0.1034 0
M  V30 32 H -3.6583 -0.1819 0.8516 0
M  V30 33 H -1.1943 1.5885 0.2609 0
M  V30 34 H -1.7532 1.1152 1.8684 0
M  V30 35 H -5.0417 1.224 -0.5664 0
M  V30 36 H -4.3975 1.6702 -2.152 0
M  V30 37 H -3.7808 2.2884 1.4595 0
M  V30 38 H -4.1721 3.5621 -0.5067 0
M  V30 39 H -2.6102 3.032 -1.1334 0
M  V30 END ATOM
M  V30 BEGIN BOND
M  V30 1 1 1 2
M  V30 2 1 1 3
M  V30 3 2 2 4
M  V30 4 1 2 5
M  V30 5 2 3 6
M  V30 6 1 5 7
M  V30 7 2 7 8
M  V30 8 1 7 9
M  V30 9 1 8 10
M  V30 10 1 8 11
M  V30 11 2 9 12
M  V30 12 1 10 13
M  V30 13 2 11 14
M  V30 14 1 13 15
M  V30 15 1 15 16
M  V30 16 1 15 17
M  V30 17 1 16 18
M  V30 18 1 17 19
M  V30 19 1 18 20
M  V30 20 1 4 6
M  V30 21 1 12 14
M  V30 22 1 19 20
M  V30 23 1 3 21
M  V30 24 1 4 22
M  V30 25 1 5 23
M  V30 26 1 5 24
M  V30 27 1 6 25
M  V30 28 1 9 26
M  V30 29 1 11 27
M  V30 30 1 12 28
M  V30 31 1 13 29
M  V30 32 1 13 30
M  V30 33 1 14 31
M  V30 34 1 15 32
M  V30 35 1 17 33
M  V30 36 1 17 34
M  V30 37 1 18 35
M  V30 38 1 18 36
M  V30 39 1 19 37
M  V30 40 1 20 38
M  V30 41 1 20 39
M  V30 END BOND
M  V30 BEGIN COLLECTION
M  V30 MDLV30/STERAC1 ATOMS=(1 15)
M  V30 END COLLECTION
M  V30 END CTAB
M  END
>  <Column 1>
2389

>  <level_0>
2570

>  <index>
2570

>  <Unnamed: 0>
2570

>  <NO.>
2582

>  <Name>
teniloxazine

>  <IUPAC_name>
(z)-but-2-enedioic acid;2-[[2-(thiophen-2-ylmethyl)phenoxy]methyl]morpholine

>  <SMILES>
c1csc(Cc2ccccc2OCC2CNCCO2)c1

>  <CID>
119114

>  <logBB>


>  <BBB+/BBB->
BBB+

>  <Inchi>
InChI=1S/C16H19NO2S/c1-2-6-16(19-12-14-11-17-7-8-18-14)13(4-1)10-15-5-3-9-20-15/h1-6-9-14-17H-7-8-10-12H2

>  <threshold>
-1

>  <reference>
R1|R19|R6|R27|R27|R30|

>  <group>
B

>  <Class>
-1

>  <ABC>
15.52

>  <ABCGG>
12.62

>  <nAcid>
0

>  <nBase>
1

>  <nAromAtom>
11

>  <nAromBond>
11

>  <nAtom>
39

>  <nHeavyAtom>
20

>  <nSpiro>
0

>  <nBridgehead>
0

>  <nHetero>
4

>  <nN>
1

>  <nO>
2

>  <nF>
0

>  <BalabanJ>
1.44

>  <BertzCT>
521.03

>  <nBonds>
41

>  <nBondsO>
22

>  <nBondsS>
30

>  <nBondsD>
0

>  <nBondsT>
0

>  <nBondsA>
11

>  <nBondsM>
11

>  <nBondsKS>
36

>  <nBondsKD>
5

>  <RNCG>
0.3

>  <RPCG>
0.08

>  <FCSP3>
0.38

>  <SZ>
25.67

>  <Sm>
24.09

>  <Sv>
24.52

>  <Sse>
38.84

>  <Sp>
26.94

>  <Si>
43.57

>  <MZ>
0.66

>  <Mm>
0.62

>  <Mv>
0.63

>  <Mse>
1

>  <Mp>
0.69

>  <Mi>
1.12

>  <NsCH3>
0

>  <NdCH2>
0

>  <NssCH2>
5

>  <NtCH>
0

>  <NdsCH>
0

>  <NaaCH>
7

>  <NsssCH>
1

>  <NddC>
0

>  <NtsC>
0

>  <NdssC>
0

>  <NaasC>
3

>  <NaaaC>
0

>  <NssssC>
0

>  <NsNH3>
0

>  <NsNH2>
0

>  <NssNH2>
0

>  <NdNH>
0

>  <NssNH>
1

>  <NaaNH>
0

>  <NtN>
0

>  <NsssNH>
0

>  <NdsN>
0

>  <NaaN>
0

>  <NsssN>
0

>  <NddsN>
0

>  <NaasN>
0

>  <NssssN>
0

>  <NsOH>
0

>  <NdO>
0

>  <NssO>
2

>  <NaaO>
0

>  <NsF>
0

>  <NsSiH3>
0

>  <NssSiH2>
0

>  <NsssSiH>
0

>  <NssssSi>
0

>  <NsPH2>
0

>  <NssPH>
0

>  <NsssP>
0

>  <NdsssP>
0

>  <NsssssP>
0

>  <NsSH>
0

>  <NdS>
0

>  <NssS>
0

>  <NaaS>
1

>  <NdssS>
0

>  <NddssS>
0

>  <NsCl>
0

>  <NsBr>
0

>  <NsI>
0

>  <fragCpx>
104.04

>  <fMF>
0.51

>  <nHBAcc>
4

>  <nHBDon>
1

>  <Kier1>
14.92

>  <Kier2>
7.85

>  <Lipinski>
1

>  <GhoseFilter>
1

>  <FilterItLogS>
-4.34

>  <VMcGowan>
220.29

>  <LabuteASA>
123.09

>  <PEOE_VSA1>
14.79

>  <PEOE_VSA2>
0

>  <PEOE_VSA3>
0

>  <PEOE_VSA4>
0

>  <PEOE_VSA5>
11.34

>  <PEOE_VSA6>
24.27

>  <PEOE_VSA7>
23.08

>  <PEOE_VSA8>
24.39

>  <PEOE_VSA9>
6.61

>  <PEOE_VSA10>
18.46

>  <PEOE_VSA11>
0

>  <PEOE_VSA12>
0

>  <PEOE_VSA13>
0

>  <SMR_VSA1>
9.47

>  <SMR_VSA2>
0

>  <SMR_VSA3>
5.32

>  <SMR_VSA4>
0

>  <SMR_VSA5>
12.52

>  <SMR_VSA6>
26.3

>  <SMR_VSA7>
52.22

>  <SMR_VSA8>
0

>  <SMR_VSA9>
5.75

>  <SlogP_VSA1>
10.05

>  <SlogP_VSA2>
32.41

>  <SlogP_VSA3>
11.16

>  <SlogP_VSA4>
0

>  <SlogP_VSA5>
10.44

>  <SlogP_VSA6>
41.78

>  <SlogP_VSA7>
0

>  <SlogP_VSA8>
0

>  <SlogP_VSA9>
0

>  <SlogP_VSA10>
0

>  <SlogP_VSA11>
5.75

>  <EState_VSA1>
0

>  <EState_VSA2>
6.1

>  <EState_VSA3>
6.61

>  <EState_VSA4>
31.87

>  <EState_VSA5>
10.44

>  <EState_VSA6>
11.34

>  <EState_VSA7>
12.13

>  <EState_VSA8>
34.96

>  <EState_VSA9>
9.47

>  <EState_VSA10>
0

>  <VSA_EState1>
11.63

>  <VSA_EState2>
1.36

>  <VSA_EState3>
5.43

>  <VSA_EState4>
1.23

>  <VSA_EState5>
0.97

>  <VSA_EState6>
12.51

>  <VSA_EState7>
1.08

>  <VSA_EState8>
3.18

>  <VSA_EState9>
0

>  <apol>
44.99

>  <bpol>
25.56

>  <nRing>
3

>  <nHRing>
2

>  <naRing>
2

>  <naHRing>
1

>  <nARing 2>
1

>  <nAHRing 2>
1

>  <nFRing>
0

>  <nFHRing>
0

>  <nFaRing>
0

>  <nFaHRing>
0

>  <nFARing 2>
0

>  <nFAHRing 2>
0

>  <nRot>
5

>  <SLogP>
2.71

>  <SMR>
81.67

>  <TopoPSA(NO)>
30.49

>  <TopoPSA>
58.73

>  <JGI1>
0.11

>  <JGI2>
0.05

>  <JGI3>
0.02

>  <JGI4>
0.03

>  <JGI5>
0.02

>  <Diameter>
11

>  <Radius>
6

>  <TMWC10>
113.24

>  <TSRW10>
66.07

>  <MW>
289.11

>  <AMW>
7.41

>  <WPath>
889

>  <WPol>
24

>  <Zagreb1>
100

>  <Zagreb2>
113

>  <mZagreb2>
4.53

>  <yes>


>  <nAR-cont>
0.816016

>  <nHA-cont>
0.999629945

>  <MWHBN>
0.294061689

>  <MWHBN-cont>
0.858110337

>  <TPSA-cont>
0.590028131

>  <pka_cont>
0.97

>  <yes.1>


>  <BBB_SCORE>
4.767867711

>  <MMFF94 Energy>
111.11

$$$$
Compound 1963
Actelion Java MolfileCreator 2.0

  0  0  0  0  0  0              0 V3000
M  V30 BEGIN CTAB
M  V30 COUNTS 26 26 0 0 0
M  V30 BEGIN ATOM
M  V30 1 Cl 1.8397 -1.2795 2.0798 0
M  V30 2 C 0.5588 -0.7884 1.024 0
M  V30 3 C 0.4447 0.5387 0.5816 0
M  V30 4 C -0.3637 -1.7611 0.6223 0
M  V30 5 O 1.3922 1.4212 1.0289 0
M  V30 6 C -0.6129 0.871 -0.2703 0
M  V30 7 C -1.426 -1.424 -0.2253 0
M  V30 8 C 1.3441 2.7592 0.5434 0
M  V30 9 C -1.5376 -0.1013 -0.6709 0
M  V30 10 C -2.417 -2.4728 -0.6718 0
M  V30 11 C 2.4793 3.572 1.1069 0
M  V30 12 C -2.1073 -3.0706 -2.0225 0
M  V30 13 C 3.431 3.1433 1.9482 0
M  V30 14 O -1.2476 -2.7344 -2.8185 0
M  V30 15 O -2.9432 -4.0884 -2.3227 0
M  V30 16 H -0.2477 -2.784 0.9738 0
M  V30 17 H -0.7505 1.8792 -0.6474 0
M  V30 18 H 0.4039 3.2345 0.8472 0
M  V30 19 H 1.4307 2.767 -0.5495 0
M  V30 20 H -2.3449 0.1848 -1.3433 0
M  V30 21 H -2.4446 -3.2832 0.0665 0
M  V30 22 H -3.4189 -2.029 -0.7112 0
M  V30 23 H 2.5098 4.6101 0.7833 0
M  V30 24 H 3.4559 2.1178 2.3068 0
M  V30 25 H 4.2107 3.8125 2.2974 0
M  V30 26 H -2.6436 -4.3836 -3.2089 0
M  V30 END ATOM
M  V30 BEGIN BOND
M  V30 1 1 1 2
M  V30 2 2 2 3
M  V30 3 1 2 4
M  V30 4 1 3 5
M  V30 5 1 3 6
M  V30 6 2 4 7
M  V30 7 1 5 8
M  V30 8 2 6 9
M  V30 9 1 7 10
M  V30 10 1 8 11
M  V30 11 1 10 12
M  V30 12 2 11 13
M  V30 13 2 12 14
M  V30 14 1 12 15
M  V30 15 1 7 9
M  V30 16 1 4 16
M  V30 17 1 6 17
M  V30 18 1 8 18
M  V30 19 1 8 19
M  V30 20 1 9 20
M  V30 21 1 10 21
M  V30 22 1 10 22
M  V30 23 1 11 23
M  V30 24 1 13 24
M  V30 25 1 13 25
M  V30 26 1 15 26
M  V30 END BOND
M  V30 END CTAB
M  END
>  <Column 1>
2390

>  <level_0>
2571

>  <index>
2571

>  <Unnamed: 0>
2571

>  <NO.>
2583

>  <Name>
alclofenac

>  <IUPAC_name>
2-(3-chloro-4-prop-2-enoxyphenyl)acetic acid

>  <SMILES>
C=CCOc1ccc(CC(=O)O)cc1Cl

>  <CID>
30951

>  <logBB>


>  <BBB+/BBB->
BBB-

>  <Inchi>
InChI=1S/C11H11ClO3/c1-2-5-15-10-4-3-8(6-9(10)12)7-11(13)14/h2-4-6H-1-5-7H2-(H-13-14)

>  <threshold>
-1

>  <reference>
R7|R14|R29|

>  <group>
B

>  <Class>
-1

>  <ABC>
10.89

>  <ABCGG>
9.74

>  <nAcid>
1

>  <nBase>
0

>  <nAromAtom>
6

>  <nAromBond>
6

>  <nAtom>
26

>  <nHeavyAtom>
15

>  <nSpiro>
0

>  <nBridgehead>
0

>  <nHetero>
4

>  <nN>
0

>  <nO>
3

>  <nF>
0

>  <BalabanJ>
2.27

>  <BertzCT>
374.1

>  <nBonds>
26

>  <nBondsO>
15

>  <nBondsS>
18

>  <nBondsD>
2

>  <nBondsT>
0

>  <nBondsA>
6

>  <nBondsM>
8

>  <nBondsKS>
21

>  <nBondsKD>
5

>  <RNCG>
0.31

>  <RPCG>
0.19

>  <FCSP3>
0.18

>  <SZ>
19.67

>  <Sm>
18.87

>  <Sv>
17.22

>  <Sse>
26.64

>  <Sp>
18.14

>  <Si>
29.06

>  <MZ>
0.76

>  <Mm>
0.73

>  <Mv>
0.66

>  <Mse>
1.02

>  <Mp>
0.7

>  <Mi>
1.12

>  <NsCH3>
0

>  <NdCH2>
1

>  <NssCH2>
2

>  <NtCH>
0

>  <NdsCH>
1

>  <NaaCH>
3

>  <NsssCH>
0

>  <NddC>
0

>  <NtsC>
0

>  <NdssC>
1

>  <NaasC>
3

>  <NaaaC>
0

>  <NssssC>
0

>  <NsNH3>
0

>  <NsNH2>
0

>  <NssNH2>
0

>  <NdNH>
0

>  <NssNH>
0

>  <NaaNH>
0

>  <NtN>
0

>  <NsssNH>
0

>  <NdsN>
0

>  <NaaN>
0

>  <NsssN>
0

>  <NddsN>
0

>  <NaasN>
0

>  <NssssN>
0

>  <NsOH>
1

>  <NdO>
1

>  <NssO>
1

>  <NaaO>
0

>  <NsF>
0

>  <NsSiH3>
0

>  <NssSiH2>
0

>  <NsssSiH>
0

>  <NssssSi>
0

>  <NsPH2>
0

>  <NssPH>
0

>  <NsssP>
0

>  <NdsssP>
0

>  <NsssssP>
0

>  <NsSH>
0

>  <NdS>
0

>  <NssS>
0

>  <NaaS>
0

>  <NdssS>
0

>  <NddssS>
0

>  <NsCl>
1

>  <NsBr>
0

>  <NsI>
0

>  <fragCpx>
15.04

>  <fMF>
0.23

>  <nHBAcc>
2

>  <nHBDon>
1

>  <Kier1>
13.07

>  <Kier2>
6.55

>  <Lipinski>
1

>  <GhoseFilter>
1

>  <FilterItLogS>
-2.94

>  <VMcGowan>
163.34

>  <LabuteASA>
92.94

>  <PEOE_VSA1>
9.84

>  <PEOE_VSA2>
4.79

>  <PEOE_VSA3>
0

>  <PEOE_VSA4>
0

>  <PEOE_VSA5>
0

>  <PEOE_VSA6>
30.32

>  <PEOE_VSA7>
17.7

>  <PEOE_VSA8>
0

>  <PEOE_VSA9>
11.44

>  <PEOE_VSA10>
12.36

>  <PEOE_VSA11>
0

>  <PEOE_VSA12>
0

>  <PEOE_VSA13>
0

>  <SMR_VSA1>
14.64

>  <SMR_VSA2>
0

>  <SMR_VSA3>
0

>  <SMR_VSA4>
0

>  <SMR_VSA5>
6.42

>  <SMR_VSA6>
6.61

>  <SMR_VSA7>
41.44

>  <SMR_VSA8>
0

>  <SMR_VSA9>
5.75

>  <SlogP_VSA1>
4.74

>  <SlogP_VSA2>
17.68

>  <SlogP_VSA3>
11.22

>  <SlogP_VSA4>
0

>  <SlogP_VSA5>
5.56

>  <SlogP_VSA6>
30.85

>  <SlogP_VSA7>
5.02

>  <SlogP_VSA8>
0

>  <SlogP_VSA9>
0

>  <SlogP_VSA10>
0

>  <SlogP_VSA11>
5.75

>  <EState_VSA1>
5.97

>  <EState_VSA2>
6.42

>  <EState_VSA3>
22.94

>  <EState_VSA4>
0

>  <EState_VSA5>
0

>  <EState_VSA6>
24.28

>  <EState_VSA7>
0

>  <EState_VSA8>
6.58

>  <EState_VSA9>
21.44

>  <EState_VSA10>
4.79

>  <VSA_EState1>
5.25

>  <VSA_EState2>
10.45

>  <VSA_EState3>
8.99

>  <VSA_EState4>
0.65

>  <VSA_EState5>
-0.35

>  <VSA_EState6>
4.93

>  <VSA_EState7>
1.57

>  <VSA_EState8>
3.89

>  <VSA_EState9>
0

>  <apol>
30.29

>  <bpol>
14.15

>  <nRing>
1

>  <nHRing>
0

>  <naRing>
1

>  <naHRing>
0

>  <nARing 2>
0

>  <nAHRing 2>
0

>  <nFRing>
0

>  <nFHRing>
0

>  <nFaRing>
0

>  <nFaHRing>
0

>  <nFARing 2>
0

>  <nFAHRing 2>
0

>  <nRot>
5

>  <SLogP>
2.53

>  <SMR>
58.48

>  <TopoPSA(NO)>
46.53

>  <TopoPSA>
46.53

>  <JGI1>
0.23

>  <JGI2>
0.07

>  <JGI3>
0.05

>  <JGI4>
0.05

>  <JGI5>
0.03

>  <Diameter>
10

>  <Radius>
5

>  <TMWC10>
97.3

>  <TSRW10>
46.03

>  <MW>
226.04

>  <AMW>
8.69

>  <WPath>
410

>  <WPol>
18

>  <Zagreb1>
68

>  <Zagreb2>
74

>  <mZagreb2>
3.53

>  <yes>


>  <nAR-cont>
0.336376

>  <nHA-cont>
0.92539861

>  <MWHBN>
0.199539374

>  <MWHBN-cont>
0.99953052

>  <TPSA-cont>
0.675191707

>  <pka_cont>
0.97

>  <yes.1>


>  <BBB_SCORE>
4.596453804

>  <MMFF94 Energy>
38.731

$$$$
Compound 1964
Actelion Java MolfileCreator 2.0

  0  0  0  0  0  0              0 V3000
M  V30 BEGIN CTAB
M  V30 COUNTS 39 41 0 0 0
M  V30 BEGIN ATOM
M  V30 1 O -0.9633 -1.6059 1.7666 0
M  V30 2 C -0.3076 -1.8021 0.7485 0
M  V30 3 O 0.2632 -3.0464 0.5285 0
M  V30 4 C -0.0948 -0.7373 -0.2721 0
M  V30 5 C 1.0619 -3.3043 -0.5928 0
M  V30 6 C 0.7007 -0.9953 -1.3312 0
M  V30 7 C -0.8188 0.6007 -0.0847 0 CFG=2
M  V30 8 C 1.3048 -2.3123 -1.532 0
M  V30 9 C 1.5959 -4.5873 -0.7116 0
M  V30 10 O 1.0204 -0.0701 -2.305 0
M  V30 11 C 0.0611 1.641 0.6093 0
M  V30 12 C -2.22 0.5459 0.5609 0
M  V30 13 C 2.1155 -2.6302 -2.6288 0
M  V30 14 C 2.4003 -4.8902 -1.8067 0
M  V30 15 C 0.2924 2.881 -0.0102 0
M  V30 16 C 0.6302 1.408 1.8708 0
M  V30 17 C -3.0546 1.7699 0.2246 0
M  V30 18 C 2.6604 -3.9116 -2.7656 0
M  V30 19 C 1.0888 3.8488 0.6038 0
M  V30 20 C 1.4279 2.3776 2.4822 0
M  V30 21 O -2.9681 2.3468 -0.8597 0
M  V30 22 C -4.0517 2.212 1.2631 0
M  V30 23 C 1.6599 3.5952 1.8477 0
M  V30 24 H -0.9942 0.9659 -1.1065 0
M  V30 25 H 1.3872 -5.3409 0.042 0
M  V30 26 H 0.8709 0.8295 -1.969 0
M  V30 27 H -2.1503 0.4884 1.6529 0
M  V30 28 H -2.7858 -0.3223 0.2035 0
M  V30 29 H 2.3292 -1.8827 -3.3899 0
M  V30 30 H 2.8242 -5.8852 -1.914 0
M  V30 31 H -0.1634 3.1146 -0.9717 0
M  V30 32 H 0.4568 0.4741 2.4009 0
M  V30 33 H 3.2875 -4.1431 -3.6231 0
M  V30 34 H 1.2564 4.8048 0.1138 0
M  V30 35 H 1.865 2.1821 3.4583 0
M  V30 36 H -4.5932 3.0914 0.9037 0
M  V30 37 H -4.7661 1.4068 1.4503 0
M  V30 38 H -3.5278 2.4755 2.1853 0
M  V30 39 H 2.2787 4.3494 2.3269 0
M  V30 END ATOM
M  V30 BEGIN BOND
M  V30 1 2 1 2
M  V30 2 1 2 3
M  V30 3 1 2 4
M  V30 4 1 3 5
M  V30 5 2 4 6
M  V30 6 1 4 7
M  V30 7 2 5 8
M  V30 8 1 5 9
M  V30 9 1 6 10
M  V30 10 1 7 11
M  V30 11 1 7 12
M  V30 12 1 8 13
M  V30 13 2 9 14
M  V30 14 2 11 15
M  V30 15 1 11 16
M  V30 16 1 12 17
M  V30 17 2 13 18
M  V30 18 1 15 19
M  V30 19 2 16 20
M  V30 20 2 17 21
M  V30 21 1 17 22
M  V30 22 2 19 23
M  V30 23 1 6 8
M  V30 24 1 14 18
M  V30 25 1 20 23
M  V30 26 1 7 24
M  V30 27 1 9 25
M  V30 28 1 10 26
M  V30 29 1 12 27
M  V30 30 1 12 28
M  V30 31 1 13 29
M  V30 32 1 14 30
M  V30 33 1 15 31
M  V30 34 1 16 32
M  V30 35 1 18 33
M  V30 36 1 19 34
M  V30 37 1 20 35
M  V30 38 1 22 36
M  V30 39 1 22 37
M  V30 40 1 22 38
M  V30 41 1 23 39
M  V30 END BOND
M  V30 BEGIN COLLECTION
M  V30 MDLV30/STEABS ATOMS=(1 7)
M  V30 END COLLECTION
M  V30 END CTAB
M  END
>  <Column 1>
2391

>  <level_0>
2572

>  <index>
2572

>  <Unnamed: 0>
2572

>  <NO.>
2584

>  <Name>
(s)-warfarin

>  <IUPAC_name>
4-hydroxy-3-[(1s)-3-oxo-1-phenylbutyl]chromen-2-one

>  <SMILES>
CC(=O)C[C@@H](c1ccccc1)c1c(O)c2ccccc2oc1=O

>  <CID>
54688261

>  <logBB>


>  <BBB+/BBB->
BBB-

>  <Inchi>
InChI=1S/C19H16O4/c1-12(20)11-15(13-7-3-2-4-8-13)17-18(21)14-9-5-6-10-16(14)23-19(17)22/h2-10-15-21H-11H2-1H3/t15-/m0/s1

>  <threshold>
-1

>  <reference>
R7|R13|

>  <group>
B

>  <Class>
-1

>  <ABC>
17.87

>  <ABCGG>
14.86

>  <nAcid>
0

>  <nBase>
0

>  <nAromAtom>
16

>  <nAromBond>
17

>  <nAtom>
39

>  <nHeavyAtom>
23

>  <nSpiro>
0

>  <nBridgehead>
0

>  <nHetero>
4

>  <nN>
0

>  <nO>
4

>  <nF>
0

>  <BalabanJ>
1.78

>  <BertzCT>
909.55

>  <nBonds>
41

>  <nBondsO>
25

>  <nBondsS>
22

>  <nBondsD>
2

>  <nBondsT>
0

>  <nBondsA>
17

>  <nBondsM>
19

>  <nBondsKS>
32

>  <nBondsKD>
9

>  <RNCG>
0.25

>  <RPCG>
0.17

>  <FCSP3>
0.16

>  <SZ>
27

>  <Sm>
25.67

>  <Sv>
26.19

>  <Sse>
39.43

>  <Sp>
27.31

>  <Si>
43.16

>  <MZ>
0.69

>  <Mm>
0.66

>  <Mv>
0.67

>  <Mse>
1.01

>  <Mp>
0.7

>  <Mi>
1.11

>  <NsCH3>
1

>  <NdCH2>
0

>  <NssCH2>
1

>  <NtCH>
0

>  <NdsCH>
0

>  <NaaCH>
9

>  <NsssCH>
1

>  <NddC>
0

>  <NtsC>
0

>  <NdssC>
1

>  <NaasC>
3

>  <NaaaC>
2

>  <NssssC>
0

>  <NsNH3>
0

>  <NsNH2>
0

>  <NssNH2>
0

>  <NdNH>
0

>  <NssNH>
0

>  <NaaNH>
0

>  <NtN>
0

>  <NsssNH>
0

>  <NdsN>
0

>  <NaaN>
0

>  <NsssN>
0

>  <NddsN>
0

>  <NaasN>
0

>  <NssssN>
0

>  <NsOH>
1

>  <NdO>
2

>  <NssO>
0

>  <NaaO>
1

>  <NsF>
0

>  <NsSiH3>
0

>  <NssSiH2>
0

>  <NsssSiH>
0

>  <NssssSi>
0

>  <NsPH2>
0

>  <NssPH>
0

>  <NsssP>
0

>  <NdsssP>
0

>  <NsssssP>
0

>  <NsSH>
0

>  <NdS>
0

>  <NssS>
0

>  <NaaS>
0

>  <NdssS>
0

>  <NddssS>
0

>  <NsCl>
0

>  <NsBr>
0

>  <NsI>
0

>  <fragCpx>
119.04

>  <fMF>
0.44

>  <nHBAcc>
4

>  <nHBDon>
1

>  <Kier1>
17.81

>  <Kier2>
7.92

>  <Lipinski>
1

>  <GhoseFilter>
1

>  <FilterItLogS>
-4.97

>  <VMcGowan>
230.77

>  <LabuteASA>
132.55

>  <PEOE_VSA1>
9.52

>  <PEOE_VSA2>
4.79

>  <PEOE_VSA3>
4.79

>  <PEOE_VSA4>
0

>  <PEOE_VSA5>
0

>  <PEOE_VSA6>
42.46

>  <PEOE_VSA7>
24.62

>  <PEOE_VSA8>
12.34

>  <PEOE_VSA9>
10.95

>  <PEOE_VSA10>
17.12

>  <PEOE_VSA11>
0

>  <PEOE_VSA12>
0

>  <PEOE_VSA13>
0

>  <SMR_VSA1>
14.32

>  <SMR_VSA2>
0

>  <SMR_VSA3>
0

>  <SMR_VSA4>
0

>  <SMR_VSA5>
19.26

>  <SMR_VSA6>
0

>  <SMR_VSA7>
76.14

>  <SMR_VSA8>
0

>  <SMR_VSA9>
5.75

>  <SlogP_VSA1>
5.63

>  <SlogP_VSA2>
10.89

>  <SlogP_VSA3>
4.79

>  <SlogP_VSA4>
0

>  <SlogP_VSA5>
30.39

>  <SlogP_VSA6>
63.81

>  <SlogP_VSA7>
0

>  <SlogP_VSA8>
10.97

>  <SlogP_VSA9>
0

>  <SlogP_VSA10>
0

>  <SlogP_VSA11>
5.75

>  <EState_VSA1>
11.54

>  <EState_VSA2>
23.52

>  <EState_VSA3>
10.97

>  <EState_VSA4>
5.56

>  <EState_VSA5>
6.92

>  <EState_VSA6>
24.27

>  <EState_VSA7>
30.33

>  <EState_VSA8>
0

>  <EState_VSA9>
4.42

>  <EState_VSA10>
14.7

>  <VSA_EState1>
5.33

>  <VSA_EState2>
24.09

>  <VSA_EState3>
11.07

>  <VSA_EState4>
0.63

>  <VSA_EState5>
-0.72

>  <VSA_EState6>
16

>  <VSA_EState7>
0.13

>  <VSA_EState8>
1.47

>  <VSA_EState9>
0

>  <apol>
45.61

>  <bpol>
19.52

>  <nRing>
3

>  <nHRing>
1

>  <naRing>
3

>  <naHRing>
1

>  <nARing 2>
0

>  <nAHRing 2>
0

>  <nFRing>
1

>  <nFHRing>
1

>  <nFaRing>
1

>  <nFaHRing>
1

>  <nFARing 2>
0

>  <nFAHRing 2>
0

>  <nRot>
4

>  <SLogP>
3.61

>  <SMR>
87.73

>  <TopoPSA(NO)>
67.51

>  <TopoPSA>
67.51

>  <JGI1>
0.16

>  <JGI2>
0.07

>  <JGI3>
0.05

>  <JGI4>
0.05

>  <JGI5>
0.03

>  <Diameter>
10

>  <Radius>
5

>  <TMWC10>
123.11

>  <TSRW10>
57.52

>  <MW>
308.1

>  <AMW>
7.9

>  <WPath>
1092

>  <WPol>
38

>  <Zagreb1>
120

>  <Zagreb2>
142

>  <mZagreb2>
5.08

>  <yes>


>  <nAR-cont>
0.336376

>  <nHA-cont>
0.967789328

>  <MWHBN>
0.284855202

>  <MWHBN-cont>
0.883498981

>  <TPSA-cont>
0.528738279

>  <pka_cont>
0.97

>  <yes.1>


>  <BBB_SCORE>
4.171890357

>  <MMFF94 Energy>
49.096

$$$$
Compound 1965
Actelion Java MolfileCreator 2.0

  0  0  0  0  0  0              0 V3000
M  V30 BEGIN CTAB
M  V30 COUNTS 51 53 0 0 0
M  V30 BEGIN ATOM
M  V30 1 O 2.3755 -5.629 -5.7085 0
M  V30 2 C 1.8601 -4.8895 -4.6854 0
M  V30 3 C 2.6583 -4.685 -3.5676 0
M  V30 4 C 0.5784 -4.3554 -4.7515 0
M  V30 5 C 2.1699 -3.9345 -2.4964 0
M  V30 6 C 0.0913 -3.6034 -3.6793 0
M  V30 7 C 0.8786 -3.3814 -2.5378 0
M  V30 8 C 0.3776 -2.5534 -1.3681 0
M  V30 9 O -1.051 -2.4691 -1.38 0
M  V30 10 C 1.0099 -1.1216 -1.2815 0
M  V30 11 N 0.5326 -0.4663 -0.0218 0
M  V30 12 C 0.7922 -0.3024 -2.5648 0
M  V30 13 C 1.6618 0.0803 0.7469 0
M  V30 14 C -0.5074 0.5588 -0.2002 0
M  V30 15 C 1.2114 0.5627 2.1271 0
M  V30 16 C -1.0441 1.0344 1.1522 0
M  V30 17 C 0.0818 1.5972 2.0318 0
M  V30 18 C -0.4108 1.9742 3.4415 0
M  V30 19 C -1.3758 3.1356 3.4545 0
M  V30 20 C -0.9202 4.4413 3.2259 0
M  V30 21 C -2.7411 2.9248 3.689 0
M  V30 22 C -1.8131 5.5139 3.2302 0
M  V30 23 C -3.6329 3.9987 3.6926 0
M  V30 24 C -3.169 5.2925 3.4631 0
M  V30 25 H 1.6996 -5.7038 -6.4018 0
M  V30 26 H 3.6565 -5.1109 -3.5284 0
M  V30 27 H -0.055 -4.5105 -5.6187 0
M  V30 28 H 2.8043 -3.7869 -1.6253 0
M  V30 29 H -0.9136 -3.1884 -3.7355 0
M  V30 30 H 0.6332 -3.1075 -0.4541 0
M  V30 31 H -1.2595 -1.9826 -0.5613 0
M  V30 32 H 2.0955 -1.2763 -1.2081 0
M  V30 33 H 1.2281 0.6978 -2.4693 0
M  V30 34 H -0.2675 -0.2011 -2.8192 0
M  V30 35 H 1.291 -0.7749 -3.4176 0
M  V30 36 H 2.4194 -0.6972 0.9042 0
M  V30 37 H 2.1431 0.9012 0.1998 0
M  V30 38 H -1.3539 0.1585 -0.7683 0
M  V30 39 H -0.1235 1.4266 -0.7508 0
M  V30 40 H 0.878 -0.2996 2.7197 0
M  V30 41 H 2.0696 0.996 2.6548 0
M  V30 42 H -1.8082 1.8001 0.9759 0
M  V30 43 H -1.5406 0.1991 1.6632 0
M  V30 44 H 0.4858 2.4928 1.5401 0
M  V30 45 H -0.8706 1.1019 3.9243 0
M  V30 46 H 0.4455 2.2434 4.0742 0
M  V30 47 H 0.1353 4.63 3.0446 0
M  V30 48 H -3.1202 1.9211 3.8675 0
M  V30 49 H -1.4504 6.5228 3.0525 0
M  V30 50 H -4.6902 3.8251 3.8747 0
M  V30 51 H -3.864 6.128 3.4666 0
M  V30 END ATOM
M  V30 BEGIN BOND
M  V30 1 1 1 2
M  V30 2 2 2 3
M  V30 3 1 2 4
M  V30 4 1 3 5
M  V30 5 2 4 6
M  V30 6 2 5 7
M  V30 7 1 7 8
M  V30 8 1 8 9
M  V30 9 1 8 10
M  V30 10 1 10 11
M  V30 11 1 10 12
M  V30 12 1 11 13
M  V30 13 1 11 14
M  V30 14 1 13 15
M  V30 15 1 14 16
M  V30 16 1 15 17
M  V30 17 1 17 18
M  V30 18 1 18 19
M  V30 19 2 19 20
M  V30 20 1 19 21
M  V30 21 1 20 22
M  V30 22 2 21 23
M  V30 23 2 22 24
M  V30 24 1 6 7
M  V30 25 1 16 17
M  V30 26 1 23 24
M  V30 27 1 1 25
M  V30 28 1 3 26
M  V30 29 1 4 27
M  V30 30 1 5 28
M  V30 31 1 6 29
M  V30 32 1 8 30
M  V30 33 1 9 31
M  V30 34 1 10 32
M  V30 35 1 12 33
M  V30 36 1 12 34
M  V30 37 1 12 35
M  V30 38 1 13 36
M  V30 39 1 13 37
M  V30 40 1 14 38
M  V30 41 1 14 39
M  V30 42 1 15 40
M  V30 43 1 15 41
M  V30 44 1 16 42
M  V30 45 1 16 43
M  V30 46 1 17 44
M  V30 47 1 18 45
M  V30 48 1 18 46
M  V30 49 1 20 47
M  V30 50 1 21 48
M  V30 51 1 22 49
M  V30 52 1 23 50
M  V30 53 1 24 51
M  V30 END BOND
M  V30 END CTAB
M  END
>  <Column 1>
2392

>  <level_0>
2574

>  <index>
2574

>  <Unnamed: 0>
2574

>  <NO.>
2586

>  <Name>
ifenprodil

>  <IUPAC_name>
4-[2-(4-benzylpiperidin-1-yl)-1-hydroxypropyl]phenol

>  <SMILES>
CC(C(O)c1ccc(O)cc1)N1CCC(Cc2ccccc2)CC1

>  <CID>
3689

>  <logBB>


>  <BBB+/BBB->
BBB+

>  <Inchi>
InChI=1S/C21H27NO2/c1-16(21(24)19-7-9-20(23)10-8-19)22-13-11-18(12-14-22)15-17-5-3-2-4-6-17/h2-10-16-18-21-23-24H-11-15H2-1H3

>  <threshold>
-1

>  <reference>
R7|R14|R23|R29|

>  <group>
B

>  <Class>
-1

>  <ABC>
18.59

>  <ABCGG>
14.11

>  <nAcid>
0

>  <nBase>
1

>  <nAromAtom>
12

>  <nAromBond>
12

>  <nAtom>
51

>  <nHeavyAtom>
24

>  <nSpiro>
0

>  <nBridgehead>
0

>  <nHetero>
3

>  <nN>
1

>  <nO>
2

>  <nF>
0

>  <BalabanJ>
1.4

>  <BertzCT>
618.05

>  <nBonds>
53

>  <nBondsO>
26

>  <nBondsS>
41

>  <nBondsD>
0

>  <nBondsT>
0

>  <nBondsA>
12

>  <nBondsM>
12

>  <nBondsKS>
47

>  <nBondsKD>
6

>  <RNCG>
0.27

>  <RPCG>
0.16

>  <FCSP3>
0.43

>  <SZ>
29.33

>  <Sm>
27.1

>  <Sv>
30.5

>  <Sse>
50.31

>  <Sp>
33.4

>  <Si>
57.32

>  <MZ>
0.58

>  <Mm>
0.53

>  <Mv>
0.6

>  <Mse>
0.99

>  <Mp>
0.65

>  <Mi>
1.12

>  <NsCH3>
1

>  <NdCH2>
0

>  <NssCH2>
5

>  <NtCH>
0

>  <NdsCH>
0

>  <NaaCH>
9

>  <NsssCH>
3

>  <NddC>
0

>  <NtsC>
0

>  <NdssC>
0

>  <NaasC>
3

>  <NaaaC>
0

>  <NssssC>
0

>  <NsNH3>
0

>  <NsNH2>
0

>  <NssNH2>
0

>  <NdNH>
0

>  <NssNH>
0

>  <NaaNH>
0

>  <NtN>
0

>  <NsssNH>
0

>  <NdsN>
0

>  <NaaN>
0

>  <NsssN>
1

>  <NddsN>
0

>  <NaasN>
0

>  <NssssN>
0

>  <NsOH>
2

>  <NdO>
0

>  <NssO>
0

>  <NaaO>
0

>  <NsF>
0

>  <NsSiH3>
0

>  <NssSiH2>
0

>  <NsssSiH>
0

>  <NssssSi>
0

>  <NsPH2>
0

>  <NssPH>
0

>  <NsssP>
0

>  <NdsssP>
0

>  <NsssssP>
0

>  <NsSH>
0

>  <NdS>
0

>  <NssS>
0

>  <NaaS>
0

>  <NdssS>
0

>  <NddssS>
0

>  <NsCl>
0

>  <NsBr>
0

>  <NsI>
0

>  <fragCpx>
124.03

>  <fMF>
0.41

>  <nHBAcc>
3

>  <nHBDon>
2

>  <Kier1>
18.78

>  <Kier2>
9.09

>  <Lipinski>
1

>  <GhoseFilter>
1

>  <FilterItLogS>
-3.76

>  <VMcGowan>
270.09

>  <LabuteASA>
144.12

>  <PEOE_VSA1>
10.21

>  <PEOE_VSA2>
4.9

>  <PEOE_VSA3>
0

>  <PEOE_VSA4>
0

>  <PEOE_VSA5>
0

>  <PEOE_VSA6>
42.46

>  <PEOE_VSA7>
68.45

>  <PEOE_VSA8>
6.04

>  <PEOE_VSA9>
6.1

>  <PEOE_VSA10>
5.75

>  <PEOE_VSA11>
0

>  <PEOE_VSA12>
0

>  <PEOE_VSA13>
0

>  <SMR_VSA1>
10.21

>  <SMR_VSA2>
0

>  <SMR_VSA3>
4.9

>  <SMR_VSA4>
5.92

>  <SMR_VSA5>
38.33

>  <SMR_VSA6>
13.09

>  <SMR_VSA7>
65.72

>  <SMR_VSA8>
0

>  <SMR_VSA9>
5.75

>  <SlogP_VSA1>
0

>  <SlogP_VSA2>
34.24

>  <SlogP_VSA3>
6.42

>  <SlogP_VSA4>
5.92

>  <SlogP_VSA5>
37

>  <SlogP_VSA6>
54.6

>  <SlogP_VSA7>
0

>  <SlogP_VSA8>
0

>  <SlogP_VSA9>
0

>  <SlogP_VSA10>
0

>  <SlogP_VSA11>
5.75

>  <EState_VSA1>
6.1

>  <EState_VSA2>
11.79

>  <EState_VSA3>
0

>  <EState_VSA4>
30.99

>  <EState_VSA5>
18.41

>  <EState_VSA6>
24.27

>  <EState_VSA7>
0

>  <EState_VSA8>
42.16

>  <EState_VSA9>
0

>  <EState_VSA10>
10.21

>  <VSA_EState1>
0

>  <VSA_EState2>
2.39

>  <VSA_EState3>
19.99

>  <VSA_EState4>
2.29

>  <VSA_EState5>
0.97

>  <VSA_EState6>
17.69

>  <VSA_EState7>
3

>  <VSA_EState8>
4.16

>  <VSA_EState9>
0

>  <apol>
55.78

>  <bpol>
28.8

>  <nRing>
3

>  <nHRing>
1

>  <naRing>
2

>  <naHRing>
0

>  <nARing 2>
1

>  <nAHRing 2>
1

>  <nFRing>
0

>  <nFHRing>
0

>  <nFaRing>
0

>  <nFaHRing>
0

>  <nFARing 2>
0

>  <nFAHRing 2>
0

>  <nRot>
5

>  <SLogP>
3.77

>  <SMR>
96.97

>  <TopoPSA(NO)>
43.7

>  <TopoPSA>
43.7

>  <JGI1>
0.17

>  <JGI2>
0.08

>  <JGI3>
0.04

>  <JGI4>
0.04

>  <JGI5>
0.02

>  <Diameter>
15

>  <Radius>
8

>  <TMWC10>
123.62

>  <TSRW10>
58.24

>  <MW>
325.2

>  <AMW>
6.38

>  <WPath>
1542

>  <WPol>
35

>  <Zagreb1>
122

>  <Zagreb2>
140

>  <mZagreb2>
5.33

>  <yes>


>  <nAR-cont>
0.816016

>  <nHA-cont>
0.94700071

>  <MWHBN>
0.277264799

>  <MWHBN-cont>
0.902912363

>  <TPSA-cont>
0.694946864

>  <pka_cont>
0.97

>  <yes.1>


>  <BBB_SCORE>
4.992278983

>  <MMFF94 Energy>
70.189

$$$$
Compound 1966
Actelion Java MolfileCreator 2.0

  0  0  0  0  0  0              0 V3000
M  V30 BEGIN CTAB
M  V30 COUNTS 35 35 0 0 0
M  V30 BEGIN ATOM
M  V30 1 O -0.8553 -2.8013 -3.3467 0
M  V30 2 C -1.2726 -2.548 -2.0729 0
M  V30 3 C -2.6135 -2.6367 -1.721 0
M  V30 4 C -0.3085 -2.1918 -1.1338 0
M  V30 5 C -2.9826 -2.3651 -0.4095 0
M  V30 6 C -0.6763 -1.9102 0.1918 0
M  V30 7 O -4.306 -2.4632 -0.0925 0
M  V30 8 C -2.034 -2.0017 0.5455 0
M  V30 9 C 0.3418 -1.4784 1.2293 0 CFG=1
M  V30 10 O 1.6408 -1.9878 0.9109 0
M  V30 11 C 0.4229 0.0643 1.3932 0
M  V30 12 N 1.1719 0.6678 0.2731 0
M  V30 13 C 1.3117 2.1366 0.3098 0
M  V30 14 C -0.0462 2.8415 0.1549 0
M  V30 15 C 2.1945 2.5083 -0.8968 0
M  V30 16 C 2.012 2.6207 1.5894 0
M  V30 17 H -1.6219 -3.0887 -3.8695 0
M  V30 18 H -3.3738 -2.9131 -2.443 0
M  V30 19 H 0.7335 -2.1412 -1.4409 0
M  V30 20 H -4.4123 -2.3063 0.86 0
M  V30 21 H -2.3386 -1.788 1.5661 0
M  V30 22 H 0.0658 -1.9255 2.1916 0
M  V30 23 H 2.1308 -1.2138 0.5644 0
M  V30 24 H -0.5828 0.4852 1.4881 0
M  V30 25 H 0.9707 0.2572 2.3218 0
M  V30 26 H 0.7055 0.4065 -0.6007 0
M  V30 27 H -0.6932 2.6812 1.0237 0
M  V30 28 H 0.0857 3.9245 0.0478 0
M  V30 29 H -0.5811 2.487 -0.7336 0
M  V30 30 H 1.7332 2.2009 -1.8429 0
M  V30 31 H 2.3578 3.5911 -0.9488 0
M  V30 32 H 3.1792 2.0298 -0.8342 0
M  V30 33 H 1.389 2.4751 2.4784 0
M  V30 34 H 2.9593 2.0928 1.7488 0
M  V30 35 H 2.2391 3.6916 1.5299 0
M  V30 END ATOM
M  V30 BEGIN BOND
M  V30 1 1 1 2
M  V30 2 2 2 3
M  V30 3 1 2 4
M  V30 4 1 3 5
M  V30 5 2 4 6
M  V30 6 1 5 7
M  V30 7 2 5 8
M  V30 8 1 6 9
M  V30 9 1 9 10
M  V30 10 1 9 11
M  V30 11 1 11 12
M  V30 12 1 12 13
M  V30 13 1 13 14
M  V30 14 1 13 15
M  V30 15 1 13 16
M  V30 16 1 6 8
M  V30 17 1 1 17
M  V30 18 1 3 18
M  V30 19 1 4 19
M  V30 20 1 7 20
M  V30 21 1 8 21
M  V30 22 1 9 22
M  V30 23 1 10 23
M  V30 24 1 11 24
M  V30 25 1 11 25
M  V30 26 1 12 26
M  V30 27 1 14 27
M  V30 28 1 14 28
M  V30 29 1 14 29
M  V30 30 1 15 30
M  V30 31 1 15 31
M  V30 32 1 15 32
M  V30 33 1 16 33
M  V30 34 1 16 34
M  V30 35 1 16 35
M  V30 END BOND
M  V30 BEGIN COLLECTION
M  V30 MDLV30/STERAC1 ATOMS=(1 9)
M  V30 END COLLECTION
M  V30 END CTAB
M  END
>  <Column 1>
2393

>  <level_0>
2575

>  <index>
2575

>  <Unnamed: 0>
2575

>  <NO.>
2587

>  <Name>
terbutaline sulfate

>  <IUPAC_name>
5-[2-(tert-butylamino)-1-hydroxyethyl]benzene-1-3-diol

>  <SMILES>
CC(C)(C)NCC(O)c1cc(O)cc(O)c1

>  <CID>
5403

>  <logBB>


>  <BBB+/BBB->
BBB-

>  <Inchi>
InChI=1S/C12H19NO3/c1-12(2-3)13-7-11(16)8-4-9(14)6-10(15)5-8/h4-6-11-13-16H-7H2-1-3H3

>  <threshold>
-1

>  <reference>
R7|R14|R15|R23|R29|

>  <group>
B

>  <Class>
-1

>  <ABC>
12.08

>  <ABCGG>
10.96

>  <nAcid>
0

>  <nBase>
1

>  <nAromAtom>
6

>  <nAromBond>
6

>  <nAtom>
35

>  <nHeavyAtom>
16

>  <nSpiro>
0

>  <nBridgehead>
0

>  <nHetero>
4

>  <nN>
1

>  <nO>
3

>  <nF>
0

>  <BalabanJ>
2.38

>  <BertzCT>
337.52

>  <nBonds>
35

>  <nBondsO>
16

>  <nBondsS>
29

>  <nBondsD>
0

>  <nBondsT>
0

>  <nBondsA>
6

>  <nBondsM>
6

>  <nBondsKS>
32

>  <nBondsKD>
3

>  <RNCG>
0.27

>  <RPCG>
0.15

>  <FCSP3>
0.5

>  <SZ>
20.33

>  <Sm>
18.76

>  <Sv>
20.05

>  <Sse>
35.09

>  <Sp>
21.69

>  <Si>
39.86

>  <MZ>
0.58

>  <Mm>
0.54

>  <Mv>
0.57

>  <Mse>
1

>  <Mp>
0.62

>  <Mi>
1.14

>  <NsCH3>
3

>  <NdCH2>
0

>  <NssCH2>
1

>  <NtCH>
0

>  <NdsCH>
0

>  <NaaCH>
3

>  <NsssCH>
1

>  <NddC>
0

>  <NtsC>
0

>  <NdssC>
0

>  <NaasC>
3

>  <NaaaC>
0

>  <NssssC>
1

>  <NsNH3>
0

>  <NsNH2>
0

>  <NssNH2>
0

>  <NdNH>
0

>  <NssNH>
1

>  <NaaNH>
0

>  <NtN>
0

>  <NsssNH>
0

>  <NdsN>
0

>  <NaaN>
0

>  <NsssN>
0

>  <NddsN>
0

>  <NaasN>
0

>  <NssssN>
0

>  <NsOH>
3

>  <NdO>
0

>  <NssO>
0

>  <NaaO>
0

>  <NsF>
0

>  <NsSiH3>
0

>  <NssSiH2>
0

>  <NsssSiH>
0

>  <NssssSi>
0

>  <NsPH2>
0

>  <NssPH>
0

>  <NsssP>
0

>  <NdsssP>
0

>  <NsssssP>
0

>  <NsSH>
0

>  <NdS>
0

>  <NssS>
0

>  <NaaS>
0

>  <NdssS>
0

>  <NddssS>
0

>  <NsCl>
0

>  <NsBr>
0

>  <NsI>
0

>  <fragCpx>
16.04

>  <fMF>
0.17

>  <nHBAcc>
4

>  <nHBDon>
4

>  <Kier1>
14.06

>  <Kier2>
5.56

>  <Lipinski>
1

>  <GhoseFilter>
1

>  <FilterItLogS>
-1.94

>  <VMcGowan>
183.77

>  <LabuteASA>
95.55

>  <PEOE_VSA1>
20.64

>  <PEOE_VSA2>
0

>  <PEOE_VSA3>
0

>  <PEOE_VSA4>
0

>  <PEOE_VSA5>
0

>  <PEOE_VSA6>
0

>  <PEOE_VSA7>
38.47

>  <PEOE_VSA8>
18.15

>  <PEOE_VSA9>
6.1

>  <PEOE_VSA10>
11.5

>  <PEOE_VSA11>
0

>  <PEOE_VSA12>
0

>  <PEOE_VSA13>
0

>  <SMR_VSA1>
15.32

>  <SMR_VSA2>
0

>  <SMR_VSA3>
5.32

>  <SMR_VSA4>
0

>  <SMR_VSA5>
32.41

>  <SMR_VSA6>
6.54

>  <SMR_VSA7>
23.76

>  <SMR_VSA8>
0

>  <SMR_VSA9>
11.5

>  <SlogP_VSA1>
5.32

>  <SlogP_VSA2>
27.4

>  <SlogP_VSA3>
0

>  <SlogP_VSA4>
0

>  <SlogP_VSA5>
32.44

>  <SlogP_VSA6>
18.2

>  <SlogP_VSA7>
0

>  <SlogP_VSA8>
0

>  <SlogP_VSA9>
0

>  <SlogP_VSA10>
0

>  <SlogP_VSA11>
11.5

>  <EState_VSA1>
6.1

>  <EState_VSA2>
17.04

>  <EState_VSA3>
12.11

>  <EState_VSA4>
0

>  <EState_VSA5>
18.2

>  <EState_VSA6>
0

>  <EState_VSA7>
20.77

>  <EState_VSA8>
5.32

>  <EState_VSA9>
0

>  <EState_VSA10>
15.32

>  <VSA_EState1>
0

>  <VSA_EState2>
0

>  <VSA_EState3>
31.55

>  <VSA_EState4>
0.41

>  <VSA_EState5>
-0.1

>  <VSA_EState6>
4.11

>  <VSA_EState7>
-0.75

>  <VSA_EState8>
6.37

>  <VSA_EState9>
0

>  <apol>
36.22

>  <bpol>
19.63

>  <nRing>
1

>  <nHRing>
0

>  <naRing>
1

>  <naHRing>
0

>  <nARing 2>
0

>  <nAHRing 2>
0

>  <nFRing>
0

>  <nFHRing>
0

>  <nFaRing>
0

>  <nFaHRing>
0

>  <nFARing 2>
0

>  <nFAHRing 2>
0

>  <nRot>
3

>  <SLogP>
1.52

>  <SMR>
62.49

>  <TopoPSA(NO)>
72.72

>  <TopoPSA>
72.72

>  <JGI1>
0.38

>  <JGI2>
0.08

>  <JGI3>
0.06

>  <JGI4>
0.06

>  <JGI5>
0.03

>  <Diameter>
8

>  <Radius>
4

>  <TMWC10>
100.84

>  <TSRW10>
47.93

>  <MW>
225.14

>  <AMW>
6.43

>  <WPath>
468

>  <WPol>
19

>  <Zagreb1>
78

>  <Zagreb2>
84

>  <mZagreb2>
3.4

>  <yes>


>  <nAR-cont>
0.336376

>  <nHA-cont>
0.954961865

>  <MWHBN>
0.533167485

>  <MWHBN-cont>
0

>  <TPSA-cont>
0.492369244

>  <pka_cont>
0.97

>  <yes.1>


>  <BBB_SCORE>
2.761076352

>  <MMFF94 Energy>
31.704

$$$$
Compound 1967
Actelion Java MolfileCreator 2.0

  0  0  0  0  0  0              0 V3000
M  V30 BEGIN CTAB
M  V30 COUNTS 94 97 0 0 0
M  V30 BEGIN ATOM
M  V30 1 S 2.0721 3.349 -2.87 0
M  V30 2 O 2.8971 2.215 -2.4891 0
M  V30 3 O 2.0286 4.5018 -1.9891 0
M  V30 4 C 2.6118 3.9155 -4.5258 0
M  V30 5 C 0.3792 2.7845 -3.0624 0
M  V30 6 C 2.6718 2.7318 -5.5002 0
M  V30 7 C 1.6534 4.9867 -5.0607 0
M  V30 8 C 4.019 4.52 -4.3837 0
M  V30 9 C -0.1186 2.1154 -1.7755 0 CFG=2
M  V30 10 C 0.4618 0.7141 -1.6698 0
M  V30 11 C -1.6503 1.9663 -1.752 0
M  V30 12 O 0.702 0.0209 -2.6537 0
M  V30 13 N 0.6352 0.2699 -0.3871 0
M  V30 14 C -2.3948 3.2797 -1.753 0
M  V30 15 C 1.1614 -1.0577 -0.0842 0 CFG=2
M  V30 16 C -2.2523 4.1857 -0.6932 0
M  V30 17 C -3.2471 3.609 -2.8162 0
M  V30 18 C 0.6219 -1.4912 1.2893 0
M  V30 19 C 2.694 -1.1489 -0.1663 0
M  V30 20 C -2.9353 5.4028 -0.7058 0
M  V30 21 C -3.9303 4.8261 -2.8257 0
M  V30 22 O 0.2788 -0.688 2.1568 0
M  V30 23 N 0.5424 -2.8505 1.4758 0
M  V30 24 C 3.4156 -0.0518 0.5425 0
M  V30 25 C -3.7723 5.7236 -1.7721 0
M  V30 26 C -0.1078 -3.4747 2.6339 0 CFG=2
M  V30 27 N 3.7534 1.1308 -0.0718 0
M  V30 28 C 3.9059 0.0739 1.8245 0
M  V30 29 C 0.9281 -4.0452 3.6404 0 CFG=1
M  V30 30 C -1.0302 -4.61 2.1315 0
M  V30 31 C 4.388 1.9109 0.8508 0
M  V30 32 N 4.501 1.2963 2.0047 0
M  V30 33 O 2.0204 -4.6225 2.8956 0
M  V30 34 C 1.4957 -3.0258 4.6579 0 CFG=1
M  V30 35 C -2.1218 -4.1736 1.1272 0
M  V30 36 O 2.1299 -1.9399 3.9874 0
M  V30 37 C 0.4899 -2.5727 5.6817 0
M  V30 38 C -2.9103 -5.4096 0.6574 0
M  V30 39 C -3.0765 -3.1202 1.7128 0
M  V30 40 C 0.7686 -1.3605 6.5381 0
M  V30 41 C -0.3704 -1.3363 5.5573 0
M  V30 42 C -4.0256 -5.0405 -0.3166 0
M  V30 43 C -4.1987 -2.762 0.7401 0
M  V30 44 C -4.9635 -3.996 0.2767 0
M  V30 45 H -0.2048 3.6785 -3.2953 0
M  V30 46 H 0.3383 2.107 -3.9175 0
M  V30 47 H 3.0515 3.0486 -6.4782 0
M  V30 48 H 3.3313 1.9396 -5.1299 0
M  V30 49 H 1.6851 2.2888 -5.6634 0
M  V30 50 H 1.5525 5.8214 -4.3587 0
M  V30 51 H 2.0115 5.3937 -6.0131 0
M  V30 52 H 0.6524 4.5809 -5.2377 0
M  V30 53 H 4.0185 5.3754 -3.699 0
M  V30 54 H 4.7291 3.7852 -3.9884 0
M  V30 55 H 4.4006 4.8675 -5.3501 0
M  V30 56 H 0.2109 2.6964 -0.9051 0
M  V30 57 H -1.9719 1.3541 -2.6055 0
M  V30 58 H -1.9632 1.406 -0.8604 0
M  V30 59 H 0.4459 0.8678 0.4132 0
M  V30 60 H 0.7402 -1.7535 -0.8223 0
M  V30 61 H -1.6102 3.954 0.1538 0
M  V30 62 H -3.3884 2.9202 -3.6461 0
M  V30 63 H 2.9915 -1.1298 -1.2231 0
M  V30 64 H 3.0346 -2.1136 0.2295 0
M  V30 65 H -2.8153 6.1004 0.1194 0
M  V30 66 H -4.5894 5.0733 -3.6538 0
M  V30 67 H 0.9669 -3.4798 0.8042 0
M  V30 68 H -4.3051 6.6709 -1.7786 0
M  V30 69 H -0.7287 -2.7345 3.1453 0
M  V30 70 H 3.5485 1.3995 -1.0318 0
M  V30 71 H 3.8648 -0.6458 2.6317 0
M  V30 72 H 0.4695 -4.8621 4.2105 0
M  V30 73 H -0.4143 -5.3862 1.6575 0
M  V30 74 H -1.5145 -5.0816 2.9968 0
M  V30 75 H 4.7403 2.9071 0.6201 0
M  V30 76 H 2.6443 -3.8816 2.755 0
M  V30 77 H 2.3029 -3.5295 5.2039 0
M  V30 78 H -1.6338 -3.7396 0.2445 0
M  V30 79 H 1.4308 -1.3424 3.6527 0
M  V30 80 H 0.0573 -3.4261 6.1971 0
M  V30 81 H -2.2324 -6.1218 0.1721 0
M  V30 82 H -3.3451 -5.9249 1.5235 0
M  V30 83 H -3.5126 -3.4934 2.648 0
M  V30 84 H -2.5325 -2.2019 1.9578 0
M  V30 85 H 1.6404 -0.7534 6.3169 0
M  V30 86 H 0.5308 -1.417 7.5943 0
M  V30 87 H -0.2763 -0.6785 4.7024 0
M  V30 88 H -1.3788 -1.3779 5.9554 0
M  V30 89 H -4.5949 -5.9385 -0.5819 0
M  V30 90 H -3.587 -4.6543 -1.2448 0
M  V30 91 H -4.8897 -2.0591 1.2192 0
M  V30 92 H -3.7739 -2.2474 -0.1305 0
M  V30 93 H -5.5055 -4.4306 1.1256 0
M  V30 94 H -5.7138 -3.7076 -0.4678 0
M  V30 END ATOM
M  V30 BEGIN BOND
M  V30 1 2 1 2
M  V30 2 2 1 3
M  V30 3 1 1 4
M  V30 4 1 1 5
M  V30 5 1 4 6
M  V30 6 1 4 7
M  V30 7 1 4 8
M  V30 8 1 5 9
M  V30 9 1 9 10
M  V30 10 1 9 11
M  V30 11 2 10 12
M  V30 12 1 10 13
M  V30 13 1 11 14
M  V30 14 1 13 15
M  V30 15 2 14 16
M  V30 16 1 14 17
M  V30 17 1 15 18
M  V30 18 1 15 19
M  V30 19 1 16 20
M  V30 20 2 17 21
M  V30 21 2 18 22
M  V30 22 1 18 23
M  V30 23 1 19 24
M  V30 24 2 20 25
M  V30 25 1 23 26
M  V30 26 1 24 27
M  V30 27 2 24 28
M  V30 28 1 26 29
M  V30 29 1 26 30
M  V30 30 1 27 31
M  V30 31 1 28 32
M  V30 32 1 29 33
M  V30 33 1 29 34
M  V30 34 1 30 35
M  V30 35 1 34 36
M  V30 36 1 34 37
M  V30 37 1 35 38
M  V30 38 1 35 39
M  V30 39 1 37 40
M  V30 40 1 37 41
M  V30 41 1 38 42
M  V30 42 1 39 43
M  V30 43 1 42 44
M  V30 44 1 21 25
M  V30 45 2 31 32
M  V30 46 1 40 41
M  V30 47 1 43 44
M  V30 48 1 5 45
M  V30 49 1 5 46
M  V30 50 1 6 47
M  V30 51 1 6 48
M  V30 52 1 6 49
M  V30 53 1 7 50
M  V30 54 1 7 51
M  V30 55 1 7 52
M  V30 56 1 8 53
M  V30 57 1 8 54
M  V30 58 1 8 55
M  V30 59 1 9 56
M  V30 60 1 11 57
M  V30 61 1 11 58
M  V30 62 1 13 59
M  V30 63 1 15 60
M  V30 64 1 16 61
M  V30 65 1 17 62
M  V30 66 1 19 63
M  V30 67 1 19 64
M  V30 68 1 20 65
M  V30 69 1 21 66
M  V30 70 1 23 67
M  V30 71 1 25 68
M  V30 72 1 26 69
M  V30 73 1 27 70
M  V30 74 1 28 71
M  V30 75 1 29 72
M  V30 76 1 30 73
M  V30 77 1 30 74
M  V30 78 1 31 75
M  V30 79 1 33 76
M  V30 80 1 34 77
M  V30 81 1 35 78
M  V30 82 1 36 79
M  V30 83 1 37 80
M  V30 84 1 38 81
M  V30 85 1 38 82
M  V30 86 1 39 83
M  V30 87 1 39 84
M  V30 88 1 40 85
M  V30 89 1 40 86
M  V30 90 1 41 87
M  V30 91 1 41 88
M  V30 92 1 42 89
M  V30 93 1 42 90
M  V30 94 1 43 91
M  V30 95 1 43 92
M  V30 96 1 44 93
M  V30 97 1 44 94
M  V30 END BOND
M  V30 BEGIN COLLECTION
M  V30 MDLV30/STEABS ATOMS=(5 9 15 26 29 34)
M  V30 END COLLECTION
M  V30 END CTAB
M  END
>  <Column 1>
2394

>  <level_0>
2576

>  <index>
2576

>  <Unnamed: 0>
2576

>  <NO.>
2588

>  <Name>
remikiren

>  <IUPAC_name>
(2s)-2-benzyl-3-tert-butylsulfonyl-n-[(2s)-1-[[(2s-3r-4s)-1-cyclohexyl-4-cyclopropyl-3-4-dihydroxybutan-2-yl]amino]-3-(1h-imidazol-5-yl)-1-oxopropan-2-yl]propanamide

>  <SMILES>
CC(C)(C)S(=O)(=O)C[C@@H](Cc1ccccc1)C(=O)N[C@@H](Cc1cnc[nH]1)C(=O)N[C@@H](CC1CCCCC1)[C@@H](O)[C@@H](O)C1CC1

>  <CID>
6324659

>  <logBB>


>  <BBB+/BBB->
BBB-

>  <Inchi>
InChI=1S/C33H50N4O6S/c1-33(2-3)44(42-43)20-25(16-22-10-6-4-7-11-22)31(40)37-28(18-26-19-34-21-35-26)32(41)36-27(17-23-12-8-5-9-13-23)30(39)29(38)24-14-15-24/h4-6-7-10-11-19-21-23-25-27-30-38-39H-5-8-9-12-18-20H2-1-3H3-(H-34-35)(H-36-41)(H-37-40)/t25--27+-28+-29+-30-/m1/s1

>  <threshold>
-1

>  <reference>
R7|R29|

>  <group>
B

>  <Class>
-1

>  <ABC>
34.17

>  <ABCGG>
28.54

>  <nAcid>
0

>  <nBase>
0

>  <nAromAtom>
11

>  <nAromBond>
11

>  <nAtom>
94

>  <nHeavyAtom>
44

>  <nSpiro>
0

>  <nBridgehead>
0

>  <nHetero>
11

>  <nN>
4

>  <nO>
6

>  <nF>
0

>  <BalabanJ>
1.5

>  <BertzCT>
1301.5

>  <nBonds>
97

>  <nBondsO>
47

>  <nBondsS>
82

>  <nBondsD>
4

>  <nBondsT>
0

>  <nBondsA>
11

>  <nBondsM>
15

>  <nBondsKS>
88

>  <nBondsKD>
9

>  <RNCG>
0.1

>  <RPCG>
0.06

>  <FCSP3>
0.67

>  <SZ>
56.67

>  <Sm>
52.52

>  <Sv>
55.05

>  <Sse>
93.91

>  <Sp>
60.22

>  <Si>
106.72

>  <MZ>
0.6

>  <Mm>
0.56

>  <Mv>
0.59

>  <Mse>
1

>  <Mp>
0.64

>  <Mi>
1.14

>  <NsCH3>
3

>  <NdCH2>
0

>  <NssCH2>
11

>  <NtCH>
0

>  <NdsCH>
0

>  <NaaCH>
7

>  <NsssCH>
7

>  <NddC>
0

>  <NtsC>
0

>  <NdssC>
2

>  <NaasC>
2

>  <NaaaC>
0

>  <NssssC>
1

>  <NsNH3>
0

>  <NsNH2>
0

>  <NssNH2>
0

>  <NdNH>
0

>  <NssNH>
2

>  <NaaNH>
1

>  <NtN>
0

>  <NsssNH>
0

>  <NdsN>
0

>  <NaaN>
1

>  <NsssN>
0

>  <NddsN>
0

>  <NaasN>
0

>  <NssssN>
0

>  <NsOH>
2

>  <NdO>
4

>  <NssO>
0

>  <NaaO>
0

>  <NsF>
0

>  <NsSiH3>
0

>  <NssSiH2>
0

>  <NsssSiH>
0

>  <NssssSi>
0

>  <NsPH2>
0

>  <NssPH>
0

>  <NsssP>
0

>  <NdsssP>
0

>  <NsssssP>
0

>  <NsSH>
0

>  <NdS>
0

>  <NssS>
0

>  <NaaS>
0

>  <NdssS>
0

>  <NddssS>
1

>  <NsCl>
0

>  <NsBr>
0

>  <NsI>
0

>  <fragCpx>
317.11

>  <fMF>
0.34

>  <nHBAcc>
7

>  <nHBDon>
5

>  <Kier1>
36.83

>  <Kier2>
16.9

>  <Lipinski>
0

>  <GhoseFilter>
0

>  <FilterItLogS>
-6.23

>  <VMcGowan>
493.78

>  <LabuteASA>
261.3

>  <PEOE_VSA1>
25.83

>  <PEOE_VSA2>
9.59

>  <PEOE_VSA3>
13.4

>  <PEOE_VSA4>
0

>  <PEOE_VSA5>
0

>  <PEOE_VSA6>
62.44

>  <PEOE_VSA7>
63.85

>  <PEOE_VSA8>
18.31

>  <PEOE_VSA9>
34.89

>  <PEOE_VSA10>
12.15

>  <PEOE_VSA11>
9.84

>  <PEOE_VSA12>
11.81

>  <PEOE_VSA13>
0

>  <SMR_VSA1>
28.22

>  <SMR_VSA2>
0

>  <SMR_VSA3>
20.6

>  <SMR_VSA4>
17.75

>  <SMR_VSA5>
114.02

>  <SMR_VSA6>
5.75

>  <SMR_VSA7>
54.11

>  <SMR_VSA8>
0

>  <SMR_VSA9>
0

>  <SlogP_VSA1>
10.63

>  <SlogP_VSA2>
75.2

>  <SlogP_VSA3>
32.27

>  <SlogP_VSA4>
17.75

>  <SlogP_VSA5>
83.4

>  <SlogP_VSA6>
42.86

>  <SlogP_VSA7>
0

>  <SlogP_VSA8>
0

>  <SlogP_VSA9>
0

>  <SlogP_VSA10>
0

>  <SlogP_VSA11>
0

>  <EState_VSA1>
56.61

>  <EState_VSA2>
24.51

>  <EState_VSA3>
18.03

>  <EState_VSA4>
44.09

>  <EState_VSA5>
12.75

>  <EState_VSA6>
26.97

>  <EState_VSA7>
30.33

>  <EState_VSA8>
20.6

>  <EState_VSA9>
0

>  <EState_VSA10>
28.22

>  <VSA_EState1>
25.43

>  <VSA_EState2>
34.81

>  <VSA_EState3>
27.86

>  <VSA_EState4>
1.44

>  <VSA_EState5>
-1.98

>  <VSA_EState6>
7.49

>  <VSA_EState7>
8.94

>  <VSA_EState8>
4.84

>  <VSA_EState9>
-3.66

>  <apol>
100.56

>  <bpol>
61.4

>  <nRing>
4

>  <nHRing>
1

>  <naRing>
2

>  <naHRing>
1

>  <nARing 2>
2

>  <nAHRing 2>
0

>  <nFRing>
0

>  <nFHRing>
0

>  <nFaRing>
0

>  <nFaHRing>
0

>  <nFARing 2>
0

>  <nFAHRing 2>
0

>  <nRot>
15

>  <SLogP>
3.1

>  <SMR>
169.26

>  <TopoPSA(NO)>
161.48

>  <TopoPSA>
169.86

>  <JGI1>
0.23

>  <JGI2>
0.08

>  <JGI3>
0.04

>  <JGI4>
0.04

>  <JGI5>
0.02

>  <Diameter>
16

>  <Radius>
8

>  <TMWC10>
170.86

>  <TSRW10>
100.68

>  <MW>
630.35

>  <AMW>
6.71

>  <WPath>
6882

>  <WPol>
66

>  <Zagreb1>
228

>  <Zagreb2>
263

>  <mZagreb2>
9.49

>  <yes>


>  <nAR-cont>
1

>  <nHA-cont>
0.178195572

>  <MWHBN>
0.477958696

>  <MWHBN-cont>
0

>  <TPSA-cont>
0

>  <pka_cont>
0.97

>  <yes.1>


>  <BBB_SCORE>
1.663195572

>  <MMFF94 Energy>
56.967

$$$$
Compound 1968
Actelion Java MolfileCreator 2.0

  0  0  0  0  0  0              0 V3000
M  V30 BEGIN CTAB
M  V30 COUNTS 29 29 0 0 0
M  V30 BEGIN ATOM
M  V30 1 S -1.5231 2.5662 1.1221 0
M  V30 2 C -1.2938 2.5743 -0.6869 0
M  V30 3 C -1.1911 1.1633 -1.278 0
M  V30 4 C 0.1657 0.5654 -0.9274 0
M  V30 5 C -1.3138 1.2198 -2.8029 0
M  V30 6 O 1.2058 1.0549 -1.3733 0
M  V30 7 N 0.1985 -0.5139 -0.0785 0
M  V30 8 C 1.4791 -1.0797 0.3467 0
M  V30 9 C -0.9207 -1.2526 0.485 0
M  V30 10 C 2.1337 -0.1838 1.4015 0
M  V30 11 C 1.1093 -2.4388 0.9329 0
M  V30 12 C -0.2925 -2.2081 1.4898 0
M  V30 13 O 1.5844 0.6471 2.1099 0
M  V30 14 O 3.4524 -0.4352 1.5481 0
M  V30 15 H -0.3109 2.0725 1.4384 0
M  V30 16 H -0.404 3.1717 -0.9127 0
M  V30 17 H -2.1579 3.0962 -1.112 0
M  V30 18 H -2.0156 0.5437 -0.9154 0
M  V30 19 H -1.1888 0.2224 -3.2384 0
M  V30 20 H -0.5536 1.8726 -3.2464 0
M  V30 21 H -2.298 1.5976 -3.0992 0
M  V30 22 H 2.1538 -1.1582 -0.5127 0
M  V30 23 H -1.4099 -1.7935 -0.3319 0
M  V30 24 H -1.6453 -0.5832 0.9545 0
M  V30 25 H 1.8044 -2.7949 1.6988 0
M  V30 26 H 1.0629 -3.1882 0.1335 0
M  V30 27 H -0.864 -3.1335 1.6029 0
M  V30 28 H -0.227 -1.7276 2.4735 0
M  V30 29 H 3.7401 0.2161 2.2222 0
M  V30 END ATOM
M  V30 BEGIN BOND
M  V30 1 1 1 2
M  V30 2 1 2 3
M  V30 3 1 3 4
M  V30 4 1 3 5
M  V30 5 2 4 6
M  V30 6 1 4 7
M  V30 7 1 7 8
M  V30 8 1 7 9
M  V30 9 1 8 10
M  V30 10 1 8 11
M  V30 11 1 9 12
M  V30 12 2 10 13
M  V30 13 1 10 14
M  V30 14 1 11 12
M  V30 15 1 1 15
M  V30 16 1 2 16
M  V30 17 1 2 17
M  V30 18 1 3 18
M  V30 19 1 5 19
M  V30 20 1 5 20
M  V30 21 1 5 21
M  V30 22 1 8 22
M  V30 23 1 9 23
M  V30 24 1 9 24
M  V30 25 1 11 25
M  V30 26 1 11 26
M  V30 27 1 12 27
M  V30 28 1 12 28
M  V30 29 1 14 29
M  V30 END BOND
M  V30 END CTAB
M  END
>  <Column 1>
2395

>  <level_0>
2577

>  <index>
2577

>  <Unnamed: 0>
2577

>  <NO.>
2589

>  <Name>
1-(2-methyl-3-sulfanylpropanoyl)pyrrolidine-2-carboxylic acid

>  <IUPAC_name>
1-(2-methyl-3-sulfanylpropanoyl)pyrrolidine-2-carboxylic acid

>  <SMILES>
CC(CS)C(=O)N1CCCC1C(=O)O

>  <CID>
2550

>  <logBB>


>  <BBB+/BBB->
BBB-

>  <Inchi>
InChI=1S/C9H15NO3S/c1-6(5-14)8(11)10-4-2-3-7(10)9(12)13/h6-7-14H-2-5H2-1H3-(H-12-13)

>  <threshold>
-1

>  <reference>
R7|R14|R23|

>  <group>
B

>  <Class>
1

>  <ABC>
10.18

>  <ABCGG>
10.51

>  <nAcid>
1

>  <nBase>
0

>  <nAromAtom>
0

>  <nAromBond>
0

>  <nAtom>
29

>  <nHeavyAtom>
14

>  <nSpiro>
0

>  <nBridgehead>
0

>  <nHetero>
5

>  <nN>
1

>  <nO>
3

>  <nF>
0

>  <BalabanJ>
2.57

>  <BertzCT>
244.21

>  <nBonds>
29

>  <nBondsO>
14

>  <nBondsS>
27

>  <nBondsD>
2

>  <nBondsT>
0

>  <nBondsA>
0

>  <nBondsM>
2

>  <nBondsKS>
27

>  <nBondsKD>
2

>  <RNCG>
0.3

>  <RPCG>
0.2

>  <FCSP3>
0.78

>  <SZ>
19.33

>  <Sm>
18.09

>  <Sv>
17.15

>  <Sse>
29.39

>  <Sp>
18.83

>  <Si>
32.95

>  <MZ>
0.67

>  <Mm>
0.62

>  <Mv>
0.59

>  <Mse>
1.01

>  <Mp>
0.65

>  <Mi>
1.14

>  <NsCH3>
1

>  <NdCH2>
0

>  <NssCH2>
4

>  <NtCH>
0

>  <NdsCH>
0

>  <NaaCH>
0

>  <NsssCH>
2

>  <NddC>
0

>  <NtsC>
0

>  <NdssC>
2

>  <NaasC>
0

>  <NaaaC>
0

>  <NssssC>
0

>  <NsNH3>
0

>  <NsNH2>
0

>  <NssNH2>
0

>  <NdNH>
0

>  <NssNH>
0

>  <NaaNH>
0

>  <NtN>
0

>  <NsssNH>
0

>  <NdsN>
0

>  <NaaN>
0

>  <NsssN>
1

>  <NddsN>
0

>  <NaasN>
0

>  <NssssN>
0

>  <NsOH>
1

>  <NdO>
2

>  <NssO>
0

>  <NaaO>
0

>  <NsF>
0

>  <NsSiH3>
0

>  <NssSiH2>
0

>  <NsssSiH>
0

>  <NssssSi>
0

>  <NsPH2>
0

>  <NssPH>
0

>  <NsssP>
0

>  <NdsssP>
0

>  <NsssssP>
0

>  <NsSH>
1

>  <NdS>
0

>  <NssS>
0

>  <NaaS>
0

>  <NdssS>
0

>  <NddssS>
0

>  <NsCl>
0

>  <NsBr>
0

>  <NsI>
0

>  <fragCpx>
14.05

>  <fMF>
0.17

>  <nHBAcc>
3

>  <nHBDon>
2

>  <Kier1>
12.07

>  <Kier2>
5.19

>  <Lipinski>
1

>  <GhoseFilter>
1

>  <FilterItLogS>
-0.38

>  <VMcGowan>
162.15

>  <LabuteASA>
88.69

>  <PEOE_VSA1>
10.01

>  <PEOE_VSA2>
4.79

>  <PEOE_VSA3>
4.79

>  <PEOE_VSA4>
12.63

>  <PEOE_VSA5>
0

>  <PEOE_VSA6>
6.92

>  <PEOE_VSA7>
12.84

>  <PEOE_VSA8>
18.22

>  <PEOE_VSA9>
0

>  <PEOE_VSA10>
6.04

>  <PEOE_VSA11>
0

>  <PEOE_VSA12>
5.91

>  <PEOE_VSA13>
0

>  <SMR_VSA1>
14.7

>  <SMR_VSA2>
0

>  <SMR_VSA3>
4.9

>  <SMR_VSA4>
5.92

>  <SMR_VSA5>
25.81

>  <SMR_VSA6>
12.3

>  <SMR_VSA7>
0

>  <SMR_VSA8>
0

>  <SMR_VSA9>
0

>  <SlogP_VSA1>
0

>  <SlogP_VSA2>
40.22

>  <SlogP_VSA3>
9.59

>  <SlogP_VSA4>
5.92

>  <SlogP_VSA5>
19.77

>  <SlogP_VSA6>
0

>  <SlogP_VSA7>
0

>  <SlogP_VSA8>
0

>  <SlogP_VSA9>
0

>  <SlogP_VSA10>
0

>  <SlogP_VSA11>
0

>  <EState_VSA1>
12.01

>  <EState_VSA2>
11.83

>  <EState_VSA3>
18.72

>  <EState_VSA4>
6.42

>  <EState_VSA5>
4.9

>  <EState_VSA6>
6.92

>  <EState_VSA7>
0

>  <EState_VSA8>
12.63

>  <EState_VSA9>
5.11

>  <EState_VSA10>
9.59

>  <VSA_EState1>
0

>  <VSA_EState2>
23.98

>  <VSA_EState3>
8.87

>  <VSA_EState4>
0

>  <VSA_EState5>
-0.73

>  <VSA_EState6>
-0.62

>  <VSA_EState7>
1.35

>  <VSA_EState8>
2.33

>  <VSA_EState9>
0

>  <apol>
31.44

>  <bpol>
20.95

>  <nRing>
1

>  <nHRing>
1

>  <naRing>
0

>  <naHRing>
0

>  <nARing 2>
1

>  <nAHRing 2>
1

>  <nFRing>
0

>  <nFHRing>
0

>  <nFaRing>
0

>  <nFaHRing>
0

>  <nFARing 2>
0

>  <nFAHRing 2>
0

>  <nRot>
3

>  <SLogP>
0.63

>  <SMR>
55.39

>  <TopoPSA(NO)>
57.61

>  <TopoPSA>
96.41

>  <JGI1>
0.21

>  <JGI2>
0.12

>  <JGI3>
0.06

>  <JGI4>
0.05

>  <JGI5>
0.03

>  <Diameter>
7

>  <Radius>
4

>  <TMWC10>
96.52

>  <TSRW10>
58.77

>  <MW>
217.08

>  <AMW>
7.49

>  <WPath>
297

>  <WPol>
19

>  <Zagreb1>
66

>  <Zagreb2>
76

>  <mZagreb2>
3.28

>  <yes>


>  <nAR-cont>
0.816016

>  <nHA-cont>
0.887625254

>  <MWHBN>
0.339359568

>  <MWHBN-cont>
0.709457056

>  <TPSA-cont>
0.326998333

>  <pka_cont>
0.97

>  <yes.1>


>  <BBB_SCORE>
3.906823504

>  <MMFF94 Energy>
1.2655

$$$$
Compound 1969
Actelion Java MolfileCreator 2.0

  0  0  0  0  0  0              0 V3000
M  V30 BEGIN CTAB
M  V30 COUNTS 37 40 0 0 0
M  V30 BEGIN ATOM
M  V30 1 O -3.7026 -1.3671 -0.4823 0
M  V30 2 C -2.6699 -0.741 0.1433 0
M  V30 3 C -4.5693 -1.6498 0.6358 0
M  V30 4 C -2.8581 -0.6528 1.5037 0
M  V30 5 C -1.543 -0.2417 -0.4721 0
M  V30 6 O -4.0341 -1.2082 1.9012 0
M  V30 7 C -1.9356 -0.0497 2.3329 0
M  V30 8 C -0.5804 0.3665 0.344 0
M  V30 9 C -0.7764 0.476 1.7447 0
M  V30 10 C 0.7068 0.8493 -0.2361 0
M  V30 11 C 0.2366 1.2395 2.5574 0
M  V30 12 N 1.2897 1.9802 0.0505 0
M  V30 13 C 1.436 -0.0577 -1.181 0
M  V30 14 C 0.2633 2.6503 2.0182 0
M  V30 15 N 0.6634 2.9581 0.8222 0
M  V30 16 C 1.4373 -1.446 -1.0115 0
M  V30 17 C 2.1514 0.505 -2.2423 0
M  V30 18 C -0.3223 3.7394 2.8786 0
M  V30 19 C 2.1327 -2.2596 -1.9128 0
M  V30 20 C 2.8429 -0.3168 -3.1375 0
M  V30 21 C 2.8487 -1.7036 -2.9755 0
M  V30 22 N 3.5057 -2.5145 -3.8813 0
M  V30 23 H -4.7366 -2.7318 0.6847 0
M  V30 24 H -5.5316 -1.152 0.4689 0
M  V30 25 H -1.4186 -0.3234 -1.5461 0
M  V30 26 H -2.1227 0.024 3.3988 0
M  V30 27 H -0.0369 1.2549 3.6178 0
M  V30 28 H 1.2279 0.78 2.4838 0
M  V30 29 H 0.9152 -1.9128 -0.1812 0
M  V30 30 H 2.1696 1.5841 -2.3811 0
M  V30 31 H -0.1702 4.7195 2.4184 0
M  V30 32 H 0.1604 3.7278 3.8594 0
M  V30 33 H -1.3943 3.5636 3.0023 0
M  V30 34 H 2.1154 -3.3371 -1.7719 0
M  V30 35 H 3.3821 0.1418 -3.962 0
M  V30 36 H 4.075 -2.1066 -4.6103 0
M  V30 37 H 3.5664 -3.5113 -3.7286 0
M  V30 END ATOM
M  V30 BEGIN BOND
M  V30 1 1 1 2
M  V30 2 1 1 3
M  V30 3 2 2 4
M  V30 4 1 2 5
M  V30 5 1 3 6
M  V30 6 1 4 7
M  V30 7 2 5 8
M  V30 8 2 7 9
M  V30 9 1 8 10
M  V30 10 1 9 11
M  V30 11 2 10 12
M  V30 12 1 10 13
M  V30 13 1 11 14
M  V30 14 1 12 15
M  V30 15 2 13 16
M  V30 16 1 13 17
M  V30 17 1 14 18
M  V30 18 1 16 19
M  V30 19 2 17 20
M  V30 20 2 19 21
M  V30 21 1 21 22
M  V30 22 1 4 6
M  V30 23 1 8 9
M  V30 24 2 14 15
M  V30 25 1 20 21
M  V30 26 1 3 23
M  V30 27 1 3 24
M  V30 28 1 5 25
M  V30 29 1 7 26
M  V30 30 1 11 27
M  V30 31 1 11 28
M  V30 32 1 16 29
M  V30 33 1 17 30
M  V30 34 1 18 31
M  V30 35 1 18 32
M  V30 36 1 18 33
M  V30 37 1 19 34
M  V30 38 1 20 35
M  V30 39 1 22 36
M  V30 40 1 22 37
M  V30 END BOND
M  V30 END CTAB
M  END
>  <Column 1>
2396

>  <level_0>
2578

>  <index>
2578

>  <Unnamed: 0>
2578

>  <NO.>
2590

>  <Name>
gyki-52466

>  <IUPAC_name>
4-(8-methyl-9h-[1-3]dioxolo[4-5-h][2-3]benzodiazepin-5-yl)aniline

>  <SMILES>
CC1=NN=C(c2ccc(N)cc2)c2cc3c(cc2C1)OCO3

>  <CID>
3538

>  <logBB>


>  <BBB+/BBB->
BBB+

>  <Inchi>
InChI=1S/C17H15N3O2/c1-10-6-12-7-15-16(22-9-21-15)8-14(12)17(20-19-10)11-2-4-13(18)5-3-11/h2-5-7-8H-6-9-18H2-1H3

>  <threshold>
-1

>  <reference>
R7|R29|

>  <group>
B

>  <Class>
-1

>  <ABC>
17.73

>  <ABCGG>
14.11

>  <nAcid>
0

>  <nBase>
0

>  <nAromAtom>
12

>  <nAromBond>
12

>  <nAtom>
37

>  <nHeavyAtom>
22

>  <nSpiro>
0

>  <nBridgehead>
0

>  <nHetero>
5

>  <nN>
3

>  <nO>
2

>  <nF>
0

>  <BalabanJ>
1.51

>  <BertzCT>
807.4

>  <nBonds>
40

>  <nBondsO>
25

>  <nBondsS>
26

>  <nBondsD>
2

>  <nBondsT>
0

>  <nBondsA>
12

>  <nBondsM>
14

>  <nBondsKS>
32

>  <nBondsKD>
8

>  <RNCG>
0.24

>  <RPCG>
0.12

>  <FCSP3>
0.18

>  <SZ>
25.67

>  <Sm>
24.42

>  <Sv>
24.77

>  <Sse>
37.31

>  <Sp>
25.93

>  <Si>
41.41

>  <MZ>
0.69

>  <Mm>
0.66

>  <Mv>
0.67

>  <Mse>
1.01

>  <Mp>
0.7

>  <Mi>
1.12

>  <NsCH3>
1

>  <NdCH2>
0

>  <NssCH2>
2

>  <NtCH>
0

>  <NdsCH>
0

>  <NaaCH>
6

>  <NsssCH>
0

>  <NddC>
0

>  <NtsC>
0

>  <NdssC>
2

>  <NaasC>
6

>  <NaaaC>
0

>  <NssssC>
0

>  <NsNH3>
0

>  <NsNH2>
1

>  <NssNH2>
0

>  <NdNH>
0

>  <NssNH>
0

>  <NaaNH>
0

>  <NtN>
0

>  <NsssNH>
0

>  <NdsN>
2

>  <NaaN>
0

>  <NsssN>
0

>  <NddsN>
0

>  <NaasN>
0

>  <NssssN>
0

>  <NsOH>
0

>  <NdO>
0

>  <NssO>
2

>  <NaaO>
0

>  <NsF>
0

>  <NsSiH3>
0

>  <NssSiH2>
0

>  <NsssSiH>
0

>  <NssssSi>
0

>  <NsPH2>
0

>  <NssPH>
0

>  <NsssP>
0

>  <NdsssP>
0

>  <NsssssP>
0

>  <NsSH>
0

>  <NdS>
0

>  <NssS>
0

>  <NaaS>
0

>  <NdssS>
0

>  <NddssS>
0

>  <NsCl>
0

>  <NsBr>
0

>  <NsI>
0

>  <fragCpx>
163.05

>  <fMF>
0.54

>  <nHBAcc>
5

>  <nHBDon>
1

>  <Kier1>
15.52

>  <Kier2>
6.48

>  <Lipinski>
1

>  <GhoseFilter>
1

>  <FilterItLogS>
-4.68

>  <VMcGowan>
214.23

>  <LabuteASA>
127.63

>  <PEOE_VSA1>
15.21

>  <PEOE_VSA2>
0

>  <PEOE_VSA3>
0

>  <PEOE_VSA4>
5.1

>  <PEOE_VSA5>
5.1

>  <PEOE_VSA6>
12.13

>  <PEOE_VSA7>
36.75

>  <PEOE_VSA8>
28.95

>  <PEOE_VSA9>
0

>  <PEOE_VSA10>
5.71

>  <PEOE_VSA11>
11.5

>  <PEOE_VSA12>
6.79

>  <PEOE_VSA13>
0

>  <SMR_VSA1>
9.47

>  <SMR_VSA2>
0

>  <SMR_VSA3>
0

>  <SMR_VSA4>
10.2

>  <SMR_VSA5>
13.34

>  <SMR_VSA6>
12.53

>  <SMR_VSA7>
53.09

>  <SMR_VSA8>
0

>  <SMR_VSA9>
11.5

>  <SlogP_VSA1>
15.21

>  <SlogP_VSA2>
18.22

>  <SlogP_VSA3>
6.42

>  <SlogP_VSA4>
0

>  <SlogP_VSA5>
23.61

>  <SlogP_VSA6>
46.6

>  <SlogP_VSA7>
0

>  <SlogP_VSA8>
0

>  <SlogP_VSA9>
0

>  <SlogP_VSA10>
5.69

>  <SlogP_VSA11>
11.5

>  <EState_VSA1>
0

>  <EState_VSA2>
6.79

>  <EState_VSA3>
0

>  <EState_VSA4>
51.72

>  <EState_VSA5>
0

>  <EState_VSA6>
0

>  <EState_VSA7>
43.32

>  <EState_VSA8>
10.2

>  <EState_VSA9>
15.21

>  <EState_VSA10>
0

>  <VSA_EState1>
10.98

>  <VSA_EState2>
0

>  <VSA_EState3>
8.75

>  <VSA_EState4>
11.43

>  <VSA_EState5>
1.53

>  <VSA_EState6>
11.66

>  <VSA_EState7>
0.74

>  <VSA_EState8>
2.24

>  <VSA_EState9>
0

>  <apol>
43.3

>  <bpol>
19.09

>  <nRing>
4

>  <nHRing>
2

>  <naRing>
2

>  <naHRing>
0

>  <nARing 2>
2

>  <nAHRing 2>
2

>  <nFRing>
1

>  <nFHRing>
1

>  <nFaRing>
0

>  <nFaHRing>
0

>  <nFARing 2>
1

>  <nFAHRing 2>
1

>  <nRot>
1

>  <SLogP>
2.77

>  <SMR>
85.87

>  <TopoPSA(NO)>
69.2

>  <TopoPSA>
69.2

>  <JGI1>
0.18

>  <JGI2>
0.07

>  <JGI3>
0.04

>  <JGI4>
0.04

>  <JGI5>
0.02

>  <Diameter>
10

>  <Radius>
5

>  <TMWC10>
122.36

>  <TSRW10>
70.44

>  <MW>
293.12

>  <AMW>
7.92

>  <WPath>
970

>  <WPol>
38

>  <Zagreb1>
122

>  <Zagreb2>
146

>  <mZagreb2>
4.69

>  <yes>


>  <nAR-cont>
1

>  <nHA-cont>
0.983774276

>  <MWHBN>
0.350451985

>  <MWHBN-cont>
0.668559812

>  <TPSA-cont>
0.516941029

>  <pka_cont>
0.97

>  <yes.1>


>  <BBB_SCORE>
4.505496052

>  <MMFF94 Energy>
97.268

$$$$
Compound 1970
Actelion Java MolfileCreator 2.0

  0  0  0  0  0  0              0 V3000
M  V30 BEGIN CTAB
M  V30 COUNTS 48 51 0 0 0
M  V30 BEGIN ATOM
M  V30 1 F 0.8909 -0.2429 -3.8921 0
M  V30 2 C 1.1022 -0.2742 -2.5662 0
M  V30 3 C 0.0309 -0.0969 -1.6708 0
M  V30 4 C 2.4139 -0.4331 -2.133 0
M  V30 5 N -1.2768 0.0822 -2.1147 0
M  V30 6 C 0.3546 -0.0878 -0.2995 0
M  V30 7 C 2.6955 -0.4251 -0.7654 0
M  V30 8 C -2.2844 0.76 -1.2798 0
M  V30 9 C -1.8304 -0.8995 -3.0688 0
M  V30 10 C 1.6692 -0.2763 0.1819 0
M  V30 11 C 4.1038 -0.5625 -0.3239 0
M  V30 12 C -3.4419 1.3244 -2.1496 0 CFG=1
M  V30 13 C -2.9955 -0.2889 -3.8767 0
M  V30 14 N 1.9814 -0.2811 1.5832 0
M  V30 15 O 4.978 -0.7965 -1.1498 0
M  V30 16 C 4.3876 -0.4285 1.1233 0
M  V30 17 N -4.0496 0.3041 -3.0317 0
M  V30 18 C -4.5332 1.9164 -1.2593 0
M  V30 19 C 0.9982 -0.2915 2.6255 0
M  V30 20 C 3.3291 -0.3078 1.9411 0
M  V30 21 C 5.7629 -0.4217 1.6539 0
M  V30 22 C 0.9806 0.6908 3.6342 0
M  V30 23 C 0.0312 -1.3122 2.6827 0
M  V30 24 O 6.789 -0.2055 1.037 0
M  V30 25 O 5.8236 -0.6858 2.9755 0
M  V30 26 F 1.8832 1.6841 3.6212 0
M  V30 27 C 0.033 0.6765 4.6526 0
M  V30 28 C -0.9231 -1.3321 3.7034 0
M  V30 29 C -0.9129 -0.3372 4.6753 0
M  V30 30 F -1.8302 -0.3612 5.6505 0
M  V30 31 H 3.2045 -0.5443 -2.8701 0
M  V30 32 H -0.4475 0.0655 0.4149 0
M  V30 33 H -1.8293 1.601 -0.7411 0
M  V30 34 H -2.6785 0.0532 -0.5381 0
M  V30 35 H -2.1909 -1.7707 -2.5064 0
M  V30 36 H -1.0858 -1.268 -3.7803 0
M  V30 37 H -3.0412 2.1307 -2.779 0
M  V30 38 H -3.446 -1.0712 -4.4972 0
M  V30 39 H -2.6051 0.477 -4.5588 0
M  V30 40 H -4.7407 0.7509 -3.6336 0
M  V30 41 H -4.9834 1.153 -0.6148 0
M  V30 42 H -4.1226 2.7015 -0.6152 0
M  V30 43 H -5.3315 2.3657 -1.8606 0
M  V30 44 H 3.4861 -0.2298 3.0158 0
M  V30 45 H 0.0278 -2.1057 1.9381 0
M  V30 46 H 6.7865 -0.6525 3.1627 0
M  V30 47 H 0.0338 1.4464 5.4153 0
M  V30 48 H -1.6694 -2.12 3.749 0
M  V30 END ATOM
M  V30 BEGIN BOND
M  V30 1 1 1 2
M  V30 2 2 2 3
M  V30 3 1 2 4
M  V30 4 1 3 5
M  V30 5 1 3 6
M  V30 6 2 4 7
M  V30 7 1 5 8
M  V30 8 1 5 9
M  V30 9 2 6 10
M  V30 10 1 7 11
M  V30 11 1 8 12
M  V30 12 1 9 13
M  V30 13 1 10 14
M  V30 14 2 11 15
M  V30 15 1 11 16
M  V30 16 1 12 17
M  V30 17 1 12 18
M  V30 18 1 14 19
M  V30 19 1 14 20
M  V30 20 1 16 21
M  V30 21 2 19 22
M  V30 22 1 19 23
M  V30 23 2 21 24
M  V30 24 1 21 25
M  V30 25 1 22 26
M  V30 26 1 22 27
M  V30 27 2 23 28
M  V30 28 2 27 29
M  V30 29 1 29 30
M  V30 30 1 7 10
M  V30 31 1 13 17
M  V30 32 2 16 20
M  V30 33 1 28 29
M  V30 34 1 4 31
M  V30 35 1 6 32
M  V30 36 1 8 33
M  V30 37 1 8 34
M  V30 38 1 9 35
M  V30 39 1 9 36
M  V30 40 1 12 37
M  V30 41 1 13 38
M  V30 42 1 13 39
M  V30 43 1 17 40
M  V30 44 1 18 41
M  V30 45 1 18 42
M  V30 46 1 18 43
M  V30 47 1 20 44
M  V30 48 1 23 45
M  V30 49 1 25 46
M  V30 50 1 27 47
M  V30 51 1 28 48
M  V30 END BOND
M  V30 BEGIN COLLECTION
M  V30 MDLV30/STERAC1 ATOMS=(1 12)
M  V30 END COLLECTION
M  V30 END CTAB
M  END
>  <Column 1>
2397

>  <level_0>
2579

>  <index>
2579

>  <Unnamed: 0>
2579

>  <NO.>
2591

>  <Name>
temafloxacin

>  <IUPAC_name>
1-(2-4-difluorophenyl)-6-fluoro-7-(3-methylpiperazin-1-yl)-4-oxoquinoline-3-carboxylic acid

>  <SMILES>
CC1CN(c2cc3c(cc2F)c(=O)c(C(=O)O)cn3-c2ccc(F)cc2F)CCN1

>  <CID>
60021

>  <logBB>


>  <BBB+/BBB->
BBB-

>  <Inchi>
InChI=1S/C21H18F3N3O3/c1-11-9-26(5-4-25-11)19-8-18-13(7-16(19)24)20(28)14(21(29)30)10-27(18)17-3-2-12(22)6-15(17)23/h2-3-6-8-10-11-25H-4-5-9H2-1H3-(H-29-30)

>  <threshold>
-1

>  <reference>
R7|R29|

>  <group>
B

>  <Class>
-1

>  <ABC>
23.74

>  <ABCGG>
18.68

>  <nAcid>
1

>  <nBase>
1

>  <nAromAtom>
16

>  <nAromBond>
17

>  <nAtom>
48

>  <nHeavyAtom>
30

>  <nSpiro>
0

>  <nBridgehead>
0

>  <nHetero>
9

>  <nN>
3

>  <nO>
3

>  <nF>
3

>  <BalabanJ>
1.58

>  <BertzCT>
1225.57

>  <nBonds>
51

>  <nBondsO>
33

>  <nBondsS>
32

>  <nBondsD>
2

>  <nBondsT>
0

>  <nBondsA>
17

>  <nBondsM>
19

>  <nBondsKS>
42

>  <nBondsKD>
9

>  <RNCG>
0.17

>  <RPCG>
0.12

>  <FCSP3>
0.24

>  <SZ>
36

>  <Sm>
34.75

>  <Sv>
32.23

>  <Sse>
49.84

>  <Sp>
32.6

>  <Si>
54.88

>  <MZ>
0.75

>  <Mm>
0.72

>  <Mv>
0.67

>  <Mse>
1.04

>  <Mp>
0.68

>  <Mi>
1.14

>  <NsCH3>
1

>  <NdCH2>
0

>  <NssCH2>
3

>  <NtCH>
0

>  <NdsCH>
0

>  <NaaCH>
6

>  <NsssCH>
1

>  <NddC>
0

>  <NtsC>
0

>  <NdssC>
1

>  <NaasC>
6

>  <NaaaC>
2

>  <NssssC>
0

>  <NsNH3>
0

>  <NsNH2>
0

>  <NssNH2>
0

>  <NdNH>
0

>  <NssNH>
1

>  <NaaNH>
0

>  <NtN>
0

>  <NsssNH>
0

>  <NdsN>
0

>  <NaaN>
0

>  <NsssN>
1

>  <NddsN>
0

>  <NaasN>
1

>  <NssssN>
0

>  <NsOH>
1

>  <NdO>
2

>  <NssO>
0

>  <NaaO>
0

>  <NsF>
3

>  <NsSiH3>
0

>  <NssSiH2>
0

>  <NsssSiH>
0

>  <NssssSi>
0

>  <NsPH2>
0

>  <NssPH>
0

>  <NsssP>
0

>  <NdsssP>
0

>  <NsssssP>
0

>  <NsSH>
0

>  <NdS>
0

>  <NssS>
0

>  <NaaS>
0

>  <NdssS>
0

>  <NddssS>
0

>  <NsCl>
0

>  <NsBr>
0

>  <NsI>
0

>  <fragCpx>
219.09

>  <fMF>
0.46

>  <nHBAcc>
5

>  <nHBDon>
2

>  <Kier1>
23.17

>  <Kier2>
9.47

>  <Lipinski>
1

>  <GhoseFilter>
1

>  <FilterItLogS>
-5.16

>  <VMcGowan>
277.44

>  <LabuteASA>
168.71

>  <PEOE_VSA1>
19.89

>  <PEOE_VSA2>
4.79

>  <PEOE_VSA3>
17.97

>  <PEOE_VSA4>
0

>  <PEOE_VSA5>
0

>  <PEOE_VSA6>
0

>  <PEOE_VSA7>
31.19

>  <PEOE_VSA8>
43.33

>  <PEOE_VSA9>
16.89

>  <PEOE_VSA10>
23.02

>  <PEOE_VSA11>
0

>  <PEOE_VSA12>
5.43

>  <PEOE_VSA13>
0

>  <SMR_VSA1>
23.07

>  <SMR_VSA2>
0

>  <SMR_VSA3>
9.88

>  <SMR_VSA4>
0

>  <SMR_VSA5>
12.97

>  <SMR_VSA6>
24.53

>  <SMR_VSA7>
69.77

>  <SMR_VSA8>
0

>  <SMR_VSA9>
5.69

>  <SlogP_VSA1>
15.65

>  <SlogP_VSA2>
41.32

>  <SlogP_VSA3>
0

>  <SlogP_VSA4>
17.45

>  <SlogP_VSA5>
17.28

>  <SlogP_VSA6>
41.32

>  <SlogP_VSA7>
0

>  <SlogP_VSA8>
16.59

>  <SlogP_VSA9>
0

>  <SlogP_VSA10>
18.86

>  <SlogP_VSA11>
0

>  <EState_VSA1>
34.41

>  <EState_VSA2>
28.32

>  <EState_VSA3>
25.7

>  <EState_VSA4>
28.96

>  <EState_VSA5>
6.07

>  <EState_VSA6>
4.9

>  <EState_VSA7>
6.92

>  <EState_VSA8>
5.32

>  <EState_VSA9>
0

>  <EState_VSA10>
27.87

>  <VSA_EState1>
43.97

>  <VSA_EState2>
26

>  <VSA_EState3>
12.43

>  <VSA_EState4>
-1.34

>  <VSA_EState5>
-3.96

>  <VSA_EState6>
5.3

>  <VSA_EState7>
0.98

>  <VSA_EState8>
3.63

>  <VSA_EState9>
0

>  <apol>
54.45

>  <bpol>
27.12

>  <nRing>
4

>  <nHRing>
2

>  <naRing>
3

>  <naHRing>
1

>  <nARing 2>
1

>  <nAHRing 2>
1

>  <nFRing>
1

>  <nFHRing>
1

>  <nFaRing>
1

>  <nFaHRing>
1

>  <nFARing 2>
0

>  <nFAHRing 2>
0

>  <nRot>
3

>  <SLogP>
2.9

>  <SMR>
106.06

>  <TopoPSA(NO)>
74.57

>  <TopoPSA>
74.57

>  <JGI1>
0.21

>  <JGI2>
0.09

>  <JGI3>
0.05

>  <JGI4>
0.05

>  <JGI5>
0.03

>  <Diameter>
12

>  <Radius>
6

>  <TMWC10>
141.55

>  <TSRW10>
66.24

>  <MW>
417.13

>  <AMW>
8.69

>  <WPath>
2246

>  <WPol>
55

>  <Zagreb1>
164

>  <Zagreb2>
198

>  <mZagreb2>
6.42

>  <yes>


>  <nAR-cont>
0.816016

>  <nHA-cont>
0.74523694

>  <MWHBN>
0.342738055

>  <MWHBN-cont>
0.697141095

>  <TPSA-cont>
0.479455095

>  <pka_cont>
0.97

>  <yes.1>


>  <BBB_SCORE>
4.050874771

>  <MMFF94 Energy>
126.47

$$$$
Compound 1971
Actelion Java MolfileCreator 2.0

  0  0  0  0  0  0              0 V3000
M  V30 BEGIN CTAB
M  V30 COUNTS 41 41 0 0 0
M  V30 BEGIN ATOM
M  V30 1 Cl -3.8029 -6.8214 2.4547 0
M  V30 2 C -3.1156 -5.6218 1.4307 0
M  V30 3 C -3.4784 -5.5655 0.0874 0
M  V30 4 C -2.1995 -4.7122 1.9497 0
M  V30 5 C -2.9214 -4.5893 -0.754 0
M  V30 6 C -1.6385 -3.7361 1.1204 0
M  V30 7 C -1.9934 -3.6681 -0.2311 0
M  V30 8 C -3.3218 -4.5376 -2.2036 0
M  V30 9 O -1.5038 -2.7541 -1.1254 0
M  V30 10 C -0.5557 -1.8065 -0.6513 0
M  V30 11 C -0.122 -0.8756 -1.774 0
M  V30 12 O -0.5329 -0.89 -2.9263 0
M  V30 13 O 0.8154 -0.0045 -1.2956 0
M  V30 14 C 1.2556 0.9713 -2.2558 0
M  V30 15 C 2.2705 1.8964 -1.5903 0
M  V30 16 O 1.6009 2.7163 -0.627 0
M  V30 17 C 2.5056 3.5965 0.0383 0
M  V30 18 C 1.7127 4.4284 1.0397 0
M  V30 19 C 2.6093 5.4018 1.7997 0
M  V30 20 C 1.8141 6.2291 2.7972 0
M  V30 21 H -4.1959 -6.2811 -0.3067 0
M  V30 22 H -1.917 -4.7554 2.9984 0
M  V30 23 H -0.9294 -3.0454 1.5648 0
M  V30 24 H -2.4464 -4.6859 -2.8441 0
M  V30 25 H -3.7838 -3.5722 -2.4349 0
M  V30 26 H -4.0481 -5.32 -2.4479 0
M  V30 27 H 0.3399 -2.3249 -0.2902 0
M  V30 28 H -1.0059 -1.1857 0.1318 0
M  V30 29 H 0.3907 1.5494 -2.6014 0
M  V30 30 H 1.729 0.455 -3.0982 0
M  V30 31 H 3.0424 1.3068 -1.083 0
M  V30 32 H 2.7338 2.5393 -2.3465 0
M  V30 33 H 2.9896 4.2485 -0.6978 0
M  V30 34 H 3.2727 3.0095 0.5562 0
M  V30 35 H 0.9209 4.9745 0.5116 0
M  V30 36 H 1.1984 3.7591 1.7409 0
M  V30 37 H 3.3911 4.8489 2.3334 0
M  V30 38 H 3.1113 6.0742 1.0942 0
M  V30 39 H 2.4758 6.9192 3.3302 0
M  V30 40 H 1.0436 6.8197 2.2913 0
M  V30 41 H 1.325 5.5876 3.5373 0
M  V30 END ATOM
M  V30 BEGIN BOND
M  V30 1 1 1 2
M  V30 2 2 2 3
M  V30 3 1 2 4
M  V30 4 1 3 5
M  V30 5 2 4 6
M  V30 6 2 5 7
M  V30 7 1 5 8
M  V30 8 1 7 9
M  V30 9 1 9 10
M  V30 10 1 10 11
M  V30 11 2 11 12
M  V30 12 1 11 13
M  V30 13 1 13 14
M  V30 14 1 14 15
M  V30 15 1 15 16
M  V30 16 1 16 17
M  V30 17 1 17 18
M  V30 18 1 18 19
M  V30 19 1 19 20
M  V30 20 1 6 7
M  V30 21 1 3 21
M  V30 22 1 4 22
M  V30 23 1 6 23
M  V30 24 1 8 24
M  V30 25 1 8 25
M  V30 26 1 8 26
M  V30 27 1 10 27
M  V30 28 1 10 28
M  V30 29 1 14 29
M  V30 30 1 14 30
M  V30 31 1 15 31
M  V30 32 1 15 32
M  V30 33 1 17 33
M  V30 34 1 17 34
M  V30 35 1 18 35
M  V30 36 1 18 36
M  V30 37 1 19 37
M  V30 38 1 19 38
M  V30 39 1 20 39
M  V30 40 1 20 40
M  V30 41 1 20 41
M  V30 END BOND
M  V30 END CTAB
M  END
>  <Column 1>
2399

>  <level_0>
2581

>  <index>
2581

>  <Unnamed: 0>
2581

>  <NO.>
2593

>  <Name>
cgs-19755

>  <IUPAC_name>
2-butoxyethyl 2-(4-chloro-2-methylphenoxy)acetate

>  <SMILES>
CCCCOCCOC(=O)COc1ccc(Cl)cc1C

>  <CID>
62736

>  <logBB>


>  <BBB+/BBB->
BBB+

>  <Inchi>
InChI=1S/C15H21ClO4/c1-3-4-7-18-8-9-19-15(17)11-20-14-6-5-13(16)10-12(14)2/h5-6-10H-3-4-7-9-11H2-1-2H3

>  <threshold>
-1

>  <reference>
R7|

>  <group>
B

>  <Class>
1

>  <ABC>
14.43

>  <ABCGG>
11.94

>  <nAcid>
0

>  <nBase>
0

>  <nAromAtom>
6

>  <nAromBond>
6

>  <nAtom>
41

>  <nHeavyAtom>
20

>  <nSpiro>
0

>  <nBridgehead>
0

>  <nHetero>
5

>  <nN>
0

>  <nO>
4

>  <nF>
0

>  <BalabanJ>
2

>  <BertzCT>
420.33

>  <nBonds>
41

>  <nBondsO>
20

>  <nBondsS>
34

>  <nBondsD>
1

>  <nBondsT>
0

>  <nBondsA>
6

>  <nBondsM>
7

>  <nBondsKS>
37

>  <nBondsKD>
4

>  <RNCG>
0.25

>  <RPCG>
0.18

>  <FCSP3>
0.53

>  <SZ>
26.67

>  <Sm>
25.04

>  <Sv>
24.64

>  <Sse>
41.41

>  <Sp>
26.61

>  <Si>
46.35

>  <MZ>
0.65

>  <Mm>
0.61

>  <Mv>
0.6

>  <Mse>
1.01

>  <Mp>
0.65

>  <Mi>
1.13

>  <NsCH3>
2

>  <NdCH2>
0

>  <NssCH2>
6

>  <NtCH>
0

>  <NdsCH>
0

>  <NaaCH>
3

>  <NsssCH>
0

>  <NddC>
0

>  <NtsC>
0

>  <NdssC>
1

>  <NaasC>
3

>  <NaaaC>
0

>  <NssssC>
0

>  <NsNH3>
0

>  <NsNH2>
0

>  <NssNH2>
0

>  <NdNH>
0

>  <NssNH>
0

>  <NaaNH>
0

>  <NtN>
0

>  <NsssNH>
0

>  <NdsN>
0

>  <NaaN>
0

>  <NsssN>
0

>  <NddsN>
0

>  <NaasN>
0

>  <NssssN>
0

>  <NsOH>
0

>  <NdO>
1

>  <NssO>
3

>  <NaaO>
0

>  <NsF>
0

>  <NsSiH3>
0

>  <NssSiH2>
0

>  <NsssSiH>
0

>  <NssssSi>
0

>  <NsPH2>
0

>  <NssPH>
0

>  <NsssP>
0

>  <NdsssP>
0

>  <NsssssP>
0

>  <NsSH>
0

>  <NdS>
0

>  <NssS>
0

>  <NaaS>
0

>  <NdssS>
0

>  <NddssS>
0

>  <NsCl>
1

>  <NsBr>
0

>  <NsI>
0

>  <fragCpx>
20.05

>  <fMF>
0.15

>  <nHBAcc>
4

>  <nHBDon>
0

>  <Kier1>
18.05

>  <Kier2>
10.69

>  <Lipinski>
1

>  <GhoseFilter>
1

>  <FilterItLogS>
-4.92

>  <VMcGowan>
229.87

>  <LabuteASA>
124.52

>  <PEOE_VSA1>
14.21

>  <PEOE_VSA2>
0

>  <PEOE_VSA3>
4.79

>  <PEOE_VSA4>
0

>  <PEOE_VSA5>
0

>  <PEOE_VSA6>
24.95

>  <PEOE_VSA7>
37.11

>  <PEOE_VSA8>
11.63

>  <PEOE_VSA9>
6.61

>  <PEOE_VSA10>
12.36

>  <PEOE_VSA11>
6.61

>  <PEOE_VSA12>
0

>  <PEOE_VSA13>
0

>  <SMR_VSA1>
19.01

>  <SMR_VSA2>
0

>  <SMR_VSA3>
0

>  <SMR_VSA4>
0

>  <SMR_VSA5>
26.69

>  <SMR_VSA6>
26.43

>  <SMR_VSA7>
28.79

>  <SMR_VSA8>
0

>  <SMR_VSA9>
5.75

>  <SlogP_VSA1>
4.74

>  <SlogP_VSA2>
32.4

>  <SlogP_VSA3>
14.27

>  <SlogP_VSA4>
6.92

>  <SlogP_VSA5>
25.33

>  <SlogP_VSA6>
18.2

>  <SlogP_VSA7>
5.02

>  <SlogP_VSA8>
0

>  <SlogP_VSA9>
0

>  <SlogP_VSA10>
0

>  <SlogP_VSA11>
5.75

>  <EState_VSA1>
5.97

>  <EState_VSA2>
13.21

>  <EState_VSA3>
23.99

>  <EState_VSA4>
18.41

>  <EState_VSA5>
0

>  <EState_VSA6>
18.2

>  <EState_VSA7>
6.92

>  <EState_VSA8>
6.92

>  <EState_VSA9>
25.81

>  <EState_VSA10>
4.79

>  <VSA_EState1>
15.65

>  <VSA_EState2>
11.45

>  <VSA_EState3>
0.64

>  <VSA_EState4>
0.88

>  <VSA_EState5>
0.23

>  <VSA_EState6>
5.24

>  <VSA_EState7>
2.11

>  <VSA_EState8>
5.23

>  <VSA_EState9>
0

>  <apol>
44.44

>  <bpol>
27.65

>  <nRing>
1

>  <nHRing>
0

>  <naRing>
1

>  <naHRing>
0

>  <nARing 2>
0

>  <nAHRing 2>
0

>  <nFRing>
0

>  <nFHRing>
0

>  <nFaRing>
0

>  <nFaHRing>
0

>  <nFARing 2>
0

>  <nFAHRing 2>
0

>  <nRot>
9

>  <SLogP>
3.39

>  <SMR>
78.37

>  <TopoPSA(NO)>
44.76

>  <TopoPSA>
44.76

>  <JGI1>
0.18

>  <JGI2>
0.07

>  <JGI3>
0.04

>  <JGI4>
0.04

>  <JGI5>
0.02

>  <Diameter>
15

>  <Radius>
8

>  <TMWC10>
108.62

>  <TSRW10>
52.01

>  <MW>
300.11

>  <AMW>
7.32

>  <WPath>
1071

>  <WPol>
23

>  <Zagreb1>
88

>  <Zagreb2>
94

>  <mZagreb2>
4.78

>  <yes>


>  <nAR-cont>
0.336376

>  <nHA-cont>
0.999629945

>  <MWHBN>
0.23089778

>  <MWHBN-cont>
0.985855609

>  <TPSA-cont>
0.687547406

>  <pka_cont>
0.97

>  <yes.1>


>  <BBB_SCORE>
4.67488417

>  <MMFF94 Energy>
52.217

$$$$
Compound 1972
Actelion Java MolfileCreator 2.0

  0  0  0  0  0  0              0 V3000
M  V30 BEGIN CTAB
M  V30 COUNTS 37 39 0 0 0
M  V30 BEGIN ATOM
M  V30 1 N 3.7335 1.6668 2.9382 0
M  V30 2 N 3.7947 1.9141 1.6158 0
M  V30 3 C 2.5514 1.0609 3.0991 0
M  V30 4 C 2.6931 1.4751 0.9477 0
M  V30 5 C 1.8627 0.9113 1.8834 0
M  V30 6 C 2.4445 1.5647 -0.5053 0
M  V30 7 C 0.5396 0.3241 1.5524 0
M  V30 8 C 0.9424 1.2972 -0.7923 0 CFG=2
M  V30 9 C 0.3838 0.0656 0.0111 0 CFG=2
M  V30 10 C 0.7475 1.1265 -2.2996 0
M  V30 11 N -1.0324 -0.2382 -0.369 0
M  V30 12 C -0.7017 0.8057 -2.608 0
M  V30 13 C -1.1665 -0.418 -1.8257 0
M  V30 14 C -1.5529 -1.418 0.359 0
M  V30 15 C -3.0337 -1.7319 0.0918 0
M  V30 16 C -3.5445 -2.8214 1.0254 0
M  V30 17 H 4.6178 2.3808 1.2493 0
M  V30 18 H 2.248 0.7578 4.093 0
M  V30 19 H 2.7261 2.5528 -0.8874 0
M  V30 20 H 3.0671 0.821 -1.0177 0
M  V30 21 H 0.4307 -0.6137 2.1083 0
M  V30 22 H -0.2442 1.0119 1.8942 0
M  V30 23 H 0.3735 2.1842 -0.4733 0
M  V30 24 H 1.007 -0.8045 -0.246 0
M  V30 25 H 1.3871 0.3179 -2.6753 0
M  V30 26 H 1.0437 2.041 -2.8268 0
M  V30 27 H -1.3351 1.6675 -2.3622 0
M  V30 28 H -0.8172 0.6217 -3.6823 0
M  V30 29 H -2.2158 -0.5697 -2.0985 0
M  V30 30 H -0.6101 -1.3043 -2.1575 0
M  V30 31 H -1.4761 -1.2391 1.4361 0
M  V30 32 H -0.9448 -2.3037 0.1333 0
M  V30 33 H -3.6398 -0.8288 0.2309 0
M  V30 34 H -3.18 -2.0762 -0.9372 0
M  V30 35 H -4.5959 -3.0394 0.8131 0
M  V30 36 H -2.9725 -3.746 0.8981 0
M  V30 37 H -3.4679 -2.5102 2.0723 0
M  V30 END ATOM
M  V30 BEGIN BOND
M  V30 1 1 1 2
M  V30 2 2 1 3
M  V30 3 1 2 4
M  V30 4 1 3 5
M  V30 5 1 4 6
M  V30 6 1 5 7
M  V30 7 1 6 8
M  V30 8 1 7 9
M  V30 9 1 8 10
M  V30 10 1 9 11
M  V30 11 1 10 12
M  V30 12 1 11 13
M  V30 13 1 11 14
M  V30 14 1 14 15
M  V30 15 1 15 16
M  V30 16 2 4 5
M  V30 17 1 8 9
M  V30 18 1 12 13
M  V30 19 1 2 17
M  V30 20 1 3 18
M  V30 21 1 6 19
M  V30 22 1 6 20
M  V30 23 1 7 21
M  V30 24 1 7 22
M  V30 25 1 8 23
M  V30 26 1 9 24
M  V30 27 1 10 25
M  V30 28 1 10 26
M  V30 29 1 12 27
M  V30 30 1 12 28
M  V30 31 1 13 29
M  V30 32 1 13 30
M  V30 33 1 14 31
M  V30 34 1 14 32
M  V30 35 1 15 33
M  V30 36 1 15 34
M  V30 37 1 16 35
M  V30 38 1 16 36
M  V30 39 1 16 37
M  V30 END BOND
M  V30 BEGIN COLLECTION
M  V30 MDLV30/STEABS ATOMS=(2 8 9)
M  V30 END COLLECTION
M  V30 END CTAB
M  END
>  <Column 1>
2400

>  <level_0>
2582

>  <index>
2582

>  <Unnamed: 0>
2582

>  <NO.>
2594

>  <Name>
quinpirole

>  <IUPAC_name>
(4ar-8ar)-5-propyl-1-4-4a-6-7-8-8a-9-octahydropyrazolo[3-4-g]quinoline

>  <SMILES>
CCCN1CCC[C@@H]2Cc3[nH]ncc3C[C@H]21

>  <CID>
54562

>  <logBB>


>  <BBB+/BBB->
BBB+

>  <Inchi>
InChI=1S/C13H21N3/c1-2-5-16-6-3-4-10-7-12-11(8-13(10)16)9-14-15-12/h9-10-13H-2-8H2-1H3-(H-14-15)/t10--13-/m1/s1

>  <threshold>
-1

>  <reference>
R7|R29|

>  <group>
B

>  <Class>
1

>  <ABC>
12.61

>  <ABCGG>
10.67

>  <nAcid>
0

>  <nBase>
1

>  <nAromAtom>
5

>  <nAromBond>
5

>  <nAtom>
37

>  <nHeavyAtom>
16

>  <nSpiro>
0

>  <nBridgehead>
0

>  <nHetero>
3

>  <nN>
3

>  <nO>
0

>  <nF>
0

>  <BalabanJ>
1.69

>  <BertzCT>
355.81

>  <nBonds>
39

>  <nBondsO>
18

>  <nBondsS>
34

>  <nBondsD>
0

>  <nBondsT>
0

>  <nBondsA>
5

>  <nBondsM>
5

>  <nBondsKS>
37

>  <nBondsKD>
2

>  <RNCG>
0.3

>  <RPCG>
0.19

>  <FCSP3>
0.77

>  <SZ>
20

>  <Sm>
18.26

>  <Sv>
20.96

>  <Sse>
36.31

>  <Sp>
23.36

>  <Si>
42.23

>  <MZ>
0.54

>  <Mm>
0.49

>  <Mv>
0.57

>  <Mse>
0.98

>  <Mp>
0.63

>  <Mi>
1.14

>  <NsCH3>
1

>  <NdCH2>
0

>  <NssCH2>
7

>  <NtCH>
0

>  <NdsCH>
0

>  <NaaCH>
1

>  <NsssCH>
2

>  <NddC>
0

>  <NtsC>
0

>  <NdssC>
0

>  <NaasC>
2

>  <NaaaC>
0

>  <NssssC>
0

>  <NsNH3>
0

>  <NsNH2>
0

>  <NssNH2>
0

>  <NdNH>
0

>  <NssNH>
0

>  <NaaNH>
1

>  <NtN>
0

>  <NsssNH>
0

>  <NdsN>
0

>  <NaaN>
1

>  <NsssN>
1

>  <NddsN>
0

>  <NaasN>
0

>  <NssssN>
0

>  <NsOH>
0

>  <NdO>
0

>  <NssO>
0

>  <NaaO>
0

>  <NsF>
0

>  <NsSiH3>
0

>  <NssSiH2>
0

>  <NsssSiH>
0

>  <NssssSi>
0

>  <NsPH2>
0

>  <NssPH>
0

>  <NsssP>
0

>  <NdsssP>
0

>  <NsssssP>
0

>  <NsSH>
0

>  <NdS>
0

>  <NssS>
0

>  <NaaS>
0

>  <NdssS>
0

>  <NddssS>
0

>  <NsCl>
0

>  <NsBr>
0

>  <NsI>
0

>  <fragCpx>
84.03

>  <fMF>
0.35

>  <nHBAcc>
2

>  <nHBDon>
1

>  <Kier1>
11.11

>  <Kier2>
4.7

>  <Lipinski>
1

>  <GhoseFilter>
1

>  <FilterItLogS>
-3.1

>  <VMcGowan>
182.79

>  <LabuteASA>
97.23

>  <PEOE_VSA1>
0

>  <PEOE_VSA2>
10

>  <PEOE_VSA3>
0

>  <PEOE_VSA4>
5.1

>  <PEOE_VSA5>
0

>  <PEOE_VSA6>
6.92

>  <PEOE_VSA7>
56.67

>  <PEOE_VSA8>
11.74

>  <PEOE_VSA9>
6.2

>  <PEOE_VSA10>
0

>  <PEOE_VSA11>
0

>  <PEOE_VSA12>
0

>  <PEOE_VSA13>
0

>  <SMR_VSA1>
0

>  <SMR_VSA2>
0

>  <SMR_VSA3>
15.1

>  <SMR_VSA4>
5.92

>  <SMR_VSA5>
45.07

>  <SMR_VSA6>
13.09

>  <SMR_VSA7>
17.45

>  <SMR_VSA8>
0

>  <SMR_VSA9>
0

>  <SlogP_VSA1>
0

>  <SlogP_VSA2>
34.23

>  <SlogP_VSA3>
12.84

>  <SlogP_VSA4>
5.92

>  <SlogP_VSA5>
37.44

>  <SlogP_VSA6>
6.2

>  <SlogP_VSA7>
0

>  <SlogP_VSA8>
0

>  <SlogP_VSA9>
0

>  <SlogP_VSA10>
0

>  <SlogP_VSA11>
0

>  <EState_VSA1>
0

>  <EState_VSA2>
0

>  <EState_VSA3>
0

>  <EState_VSA4>
11.96

>  <EState_VSA5>
56.45

>  <EState_VSA6>
0

>  <EState_VSA7>
6.2

>  <EState_VSA8>
22.02

>  <EState_VSA9>
0

>  <EState_VSA10>
0

>  <VSA_EState1>
0

>  <VSA_EState2>
2.71

>  <VSA_EState3>
7.36

>  <VSA_EState4>
2.86

>  <VSA_EState5>
0.87

>  <VSA_EState6>
0.79

>  <VSA_EState7>
8.54

>  <VSA_EState8>
4.87

>  <VSA_EState9>
0

>  <apol>
39.01

>  <bpol>
23.35

>  <nRing>
3

>  <nHRing>
2

>  <naRing>
1

>  <naHRing>
1

>  <nARing 2>
2

>  <nAHRing 2>
1

>  <nFRing>
1

>  <nFHRing>
1

>  <nFaRing>
0

>  <nFaHRing>
0

>  <nFARing 2>
1

>  <nFAHRing 2>
1

>  <nRot>
2

>  <SLogP>
2

>  <SMR>
64.37

>  <TopoPSA(NO)>
31.92

>  <TopoPSA>
31.92

>  <JGI1>
0.14

>  <JGI2>
0.07

>  <JGI3>
0.04

>  <JGI4>
0.05

>  <JGI5>
0.02

>  <Diameter>
8

>  <Radius>
4

>  <TMWC10>
106.12

>  <TSRW10>
62.41

>  <MW>
219.17

>  <AMW>
5.92

>  <WPath>
410

>  <WPol>
24

>  <Zagreb1>
86

>  <Zagreb2>
103

>  <mZagreb2>
3.58

>  <yes>


>  <nAR-cont>
1

>  <nHA-cont>
0.954961865

>  <MWHBN>
0.202642578

>  <MWHBN-cont>
0.999945368

>  <TPSA-cont>
0.777178579

>  <pka_cont>
0.97

>  <yes.1>


>  <BBB_SCORE>
5.494237075

>  <MMFF94 Energy>
29.444

$$$$
Compound 1973
Actelion Java MolfileCreator 2.0

  0  0  0  0  0  0              0 V3000
M  V30 BEGIN CTAB
M  V30 COUNTS 42 43 0 0 0
M  V30 BEGIN ATOM
M  V30 1 Cl -5.806 0.8048 -2.1742 0
M  V30 2 C -4.8297 0.7202 -0.7503 0
M  V30 3 C -3.4315 0.8556 -0.8001 0
M  V30 4 C -5.4777 0.4862 0.461 0
M  V30 5 O -2.8194 1.0005 -2.0213 0
M  V30 6 C -2.6632 0.7106 0.3746 0
M  V30 7 C -4.7262 0.3558 1.6227 0
M  V30 8 C -2.7335 2.3787 -2.3961 0
M  V30 9 C -3.3289 0.4556 1.5874 0
M  V30 10 C -1.1733 0.844 0.3127 0
M  V30 11 Cl -5.5403 0.0531 3.115 0
M  V30 12 O -2.6174 0.2951 2.7534 0
M  V30 13 O -0.6338 1.6104 -0.4771 0
M  V30 14 N -0.4517 0.0676 1.1919 0
M  V30 15 C 0.999 0.0888 1.2354 0
M  V30 16 C 1.6505 -0.644 0.0461 0 CFG=1
M  V30 17 N 3.1254 -0.7441 0.1235 0
M  V30 18 C 1.2347 -2.1165 -0.0073 0
M  V30 19 C 3.4749 -1.7804 -0.8559 0
M  V30 20 C 3.7851 0.5374 -0.1574 0
M  V30 21 C 2.3881 -2.8317 -0.6956 0
M  V30 22 C 5.301 0.4555 -0.0102 0
M  V30 23 H -6.56 0.3898 0.4933 0
M  V30 24 H -3.623 2.6667 -2.964 0
M  V30 25 H -1.8634 2.4952 -3.0489 0
M  V30 26 H -2.6123 3.0503 -1.5382 0
M  V30 27 H -3.2573 0.2108 3.4882 0
M  V30 28 H -0.9537 -0.4468 1.9076 0
M  V30 29 H 1.313 1.1377 1.2618 0
M  V30 30 H 1.2964 -0.3714 2.1845 0
M  V30 31 H 1.3539 -0.1652 -0.8976 0
M  V30 32 H 0.2965 -2.2518 -0.5559 0
M  V30 33 H 1.0962 -2.5347 0.9974 0
M  V30 34 H 4.4637 -2.21 -0.6676 0
M  V30 35 H 3.4554 -1.3899 -1.8816 0
M  V30 36 H 3.5346 0.904 -1.1607 0
M  V30 37 H 3.4369 1.2926 0.5557 0
M  V30 38 H 2.0859 -3.2379 -1.6664 0
M  V30 39 H 2.7342 -3.6662 -0.0753 0
M  V30 40 H 5.7409 1.4519 -0.1233 0
M  V30 41 H 5.7491 -0.1907 -0.771 0
M  V30 42 H 5.5817 0.0754 0.9776 0
M  V30 END ATOM
M  V30 BEGIN BOND
M  V30 1 1 1 2
M  V30 2 2 2 3
M  V30 3 1 2 4
M  V30 4 1 3 5
M  V30 5 1 3 6
M  V30 6 2 4 7
M  V30 7 1 5 8
M  V30 8 2 6 9
M  V30 9 1 6 10
M  V30 10 1 7 11
M  V30 11 1 9 12
M  V30 12 2 10 13
M  V30 13 1 10 14
M  V30 14 1 14 15
M  V30 15 1 15 16
M  V30 16 1 16 17
M  V30 17 1 16 18
M  V30 18 1 17 19
M  V30 19 1 17 20
M  V30 20 1 18 21
M  V30 21 1 20 22
M  V30 22 1 7 9
M  V30 23 1 19 21
M  V30 24 1 4 23
M  V30 25 1 8 24
M  V30 26 1 8 25
M  V30 27 1 8 26
M  V30 28 1 12 27
M  V30 29 1 14 28
M  V30 30 1 15 29
M  V30 31 1 15 30
M  V30 32 1 16 31
M  V30 33 1 18 32
M  V30 34 1 18 33
M  V30 35 1 19 34
M  V30 36 1 19 35
M  V30 37 1 20 36
M  V30 38 1 20 37
M  V30 39 1 21 38
M  V30 40 1 21 39
M  V30 41 1 22 40
M  V30 42 1 22 41
M  V30 43 1 22 42
M  V30 END BOND
M  V30 BEGIN COLLECTION
M  V30 MDLV30/STEABS ATOMS=(1 16)
M  V30 END COLLECTION
M  V30 END CTAB
M  END
>  <Column 1>
2401

>  <level_0>
2583

>  <index>
2583

>  <Unnamed: 0>
2583

>  <NO.>
2595

>  <Name>
raclopride

>  <IUPAC_name>
3-5-dichloro-n-[[(2s)-1-ethylpyrrolidin-2-yl]methyl]-2-hydroxy-6-methoxybenzamide

>  <SMILES>
CCN1CCC[C@H]1CNC(=O)c1c(O)c(Cl)cc(Cl)c1OC

>  <CID>
3033769

>  <logBB>


>  <BBB+/BBB->
BBB+

>  <Inchi>
InChI=1S/C15H20Cl2N2O3/c1-3-19-6-4-5-9(19)8-18-15(21)12-13(20)10(16)7-11(17)14(12)22-2/h7-9-20H-3-6-8H2-1-2H3-(H-18-21)/t9-/m0/s1

>  <threshold>
-1

>  <reference>
R7|R29|

>  <group>
B

>  <Class>
1

>  <ABC>
16.46

>  <ABCGG>
15.16

>  <nAcid>
0

>  <nBase>
1

>  <nAromAtom>
6

>  <nAromBond>
6

>  <nAtom>
42

>  <nHeavyAtom>
22

>  <nSpiro>
0

>  <nBridgehead>
0

>  <nHetero>
7

>  <nN>
2

>  <nO>
3

>  <nF>
0

>  <BalabanJ>
1.95

>  <BertzCT>
566.21

>  <nBonds>
43

>  <nBondsO>
23

>  <nBondsS>
36

>  <nBondsD>
1

>  <nBondsT>
0

>  <nBondsA>
6

>  <nBondsM>
7

>  <nBondsKS>
39

>  <nBondsKD>
4

>  <RNCG>
0.23

>  <RPCG>
0.13

>  <FCSP3>
0.53

>  <SZ>
30.33

>  <Sm>
28.91

>  <Sv>
26.26

>  <Sse>
42.73

>  <Sp>
28.35

>  <Si>
47.67

>  <MZ>
0.72

>  <Mm>
0.69

>  <Mv>
0.63

>  <Mse>
1.02

>  <Mp>
0.68

>  <Mi>
1.13

>  <NsCH3>
2

>  <NdCH2>
0

>  <NssCH2>
5

>  <NtCH>
0

>  <NdsCH>
0

>  <NaaCH>
1

>  <NsssCH>
1

>  <NddC>
0

>  <NtsC>
0

>  <NdssC>
1

>  <NaasC>
5

>  <NaaaC>
0

>  <NssssC>
0

>  <NsNH3>
0

>  <NsNH2>
0

>  <NssNH2>
0

>  <NdNH>
0

>  <NssNH>
1

>  <NaaNH>
0

>  <NtN>
0

>  <NsssNH>
0

>  <NdsN>
0

>  <NaaN>
0

>  <NsssN>
1

>  <NddsN>
0

>  <NaasN>
0

>  <NssssN>
0

>  <NsOH>
1

>  <NdO>
1

>  <NssO>
1

>  <NaaO>
0

>  <NsF>
0

>  <NsSiH3>
0

>  <NssSiH2>
0

>  <NsssSiH>
0

>  <NssssSi>
0

>  <NsPH2>
0

>  <NssPH>
0

>  <NsssP>
0

>  <NdsssP>
0

>  <NsssssP>
0

>  <NsSH>
0

>  <NdS>
0

>  <NssS>
0

>  <NaaS>
0

>  <NdssS>
0

>  <NddssS>
0

>  <NsCl>
2

>  <NsBr>
0

>  <NsI>
0

>  <fragCpx>
67.07

>  <fMF>
0.33

>  <nHBAcc>
4

>  <nHBDon>
2

>  <Kier1>
18.34

>  <Kier2>
8.2

>  <Lipinski>
1

>  <GhoseFilter>
1

>  <FilterItLogS>
-4.41

>  <VMcGowan>
245.34

>  <LabuteASA>
139.7

>  <PEOE_VSA1>
15.16

>  <PEOE_VSA2>
9.69

>  <PEOE_VSA3>
0

>  <PEOE_VSA4>
0

>  <PEOE_VSA5>
0

>  <PEOE_VSA6>
30.13

>  <PEOE_VSA7>
32

>  <PEOE_VSA8>
12.59

>  <PEOE_VSA9>
17.16

>  <PEOE_VSA10>
5.56

>  <PEOE_VSA11>
11.5

>  <PEOE_VSA12>
0

>  <PEOE_VSA13>
5.91

>  <SMR_VSA1>
14.64

>  <SMR_VSA2>
0

>  <SMR_VSA3>
10.22

>  <SMR_VSA4>
0

>  <SMR_VSA5>
25.81

>  <SMR_VSA6>
26.74

>  <SMR_VSA7>
21.68

>  <SMR_VSA8>
0

>  <SMR_VSA9>
11.5

>  <SlogP_VSA1>
10.05

>  <SlogP_VSA2>
48.7

>  <SlogP_VSA3>
0

>  <SlogP_VSA4>
0

>  <SlogP_VSA5>
30.12

>  <SlogP_VSA6>
6.07

>  <SlogP_VSA7>
10.05

>  <SlogP_VSA8>
0

>  <SlogP_VSA9>
0

>  <SlogP_VSA10>
0

>  <SlogP_VSA11>
11.5

>  <EState_VSA1>
5.91

>  <EState_VSA2>
27.11

>  <EState_VSA3>
12.59

>  <EState_VSA4>
25.93

>  <EState_VSA5>
13.18

>  <EState_VSA6>
0

>  <EState_VSA7>
0

>  <EState_VSA8>
17.14

>  <EState_VSA9>
27.94

>  <EState_VSA10>
9.9

>  <VSA_EState1>
5.13

>  <VSA_EState2>
14.74

>  <VSA_EState3>
13.1

>  <VSA_EState4>
-0.03

>  <VSA_EState5>
-0.64

>  <VSA_EState6>
1.67

>  <VSA_EState7>
2.18

>  <VSA_EState8>
4.62

>  <VSA_EState9>
1.39

>  <apol>
47.35

>  <bpol>
25.97

>  <nRing>
2

>  <nHRing>
1

>  <naRing>
1

>  <naHRing>
0

>  <nARing 2>
1

>  <nAHRing 2>
1

>  <nFRing>
0

>  <nFHRing>
0

>  <nFaRing>
0

>  <nFaHRing>
0

>  <nFARing 2>
0

>  <nFAHRing 2>
0

>  <nRot>
5

>  <SLogP>
2.92

>  <SMR>
87.28

>  <TopoPSA(NO)>
61.8

>  <TopoPSA>
61.8

>  <JGI1>
0.2

>  <JGI2>
0.1

>  <JGI3>
0.06

>  <JGI4>
0.05

>  <JGI5>
0.02

>  <Diameter>
10

>  <Radius>
5

>  <TMWC10>
118.8

>  <TSRW10>
69.51

>  <MW>
346.09

>  <AMW>
8.24

>  <WPath>
1074

>  <WPol>
35

>  <Zagreb1>
110

>  <Zagreb2>
130

>  <mZagreb2>
5.08

>  <yes>


>  <nAR-cont>
0.816016

>  <nHA-cont>
0.983774276

>  <MWHBN>
0.322520055

>  <MWHBN-cont>
0.768658371

>  <TPSA-cont>
0.568597625

>  <pka_cont>
0.97

>  <yes.1>


>  <BBB_SCORE>
4.574973081

>  <MMFF94 Energy>
48.579

$$$$
Compound 1974
Actelion Java MolfileCreator 2.0

  0  0  0  0  0  0              0 V3000
M  V30 BEGIN CTAB
M  V30 COUNTS 42 43 0 0 0
M  V30 BEGIN ATOM
M  V30 1 O 1.1774 0.0 1.0989 0
M  V30 2 C 2.3851 0.056 0.4688 0
M  V30 3 C 0.7777 1.2847 1.334 0
M  V30 4 C 3.1269 -1.0522 0.0424 0
M  V30 5 C 2.7754 1.3796 0.3048 0
M  V30 6 C 1.7377 2.1637 0.8719 0
M  V30 7 C -0.539 1.4615 2.0127 0 CFG=1
M  V30 8 C 4.3423 -0.749 -0.5993 0
M  V30 9 C 2.6663 -2.4715 0.2172 0
M  V30 10 C 3.9993 1.6478 -0.3302 0
M  V30 11 O -0.9285 2.8312 1.8457 0
M  V30 12 C -1.6556 0.558 1.4293 0
M  V30 13 C 4.7719 0.5696 -0.7792 0
M  V30 14 C 1.7571 -2.9111 -0.9202 0
M  V30 15 N -2.008 0.9805 0.0538 0
M  V30 16 C -3.0687 0.1902 -0.603 0
M  V30 17 C -2.6294 -1.2635 -0.846 0
M  V30 18 C -3.3098 0.861 -1.9694 0
M  V30 19 C -4.3864 0.2167 0.1877 0
M  V30 20 H 1.6836 3.2419 0.9352 0
M  V30 21 H -0.4247 1.2713 3.0851 0
M  V30 22 H 4.9709 -1.5586 -0.9675 0
M  V30 23 H 2.1332 -2.568 1.1706 0
M  V30 24 H 3.533 -3.1403 0.28 0
M  V30 25 H 4.3399 2.6685 -0.4752 0
M  V30 26 H -1.4519 2.8291 1.0173 0
M  V30 27 H -1.3457 -0.4909 1.4633 0
M  V30 28 H -2.5348 0.6821 2.0707 0
M  V30 29 H 5.7202 0.7622 -1.2767 0
M  V30 30 H 1.4361 -3.9466 -0.7696 0
M  V30 31 H 2.2718 -2.8515 -1.8852 0
M  V30 32 H 0.8609 -2.2838 -0.9785 0
M  V30 33 H -1.1592 0.9146 -0.5171 0
M  V30 34 H -2.5183 -1.8209 0.0899 0
M  V30 35 H -3.3691 -1.7987 -1.453 0
M  V30 36 H -1.6733 -1.3077 -1.3803 0
M  V30 37 H -2.4031 0.8552 -2.5862 0
M  V30 38 H -4.0926 0.34 -2.5331 0
M  V30 39 H -3.6278 1.9041 -1.8523 0
M  V30 40 H -4.3108 -0.3361 1.1302 0
M  V30 41 H -4.6909 1.2438 0.4202 0
M  V30 42 H -5.1978 -0.2435 -0.3884 0
M  V30 END ATOM
M  V30 BEGIN BOND
M  V30 1 1 1 2
M  V30 2 1 1 3
M  V30 3 2 2 4
M  V30 4 1 2 5
M  V30 5 2 3 6
M  V30 6 1 3 7
M  V30 7 1 4 8
M  V30 8 1 4 9
M  V30 9 2 5 10
M  V30 10 1 7 11
M  V30 11 1 7 12
M  V30 12 2 8 13
M  V30 13 1 9 14
M  V30 14 1 12 15
M  V30 15 1 15 16
M  V30 16 1 16 17
M  V30 17 1 16 18
M  V30 18 1 16 19
M  V30 19 1 5 6
M  V30 20 1 10 13
M  V30 21 1 6 20
M  V30 22 1 7 21
M  V30 23 1 8 22
M  V30 24 1 9 23
M  V30 25 1 9 24
M  V30 26 1 10 25
M  V30 27 1 11 26
M  V30 28 1 12 27
M  V30 29 1 12 28
M  V30 30 1 13 29
M  V30 31 1 14 30
M  V30 32 1 14 31
M  V30 33 1 14 32
M  V30 34 1 15 33
M  V30 35 1 17 34
M  V30 36 1 17 35
M  V30 37 1 17 36
M  V30 38 1 18 37
M  V30 39 1 18 38
M  V30 40 1 18 39
M  V30 41 1 19 40
M  V30 42 1 19 41
M  V30 43 1 19 42
M  V30 END BOND
M  V30 BEGIN COLLECTION
M  V30 MDLV30/STERAC1 ATOMS=(1 7)
M  V30 END COLLECTION
M  V30 END CTAB
M  END
>  <Column 1>
2403

>  <level_0>
2585

>  <index>
2585

>  <Unnamed: 0>
2585

>  <NO.>
2597

>  <Name>
bufuralol

>  <IUPAC_name>
2-(tert-butylamino)-1-(7-ethyl-1-benzofuran-2-yl)ethanol

>  <SMILES>
CCc1cccc2cc(C(O)CNC(C)(C)C)oc12

>  <CID>
71733

>  <logBB>


>  <BBB+/BBB->
BBB-

>  <Inchi>
InChI=1S/C16H23NO2/c1-5-11-7-6-8-12-9-14(19-15(11)12)13(18)10-17-16(2-3)4/h6-9-13-17-18H-5-10H2-1-4H3

>  <threshold>
-1

>  <reference>
R7|R29|

>  <group>
B

>  <Class>
-1

>  <ABC>
14.61

>  <ABCGG>
12.75

>  <nAcid>
0

>  <nBase>
1

>  <nAromAtom>
9

>  <nAromBond>
10

>  <nAtom>
42

>  <nHeavyAtom>
19

>  <nSpiro>
0

>  <nBridgehead>
0

>  <nHetero>
3

>  <nN>
1

>  <nO>
2

>  <nF>
0

>  <BalabanJ>
1.86

>  <BertzCT>
551.36

>  <nBonds>
43

>  <nBondsO>
20

>  <nBondsS>
33

>  <nBondsD>
0

>  <nBondsT>
0

>  <nBondsA>
10

>  <nBondsM>
10

>  <nBondsKS>
39

>  <nBondsKD>
4

>  <RNCG>
0.29

>  <RPCG>
0.14

>  <FCSP3>
0.5

>  <SZ>
23.67

>  <Sm>
21.76

>  <Sv>
24.42

>  <Sse>
41.53

>  <Sp>
26.8

>  <Si>
47.49

>  <MZ>
0.56

>  <Mm>
0.52

>  <Mv>
0.58

>  <Mse>
0.99

>  <Mp>
0.64

>  <Mi>
1.13

>  <NsCH3>
4

>  <NdCH2>
0

>  <NssCH2>
2

>  <NtCH>
0

>  <NdsCH>
0

>  <NaaCH>
4

>  <NsssCH>
1

>  <NddC>
0

>  <NtsC>
0

>  <NdssC>
0

>  <NaasC>
2

>  <NaaaC>
2

>  <NssssC>
1

>  <NsNH3>
0

>  <NsNH2>
0

>  <NssNH2>
0

>  <NdNH>
0

>  <NssNH>
1

>  <NaaNH>
0

>  <NtN>
0

>  <NsssNH>
0

>  <NdsN>
0

>  <NaaN>
0

>  <NsssN>
0

>  <NddsN>
0

>  <NaasN>
0

>  <NssssN>
0

>  <NsOH>
1

>  <NdO>
0

>  <NssO>
0

>  <NaaO>
1

>  <NsF>
0

>  <NsSiH3>
0

>  <NssSiH2>
0

>  <NsssSiH>
0

>  <NssssSi>
0

>  <NsPH2>
0

>  <NssPH>
0

>  <NsssP>
0

>  <NdsssP>
0

>  <NsssssP>
0

>  <NsSH>
0

>  <NdS>
0

>  <NssS>
0

>  <NaaS>
0

>  <NdssS>
0

>  <NddssS>
0

>  <NsCl>
0

>  <NsBr>
0

>  <NsI>
0

>  <fragCpx>
58.03

>  <fMF>
0.21

>  <nHBAcc>
3

>  <nHBDon>
2

>  <Kier1>
15.39

>  <Kier2>
6.19

>  <Lipinski>
1

>  <GhoseFilter>
1

>  <FilterItLogS>
-4.62

>  <VMcGowan>
219.1

>  <LabuteASA>
114.17

>  <PEOE_VSA1>
14.84

>  <PEOE_VSA2>
0

>  <PEOE_VSA3>
0

>  <PEOE_VSA4>
0

>  <PEOE_VSA5>
0

>  <PEOE_VSA6>
25.12

>  <PEOE_VSA7>
38.82

>  <PEOE_VSA8>
17.47

>  <PEOE_VSA9>
0

>  <PEOE_VSA10>
17.45

>  <PEOE_VSA11>
0

>  <PEOE_VSA12>
0

>  <PEOE_VSA13>
0

>  <SMR_VSA1>
9.52

>  <SMR_VSA2>
0

>  <SMR_VSA3>
5.32

>  <SMR_VSA4>
0

>  <SMR_VSA5>
45.76

>  <SMR_VSA6>
6.54

>  <SMR_VSA7>
35.59

>  <SMR_VSA8>
0

>  <SMR_VSA9>
0

>  <SlogP_VSA1>
5.32

>  <SlogP_VSA2>
17.19

>  <SlogP_VSA3>
6.42

>  <SlogP_VSA4>
0

>  <SlogP_VSA5>
45.12

>  <SlogP_VSA6>
28.68

>  <SlogP_VSA7>
0

>  <SlogP_VSA8>
10.97

>  <SlogP_VSA9>
0

>  <SlogP_VSA10>
0

>  <SlogP_VSA11>
0

>  <EState_VSA1>
6.1

>  <EState_VSA2>
5.54

>  <EState_VSA3>
12.31

>  <EState_VSA4>
17.39

>  <EState_VSA5>
5.56

>  <EState_VSA6>
0

>  <EState_VSA7>
18.2

>  <EState_VSA8>
39.08

>  <EState_VSA9>
4.42

>  <EState_VSA10>
5.11

>  <VSA_EState1>
5.83

>  <VSA_EState2>
0

>  <VSA_EState3>
14.53

>  <VSA_EState4>
2.07

>  <VSA_EState5>
0.63

>  <VSA_EState6>
8.05

>  <VSA_EState7>
0.32

>  <VSA_EState8>
8.83

>  <VSA_EState9>
0

>  <apol>
44.76

>  <bpol>
25.38

>  <nRing>
2

>  <nHRing>
1

>  <naRing>
2

>  <naHRing>
1

>  <nARing 2>
0

>  <nAHRing 2>
0

>  <nFRing>
1

>  <nFHRing>
1

>  <nFaRing>
1

>  <nFaHRing>
1

>  <nFARing 2>
0

>  <nFAHRing 2>
0

>  <nRot>
4

>  <SLogP>
3.42

>  <SMR>
78.31

>  <TopoPSA(NO)>
45.4

>  <TopoPSA>
45.4

>  <JGI1>
0.28

>  <JGI2>
0.08

>  <JGI3>
0.05

>  <JGI4>
0.05

>  <JGI5>
0.03

>  <Diameter>
10

>  <Radius>
5

>  <TMWC10>
111.51

>  <TSRW10>
66.27

>  <MW>
261.17

>  <AMW>
6.22

>  <WPath>
741

>  <WPol>
26

>  <Zagreb1>
98

>  <Zagreb2>
112

>  <mZagreb2>
4.13

>  <yes>


>  <nAR-cont>
0.336376

>  <nHA-cont>
0.998649058

>  <MWHBN>
0.309391487

>  <MWHBN-cont>
0.811802378

>  <TPSA-cont>
0.683079808

>  <pka_cont>
0.97

>  <yes.1>


>  <BBB_SCORE>
4.403888242

>  <MMFF94 Energy>
55.823

$$$$
Compound 1975
Actelion Java MolfileCreator 2.0

  0  0  0  0  0  0              0 V3000
M  V30 BEGIN CTAB
M  V30 COUNTS 57 59 0 0 0
M  V30 BEGIN ATOM
M  V30 1 Cl 2.1795 -7.4414 -0.6454 0
M  V30 2 C 2.0769 -6.3448 0.6868 0
M  V30 3 C 2.7784 -6.5457 1.8796 0
M  V30 4 C 1.2528 -5.2226 0.5433 0
M  V30 5 Cl 3.8101 -7.9087 2.1315 0
M  V30 6 C 2.6554 -5.6216 2.9209 0
M  V30 7 C 1.1179 -4.296 1.5887 0
M  V30 8 C 1.8327 -4.5017 2.776 0
M  V30 9 C 0.2422 -3.0735 1.4216 0
M  V30 10 C 0.9719 -1.8555 0.8622 0
M  V30 11 O 2.1136 -1.9419 0.4051 0
M  V30 12 N 0.2901 -0.6397 0.8871 0
M  V30 13 C 1.0228 0.5609 0.4219 0 CFG=2
M  V30 14 C -1.1057 -0.4878 1.2935 0
M  V30 15 C 0.6013 1.8419 1.1462 0
M  V30 16 C 1.1281 0.674 -1.1428 0
M  V30 17 C -0.3186 2.756 0.6015 0
M  V30 18 C 1.1268 2.1025 2.4241 0
M  V30 19 N -0.1304 0.629 -1.9222 0
M  V30 20 C -0.6914 3.9063 1.302 0
M  V30 21 C 0.7568 3.2478 3.1273 0
M  V30 22 C 0.0439 1.2521 -3.2409 0
M  V30 23 C -0.5595 -0.7393 -2.2369 0
M  V30 24 O -1.5728 4.859 0.8702 0
M  V30 25 C -0.1484 4.1452 2.5648 0
M  V30 26 C -1.1849 0.7889 -4.0048 0
M  V30 27 C -1.5623 -0.5411 -3.3662 0
M  V30 28 C -2.1142 4.6937 -0.435 0
M  V30 29 C -3.0346 5.852 -0.771 0
M  V30 30 O -3.3258 6.8125 -0.0777 0
M  V30 31 O -3.5627 5.7353 -2.011 0
M  V30 32 H 0.7209 -5.0645 -0.3926 0
M  V30 33 H 3.204 -5.7647 3.849 0
M  V30 34 H 1.7615 -3.7873 3.5942 0
M  V30 35 H -0.5883 -3.3194 0.7489 0
M  V30 36 H -0.1894 -2.8193 2.3973 0
M  V30 37 H 2.0704 0.4135 0.7267 0
M  V30 38 H -1.1363 -0.0413 2.2914 0
M  V30 39 H -1.6325 -1.4422 1.3285 0
M  V30 40 H -1.6339 0.1519 0.5817 0
M  V30 41 H 1.6347 1.6279 -1.3495 0
M  V30 42 H 1.8126 -0.1018 -1.5111 0
M  V30 43 H -0.7475 2.5444 -0.3712 0
M  V30 44 H 1.83 1.4069 2.879 0
M  V30 45 H 1.1719 3.4418 4.1129 0
M  V30 46 H 0.0871 2.3441 -3.1763 0
M  V30 47 H 0.9527 0.8933 -3.7414 0
M  V30 48 H -1.0302 -1.2496 -1.3942 0
M  V30 49 H 0.2738 -1.3578 -2.5941 0
M  V30 50 H -0.4359 5.0383 3.1149 0
M  V30 51 H -2.0079 1.5039 -3.8869 0
M  V30 52 H -0.9806 0.6847 -5.075 0
M  V30 53 H -1.5184 -1.3636 -4.0873 0
M  V30 54 H -2.5856 -0.4892 -2.9762 0
M  V30 55 H -2.7129 3.7768 -0.4794 0
M  V30 56 H -1.3095 4.6878 -1.1791 0
M  V30 57 H -4.125 6.5349 -2.0955 0
M  V30 END ATOM
M  V30 BEGIN BOND
M  V30 1 1 1 2
M  V30 2 2 2 3
M  V30 3 1 2 4
M  V30 4 1 3 5
M  V30 5 1 3 6
M  V30 6 2 4 7
M  V30 7 2 6 8
M  V30 8 1 7 9
M  V30 9 1 9 10
M  V30 10 2 10 11
M  V30 11 1 10 12
M  V30 12 1 12 13
M  V30 13 1 12 14
M  V30 14 1 13 15
M  V30 15 1 13 16
M  V30 16 2 15 17
M  V30 17 1 15 18
M  V30 18 1 16 19
M  V30 19 1 17 20
M  V30 20 2 18 21
M  V30 21 1 19 22
M  V30 22 1 19 23
M  V30 23 1 20 24
M  V30 24 2 20 25
M  V30 25 1 22 26
M  V30 26 1 23 27
M  V30 27 1 24 28
M  V30 28 1 28 29
M  V30 29 2 29 30
M  V30 30 1 29 31
M  V30 31 1 7 8
M  V30 32 1 21 25
M  V30 33 1 26 27
M  V30 34 1 4 32
M  V30 35 1 6 33
M  V30 36 1 8 34
M  V30 37 1 9 35
M  V30 38 1 9 36
M  V30 39 1 13 37
M  V30 40 1 14 38
M  V30 41 1 14 39
M  V30 42 1 14 40
M  V30 43 1 16 41
M  V30 44 1 16 42
M  V30 45 1 17 43
M  V30 46 1 18 44
M  V30 47 1 21 45
M  V30 48 1 22 46
M  V30 49 1 22 47
M  V30 50 1 23 48
M  V30 51 1 23 49
M  V30 52 1 25 50
M  V30 53 1 26 51
M  V30 54 1 26 52
M  V30 55 1 27 53
M  V30 56 1 27 54
M  V30 57 1 28 55
M  V30 58 1 28 56
M  V30 59 1 31 57
M  V30 END BOND
M  V30 BEGIN COLLECTION
M  V30 MDLV30/STERAC1 ATOMS=(1 13)
M  V30 END COLLECTION
M  V30 END CTAB
M  END
>  <Column 1>
2404

>  <level_0>
2586

>  <index>
2586

>  <Unnamed: 0>
2586

>  <NO.>
2598

>  <Name>
ici-204448

>  <IUPAC_name>
2-[3-[1-[[2-(3-4-dichlorophenyl)acetyl]-methylamino]-2-pyrrolidin-1-ylethyl]phenoxy]acetic acid

>  <SMILES>
CN(C(=O)Cc1ccc(Cl)c(Cl)c1)C(CN1CCCC1)c1cccc(OCC(=O)O)c1

>  <CID>
3683

>  <logBB>


>  <BBB+/BBB->
BBB-

>  <Inchi>
InChI=1S/C23H26Cl2N2O4/c1-26(22(28)12-16-7-8-19(24)20(25)11-16)21(14-27-9-2-3-10-27)17-5-4-6-18(13-17)31-15-23(29)30/h4-8-11-13-21H-2-3-9-10-12-14-15H2-1H3-(H-29-30)

>  <threshold>
-1

>  <reference>
R7|R29|

>  <group>
B

>  <Class>
1

>  <ABC>
23.83

>  <ABCGG>
19.47

>  <nAcid>
1

>  <nBase>
1

>  <nAromAtom>
12

>  <nAromBond>
12

>  <nAtom>
57

>  <nHeavyAtom>
31

>  <nSpiro>
0

>  <nBridgehead>
0

>  <nHetero>
8

>  <nN>
2

>  <nO>
4

>  <nF>
0

>  <BalabanJ>
1.61

>  <BertzCT>
931.54

>  <nBonds>
59

>  <nBondsO>
33

>  <nBondsS>
45

>  <nBondsD>
2

>  <nBondsT>
0

>  <nBondsA>
12

>  <nBondsM>
14

>  <nBondsKS>
51

>  <nBondsKD>
8

>  <RNCG>
0.18

>  <RPCG>
0.13

>  <FCSP3>
0.39

>  <SZ>
40.67

>  <Sm>
38.75

>  <Sv>
36.6

>  <Sse>
57.72

>  <Sp>
39.23

>  <Si>
64.12

>  <MZ>
0.71

>  <Mm>
0.68

>  <Mv>
0.64

>  <Mse>
1.01

>  <Mp>
0.69

>  <Mi>
1.12

>  <NsCH3>
1

>  <NdCH2>
0

>  <NssCH2>
7

>  <NtCH>
0

>  <NdsCH>
0

>  <NaaCH>
7

>  <NsssCH>
1

>  <NddC>
0

>  <NtsC>
0

>  <NdssC>
2

>  <NaasC>
5

>  <NaaaC>
0

>  <NssssC>
0

>  <NsNH3>
0

>  <NsNH2>
0

>  <NssNH2>
0

>  <NdNH>
0

>  <NssNH>
0

>  <NaaNH>
0

>  <NtN>
0

>  <NsssNH>
0

>  <NdsN>
0

>  <NaaN>
0

>  <NsssN>
2

>  <NddsN>
0

>  <NaasN>
0

>  <NssssN>
0

>  <NsOH>
1

>  <NdO>
2

>  <NssO>
1

>  <NaaO>
0

>  <NsF>
0

>  <NsSiH3>
0

>  <NssSiH2>
0

>  <NsssSiH>
0

>  <NssssSi>
0

>  <NsPH2>
0

>  <NssPH>
0

>  <NsssP>
0

>  <NdsssP>
0

>  <NsssssP>
0

>  <NsSH>
0

>  <NdS>
0

>  <NssS>
0

>  <NaaS>
0

>  <NdssS>
0

>  <NddssS>
0

>  <NsCl>
2

>  <NsBr>
0

>  <NsI>
0

>  <fragCpx>
159.08

>  <fMF>
0.39

>  <nHBAcc>
4

>  <nHBDon>
1

>  <Kier1>
25.62

>  <Kier2>
12.46

>  <Lipinski>
1

>  <GhoseFilter>
1

>  <FilterItLogS>
-5.44

>  <VMcGowan>
335.87

>  <LabuteASA>
191.85

>  <PEOE_VSA1>
19.64

>  <PEOE_VSA2>
4.79

>  <PEOE_VSA3>
4.79

>  <PEOE_VSA4>
0

>  <PEOE_VSA5>
0

>  <PEOE_VSA6>
41.4

>  <PEOE_VSA7>
61.32

>  <PEOE_VSA8>
13.59

>  <PEOE_VSA9>
22.51

>  <PEOE_VSA10>
5.75

>  <PEOE_VSA11>
6.61

>  <PEOE_VSA12>
5.91

>  <PEOE_VSA13>
0

>  <SMR_VSA1>
19.43

>  <SMR_VSA2>
0

>  <SMR_VSA3>
9.8

>  <SMR_VSA4>
0

>  <SMR_VSA5>
25.3

>  <SMR_VSA6>
33.29

>  <SMR_VSA7>
63.64

>  <SMR_VSA8>
0

>  <SMR_VSA9>
5.75

>  <SlogP_VSA1>
4.74

>  <SlogP_VSA2>
60.07

>  <SlogP_VSA3>
16.01

>  <SlogP_VSA4>
0

>  <SlogP_VSA5>
30.01

>  <SlogP_VSA6>
42.46

>  <SlogP_VSA7>
10.05

>  <SlogP_VSA8>
0

>  <SlogP_VSA9>
0

>  <SlogP_VSA10>
0

>  <SlogP_VSA11>
5.75

>  <EState_VSA1>
12.58

>  <EState_VSA2>
18.37

>  <EState_VSA3>
22.34

>  <EState_VSA4>
37.06

>  <EState_VSA5>
0

>  <EState_VSA6>
36.21

>  <EState_VSA7>
18.2

>  <EState_VSA8>
4.9

>  <EState_VSA9>
33.05

>  <EState_VSA10>
9.59

>  <VSA_EState1>
5.34

>  <VSA_EState2>
28.05

>  <VSA_EState3>
9.76

>  <VSA_EState4>
1.7

>  <VSA_EState5>
-0.61

>  <VSA_EState6>
12.31

>  <VSA_EState7>
2.5

>  <VSA_EState8>
2.29

>  <VSA_EState9>
1.8

>  <apol>
65.51

>  <bpol>
34

>  <nRing>
3

>  <nHRing>
1

>  <naRing>
2

>  <naHRing>
0

>  <nARing 2>
1

>  <nAHRing 2>
1

>  <nFRing>
0

>  <nFHRing>
0

>  <nFaRing>
0

>  <nFaHRing>
0

>  <nFARing 2>
0

>  <nFAHRing 2>
0

>  <nRot>
9

>  <SLogP>
4.29

>  <SMR>
120.92

>  <TopoPSA(NO)>
70.08

>  <TopoPSA>
70.08

>  <JGI1>
0.21

>  <JGI2>
0.07

>  <JGI3>
0.04

>  <JGI4>
0.04

>  <JGI5>
0.02

>  <Diameter>
15

>  <Radius>
8

>  <TMWC10>
140.01

>  <TSRW10>
79.49

>  <MW>
464.13

>  <AMW>
8.14

>  <WPath>
2829

>  <WPol>
44

>  <Zagreb1>
156

>  <Zagreb2>
178

>  <mZagreb2>
6.86

>  <yes>


>  <nAR-cont>
0.816016

>  <nHA-cont>
0.702745138

>  <MWHBN>
0.232086663

>  <MWHBN-cont>
0.984599022

>  <TPSA-cont>
0.510798083

>  <pka_cont>
0.97

>  <yes.1>


>  <BBB_SCORE>
4.502255837

>  <MMFF94 Energy>
95.986

$$$$
Compound 1976
Actelion Java MolfileCreator 2.0

  0  0  0  0  0  0              0 V3000
M  V30 BEGIN CTAB
M  V30 COUNTS 53 56 0 0 0
M  V30 BEGIN ATOM
M  V30 1 S -5.4834 -2.1745 -0.1609 0
M  V30 2 C -4.9525 -0.5625 0.1468 0
M  V30 3 C -4.0565 -2.8462 0.4775 0
M  V30 4 C -3.6848 -0.5369 0.7391 0
M  V30 5 C -5.6631 0.6172 -0.1423 0
M  V30 6 C -3.1889 -1.8774 0.9226 0
M  V30 7 C -3.1028 0.7269 1.057 0
M  V30 8 C -5.0827 1.8448 0.1646 0
M  V30 9 C -3.8261 1.8997 0.7513 0
M  V30 10 C -1.7301 0.8733 1.6903 0
M  V30 11 C -0.6083 1.1553 0.6914 0
M  V30 12 O -0.8486 1.6018 -0.4309 0
M  V30 13 N 0.6983 0.8896 1.1141 0
M  V30 14 C 1.8301 1.0295 0.1636 0 CFG=1
M  V30 15 C 1.051 0.5474 2.4864 0
M  V30 16 C 1.7339 0.1679 -1.1497 0 CFG=2
M  V30 17 C 2.0741 2.5227 -0.1434 0
M  V30 18 N 1.6317 -1.2988 -1.0291 0
M  V30 19 C 2.9561 0.455 -2.0565 0
M  V30 20 C 3.2771 2.7372 -1.0525 0
M  V30 21 C 0.3091 -1.8175 -0.7136 0
M  V30 22 C 2.5682 -1.9851 -0.1515 0
M  V30 23 C 3.1365 1.9424 -2.342 0
M  V30 24 C 0.5824 -3.308 -0.6099 0
M  V30 25 C 2.0012 -3.3997 -0.0578 0
M  V30 26 H -3.9195 -3.9185 0.4981 0
M  V30 27 H -6.6439 0.5733 -0.6069 0
M  V30 28 H -2.2307 -2.119 1.3629 0
M  V30 29 H -5.6134 2.7652 -0.0665 0
M  V30 30 H -3.3883 2.8747 0.9611 0
M  V30 31 H -1.753 1.6907 2.4214 0
M  V30 32 H -1.5082 -0.0465 2.2406 0
M  V30 33 H 2.7261 0.6828 0.6969 0
M  V30 34 H 0.2545 0.7801 3.1945 0
M  V30 35 H 1.2729 -0.5216 2.5326 0
M  V30 36 H 1.9352 1.119 2.7854 0
M  V30 37 H 0.8627 0.5045 -1.7254 0
M  V30 38 H 1.1938 2.9714 -0.6174 0
M  V30 39 H 2.2294 3.0713 0.7941 0
M  V30 40 H 2.8443 -0.0738 -3.0119 0
M  V30 41 H 3.8753 0.0773 -1.5908 0
M  V30 42 H 4.1931 2.4367 -0.5294 0
M  V30 43 H 3.3772 3.8034 -1.2852 0
M  V30 44 H -0.0633 -1.4567 0.2477 0
M  V30 45 H -0.4297 -1.5999 -1.4908 0
M  V30 46 H 2.6024 -1.5501 0.8517 0
M  V30 47 H 3.5852 -2.0008 -0.5545 0
M  V30 48 H 4.0271 2.0909 -2.9632 0
M  V30 49 H 2.2796 2.3147 -2.9167 0
M  V30 50 H 0.5413 -3.7744 -1.6019 0
M  V30 51 H -0.1426 -3.8181 0.0317 0
M  V30 52 H 1.9965 -3.7463 0.9814 0
M  V30 53 H 2.5921 -4.1091 -0.6474 0
M  V30 END ATOM
M  V30 BEGIN BOND
M  V30 1 1 1 2
M  V30 2 1 1 3
M  V30 3 2 2 4
M  V30 4 1 2 5
M  V30 5 2 3 6
M  V30 6 1 4 7
M  V30 7 2 5 8
M  V30 8 2 7 9
M  V30 9 1 7 10
M  V30 10 1 10 11
M  V30 11 2 11 12
M  V30 12 1 11 13
M  V30 13 1 13 14
M  V30 14 1 13 15
M  V30 15 1 14 16
M  V30 16 1 14 17
M  V30 17 1 16 18
M  V30 18 1 16 19
M  V30 19 1 17 20
M  V30 20 1 18 21
M  V30 21 1 18 22
M  V30 22 1 19 23
M  V30 23 1 21 24
M  V30 24 1 22 25
M  V30 25 1 4 6
M  V30 26 1 8 9
M  V30 27 1 20 23
M  V30 28 1 24 25
M  V30 29 1 3 26
M  V30 30 1 5 27
M  V30 31 1 6 28
M  V30 32 1 8 29
M  V30 33 1 9 30
M  V30 34 1 10 31
M  V30 35 1 10 32
M  V30 36 1 14 33
M  V30 37 1 15 34
M  V30 38 1 15 35
M  V30 39 1 15 36
M  V30 40 1 16 37
M  V30 41 1 17 38
M  V30 42 1 17 39
M  V30 43 1 19 40
M  V30 44 1 19 41
M  V30 45 1 20 42
M  V30 46 1 20 43
M  V30 47 1 21 44
M  V30 48 1 21 45
M  V30 49 1 22 46
M  V30 50 1 22 47
M  V30 51 1 23 48
M  V30 52 1 23 49
M  V30 53 1 24 50
M  V30 54 1 24 51
M  V30 55 1 25 52
M  V30 56 1 25 53
M  V30 END BOND
M  V30 BEGIN COLLECTION
M  V30 MDLV30/STEABS ATOMS=(2 14 16)
M  V30 END COLLECTION
M  V30 END CTAB
M  END
>  <Column 1>
2405

>  <level_0>
2588

>  <index>
2588

>  <Unnamed: 0>
2588

>  <NO.>
2600

>  <Name>
pd 117302

>  <IUPAC_name>
2-(1-benzothiophen-4-yl)-n-methyl-n-[(1r-2r)-2-pyrrolidin-1-ylcyclohexyl]acetamide

>  <SMILES>
CN(C(=O)Cc1cccc2sccc12)[C@@H]1CCCC[C@H]1N1CCCC1

>  <CID>
122115

>  <logBB>


>  <BBB+/BBB->
BBB+

>  <Inchi>
InChI=1S/C21H28N2OS/c1-22(18-8-2-3-9-19(18)23-12-4-5-13-23)21(24)15-16-7-6-10-20-17(16)11-14-25-20/h6-7-10-11-14-18-19H-2-5-8-9-12-13-15H2-1H3/t18--19-/m1/s1

>  <threshold>
-1

>  <reference>
R7|

>  <group>
B

>  <Class>
1

>  <ABC>
19.78

>  <ABCGG>
16.67

>  <nAcid>
0

>  <nBase>
1

>  <nAromAtom>
9

>  <nAromBond>
10

>  <nAtom>
53

>  <nHeavyAtom>
25

>  <nSpiro>
0

>  <nBridgehead>
0

>  <nHetero>
4

>  <nN>
2

>  <nO>
1

>  <nF>
0

>  <BalabanJ>
1.37

>  <BertzCT>
734.33

>  <nBonds>
56

>  <nBondsO>
28

>  <nBondsS>
45

>  <nBondsD>
1

>  <nBondsT>
0

>  <nBondsA>
10

>  <nBondsM>
11

>  <nBondsKS>
51

>  <nBondsKD>
5

>  <RNCG>
0.22

>  <RPCG>
0.15

>  <FCSP3>
0.57

>  <SZ>
32

>  <Sm>
29.68

>  <Sv>
32

>  <Sse>
52.16

>  <Sp>
35.71

>  <Si>
59.52

>  <MZ>
0.6

>  <Mm>
0.56

>  <Mv>
0.6

>  <Mse>
0.98

>  <Mp>
0.67

>  <Mi>
1.12

>  <NsCH3>
1

>  <NdCH2>
0

>  <NssCH2>
9

>  <NtCH>
0

>  <NdsCH>
0

>  <NaaCH>
5

>  <NsssCH>
2

>  <NddC>
0

>  <NtsC>
0

>  <NdssC>
1

>  <NaasC>
1

>  <NaaaC>
2

>  <NssssC>
0

>  <NsNH3>
0

>  <NsNH2>
0

>  <NssNH2>
0

>  <NdNH>
0

>  <NssNH>
0

>  <NaaNH>
0

>  <NtN>
0

>  <NsssNH>
0

>  <NdsN>
0

>  <NaaN>
0

>  <NsssN>
2

>  <NddsN>
0

>  <NaasN>
0

>  <NssssN>
0

>  <NsOH>
0

>  <NdO>
1

>  <NssO>
0

>  <NaaO>
0

>  <NsF>
0

>  <NsSiH3>
0

>  <NssSiH2>
0

>  <NsssSiH>
0

>  <NssssSi>
0

>  <NsPH2>
0

>  <NssPH>
0

>  <NsssP>
0

>  <NdsssP>
0

>  <NsssssP>
0

>  <NsSH>
0

>  <NdS>
0

>  <NssS>
0

>  <NaaS>
1

>  <NdssS>
0

>  <NddssS>
0

>  <NsCl>
0

>  <NsBr>
0

>  <NsI>
0

>  <fragCpx>
184.04

>  <fMF>
0.43

>  <nHBAcc>
3

>  <nHBDon>
0

>  <Kier1>
18.37

>  <Kier2>
8.35

>  <Lipinski>
1

>  <GhoseFilter>
1

>  <FilterItLogS>
-4.27

>  <VMcGowan>
283.99

>  <LabuteASA>
154.17

>  <PEOE_VSA1>
4.9

>  <PEOE_VSA2>
9.69

>  <PEOE_VSA3>
0

>  <PEOE_VSA4>
0

>  <PEOE_VSA5>
11.34

>  <PEOE_VSA6>
24.97

>  <PEOE_VSA7>
67.24

>  <PEOE_VSA8>
23.83

>  <PEOE_VSA9>
6.42

>  <PEOE_VSA10>
0

>  <PEOE_VSA11>
0

>  <PEOE_VSA12>
5.91

>  <PEOE_VSA13>
0

>  <SMR_VSA1>
4.79

>  <SMR_VSA2>
0

>  <SMR_VSA3>
9.8

>  <SMR_VSA4>
0

>  <SMR_VSA5>
57.03

>  <SMR_VSA6>
20.14

>  <SMR_VSA7>
35.21

>  <SMR_VSA8>
0

>  <SMR_VSA9>
0

>  <SlogP_VSA1>
0

>  <SlogP_VSA2>
47.93

>  <SlogP_VSA3>
11.22

>  <SlogP_VSA4>
0

>  <SlogP_VSA5>
44.09

>  <SlogP_VSA6>
29.65

>  <SlogP_VSA7>
0

>  <SlogP_VSA8>
10.09

>  <SlogP_VSA9>
0

>  <SlogP_VSA10>
0

>  <SlogP_VSA11>
0

>  <EState_VSA1>
0

>  <EState_VSA2>
5.91

>  <EState_VSA3>
18.5

>  <EState_VSA4>
6.42

>  <EState_VSA5>
60.84

>  <EState_VSA6>
11.34

>  <EState_VSA7>
7.05

>  <EState_VSA8>
39.45

>  <EState_VSA9>
0

>  <EState_VSA10>
4.79

>  <VSA_EState1>
1.28

>  <VSA_EState2>
17.77

>  <VSA_EState3>
3.36

>  <VSA_EState4>
1.17

>  <VSA_EState5>
0.27

>  <VSA_EState6>
9.44

>  <VSA_EState7>
8.14

>  <VSA_EState8>
2.44

>  <VSA_EState9>
2.04

>  <apol>
59.64

>  <bpol>
34.84

>  <nRing>
4

>  <nHRing>
2

>  <naRing>
2

>  <naHRing>
1

>  <nARing 2>
2

>  <nAHRing 2>
1

>  <nFRing>
1

>  <nFHRing>
1

>  <nFaRing>
1

>  <nFaHRing>
1

>  <nFARing 2>
0

>  <nFAHRing 2>
0

>  <nRot>
4

>  <SLogP>
4.31

>  <SMR>
105.15

>  <TopoPSA(NO)>
23.55

>  <TopoPSA>
51.79

>  <JGI1>
0.13

>  <JGI2>
0.08

>  <JGI3>
0.04

>  <JGI4>
0.03

>  <JGI5>
0.02

>  <Diameter>
11

>  <Radius>
6

>  <TMWC10>
128.8

>  <TSRW10>
75.31

>  <MW>
356.19

>  <AMW>
6.72

>  <WPath>
1506

>  <WPol>
38

>  <Zagreb1>
134

>  <Zagreb2>
160

>  <mZagreb2>
5.5

>  <yes>


>  <nAR-cont>
1

>  <nHA-cont>
0.921834225

>  <MWHBN>
0.158957269

>  <MWHBN-cont>
0.953637346

>  <TPSA-cont>
0.63847364

>  <pka_cont>
0.97

>  <yes.1>


>  <BBB_SCORE>
5.114237524

>  <MMFF94 Energy>
63.897

$$$$
Compound 1977
Actelion Java MolfileCreator 2.0

  0  0  0  0  0  0              0 V3000
M  V30 BEGIN CTAB
M  V30 COUNTS 38 40 0 0 0
M  V30 BEGIN ATOM
M  V30 1 Cl 0.1611 1.6927 -5.2465 0
M  V30 2 C 0.153 1.267 -3.5747 0
M  V30 3 C -0.9277 1.5619 -2.7505 0
M  V30 4 C 1.2632 0.6136 -3.0438 0
M  V30 5 O -2.0218 2.2087 -3.2578 0
M  V30 6 C -0.901 1.201 -1.401 0
M  V30 7 C 1.304 0.2427 -1.6855 0
M  V30 8 C 0.2097 0.5345 -0.8413 0
M  V30 9 C 2.5368 -0.4608 -1.1678 0
M  V30 10 C 0.2608 0.1381 0.643 0 CFG=1
M  V30 11 C 2.254 -1.8899 -0.691 0
M  V30 12 C -0.8775 0.7191 1.4945 0
M  V30 13 C 0.3815 -1.4063 0.8339 0
M  V30 14 N 1.7449 -1.9655 0.6877 0
M  V30 15 C -0.6914 1.9527 2.1423 0
M  V30 16 C -2.1225 0.078 1.6227 0
M  V30 17 C 1.7537 -3.3627 1.1382 0
M  V30 18 C -1.7126 2.5192 2.9072 0
M  V30 19 C -3.1418 0.6473 2.389 0
M  V30 20 C -2.9362 1.8658 3.0319 0
M  V30 21 H 2.1058 0.3912 -3.6952 0
M  V30 22 H -2.6535 2.3787 -2.5402 0
M  V30 23 H -1.7584 1.451 -0.783 0
M  V30 24 H 3.2843 -0.517 -1.97 0
M  V30 25 H 3.0066 0.1401 -0.3793 0
M  V30 26 H 1.1778 0.5837 1.0566 0
M  V30 27 H 1.588 -2.413 -1.3903 0
M  V30 28 H 3.2177 -2.4158 -0.7213 0
M  V30 29 H -0.3197 -1.9305 0.1695 0
M  V30 30 H 0.067 -1.6331 1.8622 0
M  V30 31 H 0.255 2.4826 2.0528 0
M  V30 32 H -2.3168 -0.8662 1.1197 0
M  V30 33 H 2.7667 -3.7777 1.0921 0
M  V30 34 H 1.0925 -3.9944 0.534 0
M  V30 35 H 1.4397 -3.4342 2.1856 0
M  V30 36 H -1.5517 3.4717 3.4059 0
M  V30 37 H -4.0984 0.1395 2.4832 0
M  V30 38 H -3.7298 2.3071 3.6293 0
M  V30 END ATOM
M  V30 BEGIN BOND
M  V30 1 1 1 2
M  V30 2 2 2 3
M  V30 3 1 2 4
M  V30 4 1 3 5
M  V30 5 1 3 6
M  V30 6 2 4 7
M  V30 7 2 6 8
M  V30 8 1 7 9
M  V30 9 1 8 10
M  V30 10 1 9 11
M  V30 11 1 10 12
M  V30 12 1 10 13
M  V30 13 1 11 14
M  V30 14 2 12 15
M  V30 15 1 12 16
M  V30 16 1 14 17
M  V30 17 1 15 18
M  V30 18 2 16 19
M  V30 19 2 18 20
M  V30 20 1 7 8
M  V30 21 1 13 14
M  V30 22 1 19 20
M  V30 23 1 4 21
M  V30 24 1 5 22
M  V30 25 1 6 23
M  V30 26 1 9 24
M  V30 27 1 9 25
M  V30 28 1 10 26
M  V30 29 1 11 27
M  V30 30 1 11 28
M  V30 31 1 13 29
M  V30 32 1 13 30
M  V30 33 1 15 31
M  V30 34 1 16 32
M  V30 35 1 17 33
M  V30 36 1 17 34
M  V30 37 1 17 35
M  V30 38 1 18 36
M  V30 39 1 19 37
M  V30 40 1 20 38
M  V30 END BOND
M  V30 BEGIN COLLECTION
M  V30 MDLV30/STEABS ATOMS=(1 10)
M  V30 END COLLECTION
M  V30 END CTAB
M  END
>  <Column 1>
2406

>  <level_0>
2589

>  <index>
2589

>  <Unnamed: 0>
2589

>  <NO.>
2601

>  <Name>
sch-23390

>  <IUPAC_name>
(5r)-8-chloro-3-methyl-5-phenyl-1-2-4-5-tetrahydro-3-benzazepin-7-ol

>  <SMILES>
CN1CCc2cc(Cl)c(O)cc2[C@@H](c2ccccc2)C1

>  <CID>
3036864

>  <logBB>


>  <BBB+/BBB->
BBB+

>  <Inchi>
InChI=1S/C17H18ClNO/c1-19-8-7-13-9-16(18)17(20)10-14(13)15(11-19)12-5-3-2-4-6-12/h2-6-9-10-15-20H-7-8-11H2-1H3/t15-/m1/s1

>  <threshold>
-1

>  <reference>
R7|

>  <group>
B

>  <Class>
-1

>  <ABC>
15.72

>  <ABCGG>
12.92

>  <nAcid>
0

>  <nBase>
1

>  <nAromAtom>
12

>  <nAromBond>
12

>  <nAtom>
38

>  <nHeavyAtom>
20

>  <nSpiro>
0

>  <nBridgehead>
0

>  <nHetero>
3

>  <nN>
1

>  <nO>
1

>  <nF>
0

>  <BalabanJ>
1.77

>  <BertzCT>
611.89

>  <nBonds>
40

>  <nBondsO>
22

>  <nBondsS>
28

>  <nBondsD>
0

>  <nBondsT>
0

>  <nBondsA>
12

>  <nBondsM>
12

>  <nBondsKS>
34

>  <nBondsKD>
6

>  <RNCG>
0.37

>  <RPCG>
0.21

>  <FCSP3>
0.29

>  <SZ>
25.33

>  <Sm>
23.96

>  <Sv>
24.44

>  <Sse>
37.75

>  <Sp>
26.63

>  <Si>
42.39

>  <MZ>
0.67

>  <Mm>
0.63

>  <Mv>
0.64

>  <Mse>
0.99

>  <Mp>
0.7

>  <Mi>
1.12

>  <NsCH3>
1

>  <NdCH2>
0

>  <NssCH2>
3

>  <NtCH>
0

>  <NdsCH>
0

>  <NaaCH>
7

>  <NsssCH>
1

>  <NddC>
0

>  <NtsC>
0

>  <NdssC>
0

>  <NaasC>
5

>  <NaaaC>
0

>  <NssssC>
0

>  <NsNH3>
0

>  <NsNH2>
0

>  <NssNH2>
0

>  <NdNH>
0

>  <NssNH>
0

>  <NaaNH>
0

>  <NtN>
0

>  <NsssNH>
0

>  <NdsN>
0

>  <NaaN>
0

>  <NsssN>
1

>  <NddsN>
0

>  <NaasN>
0

>  <NssssN>
0

>  <NsOH>
1

>  <NdO>
0

>  <NssO>
0

>  <NaaO>
0

>  <NsF>
0

>  <NsSiH3>
0

>  <NssSiH2>
0

>  <NsssSiH>
0

>  <NssssSi>
0

>  <NsPH2>
0

>  <NssPH>
0

>  <NsssP>
0

>  <NdsssP>
0

>  <NsssssP>
0

>  <NsSH>
0

>  <NdS>
0

>  <NssS>
0

>  <NaaS>
0

>  <NdssS>
0

>  <NddssS>
0

>  <NsCl>
1

>  <NsBr>
0

>  <NsI>
0

>  <fragCpx>
104.03

>  <fMF>
0.45

>  <nHBAcc>
2

>  <nHBDon>
1

>  <Kier1>
14.92

>  <Kier2>
6.41

>  <Lipinski>
1

>  <GhoseFilter>
1

>  <FilterItLogS>
-4.49

>  <VMcGowan>
220.1

>  <LabuteASA>
124.16

>  <PEOE_VSA1>
10.01

>  <PEOE_VSA2>
0

>  <PEOE_VSA3>
0

>  <PEOE_VSA4>
0

>  <PEOE_VSA5>
0

>  <PEOE_VSA6>
41.93

>  <PEOE_VSA7>
42.29

>  <PEOE_VSA8>
19.01

>  <PEOE_VSA9>
5.02

>  <PEOE_VSA10>
5.75

>  <PEOE_VSA11>
0

>  <PEOE_VSA12>
0

>  <PEOE_VSA13>
0

>  <SMR_VSA1>
5.11

>  <SMR_VSA2>
0

>  <SMR_VSA3>
4.9

>  <SMR_VSA4>
0

>  <SMR_VSA5>
12.34

>  <SMR_VSA6>
20.14

>  <SMR_VSA7>
64.18

>  <SMR_VSA8>
0

>  <SMR_VSA9>
5.75

>  <SlogP_VSA1>
0

>  <SlogP_VSA2>
30.14

>  <SlogP_VSA3>
6.42

>  <SlogP_VSA4>
0

>  <SlogP_VSA5>
22.61

>  <SlogP_VSA6>
42.46

>  <SlogP_VSA7>
5.02

>  <SlogP_VSA8>
0

>  <SlogP_VSA9>
0

>  <SlogP_VSA10>
0

>  <SlogP_VSA11>
5.75

>  <EState_VSA1>
0

>  <EState_VSA2>
11.67

>  <EState_VSA3>
5.02

>  <EState_VSA4>
19.51

>  <EState_VSA5>
16.69

>  <EState_VSA6>
0

>  <EState_VSA7>
18.2

>  <EState_VSA8>
36.21

>  <EState_VSA9>
11.6

>  <EState_VSA10>
5.11

>  <VSA_EState1>
0

>  <VSA_EState2>
2.34

>  <VSA_EState3>
10.4

>  <VSA_EState4>
3.72

>  <VSA_EState5>
0.46

>  <VSA_EState6>
14.23

>  <VSA_EState7>
0.97

>  <VSA_EState8>
1.97

>  <VSA_EState9>
2.14

>  <apol>
44.47

>  <bpol>
20.28

>  <nRing>
3

>  <nHRing>
1

>  <naRing>
2

>  <naHRing>
0

>  <nARing 2>
1

>  <nAHRing 2>
1

>  <nFRing>
1

>  <nFHRing>
1

>  <nFaRing>
0

>  <nFaHRing>
0

>  <nFARing 2>
1

>  <nFAHRing 2>
1

>  <nRot>
1

>  <SLogP>
3.67

>  <SMR>
82.6

>  <TopoPSA(NO)>
23.47

>  <TopoPSA>
23.47

>  <JGI1>
0.18

>  <JGI2>
0.08

>  <JGI3>
0.04

>  <JGI4>
0.05

>  <JGI5>
0.02

>  <Diameter>
9

>  <Radius>
5

>  <TMWC10>
115.68

>  <TSRW10>
61.75

>  <MW>
287.11

>  <AMW>
7.56

>  <WPath>
735

>  <WPol>
35

>  <Zagreb1>
106

>  <Zagreb2>
125

>  <mZagreb2>
4.36

>  <yes>


>  <nAR-cont>
0.816016

>  <nHA-cont>
0.999629945

>  <MWHBN>
0.177050475

>  <MWHBN-cont>
0.983771776

>  <TPSA-cont>
0.836164826

>  <pka_cont>
0.97

>  <yes.1>


>  <BBB_SCORE>
5.448633261

>  <MMFF94 Energy>
104.55

$$$$
Compound 1978
Actelion Java MolfileCreator 2.0

  0  0  0  0  0  0              0 V3000
M  V30 BEGIN CTAB
M  V30 COUNTS 26 27 0 0 0
M  V30 BEGIN ATOM
M  V30 1 N 4.4419 -1.3468 2.2983 0
M  V30 2 C 3.2863 -1.4649 2.3329 0
M  V30 3 C 1.8287 -1.6155 2.426 0
M  V30 4 C 1.132 -0.6476 1.5322 0
M  V30 5 N 0.3648 -1.1042 0.4831 0
M  V30 6 C 1.0904 0.7331 1.579 0
M  V30 7 C -0.1338 -0.0413 -0.1236 0
M  V30 8 N 0.3039 1.0964 0.5143 0
M  V30 9 C 1.7196 1.7225 2.4827 0
M  V30 10 C -0.9992 -0.0502 -1.3091 0
M  V30 11 C -1.1888 -1.2525 -2.0076 0
M  V30 12 C -1.7261 1.0772 -1.7212 0
M  V30 13 C -2.0402 -1.3182 -3.1135 0
M  V30 14 C -2.5792 1.0126 -2.8284 0
M  V30 15 C -2.7319 -0.1831 -3.5261 0
M  V30 16 H 1.5001 -1.4551 3.4592 0
M  V30 17 H 1.5456 -2.6396 2.1573 0
M  V30 18 H 0.0912 2.0417 0.2322 0
M  V30 19 H 2.7191 1.9844 2.1218 0
M  V30 20 H 1.1245 2.6396 2.5424 0
M  V30 21 H 1.8145 1.3199 3.4961 0
M  V30 22 H -0.6618 -2.1512 -1.6898 0
M  V30 23 H -1.6534 2.0217 -1.1909 0
M  V30 24 H -2.1637 -2.2578 -3.6457 0
M  V30 25 H -3.1314 1.8953 -3.1413 0
M  V30 26 H -3.3965 -0.2332 -4.3848 0
M  V30 END ATOM
M  V30 BEGIN BOND
M  V30 1 3 1 2
M  V30 2 1 2 3
M  V30 3 1 3 4
M  V30 4 1 4 5
M  V30 5 2 4 6
M  V30 6 2 5 7
M  V30 7 1 6 8
M  V30 8 1 6 9
M  V30 9 1 7 10
M  V30 10 2 10 11
M  V30 11 1 10 12
M  V30 12 1 11 13
M  V30 13 2 12 14
M  V30 14 2 13 15
M  V30 15 1 7 8
M  V30 16 1 14 15
M  V30 17 1 3 16
M  V30 18 1 3 17
M  V30 19 1 8 18
M  V30 20 1 9 19
M  V30 21 1 9 20
M  V30 22 1 9 21
M  V30 23 1 11 22
M  V30 24 1 12 23
M  V30 25 1 13 24
M  V30 26 1 14 25
M  V30 27 1 15 26
M  V30 END BOND
M  V30 END CTAB
M  END
>  <Column 1>
2411

>  <level_0>
2596

>  <index>
2596

>  <Unnamed: 0>
2596

>  <NO.>
2608

>  <Name>
mefenidil

>  <IUPAC_name>
2-(5-methyl-2-phenyl-1h-imidazol-4-yl)acetonitrile

>  <SMILES>
Cc1[nH]c(-c2ccccc2)nc1CC#N

>  <CID>
65475

>  <logBB>


>  <BBB+/BBB->
BBB+

>  <Inchi>
InChI=1S/C12H11N3/c1-9-11(7-8-13)15-12(14-9)10-5-3-2-4-6-10/h2-6H-7H2-1H3-(H-14-15)

>  <threshold>
-1

>  <reference>
R7|R29|

>  <group>
B

>  <Class>
1

>  <ABC>
11.34

>  <ABCGG>
10.1

>  <nAcid>
0

>  <nBase>
0

>  <nAromAtom>
11

>  <nAromBond>
11

>  <nAtom>
26

>  <nHeavyAtom>
15

>  <nSpiro>
0

>  <nBridgehead>
0

>  <nHetero>
3

>  <nN>
3

>  <nO>
0

>  <nF>
0

>  <BalabanJ>
1.84

>  <BertzCT>
491.33

>  <nBonds>
27

>  <nBondsO>
16

>  <nBondsS>
15

>  <nBondsD>
0

>  <nBondsT>
1

>  <nBondsA>
11

>  <nBondsM>
12

>  <nBondsKS>
21

>  <nBondsKD>
5

>  <RNCG>
0.32

>  <RPCG>
0.16

>  <FCSP3>
0.17

>  <SZ>
17.33

>  <Sm>
16.42

>  <Sv>
17.25

>  <Sse>
25.87

>  <Sp>
18.37

>  <Si>
29.16

>  <MZ>
0.67

>  <Mm>
0.63

>  <Mv>
0.66

>  <Mse>
1

>  <Mp>
0.71

>  <Mi>
1.12

>  <NsCH3>
1

>  <NdCH2>
0

>  <NssCH2>
1

>  <NtCH>
0

>  <NdsCH>
0

>  <NaaCH>
5

>  <NsssCH>
0

>  <NddC>
0

>  <NtsC>
1

>  <NdssC>
0

>  <NaasC>
4

>  <NaaaC>
0

>  <NssssC>
0

>  <NsNH3>
0

>  <NsNH2>
0

>  <NssNH2>
0

>  <NdNH>
0

>  <NssNH>
0

>  <NaaNH>
1

>  <NtN>
1

>  <NsssNH>
0

>  <NdsN>
0

>  <NaaN>
1

>  <NsssN>
0

>  <NddsN>
0

>  <NaasN>
0

>  <NssssN>
0

>  <NsOH>
0

>  <NdO>
0

>  <NssO>
0

>  <NaaO>
0

>  <NsF>
0

>  <NsSiH3>
0

>  <NssSiH2>
0

>  <NsssSiH>
0

>  <NssssSi>
0

>  <NsPH2>
0

>  <NssPH>
0

>  <NsssP>
0

>  <NdsssP>
0

>  <NsssssP>
0

>  <NsSH>
0

>  <NdS>
0

>  <NssS>
0

>  <NaaS>
0

>  <NdssS>
0

>  <NddssS>
0

>  <NsCl>
0

>  <NsBr>
0

>  <NsI>
0

>  <fragCpx>
46.03

>  <fMF>
0.42

>  <nHBAcc>
2

>  <nHBDon>
1

>  <Kier1>
11.48

>  <Kier2>
5.37

>  <Lipinski>
1

>  <GhoseFilter>
1

>  <FilterItLogS>
-3.88

>  <VMcGowan>
158.06

>  <LabuteASA>
88.4

>  <PEOE_VSA1>
4.98

>  <PEOE_VSA2>
0

>  <PEOE_VSA3>
4.98

>  <PEOE_VSA4>
5.26

>  <PEOE_VSA5>
0

>  <PEOE_VSA6>
30.33

>  <PEOE_VSA7>
6.92

>  <PEOE_VSA8>
11.26

>  <PEOE_VSA9>
18.18

>  <PEOE_VSA10>
5.82

>  <PEOE_VSA11>
0

>  <PEOE_VSA12>
0

>  <PEOE_VSA13>
0

>  <SMR_VSA1>
0

>  <SMR_VSA2>
5.26

>  <SMR_VSA3>
9.97

>  <SMR_VSA4>
0

>  <SMR_VSA5>
13.34

>  <SMR_VSA6>
0

>  <SMR_VSA7>
41.72

>  <SMR_VSA8>
0

>  <SMR_VSA9>
17.46

>  <SlogP_VSA1>
0

>  <SlogP_VSA2>
9.97

>  <SlogP_VSA3>
6.42

>  <SlogP_VSA4>
18.25

>  <SlogP_VSA5>
11.39

>  <SlogP_VSA6>
30.33

>  <SlogP_VSA7>
0

>  <SlogP_VSA8>
11.39

>  <SlogP_VSA9>
0

>  <SlogP_VSA10>
0

>  <SlogP_VSA11>
0

>  <EState_VSA1>
0

>  <EState_VSA2>
0

>  <EState_VSA3>
6.42

>  <EState_VSA4>
22.78

>  <EState_VSA5>
0

>  <EState_VSA6>
0

>  <EState_VSA7>
37.26

>  <EState_VSA8>
16.04

>  <EState_VSA9>
5.26

>  <EState_VSA10>
0

>  <VSA_EState1>
0

>  <VSA_EState2>
7.58

>  <VSA_EState3>
8.62

>  <VSA_EState4>
2.84

>  <VSA_EState5>
0.83

>  <VSA_EState6>
12

>  <VSA_EState7>
0.36

>  <VSA_EState8>
1.94

>  <VSA_EState9>
0

>  <apol>
30.67

>  <bpol>
13.32

>  <nRing>
2

>  <nHRing>
1

>  <naRing>
2

>  <naHRing>
1

>  <nARing 2>
0

>  <nAHRing 2>
0

>  <nFRing>
0

>  <nFHRing>
0

>  <nFaRing>
0

>  <nFaHRing>
0

>  <nFARing 2>
0

>  <nFAHRing 2>
0

>  <nRot>
2

>  <SLogP>
2.45

>  <SMR>
58.08

>  <TopoPSA(NO)>
52.47

>  <TopoPSA>
52.47

>  <JGI1>
0.16

>  <JGI2>
0.07

>  <JGI3>
0.05

>  <JGI4>
0.04

>  <JGI5>
0.03

>  <Diameter>
9

>  <Radius>
5

>  <TMWC10>
100.46

>  <TSRW10>
60.58

>  <MW>
197.1

>  <AMW>
7.58

>  <WPath>
378

>  <WPol>
19

>  <Zagreb1>
74

>  <Zagreb2>
85

>  <mZagreb2>
3.47

>  <yes>


>  <nAR-cont>
0.336376

>  <nHA-cont>
0.92539861

>  <MWHBN>
0.213686922

>  <MWHBN-cont>
0.998171527

>  <TPSA-cont>
0.633726818

>  <pka_cont>
0.97

>  <yes.1>


>  <BBB_SCORE>
4.511485538

>  <MMFF94 Energy>
44.039

$$$$
Compound 1979
Actelion Java MolfileCreator 2.0

  0  0  0  0  0  0              0 V3000
M  V30 BEGIN CTAB
M  V30 COUNTS 25 25 0 0 0
M  V30 BEGIN ATOM
M  V30 1 Cl -2.4782 -2.6382 3.5188 0
M  V30 2 C -1.7982 -1.606 2.3215 0
M  V30 3 C -1.8923 -1.953 0.9732 0
M  V30 4 C -1.1639 -0.4271 2.706 0
M  V30 5 C -1.3484 -1.1164 -0.0135 0
M  V30 6 C -0.6066 0.4052 1.7351 0
M  V30 7 C -0.6747 0.0468 0.385 0
M  V30 8 C -1.4464 -1.5072 -1.4607 0
M  V30 9 O -0.158 0.868 -0.5811 0
M  V30 10 C 1.2622 1.0409 -0.482 0 CFG=2
M  V30 11 C 1.9374 0.4447 -1.7149 0
M  V30 12 C 1.5408 2.5373 -0.4106 0
M  V30 13 O 1.4086 -0.1032 -2.6688 0
M  V30 14 O 3.2856 0.5437 -1.6686 0
M  V30 15 H -2.3963 -2.8738 0.6886 0
M  V30 16 H -1.1059 -0.1491 3.7548 0
M  V30 17 H -0.1335 1.335 2.0372 0
M  V30 18 H -0.5126 -1.9756 -1.7853 0
M  V30 19 H -1.6538 -0.6359 -2.0903 0
M  V30 20 H -2.2635 -2.2186 -1.6219 0
M  V30 21 H 1.6858 0.5311 0.3934 0
M  V30 22 H 1.1753 3.0455 -1.3103 0
M  V30 23 H 2.6111 2.7448 -0.3149 0
M  V30 24 H 1.0221 2.9879 0.442 0
M  V30 25 H 3.5764 0.1145 -2.5015 0
M  V30 END ATOM
M  V30 BEGIN BOND
M  V30 1 1 1 2
M  V30 2 2 2 3
M  V30 3 1 2 4
M  V30 4 1 3 5
M  V30 5 2 4 6
M  V30 6 2 5 7
M  V30 7 1 5 8
M  V30 8 1 7 9
M  V30 9 1 9 10
M  V30 10 1 10 11
M  V30 11 1 10 12
M  V30 12 2 11 13
M  V30 13 1 11 14
M  V30 14 1 6 7
M  V30 15 1 3 15
M  V30 16 1 4 16
M  V30 17 1 6 17
M  V30 18 1 8 18
M  V30 19 1 8 19
M  V30 20 1 8 20
M  V30 21 1 10 21
M  V30 22 1 12 22
M  V30 23 1 12 23
M  V30 24 1 12 24
M  V30 25 1 14 25
M  V30 END BOND
M  V30 BEGIN COLLECTION
M  V30 MDLV30/STERAC1 ATOMS=(1 10)
M  V30 END COLLECTION
M  V30 END CTAB
M  END
>  <Column 1>
2412

>  <level_0>
2597

>  <index>
2597

>  <Unnamed: 0>
2597

>  <NO.>
2609

>  <Name>
mecoprop

>  <IUPAC_name>
2-(4-chloro-2-methylphenoxy)propanoic acid

>  <SMILES>
Cc1cc(Cl)ccc1OC(C)C(=O)O

>  <CID>
7153

>  <logBB>


>  <BBB+/BBB->
BBB+

>  <Inchi>
InChI=1S/C10H11ClO3/c1-6-5-8(11)3-4-9(6)14-7(2)10(12)13/h3-5-7H-1-2H3-(H-12-13)

>  <threshold>
-1

>  <reference>
R7|

>  <group>
B

>  <Class>
-1

>  <ABC>
10.37

>  <ABCGG>
9.65

>  <nAcid>
1

>  <nBase>
0

>  <nAromAtom>
6

>  <nAromBond>
6

>  <nAtom>
25

>  <nHeavyAtom>
14

>  <nSpiro>
0

>  <nBridgehead>
0

>  <nHetero>
4

>  <nN>
0

>  <nO>
3

>  <nF>
0

>  <BalabanJ>
2.37

>  <BertzCT>
349.22

>  <nBonds>
25

>  <nBondsO>
14

>  <nBondsS>
18

>  <nBondsD>
1

>  <nBondsT>
0

>  <nBondsA>
6

>  <nBondsM>
7

>  <nBondsKS>
21

>  <nBondsKD>
4

>  <RNCG>
0.33

>  <RPCG>
0.24

>  <FCSP3>
0.3

>  <SZ>
18.67

>  <Sm>
17.87

>  <Sv>
16.22

>  <Sse>
25.64

>  <Sp>
17.14

>  <Si>
28.06

>  <MZ>
0.75

>  <Mm>
0.71

>  <Mv>
0.65

>  <Mse>
1.03

>  <Mp>
0.69

>  <Mi>
1.12

>  <NsCH3>
2

>  <NdCH2>
0

>  <NssCH2>
0

>  <NtCH>
0

>  <NdsCH>
0

>  <NaaCH>
3

>  <NsssCH>
1

>  <NddC>
0

>  <NtsC>
0

>  <NdssC>
1

>  <NaasC>
3

>  <NaaaC>
0

>  <NssssC>
0

>  <NsNH3>
0

>  <NsNH2>
0

>  <NssNH2>
0

>  <NdNH>
0

>  <NssNH>
0

>  <NaaNH>
0

>  <NtN>
0

>  <NsssNH>
0

>  <NdsN>
0

>  <NaaN>
0

>  <NsssN>
0

>  <NddsN>
0

>  <NaasN>
0

>  <NssssN>
0

>  <NsOH>
1

>  <NdO>
1

>  <NssO>
1

>  <NaaO>
0

>  <NsF>
0

>  <NsSiH3>
0

>  <NssSiH2>
0

>  <NsssSiH>
0

>  <NssssSi>
0

>  <NsPH2>
0

>  <NssPH>
0

>  <NsssP>
0

>  <NdsssP>
0

>  <NsssssP>
0

>  <NsSH>
0

>  <NdS>
0

>  <NssS>
0

>  <NaaS>
0

>  <NdssS>
0

>  <NddssS>
0

>  <NsCl>
1

>  <NsBr>
0

>  <NsI>
0

>  <fragCpx>
14.04

>  <fMF>
0.24

>  <nHBAcc>
2

>  <nHBDon>
1

>  <Kier1>
12.07

>  <Kier2>
5.19

>  <Lipinski>
1

>  <GhoseFilter>
1

>  <FilterItLogS>
-2.5

>  <VMcGowan>
153.55

>  <LabuteASA>
87.26

>  <PEOE_VSA1>
9.84

>  <PEOE_VSA2>
0

>  <PEOE_VSA3>
4.79

>  <PEOE_VSA4>
0

>  <PEOE_VSA5>
0

>  <PEOE_VSA6>
11.6

>  <PEOE_VSA7>
37.61

>  <PEOE_VSA8>
5.02

>  <PEOE_VSA9>
0

>  <PEOE_VSA10>
5.75

>  <PEOE_VSA11>
6.1

>  <PEOE_VSA12>
0

>  <PEOE_VSA13>
0

>  <SMR_VSA1>
14.64

>  <SMR_VSA2>
0

>  <SMR_VSA3>
0

>  <SMR_VSA4>
0

>  <SMR_VSA5>
19.95

>  <SMR_VSA6>
0

>  <SMR_VSA7>
28.79

>  <SMR_VSA8>
0

>  <SMR_VSA9>
5.75

>  <SlogP_VSA1>
4.74

>  <SlogP_VSA2>
17.18

>  <SlogP_VSA3>
4.79

>  <SlogP_VSA4>
6.92

>  <SlogP_VSA5>
12.49

>  <SlogP_VSA6>
18.2

>  <SlogP_VSA7>
5.02

>  <SlogP_VSA8>
0

>  <SlogP_VSA9>
0

>  <SlogP_VSA10>
0

>  <SlogP_VSA11>
5.75

>  <EState_VSA1>
12.07

>  <EState_VSA2>
0

>  <EState_VSA3>
10.77

>  <EState_VSA4>
5.56

>  <EState_VSA5>
6.92

>  <EState_VSA6>
18.2

>  <EState_VSA7>
6.92

>  <EState_VSA8>
0

>  <EState_VSA9>
21.44

>  <EState_VSA10>
4.79

>  <VSA_EState1>
5.2

>  <VSA_EState2>
10.53

>  <VSA_EState3>
9.25

>  <VSA_EState4>
0.82

>  <VSA_EState5>
-0.44

>  <VSA_EState6>
5.06

>  <VSA_EState7>
-0.85

>  <VSA_EState8>
3.3

>  <VSA_EState9>
0

>  <apol>
28.62

>  <bpol>
14.15

>  <nRing>
1

>  <nHRing>
0

>  <naRing>
1

>  <naHRing>
0

>  <nARing 2>
0

>  <nAHRing 2>
0

>  <nFRing>
0

>  <nFHRing>
0

>  <nFaRing>
0

>  <nFaHRing>
0

>  <nFARing 2>
0

>  <nFAHRing 2>
0

>  <nRot>
3

>  <SLogP>
2.5

>  <SMR>
53.91

>  <TopoPSA(NO)>
46.53

>  <TopoPSA>
46.53

>  <JGI1>
0.29

>  <JGI2>
0.11

>  <JGI3>
0.05

>  <JGI4>
0.07

>  <JGI5>
0.03

>  <Diameter>
8

>  <Radius>
4

>  <TMWC10>
95.32

>  <TSRW10>
45.06

>  <MW>
214.04

>  <AMW>
8.56

>  <WPath>
316

>  <WPol>
18

>  <Zagreb1>
66

>  <Zagreb2>
73

>  <mZagreb2>
3.14

>  <yes>


>  <nAR-cont>
0.336376

>  <nHA-cont>
0.887625254

>  <MWHBN>
0.205056615

>  <MWHBN-cont>
0.999986778

>  <TPSA-cont>
0.675191707

>  <pka_cont>
0.97

>  <yes.1>


>  <BBB_SCORE>
4.559364834

>  <MMFF94 Energy>
28.167

$$$$
Compound 1980
Actelion Java MolfileCreator 2.0

  0  0  0  0  0  0              0 V3000
M  V30 BEGIN CTAB
M  V30 COUNTS 30 30 0 0 0
M  V30 BEGIN ATOM
M  V30 1 O 1.1651 1.5537 -0.8543 0
M  V30 2 C 1.2324 0.7742 0.0901 0
M  V30 3 N 0.2209 -0.0675 0.5238 0
M  V30 4 C 2.4859 0.6455 0.9857 0 CFG=1
M  V30 5 C -1.0261 -0.2155 -0.106 0
M  V30 6 N 2.6989 -0.7794 1.3462 0
M  V30 7 C 3.725 1.2177 0.3099 0
M  V30 8 C -1.9201 0.8661 -0.2306 0
M  V30 9 C -1.3944 -1.5007 -0.558 0
M  V30 10 C -3.1534 0.6567 -0.8692 0
M  V30 11 C -1.6122 2.2497 0.2724 0
M  V30 12 C -2.6436 -1.6802 -1.1702 0
M  V30 13 C -0.4765 -2.6842 -0.4155 0
M  V30 14 C -3.5137 -0.606 -1.3328 0
M  V30 15 H 0.5256 -0.7817 1.1803 0
M  V30 16 H 2.2799 1.2045 1.9059 0
M  V30 17 H 3.5148 -0.8348 1.9582 0
M  V30 18 H 2.9718 -1.2819 0.498 0
M  V30 19 H 3.9374 0.7066 -0.6357 0
M  V30 20 H 4.6053 1.1248 0.9549 0
M  V30 21 H 3.5879 2.281 0.0846 0
M  V30 22 H -3.8477 1.4841 -1.0003 0
M  V30 23 H -1.1012 2.8304 -0.5005 0
M  V30 24 H -2.5339 2.7775 0.5426 0
M  V30 25 H -0.9981 2.2225 1.1777 0
M  V30 26 H -2.9437 -2.6601 -1.5343 0
M  V30 27 H -0.3279 -2.9232 0.6423 0
M  V30 28 H 0.491 -2.4763 -0.8836 0
M  V30 29 H -0.8888 -3.5746 -0.9021 0
M  V30 30 H -4.4747 -0.7521 -1.8188 0
M  V30 END ATOM
M  V30 BEGIN BOND
M  V30 1 2 1 2
M  V30 2 1 2 3
M  V30 3 1 2 4
M  V30 4 1 3 5
M  V30 5 1 4 6
M  V30 6 1 4 7
M  V30 7 2 5 8
M  V30 8 1 5 9
M  V30 9 1 8 10
M  V30 10 1 8 11
M  V30 11 2 9 12
M  V30 12 1 9 13
M  V30 13 2 10 14
M  V30 14 1 12 14
M  V30 15 1 3 15
M  V30 16 1 4 16
M  V30 17 1 6 17
M  V30 18 1 6 18
M  V30 19 1 7 19
M  V30 20 1 7 20
M  V30 21 1 7 21
M  V30 22 1 10 22
M  V30 23 1 11 23
M  V30 24 1 11 24
M  V30 25 1 11 25
M  V30 26 1 12 26
M  V30 27 1 13 27
M  V30 28 1 13 28
M  V30 29 1 13 29
M  V30 30 1 14 30
M  V30 END BOND
M  V30 BEGIN COLLECTION
M  V30 MDLV30/STERAC1 ATOMS=(1 4)
M  V30 END COLLECTION
M  V30 END CTAB
M  END
>  <Column 1>
2413

>  <level_0>
2598

>  <index>
2598

>  <Unnamed: 0>
2598

>  <NO.>
2610

>  <Name>
tocainide

>  <IUPAC_name>
2-amino-n-(2-6-dimethylphenyl)propanamide

>  <SMILES>
Cc1cccc(C)c1NC(=O)C(C)N

>  <CID>
38945

>  <logBB>


>  <BBB+/BBB->
BBB-

>  <Inchi>
InChI=1S/C11H16N2O/c1-7-5-4-6-8(2)10(7)13-11(14)9(3)12/h4-6-9H-12H2-1-3H3-(H-13-14)

>  <threshold>
-1

>  <reference>
R7|R14|R15|R29|

>  <group>
B

>  <Class>
-1

>  <ABC>
10.33

>  <ABCGG>
9.82

>  <nAcid>
0

>  <nBase>
1

>  <nAromAtom>
6

>  <nAromBond>
6

>  <nAtom>
30

>  <nHeavyAtom>
14

>  <nSpiro>
0

>  <nBridgehead>
0

>  <nHetero>
3

>  <nN>
2

>  <nO>
1

>  <nF>
0

>  <BalabanJ>
2.47

>  <BertzCT>
324.89

>  <nBonds>
30

>  <nBondsO>
14

>  <nBondsS>
23

>  <nBondsD>
1

>  <nBondsT>
0

>  <nBondsA>
6

>  <nBondsM>
7

>  <nBondsKS>
26

>  <nBondsKD>
4

>  <RNCG>
0.26

>  <RPCG>
0.19

>  <FCSP3>
0.36

>  <SZ>
17.33

>  <Sm>
16.01

>  <Sv>
17.57

>  <Sse>
29.76

>  <Sp>
19.19

>  <Si>
34.11

>  <MZ>
0.58

>  <Mm>
0.53

>  <Mv>
0.59

>  <Mse>
0.99

>  <Mp>
0.64

>  <Mi>
1.14

>  <NsCH3>
3

>  <NdCH2>
0

>  <NssCH2>
0

>  <NtCH>
0

>  <NdsCH>
0

>  <NaaCH>
3

>  <NsssCH>
1

>  <NddC>
0

>  <NtsC>
0

>  <NdssC>
1

>  <NaasC>
3

>  <NaaaC>
0

>  <NssssC>
0

>  <NsNH3>
0

>  <NsNH2>
1

>  <NssNH2>
0

>  <NdNH>
0

>  <NssNH>
1

>  <NaaNH>
0

>  <NtN>
0

>  <NsssNH>
0

>  <NdsN>
0

>  <NaaN>
0

>  <NsssN>
0

>  <NddsN>
0

>  <NaasN>
0

>  <NssssN>
0

>  <NsOH>
0

>  <NdO>
1

>  <NssO>
0

>  <NaaO>
0

>  <NsF>
0

>  <NsSiH3>
0

>  <NssSiH2>
0

>  <NsssSiH>
0

>  <NssssSi>
0

>  <NsPH2>
0

>  <NssPH>
0

>  <NsssP>
0

>  <NdsssP>
0

>  <NsssssP>
0

>  <NsSH>
0

>  <NdS>
0

>  <NssS>
0

>  <NaaS>
0

>  <NdssS>
0

>  <NddssS>
0

>  <NsCl>
0

>  <NsBr>
0

>  <NsI>
0

>  <fragCpx>
14.03

>  <fMF>
0.2

>  <nHBAcc>
2

>  <nHBDon>
2

>  <Kier1>
12.07

>  <Kier2>
5.19

>  <Lipinski>
1

>  <GhoseFilter>
1

>  <FilterItLogS>
-2.8

>  <VMcGowan>
163.62

>  <LabuteASA>
84.31

>  <PEOE_VSA1>
11.05

>  <PEOE_VSA2>
4.79

>  <PEOE_VSA3>
0

>  <PEOE_VSA4>
0

>  <PEOE_VSA5>
0

>  <PEOE_VSA6>
18.2

>  <PEOE_VSA7>
31.9

>  <PEOE_VSA8>
5.69

>  <PEOE_VSA9>
6.04

>  <PEOE_VSA10>
0

>  <PEOE_VSA11>
0

>  <PEOE_VSA12>
5.91

>  <PEOE_VSA13>
0

>  <SMR_VSA1>
4.79

>  <SMR_VSA2>
0

>  <SMR_VSA3>
0

>  <SMR_VSA4>
5.73

>  <SMR_VSA5>
26.81

>  <SMR_VSA6>
5.32

>  <SMR_VSA7>
29.33

>  <SMR_VSA8>
0

>  <SMR_VSA9>
0

>  <SlogP_VSA1>
11.05

>  <SlogP_VSA2>
11.95

>  <SlogP_VSA3>
4.79

>  <SlogP_VSA4>
13.85

>  <SlogP_VSA5>
18.05

>  <SlogP_VSA6>
18.2

>  <SlogP_VSA7>
0

>  <SlogP_VSA8>
0

>  <SlogP_VSA9>
0

>  <SlogP_VSA10>
5.69

>  <SlogP_VSA11>
0

>  <EState_VSA1>
6.04

>  <EState_VSA2>
5.91

>  <EState_VSA3>
0

>  <EState_VSA4>
16.81

>  <EState_VSA5>
0

>  <EState_VSA6>
6.92

>  <EState_VSA7>
32.05

>  <EState_VSA8>
5.32

>  <EState_VSA9>
5.73

>  <EState_VSA10>
4.79

>  <VSA_EState1>
0

>  <VSA_EState2>
11.38

>  <VSA_EState3>
2.81

>  <VSA_EState4>
8.45

>  <VSA_EState5>
-0.15

>  <VSA_EState6>
5.41

>  <VSA_EState7>
0

>  <VSA_EState8>
5.59

>  <VSA_EState9>
0

>  <apol>
32.04

>  <bpol>
16.92

>  <nRing>
1

>  <nHRing>
0

>  <naRing>
1

>  <naHRing>
0

>  <nARing 2>
0

>  <nAHRing 2>
0

>  <nFRing>
0

>  <nFHRing>
0

>  <nFaRing>
0

>  <nFaHRing>
0

>  <nFARing 2>
0

>  <nFAHRing 2>
0

>  <nRot>
2

>  <SLogP>
1.59

>  <SMR>
58.2

>  <TopoPSA(NO)>
55.12

>  <TopoPSA>
55.12

>  <JGI1>
0.25

>  <JGI2>
0.12

>  <JGI3>
0.05

>  <JGI4>
0.06

>  <JGI5>
0.03

>  <Diameter>
7

>  <Radius>
4

>  <TMWC10>
95.67

>  <TSRW10>
45.17

>  <MW>
192.13

>  <AMW>
6.4

>  <WPath>
304

>  <WPol>
19

>  <Zagreb1>
66

>  <Zagreb2>
74

>  <mZagreb2>
3.17

>  <yes>


>  <nAR-cont>
0.336376

>  <nHA-cont>
0.887625254

>  <MWHBN>
0.288577456

>  <MWHBN-cont>
0.873468762

>  <TPSA-cont>
0.615228173

>  <pka_cont>
0.97

>  <yes.1>


>  <BBB_SCORE>
4.249660742

>  <MMFF94 Energy>
48.753

$$$$
Compound 1981
Actelion Java MolfileCreator 2.0

  0  0  0  0  0  0              0 V3000
M  V30 BEGIN CTAB
M  V30 COUNTS 49 50 0 0 0
M  V30 BEGIN ATOM
M  V30 1 O 1.6501 6.771 -3.0661 0
M  V30 2 C 1.5833 5.5518 -3.1605 0
M  V30 3 N 1.7571 4.9373 -4.3686 0
M  V30 4 C 1.3451 4.6895 -1.972 0
M  V30 5 C 0.8239 3.3945 -2.0749 0
M  V30 6 C 1.6364 5.2116 -0.7075 0
M  V30 7 C 0.6153 2.6228 -0.9236 0
M  V30 8 C 1.4291 4.4372 0.4369 0
M  V30 9 C 0.9201 3.1405 0.3364 0
M  V30 10 O 0.7664 2.4935 1.5313 0
M  V30 11 C 0.2089 1.1768 1.4881 0
M  V30 12 C 0.1514 0.6327 2.9227 0
M  V30 13 N -0.3867 -0.7296 3.0032 0
M  V30 14 C -1.8592 -0.7465 2.952 0
M  V30 15 C -2.4352 -2.1754 2.8341 0 CFG=2
M  V30 16 O -1.7185 -3.0505 3.7172 0
M  V30 17 C -2.397 -2.7406 1.4036 0
M  V30 18 O -1.0425 -2.864 0.9671 0
M  V30 19 C -0.8209 -3.2622 -0.3241 0
M  V30 20 C 0.5257 -3.2787 -0.7317 0
M  V30 21 C -1.8184 -3.6465 -1.2252 0
M  V30 22 C 0.8467 -3.6651 -2.0417 0
M  V30 23 C 1.6216 -2.8786 0.2175 0
M  V30 24 C -1.4854 -4.033 -2.5259 0
M  V30 25 C -0.1553 -4.0403 -2.9345 0
M  V30 26 H 1.807 3.939 -4.4993 0
M  V30 27 H 1.9279 5.5356 -5.1664 0
M  V30 28 H 0.5485 2.973 -3.0364 0
M  V30 29 H 2.0291 6.2218 -0.6085 0
M  V30 30 H 0.2088 1.6238 -1.0476 0
M  V30 31 H 1.6643 4.8513 1.4146 0
M  V30 32 H 0.8445 0.5212 0.8813 0
M  V30 33 H -0.7984 1.2214 1.0594 0
M  V30 34 H -0.3981 1.321 3.5772 0
M  V30 35 H 1.1759 0.6188 3.3156 0
M  V30 36 H -0.1139 -1.1351 3.9019 0
M  V30 37 H -2.2473 -0.1375 2.1287 0
M  V30 38 H -2.2294 -0.3062 3.8867 0
M  V30 39 H -3.4779 -2.1589 3.1707 0
M  V30 40 H -0.8344 -3.1291 3.3039 0
M  V30 41 H -2.8551 -3.737 1.4106 0
M  V30 42 H -2.9573 -2.0722 0.7391 0
M  V30 43 H -2.8664 -3.6639 -0.9465 0
M  V30 44 H 1.8829 -3.68 -2.3718 0
M  V30 45 H 1.5213 -1.8231 0.4868 0
M  V30 46 H 2.6111 -3.0168 -0.2306 0
M  V30 47 H 1.5836 -3.4911 1.1242 0
M  V30 48 H -2.2672 -4.3325 -3.2192 0
M  V30 49 H 0.1027 -4.3432 -3.9458 0
M  V30 END ATOM
M  V30 BEGIN BOND
M  V30 1 2 1 2
M  V30 2 1 2 3
M  V30 3 1 2 4
M  V30 4 2 4 5
M  V30 5 1 4 6
M  V30 6 1 5 7
M  V30 7 2 6 8
M  V30 8 2 7 9
M  V30 9 1 9 10
M  V30 10 1 10 11
M  V30 11 1 11 12
M  V30 12 1 12 13
M  V30 13 1 13 14
M  V30 14 1 14 15
M  V30 15 1 15 16
M  V30 16 1 15 17
M  V30 17 1 17 18
M  V30 18 1 18 19
M  V30 19 2 19 20
M  V30 20 1 19 21
M  V30 21 1 20 22
M  V30 22 1 20 23
M  V30 23 2 21 24
M  V30 24 2 22 25
M  V30 25 1 8 9
M  V30 26 1 24 25
M  V30 27 1 3 26
M  V30 28 1 3 27
M  V30 29 1 5 28
M  V30 30 1 6 29
M  V30 31 1 7 30
M  V30 32 1 8 31
M  V30 33 1 11 32
M  V30 34 1 11 33
M  V30 35 1 12 34
M  V30 36 1 12 35
M  V30 37 1 13 36
M  V30 38 1 14 37
M  V30 39 1 14 38
M  V30 40 1 15 39
M  V30 41 1 16 40
M  V30 42 1 17 41
M  V30 43 1 17 42
M  V30 44 1 21 43
M  V30 45 1 22 44
M  V30 46 1 23 45
M  V30 47 1 23 46
M  V30 48 1 23 47
M  V30 49 1 24 48
M  V30 50 1 25 49
M  V30 END BOND
M  V30 BEGIN COLLECTION
M  V30 MDLV30/STERAC1 ATOMS=(1 15)
M  V30 END COLLECTION
M  V30 END CTAB
M  END
>  <Column 1>
2414

>  <level_0>
2599

>  <index>
2599

>  <Unnamed: 0>
2599

>  <NO.>
2611

>  <Name>
tolamolol

>  <IUPAC_name>
4-[2-[[2-hydroxy-3-(2-methylphenoxy)propyl]amino]ethoxy]benzamide

>  <SMILES>
Cc1ccccc1OCC(O)CNCCOc1ccc(C(N)=O)cc1

>  <CID>
37910

>  <logBB>


>  <BBB+/BBB->
BBB-

>  <Inchi>
InChI=1S/C19H24N2O4/c1-14-4-2-3-5-18(14)25-13-16(22)12-21-10-11-24-17-8-6-15(7-9-17)19(20)23/h2-9-16-21-22H-10-13H2-1H3-(H2-20-23)

>  <threshold>
-1

>  <reference>
R7|R29|

>  <group>
B

>  <Class>
-1

>  <ABC>
18.74

>  <ABCGG>
14.18

>  <nAcid>
0

>  <nBase>
1

>  <nAromAtom>
12

>  <nAromBond>
12

>  <nAtom>
49

>  <nHeavyAtom>
25

>  <nSpiro>
0

>  <nBridgehead>
0

>  <nHetero>
6

>  <nN>
2

>  <nO>
4

>  <nF>
0

>  <BalabanJ>
1.45

>  <BertzCT>
673.38

>  <nBonds>
50

>  <nBondsO>
26

>  <nBondsS>
37

>  <nBondsD>
1

>  <nBondsT>
0

>  <nBondsA>
12

>  <nBondsM>
13

>  <nBondsKS>
43

>  <nBondsKD>
7

>  <RNCG>
0.18

>  <RPCG>
0.09

>  <FCSP3>
0.32

>  <SZ>
30.67

>  <Sm>
28.67

>  <Sv>
29.88

>  <Sse>
49.3

>  <Sp>
31.82

>  <Si>
55.4

>  <MZ>
0.63

>  <Mm>
0.59

>  <Mv>
0.61

>  <Mse>
1.01

>  <Mp>
0.65

>  <Mi>
1.13

>  <NsCH3>
1

>  <NdCH2>
0

>  <NssCH2>
4

>  <NtCH>
0

>  <NdsCH>
0

>  <NaaCH>
8

>  <NsssCH>
1

>  <NddC>
0

>  <NtsC>
0

>  <NdssC>
1

>  <NaasC>
4

>  <NaaaC>
0

>  <NssssC>
0

>  <NsNH3>
0

>  <NsNH2>
1

>  <NssNH2>
0

>  <NdNH>
0

>  <NssNH>
1

>  <NaaNH>
0

>  <NtN>
0

>  <NsssNH>
0

>  <NdsN>
0

>  <NaaN>
0

>  <NsssN>
0

>  <NddsN>
0

>  <NaasN>
0

>  <NssssN>
0

>  <NsOH>
1

>  <NdO>
1

>  <NssO>
2

>  <NaaO>
0

>  <NsF>
0

>  <NsSiH3>
0

>  <NssSiH2>
0

>  <NsssSiH>
0

>  <NssssSi>
0

>  <NsPH2>
0

>  <NssPH>
0

>  <NsssP>
0

>  <NdsssP>
0

>  <NsssssP>
0

>  <NsSH>
0

>  <NdS>
0

>  <NssS>
0

>  <NaaS>
0

>  <NdssS>
0

>  <NddssS>
0

>  <NsCl>
0

>  <NsBr>
0

>  <NsI>
0

>  <fragCpx>
76.06

>  <fMF>
0.41

>  <nHBAcc>
5

>  <nHBDon>
3

>  <Kier1>
21.3

>  <Kier2>
11.66

>  <Lipinski>
1

>  <GhoseFilter>
1

>  <FilterItLogS>
-4.27

>  <VMcGowan>
270.19

>  <LabuteASA>
147.12

>  <PEOE_VSA1>
25.63

>  <PEOE_VSA2>
4.79

>  <PEOE_VSA3>
0

>  <PEOE_VSA4>
0

>  <PEOE_VSA5>
0

>  <PEOE_VSA6>
18.2

>  <PEOE_VSA7>
42.82

>  <PEOE_VSA8>
18.65

>  <PEOE_VSA9>
0

>  <PEOE_VSA10>
30.82

>  <PEOE_VSA11>
0

>  <PEOE_VSA12>
5.91

>  <PEOE_VSA13>
0

>  <SMR_VSA1>
19.37

>  <SMR_VSA2>
0

>  <SMR_VSA3>
5.32

>  <SMR_VSA4>
5.73

>  <SMR_VSA5>
13.03

>  <SMR_VSA6>
26.3

>  <SMR_VSA7>
59.66

>  <SMR_VSA8>
0

>  <SMR_VSA9>
11.5

>  <SlogP_VSA1>
20.52

>  <SlogP_VSA2>
43.42

>  <SlogP_VSA3>
0

>  <SlogP_VSA4>
6.92

>  <SlogP_VSA5>
15.92

>  <SlogP_VSA6>
48.53

>  <SlogP_VSA7>
0

>  <SlogP_VSA8>
0

>  <SlogP_VSA9>
0

>  <SlogP_VSA10>
0

>  <SlogP_VSA11>
11.5

>  <EState_VSA1>
12.01

>  <EState_VSA2>
6.61

>  <EState_VSA3>
31.01

>  <EState_VSA4>
11.31

>  <EState_VSA5>
0

>  <EState_VSA6>
24.27

>  <EState_VSA7>
31.19

>  <EState_VSA8>
5.32

>  <EState_VSA9>
15.21

>  <EState_VSA10>
9.9

>  <VSA_EState1>
11.14

>  <VSA_EState2>
10.98

>  <VSA_EState3>
13.03

>  <VSA_EState4>
6.66

>  <VSA_EState5>
0.98

>  <VSA_EState6>
14.34

>  <VSA_EState7>
-0.6

>  <VSA_EState8>
3.64

>  <VSA_EState9>
0

>  <apol>
53.14

>  <bpol>
28.42

>  <nRing>
2

>  <nHRing>
0

>  <naRing>
2

>  <naHRing>
0

>  <nARing 2>
0

>  <nAHRing 2>
0

>  <nFRing>
0

>  <nFHRing>
0

>  <nFaRing>
0

>  <nFaHRing>
0

>  <nFARing 2>
0

>  <nFAHRing 2>
0

>  <nRot>
10

>  <SLogP>
1.5

>  <SMR>
96.01

>  <TopoPSA(NO)>
93.81

>  <TopoPSA>
93.81

>  <JGI1>
0.17

>  <JGI2>
0.08

>  <JGI3>
0.03

>  <JGI4>
0.03

>  <JGI5>
0.03

>  <Diameter>
17

>  <Radius>
9

>  <TMWC10>
122.92

>  <TSRW10>
58.71

>  <MW>
344.17

>  <AMW>
7.02

>  <WPath>
2040

>  <WPol>
32

>  <Zagreb1>
118

>  <Zagreb2>
130

>  <mZagreb2>
5.72

>  <yes>


>  <nAR-cont>
0.336376

>  <nHA-cont>
0.921834225

>  <MWHBN>
0.431224553

>  <MWHBN-cont>
0.355080992

>  <TPSA-cont>
0.345147947

>  <pka_cont>
0.97

>  <yes.1>


>  <BBB_SCORE>
2.966127608

>  <MMFF94 Energy>
85.45

$$$$
Compound 1982
Actelion Java MolfileCreator 2.0

  0  0  0  0  0  0              0 V3000
M  V30 BEGIN CTAB
M  V30 COUNTS 30 31 0 0 0
M  V30 BEGIN ATOM
M  V30 1 O -1.8027 -3.7651 2.1165 0
M  V30 2 N -1.1998 -2.6847 1.4674 0
M  V30 3 C -0.6528 -1.7124 2.2787 0
M  V30 4 C -1.2412 -2.573 0.0926 0
M  V30 5 N -0.1619 -0.5477 1.7586 0
M  V30 6 N -0.576 -1.8197 3.5675 0
M  V30 7 N -1.7502 -3.5779 -0.6881 0
M  V30 8 C -0.7466 -1.4487 -0.4533 0
M  V30 9 C -0.2025 -0.3813 0.4609 0
M  V30 10 N 0.291 0.8118 -0.0696 0
M  V30 11 C -0.3144 1.4816 -1.2219 0
M  V30 12 C 1.1351 1.6847 0.7622 0
M  V30 13 C 0.7657 2.0998 -2.1048 0
M  V30 14 C 2.2321 2.3259 -0.0867 0
M  V30 15 C 1.6561 3.0431 -1.3027 0
M  V30 16 H -2.7321 -3.4713 2.1533 0
M  V30 17 H -0.9489 -2.749 3.7835 0
M  V30 18 H -1.9251 -4.4654 -0.2303 0
M  V30 19 H -1.6888 -3.5335 -1.696 0
M  V30 20 H -0.6995 -1.297 -1.5197 0
M  V30 21 H -0.9171 0.804 -1.8325 0
M  V30 22 H -0.9979 2.2613 -0.8627 0
M  V30 23 H 0.5118 2.4558 1.2308 0
M  V30 24 H 1.6253 1.1242 1.5666 0
M  V30 25 H 0.3011 2.645 -2.9339 0
M  V30 26 H 1.3806 1.3042 -2.5437 0
M  V30 27 H 2.9293 1.549 -0.4253 0
M  V30 28 H 2.8079 3.0313 0.5226 0
M  V30 29 H 2.4685 3.418 -1.935 0
M  V30 30 H 1.0729 3.9126 -0.9757 0
M  V30 END ATOM
M  V30 BEGIN BOND
M  V30 1 1 1 2
M  V30 2 1 2 3
M  V30 3 1 2 4
M  V30 4 1 3 5
M  V30 5 2 3 6
M  V30 6 1 4 7
M  V30 7 2 4 8
M  V30 8 2 5 9
M  V30 9 1 9 10
M  V30 10 1 10 11
M  V30 11 1 10 12
M  V30 12 1 11 13
M  V30 13 1 12 14
M  V30 14 1 13 15
M  V30 15 1 8 9
M  V30 16 1 14 15
M  V30 17 1 1 16
M  V30 18 1 6 17
M  V30 19 1 7 18
M  V30 20 1 7 19
M  V30 21 1 8 20
M  V30 22 1 11 21
M  V30 23 1 11 22
M  V30 24 1 12 23
M  V30 25 1 12 24
M  V30 26 1 13 25
M  V30 27 1 13 26
M  V30 28 1 14 27
M  V30 29 1 14 28
M  V30 30 1 15 29
M  V30 31 1 15 30
M  V30 END BOND
M  V30 END CTAB
M  END
>  <Column 1>
2416

>  <level_0>
2601

>  <index>
2601

>  <Unnamed: 0>
2601

>  <NO.>
2613

>  <Name>
minoxidil

>  <IUPAC_name>
3-hydroxy-2-imino-6-piperidin-1-ylpyrimidin-4-amine

>  <SMILES>
N=c1nc(N2CCCCC2)cc(N)n1O

>  <CID>
135743713

>  <logBB>


>  <BBB+/BBB->
BBB-

>  <Inchi>
InChI=1S/C9H15N5O/c10-7-6-8(12-9(11)14(7)15)13-4-2-1-3-5-13/h6-11-15H-1-5-10H2

>  <threshold>
-1

>  <reference>
R7|R14|R15|R23|R29|

>  <group>
B

>  <Class>
-1

>  <ABC>
11.52

>  <ABCGG>
10.01

>  <nAcid>
0

>  <nBase>
0

>  <nAromAtom>
6

>  <nAromBond>
6

>  <nAtom>
30

>  <nHeavyAtom>
15

>  <nSpiro>
0

>  <nBridgehead>
0

>  <nHetero>
6

>  <nN>
5

>  <nO>
1

>  <nF>
0

>  <BalabanJ>
1.92

>  <BertzCT>
407.45

>  <nBonds>
31

>  <nBondsO>
16

>  <nBondsS>
24

>  <nBondsD>
1

>  <nBondsT>
0

>  <nBondsA>
6

>  <nBondsM>
7

>  <nBondsKS>
28

>  <nBondsKD>
3

>  <RNCG>
0.23

>  <RPCG>
0.17

>  <FCSP3>
0.56

>  <SZ>
18.67

>  <Sm>
17.42

>  <Sv>
17.57

>  <Sse>
30.31

>  <Sp>
18.76

>  <Si>
34.78

>  <MZ>
0.62

>  <Mm>
0.58

>  <Mv>
0.59

>  <Mse>
1.01

>  <Mp>
0.63

>  <Mi>
1.16

>  <NsCH3>
0

>  <NdCH2>
0

>  <NssCH2>
5

>  <NtCH>
0

>  <NdsCH>
0

>  <NaaCH>
1

>  <NsssCH>
0

>  <NddC>
0

>  <NtsC>
0

>  <NdssC>
0

>  <NaasC>
2

>  <NaaaC>
0

>  <NssssC>
0

>  <NsNH3>
0

>  <NsNH2>
1

>  <NssNH2>
0

>  <NdNH>
1

>  <NssNH>
0

>  <NaaNH>
0

>  <NtN>
0

>  <NsssNH>
0

>  <NdsN>
0

>  <NaaN>
1

>  <NsssN>
1

>  <NddsN>
0

>  <NaasN>
1

>  <NssssN>
0

>  <NsOH>
1

>  <NdO>
0

>  <NssO>
0

>  <NaaO>
0

>  <NsF>
0

>  <NsSiH3>
0

>  <NssSiH2>
0

>  <NsssSiH>
0

>  <NssssSi>
0

>  <NsPH2>
0

>  <NssPH>
0

>  <NsssP>
0

>  <NdsssP>
0

>  <NsssssP>
0

>  <NsSH>
0

>  <NdS>
0

>  <NssS>
0

>  <NaaS>
0

>  <NdssS>
0

>  <NddssS>
0

>  <NsCl>
0

>  <NsBr>
0

>  <NsI>
0

>  <fragCpx>
46.06

>  <fMF>
0.4

>  <nHBAcc>
6

>  <nHBDon>
3

>  <Kier1>
11.48

>  <Kier2>
4.89

>  <Lipinski>
1

>  <GhoseFilter>
1

>  <FilterItLogS>
-0.52

>  <VMcGowan>
158.82

>  <LabuteASA>
87.43

>  <PEOE_VSA1>
15.84

>  <PEOE_VSA2>
5.41

>  <PEOE_VSA3>
0

>  <PEOE_VSA4>
4.98

>  <PEOE_VSA5>
4.73

>  <PEOE_VSA6>
0

>  <PEOE_VSA7>
19.26

>  <PEOE_VSA8>
19.16

>  <PEOE_VSA9>
0

>  <PEOE_VSA10>
11.64

>  <PEOE_VSA11>
0

>  <PEOE_VSA12>
0

>  <PEOE_VSA13>
5.62

>  <SMR_VSA1>
5.21

>  <SMR_VSA2>
5.41

>  <SMR_VSA3>
9.71

>  <SMR_VSA4>
0

>  <SMR_VSA5>
19.26

>  <SMR_VSA6>
23.72

>  <SMR_VSA7>
11.68

>  <SMR_VSA8>
0

>  <SMR_VSA9>
0

>  <SlogP_VSA1>
16.25

>  <SlogP_VSA2>
28.01

>  <SlogP_VSA3>
0

>  <SlogP_VSA4>
5.41

>  <SlogP_VSA5>
19.26

>  <SlogP_VSA6>
6.07

>  <SlogP_VSA7>
0

>  <SlogP_VSA8>
0

>  <SlogP_VSA9>
0

>  <SlogP_VSA10>
11.64

>  <SlogP_VSA11>
0

>  <EState_VSA1>
0

>  <EState_VSA2>
11.44

>  <EState_VSA3>
10.55

>  <EState_VSA4>
25.93

>  <EState_VSA5>
6.42

>  <EState_VSA6>
6.07

>  <EState_VSA7>
0

>  <EState_VSA8>
9.88

>  <EState_VSA9>
11.14

>  <EState_VSA10>
5.21

>  <VSA_EState1>
0.58

>  <VSA_EState2>
6.08

>  <VSA_EState3>
16.67

>  <VSA_EState4>
5.33

>  <VSA_EState5>
0.83

>  <VSA_EState6>
1.6

>  <VSA_EState7>
3.53

>  <VSA_EState8>
1.89

>  <VSA_EState9>
0

>  <apol>
31.33

>  <bpol>
17.9

>  <nRing>
2

>  <nHRing>
2

>  <naRing>
1

>  <naHRing>
1

>  <nARing 2>
1

>  <nAHRing 2>
1

>  <nFRing>
0

>  <nFHRing>
0

>  <nFaRing>
0

>  <nFaHRing>
0

>  <nFARing 2>
0

>  <nFAHRing 2>
0

>  <nRot>
1

>  <SLogP>
0.17

>  <SMR>
55.74

>  <TopoPSA(NO)>
91.16

>  <TopoPSA>
91.16

>  <JGI1>
0.19

>  <JGI2>
0.09

>  <JGI3>
0.04

>  <JGI4>
0.05

>  <JGI5>
0.04

>  <Diameter>
8

>  <Radius>
4

>  <TMWC10>
100.78

>  <TSRW10>
47.07

>  <MW>
209.13

>  <AMW>
6.97

>  <WPath>
358

>  <WPol>
22

>  <Zagreb1>
76

>  <Zagreb2>
88

>  <mZagreb2>
3.33

>  <yes>


>  <nAR-cont>
0.816016

>  <nHA-cont>
0.92539861

>  <MWHBN>
0.622349494

>  <MWHBN-cont>
0

>  <TPSA-cont>
0.363646593

>  <pka_cont>
0.97

>  <yes.1>


>  <BBB_SCORE>
2.953707797

>  <MMFF94 Energy>
-63.187

$$$$
Compound 1983
Actelion Java MolfileCreator 2.0

  0  0  0  0  0  0              0 V3000
M  V30 BEGIN CTAB
M  V30 COUNTS 22 22 0 0 0
M  V30 BEGIN ATOM
M  V30 1 Cl 0.6463 0.0807 2.2635 0
M  V30 2 C 0.0692 1.3949 1.2953 0
M  V30 3 C -0.0925 1.3362 -0.0997 0
M  V30 4 C -0.1941 2.5874 1.9862 0
M  V30 5 C -0.5071 2.4954 -0.7797 0
M  V30 6 C 0.1615 0.1076 -0.8824 0
M  V30 7 C -0.6119 3.7265 1.3034 0
M  V30 8 Cl -0.7606 2.5483 -2.4924 0
M  V30 9 C -0.7653 3.6804 -0.0783 0
M  V30 10 N -7.0E-4 -1.0809 -0.3967 0
M  V30 11 N 0.2909 -2.0525 -1.3615 0
M  V30 12 C 0.37 -3.2429 -0.8512 0
M  V30 13 N 0.6286 -4.33 -1.6001 0
M  V30 14 N 0.2217 -3.5413 0.4546 0
M  V30 15 H -0.0656 2.634 3.0664 0
M  V30 16 H 0.4804 0.2303 -1.9327 0
M  V30 17 H -0.8136 4.647 1.8468 0
M  V30 18 H -1.0931 4.573 -0.6081 0
M  V30 19 H 0.9295 -5.1939 -1.1821 0
M  V30 20 H 0.7787 -4.1888 -2.589 0
M  V30 21 H 0.014 -2.7358 1.0363 0
M  V30 22 H -0.0473 -4.4551 0.7724 0
M  V30 END ATOM
M  V30 BEGIN BOND
M  V30 1 1 1 2
M  V30 2 2 2 3
M  V30 3 1 2 4
M  V30 4 1 3 5
M  V30 5 1 3 6
M  V30 6 2 4 7
M  V30 7 1 5 8
M  V30 8 2 5 9
M  V30 9 2 6 10
M  V30 10 1 10 11
M  V30 11 2 11 12
M  V30 12 1 12 13
M  V30 13 1 12 14
M  V30 14 1 7 9
M  V30 15 1 4 15
M  V30 16 1 6 16
M  V30 17 1 7 17
M  V30 18 1 9 18
M  V30 19 1 13 19
M  V30 20 1 13 20
M  V30 21 1 14 21
M  V30 22 1 14 22
M  V30 END BOND
M  V30 END CTAB
M  END
>  <Column 1>
2417

>  <level_0>
2602

>  <index>
2602

>  <Unnamed: 0>
2602

>  <NO.>
2614

>  <Name>
guanabenz

>  <IUPAC_name>
2-[(e)-(2-6-dichlorophenyl)methylideneamino]guanidine

>  <SMILES>
NC(N)=N/N=C/c1c(Cl)cccc1Cl

>  <CID>
5353646

>  <logBB>


>  <BBB+/BBB->
BBB-

>  <Inchi>
InChI=1S/C8H8Cl2N4/c9-6-2-1-3-7(10)5(6)4-13-14-8(11)12/h1-4H-(H4-11-12-14)/b13-4+

>  <threshold>
-1

>  <reference>
R7|R29|

>  <group>
B

>  <Class>
1

>  <ABC>
10.26

>  <ABCGG>
9.41

>  <nAcid>
0

>  <nBase>
3

>  <nAromAtom>
6

>  <nAromBond>
6

>  <nAtom>
22

>  <nHeavyAtom>
14

>  <nSpiro>
0

>  <nBridgehead>
0

>  <nHetero>
6

>  <nN>
4

>  <nO>
0

>  <nF>
0

>  <BalabanJ>
2.26

>  <BertzCT>
362.68

>  <nBonds>
22

>  <nBondsO>
14

>  <nBondsS>
14

>  <nBondsD>
2

>  <nBondsT>
0

>  <nBondsA>
6

>  <nBondsM>
8

>  <nBondsKS>
17

>  <nBondsKD>
5

>  <RNCG>
0.28

>  <RPCG>
0.16

>  <FCSP3>
0

>  <SZ>
19.67

>  <Sm>
19.24

>  <Sv>
15.38

>  <Sse>
22.73

>  <Sp>
16.44

>  <Si>
25.13

>  <MZ>
0.89

>  <Mm>
0.87

>  <Mv>
0.7

>  <Mse>
1.03

>  <Mp>
0.75

>  <Mi>
1.14

>  <NsCH3>
0

>  <NdCH2>
0

>  <NssCH2>
0

>  <NtCH>
0

>  <NdsCH>
1

>  <NaaCH>
3

>  <NsssCH>
0

>  <NddC>
0

>  <NtsC>
0

>  <NdssC>
1

>  <NaasC>
3

>  <NaaaC>
0

>  <NssssC>
0

>  <NsNH3>
0

>  <NsNH2>
2

>  <NssNH2>
0

>  <NdNH>
0

>  <NssNH>
0

>  <NaaNH>
0

>  <NtN>
0

>  <NsssNH>
0

>  <NdsN>
2

>  <NaaN>
0

>  <NsssN>
0

>  <NddsN>
0

>  <NaasN>
0

>  <NssssN>
0

>  <NsOH>
0

>  <NdO>
0

>  <NssO>
0

>  <NaaO>
0

>  <NsF>
0

>  <NsSiH3>
0

>  <NssSiH2>
0

>  <NsssSiH>
0

>  <NssssSi>
0

>  <NsPH2>
0

>  <NssPH>
0

>  <NsssP>
0

>  <NdsssP>
0

>  <NsssssP>
0

>  <NsSH>
0

>  <NdS>
0

>  <NssS>
0

>  <NaaS>
0

>  <NdssS>
0

>  <NddssS>
0

>  <NsCl>
2

>  <NsBr>
0

>  <NsI>
0

>  <fragCpx>
14.06

>  <fMF>
0.27

>  <nHBAcc>
2

>  <nHBDon>
2

>  <Kier1>
12.07

>  <Kier2>
5.78

>  <Lipinski>
1

>  <GhoseFilter>
1

>  <FilterItLogS>
-2.65

>  <VMcGowan>
155.62

>  <LabuteASA>
91.21

>  <PEOE_VSA1>
11.47

>  <PEOE_VSA2>
0

>  <PEOE_VSA3>
0

>  <PEOE_VSA4>
5.1

>  <PEOE_VSA5>
5.1

>  <PEOE_VSA6>
29.27

>  <PEOE_VSA7>
12.13

>  <PEOE_VSA8>
5.56

>  <PEOE_VSA9>
16.26

>  <PEOE_VSA10>
0

>  <PEOE_VSA11>
0

>  <PEOE_VSA12>
5.96

>  <PEOE_VSA13>
0

>  <SMR_VSA1>
0

>  <SMR_VSA2>
0

>  <SMR_VSA3>
0

>  <SMR_VSA4>
21.67

>  <SMR_VSA5>
0

>  <SMR_VSA6>
0

>  <SMR_VSA7>
33.81

>  <SMR_VSA8>
0

>  <SMR_VSA9>
0

>  <SlogP_VSA1>
11.47

>  <SlogP_VSA2>
12.17

>  <SlogP_VSA3>
0

>  <SlogP_VSA4>
0

>  <SlogP_VSA5>
5.56

>  <SlogP_VSA6>
28.4

>  <SlogP_VSA7>
10.05

>  <SlogP_VSA8>
0

>  <SlogP_VSA9>
0

>  <SlogP_VSA10>
0

>  <SlogP_VSA11>
0

>  <EState_VSA1>
0

>  <EState_VSA2>
5.96

>  <EState_VSA3>
15.61

>  <EState_VSA4>
0

>  <EState_VSA5>
6.21

>  <EState_VSA6>
18.2

>  <EState_VSA7>
0

>  <EState_VSA8>
10.2

>  <EState_VSA9>
34.67

>  <EState_VSA10>
0

>  <VSA_EState1>
0

>  <VSA_EState2>
0

>  <VSA_EState3>
8.02

>  <VSA_EState4>
10.75

>  <VSA_EState5>
-0.12

>  <VSA_EState6>
5.14

>  <VSA_EState7>
1.39

>  <VSA_EState8>
0

>  <VSA_EState9>
0

>  <apol>
27.45

>  <bpol>
9.05

>  <nRing>
1

>  <nHRing>
0

>  <naRing>
1

>  <naHRing>
0

>  <nARing 2>
0

>  <nAHRing 2>
0

>  <nFRing>
0

>  <nFHRing>
0

>  <nFaRing>
0

>  <nFaHRing>
0

>  <nFARing 2>
0

>  <nFAHRing 2>
0

>  <nRot>
2

>  <SLogP>
1.6

>  <SMR>
59.87

>  <TopoPSA(NO)>
76.76

>  <TopoPSA>
76.76

>  <JGI1>
0.21

>  <JGI2>
0.1

>  <JGI3>
0.06

>  <JGI4>
0.04

>  <JGI5>
0.02

>  <Diameter>
8

>  <Radius>
4

>  <TMWC10>
94.66

>  <TSRW10>
44.8

>  <MW>
230.01

>  <AMW>
10.46

>  <WPath>
331

>  <WPol>
17

>  <Zagreb1>
64

>  <Zagreb2>
70

>  <mZagreb2>
3.22

>  <yes>


>  <nAR-cont>
0.336376

>  <nHA-cont>
0.887625254

>  <MWHBN>
0.263746456

>  <MWHBN-cont>
0.933768248

>  <TPSA-cont>
0.464167535

>  <pka_cont>
0.97

>  <yes.1>


>  <BBB_SCORE>
4.037988696

>  <MMFF94 Energy>
-77.283

$$$$
Compound 1984
Actelion Java MolfileCreator 2.0

  0  0  0  0  0  0              0 V3000
M  V30 BEGIN CTAB
M  V30 COUNTS 28 28 0 0 0
M  V30 BEGIN ATOM
M  V30 1 Cl 3.8313 -3.0968 -1.5475 0
M  V30 2 C 2.6396 -2.0406 -0.8954 0
M  V30 3 C 1.6514 -2.5464 -0.0557 0
M  V30 4 C 2.6691 -0.6848 -1.2105 0
M  V30 5 C 0.6835 -1.6888 0.4723 0
M  V30 6 C 1.7011 0.1732 -0.6822 0
M  V30 7 C 0.695 -0.3184 0.1652 0
M  V30 8 C -0.3708 0.594 0.7575 0 CFG=2
M  V30 9 C -1.2338 1.2706 -0.318 0
M  V30 10 C 0.2897 1.628 1.6996 0
M  V30 11 P -2.3469 0.21 -1.206 0
M  V30 12 N -0.6909 2.3997 2.464 0
M  V30 13 O -3.3618 0.8588 -2.0865 0
M  V30 14 O -3.0443 -0.743 -0.1224 0
M  V30 15 O -1.4659 -0.8452 -2.0222 0
M  V30 16 H 1.6244 -3.6045 0.1885 0
M  V30 17 H 3.4384 -0.2893 -1.8678 0
M  V30 18 H -0.0886 -2.1018 1.1186 0
M  V30 19 H 1.7404 1.2281 -0.9444 0
M  V30 20 H -1.0371 -0.0233 1.3749 0
M  V30 21 H -0.6127 1.8144 -1.0384 0
M  V30 22 H -1.8737 2.0233 0.1565 0
M  V30 23 H 0.9078 2.3286 1.1264 0
M  V30 24 H 0.9553 1.1187 2.4073 0
M  V30 25 H -0.1999 3.0383 3.0899 0
M  V30 26 H -1.2239 1.7726 3.0668 0
M  V30 27 H -3.8218 -1.2074 -0.4834 0
M  V30 28 H -1.9737 -1.3348 -2.6939 0
M  V30 END ATOM
M  V30 BEGIN BOND
M  V30 1 1 1 2
M  V30 2 2 2 3
M  V30 3 1 2 4
M  V30 4 1 3 5
M  V30 5 2 4 6
M  V30 6 2 5 7
M  V30 7 1 7 8
M  V30 8 1 8 9
M  V30 9 1 8 10
M  V30 10 1 9 11
M  V30 11 1 10 12
M  V30 12 2 11 13
M  V30 13 1 11 14
M  V30 14 1 11 15
M  V30 15 1 6 7
M  V30 16 1 3 16
M  V30 17 1 4 17
M  V30 18 1 5 18
M  V30 19 1 6 19
M  V30 20 1 8 20
M  V30 21 1 9 21
M  V30 22 1 9 22
M  V30 23 1 10 23
M  V30 24 1 10 24
M  V30 25 1 12 25
M  V30 26 1 12 26
M  V30 27 1 14 27
M  V30 28 1 15 28
M  V30 END BOND
M  V30 BEGIN COLLECTION
M  V30 MDLV30/STERAC1 ATOMS=(1 8)
M  V30 END COLLECTION
M  V30 END CTAB
M  END
>  <Column 1>
2418

>  <level_0>
2603

>  <index>
2603

>  <Unnamed: 0>
2603

>  <NO.>
2615

>  <Name>
phaclofen

>  <IUPAC_name>
[3-amino-2-(4-chlorophenyl)propyl]phosphonic acid

>  <SMILES>
NCC(CP(=O)(O)O)c1ccc(Cl)cc1

>  <CID>
1641

>  <logBB>


>  <BBB+/BBB->
BBB+

>  <Inchi>
InChI=1S/C9H13ClNO3P/c10-9-3-1-7(2-4-9)8(5-11)6-15(12-13)14/h1-4-8H-5-6-11H2-(H2-12-13-14)

>  <threshold>
-1

>  <reference>
R7|R29|

>  <group>
B

>  <Class>
1

>  <ABC>
11.15

>  <ABCGG>
10.32

>  <nAcid>
2

>  <nBase>
1

>  <nAromAtom>
6

>  <nAromBond>
6

>  <nAtom>
28

>  <nHeavyAtom>
15

>  <nSpiro>
0

>  <nBridgehead>
0

>  <nHetero>
6

>  <nN>
1

>  <nO>
3

>  <nF>
0

>  <BalabanJ>
2.44

>  <BertzCT>
362.13

>  <nBonds>
28

>  <nBondsO>
15

>  <nBondsS>
21

>  <nBondsD>
1

>  <nBondsT>
0

>  <nBondsA>
6

>  <nBondsM>
7

>  <nBondsKS>
24

>  <nBondsKD>
4

>  <RNCG>
0.21

>  <RPCG>
0.21

>  <FCSP3>
0.33

>  <SZ>
21.67

>  <Sm>
20.78

>  <Sv>
17.7

>  <Sse>
28.61

>  <Sp>
19.77

>  <Si>
31.7

>  <MZ>
0.77

>  <Mm>
0.74

>  <Mv>
0.63

>  <Mse>
1.02

>  <Mp>
0.71

>  <Mi>
1.13

>  <NsCH3>
0

>  <NdCH2>
0

>  <NssCH2>
2

>  <NtCH>
0

>  <NdsCH>
0

>  <NaaCH>
4

>  <NsssCH>
1

>  <NddC>
0

>  <NtsC>
0

>  <NdssC>
0

>  <NaasC>
2

>  <NaaaC>
0

>  <NssssC>
0

>  <NsNH3>
0

>  <NsNH2>
1

>  <NssNH2>
0

>  <NdNH>
0

>  <NssNH>
0

>  <NaaNH>
0

>  <NtN>
0

>  <NsssNH>
0

>  <NdsN>
0

>  <NaaN>
0

>  <NsssN>
0

>  <NddsN>
0

>  <NaasN>
0

>  <NssssN>
0

>  <NsOH>
2

>  <NdO>
1

>  <NssO>
0

>  <NaaO>
0

>  <NsF>
0

>  <NsSiH3>
0

>  <NssSiH2>
0

>  <NsssSiH>
0

>  <NssssSi>
0

>  <NsPH2>
0

>  <NssPH>
0

>  <NsssP>
0

>  <NdsssP>
1

>  <NsssssP>
0

>  <NsSH>
0

>  <NdS>
0

>  <NssS>
0

>  <NaaS>
0

>  <NdssS>
0

>  <NddssS>
0

>  <NsCl>
1

>  <NsBr>
0

>  <NsI>
0

>  <fragCpx>
15.06

>  <fMF>
0.21

>  <nHBAcc>
2

>  <nHBDon>
3

>  <Kier1>
13.07

>  <Kier2>
5.37

>  <Lipinski>
1

>  <GhoseFilter>
1

>  <FilterItLogS>
-1.78

>  <VMcGowan>
174.2

>  <LabuteASA>
93.22

>  <PEOE_VSA1>
15.52

>  <PEOE_VSA2>
4.57

>  <PEOE_VSA3>
0

>  <PEOE_VSA4>
0

>  <PEOE_VSA5>
0

>  <PEOE_VSA6>
23.73

>  <PEOE_VSA7>
24.24

>  <PEOE_VSA8>
10.94

>  <PEOE_VSA9>
6.16

>  <PEOE_VSA10>
0

>  <PEOE_VSA11>
0

>  <PEOE_VSA12>
0

>  <PEOE_VSA13>
0

>  <SMR_VSA1>
14.35

>  <SMR_VSA2>
0

>  <SMR_VSA3>
0

>  <SMR_VSA4>
5.73

>  <SMR_VSA5>
5.92

>  <SMR_VSA6>
12.71

>  <SMR_VSA7>
34.85

>  <SMR_VSA8>
0

>  <SMR_VSA9>
0

>  <SlogP_VSA1>
5.73

>  <SlogP_VSA2>
22.49

>  <SlogP_VSA3>
4.57

>  <SlogP_VSA4>
0

>  <SlogP_VSA5>
11.48

>  <SlogP_VSA6>
24.27

>  <SlogP_VSA7>
5.02

>  <SlogP_VSA8>
0

>  <SlogP_VSA9>
0

>  <SlogP_VSA10>
0

>  <SlogP_VSA11>
0

>  <EState_VSA1>
7.6

>  <EState_VSA2>
18.62

>  <EState_VSA3>
5.02

>  <EState_VSA4>
5.56

>  <EState_VSA5>
0

>  <EState_VSA6>
24.27

>  <EState_VSA7>
0

>  <EState_VSA8>
0

>  <EState_VSA9>
27.12

>  <EState_VSA10>
4.57

>  <VSA_EState1>
10.85

>  <VSA_EState2>
17.73

>  <VSA_EState3>
0.59

>  <VSA_EState4>
6.27

>  <VSA_EState5>
-0.33

>  <VSA_EState6>
6.82

>  <VSA_EState7>
-0.23

>  <VSA_EState8>
0.2

>  <VSA_EState9>
-4.03

>  <apol>
33.01

>  <bpol>
21.69

>  <nRing>
1

>  <nHRing>
0

>  <naRing>
1

>  <naHRing>
0

>  <nARing 2>
0

>  <nAHRing 2>
0

>  <nFRing>
0

>  <nFHRing>
0

>  <nFaRing>
0

>  <nFaHRing>
0

>  <nFARing 2>
0

>  <nFAHRing 2>
0

>  <nRot>
4

>  <SLogP>
1.56

>  <SMR>
60.16

>  <TopoPSA(NO)>
83.55

>  <TopoPSA>
93.36

>  <JGI1>
0.33

>  <JGI2>
0.08

>  <JGI3>
0.06

>  <JGI4>
0.06

>  <JGI5>
0.03

>  <Diameter>
8

>  <Radius>
4

>  <TMWC10>
98.22

>  <TSRW10>
46.54

>  <MW>
249.03

>  <AMW>
8.89

>  <WPath>
378

>  <WPol>
18

>  <Zagreb1>
72

>  <Zagreb2>
78

>  <mZagreb2>
3.32

>  <yes>


>  <nAR-cont>
0.336376

>  <nHA-cont>
0.92539861

>  <MWHBN>
0.316843039

>  <MWHBN-cont>
0.787673561

>  <TPSA-cont>
0.348289227

>  <pka_cont>
0.97

>  <yes.1>


>  <BBB_SCORE>
3.624863405

>  <MMFF94 Energy>
-105.66

$$$$
Compound 1985
Actelion Java MolfileCreator 2.0

  0  0  0  0  0  0              0 V3000
M  V30 BEGIN CTAB
M  V30 COUNTS 27 27 0 0 0
M  V30 BEGIN ATOM
M  V30 1 Cl 3.1928 -3.5207 -2.4553 0
M  V30 2 C 2.1758 -2.4136 -1.6189 0
M  V30 3 C 1.2886 -2.8813 -0.6536 0
M  V30 4 C 2.2463 -1.0535 -1.9101 0
M  V30 5 C 0.4631 -1.9817 0.025 0
M  V30 6 C 1.4216 -0.1526 -1.2315 0
M  V30 7 C 0.5182 -0.607 -0.2562 0
M  V30 8 C -0.3998 0.3549 0.5027 0 CFG=2
M  V30 9 C -1.3091 1.0721 -0.5039 0
M  V30 10 C 0.4136 1.3461 1.3717 0
M  V30 11 S -2.8134 1.7264 0.2 0
M  V30 12 N 1.2288 0.6632 2.3786 0
M  V30 13 O -3.6981 2.1214 -0.8733 0
M  V30 14 O -2.521 2.6051 1.3056 0
M  V30 15 O -3.4361 0.3578 0.7844 0
M  V30 16 H 1.2351 -3.9416 -0.4216 0
M  V30 17 H 2.9407 -0.6885 -2.6622 0
M  V30 18 H -0.219 -2.3624 0.7835 0
M  V30 19 H 1.497 0.9053 -1.4729 0
M  V30 20 H -1.0242 -0.2399 1.1817 0
M  V30 21 H -0.7974 1.9142 -0.9834 0
M  V30 22 H -1.6377 0.3898 -1.2979 0
M  V30 23 H -0.2526 2.0261 1.9058 0
M  V30 24 H 1.068 1.9652 0.7475 0
M  V30 25 H 1.7631 1.3525 2.9067 0
M  V30 26 H 1.9134 0.0619 1.9191 0
M  V30 27 H -4.3483 0.2656 0.4326 0
M  V30 END ATOM
M  V30 BEGIN BOND
M  V30 1 1 1 2
M  V30 2 2 2 3
M  V30 3 1 2 4
M  V30 4 1 3 5
M  V30 5 2 4 6
M  V30 6 2 5 7
M  V30 7 1 7 8
M  V30 8 1 8 9
M  V30 9 1 8 10
M  V30 10 1 9 11
M  V30 11 1 10 12
M  V30 12 2 11 13
M  V30 13 2 11 14
M  V30 14 1 11 15
M  V30 15 1 6 7
M  V30 16 1 3 16
M  V30 17 1 4 17
M  V30 18 1 5 18
M  V30 19 1 6 19
M  V30 20 1 8 20
M  V30 21 1 9 21
M  V30 22 1 9 22
M  V30 23 1 10 23
M  V30 24 1 10 24
M  V30 25 1 12 25
M  V30 26 1 12 26
M  V30 27 1 15 27
M  V30 END BOND
M  V30 BEGIN COLLECTION
M  V30 MDLV30/STERAC1 ATOMS=(1 8)
M  V30 END COLLECTION
M  V30 END CTAB
M  END
>  <Column 1>
2419

>  <level_0>
2604

>  <index>
2604

>  <Unnamed: 0>
2604

>  <NO.>
2616

>  <Name>
saclofen

>  <IUPAC_name>
3-amino-2-(4-chlorophenyl)propane-1-sulfonic acid

>  <SMILES>
NCC(CS(=O)(=O)O)c1ccc(Cl)cc1

>  <CID>
122150

>  <logBB>


>  <BBB+/BBB->
BBB+

>  <Inchi>
InChI=1S/C9H12ClNO3S/c10-9-3-1-7(2-4-9)8(5-11)6-15(12-13)14/h1-4-8H-5-6-11H2-(H-12-13-14)

>  <threshold>
-1

>  <reference>
R7|R29|

>  <group>
B

>  <Class>
-1

>  <ABC>
11.15

>  <ABCGG>
10.32

>  <nAcid>
1

>  <nBase>
1

>  <nAromAtom>
6

>  <nAromBond>
6

>  <nAtom>
27

>  <nHeavyAtom>
15

>  <nSpiro>
0

>  <nBridgehead>
0

>  <nHetero>
6

>  <nN>
1

>  <nO>
3

>  <nF>
0

>  <BalabanJ>
2.44

>  <BertzCT>
415.49

>  <nBonds>
27

>  <nBondsO>
15

>  <nBondsS>
19

>  <nBondsD>
2

>  <nBondsT>
0

>  <nBondsA>
6

>  <nBondsM>
8

>  <nBondsKS>
22

>  <nBondsKD>
5

>  <RNCG>
0.25

>  <RPCG>
0.2

>  <FCSP3>
0.33

>  <SZ>
21.67

>  <Sm>
20.79

>  <Sv>
17.43

>  <Sse>
27.82

>  <Sp>
18.93

>  <Si>
30.48

>  <MZ>
0.8

>  <Mm>
0.77

>  <Mv>
0.65

>  <Mse>
1.03

>  <Mp>
0.7

>  <Mi>
1.13

>  <NsCH3>
0

>  <NdCH2>
0

>  <NssCH2>
2

>  <NtCH>
0

>  <NdsCH>
0

>  <NaaCH>
4

>  <NsssCH>
1

>  <NddC>
0

>  <NtsC>
0

>  <NdssC>
0

>  <NaasC>
2

>  <NaaaC>
0

>  <NssssC>
0

>  <NsNH3>
0

>  <NsNH2>
1

>  <NssNH2>
0

>  <NdNH>
0

>  <NssNH>
0

>  <NaaNH>
0

>  <NtN>
0

>  <NsssNH>
0

>  <NdsN>
0

>  <NaaN>
0

>  <NsssN>
0

>  <NddsN>
0

>  <NaasN>
0

>  <NssssN>
0

>  <NsOH>
1

>  <NdO>
2

>  <NssO>
0

>  <NaaO>
0

>  <NsF>
0

>  <NsSiH3>
0

>  <NssSiH2>
0

>  <NsssSiH>
0

>  <NssssSi>
0

>  <NsPH2>
0

>  <NssPH>
0

>  <NsssP>
0

>  <NdsssP>
0

>  <NsssssP>
0

>  <NsSH>
0

>  <NdS>
0

>  <NssS>
0

>  <NaaS>
0

>  <NdssS>
0

>  <NddssS>
1

>  <NsCl>
1

>  <NsBr>
0

>  <NsI>
0

>  <fragCpx>
15.06

>  <fMF>
0.22

>  <nHBAcc>
3

>  <nHBDon>
2

>  <Kier1>
13.07

>  <Kier2>
5.37

>  <Lipinski>
1

>  <GhoseFilter>
1

>  <FilterItLogS>
-2.26

>  <VMcGowan>
170.09

>  <LabuteASA>
93.8

>  <PEOE_VSA1>
5.73

>  <PEOE_VSA2>
4.55

>  <PEOE_VSA3>
0

>  <PEOE_VSA4>
8.42

>  <PEOE_VSA5>
0

>  <PEOE_VSA6>
23.73

>  <PEOE_VSA7>
17.7

>  <PEOE_VSA8>
17.49

>  <PEOE_VSA9>
5.75

>  <PEOE_VSA10>
0

>  <PEOE_VSA11>
0

>  <PEOE_VSA12>
0

>  <PEOE_VSA13>
10.12

>  <SMR_VSA1>
12.97

>  <SMR_VSA2>
0

>  <SMR_VSA3>
0

>  <SMR_VSA4>
5.73

>  <SMR_VSA5>
5.92

>  <SMR_VSA6>
12.3

>  <SMR_VSA7>
34.85

>  <SMR_VSA8>
0

>  <SMR_VSA9>
0

>  <SlogP_VSA1>
5.73

>  <SlogP_VSA2>
25.27

>  <SlogP_VSA3>
10.12

>  <SlogP_VSA4>
0

>  <SlogP_VSA5>
11.48

>  <SlogP_VSA6>
24.27

>  <SlogP_VSA7>
5.02

>  <SlogP_VSA8>
0

>  <SlogP_VSA9>
0

>  <SlogP_VSA10>
0

>  <SlogP_VSA11>
0

>  <EState_VSA1>
16.04

>  <EState_VSA2>
12.3

>  <EState_VSA3>
5.02

>  <EState_VSA4>
5.56

>  <EState_VSA5>
0

>  <EState_VSA6>
24.27

>  <EState_VSA7>
0

>  <EState_VSA8>
0

>  <EState_VSA9>
21.89

>  <EState_VSA10>
8.42

>  <VSA_EState1>
30.16

>  <VSA_EState2>
0

>  <VSA_EState3>
0.57

>  <VSA_EState4>
6.19

>  <VSA_EState5>
-0.78

>  <VSA_EState6>
6.71

>  <VSA_EState7>
0

>  <VSA_EState8>
0.15

>  <VSA_EState9>
-4.01

>  <apol>
31.62

>  <bpol>
18.63

>  <nRing>
1

>  <nHRing>
0

>  <naRing>
1

>  <naHRing>
0

>  <nARing 2>
0

>  <nAHRing 2>
0

>  <nFRing>
0

>  <nFHRing>
0

>  <nFaRing>
0

>  <nFaHRing>
0

>  <nFARing 2>
0

>  <nFAHRing 2>
0

>  <nRot>
4

>  <SLogP>
1.27

>  <SMR>
59.66

>  <TopoPSA(NO)>
80.39

>  <TopoPSA>
88.77

>  <JGI1>
0.33

>  <JGI2>
0.08

>  <JGI3>
0.06

>  <JGI4>
0.06

>  <JGI5>
0.03

>  <Diameter>
8

>  <Radius>
4

>  <TMWC10>
98.22

>  <TSRW10>
46.54

>  <MW>
249.02

>  <AMW>
9.22

>  <WPath>
378

>  <WPol>
18

>  <Zagreb1>
72

>  <Zagreb2>
78

>  <mZagreb2>
3.32

>  <yes>


>  <nAR-cont>
0.336376

>  <nHA-cont>
0.92539861

>  <MWHBN>
0.316849401

>  <MWHBN-cont>
0.787652548

>  <TPSA-cont>
0.380330277

>  <pka_cont>
0.97

>  <yes.1>


>  <BBB_SCORE>
3.688913987

>  <MMFF94 Energy>
-31.968

$$$$
Compound 1986
Actelion Java MolfileCreator 2.0

  0  0  0  0  0  0              0 V3000
M  V30 BEGIN CTAB
M  V30 COUNTS 32 33 0 0 0
M  V30 BEGIN ATOM
M  V30 1 O 2.2358 5.5968 1.7564 0
M  V30 2 C 1.5583 4.7632 1.1785 0
M  V30 3 O 0.4324 5.0929 0.5255 0
M  V30 4 C 1.8815 3.3216 1.1238 0
M  V30 5 C 3.0357 2.8479 1.763 0
M  V30 6 C 1.0543 2.4193 0.4409 0
M  V30 7 O 3.9033 3.6525 2.4526 0
M  V30 8 C 3.3611 1.4944 1.7192 0
M  V30 9 C 1.3688 1.0545 0.4035 0
M  V30 10 C 2.5314 0.6027 1.0374 0
M  V30 11 N 0.5625 0.1424 -0.299 0
M  V30 12 N -0.5099 -0.0477 0.3167 0
M  V30 13 C -1.3144 -0.9647 -0.3814 0
M  V30 14 C -0.9727 -2.3211 -0.4576 0
M  V30 15 C -2.5044 -0.5281 -0.9718 0
M  V30 16 C -1.7964 -3.2323 -1.1353 0
M  V30 17 C -3.3319 -1.4259 -1.6481 0
M  V30 18 C -2.978 -2.7713 -1.7306 0
M  V30 19 C -1.35 -4.6454 -1.1709 0
M  V30 20 O -3.85 -3.5746 -2.4128 0
M  V30 21 O -0.3381 -5.0915 -0.6642 0
M  V30 22 O -2.1974 -5.4495 -1.8458 0
M  V30 23 H 0.3473 6.0622 0.6465 0
M  V30 24 H 0.1569 2.7633 -0.0673 0
M  V30 25 H 3.5773 4.5783 2.4183 0
M  V30 26 H 4.2599 1.135 2.2139 0
M  V30 27 H 2.7885 -0.453 1.0015 0
M  V30 28 H -0.0537 -2.6604 0.0168 0
M  V30 29 H -2.7853 0.5201 -0.9063 0
M  V30 30 H -4.2528 -1.0773 -2.1092 0
M  V30 31 H -3.4875 -4.4859 -2.3985 0
M  V30 32 H -1.7638 -6.3304 -1.7768 0
M  V30 END ATOM
M  V30 BEGIN BOND
M  V30 1 2 1 2
M  V30 2 1 2 3
M  V30 3 1 2 4
M  V30 4 2 4 5
M  V30 5 1 4 6
M  V30 6 1 5 7
M  V30 7 1 5 8
M  V30 8 2 6 9
M  V30 9 2 8 10
M  V30 10 1 9 11
M  V30 11 2 11 12
M  V30 12 1 12 13
M  V30 13 2 13 14
M  V30 14 1 13 15
M  V30 15 1 14 16
M  V30 16 2 15 17
M  V30 17 2 16 18
M  V30 18 1 16 19
M  V30 19 1 18 20
M  V30 20 2 19 21
M  V30 21 1 19 22
M  V30 22 1 9 10
M  V30 23 1 17 18
M  V30 24 1 3 23
M  V30 25 1 6 24
M  V30 26 1 7 25
M  V30 27 1 8 26
M  V30 28 1 10 27
M  V30 29 1 14 28
M  V30 30 1 15 29
M  V30 31 1 17 30
M  V30 32 1 20 31
M  V30 33 1 22 32
M  V30 END BOND
M  V30 END CTAB
M  END
>  <Column 1>
2420

>  <level_0>
2605

>  <index>
2605

>  <Unnamed: 0>
2605

>  <NO.>
2617

>  <Name>
olsalazine sodium

>  <IUPAC_name>
5-[(3-carboxy-4-hydroxyphenyl)diazenyl]-2-hydroxybenzoic acid

>  <SMILES>
O=C(O)c1cc(N=Nc2ccc(O)c(C(=O)O)c2)ccc1O

>  <CID>
22419

>  <logBB>


>  <BBB+/BBB->
BBB-

>  <Inchi>
InChI=1S/C14H10N2O6/c17-11-3-1-7(5-9(11)13(19)20)15-16-8-2-4-12(18)10(6-8)14(21)22/h1-6-17-18H-(H-19-20)(H-21-22)

>  <threshold>
-1

>  <reference>
R7|R14|R15|R23|R29|

>  <group>
B

>  <Class>
-1

>  <ABC>
16.76

>  <ABCGG>
13.86

>  <nAcid>
2

>  <nBase>
0

>  <nAromAtom>
12

>  <nAromBond>
12

>  <nAtom>
32

>  <nHeavyAtom>
22

>  <nSpiro>
0

>  <nBridgehead>
0

>  <nHetero>
8

>  <nN>
2

>  <nO>
6

>  <nF>
0

>  <BalabanJ>
1.78

>  <BertzCT>
719.4

>  <nBonds>
33

>  <nBondsO>
23

>  <nBondsS>
18

>  <nBondsD>
3

>  <nBondsT>
0

>  <nBondsA>
12

>  <nBondsM>
15

>  <nBondsKS>
24

>  <nBondsKD>
9

>  <RNCG>
0.18

>  <RPCG>
0.12

>  <FCSP3>
0

>  <SZ>
26

>  <Sm>
25.16

>  <Sv>
22.51

>  <Sse>
33.75

>  <Sp>
22.19

>  <Si>
35.91

>  <MZ>
0.81

>  <Mm>
0.79

>  <Mv>
0.7

>  <Mse>
1.05

>  <Mp>
0.69

>  <Mi>
1.12

>  <NsCH3>
0

>  <NdCH2>
0

>  <NssCH2>
0

>  <NtCH>
0

>  <NdsCH>
0

>  <NaaCH>
6

>  <NsssCH>
0

>  <NddC>
0

>  <NtsC>
0

>  <NdssC>
2

>  <NaasC>
6

>  <NaaaC>
0

>  <NssssC>
0

>  <NsNH3>
0

>  <NsNH2>
0

>  <NssNH2>
0

>  <NdNH>
0

>  <NssNH>
0

>  <NaaNH>
0

>  <NtN>
0

>  <NsssNH>
0

>  <NdsN>
2

>  <NaaN>
0

>  <NsssN>
0

>  <NddsN>
0

>  <NaasN>
0

>  <NssssN>
0

>  <NsOH>
4

>  <NdO>
2

>  <NssO>
0

>  <NaaO>
0

>  <NsF>
0

>  <NsSiH3>
0

>  <NssSiH2>
0

>  <NsssSiH>
0

>  <NssssSi>
0

>  <NsPH2>
0

>  <NssPH>
0

>  <NsssP>
0

>  <NdsssP>
0

>  <NsssssP>
0

>  <NsSH>
0

>  <NdS>
0

>  <NssS>
0

>  <NaaS>
0

>  <NdssS>
0

>  <NddssS>
0

>  <NsCl>
0

>  <NsBr>
0

>  <NsI>
0

>  <fragCpx>
67.08

>  <fMF>
0.44

>  <nHBAcc>
6

>  <nHBDon>
4

>  <Kier1>
18.34

>  <Kier2>
8.2

>  <Lipinski>
1

>  <GhoseFilter>
1

>  <FilterItLogS>
-1.69

>  <VMcGowan>
202.88

>  <LabuteASA>
123.17

>  <PEOE_VSA1>
20.43

>  <PEOE_VSA2>
0

>  <PEOE_VSA3>
9.59

>  <PEOE_VSA4>
10.23

>  <PEOE_VSA5>
0

>  <PEOE_VSA6>
0

>  <PEOE_VSA7>
36.4

>  <PEOE_VSA8>
0

>  <PEOE_VSA9>
11.37

>  <PEOE_VSA10>
22.63

>  <PEOE_VSA11>
0

>  <PEOE_VSA12>
0

>  <PEOE_VSA13>
0

>  <SMR_VSA1>
30.02

>  <SMR_VSA2>
0

>  <SMR_VSA3>
0

>  <SMR_VSA4>
10.23

>  <SMR_VSA5>
0

>  <SMR_VSA6>
0

>  <SMR_VSA7>
47.53

>  <SMR_VSA8>
0

>  <SMR_VSA9>
11.5

>  <SlogP_VSA1>
0

>  <SlogP_VSA2>
32.36

>  <SlogP_VSA3>
0

>  <SlogP_VSA4>
0

>  <SlogP_VSA5>
20.72

>  <SlogP_VSA6>
46.63

>  <SlogP_VSA7>
0

>  <SlogP_VSA8>
0

>  <SlogP_VSA9>
0

>  <SlogP_VSA10>
11.37

>  <SlogP_VSA11>
11.5

>  <EState_VSA1>
23.44

>  <EState_VSA2>
22.5

>  <EState_VSA3>
0

>  <EState_VSA4>
24.27

>  <EState_VSA5>
12.13

>  <EState_VSA6>
0

>  <EState_VSA7>
0

>  <EState_VSA8>
10.23

>  <EState_VSA9>
10.21

>  <EState_VSA10>
19.8

>  <VSA_EState1>
0

>  <VSA_EState2>
21.76

>  <VSA_EState3>
44.03

>  <VSA_EState4>
-0.32

>  <VSA_EState5>
-3.42

>  <VSA_EState6>
7.28

>  <VSA_EState7>
0

>  <VSA_EState8>
0

>  <VSA_EState9>
0

>  <apol>
37.06

>  <bpol>
12.91

>  <nRing>
2

>  <nHRing>
0

>  <naRing>
2

>  <naHRing>
0

>  <nARing 2>
0

>  <nAHRing 2>
0

>  <nFRing>
0

>  <nFHRing>
0

>  <nFaRing>
0

>  <nFaHRing>
0

>  <nFARing 2>
0

>  <nFAHRing 2>
0

>  <nRot>
4

>  <SLogP>
2.91

>  <SMR>
74.31

>  <TopoPSA(NO)>
139.78

>  <TopoPSA>
139.78

>  <JGI1>
0.24

>  <JGI2>
0.09

>  <JGI3>
0.05

>  <JGI4>
0.05

>  <JGI5>
0.03

>  <Diameter>
11

>  <Radius>
6

>  <TMWC10>
117.88

>  <TSRW10>
55.82

>  <MW>
302.05

>  <AMW>
9.44

>  <WPath>
1165

>  <WPol>
33

>  <Zagreb1>
110

>  <Zagreb2>
126

>  <mZagreb2>
4.86

>  <yes>


>  <nAR-cont>
0.336376

>  <nHA-cont>
0.983774276

>  <MWHBN>
0.575387708

>  <MWHBN-cont>
0

>  <TPSA-cont>
0

>  <pka_cont>
0.97

>  <yes.1>


>  <BBB_SCORE>
1.805150276

>  <MMFF94 Energy>
3.3323

$$$$
Compound 1987
Actelion Java MolfileCreator 2.0

  0  0  0  0  0  0              0 V3000
M  V30 BEGIN CTAB
M  V30 COUNTS 54 57 0 0 0
M  V30 BEGIN ATOM
M  V30 1 O 0.8746 -4.6184 3.5021 0
M  V30 2 C 1.6805 -4.4321 4.3955 0
M  V30 3 O 2.0928 -5.4434 5.1809 0
M  V30 4 C 2.3061 -3.1341 4.7468 0
M  V30 5 C 1.94 -2.0071 3.9931 0
M  V30 6 C 3.2317 -3.0173 5.789 0
M  V30 7 C 2.5124 -0.7537 4.2927 0
M  V30 8 C 3.8119 -1.7831 6.1033 0
M  V30 9 C 3.4325 -0.6741 5.3381 0
M  V30 10 C 2.3712 0.5608 3.742 0
M  V30 11 N 3.8351 0.6385 5.422 0
M  V30 12 C 3.2043 1.3894 4.4676 0
M  V30 13 C 1.4912 0.9654 2.5999 0
M  V30 14 C 2.1525 0.6982 1.2448 0
M  V30 15 C 1.3174 1.1789 0.0527 0
M  V30 16 C 0.0433 0.3489 -0.1635 0
M  V30 17 N -0.7872 0.8485 -1.2722 0
M  V30 18 C -0.1188 0.703 -2.5767 0
M  V30 19 C -2.086 0.1528 -1.2905 0
M  V30 20 C -1.0223 0.938 -3.7558 0
M  V30 21 C -3.0386 0.7633 -2.3338 0
M  V30 22 C -2.3633 0.9921 -3.6619 0
M  V30 23 C -3.1981 1.2445 -4.8494 0
M  V30 24 C -2.9818 2.3837 -5.6384 0
M  V30 25 C -4.2248 0.3625 -5.2103 0
M  V30 26 C -3.7733 2.6344 -6.7621 0
M  V30 27 C -5.016 0.6124 -6.335 0
M  V30 28 C -4.7902 1.7482 -7.1099 0
M  V30 29 H 1.6032 -6.2194 4.8364 0
M  V30 30 H 1.2209 -2.0973 3.1832 0
M  V30 31 H 3.5153 -3.8902 6.3731 0
M  V30 32 H 4.5299 -1.6968 6.9127 0
M  V30 33 H 4.5018 0.9922 6.094 0
M  V30 34 H 3.4002 2.4504 4.3837 0
M  V30 35 H 1.2496 2.0322 2.6878 0
M  V30 36 H 0.5423 0.4236 2.6798 0
M  V30 37 H 2.3702 -0.3714 1.1335 0
M  V30 38 H 3.1214 1.2138 1.213 0
M  V30 39 H 1.0586 2.2365 0.1873 0
M  V30 40 H 1.9557 1.1167 -0.836 0
M  V30 41 H 0.3063 -0.7056 -0.3176 0
M  V30 42 H -0.5519 0.397 0.7553 0
M  V30 43 H 0.6926 1.4359 -2.6452 0
M  V30 44 H 0.3232 -0.2956 -2.6852 0
M  V30 45 H -1.9471 -0.9178 -1.4947 0
M  V30 46 H -2.5731 0.2319 -0.3104 0
M  V30 47 H -0.5289 1.0604 -4.7164 0
M  V30 48 H -3.4144 1.7265 -1.9646 0
M  V30 49 H -3.902 0.0963 -2.4323 0
M  V30 50 H -2.2 3.0921 -5.3737 0
M  V30 51 H -4.4095 -0.5372 -4.6292 0
M  V30 52 H -3.5963 3.5232 -7.3618 0
M  V30 53 H -5.8065 -0.0822 -6.6062 0
M  V30 54 H -5.4062 1.9425 -7.9839 0
M  V30 END ATOM
M  V30 BEGIN BOND
M  V30 1 2 1 2
M  V30 2 1 2 3
M  V30 3 1 2 4
M  V30 4 2 4 5
M  V30 5 1 4 6
M  V30 6 1 5 7
M  V30 7 2 6 8
M  V30 8 2 7 9
M  V30 9 1 7 10
M  V30 10 1 9 11
M  V30 11 2 10 12
M  V30 12 1 10 13
M  V30 13 1 13 14
M  V30 14 1 14 15
M  V30 15 1 15 16
M  V30 16 1 16 17
M  V30 17 1 17 18
M  V30 18 1 17 19
M  V30 19 1 18 20
M  V30 20 1 19 21
M  V30 21 2 20 22
M  V30 22 1 22 23
M  V30 23 2 23 24
M  V30 24 1 23 25
M  V30 25 1 24 26
M  V30 26 2 25 27
M  V30 27 2 26 28
M  V30 28 1 8 9
M  V30 29 1 11 12
M  V30 30 1 21 22
M  V30 31 1 27 28
M  V30 32 1 3 29
M  V30 33 1 5 30
M  V30 34 1 6 31
M  V30 35 1 8 32
M  V30 36 1 11 33
M  V30 37 1 12 34
M  V30 38 1 13 35
M  V30 39 1 13 36
M  V30 40 1 14 37
M  V30 41 1 14 38
M  V30 42 1 15 39
M  V30 43 1 15 40
M  V30 44 1 16 41
M  V30 45 1 16 42
M  V30 46 1 18 43
M  V30 47 1 18 44
M  V30 48 1 19 45
M  V30 49 1 19 46
M  V30 50 1 20 47
M  V30 51 1 21 48
M  V30 52 1 21 49
M  V30 53 1 24 50
M  V30 54 1 25 51
M  V30 55 1 26 52
M  V30 56 1 27 53
M  V30 57 1 28 54
M  V30 END BOND
M  V30 END CTAB
M  END
>  <Column 1>
2421

>  <level_0>
2606

>  <index>
2606

>  <Unnamed: 0>
2606

>  <NO.>
2618

>  <Name>
carmoxirol

>  <IUPAC_name>
3-[4-(4-phenyl-3-6-dihydro-2h-pyridin-1-yl)butyl]-1h-indole-5-carboxylic acid

>  <SMILES>
O=C(O)c1ccc2[nH]cc(CCCCN3CC=C(c4ccccc4)CC3)c2c1

>  <CID>
57364

>  <logBB>


>  <BBB+/BBB->
BBB-

>  <Inchi>
InChI=1S/C24H26N2O2/c27-24(28)20-9-10-23-22(16-20)21(17-25-23)8-4-5-13-26-14-11-19(12-15-26)18-6-2-1-3-7-18/h1-3-6-7-9-11-16-17-25H-4-5-8-12-15H2-(H-27-28)

>  <threshold>
-1

>  <reference>
R7|R29|

>  <group>
B

>  <Class>
-1

>  <ABC>
21.98

>  <ABCGG>
15.85

>  <nAcid>
1

>  <nBase>
1

>  <nAromAtom>
15

>  <nAromBond>
16

>  <nAtom>
54

>  <nHeavyAtom>
28

>  <nSpiro>
0

>  <nBridgehead>
0

>  <nHetero>
4

>  <nN>
2

>  <nO>
2

>  <nF>
0

>  <BalabanJ>
1.11

>  <BertzCT>
988.27

>  <nBonds>
57

>  <nBondsO>
31

>  <nBondsS>
39

>  <nBondsD>
2

>  <nBondsT>
0

>  <nBondsA>
16

>  <nBondsM>
18

>  <nBondsKS>
48

>  <nBondsKD>
9

>  <RNCG>
0.23

>  <RPCG>
0.16

>  <FCSP3>
0.29

>  <SZ>
33.33

>  <Sm>
31.18

>  <Sv>
33.99

>  <Sse>
53.53

>  <Sp>
36.66

>  <Si>
60.4

>  <MZ>
0.62

>  <Mm>
0.58

>  <Mv>
0.63

>  <Mse>
0.99

>  <Mp>
0.68

>  <Mi>
1.12

>  <NsCH3>
0

>  <NdCH2>
0

>  <NssCH2>
7

>  <NtCH>
0

>  <NdsCH>
1

>  <NaaCH>
9

>  <NsssCH>
0

>  <NddC>
0

>  <NtsC>
0

>  <NdssC>
2

>  <NaasC>
3

>  <NaaaC>
2

>  <NssssC>
0

>  <NsNH3>
0

>  <NsNH2>
0

>  <NssNH2>
0

>  <NdNH>
0

>  <NssNH>
0

>  <NaaNH>
1

>  <NtN>
0

>  <NsssNH>
0

>  <NdsN>
0

>  <NaaN>
0

>  <NsssN>
1

>  <NddsN>
0

>  <NaasN>
0

>  <NssssN>
0

>  <NsOH>
1

>  <NdO>
1

>  <NssO>
0

>  <NaaO>
0

>  <NsF>
0

>  <NsSiH3>
0

>  <NssSiH2>
0

>  <NsssSiH>
0

>  <NssssSi>
0

>  <NsPH2>
0

>  <NssPH>
0

>  <NsssP>
0

>  <NdsssP>
0

>  <NsssssP>
0

>  <NsSH>
0

>  <NdS>
0

>  <NssS>
0

>  <NaaS>
0

>  <NdssS>
0

>  <NddssS>
0

>  <NsCl>
0

>  <NsBr>
0

>  <NsI>
0

>  <fragCpx>
205.04

>  <fMF>
0.46

>  <nHBAcc>
2

>  <nHBDon>
2

>  <Kier1>
21.24

>  <Kier2>
10.35

>  <Lipinski>
1

>  <GhoseFilter>
1

>  <FilterItLogS>
-5.85

>  <VMcGowan>
298.58

>  <LabuteASA>
165.05

>  <PEOE_VSA1>
10.09

>  <PEOE_VSA2>
4.9

>  <PEOE_VSA3>
4.79

>  <PEOE_VSA4>
0

>  <PEOE_VSA5>
0

>  <PEOE_VSA6>
36.41

>  <PEOE_VSA7>
67.13

>  <PEOE_VSA8>
30.19

>  <PEOE_VSA9>
5.56

>  <PEOE_VSA10>
0

>  <PEOE_VSA11>
0

>  <PEOE_VSA12>
0

>  <PEOE_VSA13>
0

>  <SMR_VSA1>
9.9

>  <SMR_VSA2>
0

>  <SMR_VSA3>
9.88

>  <SMR_VSA4>
0

>  <SMR_VSA5>
25.68

>  <SMR_VSA6>
19.63

>  <SMR_VSA7>
77.49

>  <SMR_VSA8>
0

>  <SMR_VSA9>
0

>  <SlogP_VSA1>
0

>  <SlogP_VSA2>
40.59

>  <SlogP_VSA3>
6.42

>  <SlogP_VSA4>
0

>  <SlogP_VSA5>
40.75

>  <SlogP_VSA6>
60.8

>  <SlogP_VSA7>
0

>  <SlogP_VSA8>
16.48

>  <SlogP_VSA9>
0

>  <SlogP_VSA10>
0

>  <SlogP_VSA11>
0

>  <EState_VSA1>
5.97

>  <EState_VSA2>
0

>  <EState_VSA3>
5.56

>  <EState_VSA4>
56.22

>  <EState_VSA5>
16.7

>  <EState_VSA6>
12.13

>  <EState_VSA7>
12.26

>  <EState_VSA8>
46.29

>  <EState_VSA9>
0

>  <EState_VSA10>
9.9

>  <VSA_EState1>
0

>  <VSA_EState2>
16.98

>  <VSA_EState3>
10.24

>  <VSA_EState4>
5.38

>  <VSA_EState5>
-0.87

>  <VSA_EState6>
15.95

>  <VSA_EState7>
8.74

>  <VSA_EState8>
3.26

>  <VSA_EState9>
0

>  <apol>
61.22

>  <bpol>
29.23

>  <nRing>
4

>  <nHRing>
2

>  <naRing>
3

>  <naHRing>
1

>  <nARing 2>
1

>  <nAHRing 2>
1

>  <nFRing>
1

>  <nFHRing>
1

>  <nFaRing>
1

>  <nFaHRing>
1

>  <nFARing 2>
0

>  <nFAHRing 2>
0

>  <nRot>
7

>  <SLogP>
4.98

>  <SMR>
113.67

>  <TopoPSA(NO)>
56.33

>  <TopoPSA>
56.33

>  <JGI1>
0.15

>  <JGI2>
0.07

>  <JGI3>
0.03

>  <JGI4>
0.03

>  <JGI5>
0.03

>  <Diameter>
17

>  <Radius>
9

>  <TMWC10>
134.8

>  <TSRW10>
77.13

>  <MW>
374.2

>  <AMW>
6.93

>  <WPath>
2540

>  <WPol>
41

>  <Zagreb1>
146

>  <Zagreb2>
170

>  <mZagreb2>
6.19

>  <yes>


>  <nAR-cont>
0.816016

>  <nHA-cont>
0.82432561

>  <MWHBN>
0.206779795

>  <MWHBN-cont>
0.99986767

>  <TPSA-cont>
0.606781621

>  <pka_cont>
0.97

>  <yes.1>


>  <BBB_SCORE>
4.838706358

>  <MMFF94 Energy>
37.7

$$$$
Compound 1988
Actelion Java MolfileCreator 2.0

  0  0  0  0  0  0              0 V3000
M  V30 BEGIN CTAB
M  V30 COUNTS 31 33 0 0 0
M  V30 BEGIN ATOM
M  V30 1 N 0.5562 -0.8741 0.1588 0
M  V30 2 C -0.2424 0.2174 0.1961 0
M  V30 3 C 0.3561 -1.8904 1.0176 0
M  V30 4 N -0.0016 1.2526 -0.7038 0
M  V30 5 C -1.2563 0.3081 1.1465 0
M  V30 6 C -0.6598 -1.869 1.9884 0
M  V30 7 C 1.1759 -3.0098 0.956 0
M  V30 8 C 1.2039 1.1061 -1.538 0
M  V30 9 C -1.1434 1.8861 -1.3797 0
M  V30 10 C -1.4714 -0.7368 2.0431 0
M  V30 11 C -0.8323 -2.9542 2.8668 0
M  V30 12 C 1.0108 -4.0934 1.8245 0
M  V30 13 C 1.5548 2.4336 -2.2447 0
M  V30 14 C -0.7142 3.1895 -2.0916 0
M  V30 15 C 0.0037 -4.065 2.7823 0
M  V30 16 N 0.4324 3.0211 -3.0005 0
M  V30 17 H -1.8714 1.1961 1.2261 0
M  V30 18 H 1.9653 -3.0378 0.209 0
M  V30 19 H 1.0418 0.3239 -2.291 0
M  V30 20 H 2.0709 0.8218 -0.9284 0
M  V30 21 H -1.9431 2.1494 -0.6803 0
M  V30 22 H -1.5632 1.1874 -2.1147 0
M  V30 23 H -2.2642 -0.6522 2.7807 0
M  V30 24 H -1.6177 -2.9362 3.6185 0
M  V30 25 H 1.6704 -4.9536 1.7478 0
M  V30 26 H 1.9028 3.1602 -1.4992 0
M  V30 27 H 2.3882 2.2604 -2.9342 0
M  V30 28 H -0.4671 3.9488 -1.3385 0
M  V30 29 H -1.5627 3.5756 -2.667 0
M  V30 30 H -0.1299 -4.9033 3.4608 0
M  V30 31 H 0.7148 3.9337 -3.3548 0
M  V30 END ATOM
M  V30 BEGIN BOND
M  V30 1 2 1 2
M  V30 2 1 1 3
M  V30 3 1 2 4
M  V30 4 1 2 5
M  V30 5 1 3 6
M  V30 6 2 3 7
M  V30 7 1 4 8
M  V30 8 1 4 9
M  V30 9 2 5 10
M  V30 10 2 6 11
M  V30 11 1 7 12
M  V30 12 1 8 13
M  V30 13 1 9 14
M  V30 14 1 11 15
M  V30 15 1 13 16
M  V30 16 1 6 10
M  V30 17 2 12 15
M  V30 18 1 14 16
M  V30 19 1 5 17
M  V30 20 1 7 18
M  V30 21 1 8 19
M  V30 22 1 8 20
M  V30 23 1 9 21
M  V30 24 1 9 22
M  V30 25 1 10 23
M  V30 26 1 11 24
M  V30 27 1 12 25
M  V30 28 1 13 26
M  V30 29 1 13 27
M  V30 30 1 14 28
M  V30 31 1 14 29
M  V30 32 1 15 30
M  V30 33 1 16 31
M  V30 END BOND
M  V30 END CTAB
M  END
>  <Column 1>
2423

>  <level_0>
2608

>  <index>
2608

>  <Unnamed: 0>
2608

>  <NO.>
2620

>  <Name>
quipazine

>  <IUPAC_name>
2-piperazin-1-ylquinoline

>  <SMILES>
c1ccc2nc(N3CCNCC3)ccc2c1

>  <CID>
5011

>  <logBB>


>  <BBB+/BBB->
BBB+

>  <Inchi>
InChI=1S/C13H15N3/c1-2-4-12-11(3-1)5-6-13(15-12)16-9-7-14-8-10-16/h1-6-14H-7-10H2

>  <threshold>
-1

>  <reference>
R7|R29|

>  <group>
B

>  <Class>
-1

>  <ABC>
12.65

>  <ABCGG>
9.87

>  <nAcid>
0

>  <nBase>
1

>  <nAromAtom>
10

>  <nAromBond>
11

>  <nAtom>
31

>  <nHeavyAtom>
16

>  <nSpiro>
0

>  <nBridgehead>
0

>  <nHetero>
3

>  <nN>
3

>  <nO>
0

>  <nF>
0

>  <BalabanJ>
1.57

>  <BertzCT>
489.26

>  <nBonds>
33

>  <nBondsO>
18

>  <nBondsS>
22

>  <nBondsD>
0

>  <nBondsT>
0

>  <nBondsA>
11

>  <nBondsM>
11

>  <nBondsKS>
28

>  <nBondsKD>
5

>  <RNCG>
0.3

>  <RPCG>
0.11

>  <FCSP3>
0.31

>  <SZ>
19

>  <Sm>
17.76

>  <Sv>
19.34

>  <Sse>
30.65

>  <Sp>
20.97

>  <Si>
34.99

>  <MZ>
0.61

>  <Mm>
0.57

>  <Mv>
0.62

>  <Mse>
0.99

>  <Mp>
0.68

>  <Mi>
1.13

>  <NsCH3>
0

>  <NdCH2>
0

>  <NssCH2>
4

>  <NtCH>
0

>  <NdsCH>
0

>  <NaaCH>
6

>  <NsssCH>
0

>  <NddC>
0

>  <NtsC>
0

>  <NdssC>
0

>  <NaasC>
1

>  <NaaaC>
2

>  <NssssC>
0

>  <NsNH3>
0

>  <NsNH2>
0

>  <NssNH2>
0

>  <NdNH>
0

>  <NssNH>
1

>  <NaaNH>
0

>  <NtN>
0

>  <NsssNH>
0

>  <NdsN>
0

>  <NaaN>
1

>  <NsssN>
1

>  <NddsN>
0

>  <NaasN>
0

>  <NssssN>
0

>  <NsOH>
0

>  <NdO>
0

>  <NssO>
0

>  <NaaO>
0

>  <NsF>
0

>  <NsSiH3>
0

>  <NssSiH2>
0

>  <NsssSiH>
0

>  <NssssSi>
0

>  <NsPH2>
0

>  <NssPH>
0

>  <NsssP>
0

>  <NdsssP>
0

>  <NsssssP>
0

>  <NsSH>
0

>  <NdS>
0

>  <NssS>
0

>  <NaaS>
0

>  <NdssS>
0

>  <NddssS>
0

>  <NsCl>
0

>  <NsBr>
0

>  <NsI>
0

>  <fragCpx>
84.03

>  <fMF>
0.52

>  <nHBAcc>
3

>  <nHBDon>
1

>  <Kier1>
11.11

>  <Kier2>
5.1

>  <Lipinski>
1

>  <GhoseFilter>
1

>  <FilterItLogS>
-3.3

>  <VMcGowan>
169.89

>  <LabuteASA>
95.1

>  <PEOE_VSA1>
10.22

>  <PEOE_VSA2>
0

>  <PEOE_VSA3>
4.98

>  <PEOE_VSA4>
0

>  <PEOE_VSA5>
0

>  <PEOE_VSA6>
18.2

>  <PEOE_VSA7>
18.2

>  <PEOE_VSA8>
31.57

>  <PEOE_VSA9>
5.52

>  <PEOE_VSA10>
5.82

>  <PEOE_VSA11>
0

>  <PEOE_VSA12>
0

>  <PEOE_VSA13>
0

>  <SMR_VSA1>
0

>  <SMR_VSA2>
0

>  <SMR_VSA3>
10.3

>  <SMR_VSA4>
0

>  <SMR_VSA5>
0

>  <SMR_VSA6>
31.08

>  <SMR_VSA7>
36.4

>  <SMR_VSA8>
0

>  <SMR_VSA9>
0

>  <SlogP_VSA1>
10.22

>  <SlogP_VSA2>
31.16

>  <SlogP_VSA3>
0

>  <SlogP_VSA4>
0

>  <SlogP_VSA5>
0

>  <SlogP_VSA6>
36.4

>  <SlogP_VSA7>
0

>  <SlogP_VSA8>
10.9

>  <SlogP_VSA9>
0

>  <SlogP_VSA10>
5.82

>  <SlogP_VSA11>
0

>  <EState_VSA1>
0

>  <EState_VSA2>
0

>  <EState_VSA3>
0

>  <EState_VSA4>
37.51

>  <EState_VSA5>
5.39

>  <EState_VSA6>
0

>  <EState_VSA7>
6.07

>  <EState_VSA8>
40.55

>  <EState_VSA9>
4.98

>  <EState_VSA10>
0

>  <VSA_EState1>
0

>  <VSA_EState2>
7.03

>  <VSA_EState3>
4.56

>  <VSA_EState4>
1.08

>  <VSA_EState5>
1.1

>  <VSA_EState6>
12.53

>  <VSA_EState7>
0

>  <VSA_EState8>
4.19

>  <VSA_EState9>
0

>  <apol>
35.01

>  <bpol>
18.47

>  <nRing>
3

>  <nHRing>
2

>  <naRing>
2

>  <naHRing>
1

>  <nARing 2>
1

>  <nAHRing 2>
1

>  <nFRing>
1

>  <nFHRing>
1

>  <nFaRing>
1

>  <nFaHRing>
1

>  <nFARing 2>
0

>  <nFAHRing 2>
0

>  <nRot>
1

>  <SLogP>
1.64

>  <SMR>
66.83

>  <TopoPSA(NO)>
28.16

>  <TopoPSA>
28.16

>  <JGI1>
0.11

>  <JGI2>
0.06

>  <JGI3>
0.02

>  <JGI4>
0.03

>  <JGI5>
0.02

>  <Diameter>
9

>  <Radius>
5

>  <TMWC10>
104.78

>  <TSRW10>
48.55

>  <MW>
213.13

>  <AMW>
6.88

>  <WPath>
436

>  <WPol>
23

>  <Zagreb1>
84

>  <Zagreb2>
98

>  <mZagreb2>
3.56

>  <yes>


>  <nAR-cont>
0.816016

>  <nHA-cont>
0.954961865

>  <MWHBN>
0.273991884

>  <MWHBN-cont>
0.910833348

>  <TPSA-cont>
0.803425714

>  <pka_cont>
0.97

>  <yes.1>


>  <BBB_SCORE>
5.229079315

>  <MMFF94 Energy>
73.877

$$$$
Compound 1989
Actelion Java MolfileCreator 2.0

  0  0  0  0  0  0              0 V3000
M  V30 BEGIN CTAB
M  V30 COUNTS 51 54 0 0 0
M  V30 BEGIN ATOM
M  V30 1 O -1.6964 -1.1307 1.2923 0
M  V30 2 C -1.1543 -0.943 0.2039 0
M  V30 3 C -0.6175 0.4067 -0.1252 0
M  V30 4 C -0.9925 -2.0458 -0.8303 0
M  V30 5 C -0.9434 1.5048 0.6897 0
M  V30 6 C 0.2292 0.5704 -1.2333 0
M  V30 7 O -1.9441 -1.8151 -1.8774 0
M  V30 8 C -1.2775 -3.4295 -0.2449 0
M  V30 9 C 0.413 -1.9971 -1.424 0 CFG=1
M  V30 10 O -1.7553 1.3499 1.8007 0
M  V30 11 C -0.4549 2.8097 0.4251 0
M  V30 12 C 0.6799 1.8765 -1.5612 0
M  V30 13 C 0.6259 -0.6214 -2.0877 0
M  V30 14 O -2.3511 -3.9893 -0.4754 0
M  V30 15 C -0.208 -4.0669 0.5793 0
M  V30 16 C 1.4795 -2.3264 -0.3611 0 CFG=1
M  V30 17 C -0.7475 3.9472 1.2374 0
M  V30 18 C 0.3735 2.9908 -0.7121 0
M  V30 19 C 1.5227 2.0993 -2.8038 0
M  V30 20 C 1.2115 -3.6583 0.3599 0
M  V30 21 C -0.4957 -4.9878 1.5282 0
M  V30 22 N 2.8224 -2.3742 -0.9699 0
M  V30 23 O -1.5514 3.843 2.3505 0
M  V30 24 C -0.2457 5.2249 0.9669 0
M  V30 25 C 0.877 4.2919 -0.9569 0
M  V30 26 O 2.1382 -4.3452 0.8015 0
M  V30 27 O 0.4796 -5.6243 2.2858 0
M  V30 28 C -1.8811 -5.4204 1.9255 0
M  V30 29 C 0.5762 5.385 -0.1404 0
M  V30 30 C -0.5754 6.3942 1.8485 0
M  V30 31 H -2.791 -2.2121 -1.579 0
M  V30 32 H 0.4809 -2.7514 -2.2229 0
M  V30 33 H -1.9623 0.3937 1.9142 0
M  V30 34 H 1.6775 -0.534 -2.3809 0
M  V30 35 H 0.0325 -0.5761 -3.0105 0
M  V30 36 H 1.5051 -1.556 0.4183 0
M  V30 37 H 2.5775 2.1932 -2.528 0
M  V30 38 H 1.1986 2.9973 -3.3401 0
M  V30 39 H 1.4244 1.2937 -3.5355 0
M  V30 40 H 2.8864 -3.1623 -1.6184 0
M  V30 41 H 3.4969 -2.6132 -0.2337 0
M  V30 42 H -1.8327 2.9069 2.4062 0
M  V30 43 H 1.5365 4.487 -1.7995 0
M  V30 44 H 1.3726 -5.3916 1.9467 0
M  V30 45 H -2.2444 -6.203 1.2526 0
M  V30 46 H -1.8784 -5.8285 2.9426 0
M  V30 47 H -2.5876 -4.5849 1.9331 0
M  V30 48 H 0.994 6.3596 -0.3823 0
M  V30 49 H -1.658 6.5555 1.8777 0
M  V30 50 H -0.206 6.2199 2.8643 0
M  V30 51 H -0.1137 7.3168 1.4809 0
M  V30 END ATOM
M  V30 BEGIN BOND
M  V30 1 2 1 2
M  V30 2 1 2 3
M  V30 3 1 2 4
M  V30 4 2 3 5
M  V30 5 1 3 6
M  V30 6 1 4 7
M  V30 7 1 4 8
M  V30 8 1 4 9
M  V30 9 1 5 10
M  V30 10 1 5 11
M  V30 11 2 6 12
M  V30 12 1 6 13
M  V30 13 2 8 14
M  V30 14 1 8 15
M  V30 15 1 9 16
M  V30 16 2 11 17
M  V30 17 1 11 18
M  V30 18 1 12 19
M  V30 19 1 15 20
M  V30 20 2 15 21
M  V30 21 1 16 22
M  V30 22 1 17 23
M  V30 23 1 17 24
M  V30 24 2 18 25
M  V30 25 2 20 26
M  V30 26 1 21 27
M  V30 27 1 21 28
M  V30 28 2 24 29
M  V30 29 1 24 30
M  V30 30 1 9 13
M  V30 31 1 12 18
M  V30 32 1 16 20
M  V30 33 1 25 29
M  V30 34 1 7 31
M  V30 35 1 9 32
M  V30 36 1 10 33
M  V30 37 1 13 34
M  V30 38 1 13 35
M  V30 39 1 16 36
M  V30 40 1 19 37
M  V30 41 1 19 38
M  V30 42 1 19 39
M  V30 43 1 22 40
M  V30 44 1 22 41
M  V30 45 1 23 42
M  V30 46 1 25 43
M  V30 47 1 27 44
M  V30 48 1 28 45
M  V30 49 1 28 46
M  V30 50 1 28 47
M  V30 51 1 29 48
M  V30 52 1 30 49
M  V30 53 1 30 50
M  V30 54 1 30 51
M  V30 END BOND
M  V30 BEGIN COLLECTION
M  V30 MDLV30/STEABS ATOMS=(2 9 16)
M  V30 END COLLECTION
M  V30 END CTAB
M  END
>  <Column 1>
2424

>  <level_0>
2621

>  <index>
2621

>  <Unnamed: 0>
2621

>  <NO.>
2633

>  <Name>


>  <IUPAC_name>


>  <SMILES>
C/C(O)=C1/C(=O)[C@@H](N)[C@@H]2Cc3c(c(O)c4c(O)c(C)ccc4c3C)C(=O)C2(O)C1=O

>  <CID>


>  <logBB>


>  <BBB+/BBB->
BBB-

>  <Inchi>
InChI=1S/C22H21NO7/c1-7-4-5-10-8(2)11-6-12-16(23)19(27)13(9(3)24)20(28)22(12-30)21(29)15(11)18(26)14(10)17(7)25/h4-5-12-16-24-26-30H-6-23H2-1-3H3/b13-9+/t12--16--22?/m0/s1

>  <threshold>
-1

>  <reference>
R13|

>  <group>
B

>  <Class>
-1

>  <ABC>
23.84

>  <ABCGG>
19.69

>  <nAcid>
0

>  <nBase>
1

>  <nAromAtom>
10

>  <nAromBond>
11

>  <nAtom>
51

>  <nHeavyAtom>
30

>  <nSpiro>
0

>  <nBridgehead>
0

>  <nHetero>
8

>  <nN>
1

>  <nO>
7

>  <nF>
0

>  <BalabanJ>
1.74

>  <BertzCT>
1222.2

>  <nBonds>
54

>  <nBondsO>
33

>  <nBondsS>
39

>  <nBondsD>
4

>  <nBondsT>
0

>  <nBondsA>
11

>  <nBondsM>
15

>  <nBondsKS>
45

>  <nBondsKD>
9

>  <RNCG>
0.15

>  <RPCG>
0.09

>  <FCSP3>
0.32

>  <SZ>
36

>  <Sm>
34.25

>  <Sv>
33.45

>  <Sse>
52.3

>  <Sp>
34.41

>  <Si>
57.12

>  <MZ>
0.71

>  <Mm>
0.67

>  <Mv>
0.66

>  <Mse>
1.03

>  <Mp>
0.67

>  <Mi>
1.12

>  <NsCH3>
3

>  <NdCH2>
0

>  <NssCH2>
1

>  <NtCH>
0

>  <NdsCH>
0

>  <NaaCH>
2

>  <NsssCH>
2

>  <NddC>
0

>  <NtsC>
0

>  <NdssC>
5

>  <NaasC>
6

>  <NaaaC>
2

>  <NssssC>
1

>  <NsNH3>
0

>  <NsNH2>
1

>  <NssNH2>
0

>  <NdNH>
0

>  <NssNH>
0

>  <NaaNH>
0

>  <NtN>
0

>  <NsssNH>
0

>  <NdsN>
0

>  <NaaN>
0

>  <NsssN>
0

>  <NddsN>
0

>  <NaasN>
0

>  <NssssN>
0

>  <NsOH>
4

>  <NdO>
3

>  <NssO>
0

>  <NaaO>
0

>  <NsF>
0

>  <NsSiH3>
0

>  <NssSiH2>
0

>  <NsssSiH>
0

>  <NssssSi>
0

>  <NsPH2>
0

>  <NssPH>
0

>  <NsssP>
0

>  <NdsssP>
0

>  <NsssssP>
0

>  <NsSH>
0

>  <NdS>
0

>  <NssS>
0

>  <NaaS>
0

>  <NdssS>
0

>  <NddssS>
0

>  <NsCl>
0

>  <NsBr>
0

>  <NsI>
0

>  <fragCpx>
219.08

>  <fMF>
0.35

>  <nHBAcc>
8

>  <nHBDon>
5

>  <Kier1>
23.17

>  <Kier2>
7.8

>  <Lipinski>
1

>  <GhoseFilter>
1

>  <FilterItLogS>
-3.63

>  <VMcGowan>
289.77

>  <LabuteASA>
170.79

>  <PEOE_VSA1>
26.16

>  <PEOE_VSA2>
14.38

>  <PEOE_VSA3>
0

>  <PEOE_VSA4>
0

>  <PEOE_VSA5>
0

>  <PEOE_VSA6>
12.13

>  <PEOE_VSA7>
49.27

>  <PEOE_VSA8>
5.92

>  <PEOE_VSA9>
16.99

>  <PEOE_VSA10>
22.83

>  <PEOE_VSA11>
11.38

>  <PEOE_VSA12>
11.57

>  <PEOE_VSA13>
0

>  <SMR_VSA1>
34.81

>  <SMR_VSA2>
0

>  <SMR_VSA3>
0

>  <SMR_VSA4>
11.65

>  <SMR_VSA5>
38.83

>  <SMR_VSA6>
0

>  <SMR_VSA7>
45.72

>  <SMR_VSA8>
0

>  <SMR_VSA9>
11.5

>  <SlogP_VSA1>
5.73

>  <SlogP_VSA2>
49.42

>  <SlogP_VSA3>
16.01

>  <SlogP_VSA4>
19.77

>  <SlogP_VSA5>
33.97

>  <SlogP_VSA6>
23.47

>  <SlogP_VSA7>
0

>  <SlogP_VSA8>
10.77

>  <SlogP_VSA9>
0

>  <SlogP_VSA10>
0

>  <SlogP_VSA11>
11.5

>  <EState_VSA1>
51.99

>  <EState_VSA2>
23.12

>  <EState_VSA3>
22.08

>  <EState_VSA4>
6.92

>  <EState_VSA5>
0

>  <EState_VSA6>
25.98

>  <EState_VSA7>
0

>  <EState_VSA8>
0

>  <EState_VSA9>
5.73

>  <EState_VSA10>
34.81

>  <VSA_EState1>
0

>  <VSA_EState2>
38.99

>  <VSA_EState3>
42.99

>  <VSA_EState4>
3.69

>  <VSA_EState5>
-5.85

>  <VSA_EState6>
1.96

>  <VSA_EState7>
-0.11

>  <VSA_EState8>
4.41

>  <VSA_EState9>
0

>  <apol>
57.46

>  <bpol>
23.1

>  <nRing>
4

>  <nHRing>
0

>  <naRing>
2

>  <naHRing>
0

>  <nARing 2>
2

>  <nAHRing 2>
0

>  <nFRing>
1

>  <nFHRing>
0

>  <nFaRing>
0

>  <nFaHRing>
0

>  <nFARing 2>
1

>  <nFAHRing 2>
0

>  <nRot>
0

>  <SLogP>
1.27

>  <SMR>
106.54

>  <TopoPSA(NO)>
158.15

>  <TopoPSA>
158.15

>  <JGI1>
0.23

>  <JGI2>
0.12

>  <JGI3>
0.07

>  <JGI4>
0.07

>  <JGI5>
0.03

>  <Diameter>
11

>  <Radius>
6

>  <TMWC10>
144.07

>  <TSRW10>
67.13

>  <MW>
411.13

>  <AMW>
8.06

>  <WPath>
2046

>  <WPol>
71

>  <Zagreb1>
174

>  <Zagreb2>
224

>  <mZagreb2>
6.31

>  <yes>


>  <nAR-cont>
1

>  <nHA-cont>
0.74523694

>  <MWHBN>
0.641141322

>  <MWHBN-cont>
0

>  <TPSA-cont>
0

>  <pka_cont>
0.97

>  <yes.1>


>  <BBB_SCORE>
2.23023694

>  <MMFF94 Energy>
135.7

$$$$
Compound 1990
Actelion Java MolfileCreator 2.0

  0  0  0  0  0  0              0 V3000
M  V30 BEGIN CTAB
M  V30 COUNTS 32 34 0 0 0
M  V30 BEGIN ATOM
M  V30 1 N 1.9797 -2.6139 -2.1382 0
M  V30 2 C 1.2097 -1.7602 -1.403 0
M  V30 3 C 1.5305 -3.9953 -2.0548 0
M  V30 4 N 0.216 -2.487 -0.816 0
M  V30 5 C 1.4085 -0.4374 -1.3092 0
M  V30 6 C 0.2542 -3.8951 -1.1696 0
M  V30 7 C 0.61 0.5029 -0.5413 0
M  V30 8 C 0.3897 0.359 0.778 0
M  V30 9 C 0.0879 1.7036 -1.2933 0
M  V30 10 C -0.382 1.3581 1.5259 0
M  V30 11 C -1.1857 2.2905 -0.6707 0
M  V30 12 C -1.1354 2.3246 0.8362 0
M  V30 13 C -0.3865 1.3474 2.9246 0
M  V30 14 C -1.8909 3.2602 1.5546 0
M  V30 15 C -1.1308 2.2924 3.6334 0
M  V30 16 C -1.8817 3.2468 2.9493 0
M  V30 17 H 2.7928 -2.3076 -2.6492 0
M  V30 18 H 2.2907 -4.6223 -1.5787 0
M  V30 19 H 1.2971 -4.3974 -3.045 0
M  V30 20 H -0.5245 -2.0416 -0.2942 0
M  V30 21 H 2.2236 0.0074 -1.8741 0
M  V30 22 H 0.3363 -4.5267 -0.2801 0
M  V30 23 H -0.6389 -4.1789 -1.7346 0
M  V30 24 H 0.8 -0.4826 1.3281 0
M  V30 25 H -0.1281 1.4474 -2.338 0
M  V30 26 H 0.8757 2.4684 -1.3099 0
M  V30 27 H -2.0514 1.6838 -0.9658 0
M  V30 28 H -1.3416 3.2996 -1.0704 0
M  V30 29 H 0.1912 0.6077 3.4726 0
M  V30 30 H -2.492 3.9996 1.0312 0
M  V30 31 H -1.1268 2.2809 4.7201 0
M  V30 32 H -2.4656 3.9774 3.503 0
M  V30 END ATOM
M  V30 BEGIN BOND
M  V30 1 1 1 2
M  V30 2 1 1 3
M  V30 3 1 2 4
M  V30 4 2 2 5
M  V30 5 1 3 6
M  V30 6 1 5 7
M  V30 7 2 7 8
M  V30 8 1 7 9
M  V30 9 1 8 10
M  V30 10 1 9 11
M  V30 11 2 10 12
M  V30 12 1 10 13
M  V30 13 1 12 14
M  V30 14 2 13 15
M  V30 15 2 14 16
M  V30 16 1 4 6
M  V30 17 1 11 12
M  V30 18 1 15 16
M  V30 19 1 1 17
M  V30 20 1 3 18
M  V30 21 1 3 19
M  V30 22 1 4 20
M  V30 23 1 5 21
M  V30 24 1 6 22
M  V30 25 1 6 23
M  V30 26 1 8 24
M  V30 27 1 9 25
M  V30 28 1 9 26
M  V30 29 1 11 27
M  V30 30 1 11 28
M  V30 31 1 13 29
M  V30 32 1 14 30
M  V30 33 1 15 31
M  V30 34 1 16 32
M  V30 END BOND
M  V30 END CTAB
M  END
>  <Column 1>
2425

>  <level_0>
2629

>  <index>
2629

>  <Unnamed: 0>
2629

>  <NO.>
2641

>  <Name>
2-(3-4-dihydronaphthalen-2-ylmethylidene)imidazolidine

>  <IUPAC_name>
2-(3-4-dihydronaphthalen-2-ylmethylidene)imidazolidine

>  <SMILES>
C1=C(C=C2NCCN2)CCc2ccccc21

>  <CID>
86325518

>  <logBB>


>  <BBB+/BBB->
BBB+

>  <Inchi>
InChI=1S/C14H16N2/c1-2-4-13-9-11(5-6-12(13)3-1)10-14-15-7-8-16-14/h1-4-9-10-15-16H-5-8H2

>  <threshold>
-1

>  <reference>
R13|

>  <group>
B

>  <Class>
1

>  <ABC>
12.69

>  <ABCGG>
10.32

>  <nAcid>
0

>  <nBase>
0

>  <nAromAtom>
6

>  <nAromBond>
6

>  <nAtom>
32

>  <nHeavyAtom>
16

>  <nSpiro>
0

>  <nBridgehead>
0

>  <nHetero>
2

>  <nN>
2

>  <nO>
0

>  <nF>
0

>  <BalabanJ>
1.5

>  <BertzCT>
449.56

>  <nBonds>
34

>  <nBondsO>
18

>  <nBondsS>
26

>  <nBondsD>
2

>  <nBondsT>
0

>  <nBondsA>
6

>  <nBondsM>
8

>  <nBondsKS>
29

>  <nBondsKD>
5

>  <RNCG>
0.31

>  <RPCG>
0.13

>  <FCSP3>
0.29

>  <SZ>
19

>  <Sm>
17.68

>  <Sv>
19.85

>  <Sse>
31.43

>  <Sp>
21.71

>  <Si>
35.9

>  <MZ>
0.59

>  <Mm>
0.55

>  <Mv>
0.62

>  <Mse>
0.98

>  <Mp>
0.68

>  <Mi>
1.12

>  <NsCH3>
0

>  <NdCH2>
0

>  <NssCH2>
4

>  <NtCH>
0

>  <NdsCH>
2

>  <NaaCH>
4

>  <NsssCH>
0

>  <NddC>
0

>  <NtsC>
0

>  <NdssC>
2

>  <NaasC>
2

>  <NaaaC>
0

>  <NssssC>
0

>  <NsNH3>
0

>  <NsNH2>
0

>  <NssNH2>
0

>  <NdNH>
0

>  <NssNH>
2

>  <NaaNH>
0

>  <NtN>
0

>  <NsssNH>
0

>  <NdsN>
0

>  <NaaN>
0

>  <NsssN>
0

>  <NddsN>
0

>  <NaasN>
0

>  <NssssN>
0

>  <NsOH>
0

>  <NdO>
0

>  <NssO>
0

>  <NaaO>
0

>  <NsF>
0

>  <NsSiH3>
0

>  <NssSiH2>
0

>  <NsssSiH>
0

>  <NssssSi>
0

>  <NsPH2>
0

>  <NssPH>
0

>  <NsssP>
0

>  <NdsssP>
0

>  <NsssssP>
0

>  <NsSH>
0

>  <NdS>
0

>  <NssS>
0

>  <NaaS>
0

>  <NdssS>
0

>  <NddssS>
0

>  <NsCl>
0

>  <NsBr>
0

>  <NsI>
0

>  <fragCpx>
84.02

>  <fMF>
0.5

>  <nHBAcc>
2

>  <nHBDon>
2

>  <Kier1>
11.11

>  <Kier2>
5.1

>  <Lipinski>
1

>  <GhoseFilter>
1

>  <FilterItLogS>
-3.62

>  <VMcGowan>
174

>  <LabuteASA>
96.06

>  <PEOE_VSA1>
10.63

>  <PEOE_VSA2>
0

>  <PEOE_VSA3>
0

>  <PEOE_VSA4>
0

>  <PEOE_VSA5>
0

>  <PEOE_VSA6>
30.34

>  <PEOE_VSA7>
35.62

>  <PEOE_VSA8>
13.09

>  <PEOE_VSA9>
5.82

>  <PEOE_VSA10>
0

>  <PEOE_VSA11>
0

>  <PEOE_VSA12>
0

>  <PEOE_VSA13>
0

>  <SMR_VSA1>
0

>  <SMR_VSA2>
0

>  <SMR_VSA3>
10.63

>  <SMR_VSA4>
0

>  <SMR_VSA5>
12.84

>  <SMR_VSA6>
13.09

>  <SMR_VSA7>
52.86

>  <SMR_VSA8>
0

>  <SMR_VSA9>
0

>  <SlogP_VSA1>
10.63

>  <SlogP_VSA2>
13.09

>  <SlogP_VSA3>
6.42

>  <SlogP_VSA4>
0

>  <SlogP_VSA5>
17.55

>  <SlogP_VSA6>
41.74

>  <SlogP_VSA7>
0

>  <SlogP_VSA8>
6.08

>  <SlogP_VSA9>
0

>  <SlogP_VSA10>
0

>  <SlogP_VSA11>
0

>  <EState_VSA1>
0

>  <EState_VSA2>
0

>  <EState_VSA3>
0

>  <EState_VSA4>
25.93

>  <EState_VSA5>
22.52

>  <EState_VSA6>
0

>  <EState_VSA7>
0

>  <EState_VSA8>
47.05

>  <EState_VSA9>
0

>  <EState_VSA10>
0

>  <VSA_EState1>
0

>  <VSA_EState2>
0

>  <VSA_EState3>
6.67

>  <VSA_EState4>
4.26

>  <VSA_EState5>
1.17

>  <VSA_EState6>
8.65

>  <VSA_EState7>
6.84

>  <VSA_EState8>
2.07

>  <VSA_EState9>
0

>  <apol>
36.25

>  <bpol>
17.19

>  <nRing>
3

>  <nHRing>
1

>  <naRing>
1

>  <naHRing>
0

>  <nARing 2>
2

>  <nAHRing 2>
1

>  <nFRing>
1

>  <nFHRing>
0

>  <nFaRing>
0

>  <nFaHRing>
0

>  <nFARing 2>
1

>  <nFAHRing 2>
0

>  <nRot>
1

>  <SLogP>
2.05

>  <SMR>
66.83

>  <TopoPSA(NO)>
24.06

>  <TopoPSA>
24.06

>  <JGI1>
0.14

>  <JGI2>
0.05

>  <JGI3>
0.03

>  <JGI4>
0.03

>  <JGI5>
0.01

>  <Diameter>
9

>  <Radius>
5

>  <TMWC10>
104.47

>  <TSRW10>
61.47

>  <MW>
212.13

>  <AMW>
6.63

>  <WPath>
455

>  <WPol>
20

>  <Zagreb1>
84

>  <Zagreb2>
97

>  <mZagreb2>
3.53

>  <yes>


>  <nAR-cont>
1

>  <nHA-cont>
0.954961865

>  <MWHBN>
0.274636936

>  <MWHBN-cont>
0.909294308

>  <TPSA-cont>
0.83204626

>  <pka_cont>
0.97

>  <yes.1>


>  <BBB_SCORE>
5.467995846

>  <MMFF94 Energy>
20.531

$$$$
Compound 1991
Actelion Java MolfileCreator 2.0

  0  0  0  0  0  0              0 V3000
M  V30 BEGIN CTAB
M  V30 COUNTS 38 41 0 0 0
M  V30 BEGIN ATOM
M  V30 1 N -2.1649 -2.2452 2.0044 0
M  V30 2 C -2.8578 -1.9064 0.875 0
M  V30 3 C -1.0488 -1.579 1.8981 0
M  V30 4 C -2.0647 -1.003 0.0696 0
M  V30 5 C -4.0852 -2.3057 0.5297 0
M  V30 6 C -0.9131 -0.7355 0.696 0
M  V30 7 C 0.0694 -1.6799 2.8878 0
M  V30 8 C -2.625 -0.5005 -1.2273 0
M  V30 9 C -4.6918 -1.8297 -0.6939 0
M  V30 10 C 0.2992 0.1003 0.475 0 CFG=1
M  V30 11 C 1.0819 -0.561 2.6825 0
M  V30 12 C -4.028 -0.9926 -1.5094 0
M  V30 13 N 1.4379 -0.4215 1.2676 0
M  V30 14 C 0.7018 0.2154 -1.0155 0
M  V30 15 C 1.8454 1.1764 -1.2678 0
M  V30 16 C 1.6295 2.5614 -1.2463 0
M  V30 17 C 3.1384 0.6928 -1.509 0
M  V30 18 C 2.6883 3.4445 -1.4628 0
M  V30 19 C 4.1953 1.5779 -1.7245 0
M  V30 20 C 3.9702 2.953 -1.7013 0
M  V30 21 H -4.6459 -2.98 1.167 0
M  V30 22 H 0.5453 -2.6582 2.753 0
M  V30 23 H -0.3405 -1.6405 3.9024 0
M  V30 24 H -1.9846 -0.8302 -2.0533 0
M  V30 25 H -2.6374 0.5955 -1.2213 0
M  V30 26 H -5.6963 -2.1678 -0.9285 0
M  V30 27 H 0.0719 1.1091 0.847 0
M  V30 28 H 1.9863 -0.7935 3.2557 0
M  V30 29 H 0.6962 0.3889 3.0735 0
M  V30 30 H -4.5003 -0.6475 -2.4246 0
M  V30 31 H 2.215 0.2373 1.1812 0
M  V30 32 H 0.9534 -0.775 -1.4185 0
M  V30 33 H -0.145 0.5718 -1.6133 0
M  V30 34 H 0.635 2.9624 -1.0643 0
M  V30 35 H 3.33 -0.3783 -1.5245 0
M  V30 36 H 2.5131 4.5172 -1.4474 0
M  V30 37 H 5.1948 1.1937 -1.9109 0
M  V30 38 H 4.794 3.6413 -1.871 0
M  V30 END ATOM
M  V30 BEGIN BOND
M  V30 1 1 1 2
M  V30 2 2 1 3
M  V30 3 1 2 4
M  V30 4 2 2 5
M  V30 5 1 3 6
M  V30 6 1 3 7
M  V30 7 1 4 8
M  V30 8 1 5 9
M  V30 9 1 6 10
M  V30 10 1 7 11
M  V30 11 1 8 12
M  V30 12 1 10 13
M  V30 13 1 10 14
M  V30 14 1 14 15
M  V30 15 2 15 16
M  V30 16 1 15 17
M  V30 17 1 16 18
M  V30 18 2 17 19
M  V30 19 2 18 20
M  V30 20 2 4 6
M  V30 21 2 9 12
M  V30 22 1 11 13
M  V30 23 1 19 20
M  V30 24 1 5 21
M  V30 25 1 7 22
M  V30 26 1 7 23
M  V30 27 1 8 24
M  V30 28 1 8 25
M  V30 29 1 9 26
M  V30 30 1 10 27
M  V30 31 1 11 28
M  V30 32 1 11 29
M  V30 33 1 12 30
M  V30 34 1 13 31
M  V30 35 1 14 32
M  V30 36 1 14 33
M  V30 37 1 16 34
M  V30 38 1 17 35
M  V30 39 1 18 36
M  V30 40 1 19 37
M  V30 41 1 20 38
M  V30 END BOND
M  V30 BEGIN COLLECTION
M  V30 MDLV30/STEABS ATOMS=(1 10)
M  V30 END COLLECTION
M  V30 END CTAB
M  END
>  <Column 1>
2426

>  <level_0>
2630

>  <index>
2630

>  <Unnamed: 0>
2630

>  <NO.>
2642

>  <Name>
fenharmane

>  <IUPAC_name>
(1s)-1-benzyl-2-3-4-9-tetrahydro-1h-pyrido[4-3-b]indole

>  <SMILES>
C1=CCC2=C3C(=NC2=C1)CCN[C@H]3Cc1ccccc1

>  <CID>
93535490

>  <logBB>


>  <BBB+/BBB->
BBB+

>  <Inchi>
InChI=1S/C18H18N2/c1-2-6-13(7-3-1)12-17-18-14-8-4-5-9-15(14)20-16(18)10-11-19-17/h1-7-9-17-19H-8-10-12H2/t17-/m0/s1

>  <threshold>
-1

>  <reference>
R13|R27|R30|

>  <group>
B

>  <Class>
1

>  <ABC>
16.1

>  <ABCGG>
12.61

>  <nAcid>
0

>  <nBase>
1

>  <nAromAtom>
6

>  <nAromBond>
6

>  <nAtom>
38

>  <nHeavyAtom>
20

>  <nSpiro>
0

>  <nBridgehead>
0

>  <nHetero>
2

>  <nN>
2

>  <nO>
0

>  <nF>
0

>  <BalabanJ>
1.45

>  <BertzCT>
647.26

>  <nBonds>
41

>  <nBondsO>
23

>  <nBondsS>
31

>  <nBondsD>
4

>  <nBondsT>
0

>  <nBondsA>
6

>  <nBondsM>
10

>  <nBondsKS>
34

>  <nBondsKD>
7

>  <RNCG>
0.28

>  <RPCG>
0.11

>  <FCSP3>
0.28

>  <SZ>
23.33

>  <Sm>
21.84

>  <Sv>
24.39

>  <Sse>
37.32

>  <Sp>
26.5

>  <Si>
42.32

>  <MZ>
0.61

>  <Mm>
0.57

>  <Mv>
0.64

>  <Mse>
0.98

>  <Mp>
0.7

>  <Mi>
1.11

>  <NsCH3>
0

>  <NdCH2>
0

>  <NssCH2>
4

>  <NtCH>
0

>  <NdsCH>
3

>  <NaaCH>
5

>  <NsssCH>
1

>  <NddC>
0

>  <NtsC>
0

>  <NdssC>
4

>  <NaasC>
1

>  <NaaaC>
0

>  <NssssC>
0

>  <NsNH3>
0

>  <NsNH2>
0

>  <NssNH2>
0

>  <NdNH>
0

>  <NssNH>
1

>  <NaaNH>
0

>  <NtN>
0

>  <NsssNH>
0

>  <NdsN>
1

>  <NaaN>
0

>  <NsssN>
0

>  <NddsN>
0

>  <NaasN>
0

>  <NssssN>
0

>  <NsOH>
0

>  <NdO>
0

>  <NssO>
0

>  <NaaO>
0

>  <NsF>
0

>  <NsSiH3>
0

>  <NssSiH2>
0

>  <NsssSiH>
0

>  <NssssSi>
0

>  <NsPH2>
0

>  <NssPH>
0

>  <NsssP>
0

>  <NdsssP>
0

>  <NsssssP>
0

>  <NsSH>
0

>  <NdS>
0

>  <NssS>
0

>  <NaaS>
0

>  <NdssS>
0

>  <NddssS>
0

>  <NsCl>
0

>  <NsBr>
0

>  <NsI>
0

>  <fragCpx>
149.02

>  <fMF>
0.53

>  <nHBAcc>
2

>  <nHBDon>
1

>  <Kier1>
13.65

>  <Kier2>
6.01

>  <Lipinski>
1

>  <GhoseFilter>
1

>  <FilterItLogS>
-4.2

>  <VMcGowan>
210.9

>  <LabuteASA>
119.17

>  <PEOE_VSA1>
5.32

>  <PEOE_VSA2>
4.99

>  <PEOE_VSA3>
0

>  <PEOE_VSA4>
0

>  <PEOE_VSA5>
0

>  <PEOE_VSA6>
42.48

>  <PEOE_VSA7>
35.63

>  <PEOE_VSA8>
24.72

>  <PEOE_VSA9>
5.7

>  <PEOE_VSA10>
0

>  <PEOE_VSA11>
0

>  <PEOE_VSA12>
0

>  <PEOE_VSA13>
0

>  <SMR_VSA1>
0

>  <SMR_VSA2>
0

>  <SMR_VSA3>
5.32

>  <SMR_VSA4>
4.99

>  <SMR_VSA5>
25.3

>  <SMR_VSA6>
6.54

>  <SMR_VSA7>
70.97

>  <SMR_VSA8>
0

>  <SMR_VSA9>
0

>  <SlogP_VSA1>
5.32

>  <SlogP_VSA2>
18.3

>  <SlogP_VSA3>
6.42

>  <SlogP_VSA4>
0

>  <SlogP_VSA5>
18.41

>  <SlogP_VSA6>
70.4

>  <SlogP_VSA7>
0

>  <SlogP_VSA8>
0

>  <SlogP_VSA9>
0

>  <SlogP_VSA10>
0

>  <SlogP_VSA11>
0

>  <EState_VSA1>
0

>  <EState_VSA2>
0

>  <EState_VSA3>
6.04

>  <EState_VSA4>
25.81

>  <EState_VSA5>
28.12

>  <EState_VSA6>
0

>  <EState_VSA7>
0

>  <EState_VSA8>
53.88

>  <EState_VSA9>
4.99

>  <EState_VSA10>
0

>  <VSA_EState1>
0

>  <VSA_EState2>
4.84

>  <VSA_EState3>
3.68

>  <VSA_EState4>
6.81

>  <VSA_EState5>
0

>  <VSA_EState6>
11.16

>  <VSA_EState7>
9.65

>  <VSA_EState8>
1.04

>  <VSA_EState9>
0

>  <apol>
44.26

>  <bpol>
19.77

>  <nRing>
4

>  <nHRing>
2

>  <naRing>
1

>  <naHRing>
0

>  <nARing 2>
3

>  <nAHRing 2>
2

>  <nFRing>
1

>  <nFHRing>
1

>  <nFaRing>
0

>  <nFaHRing>
0

>  <nFARing 2>
1

>  <nFAHRing 2>
1

>  <nRot>
2

>  <SLogP>
3.19

>  <SMR>
82.85

>  <TopoPSA(NO)>
24.39

>  <TopoPSA>
24.39

>  <JGI1>
0.11

>  <JGI2>
0.05

>  <JGI3>
0.05

>  <JGI4>
0.03

>  <JGI5>
0.01

>  <Diameter>
10

>  <Radius>
5

>  <TMWC10>
117.54

>  <TSRW10>
68.35

>  <MW>
262.15

>  <AMW>
6.9

>  <WPath>
778

>  <WPol>
31

>  <Zagreb1>
110

>  <Zagreb2>
132

>  <mZagreb2>
4.36

>  <yes>


>  <nAR-cont>
0.691115

>  <nHA-cont>
0.999629945

>  <MWHBN>
0.185287586

>  <MWHBN-cont>
0.992220296

>  <TPSA-cont>
0.829742655

>  <pka_cont>
0.97

>  <yes.1>


>  <BBB_SCORE>
5.323560699

>  <MMFF94 Energy>
35.962

$$$$
Compound 1992
Actelion Java MolfileCreator 2.0

  0  0  0  0  0  0              0 V3000
M  V30 BEGIN CTAB
M  V30 COUNTS 34 36 0 0 0
M  V30 BEGIN ATOM
M  V30 1 O -3.5918 0.7175 0.3188 0
M  V30 2 C -2.1929 1.0235 0.5009 0 CFG=1
M  V30 3 C -3.9942 -0.4522 1.0439 0
M  V30 4 C -1.8397 1.1176 2.0026 0
M  V30 5 C -1.2887 0.0443 -0.2661 0
M  V30 6 C -3.6666 -0.3346 2.5382 0
M  V30 7 N -2.2349 -0.0837 2.7612 0
M  V30 8 O 0.0411 0.5672 -0.297 0
M  V30 9 C 0.9897 -0.1725 -0.9435 0
M  V30 10 C 2.282 0.3402 -0.9482 0
M  V30 11 C 0.7777 -1.3912 -1.5985 0
M  V30 12 C 3.3355 -0.3356 -1.5835 0
M  V30 13 C 2.8067 1.5672 -0.3616 0
M  V30 14 C 1.8382 -2.0665 -2.235 0
M  V30 15 C 3.1304 -1.5399 -2.2313 0
M  V30 16 C 4.605 0.4441 -1.4282 0
M  V30 17 C 4.1203 1.6294 -0.631 0
M  V30 18 H -2.0431 2.0217 0.0708 0
M  V30 19 H -3.527 -1.3386 0.6009 0
M  V30 20 H -5.0762 -0.5593 0.9139 0
M  V30 21 H -0.7661 1.2888 2.1352 0
M  V30 22 H -2.3584 1.9831 2.435 0
M  V30 23 H -1.295 -0.9405 0.2151 0
M  V30 24 H -1.6754 -0.062 -1.2874 0
M  V30 25 H -3.9549 -1.2579 3.0511 0
M  V30 26 H -4.2473 0.4851 2.9788 0
M  V30 27 H -2.071 0.0815 3.7542 0
M  V30 28 H -0.2042 -1.8519 -1.6369 0
M  V30 29 H 2.2102 2.2777 0.1874 0
M  V30 30 H 1.6443 -3.0123 -2.7362 0
M  V30 31 H 3.9451 -2.0617 -2.7218 0
M  V30 32 H 4.9997 0.7606 -2.3978 0
M  V30 33 H 5.3551 -0.1222 -0.869 0
M  V30 34 H 4.7702 2.4339 -0.3176 0
M  V30 END ATOM
M  V30 BEGIN BOND
M  V30 1 1 1 2
M  V30 2 1 1 3
M  V30 3 1 2 4
M  V30 4 1 2 5
M  V30 5 1 3 6
M  V30 6 1 4 7
M  V30 7 1 5 8
M  V30 8 1 8 9
M  V30 9 2 9 10
M  V30 10 1 9 11
M  V30 11 1 10 12
M  V30 12 1 10 13
M  V30 13 2 11 14
M  V30 14 2 12 15
M  V30 15 1 12 16
M  V30 16 2 13 17
M  V30 17 1 6 7
M  V30 18 1 14 15
M  V30 19 1 16 17
M  V30 20 1 2 18
M  V30 21 1 3 19
M  V30 22 1 3 20
M  V30 23 1 4 21
M  V30 24 1 4 22
M  V30 25 1 5 23
M  V30 26 1 5 24
M  V30 27 1 6 25
M  V30 28 1 6 26
M  V30 29 1 7 27
M  V30 30 1 11 28
M  V30 31 1 13 29
M  V30 32 1 14 30
M  V30 33 1 15 31
M  V30 34 1 16 32
M  V30 35 1 16 33
M  V30 36 1 17 34
M  V30 END BOND
M  V30 BEGIN COLLECTION
M  V30 MDLV30/STEABS ATOMS=(1 2)
M  V30 END COLLECTION
M  V30 END CTAB
M  END
>  <Column 1>
2427

>  <level_0>
2631

>  <index>
2631

>  <Unnamed: 0>
2631

>  <NO.>
2643

>  <Name>
(2s)-2-(1h-inden-4-yloxymethyl)morpholine

>  <IUPAC_name>
(2s)-2-(1h-inden-4-yloxymethyl)morpholine

>  <SMILES>
C1=Cc2c(cccc2OC[C@@H]2CNCCO2)C1

>  <CID>
92966960

>  <logBB>


>  <BBB+/BBB->
BBB+

>  <Inchi>
InChI=1S/C14H17NO2/c1-3-11-4-2-6-14(13(11)5-1)17-10-12-9-15-7-8-16-12/h1-2-4-6-12-15H-3-7-10H2/t12-/m0/s1

>  <threshold>
-1

>  <reference>
R13|

>  <group>
B

>  <Class>
1

>  <ABC>
13.35

>  <ABCGG>
11.04

>  <nAcid>
0

>  <nBase>
1

>  <nAromAtom>
6

>  <nAromBond>
6

>  <nAtom>
34

>  <nHeavyAtom>
17

>  <nSpiro>
0

>  <nBridgehead>
0

>  <nHetero>
3

>  <nN>
1

>  <nO>
2

>  <nF>
0

>  <BalabanJ>
1.47

>  <BertzCT>
422.23

>  <nBonds>
36

>  <nBondsO>
19

>  <nBondsS>
29

>  <nBondsD>
1

>  <nBondsT>
0

>  <nBondsA>
6

>  <nBondsM>
7

>  <nBondsKS>
32

>  <nBondsKD>
4

>  <RNCG>
0.33

>  <RPCG>
0.09

>  <FCSP3>
0.43

>  <SZ>
20.67

>  <Sm>
19.26

>  <Sv>
20.79

>  <Sse>
33.87

>  <Sp>
22.41

>  <Si>
38.24

>  <MZ>
0.61

>  <Mm>
0.57

>  <Mv>
0.61

>  <Mse>
1

>  <Mp>
0.66

>  <Mi>
1.12

>  <NsCH3>
0

>  <NdCH2>
0

>  <NssCH2>
5

>  <NtCH>
0

>  <NdsCH>
2

>  <NaaCH>
3

>  <NsssCH>
1

>  <NddC>
0

>  <NtsC>
0

>  <NdssC>
0

>  <NaasC>
3

>  <NaaaC>
0

>  <NssssC>
0

>  <NsNH3>
0

>  <NsNH2>
0

>  <NssNH2>
0

>  <NdNH>
0

>  <NssNH>
1

>  <NaaNH>
0

>  <NtN>
0

>  <NsssNH>
0

>  <NdsN>
0

>  <NaaN>
0

>  <NsssN>
0

>  <NddsN>
0

>  <NaasN>
0

>  <NssssN>
0

>  <NsOH>
0

>  <NdO>
0

>  <NssO>
2

>  <NaaO>
0

>  <NsF>
0

>  <NsSiH3>
0

>  <NssSiH2>
0

>  <NsssSiH>
0

>  <NssssSi>
0

>  <NsPH2>
0

>  <NssPH>
0

>  <NsssP>
0

>  <NdsssP>
0

>  <NsssssP>
0

>  <NsSH>
0

>  <NdS>
0

>  <NssS>
0

>  <NaaS>
0

>  <NdssS>
0

>  <NddssS>
0

>  <NsCl>
0

>  <NsBr>
0

>  <NsI>
0

>  <fragCpx>
89.03

>  <fMF>
0.5

>  <nHBAcc>
3

>  <nHBDon>
1

>  <Kier1>
12.06

>  <Kier2>
5.76

>  <Lipinski>
1

>  <GhoseFilter>
1

>  <FilterItLogS>
-3.13

>  <VMcGowan>
180.06

>  <LabuteASA>
101.43

>  <PEOE_VSA1>
14.79

>  <PEOE_VSA2>
0

>  <PEOE_VSA3>
0

>  <PEOE_VSA4>
0

>  <PEOE_VSA5>
0

>  <PEOE_VSA6>
24.28

>  <PEOE_VSA7>
18.05

>  <PEOE_VSA8>
18.65

>  <PEOE_VSA9>
6.61

>  <PEOE_VSA10>
18.46

>  <PEOE_VSA11>
0

>  <PEOE_VSA12>
0

>  <PEOE_VSA13>
0

>  <SMR_VSA1>
9.47

>  <SMR_VSA2>
0

>  <SMR_VSA3>
5.32

>  <SMR_VSA4>
0

>  <SMR_VSA5>
12.52

>  <SMR_VSA6>
26.3

>  <SMR_VSA7>
35.4

>  <SMR_VSA8>
0

>  <SMR_VSA9>
5.75

>  <SlogP_VSA1>
10.05

>  <SlogP_VSA2>
32.41

>  <SlogP_VSA3>
11.16

>  <SlogP_VSA4>
0

>  <SlogP_VSA5>
11.13

>  <SlogP_VSA6>
24.28

>  <SlogP_VSA7>
0

>  <SlogP_VSA8>
6.08

>  <SlogP_VSA9>
0

>  <SlogP_VSA10>
0

>  <SlogP_VSA11>
5.75

>  <EState_VSA1>
0

>  <EState_VSA2>
6.1

>  <EState_VSA3>
6.61

>  <EState_VSA4>
31.87

>  <EState_VSA5>
11.13

>  <EState_VSA6>
0

>  <EState_VSA7>
6.07

>  <EState_VSA8>
29.6

>  <EState_VSA9>
9.47

>  <EState_VSA10>
0

>  <VSA_EState1>
11.49

>  <VSA_EState2>
0

>  <VSA_EState3>
3.3

>  <VSA_EState4>
2.58

>  <VSA_EState5>
0.98

>  <VSA_EState6>
6.24

>  <VSA_EState7>
5.51

>  <VSA_EState8>
3.23

>  <VSA_EState9>
0

>  <apol>
37.42

>  <bpol>
21.1

>  <nRing>
3

>  <nHRing>
1

>  <naRing>
1

>  <naHRing>
0

>  <nARing 2>
2

>  <nAHRing 2>
1

>  <nFRing>
1

>  <nFHRing>
0

>  <nFaRing>
0

>  <nFaHRing>
0

>  <nFARing 2>
1

>  <nFAHRing 2>
0

>  <nRot>
3

>  <SLogP>
1.62

>  <SMR>
67.28

>  <TopoPSA(NO)>
30.49

>  <TopoPSA>
30.49

>  <JGI1>
0.11

>  <JGI2>
0.06

>  <JGI3>
0.02

>  <JGI4>
0.03

>  <JGI5>
0.02

>  <Diameter>
9

>  <Radius>
5

>  <TMWC10>
106.96

>  <TSRW10>
63.19

>  <MW>
231.13

>  <AMW>
6.8

>  <WPath>
549

>  <WPol>
22

>  <Zagreb1>
88

>  <Zagreb2>
102

>  <mZagreb2>
3.81

>  <yes>


>  <nAR-cont>
1

>  <nHA-cont>
0.976740822

>  <MWHBN>
0.263106654

>  <MWHBN-cont>
0.935103265

>  <TPSA-cont>
0.787160867

>  <pka_cont>
0.97

>  <yes.1>


>  <BBB_SCORE>
5.438717453

>  <MMFF94 Energy>
114.92

$$$$
Compound 1993
Actelion Java MolfileCreator 2.0

  0  0  0  0  0  0              0 V3000
M  V30 BEGIN CTAB
M  V30 COUNTS 32 34 0 0 0
M  V30 BEGIN ATOM
M  V30 1 N -1.3554 4.3903 -0.1593 0
M  V30 2 C -0.216 4.8408 0.2629 0
M  V30 3 C -1.1367 2.91 -0.2712 0
M  V30 4 N 0.7854 3.9567 0.4431 0
M  V30 5 C 0.3618 2.6449 0.0122 0 CFG=1
M  V30 6 C 0.631 1.5936 1.0936 0
M  V30 7 C 0.2724 0.1854 0.6779 0
M  V30 8 C 1.071 -0.5376 -0.1291 0
M  V30 9 C -0.9803 -0.4204 1.2697 0
M  V30 10 C 0.7477 -1.9283 -0.4692 0
M  V30 11 C -1.5782 -1.5456 0.4152 0
M  V30 12 C -0.5285 -2.4444 -0.1853 0
M  V30 13 C 1.7006 -2.7448 -1.0879 0
M  V30 14 C -0.8378 -3.7658 -0.5335 0
M  V30 15 C 1.3891 -4.0649 -1.419 0
M  V30 16 C 0.1217 -4.5741 -1.1422 0
M  V30 17 H 0.0056 5.8982 0.4749 0
M  V30 18 H -1.4064 2.5769 -1.279 0
M  V30 19 H -1.7973 2.4133 0.4452 0
M  V30 20 H 1.739 4.1935 0.6739 0
M  V30 21 H 0.8779 2.3888 -0.9206 0
M  V30 22 H 0.1066 1.8551 2.0223 0
M  V30 23 H 1.6978 1.6205 1.3568 0
M  V30 24 H 1.9937 -0.1267 -0.5277 0
M  V30 25 H -0.7287 -0.8077 2.2658 0
M  V30 26 H -1.7517 0.343 1.4168 0
M  V30 27 H -2.159 -1.1092 -0.4076 0
M  V30 28 H -2.2724 -2.1277 1.0331 0
M  V30 29 H 2.693 -2.3636 -1.3141 0
M  V30 30 H -1.8283 -4.1687 -0.336 0
M  V30 31 H 2.135 -4.6948 -1.8966 0
M  V30 32 H -0.1214 -5.6 -1.4067 0
M  V30 END ATOM
M  V30 BEGIN BOND
M  V30 1 2 1 2
M  V30 2 1 1 3
M  V30 3 1 2 4
M  V30 4 1 3 5
M  V30 5 1 5 6
M  V30 6 1 6 7
M  V30 7 2 7 8
M  V30 8 1 7 9
M  V30 9 1 8 10
M  V30 10 1 9 11
M  V30 11 2 10 12
M  V30 12 1 10 13
M  V30 13 1 12 14
M  V30 14 2 13 15
M  V30 15 2 14 16
M  V30 16 1 4 5
M  V30 17 1 11 12
M  V30 18 1 15 16
M  V30 19 1 2 17
M  V30 20 1 3 18
M  V30 21 1 3 19
M  V30 22 1 4 20
M  V30 23 1 5 21
M  V30 24 1 6 22
M  V30 25 1 6 23
M  V30 26 1 8 24
M  V30 27 1 9 25
M  V30 28 1 9 26
M  V30 29 1 11 27
M  V30 30 1 11 28
M  V30 31 1 13 29
M  V30 32 1 14 30
M  V30 33 1 15 31
M  V30 34 1 16 32
M  V30 END BOND
M  V30 BEGIN COLLECTION
M  V30 MDLV30/STEABS ATOMS=(1 5)
M  V30 END COLLECTION
M  V30 END CTAB
M  END
>  <Column 1>
2428

>  <level_0>
2632

>  <index>
2632

>  <Unnamed: 0>
2632

>  <NO.>
2644

>  <Name>
schembl6958891

>  <IUPAC_name>
(5s)-5-(3-4-dihydronaphthalen-2-ylmethyl)-4-5-dihydro-1h-imidazole

>  <SMILES>
C1=NC[C@H](CC2=Cc3ccccc3CC2)N1

>  <CID>
57217772

>  <logBB>


>  <BBB+/BBB->
BBB+

>  <Inchi>
InChI=1S/C14H16N2/c1-2-4-13-7-11(5-6-12(13)3-1)8-14-9-15-10-16-14/h1-4-7-10-14H-5-6-8-9H2-(H-15-16)/t14-/m0/s1

>  <threshold>
-1

>  <reference>
R13|

>  <group>
B

>  <Class>
1

>  <ABC>
12.69

>  <ABCGG>
10.32

>  <nAcid>
0

>  <nBase>
2

>  <nAromAtom>
6

>  <nAromBond>
6

>  <nAtom>
32

>  <nHeavyAtom>
16

>  <nSpiro>
0

>  <nBridgehead>
0

>  <nHetero>
2

>  <nN>
2

>  <nO>
0

>  <nF>
0

>  <BalabanJ>
1.5

>  <BertzCT>
437.8

>  <nBonds>
34

>  <nBondsO>
18

>  <nBondsS>
26

>  <nBondsD>
2

>  <nBondsT>
0

>  <nBondsA>
6

>  <nBondsM>
8

>  <nBondsKS>
29

>  <nBondsKD>
5

>  <RNCG>
0.33

>  <RPCG>
0.14

>  <FCSP3>
0.36

>  <SZ>
19

>  <Sm>
17.68

>  <Sv>
19.85

>  <Sse>
31.43

>  <Sp>
21.71

>  <Si>
35.9

>  <MZ>
0.59

>  <Mm>
0.55

>  <Mv>
0.62

>  <Mse>
0.98

>  <Mp>
0.68

>  <Mi>
1.12

>  <NsCH3>
0

>  <NdCH2>
0

>  <NssCH2>
4

>  <NtCH>
0

>  <NdsCH>
2

>  <NaaCH>
4

>  <NsssCH>
1

>  <NddC>
0

>  <NtsC>
0

>  <NdssC>
1

>  <NaasC>
2

>  <NaaaC>
0

>  <NssssC>
0

>  <NsNH3>
0

>  <NsNH2>
0

>  <NssNH2>
0

>  <NdNH>
0

>  <NssNH>
1

>  <NaaNH>
0

>  <NtN>
0

>  <NsssNH>
0

>  <NdsN>
1

>  <NaaN>
0

>  <NsssN>
0

>  <NddsN>
0

>  <NaasN>
0

>  <NssssN>
0

>  <NsOH>
0

>  <NdO>
0

>  <NssO>
0

>  <NaaO>
0

>  <NsF>
0

>  <NsSiH3>
0

>  <NssSiH2>
0

>  <NsssSiH>
0

>  <NssssSi>
0

>  <NsPH2>
0

>  <NssPH>
0

>  <NsssP>
0

>  <NdsssP>
0

>  <NsssssP>
0

>  <NsSH>
0

>  <NdS>
0

>  <NssS>
0

>  <NaaS>
0

>  <NdssS>
0

>  <NddssS>
0

>  <NsCl>
0

>  <NsBr>
0

>  <NsI>
0

>  <fragCpx>
84.02

>  <fMF>
0.5

>  <nHBAcc>
2

>  <nHBDon>
1

>  <Kier1>
11.11

>  <Kier2>
5.1

>  <Lipinski>
1

>  <GhoseFilter>
1

>  <FilterItLogS>
-3.53

>  <VMcGowan>
174

>  <LabuteASA>
96.09

>  <PEOE_VSA1>
5.32

>  <PEOE_VSA2>
4.99

>  <PEOE_VSA3>
0

>  <PEOE_VSA4>
0

>  <PEOE_VSA5>
0

>  <PEOE_VSA6>
35.91

>  <PEOE_VSA7>
30.39

>  <PEOE_VSA8>
0

>  <PEOE_VSA9>
18.93

>  <PEOE_VSA10>
0

>  <PEOE_VSA11>
0

>  <PEOE_VSA12>
0

>  <PEOE_VSA13>
0

>  <SMR_VSA1>
0

>  <SMR_VSA2>
0

>  <SMR_VSA3>
5.32

>  <SMR_VSA4>
4.99

>  <SMR_VSA5>
25.3

>  <SMR_VSA6>
6.54

>  <SMR_VSA7>
40.97

>  <SMR_VSA8>
0

>  <SMR_VSA9>
0

>  <SlogP_VSA1>
5.32

>  <SlogP_VSA2>
18.93

>  <SlogP_VSA3>
6.42

>  <SlogP_VSA4>
0

>  <SlogP_VSA5>
23.97

>  <SlogP_VSA6>
34.83

>  <SlogP_VSA7>
0

>  <SlogP_VSA8>
6.08

>  <SlogP_VSA9>
0

>  <SlogP_VSA10>
0

>  <SlogP_VSA11>
0

>  <EState_VSA1>
0

>  <EState_VSA2>
0

>  <EState_VSA3>
6.04

>  <EState_VSA4>
12.97

>  <EState_VSA5>
23.97

>  <EState_VSA6>
5.57

>  <EState_VSA7>
6.34

>  <EState_VSA8>
40.65

>  <EState_VSA9>
0

>  <EState_VSA10>
0

>  <VSA_EState1>
0

>  <VSA_EState2>
4.21

>  <VSA_EState3>
3.3

>  <VSA_EState4>
4.45

>  <VSA_EState5>
0

>  <VSA_EState6>
9.22

>  <VSA_EState7>
7.72

>  <VSA_EState8>
0.93

>  <VSA_EState9>
0

>  <apol>
36.25

>  <bpol>
17.76

>  <nRing>
3

>  <nHRing>
1

>  <naRing>
1

>  <naHRing>
0

>  <nARing 2>
2

>  <nAHRing 2>
1

>  <nFRing>
1

>  <nFHRing>
0

>  <nFaRing>
0

>  <nFaHRing>
0

>  <nFARing 2>
1

>  <nFAHRing 2>
0

>  <nRot>
2

>  <SLogP>
2.41

>  <SMR>
67.64

>  <TopoPSA(NO)>
24.39

>  <TopoPSA>
24.39

>  <JGI1>
0.14

>  <JGI2>
0.05

>  <JGI3>
0.03

>  <JGI4>
0.03

>  <JGI5>
0.01

>  <Diameter>
9

>  <Radius>
5

>  <TMWC10>
104.47

>  <TSRW10>
61.47

>  <MW>
212.13

>  <AMW>
6.63

>  <WPath>
455

>  <WPol>
20

>  <Zagreb1>
84

>  <Zagreb2>
97

>  <mZagreb2>
3.53

>  <yes>


>  <nAR-cont>
1

>  <nHA-cont>
0.954961865

>  <MWHBN>
0.205977702

>  <MWHBN-cont>
0.999938427

>  <TPSA-cont>
0.829742655

>  <pka_cont>
0.97

>  <yes.1>


>  <BBB_SCORE>
5.599354815

>  <MMFF94 Energy>
49.183

$$$$
Compound 1994
Actelion Java MolfileCreator 2.0

  0  0  0  0  0  0              0 V3000
M  V30 BEGIN CTAB
M  V30 COUNTS 45 49 0 0 0
M  V30 BEGIN ATOM
M  V30 1 O -1.9498 4.2282 -0.2435 0
M  V30 2 C -1.1988 3.303 -0.5628 0
M  V30 3 C -0.2218 2.6623 0.4387 0 CFG=1
M  V30 4 C -1.1511 2.8275 -1.9963 0
M  V30 5 O -0.8352 2.7003 1.7733 0
M  V30 6 C 0.1107 1.193 0.1402 0
M  V30 7 C -1.1642 1.3038 -2.0662 0
M  V30 8 C -1.461 1.4803 1.8602 0
M  V30 9 C -1.0071 0.5888 0.9136 0
M  V30 10 C 0.0394 0.7225 -1.3165 0
M  V30 11 C 1.4507 0.7525 0.7731 0
M  V30 12 C -2.4627 1.1176 2.7267 0
M  V30 13 C -1.5686 -0.6577 0.7111 0
M  V30 14 O 1.2061 1.1923 -2.0233 0
M  V30 15 C 0.0818 -0.8456 -1.276 0
M  V30 16 C 1.7168 -0.7519 0.5846 0
M  V30 17 O -2.9311 1.9757 3.6705 0
M  V30 18 C -3.0254 -0.1533 2.6 0
M  V30 19 C -2.5924 -1.0346 1.5836 0
M  V30 20 C -1.1157 -1.4698 -0.4744 0
M  V30 21 N 1.4563 -1.2061 -0.7959 0
M  V30 22 C 1.7354 -2.6417 -0.95 0
M  V30 23 C 3.2132 -2.9031 -0.9819 0
M  V30 24 C 3.855 -3.7441 -0.1597 0
M  V30 25 H 0.6788 3.2868 0.4537 0
M  V30 26 H -2.028 3.2196 -2.5235 0
M  V30 27 H -0.261 3.2523 -2.4713 0
M  V30 28 H -2.1119 0.9287 -1.665 0
M  V30 29 H -1.1219 1.0075 -3.1215 0
M  V30 30 H 1.4836 0.9818 1.8464 0
M  V30 31 H 2.2729 1.3201 0.3177 0
M  V30 32 H 1.8802 0.4882 -1.8969 0
M  V30 33 H 0.0174 -1.203 -2.313 0
M  V30 34 H 1.1219 -1.3276 1.3044 0
M  V30 35 H 2.7669 -0.9274 0.8466 0
M  V30 36 H -2.4648 2.8209 3.5202 0
M  V30 37 H -3.8267 -0.4527 3.271 0
M  V30 38 H -3.0795 -2.0016 1.4794 0
M  V30 39 H -1.969 -1.5423 -1.1616 0
M  V30 40 H -0.8861 -2.4913 -0.155 0
M  V30 41 H 1.3421 -2.9956 -1.9114 0
M  V30 42 H 1.2444 -3.235 -0.1691 0
M  V30 43 H 3.7831 -2.3706 -1.7401 0
M  V30 44 H 3.3323 -4.3014 0.6112 0
M  V30 45 H 4.928 -3.8879 -0.2423 0
M  V30 END ATOM
M  V30 BEGIN BOND
M  V30 1 2 1 2
M  V30 2 1 2 3
M  V30 3 1 2 4
M  V30 4 1 3 5
M  V30 5 1 3 6
M  V30 6 1 4 7
M  V30 7 1 5 8
M  V30 8 1 6 9
M  V30 9 1 6 10
M  V30 10 1 6 11
M  V30 11 1 8 12
M  V30 12 1 9 13
M  V30 13 1 10 14
M  V30 14 1 10 15
M  V30 15 1 11 16
M  V30 16 1 12 17
M  V30 17 2 12 18
M  V30 18 2 13 19
M  V30 19 1 13 20
M  V30 20 1 15 21
M  V30 21 1 21 22
M  V30 22 1 22 23
M  V30 23 2 23 24
M  V30 24 1 7 10
M  V30 25 2 8 9
M  V30 26 1 15 20
M  V30 27 1 16 21
M  V30 28 1 18 19
M  V30 29 1 3 25
M  V30 30 1 4 26
M  V30 31 1 4 27
M  V30 32 1 7 28
M  V30 33 1 7 29
M  V30 34 1 11 30
M  V30 35 1 11 31
M  V30 36 1 14 32
M  V30 37 1 15 33
M  V30 38 1 16 34
M  V30 39 1 16 35
M  V30 40 1 17 36
M  V30 41 1 18 37
M  V30 42 1 19 38
M  V30 43 1 20 39
M  V30 44 1 20 40
M  V30 45 1 22 41
M  V30 46 1 22 42
M  V30 47 1 23 43
M  V30 48 1 24 44
M  V30 49 1 24 45
M  V30 END BOND
M  V30 BEGIN COLLECTION
M  V30 MDLV30/STEABS ATOMS=(1 3)
M  V30 END COLLECTION
M  V30 END CTAB
M  END
>  <Column 1>
2431

>  <level_0>
2657

>  <index>
2657

>  <Unnamed: 0>
2657

>  <NO.>
2669

>  <Name>
(7as)-4a-9-dihydroxy-3-prop-2-enyl-2-4-5-6-7a-13-hexahydro-1h-4-12-methanobenzofuro[3-2-e]isoquinolin-7-one

>  <IUPAC_name>
(7as)-4a-9-dihydroxy-3-prop-2-enyl-2-4-5-6-7a-13-hexahydro-1h-4-12-methanobenzofuro[3-2-e]isoquinolin-7-one

>  <SMILES>
C=CCN1CCC23c4c5ccc(O)c4O[C@@H]2C(=O)CCC3(O)C1C5

>  <CID>
13303885

>  <logBB>


>  <BBB+/BBB->
BBB+

>  <Inchi>
InChI=1S/C19H21NO4/c1-2-8-20-9-7-18-15-11-3-4-12(21)16(15)24-17(18)13(22)5-6-19(18-23)14(20)10-11/h2-4-14-17-21-23H-1-5-10H2/t14?-17--18?-19?/m1/s1

>  <threshold>
-1

>  <reference>
R13|

>  <group>
B

>  <Class>
1

>  <ABC>
19.69

>  <ABCGG>
15.23

>  <nAcid>
0

>  <nBase>
1

>  <nAromAtom>
6

>  <nAromBond>
6

>  <nAtom>
45

>  <nHeavyAtom>
24

>  <nSpiro>
1

>  <nBridgehead>
2

>  <nHetero>
5

>  <nN>
1

>  <nO>
4

>  <nF>
0

>  <BalabanJ>
1.64

>  <BertzCT>
774.88

>  <nBonds>
49

>  <nBondsO>
28

>  <nBondsS>
41

>  <nBondsD>
2

>  <nBondsT>
0

>  <nBondsA>
6

>  <nBondsM>
8

>  <nBondsKS>
44

>  <nBondsKD>
5

>  <RNCG>
0.22

>  <RPCG>
0.13

>  <FCSP3>
0.53

>  <SZ>
29

>  <Sm>
27.26

>  <Sv>
28.31

>  <Sse>
45.31

>  <Sp>
29.96

>  <Si>
50.49

>  <MZ>
0.64

>  <Mm>
0.61

>  <Mv>
0.63

>  <Mse>
1.01

>  <Mp>
0.67

>  <Mi>
1.12

>  <NsCH3>
0

>  <NdCH2>
1

>  <NssCH2>
6

>  <NtCH>
0

>  <NdsCH>
1

>  <NaaCH>
2

>  <NsssCH>
2

>  <NddC>
0

>  <NtsC>
0

>  <NdssC>
1

>  <NaasC>
4

>  <NaaaC>
0

>  <NssssC>
2

>  <NsNH3>
0

>  <NsNH2>
0

>  <NssNH2>
0

>  <NdNH>
0

>  <NssNH>
0

>  <NaaNH>
0

>  <NtN>
0

>  <NsssNH>
0

>  <NdsN>
0

>  <NaaN>
0

>  <NsssN>
1

>  <NddsN>
0

>  <NaasN>
0

>  <NssssN>
0

>  <NsOH>
2

>  <NdO>
1

>  <NssO>
1

>  <NaaO>
0

>  <NsF>
0

>  <NsSiH3>
0

>  <NssSiH2>
0

>  <NsssSiH>
0

>  <NssssSi>
0

>  <NsPH2>
0

>  <NssPH>
0

>  <NsssP>
0

>  <NdsssP>
0

>  <NsssssP>
0

>  <NsSH>
0

>  <NdS>
0

>  <NssS>
0

>  <NaaS>
0

>  <NdssS>
0

>  <NddssS>
0

>  <NsCl>
0

>  <NsBr>
0

>  <NsI>
0

>  <fragCpx>
232.05

>  <fMF>
0.4

>  <nHBAcc>
5

>  <nHBDon>
2

>  <Kier1>
16.19

>  <Kier2>
5.26

>  <Lipinski>
1

>  <GhoseFilter>
1

>  <FilterItLogS>
-3.01

>  <VMcGowan>
236.23

>  <LabuteASA>
140.09

>  <PEOE_VSA1>
14.95

>  <PEOE_VSA2>
9.69

>  <PEOE_VSA3>
0

>  <PEOE_VSA4>
0

>  <PEOE_VSA5>
6.58

>  <PEOE_VSA6>
12.14

>  <PEOE_VSA7>
30.89

>  <PEOE_VSA8>
31.12

>  <PEOE_VSA9>
11.02

>  <PEOE_VSA10>
0

>  <PEOE_VSA11>
23.39

>  <PEOE_VSA12>
0

>  <PEOE_VSA13>
0

>  <SMR_VSA1>
19.74

>  <SMR_VSA2>
0

>  <SMR_VSA3>
4.9

>  <SMR_VSA4>
0

>  <SMR_VSA5>
48.85

>  <SMR_VSA6>
13.09

>  <SMR_VSA7>
35.91

>  <SMR_VSA8>
0

>  <SMR_VSA9>
11.5

>  <SlogP_VSA1>
4.74

>  <SlogP_VSA2>
51.73

>  <SlogP_VSA3>
16.63

>  <SlogP_VSA4>
0

>  <SlogP_VSA5>
30.39

>  <SlogP_VSA6>
24.79

>  <SlogP_VSA7>
0

>  <SlogP_VSA8>
0

>  <SlogP_VSA9>
0

>  <SlogP_VSA10>
0

>  <SlogP_VSA11>
11.5

>  <EState_VSA1>
17.12

>  <EState_VSA2>
17.57

>  <EState_VSA3>
31.43

>  <EState_VSA4>
24.22

>  <EState_VSA5>
0

>  <EState_VSA6>
6.07

>  <EState_VSA7>
12.14

>  <EState_VSA8>
11.48

>  <EState_VSA9>
4.74

>  <EState_VSA10>
15.01

>  <VSA_EState1>
5.98

>  <VSA_EState2>
14.91

>  <VSA_EState3>
22.1

>  <VSA_EState4>
0.26

>  <VSA_EState5>
0.53

>  <VSA_EState6>
3.52

>  <VSA_EState7>
3.35

>  <VSA_EState8>
5.36

>  <VSA_EState9>
0

>  <apol>
50.04

>  <bpol>
25.38

>  <nRing>
5

>  <nHRing>
2

>  <naRing>
1

>  <naHRing>
0

>  <nARing 2>
4

>  <nAHRing 2>
2

>  <nFRing>
1

>  <nFHRing>
1

>  <nFaRing>
0

>  <nFaHRing>
0

>  <nFARing 2>
1

>  <nFAHRing 2>
1

>  <nRot>
2

>  <SLogP>
1.3

>  <SMR>
87.27

>  <TopoPSA(NO)>
70

>  <TopoPSA>
70

>  <JGI1>
0.21

>  <JGI2>
0.12

>  <JGI3>
0.06

>  <JGI4>
0.06

>  <JGI5>
0.03

>  <Diameter>
10

>  <Radius>
5

>  <TMWC10>
132.8

>  <TSRW10>
75.23

>  <MW>
327.15

>  <AMW>
7.27

>  <WPath>
1047

>  <WPol>
58

>  <Zagreb1>
148

>  <Zagreb2>
195

>  <mZagreb2>
5.03

>  <yes>


>  <nAR-cont>
0.199399

>  <nHA-cont>
0.94700071

>  <MWHBN>
0.38701213

>  <MWHBN-cont>
0.527234391

>  <TPSA-cont>
0.511356533

>  <pka_cont>
0.97

>  <yes.1>


>  <BBB_SCORE>
3.444964362

>  <MMFF94 Energy>
89.37

$$$$
Compound 1995
Actelion Java MolfileCreator 2.0

  0  0  0  0  0  0              0 V3000
M  V30 BEGIN CTAB
M  V30 COUNTS 61 65 0 0 0
M  V30 BEGIN ATOM
M  V30 1 F 1.2982 3.0853 1.217 0
M  V30 2 C 1.1686 1.9362 0.4361 0
M  V30 3 C 1.9535 2.2679 -0.9116 0
M  V30 4 C 1.8127 0.7951 1.293 0
M  V30 5 C -0.3821 1.7447 0.2959 0 CFG=2
M  V30 6 C 1.1327 3.2609 -1.7496 0
M  V30 7 C 3.331 2.8621 -0.5781 0
M  V30 8 C 2.2693 1.0462 -1.7996 0
M  V30 9 O 1.6177 1.0723 2.6876 0
M  V30 10 C 1.2977 -0.6343 1.0125 0
M  V30 11 C -0.7336 0.3042 -0.0935 0 CFG=1
M  V30 12 C -1.0124 2.795 -0.6337 0
M  V30 13 C 1.6149 4.4265 -2.2183 0
M  V30 14 C -0.3109 2.901 -1.979 0
M  V30 15 C 3.8029 4.0276 -1.0419 0
M  V30 16 C -0.2426 -0.7393 0.9371 0
M  V30 17 C -2.1981 -0.0782 -0.302 0
M  V30 18 C 2.9929 4.8738 -1.936 0
M  V30 19 C -0.8292 -2.055 0.3174 0
M  V30 20 C -0.8416 -0.5316 2.3568 0
M  V30 21 C -2.1596 -1.6146 -0.3245 0 CFG=1
M  V30 22 O 3.4385 5.91 -2.4115 0
M  V30 23 O -1.1835 -3.0376 1.293 0
M  V30 24 C 0.0864 -2.694 -0.7449 0
M  V30 25 O -3.1908 -2.1662 0.4903 0
M  V30 26 C -2.5896 -3.2764 1.1559 0
M  V30 27 O 0.1735 -2.2432 -1.8899 0
M  V30 28 C 0.9238 -3.8766 -0.3241 0
M  V30 29 C -2.8099 -4.5466 0.3329 0
M  V30 30 C -3.2097 -3.4312 2.538 0
M  V30 31 H 2.8984 0.788 1.1691 0
M  V30 32 H -0.826 1.9517 1.2777 0
M  V30 33 H 3.9936 2.285 0.0621 0
M  V30 34 H 1.3813 0.5144 -2.1412 0
M  V30 35 H 2.9195 0.3269 -1.2907 0
M  V30 36 H 2.8044 1.3507 -2.7098 0
M  V30 37 H 1.6607 2.0457 2.7829 0
M  V30 38 H 1.742 -0.968 0.0715 0
M  V30 39 H 1.667 -1.3166 1.7887 0
M  V30 40 H -0.2495 0.1056 -1.0521 0
M  V30 41 H -2.0772 2.5885 -0.7876 0
M  V30 42 H -0.9701 3.7726 -0.1331 0
M  V30 43 H 1.0182 5.1191 -2.8015 0
M  V30 44 H -0.3894 1.9648 -2.5411 0
M  V30 45 H -0.8188 3.663 -2.5831 0
M  V30 46 H 4.7906 4.3975 -0.7945 0
M  V30 47 H -2.847 0.3066 0.4921 0
M  V30 48 H -2.5799 0.3087 -1.2528 0
M  V30 49 H -0.6362 0.453 2.7783 0
M  V30 50 H -1.9303 -0.6299 2.3683 0
M  V30 51 H -0.4383 -1.2719 3.0574 0
M  V30 52 H -2.2956 -1.9855 -1.3467 0
M  V30 53 H 1.6487 -4.108 -1.1097 0
M  V30 54 H 0.2835 -4.7479 -0.1692 0
M  V30 55 H 1.4714 -3.6411 0.5913 0
M  V30 56 H -2.3774 -4.4515 -0.6689 0
M  V30 57 H -2.3337 -5.4114 0.8068 0
M  V30 58 H -3.8778 -4.7508 0.2009 0
M  V30 59 H -3.0648 -2.5243 3.1341 0
M  V30 60 H -2.7481 -4.256 3.0909 0
M  V30 61 H -4.2897 -3.6013 2.4726 0
M  V30 END ATOM
M  V30 BEGIN BOND
M  V30 1 1 1 2
M  V30 2 1 2 3
M  V30 3 1 2 4
M  V30 4 1 2 5
M  V30 5 1 3 6
M  V30 6 1 3 7
M  V30 7 1 3 8
M  V30 8 1 4 9
M  V30 9 1 4 10
M  V30 10 1 5 11
M  V30 11 1 5 12
M  V30 12 2 6 13
M  V30 13 1 6 14
M  V30 14 2 7 15
M  V30 15 1 10 16
M  V30 16 1 11 17
M  V30 17 1 13 18
M  V30 18 1 16 19
M  V30 19 1 16 20
M  V30 20 1 17 21
M  V30 21 2 18 22
M  V30 22 1 19 23
M  V30 23 1 19 24
M  V30 24 1 21 25
M  V30 25 1 23 26
M  V30 26 2 24 27
M  V30 27 1 24 28
M  V30 28 1 26 29
M  V30 29 1 26 30
M  V30 30 1 11 16
M  V30 31 1 12 14
M  V30 32 1 15 18
M  V30 33 1 19 21
M  V30 34 1 25 26
M  V30 35 1 4 31
M  V30 36 1 5 32
M  V30 37 1 7 33
M  V30 38 1 8 34
M  V30 39 1 8 35
M  V30 40 1 8 36
M  V30 41 1 9 37
M  V30 42 1 10 38
M  V30 43 1 10 39
M  V30 44 1 11 40
M  V30 45 1 12 41
M  V30 46 1 12 42
M  V30 47 1 13 43
M  V30 48 1 14 44
M  V30 49 1 14 45
M  V30 50 1 15 46
M  V30 51 1 17 47
M  V30 52 1 17 48
M  V30 53 1 20 49
M  V30 54 1 20 50
M  V30 55 1 20 51
M  V30 56 1 21 52
M  V30 57 1 28 53
M  V30 58 1 28 54
M  V30 59 1 28 55
M  V30 60 1 29 56
M  V30 61 1 29 57
M  V30 62 1 29 58
M  V30 63 1 30 59
M  V30 64 1 30 60
M  V30 65 1 30 61
M  V30 END BOND
M  V30 BEGIN COLLECTION
M  V30 MDLV30/STEABS ATOMS=(3 5 11 21)
M  V30 END COLLECTION
M  V30 END CTAB
M  END
>  <Column 1>
2432

>  <level_0>
2681

>  <index>
2681

>  <Unnamed: 0>
2681

>  <NO.>
2693

>  <Name>


>  <IUPAC_name>


>  <SMILES>
CC(=O)C12OC(C)(C)O[C@H]1C[C@H]1[C@@H]3CCC4=CC(=O)C=CC4(C)C3(F)C(O)CC12C

>  <CID>


>  <logBB>


>  <BBB+/BBB->
BBB+

>  <Inchi>
InChI=1S/C24H31FO5/c1-13(26)24-19(29-20(2-3)30-24)11-17-16-7-6-14-10-15(27)8-9-21(14-4)23(16-25)18(28)12-22(17-24)5/h8-10-16-19-28H-6-7-11-12H2-1-5H3/t16--17--18?-19--21?-22?-23?-24?/m0/s1

>  <threshold>
-1

>  <reference>
R13|

>  <group>
B

>  <Class>
1

>  <ABC>
24.67

>  <ABCGG>
20.01

>  <nAcid>
0

>  <nBase>
0

>  <nAromAtom>
0

>  <nAromBond>
0

>  <nAtom>
61

>  <nHeavyAtom>
30

>  <nSpiro>
0

>  <nBridgehead>
0

>  <nHetero>
6

>  <nN>
0

>  <nO>
5

>  <nF>
1

>  <BalabanJ>
1.58

>  <BertzCT>
907.27

>  <nBonds>
65

>  <nBondsO>
34

>  <nBondsS>
61

>  <nBondsD>
4

>  <nBondsT>
0

>  <nBondsA>
0

>  <nBondsM>
4

>  <nBondsKS>
61

>  <nBondsKD>
4

>  <RNCG>
0.17

>  <RPCG>
0.09

>  <FCSP3>
0.75

>  <SZ>
37.33

>  <Sm>
34.84

>  <Sv>
36.62

>  <Sse>
61.37

>  <Sp>
39.11

>  <Si>
69.03

>  <MZ>
0.61

>  <Mm>
0.57

>  <Mv>
0.6

>  <Mse>
1.01

>  <Mp>
0.64

>  <Mi>
1.13

>  <NsCH3>
5

>  <NdCH2>
0

>  <NssCH2>
4

>  <NtCH>
0

>  <NdsCH>
3

>  <NaaCH>
0

>  <NsssCH>
4

>  <NddC>
0

>  <NtsC>
0

>  <NdssC>
3

>  <NaasC>
0

>  <NaaaC>
0

>  <NssssC>
5

>  <NsNH3>
0

>  <NsNH2>
0

>  <NssNH2>
0

>  <NdNH>
0

>  <NssNH>
0

>  <NaaNH>
0

>  <NtN>
0

>  <NsssNH>
0

>  <NdsN>
0

>  <NaaN>
0

>  <NsssN>
0

>  <NddsN>
0

>  <NaasN>
0

>  <NssssN>
0

>  <NsOH>
1

>  <NdO>
2

>  <NssO>
2

>  <NaaO>
0

>  <NsF>
1

>  <NsSiH3>
0

>  <NssSiH2>
0

>  <NsssSiH>
0

>  <NssssSi>
0

>  <NsPH2>
0

>  <NssPH>
0

>  <NsssP>
0

>  <NdsssP>
0

>  <NsssssP>
0

>  <NsSH>
0

>  <NdS>
0

>  <NssS>
0

>  <NaaS>
0

>  <NdssS>
0

>  <NddssS>
0

>  <NsCl>
0

>  <NsBr>
0

>  <NsI>
0

>  <fragCpx>
286.06

>  <fMF>
0.33

>  <nHBAcc>
5

>  <nHBDon>
1

>  <Kier1>
21.83

>  <Kier2>
6.32

>  <Lipinski>
1

>  <GhoseFilter>
1

>  <FilterItLogS>
-4.04

>  <VMcGowan>
308.63

>  <LabuteASA>
176.23

>  <PEOE_VSA1>
14.58

>  <PEOE_VSA2>
9.59

>  <PEOE_VSA3>
4.39

>  <PEOE_VSA4>
0

>  <PEOE_VSA5>
0

>  <PEOE_VSA6>
18.57

>  <PEOE_VSA7>
71.45

>  <PEOE_VSA8>
16.75

>  <PEOE_VSA9>
12.21

>  <PEOE_VSA10>
0

>  <PEOE_VSA11>
28.62

>  <PEOE_VSA12>
0

>  <PEOE_VSA13>
0

>  <SMR_VSA1>
28.56

>  <SMR_VSA2>
0

>  <SMR_VSA3>
0

>  <SMR_VSA4>
22.67

>  <SMR_VSA5>
89.57

>  <SMR_VSA6>
0

>  <SMR_VSA7>
23.8

>  <SMR_VSA8>
0

>  <SMR_VSA9>
0

>  <SlogP_VSA1>
0

>  <SlogP_VSA2>
45.94

>  <SlogP_VSA3>
19.06

>  <SlogP_VSA4>
22.67

>  <SlogP_VSA5>
60.3

>  <SlogP_VSA6>
23.8

>  <SlogP_VSA7>
0

>  <SlogP_VSA8>
0

>  <SlogP_VSA9>
0

>  <SlogP_VSA10>
4.39

>  <SlogP_VSA11>
0

>  <EState_VSA1>
46.01

>  <EState_VSA2>
23.91

>  <EState_VSA3>
19.26

>  <EState_VSA4>
5.57

>  <EState_VSA5>
19.08

>  <EState_VSA6>
26.85

>  <EState_VSA7>
6.92

>  <EState_VSA8>
0

>  <EState_VSA9>
9.47

>  <EState_VSA10>
14.7

>  <VSA_EState1>
29.6

>  <VSA_EState2>
24.96

>  <VSA_EState3>
11.36

>  <VSA_EState4>
-4.11

>  <VSA_EState5>
-1.77

>  <VSA_EState6>
0

>  <VSA_EState7>
4.64

>  <VSA_EState8>
8.89

>  <VSA_EState9>
0

>  <apol>
65.32

>  <bpol>
37.42

>  <nRing>
5

>  <nHRing>
1

>  <naRing>
0

>  <naHRing>
0

>  <nARing 2>
5

>  <nAHRing 2>
1

>  <nFRing>
1

>  <nFHRing>
1

>  <nFaRing>
0

>  <nFaHRing>
0

>  <nFARing 2>
1

>  <nFAHRing 2>
1

>  <nRot>
1

>  <SLogP>
3.45

>  <SMR>
107.19

>  <TopoPSA(NO)>
72.83

>  <TopoPSA>
72.83

>  <JGI1>
0.35

>  <JGI2>
0.14

>  <JGI3>
0.09

>  <JGI4>
0.07

>  <JGI5>
0.04

>  <Diameter>
12

>  <Radius>
6

>  <TMWC10>
147.05

>  <TSRW10>
84.57

>  <MW>
418.22

>  <AMW>
6.86

>  <WPath>
1995

>  <WPol>
74

>  <Zagreb1>
188

>  <Zagreb2>
247

>  <mZagreb2>
5.94

>  <yes>


>  <nAR-cont>
0

>  <nHA-cont>
0.74523694

>  <MWHBN>
0.293392394

>  <MWHBN-cont>
0.860020694

>  <TPSA-cont>
0.491601375

>  <pka_cont>
0.97

>  <yes.1>


>  <BBB_SCORE>
3.50347073

>  <MMFF94 Energy>
163.55

$$$$
Compound 1996
Actelion Java MolfileCreator 2.0

  0  0  0  0  0  0              0 V3000
M  V30 BEGIN CTAB
M  V30 COUNTS 57 60 0 0 0
M  V30 BEGIN ATOM
M  V30 1 Cl 2.1376 0.9861 1.0683 0
M  V30 2 C 0.3667 0.7933 1.508 0
M  V30 3 C 0.1572 1.4135 2.9856 0
M  V30 4 C -0.4885 1.4437 0.3588 0 CFG=1
M  V30 5 C 0.0232 -0.7544 1.5223 0 CFG=2
M  V30 6 C -1.2451 1.0529 3.4892 0
M  V30 7 C 0.3895 2.9196 3.0699 0
M  V30 8 C 1.1735 0.8351 4.018 0
M  V30 9 Cl -0.2085 3.206 0.0921 0
M  V30 10 C -0.2376 0.7882 -1.0158 0
M  V30 11 C 0.0626 -1.4821 0.1455 0 CFG=1
M  V30 12 C -1.3628 -1.0388 2.166 0
M  V30 13 C -2.1566 1.9594 3.8844 0
M  V30 14 C -1.5606 -0.415 3.5361 0
M  V30 15 C -0.5124 3.8223 3.481 0
M  V30 16 C -0.5149 -0.7263 -1.0875 0
M  V30 17 C 1.4654 -1.983 -0.2665 0
M  V30 18 C -1.865 3.4079 3.894 0
M  V30 19 C 0.2514 -1.4106 -2.2723 0
M  V30 20 C -2.0404 -0.938 -1.2195 0
M  V30 21 C 1.6653 -1.5912 -1.7279 0
M  V30 22 O -2.7098 4.2236 4.2385 0
M  V30 23 O -0.2747 -2.7353 -2.4837 0
M  V30 24 C 0.1202 -0.697 -3.6331 0
M  V30 25 O -0.8991 -0.8706 -4.3146 0
M  V30 26 C 1.2354 0.1546 -4.1676 0
M  V30 27 C 2.3017 -0.6552 -4.8503 0
M  V30 28 O 3.441 -0.7168 -4.3885 0
M  V30 29 C 1.92 -1.3965 -6.1043 0
M  V30 30 H -1.5512 1.3715 0.6065 0
M  V30 31 H 0.7557 -1.2627 2.1632 0
M  V30 32 H 1.3718 3.2882 2.7752 0
M  V30 33 H 2.1939 1.1977 3.8459 0
M  V30 34 H 0.9093 1.1325 5.042 0
M  V30 35 H 1.2203 -0.257 4.0098 0
M  V30 36 H 0.7934 0.9967 -1.3175 0
M  V30 37 H -0.857 1.2913 -1.7723 0
M  V30 38 H -0.519 -2.4091 0.2643 0
M  V30 39 H -2.1689 -0.6861 1.5193 0
M  V30 40 H -1.5035 -2.123 2.263 0
M  V30 41 H -3.1451 1.6876 4.2382 0
M  V30 42 H -2.5939 -0.5909 3.8603 0
M  V30 43 H -0.9257 -0.9156 4.2753 0
M  V30 44 H -0.299 4.8838 3.5168 0
M  V30 45 H 2.2814 -1.6193 0.3605 0
M  V30 46 H 1.4905 -3.0771 -0.1777 0
M  V30 47 H -2.6062 -0.3638 -0.4829 0
M  V30 48 H -2.3211 -1.9897 -1.1003 0
M  V30 49 H -2.4006 -0.6095 -2.1999 0
M  V30 50 H 2.2228 -2.3706 -2.2587 0
M  V30 51 H 2.2554 -0.6716 -1.7712 0
M  V30 52 H -1.0647 -2.6363 -3.0539 0
M  V30 53 H 0.8234 0.866 -4.8923 0
M  V30 54 H 1.6749 0.7619 -3.3736 0
M  V30 55 H 2.8191 -1.7985 -6.5795 0
M  V30 56 H 1.2491 -2.2223 -5.8571 0
M  V30 57 H 1.435 -0.7116 -6.8043 0
M  V30 END ATOM
M  V30 BEGIN BOND
M  V30 1 1 1 2
M  V30 2 1 2 3
M  V30 3 1 2 4
M  V30 4 1 2 5
M  V30 5 1 3 6
M  V30 6 1 3 7
M  V30 7 1 3 8
M  V30 8 1 4 9
M  V30 9 1 4 10
M  V30 10 1 5 11
M  V30 11 1 5 12
M  V30 12 2 6 13
M  V30 13 1 6 14
M  V30 14 2 7 15
M  V30 15 1 10 16
M  V30 16 1 11 17
M  V30 17 1 13 18
M  V30 18 1 16 19
M  V30 19 1 16 20
M  V30 20 1 17 21
M  V30 21 2 18 22
M  V30 22 1 19 23
M  V30 23 1 19 24
M  V30 24 2 24 25
M  V30 25 1 24 26
M  V30 26 1 26 27
M  V30 27 2 27 28
M  V30 28 1 27 29
M  V30 29 1 11 16
M  V30 30 1 12 14
M  V30 31 1 15 18
M  V30 32 1 19 21
M  V30 33 1 4 30
M  V30 34 1 5 31
M  V30 35 1 7 32
M  V30 36 1 8 33
M  V30 37 1 8 34
M  V30 38 1 8 35
M  V30 39 1 10 36
M  V30 40 1 10 37
M  V30 41 1 11 38
M  V30 42 1 12 39
M  V30 43 1 12 40
M  V30 44 1 13 41
M  V30 45 1 14 42
M  V30 46 1 14 43
M  V30 47 1 15 44
M  V30 48 1 17 45
M  V30 49 1 17 46
M  V30 50 1 20 47
M  V30 51 1 20 48
M  V30 52 1 20 49
M  V30 53 1 21 50
M  V30 54 1 21 51
M  V30 55 1 23 52
M  V30 56 1 26 53
M  V30 57 1 26 54
M  V30 58 1 29 55
M  V30 59 1 29 56
M  V30 60 1 29 57
M  V30 END BOND
M  V30 BEGIN COLLECTION
M  V30 MDLV30/STEABS ATOMS=(3 4 5 11)
M  V30 END COLLECTION
M  V30 END CTAB
M  END
>  <Column 1>
2433

>  <level_0>
2688

>  <index>
2688

>  <Unnamed: 0>
2688

>  <NO.>
2700

>  <Name>


>  <IUPAC_name>


>  <SMILES>
CC(=O)CC(=O)C1(O)CC[C@H]2[C@@H]3CCC4=CC(=O)C=CC4(C)C3(Cl)[C@@H](Cl)CC21C

>  <CID>


>  <logBB>


>  <BBB+/BBB->
BBB+

>  <Inchi>
InChI=1S/C23H28Cl2O4/c1-13(26)10-19(28)22(29)9-7-16-17-5-4-14-11-15(27)6-8-20(14-2)23(17-25)18(24)12-21(16-22)3/h6-8-11-16-18-29H-4-5-7-9-10-12H2-1-3H3/t16--17--18--20?-21?-22?-23?/m0/s1

>  <threshold>
-1

>  <reference>
R13|

>  <group>
B

>  <Class>
1

>  <ABC>
23.27

>  <ABCGG>
19.3

>  <nAcid>
0

>  <nBase>
0

>  <nAromAtom>
0

>  <nAromBond>
0

>  <nAtom>
57

>  <nHeavyAtom>
29

>  <nSpiro>
0

>  <nBridgehead>
0

>  <nHetero>
6

>  <nN>
0

>  <nO>
4

>  <nF>
0

>  <BalabanJ>
1.7

>  <BertzCT>
862.94

>  <nBonds>
60

>  <nBondsO>
32

>  <nBondsS>
55

>  <nBondsD>
5

>  <nBondsT>
0

>  <nBondsA>
0

>  <nBondsM>
5

>  <nBondsKS>
55

>  <nBondsKD>
5

>  <RNCG>
0.19

>  <RPCG>
0.11

>  <FCSP3>
0.7

>  <SZ>
38.67

>  <Sm>
36.58

>  <Sv>
35.63

>  <Sse>
57.28

>  <Sp>
38.71

>  <Si>
63.95

>  <MZ>
0.68

>  <Mm>
0.64

>  <Mv>
0.63

>  <Mse>
1

>  <Mp>
0.68

>  <Mi>
1.12

>  <NsCH3>
3

>  <NdCH2>
0

>  <NssCH2>
6

>  <NtCH>
0

>  <NdsCH>
3

>  <NaaCH>
0

>  <NsssCH>
3

>  <NddC>
0

>  <NtsC>
0

>  <NdssC>
4

>  <NaasC>
0

>  <NaaaC>
0

>  <NssssC>
4

>  <NsNH3>
0

>  <NsNH2>
0

>  <NssNH2>
0

>  <NdNH>
0

>  <NssNH>
0

>  <NaaNH>
0

>  <NtN>
0

>  <NsssNH>
0

>  <NdsN>
0

>  <NaaN>
0

>  <NsssN>
0

>  <NddsN>
0

>  <NaasN>
0

>  <NssssN>
0

>  <NsOH>
1

>  <NdO>
3

>  <NssO>
0

>  <NaaO>
0

>  <NsF>
0

>  <NsSiH3>
0

>  <NssSiH2>
0

>  <NsssSiH>
0

>  <NssssSi>
0

>  <NsPH2>
0

>  <NssPH>
0

>  <NsssP>
0

>  <NdsssP>
0

>  <NsssssP>
0

>  <NsSH>
0

>  <NdS>
0

>  <NssS>
0

>  <NaaS>
0

>  <NdssS>
0

>  <NddssS>
0

>  <NsCl>
2

>  <NsBr>
0

>  <NsI>
0

>  <fragCpx>
212.06

>  <fMF>
0.3

>  <nHBAcc>
4

>  <nHBDon>
1

>  <Kier1>
22.2

>  <Kier2>
7

>  <Lipinski>
1

>  <GhoseFilter>
1

>  <FilterItLogS>
-5.04

>  <VMcGowan>
317.95

>  <LabuteASA>
181.25

>  <PEOE_VSA1>
5.11

>  <PEOE_VSA2>
14.38

>  <PEOE_VSA3>
0

>  <PEOE_VSA4>
0

>  <PEOE_VSA5>
23.2

>  <PEOE_VSA6>
25.5

>  <PEOE_VSA7>
63.02

>  <PEOE_VSA8>
10.83

>  <PEOE_VSA9>
16.67

>  <PEOE_VSA10>
11.38

>  <PEOE_VSA11>
11.57

>  <PEOE_VSA12>
0

>  <PEOE_VSA13>
0

>  <SMR_VSA1>
19.49

>  <SMR_VSA2>
0

>  <SMR_VSA3>
0

>  <SMR_VSA4>
22.67

>  <SMR_VSA5>
75.15

>  <SMR_VSA6>
0

>  <SMR_VSA7>
23.8

>  <SMR_VSA8>
0

>  <SMR_VSA9>
0

>  <SlogP_VSA1>
0

>  <SlogP_VSA2>
38.31

>  <SlogP_VSA3>
14.38

>  <SlogP_VSA4>
22.67

>  <SlogP_VSA5>
59.3

>  <SlogP_VSA6>
23.8

>  <SlogP_VSA7>
0

>  <SlogP_VSA8>
0

>  <SlogP_VSA9>
0

>  <SlogP_VSA10>
0

>  <SlogP_VSA11>
0

>  <EState_VSA1>
32.47

>  <EState_VSA2>
29.82

>  <EState_VSA3>
19.26

>  <EState_VSA4>
18.41

>  <EState_VSA5>
6.92

>  <EState_VSA6>
12.15

>  <EState_VSA7>
13

>  <EState_VSA8>
6.92

>  <EState_VSA9>
23.2

>  <EState_VSA10>
19.49

>  <VSA_EState1>
0

>  <VSA_EState2>
35.63

>  <VSA_EState3>
11.02

>  <VSA_EState4>
-1.79

>  <VSA_EState5>
-0.62

>  <VSA_EState6>
0

>  <VSA_EState7>
7.85

>  <VSA_EState8>
5.38

>  <VSA_EState9>
0

>  <apol>
64.65

>  <bpol>
31.71

>  <nRing>
4

>  <nHRing>
0

>  <naRing>
0

>  <naHRing>
0

>  <nARing 2>
4

>  <nAHRing 2>
0

>  <nFRing>
1

>  <nFHRing>
0

>  <nFaRing>
0

>  <nFaHRing>
0

>  <nFARing 2>
1

>  <nFAHRing 2>
0

>  <nRot>
3

>  <SLogP>
4.15

>  <SMR>
111.99

>  <TopoPSA(NO)>
71.44

>  <TopoPSA>
71.44

>  <JGI1>
0.33

>  <JGI2>
0.16

>  <JGI3>
0.08

>  <JGI4>
0.06

>  <JGI5>
0.04

>  <Diameter>
13

>  <Radius>
7

>  <TMWC10>
142.51

>  <TSRW10>
80.84

>  <MW>
438.14

>  <AMW>
7.69

>  <WPath>
1925

>  <WPol>
68

>  <Zagreb1>
172

>  <Zagreb2>
222

>  <mZagreb2>
5.94

>  <yes>


>  <nAR-cont>
0.199399

>  <nHA-cont>
0.785905698

>  <MWHBN>
0.238871069

>  <MWHBN-cont>
0.976475088

>  <TPSA-cont>
0.501304438

>  <pka_cont>
0.97

>  <yes.1>


>  <BBB_SCORE>
3.937626207

>  <MMFF94 Energy>
129.92

$$$$
Compound 1997
Actelion Java MolfileCreator 2.0

  0  0  0  0  0  0              0 V3000
M  V30 BEGIN CTAB
M  V30 COUNTS 75 79 0 0 0
M  V30 BEGIN ATOM
M  V30 1 Cl -3.3361 2.9288 8.0699 0
M  V30 2 C -2.4244 4.2838 7.351 0
M  V30 3 C -2.1679 4.0537 5.8667 0
M  V30 4 O -1.1863 3.0255 5.7127 0
M  V30 5 C -0.8264 2.6503 4.4396 0
M  V30 6 C -1.2516 3.199 3.2863 0
M  V30 7 C 0.1393 1.4966 4.408 0
M  V30 8 C -0.8439 2.6564 1.9949 0
M  V30 9 C 1.1774 1.7204 3.3151 0
M  V30 10 C -1.6382 2.706 0.8974 0
M  V30 11 C 0.5532 1.9871 1.9072 0
M  V30 12 C -2.9029 3.3735 0.8863 0
M  V30 13 C -1.2782 1.8666 -0.308 0
M  V30 14 C 0.505 0.6405 1.0462 0
M  V30 15 C 1.458 3.075 1.2487 0
M  V30 16 N -3.9238 3.9237 0.8685 0
M  V30 17 C -0.7986 0.5012 0.2083 0 CFG=2
M  V30 18 F 0.4467 -0.415 1.9395 0
M  V30 19 C 1.7837 0.3916 0.2036 0
M  V30 20 C -0.8011 -0.5949 -0.884 0 CFG=1
M  V30 21 O 2.9252 0.2356 1.052 0
M  V30 22 C 1.6976 -0.853 -0.6779 0
M  V30 23 C 0.5087 -0.8235 -1.666 0
M  V30 24 C -1.1041 -1.9909 -0.2938 0
M  V30 25 C 0.2608 -2.2275 -2.3259 0
M  V30 26 C 0.7544 0.2719 -2.721 0
M  V30 27 C -0.6027 -2.9977 -1.3262 0 CFG=1
M  V30 28 O 1.4639 -2.9834 -2.47 0
M  V30 29 C -0.4866 -2.153 -3.6768 0
M  V30 30 O 0.2701 -3.9536 -0.7257 0
M  V30 31 C 1.3045 -4.1721 -1.6833 0
M  V30 32 O -1.6819 -1.8539 -3.7263 0
M  V30 33 C 0.32 -2.4075 -4.9278 0
M  V30 34 C 0.9227 -5.3399 -2.5939 0
M  V30 35 C 2.6093 -4.475 -0.9594 0
M  V30 36 C -0.4451 -2.234 -6.2137 0
M  V30 37 O -0.6449 -3.189 -6.9661 0
M  V30 38 C -0.9268 -0.8496 -6.5652 0
M  V30 39 H -1.4862 4.3721 7.9066 0
M  V30 40 H -3.0205 5.188 7.5021 0
M  V30 41 H -3.0989 3.7774 5.3568 0
M  V30 42 H -1.7792 4.984 5.4356 0
M  V30 43 H -1.9772 4.0062 3.2901 0
M  V30 44 H 0.6565 1.4087 5.3712 0
M  V30 45 H -0.4072 0.5598 4.2489 0
M  V30 46 H 1.7944 2.5781 3.6215 0
M  V30 47 H 1.8675 0.8708 3.2952 0
M  V30 48 H -0.5323 2.3721 -0.9272 0
M  V30 49 H -2.1676 1.7243 -0.9351 0
M  V30 50 H 2.5158 2.7915 1.2689 0
M  V30 51 H 1.3856 4.0294 1.7871 0
M  V30 52 H 1.1853 3.2791 0.2087 0
M  V30 53 H -1.5742 0.1685 0.9191 0
M  V30 54 H 1.9958 1.248 -0.4395 0
M  V30 55 H -1.6121 -0.3723 -1.5909 0
M  V30 56 H 2.719 -0.492 1.6707 0
M  V30 57 H 2.6429 -0.9703 -1.2248 0
M  V30 58 H 1.6425 -1.7264 -0.0184 0
M  V30 59 H -2.1824 -2.1036 -0.1326 0
M  V30 60 H -0.6187 -2.1486 0.6751 0
M  V30 61 H 1.6346 0.0346 -3.3282 0
M  V30 62 H -0.1 0.3927 -3.395 0
M  V30 63 H 0.925 1.2548 -2.2763 0
M  V30 64 H -1.4401 -3.5387 -1.7813 0
M  V30 65 H 1.1825 -1.735 -4.9541 0
M  V30 66 H 0.6891 -3.4376 -4.8997 0
M  V30 67 H 0.7836 -6.2604 -2.0171 0
M  V30 68 H -0.0206 -5.1461 -3.1159 0
M  V30 69 H 1.6857 -5.5078 -3.3613 0
M  V30 70 H 2.8908 -3.6491 -0.2982 0
M  V30 71 H 2.5179 -5.3686 -0.3328 0
M  V30 72 H 3.4332 -4.6144 -1.6672 0
M  V30 73 H -1.2045 -0.8192 -7.6228 0
M  V30 74 H -1.7985 -0.5864 -5.9633 0
M  V30 75 H -0.1238 -0.1263 -6.4014 0
M  V30 END ATOM
M  V30 BEGIN BOND
M  V30 1 1 1 2
M  V30 2 1 2 3
M  V30 3 1 3 4
M  V30 4 1 4 5
M  V30 5 2 5 6
M  V30 6 1 5 7
M  V30 7 1 6 8
M  V30 8 1 7 9
M  V30 9 2 8 10
M  V30 10 1 8 11
M  V30 11 1 10 12
M  V30 12 1 10 13
M  V30 13 1 11 14
M  V30 14 1 11 15
M  V30 15 3 12 16
M  V30 16 1 13 17
M  V30 17 1 14 18
M  V30 18 1 14 19
M  V30 19 1 17 20
M  V30 20 1 19 21
M  V30 21 1 19 22
M  V30 22 1 20 23
M  V30 23 1 20 24
M  V30 24 1 23 25
M  V30 25 1 23 26
M  V30 26 1 24 27
M  V30 27 1 25 28
M  V30 28 1 25 29
M  V30 29 1 27 30
M  V30 30 1 28 31
M  V30 31 2 29 32
M  V30 32 1 29 33
M  V30 33 1 31 34
M  V30 34 1 31 35
M  V30 35 1 33 36
M  V30 36 2 36 37
M  V30 37 1 36 38
M  V30 38 1 9 11
M  V30 39 1 14 17
M  V30 40 1 22 23
M  V30 41 1 25 27
M  V30 42 1 30 31
M  V30 43 1 2 39
M  V30 44 1 2 40
M  V30 45 1 3 41
M  V30 46 1 3 42
M  V30 47 1 6 43
M  V30 48 1 7 44
M  V30 49 1 7 45
M  V30 50 1 9 46
M  V30 51 1 9 47
M  V30 52 1 13 48
M  V30 53 1 13 49
M  V30 54 1 15 50
M  V30 55 1 15 51
M  V30 56 1 15 52
M  V30 57 1 17 53
M  V30 58 1 19 54
M  V30 59 1 20 55
M  V30 60 1 21 56
M  V30 61 1 22 57
M  V30 62 1 22 58
M  V30 63 1 24 59
M  V30 64 1 24 60
M  V30 65 1 26 61
M  V30 66 1 26 62
M  V30 67 1 26 63
M  V30 68 1 27 64
M  V30 69 1 33 65
M  V30 70 1 33 66
M  V30 71 1 34 67
M  V30 72 1 34 68
M  V30 73 1 34 69
M  V30 74 1 35 70
M  V30 75 1 35 71
M  V30 76 1 35 72
M  V30 77 1 38 73
M  V30 78 1 38 74
M  V30 79 1 38 75
M  V30 END BOND
M  V30 BEGIN COLLECTION
M  V30 MDLV30/STEABS ATOMS=(3 17 20 27)
M  V30 END COLLECTION
M  V30 END CTAB
M  END
>  <Column 1>
2434

>  <level_0>
2689

>  <index>
2689

>  <Unnamed: 0>
2689

>  <NO.>
2701

>  <Name>


>  <IUPAC_name>


>  <SMILES>
CC(=O)CC(=O)C12OC(C)(C)O[C@H]1C[C@H]1[C@@H]3CC(C#N)=C4C=C(OCCCl)CCC4(C)C3(F)C(O)CC12C

>  <CID>


>  <logBB>


>  <BBB+/BBB->
BBB+

>  <Inchi>
InChI=1S/C29H37ClFNO6/c1-16(33)10-22(34)29-24(37-25(2-3)38-29)13-20-21-11-17(15-32)19-12-18(36-9-8-30)6-7-26(19-4)28(21-31)23(35)14-27(20-29)5/h12-20-21-23-24-35H-6-11-13-14H2-1-5H3/t20--21--23?-24--26?-27?-28?-29?/m0/s1

>  <threshold>
-1

>  <reference>
R13|

>  <group>
B

>  <Class>
-1

>  <ABC>
30.29

>  <ABCGG>
24.26

>  <nAcid>
0

>  <nBase>
0

>  <nAromAtom>
0

>  <nAromBond>
0

>  <nAtom>
75

>  <nHeavyAtom>
38

>  <nSpiro>
0

>  <nBridgehead>
0

>  <nHetero>
9

>  <nN>
1

>  <nO>
6

>  <nF>
1

>  <BalabanJ>
1.55

>  <BertzCT>
1176.05

>  <nBonds>
79

>  <nBondsO>
42

>  <nBondsS>
74

>  <nBondsD>
4

>  <nBondsT>
1

>  <nBondsA>
0

>  <nBondsM>
5

>  <nBondsKS>
74

>  <nBondsKD>
4

>  <RNCG>
0.17

>  <RPCG>
0.07

>  <FCSP3>
0.76

>  <SZ>
48.67

>  <Sm>
45.8

>  <Sv>
45.81

>  <Sse>
75.79

>  <Sp>
48.95

>  <Si>
84.93

>  <MZ>
0.65

>  <Mm>
0.61

>  <Mv>
0.61

>  <Mse>
1.01

>  <Mp>
0.65

>  <Mi>
1.13

>  <NsCH3>
5

>  <NdCH2>
0

>  <NssCH2>
8

>  <NtCH>
0

>  <NdsCH>
1

>  <NaaCH>
0

>  <NsssCH>
4

>  <NddC>
0

>  <NtsC>
1

>  <NdssC>
5

>  <NaasC>
0

>  <NaaaC>
0

>  <NssssC>
5

>  <NsNH3>
0

>  <NsNH2>
0

>  <NssNH2>
0

>  <NdNH>
0

>  <NssNH>
0

>  <NaaNH>
0

>  <NtN>
1

>  <NsssNH>
0

>  <NdsN>
0

>  <NaaN>
0

>  <NsssN>
0

>  <NddsN>
0

>  <NaasN>
0

>  <NssssN>
0

>  <NsOH>
1

>  <NdO>
2

>  <NssO>
3

>  <NaaO>
0

>  <NsF>
1

>  <NsSiH3>
0

>  <NssSiH2>
0

>  <NsssSiH>
0

>  <NssssSi>
0

>  <NsPH2>
0

>  <NssPH>
0

>  <NsssP>
0

>  <NdsssP>
0

>  <NsssssP>
0

>  <NsSH>
0

>  <NdS>
0

>  <NssS>
0

>  <NaaS>
0

>  <NdssS>
0

>  <NddssS>
0

>  <NsCl>
1

>  <NsBr>
0

>  <NsI>
0

>  <fragCpx>
358.09

>  <fMF>
0.27

>  <nHBAcc>
7

>  <nHBDon>
1

>  <Kier1>
29.49

>  <Kier2>
9.79

>  <Lipinski>
0

>  <GhoseFilter>
0

>  <FilterItLogS>
-6.05

>  <VMcGowan>
398.57

>  <LabuteASA>
227.87

>  <PEOE_VSA1>
19.32

>  <PEOE_VSA2>
9.59

>  <PEOE_VSA3>
4.39

>  <PEOE_VSA4>
5.26

>  <PEOE_VSA5>
11.6

>  <PEOE_VSA6>
13.85

>  <PEOE_VSA7>
64.02

>  <PEOE_VSA8>
28.74

>  <PEOE_VSA9>
36.34

>  <PEOE_VSA10>
18.06

>  <PEOE_VSA11>
17.17

>  <PEOE_VSA12>
0

>  <PEOE_VSA13>
0

>  <SMR_VSA1>
33.3

>  <SMR_VSA2>
5.26

>  <SMR_VSA3>
0

>  <SMR_VSA4>
22.67

>  <SMR_VSA5>
102.41

>  <SMR_VSA6>
12.49

>  <SMR_VSA7>
22.98

>  <SMR_VSA8>
0

>  <SMR_VSA9>
6.07

>  <SlogP_VSA1>
0

>  <SlogP_VSA2>
58.42

>  <SlogP_VSA3>
23.8

>  <SlogP_VSA4>
34

>  <SlogP_VSA5>
73.14

>  <SlogP_VSA6>
22.98

>  <SlogP_VSA7>
0

>  <SlogP_VSA8>
0

>  <SlogP_VSA9>
0

>  <SlogP_VSA10>
4.39

>  <SlogP_VSA11>
0

>  <EState_VSA1>
51.93

>  <EState_VSA2>
30.83

>  <EState_VSA3>
48.65

>  <EState_VSA4>
0

>  <EState_VSA5>
6.92

>  <EState_VSA6>
26.85

>  <EState_VSA7>
6.92

>  <EState_VSA8>
6.07

>  <EState_VSA9>
25.81

>  <EState_VSA10>
19.96

>  <VSA_EState1>
36.2

>  <VSA_EState2>
25.84

>  <VSA_EState3>
21.94

>  <VSA_EState4>
-4.6

>  <VSA_EState5>
-1.91

>  <VSA_EState6>
2.32

>  <VSA_EState7>
0.63

>  <VSA_EState8>
8.81

>  <VSA_EState9>
0

>  <apol>
81.75

>  <bpol>
46.26

>  <nRing>
5

>  <nHRing>
1

>  <naRing>
0

>  <naHRing>
0

>  <nARing 2>
5

>  <nAHRing 2>
1

>  <nFRing>
1

>  <nFHRing>
1

>  <nFaRing>
0

>  <nFaHRing>
0

>  <nFARing 2>
1

>  <nFAHRing 2>
1

>  <nRot>
6

>  <SLogP>
4.7

>  <SMR>
136.59

>  <TopoPSA(NO)>
105.85

>  <TopoPSA>
105.85

>  <JGI1>
0.32

>  <JGI2>
0.13

>  <JGI3>
0.08

>  <JGI4>
0.06

>  <JGI5>
0.04

>  <Diameter>
16

>  <Radius>
8

>  <TMWC10>
164.24

>  <TSRW10>
93.27

>  <MW>
549.23

>  <AMW>
7.32

>  <WPath>
4005

>  <WPol>
87

>  <Zagreb1>
224

>  <Zagreb2>
288

>  <mZagreb2>
7.97

>  <yes>


>  <nAR-cont>
0

>  <nHA-cont>
0.390024847

>  <MWHBN>
0.341360182

>  <MWHBN-cont>
0.702179776

>  <TPSA-cont>
0.261101271

>  <pka_cont>
0.97

>  <yes.1>


>  <BBB_SCORE>
2.450497053

>  <MMFF94 Energy>
150.65

$$$$
Compound 1998
Actelion Java MolfileCreator 2.0

  0  0  0  0  0  0              0 V3000
M  V30 BEGIN CTAB
M  V30 COUNTS 64 67 0 0 0
M  V30 BEGIN ATOM
M  V30 1 Br -4.2612 -4.5896 3.8509 0
M  V30 2 C -3.0105 -3.2115 4.0122 0
M  V30 3 C -2.0556 -3.2561 5.1544 0
M  V30 4 C -2.9735 -2.1936 3.1381 0
M  V30 5 O -2.052 -4.1449 5.9985 0
M  V30 6 C -1.0748 -2.1537 5.2488 0
M  V30 7 C -2.0077 -1.0137 3.1796 0
M  V30 8 C -1.0414 -1.1403 4.3662 0
M  V30 9 C -1.1392 -0.9562 1.8547 0
M  V30 10 C -2.8814 0.2407 3.4129 0
M  V30 11 C 0.0165 -0.0706 4.4571 0 CFG=1
M  V30 12 F -0.4485 -2.1573 1.8017 0
M  V30 13 C -1.9443 -0.8979 0.5188 0 CFG=1
M  V30 14 C -0.0396 0.1568 1.9245 0 CFG=1
M  V30 15 F 0.876 -0.3061 5.4889 0
M  V30 16 C 0.8376 -0.0148 3.1761 0
M  V30 17 O -2.8831 0.1717 0.5052 0
M  V30 18 C -1.0414 -0.8085 -0.7321 0
M  V30 19 C 0.8191 0.0911 0.6521 0 CFG=1
M  V30 20 C 0.0156 0.3161 -0.6484 0
M  V30 21 C 1.993 1.0509 0.5098 0
M  V30 22 C 1.1816 0.2465 -1.7065 0
M  V30 23 C -0.6694 1.7102 -0.7083 0
M  V30 24 C 2.3138 1.0502 -1.0004 0
M  V30 25 O 1.5868 -1.1446 -1.8158 0
M  V30 26 C 0.6905 0.7376 -3.0946 0
M  V30 27 C 2.5376 -1.4538 -2.7376 0
M  V30 28 O -0.1949 0.113 -3.6914 0
M  V30 29 C 1.3167 1.9974 -3.6804 0
M  V30 30 O 3.1245 -0.6403 -3.4361 0
M  V30 31 C 2.7756 -2.9312 -2.7605 0
M  V30 32 O 0.8014 2.2575 -4.9868 0
M  V30 33 C 1.2327 3.4283 -5.5228 0
M  V30 34 O 1.9661 4.2306 -4.9625 0
M  V30 35 C 0.6733 3.6041 -6.9006 0
M  V30 36 H -3.7084 -2.1845 2.335 0
M  V30 37 H -0.3706 -2.2325 6.0714 0
M  V30 38 H -3.7569 0.2682 2.7554 0
M  V30 39 H -2.3304 1.1734 3.2615 0
M  V30 40 H -3.273 0.2637 4.4387 0
M  V30 41 H -0.4472 0.9008 4.6561 0
M  V30 42 H -2.5209 -1.8245 0.4175 0
M  V30 43 H -0.5148 1.1404 1.9928 0
M  V30 44 H 1.5532 0.8121 3.2579 0
M  V30 45 H 1.4455 -0.9258 3.0953 0
M  V30 46 H -3.3774 0.1192 -0.3339 0
M  V30 47 H -1.6637 -0.6624 -1.6228 0
M  V30 48 H -0.5482 -1.781 -0.8496 0
M  V30 49 H 1.2534 -0.9209 0.6283 0
M  V30 50 H 1.7295 2.0608 0.8438 0
M  V30 51 H 2.8593 0.7263 1.0957 0
M  V30 52 H -1.2804 1.9283 0.1693 0
M  V30 53 H -1.3284 1.7813 -1.5809 0
M  V30 54 H 0.0515 2.5299 -0.7838 0
M  V30 55 H 2.382 2.0886 -1.3352 0
M  V30 56 H 3.2983 0.5971 -1.1551 0
M  V30 57 H 1.0649 2.8344 -3.0211 0
M  V30 58 H 2.3997 1.8588 -3.7466 0
M  V30 59 H 3.1632 -3.2584 -1.7926 0
M  V30 60 H 1.8452 -3.4526 -2.9991 0
M  V30 61 H 3.5134 -3.1672 -3.5325 0
M  V30 62 H 0.9983 2.7802 -7.5406 0
M  V30 63 H -0.4175 3.6491 -6.8545 0
M  V30 64 H 1.0442 4.5413 -7.3252 0
M  V30 END ATOM
M  V30 BEGIN BOND
M  V30 1 1 1 2
M  V30 2 1 2 3
M  V30 3 2 2 4
M  V30 4 2 3 5
M  V30 5 1 3 6
M  V30 6 1 4 7
M  V30 7 2 6 8
M  V30 8 1 7 9
M  V30 9 1 7 10
M  V30 10 1 8 11
M  V30 11 1 9 12
M  V30 12 1 9 13
M  V30 13 1 9 14
M  V30 14 1 11 15
M  V30 15 1 11 16
M  V30 16 1 13 17
M  V30 17 1 13 18
M  V30 18 1 14 19
M  V30 19 1 18 20
M  V30 20 1 19 21
M  V30 21 1 20 22
M  V30 22 1 20 23
M  V30 23 1 21 24
M  V30 24 1 22 25
M  V30 25 1 22 26
M  V30 26 1 25 27
M  V30 27 2 26 28
M  V30 28 1 26 29
M  V30 29 2 27 30
M  V30 30 1 27 31
M  V30 31 1 29 32
M  V30 32 1 32 33
M  V30 33 2 33 34
M  V30 34 1 33 35
M  V30 35 1 7 8
M  V30 36 1 14 16
M  V30 37 1 19 20
M  V30 38 1 22 24
M  V30 39 1 4 36
M  V30 40 1 6 37
M  V30 41 1 10 38
M  V30 42 1 10 39
M  V30 43 1 10 40
M  V30 44 1 11 41
M  V30 45 1 13 42
M  V30 46 1 14 43
M  V30 47 1 16 44
M  V30 48 1 16 45
M  V30 49 1 17 46
M  V30 50 1 18 47
M  V30 51 1 18 48
M  V30 52 1 19 49
M  V30 53 1 21 50
M  V30 54 1 21 51
M  V30 55 1 23 52
M  V30 56 1 23 53
M  V30 57 1 23 54
M  V30 58 1 24 55
M  V30 59 1 24 56
M  V30 60 1 29 57
M  V30 61 1 29 58
M  V30 62 1 31 59
M  V30 63 1 31 60
M  V30 64 1 31 61
M  V30 65 1 35 62
M  V30 66 1 35 63
M  V30 67 1 35 64
M  V30 END BOND
M  V30 BEGIN COLLECTION
M  V30 MDLV30/STEABS ATOMS=(4 11 13 14 19)
M  V30 END COLLECTION
M  V30 END CTAB
M  END
>  <Column 1>
2435

>  <level_0>
2716

>  <index>
2716

>  <Unnamed: 0>
2716

>  <NO.>
2728

>  <Name>


>  <IUPAC_name>


>  <SMILES>
CC(=O)OCC(=O)C1(OC(C)=O)CC[C@H]2[C@@H]3C[C@H](F)C4=CC(=O)C(Br)=CC4(C)C3(F)[C@@H](O)CC21C

>  <CID>


>  <logBB>


>  <BBB+/BBB->
BBB+

>  <Inchi>
InChI=1S/C25H29BrF2O7/c1-12(29)34-11-21(33)24(35-13(2)30)6-5-14-15-7-18(27)16-8-19(31)17(26)9-23(16-4)25(15-28)20(32)10-22(14-24)3/h8-9-14-15-18-20-32H-5-7-10-11H2-1-4H3/t14--15--18--20--22?-23?-24?-25?/m0/s1

>  <threshold>
-1

>  <reference>
R13|

>  <group>
B

>  <Class>
1

>  <ABC>
27.71

>  <ABCGG>
23.16

>  <nAcid>
0

>  <nBase>
0

>  <nAromAtom>
0

>  <nAromBond>
0

>  <nAtom>
64

>  <nHeavyAtom>
35

>  <nSpiro>
0

>  <nBridgehead>
0

>  <nHetero>
10

>  <nN>
0

>  <nO>
7

>  <nF>
2

>  <BalabanJ>
1.75

>  <BertzCT>
1072.03

>  <nBonds>
67

>  <nBondsO>
38

>  <nBondsS>
61

>  <nBondsD>
6

>  <nBondsT>
0

>  <nBondsA>
0

>  <nBondsM>
6

>  <nBondsKS>
61

>  <nBondsKD>
6

>  <RNCG>
0.14

>  <RPCG>
0.09

>  <FCSP3>
0.68

>  <SZ>
48

>  <Sm>
46.57

>  <Sv>
40.44

>  <Sse>
65.77

>  <Sp>
42.43

>  <Si>
72.63

>  <MZ>
0.75

>  <Mm>
0.73

>  <Mv>
0.63

>  <Mse>
1.03

>  <Mp>
0.66

>  <Mi>
1.13

>  <NsCH3>
4

>  <NdCH2>
0

>  <NssCH2>
5

>  <NtCH>
0

>  <NdsCH>
2

>  <NaaCH>
0

>  <NsssCH>
4

>  <NddC>
0

>  <NtsC>
0

>  <NdssC>
6

>  <NaasC>
0

>  <NaaaC>
0

>  <NssssC>
4

>  <NsNH3>
0

>  <NsNH2>
0

>  <NssNH2>
0

>  <NdNH>
0

>  <NssNH>
0

>  <NaaNH>
0

>  <NtN>
0

>  <NsssNH>
0

>  <NdsN>
0

>  <NaaN>
0

>  <NsssN>
0

>  <NddsN>
0

>  <NaasN>
0

>  <NssssN>
0

>  <NsOH>
1

>  <NdO>
4

>  <NssO>
2

>  <NaaO>
0

>  <NsF>
2

>  <NsSiH3>
0

>  <NssSiH2>
0

>  <NsssSiH>
0

>  <NssssSi>
0

>  <NsPH2>
0

>  <NssPH>
0

>  <NsssP>
0

>  <NdsssP>
0

>  <NsssssP>
0

>  <NsSH>
0

>  <NdS>
0

>  <NssS>
0

>  <NaaS>
0

>  <NdssS>
0

>  <NddssS>
0

>  <NsCl>
0

>  <NsBr>
1

>  <NsI>
0

>  <fragCpx>
254.1

>  <fMF>
0.27

>  <nHBAcc>
7

>  <nHBDon>
1

>  <Kier1>
28.02

>  <Kier2>
9.33

>  <Lipinski>
0

>  <GhoseFilter>
0

>  <FilterItLogS>
-4.89

>  <VMcGowan>
355.98

>  <LabuteASA>
209.96

>  <PEOE_VSA1>
14.58

>  <PEOE_VSA2>
19.18

>  <PEOE_VSA3>
8.78

>  <PEOE_VSA4>
0

>  <PEOE_VSA5>
0

>  <PEOE_VSA6>
13

>  <PEOE_VSA7>
66.1

>  <PEOE_VSA8>
30.6

>  <PEOE_VSA9>
10.59

>  <PEOE_VSA10>
6.17

>  <PEOE_VSA11>
23.66

>  <PEOE_VSA12>
5.78

>  <PEOE_VSA13>
0

>  <SMR_VSA1>
42.54

>  <SMR_VSA2>
0

>  <SMR_VSA3>
0

>  <SMR_VSA4>
22.67

>  <SMR_VSA5>
76.92

>  <SMR_VSA6>
6.61

>  <SMR_VSA7>
22.21

>  <SMR_VSA8>
0

>  <SMR_VSA9>
0

>  <SlogP_VSA1>
0

>  <SlogP_VSA2>
58.76

>  <SlogP_VSA3>
28.65

>  <SlogP_VSA4>
22.67

>  <SlogP_VSA5>
53.38

>  <SlogP_VSA6>
22.21

>  <SlogP_VSA7>
0

>  <SlogP_VSA8>
0

>  <SlogP_VSA9>
0

>  <SlogP_VSA10>
8.78

>  <SlogP_VSA11>
0

>  <EState_VSA1>
76.32

>  <EState_VSA2>
35.74

>  <EState_VSA3>
0

>  <EState_VSA4>
19.92

>  <EState_VSA5>
13

>  <EState_VSA6>
6.92

>  <EState_VSA7>
0

>  <EState_VSA8>
15.93

>  <EState_VSA9>
9.47

>  <EState_VSA10>
24.28

>  <VSA_EState1>
43.47

>  <VSA_EState2>
49.06

>  <VSA_EState3>
11.39

>  <VSA_EState4>
-6.95

>  <VSA_EState5>
-4.21

>  <VSA_EState6>
0

>  <VSA_EState7>
-1.11

>  <VSA_EState8>
4.79

>  <VSA_EState9>
0

>  <apol>
70.87

>  <bpol>
39.64

>  <nRing>
4

>  <nHRing>
0

>  <naRing>
0

>  <naHRing>
0

>  <nARing 2>
4

>  <nAHRing 2>
0

>  <nFRing>
1

>  <nFHRing>
0

>  <nFaRing>
0

>  <nFaHRing>
0

>  <nFARing 2>
1

>  <nFAHRing 2>
0

>  <nRot>
4

>  <SLogP>
3.46

>  <SMR>
122.64

>  <TopoPSA(NO)>
106.97

>  <TopoPSA>
106.97

>  <JGI1>
0.33

>  <JGI2>
0.15

>  <JGI3>
0.07

>  <JGI4>
0.06

>  <JGI5>
0.04

>  <Diameter>
14

>  <Radius>
7

>  <TMWC10>
155.92

>  <TSRW10>
87.57

>  <MW>
558.11

>  <AMW>
8.72

>  <WPath>
3183

>  <WPol>
80

>  <Zagreb1>
202

>  <Zagreb2>
258

>  <mZagreb2>
7.29

>  <yes>


>  <nAR-cont>
0.199399

>  <nHA-cont>
0.523063577

>  <MWHBN>
0.338633629

>  <MWHBN-cont>
0.712086047

>  <TPSA-cont>
0.253282976

>  <pka_cont>
0.97

>  <yes.1>


>  <BBB_SCORE>
2.782157599

>  <MMFF94 Energy>
125.08

$$$$
Compound 1999
Actelion Java MolfileCreator 2.0

  0  0  0  0  0  0              0 V3000
M  V30 BEGIN CTAB
M  V30 COUNTS 66 68 0 0 0
M  V30 BEGIN ATOM
M  V30 1 O -1.6757 2.7941 1.516 0
M  V30 2 C -0.4594 2.7176 1.5931 0
M  V30 3 O 0.2696 1.6003 1.3234 0
M  V30 4 C 0.4861 3.8482 1.9383 0
M  V30 5 C -0.5038 0.4132 1.0738 0 CFG=2
M  V30 6 C -0.1661 5.0216 2.7007 0
M  V30 7 O -0.8316 -0.1726 2.3563 0
M  V30 8 C 0.3483 -0.5412 0.2296 0 CFG=1
M  V30 9 O -1.1201 5.6164 1.7821 0
M  V30 10 C 0.9436 6.0398 3.0169 0
M  V30 11 C -0.8269 4.527 3.9968 0
M  V30 12 C -1.136 -1.5126 2.3624 0
M  V30 13 C -0.3927 -1.862 0.1326 0
M  V30 14 C 0.5674 -0.1667 -1.2231 0
M  V30 15 C -1.9133 6.6506 2.1656 0
M  V30 16 C -0.9845 -2.3766 1.3421 0
M  V30 17 C -0.4416 -2.3268 -1.1242 0
M  V30 18 O 1.8605 0.4154 -1.486 0
M  V30 19 C 0.176 -1.3505 -2.0939 0 CFG=2
M  V30 20 C 0.7265 1.231 -1.7891 0
M  V30 21 O -1.8911 7.2178 3.2475 0
M  V30 22 C -2.837 7.0177 1.0441 0
M  V30 23 C -1.3702 -3.8377 1.3953 0
M  V30 24 O 1.3168 -1.9885 -2.6682 0
M  V30 25 O -1.85 -4.1945 2.6983 0
M  V30 26 C 1.6587 -1.5382 -3.9039 0
M  V30 27 C -2.2302 -5.4959 2.8023 0
M  V30 28 O 1.0442 -0.7009 -4.5516 0
M  V30 29 C 2.9151 -2.2215 -4.3839 0
M  V30 30 O -2.1885 -6.3207 1.9007 0
M  V30 31 C -2.7135 -5.7804 4.1912 0
M  V30 32 C 2.6883 -3.7027 -4.7109 0
M  V30 33 C 1.7747 -3.8752 -5.9263 0
M  V30 34 C 4.0288 -4.3937 -4.9638 0
M  V30 35 H 1.3013 3.4316 2.5437 0
M  V30 36 H 0.9042 4.2028 0.9878 0
M  V30 37 H -1.4366 0.654 0.5447 0
M  V30 38 H 1.3181 -0.7115 0.718 0
M  V30 39 H 1.7476 5.585 3.6058 0
M  V30 40 H 1.3737 6.4446 2.0936 0
M  V30 41 H 0.5644 6.8957 3.5838 0
M  V30 42 H -1.0968 5.3582 4.6564 0
M  V30 43 H -0.1516 3.8763 4.563 0
M  V30 44 H -1.7548 3.9823 3.7964 0
M  V30 45 H -1.5252 -1.79 3.3356 0
M  V30 46 H -0.9265 -3.2349 -1.4525 0
M  V30 47 H -0.5781 -1.0713 -2.8399 0
M  V30 48 H 0.4966 1.3956 -2.8364 0
M  V30 49 H 0.5529 2.0974 -1.1674 0
M  V30 50 H -2.2568 7.3561 0.182 0
M  V30 51 H -3.4572 6.1579 0.7781 0
M  V30 52 H -3.4928 7.832 1.3661 0
M  V30 53 H -2.162 -4.0296 0.6604 0
M  V30 54 H -0.4921 -4.4527 1.1615 0
M  V30 55 H 3.6762 -2.1005 -3.6032 0
M  V30 56 H 3.2857 -1.6799 -5.2627 0
M  V30 57 H -1.9085 -5.6 4.9081 0
M  V30 58 H -3.5792 -5.153 4.4182 0
M  V30 59 H -3.0149 -6.8295 4.2623 0
M  V30 60 H 2.2094 -4.196 -3.8556 0
M  V30 61 H 0.7844 -3.4465 -5.7413 0
M  V30 62 H 2.1955 -3.3882 -6.8126 0
M  V30 63 H 1.6354 -4.9366 -6.1586 0
M  V30 64 H 4.6783 -4.3156 -4.0854 0
M  V30 65 H 4.5533 -3.9455 -5.8147 0
M  V30 66 H 3.8839 -5.4581 -5.1773 0
M  V30 END ATOM
M  V30 BEGIN BOND
M  V30 1 2 1 2
M  V30 2 1 2 3
M  V30 3 1 2 4
M  V30 4 1 3 5
M  V30 5 1 4 6
M  V30 6 1 5 7
M  V30 7 1 5 8
M  V30 8 1 6 9
M  V30 9 1 6 10
M  V30 10 1 6 11
M  V30 11 1 7 12
M  V30 12 1 8 13
M  V30 13 1 8 14
M  V30 14 1 9 15
M  V30 15 2 12 16
M  V30 16 2 13 17
M  V30 17 1 14 18
M  V30 18 1 14 19
M  V30 19 1 14 20
M  V30 20 2 15 21
M  V30 21 1 15 22
M  V30 22 1 16 23
M  V30 23 1 19 24
M  V30 24 1 23 25
M  V30 25 1 24 26
M  V30 26 1 25 27
M  V30 27 2 26 28
M  V30 28 1 26 29
M  V30 29 2 27 30
M  V30 30 1 27 31
M  V30 31 1 29 32
M  V30 32 1 32 33
M  V30 33 1 32 34
M  V30 34 1 13 16
M  V30 35 1 17 19
M  V30 36 1 18 20
M  V30 37 1 4 35
M  V30 38 1 4 36
M  V30 39 1 5 37
M  V30 40 1 8 38
M  V30 41 1 10 39
M  V30 42 1 10 40
M  V30 43 1 10 41
M  V30 44 1 11 42
M  V30 45 1 11 43
M  V30 46 1 11 44
M  V30 47 1 12 45
M  V30 48 1 17 46
M  V30 49 1 19 47
M  V30 50 1 20 48
M  V30 51 1 20 49
M  V30 52 1 22 50
M  V30 53 1 22 51
M  V30 54 1 22 52
M  V30 55 1 23 53
M  V30 56 1 23 54
M  V30 57 1 29 55
M  V30 58 1 29 56
M  V30 59 1 31 57
M  V30 60 1 31 58
M  V30 61 1 31 59
M  V30 62 1 32 60
M  V30 63 1 33 61
M  V30 64 1 33 62
M  V30 65 1 33 63
M  V30 66 1 34 64
M  V30 67 1 34 65
M  V30 68 1 34 66
M  V30 END BOND
M  V30 BEGIN COLLECTION
M  V30 MDLV30/STEABS ATOMS=(3 5 8 19)
M  V30 END COLLECTION
M  V30 END CTAB
M  END
>  <Column 1>
2436

>  <level_0>
2734

>  <index>
2734

>  <Unnamed: 0>
2734

>  <NO.>
2746

>  <Name>


>  <IUPAC_name>


>  <SMILES>
CC(=O)OCC1=CO[C@@H](OC(=O)CC(C)(C)OC(C)=O)[C@H]2C1=C[C@H](OC(=O)CC(C)C)C21CO1

>  <CID>


>  <logBB>


>  <BBB+/BBB->
BBB+

>  <Inchi>
InChI=1S/C24H32O10/c1-13(2)7-19(27)32-18-8-17-16(10-29-14(3)25)11-30-22(21(17)24(18)12-31-24)33-20(28)9-23(5-6)34-15(4)26/h8-11-13-18-21-22H-7-9-10-12H2-1-6H3/t18--21+-22--24?/m0/s1

>  <threshold>
-1

>  <reference>
R13|

>  <group>
B

>  <Class>
1

>  <ABC>
26.4

>  <ABCGG>
21.78

>  <nAcid>
0

>  <nBase>
0

>  <nAromAtom>
0

>  <nAromBond>
0

>  <nAtom>
66

>  <nHeavyAtom>
34

>  <nSpiro>
1

>  <nBridgehead>
0

>  <nHetero>
10

>  <nN>
0

>  <nO>
10

>  <nF>
0

>  <BalabanJ>
1.73

>  <BertzCT>
908.71

>  <nBonds>
68

>  <nBondsO>
36

>  <nBondsS>
62

>  <nBondsD>
6

>  <nBondsT>
0

>  <nBondsA>
0

>  <nBondsM>
6

>  <nBondsKS>
62

>  <nBondsKD>
6

>  <RNCG>
0.12

>  <RPCG>
0.08

>  <FCSP3>
0.67

>  <SZ>
42.67

>  <Sm>
40.01

>  <Sv>
39.82

>  <Sse>
67.51

>  <Sp>
41.58

>  <Si>
74.74

>  <MZ>
0.65

>  <Mm>
0.61

>  <Mv>
0.6

>  <Mse>
1.02

>  <Mp>
0.63

>  <Mi>
1.13

>  <NsCH3>
6

>  <NdCH2>
0

>  <NssCH2>
4

>  <NtCH>
0

>  <NdsCH>
2

>  <NaaCH>
0

>  <NsssCH>
4

>  <NddC>
0

>  <NtsC>
0

>  <NdssC>
6

>  <NaasC>
0

>  <NaaaC>
0

>  <NssssC>
2

>  <NsNH3>
0

>  <NsNH2>
0

>  <NssNH2>
0

>  <NdNH>
0

>  <NssNH>
0

>  <NaaNH>
0

>  <NtN>
0

>  <NsssNH>
0

>  <NdsN>
0

>  <NaaN>
0

>  <NsssN>
0

>  <NddsN>
0

>  <NaasN>
0

>  <NssssN>
0

>  <NsOH>
0

>  <NdO>
4

>  <NssO>
6

>  <NaaO>
0

>  <NsF>
0

>  <NsSiH3>
0

>  <NssSiH2>
0

>  <NsssSiH>
0

>  <NssssSi>
0

>  <NsPH2>
0

>  <NssPH>
0

>  <NsssP>
0

>  <NdsssP>
0

>  <NsssssP>
0

>  <NsSH>
0

>  <NdS>
0

>  <NssS>
0

>  <NaaS>
0

>  <NdssS>
0

>  <NddssS>
0

>  <NsCl>
0

>  <NsBr>
0

>  <NsI>
0

>  <fragCpx>
174.1

>  <fMF>
0.17

>  <nHBAcc>
10

>  <nHBDon>
0

>  <Kier1>
28.57

>  <Kier2>
11.59

>  <Lipinski>
1

>  <GhoseFilter>
0

>  <FilterItLogS>
-2.89

>  <VMcGowan>
349.34

>  <LabuteASA>
198.06

>  <PEOE_VSA1>
28.42

>  <PEOE_VSA2>
19.18

>  <PEOE_VSA3>
0

>  <PEOE_VSA4>
0

>  <PEOE_VSA5>
0

>  <PEOE_VSA6>
13.85

>  <PEOE_VSA7>
31.41

>  <PEOE_VSA8>
25.84

>  <PEOE_VSA9>
25.21

>  <PEOE_VSA10>
17.81

>  <PEOE_VSA11>
6.1

>  <PEOE_VSA12>
0

>  <PEOE_VSA13>
6.29

>  <SMR_VSA1>
47.6

>  <SMR_VSA2>
0

>  <SMR_VSA3>
0

>  <SMR_VSA4>
11.84

>  <SMR_VSA5>
77.98

>  <SMR_VSA6>
13.21

>  <SMR_VSA7>
23.48

>  <SMR_VSA8>
0

>  <SMR_VSA9>
0

>  <SlogP_VSA1>
0

>  <SlogP_VSA2>
60.69

>  <SlogP_VSA3>
47.6

>  <SlogP_VSA4>
11.84

>  <SlogP_VSA5>
54.38

>  <SlogP_VSA6>
23.48

>  <SlogP_VSA7>
0

>  <SlogP_VSA8>
0

>  <SlogP_VSA9>
0

>  <SlogP_VSA10>
0

>  <SlogP_VSA11>
0

>  <EState_VSA1>
47.42

>  <EState_VSA2>
37.94

>  <EState_VSA3>
11.15

>  <EState_VSA4>
0

>  <EState_VSA5>
20.11

>  <EState_VSA6>
19.92

>  <EState_VSA7>
13.85

>  <EState_VSA8>
0

>  <EState_VSA9>
28.42

>  <EState_VSA10>
19.18

>  <VSA_EState1>
33.15

>  <VSA_EState2>
47.7

>  <VSA_EState3>
0

>  <VSA_EState4>
-0.77

>  <VSA_EState5>
-2.45

>  <VSA_EState6>
0

>  <VSA_EState7>
1.4

>  <VSA_EState8>
9.81

>  <VSA_EState9>
0

>  <apol>
69.44

>  <bpol>
45.99

>  <nRing>
3

>  <nHRing>
2

>  <naRing>
0

>  <naHRing>
0

>  <nARing 2>
3

>  <nAHRing 2>
2

>  <nFRing>
1

>  <nFHRing>
1

>  <nFaRing>
0

>  <nFaHRing>
0

>  <nFARing 2>
1

>  <nFAHRing 2>
1

>  <nRot>
9

>  <SLogP>
2.35

>  <SMR>
115.73

>  <TopoPSA(NO)>
126.96

>  <TopoPSA>
126.96

>  <JGI1>
0.32

>  <JGI2>
0.07

>  <JGI3>
0.07

>  <JGI4>
0.03

>  <JGI5>
0.03

>  <Diameter>
15

>  <Radius>
8

>  <TMWC10>
149.65

>  <TSRW10>
91.29

>  <MW>
480.2

>  <AMW>
7.28

>  <WPath>
3542

>  <WPol>
52

>  <Zagreb1>
180

>  <Zagreb2>
211

>  <mZagreb2>
7.25

>  <yes>


>  <nAR-cont>
0.691115

>  <nHA-cont>
0.568589513

>  <MWHBN>
0.456340404

>  <MWHBN-cont>
0

>  <TPSA-cont>
0

>  <pka_cont>
0.97

>  <yes.1>


>  <BBB_SCORE>
1.744704513

>  <MMFF94 Energy>
6.9226

$$$$
Compound 2000
Actelion Java MolfileCreator 2.0

  0  0  0  0  0  0              0 V3000
M  V30 BEGIN CTAB
M  V30 COUNTS 50 51 0 0 0
M  V30 BEGIN ATOM
M  V30 1 S 2.2439 -2.3241 3.287 0
M  V30 2 C 2.9196 -1.8096 4.8296 0
M  V30 3 C 0.5952 -1.5476 3.4288 0
M  V30 4 O 2.2167 -1.4265 5.7561 0
M  V30 5 C 4.4154 -1.908 4.9089 0
M  V30 6 C -0.2329 -1.7418 2.1487 0 CFG=2
M  V30 7 C 0.3165 -0.8726 1.0197 0
M  V30 8 C -1.7019 -1.3563 2.4208 0
M  V30 9 O 0.9758 0.1455 1.2107 0
M  V30 10 N -0.0017 -1.3095 -0.2448 0
M  V30 11 C -2.6758 -2.0199 1.4732 0
M  V30 12 C 0.4849 -0.6091 -1.4202 0
M  V30 13 C -3.3185 -1.2758 0.4765 0
M  V30 14 C -2.9391 -3.3937 1.5705 0
M  V30 15 C -0.339 0.635 -1.7342 0
M  V30 16 C -4.1945 -1.8951 -0.4156 0
M  V30 17 C -3.8186 -4.0108 0.6796 0
M  V30 18 O -1.5337 0.7703 -1.4982 0
M  V30 19 O 0.4323 1.5485 -2.3857 0
M  V30 20 C -4.4441 -3.2618 -0.3148 0
M  V30 21 C -0.2558 2.7608 -2.7035 0
M  V30 22 C 0.7215 3.6972 -3.3665 0
M  V30 23 C 1.8117 4.2057 -2.6448 0
M  V30 24 C 0.561 4.0732 -4.7071 0
M  V30 25 C 2.7198 5.0751 -3.2508 0
M  V30 26 C 1.4706 4.9434 -5.3114 0
M  V30 27 C 2.5484 5.4442 -4.5834 0
M  V30 28 H 0.7144 -0.4844 3.6655 0
M  V30 29 H 0.0875 -2.0258 4.2738 0
M  V30 30 H 4.7311 -2.9498 4.8069 0
M  V30 31 H 4.8778 -1.2942 4.1311 0
M  V30 32 H 4.7502 -1.5378 5.8826 0
M  V30 33 H -0.1725 -2.7945 1.8425 0
M  V30 34 H -1.9959 -1.6517 3.4367 0
M  V30 35 H -1.8253 -0.266 2.3804 0
M  V30 36 H -0.6756 -2.0574 -0.3656 0
M  V30 37 H 0.4295 -1.2923 -2.272 0
M  V30 38 H 1.5277 -0.3231 -1.2469 0
M  V30 39 H -3.1347 -0.2068 0.3775 0
M  V30 40 H -2.4635 -3.9924 2.3444 0
M  V30 41 H -4.6817 -1.3057 -1.1886 0
M  V30 42 H -4.0195 -5.0756 0.7642 0
M  V30 43 H -5.1308 -3.7411 -1.0074 0
M  V30 44 H -0.644 3.2316 -1.7917 0
M  V30 45 H -1.0943 2.5425 -3.3758 0
M  V30 46 H 1.9586 3.9206 -1.6047 0
M  V30 47 H -0.2727 3.691 -5.2915 0
M  V30 48 H 3.5614 5.4625 -2.6826 0
M  V30 49 H 1.3385 5.2302 -6.3514 0
M  V30 50 H 3.256 6.1209 -5.055 0
M  V30 END ATOM
M  V30 BEGIN BOND
M  V30 1 1 1 2
M  V30 2 1 1 3
M  V30 3 2 2 4
M  V30 4 1 2 5
M  V30 5 1 3 6
M  V30 6 1 6 7
M  V30 7 1 6 8
M  V30 8 2 7 9
M  V30 9 1 7 10
M  V30 10 1 8 11
M  V30 11 1 10 12
M  V30 12 2 11 13
M  V30 13 1 11 14
M  V30 14 1 12 15
M  V30 15 1 13 16
M  V30 16 2 14 17
M  V30 17 2 15 18
M  V30 18 1 15 19
M  V30 19 2 16 20
M  V30 20 1 19 21
M  V30 21 1 21 22
M  V30 22 2 22 23
M  V30 23 1 22 24
M  V30 24 1 23 25
M  V30 25 2 24 26
M  V30 26 2 25 27
M  V30 27 1 17 20
M  V30 28 1 26 27
M  V30 29 1 3 28
M  V30 30 1 3 29
M  V30 31 1 5 30
M  V30 32 1 5 31
M  V30 33 1 5 32
M  V30 34 1 6 33
M  V30 35 1 8 34
M  V30 36 1 8 35
M  V30 37 1 10 36
M  V30 38 1 12 37
M  V30 39 1 12 38
M  V30 40 1 13 39
M  V30 41 1 14 40
M  V30 42 1 16 41
M  V30 43 1 17 42
M  V30 44 1 20 43
M  V30 45 1 21 44
M  V30 46 1 21 45
M  V30 47 1 23 46
M  V30 48 1 24 47
M  V30 49 1 25 48
M  V30 50 1 26 49
M  V30 51 1 27 50
M  V30 END BOND
M  V30 BEGIN COLLECTION
M  V30 MDLV30/STEABS ATOMS=(1 6)
M  V30 END COLLECTION
M  V30 END CTAB
M  END
>  <Column 1>
2438

>  <level_0>
2747

>  <index>
2747

>  <Unnamed: 0>
2747

>  <NO.>
2759

>  <Name>
acetorphan (racecadotril and ecadotril)

>  <IUPAC_name>
benzyl 2-[[(2s)-2-(acetylsulfanylmethyl)-3-phenylpropanoyl]amino]acetate

>  <SMILES>
CC(=O)SC[C@@H](Cc1ccccc1)C(=O)NCC(=O)OCc1ccccc1

>  <CID>
60561

>  <logBB>


>  <BBB+/BBB->
BBB+

>  <Inchi>
InChI=1S/C21H23NO4S/c1-16(23)27-15-19(12-17-8-4-2-5-9-17)21(25)22-13-20(24)26-14-18-10-6-3-7-11-18/h2-11-19H-12-15H2-1H3-(H-22-25)/t19-/m1/s1

>  <threshold>
-1

>  <reference>
R13|R6|R24|R27|R30|

>  <group>
B

>  <Class>
-1

>  <ABC>
20.2

>  <ABCGG>
16.23

>  <nAcid>
0

>  <nBase>
0

>  <nAromAtom>
12

>  <nAromBond>
12

>  <nAtom>
50

>  <nHeavyAtom>
27

>  <nSpiro>
0

>  <nBridgehead>
0

>  <nHetero>
6

>  <nN>
1

>  <nO>
4

>  <nF>
0

>  <BalabanJ>
1.7

>  <BertzCT>
749.29

>  <nBonds>
51

>  <nBondsO>
28

>  <nBondsS>
36

>  <nBondsD>
3

>  <nBondsT>
0

>  <nBondsA>
12

>  <nBondsM>
15

>  <nBondsKS>
42

>  <nBondsKD>
9

>  <RNCG>
0.19

>  <RPCG>
0.14

>  <FCSP3>
0.29

>  <SZ>
34

>  <Sm>
32.09

>  <Sv>
32.04

>  <Sse>
50.27

>  <Sp>
34.5

>  <Si>
55.82

>  <MZ>
0.68

>  <Mm>
0.64

>  <Mv>
0.64

>  <Mse>
1.01

>  <Mp>
0.69

>  <Mi>
1.12

>  <NsCH3>
1

>  <NdCH2>
0

>  <NssCH2>
4

>  <NtCH>
0

>  <NdsCH>
0

>  <NaaCH>
10

>  <NsssCH>
1

>  <NddC>
0

>  <NtsC>
0

>  <NdssC>
3

>  <NaasC>
2

>  <NaaaC>
0

>  <NssssC>
0

>  <NsNH3>
0

>  <NsNH2>
0

>  <NssNH2>
0

>  <NdNH>
0

>  <NssNH>
1

>  <NaaNH>
0

>  <NtN>
0

>  <NsssNH>
0

>  <NdsN>
0

>  <NaaN>
0

>  <NsssN>
0

>  <NddsN>
0

>  <NaasN>
0

>  <NssssN>
0

>  <NsOH>
0

>  <NdO>
3

>  <NssO>
1

>  <NaaO>
0

>  <NsF>
0

>  <NsSiH3>
0

>  <NssSiH2>
0

>  <NsssSiH>
0

>  <NssssSi>
0

>  <NsPH2>
0

>  <NssPH>
0

>  <NsssP>
0

>  <NdsssP>
0

>  <NsssssP>
0

>  <NsSH>
0

>  <NdS>
0

>  <NssS>
1

>  <NaaS>
0

>  <NdssS>
0

>  <NddssS>
0

>  <NsCl>
0

>  <NsBr>
0

>  <NsI>
0

>  <fragCpx>
82.06

>  <fMF>
0.4

>  <nHBAcc>
5

>  <nHBDon>
1

>  <Kier1>
23.28

>  <Kier2>
13.27

>  <Lipinski>
1

>  <GhoseFilter>
1

>  <FilterItLogS>
-5.14

>  <VMcGowan>
296.14

>  <LabuteASA>
163.04

>  <PEOE_VSA1>
10.05

>  <PEOE_VSA2>
14.38

>  <PEOE_VSA3>
0

>  <PEOE_VSA4>
0

>  <PEOE_VSA5>
0

>  <PEOE_VSA6>
72.43

>  <PEOE_VSA7>
17.55

>  <PEOE_VSA8>
12.68

>  <PEOE_VSA9>
5.92

>  <PEOE_VSA10>
13.15

>  <PEOE_VSA11>
5.12

>  <PEOE_VSA12>
5.91

>  <PEOE_VSA13>
0

>  <SMR_VSA1>
19.12

>  <SMR_VSA2>
0

>  <SMR_VSA3>
5.32

>  <SMR_VSA4>
5.92

>  <SMR_VSA5>
19.95

>  <SMR_VSA6>
12.3

>  <SMR_VSA7>
71.79

>  <SMR_VSA8>
0

>  <SMR_VSA9>
0

>  <SlogP_VSA1>
5.32

>  <SlogP_VSA2>
29.29

>  <SlogP_VSA3>
32.15

>  <SlogP_VSA4>
5.92

>  <SlogP_VSA5>
18.05

>  <SlogP_VSA6>
60.66

>  <SlogP_VSA7>
0

>  <SlogP_VSA8>
0

>  <SlogP_VSA9>
0

>  <SlogP_VSA10>
0

>  <SlogP_VSA11>
0

>  <EState_VSA1>
11.89

>  <EState_VSA2>
24.17

>  <EState_VSA3>
12.17

>  <EState_VSA4>
22.89

>  <EState_VSA5>
6.92

>  <EState_VSA6>
0

>  <EState_VSA7>
60.66

>  <EState_VSA8>
5.32

>  <EState_VSA9>
4.74

>  <EState_VSA10>
14.38

>  <VSA_EState1>
5.16

>  <VSA_EState2>
35.63

>  <VSA_EState3>
2.59

>  <VSA_EState4>
1.89

>  <VSA_EState5>
-0.79

>  <VSA_EState6>
18.94

>  <VSA_EState7>
0.51

>  <VSA_EState8>
1.45

>  <VSA_EState9>
0

>  <apol>
57.61

>  <bpol>
30.44

>  <nRing>
2

>  <nHRing>
0

>  <naRing>
2

>  <naHRing>
0

>  <nARing 2>
0

>  <nAHRing 2>
0

>  <nFRing>
0

>  <nFHRing>
0

>  <nFaRing>
0

>  <nFaHRing>
0

>  <nFARing 2>
0

>  <nFAHRing 2>
0

>  <nRot>
9

>  <SLogP>
2.98

>  <SMR>
106.02

>  <TopoPSA(NO)>
72.47

>  <TopoPSA>
97.77

>  <JGI1>
0.18

>  <JGI2>
0.06

>  <JGI3>
0.03

>  <JGI4>
0.04

>  <JGI5>
0.02

>  <Diameter>
15

>  <Radius>
8

>  <TMWC10>
127.31

>  <TSRW10>
60.89

>  <MW>
385.13

>  <AMW>
7.7

>  <WPath>
2202

>  <WPol>
33

>  <Zagreb1>
126

>  <Zagreb2>
137

>  <mZagreb2>
6.19

>  <yes>


>  <nAR-cont>
0.336376

>  <nHA-cont>
0.860070871

>  <MWHBN>
0.305736701

>  <MWHBN-cont>
0.823267245

>  <TPSA-cont>
0.317504688

>  <pka_cont>
0.97

>  <yes.1>


>  <BBB_SCORE>
3.551357116

>  <MMFF94 Energy>
25.43

$$$$
Compound 2001
Actelion Java MolfileCreator 2.0

  0  0  0  0  0  0              0 V3000
M  V30 BEGIN CTAB
M  V30 COUNTS 61 65 0 0 0
M  V30 BEGIN ATOM
M  V30 1 S -3.3497 0.0816 -0.8162 0
M  V30 2 C -3.9366 0.6316 0.7513 0
M  V30 3 C -1.9912 -1.0328 -0.2821 0 CFG=2
M  V30 4 O -3.6793 0.0418 1.7926 0
M  V30 5 C -4.7788 1.8729 0.6885 0
M  V30 6 C -0.7622 -0.3691 0.4167 0 CFG=1
M  V30 7 C -1.5582 -1.9088 -1.4605 0
M  V30 8 C 0.494 -1.3155 0.5374 0 CFG=1
M  V30 9 C -0.4115 1.086 -0.0169 0 CFG=1
M  V30 10 C -0.6203 -3.0172 -1.0378 0
M  V30 11 C 0.1878 -2.8365 0.2464 0
M  V30 12 C 1.7019 -0.7433 -0.2194 0
M  V30 13 C 0.9261 1.6206 0.5558 0
M  V30 14 C -0.3169 1.4108 -1.5222 0
M  V30 15 C -0.5366 -4.1253 -1.7991 0
M  V30 16 C 1.493 -3.6773 0.106 0
M  V30 17 C -0.6013 -3.4158 1.4566 0
M  V30 18 C 2.1011 0.6554 0.2577 0
M  V30 19 C 1.0661 2.9585 -0.2265 0
M  V30 20 C 0.8141 1.8484 2.0763 0
M  V30 21 C 0.6819 2.5696 -1.6627 0
M  V30 22 C 0.3481 -5.2633 -1.4465 0
M  V30 23 C 1.2287 -5.1433 -0.2272 0
M  V30 24 O 0.1035 3.9233 0.2411 0
M  V30 25 C 2.3899 3.694 -0.119 0
M  V30 26 O 0.3176 -6.2825 -2.1321 0
M  V30 27 C 0.6017 5.1859 0.0944 0
M  V30 28 C 2.0082 5.1262 -0.4148 0
M  V30 29 O -0.0302 6.2044 0.3196 0
M  V30 30 H -2.4789 -1.7021 0.4332 0
M  V30 31 H -4.1999 2.7015 0.271 0
M  V30 32 H -5.6733 1.6937 0.0858 0
M  V30 33 H -5.0927 2.1476 1.7001 0
M  V30 34 H -1.0928 -0.2538 1.4614 0
M  V30 35 H -1.0607 -1.3077 -2.2285 0
M  V30 36 H -2.4442 -2.356 -1.9322 0
M  V30 37 H 0.7983 -1.279 1.5957 0
M  V30 38 H -1.2157 1.7244 0.379 0
M  V30 39 H 2.5891 -1.3667 -0.0689 0
M  V30 40 H 1.5132 -0.745 -1.2973 0
M  V30 41 H -1.286 1.7209 -1.924 0
M  V30 42 H 0.0219 0.5669 -2.125 0
M  V30 43 H -1.1175 -4.258 -2.706 0
M  V30 44 H 2.093 -3.6124 1.022 0
M  V30 45 H 2.1112 -3.2823 -0.7101 0
M  V30 46 H -1.3863 -2.7491 1.8204 0
M  V30 47 H 0.0687 -3.5835 2.3086 0
M  V30 48 H -1.0805 -4.3722 1.2197 0
M  V30 49 H 2.7847 1.0671 -0.493 0
M  V30 50 H 2.7184 0.5455 1.1598 0
M  V30 51 H 1.7057 2.3466 2.4708 0
M  V30 52 H 0.7059 0.9026 2.6169 0
M  V30 53 H -0.0519 2.4675 2.334 0
M  V30 54 H 0.2268 3.3977 -2.2174 0
M  V30 55 H 1.5529 2.2232 -2.2308 0
M  V30 56 H 2.183 -5.6368 -0.4426 0
M  V30 57 H 0.7535 -5.6713 0.6049 0
M  V30 58 H 2.7862 3.6379 0.9014 0
M  V30 59 H 3.1659 3.3254 -0.796 0
M  V30 60 H 2.6507 5.8305 0.1184 0
M  V30 61 H 2.011 5.3361 -1.4881 0
M  V30 END ATOM
M  V30 BEGIN BOND
M  V30 1 1 1 2
M  V30 2 1 1 3
M  V30 3 2 2 4
M  V30 4 1 2 5
M  V30 5 1 3 6
M  V30 6 1 3 7
M  V30 7 1 6 8
M  V30 8 1 6 9
M  V30 9 1 7 10
M  V30 10 1 8 11
M  V30 11 1 8 12
M  V30 12 1 9 13
M  V30 13 1 9 14
M  V30 14 2 10 15
M  V30 15 1 11 16
M  V30 16 1 11 17
M  V30 17 1 12 18
M  V30 18 1 13 19
M  V30 19 1 13 20
M  V30 20 1 14 21
M  V30 21 1 15 22
M  V30 22 1 16 23
M  V30 23 1 19 24
M  V30 24 1 19 25
M  V30 25 2 22 26
M  V30 26 1 24 27
M  V30 27 1 25 28
M  V30 28 2 27 29
M  V30 29 1 10 11
M  V30 30 1 13 18
M  V30 31 1 19 21
M  V30 32 1 22 23
M  V30 33 1 27 28
M  V30 34 1 3 30
M  V30 35 1 5 31
M  V30 36 1 5 32
M  V30 37 1 5 33
M  V30 38 1 6 34
M  V30 39 1 7 35
M  V30 40 1 7 36
M  V30 41 1 8 37
M  V30 42 1 9 38
M  V30 43 1 12 39
M  V30 44 1 12 40
M  V30 45 1 14 41
M  V30 46 1 14 42
M  V30 47 1 15 43
M  V30 48 1 16 44
M  V30 49 1 16 45
M  V30 50 1 17 46
M  V30 51 1 17 47
M  V30 52 1 17 48
M  V30 53 1 18 49
M  V30 54 1 18 50
M  V30 55 1 20 51
M  V30 56 1 20 52
M  V30 57 1 20 53
M  V30 58 1 21 54
M  V30 59 1 21 55
M  V30 60 1 23 56
M  V30 61 1 23 57
M  V30 62 1 25 58
M  V30 63 1 25 59
M  V30 64 1 28 60
M  V30 65 1 28 61
M  V30 END BOND
M  V30 BEGIN COLLECTION
M  V30 MDLV30/STEABS ATOMS=(4 3 6 8 9)
M  V30 END COLLECTION
M  V30 END CTAB
M  END
>  <Column 1>
2439

>  <level_0>
2748

>  <index>
2748

>  <Unnamed: 0>
2748

>  <NO.>
2760

>  <Name>


>  <IUPAC_name>


>  <SMILES>
CC(=O)S[C@H]1CC2=CC(=O)CCC2(C)[C@H]2CCC3(C)[C@@H](CCC34CCC(=O)O4)[C@@H]12

>  <CID>


>  <logBB>


>  <BBB+/BBB->
BBB-

>  <Inchi>
InChI=1S/C24H32O4S/c1-14(25)29-19-13-15-12-16(26)4-8-22(15-2)17-5-9-23(3)18(21(17)19)6-10-24(23)11-7-20(27)28-24/h12-17-19-21H-4-11-13H2-1-3H3/t17--18--19--21--22?-23?-24?/m0/s1

>  <threshold>
-1

>  <reference>
R13|

>  <group>
B

>  <Class>
1

>  <ABC>
23.69

>  <ABCGG>
19.02

>  <nAcid>
0

>  <nBase>
0

>  <nAromAtom>
0

>  <nAromBond>
0

>  <nAtom>
61

>  <nHeavyAtom>
29

>  <nSpiro>
1

>  <nBridgehead>
0

>  <nHetero>
5

>  <nN>
0

>  <nO>
4

>  <nF>
0

>  <BalabanJ>
1.5

>  <BertzCT>
817.7

>  <nBonds>
65

>  <nBondsO>
33

>  <nBondsS>
61

>  <nBondsD>
4

>  <nBondsT>
0

>  <nBondsA>
0

>  <nBondsM>
4

>  <nBondsKS>
61

>  <nBondsKD>
4

>  <RNCG>
0.25

>  <RPCG>
0.16

>  <FCSP3>
0.79

>  <SZ>
37.33

>  <Sm>
34.68

>  <Sv>
36.72

>  <Sse>
60.6

>  <Sp>
40.43

>  <Si>
68.4

>  <MZ>
0.61

>  <Mm>
0.57

>  <Mv>
0.6

>  <Mse>
0.99

>  <Mp>
0.66

>  <Mi>
1.12

>  <NsCH3>
3

>  <NdCH2>
0

>  <NssCH2>
9

>  <NtCH>
0

>  <NdsCH>
1

>  <NaaCH>
0

>  <NsssCH>
4

>  <NddC>
0

>  <NtsC>
0

>  <NdssC>
4

>  <NaasC>
0

>  <NaaaC>
0

>  <NssssC>
3

>  <NsNH3>
0

>  <NsNH2>
0

>  <NssNH2>
0

>  <NdNH>
0

>  <NssNH>
0

>  <NaaNH>
0

>  <NtN>
0

>  <NsssNH>
0

>  <NdsN>
0

>  <NaaN>
0

>  <NsssN>
0

>  <NddsN>
0

>  <NaasN>
0

>  <NssssN>
0

>  <NsOH>
0

>  <NdO>
3

>  <NssO>
1

>  <NaaO>
0

>  <NsF>
0

>  <NsSiH3>
0

>  <NssSiH2>
0

>  <NsssSiH>
0

>  <NssssSi>
0

>  <NsPH2>
0

>  <NssPH>
0

>  <NsssP>
0

>  <NdsssP>
0

>  <NsssssP>
0

>  <NsSH>
0

>  <NdS>
0

>  <NssS>
1

>  <NaaS>
0

>  <NdssS>
0

>  <NddssS>
0

>  <NsCl>
0

>  <NsBr>
0

>  <NsI>
0

>  <fragCpx>
277.05

>  <fMF>
0.34

>  <nHBAcc>
5

>  <nHBDon>
0

>  <Kier1>
20.88

>  <Kier2>
7

>  <Lipinski>
1

>  <GhoseFilter>
1

>  <FilterItLogS>
-4.87

>  <VMcGowan>
317.35

>  <LabuteASA>
177.14

>  <PEOE_VSA1>
4.74

>  <PEOE_VSA2>
14.38

>  <PEOE_VSA3>
0

>  <PEOE_VSA4>
0

>  <PEOE_VSA5>
0

>  <PEOE_VSA6>
31.18

>  <PEOE_VSA7>
74.19

>  <PEOE_VSA8>
30.43

>  <PEOE_VSA9>
0

>  <PEOE_VSA10>
5.6

>  <PEOE_VSA11>
10.9

>  <PEOE_VSA12>
0

>  <PEOE_VSA13>
0

>  <SMR_VSA1>
19.12

>  <SMR_VSA2>
0

>  <SMR_VSA3>
0

>  <SMR_VSA4>
28.58

>  <SMR_VSA5>
89.41

>  <SMR_VSA6>
0

>  <SMR_VSA7>
11.65

>  <SMR_VSA8>
0

>  <SMR_VSA9>
0

>  <SlogP_VSA1>
0

>  <SlogP_VSA2>
27.72

>  <SlogP_VSA3>
19.12

>  <SlogP_VSA4>
28.58

>  <SlogP_VSA5>
78.56

>  <SlogP_VSA6>
11.65

>  <SlogP_VSA7>
0

>  <SlogP_VSA8>
0

>  <SlogP_VSA9>
0

>  <SlogP_VSA10>
0

>  <SlogP_VSA11>
0

>  <EState_VSA1>
0

>  <EState_VSA2>
38.55

>  <EState_VSA3>
30.6

>  <EState_VSA4>
44.95

>  <EState_VSA5>
17.33

>  <EState_VSA6>
6.92

>  <EState_VSA7>
6.08

>  <EState_VSA8>
13.85

>  <EState_VSA9>
4.74

>  <EState_VSA10>
14.38

>  <VSA_EState1>
6.06

>  <VSA_EState2>
36.42

>  <VSA_EState3>
0.41

>  <VSA_EState4>
1.09

>  <VSA_EState5>
1.67

>  <VSA_EState6>
0

>  <VSA_EState7>
10.02

>  <VSA_EState8>
6.42

>  <VSA_EState9>
0

>  <apol>
67.53

>  <bpol>
38.9

>  <nRing>
5

>  <nHRing>
1

>  <naRing>
0

>  <naHRing>
0

>  <nARing 2>
5

>  <nAHRing 2>
1

>  <nFRing>
1

>  <nFHRing>
0

>  <nFaRing>
0

>  <nFaHRing>
0

>  <nFARing 2>
1

>  <nFAHRing 2>
0

>  <nRot>
1

>  <SLogP>
4.85

>  <SMR>
112.21

>  <TopoPSA(NO)>
60.44

>  <TopoPSA>
85.74

>  <JGI1>
0.29

>  <JGI2>
0.12

>  <JGI3>
0.07

>  <JGI4>
0.05

>  <JGI5>
0.04

>  <Diameter>
12

>  <Radius>
6

>  <TMWC10>
143.16

>  <TSRW10>
82.4

>  <MW>
416.2

>  <AMW>
6.82

>  <WPath>
1905

>  <WPol>
61

>  <Zagreb1>
174

>  <Zagreb2>
221

>  <mZagreb2>
5.94

>  <yes>


>  <nAR-cont>
0

>  <nHA-cont>
0.785905698

>  <MWHBN>
0.245086261

>  <MWHBN-cont>
0.967651508

>  <TPSA-cont>
0.401481559

>  <pka_cont>
0.97

>  <yes.1>


>  <BBB_SCORE>
3.525346078

>  <MMFF94 Energy>
92.918

$$$$
Compound 2002
Actelion Java MolfileCreator 2.0

  0  0  0  0  0  0              0 V3000
M  V30 BEGIN CTAB
M  V30 COUNTS 76 80 0 0 0
M  V30 BEGIN ATOM
M  V30 1 F -4.0367 -1.129 -0.2418 0
M  V30 2 C -3.0705 -0.9952 -1.2019 0
M  V30 3 C -3.3398 -1.9891 -2.3718 0
M  V30 4 C -3.0446 0.4954 -1.6048 0 CFG=1
M  V30 5 C -1.7295 -1.4947 -0.6146 0 CFG=2
M  V30 6 C -1.9304 -2.1184 -2.9252 0
M  V30 7 C -4.3226 -1.5634 -3.4383 0
M  V30 8 C -3.821 -3.363 -1.8531 0
M  V30 9 O -4.3818 0.9638 -1.8375 0
M  V30 10 C -2.4468 1.3804 -0.507 0
M  V30 11 C -0.9793 -0.5138 0.301 0 CFG=1
M  V30 12 C -0.9127 -1.9865 -1.825 0
M  V30 13 C -1.6295 -2.134 -4.232 0
M  V30 14 C -4.0452 -1.5852 -4.7511 0
M  V30 15 C -1.0051 0.9796 -0.0951 0
M  V30 16 C -1.5781 -0.5052 1.7262 0
M  V30 17 C -2.7036 -1.9827 -5.2426 0
M  V30 18 C -0.5493 1.6728 1.2429 0
M  V30 19 C -0.0654 1.3214 -1.2657 0
M  V30 20 C -1.1332 0.8109 2.3612 0 CFG=1
M  V30 21 O -2.4773 -2.1274 -6.4368 0
M  V30 22 O -1.1715 2.9587 1.3908 0
M  V30 23 C 0.9881 1.8836 1.3624 0
M  V30 24 O -2.2412 1.5413 2.8821 0
M  V30 25 C -1.9624 2.91 2.5785 0
M  V30 26 O 1.5451 2.8525 0.8316 0
M  V30 27 C 1.8169 0.8786 2.166 0
M  V30 28 C -1.1848 3.5474 3.7311 0
M  V30 29 C -3.2708 3.6542 2.3502 0
M  V30 30 O 3.2053 0.9233 1.8367 0
M  V30 31 C 3.5303 0.2465 0.7021 0
M  V30 32 O 2.7478 -0.4353 0.0524 0
M  V30 33 C 4.9925 0.4252 0.37 0
M  V30 34 C 5.9108 -0.6989 0.8962 0
M  V30 35 C 5.8497 -0.7932 2.4298 0
M  V30 36 C 7.358 -0.3686 0.4832 0
M  V30 37 C 5.5281 -2.0579 0.2868 0
M  V30 38 H -2.4981 0.6438 -2.5401 0
M  V30 39 H -1.9403 -2.3787 0.0048 0
M  V30 40 H -5.3183 -1.2671 -3.1144 0
M  V30 41 H -3.1201 -3.8269 -1.1516 0
M  V30 42 H -4.7859 -3.2713 -1.3399 0
M  V30 43 H -3.9542 -4.0766 -2.6765 0
M  V30 44 H -4.9071 0.7074 -1.0552 0
M  V30 45 H -2.4708 2.4268 -0.8403 0
M  V30 46 H -3.1244 1.3438 0.3535 0
M  V30 47 H 0.0599 -0.8556 0.3823 0
M  V30 48 H -0.4624 -2.9594 -1.5989 0
M  V30 49 H -0.1112 -1.2999 -2.1064 0
M  V30 50 H -0.6163 -2.1846 -4.6115 0
M  V30 51 H -4.7751 -1.3169 -5.5053 0
M  V30 52 H -2.6704 -0.5875 1.7199 0
M  V30 53 H -1.196 -1.3604 2.2953 0
M  V30 54 H 0.9467 0.9449 -1.1023 0
M  V30 55 H -0.0037 2.4065 -1.4076 0
M  V30 56 H -0.3989 0.8988 -2.2159 0
M  V30 57 H -0.4606 0.6191 3.2005 0
M  V30 58 H 1.735 1.1543 3.2224 0
M  V30 59 H 1.4348 -0.1394 2.055 0
M  V30 60 H -0.9414 4.5926 3.512 0
M  V30 61 H -0.2358 3.0295 3.9071 0
M  V30 62 H -1.7541 3.4986 4.6655 0
M  V30 63 H -3.8399 3.2027 1.5311 0
M  V30 64 H -3.9085 3.6184 3.2398 0
M  V30 65 H -3.0912 4.6996 2.0779 0
M  V30 66 H 5.3164 1.4017 0.7542 0
M  V30 67 H 5.0643 0.5053 -0.7225 0
M  V30 68 H 6.5676 -1.5299 2.8081 0
M  V30 69 H 6.0863 0.1703 2.8948 0
M  V30 70 H 4.8572 -1.1 2.7768 0
M  V30 71 H 7.6816 0.5892 0.9062 0
M  V30 72 H 8.0565 -1.1381 0.8312 0
M  V30 73 H 7.453 -0.3019 -0.6064 0
M  V30 74 H 6.2383 -2.8375 0.5857 0
M  V30 75 H 4.5348 -2.3833 0.6135 0
M  V30 76 H 5.5252 -2.0134 -0.8079 0
M  V30 END ATOM
M  V30 BEGIN BOND
M  V30 1 1 1 2
M  V30 2 1 2 3
M  V30 3 1 2 4
M  V30 4 1 2 5
M  V30 5 1 3 6
M  V30 6 1 3 7
M  V30 7 1 3 8
M  V30 8 1 4 9
M  V30 9 1 4 10
M  V30 10 1 5 11
M  V30 11 1 5 12
M  V30 12 2 6 13
M  V30 13 2 7 14
M  V30 14 1 10 15
M  V30 15 1 11 16
M  V30 16 1 13 17
M  V30 17 1 15 18
M  V30 18 1 15 19
M  V30 19 1 16 20
M  V30 20 2 17 21
M  V30 21 1 18 22
M  V30 22 1 18 23
M  V30 23 1 20 24
M  V30 24 1 22 25
M  V30 25 2 23 26
M  V30 26 1 23 27
M  V30 27 1 25 28
M  V30 28 1 25 29
M  V30 29 1 27 30
M  V30 30 1 30 31
M  V30 31 2 31 32
M  V30 32 1 31 33
M  V30 33 1 33 34
M  V30 34 1 34 35
M  V30 35 1 34 36
M  V30 36 1 34 37
M  V30 37 1 6 12
M  V30 38 1 11 15
M  V30 39 1 14 17
M  V30 40 1 18 20
M  V30 41 1 24 25
M  V30 42 1 4 38
M  V30 43 1 5 39
M  V30 44 1 7 40
M  V30 45 1 8 41
M  V30 46 1 8 42
M  V30 47 1 8 43
M  V30 48 1 9 44
M  V30 49 1 10 45
M  V30 50 1 10 46
M  V30 51 1 11 47
M  V30 52 1 12 48
M  V30 53 1 12 49
M  V30 54 1 13 50
M  V30 55 1 14 51
M  V30 56 1 16 52
M  V30 57 1 16 53
M  V30 58 1 19 54
M  V30 59 1 19 55
M  V30 60 1 19 56
M  V30 61 1 20 57
M  V30 62 1 27 58
M  V30 63 1 27 59
M  V30 64 1 28 60
M  V30 65 1 28 61
M  V30 66 1 28 62
M  V30 67 1 29 63
M  V30 68 1 29 64
M  V30 69 1 29 65
M  V30 70 1 33 66
M  V30 71 1 33 67
M  V30 72 1 35 68
M  V30 73 1 35 69
M  V30 74 1 35 70
M  V30 75 1 36 71
M  V30 76 1 36 72
M  V30 77 1 36 73
M  V30 78 1 37 74
M  V30 79 1 37 75
M  V30 80 1 37 76
M  V30 END BOND
M  V30 BEGIN COLLECTION
M  V30 MDLV30/STEABS ATOMS=(4 4 5 11 20)
M  V30 END COLLECTION
M  V30 END CTAB
M  END
>  <Column 1>
2440

>  <level_0>
2762

>  <index>
2762

>  <Unnamed: 0>
2762

>  <NO.>
2774

>  <Name>


>  <IUPAC_name>


>  <SMILES>
CC(C)(C)CC(=O)OCC(=O)C12OC(C)(C)O[C@H]1C[C@H]1[C@@H]3CC4=CC(=O)C=CC4(C)C3(F)[C@@H](O)CC12C

>  <CID>


>  <logBB>


>  <BBB+/BBB->
BBB+

>  <Inchi>
InChI=1S/C29H39FO7/c1-24(2-3)14-23(34)35-15-21(33)29-22(36-25(4-5)37-29)12-18-19-11-16-10-17(31)8-9-26(16-6)28(19-30)20(32)13-27(18-29)7/h8-10-18-20-22-32H-11-15H2-1-7H3/t18--19--20--22--26?-27?-28?-29?/m0/s1

>  <threshold>
-1

>  <reference>
R13|

>  <group>
B

>  <Class>
1

>  <ABC>
30.1

>  <ABCGG>
24.56

>  <nAcid>
0

>  <nBase>
0

>  <nAromAtom>
0

>  <nAromBond>
0

>  <nAtom>
76

>  <nHeavyAtom>
37

>  <nSpiro>
0

>  <nBridgehead>
0

>  <nHetero>
8

>  <nN>
0

>  <nO>
7

>  <nF>
1

>  <BalabanJ>
1.48

>  <BertzCT>
1117.78

>  <nBonds>
80

>  <nBondsO>
41

>  <nBondsS>
75

>  <nBondsD>
5

>  <nBondsT>
0

>  <nBondsA>
0

>  <nBondsM>
5

>  <nBondsKS>
75

>  <nBondsKD>
5

>  <RNCG>
0.14

>  <RPCG>
0.1

>  <FCSP3>
0.76

>  <SZ>
46.33

>  <Sm>
43.18

>  <Sv>
45.22

>  <Sse>
76.58

>  <Sp>
48.27

>  <Si>
86.11

>  <MZ>
0.61

>  <Mm>
0.57

>  <Mv>
0.59

>  <Mse>
1.01

>  <Mp>
0.64

>  <Mi>
1.13

>  <NsCH3>
7

>  <NdCH2>
0

>  <NssCH2>
5

>  <NtCH>
0

>  <NdsCH>
3

>  <NaaCH>
0

>  <NsssCH>
4

>  <NddC>
0

>  <NtsC>
0

>  <NdssC>
4

>  <NaasC>
0

>  <NaaaC>
0

>  <NssssC>
6

>  <NsNH3>
0

>  <NsNH2>
0

>  <NssNH2>
0

>  <NdNH>
0

>  <NssNH>
0

>  <NaaNH>
0

>  <NtN>
0

>  <NsssNH>
0

>  <NdsN>
0

>  <NaaN>
0

>  <NsssN>
0

>  <NddsN>
0

>  <NaasN>
0

>  <NssssN>
0

>  <NsOH>
1

>  <NdO>
3

>  <NssO>
3

>  <NaaO>
0

>  <NsF>
1

>  <NsSiH3>
0

>  <NssSiH2>
0

>  <NsssSiH>
0

>  <NssssSi>
0

>  <NsPH2>
0

>  <NssPH>
0

>  <NsssP>
0

>  <NdsssP>
0

>  <NsssssP>
0

>  <NsSH>
0

>  <NdS>
0

>  <NssS>
0

>  <NaaS>
0

>  <NdssS>
0

>  <NddssS>
0

>  <NsCl>
0

>  <NsBr>
0

>  <NsI>
0

>  <fragCpx>
349.08

>  <fMF>
0.25

>  <nHBAcc>
7

>  <nHBDon>
1

>  <Kier1>
28.53

>  <Kier2>
8.75

>  <Lipinski>
0

>  <GhoseFilter>
0

>  <FilterItLogS>
-4.97

>  <VMcGowan>
386.52

>  <LabuteASA>
217.33

>  <PEOE_VSA1>
19.32

>  <PEOE_VSA2>
14.38

>  <PEOE_VSA3>
4.39

>  <PEOE_VSA4>
0

>  <PEOE_VSA5>
0

>  <PEOE_VSA6>
39.34

>  <PEOE_VSA7>
63.52

>  <PEOE_VSA8>
16.75

>  <PEOE_VSA9>
18.63

>  <PEOE_VSA10>
0

>  <PEOE_VSA11>
29.45

>  <PEOE_VSA12>
5.78

>  <PEOE_VSA13>
0

>  <SMR_VSA1>
38.09

>  <SMR_VSA2>
0

>  <SMR_VSA3>
0

>  <SMR_VSA4>
28.08

>  <SMR_VSA5>
103.41

>  <SMR_VSA6>
6.61

>  <SMR_VSA7>
23.8

>  <SMR_VSA8>
0

>  <SMR_VSA9>
0

>  <SlogP_VSA1>
0

>  <SlogP_VSA2>
58.51

>  <SlogP_VSA3>
28.59

>  <SlogP_VSA4>
28.08

>  <SlogP_VSA5>
74.15

>  <SlogP_VSA6>
23.8

>  <SlogP_VSA7>
0

>  <SlogP_VSA8>
0

>  <SlogP_VSA9>
0

>  <SlogP_VSA10>
4.39

>  <SlogP_VSA11>
0

>  <EState_VSA1>
64.37

>  <EState_VSA2>
29.96

>  <EState_VSA3>
18.41

>  <EState_VSA4>
0

>  <EState_VSA5>
12.15

>  <EState_VSA6>
26.85

>  <EState_VSA7>
27.69

>  <EState_VSA8>
0

>  <EState_VSA9>
14.21

>  <EState_VSA10>
19.49

>  <VSA_EState1>
35.28

>  <VSA_EState2>
38.55

>  <VSA_EState3>
11.5

>  <VSA_EState4>
-5.2

>  <VSA_EState5>
-3.16

>  <VSA_EState6>
0

>  <VSA_EState7>
3.2

>  <VSA_EState8>
12.34

>  <VSA_EState9>
0

>  <apol>
80.61

>  <bpol>
48.05

>  <nRing>
5

>  <nHRing>
1

>  <naRing>
0

>  <naHRing>
0

>  <nARing 2>
5

>  <nAHRing 2>
1

>  <nFRing>
1

>  <nFHRing>
1

>  <nFaRing>
0

>  <nFaHRing>
0

>  <nFARing 2>
1

>  <nFAHRing 2>
1

>  <nRot>
4

>  <SLogP>
4.02

>  <SMR>
131.93

>  <TopoPSA(NO)>
99.13

>  <TopoPSA>
99.13

>  <JGI1>
0.38

>  <JGI2>
0.13

>  <JGI3>
0.09

>  <JGI4>
0.06

>  <JGI5>
0.04

>  <Diameter>
15

>  <Radius>
8

>  <TMWC10>
162.1

>  <TSRW10>
93.45

>  <MW>
518.27

>  <AMW>
6.82

>  <WPath>
3870

>  <WPol>
81

>  <Zagreb1>
224

>  <Zagreb2>
285

>  <mZagreb2>
7.32

>  <yes>


>  <nAR-cont>
0

>  <nHA-cont>
0.433355441

>  <MWHBN>
0.351408249

>  <MWHBN-cont>
0.66497575

>  <TPSA-cont>
0.308011044

>  <pka_cont>
0.97

>  <yes.1>


>  <BBB_SCORE>
2.531841153

>  <MMFF94 Energy>
166.86

$$$$
Compound 2003
Actelion Java MolfileCreator 2.0

  0  0  0  0  0  0              0 V3000
M  V30 BEGIN CTAB
M  V30 COUNTS 37 37 0 0 0
M  V30 BEGIN ATOM
M  V30 1 O 3.3545 3.1201 -2.1052 0
M  V30 2 C 2.3961 2.5795 -1.2952 0
M  V30 3 C 2.6318 2.2216 0.0331 0
M  V30 4 C 1.1308 2.3993 -1.8299 0
M  V30 5 N 1.6564 1.7117 0.832 0
M  V30 6 C 4.0061 2.3376 0.6407 0
M  V30 7 C 0.1239 1.8764 -1.025 0
M  V30 8 C 0.413 1.5479 0.2984 0
M  V30 9 O 4.6362 3.5594 0.2413 0
M  V30 10 C -0.6484 0.9636 1.212 0 CFG=1
M  V30 11 O -1.9422 1.5455 0.9716 0
M  V30 12 C -0.7379 -0.5812 1.1104 0
M  V30 13 N -1.3953 -1.0256 -0.1285 0
M  V30 14 C -1.7636 -2.4462 -0.2115 0
M  V30 15 C -0.5778 -3.3755 0.0919 0
M  V30 16 C -2.2122 -2.6859 -1.6654 0
M  V30 17 C -2.9411 -2.7744 0.7215 0
M  V30 18 H 4.116 3.3706 -1.5397 0
M  V30 19 H 0.9274 2.6667 -2.862 0
M  V30 20 H 4.6269 1.5055 0.2944 0
M  V30 21 H 3.9636 2.3073 1.7344 0
M  V30 22 H -0.8739 1.7265 -1.4251 0
M  V30 23 H 4.2167 4.2561 0.7812 0
M  V30 24 H -0.3775 1.2287 2.2419 0
M  V30 25 H -2.5242 1.2157 1.6764 0
M  V30 26 H 0.2653 -1.0132 1.1925 0
M  V30 27 H -1.3281 -0.9196 1.9688 0
M  V30 28 H -2.2053 -0.4286 -0.3091 0
M  V30 29 H -0.2654 -3.311 1.1399 0
M  V30 30 H -0.8412 -4.422 -0.1011 0
M  V30 31 H 0.2881 -3.1337 -0.5351 0
M  V30 32 H -1.4054 -2.4643 -2.3743 0
M  V30 33 H -2.509 -3.7297 -1.8205 0
M  V30 34 H -3.0715 -2.058 -1.9305 0
M  V30 35 H -2.6651 -2.6892 1.7776 0
M  V30 36 H -3.7916 -2.1063 0.5418 0
M  V30 37 H -3.2916 -3.8008 0.5619 0
M  V30 END ATOM
M  V30 BEGIN BOND
M  V30 1 1 1 2
M  V30 2 2 2 3
M  V30 3 1 2 4
M  V30 4 1 3 5
M  V30 5 1 3 6
M  V30 6 2 4 7
M  V30 7 2 5 8
M  V30 8 1 6 9
M  V30 9 1 8 10
M  V30 10 1 10 11
M  V30 11 1 10 12
M  V30 12 1 12 13
M  V30 13 1 13 14
M  V30 14 1 14 15
M  V30 15 1 14 16
M  V30 16 1 14 17
M  V30 17 1 7 8
M  V30 18 1 1 18
M  V30 19 1 4 19
M  V30 20 1 6 20
M  V30 21 1 6 21
M  V30 22 1 7 22
M  V30 23 1 9 23
M  V30 24 1 10 24
M  V30 25 1 11 25
M  V30 26 1 12 26
M  V30 27 1 12 27
M  V30 28 1 13 28
M  V30 29 1 15 29
M  V30 30 1 15 30
M  V30 31 1 15 31
M  V30 32 1 16 32
M  V30 33 1 16 33
M  V30 34 1 16 34
M  V30 35 1 17 35
M  V30 36 1 17 36
M  V30 37 1 17 37
M  V30 END BOND
M  V30 BEGIN COLLECTION
M  V30 MDLV30/STEABS ATOMS=(1 10)
M  V30 END COLLECTION
M  V30 END CTAB
M  END
>  <Column 1>
2441

>  <level_0>
2772

>  <index>
2772

>  <Unnamed: 0>
2772

>  <NO.>
2784

>  <Name>
schembl4820

>  <IUPAC_name>
6-[(1s)-2-(tert-butylamino)-1-hydroxyethyl]-2-(hydroxymethyl)pyridin-3-ol

>  <SMILES>
CC(C)(C)NC[C@H](O)c1ccc(O)c(CO)n1

>  <CID>
45356253

>  <logBB>


>  <BBB+/BBB->
BBB-

>  <Inchi>
InChI=1S/C12H20N2O3/c1-12(2-3)13-6-11(17)8-4-5-10(16)9(7-15)14-8/h4-5-11-13-15-17H-6-7H2-1-3H3/t11-/m0/s1

>  <threshold>
-1

>  <reference>
R13|

>  <group>
B

>  <Class>
1

>  <ABC>
12.64

>  <ABCGG>
11.47

>  <nAcid>
0

>  <nBase>
1

>  <nAromAtom>
6

>  <nAromBond>
6

>  <nAtom>
37

>  <nHeavyAtom>
17

>  <nSpiro>
0

>  <nBridgehead>
0

>  <nHetero>
5

>  <nN>
2

>  <nO>
3

>  <nF>
0

>  <BalabanJ>
2.39

>  <BertzCT>
374.5

>  <nBonds>
37

>  <nBondsO>
17

>  <nBondsS>
31

>  <nBondsD>
0

>  <nBondsT>
0

>  <nBondsA>
6

>  <nBondsM>
6

>  <nBondsKS>
34

>  <nBondsKD>
3

>  <RNCG>
0.25

>  <RPCG>
0.14

>  <FCSP3>
0.58

>  <SZ>
21.67

>  <Sm>
20.01

>  <Sv>
21.08

>  <Sse>
37.2

>  <Sp>
22.74

>  <Si>
42.36

>  <MZ>
0.59

>  <Mm>
0.54

>  <Mv>
0.57

>  <Mse>
1.01

>  <Mp>
0.61

>  <Mi>
1.14

>  <NsCH3>
3

>  <NdCH2>
0

>  <NssCH2>
2

>  <NtCH>
0

>  <NdsCH>
0

>  <NaaCH>
2

>  <NsssCH>
1

>  <NddC>
0

>  <NtsC>
0

>  <NdssC>
0

>  <NaasC>
3

>  <NaaaC>
0

>  <NssssC>
1

>  <NsNH3>
0

>  <NsNH2>
0

>  <NssNH2>
0

>  <NdNH>
0

>  <NssNH>
1

>  <NaaNH>
0

>  <NtN>
0

>  <NsssNH>
0

>  <NdsN>
0

>  <NaaN>
1

>  <NsssN>
0

>  <NddsN>
0

>  <NaasN>
0

>  <NssssN>
0

>  <NsOH>
3

>  <NdO>
0

>  <NssO>
0

>  <NaaO>
0

>  <NsF>
0

>  <NsSiH3>
0

>  <NssSiH2>
0

>  <NsssSiH>
0

>  <NssssSi>
0

>  <NsPH2>
0

>  <NssPH>
0

>  <NsssP>
0

>  <NdsssP>
0

>  <NsssssP>
0

>  <NsSH>
0

>  <NdS>
0

>  <NssS>
0

>  <NaaS>
0

>  <NdssS>
0

>  <NddssS>
0

>  <NsCl>
0

>  <NsBr>
0

>  <NsI>
0

>  <fragCpx>
17.05

>  <fMF>
0.16

>  <nHBAcc>
5

>  <nHBDon>
4

>  <Kier1>
15.06

>  <Kier2>
6.25

>  <Lipinski>
1

>  <GhoseFilter>
1

>  <FilterItLogS>
-2.12

>  <VMcGowan>
193.75

>  <LabuteASA>
101.14

>  <PEOE_VSA1>
20.64

>  <PEOE_VSA2>
0

>  <PEOE_VSA3>
4.98

>  <PEOE_VSA4>
0

>  <PEOE_VSA5>
0

>  <PEOE_VSA6>
0

>  <PEOE_VSA7>
32.9

>  <PEOE_VSA8>
12.08

>  <PEOE_VSA9>
12.3

>  <PEOE_VSA10>
17.55

>  <PEOE_VSA11>
0

>  <PEOE_VSA12>
0

>  <PEOE_VSA13>
0

>  <SMR_VSA1>
15.32

>  <SMR_VSA2>
0

>  <SMR_VSA3>
10.3

>  <SMR_VSA4>
0

>  <SMR_VSA5>
39.02

>  <SMR_VSA6>
6.54

>  <SMR_VSA7>
23.52

>  <SMR_VSA8>
0

>  <SMR_VSA9>
5.75

>  <SlogP_VSA1>
5.32

>  <SlogP_VSA2>
32.39

>  <SlogP_VSA3>
6.61

>  <SlogP_VSA4>
0

>  <SlogP_VSA5>
38.26

>  <SlogP_VSA6>
12.13

>  <SlogP_VSA7>
0

>  <SlogP_VSA8>
0

>  <SlogP_VSA9>
0

>  <SlogP_VSA10>
0

>  <SlogP_VSA11>
5.75

>  <EState_VSA1>
6.1

>  <EState_VSA2>
23.59

>  <EState_VSA3>
12.24

>  <EState_VSA4>
0

>  <EState_VSA5>
6.07

>  <EState_VSA6>
6.07

>  <EState_VSA7>
20.77

>  <EState_VSA8>
10.3

>  <EState_VSA9>
5.11

>  <EState_VSA10>
10.21

>  <VSA_EState1>
0

>  <VSA_EState2>
4

>  <VSA_EState3>
31.38

>  <VSA_EState4>
0.53

>  <VSA_EState5>
-0.06

>  <VSA_EState6>
2.97

>  <VSA_EState7>
-0.76

>  <VSA_EState8>
6.03

>  <VSA_EState9>
0

>  <apol>
37.98

>  <bpol>
21.77

>  <nRing>
1

>  <nHRing>
1

>  <naRing>
1

>  <naHRing>
1

>  <nARing 2>
0

>  <nAHRing 2>
0

>  <nFRing>
0

>  <nFHRing>
0

>  <nFaRing>
0

>  <nFaHRing>
0

>  <nFARing 2>
0

>  <nFAHRing 2>
0

>  <nRot>
4

>  <SLogP>
0.7

>  <SMR>
64.54

>  <TopoPSA(NO)>
85.61

>  <TopoPSA>
85.61

>  <JGI1>
0.32

>  <JGI2>
0.1

>  <JGI3>
0.05

>  <JGI4>
0.06

>  <JGI5>
0.04

>  <Diameter>
9

>  <Radius>
5

>  <TMWC10>
103.52

>  <TSRW10>
49.24

>  <MW>
240.15

>  <AMW>
6.49

>  <WPath>
560

>  <WPol>
22

>  <Zagreb1>
82

>  <Zagreb2>
90

>  <mZagreb2>
3.76

>  <yes>


>  <nAR-cont>
0.336376

>  <nHA-cont>
0.976740822

>  <MWHBN>
0.580766041

>  <MWHBN-cont>
0

>  <TPSA-cont>
0.402389039

>  <pka_cont>
0.97

>  <yes.1>


>  <BBB_SCORE>
2.602894901

>  <MMFF94 Energy>
95.471

$$$$
Compound 2004
Actelion Java MolfileCreator 2.0

  0  0  0  0  0  0              0 V3000
M  V30 BEGIN CTAB
M  V30 COUNTS 15 14 0 0 0
M  V30 BEGIN ATOM
M  V30 1 Cl 2.214 -1.2769 -1.1065 0
M  V30 2 C 1.4155 0.2132 -0.462 0
M  V30 3 Cl 2.2749 0.6838 1.0441 0
M  V30 4 Cl 1.6972 1.5082 -1.6834 0
M  V30 5 C -0.1217 -0.0498 -0.2265 0
M  V30 6 O -0.7774 -0.4717 -1.447 0
M  V30 7 C -0.8721 1.2124 0.2317 0
M  V30 8 C -0.3874 -1.1636 0.8038 0
M  V30 9 H -0.3025 -1.2495 -1.7956 0
M  V30 10 H -1.9386 0.997 0.3715 0
M  V30 11 H -0.4831 1.6068 1.175 0
M  V30 12 H -0.8308 2.004 -0.5233 0
M  V30 13 H -1.4647 -1.3443 0.9042 0
M  V30 14 H 0.0416 -2.1198 0.4878 0
M  V30 15 H 0.0039 -0.9153 1.7947 0
M  V30 END ATOM
M  V30 BEGIN BOND
M  V30 1 1 1 2
M  V30 2 1 2 3
M  V30 3 1 2 4
M  V30 4 1 2 5
M  V30 5 1 5 6
M  V30 6 1 5 7
M  V30 7 1 5 8
M  V30 8 1 6 9
M  V30 9 1 7 10
M  V30 10 1 7 11
M  V30 11 1 7 12
M  V30 12 1 8 13
M  V30 13 1 8 14
M  V30 14 1 8 15
M  V30 END BOND
M  V30 END CTAB
M  END
>  <Column 1>
2442

>  <level_0>
2781

>  <index>
2781

>  <Unnamed: 0>
2781

>  <NO.>
2793

>  <Name>
chlorobutanol

>  <IUPAC_name>
1-1-1-trichloro-2-methylpropan-2-ol

>  <SMILES>
CC(C)(O)C(Cl)(Cl)Cl

>  <CID>
5977

>  <logBB>


>  <BBB+/BBB->
BBB+

>  <Inchi>
InChI=1S/C4H7Cl3O/c1-3(2-8)4(5-6)7/h8H-1-2H3

>  <threshold>
-1

>  <reference>
R13|R19|R6|R24|R27|R27|R30|

>  <group>
B

>  <Class>
1

>  <ABC>
5.81

>  <ABCGG>
6.17

>  <nAcid>
0

>  <nBase>
0

>  <nAromAtom>
0

>  <nAromBond>
0

>  <nAtom>
15

>  <nHeavyAtom>
8

>  <nSpiro>
0

>  <nBridgehead>
0

>  <nHetero>
4

>  <nN>
0

>  <nO>
1

>  <nF>
0

>  <BalabanJ>
4.02

>  <BertzCT>
66.26

>  <nBonds>
14

>  <nBondsO>
7

>  <nBondsS>
14

>  <nBondsD>
0

>  <nBondsT>
0

>  <nBondsA>
0

>  <nBondsM>
0

>  <nBondsKS>
14

>  <nBondsKD>
0

>  <RNCG>
0.56

>  <RPCG>
0.31

>  <FCSP3>
1

>  <SZ>
15

>  <Sm>
14.77

>  <Sv>
9.88

>  <Sse>
15.73

>  <Sp>
11.19

>  <Si>
17.12

>  <MZ>
1

>  <Mm>
0.98

>  <Mv>
0.66

>  <Mse>
1.05

>  <Mp>
0.75

>  <Mi>
1.14

>  <NsCH3>
2

>  <NdCH2>
0

>  <NssCH2>
0

>  <NtCH>
0

>  <NdsCH>
0

>  <NaaCH>
0

>  <NsssCH>
0

>  <NddC>
0

>  <NtsC>
0

>  <NdssC>
0

>  <NaasC>
0

>  <NaaaC>
0

>  <NssssC>
2

>  <NsNH3>
0

>  <NsNH2>
0

>  <NssNH2>
0

>  <NdNH>
0

>  <NssNH>
0

>  <NaaNH>
0

>  <NtN>
0

>  <NsssNH>
0

>  <NdsN>
0

>  <NaaN>
0

>  <NsssN>
0

>  <NddsN>
0

>  <NaasN>
0

>  <NssssN>
0

>  <NsOH>
1

>  <NdO>
0

>  <NssO>
0

>  <NaaO>
0

>  <NsF>
0

>  <NsSiH3>
0

>  <NssSiH2>
0

>  <NsssSiH>
0

>  <NssssSi>
0

>  <NsPH2>
0

>  <NssPH>
0

>  <NsssP>
0

>  <NdsssP>
0

>  <NsssssP>
0

>  <NsSH>
0

>  <NdS>
0

>  <NssS>
0

>  <NaaS>
0

>  <NdssS>
0

>  <NddssS>
0

>  <NsCl>
3

>  <NsBr>
0

>  <NsI>
0

>  <fragCpx>
7.04

>  <fMF>
0

>  <nHBAcc>
1

>  <nHBDon>
1

>  <Kier1>
8

>  <Kier2>
1.75

>  <Lipinski>
1

>  <GhoseFilter>
0

>  <FilterItLogS>
-2.02

>  <VMcGowan>
109.81

>  <LabuteASA>
63.54

>  <PEOE_VSA1>
5.11

>  <PEOE_VSA2>
0

>  <PEOE_VSA3>
0

>  <PEOE_VSA4>
0

>  <PEOE_VSA5>
0

>  <PEOE_VSA6>
34.8

>  <PEOE_VSA7>
13.85

>  <PEOE_VSA8>
0

>  <PEOE_VSA9>
0

>  <PEOE_VSA10>
5.6

>  <PEOE_VSA11>
0

>  <PEOE_VSA12>
3.79

>  <PEOE_VSA13>
0

>  <SMR_VSA1>
5.11

>  <SMR_VSA2>
0

>  <SMR_VSA3>
0

>  <SMR_VSA4>
0

>  <SMR_VSA5>
23.24

>  <SMR_VSA6>
0

>  <SMR_VSA7>
0

>  <SMR_VSA8>
0

>  <SMR_VSA9>
0

>  <SlogP_VSA1>
0

>  <SlogP_VSA2>
14.5

>  <SlogP_VSA3>
0

>  <SlogP_VSA4>
0

>  <SlogP_VSA5>
13.85

>  <SlogP_VSA6>
0

>  <SlogP_VSA7>
0

>  <SlogP_VSA8>
0

>  <SlogP_VSA9>
0

>  <SlogP_VSA10>
0

>  <SlogP_VSA11>
0

>  <EState_VSA1>
9.39

>  <EState_VSA2>
0

>  <EState_VSA3>
0

>  <EState_VSA4>
0

>  <EState_VSA5>
13.85

>  <EState_VSA6>
0

>  <EState_VSA7>
0

>  <EState_VSA8>
0

>  <EState_VSA9>
39.91

>  <EState_VSA10>
0

>  <VSA_EState1>
-1.59

>  <VSA_EState2>
0

>  <VSA_EState3>
8.96

>  <VSA_EState4>
-1.27

>  <VSA_EState5>
0

>  <VSA_EState6>
0

>  <VSA_EState7>
0

>  <VSA_EState8>
2.86

>  <VSA_EState9>
0

>  <apol>
18.69

>  <bpol>
8.55

>  <nRing>
0

>  <nHRing>
0

>  <naRing>
0

>  <naHRing>
0

>  <nARing 2>
0

>  <nAHRing 2>
0

>  <nFRing>
0

>  <nFHRing>
0

>  <nFaRing>
0

>  <nFaHRing>
0

>  <nFARing 2>
0

>  <nFAHRing 2>
0

>  <nRot>
0

>  <SLogP>
2.13

>  <SMR>
36.59

>  <TopoPSA(NO)>
20.23

>  <TopoPSA>
20.23

>  <JGI1>
0.64

>  <JGI2>
0.17

>  <JGI3>
0

>  <JGI4>
0

>  <JGI5>
0

>  <Diameter>
3

>  <Radius>
2

>  <TMWC10>
77.34

>  <TSRW10>
37

>  <MW>
175.96

>  <AMW>
11.73

>  <WPath>
58

>  <WPol>
9

>  <Zagreb1>
38

>  <Zagreb2>
40

>  <mZagreb2>
1.56

>  <yes>


>  <nAR-cont>
0.336376

>  <nHA-cont>
0.464727961

>  <MWHBN>
0.150772807

>  <MWHBN-cont>
0.934505085

>  <TPSA-cont>
0.858782038

>  <pka_cont>
0.97

>  <yes.1>


>  <BBB_SCORE>
4.405425665

>  <MMFF94 Energy>
55.5

$$$$
Compound 2005
Actelion Java MolfileCreator 2.0

  0  0  0  0  0  0              0 V3000
M  V30 BEGIN CTAB
M  V30 COUNTS 15 14 0 0 0
M  V30 BEGIN ATOM
M  V30 1 F -1.893 1.3406 0.1576 0
M  V30 2 C -1.0638 0.4916 0.8135 0
M  V30 3 F -0.4373 1.1982 1.7801 0
M  V30 4 F -1.8379 -0.4363 1.418 0
M  V30 5 C -0.0624 -0.146 -0.1729 0
M  V30 6 O -0.7277 -0.8553 -1.2409 0
M  V30 7 C 0.8247 -1.1572 0.5523 0
M  V30 8 C 0.7991 0.9384 -0.8242 0
M  V30 9 H -1.4278 -0.2729 -1.5919 0
M  V30 10 H 1.5312 -1.6267 -0.1417 0
M  V30 11 H 1.3938 -0.6896 1.3624 0
M  V30 12 H 0.2223 -1.9693 0.9751 0
M  V30 13 H 0.1774 1.6444 -1.3866 0
M  V30 14 H 1.3747 1.4998 -0.081 0
M  V30 15 H 1.4985 0.5006 -1.5457 0
M  V30 END ATOM
M  V30 BEGIN BOND
M  V30 1 1 1 2
M  V30 2 1 2 3
M  V30 3 1 2 4
M  V30 4 1 2 5
M  V30 5 1 5 6
M  V30 6 1 5 7
M  V30 7 1 5 8
M  V30 8 1 6 9
M  V30 9 1 7 10
M  V30 10 1 7 11
M  V30 11 1 7 12
M  V30 12 1 8 13
M  V30 13 1 8 14
M  V30 14 1 8 15
M  V30 END BOND
M  V30 END CTAB
M  END
>  <Column 1>
2443

>  <level_0>
2782

>  <index>
2782

>  <Unnamed: 0>
2782

>  <NO.>
2794

>  <Name>
2-methylpropanol

>  <IUPAC_name>
1-1-1-trifluoro-2-methylpropan-2-ol

>  <SMILES>
CC(C)(O)C(F)(F)F

>  <CID>
68182

>  <logBB>


>  <BBB+/BBB->
BBB+

>  <Inchi>
InChI=1S/C4H7F3O/c1-3(2-8)4(5-6)7/h8H-1-2H3

>  <threshold>
-1

>  <reference>
R13|R19|R27|

>  <group>
B

>  <Class>
-1

>  <ABC>
5.81

>  <ABCGG>
6.17

>  <nAcid>
0

>  <nBase>
0

>  <nAromAtom>
0

>  <nAromBond>
0

>  <nAtom>
15

>  <nHeavyAtom>
8

>  <nSpiro>
0

>  <nBridgehead>
0

>  <nHetero>
4

>  <nN>
0

>  <nO>
1

>  <nF>
3

>  <BalabanJ>
4.02

>  <BertzCT>
66.26

>  <nBonds>
14

>  <nBondsO>
7

>  <nBondsS>
14

>  <nBondsD>
0

>  <nBondsT>
0

>  <nBondsA>
0

>  <nBondsM>
0

>  <nBondsKS>
14

>  <nBondsKD>
0

>  <RNCG>
0.41

>  <RPCG>
0.44

>  <FCSP3>
1

>  <SZ>
11

>  <Sm>
10.66

>  <Sv>
8.55

>  <Sse>
16.31

>  <Sp>
8.28

>  <Si>
18.3

>  <MZ>
0.73

>  <Mm>
0.71

>  <Mv>
0.57

>  <Mse>
1.09

>  <Mp>
0.55

>  <Mi>
1.22

>  <NsCH3>
2

>  <NdCH2>
0

>  <NssCH2>
0

>  <NtCH>
0

>  <NdsCH>
0

>  <NaaCH>
0

>  <NsssCH>
0

>  <NddC>
0

>  <NtsC>
0

>  <NdssC>
0

>  <NaasC>
0

>  <NaaaC>
0

>  <NssssC>
2

>  <NsNH3>
0

>  <NsNH2>
0

>  <NssNH2>
0

>  <NdNH>
0

>  <NssNH>
0

>  <NaaNH>
0

>  <NtN>
0

>  <NsssNH>
0

>  <NdsN>
0

>  <NaaN>
0

>  <NsssN>
0

>  <NddsN>
0

>  <NaasN>
0

>  <NssssN>
0

>  <NsOH>
1

>  <NdO>
0

>  <NssO>
0

>  <NaaO>
0

>  <NsF>
3

>  <NsSiH3>
0

>  <NssSiH2>
0

>  <NsssSiH>
0

>  <NssssSi>
0

>  <NsPH2>
0

>  <NssPH>
0

>  <NsssP>
0

>  <NdsssP>
0

>  <NsssssP>
0

>  <NsSH>
0

>  <NdS>
0

>  <NssS>
0

>  <NaaS>
0

>  <NdssS>
0

>  <NddssS>
0

>  <NsCl>
0

>  <NsBr>
0

>  <NsI>
0

>  <fragCpx>
7.04

>  <fMF>
0

>  <nHBAcc>
1

>  <nHBDon>
1

>  <Kier1>
8

>  <Kier2>
1.75

>  <Lipinski>
1

>  <GhoseFilter>
0

>  <FilterItLogS>
-0.97

>  <VMcGowan>
78.37

>  <LabuteASA>
45.12

>  <PEOE_VSA1>
5.11

>  <PEOE_VSA2>
0

>  <PEOE_VSA3>
0

>  <PEOE_VSA4>
13.17

>  <PEOE_VSA5>
0

>  <PEOE_VSA6>
0

>  <PEOE_VSA7>
13.85

>  <PEOE_VSA8>
0

>  <PEOE_VSA9>
0

>  <PEOE_VSA10>
0

>  <PEOE_VSA11>
5.6

>  <PEOE_VSA12>
0

>  <PEOE_VSA13>
0

>  <SMR_VSA1>
18.28

>  <SMR_VSA2>
0

>  <SMR_VSA3>
0

>  <SMR_VSA4>
0

>  <SMR_VSA5>
25.62

>  <SMR_VSA6>
0

>  <SMR_VSA7>
0

>  <SMR_VSA8>
0

>  <SMR_VSA9>
0

>  <SlogP_VSA1>
0

>  <SlogP_VSA2>
16.88

>  <SlogP_VSA3>
0

>  <SlogP_VSA4>
0

>  <SlogP_VSA5>
13.85

>  <SlogP_VSA6>
0

>  <SlogP_VSA7>
0

>  <SlogP_VSA8>
0

>  <SlogP_VSA9>
0

>  <SlogP_VSA10>
13.17

>  <SlogP_VSA11>
0

>  <EState_VSA1>
11.78

>  <EState_VSA2>
0

>  <EState_VSA3>
13.85

>  <EState_VSA4>
0

>  <EState_VSA5>
0

>  <EState_VSA6>
0

>  <EState_VSA7>
0

>  <EState_VSA8>
0

>  <EState_VSA9>
5.11

>  <EState_VSA10>
13.17

>  <VSA_EState1>
33.94

>  <VSA_EState2>
0

>  <VSA_EState3>
8.23

>  <VSA_EState4>
-2.56

>  <VSA_EState5>
0

>  <VSA_EState6>
0

>  <VSA_EState7>
-4.51

>  <VSA_EState8>
1.4

>  <VSA_EState9>
0

>  <apol>
13.82

>  <bpol>
10.36

>  <nRing>
0

>  <nHRing>
0

>  <naRing>
0

>  <naHRing>
0

>  <nARing 2>
0

>  <nAHRing 2>
0

>  <nFRing>
0

>  <nFHRing>
0

>  <nFaRing>
0

>  <nFaHRing>
0

>  <nFARing 2>
0

>  <nFAHRing 2>
0

>  <nRot>
0

>  <SLogP>
1.32

>  <SMR>
22.35

>  <TopoPSA(NO)>
20.23

>  <TopoPSA>
20.23

>  <JGI1>
0.64

>  <JGI2>
0.17

>  <JGI3>
0

>  <JGI4>
0

>  <JGI5>
0

>  <Diameter>
3

>  <Radius>
2

>  <TMWC10>
77.34

>  <TSRW10>
37

>  <MW>
128.04

>  <AMW>
8.54

>  <WPath>
58

>  <WPol>
9

>  <Zagreb1>
38

>  <Zagreb2>
40

>  <mZagreb2>
1.56

>  <yes>


>  <nAR-cont>
0.336376

>  <nHA-cont>
0.464727961

>  <MWHBN>
0.17674908

>  <MWHBN-cont>
0.983401804

>  <TPSA-cont>
0.858782038

>  <pka_cont>
0.97

>  <yes.1>


>  <BBB_SCORE>
4.478770743

>  <MMFF94 Energy>
61.82

$$$$
Compound 2006
Actelion Java MolfileCreator 2.0

  0  0  0  0  0  0              0 V3000
M  V30 BEGIN CTAB
M  V30 COUNTS 37 38 0 0 0
M  V30 BEGIN ATOM
M  V30 1 F -4.0096 0.8009 3.2067 0
M  V30 2 C -3.9824 -0.558 3.309 0
M  V30 3 F -5.1804 -0.9922 2.8297 0
M  V30 4 F -3.994 -0.8272 4.645 0
M  V30 5 C -2.8129 -1.1799 2.5871 0
M  V30 6 C -2.3067 -0.5945 1.4136 0
M  V30 7 C -2.237 -2.3696 3.055 0
M  V30 8 C -1.2345 -1.1753 0.716 0
M  V30 9 C -1.1692 -2.9527 2.3744 0
M  V30 10 C -0.6699 -2.3577 1.2158 0
M  V30 11 C -0.6861 -0.5027 -0.5299 0 CFG=2
M  V30 12 O -0.2687 -1.5106 -1.4705 0
M  V30 13 C 0.4968 0.4372 -0.1766 0
M  V30 14 C 0.2453 -0.8958 -2.6585 0
M  V30 15 N 1.0678 1.0715 -1.3876 0
M  V30 16 C 1.4455 0.0137 -2.3448 0
M  V30 17 C 2.1363 2.0366 -1.0676 0
M  V30 18 C 3.4685 1.4325 -0.6081 0
M  V30 19 C 2.3725 2.9768 -2.2568 0
M  V30 20 H -2.7567 0.3259 1.0406 0
M  V30 21 H -2.6201 -2.8483 3.9551 0
M  V30 22 H -0.7265 -3.8752 2.7424 0
M  V30 23 H 0.161 -2.8275 0.6923 0
M  V30 24 H -1.4952 0.072 -1.0015 0
M  V30 25 H 1.2724 -0.1385 0.3443 0
M  V30 26 H 0.1407 1.2123 0.5135 0
M  V30 27 H -0.5575 -0.339 -3.1568 0
M  V30 28 H 0.5589 -1.6985 -3.3336 0
M  V30 29 H 1.7988 0.4479 -3.2852 0
M  V30 30 H 2.2484 -0.6076 -1.9303 0
M  V30 31 H 1.7703 2.6778 -0.2541 0
M  V30 32 H 3.3395 0.7792 0.2598 0
M  V30 33 H 4.1617 2.2283 -0.3122 0
M  V30 34 H 3.9546 0.8582 -1.4034 0
M  V30 35 H 3.041 3.7957 -1.9683 0
M  V30 36 H 2.8315 2.4616 -3.1067 0
M  V30 37 H 1.4321 3.4262 -2.595 0
M  V30 END ATOM
M  V30 BEGIN BOND
M  V30 1 1 1 2
M  V30 2 1 2 3
M  V30 3 1 2 4
M  V30 4 1 2 5
M  V30 5 2 5 6
M  V30 6 1 5 7
M  V30 7 1 6 8
M  V30 8 2 7 9
M  V30 9 2 8 10
M  V30 10 1 8 11
M  V30 11 1 11 12
M  V30 12 1 11 13
M  V30 13 1 12 14
M  V30 14 1 13 15
M  V30 15 1 14 16
M  V30 16 1 15 17
M  V30 17 1 17 18
M  V30 18 1 17 19
M  V30 19 1 9 10
M  V30 20 1 15 16
M  V30 21 1 6 20
M  V30 22 1 7 21
M  V30 23 1 9 22
M  V30 24 1 10 23
M  V30 25 1 11 24
M  V30 26 1 13 25
M  V30 27 1 13 26
M  V30 28 1 14 27
M  V30 29 1 14 28
M  V30 30 1 16 29
M  V30 31 1 16 30
M  V30 32 1 17 31
M  V30 33 1 18 32
M  V30 34 1 18 33
M  V30 35 1 18 34
M  V30 36 1 19 35
M  V30 37 1 19 36
M  V30 38 1 19 37
M  V30 END BOND
M  V30 BEGIN COLLECTION
M  V30 MDLV30/STEABS ATOMS=(1 11)
M  V30 END COLLECTION
M  V30 END CTAB
M  END
>  <Column 1>
2445

>  <level_0>
2804

>  <index>
2804

>  <Unnamed: 0>
2804

>  <NO.>
2816

>  <Name>
(s)-oxaflozane

>  <IUPAC_name>
(2s)-4-propan-2-yl-2-[3-(trifluoromethyl)phenyl]morpholine

>  <SMILES>
CC(C)N1CCO[C@@H](c2cccc(C(F)(F)F)c2)C1

>  <CID>
72710768

>  <logBB>


>  <BBB+/BBB->
BBB+

>  <Inchi>
InChI=1S/C14H18F3NO/c1-10(2)18-6-7-19-13(9-18)11-4-3-5-12(8-11)14(15-16)17/h3-5-8-10-13H-6-7-9H2-1-2H3/t13-/m1/s1

>  <threshold>
-1

>  <reference>
R13|

>  <group>
B

>  <Class>
1

>  <ABC>
14.7

>  <ABCGG>
12.47

>  <nAcid>
0

>  <nBase>
1

>  <nAromAtom>
6

>  <nAromBond>
6

>  <nAtom>
37

>  <nHeavyAtom>
19

>  <nSpiro>
0

>  <nBridgehead>
0

>  <nHetero>
5

>  <nN>
1

>  <nO>
1

>  <nF>
3

>  <BalabanJ>
1.93

>  <BertzCT>
430.94

>  <nBonds>
38

>  <nBondsO>
20

>  <nBondsS>
32

>  <nBondsD>
0

>  <nBondsT>
0

>  <nBondsA>
6

>  <nBondsM>
6

>  <nBondsKS>
35

>  <nBondsKD>
3

>  <RNCG>
0.25

>  <RPCG>
0.28

>  <FCSP3>
0.57

>  <SZ>
24

>  <Sm>
22.75

>  <Sv>
22.29

>  <Sse>
37.85

>  <Sp>
23.33

>  <Si>
42.88

>  <MZ>
0.65

>  <Mm>
0.61

>  <Mv>
0.6

>  <Mse>
1.02

>  <Mp>
0.63

>  <Mi>
1.16

>  <NsCH3>
2

>  <NdCH2>
0

>  <NssCH2>
3

>  <NtCH>
0

>  <NdsCH>
0

>  <NaaCH>
4

>  <NsssCH>
2

>  <NddC>
0

>  <NtsC>
0

>  <NdssC>
0

>  <NaasC>
2

>  <NaaaC>
0

>  <NssssC>
1

>  <NsNH3>
0

>  <NsNH2>
0

>  <NssNH2>
0

>  <NdNH>
0

>  <NssNH>
0

>  <NaaNH>
0

>  <NtN>
0

>  <NsssNH>
0

>  <NdsN>
0

>  <NaaN>
0

>  <NsssN>
1

>  <NddsN>
0

>  <NaasN>
0

>  <NssssN>
0

>  <NsOH>
0

>  <NdO>
0

>  <NssO>
1

>  <NaaO>
0

>  <NsF>
3

>  <NsSiH3>
0

>  <NssSiH2>
0

>  <NsssSiH>
0

>  <NssssSi>
0

>  <NsPH2>
0

>  <NssPH>
0

>  <NsssP>
0

>  <NdsssP>
0

>  <NsssssP>
0

>  <NsSH>
0

>  <NdS>
0

>  <NssS>
0

>  <NaaS>
0

>  <NdssS>
0

>  <NddssS>
0

>  <NsCl>
0

>  <NsBr>
0

>  <NsI>
0

>  <fragCpx>
58.05

>  <fMF>
0.32

>  <nHBAcc>
2

>  <nHBDon>
0

>  <Kier1>
15.39

>  <Kier2>
6.19

>  <Lipinski>
1

>  <GhoseFilter>
1

>  <FilterItLogS>
-3.46

>  <VMcGowan>
194.63

>  <LabuteASA>
110.72

>  <PEOE_VSA1>
4.74

>  <PEOE_VSA2>
4.9

>  <PEOE_VSA3>
0

>  <PEOE_VSA4>
13.17

>  <PEOE_VSA5>
0

>  <PEOE_VSA6>
12.13

>  <PEOE_VSA7>
31.54

>  <PEOE_VSA8>
19.13

>  <PEOE_VSA9>
18.27

>  <PEOE_VSA10>
0

>  <PEOE_VSA11>
0

>  <PEOE_VSA12>
0

>  <PEOE_VSA13>
0

>  <SMR_VSA1>
17.91

>  <SMR_VSA2>
0

>  <SMR_VSA3>
4.9

>  <SMR_VSA4>
0

>  <SMR_VSA5>
32.17

>  <SMR_VSA6>
19.7

>  <SMR_VSA7>
35.39

>  <SMR_VSA8>
0

>  <SMR_VSA9>
0

>  <SlogP_VSA1>
0

>  <SlogP_VSA2>
30.64

>  <SlogP_VSA3>
10.91

>  <SlogP_VSA4>
0

>  <SlogP_VSA5>
31.08

>  <SlogP_VSA6>
24.27

>  <SlogP_VSA7>
0

>  <SlogP_VSA8>
0

>  <SlogP_VSA9>
0

>  <SlogP_VSA10>
13.17

>  <SlogP_VSA11>
0

>  <EState_VSA1>
11.74

>  <EState_VSA2>
6.1

>  <EState_VSA3>
24.76

>  <EState_VSA4>
12.61

>  <EState_VSA5>
12.13

>  <EState_VSA6>
6.07

>  <EState_VSA7>
0

>  <EState_VSA8>
18.75

>  <EState_VSA9>
4.74

>  <EState_VSA10>
13.17

>  <VSA_EState1>
43.67

>  <VSA_EState2>
2.22

>  <VSA_EState3>
0

>  <VSA_EState4>
-0.02

>  <VSA_EState5>
0

>  <VSA_EState6>
5.79

>  <VSA_EState7>
-4.58

>  <VSA_EState8>
6.17

>  <VSA_EState9>
0

>  <apol>
38.96

>  <bpol>
24.84

>  <nRing>
2

>  <nHRing>
1

>  <naRing>
1

>  <naHRing>
0

>  <nARing 2>
1

>  <nAHRing 2>
1

>  <nFRing>
0

>  <nFHRing>
0

>  <nFaRing>
0

>  <nFaHRing>
0

>  <nFARing 2>
0

>  <nFAHRing 2>
0

>  <nRot>
2

>  <SLogP>
3.49

>  <SMR>
66.85

>  <TopoPSA(NO)>
12.47

>  <TopoPSA>
12.47

>  <JGI1>
0.28

>  <JGI2>
0.09

>  <JGI3>
0.04

>  <JGI4>
0.04

>  <JGI5>
0.04

>  <Diameter>
9

>  <Radius>
5

>  <TMWC10>
111.22

>  <TSRW10>
52.39

>  <MW>
273.13

>  <AMW>
7.38

>  <WPath>
708

>  <WPol>
28

>  <Zagreb1>
98

>  <Zagreb2>
112

>  <mZagreb2>
4.06

>  <yes>


>  <nAR-cont>
0.816016

>  <nHA-cont>
0.998649058

>  <MWHBN>
0.121016696

>  <MWHBN-cont>
0.833729609

>  <TPSA-cont>
0.912951657

>  <pka_cont>
0.97

>  <yes.1>


>  <BBB_SCORE>
5.376162784

>  <MMFF94 Energy>
121.24

$$$$
Compound 2007
Actelion Java MolfileCreator 2.0

  0  0  0  0  0  0              0 V3000
M  V30 BEGIN CTAB
M  V30 COUNTS 46 48 0 0 0
M  V30 BEGIN ATOM
M  V30 1 O 1.7432 1.8225 0.6336 0
M  V30 2 C 0.8818 2.5344 1.1329 0
M  V30 3 N 1.0674 3.7463 1.7554 0
M  V30 4 N -0.4378 2.1627 1.1367 0
M  V30 5 C 2.2764 4.4553 1.904 0
M  V30 6 C -0.854 0.9284 0.5267 0
M  V30 7 C 3.4475 4.1456 1.21 0
M  V30 8 C 2.2784 5.5465 2.7829 0
M  V30 9 O -2.2841 0.8833 0.5813 0 CHG=1 RAD=2
M  V30 10 C -0.4318 -0.3245 1.279 0
M  V30 11 C 4.6058 4.906 1.4007 0
M  V30 12 C 3.4358 6.3061 2.9733 0
M  V30 13 N -2.6384 -0.5342 0.7022 0
M  V30 14 N -1.4362 -1.339 0.9152 0
M  V30 15 C 4.6007 5.9844 2.2823 0
M  V30 16 C -1.1352 -2.0818 -0.3446 0
M  V30 17 C -2.2821 -3.0913 -0.6559 0
M  V30 18 C 0.1889 -2.8604 -0.2184 0
M  V30 19 C -2.1797 -3.7475 -2.0169 0
M  V30 20 C -2.3851 -2.9969 -3.1829 0
M  V30 21 C -1.8878 -5.1134 -2.131 0
M  V30 22 C -2.2896 -3.5988 -4.4383 0
M  V30 23 C -1.7924 -5.7134 -3.3876 0
M  V30 24 C -1.9919 -4.9562 -4.5404 0
M  V30 25 H 0.2609 4.1419 2.2123 0
M  V30 26 H -1.162 2.7895 1.4417 0
M  V30 27 H -0.5372 0.9134 -0.5229 0
M  V30 28 H 3.4903 3.3206 0.5056 0
M  V30 29 H 1.3835 5.8181 3.3363 0
M  V30 30 H 0.6101 -0.5981 1.1031 0
M  V30 31 H -0.518 -0.1547 2.3613 0
M  V30 32 H 5.5114 4.6521 0.8556 0
M  V30 33 H 3.4275 7.1476 3.6612 0
M  V30 34 H -3.2035 -0.5252 1.559 0
M  V30 35 H 5.503 6.5724 2.4281 0
M  V30 36 H -1.0346 -1.3778 -1.1816 0
M  V30 37 H -3.2623 -2.5982 -0.6269 0
M  V30 38 H -2.318 -3.8604 0.1275 0
M  V30 39 H 0.3762 -3.4779 -1.1024 0
M  V30 40 H 0.179 -3.5214 0.6554 0
M  V30 41 H 1.0523 -2.1948 -0.1342 0
M  V30 42 H -2.6262 -1.9379 -3.1174 0
M  V30 43 H -1.7294 -5.7181 -1.2411 0
M  V30 44 H -2.4504 -3.0084 -5.3364 0
M  V30 45 H -1.563 -6.7727 -3.4664 0
M  V30 46 H -1.9184 -5.4247 -5.5181 0
M  V30 END ATOM
M  V30 BEGIN BOND
M  V30 1 2 1 2
M  V30 2 1 2 3
M  V30 3 1 2 4
M  V30 4 1 3 5
M  V30 5 1 4 6
M  V30 6 2 5 7
M  V30 7 1 5 8
M  V30 8 1 6 9
M  V30 9 1 6 10
M  V30 10 1 7 11
M  V30 11 2 8 12
M  V30 12 1 9 13
M  V30 13 1 10 14
M  V30 14 2 11 15
M  V30 15 1 14 16
M  V30 16 1 16 17
M  V30 17 1 16 18
M  V30 18 1 17 19
M  V30 19 2 19 20
M  V30 20 1 19 21
M  V30 21 1 20 22
M  V30 22 2 21 23
M  V30 23 2 22 24
M  V30 24 1 12 15
M  V30 25 1 13 14
M  V30 26 1 23 24
M  V30 27 1 3 25
M  V30 28 1 4 26
M  V30 29 1 6 27
M  V30 30 1 7 28
M  V30 31 1 8 29
M  V30 32 1 10 30
M  V30 33 1 10 31
M  V30 34 1 11 32
M  V30 35 1 12 33
M  V30 36 1 13 34
M  V30 37 1 15 35
M  V30 38 1 16 36
M  V30 39 1 17 37
M  V30 40 1 17 38
M  V30 41 1 18 39
M  V30 42 1 18 40
M  V30 43 1 18 41
M  V30 44 1 20 42
M  V30 45 1 21 43
M  V30 46 1 22 44
M  V30 47 1 23 45
M  V30 48 1 24 46
M  V30 END BOND
M  V30 END CTAB
M  END
>  <Column 1>
2446

>  <level_0>
2819

>  <index>
2819

>  <Unnamed: 0>
2819

>  <NO.>
2831

>  <Name>


>  <IUPAC_name>


>  <SMILES>
CC(Cc1ccccc1)N1CC(NC(=O)Nc2ccccc2)[O+]N1

>  <CID>


>  <logBB>


>  <BBB+/BBB->
BBB+

>  <Inchi>
InChI=1S/C18H22N4O2/c1-14(12-15-8-4-2-5-9-15)22-13-17(24-21-22)20-18(23)19-16-10-6-3-7-11-16/h2-11-14-17-21H-12-13H2-1H3-(H2-19-20-23)/q+1

>  <threshold>
-1

>  <reference>
R13|

>  <group>
B

>  <Class>
-1

>  <ABC>
18.56

>  <ABCGG>
14.62

>  <nAcid>
0

>  <nBase>
1

>  <nAromAtom>
12

>  <nAromBond>
12

>  <nAtom>
46

>  <nHeavyAtom>
24

>  <nSpiro>
0

>  <nBridgehead>
0

>  <nHetero>
6

>  <nN>
4

>  <nO>
2

>  <nF>
0

>  <BalabanJ>
1.34

>  <BertzCT>
650.58

>  <nBonds>
48

>  <nBondsO>
26

>  <nBondsS>
35

>  <nBondsD>
1

>  <nBondsT>
0

>  <nBondsA>
12

>  <nBondsM>
13

>  <nBondsKS>
41

>  <nBondsKD>
7

>  <RNCG>
0.19

>  <RPCG>
0.13

>  <FCSP3>
0.28

>  <SZ>
29

>  <Sm>
27.18

>  <Sv>
28.42

>  <Sse>
46.08

>  <Sp>
30.38

>  <Si>
52.15

>  <MZ>
0.63

>  <Mm>
0.59

>  <Mv>
0.62

>  <Mse>
1

>  <Mp>
0.66

>  <Mi>
1.13

>  <NsCH3>
1

>  <NdCH2>
0

>  <NssCH2>
2

>  <NtCH>
0

>  <NdsCH>
0

>  <NaaCH>
10

>  <NsssCH>
2

>  <NddC>
0

>  <NtsC>
0

>  <NdssC>
1

>  <NaasC>
2

>  <NaaaC>
0

>  <NssssC>
0

>  <NsNH3>
0

>  <NsNH2>
0

>  <NssNH2>
0

>  <NdNH>
0

>  <NssNH>
3

>  <NaaNH>
0

>  <NtN>
0

>  <NsssNH>
0

>  <NdsN>
0

>  <NaaN>
0

>  <NsssN>
1

>  <NddsN>
0

>  <NaasN>
0

>  <NssssN>
0

>  <NsOH>
0

>  <NdO>
1

>  <NssO>
1

>  <NaaO>
0

>  <NsF>
0

>  <NsSiH3>
0

>  <NssSiH2>
0

>  <NsssSiH>
0

>  <NssssSi>
0

>  <NsPH2>
0

>  <NssPH>
0

>  <NsssP>
0

>  <NdsssP>
0

>  <NsssssP>
0

>  <NsSH>
0

>  <NdS>
0

>  <NssS>
0

>  <NaaS>
0

>  <NdssS>
0

>  <NddssS>
0

>  <NsCl>
0

>  <NsBr>
0

>  <NsI>
0

>  <fragCpx>
124.06

>  <fMF>
0.48

>  <nHBAcc>
4

>  <nHBDon>
3

>  <Kier1>
18.78

>  <Kier2>
9.63

>  <Lipinski>
1

>  <GhoseFilter>
1

>  <FilterItLogS>
-3.72

>  <VMcGowan>
253.46

>  <LabuteASA>
141.28

>  <PEOE_VSA1>
5.32

>  <PEOE_VSA2>
5.32

>  <PEOE_VSA3>
4.79

>  <PEOE_VSA4>
5.01

>  <PEOE_VSA5>
0

>  <PEOE_VSA6>
48.53

>  <PEOE_VSA7>
31.04

>  <PEOE_VSA8>
16.57

>  <PEOE_VSA9>
5.59

>  <PEOE_VSA10>
6.54

>  <PEOE_VSA11>
0

>  <PEOE_VSA12>
0

>  <PEOE_VSA13>
0

>  <SMR_VSA1>
9.63

>  <SMR_VSA2>
0

>  <SMR_VSA3>
15.91

>  <SMR_VSA4>
0

>  <SMR_VSA5>
25.61

>  <SMR_VSA6>
11.86

>  <SMR_VSA7>
66.23

>  <SMR_VSA8>
0

>  <SMR_VSA9>
0

>  <SlogP_VSA1>
16.22

>  <SlogP_VSA2>
29.85

>  <SlogP_VSA3>
11.26

>  <SlogP_VSA4>
0

>  <SlogP_VSA5>
12.49

>  <SlogP_VSA6>
60.66

>  <SlogP_VSA7>
0

>  <SlogP_VSA8>
0

>  <SlogP_VSA9>
0

>  <SlogP_VSA10>
10.48

>  <SlogP_VSA11>
0

>  <EState_VSA1>
6.23

>  <EState_VSA2>
12.07

>  <EState_VSA3>
6.54

>  <EState_VSA4>
12.11

>  <EState_VSA5>
5.56

>  <EState_VSA6>
0

>  <EState_VSA7>
53.54

>  <EState_VSA8>
35.28

>  <EState_VSA9>
4.84

>  <EState_VSA10>
4.79

>  <VSA_EState1>
0

>  <VSA_EState2>
17.42

>  <VSA_EState3>
7.56

>  <VSA_EState4>
4.9

>  <VSA_EState5>
0

>  <VSA_EState6>
19.57

>  <VSA_EState7>
0.51

>  <VSA_EState8>
2.7

>  <VSA_EState9>
0

>  <apol>
50.73

>  <bpol>
25.81

>  <nRing>
3

>  <nHRing>
1

>  <naRing>
2

>  <naHRing>
0

>  <nARing 2>
1

>  <nAHRing 2>
1

>  <nFRing>
0

>  <nFHRing>
0

>  <nFaRing>
0

>  <nFaHRing>
0

>  <nFARing 2>
0

>  <nFAHRing 2>
0

>  <nRot>
5

>  <SLogP>
2.52

>  <SMR>
92.92

>  <TopoPSA(NO)>
67.7

>  <TopoPSA>
67.7

>  <JGI1>
0.17

>  <JGI2>
0.05

>  <JGI3>
0.04

>  <JGI4>
0.04

>  <JGI5>
0.02

>  <Diameter>
15

>  <Radius>
8

>  <TMWC10>
122.96

>  <TSRW10>
71.44

>  <MW>
326.17

>  <AMW>
7.09

>  <WPath>
1597

>  <WPol>
30

>  <Zagreb1>
120

>  <Zagreb2>
135

>  <mZagreb2>
5.36

>  <yes>


>  <nAR-cont>
0.816016

>  <nHA-cont>
0.94700071

>  <MWHBN>
0.387593097

>  <MWHBN-cont>
0.524946263

>  <TPSA-cont>
0.527411961

>  <pka_cont>
0.97

>  <yes.1>


>  <BBB_SCORE>
4.090260025

>  <MMFF94 Energy>
4.9297

$$$$
Compound 2008
Actelion Java MolfileCreator 2.0

  0  0  0  0  0  0              0 V3000
M  V30 BEGIN CTAB
M  V30 COUNTS 28 28 0 0 0
M  V30 BEGIN ATOM
M  V30 1 O -2.5045 -1.0168 1.0168 0
M  V30 2 C -1.9163 -0.0894 1.5543 0
M  V30 3 O -2.5841 1.0554 1.813 0
M  V30 4 C -0.4232 -0.0415 1.9455 0 CFG=1
M  V30 5 N 0.13 -1.4214 1.9329 0
M  V30 6 C 0.3403 0.9155 0.9935 0
M  V30 7 C -0.2926 0.457 3.3925 0
M  V30 8 C 0.422 0.4774 -0.454 0
M  V30 9 C 1.5187 -0.271 -0.9086 0
M  V30 10 C -0.5953 0.8188 -1.3622 0
M  V30 11 C 1.5779 -0.6704 -2.2373 0
M  V30 12 C -0.5337 0.3988 -2.6935 0
M  V30 13 O 2.6813 -1.3456 -2.6728 0
M  V30 14 C 0.5458 -0.3607 -3.1163 0
M  V30 15 O 0.5677 -0.8241 -4.3995 0
M  V30 16 H -3.4992 0.8499 1.5254 0
M  V30 17 H 1.1463 -1.386 1.894 0
M  V30 18 H -0.1694 -1.8725 1.063 0
M  V30 19 H -0.1153 1.9151 1.0224 0
M  V30 20 H 1.3649 1.0612 1.3643 0
M  V30 21 H -0.6379 1.4926 3.4923 0
M  V30 22 H 0.7483 0.4266 3.7355 0
M  V30 23 H -0.8933 -0.1506 4.0802 0
M  V30 24 H 2.3353 -0.529 -0.24 0
M  V30 25 H -1.4496 1.41 -1.0385 0
M  V30 26 H -1.3323 0.6483 -3.3857 0
M  V30 27 H 2.8188 -1.065 -3.5965 0
M  V30 28 H 0.8795 -1.7462 -4.3428 0
M  V30 END ATOM
M  V30 BEGIN BOND
M  V30 1 2 1 2
M  V30 2 1 2 3
M  V30 3 1 2 4
M  V30 4 1 4 5
M  V30 5 1 4 6
M  V30 6 1 4 7
M  V30 7 1 6 8
M  V30 8 2 8 9
M  V30 9 1 8 10
M  V30 10 1 9 11
M  V30 11 2 10 12
M  V30 12 1 11 13
M  V30 13 2 11 14
M  V30 14 1 14 15
M  V30 15 1 12 14
M  V30 16 1 3 16
M  V30 17 1 5 17
M  V30 18 1 5 18
M  V30 19 1 6 19
M  V30 20 1 6 20
M  V30 21 1 7 21
M  V30 22 1 7 22
M  V30 23 1 7 23
M  V30 24 1 9 24
M  V30 25 1 10 25
M  V30 26 1 12 26
M  V30 27 1 13 27
M  V30 28 1 15 28
M  V30 END BOND
M  V30 BEGIN COLLECTION
M  V30 MDLV30/STERAC1 ATOMS=(1 4)
M  V30 END COLLECTION
M  V30 END CTAB
M  END
>  <Column 1>
2447

>  <level_0>
2820

>  <index>
2820

>  <Unnamed: 0>
2820

>  <NO.>
2832

>  <Name>
3-hydroxy-alpha-methyl-dl-tyrosine

>  <IUPAC_name>
2-amino-3-(3-4-dihydroxyphenyl)-2-methylpropanoic acid

>  <SMILES>
CC(N)(Cc1ccc(O)c(O)c1)C(=O)O

>  <CID>
4138

>  <logBB>


>  <BBB+/BBB->
BBB-

>  <Inchi>
InChI=1S/C10H13NO4/c1-10(11-9(14)15)5-6-2-3-7(12)8(13)4-6/h2-4-12-13H-5-11H2-1H3-(H-14-15)

>  <threshold>
-1

>  <reference>
R13|

>  <group>
B

>  <Class>
1

>  <ABC>
11.26

>  <ABCGG>
10.48

>  <nAcid>
1

>  <nBase>
1

>  <nAromAtom>
6

>  <nAromBond>
6

>  <nAtom>
28

>  <nHeavyAtom>
15

>  <nSpiro>
0

>  <nBridgehead>
0

>  <nHetero>
5

>  <nN>
1

>  <nO>
4

>  <nF>
0

>  <BalabanJ>
2.46

>  <BertzCT>
387.01

>  <nBonds>
28

>  <nBondsO>
15

>  <nBondsS>
21

>  <nBondsD>
1

>  <nBondsT>
0

>  <nBondsA>
6

>  <nBondsM>
7

>  <nBondsKS>
24

>  <nBondsKD>
4

>  <RNCG>
0.23

>  <RPCG>
0.15

>  <FCSP3>
0.3

>  <SZ>
18.67

>  <Sm>
17.59

>  <Sv>
17.14

>  <Sse>
28.76

>  <Sp>
17.77

>  <Si>
31.83

>  <MZ>
0.67

>  <Mm>
0.63

>  <Mv>
0.61

>  <Mse>
1.03

>  <Mp>
0.63

>  <Mi>
1.14

>  <NsCH3>
1

>  <NdCH2>
0

>  <NssCH2>
1

>  <NtCH>
0

>  <NdsCH>
0

>  <NaaCH>
3

>  <NsssCH>
0

>  <NddC>
0

>  <NtsC>
0

>  <NdssC>
1

>  <NaasC>
3

>  <NaaaC>
0

>  <NssssC>
1

>  <NsNH3>
0

>  <NsNH2>
1

>  <NssNH2>
0

>  <NdNH>
0

>  <NssNH>
0

>  <NaaNH>
0

>  <NtN>
0

>  <NsssNH>
0

>  <NdsN>
0

>  <NaaN>
0

>  <NsssN>
0

>  <NddsN>
0

>  <NaasN>
0

>  <NssssN>
0

>  <NsOH>
3

>  <NdO>
1

>  <NssO>
0

>  <NaaO>
0

>  <NsF>
0

>  <NsSiH3>
0

>  <NssSiH2>
0

>  <NsssSiH>
0

>  <NssssSi>
0

>  <NsPH2>
0

>  <NssPH>
0

>  <NsssP>
0

>  <NdsssP>
0

>  <NsssssP>
0

>  <NsSH>
0

>  <NdS>
0

>  <NssS>
0

>  <NaaS>
0

>  <NdssS>
0

>  <NddssS>
0

>  <NsCl>
0

>  <NsBr>
0

>  <NsI>
0

>  <fragCpx>
15.05

>  <fMF>
0.21

>  <nHBAcc>
4

>  <nHBDon>
4

>  <Kier1>
13.07

>  <Kier2>
4.89

>  <Lipinski>
1

>  <GhoseFilter>
1

>  <FilterItLogS>
-0.66

>  <VMcGowan>
157.16

>  <LabuteASA>
86.78

>  <PEOE_VSA1>
21.05

>  <PEOE_VSA2>
4.79

>  <PEOE_VSA3>
0

>  <PEOE_VSA4>
0

>  <PEOE_VSA5>
0

>  <PEOE_VSA6>
6.07

>  <PEOE_VSA7>
24.62

>  <PEOE_VSA8>
6.42

>  <PEOE_VSA9>
0

>  <PEOE_VSA10>
5.54

>  <PEOE_VSA11>
11.5

>  <PEOE_VSA12>
0

>  <PEOE_VSA13>
0

>  <SMR_VSA1>
20.11

>  <SMR_VSA2>
0

>  <SMR_VSA3>
0

>  <SMR_VSA4>
5.73

>  <SMR_VSA5>
18.88

>  <SMR_VSA6>
0

>  <SMR_VSA7>
23.76

>  <SMR_VSA8>
0

>  <SMR_VSA9>
11.5

>  <SlogP_VSA1>
5.73

>  <SlogP_VSA2>
26.83

>  <SlogP_VSA3>
11.22

>  <SlogP_VSA4>
0

>  <SlogP_VSA5>
12.49

>  <SlogP_VSA6>
18.2

>  <SlogP_VSA7>
0

>  <SlogP_VSA8>
0

>  <SlogP_VSA9>
0

>  <SlogP_VSA10>
0

>  <SlogP_VSA11>
11.5

>  <EState_VSA1>
11.51

>  <EState_VSA2>
17.92

>  <EState_VSA3>
5.56

>  <EState_VSA4>
0

>  <EState_VSA5>
25.12

>  <EState_VSA6>
0

>  <EState_VSA7>
0

>  <EState_VSA8>
0

>  <EState_VSA9>
15.95

>  <EState_VSA10>
9.9

>  <VSA_EState1>
0

>  <VSA_EState2>
10.74

>  <VSA_EState3>
27.04

>  <VSA_EState4>
4.7

>  <VSA_EState5>
-1.64

>  <VSA_EState6>
4.11

>  <VSA_EState7>
0.08

>  <VSA_EState8>
1.39

>  <VSA_EState9>
0

>  <apol>
29.68

>  <bpol>
13.34

>  <nRing>
1

>  <nHRing>
0

>  <naRing>
1

>  <naHRing>
0

>  <nARing 2>
0

>  <nAHRing 2>
0

>  <nFRing>
0

>  <nFHRing>
0

>  <nFaRing>
0

>  <nFaHRing>
0

>  <nFARing 2>
0

>  <nFAHRing 2>
0

>  <nRot>
3

>  <SLogP>
0.44

>  <SMR>
53.7

>  <TopoPSA(NO)>
103.78

>  <TopoPSA>
103.78

>  <JGI1>
0.37

>  <JGI2>
0.12

>  <JGI3>
0.05

>  <JGI4>
0.07

>  <JGI5>
0.03

>  <Diameter>
8

>  <Radius>
4

>  <TMWC10>
99.07

>  <TSRW10>
46.95

>  <MW>
211.08

>  <AMW>
7.54

>  <WPath>
374

>  <WPol>
21

>  <Zagreb1>
74

>  <Zagreb2>
83

>  <mZagreb2>
3.24

>  <yes>


>  <nAR-cont>
0.336376

>  <nHA-cont>
0.92539861

>  <MWHBN>
0.550638336

>  <MWHBN-cont>
0

>  <TPSA-cont>
0.275551156

>  <pka_cont>
0.97

>  <yes.1>


>  <BBB_SCORE>
2.297876923

>  <MMFF94 Energy>
50.581

$$$$
Compound 2009
Actelion Java MolfileCreator 2.0

  0  0  0  0  0  0              0 V3000
M  V30 BEGIN CTAB
M  V30 COUNTS 74 80 0 0 0
M  V30 BEGIN ATOM
M  V30 1 F -0.8961 -0.7331 4.5683 0
M  V30 2 C -1.0581 -1.5956 3.509 0
M  V30 3 C -1.2567 -3.0675 4.0452 0
M  V30 4 C -2.2205 -1.0257 2.675 0 CFG=1
M  V30 5 C 0.2945 -1.6245 2.7568 0 CFG=2
M  V30 6 C -0.0668 -3.7877 3.4168 0
M  V30 7 C -1.2286 -3.2143 5.5529 0
M  V30 8 C -2.5363 -3.7757 3.5509 0
M  V30 9 O -3.3285 -0.7262 3.5319 0
M  V30 10 C -1.84 0.2578 1.9363 0
M  V30 11 C 0.5677 -0.4953 1.7511 0 CFG=1
M  V30 12 C 0.3825 -3.0434 2.1953 0
M  V30 13 C 0.6303 -4.7646 4.0159 0
M  V30 14 C -0.5412 -4.1817 6.1815 0
M  V30 15 C -0.6406 0.0738 0.972 0
M  V30 16 C 1.1344 0.7502 2.4705 0
M  V30 17 C 0.3148 -5.1268 5.4195 0
M  V30 18 C -0.0839 1.4484 0.4543 0
M  V30 19 C -1.0683 -0.8388 -0.1936 0
M  V30 20 C 0.8795 1.9301 1.5379 0 CFG=1
M  V30 21 O 0.8028 -6.117 5.9479 0
M  V30 22 O -1.0971 2.4504 0.3577 0
M  V30 23 C 0.6878 1.3435 -0.8786 0
M  V30 24 O 0.1942 2.9819 2.2172 0
M  V30 25 C -0.7371 3.4981 1.2681 0
M  V30 26 O 1.8107 0.8323 -0.9283 0
M  V30 27 C -0.0183 1.8662 -2.1257 0
M  V30 28 C -0.0933 4.6467 0.49 0
M  V30 29 C -1.983 3.9882 1.9932 0
M  V30 30 O 0.7465 1.5402 -3.2863 0
M  V30 31 C 0.2 1.9876 -4.4526 0
M  V30 32 O -0.8548 2.6073 -4.5175 0
M  V30 33 C 1.0489 1.6158 -5.558 0
M  V30 34 O 0.6588 1.9671 -6.824 0
M  V30 35 C 2.2539 0.9351 -5.6219 0
M  V30 36 C 1.6084 1.5128 -7.685 0
M  V30 37 C 2.6212 0.8646 -6.9905 0
M  V30 38 C 1.5841 1.6672 -9.0688 0
M  V30 39 C 3.6968 0.3254 -7.7175 0
M  V30 40 C 2.6623 1.1242 -9.7755 0
M  V30 41 C 3.7014 0.4644 -9.1132 0
M  V30 42 H -2.5821 -1.7479 1.9417 0
M  V30 43 H 1.0879 -1.5421 3.5193 0
M  V30 44 H -1.859 -2.5446 6.1334 0
M  V30 45 H -2.5874 -4.8111 3.9141 0
M  V30 46 H -3.4414 -3.2738 3.9098 0
M  V30 47 H -2.5843 -3.8365 2.4579 0
M  V30 48 H -2.976 -0.1851 4.2657 0
M  V30 49 H -1.6286 1.0273 2.6873 0
M  V30 50 H -2.7162 0.6281 1.3873 0
M  V30 51 H 1.3349 -0.8418 1.0454 0
M  V30 52 H 1.4031 -3.2947 1.8907 0
M  V30 53 H -0.2965 -3.2234 1.359 0
M  V30 54 H 1.5035 -5.2359 3.5826 0
M  V30 55 H -0.5811 -4.3248 7.2544 0
M  V30 56 H 0.6631 0.9131 3.4466 0
M  V30 57 H 2.2078 0.6218 2.6511 0
M  V30 58 H -1.8512 -0.3604 -0.7921 0
M  V30 59 H -1.4664 -1.798 0.1425 0
M  V30 60 H -0.2307 -1.0769 -0.8573 0
M  V30 61 H 1.8231 2.3335 1.1535 0
M  V30 62 H -1.0039 1.3958 -2.195 0
M  V30 63 H -0.1061 2.954 -2.04 0
M  V30 64 H -0.7769 5.0409 -0.2694 0
M  V30 65 H 0.2061 5.4587 1.1611 0
M  V30 66 H 0.8105 4.3158 -0.0328 0
M  V30 67 H -1.7399 4.7797 2.7101 0
M  V30 68 H -2.7332 4.3599 1.2873 0
M  V30 69 H -2.4507 3.177 2.5603 0
M  V30 70 H 2.8001 0.539 -4.7764 0
M  V30 71 H 0.7702 2.1819 -9.5649 0
M  V30 72 H 4.5098 -0.1888 -7.2137 0
M  V30 73 H 2.6907 1.2182 -10.8592 0
M  V30 74 H 4.5279 0.0519 -9.6885 0
M  V30 END ATOM
M  V30 BEGIN BOND
M  V30 1 1 1 2
M  V30 2 1 2 3
M  V30 3 1 2 4
M  V30 4 1 2 5
M  V30 5 1 3 6
M  V30 6 1 3 7
M  V30 7 1 3 8
M  V30 8 1 4 9
M  V30 9 1 4 10
M  V30 10 1 5 11
M  V30 11 1 5 12
M  V30 12 2 6 13
M  V30 13 2 7 14
M  V30 14 1 10 15
M  V30 15 1 11 16
M  V30 16 1 13 17
M  V30 17 1 15 18
M  V30 18 1 15 19
M  V30 19 1 16 20
M  V30 20 2 17 21
M  V30 21 1 18 22
M  V30 22 1 18 23
M  V30 23 1 20 24
M  V30 24 1 22 25
M  V30 25 2 23 26
M  V30 26 1 23 27
M  V30 27 1 25 28
M  V30 28 1 25 29
M  V30 29 1 27 30
M  V30 30 1 30 31
M  V30 31 2 31 32
M  V30 32 1 31 33
M  V30 33 1 33 34
M  V30 34 2 33 35
M  V30 35 1 34 36
M  V30 36 1 35 37
M  V30 37 1 36 38
M  V30 38 1 37 39
M  V30 39 2 38 40
M  V30 40 2 39 41
M  V30 41 1 6 12
M  V30 42 1 11 15
M  V30 43 1 14 17
M  V30 44 1 18 20
M  V30 45 1 24 25
M  V30 46 2 36 37
M  V30 47 1 40 41
M  V30 48 1 4 42
M  V30 49 1 5 43
M  V30 50 1 7 44
M  V30 51 1 8 45
M  V30 52 1 8 46
M  V30 53 1 8 47
M  V30 54 1 9 48
M  V30 55 1 10 49
M  V30 56 1 10 50
M  V30 57 1 11 51
M  V30 58 1 12 52
M  V30 59 1 12 53
M  V30 60 1 13 54
M  V30 61 1 14 55
M  V30 62 1 16 56
M  V30 63 1 16 57
M  V30 64 1 19 58
M  V30 65 1 19 59
M  V30 66 1 19 60
M  V30 67 1 20 61
M  V30 68 1 27 62
M  V30 69 1 27 63
M  V30 70 1 28 64
M  V30 71 1 28 65
M  V30 72 1 28 66
M  V30 73 1 29 67
M  V30 74 1 29 68
M  V30 75 1 29 69
M  V30 76 1 35 70
M  V30 77 1 38 71
M  V30 78 1 39 72
M  V30 79 1 40 73
M  V30 80 1 41 74
M  V30 END BOND
M  V30 BEGIN COLLECTION
M  V30 MDLV30/STEABS ATOMS=(4 4 5 11 20)
M  V30 END COLLECTION
M  V30 END CTAB
M  END
>  <Column 1>
2449

>  <level_0>
2832

>  <index>
2832

>  <Unnamed: 0>
2832

>  <NO.>
2844

>  <Name>


>  <IUPAC_name>


>  <SMILES>
CC1(C)O[C@H]2C[C@H]3[C@@H]4CC5=CC(=O)C=CC5(C)C4(F)[C@@H](O)CC3(C)C2(C(=O)COC(=O)c2cc3ccccc3o2)O1

>  <CID>


>  <logBB>


>  <BBB+/BBB->
BBB+

>  <Inchi>
InChI=1S/C32H33FO8/c1-28(2)40-26-14-20-21-13-18-12-19(34)9-10-29(18-3)31(21-33)24(35)15-30(20-4)32(26-41-28)25(36)16-38-27(37)23-11-17-7-5-6-8-22(17)39-23/h5-12-20-21-24-26-35H-13-16H2-1-4H3/t20--21--24--26--29?-30?-31?-32?/m0/s1

>  <threshold>
-1

>  <reference>
R13|

>  <group>
B

>  <Class>
1

>  <ABC>
33.79

>  <ABCGG>
26.16

>  <nAcid>
0

>  <nBase>
0

>  <nAromAtom>
9

>  <nAromBond>
10

>  <nAtom>
74

>  <nHeavyAtom>
41

>  <nSpiro>
0

>  <nBridgehead>
0

>  <nHetero>
9

>  <nN>
0

>  <nO>
8

>  <nF>
1

>  <BalabanJ>
1.15

>  <BertzCT>
1537.04

>  <nBonds>
80

>  <nBondsO>
47

>  <nBondsS>
65

>  <nBondsD>
5

>  <nBondsT>
0

>  <nBondsA>
10

>  <nBondsM>
15

>  <nBondsKS>
71

>  <nBondsKD>
9

>  <RNCG>
0.13

>  <RPCG>
0.1

>  <FCSP3>
0.53

>  <SZ>
49.67

>  <Sm>
47.01

>  <Sv>
47.31

>  <Sse>
75.25

>  <Sp>
49.35

>  <Si>
83.07

>  <MZ>
0.67

>  <Mm>
0.64

>  <Mv>
0.64

>  <Mse>
1.02

>  <Mp>
0.67

>  <Mi>
1.12

>  <NsCH3>
4

>  <NdCH2>
0

>  <NssCH2>
4

>  <NtCH>
0

>  <NdsCH>
3

>  <NaaCH>
5

>  <NsssCH>
4

>  <NddC>
0

>  <NtsC>
0

>  <NdssC>
4

>  <NaasC>
1

>  <NaaaC>
2

>  <NssssC>
5

>  <NsNH3>
0

>  <NsNH2>
0

>  <NssNH2>
0

>  <NdNH>
0

>  <NssNH>
0

>  <NaaNH>
0

>  <NtN>
0

>  <NsssNH>
0

>  <NdsN>
0

>  <NaaN>
0

>  <NsssN>
0

>  <NddsN>
0

>  <NaasN>
0

>  <NssssN>
0

>  <NsOH>
1

>  <NdO>
3

>  <NssO>
3

>  <NaaO>
1

>  <NsF>
1

>  <NsSiH3>
0

>  <NssSiH2>
0

>  <NsssSiH>
0

>  <NssssSi>
0

>  <NsPH2>
0

>  <NssPH>
0

>  <NsssP>
0

>  <NdsssP>
0

>  <NsssssP>
0

>  <NsSH>
0

>  <NdS>
0

>  <NssS>
0

>  <NaaS>
0

>  <NdssS>
0

>  <NddssS>
0

>  <NsCl>
0

>  <NsBr>
0

>  <NsI>
0

>  <fragCpx>
569.09

>  <fMF>
0.43

>  <nHBAcc>
8

>  <nHBDon>
1

>  <Kier1>
29.7

>  <Kier2>
9.75

>  <Lipinski>
0

>  <GhoseFilter>
0

>  <FilterItLogS>
-5.95

>  <VMcGowan>
395.74

>  <LabuteASA>
236.04

>  <PEOE_VSA1>
23.73

>  <PEOE_VSA2>
9.59

>  <PEOE_VSA3>
9.18

>  <PEOE_VSA4>
0

>  <PEOE_VSA5>
0

>  <PEOE_VSA6>
36.77

>  <PEOE_VSA7>
70.24

>  <PEOE_VSA8>
22.13

>  <PEOE_VSA9>
12.21

>  <PEOE_VSA10>
5.58

>  <PEOE_VSA11>
29.45

>  <PEOE_VSA12>
11.54

>  <PEOE_VSA13>
0

>  <SMR_VSA1>
42.51

>  <SMR_VSA2>
0

>  <SMR_VSA3>
0

>  <SMR_VSA4>
22.67

>  <SMR_VSA5>
76.22

>  <SMR_VSA6>
6.61

>  <SMR_VSA7>
59.89

>  <SMR_VSA8>
0

>  <SMR_VSA9>
0

>  <SlogP_VSA1>
0

>  <SlogP_VSA2>
58.51

>  <SlogP_VSA3>
23.8

>  <SlogP_VSA4>
22.67

>  <SlogP_VSA5>
57.51

>  <SlogP_VSA6>
58.55

>  <SlogP_VSA7>
0

>  <SlogP_VSA8>
10.97

>  <SlogP_VSA9>
0

>  <SlogP_VSA10>
4.39

>  <SlogP_VSA11>
0

>  <EState_VSA1>
70.29

>  <EState_VSA2>
24.39

>  <EState_VSA3>
17.58

>  <EState_VSA4>
5.39

>  <EState_VSA5>
12.15

>  <EState_VSA6>
51.11

>  <EState_VSA7>
12.99

>  <EState_VSA8>
0

>  <EState_VSA9>
18.63

>  <EState_VSA10>
19.49

>  <VSA_EState1>
41.09

>  <VSA_EState2>
39.28

>  <VSA_EState3>
12.31

>  <VSA_EState4>
-4.61

>  <VSA_EState5>
-3.72

>  <VSA_EState6>
8.69

>  <VSA_EState7>
2.81

>  <VSA_EState8>
6.41

>  <VSA_EState9>
0

>  <apol>
82.42

>  <bpol>
43.77

>  <nRing>
7

>  <nHRing>
2

>  <naRing>
2

>  <naHRing>
1

>  <nARing 2>
5

>  <nAHRing 2>
1

>  <nFRing>
2

>  <nFHRing>
2

>  <nFaRing>
1

>  <nFaHRing>
1

>  <nFARing 2>
1

>  <nFAHRing 2>
1

>  <nRot>
4

>  <SLogP>
4.64

>  <SMR>
143.39

>  <TopoPSA(NO)>
112.27

>  <TopoPSA>
112.27

>  <JGI1>
0.3

>  <JGI2>
0.12

>  <JGI3>
0.08

>  <JGI4>
0.06

>  <JGI5>
0.04

>  <Diameter>
17

>  <Radius>
9

>  <TMWC10>
173.06

>  <TSRW10>
98.67

>  <MW>
564.22

>  <AMW>
7.62

>  <WPath>
5313

>  <WPol>
91

>  <Zagreb1>
252

>  <Zagreb2>
325

>  <mZagreb2>
8.25

>  <yes>


>  <nAR-cont>
0

>  <nHA-cont>
0.27123661

>  <MWHBN>
0.378894474

>  <MWHBN-cont>
0.559141345

>  <TPSA-cont>
0.216285685

>  <pka_cont>
0.97

>  <yes.1>


>  <BBB_SCORE>
2.027519996

>  <MMFF94 Energy>
191.06

$$$$
Compound 2010
Actelion Java MolfileCreator 2.0

  0  0  0  0  0  0              0 V3000
M  V30 BEGIN CTAB
M  V30 COUNTS 53 56 0 0 0
M  V30 BEGIN ATOM
M  V30 1 S -0.4887 1.3036 1.7113 0
M  V30 2 C -1.9885 1.8294 2.6482 0
M  V30 3 C -0.4678 -0.3473 2.5369 0 CFG=2
M  V30 4 C -2.8587 0.5586 2.6516 0 CFG=1
M  V30 5 C -1.5589 2.3022 4.0441 0
M  V30 6 C -2.6367 2.9869 1.8812 0
M  V30 7 C -0.4307 -1.5931 1.6056 0
M  V30 8 C -1.9388 -0.6337 2.945 0 CFG=1
M  V30 9 C -4.0134 0.6457 3.6161 0
M  V30 10 N -0.0192 -1.3785 0.2021 0
M  V30 11 C -1.9503 -1.7187 1.8507 0
M  V30 12 O -4.0615 0.1616 4.7337 0
M  V30 13 O -5.0504 1.35 3.1298 0
M  V30 14 C 1.3132 -1.1971 -0.1326 0
M  V30 15 O -2.8335 -2.3763 1.3401 0
M  V30 16 O 2.1974 -1.2545 0.7208 0
M  V30 17 C 1.563 -0.8621 -1.6261 0 CFG=1
M  V30 18 O 2.9315 -0.5818 -1.925 0
M  V30 19 C 1.1429 -2.0268 -2.5151 0
M  V30 20 C 3.2164 0.7521 -2.0241 0
M  V30 21 C 0.1371 -1.8593 -3.4801 0
M  V30 22 C 1.7551 -3.2841 -2.3855 0
M  V30 23 C 3.8935 1.1616 -3.1721 0
M  V30 24 C 2.918 1.6751 -1.0215 0
M  V30 25 C -0.2579 -2.9306 -4.2829 0
M  V30 26 C 1.3574 -4.3523 -3.1897 0
M  V30 27 C 4.2331 2.5041 -3.3415 0
M  V30 28 C 3.2585 3.0184 -1.1918 0
M  V30 29 C 0.3494 -4.1761 -4.1353 0
M  V30 30 C 3.9102 3.4337 -2.3532 0
M  V30 31 H 0.2447 -0.393 3.3672 0
M  V30 32 H -3.3041 0.4158 1.6552 0
M  V30 33 H -0.8402 3.1282 3.9839 0
M  V30 34 H -2.4193 2.6722 4.6134 0
M  V30 35 H -1.1003 1.5025 4.6358 0
M  V30 36 H -3.5199 3.3635 2.4084 0
M  V30 37 H -2.9594 2.6835 0.8785 0
M  V30 38 H -1.9487 3.8338 1.7712 0
M  V30 39 H 0.1055 -2.4444 2.0446 0
M  V30 40 H -2.0119 -1.0578 3.9531 0
M  V30 41 H -0.7071 -1.4149 -0.5441 0
M  V30 42 H -5.7327 1.3074 3.8339 0
M  V30 43 H 0.9223 -5.0E-4 -1.868 0
M  V30 44 H -0.3417 -0.8926 -3.6215 0
M  V30 45 H 2.5525 -3.4332 -1.6583 0
M  V30 46 H 4.1515 0.4342 -3.937 0
M  V30 47 H 2.4482 1.3663 -0.0926 0
M  V30 48 H -1.0367 -2.7932 -5.0289 0
M  V30 49 H 1.8385 -5.321 -3.081 0
M  V30 50 H 4.7546 2.8226 -4.24 0
M  V30 51 H 3.0272 3.738 -0.4105 0
M  V30 52 H 0.0427 -5.0087 -4.7631 0
M  V30 53 H 4.1795 4.479 -2.481 0
M  V30 END ATOM
M  V30 BEGIN BOND
M  V30 1 1 1 2
M  V30 2 1 1 3
M  V30 3 1 2 4
M  V30 4 1 2 5
M  V30 5 1 2 6
M  V30 6 1 3 7
M  V30 7 1 3 8
M  V30 8 1 4 9
M  V30 9 1 7 10
M  V30 10 1 7 11
M  V30 11 2 9 12
M  V30 12 1 9 13
M  V30 13 1 10 14
M  V30 14 2 11 15
M  V30 15 2 14 16
M  V30 16 1 14 17
M  V30 17 1 17 18
M  V30 18 1 17 19
M  V30 19 1 18 20
M  V30 20 2 19 21
M  V30 21 1 19 22
M  V30 22 2 20 23
M  V30 23 1 20 24
M  V30 24 1 21 25
M  V30 25 2 22 26
M  V30 26 1 23 27
M  V30 27 2 24 28
M  V30 28 2 25 29
M  V30 29 2 27 30
M  V30 30 1 4 8
M  V30 31 1 8 11
M  V30 32 1 26 29
M  V30 33 1 28 30
M  V30 34 1 3 31
M  V30 35 1 4 32
M  V30 36 1 5 33
M  V30 37 1 5 34
M  V30 38 1 5 35
M  V30 39 1 6 36
M  V30 40 1 6 37
M  V30 41 1 6 38
M  V30 42 1 7 39
M  V30 43 1 8 40
M  V30 44 1 10 41
M  V30 45 1 13 42
M  V30 46 1 17 43
M  V30 47 1 21 44
M  V30 48 1 22 45
M  V30 49 1 23 46
M  V30 50 1 24 47
M  V30 51 1 25 48
M  V30 52 1 26 49
M  V30 53 1 27 50
M  V30 54 1 28 51
M  V30 55 1 29 52
M  V30 56 1 30 53
M  V30 END BOND
M  V30 BEGIN COLLECTION
M  V30 MDLV30/STEABS ATOMS=(4 3 4 8 17)
M  V30 END COLLECTION
M  V30 END CTAB
M  END
>  <Column 1>
2450

>  <level_0>
2847

>  <index>
2847

>  <Unnamed: 0>
2847

>  <NO.>
2859

>  <Name>


>  <IUPAC_name>


>  <SMILES>
CC1(C)S[C@@H]2C(NC(=O)[C@@H](Oc3ccccc3)c3ccccc3)C(=O)[C@@H]2[C@H]1C(=O)O

>  <CID>


>  <logBB>


>  <BBB+/BBB->
BBB-

>  <Inchi>
InChI=1S/C23H23NO5S/c1-23(2)16(22(27)28)15-18(25)17(20(15)30-23)24-21(26)19(13-9-5-3-6-10-13)29-14-11-7-4-8-12-14/h3-12-15-17-19-20H-1-2H3-(H-24-26)(H-27-28)/t15--16--17?-19--20-/m0/s1

>  <threshold>
-1

>  <reference>
R13|

>  <group>
B

>  <Class>
-1

>  <ABC>
23.7

>  <ABCGG>
19.42

>  <nAcid>
1

>  <nBase>
0

>  <nAromAtom>
12

>  <nAromBond>
12

>  <nAtom>
53

>  <nHeavyAtom>
30

>  <nSpiro>
0

>  <nBridgehead>
0

>  <nHetero>
7

>  <nN>
1

>  <nO>
5

>  <nF>
0

>  <BalabanJ>
1.42

>  <BertzCT>
962.07

>  <nBonds>
56

>  <nBondsO>
33

>  <nBondsS>
41

>  <nBondsD>
3

>  <nBondsT>
0

>  <nBondsA>
12

>  <nBondsM>
15

>  <nBondsKS>
47

>  <nBondsKD>
9

>  <RNCG>
0.17

>  <RPCG>
0.11

>  <FCSP3>
0.35

>  <SZ>
37.33

>  <Sm>
35.43

>  <Sv>
34.75

>  <Sse>
53.6

>  <Sp>
36.98

>  <Si>
59.03

>  <MZ>
0.7

>  <Mm>
0.67

>  <Mv>
0.66

>  <Mse>
1.01

>  <Mp>
0.7

>  <Mi>
1.11

>  <NsCH3>
2

>  <NdCH2>
0

>  <NssCH2>
0

>  <NtCH>
0

>  <NdsCH>
0

>  <NaaCH>
10

>  <NsssCH>
5

>  <NddC>
0

>  <NtsC>
0

>  <NdssC>
3

>  <NaasC>
2

>  <NaaaC>
0

>  <NssssC>
1

>  <NsNH3>
0

>  <NsNH2>
0

>  <NssNH2>
0

>  <NdNH>
0

>  <NssNH>
1

>  <NaaNH>
0

>  <NtN>
0

>  <NsssNH>
0

>  <NdsN>
0

>  <NaaN>
0

>  <NsssN>
0

>  <NddsN>
0

>  <NaasN>
0

>  <NssssN>
0

>  <NsOH>
1

>  <NdO>
3

>  <NssO>
1

>  <NaaO>
0

>  <NsF>
0

>  <NsSiH3>
0

>  <NssSiH2>
0

>  <NsssSiH>
0

>  <NssssSi>
0

>  <NsPH2>
0

>  <NssPH>
0

>  <NsssP>
0

>  <NdsssP>
0

>  <NsssssP>
0

>  <NsSH>
0

>  <NdS>
0

>  <NssS>
1

>  <NaaS>
0

>  <NdssS>
0

>  <NddssS>
0

>  <NsCl>
0

>  <NsBr>
0

>  <NsI>
0

>  <fragCpx>
219.07

>  <fMF>
0.43

>  <nHBAcc>
5

>  <nHBDon>
2

>  <Kier1>
23.17

>  <Kier2>
9.47

>  <Lipinski>
1

>  <GhoseFilter>
1

>  <FilterItLogS>
-3.96

>  <VMcGowan>
308.47

>  <LabuteASA>
178.56

>  <PEOE_VSA1>
15.16

>  <PEOE_VSA2>
14.38

>  <PEOE_VSA3>
0

>  <PEOE_VSA4>
0

>  <PEOE_VSA5>
11.76

>  <PEOE_VSA6>
48.53

>  <PEOE_VSA7>
25.98

>  <PEOE_VSA8>
21.48

>  <PEOE_VSA9>
5.92

>  <PEOE_VSA10>
11.79

>  <PEOE_VSA11>
5.78

>  <PEOE_VSA12>
6.1

>  <PEOE_VSA13>
5.91

>  <SMR_VSA1>
24.23

>  <SMR_VSA2>
0

>  <SMR_VSA3>
5.32

>  <SMR_VSA4>
11.84

>  <SMR_VSA5>
35.99

>  <SMR_VSA6>
0

>  <SMR_VSA7>
66.23

>  <SMR_VSA8>
0

>  <SMR_VSA9>
5.75

>  <SlogP_VSA1>
10.05

>  <SlogP_VSA2>
38.81

>  <SlogP_VSA3>
14.38

>  <SlogP_VSA4>
11.84

>  <SlogP_VSA5>
25.51

>  <SlogP_VSA6>
60.66

>  <SlogP_VSA7>
0

>  <SlogP_VSA8>
0

>  <SlogP_VSA9>
0

>  <SlogP_VSA10>
0

>  <SlogP_VSA11>
5.75

>  <EState_VSA1>
40.61

>  <EState_VSA2>
11.03

>  <EState_VSA3>
11.31

>  <EState_VSA4>
0

>  <EState_VSA5>
11.76

>  <EState_VSA6>
24.27

>  <EState_VSA7>
50.25

>  <EState_VSA8>
5.32

>  <EState_VSA9>
4.74

>  <EState_VSA10>
19.49

>  <VSA_EState1>
5.38

>  <VSA_EState2>
37.62

>  <VSA_EState3>
12.17

>  <VSA_EState4>
0.67

>  <VSA_EState5>
-2.38

>  <VSA_EState6>
17.4

>  <VSA_EState7>
-0.92

>  <VSA_EState8>
3.68

>  <VSA_EState9>
0

>  <apol>
61.76

>  <bpol>
30.44

>  <nRing>
4

>  <nHRing>
1

>  <naRing>
2

>  <naHRing>
0

>  <nARing 2>
2

>  <nAHRing 2>
1

>  <nFRing>
1

>  <nFHRing>
1

>  <nFaRing>
0

>  <nFaHRing>
0

>  <nFARing 2>
1

>  <nFAHRing 2>
1

>  <nRot>
6

>  <SLogP>
3.09

>  <SMR>
113.26

>  <TopoPSA(NO)>
92.7

>  <TopoPSA>
118

>  <JGI1>
0.2

>  <JGI2>
0.08

>  <JGI3>
0.08

>  <JGI4>
0.05

>  <JGI5>
0.02

>  <Diameter>
13

>  <Radius>
7

>  <TMWC10>
141.92

>  <TSRW10>
81.41

>  <MW>
425.13

>  <AMW>
8.02

>  <WPath>
2460

>  <WPol>
48

>  <Zagreb1>
164

>  <Zagreb2>
198

>  <mZagreb2>
6.43

>  <yes>


>  <nAR-cont>
1

>  <nHA-cont>
0.74523694

>  <MWHBN>
0.339497956

>  <MWHBN-cont>
0.708955171

>  <TPSA-cont>
0.176286726

>  <pka_cont>
0.97

>  <yes.1>


>  <BBB_SCORE>
3.646243149

>  <MMFF94 Energy>
71.666

$$$$
Compound 2011
Actelion Java MolfileCreator 2.0

  0  0  0  0  0  0              0 V3000
M  V30 BEGIN CTAB
M  V30 COUNTS 44 46 0 0 0
M  V30 BEGIN ATOM
M  V30 1 S -0.1631 1.9589 0.4078 0
M  V30 2 C -2.0155 1.6937 0.276 0
M  V30 3 C 0.1073 2.1073 -1.417 0 CFG=2
M  V30 4 C -2.3651 2.1979 -1.1397 0 CFG=1
M  V30 5 C -2.2749 0.2069 0.5517 0
M  V30 6 C -2.6743 2.5489 1.3658 0
M  V30 7 N -1.2264 1.8792 -1.9848 0
M  V30 8 C 0.5807 0.8413 -2.1807 0
M  V30 9 C -3.7033 1.8141 -1.7699 0
M  V30 10 C -0.9273 0.6344 -2.4518 0
M  V30 11 N 1.2478 -0.2313 -1.3975 0
M  V30 12 O -3.9827 1.8688 -2.9584 0
M  V30 13 O -4.6713 1.5096 -0.8855 0
M  V30 14 O -1.6332 -0.2891 -2.7829 0
M  V30 15 C 2.5471 -0.0885 -0.9499 0
M  V30 16 O 3.2041 0.9094 -1.2419 0
M  V30 17 C 3.1191 -1.2808 -0.1897 0 CFG=2
M  V30 18 C 2.1239 -1.9308 0.7668 0
M  V30 19 C 4.4105 -0.9269 0.5166 0
M  V30 20 C 1.721 -3.2608 0.5672 0
M  V30 21 C 1.5774 -1.214 1.8433 0
M  V30 22 O 4.5667 -0.1323 1.4308 0
M  V30 23 O 5.4698 -1.6318 0.0575 0
M  V30 24 C 0.7863 -3.853 1.4181 0
M  V30 25 C 0.6439 -1.8098 2.6918 0
M  V30 26 C 0.2468 -3.1273 2.4779 0
M  V30 27 H 0.5578 3.0502 -1.7388 0
M  V30 28 H -2.3934 3.2978 -1.1175 0
M  V30 29 H -1.9345 -0.0732 1.5563 0
M  V30 30 H -3.3419 -0.031 0.5129 0
M  V30 31 H -1.7681 -0.4551 -0.1546 0
M  V30 32 H -2.3336 2.2606 2.3674 0
M  V30 33 H -2.4586 3.6158 1.2344 0
M  V30 34 H -3.7632 2.4345 1.3541 0
M  V30 35 H 1.1324 1.0547 -3.1047 0
M  V30 36 H 0.7178 -1.0568 -1.1314 0
M  V30 37 H -5.4464 1.3151 -1.4568 0
M  V30 38 H 3.3675 -2.0117 -0.9729 0
M  V30 39 H 2.1299 -3.85 -0.2513 0
M  V30 40 H 1.8747 -0.1824 2.0329 0
M  V30 41 H 6.2184 -1.2961 0.5957 0
M  V30 42 H 0.4802 -4.8837 1.2565 0
M  V30 43 H 0.229 -1.2431 3.5218 0
M  V30 44 H -0.4788 -3.5904 3.1415 0
M  V30 END ATOM
M  V30 BEGIN BOND
M  V30 1 1 1 2
M  V30 2 1 1 3
M  V30 3 1 2 4
M  V30 4 1 2 5
M  V30 5 1 2 6
M  V30 6 1 3 7
M  V30 7 1 3 8
M  V30 8 1 4 9
M  V30 9 1 7 10
M  V30 10 1 8 11
M  V30 11 2 9 12
M  V30 12 1 9 13
M  V30 13 2 10 14
M  V30 14 1 11 15
M  V30 15 2 15 16
M  V30 16 1 15 17
M  V30 17 1 17 18
M  V30 18 1 17 19
M  V30 19 2 18 20
M  V30 20 1 18 21
M  V30 21 2 19 22
M  V30 22 1 19 23
M  V30 23 1 20 24
M  V30 24 2 21 25
M  V30 25 2 24 26
M  V30 26 1 4 7
M  V30 27 1 8 10
M  V30 28 1 25 26
M  V30 29 1 3 27
M  V30 30 1 4 28
M  V30 31 1 5 29
M  V30 32 1 5 30
M  V30 33 1 5 31
M  V30 34 1 6 32
M  V30 35 1 6 33
M  V30 36 1 6 34
M  V30 37 1 8 35
M  V30 38 1 11 36
M  V30 39 1 13 37
M  V30 40 1 17 38
M  V30 41 1 20 39
M  V30 42 1 21 40
M  V30 43 1 23 41
M  V30 44 1 24 42
M  V30 45 1 25 43
M  V30 46 1 26 44
M  V30 END BOND
M  V30 BEGIN COLLECTION
M  V30 MDLV30/STEABS ATOMS=(3 3 4 17)
M  V30 END COLLECTION
M  V30 END CTAB
M  END
>  <Column 1>
2451

>  <level_0>
2861

>  <index>
2861

>  <Unnamed: 0>
2861

>  <NO.>
2873

>  <Name>


>  <IUPAC_name>


>  <SMILES>
CC1(C)S[C@H]2C(NC(=O)[C@@H](C(=O)O)c3ccccc3)C(=O)N2[C@H]1C(=O)O

>  <CID>


>  <logBB>


>  <BBB+/BBB->
BBB-

>  <Inchi>
InChI=1S/C17H18N2O6S/c1-17(2)11(16(24)25)19-13(21)10(14(19)26-17)18-12(20)9(15(22)23)8-6-4-3-5-7-8/h3-7-9-11-14H-1-2H3-(H-18-20)(H-22-23)(H-24-25)/t9--10?-11--14-/m0/s1

>  <threshold>
-1

>  <reference>
R13|

>  <group>
B

>  <Class>
-1

>  <ABC>
20.35

>  <ABCGG>
17.74

>  <nAcid>
2

>  <nBase>
0

>  <nAromAtom>
6

>  <nAromBond>
6

>  <nAtom>
44

>  <nHeavyAtom>
26

>  <nSpiro>
0

>  <nBridgehead>
0

>  <nHetero>
9

>  <nN>
2

>  <nO>
6

>  <nF>
0

>  <BalabanJ>
1.67

>  <BertzCT>
780.72

>  <nBonds>
46

>  <nBondsO>
28

>  <nBondsS>
36

>  <nBondsD>
4

>  <nBondsT>
0

>  <nBondsA>
6

>  <nBondsM>
10

>  <nBondsKS>
39

>  <nBondsKD>
7

>  <RNCG>
0.15

>  <RPCG>
0.1

>  <FCSP3>
0.41

>  <SZ>
33

>  <Sm>
31.5

>  <Sv>
28.87

>  <Sse>
45.38

>  <Sp>
30.12

>  <Si>
49.5

>  <MZ>
0.75

>  <Mm>
0.72

>  <Mv>
0.66

>  <Mse>
1.03

>  <Mp>
0.68

>  <Mi>
1.12

>  <NsCH3>
2

>  <NdCH2>
0

>  <NssCH2>
0

>  <NtCH>
0

>  <NdsCH>
0

>  <NaaCH>
5

>  <NsssCH>
4

>  <NddC>
0

>  <NtsC>
0

>  <NdssC>
4

>  <NaasC>
1

>  <NaaaC>
0

>  <NssssC>
1

>  <NsNH3>
0

>  <NsNH2>
0

>  <NssNH2>
0

>  <NdNH>
0

>  <NssNH>
1

>  <NaaNH>
0

>  <NtN>
0

>  <NsssNH>
0

>  <NdsN>
0

>  <NaaN>
0

>  <NsssN>
1

>  <NddsN>
0

>  <NaasN>
0

>  <NssssN>
0

>  <NsOH>
2

>  <NdO>
4

>  <NssO>
0

>  <NaaO>
0

>  <NsF>
0

>  <NsSiH3>
0

>  <NssSiH2>
0

>  <NsssSiH>
0

>  <NssssSi>
0

>  <NsPH2>
0

>  <NssPH>
0

>  <NsssP>
0

>  <NdsssP>
0

>  <NsssssP>
0

>  <NsSH>
0

>  <NdS>
0

>  <NssS>
1

>  <NaaS>
0

>  <NdssS>
0

>  <NddssS>
0

>  <NsCl>
0

>  <NsBr>
0

>  <NsI>
0

>  <fragCpx>
134.09

>  <fMF>
0.36

>  <nHBAcc>
5

>  <nHBDon>
3

>  <Kier1>
20.73

>  <Kier2>
7.79

>  <Lipinski>
1

>  <GhoseFilter>
1

>  <FilterItLogS>
-1.17

>  <VMcGowan>
259.24

>  <LabuteASA>
153.1

>  <PEOE_VSA1>
20.43

>  <PEOE_VSA2>
14.38

>  <PEOE_VSA3>
4.79

>  <PEOE_VSA4>
0

>  <PEOE_VSA5>
11.76

>  <PEOE_VSA6>
30.33

>  <PEOE_VSA7>
19.41

>  <PEOE_VSA8>
4.75

>  <PEOE_VSA9>
0

>  <PEOE_VSA10>
17.46

>  <PEOE_VSA11>
5.92

>  <PEOE_VSA12>
11.81

>  <PEOE_VSA13>
0

>  <SMR_VSA1>
29.39

>  <SMR_VSA2>
0

>  <SMR_VSA3>
10.22

>  <SMR_VSA4>
0

>  <SMR_VSA5>
41.97

>  <SMR_VSA6>
0

>  <SMR_VSA7>
35.9

>  <SMR_VSA8>
0

>  <SMR_VSA9>
0

>  <SlogP_VSA1>
5.32

>  <SlogP_VSA2>
61.07

>  <SlogP_VSA3>
19.18

>  <SlogP_VSA4>
0

>  <SlogP_VSA5>
25.33

>  <SlogP_VSA6>
30.33

>  <SlogP_VSA7>
0

>  <SlogP_VSA8>
0

>  <SlogP_VSA9>
0

>  <SlogP_VSA10>
0

>  <SlogP_VSA11>
0

>  <EState_VSA1>
51.88

>  <EState_VSA2>
0

>  <EState_VSA3>
5.56

>  <EState_VSA4>
0

>  <EState_VSA5>
28.79

>  <EState_VSA6>
32.05

>  <EState_VSA7>
0

>  <EState_VSA8>
5.32

>  <EState_VSA9>
0

>  <EState_VSA10>
29.39

>  <VSA_EState1>
-0.71

>  <VSA_EState2>
49.19

>  <VSA_EState3>
20.78

>  <VSA_EState4>
0.31

>  <VSA_EState5>
-5.16

>  <VSA_EState6>
6.1

>  <VSA_EState7>
0

>  <VSA_EState8>
3.45

>  <VSA_EState9>
0

>  <apol>
50.3

>  <bpol>
26.27

>  <nRing>
3

>  <nHRing>
2

>  <naRing>
1

>  <naHRing>
0

>  <nARing 2>
2

>  <nAHRing 2>
2

>  <nFRing>
1

>  <nFHRing>
1

>  <nFaRing>
0

>  <nFaHRing>
0

>  <nFARing 2>
1

>  <nFAHRing 2>
1

>  <nRot>
5

>  <SLogP>
0.49

>  <SMR>
92.48

>  <TopoPSA(NO)>
124.01

>  <TopoPSA>
149.31

>  <JGI1>
0.23

>  <JGI2>
0.09

>  <JGI3>
0.1

>  <JGI4>
0.05

>  <JGI5>
0.03

>  <Diameter>
12

>  <Radius>
6

>  <TMWC10>
132.03

>  <TSRW10>
76.84

>  <MW>
378.09

>  <AMW>
8.59

>  <WPath>
1651

>  <WPol>
43

>  <Zagreb1>
142

>  <Zagreb2>
173

>  <mZagreb2>
5.54

>  <yes>


>  <nAR-cont>
1

>  <nHA-cont>
0.892715677

>  <MWHBN>
0.411426623

>  <MWHBN-cont>
0.431248241

>  <TPSA-cont>
0

>  <pka_cont>
0.97

>  <yes.1>


>  <BBB_SCORE>
3.024588039

>  <MMFF94 Energy>
50.25

$$$$
Compound 2012
Actelion Java MolfileCreator 2.0

  0  0  0  0  0  0              0 V3000
M  V30 BEGIN CTAB
M  V30 COUNTS 41 43 0 0 0
M  V30 BEGIN ATOM
M  V30 1 S -2.8227 -2.6565 -1.6597 0
M  V30 2 C -2.1345 -1.4578 -2.6664 0
M  V30 3 C -1.2835 -3.2028 -1.1659 0
M  V30 4 C -0.7502 -1.4481 -2.6263 0
M  V30 5 C -0.268 -2.4807 -1.7506 0
M  V30 6 C 0.1244 -0.4678 -3.3898 0 CFG=2
M  V30 7 C 0.9637 -1.157 -4.4439 0
M  V30 8 C 0.9766 0.3693 -2.4446 0
M  V30 9 O 1.4396 -2.2808 -4.413 0
M  V30 10 O 1.1738 -0.376 -5.5292 0
M  V30 11 O 2.2005 0.4556 -2.5134 0
M  V30 12 N 0.2627 1.0918 -1.5061 0
M  V30 13 C 0.9488 1.966 -0.5182 0
M  V30 14 C 0.0508 2.5209 0.6115 0
M  V30 15 C 1.7202 1.2865 0.6454 0 CFG=1
M  V30 16 O -1.0596 2.9929 0.6839 0
M  V30 17 N 0.9181 2.0943 1.5716 0
M  V30 18 S 1.2676 -0.4541 1.077 0
M  V30 19 C 0.5282 1.4677 2.8243 0 CFG=2
M  V30 20 C 0.1197 0.0195 2.4823 0
M  V30 21 C -0.4063 2.3389 3.6628 0
M  V30 22 C -1.314 -0.1813 1.9746 0
M  V30 23 C 0.4022 -0.9433 3.6423 0
M  V30 24 O -0.37 3.5574 3.7506 0
M  V30 25 O -1.2529 1.6522 4.4521 0
M  V30 26 H -2.7889 -0.8119 -3.2371 0
M  V30 27 H -1.192 -4.0272 -0.4719 0
M  V30 28 H 0.7807 -2.6841 -1.5588 0
M  V30 29 H -0.5422 0.2296 -3.9176 0
M  V30 30 H 1.764 -0.9193 -6.0945 0
M  V30 31 H -0.7437 0.9676 -1.4457 0
M  V30 32 H 1.5083 2.764 -1.022 0
M  V30 33 H 2.7898 1.5081 0.6958 0
M  V30 34 H 1.4549 1.4343 3.4167 0
M  V30 35 H -1.551 0.4342 1.1032 0
M  V30 36 H -1.4887 -1.2256 1.6873 0
M  V30 37 H -2.0524 0.0512 2.7475 0
M  V30 38 H 1.4388 -0.87 3.9911 0
M  V30 39 H -0.2442 -0.7299 4.4998 0
M  V30 40 H 0.2193 -1.9859 3.3559 0
M  V30 41 H -1.7487 2.3583 4.9219 0
M  V30 END ATOM
M  V30 BEGIN BOND
M  V30 1 1 1 2
M  V30 2 1 1 3
M  V30 3 2 2 4
M  V30 4 2 3 5
M  V30 5 1 4 6
M  V30 6 1 6 7
M  V30 7 1 6 8
M  V30 8 2 7 9
M  V30 9 1 7 10
M  V30 10 2 8 11
M  V30 11 1 8 12
M  V30 12 1 12 13
M  V30 13 1 13 14
M  V30 14 1 13 15
M  V30 15 2 14 16
M  V30 16 1 14 17
M  V30 17 1 15 18
M  V30 18 1 17 19
M  V30 19 1 18 20
M  V30 20 1 19 21
M  V30 21 1 20 22
M  V30 22 1 20 23
M  V30 23 2 21 24
M  V30 24 1 21 25
M  V30 25 1 4 5
M  V30 26 1 15 17
M  V30 27 1 19 20
M  V30 28 1 2 26
M  V30 29 1 3 27
M  V30 30 1 5 28
M  V30 31 1 6 29
M  V30 32 1 10 30
M  V30 33 1 12 31
M  V30 34 1 13 32
M  V30 35 1 15 33
M  V30 36 1 19 34
M  V30 37 1 22 35
M  V30 38 1 22 36
M  V30 39 1 22 37
M  V30 40 1 23 38
M  V30 41 1 23 39
M  V30 42 1 23 40
M  V30 43 1 25 41
M  V30 END BOND
M  V30 BEGIN COLLECTION
M  V30 MDLV30/STEABS ATOMS=(3 6 15 19)
M  V30 END COLLECTION
M  V30 END CTAB
M  END
>  <Column 1>
2452

>  <level_0>
2862

>  <index>
2862

>  <Unnamed: 0>
2862

>  <NO.>
2874

>  <Name>


>  <IUPAC_name>


>  <SMILES>
CC1(C)S[C@H]2C(NC(=O)[C@@H](C(=O)O)c3ccsc3)C(=O)N2[C@H]1C(=O)O

>  <CID>


>  <logBB>


>  <BBB+/BBB->
BBB-

>  <Inchi>
InChI=1S/C15H16N2O6S2/c1-15(2)9(14(22)23)17-11(19)8(12(17)25-15)16-10(18)7(13(20)21)6-3-4-24-5-6/h3-5-7-9-12H-1-2H3-(H-16-18)(H-20-21)(H-22-23)/t7--8?-9--12-/m0/s1

>  <threshold>
-1

>  <reference>
R13|

>  <group>
B

>  <Class>
-1

>  <ABC>
19.64

>  <ABCGG>
17.82

>  <nAcid>
2

>  <nBase>
0

>  <nAromAtom>
5

>  <nAromBond>
5

>  <nAtom>
41

>  <nHeavyAtom>
25

>  <nSpiro>
0

>  <nBridgehead>
0

>  <nHetero>
10

>  <nN>
2

>  <nO>
6

>  <nF>
0

>  <BalabanJ>
1.67

>  <BertzCT>
747.21

>  <nBonds>
43

>  <nBondsO>
27

>  <nBondsS>
34

>  <nBondsD>
4

>  <nBondsT>
0

>  <nBondsA>
5

>  <nBondsM>
9

>  <nBondsKS>
37

>  <nBondsKD>
6

>  <RNCG>
0.15

>  <RPCG>
0.11

>  <FCSP3>
0.47

>  <SZ>
33.33

>  <Sm>
32.01

>  <Sv>
27.51

>  <Sse>
42.57

>  <Sp>
29.06

>  <Si>
46

>  <MZ>
0.81

>  <Mm>
0.78

>  <Mv>
0.67

>  <Mse>
1.04

>  <Mp>
0.71

>  <Mi>
1.12

>  <NsCH3>
2

>  <NdCH2>
0

>  <NssCH2>
0

>  <NtCH>
0

>  <NdsCH>
0

>  <NaaCH>
3

>  <NsssCH>
4

>  <NddC>
0

>  <NtsC>
0

>  <NdssC>
4

>  <NaasC>
1

>  <NaaaC>
0

>  <NssssC>
1

>  <NsNH3>
0

>  <NsNH2>
0

>  <NssNH2>
0

>  <NdNH>
0

>  <NssNH>
1

>  <NaaNH>
0

>  <NtN>
0

>  <NsssNH>
0

>  <NdsN>
0

>  <NaaN>
0

>  <NsssN>
1

>  <NddsN>
0

>  <NaasN>
0

>  <NssssN>
0

>  <NsOH>
2

>  <NdO>
4

>  <NssO>
0

>  <NaaO>
0

>  <NsF>
0

>  <NsSiH3>
0

>  <NssSiH2>
0

>  <NsssSiH>
0

>  <NssssSi>
0

>  <NsPH2>
0

>  <NssPH>
0

>  <NsssP>
0

>  <NdsssP>
0

>  <NsssssP>
0

>  <NsSH>
0

>  <NdS>
0

>  <NssS>
1

>  <NaaS>
1

>  <NdssS>
0

>  <NddssS>
0

>  <NsCl>
0

>  <NsBr>
0

>  <NsI>
0

>  <fragCpx>
129.1

>  <fMF>
0.37

>  <nHBAcc>
6

>  <nHBDon>
3

>  <Kier1>
19.75

>  <Kier2>
7.2

>  <Lipinski>
1

>  <GhoseFilter>
1

>  <FilterItLogS>
-0.73

>  <VMcGowan>
251.71

>  <LabuteASA>
150.74

>  <PEOE_VSA1>
20.43

>  <PEOE_VSA2>
14.38

>  <PEOE_VSA3>
4.79

>  <PEOE_VSA4>
11.34

>  <PEOE_VSA5>
11.76

>  <PEOE_VSA6>
0

>  <PEOE_VSA7>
36.24

>  <PEOE_VSA8>
4.75

>  <PEOE_VSA9>
0

>  <PEOE_VSA10>
17.46

>  <PEOE_VSA11>
5.92

>  <PEOE_VSA12>
11.81

>  <PEOE_VSA13>
0

>  <SMR_VSA1>
29.39

>  <SMR_VSA2>
0

>  <SMR_VSA3>
10.22

>  <SMR_VSA4>
0

>  <SMR_VSA5>
41.97

>  <SMR_VSA6>
0

>  <SMR_VSA7>
22.39

>  <SMR_VSA8>
0

>  <SMR_VSA9>
0

>  <SlogP_VSA1>
5.32

>  <SlogP_VSA2>
61.07

>  <SlogP_VSA3>
19.18

>  <SlogP_VSA4>
0

>  <SlogP_VSA5>
25.33

>  <SlogP_VSA6>
16.83

>  <SlogP_VSA7>
0

>  <SlogP_VSA8>
0

>  <SlogP_VSA9>
0

>  <SlogP_VSA10>
0

>  <SlogP_VSA11>
0

>  <EState_VSA1>
51.88

>  <EState_VSA2>
0

>  <EState_VSA3>
5.56

>  <EState_VSA4>
0

>  <EState_VSA5>
28

>  <EState_VSA6>
30.67

>  <EState_VSA7>
0

>  <EState_VSA8>
5.32

>  <EState_VSA9>
0

>  <EState_VSA10>
29.39

>  <VSA_EState1>
-0.7

>  <VSA_EState2>
48.92

>  <VSA_EState3>
23.92

>  <VSA_EState4>
0.35

>  <VSA_EState5>
-5.08

>  <VSA_EState6>
-0.34

>  <VSA_EState7>
0

>  <VSA_EState8>
3.46

>  <VSA_EState9>
0

>  <apol>
48.53

>  <bpol>
26.72

>  <nRing>
3

>  <nHRing>
3

>  <naRing>
1

>  <naHRing>
1

>  <nARing 2>
2

>  <nAHRing 2>
2

>  <nFRing>
1

>  <nFHRing>
1

>  <nFaRing>
0

>  <nFaHRing>
0

>  <nFARing 2>
1

>  <nFAHRing 2>
1

>  <nRot>
5

>  <SLogP>
0.55

>  <SMR>
90.35

>  <TopoPSA(NO)>
124.01

>  <TopoPSA>
177.55

>  <JGI1>
0.24

>  <JGI2>
0.09

>  <JGI3>
0.1

>  <JGI4>
0.05

>  <JGI5>
0.03

>  <Diameter>
11

>  <Radius>
6

>  <TMWC10>
129.91

>  <TSRW10>
77.06

>  <MW>
384.04

>  <AMW>
9.37

>  <WPath>
1474

>  <WPol>
40

>  <Zagreb1>
138

>  <Zagreb2>
169

>  <mZagreb2>
5.29

>  <yes>


>  <nAR-cont>
1

>  <nHA-cont>
0.921834225

>  <MWHBN>
0.459255408

>  <MWHBN-cont>
0

>  <TPSA-cont>
0

>  <pka_cont>
0.97

>  <yes.1>


>  <BBB_SCORE>
2.406834225

>  <MMFF94 Energy>
42.307

$$$$
Compound 2013
Actelion Java MolfileCreator 2.0

  0  0  0  0  0  0              0 V3000
M  V30 BEGIN CTAB
M  V30 COUNTS 55 58 0 0 0
M  V30 BEGIN ATOM
M  V30 1 F -0.162 1.1344 1.3776 0
M  V30 2 C 0.6188 1.1002 0.2292 0
M  V30 3 C 1.8593 2.0423 0.5124 0
M  V30 4 C -0.346 1.5684 -0.9087 0 CFG=1
M  V30 5 C 1.0357 -0.4016 0.0721 0 CFG=2
M  V30 6 C 2.6351 1.4502 1.7028 0
M  V30 7 C 1.4007 3.467 0.8153 0
M  V30 8 C 2.8426 2.1543 -0.6752 0
M  V30 9 O 0.2868 1.9269 -2.1309 0
M  V30 10 C -1.5081 0.5833 -1.1848 0
M  V30 11 C -0.2372 -1.2533 -0.081 0 CFG=1
M  V30 12 C 1.8549 -0.8789 1.2868 0
M  V30 13 C 2.8939 2.1287 2.8351 0
M  V30 14 C 3.0614 0.0117 1.5627 0
M  V30 15 C 1.6598 4.1379 1.9456 0
M  V30 16 C -1.0738 -0.8913 -1.3232 0
M  V30 17 C -0.1078 -2.7704 -0.1708 0
M  V30 18 C 2.4413 3.521 3.0332 0
M  V30 19 C -2.21 -1.9684 -1.2352 0
M  V30 20 C -0.3053 -1.0891 -2.6618 0
M  V30 21 C -1.486 -3.2358 -0.6838 0 CFG=1
M  V30 22 O 2.7053 4.1365 4.058 0
M  V30 23 O -2.7264 -2.2795 -2.5502 0
M  V30 24 C -3.4588 -1.5387 -0.4363 0
M  V30 25 O -1.2959 -4.2213 -1.6978 0
M  V30 26 O -4.3469 -0.8805 -1.0002 0
M  V30 27 C -3.6214 -1.9306 1.0251 0
M  V30 28 O -4.5971 -1.1208 1.6651 0
M  V30 29 H -0.8335 2.4889 -0.5653 0
M  V30 30 H 1.6688 -0.5183 -0.8122 0
M  V30 31 H 0.8383 3.9848 0.04 0
M  V30 32 H 2.4595 2.7955 -1.476 0
M  V30 33 H 3.7942 2.6024 -0.3596 0
M  V30 34 H 3.0793 1.1827 -1.1188 0
M  V30 35 H 0.9091 1.2379 -2.4066 0
M  V30 36 H -2.2002 0.6798 -0.3394 0
M  V30 37 H -2.058 0.8936 -2.0818 0
M  V30 38 H -0.8403 -1.0535 0.8151 0
M  V30 39 H 1.2158 -0.9095 2.1793 0
M  V30 40 H 2.209 -1.9029 1.1194 0
M  V30 41 H 3.4306 1.6962 3.6719 0
M  V30 42 H 3.565 -0.345 2.4694 0
M  V30 43 H 3.7916 -0.0815 0.7509 0
M  V30 44 H 1.3221 5.1538 2.1113 0
M  V30 45 H 0.7008 -3.0708 -0.8466 0
M  V30 46 H 0.1057 -3.2109 0.809 0
M  V30 47 H -0.8672 -0.6567 -3.4977 0
M  V30 48 H -0.1441 -2.1456 -2.8992 0
M  V30 49 H 0.6866 -0.6407 -2.6675 0
M  V30 50 H -2.038 -3.7227 0.1227 0
M  V30 51 H -3.3424 -1.5509 -2.7805 0
M  V30 52 H -1.8535 -3.9344 -2.4539 0
M  V30 53 H -3.9534 -2.9705 1.0795 0
M  V30 54 H -2.6868 -1.8108 1.5714 0
M  V30 55 H -5.2733 -0.9103 0.9898 0
M  V30 END ATOM
M  V30 BEGIN BOND
M  V30 1 1 1 2
M  V30 2 1 2 3
M  V30 3 1 2 4
M  V30 4 1 2 5
M  V30 5 1 3 6
M  V30 6 1 3 7
M  V30 7 1 3 8
M  V30 8 1 4 9
M  V30 9 1 4 10
M  V30 10 1 5 11
M  V30 11 1 5 12
M  V30 12 2 6 13
M  V30 13 1 6 14
M  V30 14 2 7 15
M  V30 15 1 10 16
M  V30 16 1 11 17
M  V30 17 1 13 18
M  V30 18 1 16 19
M  V30 19 1 16 20
M  V30 20 1 17 21
M  V30 21 2 18 22
M  V30 22 1 19 23
M  V30 23 1 19 24
M  V30 24 1 21 25
M  V30 25 2 24 26
M  V30 26 1 24 27
M  V30 27 1 27 28
M  V30 28 1 11 16
M  V30 29 1 12 14
M  V30 30 1 15 18
M  V30 31 1 19 21
M  V30 32 1 4 29
M  V30 33 1 5 30
M  V30 34 1 7 31
M  V30 35 1 8 32
M  V30 36 1 8 33
M  V30 37 1 8 34
M  V30 38 1 9 35
M  V30 39 1 10 36
M  V30 40 1 10 37
M  V30 41 1 11 38
M  V30 42 1 12 39
M  V30 43 1 12 40
M  V30 44 1 13 41
M  V30 45 1 14 42
M  V30 46 1 14 43
M  V30 47 1 15 44
M  V30 48 1 17 45
M  V30 49 1 17 46
M  V30 50 1 20 47
M  V30 51 1 20 48
M  V30 52 1 20 49
M  V30 53 1 21 50
M  V30 54 1 23 51
M  V30 55 1 25 52
M  V30 56 1 27 53
M  V30 57 1 27 54
M  V30 58 1 28 55
M  V30 END BOND
M  V30 BEGIN COLLECTION
M  V30 MDLV30/STEABS ATOMS=(4 4 5 11 21)
M  V30 END COLLECTION
M  V30 END CTAB
M  END
>  <Column 1>
2455

>  <level_0>
2889

>  <index>
2889

>  <Unnamed: 0>
2889

>  <NO.>
2901

>  <Name>


>  <IUPAC_name>


>  <SMILES>
CC12C=CC(=O)C=C1CC[C@H]1[C@@H]3C[C@H](O)C(O)(C(=O)CO)C3(C)C[C@H](O)C12F

>  <CID>


>  <logBB>


>  <BBB+/BBB->
BBB+

>  <Inchi>
InChI=1S/C21H27FO6/c1-18-6-5-12(24)7-11(18)3-4-13-14-8-15(25)21(28-17(27)10-23)19(14-2)9-16(26)20(13-18)22/h5-7-13-16-23-25-26-28H-3-4-8-10H2-1-2H3/t13--14--15--16--18?-19?-20?-21?/m0/s1

>  <threshold>
-1

>  <reference>
R13|

>  <group>
B

>  <Class>
1

>  <ABC>
22.39

>  <ABCGG>
18.86

>  <nAcid>
0

>  <nBase>
0

>  <nAromAtom>
0

>  <nAromBond>
0

>  <nAtom>
55

>  <nHeavyAtom>
28

>  <nSpiro>
0

>  <nBridgehead>
0

>  <nHetero>
7

>  <nN>
0

>  <nO>
6

>  <nF>
1

>  <BalabanJ>
1.77

>  <BertzCT>
806.72

>  <nBonds>
58

>  <nBondsO>
31

>  <nBondsS>
54

>  <nBondsD>
4

>  <nBondsT>
0

>  <nBondsA>
0

>  <nBondsM>
4

>  <nBondsKS>
54

>  <nBondsKD>
4

>  <RNCG>
0.14

>  <RPCG>
0.08

>  <FCSP3>
0.71

>  <SZ>
35

>  <Sm>
32.84

>  <Sv>
33.25

>  <Sse>
55.93

>  <Sp>
35

>  <Si>
62.41

>  <MZ>
0.64

>  <Mm>
0.6

>  <Mv>
0.6

>  <Mse>
1.02

>  <Mp>
0.64

>  <Mi>
1.13

>  <NsCH3>
2

>  <NdCH2>
0

>  <NssCH2>
5

>  <NtCH>
0

>  <NdsCH>
3

>  <NaaCH>
0

>  <NsssCH>
4

>  <NddC>
0

>  <NtsC>
0

>  <NdssC>
3

>  <NaasC>
0

>  <NaaaC>
0

>  <NssssC>
4

>  <NsNH3>
0

>  <NsNH2>
0

>  <NssNH2>
0

>  <NdNH>
0

>  <NssNH>
0

>  <NaaNH>
0

>  <NtN>
0

>  <NsssNH>
0

>  <NdsN>
0

>  <NaaN>
0

>  <NsssN>
0

>  <NddsN>
0

>  <NaasN>
0

>  <NssssN>
0

>  <NsOH>
4

>  <NdO>
2

>  <NssO>
0

>  <NaaO>
0

>  <NsF>
1

>  <NsSiH3>
0

>  <NssSiH2>
0

>  <NsssSiH>
0

>  <NssssSi>
0

>  <NsPH2>
0

>  <NssPH>
0

>  <NsssP>
0

>  <NdsssP>
0

>  <NsssssP>
0

>  <NsSH>
0

>  <NdS>
0

>  <NssS>
0

>  <NaaS>
0

>  <NdssS>
0

>  <NddssS>
0

>  <NsCl>
0

>  <NsBr>
0

>  <NsI>
0

>  <fragCpx>
205.07

>  <fMF>
0.31

>  <nHBAcc>
6

>  <nHBDon>
4

>  <Kier1>
21.24

>  <Kier2>
6.5

>  <Lipinski>
1

>  <GhoseFilter>
1

>  <FilterItLogS>
-1.83

>  <VMcGowan>
283.09

>  <LabuteASA>
162.3

>  <PEOE_VSA1>
20.43

>  <PEOE_VSA2>
9.59

>  <PEOE_VSA3>
4.39

>  <PEOE_VSA4>
0

>  <PEOE_VSA5>
0

>  <PEOE_VSA6>
18.57

>  <PEOE_VSA7>
50.68

>  <PEOE_VSA8>
16.75

>  <PEOE_VSA9>
12.21

>  <PEOE_VSA10>
6.61

>  <PEOE_VSA11>
22.84

>  <PEOE_VSA12>
0

>  <PEOE_VSA13>
0

>  <SMR_VSA1>
34.41

>  <SMR_VSA2>
0

>  <SMR_VSA3>
0

>  <SMR_VSA4>
22.67

>  <SMR_VSA5>
63.01

>  <SMR_VSA6>
6.61

>  <SMR_VSA7>
23.8

>  <SMR_VSA8>
0

>  <SMR_VSA9>
0

>  <SlogP_VSA1>
0

>  <SlogP_VSA2>
62.08

>  <SlogP_VSA3>
9.59

>  <SlogP_VSA4>
22.67

>  <SlogP_VSA5>
39.53

>  <SlogP_VSA6>
23.8

>  <SlogP_VSA7>
0

>  <SlogP_VSA8>
0

>  <SlogP_VSA9>
0

>  <SlogP_VSA10>
4.39

>  <SlogP_VSA11>
0

>  <EState_VSA1>
58.53

>  <EState_VSA2>
18.62

>  <EState_VSA3>
18.41

>  <EState_VSA4>
0

>  <EState_VSA5>
18.23

>  <EState_VSA6>
13.85

>  <EState_VSA7>
0

>  <EState_VSA8>
0

>  <EState_VSA9>
0

>  <EState_VSA10>
30.02

>  <VSA_EState1>
16.78

>  <VSA_EState2>
24.19

>  <VSA_EState3>
42.1

>  <VSA_EState4>
-6.12

>  <VSA_EState5>
-2.38

>  <VSA_EState6>
0

>  <VSA_EState7>
1.93

>  <VSA_EState8>
2.33

>  <VSA_EState9>
0

>  <apol>
58.44

>  <bpol>
29.94

>  <nRing>
4

>  <nHRing>
0

>  <naRing>
0

>  <naHRing>
0

>  <nARing 2>
4

>  <nAHRing 2>
0

>  <nFRing>
1

>  <nFHRing>
0

>  <nFaRing>
0

>  <nFaHRing>
0

>  <nFARing 2>
1

>  <nFAHRing 2>
0

>  <nRot>
2

>  <SLogP>
0.62

>  <SMR>
96.79

>  <TopoPSA(NO)>
115.06

>  <TopoPSA>
115.06

>  <JGI1>
0.32

>  <JGI2>
0.16

>  <JGI3>
0.08

>  <JGI4>
0.06

>  <JGI5>
0.04

>  <Diameter>
12

>  <Radius>
6

>  <TMWC10>
140.69

>  <TSRW10>
80.08

>  <MW>
394.18

>  <AMW>
7.17

>  <WPath>
1670

>  <WPol>
70

>  <Zagreb1>
168

>  <Zagreb2>
221

>  <mZagreb2>
5.82

>  <yes>


>  <nAR-cont>
0.199399

>  <nHA-cont>
0.82432561

>  <MWHBN>
0.503677682

>  <MWHBN-cont>
0

>  <TPSA-cont>
0.196809752

>  <pka_cont>
0.97

>  <yes.1>


>  <BBB_SCORE>
1.902344114

>  <MMFF94 Energy>
192.12

$$$$
Compound 2014
Actelion Java MolfileCreator 2.0

  0  0  0  0  0  0              0 V3000
M  V30 BEGIN CTAB
M  V30 COUNTS 52 55 0 0 0
M  V30 BEGIN ATOM
M  V30 1 Cl -3.6006 0.3269 3.6825 0
M  V30 2 C -2.1151 -0.1267 2.7967 0 CFG=2
M  V30 3 C -0.8173 0.253 3.4954 0
M  V30 4 C -2.1699 0.5118 1.4055 0
M  V30 5 C -0.7555 0.9237 4.6639 0
M  V30 6 C 0.454 -0.1654 2.719 0
M  V30 7 C -0.9448 0.1399 0.541 0 CFG=2
M  V30 8 C 0.5206 1.3275 5.2902 0
M  V30 9 C 1.7203 0.3208 3.4156 0
M  V30 10 C 0.359 0.4852 1.3007 0 CFG=2
M  V30 11 C 0.5291 -1.7107 2.7017 0
M  V30 12 C -1.0265 0.8466 -0.8499 0 CFG=1
M  V30 13 O 0.5458 1.9323 6.3541 0
M  V30 14 C 1.7604 0.9887 4.5744 0
M  V30 15 C 1.5053 0.1674 0.3527 0
M  V30 16 C 0.2652 0.8001 -1.7308 0
M  V30 17 C -2.0927 0.1894 -1.7499 0
M  V30 18 O 2.3332 -0.7226 0.5267 0
M  V30 19 C 1.54 0.9986 -0.9013 0
M  V30 20 C 0.1451 -0.5935 -2.4315 0
M  V30 21 C 0.1982 1.9681 -2.7538 0
M  V30 22 C -1.3501 -0.6733 -2.7787 0
M  V30 23 O 0.4168 -1.6673 -1.5261 0
M  V30 24 C 1.0456 -0.82 -3.6626 0
M  V30 25 O 2.0741 -0.1651 -3.8588 0
M  V30 26 C 0.705 -1.9918 -4.5815 0
M  V30 27 O 1.5376 -2.0078 -5.7338 0
M  V30 28 H -2.1712 -1.2155 2.704 0
M  V30 29 H -3.091 0.1966 0.9014 0
M  V30 30 H -2.2261 1.6053 1.501 0
M  V30 31 H -1.6276 1.2344 5.2284 0
M  V30 32 H -0.9799 -0.9432 0.3751 0
M  V30 33 H 2.6725 0.0757 2.9452 0
M  V30 34 H 0.3917 1.5776 1.4425 0
M  V30 35 H 1.5005 -2.0798 2.3565 0
M  V30 36 H -0.2295 -2.1655 2.0585 0
M  V30 37 H 0.3847 -2.1215 3.7096 0
M  V30 38 H -1.3057 1.8928 -0.6645 0
M  V30 39 H 2.6891 1.2966 5.0396 0
M  V30 40 H -2.8151 -0.4164 -1.1952 0
M  V30 41 H -2.669 0.9624 -2.2728 0
M  V30 42 H 1.6538 2.0443 -0.589 0
M  V30 43 H 2.438 0.7436 -1.4734 0
M  V30 44 H 1.1153 2.0431 -3.3458 0
M  V30 45 H 0.0799 2.9282 -2.2369 0
M  V30 46 H -0.6384 1.8731 -3.4524 0
M  V30 47 H -1.7241 -1.7032 -2.7421 0
M  V30 48 H -1.5564 -0.285 -3.783 0
M  V30 49 H 1.3693 -1.6624 -1.2945 0
M  V30 50 H 0.8515 -2.9269 -4.0347 0
M  V30 51 H -0.3281 -1.9209 -4.9254 0
M  V30 52 H 2.3723 -1.5662 -5.4773 0
M  V30 END ATOM
M  V30 BEGIN BOND
M  V30 1 1 1 2
M  V30 2 1 2 3
M  V30 3 1 2 4
M  V30 4 2 3 5
M  V30 5 1 3 6
M  V30 6 1 4 7
M  V30 7 1 5 8
M  V30 8 1 6 9
M  V30 9 1 6 10
M  V30 10 1 6 11
M  V30 11 1 7 12
M  V30 12 2 8 13
M  V30 13 1 8 14
M  V30 14 1 10 15
M  V30 15 1 12 16
M  V30 16 1 12 17
M  V30 17 2 15 18
M  V30 18 1 15 19
M  V30 19 1 16 20
M  V30 20 1 16 21
M  V30 21 1 17 22
M  V30 22 1 20 23
M  V30 23 1 20 24
M  V30 24 2 24 25
M  V30 25 1 24 26
M  V30 26 1 26 27
M  V30 27 1 7 10
M  V30 28 2 9 14
M  V30 29 1 16 19
M  V30 30 1 20 22
M  V30 31 1 2 28
M  V30 32 1 4 29
M  V30 33 1 4 30
M  V30 34 1 5 31
M  V30 35 1 7 32
M  V30 36 1 9 33
M  V30 37 1 10 34
M  V30 38 1 11 35
M  V30 39 1 11 36
M  V30 40 1 11 37
M  V30 41 1 12 38
M  V30 42 1 14 39
M  V30 43 1 17 40
M  V30 44 1 17 41
M  V30 45 1 19 42
M  V30 46 1 19 43
M  V30 47 1 21 44
M  V30 48 1 21 45
M  V30 49 1 21 46
M  V30 50 1 22 47
M  V30 51 1 22 48
M  V30 52 1 23 49
M  V30 53 1 26 50
M  V30 54 1 26 51
M  V30 55 1 27 52
M  V30 END BOND
M  V30 BEGIN COLLECTION
M  V30 MDLV30/STEABS ATOMS=(4 2 7 10 12)
M  V30 END COLLECTION
M  V30 END CTAB
M  END
>  <Column 1>
2456

>  <level_0>
2891

>  <index>
2891

>  <Unnamed: 0>
2891

>  <NO.>
2903

>  <Name>


>  <IUPAC_name>


>  <SMILES>
CC12C=CC(=O)C=C1[C@@H](Cl)C[C@@H]1[C@@H]2C(=O)CC2(C)[C@H]1CCC2(O)C(=O)CO

>  <CID>


>  <logBB>


>  <BBB+/BBB->
BBB+

>  <Inchi>
InChI=1S/C21H25ClO5/c1-19-5-3-11(24)7-14(19)15(22)8-12-13-4-6-21(27-17(26)10-23)20(13-2)9-16(25)18(12)19/h3-5-7-12-13-15-18-23-27H-4-6-8-10H2-1-2H3/t12--13--15--18+-19?-20?-21?/m0/s1

>  <threshold>
-1

>  <reference>
R13|

>  <group>
B

>  <Class>
1

>  <ABC>
21.62

>  <ABCGG>
18.09

>  <nAcid>
0

>  <nBase>
0

>  <nAromAtom>
0

>  <nAromBond>
0

>  <nAtom>
52

>  <nHeavyAtom>
27

>  <nSpiro>
0

>  <nBridgehead>
0

>  <nHetero>
6

>  <nN>
0

>  <nO>
5

>  <nF>
0

>  <BalabanJ>
1.71

>  <BertzCT>
800.39

>  <nBonds>
55

>  <nBondsO>
30

>  <nBondsS>
50

>  <nBondsD>
5

>  <nBondsT>
0

>  <nBondsA>
0

>  <nBondsM>
5

>  <nBondsKS>
50

>  <nBondsKD>
5

>  <RNCG>
0.18

>  <RPCG>
0.1

>  <FCSP3>
0.67

>  <SZ>
34.67

>  <Sm>
32.71

>  <Sv>
32.44

>  <Sse>
52.52

>  <Sp>
34.69

>  <Si>
58.39

>  <MZ>
0.67

>  <Mm>
0.63

>  <Mv>
0.62

>  <Mse>
1.01

>  <Mp>
0.67

>  <Mi>
1.12

>  <NsCH3>
2

>  <NdCH2>
0

>  <NssCH2>
5

>  <NtCH>
0

>  <NdsCH>
3

>  <NaaCH>
0

>  <NsssCH>
4

>  <NddC>
0

>  <NtsC>
0

>  <NdssC>
4

>  <NaasC>
0

>  <NaaaC>
0

>  <NssssC>
3

>  <NsNH3>
0

>  <NsNH2>
0

>  <NssNH2>
0

>  <NdNH>
0

>  <NssNH>
0

>  <NaaNH>
0

>  <NtN>
0

>  <NsssNH>
0

>  <NdsN>
0

>  <NaaN>
0

>  <NsssN>
0

>  <NddsN>
0

>  <NaasN>
0

>  <NssssN>
0

>  <NsOH>
2

>  <NdO>
3

>  <NssO>
0

>  <NaaO>
0

>  <NsF>
0

>  <NsSiH3>
0

>  <NssSiH2>
0

>  <NsssSiH>
0

>  <NssssSi>
0

>  <NsPH2>
0

>  <NssPH>
0

>  <NsssP>
0

>  <NdsssP>
0

>  <NsssssP>
0

>  <NsSH>
0

>  <NdS>
0

>  <NssS>
0

>  <NaaS>
0

>  <NdssS>
0

>  <NddssS>
0

>  <NsCl>
1

>  <NsBr>
0

>  <NsI>
0

>  <fragCpx>
198.06

>  <fMF>
0.33

>  <nHBAcc>
5

>  <nHBDon>
2

>  <Kier1>
20.28

>  <Kier2>
6.5

>  <Lipinski>
1

>  <GhoseFilter>
1

>  <FilterItLogS>
-3.22

>  <VMcGowan>
283.4

>  <LabuteASA>
163.01

>  <PEOE_VSA1>
10.21

>  <PEOE_VSA2>
14.38

>  <PEOE_VSA3>
0

>  <PEOE_VSA4>
0

>  <PEOE_VSA5>
11.6

>  <PEOE_VSA6>
19.92

>  <PEOE_VSA7>
48.82

>  <PEOE_VSA8>
23.17

>  <PEOE_VSA9>
5.38

>  <PEOE_VSA10>
17.99

>  <PEOE_VSA11>
11.57

>  <PEOE_VSA12>
0

>  <PEOE_VSA13>
0

>  <SMR_VSA1>
24.6

>  <SMR_VSA2>
0

>  <SMR_VSA3>
0

>  <SMR_VSA4>
28.58

>  <SMR_VSA5>
50.51

>  <SMR_VSA6>
6.61

>  <SMR_VSA7>
23.8

>  <SMR_VSA8>
0

>  <SMR_VSA9>
0

>  <SlogP_VSA1>
0

>  <SlogP_VSA2>
45.15

>  <SlogP_VSA3>
14.38

>  <SlogP_VSA4>
28.58

>  <SlogP_VSA5>
39.53

>  <SlogP_VSA6>
23.8

>  <SlogP_VSA7>
0

>  <SlogP_VSA8>
0

>  <SlogP_VSA9>
0

>  <SlogP_VSA10>
0

>  <SlogP_VSA11>
0

>  <EState_VSA1>
28.82

>  <EState_VSA2>
47.54

>  <EState_VSA3>
12.84

>  <EState_VSA4>
5.57

>  <EState_VSA5>
6.08

>  <EState_VSA6>
6.08

>  <EState_VSA7>
19.92

>  <EState_VSA8>
0

>  <EState_VSA9>
11.6

>  <EState_VSA10>
24.6

>  <VSA_EState1>
0

>  <VSA_EState2>
37.58

>  <VSA_EState3>
20.16

>  <VSA_EState4>
-2.38

>  <VSA_EState5>
-1.13

>  <VSA_EState6>
0

>  <VSA_EState7>
6.41

>  <VSA_EState8>
3.05

>  <VSA_EState9>
0

>  <apol>
57.93

>  <bpol>
28.19

>  <nRing>
4

>  <nHRing>
0

>  <naRing>
0

>  <naHRing>
0

>  <nARing 2>
4

>  <nAHRing 2>
0

>  <nFRing>
1

>  <nFHRing>
0

>  <nFaRing>
0

>  <nFaHRing>
0

>  <nFARing 2>
1

>  <nFAHRing 2>
0

>  <nRot>
2

>  <SLogP>
1.98

>  <SMR>
99.07

>  <TopoPSA(NO)>
91.67

>  <TopoPSA>
91.67

>  <JGI1>
0.3

>  <JGI2>
0.14

>  <JGI3>
0.08

>  <JGI4>
0.06

>  <JGI5>
0.04

>  <Diameter>
12

>  <Radius>
6

>  <TMWC10>
137.64

>  <TSRW10>
78.39

>  <MW>
392.14

>  <AMW>
7.54

>  <WPath>
1553

>  <WPol>
62

>  <Zagreb1>
160

>  <Zagreb2>
206

>  <mZagreb2>
5.63

>  <yes>


>  <nAR-cont>
0.199399

>  <nHA-cont>
0.860070871

>  <MWHBN>
0.353490273

>  <MWHBN-cont>
0.65714362

>  <TPSA-cont>
0.360086476

>  <pka_cont>
0.97

>  <yes.1>


>  <BBB_SCORE>
3.250358254

>  <MMFF94 Energy>
118.87

$$$$
Compound 2015
Actelion Java MolfileCreator 2.0

  0  0  0  0  0  0              0 V3000
M  V30 BEGIN CTAB
M  V30 COUNTS 55 58 0 0 0
M  V30 BEGIN ATOM
M  V30 1 O -1.2125 1.6169 5.019 0
M  V30 2 C -1.0607 1.5515 3.7995 0
M  V30 3 C 0.0823 2.2037 3.0831 0 CFG=1
M  V30 4 C -2.0225 0.7245 2.9717 0
M  V30 5 C 0.9532 3.1471 3.8554 0
M  V30 6 C 1.0871 1.1721 2.5005 0
M  V30 7 C -1.8956 0.855 1.4544 0
M  V30 8 O 0.5885 4.0245 4.6213 0
M  V30 9 C 2.3581 2.9973 3.458 0
M  V30 10 C 2.4025 1.9268 2.6599 0
M  V30 11 C 0.705 0.8731 1.0017 0 CFG=2
M  V30 12 C 1.2279 -0.0943 3.3774 0
M  V30 13 C -0.6812 0.1307 0.8137 0 CFG=2
M  V30 14 C 1.849 0.185 0.1891 0 CFG=1
M  V30 15 C -0.9284 -0.0178 -0.7099 0 CFG=1
M  V30 16 O 2.2389 -1.0336 0.8046 0
M  V30 17 C 1.4911 -0.0684 -1.2854 0
M  V30 18 C 0.161 -0.823 -1.4597 0
M  V30 19 C -2.2248 -0.6668 -1.198 0
M  V30 20 C -0.4351 -0.8024 -2.9061 0
M  V30 21 C 0.2813 -2.2886 -0.9527 0
M  V30 22 C -1.9381 -1.0812 -2.6559 0
M  V30 23 O -0.3166 0.5198 -3.4503 0
M  V30 24 C 0.239 -1.7838 -3.8909 0
M  V30 25 O 1.4202 -2.1316 -3.7929 0
M  V30 26 C -0.5928 -2.281 -5.0691 0
M  V30 27 O 0.2189 -2.8547 -6.0825 0
M  V30 28 H -0.3398 2.8466 2.299 0
M  V30 29 H -1.9189 -0.3242 3.2692 0
M  V30 30 H -3.0304 1.0513 3.2569 0
M  V30 31 H -1.9173 1.9061 1.144 0
M  V30 32 H -2.8167 0.4134 1.0572 0
M  V30 33 H 3.1515 3.6486 3.7788 0
M  V30 34 H 3.3361 1.5597 2.2489 0
M  V30 35 H 0.5826 1.8547 0.5154 0
M  V30 36 H 0.3972 -0.7917 3.2485 0
M  V30 37 H 1.2735 0.1614 4.4438 0
M  V30 38 H 2.1506 -0.6439 3.1643 0
M  V30 39 H -0.6234 -0.8652 1.2624 0
M  V30 40 H 2.7315 0.8339 0.1936 0
M  V30 41 H -0.9418 1.0109 -1.1056 0
M  V30 42 H 2.951 -1.4237 0.2663 0
M  V30 43 H 2.2994 -0.6287 -1.77 0
M  V30 44 H 1.4428 0.9065 -1.7856 0
M  V30 45 H -3.0712 0.0266 -1.1575 0
M  V30 46 H -2.4845 -1.5449 -0.596 0
M  V30 47 H 1.1855 -2.7666 -1.3443 0
M  V30 48 H -0.5644 -2.9117 -1.2603 0
M  V30 49 H 0.332 -2.3649 0.1349 0
M  V30 50 H -2.5748 -0.5073 -3.339 0
M  V30 51 H -2.1938 -2.1391 -2.7778 0
M  V30 52 H -0.8199 0.5785 -4.2802 0
M  V30 53 H -1.2915 -3.0444 -4.7189 0
M  V30 54 H -1.1421 -1.4467 -5.5118 0
M  V30 55 H 1.0543 -3.1234 -5.6473 0
M  V30 END ATOM
M  V30 BEGIN BOND
M  V30 1 2 1 2
M  V30 2 1 2 3
M  V30 3 1 2 4
M  V30 4 1 3 5
M  V30 5 1 3 6
M  V30 6 1 4 7
M  V30 7 2 5 8
M  V30 8 1 5 9
M  V30 9 1 6 10
M  V30 10 1 6 11
M  V30 11 1 6 12
M  V30 12 1 7 13
M  V30 13 1 11 14
M  V30 14 1 13 15
M  V30 15 1 14 16
M  V30 16 1 14 17
M  V30 17 1 15 18
M  V30 18 1 15 19
M  V30 19 1 18 20
M  V30 20 1 18 21
M  V30 21 1 19 22
M  V30 22 1 20 23
M  V30 23 1 20 24
M  V30 24 2 24 25
M  V30 25 1 24 26
M  V30 26 1 26 27
M  V30 27 2 9 10
M  V30 28 1 11 13
M  V30 29 1 17 18
M  V30 30 1 20 22
M  V30 31 1 3 28
M  V30 32 1 4 29
M  V30 33 1 4 30
M  V30 34 1 7 31
M  V30 35 1 7 32
M  V30 36 1 9 33
M  V30 37 1 10 34
M  V30 38 1 11 35
M  V30 39 1 12 36
M  V30 40 1 12 37
M  V30 41 1 12 38
M  V30 42 1 13 39
M  V30 43 1 14 40
M  V30 44 1 15 41
M  V30 45 1 16 42
M  V30 46 1 17 43
M  V30 47 1 17 44
M  V30 48 1 19 45
M  V30 49 1 19 46
M  V30 50 1 21 47
M  V30 51 1 21 48
M  V30 52 1 21 49
M  V30 53 1 22 50
M  V30 54 1 22 51
M  V30 55 1 23 52
M  V30 56 1 26 53
M  V30 57 1 26 54
M  V30 58 1 27 55
M  V30 END BOND
M  V30 BEGIN COLLECTION
M  V30 MDLV30/STEABS ATOMS=(5 3 11 13 14 15)
M  V30 END COLLECTION
M  V30 END CTAB
M  END
>  <Column 1>
2457

>  <level_0>
2894

>  <index>
2894

>  <Unnamed: 0>
2894

>  <NO.>
2906

>  <Name>


>  <IUPAC_name>


>  <SMILES>
CC12C=CC(=O)[C@@H]1C(=O)CC[C@@H]1[C@@H]2[C@@H](O)CC2(C)[C@H]1CCC2(O)C(=O)CO

>  <CID>


>  <logBB>


>  <BBB+/BBB->
BBB+

>  <Inchi>
InChI=1S/C21H28O6/c1-19-7-6-14(24)18(19)13(23)4-3-11-12-5-8-21(27-16(26)10-22)20(12-2)9-15(25)17(11)19/h6-7-11-12-15-17-18-22-25-27H-3-5-8-10H2-1-2H3/t11--12--15--17+-18--19?-20?-21?/m0/s1

>  <threshold>
-1

>  <reference>
R13|

>  <group>
B

>  <Class>
1

>  <ABC>
21.58

>  <ABCGG>
18.98

>  <nAcid>
0

>  <nBase>
0

>  <nAromAtom>
0

>  <nAromBond>
0

>  <nAtom>
55

>  <nHeavyAtom>
27

>  <nSpiro>
0

>  <nBridgehead>
0

>  <nHetero>
6

>  <nN>
0

>  <nO>
6

>  <nF>
0

>  <BalabanJ>
1.75

>  <BertzCT>
742.95

>  <nBonds>
58

>  <nBondsO>
30

>  <nBondsS>
54

>  <nBondsD>
4

>  <nBondsT>
0

>  <nBondsA>
0

>  <nBondsM>
4

>  <nBondsKS>
54

>  <nBondsKD>
4

>  <RNCG>
0.16

>  <RPCG>
0.09

>  <FCSP3>
0.76

>  <SZ>
33.67

>  <Sm>
31.34

>  <Sv>
32.87

>  <Sse>
55.41

>  <Sp>
35.06

>  <Si>
62.07

>  <MZ>
0.61

>  <Mm>
0.57

>  <Mv>
0.6

>  <Mse>
1.01

>  <Mp>
0.64

>  <Mi>
1.13

>  <NsCH3>
2

>  <NdCH2>
0

>  <NssCH2>
6

>  <NtCH>
0

>  <NdsCH>
2

>  <NaaCH>
0

>  <NsssCH>
5

>  <NddC>
0

>  <NtsC>
0

>  <NdssC>
3

>  <NaasC>
0

>  <NaaaC>
0

>  <NssssC>
3

>  <NsNH3>
0

>  <NsNH2>
0

>  <NssNH2>
0

>  <NdNH>
0

>  <NssNH>
0

>  <NaaNH>
0

>  <NtN>
0

>  <NsssNH>
0

>  <NdsN>
0

>  <NaaN>
0

>  <NsssN>
0

>  <NddsN>
0

>  <NaasN>
0

>  <NssssN>
0

>  <NsOH>
3

>  <NdO>
3

>  <NssO>
0

>  <NaaO>
0

>  <NsF>
0

>  <NsSiH3>
0

>  <NssSiH2>
0

>  <NsssSiH>
0

>  <NssssSi>
0

>  <NsPH2>
0

>  <NssPH>
0

>  <NsssP>
0

>  <NdsssP>
0

>  <NsssssP>
0

>  <NsSH>
0

>  <NdS>
0

>  <NssS>
0

>  <NaaS>
0

>  <NdssS>
0

>  <NddssS>
0

>  <NsCl>
0

>  <NsBr>
0

>  <NsI>
0

>  <fragCpx>
198.06

>  <fMF>
0.31

>  <nHBAcc>
6

>  <nHBDon>
3

>  <Kier1>
20.28

>  <Kier2>
6.5

>  <Lipinski>
1

>  <GhoseFilter>
1

>  <FilterItLogS>
-2.06

>  <VMcGowan>
281.33

>  <LabuteASA>
158.19

>  <PEOE_VSA1>
15.32

>  <PEOE_VSA2>
14.38

>  <PEOE_VSA3>
0

>  <PEOE_VSA4>
0

>  <PEOE_VSA5>
0

>  <PEOE_VSA6>
19.92

>  <PEOE_VSA7>
49.51

>  <PEOE_VSA8>
17.25

>  <PEOE_VSA9>
12.02

>  <PEOE_VSA10>
17.99

>  <PEOE_VSA11>
11.57

>  <PEOE_VSA12>
0

>  <PEOE_VSA13>
0

>  <SMR_VSA1>
29.7

>  <SMR_VSA2>
0

>  <SMR_VSA3>
0

>  <SMR_VSA4>
34.5

>  <SMR_VSA5>
57.66

>  <SMR_VSA6>
6.61

>  <SMR_VSA7>
12.15

>  <SMR_VSA8>
0

>  <SMR_VSA9>
0

>  <SlogP_VSA1>
0

>  <SlogP_VSA2>
50.98

>  <SlogP_VSA3>
14.38

>  <SlogP_VSA4>
34.5

>  <SlogP_VSA5>
45.95

>  <SlogP_VSA6>
12.15

>  <SlogP_VSA7>
0

>  <SlogP_VSA8>
0

>  <SlogP_VSA9>
0

>  <SlogP_VSA10>
0

>  <SlogP_VSA11>
0

>  <EState_VSA1>
40.84

>  <EState_VSA2>
48.58

>  <EState_VSA3>
12.84

>  <EState_VSA4>
0

>  <EState_VSA5>
6.08

>  <EState_VSA6>
6.08

>  <EState_VSA7>
13.85

>  <EState_VSA8>
0

>  <EState_VSA9>
0

>  <EState_VSA10>
29.7

>  <VSA_EState1>
0

>  <VSA_EState2>
37.49

>  <VSA_EState3>
31.73

>  <VSA_EState4>
-3.23

>  <VSA_EState5>
-1.94

>  <VSA_EState6>
0

>  <VSA_EState7>
4.36

>  <VSA_EState8>
3

>  <VSA_EState9>
0

>  <apol>
58.55

>  <bpol>
30.69

>  <nRing>
4

>  <nHRing>
0

>  <naRing>
0

>  <naHRing>
0

>  <nARing 2>
4

>  <nAHRing 2>
0

>  <nFRing>
1

>  <nFHRing>
0

>  <nFaRing>
0

>  <nFaHRing>
0

>  <nFARing 2>
1

>  <nFAHRing 2>
0

>  <nRot>
2

>  <SLogP>
0.82

>  <SMR>
95.46

>  <TopoPSA(NO)>
111.9

>  <TopoPSA>
111.9

>  <JGI1>
0.28

>  <JGI2>
0.15

>  <JGI3>
0.08

>  <JGI4>
0.05

>  <JGI5>
0.04

>  <Diameter>
11

>  <Radius>
6

>  <TMWC10>
137.7

>  <TSRW10>
80.3

>  <MW>
376.19

>  <AMW>
6.84

>  <WPath>
1517

>  <WPol>
64

>  <Zagreb1>
160

>  <Zagreb2>
207

>  <mZagreb2>
5.66

>  <yes>


>  <nAR-cont>
0.199399

>  <nHA-cont>
0.860070871

>  <MWHBN>
0.464022336

>  <MWHBN-cont>
0

>  <TPSA-cont>
0.218868514

>  <pka_cont>
0.97

>  <yes.1>


>  <BBB_SCORE>
1.9822069

>  <MMFF94 Energy>
129.77

$$$$
Compound 2016
Actelion Java MolfileCreator 2.0

  0  0  0  0  0  0              0 V3000
M  V30 BEGIN CTAB
M  V30 COUNTS 48 52 0 0 0
M  V30 BEGIN ATOM
M  V30 1 F -0.3229 2.9092 -1.7771 0
M  V30 2 C -0.6311 1.6144 -1.6051 0
M  V30 3 C -0.1361 0.8777 -0.5207 0
M  V30 4 C -1.4695 1.0221 -2.539 0
M  V30 5 N -0.4815 -0.4285 -0.3826 0
M  V30 6 N 0.7041 1.4026 0.4308 0
M  V30 7 C -1.8074 -0.3171 -2.3785 0
M  V30 8 C -1.3047 -1.0222 -1.2849 0
M  V30 9 C 1.0592 2.8039 0.5513 0
M  V30 10 C 1.0283 0.6374 1.6241 0
M  V30 11 C -2.6984 -0.9876 -3.3526 0
M  V30 12 N -1.6691 -2.3882 -1.1253 0
M  V30 13 C 2.0678 2.8777 1.7073 0
M  V30 14 C 2.0045 1.5021 2.4234 0 CFG=2
M  V30 15 O -3.2315 -0.3229 -4.234 0
M  V30 16 C -2.9264 -2.4445 -3.1909 0
M  V30 17 C -2.4101 -3.0265 -2.0977 0
M  V30 18 C -1.1236 -3.1626 0.001 0
M  V30 19 C 3.5395 2.5764 1.3021 0
M  V30 20 C 1.893 4.1098 2.5805 0
M  V30 21 C 3.5002 1.2754 2.1156 0
M  V30 22 C -3.6708 -3.2936 -4.1279 0
M  V30 23 C -1.4708 -2.826 1.4297 0
M  V30 24 C -1.9701 -4.1013 0.8256 0
M  V30 25 N 4.2672 1.4598 3.3493 0
M  V30 26 O -4.2241 -4.3445 -3.8481 0
M  V30 27 O -3.6429 -2.8457 -5.3907 0
M  V30 28 H -1.8458 1.6057 -3.3731 0
M  V30 29 H 0.1594 3.3869 0.7821 0
M  V30 30 H 1.5055 3.2001 -0.3671 0
M  V30 31 H 1.4692 -0.337 1.3851 0
M  V30 32 H 0.1193 0.4697 2.2149 0
M  V30 33 H 1.7397 1.5332 3.4876 0
M  V30 34 H -2.5463 -4.0907 -1.9156 0
M  V30 35 H -0.0945 -3.4634 -0.1837 0
M  V30 36 H 3.6861 2.405 0.2287 0
M  V30 37 H 4.2767 3.3262 1.6122 0
M  V30 38 H 0.8816 4.1553 2.9984 0
M  V30 39 H 2.0611 5.0235 2.0008 0
M  V30 40 H 2.5957 4.1135 3.42 0
M  V30 41 H 3.7515 0.3653 1.5647 0
M  V30 42 H -2.1832 -2.0288 1.6066 0
M  V30 43 H -0.6733 -2.8768 2.1611 0
M  V30 44 H -1.5186 -5.0299 1.1538 0
M  V30 45 H -3.0316 -4.1711 0.6204 0
M  V30 46 H 4.0705 2.3207 3.8584 0
M  V30 47 H 5.2766 1.4477 3.2046 0
M  V30 48 H -4.1798 -3.4853 -5.9009 0
M  V30 END ATOM
M  V30 BEGIN BOND
M  V30 1 1 1 2
M  V30 2 2 2 3
M  V30 3 1 2 4
M  V30 4 1 3 5
M  V30 5 1 3 6
M  V30 6 2 4 7
M  V30 7 2 5 8
M  V30 8 1 6 9
M  V30 9 1 6 10
M  V30 10 1 7 11
M  V30 11 1 8 12
M  V30 12 1 9 13
M  V30 13 1 10 14
M  V30 14 2 11 15
M  V30 15 1 11 16
M  V30 16 1 12 17
M  V30 17 1 12 18
M  V30 18 1 13 19
M  V30 19 1 13 20
M  V30 20 1 14 21
M  V30 21 1 16 22
M  V30 22 1 18 23
M  V30 23 1 18 24
M  V30 24 1 21 25
M  V30 25 2 22 26
M  V30 26 1 22 27
M  V30 27 1 7 8
M  V30 28 1 13 14
M  V30 29 2 16 17
M  V30 30 1 19 21
M  V30 31 1 23 24
M  V30 32 1 4 28
M  V30 33 1 9 29
M  V30 34 1 9 30
M  V30 35 1 10 31
M  V30 36 1 10 32
M  V30 37 1 14 33
M  V30 38 1 17 34
M  V30 39 1 18 35
M  V30 40 1 19 36
M  V30 41 1 19 37
M  V30 42 1 20 38
M  V30 43 1 20 39
M  V30 44 1 20 40
M  V30 45 1 21 41
M  V30 46 1 23 42
M  V30 47 1 23 43
M  V30 48 1 24 44
M  V30 49 1 24 45
M  V30 50 1 25 46
M  V30 51 1 25 47
M  V30 52 1 27 48
M  V30 END BOND
M  V30 BEGIN COLLECTION
M  V30 MDLV30/STEABS ATOMS=(1 14)
M  V30 END COLLECTION
M  V30 END CTAB
M  END
>  <Column 1>
2458

>  <level_0>
2896

>  <index>
2896

>  <Unnamed: 0>
2896

>  <NO.>
2908

>  <Name>


>  <IUPAC_name>


>  <SMILES>
CC12CC(N)[C@@H]1CN(c1nc3c(cc1F)c(=O)c(C(=O)O)cn3C1CC1)C2

>  <CID>


>  <logBB>


>  <BBB+/BBB->
BBB-

>  <Inchi>
InChI=1S/C19H21FN4O3/c1-19-5-14(21)12(19)7-23(8-19)17-13(20)4-10-15(25)11(18(26)27)6-24(9-2-3-9)16(10)22-17/h4-6-9-12-14H-2-3-5-7-8-21H2-1H3-(H-26-27)/t12--14?-19?/m0/s1

>  <threshold>
-1

>  <reference>
R13|

>  <group>
B

>  <Class>
1

>  <ABC>
22.2

>  <ABCGG>
18.02

>  <nAcid>
1

>  <nBase>
1

>  <nAromAtom>
10

>  <nAromBond>
11

>  <nAtom>
48

>  <nHeavyAtom>
27

>  <nSpiro>
0

>  <nBridgehead>
0

>  <nHetero>
8

>  <nN>
4

>  <nO>
3

>  <nF>
1

>  <BalabanJ>
1.35

>  <BertzCT>
1047.41

>  <nBonds>
52

>  <nBondsO>
31

>  <nBondsS>
39

>  <nBondsD>
2

>  <nBondsT>
0

>  <nBondsA>
11

>  <nBondsM>
13

>  <nBondsKS>
46

>  <nBondsKD>
6

>  <RNCG>
0.18

>  <RPCG>
0.13

>  <FCSP3>
0.53

>  <SZ>
32.67

>  <Sm>
31

>  <Sv>
30.51

>  <Sse>
48.92

>  <Sp>
31.79

>  <Si>
54.7

>  <MZ>
0.68

>  <Mm>
0.65

>  <Mv>
0.64

>  <Mse>
1.02

>  <Mp>
0.66

>  <Mi>
1.14

>  <NsCH3>
1

>  <NdCH2>
0

>  <NssCH2>
5

>  <NtCH>
0

>  <NdsCH>
0

>  <NaaCH>
2

>  <NsssCH>
3

>  <NddC>
0

>  <NtsC>
0

>  <NdssC>
1

>  <NaasC>
3

>  <NaaaC>
2

>  <NssssC>
1

>  <NsNH3>
0

>  <NsNH2>
1

>  <NssNH2>
0

>  <NdNH>
0

>  <NssNH>
0

>  <NaaNH>
0

>  <NtN>
0

>  <NsssNH>
0

>  <NdsN>
0

>  <NaaN>
1

>  <NsssN>
1

>  <NddsN>
0

>  <NaasN>
1

>  <NssssN>
0

>  <NsOH>
1

>  <NdO>
2

>  <NssO>
0

>  <NaaO>
0

>  <NsF>
1

>  <NsSiH3>
0

>  <NssSiH2>
0

>  <NsssSiH>
0

>  <NssssSi>
0

>  <NsPH2>
0

>  <NssPH>
0

>  <NsssP>
0

>  <NdsssP>
0

>  <NsssssP>
0

>  <NsSH>
0

>  <NdS>
0

>  <NssS>
0

>  <NaaS>
0

>  <NdssS>
0

>  <NddssS>
0

>  <NsCl>
0

>  <NsBr>
0

>  <NsI>
0

>  <fragCpx>
259.08

>  <fMF>
0.42

>  <nHBAcc>
6

>  <nHBDon>
2

>  <Kier1>
18.99

>  <Kier2>
6.5

>  <Lipinski>
1

>  <GhoseFilter>
1

>  <FilterItLogS>
-2.86

>  <VMcGowan>
257.76

>  <LabuteASA>
154.14

>  <PEOE_VSA1>
20.31

>  <PEOE_VSA2>
4.79

>  <PEOE_VSA3>
14.17

>  <PEOE_VSA4>
0

>  <PEOE_VSA5>
0

>  <PEOE_VSA6>
6.92

>  <PEOE_VSA7>
36.66

>  <PEOE_VSA8>
31.37

>  <PEOE_VSA9>
5.39

>  <PEOE_VSA10>
11.21

>  <PEOE_VSA11>
11.64

>  <PEOE_VSA12>
5.43

>  <PEOE_VSA13>
0

>  <SMR_VSA1>
14.29

>  <SMR_VSA2>
0

>  <SMR_VSA3>
9.55

>  <SMR_VSA4>
17.07

>  <SMR_VSA5>
38.27

>  <SMR_VSA6>
17.99

>  <SMR_VSA7>
33.87

>  <SMR_VSA8>
0

>  <SMR_VSA9>
0

>  <SlogP_VSA1>
16.06

>  <SlogP_VSA2>
39.76

>  <SlogP_VSA3>
0

>  <SlogP_VSA4>
17.15

>  <SlogP_VSA5>
42.59

>  <SlogP_VSA6>
17.06

>  <SlogP_VSA7>
0

>  <SlogP_VSA8>
11.03

>  <SlogP_VSA9>
0

>  <SlogP_VSA10>
10.21

>  <SlogP_VSA11>
0

>  <EState_VSA1>
17.22

>  <EState_VSA2>
34.27

>  <EState_VSA3>
24.65

>  <EState_VSA4>
25.33

>  <EState_VSA5>
6.2

>  <EState_VSA6>
4.57

>  <EState_VSA7>
4.9

>  <EState_VSA8>
11.91

>  <EState_VSA9>
5.73

>  <EState_VSA10>
19.09

>  <VSA_EState1>
16.62

>  <VSA_EState2>
30.37

>  <VSA_EState3>
9.34

>  <VSA_EState4>
5.51

>  <VSA_EState5>
-1.36

>  <VSA_EState6>
1.39

>  <VSA_EState7>
4.05

>  <VSA_EState8>
3.49

>  <VSA_EState9>
0

>  <apol>
53.1

>  <bpol>
27.91

>  <nRing>
5

>  <nHRing>
3

>  <naRing>
2

>  <naHRing>
2

>  <nARing 2>
3

>  <nAHRing 2>
1

>  <nFRing>
2

>  <nFHRing>
2

>  <nFaRing>
1

>  <nFaHRing>
1

>  <nFARing 2>
1

>  <nFAHRing 2>
1

>  <nRot>
3

>  <SLogP>
1.74

>  <SMR>
97.59

>  <TopoPSA(NO)>
101.45

>  <TopoPSA>
101.45

>  <JGI1>
0.24

>  <JGI2>
0.1

>  <JGI3>
0.07

>  <JGI4>
0.05

>  <JGI5>
0.04

>  <Diameter>
12

>  <Radius>
6

>  <TMWC10>
137.78

>  <TSRW10>
83.53

>  <MW>
372.16

>  <AMW>
7.75

>  <WPath>
1716

>  <WPol>
49

>  <Zagreb1>
162

>  <Zagreb2>
204

>  <mZagreb2>
5.5

>  <yes>


>  <nAR-cont>
0.691115

>  <nHA-cont>
0.860070871

>  <MWHBN>
0.414691507

>  <MWHBN-cont>
0.41852929

>  <TPSA-cont>
0.291816003

>  <pka_cont>
0.97

>  <yes.1>


>  <BBB_SCORE>
3.247611813

>  <MMFF94 Energy>
28.429

$$$$
Compound 2017
Actelion Java MolfileCreator 2.0

  0  0  0  0  0  0              0 V3000
M  V30 BEGIN CTAB
M  V30 COUNTS 54 57 0 0 0
M  V30 BEGIN ATOM
M  V30 1 O 3.5591 0.808 -5.0178 0
M  V30 2 C 2.6807 0.5655 -4.1952 0
M  V30 3 C 2.6049 -0.7786 -3.5782 0
M  V30 4 C 1.7352 1.6201 -3.6813 0
M  V30 5 C 1.5984 -1.1062 -2.7493 0
M  V30 6 C 0.3665 1.009 -3.4323 0
M  V30 7 C 0.3798 -0.2145 -2.47 0
M  V30 8 C 1.6856 -2.3562 -1.9084 0
M  V30 9 C 0.5143 0.2004 -0.9716 0 CFG=1
M  V30 10 C -0.9172 -1.0104 -2.7686 0
M  V30 11 C 1.7502 -1.9632 -0.4299 0
M  V30 12 C -0.588 1.0931 -0.4311 0
M  V30 13 C 0.6049 -1.0121 -0.002 0 CFG=1
M  V30 14 O -1.6774 1.2768 -0.9668 0
M  V30 15 C -0.3098 1.6936 0.9183 0
M  V30 16 C 0.7856 -0.563 1.4837 0 CFG=1
M  V30 17 C -0.144 0.5951 1.9737 0
M  V30 18 C 0.4635 -1.709 2.4624 0
M  V30 19 C -1.4634 -0.1588 2.3561 0
M  V30 20 C 0.5134 1.2677 3.2093 0
M  V30 21 C -0.9434 -1.4517 3.0212 0
M  V30 22 O -2.196 -0.6008 1.2132 0
M  V30 23 C -2.3794 0.6154 3.3375 0
M  V30 24 O -2.1425 0.7026 4.5473 0
M  V30 25 C -3.6134 1.3004 2.7617 0
M  V30 26 O -4.1805 2.2156 3.6889 0
M  V30 27 H 3.4591 -1.422 -3.7583 0
M  V30 28 H 1.648 2.4084 -4.437 0
M  V30 29 H 2.1558 2.0617 -2.7725 0
M  V30 30 H -0.0329 0.6943 -4.4077 0
M  V30 31 H -0.3142 1.7876 -3.0718 0
M  V30 32 H 0.8272 -3.0093 -2.0974 0
M  V30 33 H 2.5769 -2.9447 -2.1579 0
M  V30 34 H 1.4415 0.7849 -0.8721 0
M  V30 35 H -1.8006 -0.3641 -2.7669 0
M  V30 36 H -0.8689 -1.4723 -3.7628 0
M  V30 37 H -1.1072 -1.8155 -2.0544 0
M  V30 38 H 2.7156 -1.4774 -0.2339 0
M  V30 39 H 1.7361 -2.8777 0.1723 0
M  V30 40 H -0.3274 -1.5845 -0.0662 0
M  V30 41 H 0.6003 2.2982 0.8198 0
M  V30 42 H -1.1172 2.3844 1.1835 0
M  V30 43 H 1.8361 -0.2666 1.6065 0
M  V30 44 H 1.1856 -1.7054 3.2881 0
M  V30 45 H 0.5191 -2.7011 2.0057 0
M  V30 46 H 1.5111 1.6484 2.9602 0
M  V30 47 H -0.0768 2.1233 3.556 0
M  V30 48 H 0.6328 0.5803 4.0523 0
M  V30 49 H -1.5941 -2.3072 2.8036 0
M  V30 50 H -0.8792 -1.3728 4.1123 0
M  V30 51 H -2.4646 0.1449 0.6419 0
M  V30 52 H -3.3451 1.8619 1.8648 0
M  V30 53 H -4.3612 0.5415 2.5176 0
M  V30 54 H -3.9771 1.8641 4.5794 0
M  V30 END ATOM
M  V30 BEGIN BOND
M  V30 1 2 1 2
M  V30 2 1 2 3
M  V30 3 1 2 4
M  V30 4 2 3 5
M  V30 5 1 4 6
M  V30 6 1 5 7
M  V30 7 1 5 8
M  V30 8 1 7 9
M  V30 9 1 7 10
M  V30 10 1 8 11
M  V30 11 1 9 12
M  V30 12 1 9 13
M  V30 13 2 12 14
M  V30 14 1 12 15
M  V30 15 1 13 16
M  V30 16 1 15 17
M  V30 17 1 16 18
M  V30 18 1 17 19
M  V30 19 1 17 20
M  V30 20 1 18 21
M  V30 21 1 19 22
M  V30 22 1 19 23
M  V30 23 2 23 24
M  V30 24 1 23 25
M  V30 25 1 25 26
M  V30 26 1 6 7
M  V30 27 1 11 13
M  V30 28 1 16 17
M  V30 29 1 19 21
M  V30 30 1 3 27
M  V30 31 1 4 28
M  V30 32 1 4 29
M  V30 33 1 6 30
M  V30 34 1 6 31
M  V30 35 1 8 32
M  V30 36 1 8 33
M  V30 37 1 9 34
M  V30 38 1 10 35
M  V30 39 1 10 36
M  V30 40 1 10 37
M  V30 41 1 11 38
M  V30 42 1 11 39
M  V30 43 1 13 40
M  V30 44 1 15 41
M  V30 45 1 15 42
M  V30 46 1 16 43
M  V30 47 1 18 44
M  V30 48 1 18 45
M  V30 49 1 20 46
M  V30 50 1 20 47
M  V30 51 1 20 48
M  V30 52 1 21 49
M  V30 53 1 21 50
M  V30 54 1 22 51
M  V30 55 1 25 52
M  V30 56 1 25 53
M  V30 57 1 26 54
M  V30 END BOND
M  V30 BEGIN COLLECTION
M  V30 MDLV30/STEABS ATOMS=(3 9 13 16)
M  V30 END COLLECTION
M  V30 END CTAB
M  END
>  <Column 1>
2459

>  <level_0>
2897

>  <index>
2897

>  <Unnamed: 0>
2897

>  <NO.>
2909

>  <Name>


>  <IUPAC_name>


>  <SMILES>
CC12CCC(=O)C=C1CC[C@@H]1[C@@H]2C(=O)CC2(C)[C@H]1CCC2(O)C(=O)CO

>  <CID>


>  <logBB>


>  <BBB+/BBB->
BBB+

>  <Inchi>
InChI=1S/C21H28O5/c1-19-7-5-13(23)9-12(19)3-4-14-15-6-8-21(26-17(25)11-22)20(15-2)10-16(24)18(14)19/h9-14-15-18-22-26H-3-8-10-11H2-1-2H3/t14--15--18+-19?-20?-21?/m0/s1

>  <threshold>
-1

>  <reference>
R13|

>  <group>
B

>  <Class>
-1

>  <ABC>
20.85

>  <ABCGG>
17.26

>  <nAcid>
0

>  <nBase>
0

>  <nAromAtom>
0

>  <nAromBond>
0

>  <nAtom>
54

>  <nHeavyAtom>
26

>  <nSpiro>
0

>  <nBridgehead>
0

>  <nHetero>
5

>  <nN>
0

>  <nO>
5

>  <nF>
0

>  <BalabanJ>
1.68

>  <BertzCT>
723.91

>  <nBonds>
57

>  <nBondsO>
29

>  <nBondsS>
53

>  <nBondsD>
4

>  <nBondsT>
0

>  <nBondsA>
0

>  <nBondsM>
4

>  <nBondsKS>
53

>  <nBondsKD>
4

>  <RNCG>
0.19

>  <RPCG>
0.1

>  <FCSP3>
0.76

>  <SZ>
32.33

>  <Sm>
30.01

>  <Sv>
32.16

>  <Sse>
54.08

>  <Sp>
34.58

>  <Si>
60.86

>  <MZ>
0.6

>  <Mm>
0.56

>  <Mv>
0.6

>  <Mse>
1

>  <Mp>
0.64

>  <Mi>
1.13

>  <NsCH3>
2

>  <NdCH2>
0

>  <NssCH2>
8

>  <NtCH>
0

>  <NdsCH>
1

>  <NaaCH>
0

>  <NsssCH>
3

>  <NddC>
0

>  <NtsC>
0

>  <NdssC>
4

>  <NaasC>
0

>  <NaaaC>
0

>  <NssssC>
3

>  <NsNH3>
0

>  <NsNH2>
0

>  <NssNH2>
0

>  <NdNH>
0

>  <NssNH>
0

>  <NaaNH>
0

>  <NtN>
0

>  <NsssNH>
0

>  <NdsN>
0

>  <NaaN>
0

>  <NsssN>
0

>  <NddsN>
0

>  <NaasN>
0

>  <NssssN>
0

>  <NsOH>
2

>  <NdO>
3

>  <NssO>
0

>  <NaaO>
0

>  <NsF>
0

>  <NsSiH3>
0

>  <NssSiH2>
0

>  <NsssSiH>
0

>  <NssssSi>
0

>  <NsPH2>
0

>  <NssPH>
0

>  <NsssP>
0

>  <NdsssP>
0

>  <NsssssP>
0

>  <NsSH>
0

>  <NdS>
0

>  <NssS>
0

>  <NaaS>
0

>  <NdssS>
0

>  <NddssS>
0

>  <NsCl>
0

>  <NsBr>
0

>  <NsI>
0

>  <fragCpx>
191.05

>  <fMF>
0.31

>  <nHBAcc>
5

>  <nHBDon>
2

>  <Kier1>
19.32

>  <Kier2>
6.25

>  <Lipinski>
1

>  <GhoseFilter>
1

>  <FilterItLogS>
-3.33

>  <VMcGowan>
275.46

>  <LabuteASA>
153.4

>  <PEOE_VSA1>
10.21

>  <PEOE_VSA2>
14.38

>  <PEOE_VSA3>
0

>  <PEOE_VSA4>
0

>  <PEOE_VSA5>
0

>  <PEOE_VSA6>
19.42

>  <PEOE_VSA7>
55.43

>  <PEOE_VSA8>
24.17

>  <PEOE_VSA9>
0

>  <PEOE_VSA10>
17.99

>  <PEOE_VSA11>
11.57

>  <PEOE_VSA12>
0

>  <PEOE_VSA13>
0

>  <SMR_VSA1>
24.6

>  <SMR_VSA2>
0

>  <SMR_VSA3>
0

>  <SMR_VSA4>
28.58

>  <SMR_VSA5>
64.39

>  <SMR_VSA6>
6.61

>  <SMR_VSA7>
11.65

>  <SMR_VSA8>
0

>  <SMR_VSA9>
0

>  <SlogP_VSA1>
0

>  <SlogP_VSA2>
39.77

>  <SlogP_VSA3>
14.38

>  <SlogP_VSA4>
28.58

>  <SlogP_VSA5>
58.79

>  <SlogP_VSA6>
11.65

>  <SlogP_VSA7>
0

>  <SlogP_VSA8>
0

>  <SlogP_VSA9>
0

>  <SlogP_VSA10>
0

>  <SlogP_VSA11>
0

>  <EState_VSA1>
23.41

>  <EState_VSA2>
41.16

>  <EState_VSA3>
25.68

>  <EState_VSA4>
18.41

>  <EState_VSA5>
0

>  <EState_VSA6>
6.08

>  <EState_VSA7>
6.92

>  <EState_VSA8>
6.92

>  <EState_VSA9>
0

>  <EState_VSA10>
24.6

>  <VSA_EState1>
0

>  <VSA_EState2>
37.52

>  <VSA_EState3>
20.49

>  <VSA_EState4>
-1.55

>  <VSA_EState5>
-0.17

>  <VSA_EState6>
0

>  <VSA_EState7>
5.83

>  <VSA_EState8>
3.31

>  <VSA_EState9>
0

>  <apol>
57.75

>  <bpol>
30.69

>  <nRing>
4

>  <nHRing>
0

>  <naRing>
0

>  <naHRing>
0

>  <nARing 2>
4

>  <nAHRing 2>
0

>  <nFRing>
1

>  <nFHRing>
0

>  <nFaRing>
0

>  <nFaHRing>
0

>  <nFARing 2>
1

>  <nFAHRing 2>
0

>  <nRot>
2

>  <SLogP>
1.99

>  <SMR>
94.14

>  <TopoPSA(NO)>
91.67

>  <TopoPSA>
91.67

>  <JGI1>
0.29

>  <JGI2>
0.14

>  <JGI3>
0.07

>  <JGI4>
0.06

>  <JGI5>
0.04

>  <Diameter>
12

>  <Radius>
6

>  <TMWC10>
135.18

>  <TSRW10>
77.19

>  <MW>
360.19

>  <AMW>
6.67

>  <WPath>
1425

>  <WPol>
59

>  <Zagreb1>
154

>  <Zagreb2>
198

>  <mZagreb2>
5.44

>  <yes>


>  <nAR-cont>
0.199399

>  <nHA-cont>
0.892715677

>  <MWHBN>
0.368835075

>  <MWHBN-cont>
0.598386909

>  <TPSA-cont>
0.360086476

>  <pka_cont>
0.97

>  <yes.1>


>  <BBB_SCORE>
3.194867994

>  <MMFF94 Energy>
118.97

$$$$
Compound 2018
Actelion Java MolfileCreator 2.0

  0  0  0  0  0  0              0 V3000
M  V30 BEGIN CTAB
M  V30 COUNTS 77 81 0 0 0
M  V30 BEGIN ATOM
M  V30 1 O -7.6501 -4.5041 -0.4818 0
M  V30 2 C -6.5455 -4.0995 -0.1289 0
M  V30 3 C -5.3668 -4.9896 -0.2463 0
M  V30 4 C -6.3081 -2.6812 0.3232 0
M  V30 5 C -4.1591 -4.6065 0.2042 0
M  V30 6 C -5.2486 -2.6649 1.4114 0
M  V30 7 C -3.8981 -3.3083 0.9836 0
M  V30 8 C -2.9249 -5.3858 -0.1745 0
M  V30 9 C -3.056 -2.4016 0.0082 0 CFG=1
M  V30 10 C -3.1621 -3.6406 2.3071 0
M  V30 11 C -2.0427 -4.5149 -1.0696 0
M  V30 12 C -2.7914 -0.9453 0.4884 0 CFG=1
M  V30 13 C -1.7419 -3.1276 -0.4618 0 CFG=1
M  V30 14 O -2.2066 -0.9282 1.7817 0
M  V30 15 C -1.9154 -0.1273 -0.486 0
M  V30 16 C -1.0264 -2.2292 -1.4803 0 CFG=1
M  V30 17 C -0.6186 -0.8535 -0.9047 0
M  V30 18 C 0.2534 -2.7362 -2.1375 0
M  V30 19 C 0.1302 -0.2643 -2.141 0
M  V30 20 C 0.3585 -0.957 0.2967 0
M  V30 21 C 0.9369 -1.4655 -2.6881 0
M  V30 22 O -0.8178 0.0925 -3.1663 0
M  V30 23 C 0.9026 1.0344 -1.8403 0
M  V30 24 O 0.2654 2.088 -1.7071 0
M  V30 25 C 2.4193 0.9838 -1.733 0
M  V30 26 O 2.9371 2.2634 -1.3666 0
M  V30 27 C 4.2882 2.2877 -1.2254 0
M  V30 28 O 5.0247 1.3234 -1.381 0
M  V30 29 C 4.7567 3.6639 -0.8322 0
M  V30 30 C 4.4921 3.9206 0.648 0
M  V30 31 C 5.0566 5.2608 1.1198 0
M  V30 32 C 4.4051 6.4814 0.4708 0
M  V30 33 C 4.8062 5.5122 2.6052 0
M  V30 34 C 4.7024 7.6366 1.4251 0
M  V30 35 C 5.0739 7.0027 2.7653 0
M  V30 36 H -5.5277 -5.9042 -0.806 0
M  V30 37 H -7.2462 -2.2827 0.7252 0
M  V30 38 H -6.0189 -2.0741 -0.5401 0
M  V30 39 H -5.1047 -1.6418 1.7741 0
M  V30 40 H -5.6543 -3.2219 2.2697 0
M  V30 41 H -2.3774 -5.7014 0.7199 0
M  V30 42 H -3.1816 -6.3054 -0.7144 0
M  V30 43 H -3.6629 -2.2809 -0.9042 0
M  V30 44 H -3.6526 -4.474 2.8264 0
M  V30 45 H -3.1751 -2.7941 3.0015 0
M  V30 46 H -2.1175 -3.9275 2.1637 0
M  V30 47 H -2.538 -4.3878 -2.0418 0
M  V30 48 H -1.1046 -5.048 -1.2649 0
M  V30 49 H -3.751 -0.4229 0.5734 0
M  V30 50 H -1.0839 -3.2906 0.397 0
M  V30 51 H -2.1556 -2.0E-4 2.072 0
M  V30 52 H -2.5285 0.0855 -1.3701 0
M  V30 53 H -1.6632 0.8406 -0.0358 0
M  V30 54 H -1.7441 -2.0684 -2.3015 0
M  V30 55 H 0.0454 -3.451 -2.9405 0
M  V30 56 H 0.9053 -3.2357 -1.4119 0
M  V30 57 H -0.0193 -1.5794 1.1095 0
M  V30 58 H 0.5572 0.0346 0.719 0
M  V30 59 H 1.324 -1.3885 0.0158 0
M  V30 60 H 1.9826 -1.4741 -2.3691 0
M  V30 61 H 0.9297 -1.4832 -3.7842 0
M  V30 62 H -1.1558 0.9822 -2.9337 0
M  V30 63 H 2.6931 0.254 -0.9658 0
M  V30 64 H 2.8193 0.7017 -2.7125 0
M  V30 65 H 4.2566 4.3999 -1.4715 0
M  V30 66 H 5.8285 3.731 -1.052 0
M  V30 67 H 3.4125 3.8768 0.8418 0
M  V30 68 H 4.9396 3.1132 1.2419 0
M  V30 69 H 6.1387 5.2871 0.9315 0
M  V30 70 H 3.3198 6.3447 0.387 0
M  V30 71 H 4.7945 6.6778 -0.533 0
M  V30 72 H 5.4556 4.9082 3.2463 0
M  V30 73 H 3.7653 5.2897 2.8707 0
M  V30 74 H 3.833 8.2958 1.5198 0
M  V30 75 H 5.5348 8.2446 1.0533 0
M  V30 76 H 4.5045 7.4318 3.5957 0
M  V30 77 H 6.1372 7.1737 2.9713 0
M  V30 END ATOM
M  V30 BEGIN BOND
M  V30 1 2 1 2
M  V30 2 1 2 3
M  V30 3 1 2 4
M  V30 4 2 3 5
M  V30 5 1 4 6
M  V30 6 1 5 7
M  V30 7 1 5 8
M  V30 8 1 7 9
M  V30 9 1 7 10
M  V30 10 1 8 11
M  V30 11 1 9 12
M  V30 12 1 9 13
M  V30 13 1 12 14
M  V30 14 1 12 15
M  V30 15 1 13 16
M  V30 16 1 15 17
M  V30 17 1 16 18
M  V30 18 1 17 19
M  V30 19 1 17 20
M  V30 20 1 18 21
M  V30 21 1 19 22
M  V30 22 1 19 23
M  V30 23 2 23 24
M  V30 24 1 23 25
M  V30 25 1 25 26
M  V30 26 1 26 27
M  V30 27 2 27 28
M  V30 28 1 27 29
M  V30 29 1 29 30
M  V30 30 1 30 31
M  V30 31 1 31 32
M  V30 32 1 31 33
M  V30 33 1 32 34
M  V30 34 1 33 35
M  V30 35 1 6 7
M  V30 36 1 11 13
M  V30 37 1 16 17
M  V30 38 1 19 21
M  V30 39 1 34 35
M  V30 40 1 3 36
M  V30 41 1 4 37
M  V30 42 1 4 38
M  V30 43 1 6 39
M  V30 44 1 6 40
M  V30 45 1 8 41
M  V30 46 1 8 42
M  V30 47 1 9 43
M  V30 48 1 10 44
M  V30 49 1 10 45
M  V30 50 1 10 46
M  V30 51 1 11 47
M  V30 52 1 11 48
M  V30 53 1 12 49
M  V30 54 1 13 50
M  V30 55 1 14 51
M  V30 56 1 15 52
M  V30 57 1 15 53
M  V30 58 1 16 54
M  V30 59 1 18 55
M  V30 60 1 18 56
M  V30 61 1 20 57
M  V30 62 1 20 58
M  V30 63 1 20 59
M  V30 64 1 21 60
M  V30 65 1 21 61
M  V30 66 1 22 62
M  V30 67 1 25 63
M  V30 68 1 25 64
M  V30 69 1 29 65
M  V30 70 1 29 66
M  V30 71 1 30 67
M  V30 72 1 30 68
M  V30 73 1 31 69
M  V30 74 1 32 70
M  V30 75 1 32 71
M  V30 76 1 33 72
M  V30 77 1 33 73
M  V30 78 1 34 74
M  V30 79 1 34 75
M  V30 80 1 35 76
M  V30 81 1 35 77
M  V30 END BOND
M  V30 BEGIN COLLECTION
M  V30 MDLV30/STEABS ATOMS=(4 9 12 13 16)
M  V30 END COLLECTION
M  V30 END CTAB
M  END
>  <Column 1>
2460

>  <level_0>
2902

>  <index>
2902

>  <Unnamed: 0>
2902

>  <NO.>
2914

>  <Name>


>  <IUPAC_name>


>  <SMILES>
CC12CCC(=O)C=C1CC[C@@H]1[C@@H]2[C@@H](O)CC2(C)[C@H]1CCC2(O)C(=O)COC(=O)CCC1CCCC1

>  <CID>


>  <logBB>


>  <BBB+/BBB->
BBB+

>  <Inchi>
InChI=1S/C29H42O6/c1-27-13-11-20(30)15-19(27)8-9-21-22-12-14-29(34-28(22-2)16-23(31)26(21)27)24(32)17-35-25(33)10-7-18-5-3-4-6-18/h15-18-21-23-26-31-34H-3-14-16-17H2-1-2H3/t21--22--23--26+-27?-28?-29?/m0/s1

>  <threshold>
-1

>  <reference>
R13|

>  <group>
B

>  <Class>
1

>  <ABC>
28.03

>  <ABCGG>
21.78

>  <nAcid>
0

>  <nBase>
0

>  <nAromAtom>
0

>  <nAromBond>
0

>  <nAtom>
77

>  <nHeavyAtom>
35

>  <nSpiro>
0

>  <nBridgehead>
0

>  <nHetero>
6

>  <nN>
0

>  <nO>
6

>  <nF>
0

>  <BalabanJ>
1.25

>  <BertzCT>
918.13

>  <nBonds>
81

>  <nBondsO>
39

>  <nBondsS>
77

>  <nBondsD>
4

>  <nBondsT>
0

>  <nBondsA>
0

>  <nBondsM>
4

>  <nBondsKS>
77

>  <nBondsKD>
4

>  <RNCG>
0.16

>  <RPCG>
0.11

>  <FCSP3>
0.83

>  <SZ>
44

>  <Sm>
40.52

>  <Sv>
44.67

>  <Sse>
76.63

>  <Sp>
48.65

>  <Si>
86.98

>  <MZ>
0.57

>  <Mm>
0.53

>  <Mv>
0.58

>  <Mse>
1

>  <Mp>
0.63

>  <Mi>
1.13

>  <NsCH3>
2

>  <NdCH2>
0

>  <NssCH2>
14

>  <NtCH>
0

>  <NdsCH>
1

>  <NaaCH>
0

>  <NsssCH>
5

>  <NddC>
0

>  <NtsC>
0

>  <NdssC>
4

>  <NaasC>
0

>  <NaaaC>
0

>  <NssssC>
3

>  <NsNH3>
0

>  <NsNH2>
0

>  <NssNH2>
0

>  <NdNH>
0

>  <NssNH>
0

>  <NaaNH>
0

>  <NtN>
0

>  <NsssNH>
0

>  <NdsN>
0

>  <NaaN>
0

>  <NsssN>
0

>  <NddsN>
0

>  <NaasN>
0

>  <NssssN>
0

>  <NsOH>
2

>  <NdO>
3

>  <NssO>
1

>  <NaaO>
0

>  <NsF>
0

>  <NsSiH3>
0

>  <NssSiH2>
0

>  <NsssSiH>
0

>  <NssssSi>
0

>  <NsPH2>
0

>  <NssPH>
0

>  <NsssP>
0

>  <NdsssP>
0

>  <NsssssP>
0

>  <NsSH>
0

>  <NdS>
0

>  <NssS>
0

>  <NaaS>
0

>  <NdssS>
0

>  <NddssS>
0

>  <NsCl>
0

>  <NsBr>
0

>  <NsI>
0

>  <fragCpx>
331.06

>  <fMF>
0.36

>  <nHBAcc>
6

>  <nHBDon>
2

>  <Kier1>
26.6

>  <Kier2>
9.95

>  <Lipinski>
1

>  <GhoseFilter>
0

>  <FilterItLogS>
-4.75

>  <VMcGowan>
383.19

>  <LabuteASA>
208.43

>  <PEOE_VSA1>
14.95

>  <PEOE_VSA2>
14.38

>  <PEOE_VSA3>
0

>  <PEOE_VSA4>
0

>  <PEOE_VSA5>
0

>  <PEOE_VSA6>
45.1

>  <PEOE_VSA7>
80.11

>  <PEOE_VSA8>
18.26

>  <PEOE_VSA9>
6.1

>  <PEOE_VSA10>
5.6

>  <PEOE_VSA11>
12.39

>  <PEOE_VSA12>
5.78

>  <PEOE_VSA13>
0

>  <SMR_VSA1>
29.33

>  <SMR_VSA2>
0

>  <SMR_VSA3>
0

>  <SMR_VSA4>
34.5

>  <SMR_VSA5>
109.02

>  <SMR_VSA6>
6.61

>  <SMR_VSA7>
11.65

>  <SMR_VSA8>
0

>  <SMR_VSA9>
0

>  <SlogP_VSA1>
0

>  <SlogP_VSA2>
46.06

>  <SlogP_VSA3>
19.12

>  <SlogP_VSA4>
34.5

>  <SlogP_VSA5>
97.32

>  <SlogP_VSA6>
11.65

>  <SlogP_VSA7>
0

>  <SlogP_VSA8>
0

>  <SlogP_VSA9>
0

>  <SlogP_VSA10>
0

>  <SlogP_VSA11>
0

>  <EState_VSA1>
22.9

>  <EState_VSA2>
41.53

>  <EState_VSA3>
31.6

>  <EState_VSA4>
32.1

>  <EState_VSA5>
31.26

>  <EState_VSA6>
0

>  <EState_VSA7>
13

>  <EState_VSA8>
6.92

>  <EState_VSA9>
4.74

>  <EState_VSA10>
24.6

>  <VSA_EState1>
5.35

>  <VSA_EState2>
37.69

>  <VSA_EState3>
23.23

>  <VSA_EState4>
-1.36

>  <VSA_EState5>
0.36

>  <VSA_EState6>
0

>  <VSA_EState7>
11.54

>  <VSA_EState8>
3.77

>  <VSA_EState9>
0

>  <apol>
81.25

>  <bpol>
46.47

>  <nRing>
5

>  <nHRing>
0

>  <naRing>
0

>  <naHRing>
0

>  <nARing 2>
5

>  <nAHRing 2>
0

>  <nFRing>
1

>  <nFHRing>
0

>  <nFaRing>
0

>  <nFaHRing>
0

>  <nFARing 2>
1

>  <nFAHRing 2>
0

>  <nRot>
6

>  <SLogP>
4.3

>  <SMR>
130.21

>  <TopoPSA(NO)>
100.9

>  <TopoPSA>
100.9

>  <JGI1>
0.26

>  <JGI2>
0.12

>  <JGI3>
0.07

>  <JGI4>
0.06

>  <JGI5>
0.03

>  <Diameter>
18

>  <Radius>
9

>  <TMWC10>
155.62

>  <TSRW10>
88.6

>  <MW>
486.3

>  <AMW>
6.32

>  <WPath>
3848

>  <WPol>
69

>  <Zagreb1>
200

>  <Zagreb2>
249

>  <mZagreb2>
7.35

>  <yes>


>  <nAR-cont>
0

>  <nHA-cont>
0.523063577

>  <MWHBN>
0.362775419

>  <MWHBN-cont>
0.621783565

>  <TPSA-cont>
0.295655345

>  <pka_cont>
0.97

>  <yes.1>


>  <BBB_SCORE>
2.532049614

>  <MMFF94 Energy>
116.54

$$$$
Compound 2019
Actelion Java MolfileCreator 2.0

  0  0  0  0  0  0              0 V3000
M  V30 BEGIN CTAB
M  V30 COUNTS 54 58 0 0 0
M  V30 BEGIN ATOM
M  V30 1 O 1.7039 -2.4349 -5.1999 0
M  V30 2 C 1.2298 -2.2725 -4.0791 0
M  V30 3 C 2.1149 -2.3316 -2.8927 0
M  V30 4 C -0.2117 -1.898 -3.8524 0
M  V30 5 C 1.6158 -2.2553 -1.6459 0
M  V30 6 C -0.7166 -2.5773 -2.5915 0
M  V30 7 C 0.112 -2.2433 -1.3156 0
M  V30 8 C 2.5472 -2.0023 -0.4833 0
M  V30 9 C -0.1733 -0.8075 -0.7491 0 CFG=2
M  V30 10 C -0.2303 -3.3625 -0.3023 0
M  V30 11 C 2.2383 -0.6294 0.1238 0
M  V30 12 C 0.7508 -0.4933 0.4822 0 CFG=1
M  V30 13 C -1.6524 -0.4863 -0.3842 0 CFG=1
M  V30 14 C 0.3926 0.8922 1.0452 0 CFG=1
M  V30 15 O -1.9794 -1.117 0.8684 0
M  V30 16 C -1.8093 1.0101 -0.1102 0
M  V30 17 C -1.1322 1.0795 1.2447 0
M  V30 18 C 0.9792 1.2352 2.4162 0
M  V30 19 C -1.797 -0.1466 1.9087 0 CFG=1
M  V30 20 C -1.1977 2.3618 2.0822 0
M  V30 21 C -0.057 2.1483 3.0944 0
M  V30 22 O -3.0771 0.1819 2.4085 0
M  V30 23 C -1.0954 3.6292 1.2276 0
M  V30 24 O -1.9849 3.9222 0.4195 0
M  V30 25 C 0.1011 4.5607 1.381 0
M  V30 26 O 0.1121 5.5569 0.3668 0
M  V30 27 H 3.1777 -2.3256 -3.1075 0
M  V30 28 H -0.2945 -0.8085 -3.7935 0
M  V30 29 H -0.7997 -2.2419 -4.7102 0
M  V30 30 H -0.6756 -3.6622 -2.7703 0
M  V30 31 H -1.7776 -2.3502 -2.4517 0
M  V30 32 H 2.4397 -2.7906 0.2693 0
M  V30 33 H 3.5975 -2.0216 -0.7984 0
M  V30 34 H 0.101 -0.0993 -1.5466 0
M  V30 35 H 0.11 -4.3386 -0.6696 0
M  V30 36 H -1.3123 -3.4369 -0.1471 0
M  V30 37 H 0.2302 -3.2226 0.6782 0
M  V30 38 H 2.857 -0.4852 1.017 0
M  V30 39 H 2.5208 0.1575 -0.5873 0
M  V30 40 H 0.5597 -1.2277 1.2733 0
M  V30 41 H -2.3555 -0.8108 -1.153 0
M  V30 42 H 0.7498 1.6492 0.3312 0
M  V30 43 H -1.3502 1.6308 -0.8857 0
M  V30 44 H -2.8697 1.2796 -0.0336 0
M  V30 45 H 1.9441 1.7426 2.3111 0
M  V30 46 H 1.1455 0.3411 3.0274 0
M  V30 47 H -1.208 -0.5843 2.7204 0
M  V30 48 H -2.1414 2.4665 2.6303 0
M  V30 49 H -0.4514 1.6291 3.9775 0
M  V30 50 H 0.3986 3.0705 3.463 0
M  V30 51 H -3.4591 -0.6717 2.6741 0
M  V30 52 H 0.0437 5.0623 2.3501 0
M  V30 53 H 1.0317 3.9972 1.296 0
M  V30 54 H -0.8065 5.6117 0.0305 0
M  V30 END ATOM
M  V30 BEGIN BOND
M  V30 1 2 1 2
M  V30 2 1 2 3
M  V30 3 1 2 4
M  V30 4 2 3 5
M  V30 5 1 4 6
M  V30 6 1 5 7
M  V30 7 1 5 8
M  V30 8 1 7 9
M  V30 9 1 7 10
M  V30 10 1 8 11
M  V30 11 1 9 12
M  V30 12 1 9 13
M  V30 13 1 12 14
M  V30 14 1 13 15
M  V30 15 1 13 16
M  V30 16 1 14 17
M  V30 17 1 14 18
M  V30 18 1 15 19
M  V30 19 1 17 20
M  V30 20 1 18 21
M  V30 21 1 19 22
M  V30 22 1 20 23
M  V30 23 2 23 24
M  V30 24 1 23 25
M  V30 25 1 25 26
M  V30 26 1 6 7
M  V30 27 1 11 12
M  V30 28 1 16 17
M  V30 29 1 17 19
M  V30 30 1 20 21
M  V30 31 1 3 27
M  V30 32 1 4 28
M  V30 33 1 4 29
M  V30 34 1 6 30
M  V30 35 1 6 31
M  V30 36 1 8 32
M  V30 37 1 8 33
M  V30 38 1 9 34
M  V30 39 1 10 35
M  V30 40 1 10 36
M  V30 41 1 10 37
M  V30 42 1 11 38
M  V30 43 1 11 39
M  V30 44 1 12 40
M  V30 45 1 13 41
M  V30 46 1 14 42
M  V30 47 1 16 43
M  V30 48 1 16 44
M  V30 49 1 18 45
M  V30 50 1 18 46
M  V30 51 1 19 47
M  V30 52 1 20 48
M  V30 53 1 21 49
M  V30 54 1 21 50
M  V30 55 1 22 51
M  V30 56 1 25 52
M  V30 57 1 25 53
M  V30 58 1 26 54
M  V30 END BOND
M  V30 BEGIN COLLECTION
M  V30 MDLV30/STEABS ATOMS=(5 9 12 13 14 19)
M  V30 END COLLECTION
M  V30 END CTAB
M  END
>  <Column 1>
2461

>  <level_0>
2904

>  <index>
2904

>  <Unnamed: 0>
2904

>  <NO.>
2916

>  <Name>


>  <IUPAC_name>


>  <SMILES>
CC12CCC(=O)C=C1CC[C@@H]1[C@@H]2[C@@H]2CC3(C(C(=O)CO)CC[C@@H]13)[C@@H](O)O2

>  <CID>


>  <logBB>


>  <BBB+/BBB->
BBB-

>  <Inchi>
InChI=1S/C21H28O5/c1-20-7-6-12(23)8-11(20)2-3-13-14-4-5-15(16(24)10-22)21(14)9-17(18(13)20)26-19(21)25/h8-13-15-17-19-22-25H-2-7-9-10H2-1H3/t13--14--15?-17--18+-19--20?-21?/m0/s1

>  <threshold>
-1

>  <reference>
R13|

>  <group>
B

>  <Class>
1

>  <ABC>
21.23

>  <ABCGG>
17

>  <nAcid>
0

>  <nBase>
0

>  <nAromAtom>
0

>  <nAromBond>
0

>  <nAtom>
54

>  <nHeavyAtom>
26

>  <nSpiro>
1

>  <nBridgehead>
2

>  <nHetero>
5

>  <nN>
0

>  <nO>
5

>  <nF>
0

>  <BalabanJ>
1.52

>  <BertzCT>
698.52

>  <nBonds>
58

>  <nBondsO>
30

>  <nBondsS>
55

>  <nBondsD>
3

>  <nBondsT>
0

>  <nBondsA>
0

>  <nBondsM>
3

>  <nBondsKS>
55

>  <nBondsKD>
3

>  <RNCG>
0.18

>  <RPCG>
0.1

>  <FCSP3>
0.81

>  <SZ>
32.33

>  <Sm>
30.01

>  <Sv>
32.16

>  <Sse>
54.08

>  <Sp>
34.58

>  <Si>
60.86

>  <MZ>
0.6

>  <Mm>
0.56

>  <Mv>
0.6

>  <Mse>
1

>  <Mp>
0.64

>  <Mi>
1.13

>  <NsCH3>
1

>  <NdCH2>
0

>  <NssCH2>
8

>  <NtCH>
0

>  <NdsCH>
1

>  <NaaCH>
0

>  <NsssCH>
6

>  <NddC>
0

>  <NtsC>
0

>  <NdssC>
3

>  <NaasC>
0

>  <NaaaC>
0

>  <NssssC>
2

>  <NsNH3>
0

>  <NsNH2>
0

>  <NssNH2>
0

>  <NdNH>
0

>  <NssNH>
0

>  <NaaNH>
0

>  <NtN>
0

>  <NsssNH>
0

>  <NdsN>
0

>  <NaaN>
0

>  <NsssN>
0

>  <NddsN>
0

>  <NaasN>
0

>  <NssssN>
0

>  <NsOH>
2

>  <NdO>
2

>  <NssO>
1

>  <NaaO>
0

>  <NsF>
0

>  <NsSiH3>
0

>  <NssSiH2>
0

>  <NsssSiH>
0

>  <NssssSi>
0

>  <NsPH2>
0

>  <NssPH>
0

>  <NsssP>
0

>  <NdsssP>
0

>  <NsssssP>
0

>  <NsSH>
0

>  <NdS>
0

>  <NssS>
0

>  <NaaS>
0

>  <NdssS>
0

>  <NddssS>
0

>  <NsCl>
0

>  <NsBr>
0

>  <NsI>
0

>  <fragCpx>
250.05

>  <fMF>
0.35

>  <nHBAcc>
5

>  <nHBDon>
2

>  <Kier1>
18.06

>  <Kier2>
6

>  <Lipinski>
1

>  <GhoseFilter>
1

>  <FilterItLogS>
-2.39

>  <VMcGowan>
268.9

>  <LabuteASA>
153.34

>  <PEOE_VSA1>
14.95

>  <PEOE_VSA2>
9.59

>  <PEOE_VSA3>
0

>  <PEOE_VSA4>
0

>  <PEOE_VSA5>
0

>  <PEOE_VSA6>
12.5

>  <PEOE_VSA7>
67.77

>  <PEOE_VSA8>
17.75

>  <PEOE_VSA9>
6.1

>  <PEOE_VSA10>
6.61

>  <PEOE_VSA11>
17.86

>  <PEOE_VSA12>
0

>  <PEOE_VSA13>
0

>  <SMR_VSA1>
24.54

>  <SMR_VSA2>
0

>  <SMR_VSA3>
0

>  <SMR_VSA4>
34.5

>  <SMR_VSA5>
64.26

>  <SMR_VSA6>
6.61

>  <SMR_VSA7>
11.65

>  <SMR_VSA8>
0

>  <SMR_VSA9>
0

>  <SlogP_VSA1>
0

>  <SlogP_VSA2>
40.78

>  <SlogP_VSA3>
14.33

>  <SlogP_VSA4>
34.5

>  <SlogP_VSA5>
51.87

>  <SlogP_VSA6>
11.65

>  <SlogP_VSA7>
0

>  <SlogP_VSA8>
0

>  <SlogP_VSA9>
0

>  <SlogP_VSA10>
0

>  <SlogP_VSA11>
0

>  <EState_VSA1>
18.31

>  <EState_VSA2>
34.92

>  <EState_VSA3>
24.68

>  <EState_VSA4>
32.1

>  <EState_VSA5>
5.57

>  <EState_VSA6>
0

>  <EState_VSA7>
6.08

>  <EState_VSA8>
6.92

>  <EState_VSA9>
4.74

>  <EState_VSA10>
19.8

>  <VSA_EState1>
6.13

>  <VSA_EState2>
24.38

>  <VSA_EState3>
20.36

>  <VSA_EState4>
0.73

>  <VSA_EState5>
0.84

>  <VSA_EState6>
0

>  <VSA_EState7>
6.72

>  <VSA_EState8>
1.84

>  <VSA_EState9>
0

>  <apol>
57.75

>  <bpol>
31.56

>  <nRing>
5

>  <nHRing>
1

>  <naRing>
0

>  <naHRing>
0

>  <nARing 2>
5

>  <nAHRing 2>
1

>  <nFRing>
1

>  <nFHRing>
1

>  <nFaRing>
0

>  <nFaHRing>
0

>  <nFARing 2>
1

>  <nFAHRing 2>
1

>  <nRot>
2

>  <SLogP>
2

>  <SMR>
92.88

>  <TopoPSA(NO)>
83.83

>  <TopoPSA>
83.83

>  <JGI1>
0.25

>  <JGI2>
0.11

>  <JGI3>
0.06

>  <JGI4>
0.06

>  <JGI5>
0.03

>  <Diameter>
12

>  <Radius>
6

>  <TMWC10>
136.75

>  <TSRW10>
79.16

>  <MW>
360.19

>  <AMW>
6.67

>  <WPath>
1401

>  <WPol>
58

>  <Zagreb1>
158

>  <Zagreb2>
205

>  <mZagreb2>
5.44

>  <yes>


>  <nAR-cont>
0

>  <nHA-cont>
0.892715677

>  <MWHBN>
0.368835075

>  <MWHBN-cont>
0.598386909

>  <TPSA-cont>
0.414814545

>  <pka_cont>
0.97

>  <yes.1>


>  <BBB_SCORE>
3.10492513

>  <MMFF94 Energy>
75.435

$$$$
Compound 2020
Actelion Java MolfileCreator 2.0

  0  0  0  0  0  0              0 V3000
M  V30 BEGIN CTAB
M  V30 COUNTS 56 59 0 0 0
M  V30 BEGIN ATOM
M  V30 1 F -0.7277 0.9703 -1.6177 0
M  V30 2 C -1.0821 -0.0545 -0.7558 0
M  V30 3 C -2.2426 -0.8503 -1.4733 0
M  V30 4 C -1.4687 0.6622 0.5746 0 CFG=1
M  V30 5 C 0.2043 -0.9411 -0.596 0 CFG=2
M  V30 6 C -1.6579 -1.3553 -2.8059 0
M  V30 7 C -3.51 0.0145 -1.743 0
M  V30 8 C -2.7441 -2.0671 -0.6519 0
M  V30 9 O -2.0683 -0.2256 1.5121 0
M  V30 10 C -0.2762 1.3923 1.2346 0
M  V30 11 C 1.3213 -0.0883 0.0248 0 CFG=1
M  V30 12 C 0.6566 -1.5375 -1.9461 0
M  V30 13 C -2.0554 -0.9308 -4.0184 0
M  V30 14 C -0.4674 -2.272 -2.6784 0
M  V30 15 C -3.3895 0.958 -2.9278 0
M  V30 16 C 0.9621 0.491 1.4162 0
M  V30 17 C 2.6908 -0.7206 0.2527 0
M  V30 18 C -3.0291 0.176 -4.1642 0
M  V30 19 C 2.3029 1.2319 1.7376 0
M  V30 20 C 0.6826 -0.6183 2.471 0
M  V30 21 C 3.374 0.2034 1.2833 0
M  V30 22 O -3.4483 0.472 -5.2802 0
M  V30 23 O 2.4087 2.4001 0.9111 0
M  V30 24 C 2.4756 1.6919 3.2016 0
M  V30 25 O 1.545 1.7497 4.0114 0
M  V30 26 C 3.8593 2.1865 3.6158 0
M  V30 27 O 3.9381 2.4216 5.0143 0
M  V30 28 H -2.2134 1.4342 0.3508 0
M  V30 29 H -0.0107 -1.7853 0.0647 0
M  V30 30 H -4.3586 -0.6545 -1.9523 0
M  V30 31 H -3.8037 0.5775 -0.8512 0
M  V30 32 H -3.345 -2.739 -1.2783 0
M  V30 33 H -1.936 -2.6684 -0.2284 0
M  V30 34 H -3.3908 -1.7582 0.1758 0
M  V30 35 H -2.2741 0.2881 2.3143 0
M  V30 36 H -0.0258 2.253 0.6023 0
M  V30 37 H -0.5803 1.7975 2.2074 0
M  V30 38 H 1.4874 0.7474 -0.6738 0
M  V30 39 H 1.043 -0.737 -2.5913 0
M  V30 40 H 1.4856 -2.2371 -1.7858 0
M  V30 41 H -1.6193 -1.2893 -4.944 0
M  V30 42 H -0.1009 -2.592 -3.6613 0
M  V30 43 H -0.743 -3.1871 -2.1434 0
M  V30 44 H -2.6397 1.737 -2.7638 0
M  V30 45 H -4.3552 1.4474 -3.0974 0
M  V30 46 H 2.6034 -1.7376 0.6516 0
M  V30 47 H 3.2728 -0.7772 -0.6728 0
M  V30 48 H 0.213 -0.201 3.3679 0
M  V30 49 H 0.0098 -1.3976 2.1082 0
M  V30 50 H 1.5941 -1.1289 2.797 0
M  V30 51 H 4.2416 0.6922 0.826 0
M  V30 52 H 3.7409 -0.4028 2.1194 0
M  V30 53 H 3.3427 2.6392 0.7885 0
M  V30 54 H 4.6185 1.4445 3.3622 0
M  V30 55 H 4.0713 3.1244 3.0958 0
M  V30 56 H 3.0226 2.5997 5.3133 0
M  V30 END ATOM
M  V30 BEGIN BOND
M  V30 1 1 1 2
M  V30 2 1 2 3
M  V30 3 1 2 4
M  V30 4 1 2 5
M  V30 5 1 3 6
M  V30 6 1 3 7
M  V30 7 1 3 8
M  V30 8 1 4 9
M  V30 9 1 4 10
M  V30 10 1 5 11
M  V30 11 1 5 12
M  V30 12 2 6 13
M  V30 13 1 6 14
M  V30 14 1 7 15
M  V30 15 1 10 16
M  V30 16 1 11 17
M  V30 17 1 13 18
M  V30 18 1 16 19
M  V30 19 1 16 20
M  V30 20 1 17 21
M  V30 21 2 18 22
M  V30 22 1 19 23
M  V30 23 1 19 24
M  V30 24 2 24 25
M  V30 25 1 24 26
M  V30 26 1 26 27
M  V30 27 1 11 16
M  V30 28 1 12 14
M  V30 29 1 15 18
M  V30 30 1 19 21
M  V30 31 1 4 28
M  V30 32 1 5 29
M  V30 33 1 7 30
M  V30 34 1 7 31
M  V30 35 1 8 32
M  V30 36 1 8 33
M  V30 37 1 8 34
M  V30 38 1 9 35
M  V30 39 1 10 36
M  V30 40 1 10 37
M  V30 41 1 11 38
M  V30 42 1 12 39
M  V30 43 1 12 40
M  V30 44 1 13 41
M  V30 45 1 14 42
M  V30 46 1 14 43
M  V30 47 1 15 44
M  V30 48 1 15 45
M  V30 49 1 17 46
M  V30 50 1 17 47
M  V30 51 1 20 48
M  V30 52 1 20 49
M  V30 53 1 20 50
M  V30 54 1 21 51
M  V30 55 1 21 52
M  V30 56 1 23 53
M  V30 57 1 26 54
M  V30 58 1 26 55
M  V30 59 1 27 56
M  V30 END BOND
M  V30 BEGIN COLLECTION
M  V30 MDLV30/STEABS ATOMS=(3 4 5 11)
M  V30 END COLLECTION
M  V30 END CTAB
M  END
>  <Column 1>
2462

>  <level_0>
2908

>  <index>
2908

>  <Unnamed: 0>
2908

>  <NO.>
2920

>  <Name>


>  <IUPAC_name>


>  <SMILES>
CC12CCC(=O)C=C1CC[C@H]1[C@@H]3CCC(O)(C(=O)CO)C3(C)C[C@H](O)C12F

>  <CID>


>  <logBB>


>  <BBB+/BBB->
BBB+

>  <Inchi>
InChI=1S/C21H29FO5/c1-18-7-5-13(24)9-12(18)3-4-15-14-6-8-20(27-17(26)11-23)19(14-2)10-16(25)21(15-18)22/h9-14-16-23-25-27H-3-8-10-11H2-1-2H3/t14--15--16--18?-19?-20?-21?/m0/s1

>  <threshold>
-1

>  <reference>
R13|

>  <group>
B

>  <Class>
1

>  <ABC>
21.64

>  <ABCGG>
18.18

>  <nAcid>
0

>  <nBase>
0

>  <nAromAtom>
0

>  <nAromBond>
0

>  <nAtom>
56

>  <nHeavyAtom>
27

>  <nSpiro>
0

>  <nBridgehead>
0

>  <nHetero>
6

>  <nN>
0

>  <nO>
5

>  <nF>
1

>  <BalabanJ>
1.74

>  <BertzCT>
734.08

>  <nBonds>
59

>  <nBondsO>
30

>  <nBondsS>
56

>  <nBondsD>
3

>  <nBondsT>
0

>  <nBondsA>
0

>  <nBondsM>
3

>  <nBondsKS>
56

>  <nBondsKD>
3

>  <RNCG>
0.16

>  <RPCG>
0.09

>  <FCSP3>
0.81

>  <SZ>
34

>  <Sm>
31.68

>  <Sv>
33.08

>  <Sse>
56.48

>  <Sp>
35.31

>  <Si>
63.62

>  <MZ>
0.61

>  <Mm>
0.57

>  <Mv>
0.59

>  <Mse>
1.01

>  <Mp>
0.63

>  <Mi>
1.14

>  <NsCH3>
2

>  <NdCH2>
0

>  <NssCH2>
8

>  <NtCH>
0

>  <NdsCH>
1

>  <NaaCH>
0

>  <NsssCH>
3

>  <NddC>
0

>  <NtsC>
0

>  <NdssC>
3

>  <NaasC>
0

>  <NaaaC>
0

>  <NssssC>
4

>  <NsNH3>
0

>  <NsNH2>
0

>  <NssNH2>
0

>  <NdNH>
0

>  <NssNH>
0

>  <NaaNH>
0

>  <NtN>
0

>  <NsssNH>
0

>  <NdsN>
0

>  <NaaN>
0

>  <NsssN>
0

>  <NddsN>
0

>  <NaasN>
0

>  <NssssN>
0

>  <NsOH>
3

>  <NdO>
2

>  <NssO>
0

>  <NaaO>
0

>  <NsF>
1

>  <NsSiH3>
0

>  <NssSiH2>
0

>  <NsssSiH>
0

>  <NssssSi>
0

>  <NsPH2>
0

>  <NssPH>
0

>  <NsssP>
0

>  <NdsssP>
0

>  <NsssssP>
0

>  <NsSH>
0

>  <NdS>
0

>  <NssS>
0

>  <NaaS>
0

>  <NdssS>
0

>  <NddssS>
0

>  <NsCl>
0

>  <NsBr>
0

>  <NsI>
0

>  <fragCpx>
198.06

>  <fMF>
0.3

>  <nHBAcc>
5

>  <nHBDon>
3

>  <Kier1>
20.28

>  <Kier2>
6.25

>  <Lipinski>
1

>  <GhoseFilter>
1

>  <FilterItLogS>
-3.12

>  <VMcGowan>
281.52

>  <LabuteASA>
158.2

>  <PEOE_VSA1>
15.32

>  <PEOE_VSA2>
9.59

>  <PEOE_VSA3>
4.39

>  <PEOE_VSA4>
0

>  <PEOE_VSA5>
0

>  <PEOE_VSA6>
19.42

>  <PEOE_VSA7>
50.52

>  <PEOE_VSA8>
23.17

>  <PEOE_VSA9>
6.1

>  <PEOE_VSA10>
17.88

>  <PEOE_VSA11>
11.57

>  <PEOE_VSA12>
0

>  <PEOE_VSA13>
0

>  <SMR_VSA1>
29.3

>  <SMR_VSA2>
0

>  <SMR_VSA3>
0

>  <SMR_VSA4>
22.67

>  <SMR_VSA5>
76.17

>  <SMR_VSA6>
6.61

>  <SMR_VSA7>
11.65

>  <SMR_VSA8>
0

>  <SMR_VSA9>
0

>  <SlogP_VSA1>
0

>  <SlogP_VSA2>
50.87

>  <SlogP_VSA3>
9.59

>  <SlogP_VSA4>
22.67

>  <SlogP_VSA5>
58.79

>  <SlogP_VSA6>
11.65

>  <SlogP_VSA7>
0

>  <SlogP_VSA8>
0

>  <SlogP_VSA9>
0

>  <SlogP_VSA10>
4.39

>  <SlogP_VSA11>
0

>  <EState_VSA1>
46.51

>  <EState_VSA2>
30.96

>  <EState_VSA3>
25.68

>  <EState_VSA4>
5.57

>  <EState_VSA5>
0

>  <EState_VSA6>
13

>  <EState_VSA7>
6.92

>  <EState_VSA8>
0

>  <EState_VSA9>
0

>  <EState_VSA10>
24.91

>  <VSA_EState1>
16.78

>  <VSA_EState2>
24.22

>  <VSA_EState3>
31.55

>  <VSA_EState4>
-4.68

>  <VSA_EState5>
-1.36

>  <VSA_EState6>
0

>  <VSA_EState7>
2.65

>  <VSA_EState8>
2.83

>  <VSA_EState9>
0

>  <apol>
58.97

>  <bpol>
31.94

>  <nRing>
4

>  <nHRing>
0

>  <naRing>
0

>  <naHRing>
0

>  <nARing 2>
4

>  <nAHRing 2>
0

>  <nFRing>
1

>  <nFHRing>
0

>  <nFaRing>
0

>  <nFaHRing>
0

>  <nFARing 2>
1

>  <nFAHRing 2>
0

>  <nRot>
2

>  <SLogP>
1.87

>  <SMR>
95.49

>  <TopoPSA(NO)>
94.83

>  <TopoPSA>
94.83

>  <JGI1>
0.32

>  <JGI2>
0.17

>  <JGI3>
0.08

>  <JGI4>
0.06

>  <JGI5>
0.04

>  <Diameter>
12

>  <Radius>
6

>  <TMWC10>
138.19

>  <TSRW10>
78.62

>  <MW>
380.2

>  <AMW>
6.79

>  <WPath>
1533

>  <WPol>
66

>  <Zagreb1>
162

>  <Zagreb2>
212

>  <mZagreb2>
5.61

>  <yes>


>  <nAR-cont>
0.199399

>  <nHA-cont>
0.860070871

>  <MWHBN>
0.410283386

>  <MWHBN-cont>
0.435712798

>  <TPSA-cont>
0.338027714

>  <pka_cont>
0.97

>  <yes.1>


>  <BBB_SCORE>
2.874094496

>  <MMFF94 Energy>
160.48

$$$$
Compound 2021
Actelion Java MolfileCreator 2.0

  0  0  0  0  0  0              0 V3000
M  V30 BEGIN CTAB
M  V30 COUNTS 44 47 0 0 0
M  V30 BEGIN ATOM
M  V30 1 O 0.6411 5.8623 -1.9244 0
M  V30 2 C 0.5753 4.5132 -1.7371 0
M  V30 3 C -0.3021 4.0342 -0.7721 0
M  V30 4 C 1.3519 3.6399 -2.4859 0
M  V30 5 C -0.4108 2.6553 -0.5318 0
M  V30 6 C 1.2449 2.2669 -2.2603 0
M  V30 7 C 0.3666 1.7589 -1.2855 0
M  V30 8 C -1.4146 2.1754 0.483 0
M  V30 9 C 0.2963 0.2577 -1.0587 0 CFG=2
M  V30 10 C -1.2199 0.7185 0.9058 0
M  V30 11 C -0.9907 -0.1779 -0.3228 0 CFG=2
M  V30 12 C 1.5494 -0.2248 -0.3123 0
M  V30 13 C -1.0091 -1.7162 -0.1029 0 CFG=1
M  V30 14 C 1.573 -1.7424 -0.1795 0
M  V30 15 C 0.2983 -2.3846 0.3976 0
M  V30 16 C -2.0619 -2.1992 0.8993 0
M  V30 17 C 0.165 -2.3597 1.9416 0
M  V30 18 C 0.3144 -3.8786 -0.0337 0
M  V30 19 C -1.3402 -2.3164 2.2418 0
M  V30 20 O 0.7813 -1.2352 2.5471 0
M  V30 21 H 1.293 6.044 -2.6204 0
M  V30 22 H -0.9071 4.7398 -0.2079 0
M  V30 23 H 2.0385 4.0022 -3.2435 0
M  V30 24 H 1.8543 1.5865 -2.8513 0
M  V30 25 H -1.3709 2.8084 1.3777 0
M  V30 26 H -2.4156 2.2908 0.0479 0
M  V30 27 H 0.2773 -0.2185 -2.0498 0
M  V30 28 H -2.1088 0.4177 1.4676 0
M  V30 29 H -0.3756 0.6665 1.5966 0
M  V30 30 H -1.8388 0.0276 -0.9955 0
M  V30 31 H 1.63 0.2509 0.6705 0
M  V30 32 H 2.4536 0.0799 -0.8551 0
M  V30 33 H -1.2582 -2.1397 -1.0869 0
M  V30 34 H 1.7462 -2.1418 -1.1887 0
M  V30 35 H 2.4479 -2.0444 0.4095 0
M  V30 36 H -2.4275 -3.1899 0.6015 0
M  V30 37 H -2.9467 -1.5579 0.9522 0
M  V30 38 H 0.6109 -3.2471 2.4056 0
M  V30 39 H 1.2374 -4.3671 0.3001 0
M  V30 40 H -0.5217 -4.447 0.3862 0
M  V30 41 H 0.2636 -3.9752 -1.1242 0
M  V30 42 H -1.6608 -3.2335 2.7489 0
M  V30 43 H -1.5979 -1.4784 2.8987 0
M  V30 44 H 1.7439 -1.3558 2.488 0
M  V30 END ATOM
M  V30 BEGIN BOND
M  V30 1 1 1 2
M  V30 2 2 2 3
M  V30 3 1 2 4
M  V30 4 1 3 5
M  V30 5 2 4 6
M  V30 6 2 5 7
M  V30 7 1 5 8
M  V30 8 1 7 9
M  V30 9 1 8 10
M  V30 10 1 9 11
M  V30 11 1 9 12
M  V30 12 1 11 13
M  V30 13 1 12 14
M  V30 14 1 13 15
M  V30 15 1 13 16
M  V30 16 1 15 17
M  V30 17 1 15 18
M  V30 18 1 16 19
M  V30 19 1 17 20
M  V30 20 1 6 7
M  V30 21 1 10 11
M  V30 22 1 14 15
M  V30 23 1 17 19
M  V30 24 1 1 21
M  V30 25 1 3 22
M  V30 26 1 4 23
M  V30 27 1 6 24
M  V30 28 1 8 25
M  V30 29 1 8 26
M  V30 30 1 9 27
M  V30 31 1 10 28
M  V30 32 1 10 29
M  V30 33 1 11 30
M  V30 34 1 12 31
M  V30 35 1 12 32
M  V30 36 1 13 33
M  V30 37 1 14 34
M  V30 38 1 14 35
M  V30 39 1 16 36
M  V30 40 1 16 37
M  V30 41 1 17 38
M  V30 42 1 18 39
M  V30 43 1 18 40
M  V30 44 1 18 41
M  V30 45 1 19 42
M  V30 46 1 19 43
M  V30 47 1 20 44
M  V30 END BOND
M  V30 BEGIN COLLECTION
M  V30 MDLV30/STEABS ATOMS=(3 9 11 13)
M  V30 END COLLECTION
M  V30 END CTAB
M  END
>  <Column 1>
2463

>  <level_0>
2912

>  <index>
2912

>  <Unnamed: 0>
2912

>  <NO.>
2924

>  <Name>


>  <IUPAC_name>


>  <SMILES>
CC12CC[C@@H]3c4ccc(O)cc4CC[C@@H]3[C@@H]1CCC2O

>  <CID>


>  <logBB>


>  <BBB+/BBB->
BBB-

>  <Inchi>
InChI=1S/C18H24O2/c1-18-9-8-14-13-5-3-12(19)10-11(13)2-4-15(14)16(18)6-7-17(18)20/h3-5-10-14-17-19-20H-2-4-6-9H2-1H3/t14--15+-16+-17?-18?/m1/s1

>  <threshold>
-1

>  <reference>
R13|

>  <group>
B

>  <Class>
1

>  <ABC>
16.36

>  <ABCGG>
12.98

>  <nAcid>
0

>  <nBase>
0

>  <nAromAtom>
6

>  <nAromBond>
6

>  <nAtom>
44

>  <nHeavyAtom>
20

>  <nSpiro>
0

>  <nBridgehead>
0

>  <nHetero>
2

>  <nN>
0

>  <nO>
2

>  <nF>
0

>  <BalabanJ>
1.57

>  <BertzCT>
538.22

>  <nBonds>
47

>  <nBondsO>
23

>  <nBondsS>
41

>  <nBondsD>
0

>  <nBondsT>
0

>  <nBondsA>
6

>  <nBondsM>
6

>  <nBondsKS>
44

>  <nBondsKD>
3

>  <RNCG>
0.35

>  <RPCG>
0.2

>  <FCSP3>
0.67

>  <SZ>
24.67

>  <Sm>
22.68

>  <Sv>
25.93

>  <Sse>
43.32

>  <Sp>
28.54

>  <Si>
49.4

>  <MZ>
0.56

>  <Mm>
0.52

>  <Mv>
0.59

>  <Mse>
0.98

>  <Mp>
0.65

>  <Mi>
1.12

>  <NsCH3>
1

>  <NdCH2>
0

>  <NssCH2>
6

>  <NtCH>
0

>  <NdsCH>
0

>  <NaaCH>
3

>  <NsssCH>
4

>  <NddC>
0

>  <NtsC>
0

>  <NdssC>
0

>  <NaasC>
3

>  <NaaaC>
0

>  <NssssC>
1

>  <NsNH3>
0

>  <NsNH2>
0

>  <NssNH2>
0

>  <NdNH>
0

>  <NssNH>
0

>  <NaaNH>
0

>  <NtN>
0

>  <NsssNH>
0

>  <NdsN>
0

>  <NaaN>
0

>  <NsssN>
0

>  <NddsN>
0

>  <NaasN>
0

>  <NssssN>
0

>  <NsOH>
2

>  <NdO>
0

>  <NssO>
0

>  <NaaO>
0

>  <NsF>
0

>  <NsSiH3>
0

>  <NssSiH2>
0

>  <NsssSiH>
0

>  <NssssSi>
0

>  <NsPH2>
0

>  <NssPH>
0

>  <NsssP>
0

>  <NdsssP>
0

>  <NsssssP>
0

>  <NsSH>
0

>  <NdS>
0

>  <NssS>
0

>  <NaaS>
0

>  <NdssS>
0

>  <NddssS>
0

>  <NsCl>
0

>  <NsBr>
0

>  <NsI>
0

>  <fragCpx>
149.02

>  <fMF>
0.39

>  <nHBAcc>
2

>  <nHBDon>
2

>  <Kier1>
13.65

>  <Kier2>
4.75

>  <Lipinski>
1

>  <GhoseFilter>
1

>  <FilterItLogS>
-3.29

>  <VMcGowan>
219.88

>  <LabuteASA>
120.38

>  <PEOE_VSA1>
10.21

>  <PEOE_VSA2>
0

>  <PEOE_VSA3>
0

>  <PEOE_VSA4>
0

>  <PEOE_VSA5>
0

>  <PEOE_VSA6>
12.99

>  <PEOE_VSA7>
84.95

>  <PEOE_VSA8>
0

>  <PEOE_VSA9>
6.1

>  <PEOE_VSA10>
5.75

>  <PEOE_VSA11>
0

>  <PEOE_VSA12>
0

>  <PEOE_VSA13>
0

>  <SMR_VSA1>
10.21

>  <SMR_VSA2>
0

>  <SMR_VSA3>
0

>  <SMR_VSA4>
17.25

>  <SMR_VSA5>
57.47

>  <SMR_VSA6>
0

>  <SMR_VSA7>
29.33

>  <SMR_VSA8>
0

>  <SMR_VSA9>
5.75

>  <SlogP_VSA1>
0

>  <SlogP_VSA2>
16.32

>  <SlogP_VSA3>
6.42

>  <SlogP_VSA4>
17.25

>  <SlogP_VSA5>
56.07

>  <SlogP_VSA6>
18.2

>  <SlogP_VSA7>
0

>  <SlogP_VSA8>
0

>  <SlogP_VSA9>
0

>  <SlogP_VSA10>
0

>  <SlogP_VSA11>
5.75

>  <EState_VSA1>
0

>  <EState_VSA2>
11.52

>  <EState_VSA3>
17.59

>  <EState_VSA4>
25.18

>  <EState_VSA5>
30.39

>  <EState_VSA6>
0

>  <EState_VSA7>
12.13

>  <EState_VSA8>
12.99

>  <EState_VSA9>
0

>  <EState_VSA10>
10.21

>  <VSA_EState1>
0

>  <VSA_EState2>
0

>  <VSA_EState3>
20.05

>  <VSA_EState4>
2.99

>  <VSA_EState5>
2.49

>  <VSA_EState6>
5.96

>  <VSA_EState7>
6.78

>  <VSA_EState8>
2.32

>  <VSA_EState9>
0

>  <apol>
47.67

>  <bpol>
24.08

>  <nRing>
4

>  <nHRing>
0

>  <naRing>
1

>  <naHRing>
0

>  <nARing 2>
3

>  <nAHRing 2>
0

>  <nFRing>
1

>  <nFHRing>
0

>  <nFaRing>
0

>  <nFaHRing>
0

>  <nFARing 2>
1

>  <nFAHRing 2>
0

>  <nRot>
0

>  <SLogP>
3.61

>  <SMR>
78.73

>  <TopoPSA(NO)>
40.46

>  <TopoPSA>
40.46

>  <JGI1>
0.22

>  <JGI2>
0.11

>  <JGI3>
0.06

>  <JGI4>
0.06

>  <JGI5>
0.03

>  <Diameter>
10

>  <Radius>
5

>  <TMWC10>
119.61

>  <TSRW10>
69.21

>  <MW>
272.18

>  <AMW>
6.19

>  <WPath>
724

>  <WPol>
39

>  <Zagreb1>
118

>  <Zagreb2>
148

>  <mZagreb2>
4.15

>  <yes>


>  <nAR-cont>
0.691115

>  <nHA-cont>
0.999629945

>  <MWHBN>
0.242455414

>  <MWHBN-cont>
0.97154406

>  <TPSA-cont>
0.717564076

>  <pka_cont>
0.97

>  <yes.1>


>  <BBB_SCORE>
5.068189186

>  <MMFF94 Energy>
61.914

$$$$
Compound 2022
Actelion Java MolfileCreator 2.0

  0  0  0  0  0  0              0 V3000
M  V30 BEGIN CTAB
M  V30 COUNTS 59 61 0 0 0
M  V30 BEGIN ATOM
M  V30 1 S 0.724 -1.851 2.8178 0
M  V30 2 C -0.8043 -2.2283 1.9186 0 CFG=2
M  V30 3 C 1.3791 -3.5429 2.613 0
M  V30 4 N -0.4462 -2.6106 0.5753 0
M  V30 5 C -1.5878 -1.039 1.2799 0
M  V30 6 C 1.3385 -4.0345 1.1773 0
M  V30 7 C 0.4799 -3.5474 0.2523 0
M  V30 8 C -1.3226 -1.8144 -0.0719 0
M  V30 9 N -0.9533 0.3058 1.3736 0
M  V30 10 C 2.3842 -5.0812 0.8814 0
M  V30 11 C 0.5729 -3.9466 -1.1809 0
M  V30 12 O -1.6539 -1.7538 -1.2303 0
M  V30 13 C -1.6366 1.4583 1.0472 0
M  V30 14 O 0.2682 -5.0445 -1.6165 0
M  V30 15 O 1.0545 -2.8938 -1.88 0
M  V30 16 O -2.8208 1.4468 0.7103 0
M  V30 17 C -0.8035 2.7621 1.1742 0 CFG=1
M  V30 18 C 0.9738 -3.043 -3.2965 0
M  V30 19 N -1.1951 3.7075 0.1139 0
M  V30 20 C -0.9465 3.3877 2.5497 0
M  V30 21 C 1.1048 -1.7064 -4.0109 0
M  V30 22 C 0.1998 3.7474 3.2768 0
M  V30 23 C -2.2071 3.6498 3.1112 0
M  V30 24 O 1.4507 -1.6041 -5.1814 0
M  V30 25 O 0.7576 -0.6772 -3.1947 0
M  V30 26 C 0.0874 4.3354 4.5381 0
M  V30 27 C -2.3165 4.2374 4.3727 0
M  V30 28 C 0.7146 0.69 -3.6713 0
M  V30 29 C -1.1699 4.5781 5.0862 0
M  V30 30 C 2.1058 1.1722 -4.0934 0
M  V30 31 C 0.2547 1.5097 -2.4565 0
M  V30 32 C -0.315 0.8554 -4.7936 0
M  V30 33 H -1.4525 -2.9618 2.4134 0
M  V30 34 H 2.4135 -3.5131 2.971 0
M  V30 35 H 0.8231 -4.2323 3.2575 0
M  V30 36 H -2.6434 -1.0184 1.5733 0
M  V30 37 H 0.0138 0.376 1.6749 0
M  V30 38 H 3.3847 -4.6767 1.0685 0
M  V30 39 H 2.2357 -5.9493 1.5324 0
M  V30 40 H 2.3701 -5.4416 -0.1495 0
M  V30 41 H 0.2474 2.5021 0.9991 0
M  V30 42 H 0.0114 -3.4756 -3.5921 0
M  V30 43 H 1.8013 -3.6817 -3.6217 0
M  V30 44 H -0.9112 4.6462 0.3887 0
M  V30 45 H -2.2174 3.7191 0.0771 0
M  V30 46 H 1.1922 3.577 2.8646 0
M  V30 47 H -3.1176 3.397 2.5692 0
M  V30 48 H 0.9819 4.6085 5.0924 0
M  V30 49 H -3.2987 4.4313 4.7967 0
M  V30 50 H -1.2569 5.0374 6.0675 0
M  V30 51 H 2.4585 0.6614 -4.9943 0
M  V30 52 H 2.1083 2.2472 -4.3031 0
M  V30 53 H 2.8425 0.9686 -3.3083 0
M  V30 54 H 0.9446 1.3806 -1.6143 0
M  V30 55 H 0.187 2.5777 -2.6884 0
M  V30 56 H -0.7264 1.1686 -2.106 0
M  V30 57 H -0.0066 0.3422 -5.7093 0
M  V30 58 H -1.2799 0.4253 -4.5023 0
M  V30 59 H -0.4655 1.911 -5.0439 0
M  V30 END ATOM
M  V30 BEGIN BOND
M  V30 1 1 1 2
M  V30 2 1 1 3
M  V30 3 1 2 4
M  V30 4 1 2 5
M  V30 5 1 3 6
M  V30 6 1 4 7
M  V30 7 1 4 8
M  V30 8 1 5 9
M  V30 9 1 6 10
M  V30 10 1 7 11
M  V30 11 2 8 12
M  V30 12 1 9 13
M  V30 13 2 11 14
M  V30 14 1 11 15
M  V30 15 2 13 16
M  V30 16 1 13 17
M  V30 17 1 15 18
M  V30 18 1 17 19
M  V30 19 1 17 20
M  V30 20 1 18 21
M  V30 21 2 20 22
M  V30 22 1 20 23
M  V30 23 2 21 24
M  V30 24 1 21 25
M  V30 25 1 22 26
M  V30 26 2 23 27
M  V30 27 1 25 28
M  V30 28 2 26 29
M  V30 29 1 28 30
M  V30 30 1 28 31
M  V30 31 1 28 32
M  V30 32 1 5 8
M  V30 33 2 6 7
M  V30 34 1 27 29
M  V30 35 1 2 33
M  V30 36 1 3 34
M  V30 37 1 3 35
M  V30 38 1 5 36
M  V30 39 1 9 37
M  V30 40 1 10 38
M  V30 41 1 10 39
M  V30 42 1 10 40
M  V30 43 1 17 41
M  V30 44 1 18 42
M  V30 45 1 18 43
M  V30 46 1 19 44
M  V30 47 1 19 45
M  V30 48 1 22 46
M  V30 49 1 23 47
M  V30 50 1 26 48
M  V30 51 1 27 49
M  V30 52 1 29 50
M  V30 53 1 30 51
M  V30 54 1 30 52
M  V30 55 1 30 53
M  V30 56 1 31 54
M  V30 57 1 31 55
M  V30 58 1 31 56
M  V30 59 1 32 57
M  V30 60 1 32 58
M  V30 61 1 32 59
M  V30 END BOND
M  V30 BEGIN COLLECTION
M  V30 MDLV30/STEABS ATOMS=(2 2 17)
M  V30 END COLLECTION
M  V30 END CTAB
M  END
>  <Column 1>
2464

>  <level_0>
2924

>  <index>
2924

>  <Unnamed: 0>
2924

>  <NO.>
2936

>  <Name>


>  <IUPAC_name>


>  <SMILES>
CC1=C(C(=O)OCC(=O)OC(C)(C)C)N2C(=O)C(NC(=O)[C@@H](N)c3ccccc3)[C@@H]2SC1

>  <CID>


>  <logBB>


>  <BBB+/BBB->
BBB-

>  <Inchi>
InChI=1S/C22H27N3O6S/c1-12-11-32-20-16(24-18(27)15(23)13-8-6-5-7-9-13)19(28)25(20)17(12)21(29)30-10-14(26)31-22(2-3)4/h5-9-15-16-20H-10-11-23H2-1-4H3-(H-24-27)/t15--16?-20-/m0/s1

>  <threshold>
-1

>  <reference>
R13|

>  <group>
B

>  <Class>
-1

>  <ABC>
24.81

>  <ABCGG>
19.92

>  <nAcid>
0

>  <nBase>
1

>  <nAromAtom>
6

>  <nAromBond>
6

>  <nAtom>
59

>  <nHeavyAtom>
32

>  <nSpiro>
0

>  <nBridgehead>
0

>  <nHetero>
10

>  <nN>
3

>  <nO>
6

>  <nF>
0

>  <BalabanJ>
1.54

>  <BertzCT>
956.16

>  <nBonds>
61

>  <nBondsO>
34

>  <nBondsS>
50

>  <nBondsD>
5

>  <nBondsT>
0

>  <nBondsA>
6

>  <nBondsM>
11

>  <nBondsKS>
53

>  <nBondsKD>
8

>  <RNCG>
0.13

>  <RPCG>
0.1

>  <FCSP3>
0.45

>  <SZ>
40.67

>  <Sm>
38.43

>  <Sv>
37.06

>  <Sse>
60.04

>  <Sp>
39.37

>  <Si>
66.65

>  <MZ>
0.69

>  <Mm>
0.65

>  <Mv>
0.63

>  <Mse>
1.02

>  <Mp>
0.67

>  <Mi>
1.13

>  <NsCH3>
4

>  <NdCH2>
0

>  <NssCH2>
2

>  <NtCH>
0

>  <NdsCH>
0

>  <NaaCH>
5

>  <NsssCH>
3

>  <NddC>
0

>  <NtsC>
0

>  <NdssC>
6

>  <NaasC>
1

>  <NaaaC>
0

>  <NssssC>
1

>  <NsNH3>
0

>  <NsNH2>
1

>  <NssNH2>
0

>  <NdNH>
0

>  <NssNH>
1

>  <NaaNH>
0

>  <NtN>
0

>  <NsssNH>
0

>  <NdsN>
0

>  <NaaN>
0

>  <NsssN>
1

>  <NddsN>
0

>  <NaasN>
0

>  <NssssN>
0

>  <NsOH>
0

>  <NdO>
4

>  <NssO>
2

>  <NaaO>
0

>  <NsF>
0

>  <NsSiH3>
0

>  <NssSiH2>
0

>  <NsssSiH>
0

>  <NssssSi>
0

>  <NsPH2>
0

>  <NssPH>
0

>  <NsssP>
0

>  <NdsssP>
0

>  <NsssssP>
0

>  <NsSH>
0

>  <NdS>
0

>  <NssS>
1

>  <NaaS>
0

>  <NdssS>
0

>  <NddssS>
0

>  <NsCl>
0

>  <NsBr>
0

>  <NsI>
0

>  <fragCpx>
164.1

>  <fMF>
0.29

>  <nHBAcc>
8

>  <nHBDon>
2

>  <Kier1>
26.6

>  <Kier2>
11.16

>  <Lipinski>
1

>  <GhoseFilter>
1

>  <FilterItLogS>
-3.08

>  <VMcGowan>
335.37

>  <LabuteASA>
190.22

>  <PEOE_VSA1>
20.52

>  <PEOE_VSA2>
14.49

>  <PEOE_VSA3>
9.59

>  <PEOE_VSA4>
0

>  <PEOE_VSA5>
11.76

>  <PEOE_VSA6>
30.33

>  <PEOE_VSA7>
38.83

>  <PEOE_VSA8>
5.75

>  <PEOE_VSA9>
0

>  <PEOE_VSA10>
28.76

>  <PEOE_VSA11>
6.61

>  <PEOE_VSA12>
5.91

>  <PEOE_VSA13>
5.91

>  <SMR_VSA1>
28.65

>  <SMR_VSA2>
0

>  <SMR_VSA3>
10.22

>  <SMR_VSA4>
5.73

>  <SMR_VSA5>
50.75

>  <SMR_VSA6>
12.36

>  <SMR_VSA7>
47.17

>  <SMR_VSA8>
0

>  <SMR_VSA9>
0

>  <SlogP_VSA1>
11.05

>  <SlogP_VSA2>
58.03

>  <SlogP_VSA3>
28.65

>  <SlogP_VSA4>
0

>  <SlogP_VSA5>
39.3

>  <SlogP_VSA6>
41.6

>  <SlogP_VSA7>
0

>  <SlogP_VSA8>
0

>  <SlogP_VSA9>
0

>  <SlogP_VSA10>
0

>  <SlogP_VSA11>
0

>  <EState_VSA1>
53.42

>  <EState_VSA2>
5.7

>  <EState_VSA3>
16.89

>  <EState_VSA4>
0

>  <EState_VSA5>
16.66

>  <EState_VSA6>
51.96

>  <EState_VSA7>
6.07

>  <EState_VSA8>
5.32

>  <EState_VSA9>
15.21

>  <EState_VSA10>
19.18

>  <VSA_EState1>
10.22

>  <VSA_EState2>
51.16

>  <VSA_EState3>
2.23

>  <VSA_EState4>
6.69

>  <VSA_EState5>
-1.89

>  <VSA_EState6>
7.12

>  <VSA_EState7>
0

>  <VSA_EState8>
6.29

>  <VSA_EState9>
0

>  <apol>
65.76

>  <bpol>
38.2

>  <nRing>
3

>  <nHRing>
2

>  <naRing>
1

>  <naHRing>
0

>  <nARing 2>
2

>  <nAHRing 2>
2

>  <nFRing>
1

>  <nFHRing>
1

>  <nFaRing>
0

>  <nFaHRing>
0

>  <nFARing 2>
1

>  <nFAHRing 2>
1

>  <nRot>
6

>  <SLogP>
1.25

>  <SMR>
117.9

>  <TopoPSA(NO)>
128.03

>  <TopoPSA>
153.33

>  <JGI1>
0.24

>  <JGI2>
0.09

>  <JGI3>
0.08

>  <JGI4>
0.04

>  <JGI5>
0.03

>  <Diameter>
17

>  <Radius>
9

>  <TMWC10>
144.24

>  <TSRW10>
68.56

>  <MW>
461.16

>  <AMW>
7.82

>  <WPath>
3265

>  <WPol>
49

>  <Zagreb1>
168

>  <Zagreb2>
197

>  <mZagreb2>
6.88

>  <yes>


>  <nAR-cont>
1

>  <nHA-cont>
0.658856097

>  <MWHBN>
0.46566563

>  <MWHBN-cont>
0

>  <TPSA-cont>
0

>  <pka_cont>
0.97

>  <yes.1>


>  <BBB_SCORE>
2.143856097

>  <MMFF94 Energy>
107.26

$$$$
Compound 2023
Actelion Java MolfileCreator 2.0

  0  0  0  0  0  0              0 V3000
M  V30 BEGIN CTAB
M  V30 COUNTS 39 43 0 0 0
M  V30 BEGIN ATOM
M  V30 1 O -0.9729 1.9466 -1.1352 0
M  V30 2 C -1.6638 1.3184 -0.1313 0
M  V30 3 C 0.1469 1.0499 -1.4576 0 CFG=1
M  V30 4 C -2.7989 1.7654 0.5036 0
M  V30 5 C -1.041 0.1899 0.3291 0
M  V30 6 C 1.4672 1.8004 -1.5314 0
M  V30 7 C 0.188 -0.0912 -0.4424 0
M  V30 8 O -3.45 2.8842 0.0845 0
M  V30 9 C -3.2658 1.0709 1.6258 0
M  V30 10 C -1.3863 -0.46 1.5042 0
M  V30 11 C 2.5871 1.3476 -0.924 0
M  V30 12 C 1.4771 3.0364 -2.3847 0
M  V30 13 C 1.2893 -0.1218 0.6109 0 CFG=2
M  V30 14 C 0.183 -1.5068 -1.0343 0
M  V30 15 C -2.5471 -0.0306 2.1437 0
M  V30 16 C -0.366 -1.4286 2.0722 0
M  V30 17 C 2.6441 0.1106 -0.0532 0
M  V30 18 C 0.9685 -1.5149 1.2121 0
M  V30 19 N 0.8698 -2.3289 -0.0186 0
M  V30 20 C 0.3054 -3.6571 0.1292 0
M  V30 21 H -0.0759 0.6615 -2.4609 0
M  V30 22 H -2.9248 3.2314 -0.661 0
M  V30 23 H -4.1587 1.4213 2.1374 0
M  V30 24 H 3.5262 1.8839 -1.0471 0
M  V30 25 H 0.8144 3.7988 -1.9631 0
M  V30 26 H 2.4781 3.474 -2.4624 0
M  V30 27 H 1.1386 2.801 -3.3989 0
M  V30 28 H 1.1697 0.6545 1.3828 0
M  V30 29 H 0.7658 -1.5568 -1.9608 0
M  V30 30 H -0.8349 -1.8552 -1.2503 0
M  V30 31 H -2.8766 -0.4972 3.0683 0
M  V30 32 H -0.817 -2.4135 2.2241 0
M  V30 33 H -0.0806 -1.0497 3.0627 0
M  V30 34 H 3.3992 0.2544 0.7284 0
M  V30 35 H 2.9762 -0.7381 -0.6605 0
M  V30 36 H 1.786 -1.8842 1.8408 0
M  V30 37 H 0.4319 -4.2226 -0.8005 0
M  V30 38 H -0.7633 -3.6446 0.3664 0
M  V30 39 H 0.8298 -4.2141 0.9129 0
M  V30 END ATOM
M  V30 BEGIN BOND
M  V30 1 1 1 2
M  V30 2 1 1 3
M  V30 3 2 2 4
M  V30 4 1 2 5
M  V30 5 1 3 6
M  V30 6 1 3 7
M  V30 7 1 4 8
M  V30 8 1 4 9
M  V30 9 2 5 10
M  V30 10 2 6 11
M  V30 11 1 6 12
M  V30 12 1 7 13
M  V30 13 1 7 14
M  V30 14 2 9 15
M  V30 15 1 10 16
M  V30 16 1 11 17
M  V30 17 1 13 18
M  V30 18 1 14 19
M  V30 19 1 19 20
M  V30 20 1 5 7
M  V30 21 1 10 15
M  V30 22 1 13 17
M  V30 23 1 16 18
M  V30 24 1 18 19
M  V30 25 1 3 21
M  V30 26 1 8 22
M  V30 27 1 9 23
M  V30 28 1 11 24
M  V30 29 1 12 25
M  V30 30 1 12 26
M  V30 31 1 12 27
M  V30 32 1 13 28
M  V30 33 1 14 29
M  V30 34 1 14 30
M  V30 35 1 15 31
M  V30 36 1 16 32
M  V30 37 1 16 33
M  V30 38 1 17 34
M  V30 39 1 17 35
M  V30 40 1 18 36
M  V30 41 1 20 37
M  V30 42 1 20 38
M  V30 43 1 20 39
M  V30 END BOND
M  V30 BEGIN COLLECTION
M  V30 MDLV30/STEABS ATOMS=(2 3 13)
M  V30 END COLLECTION
M  V30 END CTAB
M  END
>  <Column 1>
2465

>  <level_0>
2927

>  <index>
2927

>  <Unnamed: 0>
2927

>  <NO.>
2939

>  <Name>


>  <IUPAC_name>


>  <SMILES>
CC1=CC[C@@H]2C3Cc4ccc(O)c5c4C2(CN3C)[C@H]1O5

>  <CID>


>  <logBB>


>  <BBB+/BBB->
BBB+

>  <Inchi>
InChI=1S/C17H19NO2/c1-9-3-5-11-12-7-10-4-6-13(19)15-14(10)17(11-8-18(12)2)16(9)20-15/h3-4-6-11-12-16-19H-5-7-8H2-1-2H3/t11--12?-16+-17?/m1/s1

>  <threshold>
-1

>  <reference>
R13|

>  <group>
B

>  <Class>
1

>  <ABC>
16.87

>  <ABCGG>
13.61

>  <nAcid>
0

>  <nBase>
1

>  <nAromAtom>
6

>  <nAromBond>
6

>  <nAtom>
39

>  <nHeavyAtom>
20

>  <nSpiro>
1

>  <nBridgehead>
2

>  <nHetero>
3

>  <nN>
1

>  <nO>
2

>  <nF>
0

>  <BalabanJ>
1.67

>  <BertzCT>
665.2

>  <nBonds>
43

>  <nBondsO>
24

>  <nBondsS>
36

>  <nBondsD>
1

>  <nBondsT>
0

>  <nBondsA>
6

>  <nBondsM>
7

>  <nBondsKS>
39

>  <nBondsKD>
4

>  <RNCG>
0.31

>  <RPCG>
0.18

>  <FCSP3>
0.53

>  <SZ>
24

>  <Sm>
22.42

>  <Sv>
24.33

>  <Sse>
38.76

>  <Sp>
26.21

>  <Si>
43.65

>  <MZ>
0.62

>  <Mm>
0.57

>  <Mv>
0.62

>  <Mse>
0.99

>  <Mp>
0.67

>  <Mi>
1.12

>  <NsCH3>
2

>  <NdCH2>
0

>  <NssCH2>
3

>  <NtCH>
0

>  <NdsCH>
1

>  <NaaCH>
2

>  <NsssCH>
3

>  <NddC>
0

>  <NtsC>
0

>  <NdssC>
1

>  <NaasC>
4

>  <NaaaC>
0

>  <NssssC>
1

>  <NsNH3>
0

>  <NsNH2>
0

>  <NssNH2>
0

>  <NdNH>
0

>  <NssNH>
0

>  <NaaNH>
0

>  <NtN>
0

>  <NsssNH>
0

>  <NdsN>
0

>  <NaaN>
0

>  <NsssN>
1

>  <NddsN>
0

>  <NaasN>
0

>  <NssssN>
0

>  <NsOH>
1

>  <NdO>
0

>  <NssO>
1

>  <NaaO>
0

>  <NsF>
0

>  <NsSiH3>
0

>  <NssSiH2>
0

>  <NsssSiH>
0

>  <NssssSi>
0

>  <NsPH2>
0

>  <NssPH>
0

>  <NsssP>
0

>  <NdsssP>
0

>  <NsssssP>
0

>  <NsSH>
0

>  <NdS>
0

>  <NssS>
0

>  <NaaS>
0

>  <NdssS>
0

>  <NddssS>
0

>  <NsCl>
0

>  <NsBr>
0

>  <NsI>
0

>  <fragCpx>
196.03

>  <fMF>
0.44

>  <nHBAcc>
3

>  <nHBDon>
1

>  <Kier1>
12.53

>  <Kier2>
3.85

>  <Lipinski>
1

>  <GhoseFilter>
1

>  <FilterItLogS>
-2.9

>  <VMcGowan>
200.61

>  <LabuteASA>
118.4

>  <PEOE_VSA1>
14.74

>  <PEOE_VSA2>
0

>  <PEOE_VSA3>
0

>  <PEOE_VSA4>
0

>  <PEOE_VSA5>
0

>  <PEOE_VSA6>
12.14

>  <PEOE_VSA7>
49.93

>  <PEOE_VSA8>
18.15

>  <PEOE_VSA9>
5.41

>  <PEOE_VSA10>
6.1

>  <PEOE_VSA11>
11.5

>  <PEOE_VSA12>
0

>  <PEOE_VSA13>
0

>  <SMR_VSA1>
9.84

>  <SMR_VSA2>
0

>  <SMR_VSA3>
4.9

>  <SMR_VSA4>
5.92

>  <SMR_VSA5>
37.33

>  <SMR_VSA6>
13.59

>  <SMR_VSA7>
34.91

>  <SMR_VSA8>
0

>  <SMR_VSA9>
11.5

>  <SlogP_VSA1>
4.74

>  <SlogP_VSA2>
35.74

>  <SlogP_VSA3>
11.84

>  <SlogP_VSA4>
5.92

>  <SlogP_VSA5>
24.47

>  <SlogP_VSA6>
23.78

>  <SlogP_VSA7>
0

>  <SlogP_VSA8>
0

>  <SlogP_VSA9>
0

>  <SlogP_VSA10>
0

>  <SlogP_VSA11>
11.5

>  <EState_VSA1>
0

>  <EState_VSA2>
11.52

>  <EState_VSA3>
17.71

>  <EState_VSA4>
25.14

>  <EState_VSA5>
16.7

>  <EState_VSA6>
6.07

>  <EState_VSA7>
0

>  <EState_VSA8>
31.01

>  <EState_VSA9>
4.74

>  <EState_VSA10>
5.11

>  <VSA_EState1>
6.27

>  <VSA_EState2>
2.51

>  <VSA_EState3>
10.23

>  <VSA_EState4>
4.12

>  <VSA_EState5>
1.71

>  <VSA_EState6>
4.53

>  <VSA_EState7>
4.72

>  <VSA_EState8>
3.24

>  <VSA_EState9>
2.24

>  <apol>
43.76

>  <bpol>
22.51

>  <nRing>
5

>  <nHRing>
2

>  <naRing>
1

>  <naHRing>
0

>  <nARing 2>
4

>  <nAHRing 2>
2

>  <nFRing>
1

>  <nFHRing>
1

>  <nFaRing>
0

>  <nFaHRing>
0

>  <nFARing 2>
1

>  <nFAHRing 2>
1

>  <nRot>
0

>  <SLogP>
2.23

>  <SMR>
76.19

>  <TopoPSA(NO)>
32.7

>  <TopoPSA>
32.7

>  <JGI1>
0.21

>  <JGI2>
0.1

>  <JGI3>
0.06

>  <JGI4>
0.06

>  <JGI5>
0.03

>  <Diameter>
7

>  <Radius>
4

>  <TMWC10>
123.41

>  <TSRW10>
72.47

>  <MW>
269.14

>  <AMW>
6.9

>  <WPath>
618

>  <WPol>
46

>  <Zagreb1>
128

>  <Zagreb2>
169

>  <mZagreb2>
4.04

>  <yes>


>  <nAR-cont>
0.199399

>  <nHA-cont>
0.999629945

>  <MWHBN>
0.243820865

>  <MWHBN-cont>
0.969552324

>  <TPSA-cont>
0.771733695

>  <pka_cont>
0.97

>  <yes.1>


>  <BBB_SCORE>
4.68182482

>  <MMFF94 Energy>
90.781

$$$$
Compound 2024
Actelion Java MolfileCreator 2.0

  0  0  0  0  0  0              0 V3000
M  V30 BEGIN CTAB
M  V30 COUNTS 46 49 0 0 0
M  V30 BEGIN ATOM
M  V30 1 O 1.1945 -1.4335 -2.9484 0
M  V30 2 C 0.6432 -0.9263 -1.9659 0
M  V30 3 N 0.3527 -1.757 -0.936 0
M  V30 4 C 0.3294 0.5614 -1.9449 0
M  V30 5 C -0.3745 -1.4691 0.2945 0
M  V30 6 C -0.1941 1.1766 -0.6386 0
M  V30 7 C -0.6456 0.8905 -3.0889 0
M  V30 8 C 0.3479 -0.3823 1.1644 0
M  V30 9 C -0.5749 -2.754 1.1417 0
M  V30 10 N 0.5995 0.9335 0.565 0
M  V30 11 N -0.3134 2.6332 -0.7873 0
M  V30 12 C -0.888 2.3973 -3.1733 0
M  V30 13 N -0.4347 -0.0972 2.3651 0
M  V30 14 C -1.2516 -2.4081 2.4805 0
M  V30 15 C -1.41 -3.8085 0.4077 0
M  V30 16 C 2.0435 1.2412 0.4474 0
M  V30 17 C -1.2836 2.9858 -1.8204 0
M  V30 18 C -0.5386 -1.2761 3.2159 0
M  V30 19 C 2.5412 2.6494 0.6339 0
M  V30 20 C 2.8165 1.6211 1.6865 0
M  V30 21 H 0.6524 -2.7081 -1.1158 0
M  V30 22 H 1.2877 1.0437 -2.1919 0
M  V30 23 H -1.3714 -1.1242 -0.0058 0
M  V30 24 H -1.2193 0.8363 -0.451 0
M  V30 25 H -0.2556 0.5314 -4.0486 0
M  V30 26 H -1.5985 0.3707 -2.9253 0
M  V30 27 H 1.312 -0.811 1.4759 0
M  V30 28 H 0.409 -3.194 1.3543 0
M  V30 29 H -0.6124 2.9925 0.1176 0
M  V30 30 H -1.671 2.6048 -3.9113 0
M  V30 31 H 0.0255 2.8889 -3.5311 0
M  V30 32 H 0.0489 0.6541 2.8539 0
M  V30 33 H -2.2959 -2.1183 2.3021 0
M  V30 34 H -1.2773 -3.2959 3.1238 0
M  V30 35 H -2.3937 -3.4138 0.1319 0
M  V30 36 H -1.5653 -4.6877 1.0422 0
M  V30 37 H -0.9144 -4.1496 -0.5059 0
M  V30 38 H 2.5901 0.628 -0.2675 0
M  V30 39 H -2.2853 2.6413 -1.5361 0
M  V30 40 H -1.3343 4.0768 -1.9036 0
M  V30 41 H 0.4539 -1.6012 3.55 0
M  V30 42 H -1.1087 -1.0174 4.1148 0
M  V30 43 H 3.36 2.9774 0.0051 0
M  V30 44 H 1.8248 3.4287 0.864 0
M  V30 45 H 2.2873 1.7176 2.6264 0
M  V30 46 H 3.831 1.2535 1.782 0
M  V30 END ATOM
M  V30 BEGIN BOND
M  V30 1 2 1 2
M  V30 2 1 2 3
M  V30 3 1 2 4
M  V30 4 1 3 5
M  V30 5 1 4 6
M  V30 6 1 4 7
M  V30 7 1 5 8
M  V30 8 1 5 9
M  V30 9 1 6 10
M  V30 10 1 6 11
M  V30 11 1 7 12
M  V30 12 1 8 13
M  V30 13 1 9 14
M  V30 14 1 9 15
M  V30 15 1 10 16
M  V30 16 1 11 17
M  V30 17 1 13 18
M  V30 18 1 16 19
M  V30 19 1 16 20
M  V30 20 1 8 10
M  V30 21 1 12 17
M  V30 22 1 14 18
M  V30 23 1 19 20
M  V30 24 1 3 21
M  V30 25 1 4 22
M  V30 26 1 5 23
M  V30 27 1 6 24
M  V30 28 1 7 25
M  V30 29 1 7 26
M  V30 30 1 8 27
M  V30 31 1 9 28
M  V30 32 1 11 29
M  V30 33 1 12 30
M  V30 34 1 12 31
M  V30 35 1 13 32
M  V30 36 1 14 33
M  V30 37 1 14 34
M  V30 38 1 15 35
M  V30 39 1 15 36
M  V30 40 1 15 37
M  V30 41 1 16 38
M  V30 42 1 17 39
M  V30 43 1 17 40
M  V30 44 1 18 41
M  V30 45 1 18 42
M  V30 46 1 19 43
M  V30 47 1 19 44
M  V30 48 1 20 45
M  V30 49 1 20 46
M  V30 END BOND
M  V30 END CTAB
M  END
>  <Column 1>
2466

>  <level_0>
2933

>  <index>
2933

>  <Unnamed: 0>
2933

>  <NO.>
2945

>  <Name>
2-cyclopropyl-7-methyl-2-4-9-15-tetrazatricyclo[9.4.0.03-8]pentadecan-10-one

>  <IUPAC_name>
2-cyclopropyl-7-methyl-2-4-9-15-tetrazatricyclo[9.4.0.03-8]pentadecan-10-one

>  <SMILES>
CC1CCNC2C1NC(=O)C1CCCNC1N2C1CC1

>  <CID>
73013482

>  <logBB>


>  <BBB+/BBB->
BBB+

>  <Inchi>
InChI=1S/C15H26N4O/c1-9-6-8-17-14-12(9)18-15(20)11-3-2-7-16-13(11)19(14)10-4-5-10/h9-14-16-17H-2-8H2-1H3-(H-18-20)

>  <threshold>
-1

>  <reference>
R13|

>  <group>
B

>  <Class>
1

>  <ABC>
16.2

>  <ABCGG>
13.3

>  <nAcid>
0

>  <nBase>
3

>  <nAromAtom>
0

>  <nAromBond>
0

>  <nAtom>
46

>  <nHeavyAtom>
20

>  <nSpiro>
0

>  <nBridgehead>
0

>  <nHetero>
5

>  <nN>
4

>  <nO>
1

>  <nF>
0

>  <BalabanJ>
1.67

>  <BertzCT>
397.33

>  <nBonds>
49

>  <nBondsO>
23

>  <nBondsS>
48

>  <nBondsD>
1

>  <nBondsT>
0

>  <nBondsA>
0

>  <nBondsM>
1

>  <nBondsKS>
48

>  <nBondsKD>
1

>  <RNCG>
0.2

>  <RPCG>
0.13

>  <FCSP3>
0.93

>  <SZ>
25.33

>  <Sm>
23.18

>  <Sv>
25.79

>  <Sse>
45.53

>  <Sp>
28.5

>  <Si>
52.77

>  <MZ>
0.55

>  <Mm>
0.5

>  <Mv>
0.56

>  <Mse>
0.99

>  <Mp>
0.62

>  <Mi>
1.15

>  <NsCH3>
1

>  <NdCH2>
0

>  <NssCH2>
7

>  <NtCH>
0

>  <NdsCH>
0

>  <NaaCH>
0

>  <NsssCH>
6

>  <NddC>
0

>  <NtsC>
0

>  <NdssC>
1

>  <NaasC>
0

>  <NaaaC>
0

>  <NssssC>
0

>  <NsNH3>
0

>  <NsNH2>
0

>  <NssNH2>
0

>  <NdNH>
0

>  <NssNH>
3

>  <NaaNH>
0

>  <NtN>
0

>  <NsssNH>
0

>  <NdsN>
0

>  <NaaN>
0

>  <NsssN>
1

>  <NddsN>
0

>  <NaasN>
0

>  <NssssN>
0

>  <NsOH>
0

>  <NdO>
1

>  <NssO>
0

>  <NaaO>
0

>  <NsF>
0

>  <NsSiH3>
0

>  <NssSiH2>
0

>  <NsssSiH>
0

>  <NssssSi>
0

>  <NsPH2>
0

>  <NssPH>
0

>  <NsssP>
0

>  <NdsssP>
0

>  <NsssssP>
0

>  <NsSH>
0

>  <NdS>
0

>  <NssS>
0

>  <NaaS>
0

>  <NdssS>
0

>  <NddssS>
0

>  <NsCl>
0

>  <NsBr>
0

>  <NsI>
0

>  <fragCpx>
149.05

>  <fMF>
0.39

>  <nHBAcc>
4

>  <nHBDon>
3

>  <Kier1>
13.65

>  <Kier2>
5.33

>  <Lipinski>
1

>  <GhoseFilter>
1

>  <FilterItLogS>
-2.14

>  <VMcGowan>
220.26

>  <LabuteASA>
120.4

>  <PEOE_VSA1>
10.63

>  <PEOE_VSA2>
15.01

>  <PEOE_VSA3>
0

>  <PEOE_VSA4>
0

>  <PEOE_VSA5>
0

>  <PEOE_VSA6>
6.92

>  <PEOE_VSA7>
51.11

>  <PEOE_VSA8>
6.04

>  <PEOE_VSA9>
24.29

>  <PEOE_VSA10>
0

>  <PEOE_VSA11>
0

>  <PEOE_VSA12>
5.91

>  <PEOE_VSA13>
0

>  <SMR_VSA1>
4.79

>  <SMR_VSA2>
0

>  <SMR_VSA3>
20.85

>  <SMR_VSA4>
11.84

>  <SMR_VSA5>
63.44

>  <SMR_VSA6>
13.09

>  <SMR_VSA7>
0

>  <SMR_VSA8>
0

>  <SMR_VSA9>
0

>  <SlogP_VSA1>
15.95

>  <SlogP_VSA2>
48.31

>  <SlogP_VSA3>
4.79

>  <SlogP_VSA4>
11.84

>  <SlogP_VSA5>
39.03

>  <SlogP_VSA6>
0

>  <SlogP_VSA7>
0

>  <SlogP_VSA8>
0

>  <SlogP_VSA9>
0

>  <SlogP_VSA10>
0

>  <SlogP_VSA11>
0

>  <EState_VSA1>
0

>  <EState_VSA2>
24.03

>  <EState_VSA3>
18.13

>  <EState_VSA4>
32.35

>  <EState_VSA5>
12.84

>  <EState_VSA6>
0

>  <EState_VSA7>
0

>  <EState_VSA8>
27.77

>  <EState_VSA9>
0

>  <EState_VSA10>
4.79

>  <VSA_EState1>
0

>  <VSA_EState2>
15.25

>  <VSA_EState3>
10.68

>  <VSA_EState4>
0

>  <VSA_EState5>
0.96

>  <VSA_EState6>
0.94

>  <VSA_EState7>
6.44

>  <VSA_EState8>
4.4

>  <VSA_EState9>
0

>  <apol>
47.59

>  <bpol>
30.37

>  <nRing>
4

>  <nHRing>
3

>  <naRing>
0

>  <naHRing>
0

>  <nARing 2>
4

>  <nAHRing 2>
3

>  <nFRing>
1

>  <nFHRing>
1

>  <nFaRing>
0

>  <nFaHRing>
0

>  <nFARing 2>
1

>  <nFAHRing 2>
1

>  <nRot>
1

>  <SLogP>
0.23

>  <SMR>
76.88

>  <TopoPSA(NO)>
56.4

>  <TopoPSA>
56.4

>  <JGI1>
0.13

>  <JGI2>
0.07

>  <JGI3>
0.04

>  <JGI4>
0.04

>  <JGI5>
0.02

>  <Diameter>
7

>  <Radius>
4

>  <TMWC10>
118.8

>  <TSRW10>
73.06

>  <MW>
278.21

>  <AMW>
6.05

>  <WPath>
676

>  <WPol>
39

>  <Zagreb1>
114

>  <Zagreb2>
141

>  <mZagreb2>
4.28

>  <yes>


>  <nAR-cont>
0.199399

>  <nHA-cont>
0.999629945

>  <MWHBN>
0.419673621

>  <MWHBN-cont>
0.399223399

>  <TPSA-cont>
0.606292978

>  <pka_cont>
0.97

>  <yes.1>


>  <BBB_SCORE>
3.495449998

>  <MMFF94 Energy>
-35.417

$$$$
Compound 2025
Actelion Java MolfileCreator 2.0

  0  0  0  0  0  0              0 V3000
M  V30 BEGIN CTAB
M  V30 COUNTS 61 64 0 0 0
M  V30 BEGIN ATOM
M  V30 1 O -3.9375 5.7899 -1.2041 0
M  V30 2 C -3.5589 4.6268 -1.2634 0
M  V30 3 C -2.4046 4.2358 -2.0971 0
M  V30 4 C -4.2308 3.5614 -0.497 0
M  V30 5 C -1.9788 2.9621 -2.1675 0
M  V30 6 C -3.8091 2.292 -0.5672 0
M  V30 7 C -2.6381 1.7975 -1.4111 0
M  V30 8 C -0.758 2.6102 -2.9776 0
M  V30 9 C -1.53 1.16 -0.4867 0 CFG=1
M  V30 10 C -3.237 0.8238 -2.4506 0
M  V30 11 C 0.3027 1.9806 -2.0825 0
M  V30 12 C -2.0043 -3.0E-4 0.4381 0 CFG=1
M  V30 13 C -0.238 0.775 -1.2898 0 CFG=1
M  V30 14 O -2.6077 -1.0414 -0.3153 0
M  V30 15 C -0.8683 -0.5683 1.3195 0
M  V30 16 C 0.8272 0.2578 -0.306 0 CFG=1
M  V30 17 C 0.3886 -0.9761 0.5179 0
M  V30 18 C 2.1789 -0.1687 -0.8576 0
M  V30 19 C 1.7129 -1.2599 1.3592 0
M  V30 20 C 0.0509 -2.1906 -0.4019 0
M  V30 21 C 2.8575 -0.9334 0.314 0 CFG=1
M  V30 22 C 1.7402 -2.665 2.0153 0
M  V30 23 C 1.8549 -0.2888 2.567 0
M  V30 24 C 3.685 -2.0897 -0.247 0
M  V30 25 O 0.7191 -3.3496 2.1223 0
M  V30 26 C 3.0343 -3.1636 2.6419 0
M  V30 27 C 2.8079 -3.6384 4.067 0
M  V30 28 H -1.9212 5.0481 -2.6276 0
M  V30 29 H -5.0806 3.8613 0.1039 0
M  V30 30 H -4.3658 1.5433 -0.0071 0
M  V30 31 H -0.3319 3.4968 -3.463 0
M  V30 32 H -1.0304 1.9214 -3.7853 0
M  V30 33 H -1.2187 1.9592 0.2081 0
M  V30 34 H -3.9293 0.1054 -1.9983 0
M  V30 35 H -2.4715 0.2496 -2.9807 0
M  V30 36 H -3.8154 1.3656 -3.2109 0
M  V30 37 H 0.6868 2.7397 -1.388 0
M  V30 38 H 1.1479 1.6695 -2.7077 0
M  V30 39 H -2.7762 0.3757 1.1188 0
M  V30 40 H -0.4788 -0.003 -2.0199 0
M  V30 41 H -2.7977 -1.7795 0.2912 0
M  V30 42 H -0.6184 0.2104 2.0487 0
M  V30 43 H -1.2356 -1.4295 1.8904 0
M  V30 44 H 1.0214 1.0976 0.3759 0
M  V30 45 H 2.7865 0.6924 -1.1565 0
M  V30 46 H 2.0571 -0.8043 -1.7426 0
M  V30 47 H 0.9412 -2.691 -0.7866 0
M  V30 48 H -0.5394 -1.9192 -1.2788 0
M  V30 49 H -0.5336 -2.9464 0.1326 0
M  V30 50 H 3.5711 -0.2385 0.7779 0
M  V30 51 H 2.8392 -0.3815 3.04 0
M  V30 52 H 1.1156 -0.5116 3.3453 0
M  V30 53 H 1.7466 0.7628 2.2901 0
M  V30 54 H 3.0689 -2.9355 -0.5603 0
M  V30 55 H 4.264 -1.7596 -1.1174 0
M  V30 56 H 4.4139 -2.4484 0.4835 0
M  V30 57 H 3.7856 -2.3702 2.6529 0
M  V30 58 H 3.4156 -3.9849 2.0266 0
M  V30 59 H 3.7528 -3.9597 4.516 0
M  V30 60 H 2.1128 -4.4839 4.0977 0
M  V30 61 H 2.3873 -2.8377 4.6844 0
M  V30 END ATOM
M  V30 BEGIN BOND
M  V30 1 2 1 2
M  V30 2 1 2 3
M  V30 3 1 2 4
M  V30 4 2 3 5
M  V30 5 2 4 6
M  V30 6 1 5 7
M  V30 7 1 5 8
M  V30 8 1 7 9
M  V30 9 1 7 10
M  V30 10 1 8 11
M  V30 11 1 9 12
M  V30 12 1 9 13
M  V30 13 1 12 14
M  V30 14 1 12 15
M  V30 15 1 13 16
M  V30 16 1 15 17
M  V30 17 1 16 18
M  V30 18 1 17 19
M  V30 19 1 17 20
M  V30 20 1 18 21
M  V30 21 1 19 22
M  V30 22 1 19 23
M  V30 23 1 21 24
M  V30 24 2 22 25
M  V30 25 1 22 26
M  V30 26 1 26 27
M  V30 27 1 6 7
M  V30 28 1 11 13
M  V30 29 1 16 17
M  V30 30 1 19 21
M  V30 31 1 3 28
M  V30 32 1 4 29
M  V30 33 1 6 30
M  V30 34 1 8 31
M  V30 35 1 8 32
M  V30 36 1 9 33
M  V30 37 1 10 34
M  V30 38 1 10 35
M  V30 39 1 10 36
M  V30 40 1 11 37
M  V30 41 1 11 38
M  V30 42 1 12 39
M  V30 43 1 13 40
M  V30 44 1 14 41
M  V30 45 1 15 42
M  V30 46 1 15 43
M  V30 47 1 16 44
M  V30 48 1 18 45
M  V30 49 1 18 46
M  V30 50 1 20 47
M  V30 51 1 20 48
M  V30 52 1 20 49
M  V30 53 1 21 50
M  V30 54 1 23 51
M  V30 55 1 23 52
M  V30 56 1 23 53
M  V30 57 1 24 54
M  V30 58 1 24 55
M  V30 59 1 24 56
M  V30 60 1 26 57
M  V30 61 1 26 58
M  V30 62 1 27 59
M  V30 63 1 27 60
M  V30 64 1 27 61
M  V30 END BOND
M  V30 BEGIN COLLECTION
M  V30 MDLV30/STEABS ATOMS=(5 9 12 13 16 21)
M  V30 END COLLECTION
M  V30 END CTAB
M  END
>  <Column 1>
2467

>  <level_0>
2935

>  <index>
2935

>  <Unnamed: 0>
2935

>  <NO.>
2947

>  <Name>


>  <IUPAC_name>


>  <SMILES>
CCC(=O)C1(C)[C@@H](C)C[C@H]2[C@@H]3CCC4=CC(=O)C=CC4(C)[C@H]3[C@@H](O)CC21C

>  <CID>


>  <logBB>


>  <BBB+/BBB->
BBB+

>  <Inchi>
InChI=1S/C24H34O3/c1-6-20(27)24(5)14(2)11-18-17-8-7-15-12-16(25)9-10-22(15-3)21(17)19(26)13-23(18-24)4/h9-10-12-14-17-19-21-26H-6-8-11-13H2-1-5H3/t14--17--18--19--21+-22?-23?-24?/m0/s1

>  <threshold>
-1

>  <reference>
R13|

>  <group>
B

>  <Class>
1

>  <ABC>
21.6

>  <ABCGG>
17.94

>  <nAcid>
0

>  <nBase>
0

>  <nAromAtom>
0

>  <nAromBond>
0

>  <nAtom>
61

>  <nHeavyAtom>
27

>  <nSpiro>
0

>  <nBridgehead>
0

>  <nHetero>
3

>  <nN>
0

>  <nO>
3

>  <nF>
0

>  <BalabanJ>
1.71

>  <BertzCT>
748.73

>  <nBonds>
64

>  <nBondsO>
30

>  <nBondsS>
60

>  <nBondsD>
4

>  <nBondsT>
0

>  <nBondsA>
0

>  <nBondsM>
4

>  <nBondsKS>
60

>  <nBondsKD>
4

>  <RNCG>
0.23

>  <RPCG>
0.13

>  <FCSP3>
0.75

>  <SZ>
33.67

>  <Sm>
30.85

>  <Sv>
35.36

>  <Sse>
60.09

>  <Sp>
39.02

>  <Si>
68.69

>  <MZ>
0.55

>  <Mm>
0.51

>  <Mv>
0.58

>  <Mse>
0.99

>  <Mp>
0.64

>  <Mi>
1.13

>  <NsCH3>
5

>  <NdCH2>
0

>  <NssCH2>
5

>  <NtCH>
0

>  <NdsCH>
3

>  <NaaCH>
0

>  <NsssCH>
5

>  <NddC>
0

>  <NtsC>
0

>  <NdssC>
3

>  <NaasC>
0

>  <NaaaC>
0

>  <NssssC>
3

>  <NsNH3>
0

>  <NsNH2>
0

>  <NssNH2>
0

>  <NdNH>
0

>  <NssNH>
0

>  <NaaNH>
0

>  <NtN>
0

>  <NsssNH>
0

>  <NdsN>
0

>  <NaaN>
0

>  <NsssN>
0

>  <NddsN>
0

>  <NaasN>
0

>  <NssssN>
0

>  <NsOH>
1

>  <NdO>
2

>  <NssO>
0

>  <NaaO>
0

>  <NsF>
0

>  <NsSiH3>
0

>  <NssSiH2>
0

>  <NsssSiH>
0

>  <NssssSi>
0

>  <NsPH2>
0

>  <NssPH>
0

>  <NsssP>
0

>  <NdsssP>
0

>  <NsssssP>
0

>  <NsSH>
0

>  <NdS>
0

>  <NssS>
0

>  <NaaS>
0

>  <NdssS>
0

>  <NddssS>
0

>  <NsCl>
0

>  <NsBr>
0

>  <NsI>
0

>  <fragCpx>
198.03

>  <fMF>
0.28

>  <nHBAcc>
3

>  <nHBDon>
1

>  <Kier1>
20.28

>  <Kier2>
6.5

>  <Lipinski>
1

>  <GhoseFilter>
1

>  <FilterItLogS>
-4.24

>  <VMcGowan>
305.99

>  <LabuteASA>
162.85

>  <PEOE_VSA1>
5.11

>  <PEOE_VSA2>
9.59

>  <PEOE_VSA3>
0

>  <PEOE_VSA4>
0

>  <PEOE_VSA5>
0

>  <PEOE_VSA6>
46.27

>  <PEOE_VSA7>
61

>  <PEOE_VSA8>
23.17

>  <PEOE_VSA9>
6.1

>  <PEOE_VSA10>
5.78

>  <PEOE_VSA11>
5.78

>  <PEOE_VSA12>
0

>  <PEOE_VSA13>
0

>  <SMR_VSA1>
14.7

>  <SMR_VSA2>
0

>  <SMR_VSA3>
0

>  <SMR_VSA4>
39.92

>  <SMR_VSA5>
72.83

>  <SMR_VSA6>
0

>  <SMR_VSA7>
23.8

>  <SMR_VSA8>
0

>  <SMR_VSA9>
0

>  <SlogP_VSA1>
0

>  <SlogP_VSA2>
22.78

>  <SlogP_VSA3>
9.59

>  <SlogP_VSA4>
39.92

>  <SlogP_VSA5>
66.72

>  <SlogP_VSA6>
23.8

>  <SlogP_VSA7>
0

>  <SlogP_VSA8>
0

>  <SlogP_VSA9>
0

>  <SlogP_VSA10>
0

>  <SlogP_VSA11>
0

>  <EState_VSA1>
6.1

>  <EState_VSA2>
27.95

>  <EState_VSA3>
36.38

>  <EState_VSA4>
19.26

>  <EState_VSA5>
5.57

>  <EState_VSA6>
12.15

>  <EState_VSA7>
6.92

>  <EState_VSA8>
33.77

>  <EState_VSA9>
0

>  <EState_VSA10>
14.7

>  <VSA_EState1>
0

>  <VSA_EState2>
24.97

>  <VSA_EState3>
11.4

>  <VSA_EState4>
0.46

>  <VSA_EState5>
1.8

>  <VSA_EState6>
0

>  <VSA_EState7>
9.41

>  <VSA_EState8>
10.88

>  <VSA_EState9>
0

>  <apol>
65.16

>  <bpol>
35.85

>  <nRing>
4

>  <nHRing>
0

>  <naRing>
0

>  <naHRing>
0

>  <nARing 2>
4

>  <nAHRing 2>
0

>  <nFRing>
1

>  <nFHRing>
0

>  <nFaRing>
0

>  <nFaHRing>
0

>  <nFARing 2>
1

>  <nFAHRing 2>
0

>  <nRot>
2

>  <SLogP>
4.5

>  <SMR>
105.96

>  <TopoPSA(NO)>
54.37

>  <TopoPSA>
54.37

>  <JGI1>
0.3

>  <JGI2>
0.14

>  <JGI3>
0.08

>  <JGI4>
0.06

>  <JGI5>
0.04

>  <Diameter>
12

>  <Radius>
6

>  <TMWC10>
137.75

>  <TSRW10>
78.66

>  <MW>
370.25

>  <AMW>
6.07

>  <WPath>
1556

>  <WPol>
63

>  <Zagreb1>
160

>  <Zagreb2>
207

>  <mZagreb2>
5.65

>  <yes>


>  <nAR-cont>
0.199399

>  <nHA-cont>
0.860070871

>  <MWHBN>
0.20787988

>  <MWHBN-cont>
0.999727467

>  <TPSA-cont>
0.620463638

>  <pka_cont>
0.97

>  <yes.1>


>  <BBB_SCORE>
4.284988348

>  <MMFF94 Energy>
110.65

$$$$
Compound 2026
Actelion Java MolfileCreator 2.0

  0  0  0  0  0  0              0 V3000
M  V30 BEGIN CTAB
M  V30 COUNTS 34 34 0 0 0
M  V30 BEGIN ATOM
M  V30 1 O -4.2942 1.4037 -2.2624 0
M  V30 2 C -3.5889 0.7586 -1.4911 0
M  V30 3 C -2.718 -0.3806 -1.9452 0
M  V30 4 C -3.576 1.1004 -0.0578 0
M  V30 5 O -2.7694 -0.6903 -3.2925 0
M  V30 6 C -1.9524 -1.0266 -1.0264 0
M  V30 7 C -2.7614 0.4096 0.7405 0
M  V30 8 N -1.9187 -0.6212 0.3355 0
M  V30 9 C -1.1397 -2.2435 -1.4173 0
M  V30 10 C -1.0241 -1.2314 1.3487 0
M  V30 11 C 0.1328 -0.2993 1.7335 0
M  V30 12 C 1.1318 -0.0722 0.5967 0
M  V30 13 C 2.2883 0.8237 1.0453 0
M  V30 14 C 3.2868 1.051 -0.0893 0
M  V30 15 C 4.4379 1.9411 0.3515 0
M  V30 16 H -4.2177 1.9006 0.2807 0
M  V30 17 H -1.9471 -1.1285 -3.5521 0
M  V30 18 H -2.7211 0.6422 1.8018 0
M  V30 19 H -1.3136 -2.5832 -2.4412 0
M  V30 20 H -1.4021 -3.0961 -0.7814 0
M  V30 21 H -0.0695 -2.0395 -1.3208 0
M  V30 22 H -1.6144 -1.4482 2.2492 0
M  V30 23 H -0.6216 -2.1975 1.0314 0
M  V30 24 H 0.6606 -0.7461 2.5854 0
M  V30 25 H -0.2547 0.6666 2.0785 0
M  V30 26 H 0.6282 0.3923 -0.2585 0
M  V30 27 H 1.5285 -1.0371 0.2597 0
M  V30 28 H 2.8007 0.3634 1.899 0
M  V30 29 H 1.8942 1.7888 1.3869 0
M  V30 30 H 3.6864 0.0895 -0.4319 0
M  V30 31 H 2.7804 1.5151 -0.9437 0
M  V30 32 H 5.1396 2.0905 -0.475 0
M  V30 33 H 4.0745 2.9234 0.6703 0
M  V30 34 H 4.9858 1.49 1.185 0
M  V30 END ATOM
M  V30 BEGIN BOND
M  V30 1 2 1 2
M  V30 2 1 2 3
M  V30 3 1 2 4
M  V30 4 1 3 5
M  V30 5 2 3 6
M  V30 6 2 4 7
M  V30 7 1 6 8
M  V30 8 1 6 9
M  V30 9 1 8 10
M  V30 10 1 10 11
M  V30 11 1 11 12
M  V30 12 1 12 13
M  V30 13 1 13 14
M  V30 14 1 14 15
M  V30 15 1 7 8
M  V30 16 1 4 16
M  V30 17 1 5 17
M  V30 18 1 7 18
M  V30 19 1 9 19
M  V30 20 1 9 20
M  V30 21 1 9 21
M  V30 22 1 10 22
M  V30 23 1 10 23
M  V30 24 1 11 24
M  V30 25 1 11 25
M  V30 26 1 12 26
M  V30 27 1 12 27
M  V30 28 1 13 28
M  V30 29 1 13 29
M  V30 30 1 14 30
M  V30 31 1 14 31
M  V30 32 1 15 32
M  V30 33 1 15 33
M  V30 34 1 15 34
M  V30 END BOND
M  V30 END CTAB
M  END
>  <Column 1>
2470

>  <level_0>
3004

>  <index>
3004

>  <Unnamed: 0>
3004

>  <NO.>
3016

>  <Name>
cp25

>  <IUPAC_name>
1-hexyl-3-hydroxy-2-methylpyridin-4-one

>  <SMILES>
CCCCCCn1ccc(=O)c(O)c1C

>  <CID>
10488627

>  <logBB>


>  <BBB+/BBB->
BBB+

>  <Inchi>
InChI=1S/C12H19NO2/c1-3-4-5-6-8-13-9-7-11(14)12(15)10(13)2/h7-9-15H-3-6-8H2-1-2H3

>  <threshold>
-1

>  <reference>
R13|R19|R9|R24|R27|R36|

>  <group>
B

>  <Class>
1

>  <ABC>
10.81

>  <ABCGG>
9.79

>  <nAcid>
0

>  <nBase>
0

>  <nAromAtom>
6

>  <nAromBond>
6

>  <nAtom>
34

>  <nHeavyAtom>
15

>  <nSpiro>
0

>  <nBridgehead>
0

>  <nHetero>
3

>  <nN>
1

>  <nO>
2

>  <nF>
0

>  <BalabanJ>
2.23

>  <BertzCT>
368.38

>  <nBonds>
34

>  <nBondsO>
15

>  <nBondsS>
27

>  <nBondsD>
1

>  <nBondsT>
0

>  <nBondsA>
6

>  <nBondsM>
7

>  <nBondsKS>
31

>  <nBondsKD>
3

>  <RNCG>
0.35

>  <RPCG>
0.21

>  <FCSP3>
0.58

>  <SZ>
19

>  <Sm>
17.42

>  <Sv>
19.33

>  <Sse>
33.76

>  <Sp>
21.21

>  <Si>
38.65

>  <MZ>
0.56

>  <Mm>
0.51

>  <Mv>
0.57

>  <Mse>
0.99

>  <Mp>
0.62

>  <Mi>
1.14

>  <NsCH3>
2

>  <NdCH2>
0

>  <NssCH2>
5

>  <NtCH>
0

>  <NdsCH>
0

>  <NaaCH>
2

>  <NsssCH>
0

>  <NddC>
0

>  <NtsC>
0

>  <NdssC>
0

>  <NaasC>
2

>  <NaaaC>
0

>  <NssssC>
0

>  <NsNH3>
0

>  <NsNH2>
0

>  <NssNH2>
0

>  <NdNH>
0

>  <NssNH>
0

>  <NaaNH>
0

>  <NtN>
0

>  <NsssNH>
0

>  <NdsN>
0

>  <NaaN>
0

>  <NsssN>
0

>  <NddsN>
0

>  <NaasN>
1

>  <NssssN>
0

>  <NsOH>
1

>  <NdO>
1

>  <NssO>
0

>  <NaaO>
0

>  <NsF>
0

>  <NsSiH3>
0

>  <NssSiH2>
0

>  <NsssSiH>
0

>  <NssssSi>
0

>  <NsPH2>
0

>  <NssPH>
0

>  <NsssP>
0

>  <NdsssP>
0

>  <NsssssP>
0

>  <NsSH>
0

>  <NdS>
0

>  <NssS>
0

>  <NaaS>
0

>  <NdssS>
0

>  <NddssS>
0

>  <NsCl>
0

>  <NsBr>
0

>  <NsI>
0

>  <fragCpx>
15.03

>  <fMF>
0.18

>  <nHBAcc>
3

>  <nHBDon>
1

>  <Kier1>
13.07

>  <Kier2>
6.55

>  <Lipinski>
1

>  <GhoseFilter>
1

>  <FilterItLogS>
-3.03

>  <VMcGowan>
177.9

>  <LabuteASA>
90.37

>  <PEOE_VSA1>
9.67

>  <PEOE_VSA2>
4.79

>  <PEOE_VSA3>
0

>  <PEOE_VSA4>
0

>  <PEOE_VSA5>
0

>  <PEOE_VSA6>
26.19

>  <PEOE_VSA7>
13.34

>  <PEOE_VSA8>
18.81

>  <PEOE_VSA9>
5.69

>  <PEOE_VSA10>
0

>  <PEOE_VSA11>
5.75

>  <PEOE_VSA12>
5.43

>  <PEOE_VSA13>
0

>  <SMR_VSA1>
5.11

>  <SMR_VSA2>
0

>  <SMR_VSA3>
4.57

>  <SMR_VSA4>
0

>  <SMR_VSA5>
46.08

>  <SMR_VSA6>
0

>  <SMR_VSA7>
28.18

>  <SMR_VSA8>
0

>  <SMR_VSA9>
5.75

>  <SlogP_VSA1>
5.43

>  <SlogP_VSA2>
9.67

>  <SlogP_VSA3>
6.54

>  <SlogP_VSA4>
6.92

>  <SlogP_VSA5>
38.3

>  <SlogP_VSA6>
17.06

>  <SlogP_VSA7>
0

>  <SlogP_VSA8>
0

>  <SlogP_VSA9>
0

>  <SlogP_VSA10>
0

>  <SlogP_VSA11>
5.75

>  <EState_VSA1>
0

>  <EState_VSA2>
11.18

>  <EState_VSA3>
5.69

>  <EState_VSA4>
12.97

>  <EState_VSA5>
25.33

>  <EState_VSA6>
13.12

>  <EState_VSA7>
4.57

>  <EState_VSA8>
6.92

>  <EState_VSA9>
0

>  <EState_VSA10>
9.9

>  <VSA_EState1>
1.94

>  <VSA_EState2>
11.11

>  <VSA_EState3>
9.46

>  <VSA_EState4>
0.37

>  <VSA_EState5>
-0.12

>  <VSA_EState6>
1.42

>  <VSA_EState7>
6.5

>  <VSA_EState8>
4.83

>  <VSA_EState9>
0

>  <apol>
35.41

>  <bpol>
21.64

>  <nRing>
1

>  <nHRing>
1

>  <naRing>
1

>  <naHRing>
1

>  <nARing 2>
0

>  <nAHRing 2>
0

>  <nFRing>
0

>  <nFHRing>
0

>  <nFaRing>
0

>  <nFaHRing>
0

>  <nFARing 2>
0

>  <nFAHRing 2>
0

>  <nRot>
5

>  <SLogP>
2.44

>  <SMR>
61.25

>  <TopoPSA(NO)>
42.23

>  <TopoPSA>
42.23

>  <JGI1>
0.17

>  <JGI2>
0.11

>  <JGI3>
0.05

>  <JGI4>
0.05

>  <JGI5>
0.03

>  <Diameter>
10

>  <Radius>
5

>  <TMWC10>
97.71

>  <TSRW10>
46.23

>  <MW>
209.14

>  <AMW>
6.15

>  <WPath>
414

>  <WPol>
20

>  <Zagreb1>
68

>  <Zagreb2>
76

>  <mZagreb2>
3.58

>  <yes>


>  <nAR-cont>
0.336376

>  <nHA-cont>
0.92539861

>  <MWHBN>
0.276593162

>  <MWHBN-cont>
0.904560475

>  <TPSA-cont>
0.705208377

>  <pka_cont>
0.97

>  <yes.1>


>  <BBB_SCORE>
4.514032076

>  <MMFF94 Energy>
47.474

$$$$
Compound 2027
Actelion Java MolfileCreator 2.0

  0  0  0  0  0  0              0 V3000
M  V30 BEGIN CTAB
M  V30 COUNTS 46 47 0 0 0
M  V30 BEGIN ATOM
M  V30 1 O -4.9429 1.4103 -3.3716 0
M  V30 2 C -3.9687 0.8968 -2.5671 0
M  V30 3 C -3.5268 1.6137 -1.4657 0
M  V30 4 C -3.3999 -0.3489 -2.835 0
M  V30 5 N -3.9671 2.8816 -1.0316 0
M  V30 6 C -2.5252 1.0879 -0.6373 0
M  V30 7 C -2.3941 -0.8651 -1.9976 0
M  V30 8 C -3.2712 3.1522 0.0352 0
M  V30 9 C -1.942 -0.1513 -0.8762 0
M  V30 10 C -2.2703 2.0837 0.445 0
M  V30 11 C -3.42 4.4095 0.8214 0
M  V30 12 C -0.8474 -0.7033 2.0E-4 0
M  V30 13 C 0.5464 -0.2826 -0.4995 0
M  V30 14 N 1.6359 -0.7141 0.4008 0
M  V30 15 C 2.8886 -0.0212 0.0451 0
M  V30 16 C 1.799 -2.1801 0.4022 0
M  V30 17 C 3.9551 -0.1439 1.142 0
M  V30 18 C 1.4949 -2.7254 1.8001 0
M  V30 19 C 5.2058 0.6461 0.7855 0
M  V30 20 C 1.6479 -4.2378 1.8501 0
M  V30 21 H -5.1375 0.7765 -4.0777 0
M  V30 22 H -3.7219 -0.9349 -3.6905 0
M  V30 23 H -1.9655 -1.8378 -2.2326 0
M  V30 24 H -1.2561 2.4878 0.4099 0
M  V30 25 H -2.5218 1.6966 1.4351 0
M  V30 26 H -3.7096 4.1632 1.8462 0
M  V30 27 H -2.4655 4.9417 0.8363 0
M  V30 28 H -4.1839 5.0512 0.3751 0
M  V30 29 H -0.9426 -1.7951 0.0325 0
M  V30 30 H -0.9965 -0.3609 1.032 0
M  V30 31 H 0.7181 -0.6524 -1.5194 0
M  V30 32 H 0.5518 0.8136 -0.5647 0
M  V30 33 H 2.6857 1.0499 -0.0843 0
M  V30 34 H 3.2777 -0.3873 -0.9137 0
M  V30 35 H 2.8131 -2.4799 0.1093 0
M  V30 36 H 1.1433 -2.6651 -0.3319 0
M  V30 37 H 3.5554 0.2301 2.0922 0
M  V30 38 H 4.2396 -1.1896 1.3 0
M  V30 39 H 2.1708 -2.2754 2.5369 0
M  V30 40 H 0.4729 -2.4624 2.0971 0
M  V30 41 H 5.9539 0.5488 1.5785 0
M  V30 42 H 5.6481 0.2796 -0.1461 0
M  V30 43 H 4.9774 1.7097 0.6635 0
M  V30 44 H 1.4273 -4.6078 2.8562 0
M  V30 45 H 0.9608 -4.7247 1.1509 0
M  V30 46 H 2.6691 -4.5373 1.5944 0
M  V30 END ATOM
M  V30 BEGIN BOND
M  V30 1 1 1 2
M  V30 2 2 2 3
M  V30 3 1 2 4
M  V30 4 1 3 5
M  V30 5 1 3 6
M  V30 6 2 4 7
M  V30 7 2 5 8
M  V30 8 2 6 9
M  V30 9 1 6 10
M  V30 10 1 8 11
M  V30 11 1 9 12
M  V30 12 1 12 13
M  V30 13 1 13 14
M  V30 14 1 14 15
M  V30 15 1 14 16
M  V30 16 1 15 17
M  V30 17 1 16 18
M  V30 18 1 17 19
M  V30 19 1 18 20
M  V30 20 1 7 9
M  V30 21 1 8 10
M  V30 22 1 1 21
M  V30 23 1 4 22
M  V30 24 1 7 23
M  V30 25 1 10 24
M  V30 26 1 10 25
M  V30 27 1 11 26
M  V30 28 1 11 27
M  V30 29 1 11 28
M  V30 30 1 12 29
M  V30 31 1 12 30
M  V30 32 1 13 31
M  V30 33 1 13 32
M  V30 34 1 15 33
M  V30 35 1 15 34
M  V30 36 1 16 35
M  V30 37 1 16 36
M  V30 38 1 17 37
M  V30 39 1 17 38
M  V30 40 1 18 39
M  V30 41 1 18 40
M  V30 42 1 19 41
M  V30 43 1 19 42
M  V30 44 1 19 43
M  V30 45 1 20 44
M  V30 46 1 20 45
M  V30 47 1 20 46
M  V30 END BOND
M  V30 END CTAB
M  END
>  <Column 1>
2471

>  <level_0>
3021

>  <index>
3021

>  <Unnamed: 0>
3021

>  <NO.>
3033

>  <Name>


>  <IUPAC_name>


>  <SMILES>
CCCN(CCC)CCc1ccc(O)c2c1CC(C)=N2

>  <CID>


>  <logBB>


>  <BBB+/BBB->
BBB+

>  <Inchi>
InChI=1S/C17H26N2O/c1-4-9-19(10-5-2)11-8-14-6-7-16(20)17-15(14)12-13(3)18-17/h6-7-20H-4-5-8-12H2-1-3H3

>  <threshold>
-1

>  <reference>
R13|

>  <group>
B

>  <Class>
1

>  <ABC>
14.95

>  <ABCGG>
13.14

>  <nAcid>
0

>  <nBase>
1

>  <nAromAtom>
6

>  <nAromBond>
6

>  <nAtom>
46

>  <nHeavyAtom>
20

>  <nSpiro>
0

>  <nBridgehead>
0

>  <nHetero>
3

>  <nN>
2

>  <nO>
1

>  <nF>
0

>  <BalabanJ>
1.85

>  <BertzCT>
488.01

>  <nBonds>
47

>  <nBondsO>
21

>  <nBondsS>
40

>  <nBondsD>
1

>  <nBondsT>
0

>  <nBondsA>
6

>  <nBondsM>
7

>  <nBondsKS>
43

>  <nBondsKD>
4

>  <RNCG>
0.35

>  <RPCG>
0.2

>  <FCSP3>
0.59

>  <SZ>
25

>  <Sm>
22.85

>  <Sv>
26.27

>  <Sse>
45.2

>  <Sp>
29.18

>  <Si>
52.19

>  <MZ>
0.54

>  <Mm>
0.5

>  <Mv>
0.57

>  <Mse>
0.98

>  <Mp>
0.63

>  <Mi>
1.13

>  <NsCH3>
3

>  <NdCH2>
0

>  <NssCH2>
7

>  <NtCH>
0

>  <NdsCH>
0

>  <NaaCH>
2

>  <NsssCH>
0

>  <NddC>
0

>  <NtsC>
0

>  <NdssC>
1

>  <NaasC>
4

>  <NaaaC>
0

>  <NssssC>
0

>  <NsNH3>
0

>  <NsNH2>
0

>  <NssNH2>
0

>  <NdNH>
0

>  <NssNH>
0

>  <NaaNH>
0

>  <NtN>
0

>  <NsssNH>
0

>  <NdsN>
1

>  <NaaN>
0

>  <NsssN>
1

>  <NddsN>
0

>  <NaasN>
0

>  <NssssN>
0

>  <NsOH>
1

>  <NdO>
0

>  <NssO>
0

>  <NaaO>
0

>  <NsF>
0

>  <NsSiH3>
0

>  <NssSiH2>
0

>  <NsssSiH>
0

>  <NssssSi>
0

>  <NsPH2>
0

>  <NssPH>
0

>  <NsssP>
0

>  <NdsssP>
0

>  <NsssssP>
0

>  <NsSH>
0

>  <NdS>
0

>  <NssS>
0

>  <NaaS>
0

>  <NdssS>
0

>  <NddssS>
0

>  <NsCl>
0

>  <NsBr>
0

>  <NsI>
0

>  <fragCpx>
61.03

>  <fMF>
0.2

>  <nHBAcc>
3

>  <nHBDon>
1

>  <Kier1>
16.37

>  <Kier2>
7.85

>  <Lipinski>
1

>  <GhoseFilter>
1

>  <FilterItLogS>
-5.03

>  <VMcGowan>
237.3

>  <LabuteASA>
121.89

>  <PEOE_VSA1>
10.01

>  <PEOE_VSA2>
4.99

>  <PEOE_VSA3>
0

>  <PEOE_VSA4>
0

>  <PEOE_VSA5>
0

>  <PEOE_VSA6>
19.91

>  <PEOE_VSA7>
56.47

>  <PEOE_VSA8>
18.68

>  <PEOE_VSA9>
0

>  <PEOE_VSA10>
11.44

>  <PEOE_VSA11>
0

>  <PEOE_VSA12>
0

>  <PEOE_VSA13>
0

>  <SMR_VSA1>
5.11

>  <SMR_VSA2>
0

>  <SMR_VSA3>
4.9

>  <SMR_VSA4>
4.99

>  <SMR_VSA5>
46.45

>  <SMR_VSA6>
19.63

>  <SMR_VSA7>
23.26

>  <SMR_VSA8>
0

>  <SMR_VSA9>
5.75

>  <SlogP_VSA1>
0

>  <SlogP_VSA2>
35.35

>  <SlogP_VSA3>
12.84

>  <SlogP_VSA4>
0

>  <SlogP_VSA5>
44.74

>  <SlogP_VSA6>
17.13

>  <SlogP_VSA7>
0

>  <SlogP_VSA8>
0

>  <SlogP_VSA9>
0

>  <SlogP_VSA10>
5.69

>  <SlogP_VSA11>
5.75

>  <EState_VSA1>
0

>  <EState_VSA2>
0

>  <EState_VSA3>
5.75

>  <EState_VSA4>
30.79

>  <EState_VSA5>
37.06

>  <EState_VSA6>
6.07

>  <EState_VSA7>
6.92

>  <EState_VSA8>
29.81

>  <EState_VSA9>
0

>  <EState_VSA10>
5.11

>  <VSA_EState1>
0

>  <VSA_EState2>
6.99

>  <VSA_EState3>
9.9

>  <VSA_EState4>
4.48

>  <VSA_EState5>
0.32

>  <VSA_EState6>
3.86

>  <VSA_EState7>
4.35

>  <VSA_EState8>
9.94

>  <VSA_EState9>
0

>  <apol>
48.73

>  <bpol>
28.93

>  <nRing>
2

>  <nHRing>
1

>  <naRing>
1

>  <naHRing>
0

>  <nARing 2>
1

>  <nAHRing 2>
1

>  <nFRing>
1

>  <nFHRing>
1

>  <nFaRing>
0

>  <nFaHRing>
0

>  <nFARing 2>
1

>  <nFAHRing 2>
1

>  <nRot>
7

>  <SLogP>
3.71

>  <SMR>
85.31

>  <TopoPSA(NO)>
35.83

>  <TopoPSA>
35.83

>  <JGI1>
0.19

>  <JGI2>
0.08

>  <JGI3>
0.04

>  <JGI4>
0.04

>  <JGI5>
0.03

>  <Diameter>
10

>  <Radius>
5

>  <TMWC10>
113.42

>  <TSRW10>
67.14

>  <MW>
274.2

>  <AMW>
5.96

>  <WPath>
862

>  <WPol>
28

>  <Zagreb1>
98

>  <Zagreb2>
113

>  <mZagreb2>
4.67

>  <yes>


>  <nAR-cont>
0.816016

>  <nHA-cont>
0.999629945

>  <MWHBN>
0.241560693

>  <MWHBN-cont>
0.97281547

>  <TPSA-cont>
0.749884351

>  <pka_cont>
0.97

>  <yes.1>


>  <BBB_SCORE>
5.259637852

>  <MMFF94 Energy>
57.379

$$$$
Compound 2028
Actelion Java MolfileCreator 2.0

  0  0  0  0  0  0              0 V3000
M  V30 BEGIN CTAB
M  V30 COUNTS 54 57 0 0 0
M  V30 BEGIN ATOM
M  V30 1 S -3.5405 3.0572 1.1255 0
M  V30 2 C -2.5003 2.4931 -0.1982 0
M  V30 3 C -2.9615 2.1004 2.5054 0
M  V30 4 C -1.402 1.627 -0.0168 0
M  V30 5 C -2.8336 2.9881 -1.4747 0
M  V30 6 C -1.8231 1.2701 2.4597 0
M  V30 7 C -3.7193 2.2324 3.687 0
M  V30 8 N -1.043 1.1347 1.2742 0
M  V30 9 C -0.6889 1.2663 -1.1859 0
M  V30 10 C -2.106 2.619 -2.6006 0
M  V30 11 C -1.5147 0.5746 3.6523 0
M  V30 12 C -3.3776 1.5391 4.8415 0
M  V30 13 C 0.2787 0.4699 1.4029 0
M  V30 14 C -1.0404 1.7383 -2.4619 0
M  V30 15 C -2.2737 0.7052 4.8225 0
M  V30 16 C 0.1757 -1.0557 1.1474 0
M  V30 17 C -0.2823 1.346 -3.6813 0
M  V30 18 N 1.4928 -1.7042 0.9679 0
M  V30 19 O -0.1917 2.1274 -4.6208 0
M  V30 20 N 0.2625 0.079 -3.6806 0
M  V30 21 C 1.3402 -3.1041 0.5344 0
M  V30 22 C 2.2474 -1.8166 2.2272 0
M  V30 23 C 1.0574 -0.42 -4.7845 0
M  V30 24 C 1.1318 -3.9176 1.803 0
M  V30 25 C 1.7352 -3.0733 2.9165 0
M  V30 26 C 2.5478 -0.4416 -4.4532 0
M  V30 27 C 3.1455 0.9502 -4.3071 0
M  V30 28 H -3.6728 3.6709 -1.5983 0
M  V30 29 H -4.5912 2.884 3.7089 0
M  V30 30 H 0.1754 0.6151 -1.1265 0
M  V30 31 H -2.376 3.0123 -3.5782 0
M  V30 32 H -0.6743 -0.1079 3.7155 0
M  V30 33 H -3.9723 1.6494 5.744 0
M  V30 34 H 0.7268 0.6748 2.3823 0
M  V30 35 H 1.0112 0.9239 0.723 0
M  V30 36 H -1.9953 0.1499 5.7147 0
M  V30 37 H -0.4056 -1.5355 1.9432 0
M  V30 38 H -0.4044 -1.2081 0.2289 0
M  V30 39 H 0.0711 -0.5545 -2.9171 0
M  V30 40 H 0.5383 -3.2531 -0.1968 0
M  V30 41 H 2.2715 -3.4189 0.0467 0
M  V30 42 H 3.3094 -1.9442 1.9814 0
M  V30 43 H 2.1841 -0.9353 2.8721 0
M  V30 44 H 0.8701 0.1695 -5.6881 0
M  V30 45 H 0.7138 -1.4422 -4.9763 0
M  V30 46 H 1.6108 -4.8993 1.7337 0
M  V30 47 H 0.0641 -4.0769 1.9932 0
M  V30 48 H 2.5414 -3.6028 3.4342 0
M  V30 49 H 0.9652 -2.8264 3.6566 0
M  V30 50 H 2.7187 -1.0051 -3.5281 0
M  V30 51 H 3.0785 -0.9679 -5.255 0
M  V30 52 H 4.225 0.8801 -4.1396 0
M  V30 53 H 2.9807 1.5453 -5.2109 0
M  V30 54 H 2.7106 1.4846 -3.4569 0
M  V30 END ATOM
M  V30 BEGIN BOND
M  V30 1 1 1 2
M  V30 2 1 1 3
M  V30 3 2 2 4
M  V30 4 1 2 5
M  V30 5 2 3 6
M  V30 6 1 3 7
M  V30 7 1 4 8
M  V30 8 1 4 9
M  V30 9 2 5 10
M  V30 10 1 6 11
M  V30 11 2 7 12
M  V30 12 1 8 13
M  V30 13 2 9 14
M  V30 14 2 11 15
M  V30 15 1 13 16
M  V30 16 1 14 17
M  V30 17 1 16 18
M  V30 18 2 17 19
M  V30 19 1 17 20
M  V30 20 1 18 21
M  V30 21 1 18 22
M  V30 22 1 20 23
M  V30 23 1 21 24
M  V30 24 1 22 25
M  V30 25 1 23 26
M  V30 26 1 26 27
M  V30 27 1 6 8
M  V30 28 1 10 14
M  V30 29 1 12 15
M  V30 30 1 24 25
M  V30 31 1 5 28
M  V30 32 1 7 29
M  V30 33 1 9 30
M  V30 34 1 10 31
M  V30 35 1 11 32
M  V30 36 1 12 33
M  V30 37 1 13 34
M  V30 38 1 13 35
M  V30 39 1 15 36
M  V30 40 1 16 37
M  V30 41 1 16 38
M  V30 42 1 20 39
M  V30 43 1 21 40
M  V30 44 1 21 41
M  V30 45 1 22 42
M  V30 46 1 22 43
M  V30 47 1 23 44
M  V30 48 1 23 45
M  V30 49 1 24 46
M  V30 50 1 24 47
M  V30 51 1 25 48
M  V30 52 1 25 49
M  V30 53 1 26 50
M  V30 54 1 26 51
M  V30 55 1 27 52
M  V30 56 1 27 53
M  V30 57 1 27 54
M  V30 END BOND
M  V30 END CTAB
M  END
>  <Column 1>
2472

>  <level_0>
3028

>  <index>
3028

>  <Unnamed: 0>
3028

>  <NO.>
3040

>  <Name>
apadoline

>  <IUPAC_name>


>  <SMILES>
CCCNC(=O)c1ccc2c(c1)N(CCN1CCCC1)c1ccccc1S2

>  <CID>


>  <logBB>


>  <BBB+/BBB->
BBB+

>  <Inchi>
InChI=1S/C22H27N3OS/c1-2-11-23-22(26)17-9-10-21-19(16-17)25(15-14-24-12-5-6-13-24)18-7-3-4-8-20(18)27-21/h3-4-7-10-16H-2-5-6-11-15H2-1H3-(H-23-26)

>  <threshold>
-1

>  <reference>
R13|R19|R24|R27|R27|R30|

>  <group>
B

>  <Class>
1

>  <ABC>
21.12

>  <ABCGG>
16.31

>  <nAcid>
0

>  <nBase>
1

>  <nAromAtom>
12

>  <nAromBond>
12

>  <nAtom>
54

>  <nHeavyAtom>
27

>  <nSpiro>
0

>  <nBridgehead>
0

>  <nHetero>
5

>  <nN>
3

>  <nO>
1

>  <nF>
0

>  <BalabanJ>
1.43

>  <BertzCT>
816.96

>  <nBonds>
57

>  <nBondsO>
30

>  <nBondsS>
44

>  <nBondsD>
1

>  <nBondsT>
0

>  <nBondsA>
12

>  <nBondsM>
13

>  <nBondsKS>
50

>  <nBondsKD>
7

>  <RNCG>
0.19

>  <RPCG>
0.14

>  <FCSP3>
0.41

>  <SZ>
34

>  <Sm>
31.77

>  <Sv>
33.49

>  <Sse>
53.38

>  <Sp>
36.97

>  <Si>
60.61

>  <MZ>
0.63

>  <Mm>
0.59

>  <Mv>
0.62

>  <Mse>
0.99

>  <Mp>
0.68

>  <Mi>
1.12

>  <NsCH3>
1

>  <NdCH2>
0

>  <NssCH2>
8

>  <NtCH>
0

>  <NdsCH>
0

>  <NaaCH>
7

>  <NsssCH>
0

>  <NddC>
0

>  <NtsC>
0

>  <NdssC>
1

>  <NaasC>
5

>  <NaaaC>
0

>  <NssssC>
0

>  <NsNH3>
0

>  <NsNH2>
0

>  <NssNH2>
0

>  <NdNH>
0

>  <NssNH>
1

>  <NaaNH>
0

>  <NtN>
0

>  <NsssNH>
0

>  <NdsN>
0

>  <NaaN>
0

>  <NsssN>
2

>  <NddsN>
0

>  <NaasN>
0

>  <NssssN>
0

>  <NsOH>
0

>  <NdO>
1

>  <NssO>
0

>  <NaaO>
0

>  <NsF>
0

>  <NsSiH3>
0

>  <NssSiH2>
0

>  <NsssSiH>
0

>  <NssssSi>
0

>  <NsPH2>
0

>  <NssPH>
0

>  <NsssP>
0

>  <NdsssP>
0

>  <NsssssP>
0

>  <NsSH>
0

>  <NdS>
0

>  <NssS>
1

>  <NaaS>
0

>  <NdssS>
0

>  <NddssS>
0

>  <NsCl>
0

>  <NsBr>
0

>  <NsI>
0

>  <fragCpx>
198.05

>  <fMF>
0.39

>  <nHBAcc>
4

>  <nHBDon>
1

>  <Kier1>
20.28

>  <Kier2>
9.67

>  <Lipinski>
1

>  <GhoseFilter>
1

>  <FilterItLogS>
-5.68

>  <VMcGowan>
299.46

>  <LabuteASA>
165.48

>  <PEOE_VSA1>
15.12

>  <PEOE_VSA2>
4.79

>  <PEOE_VSA3>
0

>  <PEOE_VSA4>
0

>  <PEOE_VSA5>
0

>  <PEOE_VSA6>
30.82

>  <PEOE_VSA7>
62.68

>  <PEOE_VSA8>
34.99

>  <PEOE_VSA9>
11.37

>  <PEOE_VSA10>
0

>  <PEOE_VSA11>
0

>  <PEOE_VSA12>
0

>  <PEOE_VSA13>
5.91

>  <SMR_VSA1>
4.79

>  <SMR_VSA2>
0

>  <SMR_VSA3>
10.22

>  <SMR_VSA4>
0

>  <SMR_VSA5>
35.98

>  <SMR_VSA6>
37.62

>  <SMR_VSA7>
48.03

>  <SMR_VSA8>
0

>  <SMR_VSA9>
0

>  <SlogP_VSA1>
10.22

>  <SlogP_VSA2>
43.53

>  <SlogP_VSA3>
0

>  <SlogP_VSA4>
0

>  <SlogP_VSA5>
36.54

>  <SlogP_VSA6>
52.26

>  <SlogP_VSA7>
0

>  <SlogP_VSA8>
0

>  <SlogP_VSA9>
0

>  <SlogP_VSA10>
11.37

>  <SlogP_VSA11>
0

>  <EState_VSA1>
0

>  <EState_VSA2>
5.91

>  <EState_VSA3>
6.54

>  <EState_VSA4>
30.76

>  <EState_VSA5>
41.41

>  <EState_VSA6>
11.76

>  <EState_VSA7>
6.07

>  <EState_VSA8>
58.44

>  <EState_VSA9>
0

>  <EState_VSA10>
4.79

>  <VSA_EState1>
0

>  <VSA_EState2>
19.92

>  <VSA_EState3>
2.99

>  <VSA_EState4>
3.15

>  <VSA_EState5>
0.02

>  <VSA_EState6>
14.69

>  <VSA_EState7>
3.57

>  <VSA_EState8>
7.2

>  <VSA_EState9>
0

>  <apol>
61.75

>  <bpol>
34.4

>  <nRing>
4

>  <nHRing>
2

>  <naRing>
2

>  <naHRing>
0

>  <nARing 2>
2

>  <nAHRing 2>
2

>  <nFRing>
1

>  <nFHRing>
1

>  <nFaRing>
0

>  <nFaHRing>
0

>  <nFARing 2>
1

>  <nFAHRing 2>
1

>  <nRot>
6

>  <SLogP>
4.52

>  <SMR>
112.31

>  <TopoPSA(NO)>
35.58

>  <TopoPSA>
60.88

>  <JGI1>
0.13

>  <JGI2>
0.07

>  <JGI3>
0.04

>  <JGI4>
0.04

>  <JGI5>
0.02

>  <Diameter>
13

>  <Radius>
7

>  <TMWC10>
133.4

>  <TSRW10>
75.33

>  <MW>
381.19

>  <AMW>
7.06

>  <WPath>
1845

>  <WPol>
42

>  <Zagreb1>
142

>  <Zagreb2>
168

>  <mZagreb2>
6.06

>  <yes>


>  <nAR-cont>
1

>  <nHA-cont>
0.860070871

>  <MWHBN>
0.256093912

>  <MWHBN-cont>
0.948951509

>  <TPSA-cont>
0.575019796

>  <pka_cont>
0.97

>  <yes.1>


>  <BBB_SCORE>
4.918537726

>  <MMFF94 Energy>
80.034

$$$$
Compound 2029
Actelion Java MolfileCreator 2.0

  0  0  0  0  0  0              0 V3000
M  V30 BEGIN CTAB
M  V30 COUNTS 51 51 0 0 0
M  V30 BEGIN ATOM
M  V30 1 O 3.8352 0.1563 -1.251 0
M  V30 2 C 3.7352 -0.8794 -1.8929 0
M  V30 3 O 4.7558 -1.4569 -2.5953 0
M  V30 4 C 2.4976 -1.742 -2.0216 0
M  V30 5 C 5.993 -0.7344 -2.5385 0
M  V30 6 C 1.2441 -1.1172 -1.4536 0
M  V30 7 C 7.0455 -1.4842 -3.3488 0
M  V30 8 C 0.3241 -0.472 -2.2946 0
M  V30 9 C 0.9912 -1.1605 -0.0787 0
M  V30 10 C 7.356 -2.8557 -2.7661 0
M  V30 11 C -0.8379 0.1121 -1.7734 0
M  V30 12 C -0.1653 -0.5812 0.45 0
M  V30 13 O -1.7903 0.7486 -2.5299 0
M  V30 14 C -1.0866 0.0554 -0.3878 0
M  V30 15 C -1.5077 0.9677 -3.9034 0
M  V30 16 O -2.2502 0.6461 0.0412 0
M  V30 17 C -2.4812 0.7129 1.4401 0
M  V30 18 C -3.7808 1.4619 1.7786 0
M  V30 19 O -4.4439 2.0387 0.9141 0
M  V30 20 N -4.1785 1.4666 3.1217 0
M  V30 21 C -5.4206 2.1597 3.4675 0
M  V30 22 C -3.4339 0.8425 4.2167 0
M  V30 23 C -5.174 3.6223 3.8043 0
M  V30 24 C -3.947 -0.5555 4.5263 0
M  V30 25 H 2.6868 -2.6944 -1.5119 0
M  V30 26 H 2.3401 -1.9642 -3.0841 0
M  V30 27 H 6.3182 -0.6357 -1.496 0
M  V30 28 H 5.848 0.2629 -2.9697 0
M  V30 29 H 6.6911 -1.6164 -4.3777 0
M  V30 30 H 7.9658 -0.891 -3.3856 0
M  V30 31 H 0.5308 -0.4397 -3.3594 0
M  V30 32 H 1.6975 -1.641 0.5955 0
M  V30 33 H 8.1329 -3.3497 -3.358 0
M  V30 34 H 7.7168 -2.7706 -1.736 0
M  V30 35 H 6.4708 -3.4996 -2.7684 0
M  V30 36 H -0.3136 -0.6453 1.5221 0
M  V30 37 H -0.5897 1.5506 -4.033 0
M  V30 38 H -2.3325 1.5494 -4.3264 0
M  V30 39 H -1.456 0.0204 -4.4495 0
M  V30 40 H -1.6612 1.2593 1.9207 0
M  V30 41 H -2.5673 -0.3026 1.8407 0
M  V30 42 H -5.89 1.6493 4.3154 0
M  V30 43 H -6.1224 2.0979 2.6283 0
M  V30 44 H -3.5182 1.4802 5.1038 0
M  V30 45 H -2.371 0.7887 3.9682 0
M  V30 46 H -4.7231 4.1513 2.9583 0
M  V30 47 H -4.4972 3.7226 4.6589 0
M  V30 48 H -6.1166 4.1187 4.0551 0
M  V30 49 H -3.8754 -1.208 3.6506 0
M  V30 50 H -4.9962 -0.533 4.8376 0
M  V30 51 H -3.3625 -1.0031 5.336 0
M  V30 END ATOM
M  V30 BEGIN BOND
M  V30 1 2 1 2
M  V30 2 1 2 3
M  V30 3 1 2 4
M  V30 4 1 3 5
M  V30 5 1 4 6
M  V30 6 1 5 7
M  V30 7 2 6 8
M  V30 8 1 6 9
M  V30 9 1 7 10
M  V30 10 1 8 11
M  V30 11 2 9 12
M  V30 12 1 11 13
M  V30 13 2 11 14
M  V30 14 1 13 15
M  V30 15 1 14 16
M  V30 16 1 16 17
M  V30 17 1 17 18
M  V30 18 2 18 19
M  V30 19 1 18 20
M  V30 20 1 20 21
M  V30 21 1 20 22
M  V30 22 1 21 23
M  V30 23 1 22 24
M  V30 24 1 12 14
M  V30 25 1 4 25
M  V30 26 1 4 26
M  V30 27 1 5 27
M  V30 28 1 5 28
M  V30 29 1 7 29
M  V30 30 1 7 30
M  V30 31 1 8 31
M  V30 32 1 9 32
M  V30 33 1 10 33
M  V30 34 1 10 34
M  V30 35 1 10 35
M  V30 36 1 12 36
M  V30 37 1 15 37
M  V30 38 1 15 38
M  V30 39 1 15 39
M  V30 40 1 17 40
M  V30 41 1 17 41
M  V30 42 1 21 42
M  V30 43 1 21 43
M  V30 44 1 22 44
M  V30 45 1 22 45
M  V30 46 1 23 46
M  V30 47 1 23 47
M  V30 48 1 23 48
M  V30 49 1 24 49
M  V30 50 1 24 50
M  V30 51 1 24 51
M  V30 END BOND
M  V30 END CTAB
M  END
>  <Column 1>
2473

>  <level_0>
3029

>  <index>
3029

>  <Unnamed: 0>
3029

>  <NO.>
3041

>  <Name>
propanidid

>  <IUPAC_name>
propyl 2-[4-[2-(diethylamino)-2-oxoethoxy]-3-methoxyphenyl]acetate

>  <SMILES>
CCCOC(=O)Cc1ccc(OCC(=O)N(CC)CC)c(OC)c1

>  <CID>
15004

>  <logBB>


>  <BBB+/BBB->
BBB+

>  <Inchi>
InChI=1S/C18H27NO5/c1-5-10-23-18(21)12-14-8-9-15(16(11-14)22-4)24-13-17(20)19(6-2)7-3/h8-9-11H-5-7-10-12-13H2-1-4H3

>  <threshold>
-1

>  <reference>
R13|R19|R6|R24|R27|R27|R30|

>  <group>
B

>  <Class>
1

>  <ABC>
17.11

>  <ABCGG>
14.79

>  <nAcid>
0

>  <nBase>
0

>  <nAromAtom>
6

>  <nAromBond>
6

>  <nAtom>
51

>  <nHeavyAtom>
24

>  <nSpiro>
0

>  <nBridgehead>
0

>  <nHetero>
6

>  <nN>
1

>  <nO>
5

>  <nF>
0

>  <BalabanJ>
2.39

>  <BertzCT>
540.21

>  <nBonds>
51

>  <nBondsO>
24

>  <nBondsS>
43

>  <nBondsD>
2

>  <nBondsT>
0

>  <nBondsA>
6

>  <nBondsM>
8

>  <nBondsKS>
46

>  <nBondsKD>
5

>  <RNCG>
0.19

>  <RPCG>
0.12

>  <FCSP3>
0.56

>  <SZ>
30.33

>  <Sm>
28.09

>  <Sv>
29.65

>  <Sse>
51.3

>  <Sp>
31.84

>  <Si>
57.94

>  <MZ>
0.59

>  <Mm>
0.55

>  <Mv>
0.58

>  <Mse>
1.01

>  <Mp>
0.62

>  <Mi>
1.14

>  <NsCH3>
4

>  <NdCH2>
0

>  <NssCH2>
6

>  <NtCH>
0

>  <NdsCH>
0

>  <NaaCH>
3

>  <NsssCH>
0

>  <NddC>
0

>  <NtsC>
0

>  <NdssC>
2

>  <NaasC>
3

>  <NaaaC>
0

>  <NssssC>
0

>  <NsNH3>
0

>  <NsNH2>
0

>  <NssNH2>
0

>  <NdNH>
0

>  <NssNH>
0

>  <NaaNH>
0

>  <NtN>
0

>  <NsssNH>
0

>  <NdsN>
0

>  <NaaN>
0

>  <NsssN>
1

>  <NddsN>
0

>  <NaasN>
0

>  <NssssN>
0

>  <NsOH>
0

>  <NdO>
2

>  <NssO>
3

>  <NaaO>
0

>  <NsF>
0

>  <NsSiH3>
0

>  <NssSiH2>
0

>  <NsssSiH>
0

>  <NssssSi>
0

>  <NsPH2>
0

>  <NssPH>
0

>  <NsssP>
0

>  <NdsssP>
0

>  <NsssssP>
0

>  <NsSH>
0

>  <NdS>
0

>  <NssS>
0

>  <NaaS>
0

>  <NdssS>
0

>  <NddssS>
0

>  <NsCl>
0

>  <NsBr>
0

>  <NsI>
0

>  <fragCpx>
24.06

>  <fMF>
0.12

>  <nHBAcc>
5

>  <nHBDon>
0

>  <Kier1>
22.04

>  <Kier2>
12.37

>  <Lipinski>
1

>  <GhoseFilter>
1

>  <FilterItLogS>
-4.35

>  <VMcGowan>
271.45

>  <LabuteASA>
143.23

>  <PEOE_VSA1>
19.11

>  <PEOE_VSA2>
9.59

>  <PEOE_VSA3>
0

>  <PEOE_VSA4>
0

>  <PEOE_VSA5>
0

>  <PEOE_VSA6>
12.99

>  <PEOE_VSA7>
37.96

>  <PEOE_VSA8>
13.09

>  <PEOE_VSA9>
20.14

>  <PEOE_VSA10>
0

>  <PEOE_VSA11>
18.11

>  <PEOE_VSA12>
0

>  <PEOE_VSA13>
5.91

>  <SMR_VSA1>
23.8

>  <SMR_VSA2>
0

>  <SMR_VSA3>
4.9

>  <SMR_VSA4>
0

>  <SMR_VSA5>
33.61

>  <SMR_VSA6>
33.41

>  <SMR_VSA7>
23.76

>  <SMR_VSA8>
0

>  <SMR_VSA9>
11.5

>  <SlogP_VSA1>
9.47

>  <SlogP_VSA2>
50.19

>  <SlogP_VSA3>
20.75

>  <SlogP_VSA4>
0

>  <SlogP_VSA5>
32.76

>  <SlogP_VSA6>
18.2

>  <SlogP_VSA7>
0

>  <SlogP_VSA8>
0

>  <SlogP_VSA9>
0

>  <SlogP_VSA10>
0

>  <SlogP_VSA11>
11.5

>  <EState_VSA1>
0

>  <EState_VSA2>
24.9

>  <EState_VSA3>
31.2

>  <EState_VSA4>
11.98

>  <EState_VSA5>
7.11

>  <EState_VSA6>
23.1

>  <EState_VSA7>
20.77

>  <EState_VSA8>
0

>  <EState_VSA9>
14.21

>  <EState_VSA10>
9.59

>  <VSA_EState1>
15.93

>  <VSA_EState2>
25.36

>  <VSA_EState3>
0

>  <VSA_EState4>
0.77

>  <VSA_EState5>
0.62

>  <VSA_EState6>
5.2

>  <VSA_EState7>
0.97

>  <VSA_EState8>
7.47

>  <VSA_EState9>
1.52

>  <apol>
53.17

>  <bpol>
35.74

>  <nRing>
1

>  <nHRing>
0

>  <naRing>
1

>  <naHRing>
0

>  <nARing 2>
0

>  <nAHRing 2>
0

>  <nFRing>
0

>  <nFHRing>
0

>  <nFaRing>
0

>  <nFaHRing>
0

>  <nFARing 2>
0

>  <nFAHRing 2>
0

>  <nRot>
10

>  <SLogP>
2.44

>  <SMR>
91.37

>  <TopoPSA(NO)>
65.07

>  <TopoPSA>
65.07

>  <JGI1>
0.21

>  <JGI2>
0.09

>  <JGI3>
0.05

>  <JGI4>
0.03

>  <JGI5>
0.03

>  <Diameter>
15

>  <Radius>
8

>  <TMWC10>
119.68

>  <TSRW10>
57.34

>  <MW>
337.19

>  <AMW>
6.61

>  <WPath>
1585

>  <WPol>
33

>  <Zagreb1>
108

>  <Zagreb2>
120

>  <mZagreb2>
5.89

>  <yes>


>  <nAR-cont>
0.336376

>  <nHA-cont>
0.94700071

>  <MWHBN>
0.272290608

>  <MWHBN-cont>
0.914839699

>  <TPSA-cont>
0.545770994

>  <pka_cont>
0.97

>  <yes.1>


>  <BBB_SCORE>
4.232178246

>  <MMFF94 Energy>
65.558

$$$$
Compound 2030
Actelion Java MolfileCreator 2.0

  0  0  0  0  0  0              0 V3000
M  V30 BEGIN CTAB
M  V30 COUNTS 26 26 0 0 0
M  V30 BEGIN ATOM
M  V30 1 O 1.0108 -3.1908 -0.0777 0
M  V30 2 C 1.2891 -2.2082 -0.7517 0
M  V30 3 N 2.4532 -2.1264 -1.4588 0
M  V30 4 C 0.3463 -1.0458 -0.8875 0
M  V30 5 O 0.7704 -0.0618 -1.8694 0
M  V30 6 C 0.8911 0.3411 -0.506 0 CFG=1
M  V30 7 C -1.1381 -1.3226 -0.9731 0
M  V30 8 C 0.0485 1.5247 -0.1476 0
M  V30 9 C -1.7693 -1.5791 0.3854 0
M  V30 10 C 0.0975 1.804 1.3548 0
M  V30 11 C -0.7893 2.9784 1.7348 0
M  V30 12 H 3.1033 -2.898 -1.4205 0
M  V30 13 H 2.6347 -1.3361 -2.0639 0
M  V30 14 H 1.8937 0.4113 -0.0996 0
M  V30 15 H -1.297 -2.1996 -1.6125 0
M  V30 16 H -1.6651 -0.496 -1.4635 0
M  V30 17 H -0.99 1.3926 -0.467 0
M  V30 18 H 0.4319 2.3994 -0.6873 0
M  V30 19 H -1.6759 -0.7076 1.0384 0
M  V30 20 H -1.303 -2.4284 0.8931 0
M  V30 21 H -2.8353 -1.7997 0.2699 0
M  V30 22 H -0.2158 0.9163 1.9153 0
M  V30 23 H 1.1293 2.0177 1.6591 0
M  V30 24 H -0.7319 3.164 2.812 0
M  V30 25 H -0.4768 3.8902 1.2158 0
M  V30 26 H -1.8351 2.7785 1.4801 0
M  V30 END ATOM
M  V30 BEGIN BOND
M  V30 1 2 1 2
M  V30 2 1 2 3
M  V30 3 1 2 4
M  V30 4 1 4 5
M  V30 5 1 4 6
M  V30 6 1 4 7
M  V30 7 1 6 8
M  V30 8 1 7 9
M  V30 9 1 8 10
M  V30 10 1 10 11
M  V30 11 1 5 6
M  V30 12 1 3 12
M  V30 13 1 3 13
M  V30 14 1 6 14
M  V30 15 1 7 15
M  V30 16 1 7 16
M  V30 17 1 8 17
M  V30 18 1 8 18
M  V30 19 1 9 19
M  V30 20 1 9 20
M  V30 21 1 9 21
M  V30 22 1 10 22
M  V30 23 1 10 23
M  V30 24 1 11 24
M  V30 25 1 11 25
M  V30 26 1 11 26
M  V30 END BOND
M  V30 BEGIN COLLECTION
M  V30 MDLV30/STEABS ATOMS=(1 6)
M  V30 END COLLECTION
M  V30 END CTAB
M  END
>  <Column 1>
2474

>  <level_0>
3035

>  <index>
3035

>  <Unnamed: 0>
3035

>  <NO.>
3047

>  <Name>


>  <IUPAC_name>


>  <SMILES>
CCC[C@@H]1OC1(CC)C(N)=O

>  <CID>


>  <logBB>


>  <BBB+/BBB->
BBB+

>  <Inchi>
InChI=1S/C8H15NO2/c1-3-5-6-8(4-2-11-6)7(9)10/h6H-3-5H2-1-2H3-(H2-9-10)/t6--8?/m0/s1

>  <threshold>
-1

>  <reference>
R13|

>  <group>
B

>  <Class>
1

>  <ABC>
7.87

>  <ABCGG>
8.79

>  <nAcid>
0

>  <nBase>
0

>  <nAromAtom>
0

>  <nAromBond>
0

>  <nAtom>
26

>  <nHeavyAtom>
11

>  <nSpiro>
0

>  <nBridgehead>
0

>  <nHetero>
3

>  <nN>
1

>  <nO>
2

>  <nF>
0

>  <BalabanJ>
2.43

>  <BertzCT>
169.47

>  <nBonds>
26

>  <nBondsO>
11

>  <nBondsS>
25

>  <nBondsD>
1

>  <nBondsT>
0

>  <nBondsA>
0

>  <nBondsM>
1

>  <nBondsKS>
25

>  <nBondsKD>
1

>  <RNCG>
0.3

>  <RPCG>
0.21

>  <FCSP3>
0.88

>  <SZ>
14.33

>  <Sm>
13.09

>  <Sv>
14.25

>  <Sse>
25.98

>  <Sp>
15.61

>  <Si>
29.82

>  <MZ>
0.55

>  <Mm>
0.5

>  <Mv>
0.55

>  <Mse>
1

>  <Mp>
0.6

>  <Mi>
1.15

>  <NsCH3>
2

>  <NdCH2>
0

>  <NssCH2>
3

>  <NtCH>
0

>  <NdsCH>
0

>  <NaaCH>
0

>  <NsssCH>
1

>  <NddC>
0

>  <NtsC>
0

>  <NdssC>
1

>  <NaasC>
0

>  <NaaaC>
0

>  <NssssC>
1

>  <NsNH3>
0

>  <NsNH2>
1

>  <NssNH2>
0

>  <NdNH>
0

>  <NssNH>
0

>  <NaaNH>
0

>  <NtN>
0

>  <NsssNH>
0

>  <NdsN>
0

>  <NaaN>
0

>  <NsssN>
0

>  <NddsN>
0

>  <NaasN>
0

>  <NssssN>
0

>  <NsOH>
0

>  <NdO>
1

>  <NssO>
1

>  <NaaO>
0

>  <NsF>
0

>  <NsSiH3>
0

>  <NssSiH2>
0

>  <NsssSiH>
0

>  <NssssSi>
0

>  <NsPH2>
0

>  <NssPH>
0

>  <NsssP>
0

>  <NdsssP>
0

>  <NsssssP>
0

>  <NsSH>
0

>  <NdS>
0

>  <NssS>
0

>  <NaaS>
0

>  <NdssS>
0

>  <NddssS>
0

>  <NsCl>
0

>  <NsBr>
0

>  <NsI>
0

>  <fragCpx>
11.03

>  <fMF>
0.12

>  <nHBAcc>
2

>  <nHBDon>
1

>  <Kier1>
9.09

>  <Kier2>
3.16

>  <Lipinski>
1

>  <GhoseFilter>
0

>  <FilterItLogS>
-1.49

>  <VMcGowan>
130.14

>  <LabuteASA>
66.9

>  <PEOE_VSA1>
10.47

>  <PEOE_VSA2>
4.79

>  <PEOE_VSA3>
0

>  <PEOE_VSA4>
0

>  <PEOE_VSA5>
0

>  <PEOE_VSA6>
20.27

>  <PEOE_VSA7>
12.84

>  <PEOE_VSA8>
0

>  <PEOE_VSA9>
6.1

>  <PEOE_VSA10>
0

>  <PEOE_VSA11>
5.6

>  <PEOE_VSA12>
0

>  <PEOE_VSA13>
5.91

>  <SMR_VSA1>
9.53

>  <SMR_VSA2>
0

>  <SMR_VSA3>
0

>  <SMR_VSA4>
5.73

>  <SMR_VSA5>
44.81

>  <SMR_VSA6>
0

>  <SMR_VSA7>
0

>  <SMR_VSA8>
0

>  <SMR_VSA9>
0

>  <SlogP_VSA1>
5.73

>  <SlogP_VSA2>
17.61

>  <SlogP_VSA3>
9.53

>  <SlogP_VSA4>
0

>  <SlogP_VSA5>
33.11

>  <SlogP_VSA6>
0

>  <SlogP_VSA7>
0

>  <SlogP_VSA8>
0

>  <SlogP_VSA9>
0

>  <SlogP_VSA10>
0

>  <SlogP_VSA11>
0

>  <EState_VSA1>
5.6

>  <EState_VSA2>
12.01

>  <EState_VSA3>
6.42

>  <EState_VSA4>
12.84

>  <EState_VSA5>
0

>  <EState_VSA6>
0

>  <EState_VSA7>
6.92

>  <EState_VSA8>
6.92

>  <EState_VSA9>
10.47

>  <EState_VSA10>
4.79

>  <VSA_EState1>
5.28

>  <VSA_EState2>
10.9

>  <VSA_EState3>
0

>  <VSA_EState4>
4.6

>  <VSA_EState5>
-0.31

>  <VSA_EState6>
0

>  <VSA_EState7>
2.78

>  <VSA_EState8>
4

>  <VSA_EState9>
0

>  <apol>
26.07

>  <bpol>
17.08

>  <nRing>
1

>  <nHRing>
1

>  <naRing>
0

>  <naHRing>
0

>  <nARing 2>
1

>  <nAHRing 2>
1

>  <nFRing>
0

>  <nFHRing>
0

>  <nFaRing>
0

>  <nFaHRing>
0

>  <nFARing 2>
0

>  <nFAHRing 2>
0

>  <nRot>
4

>  <SLogP>
0.82

>  <SMR>
42

>  <TopoPSA(NO)>
55.62

>  <TopoPSA>
55.62

>  <JGI1>
0.32

>  <JGI2>
0.18

>  <JGI3>
0.11

>  <JGI4>
0.04

>  <JGI5>
0.03

>  <Diameter>
6

>  <Radius>
3

>  <TMWC10>
91.23

>  <TSRW10>
62.5

>  <MW>
157.11

>  <AMW>
6.04

>  <WPath>
158

>  <WPol>
14

>  <Zagreb1>
54

>  <Zagreb2>
66

>  <mZagreb2>
2.67

>  <yes>


>  <nAR-cont>
0.816016

>  <nHA-cont>
0.720786536

>  <MWHBN>
0.239342234

>  <MWHBN-cont>
0.975851725

>  <TPSA-cont>
0.611737862

>  <pka_cont>
0.97

>  <yes.1>


>  <BBB_SCORE>
4.709055848

>  <MMFF94 Energy>
-12.139

$$$$
Compound 2031
Actelion Java MolfileCreator 2.0

  0  0  0  0  0  0              0 V3000
M  V30 BEGIN CTAB
M  V30 COUNTS 65 69 0 0 0
M  V30 BEGIN ATOM
M  V30 1 O 3.7159 3.635 5.0108 0
M  V30 2 C 3.1498 3.2198 4.0078 0
M  V30 3 C 3.4547 1.8874 3.4496 0
M  V30 4 C 2.1287 4.0245 3.3129 0
M  V30 5 C 2.8351 1.4197 2.3516 0
M  V30 6 C 1.5134 3.5592 2.2179 0
M  V30 7 C 1.7735 2.2028 1.5681 0
M  V30 8 C 3.1213 0.0327 1.8466 0
M  V30 9 C 0.4515 1.3344 1.5659 0 CFG=1
M  V30 10 C 2.3375 2.5025 0.1607 0
M  V30 11 C 1.8408 -0.79 1.8613 0
M  V30 12 C -0.7333 1.9659 0.8052 0
M  V30 13 C 0.685 -0.1237 1.0758 0 CFG=1
M  V30 14 O -0.438 2.1973 -0.5608 0
M  V30 15 C -2.0175 1.1497 0.9638 0
M  V30 16 C -0.5936 -1.0005 1.2105 0 CFG=1
M  V30 17 C -1.9306 -0.3741 0.7172 0
M  V30 18 C -0.4644 -2.3197 0.4049 0
M  V30 19 C -1.9886 -0.8196 -0.7714 0
M  V30 20 C -3.0983 -1.0219 1.5149 0
M  V30 21 C -1.457 -2.2398 -0.7631 0 CFG=1
M  V30 22 O -1.002 -0.1387 -1.5607 0
M  V30 23 C -3.3657 -0.6219 -1.4404 0
M  V30 24 O -0.7953 -2.4102 -2.0125 0
M  V30 25 C -0.5727 -1.0996 -2.5358 0 CFG=2
M  V30 26 O -3.7335 0.4846 -1.8532 0
M  V30 27 C -4.2835 -1.825 -1.6235 0
M  V30 28 C 0.9008 -0.8691 -2.8581 0
M  V30 29 O -5.5838 -1.4285 -2.0355 0
M  V30 30 C 1.3973 -1.5973 -4.1096 0
M  V30 31 C 1.4022 -3.1128 -3.9933 0
M  V30 32 H 4.1941 1.3148 3.9977 0
M  V30 33 H 1.9217 5.0041 3.7259 0
M  V30 34 H 0.7965 4.2154 1.7276 0
M  V30 35 H 3.536 0.0754 0.8335 0
M  V30 36 H 3.8749 -0.4701 2.4649 0
M  V30 37 H 0.13 1.2574 2.6181 0
M  V30 38 H 3.3619 2.8934 0.2202 0
M  V30 39 H 1.7523 3.2633 -0.3676 0
M  V30 40 H 2.3702 1.6139 -0.477 0
M  V30 41 H 2.0656 -1.7805 1.4516 0
M  V30 42 H 1.5311 -0.9494 2.9032 0
M  V30 43 H -0.9463 2.9529 1.2284 0
M  V30 44 H 0.9832 -0.0897 0.0238 0
M  V30 45 H -0.6439 1.389 -1.0714 0
M  V30 46 H -2.3505 1.3104 1.9991 0
M  V30 47 H -2.8003 1.5798 0.3281 0
M  V30 48 H -0.6924 -1.2511 2.2761 0
M  V30 49 H 0.5521 -2.5199 0.0547 0
M  V30 50 H -0.7467 -3.1577 1.0543 0
M  V30 51 H -2.9949 -0.8239 2.5886 0
M  V30 52 H -4.0665 -0.6142 1.2042 0
M  V30 53 H -3.1359 -2.1093 1.3967 0
M  V30 54 H -2.2064 -3.0275 -0.6547 0
M  V30 55 H -1.1887 -0.974 -3.4338 0
M  V30 56 H -3.8648 -2.4794 -2.3922 0
M  V30 57 H -4.3911 -2.3683 -0.6834 0
M  V30 58 H 1.0699 0.2065 -2.9936 0
M  V30 59 H 1.5186 -1.1707 -2.0037 0
M  V30 60 H -5.4845 -0.5515 -2.4609 0
M  V30 61 H 0.7954 -1.3004 -4.9763 0
M  V30 62 H 2.423 -1.2655 -4.3116 0
M  V30 63 H 1.9113 -3.5525 -4.8571 0
M  V30 64 H 1.9263 -3.4387 -3.0895 0
M  V30 65 H 0.3862 -3.5167 -3.9746 0
M  V30 END ATOM
M  V30 BEGIN BOND
M  V30 1 2 1 2
M  V30 2 1 2 3
M  V30 3 1 2 4
M  V30 4 2 3 5
M  V30 5 2 4 6
M  V30 6 1 5 7
M  V30 7 1 5 8
M  V30 8 1 7 9
M  V30 9 1 7 10
M  V30 10 1 8 11
M  V30 11 1 9 12
M  V30 12 1 9 13
M  V30 13 1 12 14
M  V30 14 1 12 15
M  V30 15 1 13 16
M  V30 16 1 15 17
M  V30 17 1 16 18
M  V30 18 1 17 19
M  V30 19 1 17 20
M  V30 20 1 18 21
M  V30 21 1 19 22
M  V30 22 1 19 23
M  V30 23 1 21 24
M  V30 24 1 22 25
M  V30 25 2 23 26
M  V30 26 1 23 27
M  V30 27 1 25 28
M  V30 28 1 27 29
M  V30 29 1 28 30
M  V30 30 1 30 31
M  V30 31 1 6 7
M  V30 32 1 11 13
M  V30 33 1 16 17
M  V30 34 1 19 21
M  V30 35 1 24 25
M  V30 36 1 3 32
M  V30 37 1 4 33
M  V30 38 1 6 34
M  V30 39 1 8 35
M  V30 40 1 8 36
M  V30 41 1 9 37
M  V30 42 1 10 38
M  V30 43 1 10 39
M  V30 44 1 10 40
M  V30 45 1 11 41
M  V30 46 1 11 42
M  V30 47 1 12 43
M  V30 48 1 13 44
M  V30 49 1 14 45
M  V30 50 1 15 46
M  V30 51 1 15 47
M  V30 52 1 16 48
M  V30 53 1 18 49
M  V30 54 1 18 50
M  V30 55 1 20 51
M  V30 56 1 20 52
M  V30 57 1 20 53
M  V30 58 1 21 54
M  V30 59 1 25 55
M  V30 60 1 27 56
M  V30 61 1 27 57
M  V30 62 1 28 58
M  V30 63 1 28 59
M  V30 64 1 29 60
M  V30 65 1 30 61
M  V30 66 1 30 62
M  V30 67 1 31 63
M  V30 68 1 31 64
M  V30 69 1 31 65
M  V30 END BOND
M  V30 BEGIN COLLECTION
M  V30 MDLV30/STEABS ATOMS=(5 9 13 16 21 25)
M  V30 END COLLECTION
M  V30 END CTAB
M  END
>  <Column 1>
2475

>  <level_0>
3045

>  <index>
3045

>  <Unnamed: 0>
3045

>  <NO.>
3057

>  <Name>


>  <IUPAC_name>


>  <SMILES>
CCC[C@H]1O[C@H]2C[C@H]3[C@@H]4CCC5=CC(=O)C=CC5(C)[C@H]4C(O)CC3(C)C2(C(=O)CO)O1

>  <CID>


>  <logBB>


>  <BBB+/BBB->
BBB+

>  <Inchi>
InChI=1S/C25H34O6/c1-4-5-21-30-20-11-17-16-7-6-14-10-15(27)8-9-23(14-2)22(16)18(28)12-24(17-3)25(20-31-21)19(29)13-26/h8-10-16-18-20-22-26-28H-4-7-11-13H2-1-3H3/t16--17--18?-20--21--22+-23?-24?-25?/m0/s1

>  <threshold>
-1

>  <reference>
R13|

>  <group>
B

>  <Class>
1

>  <ABC>
24.87

>  <ABCGG>
19.72

>  <nAcid>
0

>  <nBase>
0

>  <nAromAtom>
0

>  <nAromBond>
0

>  <nAtom>
65

>  <nHeavyAtom>
31

>  <nSpiro>
0

>  <nBridgehead>
0

>  <nHetero>
6

>  <nN>
0

>  <nO>
6

>  <nF>
0

>  <BalabanJ>
1.51

>  <BertzCT>
862.07

>  <nBonds>
69

>  <nBondsO>
35

>  <nBondsS>
65

>  <nBondsD>
4

>  <nBondsT>
0

>  <nBondsA>
0

>  <nBondsM>
4

>  <nBondsKS>
65

>  <nBondsKD>
4

>  <RNCG>
0.15

>  <RPCG>
0.08

>  <FCSP3>
0.76

>  <SZ>
38.67

>  <Sm>
35.85

>  <Sv>
38.5

>  <Sse>
65.08

>  <Sp>
41.46

>  <Si>
73.32

>  <MZ>
0.59

>  <Mm>
0.55

>  <Mv>
0.59

>  <Mse>
1

>  <Mp>
0.64

>  <Mi>
1.13

>  <NsCH3>
3

>  <NdCH2>
0

>  <NssCH2>
7

>  <NtCH>
0

>  <NdsCH>
3

>  <NaaCH>
0

>  <NsssCH>
6

>  <NddC>
0

>  <NtsC>
0

>  <NdssC>
3

>  <NaasC>
0

>  <NaaaC>
0

>  <NssssC>
3

>  <NsNH3>
0

>  <NsNH2>
0

>  <NssNH2>
0

>  <NdNH>
0

>  <NssNH>
0

>  <NaaNH>
0

>  <NtN>
0

>  <NsssNH>
0

>  <NdsN>
0

>  <NaaN>
0

>  <NsssN>
0

>  <NddsN>
0

>  <NaasN>
0

>  <NssssN>
0

>  <NsOH>
2

>  <NdO>
2

>  <NssO>
2

>  <NaaO>
0

>  <NsF>
0

>  <NsSiH3>
0

>  <NssSiH2>
0

>  <NsssSiH>
0

>  <NssssSi>
0

>  <NsPH2>
0

>  <NssPH>
0

>  <NsssP>
0

>  <NdsssP>
0

>  <NsssssP>
0

>  <NsSH>
0

>  <NdS>
0

>  <NssS>
0

>  <NaaS>
0

>  <NdssS>
0

>  <NddssS>
0

>  <NsCl>
0

>  <NsBr>
0

>  <NsI>
0

>  <fragCpx>
295.06

>  <fMF>
0.31

>  <nHBAcc>
6

>  <nHBDon>
2

>  <Kier1>
22.78

>  <Kier2>
7.77

>  <Lipinski>
1

>  <GhoseFilter>
1

>  <FilterItLogS>
-3.17

>  <VMcGowan>
326.83

>  <LabuteASA>
183.23

>  <PEOE_VSA1>
19.69

>  <PEOE_VSA2>
9.59

>  <PEOE_VSA3>
0

>  <PEOE_VSA4>
0

>  <PEOE_VSA5>
0

>  <PEOE_VSA6>
38.84

>  <PEOE_VSA7>
56.09

>  <PEOE_VSA8>
16.75

>  <PEOE_VSA9>
12.21

>  <PEOE_VSA10>
6.61

>  <PEOE_VSA11>
23.46

>  <PEOE_VSA12>
0

>  <PEOE_VSA13>
0

>  <SMR_VSA1>
29.28

>  <SMR_VSA2>
0

>  <SMR_VSA3>
0

>  <SMR_VSA4>
28.58

>  <SMR_VSA5>
83.4

>  <SMR_VSA6>
6.61

>  <SMR_VSA7>
23.8

>  <SMR_VSA8>
0

>  <SMR_VSA9>
0

>  <SlogP_VSA1>
0

>  <SlogP_VSA2>
52.49

>  <SlogP_VSA3>
19.06

>  <SlogP_VSA4>
28.58

>  <SlogP_VSA5>
59.3

>  <SlogP_VSA6>
23.8

>  <SlogP_VSA7>
0

>  <SlogP_VSA8>
0

>  <SlogP_VSA9>
0

>  <SlogP_VSA10>
0

>  <SlogP_VSA11>
0

>  <EState_VSA1>
36.12

>  <EState_VSA2>
34.74

>  <EState_VSA3>
19.26

>  <EState_VSA4>
24.84

>  <EState_VSA5>
0

>  <EState_VSA6>
12.15

>  <EState_VSA7>
6.08

>  <EState_VSA8>
20.77

>  <EState_VSA9>
9.47

>  <EState_VSA10>
19.8

>  <VSA_EState1>
12.66

>  <VSA_EState2>
25.21

>  <VSA_EState3>
21.41

>  <VSA_EState4>
-1.05

>  <VSA_EState5>
0.03

>  <VSA_EState6>
0

>  <VSA_EState7>
8.31

>  <VSA_EState8>
5.67

>  <VSA_EState9>
0

>  <apol>
69.23

>  <bpol>
39.32

>  <nRing>
5

>  <nHRing>
1

>  <naRing>
0

>  <naHRing>
0

>  <nARing 2>
5

>  <nAHRing 2>
1

>  <nFRing>
1

>  <nFHRing>
1

>  <nFaRing>
0

>  <nFaHRing>
0

>  <nFARing 2>
1

>  <nFAHRing 2>
1

>  <nRot>
4

>  <SLogP>
2.72

>  <SMR>
112.87

>  <TopoPSA(NO)>
93.06

>  <TopoPSA>
93.06

>  <JGI1>
0.27

>  <JGI2>
0.12

>  <JGI3>
0.08

>  <JGI4>
0.06

>  <JGI5>
0.04

>  <Diameter>
14

>  <Radius>
7

>  <TMWC10>
148.23

>  <TSRW10>
85.1

>  <MW>
430.24

>  <AMW>
6.62

>  <WPath>
2307

>  <WPol>
70

>  <Zagreb1>
184

>  <Zagreb2>
238

>  <mZagreb2>
6.6

>  <yes>


>  <nAR-cont>
0

>  <nHA-cont>
0.702745138

>  <MWHBN>
0.385686639

>  <MWHBN-cont>
0.532453156

>  <TPSA-cont>
0.350383413

>  <pka_cont>
0.97

>  <yes.1>


>  <BBB_SCORE>
2.687191698

>  <MMFF94 Energy>
130.95

$$$$
Compound 2032
Actelion Java MolfileCreator 2.0

  0  0  0  0  0  0              0 V3000
M  V30 BEGIN CTAB
M  V30 COUNTS 60 60 0 0 0
M  V30 BEGIN ATOM
M  V30 1 O 3.3513 -4.0539 1.246 0
M  V30 2 C 2.9845 -4.4667 0.1475 0
M  V30 3 N 3.407 -5.6998 -0.353 0
M  V30 4 N 2.1151 -3.7768 -0.6687 0
M  V30 5 C 3.1478 -6.2013 -1.7055 0
M  V30 6 C 4.2127 -6.542 0.5342 0
M  V30 7 C 1.6819 -2.4552 -0.4568 0
M  V30 8 C 1.9109 -7.0813 -1.7744 0
M  V30 9 C 3.3643 -7.3073 1.5391 0
M  V30 10 C 2.5073 -1.4786 0.0975 0
M  V30 11 C 0.3967 -2.1066 -0.8725 0
M  V30 12 C 2.0384 -0.1655 0.2702 0
M  V30 13 C -0.0736 -0.7981 -0.7076 0
M  V30 14 C 0.7387 0.186 -0.1335 0
M  V30 15 C 2.9912 0.8095 0.8669 0
M  V30 16 O 0.3612 1.4905 0.0285 0
M  V30 17 O 4.1828 0.7511 0.5662 0
M  V30 18 C 2.4824 1.8291 1.8517 0
M  V30 19 C -0.9874 1.8542 -0.2897 0
M  V30 20 C -1.1828 3.3393 0.0414 0 CFG=1
M  V30 21 O -0.5158 4.145 -0.9419 0
M  V30 22 C -2.6771 3.7209 0.0479 0
M  V30 23 N -2.7986 5.1738 0.2577 0
M  V30 24 C -4.1706 5.7184 0.2188 0
M  V30 25 C -4.8414 5.4864 -1.1447 0
M  V30 26 C -4.0333 7.2378 0.4375 0
M  V30 27 C -5.0484 5.1413 1.3414 0
M  V30 28 H 1.6052 -4.3168 -1.3469 0
M  V30 29 H 4.0266 -6.7563 -2.0522 0
M  V30 30 H 3.0338 -5.357 -2.3934 0
M  V30 31 H 4.9226 -5.9074 1.0775 0
M  V30 32 H 4.8066 -7.2409 -0.0643 0
M  V30 33 H 1.0285 -6.5643 -1.3849 0
M  V30 34 H 2.0461 -7.9978 -1.1929 0
M  V30 35 H 1.71 -7.3703 -2.8107 0
M  V30 36 H 2.665 -7.9825 1.0385 0
M  V30 37 H 2.7786 -6.6279 2.1665 0
M  V30 38 H 4.0041 -7.9073 2.1937 0
M  V30 39 H 3.525 -1.7221 0.3981 0
M  V30 40 H -0.2599 -2.8471 -1.3218 0
M  V30 41 H -1.0789 -0.5809 -1.0536 0
M  V30 42 H 2.2929 2.7765 1.3414 0
M  V30 43 H 1.5766 1.4793 2.3543 0
M  V30 44 H 3.2416 1.9811 2.6252 0
M  V30 45 H -1.6747 1.2512 0.3152 0
M  V30 46 H -1.1663 1.6903 -1.3589 0
M  V30 47 H -0.7233 3.5719 1.0096 0
M  V30 48 H -0.9586 5.0174 -0.8929 0
M  V30 49 H -3.1049 3.449 -0.9223 0
M  V30 50 H -3.1921 3.1602 0.8343 0
M  V30 51 H -2.3729 5.4155 1.1556 0
M  V30 52 H -5.0655 4.4287 -1.3184 0
M  V30 53 H -5.792 6.0289 -1.2102 0
M  V30 54 H -4.206 5.8378 -1.9658 0
M  V30 55 H -3.4147 7.6996 -0.3412 0
M  V30 56 H -5.0123 7.7307 0.4151 0
M  V30 57 H -3.5746 7.4651 1.4074 0
M  V30 58 H -5.2504 4.0749 1.1958 0
M  V30 59 H -4.5743 5.2645 2.3221 0
M  V30 60 H -6.0187 5.6504 1.3799 0
M  V30 END ATOM
M  V30 BEGIN BOND
M  V30 1 2 1 2
M  V30 2 1 2 3
M  V30 3 1 2 4
M  V30 4 1 3 5
M  V30 5 1 3 6
M  V30 6 1 4 7
M  V30 7 1 5 8
M  V30 8 1 6 9
M  V30 9 2 7 10
M  V30 10 1 7 11
M  V30 11 1 10 12
M  V30 12 2 11 13
M  V30 13 2 12 14
M  V30 14 1 12 15
M  V30 15 1 14 16
M  V30 16 2 15 17
M  V30 17 1 15 18
M  V30 18 1 16 19
M  V30 19 1 19 20
M  V30 20 1 20 21
M  V30 21 1 20 22
M  V30 22 1 22 23
M  V30 23 1 23 24
M  V30 24 1 24 25
M  V30 25 1 24 26
M  V30 26 1 24 27
M  V30 27 1 13 14
M  V30 28 1 4 28
M  V30 29 1 5 29
M  V30 30 1 5 30
M  V30 31 1 6 31
M  V30 32 1 6 32
M  V30 33 1 8 33
M  V30 34 1 8 34
M  V30 35 1 8 35
M  V30 36 1 9 36
M  V30 37 1 9 37
M  V30 38 1 9 38
M  V30 39 1 10 39
M  V30 40 1 11 40
M  V30 41 1 13 41
M  V30 42 1 18 42
M  V30 43 1 18 43
M  V30 44 1 18 44
M  V30 45 1 19 45
M  V30 46 1 19 46
M  V30 47 1 20 47
M  V30 48 1 21 48
M  V30 49 1 22 49
M  V30 50 1 22 50
M  V30 51 1 23 51
M  V30 52 1 25 52
M  V30 53 1 25 53
M  V30 54 1 25 54
M  V30 55 1 26 55
M  V30 56 1 26 56
M  V30 57 1 26 57
M  V30 58 1 27 58
M  V30 59 1 27 59
M  V30 60 1 27 60
M  V30 END BOND
M  V30 BEGIN COLLECTION
M  V30 MDLV30/STEABS ATOMS=(1 20)
M  V30 END COLLECTION
M  V30 END CTAB
M  END
>  <Column 1>
2476

>  <level_0>
3056

>  <index>
3056

>  <Unnamed: 0>
3056

>  <NO.>
3068

>  <Name>
(s)-celiprolol

>  <IUPAC_name>
3-[3-acetyl-4-[(2s)-3-(tert-butylamino)-2-hydroxypropoxy]phenyl]-1-1-diethylurea

>  <SMILES>
CCN(CC)C(=O)Nc1ccc(OC[C@@H](O)CNC(C)(C)C)c(C(C)=O)c1

>  <CID>
11406333

>  <logBB>


>  <BBB+/BBB->
BBB-

>  <Inchi>
InChI=1S/C20H33N3O4/c1-7-23(8-2)19(26)22-15-9-10-18(17(11-15)14(3)24)27-13-16(25)12-21-20(4-5)6/h9-11-16-21-25H-7-8-12-13H2-1-6H3-(H-22-26)/t16-/m0/s1

>  <threshold>
-1

>  <reference>
R13|R24|

>  <group>
B

>  <Class>
1

>  <ABC>
19.88

>  <ABCGG>
17.01

>  <nAcid>
0

>  <nBase>
1

>  <nAromAtom>
6

>  <nAromBond>
6

>  <nAtom>
60

>  <nHeavyAtom>
27

>  <nSpiro>
0

>  <nBridgehead>
0

>  <nHetero>
7

>  <nN>
3

>  <nO>
4

>  <nF>
0

>  <BalabanJ>
2.5

>  <BertzCT>
636.6

>  <nBonds>
60

>  <nBondsO>
27

>  <nBondsS>
52

>  <nBondsD>
2

>  <nBondsT>
0

>  <nBondsA>
6

>  <nBondsM>
8

>  <nBondsKS>
55

>  <nBondsKD>
5

>  <RNCG>
0.18

>  <RPCG>
0.12

>  <FCSP3>
0.6

>  <SZ>
34.33

>  <Sm>
31.6

>  <Sv>
34.07

>  <Sse>
59.96

>  <Sp>
37.07

>  <Si>
68.56

>  <MZ>
0.57

>  <Mm>
0.53

>  <Mv>
0.57

>  <Mse>
1

>  <Mp>
0.62

>  <Mi>
1.14

>  <NsCH3>
6

>  <NdCH2>
0

>  <NssCH2>
4

>  <NtCH>
0

>  <NdsCH>
0

>  <NaaCH>
3

>  <NsssCH>
1

>  <NddC>
0

>  <NtsC>
0

>  <NdssC>
2

>  <NaasC>
3

>  <NaaaC>
0

>  <NssssC>
1

>  <NsNH3>
0

>  <NsNH2>
0

>  <NssNH2>
0

>  <NdNH>
0

>  <NssNH>
2

>  <NaaNH>
0

>  <NtN>
0

>  <NsssNH>
0

>  <NdsN>
0

>  <NaaN>
0

>  <NsssN>
1

>  <NddsN>
0

>  <NaasN>
0

>  <NssssN>
0

>  <NsOH>
1

>  <NdO>
2

>  <NssO>
1

>  <NaaO>
0

>  <NsF>
0

>  <NsSiH3>
0

>  <NssSiH2>
0

>  <NsssSiH>
0

>  <NssssSi>
0

>  <NsPH2>
0

>  <NssPH>
0

>  <NsssP>
0

>  <NdsssP>
0

>  <NsssssP>
0

>  <NsSH>
0

>  <NdS>
0

>  <NssS>
0

>  <NaaS>
0

>  <NdssS>
0

>  <NddssS>
0

>  <NsCl>
0

>  <NsBr>
0

>  <NsI>
0

>  <fragCpx>
27.07

>  <fMF>
0.1

>  <nHBAcc>
5

>  <nHBDon>
3

>  <Kier1>
25.04

>  <Kier2>
11.87

>  <Lipinski>
1

>  <GhoseFilter>
1

>  <FilterItLogS>
-4.42

>  <VMcGowan>
313.72

>  <LabuteASA>
161.63

>  <PEOE_VSA1>
25.38

>  <PEOE_VSA2>
4.79

>  <PEOE_VSA3>
4.79

>  <PEOE_VSA4>
0

>  <PEOE_VSA5>
0

>  <PEOE_VSA6>
0

>  <PEOE_VSA7>
59.74

>  <PEOE_VSA8>
30.86

>  <PEOE_VSA9>
5.56

>  <PEOE_VSA10>
18.46

>  <PEOE_VSA11>
5.78

>  <PEOE_VSA12>
0

>  <PEOE_VSA13>
0

>  <SMR_VSA1>
19.43

>  <SMR_VSA2>
0

>  <SMR_VSA3>
10.22

>  <SMR_VSA4>
0

>  <SMR_VSA5>
53.19

>  <SMR_VSA6>
31.56

>  <SMR_VSA7>
23.76

>  <SMR_VSA8>
0

>  <SMR_VSA9>
5.75

>  <SlogP_VSA1>
15.37

>  <SlogP_VSA2>
59.7

>  <SlogP_VSA3>
0

>  <SlogP_VSA4>
0

>  <SlogP_VSA5>
51.9

>  <SlogP_VSA6>
18.2

>  <SlogP_VSA7>
0

>  <SlogP_VSA8>
0

>  <SlogP_VSA9>
0

>  <SlogP_VSA10>
10.48

>  <SlogP_VSA11>
5.75

>  <EState_VSA1>
6.1

>  <EState_VSA2>
23.96

>  <EState_VSA3>
36.63

>  <EState_VSA4>
0

>  <EState_VSA5>
6.92

>  <EState_VSA6>
23.1

>  <EState_VSA7>
34.62

>  <EState_VSA8>
10.63

>  <EState_VSA9>
4.74

>  <EState_VSA10>
14.7

>  <VSA_EState1>
5.64

>  <VSA_EState2>
25.79

>  <VSA_EState3>
16.04

>  <VSA_EState4>
0.79

>  <VSA_EState5>
0.21

>  <VSA_EState6>
4.7

>  <VSA_EState7>
-0.7

>  <VSA_EState8>
12.94

>  <VSA_EState9>
0

>  <apol>
61.91

>  <bpol>
39.43

>  <nRing>
1

>  <nHRing>
0

>  <naRing>
1

>  <naHRing>
0

>  <nARing 2>
0

>  <nAHRing 2>
0

>  <nFRing>
0

>  <nFHRing>
0

>  <nFaRing>
0

>  <nFaHRing>
0

>  <nFARing 2>
0

>  <nFAHRing 2>
0

>  <nRot>
9

>  <SLogP>
2.89

>  <SMR>
107.64

>  <TopoPSA(NO)>
90.9

>  <TopoPSA>
90.9

>  <JGI1>
0.3

>  <JGI2>
0.09

>  <JGI3>
0.05

>  <JGI4>
0.04

>  <JGI5>
0.03

>  <Diameter>
15

>  <Radius>
8

>  <TMWC10>
127.54

>  <TSRW10>
61.34

>  <MW>
379.25

>  <AMW>
6.32

>  <WPath>
2154

>  <WPol>
37

>  <Zagreb1>
128

>  <Zagreb2>
141

>  <mZagreb2>
6.13

>  <yes>


>  <nAR-cont>
0.336376

>  <nHA-cont>
0.860070871

>  <MWHBN>
0.410796933

>  <MWHBN-cont>
0.43370665

>  <TPSA-cont>
0.365461554

>  <pka_cont>
0.97

>  <yes.1>


>  <BBB_SCORE>
3.062929955

>  <MMFF94 Energy>
15.121

$$$$
Compound 2033
Actelion Java MolfileCreator 2.0

  0  0  0  0  0  0              0 V3000
M  V30 BEGIN CTAB
M  V30 COUNTS 66 68 0 0 0
M  V30 BEGIN ATOM
M  V30 1 S -0.2402 -2.7258 0.6408 0
M  V30 2 C -0.3794 -1.0161 1.3994 0
M  V30 3 C 1.6032 -2.6739 0.4624 0 CFG=2
M  V30 4 C 1.0539 -0.7 1.8788 0 CFG=1
M  V30 5 C -0.9567 -0.0966 0.3149 0
M  V30 6 C -1.3643 -1.1218 2.5714 0
M  V30 7 N 1.9535 -1.3254 0.9244 0
M  V30 8 C 2.187 -2.2814 -0.9207 0
M  V30 9 C 1.4517 0.74 2.2243 0
M  V30 10 C 2.2096 -0.8531 -0.3289 0
M  V30 11 N 1.3265 -2.4833 -2.1081 0
M  V30 12 O 2.611 1.1268 2.3212 0
M  V30 13 O 0.3689 1.5042 2.5292 0
M  V30 14 O 2.2632 0.2744 -0.7616 0
M  V30 15 C 1.1119 -3.7395 -2.6318 0
M  V30 16 C 0.6782 2.8595 2.9033 0
M  V30 17 O 1.6529 -4.7339 -2.1581 0
M  V30 18 C 0.1919 -3.8223 -3.8058 0
M  V30 19 C -0.647 3.6188 3.0786 0
M  V30 20 C 0.2011 -2.8446 -4.8252 0
M  V30 21 C -0.6874 -4.9141 -3.9096 0
M  V30 22 N -0.483 4.9906 3.6054 0
M  V30 23 O 1.0746 -1.7953 -4.6842 0
M  V30 24 C -0.6767 -2.9752 -5.9111 0
M  V30 25 O -0.7999 -5.8407 -2.9047 0
M  V30 26 C -1.5667 -5.0215 -4.9898 0
M  V30 27 C -1.7578 5.4922 4.1566 0
M  V30 28 C 0.021 5.8943 2.5517 0
M  V30 29 C 1.2604 -0.9286 -5.7975 0
M  V30 30 C -1.5544 -4.0581 -5.9923 0
M  V30 31 C -0.1219 -7.0478 -3.2562 0
M  V30 32 C -2.0661 4.8987 5.5286 0
M  V30 33 C 0.6528 7.1585 3.1281 0
M  V30 34 H 2.1374 -3.4654 0.995 0
M  V30 35 H 1.2276 -1.2459 2.8187 0
M  V30 36 H -1.9401 -0.45 -0.0198 0
M  V30 37 H -1.109 0.9217 0.6838 0
M  V30 38 H -0.3223 -0.0291 -0.572 0
M  V30 39 H -1.5077 -0.1516 3.0582 0
M  V30 40 H -2.3529 -1.4608 2.2395 0
M  V30 41 H -1.0124 -1.821 3.339 0
M  V30 42 H 3.2017 -2.6584 -1.1013 0
M  V30 43 H 0.9222 -1.688 -2.5932 0
M  V30 44 H 1.2932 3.3159 2.1212 0
M  V30 45 H 1.2319 2.8478 3.8494 0
M  V30 46 H -1.203 3.6222 2.1312 0
M  V30 47 H -1.2552 3.0135 3.7609 0
M  V30 48 H -0.7127 -2.2412 -6.7101 0
M  V30 49 H -2.2725 -5.8466 -5.038 0
M  V30 50 H -1.7159 6.5771 4.2999 0
M  V30 51 H -2.5893 5.3032 3.466 0
M  V30 52 H 0.8074 5.404 1.9686 0
M  V30 53 H -0.7737 6.1566 1.842 0
M  V30 54 H 1.5679 -1.4852 -6.6887 0
M  V30 55 H 2.0653 -0.2315 -5.5458 0
M  V30 56 H 0.3579 -0.3392 -5.9879 0
M  V30 57 H -2.2397 -4.1416 -6.8325 0
M  V30 58 H -0.7132 -7.6214 -3.9774 0
M  V30 59 H -0.0167 -7.6495 -2.3486 0
M  V30 60 H 0.8797 -6.8579 -3.6577 0
M  V30 61 H -2.9558 5.3796 5.9492 0
M  V30 62 H -1.2367 5.0661 6.2239 0
M  V30 63 H -2.2669 3.825 5.4837 0
M  V30 64 H 1.114 7.7421 2.3243 0
M  V30 65 H 1.4366 6.9104 3.8517 0
M  V30 66 H -0.0791 7.8042 3.6206 0
M  V30 END ATOM
M  V30 BEGIN BOND
M  V30 1 1 1 2
M  V30 2 1 1 3
M  V30 3 1 2 4
M  V30 4 1 2 5
M  V30 5 1 2 6
M  V30 6 1 3 7
M  V30 7 1 3 8
M  V30 8 1 4 9
M  V30 9 1 7 10
M  V30 10 1 8 11
M  V30 11 2 9 12
M  V30 12 1 9 13
M  V30 13 2 10 14
M  V30 14 1 11 15
M  V30 15 1 13 16
M  V30 16 2 15 17
M  V30 17 1 15 18
M  V30 18 1 16 19
M  V30 19 2 18 20
M  V30 20 1 18 21
M  V30 21 1 19 22
M  V30 22 1 20 23
M  V30 23 1 20 24
M  V30 24 1 21 25
M  V30 25 2 21 26
M  V30 26 1 22 27
M  V30 27 1 22 28
M  V30 28 1 23 29
M  V30 29 2 24 30
M  V30 30 1 25 31
M  V30 31 1 27 32
M  V30 32 1 28 33
M  V30 33 1 4 7
M  V30 34 1 8 10
M  V30 35 1 26 30
M  V30 36 1 3 34
M  V30 37 1 4 35
M  V30 38 1 5 36
M  V30 39 1 5 37
M  V30 40 1 5 38
M  V30 41 1 6 39
M  V30 42 1 6 40
M  V30 43 1 6 41
M  V30 44 1 8 42
M  V30 45 1 11 43
M  V30 46 1 16 44
M  V30 47 1 16 45
M  V30 48 1 19 46
M  V30 49 1 19 47
M  V30 50 1 24 48
M  V30 51 1 26 49
M  V30 52 1 27 50
M  V30 53 1 27 51
M  V30 54 1 28 52
M  V30 55 1 28 53
M  V30 56 1 29 54
M  V30 57 1 29 55
M  V30 58 1 29 56
M  V30 59 1 30 57
M  V30 60 1 31 58
M  V30 61 1 31 59
M  V30 62 1 31 60
M  V30 63 1 32 61
M  V30 64 1 32 62
M  V30 65 1 32 63
M  V30 66 1 33 64
M  V30 67 1 33 65
M  V30 68 1 33 66
M  V30 END BOND
M  V30 BEGIN COLLECTION
M  V30 MDLV30/STEABS ATOMS=(2 3 4)
M  V30 END COLLECTION
M  V30 END CTAB
M  END
>  <Column 1>
2478

>  <level_0>
3062

>  <index>
3062

>  <Unnamed: 0>
3062

>  <NO.>
3074

>  <Name>


>  <IUPAC_name>


>  <SMILES>
CCN(CC)CCOC(=O)[C@@H]1N2C(=O)C(NC(=O)c3c(OC)cccc3OC)[C@@H]2SC1(C)C

>  <CID>


>  <logBB>


>  <BBB+/BBB->
BBB-

>  <Inchi>
InChI=1S/C23H33N3O6S/c1-7-25(8-2)12-13-32-22(29)18-23(3-4)33-21-17(20(28)26(18)21)24-19(27)16-14(30-5)10-9-11-15(16)31-6/h9-11-17-18-21H-7-8-12-13H2-1-6H3-(H-24-27)/t17?-18--21-/m0/s1

>  <threshold>
-1

>  <reference>
R13|

>  <group>
B

>  <Class>
1

>  <ABC>
24.97

>  <ABCGG>
21.03

>  <nAcid>
0

>  <nBase>
1

>  <nAromAtom>
6

>  <nAromBond>
6

>  <nAtom>
66

>  <nHeavyAtom>
33

>  <nSpiro>
0

>  <nBridgehead>
0

>  <nHetero>
10

>  <nN>
3

>  <nO>
6

>  <nF>
0

>  <BalabanJ>
1.61

>  <BertzCT>
881.93

>  <nBonds>
68

>  <nBondsO>
35

>  <nBondsS>
59

>  <nBondsD>
3

>  <nBondsT>
0

>  <nBondsA>
6

>  <nBondsM>
9

>  <nBondsKS>
62

>  <nBondsKD>
6

>  <RNCG>
0.14

>  <RPCG>
0.09

>  <FCSP3>
0.61

>  <SZ>
42.67

>  <Sm>
39.93

>  <Sv>
39.69

>  <Sse>
66.7

>  <Sp>
42.77

>  <Si>
74.9

>  <MZ>
0.65

>  <Mm>
0.6

>  <Mv>
0.6

>  <Mse>
1.01

>  <Mp>
0.65

>  <Mi>
1.13

>  <NsCH3>
6

>  <NdCH2>
0

>  <NssCH2>
4

>  <NtCH>
0

>  <NdsCH>
0

>  <NaaCH>
3

>  <NsssCH>
3

>  <NddC>
0

>  <NtsC>
0

>  <NdssC>
3

>  <NaasC>
3

>  <NaaaC>
0

>  <NssssC>
1

>  <NsNH3>
0

>  <NsNH2>
0

>  <NssNH2>
0

>  <NdNH>
0

>  <NssNH>
1

>  <NaaNH>
0

>  <NtN>
0

>  <NsssNH>
0

>  <NdsN>
0

>  <NaaN>
0

>  <NsssN>
2

>  <NddsN>
0

>  <NaasN>
0

>  <NssssN>
0

>  <NsOH>
0

>  <NdO>
3

>  <NssO>
3

>  <NaaO>
0

>  <NsF>
0

>  <NsSiH3>
0

>  <NssSiH2>
0

>  <NsssSiH>
0

>  <NssssSi>
0

>  <NsPH2>
0

>  <NssPH>
0

>  <NsssP>
0

>  <NdsssP>
0

>  <NsssssP>
0

>  <NsSH>
0

>  <NdS>
0

>  <NssS>
1

>  <NaaS>
0

>  <NdssS>
0

>  <NddssS>
0

>  <NsCl>
0

>  <NsBr>
0

>  <NsI>
0

>  <fragCpx>
169.1

>  <fMF>
0.23

>  <nHBAcc>
8

>  <nHBDon>
1

>  <Kier1>
27.59

>  <Kier2>
11.82

>  <Lipinski>
1

>  <GhoseFilter>
1

>  <FilterItLogS>
-4.25

>  <VMcGowan>
358.06

>  <LabuteASA>
198.64

>  <PEOE_VSA1>
29.33

>  <PEOE_VSA2>
9.59

>  <PEOE_VSA3>
4.79

>  <PEOE_VSA4>
0

>  <PEOE_VSA5>
11.76

>  <PEOE_VSA6>
19.91

>  <PEOE_VSA7>
39.07

>  <PEOE_VSA8>
11.29

>  <PEOE_VSA9>
14.22

>  <PEOE_VSA10>
41.13

>  <PEOE_VSA11>
0

>  <PEOE_VSA12>
5.91

>  <PEOE_VSA13>
5.91

>  <SMR_VSA1>
28.59

>  <SMR_VSA2>
0

>  <SMR_VSA3>
15.12

>  <SMR_VSA4>
0

>  <SMR_VSA5>
49.9

>  <SMR_VSA6>
40.46

>  <SMR_VSA7>
23.76

>  <SMR_VSA8>
0

>  <SMR_VSA9>
11.5

>  <SlogP_VSA1>
14.79

>  <SlogP_VSA2>
90.25

>  <SlogP_VSA3>
14.33

>  <SlogP_VSA4>
0

>  <SlogP_VSA5>
38.05

>  <SlogP_VSA6>
18.2

>  <SlogP_VSA7>
0

>  <SlogP_VSA8>
0

>  <SlogP_VSA9>
0

>  <SlogP_VSA10>
0

>  <SlogP_VSA11>
11.5

>  <EState_VSA1>
28.71

>  <EState_VSA2>
23.45

>  <EState_VSA3>
18.04

>  <EState_VSA4>
13.09

>  <EState_VSA5>
30.88

>  <EState_VSA6>
18.2

>  <EState_VSA7>
13.85

>  <EState_VSA8>
24.06

>  <EState_VSA9>
14.21

>  <EState_VSA10>
14.38

>  <VSA_EState1>
15.59

>  <VSA_EState2>
42.65

>  <VSA_EState3>
2.45

>  <VSA_EState4>
0.23

>  <VSA_EState5>
-0.47

>  <VSA_EState6>
3.58

>  <VSA_EState7>
0

>  <VSA_EState8>
10.63

>  <VSA_EState9>
2.93

>  <apol>
71.43

>  <bpol>
47.37

>  <nRing>
3

>  <nHRing>
2

>  <naRing>
1

>  <naHRing>
0

>  <nARing 2>
2

>  <nAHRing 2>
2

>  <nFRing>
1

>  <nFHRing>
1

>  <nFaRing>
0

>  <nFaHRing>
0

>  <nFARing 2>
1

>  <nFAHRing 2>
1

>  <nRot>
10

>  <SLogP>
1.75

>  <SMR>
125.64

>  <TopoPSA(NO)>
97.41

>  <TopoPSA>
122.71

>  <JGI1>
0.21

>  <JGI2>
0.1

>  <JGI3>
0.08

>  <JGI4>
0.05

>  <JGI5>
0.03

>  <Diameter>
16

>  <Radius>
8

>  <TMWC10>
147.38

>  <TSRW10>
84.63

>  <MW>
479.21

>  <AMW>
7.26

>  <WPath>
3429

>  <WPol>
55

>  <Zagreb1>
172

>  <Zagreb2>
208

>  <mZagreb2>
7.54

>  <yes>


>  <nAR-cont>
1

>  <nHA-cont>
0.61399562

>  <MWHBN>
0.411130383

>  <MWHBN-cont>
0.432404606

>  <TPSA-cont>
0

>  <pka_cont>
0.97

>  <yes.1>


>  <BBB_SCORE>
2.747602529

>  <MMFF94 Energy>
110.01

$$$$
Compound 2034
Actelion Java MolfileCreator 2.0

  0  0  0  0  0  0              0 V3000
M  V30 BEGIN CTAB
M  V30 COUNTS 37 39 0 0 0
M  V30 BEGIN ATOM
M  V30 1 N 1.4312 1.3516 -0.7949 0
M  V30 2 C 0.808 0.6736 0.3468 0 CFG=2
M  V30 3 C 1.7463 0.4204 -1.8789 0
M  V30 4 C -0.6413 0.1416 0.0991 0
M  V30 5 C 0.5946 1.6406 1.545 0
M  V30 6 C 2.4634 1.1619 -2.9973 0
M  V30 7 C -0.8109 -1.3619 -0.0375 0
M  V30 8 C -1.4242 0.7232 1.3123 0
M  V30 9 C -0.3653 0.8265 2.4129 0
M  V30 10 C -0.2945 2.8406 1.1595 0
M  V30 11 C -1.7312 -1.8493 -0.9821 0
M  V30 12 C -0.1204 -2.2939 0.7493 0
M  V30 13 C -1.6912 2.2145 1.0312 0
M  V30 14 C -1.9409 -3.22 -1.1456 0
M  V30 15 C -0.3302 -3.6664 0.586 0
M  V30 16 C -1.2383 -4.1294 -0.3618 0
M  V30 17 H 2.2883 1.809 -0.4846 0
M  V30 18 H 1.4828 -0.1221 0.6833 0
M  V30 19 H 0.833 -0.0246 -2.2867 0
M  V30 20 H 2.3908 -0.3889 -1.5176 0
M  V30 21 H -1.0327 0.5943 -0.823 0
M  V30 22 H 1.5255 1.9332 2.0368 0
M  V30 23 H 1.8416 1.9689 -3.3994 0
M  V30 24 H 3.4055 1.5963 -2.6461 0
M  V30 25 H 2.6949 0.4743 -3.8169 0
M  V30 26 H -2.3271 0.171 1.5843 0
M  V30 27 H -0.7151 1.3733 3.2957 0
M  V30 28 H 0.0425 -0.1355 2.7311 0
M  V30 29 H -0.296 3.5903 1.9592 0
M  V30 30 H 0.0205 3.3379 0.2379 0
M  V30 31 H -2.296 -1.157 -1.6038 0
M  V30 32 H 0.59 -1.9761 1.5062 0
M  V30 33 H -2.3645 2.6375 1.7857 0
M  V30 34 H -2.1349 2.3906 0.0464 0
M  V30 35 H -2.6548 -3.575 -1.884 0
M  V30 36 H 0.2158 -4.3743 1.204 0
M  V30 37 H -1.4006 -5.1963 -0.4863 0
M  V30 END ATOM
M  V30 BEGIN BOND
M  V30 1 1 1 2
M  V30 2 1 1 3
M  V30 3 1 2 4
M  V30 4 1 2 5
M  V30 5 1 3 6
M  V30 6 1 4 7
M  V30 7 1 4 8
M  V30 8 1 5 9
M  V30 9 1 5 10
M  V30 10 2 7 11
M  V30 11 1 7 12
M  V30 12 1 8 13
M  V30 13 1 11 14
M  V30 14 2 12 15
M  V30 15 2 14 16
M  V30 16 1 8 9
M  V30 17 1 10 13
M  V30 18 1 15 16
M  V30 19 1 1 17
M  V30 20 1 2 18
M  V30 21 1 3 19
M  V30 22 1 3 20
M  V30 23 1 4 21
M  V30 24 1 5 22
M  V30 25 1 6 23
M  V30 26 1 6 24
M  V30 27 1 6 25
M  V30 28 1 8 26
M  V30 29 1 9 27
M  V30 30 1 9 28
M  V30 31 1 10 29
M  V30 32 1 10 30
M  V30 33 1 11 31
M  V30 34 1 12 32
M  V30 35 1 13 33
M  V30 36 1 13 34
M  V30 37 1 14 35
M  V30 38 1 15 36
M  V30 39 1 16 37
M  V30 END BOND
M  V30 BEGIN COLLECTION
M  V30 MDLV30/STEABS ATOMS=(1 2)
M  V30 END COLLECTION
M  V30 END CTAB
M  END
>  <Column 1>
2481

>  <level_0>
3079

>  <index>
3079

>  <Unnamed: 0>
3079

>  <NO.>
3091

>  <Name>


>  <IUPAC_name>


>  <SMILES>
CCN[C@H]1C2CCC(C2)C1c1ccccc1

>  <CID>


>  <logBB>


>  <BBB+/BBB->
BBB+

>  <Inchi>
InChI=1S/C15H21N/c1-2-16-15-13-9-8-12(10-13)14(15)11-6-4-3-5-7-11/h3-7-12-16H-2-8-10H2-1H3/t12?-13?-14?-15-/m0/s1

>  <threshold>
-1

>  <reference>
R13|

>  <group>
B

>  <Class>
-1

>  <ABC>
12.57

>  <ABCGG>
11.25

>  <nAcid>
0

>  <nBase>
1

>  <nAromAtom>
6

>  <nAromBond>
6

>  <nAtom>
37

>  <nHeavyAtom>
16

>  <nSpiro>
0

>  <nBridgehead>
2

>  <nHetero>
1

>  <nN>
1

>  <nO>
0

>  <nF>
0

>  <BalabanJ>
1.71

>  <BertzCT>
345.71

>  <nBonds>
39

>  <nBondsO>
18

>  <nBondsS>
33

>  <nBondsD>
0

>  <nBondsT>
0

>  <nBondsA>
6

>  <nBondsM>
6

>  <nBondsKS>
36

>  <nBondsKD>
3

>  <RNCG>
0.34

>  <RPCG>
0.13

>  <FCSP3>
0.6

>  <SZ>
19.67

>  <Sm>
17.93

>  <Sv>
21.45

>  <Sse>
35.99

>  <Sp>
24.04

>  <Si>
41.65

>  <MZ>
0.53

>  <Mm>
0.48

>  <Mv>
0.58

>  <Mse>
0.97

>  <Mp>
0.65

>  <Mi>
1.13

>  <NsCH3>
1

>  <NdCH2>
0

>  <NssCH2>
4

>  <NtCH>
0

>  <NdsCH>
0

>  <NaaCH>
5

>  <NsssCH>
4

>  <NddC>
0

>  <NtsC>
0

>  <NdssC>
0

>  <NaasC>
1

>  <NaaaC>
0

>  <NssssC>
0

>  <NsNH3>
0

>  <NsNH2>
0

>  <NssNH2>
0

>  <NdNH>
0

>  <NssNH>
1

>  <NaaNH>
0

>  <NtN>
0

>  <NsssNH>
0

>  <NdsN>
0

>  <NaaN>
0

>  <NsssN>
0

>  <NddsN>
0

>  <NaasN>
0

>  <NssssN>
0

>  <NsOH>
0

>  <NdO>
0

>  <NssO>
0

>  <NaaO>
0

>  <NsF>
0

>  <NsSiH3>
0

>  <NssSiH2>
0

>  <NsssSiH>
0

>  <NssssSi>
0

>  <NsPH2>
0

>  <NssPH>
0

>  <NsssP>
0

>  <NdsssP>
0

>  <NsssssP>
0

>  <NsSH>
0

>  <NdS>
0

>  <NssS>
0

>  <NaaS>
0

>  <NdssS>
0

>  <NddssS>
0

>  <NsCl>
0

>  <NsBr>
0

>  <NsI>
0

>  <fragCpx>
84.01

>  <fMF>
0.35

>  <nHBAcc>
1

>  <nHBDon>
1

>  <Kier1>
11.11

>  <Kier2>
4.7

>  <Lipinski>
1

>  <GhoseFilter>
1

>  <FilterItLogS>
-3.51

>  <VMcGowan>
186.71

>  <LabuteASA>
98.25

>  <PEOE_VSA1>
5.32

>  <PEOE_VSA2>
0

>  <PEOE_VSA3>
0

>  <PEOE_VSA4>
0

>  <PEOE_VSA5>
0

>  <PEOE_VSA6>
37.26

>  <PEOE_VSA7>
43.21

>  <PEOE_VSA8>
11.96

>  <PEOE_VSA9>
0

>  <PEOE_VSA10>
0

>  <PEOE_VSA11>
0

>  <PEOE_VSA12>
0

>  <PEOE_VSA13>
0

>  <SMR_VSA1>
0

>  <SMR_VSA2>
0

>  <SMR_VSA3>
5.32

>  <SMR_VSA4>
11.84

>  <SMR_VSA5>
38.15

>  <SMR_VSA6>
6.54

>  <SMR_VSA7>
35.9

>  <SMR_VSA8>
0

>  <SMR_VSA9>
0

>  <SlogP_VSA1>
5.32

>  <SlogP_VSA2>
12.59

>  <SlogP_VSA3>
0

>  <SlogP_VSA4>
11.84

>  <SlogP_VSA5>
37.67

>  <SlogP_VSA6>
30.33

>  <SlogP_VSA7>
0

>  <SlogP_VSA8>
0

>  <SlogP_VSA9>
0

>  <SlogP_VSA10>
0

>  <SlogP_VSA11>
0

>  <EState_VSA1>
0

>  <EState_VSA2>
0

>  <EState_VSA3>
0

>  <EState_VSA4>
30.34

>  <EState_VSA5>
19.26

>  <EState_VSA6>
5.56

>  <EState_VSA7>
0

>  <EState_VSA8>
42.57

>  <EState_VSA9>
0

>  <EState_VSA10>
0

>  <VSA_EState1>
0

>  <VSA_EState2>
0

>  <VSA_EState3>
3.72

>  <VSA_EState4>
1.56

>  <VSA_EState5>
2.66

>  <VSA_EState6>
11.87

>  <VSA_EState7>
4.36

>  <VSA_EState8>
3.34

>  <VSA_EState9>
0

>  <apol>
40.15

>  <bpol>
21.64

>  <nRing>
3

>  <nHRing>
0

>  <naRing>
1

>  <naHRing>
0

>  <nARing 2>
2

>  <nAHRing 2>
0

>  <nFRing>
1

>  <nFHRing>
0

>  <nFaRing>
0

>  <nFaHRing>
0

>  <nFARing 2>
1

>  <nFAHRing 2>
0

>  <nRot>
3

>  <SLogP>
3.18

>  <SMR>
67.48

>  <TopoPSA(NO)>
12.03

>  <TopoPSA>
12.03

>  <JGI1>
0.11

>  <JGI2>
0.06

>  <JGI3>
0.06

>  <JGI4>
0.04

>  <JGI5>
0.02

>  <Diameter>
8

>  <Radius>
4

>  <TMWC10>
106.7

>  <TSRW10>
64.9

>  <MW>
215.17

>  <AMW>
5.82

>  <WPath>
412

>  <WPol>
21

>  <Zagreb1>
86

>  <Zagreb2>
104

>  <mZagreb2>
3.61

>  <yes>


>  <nAR-cont>
1

>  <nHA-cont>
0.954961865

>  <MWHBN>
0.136344975

>  <MWHBN-cont>
0.891942196

>  <TPSA-cont>
0.91602313

>  <pka_cont>
0.97

>  <yes.1>


>  <BBB_SCORE>
5.609921419

>  <MMFF94 Energy>
57.445

$$$$
Compound 2035
Actelion Java MolfileCreator 2.0

  0  0  0  0  0  0              0 V3000
M  V30 BEGIN CTAB
M  V30 COUNTS 59 61 0 0 0
M  V30 BEGIN ATOM
M  V30 1 O -2.0609 -2.0609 6.9886 0
M  V30 2 N -0.9133 -1.6455 7.2035 0 CHG=1
M  V30 3 O -0.3491 -1.6774 8.3086 0 CHG=-1
M  V30 4 C -0.1733 -1.0864 6.0689 0
M  V30 5 C 0.7842 -0.0722 6.2605 0
M  V30 6 C -0.4624 -1.5926 4.7892 0
M  V30 7 N 1.0524 0.5285 7.485 0
M  V30 8 C 1.4103 0.4443 5.1182 0
M  V30 9 C 0.1924 -1.0803 3.6603 0
M  V30 10 C 1.1486 -0.0726 3.8399 0
M  V30 11 C -0.1824 -1.6602 2.3358 0
M  V30 12 O 1.8078 0.4864 2.7727 0
M  V30 13 O -0.7808 -2.7298 2.289 0
M  V30 14 N 0.1482 -0.9353 1.2149 0
M  V30 15 C 3.1549 -0.0065 2.6982 0
M  V30 16 C -0.2246 -1.3564 -0.1283 0
M  V30 17 C 3.7935 0.5656 1.4464 0
M  V30 18 C -1.6383 -0.882 -0.4719 0
M  V30 19 C 0.7858 -0.8428 -1.1543 0
M  V30 20 C -1.9872 -1.2191 -1.9213 0
M  V30 21 C 0.3365 -1.1783 -2.5763 0
M  V30 22 N -1.0158 -0.7061 -2.9012 0
M  V30 23 C -1.1273 0.7541 -3.0697 0
M  V30 24 C -0.3726 1.3149 -4.3028 0 CFG=2
M  V30 25 C -0.5961 2.8387 -4.4277 0
M  V30 26 C -0.7761 0.6301 -5.6209 0
M  V30 27 C -1.8905 3.2116 -5.0935 0
M  V30 28 C -2.2328 0.9067 -6.0049 0
M  V30 29 C -2.6327 2.3384 -5.7903 0
M  V30 30 H -1.2073 -2.379 4.6645 0
M  V30 31 H 0.7421 0.0605 8.3375 0
M  V30 32 H 1.8188 1.1817 7.5862 0
M  V30 33 H 2.1153 1.2674 5.2169 0
M  V30 34 H 0.6004 -0.0348 1.3411 0
M  V30 35 H 3.156 -1.1018 2.6417 0
M  V30 36 H 3.7301 0.3131 3.5749 0
M  V30 37 H -0.2131 -2.4541 -0.1495 0
M  V30 38 H 4.8256 0.2198 1.3424 0
M  V30 39 H 3.2305 0.27 0.5558 0
M  V30 40 H 3.7883 1.6602 1.4774 0
M  V30 41 H -1.728 0.1982 -0.3009 0
M  V30 42 H -2.3664 -1.3571 0.1968 0
M  V30 43 H 0.9261 0.2398 -1.0457 0
M  V30 44 H 1.7662 -1.297 -0.965 0
M  V30 45 H -2.0444 -2.3102 -2.0302 0
M  V30 46 H -2.9946 -0.8537 -2.1556 0
M  V30 47 H 0.3559 -2.2691 -2.7029 0
M  V30 48 H 1.0717 -0.8026 -3.295 0
M  V30 49 H -2.1888 1.0134 -3.1688 0
M  V30 50 H -0.7776 1.2787 -2.1724 0
M  V30 51 H 0.7023 1.1627 -4.1481 0
M  V30 52 H -0.5515 3.3054 -3.4366 0
M  V30 53 H 0.2196 3.2763 -5.0166 0
M  V30 54 H -0.6049 -0.4511 -5.5754 0
M  V30 55 H -0.1234 1.0051 -6.421 0
M  V30 56 H -2.2238 4.2418 -4.9957 0
M  V30 57 H -2.905 0.264 -5.4248 0
M  V30 58 H -2.3764 0.6466 -7.0598 0
M  V30 59 H -3.5703 2.6628 -6.2348 0
M  V30 END ATOM
M  V30 BEGIN BOND
M  V30 1 2 1 2
M  V30 2 1 2 3
M  V30 3 1 2 4
M  V30 4 2 4 5
M  V30 5 1 4 6
M  V30 6 1 5 7
M  V30 7 1 5 8
M  V30 8 2 6 9
M  V30 9 2 8 10
M  V30 10 1 9 11
M  V30 11 1 10 12
M  V30 12 2 11 13
M  V30 13 1 11 14
M  V30 14 1 12 15
M  V30 15 1 14 16
M  V30 16 1 15 17
M  V30 17 1 16 18
M  V30 18 1 16 19
M  V30 19 1 18 20
M  V30 20 1 19 21
M  V30 21 1 20 22
M  V30 22 1 22 23
M  V30 23 1 23 24
M  V30 24 1 24 25
M  V30 25 1 24 26
M  V30 26 1 25 27
M  V30 27 1 26 28
M  V30 28 2 27 29
M  V30 29 1 9 10
M  V30 30 1 21 22
M  V30 31 1 28 29
M  V30 32 1 6 30
M  V30 33 1 7 31
M  V30 34 1 7 32
M  V30 35 1 8 33
M  V30 36 1 14 34
M  V30 37 1 15 35
M  V30 38 1 15 36
M  V30 39 1 16 37
M  V30 40 1 17 38
M  V30 41 1 17 39
M  V30 42 1 17 40
M  V30 43 1 18 41
M  V30 44 1 18 42
M  V30 45 1 19 43
M  V30 46 1 19 44
M  V30 47 1 20 45
M  V30 48 1 20 46
M  V30 49 1 21 47
M  V30 50 1 21 48
M  V30 51 1 23 49
M  V30 52 1 23 50
M  V30 53 1 24 51
M  V30 54 1 25 52
M  V30 55 1 25 53
M  V30 56 1 26 54
M  V30 57 1 26 55
M  V30 58 1 27 56
M  V30 59 1 28 57
M  V30 60 1 28 58
M  V30 61 1 29 59
M  V30 END BOND
M  V30 BEGIN COLLECTION
M  V30 MDLV30/STEABS ATOMS=(1 24)
M  V30 END COLLECTION
M  V30 END CTAB
M  END
>  <Column 1>
2484

>  <level_0>
3098

>  <index>
3098

>  <Unnamed: 0>
3098

>  <NO.>
3110

>  <Name>
unii-w133552kfe

>  <IUPAC_name>
4-amino-n-[1-[[(1s)-cyclohex-3-en-1-yl]methyl]piperidin-4-yl]-2-ethoxy-5-nitrobenzamide

>  <SMILES>
CCOc1cc(N)c([N+](=O)[O-])cc1C(=O)NC1CCN(C[C@@H]2CC=CCC2)CC1

>  <CID>
92209173

>  <logBB>


>  <BBB+/BBB->
BBB+

>  <Inchi>
InChI=1S/C21H30N4O4/c1-2-29-20-13-18(22)19(25(27)28)12-17(20)21(26)23-16-8-10-24(11-9-16)14-15-6-4-3-5-7-15/h3-4-12-13-15-16H-2-5-11-14-22H2-1H3-(H-23-26)/t15-/m1/s1

>  <threshold>
-1

>  <reference>
R13|R27|R30|

>  <group>
B

>  <Class>
-1

>  <ABC>
22.2

>  <ABCGG>
17.04

>  <nAcid>
0

>  <nBase>
1

>  <nAromAtom>
6

>  <nAromBond>
6

>  <nAtom>
59

>  <nHeavyAtom>
29

>  <nSpiro>
0

>  <nBridgehead>
0

>  <nHetero>
8

>  <nN>
4

>  <nO>
4

>  <nF>
0

>  <BalabanJ>
1.47

>  <BertzCT>
772.19

>  <nBonds>
61

>  <nBondsO>
31

>  <nBondsS>
52

>  <nBondsD>
3

>  <nBondsT>
0

>  <nBondsA>
6

>  <nBondsM>
9

>  <nBondsKS>
55

>  <nBondsKD>
6

>  <RNCG>
0.18

>  <RPCG>
0.11

>  <FCSP3>
0.57

>  <SZ>
36

>  <Sm>
33.51

>  <Sv>
35.02

>  <Sse>
59.29

>  <Sp>
37.53

>  <Si>
67.23

>  <MZ>
0.61

>  <Mm>
0.57

>  <Mv>
0.59

>  <Mse>
1

>  <Mp>
0.64

>  <Mi>
1.14

>  <NsCH3>
1

>  <NdCH2>
0

>  <NssCH2>
9

>  <NtCH>
0

>  <NdsCH>
2

>  <NaaCH>
2

>  <NsssCH>
2

>  <NddC>
0

>  <NtsC>
0

>  <NdssC>
1

>  <NaasC>
4

>  <NaaaC>
0

>  <NssssC>
0

>  <NsNH3>
0

>  <NsNH2>
1

>  <NssNH2>
0

>  <NdNH>
0

>  <NssNH>
1

>  <NaaNH>
0

>  <NtN>
0

>  <NsssNH>
0

>  <NdsN>
0

>  <NaaN>
0

>  <NsssN>
1

>  <NddsN>
1

>  <NaasN>
0

>  <NssssN>
0

>  <NsOH>
0

>  <NdO>
2

>  <NssO>
1

>  <NaaO>
0

>  <NsF>
0

>  <NsSiH3>
0

>  <NssSiH2>
0

>  <NsssSiH>
0

>  <NssssSi>
0

>  <NsPH2>
0

>  <NssPH>
0

>  <NsssP>
0

>  <NdsssP>
0

>  <NsssssP>
0

>  <NsSH>
0

>  <NdS>
0

>  <NssS>
0

>  <NaaS>
0

>  <NdssS>
0

>  <NddssS>
0

>  <NsCl>
0

>  <NsBr>
0

>  <NsI>
0

>  <fragCpx>
149.08

>  <fMF>
0.36

>  <nHBAcc>
6

>  <nHBDon>
2

>  <Kier1>
23.66

>  <Kier2>
11.57

>  <Lipinski>
1

>  <GhoseFilter>
1

>  <FilterItLogS>
-4.06

>  <VMcGowan>
311.77

>  <LabuteASA>
170.78

>  <PEOE_VSA1>
20.69

>  <PEOE_VSA2>
14.91

>  <PEOE_VSA3>
0

>  <PEOE_VSA4>
0

>  <PEOE_VSA5>
0

>  <PEOE_VSA6>
12.15

>  <PEOE_VSA7>
44.95

>  <PEOE_VSA8>
37.81

>  <PEOE_VSA9>
17.09

>  <PEOE_VSA10>
11.44

>  <PEOE_VSA11>
0

>  <PEOE_VSA12>
0

>  <PEOE_VSA13>
11.59

>  <SMR_VSA1>
14.45

>  <SMR_VSA2>
0

>  <SMR_VSA3>
10.22

>  <SMR_VSA4>
5.92

>  <SMR_VSA5>
45.07

>  <SMR_VSA6>
31.97

>  <SMR_VSA7>
39.96

>  <SMR_VSA8>
0

>  <SMR_VSA9>
5.75

>  <SlogP_VSA1>
15.79

>  <SlogP_VSA2>
48.01

>  <SlogP_VSA3>
0

>  <SlogP_VSA4>
16.03

>  <SlogP_VSA5>
49.39

>  <SlogP_VSA6>
24.28

>  <SlogP_VSA7>
0

>  <SlogP_VSA8>
0

>  <SlogP_VSA9>
0

>  <SlogP_VSA10>
11.37

>  <SlogP_VSA11>
5.75

>  <EState_VSA1>
4.92

>  <EState_VSA2>
34.64

>  <EState_VSA3>
6.61

>  <EState_VSA4>
44.81

>  <EState_VSA5>
24.97

>  <EState_VSA6>
6.92

>  <EState_VSA7>
0

>  <EState_VSA8>
22.37

>  <EState_VSA9>
10.47

>  <EState_VSA10>
14.91

>  <VSA_EState1>
5.49

>  <VSA_EState2>
25.91

>  <VSA_EState3>
14.22

>  <VSA_EState4>
5.6

>  <VSA_EState5>
0.65

>  <VSA_EState6>
2.62

>  <VSA_EState7>
9.87

>  <VSA_EState8>
5.14

>  <VSA_EState9>
0

>  <apol>
62.68

>  <bpol>
35.58

>  <nRing>
3

>  <nHRing>
1

>  <naRing>
1

>  <naHRing>
0

>  <nARing 2>
2

>  <nAHRing 2>
1

>  <nFRing>
0

>  <nFHRing>
0

>  <nFaRing>
0

>  <nFaHRing>
0

>  <nFARing 2>
0

>  <nFAHRing 2>
0

>  <nRot>
7

>  <SLogP>
3.13

>  <SMR>
112.09

>  <TopoPSA(NO)>
110.73

>  <TopoPSA>
110.73

>  <JGI1>
0.19

>  <JGI2>
0.07

>  <JGI3>
0.04

>  <JGI4>
0.04

>  <JGI5>
0.03

>  <Diameter>
15

>  <Radius>
8

>  <TMWC10>
135.68

>  <TSRW10>
64.19

>  <MW>
402.23

>  <AMW>
6.82

>  <WPath>
2534

>  <WPol>
44

>  <Zagreb1>
146

>  <Zagreb2>
168

>  <mZagreb2>
6.53

>  <yes>


>  <nAR-cont>
1

>  <nHA-cont>
0.785905698

>  <MWHBN>
0.398889641

>  <MWHBN-cont>
0.480431927

>  <TPSA-cont>
0.227035841

>  <pka_cont>
0.97

>  <yes.1>


>  <BBB_SCORE>
3.445625271

>  <MMFF94 Energy>
68.257

$$$$
Compound 2036
Actelion Java MolfileCreator 2.0

  0  0  0  0  0  0              0 V3000
M  V30 BEGIN CTAB
M  V30 COUNTS 54 56 0 0 0
M  V30 BEGIN ATOM
M  V30 1 O 1.1106 3.8117 0.5551 0
M  V30 2 C 1.2076 2.5172 0.1077 0
M  V30 3 C -0.1772 4.412 0.5729 0
M  V30 4 C 2.5079 1.9714 0.0696 0
M  V30 5 C 0.1193 1.7391 -0.2917 0
M  V30 6 O 3.518 2.8069 0.4798 0
M  V30 7 C 2.7034 0.6564 -0.3775 0
M  V30 8 C 0.321 0.4196 -0.7139 0
M  V30 9 C 4.8475 2.309 0.4544 0
M  V30 10 C 1.6148 -0.1372 -0.7674 0
M  V30 11 C -0.8528 -0.4417 -1.058 0
M  V30 12 C 1.7501 -1.5404 -1.3513 0 CFG=1
M  V30 13 N -0.9332 -1.2174 -2.1044 0
M  V30 14 C -2.0071 -0.4781 -0.1003 0
M  V30 15 C 1.2738 -1.3897 -2.802 0
M  V30 16 C 3.1213 -2.2151 -1.1777 0
M  V30 17 N 0.0306 -1.1646 -3.1112 0
M  V30 18 C -1.816 -0.3487 1.2817 0
M  V30 19 C -3.2956 -0.668 -0.607 0
M  V30 20 C 2.2826 -1.315 -3.923 0
M  V30 21 C 3.0671 -3.7155 -1.447 0
M  V30 22 C -2.9129 -0.374 2.1515 0
M  V30 23 C -4.3935 -0.7045 0.2557 0
M  V30 24 O -2.8206 -0.2411 3.5157 0
M  V30 25 C -4.213 -0.5559 1.6346 0
M  V30 26 C -1.5445 0.0474 4.0689 0
M  V30 27 O -5.2313 -0.5696 2.5555 0
M  V30 28 C -6.5465 -0.817 2.0794 0
M  V30 29 H -0.6035 4.4635 -0.4342 0
M  V30 30 H -0.0632 5.4373 0.9382 0
M  V30 31 H -0.8475 3.8868 1.2614 0
M  V30 32 H -0.8901 2.1358 -0.2838 0
M  V30 33 H 3.7052 0.2476 -0.4389 0
M  V30 34 H 4.9608 1.4498 1.1236 0
M  V30 35 H 5.5087 3.1018 0.8175 0
M  V30 36 H 5.1564 2.0607 -0.5662 0
M  V30 37 H 1.0377 -2.1852 -0.8181 0
M  V30 38 H 3.8807 -1.7574 -1.8212 0
M  V30 39 H 3.4674 -2.0854 -0.1443 0
M  V30 40 H -0.8086 -0.2458 1.668 0
M  V30 41 H -3.4519 -0.7863 -1.6779 0
M  V30 42 H 2.8335 -2.2532 -4.005 0
M  V30 43 H 1.7801 -1.1276 -4.8767 0
M  V30 44 H 2.9805 -0.4957 -3.7304 0
M  V30 45 H 4.0615 -4.1554 -1.3207 0
M  V30 46 H 2.3894 -4.2121 -0.7448 0
M  V30 47 H 2.7259 -3.9375 -2.4614 0
M  V30 48 H -5.375 -0.85 -0.1828 0
M  V30 49 H -0.8518 -0.786 3.914 0
M  V30 50 H -1.6697 0.1786 5.1481 0
M  V30 51 H -1.1384 0.9811 3.6656 0
M  V30 52 H -6.8786 -0.0197 1.4065 0
M  V30 53 H -7.219 -0.8234 2.9428 0
M  V30 54 H -6.6157 -1.7977 1.5974 0
M  V30 END ATOM
M  V30 BEGIN BOND
M  V30 1 1 1 2
M  V30 2 1 1 3
M  V30 3 2 2 4
M  V30 4 1 2 5
M  V30 5 1 4 6
M  V30 6 1 4 7
M  V30 7 2 5 8
M  V30 8 1 6 9
M  V30 9 2 7 10
M  V30 10 1 8 11
M  V30 11 1 10 12
M  V30 12 2 11 13
M  V30 13 1 11 14
M  V30 14 1 12 15
M  V30 15 1 12 16
M  V30 16 1 13 17
M  V30 17 2 14 18
M  V30 18 1 14 19
M  V30 19 1 15 20
M  V30 20 1 16 21
M  V30 21 1 18 22
M  V30 22 2 19 23
M  V30 23 1 22 24
M  V30 24 2 22 25
M  V30 25 1 24 26
M  V30 26 1 25 27
M  V30 27 1 27 28
M  V30 28 1 8 10
M  V30 29 2 15 17
M  V30 30 1 23 25
M  V30 31 1 3 29
M  V30 32 1 3 30
M  V30 33 1 3 31
M  V30 34 1 5 32
M  V30 35 1 7 33
M  V30 36 1 9 34
M  V30 37 1 9 35
M  V30 38 1 9 36
M  V30 39 1 12 37
M  V30 40 1 16 38
M  V30 41 1 16 39
M  V30 42 1 18 40
M  V30 43 1 19 41
M  V30 44 1 20 42
M  V30 45 1 20 43
M  V30 46 1 20 44
M  V30 47 1 21 45
M  V30 48 1 21 46
M  V30 49 1 21 47
M  V30 50 1 23 48
M  V30 51 1 26 49
M  V30 52 1 26 50
M  V30 53 1 26 51
M  V30 54 1 28 52
M  V30 55 1 28 53
M  V30 56 1 28 54
M  V30 END BOND
M  V30 BEGIN COLLECTION
M  V30 MDLV30/STEABS ATOMS=(1 12)
M  V30 END COLLECTION
M  V30 END CTAB
M  END
>  <Column 1>
2485

>  <level_0>
3103

>  <index>
3103

>  <Unnamed: 0>
3103

>  <NO.>
3115

>  <Name>
levotofisopam

>  <IUPAC_name>
(5s)-1-(3-4-dimethoxyphenyl)-5-ethyl-7-8-dimethoxy-4-methyl-5h-2-3-benzodiazepine

>  <SMILES>
CC[C@@H]1C(C)=NN=C(c2ccc(OC)c(OC)c2)c2cc(OC)c(OC)cc21

>  <CID>
7048810

>  <logBB>


>  <BBB+/BBB->
BBB+

>  <Inchi>
InChI=1S/C22H26N2O4/c1-7-15-13(2)23-24-22(14-8-9-18(25-3)19(10-14)26-4)17-12-21(28-6)20(27-5)11-16(15)17/h8-12-15H-7H2-1-6H3/t15-/m1/s1

>  <threshold>
-1

>  <reference>
R13|R24|

>  <group>
B

>  <Class>
-1

>  <ABC>
21.04

>  <ABCGG>
17.62

>  <nAcid>
0

>  <nBase>
0

>  <nAromAtom>
12

>  <nAromBond>
12

>  <nAtom>
54

>  <nHeavyAtom>
28

>  <nSpiro>
0

>  <nBridgehead>
0

>  <nHetero>
6

>  <nN>
2

>  <nO>
4

>  <nF>
0

>  <BalabanJ>
1.84

>  <BertzCT>
934.37

>  <nBonds>
56

>  <nBondsO>
30

>  <nBondsS>
42

>  <nBondsD>
2

>  <nBondsT>
0

>  <nBondsA>
12

>  <nBondsM>
14

>  <nBondsKS>
48

>  <nBondsKD>
8

>  <RNCG>
0.2

>  <RPCG>
0.06

>  <FCSP3>
0.36

>  <SZ>
34

>  <Sm>
31.84

>  <Sv>
33.42

>  <Sse>
54.19

>  <Sp>
35.62

>  <Si>
60.82

>  <MZ>
0.63

>  <Mm>
0.59

>  <Mv>
0.62

>  <Mse>
1

>  <Mp>
0.66

>  <Mi>
1.13

>  <NsCH3>
6

>  <NdCH2>
0

>  <NssCH2>
1

>  <NtCH>
0

>  <NdsCH>
0

>  <NaaCH>
5

>  <NsssCH>
1

>  <NddC>
0

>  <NtsC>
0

>  <NdssC>
2

>  <NaasC>
7

>  <NaaaC>
0

>  <NssssC>
0

>  <NsNH3>
0

>  <NsNH2>
0

>  <NssNH2>
0

>  <NdNH>
0

>  <NssNH>
0

>  <NaaNH>
0

>  <NtN>
0

>  <NsssNH>
0

>  <NdsN>
2

>  <NaaN>
0

>  <NsssN>
0

>  <NddsN>
0

>  <NaasN>
0

>  <NssssN>
0

>  <NsOH>
0

>  <NdO>
0

>  <NssO>
4

>  <NaaO>
0

>  <NsF>
0

>  <NsSiH3>
0

>  <NssSiH2>
0

>  <NsssSiH>
0

>  <NssssSi>
0

>  <NsPH2>
0

>  <NssPH>
0

>  <NsssP>
0

>  <NdsssP>
0

>  <NsssssP>
0

>  <NsSH>
0

>  <NdS>
0

>  <NssS>
0

>  <NaaS>
0

>  <NdssS>
0

>  <NddssS>
0

>  <NsCl>
0

>  <NsBr>
0

>  <NsI>
0

>  <fragCpx>
144.06

>  <fMF>
0.31

>  <nHBAcc>
6

>  <nHBDon>
0

>  <Kier1>
22.68

>  <Kier2>
10.35

>  <Lipinski>
1

>  <GhoseFilter>
1

>  <FilterItLogS>
-6.45

>  <VMcGowan>
297.3

>  <LabuteASA>
165.35

>  <PEOE_VSA1>
18.95

>  <PEOE_VSA2>
0

>  <PEOE_VSA3>
0

>  <PEOE_VSA4>
5.1

>  <PEOE_VSA5>
5.1

>  <PEOE_VSA6>
6.92

>  <PEOE_VSA7>
49.24

>  <PEOE_VSA8>
22.76

>  <PEOE_VSA9>
28.44

>  <PEOE_VSA10>
5.71

>  <PEOE_VSA11>
23

>  <PEOE_VSA12>
0

>  <PEOE_VSA13>
0

>  <SMR_VSA1>
18.95

>  <SMR_VSA2>
0

>  <SMR_VSA3>
0

>  <SMR_VSA4>
10.2

>  <SMR_VSA5>
26.19

>  <SMR_VSA6>
28.44

>  <SMR_VSA7>
47.02

>  <SMR_VSA8>
0

>  <SMR_VSA9>
23

>  <SlogP_VSA1>
18.95

>  <SlogP_VSA2>
39.86

>  <SlogP_VSA3>
0

>  <SlogP_VSA4>
0

>  <SlogP_VSA5>
42.88

>  <SlogP_VSA6>
40.53

>  <SlogP_VSA7>
0

>  <SlogP_VSA8>
0

>  <SlogP_VSA9>
0

>  <SlogP_VSA10>
0

>  <SlogP_VSA11>
23

>  <EState_VSA1>
0

>  <EState_VSA2>
5.92

>  <EState_VSA3>
23

>  <EState_VSA4>
34.53

>  <EState_VSA5>
0

>  <EState_VSA6>
28.44

>  <EState_VSA7>
37.26

>  <EState_VSA8>
17.13

>  <EState_VSA9>
18.95

>  <EState_VSA10>
0

>  <VSA_EState1>
21.91

>  <VSA_EState2>
0

>  <VSA_EState3>
9.1

>  <VSA_EState4>
4.7

>  <VSA_EState5>
2.81

>  <VSA_EState6>
9.74

>  <VSA_EState7>
0.91

>  <VSA_EState8>
4.15

>  <VSA_EState9>
6.51

>  <apol>
59.48

>  <bpol>
34.17

>  <nRing>
3

>  <nHRing>
1

>  <naRing>
2

>  <naHRing>
0

>  <nARing 2>
1

>  <nAHRing 2>
1

>  <nFRing>
1

>  <nFHRing>
1

>  <nFaRing>
0

>  <nFaHRing>
0

>  <nFARing 2>
1

>  <nFAHRing 2>
1

>  <nRot>
6

>  <SLogP>
4.44

>  <SMR>
110.87

>  <TopoPSA(NO)>
61.64

>  <TopoPSA>
61.64

>  <JGI1>
0.18

>  <JGI2>
0.1

>  <JGI3>
0.04

>  <JGI4>
0.04

>  <JGI5>
0.03

>  <Diameter>
12

>  <Radius>
6

>  <TMWC10>
135.1

>  <TSRW10>
71.52

>  <MW>
382.19

>  <AMW>
7.08

>  <WPath>
1871

>  <WPol>
54

>  <Zagreb1>
144

>  <Zagreb2>
174

>  <mZagreb2>
6.61

>  <yes>


>  <nAR-cont>
0.816016

>  <nHA-cont>
0.82432561

>  <MWHBN>
0.30691039

>  <MWHBN-cont>
0.819613038

>  <TPSA-cont>
0.569714524

>  <pka_cont>
0.97

>  <yes.1>


>  <BBB_SCORE>
4.494190215

>  <MMFF94 Energy>
154.11

$$$$
Compound 2037
Actelion Java MolfileCreator 2.0

  0  0  0  0  0  0              0 V3000
M  V30 BEGIN CTAB
M  V30 COUNTS 66 67 0 0 0
M  V30 BEGIN ATOM
M  V30 1 O 1.6583 -0.3157 -0.0789 0
M  V30 2 C 1.5209 -1.359 -0.7036 0
M  V30 3 O 0.5725 -1.5937 -1.6505 0
M  V30 4 C 2.4043 -2.5837 -0.5426 0 CFG=2
M  V30 5 C -0.3606 -0.527 -1.957 0 CFG=2
M  V30 6 C 2.925 -2.6637 0.901 0
M  V30 7 C 3.5238 -2.5179 -1.5764 0
M  V30 8 C -1.7601 -0.917 -1.4171 0 CFG=2
M  V30 9 C -0.3854 -0.3982 -3.4832 0
M  V30 10 C 3.6503 -3.9656 1.2075 0
M  V30 11 C -2.9071 -0.2017 -2.116 0
M  V30 12 C -1.8895 -0.7834 0.1342 0 CFG=2
M  V30 13 C -1.4107 0.6362 -3.9424 0 CFG=1
M  V30 14 C -4.2157 -0.3226 -1.5 0
M  V30 15 C -2.7259 0.5083 -3.2424 0
M  V30 16 C -3.2527 -1.4363 0.5368 0 CFG=2
M  V30 17 C -1.7539 0.6918 0.6233 0
M  V30 18 O -0.9496 1.9557 -3.6913 0
M  V30 19 C -4.3936 -0.9065 -0.3048 0
M  V30 20 C -3.5733 -1.3237 2.0279 0
M  V30 21 C -0.9032 0.8027 1.8979 0
M  V30 22 C -0.7794 2.2152 2.4807 0 CFG=2
M  V30 23 O -2.069 2.6386 2.9384 0
M  V30 24 C -0.2047 3.3118 1.5722 0
M  V30 25 C 1.2308 3.1361 1.0519 0 CFG=2
M  V30 26 O 1.2135 2.3117 -0.1113 0
M  V30 27 C 2.2209 2.6241 2.0947 0
M  V30 28 C 3.6315 2.949 1.6907 0
M  V30 29 O 4.067 4.0446 1.378 0
M  V30 30 O 4.4502 1.8806 1.7473 0
M  V30 31 H 1.7833 -3.4694 -0.7301 0
M  V30 32 H -0.0153 0.4246 -1.5471 0
M  V30 33 H 3.5954 -1.8207 1.111 0
M  V30 34 H 2.0807 -2.5656 1.5957 0
M  V30 35 H 4.1204 -3.4348 -1.5776 0
M  V30 36 H 4.1931 -1.6725 -1.3817 0
M  V30 37 H 3.1177 -2.3868 -2.5856 0
M  V30 38 H -1.8833 -1.989 -1.6429 0
M  V30 39 H 0.6187 -0.1333 -3.8373 0
M  V30 40 H -0.6166 -1.3767 -3.9257 0
M  V30 41 H 3.9246 -4.0017 2.2669 0
M  V30 42 H 3.0138 -4.83 0.9935 0
M  V30 43 H 4.5707 -4.0592 0.624 0
M  V30 44 H -1.0912 -1.3829 0.5908 0
M  V30 45 H -1.5621 0.5361 -5.0228 0
M  V30 46 H -5.077 0.0653 -2.039 0
M  V30 47 H -3.5563 1.0411 -3.6989 0
M  V30 48 H -3.182 -2.5119 0.3196 0
M  V30 49 H -2.743 1.1285 0.7976 0
M  V30 50 H -1.2966 1.3146 -0.1487 0
M  V30 51 H -0.0527 2.0399 -4.055 0
M  V30 52 H -5.4039 -1.0083 0.0846 0
M  V30 53 H -4.47 -1.9047 2.2738 0
M  V30 54 H -3.7638 -0.2911 2.3375 0
M  V30 55 H -2.7524 -1.7243 2.6314 0
M  V30 56 H 0.0942 0.3998 1.7105 0
M  V30 57 H -1.3476 0.1655 2.6704 0
M  V30 58 H -0.1621 2.1477 3.3835 0
M  V30 59 H -2.6128 2.8381 2.1563 0
M  V30 60 H -0.2392 4.2489 2.146 0
M  V30 61 H -0.8839 3.4733 0.7251 0
M  V30 62 H 1.5523 4.1219 0.6944 0
M  V30 63 H 1.4077 1.3792 0.125 0
M  V30 64 H 2.1301 1.5404 2.2237 0
M  V30 65 H 2.0592 3.0986 3.069 0
M  V30 66 H 5.3178 2.2365 1.4622 0
M  V30 END ATOM
M  V30 BEGIN BOND
M  V30 1 2 1 2
M  V30 2 1 2 3
M  V30 3 1 2 4
M  V30 4 1 3 5
M  V30 5 1 4 6
M  V30 6 1 4 7
M  V30 7 1 5 8
M  V30 8 1 5 9
M  V30 9 1 6 10
M  V30 10 1 8 11
M  V30 11 1 8 12
M  V30 12 1 9 13
M  V30 13 1 11 14
M  V30 14 2 11 15
M  V30 15 1 12 16
M  V30 16 1 12 17
M  V30 17 1 13 18
M  V30 18 2 14 19
M  V30 19 1 16 20
M  V30 20 1 17 21
M  V30 21 1 21 22
M  V30 22 1 22 23
M  V30 23 1 22 24
M  V30 24 1 24 25
M  V30 25 1 25 26
M  V30 26 1 25 27
M  V30 27 1 27 28
M  V30 28 2 28 29
M  V30 29 1 28 30
M  V30 30 1 13 15
M  V30 31 1 16 19
M  V30 32 1 4 31
M  V30 33 1 5 32
M  V30 34 1 6 33
M  V30 35 1 6 34
M  V30 36 1 7 35
M  V30 37 1 7 36
M  V30 38 1 7 37
M  V30 39 1 8 38
M  V30 40 1 9 39
M  V30 41 1 9 40
M  V30 42 1 10 41
M  V30 43 1 10 42
M  V30 44 1 10 43
M  V30 45 1 12 44
M  V30 46 1 13 45
M  V30 47 1 14 46
M  V30 48 1 15 47
M  V30 49 1 16 48
M  V30 50 1 17 49
M  V30 51 1 17 50
M  V30 52 1 18 51
M  V30 53 1 19 52
M  V30 54 1 20 53
M  V30 55 1 20 54
M  V30 56 1 20 55
M  V30 57 1 21 56
M  V30 58 1 21 57
M  V30 59 1 22 58
M  V30 60 1 23 59
M  V30 61 1 24 60
M  V30 62 1 24 61
M  V30 63 1 25 62
M  V30 64 1 26 63
M  V30 65 1 27 64
M  V30 66 1 27 65
M  V30 67 1 30 66
M  V30 END BOND
M  V30 BEGIN COLLECTION
M  V30 MDLV30/STEABS ATOMS=(8 4 5 8 12 13 16 22 25)
M  V30 END COLLECTION
M  V30 END CTAB
M  END
>  <Column 1>
2487

>  <level_0>
3119

>  <index>
3119

>  <Unnamed: 0>
3119

>  <NO.>
3131

>  <Name>


>  <IUPAC_name>


>  <SMILES>
CC[C@H](C)C(=O)O[C@H]1C[C@H](O)C=C2C=C[C@H](C)[C@H](CC[C@H](O)C[C@H](O)CC(=O)O)[C@@H]21

>  <CID>


>  <logBB>


>  <BBB+/BBB->
BBB-

>  <Inchi>
InChI=1S/C23H36O7/c1-4-13(2)23(29)30-20-11-17(25)9-15-6-5-14(3)19(22(15)20)8-7-16(24)10-18(26)12-21(27)28/h5-6-9-13-14-16-20-22-24-26H-4-7-8-10-12H2-1-3H3-(H-27-28)/t13--14--16--17+-18--19--20--22+/m0/s1

>  <threshold>
-1

>  <reference>
R13|

>  <group>
B

>  <Class>
1

>  <ABC>
22.59

>  <ABCGG>
18.85

>  <nAcid>
1

>  <nBase>
0

>  <nAromAtom>
0

>  <nAromBond>
0

>  <nAtom>
66

>  <nHeavyAtom>
30

>  <nSpiro>
0

>  <nBridgehead>
0

>  <nHetero>
7

>  <nN>
0

>  <nO>
7

>  <nF>
0

>  <BalabanJ>
2.03

>  <BertzCT>
655.94

>  <nBonds>
67

>  <nBondsO>
31

>  <nBondsS>
63

>  <nBondsD>
4

>  <nBondsT>
0

>  <nBondsA>
0

>  <nBondsM>
4

>  <nBondsKS>
63

>  <nBondsKD>
4

>  <RNCG>
0.15

>  <RPCG>
0.1

>  <FCSP3>
0.74

>  <SZ>
38.33

>  <Sm>
35.35

>  <Sv>
37.76

>  <Sse>
66.3

>  <Sp>
40.74

>  <Si>
74.94

>  <MZ>
0.58

>  <Mm>
0.54

>  <Mv>
0.57

>  <Mse>
1

>  <Mp>
0.62

>  <Mi>
1.14

>  <NsCH3>
3

>  <NdCH2>
0

>  <NssCH2>
6

>  <NtCH>
0

>  <NdsCH>
3

>  <NaaCH>
0

>  <NsssCH>
8

>  <NddC>
0

>  <NtsC>
0

>  <NdssC>
3

>  <NaasC>
0

>  <NaaaC>
0

>  <NssssC>
0

>  <NsNH3>
0

>  <NsNH2>
0

>  <NssNH2>
0

>  <NdNH>
0

>  <NssNH>
0

>  <NaaNH>
0

>  <NtN>
0

>  <NsssNH>
0

>  <NdsN>
0

>  <NaaN>
0

>  <NsssN>
0

>  <NddsN>
0

>  <NaasN>
0

>  <NssssN>
0

>  <NsOH>
4

>  <NdO>
2

>  <NssO>
1

>  <NaaO>
0

>  <NsF>
0

>  <NsSiH3>
0

>  <NssSiH2>
0

>  <NsssSiH>
0

>  <NssssSi>
0

>  <NsPH2>
0

>  <NssPH>
0

>  <NsssP>
0

>  <NdsssP>
0

>  <NsssssP>
0

>  <NsSH>
0

>  <NdS>
0

>  <NssS>
0

>  <NaaS>
0

>  <NdssS>
0

>  <NddssS>
0

>  <NsCl>
0

>  <NsBr>
0

>  <NsI>
0

>  <fragCpx>
91.07

>  <fMF>
0.15

>  <nHBAcc>
6

>  <nHBDon>
4

>  <Kier1>
26.25

>  <Kier2>
12.3

>  <Lipinski>
1

>  <GhoseFilter>
1

>  <FilterItLogS>
-1.36

>  <VMcGowan>
337.1

>  <LabuteASA>
177.99

>  <PEOE_VSA1>
25.16

>  <PEOE_VSA2>
9.59

>  <PEOE_VSA3>
0

>  <PEOE_VSA4>
0

>  <PEOE_VSA5>
0

>  <PEOE_VSA6>
39

>  <PEOE_VSA7>
43.09

>  <PEOE_VSA8>
12.34

>  <PEOE_VSA9>
30.65

>  <PEOE_VSA10>
6.1

>  <PEOE_VSA11>
0

>  <PEOE_VSA12>
0

>  <PEOE_VSA13>
0

>  <SMR_VSA1>
34.75

>  <SMR_VSA2>
0

>  <SMR_VSA3>
0

>  <SMR_VSA4>
23.67

>  <SMR_VSA5>
83.71

>  <SMR_VSA6>
0

>  <SMR_VSA7>
23.8

>  <SMR_VSA8>
0

>  <SMR_VSA9>
0

>  <SlogP_VSA1>
0

>  <SlogP_VSA2>
56.78

>  <SlogP_VSA3>
14.33

>  <SlogP_VSA4>
23.67

>  <SlogP_VSA5>
59.3

>  <SlogP_VSA6>
23.8

>  <SlogP_VSA7>
0

>  <SlogP_VSA8>
0

>  <SlogP_VSA9>
0

>  <SlogP_VSA10>
0

>  <SlogP_VSA11>
0

>  <EState_VSA1>
30.39

>  <EState_VSA2>
42.48

>  <EState_VSA3>
25.68

>  <EState_VSA4>
5.57

>  <EState_VSA5>
0

>  <EState_VSA6>
0

>  <EState_VSA7>
26

>  <EState_VSA8>
13

>  <EState_VSA9>
9.84

>  <EState_VSA10>
24.91

>  <VSA_EState1>
5.84

>  <VSA_EState2>
23.13

>  <VSA_EState3>
39.07

>  <VSA_EState4>
0.96

>  <VSA_EState5>
-1.31

>  <VSA_EState6>
0

>  <VSA_EState7>
4.64

>  <VSA_EState8>
5.85

>  <VSA_EState9>
0

>  <apol>
68.03

>  <bpol>
39.59

>  <nRing>
2

>  <nHRing>
0

>  <naRing>
0

>  <naHRing>
0

>  <nARing 2>
2

>  <nAHRing 2>
0

>  <nFRing>
1

>  <nFHRing>
0

>  <nFaRing>
0

>  <nFaHRing>
0

>  <nFARing 2>
1

>  <nFAHRing 2>
0

>  <nRot>
10

>  <SLogP>
2.44

>  <SMR>
111.44

>  <TopoPSA(NO)>
124.29

>  <TopoPSA>
124.29

>  <JGI1>
0.26

>  <JGI2>
0.08

>  <JGI3>
0.06

>  <JGI4>
0.04

>  <JGI5>
0.03

>  <Diameter>
15

>  <Radius>
8

>  <TMWC10>
137.08

>  <TSRW10>
65.3

>  <MW>
424.25

>  <AMW>
6.43

>  <WPath>
2600

>  <WPol>
46

>  <Zagreb1>
148

>  <Zagreb2>
169

>  <mZagreb2>
6.72

>  <yes>


>  <nAR-cont>
1

>  <nHA-cont>
0.74523694

>  <MWHBN>
0.485499821

>  <MWHBN-cont>
0

>  <TPSA-cont>
0

>  <pka_cont>
0.97

>  <yes.1>


>  <BBB_SCORE>
2.23023694

>  <MMFF94 Energy>
-5.324

$$$$
Compound 2038
Actelion Java MolfileCreator 2.0

  0  0  0  0  0  0              0 V3000
M  V30 BEGIN CTAB
M  V30 COUNTS 43 45 0 0 0
M  V30 BEGIN ATOM
M  V30 1 Cl 5.3657 -1.9195 -1.7594 0
M  V30 2 C 3.8366 -1.226 -1.3784 0
M  V30 3 C 2.9148 -0.9831 -2.3975 0
M  V30 4 C 3.5395 -0.8974 -0.0581 0
M  V30 5 C 1.6695 -0.4148 -2.1043 0
M  V30 6 C 2.3008 -0.3351 0.2482 0
M  V30 7 N 0.8004 -0.0749 -3.1405 0
M  V30 8 C 1.3598 -0.1072 -0.7673 0
M  V30 9 C 0.5409 1.3394 -3.3644 0
M  V30 10 C 0.0112 0.4123 -0.4539 0
M  V30 11 C -0.2514 2.1082 -2.3229 0
M  V30 12 C -0.4728 1.7127 -0.9881 0
M  V30 13 C -0.8738 -0.3632 0.2167 0
M  V30 14 C -0.743 3.3691 -2.7381 0
M  V30 15 C -1.1475 2.5936 -0.1148 0
M  V30 16 C -0.6828 -1.7686 0.7372 0
M  V30 17 C -1.4291 4.2148 -1.8669 0
M  V30 18 C -1.6272 3.8284 -0.5501 0
M  V30 19 C -0.4598 -1.8309 2.2619 0
M  V30 20 N -1.6561 -2.1804 3.055 0
M  V30 21 C -2.6894 -1.1474 2.9891 0
M  V30 22 C -1.2766 -2.4111 4.4519 0
M  V30 23 H 3.1752 -1.2184 -3.4252 0
M  V30 24 H 4.2622 -1.0776 0.7327 0
M  V30 25 H 2.0657 -0.0814 1.2785 0
M  V30 26 H 0.844 -0.6494 -3.973 0
M  V30 27 H -0.009 1.4043 -4.3121 0
M  V30 28 H 1.4955 1.8596 -3.5215 0
M  V30 29 H -1.8858 0.0106 0.3618 0
M  V30 30 H -0.5803 3.7048 -3.7614 0
M  V30 31 H -1.2971 2.3206 0.928 0
M  V30 32 H 0.1665 -2.2512 0.2403 0
M  V30 33 H -1.5511 -2.374 0.4474 0
M  V30 34 H -1.7952 5.177 -2.2151 0
M  V30 35 H -2.1476 4.4852 0.1415 0
M  V30 36 H 0.2842 -2.6221 2.4268 0
M  V30 37 H -0.0061 -0.9009 2.63 0
M  V30 38 H -3.1101 -1.0769 1.982 0
M  V30 39 H -2.3115 -0.1625 3.2861 0
M  V30 40 H -3.5315 -1.4007 3.6439 0
M  V30 41 H -0.8488 -1.5154 4.9171 0
M  V30 42 H -0.5438 -3.2225 4.5248 0
M  V30 43 H -2.1457 -2.7249 5.0412 0
M  V30 END ATOM
M  V30 BEGIN BOND
M  V30 1 1 1 2
M  V30 2 2 2 3
M  V30 3 1 2 4
M  V30 4 1 3 5
M  V30 5 2 4 6
M  V30 6 1 5 7
M  V30 7 2 5 8
M  V30 8 1 7 9
M  V30 9 1 8 10
M  V30 10 1 9 11
M  V30 11 1 10 12
M  V30 12 2 10 13
M  V30 13 1 11 14
M  V30 14 1 12 15
M  V30 15 1 13 16
M  V30 16 2 14 17
M  V30 17 2 15 18
M  V30 18 1 16 19
M  V30 19 1 19 20
M  V30 20 1 20 21
M  V30 21 1 20 22
M  V30 22 1 6 8
M  V30 23 2 11 12
M  V30 24 1 17 18
M  V30 25 1 3 23
M  V30 26 1 4 24
M  V30 27 1 6 25
M  V30 28 1 7 26
M  V30 29 1 9 27
M  V30 30 1 9 28
M  V30 31 1 13 29
M  V30 32 1 14 30
M  V30 33 1 15 31
M  V30 34 1 16 32
M  V30 35 1 16 33
M  V30 36 1 17 34
M  V30 37 1 18 35
M  V30 38 1 19 36
M  V30 39 1 19 37
M  V30 40 1 21 38
M  V30 41 1 21 39
M  V30 42 1 21 40
M  V30 43 1 22 41
M  V30 44 1 22 42
M  V30 45 1 22 43
M  V30 END BOND
M  V30 END CTAB
M  END
>  <Column 1>
2488

>  <level_0>
3142

>  <index>
3142

>  <Unnamed: 0>
3142

>  <NO.>
3154

>  <Name>
elanzepine

>  <IUPAC_name>
(3z)-3-(3-chloro-5-6-dihydrobenzo[c][1]benzazepin-11-ylidene)-n-n-dimethylpropan-1-amine

>  <SMILES>
CN(C)CC/C=C1/c2ccccc2CNc2cc(Cl)ccc21

>  <CID>
10358184

>  <logBB>


>  <BBB+/BBB->
BBB+

>  <Inchi>
InChI=1S/C19H21ClN2/c1-22(2)11-5-8-17-16-7-4-3-6-14(16)13-21-19-12-15(20)9-10-18(17)19/h3-4-6-10-12-21H-5-11-13H2-1-2H3/b17-8-

>  <threshold>
-1

>  <reference>
R13|R6|R27|R30|

>  <group>
B

>  <Class>
1

>  <ABC>
17.14

>  <ABCGG>
13.7

>  <nAcid>
0

>  <nBase>
1

>  <nAromAtom>
12

>  <nAromBond>
12

>  <nAtom>
43

>  <nHeavyAtom>
22

>  <nSpiro>
0

>  <nBridgehead>
0

>  <nHetero>
3

>  <nN>
2

>  <nO>
0

>  <nF>
0

>  <BalabanJ>
1.72

>  <BertzCT>
704.33

>  <nBonds>
45

>  <nBondsO>
24

>  <nBondsS>
32

>  <nBondsD>
1

>  <nBondsT>
0

>  <nBondsA>
12

>  <nBondsM>
13

>  <nBondsKS>
38

>  <nBondsKD>
7

>  <RNCG>
0.29

>  <RPCG>
0.12

>  <FCSP3>
0.26

>  <SZ>
27.67

>  <Sm>
26.05

>  <Sv>
27.3

>  <Sse>
42.41

>  <Sp>
30.01

>  <Si>
48.09

>  <MZ>
0.64

>  <Mm>
0.61

>  <Mv>
0.63

>  <Mse>
0.99

>  <Mp>
0.7

>  <Mi>
1.12

>  <NsCH3>
2

>  <NdCH2>
0

>  <NssCH2>
3

>  <NtCH>
0

>  <NdsCH>
1

>  <NaaCH>
7

>  <NsssCH>
0

>  <NddC>
0

>  <NtsC>
0

>  <NdssC>
1

>  <NaasC>
5

>  <NaaaC>
0

>  <NssssC>
0

>  <NsNH3>
0

>  <NsNH2>
0

>  <NssNH2>
0

>  <NdNH>
0

>  <NssNH>
1

>  <NaaNH>
0

>  <NtN>
0

>  <NsssNH>
0

>  <NdsN>
0

>  <NaaN>
0

>  <NsssN>
1

>  <NddsN>
0

>  <NaasN>
0

>  <NssssN>
0

>  <NsOH>
0

>  <NdO>
0

>  <NssO>
0

>  <NaaO>
0

>  <NsF>
0

>  <NsSiH3>
0

>  <NssSiH2>
0

>  <NsssSiH>
0

>  <NssssSi>
0

>  <NsPH2>
0

>  <NssPH>
0

>  <NsssP>
0

>  <NdsssP>
0

>  <NsssssP>
0

>  <NsSH>
0

>  <NdS>
0

>  <NssS>
0

>  <NaaS>
0

>  <NdssS>
0

>  <NddssS>
0

>  <NsCl>
1

>  <NsBr>
0

>  <NsI>
0

>  <fragCpx>
114.03

>  <fMF>
0.35

>  <nHBAcc>
2

>  <nHBDon>
1

>  <Kier1>
16.84

>  <Kier2>
7.71

>  <Lipinski>
1

>  <GhoseFilter>
1

>  <FilterItLogS>
-6.01

>  <VMcGowan>
248.09

>  <LabuteASA>
136.96

>  <PEOE_VSA1>
10.22

>  <PEOE_VSA2>
0

>  <PEOE_VSA3>
0

>  <PEOE_VSA4>
0

>  <PEOE_VSA5>
0

>  <PEOE_VSA6>
48.01

>  <PEOE_VSA7>
49.35

>  <PEOE_VSA8>
29.36

>  <PEOE_VSA9>
0

>  <PEOE_VSA10>
0

>  <PEOE_VSA11>
0

>  <PEOE_VSA12>
0

>  <PEOE_VSA13>
0

>  <SMR_VSA1>
0

>  <SMR_VSA2>
0

>  <SMR_VSA3>
4.9

>  <SMR_VSA4>
0

>  <SMR_VSA5>
12.97

>  <SMR_VSA6>
25.96

>  <SMR_VSA7>
70.25

>  <SMR_VSA8>
0

>  <SMR_VSA9>
0

>  <SlogP_VSA1>
5.32

>  <SlogP_VSA2>
25.54

>  <SlogP_VSA3>
6.54

>  <SlogP_VSA4>
0

>  <SlogP_VSA5>
23.11

>  <SlogP_VSA6>
48.54

>  <SlogP_VSA7>
5.02

>  <SlogP_VSA8>
5.57

>  <SlogP_VSA9>
0

>  <SlogP_VSA10>
5.69

>  <SlogP_VSA11>
0

>  <EState_VSA1>
0

>  <EState_VSA2>
0

>  <EState_VSA3>
0

>  <EState_VSA4>
30.22

>  <EState_VSA5>
22.26

>  <EState_VSA6>
0

>  <EState_VSA7>
12.13

>  <EState_VSA8>
60.72

>  <EState_VSA9>
11.6

>  <EState_VSA10>
0

>  <VSA_EState1>
0

>  <VSA_EState2>
2.21

>  <VSA_EState3>
4.28

>  <VSA_EState4>
6.28

>  <VSA_EState5>
0

>  <VSA_EState6>
14.71

>  <VSA_EState7>
3.37

>  <VSA_EState8>
1.87

>  <VSA_EState9>
4.21

>  <apol>
50.11

>  <bpol>
23.86

>  <nRing>
3

>  <nHRing>
1

>  <naRing>
2

>  <naHRing>
0

>  <nARing 2>
1

>  <nAHRing 2>
1

>  <nFRing>
1

>  <nFHRing>
1

>  <nFaRing>
0

>  <nFaHRing>
0

>  <nFARing 2>
1

>  <nFAHRing 2>
1

>  <nRot>
3

>  <SLogP>
4.65

>  <SMR>
95.47

>  <TopoPSA(NO)>
15.27

>  <TopoPSA>
15.27

>  <JGI1>
0.17

>  <JGI2>
0.07

>  <JGI3>
0.04

>  <JGI4>
0.04

>  <JGI5>
0.02

>  <Diameter>
10

>  <Radius>
5

>  <TMWC10>
120.16

>  <TSRW10>
64.12

>  <MW>
312.14

>  <AMW>
7.26

>  <WPath>
1003

>  <WPol>
37

>  <Zagreb1>
114

>  <Zagreb2>
133

>  <mZagreb2>
4.86

>  <yes>


>  <nAR-cont>
0.816016

>  <nHA-cont>
0.983774276

>  <MWHBN>
0.169803462

>  <MWHBN-cont>
0.973656924

>  <TPSA-cont>
0.893405918

>  <pka_cont>
0.97

>  <yes.1>


>  <BBB_SCORE>
5.532087497

>  <MMFF94 Energy>
90.623

$$$$
Compound 2039
Actelion Java MolfileCreator 2.0

  0  0  0  0  0  0              0 V3000
M  V30 BEGIN CTAB
M  V30 COUNTS 32 32 0 0 0
M  V30 BEGIN ATOM
M  V30 1 Cl -2.6193 1.1106 5.8811 0
M  V30 2 C -1.5191 1.0531 4.5602 0
M  V30 3 C -1.8825 0.4001 3.3839 0
M  V30 4 C -0.271 1.6586 4.6703 0
M  V30 5 C -0.9909 0.3504 2.3064 0
M  V30 6 C 0.6166 1.6075 3.5935 0
M  V30 7 C 0.2639 0.9546 2.4084 0
M  V30 8 O 1.2262 0.9802 1.4381 0
M  V30 9 C 0.9234 0.3269 0.2118 0
M  V30 10 C 2.0865 0.4582 -0.7685 0
M  V30 11 O 2.9793 1.3001 -0.6429 0
M  V30 12 C 2.1226 -0.5157 -1.9298 0
M  V30 13 C 0.9411 -0.3261 -2.8791 0
M  V30 14 N -0.3267 -0.8719 -2.3556 0
M  V30 15 C -0.3561 -2.338 -2.4231 0
M  V30 16 C -1.4554 -0.3338 -3.1263 0
M  V30 17 H -2.8577 -0.0715 3.2973 0
M  V30 18 H 0.0184 2.1704 5.5837 0
M  V30 19 H -1.3094 -0.1649 1.4061 0
M  V30 20 H 1.5925 2.0812 3.6758 0
M  V30 21 H 0.0494 0.7958 -0.2516 0
M  V30 22 H 0.7604 -0.7407 0.3963 0
M  V30 23 H 2.2076 -1.533 -1.5374 0
M  V30 24 H 3.0488 -0.3232 -2.4858 0
M  V30 25 H 0.828 0.7518 -3.056 0
M  V30 26 H 1.1753 -0.78 -3.8508 0
M  V30 27 H 0.4219 -2.7814 -1.7948 0
M  V30 28 H -0.2282 -2.708 -3.4467 0
M  V30 29 H -1.3093 -2.7183 -2.0379 0
M  V30 30 H -1.3936 -0.5968 -4.1885 0
M  V30 31 H -1.4931 0.7578 -3.0405 0
M  V30 32 H -2.4057 -0.7089 -2.7302 0
M  V30 END ATOM
M  V30 BEGIN BOND
M  V30 1 1 1 2
M  V30 2 2 2 3
M  V30 3 1 2 4
M  V30 4 1 3 5
M  V30 5 2 4 6
M  V30 6 2 5 7
M  V30 7 1 7 8
M  V30 8 1 8 9
M  V30 9 1 9 10
M  V30 10 2 10 11
M  V30 11 1 10 12
M  V30 12 1 12 13
M  V30 13 1 13 14
M  V30 14 1 14 15
M  V30 15 1 14 16
M  V30 16 1 6 7
M  V30 17 1 3 17
M  V30 18 1 4 18
M  V30 19 1 5 19
M  V30 20 1 6 20
M  V30 21 1 9 21
M  V30 22 1 9 22
M  V30 23 1 12 23
M  V30 24 1 12 24
M  V30 25 1 13 25
M  V30 26 1 13 26
M  V30 27 1 15 27
M  V30 28 1 15 28
M  V30 29 1 15 29
M  V30 30 1 16 30
M  V30 31 1 16 31
M  V30 32 1 16 32
M  V30 END BOND
M  V30 END CTAB
M  END
>  <Column 1>
2489

>  <level_0>
3143

>  <index>
3143

>  <Unnamed: 0>
3143

>  <NO.>
3155

>  <Name>
meclofenoxate

>  <IUPAC_name>


>  <SMILES>
CN(C)CCC(=O)COc1ccc(Cl)cc1

>  <CID>


>  <logBB>


>  <BBB+/BBB->
BBB+

>  <Inchi>
InChI=1S/C12H16ClNO2/c1-14(2)8-7-11(15)9-16-12-5-3-10(13)4-6-12/h3-6H-7-9H2-1-2H3

>  <threshold>
-1

>  <reference>
R13|R19|R24|R27|R27|R30|

>  <group>
B

>  <Class>
1

>  <ABC>
11.75

>  <ABCGG>
10.16

>  <nAcid>
0

>  <nBase>
1

>  <nAromAtom>
6

>  <nAromBond>
6

>  <nAtom>
32

>  <nHeavyAtom>
16

>  <nSpiro>
0

>  <nBridgehead>
0

>  <nHetero>
4

>  <nN>
1

>  <nO>
2

>  <nF>
0

>  <BalabanJ>
2.05

>  <BertzCT>
335.38

>  <nBonds>
32

>  <nBondsO>
16

>  <nBondsS>
25

>  <nBondsD>
1

>  <nBondsT>
0

>  <nBondsA>
6

>  <nBondsM>
7

>  <nBondsKS>
28

>  <nBondsKD>
4

>  <RNCG>
0.37

>  <RPCG>
0.13

>  <FCSP3>
0.42

>  <SZ>
21.33

>  <Sm>
20.12

>  <Sv>
19.61

>  <Sse>
32.19

>  <Sp>
21.31

>  <Si>
36.18

>  <MZ>
0.67

>  <Mm>
0.63

>  <Mv>
0.61

>  <Mse>
1.01

>  <Mp>
0.67

>  <Mi>
1.13

>  <NsCH3>
2

>  <NdCH2>
0

>  <NssCH2>
3

>  <NtCH>
0

>  <NdsCH>
0

>  <NaaCH>
4

>  <NsssCH>
0

>  <NddC>
0

>  <NtsC>
0

>  <NdssC>
1

>  <NaasC>
2

>  <NaaaC>
0

>  <NssssC>
0

>  <NsNH3>
0

>  <NsNH2>
0

>  <NssNH2>
0

>  <NdNH>
0

>  <NssNH>
0

>  <NaaNH>
0

>  <NtN>
0

>  <NsssNH>
0

>  <NdsN>
0

>  <NaaN>
0

>  <NsssN>
1

>  <NddsN>
0

>  <NaasN>
0

>  <NssssN>
0

>  <NsOH>
0

>  <NdO>
1

>  <NssO>
1

>  <NaaO>
0

>  <NsF>
0

>  <NsSiH3>
0

>  <NssSiH2>
0

>  <NsssSiH>
0

>  <NssssSi>
0

>  <NsPH2>
0

>  <NssPH>
0

>  <NsssP>
0

>  <NdsssP>
0

>  <NsssssP>
0

>  <NsSH>
0

>  <NdS>
0

>  <NssS>
0

>  <NaaS>
0

>  <NdssS>
0

>  <NddssS>
0

>  <NsCl>
1

>  <NsBr>
0

>  <NsI>
0

>  <fragCpx>
16.04

>  <fMF>
0.19

>  <nHBAcc>
3

>  <nHBDon>
0

>  <Kier1>
14.06

>  <Kier2>
7.35

>  <Lipinski>
1

>  <GhoseFilter>
1

>  <FilterItLogS>
-3.43

>  <VMcGowan>
185.84

>  <LabuteASA>
100.96

>  <PEOE_VSA1>
9.64

>  <PEOE_VSA2>
4.79

>  <PEOE_VSA3>
0

>  <PEOE_VSA4>
0

>  <PEOE_VSA5>
0

>  <PEOE_VSA6>
11.6

>  <PEOE_VSA7>
38.36

>  <PEOE_VSA8>
17.99

>  <PEOE_VSA9>
0

>  <PEOE_VSA10>
12.36

>  <PEOE_VSA11>
5.78

>  <PEOE_VSA12>
0

>  <PEOE_VSA13>
0

>  <SMR_VSA1>
9.53

>  <SMR_VSA2>
0

>  <SMR_VSA3>
4.9

>  <SMR_VSA4>
0

>  <SMR_VSA5>
6.42

>  <SMR_VSA6>
27.25

>  <SMR_VSA7>
29.29

>  <SMR_VSA8>
0

>  <SMR_VSA9>
5.75

>  <SlogP_VSA1>
4.74

>  <SlogP_VSA2>
37.93

>  <SlogP_VSA3>
4.79

>  <SlogP_VSA4>
0

>  <SlogP_VSA5>
6.42

>  <SlogP_VSA6>
24.27

>  <SlogP_VSA7>
5.02

>  <SlogP_VSA8>
0

>  <SlogP_VSA9>
0

>  <SlogP_VSA10>
0

>  <SlogP_VSA11>
5.75

>  <EState_VSA1>
0

>  <EState_VSA2>
12.39

>  <EState_VSA3>
17.19

>  <EState_VSA4>
6.54

>  <EState_VSA5>
0

>  <EState_VSA6>
24.27

>  <EState_VSA7>
19

>  <EState_VSA8>
0

>  <EState_VSA9>
16.34

>  <EState_VSA10>
4.79

>  <VSA_EState1>
5.33

>  <VSA_EState2>
13.38

>  <VSA_EState3>
0.66

>  <VSA_EState4>
0

>  <VSA_EState5>
0.77

>  <VSA_EState6>
6.98

>  <VSA_EState7>
0.51

>  <VSA_EState8>
0.87

>  <VSA_EState9>
3.88

>  <apol>
35.59

>  <bpol>
20.88

>  <nRing>
1

>  <nHRing>
0

>  <naRing>
1

>  <naHRing>
0

>  <nARing 2>
0

>  <nAHRing 2>
0

>  <nFRing>
0

>  <nFHRing>
0

>  <nFaRing>
0

>  <nFaHRing>
0

>  <nFARing 2>
0

>  <nFAHRing 2>
0

>  <nRot>
6

>  <SLogP>
2.24

>  <SMR>
65.13

>  <TopoPSA(NO)>
29.54

>  <TopoPSA>
29.54

>  <JGI1>
0.25

>  <JGI2>
0.08

>  <JGI3>
0.02

>  <JGI4>
0.06

>  <JGI5>
0.02

>  <Diameter>
11

>  <Radius>
6

>  <TMWC10>
98.51

>  <TSRW10>
46.98

>  <MW>
241.09

>  <AMW>
7.53

>  <WPath>
536

>  <WPol>
17

>  <Zagreb1>
72

>  <Zagreb2>
76

>  <mZagreb2>
3.67

>  <yes>


>  <nAR-cont>
0.336376

>  <nHA-cont>
0.954961865

>  <MWHBN>
0.193210915

>  <MWHBN-cont>
0.997397674

>  <TPSA-cont>
0.793792457

>  <pka_cont>
0.97

>  <yes.1>


>  <BBB_SCORE>
4.860019289

>  <MMFF94 Energy>
39.991

$$$$
Compound 2040
Actelion Java MolfileCreator 2.0

  0  0  0  0  0  0              0 V3000
M  V30 BEGIN CTAB
M  V30 COUNTS 42 44 0 0 0
M  V30 BEGIN ATOM
M  V30 1 O 1.4271 -1.5064 -0.4755 0
M  V30 2 C 0.6963 -0.2823 -0.741 0 CFG=2
M  V30 3 C 1.2086 -2.0627 0.8282 0
M  V30 4 C 0.772 0.6345 0.4558 0
M  V30 5 C -0.781 -0.596 -1.087 0
M  V30 6 C 1.4166 0.3603 -1.9354 0
M  V30 7 C 1.7293 -1.1295 1.926 0
M  V30 8 C 1.2523 0.245 1.6498 0
M  V30 9 C 0.3171 2.0749 0.4638 0
M  V30 10 C -0.9507 -1.6639 -2.1804 0
M  V30 11 C 1.1771 1.367 2.5674 0
M  V30 12 C 0.6228 2.4604 1.8834 0
M  V30 13 N -2.3659 -2.0268 -2.4044 0
M  V30 14 C 1.5462 1.4736 3.8964 0
M  V30 15 C 0.4259 3.6787 2.5118 0
M  V30 16 C -2.4432 -3.239 -3.2258 0
M  V30 17 C -3.1162 -0.9485 -3.0517 0
M  V30 18 C 1.352 2.6994 4.5405 0
M  V30 19 C 0.7962 3.7924 3.8537 0
M  V30 20 H 1.7459 -3.0157 0.8743 0
M  V30 21 H 0.1447 -2.2885 0.9639 0
M  V30 22 H -1.303 -0.9475 -0.1868 0
M  V30 23 H -1.2782 0.3337 -1.3889 0
M  V30 24 H 2.4329 0.6675 -1.6587 0
M  V30 25 H 1.5362 -0.3505 -2.7603 0
M  V30 26 H 0.8848 1.2406 -2.3121 0
M  V30 27 H 2.8255 -1.1288 1.9244 0
M  V30 28 H 1.3897 -1.4896 2.9027 0
M  V30 29 H -0.7541 2.1579 0.2601 0
M  V30 30 H 0.8969 2.6843 -0.2349 0
M  V30 31 H -0.4937 -1.3328 -3.1205 0
M  V30 32 H -0.4098 -2.5625 -1.8594 0
M  V30 33 H 1.9766 0.6336 4.4303 0
M  V30 34 H -0.0023 4.5226 1.9814 0
M  V30 35 H -1.9409 -4.0757 -2.7275 0
M  V30 36 H -1.9874 -3.0991 -4.2127 0
M  V30 37 H -3.4865 -3.5437 -3.3665 0
M  V30 38 H -2.6724 -0.6525 -4.0091 0
M  V30 39 H -3.1791 -0.0651 -2.4091 0
M  V30 40 H -4.1514 -1.2584 -3.2366 0
M  V30 41 H 1.6343 2.8094 5.5849 0
M  V30 42 H 0.6542 4.7367 4.3744 0
M  V30 END ATOM
M  V30 BEGIN BOND
M  V30 1 1 1 2
M  V30 2 1 1 3
M  V30 3 1 2 4
M  V30 4 1 2 5
M  V30 5 1 2 6
M  V30 6 1 3 7
M  V30 7 2 4 8
M  V30 8 1 4 9
M  V30 9 1 5 10
M  V30 10 1 8 11
M  V30 11 1 9 12
M  V30 12 1 10 13
M  V30 13 1 11 14
M  V30 14 1 12 15
M  V30 15 1 13 16
M  V30 16 1 13 17
M  V30 17 2 14 18
M  V30 18 2 15 19
M  V30 19 1 7 8
M  V30 20 2 11 12
M  V30 21 1 18 19
M  V30 22 1 3 20
M  V30 23 1 3 21
M  V30 24 1 5 22
M  V30 25 1 5 23
M  V30 26 1 6 24
M  V30 27 1 6 25
M  V30 28 1 6 26
M  V30 29 1 7 27
M  V30 30 1 7 28
M  V30 31 1 9 29
M  V30 32 1 9 30
M  V30 33 1 10 31
M  V30 34 1 10 32
M  V30 35 1 14 33
M  V30 36 1 15 34
M  V30 37 1 16 35
M  V30 38 1 16 36
M  V30 39 1 16 37
M  V30 40 1 17 38
M  V30 41 1 17 39
M  V30 42 1 17 40
M  V30 43 1 18 41
M  V30 44 1 19 42
M  V30 END BOND
M  V30 BEGIN COLLECTION
M  V30 MDLV30/STERAC1 ATOMS=(1 2)
M  V30 END COLLECTION
M  V30 END CTAB
M  END
>  <Column 1>
2490

>  <level_0>
3144

>  <index>
3144

>  <Unnamed: 0>
3144

>  <NO.>
3156

>  <Name>
pirandamine

>  <IUPAC_name>
n-n-dimethyl-2-(1-methyl-4-9-dihydro-3h-indeno[2-1-c]pyran-1-yl)ethanamine

>  <SMILES>
CN(C)CCC1(C)OCCC2=C1Cc1ccccc12

>  <CID>
431429

>  <logBB>


>  <BBB+/BBB->
BBB+

>  <Inchi>
InChI=1S/C17H23NO/c1-17(9-10-18(2)3)16-12-13-6-4-5-7-14(13)15(16)8-11-19-17/h4-7H-8-12H2-1-3H3

>  <threshold>
-1

>  <reference>
R13|R19|R6|R27|

>  <group>
B

>  <Class>
1

>  <ABC>
15.04

>  <ABCGG>
12.59

>  <nAcid>
0

>  <nBase>
1

>  <nAromAtom>
6

>  <nAromBond>
6

>  <nAtom>
42

>  <nHeavyAtom>
19

>  <nSpiro>
0

>  <nBridgehead>
0

>  <nHetero>
2

>  <nN>
1

>  <nO>
1

>  <nF>
0

>  <BalabanJ>
1.73

>  <BertzCT>
517.75

>  <nBonds>
44

>  <nBondsO>
21

>  <nBondsS>
37

>  <nBondsD>
1

>  <nBondsT>
0

>  <nBondsA>
6

>  <nBondsM>
7

>  <nBondsKS>
40

>  <nBondsKD>
4

>  <RNCG>
0.33

>  <RPCG>
0.08

>  <FCSP3>
0.53

>  <SZ>
23.33

>  <Sm>
21.43

>  <Sv>
24.7

>  <Sse>
41.2

>  <Sp>
27.32

>  <Si>
47.28

>  <MZ>
0.56

>  <Mm>
0.51

>  <Mv>
0.59

>  <Mse>
0.98

>  <Mp>
0.65

>  <Mi>
1.13

>  <NsCH3>
3

>  <NdCH2>
0

>  <NssCH2>
5

>  <NtCH>
0

>  <NdsCH>
0

>  <NaaCH>
4

>  <NsssCH>
0

>  <NddC>
0

>  <NtsC>
0

>  <NdssC>
2

>  <NaasC>
2

>  <NaaaC>
0

>  <NssssC>
1

>  <NsNH3>
0

>  <NsNH2>
0

>  <NssNH2>
0

>  <NdNH>
0

>  <NssNH>
0

>  <NaaNH>
0

>  <NtN>
0

>  <NsssNH>
0

>  <NdsN>
0

>  <NaaN>
0

>  <NsssN>
1

>  <NddsN>
0

>  <NaasN>
0

>  <NssssN>
0

>  <NsOH>
0

>  <NdO>
0

>  <NssO>
1

>  <NaaO>
0

>  <NsF>
0

>  <NsSiH3>
0

>  <NssSiH2>
0

>  <NsssSiH>
0

>  <NssssSi>
0

>  <NsPH2>
0

>  <NssPH>
0

>  <NsssP>
0

>  <NdsssP>
0

>  <NsssssP>
0

>  <NsSH>
0

>  <NdS>
0

>  <NssS>
0

>  <NaaS>
0

>  <NdssS>
0

>  <NddssS>
0

>  <NsCl>
0

>  <NsBr>
0

>  <NsI>
0

>  <fragCpx>
99.02

>  <fMF>
0.31

>  <nHBAcc>
2

>  <nHBDon>
0

>  <Kier1>
13.96

>  <Kier2>
5.41

>  <Lipinski>
1

>  <GhoseFilter>
1

>  <FilterItLogS>
-4.46

>  <VMcGowan>
216.46

>  <LabuteASA>
115.62

>  <PEOE_VSA1>
9.64

>  <PEOE_VSA2>
0

>  <PEOE_VSA3>
0

>  <PEOE_VSA4>
0

>  <PEOE_VSA5>
0

>  <PEOE_VSA6>
24.27

>  <PEOE_VSA7>
62.55

>  <PEOE_VSA8>
6.54

>  <PEOE_VSA9>
12.21

>  <PEOE_VSA10>
0

>  <PEOE_VSA11>
0

>  <PEOE_VSA12>
0

>  <PEOE_VSA13>
0

>  <SMR_VSA1>
4.74

>  <SMR_VSA2>
0

>  <SMR_VSA3>
4.9

>  <SMR_VSA4>
0

>  <SMR_VSA5>
31.79

>  <SMR_VSA6>
27.25

>  <SMR_VSA7>
40.97

>  <SMR_VSA8>
0

>  <SMR_VSA9>
0

>  <SlogP_VSA1>
0

>  <SlogP_VSA2>
37.75

>  <SlogP_VSA3>
11.16

>  <SlogP_VSA4>
0

>  <SlogP_VSA5>
30.89

>  <SlogP_VSA6>
29.84

>  <SlogP_VSA7>
0

>  <SlogP_VSA8>
5.57

>  <SlogP_VSA9>
0

>  <SlogP_VSA10>
0

>  <SlogP_VSA11>
0

>  <EState_VSA1>
0

>  <EState_VSA2>
5.6

>  <EState_VSA3>
0

>  <EState_VSA4>
32.41

>  <EState_VSA5>
16.7

>  <EState_VSA6>
5.57

>  <EState_VSA7>
0

>  <EState_VSA8>
50.18

>  <EState_VSA9>
4.74

>  <EState_VSA10>
0

>  <VSA_EState1>
6.18

>  <VSA_EState2>
2.24

>  <VSA_EState3>
0

>  <VSA_EState4>
5.97

>  <VSA_EState5>
0

>  <VSA_EState6>
8.84

>  <VSA_EState7>
3.23

>  <VSA_EState8>
4.21

>  <VSA_EState9>
4.26

>  <apol>
45.63

>  <bpol>
26.52

>  <nRing>
3

>  <nHRing>
1

>  <naRing>
1

>  <naHRing>
0

>  <nARing 2>
2

>  <nAHRing 2>
1

>  <nFRing>
1

>  <nFHRing>
1

>  <nFaRing>
0

>  <nFaHRing>
0

>  <nFARing 2>
1

>  <nFAHRing 2>
1

>  <nRot>
3

>  <SLogP>
3.13

>  <SMR>
79.21

>  <TopoPSA(NO)>
12.47

>  <TopoPSA>
12.47

>  <JGI1>
0.21

>  <JGI2>
0.09

>  <JGI3>
0.05

>  <JGI4>
0.05

>  <JGI5>
0.02

>  <Diameter>
9

>  <Radius>
5

>  <TMWC10>
114.61

>  <TSRW10>
67.31

>  <MW>
257.18

>  <AMW>
6.12

>  <WPath>
661

>  <WPol>
31

>  <Zagreb1>
104

>  <Zagreb2>
125

>  <mZagreb2>
4.08

>  <yes>


>  <nAR-cont>
1

>  <nHA-cont>
0.998649058

>  <MWHBN>
0.124712906

>  <MWHBN-cont>
0.849033048

>  <TPSA-cont>
0.912951657

>  <pka_cont>
0.97

>  <yes.1>


>  <BBB_SCORE>
5.583101943

>  <MMFF94 Energy>
54.651

$$$$
Compound 2041
Actelion Java MolfileCreator 2.0

  0  0  0  0  0  0              0 V3000
M  V30 BEGIN CTAB
M  V30 COUNTS 45 47 0 0 0
M  V30 BEGIN ATOM
M  V30 1 N -0.2369 0.7109 -0.5529 0
M  V30 2 C -0.9863 0.8005 -1.7263 0
M  V30 3 C 1.2062 0.8454 -0.7684 0
M  V30 4 C -0.8142 1.2015 0.6973 0
M  V30 5 C -0.9437 -0.2691 -2.6356 0
M  V30 6 C -1.7406 1.9348 -2.0552 0
M  V30 7 C 1.9153 -0.345 -1.3966 0
M  V30 8 C -0.4907 0.2458 1.8516 0
M  V30 9 C -1.633 -0.185 -3.8554 0
M  V30 10 C -0.2102 -1.5291 -2.2453 0
M  V30 11 C -2.4297 2.012 -3.2677 0
M  V30 12 C 1.2913 -1.3933 -2.106 0
M  V30 13 C 3.3258 -0.3436 -1.3037 0
M  V30 14 C -1.1117 0.7519 3.16 0
M  V30 15 C -2.3718 0.954 -4.1697 0
M  V30 16 C 2.0904 -2.4155 -2.6607 0
M  V30 17 C 4.099 -1.357 -1.8686 0
M  V30 18 N -0.9504 -0.184 4.2864 0
M  V30 19 C 3.4794 -2.3963 -2.5465 0
M  V30 20 C -1.7542 0.2609 5.4284 0
M  V30 21 C 0.4481 -0.3295 4.6942 0
M  V30 22 H 1.6899 1.0365 0.1981 0
M  V30 23 H 1.4075 1.7332 -1.3847 0
M  V30 24 H -1.9071 1.2706 0.6186 0
M  V30 25 H -0.4403 2.2102 0.9124 0
M  V30 26 H -1.7765 2.7837 -1.3789 0
M  V30 27 H 0.5946 0.151 1.9582 0
M  V30 28 H -0.8766 -0.7542 1.6161 0
M  V30 29 H -1.6045 -1.012 -4.5603 0
M  V30 30 H -0.6189 -1.9113 -1.2998 0
M  V30 31 H -0.4391 -2.3049 -2.9881 0
M  V30 32 H -3.0032 2.9026 -3.5094 0
M  V30 33 H 3.8345 0.4652 -0.7816 0
M  V30 34 H -0.695 1.7359 3.4129 0
M  V30 35 H -2.185 0.899 2.98 0
M  V30 36 H -2.9047 1.0132 -5.1148 0
M  V30 37 H 1.6255 -3.2442 -3.1915 0
M  V30 38 H 5.1814 -1.3321 -1.7785 0
M  V30 39 H 4.0726 -3.1931 -2.9863 0
M  V30 40 H -2.8145 0.3153 5.1569 0
M  V30 41 H -1.4402 1.2448 5.7959 0
M  V30 42 H -1.6821 -0.4558 6.2542 0
M  V30 43 H 0.9016 0.6311 4.9635 0
M  V30 44 H 1.0475 -0.7895 3.9028 0
M  V30 45 H 0.5292 -0.9995 5.5581 0
M  V30 END ATOM
M  V30 BEGIN BOND
M  V30 1 1 1 2
M  V30 2 1 1 3
M  V30 3 1 1 4
M  V30 4 2 2 5
M  V30 5 1 2 6
M  V30 6 1 3 7
M  V30 7 1 4 8
M  V30 8 1 5 9
M  V30 9 1 5 10
M  V30 10 2 6 11
M  V30 11 2 7 12
M  V30 12 1 7 13
M  V30 13 1 8 14
M  V30 14 2 9 15
M  V30 15 1 12 16
M  V30 16 2 13 17
M  V30 17 1 14 18
M  V30 18 2 16 19
M  V30 19 1 18 20
M  V30 20 1 18 21
M  V30 21 1 10 12
M  V30 22 1 11 15
M  V30 23 1 17 19
M  V30 24 1 3 22
M  V30 25 1 3 23
M  V30 26 1 4 24
M  V30 27 1 4 25
M  V30 28 1 6 26
M  V30 29 1 8 27
M  V30 30 1 8 28
M  V30 31 1 9 29
M  V30 32 1 10 30
M  V30 33 1 10 31
M  V30 34 1 11 32
M  V30 35 1 13 33
M  V30 36 1 14 34
M  V30 37 1 14 35
M  V30 38 1 15 36
M  V30 39 1 16 37
M  V30 40 1 17 38
M  V30 41 1 19 39
M  V30 42 1 20 40
M  V30 43 1 20 41
M  V30 44 1 20 42
M  V30 45 1 21 43
M  V30 46 1 21 44
M  V30 47 1 21 45
M  V30 END BOND
M  V30 END CTAB
M  END
>  <Column 1>
2491

>  <level_0>
3146

>  <index>
3146

>  <Unnamed: 0>
3146

>  <NO.>
3158

>  <Name>
propazepine

>  <IUPAC_name>
3-(6-11-dihydrobenzo[c][1]benzazepin-5-yl)-n-n-dimethylpropan-1-amine

>  <SMILES>
CN(C)CCCN1Cc2ccccc2Cc2ccccc21

>  <CID>
299322

>  <logBB>


>  <BBB+/BBB->
BBB+

>  <Inchi>
InChI=1S/C19H24N2/c1-20(2)12-7-13-21-15-18-10-4-3-8-16(18)14-17-9-5-6-11-19(17)21/h3-6-8-11H-7-12-15H2-1-2H3

>  <threshold>
-1

>  <reference>
R13|R19|R6|R24|R27|R27|R30|

>  <group>
B

>  <Class>
1

>  <ABC>
16.36

>  <ABCGG>
12.88

>  <nAcid>
0

>  <nBase>
1

>  <nAromAtom>
12

>  <nAromBond>
12

>  <nAtom>
45

>  <nHeavyAtom>
21

>  <nSpiro>
0

>  <nBridgehead>
0

>  <nHetero>
2

>  <nN>
2

>  <nO>
0

>  <nF>
0

>  <BalabanJ>
1.66

>  <BertzCT>
604.02

>  <nBonds>
47

>  <nBondsO>
23

>  <nBondsS>
35

>  <nBondsD>
0

>  <nBondsT>
0

>  <nBondsA>
12

>  <nBondsM>
12

>  <nBondsKS>
41

>  <nBondsKD>
6

>  <RNCG>
0.29

>  <RPCG>
0.05

>  <FCSP3>
0.37

>  <SZ>
25.33

>  <Sm>
23.35

>  <Sv>
27.02

>  <Sse>
43.98

>  <Sp>
29.9

>  <Si>
50.56

>  <MZ>
0.56

>  <Mm>
0.52

>  <Mv>
0.6

>  <Mse>
0.98

>  <Mp>
0.66

>  <Mi>
1.12

>  <NsCH3>
2

>  <NdCH2>
0

>  <NssCH2>
5

>  <NtCH>
0

>  <NdsCH>
0

>  <NaaCH>
8

>  <NsssCH>
0

>  <NddC>
0

>  <NtsC>
0

>  <NdssC>
0

>  <NaasC>
4

>  <NaaaC>
0

>  <NssssC>
0

>  <NsNH3>
0

>  <NsNH2>
0

>  <NssNH2>
0

>  <NdNH>
0

>  <NssNH>
0

>  <NaaNH>
0

>  <NtN>
0

>  <NsssNH>
0

>  <NdsN>
0

>  <NaaN>
0

>  <NsssN>
2

>  <NddsN>
0

>  <NaasN>
0

>  <NssssN>
0

>  <NsOH>
0

>  <NdO>
0

>  <NssO>
0

>  <NaaO>
0

>  <NsF>
0

>  <NsSiH3>
0

>  <NssSiH2>
0

>  <NsssSiH>
0

>  <NssssSi>
0

>  <NsPH2>
0

>  <NssPH>
0

>  <NsssP>
0

>  <NdsssP>
0

>  <NsssssP>
0

>  <NsSH>
0

>  <NdS>
0

>  <NssS>
0

>  <NaaS>
0

>  <NdssS>
0

>  <NddssS>
0

>  <NsCl>
0

>  <NsBr>
0

>  <NsI>
0

>  <fragCpx>
109.02

>  <fMF>
0.33

>  <nHBAcc>
2

>  <nHBDon>
0

>  <Kier1>
15.88

>  <Kier2>
7.51

>  <Lipinski>
1

>  <GhoseFilter>
1

>  <FilterItLogS>
-4.91

>  <VMcGowan>
240.15

>  <LabuteASA>
127.56

>  <PEOE_VSA1>
9.8

>  <PEOE_VSA2>
0

>  <PEOE_VSA3>
0

>  <PEOE_VSA4>
0

>  <PEOE_VSA5>
0

>  <PEOE_VSA6>
42.46

>  <PEOE_VSA7>
56.24

>  <PEOE_VSA8>
18.78

>  <PEOE_VSA9>
0

>  <PEOE_VSA10>
0

>  <PEOE_VSA11>
0

>  <PEOE_VSA12>
0

>  <PEOE_VSA13>
0

>  <SMR_VSA1>
0

>  <SMR_VSA2>
0

>  <SMR_VSA3>
4.9

>  <SMR_VSA4>
0

>  <SMR_VSA5>
19.39

>  <SMR_VSA6>
32.08

>  <SMR_VSA7>
65.22

>  <SMR_VSA8>
0

>  <SMR_VSA9>
0

>  <SlogP_VSA1>
4.9

>  <SlogP_VSA2>
32.08

>  <SlogP_VSA3>
12.97

>  <SlogP_VSA4>
0

>  <SlogP_VSA5>
23.11

>  <SlogP_VSA6>
48.53

>  <SlogP_VSA7>
0

>  <SlogP_VSA8>
0

>  <SlogP_VSA9>
0

>  <SlogP_VSA10>
5.69

>  <SlogP_VSA11>
0

>  <EState_VSA1>
0

>  <EState_VSA2>
0

>  <EState_VSA3>
0

>  <EState_VSA4>
26.06

>  <EState_VSA5>
28.8

>  <EState_VSA6>
0

>  <EState_VSA7>
0

>  <EState_VSA8>
72.43

>  <EState_VSA9>
0

>  <EState_VSA10>
0

>  <VSA_EState1>
0

>  <VSA_EState2>
4.81

>  <VSA_EState3>
0

>  <VSA_EState4>
5.8

>  <VSA_EState5>
0

>  <VSA_EState6>
17.73

>  <VSA_EState7>
2.25

>  <VSA_EState8>
3.28

>  <VSA_EState9>
4.29

>  <apol>
49.93

>  <bpol>
27.5

>  <nRing>
3

>  <nHRing>
1

>  <naRing>
2

>  <naHRing>
0

>  <nARing 2>
1

>  <nAHRing 2>
1

>  <nFRing>
1

>  <nFHRing>
1

>  <nFaRing>
0

>  <nFaHRing>
0

>  <nFARing 2>
1

>  <nFAHRing 2>
1

>  <nRot>
4

>  <SLogP>
3.55

>  <SMR>
89.91

>  <TopoPSA(NO)>
6.48

>  <TopoPSA>
6.48

>  <JGI1>
0.15

>  <JGI2>
0.06

>  <JGI3>
0.03

>  <JGI4>
0.04

>  <JGI5>
0.02

>  <Diameter>
10

>  <Radius>
5

>  <TMWC10>
117.29

>  <TSRW10>
62.74

>  <MW>
280.19

>  <AMW>
6.23

>  <WPath>
906

>  <WPol>
34

>  <Zagreb1>
108

>  <Zagreb2>
125

>  <mZagreb2>
4.67

>  <yes>


>  <nAR-cont>
0.816016

>  <nHA-cont>
0.994529749

>  <MWHBN>
0.119482329

>  <MWHBN-cont>
0.827135486

>  <TPSA-cont>
0.954765576

>  <pka_cont>
0.97

>  <yes.1>


>  <BBB_SCORE>
5.445780131

>  <MMFF94 Energy>
71.868

$$$$
Compound 2042
Actelion Java MolfileCreator 2.0

  0  0  0  0  0  0              0 V3000
M  V30 BEGIN CTAB
M  V30 COUNTS 38 39 0 0 0
M  V30 BEGIN ATOM
M  V30 1 N -1.3368 1.4942 0.8648 0
M  V30 2 C -0.1627 1.5683 0.1882 0
M  V30 3 C -1.837 2.6372 1.3829 0
M  V30 4 C 0.5088 2.7791 0.0088 0
M  V30 5 C 0.4052 0.2916 -0.4277 0 CFG=2
M  V30 6 C -1.2259 3.8719 1.257 0
M  V30 7 C -0.0305 3.9413 0.554 0
M  V30 8 C 0.0772 0.1867 -1.9159 0
M  V30 9 C -0.0029 -1.0115 0.3047 0
M  V30 10 C 1.1099 0.1212 -2.8647 0
M  V30 11 C -1.2528 0.145 -2.3642 0
M  V30 12 C 0.5743 -1.086 1.7284 0
M  V30 13 C 0.8176 0.0203 -4.2264 0
M  V30 14 C -1.5422 0.0447 -3.7257 0
M  V30 15 N 0.2215 -2.3346 2.4331 0
M  V30 16 C -0.5073 -0.0174 -4.6562 0
M  V30 17 C 0.5379 -2.2094 3.8585 0
M  V30 18 C 0.91 -3.5 1.876 0
M  V30 19 H -2.7755 2.5287 1.9189 0
M  V30 20 H 1.4347 2.8223 -0.5559 0
M  V30 21 H 1.4986 0.3644 -0.3313 0
M  V30 22 H -1.6739 4.7583 1.6913 0
M  V30 23 H 0.4756 4.8934 0.424 0
M  V30 24 H 0.3665 -1.8598 -0.2841 0
M  V30 25 H -1.0953 -1.1145 0.3453 0
M  V30 26 H 2.1509 0.1451 -2.5515 0
M  V30 27 H -2.073 0.1956 -1.649 0
M  V30 28 H 1.6646 -0.9599 1.6988 0
M  V30 29 H 0.1758 -0.2402 2.3013 0
M  V30 30 H 1.6244 -0.0305 -4.9528 0
M  V30 31 H -2.5767 0.0155 -4.0576 0
M  V30 32 H -0.7342 -0.0963 -5.7159 0
M  V30 33 H -0.0219 -1.3813 4.3078 0
M  V30 34 H 1.6068 -2.0384 4.0307 0
M  V30 35 H 0.2406 -3.1139 4.4011 0
M  V30 36 H 1.9996 -3.3826 1.8914 0
M  V30 37 H 0.5951 -3.6966 0.847 0
M  V30 38 H 0.6565 -4.4032 2.4434 0
M  V30 END ATOM
M  V30 BEGIN BOND
M  V30 1 2 1 2
M  V30 2 1 1 3
M  V30 3 1 2 4
M  V30 4 1 2 5
M  V30 5 2 3 6
M  V30 6 2 4 7
M  V30 7 1 5 8
M  V30 8 1 5 9
M  V30 9 2 8 10
M  V30 10 1 8 11
M  V30 11 1 9 12
M  V30 12 1 10 13
M  V30 13 2 11 14
M  V30 14 1 12 15
M  V30 15 2 13 16
M  V30 16 1 15 17
M  V30 17 1 15 18
M  V30 18 1 6 7
M  V30 19 1 14 16
M  V30 20 1 3 19
M  V30 21 1 4 20
M  V30 22 1 5 21
M  V30 23 1 6 22
M  V30 24 1 7 23
M  V30 25 1 9 24
M  V30 26 1 9 25
M  V30 27 1 10 26
M  V30 28 1 11 27
M  V30 29 1 12 28
M  V30 30 1 12 29
M  V30 31 1 13 30
M  V30 32 1 14 31
M  V30 33 1 16 32
M  V30 34 1 17 33
M  V30 35 1 17 34
M  V30 36 1 17 35
M  V30 37 1 18 36
M  V30 38 1 18 37
M  V30 39 1 18 38
M  V30 END BOND
M  V30 BEGIN COLLECTION
M  V30 MDLV30/STEABS ATOMS=(1 5)
M  V30 END COLLECTION
M  V30 END CTAB
M  END
>  <Column 1>
2492

>  <level_0>
3151

>  <index>
3151

>  <Unnamed: 0>
3151

>  <NO.>
3163

>  <Name>
(+)-pheniramine

>  <IUPAC_name>
(3s)-n-n-dimethyl-3-phenyl-3-pyridin-2-ylpropan-1-amine

>  <SMILES>
CN(C)CC[C@@H](c1ccccc1)c1ccccn1

>  <CID>
667440

>  <logBB>


>  <BBB+/BBB->
BBB-

>  <Inchi>
InChI=1S/C16H20N2/c1-18(2)13-11-15(14-8-4-3-5-9-14)16-10-6-7-12-17-16/h3-10-12-15H-11-13H2-1-2H3/t15-/m0/s1

>  <threshold>
-1

>  <reference>
R13|

>  <group>
B

>  <Class>
1

>  <ABC>
13.57

>  <ABCGG>
11.67

>  <nAcid>
0

>  <nBase>
1

>  <nAromAtom>
12

>  <nAromBond>
12

>  <nAtom>
38

>  <nHeavyAtom>
18

>  <nSpiro>
0

>  <nBridgehead>
0

>  <nHetero>
2

>  <nN>
2

>  <nO>
0

>  <nF>
0

>  <BalabanJ>
1.91

>  <BertzCT>
411.54

>  <nBonds>
39

>  <nBondsO>
19

>  <nBondsS>
27

>  <nBondsD>
0

>  <nBondsT>
0

>  <nBondsA>
12

>  <nBondsM>
12

>  <nBondsKS>
33

>  <nBondsKD>
6

>  <RNCG>
0.28

>  <RPCG>
0.08

>  <FCSP3>
0.31

>  <SZ>
21.67

>  <Sm>
20.01

>  <Sv>
22.93

>  <Sse>
37.2

>  <Sp>
25.3

>  <Si>
42.73

>  <MZ>
0.57

>  <Mm>
0.53

>  <Mv>
0.6

>  <Mse>
0.98

>  <Mp>
0.67

>  <Mi>
1.12

>  <NsCH3>
2

>  <NdCH2>
0

>  <NssCH2>
2

>  <NtCH>
0

>  <NdsCH>
0

>  <NaaCH>
9

>  <NsssCH>
1

>  <NddC>
0

>  <NtsC>
0

>  <NdssC>
0

>  <NaasC>
2

>  <NaaaC>
0

>  <NssssC>
0

>  <NsNH3>
0

>  <NsNH2>
0

>  <NssNH2>
0

>  <NdNH>
0

>  <NssNH>
0

>  <NaaNH>
0

>  <NtN>
0

>  <NsssNH>
0

>  <NdsN>
0

>  <NaaN>
1

>  <NsssN>
1

>  <NddsN>
0

>  <NaasN>
0

>  <NssssN>
0

>  <NsOH>
0

>  <NdO>
0

>  <NssO>
0

>  <NaaO>
0

>  <NsF>
0

>  <NsSiH3>
0

>  <NssSiH2>
0

>  <NsssSiH>
0

>  <NssssSi>
0

>  <NsPH2>
0

>  <NssPH>
0

>  <NsssP>
0

>  <NdsssP>
0

>  <NsssssP>
0

>  <NsSH>
0

>  <NdS>
0

>  <NssS>
0

>  <NaaS>
0

>  <NdssS>
0

>  <NddssS>
0

>  <NsCl>
0

>  <NsBr>
0

>  <NsI>
0

>  <fragCpx>
55.02

>  <fMF>
0.34

>  <nHBAcc>
2

>  <nHBDon>
0

>  <Kier1>
14.41

>  <Kier2>
7.56

>  <Lipinski>
1

>  <GhoseFilter>
1

>  <FilterItLogS>
-4.15

>  <VMcGowan>
208.74

>  <LabuteASA>
109.29

>  <PEOE_VSA1>
4.9

>  <PEOE_VSA2>
4.98

>  <PEOE_VSA3>
0

>  <PEOE_VSA4>
0

>  <PEOE_VSA5>
0

>  <PEOE_VSA6>
36.4

>  <PEOE_VSA7>
44.76

>  <PEOE_VSA8>
17.81

>  <PEOE_VSA9>
0

>  <PEOE_VSA10>
0

>  <PEOE_VSA11>
0

>  <PEOE_VSA12>
0

>  <PEOE_VSA13>
0

>  <SMR_VSA1>
0

>  <SMR_VSA2>
0

>  <SMR_VSA3>
9.88

>  <SMR_VSA4>
0

>  <SMR_VSA5>
12.34

>  <SMR_VSA6>
20.64

>  <SMR_VSA7>
65.99

>  <SMR_VSA8>
0

>  <SMR_VSA9>
0

>  <SlogP_VSA1>
0

>  <SlogP_VSA2>
30.52

>  <SlogP_VSA3>
0

>  <SlogP_VSA4>
0

>  <SlogP_VSA5>
23.6

>  <SlogP_VSA6>
54.73

>  <SlogP_VSA7>
0

>  <SlogP_VSA8>
0

>  <SlogP_VSA9>
0

>  <SlogP_VSA10>
0

>  <SlogP_VSA11>
0

>  <EState_VSA1>
0

>  <EState_VSA2>
0

>  <EState_VSA3>
5.92

>  <EState_VSA4>
18.66

>  <EState_VSA5>
5.56

>  <EState_VSA6>
0

>  <EState_VSA7>
12.26

>  <EState_VSA8>
66.44

>  <EState_VSA9>
0

>  <EState_VSA10>
0

>  <VSA_EState1>
0

>  <VSA_EState2>
6.74

>  <VSA_EState3>
0

>  <VSA_EState4>
2.5

>  <VSA_EState5>
0.38

>  <VSA_EState6>
16.79

>  <VSA_EState7>
2.97

>  <VSA_EState8>
1.07

>  <VSA_EState9>
4.22

>  <apol>
42.26

>  <bpol>
22.91

>  <nRing>
2

>  <nHRing>
1

>  <naRing>
2

>  <naHRing>
1

>  <nARing 2>
0

>  <nAHRing 2>
0

>  <nFRing>
0

>  <nFHRing>
0

>  <nFaRing>
0

>  <nFaHRing>
0

>  <nFARing 2>
0

>  <nFAHRing 2>
0

>  <nRot>
5

>  <SLogP>
3.17

>  <SMR>
75.69

>  <TopoPSA(NO)>
16.13

>  <TopoPSA>
16.13

>  <JGI1>
0.13

>  <JGI2>
0.06

>  <JGI3>
0.04

>  <JGI4>
0.02

>  <JGI5>
0.02

>  <Diameter>
8

>  <Radius>
4

>  <TMWC10>
106.97

>  <TSRW10>
50.28

>  <MW>
240.16

>  <AMW>
6.32

>  <WPath>
614

>  <WPol>
23

>  <Zagreb1>
86

>  <Zagreb2>
96

>  <mZagreb2>
4.14

>  <yes>


>  <nAR-cont>
0.336376

>  <nHA-cont>
0.991161285

>  <MWHBN>
0.129056433

>  <MWHBN-cont>
0.865978695

>  <TPSA-cont>
0.887402584

>  <pka_cont>
0.97

>  <yes.1>


>  <BBB_SCORE>
4.886310495

>  <MMFF94 Energy>
60.232

$$$$
Compound 2043
Actelion Java MolfileCreator 2.0

  0  0  0  0  0  0              0 V3000
M  V30 BEGIN CTAB
M  V30 COUNTS 40 41 0 0 0
M  V30 BEGIN ATOM
M  V30 1 Cl -4.4703 0.3985 2.0736 0
M  V30 2 C -3.5873 -0.6741 1.0563 0
M  V30 3 C -2.3837 -0.2487 0.4868 0
M  V30 4 C -4.078 -1.9535 0.8131 0
M  V30 5 C -1.6465 -1.1056 -0.345 0
M  V30 6 C -3.359 -2.8189 -0.0065 0
M  V30 7 C -2.1558 -2.3989 -0.5783 0
M  V30 8 C -0.3115 -0.718 -0.9964 0 CFG=2
M  V30 9 C 0.8952 -1.4394 -0.3889 0
M  V30 10 C -0.0745 0.8129 -1.1918 0 CFG=2
M  V30 11 C 1.9845 -1.7652 -1.2148 0
M  V30 12 C 0.9755 -1.7583 0.9771 0
M  V30 13 O 0.6976 1.0384 -2.3917 0
M  V30 14 C 0.6479 1.5316 -0.0243 0
M  V30 15 C 3.1123 -2.4024 -0.6951 0
M  V30 16 C 2.1044 -2.3975 1.4948 0
M  V30 17 N 0.8444 2.9771 -0.3149 0
M  V30 18 C 3.171 -2.7203 0.6593 0
M  V30 19 C 1.8507 3.5309 0.5995 0
M  V30 20 C -0.4059 3.7307 -0.1702 0
M  V30 21 H -2.0407 0.7566 0.7068 0
M  V30 22 H -5.0136 -2.2812 1.2578 0
M  V30 23 H -3.731 -3.8219 -0.2006 0
M  V30 24 H -1.6044 -3.0944 -1.2108 0
M  V30 25 H -0.4052 -1.1178 -2.0197 0
M  V30 26 H -1.0409 1.2873 -1.393 0
M  V30 27 H 1.9612 -1.5107 -2.2738 0
M  V30 28 H 0.1612 -1.5165 1.6563 0
M  V30 29 H 1.0312 1.9551 -2.2949 0
M  V30 30 H 0.129 1.3876 0.9295 0
M  V30 31 H 1.6462 1.0877 0.0724 0
M  V30 32 H 3.9456 -2.6461 -1.3488 0
M  V30 33 H 2.1502 -2.6437 2.5526 0
M  V30 34 H 4.0489 -3.2169 1.0638 0
M  V30 35 H 2.8134 3.025 0.4653 0
M  V30 36 H 1.5517 3.4352 1.6498 0
M  V30 37 H 2.0251 4.5912 0.3839 0
M  V30 38 H -0.8364 3.6288 0.8327 0
M  V30 39 H -1.1529 3.4087 -0.9017 0
M  V30 40 H -0.2348 4.7963 -0.3626 0
M  V30 END ATOM
M  V30 BEGIN BOND
M  V30 1 1 1 2
M  V30 2 2 2 3
M  V30 3 1 2 4
M  V30 4 1 3 5
M  V30 5 2 4 6
M  V30 6 2 5 7
M  V30 7 1 5 8
M  V30 8 1 8 9
M  V30 9 1 8 10
M  V30 10 2 9 11
M  V30 11 1 9 12
M  V30 12 1 10 13
M  V30 13 1 10 14
M  V30 14 1 11 15
M  V30 15 2 12 16
M  V30 16 1 14 17
M  V30 17 2 15 18
M  V30 18 1 17 19
M  V30 19 1 17 20
M  V30 20 1 6 7
M  V30 21 1 16 18
M  V30 22 1 3 21
M  V30 23 1 4 22
M  V30 24 1 6 23
M  V30 25 1 7 24
M  V30 26 1 8 25
M  V30 27 1 10 26
M  V30 28 1 11 27
M  V30 29 1 12 28
M  V30 30 1 13 29
M  V30 31 1 14 30
M  V30 32 1 14 31
M  V30 33 1 15 32
M  V30 34 1 16 33
M  V30 35 1 18 34
M  V30 36 1 19 35
M  V30 37 1 19 36
M  V30 38 1 19 37
M  V30 39 1 20 38
M  V30 40 1 20 39
M  V30 41 1 20 40
M  V30 END BOND
M  V30 BEGIN COLLECTION
M  V30 MDLV30/STEABS ATOMS=(2 8 10)
M  V30 END COLLECTION
M  V30 END CTAB
M  END
>  <Column 1>
2493

>  <level_0>
3156

>  <index>
3156

>  <Unnamed: 0>
3156

>  <NO.>
3168

>  <Name>
zinc34220987

>  <IUPAC_name>
(1s-2s)-1-(3-chlorophenyl)-3-(dimethylamino)-1-phenylpropan-2-ol

>  <SMILES>
CN(C)C[C@@H](O)[C@@H](c1ccccc1)c1cccc(Cl)c1

>  <CID>
129362826

>  <logBB>


>  <BBB+/BBB->
BBB+

>  <Inchi>
InChI=1S/C17H20ClNO/c1-19(2)12-16(20)17(13-7-4-3-5-8-13)14-9-6-10-15(18)11-14/h3-11-16-17-20H-12H2-1-2H3/t16--17+/m1/s1

>  <threshold>
-1

>  <reference>
R13|

>  <group>
B

>  <Class>
1

>  <ABC>
15.17

>  <ABCGG>
13.26

>  <nAcid>
0

>  <nBase>
1

>  <nAromAtom>
12

>  <nAromBond>
12

>  <nAtom>
40

>  <nHeavyAtom>
20

>  <nSpiro>
0

>  <nBridgehead>
0

>  <nHetero>
3

>  <nN>
1

>  <nO>
1

>  <nF>
0

>  <BalabanJ>
2.05

>  <BertzCT>
541.7

>  <nBonds>
41

>  <nBondsO>
21

>  <nBondsS>
29

>  <nBondsD>
0

>  <nBondsT>
0

>  <nBondsA>
12

>  <nBondsM>
12

>  <nBondsKS>
35

>  <nBondsKD>
6

>  <RNCG>
0.28

>  <RPCG>
0.15

>  <FCSP3>
0.29

>  <SZ>
25.67

>  <Sm>
24.13

>  <Sv>
24.98

>  <Sse>
39.64

>  <Sp>
27.43

>  <Si>
44.8

>  <MZ>
0.64

>  <Mm>
0.6

>  <Mv>
0.62

>  <Mse>
0.99

>  <Mp>
0.69

>  <Mi>
1.12

>  <NsCH3>
2

>  <NdCH2>
0

>  <NssCH2>
1

>  <NtCH>
0

>  <NdsCH>
0

>  <NaaCH>
9

>  <NsssCH>
2

>  <NddC>
0

>  <NtsC>
0

>  <NdssC>
0

>  <NaasC>
3

>  <NaaaC>
0

>  <NssssC>
0

>  <NsNH3>
0

>  <NsNH2>
0

>  <NssNH2>
0

>  <NdNH>
0

>  <NssNH>
0

>  <NaaNH>
0

>  <NtN>
0

>  <NsssNH>
0

>  <NdsN>
0

>  <NaaN>
0

>  <NsssN>
1

>  <NddsN>
0

>  <NaasN>
0

>  <NssssN>
0

>  <NsOH>
1

>  <NdO>
0

>  <NssO>
0

>  <NaaO>
0

>  <NsF>
0

>  <NsSiH3>
0

>  <NssSiH2>
0

>  <NsssSiH>
0

>  <NssssSi>
0

>  <NsPH2>
0

>  <NssPH>
0

>  <NsssP>
0

>  <NdsssP>
0

>  <NsssssP>
0

>  <NsSH>
0

>  <NdS>
0

>  <NssS>
0

>  <NaaS>
0

>  <NdssS>
0

>  <NddssS>
0

>  <NsCl>
1

>  <NsBr>
0

>  <NsI>
0

>  <fragCpx>
61.03

>  <fMF>
0.33

>  <nHBAcc>
2

>  <nHBDon>
1

>  <Kier1>
16.37

>  <Kier2>
7.85

>  <Lipinski>
1

>  <GhoseFilter>
1

>  <FilterItLogS>
-4.2

>  <VMcGowan>
230.96

>  <LabuteASA>
125.17

>  <PEOE_VSA1>
10.01

>  <PEOE_VSA2>
0

>  <PEOE_VSA3>
0

>  <PEOE_VSA4>
0

>  <PEOE_VSA5>
0

>  <PEOE_VSA6>
54.07

>  <PEOE_VSA7>
37.35

>  <PEOE_VSA8>
17.49

>  <PEOE_VSA9>
6.1

>  <PEOE_VSA10>
0

>  <PEOE_VSA11>
0

>  <PEOE_VSA12>
0

>  <PEOE_VSA13>
0

>  <SMR_VSA1>
5.11

>  <SMR_VSA2>
0

>  <SMR_VSA3>
4.9

>  <SMR_VSA4>
0

>  <SMR_VSA5>
12.02

>  <SMR_VSA6>
20.64

>  <SMR_VSA7>
70.75

>  <SMR_VSA8>
0

>  <SMR_VSA9>
0

>  <SlogP_VSA1>
0

>  <SlogP_VSA2>
36.75

>  <SlogP_VSA3>
0

>  <SlogP_VSA4>
0

>  <SlogP_VSA5>
17.04

>  <SlogP_VSA6>
54.6

>  <SlogP_VSA7>
5.02

>  <SlogP_VSA8>
0

>  <SlogP_VSA9>
0

>  <SlogP_VSA10>
0

>  <SlogP_VSA11>
0

>  <EState_VSA1>
6.1

>  <EState_VSA2>
5.92

>  <EState_VSA3>
11.57

>  <EState_VSA4>
11.13

>  <EState_VSA5>
0

>  <EState_VSA6>
0

>  <EState_VSA7>
73.59

>  <EState_VSA8>
0

>  <EState_VSA9>
11.6

>  <EState_VSA10>
5.11

>  <VSA_EState1>
0

>  <VSA_EState2>
1.99

>  <VSA_EState3>
11.29

>  <VSA_EState4>
2.14

>  <VSA_EState5>
-0.07

>  <VSA_EState6>
17.79

>  <VSA_EState7>
-0.48

>  <VSA_EState8>
0.6

>  <VSA_EState9>
3.92

>  <apol>
45.81

>  <bpol>
22.28

>  <nRing>
2

>  <nHRing>
0

>  <naRing>
2

>  <naHRing>
0

>  <nARing 2>
0

>  <nAHRing 2>
0

>  <nFRing>
0

>  <nFHRing>
0

>  <nFaRing>
0

>  <nFaHRing>
0

>  <nFARing 2>
0

>  <nFAHRing 2>
0

>  <nRot>
5

>  <SLogP>
3.39

>  <SMR>
84.3

>  <TopoPSA(NO)>
23.47

>  <TopoPSA>
23.47

>  <JGI1>
0.19

>  <JGI2>
0.06

>  <JGI3>
0.06

>  <JGI4>
0.03

>  <JGI5>
0.02

>  <Diameter>
8

>  <Radius>
4

>  <TMWC10>
112.92

>  <TSRW10>
53.13

>  <MW>
289.12

>  <AMW>
7.23

>  <WPath>
782

>  <WPol>
28

>  <Zagreb1>
98

>  <Zagreb2>
111

>  <mZagreb2>
4.5

>  <yes>


>  <nAR-cont>
0.336376

>  <nHA-cont>
0.999629945

>  <MWHBN>
0.176433962

>  <MWHBN-cont>
0.983010328

>  <TPSA-cont>
0.836164826

>  <pka_cont>
0.97

>  <yes.1>


>  <BBB_SCORE>
4.967851089

>  <MMFF94 Energy>
94.549

$$$$
Compound 2044
Actelion Java MolfileCreator 2.0

  0  0  0  0  0  0              0 V3000
M  V30 BEGIN CTAB
M  V30 COUNTS 71 75 0 0 0
M  V30 BEGIN ATOM
M  V30 1 O 1.6866 -3.4559 0.8832 0
M  V30 2 C 0.8305 -2.5677 0.9867 0
M  V30 3 C -0.5099 -2.9156 1.5406 0
M  V30 4 C 1.1705 -1.0861 0.6753 0
M  V30 5 C -0.9203 -4.2002 1.5647 0
M  V30 6 C -1.3473 -1.839 2.1804 0 CFG=1
M  V30 7 O 2.3317 -0.8327 1.488 0
M  V30 8 C 1.5794 -0.7994 -0.7536 0
M  V30 9 C 0.0517 -0.1007 1.0478 0 CFG=1
M  V30 10 O -0.1582 -5.2576 1.1182 0
M  V30 11 C -2.2338 -4.5467 2.1706 0
M  V30 12 C -2.0437 -2.3649 3.4726 0
M  V30 13 C -0.5815 -0.5175 2.3826 0
M  V30 14 O 1.7952 -1.9209 -1.5394 0
M  V30 15 C 1.7091 0.4684 -1.2118 0
M  V30 16 C 0.6261 1.3357 1.0343 0 CFG=1
M  V30 17 C -2.9565 -5.7123 1.8541 0
M  V30 18 C -2.7837 -3.6591 3.1331 0
M  V30 19 O -3.0028 -1.3768 3.8801 0
M  V30 20 C -1.0854 -2.6242 4.6467 0
M  V30 21 C 1.4359 1.6026 -0.2678 0
M  V30 22 C 2.1366 0.6924 -2.6296 0
M  V30 23 N -0.3438 2.4454 1.1806 0
M  V30 24 O -2.514 -6.5609 0.8752 0
M  V30 25 C -4.1613 -6.0168 2.4949 0
M  V30 26 C -3.9929 -3.984 3.7757 0
M  V30 27 O 1.8679 2.7272 -0.5414 0
M  V30 28 O 2.2865 -0.2608 -3.3953 0
M  V30 29 N 2.3373 1.9832 -3.0123 0
M  V30 30 C -1.6242 2.2958 0.5118 0
M  V30 31 C -0.4546 2.9828 2.5271 0
M  V30 32 C -4.6738 -5.1564 3.4604 0
M  V30 33 C 2.7676 2.3364 -4.3259 0
M  V30 34 N 2.6177 3.7732 -4.4308 0
M  V30 35 C 1.2214 4.2017 -4.5552 0
M  V30 36 C 3.2699 4.2948 -5.6331 0
M  V30 37 C 1.3442 5.6348 -5.0515 0
M  V30 38 C 2.6932 5.6965 -5.7587 0
M  V30 39 H -2.1473 -1.601 1.4593 0
M  V30 40 H 2.9651 -1.5487 1.2648 0
M  V30 41 H -0.7297 -0.1747 0.2763 0
M  V30 42 H 0.7228 -4.9207 0.8499 0
M  V30 43 H -1.292 0.2376 2.7246 0
M  V30 44 H 0.1905 -0.6091 3.1546 0
M  V30 45 H 2.0664 -1.6444 -2.4468 0
M  V30 46 H 1.377 1.4227 1.8323 0
M  V30 47 H -2.5574 -0.7381 4.4609 0
M  V30 48 H -0.5919 -1.7031 4.9737 0
M  V30 49 H -1.6358 -2.9931 5.521 0
M  V30 50 H -0.3136 -3.3618 4.4047 0
M  V30 51 H -3.0283 -7.3814 0.9015 0
M  V30 52 H -4.7172 -6.9148 2.2431 0
M  V30 53 H -4.4141 -3.3126 4.5215 0
M  V30 54 H 2.2832 2.7377 -2.3302 0
M  V30 55 H -2.2719 1.5642 1.0049 0
M  V30 56 H -1.4896 1.9955 -0.5328 0
M  V30 57 H -2.1583 3.2524 0.4891 0
M  V30 58 H -0.9425 2.2942 3.2212 0
M  V30 59 H 0.5323 3.235 2.93 0
M  V30 60 H -1.029 3.9162 2.5221 0
M  V30 61 H -5.6112 -5.3904 3.9582 0
M  V30 62 H 3.8204 2.0416 -4.4039 0
M  V30 63 H 2.1988 1.7777 -5.0786 0
M  V30 64 H 0.6814 4.1572 -3.6041 0
M  V30 65 H 0.676 3.6009 -5.2944 0
M  V30 66 H 3.0109 3.7061 -6.5228 0
M  V30 67 H 4.3598 4.3168 -5.5351 0
M  V30 68 H 1.3327 6.3402 -4.2122 0
M  V30 69 H 0.5213 5.8988 -5.7233 0
M  V30 70 H 2.5891 5.9958 -6.8064 0
M  V30 71 H 3.3392 6.4298 -5.262 0
M  V30 END ATOM
M  V30 BEGIN BOND
M  V30 1 2 1 2
M  V30 2 1 2 3
M  V30 3 1 2 4
M  V30 4 2 3 5
M  V30 5 1 3 6
M  V30 6 1 4 7
M  V30 7 1 4 8
M  V30 8 1 4 9
M  V30 9 1 5 10
M  V30 10 1 5 11
M  V30 11 1 6 12
M  V30 12 1 6 13
M  V30 13 1 8 14
M  V30 14 2 8 15
M  V30 15 1 9 16
M  V30 16 2 11 17
M  V30 17 1 11 18
M  V30 18 1 12 19
M  V30 19 1 12 20
M  V30 20 1 15 21
M  V30 21 1 15 22
M  V30 22 1 16 23
M  V30 23 1 17 24
M  V30 24 1 17 25
M  V30 25 2 18 26
M  V30 26 2 21 27
M  V30 27 2 22 28
M  V30 28 1 22 29
M  V30 29 1 23 30
M  V30 30 1 23 31
M  V30 31 2 25 32
M  V30 32 1 29 33
M  V30 33 1 33 34
M  V30 34 1 34 35
M  V30 35 1 34 36
M  V30 36 1 35 37
M  V30 37 1 36 38
M  V30 38 1 9 13
M  V30 39 1 12 18
M  V30 40 1 16 21
M  V30 41 1 26 32
M  V30 42 1 37 38
M  V30 43 1 6 39
M  V30 44 1 7 40
M  V30 45 1 9 41
M  V30 46 1 10 42
M  V30 47 1 13 43
M  V30 48 1 13 44
M  V30 49 1 14 45
M  V30 50 1 16 46
M  V30 51 1 19 47
M  V30 52 1 20 48
M  V30 53 1 20 49
M  V30 54 1 20 50
M  V30 55 1 24 51
M  V30 56 1 25 52
M  V30 57 1 26 53
M  V30 58 1 29 54
M  V30 59 1 30 55
M  V30 60 1 30 56
M  V30 61 1 30 57
M  V30 62 1 31 58
M  V30 63 1 31 59
M  V30 64 1 31 60
M  V30 65 1 32 61
M  V30 66 1 33 62
M  V30 67 1 33 63
M  V30 68 1 35 64
M  V30 69 1 35 65
M  V30 70 1 36 66
M  V30 71 1 36 67
M  V30 72 1 37 68
M  V30 73 1 37 69
M  V30 74 1 38 70
M  V30 75 1 38 71
M  V30 END BOND
M  V30 BEGIN COLLECTION
M  V30 MDLV30/STEABS ATOMS=(3 6 9 16)
M  V30 END COLLECTION
M  V30 END CTAB
M  END
>  <Column 1>
2494

>  <level_0>
3161

>  <index>
3161

>  <Unnamed: 0>
3161

>  <NO.>
3173

>  <Name>


>  <IUPAC_name>


>  <SMILES>
CN(C)[C@@H]1C(=O)C(C(=O)NCN2CCCC2)=C(O)C2(O)C(=O)C3=C(O)c4c(O)cccc4C(C)(O)[C@H]3C[C@@H]12

>  <CID>


>  <logBB>


>  <BBB+/BBB->
BBB+

>  <Inchi>
InChI=1S/C27H33N3O8/c1-26(37)13-7-6-8-16(31)17(13)21(32)18-14(26)11-15-20(29(2)3)22(33)19(24(35)27(15-38)23(18)34)25(36)28-12-30-9-4-5-10-30/h6-8-14-15-20-31-32-35-37-38H-4-5-9-12H2-1-3H3-(H-28-36)/t14--15--20--26?-27?/m0/s1

>  <threshold>
-1

>  <reference>
R13|

>  <group>
B

>  <Class>
-1

>  <ABC>
30.26

>  <ABCGG>
24.51

>  <nAcid>
0

>  <nBase>
2

>  <nAromAtom>
6

>  <nAromBond>
6

>  <nAtom>
71

>  <nHeavyAtom>
38

>  <nSpiro>
0

>  <nBridgehead>
0

>  <nHetero>
11

>  <nN>
3

>  <nO>
8

>  <nF>
0

>  <BalabanJ>
1.49

>  <BertzCT>
1292.99

>  <nBonds>
75

>  <nBondsO>
42

>  <nBondsS>
64

>  <nBondsD>
5

>  <nBondsT>
0

>  <nBondsA>
6

>  <nBondsM>
11

>  <nBondsKS>
67

>  <nBondsKD>
8

>  <RNCG>
0.12

>  <RPCG>
0.07

>  <FCSP3>
0.52

>  <SZ>
46.67

>  <Sm>
43.92

>  <Sv>
43.93

>  <Sse>
72.28

>  <Sp>
45.99

>  <Si>
80.4

>  <MZ>
0.66

>  <Mm>
0.62

>  <Mv>
0.62

>  <Mse>
1.02

>  <Mp>
0.65

>  <Mi>
1.13

>  <NsCH3>
3

>  <NdCH2>
0

>  <NssCH2>
6

>  <NtCH>
0

>  <NdsCH>
0

>  <NaaCH>
3

>  <NsssCH>
3

>  <NddC>
0

>  <NtsC>
0

>  <NdssC>
7

>  <NaasC>
3

>  <NaaaC>
0

>  <NssssC>
2

>  <NsNH3>
0

>  <NsNH2>
0

>  <NssNH2>
0

>  <NdNH>
0

>  <NssNH>
1

>  <NaaNH>
0

>  <NtN>
0

>  <NsssNH>
0

>  <NdsN>
0

>  <NaaN>
0

>  <NsssN>
2

>  <NddsN>
0

>  <NaasN>
0

>  <NssssN>
0

>  <NsOH>
5

>  <NdO>
3

>  <NssO>
0

>  <NaaO>
0

>  <NsF>
0

>  <NsSiH3>
0

>  <NssSiH2>
0

>  <NsssSiH>
0

>  <NssssSi>
0

>  <NsPH2>
0

>  <NssPH>
0

>  <NsssP>
0

>  <NdsssP>
0

>  <NsssssP>
0

>  <NsSH>
0

>  <NdS>
0

>  <NssS>
0

>  <NaaS>
0

>  <NdssS>
0

>  <NddssS>
0

>  <NsCl>
0

>  <NsBr>
0

>  <NsI>
0

>  <fragCpx>
358.11

>  <fMF>
0.37

>  <nHBAcc>
10

>  <nHBDon>
6

>  <Kier1>
29.49

>  <Kier2>
10.68

>  <Lipinski>
0

>  <GhoseFilter>
0

>  <FilterItLogS>
-2.54

>  <VMcGowan>
379.49

>  <LabuteASA>
219.22

>  <PEOE_VSA1>
30.85

>  <PEOE_VSA2>
24.18

>  <PEOE_VSA3>
0

>  <PEOE_VSA4>
0

>  <PEOE_VSA5>
0

>  <PEOE_VSA6>
12.13

>  <PEOE_VSA7>
65

>  <PEOE_VSA8>
17.41

>  <PEOE_VSA9>
23.88

>  <PEOE_VSA10>
22.84

>  <PEOE_VSA11>
11.38

>  <PEOE_VSA12>
5.78

>  <PEOE_VSA13>
5.91

>  <SMR_VSA1>
39.92

>  <SMR_VSA2>
0

>  <SMR_VSA3>
15.12

>  <SMR_VSA4>
11.84

>  <SMR_VSA5>
43.43

>  <SMR_VSA6>
33.85

>  <SMR_VSA7>
46.23

>  <SMR_VSA8>
0

>  <SMR_VSA9>
5.75

>  <SlogP_VSA1>
5.32

>  <SlogP_VSA2>
98.3

>  <SlogP_VSA3>
19.98

>  <SlogP_VSA4>
11.84

>  <SlogP_VSA5>
37.31

>  <SlogP_VSA6>
35.1

>  <SlogP_VSA7>
0

>  <SlogP_VSA8>
5.76

>  <SlogP_VSA9>
0

>  <SlogP_VSA10>
0

>  <SlogP_VSA11>
5.75

>  <EState_VSA1>
63.64

>  <EState_VSA2>
35.54

>  <EState_VSA3>
0

>  <EState_VSA4>
25.93

>  <EState_VSA5>
30.02

>  <EState_VSA6>
14.1

>  <EState_VSA7>
4.9

>  <EState_VSA8>
5.32

>  <EState_VSA9>
0

>  <EState_VSA10>
39.92

>  <VSA_EState1>
0

>  <VSA_EState2>
44.28

>  <VSA_EState3>
58.97

>  <VSA_EState4>
-5.54

>  <VSA_EState5>
-7.17

>  <VSA_EState6>
3.12

>  <VSA_EState7>
1.78

>  <VSA_EState8>
3.11

>  <VSA_EState9>
3.12

>  <apol>
76.81

>  <bpol>
39.7

>  <nRing>
5

>  <nHRing>
1

>  <naRing>
1

>  <naHRing>
0

>  <nARing 2>
4

>  <nAHRing 2>
1

>  <nFRing>
1

>  <nFHRing>
0

>  <nFaRing>
0

>  <nFaHRing>
0

>  <nFARing 2>
1

>  <nFAHRing 2>
0

>  <nRot>
4

>  <SLogP>
0.31

>  <SMR>
134.73

>  <TopoPSA(NO)>
170.87

>  <TopoPSA>
170.87

>  <JGI1>
0.23

>  <JGI2>
0.11

>  <JGI3>
0.07

>  <JGI4>
0.06

>  <JGI5>
0.04

>  <Diameter>
15

>  <Radius>
8

>  <TMWC10>
162.87

>  <TSRW10>
89.23

>  <MW>
527.23

>  <AMW>
7.43

>  <WPath>
4072

>  <WPol>
83

>  <Zagreb1>
218

>  <Zagreb2>
276

>  <mZagreb2>
8

>  <yes>


>  <nAR-cont>
0.199399

>  <nHA-cont>
0.390024847

>  <MWHBN>
0.696818906

>  <MWHBN-cont>
0

>  <TPSA-cont>
0

>  <pka_cont>
0.97

>  <yes.1>


>  <BBB_SCORE>
1.074423847

>  <MMFF94 Energy>
84.625

$$$$
Compound 2045
Actelion Java MolfileCreator 2.0

  0  0  0  0  0  0              0 V3000
M  V30 BEGIN CTAB
M  V30 COUNTS 71 75 0 0 0
M  V30 BEGIN ATOM
M  V30 1 O 3.6169 1.3652 -0.6422 0
M  V30 2 C 3.4484 0.3279 -0.0111 0
M  V30 3 C 4.2634 -0.1021 1.1582 0
M  V30 4 C 2.2923 -0.5464 -0.3193 0
M  V30 5 C 4.8683 0.8475 1.9945 0
M  V30 6 C 4.3798 -1.4824 1.4427 0
M  V30 7 C 1.1384 -7.0E-4 -0.7535 0
M  V30 8 C 2.3597 -2.0209 -0.0119 0 CFG=1
M  V30 9 O 4.7014 2.1843 1.7682 0
M  V30 10 C 5.61 0.4417 3.1025 0
M  V30 11 C 5.1383 -1.8682 2.5618 0
M  V30 12 C 3.7627 -2.4872 0.4844 0
M  V30 13 O 0.9907 1.3342 -1.0727 0
M  V30 14 C -0.1056 -0.8603 -0.7367 0
M  V30 15 C 1.1643 -2.4195 0.8857 0
M  V30 16 C 5.7446 -0.9149 3.3832 0
M  V30 17 O 4.6604 -2.4821 -0.6426 0
M  V30 18 C 3.7242 -3.9406 0.9831 0
M  V30 19 O -0.0018 -1.7963 -1.8237 0
M  V30 20 C -1.4023 -0.0648 -0.9491 0
M  V30 21 C -0.1705 -1.647 0.5829 0 CFG=1
M  V30 22 O -1.9388 -0.0246 -2.0639 0
M  V30 23 C -1.9796 0.685 0.1998 0
M  V30 24 C -0.5321 -0.7087 1.7784 0 CFG=1
M  V30 25 C -1.5453 0.3897 1.4461 0
M  V30 26 C -2.9952 1.7712 0.0062 0
M  V30 27 N -0.8556 -1.5816 2.9371 0
M  V30 28 O -1.9612 1.1093 2.5663 0
M  V30 29 O -3.4318 2.4051 0.9675 0
M  V30 30 N -3.398 2.005 -1.2759 0
M  V30 31 C -0.4846 -0.9862 4.2212 0
M  V30 32 C -2.2376 -2.0586 2.9747 0
M  V30 33 C -4.3528 3.0189 -1.5984 0
M  V30 34 N -4.5553 3.0984 -3.0267 0
M  V30 35 C -5.1696 1.9398 -3.6609 0
M  V30 36 C -3.3987 3.4793 -3.824 0
M  V30 37 C -4.9037 2.1478 -5.1496 0
M  V30 38 C -3.9414 3.3275 -5.2341 0
M  V30 39 H 2.2111 -2.5358 -0.9736 0
M  V30 40 H 5.3201 2.6904 2.3185 0
M  V30 41 H 6.0782 1.1666 3.762 0
M  V30 42 H 5.2883 -2.9164 2.8082 0
M  V30 43 H 1.892 1.7411 -1.0843 0
M  V30 44 H 1.4481 -2.3045 1.9386 0
M  V30 45 H 0.9685 -3.4909 0.7465 0
M  V30 46 H 6.328 -1.2353 4.2438 0
M  V30 47 H 4.3196 -3.1019 -1.3102 0
M  V30 48 H 3.237 -4.5891 0.2452 0
M  V30 49 H 3.1919 -4.0408 1.9346 0
M  V30 50 H 4.735 -4.3466 1.1093 0
M  V30 51 H -0.2789 -1.2985 -2.6202 0
M  V30 52 H -0.9563 -2.4077 0.4705 0
M  V30 53 H 0.3923 -0.1654 2.0264 0
M  V30 54 H -2.6109 1.7983 2.2945 0
M  V30 55 H -3.0309 1.4284 -2.0267 0
M  V30 56 H -1.0978 -0.1225 4.4935 0
M  V30 57 H 0.5672 -0.6792 4.2196 0
M  V30 58 H -0.5831 -1.7288 5.0216 0
M  V30 59 H -2.9574 -1.2646 3.2004 0
M  V30 60 H -2.5299 -2.5275 2.0299 0
M  V30 61 H -2.3453 -2.8315 3.7446 0
M  V30 62 H -5.2929 2.7924 -1.0816 0
M  V30 63 H -3.9968 3.9771 -1.2019 0
M  V30 64 H -6.2436 1.8935 -3.4533 0
M  V30 65 H -4.7217 0.9906 -3.3454 0
M  V30 66 H -3.077 4.507 -3.6287 0
M  V30 67 H -2.5445 2.8076 -3.68 0
M  V30 68 H -5.8255 2.3628 -5.7008 0
M  V30 69 H -4.4516 1.2498 -5.5851 0
M  V30 70 H -4.4907 4.2302 -5.5295 0
M  V30 71 H -3.1486 3.1609 -5.9696 0
M  V30 END ATOM
M  V30 BEGIN BOND
M  V30 1 2 1 2
M  V30 2 1 2 3
M  V30 3 1 2 4
M  V30 4 2 3 5
M  V30 5 1 3 6
M  V30 6 2 4 7
M  V30 7 1 4 8
M  V30 8 1 5 9
M  V30 9 1 5 10
M  V30 10 2 6 11
M  V30 11 1 6 12
M  V30 12 1 7 13
M  V30 13 1 7 14
M  V30 14 1 8 15
M  V30 15 2 10 16
M  V30 16 1 12 17
M  V30 17 1 12 18
M  V30 18 1 14 19
M  V30 19 1 14 20
M  V30 20 1 14 21
M  V30 21 2 20 22
M  V30 22 1 20 23
M  V30 23 1 21 24
M  V30 24 2 23 25
M  V30 25 1 23 26
M  V30 26 1 24 27
M  V30 27 1 25 28
M  V30 28 2 26 29
M  V30 29 1 26 30
M  V30 30 1 27 31
M  V30 31 1 27 32
M  V30 32 1 30 33
M  V30 33 1 33 34
M  V30 34 1 34 35
M  V30 35 1 34 36
M  V30 36 1 35 37
M  V30 37 1 36 38
M  V30 38 1 8 12
M  V30 39 1 11 16
M  V30 40 1 15 21
M  V30 41 1 24 25
M  V30 42 1 37 38
M  V30 43 1 8 39
M  V30 44 1 9 40
M  V30 45 1 10 41
M  V30 46 1 11 42
M  V30 47 1 13 43
M  V30 48 1 15 44
M  V30 49 1 15 45
M  V30 50 1 16 46
M  V30 51 1 17 47
M  V30 52 1 18 48
M  V30 53 1 18 49
M  V30 54 1 18 50
M  V30 55 1 19 51
M  V30 56 1 21 52
M  V30 57 1 24 53
M  V30 58 1 28 54
M  V30 59 1 30 55
M  V30 60 1 31 56
M  V30 61 1 31 57
M  V30 62 1 31 58
M  V30 63 1 32 59
M  V30 64 1 32 60
M  V30 65 1 32 61
M  V30 66 1 33 62
M  V30 67 1 33 63
M  V30 68 1 35 64
M  V30 69 1 35 65
M  V30 70 1 36 66
M  V30 71 1 36 67
M  V30 72 1 37 68
M  V30 73 1 37 69
M  V30 74 1 38 70
M  V30 75 1 38 71
M  V30 END BOND
M  V30 BEGIN COLLECTION
M  V30 MDLV30/STEABS ATOMS=(3 8 21 24)
M  V30 END COLLECTION
M  V30 END CTAB
M  END
>  <Column 1>
2496

>  <level_0>
3175

>  <index>
3175

>  <Unnamed: 0>
3175

>  <NO.>
3187

>  <Name>


>  <IUPAC_name>


>  <SMILES>
CN(C)[C@@H]1C(O)=C(C(=O)NCN2CCCC2)C(=O)C2(O)C(O)=C3C(=O)c4c(O)cccc4C(C)(O)[C@H]3C[C@@H]12

>  <CID>


>  <logBB>


>  <BBB+/BBB->
BBB-

>  <Inchi>
InChI=1S/C27H33N3O8/c1-26(37)13-7-6-8-16(31)17(13)21(32)18-14(26)11-15-20(29(2)3)22(33)19(24(35)27(15-38)23(18)34)25(36)28-12-30-9-4-5-10-30/h6-8-14-15-20-31-33-34-37-38H-4-5-9-12H2-1-3H3-(H-28-36)/t14--15--20--26?-27?/m0/s1

>  <threshold>
-1

>  <reference>
R13|

>  <group>
B

>  <Class>
-1

>  <ABC>
30.26

>  <ABCGG>
24.51

>  <nAcid>
0

>  <nBase>
2

>  <nAromAtom>
6

>  <nAromBond>
6

>  <nAtom>
71

>  <nHeavyAtom>
38

>  <nSpiro>
0

>  <nBridgehead>
0

>  <nHetero>
11

>  <nN>
3

>  <nO>
8

>  <nF>
0

>  <BalabanJ>
1.49

>  <BertzCT>
1292.99

>  <nBonds>
75

>  <nBondsO>
42

>  <nBondsS>
64

>  <nBondsD>
5

>  <nBondsT>
0

>  <nBondsA>
6

>  <nBondsM>
11

>  <nBondsKS>
67

>  <nBondsKD>
8

>  <RNCG>
0.12

>  <RPCG>
0.07

>  <FCSP3>
0.52

>  <SZ>
46.67

>  <Sm>
43.92

>  <Sv>
43.93

>  <Sse>
72.28

>  <Sp>
45.99

>  <Si>
80.4

>  <MZ>
0.66

>  <Mm>
0.62

>  <Mv>
0.62

>  <Mse>
1.02

>  <Mp>
0.65

>  <Mi>
1.13

>  <NsCH3>
3

>  <NdCH2>
0

>  <NssCH2>
6

>  <NtCH>
0

>  <NdsCH>
0

>  <NaaCH>
3

>  <NsssCH>
3

>  <NddC>
0

>  <NtsC>
0

>  <NdssC>
7

>  <NaasC>
3

>  <NaaaC>
0

>  <NssssC>
2

>  <NsNH3>
0

>  <NsNH2>
0

>  <NssNH2>
0

>  <NdNH>
0

>  <NssNH>
1

>  <NaaNH>
0

>  <NtN>
0

>  <NsssNH>
0

>  <NdsN>
0

>  <NaaN>
0

>  <NsssN>
2

>  <NddsN>
0

>  <NaasN>
0

>  <NssssN>
0

>  <NsOH>
5

>  <NdO>
3

>  <NssO>
0

>  <NaaO>
0

>  <NsF>
0

>  <NsSiH3>
0

>  <NssSiH2>
0

>  <NsssSiH>
0

>  <NssssSi>
0

>  <NsPH2>
0

>  <NssPH>
0

>  <NsssP>
0

>  <NdsssP>
0

>  <NsssssP>
0

>  <NsSH>
0

>  <NdS>
0

>  <NssS>
0

>  <NaaS>
0

>  <NdssS>
0

>  <NddssS>
0

>  <NsCl>
0

>  <NsBr>
0

>  <NsI>
0

>  <fragCpx>
358.11

>  <fMF>
0.37

>  <nHBAcc>
10

>  <nHBDon>
6

>  <Kier1>
29.49

>  <Kier2>
10.68

>  <Lipinski>
0

>  <GhoseFilter>
0

>  <FilterItLogS>
-2.54

>  <VMcGowan>
379.49

>  <LabuteASA>
219.22

>  <PEOE_VSA1>
30.85

>  <PEOE_VSA2>
24.18

>  <PEOE_VSA3>
0

>  <PEOE_VSA4>
0

>  <PEOE_VSA5>
0

>  <PEOE_VSA6>
12.13

>  <PEOE_VSA7>
65

>  <PEOE_VSA8>
17.41

>  <PEOE_VSA9>
23.88

>  <PEOE_VSA10>
22.84

>  <PEOE_VSA11>
11.38

>  <PEOE_VSA12>
5.78

>  <PEOE_VSA13>
5.91

>  <SMR_VSA1>
39.92

>  <SMR_VSA2>
0

>  <SMR_VSA3>
15.12

>  <SMR_VSA4>
11.84

>  <SMR_VSA5>
43.43

>  <SMR_VSA6>
33.85

>  <SMR_VSA7>
51.99

>  <SMR_VSA8>
0

>  <SMR_VSA9>
5.75

>  <SlogP_VSA1>
5.32

>  <SlogP_VSA2>
98.3

>  <SlogP_VSA3>
15.19

>  <SlogP_VSA4>
11.84

>  <SlogP_VSA5>
42.11

>  <SlogP_VSA6>
40.86

>  <SlogP_VSA7>
0

>  <SlogP_VSA8>
0

>  <SlogP_VSA9>
0

>  <SlogP_VSA10>
0

>  <SlogP_VSA11>
5.75

>  <EState_VSA1>
74.97

>  <EState_VSA2>
24.22

>  <EState_VSA3>
0

>  <EState_VSA4>
25.93

>  <EState_VSA5>
30.02

>  <EState_VSA6>
14.1

>  <EState_VSA7>
4.9

>  <EState_VSA8>
5.32

>  <EState_VSA9>
0

>  <EState_VSA10>
39.92

>  <VSA_EState1>
0

>  <VSA_EState2>
44.03

>  <VSA_EState3>
59.22

>  <VSA_EState4>
-5.65

>  <VSA_EState5>
-7.17

>  <VSA_EState6>
3.16

>  <VSA_EState7>
1.78

>  <VSA_EState8>
3.12

>  <VSA_EState9>
3.18

>  <apol>
76.81

>  <bpol>
39.7

>  <nRing>
5

>  <nHRing>
1

>  <naRing>
1

>  <naHRing>
0

>  <nARing 2>
4

>  <nAHRing 2>
1

>  <nFRing>
1

>  <nFHRing>
0

>  <nFaRing>
0

>  <nFaHRing>
0

>  <nFARing 2>
1

>  <nFAHRing 2>
0

>  <nRot>
4

>  <SLogP>
0.47

>  <SMR>
134.16

>  <TopoPSA(NO)>
170.87

>  <TopoPSA>
170.87

>  <JGI1>
0.23

>  <JGI2>
0.11

>  <JGI3>
0.07

>  <JGI4>
0.06

>  <JGI5>
0.04

>  <Diameter>
15

>  <Radius>
8

>  <TMWC10>
162.87

>  <TSRW10>
89.23

>  <MW>
527.23

>  <AMW>
7.43

>  <WPath>
4072

>  <WPol>
83

>  <Zagreb1>
218

>  <Zagreb2>
276

>  <mZagreb2>
8

>  <yes>


>  <nAR-cont>
0.199399

>  <nHA-cont>
0.390024847

>  <MWHBN>
0.696818906

>  <MWHBN-cont>
0

>  <TPSA-cont>
0

>  <pka_cont>
0.97

>  <yes.1>


>  <BBB_SCORE>
1.074423847

>  <MMFF94 Energy>
71.435

$$$$
Compound 2046
Actelion Java MolfileCreator 2.0

  0  0  0  0  0  0              0 V3000
M  V30 BEGIN CTAB
M  V30 COUNTS 60 63 0 0 0
M  V30 BEGIN ATOM
M  V30 1 O -1.6829 -2.4851 -2.5653 0
M  V30 2 C -1.5146 -1.3889 -2.0436 0
M  V30 3 C -2.2547 -0.1538 -2.4165 0
M  V30 4 C -0.4591 -1.2136 -1.0141 0
M  V30 5 C -2.7638 0.018 -3.709 0
M  V30 6 C -2.4074 0.8651 -1.4519 0
M  V30 7 C 0.7039 -1.8783 -1.1459 0
M  V30 8 C -0.642 -0.1974 0.0669 0 CFG=2
M  V30 9 O -2.5708 -0.9327 -4.6691 0
M  V30 10 C -3.4411 1.1861 -4.0443 0
M  V30 11 C -3.1008 2.0473 -1.7863 0
M  V30 12 C -1.9466 0.6058 -0.0377 0
M  V30 13 O 0.9242 -2.831 -2.1335 0
M  V30 14 C 1.9086 -1.5685 -0.2614 0
M  V30 15 C 0.6061 0.6923 0.0985 0
M  V30 16 C -3.6048 2.1891 -3.0884 0
M  V30 17 N -3.2651 3.0637 -0.8431 0
M  V30 18 O 3.0753 -1.8075 -1.0618 0
M  V30 19 C 1.8702 -2.6096 0.8888 0
M  V30 20 C 1.9584 -0.0877 0.2172 0 CFG=1
M  V30 21 C -4.626 3.5122 -0.5774 0
M  V30 22 C -2.2195 4.0807 -0.8496 0
M  V30 23 O 2.1376 -3.8035 0.7166 0
M  V30 24 C 1.388 -2.1483 2.2191 0
M  V30 25 C 2.534 0.0128 1.6629 0 CFG=1
M  V30 26 C 1.6706 -0.8719 2.5517 0
M  V30 27 C 0.6276 -3.0172 3.1506 0
M  V30 28 N 3.9634 -0.3765 1.8111 0
M  V30 29 O 1.2352 -0.2602 3.7195 0
M  V30 30 O 0.1154 -2.5701 4.1747 0
M  V30 31 N 0.518 -4.3263 2.8164 0
M  V30 32 C 4.8492 0.3653 0.9057 0
M  V30 33 C 4.4384 -0.165 3.1894 0
M  V30 34 H -0.706 -0.7244 1.0264 0
M  V30 35 H -3.0806 -0.711 -5.4644 0
M  V30 36 H -3.8346 1.3427 -5.0441 0
M  V30 37 H -2.7511 0.0387 0.4518 0
M  V30 38 H -1.839 1.5316 0.5374 0
M  V30 39 H 0.0622 -3.025 -2.5722 0
M  V30 40 H 0.5186 1.437 0.8993 0
M  V30 41 H 0.6406 1.2751 -0.8339 0
M  V30 42 H -4.1238 3.1012 -3.3732 0
M  V30 43 H 2.8839 -2.645 -1.5326 0
M  V30 44 H 2.6316 0.4702 -0.4463 0
M  V30 45 H -5.0098 4.1366 -1.3913 0
M  V30 46 H -4.653 4.1052 0.3431 0
M  V30 47 H -5.3004 2.6604 -0.4343 0
M  V30 48 H -1.2213 3.6295 -0.8193 0
M  V30 49 H -2.3114 4.7249 0.0314 0
M  V30 50 H -2.2915 4.7117 -1.7424 0
M  V30 51 H 2.433 1.0577 1.9896 0
M  V30 52 H 0.7318 -0.9192 4.2528 0
M  V30 53 H 0.9949 -4.7119 2.0016 0
M  V30 54 H 0.0161 -4.9564 3.4261 0
M  V30 55 H 4.7301 1.4495 1.0125 0
M  V30 56 H 4.6834 0.0925 -0.1393 0
M  V30 57 H 5.8995 0.1179 1.1012 0
M  V30 58 H 4.3281 0.8782 3.5067 0
M  V30 59 H 3.9122 -0.8071 3.9028 0
M  V30 60 H 5.4965 -0.4388 3.2777 0
M  V30 END ATOM
M  V30 BEGIN BOND
M  V30 1 2 1 2
M  V30 2 1 2 3
M  V30 3 1 2 4
M  V30 4 2 3 5
M  V30 5 1 3 6
M  V30 6 2 4 7
M  V30 7 1 4 8
M  V30 8 1 5 9
M  V30 9 1 5 10
M  V30 10 2 6 11
M  V30 11 1 6 12
M  V30 12 1 7 13
M  V30 13 1 7 14
M  V30 14 1 8 15
M  V30 15 2 10 16
M  V30 16 1 11 17
M  V30 17 1 14 18
M  V30 18 1 14 19
M  V30 19 1 14 20
M  V30 20 1 17 21
M  V30 21 1 17 22
M  V30 22 2 19 23
M  V30 23 1 19 24
M  V30 24 1 20 25
M  V30 25 2 24 26
M  V30 26 1 24 27
M  V30 27 1 25 28
M  V30 28 1 26 29
M  V30 29 2 27 30
M  V30 30 1 27 31
M  V30 31 1 28 32
M  V30 32 1 28 33
M  V30 33 1 8 12
M  V30 34 1 11 16
M  V30 35 1 15 20
M  V30 36 1 25 26
M  V30 37 1 8 34
M  V30 38 1 9 35
M  V30 39 1 10 36
M  V30 40 1 12 37
M  V30 41 1 12 38
M  V30 42 1 13 39
M  V30 43 1 15 40
M  V30 44 1 15 41
M  V30 45 1 16 42
M  V30 46 1 18 43
M  V30 47 1 20 44
M  V30 48 1 21 45
M  V30 49 1 21 46
M  V30 50 1 21 47
M  V30 51 1 22 48
M  V30 52 1 22 49
M  V30 53 1 22 50
M  V30 54 1 25 51
M  V30 55 1 29 52
M  V30 56 1 31 53
M  V30 57 1 31 54
M  V30 58 1 32 55
M  V30 59 1 32 56
M  V30 60 1 32 57
M  V30 61 1 33 58
M  V30 62 1 33 59
M  V30 63 1 33 60
M  V30 END BOND
M  V30 BEGIN COLLECTION
M  V30 MDLV30/STEABS ATOMS=(3 8 20 25)
M  V30 END COLLECTION
M  V30 END CTAB
M  END
>  <Column 1>
2508

>  <level_0>
3189

>  <index>
3189

>  <Unnamed: 0>
3189

>  <NO.>
3201

>  <Name>


>  <IUPAC_name>


>  <SMILES>
CN(C)c1ccc(O)c2c1C[C@@H]1C[C@H]3[C@H](N(C)C)C(O)=C(C(N)=O)C(=O)C3(O)C(O)=C1C2=O

>  <CID>


>  <logBB>


>  <BBB+/BBB->
BBB+

>  <Inchi>
InChI=1S/C23H27N3O7/c1-25(2)12-5-6-13(27)15-10(12)7-9-8-11-17(26(3)4)19(29)16(22(24)32)21(31)23(11-33)20(30)14(9)18(15)28/h5-6-9-11-17-27-29-30-33H-7-8H2-1-4H3-(H2-24-32)/t9--11+-17+-23?/m1/s1

>  <threshold>
-1

>  <reference>
R13|

>  <group>
B

>  <Class>
1

>  <ABC>
26.07

>  <ABCGG>
21.46

>  <nAcid>
0

>  <nBase>
1

>  <nAromAtom>
6

>  <nAromBond>
6

>  <nAtom>
60

>  <nHeavyAtom>
33

>  <nSpiro>
0

>  <nBridgehead>
0

>  <nHetero>
10

>  <nN>
3

>  <nO>
7

>  <nF>
0

>  <BalabanJ>
1.75

>  <BertzCT>
1166.83

>  <nBonds>
63

>  <nBondsO>
36

>  <nBondsS>
52

>  <nBondsD>
5

>  <nBondsT>
0

>  <nBondsA>
6

>  <nBondsM>
11

>  <nBondsKS>
55

>  <nBondsKD>
8

>  <RNCG>
0.13

>  <RPCG>
0.07

>  <FCSP3>
0.43

>  <SZ>
40.33

>  <Sm>
38.09

>  <Sv>
37.59

>  <Sse>
61.29

>  <Sp>
39.12

>  <Si>
67.94

>  <MZ>
0.67

>  <Mm>
0.63

>  <Mv>
0.63

>  <Mse>
1.02

>  <Mp>
0.65

>  <Mi>
1.13

>  <NsCH3>
4

>  <NdCH2>
0

>  <NssCH2>
2

>  <NtCH>
0

>  <NdsCH>
0

>  <NaaCH>
2

>  <NsssCH>
3

>  <NddC>
0

>  <NtsC>
0

>  <NdssC>
7

>  <NaasC>
4

>  <NaaaC>
0

>  <NssssC>
1

>  <NsNH3>
0

>  <NsNH2>
1

>  <NssNH2>
0

>  <NdNH>
0

>  <NssNH>
0

>  <NaaNH>
0

>  <NtN>
0

>  <NsssNH>
0

>  <NdsN>
0

>  <NaaN>
0

>  <NsssN>
2

>  <NddsN>
0

>  <NaasN>
0

>  <NssssN>
0

>  <NsOH>
4

>  <NdO>
3

>  <NssO>
0

>  <NaaO>
0

>  <NsF>
0

>  <NsSiH3>
0

>  <NssSiH2>
0

>  <NsssSiH>
0

>  <NssssSi>
0

>  <NsPH2>
0

>  <NssPH>
0

>  <NsssP>
0

>  <NdsssP>
0

>  <NsssssP>
0

>  <NsSH>
0

>  <NdS>
0

>  <NssS>
0

>  <NaaS>
0

>  <NdssS>
0

>  <NddssS>
0

>  <NsCl>
0

>  <NsBr>
0

>  <NsI>
0

>  <fragCpx>
240.1

>  <fMF>
0.3

>  <nHBAcc>
9

>  <nHBDon>
5

>  <Kier1>
26.07

>  <Kier2>
9.14

>  <Lipinski>
1

>  <GhoseFilter>
1

>  <FilterItLogS>
-1.82

>  <VMcGowan>
328.12

>  <LabuteASA>
189.76

>  <PEOE_VSA1>
31.06

>  <PEOE_VSA2>
19.28

>  <PEOE_VSA3>
0

>  <PEOE_VSA4>
0

>  <PEOE_VSA5>
0

>  <PEOE_VSA6>
0

>  <PEOE_VSA7>
50.55

>  <PEOE_VSA8>
31.27

>  <PEOE_VSA9>
11.61

>  <PEOE_VSA10>
22.84

>  <PEOE_VSA11>
11.38

>  <PEOE_VSA12>
5.78

>  <PEOE_VSA13>
5.91

>  <SMR_VSA1>
34.81

>  <SMR_VSA2>
0

>  <SMR_VSA3>
4.9

>  <SMR_VSA4>
17.57

>  <SMR_VSA5>
24.48

>  <SMR_VSA6>
33.09

>  <SMR_VSA7>
45.92

>  <SMR_VSA8>
0

>  <SMR_VSA9>
5.75

>  <SlogP_VSA1>
10.63

>  <SlogP_VSA2>
82.63

>  <SlogP_VSA3>
16.01

>  <SlogP_VSA4>
11.84

>  <SlogP_VSA5>
22.34

>  <SlogP_VSA6>
34.8

>  <SlogP_VSA7>
0

>  <SlogP_VSA8>
0

>  <SlogP_VSA9>
0

>  <SlogP_VSA10>
5.69

>  <SlogP_VSA11>
5.75

>  <EState_VSA1>
58.04

>  <EState_VSA2>
29.73

>  <EState_VSA3>
5.56

>  <EState_VSA4>
5.69

>  <EState_VSA5>
10.97

>  <EState_VSA6>
39.16

>  <EState_VSA7>
0

>  <EState_VSA8>
0

>  <EState_VSA9>
5.73

>  <EState_VSA10>
34.81

>  <VSA_EState1>
0

>  <VSA_EState2>
42

>  <VSA_EState3>
43.92

>  <VSA_EState4>
3.02

>  <VSA_EState5>
-6.53

>  <VSA_EState6>
2.06

>  <VSA_EState7>
0.32

>  <VSA_EState8>
0

>  <VSA_EState9>
6.79

>  <apol>
65.33

>  <bpol>
32.54

>  <nRing>
4

>  <nHRing>
0

>  <naRing>
1

>  <naHRing>
0

>  <nARing 2>
3

>  <nAHRing 2>
0

>  <nFRing>
1

>  <nFHRing>
0

>  <nFaRing>
0

>  <nFaHRing>
0

>  <nFARing 2>
1

>  <nFAHRing 2>
0

>  <nRot>
3

>  <SLogP>
0.19

>  <SMR>
118

>  <TopoPSA(NO)>
164.63

>  <TopoPSA>
164.63

>  <JGI1>
0.24

>  <JGI2>
0.1

>  <JGI3>
0.07

>  <JGI4>
0.06

>  <JGI5>
0.04

>  <Diameter>
12

>  <Radius>
6

>  <TMWC10>
150.6

>  <TSRW10>
70.43

>  <MW>
457.18

>  <AMW>
7.62

>  <WPath>
2672

>  <WPol>
75

>  <Zagreb1>
188

>  <Zagreb2>
239

>  <mZagreb2>
6.97

>  <yes>


>  <nAR-cont>
0.691115

>  <nHA-cont>
0.61399562

>  <MWHBN>
0.654763443

>  <MWHBN-cont>
0

>  <TPSA-cont>
0

>  <pka_cont>
0.97

>  <yes.1>


>  <BBB_SCORE>
1.79011062

>  <MMFF94 Energy>
96.157

$$$$
Compound 2047
Actelion Java MolfileCreator 2.0

  0  0  0  0  0  0              0 V3000
M  V30 BEGIN CTAB
M  V30 COUNTS 45 49 0 0 0
M  V30 BEGIN ATOM
M  V30 1 O -1.3747 0.2425 -2.1841 0
M  V30 2 C -1.464 -0.878 -1.3862 0
M  V30 3 C -0.2906 1.0186 -1.5566 0
M  V30 4 C -2.047 -2.0867 -1.6896 0
M  V30 5 C -0.7933 -0.7145 -0.1904 0
M  V30 6 C 1.0681 0.7456 -2.2928 0
M  V30 7 C -0.3252 0.6884 -0.0525 0
M  V30 8 O -2.7099 -2.2477 -2.8662 0
M  V30 9 C -1.9035 -3.1402 -0.7772 0
M  V30 10 C -0.5819 -1.7373 0.7144 0
M  V30 11 O 1.1645 1.6862 -3.3837 0
M  V30 12 C 2.2745 1.0122 -1.3757 0
M  V30 13 C 1.2096 -0.6403 -2.9458 0
M  V30 14 C 0.9777 0.7578 0.7389 0 CFG=2
M  V30 15 C -1.3912 1.4987 0.7224 0
M  V30 16 C -1.1577 -2.9715 0.4117 0
M  V30 17 C 0.3048 -1.4731 1.905 0
M  V30 18 C 2.187 0.254 -0.0494 0
M  V30 19 C 0.7254 0.0315 2.0909 0
M  V30 20 C -1.5538 1.0029 2.1709 0
M  V30 21 N -0.2963 0.7558 2.8968 0
M  V30 22 C 0.224 1.9844 3.4961 0
M  V30 23 H -0.5505 2.0758 -1.7015 0
M  V30 24 H -3.0716 -3.1469 -2.9002 0
M  V30 25 H -2.3393 -4.1138 -0.9831 0
M  V30 26 H 0.3986 1.5184 -3.9646 0
M  V30 27 H 2.3563 2.0902 -1.1808 0
M  V30 28 H 3.2062 0.7454 -1.8907 0
M  V30 29 H 2.1569 -0.7086 -3.4945 0
M  V30 30 H 0.428 -0.8115 -3.6944 0
M  V30 31 H 1.1885 -1.4572 -2.2205 0
M  V30 32 H 1.2007 1.8143 0.943 0
M  V30 33 H -2.3691 1.4549 0.2254 0
M  V30 34 H -1.0992 2.557 0.7349 0
M  V30 35 H -1.0293 -3.815 1.0862 0
M  V30 36 H -0.1786 -1.843 2.8176 0
M  V30 37 H 1.2201 -2.0635 1.7681 0
M  V30 38 H 3.0991 0.4385 0.5306 0
M  V30 39 H 2.1439 -0.8253 -0.2235 0
M  V30 40 H 1.6564 0.0146 2.6731 0
M  V30 41 H -2.1849 1.7102 2.7248 0
M  V30 42 H -2.1351 0.0728 2.1694 0
M  V30 43 H 1.1406 1.7833 4.0614 0
M  V30 44 H -0.4969 2.3878 4.2163 0
M  V30 45 H 0.436 2.7669 2.7612 0
M  V30 END ATOM
M  V30 BEGIN BOND
M  V30 1 1 1 2
M  V30 2 1 1 3
M  V30 3 2 2 4
M  V30 4 1 2 5
M  V30 5 1 3 6
M  V30 6 1 3 7
M  V30 7 1 4 8
M  V30 8 1 4 9
M  V30 9 2 5 10
M  V30 10 1 6 11
M  V30 11 1 6 12
M  V30 12 1 6 13
M  V30 13 1 7 14
M  V30 14 1 7 15
M  V30 15 2 9 16
M  V30 16 1 10 17
M  V30 17 1 12 18
M  V30 18 1 14 19
M  V30 19 1 15 20
M  V30 20 1 19 21
M  V30 21 1 21 22
M  V30 22 1 5 7
M  V30 23 1 10 16
M  V30 24 1 14 18
M  V30 25 1 17 19
M  V30 26 1 20 21
M  V30 27 1 3 23
M  V30 28 1 8 24
M  V30 29 1 9 25
M  V30 30 1 11 26
M  V30 31 1 12 27
M  V30 32 1 12 28
M  V30 33 1 13 29
M  V30 34 1 13 30
M  V30 35 1 13 31
M  V30 36 1 14 32
M  V30 37 1 15 33
M  V30 38 1 15 34
M  V30 39 1 16 35
M  V30 40 1 17 36
M  V30 41 1 17 37
M  V30 42 1 18 38
M  V30 43 1 18 39
M  V30 44 1 19 40
M  V30 45 1 20 41
M  V30 46 1 20 42
M  V30 47 1 22 43
M  V30 48 1 22 44
M  V30 49 1 22 45
M  V30 END BOND
M  V30 BEGIN COLLECTION
M  V30 MDLV30/STEABS ATOMS=(1 14)
M  V30 END COLLECTION
M  V30 END CTAB
M  END
>  <Column 1>
2509

>  <level_0>
3207

>  <index>
3207

>  <Unnamed: 0>
3207

>  <NO.>
3219

>  <Name>


>  <IUPAC_name>


>  <SMILES>
CN1CCC23c4c5ccc(O)c4OC2C(C)(O)CC[C@@H]3C1C5

>  <CID>


>  <logBB>


>  <BBB+/BBB->
BBB+

>  <Inchi>
InChI=1S/C18H23NO3/c1-17(21)6-5-11-12-9-10-3-4-13(20)15-14(10)18(11-16(17)22-15)7-8-19(12)2/h3-4-11-12-16-20-21H-5-9H2-1-2H3/t11--12?-16?-17?-18?/m1/s1

>  <threshold>
-1

>  <reference>
R13|

>  <group>
B

>  <Class>
1

>  <ABC>
18.47

>  <ABCGG>
14.26

>  <nAcid>
0

>  <nBase>
1

>  <nAromAtom>
6

>  <nAromBond>
6

>  <nAtom>
45

>  <nHeavyAtom>
22

>  <nSpiro>
1

>  <nBridgehead>
2

>  <nHetero>
4

>  <nN>
1

>  <nO>
3

>  <nF>
0

>  <BalabanJ>
1.67

>  <BertzCT>
670.54

>  <nBonds>
49

>  <nBondsO>
26

>  <nBondsS>
43

>  <nBondsD>
0

>  <nBondsT>
0

>  <nBondsA>
6

>  <nBondsM>
6

>  <nBondsKS>
46

>  <nBondsKD>
3

>  <RNCG>
0.26

>  <RPCG>
0.15

>  <FCSP3>
0.67

>  <SZ>
27

>  <Sm>
25.09

>  <Sv>
27.13

>  <Sse>
44.87

>  <Sp>
29.28

>  <Si>
50.69

>  <MZ>
0.6

>  <Mm>
0.56

>  <Mv>
0.6

>  <Mse>
1

>  <Mp>
0.65

>  <Mi>
1.13

>  <NsCH3>
2

>  <NdCH2>
0

>  <NssCH2>
5

>  <NtCH>
0

>  <NdsCH>
0

>  <NaaCH>
2

>  <NsssCH>
3

>  <NddC>
0

>  <NtsC>
0

>  <NdssC>
0

>  <NaasC>
4

>  <NaaaC>
0

>  <NssssC>
2

>  <NsNH3>
0

>  <NsNH2>
0

>  <NssNH2>
0

>  <NdNH>
0

>  <NssNH>
0

>  <NaaNH>
0

>  <NtN>
0

>  <NsssNH>
0

>  <NdsN>
0

>  <NaaN>
0

>  <NsssN>
1

>  <NddsN>
0

>  <NaasN>
0

>  <NssssN>
0

>  <NsOH>
2

>  <NdO>
0

>  <NssO>
1

>  <NaaO>
0

>  <NsF>
0

>  <NsSiH3>
0

>  <NssSiH2>
0

>  <NsssSiH>
0

>  <NssssSi>
0

>  <NsPH2>
0

>  <NssPH>
0

>  <NsssP>
0

>  <NdsssP>
0

>  <NsssssP>
0

>  <NsSH>
0

>  <NdS>
0

>  <NssS>
0

>  <NaaS>
0

>  <NdssS>
0

>  <NddssS>
0

>  <NsCl>
0

>  <NsBr>
0

>  <NsI>
0

>  <fragCpx>
214.04

>  <fMF>
0.4

>  <nHBAcc>
4

>  <nHBDon>
2

>  <Kier1>
14.35

>  <Kier2>
4.34

>  <Lipinski>
1

>  <GhoseFilter>
1

>  <FilterItLogS>
-2.83

>  <VMcGowan>
224.87

>  <LabuteASA>
130.25

>  <PEOE_VSA1>
19.85

>  <PEOE_VSA2>
0

>  <PEOE_VSA3>
0

>  <PEOE_VSA4>
0

>  <PEOE_VSA5>
0

>  <PEOE_VSA6>
6.07

>  <PEOE_VSA7>
63.75

>  <PEOE_VSA8>
17.02

>  <PEOE_VSA9>
5.6

>  <PEOE_VSA10>
6.1

>  <PEOE_VSA11>
11.5

>  <PEOE_VSA12>
0

>  <PEOE_VSA13>
0

>  <SMR_VSA1>
14.95

>  <SMR_VSA2>
0

>  <SMR_VSA3>
4.9

>  <SMR_VSA4>
5.92

>  <SMR_VSA5>
55.77

>  <SMR_VSA6>
13.59

>  <SMR_VSA7>
23.26

>  <SMR_VSA8>
0

>  <SMR_VSA9>
11.5

>  <SlogP_VSA1>
4.74

>  <SlogP_VSA2>
46.45

>  <SlogP_VSA3>
11.84

>  <SlogP_VSA4>
5.92

>  <SlogP_VSA5>
37.31

>  <SlogP_VSA6>
12.13

>  <SlogP_VSA7>
0

>  <SlogP_VSA8>
0

>  <SlogP_VSA9>
0

>  <SlogP_VSA10>
0

>  <SlogP_VSA11>
11.5

>  <EState_VSA1>
5.6

>  <EState_VSA2>
17.27

>  <EState_VSA3>
17.71

>  <EState_VSA4>
32.23

>  <EState_VSA5>
11.13

>  <EState_VSA6>
6.07

>  <EState_VSA7>
6.92

>  <EState_VSA8>
18.01

>  <EState_VSA9>
4.74

>  <EState_VSA10>
10.21

>  <VSA_EState1>
6.24

>  <VSA_EState2>
2.49

>  <VSA_EState3>
21.3

>  <VSA_EState4>
1.59

>  <VSA_EState5>
1.4

>  <VSA_EState6>
4.35

>  <VSA_EState7>
3.63

>  <VSA_EState8>
2.94

>  <VSA_EState9>
2.22

>  <apol>
48.9

>  <bpol>
26.52

>  <nRing>
5

>  <nHRing>
2

>  <naRing>
1

>  <naHRing>
0

>  <nARing 2>
4

>  <nAHRing 2>
2

>  <nFRing>
1

>  <nFHRing>
1

>  <nFaRing>
0

>  <nFaHRing>
0

>  <nFARing 2>
1

>  <nFAHRing 2>
1

>  <nRot>
0

>  <SLogP>
1.81

>  <SMR>
82.29

>  <TopoPSA(NO)>
52.93

>  <TopoPSA>
52.93

>  <JGI1>
0.25

>  <JGI2>
0.11

>  <JGI3>
0.06

>  <JGI4>
0.06

>  <JGI5>
0.04

>  <Diameter>
8

>  <Radius>
4

>  <TMWC10>
128.08

>  <TSRW10>
72.89

>  <MW>
301.17

>  <AMW>
6.69

>  <WPath>
801

>  <WPol>
52

>  <Zagreb1>
140

>  <Zagreb2>
183

>  <mZagreb2>
4.39

>  <yes>


>  <nAR-cont>
0.199399

>  <nHA-cont>
0.983774276

>  <MWHBN>
0.345736631

>  <MWHBN-cont>
0.686103733

>  <TPSA-cont>
0.630515732

>  <pka_cont>
0.97

>  <yes.1>


>  <BBB_SCORE>
3.95836034

>  <MMFF94 Energy>
99.951

$$$$
Compound 2048
Actelion Java MolfileCreator 2.0

  0  0  0  0  0  0              0 V3000
M  V30 BEGIN CTAB
M  V30 COUNTS 44 47 0 0 0
M  V30 BEGIN ATOM
M  V30 1 Cl 5.0411 -1.9491 2.5182 0
M  V30 2 C 3.9393 -0.7564 1.9676 0
M  V30 3 C 3.7366 -0.54 0.6163 0
M  V30 4 C 3.2195 0.0164 2.865 0
M  V30 5 N 2.8759 0.383 0.1176 0
M  V30 6 C 2.3288 0.9759 2.377 0
M  V30 7 C 2.1828 1.1409 1.0012 0
M  V30 8 N 1.291 2.0794 0.4705 0
M  V30 9 C 0.8312 3.2413 1.0875 0
M  V30 10 C 0.8346 1.9908 -0.9029 0 CFG=1
M  V30 11 O 1.0773 3.6611 2.205 0
M  V30 12 C -0.0022 3.9487 0.0973 0
M  V30 13 O 0.1761 0.753 -1.2062 0
M  V30 14 C -0.0104 3.2277 -1.0814 0
M  V30 15 N -0.6203 5.133 0.2705 0
M  V30 16 C -0.955 0.4428 -0.532 0
M  V30 17 N -0.6513 3.6429 -2.1982 0
M  V30 18 C -1.2886 5.5456 -0.8355 0
M  V30 19 O -1.4698 1.171 0.3076 0
M  V30 20 N -1.4534 -0.7909 -0.884 0
M  V30 21 C -1.3047 4.8234 -2.0338 0
M  V30 22 C -2.6693 -1.3064 -0.2624 0
M  V30 23 C -0.8335 -1.6942 -1.8537 0
M  V30 24 C -2.4377 -2.7129 0.3224 0
M  V30 25 C -0.6274 -3.0956 -1.2452 0
M  V30 26 N -1.8784 -3.6478 -0.6798 0
M  V30 27 C -1.6382 -4.9595 -0.081 0
M  V30 28 H 4.2726 -1.1168 -0.1319 0
M  V30 29 H 3.3375 -0.1151 3.9368 0
M  V30 30 H 1.7564 1.5679 3.0847 0
M  V30 31 H 1.7042 2.0798 -1.5658 0
M  V30 32 H -1.8199 6.4873 -0.7415 0
M  V30 33 H -1.8494 5.1873 -2.8991 0
M  V30 34 H -3.026 -0.6337 0.5241 0
M  V30 35 H -3.4414 -1.3432 -1.0406 0
M  V30 36 H -1.5074 -1.7527 -2.717 0
M  V30 37 H 0.1253 -1.3083 -2.2107 0
M  V30 38 H -3.3967 -3.0969 0.69 0
M  V30 39 H -1.7602 -2.6331 1.1833 0
M  V30 40 H -0.2529 -3.7617 -2.0314 0
M  V30 41 H 0.1446 -3.0346 -0.4663 0
M  V30 42 H -0.9161 -4.9149 0.7422 0
M  V30 43 H -1.2605 -5.6608 -0.8332 0
M  V30 44 H -2.573 -5.3828 0.3028 0
M  V30 END ATOM
M  V30 BEGIN BOND
M  V30 1 1 1 2
M  V30 2 2 2 3
M  V30 3 1 2 4
M  V30 4 1 3 5
M  V30 5 2 4 6
M  V30 6 2 5 7
M  V30 7 1 7 8
M  V30 8 1 8 9
M  V30 9 1 8 10
M  V30 10 2 9 11
M  V30 11 1 9 12
M  V30 12 1 10 13
M  V30 13 1 10 14
M  V30 14 1 12 15
M  V30 15 1 13 16
M  V30 16 1 14 17
M  V30 17 2 15 18
M  V30 18 2 16 19
M  V30 19 1 16 20
M  V30 20 2 17 21
M  V30 21 1 20 22
M  V30 22 1 20 23
M  V30 23 1 22 24
M  V30 24 1 23 25
M  V30 25 1 24 26
M  V30 26 1 26 27
M  V30 27 1 6 7
M  V30 28 2 12 14
M  V30 29 1 18 21
M  V30 30 1 25 26
M  V30 31 1 3 28
M  V30 32 1 4 29
M  V30 33 1 6 30
M  V30 34 1 10 31
M  V30 35 1 18 32
M  V30 36 1 21 33
M  V30 37 1 22 34
M  V30 38 1 22 35
M  V30 39 1 23 36
M  V30 40 1 23 37
M  V30 41 1 24 38
M  V30 42 1 24 39
M  V30 43 1 25 40
M  V30 44 1 25 41
M  V30 45 1 27 42
M  V30 46 1 27 43
M  V30 47 1 27 44
M  V30 END BOND
M  V30 BEGIN COLLECTION
M  V30 MDLV30/STEABS ATOMS=(1 10)
M  V30 END COLLECTION
M  V30 END CTAB
M  END
>  <Column 1>
2510

>  <level_0>
3219

>  <index>
3219

>  <Unnamed: 0>
3219

>  <NO.>
3231

>  <Name>
eszopiclone;lunesta

>  <IUPAC_name>
[(7s)-6-(5-chloropyridin-2-yl)-5-oxo-7h-pyrrolo[3-4-b]pyrazin-7-yl] 4-methylpiperazine-1-carboxylate

>  <SMILES>
CN1CCN(C(=O)O[C@H]2c3nccnc3C(=O)N2c2ccc(Cl)cn2)CC1

>  <CID>
969472

>  <logBB>


>  <BBB+/BBB->
BBB+

>  <Inchi>
InChI=1S/C17H17ClN6O3/c1-22-6-8-23(9-7-22)17(26)27-16-14-13(19-4-5-20-14)15(25)24(16)12-3-2-11(18)10-21-12/h2-5-10-16H-6-9H2-1H3/t16-/m0/s1

>  <threshold>
-1

>  <reference>
R13|R26|

>  <group>
B

>  <Class>
1

>  <ABC>
21.37

>  <ABCGG>
16.95

>  <nAcid>
0

>  <nBase>
1

>  <nAromAtom>
12

>  <nAromBond>
12

>  <nAtom>
44

>  <nHeavyAtom>
27

>  <nSpiro>
0

>  <nBridgehead>
0

>  <nHetero>
10

>  <nN>
6

>  <nO>
3

>  <nF>
0

>  <BalabanJ>
1.47

>  <BertzCT>
869.23

>  <nBonds>
47

>  <nBondsO>
30

>  <nBondsS>
33

>  <nBondsD>
2

>  <nBondsT>
0

>  <nBondsA>
12

>  <nBondsM>
14

>  <nBondsKS>
39

>  <nBondsKD>
8

>  <RNCG>
0.16

>  <RPCG>
0.16

>  <FCSP3>
0.35

>  <SZ>
33.67

>  <Sm>
32.37

>  <Sv>
29.39

>  <Sse>
45.28

>  <Sp>
30.49

>  <Si>
50.05

>  <MZ>
0.77

>  <Mm>
0.74

>  <Mv>
0.67

>  <Mse>
1.03

>  <Mp>
0.69

>  <Mi>
1.14

>  <NsCH3>
1

>  <NdCH2>
0

>  <NssCH2>
4

>  <NtCH>
0

>  <NdsCH>
0

>  <NaaCH>
5

>  <NsssCH>
1

>  <NddC>
0

>  <NtsC>
0

>  <NdssC>
2

>  <NaasC>
4

>  <NaaaC>
0

>  <NssssC>
0

>  <NsNH3>
0

>  <NsNH2>
0

>  <NssNH2>
0

>  <NdNH>
0

>  <NssNH>
0

>  <NaaNH>
0

>  <NtN>
0

>  <NsssNH>
0

>  <NdsN>
0

>  <NaaN>
3

>  <NsssN>
3

>  <NddsN>
0

>  <NaasN>
0

>  <NssssN>
0

>  <NsOH>
0

>  <NdO>
2

>  <NssO>
1

>  <NaaO>
0

>  <NsF>
0

>  <NsSiH3>
0

>  <NssSiH2>
0

>  <NsssSiH>
0

>  <NssssSi>
0

>  <NsPH2>
0

>  <NssPH>
0

>  <NsssP>
0

>  <NdsssP>
0

>  <NsssssP>
0

>  <NsSH>
0

>  <NdS>
0

>  <NssS>
0

>  <NaaS>
0

>  <NdssS>
0

>  <NddssS>
0

>  <NsCl>
1

>  <NsBr>
0

>  <NsI>
0

>  <fragCpx>
198.1

>  <fMF>
0.52

>  <nHBAcc>
7

>  <nHBDon>
0

>  <Kier1>
20.28

>  <Kier2>
8.79

>  <Lipinski>
1

>  <GhoseFilter>
1

>  <FilterItLogS>
-2.99

>  <VMcGowan>
262.28

>  <LabuteASA>
160.07

>  <PEOE_VSA1>
14.54

>  <PEOE_VSA2>
9.78

>  <PEOE_VSA3>
19.66

>  <PEOE_VSA4>
0

>  <PEOE_VSA5>
0

>  <PEOE_VSA6>
11.6

>  <PEOE_VSA7>
19.18

>  <PEOE_VSA8>
44.77

>  <PEOE_VSA9>
5.02

>  <PEOE_VSA10>
11.51

>  <PEOE_VSA11>
5.69

>  <PEOE_VSA12>
6.23

>  <PEOE_VSA13>
5.91

>  <SMR_VSA1>
14.33

>  <SMR_VSA2>
0

>  <SMR_VSA3>
24.75

>  <SMR_VSA4>
0

>  <SMR_VSA5>
6.23

>  <SMR_VSA6>
38.13

>  <SMR_VSA7>
47.13

>  <SMR_VSA8>
0

>  <SMR_VSA9>
0

>  <SlogP_VSA1>
4.9

>  <SlogP_VSA2>
69.98

>  <SlogP_VSA3>
4.74

>  <SlogP_VSA4>
0

>  <SlogP_VSA5>
22.41

>  <SlogP_VSA6>
30.72

>  <SlogP_VSA7>
5.02

>  <SlogP_VSA8>
0

>  <SlogP_VSA9>
0

>  <SlogP_VSA10>
10.61

>  <SlogP_VSA11>
0

>  <EState_VSA1>
18.23

>  <EState_VSA2>
5.69

>  <EState_VSA3>
29.62

>  <EState_VSA4>
13.09

>  <EState_VSA5>
23.49

>  <EState_VSA6>
17.03

>  <EState_VSA7>
7.05

>  <EState_VSA8>
19.85

>  <EState_VSA9>
16.34

>  <EState_VSA10>
9.59

>  <VSA_EState1>
5.68

>  <VSA_EState2>
43.01

>  <VSA_EState3>
0.44

>  <VSA_EState4>
0.44

>  <VSA_EState5>
-0.12

>  <VSA_EState6>
3.2

>  <VSA_EState7>
2.78

>  <VSA_EState8>
2.64

>  <VSA_EState9>
2

>  <apol>
50.91

>  <bpol>
29.59

>  <nRing>
4

>  <nHRing>
4

>  <naRing>
2

>  <naHRing>
2

>  <nARing 2>
2

>  <nAHRing 2>
2

>  <nFRing>
1

>  <nFHRing>
1

>  <nFaRing>
0

>  <nFaHRing>
0

>  <nFARing 2>
1

>  <nFAHRing 2>
1

>  <nRot>
2

>  <SLogP>
1.57

>  <SMR>
96.38

>  <TopoPSA(NO)>
91.76

>  <TopoPSA>
91.76

>  <JGI1>
0.17

>  <JGI2>
0.08

>  <JGI3>
0.06

>  <JGI4>
0.04

>  <JGI5>
0.03

>  <Diameter>
13

>  <Radius>
7

>  <TMWC10>
134.18

>  <TSRW10>
77.04

>  <MW>
388.11

>  <AMW>
8.82

>  <WPath>
1782

>  <WPol>
45

>  <Zagreb1>
146

>  <Zagreb2>
175

>  <mZagreb2>
5.86

>  <yes>


>  <nAR-cont>
1

>  <nHA-cont>
0.860070871

>  <MWHBN>
0.355320794

>  <MWHBN-cont>
0.650226349

>  <TPSA-cont>
0.35945822

>  <pka_cont>
0.97

>  <yes.1>


>  <BBB_SCORE>
4.039326835

>  <MMFF94 Energy>
65.658

$$$$
Compound 2049
Actelion Java MolfileCreator 2.0

  0  0  0  0  0  0              0 V3000
M  V30 BEGIN CTAB
M  V30 COUNTS 41 43 0 0 0
M  V30 BEGIN ATOM
M  V30 1 O -2.0762 1.6767 1.5968 0
M  V30 2 C -1.2623 0.7584 1.5522 0
M  V30 3 O -0.5464 0.3986 0.452 0
M  V30 4 C -0.8739 -0.0743 2.7834 0 CFG=1
M  V30 5 C -0.8255 1.1131 -0.7727 0
M  V30 6 O -1.7272 0.2155 3.8956 0
M  V30 7 C -0.8997 -1.565 2.5177 0
M  V30 8 C -0.5058 0.1683 -1.943 0
M  V30 9 C -0.0147 2.4192 -0.8131 0
M  V30 10 C 0.2898 -2.2539 2.2324 0
M  V30 11 C -2.1094 -2.2773 2.5076 0
M  V30 12 C 0.9673 0.2185 -2.3904 0 CFG=1
M  V30 13 C 1.4087 2.2397 -1.3749 0 CFG=1
M  V30 14 C 0.269 -3.6209 1.9494 0
M  V30 15 C -2.1277 -3.6443 2.2259 0
M  V30 16 N 1.4123 1.5836 -2.6848 0
M  V30 17 C 1.9317 -0.1266 -1.2494 0
M  V30 18 C 2.2219 1.2181 -0.5699 0
M  V30 19 C -0.9391 -4.3151 1.9463 0
M  V30 20 C 0.7096 2.2726 -3.7508 0
M  V30 21 H 0.1319 0.2434 3.0815 0
M  V30 22 H -1.8991 1.3387 -0.8039 0
M  V30 23 H -2.063 1.1211 3.7497 0
M  V30 24 H -1.144 0.431 -2.7954 0
M  V30 25 H -0.7608 -0.863 -1.6684 0
M  V30 26 H -0.5512 3.1488 -1.4317 0
M  V30 27 H 0.0556 2.8555 0.1905 0
M  V30 28 H 1.2429 -1.7294 2.2243 0
M  V30 29 H -3.0456 -1.7682 2.7306 0
M  V30 30 H 1.1245 -0.4539 -3.2409 0
M  V30 31 H 1.9261 3.2052 -1.4013 0
M  V30 32 H 1.1962 -4.1447 1.7317 0
M  V30 33 H -3.0704 -4.1855 2.2286 0
M  V30 34 H 1.5264 -0.8661 -0.552 0
M  V30 35 H 2.8677 -0.5355 -1.6506 0
M  V30 36 H 3.2946 1.436 -0.6479 0
M  V30 37 H 1.9679 1.2084 0.4946 0
M  V30 38 H -0.9543 -5.3798 1.7289 0
M  V30 39 H 0.8174 1.7191 -4.6901 0
M  V30 40 H 1.1534 3.2606 -3.9154 0
M  V30 41 H -0.3594 2.4137 -3.5678 0
M  V30 END ATOM
M  V30 BEGIN BOND
M  V30 1 2 1 2
M  V30 2 1 2 3
M  V30 3 1 2 4
M  V30 4 1 3 5
M  V30 5 1 4 6
M  V30 6 1 4 7
M  V30 7 1 5 8
M  V30 8 1 5 9
M  V30 9 2 7 10
M  V30 10 1 7 11
M  V30 11 1 8 12
M  V30 12 1 9 13
M  V30 13 1 10 14
M  V30 14 2 11 15
M  V30 15 1 12 16
M  V30 16 1 12 17
M  V30 17 1 13 18
M  V30 18 2 14 19
M  V30 19 1 16 20
M  V30 20 1 13 16
M  V30 21 1 15 19
M  V30 22 1 17 18
M  V30 23 1 4 21
M  V30 24 1 5 22
M  V30 25 1 6 23
M  V30 26 1 8 24
M  V30 27 1 8 25
M  V30 28 1 9 26
M  V30 29 1 9 27
M  V30 30 1 10 28
M  V30 31 1 11 29
M  V30 32 1 12 30
M  V30 33 1 13 31
M  V30 34 1 14 32
M  V30 35 1 15 33
M  V30 36 1 17 34
M  V30 37 1 17 35
M  V30 38 1 18 36
M  V30 39 1 18 37
M  V30 40 1 19 38
M  V30 41 1 20 39
M  V30 42 1 20 40
M  V30 43 1 20 41
M  V30 END BOND
M  V30 BEGIN COLLECTION
M  V30 MDLV30/STEABS ATOMS=(3 4 12 13)
M  V30 END COLLECTION
M  V30 END CTAB
M  END
>  <Column 1>
2511

>  <level_0>
3247

>  <index>
3247

>  <Unnamed: 0>
3247

>  <NO.>
3259

>  <Name>
zinc100025275

>  <IUPAC_name>
[(1s-5s)-8-methyl-8-azabicyclo[3.2.1]octan-3-yl] (2s)-2-hydroxy-2-phenylacetate

>  <SMILES>
CN1[C@H]2CC[C@H]1CC(OC(=O)[C@@H](O)c1ccccc1)C2

>  <CID>
6921553

>  <logBB>


>  <BBB+/BBB->
BBB-

>  <Inchi>
InChI=1S/C16H21NO3/c1-17-12-7-8-13(17)10-14(9-12)20-16(19)15(18)11-5-3-2-4-6-11/h2-6-12-15-18H-7-10H2-1H3/t12--13--15-/m0/s1

>  <threshold>
-1

>  <reference>
R13|

>  <group>
B

>  <Class>
1

>  <ABC>
15.72

>  <ABCGG>
13.29

>  <nAcid>
0

>  <nBase>
1

>  <nAromAtom>
6

>  <nAromBond>
6

>  <nAtom>
41

>  <nHeavyAtom>
20

>  <nSpiro>
0

>  <nBridgehead>
2

>  <nHetero>
4

>  <nN>
1

>  <nO>
3

>  <nF>
0

>  <BalabanJ>
1.5

>  <BertzCT>
461.87

>  <nBonds>
43

>  <nBondsO>
22

>  <nBondsS>
36

>  <nBondsD>
1

>  <nBondsT>
0

>  <nBondsA>
6

>  <nBondsM>
7

>  <nBondsKS>
39

>  <nBondsKD>
4

>  <RNCG>
0.26

>  <RPCG>
0.19

>  <FCSP3>
0.56

>  <SZ>
24.67

>  <Sm>
22.92

>  <Sv>
24.59

>  <Sse>
40.98

>  <Sp>
26.48

>  <Si>
46.28

>  <MZ>
0.6

>  <Mm>
0.56

>  <Mv>
0.6

>  <Mse>
1

>  <Mp>
0.65

>  <Mi>
1.13

>  <NsCH3>
1

>  <NdCH2>
0

>  <NssCH2>
4

>  <NtCH>
0

>  <NdsCH>
0

>  <NaaCH>
5

>  <NsssCH>
4

>  <NddC>
0

>  <NtsC>
0

>  <NdssC>
1

>  <NaasC>
1

>  <NaaaC>
0

>  <NssssC>
0

>  <NsNH3>
0

>  <NsNH2>
0

>  <NssNH2>
0

>  <NdNH>
0

>  <NssNH>
0

>  <NaaNH>
0

>  <NtN>
0

>  <NsssNH>
0

>  <NdsN>
0

>  <NaaN>
0

>  <NsssN>
1

>  <NddsN>
0

>  <NaasN>
0

>  <NssssN>
0

>  <NsOH>
1

>  <NdO>
1

>  <NssO>
1

>  <NaaO>
0

>  <NsF>
0

>  <NsSiH3>
0

>  <NssSiH2>
0

>  <NsssSiH>
0

>  <NssssSi>
0

>  <NsPH2>
0

>  <NssPH>
0

>  <NsssP>
0

>  <NdsssP>
0

>  <NsssssP>
0

>  <NsSH>
0

>  <NdS>
0

>  <NssS>
0

>  <NaaS>
0

>  <NdssS>
0

>  <NddssS>
0

>  <NsCl>
0

>  <NsBr>
0

>  <NsI>
0

>  <fragCpx>
104.04

>  <fMF>
0.41

>  <nHBAcc>
4

>  <nHBDon>
1

>  <Kier1>
14.92

>  <Kier2>
6.41

>  <Lipinski>
1

>  <GhoseFilter>
1

>  <FilterItLogS>
-1.77

>  <VMcGowan>
214.11

>  <LabuteASA>
118.9

>  <PEOE_VSA1>
14.74

>  <PEOE_VSA2>
0

>  <PEOE_VSA3>
4.79

>  <PEOE_VSA4>
0

>  <PEOE_VSA5>
0

>  <PEOE_VSA6>
30.33

>  <PEOE_VSA7>
38.29

>  <PEOE_VSA8>
12.08

>  <PEOE_VSA9>
0

>  <PEOE_VSA10>
6.1

>  <PEOE_VSA11>
6.1

>  <PEOE_VSA12>
0

>  <PEOE_VSA13>
0

>  <SMR_VSA1>
14.64

>  <SMR_VSA2>
0

>  <SMR_VSA3>
4.9

>  <SMR_VSA4>
0

>  <SMR_VSA5>
49.97

>  <SMR_VSA6>
7.05

>  <SMR_VSA7>
35.9

>  <SMR_VSA8>
0

>  <SMR_VSA9>
0

>  <SlogP_VSA1>
0

>  <SlogP_VSA2>
41.21

>  <SlogP_VSA3>
9.53

>  <SlogP_VSA4>
0

>  <SlogP_VSA5>
37.35

>  <SlogP_VSA6>
30.33

>  <SlogP_VSA7>
0

>  <SlogP_VSA8>
0

>  <SlogP_VSA9>
0

>  <SlogP_VSA10>
0

>  <SlogP_VSA11>
0

>  <EState_VSA1>
12.07

>  <EState_VSA2>
6.1

>  <EState_VSA3>
17.65

>  <EState_VSA4>
12.84

>  <EState_VSA5>
12.84

>  <EState_VSA6>
12.13

>  <EState_VSA7>
18.2

>  <EState_VSA8>
11.95

>  <EState_VSA9>
4.74

>  <EState_VSA10>
9.9

>  <VSA_EState1>
5.52

>  <VSA_EState2>
14.44

>  <VSA_EState3>
10.03

>  <VSA_EState4>
0.59

>  <VSA_EState5>
-0.52

>  <VSA_EState6>
10.01

>  <VSA_EState7>
2.94

>  <VSA_EState8>
0

>  <VSA_EState9>
2.15

>  <apol>
44.23

>  <bpol>
25.38

>  <nRing>
3

>  <nHRing>
2

>  <naRing>
1

>  <naHRing>
0

>  <nARing 2>
2

>  <nAHRing 2>
2

>  <nFRing>
1

>  <nFHRing>
1

>  <nFaRing>
0

>  <nFaHRing>
0

>  <nFARing 2>
1

>  <nFAHRing 2>
1

>  <nRot>
3

>  <SLogP>
1.89

>  <SMR>
75.09

>  <TopoPSA(NO)>
49.77

>  <TopoPSA>
49.77

>  <JGI1>
0.18

>  <JGI2>
0.08

>  <JGI3>
0.06

>  <JGI4>
0.04

>  <JGI5>
0.02

>  <Diameter>
11

>  <Radius>
6

>  <TMWC10>
115.32

>  <TSRW10>
67.94

>  <MW>
275.15

>  <AMW>
6.71

>  <WPath>
854

>  <WPol>
30

>  <Zagreb1>
106

>  <Zagreb2>
125

>  <mZagreb2>
4.36

>  <yes>


>  <nAR-cont>
1

>  <nHA-cont>
0.999629945

>  <MWHBN>
0.301429148

>  <MWHBN-cont>
0.836447893

>  <TPSA-cont>
0.652574495

>  <pka_cont>
0.97

>  <yes.1>


>  <BBB_SCORE>
5.044450774

>  <MMFF94 Energy>
77.177

$$$$
Compound 2050
Actelion Java MolfileCreator 2.0

  0  0  0  0  0  0              0 V3000
M  V30 BEGIN CTAB
M  V30 COUNTS 38 40 0 0 0
M  V30 BEGIN ATOM
M  V30 1 Cl -2.6107 2.284 2.3657 0
M  V30 2 C -1.0746 2.8677 1.836 0
M  V30 3 C -0.1775 2.0772 1.111 0
M  V30 4 C -0.7514 4.2007 2.1066 0
M  V30 5 C -0.4553 0.6531 0.8037 0
M  V30 6 C 1.0375 2.6135 0.6636 0
M  V30 7 C 0.4589 4.7368 1.6592 0
M  V30 8 N -0.4365 -0.1827 1.789 0
M  V30 9 C -0.6846 0.2959 -0.627 0
M  V30 10 C 1.3521 3.9444 0.9383 0
M  V30 11 C -0.7186 -1.589 1.4732 0
M  V30 12 C 0.0351 -0.7669 -1.2148 0
M  V30 13 C -1.5724 1.0827 -1.3775 0
M  V30 14 C 0.4615 -2.2624 0.7404 0 CFG=2
M  V30 15 N 0.9132 -1.554 -0.4878 0
M  V30 16 C -0.1529 -0.9857 -2.59 0
M  V30 17 C -1.7426 0.8234 -2.7316 0
M  V30 18 C 0.0835 -3.7213 0.394 0
M  V30 19 C 2.203 -1.9195 -1.0556 0
M  V30 20 C -1.0343 -0.2035 -3.3435 0
M  V30 21 Cl -2.8279 1.7835 -3.6581 0
M  V30 22 O -0.1644 -4.4926 1.5664 0
M  V30 23 H -1.4406 4.8294 2.6652 0
M  V30 24 H 1.7437 1.9915 0.1188 0
M  V30 25 H 0.7055 5.7736 1.8766 0
M  V30 26 H 2.2971 4.3611 0.5978 0
M  V30 27 H -0.8969 -2.1054 2.424 0
M  V30 28 H -1.6571 -1.6815 0.9103 0
M  V30 29 H -2.1314 1.8884 -0.9104 0
M  V30 30 H 1.3025 -2.2812 1.4468 0
M  V30 31 H 0.3732 -1.7933 -3.0924 0
M  V30 32 H -0.8118 -3.7496 -0.2371 0
M  V30 33 H 0.8952 -4.2111 -0.1534 0
M  V30 34 H 2.6689 -1.064 -1.5576 0
M  V30 35 H 2.8946 -2.2471 -0.272 0
M  V30 36 H 2.0999 -2.7385 -1.7748 0
M  V30 37 H -1.1635 -0.4081 -4.403 0
M  V30 38 H -0.4238 -5.3829 1.2727 0
M  V30 END ATOM
M  V30 BEGIN BOND
M  V30 1 1 1 2
M  V30 2 2 2 3
M  V30 3 1 2 4
M  V30 4 1 3 5
M  V30 5 1 3 6
M  V30 6 2 4 7
M  V30 7 2 5 8
M  V30 8 1 5 9
M  V30 9 2 6 10
M  V30 10 1 8 11
M  V30 11 2 9 12
M  V30 12 1 9 13
M  V30 13 1 11 14
M  V30 14 1 12 15
M  V30 15 1 12 16
M  V30 16 2 13 17
M  V30 17 1 14 18
M  V30 18 1 15 19
M  V30 19 2 16 20
M  V30 20 1 17 21
M  V30 21 1 18 22
M  V30 22 1 7 10
M  V30 23 1 14 15
M  V30 24 1 17 20
M  V30 25 1 4 23
M  V30 26 1 6 24
M  V30 27 1 7 25
M  V30 28 1 10 26
M  V30 29 1 11 27
M  V30 30 1 11 28
M  V30 31 1 13 29
M  V30 32 1 14 30
M  V30 33 1 16 31
M  V30 34 1 18 32
M  V30 35 1 18 33
M  V30 36 1 19 34
M  V30 37 1 19 35
M  V30 38 1 19 36
M  V30 39 1 20 37
M  V30 40 1 22 38
M  V30 END BOND
M  V30 BEGIN COLLECTION
M  V30 MDLV30/STEABS ATOMS=(1 14)
M  V30 END COLLECTION
M  V30 END CTAB
M  END
>  <Column 1>
2512

>  <level_0>
3251

>  <index>
3251

>  <Unnamed: 0>
3251

>  <NO.>
3263

>  <Name>
tuclazepam

>  <IUPAC_name>
[(2s)-7-chloro-5-(2-chlorophenyl)-1-methyl-2-3-dihydro-1-4-benzodiazepin-2-yl]methanol

>  <SMILES>
CN1c2ccc(Cl)cc2C(c2ccccc2Cl)=NC[C@H]1CO

>  <CID>
76962878

>  <logBB>


>  <BBB+/BBB->
BBB+

>  <Inchi>
InChI=1S/C17H16Cl2N2O/c1-21-12(10-22)9-20-17(13-4-2-3-5-15(13)19)14-8-11(18)6-7-16(14)21/h2-8-12-22H-9-10H2-1H3/t12-/m0/s1

>  <threshold>
-1

>  <reference>
R13|R27|R30|

>  <group>
B

>  <Class>
1

>  <ABC>
17.06

>  <ABCGG>
14.25

>  <nAcid>
0

>  <nBase>
0

>  <nAromAtom>
12

>  <nAromBond>
12

>  <nAtom>
38

>  <nHeavyAtom>
22

>  <nSpiro>
0

>  <nBridgehead>
0

>  <nHetero>
5

>  <nN>
2

>  <nO>
1

>  <nF>
0

>  <BalabanJ>
1.83

>  <BertzCT>
730.35

>  <nBonds>
40

>  <nBondsO>
24

>  <nBondsS>
27

>  <nBondsD>
1

>  <nBondsT>
0

>  <nBondsA>
12

>  <nBondsM>
13

>  <nBondsKS>
33

>  <nBondsKD>
7

>  <RNCG>
0.26

>  <RPCG>
0.14

>  <FCSP3>
0.24

>  <SZ>
29

>  <Sm>
27.91

>  <Sv>
25.75

>  <Sse>
38.29

>  <Sp>
27.8

>  <Si>
42.42

>  <MZ>
0.76

>  <Mm>
0.73

>  <Mv>
0.68

>  <Mse>
1.01

>  <Mp>
0.73

>  <Mi>
1.12

>  <NsCH3>
1

>  <NdCH2>
0

>  <NssCH2>
2

>  <NtCH>
0

>  <NdsCH>
0

>  <NaaCH>
7

>  <NsssCH>
1

>  <NddC>
0

>  <NtsC>
0

>  <NdssC>
1

>  <NaasC>
5

>  <NaaaC>
0

>  <NssssC>
0

>  <NsNH3>
0

>  <NsNH2>
0

>  <NssNH2>
0

>  <NdNH>
0

>  <NssNH>
0

>  <NaaNH>
0

>  <NtN>
0

>  <NsssNH>
0

>  <NdsN>
1

>  <NaaN>
0

>  <NsssN>
1

>  <NddsN>
0

>  <NaasN>
0

>  <NssssN>
0

>  <NsOH>
1

>  <NdO>
0

>  <NssO>
0

>  <NaaO>
0

>  <NsF>
0

>  <NsSiH3>
0

>  <NssSiH2>
0

>  <NsssSiH>
0

>  <NssssSi>
0

>  <NsPH2>
0

>  <NssPH>
0

>  <NsssP>
0

>  <NdsssP>
0

>  <NsssssP>
0

>  <NsSH>
0

>  <NdS>
0

>  <NssS>
0

>  <NaaS>
0

>  <NdssS>
0

>  <NddssS>
0

>  <NsCl>
2

>  <NsBr>
0

>  <NsI>
0

>  <fragCpx>
114.05

>  <fMF>
0.45

>  <nHBAcc>
3

>  <nHBDon>
1

>  <Kier1>
16.84

>  <Kier2>
7.27

>  <Lipinski>
1

>  <GhoseFilter>
1

>  <FilterItLogS>
-5.24

>  <VMcGowan>
238.02

>  <LabuteASA>
139.36

>  <PEOE_VSA1>
10.01

>  <PEOE_VSA2>
4.99

>  <PEOE_VSA3>
0

>  <PEOE_VSA4>
0

>  <PEOE_VSA5>
0

>  <PEOE_VSA6>
41.4

>  <PEOE_VSA7>
24.27

>  <PEOE_VSA8>
33.91

>  <PEOE_VSA9>
24.91

>  <PEOE_VSA10>
0

>  <PEOE_VSA11>
0

>  <PEOE_VSA12>
0

>  <PEOE_VSA13>
0

>  <SMR_VSA1>
5.11

>  <SMR_VSA2>
0

>  <SMR_VSA3>
0

>  <SMR_VSA4>
4.99

>  <SMR_VSA5>
6.04

>  <SMR_VSA6>
25.1

>  <SMR_VSA7>
63.64

>  <SMR_VSA8>
0

>  <SMR_VSA9>
0

>  <SlogP_VSA1>
4.9

>  <SlogP_VSA2>
37.06

>  <SlogP_VSA3>
0

>  <SlogP_VSA4>
0

>  <SlogP_VSA5>
11.13

>  <SlogP_VSA6>
47.46

>  <SlogP_VSA7>
10.05

>  <SlogP_VSA8>
0

>  <SlogP_VSA9>
0

>  <SlogP_VSA10>
5.69

>  <SlogP_VSA11>
0

>  <EState_VSA1>
0

>  <EState_VSA2>
12.65

>  <EState_VSA3>
16.59

>  <EState_VSA4>
22.53

>  <EState_VSA5>
0

>  <EState_VSA6>
0

>  <EState_VSA7>
54.41

>  <EState_VSA8>
0

>  <EState_VSA9>
28.19

>  <EState_VSA10>
5.11

>  <VSA_EState1>
0

>  <VSA_EState2>
6.75

>  <VSA_EState3>
10.91

>  <VSA_EState4>
3.6

>  <VSA_EState5>
0

>  <VSA_EState6>
13.26

>  <VSA_EState7>
0

>  <VSA_EState8>
0.54

>  <VSA_EState9>
1.96

>  <apol>
46.42

>  <bpol>
19.92

>  <nRing>
3

>  <nHRing>
1

>  <naRing>
2

>  <naHRing>
0

>  <nARing 2>
1

>  <nAHRing 2>
1

>  <nFRing>
1

>  <nFHRing>
1

>  <nFaRing>
0

>  <nFaHRing>
0

>  <nFARing 2>
1

>  <nFAHRing 2>
1

>  <nRot>
2

>  <SLogP>
3.64

>  <SMR>
92.69

>  <TopoPSA(NO)>
35.83

>  <TopoPSA>
35.83

>  <JGI1>
0.17

>  <JGI2>
0.09

>  <JGI3>
0.05

>  <JGI4>
0.04

>  <JGI5>
0.03

>  <Diameter>
9

>  <Radius>
5

>  <TMWC10>
120.91

>  <TSRW10>
64.4

>  <MW>
334.06

>  <AMW>
8.79

>  <WPath>
935

>  <WPol>
41

>  <Zagreb1>
116

>  <Zagreb2>
139

>  <mZagreb2>
4.92

>  <yes>


>  <nAR-cont>
0.816016

>  <nHA-cont>
0.983774276

>  <MWHBN>
0.218850606

>  <MWHBN-cont>
0.995661009

>  <TPSA-cont>
0.749884351

>  <pka_cont>
0.97

>  <yes.1>


>  <BBB_SCORE>
5.278050491

>  <MMFF94 Energy>
146.62

$$$$
Compound 2051
Actelion Java MolfileCreator 2.0

  0  0  0  0  0  0              0 V3000
M  V30 BEGIN CTAB
M  V30 COUNTS 29 31 0 0 0
M  V30 BEGIN ATOM
M  V30 1 O -1.2122 2.021 -2.8303 0
M  V30 2 C -0.938 1.4431 -1.797 0
M  V30 3 O -1.8544 0.931 -0.8771 0
M  V30 4 C 0.3977 1.0296 -1.3002 0 CFG=2
M  V30 5 C -1.1409 0.4761 0.3215 0 CFG=2
M  V30 6 C 0.1119 1.2889 0.1883 0 CFG=1
M  V30 7 C 1.8435 1.4774 -1.4327 0
M  V30 8 O -0.8588 -0.9193 0.2958 0
M  V30 9 C 1.5198 1.1895 0.793 0
M  V30 10 C 2.1746 2.7876 -0.7524 0
M  V30 11 C 2.3805 0.5423 -0.3048 0
M  V30 12 C -1.7865 -1.6911 0.906 0
M  V30 13 C 2.0584 2.6024 0.5768 0
M  V30 14 O -2.7751 -1.2852 1.4948 0
M  V30 15 N -1.4359 -2.999 0.7664 0
M  V30 16 C -2.2392 -4.0697 1.2902 0
M  V30 17 H 0.4089 -0.041 -1.571 0
M  V30 18 H -1.7008 0.7845 1.2121 0
M  V30 19 H -0.2455 2.3253 0.3449 0
M  V30 20 H 2.3191 1.3195 -2.401 0
M  V30 21 H 1.6224 0.8041 1.8062 0
M  V30 22 H 2.4668 3.699 -1.2534 0
M  V30 23 H 3.4623 0.6395 -0.1375 0
M  V30 24 H 2.1549 -0.5201 -0.4542 0
M  V30 25 H 2.2144 3.3438 1.3471 0
M  V30 26 H -0.6096 -3.1972 0.2211 0
M  V30 27 H -3.0641 -4.2579 0.5982 0
M  V30 28 H -2.641 -3.7992 2.2704 0
M  V30 29 H -1.6171 -4.9635 1.3752 0
M  V30 END ATOM
M  V30 BEGIN BOND
M  V30 1 2 1 2
M  V30 2 1 2 3
M  V30 3 1 2 4
M  V30 4 1 3 5
M  V30 5 1 4 6
M  V30 6 1 4 7
M  V30 7 1 5 8
M  V30 8 1 6 9
M  V30 9 1 7 10
M  V30 10 1 7 11
M  V30 11 1 8 12
M  V30 12 1 9 13
M  V30 13 2 12 14
M  V30 14 1 12 15
M  V30 15 1 15 16
M  V30 16 1 5 6
M  V30 17 1 9 11
M  V30 18 2 10 13
M  V30 19 1 4 17
M  V30 20 1 5 18
M  V30 21 1 6 19
M  V30 22 1 7 20
M  V30 23 1 9 21
M  V30 24 1 10 22
M  V30 25 1 11 23
M  V30 26 1 11 24
M  V30 27 1 13 25
M  V30 28 1 15 26
M  V30 29 1 16 27
M  V30 30 1 16 28
M  V30 31 1 16 29
M  V30 END BOND
M  V30 BEGIN COLLECTION
M  V30 MDLV30/STEABS ATOMS=(3 4 5 6)
M  V30 END COLLECTION
M  V30 END CTAB
M  END
>  <Column 1>
2513

>  <level_0>
3259

>  <index>
3259

>  <Unnamed: 0>
3259

>  <NO.>
3271

>  <Name>


>  <IUPAC_name>


>  <SMILES>
CNC(=O)O[C@@H]1OC(=O)[C@H]2C3C=CC(C3)[C@H]12

>  <CID>


>  <logBB>


>  <BBB+/BBB->
BBB+

>  <Inchi>
InChI=1S/C11H13NO4/c1-12-11(14)16-10-8-6-3-2-5(4-6)7(8)9(13)15-10/h2-3-5-8-10H-4H2-1H3-(H-12-14)/t5?-6?-7--8--10-/m0/s1

>  <threshold>
-1

>  <reference>
R13|

>  <group>
B

>  <Class>
1

>  <ABC>
12.74

>  <ABCGG>
11.83

>  <nAcid>
0

>  <nBase>
0

>  <nAromAtom>
0

>  <nAromBond>
0

>  <nAtom>
29

>  <nHeavyAtom>
16

>  <nSpiro>
0

>  <nBridgehead>
2

>  <nHetero>
5

>  <nN>
1

>  <nO>
4

>  <nF>
0

>  <BalabanJ>
1.73

>  <BertzCT>
378.18

>  <nBonds>
31

>  <nBondsO>
18

>  <nBondsS>
28

>  <nBondsD>
3

>  <nBondsT>
0

>  <nBondsA>
0

>  <nBondsM>
3

>  <nBondsKS>
28

>  <nBondsKD>
3

>  <RNCG>
0.23

>  <RPCG>
0.22

>  <FCSP3>
0.64

>  <SZ>
19.67

>  <Sm>
18.59

>  <Sv>
18.14

>  <Sse>
29.76

>  <Sp>
18.77

>  <Si>
32.83

>  <MZ>
0.68

>  <Mm>
0.64

>  <Mv>
0.63

>  <Mse>
1.03

>  <Mp>
0.65

>  <Mi>
1.13

>  <NsCH3>
1

>  <NdCH2>
0

>  <NssCH2>
1

>  <NtCH>
0

>  <NdsCH>
2

>  <NaaCH>
0

>  <NsssCH>
5

>  <NddC>
0

>  <NtsC>
0

>  <NdssC>
2

>  <NaasC>
0

>  <NaaaC>
0

>  <NssssC>
0

>  <NsNH3>
0

>  <NsNH2>
0

>  <NssNH2>
0

>  <NdNH>
0

>  <NssNH>
1

>  <NaaNH>
0

>  <NtN>
0

>  <NsssNH>
0

>  <NdsN>
0

>  <NaaN>
0

>  <NsssN>
0

>  <NddsN>
0

>  <NaasN>
0

>  <NssssN>
0

>  <NsOH>
0

>  <NdO>
2

>  <NssO>
2

>  <NaaO>
0

>  <NsF>
0

>  <NsSiH3>
0

>  <NssSiH2>
0

>  <NsssSiH>
0

>  <NssssSi>
0

>  <NsPH2>
0

>  <NssPH>
0

>  <NsssP>
0

>  <NdsssP>
0

>  <NsssssP>
0

>  <NsSH>
0

>  <NdS>
0

>  <NssS>
0

>  <NaaS>
0

>  <NdssS>
0

>  <NddssS>
0

>  <NsCl>
0

>  <NsBr>
0

>  <NsI>
0

>  <fragCpx>
84.05

>  <fMF>
0.34

>  <nHBAcc>
4

>  <nHBDon>
1

>  <Kier1>
11.11

>  <Kier2>
4.03

>  <Lipinski>
1

>  <GhoseFilter>
1

>  <FilterItLogS>
-0.51

>  <VMcGowan>
153.83

>  <LabuteASA>
92.78

>  <PEOE_VSA1>
14.79

>  <PEOE_VSA2>
4.79

>  <PEOE_VSA3>
4.79

>  <PEOE_VSA4>
0

>  <PEOE_VSA5>
0

>  <PEOE_VSA6>
12.15

>  <PEOE_VSA7>
18.26

>  <PEOE_VSA8>
7.05

>  <PEOE_VSA9>
11.84

>  <PEOE_VSA10>
0

>  <PEOE_VSA11>
0

>  <PEOE_VSA12>
0

>  <PEOE_VSA13>
6.29

>  <SMR_VSA1>
19.06

>  <SMR_VSA2>
0

>  <SMR_VSA3>
5.32

>  <SMR_VSA4>
23.67

>  <SMR_VSA5>
12.71

>  <SMR_VSA6>
7.05

>  <SMR_VSA7>
12.15

>  <SMR_VSA8>
0

>  <SMR_VSA9>
0

>  <SlogP_VSA1>
5.32

>  <SlogP_VSA2>
25.4

>  <SlogP_VSA3>
14.27

>  <SlogP_VSA4>
23.67

>  <SlogP_VSA5>
6.42

>  <SlogP_VSA6>
12.15

>  <SlogP_VSA7>
0

>  <SlogP_VSA8>
0

>  <SlogP_VSA9>
0

>  <SlogP_VSA10>
4.79

>  <SlogP_VSA11>
0

>  <EState_VSA1>
12.38

>  <EState_VSA2>
23.72

>  <EState_VSA3>
5.92

>  <EState_VSA4>
6.42

>  <EState_VSA5>
7.05

>  <EState_VSA6>
0

>  <EState_VSA7>
0

>  <EState_VSA8>
17.47

>  <EState_VSA9>
9.47

>  <EState_VSA10>
9.59

>  <VSA_EState1>
10.19

>  <VSA_EState2>
22.78

>  <VSA_EState3>
2.36

>  <VSA_EState4>
0

>  <VSA_EState5>
0.28

>  <VSA_EState6>
0

>  <VSA_EState7>
3.91

>  <VSA_EState8>
0

>  <VSA_EState9>
1.48

>  <apol>
31.35

>  <bpol>
18.82

>  <nRing>
3

>  <nHRing>
1

>  <naRing>
0

>  <naHRing>
0

>  <nARing 2>
3

>  <nAHRing 2>
1

>  <nFRing>
1

>  <nFHRing>
1

>  <nFaRing>
0

>  <nFaHRing>
0

>  <nFARing 2>
1

>  <nFAHRing 2>
1

>  <nRot>
1

>  <SLogP>
0.66

>  <SMR>
53.14

>  <TopoPSA(NO)>
64.63

>  <TopoPSA>
64.63

>  <JGI1>
0.19

>  <JGI2>
0.07

>  <JGI3>
0.06

>  <JGI4>
0.03

>  <JGI5>
0.04

>  <Diameter>
8

>  <Radius>
4

>  <TMWC10>
107.98

>  <TSRW10>
66.58

>  <MW>
223.08

>  <AMW>
7.69

>  <WPath>
410

>  <WPol>
22

>  <Zagreb1>
90

>  <Zagreb2>
111

>  <mZagreb2>
3.47

>  <yes>


>  <nAR-cont>
0.691115

>  <nHA-cont>
0.954961865

>  <MWHBN>
0.334764723

>  <MWHBN-cont>
0.725988549

>  <TPSA-cont>
0.548842467

>  <pka_cont>
0.97

>  <yes.1>


>  <BBB_SCORE>
4.317744623

>  <MMFF94 Energy>
-23.347

$$$$
Compound 2052
Actelion Java MolfileCreator 2.0

  0  0  0  0  0  0              0 V3000
M  V30 BEGIN CTAB
M  V30 COUNTS 35 37 0 0 0
M  V30 BEGIN ATOM
M  V30 1 Cl -4.108 0.4826 2.979 0
M  V30 2 C -2.5375 -0.0508 2.5081 0
M  V30 3 C -2.0093 0.3202 1.3361 0
M  V30 4 C -1.8207 -0.9091 3.4033 0
M  V30 5 C -0.6725 -0.1112 0.8826 0
M  V30 6 C -0.5762 -1.3104 3.1289 0
M  V30 7 C -0.2136 0.156 -0.3677 0
M  V30 8 C 0.1587 -0.9053 1.8792 0
M  V30 9 N 1.0327 -0.1367 -0.9199 0
M  V30 10 C -1.136 0.8549 -1.3157 0
M  V30 11 N 1.3811 -1.3227 1.9011 0
M  V30 12 O 1.2671 0.2064 -2.2632 0
M  V30 13 C 2.1333 -0.6325 -0.2669 0
M  V30 14 C -1.0438 2.2423 -1.4992 0
M  V30 15 C -2.0982 0.1277 -2.0345 0
M  V30 16 C 2.3432 -1.1343 0.9602 0
M  V30 17 C -1.9077 2.8931 -2.381 0
M  V30 18 C -2.9609 0.7831 -2.9144 0
M  V30 19 N 3.6031 -1.5456 1.35 0
M  V30 20 C -2.8658 2.1641 -3.0856 0
M  V30 21 C 4.8557 -1.4907 0.6488 0
M  V30 22 H -2.5978 0.9741 0.6997 0
M  V30 23 H -2.3024 -1.2235 4.3239 0
M  V30 24 H -0.0289 -1.945 3.8185 0
M  V30 25 H 0.7389 -0.4556 -2.7443 0
M  V30 26 H 2.989 -0.5741 -0.9328 0
M  V30 27 H -0.2909 2.8147 -0.9614 0
M  V30 28 H -2.1814 -0.9491 -1.906 0
M  V30 29 H -1.8297 3.9683 -2.5214 0
M  V30 30 H -3.7076 0.2178 -3.4664 0
M  V30 31 H 3.599 -1.9171 2.294 0
M  V30 32 H -3.5372 2.6738 -3.7726 0
M  V30 33 H 5.1167 -0.4594 0.3912 0
M  V30 34 H 4.8206 -2.0921 -0.2648 0
M  V30 35 H 5.6534 -1.8903 1.2826 0
M  V30 END ATOM
M  V30 BEGIN BOND
M  V30 1 1 1 2
M  V30 2 2 2 3
M  V30 3 1 2 4
M  V30 4 1 3 5
M  V30 5 2 4 6
M  V30 6 2 5 7
M  V30 7 1 5 8
M  V30 8 1 7 9
M  V30 9 1 7 10
M  V30 10 2 8 11
M  V30 11 1 9 12
M  V30 12 1 9 13
M  V30 13 2 10 14
M  V30 14 1 10 15
M  V30 15 1 11 16
M  V30 16 1 14 17
M  V30 17 2 15 18
M  V30 18 1 16 19
M  V30 19 2 17 20
M  V30 20 1 19 21
M  V30 21 1 6 8
M  V30 22 2 13 16
M  V30 23 1 18 20
M  V30 24 1 3 22
M  V30 25 1 4 23
M  V30 26 1 6 24
M  V30 27 1 12 25
M  V30 28 1 13 26
M  V30 29 1 14 27
M  V30 30 1 15 28
M  V30 31 1 17 29
M  V30 32 1 18 30
M  V30 33 1 19 31
M  V30 34 1 20 32
M  V30 35 1 21 33
M  V30 36 1 21 34
M  V30 37 1 21 35
M  V30 END BOND
M  V30 END CTAB
M  END
>  <Column 1>
2514

>  <level_0>
3261

>  <index>
3261

>  <Unnamed: 0>
3261

>  <NO.>
3273

>  <Name>
chembl1372985

>  <IUPAC_name>
7-chloro-4-hydroxy-n-methyl-5-phenyl-1-4-benzodiazepin-2-amine

>  <SMILES>
CNC1=CN(O)C(c2ccccc2)=c2cc(Cl)ccc2=N1

>  <CID>
17756774

>  <logBB>


>  <BBB+/BBB->
BBB+

>  <Inchi>
InChI=1S/C16H14ClN3O/c1-18-15-10-20(21)16(11-5-3-2-4-6-11)13-9-12(17)7-8-14(13)19-15/h2-10-18-21H-1H3

>  <threshold>
-1

>  <reference>
R13|

>  <group>
B

>  <Class>
1

>  <ABC>
16.32

>  <ABCGG>
13.52

>  <nAcid>
0

>  <nBase>
0

>  <nAromAtom>
12

>  <nAromBond>
12

>  <nAtom>
35

>  <nHeavyAtom>
21

>  <nSpiro>
0

>  <nBridgehead>
0

>  <nHetero>
5

>  <nN>
3

>  <nO>
1

>  <nF>
0

>  <BalabanJ>
1.81

>  <BertzCT>
815.16

>  <nBonds>
37

>  <nBondsO>
23

>  <nBondsS>
22

>  <nBondsD>
3

>  <nBondsT>
0

>  <nBondsA>
12

>  <nBondsM>
15

>  <nBondsKS>
29

>  <nBondsKD>
8

>  <RNCG>
0.23

>  <RPCG>
0.15

>  <FCSP3>
0.06

>  <SZ>
26

>  <Sm>
24.96

>  <Sv>
23.87

>  <Sse>
35.3

>  <Sp>
25.35

>  <Si>
39.14

>  <MZ>
0.74

>  <Mm>
0.71

>  <Mv>
0.68

>  <Mse>
1.01

>  <Mp>
0.72

>  <Mi>
1.12

>  <NsCH3>
1

>  <NdCH2>
0

>  <NssCH2>
0

>  <NtCH>
0

>  <NdsCH>
1

>  <NaaCH>
8

>  <NsssCH>
0

>  <NddC>
0

>  <NtsC>
0

>  <NdssC>
2

>  <NaasC>
2

>  <NaaaC>
0

>  <NssssC>
0

>  <NsNH3>
0

>  <NsNH2>
0

>  <NssNH2>
0

>  <NdNH>
0

>  <NssNH>
1

>  <NaaNH>
0

>  <NtN>
0

>  <NsssNH>
0

>  <NdsN>
1

>  <NaaN>
0

>  <NsssN>
1

>  <NddsN>
0

>  <NaasN>
0

>  <NssssN>
0

>  <NsOH>
1

>  <NdO>
0

>  <NssO>
0

>  <NaaO>
0

>  <NsF>
0

>  <NsSiH3>
0

>  <NssSiH2>
0

>  <NsssSiH>
0

>  <NssssSi>
0

>  <NsPH2>
0

>  <NssPH>
0

>  <NsssP>
0

>  <NdsssP>
0

>  <NsssssP>
0

>  <NsSH>
0

>  <NdS>
0

>  <NssS>
0

>  <NaaS>
0

>  <NdssS>
0

>  <NddssS>
0

>  <NsCl>
1

>  <NsBr>
0

>  <NsI>
0

>  <fragCpx>
109.05

>  <fMF>
0.49

>  <nHBAcc>
4

>  <nHBDon>
2

>  <Kier1>
15.88

>  <Kier2>
7.05

>  <Lipinski>
1

>  <GhoseFilter>
1

>  <FilterItLogS>
-4.12

>  <VMcGowan>
217.37

>  <LabuteASA>
126.82

>  <PEOE_VSA1>
5.32

>  <PEOE_VSA2>
5.21

>  <PEOE_VSA3>
10.06

>  <PEOE_VSA4>
0

>  <PEOE_VSA5>
0

>  <PEOE_VSA6>
41.93

>  <PEOE_VSA7>
18.2

>  <PEOE_VSA8>
22.85

>  <PEOE_VSA9>
17.25

>  <PEOE_VSA10>
5.82

>  <PEOE_VSA11>
0

>  <PEOE_VSA12>
0

>  <PEOE_VSA13>
0

>  <SMR_VSA1>
5.21

>  <SMR_VSA2>
0

>  <SMR_VSA3>
10.38

>  <SMR_VSA4>
4.99

>  <SMR_VSA5>
0

>  <SMR_VSA6>
7.05

>  <SMR_VSA7>
81.71

>  <SMR_VSA8>
0

>  <SMR_VSA9>
0

>  <SlogP_VSA1>
15.89

>  <SlogP_VSA2>
17.32

>  <SlogP_VSA3>
0

>  <SlogP_VSA4>
0

>  <SlogP_VSA5>
5.56

>  <SlogP_VSA6>
65.54

>  <SlogP_VSA7>
5.02

>  <SlogP_VSA8>
5.7

>  <SlogP_VSA9>
0

>  <SlogP_VSA10>
0

>  <SlogP_VSA11>
0

>  <EState_VSA1>
0

>  <EState_VSA2>
0

>  <EState_VSA3>
16.54

>  <EState_VSA4>
21.2

>  <EState_VSA5>
6.2

>  <EState_VSA6>
19.18

>  <EState_VSA7>
36.4

>  <EState_VSA8>
10.31

>  <EState_VSA9>
11.6

>  <EState_VSA10>
5.21

>  <VSA_EState1>
0

>  <VSA_EState2>
4.49

>  <VSA_EState3>
16.56

>  <VSA_EState4>
1.52

>  <VSA_EState5>
0.56

>  <VSA_EState6>
15.07

>  <VSA_EState7>
1.54

>  <VSA_EState8>
0

>  <VSA_EState9>
1.76

>  <apol>
42.34

>  <bpol>
16.83

>  <nRing>
3

>  <nHRing>
1

>  <naRing>
2

>  <naHRing>
0

>  <nARing 2>
1

>  <nAHRing 2>
1

>  <nFRing>
1

>  <nFHRing>
1

>  <nFaRing>
0

>  <nFaHRing>
0

>  <nFARing 2>
1

>  <nFAHRing 2>
1

>  <nRot>
2

>  <SLogP>
1.84

>  <SMR>
81.95

>  <TopoPSA(NO)>
47.86

>  <TopoPSA>
47.86

>  <JGI1>
0.17

>  <JGI2>
0.06

>  <JGI3>
0.05

>  <JGI4>
0.04

>  <JGI5>
0.02

>  <Diameter>
9

>  <Radius>
5

>  <TMWC10>
118.17

>  <TSRW10>
63.02

>  <MW>
299.08

>  <AMW>
8.55

>  <WPath>
828

>  <WPol>
37

>  <Zagreb1>
110

>  <Zagreb2>
130

>  <mZagreb2>
4.69

>  <yes>


>  <nAR-cont>
0.816016

>  <nHA-cont>
0.994529749

>  <MWHBN>
0.346942549

>  <MWHBN-cont>
0.681638141

>  <TPSA-cont>
0.665907481

>  <pka_cont>
0.97

>  <yes.1>


>  <BBB_SCORE>
4.649817922

>  <MMFF94 Energy>
45.591

$$$$
Compound 2053
Actelion Java MolfileCreator 2.0

  0  0  0  0  0  0              0 V3000
M  V30 BEGIN CTAB
M  V30 COUNTS 37 39 0 0 0
M  V30 BEGIN ATOM
M  V30 1 S 0.7297 1.9469 -0.4864 0
M  V30 2 C 0.6002 0.2088 -0.6132 0
M  V30 3 C -0.8571 2.327 0.3304 0
M  V30 4 C 1.5089 -0.5987 0.2386 0
M  V30 5 C -0.266 -0.3214 -1.4959 0
M  V30 6 C -0.915 3.8126 0.7051 0
M  V30 7 C 2.1265 -1.7687 -0.2452 0
M  V30 8 C 1.7942 -0.2225 1.5637 0
M  V30 9 C -0.4446 -1.7542 -1.7606 0
M  V30 10 N -2.2021 4.1318 1.3395 0
M  V30 11 O 1.9237 -2.2436 -1.5233 0
M  V30 12 C 3.0303 -2.5009 0.5376 0
M  V30 13 C 2.677 -0.9677 2.3431 0
M  V30 14 C 0.6323 -2.6494 -1.7751 0
M  V30 15 C -1.7201 -2.2341 -2.0876 0
M  V30 16 C -2.2444 5.5302 1.75 0
M  V30 17 C 3.3029 -2.0992 1.8408 0
M  V30 18 F 2.9291 -0.5814 3.6008 0
M  V30 19 C 0.4463 -3.991 -2.1183 0
M  V30 20 C -1.9126 -3.5808 -2.4091 0
M  V30 21 C -0.8298 -4.4581 -2.4263 0
M  V30 22 H -0.959 1.7089 1.2294 0
M  V30 23 H -1.6777 2.0777 -0.351 0
M  V30 24 H -0.8963 0.3296 -2.0977 0
M  V30 25 H -0.7869 4.431 -0.1921 0
M  V30 26 H -0.0988 4.0441 1.4007 0
M  V30 27 H 1.3387 0.653 2.0163 0
M  V30 28 H -2.9594 3.9581 0.6785 0
M  V30 29 H 3.5098 -3.3859 0.1286 0
M  V30 30 H -2.5768 -1.5639 -2.0944 0
M  V30 31 H -2.1309 6.2034 0.8942 0
M  V30 32 H -1.4647 5.7505 2.4862 0
M  V30 33 H -3.2097 5.7424 2.2199 0
M  V30 34 H 3.9923 -2.6578 2.4649 0
M  V30 35 H 1.2953 -4.668 -2.144 0
M  V30 36 H -2.9081 -3.9422 -2.6555 0
M  V30 37 H -0.9787 -5.5028 -2.6866 0
M  V30 END ATOM
M  V30 BEGIN BOND
M  V30 1 1 1 2
M  V30 2 1 1 3
M  V30 3 1 2 4
M  V30 4 2 2 5
M  V30 5 1 3 6
M  V30 6 2 4 7
M  V30 7 1 4 8
M  V30 8 1 5 9
M  V30 9 1 6 10
M  V30 10 1 7 11
M  V30 11 1 7 12
M  V30 12 2 8 13
M  V30 13 2 9 14
M  V30 14 1 9 15
M  V30 15 1 10 16
M  V30 16 2 12 17
M  V30 17 1 13 18
M  V30 18 1 14 19
M  V30 19 2 15 20
M  V30 20 2 19 21
M  V30 21 1 11 14
M  V30 22 1 13 17
M  V30 23 1 20 21
M  V30 24 1 3 22
M  V30 25 1 3 23
M  V30 26 1 5 24
M  V30 27 1 6 25
M  V30 28 1 6 26
M  V30 29 1 8 27
M  V30 30 1 10 28
M  V30 31 1 12 29
M  V30 32 1 15 30
M  V30 33 1 16 31
M  V30 34 1 16 32
M  V30 35 1 16 33
M  V30 36 1 17 34
M  V30 37 1 19 35
M  V30 38 1 20 36
M  V30 39 1 21 37
M  V30 END BOND
M  V30 END CTAB
M  END
>  <Column 1>
2515

>  <level_0>
3263

>  <index>
3263

>  <Unnamed: 0>
3263

>  <NO.>
3275

>  <Name>
fluradoline

>  <IUPAC_name>
2-(3-fluorobenzo[b][1]benzoxepin-5-yl)sulfanyl-n-methylethanamine

>  <SMILES>
CNCCSC1=Cc2ccccc2Oc2ccc(F)cc21

>  <CID>
6917740

>  <logBB>


>  <BBB+/BBB->
BBB+

>  <Inchi>
InChI=1S/C17H16FNOS/c1-19-8-9-21-17-10-12-4-2-3-5-15(12)20-16-7-6-13(18)11-14(16)17/h2-7-10-11-19H-8-9H2-1H3

>  <threshold>
-1

>  <reference>
R13|R19|R6|R24|R27|R27|R30|

>  <group>
B

>  <Class>
-1

>  <ABC>
16.25

>  <ABCGG>
12.86

>  <nAcid>
0

>  <nBase>
1

>  <nAromAtom>
12

>  <nAromBond>
12

>  <nAtom>
37

>  <nHeavyAtom>
21

>  <nSpiro>
0

>  <nBridgehead>
0

>  <nHetero>
4

>  <nN>
1

>  <nO>
1

>  <nF>
1

>  <BalabanJ>
1.7

>  <BertzCT>
684.24

>  <nBonds>
39

>  <nBondsO>
23

>  <nBondsS>
26

>  <nBondsD>
1

>  <nBondsT>
0

>  <nBondsA>
12

>  <nBondsM>
13

>  <nBondsKS>
32

>  <nBondsKD>
7

>  <RNCG>
0.33

>  <RPCG>
0.1

>  <FCSP3>
0.18

>  <SZ>
26.33

>  <Sm>
25.09

>  <Sv>
24.64

>  <Sse>
37.13

>  <Sp>
26.6

>  <Si>
41.29

>  <MZ>
0.71

>  <Mm>
0.68

>  <Mv>
0.67

>  <Mse>
1

>  <Mp>
0.72

>  <Mi>
1.12

>  <NsCH3>
1

>  <NdCH2>
0

>  <NssCH2>
2

>  <NtCH>
0

>  <NdsCH>
1

>  <NaaCH>
7

>  <NsssCH>
0

>  <NddC>
0

>  <NtsC>
0

>  <NdssC>
1

>  <NaasC>
5

>  <NaaaC>
0

>  <NssssC>
0

>  <NsNH3>
0

>  <NsNH2>
0

>  <NssNH2>
0

>  <NdNH>
0

>  <NssNH>
1

>  <NaaNH>
0

>  <NtN>
0

>  <NsssNH>
0

>  <NdsN>
0

>  <NaaN>
0

>  <NsssN>
0

>  <NddsN>
0

>  <NaasN>
0

>  <NssssN>
0

>  <NsOH>
0

>  <NdO>
0

>  <NssO>
1

>  <NaaO>
0

>  <NsF>
1

>  <NsSiH3>
0

>  <NssSiH2>
0

>  <NsssSiH>
0

>  <NssssSi>
0

>  <NsPH2>
0

>  <NssPH>
0

>  <NsssP>
0

>  <NdsssP>
0

>  <NsssssP>
0

>  <NsSH>
0

>  <NdS>
0

>  <NssS>
1

>  <NaaS>
0

>  <NdssS>
0

>  <NddssS>
0

>  <NsCl>
0

>  <NsBr>
0

>  <NsI>
0

>  <fragCpx>
109.04

>  <fMF>
0.41

>  <nHBAcc>
3

>  <nHBDon>
1

>  <Kier1>
15.88

>  <Kier2>
7.51

>  <Lipinski>
1

>  <GhoseFilter>
1

>  <FilterItLogS>
-5.52

>  <VMcGowan>
221.67

>  <LabuteASA>
127.57

>  <PEOE_VSA1>
10.05

>  <PEOE_VSA2>
0

>  <PEOE_VSA3>
4.39

>  <PEOE_VSA4>
0

>  <PEOE_VSA5>
11.76

>  <PEOE_VSA6>
18.2

>  <PEOE_VSA7>
37.39

>  <PEOE_VSA8>
28.33

>  <PEOE_VSA9>
0

>  <PEOE_VSA10>
17.32

>  <PEOE_VSA11>
0

>  <PEOE_VSA12>
0

>  <PEOE_VSA13>
0

>  <SMR_VSA1>
9.13

>  <SMR_VSA2>
0

>  <SMR_VSA3>
5.32

>  <SMR_VSA4>
0

>  <SMR_VSA5>
0

>  <SMR_VSA6>
19.35

>  <SMR_VSA7>
59.41

>  <SMR_VSA8>
0

>  <SMR_VSA9>
11.5

>  <SlogP_VSA1>
10.05

>  <SlogP_VSA2>
19.35

>  <SlogP_VSA3>
0

>  <SlogP_VSA4>
5.82

>  <SlogP_VSA5>
11.13

>  <SlogP_VSA6>
42.46

>  <SlogP_VSA7>
0

>  <SlogP_VSA8>
10.98

>  <SlogP_VSA9>
0

>  <SlogP_VSA10>
4.39

>  <SlogP_VSA11>
11.5

>  <EState_VSA1>
0

>  <EState_VSA2>
5.82

>  <EState_VSA3>
5.75

>  <EState_VSA4>
34.08

>  <EState_VSA5>
6.07

>  <EState_VSA6>
23.89

>  <EState_VSA7>
31.31

>  <EState_VSA8>
11.39

>  <EState_VSA9>
4.74

>  <EState_VSA10>
4.39

>  <VSA_EState1>
19.56

>  <VSA_EState2>
1.03

>  <VSA_EState3>
3.12

>  <VSA_EState4>
1.83

>  <VSA_EState5>
2.17

>  <VSA_EState6>
12.53

>  <VSA_EState7>
2.07

>  <VSA_EState8>
0.9

>  <VSA_EState9>
1.92

>  <apol>
44.42

>  <bpol>
21.93

>  <nRing>
3

>  <nHRing>
1

>  <naRing>
2

>  <naHRing>
0

>  <nARing 2>
1

>  <nAHRing 2>
1

>  <nFRing>
1

>  <nFHRing>
1

>  <nFaRing>
0

>  <nFaHRing>
0

>  <nFARing 2>
1

>  <nFAHRing 2>
1

>  <nRot>
4

>  <SLogP>
4.38

>  <SMR>
87.17

>  <TopoPSA(NO)>
21.26

>  <TopoPSA>
46.56

>  <JGI1>
0.15

>  <JGI2>
0.06

>  <JGI3>
0.03

>  <JGI4>
0.05

>  <JGI5>
0.02

>  <Diameter>
10

>  <Radius>
5

>  <TMWC10>
117.57

>  <TSRW10>
62.81

>  <MW>
301.09

>  <AMW>
8.14

>  <WPath>
885

>  <WPol>
35

>  <Zagreb1>
108

>  <Zagreb2>
126

>  <mZagreb2>
4.75

>  <yes>


>  <nAR-cont>
0.816016

>  <nHA-cont>
0.994529749

>  <MWHBN>
0.230521706

>  <MWHBN-cont>
0.986242548

>  <TPSA-cont>
0.674982288

>  <pka_cont>
0.97

>  <yes.1>


>  <BBB_SCORE>
5.124874147

>  <MMFF94 Energy>
76.628

$$$$
Compound 2054
Actelion Java MolfileCreator 2.0

  0  0  0  0  0  0              0 V3000
M  V30 BEGIN CTAB
M  V30 COUNTS 54 54 0 0 0
M  V30 BEGIN ATOM
M  V30 1 O 0.0783 -1.4894 -2.4309 0
M  V30 2 C -0.0543 -0.2713 -2.4206 0
M  V30 3 O -0.2318 0.5224 -1.2898 0
M  V30 4 C -0.0436 0.6124 -3.6746 0
M  V30 5 C -0.4128 -0.2207 -0.1239 0
M  V30 6 C -1.3463 1.4216 -3.7471 0
M  V30 7 C 1.1666 1.5517 -3.6308 0
M  V30 8 C 0.0568 -0.2764 -4.9248 0
M  V30 9 C 0.6715 -0.689 0.6127 0
M  V30 10 C -1.7162 -0.4257 0.329 0
M  V30 11 O 1.9741 -0.4753 0.1653 0
M  V30 12 C 0.4641 -1.4302 1.774 0
M  V30 13 C -1.9458 -1.1517 1.5088 0
M  V30 14 C 2.5925 0.6045 0.7896 0
M  V30 15 C -0.8408 -1.6549 2.2212 0
M  V30 16 C -3.3453 -1.3693 2.0441 0 CFG=2
M  V30 17 O 2.0728 1.3547 1.6077 0
M  V30 18 C 4.0461 0.7147 0.3133 0
M  V30 19 O -4.3095 -1.3226 0.9858 0
M  V30 20 C -3.7228 -0.3024 3.1016 0
M  V30 21 C 4.7189 1.9147 0.9992 0
M  V30 22 C 4.8041 -0.5647 0.6915 0
M  V30 23 C 4.0788 0.9274 -1.2044 0
M  V30 24 N -5.1483 -0.3728 3.4942 0
M  V30 25 C -5.4136 -1.505 4.3767 0
M  V30 26 H -1.4324 2.1267 -2.9126 0
M  V30 27 H -1.4017 2.0023 -4.6746 0
M  V30 28 H -2.2215 0.7628 -3.7073 0
M  V30 29 H 1.1336 2.2143 -2.7587 0
M  V30 30 H 2.1012 0.9833 -3.5737 0
M  V30 31 H 1.2115 2.1829 -4.5253 0
M  V30 32 H -0.7885 -0.9715 -4.9864 0
M  V30 33 H 0.9735 -0.8773 -4.913 0
M  V30 34 H 0.0637 0.3245 -5.841 0
M  V30 35 H -2.5537 -0.0294 -0.2399 0
M  V30 36 H 1.307 -1.822 2.3347 0
M  V30 37 H -0.9921 -2.2255 3.1354 0
M  V30 38 H -3.4063 -2.3758 2.4736 0
M  V30 39 H -5.1479 -1.1005 1.4405 0
M  V30 40 H -3.576 0.6915 2.6595 0
M  V30 41 H -3.0664 -0.3561 3.9785 0
M  V30 42 H 4.713 1.804 2.0899 0
M  V30 43 H 5.7617 2.0223 0.6802 0
M  V30 44 H 4.1985 2.8503 0.763 0
M  V30 45 H 4.7383 -0.7572 1.7686 0
M  V30 46 H 4.395 -1.443 0.1798 0
M  V30 47 H 5.8642 -0.4912 0.4247 0
M  V30 48 H 3.5003 1.8138 -1.4883 0
M  V30 49 H 3.6523 0.0729 -1.7413 0
M  V30 50 H 5.1046 1.0642 -1.5643 0
M  V30 51 H -5.3777 0.4854 4.0 0
M  V30 52 H -4.7947 -1.4654 5.2789 0
M  V30 53 H -5.2511 -2.46 3.8692 0
M  V30 54 H -6.4624 -1.4797 4.689 0
M  V30 END ATOM
M  V30 BEGIN BOND
M  V30 1 2 1 2
M  V30 2 1 2 3
M  V30 3 1 2 4
M  V30 4 1 3 5
M  V30 5 1 4 6
M  V30 6 1 4 7
M  V30 7 1 4 8
M  V30 8 2 5 9
M  V30 9 1 5 10
M  V30 10 1 9 11
M  V30 11 1 9 12
M  V30 12 2 10 13
M  V30 13 1 11 14
M  V30 14 2 12 15
M  V30 15 1 13 16
M  V30 16 2 14 17
M  V30 17 1 14 18
M  V30 18 1 16 19
M  V30 19 1 16 20
M  V30 20 1 18 21
M  V30 21 1 18 22
M  V30 22 1 18 23
M  V30 23 1 20 24
M  V30 24 1 24 25
M  V30 25 1 13 15
M  V30 26 1 6 26
M  V30 27 1 6 27
M  V30 28 1 6 28
M  V30 29 1 7 29
M  V30 30 1 7 30
M  V30 31 1 7 31
M  V30 32 1 8 32
M  V30 33 1 8 33
M  V30 34 1 8 34
M  V30 35 1 10 35
M  V30 36 1 12 36
M  V30 37 1 15 37
M  V30 38 1 16 38
M  V30 39 1 19 39
M  V30 40 1 20 40
M  V30 41 1 20 41
M  V30 42 1 21 42
M  V30 43 1 21 43
M  V30 44 1 21 44
M  V30 45 1 22 45
M  V30 46 1 22 46
M  V30 47 1 22 47
M  V30 48 1 23 48
M  V30 49 1 23 49
M  V30 50 1 23 50
M  V30 51 1 24 51
M  V30 52 1 25 52
M  V30 53 1 25 53
M  V30 54 1 25 54
M  V30 END BOND
M  V30 BEGIN COLLECTION
M  V30 MDLV30/STEABS ATOMS=(1 16)
M  V30 END COLLECTION
M  V30 END CTAB
M  END
>  <Column 1>
2516

>  <level_0>
3271

>  <index>
3271

>  <Unnamed: 0>
3271

>  <NO.>
3283

>  <Name>
unii-62o79nuo5m

>  <IUPAC_name>
[2-(2-2-dimethylpropanoyloxy)-4-[(1s)-1-hydroxy-2-(methylamino)ethyl]phenyl] 2-2-dimethylpropanoate

>  <SMILES>
CNC[C@@H](O)c1ccc(OC(=O)C(C)(C)C)c(OC(=O)C(C)(C)C)c1

>  <CID>
969492

>  <logBB>


>  <BBB+/BBB->
BBB-

>  <Inchi>
InChI=1S/C19H29NO5/c1-18(2-3)16(22)24-14-9-8-12(13(21)11-20-7)10-15(14)25-17(23)19(4-5)6/h8-10-13-20-21H-11H2-1-7H3/t13-/m1/s1

>  <threshold>
-1

>  <reference>
R13|

>  <group>
B

>  <Class>
-1

>  <ABC>
18.76

>  <ABCGG>
16.79

>  <nAcid>
0

>  <nBase>
1

>  <nAromAtom>
6

>  <nAromBond>
6

>  <nAtom>
54

>  <nHeavyAtom>
25

>  <nSpiro>
0

>  <nBridgehead>
0

>  <nHetero>
6

>  <nN>
1

>  <nO>
5

>  <nF>
0

>  <BalabanJ>
2.84

>  <BertzCT>
625.68

>  <nBonds>
54

>  <nBondsO>
25

>  <nBondsS>
46

>  <nBondsD>
2

>  <nBondsT>
0

>  <nBondsA>
6

>  <nBondsM>
8

>  <nBondsKS>
49

>  <nBondsKD>
5

>  <RNCG>
0.17

>  <RPCG>
0.13

>  <FCSP3>
0.58

>  <SZ>
31.67

>  <Sm>
29.26

>  <Sv>
31.19

>  <Sse>
54.19

>  <Sp>
33.64

>  <Si>
61.36

>  <MZ>
0.59

>  <Mm>
0.54

>  <Mv>
0.58

>  <Mse>
1

>  <Mp>
0.62

>  <Mi>
1.14

>  <NsCH3>
7

>  <NdCH2>
0

>  <NssCH2>
1

>  <NtCH>
0

>  <NdsCH>
0

>  <NaaCH>
3

>  <NsssCH>
1

>  <NddC>
0

>  <NtsC>
0

>  <NdssC>
2

>  <NaasC>
3

>  <NaaaC>
0

>  <NssssC>
2

>  <NsNH3>
0

>  <NsNH2>
0

>  <NssNH2>
0

>  <NdNH>
0

>  <NssNH>
1

>  <NaaNH>
0

>  <NtN>
0

>  <NsssNH>
0

>  <NdsN>
0

>  <NaaN>
0

>  <NsssN>
0

>  <NddsN>
0

>  <NaasN>
0

>  <NssssN>
0

>  <NsOH>
1

>  <NdO>
2

>  <NssO>
2

>  <NaaO>
0

>  <NsF>
0

>  <NsSiH3>
0

>  <NssSiH2>
0

>  <NsssSiH>
0

>  <NssssSi>
0

>  <NsPH2>
0

>  <NssPH>
0

>  <NsssP>
0

>  <NdsssP>
0

>  <NsssssP>
0

>  <NsSH>
0

>  <NdS>
0

>  <NssS>
0

>  <NaaS>
0

>  <NdssS>
0

>  <NddssS>
0

>  <NsCl>
0

>  <NsBr>
0

>  <NsI>
0

>  <fragCpx>
25.06

>  <fMF>
0.11

>  <nHBAcc>
6

>  <nHBDon>
2

>  <Kier1>
23.04

>  <Kier2>
9.27

>  <Lipinski>
1

>  <GhoseFilter>
1

>  <FilterItLogS>
-4.02

>  <VMcGowan>
285.54

>  <LabuteASA>
149.07

>  <PEOE_VSA1>
19.9

>  <PEOE_VSA2>
9.59

>  <PEOE_VSA3>
0

>  <PEOE_VSA4>
0

>  <PEOE_VSA5>
0

>  <PEOE_VSA6>
6.07

>  <PEOE_VSA7>
66.29

>  <PEOE_VSA8>
6.54

>  <PEOE_VSA9>
16.93

>  <PEOE_VSA10>
0

>  <PEOE_VSA11>
11.5

>  <PEOE_VSA12>
0

>  <PEOE_VSA13>
0

>  <SMR_VSA1>
24.17

>  <SMR_VSA2>
0

>  <SMR_VSA3>
5.32

>  <SMR_VSA4>
10.83

>  <SMR_VSA5>
47.65

>  <SMR_VSA6>
13.59

>  <SMR_VSA7>
23.76

>  <SMR_VSA8>
0

>  <SMR_VSA9>
11.5

>  <SlogP_VSA1>
14.79

>  <SlogP_VSA2>
30.64

>  <SlogP_VSA3>
9.59

>  <SlogP_VSA4>
10.83

>  <SlogP_VSA5>
53.21

>  <SlogP_VSA6>
18.2

>  <SlogP_VSA7>
0

>  <SlogP_VSA8>
0

>  <SlogP_VSA9>
0

>  <SlogP_VSA10>
0

>  <SlogP_VSA11>
11.5

>  <EState_VSA1>
28.87

>  <EState_VSA2>
11.5

>  <EState_VSA3>
12.11

>  <EState_VSA4>
0

>  <EState_VSA5>
12.13

>  <EState_VSA6>
54.66

>  <EState_VSA7>
0

>  <EState_VSA8>
5.32

>  <EState_VSA9>
9.47

>  <EState_VSA10>
14.7

>  <VSA_EState1>
10.85

>  <VSA_EState2>
24.41

>  <VSA_EState3>
13

>  <VSA_EState4>
-0.86

>  <VSA_EState5>
-0.63

>  <VSA_EState6>
4.7

>  <VSA_EState7>
-0.77

>  <VSA_EState8>
10.75

>  <VSA_EState9>
1.73

>  <apol>
56.18

>  <bpol>
34.87

>  <nRing>
1

>  <nHRing>
0

>  <naRing>
1

>  <naHRing>
0

>  <nARing 2>
0

>  <nAHRing 2>
0

>  <nFRing>
0

>  <nFHRing>
0

>  <nFaRing>
0

>  <nFaHRing>
0

>  <nFARing 2>
0

>  <nFAHRing 2>
0

>  <nRot>
5

>  <SLogP>
2.84

>  <SMR>
95.51

>  <TopoPSA(NO)>
84.86

>  <TopoPSA>
84.86

>  <JGI1>
0.36

>  <JGI2>
0.11

>  <JGI3>
0.04

>  <JGI4>
0.05

>  <JGI5>
0.04

>  <Diameter>
11

>  <Radius>
6

>  <TMWC10>
124.08

>  <TSRW10>
59.5

>  <MW>
351.2

>  <AMW>
6.5

>  <WPath>
1522

>  <WPol>
37

>  <Zagreb1>
124

>  <Zagreb2>
139

>  <mZagreb2>
5.39

>  <yes>


>  <nAR-cont>
0.336376

>  <nHA-cont>
0.921834225

>  <MWHBN>
0.426886807

>  <MWHBN-cont>
0.371542526

>  <TPSA-cont>
0.407624505

>  <pka_cont>
0.97

>  <yes.1>


>  <BBB_SCORE>
3.115773024

>  <MMFF94 Energy>
90.85

$$$$
Compound 2055
Actelion Java MolfileCreator 2.0

  0  0  0  0  0  0              0 V3000
M  V30 BEGIN CTAB
M  V30 COUNTS 64 66 0 0 0
M  V30 BEGIN ATOM
M  V30 1 O 0.0 -3.4197 -1.3509 0
M  V30 2 N -0.4306 -2.6252 -2.1989 0 CHG=1
M  V30 3 O -1.325 -2.8871 -3.0167 0 CHG=-1
M  V30 4 C 0.1583 -1.2809 -2.2405 0
M  V30 5 C 1.1081 -0.9078 -1.2795 0
M  V30 6 C -0.236 -0.3837 -3.241 0
M  V30 7 C 1.6735 0.3802 -1.3142 0
M  V30 8 C 0.3217 0.8936 -3.2757 0
M  V30 9 C 1.268 1.2725 -2.321 0
M  V30 10 C 2.7114 0.8239 -0.2734 0 CFG=1
M  V30 11 C 2.1038 0.827 1.1236 0
M  V30 12 C 3.9744 -0.0233 -0.369 0
M  V30 13 C 2.62 0.0819 2.1263 0
M  V30 14 C 0.9308 1.7102 1.2807 0
M  V30 15 C 4.4307 -0.7386 0.684 0
M  V30 16 C 4.6586 0.0371 -1.6772 0
M  V30 17 N 3.7358 -0.7045 1.884 0
M  V30 18 C 2.1006 0.07 3.541 0
M  V30 19 O 0.9129 2.8783 0.927 0
M  V30 20 O -0.1155 0.9985 1.7656 0
M  V30 21 C 5.6999 -1.5515 0.684 0
M  V30 22 O 4.9066 1.0823 -2.2583 0
M  V30 23 O 4.8784 -1.2156 -2.1485 0
M  V30 24 C -1.348 1.7337 1.8287 0
M  V30 25 C 5.4717 -1.2475 -3.4464 0
M  V30 26 C -2.4427 0.7833 2.3324 0
M  V30 27 N -3.7667 1.4052 2.472 0
M  V30 28 C -4.3876 1.8282 1.2033 0
M  V30 29 C -4.6514 0.5606 3.2725 0
M  V30 30 C -4.706 0.7423 0.1947 0
M  V30 31 C -3.789 0.3996 -0.8108 0
M  V30 32 C -5.9355 0.0661 0.2407 0
M  V30 33 C -4.0896 -0.6032 -1.7347 0
M  V30 34 C -6.2332 -0.9376 -0.6823 0
M  V30 35 C -5.3089 -1.2736 -1.6679 0
M  V30 36 H 1.4125 -1.6083 -0.502 0
M  V30 37 H -0.9684 -0.6617 -3.9959 0
M  V30 38 H 0.0223 1.5986 -4.0486 0
M  V30 39 H 1.6912 2.2763 -2.3678 0
M  V30 40 H 3.0101 1.8606 -0.4885 0
M  V30 41 H 4.1033 -1.2532 2.658 0
M  V30 42 H 1.5289 -0.8455 3.7238 0
M  V30 43 H 1.4654 0.9297 3.7722 0
M  V30 44 H 2.9337 0.1011 4.2524 0
M  V30 45 H 6.3935 -1.2622 -0.1103 0
M  V30 46 H 5.4652 -2.6151 0.5757 0
M  V30 47 H 6.2398 -1.4152 1.6281 0
M  V30 48 H -1.5833 2.1127 0.8293 0
M  V30 49 H -1.2327 2.5752 2.5222 0
M  V30 50 H 5.613 -2.2944 -3.7285 0
M  V30 51 H 4.8108 -0.7767 -4.1811 0
M  V30 52 H 6.4501 -0.757 -3.4334 0
M  V30 53 H -2.477 -0.1162 1.7052 0
M  V30 54 H -2.1082 0.4236 3.3159 0
M  V30 55 H -5.3152 2.3722 1.4308 0
M  V30 56 H -3.762 2.5896 0.7208 0
M  V30 57 H -5.636 1.0264 3.3928 0
M  V30 58 H -4.7847 -0.438 2.8433 0
M  V30 59 H -4.2458 0.4384 4.2835 0
M  V30 60 H -2.8341 0.9139 -0.8841 0
M  V30 61 H -6.6711 0.3186 1.0013 0
M  V30 62 H -3.3755 -0.8647 -2.5102 0
M  V30 63 H -7.1865 -1.4571 -0.6322 0
M  V30 64 H -5.5377 -2.0567 -2.3862 0
M  V30 END ATOM
M  V30 BEGIN BOND
M  V30 1 2 1 2
M  V30 2 1 2 3
M  V30 3 1 2 4
M  V30 4 2 4 5
M  V30 5 1 4 6
M  V30 6 1 5 7
M  V30 7 2 6 8
M  V30 8 2 7 9
M  V30 9 1 7 10
M  V30 10 1 10 11
M  V30 11 1 10 12
M  V30 12 2 11 13
M  V30 13 1 11 14
M  V30 14 2 12 15
M  V30 15 1 12 16
M  V30 16 1 13 17
M  V30 17 1 13 18
M  V30 18 2 14 19
M  V30 19 1 14 20
M  V30 20 1 15 21
M  V30 21 2 16 22
M  V30 22 1 16 23
M  V30 23 1 20 24
M  V30 24 1 23 25
M  V30 25 1 24 26
M  V30 26 1 26 27
M  V30 27 1 27 28
M  V30 28 1 27 29
M  V30 29 1 28 30
M  V30 30 2 30 31
M  V30 31 1 30 32
M  V30 32 1 31 33
M  V30 33 2 32 34
M  V30 34 2 33 35
M  V30 35 1 8 9
M  V30 36 1 15 17
M  V30 37 1 34 35
M  V30 38 1 5 36
M  V30 39 1 6 37
M  V30 40 1 8 38
M  V30 41 1 9 39
M  V30 42 1 10 40
M  V30 43 1 17 41
M  V30 44 1 18 42
M  V30 45 1 18 43
M  V30 46 1 18 44
M  V30 47 1 21 45
M  V30 48 1 21 46
M  V30 49 1 21 47
M  V30 50 1 24 48
M  V30 51 1 24 49
M  V30 52 1 25 50
M  V30 53 1 25 51
M  V30 54 1 25 52
M  V30 55 1 26 53
M  V30 56 1 26 54
M  V30 57 1 28 55
M  V30 58 1 28 56
M  V30 59 1 29 57
M  V30 60 1 29 58
M  V30 61 1 29 59
M  V30 62 1 31 60
M  V30 63 1 32 61
M  V30 64 1 33 62
M  V30 65 1 34 63
M  V30 66 1 35 64
M  V30 END BOND
M  V30 BEGIN COLLECTION
M  V30 MDLV30/STEABS ATOMS=(1 10)
M  V30 END COLLECTION
M  V30 END CTAB
M  END
>  <Column 1>
2522

>  <level_0>
3326

>  <index>
3326

>  <Unnamed: 0>
3326

>  <NO.>
3338

>  <Name>
(r)-nicardipine

>  <IUPAC_name>
5-o-[2-[benzyl(methyl)amino]ethyl] 3-o-methyl (4r)-2-6-dimethyl-4-(3-nitrophenyl)-1-4-dihydropyridine-3-5-dicarboxylate

>  <SMILES>
COC(=O)C1=C(C)NC(C)=C(C(=O)OCCN(C)Cc2ccccc2)[C@@H]1c1cccc([N+](=O)[O-])c1

>  <CID>
6603948

>  <logBB>


>  <BBB+/BBB->
BBB-

>  <Inchi>
InChI=1S/C26H29N3O6/c1-17-22(25(30)34-4)24(20-11-8-12-21(15-20)29(32)33)23(18(2)27-17)26(31)35-14-13-28(3)16-19-9-6-5-7-10-19/h5-12-15-24-27H-13-14-16H2-1-4H3/t24-/m1/s1

>  <threshold>
-1

>  <reference>
R13|

>  <group>
B

>  <Class>
1

>  <ABC>
26.61

>  <ABCGG>
21.49

>  <nAcid>
0

>  <nBase>
1

>  <nAromAtom>
12

>  <nAromBond>
12

>  <nAtom>
64

>  <nHeavyAtom>
35

>  <nSpiro>
0

>  <nBridgehead>
0

>  <nHetero>
9

>  <nN>
3

>  <nO>
6

>  <nF>
0

>  <BalabanJ>
1.67

>  <BertzCT>
1172.62

>  <nBonds>
66

>  <nBondsO>
37

>  <nBondsS>
49

>  <nBondsD>
5

>  <nBondsT>
0

>  <nBondsA>
12

>  <nBondsM>
17

>  <nBondsKS>
55

>  <nBondsKD>
11

>  <RNCG>
0.15

>  <RPCG>
0.11

>  <FCSP3>
0.31

>  <SZ>
42.33

>  <Sm>
39.92

>  <Sv>
40.42

>  <Sse>
64.85

>  <Sp>
42.44

>  <Si>
72.15

>  <MZ>
0.66

>  <Mm>
0.62

>  <Mv>
0.63

>  <Mse>
1.01

>  <Mp>
0.66

>  <Mi>
1.13

>  <NsCH3>
4

>  <NdCH2>
0

>  <NssCH2>
3

>  <NtCH>
0

>  <NdsCH>
0

>  <NaaCH>
9

>  <NsssCH>
1

>  <NddC>
0

>  <NtsC>
0

>  <NdssC>
6

>  <NaasC>
3

>  <NaaaC>
0

>  <NssssC>
0

>  <NsNH3>
0

>  <NsNH2>
0

>  <NssNH2>
0

>  <NdNH>
0

>  <NssNH>
1

>  <NaaNH>
0

>  <NtN>
0

>  <NsssNH>
0

>  <NdsN>
0

>  <NaaN>
0

>  <NsssN>
1

>  <NddsN>
1

>  <NaasN>
0

>  <NssssN>
0

>  <NsOH>
0

>  <NdO>
3

>  <NssO>
2

>  <NaaO>
0

>  <NsF>
0

>  <NsSiH3>
0

>  <NssSiH2>
0

>  <NsssSiH>
0

>  <NssssSi>
0

>  <NsPH2>
0

>  <NssPH>
0

>  <NsssP>
0

>  <NdsssP>
0

>  <NsssssP>
0

>  <NsSH>
0

>  <NdS>
0

>  <NssS>
0

>  <NaaS>
0

>  <NdssS>
0

>  <NddssS>
0

>  <NsCl>
0

>  <NsBr>
0

>  <NsI>
0

>  <fragCpx>
179.09

>  <fMF>
0.38

>  <nHBAcc>
8

>  <nHBDon>
1

>  <Kier1>
29.55

>  <Kier2>
14.24

>  <Lipinski>
1

>  <GhoseFilter>
0

>  <FilterItLogS>
-6.03

>  <VMcGowan>
362.48

>  <LabuteASA>
203.73

>  <PEOE_VSA1>
14.79

>  <PEOE_VSA2>
15.01

>  <PEOE_VSA3>
9.59

>  <PEOE_VSA4>
0

>  <PEOE_VSA5>
0

>  <PEOE_VSA6>
42.46

>  <PEOE_VSA7>
32.02

>  <PEOE_VSA8>
36.62

>  <PEOE_VSA9>
29.1

>  <PEOE_VSA10>
6.61

>  <PEOE_VSA11>
0

>  <PEOE_VSA12>
0

>  <PEOE_VSA13>
5.69

>  <SMR_VSA1>
23.99

>  <SMR_VSA2>
0

>  <SMR_VSA3>
10.22

>  <SMR_VSA4>
0

>  <SMR_VSA5>
26.31

>  <SMR_VSA6>
27.31

>  <SMR_VSA7>
98.38

>  <SMR_VSA8>
0

>  <SMR_VSA9>
0

>  <SlogP_VSA1>
5.32

>  <SlogP_VSA2>
49.07

>  <SlogP_VSA3>
25.61

>  <SlogP_VSA4>
10.11

>  <SlogP_VSA5>
30.89

>  <SlogP_VSA6>
77.14

>  <SlogP_VSA7>
0

>  <SlogP_VSA8>
0

>  <SlogP_VSA9>
0

>  <SlogP_VSA10>
5.69

>  <SlogP_VSA11>
0

>  <EState_VSA1>
22.78

>  <EState_VSA2>
23.44

>  <EState_VSA3>
30.05

>  <EState_VSA4>
5.56

>  <EState_VSA5>
25.31

>  <EState_VSA6>
19.91

>  <EState_VSA7>
42.28

>  <EState_VSA8>
5.32

>  <EState_VSA9>
9.47

>  <EState_VSA10>
19.7

>  <VSA_EState1>
10.57

>  <VSA_EState2>
38.85

>  <VSA_EState3>
14.43

>  <VSA_EState4>
2.85

>  <VSA_EState5>
-2.11

>  <VSA_EState6>
15.83

>  <VSA_EState7>
0

>  <VSA_EState8>
4.74

>  <VSA_EState9>
3.18

>  <apol>
70.87

>  <bpol>
37.75

>  <nRing>
3

>  <nHRing>
1

>  <naRing>
2

>  <naHRing>
0

>  <nARing 2>
1

>  <nAHRing 2>
1

>  <nFRing>
0

>  <nFHRing>
0

>  <nFaRing>
0

>  <nFaHRing>
0

>  <nFARing 2>
0

>  <nFAHRing 2>
0

>  <nRot>
9

>  <SLogP>
3.68

>  <SMR>
130.12

>  <TopoPSA(NO)>
111.01

>  <TopoPSA>
111.01

>  <JGI1>
0.19

>  <JGI2>
0.07

>  <JGI3>
0.06

>  <JGI4>
0.04

>  <JGI5>
0.03

>  <Diameter>
16

>  <Radius>
8

>  <TMWC10>
150.1

>  <TSRW10>
71.26

>  <MW>
479.21

>  <AMW>
7.49

>  <WPath>
3884

>  <WPol>
57

>  <Zagreb1>
176

>  <Zagreb2>
205

>  <mZagreb2>
7.89

>  <yes>


>  <nAR-cont>
0.816016

>  <nHA-cont>
0.523063577

>  <MWHBN>
0.411130383

>  <MWHBN-cont>
0.432404606

>  <TPSA-cont>
0.225081267

>  <pka_cont>
0.97

>  <yes.1>


>  <BBB_SCORE>
2.92284902

>  <MMFF94 Energy>
82.111

$$$$
Compound 2056
Actelion Java MolfileCreator 2.0

  0  0  0  0  0  0              0 V3000
M  V30 BEGIN CTAB
M  V30 COUNTS 36 37 0 0 0
M  V30 BEGIN ATOM
M  V30 1 Cl 1.8418 4.5693 5.2922 0
M  V30 2 C 1.8838 3.5346 3.9192 0
M  V30 3 C 0.739 3.3577 3.1488 0
M  V30 4 C 3.0624 2.8776 3.5819 0
M  V30 5 C 0.775 2.5142 2.0331 0
M  V30 6 C 3.0916 2.0375 2.4641 0
M  V30 7 C 1.9506 1.8459 1.6691 0
M  V30 8 N 2.0301 0.9618 0.5794 0
M  V30 9 C 1.0466 0.2426 -0.0638 0
M  V30 10 C 1.336 -0.1775 -1.4308 0
M  V30 11 C -0.0991 -0.1999 0.4915 0
M  V30 12 C 0.3891 -0.6497 -2.2564 0
M  V30 13 C -1.1205 -1.031 -0.2611 0 CFG=1
M  V30 14 O 0.7369 -1.0182 -3.5448 0
M  V30 15 C -1.0544 -0.7526 -1.7882 0 CFG=2
M  V30 16 C -0.9092 -2.5059 0.1085 0
M  V30 17 C -1.9164 -1.7267 -2.5864 0
M  V30 18 O -1.5243 -2.3605 -3.5614 0
M  V30 19 O -3.1947 -1.7444 -2.1133 0
M  V30 20 C -4.0739 -2.6107 -2.8328 0
M  V30 21 H -0.1829 3.8729 3.4034 0
M  V30 22 H 3.9584 3.008 4.1821 0
M  V30 23 H -0.1239 2.4127 1.4315 0
M  V30 24 H 4.017 1.5194 2.2239 0
M  V30 25 H 2.9541 0.8902 0.1677 0
M  V30 26 H 2.3567 -0.0975 -1.7916 0
M  V30 27 H -0.3111 -0.0062 1.5389 0
M  V30 28 H -2.1152 -0.7328 0.0959 0
M  V30 29 H 0.0353 -1.5949 -3.9183 0
M  V30 30 H -1.496 0.237 -1.9831 0
M  V30 31 H -0.9138 -2.6405 1.1964 0
M  V30 32 H -1.7068 -3.1375 -0.2944 0
M  V30 33 H 0.0453 -2.8877 -0.2698 0
M  V30 34 H -5.0595 -2.56 -2.3618 0
M  V30 35 H -4.1686 -2.2816 -3.8721 0
M  V30 36 H -3.7186 -3.6446 -2.7827 0
M  V30 END ATOM
M  V30 BEGIN BOND
M  V30 1 1 1 2
M  V30 2 2 2 3
M  V30 3 1 2 4
M  V30 4 1 3 5
M  V30 5 2 4 6
M  V30 6 2 5 7
M  V30 7 1 7 8
M  V30 8 1 8 9
M  V30 9 1 9 10
M  V30 10 2 9 11
M  V30 11 2 10 12
M  V30 12 1 11 13
M  V30 13 1 12 14
M  V30 14 1 12 15
M  V30 15 1 13 16
M  V30 16 1 15 17
M  V30 17 2 17 18
M  V30 18 1 17 19
M  V30 19 1 19 20
M  V30 20 1 6 7
M  V30 21 1 13 15
M  V30 22 1 3 21
M  V30 23 1 4 22
M  V30 24 1 5 23
M  V30 25 1 6 24
M  V30 26 1 8 25
M  V30 27 1 10 26
M  V30 28 1 11 27
M  V30 29 1 13 28
M  V30 30 1 14 29
M  V30 31 1 15 30
M  V30 32 1 16 31
M  V30 33 1 16 32
M  V30 34 1 16 33
M  V30 35 1 20 34
M  V30 36 1 20 35
M  V30 37 1 20 36
M  V30 END BOND
M  V30 BEGIN COLLECTION
M  V30 MDLV30/STEABS ATOMS=(2 13 15)
M  V30 END COLLECTION
M  V30 END CTAB
M  END
>  <Column 1>
2523

>  <level_0>
3328

>  <index>
3328

>  <Unnamed: 0>
3328

>  <NO.>
3340

>  <Name>


>  <IUPAC_name>


>  <SMILES>
COC(=O)[C@@H]1C(O)=CC(Nc2ccc(Cl)cc2)=C[C@@H]1C

>  <CID>


>  <logBB>


>  <BBB+/BBB->
BBB+

>  <Inchi>
InChI=1S/C15H16ClNO3/c1-9-7-12(8-13(18)14(9)15(19)20-2)17-11-5-3-10(16)4-6-11/h3-9-14-17-18H-1-2H3/t9--14-/m0/s1

>  <threshold>
-1

>  <reference>
R13|

>  <group>
B

>  <Class>
1

>  <ABC>
15.17

>  <ABCGG>
12.75

>  <nAcid>
0

>  <nBase>
0

>  <nAromAtom>
6

>  <nAromBond>
6

>  <nAtom>
36

>  <nHeavyAtom>
20

>  <nSpiro>
0

>  <nBridgehead>
0

>  <nHetero>
5

>  <nN>
1

>  <nO>
3

>  <nF>
0

>  <BalabanJ>
1.84

>  <BertzCT>
562.99

>  <nBonds>
37

>  <nBondsO>
21

>  <nBondsS>
28

>  <nBondsD>
3

>  <nBondsT>
0

>  <nBondsA>
6

>  <nBondsM>
9

>  <nBondsKS>
31

>  <nBondsKD>
6

>  <RNCG>
0.26

>  <RPCG>
0.16

>  <FCSP3>
0.27

>  <SZ>
25.67

>  <Sm>
24.46

>  <Sv>
23.33

>  <Sse>
36.52

>  <Sp>
24.79

>  <Si>
40.39

>  <MZ>
0.71

>  <Mm>
0.68

>  <Mv>
0.65

>  <Mse>
1.01

>  <Mp>
0.69

>  <Mi>
1.12

>  <NsCH3>
2

>  <NdCH2>
0

>  <NssCH2>
0

>  <NtCH>
0

>  <NdsCH>
2

>  <NaaCH>
4

>  <NsssCH>
2

>  <NddC>
0

>  <NtsC>
0

>  <NdssC>
3

>  <NaasC>
2

>  <NaaaC>
0

>  <NssssC>
0

>  <NsNH3>
0

>  <NsNH2>
0

>  <NssNH2>
0

>  <NdNH>
0

>  <NssNH>
1

>  <NaaNH>
0

>  <NtN>
0

>  <NsssNH>
0

>  <NdsN>
0

>  <NaaN>
0

>  <NsssN>
0

>  <NddsN>
0

>  <NaasN>
0

>  <NssssN>
0

>  <NsOH>
1

>  <NdO>
1

>  <NssO>
1

>  <NaaO>
0

>  <NsF>
0

>  <NsSiH3>
0

>  <NssSiH2>
0

>  <NsssSiH>
0

>  <NssssSi>
0

>  <NsPH2>
0

>  <NssPH>
0

>  <NsssP>
0

>  <NdsssP>
0

>  <NsssssP>
0

>  <NsSH>
0

>  <NdS>
0

>  <NssS>
0

>  <NaaS>
0

>  <NdssS>
0

>  <NddssS>
0

>  <NsCl>
1

>  <NsBr>
0

>  <NsI>
0

>  <fragCpx>
61.05

>  <fMF>
0.36

>  <nHBAcc>
4

>  <nHBDon>
2

>  <Kier1>
16.37

>  <Kier2>
7.32

>  <Lipinski>
1

>  <GhoseFilter>
1

>  <FilterItLogS>
-3.05

>  <VMcGowan>
214.52

>  <LabuteASA>
122.25

>  <PEOE_VSA1>
15.16

>  <PEOE_VSA2>
4.79

>  <PEOE_VSA3>
0

>  <PEOE_VSA4>
0

>  <PEOE_VSA5>
0

>  <PEOE_VSA6>
24.6

>  <PEOE_VSA7>
36.26

>  <PEOE_VSA8>
16.41

>  <PEOE_VSA9>
7.11

>  <PEOE_VSA10>
11.68

>  <PEOE_VSA11>
0

>  <PEOE_VSA12>
0

>  <PEOE_VSA13>
0

>  <SMR_VSA1>
14.64

>  <SMR_VSA2>
0

>  <SMR_VSA3>
0

>  <SMR_VSA4>
11.84

>  <SMR_VSA5>
6.92

>  <SMR_VSA6>
12.43

>  <SMR_VSA7>
52.9

>  <SMR_VSA8>
0

>  <SMR_VSA9>
0

>  <SlogP_VSA1>
5.32

>  <SlogP_VSA2>
18.19

>  <SlogP_VSA3>
9.53

>  <SlogP_VSA4>
11.84

>  <SlogP_VSA5>
6.92

>  <SlogP_VSA6>
47.87

>  <SlogP_VSA7>
5.02

>  <SlogP_VSA8>
0

>  <SlogP_VSA9>
0

>  <SlogP_VSA10>
5.69

>  <SlogP_VSA11>
0

>  <EState_VSA1>
11.89

>  <EState_VSA2>
11.68

>  <EState_VSA3>
5.02

>  <EState_VSA4>
11.38

>  <EState_VSA5>
13.19

>  <EState_VSA6>
12.13

>  <EState_VSA7>
25.13

>  <EState_VSA8>
5.32

>  <EState_VSA9>
16.34

>  <EState_VSA10>
9.9

>  <VSA_EState1>
4.69

>  <VSA_EState2>
11.6

>  <VSA_EState3>
13.81

>  <VSA_EState4>
1.59

>  <VSA_EState5>
-1.23

>  <VSA_EState6>
7.23

>  <VSA_EState7>
3.42

>  <VSA_EState8>
1.86

>  <VSA_EState9>
1.31

>  <apol>
41.4

>  <bpol>
19.74

>  <nRing>
2

>  <nHRing>
0

>  <naRing>
1

>  <naHRing>
0

>  <nARing 2>
1

>  <nAHRing 2>
0

>  <nFRing>
0

>  <nFHRing>
0

>  <nFaRing>
0

>  <nFaHRing>
0

>  <nFARing 2>
0

>  <nFAHRing 2>
0

>  <nRot>
3

>  <SLogP>
3.52

>  <SMR>
78.54

>  <TopoPSA(NO)>
58.56

>  <TopoPSA>
58.56

>  <JGI1>
0.24

>  <JGI2>
0.08

>  <JGI3>
0.07

>  <JGI4>
0.04

>  <JGI5>
0.03

>  <Diameter>
12

>  <Radius>
6

>  <TMWC10>
113.26

>  <TSRW10>
53.38

>  <MW>
293.08

>  <AMW>
8.14

>  <WPath>
865

>  <WPol>
30

>  <Zagreb1>
100

>  <Zagreb2>
115

>  <mZagreb2>
4.5

>  <yes>


>  <nAR-cont>
0.816016

>  <nHA-cont>
0.999629945

>  <MWHBN>
0.350475899

>  <MWHBN-cont>
0.668470285

>  <TPSA-cont>
0.591214836

>  <pka_cont>
0.97

>  <yes.1>


>  <BBB_SCORE>
4.485781045

>  <MMFF94 Energy>
27.679

$$$$
Compound 2057
Actelion Java MolfileCreator 2.0

  0  0  0  0  0  0              0 V3000
M  V30 BEGIN CTAB
M  V30 COUNTS 40 41 0 0 0
M  V30 BEGIN ATOM
M  V30 1 F 3.8472 0.3201 1.201 0
M  V30 2 C 3.9757 1.2181 2.2015 0
M  V30 3 F 3.2187 2.304 1.9366 0
M  V30 4 F 5.2686 1.6112 2.2458 0
M  V30 5 O 3.6335 0.6481 3.4531 0
M  V30 6 C 2.3718 0.1456 3.6015 0
M  V30 7 C 1.3468 0.1787 2.6509 0
M  V30 8 C 2.1297 -0.4453 4.8435 0
M  V30 9 C 0.0846 -0.3731 2.9217 0
M  V30 10 C 0.8848 -0.9987 5.1323 0
M  V30 11 N -0.9586 -0.4001 1.9781 0
M  V30 12 C -0.1281 -0.9643 4.1745 0
M  V30 13 C -0.92 -0.3551 0.6019 0
M  V30 14 C -2.1047 0.1761 -0.0596 0
M  V30 15 C 0.0919 -0.7828 -0.1768 0
M  V30 16 C -2.3565 -0.0061 -1.3652 0
M  V30 17 C 0.0586 -0.7095 -1.6894 0 CFG=1
M  V30 18 O -3.5361 0.4917 -1.8895 0
M  V30 19 C -1.3976 -0.8079 -2.2346 0 CFG=2
M  V30 20 C 0.7953 0.5687 -2.1172 0
M  V30 21 C -1.3823 -0.5933 -3.7528 0
M  V30 22 O -0.6168 -1.1818 -4.509 0
M  V30 23 O -2.3248 0.2987 -4.1712 0
M  V30 24 C -2.3202 0.5326 -5.583 0
M  V30 25 H 1.494 0.6622 1.6908 0
M  V30 26 H 2.917 -0.4773 5.5932 0
M  V30 27 H 0.7054 -1.4622 6.0988 0
M  V30 28 H -1.89 -0.4199 2.3798 0
M  V30 29 H -1.0883 -1.4172 4.4095 0
M  V30 30 H -2.8122 0.7393 0.5426 0
M  V30 31 H 0.9847 -1.2153 0.2652 0
M  V30 32 H 0.6224 -1.569 -2.0762 0
M  V30 33 H -3.4714 0.4963 -2.864 0
M  V30 34 H -1.7334 -1.8513 -2.1249 0
M  V30 35 H 1.7892 0.6199 -1.6571 0
M  V30 36 H 0.9441 0.6023 -3.2008 0
M  V30 37 H 0.2467 1.4712 -1.8257 0
M  V30 38 H -3.0934 1.2735 -5.8042 0
M  V30 39 H -1.3535 0.9345 -5.9019 0
M  V30 40 H -2.5579 -0.3888 -6.1232 0
M  V30 END ATOM
M  V30 BEGIN BOND
M  V30 1 1 1 2
M  V30 2 1 2 3
M  V30 3 1 2 4
M  V30 4 1 2 5
M  V30 5 1 5 6
M  V30 6 2 6 7
M  V30 7 1 6 8
M  V30 8 1 7 9
M  V30 9 2 8 10
M  V30 10 1 9 11
M  V30 11 2 9 12
M  V30 12 1 11 13
M  V30 13 1 13 14
M  V30 14 2 13 15
M  V30 15 2 14 16
M  V30 16 1 15 17
M  V30 17 1 16 18
M  V30 18 1 16 19
M  V30 19 1 17 20
M  V30 20 1 19 21
M  V30 21 2 21 22
M  V30 22 1 21 23
M  V30 23 1 23 24
M  V30 24 1 10 12
M  V30 25 1 17 19
M  V30 26 1 7 25
M  V30 27 1 8 26
M  V30 28 1 10 27
M  V30 29 1 11 28
M  V30 30 1 12 29
M  V30 31 1 14 30
M  V30 32 1 15 31
M  V30 33 1 17 32
M  V30 34 1 18 33
M  V30 35 1 19 34
M  V30 36 1 20 35
M  V30 37 1 20 36
M  V30 38 1 20 37
M  V30 39 1 24 38
M  V30 40 1 24 39
M  V30 41 1 24 40
M  V30 END BOND
M  V30 BEGIN COLLECTION
M  V30 MDLV30/STEABS ATOMS=(2 17 19)
M  V30 END COLLECTION
M  V30 END CTAB
M  END
>  <Column 1>
2524

>  <level_0>
3329

>  <index>
3329

>  <Unnamed: 0>
3329

>  <NO.>
3341

>  <Name>


>  <IUPAC_name>


>  <SMILES>
COC(=O)[C@@H]1C(O)=CC(Nc2cccc(OC(F)(F)F)c2)=C[C@@H]1C

>  <CID>


>  <logBB>


>  <BBB+/BBB->
BBB+

>  <Inchi>
InChI=1S/C16H16F3NO4/c1-9-6-11(8-13(21)14(9)15(22)23-2)20-10-4-3-5-12(7-10)24-16(17-18)19/h3-9-14-20-21H-1-2H3/t9--14-/m0/s1

>  <threshold>
-1

>  <reference>
R13|

>  <group>
B

>  <Class>
1

>  <ABC>
18.36

>  <ABCGG>
15.17

>  <nAcid>
0

>  <nBase>
0

>  <nAromAtom>
6

>  <nAromBond>
6

>  <nAtom>
40

>  <nHeavyAtom>
24

>  <nSpiro>
0

>  <nBridgehead>
0

>  <nHetero>
8

>  <nN>
1

>  <nO>
4

>  <nF>
3

>  <BalabanJ>
1.85

>  <BertzCT>
682.15

>  <nBonds>
41

>  <nBondsO>
25

>  <nBondsS>
32

>  <nBondsD>
3

>  <nBondsT>
0

>  <nBondsA>
6

>  <nBondsM>
9

>  <nBondsKS>
35

>  <nBondsKD>
6

>  <RNCG>
0.2

>  <RPCG>
0.22

>  <FCSP3>
0.31

>  <SZ>
29.67

>  <Sm>
28.58

>  <Sv>
25.89

>  <Sse>
41.96

>  <Sp>
25.97

>  <Si>
46.09

>  <MZ>
0.74

>  <Mm>
0.71

>  <Mv>
0.65

>  <Mse>
1.05

>  <Mp>
0.65

>  <Mi>
1.15

>  <NsCH3>
2

>  <NdCH2>
0

>  <NssCH2>
0

>  <NtCH>
0

>  <NdsCH>
2

>  <NaaCH>
4

>  <NsssCH>
2

>  <NddC>
0

>  <NtsC>
0

>  <NdssC>
3

>  <NaasC>
2

>  <NaaaC>
0

>  <NssssC>
1

>  <NsNH3>
0

>  <NsNH2>
0

>  <NssNH2>
0

>  <NdNH>
0

>  <NssNH>
1

>  <NaaNH>
0

>  <NtN>
0

>  <NsssNH>
0

>  <NdsN>
0

>  <NaaN>
0

>  <NsssN>
0

>  <NddsN>
0

>  <NaasN>
0

>  <NssssN>
0

>  <NsOH>
1

>  <NdO>
1

>  <NssO>
2

>  <NaaO>
0

>  <NsF>
3

>  <NsSiH3>
0

>  <NssSiH2>
0

>  <NsssSiH>
0

>  <NssssSi>
0

>  <NsPH2>
0

>  <NssPH>
0

>  <NsssP>
0

>  <NdsssP>
0

>  <NsssssP>
0

>  <NsSH>
0

>  <NdS>
0

>  <NssS>
0

>  <NaaS>
0

>  <NdssS>
0

>  <NddssS>
0

>  <NsCl>
0

>  <NsBr>
0

>  <NsI>
0

>  <fragCpx>
73.08

>  <fMF>
0.33

>  <nHBAcc>
5

>  <nHBDon>
2

>  <Kier1>
20.31

>  <Kier2>
8.59

>  <Lipinski>
1

>  <GhoseFilter>
1

>  <FilterItLogS>
-3.03

>  <VMcGowan>
227.52

>  <LabuteASA>
135.93

>  <PEOE_VSA1>
19.9

>  <PEOE_VSA2>
4.79

>  <PEOE_VSA3>
0

>  <PEOE_VSA4>
0

>  <PEOE_VSA5>
13.17

>  <PEOE_VSA6>
19.07

>  <PEOE_VSA7>
24.13

>  <PEOE_VSA8>
17.45

>  <PEOE_VSA9>
7.11

>  <PEOE_VSA10>
17.43

>  <PEOE_VSA11>
0

>  <PEOE_VSA12>
0

>  <PEOE_VSA13>
0

>  <SMR_VSA1>
32.55

>  <SMR_VSA2>
0

>  <SMR_VSA3>
0

>  <SMR_VSA4>
11.84

>  <SMR_VSA5>
13.29

>  <SMR_VSA6>
12.43

>  <SMR_VSA7>
47.87

>  <SMR_VSA8>
0

>  <SMR_VSA9>
5.75

>  <SlogP_VSA1>
10.05

>  <SlogP_VSA2>
24.55

>  <SlogP_VSA3>
9.53

>  <SlogP_VSA4>
11.84

>  <SlogP_VSA5>
6.92

>  <SlogP_VSA6>
47.87

>  <SlogP_VSA7>
0

>  <SlogP_VSA8>
0

>  <SlogP_VSA9>
0

>  <SlogP_VSA10>
18.86

>  <SlogP_VSA11>
5.75

>  <EState_VSA1>
18.25

>  <EState_VSA2>
17.43

>  <EState_VSA3>
11.38

>  <EState_VSA4>
0

>  <EState_VSA5>
31.38

>  <EState_VSA6>
19.07

>  <EState_VSA7>
0

>  <EState_VSA8>
14.79

>  <EState_VSA9>
0

>  <EState_VSA10>
23.07

>  <VSA_EState1>
45.22

>  <VSA_EState2>
11.63

>  <VSA_EState3>
12.87

>  <VSA_EState4>
0.79

>  <VSA_EState5>
-2.26

>  <VSA_EState6>
5.3

>  <VSA_EState7>
-1.76

>  <VSA_EState8>
1.72

>  <VSA_EState9>
1.23

>  <apol>
43.37

>  <bpol>
24.3

>  <nRing>
2

>  <nHRing>
0

>  <naRing>
1

>  <naHRing>
0

>  <nARing 2>
1

>  <nAHRing 2>
0

>  <nFRing>
0

>  <nFHRing>
0

>  <nFaRing>
0

>  <nFaHRing>
0

>  <nFARing 2>
0

>  <nFAHRing 2>
0

>  <nRot>
4

>  <SLogP>
3.76

>  <SMR>
80.21

>  <TopoPSA(NO)>
67.79

>  <TopoPSA>
67.79

>  <JGI1>
0.3

>  <JGI2>
0.06

>  <JGI3>
0.08

>  <JGI4>
0.04

>  <JGI5>
0.03

>  <Diameter>
13

>  <Radius>
7

>  <TMWC10>
123.08

>  <TSRW10>
58.39

>  <MW>
343.1

>  <AMW>
8.58

>  <WPath>
1457

>  <WPol>
35

>  <Zagreb1>
122

>  <Zagreb2>
138

>  <mZagreb2>
5.21

>  <yes>


>  <nAR-cont>
0.816016

>  <nHA-cont>
0.94700071

>  <MWHBN>
0.377909388

>  <MWHBN-cont>
0.563001901

>  <TPSA-cont>
0.526783705

>  <pka_cont>
0.97

>  <yes.1>


>  <BBB_SCORE>
4.146086971

>  <MMFF94 Energy>
40.155

$$$$
Compound 2058
Actelion Java MolfileCreator 2.0

  0  0  0  0  0  0              0 V3000
M  V30 BEGIN CTAB
M  V30 COUNTS 38 39 0 0 0
M  V30 BEGIN ATOM
M  V30 1 O -1.5916 -1.8305 -6.2984 0
M  V30 2 N -1.3381 -2.8757 -5.6823 0 CHG=1
M  V30 3 O -1.2403 -3.9938 -6.2078 0 CHG=-1
M  V30 4 C -1.1432 -2.7835 -4.2309 0
M  V30 5 C -1.1811 -1.5277 -3.6058 0
M  V30 6 C -0.9194 -3.947 -3.4876 0
M  V30 7 C -0.9979 -1.4191 -2.2202 0
M  V30 8 C -0.7339 -3.8459 -2.1114 0
M  V30 9 N -1.0056 -0.1401 -1.6371 0
M  V30 10 C -0.77 -2.5933 -1.489 0
M  V30 11 C -0.4166 0.3193 -0.4795 0
M  V30 12 C -1.046 1.474 0.1491 0
M  V30 13 C 0.6952 -0.1754 0.0966 0
M  V30 14 C -0.4275 2.2356 1.0651 0
M  V30 15 C 1.2933 0.3998 1.3647 0 CFG=1
M  V30 16 O -1.0906 3.3432 1.5625 0
M  V30 17 C 1.0008 1.9256 1.4926 0 CFG=2
M  V30 18 C 0.779 -0.431 2.5502 0
M  V30 19 C 1.5227 2.4286 2.8447 0
M  V30 20 O 2.6277 2.1399 3.2915 0
M  V30 21 O 0.6438 3.2588 3.4753 0
M  V30 22 C 1.1025 3.7399 4.7428 0
M  V30 23 H -1.34 -0.6261 -4.194 0
M  V30 24 H -0.8889 -4.9267 -3.9592 0
M  V30 25 H -0.5648 -4.7403 -1.516 0
M  V30 26 H -1.5636 0.5499 -2.1305 0
M  V30 27 H -0.648 -2.5504 -0.409 0
M  V30 28 H -2.0601 1.7248 -0.1498 0
M  V30 29 H 1.2217 -1.0145 -0.3477 0
M  V30 30 H 2.3822 0.2684 1.3074 0
M  V30 31 H -0.606 3.6817 2.3401 0
M  V30 32 H 1.6305 2.4558 0.7606 0
M  V30 33 H 1.292 -0.1658 3.4796 0
M  V30 34 H -0.2959 -0.2912 2.7093 0
M  V30 35 H 0.9546 -1.5002 2.3833 0
M  V30 36 H 0.3182 4.3734 5.1665 0
M  V30 37 H 1.2818 2.9053 5.4277 0
M  V30 38 H 2.0065 4.3438 4.6174 0
M  V30 END ATOM
M  V30 BEGIN BOND
M  V30 1 2 1 2
M  V30 2 1 2 3
M  V30 3 1 2 4
M  V30 4 2 4 5
M  V30 5 1 4 6
M  V30 6 1 5 7
M  V30 7 2 6 8
M  V30 8 1 7 9
M  V30 9 2 7 10
M  V30 10 1 9 11
M  V30 11 1 11 12
M  V30 12 2 11 13
M  V30 13 2 12 14
M  V30 14 1 13 15
M  V30 15 1 14 16
M  V30 16 1 14 17
M  V30 17 1 15 18
M  V30 18 1 17 19
M  V30 19 2 19 20
M  V30 20 1 19 21
M  V30 21 1 21 22
M  V30 22 1 8 10
M  V30 23 1 15 17
M  V30 24 1 5 23
M  V30 25 1 6 24
M  V30 26 1 8 25
M  V30 27 1 9 26
M  V30 28 1 10 27
M  V30 29 1 12 28
M  V30 30 1 13 29
M  V30 31 1 15 30
M  V30 32 1 16 31
M  V30 33 1 17 32
M  V30 34 1 18 33
M  V30 35 1 18 34
M  V30 36 1 18 35
M  V30 37 1 22 36
M  V30 38 1 22 37
M  V30 39 1 22 38
M  V30 END BOND
M  V30 BEGIN COLLECTION
M  V30 MDLV30/STEABS ATOMS=(2 15 17)
M  V30 END COLLECTION
M  V30 END CTAB
M  END
>  <Column 1>
2525

>  <level_0>
3330

>  <index>
3330

>  <Unnamed: 0>
3330

>  <NO.>
3342

>  <Name>


>  <IUPAC_name>


>  <SMILES>
COC(=O)[C@@H]1C(O)=CC(Nc2cccc([N+](=O)[O-])c2)=C[C@@H]1C

>  <CID>


>  <logBB>


>  <BBB+/BBB->
BBB+

>  <Inchi>
InChI=1S/C15H16N2O5/c1-9-6-11(8-13(18)14(9)15(19)22-2)16-10-4-3-5-12(7-10)17(20)21/h3-9-14-16-18H-1-2H3/t9--14-/m0/s1

>  <threshold>
-1

>  <reference>
R13|

>  <group>
B

>  <Class>
-1

>  <ABC>
16.65

>  <ABCGG>
14.03

>  <nAcid>
0

>  <nBase>
0

>  <nAromAtom>
6

>  <nAromBond>
6

>  <nAtom>
38

>  <nHeavyAtom>
22

>  <nSpiro>
0

>  <nBridgehead>
0

>  <nHetero>
7

>  <nN>
2

>  <nO>
5

>  <nF>
0

>  <BalabanJ>
1.87

>  <BertzCT>
665.65

>  <nBonds>
39

>  <nBondsO>
23

>  <nBondsS>
29

>  <nBondsD>
4

>  <nBondsT>
0

>  <nBondsA>
6

>  <nBondsM>
10

>  <nBondsKS>
32

>  <nBondsKD>
7

>  <RNCG>
0.22

>  <RPCG>
0.14

>  <FCSP3>
0.27

>  <SZ>
26.67

>  <Sm>
25.34

>  <Sv>
24.42

>  <Sse>
39.08

>  <Sp>
25.11

>  <Si>
42.95

>  <MZ>
0.7

>  <Mm>
0.67

>  <Mv>
0.64

>  <Mse>
1.03

>  <Mp>
0.66

>  <Mi>
1.13

>  <NsCH3>
2

>  <NdCH2>
0

>  <NssCH2>
0

>  <NtCH>
0

>  <NdsCH>
2

>  <NaaCH>
4

>  <NsssCH>
2

>  <NddC>
0

>  <NtsC>
0

>  <NdssC>
3

>  <NaasC>
2

>  <NaaaC>
0

>  <NssssC>
0

>  <NsNH3>
0

>  <NsNH2>
0

>  <NssNH2>
0

>  <NdNH>
0

>  <NssNH>
1

>  <NaaNH>
0

>  <NtN>
0

>  <NsssNH>
0

>  <NdsN>
0

>  <NaaN>
0

>  <NsssN>
0

>  <NddsN>
1

>  <NaasN>
0

>  <NssssN>
0

>  <NsOH>
1

>  <NdO>
2

>  <NssO>
1

>  <NaaO>
0

>  <NsF>
0

>  <NsSiH3>
0

>  <NssSiH2>
0

>  <NsssSiH>
0

>  <NssssSi>
0

>  <NsPH2>
0

>  <NssPH>
0

>  <NsssP>
0

>  <NdsssP>
0

>  <NsssssP>
0

>  <NsSH>
0

>  <NdS>
0

>  <NssS>
0

>  <NaaS>
0

>  <NdssS>
0

>  <NddssS>
0

>  <NsCl>
0

>  <NsBr>
0

>  <NsI>
0

>  <fragCpx>
67.07

>  <fMF>
0.34

>  <nHBAcc>
6

>  <nHBDon>
2

>  <Kier1>
18.34

>  <Kier2>
8.2

>  <Lipinski>
1

>  <GhoseFilter>
1

>  <FilterItLogS>
-2.44

>  <VMcGowan>
219.7

>  <LabuteASA>
126.6

>  <PEOE_VSA1>
15.16

>  <PEOE_VSA2>
14.91

>  <PEOE_VSA3>
0

>  <PEOE_VSA4>
0

>  <PEOE_VSA5>
0

>  <PEOE_VSA6>
19.07

>  <PEOE_VSA7>
18.06

>  <PEOE_VSA8>
23.52

>  <PEOE_VSA9>
12.03

>  <PEOE_VSA10>
11.68

>  <PEOE_VSA11>
0

>  <PEOE_VSA12>
0

>  <PEOE_VSA13>
5.69

>  <SMR_VSA1>
19.56

>  <SMR_VSA2>
0

>  <SMR_VSA3>
0

>  <SMR_VSA4>
11.84

>  <SMR_VSA5>
6.92

>  <SMR_VSA6>
12.43

>  <SMR_VSA7>
57.99

>  <SMR_VSA8>
0

>  <SMR_VSA9>
0

>  <SlogP_VSA1>
5.32

>  <SlogP_VSA2>
23.11

>  <SlogP_VSA3>
9.53

>  <SlogP_VSA4>
21.95

>  <SlogP_VSA5>
6.92

>  <SlogP_VSA6>
47.87

>  <SlogP_VSA7>
0

>  <SlogP_VSA8>
0

>  <SlogP_VSA9>
0

>  <SlogP_VSA10>
11.37

>  <SlogP_VSA11>
0

>  <EState_VSA1>
16.81

>  <EState_VSA2>
17.36

>  <EState_VSA3>
11.38

>  <EState_VSA4>
0

>  <EState_VSA5>
25.32

>  <EState_VSA6>
25.13

>  <EState_VSA7>
0

>  <EState_VSA8>
10.05

>  <EState_VSA9>
0

>  <EState_VSA10>
20.02

>  <VSA_EState1>
4.66

>  <VSA_EState2>
21.9

>  <VSA_EState3>
23.75

>  <VSA_EState4>
1.05

>  <VSA_EState5>
-1.61

>  <VSA_EState6>
6.02

>  <VSA_EState7>
3.18

>  <VSA_EState8>
1.78

>  <VSA_EState9>
1.27

>  <apol>
41.93

>  <bpol>
20.39

>  <nRing>
2

>  <nHRing>
0

>  <naRing>
1

>  <naHRing>
0

>  <nARing 2>
1

>  <nAHRing 2>
0

>  <nFRing>
0

>  <nFHRing>
0

>  <nFaRing>
0

>  <nFaHRing>
0

>  <nFARing 2>
0

>  <nFAHRing 2>
0

>  <nRot>
4

>  <SLogP>
2.77

>  <SMR>
80.18

>  <TopoPSA(NO)>
101.7

>  <TopoPSA>
101.7

>  <JGI1>
0.24

>  <JGI2>
0.08

>  <JGI3>
0.07

>  <JGI4>
0.04

>  <JGI5>
0.03

>  <Diameter>
12

>  <Radius>
6

>  <TMWC10>
118.26

>  <TSRW10>
55.88

>  <MW>
304.11

>  <AMW>
8

>  <WPath>
1122

>  <WPol>
34

>  <Zagreb1>
110

>  <Zagreb2>
127

>  <mZagreb2>
4.94

>  <yes>


>  <nAR-cont>
0.816016

>  <nHA-cont>
0.983774276

>  <MWHBN>
0.458748478

>  <MWHBN-cont>
0

>  <TPSA-cont>
0.290070848

>  <pka_cont>
0.97

>  <yes.1>


>  <BBB_SCORE>
2.864931972

>  <MMFF94 Energy>
61.33

$$$$
Compound 2059
Actelion Java MolfileCreator 2.0

  0  0  0  0  0  0              0 V3000
M  V30 BEGIN CTAB
M  V30 COUNTS 38 40 0 0 0
M  V30 BEGIN ATOM
M  V30 1 O 1.0421 -3.0487 -1.9246 0
M  V30 2 C 0.4045 -2.6113 -0.9957 0
M  V30 3 N 0.7844 -1.915 0.1051 0
M  V30 4 C -1.087 -2.4475 -0.6296 0
M  V30 5 C 1.5472 -0.7829 0.1097 0
M  V30 6 C -0.5754 -1.6442 0.6225 0 CFG=2
M  V30 7 C -1.9941 -1.8272 -1.6813 0 CFG=1
M  V30 8 C 0.8458 0.2668 0.5573 0
M  V30 9 C 2.9377 -0.7986 -0.4034 0
M  V30 10 C -0.5849 -0.1263 0.8548 0 CFG=2
M  V30 11 O -3.1281 -1.2824 -1.0081 0
M  V30 12 C -1.348 -0.7522 -2.5437 0
M  V30 13 C 1.2417 1.6874 0.7969 0 CFG=1
M  V30 14 O 3.6442 0.2002 -0.4716 0
M  V30 15 C -0.9227 0.2435 2.2987 0
M  V30 16 O 0.5161 2.5246 -0.1095 0
M  V30 17 C 0.8333 2.0783 2.2291 0
M  V30 18 C -0.6238 1.7225 2.5637 0
M  V30 19 C 1.1921 2.6896 -1.3514 0
M  V30 20 H -1.5181 -3.4118 -0.3186 0
M  V30 21 H -0.7462 -2.209 1.5508 0
M  V30 22 H -2.3601 -2.6203 -2.344 0
M  V30 23 H 3.3033 -1.7871 -0.7284 0
M  V30 24 H -1.2766 0.3815 0.1769 0
M  V30 25 H -3.7336 -0.9313 -1.686 0
M  V30 26 H -0.9855 0.0931 -1.9558 0
M  V30 27 H -2.0818 -0.3422 -3.2468 0
M  V30 28 H -0.5107 -1.1477 -3.1253 0
M  V30 29 H 2.3167 1.8641 0.6966 0
M  V30 30 H -0.345 -0.3702 3.0025 0
M  V30 31 H -1.98 0.0336 2.4992 0
M  V30 32 H 1.4939 1.5737 2.9458 0
M  V30 33 H 0.9654 3.1583 2.3672 0
M  V30 34 H -0.823 1.9537 3.6164 0
M  V30 35 H -1.3014 2.3454 1.9672 0
M  V30 36 H 2.1639 3.1687 -1.1983 0
M  V30 37 H 0.5829 3.338 -1.9868 0
M  V30 38 H 1.3184 1.729 -1.8588 0
M  V30 END ATOM
M  V30 BEGIN BOND
M  V30 1 2 1 2
M  V30 2 1 2 3
M  V30 3 1 2 4
M  V30 4 1 3 5
M  V30 5 1 3 6
M  V30 6 1 4 7
M  V30 7 2 5 8
M  V30 8 1 5 9
M  V30 9 1 6 10
M  V30 10 1 7 11
M  V30 11 1 7 12
M  V30 12 1 8 13
M  V30 13 2 9 14
M  V30 14 1 10 15
M  V30 15 1 13 16
M  V30 16 1 13 17
M  V30 17 1 15 18
M  V30 18 1 16 19
M  V30 19 1 4 6
M  V30 20 1 8 10
M  V30 21 1 17 18
M  V30 22 1 4 20
M  V30 23 1 6 21
M  V30 24 1 7 22
M  V30 25 1 9 23
M  V30 26 1 10 24
M  V30 27 1 11 25
M  V30 28 1 12 26
M  V30 29 1 12 27
M  V30 30 1 12 28
M  V30 31 1 13 29
M  V30 32 1 15 30
M  V30 33 1 15 31
M  V30 34 1 17 32
M  V30 35 1 17 33
M  V30 36 1 18 34
M  V30 37 1 18 35
M  V30 38 1 19 36
M  V30 39 1 19 37
M  V30 40 1 19 38
M  V30 END BOND
M  V30 BEGIN COLLECTION
M  V30 MDLV30/STEABS ATOMS=(4 6 7 10 13)
M  V30 END COLLECTION
M  V30 END CTAB
M  END
>  <Column 1>
2531

>  <level_0>
3382

>  <index>
3382

>  <Unnamed: 0>
3382

>  <NO.>
3394

>  <Name>


>  <IUPAC_name>


>  <SMILES>
CO[C@H]1CCC[C@H]2C1=C(C=O)N1C(=O)C([C@H](C)O)[C@H]21

>  <CID>


>  <logBB>


>  <BBB+/BBB->
BBB-

>  <Inchi>
InChI=1S/C14H19NO4/c1-7(17)11-13-8-4-3-5-10(19-2)12(8)9(6-16)15(13)14(11)18/h6-8-10-11-13-17H-3-5H2-1-2H3/t7--8--10--11?-13-/m0/s1

>  <threshold>
-1

>  <reference>
R13|

>  <group>
B

>  <Class>
1

>  <ABC>
14.77

>  <ABCGG>
13.35

>  <nAcid>
0

>  <nBase>
0

>  <nAromAtom>
0

>  <nAromBond>
0

>  <nAtom>
38

>  <nHeavyAtom>
19

>  <nSpiro>
0

>  <nBridgehead>
0

>  <nHetero>
5

>  <nN>
1

>  <nO>
4

>  <nF>
0

>  <BalabanJ>
1.88

>  <BertzCT>
456.36

>  <nBonds>
40

>  <nBondsO>
21

>  <nBondsS>
37

>  <nBondsD>
3

>  <nBondsT>
0

>  <nBondsA>
0

>  <nBondsM>
3

>  <nBondsKS>
37

>  <nBondsKD>
3

>  <RNCG>
0.22

>  <RPCG>
0.13

>  <FCSP3>
0.71

>  <SZ>
23.67

>  <Sm>
22.09

>  <Sv>
22.76

>  <Sse>
38.42

>  <Sp>
24.17

>  <Si>
43.07

>  <MZ>
0.62

>  <Mm>
0.58

>  <Mv>
0.6

>  <Mse>
1.01

>  <Mp>
0.64

>  <Mi>
1.13

>  <NsCH3>
2

>  <NdCH2>
0

>  <NssCH2>
3

>  <NtCH>
0

>  <NdsCH>
1

>  <NaaCH>
0

>  <NsssCH>
5

>  <NddC>
0

>  <NtsC>
0

>  <NdssC>
3

>  <NaasC>
0

>  <NaaaC>
0

>  <NssssC>
0

>  <NsNH3>
0

>  <NsNH2>
0

>  <NssNH2>
0

>  <NdNH>
0

>  <NssNH>
0

>  <NaaNH>
0

>  <NtN>
0

>  <NsssNH>
0

>  <NdsN>
0

>  <NaaN>
0

>  <NsssN>
1

>  <NddsN>
0

>  <NaasN>
0

>  <NssssN>
0

>  <NsOH>
1

>  <NdO>
2

>  <NssO>
1

>  <NaaO>
0

>  <NsF>
0

>  <NsSiH3>
0

>  <NssSiH2>
0

>  <NsssSiH>
0

>  <NssssSi>
0

>  <NsPH2>
0

>  <NssPH>
0

>  <NsssP>
0

>  <NdsssP>
0

>  <NsssssP>
0

>  <NsSH>
0

>  <NdS>
0

>  <NssS>
0

>  <NaaS>
0

>  <NdssS>
0

>  <NddssS>
0

>  <NsCl>
0

>  <NsBr>
0

>  <NsI>
0

>  <fragCpx>
99.05

>  <fMF>
0.29

>  <nHBAcc>
4

>  <nHBDon>
1

>  <Kier1>
13.96

>  <Kier2>
5.08

>  <Lipinski>
1

>  <GhoseFilter>
1

>  <FilterItLogS>
-0.86

>  <VMcGowan>
196.1

>  <LabuteASA>
111.77

>  <PEOE_VSA1>
14.74

>  <PEOE_VSA2>
9.59

>  <PEOE_VSA3>
0

>  <PEOE_VSA4>
0

>  <PEOE_VSA5>
0

>  <PEOE_VSA6>
0

>  <PEOE_VSA7>
31.76

>  <PEOE_VSA8>
13.03

>  <PEOE_VSA9>
29.86

>  <PEOE_VSA10>
0

>  <PEOE_VSA11>
6.29

>  <PEOE_VSA12>
5.91

>  <PEOE_VSA13>
0

>  <SMR_VSA1>
19.43

>  <SMR_VSA2>
0

>  <SMR_VSA3>
4.9

>  <SMR_VSA4>
11.84

>  <SMR_VSA5>
44.44

>  <SMR_VSA6>
7.11

>  <SMR_VSA7>
11.27

>  <SMR_VSA8>
0

>  <SMR_VSA9>
0

>  <SlogP_VSA1>
0

>  <SlogP_VSA2>
47.56

>  <SlogP_VSA3>
14.33

>  <SlogP_VSA4>
11.84

>  <SlogP_VSA5>
26.19

>  <SlogP_VSA6>
11.27

>  <SlogP_VSA7>
0

>  <SlogP_VSA8>
0

>  <SlogP_VSA9>
0

>  <SlogP_VSA10>
0

>  <SlogP_VSA11>
0

>  <EState_VSA1>
6.1

>  <EState_VSA2>
29.89

>  <EState_VSA3>
5.7

>  <EState_VSA4>
31.12

>  <EState_VSA5>
0

>  <EState_VSA6>
18.93

>  <EState_VSA7>
0

>  <EState_VSA8>
0

>  <EState_VSA9>
4.74

>  <EState_VSA10>
14.7

>  <VSA_EState1>
5.48

>  <VSA_EState2>
25.08

>  <VSA_EState3>
9.78

>  <VSA_EState4>
1.47

>  <VSA_EState5>
-0.32

>  <VSA_EState6>
-0.04

>  <VSA_EState7>
2.94

>  <VSA_EState8>
1.65

>  <VSA_EState9>
1.64

>  <apol>
40.36

>  <bpol>
24.24

>  <nRing>
3

>  <nHRing>
2

>  <naRing>
0

>  <naHRing>
0

>  <nARing 2>
3

>  <nAHRing 2>
2

>  <nFRing>
1

>  <nFHRing>
1

>  <nFaRing>
0

>  <nFaHRing>
0

>  <nFARing 2>
1

>  <nFAHRing 2>
1

>  <nRot>
3

>  <SLogP>
0.48

>  <SMR>
67.03

>  <TopoPSA(NO)>
66.84

>  <TopoPSA>
66.84

>  <JGI1>
0.14

>  <JGI2>
0.07

>  <JGI3>
0.09

>  <JGI4>
0.06

>  <JGI5>
0.04

>  <Diameter>
8

>  <Radius>
4

>  <TMWC10>
116.58

>  <TSRW10>
68.73

>  <MW>
265.13

>  <AMW>
6.98

>  <WPath>
617

>  <WPol>
34

>  <Zagreb1>
106

>  <Zagreb2>
135

>  <mZagreb2>
4.28

>  <yes>


>  <nAR-cont>
0.691115

>  <nHA-cont>
0.998649058

>  <MWHBN>
0.307072248

>  <MWHBN-cont>
0.819107035

>  <TPSA-cont>
0.533415295

>  <pka_cont>
0.97

>  <yes.1>


>  <BBB_SCORE>
4.4702552

>  <MMFF94 Energy>
36.374

$$$$
Compound 2060
Actelion Java MolfileCreator 2.0

  0  0  0  0  0  0              0 V3000
M  V30 BEGIN CTAB
M  V30 COUNTS 61 63 0 0 0
M  V30 BEGIN ATOM
M  V30 1 Cl 5.3527 5.5128 -5.0325 0
M  V30 2 C 3.7769 5.1387 -4.4217 0
M  V30 3 C 2.735 6.0792 -4.5093 0
M  V30 4 C 3.5764 3.89 -3.8278 0
M  V30 5 N 2.9036 7.3145 -5.1216 0
M  V30 6 C 1.4753 5.716 -4.0258 0
M  V30 7 C 2.3181 3.5424 -3.3178 0
M  V30 8 C 1.2622 4.4553 -3.452 0
M  V30 9 C 2.1895 2.1999 -2.6781 0
M  V30 10 O -0.0012 4.1795 -2.9891 0
M  V30 11 O 3.0238 1.3302 -2.9071 0
M  V30 12 N 1.1218 2.0127 -1.8339 0
M  V30 13 C -0.8052 3.6482 -4.0493 0
M  V30 14 C 0.8137 0.7251 -1.212 0 CFG=2
M  V30 15 C -0.633 0.7012 -0.6732 0 CFG=1
M  V30 16 C 1.7925 0.4078 -0.0811 0
M  V30 17 O -1.5299 0.8908 -1.7842 0
M  V30 18 C -0.8917 -0.645 0.0328 0
M  V30 19 C 1.4477 -0.9221 0.5862 0
M  V30 20 C -2.8351 1.2915 -1.389 0
M  V30 21 N 0.074 -0.9184 1.1148 0
M  V30 22 C -0.266 -2.1954 1.7753 0
M  V30 23 C 0.448 -2.3766 3.1222 0
M  V30 24 C 0.0486 -3.6858 3.8039 0
M  V30 25 O -1.348 -3.6564 4.0939 0
M  V30 26 C -1.8853 -4.7584 4.6986 0
M  V30 27 C -1.1891 -5.9083 5.0799 0
M  V30 28 C -3.2622 -4.677 4.937 0
M  V30 29 C -1.8684 -6.9661 5.6923 0
M  V30 30 C -3.9408 -5.7322 5.5481 0
M  V30 31 C -3.236 -6.8686 5.9202 0
M  V30 32 F -3.8816 -7.8847 6.507 0
M  V30 33 H 4.4041 3.1871 -3.7558 0
M  V30 34 H 2.1854 8.0238 -5.0837 0
M  V30 35 H 3.835 7.583 -5.4208 0
M  V30 36 H 0.6447 6.4136 -4.0946 0
M  V30 37 H 0.4488 2.766 -1.7304 0
M  V30 38 H -0.9521 4.3899 -4.8417 0
M  V30 39 H -1.7853 3.4004 -3.6316 0
M  V30 40 H -0.3676 2.7318 -4.4599 0
M  V30 41 H 0.9148 -0.0284 -2.0047 0
M  V30 42 H -0.7633 1.5307 0.0358 0
M  V30 43 H 2.8193 0.3602 -0.4614 0
M  V30 44 H 1.7781 1.2136 0.6651 0
M  V30 45 H -0.8926 -1.4547 -0.7101 0
M  V30 46 H -1.9031 -0.6225 0.4554 0
M  V30 47 H 1.5871 -1.7414 -0.131 0
M  V30 48 H 2.1691 -1.073 1.3957 0
M  V30 49 H -3.3356 0.5011 -0.8245 0
M  V30 50 H -3.4186 1.4858 -2.2931 0
M  V30 51 H -2.7949 2.2128 -0.8003 0
M  V30 52 H -0.0498 -3.0437 1.1131 0
M  V30 53 H -1.346 -2.2142 1.9695 0
M  V30 54 H 0.1911 -1.5348 3.7773 0
M  V30 55 H 1.5347 -2.3806 2.9923 0
M  V30 56 H 0.2827 -4.5272 3.1405 0
M  V30 57 H 0.6187 -3.7809 4.7358 0
M  V30 58 H -0.1218 -6.0135 4.9178 0
M  V30 59 H -3.8078 -3.7831 4.6441 0
M  V30 60 H -1.3384 -7.8642 5.9931 0
M  V30 61 H -5.0078 -5.6725 5.7347 0
M  V30 END ATOM
M  V30 BEGIN BOND
M  V30 1 1 1 2
M  V30 2 2 2 3
M  V30 3 1 2 4
M  V30 4 1 3 5
M  V30 5 1 3 6
M  V30 6 2 4 7
M  V30 7 2 6 8
M  V30 8 1 7 9
M  V30 9 1 8 10
M  V30 10 2 9 11
M  V30 11 1 9 12
M  V30 12 1 10 13
M  V30 13 1 12 14
M  V30 14 1 14 15
M  V30 15 1 14 16
M  V30 16 1 15 17
M  V30 17 1 15 18
M  V30 18 1 16 19
M  V30 19 1 17 20
M  V30 20 1 18 21
M  V30 21 1 21 22
M  V30 22 1 22 23
M  V30 23 1 23 24
M  V30 24 1 24 25
M  V30 25 1 25 26
M  V30 26 2 26 27
M  V30 27 1 26 28
M  V30 28 1 27 29
M  V30 29 2 28 30
M  V30 30 2 29 31
M  V30 31 1 31 32
M  V30 32 1 7 8
M  V30 33 1 19 21
M  V30 34 1 30 31
M  V30 35 1 4 33
M  V30 36 1 5 34
M  V30 37 1 5 35
M  V30 38 1 6 36
M  V30 39 1 12 37
M  V30 40 1 13 38
M  V30 41 1 13 39
M  V30 42 1 13 40
M  V30 43 1 14 41
M  V30 44 1 15 42
M  V30 45 1 16 43
M  V30 46 1 16 44
M  V30 47 1 18 45
M  V30 48 1 18 46
M  V30 49 1 19 47
M  V30 50 1 19 48
M  V30 51 1 20 49
M  V30 52 1 20 50
M  V30 53 1 20 51
M  V30 54 1 22 52
M  V30 55 1 22 53
M  V30 56 1 23 54
M  V30 57 1 23 55
M  V30 58 1 24 56
M  V30 59 1 24 57
M  V30 60 1 27 58
M  V30 61 1 28 59
M  V30 62 1 29 60
M  V30 63 1 30 61
M  V30 END BOND
M  V30 BEGIN COLLECTION
M  V30 MDLV30/STEABS ATOMS=(2 14 15)
M  V30 END COLLECTION
M  V30 END CTAB
M  END
>  <Column 1>
2533

>  <level_0>
3393

>  <index>
3393

>  <Unnamed: 0>
3393

>  <NO.>
3405

>  <Name>
cisapride

>  <IUPAC_name>
4-amino-5-chloro-n-[(3s-4s)-1-[3-(4-fluorophenoxy)propyl]-3-methoxypiperidin-4-yl]-2-methoxybenzamide

>  <SMILES>
COc1cc(N)c(Cl)cc1C(=O)N[C@H]1CCN(CCCOc2ccc(F)cc2)C[C@@H]1OC

>  <CID>
6604902

>  <logBB>


>  <BBB+/BBB->
BBB+

>  <Inchi>
InChI=1S/C23H29ClFN3O4/c1-30-21-13-19(26)18(24)12-17(21)23(29)27-20-8-10-28(14-22(20)31-2)9-3-11-32-16-6-4-15(25)5-7-16/h4-7-12-13-20-22H-3-8-11-14-26H2-1-2H3-(H-27-29)/t20--22-/m0/s1

>  <threshold>
-1

>  <reference>
R13|R9|R24|

>  <group>
B

>  <Class>
-1

>  <ABC>
24.32

>  <ABCGG>
18.24

>  <nAcid>
0

>  <nBase>
1

>  <nAromAtom>
12

>  <nAromBond>
12

>  <nAtom>
61

>  <nHeavyAtom>
32

>  <nSpiro>
0

>  <nBridgehead>
0

>  <nHetero>
9

>  <nN>
3

>  <nO>
4

>  <nF>
1

>  <BalabanJ>
1.39

>  <BertzCT>
912.86

>  <nBonds>
63

>  <nBondsO>
34

>  <nBondsS>
50

>  <nBondsD>
1

>  <nBondsT>
0

>  <nBondsA>
12

>  <nBondsM>
13

>  <nBondsKS>
56

>  <nBondsKD>
7

>  <RNCG>
0.16

>  <RPCG>
0.08

>  <FCSP3>
0.43

>  <SZ>
41

>  <Sm>
38.79

>  <Sv>
37.73

>  <Sse>
61.91

>  <Sp>
40.11

>  <Si>
69.43

>  <MZ>
0.67

>  <Mm>
0.64

>  <Mv>
0.62

>  <Mse>
1.01

>  <Mp>
0.66

>  <Mi>
1.14

>  <NsCH3>
2

>  <NdCH2>
0

>  <NssCH2>
6

>  <NtCH>
0

>  <NdsCH>
0

>  <NaaCH>
6

>  <NsssCH>
2

>  <NddC>
0

>  <NtsC>
0

>  <NdssC>
1

>  <NaasC>
6

>  <NaaaC>
0

>  <NssssC>
0

>  <NsNH3>
0

>  <NsNH2>
1

>  <NssNH2>
0

>  <NdNH>
0

>  <NssNH>
1

>  <NaaNH>
0

>  <NtN>
0

>  <NsssNH>
0

>  <NdsN>
0

>  <NaaN>
0

>  <NsssN>
1

>  <NddsN>
0

>  <NaasN>
0

>  <NssssN>
0

>  <NsOH>
0

>  <NdO>
1

>  <NssO>
3

>  <NaaO>
0

>  <NsF>
1

>  <NsSiH3>
0

>  <NssSiH2>
0

>  <NsssSiH>
0

>  <NssssSi>
0

>  <NsPH2>
0

>  <NssPH>
0

>  <NsssP>
0

>  <NdsssP>
0

>  <NsssssP>
0

>  <NsSH>
0

>  <NdS>
0

>  <NssS>
0

>  <NaaS>
0

>  <NdssS>
0

>  <NddssS>
0

>  <NsCl>
1

>  <NsBr>
0

>  <NsI>
0

>  <fragCpx>
164.09

>  <fMF>
0.39

>  <nHBAcc>
6

>  <nHBDon>
2

>  <Kier1>
26.6

>  <Kier2>
13.19

>  <Lipinski>
1

>  <GhoseFilter>
1

>  <FilterItLogS>
-5.88

>  <VMcGowan>
339.67

>  <LabuteASA>
192.12

>  <PEOE_VSA1>
30.16

>  <PEOE_VSA2>
4.79

>  <PEOE_VSA3>
4.39

>  <PEOE_VSA4>
0

>  <PEOE_VSA5>
0

>  <PEOE_VSA6>
11.6

>  <PEOE_VSA7>
43.17

>  <PEOE_VSA8>
32.81

>  <PEOE_VSA9>
42.14

>  <PEOE_VSA10>
17.32

>  <PEOE_VSA11>
0

>  <PEOE_VSA12>
0

>  <PEOE_VSA13>
5.91

>  <SMR_VSA1>
23.4

>  <SMR_VSA2>
0

>  <SMR_VSA3>
10.22

>  <SMR_VSA4>
0

>  <SMR_VSA5>
24.99

>  <SMR_VSA6>
46.19

>  <SMR_VSA7>
52.8

>  <SMR_VSA8>
0

>  <SMR_VSA9>
11.5

>  <SlogP_VSA1>
20.52

>  <SlogP_VSA2>
63.41

>  <SlogP_VSA3>
4.74

>  <SlogP_VSA4>
5.82

>  <SlogP_VSA5>
23.2

>  <SlogP_VSA6>
36.4

>  <SlogP_VSA7>
5.02

>  <SlogP_VSA8>
0

>  <SlogP_VSA9>
0

>  <SlogP_VSA10>
10.08

>  <SlogP_VSA11>
11.5

>  <EState_VSA1>
0

>  <EState_VSA2>
23.87

>  <EState_VSA3>
40.92

>  <EState_VSA4>
25.93

>  <EState_VSA5>
25.31

>  <EState_VSA6>
25.31

>  <EState_VSA7>
0

>  <EState_VSA8>
10.22

>  <EState_VSA9>
31.55

>  <EState_VSA10>
9.18

>  <VSA_EState1>
29.55

>  <VSA_EState2>
15.15

>  <VSA_EState3>
3.35

>  <VSA_EState4>
6.49

>  <VSA_EState5>
0.46

>  <VSA_EState6>
8.92

>  <VSA_EState7>
1.42

>  <VSA_EState8>
2.89

>  <VSA_EState9>
3.13

>  <apol>
66.99

>  <bpol>
38.5

>  <nRing>
3

>  <nHRing>
1

>  <naRing>
2

>  <naHRing>
0

>  <nARing 2>
1

>  <nAHRing 2>
1

>  <nFRing>
0

>  <nFHRing>
0

>  <nFaRing>
0

>  <nFaHRing>
0

>  <nFARing 2>
0

>  <nFAHRing 2>
0

>  <nRot>
9

>  <SLogP>
3.36

>  <SMR>
122.04

>  <TopoPSA(NO)>
86.05

>  <TopoPSA>
86.05

>  <JGI1>
0.21

>  <JGI2>
0.08

>  <JGI3>
0.04

>  <JGI4>
0.05

>  <JGI5>
0.02

>  <Diameter>
19

>  <Radius>
10

>  <TMWC10>
142.32

>  <TSRW10>
67.64

>  <MW>
465.18

>  <AMW>
7.63

>  <WPath>
3560

>  <WPol>
49

>  <Zagreb1>
160

>  <Zagreb2>
184

>  <mZagreb2>
7.28

>  <yes>


>  <nAR-cont>
0.816016

>  <nHA-cont>
0.658856097

>  <MWHBN>
0.370919333

>  <MWHBN-cont>
0.590292002

>  <TPSA-cont>
0.399317566

>  <pka_cont>
0.97

>  <yes.1>


>  <BBB_SCORE>
3.643945232

>  <MMFF94 Energy>
83.503

$$$$
Compound 2061
Actelion Java MolfileCreator 2.0

  0  0  0  0  0  0              0 V3000
M  V30 BEGIN CTAB
M  V30 COUNTS 50 52 0 0 0
M  V30 BEGIN ATOM
M  V30 1 Cl -5.2775 1.9166 1.0378 0
M  V30 2 C -4.6401 3.4621 1.5024 0
M  V30 3 C -3.2628 3.7592 1.3939 0
M  V30 4 C -5.5594 4.4219 1.9453 0
M  V30 5 N -2.3311 2.811 0.9744 0
M  V30 6 C -2.8594 5.0598 1.7426 0
M  V30 7 C -5.1265 5.7 2.2887 0
M  V30 8 C -1.2379 3.2044 0.0776 0
M  V30 9 C -1.9721 1.7678 1.9479 0
M  V30 10 C -3.7768 6.0191 2.1856 0
M  V30 11 C -0.627 1.9557 -0.599 0
M  V30 12 C -1.3308 0.5551 1.2314 0
M  V30 13 N -0.1772 0.9254 0.3728 0
M  V30 14 C 0.363 -0.2395 -0.3545 0
M  V30 15 C 1.0723 -1.252 0.5605 0
M  V30 16 C 1.7343 -2.3527 -0.2363 0
M  V30 17 C 3.0712 -2.2294 -0.6435 0
M  V30 18 C 1.0137 -3.4929 -0.603 0
M  V30 19 C 3.6868 -3.2353 -1.3995 0
M  V30 20 C 1.6183 -4.5013 -1.3574 0
M  V30 21 O 4.9885 -3.1909 -1.8358 0
M  V30 22 C 2.9525 -4.3828 -1.7599 0
M  V30 23 C 5.7713 -2.0667 -1.4623 0
M  V30 24 O 3.6254 -5.322 -2.5022 0
M  V30 25 C 2.9203 -6.4974 -2.8725 0
M  V30 26 H -6.6159 4.1769 2.015 0
M  V30 27 H -1.8101 5.3382 1.6939 0
M  V30 28 H -5.8402 6.4446 2.6313 0
M  V30 29 H -1.6082 3.8769 -0.7057 0
M  V30 30 H -0.4568 3.732 0.6393 0
M  V30 31 H -1.2626 2.1815 2.6764 0
M  V30 32 H -2.8432 1.4156 2.5118 0
M  V30 33 H -3.4307 7.0144 2.4535 0
M  V30 34 H 0.2268 2.2845 -1.2036 0
M  V30 35 H -1.3697 1.5258 -1.2851 0
M  V30 36 H -2.1007 0.0528 0.6304 0
M  V30 37 H -1.0096 -0.1464 2.0084 0
M  V30 38 H 1.0998 0.1188 -1.0862 0
M  V30 39 H -0.427 -0.7396 -0.9309 0
M  V30 40 H 1.8273 -0.7428 1.1734 0
M  V30 41 H 0.3673 -1.709 1.2649 0
M  V30 42 H 3.6125 -1.3329 -0.3582 0
M  V30 43 H -0.0263 -3.6059 -0.304 0
M  V30 44 H 1.0184 -5.3671 -1.6158 0
M  V30 45 H 5.3635 -1.1432 -1.8864 0
M  V30 46 H 6.775 -2.206 -1.8754 0
M  V30 47 H 5.8677 -1.9949 -0.3738 0
M  V30 48 H 2.6057 -7.0647 -1.9903 0
M  V30 49 H 3.6035 -7.1302 -3.4472 0
M  V30 50 H 2.0671 -6.2601 -3.5166 0
M  V30 END ATOM
M  V30 BEGIN BOND
M  V30 1 1 1 2
M  V30 2 2 2 3
M  V30 3 1 2 4
M  V30 4 1 3 5
M  V30 5 1 3 6
M  V30 6 2 4 7
M  V30 7 1 5 8
M  V30 8 1 5 9
M  V30 9 2 6 10
M  V30 10 1 8 11
M  V30 11 1 9 12
M  V30 12 1 11 13
M  V30 13 1 13 14
M  V30 14 1 14 15
M  V30 15 1 15 16
M  V30 16 2 16 17
M  V30 17 1 16 18
M  V30 18 1 17 19
M  V30 19 2 18 20
M  V30 20 1 19 21
M  V30 21 2 19 22
M  V30 22 1 21 23
M  V30 23 1 22 24
M  V30 24 1 24 25
M  V30 25 1 7 10
M  V30 26 1 12 13
M  V30 27 1 20 22
M  V30 28 1 4 26
M  V30 29 1 6 27
M  V30 30 1 7 28
M  V30 31 1 8 29
M  V30 32 1 8 30
M  V30 33 1 9 31
M  V30 34 1 9 32
M  V30 35 1 10 33
M  V30 36 1 11 34
M  V30 37 1 11 35
M  V30 38 1 12 36
M  V30 39 1 12 37
M  V30 40 1 14 38
M  V30 41 1 14 39
M  V30 42 1 15 40
M  V30 43 1 15 41
M  V30 44 1 17 42
M  V30 45 1 18 43
M  V30 46 1 20 44
M  V30 47 1 23 45
M  V30 48 1 23 46
M  V30 49 1 23 47
M  V30 50 1 25 48
M  V30 51 1 25 49
M  V30 52 1 25 50
M  V30 END BOND
M  V30 END CTAB
M  END
>  <Column 1>
2535

>  <level_0>
3418

>  <index>
3418

>  <Unnamed: 0>
3418

>  <NO.>
3430

>  <Name>
mefeclorazine

>  <IUPAC_name>
1-(2-chlorophenyl)-4-[2-(3-4-dimethoxyphenyl)ethyl]piperazine

>  <SMILES>
COc1ccc(CCN2CCN(c3ccccc3Cl)CC2)cc1OC

>  <CID>
3064105

>  <logBB>


>  <BBB+/BBB->
BBB+

>  <Inchi>
InChI=1S/C20H25ClN2O2/c1-24-19-8-7-16(15-20(19)25-2)9-10-22-11-13-23(14-12-22)18-6-4-3-5-17(18)21/h3-8-15H-9-14H2-1-2H3

>  <threshold>
-1

>  <reference>
R13|R19|R6|R24|R27|R27|R30|

>  <group>
B

>  <Class>
-1

>  <ABC>
19.08

>  <ABCGG>
14.37

>  <nAcid>
0

>  <nBase>
1

>  <nAromAtom>
12

>  <nAromBond>
12

>  <nAtom>
50

>  <nHeavyAtom>
25

>  <nSpiro>
0

>  <nBridgehead>
0

>  <nHetero>
5

>  <nN>
2

>  <nO>
2

>  <nF>
0

>  <BalabanJ>
1.36

>  <BertzCT>
699.85

>  <nBonds>
52

>  <nBondsO>
27

>  <nBondsS>
40

>  <nBondsD>
0

>  <nBondsT>
0

>  <nBondsA>
12

>  <nBondsM>
12

>  <nBondsKS>
46

>  <nBondsKD>
6

>  <RNCG>
0.24

>  <RPCG>
0.08

>  <FCSP3>
0.4

>  <SZ>
32

>  <Sm>
30.05

>  <Sv>
30.81

>  <Sse>
49.85

>  <Sp>
33.57

>  <Si>
56.34

>  <MZ>
0.64

>  <Mm>
0.6

>  <Mv>
0.62

>  <Mse>
1

>  <Mp>
0.67

>  <Mi>
1.13

>  <NsCH3>
2

>  <NdCH2>
0

>  <NssCH2>
6

>  <NtCH>
0

>  <NdsCH>
0

>  <NaaCH>
7

>  <NsssCH>
0

>  <NddC>
0

>  <NtsC>
0

>  <NdssC>
0

>  <NaasC>
5

>  <NaaaC>
0

>  <NssssC>
0

>  <NsNH3>
0

>  <NsNH2>
0

>  <NssNH2>
0

>  <NdNH>
0

>  <NssNH>
0

>  <NaaNH>
0

>  <NtN>
0

>  <NsssNH>
0

>  <NdsN>
0

>  <NaaN>
0

>  <NsssN>
2

>  <NddsN>
0

>  <NaasN>
0

>  <NssssN>
0

>  <NsOH>
0

>  <NdO>
0

>  <NssO>
2

>  <NaaO>
0

>  <NsF>
0

>  <NsSiH3>
0

>  <NssSiH2>
0

>  <NsssSiH>
0

>  <NssssSi>
0

>  <NsPH2>
0

>  <NssPH>
0

>  <NsssP>
0

>  <NdsssP>
0

>  <NsssssP>
0

>  <NsSH>
0

>  <NdS>
0

>  <NssS>
0

>  <NaaS>
0

>  <NdssS>
0

>  <NddssS>
0

>  <NsCl>
1

>  <NsBr>
0

>  <NsI>
0

>  <fragCpx>
129.05

>  <fMF>
0.4

>  <nHBAcc>
4

>  <nHBDon>
0

>  <Kier1>
19.75

>  <Kier2>
9.8

>  <Lipinski>
1

>  <GhoseFilter>
1

>  <FilterItLogS>
-5.27

>  <VMcGowan>
278.22

>  <LabuteASA>
154.45

>  <PEOE_VSA1>
14.37

>  <PEOE_VSA2>
4.9

>  <PEOE_VSA3>
0

>  <PEOE_VSA4>
0

>  <PEOE_VSA5>
0

>  <PEOE_VSA6>
29.8

>  <PEOE_VSA7>
36.25

>  <PEOE_VSA8>
32.72

>  <PEOE_VSA9>
24.93

>  <PEOE_VSA10>
0

>  <PEOE_VSA11>
11.5

>  <PEOE_VSA12>
0

>  <PEOE_VSA13>
0

>  <SMR_VSA1>
9.47

>  <SMR_VSA2>
0

>  <SMR_VSA3>
4.9

>  <SMR_VSA4>
0

>  <SMR_VSA5>
6.42

>  <SMR_VSA6>
51.84

>  <SMR_VSA7>
53.05

>  <SMR_VSA8>
0

>  <SMR_VSA9>
11.5

>  <SlogP_VSA1>
14.37

>  <SlogP_VSA2>
51.84

>  <SlogP_VSA3>
6.42

>  <SlogP_VSA4>
0

>  <SlogP_VSA5>
5.56

>  <SlogP_VSA6>
42.46

>  <SlogP_VSA7>
5.02

>  <SlogP_VSA8>
0

>  <SlogP_VSA9>
0

>  <SlogP_VSA10>
5.69

>  <SlogP_VSA11>
11.5

>  <EState_VSA1>
0

>  <EState_VSA2>
0

>  <EState_VSA3>
0

>  <EState_VSA4>
61.35

>  <EState_VSA5>
5.56

>  <EState_VSA6>
14.22

>  <EState_VSA7>
24.27

>  <EState_VSA8>
28

>  <EState_VSA9>
21.07

>  <EState_VSA10>
0

>  <VSA_EState1>
10.68

>  <VSA_EState2>
4.87

>  <VSA_EState3>
0.83

>  <VSA_EState4>
2.41

>  <VSA_EState5>
1.57

>  <VSA_EState6>
14.24

>  <VSA_EState7>
1.01

>  <VSA_EState8>
5.17

>  <VSA_EState9>
3.34

>  <apol>
56.05

>  <bpol>
32.48

>  <nRing>
3

>  <nHRing>
1

>  <naRing>
2

>  <naHRing>
0

>  <nARing 2>
1

>  <nAHRing 2>
1

>  <nFRing>
0

>  <nFHRing>
0

>  <nFaRing>
0

>  <nFaHRing>
0

>  <nFARing 2>
0

>  <nFAHRing 2>
0

>  <nRot>
6

>  <SLogP>
3.72

>  <SMR>
103.36

>  <TopoPSA(NO)>
24.94

>  <TopoPSA>
24.94

>  <JGI1>
0.17

>  <JGI2>
0.08

>  <JGI3>
0.03

>  <JGI4>
0.04

>  <JGI5>
0.02

>  <Diameter>
15

>  <Radius>
8

>  <TMWC10>
126.15

>  <TSRW10>
59.47

>  <MW>
360.16

>  <AMW>
7.2

>  <WPath>
1768

>  <WPol>
38

>  <Zagreb1>
126

>  <Zagreb2>
146

>  <mZagreb2>
5.75

>  <yes>


>  <nAR-cont>
0.816016

>  <nHA-cont>
0.921834225

>  <MWHBN>
0.210771678

>  <MWHBN-cont>
0.999122867

>  <TPSA-cont>
0.825903313

>  <pka_cont>
0.97

>  <yes.1>


>  <BBB_SCORE>
5.373341152

>  <MMFF94 Energy>
174.11

$$$$
Compound 2062
Actelion Java MolfileCreator 2.0

  0  0  0  0  0  0              0 V3000
M  V30 BEGIN CTAB
M  V30 COUNTS 84 89 0 0 0
M  V30 BEGIN ATOM
M  V30 1 O 2.323 -3.6867 -1.7619 0
M  V30 2 C 1.6287 -3.5811 -0.7648 0
M  V30 3 O 0.8173 -2.5448 -0.4486 0
M  V30 4 C 1.5347 -4.6254 0.2878 0
M  V30 5 C 0.9214 -1.3499 -1.2572 0 CFG=2
M  V30 6 C 1.1092 -4.3168 1.5893 0
M  V30 7 C 1.9108 -5.9342 -0.0453 0
M  V30 8 C 1.6978 -0.2807 -0.46 0 CFG=2
M  V30 9 C -0.5008 -0.8812 -1.5683 0
M  V30 10 C 1.0464 -5.3139 2.5622 0
M  V30 11 C 1.8459 -6.9467 0.912 0
M  V30 12 O 2.9925 -0.7745 -0.0587 0
M  V30 13 C 0.9266 0.0885 0.8267 0 CFG=1
M  V30 14 C -1.2828 -0.494 -0.2951 0 CFG=1
M  V30 15 O 0.6442 -5.1171 3.8581 0
M  V30 16 C 1.4251 -6.6232 2.2153 0
M  V30 17 O 2.1779 -8.2579 0.6888 0
M  V30 18 C 3.9645 -0.7058 -1.0944 0
M  V30 19 O 1.6516 1.1385 1.5085 0
M  V30 20 C -0.5195 0.5477 0.547 0 CFG=2
M  V30 21 C -2.6949 0.0106 -0.6415 0
M  V30 22 C 0.2935 -3.794 4.2457 0
M  V30 23 O 1.3167 -7.6259 3.1547 0
M  V30 24 C 2.5138 -8.6326 -0.6401 0
M  V30 25 C 1.5719 1.1286 2.8667 0
M  V30 26 C -0.5958 1.9515 -0.0914 0
M  V30 27 N -2.6296 1.3078 -1.318 0
M  V30 28 C 2.5412 -7.7475 3.8764 0
M  V30 29 O 0.8887 0.3671 3.537 0
M  V30 30 C 2.4335 2.214 3.435 0
M  V30 31 C -2.0465 2.3361 -0.4173 0 CFG=2
M  V30 32 C -3.9595 1.7221 -1.8254 0
M  V30 33 C -2.1478 3.6805 -1.0738 0
M  V30 34 C -3.8742 2.9753 -2.7341 0
M  V30 35 N -1.4786 4.8169 -0.7101 0
M  V30 36 C -2.9928 4.0045 -2.1162 0
M  V30 37 C -1.8594 5.8678 -1.5194 0
M  V30 38 C -2.8132 5.3798 -2.4152 0
M  V30 39 C -1.4318 7.2056 -1.52 0
M  V30 40 C -3.368 6.2633 -3.358 0
M  V30 41 C -1.9951 8.0704 -2.4657 0
M  V30 42 C -2.9493 7.5998 -3.3696 0
M  V30 43 O -1.6943 9.4002 -2.6068 0
M  V30 44 C -0.725 9.9388 -1.7176 0
M  V30 45 H 1.4301 -1.5656 -2.2025 0
M  V30 46 H 0.842 -3.293 1.8264 0
M  V30 47 H 2.2464 -6.1324 -1.0588 0
M  V30 48 H 1.8451 0.6229 -1.0643 0
M  V30 49 H -1.0412 -1.6909 -2.0747 0
M  V30 50 H -0.4532 -0.0396 -2.2692 0
M  V30 51 H 0.9096 -0.8014 1.4698 0
M  V30 52 H -1.403 -1.4002 0.3143 0
M  V30 53 H 4.1306 0.3345 -1.3895 0
M  V30 54 H 4.9039 -1.1091 -0.7068 0
M  V30 55 H 3.667 -1.2979 -1.9626 0
M  V30 56 H -1.0296 0.6309 1.5176 0
M  V30 57 H -3.179 -0.73 -1.2903 0
M  V30 58 H -3.3012 0.0777 0.2715 0
M  V30 59 H 1.1454 -3.1135 4.1439 0
M  V30 60 H 0.0128 -3.8193 5.303 0
M  V30 61 H -0.572 -3.4337 3.6802 0
M  V30 62 H 1.6874 -8.432 -1.3299 0
M  V30 63 H 2.6979 -9.7112 -0.6467 0
M  V30 64 H 3.4332 -8.1366 -0.9676 0
M  V30 65 H -0.1697 2.6871 0.6021 0
M  V30 66 H 0.0153 1.9985 -1.0014 0
M  V30 67 H 3.3707 -8.0179 3.2141 0
M  V30 68 H 2.4191 -8.5513 4.6086 0
M  V30 69 H 2.7772 -6.8275 4.4222 0
M  V30 70 H 3.4688 2.0714 3.1152 0
M  V30 71 H 2.0612 3.1892 3.1117 0
M  V30 72 H 2.3995 2.1694 4.5273 0
M  V30 73 H -2.6261 2.3834 0.5161 0
M  V30 74 H -4.6383 1.9187 -0.9842 0
M  V30 75 H -4.4064 0.9142 -2.4176 0
M  V30 76 H -3.4587 2.6925 -3.7089 0
M  V30 77 H -4.8797 3.3769 -2.9008 0
M  V30 78 H -0.8023 4.8903 0.0362 0
M  V30 79 H -0.69 7.5327 -0.8031 0
M  V30 80 H -4.1108 5.9183 -4.0701 0
M  V30 81 H -3.3779 8.2832 -4.099 0
M  V30 82 H -1.0634 9.8745 -0.6782 0
M  V30 83 H -0.5999 10.9983 -1.9612 0
M  V30 84 H 0.2461 9.4505 -1.8491 0
M  V30 END ATOM
M  V30 BEGIN BOND
M  V30 1 2 1 2
M  V30 2 1 2 3
M  V30 3 1 2 4
M  V30 4 1 3 5
M  V30 5 2 4 6
M  V30 6 1 4 7
M  V30 7 1 5 8
M  V30 8 1 5 9
M  V30 9 1 6 10
M  V30 10 2 7 11
M  V30 11 1 8 12
M  V30 12 1 8 13
M  V30 13 1 9 14
M  V30 14 1 10 15
M  V30 15 2 10 16
M  V30 16 1 11 17
M  V30 17 1 12 18
M  V30 18 1 13 19
M  V30 19 1 13 20
M  V30 20 1 14 21
M  V30 21 1 15 22
M  V30 22 1 16 23
M  V30 23 1 17 24
M  V30 24 1 19 25
M  V30 25 1 20 26
M  V30 26 1 21 27
M  V30 27 1 23 28
M  V30 28 2 25 29
M  V30 29 1 25 30
M  V30 30 1 26 31
M  V30 31 1 27 32
M  V30 32 1 31 33
M  V30 33 1 32 34
M  V30 34 1 33 35
M  V30 35 2 33 36
M  V30 36 1 35 37
M  V30 37 1 36 38
M  V30 38 1 37 39
M  V30 39 1 38 40
M  V30 40 2 39 41
M  V30 41 2 40 42
M  V30 42 1 41 43
M  V30 43 1 43 44
M  V30 44 1 11 16
M  V30 45 1 14 20
M  V30 46 1 27 31
M  V30 47 1 34 36
M  V30 48 2 37 38
M  V30 49 1 41 42
M  V30 50 1 5 45
M  V30 51 1 6 46
M  V30 52 1 7 47
M  V30 53 1 8 48
M  V30 54 1 9 49
M  V30 55 1 9 50
M  V30 56 1 13 51
M  V30 57 1 14 52
M  V30 58 1 18 53
M  V30 59 1 18 54
M  V30 60 1 18 55
M  V30 61 1 20 56
M  V30 62 1 21 57
M  V30 63 1 21 58
M  V30 64 1 22 59
M  V30 65 1 22 60
M  V30 66 1 22 61
M  V30 67 1 24 62
M  V30 68 1 24 63
M  V30 69 1 24 64
M  V30 70 1 26 65
M  V30 71 1 26 66
M  V30 72 1 28 67
M  V30 73 1 28 68
M  V30 74 1 28 69
M  V30 75 1 30 70
M  V30 76 1 30 71
M  V30 77 1 30 72
M  V30 78 1 31 73
M  V30 79 1 32 74
M  V30 80 1 32 75
M  V30 81 1 34 76
M  V30 82 1 34 77
M  V30 83 1 35 78
M  V30 84 1 39 79
M  V30 85 1 40 80
M  V30 86 1 42 81
M  V30 87 1 44 82
M  V30 88 1 44 83
M  V30 89 1 44 84
M  V30 END BOND
M  V30 BEGIN COLLECTION
M  V30 MDLV30/STEABS ATOMS=(6 5 8 13 14 20 31)
M  V30 END COLLECTION
M  V30 END CTAB
M  END
>  <Column 1>
2536

>  <level_0>
3439

>  <index>
3439

>  <Unnamed: 0>
3439

>  <NO.>
3451

>  <Name>


>  <IUPAC_name>


>  <SMILES>
COc1ccc2c3c([nH]c2c1)[C@@H]1C[C@H]2[C@H](C[C@H](OC(=O)c4cc(OC)c(OC)c(OC)c4)[C@H](OC)[C@H]2OC(C)=O)CN1CC3

>  <CID>


>  <logBB>


>  <BBB+/BBB->
BBB+

>  <Inchi>
InChI=1S/C33H40N2O9/c1-17(36)43-30-23-15-25-29-22(21-8-7-20(38-2)14-24(21)34-29)9-10-35(25)16-19(23)13-28(32(30)42-6)44-33(37)18-11-26(39-3)31(41-5)27(12-18)40-4/h7-8-11-12-14-19-23-25-28-30-32-34H-9-10-13-15-16H2-1-6H3/t19--23+-25+-28+-30+-32+/m1/s1

>  <threshold>
-1

>  <reference>
R13|

>  <group>
B

>  <Class>
1

>  <ABC>
34.49

>  <ABCGG>
25.06

>  <nAcid>
0

>  <nBase>
1

>  <nAromAtom>
15

>  <nAromBond>
16

>  <nAtom>
84

>  <nHeavyAtom>
44

>  <nSpiro>
0

>  <nBridgehead>
0

>  <nHetero>
11

>  <nN>
2

>  <nO>
9

>  <nF>
0

>  <BalabanJ>
1.17

>  <BertzCT>
1526.48

>  <nBonds>
89

>  <nBondsO>
49

>  <nBondsS>
71

>  <nBondsD>
2

>  <nBondsT>
0

>  <nBondsA>
16

>  <nBondsM>
18

>  <nBondsKS>
80

>  <nBondsKD>
9

>  <RNCG>
0.11

>  <RPCG>
0.07

>  <FCSP3>
0.52

>  <SZ>
54

>  <Sm>
50.68

>  <Sv>
51.79

>  <Sse>
85.06

>  <Sp>
54.61

>  <Si>
94.77

>  <MZ>
0.64

>  <Mm>
0.6

>  <Mv>
0.62

>  <Mse>
1.01

>  <Mp>
0.65

>  <Mi>
1.13

>  <NsCH3>
6

>  <NdCH2>
0

>  <NssCH2>
5

>  <NtCH>
0

>  <NdsCH>
0

>  <NaaCH>
5

>  <NsssCH>
6

>  <NddC>
0

>  <NtsC>
0

>  <NdssC>
2

>  <NaasC>
7

>  <NaaaC>
2

>  <NssssC>
0

>  <NsNH3>
0

>  <NsNH2>
0

>  <NssNH2>
0

>  <NdNH>
0

>  <NssNH>
0

>  <NaaNH>
1

>  <NtN>
0

>  <NsssNH>
0

>  <NdsN>
0

>  <NaaN>
0

>  <NsssN>
1

>  <NddsN>
0

>  <NaasN>
0

>  <NssssN>
0

>  <NsOH>
0

>  <NdO>
2

>  <NssO>
7

>  <NaaO>
0

>  <NsF>
0

>  <NsSiH3>
0

>  <NssSiH2>
0

>  <NsssSiH>
0

>  <NssssSi>
0

>  <NsPH2>
0

>  <NssPH>
0

>  <NsssP>
0

>  <NdsssP>
0

>  <NsssssP>
0

>  <NsSH>
0

>  <NdS>
0

>  <NssS>
0

>  <NaaS>
0

>  <NdssS>
0

>  <NddssS>
0

>  <NsCl>
0

>  <NsBr>
0

>  <NsI>
0

>  <fragCpx>
509.11

>  <fMF>
0.35

>  <nHBAcc>
10

>  <nHBDon>
1

>  <Kier1>
33.88

>  <Kier2>
14.63

>  <Lipinski>
0

>  <GhoseFilter>
0

>  <FilterItLogS>
-6.14

>  <VMcGowan>
444.76

>  <LabuteASA>
256.17

>  <PEOE_VSA1>
38.14

>  <PEOE_VSA2>
9.69

>  <PEOE_VSA3>
4.79

>  <PEOE_VSA4>
0

>  <PEOE_VSA5>
0

>  <PEOE_VSA6>
0

>  <PEOE_VSA7>
55.01

>  <PEOE_VSA8>
55.7

>  <PEOE_VSA9>
40.04

>  <PEOE_VSA10>
24.06

>  <PEOE_VSA11>
11.5

>  <PEOE_VSA12>
5.75

>  <PEOE_VSA13>
0

>  <SMR_VSA1>
42.75

>  <SMR_VSA2>
0

>  <SMR_VSA3>
9.88

>  <SMR_VSA4>
11.84

>  <SMR_VSA5>
50.54

>  <SMR_VSA6>
48.64

>  <SMR_VSA7>
47.15

>  <SMR_VSA8>
0

>  <SMR_VSA9>
23

>  <SlogP_VSA1>
18.95

>  <SlogP_VSA2>
88.77

>  <SlogP_VSA3>
25.43

>  <SlogP_VSA4>
11.84

>  <SlogP_VSA5>
47.42

>  <SlogP_VSA6>
30.33

>  <SlogP_VSA7>
0

>  <SlogP_VSA8>
10.9

>  <SlogP_VSA9>
0

>  <SlogP_VSA10>
0

>  <SlogP_VSA11>
23

>  <EState_VSA1>
30.25

>  <EState_VSA2>
23.44

>  <EState_VSA3>
23.67

>  <EState_VSA4>
37.2

>  <EState_VSA5>
44.9

>  <EState_VSA6>
26.35

>  <EState_VSA7>
12.13

>  <EState_VSA8>
15.95

>  <EState_VSA9>
33.16

>  <EState_VSA10>
9.59

>  <VSA_EState1>
39.78

>  <VSA_EState2>
32.13

>  <VSA_EState3>
1.22

>  <VSA_EState4>
3.86

>  <VSA_EState5>
1.1

>  <VSA_EState6>
9.44

>  <VSA_EState7>
0.46

>  <VSA_EState8>
3.12

>  <VSA_EState9>
7.73

>  <apol>
91.2

>  <bpol>
56.3

>  <nRing>
6

>  <nHRing>
3

>  <naRing>
3

>  <naHRing>
1

>  <nARing 2>
3

>  <nAHRing 2>
2

>  <nFRing>
1

>  <nFHRing>
1

>  <nFaRing>
0

>  <nFaHRing>
0

>  <nFARing 2>
1

>  <nFAHRing 2>
1

>  <nRot>
8

>  <SLogP>
4.31

>  <SMR>
160.74

>  <TopoPSA(NO)>
117.78

>  <TopoPSA>
117.78

>  <JGI1>
0.19

>  <JGI2>
0.08

>  <JGI3>
0.05

>  <JGI4>
0.05

>  <JGI5>
0.03

>  <Diameter>
20

>  <Radius>
10

>  <TMWC10>
175.48

>  <TSRW10>
96.52

>  <MW>
608.27

>  <AMW>
7.24

>  <WPath>
6944

>  <WPol>
84

>  <Zagreb1>
242

>  <Zagreb2>
297

>  <mZagreb2>
9.83

>  <yes>


>  <nAR-cont>
0.691115

>  <nHA-cont>
0.178195572

>  <MWHBN>
0.446009887

>  <MWHBN-cont>
0.30028928

>  <TPSA-cont>
0.177822463

>  <pka_cont>
0.97

>  <yes.1>


>  <BBB_SCORE>
2.160389418

>  <MMFF94 Energy>
125.74

$$$$
Compound 2063
Actelion Java MolfileCreator 2.0

  0  0  0  0  0  0              0 V3000
M  V30 BEGIN CTAB
M  V30 COUNTS 70 73 0 0 0
M  V30 BEGIN ATOM
M  V30 1 O -2.0647 -0.3968 -5.0086 0
M  V30 2 C -3.1223 -0.5211 -4.3885 0
M  V30 3 N -3.8561 0.5598 -3.9027 0
M  V30 4 C -3.7132 -1.8958 -4.1829 0
M  V30 5 C -5.0685 0.4717 -3.2231 0
M  V30 6 C -3.2996 1.8939 -4.1304 0
M  V30 7 C -4.5398 -1.99 -2.908 0
M  V30 8 O -5.7143 1.4561 -2.8586 0
M  V30 9 C -5.6253 -0.9143 -2.9841 0
M  V30 10 C -2.2039 2.2605 -3.1196 0
M  V30 11 C -5.1581 -3.3884 -2.7469 0
M  V30 12 C -3.6887 -1.8934 -1.6299 0
M  V30 13 C -2.7488 2.4894 -1.7055 0
M  V30 14 C -5.4821 -3.51 -1.2605 0
M  V30 15 C -4.5272 -2.5591 -0.5409 0
M  V30 16 C -1.6779 2.9333 -0.7035 0
M  V30 17 N -0.7114 1.8647 -0.447 0
M  V30 18 C 0.2587 2.2653 0.5725 0
M  V30 19 C 1.2541 1.1253 0.8078 0
M  V30 20 C 2.2729 1.497 1.8899 0
M  V30 21 C 3.3732 0.4398 2.0811 0 CFG=2
M  V30 22 C 2.8531 -0.8809 2.6453 0
M  V30 23 C 4.4475 0.9663 3.0407 0
M  V30 24 O 3.8786 -1.8777 2.6979 0
M  V30 25 C 5.3946 -0.1232 3.4685 0
M  V30 26 C 5.0497 -1.4669 3.2755 0
M  V30 27 C 6.6192 0.1921 4.09 0
M  V30 28 C 5.9269 -2.4841 3.6464 0
M  V30 29 O 6.8652 1.5288 4.2755 0
M  V30 30 C 7.4869 -0.8368 4.4717 0
M  V30 31 C 7.1435 -2.1709 4.2448 0
M  V30 32 C 8.0941 1.8883 4.8932 0
M  V30 33 H -4.3268 -2.1245 -5.0633 0
M  V30 34 H -2.8892 -2.6196 -4.1623 0
M  V30 35 H -2.8667 1.9199 -5.1379 0
M  V30 36 H -4.092 2.6506 -4.1116 0
M  V30 37 H -6.3193 -1.1257 -3.8077 0
M  V30 38 H -6.218 -0.8808 -2.0625 0
M  V30 39 H -1.7146 3.1808 -3.4617 0
M  V30 40 H -1.4384 1.4772 -3.1093 0
M  V30 41 H -4.43 -4.1638 -3.0184 0
M  V30 42 H -6.0459 -3.5413 -3.3696 0
M  V30 43 H -3.4186 -0.8698 -1.3545 0
M  V30 44 H -2.7531 -2.4544 -1.751 0
M  V30 45 H -3.5245 3.2645 -1.7445 0
M  V30 46 H -3.2322 1.5797 -1.3319 0
M  V30 47 H -6.5197 -3.2136 -1.0681 0
M  V30 48 H -5.3682 -4.5415 -0.9119 0
M  V30 49 H -3.8931 -3.0883 0.1778 0
M  V30 50 H -5.0976 -1.8087 0.0185 0
M  V30 51 H -2.182 3.2034 0.2324 0
M  V30 52 H -1.1697 3.8296 -1.0789 0
M  V30 53 H -0.2159 1.6318 -1.3073 0
M  V30 54 H 0.7984 3.1642 0.251 0
M  V30 55 H -0.2577 2.4948 1.5121 0
M  V30 56 H 1.7813 0.8942 -0.1262 0
M  V30 57 H 0.7048 0.2242 1.1039 0
M  V30 58 H 2.7439 2.4501 1.6161 0
M  V30 59 H 1.7497 1.6661 2.8398 0
M  V30 60 H 3.8529 0.2393 1.1127 0
M  V30 61 H 2.4222 -0.7564 3.6473 0
M  V30 62 H 2.0658 -1.2915 2.0064 0
M  V30 63 H 4.9985 1.7723 2.5405 0
M  V30 64 H 3.9808 1.3856 3.9415 0
M  V30 65 H 5.6553 -3.522 3.4738 0
M  V30 66 H 8.4407 -0.6354 4.9474 0
M  V30 67 H 7.8234 -2.9661 4.5386 0
M  V30 68 H 8.155 1.4916 5.912 0
M  V30 69 H 8.1271 2.9802 4.9599 0
M  V30 70 H 8.9488 1.5665 4.2893 0
M  V30 END ATOM
M  V30 BEGIN BOND
M  V30 1 2 1 2
M  V30 2 1 2 3
M  V30 3 1 2 4
M  V30 4 1 3 5
M  V30 5 1 3 6
M  V30 6 1 4 7
M  V30 7 2 5 8
M  V30 8 1 5 9
M  V30 9 1 6 10
M  V30 10 1 7 11
M  V30 11 1 7 12
M  V30 12 1 10 13
M  V30 13 1 11 14
M  V30 14 1 12 15
M  V30 15 1 13 16
M  V30 16 1 16 17
M  V30 17 1 17 18
M  V30 18 1 18 19
M  V30 19 1 19 20
M  V30 20 1 20 21
M  V30 21 1 21 22
M  V30 22 1 21 23
M  V30 23 1 22 24
M  V30 24 1 23 25
M  V30 25 1 24 26
M  V30 26 1 25 27
M  V30 27 1 26 28
M  V30 28 1 27 29
M  V30 29 2 27 30
M  V30 30 2 28 31
M  V30 31 1 29 32
M  V30 32 1 7 9
M  V30 33 1 14 15
M  V30 34 2 25 26
M  V30 35 1 30 31
M  V30 36 1 4 33
M  V30 37 1 4 34
M  V30 38 1 6 35
M  V30 39 1 6 36
M  V30 40 1 9 37
M  V30 41 1 9 38
M  V30 42 1 10 39
M  V30 43 1 10 40
M  V30 44 1 11 41
M  V30 45 1 11 42
M  V30 46 1 12 43
M  V30 47 1 12 44
M  V30 48 1 13 45
M  V30 49 1 13 46
M  V30 50 1 14 47
M  V30 51 1 14 48
M  V30 52 1 15 49
M  V30 53 1 15 50
M  V30 54 1 16 51
M  V30 55 1 16 52
M  V30 56 1 17 53
M  V30 57 1 18 54
M  V30 58 1 18 55
M  V30 59 1 19 56
M  V30 60 1 19 57
M  V30 61 1 20 58
M  V30 62 1 20 59
M  V30 63 1 21 60
M  V30 64 1 22 61
M  V30 65 1 22 62
M  V30 66 1 23 63
M  V30 67 1 23 64
M  V30 68 1 28 65
M  V30 69 1 30 66
M  V30 70 1 31 67
M  V30 71 1 32 68
M  V30 72 1 32 69
M  V30 73 1 32 70
M  V30 END BOND
M  V30 BEGIN COLLECTION
M  V30 MDLV30/STEABS ATOMS=(1 21)
M  V30 END COLLECTION
M  V30 END CTAB
M  END
>  <Column 1>
2538

>  <level_0>
3461

>  <index>
3461

>  <Unnamed: 0>
3461

>  <NO.>
3473

>  <Name>
alnespirone

>  <IUPAC_name>
8-[4-[3-[(3s)-5-methoxy-3-4-dihydro-2h-chromen-3-yl]propylamino]butyl]-8-azaspiro[4.5]decane-7-9-dione

>  <SMILES>
COc1cccc2c1C[C@H](CCCNCCCCN1C(=O)CC3(CCCC3)CC1=O)CO2

>  <CID>
69889526

>  <logBB>


>  <BBB+/BBB->
BBB+

>  <Inchi>
InChI=1S/C26H38N2O4/c1-31-22-9-6-10-23-21(22)16-20(19-32-23)8-7-14-27-13-4-5-15-28-24(29)17-26(18-25(28)30)11-2-3-12-26/h6-9-10-20-27H-2-5-7-8-11-19H2-1H3/t20-/m0/s1

>  <threshold>
-1

>  <reference>
R13|R24|R27|R30|

>  <group>
B

>  <Class>
1

>  <ABC>
24.81

>  <ABCGG>
17.78

>  <nAcid>
0

>  <nBase>
1

>  <nAromAtom>
6

>  <nAromBond>
6

>  <nAtom>
70

>  <nHeavyAtom>
32

>  <nSpiro>
1

>  <nBridgehead>
0

>  <nHetero>
6

>  <nN>
2

>  <nO>
4

>  <nF>
0

>  <BalabanJ>
1.04

>  <BertzCT>
768.77

>  <nBonds>
73

>  <nBondsO>
35

>  <nBondsS>
65

>  <nBondsD>
2

>  <nBondsT>
0

>  <nBondsA>
6

>  <nBondsM>
8

>  <nBondsKS>
68

>  <nBondsKD>
5

>  <RNCG>
0.19

>  <RPCG>
0.09

>  <FCSP3>
0.69

>  <SZ>
40

>  <Sm>
36.85

>  <Sv>
40.67

>  <Sse>
69.52

>  <Sp>
44.41

>  <Si>
79.31

>  <MZ>
0.57

>  <Mm>
0.53

>  <Mv>
0.58

>  <Mse>
0.99

>  <Mp>
0.63

>  <Mi>
1.13

>  <NsCH3>
1

>  <NdCH2>
0

>  <NssCH2>
15

>  <NtCH>
0

>  <NdsCH>
0

>  <NaaCH>
3

>  <NsssCH>
1

>  <NddC>
0

>  <NtsC>
0

>  <NdssC>
2

>  <NaasC>
3

>  <NaaaC>
0

>  <NssssC>
1

>  <NsNH3>
0

>  <NsNH2>
0

>  <NssNH2>
0

>  <NdNH>
0

>  <NssNH>
1

>  <NaaNH>
0

>  <NtN>
0

>  <NsssNH>
0

>  <NdsN>
0

>  <NaaN>
0

>  <NsssN>
1

>  <NddsN>
0

>  <NaasN>
0

>  <NssssN>
0

>  <NsOH>
0

>  <NdO>
2

>  <NssO>
2

>  <NaaO>
0

>  <NsF>
0

>  <NsSiH3>
0

>  <NssSiH2>
0

>  <NsssSiH>
0

>  <NssssSi>
0

>  <NsPH2>
0

>  <NssPH>
0

>  <NsssP>
0

>  <NdsssP>
0

>  <NsssssP>
0

>  <NsSH>
0

>  <NdS>
0

>  <NssS>
0

>  <NaaS>
0

>  <NdssS>
0

>  <NddssS>
0

>  <NsCl>
0

>  <NsBr>
0

>  <NsI>
0

>  <fragCpx>
233.06

>  <fMF>
0.4

>  <nHBAcc>
5

>  <nHBDon>
1

>  <Kier1>
25.1

>  <Kier2>
12.11

>  <Lipinski>
1

>  <GhoseFilter>
1

>  <FilterItLogS>
-6.78

>  <VMcGowan>
355.7

>  <LabuteASA>
191.57

>  <PEOE_VSA1>
14.79

>  <PEOE_VSA2>
14.49

>  <PEOE_VSA3>
0

>  <PEOE_VSA4>
0

>  <PEOE_VSA5>
0

>  <PEOE_VSA6>
18.91

>  <PEOE_VSA7>
81.5

>  <PEOE_VSA8>
24.95

>  <PEOE_VSA9>
13.72

>  <PEOE_VSA10>
11.5

>  <PEOE_VSA11>
0

>  <PEOE_VSA12>
11.81

>  <PEOE_VSA13>
0

>  <SMR_VSA1>
19.06

>  <SMR_VSA2>
0

>  <SMR_VSA3>
10.22

>  <SMR_VSA4>
11.33

>  <SMR_VSA5>
70.63

>  <SMR_VSA6>
33.35

>  <SMR_VSA7>
23.76

>  <SMR_VSA8>
0

>  <SMR_VSA9>
11.5

>  <SlogP_VSA1>
14.79

>  <SlogP_VSA2>
50.07

>  <SlogP_VSA3>
16.01

>  <SlogP_VSA4>
11.33

>  <SlogP_VSA5>
69.77

>  <SlogP_VSA6>
18.2

>  <SlogP_VSA7>
0

>  <SlogP_VSA8>
0

>  <SlogP_VSA9>
0

>  <SlogP_VSA10>
0

>  <SlogP_VSA11>
11.5

>  <EState_VSA1>
0

>  <EState_VSA2>
17.23

>  <EState_VSA3>
25.3

>  <EState_VSA4>
76.14

>  <EState_VSA5>
23.31

>  <EState_VSA6>
7.11

>  <EState_VSA7>
18.2

>  <EState_VSA8>
5.32

>  <EState_VSA9>
9.47

>  <EState_VSA10>
9.59

>  <VSA_EState1>
11.42

>  <VSA_EState2>
26.55

>  <VSA_EState3>
3.51

>  <VSA_EState4>
1.2

>  <VSA_EState5>
2.53

>  <VSA_EState6>
6

>  <VSA_EState7>
10.72

>  <VSA_EState8>
3.27

>  <VSA_EState9>
1.71

>  <apol>
74.17

>  <bpol>
45.61

>  <nRing>
4

>  <nHRing>
2

>  <naRing>
1

>  <naHRing>
0

>  <nARing 2>
3

>  <nAHRing 2>
2

>  <nFRing>
1

>  <nFHRing>
1

>  <nFaRing>
0

>  <nFaHRing>
0

>  <nFARing 2>
1

>  <nFAHRing 2>
1

>  <nRot>
10

>  <SLogP>
4.11

>  <SMR>
123.88

>  <TopoPSA(NO)>
67.87

>  <TopoPSA>
67.87

>  <JGI1>
0.17

>  <JGI2>
0.07

>  <JGI3>
0.05

>  <JGI4>
0.04

>  <JGI5>
0.02

>  <Diameter>
19

>  <Radius>
10

>  <TMWC10>
144.4

>  <TSRW10>
81.57

>  <MW>
442.28

>  <AMW>
6.32

>  <WPath>
3904

>  <WPol>
49

>  <Zagreb1>
166

>  <Zagreb2>
194

>  <mZagreb2>
7.19

>  <yes>


>  <nAR-cont>
0.691115

>  <nHA-cont>
0.658856097

>  <MWHBN>
0.285300544

>  <MWHBN-cont>
0.882316179

>  <TPSA-cont>
0.526225255

>  <pka_cont>
0.97

>  <yes.1>


>  <BBB_SCORE>
4.210895876

>  <MMFF94 Energy>
2.0852

$$$$
Compound 2064
Actelion Java MolfileCreator 2.0

  0  0  0  0  0  0              0 V3000
M  V30 BEGIN CTAB
M  V30 COUNTS 77 80 0 0 0
M  V30 BEGIN ATOM
M  V30 1 O -3.9846 2.2299 -2.3893 0
M  V30 2 C -3.8484 1.2279 -3.0892 0
M  V30 3 N -3.0822 1.1928 -4.2616 0
M  V30 4 C -4.4585 -0.0834 -2.6141 0 CFG=2
M  V30 5 C -2.5083 -0.0094 -4.6952 0
M  V30 6 C -2.5868 2.4959 -4.8521 0
M  V30 7 C -3.6269 -0.6081 -1.4542 0
M  V30 8 C -4.5815 -1.1138 -3.7354 0
M  V30 9 O -1.489 -0.0741 -5.3802 0
M  V30 10 C -3.1377 -1.3031 -4.1974 0 CFG=1
M  V30 11 C -1.3051 2.9441 -4.1279 0
M  V30 12 C -2.2933 2.3823 -6.3737 0
M  V30 13 C -3.6445 3.6301 -4.7539 0
M  V30 14 O -3.9042 -0.3112 -0.2934 0
M  V30 15 N -2.5431 -1.42 -1.7991 0
M  V30 16 C -5.2086 -2.4392 -3.2371 0
M  V30 17 C -5.5034 -0.627 -4.8794 0
M  V30 18 C -2.2615 -1.8702 -3.0915 0
M  V30 19 C -1.6778 -1.8878 -0.7155 0
M  V30 20 O -1.3594 -2.6658 -3.3467 0
M  V30 21 C -0.5163 -0.9168 -0.488 0
M  V30 22 C 0.3804 -1.3829 0.6606 0
M  V30 23 C 1.5483 -0.4121 0.8772 0
M  V30 24 N 2.4965 -0.8898 1.896 0
M  V30 25 C 3.732 -0.0659 1.8584 0
M  V30 26 C 1.9279 -0.8091 3.2663 0
M  V30 27 C 4.7774 -0.4797 2.92 0
M  V30 28 C 2.9262 -1.235 4.3689 0
M  V30 29 N 4.178 -0.4707 4.258 0
M  V30 30 C 4.9753 -0.3839 5.3998 0
M  V30 31 C 4.5242 0.2717 6.5759 0
M  V30 32 C 6.2656 -0.9432 5.4193 0
M  V30 33 O 3.2779 0.8545 6.5113 0
M  V30 34 C 5.3415 0.3213 7.7152 0
M  V30 35 C 7.0759 -0.8817 6.5551 0
M  V30 36 C 2.8934 1.707 7.5794 0
M  V30 37 C 6.612 -0.2535 7.7032 0
M  V30 38 H -5.4613 0.1438 -2.2279 0
M  V30 39 H -3.122 -2.0162 -5.0326 0
M  V30 40 H -0.9267 3.8869 -4.5385 0
M  V30 41 H -0.5106 2.1961 -4.2225 0
M  V30 42 H -1.4826 3.0936 -3.0573 0
M  V30 43 H -3.1215 1.8915 -6.8971 0
M  V30 44 H -2.1496 3.3698 -6.8288 0
M  V30 45 H -1.3736 1.8332 -6.5917 0
M  V30 46 H -3.7512 4.0287 -3.7416 0
M  V30 47 H -4.6263 3.2811 -5.0934 0
M  V30 48 H -3.3655 4.4926 -5.3713 0
M  V30 49 H -6.2315 -2.273 -2.8791 0
M  V30 50 H -4.6566 -2.9058 -2.4166 0
M  V30 51 H -5.2551 -3.1745 -4.0489 0
M  V30 52 H -5.5491 -1.372 -5.6823 0
M  V30 53 H -6.5247 -0.4707 -4.5127 0
M  V30 54 H -5.1847 0.3124 -5.3374 0
M  V30 55 H -2.2634 -1.9894 0.2054 0
M  V30 56 H -1.2878 -2.8831 -0.957 0
M  V30 57 H -0.9078 0.084 -0.2673 0
M  V30 58 H 0.0737 -0.8271 -1.4084 0
M  V30 59 H -0.2264 -1.4639 1.5691 0
M  V30 60 H 0.7693 -2.384 0.4371 0
M  V30 61 H 2.0765 -0.3181 -0.0806 0
M  V30 62 H 1.1687 0.5866 1.1289 0
M  V30 63 H 4.2014 -0.1581 0.8715 0
M  V30 64 H 3.4804 0.9936 2.004 0
M  V30 65 H 1.5899 0.2151 3.4737 0
M  V30 66 H 1.056 -1.4662 3.3493 0
M  V30 67 H 5.6143 0.2273 2.8671 0
M  V30 68 H 5.1603 -1.4807 2.6856 0
M  V30 69 H 3.1509 -2.3047 4.2653 0
M  V30 70 H 2.4368 -1.1083 5.3401 0
M  V30 71 H 6.6499 -1.4628 4.5465 0
M  V30 72 H 5.0161 0.8037 8.6301 0
M  V30 73 H 8.0643 -1.3324 6.54 0
M  V30 74 H 2.7488 1.1375 8.5031 0
M  V30 75 H 1.9321 2.1588 7.3163 0
M  V30 76 H 3.6134 2.5197 7.7218 0
M  V30 77 H 7.2381 -0.2083 8.5902 0
M  V30 END ATOM
M  V30 BEGIN BOND
M  V30 1 2 1 2
M  V30 2 1 2 3
M  V30 3 1 2 4
M  V30 4 1 3 5
M  V30 5 1 3 6
M  V30 6 1 4 7
M  V30 7 1 4 8
M  V30 8 2 5 9
M  V30 9 1 5 10
M  V30 10 1 6 11
M  V30 11 1 6 12
M  V30 12 1 6 13
M  V30 13 2 7 14
M  V30 14 1 7 15
M  V30 15 1 8 16
M  V30 16 1 8 17
M  V30 17 1 10 18
M  V30 18 1 15 19
M  V30 19 2 18 20
M  V30 20 1 19 21
M  V30 21 1 21 22
M  V30 22 1 22 23
M  V30 23 1 23 24
M  V30 24 1 24 25
M  V30 25 1 24 26
M  V30 26 1 25 27
M  V30 27 1 26 28
M  V30 28 1 27 29
M  V30 29 1 29 30
M  V30 30 2 30 31
M  V30 31 1 30 32
M  V30 32 1 31 33
M  V30 33 1 31 34
M  V30 34 2 32 35
M  V30 35 1 33 36
M  V30 36 2 34 37
M  V30 37 1 8 10
M  V30 38 1 15 18
M  V30 39 1 28 29
M  V30 40 1 35 37
M  V30 41 1 4 38
M  V30 42 1 10 39
M  V30 43 1 11 40
M  V30 44 1 11 41
M  V30 45 1 11 42
M  V30 46 1 12 43
M  V30 47 1 12 44
M  V30 48 1 12 45
M  V30 49 1 13 46
M  V30 50 1 13 47
M  V30 51 1 13 48
M  V30 52 1 16 49
M  V30 53 1 16 50
M  V30 54 1 16 51
M  V30 55 1 17 52
M  V30 56 1 17 53
M  V30 57 1 17 54
M  V30 58 1 19 55
M  V30 59 1 19 56
M  V30 60 1 21 57
M  V30 61 1 21 58
M  V30 62 1 22 59
M  V30 63 1 22 60
M  V30 64 1 23 61
M  V30 65 1 23 62
M  V30 66 1 25 63
M  V30 67 1 25 64
M  V30 68 1 26 65
M  V30 69 1 26 66
M  V30 70 1 27 67
M  V30 71 1 27 68
M  V30 72 1 28 69
M  V30 73 1 28 70
M  V30 74 1 32 71
M  V30 75 1 34 72
M  V30 76 1 35 73
M  V30 77 1 36 74
M  V30 78 1 36 75
M  V30 79 1 36 76
M  V30 80 1 37 77
M  V30 END BOND
M  V30 BEGIN COLLECTION
M  V30 MDLV30/STEABS ATOMS=(2 4 10)
M  V30 END COLLECTION
M  V30 END CTAB
M  END
>  <Column 1>
2539

>  <level_0>
3463

>  <index>
3463

>  <Unnamed: 0>
3463

>  <NO.>
3475

>  <Name>


>  <IUPAC_name>


>  <SMILES>
COc1ccccc1N1CCN(CCCCN2C(=O)[C@H]3C(=O)N(C(C)(C)C)C(=O)[C@H](C2=O)C3(C)C)CC1

>  <CID>


>  <logBB>


>  <BBB+/BBB->
BBB+

>  <Inchi>
InChI=1S/C28H40N4O5/c1-27(2-3)32-25(35)21-23(33)31(24(34)22(26(32)36)28(21-4)5)14-10-9-13-29-15-17-30(18-16-29)19-11-7-8-12-20(19)37-6/h7-8-11-12-21-22H-9-10-13-18H2-1-6H3/t21--22-/m0/s1

>  <threshold>
-1

>  <reference>
R13|

>  <group>
B

>  <Class>
1

>  <ABC>
28.93

>  <ABCGG>
22.04

>  <nAcid>
0

>  <nBase>
1

>  <nAromAtom>
6

>  <nAromBond>
6

>  <nAtom>
77

>  <nHeavyAtom>
37

>  <nSpiro>
0

>  <nBridgehead>
2

>  <nHetero>
9

>  <nN>
4

>  <nO>
5

>  <nF>
0

>  <BalabanJ>
1.28

>  <BertzCT>
1032.58

>  <nBonds>
80

>  <nBondsO>
40

>  <nBondsS>
70

>  <nBondsD>
4

>  <nBondsT>
0

>  <nBondsA>
6

>  <nBondsM>
10

>  <nBondsKS>
73

>  <nBondsKD>
7

>  <RNCG>
0.15

>  <RPCG>
0.07

>  <FCSP3>
0.64

>  <SZ>
46

>  <Sm>
42.68

>  <Sv>
45.44

>  <Sse>
77.06

>  <Sp>
49.01

>  <Si>
87.52

>  <MZ>
0.6

>  <Mm>
0.55

>  <Mv>
0.59

>  <Mse>
1

>  <Mp>
0.64

>  <Mi>
1.14

>  <NsCH3>
6

>  <NdCH2>
0

>  <NssCH2>
8

>  <NtCH>
0

>  <NdsCH>
0

>  <NaaCH>
4

>  <NsssCH>
2

>  <NddC>
0

>  <NtsC>
0

>  <NdssC>
4

>  <NaasC>
2

>  <NaaaC>
0

>  <NssssC>
2

>  <NsNH3>
0

>  <NsNH2>
0

>  <NssNH2>
0

>  <NdNH>
0

>  <NssNH>
0

>  <NaaNH>
0

>  <NtN>
0

>  <NsssNH>
0

>  <NdsN>
0

>  <NaaN>
0

>  <NsssN>
4

>  <NddsN>
0

>  <NaasN>
0

>  <NssssN>
0

>  <NsOH>
0

>  <NdO>
4

>  <NssO>
1

>  <NaaO>
0

>  <NsF>
0

>  <NsSiH3>
0

>  <NssSiH2>
0

>  <NsssSiH>
0

>  <NssssSi>
0

>  <NsPH2>
0

>  <NssPH>
0

>  <NsssP>
0

>  <NdsssP>
0

>  <NsssssP>
0

>  <NsSH>
0

>  <NdS>
0

>  <NssS>
0

>  <NaaS>
0

>  <NdssS>
0

>  <NddssS>
0

>  <NsCl>
0

>  <NsBr>
0

>  <NsI>
0

>  <fragCpx>
268.09

>  <fMF>
0.32

>  <nHBAcc>
7

>  <nHBDon>
0

>  <Kier1>
29.97

>  <Kier2>
11.85

>  <Lipinski>
0

>  <GhoseFilter>
0

>  <FilterItLogS>
-4.81

>  <VMcGowan>
401.11

>  <LabuteASA>
219.24

>  <PEOE_VSA1>
9.64

>  <PEOE_VSA2>
33.88

>  <PEOE_VSA3>
0

>  <PEOE_VSA4>
0

>  <PEOE_VSA5>
0

>  <PEOE_VSA6>
25.98

>  <PEOE_VSA7>
52.29

>  <PEOE_VSA8>
43.68

>  <PEOE_VSA9>
12.8

>  <PEOE_VSA10>
17.59

>  <PEOE_VSA11>
0

>  <PEOE_VSA12>
23.63

>  <PEOE_VSA13>
0

>  <SMR_VSA1>
23.92

>  <SMR_VSA2>
0

>  <SMR_VSA3>
14.7

>  <SMR_VSA4>
17.25

>  <SMR_VSA5>
53

>  <SMR_VSA6>
51.28

>  <SMR_VSA7>
24.27

>  <SMR_VSA8>
0

>  <SMR_VSA9>
5.75

>  <SlogP_VSA1>
9.64

>  <SlogP_VSA2>
90.25

>  <SlogP_VSA3>
19.18

>  <SlogP_VSA4>
17.25

>  <SlogP_VSA5>
47.46

>  <SlogP_VSA6>
24.27

>  <SlogP_VSA7>
0

>  <SlogP_VSA8>
0

>  <SlogP_VSA9>
0

>  <SlogP_VSA10>
5.69

>  <SlogP_VSA11>
5.75

>  <EState_VSA1>
46.42

>  <EState_VSA2>
6.54

>  <EState_VSA3>
6.42

>  <EState_VSA4>
55.48

>  <EState_VSA5>
4.9

>  <EState_VSA6>
41.73

>  <EState_VSA7>
18.2

>  <EState_VSA8>
15.87

>  <EState_VSA9>
4.74

>  <EState_VSA10>
19.18

>  <VSA_EState1>
5.5

>  <VSA_EState2>
60.41

>  <VSA_EState3>
0

>  <VSA_EState4>
-0.71

>  <VSA_EState5>
-3.08

>  <VSA_EState6>
8.04

>  <VSA_EState7>
1.45

>  <VSA_EState8>
13.37

>  <VSA_EState9>
1.69

>  <apol>
81.84

>  <bpol>
52.18

>  <nRing>
4

>  <nHRing>
3

>  <naRing>
1

>  <naHRing>
0

>  <nARing 2>
3

>  <nAHRing 2>
3

>  <nFRing>
1

>  <nFHRing>
1

>  <nFaRing>
0

>  <nFaHRing>
0

>  <nFARing 2>
1

>  <nFAHRing 2>
1

>  <nRot>
7

>  <SLogP>
2.39

>  <SMR>
139.97

>  <TopoPSA(NO)>
90.47

>  <TopoPSA>
90.47

>  <JGI1>
0.23

>  <JGI2>
0.1

>  <JGI3>
0.07

>  <JGI4>
0.04

>  <JGI5>
0.04

>  <Diameter>
18

>  <Radius>
9

>  <TMWC10>
157.98

>  <TSRW10>
74.51

>  <MW>
512.3

>  <AMW>
6.65

>  <WPath>
4914

>  <WPol>
72

>  <Zagreb1>
202

>  <Zagreb2>
246

>  <mZagreb2>
7.94

>  <yes>


>  <nAR-cont>
0.691115

>  <nHA-cont>
0.433355441

>  <MWHBN>
0.309268624

>  <MWHBN-cont>
0.812191867

>  <TPSA-cont>
0.368463222

>  <pka_cont>
0.97

>  <yes.1>


>  <BBB_SCORE>
3.564684684

>  <MMFF94 Energy>
77.478

$$$$
Compound 2065
Actelion Java MolfileCreator 2.0

  0  0  0  0  0  0              0 V3000
M  V30 BEGIN CTAB
M  V30 COUNTS 33 34 0 0 0
M  V30 BEGIN ATOM
M  V30 1 O -0.159 -2.3884 1.3529 0
M  V30 2 C -0.6222 -1.7366 0.4202 0
M  V30 3 C -0.4133 -0.2669 0.3911 0
M  V30 4 C -1.3773 -2.4355 -0.6504 0
M  V30 5 C 0.7898 0.2451 0.8946 0
M  V30 6 C -1.4003 0.6049 -0.0793 0
M  V30 7 C -1.3064 -2.0268 -1.9878 0
M  V30 8 C -2.1396 -3.5576 -0.305 0
M  V30 9 C 1.0322 1.6277 0.9025 0
M  V30 10 C -1.1682 1.9801 -0.077 0
M  V30 11 C -2.0231 -2.7194 -2.9659 0
M  V30 12 C -2.8542 -4.2464 -1.2859 0
M  V30 13 C 0.0397 2.4875 0.4057 0
M  V30 14 C 2.3436 2.1632 1.4496 0 CFG=1
M  V30 15 C -2.7989 -3.8243 -2.614 0
M  V30 16 C 3.112 2.9499 0.4039 0
M  V30 17 C 2.1301 3.013 2.7041 0
M  V30 18 O 3.0712 4.1551 0.2125 0
M  V30 19 O 3.886 2.1659 -0.3756 0
M  V30 20 H 1.5383 -0.4455 1.2816 0
M  V30 21 H -2.358 0.2319 -0.4328 0
M  V30 22 H -0.6856 -1.186 -2.286 0
M  V30 23 H -2.1762 -3.8964 0.7285 0
M  V30 24 H -1.9328 2.6615 -0.443 0
M  V30 25 H -1.9691 -2.4041 -4.0051 0
M  V30 26 H -3.448 -5.1157 -1.0142 0
M  V30 27 H 0.1964 3.5658 0.3982 0
M  V30 28 H 2.9874 1.3249 1.7489 0
M  V30 29 H -3.3526 -4.3649 -3.3779 0
M  V30 30 H 1.5284 3.9057 2.4999 0
M  V30 31 H 3.0905 3.3545 3.1062 0
M  V30 32 H 1.6204 2.4379 3.4851 0
M  V30 33 H 4.2946 2.7903 -1.0107 0
M  V30 END ATOM
M  V30 BEGIN BOND
M  V30 1 2 1 2
M  V30 2 1 2 3
M  V30 3 1 2 4
M  V30 4 2 3 5
M  V30 5 1 3 6
M  V30 6 2 4 7
M  V30 7 1 4 8
M  V30 8 1 5 9
M  V30 9 2 6 10
M  V30 10 1 7 11
M  V30 11 2 8 12
M  V30 12 2 9 13
M  V30 13 1 9 14
M  V30 14 2 11 15
M  V30 15 1 14 16
M  V30 16 1 14 17
M  V30 17 2 16 18
M  V30 18 1 16 19
M  V30 19 1 10 13
M  V30 20 1 12 15
M  V30 21 1 5 20
M  V30 22 1 6 21
M  V30 23 1 7 22
M  V30 24 1 8 23
M  V30 25 1 10 24
M  V30 26 1 11 25
M  V30 27 1 12 26
M  V30 28 1 13 27
M  V30 29 1 14 28
M  V30 30 1 15 29
M  V30 31 1 17 30
M  V30 32 1 17 31
M  V30 33 1 17 32
M  V30 34 1 19 33
M  V30 END BOND
M  V30 BEGIN COLLECTION
M  V30 MDLV30/STEABS ATOMS=(1 14)
M  V30 END COLLECTION
M  V30 END CTAB
M  END
>  <Column 1>
2544

>  <level_0>
3523

>  <index>
3523

>  <Unnamed: 0>
3523

>  <NO.>
3535

>  <Name>
ketoprofen

>  <IUPAC_name>
(2s)-2-(3-benzoylphenyl)propanoic acid

>  <SMILES>
C[C@H](C(=O)O)c1cccc(C(=O)c2ccccc2)c1

>  <CID>
667550

>  <logBB>


>  <BBB+/BBB->
BBB+

>  <Inchi>
InChI=1S/C16H14O3/c1-11(16(18)19)13-8-5-9-14(10-13)15(17)12-6-3-2-4-7-12/h2-11H-1H3-(H-18-19)/t11-/m0/s1

>  <threshold>
-1

>  <reference>
R13|R9|R27|

>  <group>
B

>  <Class>
1

>  <ABC>
14.42

>  <ABCGG>
12.4

>  <nAcid>
1

>  <nBase>
0

>  <nAromAtom>
12

>  <nAromBond>
12

>  <nAtom>
33

>  <nHeavyAtom>
19

>  <nSpiro>
0

>  <nBridgehead>
0

>  <nHetero>
3

>  <nN>
0

>  <nO>
3

>  <nF>
0

>  <BalabanJ>
1.88

>  <BertzCT>
602.4

>  <nBonds>
34

>  <nBondsO>
20

>  <nBondsS>
20

>  <nBondsD>
2

>  <nBondsT>
0

>  <nBondsA>
12

>  <nBondsM>
14

>  <nBondsKS>
26

>  <nBondsKD>
8

>  <RNCG>
0.3

>  <RPCG>
0.19

>  <FCSP3>
0.13

>  <SZ>
22.33

>  <Sm>
21.17

>  <Sv>
21.94

>  <Sse>
33.21

>  <Sp>
23.03

>  <Si>
36.54

>  <MZ>
0.68

>  <Mm>
0.64

>  <Mv>
0.66

>  <Mse>
1.01

>  <Mp>
0.7

>  <Mi>
1.11

>  <NsCH3>
1

>  <NdCH2>
0

>  <NssCH2>
0

>  <NtCH>
0

>  <NdsCH>
0

>  <NaaCH>
9

>  <NsssCH>
1

>  <NddC>
0

>  <NtsC>
0

>  <NdssC>
2

>  <NaasC>
3

>  <NaaaC>
0

>  <NssssC>
0

>  <NsNH3>
0

>  <NsNH2>
0

>  <NssNH2>
0

>  <NdNH>
0

>  <NssNH>
0

>  <NaaNH>
0

>  <NtN>
0

>  <NsssNH>
0

>  <NdsN>
0

>  <NaaN>
0

>  <NsssN>
0

>  <NddsN>
0

>  <NaasN>
0

>  <NssssN>
0

>  <NsOH>
1

>  <NdO>
2

>  <NssO>
0

>  <NaaO>
0

>  <NsF>
0

>  <NsSiH3>
0

>  <NssSiH2>
0

>  <NsssSiH>
0

>  <NssssSi>
0

>  <NsPH2>
0

>  <NssPH>
0

>  <NsssP>
0

>  <NdsssP>
0

>  <NsssssP>
0

>  <NsSH>
0

>  <NdS>
0

>  <NssS>
0

>  <NaaS>
0

>  <NdssS>
0

>  <NddssS>
0

>  <NsCl>
0

>  <NsBr>
0

>  <NsI>
0

>  <fragCpx>
58.03

>  <fMF>
0.39

>  <nHBAcc>
2

>  <nHBDon>
1

>  <Kier1>
15.39

>  <Kier2>
7.14

>  <Lipinski>
1

>  <GhoseFilter>
1

>  <FilterItLogS>
-3.31

>  <VMcGowan>
197.79

>  <LabuteASA>
111.07

>  <PEOE_VSA1>
5.11

>  <PEOE_VSA2>
9.59

>  <PEOE_VSA3>
0

>  <PEOE_VSA4>
0

>  <PEOE_VSA5>
0

>  <PEOE_VSA6>
48.53

>  <PEOE_VSA7>
18.55

>  <PEOE_VSA8>
11.13

>  <PEOE_VSA9>
5.92

>  <PEOE_VSA10>
0

>  <PEOE_VSA11>
5.78

>  <PEOE_VSA12>
0

>  <PEOE_VSA13>
0

>  <SMR_VSA1>
14.7

>  <SMR_VSA2>
0

>  <SMR_VSA3>
0

>  <SMR_VSA4>
0

>  <SMR_VSA5>
12.84

>  <SMR_VSA6>
0

>  <SMR_VSA7>
71.29

>  <SMR_VSA8>
0

>  <SMR_VSA9>
0

>  <SlogP_VSA1>
0

>  <SlogP_VSA2>
16.86

>  <SlogP_VSA3>
4.79

>  <SlogP_VSA4>
0

>  <SlogP_VSA5>
34.33

>  <SlogP_VSA6>
54.6

>  <SlogP_VSA7>
0

>  <SlogP_VSA8>
0

>  <SlogP_VSA9>
0

>  <SlogP_VSA10>
0

>  <SlogP_VSA11>
0

>  <EState_VSA1>
11.89

>  <EState_VSA2>
5.78

>  <EState_VSA3>
16.69

>  <EState_VSA4>
0

>  <EState_VSA5>
0

>  <EState_VSA6>
55.45

>  <EState_VSA7>
6.07

>  <EState_VSA8>
0

>  <EState_VSA9>
5.11

>  <EState_VSA10>
9.59

>  <VSA_EState1>
0

>  <VSA_EState2>
23.21

>  <VSA_EState3>
9

>  <VSA_EState4>
1.74

>  <VSA_EState5>
-1.62

>  <VSA_EState6>
15.73

>  <VSA_EState7>
0

>  <VSA_EState8>
1.61

>  <VSA_EState9>
0

>  <apol>
38.46

>  <bpol>
15.78

>  <nRing>
2

>  <nHRing>
0

>  <naRing>
2

>  <naHRing>
0

>  <nARing 2>
0

>  <nAHRing 2>
0

>  <nFRing>
0

>  <nFHRing>
0

>  <nFaRing>
0

>  <nFaHRing>
0

>  <nFARing 2>
0

>  <nFAHRing 2>
0

>  <nRot>
4

>  <SLogP>
3.11

>  <SMR>
72.37

>  <TopoPSA(NO)>
54.37

>  <TopoPSA>
54.37

>  <JGI1>
0.18

>  <JGI2>
0.09

>  <JGI3>
0.05

>  <JGI4>
0.03

>  <JGI5>
0.02

>  <Diameter>
10

>  <Radius>
5

>  <TMWC10>
110.42

>  <TSRW10>
51.99

>  <MW>
254.09

>  <AMW>
7.7

>  <WPath>
724

>  <WPol>
28

>  <Zagreb1>
94

>  <Zagreb2>
108

>  <mZagreb2>
4.28

>  <yes>


>  <nAR-cont>
0.336376

>  <nHA-cont>
0.998649058

>  <MWHBN>
0.188203401

>  <MWHBN-cont>
0.994455877

>  <TPSA-cont>
0.620463638

>  <pka_cont>
0.97

>  <yes.1>


>  <BBB_SCORE>
4.55263615

>  <MMFF94 Energy>
71.436

$$$$
Compound 2066
Actelion Java MolfileCreator 2.0

  0  0  0  0  0  0              0 V3000
M  V30 BEGIN CTAB
M  V30 COUNTS 24 24 0 0 0
M  V30 BEGIN ATOM
M  V30 1 O 1.5494 4.0323 0.7744 0
M  V30 2 C 0.9178 2.8676 0.4527 0
M  V30 3 C -0.077 2.3342 1.2648 0
M  V30 4 C 1.3004 2.2258 -0.718 0
M  V30 5 C -0.6966 1.138 0.896 0
M  V30 6 C 0.6814 1.0305 -1.0866 0
M  V30 7 C -0.3228 0.4741 -0.2819 0
M  V30 8 C -0.9902 -0.823 -0.6754 0
M  V30 9 C -0.5815 -2.0267 0.2005 0 CFG=1
M  V30 10 N -1.4022 -3.2019 -0.1251 0
M  V30 11 C 0.8886 -2.4051 0.0181 0
M  V30 12 H 1.1838 4.36 1.6122 0
M  V30 13 H -0.3825 2.8296 2.1807 0
M  V30 14 H 2.0791 2.6541 -1.3424 0
M  V30 15 H -1.4755 0.7257 1.5339 0
M  V30 16 H 0.9922 0.5369 -2.0043 0
M  V30 17 H -2.0762 -0.6685 -0.612 0
M  V30 18 H -0.7856 -1.0411 -1.7321 0
M  V30 19 H -0.7487 -1.7909 1.258 0
M  V30 20 H -2.39 -2.969 -0.0303 0
M  V30 21 H -1.263 -3.4611 -1.1013 0
M  V30 22 H 1.1203 -2.6262 -1.0297 0
M  V30 23 H 1.5487 -1.5963 0.3475 0
M  V30 24 H 1.1415 -3.29 0.6132 0
M  V30 END ATOM
M  V30 BEGIN BOND
M  V30 1 1 1 2
M  V30 2 2 2 3
M  V30 3 1 2 4
M  V30 4 1 3 5
M  V30 5 2 4 6
M  V30 6 2 5 7
M  V30 7 1 7 8
M  V30 8 1 8 9
M  V30 9 1 9 10
M  V30 10 1 9 11
M  V30 11 1 6 7
M  V30 12 1 1 12
M  V30 13 1 3 13
M  V30 14 1 4 14
M  V30 15 1 5 15
M  V30 16 1 6 16
M  V30 17 1 8 17
M  V30 18 1 8 18
M  V30 19 1 9 19
M  V30 20 1 10 20
M  V30 21 1 10 21
M  V30 22 1 11 22
M  V30 23 1 11 23
M  V30 24 1 11 24
M  V30 END BOND
M  V30 BEGIN COLLECTION
M  V30 MDLV30/STEABS ATOMS=(1 9)
M  V30 END COLLECTION
M  V30 END CTAB
M  END
>  <Column 1>
2545

>  <level_0>
3527

>  <index>
3527

>  <Unnamed: 0>
3527

>  <NO.>
3539

>  <Name>
4-hydroxy-dextroamphetamine

>  <IUPAC_name>
4-[(2s)-2-aminopropyl]phenol

>  <SMILES>
C[C@H](N)Cc1ccc(O)cc1

>  <CID>
644000

>  <logBB>


>  <BBB+/BBB->
BBB-

>  <Inchi>
InChI=1S/C9H13NO/c1-7(10)6-8-2-4-9(11)5-3-8/h2-5-7-11H-6-10H2-1H3/t7-/m0/s1

>  <threshold>
-1

>  <reference>
R13|R27|R30|

>  <group>
B

>  <Class>
-1

>  <ABC>
8.11

>  <ABCGG>
7.43

>  <nAcid>
0

>  <nBase>
1

>  <nAromAtom>
6

>  <nAromBond>
6

>  <nAtom>
24

>  <nHeavyAtom>
11

>  <nSpiro>
0

>  <nBridgehead>
0

>  <nHetero>
2

>  <nN>
1

>  <nO>
1

>  <nF>
0

>  <BalabanJ>
2.17

>  <BertzCT>
215.51

>  <nBonds>
24

>  <nBondsO>
11

>  <nBondsS>
18

>  <nBondsD>
0

>  <nBondsT>
0

>  <nBondsA>
6

>  <nBondsM>
6

>  <nBondsKS>
21

>  <nBondsKD>
3

>  <RNCG>
0.46

>  <RPCG>
0.27

>  <FCSP3>
0.33

>  <SZ>
13.67

>  <Sm>
12.59

>  <Sv>
13.99

>  <Sse>
23.76

>  <Sp>
15.33

>  <Si>
27.2

>  <MZ>
0.57

>  <Mm>
0.52

>  <Mv>
0.58

>  <Mse>
0.99

>  <Mp>
0.64

>  <Mi>
1.13

>  <NsCH3>
1

>  <NdCH2>
0

>  <NssCH2>
1

>  <NtCH>
0

>  <NdsCH>
0

>  <NaaCH>
4

>  <NsssCH>
1

>  <NddC>
0

>  <NtsC>
0

>  <NdssC>
0

>  <NaasC>
2

>  <NaaaC>
0

>  <NssssC>
0

>  <NsNH3>
0

>  <NsNH2>
1

>  <NssNH2>
0

>  <NdNH>
0

>  <NssNH>
0

>  <NaaNH>
0

>  <NtN>
0

>  <NsssNH>
0

>  <NdsN>
0

>  <NaaN>
0

>  <NsssN>
0

>  <NddsN>
0

>  <NaasN>
0

>  <NssssN>
0

>  <NsOH>
1

>  <NdO>
0

>  <NssO>
0

>  <NaaO>
0

>  <NsF>
0

>  <NsSiH3>
0

>  <NssSiH2>
0

>  <NsssSiH>
0

>  <NssssSi>
0

>  <NsPH2>
0

>  <NssPH>
0

>  <NsssP>
0

>  <NdsssP>
0

>  <NsssssP>
0

>  <NsSH>
0

>  <NdS>
0

>  <NssS>
0

>  <NaaS>
0

>  <NdssS>
0

>  <NddssS>
0

>  <NsCl>
0

>  <NsBr>
0

>  <NsI>
0

>  <fragCpx>
11.02

>  <fMF>
0.25

>  <nHBAcc>
2

>  <nHBDon>
2

>  <Kier1>
9.09

>  <Kier2>
4.13

>  <Lipinski>
1

>  <GhoseFilter>
0

>  <FilterItLogS>
-1.68

>  <VMcGowan>
129.76

>  <LabuteASA>
66.66

>  <PEOE_VSA1>
10.84

>  <PEOE_VSA2>
0

>  <PEOE_VSA3>
0

>  <PEOE_VSA4>
0

>  <PEOE_VSA5>
0

>  <PEOE_VSA6>
12.13

>  <PEOE_VSA7>
31.04

>  <PEOE_VSA8>
6.04

>  <PEOE_VSA9>
0

>  <PEOE_VSA10>
5.75

>  <PEOE_VSA11>
0

>  <PEOE_VSA12>
0

>  <PEOE_VSA13>
0

>  <SMR_VSA1>
5.11

>  <SMR_VSA2>
0

>  <SMR_VSA3>
0

>  <SMR_VSA4>
5.73

>  <SMR_VSA5>
19.39

>  <SMR_VSA6>
0

>  <SMR_VSA7>
29.83

>  <SMR_VSA8>
0

>  <SMR_VSA9>
5.75

>  <SlogP_VSA1>
5.73

>  <SlogP_VSA2>
11.15

>  <SlogP_VSA3>
6.42

>  <SlogP_VSA4>
0

>  <SlogP_VSA5>
12.49

>  <SlogP_VSA6>
24.27

>  <SlogP_VSA7>
0

>  <SlogP_VSA8>
0

>  <SlogP_VSA9>
0

>  <SlogP_VSA10>
0

>  <SlogP_VSA11>
5.75

>  <EState_VSA1>
0

>  <EState_VSA2>
6.04

>  <EState_VSA3>
5.75

>  <EState_VSA4>
11.98

>  <EState_VSA5>
0

>  <EState_VSA6>
12.13

>  <EState_VSA7>
19.06

>  <EState_VSA8>
0

>  <EState_VSA9>
10.84

>  <EState_VSA10>
0

>  <VSA_EState1>
0

>  <VSA_EState2>
0

>  <VSA_EState3>
8.96

>  <VSA_EState4>
6.76

>  <VSA_EState5>
0.3

>  <VSA_EState6>
7.31

>  <VSA_EState7>
0.86

>  <VSA_EState8>
1.97

>  <VSA_EState9>
0

>  <apol>
25.6

>  <bpol>
12.47

>  <nRing>
1

>  <nHRing>
0

>  <naRing>
1

>  <naHRing>
0

>  <nARing 2>
0

>  <nAHRing 2>
0

>  <nFRing>
0

>  <nFHRing>
0

>  <nFaRing>
0

>  <nFaHRing>
0

>  <nFARing 2>
0

>  <nFAHRing 2>
0

>  <nRot>
2

>  <SLogP>
1.28

>  <SMR>
45.46

>  <TopoPSA(NO)>
46.25

>  <TopoPSA>
46.25

>  <JGI1>
0.27

>  <JGI2>
0.06

>  <JGI3>
0.05

>  <JGI4>
0.06

>  <JGI5>
0.03

>  <Diameter>
7

>  <Radius>
4

>  <TMWC10>
85.58

>  <TSRW10>
40.34

>  <MW>
151.1

>  <AMW>
6.3

>  <WPath>
166

>  <WPol>
11

>  <Zagreb1>
50

>  <Zagreb2>
53

>  <mZagreb2>
2.5

>  <yes>


>  <nAR-cont>
0.336376

>  <nHA-cont>
0.720786536

>  <MWHBN>
0.32540765

>  <MWHBN-cont>
0.758791138

>  <TPSA-cont>
0.67714628

>  <pka_cont>
0.97

>  <yes.1>


>  <BBB_SCORE>
4.034641804

>  <MMFF94 Energy>
18.336

$$$$
Compound 2067
Actelion Java MolfileCreator 2.0

  0  0  0  0  0  0              0 V3000
M  V30 BEGIN CTAB
M  V30 COUNTS 23 24 0 0 0
M  V30 BEGIN ATOM
M  V30 1 S 2.6525 -0.0828 -0.5797 0
M  V30 2 C 2.3171 1.6134 -0.7419 0
M  V30 3 C 0.87 -0.4819 -0.8153 0 CFG=2
M  V30 4 F 3.3047 2.5231 -0.8002 0
M  V30 5 C 1.012 1.9066 -0.759 0
M  V30 6 N 0.1786 0.8118 -0.6956 0
M  V30 7 C 0.0874 -0.9448 0.4325 0
M  V30 8 C 0.4437 3.2636 -0.8121 0
M  V30 9 C -0.5242 0.474 0.4214 0
M  V30 10 C -0.9136 -2.0634 0.1992 0 CFG=1
M  V30 11 O -0.6868 3.5412 -1.1742 0
M  V30 12 O 1.2925 4.2225 -0.4089 0
M  V30 13 O -1.2325 1.1161 1.1601 0
M  V30 14 O -0.1856 -3.2327 -0.1694 0
M  V30 15 C -1.7101 -2.3485 1.4646 0
M  V30 16 H 0.6369 -0.9894 -1.7572 0
M  V30 17 H 0.7128 -1.1193 1.3181 0
M  V30 18 H -1.5947 -1.8222 -0.6247 0
M  V30 19 H 0.7671 5.0475 -0.4754 0
M  V30 20 H -0.8145 -3.9758 -0.2158 0
M  V30 21 H -2.4051 -3.1792 1.3025 0
M  V30 22 H -2.2834 -1.4737 1.7852 0
M  V30 23 H -1.0485 -2.6458 2.286 0
M  V30 END ATOM
M  V30 BEGIN BOND
M  V30 1 1 1 2
M  V30 2 1 1 3
M  V30 3 1 2 4
M  V30 4 2 2 5
M  V30 5 1 3 6
M  V30 6 1 3 7
M  V30 7 1 5 8
M  V30 8 1 6 9
M  V30 9 1 7 10
M  V30 10 2 8 11
M  V30 11 1 8 12
M  V30 12 2 9 13
M  V30 13 1 10 14
M  V30 14 1 10 15
M  V30 15 1 5 6
M  V30 16 1 7 9
M  V30 17 1 3 16
M  V30 18 1 7 17
M  V30 19 1 10 18
M  V30 20 1 12 19
M  V30 21 1 14 20
M  V30 22 1 15 21
M  V30 23 1 15 22
M  V30 24 1 15 23
M  V30 END BOND
M  V30 BEGIN COLLECTION
M  V30 MDLV30/STEABS ATOMS=(2 3 10)
M  V30 END COLLECTION
M  V30 END CTAB
M  END
>  <Column 1>
2546

>  <level_0>
3534

>  <index>
3534

>  <Unnamed: 0>
3534

>  <NO.>
3546

>  <Name>


>  <IUPAC_name>


>  <SMILES>
C[C@H](O)C1C(=O)N2C(C(=O)O)=C(F)S[C@@H]12

>  <CID>


>  <logBB>


>  <BBB+/BBB->
BBB-

>  <Inchi>
InChI=1S/C8H8FNO4S/c1-2(11)3-6(12)10-4(8(13)14)5(9)15-7(3)10/h2-3-7-11H-1H3-(H-13-14)/t2--3?-7-/m0/s1

>  <threshold>
-1

>  <reference>
R13|

>  <group>
B

>  <Class>
-1

>  <ABC>
11.65

>  <ABCGG>
11.25

>  <nAcid>
1

>  <nBase>
0

>  <nAromAtom>
0

>  <nAromBond>
0

>  <nAtom>
23

>  <nHeavyAtom>
15

>  <nSpiro>
0

>  <nBridgehead>
0

>  <nHetero>
7

>  <nN>
1

>  <nO>
4

>  <nF>
1

>  <BalabanJ>
2.12

>  <BertzCT>
380.84

>  <nBonds>
24

>  <nBondsO>
16

>  <nBondsS>
21

>  <nBondsD>
3

>  <nBondsT>
0

>  <nBondsA>
0

>  <nBondsM>
3

>  <nBondsKS>
21

>  <nBondsKD>
3

>  <RNCG>
0.24

>  <RPCG>
0.18

>  <FCSP3>
0.5

>  <SZ>
20

>  <Sm>
19.42

>  <Sv>
15.62

>  <Sse>
24.57

>  <Sp>
15.84

>  <Si>
26.26

>  <MZ>
0.87

>  <Mm>
0.84

>  <Mv>
0.68

>  <Mse>
1.07

>  <Mp>
0.69

>  <Mi>
1.14

>  <NsCH3>
1

>  <NdCH2>
0

>  <NssCH2>
0

>  <NtCH>
0

>  <NdsCH>
0

>  <NaaCH>
0

>  <NsssCH>
3

>  <NddC>
0

>  <NtsC>
0

>  <NdssC>
4

>  <NaasC>
0

>  <NaaaC>
0

>  <NssssC>
0

>  <NsNH3>
0

>  <NsNH2>
0

>  <NssNH2>
0

>  <NdNH>
0

>  <NssNH>
0

>  <NaaNH>
0

>  <NtN>
0

>  <NsssNH>
0

>  <NdsN>
0

>  <NaaN>
0

>  <NsssN>
1

>  <NddsN>
0

>  <NaasN>
0

>  <NssssN>
0

>  <NsOH>
2

>  <NdO>
2

>  <NssO>
0

>  <NaaO>
0

>  <NsF>
1

>  <NsSiH3>
0

>  <NssSiH2>
0

>  <NsssSiH>
0

>  <NssssSi>
0

>  <NsPH2>
0

>  <NssPH>
0

>  <NsssP>
0

>  <NdsssP>
0

>  <NsssssP>
0

>  <NsSH>
0

>  <NdS>
0

>  <NssS>
1

>  <NaaS>
0

>  <NdssS>
0

>  <NddssS>
0

>  <NsCl>
0

>  <NsBr>
0

>  <NsI>
0

>  <fragCpx>
46.07

>  <fMF>
0.3

>  <nHBAcc>
4

>  <nHBDon>
2

>  <Kier1>
11.48

>  <Kier2>
3.79

>  <Lipinski>
1

>  <GhoseFilter>
1

>  <FilterItLogS>
0.37

>  <VMcGowan>
140.53

>  <LabuteASA>
88.55

>  <PEOE_VSA1>
10.21

>  <PEOE_VSA2>
9.69

>  <PEOE_VSA3>
4.79

>  <PEOE_VSA4>
4.39

>  <PEOE_VSA5>
0

>  <PEOE_VSA6>
11.76

>  <PEOE_VSA7>
6.92

>  <PEOE_VSA8>
0

>  <PEOE_VSA9>
12.02

>  <PEOE_VSA10>
5.37

>  <PEOE_VSA11>
10.86

>  <PEOE_VSA12>
5.91

>  <PEOE_VSA13>
0

>  <SMR_VSA1>
24.19

>  <SMR_VSA2>
0

>  <SMR_VSA3>
4.9

>  <SMR_VSA4>
5.92

>  <SMR_VSA5>
18.4

>  <SMR_VSA6>
0

>  <SMR_VSA7>
10.86

>  <SMR_VSA8>
0

>  <SMR_VSA9>
0

>  <SlogP_VSA1>
0

>  <SlogP_VSA2>
38.47

>  <SlogP_VSA3>
9.59

>  <SlogP_VSA4>
5.92

>  <SlogP_VSA5>
6.92

>  <SlogP_VSA6>
10.86

>  <SlogP_VSA7>
0

>  <SlogP_VSA8>
0

>  <SlogP_VSA9>
0

>  <SlogP_VSA10>
4.39

>  <SlogP_VSA11>
0

>  <EState_VSA1>
40.13

>  <EState_VSA2>
0

>  <EState_VSA3>
11.76

>  <EState_VSA4>
4.9

>  <EState_VSA5>
6.92

>  <EState_VSA6>
0

>  <EState_VSA7>
0

>  <EState_VSA8>
0

>  <EState_VSA9>
5.11

>  <EState_VSA10>
19.09

>  <VSA_EState1>
13.18

>  <VSA_EState2>
22.98

>  <VSA_EState3>
16.45

>  <VSA_EState4>
-0.6

>  <VSA_EState5>
-2.7

>  <VSA_EState6>
0

>  <VSA_EState7>
-0.9

>  <VSA_EState8>
1.43

>  <VSA_EState9>
0

>  <apol>
26.46

>  <bpol>
15.04

>  <nRing>
2

>  <nHRing>
2

>  <naRing>
0

>  <naHRing>
0

>  <nARing 2>
2

>  <nAHRing 2>
2

>  <nFRing>
1

>  <nFHRing>
1

>  <nFaRing>
0

>  <nFaHRing>
0

>  <nFARing 2>
1

>  <nFAHRing 2>
1

>  <nRot>
2

>  <SLogP>
0.12

>  <SMR>
49.17

>  <TopoPSA(NO)>
77.84

>  <TopoPSA>
103.14

>  <JGI1>
0.22

>  <JGI2>
0.09

>  <JGI3>
0.12

>  <JGI4>
0.07

>  <JGI5>
0.05

>  <Diameter>
7

>  <Radius>
4

>  <TMWC10>
104.63

>  <TSRW10>
63.18

>  <MW>
233.02

>  <AMW>
10.13

>  <WPath>
338

>  <WPol>
23

>  <Zagreb1>
82

>  <Zagreb2>
102

>  <mZagreb2>
3.22

>  <yes>


>  <nAR-cont>
1

>  <nHA-cont>
0.92539861

>  <MWHBN>
0.3930562

>  <MWHBN-cont>
0.503417097

>  <TPSA-cont>
0.280018754

>  <pka_cont>
0.97

>  <yes.1>


>  <BBB_SCORE>
3.725561763

>  <MMFF94 Energy>
-12.4

$$$$
Compound 2068
Actelion Java MolfileCreator 2.0

  0  0  0  0  0  0              0 V3000
M  V30 BEGIN CTAB
M  V30 COUNTS 55 58 0 0 0
M  V30 BEGIN ATOM
M  V30 1 O -2.0109 -5.3156 2.2525 0
M  V30 2 C -1.7639 -4.3646 1.5151 0
M  V30 3 C -2.1367 -2.9944 1.9394 0
M  V30 4 C -1.1734 -4.5396 0.1444 0
M  V30 5 C -1.8337 -1.9037 1.2081 0
M  V30 6 C -0.2632 -3.3658 -0.1726 0
M  V30 7 C -0.9683 -1.9785 -0.0721 0
M  V30 8 C -2.3656 -0.5119 1.5547 0 CFG=2
M  V30 9 C 0.1616 -0.8729 -0.003 0 CFG=1
M  V30 10 C -1.9221 -1.8213 -1.279 0
M  V30 11 C -1.2171 0.4996 1.6316 0
M  V30 12 C -3.2073 -0.4094 2.8354 0
M  V30 13 C 1.1516 -0.8488 -1.2083 0 CFG=1
M  V30 14 C -0.3968 0.5438 0.3334 0 CFG=1
M  V30 15 O 0.4544 -0.7072 -2.4379 0
M  V30 16 C 2.2261 0.2553 -1.1006 0
M  V30 17 C 0.782 1.5172 0.4778 0 CFG=1
M  V30 18 C 1.6352 1.646 -0.801 0
M  V30 19 C 0.5044 2.9641 0.8668 0
M  V30 20 C 2.665 2.6983 -0.3128 0 CFG=2
M  V30 21 C 0.8555 2.1953 -2.0232 0
M  V30 22 C 1.8132 3.6924 0.5169 0
M  V30 23 C 3.4674 3.3804 -1.3981 0
M  V30 24 O 3.5084 4.572 -1.651 0
M  V30 25 O 4.2309 2.516 -2.095 0
M  V30 26 H -2.7283 -2.9652 2.8468 0
M  V30 27 H -1.9852 -4.6382 -0.5829 0
M  V30 28 H -0.5875 -5.4651 0.132 0
M  V30 29 H 0.5839 -3.3971 0.527 0
M  V30 30 H 0.1579 -3.5132 -1.1744 0
M  V30 31 H -3.0303 -0.2073 0.7349 0
M  V30 32 H 0.789 -1.1443 0.8629 0
M  V30 33 H -2.8319 -2.421 -1.1521 0
M  V30 34 H -1.4619 -2.1606 -2.2121 0
M  V30 35 H -2.2422 -0.7851 -1.4245 0
M  V30 36 H -1.6316 1.4958 1.8306 0
M  V30 37 H -0.5631 0.2561 2.48 0
M  V30 38 H -2.6284 -0.688 3.7229 0
M  V30 39 H -3.564 0.6165 2.981 0
M  V30 40 H -4.0929 -1.0518 2.7803 0
M  V30 41 H 1.6772 -1.8089 -1.2575 0
M  V30 42 H -1.0592 0.8839 -0.4692 0
M  V30 43 H 1.1101 -0.7258 -3.1567 0
M  V30 44 H 2.9233 -0.024 -0.2999 0
M  V30 45 H 2.8092 0.2906 -2.0283 0
M  V30 46 H 1.4237 1.1103 1.2782 0
M  V30 47 H 0.2663 3.0699 1.9301 0
M  V30 48 H -0.3329 3.3801 0.2954 0
M  V30 49 H 3.3915 2.2353 0.3699 0
M  V30 50 H 1.4681 2.1397 -2.9303 0
M  V30 51 H -0.0674 1.648 -2.2243 0
M  V30 52 H 0.5684 3.2447 -1.8978 0
M  V30 53 H 2.3532 3.9704 1.4296 0
M  V30 54 H 1.5904 4.6222 -0.0176 0
M  V30 55 H 4.7072 3.0899 -2.732 0
M  V30 END ATOM
M  V30 BEGIN BOND
M  V30 1 2 1 2
M  V30 2 1 2 3
M  V30 3 1 2 4
M  V30 4 2 3 5
M  V30 5 1 4 6
M  V30 6 1 5 7
M  V30 7 1 5 8
M  V30 8 1 7 9
M  V30 9 1 7 10
M  V30 10 1 8 11
M  V30 11 1 8 12
M  V30 12 1 9 13
M  V30 13 1 9 14
M  V30 14 1 13 15
M  V30 15 1 13 16
M  V30 16 1 14 17
M  V30 17 1 16 18
M  V30 18 1 17 19
M  V30 19 1 18 20
M  V30 20 1 18 21
M  V30 21 1 19 22
M  V30 22 1 20 23
M  V30 23 2 23 24
M  V30 24 1 23 25
M  V30 25 1 6 7
M  V30 26 1 11 14
M  V30 27 1 17 18
M  V30 28 1 20 22
M  V30 29 1 3 26
M  V30 30 1 4 27
M  V30 31 1 4 28
M  V30 32 1 6 29
M  V30 33 1 6 30
M  V30 34 1 8 31
M  V30 35 1 9 32
M  V30 36 1 10 33
M  V30 37 1 10 34
M  V30 38 1 10 35
M  V30 39 1 11 36
M  V30 40 1 11 37
M  V30 41 1 12 38
M  V30 42 1 12 39
M  V30 43 1 12 40
M  V30 44 1 13 41
M  V30 45 1 14 42
M  V30 46 1 15 43
M  V30 47 1 16 44
M  V30 48 1 16 45
M  V30 49 1 17 46
M  V30 50 1 19 47
M  V30 51 1 19 48
M  V30 52 1 20 49
M  V30 53 1 21 50
M  V30 54 1 21 51
M  V30 55 1 21 52
M  V30 56 1 22 53
M  V30 57 1 22 54
M  V30 58 1 25 55
M  V30 END BOND
M  V30 BEGIN COLLECTION
M  V30 MDLV30/STEABS ATOMS=(6 8 9 13 14 17 20)
M  V30 END COLLECTION
M  V30 END CTAB
M  END
>  <Column 1>
2548

>  <level_0>
3551

>  <index>
3551

>  <Unnamed: 0>
3551

>  <NO.>
3563

>  <Name>


>  <IUPAC_name>


>  <SMILES>
C[C@H]1C[C@@H]2[C@H]([C@@H](O)CC3(C)[C@@H](C(=O)O)CC[C@@H]23)C2(C)CCC(=O)C=C12

>  <CID>


>  <logBB>


>  <BBB+/BBB->
BBB+

>  <Inchi>
InChI=1S/C21H30O4/c1-11-8-13-14-4-5-15(19(24)25)21(14-3)10-17(23)18(13)20(2)7-6-12(22)9-16(11)20/h9-11-13-15-17-18-23H-4-8-10H2-1-3H3-(H-24-25)/t11--13--14--15+-17--18+-20?-21?/m0/s1

>  <threshold>
-1

>  <reference>
R13|

>  <group>
B

>  <Class>
1

>  <ABC>
20.22

>  <ABCGG>
16.73

>  <nAcid>
1

>  <nBase>
0

>  <nAromAtom>
0

>  <nAromBond>
0

>  <nAtom>
55

>  <nHeavyAtom>
25

>  <nSpiro>
0

>  <nBridgehead>
0

>  <nHetero>
4

>  <nN>
0

>  <nO>
4

>  <nF>
0

>  <BalabanJ>
1.69

>  <BertzCT>
652.28

>  <nBonds>
58

>  <nBondsO>
28

>  <nBondsS>
55

>  <nBondsD>
3

>  <nBondsT>
0

>  <nBondsA>
0

>  <nBondsM>
3

>  <nBondsKS>
55

>  <nBondsKD>
3

>  <RNCG>
0.24

>  <RPCG>
0.16

>  <FCSP3>
0.81

>  <SZ>
31.33

>  <Sm>
28.85

>  <Sv>
31.99

>  <Sse>
54.64

>  <Sp>
34.9

>  <Si>
62.07

>  <MZ>
0.57

>  <Mm>
0.52

>  <Mv>
0.58

>  <Mse>
0.99

>  <Mp>
0.63

>  <Mi>
1.13

>  <NsCH3>
3

>  <NdCH2>
0

>  <NssCH2>
6

>  <NtCH>
0

>  <NdsCH>
1

>  <NaaCH>
0

>  <NsssCH>
6

>  <NddC>
0

>  <NtsC>
0

>  <NdssC>
3

>  <NaasC>
0

>  <NaaaC>
0

>  <NssssC>
2

>  <NsNH3>
0

>  <NsNH2>
0

>  <NssNH2>
0

>  <NdNH>
0

>  <NssNH>
0

>  <NaaNH>
0

>  <NtN>
0

>  <NsssNH>
0

>  <NdsN>
0

>  <NaaN>
0

>  <NsssN>
0

>  <NddsN>
0

>  <NaasN>
0

>  <NssssN>
0

>  <NsOH>
2

>  <NdO>
2

>  <NssO>
0

>  <NaaO>
0

>  <NsF>
0

>  <NsSiH3>
0

>  <NssSiH2>
0

>  <NsssSiH>
0

>  <NssssSi>
0

>  <NsPH2>
0

>  <NssPH>
0

>  <NsssP>
0

>  <NdsssP>
0

>  <NsssssP>
0

>  <NsSH>
0

>  <NdS>
0

>  <NssS>
0

>  <NaaS>
0

>  <NdssS>
0

>  <NddssS>
0

>  <NsCl>
0

>  <NsBr>
0

>  <NsI>
0

>  <fragCpx>
184.04

>  <fMF>
0.31

>  <nHBAcc>
3

>  <nHBDon>
2

>  <Kier1>
18.37

>  <Kier2>
6

>  <Lipinski>
1

>  <GhoseFilter>
1

>  <FilterItLogS>
-2.75

>  <VMcGowan>
273.89

>  <LabuteASA>
149.24

>  <PEOE_VSA1>
10.21

>  <PEOE_VSA2>
9.59

>  <PEOE_VSA3>
0

>  <PEOE_VSA4>
0

>  <PEOE_VSA5>
0

>  <PEOE_VSA6>
26.34

>  <PEOE_VSA7>
72.68

>  <PEOE_VSA8>
6.42

>  <PEOE_VSA9>
12.02

>  <PEOE_VSA10>
0

>  <PEOE_VSA11>
5.78

>  <PEOE_VSA12>
0

>  <PEOE_VSA13>
0

>  <SMR_VSA1>
19.8

>  <SMR_VSA2>
0

>  <SMR_VSA3>
0

>  <SMR_VSA4>
40.42

>  <SMR_VSA5>
65.4

>  <SMR_VSA6>
0

>  <SMR_VSA7>
11.65

>  <SMR_VSA8>
0

>  <SMR_VSA9>
0

>  <SlogP_VSA1>
0

>  <SlogP_VSA2>
28.07

>  <SlogP_VSA3>
9.59

>  <SlogP_VSA4>
40.42

>  <SlogP_VSA5>
59.3

>  <SlogP_VSA6>
11.65

>  <SlogP_VSA7>
0

>  <SlogP_VSA8>
0

>  <SlogP_VSA9>
0

>  <SlogP_VSA10>
0

>  <SlogP_VSA11>
0

>  <EState_VSA1>
12.07

>  <EState_VSA2>
28.45

>  <EState_VSA3>
30.6

>  <EState_VSA4>
25.68

>  <EState_VSA5>
5.57

>  <EState_VSA6>
0

>  <EState_VSA7>
6.08

>  <EState_VSA8>
20.77

>  <EState_VSA9>
0

>  <EState_VSA10>
19.8

>  <VSA_EState1>
0

>  <VSA_EState2>
23.79

>  <VSA_EState3>
20.86

>  <VSA_EState4>
0.83

>  <VSA_EState5>
0.43

>  <VSA_EState6>
0

>  <VSA_EState7>
6.04

>  <VSA_EState8>
6.56

>  <VSA_EState9>
0

>  <apol>
58.28

>  <bpol>
31.83

>  <nRing>
4

>  <nHRing>
0

>  <naRing>
0

>  <naHRing>
0

>  <nARing 2>
4

>  <nAHRing 2>
0

>  <nFRing>
1

>  <nFHRing>
0

>  <nFaRing>
0

>  <nFaHRing>
0

>  <nFARing 2>
1

>  <nFAHRing 2>
0

>  <nRot>
1

>  <SLogP>
3.44

>  <SMR>
93.77

>  <TopoPSA(NO)>
74.6

>  <TopoPSA>
74.6

>  <JGI1>
0.29

>  <JGI2>
0.12

>  <JGI3>
0.08

>  <JGI4>
0.06

>  <JGI5>
0.04

>  <Diameter>
11

>  <Radius>
6

>  <TMWC10>
132.59

>  <TSRW10>
75.59

>  <MW>
346.21

>  <AMW>
6.29

>  <WPath>
1261

>  <WPol>
54

>  <Zagreb1>
148

>  <Zagreb2>
188

>  <mZagreb2>
5.14

>  <yes>


>  <nAR-cont>
0.199399

>  <nHA-cont>
0.921834225

>  <MWHBN>
0.26872013

>  <MWHBN-cont>
0.922994974

>  <TPSA-cont>
0.479245676

>  <pka_cont>
0.97

>  <yes.1>


>  <BBB_SCORE>
3.949217039

>  <MMFF94 Energy>
57.658

$$$$
Compound 2069
Actelion Java MolfileCreator 2.0

  0  0  0  0  0  0              0 V3000
M  V30 BEGIN CTAB
M  V30 COUNTS 57 60 0 0 0
M  V30 BEGIN ATOM
M  V30 1 O -5.4859 1.7723 -2.3368 0
M  V30 2 C -4.5743 1.3503 -1.6369 0
M  V30 3 C -3.8471 0.1129 -1.9826 0
M  V30 4 C -4.1546 2.0612 -0.4191 0
M  V30 5 C -2.8325 -0.3658 -1.2369 0
M  V30 6 C -3.1503 1.5962 0.3335 0
M  V30 7 C -2.3427 0.3295 0.0506 0
M  V30 8 C -2.0441 -1.612 -1.6181 0 CFG=2
M  V30 9 C -0.8204 0.7054 -0.1492 0 CFG=1
M  V30 10 C -2.6072 -0.6084 1.2507 0
M  V30 11 C -0.5845 -1.2046 -1.8417 0
M  V30 12 C -2.5498 -2.3862 -2.8431 0
M  V30 13 C -0.154 1.3579 1.0828 0 CFG=1
M  V30 14 C 0.0422 -0.498 -0.6176 0 CFG=1
M  V30 15 O -0.0726 0.4438 2.1582 0
M  V30 16 C 1.2483 1.8725 0.765 0
M  V30 17 C 1.4898 -0.0646 -0.9725 0 CFG=1
M  V30 18 C 2.1973 0.916 0.0029 0
M  V30 19 C 2.4385 -1.2829 -1.09 0
M  V30 20 C 3.1094 -0.0106 0.8781 0
M  V30 21 C 3.1054 1.8597 -0.8599 0
M  V30 22 C 3.6119 -1.0427 -0.1433 0
M  V30 23 O 4.2556 0.6847 1.3753 0
M  V30 24 C 2.4447 -0.7713 2.0547 0
M  V30 25 O 1.8453 -1.8437 1.9189 0
M  V30 26 C 2.5981 -0.172 3.4517 0
M  V30 27 O 1.6087 -0.648 4.354 0
M  V30 28 H -4.1944 -0.3574 -2.8942 0
M  V30 29 H -4.7092 2.9564 -0.1665 0
M  V30 30 H -2.9175 2.147 1.2417 0
M  V30 31 H -2.0894 -2.3192 -0.7811 0
M  V30 32 H -0.7886 1.4543 -0.9575 0
M  V30 33 H -1.923 -1.4616 1.2772 0
M  V30 34 H -3.6274 -1.0127 1.2193 0
M  V30 35 H -2.5119 -0.088 2.2107 0
M  V30 36 H 0.0 -2.0989 -2.0889 0
M  V30 37 H -0.522 -0.5434 -2.7174 0
M  V30 38 H -1.9464 -3.287 -3.0018 0
M  V30 39 H -2.4912 -1.7859 -3.7576 0
M  V30 40 H -3.5871 -2.7098 -2.7047 0
M  V30 41 H -0.7466 2.2117 1.4258 0
M  V30 42 H 0.0809 -1.2326 0.1941 0
M  V30 43 H -0.0543 0.933 3.0013 0
M  V30 44 H 1.7371 2.2149 1.6844 0
M  V30 45 H 1.0968 2.7774 0.1597 0
M  V30 46 H 1.435 0.413 -1.9611 0
M  V30 47 H 2.7969 -1.4014 -2.1186 0
M  V30 48 H 1.9375 -2.2186 -0.8191 0
M  V30 49 H 2.5026 2.4339 -1.5743 0
M  V30 50 H 3.8477 1.3122 -1.4479 0
M  V30 51 H 3.6395 2.5845 -0.2356 0
M  V30 52 H 3.9431 -1.9783 0.3221 0
M  V30 53 H 4.4799 -0.6667 -0.698 0
M  V30 54 H 3.979 1.554 1.7116 0
M  V30 55 H 3.5836 -0.4418 3.8409 0
M  V30 56 H 2.5094 0.9149 3.4127 0
M  V30 57 H 1.3119 -1.5068 3.9854 0
M  V30 END ATOM
M  V30 BEGIN BOND
M  V30 1 2 1 2
M  V30 2 1 2 3
M  V30 3 1 2 4
M  V30 4 2 3 5
M  V30 5 2 4 6
M  V30 6 1 5 7
M  V30 7 1 5 8
M  V30 8 1 7 9
M  V30 9 1 7 10
M  V30 10 1 8 11
M  V30 11 1 8 12
M  V30 12 1 9 13
M  V30 13 1 9 14
M  V30 14 1 13 15
M  V30 15 1 13 16
M  V30 16 1 14 17
M  V30 17 1 16 18
M  V30 18 1 17 19
M  V30 19 1 18 20
M  V30 20 1 18 21
M  V30 21 1 19 22
M  V30 22 1 20 23
M  V30 23 1 20 24
M  V30 24 2 24 25
M  V30 25 1 24 26
M  V30 26 1 26 27
M  V30 27 1 6 7
M  V30 28 1 11 14
M  V30 29 1 17 18
M  V30 30 1 20 22
M  V30 31 1 3 28
M  V30 32 1 4 29
M  V30 33 1 6 30
M  V30 34 1 8 31
M  V30 35 1 9 32
M  V30 36 1 10 33
M  V30 37 1 10 34
M  V30 38 1 10 35
M  V30 39 1 11 36
M  V30 40 1 11 37
M  V30 41 1 12 38
M  V30 42 1 12 39
M  V30 43 1 12 40
M  V30 44 1 13 41
M  V30 45 1 14 42
M  V30 46 1 15 43
M  V30 47 1 16 44
M  V30 48 1 16 45
M  V30 49 1 17 46
M  V30 50 1 19 47
M  V30 51 1 19 48
M  V30 52 1 21 49
M  V30 53 1 21 50
M  V30 54 1 21 51
M  V30 55 1 22 52
M  V30 56 1 22 53
M  V30 57 1 23 54
M  V30 58 1 26 55
M  V30 59 1 26 56
M  V30 60 1 27 57
M  V30 END BOND
M  V30 BEGIN COLLECTION
M  V30 MDLV30/STEABS ATOMS=(5 8 9 13 14 17)
M  V30 END COLLECTION
M  V30 END CTAB
M  END
>  <Column 1>
2549

>  <level_0>
3552

>  <index>
3552

>  <Unnamed: 0>
3552

>  <NO.>
3564

>  <Name>


>  <IUPAC_name>


>  <SMILES>
C[C@H]1C[C@@H]2[C@H]([C@@H](O)CC3(C)[C@H]2CCC3(O)C(=O)CO)C2(C)C=CC(=O)C=C12

>  <CID>


>  <logBB>


>  <BBB+/BBB->
BBB+

>  <Inchi>
InChI=1S/C22H30O5/c1-12-8-14-15-5-7-22(27-18(26)11-23)21(15-3)10-17(25)19(14)20(2)6-4-13(24)9-16(12)20/h4-6-9-12-14-15-17-19-23-25-27H-5-7-8-10-11H2-1-3H3/t12--14--15--17--19+-20?-21?-22?/m0/s1

>  <threshold>
-1

>  <reference>
R13|

>  <group>
B

>  <Class>
1

>  <ABC>
21.62

>  <ABCGG>
18.09

>  <nAcid>
0

>  <nBase>
0

>  <nAromAtom>
0

>  <nAromBond>
0

>  <nAtom>
57

>  <nHeavyAtom>
27

>  <nSpiro>
0

>  <nBridgehead>
0

>  <nHetero>
5

>  <nN>
0

>  <nO>
5

>  <nF>
0

>  <BalabanJ>
1.71

>  <BertzCT>
753.8

>  <nBonds>
60

>  <nBondsO>
30

>  <nBondsS>
56

>  <nBondsD>
4

>  <nBondsT>
0

>  <nBondsA>
0

>  <nBondsM>
4

>  <nBondsKS>
56

>  <nBondsKD>
4

>  <RNCG>
0.17

>  <RPCG>
0.09

>  <FCSP3>
0.73

>  <SZ>
33.67

>  <Sm>
31.18

>  <Sv>
33.7

>  <Sse>
56.97

>  <Sp>
36.38

>  <Si>
64.28

>  <MZ>
0.59

>  <Mm>
0.55

>  <Mv>
0.59

>  <Mse>
1

>  <Mp>
0.64

>  <Mi>
1.13

>  <NsCH3>
3

>  <NdCH2>
0

>  <NssCH2>
5

>  <NtCH>
0

>  <NdsCH>
3

>  <NaaCH>
0

>  <NsssCH>
5

>  <NddC>
0

>  <NtsC>
0

>  <NdssC>
3

>  <NaasC>
0

>  <NaaaC>
0

>  <NssssC>
3

>  <NsNH3>
0

>  <NsNH2>
0

>  <NssNH2>
0

>  <NdNH>
0

>  <NssNH>
0

>  <NaaNH>
0

>  <NtN>
0

>  <NsssNH>
0

>  <NdsN>
0

>  <NaaN>
0

>  <NsssN>
0

>  <NddsN>
0

>  <NaasN>
0

>  <NssssN>
0

>  <NsOH>
3

>  <NdO>
2

>  <NssO>
0

>  <NaaO>
0

>  <NsF>
0

>  <NsSiH3>
0

>  <NssSiH2>
0

>  <NsssSiH>
0

>  <NssssSi>
0

>  <NsPH2>
0

>  <NssPH>
0

>  <NsssP>
0

>  <NdsssP>
0

>  <NsssssP>
0

>  <NsSH>
0

>  <NdS>
0

>  <NssS>
0

>  <NaaS>
0

>  <NdssS>
0

>  <NddssS>
0

>  <NsCl>
0

>  <NsBr>
0

>  <NsI>
0

>  <fragCpx>
198.05

>  <fMF>
0.3

>  <nHBAcc>
5

>  <nHBDon>
3

>  <Kier1>
20.28

>  <Kier2>
6.5

>  <Lipinski>
1

>  <GhoseFilter>
1

>  <FilterItLogS>
-2.31

>  <VMcGowan>
289.55

>  <LabuteASA>
159.71

>  <PEOE_VSA1>
15.32

>  <PEOE_VSA2>
9.59

>  <PEOE_VSA3>
0

>  <PEOE_VSA4>
0

>  <PEOE_VSA5>
0

>  <PEOE_VSA6>
32.42

>  <PEOE_VSA7>
55.59

>  <PEOE_VSA8>
16.75

>  <PEOE_VSA9>
6.1

>  <PEOE_VSA10>
12.21

>  <PEOE_VSA11>
11.57

>  <PEOE_VSA12>
0

>  <PEOE_VSA13>
0

>  <SMR_VSA1>
24.91

>  <SMR_VSA2>
0

>  <SMR_VSA3>
0

>  <SMR_VSA4>
34.5

>  <SMR_VSA5>
58.16

>  <SMR_VSA6>
6.61

>  <SMR_VSA7>
23.8

>  <SMR_VSA8>
0

>  <SMR_VSA9>
0

>  <SlogP_VSA1>
0

>  <SlogP_VSA2>
45.2

>  <SlogP_VSA3>
9.59

>  <SlogP_VSA4>
34.5

>  <SlogP_VSA5>
46.45

>  <SlogP_VSA6>
23.8

>  <SlogP_VSA7>
0

>  <SlogP_VSA8>
0

>  <SlogP_VSA9>
0

>  <SlogP_VSA10>
0

>  <SlogP_VSA11>
0

>  <EState_VSA1>
29.51

>  <EState_VSA2>
34.87

>  <EState_VSA3>
12.84

>  <EState_VSA4>
18.41

>  <EState_VSA5>
0

>  <EState_VSA6>
12.15

>  <EState_VSA7>
13

>  <EState_VSA8>
13.85

>  <EState_VSA9>
0

>  <EState_VSA10>
24.91

>  <VSA_EState1>
0

>  <VSA_EState2>
24.37

>  <VSA_EState3>
31.86

>  <VSA_EState4>
-1.59

>  <VSA_EState5>
-0.08

>  <VSA_EState6>
0

>  <VSA_EState7>
6.87

>  <VSA_EState8>
5.48

>  <VSA_EState9>
0

>  <apol>
60.75

>  <bpol>
31.83

>  <nRing>
4

>  <nHRing>
0

>  <naRing>
0

>  <naHRing>
0

>  <nARing 2>
4

>  <nAHRing 2>
0

>  <nFRing>
1

>  <nFHRing>
0

>  <nFaRing>
0

>  <nFaHRing>
0

>  <nFARing 2>
1

>  <nFAHRing 2>
0

>  <nRot>
2

>  <SLogP>
1.8

>  <SMR>
99.6

>  <TopoPSA(NO)>
94.83

>  <TopoPSA>
94.83

>  <JGI1>
0.3

>  <JGI2>
0.14

>  <JGI3>
0.08

>  <JGI4>
0.06

>  <JGI5>
0.04

>  <Diameter>
12

>  <Radius>
6

>  <TMWC10>
137.64

>  <TSRW10>
78.39

>  <MW>
374.21

>  <AMW>
6.57

>  <WPath>
1553

>  <WPol>
62

>  <Zagreb1>
160

>  <Zagreb2>
206

>  <mZagreb2>
5.63

>  <yes>


>  <nAR-cont>
0.199399

>  <nHA-cont>
0.860070871

>  <MWHBN>
0.413554064

>  <MWHBN-cont>
0.422954898

>  <TPSA-cont>
0.338027714

>  <pka_cont>
0.97

>  <yes.1>


>  <BBB_SCORE>
2.854957647

>  <MMFF94 Energy>
141.41

$$$$
Compound 2070
Actelion Java MolfileCreator 2.0

  0  0  0  0  0  0              0 V3000
M  V30 BEGIN CTAB
M  V30 COUNTS 57 60 0 0 0
M  V30 BEGIN ATOM
M  V30 1 Cl -1.3028 -0.1627 2.1178 0
M  V30 2 C 0.2249 0.5777 1.3453 0
M  V30 3 C 1.2433 0.9115 2.5321 0
M  V30 4 C -0.3032 1.8212 0.5389 0 CFG=1
M  V30 5 C 0.8486 -0.5021 0.3733 0 CFG=2
M  V30 6 C 1.6574 -0.417 3.1997 0
M  V30 7 C 0.6267 1.8706 3.5523 0
M  V30 8 C 2.5515 1.605 2.0734 0
M  V30 9 O 0.7557 2.6819 0.1301 0
M  V30 10 C -1.1524 1.4533 -0.7081 0
M  V30 11 C -0.1211 -0.8196 -0.7793 0 CFG=1
M  V30 12 C 1.2872 -1.7778 1.1194 0
M  V30 13 C 1.5021 -0.6669 4.5124 0
M  V30 14 C 2.2274 -1.4718 2.2838 0
M  V30 15 C 0.478 1.6125 4.8586 0
M  V30 16 C -0.4741 0.4158 -1.6338 0
M  V30 17 C 0.2787 -1.8532 -1.8242 0
M  V30 18 C 0.9141 0.3265 5.4349 0
M  V30 19 C -1.3691 -0.2317 -2.7542 0
M  V30 20 C 0.7693 1.071 -2.3096 0
M  V30 21 C -0.8023 -1.6826 -2.9204 0 CFG=1
M  V30 22 O 0.7967 0.0928 6.6312 0
M  V30 23 O -1.2247 0.498 -3.9851 0
M  V30 24 C -2.8886 -0.1458 -2.4665 0
M  V30 25 C -0.2554 -2.0279 -4.3021 0
M  V30 26 O -3.5201 0.8666 -2.8104 0
M  V30 27 C -3.6153 -1.2827 -1.7634 0
M  V30 28 O -4.8862 -0.8577 -1.2872 0
M  V30 29 H -0.9357 2.4311 1.196 0
M  V30 30 H 1.7624 -0.088 -0.0636 0
M  V30 31 H 0.3049 2.8439 3.1875 0
M  V30 32 H 2.9988 1.1339 1.194 0
M  V30 33 H 2.4054 2.665 1.8397 0
M  V30 34 H 3.3111 1.5782 2.8667 0
M  V30 35 H 0.3609 3.4593 -0.3053 0
M  V30 36 H -1.3769 2.3598 -1.2843 0
M  V30 37 H -2.1136 1.0666 -0.3517 0
M  V30 38 H -1.037 -1.2116 -0.3234 0
M  V30 39 H 1.8084 -2.4509 0.428 0
M  V30 40 H 0.4145 -2.3327 1.4845 0
M  V30 41 H 1.7871 -1.6074 4.9701 0
M  V30 42 H 2.4285 -2.4033 2.827 0
M  V30 43 H 3.1955 -1.132 1.8972 0
M  V30 44 H 0.0435 2.3257 5.5485 0
M  V30 45 H 0.2628 -2.8714 -1.421 0
M  V30 46 H 1.2876 -1.6676 -2.2084 0
M  V30 47 H 1.2101 0.4317 -3.0809 0
M  V30 48 H 1.5778 1.2983 -1.6136 0
M  V30 49 H 0.4908 2.0134 -2.7961 0
M  V30 50 H -1.5823 -2.4193 -2.7051 0
M  V30 51 H -1.8145 1.2779 -3.9226 0
M  V30 52 H 0.5684 -1.3676 -4.5906 0
M  V30 53 H -1.041 -1.9504 -5.0607 0
M  V30 54 H 0.1223 -3.0559 -4.3177 0
M  V30 55 H -3.7763 -2.0984 -2.4724 0
M  V30 56 H -3.0473 -1.6369 -0.9043 0
M  V30 57 H -5.1993 -0.1703 -1.9092 0
M  V30 END ATOM
M  V30 BEGIN BOND
M  V30 1 1 1 2
M  V30 2 1 2 3
M  V30 3 1 2 4
M  V30 4 1 2 5
M  V30 5 1 3 6
M  V30 6 1 3 7
M  V30 7 1 3 8
M  V30 8 1 4 9
M  V30 9 1 4 10
M  V30 10 1 5 11
M  V30 11 1 5 12
M  V30 12 2 6 13
M  V30 13 1 6 14
M  V30 14 2 7 15
M  V30 15 1 10 16
M  V30 16 1 11 17
M  V30 17 1 13 18
M  V30 18 1 16 19
M  V30 19 1 16 20
M  V30 20 1 17 21
M  V30 21 2 18 22
M  V30 22 1 19 23
M  V30 23 1 19 24
M  V30 24 1 21 25
M  V30 25 2 24 26
M  V30 26 1 24 27
M  V30 27 1 27 28
M  V30 28 1 11 16
M  V30 29 1 12 14
M  V30 30 1 15 18
M  V30 31 1 19 21
M  V30 32 1 4 29
M  V30 33 1 5 30
M  V30 34 1 7 31
M  V30 35 1 8 32
M  V30 36 1 8 33
M  V30 37 1 8 34
M  V30 38 1 9 35
M  V30 39 1 10 36
M  V30 40 1 10 37
M  V30 41 1 11 38
M  V30 42 1 12 39
M  V30 43 1 12 40
M  V30 44 1 13 41
M  V30 45 1 14 42
M  V30 46 1 14 43
M  V30 47 1 15 44
M  V30 48 1 17 45
M  V30 49 1 17 46
M  V30 50 1 20 47
M  V30 51 1 20 48
M  V30 52 1 20 49
M  V30 53 1 21 50
M  V30 54 1 23 51
M  V30 55 1 25 52
M  V30 56 1 25 53
M  V30 57 1 25 54
M  V30 58 1 27 55
M  V30 59 1 27 56
M  V30 60 1 28 57
M  V30 END BOND
M  V30 BEGIN COLLECTION
M  V30 MDLV30/STEABS ATOMS=(4 4 5 11 21)
M  V30 END COLLECTION
M  V30 END CTAB
M  END
>  <Column 1>
2550

>  <level_0>
3557

>  <index>
3557

>  <Unnamed: 0>
3557

>  <NO.>
3569

>  <Name>


>  <IUPAC_name>


>  <SMILES>
C[C@H]1C[C@H]2[C@@H]3CCC4=CC(=O)C=CC4(C)C3(Cl)[C@@H](O)CC2(C)C1(O)C(=O)CO

>  <CID>


>  <logBB>


>  <BBB+/BBB->
BBB+

>  <Inchi>
InChI=1S/C22H29ClO5/c1-12-8-16-15-5-4-13-9-14(25)6-7-19(13-2)21(15-23)17(26)10-20(16-3)22(12-28)18(27)11-24/h6-7-9-12-15-17-24-26-28H-4-5-8-10-11H2-1-3H3/t12--15--16--17--19?-20?-21?-22?/m0/s1

>  <threshold>
-1

>  <reference>
R13|

>  <group>
B

>  <Class>
1

>  <ABC>
22.39

>  <ABCGG>
18.86

>  <nAcid>
0

>  <nBase>
0

>  <nAromAtom>
0

>  <nAromBond>
0

>  <nAtom>
57

>  <nHeavyAtom>
28

>  <nSpiro>
0

>  <nBridgehead>
0

>  <nHetero>
6

>  <nN>
0

>  <nO>
5

>  <nF>
0

>  <BalabanJ>
1.77

>  <BertzCT>
804.75

>  <nBonds>
60

>  <nBondsO>
31

>  <nBondsS>
56

>  <nBondsD>
4

>  <nBondsT>
0

>  <nBondsA>
0

>  <nBondsM>
4

>  <nBondsKS>
56

>  <nBondsKD>
4

>  <RNCG>
0.17

>  <RPCG>
0.09

>  <FCSP3>
0.73

>  <SZ>
36.33

>  <Sm>
34.05

>  <Sv>
34.52

>  <Sse>
57.29

>  <Sp>
37.29

>  <Si>
64.22

>  <MZ>
0.64

>  <Mm>
0.6

>  <Mv>
0.61

>  <Mse>
1.01

>  <Mp>
0.65

>  <Mi>
1.13

>  <NsCH3>
3

>  <NdCH2>
0

>  <NssCH2>
5

>  <NtCH>
0

>  <NdsCH>
3

>  <NaaCH>
0

>  <NsssCH>
4

>  <NddC>
0

>  <NtsC>
0

>  <NdssC>
3

>  <NaasC>
0

>  <NaaaC>
0

>  <NssssC>
4

>  <NsNH3>
0

>  <NsNH2>
0

>  <NssNH2>
0

>  <NdNH>
0

>  <NssNH>
0

>  <NaaNH>
0

>  <NtN>
0

>  <NsssNH>
0

>  <NdsN>
0

>  <NaaN>
0

>  <NsssN>
0

>  <NddsN>
0

>  <NaasN>
0

>  <NssssN>
0

>  <NsOH>
3

>  <NdO>
2

>  <NssO>
0

>  <NaaO>
0

>  <NsF>
0

>  <NsSiH3>
0

>  <NssSiH2>
0

>  <NsssSiH>
0

>  <NssssSi>
0

>  <NsPH2>
0

>  <NssPH>
0

>  <NsssP>
0

>  <NdsssP>
0

>  <NsssssP>
0

>  <NsSH>
0

>  <NdS>
0

>  <NssS>
0

>  <NaaS>
0

>  <NdssS>
0

>  <NddssS>
0

>  <NsCl>
1

>  <NsBr>
0

>  <NsI>
0

>  <fragCpx>
205.06

>  <fMF>
0.3

>  <nHBAcc>
5

>  <nHBDon>
3

>  <Kier1>
21.24

>  <Kier2>
6.5

>  <Lipinski>
1

>  <GhoseFilter>
1

>  <FilterItLogS>
-3.12

>  <VMcGowan>
301.79

>  <LabuteASA>
170.01

>  <PEOE_VSA1>
15.32

>  <PEOE_VSA2>
9.59

>  <PEOE_VSA3>
0

>  <PEOE_VSA4>
0

>  <PEOE_VSA5>
11.6

>  <PEOE_VSA6>
32.42

>  <PEOE_VSA7>
55.59

>  <PEOE_VSA8>
10.83

>  <PEOE_VSA9>
10.98

>  <PEOE_VSA10>
12.21

>  <PEOE_VSA11>
11.57

>  <PEOE_VSA12>
0

>  <PEOE_VSA13>
0

>  <SMR_VSA1>
24.91

>  <SMR_VSA2>
0

>  <SMR_VSA3>
0

>  <SMR_VSA4>
28.58

>  <SMR_VSA5>
63.03

>  <SMR_VSA6>
6.61

>  <SMR_VSA7>
23.8

>  <SMR_VSA8>
0

>  <SMR_VSA9>
0

>  <SlogP_VSA1>
0

>  <SlogP_VSA2>
50.07

>  <SlogP_VSA3>
9.59

>  <SlogP_VSA4>
28.58

>  <SlogP_VSA5>
46.45

>  <SlogP_VSA6>
23.8

>  <SlogP_VSA7>
0

>  <SlogP_VSA8>
0

>  <SlogP_VSA9>
0

>  <SlogP_VSA10>
0

>  <SlogP_VSA11>
0

>  <EState_VSA1>
39.8

>  <EState_VSA2>
29.96

>  <EState_VSA3>
19.26

>  <EState_VSA4>
5.57

>  <EState_VSA5>
6.08

>  <EState_VSA6>
6.08

>  <EState_VSA7>
26.85

>  <EState_VSA8>
0

>  <EState_VSA9>
11.6

>  <EState_VSA10>
24.91

>  <VSA_EState1>
0

>  <VSA_EState2>
23.51

>  <VSA_EState3>
32.33

>  <VSA_EState4>
-2.25

>  <VSA_EState5>
-1.15

>  <VSA_EState6>
0

>  <VSA_EState7>
6.22

>  <VSA_EState8>
4.97

>  <VSA_EState9>
0

>  <apol>
62.27

>  <bpol>
31.34

>  <nRing>
4

>  <nHRing>
0

>  <naRing>
0

>  <naHRing>
0

>  <nARing 2>
4

>  <nAHRing 2>
0

>  <nFRing>
1

>  <nFHRing>
0

>  <nFaRing>
0

>  <nFaHRing>
0

>  <nFARing 2>
1

>  <nFAHRing 2>
0

>  <nRot>
2

>  <SLogP>
2.17

>  <SMR>
104.69

>  <TopoPSA(NO)>
94.83

>  <TopoPSA>
94.83

>  <JGI1>
0.32

>  <JGI2>
0.16

>  <JGI3>
0.08

>  <JGI4>
0.06

>  <JGI5>
0.04

>  <Diameter>
12

>  <Radius>
6

>  <TMWC10>
140.69

>  <TSRW10>
80.08

>  <MW>
408.17

>  <AMW>
7.16

>  <WPath>
1670

>  <WPol>
70

>  <Zagreb1>
168

>  <Zagreb2>
221

>  <mZagreb2>
5.82

>  <yes>


>  <nAR-cont>
0.199399

>  <nHA-cont>
0.82432561

>  <MWHBN>
0.395976531

>  <MWHBN-cont>
0.491907205

>  <TPSA-cont>
0.338027714

>  <pka_cont>
0.97

>  <yes.1>


>  <BBB_SCORE>
2.922640846

>  <MMFF94 Energy>
174.85

$$$$
Compound 2071
Actelion Java MolfileCreator 2.0

  0  0  0  0  0  0              0 V3000
M  V30 BEGIN CTAB
M  V30 COUNTS 65 69 0 0 0
M  V30 BEGIN ATOM
M  V30 1 Cl -0.9045 1.2336 2.0567 0
M  V30 2 C 0.3885 -0.1057 1.9806 0
M  V30 3 C 0.6779 -0.572 3.4833 0
M  V30 4 C 1.6027 0.5557 1.2364 0 CFG=1
M  V30 5 C -0.1938 -1.3048 1.1359 0 CFG=2
M  V30 6 C -0.6101 -1.2078 4.0467 0
M  V30 7 C 1.1433 0.5945 4.3577 0
M  V30 8 C 1.7956 -1.6379 3.6165 0
M  V30 9 O 2.7842 -0.2356 1.3333 0
M  V30 10 C 1.3427 0.8545 -0.2637 0
M  V30 11 C -0.4635 -0.8704 -0.3161 0 CFG=1
M  V30 12 C -1.4459 -1.9253 1.788 0
M  V30 13 C -1.2175 -0.783 5.1696 0
M  V30 14 C -1.2013 -2.3364 3.2386 0
M  V30 15 C 0.532 1.0086 5.4759 0
M  V30 16 C 0.7965 -0.3602 -1.058 0
M  V30 17 C -1.032 -1.8946 -1.2868 0
M  V30 18 C -0.6902 0.3438 5.9668 0
M  V30 19 C 0.1813 -0.0487 -2.4892 0
M  V30 20 C 1.9057 -1.444 -1.1868 0
M  V30 21 C -0.9015 -1.1945 -2.6636 0 CFG=1
M  V30 22 O -1.2433 0.7101 6.9962 0
M  V30 23 O -0.5343 1.2118 -2.3636 0
M  V30 24 C 1.3143 0.0816 -3.5538 0
M  V30 25 C -0.7096 -2.2244 -3.7691 0
M  V30 26 C -1.2073 1.6989 -3.4474 0
M  V30 27 O 1.6671 -0.8607 -4.267 0
M  V30 28 C 2.0902 1.3855 -3.5828 0
M  V30 29 O -1.2339 1.1493 -4.5395 0
M  V30 30 C -1.8486 2.9469 -3.1163 0
M  V30 31 Cl 2.1138 2.0476 -5.2239 0
M  V30 32 O -1.7122 3.4762 -1.8584 0
M  V30 33 C -2.6344 3.7896 -3.8815 0
M  V30 34 C -2.4149 4.6372 -1.8303 0
M  V30 35 C -2.9992 4.8765 -3.051 0
M  V30 36 H 1.8458 1.5081 1.724 0
M  V30 37 H 0.5533 -2.1042 1.11 0
M  V30 38 H 2.0521 1.1107 4.0559 0
M  V30 39 H 1.7004 -2.4497 2.8903 0
M  V30 40 H 2.7979 -1.2113 3.5032 0
M  V30 41 H 1.781 -2.102 4.6123 0
M  V30 42 H 3.5318 0.2942 1.0028 0
M  V30 43 H 2.2761 1.1979 -0.7255 0
M  V30 44 H 0.6425 1.6948 -0.326 0
M  V30 45 H -1.2069 -0.0612 -0.2785 0
M  V30 46 H -2.2925 -1.2296 1.7388 0
M  V30 47 H -1.7522 -2.8176 1.229 0
M  V30 48 H -2.1288 -1.2299 5.5506 0
M  V30 49 H -2.1489 -2.681 3.6709 0
M  V30 50 H -0.5239 -3.1981 3.269 0
M  V30 51 H 0.9013 1.8348 6.0713 0
M  V30 52 H -0.4755 -2.8375 -1.2481 0
M  V30 53 H -2.0809 -2.1254 -1.0702 0
M  V30 54 H 2.8351 -1.0039 -1.5662 0
M  V30 55 H 1.6315 -2.2486 -1.8744 0
M  V30 56 H 2.1494 -1.9293 -0.2402 0
M  V30 57 H -1.8786 -0.7286 -2.8495 0
M  V30 58 H -0.6876 -1.7456 -4.7529 0
M  V30 59 H -1.546 -2.9326 -3.7742 0
M  V30 60 H 0.205 -2.8089 -3.6366 0
M  V30 61 H 3.1164 1.1949 -3.2563 0
M  V30 62 H 1.6553 2.1405 -2.9267 0
M  V30 63 H -2.907 3.6274 -4.9162 0
M  V30 64 H -2.4035 5.1682 -0.8879 0
M  V30 65 H -3.6132 5.7285 -3.309 0
M  V30 END ATOM
M  V30 BEGIN BOND
M  V30 1 1 1 2
M  V30 2 1 2 3
M  V30 3 1 2 4
M  V30 4 1 2 5
M  V30 5 1 3 6
M  V30 6 1 3 7
M  V30 7 1 3 8
M  V30 8 1 4 9
M  V30 9 1 4 10
M  V30 10 1 5 11
M  V30 11 1 5 12
M  V30 12 2 6 13
M  V30 13 1 6 14
M  V30 14 2 7 15
M  V30 15 1 10 16
M  V30 16 1 11 17
M  V30 17 1 13 18
M  V30 18 1 16 19
M  V30 19 1 16 20
M  V30 20 1 17 21
M  V30 21 2 18 22
M  V30 22 1 19 23
M  V30 23 1 19 24
M  V30 24 1 21 25
M  V30 25 1 23 26
M  V30 26 2 24 27
M  V30 27 1 24 28
M  V30 28 2 26 29
M  V30 29 1 26 30
M  V30 30 1 28 31
M  V30 31 1 30 32
M  V30 32 2 30 33
M  V30 33 1 32 34
M  V30 34 1 33 35
M  V30 35 1 11 16
M  V30 36 1 12 14
M  V30 37 1 15 18
M  V30 38 1 19 21
M  V30 39 2 34 35
M  V30 40 1 4 36
M  V30 41 1 5 37
M  V30 42 1 7 38
M  V30 43 1 8 39
M  V30 44 1 8 40
M  V30 45 1 8 41
M  V30 46 1 9 42
M  V30 47 1 10 43
M  V30 48 1 10 44
M  V30 49 1 11 45
M  V30 50 1 12 46
M  V30 51 1 12 47
M  V30 52 1 13 48
M  V30 53 1 14 49
M  V30 54 1 14 50
M  V30 55 1 15 51
M  V30 56 1 17 52
M  V30 57 1 17 53
M  V30 58 1 20 54
M  V30 59 1 20 55
M  V30 60 1 20 56
M  V30 61 1 21 57
M  V30 62 1 25 58
M  V30 63 1 25 59
M  V30 64 1 25 60
M  V30 65 1 28 61
M  V30 66 1 28 62
M  V30 67 1 33 63
M  V30 68 1 34 64
M  V30 69 1 35 65
M  V30 END BOND
M  V30 BEGIN COLLECTION
M  V30 MDLV30/STEABS ATOMS=(4 4 5 11 21)
M  V30 END COLLECTION
M  V30 END CTAB
M  END
>  <Column 1>
2551

>  <level_0>
3558

>  <index>
3558

>  <Unnamed: 0>
3558

>  <NO.>
3570

>  <Name>


>  <IUPAC_name>


>  <SMILES>
C[C@H]1C[C@H]2[C@@H]3CCC4=CC(=O)C=CC4(C)C3(Cl)[C@@H](O)CC2(C)C1(OC(=O)c1ccco1)C(=O)CCl

>  <CID>


>  <logBB>


>  <BBB+/BBB->
BBB+

>  <Inchi>
InChI=1S/C27H30Cl2O6/c1-15-11-19-18-7-6-16-12-17(30)8-9-24(16-2)26(18-29)21(31)13-25(19-3)27(15-22(32)14-28)35-23(33)20-5-4-10-34-20/h4-5-8-10-12-15-18-19-21-31H-6-7-11-13-14H2-1-3H3/t15--18--19--21--24?-25?-26?-27?/m0/s1

>  <threshold>
-1

>  <reference>
R13|

>  <group>
B

>  <Class>
1

>  <ABC>
27.96

>  <ABCGG>
23.25

>  <nAcid>
0

>  <nBase>
0

>  <nAromAtom>
5

>  <nAromBond>
5

>  <nAtom>
65

>  <nHeavyAtom>
35

>  <nSpiro>
0

>  <nBridgehead>
0

>  <nHetero>
8

>  <nN>
0

>  <nO>
6

>  <nF>
0

>  <BalabanJ>
1.54

>  <BertzCT>
1140.53

>  <nBonds>
69

>  <nBondsO>
39

>  <nBondsS>
59

>  <nBondsD>
5

>  <nBondsT>
0

>  <nBondsA>
5

>  <nBondsM>
10

>  <nBondsKS>
62

>  <nBondsKD>
7

>  <RNCG>
0.16

>  <RPCG>
0.13

>  <FCSP3>
0.59

>  <SZ>
45.67

>  <Sm>
43.41

>  <Sv>
41.6

>  <Sse>
65.83

>  <Sp>
44.47

>  <Si>
72.79

>  <MZ>
0.7

>  <Mm>
0.67

>  <Mv>
0.64

>  <Mse>
1.01

>  <Mp>
0.68

>  <Mi>
1.12

>  <NsCH3>
3

>  <NdCH2>
0

>  <NssCH2>
5

>  <NtCH>
0

>  <NdsCH>
3

>  <NaaCH>
3

>  <NsssCH>
4

>  <NddC>
0

>  <NtsC>
0

>  <NdssC>
4

>  <NaasC>
1

>  <NaaaC>
0

>  <NssssC>
4

>  <NsNH3>
0

>  <NsNH2>
0

>  <NssNH2>
0

>  <NdNH>
0

>  <NssNH>
0

>  <NaaNH>
0

>  <NtN>
0

>  <NsssNH>
0

>  <NdsN>
0

>  <NaaN>
0

>  <NsssN>
0

>  <NddsN>
0

>  <NaasN>
0

>  <NssssN>
0

>  <NsOH>
1

>  <NdO>
3

>  <NssO>
1

>  <NaaO>
1

>  <NsF>
0

>  <NsSiH3>
0

>  <NssSiH2>
0

>  <NsssSiH>
0

>  <NssssSi>
0

>  <NsPH2>
0

>  <NssPH>
0

>  <NsssP>
0

>  <NdsssP>
0

>  <NsssssP>
0

>  <NsSH>
0

>  <NdS>
0

>  <NssS>
0

>  <NaaS>
0

>  <NdssS>
0

>  <NddssS>
0

>  <NsCl>
2

>  <NsBr>
0

>  <NsI>
0

>  <fragCpx>
331.08

>  <fMF>
0.37

>  <nHBAcc>
6

>  <nHBDon>
1

>  <Kier1>
26.6

>  <Kier2>
9.04

>  <Lipinski>
0

>  <GhoseFilter>
0

>  <FilterItLogS>
-5.73

>  <VMcGowan>
366.59

>  <LabuteASA>
214.22

>  <PEOE_VSA1>
14.26

>  <PEOE_VSA2>
9.59

>  <PEOE_VSA3>
4.79

>  <PEOE_VSA4>
0

>  <PEOE_VSA5>
23.2

>  <PEOE_VSA6>
32.42

>  <PEOE_VSA7>
61.8

>  <PEOE_VSA8>
16.75

>  <PEOE_VSA9>
23.12

>  <PEOE_VSA10>
0

>  <PEOE_VSA11>
17.17

>  <PEOE_VSA12>
5.76

>  <PEOE_VSA13>
0

>  <SMR_VSA1>
28.64

>  <SMR_VSA2>
0

>  <SMR_VSA3>
0

>  <SMR_VSA4>
28.58

>  <SMR_VSA5>
63.03

>  <SMR_VSA6>
5.88

>  <SMR_VSA7>
47.96

>  <SMR_VSA8>
0

>  <SMR_VSA9>
0

>  <SlogP_VSA1>
0

>  <SlogP_VSA2>
45.1

>  <SlogP_VSA3>
14.33

>  <SlogP_VSA4>
28.58

>  <SlogP_VSA5>
57.01

>  <SlogP_VSA6>
46.61

>  <SlogP_VSA7>
0

>  <SlogP_VSA8>
0

>  <SlogP_VSA9>
0

>  <SlogP_VSA10>
0

>  <SlogP_VSA11>
0

>  <EState_VSA1>
33.38

>  <EState_VSA2>
47.38

>  <EState_VSA3>
19.26

>  <EState_VSA4>
5.57

>  <EState_VSA5>
18.41

>  <EState_VSA6>
12.14

>  <EState_VSA7>
26.85

>  <EState_VSA8>
0

>  <EState_VSA9>
32.36

>  <EState_VSA10>
19.49

>  <VSA_EState1>
11.34

>  <VSA_EState2>
37.71

>  <VSA_EState3>
11.76

>  <VSA_EState4>
-2.2

>  <VSA_EState5>
-2.12

>  <VSA_EState6>
3.07

>  <VSA_EState7>
7.44

>  <VSA_EState8>
5.81

>  <VSA_EState9>
0

>  <apol>
74.27

>  <bpol>
37.19

>  <nRing>
5

>  <nHRing>
1

>  <naRing>
1

>  <naHRing>
1

>  <nARing 2>
4

>  <nAHRing 2>
0

>  <nFRing>
1

>  <nFHRing>
0

>  <nFaRing>
0

>  <nFaHRing>
0

>  <nFARing 2>
1

>  <nFAHRing 2>
0

>  <nRot>
4

>  <SLogP>
4.87

>  <SMR>
130.23

>  <TopoPSA(NO)>
93.81

>  <TopoPSA>
93.81

>  <JGI1>
0.28

>  <JGI2>
0.15

>  <JGI3>
0.08

>  <JGI4>
0.06

>  <JGI5>
0.04

>  <Diameter>
14

>  <Radius>
7

>  <TMWC10>
157.18

>  <TSRW10>
89.29

>  <MW>
520.14

>  <AMW>
8

>  <WPath>
3148

>  <WPol>
81

>  <Zagreb1>
206

>  <Zagreb2>
267

>  <mZagreb2>
7.39

>  <yes>


>  <nAR-cont>
0.199399

>  <nHA-cont>
0.523063577

>  <MWHBN>
0.306928992

>  <MWHBN-cont>
0.819554908

>  <TPSA-cont>
0.345147947

>  <pka_cont>
0.97

>  <yes.1>


>  <BBB_SCORE>
3.127090835

>  <MMFF94 Energy>
175.72

$$$$
Compound 2072
Actelion Java MolfileCreator 2.0

  0  0  0  0  0  0              0 V3000
M  V30 BEGIN CTAB
M  V30 COUNTS 57 60 0 0 0
M  V30 BEGIN ATOM
M  V30 1 Cl -2.6855 1.4641 -2.3597 0
M  V30 2 C -2.383 1.2432 -0.6004 0 CFG=2
M  V30 3 C -1.263 0.1988 -0.3297 0 CFG=2
M  V30 4 C -3.7305 0.877 0.0277 0
M  V30 5 C -1.2178 -0.2085 1.2009 0 CFG=1
M  V30 6 C 0.152 0.7268 -0.7019 0 CFG=1
M  V30 7 C -3.58 0.5268 1.4822 0
M  V30 8 C -2.6224 -0.6307 1.7796 0
M  V30 9 C -0.066 -1.2132 1.4987 0 CFG=1
M  V30 10 C 1.2926 -0.31 -0.4929 0
M  V30 11 C 0.4548 1.25 -2.1067 0
M  V30 12 C -4.2315 1.2277 2.4274 0
M  V30 13 C -2.5309 -0.8812 3.2826 0
M  V30 14 C -3.1986 -1.9233 1.1601 0
M  V30 15 O -0.3591 -2.4903 0.9527 0
M  V30 16 C 1.3013 -0.7207 0.9944 0
M  V30 17 C 2.5311 0.5531 -0.9401 0
M  V30 18 C 1.104 -1.567 -1.3862 0
M  V30 19 C 2.0011 1.3748 -2.1611 0 CFG=1
M  V30 20 C -4.071 0.931 3.8652 0
M  V30 21 C -3.178 -0.1844 4.2264 0
M  V30 22 O 2.7984 1.4905 0.1292 0
M  V30 23 C 3.8525 -0.2115 -1.1966 0
M  V30 24 C 2.5338 0.9879 -3.539 0
M  V30 25 O -4.652 1.5866 4.7204 0
M  V30 26 O 3.9163 -1.4177 -1.4473 0
M  V30 27 C 5.144 0.602 -1.1412 0
M  V30 28 O 6.2205 -0.0775 -1.7698 0
M  V30 29 H -2.0648 2.221 -0.2187 0
M  V30 30 H -1.4959 -0.6909 -0.9229 0
M  V30 31 H -4.1896 0.0305 -0.498 0
M  V30 32 H -4.427 1.7171 -0.0974 0
M  V30 33 H -0.9365 0.7117 1.7416 0
M  V30 34 H 0.3254 1.5792 -0.0248 0
M  V30 35 H 0.0289 -1.3505 2.5811 0
M  V30 36 H 0.0831 0.563 -2.8749 0
M  V30 37 H 0.0049 2.2327 -2.2811 0
M  V30 38 H -4.8994 2.0506 2.1978 0
M  V30 39 H -1.9153 -1.7167 3.6101 0
M  V30 40 H -2.7054 -2.8237 1.5424 0
M  V30 41 H -3.1094 -1.9426 0.0696 0
M  V30 42 H -4.2647 -2.0344 1.3988 0
M  V30 43 H 0.4014 -3.0737 1.125 0
M  V30 44 H 2.0615 -1.4958 1.1525 0
M  V30 45 H 1.5869 0.1283 1.6266 0
M  V30 46 H 1.3464 -1.3848 -2.4342 0
M  V30 47 H 0.082 -1.9502 -1.3814 0
M  V30 48 H 1.7399 -2.3913 -1.0458 0
M  V30 49 H 2.2424 2.4372 -2.0204 0
M  V30 50 H -3.0905 -0.4106 5.2821 0
M  V30 51 H 3.1959 2.3015 -0.2327 0
M  V30 52 H 3.6061 1.1909 -3.6168 0
M  V30 53 H 2.3735 -0.0672 -3.7719 0
M  V30 54 H 2.0361 1.5773 -4.3172 0
M  V30 55 H 5.0076 1.5581 -1.652 0
M  V30 56 H 5.4074 0.7778 -0.0947 0
M  V30 57 H 6.039 -1.0332 -1.6594 0
M  V30 END ATOM
M  V30 BEGIN BOND
M  V30 1 1 1 2
M  V30 2 1 2 3
M  V30 3 1 2 4
M  V30 4 1 3 5
M  V30 5 1 3 6
M  V30 6 1 4 7
M  V30 7 1 5 8
M  V30 8 1 5 9
M  V30 9 1 6 10
M  V30 10 1 6 11
M  V30 11 2 7 12
M  V30 12 1 8 13
M  V30 13 1 8 14
M  V30 14 1 9 15
M  V30 15 1 9 16
M  V30 16 1 10 17
M  V30 17 1 10 18
M  V30 18 1 11 19
M  V30 19 1 12 20
M  V30 20 2 13 21
M  V30 21 1 17 22
M  V30 22 1 17 23
M  V30 23 1 19 24
M  V30 24 2 20 25
M  V30 25 2 23 26
M  V30 26 1 23 27
M  V30 27 1 27 28
M  V30 28 1 7 8
M  V30 29 1 10 16
M  V30 30 1 17 19
M  V30 31 1 20 21
M  V30 32 1 2 29
M  V30 33 1 3 30
M  V30 34 1 4 31
M  V30 35 1 4 32
M  V30 36 1 5 33
M  V30 37 1 6 34
M  V30 38 1 9 35
M  V30 39 1 11 36
M  V30 40 1 11 37
M  V30 41 1 12 38
M  V30 42 1 13 39
M  V30 43 1 14 40
M  V30 44 1 14 41
M  V30 45 1 14 42
M  V30 46 1 15 43
M  V30 47 1 16 44
M  V30 48 1 16 45
M  V30 49 1 18 46
M  V30 50 1 18 47
M  V30 51 1 18 48
M  V30 52 1 19 49
M  V30 53 1 21 50
M  V30 54 1 22 51
M  V30 55 1 24 52
M  V30 56 1 24 53
M  V30 57 1 24 54
M  V30 58 1 27 55
M  V30 59 1 27 56
M  V30 60 1 28 57
M  V30 END BOND
M  V30 BEGIN COLLECTION
M  V30 MDLV30/STEABS ATOMS=(6 2 3 5 6 9 19)
M  V30 END COLLECTION
M  V30 END CTAB
M  END
>  <Column 1>
2552

>  <level_0>
3579

>  <index>
3579

>  <Unnamed: 0>
3579

>  <NO.>
3591

>  <Name>


>  <IUPAC_name>


>  <SMILES>
C[C@H]1C[C@H]2[C@@H]3[C@@H](Cl)CC4=CC(=O)C=CC4(C)[C@H]3[C@@H](O)CC2(C)C1(O)C(=O)CO

>  <CID>


>  <logBB>


>  <BBB+/BBB->
BBB+

>  <Inchi>
InChI=1S/C22H29ClO5/c1-11-6-14-18-15(23)8-12-7-13(25)4-5-20(12-2)19(18)16(26)9-21(14-3)22(11-28)17(27)10-24/h4-5-7-11-14-16-18-19-24-26-28H-6-8-10H2-1-3H3/t11--14--15--16--18+-19--20?-21?-22?/m0/s1

>  <threshold>
-1

>  <reference>
R13|

>  <group>
B

>  <Class>
1

>  <ABC>
22.38

>  <ABCGG>
18.8

>  <nAcid>
0

>  <nBase>
0

>  <nAromAtom>
0

>  <nAromBond>
0

>  <nAtom>
57

>  <nHeavyAtom>
28

>  <nSpiro>
0

>  <nBridgehead>
0

>  <nHetero>
6

>  <nN>
0

>  <nO>
5

>  <nF>
0

>  <BalabanJ>
1.75

>  <BertzCT>
789.8

>  <nBonds>
60

>  <nBondsO>
31

>  <nBondsS>
56

>  <nBondsD>
4

>  <nBondsT>
0

>  <nBondsA>
0

>  <nBondsM>
4

>  <nBondsKS>
56

>  <nBondsKD>
4

>  <RNCG>
0.17

>  <RPCG>
0.09

>  <FCSP3>
0.73

>  <SZ>
36.33

>  <Sm>
34.05

>  <Sv>
34.52

>  <Sse>
57.29

>  <Sp>
37.29

>  <Si>
64.22

>  <MZ>
0.64

>  <Mm>
0.6

>  <Mv>
0.61

>  <Mse>
1.01

>  <Mp>
0.65

>  <Mi>
1.13

>  <NsCH3>
3

>  <NdCH2>
0

>  <NssCH2>
4

>  <NtCH>
0

>  <NdsCH>
3

>  <NaaCH>
0

>  <NsssCH>
6

>  <NddC>
0

>  <NtsC>
0

>  <NdssC>
3

>  <NaasC>
0

>  <NaaaC>
0

>  <NssssC>
3

>  <NsNH3>
0

>  <NsNH2>
0

>  <NssNH2>
0

>  <NdNH>
0

>  <NssNH>
0

>  <NaaNH>
0

>  <NtN>
0

>  <NsssNH>
0

>  <NdsN>
0

>  <NaaN>
0

>  <NsssN>
0

>  <NddsN>
0

>  <NaasN>
0

>  <NssssN>
0

>  <NsOH>
3

>  <NdO>
2

>  <NssO>
0

>  <NaaO>
0

>  <NsF>
0

>  <NsSiH3>
0

>  <NssSiH2>
0

>  <NsssSiH>
0

>  <NssssSi>
0

>  <NsPH2>
0

>  <NssPH>
0

>  <NsssP>
0

>  <NdsssP>
0

>  <NsssssP>
0

>  <NsSH>
0

>  <NdS>
0

>  <NssS>
0

>  <NaaS>
0

>  <NdssS>
0

>  <NddssS>
0

>  <NsCl>
1

>  <NsBr>
0

>  <NsI>
0

>  <fragCpx>
205.06

>  <fMF>
0.3

>  <nHBAcc>
5

>  <nHBDon>
3

>  <Kier1>
21.24

>  <Kier2>
6.75

>  <Lipinski>
1

>  <GhoseFilter>
1

>  <FilterItLogS>
-2.67

>  <VMcGowan>
301.79

>  <LabuteASA>
170.01

>  <PEOE_VSA1>
15.32

>  <PEOE_VSA2>
9.59

>  <PEOE_VSA3>
0

>  <PEOE_VSA4>
0

>  <PEOE_VSA5>
11.6

>  <PEOE_VSA6>
32.42

>  <PEOE_VSA7>
49.17

>  <PEOE_VSA8>
22.12

>  <PEOE_VSA9>
6.1

>  <PEOE_VSA10>
12.21

>  <PEOE_VSA11>
11.57

>  <PEOE_VSA12>
0

>  <PEOE_VSA13>
0

>  <SMR_VSA1>
24.91

>  <SMR_VSA2>
0

>  <SMR_VSA3>
0

>  <SMR_VSA4>
34.5

>  <SMR_VSA5>
57.12

>  <SMR_VSA6>
6.61

>  <SMR_VSA7>
23.8

>  <SMR_VSA8>
0

>  <SMR_VSA9>
0

>  <SlogP_VSA1>
0

>  <SlogP_VSA2>
50.58

>  <SlogP_VSA3>
9.59

>  <SlogP_VSA4>
34.5

>  <SlogP_VSA5>
40.03

>  <SlogP_VSA6>
23.8

>  <SlogP_VSA7>
0

>  <SlogP_VSA8>
0

>  <SlogP_VSA9>
0

>  <SlogP_VSA10>
0

>  <SlogP_VSA11>
0

>  <EState_VSA1>
34.93

>  <EState_VSA2>
41.25

>  <EState_VSA3>
12.84

>  <EState_VSA4>
5.57

>  <EState_VSA5>
0

>  <EState_VSA6>
12.15

>  <EState_VSA7>
19.92

>  <EState_VSA8>
6.92

>  <EState_VSA9>
11.6

>  <EState_VSA10>
24.91

>  <VSA_EState1>
0

>  <VSA_EState2>
24.52

>  <VSA_EState3>
31.98

>  <VSA_EState4>
-2.04

>  <VSA_EState5>
-1.29

>  <VSA_EState6>
0

>  <VSA_EState7>
5.78

>  <VSA_EState8>
5.05

>  <VSA_EState9>
0

>  <apol>
62.27

>  <bpol>
31.34

>  <nRing>
4

>  <nHRing>
0

>  <naRing>
0

>  <naHRing>
0

>  <nARing 2>
4

>  <nAHRing 2>
0

>  <nFRing>
1

>  <nFHRing>
0

>  <nFaRing>
0

>  <nFaHRing>
0

>  <nFARing 2>
1

>  <nFAHRing 2>
0

>  <nRot>
2

>  <SLogP>
2.02

>  <SMR>
104.62

>  <TopoPSA(NO)>
94.83

>  <TopoPSA>
94.83

>  <JGI1>
0.31

>  <JGI2>
0.14

>  <JGI3>
0.08

>  <JGI4>
0.06

>  <JGI5>
0.04

>  <Diameter>
12

>  <Radius>
6

>  <TMWC10>
140.21

>  <TSRW10>
79.86

>  <MW>
408.17

>  <AMW>
7.16

>  <WPath>
1682

>  <WPol>
66

>  <Zagreb1>
166

>  <Zagreb2>
215

>  <mZagreb2>
5.84

>  <yes>


>  <nAR-cont>
0.199399

>  <nHA-cont>
0.82432561

>  <MWHBN>
0.395976531

>  <MWHBN-cont>
0.491907205

>  <TPSA-cont>
0.338027714

>  <pka_cont>
0.97

>  <yes.1>


>  <BBB_SCORE>
2.922640846

>  <MMFF94 Energy>
154.69

$$$$
Compound 2073
Actelion Java MolfileCreator 2.0

  0  0  0  0  0  0              0 V3000
M  V30 BEGIN CTAB
M  V30 COUNTS 40 41 0 0 0
M  V30 BEGIN ATOM
M  V30 1 O -3.711 5.6893 -2.3675 0
M  V30 2 C -3.0928 4.5876 -1.8458 0
M  V30 3 C -2.2819 4.6882 -0.7196 0
M  V30 4 C -3.2951 3.3624 -2.468 0
M  V30 5 C -1.6627 3.5416 -0.216 0
M  V30 6 C -2.6685 2.2203 -1.9587 0
M  V30 7 C -1.8321 2.2979 -0.8345 0
M  V30 8 C -1.2293 1.0628 -0.3019 0
M  V30 9 C -0.048 0.9045 0.3544 0
M  V30 10 N 0.8958 1.8722 0.605 0 RAD=2
M  V30 11 C 0.2441 -0.5462 0.708 0
M  V30 12 C 2.0756 1.5212 1.3808 0
M  V30 13 N -0.403 -1.1344 1.769 0 RAD=2
M  V30 14 C 1.0751 -1.152 -0.1827 0
M  V30 15 C -1.2074 -0.3035 2.652 0
M  V30 16 C 1.5535 -2.5461 -0.1994 0
M  V30 17 C 1.7897 -3.2714 0.9737 0
M  V30 18 C 1.8569 -3.1495 -1.4294 0
M  V30 19 C 2.2844 -4.5771 0.9275 0
M  V30 20 C 2.3556 -4.4551 -1.4853 0
M  V30 21 C 2.5612 -5.159 -0.3056 0
M  V30 22 O 3.0426 -6.4355 -0.3881 0
M  V30 23 H -3.4125 6.4456 -1.8372 0
M  V30 24 H -2.109 5.6299 -0.2129 0
M  V30 25 H -3.9298 3.2877 -3.3431 0
M  V30 26 H -1.0293 3.6038 0.6682 0
M  V30 27 H -2.8194 1.2589 -2.4417 0
M  V30 28 H -1.8304 0.1685 -0.4507 0
M  V30 29 H 2.6558 2.4239 1.6095 0
M  V30 30 H 1.8443 1.067 2.3514 0
M  V30 31 H 2.766 0.8584 0.8475 0
M  V30 32 H 1.4592 -0.5349 -0.9919 0
M  V30 33 H -1.5398 -0.8894 3.518 0
M  V30 34 H -0.6622 0.5519 3.068 0
M  V30 35 H -2.1248 0.0694 2.183 0
M  V30 36 H 1.5734 -2.8004 1.9321 0
M  V30 37 H 1.6904 -2.5936 -2.348 0
M  V30 38 H 2.4379 -5.1015 1.8626 0
M  V30 39 H 2.575 -4.9108 -2.4435 0
M  V30 40 H 3.0699 -6.7754 0.5206 0
M  V30 END ATOM
M  V30 BEGIN BOND
M  V30 1 1 1 2
M  V30 2 2 2 3
M  V30 3 1 2 4
M  V30 4 1 3 5
M  V30 5 2 4 6
M  V30 6 2 5 7
M  V30 7 1 7 8
M  V30 8 2 8 9
M  V30 9 1 9 10
M  V30 10 1 9 11
M  V30 11 1 10 12
M  V30 12 1 11 13
M  V30 13 2 11 14
M  V30 14 1 13 15
M  V30 15 1 14 16
M  V30 16 2 16 17
M  V30 17 1 16 18
M  V30 18 1 17 19
M  V30 19 2 18 20
M  V30 20 2 19 21
M  V30 21 1 21 22
M  V30 22 1 6 7
M  V30 23 1 20 21
M  V30 24 1 1 23
M  V30 25 1 3 24
M  V30 26 1 4 25
M  V30 27 1 5 26
M  V30 28 1 6 27
M  V30 29 1 8 28
M  V30 30 1 12 29
M  V30 31 1 12 30
M  V30 32 1 12 31
M  V30 33 1 14 32
M  V30 34 1 15 33
M  V30 35 1 15 34
M  V30 36 1 15 35
M  V30 37 1 17 36
M  V30 38 1 18 37
M  V30 39 1 19 38
M  V30 40 1 20 39
M  V30 41 1 22 40
M  V30 END BOND
M  V30 END CTAB
M  END
>  <Column 1>
2553

>  <level_0>
3582

>  <index>
3582

>  <Unnamed: 0>
3582

>  <NO.>
3594

>  <Name>


>  <IUPAC_name>


>  <SMILES>
C[N]C(=C\c1ccc(O)cc1)/C(=C/c1ccc(O)cc1)[N]C

>  <CID>


>  <logBB>


>  <BBB+/BBB->
BBB-

>  <Inchi>
InChI=1S/C18H18N2O2/c1-19-17(11-13-3-7-15(21)8-4-13)18(20-2)12-14-5-9-16(22)10-6-14/h3-12-21-22H-1-2H3/b17-11--18-12-

>  <threshold>
-1

>  <reference>
R13|

>  <group>
B

>  <Class>
-1

>  <ABC>
16.44

>  <ABCGG>
13.77

>  <nAcid>
0

>  <nBase>
0

>  <nAromAtom>
12

>  <nAromBond>
12

>  <nAtom>
40

>  <nHeavyAtom>
22

>  <nSpiro>
0

>  <nBridgehead>
0

>  <nHetero>
4

>  <nN>
2

>  <nO>
2

>  <nF>
0

>  <BalabanJ>
1.81

>  <BertzCT>
609.74

>  <nBonds>
41

>  <nBondsO>
23

>  <nBondsS>
27

>  <nBondsD>
2

>  <nBondsT>
0

>  <nBondsA>
12

>  <nBondsM>
14

>  <nBondsKS>
33

>  <nBondsKD>
8

>  <RNCG>
0.26

>  <RPCG>
0.15

>  <FCSP3>
0.11

>  <SZ>
26

>  <Sm>
24.51

>  <Sv>
25.82

>  <Sse>
39.98

>  <Sp>
27.46

>  <Si>
44.74

>  <MZ>
0.65

>  <Mm>
0.61

>  <Mv>
0.65

>  <Mse>
1

>  <Mp>
0.69

>  <Mi>
1.12

>  <NsCH3>
2

>  <NdCH2>
0

>  <NssCH2>
0

>  <NtCH>
0

>  <NdsCH>
2

>  <NaaCH>
8

>  <NsssCH>
0

>  <NddC>
0

>  <NtsC>
0

>  <NdssC>
2

>  <NaasC>
4

>  <NaaaC>
0

>  <NssssC>
0

>  <NsNH3>
0

>  <NsNH2>
0

>  <NssNH2>
0

>  <NdNH>
0

>  <NssNH>
0

>  <NaaNH>
0

>  <NtN>
0

>  <NsssNH>
0

>  <NdsN>
0

>  <NaaN>
0

>  <NsssN>
0

>  <NddsN>
0

>  <NaasN>
0

>  <NssssN>
0

>  <NsOH>
2

>  <NdO>
0

>  <NssO>
0

>  <NaaO>
0

>  <NsF>
0

>  <NsSiH3>
0

>  <NssSiH2>
0

>  <NsssSiH>
0

>  <NssssSi>
0

>  <NsPH2>
0

>  <NssPH>
0

>  <NsssP>
0

>  <NdsssP>
0

>  <NsssssP>
0

>  <NsSH>
0

>  <NdS>
0

>  <NssS>
0

>  <NaaS>
0

>  <NdssS>
0

>  <NddssS>
0

>  <NsCl>
0

>  <NsBr>
0

>  <NsI>
0

>  <fragCpx>
67.04

>  <fMF>
0.4

>  <nHBAcc>
2

>  <nHBDon>
2

>  <Kier1>
18.34

>  <Kier2>
9.33

>  <Lipinski>
1

>  <GhoseFilter>
1

>  <FilterItLogS>
-3.6

>  <VMcGowan>
235.76

>  <LabuteASA>
129.99

>  <PEOE_VSA1>
10.21

>  <PEOE_VSA2>
10.63

>  <PEOE_VSA3>
0

>  <PEOE_VSA4>
0

>  <PEOE_VSA5>
0

>  <PEOE_VSA6>
24.27

>  <PEOE_VSA7>
47.54

>  <PEOE_VSA8>
14.1

>  <PEOE_VSA9>
11.39

>  <PEOE_VSA10>
11.5

>  <PEOE_VSA11>
0

>  <PEOE_VSA12>
0

>  <PEOE_VSA13>
0

>  <SMR_VSA1>
10.21

>  <SMR_VSA2>
0

>  <SMR_VSA3>
10.63

>  <SMR_VSA4>
0

>  <SMR_VSA5>
0

>  <SMR_VSA6>
14.1

>  <SMR_VSA7>
71.05

>  <SMR_VSA8>
0

>  <SMR_VSA9>
11.5

>  <SlogP_VSA1>
10.63

>  <SlogP_VSA2>
24.31

>  <SlogP_VSA3>
0

>  <SlogP_VSA4>
0

>  <SlogP_VSA5>
11.13

>  <SlogP_VSA6>
59.93

>  <SlogP_VSA7>
0

>  <SlogP_VSA8>
12.15

>  <SlogP_VSA9>
0

>  <SlogP_VSA10>
0

>  <SlogP_VSA11>
11.5

>  <EState_VSA1>
0

>  <EState_VSA2>
11.5

>  <EState_VSA3>
0

>  <EState_VSA4>
22.52

>  <EState_VSA5>
0

>  <EState_VSA6>
38.36

>  <EState_VSA7>
36.42

>  <EState_VSA8>
10.63

>  <EState_VSA9>
0

>  <EState_VSA10>
10.21

>  <VSA_EState1>
0

>  <VSA_EState2>
0

>  <VSA_EState3>
27.21

>  <VSA_EState4>
3.33

>  <VSA_EState5>
0.46

>  <VSA_EState6>
13.78

>  <VSA_EState7>
3.8

>  <VSA_EState8>
0

>  <VSA_EState9>
3.42

>  <apol>
45.87

>  <bpol>
20.34

>  <nRing>
2

>  <nHRing>
0

>  <naRing>
2

>  <naHRing>
0

>  <nARing 2>
0

>  <nAHRing 2>
0

>  <nFRing>
0

>  <nFHRing>
0

>  <nFaRing>
0

>  <nFaHRing>
0

>  <nFARing 2>
0

>  <nFAHRing 2>
0

>  <nRot>
5

>  <SLogP>
2.95

>  <SMR>
88.28

>  <TopoPSA(NO)>
68.66

>  <TopoPSA>
68.66

>  <JGI1>
0.22

>  <JGI2>
0.07

>  <JGI3>
0.03

>  <JGI4>
0.05

>  <JGI5>
0.02

>  <Diameter>
13

>  <Radius>
7

>  <TMWC10>
116.78

>  <TSRW10>
55.36

>  <MW>
294.14

>  <AMW>
7.35

>  <WPath>
1151

>  <WPol>
30

>  <Zagreb1>
106

>  <Zagreb2>
119

>  <mZagreb2>
5.11

>  <yes>


>  <nAR-cont>
0.336376

>  <nHA-cont>
0.983774276

>  <MWHBN>
0.233229213

>  <MWHBN-cont>
0.983343912

>  <TPSA-cont>
0.520710565

>  <pka_cont>
0.97

>  <yes.1>


>  <BBB_SCORE>
4.321587274

>  <MMFF94 Energy>
72.003

$$$$
Compound 2074
Actelion Java MolfileCreator 2.0

  0  0  0  0  0  0              0 V3000
M  V30 BEGIN CTAB
M  V30 COUNTS 23 24 0 0 0
M  V30 BEGIN ATOM
M  V30 1 O -0.7099 -0.7099 2.6841 0
M  V30 2 C 0.0946 -0.8037 1.773 0
M  V30 3 N 0.077 -0.2871 0.477 0
M  V30 4 C 1.3717 -1.5592 1.8939 0
M  V30 5 N 1.2318 -0.6887 -0.1703 0
M  V30 6 C -0.9002 0.4909 -0.1656 0
M  V30 7 C 1.9893 -1.4204 0.7113 0
M  V30 8 C -1.8087 1.2555 0.5759 0
M  V30 9 C -0.9854 0.5199 -1.5654 0
M  V30 10 C 3.3382 -1.9274 0.3453 0
M  V30 11 C -2.7742 2.0374 -0.0651 0
M  V30 12 C -1.9513 1.3009 -2.2068 0
M  V30 13 C -2.8439 2.0612 -1.4558 0
M  V30 14 H 1.6912 -2.0565 2.7898 0
M  V30 15 H 1.6709 -0.0956 -0.8669 0
M  V30 16 H -1.7768 1.2606 1.6629 0
M  V30 17 H -0.319 -0.0841 -2.1743 0
M  V30 18 H 3.8051 -2.4642 1.1775 0
M  V30 19 H 3.9967 -1.0984 0.067 0
M  V30 20 H 3.2699 -2.615 -0.5035 0
M  V30 21 H -3.472 2.625 0.5261 0
M  V30 22 H -2.0109 1.3079 -3.292 0
M  V30 23 H -3.5977 2.6666 -1.9524 0
M  V30 END ATOM
M  V30 BEGIN BOND
M  V30 1 2 1 2
M  V30 2 1 2 3
M  V30 3 1 2 4
M  V30 4 1 3 5
M  V30 5 1 3 6
M  V30 6 2 4 7
M  V30 7 2 6 8
M  V30 8 1 6 9
M  V30 9 1 7 10
M  V30 10 1 8 11
M  V30 11 2 9 12
M  V30 12 2 11 13
M  V30 13 1 5 7
M  V30 14 1 12 13
M  V30 15 1 4 14
M  V30 16 1 5 15
M  V30 17 1 8 16
M  V30 18 1 9 17
M  V30 19 1 10 18
M  V30 20 1 10 19
M  V30 21 1 10 20
M  V30 22 1 11 21
M  V30 23 1 12 22
M  V30 24 1 13 23
M  V30 END BOND
M  V30 END CTAB
M  END
>  <Column 1>
2554

>  <level_0>
3587

>  <index>
3587

>  <Unnamed: 0>
3587

>  <NO.>
3599

>  <Name>
19735-89-8

>  <IUPAC_name>
5-methyl-2-phenyl-1h-pyrazol-3-one

>  <SMILES>
Cc1cc(=O)n(-c2ccccc2)[nH]1

>  <CID>
70335

>  <logBB>


>  <BBB+/BBB->
BBB+

>  <Inchi>
InChI=1S/C10H10N2O/c1-8-7-10(13)12(11-8)9-5-3-2-4-6-9/h2-7-11H-1H3

>  <threshold>
-1

>  <reference>
R13|

>  <group>
B

>  <Class>
1

>  <ABC>
10.04

>  <ABCGG>
9.17

>  <nAcid>
0

>  <nBase>
0

>  <nAromAtom>
11

>  <nAromBond>
11

>  <nAtom>
23

>  <nHeavyAtom>
13

>  <nSpiro>
0

>  <nBridgehead>
0

>  <nHetero>
3

>  <nN>
2

>  <nO>
1

>  <nF>
0

>  <BalabanJ>
1.91

>  <BertzCT>
453.28

>  <nBonds>
24

>  <nBondsO>
14

>  <nBondsS>
12

>  <nBondsD>
1

>  <nBondsT>
0

>  <nBondsA>
11

>  <nBondsM>
12

>  <nBondsKS>
19

>  <nBondsKD>
5

>  <RNCG>
0.28

>  <RPCG>
0.26

>  <FCSP3>
0.1

>  <SZ>
15.33

>  <Sm>
14.5

>  <Sv>
14.94

>  <Sse>
23.1

>  <Sp>
15.79

>  <Si>
25.87

>  <MZ>
0.67

>  <Mm>
0.63

>  <Mv>
0.65

>  <Mse>
1

>  <Mp>
0.69

>  <Mi>
1.12

>  <NsCH3>
1

>  <NdCH2>
0

>  <NssCH2>
0

>  <NtCH>
0

>  <NdsCH>
0

>  <NaaCH>
6

>  <NsssCH>
0

>  <NddC>
0

>  <NtsC>
0

>  <NdssC>
0

>  <NaasC>
2

>  <NaaaC>
0

>  <NssssC>
0

>  <NsNH3>
0

>  <NsNH2>
0

>  <NssNH2>
0

>  <NdNH>
0

>  <NssNH>
0

>  <NaaNH>
1

>  <NtN>
0

>  <NsssNH>
0

>  <NdsN>
0

>  <NaaN>
0

>  <NsssN>
0

>  <NddsN>
0

>  <NaasN>
1

>  <NssssN>
0

>  <NsOH>
0

>  <NdO>
1

>  <NssO>
0

>  <NaaO>
0

>  <NsF>
0

>  <NsSiH3>
0

>  <NssSiH2>
0

>  <NsssSiH>
0

>  <NssssSi>
0

>  <NsPH2>
0

>  <NssPH>
0

>  <NsssP>
0

>  <NdsssP>
0

>  <NsssssP>
0

>  <NsSH>
0

>  <NdS>
0

>  <NssS>
0

>  <NaaS>
0

>  <NdssS>
0

>  <NddssS>
0

>  <NsCl>
0

>  <NsBr>
0

>  <NsI>
0

>  <fragCpx>
40.03

>  <fMF>
0.48

>  <nHBAcc>
2

>  <nHBDon>
1

>  <Kier1>
9.55

>  <Kier2>
4.02

>  <Lipinski>
1

>  <GhoseFilter>
1

>  <FilterItLogS>
-2.31

>  <VMcGowan>
134.37

>  <LabuteASA>
75.62

>  <PEOE_VSA1>
0

>  <PEOE_VSA2>
9.89

>  <PEOE_VSA3>
4.68

>  <PEOE_VSA4>
0

>  <PEOE_VSA5>
0

>  <PEOE_VSA6>
18.2

>  <PEOE_VSA7>
19.06

>  <PEOE_VSA8>
11.76

>  <PEOE_VSA9>
5.69

>  <PEOE_VSA10>
0

>  <PEOE_VSA11>
0

>  <PEOE_VSA12>
0

>  <PEOE_VSA13>
5.56

>  <SMR_VSA1>
0

>  <SMR_VSA2>
0

>  <SMR_VSA3>
9.78

>  <SMR_VSA4>
0

>  <SMR_VSA5>
6.92

>  <SMR_VSA6>
0

>  <SMR_VSA7>
52.45

>  <SMR_VSA8>
0

>  <SMR_VSA9>
5.69

>  <SlogP_VSA1>
5.56

>  <SlogP_VSA2>
9.78

>  <SlogP_VSA3>
0

>  <SlogP_VSA4>
6.92

>  <SlogP_VSA5>
5.69

>  <SlogP_VSA6>
41.19

>  <SlogP_VSA7>
0

>  <SlogP_VSA8>
5.69

>  <SlogP_VSA9>
0

>  <SlogP_VSA10>
0

>  <SlogP_VSA11>
0

>  <EState_VSA1>
0

>  <EState_VSA2>
5.56

>  <EState_VSA3>
0

>  <EState_VSA4>
11.38

>  <EState_VSA5>
4.68

>  <EState_VSA6>
6.07

>  <EState_VSA7>
37.26

>  <EState_VSA8>
5.1

>  <EState_VSA9>
0

>  <EState_VSA10>
4.79

>  <VSA_EState1>
1.52

>  <VSA_EState2>
11.37

>  <VSA_EState3>
2.96

>  <VSA_EState4>
1.71

>  <VSA_EState5>
0

>  <VSA_EState6>
11.07

>  <VSA_EState7>
0

>  <VSA_EState8>
1.86

>  <VSA_EState9>
0

>  <apol>
26.37

>  <bpol>
12.04

>  <nRing>
2

>  <nHRing>
1

>  <naRing>
2

>  <naHRing>
1

>  <nARing 2>
0

>  <nAHRing 2>
0

>  <nFRing>
0

>  <nFHRing>
0

>  <nFaRing>
0

>  <nFaHRing>
0

>  <nFARing 2>
0

>  <nFAHRing 2>
0

>  <nRot>
1

>  <SLogP>
1.47

>  <SMR>
51.13

>  <TopoPSA(NO)>
37.79

>  <TopoPSA>
37.79

>  <JGI1>
0.18

>  <JGI2>
0.07

>  <JGI3>
0.07

>  <JGI4>
0.03

>  <JGI5>
0.03

>  <Diameter>
7

>  <Radius>
4

>  <TMWC10>
95.54

>  <TSRW10>
58.06

>  <MW>
174.08

>  <AMW>
7.57

>  <WPath>
239

>  <WPol>
16

>  <Zagreb1>
66

>  <Zagreb2>
76

>  <mZagreb2>
2.89

>  <yes>


>  <nAR-cont>
0.336376

>  <nHA-cont>
0.841215992

>  <MWHBN>
0.227377148

>  <MWHBN-cont>
0.989277526

>  <TPSA-cont>
0.736202334

>  <pka_cont>
0.97

>  <yes.1>


>  <BBB_SCORE>
4.618912949

>  <MMFF94 Energy>
59.283

$$$$
Compound 2075
Actelion Java MolfileCreator 2.0

  0  0  0  0  0  0              0 V3000
M  V30 BEGIN CTAB
M  V30 COUNTS 30 30 0 0 0
M  V30 BEGIN ATOM
M  V30 1 O -0.8528 -0.155 -0.155 0
M  V30 2 C 0.2111 -1.0207 -0.0894 0
M  V30 3 C -0.5308 1.0827 0.4972 0
M  V30 4 C 1.1403 -1.0438 -1.1431 0
M  V30 5 C 0.3088 -1.9168 0.9876 0
M  V30 6 C -1.6839 2.0838 0.2785 0 CFG=1
M  V30 7 C 2.2327 -1.9164 -1.0575 0
M  V30 8 C 1.0052 -0.1353 -2.3312 0
M  V30 9 C 1.4128 -2.7774 1.0473 0
M  V30 10 C -0.7117 -1.9475 2.0886 0
M  V30 11 N -1.4789 3.3327 1.0252 0
M  V30 12 C -1.8572 2.4182 -1.2033 0
M  V30 13 C 2.3707 -2.7736 0.0337 0
M  V30 14 H -0.4053 0.9068 1.5729 0
M  V30 15 H 0.4048 1.5006 0.1037 0
M  V30 16 H -2.6173 1.6251 0.6263 0
M  V30 17 H 2.9809 -1.9395 -1.8465 0
M  V30 18 H 1.5906 -0.5053 -3.1798 0
M  V30 19 H 1.3596 0.8691 -2.0817 0
M  V30 20 H -0.0363 -0.0794 -2.6634 0
M  V30 21 H 1.5287 -3.4645 1.8826 0
M  V30 22 H -0.7414 -2.9322 2.5673 0
M  V30 23 H -1.7173 -1.7528 1.702 0
M  V30 24 H -0.4678 -1.1997 2.8492 0
M  V30 25 H -0.6185 3.7847 0.7174 0
M  V30 26 H -1.3565 3.1254 2.0158 0
M  V30 27 H -0.9467 2.8596 -1.624 0
M  V30 28 H -2.0957 1.5207 -1.7833 0
M  V30 29 H -2.6775 3.1297 -1.351 0
M  V30 30 H 3.2204 -3.4493 0.0883 0
M  V30 END ATOM
M  V30 BEGIN BOND
M  V30 1 1 1 2
M  V30 2 1 1 3
M  V30 3 2 2 4
M  V30 4 1 2 5
M  V30 5 1 3 6
M  V30 6 1 4 7
M  V30 7 1 4 8
M  V30 8 2 5 9
M  V30 9 1 5 10
M  V30 10 1 6 11
M  V30 11 1 6 12
M  V30 12 2 7 13
M  V30 13 1 9 13
M  V30 14 1 3 14
M  V30 15 1 3 15
M  V30 16 1 6 16
M  V30 17 1 7 17
M  V30 18 1 8 18
M  V30 19 1 8 19
M  V30 20 1 8 20
M  V30 21 1 9 21
M  V30 22 1 10 22
M  V30 23 1 10 23
M  V30 24 1 10 24
M  V30 25 1 11 25
M  V30 26 1 11 26
M  V30 27 1 12 27
M  V30 28 1 12 28
M  V30 29 1 12 29
M  V30 30 1 13 30
M  V30 END BOND
M  V30 BEGIN COLLECTION
M  V30 MDLV30/STEABS ATOMS=(1 6)
M  V30 END COLLECTION
M  V30 END CTAB
M  END
>  <Column 1>
2555

>  <level_0>
3592

>  <index>
3592

>  <Unnamed: 0>
3592

>  <NO.>
3604

>  <Name>
94991-72-7

>  <IUPAC_name>
(2s)-1-(2-6-dimethylphenoxy)propan-2-amine

>  <SMILES>
Cc1cccc(C)c1OC[C@H](C)N

>  <CID>
185376

>  <logBB>


>  <BBB+/BBB->
BBB+

>  <Inchi>
InChI=1S/C11H17NO/c1-8-5-4-6-9(2)11(8)13-7-10(3)12/h4-6-10H-7-12H2-1-3H3/t10-/m0/s1

>  <threshold>
-1

>  <reference>
R13|R27|R27|R30|

>  <group>
B

>  <Class>
1

>  <ABC>
9.55

>  <ABCGG>
8.93

>  <nAcid>
0

>  <nBase>
1

>  <nAromAtom>
6

>  <nAromBond>
6

>  <nAtom>
30

>  <nHeavyAtom>
13

>  <nSpiro>
0

>  <nBridgehead>
0

>  <nHetero>
2

>  <nN>
1

>  <nO>
1

>  <nF>
0

>  <BalabanJ>
2.35

>  <BertzCT>
261.17

>  <nBonds>
30

>  <nBondsO>
13

>  <nBondsS>
24

>  <nBondsD>
0

>  <nBondsT>
0

>  <nBondsA>
6

>  <nBondsM>
6

>  <nBondsKS>
27

>  <nBondsKD>
3

>  <RNCG>
0.44

>  <RPCG>
0.11

>  <FCSP3>
0.45

>  <SZ>
16.33

>  <Sm>
14.92

>  <Sv>
17.08

>  <Sse>
29.54

>  <Sp>
18.93

>  <Si>
34.03

>  <MZ>
0.54

>  <Mm>
0.5

>  <Mv>
0.57

>  <Mse>
0.98

>  <Mp>
0.63

>  <Mi>
1.13

>  <NsCH3>
3

>  <NdCH2>
0

>  <NssCH2>
1

>  <NtCH>
0

>  <NdsCH>
0

>  <NaaCH>
3

>  <NsssCH>
1

>  <NddC>
0

>  <NtsC>
0

>  <NdssC>
0

>  <NaasC>
3

>  <NaaaC>
0

>  <NssssC>
0

>  <NsNH3>
0

>  <NsNH2>
1

>  <NssNH2>
0

>  <NdNH>
0

>  <NssNH>
0

>  <NaaNH>
0

>  <NtN>
0

>  <NsssNH>
0

>  <NdsN>
0

>  <NaaN>
0

>  <NsssN>
0

>  <NddsN>
0

>  <NaasN>
0

>  <NssssN>
0

>  <NsOH>
0

>  <NdO>
0

>  <NssO>
1

>  <NaaO>
0

>  <NsF>
0

>  <NsSiH3>
0

>  <NssSiH2>
0

>  <NsssSiH>
0

>  <NssssSi>
0

>  <NsPH2>
0

>  <NssPH>
0

>  <NsssP>
0

>  <NdsssP>
0

>  <NsssssP>
0

>  <NsSH>
0

>  <NdS>
0

>  <NssS>
0

>  <NaaS>
0

>  <NdssS>
0

>  <NddssS>
0

>  <NsCl>
0

>  <NsBr>
0

>  <NsI>
0

>  <fragCpx>
13.02

>  <fMF>
0.2

>  <nHBAcc>
2

>  <nHBDon>
1

>  <Kier1>
11.08

>  <Kier2>
5.02

>  <Lipinski>
1

>  <GhoseFilter>
1

>  <FilterItLogS>
-2.94

>  <VMcGowan>
157.94

>  <LabuteASA>
79.71

>  <PEOE_VSA1>
10.47

>  <PEOE_VSA2>
0

>  <PEOE_VSA3>
0

>  <PEOE_VSA4>
0

>  <PEOE_VSA5>
0

>  <PEOE_VSA6>
18.2

>  <PEOE_VSA7>
31.9

>  <PEOE_VSA8>
6.04

>  <PEOE_VSA9>
0

>  <PEOE_VSA10>
12.36

>  <PEOE_VSA11>
0

>  <PEOE_VSA12>
0

>  <PEOE_VSA13>
0

>  <SMR_VSA1>
4.74

>  <SMR_VSA2>
0

>  <SMR_VSA3>
0

>  <SMR_VSA4>
5.73

>  <SMR_VSA5>
26.81

>  <SMR_VSA6>
6.61

>  <SMR_VSA7>
29.33

>  <SMR_VSA8>
0

>  <SMR_VSA9>
5.75

>  <SlogP_VSA1>
10.47

>  <SlogP_VSA2>
12.65

>  <SlogP_VSA3>
0

>  <SlogP_VSA4>
13.85

>  <SlogP_VSA5>
18.05

>  <SlogP_VSA6>
18.2

>  <SlogP_VSA7>
0

>  <SlogP_VSA8>
0

>  <SlogP_VSA9>
0

>  <SlogP_VSA10>
0

>  <SlogP_VSA11>
5.75

>  <EState_VSA1>
0

>  <EState_VSA2>
6.04

>  <EState_VSA3>
6.61

>  <EState_VSA4>
5.75

>  <EState_VSA5>
11.13

>  <EState_VSA6>
0

>  <EState_VSA7>
38.97

>  <EState_VSA8>
0

>  <EState_VSA9>
10.47

>  <EState_VSA10>
0

>  <VSA_EState1>
5.6

>  <VSA_EState2>
0

>  <VSA_EState3>
0

>  <VSA_EState4>
7.95

>  <VSA_EState5>
0.97

>  <VSA_EState6>
6.2

>  <VSA_EState7>
0

>  <VSA_EState8>
6.6

>  <VSA_EState9>
0

>  <apol>
31.61

>  <bpol>
18.22

>  <nRing>
1

>  <nHRing>
0

>  <naRing>
1

>  <naHRing>
0

>  <nARing 2>
0

>  <nAHRing 2>
0

>  <nFRing>
0

>  <nFHRing>
0

>  <nFaRing>
0

>  <nFaHRing>
0

>  <nFARing 2>
0

>  <nFAHRing 2>
0

>  <nRot>
3

>  <SLogP>
2.03

>  <SMR>
55.06

>  <TopoPSA(NO)>
35.25

>  <TopoPSA>
35.25

>  <JGI1>
0.23

>  <JGI2>
0.1

>  <JGI3>
0.06

>  <JGI4>
0.04

>  <JGI5>
0.05

>  <Diameter>
7

>  <Radius>
4

>  <TMWC10>
92.32

>  <TSRW10>
43.55

>  <MW>
179.13

>  <AMW>
5.97

>  <WPath>
256

>  <WPol>
16

>  <Zagreb1>
60

>  <Zagreb2>
66

>  <mZagreb2>
2.97

>  <yes>


>  <nAR-cont>
0.336376

>  <nHA-cont>
0.841215992

>  <MWHBN>
0.224149148

>  <MWHBN-cont>
0.992015498

>  <TPSA-cont>
0.753933111

>  <pka_cont>
0.97

>  <yes.1>


>  <BBB_SCORE>
4.658481461

>  <MMFF94 Energy>
46.391

$$$$
Compound 2076
Actelion Java MolfileCreator 2.0

  0  0  0  0  0  0              0 V3000
M  V30 BEGIN CTAB
M  V30 COUNTS 61 61 0 0 0
M  V30 BEGIN ATOM
M  V30 1 O -1.5604 2.5756 -2.6538 0 CHG=1
M  V30 2 N -1.2522 3.2982 -3.8654 0
M  V30 3 C -0.9049 2.9771 -1.4458 0
M  V30 4 C -0.3756 4.3125 -3.8032 0
M  V30 5 C 0.0025 4.0558 -1.4757 0
M  V30 6 C -1.2094 2.1796 -0.1789 0
M  V30 7 C 0.2767 4.7398 -2.657 0
M  V30 8 O 0.6125 4.4106 -0.2963 0
M  V30 9 N -2.5129 1.4594 -0.2248 0
M  V30 10 C -0.0825 1.1519 0.0589 0
M  V30 11 C 1.2357 5.8924 -2.7332 0
M  V30 12 C -0.0533 0.5659 1.5005 0
M  V30 13 C 0.6343 -0.8953 1.5563 0
M  V30 14 C 0.5628 1.6155 2.4552 0
M  V30 15 N -0.0026 -1.8223 0.4972 0
M  V30 16 C 0.4924 -1.4881 2.9891 0
M  V30 17 C 2.162 -0.6073 1.4251 0
M  V30 18 C -1.3507 -2.3552 0.7895 0
M  V30 19 C 0.9068 -2.7486 -0.3164 0
M  V30 20 N -2.1804 -1.4297 1.4912 0
M  V30 21 N -2.079 -2.3644 -0.44 0
M  V30 22 C -1.4729 -3.7131 1.5019 0
M  V30 23 C 0.1915 -3.575 -1.4408 0
M  V30 24 C 1.6594 -3.8022 0.5349 0
M  V30 25 C 1.9464 -1.9421 -1.156 0
M  V30 26 H -0.2062 4.7983 -4.7625 0
M  V30 27 H -1.272 2.8855 0.6554 0
M  V30 28 H 1.2362 5.1542 -0.3973 0
M  V30 29 H -3.2883 2.1243 -0.2353 0
M  V30 30 H -2.585 0.9309 -1.0978 0
M  V30 31 H 0.8941 1.6064 -0.1524 0
M  V30 32 H -0.1959 0.3599 -0.689 0
M  V30 33 H 0.9078 6.7025 -2.0737 0
M  V30 34 H 2.2403 5.5687 -2.4427 0
M  V30 35 H 1.2992 6.2989 -3.7483 0
M  V30 36 H -1.0737 0.4934 1.8717 0
M  V30 37 H -0.0714 2.5069 2.5085 0
M  V30 38 H 1.5498 1.9506 2.1221 0
M  V30 39 H 0.6473 1.2352 3.4765 0
M  V30 40 H 0.877 -2.5113 3.036 0
M  V30 41 H -0.536 -1.4902 3.3572 0
M  V30 42 H 1.0706 -0.9188 3.7259 0
M  V30 43 H 2.7816 -1.5019 1.4593 0
M  V30 44 H 2.4014 -0.0284 0.5294 0
M  V30 45 H 2.5339 -0.0139 2.2695 0
M  V30 46 H -3.0603 -1.8595 1.7527 0
M  V30 47 H -2.3991 -0.6462 0.8851 0
M  V30 48 H -3.0658 -2.4841 -0.2548 0
M  V30 49 H -1.9246 -1.4709 -0.8822 0
M  V30 50 H -1.1223 -4.5533 0.9007 0
M  V30 51 H -2.5197 -3.954 1.7353 0
M  V30 52 H -0.9342 -3.7335 2.453 0
M  V30 53 H 0.915 -4.1876 -1.9962 0
M  V30 54 H -0.5431 -4.2901 -1.0676 0
M  V30 55 H -0.2854 -2.9196 -2.179 0
M  V30 56 H 2.1965 -3.3857 1.3852 0
M  V30 57 H 2.4075 -4.3244 -0.075 0
M  V30 58 H 0.9948 -4.5719 0.9325 0
M  V30 59 H 2.2576 -2.4855 -2.0578 0
M  V30 60 H 2.8832 -1.7565 -0.6291 0
M  V30 61 H 1.5286 -0.9933 -1.5078 0
M  V30 END ATOM
M  V30 BEGIN BOND
M  V30 1 2 1 2
M  V30 2 1 1 3
M  V30 3 1 2 4
M  V30 4 2 3 5
M  V30 5 1 3 6
M  V30 6 2 4 7
M  V30 7 1 5 8
M  V30 8 1 6 9
M  V30 9 1 6 10
M  V30 10 1 7 11
M  V30 11 1 10 12
M  V30 12 1 12 13
M  V30 13 1 12 14
M  V30 14 1 13 15
M  V30 15 1 13 16
M  V30 16 1 13 17
M  V30 17 1 15 18
M  V30 18 1 15 19
M  V30 19 1 18 20
M  V30 20 1 18 21
M  V30 21 1 18 22
M  V30 22 1 19 23
M  V30 23 1 19 24
M  V30 24 1 19 25
M  V30 25 1 5 7
M  V30 26 1 4 26
M  V30 27 1 6 27
M  V30 28 1 8 28
M  V30 29 1 9 29
M  V30 30 1 9 30
M  V30 31 1 10 31
M  V30 32 1 10 32
M  V30 33 1 11 33
M  V30 34 1 11 34
M  V30 35 1 11 35
M  V30 36 1 12 36
M  V30 37 1 14 37
M  V30 38 1 14 38
M  V30 39 1 14 39
M  V30 40 1 16 40
M  V30 41 1 16 41
M  V30 42 1 16 42
M  V30 43 1 17 43
M  V30 44 1 17 44
M  V30 45 1 17 45
M  V30 46 1 20 46
M  V30 47 1 20 47
M  V30 48 1 21 48
M  V30 49 1 21 49
M  V30 50 1 22 50
M  V30 51 1 22 51
M  V30 52 1 22 52
M  V30 53 1 23 53
M  V30 54 1 23 54
M  V30 55 1 23 55
M  V30 56 1 24 56
M  V30 57 1 24 57
M  V30 58 1 24 58
M  V30 59 1 25 59
M  V30 60 1 25 60
M  V30 61 1 25 61
M  V30 END BOND
M  V30 END CTAB
M  END
>  <Column 1>
2556

>  <level_0>
3604

>  <index>
3604

>  <Unnamed: 0>
3604

>  <NO.>
3616

>  <Name>


>  <IUPAC_name>


>  <SMILES>
Cc1cn[o+]c(C(N)CC(C)C(C)(C)N(C(C)(C)C)C(C)(N)N)c1O

>  <CID>


>  <logBB>


>  <BBB+/BBB->
BBB+

>  <Inchi>
InChI=1S/C18H35N5O2/c1-11-10-22-25-15(14(11)24)13(19)9-12(2)17(6-7)23(16(3-4)5)18(8-20)21/h10-12-13H-9-19-21H2-1-8H3/p+1

>  <threshold>
-1

>  <reference>
R13|

>  <group>
B

>  <Class>
-1

>  <ABC>
19.02

>  <ABCGG>
17.95

>  <nAcid>
0

>  <nBase>
5

>  <nAromAtom>
6

>  <nAromBond>
6

>  <nAtom>
61

>  <nHeavyAtom>
25

>  <nSpiro>
0

>  <nBridgehead>
0

>  <nHetero>
7

>  <nN>
5

>  <nO>
2

>  <nF>
0

>  <BalabanJ>
2.94

>  <BertzCT>
576.11

>  <nBonds>
61

>  <nBondsO>
25

>  <nBondsS>
55

>  <nBondsD>
0

>  <nBondsT>
0

>  <nBondsA>
6

>  <nBondsM>
6

>  <nBondsKS>
58

>  <nBondsKD>
3

>  <RNCG>
0.23

>  <RPCG>
0.14

>  <FCSP3>
0.78

>  <SZ>
32.5

>  <Sm>
29.52

>  <Sv>
32.97

>  <Sse>
60.46

>  <Sp>
36.63

>  <Si>
70.35

>  <MZ>
0.53

>  <Mm>
0.48

>  <Mv>
0.54

>  <Mse>
0.99

>  <Mp>
0.6

>  <Mi>
1.15

>  <NsCH3>
8

>  <NdCH2>
0

>  <NssCH2>
1

>  <NtCH>
0

>  <NdsCH>
0

>  <NaaCH>
1

>  <NsssCH>
2

>  <NddC>
0

>  <NtsC>
0

>  <NdssC>
0

>  <NaasC>
3

>  <NaaaC>
0

>  <NssssC>
3

>  <NsNH3>
0

>  <NsNH2>
3

>  <NssNH2>
0

>  <NdNH>
0

>  <NssNH>
0

>  <NaaNH>
0

>  <NtN>
0

>  <NsssNH>
0

>  <NdsN>
0

>  <NaaN>
1

>  <NsssN>
1

>  <NddsN>
0

>  <NaasN>
0

>  <NssssN>
0

>  <NsOH>
1

>  <NdO>
0

>  <NssO>
0

>  <NaaO>
1

>  <NsF>
0

>  <NsSiH3>
0

>  <NssSiH2>
0

>  <NsssSiH>
0

>  <NssssSi>
0

>  <NsPH2>
0

>  <NssPH>
0

>  <NsssP>
0

>  <NdsssP>
0

>  <NsssssP>
0

>  <NsSH>
0

>  <NdS>
0

>  <NssS>
0

>  <NaaS>
0

>  <NdssS>
0

>  <NddssS>
0

>  <NsCl>
0

>  <NsBr>
0

>  <NsI>
0

>  <fragCpx>
25.07

>  <fMF>
0.1

>  <nHBAcc>
6

>  <nHBDon>
4

>  <Kier1>
23.04

>  <Kier2>
7.94

>  <Lipinski>
1

>  <GhoseFilter>
1

>  <FilterItLogS>
-2.9

>  <VMcGowan>
304.51

>  <LabuteASA>
151.09

>  <PEOE_VSA1>
22.31

>  <PEOE_VSA2>
4.9

>  <PEOE_VSA3>
0

>  <PEOE_VSA4>
0

>  <PEOE_VSA5>
0

>  <PEOE_VSA6>
11.45

>  <PEOE_VSA7>
60.8

>  <PEOE_VSA8>
16.64

>  <PEOE_VSA9>
0

>  <PEOE_VSA10>
18.03

>  <PEOE_VSA11>
5.16

>  <PEOE_VSA12>
5.75

>  <PEOE_VSA13>
0

>  <SMR_VSA1>
9.63

>  <SMR_VSA2>
0

>  <SMR_VSA3>
10.06

>  <SMR_VSA4>
23.12

>  <SMR_VSA5>
84.72

>  <SMR_VSA6>
0

>  <SMR_VSA7>
17.52

>  <SMR_VSA8>
0

>  <SMR_VSA9>
5.75

>  <SlogP_VSA1>
17.2

>  <SlogP_VSA2>
32.03

>  <SlogP_VSA3>
0

>  <SlogP_VSA4>
12.84

>  <SlogP_VSA5>
72.25

>  <SlogP_VSA6>
10.72

>  <SlogP_VSA7>
0

>  <SlogP_VSA8>
0

>  <SlogP_VSA9>
0

>  <SlogP_VSA10>
0

>  <SlogP_VSA11>
5.75

>  <EState_VSA1>
11.83

>  <EState_VSA2>
22.75

>  <EState_VSA3>
17.74

>  <EState_VSA4>
0

>  <EState_VSA5>
6.2

>  <EState_VSA6>
13.85

>  <EState_VSA7>
0

>  <EState_VSA8>
51.6

>  <EState_VSA9>
21.72

>  <EState_VSA10>
5.11

>  <VSA_EState1>
5.22

>  <VSA_EState2>
2.11

>  <VSA_EState3>
13.97

>  <VSA_EState4>
18.92

>  <VSA_EState5>
-0.52

>  <VSA_EState6>
-0.48

>  <VSA_EState7>
2.05

>  <VSA_EState8>
16.15

>  <VSA_EState9>
0

>  <apol>
61.17

>  <bpol>
37.85

>  <nRing>
1

>  <nHRing>
1

>  <naRing>
1

>  <naHRing>
1

>  <nARing 2>
0

>  <nAHRing 2>
0

>  <nFRing>
0

>  <nFHRing>
0

>  <nFaRing>
0

>  <nFaHRing>
0

>  <nFARing 2>
0

>  <nFAHRing 2>
0

>  <nRot>
6

>  <SLogP>
2.47

>  <SMR>
100.47

>  <TopoPSA(NO)>
125.72

>  <TopoPSA>
125.72

>  <JGI1>
0.4

>  <JGI2>
0.12

>  <JGI3>
0.11

>  <JGI4>
0.04

>  <JGI5>
0.02

>  <Diameter>
10

>  <Radius>
5

>  <TMWC10>
126.02

>  <TSRW10>
60.19

>  <MW>
354.29

>  <AMW>
5.81

>  <WPath>
1446

>  <WPol>
43

>  <Zagreb1>
130

>  <Zagreb2>
151

>  <mZagreb2>
5.17

>  <yes>


>  <nAR-cont>
0.336376

>  <nHA-cont>
0.921834225

>  <MWHBN>
0.531276435

>  <MWHBN-cont>
0

>  <TPSA-cont>
0

>  <pka_cont>
0.97

>  <yes.1>


>  <BBB_SCORE>
1.743210225

>  <MMFF94 Energy>
13.883

$$$$
Compound 2077
Actelion Java MolfileCreator 2.0

  0  0  0  0  0  0              0 V3000
M  V30 BEGIN CTAB
M  V30 COUNTS 51 51 0 0 0
M  V30 BEGIN ATOM
M  V30 1 O -0.0776 -0.2328 2.564 0
M  V30 2 C -0.0353 0.3949 1.351 0
M  V30 3 C 0.9337 0.2552 3.3235 0
M  V30 4 C 1.0054 1.3203 1.3452 0
M  V30 5 C -1.137 0.0165 0.3395 0
M  V30 6 C 1.6394 1.2183 2.6292 0
M  V30 7 C 1.0604 -0.3174 4.6799 0
M  V30 8 C 1.3814 2.235 0.2369 0
M  V30 9 N -0.5271 -0.2392 -1.045 0
M  V30 10 C -2.1199 1.2352 0.5097 0
M  V30 11 C -1.9717 -1.2012 0.8429 0
M  V30 12 C 2.8085 1.9938 3.1154 0
M  V30 13 C -1.3343 0.1837 -2.2211 0
M  V30 14 C 0.3735 -1.4326 -1.1664 0
M  V30 15 N -1.4417 1.64 -2.1353 0
M  V30 16 C -0.7305 0.0042 -3.6412 0
M  V30 17 C -2.753 -0.4255 -2.3224 0
M  V30 18 N -0.4278 -2.5978 -1.5339 0
M  V30 19 C 1.5062 -1.2373 -2.2177 0
M  V30 20 C 1.1938 -1.8827 0.0826 0
M  V30 21 H 0.9309 0.4624 5.4367 0
M  V30 22 H 2.0488 -0.7679 4.813 0
M  V30 23 H 0.3082 -1.0922 4.8588 0
M  V30 24 H 1.5982 1.6738 -0.6755 0
M  V30 25 H 0.5748 2.9442 0.0297 0
M  V30 26 H 2.2755 2.8167 0.4815 0
M  V30 27 H -1.6503 2.194 0.266 0
M  V30 28 H -3.046 1.1451 -0.0581 0
M  V30 29 H -2.4328 1.3306 1.56 0
M  V30 30 H -2.7867 -1.4522 0.16 0
M  V30 31 H -1.393 -2.1126 0.9934 0
M  V30 32 H -2.4387 -0.9868 1.8133 0
M  V30 33 H 3.0769 1.7212 4.1409 0
M  V30 34 H 2.5885 3.0661 3.0994 0
M  V30 35 H 3.6797 1.8084 2.4791 0
M  V30 36 H -1.9065 2.0205 -2.9548 0
M  V30 37 H -0.499 2.0186 -2.1142 0
M  V30 38 H -1.3543 0.4912 -4.4054 0
M  V30 39 H -0.6878 -1.0437 -3.9485 0
M  V30 40 H 0.2579 0.4667 -3.737 0
M  V30 41 H -3.2784 -0.0539 -3.2124 0
M  V30 42 H -2.7195 -1.5151 -2.4156 0
M  V30 43 H -3.4075 -0.1908 -1.4845 0
M  V30 44 H 0.1471 -3.4368 -1.4929 0
M  V30 45 H -0.7269 -2.5228 -2.4988 0
M  V30 46 H 2.3523 -1.9158 -2.0458 0
M  V30 47 H 1.9124 -0.2207 -2.1725 0
M  V30 48 H 1.2071 -1.4552 -3.2437 0
M  V30 49 H 1.7828 -2.7856 -0.1362 0
M  V30 50 H 1.9266 -1.1237 0.3751 0
M  V30 51 H 0.5974 -2.159 0.951 0
M  V30 END ATOM
M  V30 BEGIN BOND
M  V30 1 1 1 2
M  V30 2 1 1 3
M  V30 3 2 2 4
M  V30 4 1 2 5
M  V30 5 2 3 6
M  V30 6 1 3 7
M  V30 7 1 4 8
M  V30 8 1 5 9
M  V30 9 1 5 10
M  V30 10 1 5 11
M  V30 11 1 6 12
M  V30 12 1 9 13
M  V30 13 1 9 14
M  V30 14 1 13 15
M  V30 15 1 13 16
M  V30 16 1 13 17
M  V30 17 1 14 18
M  V30 18 1 14 19
M  V30 19 1 14 20
M  V30 20 1 4 6
M  V30 21 1 7 21
M  V30 22 1 7 22
M  V30 23 1 7 23
M  V30 24 1 8 24
M  V30 25 1 8 25
M  V30 26 1 8 26
M  V30 27 1 10 27
M  V30 28 1 10 28
M  V30 29 1 10 29
M  V30 30 1 11 30
M  V30 31 1 11 31
M  V30 32 1 11 32
M  V30 33 1 12 33
M  V30 34 1 12 34
M  V30 35 1 12 35
M  V30 36 1 15 36
M  V30 37 1 15 37
M  V30 38 1 16 38
M  V30 39 1 16 39
M  V30 40 1 16 40
M  V30 41 1 17 41
M  V30 42 1 17 42
M  V30 43 1 17 43
M  V30 44 1 18 44
M  V30 45 1 18 45
M  V30 46 1 19 46
M  V30 47 1 19 47
M  V30 48 1 19 48
M  V30 49 1 20 49
M  V30 50 1 20 50
M  V30 51 1 20 51
M  V30 END BOND
M  V30 END CTAB
M  END
>  <Column 1>
2557

>  <level_0>
3621

>  <index>
3621

>  <Unnamed: 0>
3621

>  <NO.>
3633

>  <Name>
probenecid

>  <IUPAC_name>


>  <SMILES>
Cc1oc(C(C)(C)N(C(C)(C)N)C(C)(C)N)c(C)c1C

>  <CID>


>  <logBB>


>  <BBB+/BBB->
BBB+

>  <Inchi>
InChI=1S/C16H31N3O/c1-10-11(2)13(20-12(10)3)14(4-5)19(15(6-7)17)16(8-9)18/h17-18H2-1-9H3

>  <threshold>
-1

>  <reference>
R13|R36|

>  <group>
B

>  <Class>
-1

>  <ABC>
15.37

>  <ABCGG>
15.47

>  <nAcid>
0

>  <nBase>
3

>  <nAromAtom>
5

>  <nAromBond>
5

>  <nAtom>
51

>  <nHeavyAtom>
20

>  <nSpiro>
0

>  <nBridgehead>
0

>  <nHetero>
4

>  <nN>
3

>  <nO>
1

>  <nF>
0

>  <BalabanJ>
3.19

>  <BertzCT>
473.05

>  <nBonds>
51

>  <nBondsO>
20

>  <nBondsS>
46

>  <nBondsD>
0

>  <nBondsT>
0

>  <nBondsA>
5

>  <nBondsM>
5

>  <nBondsKS>
49

>  <nBondsKD>
2

>  <RNCG>
0.28

>  <RPCG>
0.08

>  <FCSP3>
0.75

>  <SZ>
26

>  <Sm>
23.43

>  <Sv>
27.39

>  <Sse>
50.08

>  <Sp>
30.83

>  <Si>
58.52

>  <MZ>
0.51

>  <Mm>
0.46

>  <Mv>
0.54

>  <Mse>
0.98

>  <Mp>
0.6

>  <Mi>
1.15

>  <NsCH3>
9

>  <NdCH2>
0

>  <NssCH2>
0

>  <NtCH>
0

>  <NdsCH>
0

>  <NaaCH>
0

>  <NsssCH>
0

>  <NddC>
0

>  <NtsC>
0

>  <NdssC>
0

>  <NaasC>
4

>  <NaaaC>
0

>  <NssssC>
3

>  <NsNH3>
0

>  <NsNH2>
2

>  <NssNH2>
0

>  <NdNH>
0

>  <NssNH>
0

>  <NaaNH>
0

>  <NtN>
0

>  <NsssNH>
0

>  <NdsN>
0

>  <NaaN>
0

>  <NsssN>
1

>  <NddsN>
0

>  <NaasN>
0

>  <NssssN>
0

>  <NsOH>
0

>  <NdO>
0

>  <NssO>
0

>  <NaaO>
1

>  <NsF>
0

>  <NsSiH3>
0

>  <NssSiH2>
0

>  <NsssSiH>
0

>  <NssssSi>
0

>  <NsPH2>
0

>  <NssPH>
0

>  <NsssP>
0

>  <NdsssP>
0

>  <NsssssP>
0

>  <NsSH>
0

>  <NdS>
0

>  <NssS>
0

>  <NaaS>
0

>  <NdssS>
0

>  <NddssS>
0

>  <NsCl>
0

>  <NsBr>
0

>  <NsI>
0

>  <fragCpx>
20.04

>  <fMF>
0.1

>  <nHBAcc>
4

>  <nHBDon>
2

>  <Kier1>
18.05

>  <Kier2>
5.33

>  <Lipinski>
1

>  <GhoseFilter>
1

>  <FilterItLogS>
-3.86

>  <VMcGowan>
252.65

>  <LabuteASA>
123.04

>  <PEOE_VSA1>
15.88

>  <PEOE_VSA2>
4.9

>  <PEOE_VSA3>
0

>  <PEOE_VSA4>
0

>  <PEOE_VSA5>
0

>  <PEOE_VSA6>
0

>  <PEOE_VSA7>
73.44

>  <PEOE_VSA8>
0

>  <PEOE_VSA9>
16.86

>  <PEOE_VSA10>
11.52

>  <PEOE_VSA11>
0

>  <PEOE_VSA12>
0

>  <PEOE_VSA13>
0

>  <SMR_VSA1>
4.42

>  <SMR_VSA2>
0

>  <SMR_VSA3>
4.9

>  <SMR_VSA4>
11.47

>  <SMR_VSA5>
79.18

>  <SMR_VSA6>
0

>  <SMR_VSA7>
22.65

>  <SMR_VSA8>
0

>  <SMR_VSA9>
0

>  <SlogP_VSA1>
11.47

>  <SlogP_VSA2>
16.23

>  <SlogP_VSA3>
5.54

>  <SlogP_VSA4>
20.77

>  <SlogP_VSA5>
64.19

>  <SlogP_VSA6>
4.42

>  <SlogP_VSA7>
0

>  <SlogP_VSA8>
0

>  <SlogP_VSA9>
0

>  <SlogP_VSA10>
0

>  <SlogP_VSA11>
0

>  <EState_VSA1>
16.86

>  <EState_VSA2>
0

>  <EState_VSA3>
0

>  <EState_VSA4>
11.52

>  <EState_VSA5>
11.13

>  <EState_VSA6>
0

>  <EState_VSA7>
34.62

>  <EState_VSA8>
32.59

>  <EState_VSA9>
15.88

>  <EState_VSA10>
0

>  <VSA_EState1>
6.03

>  <VSA_EState2>
2.11

>  <VSA_EState3>
0

>  <VSA_EState4>
13.61

>  <VSA_EState5>
1.89

>  <VSA_EState6>
0

>  <VSA_EState7>
0

>  <VSA_EState8>
18.29

>  <VSA_EState9>
0

>  <apol>
51.49

>  <bpol>
33.41

>  <nRing>
1

>  <nHRing>
1

>  <naRing>
1

>  <naHRing>
1

>  <nARing 2>
0

>  <nAHRing 2>
0

>  <nFRing>
0

>  <nFHRing>
0

>  <nFaRing>
0

>  <nFaHRing>
0

>  <nFARing 2>
0

>  <nFAHRing 2>
0

>  <nRot>
4

>  <SLogP>
3.13

>  <SMR>
84.32

>  <TopoPSA(NO)>
68.42

>  <TopoPSA>
68.42

>  <JGI1>
0.45

>  <JGI2>
0.12

>  <JGI3>
0.13

>  <JGI4>
0.03

>  <JGI5>
0.04

>  <Diameter>
7

>  <Radius>
4

>  <TMWC10>
115.37

>  <TSRW10>
68.67

>  <MW>
281.25

>  <AMW>
5.51

>  <WPath>
701

>  <WPol>
35

>  <Zagreb1>
108

>  <Zagreb2>
128

>  <mZagreb2>
4

>  <yes>


>  <nAR-cont>
0.336376

>  <nHA-cont>
0.999629945

>  <MWHBN>
0.357770876

>  <MWHBN-cont>
0.64092456

>  <TPSA-cont>
0.522385914

>  <pka_cont>
0.97

>  <yes.1>


>  <BBB_SCORE>
3.827164613

>  <MMFF94 Energy>
-44.764

$$$$
Compound 2078
Actelion Java MolfileCreator 2.0

  0  0  0  0  0  0              0 V3000
M  V30 BEGIN CTAB
M  V30 COUNTS 47 50 0 0 0
M  V30 BEGIN ATOM
M  V30 1 Cl 3.1391 -1.1556 -2.9737 0
M  V30 2 C 3.7486 -0.2759 -1.6153 0
M  V30 3 C 3.8459 -0.8409 -0.3335 0
M  V30 4 C 4.1484 1.0468 -1.8313 0
M  V30 5 C 3.4048 -2.1987 -0.0379 0
M  V30 6 C 4.3715 -0.0675 0.7149 0
M  V30 7 C 4.6536 1.8096 -0.7778 0
M  V30 8 N 4.3029 -3.1143 0.3561 0
M  V30 9 C 2.0897 -2.7592 -0.0834 0
M  V30 10 C 4.7694 1.2519 0.4931 0
M  V30 11 O 3.6098 -4.2939 0.5057 0
M  V30 12 C 2.2975 -4.0876 0.2353 0
M  V30 13 C 0.7939 -2.1904 -0.397 0
M  V30 14 C 1.4158 -5.267 0.3498 0
M  V30 15 O -0.1652 -2.8825 -0.7269 0
M  V30 16 N 0.6697 -0.8273 -0.2541 0
M  V30 17 C -0.5931 -0.1193 -0.609 0
M  V30 18 C -0.7599 1.2596 0.0822 0
M  V30 19 C -1.8632 -0.497 0.201 0 CFG=1
M  V30 20 O -0.3069 2.3699 -0.0624 0
M  V30 21 N -1.7322 0.7801 0.907 0
M  V30 22 S -3.4583 -0.332 -0.7182 0
M  V30 23 C -2.9654 1.4736 1.2404 0 CFG=2
M  V30 24 C -3.8807 1.3528 0.0032 0
M  V30 25 C -2.7286 2.8422 1.8777 0
M  V30 26 C -3.6505 2.3852 -1.1079 0
M  V30 27 C -5.3645 1.3215 0.3901 0
M  V30 28 O -1.8141 3.1371 2.6331 0
M  V30 29 O -3.7082 3.7383 1.656 0
M  V30 30 H 4.0712 1.4908 -2.8214 0
M  V30 31 H 4.4758 -0.4921 1.7127 0
M  V30 32 H 4.9633 2.8381 -0.951 0
M  V30 33 H 5.1731 1.8435 1.3121 0
M  V30 34 H 1.9595 -6.1349 0.7359 0
M  V30 35 H 0.5843 -5.0615 1.0311 0
M  V30 36 H 1.0054 -5.5335 -0.6289 0
M  V30 37 H 1.4418 -0.2846 0.1126 0
M  V30 38 H -0.717 -0.0694 -1.6965 0
M  V30 39 H -1.7985 -1.3597 0.8695 0
M  V30 40 H -3.4057 0.8789 2.0551 0
M  V30 41 H -3.9151 3.3955 -0.7815 0
M  V30 42 H -4.277 2.1713 -1.9829 0
M  V30 43 H -2.6139 2.4166 -1.4533 0
M  V30 44 H -5.6831 2.28 0.8131 0
M  V30 45 H -6.0048 1.1268 -0.4785 0
M  V30 46 H -5.575 0.5498 1.1397 0
M  V30 47 H -3.4065 4.5332 2.1481 0
M  V30 END ATOM
M  V30 BEGIN BOND
M  V30 1 1 1 2
M  V30 2 2 2 3
M  V30 3 1 2 4
M  V30 4 1 3 5
M  V30 5 1 3 6
M  V30 6 2 4 7
M  V30 7 2 5 8
M  V30 8 1 5 9
M  V30 9 2 6 10
M  V30 10 1 8 11
M  V30 11 2 9 12
M  V30 12 1 9 13
M  V30 13 1 12 14
M  V30 14 2 13 15
M  V30 15 1 13 16
M  V30 16 1 16 17
M  V30 17 1 17 18
M  V30 18 1 17 19
M  V30 19 2 18 20
M  V30 20 1 18 21
M  V30 21 1 19 22
M  V30 22 1 21 23
M  V30 23 1 22 24
M  V30 24 1 23 25
M  V30 25 1 24 26
M  V30 26 1 24 27
M  V30 27 2 25 28
M  V30 28 1 25 29
M  V30 29 1 7 10
M  V30 30 1 11 12
M  V30 31 1 19 21
M  V30 32 1 23 24
M  V30 33 1 4 30
M  V30 34 1 6 31
M  V30 35 1 7 32
M  V30 36 1 10 33
M  V30 37 1 14 34
M  V30 38 1 14 35
M  V30 39 1 14 36
M  V30 40 1 16 37
M  V30 41 1 17 38
M  V30 42 1 19 39
M  V30 43 1 23 40
M  V30 44 1 26 41
M  V30 45 1 26 42
M  V30 46 1 26 43
M  V30 47 1 27 44
M  V30 48 1 27 45
M  V30 49 1 27 46
M  V30 50 1 29 47
M  V30 END BOND
M  V30 BEGIN COLLECTION
M  V30 MDLV30/STEABS ATOMS=(2 19 23)
M  V30 END COLLECTION
M  V30 END CTAB
M  END
>  <Column 1>
2558

>  <level_0>
3625

>  <index>
3625

>  <Unnamed: 0>
3625

>  <NO.>
3637

>  <Name>


>  <IUPAC_name>


>  <SMILES>
Cc1onc(-c2ccccc2Cl)c1C(=O)NC1C(=O)N2[C@H]1SC(C)(C)[C@@H]2C(=O)O

>  <CID>


>  <logBB>


>  <BBB+/BBB->
BBB-

>  <Inchi>
InChI=1S/C19H18ClN3O5S/c1-8-11(12(22-28-8)9-6-4-5-7-10(9)20)15(24)21-13-16(25)23-14(18(26)27)19(2-3)29-17(13)23/h4-7-13-14-17H-1-3H3-(H-21-24)(H-26-27)/t13?-14--17-/m0/s1

>  <threshold>
-1

>  <reference>
R13|

>  <group>
B

>  <Class>
1

>  <ABC>
23.1

>  <ABCGG>
19.88

>  <nAcid>
1

>  <nBase>
0

>  <nAromAtom>
11

>  <nAromBond>
11

>  <nAtom>
47

>  <nHeavyAtom>
29

>  <nSpiro>
0

>  <nBridgehead>
0

>  <nHetero>
10

>  <nN>
3

>  <nO>
5

>  <nF>
0

>  <BalabanJ>
1.44

>  <BertzCT>
1036.6

>  <nBonds>
50

>  <nBondsO>
32

>  <nBondsS>
36

>  <nBondsD>
3

>  <nBondsT>
0

>  <nBondsA>
11

>  <nBondsM>
14

>  <nBondsKS>
42

>  <nBondsKD>
8

>  <RNCG>
0.17

>  <RPCG>
0.11

>  <FCSP3>
0.37

>  <SZ>
37.67

>  <Sm>
36.29

>  <Sv>
32

>  <Sse>
48.48

>  <Sp>
33.61

>  <Si>
52.73

>  <MZ>
0.8

>  <Mm>
0.77

>  <Mv>
0.68

>  <Mse>
1.03

>  <Mp>
0.72

>  <Mi>
1.12

>  <NsCH3>
3

>  <NdCH2>
0

>  <NssCH2>
0

>  <NtCH>
0

>  <NdsCH>
0

>  <NaaCH>
4

>  <NsssCH>
3

>  <NddC>
0

>  <NtsC>
0

>  <NdssC>
3

>  <NaasC>
5

>  <NaaaC>
0

>  <NssssC>
1

>  <NsNH3>
0

>  <NsNH2>
0

>  <NssNH2>
0

>  <NdNH>
0

>  <NssNH>
1

>  <NaaNH>
0

>  <NtN>
0

>  <NsssNH>
0

>  <NdsN>
0

>  <NaaN>
1

>  <NsssN>
1

>  <NddsN>
0

>  <NaasN>
0

>  <NssssN>
0

>  <NsOH>
1

>  <NdO>
3

>  <NssO>
0

>  <NaaO>
1

>  <NsF>
0

>  <NsSiH3>
0

>  <NssSiH2>
0

>  <NsssSiH>
0

>  <NssssSi>
0

>  <NsPH2>
0

>  <NssPH>
0

>  <NsssP>
0

>  <NdsssP>
0

>  <NsssssP>
0

>  <NsSH>
0

>  <NdS>
0

>  <NssS>
1

>  <NaaS>
0

>  <NdssS>
0

>  <NddssS>
0

>  <NsCl>
1

>  <NsBr>
0

>  <NsI>
0

>  <fragCpx>
212.1

>  <fMF>
0.43

>  <nHBAcc>
6

>  <nHBDon>
2

>  <Kier1>
22.2

>  <Kier2>
8.16

>  <Lipinski>
1

>  <GhoseFilter>
1

>  <FilterItLogS>
-4.21

>  <VMcGowan>
288.61

>  <LabuteASA>
175.11

>  <PEOE_VSA1>
19.85

>  <PEOE_VSA2>
9.59

>  <PEOE_VSA3>
4.79

>  <PEOE_VSA4>
0

>  <PEOE_VSA5>
11.76

>  <PEOE_VSA6>
34.96

>  <PEOE_VSA7>
26.84

>  <PEOE_VSA8>
10.31

>  <PEOE_VSA9>
5.02

>  <PEOE_VSA10>
34.48

>  <PEOE_VSA11>
0

>  <PEOE_VSA12>
5.91

>  <PEOE_VSA13>
5.91

>  <SMR_VSA1>
24.01

>  <SMR_VSA2>
0

>  <SMR_VSA3>
15.37

>  <SMR_VSA4>
0

>  <SMR_VSA5>
42.98

>  <SMR_VSA6>
0

>  <SMR_VSA7>
40.61

>  <SMR_VSA8>
0

>  <SMR_VSA9>
11.26

>  <SlogP_VSA1>
5.32

>  <SlogP_VSA2>
55.15

>  <SlogP_VSA3>
9.59

>  <SlogP_VSA4>
6.92

>  <SlogP_VSA5>
29.97

>  <SlogP_VSA6>
28.79

>  <SlogP_VSA7>
5.02

>  <SlogP_VSA8>
11.26

>  <SlogP_VSA9>
0

>  <SlogP_VSA10>
0

>  <SlogP_VSA11>
0

>  <EState_VSA1>
39.99

>  <EState_VSA2>
11.26

>  <EState_VSA3>
16.35

>  <EState_VSA4>
0

>  <EState_VSA5>
16.66

>  <EState_VSA6>
45.04

>  <EState_VSA7>
0

>  <EState_VSA8>
10.47

>  <EState_VSA9>
16.12

>  <EState_VSA10>
19.49

>  <VSA_EState1>
4.54

>  <VSA_EState2>
38.56

>  <VSA_EState3>
16.17

>  <VSA_EState4>
1.03

>  <VSA_EState5>
-1.7

>  <VSA_EState6>
5.18

>  <VSA_EState7>
0

>  <VSA_EState8>
5.16

>  <VSA_EState9>
0

>  <apol>
56.12

>  <bpol>
27.65

>  <nRing>
4

>  <nHRing>
3

>  <naRing>
2

>  <naHRing>
1

>  <nARing 2>
2

>  <nAHRing 2>
2

>  <nFRing>
1

>  <nFHRing>
1

>  <nFaRing>
0

>  <nFaHRing>
0

>  <nFARing 2>
1

>  <nFAHRing 2>
1

>  <nRot>
4

>  <SLogP>
2.55

>  <SMR>
106.67

>  <TopoPSA(NO)>
112.74

>  <TopoPSA>
138.04

>  <JGI1>
0.22

>  <JGI2>
0.1

>  <JGI3>
0.09

>  <JGI4>
0.05

>  <JGI5>
0.03

>  <Diameter>
13

>  <Radius>
7

>  <TMWC10>
140.61

>  <TSRW10>
82.18

>  <MW>
435.07

>  <AMW>
9.26

>  <WPath>
2212

>  <WPol>
50

>  <Zagreb1>
164

>  <Zagreb2>
203

>  <mZagreb2>
6.1

>  <yes>


>  <nAR-cont>
1

>  <nHA-cont>
0.785905698

>  <MWHBN>
0.383539783

>  <MWHBN-cont>
0.540899787

>  <TPSA-cont>
0

>  <pka_cont>
0.97

>  <yes.1>


>  <BBB_SCORE>
3.082255379

>  <MMFF94 Energy>
33.663

$$$$
Compound 2079
Actelion Java MolfileCreator 2.0

  0  0  0  0  0  0              0 V3000
M  V30 BEGIN CTAB
M  V30 COUNTS 34 35 0 0 0
M  V30 BEGIN ATOM
M  V30 1 O -0.4776 -4.6243 -0.6368 0
M  V30 2 C -0.6005 -3.4267 0.0016 0
M  V30 3 C -1.4614 -2.4405 -0.4665 0
M  V30 4 C 0.1624 -3.2219 1.1449 0
M  V30 5 C -1.5525 -1.2275 0.2208 0
M  V30 6 C 0.0687 -2.0112 1.8339 0
M  V30 7 C -0.779 -0.9997 1.3668 0
M  V30 8 C -0.9073 0.2836 2.0673 0
M  V30 9 C 0.0778 1.1786 2.2894 0
M  V30 10 C -0.2354 2.3803 3.0015 0
M  V30 11 C 1.4614 1.0332 1.8462 0
M  V30 12 N -0.492 3.361 3.5653 0
M  V30 13 C 2.4272 0.7594 2.8665 0
M  V30 14 C 1.881 1.1241 0.5669 0
M  V30 15 N 3.207 0.5226 3.692 0
M  V30 16 C 1.0464 1.4034 -0.6075 0
M  V30 17 C 0.9976 0.4622 -1.6444 0
M  V30 18 C 0.3278 2.5984 -0.7319 0
M  V30 19 C 0.2196 0.6986 -2.7805 0
M  V30 20 C -0.4525 2.833 -1.8656 0
M  V30 21 C -0.5018 1.8831 -2.8786 0
M  V30 22 O -1.2752 2.1559 -3.9668 0
M  V30 23 H -1.1112 -4.6534 -1.3722 0
M  V30 24 H -2.0629 -2.592 -1.3569 0
M  V30 25 H 0.8223 -4.0064 1.5053 0
M  V30 26 H -2.2206 -0.455 -0.1554 0
M  V30 27 H 0.6557 -1.8779 2.7395 0
M  V30 28 H -1.92 0.4967 2.4111 0
M  V30 29 H 2.934 0.9684 0.3301 0
M  V30 30 H 1.5526 -0.4708 -1.568 0
M  V30 31 H 0.3725 3.3634 0.0396 0
M  V30 32 H 0.1892 -0.0479 -3.5673 0
M  V30 33 H -1.013 3.7591 -1.9616 0
M  V30 34 H -1.1635 1.4431 -4.6168 0
M  V30 END ATOM
M  V30 BEGIN BOND
M  V30 1 1 1 2
M  V30 2 2 2 3
M  V30 3 1 2 4
M  V30 4 1 3 5
M  V30 5 2 4 6
M  V30 6 2 5 7
M  V30 7 1 7 8
M  V30 8 2 8 9
M  V30 9 1 9 10
M  V30 10 1 9 11
M  V30 11 3 10 12
M  V30 12 1 11 13
M  V30 13 2 11 14
M  V30 14 3 13 15
M  V30 15 1 14 16
M  V30 16 2 16 17
M  V30 17 1 16 18
M  V30 18 1 17 19
M  V30 19 2 18 20
M  V30 20 2 19 21
M  V30 21 1 21 22
M  V30 22 1 6 7
M  V30 23 1 20 21
M  V30 24 1 1 23
M  V30 25 1 3 24
M  V30 26 1 4 25
M  V30 27 1 5 26
M  V30 28 1 6 27
M  V30 29 1 8 28
M  V30 30 1 14 29
M  V30 31 1 17 30
M  V30 32 1 18 31
M  V30 33 1 19 32
M  V30 34 1 20 33
M  V30 35 1 22 34
M  V30 END BOND
M  V30 END CTAB
M  END
>  <Column 1>
2561

>  <level_0>
3649

>  <index>
3649

>  <Unnamed: 0>
3649

>  <NO.>
3661

>  <Name>
(2e-3e)-2-3-bis[(4-hydroxyphenyl)methylidene]butanedinitrile

>  <IUPAC_name>
(2e-3e)-2-3-bis[(4-hydroxyphenyl)methylidene]butanedinitrile

>  <SMILES>
N#CC(=C/c1ccc(O)cc1)/C(C#N)=C\c1ccc(O)cc1

>  <CID>
5709922

>  <logBB>


>  <BBB+/BBB->
BBB-

>  <Inchi>
InChI=1S/C18H12N2O2/c19-11-15(9-13-1-5-17(21)6-2-13)16(12-20)10-14-3-7-18(22)8-4-14/h1-10-21-22H/b15-9--16-10-

>  <threshold>
-1

>  <reference>
R13|

>  <group>
B

>  <Class>
1

>  <ABC>
16.44

>  <ABCGG>
13.77

>  <nAcid>
0

>  <nBase>
0

>  <nAromAtom>
12

>  <nAromBond>
12

>  <nAtom>
34

>  <nHeavyAtom>
22

>  <nSpiro>
0

>  <nBridgehead>
0

>  <nHetero>
4

>  <nN>
2

>  <nO>
2

>  <nF>
0

>  <BalabanJ>
1.81

>  <BertzCT>
730.65

>  <nBonds>
35

>  <nBondsO>
23

>  <nBondsS>
19

>  <nBondsD>
2

>  <nBondsT>
2

>  <nBondsA>
12

>  <nBondsM>
16

>  <nBondsKS>
25

>  <nBondsKD>
8

>  <RNCG>
0.28

>  <RPCG>
0.16

>  <FCSP3>
0

>  <SZ>
25

>  <Sm>
24

>  <Sv>
24.2

>  <Sse>
34.31

>  <Sp>
25.07

>  <Si>
37.49

>  <MZ>
0.74

>  <Mm>
0.71

>  <Mv>
0.71

>  <Mse>
1.01

>  <Mp>
0.74

>  <Mi>
1.1

>  <NsCH3>
0

>  <NdCH2>
0

>  <NssCH2>
0

>  <NtCH>
0

>  <NdsCH>
2

>  <NaaCH>
8

>  <NsssCH>
0

>  <NddC>
0

>  <NtsC>
2

>  <NdssC>
2

>  <NaasC>
4

>  <NaaaC>
0

>  <NssssC>
0

>  <NsNH3>
0

>  <NsNH2>
0

>  <NssNH2>
0

>  <NdNH>
0

>  <NssNH>
0

>  <NaaNH>
0

>  <NtN>
2

>  <NsssNH>
0

>  <NdsN>
0

>  <NaaN>
0

>  <NsssN>
0

>  <NddsN>
0

>  <NaasN>
0

>  <NssssN>
0

>  <NsOH>
2

>  <NdO>
0

>  <NssO>
0

>  <NaaO>
0

>  <NsF>
0

>  <NsSiH3>
0

>  <NssSiH2>
0

>  <NsssSiH>
0

>  <NssssSi>
0

>  <NsPH2>
0

>  <NssPH>
0

>  <NsssP>
0

>  <NdsssP>
0

>  <NsssssP>
0

>  <NsSH>
0

>  <NdS>
0

>  <NssS>
0

>  <NaaS>
0

>  <NdssS>
0

>  <NddssS>
0

>  <NsCl>
0

>  <NsBr>
0

>  <NsI>
0

>  <fragCpx>
67.04

>  <fMF>
0.47

>  <nHBAcc>
4

>  <nHBDon>
2

>  <Kier1>
18.34

>  <Kier2>
9.33

>  <Lipinski>
1

>  <GhoseFilter>
1

>  <FilterItLogS>
-2.9

>  <VMcGowan>
222.86

>  <LabuteASA>
127.67

>  <PEOE_VSA1>
10.21

>  <PEOE_VSA2>
0

>  <PEOE_VSA3>
0

>  <PEOE_VSA4>
10.52

>  <PEOE_VSA5>
0

>  <PEOE_VSA6>
24.27

>  <PEOE_VSA7>
47.54

>  <PEOE_VSA8>
0

>  <PEOE_VSA9>
11.15

>  <PEOE_VSA10>
23.64

>  <PEOE_VSA11>
0

>  <PEOE_VSA12>
0

>  <PEOE_VSA13>
0

>  <SMR_VSA1>
10.21

>  <SMR_VSA2>
10.52

>  <SMR_VSA3>
0

>  <SMR_VSA4>
0

>  <SMR_VSA5>
0

>  <SMR_VSA6>
0

>  <SMR_VSA7>
70.8

>  <SMR_VSA8>
0

>  <SMR_VSA9>
23.64

>  <SlogP_VSA1>
0

>  <SlogP_VSA2>
10.21

>  <SlogP_VSA3>
0

>  <SlogP_VSA4>
22.66

>  <SlogP_VSA5>
11.13

>  <SlogP_VSA6>
59.68

>  <SlogP_VSA7>
0

>  <SlogP_VSA8>
12.15

>  <SlogP_VSA9>
0

>  <SlogP_VSA10>
0

>  <SlogP_VSA11>
11.5

>  <EState_VSA1>
0

>  <EState_VSA2>
22.65

>  <EState_VSA3>
11.13

>  <EState_VSA4>
0

>  <EState_VSA5>
24.27

>  <EState_VSA6>
36.42

>  <EState_VSA7>
12.14

>  <EState_VSA8>
0

>  <EState_VSA9>
0

>  <EState_VSA10>
20.74

>  <VSA_EState1>
0

>  <VSA_EState2>
0

>  <VSA_EState3>
37.03

>  <VSA_EState4>
1.87

>  <VSA_EState5>
0.27

>  <VSA_EState6>
16.67

>  <VSA_EState7>
3.16

>  <VSA_EState8>
0

>  <VSA_EState9>
0

>  <apol>
41.87

>  <bpol>
13.18

>  <nRing>
2

>  <nHRing>
0

>  <naRing>
2

>  <naHRing>
0

>  <nARing 2>
0

>  <nAHRing 2>
0

>  <nFRing>
0

>  <nFHRing>
0

>  <nFaRing>
0

>  <nFaHRing>
0

>  <nFARing 2>
0

>  <nFAHRing 2>
0

>  <nRot>
3

>  <SLogP>
3.61

>  <SMR>
83.39

>  <TopoPSA(NO)>
88.04

>  <TopoPSA>
88.04

>  <JGI1>
0.22

>  <JGI2>
0.07

>  <JGI3>
0.03

>  <JGI4>
0.05

>  <JGI5>
0.02

>  <Diameter>
13

>  <Radius>
7

>  <TMWC10>
116.78

>  <TSRW10>
55.36

>  <MW>
288.09

>  <AMW>
8.47

>  <WPath>
1151

>  <WPol>
30

>  <Zagreb1>
106

>  <Zagreb2>
119

>  <mZagreb2>
5.11

>  <yes>


>  <nAR-cont>
0.336376

>  <nHA-cont>
0.983774276

>  <MWHBN>
0.353498161

>  <MWHBN-cont>
0.657113875

>  <TPSA-cont>
0.38542613

>  <pka_cont>
0.97

>  <yes.1>


>  <BBB_SCORE>
3.561673349

>  <MMFF94 Energy>
34.971

$$$$
Compound 2080
Actelion Java MolfileCreator 2.0

  0  0  0  0  0  0              0 V3000
M  V30 BEGIN CTAB
M  V30 COUNTS 25 26 0 0 0
M  V30 BEGIN ATOM
M  V30 1 N 5.1764 0.2384 0.6359 0
M  V30 2 C 4.0638 -0.0455 0.8113 0
M  V30 3 C 2.6542 -0.4091 1.071 0
M  V30 4 N 1.7202 0.637 0.6289 0
M  V30 5 C 0.3303 0.2651 0.8762 0 CFG=2
M  V30 6 C -0.3987 -0.3262 -0.3027 0
M  V30 7 C -0.5408 1.5185 1.1277 0
M  V30 8 C -1.7225 0.1417 -0.3364 0
M  V30 9 C 0.0388 -1.2438 -1.2459 0
M  V30 10 C -1.9766 1.11 0.7764 0
M  V30 11 C -2.6245 -0.3014 -1.29 0
M  V30 12 C -0.8597 -1.6864 -2.221 0
M  V30 13 C -2.1825 -1.2211 -2.2408 0
M  V30 14 H 2.4414 -1.3557 0.5645 0
M  V30 15 H 2.534 -0.5796 2.1478 0
M  V30 16 H 1.9402 1.4983 1.128 0
M  V30 17 H 0.2278 -0.4049 1.7403 0
M  V30 18 H -0.235 2.3407 0.4634 0
M  V30 19 H -0.4546 1.8863 2.1557 0
M  V30 20 H 1.0579 -1.6122 -1.2473 0
M  V30 21 H -2.5698 1.9713 0.4569 0
M  V30 22 H -2.4656 0.6042 1.6151 0
M  V30 23 H -3.6479 0.0591 -1.3054 0
M  V30 24 H -0.5302 -2.3994 -2.9729 0
M  V30 25 H -2.867 -1.5791 -3.0058 0
M  V30 END ATOM
M  V30 BEGIN BOND
M  V30 1 3 1 2
M  V30 2 1 2 3
M  V30 3 1 3 4
M  V30 4 1 4 5
M  V30 5 1 5 6
M  V30 6 1 5 7
M  V30 7 2 6 8
M  V30 8 1 6 9
M  V30 9 1 7 10
M  V30 10 1 8 11
M  V30 11 2 9 12
M  V30 12 2 11 13
M  V30 13 1 8 10
M  V30 14 1 12 13
M  V30 15 1 3 14
M  V30 16 1 3 15
M  V30 17 1 4 16
M  V30 18 1 5 17
M  V30 19 1 7 18
M  V30 20 1 7 19
M  V30 21 1 9 20
M  V30 22 1 10 21
M  V30 23 1 10 22
M  V30 24 1 11 23
M  V30 25 1 12 24
M  V30 26 1 13 25
M  V30 END BOND
M  V30 BEGIN COLLECTION
M  V30 MDLV30/STEABS ATOMS=(1 5)
M  V30 END COLLECTION
M  V30 END CTAB
M  END
>  <Column 1>
2562

>  <level_0>
3651

>  <index>
3651

>  <Unnamed: 0>
3651

>  <NO.>
3663

>  <Name>
rasagiline

>  <IUPAC_name>
2-[[(1s)-2-3-dihydro-1h-inden-1-yl]amino]acetonitrile

>  <SMILES>
N#CCN[C@H]1CCc2ccccc21

>  <CID>
93043694

>  <logBB>


>  <BBB+/BBB->
BBB+

>  <Inchi>
InChI=1S/C11H12N2/c12-7-8-13-11-6-5-9-3-1-2-4-10(9)11/h1-4-11-13H-5-6-8H2/t11-/m0/s1

>  <threshold>
-1

>  <reference>
R13|R27|R30|

>  <group>
B

>  <Class>
1

>  <ABC>
9.82

>  <ABCGG>
8.88

>  <nAcid>
0

>  <nBase>
1

>  <nAromAtom>
6

>  <nAromBond>
6

>  <nAtom>
25

>  <nHeavyAtom>
13

>  <nSpiro>
0

>  <nBridgehead>
0

>  <nHetero>
2

>  <nN>
2

>  <nO>
0

>  <nF>
0

>  <BalabanJ>
1.84

>  <BertzCT>
338.19

>  <nBonds>
26

>  <nBondsO>
14

>  <nBondsS>
19

>  <nBondsD>
0

>  <nBondsT>
1

>  <nBondsA>
6

>  <nBondsM>
7

>  <nBondsKS>
22

>  <nBondsKD>
3

>  <RNCG>
0.35

>  <RPCG>
0.14

>  <FCSP3>
0.36

>  <SZ>
15.33

>  <Sm>
14.34

>  <Sv>
15.77

>  <Sse>
24.65

>  <Sp>
17.11

>  <Si>
28.07

>  <MZ>
0.61

>  <Mm>
0.57

>  <Mv>
0.63

>  <Mse>
0.99

>  <Mp>
0.68

>  <Mi>
1.12

>  <NsCH3>
0

>  <NdCH2>
0

>  <NssCH2>
3

>  <NtCH>
0

>  <NdsCH>
0

>  <NaaCH>
4

>  <NsssCH>
1

>  <NddC>
0

>  <NtsC>
1

>  <NdssC>
0

>  <NaasC>
2

>  <NaaaC>
0

>  <NssssC>
0

>  <NsNH3>
0

>  <NsNH2>
0

>  <NssNH2>
0

>  <NdNH>
0

>  <NssNH>
1

>  <NaaNH>
0

>  <NtN>
1

>  <NsssNH>
0

>  <NdsN>
0

>  <NaaN>
0

>  <NsssN>
0

>  <NddsN>
0

>  <NaasN>
0

>  <NssssN>
0

>  <NsOH>
0

>  <NdO>
0

>  <NssO>
0

>  <NaaO>
0

>  <NsF>
0

>  <NsSiH3>
0

>  <NssSiH2>
0

>  <NsssSiH>
0

>  <NssssSi>
0

>  <NsPH2>
0

>  <NssPH>
0

>  <NsssP>
0

>  <NdsssP>
0

>  <NsssssP>
0

>  <NsSH>
0

>  <NdS>
0

>  <NssS>
0

>  <NaaS>
0

>  <NdssS>
0

>  <NddssS>
0

>  <NsCl>
0

>  <NsBr>
0

>  <NsI>
0

>  <fragCpx>
40.02

>  <fMF>
0.36

>  <nHBAcc>
2

>  <nHBDon>
1

>  <Kier1>
9.55

>  <Kier2>
4.48

>  <Lipinski>
1

>  <GhoseFilter>
1

>  <FilterItLogS>
-2.93

>  <VMcGowan>
142.59

>  <LabuteASA>
78.19

>  <PEOE_VSA1>
0

>  <PEOE_VSA2>
5.32

>  <PEOE_VSA3>
0

>  <PEOE_VSA4>
5.26

>  <PEOE_VSA5>
0

>  <PEOE_VSA6>
24.27

>  <PEOE_VSA7>
23.97

>  <PEOE_VSA8>
6.04

>  <PEOE_VSA9>
12.61

>  <PEOE_VSA10>
0

>  <PEOE_VSA11>
0

>  <PEOE_VSA12>
0

>  <PEOE_VSA13>
0

>  <SMR_VSA1>
0

>  <SMR_VSA2>
5.26

>  <SMR_VSA3>
5.32

>  <SMR_VSA4>
0

>  <SMR_VSA5>
18.88

>  <SMR_VSA6>
6.54

>  <SMR_VSA7>
35.39

>  <SMR_VSA8>
0

>  <SMR_VSA9>
6.07

>  <SlogP_VSA1>
5.32

>  <SlogP_VSA2>
6.54

>  <SlogP_VSA3>
6.42

>  <SlogP_VSA4>
11.33

>  <SlogP_VSA5>
23.59

>  <SlogP_VSA6>
24.27

>  <SlogP_VSA7>
0

>  <SlogP_VSA8>
0

>  <SlogP_VSA9>
0

>  <SlogP_VSA10>
0

>  <SlogP_VSA11>
0

>  <EState_VSA1>
0

>  <EState_VSA2>
0

>  <EState_VSA3>
12.59

>  <EState_VSA4>
12.84

>  <EState_VSA5>
11.13

>  <EState_VSA6>
0

>  <EState_VSA7>
0

>  <EState_VSA8>
35.65

>  <EState_VSA9>
5.26

>  <EState_VSA10>
0

>  <VSA_EState1>
0

>  <VSA_EState2>
0

>  <VSA_EState3>
11.69

>  <VSA_EState4>
2.8

>  <VSA_EState5>
0

>  <VSA_EState6>
10.97

>  <VSA_EState7>
2.26

>  <VSA_EState8>
0.44

>  <VSA_EState9>
0

>  <apol>
28.57

>  <bpol>
13.18

>  <nRing>
2

>  <nHRing>
0

>  <naRing>
1

>  <naHRing>
0

>  <nARing 2>
1

>  <nAHRing 2>
0

>  <nFRing>
1

>  <nFHRing>
0

>  <nFaRing>
0

>  <nFaHRing>
0

>  <nFARing 2>
1

>  <nFAHRing 2>
0

>  <nRot>
2

>  <SLogP>
1.79

>  <SMR>
51.12

>  <TopoPSA(NO)>
35.82

>  <TopoPSA>
35.82

>  <JGI1>
0.11

>  <JGI2>
0.07

>  <JGI3>
0.05

>  <JGI4>
0.02

>  <JGI5>
0.02

>  <Diameter>
8

>  <Radius>
4

>  <TMWC10>
95.33

>  <TSRW10>
57.94

>  <MW>
172.1

>  <AMW>
6.88

>  <WPath>
251

>  <WPol>
16

>  <Zagreb1>
64

>  <Zagreb2>
74

>  <mZagreb2>
3.06

>  <yes>


>  <nAR-cont>
0.816016

>  <nHA-cont>
0.841215992

>  <MWHBN>
0.228681388

>  <MWHBN-cont>
0.988062385

>  <TPSA-cont>
0.749954157

>  <pka_cont>
0.97

>  <yes.1>


>  <BBB_SCORE>
5.124233885

>  <MMFF94 Energy>
45.089

$$$$
Compound 2081
Actelion Java MolfileCreator 2.0

  0  0  0  0  0  0              0 V3000
M  V30 BEGIN CTAB
M  V30 COUNTS 21 22 0 0 0
M  V30 BEGIN ATOM
M  V30 1 O -0.3179 -1.1925 2.7047 0
M  V30 2 C 0.5752 -0.7242 2.0117 0
M  V30 3 N 1.8613 -1.1917 1.9645 0
M  V30 4 C 0.44 0.4846 1.1018 0 CFG=1
M  V30 5 C 2.4716 -0.4087 1.1569 0
M  V30 6 O 1.7788 0.6039 0.5943 0
M  V30 7 C -0.5893 0.3355 0.0014 0
M  V30 8 N 3.7568 -0.4547 0.7801 0
M  V30 9 C -0.2354 0.3314 -1.3571 0
M  V30 10 C -1.9497 0.2211 0.3352 0
M  V30 11 C -1.2107 0.2062 -2.3495 0
M  V30 12 C -2.923 0.0949 -0.6578 0
M  V30 13 C -2.5533 0.0873 -1.9998 0
M  V30 14 H 0.2327 1.3771 1.7025 0
M  V30 15 H 4.3579 -1.1801 1.1453 0
M  V30 16 H 4.1305 0.2231 0.1327 0
M  V30 17 H 0.8044 0.4262 -1.6622 0
M  V30 18 H -2.2645 0.2194 1.3783 0
M  V30 19 H -0.9209 0.2015 -3.3972 0
M  V30 20 H -3.9702 -7.0E-4 -0.3814 0
M  V30 21 H -3.3109 -0.0125 -2.7725 0
M  V30 END ATOM
M  V30 BEGIN BOND
M  V30 1 2 1 2
M  V30 2 1 2 3
M  V30 3 1 2 4
M  V30 4 2 3 5
M  V30 5 1 4 6
M  V30 6 1 4 7
M  V30 7 1 5 8
M  V30 8 2 7 9
M  V30 9 1 7 10
M  V30 10 1 9 11
M  V30 11 2 10 12
M  V30 12 2 11 13
M  V30 13 1 5 6
M  V30 14 1 12 13
M  V30 15 1 4 14
M  V30 16 1 8 15
M  V30 17 1 8 16
M  V30 18 1 9 17
M  V30 19 1 10 18
M  V30 20 1 11 19
M  V30 21 1 12 20
M  V30 22 1 13 21
M  V30 END BOND
M  V30 BEGIN COLLECTION
M  V30 MDLV30/STEABS ATOMS=(1 4)
M  V30 END COLLECTION
M  V30 END CTAB
M  END
>  <Column 1>
2563

>  <level_0>
3652

>  <index>
3652

>  <Unnamed: 0>
3652

>  <NO.>
3664

>  <Name>
pemoline

>  <IUPAC_name>
(5s)-2-imino-5-phenyl-1-3-oxazolidin-4-one

>  <SMILES>
NC1=NC(=O)[C@H](c2ccccc2)O1

>  <CID>
906180

>  <logBB>


>  <BBB+/BBB->
BBB+

>  <Inchi>
InChI=1S/C9H8N2O2/c10-9-11-8(12)7(13-9)6-4-2-1-3-5-6/h1-5-7H-(H2-10-11-12)/t7-/m0/s1

>  <threshold>
-1

>  <reference>
R13|R27|R30|

>  <group>
B

>  <Class>
1

>  <ABC>
10.04

>  <ABCGG>
9.17

>  <nAcid>
0

>  <nBase>
2

>  <nAromAtom>
6

>  <nAromBond>
6

>  <nAtom>
21

>  <nHeavyAtom>
13

>  <nSpiro>
0

>  <nBridgehead>
0

>  <nHetero>
4

>  <nN>
2

>  <nO>
2

>  <nF>
0

>  <BalabanJ>
1.91

>  <BertzCT>
359.14

>  <nBonds>
22

>  <nBondsO>
14

>  <nBondsS>
14

>  <nBondsD>
2

>  <nBondsT>
0

>  <nBondsA>
6

>  <nBondsM>
8

>  <nBondsKS>
17

>  <nBondsKD>
5

>  <RNCG>
0.29

>  <RPCG>
0.19

>  <FCSP3>
0.11

>  <SZ>
15.33

>  <Sm>
14.67

>  <Sv>
14.11

>  <Sse>
21.54

>  <Sp>
14.47

>  <Si>
23.66

>  <MZ>
0.73

>  <Mm>
0.7

>  <Mv>
0.67

>  <Mse>
1.03

>  <Mp>
0.69

>  <Mi>
1.13

>  <NsCH3>
0

>  <NdCH2>
0

>  <NssCH2>
0

>  <NtCH>
0

>  <NdsCH>
0

>  <NaaCH>
5

>  <NsssCH>
1

>  <NddC>
0

>  <NtsC>
0

>  <NdssC>
2

>  <NaasC>
1

>  <NaaaC>
0

>  <NssssC>
0

>  <NsNH3>
0

>  <NsNH2>
1

>  <NssNH2>
0

>  <NdNH>
0

>  <NssNH>
0

>  <NaaNH>
0

>  <NtN>
0

>  <NsssNH>
0

>  <NdsN>
1

>  <NaaN>
0

>  <NsssN>
0

>  <NddsN>
0

>  <NaasN>
0

>  <NssssN>
0

>  <NsOH>
0

>  <NdO>
1

>  <NssO>
1

>  <NaaO>
0

>  <NsF>
0

>  <NsSiH3>
0

>  <NssSiH2>
0

>  <NsssSiH>
0

>  <NssssSi>
0

>  <NsPH2>
0

>  <NssPH>
0

>  <NsssP>
0

>  <NdsssP>
0

>  <NsssssP>
0

>  <NsSH>
0

>  <NdS>
0

>  <NssS>
0

>  <NaaS>
0

>  <NdssS>
0

>  <NddssS>
0

>  <NsCl>
0

>  <NsBr>
0

>  <NsI>
0

>  <fragCpx>
40.04

>  <fMF>
0.52

>  <nHBAcc>
3

>  <nHBDon>
1

>  <Kier1>
9.55

>  <Kier2>
4.02

>  <Lipinski>
1

>  <GhoseFilter>
1

>  <FilterItLogS>
-1.54

>  <VMcGowan>
126.15

>  <LabuteASA>
75.03

>  <PEOE_VSA1>
10.47

>  <PEOE_VSA2>
4.79

>  <PEOE_VSA3>
0

>  <PEOE_VSA4>
4.99

>  <PEOE_VSA5>
0

>  <PEOE_VSA6>
30.33

>  <PEOE_VSA7>
0

>  <PEOE_VSA8>
5.56

>  <PEOE_VSA9>
0

>  <PEOE_VSA10>
0

>  <PEOE_VSA11>
0

>  <PEOE_VSA12>
6.1

>  <PEOE_VSA13>
11.93

>  <SMR_VSA1>
9.53

>  <SMR_VSA2>
0

>  <SMR_VSA3>
0

>  <SMR_VSA4>
10.73

>  <SMR_VSA5>
6.1

>  <SMR_VSA6>
0

>  <SMR_VSA7>
35.9

>  <SMR_VSA8>
0

>  <SMR_VSA9>
0

>  <SlogP_VSA1>
5.73

>  <SlogP_VSA2>
11.93

>  <SlogP_VSA3>
9.53

>  <SlogP_VSA4>
0

>  <SlogP_VSA5>
11.67

>  <SlogP_VSA6>
35.32

>  <SlogP_VSA7>
0

>  <SlogP_VSA8>
0

>  <SlogP_VSA9>
0

>  <SlogP_VSA10>
0

>  <SlogP_VSA11>
0

>  <EState_VSA1>
6.1

>  <EState_VSA2>
11.93

>  <EState_VSA3>
0

>  <EState_VSA4>
5.56

>  <EState_VSA5>
0

>  <EState_VSA6>
12.13

>  <EState_VSA7>
18.2

>  <EState_VSA8>
4.99

>  <EState_VSA9>
10.47

>  <EState_VSA10>
4.79

>  <VSA_EState1>
5.04

>  <VSA_EState2>
14.67

>  <VSA_EState3>
0

>  <VSA_EState4>
6.03

>  <VSA_EState5>
-0.34

>  <VSA_EState6>
9.08

>  <VSA_EState7>
-0.65

>  <VSA_EState8>
0

>  <VSA_EState9>
0

>  <apol>
24.17

>  <bpol>
11.2

>  <nRing>
2

>  <nHRing>
1

>  <naRing>
1

>  <naHRing>
0

>  <nARing 2>
1

>  <nAHRing 2>
1

>  <nFRing>
0

>  <nFHRing>
0

>  <nFaRing>
0

>  <nFaHRing>
0

>  <nFARing 2>
0

>  <nFAHRing 2>
0

>  <nRot>
1

>  <SLogP>
0.6

>  <SMR>
46.9

>  <TopoPSA(NO)>
64.68

>  <TopoPSA>
64.68

>  <JGI1>
0.18

>  <JGI2>
0.07

>  <JGI3>
0.07

>  <JGI4>
0.03

>  <JGI5>
0.03

>  <Diameter>
7

>  <Radius>
4

>  <TMWC10>
95.54

>  <TSRW10>
58.06

>  <MW>
176.06

>  <AMW>
8.38

>  <WPath>
239

>  <WPol>
16

>  <Zagreb1>
66

>  <Zagreb2>
76

>  <mZagreb2>
2.89

>  <yes>


>  <nAR-cont>
0.816016

>  <nHA-cont>
0.841215992

>  <MWHBN>
0.301459964

>  <MWHBN-cont>
0.836354914

>  <TPSA-cont>
0.548493436

>  <pka_cont>
0.97

>  <yes.1>


>  <BBB_SCORE>
4.493751235

>  <MMFF94 Energy>
-26.235

$$$$
Compound 2082
Actelion Java MolfileCreator 2.0

  0  0  0  0  0  0              0 V3000
M  V30 BEGIN CTAB
M  V30 COUNTS 32 33 0 0 0
M  V30 BEGIN ATOM
M  V30 1 S 0.0803 -0.8033 1.0444 0
M  V30 2 C 0.1606 0.986 0.8777 0
M  V30 3 C 0.2093 -1.3994 -0.6435 0
M  V30 4 C 0.8788 1.7742 1.8054 0
M  V30 5 C -0.5474 1.6157 -0.1613 0
M  V30 6 C -0.6984 -2.3412 -1.1712 0
M  V30 7 C 1.2646 -0.9343 -1.4477 0
M  V30 8 C 0.882 3.1726 1.6404 0
M  V30 9 C 1.6322 1.1379 2.9527 0
M  V30 10 C -0.5284 3.0027 -0.3058 0
M  V30 11 C -0.5499 -2.7485 -2.5116 0
M  V30 12 C -1.8559 -2.9037 -0.3803 0
M  V30 13 C 1.4044 -1.3631 -2.7677 0
M  V30 14 C 0.1886 3.7807 0.5937 0
M  V30 15 O 2.3284 2.094 3.7482 0
M  V30 16 C 0.4928 -2.2656 -3.3017 0
M  V30 17 N -3.0054 -2.0054 -0.4041 0
M  V30 18 H -1.1312 1.033 -0.871 0
M  V30 19 H 1.9904 -0.2269 -1.0519 0
M  V30 20 H 1.4308 3.8042 2.3373 0
M  V30 21 H 0.931 0.6138 3.6103 0
M  V30 22 H 2.3773 0.4362 2.564 0
M  V30 23 H -1.0777 3.4723 -1.1175 0
M  V30 24 H -1.2614 -3.447 -2.9484 0
M  V30 25 H -2.1567 -3.8704 -0.8019 0
M  V30 26 H -1.5568 -3.1183 0.6513 0
M  V30 27 H 2.2215 -0.9868 -3.3775 0
M  V30 28 H 0.2064 4.8624 0.4885 0
M  V30 29 H 2.7712 1.5927 4.4531 0
M  V30 30 H 0.59 -2.5942 -4.3332 0
M  V30 31 H -2.732 -1.1277 0.0385 0
M  V30 32 H -3.739 -2.3952 0.1844 0
M  V30 END ATOM
M  V30 BEGIN BOND
M  V30 1 1 1 2
M  V30 2 1 1 3
M  V30 3 2 2 4
M  V30 4 1 2 5
M  V30 5 2 3 6
M  V30 6 1 3 7
M  V30 7 1 4 8
M  V30 8 1 4 9
M  V30 9 2 5 10
M  V30 10 1 6 11
M  V30 11 1 6 12
M  V30 12 2 7 13
M  V30 13 2 8 14
M  V30 14 1 9 15
M  V30 15 2 11 16
M  V30 16 1 12 17
M  V30 17 1 10 14
M  V30 18 1 13 16
M  V30 19 1 5 18
M  V30 20 1 7 19
M  V30 21 1 8 20
M  V30 22 1 9 21
M  V30 23 1 9 22
M  V30 24 1 10 23
M  V30 25 1 11 24
M  V30 26 1 12 25
M  V30 27 1 12 26
M  V30 28 1 13 27
M  V30 29 1 14 28
M  V30 30 1 15 29
M  V30 31 1 16 30
M  V30 32 1 17 31
M  V30 33 1 17 32
M  V30 END BOND
M  V30 END CTAB
M  END
>  <Column 1>
2566

>  <level_0>
3678

>  <index>
3678

>  <Unnamed: 0>
3678

>  <NO.>
3690

>  <Name>
bipenamol

>  <IUPAC_name>
[2-[2-(aminomethyl)phenyl]sulfanylphenyl]methanol

>  <SMILES>
NCc1ccccc1Sc1ccccc1CO

>  <CID>
43961

>  <logBB>


>  <BBB+/BBB->
BBB+

>  <Inchi>
InChI=1S/C14H15NOS/c15-9-11-5-1-3-7-13(11)17-14-8-4-2-6-12(14)10-16/h1-8-16H-9-10-15H2

>  <threshold>
-1

>  <reference>
R13|R19|R6|R24|R27|R27|R30|

>  <group>
B

>  <Class>
-1

>  <ABC>
12.65

>  <ABCGG>
11.04

>  <nAcid>
0

>  <nBase>
1

>  <nAromAtom>
12

>  <nAromBond>
12

>  <nAtom>
32

>  <nHeavyAtom>
17

>  <nSpiro>
0

>  <nBridgehead>
0

>  <nHetero>
3

>  <nN>
1

>  <nO>
1

>  <nF>
0

>  <BalabanJ>
1.88

>  <BertzCT>
453.59

>  <nBonds>
33

>  <nBondsO>
18

>  <nBondsS>
21

>  <nBondsD>
0

>  <nBondsT>
0

>  <nBondsA>
12

>  <nBondsM>
12

>  <nBondsKS>
27

>  <nBondsKD>
6

>  <RNCG>
0.3

>  <RPCG>
0.16

>  <FCSP3>
0.14

>  <SZ>
21.67

>  <Sm>
20.43

>  <Sv>
20.72

>  <Sse>
31.73

>  <Sp>
22.86

>  <Si>
35.53

>  <MZ>
0.68

>  <Mm>
0.64

>  <Mv>
0.65

>  <Mse>
0.99

>  <Mp>
0.71

>  <Mi>
1.11

>  <NsCH3>
0

>  <NdCH2>
0

>  <NssCH2>
2

>  <NtCH>
0

>  <NdsCH>
0

>  <NaaCH>
8

>  <NsssCH>
0

>  <NddC>
0

>  <NtsC>
0

>  <NdssC>
0

>  <NaasC>
4

>  <NaaaC>
0

>  <NssssC>
0

>  <NsNH3>
0

>  <NsNH2>
1

>  <NssNH2>
0

>  <NdNH>
0

>  <NssNH>
0

>  <NaaNH>
0

>  <NtN>
0

>  <NsssNH>
0

>  <NdsN>
0

>  <NaaN>
0

>  <NsssN>
0

>  <NddsN>
0

>  <NaasN>
0

>  <NssssN>
0

>  <NsOH>
1

>  <NdO>
0

>  <NssO>
0

>  <NaaO>
0

>  <NsF>
0

>  <NsSiH3>
0

>  <NssSiH2>
0

>  <NsssSiH>
0

>  <NssssSi>
0

>  <NsPH2>
0

>  <NssPH>
0

>  <NsssP>
0

>  <NdsssP>
0

>  <NsssssP>
0

>  <NsSH>
0

>  <NdS>
0

>  <NssS>
1

>  <NaaS>
0

>  <NdssS>
0

>  <NddssS>
0

>  <NsCl>
0

>  <NsBr>
0

>  <NsI>
0

>  <fragCpx>
52.03

>  <fMF>
0.41

>  <nHBAcc>
3

>  <nHBDon>
2

>  <Kier1>
13.43

>  <Kier2>
6.81

>  <Lipinski>
1

>  <GhoseFilter>
1

>  <FilterItLogS>
-3.7

>  <VMcGowan>
192.8

>  <LabuteASA>
105.48

>  <PEOE_VSA1>
10.84

>  <PEOE_VSA2>
0

>  <PEOE_VSA3>
0

>  <PEOE_VSA4>
0

>  <PEOE_VSA5>
0

>  <PEOE_VSA6>
48.16

>  <PEOE_VSA7>
23.26

>  <PEOE_VSA8>
16.34

>  <PEOE_VSA9>
6.61

>  <PEOE_VSA10>
0

>  <PEOE_VSA11>
0

>  <PEOE_VSA12>
0

>  <PEOE_VSA13>
0

>  <SMR_VSA1>
5.11

>  <SMR_VSA2>
0

>  <SMR_VSA3>
0

>  <SMR_VSA4>
5.73

>  <SMR_VSA5>
22.94

>  <SMR_VSA6>
0

>  <SMR_VSA7>
59.66

>  <SMR_VSA8>
0

>  <SMR_VSA9>
0

>  <SlogP_VSA1>
5.73

>  <SlogP_VSA2>
5.11

>  <SlogP_VSA3>
13.15

>  <SlogP_VSA4>
0

>  <SlogP_VSA5>
11.13

>  <SlogP_VSA6>
58.32

>  <SlogP_VSA7>
0

>  <SlogP_VSA8>
0

>  <SlogP_VSA9>
0

>  <SlogP_VSA10>
0

>  <SlogP_VSA11>
0

>  <EState_VSA1>
0

>  <EState_VSA2>
6.61

>  <EState_VSA3>
6.54

>  <EState_VSA4>
20.92

>  <EState_VSA5>
0

>  <EState_VSA6>
11.76

>  <EState_VSA7>
42.46

>  <EState_VSA8>
6.07

>  <EState_VSA9>
5.73

>  <EState_VSA10>
5.11

>  <VSA_EState1>
0

>  <VSA_EState2>
2.23

>  <VSA_EState3>
9.28

>  <VSA_EState4>
7.79

>  <VSA_EState5>
0

>  <VSA_EState6>
15.95

>  <VSA_EState7>
0

>  <VSA_EState8>
0.6

>  <VSA_EState9>
0

>  <apol>
38.18

>  <bpol>
16.94

>  <nRing>
2

>  <nHRing>
0

>  <naRing>
2

>  <naHRing>
0

>  <nARing 2>
0

>  <nAHRing 2>
0

>  <nFRing>
0

>  <nFHRing>
0

>  <nFaRing>
0

>  <nFaHRing>
0

>  <nFARing 2>
0

>  <nFAHRing 2>
0

>  <nRot>
4

>  <SLogP>
2.79

>  <SMR>
70.82

>  <TopoPSA(NO)>
46.25

>  <TopoPSA>
71.55

>  <JGI1>
0.14

>  <JGI2>
0.08

>  <JGI3>
0.03

>  <JGI4>
0.04

>  <JGI5>
0.02

>  <Diameter>
8

>  <Radius>
4

>  <TMWC10>
104.96

>  <TSRW10>
49.25

>  <MW>
245.09

>  <AMW>
7.66

>  <WPath>
524

>  <WPol>
24

>  <Zagreb1>
82

>  <Zagreb2>
94

>  <mZagreb2>
4.06

>  <yes>


>  <nAR-cont>
0.336376

>  <nHA-cont>
0.976740822

>  <MWHBN>
0.319379626

>  <MWHBN-cont>
0.779241907

>  <TPSA-cont>
0.50053657

>  <pka_cont>
0.97

>  <yes.1>


>  <BBB_SCORE>
3.968052823

>  <MMFF94 Energy>
37.366

$$$$
Compound 2083
Actelion Java MolfileCreator 2.0

  0  0  0  0  0  0              0 V3000
M  V30 BEGIN CTAB
M  V30 COUNTS 47 50 0 0 0
M  V30 BEGIN ATOM
M  V30 1 O 1.2829 2.808 1.7643 0
M  V30 2 C 0.984 1.6805 1.3657 0
M  V30 3 N 1.6782 0.5452 1.7507 0
M  V30 4 C -0.2149 1.5031 0.4167 0
M  V30 5 C 1.4288 -0.7617 1.1181 0 CFG=1
M  V30 6 C 2.8201 0.6586 2.6482 0
M  V30 7 N -0.5726 0.1484 -0.0027 0
M  V30 8 C 2.0004 -1.942 1.8981 0
M  V30 9 C -0.0792 -0.9314 0.8527 0
M  V30 10 C 2.7435 -0.3911 3.7496 0
M  V30 11 C -1.4666 -0.1524 -1.0203 0
M  V30 12 C 2.6195 -1.7684 3.1517 0
M  V30 13 C 1.9385 -3.237 1.3532 0
M  V30 14 O -1.7972 -1.315 -1.2614 0
M  V30 15 C -1.9993 1.0007 -1.8756 0
M  V30 16 C 3.1017 -2.8796 3.8581 0
M  V30 17 C 2.4364 -4.3352 2.0558 0
M  V30 18 C -1.0277 1.2729 -3.0328 0
M  V30 19 C -3.3979 0.6742 -2.4237 0
M  V30 20 C 3.01 -4.1574 3.3107 0
M  V30 21 C -1.5413 2.3831 -3.9469 0
M  V30 22 C -3.9169 1.788 -3.3302 0
M  V30 23 C -2.9436 2.0823 -4.4679 0
M  V30 24 H -1.0933 1.9179 0.9253 0
M  V30 25 H -0.0127 2.1141 -0.4668 0
M  V30 26 H 1.9608 -0.7182 0.1572 0
M  V30 27 H 3.7249 0.529 2.0412 0
M  V30 28 H 2.8691 1.6561 3.097 0
M  V30 29 H -0.6475 -0.8848 1.7911 0
M  V30 30 H -0.2937 -1.9027 0.3976 0
M  V30 31 H 1.8716 -0.2097 4.3898 0
M  V30 32 H 3.6438 -0.323 4.371 0
M  V30 33 H 1.4987 -3.4057 0.3715 0
M  V30 34 H -2.0981 1.9003 -1.2581 0
M  V30 35 H 3.5602 -2.753 4.8366 0
M  V30 36 H 2.3733 -5.3307 1.6232 0
M  V30 37 H -0.8847 0.3561 -3.6202 0
M  V30 38 H -0.0367 1.5455 -2.6538 0
M  V30 39 H -3.3779 -0.2662 -2.9894 0
M  V30 40 H -4.0968 0.5218 -1.5921 0
M  V30 41 H 3.3922 -5.0136 3.8606 0
M  V30 42 H -0.855 2.5118 -4.7915 0
M  V30 43 H -1.5519 3.332 -3.3963 0
M  V30 44 H -4.8913 1.5035 -3.7431 0
M  V30 45 H -4.0739 2.6981 -2.7381 0
M  V30 46 H -3.3091 2.9316 -5.0561 0
M  V30 47 H -2.9029 1.2193 -5.1439 0
M  V30 END ATOM
M  V30 BEGIN BOND
M  V30 1 2 1 2
M  V30 2 1 2 3
M  V30 3 1 2 4
M  V30 4 1 3 5
M  V30 5 1 3 6
M  V30 6 1 4 7
M  V30 7 1 5 8
M  V30 8 1 5 9
M  V30 9 1 6 10
M  V30 10 1 7 11
M  V30 11 2 8 12
M  V30 12 1 8 13
M  V30 13 2 11 14
M  V30 14 1 11 15
M  V30 15 1 12 16
M  V30 16 2 13 17
M  V30 17 1 15 18
M  V30 18 1 15 19
M  V30 19 2 16 20
M  V30 20 1 18 21
M  V30 21 1 19 22
M  V30 22 1 21 23
M  V30 23 1 7 9
M  V30 24 1 10 12
M  V30 25 1 17 20
M  V30 26 1 22 23
M  V30 27 1 4 24
M  V30 28 1 4 25
M  V30 29 1 5 26
M  V30 30 1 6 27
M  V30 31 1 6 28
M  V30 32 1 9 29
M  V30 33 1 9 30
M  V30 34 1 10 31
M  V30 35 1 10 32
M  V30 36 1 13 33
M  V30 37 1 15 34
M  V30 38 1 16 35
M  V30 39 1 17 36
M  V30 40 1 18 37
M  V30 41 1 18 38
M  V30 42 1 19 39
M  V30 43 1 19 40
M  V30 44 1 20 41
M  V30 45 1 21 42
M  V30 46 1 21 43
M  V30 47 1 22 44
M  V30 48 1 22 45
M  V30 49 1 23 46
M  V30 50 1 23 47
M  V30 END BOND
M  V30 BEGIN COLLECTION
M  V30 MDLV30/STEABS ATOMS=(1 5)
M  V30 END COLLECTION
M  V30 END CTAB
M  END
>  <Column 1>
2571

>  <level_0>
3702

>  <index>
3702

>  <Unnamed: 0>
3702

>  <NO.>
3714

>  <Name>
(s)-praziquantel

>  <IUPAC_name>
(11bs)-2-(cyclohexanecarbonyl)-3-6-7-11b-tetrahydro-1h-pyrazino[2-1-a]isoquinolin-4-one

>  <SMILES>
O=C(C1CCCCC1)N1CC(=O)N2CCc3ccccc3[C@H]2C1

>  <CID>
1917817

>  <logBB>


>  <BBB+/BBB->
BBB+

>  <Inchi>
InChI=1S/C19H24N2O2/c22-18-13-20(19(23)15-7-2-1-3-8-15)12-17-16-9-5-4-6-14(16)10-11-21(17)18/h4-6-9-15-17H-1-3-7-8-10-13H2/t17-/m1/s1

>  <threshold>
-1

>  <reference>
R13|R9|R24|

>  <group>
B

>  <Class>
1

>  <ABC>
18.36

>  <ABCGG>
14.01

>  <nAcid>
0

>  <nBase>
0

>  <nAromAtom>
6

>  <nAromBond>
6

>  <nAtom>
47

>  <nHeavyAtom>
23

>  <nSpiro>
0

>  <nBridgehead>
0

>  <nHetero>
4

>  <nN>
2

>  <nO>
2

>  <nF>
0

>  <BalabanJ>
1.46

>  <BertzCT>
621.55

>  <nBonds>
50

>  <nBondsO>
26

>  <nBondsS>
42

>  <nBondsD>
2

>  <nBondsT>
0

>  <nBondsA>
6

>  <nBondsM>
8

>  <nBondsKS>
45

>  <nBondsKD>
5

>  <RNCG>
0.19

>  <RPCG>
0.14

>  <FCSP3>
0.58

>  <SZ>
28

>  <Sm>
26.01

>  <Sv>
28.45

>  <Sse>
46.64

>  <Sp>
30.86

>  <Si>
52.98

>  <MZ>
0.6

>  <Mm>
0.55

>  <Mv>
0.61

>  <Mse>
0.99

>  <Mp>
0.66

>  <Mi>
1.13

>  <NsCH3>
0

>  <NdCH2>
0

>  <NssCH2>
9

>  <NtCH>
0

>  <NdsCH>
0

>  <NaaCH>
4

>  <NsssCH>
2

>  <NddC>
0

>  <NtsC>
0

>  <NdssC>
2

>  <NaasC>
2

>  <NaaaC>
0

>  <NssssC>
0

>  <NsNH3>
0

>  <NsNH2>
0

>  <NssNH2>
0

>  <NdNH>
0

>  <NssNH>
0

>  <NaaNH>
0

>  <NtN>
0

>  <NsssNH>
0

>  <NdsN>
0

>  <NaaN>
0

>  <NsssN>
2

>  <NddsN>
0

>  <NaasN>
0

>  <NssssN>
0

>  <NsOH>
0

>  <NdO>
2

>  <NssO>
0

>  <NaaO>
0

>  <NsF>
0

>  <NsSiH3>
0

>  <NssSiH2>
0

>  <NsssSiH>
0

>  <NssssSi>
0

>  <NsPH2>
0

>  <NssPH>
0

>  <NsssP>
0

>  <NdsssP>
0

>  <NsssssP>
0

>  <NsSH>
0

>  <NdS>
0

>  <NssS>
0

>  <NaaS>
0

>  <NdssS>
0

>  <NddssS>
0

>  <NsCl>
0

>  <NsBr>
0

>  <NsI>
0

>  <fragCpx>
170.04

>  <fMF>
0.45

>  <nHBAcc>
2

>  <nHBDon>
0

>  <Kier1>
16.47

>  <Kier2>
7.09

>  <Lipinski>
1

>  <GhoseFilter>
1

>  <FilterItLogS>
-3.15

>  <VMcGowan>
245.33

>  <LabuteASA>
137

>  <PEOE_VSA1>
9.8

>  <PEOE_VSA2>
9.59

>  <PEOE_VSA3>
0

>  <PEOE_VSA4>
0

>  <PEOE_VSA5>
0

>  <PEOE_VSA6>
43.53

>  <PEOE_VSA7>
30.39

>  <PEOE_VSA8>
19.01

>  <PEOE_VSA9>
12.59

>  <PEOE_VSA10>
0

>  <PEOE_VSA11>
0

>  <PEOE_VSA12>
11.81

>  <PEOE_VSA13>
0

>  <SMR_VSA1>
9.59

>  <SMR_VSA2>
0

>  <SMR_VSA3>
9.8

>  <SMR_VSA4>
5.92

>  <SMR_VSA5>
44.57

>  <SMR_VSA6>
19.63

>  <SMR_VSA7>
35.39

>  <SMR_VSA8>
0

>  <SMR_VSA9>
0

>  <SlogP_VSA1>
0

>  <SlogP_VSA2>
41.25

>  <SlogP_VSA3>
16.01

>  <SlogP_VSA4>
5.92

>  <SlogP_VSA5>
49.27

>  <SlogP_VSA6>
24.27

>  <SlogP_VSA7>
0

>  <SlogP_VSA8>
0

>  <SlogP_VSA9>
0

>  <SlogP_VSA10>
0

>  <SlogP_VSA11>
0

>  <EState_VSA1>
0

>  <EState_VSA2>
30.32

>  <EState_VSA3>
6.54

>  <EState_VSA4>
38.65

>  <EState_VSA5>
17.55

>  <EState_VSA6>
0

>  <EState_VSA7>
15.87

>  <EState_VSA8>
18.2

>  <EState_VSA9>
0

>  <EState_VSA10>
9.59

>  <VSA_EState1>
0

>  <VSA_EState2>
29.22

>  <VSA_EState3>
0

>  <VSA_EState4>
2.56

>  <VSA_EState5>
0.46

>  <VSA_EState6>
8.42

>  <VSA_EState7>
6.46

>  <VSA_EState8>
1.72

>  <VSA_EState9>
0

>  <apol>
51.54

>  <bpol>
29.23

>  <nRing>
4

>  <nHRing>
2

>  <naRing>
1

>  <naHRing>
0

>  <nARing 2>
3

>  <nAHRing 2>
2

>  <nFRing>
1

>  <nFHRing>
1

>  <nFaRing>
0

>  <nFaHRing>
0

>  <nFARing 2>
1

>  <nFAHRing 2>
1

>  <nRot>
1

>  <SLogP>
2.53

>  <SMR>
87.76

>  <TopoPSA(NO)>
40.62

>  <TopoPSA>
40.62

>  <JGI1>
0.13

>  <JGI2>
0.08

>  <JGI3>
0.04

>  <JGI4>
0.04

>  <JGI5>
0.03

>  <Diameter>
11

>  <Radius>
6

>  <TMWC10>
124.76

>  <TSRW10>
57.87

>  <MW>
312.18

>  <AMW>
6.64

>  <WPath>
1134

>  <WPol>
40

>  <Zagreb1>
126

>  <Zagreb2>
152

>  <mZagreb2>
5

>  <yes>


>  <nAR-cont>
0.691115

>  <nHA-cont>
0.967789328

>  <MWHBN>
0.113195056

>  <MWHBN-cont>
0.798615232

>  <TPSA-cont>
0.716447176

>  <pka_cont>
0.97

>  <yes.1>


>  <BBB_SCORE>
4.774721529

>  <MMFF94 Energy>
77.567

$$$$
Compound 2084
Actelion Java MolfileCreator 2.0

  0  0  0  0  0  0              0 V3000
M  V30 BEGIN CTAB
M  V30 COUNTS 48 51 0 0 0
M  V30 BEGIN ATOM
M  V30 1 Cl 2.4747 -3.1354 -2.6399 0
M  V30 2 C 2.0138 -1.536 -3.105 0
M  V30 3 C 2.8541 -0.7009 -3.8465 0
M  V30 4 C 0.7471 -1.0823 -2.7197 0
M  V30 5 Cl 4.4316 -1.1862 -4.3575 0
M  V30 6 C 2.4203 0.5783 -4.2045 0
M  V30 7 C 0.3112 0.21 -3.0538 0
M  V30 8 C 1.1554 1.0281 -3.8172 0
M  V30 9 C -1.0662 0.7031 -2.6624 0
M  V30 10 C -1.5163 0.2862 -1.2689 0
M  V30 11 O -2.3624 -0.6064 -1.1591 0
M  V30 12 N -0.9722 0.9324 -0.1688 0
M  V30 13 C -1.3241 0.424 1.1851 0 CFG=2
M  V30 14 C 0.0016 2.0376 -0.2163 0
M  V30 15 C -1.5459 1.6257 2.0874 0
M  V30 16 C -0.2021 -0.5015 1.7711 0
M  V30 17 C -0.5338 3.2888 0.4998 0
M  V30 18 S -2.3162 1.4915 3.6047 0
M  V30 19 C -1.1736 2.929 1.8047 0
M  V30 20 N 0.2425 -1.6024 0.8843 0
M  V30 21 C -2.1298 3.1644 3.9104 0
M  V30 22 C -1.5087 3.8178 2.8684 0
M  V30 23 C -0.7527 -2.6851 0.8073 0
M  V30 24 C 1.4456 -2.2677 1.4057 0
M  V30 25 C -0.4711 -3.6098 1.9847 0
M  V30 26 C 0.9524 -3.2901 2.4158 0
M  V30 27 H 0.0984 -1.7448 -2.1475 0
M  V30 28 H 3.0631 1.2304 -4.7911 0
M  V30 29 H 0.8353 2.0244 -4.1173 0
M  V30 30 H -1.1427 1.7929 -2.7476 0
M  V30 31 H -1.7851 0.2954 -3.3849 0
M  V30 32 H -2.2614 -0.1408 1.1266 0
M  V30 33 H 0.2709 2.3085 -1.2369 0
M  V30 34 H 0.9202 1.6857 0.2674 0
M  V30 35 H -0.5241 -0.8895 2.7464 0
M  V30 36 H 0.6708 0.1326 1.9782 0
M  V30 37 H -1.2906 3.7707 -0.1317 0
M  V30 38 H 0.2796 4.0066 0.6514 0
M  V30 39 H -2.494 3.5899 4.8356 0
M  V30 40 H -1.3165 4.884 2.8691 0
M  V30 41 H -1.7919 -2.3445 0.7981 0
M  V30 42 H -0.5945 -3.2332 -0.1297 0
M  V30 43 H 1.9445 -2.7842 0.5767 0
M  V30 44 H 2.1806 -1.5763 1.8317 0
M  V30 45 H -0.5776 -4.6607 1.6971 0
M  V30 46 H -1.1642 -3.4152 2.811 0
M  V30 47 H 1.5841 -4.1837 2.4292 0
M  V30 48 H 0.9488 -2.8661 3.4267 0
M  V30 END ATOM
M  V30 BEGIN BOND
M  V30 1 1 1 2
M  V30 2 2 2 3
M  V30 3 1 2 4
M  V30 4 1 3 5
M  V30 5 1 3 6
M  V30 6 2 4 7
M  V30 7 2 6 8
M  V30 8 1 7 9
M  V30 9 1 9 10
M  V30 10 2 10 11
M  V30 11 1 10 12
M  V30 12 1 12 13
M  V30 13 1 12 14
M  V30 14 1 13 15
M  V30 15 1 13 16
M  V30 16 1 14 17
M  V30 17 1 15 18
M  V30 18 2 15 19
M  V30 19 1 16 20
M  V30 20 1 18 21
M  V30 21 1 19 22
M  V30 22 1 20 23
M  V30 23 1 20 24
M  V30 24 1 23 25
M  V30 25 1 24 26
M  V30 26 1 7 8
M  V30 27 1 17 19
M  V30 28 2 21 22
M  V30 29 1 25 26
M  V30 30 1 4 27
M  V30 31 1 6 28
M  V30 32 1 8 29
M  V30 33 1 9 30
M  V30 34 1 9 31
M  V30 35 1 13 32
M  V30 36 1 14 33
M  V30 37 1 14 34
M  V30 38 1 16 35
M  V30 39 1 16 36
M  V30 40 1 17 37
M  V30 41 1 17 38
M  V30 42 1 21 39
M  V30 43 1 22 40
M  V30 44 1 23 41
M  V30 45 1 23 42
M  V30 46 1 24 43
M  V30 47 1 24 44
M  V30 48 1 25 45
M  V30 49 1 25 46
M  V30 50 1 26 47
M  V30 51 1 26 48
M  V30 END BOND
M  V30 BEGIN COLLECTION
M  V30 MDLV30/STEABS ATOMS=(1 13)
M  V30 END COLLECTION
M  V30 END CTAB
M  END
>  <Column 1>
2572

>  <level_0>
3711

>  <index>
3711

>  <Unnamed: 0>
3711

>  <NO.>
3723

>  <Name>
brl-53080

>  <IUPAC_name>
2-(3-4-dichlorophenyl)-1-[(7s)-7-(pyrrolidin-1-ylmethyl)-5-7-dihydro-4h-thieno[2-3-c]pyridin-6-yl]ethanone

>  <SMILES>
O=C(Cc1ccc(Cl)c(Cl)c1)N1CCc2ccsc2[C@@H]1CN1CCCC1

>  <CID>
44310435

>  <logBB>


>  <BBB+/BBB->
BBB+

>  <Inchi>
InChI=1S/C20H22Cl2N2OS/c21-16-4-3-14(11-17(16)22)12-19(25)24-9-5-15-6-10-26-20(15)18(24)13-23-7-1-2-8-23/h3-4-6-10-11-18H-1-2-5-7-9-12-13H2/t18-/m0/s1

>  <threshold>
-1

>  <reference>
R13|

>  <group>
B

>  <Class>
1

>  <ABC>
20.63

>  <ABCGG>
17.07

>  <nAcid>
0

>  <nBase>
1

>  <nAromAtom>
11

>  <nAromBond>
11

>  <nAtom>
48

>  <nHeavyAtom>
26

>  <nSpiro>
0

>  <nBridgehead>
0

>  <nHetero>
6

>  <nN>
2

>  <nO>
1

>  <nF>
0

>  <BalabanJ>
1.4

>  <BertzCT>
800.86

>  <nBonds>
51

>  <nBondsO>
29

>  <nBondsS>
39

>  <nBondsD>
1

>  <nBondsT>
0

>  <nBondsA>
11

>  <nBondsM>
12

>  <nBondsKS>
45

>  <nBondsKD>
6

>  <RNCG>
0.21

>  <RPCG>
0.14

>  <FCSP3>
0.45

>  <SZ>
35.67

>  <Sm>
34.08

>  <Sv>
31.56

>  <Sse>
48.03

>  <Sp>
34.93

>  <Si>
53.58

>  <MZ>
0.74

>  <Mm>
0.71

>  <Mv>
0.66

>  <Mse>
1

>  <Mp>
0.73

>  <Mi>
1.12

>  <NsCH3>
0

>  <NdCH2>
0

>  <NssCH2>
8

>  <NtCH>
0

>  <NdsCH>
0

>  <NaaCH>
5

>  <NsssCH>
1

>  <NddC>
0

>  <NtsC>
0

>  <NdssC>
1

>  <NaasC>
5

>  <NaaaC>
0

>  <NssssC>
0

>  <NsNH3>
0

>  <NsNH2>
0

>  <NssNH2>
0

>  <NdNH>
0

>  <NssNH>
0

>  <NaaNH>
0

>  <NtN>
0

>  <NsssNH>
0

>  <NdsN>
0

>  <NaaN>
0

>  <NsssN>
2

>  <NddsN>
0

>  <NaasN>
0

>  <NssssN>
0

>  <NsOH>
0

>  <NdO>
1

>  <NssO>
0

>  <NaaO>
0

>  <NsF>
0

>  <NsSiH3>
0

>  <NssSiH2>
0

>  <NsssSiH>
0

>  <NssssSi>
0

>  <NsPH2>
0

>  <NssPH>
0

>  <NsssP>
0

>  <NdsssP>
0

>  <NsssssP>
0

>  <NsSH>
0

>  <NdS>
0

>  <NssS>
0

>  <NaaS>
1

>  <NdssS>
0

>  <NddssS>
0

>  <NsCl>
2

>  <NsBr>
0

>  <NsI>
0

>  <fragCpx>
191.06

>  <fMF>
0.48

>  <nHBAcc>
3

>  <nHBDon>
0

>  <Kier1>
19.32

>  <Kier2>
8.57

>  <Lipinski>
1

>  <GhoseFilter>
1

>  <FilterItLogS>
-5.71

>  <VMcGowan>
290.08

>  <LabuteASA>
168.05

>  <PEOE_VSA1>
9.8

>  <PEOE_VSA2>
4.79

>  <PEOE_VSA3>
0

>  <PEOE_VSA4>
0

>  <PEOE_VSA5>
11.34

>  <PEOE_VSA6>
29.27

>  <PEOE_VSA7>
67.06

>  <PEOE_VSA8>
17.97

>  <PEOE_VSA9>
22.51

>  <PEOE_VSA10>
0

>  <PEOE_VSA11>
0

>  <PEOE_VSA12>
5.91

>  <PEOE_VSA13>
0

>  <SMR_VSA1>
4.79

>  <SMR_VSA2>
0

>  <SMR_VSA3>
9.8

>  <SMR_VSA4>
0

>  <SMR_VSA5>
31.73

>  <SMR_VSA6>
26.18

>  <SMR_VSA7>
55.69

>  <SMR_VSA8>
0

>  <SMR_VSA9>
0

>  <SlogP_VSA1>
0

>  <SlogP_VSA2>
41.89

>  <SlogP_VSA3>
17.64

>  <SlogP_VSA4>
0

>  <SlogP_VSA5>
34.89

>  <SlogP_VSA6>
29.65

>  <SlogP_VSA7>
10.05

>  <SlogP_VSA8>
0

>  <SlogP_VSA9>
0

>  <SlogP_VSA10>
0

>  <SlogP_VSA11>
0

>  <EState_VSA1>
0

>  <EState_VSA2>
11.95

>  <EState_VSA3>
16.47

>  <EState_VSA4>
38.16

>  <EState_VSA5>
23.28

>  <EState_VSA6>
23.47

>  <EState_VSA7>
6.07

>  <EState_VSA8>
21.25

>  <EState_VSA9>
23.2

>  <EState_VSA10>
4.79

>  <VSA_EState1>
0

>  <VSA_EState2>
19.06

>  <VSA_EState3>
3.19

>  <VSA_EState4>
2.33

>  <VSA_EState5>
0.17

>  <VSA_EState6>
7.85

>  <VSA_EState7>
3.85

>  <VSA_EState8>
4.03

>  <VSA_EState9>
0

>  <apol>
58.33

>  <bpol>
29.84

>  <nRing>
4

>  <nHRing>
3

>  <naRing>
2

>  <naHRing>
1

>  <nARing 2>
2

>  <nAHRing 2>
2

>  <nFRing>
1

>  <nFHRing>
1

>  <nFaRing>
0

>  <nFaHRing>
0

>  <nFARing 2>
1

>  <nFAHRing 2>
1

>  <nRot>
4

>  <SLogP>
4.82

>  <SMR>
108.32

>  <TopoPSA(NO)>
23.55

>  <TopoPSA>
51.79

>  <JGI1>
0.17

>  <JGI2>
0.08

>  <JGI3>
0.04

>  <JGI4>
0.04

>  <JGI5>
0.02

>  <Diameter>
12

>  <Radius>
6

>  <TMWC10>
131.17

>  <TSRW10>
76.5

>  <MW>
408.08

>  <AMW>
8.5

>  <WPath>
1668

>  <WPol>
39

>  <Zagreb1>
140

>  <Zagreb2>
166

>  <mZagreb2>
5.64

>  <yes>


>  <nAR-cont>
1

>  <nHA-cont>
0.892715677

>  <MWHBN>
0.148507573

>  <MWHBN-cont>
0.928579357

>  <TPSA-cont>
0.63847364

>  <pka_cont>
0.97

>  <yes.1>


>  <BBB_SCORE>
5.047531994

>  <MMFF94 Energy>
89.149

$$$$
Compound 2085
Actelion Java MolfileCreator 2.0

  0  0  0  0  0  0              0 V3000
M  V30 BEGIN CTAB
M  V30 COUNTS 32 32 0 0 0
M  V30 BEGIN ATOM
M  V30 1 Cl -3.2698 2.1245 -2.8606 0
M  V30 2 C -1.5542 2.4163 -2.5079 0
M  V30 3 Cl -1.3705 3.2725 -0.9621 0
M  V30 4 C -0.8303 1.0709 -2.4346 0
M  V30 5 O 0.0232 0.7351 -3.2579 0
M  V30 6 N -1.1896 0.2317 -1.399 0
M  V30 7 C -0.5847 -1.086 -1.1522 0 CFG=2
M  V30 8 C 0.8794 -1.0139 -0.6119 0 CFG=1
M  V30 9 C -0.687 -2.0255 -2.3701 0
M  V30 10 O 1.7757 -0.2872 -1.457 0
M  V30 11 C 0.9282 -0.419 0.7896 0
M  V30 12 O -0.5286 -3.3788 -1.9496 0
M  V30 13 C 1.1945 0.9442 1.0017 0
M  V30 14 C 0.6735 -1.2403 1.9018 0
M  V30 15 C 1.2099 1.4799 2.2921 0
M  V30 16 C 0.6876 -0.7151 3.1969 0
M  V30 17 C 0.9563 0.6459 3.3867 0
M  V30 18 N 0.9709 1.2023 4.7451 0 CHG=1
M  V30 19 O 0.7311 0.432 5.6864 0
M  V30 20 O 1.2162 2.4106 4.8725 0 CHG=-1
M  V30 21 H -1.1245 3.0295 -3.3047 0
M  V30 22 H -1.845 0.581 -0.7058 0
M  V30 23 H -1.2061 -1.5299 -0.3622 0
M  V30 24 H 1.2908 -2.0289 -0.5519 0
M  V30 25 H -1.6734 -1.9368 -2.8383 0
M  V30 26 H 0.074 -1.809 -3.1253 0
M  V30 27 H 1.3292 -0.1083 -2.3083 0
M  V30 28 H -0.5853 -3.9317 -2.7497 0
M  V30 29 H 1.4049 1.597 0.1558 0
M  V30 30 H 0.467 -2.3011 1.7639 0
M  V30 31 H 1.4249 2.5386 2.4224 0
M  V30 32 H 0.4918 -1.3759 4.039 0
M  V30 END ATOM
M  V30 BEGIN BOND
M  V30 1 1 1 2
M  V30 2 1 2 3
M  V30 3 1 2 4
M  V30 4 2 4 5
M  V30 5 1 4 6
M  V30 6 1 6 7
M  V30 7 1 7 8
M  V30 8 1 7 9
M  V30 9 1 8 10
M  V30 10 1 8 11
M  V30 11 1 9 12
M  V30 12 2 11 13
M  V30 13 1 11 14
M  V30 14 1 13 15
M  V30 15 2 14 16
M  V30 16 2 15 17
M  V30 17 1 17 18
M  V30 18 2 18 19
M  V30 19 1 18 20
M  V30 20 1 16 17
M  V30 21 1 2 21
M  V30 22 1 6 22
M  V30 23 1 7 23
M  V30 24 1 8 24
M  V30 25 1 9 25
M  V30 26 1 9 26
M  V30 27 1 10 27
M  V30 28 1 12 28
M  V30 29 1 13 29
M  V30 30 1 14 30
M  V30 31 1 15 31
M  V30 32 1 16 32
M  V30 END BOND
M  V30 BEGIN COLLECTION
M  V30 MDLV30/STEABS ATOMS=(2 7 8)
M  V30 END COLLECTION
M  V30 END CTAB
M  END
>  <Column 1>
2573

>  <level_0>
3718

>  <index>
3718

>  <Unnamed: 0>
3718

>  <NO.>
3730

>  <Name>
dextramycin

>  <IUPAC_name>
2-2-dichloro-n-[(1s-2s)-1-3-dihydroxy-1-(4-nitrophenyl)propan-2-yl]acetamide

>  <SMILES>
O=C(N[C@@H](CO)[C@@H](O)c1ccc([N+](=O)[O-])cc1)C(Cl)Cl

>  <CID>
92099

>  <logBB>


>  <BBB+/BBB->
BBB-

>  <Inchi>
InChI=1S/C11H12Cl2N2O5/c12-10(13)11(18)14-8(5-16)9(17)6-1-3-7(4-2-6)15(19)20/h1-4-8-10-16-17H-5H2-(H-14-18)/t8--9-/m0/s1

>  <threshold>
-1

>  <reference>
R13|

>  <group>
B

>  <Class>
-1

>  <ABC>
14.64

>  <ABCGG>
13.29

>  <nAcid>
0

>  <nBase>
0

>  <nAromAtom>
6

>  <nAromBond>
6

>  <nAtom>
32

>  <nHeavyAtom>
20

>  <nSpiro>
0

>  <nBridgehead>
0

>  <nHetero>
9

>  <nN>
2

>  <nO>
5

>  <nF>
0

>  <BalabanJ>
2.49

>  <BertzCT>
480.21

>  <nBonds>
32

>  <nBondsO>
20

>  <nBondsS>
24

>  <nBondsD>
2

>  <nBondsT>
0

>  <nBondsA>
6

>  <nBondsM>
8

>  <nBondsKS>
27

>  <nBondsKD>
5

>  <RNCG>
0.18

>  <RPCG>
0.12

>  <FCSP3>
0.36

>  <SZ>
27.67

>  <Sm>
26.9

>  <Sv>
21.52

>  <Sse>
33.84

>  <Sp>
22.12

>  <Si>
36.42

>  <MZ>
0.86

>  <Mm>
0.84

>  <Mv>
0.67

>  <Mse>
1.06

>  <Mp>
0.69

>  <Mi>
1.14

>  <NsCH3>
0

>  <NdCH2>
0

>  <NssCH2>
1

>  <NtCH>
0

>  <NdsCH>
0

>  <NaaCH>
4

>  <NsssCH>
3

>  <NddC>
0

>  <NtsC>
0

>  <NdssC>
1

>  <NaasC>
2

>  <NaaaC>
0

>  <NssssC>
0

>  <NsNH3>
0

>  <NsNH2>
0

>  <NssNH2>
0

>  <NdNH>
0

>  <NssNH>
1

>  <NaaNH>
0

>  <NtN>
0

>  <NsssNH>
0

>  <NdsN>
0

>  <NaaN>
0

>  <NsssN>
0

>  <NddsN>
1

>  <NaasN>
0

>  <NssssN>
0

>  <NsOH>
2

>  <NdO>
2

>  <NssO>
0

>  <NaaO>
0

>  <NsF>
0

>  <NsSiH3>
0

>  <NssSiH2>
0

>  <NsssSiH>
0

>  <NssssSi>
0

>  <NsPH2>
0

>  <NssPH>
0

>  <NsssP>
0

>  <NdsssP>
0

>  <NsssssP>
0

>  <NsSH>
0

>  <NdS>
0

>  <NssS>
0

>  <NaaS>
0

>  <NdssS>
0

>  <NddssS>
0

>  <NsCl>
2

>  <NsBr>
0

>  <NsI>
0

>  <fragCpx>
20.09

>  <fMF>
0.19

>  <nHBAcc>
5

>  <nHBDon>
3

>  <Kier1>
18.05

>  <Kier2>
8.44

>  <Lipinski>
1

>  <GhoseFilter>
1

>  <FilterItLogS>
-2.41

>  <VMcGowan>
207.28

>  <LabuteASA>
123.82

>  <PEOE_VSA1>
15.53

>  <PEOE_VSA2>
14.91

>  <PEOE_VSA3>
0

>  <PEOE_VSA4>
0

>  <PEOE_VSA5>
0

>  <PEOE_VSA6>
23.2

>  <PEOE_VSA7>
17.7

>  <PEOE_VSA8>
12.13

>  <PEOE_VSA9>
17.57

>  <PEOE_VSA10>
6.1

>  <PEOE_VSA11>
4.84

>  <PEOE_VSA12>
0

>  <PEOE_VSA13>
11.59

>  <SMR_VSA1>
19.93

>  <SMR_VSA2>
0

>  <SMR_VSA3>
5.32

>  <SMR_VSA4>
0

>  <SMR_VSA5>
16.98

>  <SMR_VSA6>
6.61

>  <SMR_VSA7>
39.94

>  <SMR_VSA8>
0

>  <SMR_VSA9>
0

>  <SlogP_VSA1>
5.32

>  <SlogP_VSA2>
38.53

>  <SlogP_VSA3>
4.79

>  <SlogP_VSA4>
10.11

>  <SlogP_VSA5>
11.67

>  <SlogP_VSA6>
24.27

>  <SlogP_VSA7>
0

>  <SlogP_VSA8>
0

>  <SlogP_VSA9>
0

>  <SlogP_VSA10>
5.69

>  <SlogP_VSA11>
0

>  <EState_VSA1>
34.42

>  <EState_VSA2>
5.69

>  <EState_VSA3>
5.56

>  <EState_VSA4>
0

>  <EState_VSA5>
24.27

>  <EState_VSA6>
0

>  <EState_VSA7>
0

>  <EState_VSA8>
5.32

>  <EState_VSA9>
28.31

>  <EState_VSA10>
20.02

>  <VSA_EState1>
0

>  <VSA_EState2>
19.91

>  <VSA_EState3>
31.95

>  <VSA_EState4>
0.17

>  <VSA_EState5>
-0.76

>  <VSA_EState6>
4.05

>  <VSA_EState7>
-1.25

>  <VSA_EState8>
-0.55

>  <VSA_EState9>
0

>  <apol>
36.94

>  <bpol>
15.66

>  <nRing>
1

>  <nHRing>
0

>  <naRing>
1

>  <naHRing>
0

>  <nARing 2>
0

>  <nAHRing 2>
0

>  <nFRing>
0

>  <nFHRing>
0

>  <nFaRing>
0

>  <nFaHRing>
0

>  <nFARing 2>
0

>  <nFAHRing 2>
0

>  <nRot>
6

>  <SLogP>
0.91

>  <SMR>
72.57

>  <TopoPSA(NO)>
112.7

>  <TopoPSA>
112.7

>  <JGI1>
0.25

>  <JGI2>
0.12

>  <JGI3>
0.05

>  <JGI4>
0.04

>  <JGI5>
0.03

>  <Diameter>
11

>  <Radius>
6

>  <TMWC10>
110.94

>  <TSRW10>
52.86

>  <MW>
322.01

>  <AMW>
10.06

>  <WPath>
880

>  <WPol>
29

>  <Zagreb1>
94

>  <Zagreb2>
106

>  <mZagreb2>
4.61

>  <yes>


>  <nAR-cont>
0.336376

>  <nHA-cont>
0.999629945

>  <MWHBN>
0.445815648

>  <MWHBN-cont>
0.300993901

>  <TPSA-cont>
0.213284018

>  <pka_cont>
0.97

>  <yes.1>


>  <BBB_SCORE>
2.699064832

>  <MMFF94 Energy>
127.42

$$$$
Compound 2086
Actelion Java MolfileCreator 2.0

  0  0  0  0  0  0              0 V3000
M  V30 BEGIN CTAB
M  V30 COUNTS 26 27 0 0 0
M  V30 BEGIN ATOM
M  V30 1 O -0.4775 -1.5925 -0.7164 0
M  V30 2 C -0.4324 -0.4149 -0.3933 0
M  V30 3 O 0.5225 0.19 0.4026 0
M  V30 4 C -1.4367 0.5927 -0.8388 0
M  V30 5 C 1.51 -0.6782 0.8771 0
M  V30 6 C -1.4855 1.9303 -0.4174 0
M  V30 7 C -2.4075 0.1404 -1.7513 0
M  V30 8 C 1.2265 -1.5655 1.9142 0
M  V30 9 C 2.7945 -0.5644 0.3502 0
M  V30 10 O -0.6187 2.5105 0.4681 0
M  V30 11 C -2.4781 2.7871 -0.901 0
M  V30 12 C -3.3974 1.0005 -2.2324 0
M  V30 13 C 2.2453 -2.3781 2.4092 0
M  V30 14 C 3.8086 -1.3797 0.8507 0
M  V30 15 C -3.4317 2.3247 -1.8066 0
M  V30 16 C 3.5336 -2.2864 1.8771 0
M  V30 17 H -2.3982 -0.893 -2.096 0
M  V30 18 H 0.2253 -1.6341 2.3281 0
M  V30 19 H 3.0062 0.1449 -0.4435 0
M  V30 20 H 0.0518 1.8615 0.7477 0
M  V30 21 H -2.5072 3.822 -0.5673 0
M  V30 22 H -4.1398 0.6347 -2.9377 0
M  V30 23 H 2.0368 -3.0846 3.2085 0
M  V30 24 H 4.8135 -1.3104 0.4427 0
M  V30 25 H -4.2003 2.9985 -2.1772 0
M  V30 26 H 4.3254 -2.9234 2.2637 0
M  V30 END ATOM
M  V30 BEGIN BOND
M  V30 1 2 1 2
M  V30 2 1 2 3
M  V30 3 1 2 4
M  V30 4 1 3 5
M  V30 5 2 4 6
M  V30 6 1 4 7
M  V30 7 2 5 8
M  V30 8 1 5 9
M  V30 9 1 6 10
M  V30 10 1 6 11
M  V30 11 2 7 12
M  V30 12 1 8 13
M  V30 13 2 9 14
M  V30 14 2 11 15
M  V30 15 2 13 16
M  V30 16 1 12 15
M  V30 17 1 14 16
M  V30 18 1 7 17
M  V30 19 1 8 18
M  V30 20 1 9 19
M  V30 21 1 10 20
M  V30 22 1 11 21
M  V30 23 1 12 22
M  V30 24 1 13 23
M  V30 25 1 14 24
M  V30 26 1 15 25
M  V30 27 1 16 26
M  V30 END BOND
M  V30 END CTAB
M  END
>  <Column 1>
2574

>  <level_0>
3724

>  <index>
3724

>  <Unnamed: 0>
3724

>  <NO.>
3736

>  <Name>
phenyl salicylate

>  <IUPAC_name>
phenyl 2-hydroxybenzoate

>  <SMILES>
O=C(Oc1ccccc1)c1ccccc1O

>  <CID>
8361

>  <logBB>


>  <BBB+/BBB->
BBB+

>  <Inchi>
InChI=1S/C13H10O3/c14-12-9-5-4-8-11(12)13(15)16-10-6-2-1-3-7-10/h1-9-14H

>  <threshold>
-1

>  <reference>
R13|R19|R6|R24|R27|R27|R30|

>  <group>
B

>  <Class>
1

>  <ABC>
12.16

>  <ABCGG>
10.43

>  <nAcid>
0

>  <nBase>
0

>  <nAromAtom>
12

>  <nAromBond>
12

>  <nAtom>
26

>  <nHeavyAtom>
16

>  <nSpiro>
0

>  <nBridgehead>
0

>  <nHetero>
3

>  <nN>
0

>  <nO>
3

>  <nF>
0

>  <BalabanJ>
1.78

>  <BertzCT>
491.54

>  <nBonds>
27

>  <nBondsO>
17

>  <nBondsS>
14

>  <nBondsD>
1

>  <nBondsT>
0

>  <nBondsA>
12

>  <nBondsM>
13

>  <nBondsKS>
20

>  <nBondsKD>
7

>  <RNCG>
0.32

>  <RPCG>
0.22

>  <FCSP3>
0

>  <SZ>
18.67

>  <Sm>
17.84

>  <Sv>
17.85

>  <Sse>
26.43

>  <Sp>
18.43

>  <Si>
28.7

>  <MZ>
0.72

>  <Mm>
0.69

>  <Mv>
0.69

>  <Mse>
1.02

>  <Mp>
0.71

>  <Mi>
1.1

>  <NsCH3>
0

>  <NdCH2>
0

>  <NssCH2>
0

>  <NtCH>
0

>  <NdsCH>
0

>  <NaaCH>
9

>  <NsssCH>
0

>  <NddC>
0

>  <NtsC>
0

>  <NdssC>
1

>  <NaasC>
3

>  <NaaaC>
0

>  <NssssC>
0

>  <NsNH3>
0

>  <NsNH2>
0

>  <NssNH2>
0

>  <NdNH>
0

>  <NssNH>
0

>  <NaaNH>
0

>  <NtN>
0

>  <NsssNH>
0

>  <NdsN>
0

>  <NaaN>
0

>  <NsssN>
0

>  <NddsN>
0

>  <NaasN>
0

>  <NssssN>
0

>  <NsOH>
1

>  <NdO>
1

>  <NssO>
1

>  <NaaO>
0

>  <NsF>
0

>  <NsSiH3>
0

>  <NssSiH2>
0

>  <NsssSiH>
0

>  <NssssSi>
0

>  <NsPH2>
0

>  <NssPH>
0

>  <NsssP>
0

>  <NdsssP>
0

>  <NsssssP>
0

>  <NsSH>
0

>  <NdS>
0

>  <NssS>
0

>  <NaaS>
0

>  <NdssS>
0

>  <NddssS>
0

>  <NsCl>
0

>  <NsBr>
0

>  <NsI>
0

>  <fragCpx>
49.03

>  <fMF>
0.54

>  <nHBAcc>
3

>  <nHBDon>
1

>  <Kier1>
12.46

>  <Kier2>
6.07

>  <Lipinski>
1

>  <GhoseFilter>
1

>  <FilterItLogS>
-2.67

>  <VMcGowan>
159.82

>  <LabuteASA>
92.92

>  <PEOE_VSA1>
9.84

>  <PEOE_VSA2>
0

>  <PEOE_VSA3>
4.79

>  <PEOE_VSA4>
0

>  <PEOE_VSA5>
0

>  <PEOE_VSA6>
30.33

>  <PEOE_VSA7>
24.27

>  <PEOE_VSA8>
0

>  <PEOE_VSA9>
0

>  <PEOE_VSA10>
17.06

>  <PEOE_VSA11>
0

>  <PEOE_VSA12>
0

>  <PEOE_VSA13>
0

>  <SMR_VSA1>
14.64

>  <SMR_VSA2>
0

>  <SMR_VSA3>
0

>  <SMR_VSA4>
0

>  <SMR_VSA5>
0

>  <SMR_VSA6>
0

>  <SMR_VSA7>
60.16

>  <SMR_VSA8>
0

>  <SMR_VSA9>
11.5

>  <SlogP_VSA1>
4.74

>  <SlogP_VSA2>
11.08

>  <SlogP_VSA3>
0

>  <SlogP_VSA4>
0

>  <SlogP_VSA5>
10.36

>  <SlogP_VSA6>
54.6

>  <SlogP_VSA7>
0

>  <SlogP_VSA8>
0

>  <SlogP_VSA9>
0

>  <SlogP_VSA10>
0

>  <SlogP_VSA11>
11.5

>  <EState_VSA1>
5.97

>  <EState_VSA2>
11.31

>  <EState_VSA3>
5.75

>  <EState_VSA4>
0

>  <EState_VSA5>
12.13

>  <EState_VSA6>
36.4

>  <EState_VSA7>
6.07

>  <EState_VSA8>
0

>  <EState_VSA9>
4.74

>  <EState_VSA10>
9.9

>  <VSA_EState1>
5.08

>  <VSA_EState2>
11.65

>  <VSA_EState3>
9.46

>  <VSA_EState4>
0.16

>  <VSA_EState5>
-0.19

>  <VSA_EState6>
15.01

>  <VSA_EState7>
0

>  <VSA_EState8>
0

>  <VSA_EState9>
0

>  <apol>
30.78

>  <bpol>
12.64

>  <nRing>
2

>  <nHRing>
0

>  <naRing>
2

>  <naHRing>
0

>  <nARing 2>
0

>  <nAHRing 2>
0

>  <nFRing>
0

>  <nFHRing>
0

>  <nFaRing>
0

>  <nFaHRing>
0

>  <nFARing 2>
0

>  <nFAHRing 2>
0

>  <nRot>
2

>  <SLogP>
2.61

>  <SMR>
59.51

>  <TopoPSA(NO)>
46.53

>  <TopoPSA>
46.53

>  <JGI1>
0.15

>  <JGI2>
0.07

>  <JGI3>
0.05

>  <JGI4>
0.04

>  <JGI5>
0.03

>  <Diameter>
9

>  <Radius>
5

>  <TMWC10>
102.05

>  <TSRW10>
47.91

>  <MW>
214.06

>  <AMW>
8.23

>  <WPath>
459

>  <WPol>
21

>  <Zagreb1>
78

>  <Zagreb2>
88

>  <mZagreb2>
3.64

>  <yes>


>  <nAR-cont>
0.336376

>  <nHA-cont>
0.954961865

>  <MWHBN>
0.273396047

>  <MWHBN-cont>
0.912245225

>  <TPSA-cont>
0.675191707

>  <pka_cont>
0.97

>  <yes.1>


>  <BBB_SCORE>
4.495089116

>  <MMFF94 Energy>
63.659

$$$$
Compound 2087
Actelion Java MolfileCreator 2.0

  0  0  0  0  0  0              0 V3000
M  V30 BEGIN CTAB
M  V30 COUNTS 34 37 0 0 0
M  V30 BEGIN ATOM
M  V30 1 Cl -0.7355 5.6494 -0.6537 0
M  V30 2 C -0.7805 4.0248 -0.0888 0
M  V30 3 C -0.1286 3.024 -0.81 0
M  V30 4 C -1.4683 3.7192 1.084 0
M  V30 5 C -0.1652 1.6978 -0.3567 0
M  V30 6 C -1.5036 2.4012 1.542 0
M  V30 7 C -0.8516 1.3965 0.8278 0
M  V30 8 C 0.5449 0.5967 -1.1163 0
M  V30 9 O -0.9408 0.1306 1.3451 0
M  V30 10 C -0.217 -0.7039 -0.8485 0 CFG=2
M  V30 11 C 2.005 0.5067 -0.6626 0
M  V30 12 C -0.1898 -0.8977 0.6713 0
M  V30 13 C 0.3346 -1.9229 -1.5907 0
M  V30 14 C 2.1794 -0.1004 0.7145 0
M  V30 15 N 1.1577 -0.8506 1.2138 0
M  V30 16 C -0.8637 -2.2299 1.0308 0
M  V30 17 N -0.393 -3.1386 -1.2238 0
M  V30 18 O 3.2305 0.0046 1.3417 0
M  V30 19 C -0.3039 -3.39 0.2151 0
M  V30 20 H 0.4068 3.2782 -1.7217 0
M  V30 21 H -1.9751 4.4991 1.6462 0
M  V30 22 H -2.036 2.1593 2.4584 0
M  V30 23 H 0.5082 0.8225 -2.1897 0
M  V30 24 H -1.2616 -0.5646 -1.1707 0
M  V30 25 H 2.5762 -0.1149 -1.3616 0
M  V30 26 H 2.473 1.4986 -0.6563 0
M  V30 27 H 0.2368 -1.7688 -2.6715 0
M  V30 28 H 1.4018 -2.0793 -1.3994 0
M  V30 29 H 1.3146 -1.1904 2.1537 0
M  V30 30 H -1.9459 -2.1503 0.8566 0
M  V30 31 H -0.7531 -2.4409 2.1024 0
M  V30 32 H -1.3727 -3.058 -1.5008 0
M  V30 33 H -0.8665 -4.3011 0.4474 0
M  V30 34 H 0.7374 -3.5914 0.4938 0
M  V30 END ATOM
M  V30 BEGIN BOND
M  V30 1 1 1 2
M  V30 2 2 2 3
M  V30 3 1 2 4
M  V30 4 1 3 5
M  V30 5 2 4 6
M  V30 6 2 5 7
M  V30 7 1 5 8
M  V30 8 1 7 9
M  V30 9 1 8 10
M  V30 10 1 8 11
M  V30 11 1 9 12
M  V30 12 1 10 13
M  V30 13 1 11 14
M  V30 14 1 12 15
M  V30 15 1 12 16
M  V30 16 1 13 17
M  V30 17 2 14 18
M  V30 18 1 16 19
M  V30 19 1 6 7
M  V30 20 1 10 12
M  V30 21 1 14 15
M  V30 22 1 17 19
M  V30 23 1 3 20
M  V30 24 1 4 21
M  V30 25 1 6 22
M  V30 26 1 8 23
M  V30 27 1 10 24
M  V30 28 1 11 25
M  V30 29 1 11 26
M  V30 30 1 13 27
M  V30 31 1 13 28
M  V30 32 1 15 29
M  V30 33 1 16 30
M  V30 34 1 16 31
M  V30 35 1 17 32
M  V30 36 1 19 33
M  V30 37 1 19 34
M  V30 END BOND
M  V30 BEGIN COLLECTION
M  V30 MDLV30/STEABS ATOMS=(1 10)
M  V30 END COLLECTION
M  V30 END CTAB
M  END
>  <Column 1>
2575

>  <level_0>
3727

>  <index>
3727

>  <Unnamed: 0>
3727

>  <NO.>
3739

>  <Name>


>  <IUPAC_name>


>  <SMILES>
O=C1CC2c3cc(Cl)ccc3OC3(CCNC[C@H]23)N1

>  <CID>


>  <logBB>


>  <BBB+/BBB->
BBB+

>  <Inchi>
InChI=1S/C14H15ClN2O2/c15-8-1-2-12-10(5-8)9-6-13(18)17-14(19-12)3-4-16-7-11(9)14/h1-2-5-9-11-16H-3-4-6-7H2-(H-17-18)/t9?-11--14?/m1/s1

>  <threshold>
-1

>  <reference>
R13|

>  <group>
B

>  <Class>
1

>  <ABC>
15.59

>  <ABCGG>
11.91

>  <nAcid>
0

>  <nBase>
1

>  <nAromAtom>
6

>  <nAromBond>
6

>  <nAtom>
34

>  <nHeavyAtom>
19

>  <nSpiro>
0

>  <nBridgehead>
2

>  <nHetero>
5

>  <nN>
2

>  <nO>
2

>  <nF>
0

>  <BalabanJ>
1.67

>  <BertzCT>
562.38

>  <nBonds>
37

>  <nBondsO>
22

>  <nBondsS>
30

>  <nBondsD>
1

>  <nBondsT>
0

>  <nBondsA>
6

>  <nBondsM>
7

>  <nBondsKS>
33

>  <nBondsKD>
4

>  <RNCG>
0.3

>  <RPCG>
0.14

>  <FCSP3>
0.5

>  <SZ>
24.33

>  <Sm>
23.21

>  <Sv>
22.1

>  <Sse>
34.41

>  <Sp>
23.57

>  <Si>
38.27

>  <MZ>
0.72

>  <Mm>
0.68

>  <Mv>
0.65

>  <Mse>
1.01

>  <Mp>
0.69

>  <Mi>
1.13

>  <NsCH3>
0

>  <NdCH2>
0

>  <NssCH2>
4

>  <NtCH>
0

>  <NdsCH>
0

>  <NaaCH>
3

>  <NsssCH>
2

>  <NddC>
0

>  <NtsC>
0

>  <NdssC>
1

>  <NaasC>
3

>  <NaaaC>
0

>  <NssssC>
1

>  <NsNH3>
0

>  <NsNH2>
0

>  <NssNH2>
0

>  <NdNH>
0

>  <NssNH>
2

>  <NaaNH>
0

>  <NtN>
0

>  <NsssNH>
0

>  <NdsN>
0

>  <NaaN>
0

>  <NsssN>
0

>  <NddsN>
0

>  <NaasN>
0

>  <NssssN>
0

>  <NsOH>
0

>  <NdO>
1

>  <NssO>
1

>  <NaaO>
0

>  <NsF>
0

>  <NsSiH3>
0

>  <NssSiH2>
0

>  <NsssSiH>
0

>  <NssssSi>
0

>  <NsPH2>
0

>  <NssPH>
0

>  <NsssP>
0

>  <NdsssP>
0

>  <NsssssP>
0

>  <NsSH>
0

>  <NdS>
0

>  <NssS>
0

>  <NaaS>
0

>  <NdssS>
0

>  <NddssS>
0

>  <NsCl>
1

>  <NsBr>
0

>  <NsI>
0

>  <fragCpx>
142.05

>  <fMF>
0.5

>  <nHBAcc>
3

>  <nHBDon>
2

>  <Kier1>
12.72

>  <Kier2>
4.5

>  <Lipinski>
1

>  <GhoseFilter>
1

>  <FilterItLogS>
-4.03

>  <VMcGowan>
191.42

>  <LabuteASA>
116.01

>  <PEOE_VSA1>
15.37

>  <PEOE_VSA2>
4.79

>  <PEOE_VSA3>
0

>  <PEOE_VSA4>
0

>  <PEOE_VSA5>
0

>  <PEOE_VSA6>
11.6

>  <PEOE_VSA7>
23.76

>  <PEOE_VSA8>
42.79

>  <PEOE_VSA9>
0

>  <PEOE_VSA10>
5.75

>  <PEOE_VSA11>
5.72

>  <PEOE_VSA12>
5.91

>  <PEOE_VSA13>
0

>  <SMR_VSA1>
9.53

>  <SMR_VSA2>
0

>  <SMR_VSA3>
10.63

>  <SMR_VSA4>
5.92

>  <SMR_VSA5>
24.48

>  <SMR_VSA6>
13.09

>  <SMR_VSA7>
28.79

>  <SMR_VSA8>
0

>  <SMR_VSA9>
5.75

>  <SlogP_VSA1>
15.37

>  <SlogP_VSA2>
24.72

>  <SlogP_VSA3>
4.79

>  <SlogP_VSA4>
5.92

>  <SlogP_VSA5>
24.32

>  <SlogP_VSA6>
18.2

>  <SlogP_VSA7>
5.02

>  <SlogP_VSA8>
0

>  <SlogP_VSA9>
0

>  <SlogP_VSA10>
0

>  <SlogP_VSA11>
5.75

>  <EState_VSA1>
5.72

>  <EState_VSA2>
17.74

>  <EState_VSA3>
11.44

>  <EState_VSA4>
30.82

>  <EState_VSA5>
0

>  <EState_VSA6>
0

>  <EState_VSA7>
18.2

>  <EState_VSA8>
10.63

>  <EState_VSA9>
16.34

>  <EState_VSA10>
4.79

>  <VSA_EState1>
6.19

>  <VSA_EState2>
11.98

>  <VSA_EState3>
7.19

>  <VSA_EState4>
0.55

>  <VSA_EState5>
1.43

>  <VSA_EState6>
5.71

>  <VSA_EState7>
1.33

>  <VSA_EState8>
1.74

>  <VSA_EState9>
0

>  <apol>
39.37

>  <bpol>
19.3

>  <nRing>
4

>  <nHRing>
3

>  <naRing>
1

>  <naHRing>
0

>  <nARing 2>
3

>  <nAHRing 2>
3

>  <nFRing>
1

>  <nFHRing>
1

>  <nFaRing>
0

>  <nFaHRing>
0

>  <nFARing 2>
1

>  <nFAHRing 2>
1

>  <nRot>
0

>  <SLogP>
1.64

>  <SMR>
71.29

>  <TopoPSA(NO)>
50.36

>  <TopoPSA>
50.36

>  <JGI1>
0.23

>  <JGI2>
0.08

>  <JGI3>
0.05

>  <JGI4>
0.06

>  <JGI5>
0.02

>  <Diameter>
8

>  <Radius>
4

>  <TMWC10>
117.25

>  <TSRW10>
53.75

>  <MW>
278.08

>  <AMW>
8.18

>  <WPath>
590

>  <WPol>
37

>  <Zagreb1>
112

>  <Zagreb2>
139

>  <mZagreb2>
3.96

>  <yes>


>  <nAR-cont>
0.691115

>  <nHA-cont>
0.998649058

>  <MWHBN>
0.299836933

>  <MWHBN-cont>
0.841225672

>  <TPSA-cont>
0.648455928

>  <pka_cont>
0.97

>  <yes.1>


>  <BBB_SCORE>
4.733514422

>  <MMFF94 Energy>
-31.554

$$$$
Compound 2088
Actelion Java MolfileCreator 2.0

  0  0  0  0  0  0              0 V3000
M  V30 BEGIN CTAB
M  V30 COUNTS 39 41 0 0 0
M  V30 BEGIN ATOM
M  V30 1 P -1.7909 -2.9319 -2.2798 0
M  V30 2 O -0.8607 -2.545 -3.381 0
M  V30 3 O -2.8684 -4.0135 -2.7735 0
M  V30 4 O -1.0234 -3.7824 -1.1591 0
M  V30 5 C -2.7091 -1.6609 -1.4216 0
M  V30 6 N -1.7759 -0.6293 -1.0264 0
M  V30 7 C -1.4195 0.4112 -1.8171 0
M  V30 8 C -1.0583 -0.617 0.1371 0
M  V30 9 O -1.8771 0.6934 -2.9109 0
M  V30 10 N -0.4488 1.1366 -1.1834 0
M  V30 11 O -1.1882 -1.4293 1.0464 0
M  V30 12 C -0.0645 0.5875 0.1047 0
M  V30 13 C 1.3741 0.046 0.1083 0
M  V30 14 C -0.3133 1.6669 1.1681 0
M  V30 15 C 1.9426 -0.4185 1.3109 0
M  V30 16 C 2.1505 -0.0437 -1.0621 0
M  V30 17 C 0.4859 2.8303 1.1719 0
M  V30 18 C -1.3198 1.5626 2.1437 0
M  V30 19 C 3.2421 -0.9284 1.3457 0
M  V30 20 C 3.4505 -0.5555 -1.0246 0
M  V30 21 C 0.2874 3.8426 2.113 0
M  V30 22 C -1.5164 2.5781 3.0847 0
M  V30 23 C 3.9966 -0.9937 0.1784 0
M  V30 24 C -0.7149 3.7161 3.069 0
M  V30 25 H -2.4943 -4.6531 -3.4075 0
M  V30 26 H -0.3285 -4.3631 -1.5188 0
M  V30 27 H -3.4592 -1.232 -2.0927 0
M  V30 28 H -3.2042 -2.0752 -0.5385 0
M  V30 29 H -0.0642 1.9746 -1.5934 0
M  V30 30 H 1.3697 -0.3924 2.2377 0
M  V30 31 H 1.7566 0.271 -2.0265 0
M  V30 32 H 1.2827 2.9519 0.4396 0
M  V30 33 H -1.9692 0.6917 2.2022 0
M  V30 34 H 3.661 -1.2794 2.2855 0
M  V30 35 H 4.0343 -0.6173 -1.9399 0
M  V30 36 H 0.9178 4.7282 2.1001 0
M  V30 37 H -2.2984 2.4769 3.8338 0
M  V30 38 H 5.0069 -1.3934 0.2047 0
M  V30 39 H -0.8706 4.5022 3.8034 0
M  V30 END ATOM
M  V30 BEGIN BOND
M  V30 1 2 1 2
M  V30 2 1 1 3
M  V30 3 1 1 4
M  V30 4 1 1 5
M  V30 5 1 5 6
M  V30 6 1 6 7
M  V30 7 1 6 8
M  V30 8 2 7 9
M  V30 9 1 7 10
M  V30 10 2 8 11
M  V30 11 1 8 12
M  V30 12 1 12 13
M  V30 13 1 12 14
M  V30 14 2 13 15
M  V30 15 1 13 16
M  V30 16 2 14 17
M  V30 17 1 14 18
M  V30 18 1 15 19
M  V30 19 2 16 20
M  V30 20 1 17 21
M  V30 21 2 18 22
M  V30 22 2 19 23
M  V30 23 2 21 24
M  V30 24 1 10 12
M  V30 25 1 20 23
M  V30 26 1 22 24
M  V30 27 1 3 25
M  V30 28 1 4 26
M  V30 29 1 5 27
M  V30 30 1 5 28
M  V30 31 1 10 29
M  V30 32 1 15 30
M  V30 33 1 16 31
M  V30 34 1 17 32
M  V30 35 1 18 33
M  V30 36 1 19 34
M  V30 37 1 20 35
M  V30 38 1 21 36
M  V30 39 1 22 37
M  V30 40 1 23 38
M  V30 41 1 24 39
M  V30 END BOND
M  V30 END CTAB
M  END
>  <Column 1>
2576

>  <level_0>
3746

>  <index>
3746

>  <Unnamed: 0>
3746

>  <NO.>
3758

>  <Name>
fosphenytoin

>  <IUPAC_name>
(2-5-dioxo-4-4-diphenylimidazolidin-1-yl)methylphosphonic acid

>  <SMILES>
O=C1NC(c2ccccc2)(c2ccccc2)C(=O)N1CP(=O)(O)O

>  <CID>
68746558

>  <logBB>


>  <BBB+/BBB->
BBB+

>  <Inchi>
InChI=1S/C16H15N2O5P/c19-14-16(12-7-3-1-4-8-12-13-9-5-2-6-10-13)17-15(20)18(14)11-24(21-22)23/h1-10H-11H2-(H-17-20)(H2-21-22-23)

>  <threshold>
-1

>  <reference>
R13|R19|R24|R27|R27|R30|

>  <group>
B

>  <Class>
1

>  <ABC>
18.81

>  <ABCGG>
16.36

>  <nAcid>
2

>  <nBase>
0

>  <nAromAtom>
12

>  <nAromBond>
12

>  <nAtom>
39

>  <nHeavyAtom>
24

>  <nSpiro>
0

>  <nBridgehead>
0

>  <nHetero>
8

>  <nN>
2

>  <nO>
5

>  <nF>
0

>  <BalabanJ>
1.89

>  <BertzCT>
779.38

>  <nBonds>
41

>  <nBondsO>
26

>  <nBondsS>
26

>  <nBondsD>
3

>  <nBondsT>
0

>  <nBondsA>
12

>  <nBondsM>
15

>  <nBondsKS>
32

>  <nBondsKD>
9

>  <RNCG>
0.12

>  <RPCG>
0.13

>  <FCSP3>
0.13

>  <SZ>
30

>  <Sm>
28.83

>  <Sv>
26.34

>  <Sse>
40.05

>  <Sp>
27.88

>  <Si>
43.67

>  <MZ>
0.77

>  <Mm>
0.74

>  <Mv>
0.68

>  <Mse>
1.03

>  <Mp>
0.71

>  <Mi>
1.12

>  <NsCH3>
0

>  <NdCH2>
0

>  <NssCH2>
1

>  <NtCH>
0

>  <NdsCH>
0

>  <NaaCH>
10

>  <NsssCH>
0

>  <NddC>
0

>  <NtsC>
0

>  <NdssC>
2

>  <NaasC>
2

>  <NaaaC>
0

>  <NssssC>
1

>  <NsNH3>
0

>  <NsNH2>
0

>  <NssNH2>
0

>  <NdNH>
0

>  <NssNH>
1

>  <NaaNH>
0

>  <NtN>
0

>  <NsssNH>
0

>  <NdsN>
0

>  <NaaN>
0

>  <NsssN>
1

>  <NddsN>
0

>  <NaasN>
0

>  <NssssN>
0

>  <NsOH>
2

>  <NdO>
3

>  <NssO>
0

>  <NaaO>
0

>  <NsF>
0

>  <NsSiH3>
0

>  <NssSiH2>
0

>  <NsssSiH>
0

>  <NssssSi>
0

>  <NsPH2>
0

>  <NssPH>
0

>  <NsssP>
0

>  <NdsssP>
1

>  <NsssssP>
0

>  <NsSH>
0

>  <NdS>
0

>  <NssS>
0

>  <NaaS>
0

>  <NdssS>
0

>  <NddssS>
0

>  <NsCl>
0

>  <NsBr>
0

>  <NsI>
0

>  <fragCpx>
124.08

>  <fMF>
0.44

>  <nHBAcc>
3

>  <nHBDon>
3

>  <Kier1>
18.78

>  <Kier2>
7.32

>  <Lipinski>
1

>  <GhoseFilter>
1

>  <FilterItLogS>
-2.62

>  <VMcGowan>
239.09

>  <LabuteASA>
137.63

>  <PEOE_VSA1>
15.1

>  <PEOE_VSA2>
9.36

>  <PEOE_VSA3>
9.69

>  <PEOE_VSA4>
0

>  <PEOE_VSA5>
0

>  <PEOE_VSA6>
60.66

>  <PEOE_VSA7>
11.13

>  <PEOE_VSA8>
0

>  <PEOE_VSA9>
0

>  <PEOE_VSA10>
6.29

>  <PEOE_VSA11>
5.54

>  <PEOE_VSA12>
0

>  <PEOE_VSA13>
5.91

>  <SMR_VSA1>
23.94

>  <SMR_VSA2>
0

>  <SMR_VSA3>
10.22

>  <SMR_VSA4>
0

>  <SMR_VSA5>
5.54

>  <SMR_VSA6>
6.29

>  <SMR_VSA7>
71.79

>  <SMR_VSA8>
0

>  <SMR_VSA9>
0

>  <SlogP_VSA1>
5.32

>  <SlogP_VSA2>
32.91

>  <SlogP_VSA3>
14.9

>  <SlogP_VSA4>
0

>  <SlogP_VSA5>
11.13

>  <SlogP_VSA6>
60.66

>  <SlogP_VSA7>
0

>  <SlogP_VSA8>
0

>  <SlogP_VSA9>
0

>  <SlogP_VSA10>
4.79

>  <SlogP_VSA11>
0

>  <EState_VSA1>
31.36

>  <EState_VSA2>
0

>  <EState_VSA3>
16.03

>  <EState_VSA4>
0

>  <EState_VSA5>
0

>  <EState_VSA6>
60.66

>  <EState_VSA7>
0

>  <EState_VSA8>
5.32

>  <EState_VSA9>
9.79

>  <EState_VSA10>
14.15

>  <VSA_EState1>
11.28

>  <VSA_EState2>
44.19

>  <VSA_EState3>
2.62

>  <VSA_EState4>
-0.47

>  <VSA_EState5>
-0.71

>  <VSA_EState6>
16.37

>  <VSA_EState7>
-0.96

>  <VSA_EState8>
0

>  <VSA_EState9>
-4.58

>  <apol>
46.56

>  <bpol>
27.77

>  <nRing>
3

>  <nHRing>
1

>  <naRing>
2

>  <naHRing>
0

>  <nARing 2>
1

>  <nAHRing 2>
1

>  <nFRing>
0

>  <nFHRing>
0

>  <nFaRing>
0

>  <nFaHRing>
0

>  <nFARing 2>
0

>  <nFAHRing 2>
0

>  <nRot>
4

>  <SLogP>
1.62

>  <SMR>
85.95

>  <TopoPSA(NO)>
106.94

>  <TopoPSA>
116.75

>  <JGI1>
0.25

>  <JGI2>
0.09

>  <JGI3>
0.08

>  <JGI4>
0.05

>  <JGI5>
0.02

>  <Diameter>
9

>  <Radius>
5

>  <TMWC10>
126.99

>  <TSRW10>
73.73

>  <MW>
346.07

>  <AMW>
8.87

>  <WPath>
1181

>  <WPol>
41

>  <Zagreb1>
130

>  <Zagreb2>
156

>  <mZagreb2>
5.14

>  <yes>


>  <nAR-cont>
0.816016

>  <nHA-cont>
0.94700071

>  <MWHBN>
0.322529374

>  <MWHBN-cont>
0.768626732

>  <TPSA-cont>
0.185012503

>  <pka_cont>
0.97

>  <yes.1>


>  <BBB_SCORE>
3.770981812

>  <MMFF94 Energy>
-94.858

$$$$
Compound 2089
Actelion Java MolfileCreator 2.0

  0  0  0  0  0  0              0 V3000
M  V30 BEGIN CTAB
M  V30 COUNTS 36 39 0 0 0
M  V30 BEGIN ATOM
M  V30 1 Cl -0.5704 -4.08 -0.4074 0
M  V30 2 C -1.6152 -2.7078 -0.5428 0
M  V30 3 C -1.1653 -1.3741 -0.4909 0
M  V30 4 C -2.9804 -3.0031 -0.6864 0
M  V30 5 C -2.1555 -0.3637 -0.5456 0
M  V30 6 C 0.3005 -0.9747 -0.3127 0 CFG=1
M  V30 7 C -3.9263 -1.9852 -0.7638 0
M  V30 8 C -3.5131 -0.6633 -0.6875 0
M  V30 9 O 1.2282 -1.8654 -0.9237 0
M  V30 10 C 0.649 0.4354 -0.9302 0
M  V30 11 C 0.6898 -0.7135 1.1369 0
M  V30 12 N 0.5198 0.6986 -2.1905 0
M  V30 13 N 1.1164 1.2767 0.0594 0
M  V30 14 C 1.1339 0.6223 1.2775 0
M  V30 15 C 0.6544 -1.5807 2.2197 0
M  V30 16 C 0.8555 2.0862 -2.556 0
M  V30 17 C 1.57 2.6135 -0.213 0
M  V30 18 C 1.5233 1.098 2.5165 0
M  V30 19 C 1.0513 -1.0965 3.4664 0
M  V30 20 C 1.9597 2.683 -1.6866 0
M  V30 21 C 1.4782 0.232 3.6145 0
M  V30 22 H -3.3135 -4.0378 -0.7313 0
M  V30 23 H -1.8801 0.6877 -0.4772 0
M  V30 24 H -4.9803 -2.2254 -0.8738 0
M  V30 25 H -4.2438 0.1404 -0.7357 0
M  V30 26 H 1.0718 -1.7661 -1.8805 0
M  V30 27 H 0.3331 -2.6104 2.1042 0
M  V30 28 H 1.1848 2.0931 -3.6008 0
M  V30 29 H -0.0523 2.6986 -2.501 0
M  V30 30 H 2.4384 2.8819 0.3988 0
M  V30 31 H 0.7686 3.3288 0.0048 0
M  V30 32 H 1.8645 2.1183 2.6504 0
M  V30 33 H 1.0332 -1.7565 4.3307 0
M  V30 34 H 2.1552 3.7209 -1.9768 0
M  V30 35 H 2.8876 2.1186 -1.8456 0
M  V30 36 H 1.785 0.5887 4.5951 0
M  V30 END ATOM
M  V30 BEGIN BOND
M  V30 1 1 1 2
M  V30 2 2 2 3
M  V30 3 1 2 4
M  V30 4 1 3 5
M  V30 5 1 3 6
M  V30 6 2 4 7
M  V30 7 2 5 8
M  V30 8 1 6 9
M  V30 9 1 6 10
M  V30 10 1 6 11
M  V30 11 2 10 12
M  V30 12 1 10 13
M  V30 13 2 11 14
M  V30 14 1 11 15
M  V30 15 1 12 16
M  V30 16 1 13 17
M  V30 17 1 14 18
M  V30 18 2 15 19
M  V30 19 1 16 20
M  V30 20 2 18 21
M  V30 21 1 7 8
M  V30 22 1 13 14
M  V30 23 1 17 20
M  V30 24 1 19 21
M  V30 25 1 4 22
M  V30 26 1 5 23
M  V30 27 1 7 24
M  V30 28 1 8 25
M  V30 29 1 9 26
M  V30 30 1 15 27
M  V30 31 1 16 28
M  V30 32 1 16 29
M  V30 33 1 17 30
M  V30 34 1 17 31
M  V30 35 1 18 32
M  V30 36 1 19 33
M  V30 37 1 20 34
M  V30 38 1 20 35
M  V30 39 1 21 36
M  V30 END BOND
M  V30 BEGIN COLLECTION
M  V30 MDLV30/STERAC1 ATOMS=(1 6)
M  V30 END COLLECTION
M  V30 END CTAB
M  END
>  <Column 1>
2578

>  <level_0>
3777

>  <index>
3777

>  <Unnamed: 0>
3777

>  <NO.>
3789

>  <Name>
ciclazindol

>  <IUPAC_name>
10-(2-chlorophenyl)-3-4-dihydro-2h-pyrimido[1-2-a]indol-10-ol

>  <SMILES>
OC1(c2ccccc2Cl)C2=NCCCN2c2ccccc21

>  <CID>
5311045

>  <logBB>


>  <BBB+/BBB->
BBB+

>  <Inchi>
InChI=1S/C17H15ClN2O/c18-14-8-3-1-6-12(14)17(21)13-7-2-4-9-15(13)20-11-5-10-19-16(17)20/h1-4-6-9-21H-5-10-11H2

>  <threshold>
-1

>  <reference>
R13|R19|R27|

>  <group>
B

>  <Class>
1

>  <ABC>
16.89

>  <ABCGG>
13.92

>  <nAcid>
0

>  <nBase>
2

>  <nAromAtom>
12

>  <nAromBond>
12

>  <nAtom>
36

>  <nHeavyAtom>
21

>  <nSpiro>
0

>  <nBridgehead>
0

>  <nHetero>
4

>  <nN>
2

>  <nO>
1

>  <nF>
0

>  <BalabanJ>
1.69

>  <BertzCT>
743.07

>  <nBonds>
39

>  <nBondsO>
24

>  <nBondsS>
26

>  <nBondsD>
1

>  <nBondsT>
0

>  <nBondsA>
12

>  <nBondsM>
13

>  <nBondsKS>
32

>  <nBondsKD>
7

>  <RNCG>
0.25

>  <RPCG>
0.14

>  <FCSP3>
0.24

>  <SZ>
26

>  <Sm>
24.87

>  <Sv>
24.39

>  <Sse>
36.08

>  <Sp>
26.09

>  <Si>
40.06

>  <MZ>
0.72

>  <Mm>
0.69

>  <Mv>
0.68

>  <Mse>
1

>  <Mp>
0.72

>  <Mi>
1.11

>  <NsCH3>
0

>  <NdCH2>
0

>  <NssCH2>
3

>  <NtCH>
0

>  <NdsCH>
0

>  <NaaCH>
8

>  <NsssCH>
0

>  <NddC>
0

>  <NtsC>
0

>  <NdssC>
1

>  <NaasC>
4

>  <NaaaC>
0

>  <NssssC>
1

>  <NsNH3>
0

>  <NsNH2>
0

>  <NssNH2>
0

>  <NdNH>
0

>  <NssNH>
0

>  <NaaNH>
0

>  <NtN>
0

>  <NsssNH>
0

>  <NdsN>
1

>  <NaaN>
0

>  <NsssN>
1

>  <NddsN>
0

>  <NaasN>
0

>  <NssssN>
0

>  <NsOH>
1

>  <NdO>
0

>  <NssO>
0

>  <NaaO>
0

>  <NsF>
0

>  <NsSiH3>
0

>  <NssSiH2>
0

>  <NsssSiH>
0

>  <NssssSi>
0

>  <NsPH2>
0

>  <NssPH>
0

>  <NsssP>
0

>  <NdsssP>
0

>  <NsssssP>
0

>  <NsSH>
0

>  <NdS>
0

>  <NssS>
0

>  <NaaS>
0

>  <NdssS>
0

>  <NddssS>
0

>  <NsCl>
1

>  <NsBr>
0

>  <NsI>
0

>  <fragCpx>
156.04

>  <fMF>
0.53

>  <nHBAcc>
3

>  <nHBDon>
1

>  <Kier1>
14.58

>  <Kier2>
5.57

>  <Lipinski>
1

>  <GhoseFilter>
1

>  <FilterItLogS>
-4.47

>  <VMcGowan>
214.92

>  <LabuteASA>
128.05

>  <PEOE_VSA1>
10.01

>  <PEOE_VSA2>
4.99

>  <PEOE_VSA3>
0

>  <PEOE_VSA4>
0

>  <PEOE_VSA5>
0

>  <PEOE_VSA6>
48

>  <PEOE_VSA7>
18.55

>  <PEOE_VSA8>
34.93

>  <PEOE_VSA9>
0

>  <PEOE_VSA10>
5.84

>  <PEOE_VSA11>
5.6

>  <PEOE_VSA12>
0

>  <PEOE_VSA13>
0

>  <SMR_VSA1>
5.11

>  <SMR_VSA2>
0

>  <SMR_VSA3>
0

>  <SMR_VSA4>
4.99

>  <SMR_VSA5>
12.02

>  <SMR_VSA6>
17.99

>  <SMR_VSA7>
64.68

>  <SMR_VSA8>
0

>  <SMR_VSA9>
0

>  <SlogP_VSA1>
4.9

>  <SlogP_VSA2>
24.03

>  <SlogP_VSA3>
5.6

>  <SlogP_VSA4>
0

>  <SlogP_VSA5>
17.55

>  <SlogP_VSA6>
53.52

>  <SlogP_VSA7>
5.02

>  <SlogP_VSA8>
0

>  <SlogP_VSA9>
0

>  <SlogP_VSA10>
5.69

>  <SlogP_VSA11>
0

>  <EState_VSA1>
5.6

>  <EState_VSA2>
0

>  <EState_VSA3>
16.42

>  <EState_VSA4>
30.76

>  <EState_VSA5>
0

>  <EState_VSA6>
0

>  <EState_VSA7>
48.53

>  <EState_VSA8>
9.89

>  <EState_VSA9>
11.6

>  <EState_VSA10>
5.11

>  <VSA_EState1>
0

>  <VSA_EState2>
6.72

>  <VSA_EState3>
12.09

>  <VSA_EState4>
1.33

>  <VSA_EState5>
0.7

>  <VSA_EState6>
15.38

>  <VSA_EState7>
1

>  <VSA_EState8>
1.62

>  <VSA_EState9>
0

>  <apol>
43.57

>  <bpol>
18.41

>  <nRing>
4

>  <nHRing>
2

>  <naRing>
2

>  <naHRing>
0

>  <nARing 2>
2

>  <nAHRing 2>
2

>  <nFRing>
1

>  <nFHRing>
1

>  <nFaRing>
0

>  <nFaHRing>
0

>  <nFARing 2>
1

>  <nFAHRing 2>
1

>  <nRot>
1

>  <SLogP>
3.2

>  <SMR>
85.16

>  <TopoPSA(NO)>
35.83

>  <TopoPSA>
35.83

>  <JGI1>
0.15

>  <JGI2>
0.1

>  <JGI3>
0.08

>  <JGI4>
0.03

>  <JGI5>
0.02

>  <Diameter>
8

>  <Radius>
4

>  <TMWC10>
122.19

>  <TSRW10>
70.85

>  <MW>
298.09

>  <AMW>
8.28

>  <WPath>
773

>  <WPol>
41

>  <Zagreb1>
120

>  <Zagreb2>
151

>  <mZagreb2>
4.53

>  <yes>


>  <nAR-cont>
1

>  <nHA-cont>
0.994529749

>  <MWHBN>
0.231678796

>  <MWHBN-cont>
0.985035814

>  <TPSA-cont>
0.749884351

>  <pka_cont>
0.97

>  <yes.1>


>  <BBB_SCORE>
5.456852172

>  <MMFF94 Energy>
78.52

$$$$
Compound 2090
Actelion Java MolfileCreator 2.0

  0  0  0  0  0  0              0 V3000
M  V30 BEGIN CTAB
M  V30 COUNTS 9 8 0 0 0
M  V30 BEGIN ATOM
M  V30 1 Br -1.2239 1.4123 1.5065 0
M  V30 2 C -0.4826 0.8029 -0.2083 0
M  V30 3 Br 0.9443 2.004 -0.8268 0
M  V30 4 Br -1.9221 0.7372 -1.5625 0
M  V30 5 C 0.0716 -0.6262 -0.0554 0
M  V30 6 O 1.1301 -0.7263 0.9028 0
M  V30 7 H -0.7184 -1.317 0.2628 0
M  V30 8 H 0.465 -0.9941 -1.0107 0
M  V30 9 H 1.4135 -1.6571 0.9303 0
M  V30 END ATOM
M  V30 BEGIN BOND
M  V30 1 1 1 2
M  V30 2 1 2 3
M  V30 3 1 2 4
M  V30 4 1 2 5
M  V30 5 1 5 6
M  V30 6 1 5 7
M  V30 7 1 5 8
M  V30 8 1 6 9
M  V30 END BOND
M  V30 END CTAB
M  END
>  <Column 1>
2579

>  <level_0>
3778

>  <index>
3778

>  <Unnamed: 0>
3778

>  <NO.>
3790

>  <Name>
2-2-2-tribromoethanol

>  <IUPAC_name>
2-2-2-tribromoethanol

>  <SMILES>
OCC(Br)(Br)Br

>  <CID>
6400

>  <logBB>


>  <BBB+/BBB->
BBB+

>  <Inchi>
InChI=1S/C2H3Br3O/c3-2(4-5)1-6/h6H-1H2

>  <threshold>
-1

>  <reference>
R13|R19|R6|R24|R27|R27|R30|

>  <group>
B

>  <Class>
1

>  <ABC>
4.01

>  <ABCGG>
4.28

>  <nAcid>
0

>  <nBase>
0

>  <nAromAtom>
0

>  <nAromBond>
0

>  <nAtom>
9

>  <nHeavyAtom>
6

>  <nSpiro>
0

>  <nBridgehead>
0

>  <nHetero>
4

>  <nN>
0

>  <nO>
1

>  <nF>
0

>  <BalabanJ>
3.17

>  <BertzCT>
38.55

>  <nBonds>
8

>  <nBondsO>
5

>  <nBondsS>
8

>  <nBondsD>
0

>  <nBondsT>
0

>  <nBondsA>
0

>  <nBondsM>
0

>  <nBondsKS>
8

>  <nBondsKD>
0

>  <RNCG>
0.7

>  <RPCG>
0.37

>  <FCSP3>
1

>  <SZ>
21.33

>  <Sm>
23.54

>  <Sv>
7.39

>  <Sse>
9.68

>  <Sp>
9.16

>  <Si>
9.98

>  <MZ>
2.37

>  <Mm>
2.62

>  <Mv>
0.82

>  <Mse>
1.08

>  <Mp>
1.02

>  <Mi>
1.11

>  <NsCH3>
0

>  <NdCH2>
0

>  <NssCH2>
1

>  <NtCH>
0

>  <NdsCH>
0

>  <NaaCH>
0

>  <NsssCH>
0

>  <NddC>
0

>  <NtsC>
0

>  <NdssC>
0

>  <NaasC>
0

>  <NaaaC>
0

>  <NssssC>
1

>  <NsNH3>
0

>  <NsNH2>
0

>  <NssNH2>
0

>  <NdNH>
0

>  <NssNH>
0

>  <NaaNH>
0

>  <NtN>
0

>  <NsssNH>
0

>  <NdsN>
0

>  <NaaN>
0

>  <NsssN>
0

>  <NddsN>
0

>  <NaasN>
0

>  <NssssN>
0

>  <NsOH>
1

>  <NdO>
0

>  <NssO>
0

>  <NaaO>
0

>  <NsF>
0

>  <NsSiH3>
0

>  <NssSiH2>
0

>  <NsssSiH>
0

>  <NssssSi>
0

>  <NsPH2>
0

>  <NssPH>
0

>  <NsssP>
0

>  <NdsssP>
0

>  <NsssssP>
0

>  <NsSH>
0

>  <NdS>
0

>  <NssS>
0

>  <NaaS>
0

>  <NdssS>
0

>  <NddssS>
0

>  <NsCl>
0

>  <NsBr>
3

>  <NsI>
0

>  <fragCpx>
5.04

>  <fMF>
0

>  <nHBAcc>
1

>  <nHBDon>
1

>  <Kier1>
6

>  <Kier2>
1.63

>  <Lipinski>
1

>  <GhoseFilter>
0

>  <FilterItLogS>
-2.31

>  <VMcGowan>
97.41

>  <LabuteASA>
61.5

>  <PEOE_VSA1>
5.11

>  <PEOE_VSA2>
0

>  <PEOE_VSA3>
0

>  <PEOE_VSA4>
0

>  <PEOE_VSA5>
0

>  <PEOE_VSA6>
47.79

>  <PEOE_VSA7>
0

>  <PEOE_VSA8>
0

>  <PEOE_VSA9>
6.61

>  <PEOE_VSA10>
0

>  <PEOE_VSA11>
2.14

>  <PEOE_VSA12>
0

>  <PEOE_VSA13>
0

>  <SMR_VSA1>
5.11

>  <SMR_VSA2>
0

>  <SMR_VSA3>
0

>  <SMR_VSA4>
0

>  <SMR_VSA5>
2.14

>  <SMR_VSA6>
6.61

>  <SMR_VSA7>
0

>  <SMR_VSA8>
0

>  <SMR_VSA9>
0

>  <SlogP_VSA1>
0

>  <SlogP_VSA2>
13.86

>  <SlogP_VSA3>
0

>  <SlogP_VSA4>
0

>  <SlogP_VSA5>
0

>  <SlogP_VSA6>
0

>  <SlogP_VSA7>
0

>  <SlogP_VSA8>
0

>  <SlogP_VSA9>
0

>  <SlogP_VSA10>
0

>  <SlogP_VSA11>
0

>  <EState_VSA1>
2.14

>  <EState_VSA2>
6.61

>  <EState_VSA3>
0

>  <EState_VSA4>
0

>  <EState_VSA5>
0

>  <EState_VSA6>
0

>  <EState_VSA7>
0

>  <EState_VSA8>
47.79

>  <EState_VSA9>
5.11

>  <EState_VSA10>
0

>  <VSA_EState1>
-0.47

>  <VSA_EState2>
0

>  <VSA_EState3>
8.26

>  <VSA_EState4>
0

>  <VSA_EState5>
0

>  <VSA_EState6>
0

>  <VSA_EState7>
0

>  <VSA_EState8>
0.02

>  <VSA_EState9>
0

>  <apol>
15.29

>  <bpol>
7.15

>  <nRing>
0

>  <nHRing>
0

>  <naRing>
0

>  <naHRing>
0

>  <nARing 2>
0

>  <nAHRing 2>
0

>  <nFRing>
0

>  <nFHRing>
0

>  <nFaRing>
0

>  <nFaHRing>
0

>  <nFARing 2>
0

>  <nFAHRing 2>
0

>  <nRot>
0

>  <SLogP>
1.82

>  <SMR>
36.6

>  <TopoPSA(NO)>
20.23

>  <TopoPSA>
20.23

>  <JGI1>
0.6

>  <JGI2>
0.1

>  <JGI3>
0

>  <JGI4>
0

>  <JGI5>
0

>  <Diameter>
3

>  <Radius>
2

>  <TMWC10>
65.41

>  <TSRW10>
31.67

>  <MW>
279.77

>  <AMW>
31.09

>  <WPath>
28

>  <WPol>
3

>  <Zagreb1>
24

>  <Zagreb2>
22

>  <mZagreb2>
1.38

>  <yes>


>  <nAR-cont>
0.336376

>  <nHA-cont>
0.238778273

>  <MWHBN>
0.119571981

>  <MWHBN-cont>
0.827524695

>  <TPSA-cont>
0.858782038

>  <pka_cont>
0.97

>  <yes.1>


>  <BBB_SCORE>
4.019005391

>  <MMFF94 Energy>
38.592

$$$$
Compound 2091
Actelion Java MolfileCreator 2.0

  0  0  0  0  0  0              0 V3000
M  V30 BEGIN CTAB
M  V30 COUNTS 59 62 0 0 0
M  V30 BEGIN ATOM
M  V30 1 O -6.9967 -0.0792 -1.9044 0
M  V30 2 C -6.1902 1.0558 -2.211 0
M  V30 3 C -5.05 0.6884 -3.1788 0
M  V30 4 N -3.7792 0.3208 -2.505 0
M  V30 5 C -3.893 -0.9938 -1.8411 0
M  V30 6 C -2.698 0.2887 -3.5076 0
M  V30 7 C -2.9322 -1.2342 -0.6484 0
M  V30 8 C -1.2771 0.2407 -2.9486 0
M  V30 9 N -1.5386 -0.7636 -0.7285 0
M  V30 10 C -0.9552 -0.9543 -2.0553 0
M  V30 11 C -0.7368 -1.3577 0.352 0
M  V30 12 C 0.5247 -0.5428 0.6649 0
M  V30 13 C 1.2746 -1.1521 1.8577 0
M  V30 14 N 2.5233 -0.4158 2.1411 0
M  V30 15 C 3.6412 -0.7777 1.3583 0
M  V30 16 C 2.3791 0.7707 2.8927 0
M  V30 17 C 4.3129 0.114 0.5014 0
M  V30 18 C 4.134 -2.0964 1.4647 0
M  V30 19 C 2.7402 2.0438 2.4136 0
M  V30 20 C 1.8763 0.6734 4.2084 0
M  V30 21 C 3.8634 1.4851 0.2256 0
M  V30 22 C 5.428 -0.3391 -0.2322 0
M  V30 23 C 5.2447 -2.5297 0.7398 0
M  V30 24 C 3.1923 2.3079 1.0411 0
M  V30 25 C 2.5687 3.1699 3.2441 0
M  V30 26 C 1.7204 1.7951 5.0238 0
M  V30 27 C 5.893 -1.6482 -0.1121 0
M  V30 28 C 2.0669 3.0475 4.5394 0
M  V30 29 H -7.6382 0.2108 -1.2336 0
M  V30 30 H -5.8042 1.4865 -1.2807 0
M  V30 31 H -6.8435 1.797 -2.6839 0
M  V30 32 H -5.3676 -0.1039 -3.8683 0
M  V30 33 H -4.8638 1.5921 -3.7731 0
M  V30 34 H -3.7764 -1.8035 -2.5743 0
M  V30 35 H -4.8942 -1.133 -1.4221 0
M  V30 36 H -2.8446 -0.5422 -4.2109 0
M  V30 37 H -2.7449 1.2043 -4.1127 0
M  V30 38 H -3.3815 -0.7509 0.2296 0
M  V30 39 H -2.9468 -2.3151 -0.4503 0
M  V30 40 H -1.0615 1.1749 -2.4125 0
M  V30 41 H -0.5865 0.2223 -3.8021 0
M  V30 42 H 0.1375 -1.0034 -1.9946 0
M  V30 43 H -1.2652 -1.9018 -2.5135 0
M  V30 44 H -0.476 -2.3968 0.1126 0
M  V30 45 H -1.3358 -1.3868 1.2723 0
M  V30 46 H 0.2453 0.4937 0.8914 0
M  V30 47 H 1.1909 -0.5084 -0.2032 0
M  V30 48 H 0.6143 -1.1606 2.7339 0
M  V30 49 H 1.4807 -2.2095 1.6506 0
M  V30 50 H 3.6604 -2.7927 2.1528 0
M  V30 51 H 1.629 -0.3028 4.6183 0
M  V30 52 H 4.1232 1.8657 -0.7601 0
M  V30 53 H 5.9493 0.3356 -0.9082 0
M  V30 54 H 5.604 -3.5487 0.8519 0
M  V30 55 H 2.9528 3.2991 0.6608 0
M  V30 56 H 2.8297 4.1623 2.8819 0
M  V30 57 H 1.3376 1.6845 6.0344 0
M  V30 58 H 6.7598 -1.9728 -0.6807 0
M  V30 59 H 1.9497 3.9286 5.1641 0
M  V30 END ATOM
M  V30 BEGIN BOND
M  V30 1 1 1 2
M  V30 2 1 2 3
M  V30 3 1 3 4
M  V30 4 1 4 5
M  V30 5 1 4 6
M  V30 6 1 5 7
M  V30 7 1 6 8
M  V30 8 1 7 9
M  V30 9 1 8 10
M  V30 10 1 9 11
M  V30 11 1 11 12
M  V30 12 1 12 13
M  V30 13 1 13 14
M  V30 14 1 14 15
M  V30 15 1 14 16
M  V30 16 2 15 17
M  V30 17 1 15 18
M  V30 18 2 16 19
M  V30 19 1 16 20
M  V30 20 1 17 21
M  V30 21 1 17 22
M  V30 22 2 18 23
M  V30 23 1 19 24
M  V30 24 1 19 25
M  V30 25 2 20 26
M  V30 26 2 22 27
M  V30 27 2 25 28
M  V30 28 1 9 10
M  V30 29 2 21 24
M  V30 30 1 23 27
M  V30 31 1 26 28
M  V30 32 1 1 29
M  V30 33 1 2 30
M  V30 34 1 2 31
M  V30 35 1 3 32
M  V30 36 1 3 33
M  V30 37 1 5 34
M  V30 38 1 5 35
M  V30 39 1 6 36
M  V30 40 1 6 37
M  V30 41 1 7 38
M  V30 42 1 7 39
M  V30 43 1 8 40
M  V30 44 1 8 41
M  V30 45 1 10 42
M  V30 46 1 10 43
M  V30 47 1 11 44
M  V30 48 1 11 45
M  V30 49 1 12 46
M  V30 50 1 12 47
M  V30 51 1 13 48
M  V30 52 1 13 49
M  V30 53 1 18 50
M  V30 54 1 20 51
M  V30 55 1 21 52
M  V30 56 1 22 53
M  V30 57 1 23 54
M  V30 58 1 24 55
M  V30 59 1 25 56
M  V30 60 1 26 57
M  V30 61 1 27 58
M  V30 62 1 28 59
M  V30 END BOND
M  V30 END CTAB
M  END
>  <Column 1>
2580

>  <level_0>
3781

>  <index>
3781

>  <Unnamed: 0>
3781

>  <NO.>
3793

>  <Name>
homopipramol

>  <IUPAC_name>
2-[4-(3-benzo[b][1]benzazepin-11-ylpropyl)-1-4-diazepan-1-yl]ethanol

>  <SMILES>
OCCN1CCCN(CCCN2c3ccccc3C=Cc3ccccc32)CC1

>  <CID>
3042817

>  <logBB>


>  <BBB+/BBB->
BBB+

>  <Inchi>
InChI=1S/C24H31N3O/c28-20-19-26-14-5-13-25(17-18-26)15-6-16-27-23-9-3-1-7-21(23)11-12-22-8-2-4-10-24(22)27/h1-4-7-12-28H-5-6-13-20H2

>  <threshold>
-1

>  <reference>
R13|R19|R6|R24|R27|R27|R30|

>  <group>
B

>  <Class>
1

>  <ABC>
21.76

>  <ABCGG>
16.13

>  <nAcid>
0

>  <nBase>
2

>  <nAromAtom>
12

>  <nAromBond>
12

>  <nAtom>
59

>  <nHeavyAtom>
28

>  <nSpiro>
0

>  <nBridgehead>
0

>  <nHetero>
4

>  <nN>
3

>  <nO>
1

>  <nF>
0

>  <BalabanJ>
1.32

>  <BertzCT>
754.44

>  <nBonds>
62

>  <nBondsO>
31

>  <nBondsS>
49

>  <nBondsD>
1

>  <nBondsT>
0

>  <nBondsA>
12

>  <nBondsM>
13

>  <nBondsKS>
55

>  <nBondsKD>
7

>  <RNCG>
0.21

>  <RPCG>
0.11

>  <FCSP3>
0.42

>  <SZ>
34

>  <Sm>
31.43

>  <Sv>
35.39

>  <Sse>
58.08

>  <Sp>
38.83

>  <Si>
66.52

>  <MZ>
0.58

>  <Mm>
0.53

>  <Mv>
0.6

>  <Mse>
0.98

>  <Mp>
0.66

>  <Mi>
1.13

>  <NsCH3>
0

>  <NdCH2>
0

>  <NssCH2>
10

>  <NtCH>
0

>  <NdsCH>
2

>  <NaaCH>
8

>  <NsssCH>
0

>  <NddC>
0

>  <NtsC>
0

>  <NdssC>
0

>  <NaasC>
4

>  <NaaaC>
0

>  <NssssC>
0

>  <NsNH3>
0

>  <NsNH2>
0

>  <NssNH2>
0

>  <NdNH>
0

>  <NssNH>
0

>  <NaaNH>
0

>  <NtN>
0

>  <NsssNH>
0

>  <NdsN>
0

>  <NaaN>
0

>  <NsssN>
3

>  <NddsN>
0

>  <NaasN>
0

>  <NssssN>
0

>  <NsOH>
1

>  <NdO>
0

>  <NssO>
0

>  <NaaO>
0

>  <NsF>
0

>  <NsSiH3>
0

>  <NssSiH2>
0

>  <NsssSiH>
0

>  <NssssSi>
0

>  <NsPH2>
0

>  <NssPH>
0

>  <NsssP>
0

>  <NdsssP>
0

>  <NsssssP>
0

>  <NsSH>
0

>  <NdS>
0

>  <NssS>
0

>  <NaaS>
0

>  <NdssS>
0

>  <NddssS>
0

>  <NsCl>
0

>  <NsBr>
0

>  <NsI>
0

>  <fragCpx>
205.04

>  <fMF>
0.42

>  <nHBAcc>
4

>  <nHBDon>
1

>  <Kier1>
21.24

>  <Kier2>
10.86

>  <Lipinski>
1

>  <GhoseFilter>
1

>  <FilterItLogS>
-4.57

>  <VMcGowan>
311.29

>  <LabuteASA>
168.24

>  <PEOE_VSA1>
14.91

>  <PEOE_VSA2>
4.9

>  <PEOE_VSA3>
0

>  <PEOE_VSA4>
0

>  <PEOE_VSA5>
0

>  <PEOE_VSA6>
48.55

>  <PEOE_VSA7>
55.74

>  <PEOE_VSA8>
37.55

>  <PEOE_VSA9>
6.61

>  <PEOE_VSA10>
0

>  <PEOE_VSA11>
0

>  <PEOE_VSA12>
0

>  <PEOE_VSA13>
0

>  <SMR_VSA1>
5.11

>  <SMR_VSA2>
0

>  <SMR_VSA3>
9.8

>  <SMR_VSA4>
0

>  <SMR_VSA5>
12.84

>  <SMR_VSA6>
57.32

>  <SMR_VSA7>
59.66

>  <SMR_VSA8>
0

>  <SMR_VSA9>
0

>  <SlogP_VSA1>
4.9

>  <SlogP_VSA2>
67.33

>  <SlogP_VSA3>
0

>  <SlogP_VSA4>
0

>  <SlogP_VSA5>
23.97

>  <SlogP_VSA6>
48.53

>  <SlogP_VSA7>
0

>  <SlogP_VSA8>
12.15

>  <SlogP_VSA9>
0

>  <SlogP_VSA10>
11.37

>  <SlogP_VSA11>
0

>  <EState_VSA1>
0

>  <EState_VSA2>
6.61

>  <EState_VSA3>
0

>  <EState_VSA4>
52.23

>  <EState_VSA5>
28.92

>  <EState_VSA6>
0

>  <EState_VSA7>
0

>  <EState_VSA8>
75.38

>  <EState_VSA9>
0

>  <EState_VSA10>
5.11

>  <VSA_EState1>
0

>  <VSA_EState2>
7.46

>  <VSA_EState3>
9.18

>  <VSA_EState4>
5.17

>  <VSA_EState5>
0

>  <VSA_EState6>
17.39

>  <VSA_EState7>
6.8

>  <VSA_EState8>
7.67

>  <VSA_EState9>
0

>  <apol>
64.85

>  <bpol>
36.23

>  <nRing>
4

>  <nHRing>
2

>  <naRing>
2

>  <naHRing>
0

>  <nARing 2>
2

>  <nAHRing 2>
2

>  <nFRing>
1

>  <nFHRing>
1

>  <nFaRing>
0

>  <nFaHRing>
0

>  <nFARing 2>
1

>  <nFAHRing 2>
1

>  <nRot>
6

>  <SLogP>
3.7

>  <SMR>
118.02

>  <TopoPSA(NO)>
29.95

>  <TopoPSA>
29.95

>  <JGI1>
0.11

>  <JGI2>
0.07

>  <JGI3>
0.03

>  <JGI4>
0.03

>  <JGI5>
0.01

>  <Diameter>
14

>  <Radius>
7

>  <TMWC10>
134.83

>  <TSRW10>
72.34

>  <MW>
377.25

>  <AMW>
6.39

>  <WPath>
2166

>  <WPol>
49

>  <Zagreb1>
144

>  <Zagreb2>
168

>  <mZagreb2>
6.36

>  <yes>


>  <nAR-cont>
1

>  <nHA-cont>
0.82432561

>  <MWHBN>
0.257427761

>  <MWHBN-cont>
0.94643004

>  <TPSA-cont>
0.790930402

>  <pka_cont>
0.97

>  <yes.1>


>  <BBB_SCORE>
5.310831474

>  <MMFF94 Energy>
140.15

$$$$
Compound 2092
Actelion Java MolfileCreator 2.0

  0  0  0  0  0  0              0 V3000
M  V30 BEGIN CTAB
M  V30 COUNTS 42 45 0 0 0
M  V30 BEGIN ATOM
M  V30 1 Cl -5.4853 -2.0946 -0.2415 0
M  V30 2 C -3.7953 -1.8566 0.0029 0
M  V30 3 C -3.1453 -0.8644 -0.6161 0
M  V30 4 C -3.1077 -2.7567 0.8795 0
M  V30 5 C -1.6997 -0.6193 -0.4459 0
M  V30 6 C -1.8117 -2.594 1.1602 0
M  V30 7 C -1.0313 0.3003 -1.1893 0
M  V30 8 C -0.9828 -1.4762 0.5863 0
M  V30 9 N 0.3084 0.6782 -1.1102 0
M  V30 10 C -1.794 1.0287 -2.25 0
M  V30 11 N 0.2033 -1.4657 1.0974 0
M  V30 12 O 0.7886 1.6361 -2.0206 0
M  V30 13 C 1.221 0.3044 -0.1556 0
M  V30 14 C -2.3123 2.3071 -1.9974 0
M  V30 15 C -1.9927 0.4417 -3.5098 0
M  V30 16 C 1.217 -0.5991 0.8366 0
M  V30 17 C -3.0268 2.9834 -2.987 0
M  V30 18 C -2.709 1.1215 -4.496 0
M  V30 19 N 2.3069 -0.737 1.6736 0
M  V30 20 C -3.226 2.39 -4.2334 0
M  V30 21 C 3.5242 0.0272 1.7484 0
M  V30 22 C 4.4092 -0.5683 2.8012 0
M  V30 23 C 5.3413 0.3024 3.6058 0
M  V30 24 C 4.1396 -0.3178 4.2642 0
M  V30 25 H -3.7191 -0.2117 -1.2668 0
M  V30 26 H -3.6621 -3.5755 1.3274 0
M  V30 27 H -1.2984 -3.2668 1.8396 0
M  V30 28 H 0.8282 1.1329 -2.8536 0
M  V30 29 H 2.1145 0.9094 -0.2746 0
M  V30 30 H -2.1502 2.7802 -1.0312 0
M  V30 31 H -1.5953 -0.5478 -3.7232 0
M  V30 32 H -3.4238 3.9754 -2.7865 0
M  V30 33 H -2.8649 0.6626 -5.469 0
M  V30 34 H 2.1456 -1.4444 2.3819 0
M  V30 35 H -3.7826 2.9196 -5.0028 0
M  V30 36 H 3.2949 1.0741 1.979 0
M  V30 37 H 4.054 -0.001 0.7899 0
M  V30 38 H 4.7662 -1.5516 2.5146 0
M  V30 39 H 5.3299 1.3739 3.4413 0
M  V30 40 H 6.3181 -0.0962 3.8551 0
M  V30 41 H 3.3127 0.3307 4.5323 0
M  V30 42 H 4.3024 -1.1364 4.9558 0
M  V30 END ATOM
M  V30 BEGIN BOND
M  V30 1 1 1 2
M  V30 2 2 2 3
M  V30 3 1 2 4
M  V30 4 1 3 5
M  V30 5 2 4 6
M  V30 6 2 5 7
M  V30 7 1 5 8
M  V30 8 1 7 9
M  V30 9 1 7 10
M  V30 10 2 8 11
M  V30 11 1 9 12
M  V30 12 1 9 13
M  V30 13 2 10 14
M  V30 14 1 10 15
M  V30 15 1 11 16
M  V30 16 1 14 17
M  V30 17 2 15 18
M  V30 18 1 16 19
M  V30 19 2 17 20
M  V30 20 1 19 21
M  V30 21 1 21 22
M  V30 22 1 22 23
M  V30 23 1 22 24
M  V30 24 1 6 8
M  V30 25 2 13 16
M  V30 26 1 18 20
M  V30 27 1 23 24
M  V30 28 1 3 25
M  V30 29 1 4 26
M  V30 30 1 6 27
M  V30 31 1 12 28
M  V30 32 1 13 29
M  V30 33 1 14 30
M  V30 34 1 15 31
M  V30 35 1 17 32
M  V30 36 1 18 33
M  V30 37 1 19 34
M  V30 38 1 20 35
M  V30 39 1 21 36
M  V30 40 1 21 37
M  V30 41 1 22 38
M  V30 42 1 23 39
M  V30 43 1 23 40
M  V30 44 1 24 41
M  V30 45 1 24 42
M  V30 END BOND
M  V30 END CTAB
M  END
>  <Column 1>
2581

>  <level_0>
3789

>  <index>
3789

>  <Unnamed: 0>
3789

>  <NO.>
3801

>  <Name>


>  <IUPAC_name>


>  <SMILES>
ON1C=C(NCC2CC2)N=c2ccc(Cl)cc2=C1c1ccccc1

>  <CID>


>  <logBB>


>  <BBB+/BBB->
BBB+

>  <Inchi>
InChI=1S/C19H18ClN3O/c20-15-8-9-17-16(10-15)19(14-4-2-1-3-5-14)23(24)12-18(22-17)21-11-13-6-7-13/h1-5-8-10-12-13-21-24H-6-7-11H2

>  <threshold>
-1

>  <reference>
R13|

>  <group>
B

>  <Class>
1

>  <ABC>
19.15

>  <ABCGG>
14.99

>  <nAcid>
0

>  <nBase>
0

>  <nAromAtom>
12

>  <nAromBond>
12

>  <nAtom>
42

>  <nHeavyAtom>
24

>  <nSpiro>
0

>  <nBridgehead>
0

>  <nHetero>
5

>  <nN>
3

>  <nO>
1

>  <nF>
0

>  <BalabanJ>
1.49

>  <BertzCT>
903.95

>  <nBonds>
45

>  <nBondsO>
27

>  <nBondsS>
30

>  <nBondsD>
3

>  <nBondsT>
0

>  <nBondsA>
12

>  <nBondsM>
15

>  <nBondsKS>
37

>  <nBondsKD>
8

>  <RNCG>
0.22

>  <RPCG>
0.14

>  <FCSP3>
0.21

>  <SZ>
29.67

>  <Sm>
28.29

>  <Sv>
27.96

>  <Sse>
42.08

>  <Sp>
29.95

>  <Si>
46.97

>  <MZ>
0.71

>  <Mm>
0.67

>  <Mv>
0.67

>  <Mse>
1

>  <Mp>
0.71

>  <Mi>
1.12

>  <NsCH3>
0

>  <NdCH2>
0

>  <NssCH2>
3

>  <NtCH>
0

>  <NdsCH>
1

>  <NaaCH>
8

>  <NsssCH>
1

>  <NddC>
0

>  <NtsC>
0

>  <NdssC>
2

>  <NaasC>
2

>  <NaaaC>
0

>  <NssssC>
0

>  <NsNH3>
0

>  <NsNH2>
0

>  <NssNH2>
0

>  <NdNH>
0

>  <NssNH>
1

>  <NaaNH>
0

>  <NtN>
0

>  <NsssNH>
0

>  <NdsN>
1

>  <NaaN>
0

>  <NsssN>
1

>  <NddsN>
0

>  <NaasN>
0

>  <NssssN>
0

>  <NsOH>
1

>  <NdO>
0

>  <NssO>
0

>  <NaaO>
0

>  <NsF>
0

>  <NsSiH3>
0

>  <NssSiH2>
0

>  <NsssSiH>
0

>  <NssssSi>
0

>  <NsPH2>
0

>  <NssPH>
0

>  <NsssP>
0

>  <NdsssP>
0

>  <NsssssP>
0

>  <NsSH>
0

>  <NdS>
0

>  <NssS>
0

>  <NaaS>
0

>  <NdssS>
0

>  <NddssS>
0

>  <NsCl>
1

>  <NsBr>
0

>  <NsI>
0

>  <fragCpx>
177.05

>  <fMF>
0.52

>  <nHBAcc>
4

>  <nHBDon>
2

>  <Kier1>
17.42

>  <Kier2>
7.71

>  <Lipinski>
1

>  <GhoseFilter>
1

>  <FilterItLogS>
-4.72

>  <VMcGowan>
248.78

>  <LabuteASA>
144.91

>  <PEOE_VSA1>
5.32

>  <PEOE_VSA2>
5.21

>  <PEOE_VSA3>
10.06

>  <PEOE_VSA4>
0

>  <PEOE_VSA5>
0

>  <PEOE_VSA6>
41.93

>  <PEOE_VSA7>
36.96

>  <PEOE_VSA8>
22.35

>  <PEOE_VSA9>
17.25

>  <PEOE_VSA10>
5.82

>  <PEOE_VSA11>
0

>  <PEOE_VSA12>
0

>  <PEOE_VSA13>
0

>  <SMR_VSA1>
5.21

>  <SMR_VSA2>
0

>  <SMR_VSA3>
10.38

>  <SMR_VSA4>
10.91

>  <SMR_VSA5>
12.84

>  <SMR_VSA6>
6.54

>  <SMR_VSA7>
81.71

>  <SMR_VSA8>
0

>  <SMR_VSA9>
0

>  <SlogP_VSA1>
15.89

>  <SlogP_VSA2>
16.82

>  <SlogP_VSA3>
0

>  <SlogP_VSA4>
5.92

>  <SlogP_VSA5>
18.41

>  <SlogP_VSA6>
65.54

>  <SlogP_VSA7>
5.02

>  <SlogP_VSA8>
5.7

>  <SlogP_VSA9>
0

>  <SlogP_VSA10>
0

>  <SlogP_VSA11>
0

>  <EState_VSA1>
0

>  <EState_VSA2>
0

>  <EState_VSA3>
16.54

>  <EState_VSA4>
33.67

>  <EState_VSA5>
12.84

>  <EState_VSA6>
6.2

>  <EState_VSA7>
48.53

>  <EState_VSA8>
10.31

>  <EState_VSA9>
11.6

>  <EState_VSA10>
5.21

>  <VSA_EState1>
0

>  <VSA_EState2>
4.67

>  <VSA_EState3>
17.33

>  <VSA_EState4>
1.57

>  <VSA_EState5>
1.37

>  <VSA_EState6>
15.29

>  <VSA_EState7>
4.14

>  <VSA_EState8>
0.88

>  <VSA_EState9>
0

>  <apol>
50.01

>  <bpol>
20.85

>  <nRing>
4

>  <nHRing>
1

>  <naRing>
2

>  <naHRing>
0

>  <nARing 2>
2

>  <nAHRing 2>
1

>  <nFRing>
1

>  <nFHRing>
1

>  <nFaRing>
0

>  <nFaHRing>
0

>  <nFARing 2>
1

>  <nFAHRing 2>
1

>  <nRot>
4

>  <SLogP>
2.62

>  <SMR>
93.62

>  <TopoPSA(NO)>
47.86

>  <TopoPSA>
47.86

>  <JGI1>
0.17

>  <JGI2>
0.07

>  <JGI3>
0.05

>  <JGI4>
0.04

>  <JGI5>
0.02

>  <Diameter>
11

>  <Radius>
6

>  <TMWC10>
126.62

>  <TSRW10>
77.13

>  <MW>
339.11

>  <AMW>
8.07

>  <WPath>
1263

>  <WPol>
40

>  <Zagreb1>
130

>  <Zagreb2>
154

>  <mZagreb2>
5.19

>  <yes>


>  <nAR-cont>
1

>  <nHA-cont>
0.94700071

>  <MWHBN>
0.32582241

>  <MWHBN-cont>
0.757363502

>  <TPSA-cont>
0.665907481

>  <pka_cont>
0.97

>  <yes.1>


>  <BBB_SCORE>
4.899860923

>  <MMFF94 Energy>
58.092

$$$$
Compound 2093
Actelion Java MolfileCreator 2.0

  0  0  0  0  0  0              0 V3000
M  V30 BEGIN CTAB
M  V30 COUNTS 45 49 0 0 0
M  V30 BEGIN ATOM
M  V30 1 N 0.889 -3.7219 -0.2424 0
M  V30 2 C 0.521 -2.4585 0.0298 0
M  V30 3 C 0.5222 -4.175 -1.4622 0
M  V30 4 C 0.7811 -1.7361 1.2582 0
M  V30 5 C -0.1985 -1.6328 -0.8456 0
M  V30 6 C -0.1968 -3.4293 -2.3987 0
M  V30 7 N 1.455 -2.2035 2.3235 0
M  V30 8 C 0.229 -0.4498 1.164 0
M  V30 9 C -0.574 -2.1247 -2.0842 0
M  V30 10 C -0.4687 -0.2671 -0.1886 0
M  V30 11 C 1.597 -1.3267 3.3425 0
M  V30 12 C 0.4007 0.4313 2.2182 0
M  V30 13 C 0.1247 0.9088 -1.0173 0
M  V30 14 C -2.02 -0.1441 -0.0349 0
M  V30 15 C 1.0997 -0.0229 3.3354 0
M  V30 16 C 1.5806 0.8104 -1.4268 0
M  V30 17 C -2.5647 1.0586 0.7008 0
M  V30 18 C 2.6039 1.2153 -0.5654 0
M  V30 19 C 1.9395 0.3224 -2.687 0
M  V30 20 C -2.9209 0.963 2.0502 0
M  V30 21 C -2.7539 2.2829 0.0543 0
M  V30 22 C 3.92 1.107 -0.9904 0
M  V30 23 C 3.284 0.2538 -3.0216 0
M  V30 24 C -3.4153 2.0875 2.693 0
M  V30 25 C -3.2554 3.3516 0.7827 0
M  V30 26 N 4.283 0.6405 -2.2028 0
M  V30 27 N -3.5817 3.2827 2.0899 0
M  V30 28 H 0.8285 -5.1945 -1.6818 0
M  V30 29 H -0.4575 -3.8688 -3.356 0
M  V30 30 H -1.1397 -1.5278 -2.7909 0
M  V30 31 H 2.1455 -1.7072 4.2003 0
M  V30 32 H 0.0158 1.4456 2.1872 0
M  V30 33 H -0.4685 1.0376 -1.9337 0
M  V30 34 H 0.0095 1.8515 -0.4661 0
M  V30 35 H -2.4139 -1.0448 0.4605 0
M  V30 36 H -2.488 -0.1557 -1.0302 0
M  V30 37 H 1.2609 0.625 4.191 0
M  V30 38 H 2.3963 1.6112 0.4223 0
M  V30 39 H 1.1952 -0.0029 -3.4051 0
M  V30 40 H -2.8133 0.0329 2.6004 0
M  V30 41 H -2.5257 2.4141 -0.9979 0
M  V30 42 H 4.7412 1.4047 -0.3447 0
M  V30 43 H 3.6006 -0.1251 -3.9889 0
M  V30 44 H -3.6985 2.0535 3.7413 0
M  V30 45 H -3.415 4.3205 0.3175 0
M  V30 END ATOM
M  V30 BEGIN BOND
M  V30 1 2 1 2
M  V30 2 1 1 3
M  V30 3 1 2 4
M  V30 4 1 2 5
M  V30 5 2 3 6
M  V30 6 2 4 7
M  V30 7 1 4 8
M  V30 8 2 5 9
M  V30 9 1 5 10
M  V30 10 1 7 11
M  V30 11 2 8 12
M  V30 12 1 10 13
M  V30 13 1 10 14
M  V30 14 2 11 15
M  V30 15 1 13 16
M  V30 16 1 14 17
M  V30 17 2 16 18
M  V30 18 1 16 19
M  V30 19 2 17 20
M  V30 20 1 17 21
M  V30 21 1 18 22
M  V30 22 2 19 23
M  V30 23 1 20 24
M  V30 24 2 21 25
M  V30 25 2 22 26
M  V30 26 2 24 27
M  V30 27 1 6 9
M  V30 28 1 8 10
M  V30 29 1 12 15
M  V30 30 1 23 26
M  V30 31 1 25 27
M  V30 32 1 3 28
M  V30 33 1 6 29
M  V30 34 1 9 30
M  V30 35 1 11 31
M  V30 36 1 12 32
M  V30 37 1 13 33
M  V30 38 1 13 34
M  V30 39 1 14 35
M  V30 40 1 14 36
M  V30 41 1 15 37
M  V30 42 1 18 38
M  V30 43 1 19 39
M  V30 44 1 20 40
M  V30 45 1 21 41
M  V30 46 1 22 42
M  V30 47 1 23 43
M  V30 48 1 24 44
M  V30 49 1 25 45
M  V30 END BOND
M  V30 END CTAB
M  END
>  <Column 1>
2582

>  <level_0>
3809

>  <index>
3809

>  <Unnamed: 0>
3809

>  <NO.>
3821

>  <Name>
sibopirdine

>  <IUPAC_name>
8-8-bis(pyridin-4-ylmethyl)-3-13-diazatricyclo[7.4.0.02-7]trideca-1(9)-2(7)-3-5-10-12-hexaene

>  <SMILES>
c1cnc2c(c1)C(Cc1ccncc1)(Cc1ccncc1)c1cccnc1-2

>  <CID>
195376

>  <logBB>


>  <BBB+/BBB->
BBB+

>  <Inchi>
InChI=1S/C23H18N4/c1-3-19-21(26-9-1)22-20(4-2-10-27-22)23(19-15-17-5-11-24-12-6-17)16-18-7-13-25-14-8-18/h1-14H-15-16H2

>  <threshold>
-1

>  <reference>
R13|R19|R6|R24|R27|R27|R30|

>  <group>
B

>  <Class>
1

>  <ABC>
21.68

>  <ABCGG>
16.76

>  <nAcid>
0

>  <nBase>
0

>  <nAromAtom>
24

>  <nAromBond>
24

>  <nAtom>
45

>  <nHeavyAtom>
27

>  <nSpiro>
0

>  <nBridgehead>
0

>  <nHetero>
4

>  <nN>
4

>  <nO>
0

>  <nF>
0

>  <BalabanJ>
1.46

>  <BertzCT>
988.55

>  <nBonds>
49

>  <nBondsO>
31

>  <nBondsS>
25

>  <nBondsD>
0

>  <nBondsT>
0

>  <nBondsA>
24

>  <nBondsM>
24

>  <nBondsKS>
37

>  <nBondsKD>
12

>  <RNCG>
0.17

>  <RPCG>
0.06

>  <FCSP3>
0.13

>  <SZ>
30.67

>  <Sm>
29.18

>  <Sv>
30.91

>  <Sse>
44.64

>  <Sp>
32.82

>  <Si>
49.9

>  <MZ>
0.68

>  <Mm>
0.65

>  <Mv>
0.69

>  <Mse>
0.99

>  <Mp>
0.73

>  <Mi>
1.11

>  <NsCH3>
0

>  <NdCH2>
0

>  <NssCH2>
2

>  <NtCH>
0

>  <NdsCH>
0

>  <NaaCH>
14

>  <NsssCH>
0

>  <NddC>
0

>  <NtsC>
0

>  <NdssC>
0

>  <NaasC>
6

>  <NaaaC>
0

>  <NssssC>
1

>  <NsNH3>
0

>  <NsNH2>
0

>  <NssNH2>
0

>  <NdNH>
0

>  <NssNH>
0

>  <NaaNH>
0

>  <NtN>
0

>  <NsssNH>
0

>  <NdsN>
0

>  <NaaN>
4

>  <NsssN>
0

>  <NddsN>
0

>  <NaasN>
0

>  <NssssN>
0

>  <NsOH>
0

>  <NdO>
0

>  <NssO>
0

>  <NaaO>
0

>  <NsF>
0

>  <NsSiH3>
0

>  <NssSiH2>
0

>  <NsssSiH>
0

>  <NssssSi>
0

>  <NsPH2>
0

>  <NssPH>
0

>  <NsssP>
0

>  <NdsssP>
0

>  <NsssssP>
0

>  <NsSH>
0

>  <NdS>
0

>  <NssS>
0

>  <NaaS>
0

>  <NdssS>
0

>  <NddssS>
0

>  <NsCl>
0

>  <NsBr>
0

>  <NsI>
0

>  <fragCpx>
259.04

>  <fMF>
0.6

>  <nHBAcc>
4

>  <nHBDon>
0

>  <Kier1>
18.99

>  <Kier2>
8.39

>  <Lipinski>
1

>  <GhoseFilter>
1

>  <FilterItLogS>
-7.37

>  <VMcGowan>
268.95

>  <LabuteASA>
157.57

>  <PEOE_VSA1>
0

>  <PEOE_VSA2>
19.94

>  <PEOE_VSA3>
0

>  <PEOE_VSA4>
0

>  <PEOE_VSA5>
0

>  <PEOE_VSA6>
12.13

>  <PEOE_VSA7>
71.49

>  <PEOE_VSA8>
42.6

>  <PEOE_VSA9>
11.39

>  <PEOE_VSA10>
0

>  <PEOE_VSA11>
0

>  <PEOE_VSA12>
0

>  <PEOE_VSA13>
0

>  <SMR_VSA1>
0

>  <SMR_VSA2>
0

>  <SMR_VSA3>
19.94

>  <SMR_VSA4>
0

>  <SMR_VSA5>
18.26

>  <SMR_VSA6>
0

>  <SMR_VSA7>
107.97

>  <SMR_VSA8>
0

>  <SMR_VSA9>
11.39

>  <SlogP_VSA1>
0

>  <SlogP_VSA2>
19.94

>  <SlogP_VSA3>
18.26

>  <SlogP_VSA4>
0

>  <SlogP_VSA5>
22.25

>  <SlogP_VSA6>
85.71

>  <SlogP_VSA7>
0

>  <SlogP_VSA8>
11.39

>  <SlogP_VSA9>
0

>  <SlogP_VSA10>
0

>  <SlogP_VSA11>
0

>  <EState_VSA1>
0

>  <EState_VSA2>
5.41

>  <EState_VSA3>
0

>  <EState_VSA4>
24.23

>  <EState_VSA5>
22.25

>  <EState_VSA6>
0

>  <EState_VSA7>
49.31

>  <EState_VSA8>
46.37

>  <EState_VSA9>
9.97

>  <EState_VSA10>
0

>  <VSA_EState1>
0

>  <VSA_EState2>
17.75

>  <VSA_EState3>
0

>  <VSA_EState4>
6.78

>  <VSA_EState5>
0

>  <VSA_EState6>
16.84

>  <VSA_EState7>
12.89

>  <VSA_EState8>
0

>  <VSA_EState9>
0

>  <apol>
54.81

>  <bpol>
22.62

>  <nRing>
5

>  <nHRing>
4

>  <naRing>
4

>  <naHRing>
4

>  <nARing 2>
1

>  <nAHRing 2>
0

>  <nFRing>
1

>  <nFHRing>
1

>  <nFaRing>
0

>  <nFaHRing>
0

>  <nFARing 2>
1

>  <nFAHRing 2>
1

>  <nRot>
4

>  <SLogP>
4.02

>  <SMR>
104.13

>  <TopoPSA(NO)>
51.56

>  <TopoPSA>
51.56

>  <JGI1>
0.13

>  <JGI2>
0.07

>  <JGI3>
0.06

>  <JGI4>
0.03

>  <JGI5>
0.02

>  <Diameter>
10

>  <Radius>
5

>  <TMWC10>
136.42

>  <TSRW10>
77.68

>  <MW>
350.15

>  <AMW>
7.78

>  <WPath>
1603

>  <WPol>
47

>  <Zagreb1>
150

>  <Zagreb2>
183

>  <mZagreb2>
5.92

>  <yes>


>  <nAR-cont>
0.816016

>  <nHA-cont>
0.860070871

>  <MWHBN>
0.213763192

>  <MWHBN-cont>
0.99814208

>  <TPSA-cont>
0.640079183

>  <pka_cont>
0.97

>  <yes.1>


>  <BBB_SCORE>
4.938458358

>  <MMFF94 Energy>
137.68

$$$$
Compound 2094
Actelion Java MolfileCreator 2.0

  0  0  0  0  0  0              0 V3000
M  V30 BEGIN CTAB
M  V30 COUNTS 49 51 0 0 0
M  V30 BEGIN ATOM
M  V30 1 O -0.5538 0.633 -3.4855 0
M  V30 2 C -0.5464 1.04 -2.3227 0
M  V30 3 N -1.032 2.2841 -1.9933 0
M  V30 4 C 0.0208 0.1989 -1.1998 0
M  V30 5 C -1.0165 2.9383 -0.6779 0 CFG=2
M  V30 6 C -1.5913 3.157 -3.0099 0
M  V30 7 C 0.5373 -1.1302 -1.7295 0
M  V30 8 C -2.0196 2.3238 0.2603 0
M  V30 9 C -1.3149 4.407 -0.9949 0
M  V30 10 C -2.1778 4.3371 -2.251 0
M  V30 11 N 1.1495 -1.9203 -0.6742 0
M  V30 12 N -3.3051 2.0935 -0.0475 0
M  V30 13 N -1.6583 1.9107 1.5211 0
M  V30 14 N 0.3657 -2.7343 0.0501 0
M  V30 15 C 2.4636 -1.9494 -0.2875 0
M  V30 16 N -3.7477 1.4849 1.0627 0
M  V30 17 C -2.7619 1.381 2.0012 0
M  V30 18 C 1.2015 -3.3451 0.8958 0
M  V30 19 C 2.5461 -2.8966 0.7314 0
M  V30 20 C 3.5244 -1.1066 -0.9058 0
M  V30 21 C -2.9705 0.7497 3.3199 0
M  V30 22 C 0.6371 -4.3546 1.8278 0
M  V30 23 C 3.7794 -3.2855 1.4221 0
M  V30 24 O 4.8793 -2.8551 1.0684 0
M  V30 25 C 3.713 -4.2353 2.5892 0
M  V30 26 H -0.762 0.0128 -0.4584 0
M  V30 27 H 0.8307 0.7534 -0.7138 0
M  V30 28 H -0.0165 2.8397 -0.2411 0
M  V30 29 H -2.3363 2.6267 -3.6111 0
M  V30 30 H -0.7732 3.4738 -3.6666 0
M  V30 31 H 1.2781 -0.9968 -2.5251 0
M  V30 32 H -0.2783 -1.7281 -2.1551 0
M  V30 33 H -1.8028 4.9486 -0.1785 0
M  V30 34 H -0.3794 4.9275 -1.2363 0
M  V30 35 H -2.1541 5.2623 -2.8339 0
M  V30 36 H -3.2212 4.1358 -1.9833 0
M  V30 37 H -4.7103 1.1704 1.1083 0
M  V30 38 H 4.1239 -1.7041 -1.5994 0
M  V30 39 H 4.1875 -0.6941 -0.1388 0
M  V30 40 H 3.1168 -0.2532 -1.4545 0
M  V30 41 H -3.2568 -0.3 3.2042 0
M  V30 42 H -2.053 0.7886 3.915 0
M  V30 43 H -3.7588 1.2667 3.8759 0
M  V30 44 H 0.7829 -4.0462 2.8671 0
M  V30 45 H 1.1079 -5.3296 1.6731 0
M  V30 46 H -0.4399 -4.4845 1.6738 0
M  V30 47 H 3.0628 -3.8325 3.369 0
M  V30 48 H 3.3686 -5.2172 2.2581 0
M  V30 49 H 4.7137 -4.3542 3.017 0
M  V30 END ATOM
M  V30 BEGIN BOND
M  V30 1 2 1 2
M  V30 2 1 2 3
M  V30 3 1 2 4
M  V30 4 1 3 5
M  V30 5 1 3 6
M  V30 6 1 4 7
M  V30 7 1 5 8
M  V30 8 1 5 9
M  V30 9 1 6 10
M  V30 10 1 7 11
M  V30 11 2 8 12
M  V30 12 1 8 13
M  V30 13 1 11 14
M  V30 14 1 11 15
M  V30 15 1 12 16
M  V30 16 2 13 17
M  V30 17 2 14 18
M  V30 18 2 15 19
M  V30 19 1 15 20
M  V30 20 1 17 21
M  V30 21 1 18 22
M  V30 22 1 19 23
M  V30 23 2 23 24
M  V30 24 1 23 25
M  V30 25 1 9 10
M  V30 26 1 16 17
M  V30 27 1 18 19
M  V30 28 1 4 26
M  V30 29 1 4 27
M  V30 30 1 5 28
M  V30 31 1 6 29
M  V30 32 1 6 30
M  V30 33 1 7 31
M  V30 34 1 7 32
M  V30 35 1 9 33
M  V30 36 1 9 34
M  V30 37 1 10 35
M  V30 38 1 10 36
M  V30 39 1 16 37
M  V30 40 1 20 38
M  V30 41 1 20 39
M  V30 42 1 20 40
M  V30 43 1 21 41
M  V30 44 1 21 42
M  V30 45 1 21 43
M  V30 46 1 22 44
M  V30 47 1 22 45
M  V30 48 1 22 46
M  V30 49 1 25 47
M  V30 50 1 25 48
M  V30 51 1 25 49
M  V30 END BOND
M  V30 BEGIN COLLECTION
M  V30 MDLV30/STEABS ATOMS=(1 5)
M  V30 END COLLECTION
M  V30 END CTAB
M  END
>  <Column 1>
2583

>  <level_0>
3811

>  <index>
3811

>  <Unnamed: 0>
3811

>  <NO.>
3823

>  <Name>
dihydroergotamine

>  <IUPAC_name>
3-(4-acetyl-3-5-dimethylpyrazol-1-yl)-1-[(2s)-2-(5-methyl-1h-1-2-4-triazol-3-yl)pyrrolidin-1-yl]propan-1-one

>  <SMILES>
CC(=O)c1c(C)nn(CCC(=O)N2CCC[C@H]2c2n[nH]c(C)n2)c1C

>  <CID>
100003066

>  <logBB>


>  <BBB+/BBB->
BBB-

>  <Inchi>
InChI=1S/C17H24N6O2/c1-10-16(12(3)24)11(2)23(21-10)9-7-15(25)22-8-5-6-14(22)17-18-13(4)19-20-17/h14H-5-9H2-1-4H3-(H-18-19-20)/t14-/m0/s1

>  <threshold>
-1

>  <reference>
R16|R10|

>  <group>
B

>  <Class>
-1

>  <ABC>
19.47

>  <ABCGG>
17.47

>  <nAcid>
0

>  <nBase>
0

>  <nAromAtom>
10

>  <nAromBond>
10

>  <nAtom>
49

>  <nHeavyAtom>
25

>  <nSpiro>
0

>  <nBridgehead>
0

>  <nHetero>
8

>  <nN>
6

>  <nO>
2

>  <nF>
0

>  <BalabanJ>
1.51

>  <BertzCT>
806.17

>  <nBonds>
51

>  <nBondsO>
27

>  <nBondsS>
39

>  <nBondsD>
2

>  <nBondsT>
0

>  <nBondsA>
10

>  <nBondsM>
12

>  <nBondsKS>
45

>  <nBondsKD>
6

>  <RNCG>
0.16

>  <RPCG>
0.11

>  <FCSP3>
0.59

>  <SZ>
30.67

>  <Sm>
28.68

>  <Sv>
29.48

>  <Sse>
49.29

>  <Sp>
31.5

>  <Si>
56.15

>  <MZ>
0.63

>  <Mm>
0.59

>  <Mv>
0.6

>  <Mse>
1.01

>  <Mp>
0.64

>  <Mi>
1.15

>  <NsCH3>
4

>  <NdCH2>
0

>  <NssCH2>
5

>  <NtCH>
0

>  <NdsCH>
0

>  <NaaCH>
0

>  <NsssCH>
1

>  <NddC>
0

>  <NtsC>
0

>  <NdssC>
2

>  <NaasC>
5

>  <NaaaC>
0

>  <NssssC>
0

>  <NsNH3>
0

>  <NsNH2>
0

>  <NssNH2>
0

>  <NdNH>
0

>  <NssNH>
0

>  <NaaNH>
1

>  <NtN>
0

>  <NsssNH>
0

>  <NdsN>
0

>  <NaaN>
3

>  <NsssN>
1

>  <NddsN>
0

>  <NaasN>
1

>  <NssssN>
0

>  <NsOH>
0

>  <NdO>
2

>  <NssO>
0

>  <NaaO>
0

>  <NsF>
0

>  <NsSiH3>
0

>  <NssSiH2>
0

>  <NsssSiH>
0

>  <NssssSi>
0

>  <NsPH2>
0

>  <NssPH>
0

>  <NsssP>
0

>  <NdsssP>
0

>  <NsssssP>
0

>  <NsSH>
0

>  <NdS>
0

>  <NssS>
0

>  <NaaS>
0

>  <NdssS>
0

>  <NddssS>
0

>  <NsCl>
0

>  <NsBr>
0

>  <NsI>
0

>  <fragCpx>
129.08

>  <fMF>
0.37

>  <nHBAcc>
6

>  <nHBDon>
1

>  <Kier1>
19.75

>  <Kier2>
8.35

>  <Lipinski>
1

>  <GhoseFilter>
1

>  <FilterItLogS>
-3.83

>  <VMcGowan>
263.63

>  <LabuteASA>
146.17

>  <PEOE_VSA1>
4.9

>  <PEOE_VSA2>
19.37

>  <PEOE_VSA3>
4.98

>  <PEOE_VSA4>
10.2

>  <PEOE_VSA5>
0

>  <PEOE_VSA6>
0

>  <PEOE_VSA7>
40.54

>  <PEOE_VSA8>
25.2

>  <PEOE_VSA9>
17.3

>  <PEOE_VSA10>
5.82

>  <PEOE_VSA11>
11.61

>  <PEOE_VSA12>
5.91

>  <PEOE_VSA13>
0

>  <SMR_VSA1>
9.59

>  <SMR_VSA2>
0

>  <SMR_VSA3>
29.86

>  <SMR_VSA4>
0

>  <SMR_VSA5>
59.54

>  <SMR_VSA6>
6.54

>  <SMR_VSA7>
28.6

>  <SMR_VSA8>
0

>  <SMR_VSA9>
0

>  <SlogP_VSA1>
0

>  <SlogP_VSA2>
48.1

>  <SlogP_VSA3>
11.34

>  <SlogP_VSA4>
20.77

>  <SlogP_VSA5>
65.62

>  <SlogP_VSA6>
0

>  <SlogP_VSA7>
0

>  <SlogP_VSA8>
0

>  <SlogP_VSA9>
0

>  <SlogP_VSA10>
0

>  <SlogP_VSA11>
0

>  <EState_VSA1>
0

>  <EState_VSA2>
17.73

>  <EState_VSA3>
30.05

>  <EState_VSA4>
30.9

>  <EState_VSA5>
0

>  <EState_VSA6>
11.61

>  <EState_VSA7>
25.67

>  <EState_VSA8>
20.28

>  <EState_VSA9>
0

>  <EState_VSA10>
9.59

>  <VSA_EState1>
1.76

>  <VSA_EState2>
30.64

>  <VSA_EState3>
11.46

>  <VSA_EState4>
2.19

>  <VSA_EState5>
1.52

>  <VSA_EState6>
-0.05

>  <VSA_EState7>
2.19

>  <VSA_EState8>
8.29

>  <VSA_EState9>
0

>  <apol>
52.6

>  <bpol>
30.94

>  <nRing>
3

>  <nHRing>
3

>  <naRing>
2

>  <naHRing>
2

>  <nARing 2>
1

>  <nAHRing 2>
1

>  <nFRing>
0

>  <nFHRing>
0

>  <nFaRing>
0

>  <nFaHRing>
0

>  <nFARing 2>
0

>  <nFAHRing 2>
0

>  <nRot>
5

>  <SLogP>
1.88

>  <SMR>
91.13

>  <TopoPSA(NO)>
96.77

>  <TopoPSA>
96.77

>  <JGI1>
0.2

>  <JGI2>
0.09

>  <JGI3>
0.07

>  <JGI4>
0.04

>  <JGI5>
0.02

>  <Diameter>
13

>  <Radius>
7

>  <TMWC10>
127.79

>  <TSRW10>
76.81

>  <MW>
344.2

>  <AMW>
7.02

>  <WPath>
1608

>  <WPol>
37

>  <Zagreb1>
132

>  <Zagreb2>
157

>  <mZagreb2>
5.44

>  <yes>


>  <nAR-cont>
0.816016

>  <nHA-cont>
0.921834225

>  <MWHBN>
0.37730504

>  <MWHBN-cont>
0.565368779

>  <TPSA-cont>
0.324485309

>  <pka_cont>
0.97

>  <yes.1>


>  <BBB_SCORE>
3.719874012

>  <MMFF94 Energy>
27.036

$$$$
Compound 2095
Actelion Java MolfileCreator 2.0

  0  0  0  0  0  0              0 V3000
M  V30 BEGIN CTAB
M  V30 COUNTS 43 46 0 0 0
M  V30 BEGIN ATOM
M  V30 1 F -4.6885 -3.7824 0.9857 0
M  V30 2 C -3.8708 -2.7252 1.0859 0
M  V30 3 C -2.5327 -2.9024 1.4011 0
M  V30 4 C -4.3526 -1.4435 0.8743 0
M  V30 5 F -2.0461 -4.1344 1.6042 0
M  V30 6 C -1.6704 -1.8086 1.5097 0
M  V30 7 F -5.643 -1.2504 0.5692 0
M  V30 8 C -3.506 -0.3382 0.9759 0
M  V30 9 C -2.1454 -0.5025 1.298 0
M  V30 10 C -1.2503 0.7283 1.3991 0 CFG=2
M  V30 11 C -0.0507 0.677 0.483 0
M  V30 12 C -0.8162 1.0412 2.8272 0
M  V30 13 C -0.1428 0.9956 -0.8837 0
M  V30 14 C 1.1916 0.2942 0.9856 0
M  V30 15 C 0.3132 0.1714 3.2871 0
M  V30 16 O -1.4291 1.3639 -1.3426 0
M  V30 17 C 0.9565 0.9714 -1.7564 0
M  V30 18 O 1.3148 -0.0442 2.3493 0
M  V30 19 C 2.3204 0.2237 0.1591 0
M  V30 20 O 0.4034 -0.265 4.428 0
M  V30 21 C -1.6754 1.7166 -2.6545 0
M  V30 22 C 2.1981 0.5953 -1.2014 0
M  V30 23 C 0.7167 1.3426 -3.1713 0
M  V30 24 C 3.6526 -0.2212 0.6612 0
M  V30 25 O -2.7879 2.0428 -3.0476 0
M  V30 26 C -0.5229 1.6837 -3.5573 0
M  V30 27 O 3.3066 0.5841 -2.0161 0
M  V30 28 C 1.8267 1.3405 -4.1845 0
M  V30 29 O 4.6583 0.2458 0.1228 0
M  V30 30 C 3.7556 -1.2484 1.7565 0
M  V30 31 H -0.6324 -2.0142 1.7542 0
M  V30 32 H -3.9279 0.648 0.7917 0
M  V30 33 H -1.8508 1.5985 1.0966 0
M  V30 34 H -0.4655 2.0784 2.9047 0
M  V30 35 H -1.6573 0.9246 3.521 0
M  V30 36 H -0.7494 1.9615 -4.5812 0
M  V30 37 H 4.1187 0.5328 -1.4611 0
M  V30 38 H 2.2628 0.3415 -4.2875 0
M  V30 39 H 2.6062 2.0605 -3.9146 0
M  V30 40 H 1.4692 1.6278 -5.1805 0
M  V30 41 H 2.9192 -1.9513 1.7186 0
M  V30 42 H 4.67 -1.8312 1.6069 0
M  V30 43 H 3.8049 -0.7541 2.7295 0
M  V30 END ATOM
M  V30 BEGIN BOND
M  V30 1 1 1 2
M  V30 2 2 2 3
M  V30 3 1 2 4
M  V30 4 1 3 5
M  V30 5 1 3 6
M  V30 6 1 4 7
M  V30 7 2 4 8
M  V30 8 2 6 9
M  V30 9 1 9 10
M  V30 10 1 10 11
M  V30 11 1 10 12
M  V30 12 2 11 13
M  V30 13 1 11 14
M  V30 14 1 12 15
M  V30 15 1 13 16
M  V30 16 1 13 17
M  V30 17 1 14 18
M  V30 18 2 14 19
M  V30 19 2 15 20
M  V30 20 1 16 21
M  V30 21 2 17 22
M  V30 22 1 17 23
M  V30 23 1 19 24
M  V30 24 2 21 25
M  V30 25 1 21 26
M  V30 26 1 22 27
M  V30 27 1 23 28
M  V30 28 2 24 29
M  V30 29 1 24 30
M  V30 30 1 8 9
M  V30 31 1 15 18
M  V30 32 1 19 22
M  V30 33 2 23 26
M  V30 34 1 6 31
M  V30 35 1 8 32
M  V30 36 1 10 33
M  V30 37 1 12 34
M  V30 38 1 12 35
M  V30 39 1 26 36
M  V30 40 1 27 37
M  V30 41 1 28 38
M  V30 42 1 28 39
M  V30 43 1 28 40
M  V30 44 1 30 41
M  V30 45 1 30 42
M  V30 46 1 30 43
M  V30 END BOND
M  V30 BEGIN COLLECTION
M  V30 MDLV30/STEABS ATOMS=(1 10)
M  V30 END COLLECTION
M  V30 END CTAB
M  END
>  <Column 1>
2584

>  <level_0>
3812

>  <index>
3812

>  <Unnamed: 0>
3812

>  <NO.>
3824

>  <Name>
ciprofloxacin

>  <IUPAC_name>
(10r)-6-acetyl-5-hydroxy-4-methyl-10-(3-4-5-trifluorophenyl)-9-10-dihydropyrano[2-3-h]chromene-2-8-dione

>  <SMILES>
CC(=O)c1c2c(c3oc(=O)cc(C)c3c1O)[C@@H](c1cc(F)c(F)c(F)c1)CC(=O)O2

>  <CID>
100002764

>  <logBB>


>  <BBB+/BBB->
BBB-

>  <Inchi>
InChI=1S/C21H13F3O6/c1-7-3-13(26)29-20-15(7)19(28)16(8(2)25)21-17(20)10(6-14(27)30-21)9-4-11(22)18(24)12(23)5-9/h3-5-10-28H-6H2-1-2H3/t10-/m1/s1

>  <threshold>
-1

>  <reference>
R16|R10|

>  <group>
B

>  <Class>
-1

>  <ABC>
23.83

>  <ABCGG>
19.32

>  <nAcid>
0

>  <nBase>
0

>  <nAromAtom>
16

>  <nAromBond>
17

>  <nAtom>
43

>  <nHeavyAtom>
30

>  <nSpiro>
0

>  <nBridgehead>
0

>  <nHetero>
9

>  <nN>
0

>  <nO>
6

>  <nF>
3

>  <BalabanJ>
1.71

>  <BertzCT>
1301.79

>  <nBonds>
46

>  <nBondsO>
33

>  <nBondsS>
26

>  <nBondsD>
3

>  <nBondsT>
0

>  <nBondsA>
17

>  <nBondsM>
20

>  <nBondsKS>
36

>  <nBondsKD>
10

>  <RNCG>
0.17

>  <RPCG>
0.12

>  <FCSP3>
0.19

>  <SZ>
35.67

>  <Sm>
34.83

>  <Sv>
30.75

>  <Sse>
45.62

>  <Sp>
30.07

>  <Si>
48.6

>  <MZ>
0.83

>  <Mm>
0.81

>  <Mv>
0.72

>  <Mse>
1.06

>  <Mp>
0.7

>  <Mi>
1.13

>  <NsCH3>
2

>  <NdCH2>
0

>  <NssCH2>
1

>  <NtCH>
0

>  <NdsCH>
0

>  <NaaCH>
3

>  <NsssCH>
1

>  <NddC>
0

>  <NtsC>
0

>  <NdssC>
2

>  <NaasC>
9

>  <NaaaC>
2

>  <NssssC>
0

>  <NsNH3>
0

>  <NsNH2>
0

>  <NssNH2>
0

>  <NdNH>
0

>  <NssNH>
0

>  <NaaNH>
0

>  <NtN>
0

>  <NsssNH>
0

>  <NdsN>
0

>  <NaaN>
0

>  <NsssN>
0

>  <NddsN>
0

>  <NaasN>
0

>  <NssssN>
0

>  <NsOH>
1

>  <NdO>
3

>  <NssO>
1

>  <NaaO>
1

>  <NsF>
3

>  <NsSiH3>
0

>  <NssSiH2>
0

>  <NsssSiH>
0

>  <NssssSi>
0

>  <NsPH2>
0

>  <NssPH>
0

>  <NsssP>
0

>  <NdsssP>
0

>  <NsssssP>
0

>  <NsSH>
0

>  <NdS>
0

>  <NssS>
0

>  <NaaS>
0

>  <NdssS>
0

>  <NddssS>
0

>  <NsCl>
0

>  <NsBr>
0

>  <NsI>
0

>  <fragCpx>
219.09

>  <fMF>
0.47

>  <nHBAcc>
6

>  <nHBDon>
1

>  <Kier1>
23.17

>  <Kier2>
8.74

>  <Lipinski>
1

>  <GhoseFilter>
1

>  <FilterItLogS>
-6.8

>  <VMcGowan>
260.81

>  <LabuteASA>
166.05

>  <PEOE_VSA1>
14.26

>  <PEOE_VSA2>
9.59

>  <PEOE_VSA3>
17.97

>  <PEOE_VSA4>
0

>  <PEOE_VSA5>
0

>  <PEOE_VSA6>
0

>  <PEOE_VSA7>
37.11

>  <PEOE_VSA8>
17.55

>  <PEOE_VSA9>
11.81

>  <PEOE_VSA10>
16.9

>  <PEOE_VSA11>
28.98

>  <PEOE_VSA12>
0

>  <PEOE_VSA13>
0

>  <SMR_VSA1>
37.02

>  <SMR_VSA2>
0

>  <SMR_VSA3>
0

>  <SMR_VSA4>
0

>  <SMR_VSA5>
26.19

>  <SMR_VSA6>
0

>  <SMR_VSA7>
68.32

>  <SMR_VSA8>
0

>  <SMR_VSA9>
11.5

>  <SlogP_VSA1>
10.36

>  <SlogP_VSA2>
16.86

>  <SlogP_VSA3>
4.79

>  <SlogP_VSA4>
24.38

>  <SlogP_VSA5>
46.31

>  <SlogP_VSA6>
27.41

>  <SlogP_VSA7>
0

>  <SlogP_VSA8>
10.97

>  <SlogP_VSA9>
0

>  <SlogP_VSA10>
13.17

>  <SlogP_VSA11>
11.5

>  <EState_VSA1>
52.92

>  <EState_VSA2>
38.97

>  <EState_VSA3>
12.13

>  <EState_VSA4>
12.99

>  <EState_VSA5>
6.92

>  <EState_VSA6>
0

>  <EState_VSA7>
0

>  <EState_VSA8>
0

>  <EState_VSA9>
9.15

>  <EState_VSA10>
32.66

>  <VSA_EState1>
51.65

>  <VSA_EState2>
36.47

>  <VSA_EState3>
10.69

>  <VSA_EState4>
-1.19

>  <VSA_EState5>
-8.18

>  <VSA_EState6>
2.52

>  <VSA_EState7>
-0.42

>  <VSA_EState8>
2.63

>  <VSA_EState9>
0

>  <apol>
50.22

>  <bpol>
22.46

>  <nRing>
4

>  <nHRing>
2

>  <naRing>
3

>  <naHRing>
1

>  <nARing 2>
1

>  <nAHRing 2>
1

>  <nFRing>
1

>  <nFHRing>
1

>  <nFaRing>
0

>  <nFaHRing>
0

>  <nFARing 2>
1

>  <nFAHRing 2>
1

>  <nRot>
2

>  <SLogP>
3.87

>  <SMR>
97.3

>  <TopoPSA(NO)>
93.81

>  <TopoPSA>
93.81

>  <JGI1>
0.23

>  <JGI2>
0.08

>  <JGI3>
0.06

>  <JGI4>
0.05

>  <JGI5>
0.04

>  <Diameter>
10

>  <Radius>
5

>  <TMWC10>
142.63

>  <TSRW10>
66.57

>  <MW>
418.07

>  <AMW>
9.72

>  <WPath>
2079

>  <WPol>
60

>  <Zagreb1>
168

>  <Zagreb2>
207

>  <mZagreb2>
6.33

>  <yes>


>  <nAR-cont>
0.816016

>  <nHA-cont>
0.74523694

>  <MWHBN>
0.342352527

>  <MWHBN-cont>
0.69855306

>  <TPSA-cont>
0.345147947

>  <pka_cont>
0.97

>  <yes.1>


>  <BBB_SCORE>
3.784378425

>  <MMFF94 Energy>
87.118

$$$$
Compound 2096
Actelion Java MolfileCreator 2.0

  0  0  0  0  0  0              0 V3000
M  V30 BEGIN CTAB
M  V30 COUNTS 35 37 0 0 0
M  V30 BEGIN ATOM
M  V30 1 Cl 3.5297 2.9544 3.0366 0
M  V30 2 C 1.9772 2.6854 2.3427 0
M  V30 3 C 1.2062 3.7512 1.8921 0
M  V30 4 C 1.4899 1.3809 2.2332 0
M  V30 5 F 1.6526 5.0124 1.9878 0
M  V30 6 C -0.0448 3.5262 1.3292 0
M  V30 7 C 0.2228 1.1287 1.6718 0
M  V30 8 C -0.5346 2.222 1.2162 0
M  V30 9 C -0.2673 -0.3137 1.5715 0 CFG=2
M  V30 10 C -0.5208 -0.7662 0.1566 0
M  V30 11 C -1.492 -0.5962 2.4378 0
M  V30 12 C 0.5114 -1.1701 -0.7031 0
M  V30 13 C -1.8251 -0.776 -0.3307 0
M  V30 14 C -2.7732 -0.1177 1.8185 0
M  V30 15 O 1.7838 -1.1636 -0.1877 0
M  V30 16 C 0.2413 -1.5697 -2.0282 0
M  V30 17 O -2.9096 -0.3513 0.4573 0
M  V30 18 C -2.1182 -1.1641 -1.6357 0
M  V30 19 O -3.6839 0.3773 2.4745 0
M  V30 20 C 1.3611 -1.9924 -2.9227 0
M  V30 21 C -1.0846 -1.5627 -2.485 0
M  V30 22 O 2.509 -2.0014 -2.4763 0
M  V30 23 C 1.0693 -2.3974 -4.3431 0
M  V30 24 H 2.1082 0.5538 2.5778 0
M  V30 25 H -0.6321 4.3694 0.9779 0
M  V30 26 H -1.5108 2.0839 0.7577 0
M  V30 27 H 0.5192 -0.9615 1.9845 0
M  V30 28 H -1.6073 -1.6759 2.5985 0
M  V30 29 H -1.3814 -0.1279 3.4232 0
M  V30 30 H 2.4072 -1.4535 -0.8937 0
M  V30 31 H -3.1458 -1.151 -1.9917 0
M  V30 32 H -1.3435 -1.8598 -3.4973 0
M  V30 33 H 0.4225 -3.2782 -4.3606 0
M  V30 34 H 0.6151 -1.5665 -4.889 0
M  V30 35 H 2.0084 -2.656 -4.8421 0
M  V30 END ATOM
M  V30 BEGIN BOND
M  V30 1 1 1 2
M  V30 2 2 2 3
M  V30 3 1 2 4
M  V30 4 1 3 5
M  V30 5 1 3 6
M  V30 6 2 4 7
M  V30 7 2 6 8
M  V30 8 1 7 9
M  V30 9 1 9 10
M  V30 10 1 9 11
M  V30 11 2 10 12
M  V30 12 1 10 13
M  V30 13 1 11 14
M  V30 14 1 12 15
M  V30 15 1 12 16
M  V30 16 1 13 17
M  V30 17 2 13 18
M  V30 18 2 14 19
M  V30 19 1 16 20
M  V30 20 2 16 21
M  V30 21 2 20 22
M  V30 22 1 20 23
M  V30 23 1 7 8
M  V30 24 1 14 17
M  V30 25 1 18 21
M  V30 26 1 4 24
M  V30 27 1 6 25
M  V30 28 1 8 26
M  V30 29 1 9 27
M  V30 30 1 11 28
M  V30 31 1 11 29
M  V30 32 1 15 30
M  V30 33 1 18 31
M  V30 34 1 21 32
M  V30 35 1 23 33
M  V30 36 1 23 34
M  V30 37 1 23 35
M  V30 END BOND
M  V30 BEGIN COLLECTION
M  V30 MDLV30/STEABS ATOMS=(1 9)
M  V30 END COLLECTION
M  V30 END CTAB
M  END
>  <Column 1>
2585

>  <level_0>
3813

>  <index>
3813

>  <Unnamed: 0>
3813

>  <NO.>
3825

>  <Name>
tolbutamide

>  <IUPAC_name>
(4r)-6-acetyl-4-(3-chloro-4-fluorophenyl)-5-hydroxy-3-4-dihydrochromen-2-one

>  <SMILES>
CC(=O)c1ccc2c(c1O)[C@@H](c1ccc(F)c(Cl)c1)CC(=O)O2

>  <CID>
100005505

>  <logBB>


>  <BBB+/BBB->
BBB-

>  <Inchi>
InChI=1S/C17H12ClFO4/c1-8(20)10-3-5-14-16(17(10)22)11(7-15(21)23-14)9-2-4-13(19)12(18)6-9/h2-6-11-22H-7H2-1H3/t11-/m1/s1

>  <threshold>
-1

>  <reference>
R16|R10|R10|

>  <group>
B

>  <Class>
1

>  <ABC>
18.05

>  <ABCGG>
14.84

>  <nAcid>
0

>  <nBase>
0

>  <nAromAtom>
12

>  <nAromBond>
12

>  <nAtom>
35

>  <nHeavyAtom>
23

>  <nSpiro>
0

>  <nBridgehead>
0

>  <nHetero>
6

>  <nN>
0

>  <nO>
4

>  <nF>
1

>  <BalabanJ>
1.79

>  <BertzCT>
831.58

>  <nBonds>
37

>  <nBondsO>
25

>  <nBondsS>
23

>  <nBondsD>
2

>  <nBondsT>
0

>  <nBondsA>
12

>  <nBondsM>
14

>  <nBondsKS>
29

>  <nBondsKD>
8

>  <RNCG>
0.26

>  <RPCG>
0.16

>  <FCSP3>
0.18

>  <SZ>
28.67

>  <Sm>
27.87

>  <Sv>
24.85

>  <Sse>
36.37

>  <Sp>
25.35

>  <Si>
39.03

>  <MZ>
0.82

>  <Mm>
0.8

>  <Mv>
0.71

>  <Mse>
1.04

>  <Mp>
0.72

>  <Mi>
1.12

>  <NsCH3>
1

>  <NdCH2>
0

>  <NssCH2>
1

>  <NtCH>
0

>  <NdsCH>
0

>  <NaaCH>
5

>  <NsssCH>
1

>  <NddC>
0

>  <NtsC>
0

>  <NdssC>
2

>  <NaasC>
7

>  <NaaaC>
0

>  <NssssC>
0

>  <NsNH3>
0

>  <NsNH2>
0

>  <NssNH2>
0

>  <NdNH>
0

>  <NssNH>
0

>  <NaaNH>
0

>  <NtN>
0

>  <NsssNH>
0

>  <NdsN>
0

>  <NaaN>
0

>  <NsssN>
0

>  <NddsN>
0

>  <NaasN>
0

>  <NssssN>
0

>  <NsOH>
1

>  <NdO>
2

>  <NssO>
1

>  <NaaO>
0

>  <NsF>
1

>  <NsSiH3>
0

>  <NssSiH2>
0

>  <NsssSiH>
0

>  <NssssSi>
0

>  <NsPH2>
0

>  <NssPH>
0

>  <NsssP>
0

>  <NdsssP>
0

>  <NsssssP>
0

>  <NsSH>
0

>  <NdS>
0

>  <NssS>
0

>  <NaaS>
0

>  <NdssS>
0

>  <NddssS>
0

>  <NsCl>
1

>  <NsBr>
0

>  <NsI>
0

>  <fragCpx>
119.06

>  <fMF>
0.46

>  <nHBAcc>
4

>  <nHBDon>
1

>  <Kier1>
17.81

>  <Kier2>
7.09

>  <Lipinski>
1

>  <GhoseFilter>
1

>  <FilterItLogS>
-5.01

>  <VMcGowan>
220.89

>  <LabuteASA>
136.01

>  <PEOE_VSA1>
9.84

>  <PEOE_VSA2>
9.59

>  <PEOE_VSA3>
4.39

>  <PEOE_VSA4>
0

>  <PEOE_VSA5>
0

>  <PEOE_VSA6>
17.67

>  <PEOE_VSA7>
36.75

>  <PEOE_VSA8>
11.48

>  <PEOE_VSA9>
17.01

>  <PEOE_VSA10>
17.32

>  <PEOE_VSA11>
5.78

>  <PEOE_VSA12>
0

>  <PEOE_VSA13>
0

>  <SMR_VSA1>
23.82

>  <SMR_VSA2>
0

>  <SMR_VSA3>
0

>  <SMR_VSA4>
0

>  <SMR_VSA5>
19.26

>  <SMR_VSA6>
0

>  <SMR_VSA7>
57.86

>  <SMR_VSA8>
0

>  <SMR_VSA9>
11.5

>  <SlogP_VSA1>
4.74

>  <SlogP_VSA2>
16.86

>  <SlogP_VSA3>
4.79

>  <SlogP_VSA4>
5.82

>  <SlogP_VSA5>
40.75

>  <SlogP_VSA6>
30.33

>  <SlogP_VSA7>
5.02

>  <SlogP_VSA8>
0

>  <SlogP_VSA9>
0

>  <SlogP_VSA10>
4.39

>  <SlogP_VSA11>
11.5

>  <EState_VSA1>
17.7

>  <EState_VSA2>
34.29

>  <EState_VSA3>
11.13

>  <EState_VSA4>
0

>  <EState_VSA5>
37.26

>  <EState_VSA6>
0

>  <EState_VSA7>
0

>  <EState_VSA8>
0

>  <EState_VSA9>
16.34

>  <EState_VSA10>
19.09

>  <VSA_EState1>
18.51

>  <VSA_EState2>
23.43

>  <VSA_EState3>
10.35

>  <VSA_EState4>
1.03

>  <VSA_EState5>
-1.96

>  <VSA_EState6>
6.98

>  <VSA_EState7>
-0.04

>  <VSA_EState8>
1.33

>  <VSA_EState9>
0

>  <apol>
42.34

>  <bpol>
17.13

>  <nRing>
3

>  <nHRing>
1

>  <naRing>
2

>  <naHRing>
0

>  <nARing 2>
1

>  <nAHRing 2>
1

>  <nFRing>
1

>  <nFHRing>
1

>  <nFaRing>
0

>  <nFaHRing>
0

>  <nFARing 2>
1

>  <nFAHRing 2>
1

>  <nRot>
2

>  <SLogP>
3.83

>  <SMR>
81.62

>  <TopoPSA(NO)>
63.6

>  <TopoPSA>
63.6

>  <JGI1>
0.22

>  <JGI2>
0.09

>  <JGI3>
0.05

>  <JGI4>
0.05

>  <JGI5>
0.03

>  <Diameter>
10

>  <Radius>
5

>  <TMWC10>
123.81

>  <TSRW10>
57.84

>  <MW>
334.04

>  <AMW>
9.54

>  <WPath>
1092

>  <WPol>
41

>  <Zagreb1>
124

>  <Zagreb2>
149

>  <mZagreb2>
4.94

>  <yes>


>  <nAR-cont>
0.816016

>  <nHA-cont>
0.967789328

>  <MWHBN>
0.273571447

>  <MWHBN-cont>
0.911830578

>  <TPSA-cont>
0.556032507

>  <pka_cont>
0.97

>  <yes.1>


>  <BBB_SCORE>
4.748616209

>  <MMFF94 Energy>
59.244

$$$$
Compound 2097
Actelion Java MolfileCreator 2.0

  0  0  0  0  0  0              0 V3000
M  V30 BEGIN CTAB
M  V30 COUNTS 35 37 0 0 0
M  V30 BEGIN ATOM
M  V30 1 O 0.0 2.6508 3.777 0
M  V30 2 C 0.3072 1.791 2.9572 0
M  V30 3 O -0.2207 0.5096 3.0287 0
M  V30 4 C 1.3402 2.0229 1.8921 0
M  V30 5 C 0.0518 -0.4619 2.0491 0
M  V30 6 C 1.0278 1.3084 0.5892 0 CFG=1
M  V30 7 C 0.6574 -0.1259 0.8404 0
M  V30 8 C -0.344 -1.7654 2.3375 0
M  V30 9 C -0.1 1.905 -0.2032 0
M  V30 10 C 0.893 -1.1521 -0.0879 0
M  V30 11 C -0.1211 -2.7757 1.401 0
M  V30 12 C -1.4384 2.1849 0.1756 0
M  V30 13 C -0.0492 2.3223 -1.5213 0
M  V30 14 O 1.5302 -0.8023 -1.2528 0
M  V30 15 C 0.5011 -2.4806 0.1793 0
M  V30 16 N -2.1564 2.7237 -0.8118 0
M  V30 17 N -1.2901 2.7883 -1.8355 0
M  V30 18 C 0.7521 -3.5508 -0.8331 0
M  V30 19 C -1.7264 3.3159 -3.1046 0
M  V30 20 O 1.333 -3.2585 -1.8793 0
M  V30 21 C 0.2946 -4.9589 -0.5589 0
M  V30 22 H 2.2972 1.6745 2.3004 0
M  V30 23 H 1.4246 3.1025 1.7196 0
M  V30 24 H 1.9439 1.3495 -0.0153 0
M  V30 25 H -0.8279 -1.9922 3.2846 0
M  V30 26 H -0.4423 -3.7824 1.6524 0
M  V30 27 H -1.9263 2.0183 1.1278 0
M  V30 28 H 0.7542 2.3059 -2.2449 0
M  V30 29 H 1.6143 -1.6074 -1.8138 0
M  V30 30 H -2.0596 4.3457 -2.9539 0
M  V30 31 H -2.5476 2.6955 -3.472 0
M  V30 32 H -0.8953 3.2927 -3.8136 0
M  V30 33 H 0.8154 -5.3631 0.3128 0
M  V30 34 H -0.7886 -4.9854 -0.4157 0
M  V30 35 H 0.536 -5.5884 -1.421 0
M  V30 END ATOM
M  V30 BEGIN BOND
M  V30 1 2 1 2
M  V30 2 1 2 3
M  V30 3 1 2 4
M  V30 4 1 3 5
M  V30 5 1 4 6
M  V30 6 2 5 7
M  V30 7 1 5 8
M  V30 8 1 6 9
M  V30 9 1 7 10
M  V30 10 2 8 11
M  V30 11 1 9 12
M  V30 12 2 9 13
M  V30 13 1 10 14
M  V30 14 2 10 15
M  V30 15 2 12 16
M  V30 16 1 13 17
M  V30 17 1 15 18
M  V30 18 1 17 19
M  V30 19 2 18 20
M  V30 20 1 18 21
M  V30 21 1 6 7
M  V30 22 1 11 15
M  V30 23 1 16 17
M  V30 24 1 4 22
M  V30 25 1 4 23
M  V30 26 1 6 24
M  V30 27 1 8 25
M  V30 28 1 11 26
M  V30 29 1 12 27
M  V30 30 1 13 28
M  V30 31 1 14 29
M  V30 32 1 19 30
M  V30 33 1 19 31
M  V30 34 1 19 32
M  V30 35 1 21 33
M  V30 36 1 21 34
M  V30 37 1 21 35
M  V30 END BOND
M  V30 BEGIN COLLECTION
M  V30 MDLV30/STEABS ATOMS=(1 6)
M  V30 END COLLECTION
M  V30 END CTAB
M  END
>  <Column 1>
2586

>  <level_0>
3814

>  <index>
3814

>  <Unnamed: 0>
3814

>  <NO.>
3826

>  <Name>
tranylcypromine

>  <IUPAC_name>
(4r)-6-acetyl-5-hydroxy-4-(1-methylpyrazol-4-yl)-3-4-dihydrochromen-2-one

>  <SMILES>
CC(=O)c1ccc2c(c1O)[C@@H](c1cnn(C)c1)CC(=O)O2

>  <CID>
100005530

>  <logBB>


>  <BBB+/BBB->
BBB+

>  <Inchi>
InChI=1S/C15H14N2O4/c1-8(18)10-3-4-12-14(15(10)20)11(5-13(19)21-12)9-6-16-17(2)7-9/h3-4-6-7-11-20H-5H2-1-2H3/t11-/m1/s1

>  <threshold>
-1

>  <reference>
R16|R10|R10|

>  <group>
B

>  <Class>
-1

>  <ABC>
16.57

>  <ABCGG>
14.19

>  <nAcid>
0

>  <nBase>
0

>  <nAromAtom>
11

>  <nAromBond>
11

>  <nAtom>
35

>  <nHeavyAtom>
21

>  <nSpiro>
0

>  <nBridgehead>
0

>  <nHetero>
6

>  <nN>
2

>  <nO>
4

>  <nF>
0

>  <BalabanJ>
1.8

>  <BertzCT>
748.13

>  <nBonds>
37

>  <nBondsO>
23

>  <nBondsS>
24

>  <nBondsD>
2

>  <nBondsT>
0

>  <nBondsA>
11

>  <nBondsM>
13

>  <nBondsKS>
30

>  <nBondsKD>
7

>  <RNCG>
0.25

>  <RPCG>
0.16

>  <FCSP3>
0.27

>  <SZ>
25

>  <Sm>
23.84

>  <Sv>
23.17

>  <Sse>
35.86

>  <Sp>
23.83

>  <Si>
39.33

>  <MZ>
0.71

>  <Mm>
0.68

>  <Mv>
0.66

>  <Mse>
1.02

>  <Mp>
0.68

>  <Mi>
1.12

>  <NsCH3>
2

>  <NdCH2>
0

>  <NssCH2>
1

>  <NtCH>
0

>  <NdsCH>
0

>  <NaaCH>
4

>  <NsssCH>
1

>  <NddC>
0

>  <NtsC>
0

>  <NdssC>
2

>  <NaasC>
5

>  <NaaaC>
0

>  <NssssC>
0

>  <NsNH3>
0

>  <NsNH2>
0

>  <NssNH2>
0

>  <NdNH>
0

>  <NssNH>
0

>  <NaaNH>
0

>  <NtN>
0

>  <NsssNH>
0

>  <NdsN>
0

>  <NaaN>
1

>  <NsssN>
0

>  <NddsN>
0

>  <NaasN>
1

>  <NssssN>
0

>  <NsOH>
1

>  <NdO>
2

>  <NssO>
1

>  <NaaO>
0

>  <NsF>
0

>  <NsSiH3>
0

>  <NssSiH2>
0

>  <NsssSiH>
0

>  <NssssSi>
0

>  <NsPH2>
0

>  <NssPH>
0

>  <NsssP>
0

>  <NdsssP>
0

>  <NsssssP>
0

>  <NsSH>
0

>  <NdS>
0

>  <NssS>
0

>  <NaaS>
0

>  <NdssS>
0

>  <NddssS>
0

>  <NsCl>
0

>  <NsBr>
0

>  <NsI>
0

>  <fragCpx>
109.06

>  <fMF>
0.43

>  <nHBAcc>
6

>  <nHBDon>
1

>  <Kier1>
15.88

>  <Kier2>
6.25

>  <Lipinski>
1

>  <GhoseFilter>
1

>  <FilterItLogS>
-2.69

>  <VMcGowan>
202.97

>  <LabuteASA>
120.51

>  <PEOE_VSA1>
9.84

>  <PEOE_VSA2>
14.27

>  <PEOE_VSA3>
0

>  <PEOE_VSA4>
5.1

>  <PEOE_VSA5>
0

>  <PEOE_VSA6>
0

>  <PEOE_VSA7>
24.62

>  <PEOE_VSA8>
24.73

>  <PEOE_VSA9>
18.18

>  <PEOE_VSA10>
11.5

>  <PEOE_VSA11>
5.78

>  <PEOE_VSA12>
0

>  <PEOE_VSA13>
0

>  <SMR_VSA1>
19.43

>  <SMR_VSA2>
0

>  <SMR_VSA3>
9.78

>  <SMR_VSA4>
7.05

>  <SMR_VSA5>
19.26

>  <SMR_VSA6>
0

>  <SMR_VSA7>
41.22

>  <SMR_VSA8>
0

>  <SMR_VSA9>
11.5

>  <SlogP_VSA1>
4.74

>  <SlogP_VSA2>
26.64

>  <SlogP_VSA3>
11.84

>  <SlogP_VSA4>
0

>  <SlogP_VSA5>
40.75

>  <SlogP_VSA6>
24.53

>  <SlogP_VSA7>
0

>  <SlogP_VSA8>
0

>  <SlogP_VSA9>
0

>  <SlogP_VSA10>
0

>  <SlogP_VSA11>
11.5

>  <EState_VSA1>
0

>  <EState_VSA2>
35.4

>  <EState_VSA3>
11.31

>  <EState_VSA4>
5.56

>  <EState_VSA5>
12.99

>  <EState_VSA6>
30.19

>  <EState_VSA7>
0

>  <EState_VSA8>
5.1

>  <EState_VSA9>
4.74

>  <EState_VSA10>
14.7

>  <VSA_EState1>
6.79

>  <VSA_EState2>
23.33

>  <VSA_EState3>
14.48

>  <VSA_EState4>
1.49

>  <VSA_EState5>
-0.8

>  <VSA_EState6>
3.02

>  <VSA_EState7>
3.54

>  <VSA_EState8>
1.38

>  <VSA_EState9>
1.78

>  <apol>
39.79

>  <bpol>
19.23

>  <nRing>
3

>  <nHRing>
2

>  <naRing>
2

>  <naHRing>
1

>  <nARing 2>
1

>  <nAHRing 2>
1

>  <nFRing>
1

>  <nFHRing>
1

>  <nFaRing>
0

>  <nFaHRing>
0

>  <nFARing 2>
1

>  <nFAHRing 2>
1

>  <nRot>
2

>  <SLogP>
1.77

>  <SMR>
73.41

>  <TopoPSA(NO)>
81.42

>  <TopoPSA>
81.42

>  <JGI1>
0.22

>  <JGI2>
0.08

>  <JGI3>
0.06

>  <JGI4>
0.05

>  <JGI5>
0.03

>  <Diameter>
9

>  <Radius>
5

>  <TMWC10>
119.14

>  <TSRW10>
68.9

>  <MW>
286.1

>  <AMW>
8.17

>  <WPath>
841

>  <WPol>
35

>  <Zagreb1>
114

>  <Zagreb2>
137

>  <mZagreb2>
4.5

>  <yes>


>  <nAR-cont>
0.816016

>  <nHA-cont>
0.994529749

>  <MWHBN>
0.413846333

>  <MWHBN-cont>
0.421817141

>  <TPSA-cont>
0.431637841

>  <pka_cont>
0.97

>  <yes.1>


>  <BBB_SCORE>
3.791547143

>  <MMFF94 Energy>
38.643

$$$$
Compound 2098
Actelion Java MolfileCreator 2.0

  0  0  0  0  0  0              0 V3000
M  V30 BEGIN CTAB
M  V30 COUNTS 54 56 0 0 0
M  V30 BEGIN ATOM
M  V30 1 Cl -1.5391 3.8105 4.7039 0
M  V30 2 C -1.8461 2.6751 3.448 0
M  V30 3 C -1.8564 1.3102 3.7377 0
M  V30 4 C -2.0906 3.1278 2.1509 0
M  V30 5 C -2.1026 0.3861 2.7205 0
M  V30 6 C -2.338 2.2092 1.1288 0
M  V30 7 C -2.3254 0.841 1.4162 0
M  V30 8 S -2.6383 -0.3458 0.1267 0
M  V30 9 O -3.5044 -1.3552 0.7077 0
M  V30 10 O -3.042 0.3893 -1.0517 0
M  V30 11 C -1.0488 -1.1453 -0.1176 0 CFG=2
M  V30 12 C -0.0352 -0.5218 -1.0711 0 CFG=2
M  V30 13 C -0.7361 -1.8527 -1.4033 0 CFG=2
M  V30 14 N 1.3618 -0.6033 -0.6511 0
M  V30 15 C -0.3475 0.7584 -1.8517 0
M  V30 16 C -1.7033 -2.0871 -2.5403 0
M  V30 17 C 1.8296 -0.0235 0.4948 0
M  V30 18 N 0.7945 1.1493 -2.6871 0
M  V30 19 C -2.9587 -2.6821 -2.3221 0
M  V30 20 C -1.4191 -1.6809 -3.8555 0
M  V30 21 O 1.1297 0.5578 1.3086 0
M  V30 22 O 3.1663 -0.2062 0.5668 0
M  V30 23 C -3.8792 -2.8653 -3.3584 0
M  V30 24 C -2.3335 -1.8612 -4.8981 0
M  V30 25 C 3.9227 0.3205 1.6884 0
M  V30 26 C -3.566 -2.4531 -4.648 0
M  V30 27 C 3.8432 1.8502 1.7439 0
M  V30 28 C 5.3764 -0.0855 1.4032 0
M  V30 29 C 3.4837 -0.3242 3.008 0
M  V30 30 H -1.6742 0.9622 4.7511 0
M  V30 31 H -2.0905 4.1922 1.9305 0
M  V30 32 H -2.1197 -0.6759 2.9525 0
M  V30 33 H -2.5357 2.5697 0.1216 0
M  V30 34 H -0.6714 -1.6171 0.7814 0
M  V30 35 H -0.1044 -2.7333 -1.2635 0
M  V30 36 H 2.0445 -1.0501 -1.248 0
M  V30 37 H -0.5364 1.5757 -1.1497 0
M  V30 38 H -1.2139 0.6684 -2.5065 0
M  V30 39 H 1.6019 1.2968 -2.0849 0
M  V30 40 H 1.0281 0.3905 -3.3204 0
M  V30 41 H -3.2358 -3.0221 -1.3257 0
M  V30 42 H -0.4641 -1.2184 -4.0869 0
M  V30 43 H -4.8427 -3.3233 -3.1505 0
M  V30 44 H -2.0831 -1.5315 -5.9028 0
M  V30 45 H -4.2824 -2.5877 -5.4535 0
M  V30 46 H 2.8416 2.1985 2.0137 0
M  V30 47 H 4.5413 2.2589 2.4824 0
M  V30 48 H 4.0747 2.2872 0.7661 0
M  V30 49 H 5.7155 0.3274 0.446 0
M  V30 50 H 6.057 0.2587 2.1889 0
M  V30 51 H 5.4674 -1.1747 1.3192 0
M  V30 52 H 2.476 -0.0136 3.3002 0
M  V30 53 H 3.4624 -1.416 2.9188 0
M  V30 54 H 4.1592 -0.0545 3.827 0
M  V30 END ATOM
M  V30 BEGIN BOND
M  V30 1 1 1 2
M  V30 2 2 2 3
M  V30 3 1 2 4
M  V30 4 1 3 5
M  V30 5 2 4 6
M  V30 6 2 5 7
M  V30 7 1 7 8
M  V30 8 2 8 9
M  V30 9 2 8 10
M  V30 10 1 8 11
M  V30 11 1 11 12
M  V30 12 1 11 13
M  V30 13 1 12 14
M  V30 14 1 12 15
M  V30 15 1 13 16
M  V30 16 1 14 17
M  V30 17 1 15 18
M  V30 18 2 16 19
M  V30 19 1 16 20
M  V30 20 2 17 21
M  V30 21 1 17 22
M  V30 22 1 19 23
M  V30 23 2 20 24
M  V30 24 1 22 25
M  V30 25 2 23 26
M  V30 26 1 25 27
M  V30 27 1 25 28
M  V30 28 1 25 29
M  V30 29 1 6 7
M  V30 30 1 12 13
M  V30 31 1 24 26
M  V30 32 1 3 30
M  V30 33 1 4 31
M  V30 34 1 5 32
M  V30 35 1 6 33
M  V30 36 1 11 34
M  V30 37 1 13 35
M  V30 38 1 14 36
M  V30 39 1 15 37
M  V30 40 1 15 38
M  V30 41 1 18 39
M  V30 42 1 18 40
M  V30 43 1 19 41
M  V30 44 1 20 42
M  V30 45 1 23 43
M  V30 46 1 24 44
M  V30 47 1 26 45
M  V30 48 1 27 46
M  V30 49 1 27 47
M  V30 50 1 27 48
M  V30 51 1 28 49
M  V30 52 1 28 50
M  V30 53 1 28 51
M  V30 54 1 29 52
M  V30 55 1 29 53
M  V30 56 1 29 54
M  V30 END BOND
M  V30 BEGIN COLLECTION
M  V30 MDLV30/STEABS ATOMS=(3 11 12 13)
M  V30 END COLLECTION
M  V30 END CTAB
M  END
>  <Column 1>
2587

>  <level_0>
3816

>  <index>
3816

>  <Unnamed: 0>
3816

>  <NO.>
3828

>  <Name>
busulfan

>  <IUPAC_name>
tert-butyl n-[(1r-2s-3s)-1-(aminomethyl)-2-(4-chlorophenyl)sulfonyl-3-phenylcyclopropyl]carbamate

>  <SMILES>
CC(C)(C)OC(=O)N[C@@]1(CN)[C@H](c2ccccc2)[C@@H]1S(=O)(=O)c1ccc(Cl)cc1

>  <CID>
100002478

>  <logBB>


>  <BBB+/BBB->
BBB+

>  <Inchi>
InChI=1S/C21H25ClN2O4S/c1-20(2-3)28-19(25)24-21(13-23)17(14-7-5-4-6-8-14)18(21)29(26-27)16-11-9-15(22)10-12-16/h4-12-17-18H-13-23H2-1-3H3-(H-24-25)/t17--18+-21+/m1/s1

>  <threshold>
-1

>  <reference>
R16|R10|

>  <group>
B

>  <Class>
1

>  <ABC>
22.61

>  <ABCGG>
19.58

>  <nAcid>
0

>  <nBase>
1

>  <nAromAtom>
12

>  <nAromBond>
12

>  <nAtom>
54

>  <nHeavyAtom>
29

>  <nSpiro>
0

>  <nBridgehead>
0

>  <nHetero>
8

>  <nN>
2

>  <nO>
4

>  <nF>
0

>  <BalabanJ>
1.82

>  <BertzCT>
987.59

>  <nBonds>
56

>  <nBondsO>
31

>  <nBondsS>
41

>  <nBondsD>
3

>  <nBondsT>
0

>  <nBondsA>
12

>  <nBondsM>
15

>  <nBondsKS>
47

>  <nBondsKD>
9

>  <RNCG>
0.18

>  <RPCG>
0.17

>  <FCSP3>
0.38

>  <SZ>
38.33

>  <Sm>
36.38

>  <Sv>
34.43

>  <Sse>
54.59

>  <Sp>
37.26

>  <Si>
60.68

>  <MZ>
0.71

>  <Mm>
0.67

>  <Mv>
0.64

>  <Mse>
1.01

>  <Mp>
0.69

>  <Mi>
1.12

>  <NsCH3>
3

>  <NdCH2>
0

>  <NssCH2>
1

>  <NtCH>
0

>  <NdsCH>
0

>  <NaaCH>
9

>  <NsssCH>
2

>  <NddC>
0

>  <NtsC>
0

>  <NdssC>
1

>  <NaasC>
3

>  <NaaaC>
0

>  <NssssC>
2

>  <NsNH3>
0

>  <NsNH2>
1

>  <NssNH2>
0

>  <NdNH>
0

>  <NssNH>
1

>  <NaaNH>
0

>  <NtN>
0

>  <NsssNH>
0

>  <NdsN>
0

>  <NaaN>
0

>  <NsssN>
0

>  <NddsN>
0

>  <NaasN>
0

>  <NssssN>
0

>  <NsOH>
0

>  <NdO>
3

>  <NssO>
1

>  <NaaO>
0

>  <NsF>
0

>  <NsSiH3>
0

>  <NssSiH2>
0

>  <NsssSiH>
0

>  <NssssSi>
0

>  <NsPH2>
0

>  <NssPH>
0

>  <NsssP>
0

>  <NdsssP>
0

>  <NsssssP>
0

>  <NsSH>
0

>  <NdS>
0

>  <NssS>
0

>  <NaaS>
0

>  <NdssS>
0

>  <NddssS>
1

>  <NsCl>
1

>  <NsBr>
0

>  <NsI>
0

>  <fragCpx>
149.08

>  <fMF>
0.3

>  <nHBAcc>
5

>  <nHBDon>
2

>  <Kier1>
23.66

>  <Kier2>
8.86

>  <Lipinski>
1

>  <GhoseFilter>
1

>  <FilterItLogS>
-5.34

>  <VMcGowan>
316.1

>  <LabuteASA>
175.86

>  <PEOE_VSA1>
15.79

>  <PEOE_VSA2>
0

>  <PEOE_VSA3>
13.21

>  <PEOE_VSA4>
0

>  <PEOE_VSA5>
0

>  <PEOE_VSA6>
41.93

>  <PEOE_VSA7>
50.6

>  <PEOE_VSA8>
17.49

>  <PEOE_VSA9>
10.43

>  <PEOE_VSA10>
10.85

>  <PEOE_VSA11>
9.84

>  <PEOE_VSA12>
0

>  <PEOE_VSA13>
0

>  <SMR_VSA1>
17.95

>  <SMR_VSA2>
0

>  <SMR_VSA3>
5.32

>  <SMR_VSA4>
5.73

>  <SMR_VSA5>
47.97

>  <SMR_VSA6>
6.54

>  <SMR_VSA7>
65.18

>  <SMR_VSA8>
0

>  <SMR_VSA9>
0

>  <SlogP_VSA1>
11.05

>  <SlogP_VSA2>
37.45

>  <SlogP_VSA3>
14.57

>  <SlogP_VSA4>
0

>  <SlogP_VSA5>
32.25

>  <SlogP_VSA6>
59.49

>  <SlogP_VSA7>
5.02

>  <SlogP_VSA8>
0

>  <SlogP_VSA9>
0

>  <SlogP_VSA10>
4.79

>  <SlogP_VSA11>
0

>  <EState_VSA1>
38.24

>  <EState_VSA2>
11.44

>  <EState_VSA3>
5.02

>  <EState_VSA4>
5.56

>  <EState_VSA5>
24.27

>  <EState_VSA6>
20.77

>  <EState_VSA7>
30.33

>  <EState_VSA8>
5.32

>  <EState_VSA9>
22.07

>  <EState_VSA10>
13.21

>  <VSA_EState1>
32.24

>  <VSA_EState2>
12.64

>  <VSA_EState3>
2.29

>  <VSA_EState4>
4.95

>  <VSA_EState5>
-0.5

>  <VSA_EState6>
15.16

>  <VSA_EState7>
-0.7

>  <VSA_EState8>
5.17

>  <VSA_EState9>
-3.8

>  <apol>
62.23

>  <bpol>
34.85

>  <nRing>
3

>  <nHRing>
0

>  <naRing>
2

>  <naHRing>
0

>  <nARing 2>
1

>  <nAHRing 2>
0

>  <nFRing>
0

>  <nFHRing>
0

>  <nFaRing>
0

>  <nFaHRing>
0

>  <nFARing 2>
0

>  <nFAHRing 2>
0

>  <nRot>
5

>  <SLogP>
3.5

>  <SMR>
112.76

>  <TopoPSA(NO)>
98.49

>  <TopoPSA>
106.87

>  <JGI1>
0.31

>  <JGI2>
0.11

>  <JGI3>
0.1

>  <JGI4>
0.05

>  <JGI5>
0.04

>  <Diameter>
12

>  <Radius>
6

>  <TMWC10>
139.48

>  <TSRW10>
86.63

>  <MW>
436.12

>  <AMW>
8.08

>  <WPath>
2111

>  <WPol>
46

>  <Zagreb1>
158

>  <Zagreb2>
190

>  <mZagreb2>
6.18

>  <yes>


>  <nAR-cont>
0.816016

>  <nHA-cont>
0.785905698

>  <MWHBN>
0.335193076

>  <MWHBN-cont>
0.724458554

>  <TPSA-cont>
0.253981038

>  <pka_cont>
0.97

>  <yes.1>


>  <BBB_SCORE>
3.681571605

>  <MMFF94 Energy>
29.188

$$$$
Compound 2099
Actelion Java MolfileCreator 2.0

  0  0  0  0  0  0              0 V3000
M  V30 BEGIN CTAB
M  V30 COUNTS 41 42 0 0 0
M  V30 BEGIN ATOM
M  V30 1 Cl -0.7349 5.6448 4.0881 0
M  V30 2 C -1.1495 4.8058 2.645 0
M  V30 3 C -2.0459 3.7381 2.6974 0
M  V30 4 C -0.5896 5.2021 1.4298 0
M  V30 5 C -2.3847 3.055 1.5272 0
M  V30 6 C -0.9214 4.5212 0.2567 0
M  V30 7 C -1.8079 3.4399 0.3143 0
M  V30 8 S -2.2363 2.5924 -1.1846 0
M  V30 9 O -3.4441 1.8257 -0.9586 0
M  V30 10 O -2.1586 3.5562 -2.2641 0
M  V30 11 C -0.8584 1.4541 -1.4507 0 CFG=1
M  V30 12 C -0.9292 0.0812 -0.8178 0 CFG=1
M  V30 13 C -1.2166 0.2649 -2.2995 0
M  V30 14 N 0.3284 -0.5279 -0.4342 0
M  V30 15 C -2.0659 -0.2938 0.0902 0
M  V30 16 C 0.6239 -1.8348 -0.6986 0
M  V30 17 O -1.9314 -0.2198 1.3066 0
M  V30 18 O -0.0779 -2.5828 -1.3605 0
M  V30 19 O 1.8004 -2.1453 -0.1098 0
M  V30 20 C 2.3488 -3.485 -0.2126 0
M  V30 21 C 1.4244 -4.5168 0.4431 0
M  V30 22 C 3.6634 -3.43 0.5802 0
M  V30 23 C 2.6692 -3.8451 -1.6674 0
M  V30 24 H -2.4865 3.4339 3.644 0
M  V30 25 H 0.0976 6.0439 1.3908 0
M  V30 26 H -3.0922 2.2294 1.5798 0
M  V30 27 H -0.496 4.8471 -0.6903 0
M  V30 28 H 0.107 1.9117 -1.6112 0
M  V30 29 H -0.4808 -0.0893 -3.0134 0
M  V30 30 H -2.2363 0.1447 -2.6506 0
M  V30 31 H 0.9417 -0.0618 0.221 0
M  V30 32 H -2.9876 -0.6731 -0.3824 0
M  V30 33 H 0.4953 -4.6495 -0.1192 0
M  V30 34 H 1.9077 -5.4972 0.5128 0
M  V30 35 H 1.138 -4.1968 1.4513 0
M  V30 36 H 3.479 -3.1381 1.6207 0
M  V30 37 H 4.1807 -4.3951 0.5783 0
M  V30 38 H 4.3389 -2.6742 0.1627 0
M  V30 39 H 1.7627 -3.9663 -2.268 0
M  V30 40 H 3.2576 -3.0527 -2.1434 0
M  V30 41 H 3.2315 -4.7828 -1.731 0
M  V30 END ATOM
M  V30 BEGIN BOND
M  V30 1 1 1 2
M  V30 2 2 2 3
M  V30 3 1 2 4
M  V30 4 1 3 5
M  V30 5 2 4 6
M  V30 6 2 5 7
M  V30 7 1 7 8
M  V30 8 2 8 9
M  V30 9 2 8 10
M  V30 10 1 8 11
M  V30 11 1 11 12
M  V30 12 1 11 13
M  V30 13 1 12 14
M  V30 14 1 12 15
M  V30 15 1 14 16
M  V30 16 2 15 17
M  V30 17 2 16 18
M  V30 18 1 16 19
M  V30 19 1 19 20
M  V30 20 1 20 21
M  V30 21 1 20 22
M  V30 22 1 20 23
M  V30 23 1 6 7
M  V30 24 1 12 13
M  V30 25 1 3 24
M  V30 26 1 4 25
M  V30 27 1 5 26
M  V30 28 1 6 27
M  V30 29 1 11 28
M  V30 30 1 13 29
M  V30 31 1 13 30
M  V30 32 1 14 31
M  V30 33 1 15 32
M  V30 34 1 21 33
M  V30 35 1 21 34
M  V30 36 1 21 35
M  V30 37 1 22 36
M  V30 38 1 22 37
M  V30 39 1 22 38
M  V30 40 1 23 39
M  V30 41 1 23 40
M  V30 42 1 23 41
M  V30 END BOND
M  V30 BEGIN COLLECTION
M  V30 MDLV30/STEABS ATOMS=(2 11 12)
M  V30 END COLLECTION
M  V30 END CTAB
M  END
>  <Column 1>
2588

>  <level_0>
3817

>  <index>
3817

>  <Unnamed: 0>
3817

>  <NO.>
3829

>  <Name>
cycloserine

>  <IUPAC_name>
tert-butyl n-[(1s-2r)-2-(4-chlorophenyl)sulfonyl-1-formylcyclopropyl]carbamate

>  <SMILES>
CC(C)(C)OC(=O)N[C@]1(C=O)C[C@H]1S(=O)(=O)c1ccc(Cl)cc1

>  <CID>
100000401

>  <logBB>


>  <BBB+/BBB->
BBB+

>  <Inchi>
InChI=1S/C15H18ClNO5S/c1-14(2-3)22-13(19)17-15(9-18)8-12(15)23(20-21)11-6-4-10(16)5-7-11/h4-7-9-12H-8H2-1-3H3-(H-17-19)/t12--15+/m1/s1

>  <threshold>
-1

>  <reference>
R16|R10|

>  <group>
B

>  <Class>
1

>  <ABC>
17.8

>  <ABCGG>
16.69

>  <nAcid>
0

>  <nBase>
0

>  <nAromAtom>
6

>  <nAromBond>
6

>  <nAtom>
41

>  <nHeavyAtom>
23

>  <nSpiro>
0

>  <nBridgehead>
0

>  <nHetero>
8

>  <nN>
1

>  <nO>
5

>  <nF>
0

>  <BalabanJ>
1.98

>  <BertzCT>
723.23

>  <nBonds>
42

>  <nBondsO>
24

>  <nBondsS>
32

>  <nBondsD>
4

>  <nBondsT>
0

>  <nBondsA>
6

>  <nBondsM>
10

>  <nBondsKS>
35

>  <nBondsKD>
7

>  <RNCG>
0.22

>  <RPCG>
0.2

>  <FCSP3>
0.47

>  <SZ>
31.33

>  <Sm>
29.96

>  <Sv>
26.49

>  <Sse>
42.15

>  <Sp>
28.29

>  <Si>
46.15

>  <MZ>
0.76

>  <Mm>
0.73

>  <Mv>
0.65

>  <Mse>
1.03

>  <Mp>
0.69

>  <Mi>
1.13

>  <NsCH3>
3

>  <NdCH2>
0

>  <NssCH2>
1

>  <NtCH>
0

>  <NdsCH>
1

>  <NaaCH>
4

>  <NsssCH>
1

>  <NddC>
0

>  <NtsC>
0

>  <NdssC>
1

>  <NaasC>
2

>  <NaaaC>
0

>  <NssssC>
2

>  <NsNH3>
0

>  <NsNH2>
0

>  <NssNH2>
0

>  <NdNH>
0

>  <NssNH>
1

>  <NaaNH>
0

>  <NtN>
0

>  <NsssNH>
0

>  <NdsN>
0

>  <NaaN>
0

>  <NsssN>
0

>  <NddsN>
0

>  <NaasN>
0

>  <NssssN>
0

>  <NsOH>
0

>  <NdO>
4

>  <NssO>
1

>  <NaaO>
0

>  <NsF>
0

>  <NsSiH3>
0

>  <NssSiH2>
0

>  <NsssSiH>
0

>  <NssssSi>
0

>  <NsPH2>
0

>  <NssPH>
0

>  <NsssP>
0

>  <NdsssP>
0

>  <NsssssP>
0

>  <NsSH>
0

>  <NdS>
0

>  <NssS>
0

>  <NaaS>
0

>  <NdssS>
0

>  <NddssS>
1

>  <NsCl>
1

>  <NsBr>
0

>  <NsI>
0

>  <fragCpx>
70.08

>  <fMF>
0.24

>  <nHBAcc>
5

>  <nHBDon>
1

>  <Kier1>
19.33

>  <Kier2>
6.72

>  <Lipinski>
1

>  <GhoseFilter>
1

>  <FilterItLogS>
-3.77

>  <VMcGowan>
246.91

>  <LabuteASA>
139.63

>  <PEOE_VSA1>
14.85

>  <PEOE_VSA2>
0

>  <PEOE_VSA3>
13.21

>  <PEOE_VSA4>
0

>  <PEOE_VSA5>
0

>  <PEOE_VSA6>
11.6

>  <PEOE_VSA7>
51.46

>  <PEOE_VSA8>
5.02

>  <PEOE_VSA9>
10.15

>  <PEOE_VSA10>
17.43

>  <PEOE_VSA11>
9.84

>  <PEOE_VSA12>
0

>  <PEOE_VSA13>
0

>  <SMR_VSA1>
22.74

>  <SMR_VSA2>
0

>  <SMR_VSA3>
5.32

>  <SMR_VSA4>
0

>  <SMR_VSA5>
48.48

>  <SMR_VSA6>
0

>  <SMR_VSA7>
29.29

>  <SMR_VSA8>
0

>  <SMR_VSA9>
0

>  <SlogP_VSA1>
5.32

>  <SlogP_VSA2>
37.19

>  <SlogP_VSA3>
19.37

>  <SlogP_VSA4>
0

>  <SlogP_VSA5>
27.19

>  <SlogP_VSA6>
29.16

>  <SlogP_VSA7>
5.02

>  <SlogP_VSA8>
0

>  <SlogP_VSA9>
0

>  <SlogP_VSA10>
4.79

>  <SlogP_VSA11>
0

>  <EState_VSA1>
32.32

>  <EState_VSA2>
11.32

>  <EState_VSA3>
11.31

>  <EState_VSA4>
0

>  <EState_VSA5>
24.27

>  <EState_VSA6>
20.77

>  <EState_VSA7>
0

>  <EState_VSA8>
5.32

>  <EState_VSA9>
16.34

>  <EState_VSA10>
18.01

>  <VSA_EState1>
30.18

>  <VSA_EState2>
23.26

>  <VSA_EState3>
1.77

>  <VSA_EState4>
-2.19

>  <VSA_EState5>
0

>  <VSA_EState6>
5.67

>  <VSA_EState7>
-0.35

>  <VSA_EState8>
5.03

>  <VSA_EState9>
-3.75

>  <apol>
47.24

>  <bpol>
29.27

>  <nRing>
2

>  <nHRing>
0

>  <naRing>
1

>  <naHRing>
0

>  <nARing 2>
1

>  <nAHRing 2>
0

>  <nFRing>
0

>  <nFHRing>
0

>  <nFaRing>
0

>  <nFaHRing>
0

>  <nFARing 2>
0

>  <nFAHRing 2>
0

>  <nRot>
4

>  <SLogP>
2.35

>  <SMR>
85.21

>  <TopoPSA(NO)>
89.54

>  <TopoPSA>
97.92

>  <JGI1>
0.4

>  <JGI2>
0.12

>  <JGI3>
0.1

>  <JGI4>
0.05

>  <JGI5>
0.04

>  <Diameter>
12

>  <Radius>
6

>  <TMWC10>
123.44

>  <TSRW10>
78.57

>  <MW>
359.06

>  <AMW>
8.76

>  <WPath>
1229

>  <WPol>
34

>  <Zagreb1>
124

>  <Zagreb2>
146

>  <mZagreb2>
4.83

>  <yes>


>  <nAR-cont>
0.816016

>  <nHA-cont>
0.967789328

>  <MWHBN>
0.316641429

>  <MWHBN-cont>
0.788339113

>  <TPSA-cont>
0.316457595

>  <pka_cont>
0.97

>  <yes.1>


>  <BBB_SCORE>
4.084229189

>  <MMFF94 Energy>
23.474

$$$$
Compound 2100
Actelion Java MolfileCreator 2.0

  0  0  0  0  0  0              0 V3000
M  V30 BEGIN CTAB
M  V30 COUNTS 47 49 0 0 0
M  V30 BEGIN ATOM
M  V30 1 S -3.6532 -1.2977 1.9471 0
M  V30 2 O -4.1193 0.0424 1.6567 0
M  V30 3 O -4.3619 -2.4561 1.4416 0
M  V30 4 C -1.9726 -1.4719 1.3067 0 CFG=2
M  V30 5 C -3.4847 -1.4849 3.7015 0
M  V30 6 C -1.0709 -0.2584 1.3178 0 CFG=2
M  V30 7 C -1.7551 -0.704 0.0192 0 CFG=1
M  V30 8 N 0.3473 -0.519 1.5165 0
M  V30 9 C -1.5564 1.0022 1.9854 0
M  V30 10 C -0.9834 -1.3363 -1.1217 0
M  V30 11 C 1.3691 0.3423 1.2183 0
M  V30 12 O -1.3051 1.2107 3.1668 0
M  V30 13 C -0.0826 -0.57 -1.8843 0
M  V30 14 C -1.1034 -2.7153 -1.4314 0
M  V30 15 O 2.5298 0.0628 1.4816 0
M  V30 16 O 0.9344 1.4791 0.6237 0
M  V30 17 C 0.6435 -1.1808 -2.8857 0
M  V30 18 C -0.3582 -3.3143 -2.4546 0
M  V30 19 C 1.8651 2.5376 0.2799 0
M  V30 20 O 1.5469 -0.5689 -3.697 0
M  V30 21 C 0.5108 -2.5177 -3.162 0
M  V30 22 C 2.5324 3.1145 1.5331 0
M  V30 23 C 0.9908 3.6283 -0.3572 0
M  V30 24 C 2.8953 2.0705 -0.7539 0
M  V30 25 C 1.9739 -1.6807 -4.5118 0
M  V30 26 O 1.3135 -2.9205 -4.1814 0
M  V30 27 H -1.5266 -2.4477 1.4303 0
M  V30 28 H -2.8798 -0.671 4.0993 0
M  V30 29 H -3.0172 -2.4493 3.9079 0
M  V30 30 H -4.4832 -1.4537 4.1428 0
M  V30 31 H -2.5721 -0.0713 -0.3273 0
M  V30 32 H 0.6513 -1.3619 1.9839 0
M  V30 33 H -2.1012 1.727 1.3572 0
M  V30 34 H 0.043 0.4911 -1.6989 0
M  V30 35 H -1.8049 -3.3355 -0.875 0
M  V30 36 H -0.4636 -4.3685 -2.6845 0
M  V30 37 H 3.2188 2.3992 1.996 0
M  V30 38 H 3.1076 4.0168 1.299 0
M  V30 39 H 1.7827 3.366 2.2918 0
M  V30 40 H 0.2152 3.9636 0.3414 0
M  V30 41 H 1.582 4.4982 -0.6615 0
M  V30 42 H 0.4654 3.2411 -1.2381 0
M  V30 43 H 3.5877 1.3326 -0.3387 0
M  V30 44 H 2.4027 1.5935 -1.6078 0
M  V30 45 H 3.4948 2.9092 -1.1241 0
M  V30 46 H 1.7697 -1.4438 -5.5622 0
M  V30 47 H 3.0544 -1.814 -4.3847 0
M  V30 END ATOM
M  V30 BEGIN BOND
M  V30 1 2 1 2
M  V30 2 2 1 3
M  V30 3 1 1 4
M  V30 4 1 1 5
M  V30 5 1 4 6
M  V30 6 1 4 7
M  V30 7 1 6 8
M  V30 8 1 6 9
M  V30 9 1 7 10
M  V30 10 1 8 11
M  V30 11 2 9 12
M  V30 12 2 10 13
M  V30 13 1 10 14
M  V30 14 2 11 15
M  V30 15 1 11 16
M  V30 16 1 13 17
M  V30 17 2 14 18
M  V30 18 1 16 19
M  V30 19 1 17 20
M  V30 20 2 17 21
M  V30 21 1 19 22
M  V30 22 1 19 23
M  V30 23 1 19 24
M  V30 24 1 20 25
M  V30 25 1 21 26
M  V30 26 1 6 7
M  V30 27 1 18 21
M  V30 28 1 25 26
M  V30 29 1 4 27
M  V30 30 1 5 28
M  V30 31 1 5 29
M  V30 32 1 5 30
M  V30 33 1 7 31
M  V30 34 1 8 32
M  V30 35 1 9 33
M  V30 36 1 13 34
M  V30 37 1 14 35
M  V30 38 1 18 36
M  V30 39 1 22 37
M  V30 40 1 22 38
M  V30 41 1 22 39
M  V30 42 1 23 40
M  V30 43 1 23 41
M  V30 44 1 23 42
M  V30 45 1 24 43
M  V30 46 1 24 44
M  V30 47 1 24 45
M  V30 48 1 25 46
M  V30 49 1 25 47
M  V30 END BOND
M  V30 BEGIN COLLECTION
M  V30 MDLV30/STEABS ATOMS=(3 4 6 7)
M  V30 END COLLECTION
M  V30 END CTAB
M  END
>  <Column 1>
2589

>  <level_0>
3818

>  <index>
3818

>  <Unnamed: 0>
3818

>  <NO.>
3830

>  <Name>
temazepam

>  <IUPAC_name>
tert-butyl n-[(1r-2r-3s)-2-(1-3-benzodioxol-5-yl)-1-formyl-3-methylsulfonylcyclopropyl]carbamate

>  <SMILES>
CC(C)(C)OC(=O)N[C@]1(C=O)[C@@H](S(C)(=O)=O)[C@@H]1c1ccc2c(c1)OCO2

>  <CID>
100005391

>  <logBB>


>  <BBB+/BBB->
BBB+

>  <Inchi>
InChI=1S/C17H21NO7S/c1-16(2-3)25-15(20)18-17(8-19)13(14(17)26(4-21)22)10-5-6-11-12(7-10)24-9-23-11/h5-8-13-14H-9H2-1-4H3-(H-18-20)/t13--14--17-/m0/s1

>  <threshold>
-1

>  <reference>
R16|R16|R10|R10|

>  <group>
B

>  <Class>
-1

>  <ABC>
20.56

>  <ABCGG>
18.39

>  <nAcid>
0

>  <nBase>
0

>  <nAromAtom>
6

>  <nAromBond>
6

>  <nAtom>
47

>  <nHeavyAtom>
26

>  <nSpiro>
0

>  <nBridgehead>
0

>  <nHetero>
9

>  <nN>
1

>  <nO>
7

>  <nF>
0

>  <BalabanJ>
1.76

>  <BertzCT>
858.35

>  <nBonds>
49

>  <nBondsO>
28

>  <nBondsS>
39

>  <nBondsD>
4

>  <nBondsT>
0

>  <nBondsA>
6

>  <nBondsM>
10

>  <nBondsKS>
42

>  <nBondsKD>
7

>  <RNCG>
0.16

>  <RPCG>
0.14

>  <FCSP3>
0.53

>  <SZ>
33.67

>  <Sm>
31.92

>  <Sv>
29.64

>  <Sse>
48.38

>  <Sp>
31.14

>  <Si>
53.04

>  <MZ>
0.72

>  <Mm>
0.68

>  <Mv>
0.63

>  <Mse>
1.03

>  <Mp>
0.66

>  <Mi>
1.13

>  <NsCH3>
4

>  <NdCH2>
0

>  <NssCH2>
1

>  <NtCH>
0

>  <NdsCH>
1

>  <NaaCH>
3

>  <NsssCH>
2

>  <NddC>
0

>  <NtsC>
0

>  <NdssC>
1

>  <NaasC>
3

>  <NaaaC>
0

>  <NssssC>
2

>  <NsNH3>
0

>  <NsNH2>
0

>  <NssNH2>
0

>  <NdNH>
0

>  <NssNH>
1

>  <NaaNH>
0

>  <NtN>
0

>  <NsssNH>
0

>  <NdsN>
0

>  <NaaN>
0

>  <NsssN>
0

>  <NddsN>
0

>  <NaasN>
0

>  <NssssN>
0

>  <NsOH>
0

>  <NdO>
4

>  <NssO>
3

>  <NaaO>
0

>  <NsF>
0

>  <NsSiH3>
0

>  <NssSiH2>
0

>  <NsssSiH>
0

>  <NssssSi>
0

>  <NsPH2>
0

>  <NssPH>
0

>  <NsssP>
0

>  <NdsssP>
0

>  <NsssssP>
0

>  <NsSH>
0

>  <NdS>
0

>  <NssS>
0

>  <NaaS>
0

>  <NdssS>
0

>  <NddssS>
1

>  <NsCl>
0

>  <NsBr>
0

>  <NsI>
0

>  <fragCpx>
134.09

>  <fMF>
0.26

>  <nHBAcc>
7

>  <nHBDon>
1

>  <Kier1>
20.73

>  <Kier2>
7.11

>  <Lipinski>
1

>  <GhoseFilter>
1

>  <FilterItLogS>
-3.2

>  <VMcGowan>
263.73

>  <LabuteASA>
151.27

>  <PEOE_VSA1>
24.32

>  <PEOE_VSA2>
0

>  <PEOE_VSA3>
13.21

>  <PEOE_VSA4>
0

>  <PEOE_VSA5>
0

>  <PEOE_VSA6>
6.07

>  <PEOE_VSA7>
38.47

>  <PEOE_VSA8>
12.17

>  <PEOE_VSA9>
0

>  <PEOE_VSA10>
22.68

>  <PEOE_VSA11>
21.34

>  <PEOE_VSA12>
6.79

>  <PEOE_VSA13>
0

>  <SMR_VSA1>
32.22

>  <SMR_VSA2>
0

>  <SMR_VSA3>
5.32

>  <SMR_VSA4>
0

>  <SMR_VSA5>
43.08

>  <SMR_VSA6>
13.05

>  <SMR_VSA7>
23.76

>  <SMR_VSA8>
0

>  <SMR_VSA9>
11.5

>  <SlogP_VSA1>
14.79

>  <SlogP_VSA2>
50.24

>  <SlogP_VSA3>
19.37

>  <SlogP_VSA4>
0

>  <SlogP_VSA5>
32.25

>  <SlogP_VSA6>
18.2

>  <SlogP_VSA7>
0

>  <SlogP_VSA8>
0

>  <SlogP_VSA9>
0

>  <SlogP_VSA10>
4.79

>  <SlogP_VSA11>
11.5

>  <EState_VSA1>
38.24

>  <EState_VSA2>
6.79

>  <EState_VSA3>
23.35

>  <EState_VSA4>
6.26

>  <EState_VSA5>
0

>  <EState_VSA6>
38.97

>  <EState_VSA7>
0

>  <EState_VSA8>
5.32

>  <EState_VSA9>
14.21

>  <EState_VSA10>
18.01

>  <VSA_EState1>
40.24

>  <VSA_EState2>
24.05

>  <VSA_EState3>
1.38

>  <VSA_EState4>
-1.8

>  <VSA_EState5>
0.28

>  <VSA_EState6>
4.95

>  <VSA_EState7>
0.67

>  <VSA_EState8>
5.11

>  <VSA_EState9>
-3.62

>  <apol>
52.01

>  <bpol>
35.24

>  <nRing>
3

>  <nHRing>
1

>  <naRing>
1

>  <naHRing>
0

>  <nARing 2>
2

>  <nAHRing 2>
1

>  <nFRing>
1

>  <nFHRing>
1

>  <nFaRing>
0

>  <nFaHRing>
0

>  <nFARing 2>
1

>  <nFAHRing 2>
1

>  <nRot>
4

>  <SLogP>
1.39

>  <SMR>
92.1

>  <TopoPSA(NO)>
108

>  <TopoPSA>
116.38

>  <JGI1>
0.34

>  <JGI2>
0.11

>  <JGI3>
0.11

>  <JGI4>
0.05

>  <JGI5>
0.03

>  <Diameter>
11

>  <Radius>
6

>  <TMWC10>
132.87

>  <TSRW10>
83.64

>  <MW>
383.1

>  <AMW>
8.15

>  <WPath>
1593

>  <WPol>
39

>  <Zagreb1>
146

>  <Zagreb2>
176

>  <mZagreb2>
5.38

>  <yes>


>  <nAR-cont>
1

>  <nHA-cont>
0.892715677

>  <MWHBN>
0.408727549

>  <MWHBN-cont>
0.441796756

>  <TPSA-cont>
0.187595332

>  <pka_cont>
0.97

>  <yes.1>


>  <BBB_SCORE>
3.415601477

>  <MMFF94 Energy>
-13.561

$$$$
Compound 2101
Actelion Java MolfileCreator 2.0

  0  0  0  0  0  0              0 V3000
M  V30 BEGIN CTAB
M  V30 COUNTS 55 56 0 0 0
M  V30 BEGIN ATOM
M  V30 1 S -3.4157 -1.0317 -1.3493 0
M  V30 2 C -2.3352 0.3581 -0.8364 0 CFG=1
M  V30 3 C -4.4777 -1.1166 0.1316 0
M  V30 4 C -1.4842 -0.0338 0.3718 0
M  V30 5 C -1.4466 0.7735 -2.003 0
M  V30 6 C -5.5182 -2.1988 -0.0061 0
M  V30 7 O -1.4437 0.6602 1.3847 0
M  V30 8 N -0.7534 -1.1933 0.2237 0
M  V30 9 C -6.7444 -1.9341 -0.6341 0
M  V30 10 C -5.2674 -3.4936 0.4716 0
M  V30 11 C 0.1316 -1.695 1.2529 0
M  V30 12 C -7.7035 -2.9395 -0.7681 0
M  V30 13 C -6.2282 -4.4972 0.3367 0
M  V30 14 C 1.4668 -0.9547 1.2991 0
M  V30 15 C -7.4461 -4.2195 -0.2812 0
M  V30 16 C 2.2681 -1.1206 0.0051 0
M  V30 17 C 3.6097 -0.4332 0.0847 0
M  V30 18 C 3.6969 0.9639 -0.0512 0
M  V30 19 C 4.7749 -1.1735 0.3152 0
M  V30 20 C 4.9293 1.6128 0.0342 0
M  V30 21 C 6.0075 -0.5302 0.4028 0
M  V30 22 O 5.1509 2.957 -0.0719 0
M  V30 23 C 6.0806 0.8558 0.2631 0
M  V30 24 C 4.0599 3.8254 -0.3933 0
M  V30 25 C 3.3336 4.2478 0.8808 0
M  V30 26 C 4.6637 5.0504 -1.0776 0
M  V30 27 H -2.9724 1.2033 -0.5537 0
M  V30 28 H -4.9701 -0.1492 0.2816 0
M  V30 29 H -3.8653 -1.311 1.0186 0
M  V30 30 H -2.0436 1.1311 -2.8492 0
M  V30 31 H -0.8088 -0.0455 -2.3542 0
M  V30 32 H -0.7802 1.5896 -1.7006 0
M  V30 33 H -0.9193 -1.7564 -0.6044 0
M  V30 34 H -6.9567 -0.9424 -1.0276 0
M  V30 35 H -4.3193 -3.7282 0.9503 0
M  V30 36 H 0.2883 -2.761 1.0577 0
M  V30 37 H -0.3747 -1.6005 2.2201 0
M  V30 38 H -8.6504 -2.7244 -1.2565 0
M  V30 39 H -6.0252 -5.4971 0.7111 0
M  V30 40 H 2.0512 -1.3408 2.1439 0
M  V30 41 H 1.2952 0.1103 1.4988 0
M  V30 42 H -8.1927 -5.0019 -0.3878 0
M  V30 43 H 2.4109 -2.1867 -0.2114 0
M  V30 44 H 1.7153 -0.7098 -0.849 0
M  V30 45 H 2.7782 1.5185 -0.2109 0
M  V30 46 H 4.7302 -2.2538 0.4308 0
M  V30 47 H 6.9119 -1.1049 0.5824 0
M  V30 48 H 7.0447 1.3533 0.3353 0
M  V30 49 H 3.3703 3.3638 -1.109 0
M  V30 50 H 2.5307 4.9582 0.6607 0
M  V30 51 H 2.8963 3.3858 1.3939 0
M  V30 52 H 4.0277 4.7125 1.5901 0
M  V30 53 H 3.8902 5.7731 -1.3555 0
M  V30 54 H 5.2033 4.7523 -1.9832 0
M  V30 55 H 5.3922 5.5471 -0.4269 0
M  V30 END ATOM
M  V30 BEGIN BOND
M  V30 1 1 1 2
M  V30 2 1 1 3
M  V30 3 1 2 4
M  V30 4 1 2 5
M  V30 5 1 3 6
M  V30 6 2 4 7
M  V30 7 1 4 8
M  V30 8 2 6 9
M  V30 9 1 6 10
M  V30 10 1 8 11
M  V30 11 1 9 12
M  V30 12 2 10 13
M  V30 13 1 11 14
M  V30 14 2 12 15
M  V30 15 1 14 16
M  V30 16 1 16 17
M  V30 17 2 17 18
M  V30 18 1 17 19
M  V30 19 1 18 20
M  V30 20 2 19 21
M  V30 21 1 20 22
M  V30 22 2 20 23
M  V30 23 1 22 24
M  V30 24 1 24 25
M  V30 25 1 24 26
M  V30 26 1 13 15
M  V30 27 1 21 23
M  V30 28 1 2 27
M  V30 29 1 3 28
M  V30 30 1 3 29
M  V30 31 1 5 30
M  V30 32 1 5 31
M  V30 33 1 5 32
M  V30 34 1 8 33
M  V30 35 1 9 34
M  V30 36 1 10 35
M  V30 37 1 11 36
M  V30 38 1 11 37
M  V30 39 1 12 38
M  V30 40 1 13 39
M  V30 41 1 14 40
M  V30 42 1 14 41
M  V30 43 1 15 42
M  V30 44 1 16 43
M  V30 45 1 16 44
M  V30 46 1 18 45
M  V30 47 1 19 46
M  V30 48 1 21 47
M  V30 49 1 23 48
M  V30 50 1 24 49
M  V30 51 1 25 50
M  V30 52 1 25 51
M  V30 53 1 25 52
M  V30 54 1 26 53
M  V30 55 1 26 54
M  V30 56 1 26 55
M  V30 END BOND
M  V30 BEGIN COLLECTION
M  V30 MDLV30/STEABS ATOMS=(1 2)
M  V30 END COLLECTION
M  V30 END CTAB
M  END
>  <Column 1>
2591

>  <level_0>
3820

>  <index>
3820

>  <Unnamed: 0>
3820

>  <NO.>
3832

>  <Name>
clonazepam

>  <IUPAC_name>
(2r)-2-benzylsulfanyl-n-[3-(3-propan-2-yloxyphenyl)propyl]propanamide

>  <SMILES>
CC(C)Oc1cccc(CCCNC(=O)[C@@H](C)SCc2ccccc2)c1

>  <CID>
100002802

>  <logBB>


>  <BBB+/BBB->
BBB+

>  <Inchi>
InChI=1S/C22H29NO2S/c1-17(2)25-21-13-7-11-19(15-21)12-8-14-23-22(24)18(3)26-16-20-9-5-4-6-10-20/h4-7-9-11-13-15-17-18H-8-12-14-16H2-1-3H3-(H-23-24)/t18-/m1/s1

>  <threshold>
-1

>  <reference>
R16|R10|R10|

>  <group>
B

>  <Class>
-1

>  <ABC>
19.49

>  <ABCGG>
15.02

>  <nAcid>
0

>  <nBase>
0

>  <nAromAtom>
12

>  <nAromBond>
12

>  <nAtom>
55

>  <nHeavyAtom>
26

>  <nSpiro>
0

>  <nBridgehead>
0

>  <nHetero>
4

>  <nN>
1

>  <nO>
2

>  <nF>
0

>  <BalabanJ>
1.52

>  <BertzCT>
672.85

>  <nBonds>
56

>  <nBondsO>
27

>  <nBondsS>
43

>  <nBondsD>
1

>  <nBondsT>
0

>  <nBondsA>
12

>  <nBondsM>
13

>  <nBondsKS>
49

>  <nBondsKD>
7

>  <RNCG>
0.25

>  <RPCG>
0.12

>  <FCSP3>
0.41

>  <SZ>
33.33

>  <Sm>
30.93

>  <Sv>
33.23

>  <Sse>
54.27

>  <Sp>
36.93

>  <Si>
61.65

>  <MZ>
0.61

>  <Mm>
0.56

>  <Mv>
0.6

>  <Mse>
0.99

>  <Mp>
0.67

>  <Mi>
1.12

>  <NsCH3>
3

>  <NdCH2>
0

>  <NssCH2>
4

>  <NtCH>
0

>  <NdsCH>
0

>  <NaaCH>
9

>  <NsssCH>
2

>  <NddC>
0

>  <NtsC>
0

>  <NdssC>
1

>  <NaasC>
3

>  <NaaaC>
0

>  <NssssC>
0

>  <NsNH3>
0

>  <NsNH2>
0

>  <NssNH2>
0

>  <NdNH>
0

>  <NssNH>
1

>  <NaaNH>
0

>  <NtN>
0

>  <NsssNH>
0

>  <NdsN>
0

>  <NaaN>
0

>  <NsssN>
0

>  <NddsN>
0

>  <NaasN>
0

>  <NssssN>
0

>  <NsOH>
0

>  <NdO>
1

>  <NssO>
1

>  <NaaO>
0

>  <NsF>
0

>  <NsSiH3>
0

>  <NssSiH2>
0

>  <NsssSiH>
0

>  <NssssSi>
0

>  <NsPH2>
0

>  <NssPH>
0

>  <NsssP>
0

>  <NdsssP>
0

>  <NsssssP>
0

>  <NsSH>
0

>  <NdS>
0

>  <NssS>
1

>  <NaaS>
0

>  <NdssS>
0

>  <NddssS>
0

>  <NsCl>
0

>  <NsBr>
0

>  <NsI>
0

>  <fragCpx>
79.04

>  <fMF>
0.36

>  <nHBAcc>
3

>  <nHBDon>
1

>  <Kier1>
22.29

>  <Kier2>
12.46

>  <Lipinski>
1

>  <GhoseFilter>
1

>  <FilterItLogS>
-6.23

>  <VMcGowan>
307.09

>  <LabuteASA>
161.09

>  <PEOE_VSA1>
10.05

>  <PEOE_VSA2>
4.79

>  <PEOE_VSA3>
0

>  <PEOE_VSA4>
0

>  <PEOE_VSA5>
11.76

>  <PEOE_VSA6>
42.46

>  <PEOE_VSA7>
56.87

>  <PEOE_VSA8>
12.3

>  <PEOE_VSA9>
11.35

>  <PEOE_VSA10>
5.75

>  <PEOE_VSA11>
0

>  <PEOE_VSA12>
5.91

>  <PEOE_VSA13>
0

>  <SMR_VSA1>
9.53

>  <SMR_VSA2>
0

>  <SMR_VSA3>
5.32

>  <SMR_VSA4>
0

>  <SMR_VSA5>
50.72

>  <SMR_VSA6>
6.54

>  <SMR_VSA7>
65.72

>  <SMR_VSA8>
0

>  <SMR_VSA9>
5.75

>  <SlogP_VSA1>
10.05

>  <SlogP_VSA2>
23.81

>  <SlogP_VSA3>
16.97

>  <SlogP_VSA4>
0

>  <SlogP_VSA5>
38.32

>  <SlogP_VSA6>
54.6

>  <SlogP_VSA7>
0

>  <SlogP_VSA8>
0

>  <SlogP_VSA9>
0

>  <SlogP_VSA10>
0

>  <SlogP_VSA11>
5.75

>  <EState_VSA1>
0

>  <EState_VSA2>
17.26

>  <EState_VSA3>
6.54

>  <EState_VSA4>
24.34

>  <EState_VSA5>
11.13

>  <EState_VSA6>
11.76

>  <EState_VSA7>
51.1

>  <EState_VSA8>
29.58

>  <EState_VSA9>
4.74

>  <EState_VSA10>
4.79

>  <VSA_EState1>
5.72

>  <VSA_EState2>
12.2

>  <VSA_EState3>
3

>  <VSA_EState4>
2.49

>  <VSA_EState5>
1.88

>  <VSA_EState6>
18.44

>  <VSA_EState7>
2.04

>  <VSA_EState8>
6.72

>  <VSA_EState9>
0

>  <apol>
61.68

>  <bpol>
34.73

>  <nRing>
2

>  <nHRing>
0

>  <naRing>
2

>  <naHRing>
0

>  <nARing 2>
0

>  <nAHRing 2>
0

>  <nFRing>
0

>  <nFHRing>
0

>  <nFaRing>
0

>  <nFaHRing>
0

>  <nFARing 2>
0

>  <nFAHRing 2>
0

>  <nRot>
10

>  <SLogP>
4.84

>  <SMR>
110.74

>  <TopoPSA(NO)>
38.33

>  <TopoPSA>
63.63

>  <JGI1>
0.19

>  <JGI2>
0.06

>  <JGI3>
0.04

>  <JGI4>
0.03

>  <JGI5>
0.02

>  <Diameter>
17

>  <Radius>
9

>  <TMWC10>
125.02

>  <TSRW10>
59.77

>  <MW>
371.19

>  <AMW>
6.75

>  <WPath>
2186

>  <WPol>
32

>  <Zagreb1>
122

>  <Zagreb2>
133

>  <mZagreb2>
5.94

>  <yes>


>  <nAR-cont>
0.336376

>  <nHA-cont>
0.892715677

>  <MWHBN>
0.207616496

>  <MWHBN-cont>
0.999765567

>  <TPSA-cont>
0.555823088

>  <pka_cont>
0.97

>  <yes.1>


>  <BBB_SCORE>
4.325386203

>  <MMFF94 Energy>
50.209

$$$$
Compound 2102
Actelion Java MolfileCreator 2.0

  0  0  0  0  0  0              0 V3000
M  V30 BEGIN CTAB
M  V30 COUNTS 49 51 0 0 0
M  V30 BEGIN ATOM
M  V30 1 O 1.0349 3.8254 2.3098 0
M  V30 2 C 1.9143 3.1897 1.7548 0
M  V30 3 O 3.2245 3.1803 2.1247 0
M  V30 4 N 1.8138 2.3768 0.6549 0
M  V30 5 C 3.8073 2.3507 1.2188 0
M  V30 6 N 3.0256 1.8426 0.3174 0
M  V30 7 C 0.5865 2.0328 -0.0195 0
M  V30 8 C 5.2115 2.1594 1.3877 0
M  V30 9 C -0.0397 0.8128 0.6312 0
M  V30 10 O 5.8765 1.3549 0.5013 0
M  V30 11 C 6.1101 2.6474 2.32 0
M  V30 12 O 0.1589 0.432 1.7776 0
M  V30 13 O -0.912 0.2322 -0.2448 0
M  V30 14 C 7.1817 1.334 0.8716 0
M  V30 15 C 7.3785 2.1139 1.9855 0
M  V30 16 C -1.6103 -0.9401 0.2252 0 CFG=2
M  V30 17 C -1.9667 -1.8213 -1.0002 0 CFG=2
M  V30 18 C -2.8637 -0.5124 1.0013 0
M  V30 19 C -0.7103 -2.2205 -1.8395 0
M  V30 20 C -3.0211 -1.1117 -1.8789 0
M  V30 21 C -3.8835 0.2042 0.1086 0 CFG=1
M  V30 22 C 0.3721 -2.8904 -0.9831 0
M  V30 23 C -1.0643 -3.1651 -2.9964 0
M  V30 24 C -4.2524 -0.6781 -1.0849 0
M  V30 25 C -5.1306 0.5792 0.908 0
M  V30 26 H -0.1206 2.8642 0.0566 0
M  V30 27 H 0.8178 1.8245 -1.0685 0
M  V30 28 H 5.8739 3.3082 3.1436 0
M  V30 29 H 7.8324 0.7296 0.2545 0
M  V30 30 H 8.3192 2.2761 2.4933 0
M  V30 31 H -0.9688 -1.5154 0.903 0
M  V30 32 H -2.4245 -2.7445 -0.6168 0
M  V30 33 H -2.5817 0.1573 1.8226 0
M  V30 34 H -3.3244 -1.3999 1.4538 0
M  V30 35 H -0.2718 -1.3152 -2.2791 0
M  V30 36 H -2.5748 -0.2349 -2.3647 0
M  V30 37 H -3.3638 -1.7773 -2.678 0
M  V30 38 H -3.4357 1.1334 -0.2675 0
M  V30 39 H 0.8024 -2.1915 -0.2598 0
M  V30 40 H 1.2003 -3.2453 -1.6064 0
M  V30 41 H -0.0311 -3.7496 -0.4366 0
M  V30 42 H -0.1604 -3.507 -3.5127 0
M  V30 43 H -1.6837 -2.6666 -3.7476 0
M  V30 44 H -1.6014 -4.0488 -2.6359 0
M  V30 45 H -4.937 -0.1383 -1.7504 0
M  V30 46 H -4.7883 -1.5714 -0.7387 0
M  V30 47 H -4.8714 1.234 1.7467 0
M  V30 48 H -5.8502 1.1119 0.2772 0
M  V30 49 H -5.6276 -0.3089 1.3128 0
M  V30 END ATOM
M  V30 BEGIN BOND
M  V30 1 2 1 2
M  V30 2 1 2 3
M  V30 3 1 2 4
M  V30 4 1 3 5
M  V30 5 1 4 6
M  V30 6 1 4 7
M  V30 7 1 5 8
M  V30 8 1 7 9
M  V30 9 1 8 10
M  V30 10 2 8 11
M  V30 11 2 9 12
M  V30 12 1 9 13
M  V30 13 1 10 14
M  V30 14 1 11 15
M  V30 15 1 13 16
M  V30 16 1 16 17
M  V30 17 1 16 18
M  V30 18 1 17 19
M  V30 19 1 17 20
M  V30 20 1 18 21
M  V30 21 1 19 22
M  V30 22 1 19 23
M  V30 23 1 20 24
M  V30 24 1 21 25
M  V30 25 2 5 6
M  V30 26 2 14 15
M  V30 27 1 21 24
M  V30 28 1 7 26
M  V30 29 1 7 27
M  V30 30 1 11 28
M  V30 31 1 14 29
M  V30 32 1 15 30
M  V30 33 1 16 31
M  V30 34 1 17 32
M  V30 35 1 18 33
M  V30 36 1 18 34
M  V30 37 1 19 35
M  V30 38 1 20 36
M  V30 39 1 20 37
M  V30 40 1 21 38
M  V30 41 1 22 39
M  V30 42 1 22 40
M  V30 43 1 22 41
M  V30 44 1 23 42
M  V30 45 1 23 43
M  V30 46 1 23 44
M  V30 47 1 24 45
M  V30 48 1 24 46
M  V30 49 1 25 47
M  V30 50 1 25 48
M  V30 51 1 25 49
M  V30 END BOND
M  V30 BEGIN COLLECTION
M  V30 MDLV30/STEABS ATOMS=(3 16 17 21)
M  V30 END COLLECTION
M  V30 END CTAB
M  END
>  <Column 1>
2592

>  <level_0>
3821

>  <index>
3821

>  <Unnamed: 0>
3821

>  <NO.>
3833

>  <Name>
cefazolin

>  <IUPAC_name>
[(1s-2s-5r)-5-methyl-2-propan-2-ylcyclohexyl] 2-[5-(furan-2-yl)-2-oxo-1-3-4-oxadiazol-3-yl]acetate

>  <SMILES>
CC(C)[C@@H]1CC[C@@H](C)C[C@@H]1OC(=O)Cn1nc(-c2ccco2)oc1=O

>  <CID>
100002617

>  <logBB>


>  <BBB+/BBB->
BBB-

>  <Inchi>
InChI=1S/C18H24N2O5/c1-11(2)13-7-6-12(3)9-15(13)24-16(21)10-20-18(22)25-17(19-20)14-5-4-8-23-14/h4-5-8-11-13-15H-6-7-9-10H2-1-3H3/t12--13+-15+/m1/s1

>  <threshold>
-1

>  <reference>
R16|R10|R10|

>  <group>
B

>  <Class>
1

>  <ABC>
19.48

>  <ABCGG>
16.55

>  <nAcid>
0

>  <nBase>
0

>  <nAromAtom>
10

>  <nAromBond>
10

>  <nAtom>
49

>  <nHeavyAtom>
25

>  <nSpiro>
0

>  <nBridgehead>
0

>  <nHetero>
7

>  <nN>
2

>  <nO>
5

>  <nF>
0

>  <BalabanJ>
1.5

>  <BertzCT>
758.78

>  <nBonds>
51

>  <nBondsO>
27

>  <nBondsS>
39

>  <nBondsD>
2

>  <nBondsT>
0

>  <nBondsA>
10

>  <nBondsM>
12

>  <nBondsKS>
46

>  <nBondsKD>
5

>  <RNCG>
0.18

>  <RPCG>
0.18

>  <FCSP3>
0.61

>  <SZ>
31

>  <Sm>
29.01

>  <Sv>
29.59

>  <Sse>
49.63

>  <Sp>
31.3

>  <Si>
55.61

>  <MZ>
0.63

>  <Mm>
0.59

>  <Mv>
0.6

>  <Mse>
1.01

>  <Mp>
0.64

>  <Mi>
1.13

>  <NsCH3>
3

>  <NdCH2>
0

>  <NssCH2>
4

>  <NtCH>
0

>  <NdsCH>
0

>  <NaaCH>
3

>  <NsssCH>
4

>  <NddC>
0

>  <NtsC>
0

>  <NdssC>
1

>  <NaasC>
2

>  <NaaaC>
0

>  <NssssC>
0

>  <NsNH3>
0

>  <NsNH2>
0

>  <NssNH2>
0

>  <NdNH>
0

>  <NssNH>
0

>  <NaaNH>
0

>  <NtN>
0

>  <NsssNH>
0

>  <NdsN>
0

>  <NaaN>
1

>  <NsssN>
0

>  <NddsN>
0

>  <NaasN>
1

>  <NssssN>
0

>  <NsOH>
0

>  <NdO>
2

>  <NssO>
1

>  <NaaO>
2

>  <NsF>
0

>  <NsSiH3>
0

>  <NssSiH2>
0

>  <NsssSiH>
0

>  <NssssSi>
0

>  <NsPH2>
0

>  <NssPH>
0

>  <NsssP>
0

>  <NdsssP>
0

>  <NsssssP>
0

>  <NsSH>
0

>  <NdS>
0

>  <NssS>
0

>  <NaaS>
0

>  <NdssS>
0

>  <NddssS>
0

>  <NsCl>
0

>  <NsBr>
0

>  <NsI>
0

>  <fragCpx>
129.07

>  <fMF>
0.39

>  <nHBAcc>
7

>  <nHBDon>
0

>  <Kier1>
19.75

>  <Kier2>
8.79

>  <Lipinski>
1

>  <GhoseFilter>
1

>  <FilterItLogS>
-3.47

>  <VMcGowan>
259.71

>  <LabuteASA>
145.5

>  <PEOE_VSA1>
13.57

>  <PEOE_VSA2>
4.79

>  <PEOE_VSA3>
4.79

>  <PEOE_VSA4>
4.68

>  <PEOE_VSA5>
5.1

>  <PEOE_VSA6>
27.19

>  <PEOE_VSA7>
42.73

>  <PEOE_VSA8>
0

>  <PEOE_VSA9>
6.26

>  <PEOE_VSA10>
12.65

>  <PEOE_VSA11>
5.76

>  <PEOE_VSA12>
0

>  <PEOE_VSA13>
5.89

>  <SMR_VSA1>
18.37

>  <SMR_VSA2>
0

>  <SMR_VSA3>
9.78

>  <SMR_VSA4>
17.75

>  <SMR_VSA5>
52.68

>  <SMR_VSA6>
0

>  <SMR_VSA7>
28.95

>  <SMR_VSA8>
0

>  <SMR_VSA9>
11.65

>  <SlogP_VSA1>
5.76

>  <SlogP_VSA2>
21.85

>  <SlogP_VSA3>
16.08

>  <SlogP_VSA4>
17.75

>  <SlogP_VSA5>
40.03

>  <SlogP_VSA6>
32.02

>  <SlogP_VSA7>
0

>  <SlogP_VSA8>
11.65

>  <SlogP_VSA9>
0

>  <SlogP_VSA10>
0

>  <SlogP_VSA11>
0

>  <EState_VSA1>
11.73

>  <EState_VSA2>
18.54

>  <EState_VSA3>
23.51

>  <EState_VSA4>
23.94

>  <EState_VSA5>
6.26

>  <EState_VSA6>
12.13

>  <EState_VSA7>
0

>  <EState_VSA8>
25.87

>  <EState_VSA9>
13.57

>  <EState_VSA10>
9.59

>  <VSA_EState1>
16.82

>  <VSA_EState2>
24.19

>  <VSA_EState3>
4

>  <VSA_EState4>
0

>  <VSA_EState5>
0.55

>  <VSA_EState6>
3.3

>  <VSA_EState7>
4.43

>  <VSA_EState8>
6.21

>  <VSA_EState9>
0

>  <apol>
52.27

>  <bpol>
32.73

>  <nRing>
3

>  <nHRing>
2

>  <naRing>
2

>  <naHRing>
2

>  <nARing 2>
1

>  <nAHRing 2>
0

>  <nFRing>
0

>  <nFHRing>
0

>  <nFaRing>
0

>  <nFaHRing>
0

>  <nFARing 2>
0

>  <nFAHRing 2>
0

>  <nRot>
5

>  <SLogP>
3.1

>  <SMR>
89.69

>  <TopoPSA(NO)>
87.47

>  <TopoPSA>
87.47

>  <JGI1>
0.22

>  <JGI2>
0.08

>  <JGI3>
0.06

>  <JGI4>
0.04

>  <JGI5>
0.03

>  <Diameter>
12

>  <Radius>
6

>  <TMWC10>
126.98

>  <TSRW10>
75.17

>  <MW>
348.17

>  <AMW>
7.11

>  <WPath>
1616

>  <WPol>
35

>  <Zagreb1>
130

>  <Zagreb2>
151

>  <mZagreb2>
5.44

>  <yes>


>  <nAR-cont>
0.816016

>  <nHA-cont>
0.921834225

>  <MWHBN>
0.375147767

>  <MWHBN-cont>
0.57380703

>  <TPSA-cont>
0.389405084

>  <pka_cont>
0.97

>  <yes.1>


>  <BBB_SCORE>
3.862370939

>  <MMFF94 Energy>
47.232

$$$$
Compound 2103
Actelion Java MolfileCreator 2.0

  0  0  0  0  0  0              0 V3000
M  V30 BEGIN CTAB
M  V30 COUNTS 46 49 0 0 0
M  V30 BEGIN ATOM
M  V30 1 S -1.0484 -2.34 2.7439 0
M  V30 2 C 0.3623 -1.3329 2.6543 0
M  V30 3 C -0.4176 -3.0181 4.1855 0
M  V30 4 N 1.1844 -1.5552 3.6641 0
M  V30 5 N 0.5957 -0.4256 1.6576 0
M  V30 6 N 0.7422 -2.5165 4.5455 0
M  V30 7 C -1.1619 -4.0866 4.9343 0
M  V30 8 C -0.4421 -0.0577 0.6928 0
M  V30 9 C 1.7727 0.4463 1.7672 0
M  V30 10 C -0.3353 -5.3713 4.9969 0
M  V30 11 C -1.5173 -3.6058 6.3416 0
M  V30 12 C 0.0115 0.8671 -0.3805 0
M  V30 13 C 2.3659 0.7522 0.3959 0
M  V30 14 N 1.3218 1.2213 -0.4893 0
M  V30 15 C -0.6347 1.5124 -1.4092 0
M  V30 16 N 1.5851 2.0596 -1.5069 0
M  V30 17 C 0.3816 2.2259 -2.0965 0
M  V30 18 C 0.2598 3.1256 -3.3069 0 CFG=1
M  V30 19 O 1.5623 3.5472 -3.7519 0
M  V30 20 C -0.4452 2.4995 -4.4865 0
M  V30 21 N -1.1932 1.404 -4.4771 0
M  V30 22 N -0.4522 3.0507 -5.7532 0
M  V30 23 C -1.6459 1.2312 -5.756 0
M  V30 24 C -1.2021 2.2446 -6.5658 0
M  V30 25 C 0.1989 4.2673 -6.1778 0
M  V30 26 H -2.1005 -4.3194 4.415 0
M  V30 27 H -0.8299 -0.9585 0.2008 0
M  V30 28 H -1.2757 0.4188 1.2246 0
M  V30 29 H 1.4732 1.3777 2.2653 0
M  V30 30 H 2.5641 -0.0044 2.3778 0
M  V30 31 H -0.8892 -6.1641 5.5109 0
M  V30 32 H -0.0921 -5.7297 3.9904 0
M  V30 33 H 0.6087 -5.2184 5.5319 0
M  V30 34 H -2.1243 -2.6943 6.3023 0
M  V30 35 H -0.6206 -3.382 6.9305 0
M  V30 36 H -2.0913 -4.3684 6.8787 0
M  V30 37 H 2.7911 -0.1451 -0.0659 0
M  V30 38 H 3.1376 1.525 0.4675 0
M  V30 39 H -1.6855 1.4628 -1.6622 0
M  V30 40 H -0.2857 4.0288 -3.0093 0
M  V30 41 H 2.1645 3.1035 -3.1162 0
M  V30 42 H -2.2704 0.3894 -6.0244 0
M  V30 43 H -1.3521 2.4498 -7.6162 0
M  V30 44 H 0.0426 5.0416 -5.423 0
M  V30 45 H 1.2621 4.0598 -6.3188 0
M  V30 46 H -0.2395 4.5986 -7.1231 0
M  V30 END ATOM
M  V30 BEGIN BOND
M  V30 1 1 1 2
M  V30 2 1 1 3
M  V30 3 2 2 4
M  V30 4 1 2 5
M  V30 5 2 3 6
M  V30 6 1 3 7
M  V30 7 1 5 8
M  V30 8 1 5 9
M  V30 9 1 7 10
M  V30 10 1 7 11
M  V30 11 1 8 12
M  V30 12 1 9 13
M  V30 13 1 12 14
M  V30 14 2 12 15
M  V30 15 1 14 16
M  V30 16 1 15 17
M  V30 17 1 17 18
M  V30 18 1 18 19
M  V30 19 1 18 20
M  V30 20 2 20 21
M  V30 21 1 20 22
M  V30 22 1 21 23
M  V30 23 1 22 24
M  V30 24 1 22 25
M  V30 25 1 4 6
M  V30 26 1 13 14
M  V30 27 2 16 17
M  V30 28 2 23 24
M  V30 29 1 7 26
M  V30 30 1 8 27
M  V30 31 1 8 28
M  V30 32 1 9 29
M  V30 33 1 9 30
M  V30 34 1 10 31
M  V30 35 1 10 32
M  V30 36 1 10 33
M  V30 37 1 11 34
M  V30 38 1 11 35
M  V30 39 1 11 36
M  V30 40 1 13 37
M  V30 41 1 13 38
M  V30 42 1 15 39
M  V30 43 1 18 40
M  V30 44 1 19 41
M  V30 45 1 23 42
M  V30 46 1 24 43
M  V30 47 1 25 44
M  V30 48 1 25 45
M  V30 49 1 25 46
M  V30 END BOND
M  V30 BEGIN COLLECTION
M  V30 MDLV30/STEABS ATOMS=(1 18)
M  V30 END COLLECTION
M  V30 END CTAB
M  END
>  <Column 1>
2594

>  <level_0>
3823

>  <index>
3823

>  <Unnamed: 0>
3823

>  <NO.>
3835

>  <Name>
furosemide

>  <IUPAC_name>
(r)-(1-methylimidazol-2-yl)-[5-(5-propan-2-yl-1-3-4-thiadiazol-2-yl)-6-7-dihydro-4h-pyrazolo[1-5-a]pyrazin-2-yl]methanol

>  <SMILES>
CC(C)c1nnc(N2CCn3nc([C@@H](O)c4nccn4C)cc3C2)s1

>  <CID>
100003440

>  <logBB>


>  <BBB+/BBB->
BBB-

>  <Inchi>
InChI=1S/C16H21N7OS/c1-10(2)15-18-19-16(25-15)22-6-7-23-11(9-22)8-12(20-23)13(24)14-17-4-5-21(14)3/h4-5-8-10-13-24H-6-7-9H2-1-3H3/t13-/m1/s1

>  <threshold>
-1

>  <reference>
R16|R16|R10|R10|

>  <group>
B

>  <Class>
-1

>  <ABC>
19.99

>  <ABCGG>
16.43

>  <nAcid>
0

>  <nBase>
0

>  <nAromAtom>
15

>  <nAromBond>
15

>  <nAtom>
46

>  <nHeavyAtom>
25

>  <nSpiro>
0

>  <nBridgehead>
0

>  <nHetero>
9

>  <nN>
7

>  <nO>
1

>  <nF>
0

>  <BalabanJ>
1.32

>  <BertzCT>
880.82

>  <nBonds>
49

>  <nBondsO>
28

>  <nBondsS>
34

>  <nBondsD>
0

>  <nBondsT>
0

>  <nBondsA>
15

>  <nBondsM>
15

>  <nBondsKS>
43

>  <nBondsKD>
6

>  <RNCG>
0.17

>  <RPCG>
0.1

>  <FCSP3>
0.5

>  <SZ>
31.67

>  <Sm>
29.93

>  <Sv>
28.9

>  <Sse>
46.37

>  <Sp>
31.21

>  <Si>
52.53

>  <MZ>
0.69

>  <Mm>
0.65

>  <Mv>
0.63

>  <Mse>
1.01

>  <Mp>
0.68

>  <Mi>
1.14

>  <NsCH3>
3

>  <NdCH2>
0

>  <NssCH2>
3

>  <NtCH>
0

>  <NdsCH>
0

>  <NaaCH>
3

>  <NsssCH>
2

>  <NddC>
0

>  <NtsC>
0

>  <NdssC>
0

>  <NaasC>
5

>  <NaaaC>
0

>  <NssssC>
0

>  <NsNH3>
0

>  <NsNH2>
0

>  <NssNH2>
0

>  <NdNH>
0

>  <NssNH>
0

>  <NaaNH>
0

>  <NtN>
0

>  <NsssNH>
0

>  <NdsN>
0

>  <NaaN>
4

>  <NsssN>
1

>  <NddsN>
0

>  <NaasN>
2

>  <NssssN>
0

>  <NsOH>
1

>  <NdO>
0

>  <NssO>
0

>  <NaaO>
0

>  <NsF>
0

>  <NsSiH3>
0

>  <NssSiH2>
0

>  <NsssSiH>
0

>  <NssssSi>
0

>  <NsPH2>
0

>  <NssPH>
0

>  <NsssP>
0

>  <NdsssP>
0

>  <NsssssP>
0

>  <NsSH>
0

>  <NdS>
0

>  <NssS>
0

>  <NaaS>
1

>  <NdssS>
0

>  <NddssS>
0

>  <NsCl>
0

>  <NsBr>
0

>  <NsI>
0

>  <fragCpx>
184.09

>  <fMF>
0.43

>  <nHBAcc>
9

>  <nHBDon>
1

>  <Kier1>
18.37

>  <Kier2>
7.55

>  <Lipinski>
1

>  <GhoseFilter>
1

>  <FilterItLogS>
-2.33

>  <VMcGowan>
259.14

>  <LabuteASA>
149.31

>  <PEOE_VSA1>
14.57

>  <PEOE_VSA2>
4.68

>  <PEOE_VSA3>
4.98

>  <PEOE_VSA4>
5.1

>  <PEOE_VSA5>
10.2

>  <PEOE_VSA6>
25.18

>  <PEOE_VSA7>
6.07

>  <PEOE_VSA8>
31.9

>  <PEOE_VSA9>
24.48

>  <PEOE_VSA10>
10.83

>  <PEOE_VSA11>
6.1

>  <PEOE_VSA12>
5.13

>  <PEOE_VSA13>
0

>  <SMR_VSA1>
5.11

>  <SMR_VSA2>
0

>  <SMR_VSA3>
29.53

>  <SMR_VSA4>
7.05

>  <SMR_VSA5>
38.96

>  <SMR_VSA6>
11.44

>  <SMR_VSA7>
40.68

>  <SMR_VSA8>
0

>  <SMR_VSA9>
0

>  <SlogP_VSA1>
4.9

>  <SlogP_VSA2>
41.18

>  <SlogP_VSA3>
20.14

>  <SlogP_VSA4>
0

>  <SlogP_VSA5>
48.09

>  <SlogP_VSA6>
18.46

>  <SlogP_VSA7>
0

>  <SlogP_VSA8>
0

>  <SlogP_VSA9>
0

>  <SlogP_VSA10>
5.13

>  <SlogP_VSA11>
0

>  <EState_VSA1>
6.1

>  <EState_VSA2>
0

>  <EState_VSA3>
23.98

>  <EState_VSA4>
28.92

>  <EState_VSA5>
0

>  <EState_VSA6>
17.53

>  <EState_VSA7>
28.56

>  <EState_VSA8>
39.03

>  <EState_VSA9>
0

>  <EState_VSA10>
5.11

>  <VSA_EState1>
3.77

>  <VSA_EState2>
6.44

>  <VSA_EState3>
25.74

>  <VSA_EState4>
1.7

>  <VSA_EState5>
0.99

>  <VSA_EState6>
1.95

>  <VSA_EState7>
2.68

>  <VSA_EState8>
6.56

>  <VSA_EState9>
1.87

>  <apol>
52.12

>  <bpol>
30.94

>  <nRing>
4

>  <nHRing>
4

>  <naRing>
3

>  <naHRing>
3

>  <nARing 2>
1

>  <nAHRing 2>
1

>  <nFRing>
1

>  <nFHRing>
1

>  <nFaRing>
0

>  <nFaHRing>
0

>  <nFARing 2>
1

>  <nFAHRing 2>
1

>  <nRot>
4

>  <SLogP>
1.69

>  <SMR>
94.54

>  <TopoPSA(NO)>
84.89

>  <TopoPSA>
113.13

>  <JGI1>
0.2

>  <JGI2>
0.09

>  <JGI3>
0.05

>  <JGI4>
0.04

>  <JGI5>
0.02

>  <Diameter>
13

>  <Radius>
7

>  <TMWC10>
129.45

>  <TSRW10>
77.01

>  <MW>
359.15

>  <AMW>
7.81

>  <WPath>
1594

>  <WPol>
38

>  <Zagreb1>
138

>  <Zagreb2>
166

>  <mZagreb2>
5.33

>  <yes>


>  <nAR-cont>
0.816016

>  <nHA-cont>
0.921834225

>  <MWHBN>
0.527669588

>  <MWHBN-cont>
0

>  <TPSA-cont>
0.21028235

>  <pka_cont>
0.97

>  <yes.1>


>  <BBB_SCORE>
2.643414926

>  <MMFF94 Energy>
28.034

$$$$
Compound 2104
Actelion Java MolfileCreator 2.0

  0  0  0  0  0  0              0 V3000
M  V30 BEGIN CTAB
M  V30 COUNTS 35 37 0 0 0
M  V30 BEGIN ATOM
M  V30 1 F -3.308 -1.6933 4.4395 0
M  V30 2 C -2.1824 -1.5794 3.7188 0
M  V30 3 N -1.3732 -2.6654 3.6643 0
M  V30 4 C -1.9228 -0.3886 3.0689 0
M  V30 5 C -0.2446 -2.5485 2.9327 0
M  V30 6 F -2.7886 0.6319 3.1413 0
M  V30 7 C -0.765 -0.3107 2.3102 0
M  V30 8 C 0.1076 -1.4 2.2469 0
M  V30 9 C -0.4253 0.9551 1.6394 0
M  V30 10 O -0.3191 1.9476 2.3593 0
M  V30 11 N -0.1197 0.9646 0.2709 0
M  V30 12 C -0.4315 -0.0681 -0.6565 0
M  V30 13 C 0.6386 2.1226 -0.21 0
M  V30 14 C 0.4838 -0.3469 -1.6848 0
M  V30 15 C -1.6324 -0.7828 -0.6011 0
M  V30 16 C 1.2375 1.9816 -1.616 0 CFG=2
M  V30 17 C 0.2468 -1.4083 -2.5665 0
M  V30 18 C 1.691 0.5371 -1.845 0
M  V30 19 C -1.873 -1.8292 -1.494 0
M  V30 20 C 2.3882 2.9624 -1.8237 0
M  V30 21 C -0.9263 -2.1533 -2.4629 0
M  V30 22 H 0.3908 -3.4304 2.9153 0
M  V30 23 H 1.0337 -1.3541 1.684 0
M  V30 24 H 1.4408 2.3067 0.5175 0
M  V30 25 H -0.0224 2.9976 -0.1681 0
M  V30 26 H -2.4077 -0.5274 0.1148 0
M  V30 27 H 0.4528 2.2238 -2.3473 0
M  V30 28 H 0.9599 -1.6426 -3.3534 0
M  V30 29 H 2.1098 0.4358 -2.8531 0
M  V30 30 H 2.4639 0.2368 -1.1274 0
M  V30 31 H -2.805 -2.3865 -1.4379 0
M  V30 32 H 2.7767 2.8929 -2.845 0
M  V30 33 H 2.0537 3.9922 -1.6605 0
M  V30 34 H 3.2145 2.7601 -1.1338 0
M  V30 35 H -1.1162 -2.9684 -3.157 0
M  V30 END ATOM
M  V30 BEGIN BOND
M  V30 1 1 1 2
M  V30 2 2 2 3
M  V30 3 1 2 4
M  V30 4 1 3 5
M  V30 5 1 4 6
M  V30 6 2 4 7
M  V30 7 2 5 8
M  V30 8 1 7 9
M  V30 9 2 9 10
M  V30 10 1 9 11
M  V30 11 1 11 12
M  V30 12 1 11 13
M  V30 13 2 12 14
M  V30 14 1 12 15
M  V30 15 1 13 16
M  V30 16 1 14 17
M  V30 17 1 14 18
M  V30 18 2 15 19
M  V30 19 1 16 20
M  V30 20 2 17 21
M  V30 21 1 7 8
M  V30 22 1 16 18
M  V30 23 1 19 21
M  V30 24 1 5 22
M  V30 25 1 8 23
M  V30 26 1 13 24
M  V30 27 1 13 25
M  V30 28 1 15 26
M  V30 29 1 16 27
M  V30 30 1 17 28
M  V30 31 1 18 29
M  V30 32 1 18 30
M  V30 33 1 19 31
M  V30 34 1 20 32
M  V30 35 1 20 33
M  V30 36 1 20 34
M  V30 37 1 21 35
M  V30 END BOND
M  V30 BEGIN COLLECTION
M  V30 MDLV30/STERAC1 ATOMS=(1 16)
M  V30 END COLLECTION
M  V30 END CTAB
M  END
>  <Column 1>
2597

>  <level_0>
3826

>  <index>
3826

>  <Unnamed: 0>
3826

>  <NO.>
3838

>  <Name>
rifampin

>  <IUPAC_name>
(2-3-difluoropyridin-4-yl)-(3-methyl-3-4-dihydro-2h-quinolin-1-yl)methanone

>  <SMILES>
CC1Cc2ccccc2N(C(=O)c2ccnc(F)c2F)C1

>  <CID>
105381226

>  <logBB>


>  <BBB+/BBB->
BBB-

>  <Inchi>
InChI=1S/C16H14F2N2O/c1-10-8-11-4-2-3-5-13(11)20(9-10)16(21)12-6-7-19-15(18)14(12)17/h2-7-10H-8-9H2-1H3

>  <threshold>
-1

>  <reference>
R16|R10|R10|

>  <group>
B

>  <Class>
-1

>  <ABC>
16.46

>  <ABCGG>
13.65

>  <nAcid>
0

>  <nBase>
0

>  <nAromAtom>
12

>  <nAromBond>
12

>  <nAtom>
35

>  <nHeavyAtom>
21

>  <nSpiro>
0

>  <nBridgehead>
0

>  <nHetero>
5

>  <nN>
2

>  <nO>
1

>  <nF>
2

>  <BalabanJ>
1.73

>  <BertzCT>
702.43

>  <nBonds>
37

>  <nBondsO>
23

>  <nBondsS>
24

>  <nBondsD>
1

>  <nBondsT>
0

>  <nBondsA>
12

>  <nBondsM>
13

>  <nBondsKS>
30

>  <nBondsKD>
7

>  <RNCG>
0.2

>  <RPCG>
0.17

>  <FCSP3>
0.25

>  <SZ>
25

>  <Sm>
24

>  <Sv>
23.32

>  <Sse>
35.79

>  <Sp>
24.05

>  <Si>
39.79

>  <MZ>
0.71

>  <Mm>
0.69

>  <Mv>
0.67

>  <Mse>
1.02

>  <Mp>
0.69

>  <Mi>
1.14

>  <NsCH3>
1

>  <NdCH2>
0

>  <NssCH2>
2

>  <NtCH>
0

>  <NdsCH>
0

>  <NaaCH>
6

>  <NsssCH>
1

>  <NddC>
0

>  <NtsC>
0

>  <NdssC>
1

>  <NaasC>
5

>  <NaaaC>
0

>  <NssssC>
0

>  <NsNH3>
0

>  <NsNH2>
0

>  <NssNH2>
0

>  <NdNH>
0

>  <NssNH>
0

>  <NaaNH>
0

>  <NtN>
0

>  <NsssNH>
0

>  <NdsN>
0

>  <NaaN>
1

>  <NsssN>
1

>  <NddsN>
0

>  <NaasN>
0

>  <NssssN>
0

>  <NsOH>
0

>  <NdO>
1

>  <NssO>
0

>  <NaaO>
0

>  <NsF>
2

>  <NsSiH3>
0

>  <NssSiH2>
0

>  <NsssSiH>
0

>  <NssssSi>
0

>  <NsPH2>
0

>  <NssPH>
0

>  <NsssP>
0

>  <NdsssP>
0

>  <NsssssP>
0

>  <NsSH>
0

>  <NdS>
0

>  <NssS>
0

>  <NaaS>
0

>  <NdssS>
0

>  <NddssS>
0

>  <NsCl>
0

>  <NsBr>
0

>  <NsI>
0

>  <fragCpx>
109.05

>  <fMF>
0.49

>  <nHBAcc>
2

>  <nHBDon>
0

>  <Kier1>
15.88

>  <Kier2>
6.63

>  <Lipinski>
1

>  <GhoseFilter>
1

>  <FilterItLogS>
-4.46

>  <VMcGowan>
202.97

>  <LabuteASA>
120.78

>  <PEOE_VSA1>
4.9

>  <PEOE_VSA2>
4.79

>  <PEOE_VSA3>
9.37

>  <PEOE_VSA4>
4.39

>  <PEOE_VSA5>
0

>  <PEOE_VSA6>
25.12

>  <PEOE_VSA7>
30.03

>  <PEOE_VSA8>
18.43

>  <PEOE_VSA9>
5.56

>  <PEOE_VSA10>
0

>  <PEOE_VSA11>
5.82

>  <PEOE_VSA12>
5.95

>  <PEOE_VSA13>
5.91

>  <SMR_VSA1>
13.58

>  <SMR_VSA2>
0

>  <SMR_VSA3>
4.98

>  <SMR_VSA4>
5.92

>  <SMR_VSA5>
13.34

>  <SMR_VSA6>
11.44

>  <SMR_VSA7>
59.42

>  <SMR_VSA8>
0

>  <SMR_VSA9>
0

>  <SlogP_VSA1>
4.9

>  <SlogP_VSA2>
17.44

>  <SlogP_VSA3>
6.42

>  <SlogP_VSA4>
17.68

>  <SlogP_VSA5>
22.85

>  <SlogP_VSA6>
36.53

>  <SlogP_VSA7>
0

>  <SlogP_VSA8>
0

>  <SlogP_VSA9>
0

>  <SlogP_VSA10>
14.47

>  <SlogP_VSA11>
0

>  <EState_VSA1>
17.67

>  <EState_VSA2>
11.48

>  <EState_VSA3>
6.54

>  <EState_VSA4>
23.87

>  <EState_VSA5>
10.97

>  <EState_VSA6>
0

>  <EState_VSA7>
31.19

>  <EState_VSA8>
4.98

>  <EState_VSA9>
0

>  <EState_VSA10>
13.58

>  <VSA_EState1>
27.02

>  <VSA_EState2>
17.3

>  <VSA_EState3>
0

>  <VSA_EState4>
1.52

>  <VSA_EState5>
-2.72

>  <VSA_EState6>
8.73

>  <VSA_EState7>
1.97

>  <VSA_EState8>
2.51

>  <VSA_EState9>
0

>  <apol>
40.17

>  <bpol>
19.99

>  <nRing>
3

>  <nHRing>
2

>  <naRing>
2

>  <naHRing>
1

>  <nARing 2>
1

>  <nAHRing 2>
1

>  <nFRing>
1

>  <nFHRing>
1

>  <nFaRing>
0

>  <nFaHRing>
0

>  <nFARing 2>
1

>  <nFAHRing 2>
1

>  <nRot>
1

>  <SLogP>
3.2

>  <SMR>
75.14

>  <TopoPSA(NO)>
33.2

>  <TopoPSA>
33.2

>  <JGI1>
0.17

>  <JGI2>
0.09

>  <JGI3>
0.05

>  <JGI4>
0.05

>  <JGI5>
0.02

>  <Diameter>
9

>  <Radius>
5

>  <TMWC10>
118.49

>  <TSRW10>
55.26

>  <MW>
288.11

>  <AMW>
8.23

>  <WPath>
860

>  <WPol>
36

>  <Zagreb1>
112

>  <Zagreb2>
134

>  <mZagreb2>
4.58

>  <yes>


>  <nAR-cont>
0.816016

>  <nHA-cont>
0.994529749

>  <MWHBN>
0.11782863

>  <MWHBN-cont>
0.819868619

>  <TPSA-cont>
0.768243384

>  <pka_cont>
0.97

>  <yes.1>


>  <BBB_SCORE>
5.061835446

>  <MMFF94 Energy>
36.526

$$$$
Compound 2105
Actelion Java MolfileCreator 2.0

  0  0  0  0  0  0              0 V3000
M  V30 BEGIN CTAB
M  V30 COUNTS 33 33 0 0 0
M  V30 BEGIN ATOM
M  V30 1 O -1.0065 0.6193 1.084 0
M  V30 2 C 0.4012 0.8475 0.9466 0 CFG=1
M  V30 3 C -1.4482 0.6461 2.4392 0
M  V30 4 C 0.9127 0.081 -0.2576 0
M  V30 5 C 0.6641 2.3429 0.7838 0
M  V30 6 C -2.9576 0.4404 2.4499 0
M  V30 7 C 0.1583 -0.0125 -1.4386 0
M  V30 8 C 2.176 -0.518 -0.2256 0
M  V30 9 C -3.5197 0.4497 3.86 0
M  V30 10 C 0.6257 -0.7073 -2.5629 0
M  V30 11 C 2.667 -1.191 -1.3453 0
M  V30 12 N -0.1505 -0.725 -3.7135 0
M  V30 13 C 1.9061 -1.2836 -2.5219 0
M  V30 14 C 2.4822 -2.0044 -3.7089 0
M  V30 15 H 0.9194 0.4756 1.8403 0
M  V30 16 H -1.1955 1.6084 2.8974 0
M  V30 17 H -0.9551 -0.1568 2.9989 0
M  V30 18 H 0.3288 2.8964 1.6668 0
M  V30 19 H 1.729 2.5492 0.6342 0
M  V30 20 H 0.1111 2.7521 -0.0695 0
M  V30 21 H -3.4394 1.2235 1.8521 0
M  V30 22 H -3.2029 -0.5082 1.9577 0
M  V30 23 H -0.8195 0.4642 -1.4739 0
M  V30 24 H 2.7929 -0.4592 0.6677 0
M  V30 25 H -4.6037 0.3001 3.8376 0
M  V30 26 H -3.0789 -0.3503 4.4633 0
M  V30 27 H -3.3189 1.4047 4.3561 0
M  V30 28 H 3.6562 -1.6403 -1.2959 0
M  V30 29 H 0.1072 -1.3111 -4.4933 0
M  V30 30 H -1.1031 -0.3889 -3.6708 0
M  V30 31 H 2.5472 -1.3298 -4.5688 0
M  V30 32 H 1.86 -2.8674 -3.9669 0
M  V30 33 H 3.4925 -2.3749 -3.5051 0
M  V30 END ATOM
M  V30 BEGIN BOND
M  V30 1 1 1 2
M  V30 2 1 1 3
M  V30 3 1 2 4
M  V30 4 1 2 5
M  V30 5 1 3 6
M  V30 6 2 4 7
M  V30 7 1 4 8
M  V30 8 1 6 9
M  V30 9 1 7 10
M  V30 10 2 8 11
M  V30 11 1 10 12
M  V30 12 2 10 13
M  V30 13 1 13 14
M  V30 14 1 11 13
M  V30 15 1 2 15
M  V30 16 1 3 16
M  V30 17 1 3 17
M  V30 18 1 5 18
M  V30 19 1 5 19
M  V30 20 1 5 20
M  V30 21 1 6 21
M  V30 22 1 6 22
M  V30 23 1 7 23
M  V30 24 1 8 24
M  V30 25 1 9 25
M  V30 26 1 9 26
M  V30 27 1 9 27
M  V30 28 1 11 28
M  V30 29 1 12 29
M  V30 30 1 12 30
M  V30 31 1 14 31
M  V30 32 1 14 32
M  V30 33 1 14 33
M  V30 END BOND
M  V30 BEGIN COLLECTION
M  V30 MDLV30/STEABS ATOMS=(1 2)
M  V30 END COLLECTION
M  V30 END CTAB
M  END
>  <Column 1>
2598

>  <level_0>
3827

>  <index>
3827

>  <Unnamed: 0>
3827

>  <NO.>
3839

>  <Name>
aminophylline

>  <IUPAC_name>
2-methyl-5-[(1r)-1-propoxyethyl]aniline

>  <SMILES>
CCCO[C@H](C)c1ccc(C)c(N)c1

>  <CID>
100009433

>  <logBB>


>  <BBB+/BBB->
BBB-

>  <Inchi>
InChI=1S/C12H19NO/c1-4-7-14-10(3)11-6-5-9(2)12(13)8-11/h5-6-8-10H-4-7-13H2-1-3H3/t10-/m1/s1

>  <threshold>
-1

>  <reference>
R16|R10|R10|

>  <group>
B

>  <Class>
-1

>  <ABC>
10.15

>  <ABCGG>
9.36

>  <nAcid>
0

>  <nBase>
0

>  <nAromAtom>
6

>  <nAromBond>
6

>  <nAtom>
33

>  <nHeavyAtom>
14

>  <nSpiro>
0

>  <nBridgehead>
0

>  <nHetero>
2

>  <nN>
1

>  <nO>
1

>  <nF>
0

>  <BalabanJ>
2.3

>  <BertzCT>
296.37

>  <nBonds>
33

>  <nBondsO>
14

>  <nBondsS>
27

>  <nBondsD>
0

>  <nBondsT>
0

>  <nBondsA>
6

>  <nBondsM>
6

>  <nBondsKS>
30

>  <nBondsKD>
3

>  <RNCG>
0.35

>  <RPCG>
0.14

>  <FCSP3>
0.5

>  <SZ>
17.67

>  <Sm>
16.09

>  <Sv>
18.62

>  <Sse>
32.43

>  <Sp>
20.73

>  <Si>
37.45

>  <MZ>
0.54

>  <Mm>
0.49

>  <Mv>
0.56

>  <Mse>
0.98

>  <Mp>
0.63

>  <Mi>
1.13

>  <NsCH3>
3

>  <NdCH2>
0

>  <NssCH2>
2

>  <NtCH>
0

>  <NdsCH>
0

>  <NaaCH>
3

>  <NsssCH>
1

>  <NddC>
0

>  <NtsC>
0

>  <NdssC>
0

>  <NaasC>
3

>  <NaaaC>
0

>  <NssssC>
0

>  <NsNH3>
0

>  <NsNH2>
1

>  <NssNH2>
0

>  <NdNH>
0

>  <NssNH>
0

>  <NaaNH>
0

>  <NtN>
0

>  <NsssNH>
0

>  <NdsN>
0

>  <NaaN>
0

>  <NsssN>
0

>  <NddsN>
0

>  <NaasN>
0

>  <NssssN>
0

>  <NsOH>
0

>  <NdO>
0

>  <NssO>
1

>  <NaaO>
0

>  <NsF>
0

>  <NsSiH3>
0

>  <NssSiH2>
0

>  <NsssSiH>
0

>  <NssssSi>
0

>  <NsPH2>
0

>  <NssPH>
0

>  <NsssP>
0

>  <NdsssP>
0

>  <NsssssP>
0

>  <NsSH>
0

>  <NdS>
0

>  <NssS>
0

>  <NaaS>
0

>  <NdssS>
0

>  <NddssS>
0

>  <NsCl>
0

>  <NsBr>
0

>  <NsI>
0

>  <fragCpx>
14.02

>  <fMF>
0.18

>  <nHBAcc>
2

>  <nHBDon>
1

>  <Kier1>
12.07

>  <Kier2>
5.78

>  <Lipinski>
1

>  <GhoseFilter>
1

>  <FilterItLogS>
-3.35

>  <VMcGowan>
172.03

>  <LabuteASA>
86.07

>  <PEOE_VSA1>
10.47

>  <PEOE_VSA2>
0

>  <PEOE_VSA3>
0

>  <PEOE_VSA4>
0

>  <PEOE_VSA5>
0

>  <PEOE_VSA6>
19.06

>  <PEOE_VSA7>
37.46

>  <PEOE_VSA8>
12.29

>  <PEOE_VSA9>
6.1

>  <PEOE_VSA10>
0

>  <PEOE_VSA11>
0

>  <PEOE_VSA12>
0

>  <PEOE_VSA13>
0

>  <SMR_VSA1>
4.74

>  <SMR_VSA2>
0

>  <SMR_VSA3>
0

>  <SMR_VSA4>
0

>  <SMR_VSA5>
33.3

>  <SMR_VSA6>
12.34

>  <SMR_VSA7>
29.33

>  <SMR_VSA8>
0

>  <SMR_VSA9>
0

>  <SlogP_VSA1>
5.73

>  <SlogP_VSA2>
6.61

>  <SlogP_VSA3>
4.74

>  <SlogP_VSA4>
6.92

>  <SlogP_VSA5>
37.5

>  <SlogP_VSA6>
18.2

>  <SlogP_VSA7>
0

>  <SlogP_VSA8>
0

>  <SlogP_VSA9>
0

>  <SlogP_VSA10>
5.69

>  <SlogP_VSA11>
0

>  <EState_VSA1>
0

>  <EState_VSA2>
6.1

>  <EState_VSA3>
0

>  <EState_VSA4>
29.84

>  <EState_VSA5>
0

>  <EState_VSA6>
0

>  <EState_VSA7>
19.06

>  <EState_VSA8>
19.91

>  <EState_VSA9>
10.47

>  <EState_VSA10>
0

>  <VSA_EState1>
5.62

>  <VSA_EState2>
0

>  <VSA_EState3>
0

>  <VSA_EState4>
8.95

>  <VSA_EState5>
0

>  <VSA_EState6>
6.11

>  <VSA_EState7>
1.18

>  <VSA_EState8>
6.97

>  <VSA_EState9>
0

>  <apol>
34.61

>  <bpol>
20.23

>  <nRing>
1

>  <nHRing>
0

>  <naRing>
1

>  <naHRing>
0

>  <nARing 2>
0

>  <nAHRing 2>
0

>  <nFRing>
0

>  <nFHRing>
0

>  <nFaRing>
0

>  <nFaHRing>
0

>  <nFARing 2>
0

>  <nFAHRing 2>
0

>  <nRot>
4

>  <SLogP>
3.06

>  <SMR>
60.25

>  <TopoPSA(NO)>
35.25

>  <TopoPSA>
35.25

>  <JGI1>
0.21

>  <JGI2>
0.11

>  <JGI3>
0.05

>  <JGI4>
0.06

>  <JGI5>
0.03

>  <Diameter>
9

>  <Radius>
5

>  <TMWC10>
94.98

>  <TSRW10>
44.87

>  <MW>
193.15

>  <AMW>
5.85

>  <WPath>
327

>  <WPol>
18

>  <Zagreb1>
64

>  <Zagreb2>
71

>  <mZagreb2>
3.31

>  <yes>


>  <nAR-cont>
0.336376

>  <nHA-cont>
0.887625254

>  <MWHBN>
0.215860858

>  <MWHBN-cont>
0.997241967

>  <TPSA-cont>
0.753933111

>  <pka_cont>
0.97

>  <yes.1>


>  <BBB_SCORE>
4.712730426

>  <MMFF94 Energy>
23.819

$$$$
Compound 2106
Actelion Java MolfileCreator 2.0

  0  0  0  0  0  0              0 V3000
M  V30 BEGIN CTAB
M  V30 COUNTS 56 57 0 0 0
M  V30 BEGIN ATOM
M  V30 1 S -2.7786 0.0 -2.1429 0
M  V30 2 C -3.3976 -1.6522 -1.6791 0
M  V30 3 C -3.0604 0.8571 -0.5624 0
M  V30 4 C -3.4063 -2.5813 -2.8668 0
M  V30 5 C -2.222 0.2449 0.5439 0
M  V30 6 C -2.3019 -3.3968 -3.142 0
M  V30 7 C -4.5095 -2.6284 -3.7303 0
M  V30 8 O -2.7208 -0.4068 1.4572 0
M  V30 9 N -0.8694 0.4812 0.4268 0
M  V30 10 C -2.3117 -4.2492 -4.2488 0
M  V30 11 C -4.5157 -3.483 -4.8388 0
M  V30 12 C 0.0785 -0.0448 1.3857 0
M  V30 13 C -3.416 -4.2989 -5.1018 0
M  V30 14 C 1.4432 0.615 1.2399 0
M  V30 15 O -3.2937 -5.1749 -6.145 0
M  V30 16 C 2.4373 0.0514 2.2559 0
M  V30 17 C -4.388 -5.252 -7.0494 0
M  V30 18 C 3.7886 0.7221 2.1456 0
M  V30 19 C 4.043 1.9627 2.7614 0
M  V30 20 C 4.7991 0.1073 1.3886 0
M  V30 21 O 3.001 2.4982 3.4715 0
M  V30 22 C 5.3019 2.5551 2.6229 0
M  V30 23 C 6.0491 0.708 1.2545 0
M  V30 24 C 3.1718 3.803 4.0207 0
M  V30 25 C 6.3001 1.9291 1.8723 0
M  V30 26 C 1.8716 4.221 4.705 0
M  V30 27 C 0.7073 4.3207 3.7293 0
M  V30 28 H -4.4124 -1.5628 -1.2757 0
M  V30 29 H -2.7677 -2.0764 -0.89 0
M  V30 30 H -4.12 0.812 -0.2932 0
M  V30 31 H -2.7866 1.9107 -0.6769 0
M  V30 32 H -1.4249 -3.3727 -2.4994 0
M  V30 33 H -5.3736 -1.9929 -3.5476 0
M  V30 34 H -0.5274 0.9021 -0.4301 0
M  V30 35 H -1.4484 -4.8783 -4.4503 0
M  V30 36 H -5.3933 -3.4824 -5.476 0
M  V30 37 H 0.1483 -1.1251 1.2165 0
M  V30 38 H -0.3224 0.1105 2.3939 0
M  V30 39 H 1.3383 1.7 1.3655 0
M  V30 40 H 1.8217 0.4614 0.221 0
M  V30 41 H 2.0519 0.1629 3.2771 0
M  V30 42 H 2.5511 -1.0294 2.1032 0
M  V30 43 H -5.2946 -5.6003 -6.5436 0
M  V30 44 H -4.1339 -5.9865 -7.8195 0
M  V30 45 H -4.5568 -4.2918 -7.5481 0
M  V30 46 H 4.615 -0.8462 0.8989 0
M  V30 47 H 5.5417 3.5045 3.0893 0
M  V30 48 H 6.8258 0.2231 0.6694 0
M  V30 49 H 3.4159 4.5229 3.2302 0
M  V30 50 H 3.9716 3.789 4.7704 0
M  V30 51 H 7.2757 2.3975 1.7707 0
M  V30 52 H 1.6129 3.4889 5.4789 0
M  V30 53 H 2.0156 5.1895 5.1965 0
M  V30 54 H -0.1936 4.6586 4.251 0
M  V30 55 H 0.9258 5.0365 2.9307 0
M  V30 56 H 0.4862 3.3514 3.272 0
M  V30 END ATOM
M  V30 BEGIN BOND
M  V30 1 1 1 2
M  V30 2 1 1 3
M  V30 3 1 2 4
M  V30 4 1 3 5
M  V30 5 2 4 6
M  V30 6 1 4 7
M  V30 7 2 5 8
M  V30 8 1 5 9
M  V30 9 1 6 10
M  V30 10 2 7 11
M  V30 11 1 9 12
M  V30 12 2 10 13
M  V30 13 1 12 14
M  V30 14 1 13 15
M  V30 15 1 14 16
M  V30 16 1 15 17
M  V30 17 1 16 18
M  V30 18 2 18 19
M  V30 19 1 18 20
M  V30 20 1 19 21
M  V30 21 1 19 22
M  V30 22 2 20 23
M  V30 23 1 21 24
M  V30 24 2 22 25
M  V30 25 1 24 26
M  V30 26 1 26 27
M  V30 27 1 11 13
M  V30 28 1 23 25
M  V30 29 1 2 28
M  V30 30 1 2 29
M  V30 31 1 3 30
M  V30 32 1 3 31
M  V30 33 1 6 32
M  V30 34 1 7 33
M  V30 35 1 9 34
M  V30 36 1 10 35
M  V30 37 1 11 36
M  V30 38 1 12 37
M  V30 39 1 12 38
M  V30 40 1 14 39
M  V30 41 1 14 40
M  V30 42 1 16 41
M  V30 43 1 16 42
M  V30 44 1 17 43
M  V30 45 1 17 44
M  V30 46 1 17 45
M  V30 47 1 20 46
M  V30 48 1 22 47
M  V30 49 1 23 48
M  V30 50 1 24 49
M  V30 51 1 24 50
M  V30 52 1 25 51
M  V30 53 1 26 52
M  V30 54 1 26 53
M  V30 55 1 27 54
M  V30 56 1 27 55
M  V30 57 1 27 56
M  V30 END BOND
M  V30 END CTAB
M  END
>  <Column 1>
2599

>  <level_0>
3828

>  <index>
3828

>  <Unnamed: 0>
3828

>  <NO.>
3840

>  <Name>
norethindrone

>  <IUPAC_name>
2-[(4-methoxyphenyl)methylsulfanyl]-n-[3-(2-propoxyphenyl)propyl]acetamide

>  <SMILES>
CCCOc1ccccc1CCCNC(=O)CSCc1ccc(OC)cc1

>  <CID>
100004536

>  <logBB>


>  <BBB+/BBB->
BBB-

>  <Inchi>
InChI=1S/C22H29NO3S/c1-3-15-26-21-9-5-4-7-19(21)8-6-14-23-22(24)17-27-16-18-10-12-20(25-2)13-11-18/h4-5-7-9-13H-3-6-8-14-17H2-1-2H3-(H-23-24)

>  <threshold>
-1

>  <reference>
R16|R10|R10|

>  <group>
B

>  <Class>
1

>  <ABC>
19.87

>  <ABCGG>
14.96

>  <nAcid>
0

>  <nBase>
0

>  <nAromAtom>
12

>  <nAromBond>
12

>  <nAtom>
56

>  <nHeavyAtom>
27

>  <nSpiro>
0

>  <nBridgehead>
0

>  <nHetero>
5

>  <nN>
1

>  <nO>
3

>  <nF>
0

>  <BalabanJ>
1.48

>  <BertzCT>
688.21

>  <nBonds>
57

>  <nBondsO>
28

>  <nBondsS>
44

>  <nBondsD>
1

>  <nBondsT>
0

>  <nBondsA>
12

>  <nBondsM>
13

>  <nBondsKS>
50

>  <nBondsKD>
7

>  <RNCG>
0.22

>  <RPCG>
0.1

>  <FCSP3>
0.41

>  <SZ>
34.67

>  <Sm>
32.27

>  <Sv>
33.95

>  <Sse>
55.61

>  <Sp>
37.41

>  <Si>
62.86

>  <MZ>
0.62

>  <Mm>
0.58

>  <Mv>
0.61

>  <Mse>
0.99

>  <Mp>
0.67

>  <Mi>
1.12

>  <NsCH3>
2

>  <NdCH2>
0

>  <NssCH2>
7

>  <NtCH>
0

>  <NdsCH>
0

>  <NaaCH>
8

>  <NsssCH>
0

>  <NddC>
0

>  <NtsC>
0

>  <NdssC>
1

>  <NaasC>
4

>  <NaaaC>
0

>  <NssssC>
0

>  <NsNH3>
0

>  <NsNH2>
0

>  <NssNH2>
0

>  <NdNH>
0

>  <NssNH>
1

>  <NaaNH>
0

>  <NtN>
0

>  <NsssNH>
0

>  <NdsN>
0

>  <NaaN>
0

>  <NsssN>
0

>  <NddsN>
0

>  <NaasN>
0

>  <NssssN>
0

>  <NsOH>
0

>  <NdO>
1

>  <NssO>
2

>  <NaaO>
0

>  <NsF>
0

>  <NsSiH3>
0

>  <NssSiH2>
0

>  <NsssSiH>
0

>  <NssssSi>
0

>  <NsPH2>
0

>  <NssPH>
0

>  <NsssP>
0

>  <NdsssP>
0

>  <NsssssP>
0

>  <NsSH>
0

>  <NdS>
0

>  <NssS>
1

>  <NaaS>
0

>  <NdssS>
0

>  <NddssS>
0

>  <NsCl>
0

>  <NsBr>
0

>  <NsI>
0

>  <fragCpx>
82.05

>  <fMF>
0.36

>  <nHBAcc>
4

>  <nHBDon>
1

>  <Kier1>
23.28

>  <Kier2>
14.06

>  <Lipinski>
1

>  <GhoseFilter>
1

>  <FilterItLogS>
-6.84

>  <VMcGowan>
312.96

>  <LabuteASA>
166.2

>  <PEOE_VSA1>
14.79

>  <PEOE_VSA2>
4.79

>  <PEOE_VSA3>
0

>  <PEOE_VSA4>
0

>  <PEOE_VSA5>
11.76

>  <PEOE_VSA6>
37.26

>  <PEOE_VSA7>
48.59

>  <PEOE_VSA8>
12.3

>  <PEOE_VSA9>
19.47

>  <PEOE_VSA10>
11.5

>  <PEOE_VSA11>
0

>  <PEOE_VSA12>
5.91

>  <PEOE_VSA13>
0

>  <SMR_VSA1>
14.27

>  <SMR_VSA2>
0

>  <SMR_VSA3>
5.32

>  <SMR_VSA4>
0

>  <SMR_VSA5>
31.94

>  <SMR_VSA6>
26.01

>  <SMR_VSA7>
59.66

>  <SMR_VSA8>
0

>  <SMR_VSA9>
11.5

>  <SlogP_VSA1>
14.79

>  <SlogP_VSA2>
31.92

>  <SlogP_VSA3>
16.97

>  <SlogP_VSA4>
0

>  <SlogP_VSA5>
30.89

>  <SlogP_VSA6>
48.53

>  <SlogP_VSA7>
0

>  <SlogP_VSA8>
0

>  <SlogP_VSA9>
0

>  <SlogP_VSA10>
0

>  <SlogP_VSA11>
11.5

>  <EState_VSA1>
0

>  <EState_VSA2>
5.91

>  <EState_VSA3>
12.3

>  <EState_VSA4>
43.12

>  <EState_VSA5>
11.13

>  <EState_VSA6>
18.87

>  <EState_VSA7>
42.46

>  <EState_VSA8>
18.31

>  <EState_VSA9>
9.47

>  <EState_VSA10>
4.79

>  <VSA_EState1>
10.92

>  <VSA_EState2>
11.98

>  <VSA_EState3>
3

>  <VSA_EState4>
2.39

>  <VSA_EState5>
3.19

>  <VSA_EState6>
16.08

>  <VSA_EState7>
2.8

>  <VSA_EState8>
3.52

>  <VSA_EState9>
1.66

>  <apol>
62.48

>  <bpol>
36.46

>  <nRing>
2

>  <nHRing>
0

>  <naRing>
2

>  <naHRing>
0

>  <nARing 2>
0

>  <nAHRing 2>
0

>  <nFRing>
0

>  <nFHRing>
0

>  <nFaRing>
0

>  <nFaHRing>
0

>  <nFARing 2>
0

>  <nFAHRing 2>
0

>  <nRot>
12

>  <SLogP>
4.47

>  <SMR>
112.71

>  <TopoPSA(NO)>
47.56

>  <TopoPSA>
72.86

>  <JGI1>
0.14

>  <JGI2>
0.07

>  <JGI3>
0.03

>  <JGI4>
0.03

>  <JGI5>
0.02

>  <Diameter>
19

>  <Radius>
10

>  <TMWC10>
127.23

>  <TSRW10>
60.85

>  <MW>
387.19

>  <AMW>
6.91

>  <WPath>
2506

>  <WPol>
34

>  <Zagreb1>
124

>  <Zagreb2>
136

>  <mZagreb2>
6.44

>  <yes>


>  <nAR-cont>
0.336376

>  <nHA-cont>
0.860070871

>  <MWHBN>
0.254101915

>  <MWHBN-cont>
0.952616503

>  <TPSA-cont>
0.491391957

>  <pka_cont>
0.97

>  <yes.1>


>  <BBB_SCORE>
4.093155539

>  <MMFF94 Energy>
48.411

$$$$
Compound 2107
Actelion Java MolfileCreator 2.0

  0  0  0  0  0  0              0 V3000
M  V30 BEGIN CTAB
M  V30 COUNTS 47 48 0 0 0
M  V30 BEGIN ATOM
M  V30 1 Cl 5.3602 0.0798 0.3992 0
M  V30 2 C 4.6322 0.6721 1.852 0
M  V30 3 C 3.326 0.3509 2.2549 0
M  V30 4 C 5.4392 1.4903 2.6566 0
M  V30 5 C 2.3696 -0.5026 1.4916 0
M  V30 6 C 2.8532 0.8478 3.4862 0
M  V30 7 C 4.9453 1.9833 3.8712 0
M  V30 8 O 1.5189 -1.1404 2.1036 0
M  V30 9 N 2.4523 -0.4843 0.1195 0
M  V30 10 C 3.6523 1.6625 4.2929 0
M  V30 11 N 5.7948 2.8395 4.709 0 CHG=1
M  V30 12 C 1.5605 -1.2527 -0.7277 0
M  V30 13 O 5.322 3.2503 5.7775 0
M  V30 14 O 6.9316 3.1018 4.2933 0 CHG=-1
M  V30 15 C 0.4716 -0.3875 -1.3562 0
M  V30 16 C -0.5726 0.0776 -0.3372 0
M  V30 17 C -1.6732 0.8827 -0.9962 0
M  V30 18 C -2.756 0.2568 -1.6434 0
M  V30 19 C -1.597 2.2856 -0.9788 0
M  V30 20 O -2.7471 -1.1132 -1.6301 0
M  V30 21 C -3.7424 1.0419 -2.2495 0
M  V30 22 C -2.5856 3.0577 -1.5853 0
M  V30 23 C -3.8554 -1.7902 -2.2205 0
M  V30 24 C -3.6572 2.4363 -2.2188 0
M  V30 25 C -3.6303 -3.289 -2.0446 0
M  V30 26 C -4.761 -4.1051 -2.6446 0
M  V30 27 H 6.4515 1.7297 2.3332 0
M  V30 28 H 1.8454 0.5983 3.8221 0
M  V30 29 H 3.1841 0.0503 -0.3325 0
M  V30 30 H 3.2522 2.0299 5.2368 0
M  V30 31 H 1.123 -2.0843 -0.1649 0
M  V30 32 H 2.1848 -1.6797 -1.5201 0
M  V30 33 H -0.0188 -0.9731 -2.1436 0
M  V30 34 H 0.9249 0.4823 -1.8488 0
M  V30 35 H -1.0077 -0.7805 0.1899 0
M  V30 36 H -0.0981 0.6902 0.4391 0
M  V30 37 H -0.7631 2.7824 -0.4882 0
M  V30 38 H -4.5923 0.6002 -2.7583 0
M  V30 39 H -2.5195 4.1423 -1.5634 0
M  V30 40 H -3.9137 -1.5538 -3.2897 0
M  V30 41 H -4.7865 -1.4997 -1.719 0
M  V30 42 H -4.4295 3.0368 -2.6927 0
M  V30 43 H -2.6782 -3.5743 -2.5082 0
M  V30 44 H -3.5279 -3.5224 -0.9779 0
M  V30 45 H -4.5735 -5.1741 -2.5041 0
M  V30 46 H -5.716 -3.8622 -2.1677 0
M  V30 47 H -4.855 -3.9149 -3.7186 0
M  V30 END ATOM
M  V30 BEGIN BOND
M  V30 1 1 1 2
M  V30 2 2 2 3
M  V30 3 1 2 4
M  V30 4 1 3 5
M  V30 5 1 3 6
M  V30 6 2 4 7
M  V30 7 2 5 8
M  V30 8 1 5 9
M  V30 9 2 6 10
M  V30 10 1 7 11
M  V30 11 1 9 12
M  V30 12 2 11 13
M  V30 13 1 11 14
M  V30 14 1 12 15
M  V30 15 1 15 16
M  V30 16 1 16 17
M  V30 17 2 17 18
M  V30 18 1 17 19
M  V30 19 1 18 20
M  V30 20 1 18 21
M  V30 21 2 19 22
M  V30 22 1 20 23
M  V30 23 2 21 24
M  V30 24 1 23 25
M  V30 25 1 25 26
M  V30 26 1 7 10
M  V30 27 1 22 24
M  V30 28 1 4 27
M  V30 29 1 6 28
M  V30 30 1 9 29
M  V30 31 1 10 30
M  V30 32 1 12 31
M  V30 33 1 12 32
M  V30 34 1 15 33
M  V30 35 1 15 34
M  V30 36 1 16 35
M  V30 37 1 16 36
M  V30 38 1 19 37
M  V30 39 1 21 38
M  V30 40 1 22 39
M  V30 41 1 23 40
M  V30 42 1 23 41
M  V30 43 1 24 42
M  V30 44 1 25 43
M  V30 45 1 25 44
M  V30 46 1 26 45
M  V30 47 1 26 46
M  V30 48 1 26 47
M  V30 END BOND
M  V30 END CTAB
M  END
>  <Column 1>
2600

>  <level_0>
3829

>  <index>
3829

>  <Unnamed: 0>
3829

>  <NO.>
3841

>  <Name>
pentazocine

>  <IUPAC_name>
2-chloro-4-nitro-n-[3-(2-propoxyphenyl)propyl]benzamide

>  <SMILES>
CCCOc1ccccc1CCCNC(=O)c1ccc([N+](=O)[O-])cc1Cl

>  <CID>
100004736

>  <logBB>


>  <BBB+/BBB->
BBB+

>  <Inchi>
InChI=1S/C19H21ClN2O4/c1-2-12-26-18-8-4-3-6-14(18)7-5-11-21-19(23)16-10-9-15(22(24)25)13-17(16)20/h3-4-6-8-10-13H-2-5-7-11-12H2-1H3-(H-21-23)

>  <threshold>
-1

>  <reference>
R16|R10|

>  <group>
B

>  <Class>
1

>  <ABC>
19.37

>  <ABCGG>
15.44

>  <nAcid>
0

>  <nBase>
0

>  <nAromAtom>
12

>  <nAromBond>
12

>  <nAtom>
47

>  <nHeavyAtom>
26

>  <nSpiro>
0

>  <nBridgehead>
0

>  <nHetero>
7

>  <nN>
2

>  <nO>
4

>  <nF>
0

>  <BalabanJ>
1.65

>  <BertzCT>
779.88

>  <nBonds>
48

>  <nBondsO>
27

>  <nBondsS>
34

>  <nBondsD>
2

>  <nBondsT>
0

>  <nBondsA>
12

>  <nBondsM>
14

>  <nBondsKS>
40

>  <nBondsKD>
8

>  <RNCG>
0.24

>  <RPCG>
0.13

>  <FCSP3>
0.32

>  <SZ>
33

>  <Sm>
31.37

>  <Sv>
30.16

>  <Sse>
47.74

>  <Sp>
31.93

>  <Si>
52.93

>  <MZ>
0.7

>  <Mm>
0.67

>  <Mv>
0.64

>  <Mse>
1.02

>  <Mp>
0.68

>  <Mi>
1.13

>  <NsCH3>
1

>  <NdCH2>
0

>  <NssCH2>
5

>  <NtCH>
0

>  <NdsCH>
0

>  <NaaCH>
7

>  <NsssCH>
0

>  <NddC>
0

>  <NtsC>
0

>  <NdssC>
1

>  <NaasC>
5

>  <NaaaC>
0

>  <NssssC>
0

>  <NsNH3>
0

>  <NsNH2>
0

>  <NssNH2>
0

>  <NdNH>
0

>  <NssNH>
1

>  <NaaNH>
0

>  <NtN>
0

>  <NsssNH>
0

>  <NdsN>
0

>  <NaaN>
0

>  <NsssN>
0

>  <NddsN>
1

>  <NaasN>
0

>  <NssssN>
0

>  <NsOH>
0

>  <NdO>
2

>  <NssO>
1

>  <NaaO>
0

>  <NsF>
0

>  <NsSiH3>
0

>  <NssSiH2>
0

>  <NsssSiH>
0

>  <NssssSi>
0

>  <NsPH2>
0

>  <NssPH>
0

>  <NsssP>
0

>  <NdsssP>
0

>  <NsssssP>
0

>  <NsSH>
0

>  <NdS>
0

>  <NssS>
0

>  <NaaS>
0

>  <NdssS>
0

>  <NddssS>
0

>  <NsCl>
1

>  <NsBr>
0

>  <NsI>
0

>  <fragCpx>
79.07

>  <fMF>
0.36

>  <nHBAcc>
4

>  <nHBDon>
1

>  <Kier1>
22.29

>  <Kier2>
11.76

>  <Lipinski>
1

>  <GhoseFilter>
1

>  <FilterItLogS>
-6.57

>  <VMcGowan>
278.13

>  <LabuteASA>
156.82

>  <PEOE_VSA1>
10.05

>  <PEOE_VSA2>
14.91

>  <PEOE_VSA3>
0

>  <PEOE_VSA4>
0

>  <PEOE_VSA5>
0

>  <PEOE_VSA6>
36.72

>  <PEOE_VSA7>
36.96

>  <PEOE_VSA8>
18.68

>  <PEOE_VSA9>
22.12

>  <PEOE_VSA10>
5.75

>  <PEOE_VSA11>
0

>  <PEOE_VSA12>
0

>  <PEOE_VSA13>
11.59

>  <SMR_VSA1>
14.45

>  <SMR_VSA2>
0

>  <SMR_VSA3>
5.32

>  <SMR_VSA4>
0

>  <SMR_VSA5>
26.19

>  <SMR_VSA6>
13.15

>  <SMR_VSA7>
68.73

>  <SMR_VSA8>
0

>  <SMR_VSA9>
5.75

>  <SlogP_VSA1>
10.05

>  <SlogP_VSA2>
23.98

>  <SlogP_VSA3>
6.42

>  <SlogP_VSA4>
10.11

>  <SlogP_VSA5>
35.69

>  <SlogP_VSA6>
42.46

>  <SlogP_VSA7>
5.02

>  <SlogP_VSA8>
0

>  <SlogP_VSA9>
0

>  <SlogP_VSA10>
5.69

>  <SlogP_VSA11>
5.75

>  <EState_VSA1>
4.92

>  <EState_VSA2>
22.18

>  <EState_VSA3>
13.15

>  <EState_VSA4>
30.58

>  <EState_VSA5>
18.2

>  <EState_VSA6>
0

>  <EState_VSA7>
24.27

>  <EState_VSA8>
12.24

>  <EState_VSA9>
16.34

>  <EState_VSA10>
14.91

>  <VSA_EState1>
5.72

>  <VSA_EState2>
22.34

>  <VSA_EState3>
13.56

>  <VSA_EState4>
1.18

>  <VSA_EState5>
0.53

>  <VSA_EState6>
11.67

>  <VSA_EState7>
2.46

>  <VSA_EState8>
3.2

>  <VSA_EState9>
0

>  <apol>
53.32

>  <bpol>
25.92

>  <nRing>
2

>  <nHRing>
0

>  <naRing>
2

>  <naHRing>
0

>  <nARing 2>
0

>  <nAHRing 2>
0

>  <nFRing>
0

>  <nFHRing>
0

>  <nFaRing>
0

>  <nFaHRing>
0

>  <nFARing 2>
0

>  <nFAHRing 2>
0

>  <nRot>
9

>  <SLogP>
4.4

>  <SMR>
100.99

>  <TopoPSA(NO)>
81.47

>  <TopoPSA>
81.47

>  <JGI1>
0.17

>  <JGI2>
0.09

>  <JGI3>
0.05

>  <JGI4>
0.04

>  <JGI5>
0.02

>  <Diameter>
16

>  <Radius>
8

>  <TMWC10>
126.4

>  <TSRW10>
60.2

>  <MW>
376.12

>  <AMW>
8

>  <WPath>
2033

>  <WPol>
37

>  <Zagreb1>
124

>  <Zagreb2>
140

>  <mZagreb2>
6.03

>  <yes>


>  <nAR-cont>
0.336376

>  <nHA-cont>
0.892715677

>  <MWHBN>
0.257814174

>  <MWHBN-cont>
0.945689572

>  <TPSA-cont>
0.43128881

>  <pka_cont>
0.97

>  <yes.1>


>  <BBB_SCORE>
3.995203656

>  <MMFF94 Energy>
52.169

$$$$
Compound 2108
Actelion Java MolfileCreator 2.0

  0  0  0  0  0  0              0 V3000
M  V30 BEGIN CTAB
M  V30 COUNTS 37 38 0 0 0
M  V30 BEGIN ATOM
M  V30 1 Br -1.1223 5.2996 -0.4809 0
M  V30 2 C -1.3244 3.4719 -0.0457 0
M  V30 3 C -0.8719 3.0011 1.1816 0
M  V30 4 C -1.9177 2.6037 -0.9603 0
M  V30 5 C -1.0217 1.6517 1.4858 0
M  V30 6 C -2.0642 1.2497 -0.6429 0
M  V30 7 F -0.5467 1.2036 2.6575 0
M  V30 8 C -1.6212 0.7524 0.5934 0
M  V30 9 C -1.7215 -0.7199 0.979 0 CFG=1
M  V30 10 N -2.8889 -1.3818 0.3419 0
M  V30 11 C -0.3831 -1.4566 0.7121 0
M  V30 12 N -3.4267 -2.4474 1.1573 0
M  V30 13 C -0.0321 -1.5357 -0.739 0
M  V30 14 N -0.6587 -2.2634 -1.6438 0
M  V30 15 N 0.9856 -0.8517 -1.3533 0
M  V30 16 C 0.0241 -1.9994 -2.7942 0
M  V30 17 N 1.0352 -1.1408 -2.6675 0
M  V30 18 C 1.94 0.0805 -0.7898 0
M  V30 19 C 3.1857 -0.6235 -0.2608 0
M  V30 20 C 4.1699 0.3684 0.3365 0
M  V30 21 H -0.4029 3.6616 1.9036 0
M  V30 22 H -2.2717 2.9664 -1.9227 0
M  V30 23 H -2.5282 0.5882 -1.373 0
M  V30 24 H -1.894 -0.7334 2.0652 0
M  V30 25 H -2.5976 -1.7367 -0.5825 0
M  V30 26 H -0.452 -2.4821 1.0975 0
M  V30 27 H 0.4237 -0.9821 1.2822 0
M  V30 28 H -2.7451 -3.1745 1.3829 0
M  V30 29 H -3.8212 -2.1012 2.0352 0
M  V30 30 H -0.2239 -2.4438 -3.7496 0
M  V30 31 H 2.203 0.798 -1.5763 0
M  V30 32 H 1.4386 0.6427 0.003 0
M  V30 33 H 2.9079 -1.3605 0.5021 0
M  V30 34 H 3.6756 -1.1779 -1.0702 0
M  V30 35 H 5.0562 -0.1544 0.7095 0
M  V30 36 H 4.4953 1.0975 -0.4123 0
M  V30 37 H 3.7192 0.9123 1.173 0
M  V30 END ATOM
M  V30 BEGIN BOND
M  V30 1 1 1 2
M  V30 2 2 2 3
M  V30 3 1 2 4
M  V30 4 1 3 5
M  V30 5 2 4 6
M  V30 6 1 5 7
M  V30 7 2 5 8
M  V30 8 1 8 9
M  V30 9 1 9 10
M  V30 10 1 9 11
M  V30 11 1 10 12
M  V30 12 1 11 13
M  V30 13 2 13 14
M  V30 14 1 13 15
M  V30 15 1 14 16
M  V30 16 1 15 17
M  V30 17 1 15 18
M  V30 18 1 18 19
M  V30 19 1 19 20
M  V30 20 1 6 8
M  V30 21 2 16 17
M  V30 22 1 3 21
M  V30 23 1 4 22
M  V30 24 1 6 23
M  V30 25 1 9 24
M  V30 26 1 10 25
M  V30 27 1 11 26
M  V30 28 1 11 27
M  V30 29 1 12 28
M  V30 30 1 12 29
M  V30 31 1 16 30
M  V30 32 1 18 31
M  V30 33 1 18 32
M  V30 34 1 19 33
M  V30 35 1 19 34
M  V30 36 1 20 35
M  V30 37 1 20 36
M  V30 38 1 20 37
M  V30 END BOND
M  V30 BEGIN COLLECTION
M  V30 MDLV30/STERAC1 ATOMS=(1 9)
M  V30 END COLLECTION
M  V30 END CTAB
M  END
>  <Column 1>
2601

>  <level_0>
3830

>  <index>
3830

>  <Unnamed: 0>
3830

>  <NO.>
3842

>  <Name>
dacarbazine

>  <IUPAC_name>
[1-(4-bromo-2-fluorophenyl)-2-(2-propyl-1-2-4-triazol-3-yl)ethyl]hydrazine

>  <SMILES>
CCCn1ncnc1CC(NN)c1ccc(Br)cc1F

>  <CID>
105281007

>  <logBB>


>  <BBB+/BBB->
BBB+

>  <Inchi>
InChI=1S/C13H17BrFN5/c1-2-5-20-13(17-8-18-20)7-12(19-16)10-4-3-9(14)6-11(10)15/h3-4-6-8-12-19H-2-5-7-16H2-1H3

>  <threshold>
-1

>  <reference>
R16|R10|

>  <group>
B

>  <Class>
-1

>  <ABC>
14.95

>  <ABCGG>
13.62

>  <nAcid>
0

>  <nBase>
0

>  <nAromAtom>
11

>  <nAromBond>
11

>  <nAtom>
37

>  <nHeavyAtom>
20

>  <nSpiro>
0

>  <nBridgehead>
0

>  <nHetero>
7

>  <nN>
5

>  <nO>
0

>  <nF>
1

>  <BalabanJ>
1.91

>  <BertzCT>
571.64

>  <nBonds>
38

>  <nBondsO>
21

>  <nBondsS>
27

>  <nBondsD>
0

>  <nBondsT>
0

>  <nBondsA>
11

>  <nBondsM>
11

>  <nBondsKS>
33

>  <nBondsKD>
5

>  <RNCG>
0.17

>  <RPCG>
0.09

>  <FCSP3>
0.38

>  <SZ>
29

>  <Sm>
28.49

>  <Sv>
23.33

>  <Sse>
37.49

>  <Sp>
25.24

>  <Si>
42.58

>  <MZ>
0.78

>  <Mm>
0.77

>  <Mv>
0.63

>  <Mse>
1.01

>  <Mp>
0.68

>  <Mi>
1.15

>  <NsCH3>
1

>  <NdCH2>
0

>  <NssCH2>
3

>  <NtCH>
0

>  <NdsCH>
0

>  <NaaCH>
4

>  <NsssCH>
1

>  <NddC>
0

>  <NtsC>
0

>  <NdssC>
0

>  <NaasC>
4

>  <NaaaC>
0

>  <NssssC>
0

>  <NsNH3>
0

>  <NsNH2>
1

>  <NssNH2>
0

>  <NdNH>
0

>  <NssNH>
1

>  <NaaNH>
0

>  <NtN>
0

>  <NsssNH>
0

>  <NdsN>
0

>  <NaaN>
2

>  <NsssN>
0

>  <NddsN>
0

>  <NaasN>
1

>  <NssssN>
0

>  <NsOH>
0

>  <NdO>
0

>  <NssO>
0

>  <NaaO>
0

>  <NsF>
1

>  <NsSiH3>
0

>  <NssSiH2>
0

>  <NsssSiH>
0

>  <NssssSi>
0

>  <NsPH2>
0

>  <NssPH>
0

>  <NsssP>
0

>  <NdsssP>
0

>  <NsssssP>
0

>  <NsSH>
0

>  <NdS>
0

>  <NssS>
0

>  <NaaS>
0

>  <NdssS>
0

>  <NddssS>
0

>  <NsCl>
0

>  <NsBr>
1

>  <NsI>
0

>  <fragCpx>
61.07

>  <fMF>
0.35

>  <nHBAcc>
5

>  <nHBDon>
2

>  <Kier1>
16.37

>  <Kier2>
7.85

>  <Lipinski>
1

>  <GhoseFilter>
1

>  <FilterItLogS>
-4.39

>  <VMcGowan>
219.97

>  <LabuteASA>
125.03

>  <PEOE_VSA1>
0

>  <PEOE_VSA2>
15.95

>  <PEOE_VSA3>
9.37

>  <PEOE_VSA4>
5.1

>  <PEOE_VSA5>
0

>  <PEOE_VSA6>
28.92

>  <PEOE_VSA7>
18.55

>  <PEOE_VSA8>
23

>  <PEOE_VSA9>
6.04

>  <PEOE_VSA10>
17.97

>  <PEOE_VSA11>
0

>  <PEOE_VSA12>
0

>  <PEOE_VSA13>
0

>  <SMR_VSA1>
4.39

>  <SMR_VSA2>
0

>  <SMR_VSA3>
20.19

>  <SMR_VSA4>
5.84

>  <SMR_VSA5>
32.35

>  <SMR_VSA6>
0

>  <SMR_VSA7>
46.2

>  <SMR_VSA8>
0

>  <SMR_VSA9>
0

>  <SlogP_VSA1>
11.27

>  <SlogP_VSA2>
14.76

>  <SlogP_VSA3>
12.97

>  <SlogP_VSA4>
5.82

>  <SlogP_VSA5>
30.77

>  <SlogP_VSA6>
29

>  <SlogP_VSA7>
0

>  <SlogP_VSA8>
0

>  <SlogP_VSA9>
0

>  <SlogP_VSA10>
4.39

>  <SlogP_VSA11>
0

>  <EState_VSA1>
0

>  <EState_VSA2>
11.86

>  <EState_VSA3>
16.46

>  <EState_VSA4>
18.79

>  <EState_VSA5>
12.39

>  <EState_VSA6>
12.13

>  <EState_VSA7>
4.68

>  <EState_VSA8>
38.36

>  <EState_VSA9>
5.84

>  <EState_VSA10>
4.39

>  <VSA_EState1>
16.51

>  <VSA_EState2>
4.22

>  <VSA_EState3>
4.16

>  <VSA_EState4>
3.17

>  <VSA_EState5>
6.05

>  <VSA_EState6>
4.59

>  <VSA_EState7>
2.95

>  <VSA_EState8>
2.86

>  <VSA_EState9>
0

>  <apol>
42.15

>  <bpol>
21.26

>  <nRing>
2

>  <nHRing>
1

>  <naRing>
2

>  <naHRing>
1

>  <nARing 2>
0

>  <nAHRing 2>
0

>  <nFRing>
0

>  <nFHRing>
0

>  <nFaRing>
0

>  <nFaHRing>
0

>  <nFARing 2>
0

>  <nFAHRing 2>
0

>  <nRot>
6

>  <SLogP>
2.34

>  <SMR>
78.18

>  <TopoPSA(NO)>
68.76

>  <TopoPSA>
68.76

>  <JGI1>
0.19

>  <JGI2>
0.09

>  <JGI3>
0.05

>  <JGI4>
0.04

>  <JGI5>
0.03

>  <Diameter>
11

>  <Radius>
6

>  <TMWC10>
113.08

>  <TSRW10>
66.68

>  <MW>
341.07

>  <AMW>
9.22

>  <WPath>
834

>  <WPol>
28

>  <Zagreb1>
98

>  <Zagreb2>
113

>  <mZagreb2>
4.67

>  <yes>


>  <nAR-cont>
0.336376

>  <nHA-cont>
0.999629945

>  <MWHBN>
0.379032351

>  <MWHBN-cont>
0.558600761

>  <TPSA-cont>
0.520012503

>  <pka_cont>
0.97

>  <yes.1>


>  <BBB_SCORE>
3.698932091

>  <MMFF94 Energy>
78.968

$$$$
Compound 2109
Actelion Java MolfileCreator 2.0

  0  0  0  0  0  0              0 V3000
M  V30 BEGIN CTAB
M  V30 COUNTS 53 54 0 0 0
M  V30 BEGIN ATOM
M  V30 1 S -0.954 -1.9088 1.7497 0
M  V30 2 O -2.1089 -1.2151 1.2361 0
M  V30 3 O -1.0844 -2.9828 2.7045 0
M  V30 4 N -0.0253 -2.4621 0.4555 0
M  V30 5 N 0.0838 -0.7804 2.4347 0
M  V30 6 C 1.2027 -3.2203 0.8534 0
M  V30 7 C -0.8167 -3.2767 -0.5196 0
M  V30 8 C 0.1695 0.562 1.7991 0
M  V30 9 C 2.0326 -3.6035 -0.3866 0 CFG=1
M  V30 10 C 0.0541 -3.6032 -1.7435 0 CFG=1
M  V30 11 C 1.0285 0.5408 0.5455 0
M  V30 12 O 1.2462 -4.3109 -1.3612 0
M  V30 13 C 2.7589 -2.4179 -1.0178 0
M  V30 14 C -0.7035 -4.4888 -2.7245 0
M  V30 15 C 1.4556 1.928 0.0571 0
M  V30 16 N 0.33 2.7353 -0.4253 0
M  V30 17 C -0.4704 3.4778 0.4349 0
M  V30 18 C 0.0997 2.8058 -1.8745 0
M  V30 19 C -1.8379 3.6754 0.1797 0
M  V30 20 C 0.0349 4.0658 1.6058 0
M  V30 21 C -0.5767 1.5536 -2.4097 0
M  V30 22 C -2.6591 4.4068 1.0467 0
M  V30 23 C -0.7773 4.8022 2.4781 0
M  V30 24 C -2.1274 4.9708 2.199 0
M  V30 25 H -0.191 -0.6948 3.415 0
M  V30 26 H 0.8984 -4.1406 1.3674 0
M  V30 27 H 1.8175 -2.626 1.5367 0
M  V30 28 H -1.6972 -2.715 -0.8491 0
M  V30 29 H -1.1464 -4.2012 -0.0291 0
M  V30 30 H 0.6267 1.2233 2.5451 0
M  V30 31 H -0.835 0.9514 1.6121 0
M  V30 32 H 2.8041 -4.3112 -0.0604 0
M  V30 33 H 0.3386 -2.681 -2.2628 0
M  V30 34 H 0.4961 0.0166 -0.2522 0
M  V30 35 H 1.9393 -0.036 0.7474 0
M  V30 36 H 3.4627 -1.9699 -0.3094 0
M  V30 37 H 3.3152 -2.7425 -1.9036 0
M  V30 38 H 2.0688 -1.6368 -1.3484 0
M  V30 39 H -0.076 -4.7202 -3.592 0
M  V30 40 H -1.6184 -4.0021 -3.0757 0
M  V30 41 H -0.9688 -5.4469 -2.2641 0
M  V30 42 H 2.1651 1.7796 -0.7675 0
M  V30 43 H 2.0369 2.4404 0.83 0
M  V30 44 H 1.06 2.9383 -2.3883 0
M  V30 45 H -0.4908 3.6901 -2.1441 0
M  V30 46 H -2.3035 3.231 -0.6952 0
M  V30 47 H 1.0888 3.993 1.8536 0
M  V30 48 H -1.4808 1.3047 -1.8462 0
M  V30 49 H 0.0966 0.6924 -2.3653 0
M  V30 50 H -0.8546 1.6962 -3.4589 0
M  V30 51 H -3.7147 4.5258 0.8177 0
M  V30 52 H -0.3466 5.2489 3.3702 0
M  V30 53 H -2.7609 5.5401 2.8731 0
M  V30 END ATOM
M  V30 BEGIN BOND
M  V30 1 2 1 2
M  V30 2 2 1 3
M  V30 3 1 1 4
M  V30 4 1 1 5
M  V30 5 1 4 6
M  V30 6 1 4 7
M  V30 7 1 5 8
M  V30 8 1 6 9
M  V30 9 1 7 10
M  V30 10 1 8 11
M  V30 11 1 9 12
M  V30 12 1 9 13
M  V30 13 1 10 14
M  V30 14 1 11 15
M  V30 15 1 15 16
M  V30 16 1 16 17
M  V30 17 1 16 18
M  V30 18 2 17 19
M  V30 19 1 17 20
M  V30 20 1 18 21
M  V30 21 1 19 22
M  V30 22 2 20 23
M  V30 23 2 22 24
M  V30 24 1 10 12
M  V30 25 1 23 24
M  V30 26 1 5 25
M  V30 27 1 6 26
M  V30 28 1 6 27
M  V30 29 1 7 28
M  V30 30 1 7 29
M  V30 31 1 8 30
M  V30 32 1 8 31
M  V30 33 1 9 32
M  V30 34 1 10 33
M  V30 35 1 11 34
M  V30 36 1 11 35
M  V30 37 1 13 36
M  V30 38 1 13 37
M  V30 39 1 13 38
M  V30 40 1 14 39
M  V30 41 1 14 40
M  V30 42 1 14 41
M  V30 43 1 15 42
M  V30 44 1 15 43
M  V30 45 1 18 44
M  V30 46 1 18 45
M  V30 47 1 19 46
M  V30 48 1 20 47
M  V30 49 1 21 48
M  V30 50 1 21 49
M  V30 51 1 21 50
M  V30 52 1 22 51
M  V30 53 1 23 52
M  V30 54 1 24 53
M  V30 END BOND
M  V30 BEGIN COLLECTION
M  V30 MDLV30/STEABS ATOMS=(2 9 10)
M  V30 END COLLECTION
M  V30 END CTAB
M  END
>  <Column 1>
2602

>  <level_0>
3831

>  <index>
3831

>  <Unnamed: 0>
3831

>  <NO.>
3843

>  <Name>
prazosin

>  <IUPAC_name>
(2s-6s)-n-[3-(n-ethylanilino)propyl]-2-6-dimethylmorpholine-4-sulfonamide

>  <SMILES>
CCN(CCCNS(=O)(=O)N1C[C@H](C)O[C@@H](C)C1)c1ccccc1

>  <CID>
100004893

>  <logBB>


>  <BBB+/BBB->
BBB-

>  <Inchi>
InChI=1S/C17H29N3O3S/c1-4-19(17-9-6-5-7-10-17)12-8-11-18-24(21-22)20-13-15(2)23-16(3)14-20/h5-7-9-10-15-16-18H-4-8-11-14H2-1-3H3/t15--16-/m0/s1

>  <threshold>
-1

>  <reference>
R16|R10|R10|

>  <group>
B

>  <Class>
-1

>  <ABC>
18.11

>  <ABCGG>
15.04

>  <nAcid>
0

>  <nBase>
0

>  <nAromAtom>
6

>  <nAromBond>
6

>  <nAtom>
53

>  <nHeavyAtom>
24

>  <nSpiro>
0

>  <nBridgehead>
0

>  <nHetero>
7

>  <nN>
3

>  <nO>
3

>  <nF>
0

>  <BalabanJ>
1.71

>  <BertzCT>
584.36

>  <nBonds>
54

>  <nBondsO>
25

>  <nBondsS>
46

>  <nBondsD>
2

>  <nBondsT>
0

>  <nBondsA>
6

>  <nBondsM>
8

>  <nBondsKS>
49

>  <nBondsKD>
5

>  <RNCG>
0.19

>  <RPCG>
0.15

>  <FCSP3>
0.65

>  <SZ>
32

>  <Sm>
29.6

>  <Sv>
30.46

>  <Sse>
52.93

>  <Sp>
33.73

>  <Si>
60.44

>  <MZ>
0.6

>  <Mm>
0.56

>  <Mv>
0.57

>  <Mse>
1

>  <Mp>
0.64

>  <Mi>
1.14

>  <NsCH3>
3

>  <NdCH2>
0

>  <NssCH2>
6

>  <NtCH>
0

>  <NdsCH>
0

>  <NaaCH>
5

>  <NsssCH>
2

>  <NddC>
0

>  <NtsC>
0

>  <NdssC>
0

>  <NaasC>
1

>  <NaaaC>
0

>  <NssssC>
0

>  <NsNH3>
0

>  <NsNH2>
0

>  <NssNH2>
0

>  <NdNH>
0

>  <NssNH>
1

>  <NaaNH>
0

>  <NtN>
0

>  <NsssNH>
0

>  <NdsN>
0

>  <NaaN>
0

>  <NsssN>
2

>  <NddsN>
0

>  <NaasN>
0

>  <NssssN>
0

>  <NsOH>
0

>  <NdO>
2

>  <NssO>
1

>  <NaaO>
0

>  <NsF>
0

>  <NsSiH3>
0

>  <NssSiH2>
0

>  <NsssSiH>
0

>  <NssssSi>
0

>  <NsPH2>
0

>  <NssPH>
0

>  <NsssP>
0

>  <NdsssP>
0

>  <NsssssP>
0

>  <NsSH>
0

>  <NdS>
0

>  <NssS>
0

>  <NaaS>
0

>  <NdssS>
0

>  <NddssS>
1

>  <NsCl>
0

>  <NsBr>
0

>  <NsI>
0

>  <fragCpx>
73.07

>  <fMF>
0.34

>  <nHBAcc>
4

>  <nHBDon>
1

>  <Kier1>
20.31

>  <Kier2>
9.63

>  <Lipinski>
1

>  <GhoseFilter>
1

>  <FilterItLogS>
-3.42

>  <VMcGowan>
279.67

>  <LabuteASA>
145.52

>  <PEOE_VSA1>
9.64

>  <PEOE_VSA2>
0

>  <PEOE_VSA3>
4.72

>  <PEOE_VSA4>
12.72

>  <PEOE_VSA5>
0

>  <PEOE_VSA6>
18.2

>  <PEOE_VSA7>
39.32

>  <PEOE_VSA8>
38.41

>  <PEOE_VSA9>
12.21

>  <PEOE_VSA10>
0

>  <PEOE_VSA11>
0

>  <PEOE_VSA12>
0

>  <PEOE_VSA13>
10.21

>  <SMR_VSA1>
13.15

>  <SMR_VSA2>
0

>  <SMR_VSA3>
9.03

>  <SMR_VSA4>
0

>  <SMR_VSA5>
39.4

>  <SMR_VSA6>
37.62

>  <SMR_VSA7>
30.33

>  <SMR_VSA8>
0

>  <SMR_VSA9>
0

>  <SlogP_VSA1>
9.62

>  <SlogP_VSA2>
57.65

>  <SlogP_VSA3>
14.95

>  <SlogP_VSA4>
0

>  <SlogP_VSA5>
27.19

>  <SlogP_VSA6>
30.33

>  <SlogP_VSA7>
0

>  <SlogP_VSA8>
0

>  <SlogP_VSA9>
0

>  <SlogP_VSA10>
5.69

>  <SlogP_VSA11>
0

>  <EState_VSA1>
10.21

>  <EState_VSA2>
12.21

>  <EState_VSA3>
19.63

>  <EState_VSA4>
19.51

>  <EState_VSA5>
9.99

>  <EState_VSA6>
0

>  <EState_VSA7>
32.05

>  <EState_VSA8>
28.68

>  <EState_VSA9>
4.74

>  <EState_VSA10>
8.42

>  <VSA_EState1>
34.61

>  <VSA_EState2>
2.24

>  <VSA_EState3>
0

>  <VSA_EState4>
1.17

>  <VSA_EState5>
0

>  <VSA_EState6>
10.17

>  <VSA_EState7>
0.62

>  <VSA_EState8>
8.87

>  <VSA_EState9>
-3.43

>  <apol>
56.33

>  <bpol>
41.48

>  <nRing>
2

>  <nHRing>
1

>  <naRing>
1

>  <naHRing>
0

>  <nARing 2>
1

>  <nAHRing 2>
1

>  <nFRing>
0

>  <nFHRing>
0

>  <nFaRing>
0

>  <nFaHRing>
0

>  <nFARing 2>
0

>  <nFAHRing 2>
0

>  <nRot>
8

>  <SLogP>
1.85

>  <SMR>
97.45

>  <TopoPSA(NO)>
61.88

>  <TopoPSA>
70.26

>  <JGI1>
0.24

>  <JGI2>
0.08

>  <JGI3>
0.06

>  <JGI4>
0.04

>  <JGI5>
0.02

>  <Diameter>
13

>  <Radius>
7

>  <TMWC10>
122.24

>  <TSRW10>
58.11

>  <MW>
355.19

>  <AMW>
6.7

>  <WPath>
1544

>  <WPol>
34

>  <Zagreb1>
118

>  <Zagreb2>
133

>  <mZagreb2>
5.4

>  <yes>


>  <nAR-cont>
0.816016

>  <nHA-cont>
0.94700071

>  <MWHBN>
0.26530146

>  <MWHBN-cont>
0.930474826

>  <TPSA-cont>
0.509541571

>  <pka_cont>
0.97

>  <yes.1>


>  <BBB_SCORE>
4.662812091

>  <MMFF94 Energy>
-113.03

$$$$
Compound 2110
Actelion Java MolfileCreator 2.0

  0  0  0  0  0  0              0 V3000
M  V30 BEGIN CTAB
M  V30 COUNTS 54 56 0 0 0
M  V30 BEGIN ATOM
M  V30 1 S 0.404 -2.6687 -0.9698 0
M  V30 2 O 0.6794 -3.4086 0.2454 0
M  V30 3 O 1.3607 -2.5678 -2.0509 0
M  V30 4 C -1.0952 -3.3254 -1.6651 0
M  V30 5 C -0.0916 -1.0129 -0.4722 0 CFG=1
M  V30 6 C -1.963 -4.0721 -0.8636 0
M  V30 7 C -1.3797 -3.1005 -3.0154 0
M  V30 8 C 0.8396 -0.3475 0.5493 0
M  V30 9 C 0.774 0.1189 -0.9285 0 CFG=2
M  V30 10 C -3.1379 -4.5797 -1.4177 0
M  V30 11 C -2.5565 -3.6126 -3.5608 0
M  V30 12 C 0.1169 0.4438 1.5968 0
M  V30 13 C 2.1318 -0.9906 0.9552 0
M  V30 14 C 0.2034 1.4772 -1.2742 0
M  V30 15 C -3.4347 -4.3478 -2.7622 0
M  V30 16 O -1.101 0.5746 1.598 0
M  V30 17 O 0.9711 1.1165 2.4167 0
M  V30 18 O 3.0212 -1.2416 0.1547 0
M  V30 19 O 2.128 -1.3727 2.2614 0
M  V30 20 C -1.0101 1.6259 -1.9641 0
M  V30 21 C 0.8374 2.6504 -0.8354 0
M  V30 22 C 0.3259 1.9769 3.3627 0
M  V30 23 C 3.2822 -2.1225 2.6572 0
M  V30 24 C -1.5591 2.8891 -2.2245 0
M  V30 25 C 0.2937 3.9123 -1.0934 0
M  V30 26 C 1.3982 2.627 4.2148 0
M  V30 27 C 3.1382 -2.4667 4.1267 0
M  V30 28 C -0.9072 4.0398 -1.7889 0
M  V30 29 O -1.3302 5.3265 -1.9726 0
M  V30 30 C -2.5543 5.5064 -2.6734 0
M  V30 31 H -1.1569 -0.8579 -0.3702 0
M  V30 32 H -1.7345 -4.2661 0.1821 0
M  V30 33 H -0.6925 -2.5409 -3.6466 0
M  V30 34 H 1.6259 -0.1432 -1.5567 0
M  V30 35 H -3.821 -5.1627 -0.804 0
M  V30 36 H -2.7869 -3.4475 -4.6107 0
M  V30 37 H -4.3494 -4.7504 -3.1918 0
M  V30 38 H -1.5467 0.7469 -2.3148 0
M  V30 39 H 1.7763 2.5882 -0.2879 0
M  V30 40 H -0.3475 1.3909 3.9981 0
M  V30 41 H -0.2431 2.7482 2.8316 0
M  V30 42 H 4.1849 -1.5204 2.5051 0
M  V30 43 H 3.3464 -3.0425 2.0656 0
M  V30 44 H -2.498 2.9339 -2.766 0
M  V30 45 H 0.8123 4.8029 -0.7465 0
M  V30 46 H 0.9545 3.2968 4.9567 0
M  V30 47 H 1.9913 1.8667 4.7338 0
M  V30 48 H 2.0915 3.2002 3.5903 0
M  V30 49 H 3.9992 -3.0412 4.4792 0
M  V30 50 H 3.0494 -1.5562 4.7288 0
M  V30 51 H 2.2283 -3.0515 4.2981 0
M  V30 52 H -2.4838 5.1223 -3.6964 0
M  V30 53 H -2.7497 6.5815 -2.7344 0
M  V30 54 H -3.3893 5.0465 -2.1344 0
M  V30 END ATOM
M  V30 BEGIN BOND
M  V30 1 2 1 2
M  V30 2 2 1 3
M  V30 3 1 1 4
M  V30 4 1 1 5
M  V30 5 2 4 6
M  V30 6 1 4 7
M  V30 7 1 5 8
M  V30 8 1 5 9
M  V30 9 1 6 10
M  V30 10 2 7 11
M  V30 11 1 8 12
M  V30 12 1 8 13
M  V30 13 1 9 14
M  V30 14 2 10 15
M  V30 15 2 12 16
M  V30 16 1 12 17
M  V30 17 2 13 18
M  V30 18 1 13 19
M  V30 19 2 14 20
M  V30 20 1 14 21
M  V30 21 1 17 22
M  V30 22 1 19 23
M  V30 23 1 20 24
M  V30 24 2 21 25
M  V30 25 1 22 26
M  V30 26 1 23 27
M  V30 27 2 24 28
M  V30 28 1 28 29
M  V30 29 1 29 30
M  V30 30 1 8 9
M  V30 31 1 11 15
M  V30 32 1 25 28
M  V30 33 1 5 31
M  V30 34 1 6 32
M  V30 35 1 7 33
M  V30 36 1 9 34
M  V30 37 1 10 35
M  V30 38 1 11 36
M  V30 39 1 15 37
M  V30 40 1 20 38
M  V30 41 1 21 39
M  V30 42 1 22 40
M  V30 43 1 22 41
M  V30 44 1 23 42
M  V30 45 1 23 43
M  V30 46 1 24 44
M  V30 47 1 25 45
M  V30 48 1 26 46
M  V30 49 1 26 47
M  V30 50 1 26 48
M  V30 51 1 27 49
M  V30 52 1 27 50
M  V30 53 1 27 51
M  V30 54 1 30 52
M  V30 55 1 30 53
M  V30 56 1 30 54
M  V30 END BOND
M  V30 BEGIN COLLECTION
M  V30 MDLV30/STEABS ATOMS=(2 5 9)
M  V30 END COLLECTION
M  V30 END CTAB
M  END
>  <Column 1>
2603

>  <level_0>
3832

>  <index>
3832

>  <Unnamed: 0>
3832

>  <NO.>
3844

>  <Name>
itraconazole

>  <IUPAC_name>
diethyl (2r-3s)-2-(benzenesulfonyl)-3-(4-methoxyphenyl)cyclopropane-1-1-dicarboxylate

>  <SMILES>
CCOC(=O)C1(C(=O)OCC)[C@H](c2ccc(OC)cc2)[C@H]1S(=O)(=O)c1ccccc1

>  <CID>
100003793

>  <logBB>


>  <BBB+/BBB->
BBB-

>  <Inchi>
InChI=1S/C22H24O7S/c1-4-28-20(23)22(21(24)29-5-2)18(15-11-13-16(27-3)14-12-15)19(22)30(25-26)17-9-7-6-8-10-17/h6-14-18-19H-4-5H2-1-3H3/t18--19-/m1/s1

>  <threshold>
-1

>  <reference>
R16|R10|

>  <group>
B

>  <Class>
1

>  <ABC>
22.71

>  <ABCGG>
19.99

>  <nAcid>
0

>  <nBase>
0

>  <nAromAtom>
12

>  <nAromBond>
12

>  <nAtom>
54

>  <nHeavyAtom>
30

>  <nSpiro>
0

>  <nBridgehead>
0

>  <nHetero>
8

>  <nN>
0

>  <nO>
7

>  <nF>
0

>  <BalabanJ>
1.94

>  <BertzCT>
995.21

>  <nBonds>
56

>  <nBondsO>
32

>  <nBondsS>
40

>  <nBondsD>
4

>  <nBondsT>
0

>  <nBondsA>
12

>  <nBondsM>
16

>  <nBondsKS>
46

>  <nBondsKD>
10

>  <RNCG>
0.17

>  <RPCG>
0.11

>  <FCSP3>
0.36

>  <SZ>
38

>  <Sm>
36.01

>  <Sv>
34.69

>  <Sse>
55.05

>  <Sp>
36.68

>  <Si>
60.37

>  <MZ>
0.7

>  <Mm>
0.67

>  <Mv>
0.64

>  <Mse>
1.02

>  <Mp>
0.68

>  <Mi>
1.12

>  <NsCH3>
3

>  <NdCH2>
0

>  <NssCH2>
2

>  <NtCH>
0

>  <NdsCH>
0

>  <NaaCH>
9

>  <NsssCH>
2

>  <NddC>
0

>  <NtsC>
0

>  <NdssC>
2

>  <NaasC>
3

>  <NaaaC>
0

>  <NssssC>
1

>  <NsNH3>
0

>  <NsNH2>
0

>  <NssNH2>
0

>  <NdNH>
0

>  <NssNH>
0

>  <NaaNH>
0

>  <NtN>
0

>  <NsssNH>
0

>  <NdsN>
0

>  <NaaN>
0

>  <NsssN>
0

>  <NddsN>
0

>  <NaasN>
0

>  <NssssN>
0

>  <NsOH>
0

>  <NdO>
4

>  <NssO>
3

>  <NaaO>
0

>  <NsF>
0

>  <NsSiH3>
0

>  <NssSiH2>
0

>  <NsssSiH>
0

>  <NssssSi>
0

>  <NsPH2>
0

>  <NssPH>
0

>  <NsssP>
0

>  <NdsssP>
0

>  <NsssssP>
0

>  <NsSH>
0

>  <NdS>
0

>  <NssS>
0

>  <NaaS>
0

>  <NdssS>
0

>  <NddssS>
1

>  <NsCl>
0

>  <NsBr>
0

>  <NsI>
0

>  <fragCpx>
154.08

>  <fMF>
0.3

>  <nHBAcc>
7

>  <nHBDon>
0

>  <Kier1>
24.64

>  <Kier2>
10.29

>  <Lipinski>
1

>  <GhoseFilter>
1

>  <FilterItLogS>
-4.82

>  <VMcGowan>
311.3

>  <LabuteASA>
175.42

>  <PEOE_VSA1>
14.21

>  <PEOE_VSA2>
9.59

>  <PEOE_VSA3>
8.42

>  <PEOE_VSA4>
0

>  <PEOE_VSA5>
0

>  <PEOE_VSA6>
30.33

>  <PEOE_VSA7>
43.68

>  <PEOE_VSA8>
5.92

>  <PEOE_VSA9>
25.22

>  <PEOE_VSA10>
11

>  <PEOE_VSA11>
15.25

>  <PEOE_VSA12>
0

>  <PEOE_VSA13>
0

>  <SMR_VSA1>
32.22

>  <SMR_VSA2>
0

>  <SMR_VSA3>
0

>  <SMR_VSA4>
5.41

>  <SMR_VSA5>
29.91

>  <SMR_VSA6>
20.32

>  <SMR_VSA7>
60.16

>  <SMR_VSA8>
0

>  <SMR_VSA9>
5.75

>  <SlogP_VSA1>
4.74

>  <SlogP_VSA2>
45.93

>  <SlogP_VSA3>
28.9

>  <SlogP_VSA4>
5.41

>  <SlogP_VSA5>
25.33

>  <SlogP_VSA6>
59.49

>  <SlogP_VSA7>
0

>  <SlogP_VSA8>
0

>  <SlogP_VSA9>
0

>  <SlogP_VSA10>
0

>  <SlogP_VSA11>
5.75

>  <EState_VSA1>
38.36

>  <EState_VSA2>
18.11

>  <EState_VSA3>
11.31

>  <EState_VSA4>
0

>  <EState_VSA5>
19.24

>  <EState_VSA6>
56.31

>  <EState_VSA7>
0

>  <EState_VSA8>
0

>  <EState_VSA9>
14.21

>  <EState_VSA10>
18.01

>  <VSA_EState1>
42.47

>  <VSA_EState2>
26.08

>  <VSA_EState3>
-1.33

>  <VSA_EState4>
-1.45

>  <VSA_EState5>
-2.16

>  <VSA_EState6>
14.37

>  <VSA_EState7>
0

>  <VSA_EState8>
3.21

>  <VSA_EState9>
-2.54

>  <apol>
61.26

>  <bpol>
37.68

>  <nRing>
3

>  <nHRing>
0

>  <naRing>
2

>  <naHRing>
0

>  <nARing 2>
1

>  <nAHRing 2>
0

>  <nFRing>
0

>  <nFHRing>
0

>  <nFaRing>
0

>  <nFaHRing>
0

>  <nFARing 2>
0

>  <nFAHRing 2>
0

>  <nRot>
8

>  <SLogP>
2.75

>  <SMR>
108.85

>  <TopoPSA(NO)>
95.97

>  <TopoPSA>
104.35

>  <JGI1>
0.22

>  <JGI2>
0.12

>  <JGI3>
0.09

>  <JGI4>
0.06

>  <JGI5>
0.03

>  <Diameter>
12

>  <Radius>
6

>  <TMWC10>
142.18

>  <TSRW10>
87.87

>  <MW>
432.12

>  <AMW>
8

>  <WPath>
2209

>  <WPol>
53

>  <Zagreb1>
158

>  <Zagreb2>
196

>  <mZagreb2>
6.89

>  <yes>


>  <nAR-cont>
0.816016

>  <nHA-cont>
0.74523694

>  <MWHBN>
0.336740891

>  <MWHBN-cont>
0.718910648

>  <TPSA-cont>
0.271572203

>  <pka_cont>
0.97

>  <yes.1>


>  <BBB_SCORE>
3.667763316

>  <MMFF94 Energy>
3.5943

$$$$
Compound 2111
Actelion Java MolfileCreator 2.0

  0  0  0  0  0  0              0 V3000
M  V30 BEGIN CTAB
M  V30 COUNTS 46 48 0 0 0
M  V30 BEGIN ATOM
M  V30 1 Cl -2.9596 -5.9257 1.9723 0
M  V30 2 C -2.5211 -4.4396 1.2258 0
M  V30 3 C -1.9016 -4.4513 -0.0248 0
M  V30 4 C -2.7906 -3.233 1.8726 0
M  V30 5 C -1.5396 -3.2477 -0.6328 0
M  V30 6 C -2.4332 -2.025 1.2698 0
M  V30 7 C -1.7954 -2.0401 0.0262 0
M  V30 8 S -1.3214 -0.5119 -0.7506 0
M  V30 9 O -1.5606 -0.6728 -2.1716 0
M  V30 10 O -1.9218 0.5711 -0.0087 0
M  V30 11 C 0.4614 -0.4958 -0.5713 0 CFG=2
M  V30 12 C 1.0305 -0.0853 0.7699 0 CFG=1
M  V30 13 C 1.2141 0.8043 -0.4612 0 CFG=2
M  V30 14 C 0.1929 0.3396 1.8603 0
M  V30 15 C 2.2345 -0.8128 1.2647 0
M  V30 16 C 0.6144 2.1776 -0.6442 0
M  V30 17 N -0.4605 0.6139 2.779 0
M  V30 18 O 3.009 -0.3234 2.0726 0
M  V30 19 O 2.3149 -2.0743 0.7573 0
M  V30 20 C 0.6852 3.1591 0.3562 0
M  V30 21 C -0.0995 2.5115 -1.8084 0
M  V30 22 C 3.4177 -2.8412 1.2597 0
M  V30 23 C 0.0869 4.4136 0.1932 0
M  V30 24 C -0.704 3.7652 -1.9744 0
M  V30 25 C 3.3553 -4.2193 0.631 0
M  V30 26 C -0.614 4.7233 -0.9699 0
M  V30 27 O -1.1504 5.9799 -1.0021 0
M  V30 28 C -1.9757 6.2949 -2.1163 0
M  V30 29 H -1.7079 -5.3936 -0.5316 0
M  V30 30 H -3.2827 -3.2248 2.8426 0
M  V30 31 H -1.0754 -3.2624 -1.6166 0
M  V30 32 H -2.6598 -1.0879 1.7774 0
M  V30 33 H 0.9557 -1.2718 -1.1422 0
M  V30 34 H 2.2184 0.767 -0.8915 0
M  V30 35 H 1.2207 2.9667 1.2839 0
M  V30 36 H -0.1956 1.7869 -2.6156 0
M  V30 37 H 3.343 -2.9273 2.3495 0
M  V30 38 H 4.3598 -2.3514 0.9899 0
M  V30 39 H 0.1616 5.1513 0.9888 0
M  V30 40 H -1.2397 3.953 -2.8988 0
M  V30 41 H 4.1786 -4.8467 0.9834 0
M  V30 42 H 2.407 -4.7105 0.873 0
M  V30 43 H 3.4068 -4.1475 -0.4603 0
M  V30 44 H -1.3972 6.2963 -3.0458 0
M  V30 45 H -2.3672 7.3058 -1.967 0
M  V30 46 H -2.8303 5.6133 -2.1827 0
M  V30 END ATOM
M  V30 BEGIN BOND
M  V30 1 1 1 2
M  V30 2 2 2 3
M  V30 3 1 2 4
M  V30 4 1 3 5
M  V30 5 2 4 6
M  V30 6 2 5 7
M  V30 7 1 7 8
M  V30 8 2 8 9
M  V30 9 2 8 10
M  V30 10 1 8 11
M  V30 11 1 11 12
M  V30 12 1 11 13
M  V30 13 1 12 14
M  V30 14 1 12 15
M  V30 15 1 13 16
M  V30 16 3 14 17
M  V30 17 2 15 18
M  V30 18 1 15 19
M  V30 19 2 16 20
M  V30 20 1 16 21
M  V30 21 1 19 22
M  V30 22 1 20 23
M  V30 23 2 21 24
M  V30 24 1 22 25
M  V30 25 2 23 26
M  V30 26 1 26 27
M  V30 27 1 27 28
M  V30 28 1 6 7
M  V30 29 1 12 13
M  V30 30 1 24 26
M  V30 31 1 3 29
M  V30 32 1 4 30
M  V30 33 1 5 31
M  V30 34 1 6 32
M  V30 35 1 11 33
M  V30 36 1 13 34
M  V30 37 1 20 35
M  V30 38 1 21 36
M  V30 39 1 22 37
M  V30 40 1 22 38
M  V30 41 1 23 39
M  V30 42 1 24 40
M  V30 43 1 25 41
M  V30 44 1 25 42
M  V30 45 1 25 43
M  V30 46 1 28 44
M  V30 47 1 28 45
M  V30 48 1 28 46
M  V30 END BOND
M  V30 BEGIN COLLECTION
M  V30 MDLV30/STEABS ATOMS=(3 11 12 13)
M  V30 END COLLECTION
M  V30 END CTAB
M  END
>  <Column 1>
2604

>  <level_0>
3833

>  <index>
3833

>  <Unnamed: 0>
3833

>  <NO.>
3845

>  <Name>
orphenadrine

>  <IUPAC_name>
ethyl (1s-2s-3s)-2-(4-chlorophenyl)sulfonyl-1-cyano-3-(4-methoxyphenyl)cyclopropane-1-carboxylate

>  <SMILES>
CCOC(=O)[C@@]1(C#N)[C@H](c2ccc(OC)cc2)[C@@H]1S(=O)(=O)c1ccc(Cl)cc1

>  <CID>
100004601

>  <logBB>


>  <BBB+/BBB->
BBB+

>  <Inchi>
InChI=1S/C20H18ClNO5S/c1-3-27-19(23)20(12-22)17(13-4-8-15(26-2)9-5-13)18(20)28(24-25)16-10-6-14(21)7-11-16/h4-11-17-18H-3H2-1-2H3/t17--18+-20+/m1/s1

>  <threshold>
-1

>  <reference>
R16|R10|R10|

>  <group>
B

>  <Class>
1

>  <ABC>
21.36

>  <ABCGG>
18.56

>  <nAcid>
0

>  <nBase>
0

>  <nAromAtom>
12

>  <nAromBond>
12

>  <nAtom>
46

>  <nHeavyAtom>
28

>  <nSpiro>
0

>  <nBridgehead>
0

>  <nHetero>
8

>  <nN>
1

>  <nO>
5

>  <nF>
0

>  <BalabanJ>
1.83

>  <BertzCT>
1027.76

>  <nBonds>
48

>  <nBondsO>
30

>  <nBondsS>
32

>  <nBondsD>
3

>  <nBondsT>
1

>  <nBondsA>
12

>  <nBondsM>
16

>  <nBondsKS>
38

>  <nBondsKD>
9

>  <RNCG>
0.21

>  <RPCG>
0.14

>  <FCSP3>
0.3

>  <SZ>
36.33

>  <Sm>
34.96

>  <Sv>
31.49

>  <Sse>
47.15

>  <Sp>
33.29

>  <Si>
51.15

>  <MZ>
0.79

>  <Mm>
0.76

>  <Mv>
0.68

>  <Mse>
1.02

>  <Mp>
0.72

>  <Mi>
1.11

>  <NsCH3>
2

>  <NdCH2>
0

>  <NssCH2>
1

>  <NtCH>
0

>  <NdsCH>
0

>  <NaaCH>
8

>  <NsssCH>
2

>  <NddC>
0

>  <NtsC>
1

>  <NdssC>
1

>  <NaasC>
4

>  <NaaaC>
0

>  <NssssC>
1

>  <NsNH3>
0

>  <NsNH2>
0

>  <NssNH2>
0

>  <NdNH>
0

>  <NssNH>
0

>  <NaaNH>
0

>  <NtN>
1

>  <NsssNH>
0

>  <NdsN>
0

>  <NaaN>
0

>  <NsssN>
0

>  <NddsN>
0

>  <NaasN>
0

>  <NssssN>
0

>  <NsOH>
0

>  <NdO>
3

>  <NssO>
2

>  <NaaO>
0

>  <NsF>
0

>  <NsSiH3>
0

>  <NssSiH2>
0

>  <NsssSiH>
0

>  <NssssSi>
0

>  <NsPH2>
0

>  <NssPH>
0

>  <NsssP>
0

>  <NdsssP>
0

>  <NsssssP>
0

>  <NsSH>
0

>  <NdS>
0

>  <NssS>
0

>  <NaaS>
0

>  <NdssS>
0

>  <NddssS>
1

>  <NsCl>
1

>  <NsBr>
0

>  <NsI>
0

>  <fragCpx>
144.08

>  <fMF>
0.35

>  <nHBAcc>
6

>  <nHBDon>
0

>  <Kier1>
22.68

>  <Kier2>
9.01

>  <Lipinski>
1

>  <GhoseFilter>
1

>  <FilterItLogS>
-5.2

>  <VMcGowan>
289.3

>  <LabuteASA>
168.11

>  <PEOE_VSA1>
9.47

>  <PEOE_VSA2>
4.79

>  <PEOE_VSA3>
8.42

>  <PEOE_VSA4>
5.26

>  <PEOE_VSA5>
0

>  <PEOE_VSA6>
23.73

>  <PEOE_VSA7>
48.89

>  <PEOE_VSA8>
10.94

>  <PEOE_VSA9>
24.68

>  <PEOE_VSA10>
11

>  <PEOE_VSA11>
15.25

>  <PEOE_VSA12>
0

>  <PEOE_VSA13>
0

>  <SMR_VSA1>
22.69

>  <SMR_VSA2>
5.26

>  <SMR_VSA3>
0

>  <SMR_VSA4>
5.41

>  <SMR_VSA5>
22.99

>  <SMR_VSA6>
13.72

>  <SMR_VSA7>
59.12

>  <SMR_VSA8>
0

>  <SMR_VSA9>
11.82

>  <SlogP_VSA1>
4.74

>  <SlogP_VSA2>
33.35

>  <SlogP_VSA3>
19.37

>  <SlogP_VSA4>
16.75

>  <SlogP_VSA5>
18.41

>  <SlogP_VSA6>
53.43

>  <SlogP_VSA7>
5.02

>  <SlogP_VSA8>
0

>  <SlogP_VSA9>
0

>  <SlogP_VSA10>
0

>  <SlogP_VSA11>
5.75

>  <EState_VSA1>
32.39

>  <EState_VSA2>
11.5

>  <EState_VSA3>
16.34

>  <EState_VSA4>
0

>  <EState_VSA5>
31.38

>  <EState_VSA6>
31.19

>  <EState_VSA7>
6.07

>  <EState_VSA8>
0

>  <EState_VSA9>
21.07

>  <EState_VSA10>
18.47

>  <VSA_EState1>
36.72

>  <VSA_EState2>
12.65

>  <VSA_EState3>
8.99

>  <VSA_EState4>
-1.25

>  <VSA_EState5>
-1.09

>  <VSA_EState6>
14.23

>  <VSA_EState7>
0

>  <VSA_EState8>
1.65

>  <VSA_EState9>
-2.48

>  <apol>
55.59

>  <bpol>
30.13

>  <nRing>
3

>  <nHRing>
0

>  <naRing>
2

>  <naHRing>
0

>  <nARing 2>
1

>  <nAHRing 2>
0

>  <nFRing>
0

>  <nFHRing>
0

>  <nFaRing>
0

>  <nFaHRing>
0

>  <nFARing 2>
0

>  <nFAHRing 2>
0

>  <nRot>
6

>  <SLogP>
3.36

>  <SMR>
102.84

>  <TopoPSA(NO)>
93.46

>  <TopoPSA>
101.84

>  <JGI1>
0.25

>  <JGI2>
0.13

>  <JGI3>
0.09

>  <JGI4>
0.06

>  <JGI5>
0.03

>  <Diameter>
13

>  <Radius>
7

>  <TMWC10>
137.49

>  <TSRW10>
85.54

>  <MW>
419.06

>  <AMW>
9.11

>  <WPath>
1914

>  <WPol>
49

>  <Zagreb1>
150

>  <Zagreb2>
186

>  <mZagreb2>
6.35

>  <yes>


>  <nAR-cont>
0.816016

>  <nHA-cont>
0.82432561

>  <MWHBN>
0.293098196

>  <MWHBN-cont>
0.860857298

>  <TPSA-cont>
0.289093561

>  <pka_cont>
0.97

>  <yes.1>


>  <BBB_SCORE>
3.994814679

>  <MMFF94 Energy>
24.251

$$$$
Compound 2112
Actelion Java MolfileCreator 2.0

  0  0  0  0  0  0              0 V3000
M  V30 BEGIN CTAB
M  V30 COUNTS 46 47 0 0 0
M  V30 BEGIN ATOM
M  V30 1 S -0.1602 -2.6459 -0.3204 0
M  V30 2 O -0.8313 -3.2131 -1.4729 0
M  V30 3 O 1.2546 -2.8469 -0.0849 0
M  V30 4 C -0.5106 -0.8717 -0.3851 0 CFG=2
M  V30 5 C -1.044 -3.2175 1.1136 0
M  V30 6 C 0.4151 -0.0075 -1.2173 0 CFG=1
M  V30 7 C 0.5065 -0.0106 0.3231 0 CFG=1
M  V30 8 C -0.451 -2.7433 2.4229 0
M  V30 9 C 1.6417 -0.5169 -1.9069 0
M  V30 10 C -0.2219 1.1896 -1.9002 0
M  V30 11 C 0.1196 1.2158 1.1206 0
M  V30 12 O 2.7084 0.0742 -1.811 0
M  V30 13 O 1.3876 -1.5927 -2.6894 0
M  V30 14 N -0.8448 0.7767 -3.1512 0
M  V30 15 C -1.0775 1.309 1.8478 0
M  V30 16 C 0.9581 2.3417 1.1233 0
M  V30 17 C 2.5318 -2.1075 -3.3741 0
M  V30 18 C -1.4219 2.4709 2.553 0
M  V30 19 C 0.6181 3.5026 1.8237 0
M  V30 20 C 2.1114 -3.3601 -4.1172 0
M  V30 21 C -0.5731 3.5745 2.5431 0
M  V30 22 O -0.7872 4.7634 3.1818 0
M  V30 23 C -1.9772 4.8771 3.9515 0
M  V30 24 H -1.5576 -0.6083 -0.3623 0
M  V30 25 H -1.0261 -4.3115 1.0729 0
M  V30 26 H -2.0837 -2.892 1.0115 0
M  V30 27 H 1.3858 -0.5114 0.7313 0
M  V30 28 H -1.0189 -3.1525 3.2642 0
M  V30 29 H 0.5891 -3.0663 2.529 0
M  V30 30 H -0.4732 -1.6544 2.5027 0
M  V30 31 H 0.539 1.9506 -2.1051 0
M  V30 32 H -0.9935 1.6577 -1.2801 0
M  V30 33 H -1.5944 0.1089 -2.9798 0
M  V30 34 H -1.2728 1.5845 -3.6017 0
M  V30 35 H -1.7634 0.4665 1.8807 0
M  V30 36 H 1.8967 2.3165 0.5702 0
M  V30 37 H 3.3201 -2.3529 -2.6536 0
M  V30 38 H 2.9011 -1.3601 -4.0847 0
M  V30 39 H -2.3598 2.4778 3.0982 0
M  V30 40 H 1.2914 4.3565 1.8069 0
M  V30 41 H 2.9549 -3.7921 -4.6624 0
M  V30 42 H 1.7202 -4.1082 -3.4198 0
M  V30 43 H 1.3082 -3.1361 -4.8269 0
M  V30 44 H -2.8661 4.7857 3.3189 0
M  V30 45 H -1.9903 5.8744 4.4018 0
M  V30 46 H -1.9933 4.1442 4.7649 0
M  V30 END ATOM
M  V30 BEGIN BOND
M  V30 1 2 1 2
M  V30 2 2 1 3
M  V30 3 1 1 4
M  V30 4 1 1 5
M  V30 5 1 4 6
M  V30 6 1 4 7
M  V30 7 1 5 8
M  V30 8 1 6 9
M  V30 9 1 6 10
M  V30 10 1 7 11
M  V30 11 2 9 12
M  V30 12 1 9 13
M  V30 13 1 10 14
M  V30 14 2 11 15
M  V30 15 1 11 16
M  V30 16 1 13 17
M  V30 17 1 15 18
M  V30 18 2 16 19
M  V30 19 1 17 20
M  V30 20 2 18 21
M  V30 21 1 21 22
M  V30 22 1 22 23
M  V30 23 1 6 7
M  V30 24 1 19 21
M  V30 25 1 4 24
M  V30 26 1 5 25
M  V30 27 1 5 26
M  V30 28 1 7 27
M  V30 29 1 8 28
M  V30 30 1 8 29
M  V30 31 1 8 30
M  V30 32 1 10 31
M  V30 33 1 10 32
M  V30 34 1 14 33
M  V30 35 1 14 34
M  V30 36 1 15 35
M  V30 37 1 16 36
M  V30 38 1 17 37
M  V30 39 1 17 38
M  V30 40 1 18 39
M  V30 41 1 19 40
M  V30 42 1 20 41
M  V30 43 1 20 42
M  V30 44 1 20 43
M  V30 45 1 23 44
M  V30 46 1 23 45
M  V30 47 1 23 46
M  V30 END BOND
M  V30 BEGIN COLLECTION
M  V30 MDLV30/STEABS ATOMS=(3 4 6 7)
M  V30 END COLLECTION
M  V30 END CTAB
M  END
>  <Column 1>
2605

>  <level_0>
3834

>  <index>
3834

>  <Unnamed: 0>
3834

>  <NO.>
3846

>  <Name>
fluphenazine

>  <IUPAC_name>
ethyl (1r-2s-3r)-1-(aminomethyl)-2-ethylsulfonyl-3-(4-methoxyphenyl)cyclopropane-1-carboxylate

>  <SMILES>
CCOC(=O)[C@@]1(CN)[C@@H](S(=O)(=O)CC)[C@@H]1c1ccc(OC)cc1

>  <CID>
100003372

>  <logBB>


>  <BBB+/BBB->
BBB+

>  <Inchi>
InChI=1S/C16H23NO5S/c1-4-22-15(18)16(10-17)13(14(16)23(19-20)5-2)11-6-8-12(21-3)9-7-11/h6-9-13-14H-4-5-10-17H2-1-3H3/t13--14--16+/m0/s1

>  <threshold>
-1

>  <reference>
R16|R16|R10|R10|

>  <group>
B

>  <Class>
1

>  <ABC>
17.07

>  <ABCGG>
15.99

>  <nAcid>
0

>  <nBase>
1

>  <nAromAtom>
6

>  <nAromBond>
6

>  <nAtom>
46

>  <nHeavyAtom>
23

>  <nSpiro>
0

>  <nBridgehead>
0

>  <nHetero>
7

>  <nN>
1

>  <nO>
5

>  <nF>
0

>  <BalabanJ>
2.21

>  <BertzCT>
670.22

>  <nBonds>
47

>  <nBondsO>
24

>  <nBondsS>
38

>  <nBondsD>
3

>  <nBondsT>
0

>  <nBondsA>
6

>  <nBondsM>
9

>  <nBondsKS>
41

>  <nBondsKD>
6

>  <RNCG>
0.22

>  <RPCG>
0.14

>  <FCSP3>
0.56

>  <SZ>
30.33

>  <Sm>
28.43

>  <Sv>
27.75

>  <Sse>
46.6

>  <Sp>
29.98

>  <Si>
52.03

>  <MZ>
0.66

>  <Mm>
0.62

>  <Mv>
0.6

>  <Mse>
1.01

>  <Mp>
0.65

>  <Mi>
1.13

>  <NsCH3>
3

>  <NdCH2>
0

>  <NssCH2>
3

>  <NtCH>
0

>  <NdsCH>
0

>  <NaaCH>
4

>  <NsssCH>
2

>  <NddC>
0

>  <NtsC>
0

>  <NdssC>
1

>  <NaasC>
2

>  <NaaaC>
0

>  <NssssC>
1

>  <NsNH3>
0

>  <NsNH2>
1

>  <NssNH2>
0

>  <NdNH>
0

>  <NssNH>
0

>  <NaaNH>
0

>  <NtN>
0

>  <NsssNH>
0

>  <NdsN>
0

>  <NaaN>
0

>  <NsssN>
0

>  <NddsN>
0

>  <NaasN>
0

>  <NssssN>
0

>  <NsOH>
0

>  <NdO>
3

>  <NssO>
2

>  <NaaO>
0

>  <NsF>
0

>  <NsSiH3>
0

>  <NssSiH2>
0

>  <NsssSiH>
0

>  <NssssSi>
0

>  <NsPH2>
0

>  <NssPH>
0

>  <NsssP>
0

>  <NdsssP>
0

>  <NsssssP>
0

>  <NsSH>
0

>  <NdS>
0

>  <NssS>
0

>  <NaaS>
0

>  <NdssS>
0

>  <NddssS>
1

>  <NsCl>
0

>  <NsBr>
0

>  <NsI>
0

>  <fragCpx>
70.07

>  <fMF>
0.2

>  <nHBAcc>
6

>  <nHBDon>
1

>  <Kier1>
19.33

>  <Kier2>
7.49

>  <Lipinski>
1

>  <GhoseFilter>
1

>  <FilterItLogS>
-3.49

>  <VMcGowan>
253.06

>  <LabuteASA>
136.43

>  <PEOE_VSA1>
15.21

>  <PEOE_VSA2>
4.79

>  <PEOE_VSA3>
8.42

>  <PEOE_VSA4>
0

>  <PEOE_VSA5>
0

>  <PEOE_VSA6>
19.06

>  <PEOE_VSA7>
24.62

>  <PEOE_VSA8>
18.22

>  <PEOE_VSA9>
18.97

>  <PEOE_VSA10>
11.16

>  <PEOE_VSA11>
9.84

>  <PEOE_VSA12>
0

>  <PEOE_VSA13>
0

>  <SMR_VSA1>
22.69

>  <SMR_VSA2>
0

>  <SMR_VSA3>
0

>  <SMR_VSA4>
11.15

>  <SMR_VSA5>
25.02

>  <SMR_VSA6>
26.01

>  <SMR_VSA7>
29.83

>  <SMR_VSA8>
0

>  <SMR_VSA9>
5.75

>  <SlogP_VSA1>
10.47

>  <SlogP_VSA2>
45.65

>  <SlogP_VSA3>
19.37

>  <SlogP_VSA4>
5.41

>  <SlogP_VSA5>
25.33

>  <SlogP_VSA6>
24.27

>  <SlogP_VSA7>
0

>  <SlogP_VSA8>
0

>  <SlogP_VSA9>
0

>  <SlogP_VSA10>
0

>  <SlogP_VSA11>
5.75

>  <EState_VSA1>
32.39

>  <EState_VSA2>
18.9

>  <EState_VSA3>
5.75

>  <EState_VSA4>
5.56

>  <EState_VSA5>
0

>  <EState_VSA6>
45.22

>  <EState_VSA7>
0

>  <EState_VSA8>
0

>  <EState_VSA9>
15.21

>  <EState_VSA10>
13.21

>  <VSA_EState1>
35.16

>  <VSA_EState2>
12.45

>  <VSA_EState3>
-0.84

>  <VSA_EState4>
5.4

>  <VSA_EState5>
-0.39

>  <VSA_EState6>
7.04

>  <VSA_EState7>
0

>  <VSA_EState8>
3.39

>  <VSA_EState9>
-1.88

>  <apol>
50.07

>  <bpol>
33.5

>  <nRing>
2

>  <nHRing>
0

>  <naRing>
1

>  <naHRing>
0

>  <nARing 2>
1

>  <nAHRing 2>
0

>  <nFRing>
0

>  <nFHRing>
0

>  <nFaRing>
0

>  <nFaHRing>
0

>  <nFARing 2>
0

>  <nFAHRing 2>
0

>  <nRot>
7

>  <SLogP>
1.1

>  <SMR>
87.1

>  <TopoPSA(NO)>
95.69

>  <TopoPSA>
104.07

>  <JGI1>
0.27

>  <JGI2>
0.14

>  <JGI3>
0.1

>  <JGI4>
0.06

>  <JGI5>
0.03

>  <Diameter>
11

>  <Radius>
6

>  <TMWC10>
124.68

>  <TSRW10>
79.49

>  <MW>
341.13

>  <AMW>
7.42

>  <WPath>
1126

>  <WPol>
39

>  <Zagreb1>
120

>  <Zagreb2>
149

>  <mZagreb2>
5.39

>  <yes>


>  <nAR-cont>
0.816016

>  <nHA-cont>
0.967789328

>  <MWHBN>
0.378999016

>  <MWHBN-cont>
0.558731464

>  <TPSA-cont>
0.273526776

>  <pka_cont>
0.97

>  <yes.1>


>  <BBB_SCORE>
3.653956076

>  <MMFF94 Energy>
1.4796

$$$$
Compound 2113
Actelion Java MolfileCreator 2.0

  0  0  0  0  0  0              0 V3000
M  V30 BEGIN CTAB
M  V30 COUNTS 46 47 0 0 0
M  V30 BEGIN ATOM
M  V30 1 S -1.6839 -1.9246 0.1602 0
M  V30 2 O -1.8705 -0.5204 0.4547 0
M  V30 3 O -2.2464 -2.5167 -1.0392 0
M  V30 4 C 0.0734 -2.3213 0.0971 0 CFG=2
M  V30 5 C -2.2791 -2.8813 1.542 0
M  V30 6 C 1.0231 -1.4852 0.9419 0 CFG=1
M  V30 7 C 1.0424 -1.3931 -0.5929 0 CFG=2
M  V30 8 C -3.7714 -2.7056 1.7411 0
M  V30 9 C 0.4364 -0.4478 1.856 0
M  V30 10 C 2.136 -2.2554 1.652 0
M  V30 11 C 0.7342 -0.1591 -1.4096 0
M  V30 12 O -0.063 -0.7854 2.9217 0
M  V30 13 O 0.6642 0.8265 1.464 0
M  V30 14 N 2.7776 -3.3037 0.8619 0
M  V30 15 C 1.5129 1.0042 -1.2726 0
M  V30 16 C -0.3145 -0.0968 -2.3375 0
M  V30 17 C 0.0604 1.8162 2.3038 0
M  V30 18 C 1.2534 2.1722 -2.0038 0
M  V30 19 C -0.582 1.0661 -3.071 0
M  V30 20 C 0.2189 3.1686 1.6367 0
M  V30 21 C 0.1955 2.2091 -2.9047 0
M  V30 22 O -0.1707 3.275 -3.6777 0
M  V30 23 C 0.5414 4.4884 -3.4741 0
M  V30 24 H 0.2683 -3.3814 -0.007 0
M  V30 25 H -1.7406 -2.567 2.4373 0
M  V30 26 H -2.0435 -3.9302 1.338 0
M  V30 27 H 1.8485 -1.9393 -1.0856 0
M  V30 28 H -4.1158 -3.3075 2.5876 0
M  V30 29 H -4.0216 -1.6589 1.9422 0
M  V30 30 H -4.3281 -3.0172 0.8515 0
M  V30 31 H 1.716 -2.7272 2.5484 0
M  V30 32 H 2.9045 -1.549 1.9876 0
M  V30 33 H 3.4079 -2.8756 0.1828 0
M  V30 34 H 3.3861 -3.8498 1.474 0
M  V30 35 H 2.3483 1.008 -0.5749 0
M  V30 36 H -0.9377 -0.9673 -2.5258 0
M  V30 37 H 0.5652 1.8216 3.2762 0
M  V30 38 H -1.0045 1.598 2.4435 0
M  V30 39 H 1.8963 3.0294 -1.8383 0
M  V30 40 H -1.4095 1.073 -3.7764 0
M  V30 41 H -0.2047 3.9622 2.2587 0
M  V30 42 H 1.2757 3.388 1.4528 0
M  V30 43 H -0.2838 3.1787 0.6641 0
M  V30 44 H 0.4381 4.8408 -2.4422 0
M  V30 45 H 0.1038 5.2473 -4.13 0
M  V30 46 H 1.595 4.3773 -3.7507 0
M  V30 END ATOM
M  V30 BEGIN BOND
M  V30 1 2 1 2
M  V30 2 2 1 3
M  V30 3 1 1 4
M  V30 4 1 1 5
M  V30 5 1 4 6
M  V30 6 1 4 7
M  V30 7 1 5 8
M  V30 8 1 6 9
M  V30 9 1 6 10
M  V30 10 1 7 11
M  V30 11 2 9 12
M  V30 12 1 9 13
M  V30 13 1 10 14
M  V30 14 2 11 15
M  V30 15 1 11 16
M  V30 16 1 13 17
M  V30 17 1 15 18
M  V30 18 2 16 19
M  V30 19 1 17 20
M  V30 20 2 18 21
M  V30 21 1 21 22
M  V30 22 1 22 23
M  V30 23 1 6 7
M  V30 24 1 19 21
M  V30 25 1 4 24
M  V30 26 1 5 25
M  V30 27 1 5 26
M  V30 28 1 7 27
M  V30 29 1 8 28
M  V30 30 1 8 29
M  V30 31 1 8 30
M  V30 32 1 10 31
M  V30 33 1 10 32
M  V30 34 1 14 33
M  V30 35 1 14 34
M  V30 36 1 15 35
M  V30 37 1 16 36
M  V30 38 1 17 37
M  V30 39 1 17 38
M  V30 40 1 18 39
M  V30 41 1 19 40
M  V30 42 1 20 41
M  V30 43 1 20 42
M  V30 44 1 20 43
M  V30 45 1 23 44
M  V30 46 1 23 45
M  V30 47 1 23 46
M  V30 END BOND
M  V30 BEGIN COLLECTION
M  V30 MDLV30/STEABS ATOMS=(3 4 6 7)
M  V30 END COLLECTION
M  V30 END CTAB
M  END
>  <Column 1>
2606

>  <level_0>
3835

>  <index>
3835

>  <Unnamed: 0>
3835

>  <NO.>
3847

>  <Name>
fluconazole

>  <IUPAC_name>
ethyl (1r-2s-3s)-1-(aminomethyl)-2-ethylsulfonyl-3-(4-methoxyphenyl)cyclopropane-1-carboxylate

>  <SMILES>
CCOC(=O)[C@]1(CN)[C@H](c2ccc(OC)cc2)[C@@H]1S(=O)(=O)CC

>  <CID>
100003365

>  <logBB>


>  <BBB+/BBB->
BBB+

>  <Inchi>
InChI=1S/C16H23NO5S/c1-4-22-15(18)16(10-17)13(14(16)23(19-20)5-2)11-6-8-12(21-3)9-7-11/h6-9-13-14H-4-5-10-17H2-1-3H3/t13--14+-16-/m1/s1

>  <threshold>
-1

>  <reference>
R16|R10|

>  <group>
B

>  <Class>
1

>  <ABC>
17.07

>  <ABCGG>
15.99

>  <nAcid>
0

>  <nBase>
1

>  <nAromAtom>
6

>  <nAromBond>
6

>  <nAtom>
46

>  <nHeavyAtom>
23

>  <nSpiro>
0

>  <nBridgehead>
0

>  <nHetero>
7

>  <nN>
1

>  <nO>
5

>  <nF>
0

>  <BalabanJ>
2.21

>  <BertzCT>
670.22

>  <nBonds>
47

>  <nBondsO>
24

>  <nBondsS>
38

>  <nBondsD>
3

>  <nBondsT>
0

>  <nBondsA>
6

>  <nBondsM>
9

>  <nBondsKS>
41

>  <nBondsKD>
6

>  <RNCG>
0.22

>  <RPCG>
0.14

>  <FCSP3>
0.56

>  <SZ>
30.33

>  <Sm>
28.43

>  <Sv>
27.75

>  <Sse>
46.6

>  <Sp>
29.98

>  <Si>
52.03

>  <MZ>
0.66

>  <Mm>
0.62

>  <Mv>
0.6

>  <Mse>
1.01

>  <Mp>
0.65

>  <Mi>
1.13

>  <NsCH3>
3

>  <NdCH2>
0

>  <NssCH2>
3

>  <NtCH>
0

>  <NdsCH>
0

>  <NaaCH>
4

>  <NsssCH>
2

>  <NddC>
0

>  <NtsC>
0

>  <NdssC>
1

>  <NaasC>
2

>  <NaaaC>
0

>  <NssssC>
1

>  <NsNH3>
0

>  <NsNH2>
1

>  <NssNH2>
0

>  <NdNH>
0

>  <NssNH>
0

>  <NaaNH>
0

>  <NtN>
0

>  <NsssNH>
0

>  <NdsN>
0

>  <NaaN>
0

>  <NsssN>
0

>  <NddsN>
0

>  <NaasN>
0

>  <NssssN>
0

>  <NsOH>
0

>  <NdO>
3

>  <NssO>
2

>  <NaaO>
0

>  <NsF>
0

>  <NsSiH3>
0

>  <NssSiH2>
0

>  <NsssSiH>
0

>  <NssssSi>
0

>  <NsPH2>
0

>  <NssPH>
0

>  <NsssP>
0

>  <NdsssP>
0

>  <NsssssP>
0

>  <NsSH>
0

>  <NdS>
0

>  <NssS>
0

>  <NaaS>
0

>  <NdssS>
0

>  <NddssS>
1

>  <NsCl>
0

>  <NsBr>
0

>  <NsI>
0

>  <fragCpx>
70.07

>  <fMF>
0.2

>  <nHBAcc>
6

>  <nHBDon>
1

>  <Kier1>
19.33

>  <Kier2>
7.49

>  <Lipinski>
1

>  <GhoseFilter>
1

>  <FilterItLogS>
-3.49

>  <VMcGowan>
253.06

>  <LabuteASA>
136.43

>  <PEOE_VSA1>
15.21

>  <PEOE_VSA2>
4.79

>  <PEOE_VSA3>
8.42

>  <PEOE_VSA4>
0

>  <PEOE_VSA5>
0

>  <PEOE_VSA6>
19.06

>  <PEOE_VSA7>
24.62

>  <PEOE_VSA8>
18.22

>  <PEOE_VSA9>
18.97

>  <PEOE_VSA10>
11.16

>  <PEOE_VSA11>
9.84

>  <PEOE_VSA12>
0

>  <PEOE_VSA13>
0

>  <SMR_VSA1>
22.69

>  <SMR_VSA2>
0

>  <SMR_VSA3>
0

>  <SMR_VSA4>
11.15

>  <SMR_VSA5>
25.02

>  <SMR_VSA6>
26.01

>  <SMR_VSA7>
29.83

>  <SMR_VSA8>
0

>  <SMR_VSA9>
5.75

>  <SlogP_VSA1>
10.47

>  <SlogP_VSA2>
45.65

>  <SlogP_VSA3>
19.37

>  <SlogP_VSA4>
5.41

>  <SlogP_VSA5>
25.33

>  <SlogP_VSA6>
24.27

>  <SlogP_VSA7>
0

>  <SlogP_VSA8>
0

>  <SlogP_VSA9>
0

>  <SlogP_VSA10>
0

>  <SlogP_VSA11>
5.75

>  <EState_VSA1>
32.39

>  <EState_VSA2>
18.9

>  <EState_VSA3>
5.75

>  <EState_VSA4>
5.56

>  <EState_VSA5>
0

>  <EState_VSA6>
45.22

>  <EState_VSA7>
0

>  <EState_VSA8>
0

>  <EState_VSA9>
15.21

>  <EState_VSA10>
13.21

>  <VSA_EState1>
35.16

>  <VSA_EState2>
12.45

>  <VSA_EState3>
-0.84

>  <VSA_EState4>
5.4

>  <VSA_EState5>
-0.39

>  <VSA_EState6>
7.04

>  <VSA_EState7>
0

>  <VSA_EState8>
3.39

>  <VSA_EState9>
-1.88

>  <apol>
50.07

>  <bpol>
33.5

>  <nRing>
2

>  <nHRing>
0

>  <naRing>
1

>  <naHRing>
0

>  <nARing 2>
1

>  <nAHRing 2>
0

>  <nFRing>
0

>  <nFHRing>
0

>  <nFaRing>
0

>  <nFaHRing>
0

>  <nFARing 2>
0

>  <nFAHRing 2>
0

>  <nRot>
7

>  <SLogP>
1.1

>  <SMR>
87.1

>  <TopoPSA(NO)>
95.69

>  <TopoPSA>
104.07

>  <JGI1>
0.27

>  <JGI2>
0.14

>  <JGI3>
0.1

>  <JGI4>
0.06

>  <JGI5>
0.03

>  <Diameter>
11

>  <Radius>
6

>  <TMWC10>
124.68

>  <TSRW10>
79.49

>  <MW>
341.13

>  <AMW>
7.42

>  <WPath>
1126

>  <WPol>
39

>  <Zagreb1>
120

>  <Zagreb2>
149

>  <mZagreb2>
5.39

>  <yes>


>  <nAR-cont>
0.816016

>  <nHA-cont>
0.967789328

>  <MWHBN>
0.378999016

>  <MWHBN-cont>
0.558731464

>  <TPSA-cont>
0.273526776

>  <pka_cont>
0.97

>  <yes.1>


>  <BBB_SCORE>
3.653956076

>  <MMFF94 Energy>
4.7273

$$$$
Compound 2114
Actelion Java MolfileCreator 2.0

  0  0  0  0  0  0              0 V3000
M  V30 BEGIN CTAB
M  V30 COUNTS 42 44 0 0 0
M  V30 BEGIN ATOM
M  V30 1 S 0.3249 -3.1714 -1.1375 0
M  V30 2 O 1.7368 -3.5029 -1.1008 0
M  V30 3 O -0.6177 -3.9096 -0.3173 0
M  V30 4 C 0.1032 -1.4568 -0.6436 0 CFG=2
M  V30 5 C -0.2567 -3.2587 -2.8148 0
M  V30 6 C 1.2375 -0.4776 -0.8014 0 CFG=1
M  V30 7 C 0.951 -1.102 0.5634 0 CFG=1
M  V30 8 C 0.5282 -2.4029 -3.7835 0
M  V30 9 N 2.5026 -0.8484 -1.4991 0
M  V30 10 C 0.9129 0.9889 -1.0156 0
M  V30 11 C 0.3307 -0.3264 1.7081 0
M  V30 12 O 1.7839 1.8492 -0.976 0
M  V30 13 O -0.4035 1.2052 -1.2887 0
M  V30 14 C 0.9301 0.8461 2.2058 0
M  V30 15 C -0.9255 -0.7073 2.247 0
M  V30 16 C -0.7389 2.5855 -1.4674 0
M  V30 17 C 0.2898 1.5581 3.2002 0
M  V30 18 C -1.5562 0.0302 3.2559 0
M  V30 19 C -2.2363 2.6816 -1.6844 0
M  V30 20 O 0.7471 2.7007 3.7787 0
M  V30 21 C -0.9203 1.1609 3.7111 0
M  V30 22 C -0.3103 2.9689 4.7227 0
M  V30 23 O -1.3788 2.0004 4.6766 0
M  V30 24 H -0.9158 -1.0999 -0.6838 0
M  V30 25 H -1.3114 -2.9666 -2.8095 0
M  V30 26 H -0.1972 -4.3116 -3.1089 0
M  V30 27 H 1.6715 -1.8458 0.9021 0
M  V30 28 H 0.1576 -2.5513 -4.8026 0
M  V30 29 H 0.4283 -1.34 -3.5463 0
M  V30 30 H 1.5919 -2.6588 -3.7701 0
M  V30 31 H 2.8233 -1.7839 -1.2217 0
M  V30 32 H 3.2447 -0.1983 -1.2258 0
M  V30 33 H 1.8851 1.1954 1.8238 0
M  V30 34 H -1.4154 -1.6091 1.8797 0
M  V30 35 H -0.2109 2.9823 -2.3416 0
M  V30 36 H -0.4586 3.1562 -0.5747 0
M  V30 37 H -2.5115 -0.2784 3.665 0
M  V30 38 H -2.5441 3.7211 -1.8279 0
M  V30 39 H -2.537 2.099 -2.5614 0
M  V30 40 H -2.7769 2.2677 -0.8267 0
M  V30 41 H 0.1142 2.9754 5.7333 0
M  V30 42 H -0.7268 3.9602 4.51 0
M  V30 END ATOM
M  V30 BEGIN BOND
M  V30 1 2 1 2
M  V30 2 2 1 3
M  V30 3 1 1 4
M  V30 4 1 1 5
M  V30 5 1 4 6
M  V30 6 1 4 7
M  V30 7 1 5 8
M  V30 8 1 6 9
M  V30 9 1 6 10
M  V30 10 1 7 11
M  V30 11 2 10 12
M  V30 12 1 10 13
M  V30 13 2 11 14
M  V30 14 1 11 15
M  V30 15 1 13 16
M  V30 16 1 14 17
M  V30 17 2 15 18
M  V30 18 1 16 19
M  V30 19 1 17 20
M  V30 20 2 17 21
M  V30 21 1 20 22
M  V30 22 1 21 23
M  V30 23 1 6 7
M  V30 24 1 18 21
M  V30 25 1 22 23
M  V30 26 1 4 24
M  V30 27 1 5 25
M  V30 28 1 5 26
M  V30 29 1 7 27
M  V30 30 1 8 28
M  V30 31 1 8 29
M  V30 32 1 8 30
M  V30 33 1 9 31
M  V30 34 1 9 32
M  V30 35 1 14 33
M  V30 36 1 15 34
M  V30 37 1 16 35
M  V30 38 1 16 36
M  V30 39 1 18 37
M  V30 40 1 19 38
M  V30 41 1 19 39
M  V30 42 1 19 40
M  V30 43 1 22 41
M  V30 44 1 22 42
M  V30 END BOND
M  V30 BEGIN COLLECTION
M  V30 MDLV30/STEABS ATOMS=(3 4 6 7)
M  V30 END COLLECTION
M  V30 END CTAB
M  END
>  <Column 1>
2607

>  <level_0>
3836

>  <index>
3836

>  <Unnamed: 0>
3836

>  <NO.>
3848

>  <Name>
trihexyphenidyl

>  <IUPAC_name>
ethyl (1s-2r-3s)-1-amino-2-(1-3-benzodioxol-5-yl)-3-ethylsulfonylcyclopropane-1-carboxylate

>  <SMILES>
CCOC(=O)[C@]1(N)[C@@H](S(=O)(=O)CC)[C@@H]1c1ccc2c(c1)OCO2

>  <CID>
100005572

>  <logBB>


>  <BBB+/BBB->
BBB+

>  <Inchi>
InChI=1S/C15H19NO6S/c1-3-20-14(17)15(16)12(13(15)23(18-19)4-2)9-5-6-10-11(7-9)22-8-21-10/h5-7-12-13H-3-4-8-16H2-1-2H3/t12--13--15+/m0/s1

>  <threshold>
-1

>  <reference>
R16|R10|R10|

>  <group>
B

>  <Class>
-1

>  <ABC>
17.9

>  <ABCGG>
16.4

>  <nAcid>
0

>  <nBase>
1

>  <nAromAtom>
6

>  <nAromBond>
6

>  <nAtom>
42

>  <nHeavyAtom>
23

>  <nSpiro>
0

>  <nBridgehead>
0

>  <nHetero>
8

>  <nN>
1

>  <nO>
6

>  <nF>
0

>  <BalabanJ>
1.78

>  <BertzCT>
746.33

>  <nBonds>
44

>  <nBondsO>
25

>  <nBondsS>
35

>  <nBondsD>
3

>  <nBondsT>
0

>  <nBondsA>
6

>  <nBondsM>
9

>  <nBondsKS>
38

>  <nBondsKD>
6

>  <RNCG>
0.18

>  <RPCG>
0.13

>  <FCSP3>
0.53

>  <SZ>
30

>  <Sm>
28.42

>  <Sv>
26.38

>  <Sse>
43.16

>  <Sp>
27.86

>  <Si>
47.41

>  <MZ>
0.71

>  <Mm>
0.68

>  <Mv>
0.63

>  <Mse>
1.03

>  <Mp>
0.66

>  <Mi>
1.13

>  <NsCH3>
2

>  <NdCH2>
0

>  <NssCH2>
3

>  <NtCH>
0

>  <NdsCH>
0

>  <NaaCH>
3

>  <NsssCH>
2

>  <NddC>
0

>  <NtsC>
0

>  <NdssC>
1

>  <NaasC>
3

>  <NaaaC>
0

>  <NssssC>
1

>  <NsNH3>
0

>  <NsNH2>
1

>  <NssNH2>
0

>  <NdNH>
0

>  <NssNH>
0

>  <NaaNH>
0

>  <NtN>
0

>  <NsssNH>
0

>  <NdsN>
0

>  <NaaN>
0

>  <NsssN>
0

>  <NddsN>
0

>  <NaasN>
0

>  <NssssN>
0

>  <NsOH>
0

>  <NdO>
3

>  <NssO>
3

>  <NaaO>
0

>  <NsF>
0

>  <NsSiH3>
0

>  <NssSiH2>
0

>  <NsssSiH>
0

>  <NssssSi>
0

>  <NsPH2>
0

>  <NssPH>
0

>  <NsssP>
0

>  <NdsssP>
0

>  <NsssssP>
0

>  <NsSH>
0

>  <NdS>
0

>  <NssS>
0

>  <NaaS>
0

>  <NdssS>
0

>  <NddssS>
1

>  <NsCl>
0

>  <NsBr>
0

>  <NsI>
0

>  <fragCpx>
119.08

>  <fMF>
0.29

>  <nHBAcc>
7

>  <nHBDon>
1

>  <Kier1>
17.81

>  <Kier2>
6.38

>  <Lipinski>
1

>  <GhoseFilter>
1

>  <FilterItLogS>
-2.86

>  <VMcGowan>
233.98

>  <LabuteASA>
134.17

>  <PEOE_VSA1>
19.94

>  <PEOE_VSA2>
0

>  <PEOE_VSA3>
13.21

>  <PEOE_VSA4>
0

>  <PEOE_VSA5>
0

>  <PEOE_VSA6>
12.99

>  <PEOE_VSA7>
24.62

>  <PEOE_VSA8>
11.67

>  <PEOE_VSA9>
11.86

>  <PEOE_VSA10>
5.54

>  <PEOE_VSA11>
21.34

>  <PEOE_VSA12>
6.79

>  <PEOE_VSA13>
0

>  <SMR_VSA1>
27.42

>  <SMR_VSA2>
0

>  <SMR_VSA3>
0

>  <SMR_VSA4>
5.73

>  <SMR_VSA5>
30.55

>  <SMR_VSA6>
19.15

>  <SMR_VSA7>
23.76

>  <SMR_VSA8>
0

>  <SMR_VSA9>
11.5

>  <SlogP_VSA1>
15.21

>  <SlogP_VSA2>
44.33

>  <SlogP_VSA3>
19.37

>  <SlogP_VSA4>
0

>  <SlogP_VSA5>
25.33

>  <SlogP_VSA6>
18.2

>  <SlogP_VSA7>
0

>  <SlogP_VSA8>
0

>  <SlogP_VSA9>
0

>  <SlogP_VSA10>
0

>  <SlogP_VSA11>
11.5

>  <EState_VSA1>
32.51

>  <EState_VSA2>
19.15

>  <EState_VSA3>
17.06

>  <EState_VSA4>
0

>  <EState_VSA5>
6.92

>  <EState_VSA6>
25.12

>  <EState_VSA7>
0

>  <EState_VSA8>
0

>  <EState_VSA9>
19.94

>  <EState_VSA10>
13.21

>  <VSA_EState1>
40.27

>  <VSA_EState2>
12.25

>  <VSA_EState3>
-0.99

>  <VSA_EState4>
5.25

>  <VSA_EState5>
-0.32

>  <VSA_EState6>
5.08

>  <VSA_EState7>
0

>  <VSA_EState8>
3.45

>  <VSA_EState9>
-3.51

>  <apol>
46.53

>  <bpol>
31.22

>  <nRing>
3

>  <nHRing>
1

>  <naRing>
1

>  <naHRing>
0

>  <nARing 2>
2

>  <nAHRing 2>
1

>  <nFRing>
1

>  <nFHRing>
1

>  <nFaRing>
0

>  <nFaHRing>
0

>  <nFARing 2>
1

>  <nFAHRing 2>
1

>  <nRot>
5

>  <SLogP>
0.58

>  <SMR>
82.11

>  <TopoPSA(NO)>
104.92

>  <TopoPSA>
113.3

>  <JGI1>
0.26

>  <JGI2>
0.14

>  <JGI3>
0.09

>  <JGI4>
0.06

>  <JGI5>
0.03

>  <Diameter>
10

>  <Radius>
5

>  <TMWC10>
126.21

>  <TSRW10>
80.13

>  <MW>
341.09

>  <AMW>
8.12

>  <WPath>
1113

>  <WPol>
38

>  <Zagreb1>
128

>  <Zagreb2>
160

>  <mZagreb2>
5.04

>  <yes>


>  <nAR-cont>
1

>  <nHA-cont>
0.967789328

>  <MWHBN>
0.43316713

>  <MWHBN-cont>
0.347760079

>  <TPSA-cont>
0.209095645

>  <pka_cont>
0.97

>  <yes.1>


>  <BBB_SCORE>
3.392620737

>  <MMFF94 Energy>
47.117

$$$$
Compound 2115
Actelion Java MolfileCreator 2.0

  0  0  0  0  0  0              0 V3000
M  V30 BEGIN CTAB
M  V30 COUNTS 46 48 0 0 0
M  V30 BEGIN ATOM
M  V30 1 S 1.214 1.943 1.376 0
M  V30 2 O 2.4619 1.5663 2.0087 0
M  V30 3 O 0.3491 2.9692 1.9286 0
M  V30 4 C 1.6148 2.422 -0.2898 0
M  V30 5 C 0.19 0.4928 1.1165 0 CFG=2
M  V30 6 C 2.6426 1.7531 -0.9595 0
M  V30 7 C 0.9171 3.4624 -0.9055 0
M  V30 8 C -0.4445 -0.091 2.3596 0 CFG=1
M  V30 9 C 0.7202 -0.8034 1.6629 0 CFG=1
M  V30 10 C 2.9571 2.1162 -2.2695 0
M  V30 11 C 1.2377 3.8194 -2.2162 0
M  V30 12 N -0.1548 0.4235 3.7342 0
M  V30 13 C -1.85 -0.6545 2.2546 0
M  V30 14 C 0.5142 -2.0992 0.9074 0
M  V30 15 C 2.2478 3.1403 -2.9123 0
M  V30 16 O -2.4189 -1.1238 3.2331 0
M  V30 17 O -2.3866 -0.538 1.0094 0
M  V30 18 C 0.0337 -3.2464 1.5627 0
M  V30 19 C 0.6944 -2.182 -0.4841 0
M  V30 20 C 2.6152 3.555 -4.3075 0
M  V30 21 C -3.6925 -1.1095 0.8796 0
M  V30 22 C -0.2319 -4.4286 0.8673 0
M  V30 23 C 0.4312 -3.3621 -1.1851 0
M  V30 24 C -4.109 -1.0037 -0.5743 0
M  V30 25 C -0.0317 -4.4859 -0.5079 0
M  V30 26 H -0.3756 0.4882 0.1964 0
M  V30 27 H 3.2081 0.9638 -0.4682 0
M  V30 28 H 0.1338 4.0026 -0.378 0
M  V30 29 H 1.6692 -0.7694 2.197 0
M  V30 30 H 3.7659 1.6019 -2.7852 0
M  V30 31 H 0.6985 4.6368 -2.6917 0
M  V30 32 H -0.643 -0.1682 4.4151 0
M  V30 33 H -0.5669 1.3529 3.855 0
M  V30 34 H -0.1341 -3.2223 2.639 0
M  V30 35 H 1.0533 -1.3176 -1.0385 0
M  V30 36 H 3.3848 4.3323 -4.2761 0
M  V30 37 H 2.9949 2.7027 -4.8807 0
M  V30 38 H 1.7415 3.9423 -4.8423 0
M  V30 39 H -4.3988 -0.558 1.5101 0
M  V30 40 H -3.6716 -2.163 1.181 0
M  V30 41 H -0.5959 -5.3019 1.4027 0
M  V30 42 H 0.5875 -3.4016 -2.26 0
M  V30 43 H -5.1057 -1.4272 -0.7267 0
M  V30 44 H -4.1154 0.0422 -0.8985 0
M  V30 45 H -3.3976 -1.532 -1.2176 0
M  V30 46 H -0.2363 -5.4049 -1.0507 0
M  V30 END ATOM
M  V30 BEGIN BOND
M  V30 1 2 1 2
M  V30 2 2 1 3
M  V30 3 1 1 4
M  V30 4 1 1 5
M  V30 5 2 4 6
M  V30 6 1 4 7
M  V30 7 1 5 8
M  V30 8 1 5 9
M  V30 9 1 6 10
M  V30 10 2 7 11
M  V30 11 1 8 12
M  V30 12 1 8 13
M  V30 13 1 9 14
M  V30 14 2 10 15
M  V30 15 2 13 16
M  V30 16 1 13 17
M  V30 17 2 14 18
M  V30 18 1 14 19
M  V30 19 1 15 20
M  V30 20 1 17 21
M  V30 21 1 18 22
M  V30 22 2 19 23
M  V30 23 1 21 24
M  V30 24 2 22 25
M  V30 25 1 8 9
M  V30 26 1 11 15
M  V30 27 1 23 25
M  V30 28 1 5 26
M  V30 29 1 6 27
M  V30 30 1 7 28
M  V30 31 1 9 29
M  V30 32 1 10 30
M  V30 33 1 11 31
M  V30 34 1 12 32
M  V30 35 1 12 33
M  V30 36 1 18 34
M  V30 37 1 19 35
M  V30 38 1 20 36
M  V30 39 1 20 37
M  V30 40 1 20 38
M  V30 41 1 21 39
M  V30 42 1 21 40
M  V30 43 1 22 41
M  V30 44 1 23 42
M  V30 45 1 24 43
M  V30 46 1 24 44
M  V30 47 1 24 45
M  V30 48 1 25 46
M  V30 END BOND
M  V30 BEGIN COLLECTION
M  V30 MDLV30/STEABS ATOMS=(3 5 8 9)
M  V30 END COLLECTION
M  V30 END CTAB
M  END
>  <Column 1>
2608

>  <level_0>
3837

>  <index>
3837

>  <Unnamed: 0>
3837

>  <NO.>
3849

>  <Name>
amphotericin b

>  <IUPAC_name>
ethyl (1s-2s-3r)-1-amino-2-(4-methylphenyl)sulfonyl-3-phenylcyclopropane-1-carboxylate

>  <SMILES>
CCOC(=O)[C@]1(N)[C@@H](S(=O)(=O)c2ccc(C)cc2)[C@@H]1c1ccccc1

>  <CID>
100001972

>  <logBB>


>  <BBB+/BBB->
BBB-

>  <Inchi>
InChI=1S/C19H21NO4S/c1-3-24-18(21)19(20)16(14-7-5-4-6-8-14)17(19)25(22-23)15-11-9-13(2)10-12-15/h4-12-16-17H-3-20H2-1-2H3/t16--17--19+/m0/s1

>  <threshold>
-1

>  <reference>
R16|R10|

>  <group>
B

>  <Class>
-1

>  <ABC>
19.4

>  <ABCGG>
17.01

>  <nAcid>
0

>  <nBase>
1

>  <nAromAtom>
12

>  <nAromBond>
12

>  <nAtom>
46

>  <nHeavyAtom>
25

>  <nSpiro>
0

>  <nBridgehead>
0

>  <nHetero>
6

>  <nN>
1

>  <nO>
4

>  <nF>
0

>  <BalabanJ>
1.8

>  <BertzCT>
877.4

>  <nBonds>
48

>  <nBondsO>
27

>  <nBondsS>
33

>  <nBondsD>
3

>  <nBondsT>
0

>  <nBondsA>
12

>  <nBondsM>
15

>  <nBondsKS>
39

>  <nBondsKD>
9

>  <RNCG>
0.22

>  <RPCG>
0.15

>  <FCSP3>
0.32

>  <SZ>
31.67

>  <Sm>
29.93

>  <Sv>
29.49

>  <Sse>
46.38

>  <Sp>
31.7

>  <Si>
51.41

>  <MZ>
0.69

>  <Mm>
0.65

>  <Mv>
0.64

>  <Mse>
1.01

>  <Mp>
0.69

>  <Mi>
1.12

>  <NsCH3>
2

>  <NdCH2>
0

>  <NssCH2>
1

>  <NtCH>
0

>  <NdsCH>
0

>  <NaaCH>
9

>  <NsssCH>
2

>  <NddC>
0

>  <NtsC>
0

>  <NdssC>
1

>  <NaasC>
3

>  <NaaaC>
0

>  <NssssC>
1

>  <NsNH3>
0

>  <NsNH2>
1

>  <NssNH2>
0

>  <NdNH>
0

>  <NssNH>
0

>  <NaaNH>
0

>  <NtN>
0

>  <NsssNH>
0

>  <NdsN>
0

>  <NaaN>
0

>  <NsssN>
0

>  <NddsN>
0

>  <NaasN>
0

>  <NssssN>
0

>  <NsOH>
0

>  <NdO>
3

>  <NssO>
1

>  <NaaO>
0

>  <NsF>
0

>  <NsSiH3>
0

>  <NssSiH2>
0

>  <NsssSiH>
0

>  <NssssSi>
0

>  <NsPH2>
0

>  <NssPH>
0

>  <NsssP>
0

>  <NdsssP>
0

>  <NsssssP>
0

>  <NsSH>
0

>  <NdS>
0

>  <NssS>
0

>  <NaaS>
0

>  <NdssS>
0

>  <NddssS>
1

>  <NsCl>
0

>  <NsBr>
0

>  <NsI>
0

>  <fragCpx>
129.06

>  <fMF>
0.35

>  <nHBAcc>
5

>  <nHBDon>
1

>  <Kier1>
19.75

>  <Kier2>
7.55

>  <Lipinski>
1

>  <GhoseFilter>
1

>  <FilterItLogS>
-4.3

>  <VMcGowan>
265.7

>  <LabuteASA>
147.28

>  <PEOE_VSA1>
10.47

>  <PEOE_VSA2>
0

>  <PEOE_VSA3>
13.21

>  <PEOE_VSA4>
0

>  <PEOE_VSA5>
0

>  <PEOE_VSA6>
48.03

>  <PEOE_VSA7>
31.54

>  <PEOE_VSA8>
5.92

>  <PEOE_VSA9>
11.5

>  <PEOE_VSA10>
10.79

>  <PEOE_VSA11>
9.84

>  <PEOE_VSA12>
0

>  <PEOE_VSA13>
0

>  <SMR_VSA1>
17.95

>  <SMR_VSA2>
0

>  <SMR_VSA3>
0

>  <SMR_VSA4>
5.73

>  <SMR_VSA5>
35.45

>  <SMR_VSA6>
6.61

>  <SMR_VSA7>
65.72

>  <SMR_VSA8>
0

>  <SMR_VSA9>
0

>  <SlogP_VSA1>
5.73

>  <SlogP_VSA2>
31.78

>  <SlogP_VSA3>
19.37

>  <SlogP_VSA4>
6.92

>  <SlogP_VSA5>
23.97

>  <SlogP_VSA6>
59.49

>  <SlogP_VSA7>
0

>  <SlogP_VSA8>
0

>  <SlogP_VSA9>
0

>  <SlogP_VSA10>
0

>  <SlogP_VSA11>
0

>  <EState_VSA1>
32.51

>  <EState_VSA2>
11.5

>  <EState_VSA3>
0

>  <EState_VSA4>
11.13

>  <EState_VSA5>
0

>  <EState_VSA6>
55.45

>  <EState_VSA7>
12.99

>  <EState_VSA8>
0

>  <EState_VSA9>
10.47

>  <EState_VSA10>
13.21

>  <VSA_EState1>
31.32

>  <VSA_EState2>
12.61

>  <VSA_EState3>
-1.04

>  <VSA_EState4>
6.41

>  <VSA_EState5>
-1.3

>  <VSA_EState6>
15.58

>  <VSA_EState7>
0

>  <VSA_EState8>
3.7

>  <VSA_EState9>
-3.78

>  <apol>
52.94

>  <bpol>
29.76

>  <nRing>
3

>  <nHRing>
0

>  <naRing>
2

>  <naHRing>
0

>  <nARing 2>
1

>  <nAHRing 2>
0

>  <nFRing>
0

>  <nFHRing>
0

>  <nFaRing>
0

>  <nFaHRing>
0

>  <nFARing 2>
0

>  <nFAHRing 2>
0

>  <nRot>
5

>  <SLogP>
2.2

>  <SMR>
94.89

>  <TopoPSA(NO)>
86.46

>  <TopoPSA>
94.84

>  <JGI1>
0.24

>  <JGI2>
0.13

>  <JGI3>
0.09

>  <JGI4>
0.06

>  <JGI5>
0.04

>  <Diameter>
11

>  <Radius>
6

>  <TMWC10>
130.56

>  <TSRW10>
82

>  <MW>
359.12

>  <AMW>
7.81

>  <WPath>
1399

>  <WPol>
42

>  <Zagreb1>
136

>  <Zagreb2>
168

>  <mZagreb2>
5.47

>  <yes>


>  <nAR-cont>
0.816016

>  <nHA-cont>
0.921834225

>  <MWHBN>
0.316614977

>  <MWHBN-cont>
0.788426387

>  <TPSA-cont>
0.337957908

>  <pka_cont>
0.97

>  <yes.1>


>  <BBB_SCORE>
4.081405622

>  <MMFF94 Energy>
89.246

$$$$
Compound 2116
Actelion Java MolfileCreator 2.0

  0  0  0  0  0  0              0 V3000
M  V30 BEGIN CTAB
M  V30 COUNTS 39 41 0 0 0
M  V30 BEGIN ATOM
M  V30 1 S -0.2445 -3.1828 -1.7945 0
M  V30 2 O 0.0083 -2.8781 -3.1907 0
M  V30 3 O 0.6291 -4.0496 -1.0309 0
M  V30 4 C -0.3892 -1.612 -0.938 0 CFG=2
M  V30 5 C -1.8801 -3.8563 -1.6857 0
M  V30 6 C 0.6833 -0.5897 -1.2776 0 CFG=1
M  V30 7 C 0.6679 -1.3004 0.0794 0 CFG=1
M  V30 8 N 1.895 -0.8945 -2.1074 0
M  V30 9 C 0.1621 0.8287 -1.4484 0
M  V30 10 C 0.3534 -0.5488 1.3543 0
M  V30 11 O -0.9015 1.2058 -0.9743 0
M  V30 12 O 1.0245 1.61 -2.163 0
M  V30 13 C -0.7974 -0.8313 2.1134 0
M  V30 14 C 1.1742 0.5311 1.7709 0
M  V30 15 C 0.5887 2.9651 -2.32 0
M  V30 16 C -1.0658 -0.0695 3.2329 0
M  V30 17 C 0.8825 1.2898 2.9105 0
M  V30 18 C 1.6418 3.7105 -3.1161 0
M  V30 19 O -2.1308 -0.2293 4.064 0
M  V30 20 C -0.248 0.9622 3.621 0
M  V30 21 C -1.8872 0.8241 5.0199 0
M  V30 22 O -0.6914 1.5833 4.7458 0
M  V30 23 H -1.3967 -1.2553 -0.7733 0
M  V30 24 H -2.5774 -3.1734 -2.1746 0
M  V30 25 H -2.1387 -3.9853 -0.633 0
M  V30 26 H -1.8861 -4.823 -2.1935 0
M  V30 27 H 1.4477 -2.0496 0.2189 0
M  V30 28 H 2.3108 -0.0165 -2.4315 0
M  V30 29 H 1.6096 -1.3825 -2.965 0
M  V30 30 H -1.4685 -1.6375 1.8389 0
M  V30 31 H 2.0646 0.7763 1.1932 0
M  V30 32 H 0.4698 3.4323 -1.3358 0
M  V30 33 H -0.3658 2.9867 -2.8576 0
M  V30 34 H 1.5221 2.1079 3.221 0
M  V30 35 H 1.3532 4.755 -3.2631 0
M  V30 36 H 2.6077 3.6795 -2.6011 0
M  V30 37 H 1.7878 3.2424 -4.0951 0
M  V30 38 H -2.7449 1.5068 5.0151 0
M  V30 39 H -1.7985 0.3784 6.0174 0
M  V30 END ATOM
M  V30 BEGIN BOND
M  V30 1 2 1 2
M  V30 2 2 1 3
M  V30 3 1 1 4
M  V30 4 1 1 5
M  V30 5 1 4 6
M  V30 6 1 4 7
M  V30 7 1 6 8
M  V30 8 1 6 9
M  V30 9 1 7 10
M  V30 10 2 9 11
M  V30 11 1 9 12
M  V30 12 2 10 13
M  V30 13 1 10 14
M  V30 14 1 12 15
M  V30 15 1 13 16
M  V30 16 2 14 17
M  V30 17 1 15 18
M  V30 18 1 16 19
M  V30 19 2 16 20
M  V30 20 1 19 21
M  V30 21 1 20 22
M  V30 22 1 6 7
M  V30 23 1 17 20
M  V30 24 1 21 22
M  V30 25 1 4 23
M  V30 26 1 5 24
M  V30 27 1 5 25
M  V30 28 1 5 26
M  V30 29 1 7 27
M  V30 30 1 8 28
M  V30 31 1 8 29
M  V30 32 1 13 30
M  V30 33 1 14 31
M  V30 34 1 15 32
M  V30 35 1 15 33
M  V30 36 1 17 34
M  V30 37 1 18 35
M  V30 38 1 18 36
M  V30 39 1 18 37
M  V30 40 1 21 38
M  V30 41 1 21 39
M  V30 END BOND
M  V30 BEGIN COLLECTION
M  V30 MDLV30/STEABS ATOMS=(3 4 6 7)
M  V30 END COLLECTION
M  V30 END CTAB
M  END
>  <Column 1>
2609

>  <level_0>
3838

>  <index>
3838

>  <Unnamed: 0>
3838

>  <NO.>
3850

>  <Name>
scopolamine

>  <IUPAC_name>
ethyl (1s-2r-3s)-1-amino-2-(1-3-benzodioxol-5-yl)-3-methylsulfonylcyclopropane-1-carboxylate

>  <SMILES>
CCOC(=O)[C@]1(N)[C@@H](S(C)(=O)=O)[C@@H]1c1ccc2c(c1)OCO2

>  <CID>
100005184

>  <logBB>


>  <BBB+/BBB->
BBB-

>  <Inchi>
InChI=1S/C14H17NO6S/c1-3-19-13(16)14(15)11(12(14)22(2-17)18)8-4-5-9-10(6-8)21-7-20-9/h4-6-11-12H-3-7-15H2-1-2H3/t11--12--14+/m0/s1

>  <threshold>
-1

>  <reference>
R16|R10|R10|

>  <group>
B

>  <Class>
-1

>  <ABC>
17.35

>  <ABCGG>
15.8

>  <nAcid>
0

>  <nBase>
1

>  <nAromAtom>
6

>  <nAromBond>
6

>  <nAtom>
39

>  <nHeavyAtom>
22

>  <nSpiro>
0

>  <nBridgehead>
0

>  <nHetero>
8

>  <nN>
1

>  <nO>
6

>  <nF>
0

>  <BalabanJ>
1.76

>  <BertzCT>
730.85

>  <nBonds>
41

>  <nBondsO>
24

>  <nBondsS>
32

>  <nBondsD>
3

>  <nBondsT>
0

>  <nBondsA>
6

>  <nBondsM>
9

>  <nBondsKS>
35

>  <nBondsKD>
6

>  <RNCG>
0.18

>  <RPCG>
0.13

>  <FCSP3>
0.5

>  <SZ>
28.67

>  <Sm>
27.25

>  <Sv>
24.84

>  <Sse>
40.27

>  <Sp>
26.06

>  <Si>
44

>  <MZ>
0.74

>  <Mm>
0.7

>  <Mv>
0.64

>  <Mse>
1.03

>  <Mp>
0.67

>  <Mi>
1.13

>  <NsCH3>
2

>  <NdCH2>
0

>  <NssCH2>
2

>  <NtCH>
0

>  <NdsCH>
0

>  <NaaCH>
3

>  <NsssCH>
2

>  <NddC>
0

>  <NtsC>
0

>  <NdssC>
1

>  <NaasC>
3

>  <NaaaC>
0

>  <NssssC>
1

>  <NsNH3>
0

>  <NsNH2>
1

>  <NssNH2>
0

>  <NdNH>
0

>  <NssNH>
0

>  <NaaNH>
0

>  <NtN>
0

>  <NsssNH>
0

>  <NdsN>
0

>  <NaaN>
0

>  <NsssN>
0

>  <NddsN>
0

>  <NaasN>
0

>  <NssssN>
0

>  <NsOH>
0

>  <NdO>
3

>  <NssO>
3

>  <NaaO>
0

>  <NsF>
0

>  <NsSiH3>
0

>  <NssSiH2>
0

>  <NsssSiH>
0

>  <NssssSi>
0

>  <NsPH2>
0

>  <NssPH>
0

>  <NsssP>
0

>  <NdsssP>
0

>  <NsssssP>
0

>  <NsSH>
0

>  <NdS>
0

>  <NssS>
0

>  <NaaS>
0

>  <NdssS>
0

>  <NddssS>
1

>  <NsCl>
0

>  <NsBr>
0

>  <NsI>
0

>  <fragCpx>
114.08

>  <fMF>
0.31

>  <nHBAcc>
7

>  <nHBDon>
1

>  <Kier1>
16.84

>  <Kier2>
5.82

>  <Lipinski>
1

>  <GhoseFilter>
1

>  <FilterItLogS>
-2.46

>  <VMcGowan>
219.89

>  <LabuteASA>
127.81

>  <PEOE_VSA1>
19.94

>  <PEOE_VSA2>
0

>  <PEOE_VSA3>
13.21

>  <PEOE_VSA4>
0

>  <PEOE_VSA5>
0

>  <PEOE_VSA6>
6.07

>  <PEOE_VSA7>
24.62

>  <PEOE_VSA8>
12.17

>  <PEOE_VSA9>
11.86

>  <PEOE_VSA10>
5.54

>  <PEOE_VSA11>
21.34

>  <PEOE_VSA12>
6.79

>  <PEOE_VSA13>
0

>  <SMR_VSA1>
27.42

>  <SMR_VSA2>
0

>  <SMR_VSA3>
0

>  <SMR_VSA4>
5.73

>  <SMR_VSA5>
23.63

>  <SMR_VSA6>
19.66

>  <SMR_VSA7>
23.76

>  <SMR_VSA8>
0

>  <SMR_VSA9>
11.5

>  <SlogP_VSA1>
15.21

>  <SlogP_VSA2>
44.83

>  <SlogP_VSA3>
19.37

>  <SlogP_VSA4>
0

>  <SlogP_VSA5>
18.41

>  <SlogP_VSA6>
18.2

>  <SlogP_VSA7>
0

>  <SlogP_VSA8>
0

>  <SlogP_VSA9>
0

>  <SlogP_VSA10>
0

>  <SlogP_VSA11>
11.5

>  <EState_VSA1>
32.51

>  <EState_VSA2>
13.4

>  <EState_VSA3>
17.06

>  <EState_VSA4>
6.26

>  <EState_VSA5>
0

>  <EState_VSA6>
25.12

>  <EState_VSA7>
0

>  <EState_VSA8>
0

>  <EState_VSA9>
19.94

>  <EState_VSA10>
13.21

>  <VSA_EState1>
39.45

>  <VSA_EState2>
12.13

>  <VSA_EState3>
-1

>  <VSA_EState4>
5.16

>  <VSA_EState5>
-0.26

>  <VSA_EState6>
5.05

>  <VSA_EState7>
1.07

>  <VSA_EState8>
1.9

>  <VSA_EState9>
-3.51

>  <apol>
43.53

>  <bpol>
29.22

>  <nRing>
3

>  <nHRing>
1

>  <naRing>
1

>  <naHRing>
0

>  <nARing 2>
2

>  <nAHRing 2>
1

>  <nFRing>
1

>  <nFHRing>
1

>  <nFaRing>
0

>  <nFaHRing>
0

>  <nFARing 2>
1

>  <nFAHRing 2>
1

>  <nRot>
4

>  <SLogP>
0.19

>  <SMR>
77.49

>  <TopoPSA(NO)>
104.92

>  <TopoPSA>
113.3

>  <JGI1>
0.27

>  <JGI2>
0.13

>  <JGI3>
0.1

>  <JGI4>
0.06

>  <JGI5>
0.03

>  <Diameter>
10

>  <Radius>
5

>  <TMWC10>
123.88

>  <TSRW10>
78.96

>  <MW>
327.08

>  <AMW>
8.39

>  <WPath>
991

>  <WPol>
35

>  <Zagreb1>
124

>  <Zagreb2>
154

>  <mZagreb2>
4.67

>  <yes>


>  <nAR-cont>
1

>  <nHA-cont>
0.983774276

>  <MWHBN>
0.442346904

>  <MWHBN-cont>
0.313650413

>  <TPSA-cont>
0.209095645

>  <pka_cont>
0.97

>  <yes.1>


>  <BBB_SCORE>
3.357441185

>  <MMFF94 Energy>
49.43

$$$$
Compound 2117
Actelion Java MolfileCreator 2.0

  0  0  0  0  0  0              0 V3000
M  V30 BEGIN CTAB
M  V30 COUNTS 48 51 0 0 0
M  V30 BEGIN ATOM
M  V30 1 O 2.4891 -2.3284 -0.9629 0
M  V30 2 C 1.3144 -2.1004 -1.2243 0
M  V30 3 N 0.817 -2.2141 -2.5005 0
M  V30 4 C 0.3281 -1.709 -0.1782 0
M  V30 5 C -0.4976 -2.0042 -2.84 0
M  V30 6 C -0.9596 -1.5535 -0.523 0
M  V30 7 C 0.7806 -1.5682 1.2389 0 CFG=1
M  V30 8 C -1.402 -1.6788 -1.9005 0
M  V30 9 O -1.9556 -1.2392 0.4212 0
M  V30 10 C 1.4553 -0.2209 1.4953 0
M  V30 11 C -0.3821 -1.8728 2.1841 0
M  V30 12 C -2.8059 -1.4153 -2.3087 0
M  V30 13 C -1.6912 -1.2602 1.7591 0
M  V30 14 C 0.726 0.9743 1.6444 0
M  V30 15 C 2.8765 -0.1743 1.5456 0
M  V30 16 O -3.4924 -0.5094 -1.8632 0
M  V30 17 O -3.2037 -2.3343 -3.2282 0
M  V30 18 O -2.5144 -0.8682 2.581 0
M  V30 19 C 1.4329 2.1424 1.8551 0
M  V30 20 C 3.5737 1.0213 1.7579 0
M  V30 21 C -4.5602 -2.1752 -3.6627 0
M  V30 22 N 0.9731 3.4529 2.0367 0
M  V30 23 C 2.8256 2.1654 1.912 0
M  V30 24 C -4.8616 -3.2611 -4.677 0
M  V30 25 C 2.0816 4.3106 2.2099 0
M  V30 26 C -0.4033 3.8555 2.0505 0
M  V30 27 N 3.2271 3.4889 2.1288 0
M  V30 28 O 2.0558 5.5174 2.3924 0
M  V30 29 C 4.584 3.9352 2.2472 0
M  V30 30 H 1.4929 -2.4686 -3.2131 0
M  V30 31 H -0.7411 -2.1083 -3.8936 0
M  V30 32 H 1.5237 -2.3505 1.4496 0
M  V30 33 H -0.5511 -2.9565 2.2338 0
M  V30 34 H -0.1489 -1.5324 3.2002 0
M  V30 35 H -0.3548 1.0087 1.5917 0
M  V30 36 H 3.4538 -1.0886 1.4016 0
M  V30 37 H 4.6563 1.0336 1.7895 0
M  V30 38 H -4.6869 -1.1905 -4.1263 0
M  V30 39 H -5.2366 -2.2708 -2.806 0
M  V30 40 H -5.89 -3.1812 -5.0402 0
M  V30 41 H -4.1786 -3.1918 -5.53 0
M  V30 42 H -4.7186 -4.2523 -4.2343 0
M  V30 43 H -0.9249 3.3335 2.8579 0
M  V30 44 H -0.8631 3.6049 1.0902 0
M  V30 45 H -0.4834 4.9338 2.2132 0
M  V30 46 H 4.6169 5.0151 2.4153 0
M  V30 47 H 5.1233 3.7017 1.3247 0
M  V30 48 H 5.0592 3.4284 3.092 0
M  V30 END ATOM
M  V30 BEGIN BOND
M  V30 1 2 1 2
M  V30 2 1 2 3
M  V30 3 1 2 4
M  V30 4 1 3 5
M  V30 5 2 4 6
M  V30 6 1 4 7
M  V30 7 2 5 8
M  V30 8 1 6 9
M  V30 9 1 7 10
M  V30 10 1 7 11
M  V30 11 1 8 12
M  V30 12 1 9 13
M  V30 13 2 10 14
M  V30 14 1 10 15
M  V30 15 2 12 16
M  V30 16 1 12 17
M  V30 17 2 13 18
M  V30 18 1 14 19
M  V30 19 2 15 20
M  V30 20 1 17 21
M  V30 21 1 19 22
M  V30 22 2 19 23
M  V30 23 1 21 24
M  V30 24 1 22 25
M  V30 25 1 22 26
M  V30 26 1 23 27
M  V30 27 2 25 28
M  V30 28 1 27 29
M  V30 29 1 6 8
M  V30 30 1 11 13
M  V30 31 1 20 23
M  V30 32 1 25 27
M  V30 33 1 3 30
M  V30 34 1 5 31
M  V30 35 1 7 32
M  V30 36 1 11 33
M  V30 37 1 11 34
M  V30 38 1 14 35
M  V30 39 1 15 36
M  V30 40 1 20 37
M  V30 41 1 21 38
M  V30 42 1 21 39
M  V30 43 1 24 40
M  V30 44 1 24 41
M  V30 45 1 24 42
M  V30 46 1 26 43
M  V30 47 1 26 44
M  V30 48 1 26 45
M  V30 49 1 29 46
M  V30 50 1 29 47
M  V30 51 1 29 48
M  V30 END BOND
M  V30 BEGIN COLLECTION
M  V30 MDLV30/STEABS ATOMS=(1 7)
M  V30 END COLLECTION
M  V30 END CTAB
M  END
>  <Column 1>
2610

>  <level_0>
3839

>  <index>
3839

>  <Unnamed: 0>
3839

>  <NO.>
3851

>  <Name>
testolactone

>  <IUPAC_name>
ethyl (4r)-4-(1-3-dimethyl-2-oxobenzimidazol-5-yl)-2-5-dioxo-4-6-dihydro-3h-pyrano[3-2-c]pyridine-8-carboxylate

>  <SMILES>
CCOC(=O)c1c[nH]c(=O)c2c1OC(=O)C[C@@H]2c1ccc2c(c1)n(C)c(=O)n2C

>  <CID>
100005407

>  <logBB>


>  <BBB+/BBB->
BBB-

>  <Inchi>
InChI=1S/C20H19N3O6/c1-4-28-19(26)12-9-21-18(25)16-11(8-15(24)29-17(12)16)10-5-6-13-14(7-10)23(3)20(27)22(13)2/h5-7-9-11H-4-8H2-1-3H3-(H-21-25)/t11-/m1/s1

>  <threshold>
-1

>  <reference>
R16|R10|R10|

>  <group>
B

>  <Class>
1

>  <ABC>
22.84

>  <ABCGG>
18.38

>  <nAcid>
0

>  <nBase>
0

>  <nAromAtom>
15

>  <nAromBond>
16

>  <nAtom>
48

>  <nHeavyAtom>
29

>  <nSpiro>
0

>  <nBridgehead>
0

>  <nHetero>
9

>  <nN>
3

>  <nO>
6

>  <nF>
0

>  <BalabanJ>
1.54

>  <BertzCT>
1279.83

>  <nBonds>
51

>  <nBondsO>
32

>  <nBondsS>
31

>  <nBondsD>
4

>  <nBondsT>
0

>  <nBondsA>
16

>  <nBondsM>
20

>  <nBondsKS>
42

>  <nBondsKD>
9

>  <RNCG>
0.15

>  <RPCG>
0.11

>  <FCSP3>
0.3

>  <SZ>
34.67

>  <Sm>
33.09

>  <Sv>
31.71

>  <Sse>
49.41

>  <Sp>
32.44

>  <Si>
54.07

>  <MZ>
0.72

>  <Mm>
0.69

>  <Mv>
0.66

>  <Mse>
1.03

>  <Mp>
0.68

>  <Mi>
1.13

>  <NsCH3>
3

>  <NdCH2>
0

>  <NssCH2>
2

>  <NtCH>
0

>  <NdsCH>
0

>  <NaaCH>
4

>  <NsssCH>
1

>  <NddC>
0

>  <NtsC>
0

>  <NdssC>
2

>  <NaasC>
4

>  <NaaaC>
2

>  <NssssC>
0

>  <NsNH3>
0

>  <NsNH2>
0

>  <NssNH2>
0

>  <NdNH>
0

>  <NssNH>
0

>  <NaaNH>
1

>  <NtN>
0

>  <NsssNH>
0

>  <NdsN>
0

>  <NaaN>
0

>  <NsssN>
0

>  <NddsN>
0

>  <NaasN>
2

>  <NssssN>
0

>  <NsOH>
0

>  <NdO>
4

>  <NssO>
2

>  <NaaO>
0

>  <NsF>
0

>  <NsSiH3>
0

>  <NssSiH2>
0

>  <NsssSiH>
0

>  <NssssSi>
0

>  <NsPH2>
0

>  <NssPH>
0

>  <NsssP>
0

>  <NdsssP>
0

>  <NsssssP>
0

>  <NsSH>
0

>  <NdS>
0

>  <NssS>
0

>  <NaaS>
0

>  <NdssS>
0

>  <NddssS>
0

>  <NsCl>
0

>  <NsBr>
0

>  <NsI>
0

>  <fragCpx>
212.09

>  <fMF>
0.4

>  <nHBAcc>
8

>  <nHBDon>
1

>  <Kier1>
22.2

>  <Kier2>
8.86

>  <Lipinski>
1

>  <GhoseFilter>
1

>  <FilterItLogS>
-4.02

>  <VMcGowan>
275.68

>  <LabuteASA>
164.03

>  <PEOE_VSA1>
14.46

>  <PEOE_VSA2>
18.72

>  <PEOE_VSA3>
9.59

>  <PEOE_VSA4>
0

>  <PEOE_VSA5>
0

>  <PEOE_VSA6>
6.07

>  <PEOE_VSA7>
24.62

>  <PEOE_VSA8>
26.21

>  <PEOE_VSA9>
29.62

>  <PEOE_VSA10>
5.56

>  <PEOE_VSA11>
5.75

>  <PEOE_VSA12>
0

>  <PEOE_VSA13>
5.56

>  <SMR_VSA1>
19.06

>  <SMR_VSA2>
0

>  <SMR_VSA3>
14.12

>  <SMR_VSA4>
14.1

>  <SMR_VSA5>
19.26

>  <SMR_VSA6>
6.61

>  <SMR_VSA7>
61.92

>  <SMR_VSA8>
0

>  <SMR_VSA9>
5.75

>  <SlogP_VSA1>
15.99

>  <SlogP_VSA2>
32.66

>  <SlogP_VSA3>
23.63

>  <SlogP_VSA4>
0

>  <SlogP_VSA5>
40.75

>  <SlogP_VSA6>
33.99

>  <SlogP_VSA7>
0

>  <SlogP_VSA8>
11.03

>  <SlogP_VSA9>
0

>  <SlogP_VSA10>
0

>  <SlogP_VSA11>
5.75

>  <EState_VSA1>
23.42

>  <EState_VSA2>
35.59

>  <EState_VSA3>
11.08

>  <EState_VSA4>
5.52

>  <EState_VSA5>
15.33

>  <EState_VSA6>
39.22

>  <EState_VSA7>
0

>  <EState_VSA8>
4.98

>  <EState_VSA9>
9.47

>  <EState_VSA10>
19.18

>  <VSA_EState1>
13.31

>  <VSA_EState2>
51.92

>  <VSA_EState3>
0

>  <VSA_EState4>
1.63

>  <VSA_EState5>
-1.94

>  <VSA_EState6>
5.32

>  <VSA_EState7>
1.13

>  <VSA_EState8>
1.8

>  <VSA_EState9>
3.33

>  <apol>
54.18

>  <bpol>
29.99

>  <nRing>
4

>  <nHRing>
3

>  <naRing>
3

>  <naHRing>
2

>  <nARing 2>
1

>  <nAHRing 2>
1

>  <nFRing>
2

>  <nFHRing>
2

>  <nFaRing>
1

>  <nFaHRing>
1

>  <nFARing 2>
1

>  <nFAHRing 2>
1

>  <nRot>
3

>  <SLogP>
1.18

>  <SMR>
103.27

>  <TopoPSA(NO)>
112.39

>  <TopoPSA>
112.39

>  <JGI1>
0.19

>  <JGI2>
0.09

>  <JGI3>
0.06

>  <JGI4>
0.04

>  <JGI5>
0.03

>  <Diameter>
13

>  <Radius>
7

>  <TMWC10>
139.82

>  <TSRW10>
79.72

>  <MW>
397.13

>  <AMW>
8.27

>  <WPath>
2092

>  <WPol>
55

>  <Zagreb1>
160

>  <Zagreb2>
197

>  <mZagreb2>
6.31

>  <yes>


>  <nAR-cont>
0.816016

>  <nHA-cont>
0.785905698

>  <MWHBN>
0.451623115

>  <MWHBN-cont>
0

>  <TPSA-cont>
0.21544801

>  <pka_cont>
0.97

>  <yes.1>


>  <BBB_SCORE>
2.517817718

>  <MMFF94 Energy>
-14.342

$$$$
Compound 2118
Actelion Java MolfileCreator 2.0

  0  0  0  0  0  0              0 V3000
M  V30 BEGIN CTAB
M  V30 COUNTS 41 44 0 0 0
M  V30 BEGIN ATOM
M  V30 1 Cl -4.4249 -0.8183 4.2607 0
M  V30 2 C -2.8458 -0.7587 3.587 0
M  V30 3 C -1.8133 -0.1042 4.2234 0
M  V30 4 C -2.5826 -1.382 2.3616 0
M  V30 5 O -1.8653 0.5595 5.4115 0
M  V30 6 C -0.5588 -0.0614 3.6641 0
M  V30 7 C -1.2882 -1.3546 1.782 0
M  V30 8 C -0.5056 1.0182 5.5366 0
M  V30 9 O 0.3289 0.635 4.4251 0
M  V30 10 C -0.2641 -0.6663 2.456 0
M  V30 11 C -1.071 -2.0414 0.4357 0 CFG=1
M  V30 12 C -0.9373 -1.0636 -0.6863 0
M  V30 13 C 0.1123 -3.0105 0.4217 0
M  V30 14 C -2.1602 -0.4165 -1.2391 0
M  V30 15 C 0.2538 -0.784 -1.238 0
M  V30 16 C 1.4393 -2.3429 0.1706 0
M  V30 17 O -3.2819 -0.6816 -0.8252 0
M  V30 18 N -1.9506 0.489 -2.2518 0
M  V30 19 O 1.4538 -1.3342 -0.748 0
M  V30 20 C 0.3867 0.1722 -2.3221 0
M  V30 21 O 2.4696 -2.7301 0.7138 0
M  V30 22 C -0.7185 0.7797 -2.7863 0
M  V30 23 C 1.6939 0.4621 -2.963 0
M  V30 24 O 2.5224 -0.39 -3.2423 0
M  V30 25 O 1.8221 1.7983 -3.1759 0
M  V30 26 C 3.0729 2.1777 -3.7636 0
M  V30 27 C 3.077 3.6844 -3.9341 0
M  V30 28 H -3.3985 -1.8847 1.8422 0
M  V30 29 H -0.5091 2.1117 5.6119 0
M  V30 30 H -0.0776 0.6037 6.4566 0
M  V30 31 H 0.7447 -0.5836 2.0669 0
M  V30 32 H -1.952 -2.6703 0.2423 0
M  V30 33 H 0.1692 -3.5605 1.3689 0
M  V30 34 H -0.017 -3.7516 -0.3779 0
M  V30 35 H -2.7838 0.9391 -2.6165 0
M  V30 36 H -0.7077 1.4994 -3.6001 0
M  V30 37 H 3.1837 1.6944 -4.7407 0
M  V30 38 H 3.8967 1.8772 -3.1064 0
M  V30 39 H 4.0152 4.0239 -4.3816 0
M  V30 40 H 2.2453 4.0024 -4.5716 0
M  V30 41 H 2.9454 4.1822 -2.9675 0
M  V30 END ATOM
M  V30 BEGIN BOND
M  V30 1 1 1 2
M  V30 2 2 2 3
M  V30 3 1 2 4
M  V30 4 1 3 5
M  V30 5 1 3 6
M  V30 6 2 4 7
M  V30 7 1 5 8
M  V30 8 1 6 9
M  V30 9 2 6 10
M  V30 10 1 7 11
M  V30 11 1 11 12
M  V30 12 1 11 13
M  V30 13 1 12 14
M  V30 14 2 12 15
M  V30 15 1 13 16
M  V30 16 2 14 17
M  V30 17 1 14 18
M  V30 18 1 15 19
M  V30 19 1 15 20
M  V30 20 2 16 21
M  V30 21 1 18 22
M  V30 22 1 20 23
M  V30 23 2 23 24
M  V30 24 1 23 25
M  V30 25 1 25 26
M  V30 26 1 26 27
M  V30 27 1 7 10
M  V30 28 1 8 9
M  V30 29 1 16 19
M  V30 30 2 20 22
M  V30 31 1 4 28
M  V30 32 1 8 29
M  V30 33 1 8 30
M  V30 34 1 10 31
M  V30 35 1 11 32
M  V30 36 1 13 33
M  V30 37 1 13 34
M  V30 38 1 18 35
M  V30 39 1 22 36
M  V30 40 1 26 37
M  V30 41 1 26 38
M  V30 42 1 27 39
M  V30 43 1 27 40
M  V30 44 1 27 41
M  V30 END BOND
M  V30 BEGIN COLLECTION
M  V30 MDLV30/STEABS ATOMS=(1 11)
M  V30 END COLLECTION
M  V30 END CTAB
M  END
>  <Column 1>
2611

>  <level_0>
3840

>  <index>
3840

>  <Unnamed: 0>
3840

>  <NO.>
3852

>  <Name>
procaine

>  <IUPAC_name>
ethyl (4s)-4-(7-chloro-1-3-benzodioxol-5-yl)-2-5-dioxo-4-6-dihydro-3h-pyrano[3-2-c]pyridine-8-carboxylate

>  <SMILES>
CCOC(=O)c1c[nH]c(=O)c2c1OC(=O)C[C@H]2c1cc(Cl)c2c(c1)OCO2

>  <CID>
100004914

>  <logBB>


>  <BBB+/BBB->
BBB+

>  <Inchi>
InChI=1S/C18H14ClNO7/c1-2-24-18(23)10-6-20-17(22)14-9(5-13(21)27-15(10)14)8-3-11(19)16-12(4-8)25-7-26-16/h3-4-6-9H-2-5-7H2-1H3-(H-20-22)/t9-/m0/s1

>  <threshold>
-1

>  <reference>
R16|R16|R10|R10|

>  <group>
B

>  <Class>
-1

>  <ABC>
21.33

>  <ABCGG>
17.35

>  <nAcid>
0

>  <nBase>
0

>  <nAromAtom>
12

>  <nAromBond>
12

>  <nAtom>
41

>  <nHeavyAtom>
27

>  <nSpiro>
0

>  <nBridgehead>
0

>  <nHetero>
9

>  <nN>
1

>  <nO>
7

>  <nF>
0

>  <BalabanJ>
1.55

>  <BertzCT>
1013.5

>  <nBonds>
44

>  <nBondsO>
30

>  <nBondsS>
29

>  <nBondsD>
3

>  <nBondsT>
0

>  <nBondsA>
12

>  <nBondsM>
15

>  <nBondsKS>
36

>  <nBondsKD>
8

>  <RNCG>
0.15

>  <RPCG>
0.11

>  <FCSP3>
0.28

>  <SZ>
33.67

>  <Sm>
32.62

>  <Sv>
28.65

>  <Sse>
42.96

>  <Sp>
28.92

>  <Si>
45.82

>  <MZ>
0.82

>  <Mm>
0.8

>  <Mv>
0.7

>  <Mse>
1.05

>  <Mp>
0.71

>  <Mi>
1.12

>  <NsCH3>
1

>  <NdCH2>
0

>  <NssCH2>
3

>  <NtCH>
0

>  <NdsCH>
0

>  <NaaCH>
3

>  <NsssCH>
1

>  <NddC>
0

>  <NtsC>
0

>  <NdssC>
2

>  <NaasC>
7

>  <NaaaC>
0

>  <NssssC>
0

>  <NsNH3>
0

>  <NsNH2>
0

>  <NssNH2>
0

>  <NdNH>
0

>  <NssNH>
0

>  <NaaNH>
1

>  <NtN>
0

>  <NsssNH>
0

>  <NdsN>
0

>  <NaaN>
0

>  <NsssN>
0

>  <NddsN>
0

>  <NaasN>
0

>  <NssssN>
0

>  <NsOH>
0

>  <NdO>
3

>  <NssO>
4

>  <NaaO>
0

>  <NsF>
0

>  <NsSiH3>
0

>  <NssSiH2>
0

>  <NsssSiH>
0

>  <NssssSi>
0

>  <NsPH2>
0

>  <NssPH>
0

>  <NsssP>
0

>  <NdsssP>
0

>  <NsssssP>
0

>  <NsSH>
0

>  <NdS>
0

>  <NssS>
0

>  <NaaS>
0

>  <NdssS>
0

>  <NddssS>
0

>  <NsCl>
1

>  <NsBr>
0

>  <NsI>
0

>  <fragCpx>
198.09

>  <fMF>
0.46

>  <nHBAcc>
7

>  <nHBDon>
1

>  <Kier1>
20.28

>  <Kier2>
8.39

>  <Lipinski>
1

>  <GhoseFilter>
1

>  <FilterItLogS>
-5

>  <VMcGowan>
249.95

>  <LabuteASA>
157.49

>  <PEOE_VSA1>
23.93

>  <PEOE_VSA2>
9.59

>  <PEOE_VSA3>
4.79

>  <PEOE_VSA4>
0

>  <PEOE_VSA5>
0

>  <PEOE_VSA6>
11.6

>  <PEOE_VSA7>
24.62

>  <PEOE_VSA8>
12.11

>  <PEOE_VSA9>
23.61

>  <PEOE_VSA10>
5.56

>  <PEOE_VSA11>
17.25

>  <PEOE_VSA12>
6.79

>  <PEOE_VSA13>
5.56

>  <SMR_VSA1>
28.54

>  <SMR_VSA2>
0

>  <SMR_VSA3>
4.98

>  <SMR_VSA4>
0

>  <SMR_VSA5>
19.26

>  <SMR_VSA6>
13.4

>  <SMR_VSA7>
50.4

>  <SMR_VSA8>
0

>  <SMR_VSA9>
17.25

>  <SlogP_VSA1>
19.77

>  <SlogP_VSA2>
30.32

>  <SlogP_VSA3>
9.53

>  <SlogP_VSA4>
0

>  <SlogP_VSA5>
40.75

>  <SlogP_VSA6>
23.12

>  <SlogP_VSA7>
5.02

>  <SlogP_VSA8>
0

>  <SlogP_VSA9>
0

>  <SlogP_VSA10>
0

>  <SlogP_VSA11>
17.25

>  <EState_VSA1>
23.42

>  <EState_VSA2>
36.7

>  <EState_VSA3>
22.09

>  <EState_VSA4>
0

>  <EState_VSA5>
6.2

>  <EState_VSA6>
19.06

>  <EState_VSA7>
0

>  <EState_VSA8>
4.98

>  <EState_VSA9>
30.55

>  <EState_VSA10>
14.38

>  <VSA_EState1>
20.87

>  <VSA_EState2>
39.42

>  <VSA_EState3>
0.3

>  <VSA_EState4>
0.25

>  <VSA_EState5>
-1.18

>  <VSA_EState6>
3.27

>  <VSA_EState7>
1.1

>  <VSA_EState8>
1.83

>  <VSA_EState9>
0

>  <apol>
48.29

>  <bpol>
24.67

>  <nRing>
4

>  <nHRing>
3

>  <naRing>
2

>  <naHRing>
1

>  <nARing 2>
2

>  <nAHRing 2>
2

>  <nFRing>
2

>  <nFHRing>
2

>  <nFaRing>
0

>  <nFaHRing>
0

>  <nFARing 2>
2

>  <nFAHRing 2>
2

>  <nRot>
3

>  <SLogP>
2.37

>  <SMR>
92.69

>  <TopoPSA(NO)>
103.92

>  <TopoPSA>
103.92

>  <JGI1>
0.18

>  <JGI2>
0.08

>  <JGI3>
0.05

>  <JGI4>
0.05

>  <JGI5>
0.03

>  <Diameter>
12

>  <Radius>
6

>  <TMWC10>
134.79

>  <TSRW10>
76.32

>  <MW>
391.05

>  <AMW>
9.54

>  <WPath>
1696

>  <WPol>
48

>  <Zagreb1>
148

>  <Zagreb2>
180

>  <mZagreb2>
5.89

>  <yes>


>  <nAR-cont>
1

>  <nHA-cont>
0.860070871

>  <MWHBN>
0.404551524

>  <MWHBN-cont>
0.458166955

>  <TPSA-cont>
0.27457387

>  <pka_cont>
0.97

>  <yes.1>


>  <BBB_SCORE>
3.581469043

>  <MMFF94 Energy>
19.934

$$$$
Compound 2119
Actelion Java MolfileCreator 2.0

  0  0  0  0  0  0              0 V3000
M  V30 BEGIN CTAB
M  V30 COUNTS 43 44 0 0 0
M  V30 BEGIN ATOM
M  V30 1 S 0.3235 -2.4284 1.2946 0
M  V30 2 O 1.7474 -2.5761 1.0807 0
M  V30 3 O -0.2043 -2.3033 2.6401 0
M  V30 4 C -0.2947 -0.9722 0.4253 0 CFG=2
M  V30 5 C -0.5205 -3.7894 0.5377 0
M  V30 6 C 0.4082 -0.408 -0.8144 0 CFG=2
M  V30 7 C 0.6143 0.2129 0.5834 0 CFG=1
M  V30 8 C -0.5133 0.2198 -1.82 0
M  V30 9 C 1.6007 -1.1237 -1.4299 0
M  V30 10 C 0.0954 1.5892 0.9605 0
M  V30 11 S -0.1366 1.6734 -2.5251 0
M  V30 12 N -1.6201 -0.4855 -2.1908 0
M  V30 13 O 1.1638 -2.4004 -1.8995 0
M  V30 14 C -1.199 1.8344 1.4478 0
M  V30 15 C 0.9825 2.6798 0.9693 0
M  V30 16 C 2.2512 -3.1384 -2.459 0
M  V30 17 C -1.6093 3.1126 1.8574 0
M  V30 18 C 0.5799 3.9566 1.3752 0
M  V30 19 C 1.7231 -4.4678 -2.9595 0
M  V30 20 C -0.7209 4.1825 1.8161 0
M  V30 21 O -0.9887 5.4707 2.1853 0
M  V30 22 C -2.3156 5.7538 2.6101 0
M  V30 23 H -1.3627 -0.8383 0.508 0
M  V30 24 H -0.2548 -3.8567 -0.5142 0
M  V30 25 H -1.5962 -3.6382 0.648 0
M  V30 26 H -0.2205 -4.7036 1.0541 0
M  V30 27 H 1.5961 0.0185 1.0201 0
M  V30 28 H 1.9877 -0.5484 -2.2793 0
M  V30 29 H 2.4334 -1.2302 -0.7283 0
M  V30 30 H -1.8045 -1.4276 -1.8759 0
M  V30 31 H -2.2334 -0.0933 -2.8963 0
M  V30 32 H -1.9208 1.027 1.5277 0
M  V30 33 H 2.0095 2.5407 0.6371 0
M  V30 34 H 3.0169 -3.3063 -1.694 0
M  V30 35 H 2.6895 -2.5766 -3.2911 0
M  V30 36 H -2.6274 3.2293 2.2129 0
M  V30 37 H 1.291 4.7783 1.3476 0
M  V30 38 H 2.5233 -5.0591 -3.4131 0
M  V30 39 H 1.2836 -5.0427 -2.1381 0
M  V30 40 H 0.932 -4.3144 -3.7007 0
M  V30 41 H -3.0383 5.5511 1.8129 0
M  V30 42 H -2.3708 6.821 2.8456 0
M  V30 43 H -2.5647 5.199 3.5207 0
M  V30 END ATOM
M  V30 BEGIN BOND
M  V30 1 2 1 2
M  V30 2 2 1 3
M  V30 3 1 1 4
M  V30 4 1 1 5
M  V30 5 1 4 6
M  V30 6 1 4 7
M  V30 7 1 6 8
M  V30 8 1 6 9
M  V30 9 1 7 10
M  V30 10 2 8 11
M  V30 11 1 8 12
M  V30 12 1 9 13
M  V30 13 2 10 14
M  V30 14 1 10 15
M  V30 15 1 13 16
M  V30 16 1 14 17
M  V30 17 2 15 18
M  V30 18 1 16 19
M  V30 19 2 17 20
M  V30 20 1 20 21
M  V30 21 1 21 22
M  V30 22 1 6 7
M  V30 23 1 18 20
M  V30 24 1 4 23
M  V30 25 1 5 24
M  V30 26 1 5 25
M  V30 27 1 5 26
M  V30 28 1 7 27
M  V30 29 1 9 28
M  V30 30 1 9 29
M  V30 31 1 12 30
M  V30 32 1 12 31
M  V30 33 1 14 32
M  V30 34 1 15 33
M  V30 35 1 16 34
M  V30 36 1 16 35
M  V30 37 1 17 36
M  V30 38 1 18 37
M  V30 39 1 19 38
M  V30 40 1 19 39
M  V30 41 1 19 40
M  V30 42 1 22 41
M  V30 43 1 22 42
M  V30 44 1 22 43
M  V30 END BOND
M  V30 BEGIN COLLECTION
M  V30 MDLV30/STEABS ATOMS=(3 4 6 7)
M  V30 END COLLECTION
M  V30 END CTAB
M  END
>  <Column 1>
2612

>  <level_0>
3841

>  <index>
3841

>  <Unnamed: 0>
3841

>  <NO.>
3853

>  <Name>
efavirenz

>  <IUPAC_name>
(1r-2r-3s)-1-(ethoxymethyl)-2-(4-methoxyphenyl)-3-methylsulfonylcyclopropane-1-carbothioamide

>  <SMILES>
CCOC[C@@]1(C(N)=S)[C@@H](S(C)(=O)=O)[C@@H]1c1ccc(OC)cc1

>  <CID>
100003203

>  <logBB>


>  <BBB+/BBB->
BBB-

>  <Inchi>
InChI=1S/C15H21NO4S2/c1-4-20-9-15(14(16)21)12(13(15)22(3-17)18)10-5-7-11(19-2)8-6-10/h5-8-12-13H-4-9H2-1-3H3-(H2-16-21)/t12--13--15-/m0/s1

>  <threshold>
-1

>  <reference>
R16|R10|

>  <group>
B

>  <Class>
1

>  <ABC>
16.63

>  <ABCGG>
15.31

>  <nAcid>
0

>  <nBase>
0

>  <nAromAtom>
6

>  <nAromBond>
6

>  <nAtom>
43

>  <nHeavyAtom>
22

>  <nSpiro>
0

>  <nBridgehead>
0

>  <nHetero>
7

>  <nN>
1

>  <nO>
4

>  <nF>
0

>  <BalabanJ>
2.16

>  <BertzCT>
656.62

>  <nBonds>
44

>  <nBondsO>
23

>  <nBondsS>
35

>  <nBondsD>
3

>  <nBondsT>
0

>  <nBondsA>
6

>  <nBondsM>
9

>  <nBondsKS>
38

>  <nBondsKD>
6

>  <RNCG>
0.25

>  <RPCG>
0.08

>  <FCSP3>
0.53

>  <SZ>
30.33

>  <Sm>
28.6

>  <Sv>
26.68

>  <Sse>
43.46

>  <Sp>
29.44

>  <Si>
48.33

>  <MZ>
0.71

>  <Mm>
0.67

>  <Mv>
0.62

>  <Mse>
1.01

>  <Mp>
0.68

>  <Mi>
1.12

>  <NsCH3>
3

>  <NdCH2>
0

>  <NssCH2>
2

>  <NtCH>
0

>  <NdsCH>
0

>  <NaaCH>
4

>  <NsssCH>
2

>  <NddC>
0

>  <NtsC>
0

>  <NdssC>
1

>  <NaasC>
2

>  <NaaaC>
0

>  <NssssC>
1

>  <NsNH3>
0

>  <NsNH2>
1

>  <NssNH2>
0

>  <NdNH>
0

>  <NssNH>
0

>  <NaaNH>
0

>  <NtN>
0

>  <NsssNH>
0

>  <NdsN>
0

>  <NaaN>
0

>  <NsssN>
0

>  <NddsN>
0

>  <NaasN>
0

>  <NssssN>
0

>  <NsOH>
0

>  <NdO>
2

>  <NssO>
2

>  <NaaO>
0

>  <NsF>
0

>  <NsSiH3>
0

>  <NssSiH2>
0

>  <NsssSiH>
0

>  <NssssSi>
0

>  <NsPH2>
0

>  <NssPH>
0

>  <NsssP>
0

>  <NdsssP>
0

>  <NsssssP>
0

>  <NsSH>
0

>  <NdS>
1

>  <NssS>
0

>  <NaaS>
0

>  <NdssS>
0

>  <NddssS>
1

>  <NsCl>
0

>  <NsBr>
0

>  <NsI>
0

>  <fragCpx>
67.07

>  <fMF>
0.21

>  <nHBAcc>
5

>  <nHBDon>
1

>  <Kier1>
18.34

>  <Kier2>
6.86

>  <Lipinski>
1

>  <GhoseFilter>
1

>  <FilterItLogS>
-3.29

>  <VMcGowan>
249.45

>  <LabuteASA>
136.26

>  <PEOE_VSA1>
15.21

>  <PEOE_VSA2>
0

>  <PEOE_VSA3>
8.42

>  <PEOE_VSA4>
0

>  <PEOE_VSA5>
0

>  <PEOE_VSA6>
24.35

>  <PEOE_VSA7>
24.62

>  <PEOE_VSA8>
18.78

>  <PEOE_VSA9>
29.37

>  <PEOE_VSA10>
5.75

>  <PEOE_VSA11>
9.84

>  <PEOE_VSA12>
0

>  <PEOE_VSA13>
0

>  <SMR_VSA1>
17.89

>  <SMR_VSA2>
0

>  <SMR_VSA3>
0

>  <SMR_VSA4>
11.15

>  <SMR_VSA5>
18.09

>  <SMR_VSA6>
26.58

>  <SMR_VSA7>
29.83

>  <SMR_VSA8>
0

>  <SMR_VSA9>
5.75

>  <SlogP_VSA1>
10.47

>  <SlogP_VSA2>
45.24

>  <SlogP_VSA3>
14.57

>  <SlogP_VSA4>
5.41

>  <SlogP_VSA5>
18.41

>  <SlogP_VSA6>
24.27

>  <SlogP_VSA7>
0

>  <SlogP_VSA8>
0

>  <SlogP_VSA9>
0

>  <SlogP_VSA10>
0

>  <SlogP_VSA11>
5.75

>  <EState_VSA1>
20.5

>  <EState_VSA2>
17.51

>  <EState_VSA3>
12.36

>  <EState_VSA4>
5.56

>  <EState_VSA5>
6.26

>  <EState_VSA6>
19.24

>  <EState_VSA7>
19.06

>  <EState_VSA8>
0

>  <EState_VSA9>
27.43

>  <EState_VSA10>
8.42

>  <VSA_EState1>
35

>  <VSA_EState2>
0.19

>  <VSA_EState3>
-0.64

>  <VSA_EState4>
5.96

>  <VSA_EState5>
0.43

>  <VSA_EState6>
7.32

>  <VSA_EState7>
1.22

>  <VSA_EState8>
2.55

>  <VSA_EState9>
-1.72

>  <apol>
49.16

>  <bpol>
31.86

>  <nRing>
2

>  <nHRing>
0

>  <naRing>
1

>  <naHRing>
0

>  <nARing 2>
1

>  <nAHRing 2>
0

>  <nFRing>
0

>  <nFHRing>
0

>  <nFaRing>
0

>  <nFaHRing>
0

>  <nFARing 2>
0

>  <nFAHRing 2>
0

>  <nRot>
7

>  <SLogP>
1.51

>  <SMR>
90.08

>  <TopoPSA(NO)>
78.62

>  <TopoPSA>
119.09

>  <JGI1>
0.28

>  <JGI2>
0.13

>  <JGI3>
0.1

>  <JGI4>
0.07

>  <JGI5>
0.03

>  <Diameter>
11

>  <Radius>
6

>  <TMWC10>
122.25

>  <TSRW10>
78.28

>  <MW>
343.09

>  <AMW>
7.98

>  <WPath>
1009

>  <WPol>
35

>  <Zagreb1>
116

>  <Zagreb2>
142

>  <mZagreb2>
4.93

>  <yes>


>  <nAR-cont>
0.816016

>  <nHA-cont>
0.983774276

>  <MWHBN>
0.323927053

>  <MWHBN-cont>
0.7638664

>  <TPSA-cont>
0.16867785

>  <pka_cont>
0.97

>  <yes.1>


>  <BBB_SCORE>
3.767945575

>  <MMFF94 Energy>
-2.0187

$$$$
Compound 2120
Actelion Java MolfileCreator 2.0

  0  0  0  0  0  0              0 V3000
M  V30 BEGIN CTAB
M  V30 COUNTS 52 54 0 0 0
M  V30 BEGIN ATOM
M  V30 1 Cl 5.8921 -2.6973 3.1883 0
M  V30 2 C 4.5109 -2.4086 2.205 0
M  V30 3 C 4.6182 -1.5758 1.0902 0
M  V30 4 C 3.2934 -3.0081 2.528 0
M  V30 5 C 3.4987 -1.3332 0.291 0
M  V30 6 C 2.1698 -2.7688 1.7344 0
M  V30 7 C 2.2754 -1.9238 0.6239 0
M  V30 8 S 0.8299 -1.5944 -0.3647 0
M  V30 9 O 1.1141 -2.1927 -1.6556 0
M  V30 10 O -0.3242 -1.996 0.4088 0
M  V30 11 C 0.8212 0.1797 -0.6452 0 CFG=2
M  V30 12 C 0.201 1.1158 0.3919 0 CFG=1
M  V30 13 C -0.4447 0.8919 -0.9922 0 CFG=2
M  V30 14 C -0.2555 0.5587 1.7025 0
M  V30 15 C 0.9616 2.4332 0.5568 0
M  V30 16 C -1.8147 0.3215 -1.2807 0
M  V30 17 S -1.7995 0.7481 2.2663 0
M  V30 18 N 0.7193 0.077 2.5266 0
M  V30 19 O 2.3182 2.1131 0.8882 0
M  V30 20 C -2.034 -0.8867 -1.9585 0
M  V30 21 C -2.9671 1.0447 -0.921 0
M  V30 22 C 3.0809 3.2842 1.1727 0
M  V30 23 C -3.3228 -1.3716 -2.2184 0
M  V30 24 C -4.2598 0.5715 -1.1753 0
M  V30 25 C 4.4978 2.856 1.4986 0
M  V30 26 C -4.4488 -0.6517 -1.8171 0
M  V30 27 C -5.8344 -1.1678 -2.1008 0
M  V30 28 C -6.3506 -0.6923 -3.4501 0
M  V30 29 H 5.5719 -1.1194 0.8363 0
M  V30 30 H 3.213 -3.6626 3.3926 0
M  V30 31 H 3.6008 -0.6988 -0.585 0
M  V30 32 H 1.2201 -3.237 1.9888 0
M  V30 33 H 1.6969 0.5254 -1.181 0
M  V30 34 H -0.2731 1.7141 -1.6942 0
M  V30 35 H 0.5117 3.038 1.3532 0
M  V30 36 H 0.9526 3.0235 -0.3664 0
M  V30 37 H 1.7061 0.1445 2.3054 0
M  V30 38 H 0.4587 -0.2655 3.4441 0
M  V30 39 H -1.2004 -1.4745 -2.3303 0
M  V30 40 H -2.8631 2.0081 -0.4251 0
M  V30 41 H 2.6443 3.8116 2.0277 0
M  V30 42 H 3.0811 3.9469 0.3006 0
M  V30 43 H -3.4331 -2.3196 -2.7402 0
M  V30 44 H -5.1136 1.1668 -0.8607 0
M  V30 45 H 5.1251 3.7222 1.7262 0
M  V30 46 H 4.5071 2.1765 2.3574 0
M  V30 47 H 4.9385 2.3107 0.6576 0
M  V30 48 H -6.5187 -0.8434 -1.3072 0
M  V30 49 H -5.8333 -2.2642 -2.0699 0
M  V30 50 H -7.3577 -1.0822 -3.6287 0
M  V30 51 H -5.7047 -1.0345 -4.2656 0
M  V30 52 H -6.3973 0.401 -3.4949 0
M  V30 END ATOM
M  V30 BEGIN BOND
M  V30 1 1 1 2
M  V30 2 2 2 3
M  V30 3 1 2 4
M  V30 4 1 3 5
M  V30 5 2 4 6
M  V30 6 2 5 7
M  V30 7 1 7 8
M  V30 8 2 8 9
M  V30 9 2 8 10
M  V30 10 1 8 11
M  V30 11 1 11 12
M  V30 12 1 11 13
M  V30 13 1 12 14
M  V30 14 1 12 15
M  V30 15 1 13 16
M  V30 16 2 14 17
M  V30 17 1 14 18
M  V30 18 1 15 19
M  V30 19 2 16 20
M  V30 20 1 16 21
M  V30 21 1 19 22
M  V30 22 1 20 23
M  V30 23 2 21 24
M  V30 24 1 22 25
M  V30 25 2 23 26
M  V30 26 1 26 27
M  V30 27 1 27 28
M  V30 28 1 6 7
M  V30 29 1 12 13
M  V30 30 1 24 26
M  V30 31 1 3 29
M  V30 32 1 4 30
M  V30 33 1 5 31
M  V30 34 1 6 32
M  V30 35 1 11 33
M  V30 36 1 13 34
M  V30 37 1 15 35
M  V30 38 1 15 36
M  V30 39 1 18 37
M  V30 40 1 18 38
M  V30 41 1 20 39
M  V30 42 1 21 40
M  V30 43 1 22 41
M  V30 44 1 22 42
M  V30 45 1 23 43
M  V30 46 1 24 44
M  V30 47 1 25 45
M  V30 48 1 25 46
M  V30 49 1 25 47
M  V30 50 1 27 48
M  V30 51 1 27 49
M  V30 52 1 28 50
M  V30 53 1 28 51
M  V30 54 1 28 52
M  V30 END BOND
M  V30 BEGIN COLLECTION
M  V30 MDLV30/STEABS ATOMS=(3 11 12 13)
M  V30 END COLLECTION
M  V30 END CTAB
M  END
>  <Column 1>
2613

>  <level_0>
3842

>  <index>
3842

>  <Unnamed: 0>
3842

>  <NO.>
3854

>  <Name>
hydrocodone

>  <IUPAC_name>
(1s-2s-3s)-2-(4-chlorophenyl)sulfonyl-1-(ethoxymethyl)-3-(4-ethylphenyl)cyclopropane-1-carbothioamide

>  <SMILES>
CCOC[C@@]1(C(N)=S)[C@H](c2ccc(CC)cc2)[C@@H]1S(=O)(=O)c1ccc(Cl)cc1

>  <CID>
100022258

>  <logBB>


>  <BBB+/BBB->
BBB+

>  <Inchi>
InChI=1S/C21H24ClNO3S2/c1-3-14-5-7-15(8-6-14)18-19(21(18-20(23)27)13-26-4-2)28(24-25)17-11-9-16(22)10-12-17/h5-12-18-19H-3-4-13H2-1-2H3-(H2-23-27)/t18--19+-21-/m1/s1

>  <threshold>
-1

>  <reference>
R16|R10|R10|

>  <group>
B

>  <Class>
-1

>  <ABC>
21.47

>  <ABCGG>
18.48

>  <nAcid>
0

>  <nBase>
0

>  <nAromAtom>
12

>  <nAromBond>
12

>  <nAtom>
52

>  <nHeavyAtom>
28

>  <nSpiro>
0

>  <nBridgehead>
0

>  <nHetero>
7

>  <nN>
1

>  <nO>
3

>  <nF>
0

>  <BalabanJ>
1.82

>  <BertzCT>
958.15

>  <nBonds>
54

>  <nBondsO>
30

>  <nBondsS>
39

>  <nBondsD>
3

>  <nBondsT>
0

>  <nBondsA>
12

>  <nBondsM>
15

>  <nBondsKS>
45

>  <nBondsKD>
9

>  <RNCG>
0.2

>  <RPCG>
0.09

>  <FCSP3>
0.38

>  <SZ>
38.33

>  <Sm>
36.47

>  <Sv>
33.87

>  <Sse>
52.23

>  <Sp>
37.46

>  <Si>
57.89

>  <MZ>
0.74

>  <Mm>
0.7

>  <Mv>
0.65

>  <Mse>
1

>  <Mp>
0.72

>  <Mi>
1.11

>  <NsCH3>
2

>  <NdCH2>
0

>  <NssCH2>
3

>  <NtCH>
0

>  <NdsCH>
0

>  <NaaCH>
8

>  <NsssCH>
2

>  <NddC>
0

>  <NtsC>
0

>  <NdssC>
1

>  <NaasC>
4

>  <NaaaC>
0

>  <NssssC>
1

>  <NsNH3>
0

>  <NsNH2>
1

>  <NssNH2>
0

>  <NdNH>
0

>  <NssNH>
0

>  <NaaNH>
0

>  <NtN>
0

>  <NsssNH>
0

>  <NdsN>
0

>  <NaaN>
0

>  <NsssN>
0

>  <NddsN>
0

>  <NaasN>
0

>  <NssssN>
0

>  <NsOH>
0

>  <NdO>
2

>  <NssO>
1

>  <NaaO>
0

>  <NsF>
0

>  <NsSiH3>
0

>  <NssSiH2>
0

>  <NsssSiH>
0

>  <NssssSi>
0

>  <NsPH2>
0

>  <NssPH>
0

>  <NsssP>
0

>  <NdsssP>
0

>  <NsssssP>
0

>  <NsSH>
0

>  <NdS>
1

>  <NssS>
0

>  <NaaS>
0

>  <NdssS>
0

>  <NddssS>
1

>  <NsCl>
1

>  <NsBr>
0

>  <NsI>
0

>  <fragCpx>
144.07

>  <fMF>
0.31

>  <nHBAcc>
4

>  <nHBDon>
1

>  <Kier1>
22.68

>  <Kier2>
9.01

>  <Lipinski>
1

>  <GhoseFilter>
1

>  <FilterItLogS>
-6.01

>  <VMcGowan>
316.6

>  <LabuteASA>
176.51

>  <PEOE_VSA1>
10.47

>  <PEOE_VSA2>
0

>  <PEOE_VSA3>
8.42

>  <PEOE_VSA4>
0

>  <PEOE_VSA5>
0

>  <PEOE_VSA6>
55.01

>  <PEOE_VSA7>
48.74

>  <PEOE_VSA8>
17.55

>  <PEOE_VSA9>
27.16

>  <PEOE_VSA10>
0

>  <PEOE_VSA11>
9.84

>  <PEOE_VSA12>
0

>  <PEOE_VSA13>
0

>  <SMR_VSA1>
13.15

>  <SMR_VSA2>
0

>  <SMR_VSA3>
0

>  <SMR_VSA4>
11.15

>  <SMR_VSA5>
36.33

>  <SMR_VSA6>
13.21

>  <SMR_VSA7>
64.68

>  <SMR_VSA8>
0

>  <SMR_VSA9>
0

>  <SlogP_VSA1>
5.73

>  <SlogP_VSA2>
31.87

>  <SlogP_VSA3>
20.99

>  <SlogP_VSA4>
5.41

>  <SlogP_VSA5>
30.89

>  <SlogP_VSA6>
53.43

>  <SlogP_VSA7>
5.02

>  <SlogP_VSA8>
0

>  <SlogP_VSA9>
0

>  <SlogP_VSA10>
0

>  <SlogP_VSA11>
0

>  <EState_VSA1>
20.5

>  <EState_VSA2>
22.41

>  <EState_VSA3>
11.63

>  <EState_VSA4>
11.98

>  <EState_VSA5>
17.7

>  <EState_VSA6>
12.13

>  <EState_VSA7>
31.19

>  <EState_VSA8>
6.92

>  <EState_VSA9>
34.29

>  <EState_VSA10>
8.42

>  <VSA_EState1>
32.61

>  <VSA_EState2>
0.39

>  <VSA_EState3>
-0.28

>  <VSA_EState4>
7.29

>  <VSA_EState5>
-0.34

>  <VSA_EState6>
14.19

>  <VSA_EState7>
0.91

>  <VSA_EState8>
4.58

>  <VSA_EState9>
-3.68

>  <apol>
62.56

>  <bpol>
33.64

>  <nRing>
3

>  <nHRing>
0

>  <naRing>
2

>  <naHRing>
0

>  <nARing 2>
1

>  <nAHRing 2>
0

>  <nFRing>
0

>  <nFHRing>
0

>  <nFaRing>
0

>  <nFaHRing>
0

>  <nFARing 2>
0

>  <nFAHRing 2>
0

>  <nRot>
8

>  <SLogP>
4.15

>  <SMR>
116.7

>  <TopoPSA(NO)>
69.39

>  <TopoPSA>
109.86

>  <JGI1>
0.25

>  <JGI2>
0.13

>  <JGI3>
0.09

>  <JGI4>
0.06

>  <JGI5>
0.03

>  <Diameter>
13

>  <Radius>
7

>  <TMWC10>
137.43

>  <TSRW10>
85.52

>  <MW>
437.09

>  <AMW>
8.41

>  <WPath>
1918

>  <WPol>
48

>  <Zagreb1>
150

>  <Zagreb2>
185

>  <mZagreb2>
6.26

>  <yes>


>  <nAR-cont>
0.816016

>  <nHA-cont>
0.82432561

>  <MWHBN>
0.239157811

>  <MWHBN-cont>
0.976096623

>  <TPSA-cont>
0.233108981

>  <pka_cont>
0.97

>  <yes.1>


>  <BBB_SCORE>
4.055704507

>  <MMFF94 Energy>
46.006

$$$$
Compound 2121
Actelion Java MolfileCreator 2.0

  0  0  0  0  0  0              0 V3000
M  V30 BEGIN CTAB
M  V30 COUNTS 46 47 0 0 0
M  V30 BEGIN ATOM
M  V30 1 S -1.9367 -1.7752 -0.5645 0
M  V30 2 O -2.6333 -0.703 0.1082 0
M  V30 3 O -2.0385 -1.9578 -2.0005 0
M  V30 4 C -0.1742 -1.7165 -0.2226 0 CFG=2
M  V30 5 C -2.4567 -3.3138 0.167 0
M  V30 6 C 0.416 -0.9061 0.9318 0 CFG=1
M  V30 7 C 0.5737 -0.467 -0.545 0 CFG=2
M  V30 8 C -3.9283 -3.5828 -0.0792 0
M  V30 9 C -0.506 -0.3057 1.9445 0
M  V30 10 C 1.7086 -1.4532 1.5507 0
M  V30 11 C 0.1625 0.9063 -1.0331 0
M  V30 12 S -0.5035 1.3075 2.3187 0
M  V30 13 N -1.229 -1.1759 2.7125 0
M  V30 14 O 2.752 -0.4984 1.3735 0
M  V30 15 C 1.0245 1.9894 -0.7596 0
M  V30 16 C -0.9525 1.2056 -1.8249 0
M  V30 17 C 3.9433 -0.8691 2.06 0
M  V30 18 C 0.7611 3.2908 -1.2016 0
M  V30 19 C -1.2284 2.51 -2.2709 0
M  V30 20 C 4.9956 0.1881 1.7928 0
M  V30 21 C -0.3755 3.5612 -1.954 0
M  V30 22 O -0.5279 4.8672 -2.3266 0
M  V30 23 C -1.738 5.2012 -2.9941 0
M  V30 24 H 0.3252 -2.638 -0.4976 0
M  V30 25 H -2.2598 -3.2714 1.2384 0
M  V30 26 H -1.8476 -4.1087 -0.2734 0
M  V30 27 H 1.5574 -0.696 -0.9709 0
M  V30 28 H -4.222 -4.5341 0.3744 0
M  V30 29 H -4.551 -2.7923 0.3518 0
M  V30 30 H -4.1472 -3.6338 -1.1504 0
M  V30 31 H 2.0045 -2.3925 1.0688 0
M  V30 32 H 1.566 -1.657 2.6188 0
M  V30 33 H -1.1684 -2.1795 2.665 0
M  V30 34 H -1.8459 -0.7727 3.411 0
M  V30 35 H 1.9226 1.8172 -0.1665 0
M  V30 36 H -1.6391 0.4322 -2.1462 0
M  V30 37 H 4.2912 -1.8427 1.6983 0
M  V30 38 H 3.7457 -0.9342 3.1355 0
M  V30 39 H 1.4467 4.0938 -0.946 0
M  V30 40 H -2.1187 2.6566 -2.8731 0
M  V30 41 H 5.9318 -0.0551 2.3026 0
M  V30 42 H 5.1898 0.2757 0.7188 0
M  V30 43 H 4.6511 1.1698 2.1349 0
M  V30 44 H -1.7982 4.7071 -3.9693 0
M  V30 45 H -1.736 6.2814 -3.169 0
M  V30 46 H -2.6112 4.966 -2.3763 0
M  V30 END ATOM
M  V30 BEGIN BOND
M  V30 1 2 1 2
M  V30 2 2 1 3
M  V30 3 1 1 4
M  V30 4 1 1 5
M  V30 5 1 4 6
M  V30 6 1 4 7
M  V30 7 1 5 8
M  V30 8 1 6 9
M  V30 9 1 6 10
M  V30 10 1 7 11
M  V30 11 2 9 12
M  V30 12 1 9 13
M  V30 13 1 10 14
M  V30 14 2 11 15
M  V30 15 1 11 16
M  V30 16 1 14 17
M  V30 17 1 15 18
M  V30 18 2 16 19
M  V30 19 1 17 20
M  V30 20 2 18 21
M  V30 21 1 21 22
M  V30 22 1 22 23
M  V30 23 1 6 7
M  V30 24 1 19 21
M  V30 25 1 4 24
M  V30 26 1 5 25
M  V30 27 1 5 26
M  V30 28 1 7 27
M  V30 29 1 8 28
M  V30 30 1 8 29
M  V30 31 1 8 30
M  V30 32 1 10 31
M  V30 33 1 10 32
M  V30 34 1 13 33
M  V30 35 1 13 34
M  V30 36 1 15 35
M  V30 37 1 16 36
M  V30 38 1 17 37
M  V30 39 1 17 38
M  V30 40 1 18 39
M  V30 41 1 19 40
M  V30 42 1 20 41
M  V30 43 1 20 42
M  V30 44 1 20 43
M  V30 45 1 23 44
M  V30 46 1 23 45
M  V30 47 1 23 46
M  V30 END BOND
M  V30 BEGIN COLLECTION
M  V30 MDLV30/STEABS ATOMS=(3 4 6 7)
M  V30 END COLLECTION
M  V30 END CTAB
M  END
>  <Column 1>
2614

>  <level_0>
3843

>  <index>
3843

>  <Unnamed: 0>
3843

>  <NO.>
3855

>  <Name>
hydralazine

>  <IUPAC_name>
(1s-2s-3s)-1-(ethoxymethyl)-2-ethylsulfonyl-3-(4-methoxyphenyl)cyclopropane-1-carbothioamide

>  <SMILES>
CCOC[C@@]1(C(N)=S)[C@H](c2ccc(OC)cc2)[C@@H]1S(=O)(=O)CC

>  <CID>
100003637

>  <logBB>


>  <BBB+/BBB->
BBB-

>  <Inchi>
InChI=1S/C16H23NO4S2/c1-4-21-10-16(15(17)22)13(14(16)23(18-19)5-2)11-6-8-12(20-3)9-7-11/h6-9-13-14H-4-5-10H2-1-3H3-(H2-17-22)/t13--14+-16-/m1/s1

>  <threshold>
-1

>  <reference>
R16|R10|R10|

>  <group>
B

>  <Class>
1

>  <ABC>
17.18

>  <ABCGG>
15.92

>  <nAcid>
0

>  <nBase>
0

>  <nAromAtom>
6

>  <nAromBond>
6

>  <nAtom>
46

>  <nHeavyAtom>
23

>  <nSpiro>
0

>  <nBridgehead>
0

>  <nHetero>
7

>  <nN>
1

>  <nO>
4

>  <nF>
0

>  <BalabanJ>
2.2

>  <BertzCT>
671.83

>  <nBonds>
47

>  <nBondsO>
24

>  <nBondsS>
38

>  <nBondsD>
3

>  <nBondsT>
0

>  <nBondsA>
6

>  <nBondsM>
9

>  <nBondsKS>
41

>  <nBondsKD>
6

>  <RNCG>
0.24

>  <RPCG>
0.08

>  <FCSP3>
0.56

>  <SZ>
31.67

>  <Sm>
29.76

>  <Sv>
28.22

>  <Sse>
46.35

>  <Sp>
31.24

>  <Si>
51.74

>  <MZ>
0.69

>  <Mm>
0.65

>  <Mv>
0.61

>  <Mse>
1.01

>  <Mp>
0.68

>  <Mi>
1.12

>  <NsCH3>
3

>  <NdCH2>
0

>  <NssCH2>
3

>  <NtCH>
0

>  <NdsCH>
0

>  <NaaCH>
4

>  <NsssCH>
2

>  <NddC>
0

>  <NtsC>
0

>  <NdssC>
1

>  <NaasC>
2

>  <NaaaC>
0

>  <NssssC>
1

>  <NsNH3>
0

>  <NsNH2>
1

>  <NssNH2>
0

>  <NdNH>
0

>  <NssNH>
0

>  <NaaNH>
0

>  <NtN>
0

>  <NsssNH>
0

>  <NdsN>
0

>  <NaaN>
0

>  <NsssN>
0

>  <NddsN>
0

>  <NaasN>
0

>  <NssssN>
0

>  <NsOH>
0

>  <NdO>
2

>  <NssO>
2

>  <NaaO>
0

>  <NsF>
0

>  <NsSiH3>
0

>  <NssSiH2>
0

>  <NsssSiH>
0

>  <NssssSi>
0

>  <NsPH2>
0

>  <NssPH>
0

>  <NsssP>
0

>  <NdsssP>
0

>  <NsssssP>
0

>  <NsSH>
0

>  <NdS>
1

>  <NssS>
0

>  <NaaS>
0

>  <NdssS>
0

>  <NddssS>
1

>  <NsCl>
0

>  <NsBr>
0

>  <NsI>
0

>  <fragCpx>
70.07

>  <fMF>
0.2

>  <nHBAcc>
5

>  <nHBDon>
1

>  <Kier1>
19.33

>  <Kier2>
7.49

>  <Lipinski>
1

>  <GhoseFilter>
1

>  <FilterItLogS>
-3.68

>  <VMcGowan>
263.54

>  <LabuteASA>
142.63

>  <PEOE_VSA1>
15.21

>  <PEOE_VSA2>
0

>  <PEOE_VSA3>
8.42

>  <PEOE_VSA4>
0

>  <PEOE_VSA5>
0

>  <PEOE_VSA6>
31.27

>  <PEOE_VSA7>
24.62

>  <PEOE_VSA8>
18.28

>  <PEOE_VSA9>
29.37

>  <PEOE_VSA10>
5.75

>  <PEOE_VSA11>
9.84

>  <PEOE_VSA12>
0

>  <PEOE_VSA13>
0

>  <SMR_VSA1>
17.89

>  <SMR_VSA2>
0

>  <SMR_VSA3>
0

>  <SMR_VSA4>
11.15

>  <SMR_VSA5>
25.02

>  <SMR_VSA6>
26.08

>  <SMR_VSA7>
29.83

>  <SMR_VSA8>
0

>  <SMR_VSA9>
5.75

>  <SlogP_VSA1>
10.47

>  <SlogP_VSA2>
44.73

>  <SlogP_VSA3>
14.57

>  <SlogP_VSA4>
5.41

>  <SlogP_VSA5>
25.33

>  <SlogP_VSA6>
24.27

>  <SlogP_VSA7>
0

>  <SlogP_VSA8>
0

>  <SlogP_VSA9>
0

>  <SlogP_VSA10>
0

>  <SlogP_VSA11>
5.75

>  <EState_VSA1>
20.5

>  <EState_VSA2>
23.27

>  <EState_VSA3>
6.61

>  <EState_VSA4>
11.31

>  <EState_VSA5>
0

>  <EState_VSA6>
14.03

>  <EState_VSA7>
31.19

>  <EState_VSA8>
0

>  <EState_VSA9>
27.43

>  <EState_VSA10>
8.42

>  <VSA_EState1>
35.8

>  <VSA_EState2>
0.2

>  <VSA_EState3>
-0.63

>  <VSA_EState4>
6.03

>  <VSA_EState5>
0.5

>  <VSA_EState6>
7.36

>  <VSA_EState7>
0

>  <VSA_EState8>
4.21

>  <VSA_EState9>
-1.71

>  <apol>
52.16

>  <bpol>
33.86

>  <nRing>
2

>  <nHRing>
0

>  <naRing>
1

>  <naHRing>
0

>  <nARing 2>
1

>  <nAHRing 2>
0

>  <nFRing>
0

>  <nFHRing>
0

>  <nFaRing>
0

>  <nFaHRing>
0

>  <nFARing 2>
0

>  <nFAHRing 2>
0

>  <nRot>
8

>  <SLogP>
1.9

>  <SMR>
94.7

>  <TopoPSA(NO)>
78.62

>  <TopoPSA>
119.09

>  <JGI1>
0.27

>  <JGI2>
0.13

>  <JGI3>
0.1

>  <JGI4>
0.07

>  <JGI5>
0.03

>  <Diameter>
11

>  <Radius>
6

>  <TMWC10>
124.61

>  <TSRW10>
79.46

>  <MW>
357.11

>  <AMW>
7.76

>  <WPath>
1130

>  <WPol>
38

>  <Zagreb1>
120

>  <Zagreb2>
148

>  <mZagreb2>
5.31

>  <yes>


>  <nAR-cont>
0.816016

>  <nHA-cont>
0.967789328

>  <MWHBN>
0.317504763

>  <MWHBN-cont>
0.78548428

>  <TPSA-cont>
0.16867785

>  <pka_cont>
0.97

>  <yes.1>


>  <BBB_SCORE>
3.784387448

>  <MMFF94 Energy>
16.389

$$$$
Compound 2122
Actelion Java MolfileCreator 2.0

  0  0  0  0  0  0              0 V3000
M  V30 BEGIN CTAB
M  V30 COUNTS 44 45 0 0 0
M  V30 BEGIN ATOM
M  V30 1 S -2.4018 -0.3999 0.9602 0
M  V30 2 O -2.6498 -0.6905 2.3611 0
M  V30 3 O -2.4454 0.963 0.4789 0
M  V30 4 C -0.8234 -1.1773 0.5735 0 CFG=2
M  V30 5 C -3.5649 -1.3421 0.0119 0
M  V30 6 C 0.4065 -0.5381 1.2168 0 CFG=2
M  V30 7 C 0.2131 -0.5346 -0.3065 0 CFG=2
M  V30 8 C 1.4645 -1.48 1.7876 0
M  V30 9 C 0.3139 0.7509 2.0133 0
M  V30 10 C 0.0287 0.6865 -1.1733 0
M  V30 11 O 1.5772 -2.6676 0.9939 0
M  V30 12 N -0.1171 0.4587 3.375 0
M  V30 13 C 0.7957 1.8509 -1.006 0
M  V30 14 C -0.9487 0.7174 -2.1809 0
M  V30 15 C 2.5563 -3.5578 1.5254 0
M  V30 16 C 0.5995 2.9914 -1.7981 0
M  V30 17 C -1.1487 1.8509 -2.9764 0
M  V30 18 C 2.6212 -4.7816 0.6339 0
M  V30 19 C -0.3792 2.9963 -2.7868 0
M  V30 20 O -0.6727 4.0328 -3.6282 0
M  V30 21 C 0.0306 5.2498 -3.4143 0
M  V30 22 H -0.8689 -2.2595 0.569 0
M  V30 23 H -3.4978 -2.39 0.3099 0
M  V30 24 H -3.3369 -1.2276 -1.0483 0
M  V30 25 H -4.5658 -0.9587 0.2213 0
M  V30 26 H 0.8295 -1.2637 -0.8394 0
M  V30 27 H 1.1961 -1.7704 2.8095 0
M  V30 28 H 2.4344 -0.969 1.8012 0
M  V30 29 H 1.306 1.2142 2.0595 0
M  V30 30 H -0.3517 1.495 1.5735 0
M  V30 31 H -1.0651 0.0596 3.3471 0
M  V30 32 H -0.2345 1.3397 3.8759 0
M  V30 33 H 1.5825 1.8755 -0.2561 0
M  V30 34 H -1.5656 -0.1575 -2.364 0
M  V30 35 H 2.2759 -3.8527 2.5425 0
M  V30 36 H 3.533 -3.0624 1.5498 0
M  V30 37 H 1.2323 3.8528 -1.6146 0
M  V30 38 H -1.9161 1.8397 -3.746 0
M  V30 39 H 3.3622 -5.4954 1.0042 0
M  V30 40 H 1.6455 -5.2767 0.5873 0
M  V30 41 H 2.8838 -4.4985 -0.3906 0
M  V30 42 H -0.1552 5.6441 -2.4097 0
M  V30 43 H -0.3444 5.9836 -4.1343 0
M  V30 44 H 1.1024 5.122 -3.5974 0
M  V30 END ATOM
M  V30 BEGIN BOND
M  V30 1 2 1 2
M  V30 2 2 1 3
M  V30 3 1 1 4
M  V30 4 1 1 5
M  V30 5 1 4 6
M  V30 6 1 4 7
M  V30 7 1 6 8
M  V30 8 1 6 9
M  V30 9 1 7 10
M  V30 10 1 8 11
M  V30 11 1 9 12
M  V30 12 2 10 13
M  V30 13 1 10 14
M  V30 14 1 11 15
M  V30 15 1 13 16
M  V30 16 2 14 17
M  V30 17 1 15 18
M  V30 18 2 16 19
M  V30 19 1 19 20
M  V30 20 1 20 21
M  V30 21 1 6 7
M  V30 22 1 17 19
M  V30 23 1 4 22
M  V30 24 1 5 23
M  V30 25 1 5 24
M  V30 26 1 5 25
M  V30 27 1 7 26
M  V30 28 1 8 27
M  V30 29 1 8 28
M  V30 30 1 9 29
M  V30 31 1 9 30
M  V30 32 1 12 31
M  V30 33 1 12 32
M  V30 34 1 13 33
M  V30 35 1 14 34
M  V30 36 1 15 35
M  V30 37 1 15 36
M  V30 38 1 16 37
M  V30 39 1 17 38
M  V30 40 1 18 39
M  V30 41 1 18 40
M  V30 42 1 18 41
M  V30 43 1 21 42
M  V30 44 1 21 43
M  V30 45 1 21 44
M  V30 END BOND
M  V30 BEGIN COLLECTION
M  V30 MDLV30/STEABS ATOMS=(3 4 6 7)
M  V30 END COLLECTION
M  V30 END CTAB
M  END
>  <Column 1>
2615

>  <level_0>
3844

>  <index>
3844

>  <Unnamed: 0>
3844

>  <NO.>
3856

>  <Name>
diazepam

>  <IUPAC_name>
[(1s-2s-3s)-1-(ethoxymethyl)-2-(4-methoxyphenyl)-3-methylsulfonylcyclopropyl]methanamine

>  <SMILES>
CCOC[C@@]1(CN)[C@H](c2ccc(OC)cc2)[C@@H]1S(C)(=O)=O

>  <CID>
100003016

>  <logBB>


>  <BBB+/BBB->
BBB+

>  <Inchi>
InChI=1S/C15H23NO4S/c1-4-20-10-15(9-16)13(14(15)21(3-17)18)11-5-7-12(19-2)8-6-11/h5-8-13-14H-4-9-10-16H2-1-3H3/t13--14+-15+/m1/s1

>  <threshold>
-1

>  <reference>
R16|R16|R10|R10|

>  <group>
B

>  <Class>
-1

>  <ABC>
15.77

>  <ABCGG>
14.49

>  <nAcid>
0

>  <nBase>
1

>  <nAromAtom>
6

>  <nAromBond>
6

>  <nAtom>
44

>  <nHeavyAtom>
21

>  <nSpiro>
0

>  <nBridgehead>
0

>  <nHetero>
6

>  <nN>
1

>  <nO>
4

>  <nF>
0

>  <BalabanJ>
2.09

>  <BertzCT>
584.2

>  <nBonds>
45

>  <nBondsO>
22

>  <nBondsS>
37

>  <nBondsD>
2

>  <nBondsT>
0

>  <nBondsA>
6

>  <nBondsM>
8

>  <nBondsKS>
40

>  <nBondsKD>
5

>  <RNCG>
0.26

>  <RPCG>
0.08

>  <FCSP3>
0.6

>  <SZ>
28

>  <Sm>
26.09

>  <Sv>
26.04

>  <Sse>
44.27

>  <Sp>
28.5

>  <Si>
49.82

>  <MZ>
0.64

>  <Mm>
0.59

>  <Mv>
0.59

>  <Mse>
1.01

>  <Mp>
0.65

>  <Mi>
1.13

>  <NsCH3>
3

>  <NdCH2>
0

>  <NssCH2>
3

>  <NtCH>
0

>  <NdsCH>
0

>  <NaaCH>
4

>  <NsssCH>
2

>  <NddC>
0

>  <NtsC>
0

>  <NdssC>
0

>  <NaasC>
2

>  <NaaaC>
0

>  <NssssC>
1

>  <NsNH3>
0

>  <NsNH2>
1

>  <NssNH2>
0

>  <NdNH>
0

>  <NssNH>
0

>  <NaaNH>
0

>  <NtN>
0

>  <NsssNH>
0

>  <NdsN>
0

>  <NaaN>
0

>  <NsssN>
0

>  <NddsN>
0

>  <NaasN>
0

>  <NssssN>
0

>  <NsOH>
0

>  <NdO>
2

>  <NssO>
2

>  <NaaO>
0

>  <NsF>
0

>  <NsSiH3>
0

>  <NssSiH2>
0

>  <NsssSiH>
0

>  <NssssSi>
0

>  <NsPH2>
0

>  <NssPH>
0

>  <NsssP>
0

>  <NdsssP>
0

>  <NsssssP>
0

>  <NsSH>
0

>  <NdS>
0

>  <NssS>
0

>  <NaaS>
0

>  <NdssS>
0

>  <NddssS>
1

>  <NsCl>
0

>  <NsBr>
0

>  <NsI>
0

>  <fragCpx>
64.06

>  <fMF>
0.2

>  <nHBAcc>
5

>  <nHBDon>
1

>  <Kier1>
17.36

>  <Kier2>
6.63

>  <Lipinski>
1

>  <GhoseFilter>
1

>  <FilterItLogS>
-3.56

>  <VMcGowan>
237.4

>  <LabuteASA>
125.9

>  <PEOE_VSA1>
15.21

>  <PEOE_VSA2>
0

>  <PEOE_VSA3>
8.42

>  <PEOE_VSA4>
0

>  <PEOE_VSA5>
0

>  <PEOE_VSA6>
12.13

>  <PEOE_VSA7>
24.62

>  <PEOE_VSA8>
30.74

>  <PEOE_VSA9>
18.97

>  <PEOE_VSA10>
5.75

>  <PEOE_VSA11>
9.84

>  <PEOE_VSA12>
0

>  <PEOE_VSA13>
0

>  <SMR_VSA1>
17.89

>  <SMR_VSA2>
0

>  <SMR_VSA3>
0

>  <SMR_VSA4>
11.15

>  <SMR_VSA5>
18.09

>  <SMR_VSA6>
33.12

>  <SMR_VSA7>
29.83

>  <SMR_VSA8>
0

>  <SMR_VSA9>
5.75

>  <SlogP_VSA1>
10.47

>  <SlogP_VSA2>
46.79

>  <SlogP_VSA3>
14.57

>  <SlogP_VSA4>
5.41

>  <SlogP_VSA5>
18.41

>  <SlogP_VSA6>
24.27

>  <SlogP_VSA7>
0

>  <SlogP_VSA8>
0

>  <SlogP_VSA9>
0

>  <SlogP_VSA10>
0

>  <SlogP_VSA11>
5.75

>  <EState_VSA1>
20.5

>  <EState_VSA2>
5.92

>  <EState_VSA3>
19.76

>  <EState_VSA4>
11.31

>  <EState_VSA5>
6.26

>  <EState_VSA6>
7.11

>  <EState_VSA7>
31.19

>  <EState_VSA8>
0

>  <EState_VSA9>
15.21

>  <EState_VSA10>
8.42

>  <VSA_EState1>
34.85

>  <VSA_EState2>
0

>  <VSA_EState3>
-0.48

>  <VSA_EState4>
6.36

>  <VSA_EState5>
0.63

>  <VSA_EState6>
7.5

>  <VSA_EState7>
1.28

>  <VSA_EState8>
3.11

>  <VSA_EState9>
-1.58

>  <apol>
47.59

>  <bpol>
32.63

>  <nRing>
2

>  <nHRing>
0

>  <naRing>
1

>  <naHRing>
0

>  <nARing 2>
1

>  <nAHRing 2>
0

>  <nFRing>
0

>  <nFHRing>
0

>  <nFaRing>
0

>  <nFaHRing>
0

>  <nFARing 2>
0

>  <nFAHRing 2>
0

>  <nRot>
7

>  <SLogP>
1.19

>  <SMR>
82.35

>  <TopoPSA(NO)>
78.62

>  <TopoPSA>
87

>  <JGI1>
0.27

>  <JGI2>
0.13

>  <JGI3>
0.1

>  <JGI4>
0.06

>  <JGI5>
0.03

>  <Diameter>
11

>  <Radius>
6

>  <TMWC10>
119.52

>  <TSRW10>
76.9

>  <MW>
313.13

>  <AMW>
7.12

>  <WPath>
911

>  <WPol>
32

>  <Zagreb1>
110

>  <Zagreb2>
134

>  <mZagreb2>
4.81

>  <yes>


>  <nAR-cont>
0.816016

>  <nHA-cont>
0.994529749

>  <MWHBN>
0.339069645

>  <MWHBN-cont>
0.710507766

>  <TPSA-cont>
0.392685976

>  <pka_cont>
0.97

>  <yes.1>


>  <BBB_SCORE>
4.146679351

>  <MMFF94 Energy>
21.951

$$$$
Compound 2123
Actelion Java MolfileCreator 2.0

  0  0  0  0  0  0              0 V3000
M  V30 BEGIN CTAB
M  V30 COUNTS 48 50 0 0 0
M  V30 BEGIN ATOM
M  V30 1 S 0.4835 -2.5811 0.7254 0
M  V30 2 O 1.9028 -2.323 0.8681 0
M  V30 3 O 0.0043 -3.7318 -0.0136 0
M  V30 4 C -0.2084 -2.646 2.3582 0
M  V30 5 C -0.318 -1.1293 0.0132 0 CFG=2
M  V30 6 C 0.3482 -1.8535 3.3668 0
M  V30 7 C -1.2862 -3.4938 2.6243 0
M  V30 8 C 0.0348 -0.7939 -1.4217 0 CFG=2
M  V30 9 C 0.6048 0.0315 -0.2657 0 CFG=1
M  V30 10 C -0.195 -1.8986 4.6501 0
M  V30 11 C -1.8233 -3.5321 3.9109 0
M  V30 12 N -1.0956 -0.2452 -2.2474 0
M  V30 13 C 1.0237 -1.6389 -2.224 0
M  V30 14 C 0.1668 1.4564 -0.0041 0
M  V30 15 C -1.2803 -2.7343 4.9201 0
M  V30 16 O 1.3881 -0.891 -3.3939 0
M  V30 17 C 0.4531 2.4711 -0.9308 0
M  V30 18 C -0.5951 1.8131 1.12 0
M  V30 19 C 2.265 -1.6394 -4.2327 0
M  V30 20 C 0.0161 3.7839 -0.7321 0
M  V30 21 C -1.0352 3.1283 1.3237 0
M  V30 22 C 2.6091 -0.7911 -5.4405 0
M  V30 23 C -0.7294 4.1209 0.3962 0
M  V30 24 O -1.0954 5.4356 0.4707 0
M  V30 25 C -1.8532 5.8292 1.6076 0
M  V30 26 H -1.3402 -0.9564 0.3183 0
M  V30 27 H 1.2023 -1.2105 3.1655 0
M  V30 28 H -1.7095 -4.1243 1.8453 0
M  V30 29 H 1.668 -0.1108 -0.0766 0
M  V30 30 H 0.2312 -1.2897 5.4439 0
M  V30 31 H -2.6622 -4.1887 4.1303 0
M  V30 32 H -0.7228 -0.0734 -3.1879 0
M  V30 33 H -1.3746 0.6777 -1.913 0
M  V30 34 H 0.54 -2.5741 -2.5279 0
M  V30 35 H 1.9337 -1.8641 -1.661 0
M  V30 36 H -1.6989 -2.7717 5.9234 0
M  V30 37 H 1.0285 2.2351 -1.8249 0
M  V30 38 H -0.8517 1.0605 1.8623 0
M  V30 39 H 1.7711 -2.5626 -4.5547 0
M  V30 40 H 3.178 -1.8919 -3.6827 0
M  V30 41 H 0.2592 4.5481 -1.4664 0
M  V30 42 H -1.6154 3.3385 2.2159 0
M  V30 43 H 3.2826 -1.3271 -6.1148 0
M  V30 44 H 1.7025 -0.5171 -5.99 0
M  V30 45 H 3.0884 0.1435 -5.1311 0
M  V30 46 H -2.8152 5.3072 1.6408 0
M  V30 47 H -2.0589 6.9003 1.5181 0
M  V30 48 H -1.2872 5.6752 2.5323 0
M  V30 END ATOM
M  V30 BEGIN BOND
M  V30 1 2 1 2
M  V30 2 2 1 3
M  V30 3 1 1 4
M  V30 4 1 1 5
M  V30 5 2 4 6
M  V30 6 1 4 7
M  V30 7 1 5 8
M  V30 8 1 5 9
M  V30 9 1 6 10
M  V30 10 2 7 11
M  V30 11 1 8 12
M  V30 12 1 8 13
M  V30 13 1 9 14
M  V30 14 2 10 15
M  V30 15 1 13 16
M  V30 16 2 14 17
M  V30 17 1 14 18
M  V30 18 1 16 19
M  V30 19 1 17 20
M  V30 20 2 18 21
M  V30 21 1 19 22
M  V30 22 2 20 23
M  V30 23 1 23 24
M  V30 24 1 24 25
M  V30 25 1 8 9
M  V30 26 1 11 15
M  V30 27 1 21 23
M  V30 28 1 5 26
M  V30 29 1 6 27
M  V30 30 1 7 28
M  V30 31 1 9 29
M  V30 32 1 10 30
M  V30 33 1 11 31
M  V30 34 1 12 32
M  V30 35 1 12 33
M  V30 36 1 13 34
M  V30 37 1 13 35
M  V30 38 1 15 36
M  V30 39 1 17 37
M  V30 40 1 18 38
M  V30 41 1 19 39
M  V30 42 1 19 40
M  V30 43 1 20 41
M  V30 44 1 21 42
M  V30 45 1 22 43
M  V30 46 1 22 44
M  V30 47 1 22 45
M  V30 48 1 25 46
M  V30 49 1 25 47
M  V30 50 1 25 48
M  V30 END BOND
M  V30 BEGIN COLLECTION
M  V30 MDLV30/STEABS ATOMS=(3 5 8 9)
M  V30 END COLLECTION
M  V30 END CTAB
M  END
>  <Column 1>
2616

>  <level_0>
3845

>  <index>
3845

>  <Unnamed: 0>
3845

>  <NO.>
3857

>  <Name>
mepenzolate

>  <IUPAC_name>
(1r-2s-3r)-2-(benzenesulfonyl)-1-(ethoxymethyl)-3-(4-methoxyphenyl)cyclopropan-1-amine

>  <SMILES>
CCOC[C@@]1(N)[C@@H](S(=O)(=O)c2ccccc2)[C@@H]1c1ccc(OC)cc1

>  <CID>
100004057

>  <logBB>


>  <BBB+/BBB->
BBB-

>  <Inchi>
InChI=1S/C19H23NO4S/c1-3-24-13-19(20)17(14-9-11-15(23-2)12-10-14)18(19)25(21-22)16-7-5-4-6-8-16/h4-12-17-18H-3-13-20H2-1-2H3/t17--18--19-/m0/s1

>  <threshold>
-1

>  <reference>
R16|

>  <group>
B

>  <Class>
1

>  <ABC>
19.24

>  <ABCGG>
16.51

>  <nAcid>
0

>  <nBase>
1

>  <nAromAtom>
12

>  <nAromBond>
12

>  <nAtom>
48

>  <nHeavyAtom>
25

>  <nSpiro>
0

>  <nBridgehead>
0

>  <nHetero>
6

>  <nN>
1

>  <nO>
4

>  <nF>
0

>  <BalabanJ>
1.73

>  <BertzCT>
820.26

>  <nBonds>
50

>  <nBondsO>
27

>  <nBondsS>
36

>  <nBondsD>
2

>  <nBondsT>
0

>  <nBondsA>
12

>  <nBondsM>
14

>  <nBondsKS>
42

>  <nBondsKD>
8

>  <RNCG>
0.23

>  <RPCG>
0.09

>  <FCSP3>
0.37

>  <SZ>
32

>  <Sm>
30.09

>  <Sv>
30.04

>  <Sse>
48.27

>  <Sp>
32.5

>  <Si>
53.82

>  <MZ>
0.67

>  <Mm>
0.63

>  <Mv>
0.63

>  <Mse>
1.01

>  <Mp>
0.68

>  <Mi>
1.12

>  <NsCH3>
2

>  <NdCH2>
0

>  <NssCH2>
2

>  <NtCH>
0

>  <NdsCH>
0

>  <NaaCH>
9

>  <NsssCH>
2

>  <NddC>
0

>  <NtsC>
0

>  <NdssC>
0

>  <NaasC>
3

>  <NaaaC>
0

>  <NssssC>
1

>  <NsNH3>
0

>  <NsNH2>
1

>  <NssNH2>
0

>  <NdNH>
0

>  <NssNH>
0

>  <NaaNH>
0

>  <NtN>
0

>  <NsssNH>
0

>  <NdsN>
0

>  <NaaN>
0

>  <NsssN>
0

>  <NddsN>
0

>  <NaasN>
0

>  <NssssN>
0

>  <NsOH>
0

>  <NdO>
2

>  <NssO>
2

>  <NaaO>
0

>  <NsF>
0

>  <NsSiH3>
0

>  <NssSiH2>
0

>  <NsssSiH>
0

>  <NssssSi>
0

>  <NsPH2>
0

>  <NssPH>
0

>  <NsssP>
0

>  <NdsssP>
0

>  <NsssssP>
0

>  <NsSH>
0

>  <NdS>
0

>  <NssS>
0

>  <NaaS>
0

>  <NdssS>
0

>  <NddssS>
1

>  <NsCl>
0

>  <NsBr>
0

>  <NsI>
0

>  <fragCpx>
129.06

>  <fMF>
0.33

>  <nHBAcc>
5

>  <nHBDon>
1

>  <Kier1>
19.75

>  <Kier2>
7.94

>  <Lipinski>
1

>  <GhoseFilter>
1

>  <FilterItLogS>
-4.49

>  <VMcGowan>
270

>  <LabuteASA>
148.23

>  <PEOE_VSA1>
15.21

>  <PEOE_VSA2>
0

>  <PEOE_VSA3>
8.42

>  <PEOE_VSA4>
0

>  <PEOE_VSA5>
0

>  <PEOE_VSA6>
30.33

>  <PEOE_VSA7>
36.75

>  <PEOE_VSA8>
12.52

>  <PEOE_VSA9>
29.4

>  <PEOE_VSA10>
5.75

>  <PEOE_VSA11>
9.84

>  <PEOE_VSA12>
0

>  <PEOE_VSA13>
0

>  <SMR_VSA1>
17.89

>  <SMR_VSA2>
0

>  <SMR_VSA3>
0

>  <SMR_VSA4>
5.73

>  <SMR_VSA5>
28.53

>  <SMR_VSA6>
20.32

>  <SMR_VSA7>
60.16

>  <SMR_VSA8>
0

>  <SMR_VSA9>
5.75

>  <SlogP_VSA1>
10.47

>  <SlogP_VSA2>
39.53

>  <SlogP_VSA3>
14.57

>  <SlogP_VSA4>
0

>  <SlogP_VSA5>
18.41

>  <SlogP_VSA6>
59.49

>  <SlogP_VSA7>
0

>  <SlogP_VSA8>
0

>  <SlogP_VSA9>
0

>  <SlogP_VSA10>
0

>  <SlogP_VSA11>
5.75

>  <EState_VSA1>
20.63

>  <EState_VSA2>
12.52

>  <EState_VSA3>
11.5

>  <EState_VSA4>
11.31

>  <EState_VSA5>
0

>  <EState_VSA6>
37.44

>  <EState_VSA7>
31.19

>  <EState_VSA8>
0

>  <EState_VSA9>
15.21

>  <EState_VSA10>
8.42

>  <VSA_EState1>
36.92

>  <VSA_EState2>
0.29

>  <VSA_EState3>
-0.71

>  <VSA_EState4>
6.46

>  <VSA_EState5>
0.41

>  <VSA_EState6>
15.84

>  <VSA_EState7>
0

>  <VSA_EState8>
2.57

>  <VSA_EState9>
-1.96

>  <apol>
54.27

>  <bpol>
32.63

>  <nRing>
3

>  <nHRing>
0

>  <naRing>
2

>  <naHRing>
0

>  <nARing 2>
1

>  <nAHRing 2>
0

>  <nFRing>
0

>  <nFHRing>
0

>  <nFaRing>
0

>  <nFaHRing>
0

>  <nFARing 2>
0

>  <nFAHRing 2>
0

>  <nRot>
7

>  <SLogP>
2.37

>  <SMR>
96.56

>  <TopoPSA(NO)>
78.62

>  <TopoPSA>
87

>  <JGI1>
0.22

>  <JGI2>
0.13

>  <JGI3>
0.09

>  <JGI4>
0.05

>  <JGI5>
0.03

>  <Diameter>
12

>  <Radius>
6

>  <TMWC10>
130.08

>  <TSRW10>
81.78

>  <MW>
361.13

>  <AMW>
7.52

>  <WPath>
1458

>  <WPol>
40

>  <Zagreb1>
134

>  <Zagreb2>
164

>  <mZagreb2>
5.6

>  <yes>


>  <nAR-cont>
0.816016

>  <nHA-cont>
0.921834225

>  <MWHBN>
0.315732629

>  <MWHBN-cont>
0.791330691

>  <TPSA-cont>
0.392685976

>  <pka_cont>
0.97

>  <yes.1>


>  <BBB_SCORE>
4.195218214

>  <MMFF94 Energy>
82.575

$$$$
Compound 2124
Actelion Java MolfileCreator 2.0

  0  0  0  0  0  0              0 V3000
M  V30 BEGIN CTAB
M  V30 COUNTS 43 45 0 0 0
M  V30 BEGIN ATOM
M  V30 1 Cl -0.7393 2.0548 6.0089 0
M  V30 2 C -1.2446 1.3437 4.5261 0
M  V30 3 C -0.748 0.0932 4.1558 0
M  V30 4 C -2.1477 2.0203 3.7053 0
M  V30 5 C -1.1501 -0.4846 2.9503 0
M  V30 6 C -2.5556 1.4475 2.4988 0
M  V30 7 C -2.0439 0.203 2.1222 0
M  V30 8 S -2.5272 -0.5304 0.5808 0
M  V30 9 O -2.8931 -1.9042 0.8636 0
M  V30 10 O -3.4448 0.3599 -0.0979 0
M  V30 11 C -1.0062 -0.6274 -0.3751 0 CFG=2
M  V30 12 C -0.3826 0.6663 -0.8363 0 CFG=1
M  V30 13 C -1.1196 -0.2473 -1.8284 0 CFG=1
M  V30 14 C -0.9838 1.9572 -0.6122 0
M  V30 15 C 1.1228 0.6958 -0.7166 0
M  V30 16 C -0.3678 -1.0029 -2.9 0
M  V30 17 N -1.4353 3.0121 -0.4442 0
M  V30 18 O 1.4418 0.6688 0.6771 0
M  V30 19 C 0.336 -0.3155 -3.9046 0
M  V30 20 C -0.2683 -2.4042 -2.8859 0
M  V30 21 C 2.8389 0.833 0.9092 0
M  V30 22 C 1.0894 -0.9967 -4.8637 0
M  V30 23 C 0.4837 -3.0905 -3.8429 0
M  V30 24 C 3.0793 0.7734 2.4046 0
M  V30 25 C 1.163 -2.3856 -4.8317 0
M  V30 26 H -0.05 -0.4333 4.8016 0
M  V30 27 H -2.5343 2.9944 3.9955 0
M  V30 28 H -0.7666 -1.4629 2.6706 0
M  V30 29 H -3.2559 1.9844 1.8608 0
M  V30 30 H -0.3481 -1.4387 -0.0947 0
M  V30 31 H -2.0983 0.0955 -2.1674 0
M  V30 32 H 1.5332 1.5996 -1.1841 0
M  V30 33 H 1.5908 -0.1749 -1.1881 0
M  V30 34 H 0.288 0.771 -3.9526 0
M  V30 35 H -0.7962 -2.9802 -2.1275 0
M  V30 36 H 3.1678 1.8012 0.5165 0
M  V30 37 H 3.3938 0.0325 0.4084 0
M  V30 38 H 1.6142 -0.4422 -5.6376 0
M  V30 39 H 0.5342 -4.1763 -3.8168 0
M  V30 40 H 4.1412 0.8964 2.6347 0
M  V30 41 H 2.5126 1.5576 2.9179 0
M  V30 42 H 2.7373 -0.1837 2.8121 0
M  V30 43 H 1.7446 -2.9188 -5.5793 0
M  V30 END ATOM
M  V30 BEGIN BOND
M  V30 1 1 1 2
M  V30 2 2 2 3
M  V30 3 1 2 4
M  V30 4 1 3 5
M  V30 5 2 4 6
M  V30 6 2 5 7
M  V30 7 1 7 8
M  V30 8 2 8 9
M  V30 9 2 8 10
M  V30 10 1 8 11
M  V30 11 1 11 12
M  V30 12 1 11 13
M  V30 13 1 12 14
M  V30 14 1 12 15
M  V30 15 1 13 16
M  V30 16 3 14 17
M  V30 17 1 15 18
M  V30 18 2 16 19
M  V30 19 1 16 20
M  V30 20 1 18 21
M  V30 21 1 19 22
M  V30 22 2 20 23
M  V30 23 1 21 24
M  V30 24 2 22 25
M  V30 25 1 6 7
M  V30 26 1 12 13
M  V30 27 1 23 25
M  V30 28 1 3 26
M  V30 29 1 4 27
M  V30 30 1 5 28
M  V30 31 1 6 29
M  V30 32 1 11 30
M  V30 33 1 13 31
M  V30 34 1 15 32
M  V30 35 1 15 33
M  V30 36 1 19 34
M  V30 37 1 20 35
M  V30 38 1 21 36
M  V30 39 1 21 37
M  V30 40 1 22 38
M  V30 41 1 23 39
M  V30 42 1 24 40
M  V30 43 1 24 41
M  V30 44 1 24 42
M  V30 45 1 25 43
M  V30 END BOND
M  V30 BEGIN COLLECTION
M  V30 MDLV30/STEABS ATOMS=(3 11 12 13)
M  V30 END COLLECTION
M  V30 END CTAB
M  END
>  <Column 1>
2617

>  <level_0>
3846

>  <index>
3846

>  <Unnamed: 0>
3846

>  <NO.>
3858

>  <Name>
betahistine

>  <IUPAC_name>
(1s-2s-3r)-2-(4-chlorophenyl)sulfonyl-1-(ethoxymethyl)-3-phenylcyclopropane-1-carbonitrile

>  <SMILES>
CCOC[C@]1(C#N)[C@@H](S(=O)(=O)c2ccc(Cl)cc2)[C@@H]1c1ccccc1

>  <CID>
100002366

>  <logBB>


>  <BBB+/BBB->
BBB+

>  <Inchi>
InChI=1S/C19H18ClNO3S/c1-2-24-13-19(12-21)17(14-6-4-3-5-7-14)18(19)25(22-23)16-10-8-15(20)9-11-16/h3-11-17-18H-2-13H2-1H3/t17--18--19-/m0/s1

>  <threshold>
-1

>  <reference>
R16|R10|

>  <group>
B

>  <Class>
1

>  <ABC>
19.19

>  <ABCGG>
16.78

>  <nAcid>
0

>  <nBase>
0

>  <nAromAtom>
12

>  <nAromBond>
12

>  <nAtom>
43

>  <nHeavyAtom>
25

>  <nSpiro>
0

>  <nBridgehead>
0

>  <nHetero>
6

>  <nN>
1

>  <nO>
3

>  <nF>
0

>  <BalabanJ>
1.79

>  <BertzCT>
890.52

>  <nBonds>
45

>  <nBondsO>
27

>  <nBondsS>
30

>  <nBondsD>
2

>  <nBondsT>
1

>  <nBondsA>
12

>  <nBondsM>
15

>  <nBondsKS>
36

>  <nBondsKD>
8

>  <RNCG>
0.23

>  <RPCG>
0.11

>  <FCSP3>
0.32

>  <SZ>
32.67

>  <Sm>
31.29

>  <Sv>
29.06

>  <Sse>
43.49

>  <Sp>
31.33

>  <Si>
47.73

>  <MZ>
0.76

>  <Mm>
0.73

>  <Mv>
0.68

>  <Mse>
1.01

>  <Mp>
0.73

>  <Mi>
1.11

>  <NsCH3>
1

>  <NdCH2>
0

>  <NssCH2>
2

>  <NtCH>
0

>  <NdsCH>
0

>  <NaaCH>
9

>  <NsssCH>
2

>  <NddC>
0

>  <NtsC>
1

>  <NdssC>
0

>  <NaasC>
3

>  <NaaaC>
0

>  <NssssC>
1

>  <NsNH3>
0

>  <NsNH2>
0

>  <NssNH2>
0

>  <NdNH>
0

>  <NssNH>
0

>  <NaaNH>
0

>  <NtN>
1

>  <NsssNH>
0

>  <NdsN>
0

>  <NaaN>
0

>  <NsssN>
0

>  <NddsN>
0

>  <NaasN>
0

>  <NssssN>
0

>  <NsOH>
0

>  <NdO>
2

>  <NssO>
1

>  <NaaO>
0

>  <NsF>
0

>  <NsSiH3>
0

>  <NssSiH2>
0

>  <NsssSiH>
0

>  <NssssSi>
0

>  <NsPH2>
0

>  <NssPH>
0

>  <NsssP>
0

>  <NdsssP>
0

>  <NsssssP>
0

>  <NsSH>
0

>  <NdS>
0

>  <NssS>
0

>  <NaaS>
0

>  <NdssS>
0

>  <NddssS>
1

>  <NsCl>
1

>  <NsBr>
0

>  <NsI>
0

>  <fragCpx>
129.06

>  <fMF>
0.37

>  <nHBAcc>
4

>  <nHBDon>
0

>  <Kier1>
19.75

>  <Kier2>
7.94

>  <Lipinski>
1

>  <GhoseFilter>
1

>  <FilterItLogS>
-5.42

>  <VMcGowan>
267.77

>  <LabuteASA>
152.47

>  <PEOE_VSA1>
4.74

>  <PEOE_VSA2>
0

>  <PEOE_VSA3>
8.42

>  <PEOE_VSA4>
5.26

>  <PEOE_VSA5>
0

>  <PEOE_VSA6>
41.93

>  <PEOE_VSA7>
36.75

>  <PEOE_VSA8>
17.55

>  <PEOE_VSA9>
22.82

>  <PEOE_VSA10>
5.41

>  <PEOE_VSA11>
9.84

>  <PEOE_VSA12>
0

>  <PEOE_VSA13>
0

>  <SMR_VSA1>
13.15

>  <SMR_VSA2>
5.26

>  <SMR_VSA3>
0

>  <SMR_VSA4>
5.41

>  <SMR_VSA5>
22.99

>  <SMR_VSA6>
13.21

>  <SMR_VSA7>
65.18

>  <SMR_VSA8>
0

>  <SMR_VSA9>
6.07

>  <SlogP_VSA1>
0

>  <SlogP_VSA2>
26.88

>  <SlogP_VSA3>
14.57

>  <SlogP_VSA4>
16.75

>  <SlogP_VSA5>
18.41

>  <SlogP_VSA6>
59.49

>  <SlogP_VSA7>
5.02

>  <SlogP_VSA8>
0

>  <SlogP_VSA9>
0

>  <SlogP_VSA10>
0

>  <SlogP_VSA11>
0

>  <EState_VSA1>
26.42

>  <EState_VSA2>
11.5

>  <EState_VSA3>
11.63

>  <EState_VSA4>
5.56

>  <EState_VSA5>
12.13

>  <EState_VSA6>
12.13

>  <EState_VSA7>
37.26

>  <EState_VSA8>
6.07

>  <EState_VSA9>
16.34

>  <EState_VSA10>
13.68

>  <VSA_EState1>
31.83

>  <VSA_EState2>
0.18

>  <VSA_EState3>
9.46

>  <VSA_EState4>
-0.23

>  <VSA_EState5>
-0.41

>  <VSA_EState6>
17.6

>  <VSA_EState7>
0

>  <VSA_EState8>
2.35

>  <VSA_EState9>
-3.69

>  <apol>
52.32

>  <bpol>
27.53

>  <nRing>
3

>  <nHRing>
0

>  <naRing>
2

>  <naHRing>
0

>  <nARing 2>
1

>  <nAHRing 2>
0

>  <nFRing>
0

>  <nFHRing>
0

>  <nFaRing>
0

>  <nFaHRing>
0

>  <nFARing 2>
0

>  <nFAHRing 2>
0

>  <nRot>
6

>  <SLogP>
3.83

>  <SMR>
96.15

>  <TopoPSA(NO)>
67.16

>  <TopoPSA>
75.54

>  <JGI1>
0.22

>  <JGI2>
0.13

>  <JGI3>
0.09

>  <JGI4>
0.06

>  <JGI5>
0.03

>  <Diameter>
11

>  <Radius>
6

>  <TMWC10>
130.34

>  <TSRW10>
81.89

>  <MW>
375.07

>  <AMW>
8.72

>  <WPath>
1405

>  <WPol>
41

>  <Zagreb1>
134

>  <Zagreb2>
165

>  <mZagreb2>
5.64

>  <yes>


>  <nAR-cont>
0.816016

>  <nHA-cont>
0.921834225

>  <MWHBN>
0.206539836

>  <MWHBN-cont>
0.999891627

>  <TPSA-cont>
0.472683892

>  <pka_cont>
0.97

>  <yes.1>


>  <BBB_SCORE>
4.668055451

>  <MMFF94 Energy>
38.839

$$$$
Compound 2125
Actelion Java MolfileCreator 2.0

  0  0  0  0  0  0              0 V3000
M  V30 BEGIN CTAB
M  V30 COUNTS 50 52 0 0 0
M  V30 BEGIN ATOM
M  V30 1 S -0.1621 -3.1659 0.6488 0
M  V30 2 O 0.1655 -4.0832 -0.4285 0
M  V30 3 O -1.303 -3.4487 1.5014 0
M  V30 4 C 1.2339 -3.0109 1.7237 0
M  V30 5 C -0.5747 -1.6108 -0.1431 0 CFG=2
M  V30 6 C 2.4602 -3.5806 1.3746 0
M  V30 7 C 1.0674 -2.3995 2.9724 0
M  V30 8 C 0.4127 -0.884 -1.0425 0 CFG=1
M  V30 9 C 0.0787 -0.3682 0.3794 0 CFG=1
M  V30 10 C 3.5411 -3.4792 2.2509 0
M  V30 11 C 2.1517 -2.3026 3.8439 0
M  V30 12 C 1.7944 -1.4004 -1.2947 0
M  V30 13 C -0.254 -0.246 -2.2635 0
M  V30 14 C -0.7521 0.8737 0.6259 0
M  V30 15 C 3.3883 -2.8353 3.4795 0
M  V30 16 S 3.1224 -0.4685 -0.9423 0
M  V30 17 N 1.9221 -2.6253 -1.8708 0
M  V30 18 O 0.4704 0.9146 -2.6583 0
M  V30 19 C -2.013 0.8101 1.2427 0
M  V30 20 C -0.3272 2.131 0.1739 0
M  V30 21 C -0.1574 1.5949 -3.7404 0
M  V30 22 C -2.8061 1.9523 1.4196 0
M  V30 23 C -1.1153 3.2732 0.3453 0
M  V30 24 C 0.6761 2.8128 -4.0846 0
M  V30 25 C -2.3583 3.1917 0.9704 0
M  V30 26 O -3.0286 4.3783 1.0741 0
M  V30 27 C -4.2858 4.3509 1.738 0
M  V30 28 H -1.6192 -1.5646 -0.4263 0
M  V30 29 H 2.5882 -4.1048 0.4315 0
M  V30 30 H 0.1018 -1.9984 3.2736 0
M  V30 31 H 0.8839 -0.4607 1.1014 0
M  V30 32 H 4.5035 -3.906 1.9788 0
M  V30 33 H 2.0333 -1.8176 4.8101 0
M  V30 34 H -1.2946 0.0297 -2.0538 0
M  V30 35 H -0.2588 -0.9677 -3.0893 0
M  V30 36 H 4.2337 -2.7585 4.1595 0
M  V30 37 H 1.1417 -3.2661 -2.003 0
M  V30 38 H 2.8459 -2.9727 -2.1 0
M  V30 39 H -2.3914 -0.144 1.6061 0
M  V30 40 H 0.6366 2.2277 -0.3247 0
M  V30 41 H -1.1661 1.9066 -3.4479 0
M  V30 42 H -0.2234 0.9288 -4.6075 0
M  V30 43 H -3.7666 1.8342 1.91 0
M  V30 44 H -0.7526 4.2327 -0.0153 0
M  V30 45 H 0.2309 3.369 -4.9142 0
M  V30 46 H 0.7621 3.4778 -3.2187 0
M  V30 47 H 1.6935 2.5178 -4.3617 0
M  V30 48 H -5.0036 3.7254 1.1971 0
M  V30 49 H -4.6789 5.3721 1.7522 0
M  V30 50 H -4.1775 4.0214 2.7767 0
M  V30 END ATOM
M  V30 BEGIN BOND
M  V30 1 2 1 2
M  V30 2 2 1 3
M  V30 3 1 1 4
M  V30 4 1 1 5
M  V30 5 2 4 6
M  V30 6 1 4 7
M  V30 7 1 5 8
M  V30 8 1 5 9
M  V30 9 1 6 10
M  V30 10 2 7 11
M  V30 11 1 8 12
M  V30 12 1 8 13
M  V30 13 1 9 14
M  V30 14 2 10 15
M  V30 15 2 12 16
M  V30 16 1 12 17
M  V30 17 1 13 18
M  V30 18 2 14 19
M  V30 19 1 14 20
M  V30 20 1 18 21
M  V30 21 1 19 22
M  V30 22 2 20 23
M  V30 23 1 21 24
M  V30 24 2 22 25
M  V30 25 1 25 26
M  V30 26 1 26 27
M  V30 27 1 8 9
M  V30 28 1 11 15
M  V30 29 1 23 25
M  V30 30 1 5 28
M  V30 31 1 6 29
M  V30 32 1 7 30
M  V30 33 1 9 31
M  V30 34 1 10 32
M  V30 35 1 11 33
M  V30 36 1 13 34
M  V30 37 1 13 35
M  V30 38 1 15 36
M  V30 39 1 17 37
M  V30 40 1 17 38
M  V30 41 1 19 39
M  V30 42 1 20 40
M  V30 43 1 21 41
M  V30 44 1 21 42
M  V30 45 1 22 43
M  V30 46 1 23 44
M  V30 47 1 24 45
M  V30 48 1 24 46
M  V30 49 1 24 47
M  V30 50 1 27 48
M  V30 51 1 27 49
M  V30 52 1 27 50
M  V30 END BOND
M  V30 BEGIN COLLECTION
M  V30 MDLV30/STEABS ATOMS=(3 5 8 9)
M  V30 END COLLECTION
M  V30 END CTAB
M  END
>  <Column 1>
2618

>  <level_0>
3847

>  <index>
3847

>  <Unnamed: 0>
3847

>  <NO.>
3859

>  <Name>
methocarbamol

>  <IUPAC_name>
(1s-2s-3r)-2-(benzenesulfonyl)-1-(ethoxymethyl)-3-(4-methoxyphenyl)cyclopropane-1-carbothioamide

>  <SMILES>
CCOC[C@]1(C(N)=S)[C@@H](S(=O)(=O)c2ccccc2)[C@@H]1c1ccc(OC)cc1

>  <CID>
100004107

>  <logBB>


>  <BBB+/BBB->
BBB+

>  <Inchi>
InChI=1S/C20H23NO4S2/c1-3-25-13-20(19(21)26)17(14-9-11-15(24-2)12-10-14)18(20)27(22-23)16-7-5-4-6-8-16/h4-12-17-18H-3-13H2-1-2H3-(H2-21-26)/t17--18--20+/m0/s1

>  <threshold>
-1

>  <reference>
R16|R10|R10|

>  <group>
B

>  <Class>
-1

>  <ABC>
20.65

>  <ABCGG>
17.98

>  <nAcid>
0

>  <nBase>
0

>  <nAromAtom>
12

>  <nAromBond>
12

>  <nAtom>
50

>  <nHeavyAtom>
27

>  <nSpiro>
0

>  <nBridgehead>
0

>  <nHetero>
7

>  <nN>
1

>  <nO>
4

>  <nF>
0

>  <BalabanJ>
1.83

>  <BertzCT>
912.76

>  <nBonds>
52

>  <nBondsO>
29

>  <nBondsS>
37

>  <nBondsD>
3

>  <nBondsT>
0

>  <nBondsA>
12

>  <nBondsM>
15

>  <nBondsKS>
43

>  <nBondsKD>
9

>  <RNCG>
0.22

>  <RPCG>
0.08

>  <FCSP3>
0.35

>  <SZ>
35.67

>  <Sm>
33.76

>  <Sv>
32.22

>  <Sse>
50.35

>  <Sp>
35.24

>  <Si>
55.74

>  <MZ>
0.71

>  <Mm>
0.68

>  <Mv>
0.64

>  <Mse>
1.01

>  <Mp>
0.7

>  <Mi>
1.11

>  <NsCH3>
2

>  <NdCH2>
0

>  <NssCH2>
2

>  <NtCH>
0

>  <NdsCH>
0

>  <NaaCH>
9

>  <NsssCH>
2

>  <NddC>
0

>  <NtsC>
0

>  <NdssC>
1

>  <NaasC>
3

>  <NaaaC>
0

>  <NssssC>
1

>  <NsNH3>
0

>  <NsNH2>
1

>  <NssNH2>
0

>  <NdNH>
0

>  <NssNH>
0

>  <NaaNH>
0

>  <NtN>
0

>  <NsssNH>
0

>  <NdsN>
0

>  <NaaN>
0

>  <NsssN>
0

>  <NddsN>
0

>  <NaasN>
0

>  <NssssN>
0

>  <NsOH>
0

>  <NdO>
2

>  <NssO>
2

>  <NaaO>
0

>  <NsF>
0

>  <NsSiH3>
0

>  <NssSiH2>
0

>  <NsssSiH>
0

>  <NssssSi>
0

>  <NsPH2>
0

>  <NssPH>
0

>  <NsssP>
0

>  <NdsssP>
0

>  <NsssssP>
0

>  <NsSH>
0

>  <NdS>
1

>  <NssS>
0

>  <NaaS>
0

>  <NdssS>
0

>  <NddssS>
1

>  <NsCl>
0

>  <NsBr>
0

>  <NsI>
0

>  <fragCpx>
139.07

>  <fMF>
0.32

>  <nHBAcc>
5

>  <nHBDon>
1

>  <Kier1>
21.7

>  <Kier2>
8.79

>  <Lipinski>
1

>  <GhoseFilter>
1

>  <FilterItLogS>
-4.61

>  <VMcGowan>
296.14

>  <LabuteASA>
164.95

>  <PEOE_VSA1>
15.21

>  <PEOE_VSA2>
0

>  <PEOE_VSA3>
8.42

>  <PEOE_VSA4>
0

>  <PEOE_VSA5>
0

>  <PEOE_VSA6>
42.55

>  <PEOE_VSA7>
36.75

>  <PEOE_VSA8>
12.52

>  <PEOE_VSA9>
34.27

>  <PEOE_VSA10>
5.75

>  <PEOE_VSA11>
9.84

>  <PEOE_VSA12>
0

>  <PEOE_VSA13>
0

>  <SMR_VSA1>
17.89

>  <SMR_VSA2>
0

>  <SMR_VSA3>
0

>  <SMR_VSA4>
11.15

>  <SMR_VSA5>
22.99

>  <SMR_VSA6>
20.32

>  <SMR_VSA7>
60.16

>  <SMR_VSA8>
0

>  <SMR_VSA9>
5.75

>  <SlogP_VSA1>
10.47

>  <SlogP_VSA2>
38.98

>  <SlogP_VSA3>
14.57

>  <SlogP_VSA4>
5.41

>  <SlogP_VSA5>
18.41

>  <SlogP_VSA6>
59.49

>  <SlogP_VSA7>
0

>  <SlogP_VSA8>
0

>  <SlogP_VSA9>
0

>  <SlogP_VSA10>
0

>  <SlogP_VSA11>
5.75

>  <EState_VSA1>
20.5

>  <EState_VSA2>
22.41

>  <EState_VSA3>
12.36

>  <EState_VSA4>
5.56

>  <EState_VSA5>
0

>  <EState_VSA6>
37.44

>  <EState_VSA7>
31.19

>  <EState_VSA8>
0

>  <EState_VSA9>
27.43

>  <EState_VSA10>
8.42

>  <VSA_EState1>
37.61

>  <VSA_EState2>
0.43

>  <VSA_EState3>
-0.76

>  <VSA_EState4>
6.02

>  <VSA_EState5>
0.34

>  <VSA_EState6>
15.76

>  <VSA_EState7>
0

>  <VSA_EState8>
2.49

>  <VSA_EState9>
-2.05

>  <apol>
58.84

>  <bpol>
33.86

>  <nRing>
3

>  <nHRing>
0

>  <naRing>
2

>  <naHRing>
0

>  <nARing 2>
1

>  <nAHRing 2>
0

>  <nFRing>
0

>  <nFHRing>
0

>  <nFaRing>
0

>  <nFaHRing>
0

>  <nFARing 2>
0

>  <nFAHRing 2>
0

>  <nRot>
8

>  <SLogP>
2.94

>  <SMR>
108.86

>  <TopoPSA(NO)>
78.62

>  <TopoPSA>
119.09

>  <JGI1>
0.22

>  <JGI2>
0.12

>  <JGI3>
0.09

>  <JGI4>
0.06

>  <JGI5>
0.03

>  <Diameter>
12

>  <Radius>
6

>  <TMWC10>
135.14

>  <TSRW10>
84.33

>  <MW>
405.11

>  <AMW>
8.1

>  <WPath>
1720

>  <WPol>
46

>  <Zagreb1>
144

>  <Zagreb2>
178

>  <mZagreb2>
6.1

>  <yes>


>  <nAR-cont>
0.816016

>  <nHA-cont>
0.860070871

>  <MWHBN>
0.298101917

>  <MWHBN-cont>
0.846372419

>  <TPSA-cont>
0.16867785

>  <pka_cont>
0.97

>  <yes.1>


>  <BBB_SCORE>
3.768001199

>  <MMFF94 Energy>
36.957

$$$$
Compound 2126
Actelion Java MolfileCreator 2.0

  0  0  0  0  0  0              0 V3000
M  V30 BEGIN CTAB
M  V30 COUNTS 43 45 0 0 0
M  V30 BEGIN ATOM
M  V30 1 S 0.4849 -2.9932 -2.0217 0
M  V30 2 O 0.6829 -2.6975 -3.427 0
M  V30 3 O 1.4796 -3.7181 -1.2576 0
M  V30 4 C 0.1633 -1.4144 -1.207 0 CFG=2
M  V30 5 C -1.0535 -3.8572 -1.8585 0
M  V30 6 C 1.2247 -0.3292 -1.3828 0 CFG=2
M  V30 7 C 1.0587 -1.0694 -0.0458 0 CFG=1
M  V30 8 C 0.7164 1.0965 -1.5656 0
M  V30 9 C 2.5247 -0.5919 -2.1228 0
M  V30 10 C 0.5445 -0.3401 1.1787 0
M  V30 11 O -0.686 1.1902 -1.3039 0
M  V30 12 N 3.5753 0.2716 -1.5887 0
M  V30 13 C -0.7535 -0.5371 1.6836 0
M  V30 14 C 1.3703 0.6144 1.827 0
M  V30 15 C -1.1006 2.5392 -1.1108 0
M  V30 16 C -1.1655 0.1976 2.7771 0
M  V30 17 C 0.9324 1.3474 2.9356 0
M  V30 18 C -2.5927 2.5447 -0.8457 0
M  V30 19 O -2.387 0.1186 3.3708 0
M  V30 20 C -0.3455 1.115 3.3857 0
M  V30 21 C -2.2364 1.0893 4.4276 0
M  V30 22 O -0.9445 1.7307 4.4391 0
M  V30 23 H -0.8763 -1.125 -1.1811 0
M  V30 24 H -1.8373 -3.2804 -2.3527 0
M  V30 25 H -1.2757 -3.9821 -0.7971 0
M  V30 26 H -0.9497 -4.8332 -2.3366 0
M  V30 27 H 1.8522 -1.7762 0.1965 0
M  V30 28 H 0.8793 1.42 -2.6002 0
M  V30 29 H 1.2726 1.7705 -0.9037 0
M  V30 30 H 2.8663 -1.6227 -2.0006 0
M  V30 31 H 2.4009 -0.4119 -3.1962 0
M  V30 32 H 3.4761 1.2081 -1.9759 0
M  V30 33 H 4.4738 -0.0669 -1.9346 0
M  V30 34 H -1.4321 -1.2482 1.2278 0
M  V30 35 H 2.3773 0.783 1.4456 0
M  V30 36 H -0.8755 3.1267 -2.0074 0
M  V30 37 H -0.5727 2.9714 -0.2536 0
M  V30 38 H 1.5761 2.0721 3.42 0
M  V30 39 H -2.958 3.5637 -0.691 0
M  V30 40 H -3.1352 2.0978 -1.6852 0
M  V30 41 H -2.8286 1.9464 0.0405 0
M  V30 42 H -3.0083 1.8584 4.3089 0
M  V30 43 H -2.3869 0.5863 5.3898 0
M  V30 END ATOM
M  V30 BEGIN BOND
M  V30 1 2 1 2
M  V30 2 2 1 3
M  V30 3 1 1 4
M  V30 4 1 1 5
M  V30 5 1 4 6
M  V30 6 1 4 7
M  V30 7 1 6 8
M  V30 8 1 6 9
M  V30 9 1 7 10
M  V30 10 1 8 11
M  V30 11 1 9 12
M  V30 12 2 10 13
M  V30 13 1 10 14
M  V30 14 1 11 15
M  V30 15 1 13 16
M  V30 16 2 14 17
M  V30 17 1 15 18
M  V30 18 1 16 19
M  V30 19 2 16 20
M  V30 20 1 19 21
M  V30 21 1 20 22
M  V30 22 1 6 7
M  V30 23 1 17 20
M  V30 24 1 21 22
M  V30 25 1 4 23
M  V30 26 1 5 24
M  V30 27 1 5 25
M  V30 28 1 5 26
M  V30 29 1 7 27
M  V30 30 1 8 28
M  V30 31 1 8 29
M  V30 32 1 9 30
M  V30 33 1 9 31
M  V30 34 1 12 32
M  V30 35 1 12 33
M  V30 36 1 13 34
M  V30 37 1 14 35
M  V30 38 1 15 36
M  V30 39 1 15 37
M  V30 40 1 17 38
M  V30 41 1 18 39
M  V30 42 1 18 40
M  V30 43 1 18 41
M  V30 44 1 21 42
M  V30 45 1 21 43
M  V30 END BOND
M  V30 BEGIN COLLECTION
M  V30 MDLV30/STEABS ATOMS=(3 4 6 7)
M  V30 END COLLECTION
M  V30 END CTAB
M  END
>  <Column 1>
2619

>  <level_0>
3848

>  <index>
3848

>  <Unnamed: 0>
3848

>  <NO.>
3860

>  <Name>
sparfloxacin

>  <IUPAC_name>
[(1s-2r-3s)-2-(1-3-benzodioxol-5-yl)-1-(ethoxymethyl)-3-methylsulfonylcyclopropyl]methanamine

>  <SMILES>
CCOC[C@]1(CN)[C@@H](S(C)(=O)=O)[C@@H]1c1ccc2c(c1)OCO2

>  <CID>
100005257

>  <logBB>


>  <BBB+/BBB->
BBB-

>  <Inchi>
InChI=1S/C15H21NO5S/c1-3-19-8-15(7-16)13(14(15)22(2-17)18)10-4-5-11-12(6-10)21-9-20-11/h4-6-13-14H-3-7-9-16H2-1-2H3/t13--14--15-/m0/s1

>  <threshold>
-1

>  <reference>
R16|R10|

>  <group>
B

>  <Class>
1

>  <ABC>
17.14

>  <ABCGG>
15.57

>  <nAcid>
0

>  <nBase>
1

>  <nAromAtom>
6

>  <nAromBond>
6

>  <nAtom>
43

>  <nHeavyAtom>
22

>  <nSpiro>
0

>  <nBridgehead>
0

>  <nHetero>
7

>  <nN>
1

>  <nO>
5

>  <nF>
0

>  <BalabanJ>
1.75

>  <BertzCT>
674.51

>  <nBonds>
45

>  <nBondsO>
24

>  <nBondsS>
37

>  <nBondsD>
2

>  <nBondsT>
0

>  <nBondsA>
6

>  <nBondsM>
8

>  <nBondsKS>
40

>  <nBondsKD>
5

>  <RNCG>
0.2

>  <RPCG>
0.1

>  <FCSP3>
0.6

>  <SZ>
29

>  <Sm>
27.26

>  <Sv>
26.21

>  <Sse>
43.72

>  <Sp>
28.18

>  <Si>
48.62

>  <MZ>
0.67

>  <Mm>
0.63

>  <Mv>
0.61

>  <Mse>
1.02

>  <Mp>
0.66

>  <Mi>
1.13

>  <NsCH3>
2

>  <NdCH2>
0

>  <NssCH2>
4

>  <NtCH>
0

>  <NdsCH>
0

>  <NaaCH>
3

>  <NsssCH>
2

>  <NddC>
0

>  <NtsC>
0

>  <NdssC>
0

>  <NaasC>
3

>  <NaaaC>
0

>  <NssssC>
1

>  <NsNH3>
0

>  <NsNH2>
1

>  <NssNH2>
0

>  <NdNH>
0

>  <NssNH>
0

>  <NaaNH>
0

>  <NtN>
0

>  <NsssNH>
0

>  <NdsN>
0

>  <NaaN>
0

>  <NsssN>
0

>  <NddsN>
0

>  <NaasN>
0

>  <NssssN>
0

>  <NsOH>
0

>  <NdO>
2

>  <NssO>
3

>  <NaaO>
0

>  <NsF>
0

>  <NsSiH3>
0

>  <NssSiH2>
0

>  <NsssSiH>
0

>  <NssssSi>
0

>  <NsPH2>
0

>  <NssPH>
0

>  <NsssP>
0

>  <NdsssP>
0

>  <NsssssP>
0

>  <NsSH>
0

>  <NdS>
0

>  <NssS>
0

>  <NaaS>
0

>  <NdssS>
0

>  <NddssS>
1

>  <NsCl>
0

>  <NsBr>
0

>  <NsI>
0

>  <fragCpx>
114.07

>  <fMF>
0.28

>  <nHBAcc>
6

>  <nHBDon>
1

>  <Kier1>
16.84

>  <Kier2>
6.14

>  <Lipinski>
1

>  <GhoseFilter>
1

>  <FilterItLogS>
-3.32

>  <VMcGowan>
232.41

>  <LabuteASA>
130.01

>  <PEOE_VSA1>
19.94

>  <PEOE_VSA2>
0

>  <PEOE_VSA3>
8.42

>  <PEOE_VSA4>
0

>  <PEOE_VSA5>
0

>  <PEOE_VSA6>
6.07

>  <PEOE_VSA7>
24.62

>  <PEOE_VSA8>
30.74

>  <PEOE_VSA9>
11.86

>  <PEOE_VSA10>
0

>  <PEOE_VSA11>
21.34

>  <PEOE_VSA12>
6.79

>  <PEOE_VSA13>
0

>  <SMR_VSA1>
22.63

>  <SMR_VSA2>
0

>  <SMR_VSA3>
0

>  <SMR_VSA4>
11.15

>  <SMR_VSA5>
18.09

>  <SMR_VSA6>
32.81

>  <SMR_VSA7>
23.76

>  <SMR_VSA8>
0

>  <SMR_VSA9>
11.5

>  <SlogP_VSA1>
15.21

>  <SlogP_VSA2>
46.47

>  <SlogP_VSA3>
14.57

>  <SlogP_VSA4>
5.41

>  <SlogP_VSA5>
18.41

>  <SlogP_VSA6>
18.2

>  <SlogP_VSA7>
0

>  <SlogP_VSA8>
0

>  <SlogP_VSA9>
0

>  <SlogP_VSA10>
0

>  <SlogP_VSA11>
11.5

>  <EState_VSA1>
20.5

>  <EState_VSA2>
19.26

>  <EState_VSA3>
24.71

>  <EState_VSA4>
5.56

>  <EState_VSA5>
6.26

>  <EState_VSA6>
0

>  <EState_VSA7>
25.12

>  <EState_VSA8>
0

>  <EState_VSA9>
19.94

>  <EState_VSA10>
8.42

>  <VSA_EState1>
40.57

>  <VSA_EState2>
0

>  <VSA_EState3>
-0.52

>  <VSA_EState4>
6.29

>  <VSA_EState5>
1.16

>  <VSA_EState6>
5.56

>  <VSA_EState7>
1.26

>  <VSA_EState8>
3.23

>  <VSA_EState9>
-3.22

>  <apol>
47.06

>  <bpol>
32.36

>  <nRing>
3

>  <nHRing>
1

>  <naRing>
1

>  <naHRing>
0

>  <nARing 2>
2

>  <nAHRing 2>
1

>  <nFRing>
1

>  <nFHRing>
1

>  <nFaRing>
0

>  <nFaHRing>
0

>  <nFARing 2>
1

>  <nFAHRing 2>
1

>  <nRot>
6

>  <SLogP>
0.91

>  <SMR>
81.92

>  <TopoPSA(NO)>
87.85

>  <TopoPSA>
96.23

>  <JGI1>
0.25

>  <JGI2>
0.12

>  <JGI3>
0.1

>  <JGI4>
0.05

>  <JGI5>
0.03

>  <Diameter>
10

>  <Radius>
5

>  <TMWC10>
123.65

>  <TSRW10>
78.83

>  <MW>
327.11

>  <AMW>
7.61

>  <WPath>
997

>  <WPol>
34

>  <Zagreb1>
122

>  <Zagreb2>
151

>  <mZagreb2>
4.83

>  <yes>


>  <nAR-cont>
1

>  <nHA-cont>
0.983774276

>  <MWHBN>
0.387035792

>  <MWHBN-cont>
0.527141208

>  <TPSA-cont>
0.328254845

>  <pka_cont>
0.97

>  <yes.1>


>  <BBB_SCORE>
3.915995777

>  <MMFF94 Energy>
14.252

$$$$
Compound 2127
Actelion Java MolfileCreator 2.0

  0  0  0  0  0  0              0 V3000
M  V30 BEGIN CTAB
M  V30 COUNTS 43 45 0 0 0
M  V30 BEGIN ATOM
M  V30 1 S -1.4545 -1.4545 1.3736 0
M  V30 2 O -2.0714 -0.51 0.471 0
M  V30 3 O -2.0831 -2.7534 1.5653 0
M  V30 4 C 0.2252 -1.8858 0.9173 0 CFG=2
M  V30 5 C -1.3529 -0.7355 2.9889 0
M  V30 6 C 1.3578 -0.8685 0.9183 0 CFG=1
M  V30 7 C 0.8569 -1.5087 -0.39 0 CFG=2
M  V30 8 C 1.2236 0.622 1.2064 0
M  V30 9 C 2.6931 -1.3864 1.437 0
M  V30 10 C 0.2303 -0.7818 -1.5543 0
M  V30 11 O -0.0251 1.1503 0.8151 0
M  V30 12 N 2.6063 -1.5507 2.8823 0
M  V30 13 C -0.9612 -1.2453 -2.1453 0
M  V30 14 C 0.806 0.3997 -2.0883 0
M  V30 15 C -0.0637 2.5689 0.7018 0
M  V30 16 C -1.5132 -0.5444 -3.199 0
M  V30 17 C 0.2306 1.0973 -3.1577 0
M  V30 18 C -0.0536 3.2474 2.0597 0
M  V30 19 O -2.6498 -0.878 -3.8679 0
M  V30 20 C -0.9339 0.5982 -3.6896 0
M  V30 21 C -2.7436 0.2167 -4.8005 0
M  V30 22 O -1.6328 1.1349 -4.7247 0
M  V30 23 H 0.4706 -2.8832 1.268 0
M  V30 24 H -0.9238 0.2615 2.9448 0
M  V30 25 H -0.7502 -1.3863 3.6254 0
M  V30 26 H -2.3672 -0.6702 3.3903 0
M  V30 27 H 1.5016 -2.3013 -0.7804 0
M  V30 28 H 1.3497 0.7965 2.2804 0
M  V30 29 H 2.0329 1.1495 0.6872 0
M  V30 30 H 3.4927 -0.6788 1.1909 0
M  V30 31 H 2.9658 -2.3458 0.9831 0
M  V30 32 H 2.0419 -2.3713 3.101 0
M  V30 33 H 3.5359 -1.7654 3.246 0
M  V30 34 H -1.4576 -2.1376 -1.777 0
M  V30 35 H 1.7314 0.7807 -1.6642 0
M  V30 36 H -0.996 2.8209 0.1858 0
M  V30 37 H 0.7607 2.9257 0.0747 0
M  V30 38 H 0.6837 1.9992 -3.5511 0
M  V30 39 H -0.1926 4.327 1.9518 0
M  V30 40 H -0.8509 2.8502 2.696 0
M  V30 41 H 0.8923 3.0753 2.5819 0
M  V30 42 H -3.67 0.7691 -4.6036 0
M  V30 43 H -2.7887 -0.1923 -5.8162 0
M  V30 END ATOM
M  V30 BEGIN BOND
M  V30 1 2 1 2
M  V30 2 2 1 3
M  V30 3 1 1 4
M  V30 4 1 1 5
M  V30 5 1 4 6
M  V30 6 1 4 7
M  V30 7 1 6 8
M  V30 8 1 6 9
M  V30 9 1 7 10
M  V30 10 1 8 11
M  V30 11 1 9 12
M  V30 12 2 10 13
M  V30 13 1 10 14
M  V30 14 1 11 15
M  V30 15 1 13 16
M  V30 16 2 14 17
M  V30 17 1 15 18
M  V30 18 1 16 19
M  V30 19 2 16 20
M  V30 20 1 19 21
M  V30 21 1 20 22
M  V30 22 1 6 7
M  V30 23 1 17 20
M  V30 24 1 21 22
M  V30 25 1 4 23
M  V30 26 1 5 24
M  V30 27 1 5 25
M  V30 28 1 5 26
M  V30 29 1 7 27
M  V30 30 1 8 28
M  V30 31 1 8 29
M  V30 32 1 9 30
M  V30 33 1 9 31
M  V30 34 1 12 32
M  V30 35 1 12 33
M  V30 36 1 13 34
M  V30 37 1 14 35
M  V30 38 1 15 36
M  V30 39 1 15 37
M  V30 40 1 17 38
M  V30 41 1 18 39
M  V30 42 1 18 40
M  V30 43 1 18 41
M  V30 44 1 21 42
M  V30 45 1 21 43
M  V30 END BOND
M  V30 BEGIN COLLECTION
M  V30 MDLV30/STEABS ATOMS=(3 4 6 7)
M  V30 END COLLECTION
M  V30 END CTAB
M  END
>  <Column 1>
2620

>  <level_0>
3849

>  <index>
3849

>  <Unnamed: 0>
3849

>  <NO.>
3861

>  <Name>
sotalol

>  <IUPAC_name>
[(1r-2s-3s)-2-(1-3-benzodioxol-5-yl)-1-(ethoxymethyl)-3-methylsulfonylcyclopropyl]methanamine

>  <SMILES>
CCOC[C@]1(CN)[C@H](c2ccc3c(c2)OCO3)[C@@H]1S(C)(=O)=O

>  <CID>
100005253

>  <logBB>


>  <BBB+/BBB->
BBB+

>  <Inchi>
InChI=1S/C15H21NO5S/c1-3-19-8-15(7-16)13(14(15)22(2-17)18)10-4-5-11-12(6-10)21-9-20-11/h4-6-13-14H-3-7-9-16H2-1-2H3/t13--14+-15-/m1/s1

>  <threshold>
-1

>  <reference>
R16|R10|

>  <group>
B

>  <Class>
-1

>  <ABC>
17.14

>  <ABCGG>
15.57

>  <nAcid>
0

>  <nBase>
1

>  <nAromAtom>
6

>  <nAromBond>
6

>  <nAtom>
43

>  <nHeavyAtom>
22

>  <nSpiro>
0

>  <nBridgehead>
0

>  <nHetero>
7

>  <nN>
1

>  <nO>
5

>  <nF>
0

>  <BalabanJ>
1.75

>  <BertzCT>
674.51

>  <nBonds>
45

>  <nBondsO>
24

>  <nBondsS>
37

>  <nBondsD>
2

>  <nBondsT>
0

>  <nBondsA>
6

>  <nBondsM>
8

>  <nBondsKS>
40

>  <nBondsKD>
5

>  <RNCG>
0.2

>  <RPCG>
0.1

>  <FCSP3>
0.6

>  <SZ>
29

>  <Sm>
27.26

>  <Sv>
26.21

>  <Sse>
43.72

>  <Sp>
28.18

>  <Si>
48.62

>  <MZ>
0.67

>  <Mm>
0.63

>  <Mv>
0.61

>  <Mse>
1.02

>  <Mp>
0.66

>  <Mi>
1.13

>  <NsCH3>
2

>  <NdCH2>
0

>  <NssCH2>
4

>  <NtCH>
0

>  <NdsCH>
0

>  <NaaCH>
3

>  <NsssCH>
2

>  <NddC>
0

>  <NtsC>
0

>  <NdssC>
0

>  <NaasC>
3

>  <NaaaC>
0

>  <NssssC>
1

>  <NsNH3>
0

>  <NsNH2>
1

>  <NssNH2>
0

>  <NdNH>
0

>  <NssNH>
0

>  <NaaNH>
0

>  <NtN>
0

>  <NsssNH>
0

>  <NdsN>
0

>  <NaaN>
0

>  <NsssN>
0

>  <NddsN>
0

>  <NaasN>
0

>  <NssssN>
0

>  <NsOH>
0

>  <NdO>
2

>  <NssO>
3

>  <NaaO>
0

>  <NsF>
0

>  <NsSiH3>
0

>  <NssSiH2>
0

>  <NsssSiH>
0

>  <NssssSi>
0

>  <NsPH2>
0

>  <NssPH>
0

>  <NsssP>
0

>  <NdsssP>
0

>  <NsssssP>
0

>  <NsSH>
0

>  <NdS>
0

>  <NssS>
0

>  <NaaS>
0

>  <NdssS>
0

>  <NddssS>
1

>  <NsCl>
0

>  <NsBr>
0

>  <NsI>
0

>  <fragCpx>
114.07

>  <fMF>
0.28

>  <nHBAcc>
6

>  <nHBDon>
1

>  <Kier1>
16.84

>  <Kier2>
6.14

>  <Lipinski>
1

>  <GhoseFilter>
1

>  <FilterItLogS>
-3.32

>  <VMcGowan>
232.41

>  <LabuteASA>
130.01

>  <PEOE_VSA1>
19.94

>  <PEOE_VSA2>
0

>  <PEOE_VSA3>
8.42

>  <PEOE_VSA4>
0

>  <PEOE_VSA5>
0

>  <PEOE_VSA6>
6.07

>  <PEOE_VSA7>
24.62

>  <PEOE_VSA8>
30.74

>  <PEOE_VSA9>
11.86

>  <PEOE_VSA10>
0

>  <PEOE_VSA11>
21.34

>  <PEOE_VSA12>
6.79

>  <PEOE_VSA13>
0

>  <SMR_VSA1>
22.63

>  <SMR_VSA2>
0

>  <SMR_VSA3>
0

>  <SMR_VSA4>
11.15

>  <SMR_VSA5>
18.09

>  <SMR_VSA6>
32.81

>  <SMR_VSA7>
23.76

>  <SMR_VSA8>
0

>  <SMR_VSA9>
11.5

>  <SlogP_VSA1>
15.21

>  <SlogP_VSA2>
46.47

>  <SlogP_VSA3>
14.57

>  <SlogP_VSA4>
5.41

>  <SlogP_VSA5>
18.41

>  <SlogP_VSA6>
18.2

>  <SlogP_VSA7>
0

>  <SlogP_VSA8>
0

>  <SlogP_VSA9>
0

>  <SlogP_VSA10>
0

>  <SlogP_VSA11>
11.5

>  <EState_VSA1>
20.5

>  <EState_VSA2>
19.26

>  <EState_VSA3>
24.71

>  <EState_VSA4>
5.56

>  <EState_VSA5>
6.26

>  <EState_VSA6>
0

>  <EState_VSA7>
25.12

>  <EState_VSA8>
0

>  <EState_VSA9>
19.94

>  <EState_VSA10>
8.42

>  <VSA_EState1>
40.57

>  <VSA_EState2>
0

>  <VSA_EState3>
-0.52

>  <VSA_EState4>
6.29

>  <VSA_EState5>
1.16

>  <VSA_EState6>
5.56

>  <VSA_EState7>
1.26

>  <VSA_EState8>
3.23

>  <VSA_EState9>
-3.22

>  <apol>
47.06

>  <bpol>
32.36

>  <nRing>
3

>  <nHRing>
1

>  <naRing>
1

>  <naHRing>
0

>  <nARing 2>
2

>  <nAHRing 2>
1

>  <nFRing>
1

>  <nFHRing>
1

>  <nFaRing>
0

>  <nFaHRing>
0

>  <nFARing 2>
1

>  <nFAHRing 2>
1

>  <nRot>
6

>  <SLogP>
0.91

>  <SMR>
81.92

>  <TopoPSA(NO)>
87.85

>  <TopoPSA>
96.23

>  <JGI1>
0.25

>  <JGI2>
0.12

>  <JGI3>
0.1

>  <JGI4>
0.05

>  <JGI5>
0.03

>  <Diameter>
10

>  <Radius>
5

>  <TMWC10>
123.65

>  <TSRW10>
78.83

>  <MW>
327.11

>  <AMW>
7.61

>  <WPath>
997

>  <WPol>
34

>  <Zagreb1>
122

>  <Zagreb2>
151

>  <mZagreb2>
4.83

>  <yes>


>  <nAR-cont>
1

>  <nHA-cont>
0.983774276

>  <MWHBN>
0.387035792

>  <MWHBN-cont>
0.527141208

>  <TPSA-cont>
0.328254845

>  <pka_cont>
0.97

>  <yes.1>


>  <BBB_SCORE>
3.915995777

>  <MMFF94 Energy>
34.248

$$$$
Compound 2128
Actelion Java MolfileCreator 2.0

  0  0  0  0  0  0              0 V3000
M  V30 BEGIN CTAB
M  V30 COUNTS 50 53 0 0 0
M  V30 BEGIN ATOM
M  V30 1 S -0.4054 -2.5968 1.5412 0
M  V30 2 O 0.1311 -3.62 0.6672 0
M  V30 3 O -1.6022 -2.8067 2.335 0
M  V30 4 C 0.9051 -2.1609 2.6654 0
M  V30 5 C -0.6488 -1.0537 0.6451 0 CFG=2
M  V30 6 C 2.2233 -2.1602 2.2023 0
M  V30 7 C 0.612 -1.8402 3.9918 0
M  V30 8 C -1.7071 -1.0441 -0.4278 0 CFG=1
M  V30 9 C -0.2174 -1.0599 -0.797 0 CFG=1
M  V30 10 C 3.2556 -1.809 3.0727 0
M  V30 11 C 1.6503 -1.49 4.8563 0
M  V30 12 N -2.4638 -2.2643 -0.8131 0
M  V30 13 C -2.5248 0.2437 -0.5191 0
M  V30 14 C 0.4801 0.1414 -1.3989 0
M  V30 15 C 2.9758 -1.4566 4.4004 0
M  V30 16 O -3.1629 0.2877 -1.7989 0
M  V30 17 C 0.0566 0.6717 -2.6328 0
M  V30 18 C 1.5121 0.8232 -0.7047 0
M  V30 19 C 4.0924 -1.1187 5.3449 0
M  V30 20 C -3.8355 1.5263 -2.0079 0
M  V30 21 C 0.6677 1.807 -3.1236 0
M  V30 22 C 2.1202 1.973 -1.2229 0
M  V30 23 C -4.4794 1.4936 -3.3793 0
M  V30 24 O 0.3665 2.4303 -4.2939 0
M  V30 25 C 1.6736 2.4393 -2.4371 0
M  V30 26 C 1.3172 3.5148 -4.2755 0
M  V30 27 O 2.1377 3.538 -3.0886 0
M  V30 28 H -0.529 -0.1555 1.2345 0
M  V30 29 H 2.4543 -2.4427 1.1772 0
M  V30 30 H -0.4101 -1.8669 4.3626 0
M  V30 31 H 0.1417 -2.0037 -1.2073 0
M  V30 32 H 4.2826 -1.8208 2.7129 0
M  V30 33 H 1.421 -1.2495 5.8928 0
M  V30 34 H -2.9589 -2.0664 -1.6884 0
M  V30 35 H -3.1975 -2.4679 -0.132 0
M  V30 36 H -3.2957 0.2334 0.2608 0
M  V30 37 H -1.9026 1.1341 -0.3739 0
M  V30 38 H -0.7431 0.1964 -3.194 0
M  V30 39 H 1.8571 0.4438 0.2552 0
M  V30 40 H 4.4558 -2.0272 5.8347 0
M  V30 41 H 4.9242 -0.6459 4.8124 0
M  V30 42 H 3.7551 -0.4131 6.1115 0
M  V30 43 H -3.1174 2.3519 -1.9556 0
M  V30 44 H -4.6016 1.6656 -1.2374 0
M  V30 45 H 2.9145 2.4801 -0.6872 0
M  V30 46 H -5.0095 2.4279 -3.5841 0
M  V30 47 H -3.7232 1.3385 -4.156 0
M  V30 48 H -5.1874 0.6616 -3.4532 0
M  V30 49 H 1.9697 3.4252 -5.1517 0
M  V30 50 H 0.7693 4.4619 -4.3406 0
M  V30 END ATOM
M  V30 BEGIN BOND
M  V30 1 2 1 2
M  V30 2 2 1 3
M  V30 3 1 1 4
M  V30 4 1 1 5
M  V30 5 2 4 6
M  V30 6 1 4 7
M  V30 7 1 5 8
M  V30 8 1 5 9
M  V30 9 1 6 10
M  V30 10 2 7 11
M  V30 11 1 8 12
M  V30 12 1 8 13
M  V30 13 1 9 14
M  V30 14 2 10 15
M  V30 15 1 13 16
M  V30 16 2 14 17
M  V30 17 1 14 18
M  V30 18 1 15 19
M  V30 19 1 16 20
M  V30 20 1 17 21
M  V30 21 2 18 22
M  V30 22 1 20 23
M  V30 23 1 21 24
M  V30 24 2 21 25
M  V30 25 1 24 26
M  V30 26 1 25 27
M  V30 27 1 8 9
M  V30 28 1 11 15
M  V30 29 1 22 25
M  V30 30 1 26 27
M  V30 31 1 5 28
M  V30 32 1 6 29
M  V30 33 1 7 30
M  V30 34 1 9 31
M  V30 35 1 10 32
M  V30 36 1 11 33
M  V30 37 1 12 34
M  V30 38 1 12 35
M  V30 39 1 13 36
M  V30 40 1 13 37
M  V30 41 1 17 38
M  V30 42 1 18 39
M  V30 43 1 19 40
M  V30 44 1 19 41
M  V30 45 1 19 42
M  V30 46 1 20 43
M  V30 47 1 20 44
M  V30 48 1 22 45
M  V30 49 1 23 46
M  V30 50 1 23 47
M  V30 51 1 23 48
M  V30 52 1 26 49
M  V30 53 1 26 50
M  V30 END BOND
M  V30 BEGIN COLLECTION
M  V30 MDLV30/STEABS ATOMS=(3 5 8 9)
M  V30 END COLLECTION
M  V30 END CTAB
M  END
>  <Column 1>
2621

>  <level_0>
3850

>  <index>
3850

>  <Unnamed: 0>
3850

>  <NO.>
3862

>  <Name>
trometamol

>  <IUPAC_name>
(1s-2r-3s)-2-(1-3-benzodioxol-5-yl)-1-(ethoxymethyl)-3-(4-methylphenyl)sulfonylcyclopropan-1-amine

>  <SMILES>
CCOC[C@]1(N)[C@@H](S(=O)(=O)c2ccc(C)cc2)[C@@H]1c1ccc2c(c1)OCO2

>  <CID>
100006503

>  <logBB>


>  <BBB+/BBB->
BBB-

>  <Inchi>
InChI=1S/C20H23NO5S/c1-3-24-11-20(21)18(14-6-9-16-17(10-14)26-12-25-16)19(20)27(22-23)15-7-4-13(2)5-8-15/h4-10-18-19H-3-11-12-21H2-1-2H3/t18--19--20+/m0/s1

>  <threshold>
-1

>  <reference>
R16|R10|

>  <group>
B

>  <Class>
-1

>  <ABC>
21.43

>  <ABCGG>
18.08

>  <nAcid>
0

>  <nBase>
1

>  <nAromAtom>
12

>  <nAromBond>
12

>  <nAtom>
50

>  <nHeavyAtom>
27

>  <nSpiro>
0

>  <nBridgehead>
0

>  <nHetero>
7

>  <nN>
1

>  <nO>
5

>  <nF>
0

>  <BalabanJ>
1.5

>  <BertzCT>
956.84

>  <nBonds>
53

>  <nBondsO>
30

>  <nBondsS>
39

>  <nBondsD>
2

>  <nBondsT>
0

>  <nBondsA>
12

>  <nBondsM>
14

>  <nBondsKS>
45

>  <nBondsKD>
8

>  <RNCG>
0.18

>  <RPCG>
0.09

>  <FCSP3>
0.4

>  <SZ>
34.33

>  <Sm>
32.43

>  <Sv>
31.75

>  <Sse>
50.6

>  <Sp>
33.98

>  <Si>
56.03

>  <MZ>
0.69

>  <Mm>
0.65

>  <Mv>
0.64

>  <Mse>
1.01

>  <Mp>
0.68

>  <Mi>
1.12

>  <NsCH3>
2

>  <NdCH2>
0

>  <NssCH2>
3

>  <NtCH>
0

>  <NdsCH>
0

>  <NaaCH>
7

>  <NsssCH>
2

>  <NddC>
0

>  <NtsC>
0

>  <NdssC>
0

>  <NaasC>
5

>  <NaaaC>
0

>  <NssssC>
1

>  <NsNH3>
0

>  <NsNH2>
1

>  <NssNH2>
0

>  <NdNH>
0

>  <NssNH>
0

>  <NaaNH>
0

>  <NtN>
0

>  <NsssNH>
0

>  <NdsN>
0

>  <NaaN>
0

>  <NsssN>
0

>  <NddsN>
0

>  <NaasN>
0

>  <NssssN>
0

>  <NsOH>
0

>  <NdO>
2

>  <NssO>
3

>  <NaaO>
0

>  <NsF>
0

>  <NsSiH3>
0

>  <NssSiH2>
0

>  <NsssSiH>
0

>  <NssssSi>
0

>  <NsPH2>
0

>  <NssPH>
0

>  <NsssP>
0

>  <NdsssP>
0

>  <NsssssP>
0

>  <NsSH>
0

>  <NdS>
0

>  <NssS>
0

>  <NaaS>
0

>  <NdssS>
0

>  <NddssS>
1

>  <NsCl>
0

>  <NsBr>
0

>  <NsI>
0

>  <fragCpx>
198.07

>  <fMF>
0.38

>  <nHBAcc>
6

>  <nHBDon>
1

>  <Kier1>
20.28

>  <Kier2>
7.68

>  <Lipinski>
1

>  <GhoseFilter>
1

>  <FilterItLogS>
-4.79

>  <VMcGowan>
279.1

>  <LabuteASA>
158.7

>  <PEOE_VSA1>
19.94

>  <PEOE_VSA2>
0

>  <PEOE_VSA3>
8.42

>  <PEOE_VSA4>
0

>  <PEOE_VSA5>
0

>  <PEOE_VSA6>
23.76

>  <PEOE_VSA7>
43.68

>  <PEOE_VSA8>
12.52

>  <PEOE_VSA9>
22.29

>  <PEOE_VSA10>
0

>  <PEOE_VSA11>
21.34

>  <PEOE_VSA12>
6.79

>  <PEOE_VSA13>
0

>  <SMR_VSA1>
22.63

>  <SMR_VSA2>
0

>  <SMR_VSA3>
0

>  <SMR_VSA4>
5.73

>  <SMR_VSA5>
35.45

>  <SMR_VSA6>
20.01

>  <SMR_VSA7>
53.59

>  <SMR_VSA8>
0

>  <SMR_VSA9>
11.5

>  <SlogP_VSA1>
15.21

>  <SlogP_VSA2>
39.21

>  <SlogP_VSA3>
14.57

>  <SlogP_VSA4>
6.92

>  <SlogP_VSA5>
23.97

>  <SlogP_VSA6>
47.36

>  <SlogP_VSA7>
0

>  <SlogP_VSA8>
0

>  <SlogP_VSA9>
0

>  <SlogP_VSA10>
0

>  <SlogP_VSA11>
11.5

>  <EState_VSA1>
20.63

>  <EState_VSA2>
24.21

>  <EState_VSA3>
18.11

>  <EState_VSA4>
11.13

>  <EState_VSA5>
0

>  <EState_VSA6>
30.33

>  <EState_VSA7>
25.98

>  <EState_VSA8>
0

>  <EState_VSA9>
19.94

>  <EState_VSA10>
8.42

>  <VSA_EState1>
42.95

>  <VSA_EState2>
0.28

>  <VSA_EState3>
-0.75

>  <VSA_EState4>
7.42

>  <VSA_EState5>
0.9

>  <VSA_EState6>
12.35

>  <VSA_EState7>
0

>  <VSA_EState8>
4.61

>  <VSA_EState9>
-3.61

>  <apol>
56.75

>  <bpol>
34.37

>  <nRing>
4

>  <nHRing>
1

>  <naRing>
2

>  <naHRing>
0

>  <nARing 2>
2

>  <nAHRing 2>
1

>  <nFRing>
1

>  <nFHRing>
1

>  <nFaRing>
0

>  <nFaHRing>
0

>  <nFARing 2>
1

>  <nFAHRing 2>
1

>  <nRot>
6

>  <SLogP>
2.4

>  <SMR>
100.87

>  <TopoPSA(NO)>
87.85

>  <TopoPSA>
96.23

>  <JGI1>
0.23

>  <JGI2>
0.12

>  <JGI3>
0.08

>  <JGI4>
0.05

>  <JGI5>
0.03

>  <Diameter>
12

>  <Radius>
6

>  <TMWC10>
136.34

>  <TSRW10>
84.81

>  <MW>
389.13

>  <AMW>
7.78

>  <WPath>
1767

>  <WPol>
44

>  <Zagreb1>
152

>  <Zagreb2>
188

>  <mZagreb2>
5.79

>  <yes>


>  <nAR-cont>
1

>  <nHA-cont>
0.860070871

>  <MWHBN>
0.354854799

>  <MWHBN-cont>
0.651989968

>  <TPSA-cont>
0.328254845

>  <pka_cont>
0.97

>  <yes.1>


>  <BBB_SCORE>
3.979565512

>  <MMFF94 Energy>
90.815

$$$$
Compound 2129
Actelion Java MolfileCreator 2.0

  0  0  0  0  0  0              0 V3000
M  V30 BEGIN CTAB
M  V30 COUNTS 52 53 0 0 0
M  V30 BEGIN ATOM
M  V30 1 S 2.0666 1.5099 3.4197 0
M  V30 2 C 1.3601 3.207 3.4577 0 CFG=1
M  V30 3 C 2.566 1.4465 1.6633 0
M  V30 4 C 0.0889 3.2604 2.6076 0
M  V30 5 C 1.0725 3.6129 4.8974 0
M  V30 6 C 2.7368 0.0262 1.1839 0
M  V30 7 O -0.0402 4.0642 1.687 0
M  V30 8 N -0.8753 2.3314 2.9379 0
M  V30 9 C 3.85 -0.7342 1.5709 0
M  V30 10 C 1.7798 -0.5596 0.3411 0
M  V30 11 C -2.059 2.1239 2.1307 0
M  V30 12 C 4.0008 -2.0486 1.1246 0
M  V30 13 C 1.9319 -1.8734 -0.1045 0
M  V30 14 C -1.7419 1.1702 0.9846 0
M  V30 15 C 3.0424 -2.6173 0.2874 0
M  V30 16 C -2.9627 0.8738 0.1184 0
M  V30 17 C -2.6024 -0.0977 -0.9786 0
M  V30 18 C -2.0755 0.3633 -2.1913 0
M  V30 19 C -2.731 -1.4761 -0.7784 0
M  V30 20 C -1.6869 -0.5369 -3.1896 0
M  V30 21 C -2.343 -2.3718 -1.777 0
M  V30 22 C -1.8173 -1.9099 -2.9852 0
M  V30 23 O -1.4696 -2.8934 -3.8694 0
M  V30 24 C -0.914 -2.4777 -5.1156 0
M  V30 25 C -0.5994 -3.7223 -5.9257 0
M  V30 26 H 2.0962 3.8967 3.0305 0
M  V30 27 H 3.5092 1.9907 1.5425 0
M  V30 28 H 1.8229 1.9516 1.0386 0
M  V30 29 H 1.9925 3.6449 5.4914 0
M  V30 30 H 0.3691 2.9333 5.3917 0
M  V30 31 H 0.6251 4.613 4.9272 0
M  V30 32 H -0.6511 1.6499 3.6556 0
M  V30 33 H 4.6032 -0.3068 2.2293 0
M  V30 34 H 0.9067 0.0026 0.0194 0
M  V30 35 H -2.4123 3.0872 1.7477 0
M  V30 36 H -2.8294 1.7041 2.7851 0
M  V30 37 H 4.8655 -2.6299 1.4334 0
M  V30 38 H 1.1814 -2.3135 -0.7571 0
M  V30 39 H -1.3394 0.2347 1.3956 0
M  V30 40 H -0.9436 1.5984 0.3646 0
M  V30 41 H 3.1598 -3.6407 -0.0583 0
M  V30 42 H -3.7734 0.457 0.7288 0
M  V30 43 H -3.3543 1.799 -0.322 0
M  V30 44 H -1.9542 1.4308 -2.3645 0
M  V30 45 H -3.125 -1.8645 0.1577 0
M  V30 46 H -1.2825 -0.1306 -4.1103 0
M  V30 47 H -2.4463 -3.441 -1.6097 0
M  V30 48 H 0.012 -1.915 -4.9508 0
M  V30 49 H -1.6351 -1.8642 -5.668 0
M  V30 50 H -0.1689 -3.4577 -6.8955 0
M  V30 51 H 0.1068 -4.3637 -5.3882 0
M  V30 52 H -1.5058 -4.3143 -6.0906 0
M  V30 END ATOM
M  V30 BEGIN BOND
M  V30 1 1 1 2
M  V30 2 1 1 3
M  V30 3 1 2 4
M  V30 4 1 2 5
M  V30 5 1 3 6
M  V30 6 2 4 7
M  V30 7 1 4 8
M  V30 8 2 6 9
M  V30 9 1 6 10
M  V30 10 1 8 11
M  V30 11 1 9 12
M  V30 12 2 10 13
M  V30 13 1 11 14
M  V30 14 2 12 15
M  V30 15 1 14 16
M  V30 16 1 16 17
M  V30 17 2 17 18
M  V30 18 1 17 19
M  V30 19 1 18 20
M  V30 20 2 19 21
M  V30 21 2 20 22
M  V30 22 1 22 23
M  V30 23 1 23 24
M  V30 24 1 24 25
M  V30 25 1 13 15
M  V30 26 1 21 22
M  V30 27 1 2 26
M  V30 28 1 3 27
M  V30 29 1 3 28
M  V30 30 1 5 29
M  V30 31 1 5 30
M  V30 32 1 5 31
M  V30 33 1 8 32
M  V30 34 1 9 33
M  V30 35 1 10 34
M  V30 36 1 11 35
M  V30 37 1 11 36
M  V30 38 1 12 37
M  V30 39 1 13 38
M  V30 40 1 14 39
M  V30 41 1 14 40
M  V30 42 1 15 41
M  V30 43 1 16 42
M  V30 44 1 16 43
M  V30 45 1 18 44
M  V30 46 1 19 45
M  V30 47 1 20 46
M  V30 48 1 21 47
M  V30 49 1 24 48
M  V30 50 1 24 49
M  V30 51 1 25 50
M  V30 52 1 25 51
M  V30 53 1 25 52
M  V30 END BOND
M  V30 BEGIN COLLECTION
M  V30 MDLV30/STEABS ATOMS=(1 2)
M  V30 END COLLECTION
M  V30 END CTAB
M  END
>  <Column 1>
2622

>  <level_0>
3852

>  <index>
3852

>  <Unnamed: 0>
3852

>  <NO.>
3864

>  <Name>
colchicine

>  <IUPAC_name>
(2r)-2-benzylsulfanyl-n-[3-(4-ethoxyphenyl)propyl]propanamide

>  <SMILES>
CCOc1ccc(CCCNC(=O)[C@@H](C)SCc2ccccc2)cc1

>  <CID>
100002833

>  <logBB>


>  <BBB+/BBB->
BBB-

>  <Inchi>
InChI=1S/C21H27NO2S/c1-3-24-20-13-11-18(12-14-20)10-7-15-22-21(23)17(2)25-16-19-8-5-4-6-9-19/h4-6-8-9-11-14-17H-3-7-10-15-16H2-1-2H3-(H-22-23)/t17-/m1/s1

>  <threshold>
-1

>  <reference>
R16|R10|

>  <group>
B

>  <Class>
1

>  <ABC>
18.56

>  <ABCGG>
14.1

>  <nAcid>
0

>  <nBase>
0

>  <nAromAtom>
12

>  <nAromBond>
12

>  <nAtom>
52

>  <nHeavyAtom>
25

>  <nSpiro>
0

>  <nBridgehead>
0

>  <nHetero>
4

>  <nN>
1

>  <nO>
2

>  <nF>
0

>  <BalabanJ>
1.48

>  <BertzCT>
628.1

>  <nBonds>
53

>  <nBondsO>
26

>  <nBondsS>
40

>  <nBondsD>
1

>  <nBondsT>
0

>  <nBondsA>
12

>  <nBondsM>
13

>  <nBondsKS>
46

>  <nBondsKD>
7

>  <RNCG>
0.25

>  <RPCG>
0.12

>  <FCSP3>
0.38

>  <SZ>
32

>  <Sm>
29.77

>  <Sv>
31.69

>  <Sse>
51.39

>  <Sp>
35.14

>  <Si>
58.24

>  <MZ>
0.62

>  <Mm>
0.57

>  <Mv>
0.61

>  <Mse>
0.99

>  <Mp>
0.68

>  <Mi>
1.12

>  <NsCH3>
2

>  <NdCH2>
0

>  <NssCH2>
5

>  <NtCH>
0

>  <NdsCH>
0

>  <NaaCH>
9

>  <NsssCH>
1

>  <NddC>
0

>  <NtsC>
0

>  <NdssC>
1

>  <NaasC>
3

>  <NaaaC>
0

>  <NssssC>
0

>  <NsNH3>
0

>  <NsNH2>
0

>  <NssNH2>
0

>  <NdNH>
0

>  <NssNH>
1

>  <NaaNH>
0

>  <NtN>
0

>  <NsssNH>
0

>  <NdsN>
0

>  <NaaN>
0

>  <NsssN>
0

>  <NddsN>
0

>  <NaasN>
0

>  <NssssN>
0

>  <NsOH>
0

>  <NdO>
1

>  <NssO>
1

>  <NaaO>
0

>  <NsF>
0

>  <NsSiH3>
0

>  <NssSiH2>
0

>  <NsssSiH>
0

>  <NssssSi>
0

>  <NsPH2>
0

>  <NssPH>
0

>  <NsssP>
0

>  <NdsssP>
0

>  <NsssssP>
0

>  <NsSH>
0

>  <NdS>
0

>  <NssS>
1

>  <NaaS>
0

>  <NdssS>
0

>  <NddssS>
0

>  <NsCl>
0

>  <NsBr>
0

>  <NsI>
0

>  <fragCpx>
76.04

>  <fMF>
0.38

>  <nHBAcc>
3

>  <nHBDon>
1

>  <Kier1>
21.3

>  <Kier2>
12.4

>  <Lipinski>
1

>  <GhoseFilter>
1

>  <FilterItLogS>
-6.21

>  <VMcGowan>
293

>  <LabuteASA>
154.72

>  <PEOE_VSA1>
10.05

>  <PEOE_VSA2>
4.79

>  <PEOE_VSA3>
0

>  <PEOE_VSA4>
0

>  <PEOE_VSA5>
11.76

>  <PEOE_VSA6>
42.46

>  <PEOE_VSA7>
49.95

>  <PEOE_VSA8>
12.3

>  <PEOE_VSA9>
11.86

>  <PEOE_VSA10>
5.75

>  <PEOE_VSA11>
0

>  <PEOE_VSA12>
5.91

>  <PEOE_VSA13>
0

>  <SMR_VSA1>
9.53

>  <SMR_VSA2>
0

>  <SMR_VSA3>
5.32

>  <SMR_VSA4>
0

>  <SMR_VSA5>
37.69

>  <SMR_VSA6>
13.15

>  <SMR_VSA7>
65.72

>  <SMR_VSA8>
0

>  <SMR_VSA9>
5.75

>  <SlogP_VSA1>
10.05

>  <SlogP_VSA2>
24.31

>  <SlogP_VSA3>
16.97

>  <SlogP_VSA4>
0

>  <SlogP_VSA5>
31.4

>  <SlogP_VSA6>
54.6

>  <SlogP_VSA7>
0

>  <SlogP_VSA8>
0

>  <SlogP_VSA9>
0

>  <SlogP_VSA10>
0

>  <SlogP_VSA11>
5.75

>  <EState_VSA1>
0

>  <EState_VSA2>
11.16

>  <EState_VSA3>
13.15

>  <EState_VSA4>
24.34

>  <EState_VSA5>
11.13

>  <EState_VSA6>
11.76

>  <EState_VSA7>
44.18

>  <EState_VSA8>
29.58

>  <EState_VSA9>
4.74

>  <EState_VSA10>
4.79

>  <VSA_EState1>
5.44

>  <VSA_EState2>
12.14

>  <VSA_EState3>
3

>  <VSA_EState4>
2.52

>  <VSA_EState5>
1.89

>  <VSA_EState6>
18.43

>  <VSA_EState7>
1.9

>  <VSA_EState8>
5.35

>  <VSA_EState9>
0

>  <apol>
58.68

>  <bpol>
32.72

>  <nRing>
2

>  <nHRing>
0

>  <naRing>
2

>  <naHRing>
0

>  <nARing 2>
0

>  <nAHRing 2>
0

>  <nFRing>
0

>  <nFHRing>
0

>  <nFaRing>
0

>  <nFaHRing>
0

>  <nFARing 2>
0

>  <nFAHRing 2>
0

>  <nRot>
10

>  <SLogP>
4.46

>  <SMR>
106.14

>  <TopoPSA(NO)>
38.33

>  <TopoPSA>
63.63

>  <JGI1>
0.15

>  <JGI2>
0.07

>  <JGI3>
0.02

>  <JGI4>
0.03

>  <JGI5>
0.02

>  <Diameter>
18

>  <Radius>
9

>  <TMWC10>
122.45

>  <TSRW10>
58.5

>  <MW>
357.18

>  <AMW>
6.87

>  <WPath>
2010

>  <WPol>
31

>  <Zagreb1>
116

>  <Zagreb2>
127

>  <mZagreb2>
5.86

>  <yes>


>  <nAR-cont>
0.336376

>  <nHA-cont>
0.921834225

>  <MWHBN>
0.211649099

>  <MWHBN-cont>
0.998872391

>  <TPSA-cont>
0.555823088

>  <pka_cont>
0.97

>  <yes.1>


>  <BBB_SCORE>
4.353164987

>  <MMFF94 Energy>
44.539

$$$$
Compound 2130
Actelion Java MolfileCreator 2.0

  0  0  0  0  0  0              0 V3000
M  V30 BEGIN CTAB
M  V30 COUNTS 52 53 0 0 0
M  V30 BEGIN ATOM
M  V30 1 S 0.8735 1.4297 5.1704 0
M  V30 2 C 1.717 2.6121 4.1407 0
M  V30 3 C 0.8521 -0.0334 4.0542 0 CFG=2
M  V30 4 C 3.062 2.4439 3.8025 0
M  V30 5 C 1.0231 3.7245 3.6597 0
M  V30 6 C -0.2384 0.143 2.9919 0
M  V30 7 C 0.5912 -1.2775 4.8976 0
M  V30 8 C 3.7009 3.3684 2.9722 0
M  V30 9 C 1.6611 4.6487 2.8286 0
M  V30 10 O -1.3652 -0.3367 3.0946 0
M  V30 11 N 0.1544 0.876 1.8876 0
M  V30 12 C 3.0076 4.4827 2.4859 0
M  V30 13 C -0.7436 1.1419 0.7842 0
M  V30 14 C 3.6848 5.4606 1.5716 0
M  V30 15 C -0.7321 0.0033 -0.2304 0
M  V30 16 C -1.6969 0.2849 -1.3818 0
M  V30 17 C -1.6758 -0.8186 -2.4088 0
M  V30 18 C -0.8741 -0.7158 -3.5501 0
M  V30 19 C -2.4393 -1.9774 -2.221 0
M  V30 20 C -0.8485 -1.7507 -4.488 0
M  V30 21 C -2.4111 -3.0127 -3.1622 0
M  V30 22 C -1.6153 -2.9028 -4.3016 0
M  V30 23 O -1.4955 -3.8355 -5.2947 0
M  V30 24 C -2.2623 -5.0302 -5.1571 0
M  V30 25 C -1.9804 -5.9085 -6.3629 0
M  V30 26 H 1.8237 -0.1466 3.5617 0
M  V30 27 H 3.6279 1.5985 4.1864 0
M  V30 28 H -0.0227 3.8758 3.919 0
M  V30 29 H 1.3889 -1.4358 5.6317 0
M  V30 30 H -0.3644 -1.2234 5.432 0
M  V30 31 H 0.551 -2.167 4.2585 0
M  V30 32 H 4.7478 3.2188 2.7164 0
M  V30 33 H 1.0995 5.5032 2.4567 0
M  V30 34 H 1.0781 1.2912 1.8672 0
M  V30 35 H -0.4107 2.075 0.3175 0
M  V30 36 H -1.7545 1.3002 1.1761 0
M  V30 37 H 3.2642 6.4644 1.6925 0
M  V30 38 H 4.7546 5.5281 1.7951 0
M  V30 39 H 3.5596 5.1472 0.5307 0
M  V30 40 H -1.0017 -0.9388 0.2637 0
M  V30 41 H 0.2867 -0.134 -0.6152 0
M  V30 42 H -2.7193 0.403 -1.0007 0
M  V30 43 H -1.4424 1.238 -1.8626 0
M  V30 44 H -0.2638 0.1676 -3.7198 0
M  V30 45 H -3.0624 -2.0836 -1.3349 0
M  V30 46 H -0.2236 -1.6591 -5.3728 0
M  V30 47 H -3.021 -3.8889 -2.9712 0
M  V30 48 H -3.3326 -4.7948 -5.1289 0
M  V30 49 H -1.9701 -5.5674 -4.2475 0
M  V30 50 H -2.5468 -6.8422 -6.306 0
M  V30 51 H -2.2471 -5.3888 -7.2892 0
M  V30 52 H -0.9132 -6.1453 -6.4261 0
M  V30 END ATOM
M  V30 BEGIN BOND
M  V30 1 1 1 2
M  V30 2 1 1 3
M  V30 3 2 2 4
M  V30 4 1 2 5
M  V30 5 1 3 6
M  V30 6 1 3 7
M  V30 7 1 4 8
M  V30 8 2 5 9
M  V30 9 2 6 10
M  V30 10 1 6 11
M  V30 11 2 8 12
M  V30 12 1 11 13
M  V30 13 1 12 14
M  V30 14 1 13 15
M  V30 15 1 15 16
M  V30 16 1 16 17
M  V30 17 2 17 18
M  V30 18 1 17 19
M  V30 19 1 18 20
M  V30 20 2 19 21
M  V30 21 2 20 22
M  V30 22 1 22 23
M  V30 23 1 23 24
M  V30 24 1 24 25
M  V30 25 1 9 12
M  V30 26 1 21 22
M  V30 27 1 3 26
M  V30 28 1 4 27
M  V30 29 1 5 28
M  V30 30 1 7 29
M  V30 31 1 7 30
M  V30 32 1 7 31
M  V30 33 1 8 32
M  V30 34 1 9 33
M  V30 35 1 11 34
M  V30 36 1 13 35
M  V30 37 1 13 36
M  V30 38 1 14 37
M  V30 39 1 14 38
M  V30 40 1 14 39
M  V30 41 1 15 40
M  V30 42 1 15 41
M  V30 43 1 16 42
M  V30 44 1 16 43
M  V30 45 1 18 44
M  V30 46 1 19 45
M  V30 47 1 20 46
M  V30 48 1 21 47
M  V30 49 1 24 48
M  V30 50 1 24 49
M  V30 51 1 25 50
M  V30 52 1 25 51
M  V30 53 1 25 52
M  V30 END BOND
M  V30 BEGIN COLLECTION
M  V30 MDLV30/STEABS ATOMS=(1 3)
M  V30 END COLLECTION
M  V30 END CTAB
M  END
>  <Column 1>
2623

>  <level_0>
3853

>  <index>
3853

>  <Unnamed: 0>
3853

>  <NO.>
3865

>  <Name>
teniposide

>  <IUPAC_name>
(2s)-n-[3-(4-ethoxyphenyl)propyl]-2-(4-methylphenyl)sulfanylpropanamide

>  <SMILES>
CCOc1ccc(CCCNC(=O)[C@H](C)Sc2ccc(C)cc2)cc1

>  <CID>
100005396

>  <logBB>


>  <BBB+/BBB->
BBB+

>  <Inchi>
InChI=1S/C21H27NO2S/c1-4-24-19-11-9-18(10-12-19)6-5-15-22-21(23)17(3)25-20-13-7-16(2)8-14-20/h7-14-17H-4-6-15H2-1-3H3-(H-22-23)/t17-/m0/s1

>  <threshold>
-1

>  <reference>
R16|R10|

>  <group>
B

>  <Class>
1

>  <ABC>
18.67

>  <ABCGG>
14.22

>  <nAcid>
0

>  <nBase>
0

>  <nAromAtom>
12

>  <nAromBond>
12

>  <nAtom>
52

>  <nHeavyAtom>
25

>  <nSpiro>
0

>  <nBridgehead>
0

>  <nHetero>
4

>  <nN>
1

>  <nO>
2

>  <nF>
0

>  <BalabanJ>
1.51

>  <BertzCT>
652.6

>  <nBonds>
53

>  <nBondsO>
26

>  <nBondsS>
40

>  <nBondsD>
1

>  <nBondsT>
0

>  <nBondsA>
12

>  <nBondsM>
13

>  <nBondsKS>
46

>  <nBondsKD>
7

>  <RNCG>
0.26

>  <RPCG>
0.12

>  <FCSP3>
0.38

>  <SZ>
32

>  <Sm>
29.77

>  <Sv>
31.69

>  <Sse>
51.39

>  <Sp>
35.14

>  <Si>
58.24

>  <MZ>
0.62

>  <Mm>
0.57

>  <Mv>
0.61

>  <Mse>
0.99

>  <Mp>
0.68

>  <Mi>
1.12

>  <NsCH3>
3

>  <NdCH2>
0

>  <NssCH2>
4

>  <NtCH>
0

>  <NdsCH>
0

>  <NaaCH>
8

>  <NsssCH>
1

>  <NddC>
0

>  <NtsC>
0

>  <NdssC>
1

>  <NaasC>
4

>  <NaaaC>
0

>  <NssssC>
0

>  <NsNH3>
0

>  <NsNH2>
0

>  <NssNH2>
0

>  <NdNH>
0

>  <NssNH>
1

>  <NaaNH>
0

>  <NtN>
0

>  <NsssNH>
0

>  <NdsN>
0

>  <NaaN>
0

>  <NsssN>
0

>  <NddsN>
0

>  <NaasN>
0

>  <NssssN>
0

>  <NsOH>
0

>  <NdO>
1

>  <NssO>
1

>  <NaaO>
0

>  <NsF>
0

>  <NsSiH3>
0

>  <NssSiH2>
0

>  <NsssSiH>
0

>  <NssssSi>
0

>  <NsPH2>
0

>  <NssPH>
0

>  <NsssP>
0

>  <NdsssP>
0

>  <NsssssP>
0

>  <NsSH>
0

>  <NdS>
0

>  <NssS>
1

>  <NaaS>
0

>  <NdssS>
0

>  <NddssS>
0

>  <NsCl>
0

>  <NsBr>
0

>  <NsI>
0

>  <fragCpx>
76.04

>  <fMF>
0.37

>  <nHBAcc>
3

>  <nHBDon>
1

>  <Kier1>
21.3

>  <Kier2>
11.66

>  <Lipinski>
1

>  <GhoseFilter>
1

>  <FilterItLogS>
-6.34

>  <VMcGowan>
293

>  <LabuteASA>
154.72

>  <PEOE_VSA1>
10.05

>  <PEOE_VSA2>
4.79

>  <PEOE_VSA3>
0

>  <PEOE_VSA4>
0

>  <PEOE_VSA5>
11.76

>  <PEOE_VSA6>
29.83

>  <PEOE_VSA7>
63.44

>  <PEOE_VSA8>
11.44

>  <PEOE_VSA9>
11.86

>  <PEOE_VSA10>
5.75

>  <PEOE_VSA11>
0

>  <PEOE_VSA12>
5.91

>  <PEOE_VSA13>
0

>  <SMR_VSA1>
9.53

>  <SMR_VSA2>
0

>  <SMR_VSA3>
5.32

>  <SMR_VSA4>
0

>  <SMR_VSA5>
43.76

>  <SMR_VSA6>
13.15

>  <SMR_VSA7>
59.66

>  <SMR_VSA8>
0

>  <SMR_VSA9>
5.75

>  <SlogP_VSA1>
10.05

>  <SlogP_VSA2>
24.31

>  <SlogP_VSA3>
11.22

>  <SlogP_VSA4>
6.92

>  <SlogP_VSA5>
31.4

>  <SlogP_VSA6>
53.43

>  <SlogP_VSA7>
0

>  <SlogP_VSA8>
0

>  <SlogP_VSA9>
0

>  <SlogP_VSA10>
0

>  <SlogP_VSA11>
5.75

>  <EState_VSA1>
0

>  <EState_VSA2>
11.16

>  <EState_VSA3>
13.15

>  <EState_VSA4>
23.49

>  <EState_VSA5>
11.13

>  <EState_VSA6>
11.76

>  <EState_VSA7>
25.98

>  <EState_VSA8>
48.64

>  <EState_VSA9>
4.74

>  <EState_VSA10>
4.79

>  <VSA_EState1>
5.44

>  <VSA_EState2>
13.32

>  <VSA_EState3>
2.94

>  <VSA_EState4>
2.5

>  <VSA_EState5>
1

>  <VSA_EState6>
16.44

>  <VSA_EState7>
1.88

>  <VSA_EState8>
7.38

>  <VSA_EState9>
0

>  <apol>
58.68

>  <bpol>
32.72

>  <nRing>
2

>  <nHRing>
0

>  <naRing>
2

>  <naHRing>
0

>  <nARing 2>
0

>  <nAHRing 2>
0

>  <nFRing>
0

>  <nFHRing>
0

>  <nFaRing>
0

>  <nFaHRing>
0

>  <nFARing 2>
0

>  <nFAHRing 2>
0

>  <nRot>
9

>  <SLogP>
4.62

>  <SMR>
105.44

>  <TopoPSA(NO)>
38.33

>  <TopoPSA>
63.63

>  <JGI1>
0.19

>  <JGI2>
0.07

>  <JGI3>
0.03

>  <JGI4>
0.04

>  <JGI5>
0.02

>  <Diameter>
18

>  <Radius>
9

>  <TMWC10>
122.98

>  <TSRW10>
58.7

>  <MW>
357.18

>  <AMW>
6.87

>  <WPath>
1974

>  <WPol>
32

>  <Zagreb1>
118

>  <Zagreb2>
130

>  <mZagreb2>
5.78

>  <yes>


>  <nAR-cont>
0.336376

>  <nHA-cont>
0.921834225

>  <MWHBN>
0.211649099

>  <MWHBN-cont>
0.998872391

>  <TPSA-cont>
0.555823088

>  <pka_cont>
0.97

>  <yes.1>


>  <BBB_SCORE>
4.353164987

>  <MMFF94 Energy>
39.846

$$$$
Compound 2131
Actelion Java MolfileCreator 2.0

  0  0  0  0  0  0              0 V3000
M  V30 BEGIN CTAB
M  V30 COUNTS 44 45 0 0 0
M  V30 BEGIN ATOM
M  V30 1 Cl 1.6802 -3.7635 -0.3198 0
M  V30 2 C 3.3059 -3.445 0.1728 0
M  V30 3 C 3.6841 -2.3321 0.9406 0
M  V30 4 C 4.2781 -4.3557 -0.2669 0
M  V30 5 C 2.7486 -1.2961 1.4589 0
M  V30 6 C 5.0457 -2.1343 1.2432 0
M  V30 7 C 5.6267 -4.1652 0.044 0
M  V30 8 O 3.1406 -0.1393 1.57 0
M  V30 9 N 1.4916 -1.7056 1.8382 0
M  V30 10 C 6.0067 -3.0502 0.798 0
M  V30 11 C 0.5062 -0.7765 2.3529 0
M  V30 12 N 7.4231 -2.8432 1.127 0 CHG=1
M  V30 13 C -0.2767 -0.1154 1.2225 0
M  V30 14 O 8.2492 -3.6032 0.603 0
M  V30 15 O 7.7045 -1.929 1.9128 0 CHG=-1
M  V30 16 C -1.3046 0.8733 1.772 0
M  V30 17 C -2.1096 1.5121 0.6687 0
M  V30 18 C -1.6132 2.6256 -0.0174 0
M  V30 19 C -3.3524 0.9868 0.2947 0
M  V30 20 C -2.3541 3.2055 -1.0496 0
M  V30 21 C -4.0927 1.5705 -0.7399 0
M  V30 22 C -3.5964 2.6843 -1.4165 0
M  V30 23 O -4.2143 3.3472 -2.4408 0
M  V30 24 C -5.4899 2.8605 -2.8526 0
M  V30 25 C -5.9838 3.742 -3.9858 0
M  V30 26 H 3.9904 -5.2185 -0.8662 0
M  V30 27 H 5.3408 -1.2617 1.8274 0
M  V30 28 H 6.3609 -4.8862 -0.3117 0
M  V30 29 H 1.2124 -2.6694 1.7007 0
M  V30 30 H 1.011 -0.021 2.9652 0
M  V30 31 H -0.1653 -1.3482 3.0019 0
M  V30 32 H -0.7767 -0.8873 0.6231 0
M  V30 33 H 0.414 0.3995 0.5426 0
M  V30 34 H -1.9809 0.3651 2.4712 0
M  V30 35 H -0.8039 1.6578 2.3538 0
M  V30 36 H -0.6457 3.0486 0.2443 0
M  V30 37 H -3.7559 0.1162 0.8068 0
M  V30 38 H -1.9579 4.0714 -1.5742 0
M  V30 39 H -5.0507 1.1287 -0.9914 0
M  V30 40 H -6.2038 2.9125 -2.0224 0
M  V30 41 H -5.4054 1.8289 -3.2133 0
M  V30 42 H -6.9636 3.4095 -4.3399 0
M  V30 43 H -6.0611 4.7841 -3.658 0
M  V30 44 H -5.2795 3.723 -4.824 0
M  V30 END ATOM
M  V30 BEGIN BOND
M  V30 1 1 1 2
M  V30 2 2 2 3
M  V30 3 1 2 4
M  V30 4 1 3 5
M  V30 5 1 3 6
M  V30 6 2 4 7
M  V30 7 2 5 8
M  V30 8 1 5 9
M  V30 9 2 6 10
M  V30 10 1 9 11
M  V30 11 1 10 12
M  V30 12 1 11 13
M  V30 13 2 12 14
M  V30 14 1 12 15
M  V30 15 1 13 16
M  V30 16 1 16 17
M  V30 17 2 17 18
M  V30 18 1 17 19
M  V30 19 1 18 20
M  V30 20 2 19 21
M  V30 21 2 20 22
M  V30 22 1 22 23
M  V30 23 1 23 24
M  V30 24 1 24 25
M  V30 25 1 7 10
M  V30 26 1 21 22
M  V30 27 1 4 26
M  V30 28 1 6 27
M  V30 29 1 7 28
M  V30 30 1 9 29
M  V30 31 1 11 30
M  V30 32 1 11 31
M  V30 33 1 13 32
M  V30 34 1 13 33
M  V30 35 1 16 34
M  V30 36 1 16 35
M  V30 37 1 18 36
M  V30 38 1 19 37
M  V30 39 1 20 38
M  V30 40 1 21 39
M  V30 41 1 24 40
M  V30 42 1 24 41
M  V30 43 1 25 42
M  V30 44 1 25 43
M  V30 45 1 25 44
M  V30 END BOND
M  V30 END CTAB
M  END
>  <Column 1>
2624

>  <level_0>
3854

>  <index>
3854

>  <Unnamed: 0>
3854

>  <NO.>
3866

>  <Name>
primidone

>  <IUPAC_name>
2-chloro-n-[3-(4-ethoxyphenyl)propyl]-5-nitrobenzamide

>  <SMILES>
CCOc1ccc(CCCNC(=O)c2cc([N+](=O)[O-])ccc2Cl)cc1

>  <CID>
100004909

>  <logBB>


>  <BBB+/BBB->
BBB+

>  <Inchi>
InChI=1S/C18H19ClN2O4/c1-2-25-15-8-5-13(6-9-15)4-3-11-20-18(22)16-12-14(21(23)24)7-10-17(16)19/h5-10-12H-2-4-11H2-1H3-(H-20-22)

>  <threshold>
-1

>  <reference>
R16|R10|R10|

>  <group>
B

>  <Class>
1

>  <ABC>
18.7

>  <ABCGG>
14.66

>  <nAcid>
0

>  <nBase>
0

>  <nAromAtom>
12

>  <nAromBond>
12

>  <nAtom>
44

>  <nHeavyAtom>
25

>  <nSpiro>
0

>  <nBridgehead>
0

>  <nHetero>
7

>  <nN>
2

>  <nO>
4

>  <nF>
0

>  <BalabanJ>
1.61

>  <BertzCT>
747.24

>  <nBonds>
45

>  <nBondsO>
26

>  <nBondsS>
31

>  <nBondsD>
2

>  <nBondsT>
0

>  <nBondsA>
12

>  <nBondsM>
14

>  <nBondsKS>
37

>  <nBondsKD>
8

>  <RNCG>
0.24

>  <RPCG>
0.13

>  <FCSP3>
0.28

>  <SZ>
31.67

>  <Sm>
30.21

>  <Sv>
28.61

>  <Sse>
44.85

>  <Sp>
30.13

>  <Si>
49.52

>  <MZ>
0.72

>  <Mm>
0.69

>  <Mv>
0.65

>  <Mse>
1.02

>  <Mp>
0.68

>  <Mi>
1.13

>  <NsCH3>
1

>  <NdCH2>
0

>  <NssCH2>
4

>  <NtCH>
0

>  <NdsCH>
0

>  <NaaCH>
7

>  <NsssCH>
0

>  <NddC>
0

>  <NtsC>
0

>  <NdssC>
1

>  <NaasC>
5

>  <NaaaC>
0

>  <NssssC>
0

>  <NsNH3>
0

>  <NsNH2>
0

>  <NssNH2>
0

>  <NdNH>
0

>  <NssNH>
1

>  <NaaNH>
0

>  <NtN>
0

>  <NsssNH>
0

>  <NdsN>
0

>  <NaaN>
0

>  <NsssN>
0

>  <NddsN>
1

>  <NaasN>
0

>  <NssssN>
0

>  <NsOH>
0

>  <NdO>
2

>  <NssO>
1

>  <NaaO>
0

>  <NsF>
0

>  <NsSiH3>
0

>  <NssSiH2>
0

>  <NsssSiH>
0

>  <NssssSi>
0

>  <NsPH2>
0

>  <NssPH>
0

>  <NsssP>
0

>  <NdsssP>
0

>  <NsssssP>
0

>  <NsSH>
0

>  <NdS>
0

>  <NssS>
0

>  <NaaS>
0

>  <NdssS>
0

>  <NddssS>
0

>  <NsCl>
1

>  <NsBr>
0

>  <NsI>
0

>  <fragCpx>
76.07

>  <fMF>
0.39

>  <nHBAcc>
4

>  <nHBDon>
1

>  <Kier1>
21.3

>  <Kier2>
10.98

>  <Lipinski>
1

>  <GhoseFilter>
1

>  <FilterItLogS>
-6.18

>  <VMcGowan>
264.04

>  <LabuteASA>
150.46

>  <PEOE_VSA1>
10.05

>  <PEOE_VSA2>
14.91

>  <PEOE_VSA3>
0

>  <PEOE_VSA4>
0

>  <PEOE_VSA5>
0

>  <PEOE_VSA6>
23.73

>  <PEOE_VSA7>
43.53

>  <PEOE_VSA8>
18.68

>  <PEOE_VSA9>
22.12

>  <PEOE_VSA10>
5.75

>  <PEOE_VSA11>
0

>  <PEOE_VSA12>
0

>  <PEOE_VSA13>
11.59

>  <SMR_VSA1>
14.45

>  <SMR_VSA2>
0

>  <SMR_VSA3>
5.32

>  <SMR_VSA4>
0

>  <SMR_VSA5>
19.77

>  <SMR_VSA6>
13.15

>  <SMR_VSA7>
68.73

>  <SMR_VSA8>
0

>  <SMR_VSA9>
5.75

>  <SlogP_VSA1>
10.05

>  <SlogP_VSA2>
23.98

>  <SlogP_VSA3>
6.42

>  <SlogP_VSA4>
10.11

>  <SlogP_VSA5>
29.27

>  <SlogP_VSA6>
42.46

>  <SlogP_VSA7>
5.02

>  <SlogP_VSA8>
0

>  <SlogP_VSA9>
0

>  <SlogP_VSA10>
5.69

>  <SlogP_VSA11>
5.75

>  <EState_VSA1>
10.83

>  <EState_VSA2>
16.27

>  <EState_VSA3>
13.15

>  <EState_VSA4>
24.15

>  <EState_VSA5>
18.2

>  <EState_VSA6>
0

>  <EState_VSA7>
31.19

>  <EState_VSA8>
5.32

>  <EState_VSA9>
16.34

>  <EState_VSA10>
14.91

>  <VSA_EState1>
5.39

>  <VSA_EState2>
22.37

>  <VSA_EState3>
13.72

>  <VSA_EState4>
1.09

>  <VSA_EState5>
0.42

>  <VSA_EState6>
11.62

>  <VSA_EState7>
1.54

>  <VSA_EState8>
3.01

>  <VSA_EState9>
0

>  <apol>
50.32

>  <bpol>
23.91

>  <nRing>
2

>  <nHRing>
0

>  <naRing>
2

>  <naHRing>
0

>  <nARing 2>
0

>  <nAHRing 2>
0

>  <nFRing>
0

>  <nFHRing>
0

>  <nFaRing>
0

>  <nFaHRing>
0

>  <nFARing 2>
0

>  <nFAHRing 2>
0

>  <nRot>
8

>  <SLogP>
4.01

>  <SMR>
96.37

>  <TopoPSA(NO)>
81.47

>  <TopoPSA>
81.47

>  <JGI1>
0.19

>  <JGI2>
0.08

>  <JGI3>
0.04

>  <JGI4>
0.04

>  <JGI5>
0.03

>  <Diameter>
16

>  <Radius>
8

>  <TMWC10>
124

>  <TSRW10>
59.02

>  <MW>
362.1

>  <AMW>
8.23

>  <WPath>
1862

>  <WPol>
35

>  <Zagreb1>
120

>  <Zagreb2>
135

>  <mZagreb2>
5.75

>  <yes>


>  <nAR-cont>
0.336376

>  <nHA-cont>
0.921834225

>  <MWHBN>
0.262757876

>  <MWHBN-cont>
0.935826073

>  <TPSA-cont>
0.43128881

>  <pka_cont>
0.97

>  <yes.1>


>  <BBB_SCORE>
4.009526955

>  <MMFF94 Energy>
50.858

$$$$
Compound 2132
Actelion Java MolfileCreator 2.0

  0  0  0  0  0  0              0 V3000
M  V30 BEGIN CTAB
M  V30 COUNTS 59 60 0 0 0
M  V30 BEGIN ATOM
M  V30 1 S -0.7153 0.2384 -3.8994 0
M  V30 2 O -2.1119 0.0544 -4.2384 0
M  V30 3 O -0.0818 1.5213 -4.1165 0
M  V30 4 N -0.4829 -0.2747 -2.2922 0
M  V30 5 C 0.2205 -0.9703 -4.8112 0
M  V30 6 C 0.7229 0.0955 -1.5996 0
M  V30 7 C -1.5863 -1.0327 -1.6253 0 CFG=2
M  V30 8 C 1.5278 -0.8754 -1.0013 0
M  V30 9 C 1.0939 1.4358 -1.4712 0
M  V30 10 C -1.5563 -1.0702 -0.0908 0
M  V30 11 C -1.8287 -2.4332 -2.2273 0
M  V30 12 C 2.6972 -0.5209 -0.314 0
M  V30 13 C 2.2694 1.7898 -0.8007 0
M  V30 14 O -1.3385 -2.0988 0.5459 0
M  V30 15 N -1.8534 0.1545 0.4907 0
M  V30 16 C -0.6707 -3.4189 -2.1803 0
M  V30 17 C 3.0758 0.8153 -0.2148 0
M  V30 18 C -2.151 0.3128 1.8601 0
M  V30 19 O 4.1829 1.2961 0.4243 0
M  V30 20 C -1.3575 1.1746 2.6449 0
M  V30 21 C -3.2808 -0.3197 2.4229 0
M  V30 22 C 5.0206 0.3443 1.0782 0
M  V30 23 C -1.6886 1.3678 3.9969 0
M  V30 24 C -0.1492 1.898 2.1014 0
M  V30 25 C -3.566 -0.1245 3.7842 0
M  V30 26 C -4.1956 -1.2168 1.6334 0
M  V30 27 C 6.1656 1.0985 1.7299 0
M  V30 28 C -2.7787 0.7162 4.5646 0
M  V30 29 C -0.5126 3.2375 1.4796 0
M  V30 30 H 1.248 -0.9816 -4.4441 0
M  V30 31 H 0.2129 -0.6703 -5.8619 0
M  V30 32 H -0.2479 -1.9485 -4.715 0
M  V30 33 H -2.5072 -0.4644 -1.8322 0
M  V30 34 H 1.2671 -1.9262 -1.0446 0
M  V30 35 H 0.4814 2.2322 -1.886 0
M  V30 36 H -2.1441 -2.3372 -3.2718 0
M  V30 37 H -2.6794 -2.8936 -1.7072 0
M  V30 38 H 3.2825 -1.3169 0.1347 0
M  V30 39 H 2.5486 2.8383 -0.7253 0
M  V30 40 H -1.7406 0.9933 -0.0651 0
M  V30 41 H 0.1984 -3.053 -2.7306 0
M  V30 42 H -0.9739 -4.364 -2.6436 0
M  V30 43 H -0.3658 -3.6456 -1.1558 0
M  V30 44 H 5.4283 -0.3662 0.3502 0
M  V30 45 H 4.4578 -0.1899 1.8524 0
M  V30 46 H -1.0858 2.0252 4.6202 0
M  V30 47 H 0.3645 1.2617 1.3772 0
M  V30 48 H 0.5777 2.0599 2.9074 0
M  V30 49 H -4.4172 -0.6237 4.2427 0
M  V30 50 H -4.3448 -0.8389 0.6171 0
M  V30 51 H -5.1892 -1.2651 2.0929 0
M  V30 52 H -3.7912 -2.2321 1.5928 0
M  V30 53 H 6.8408 0.4113 2.2472 0
M  V30 54 H 6.7356 1.657 0.9801 0
M  V30 55 H 5.7848 1.8298 2.4506 0
M  V30 56 H -3.0162 0.8647 5.6147 0
M  V30 57 H 0.387 3.7399 1.1108 0
M  V30 58 H -0.9907 3.8968 2.2122 0
M  V30 59 H -1.2024 3.1186 0.6382 0
M  V30 END ATOM
M  V30 BEGIN BOND
M  V30 1 2 1 2
M  V30 2 2 1 3
M  V30 3 1 1 4
M  V30 4 1 1 5
M  V30 5 1 4 6
M  V30 6 1 4 7
M  V30 7 2 6 8
M  V30 8 1 6 9
M  V30 9 1 7 10
M  V30 10 1 7 11
M  V30 11 1 8 12
M  V30 12 2 9 13
M  V30 13 2 10 14
M  V30 14 1 10 15
M  V30 15 1 11 16
M  V30 16 2 12 17
M  V30 17 1 15 18
M  V30 18 1 17 19
M  V30 19 2 18 20
M  V30 20 1 18 21
M  V30 21 1 19 22
M  V30 22 1 20 23
M  V30 23 1 20 24
M  V30 24 2 21 25
M  V30 25 1 21 26
M  V30 26 1 22 27
M  V30 27 2 23 28
M  V30 28 1 24 29
M  V30 29 1 13 17
M  V30 30 1 25 28
M  V30 31 1 5 30
M  V30 32 1 5 31
M  V30 33 1 5 32
M  V30 34 1 7 33
M  V30 35 1 8 34
M  V30 36 1 9 35
M  V30 37 1 11 36
M  V30 38 1 11 37
M  V30 39 1 12 38
M  V30 40 1 13 39
M  V30 41 1 15 40
M  V30 42 1 16 41
M  V30 43 1 16 42
M  V30 44 1 16 43
M  V30 45 1 22 44
M  V30 46 1 22 45
M  V30 47 1 23 46
M  V30 48 1 24 47
M  V30 49 1 24 48
M  V30 50 1 25 49
M  V30 51 1 26 50
M  V30 52 1 26 51
M  V30 53 1 26 52
M  V30 54 1 27 53
M  V30 55 1 27 54
M  V30 56 1 27 55
M  V30 57 1 28 56
M  V30 58 1 29 57
M  V30 59 1 29 58
M  V30 60 1 29 59
M  V30 END BOND
M  V30 BEGIN COLLECTION
M  V30 MDLV30/STEABS ATOMS=(1 7)
M  V30 END COLLECTION
M  V30 END CTAB
M  END
>  <Column 1>
2625

>  <level_0>
3855

>  <index>
3855

>  <Unnamed: 0>
3855

>  <NO.>
3867

>  <Name>
trovafloxacin

>  <IUPAC_name>
(2s)-2-(4-ethoxy-n-methylsulfonylanilino)-n-(2-ethyl-6-methylphenyl)butanamide

>  <SMILES>
CCOc1ccc(N([C@@H](CC)C(=O)Nc2c(C)cccc2CC)S(C)(=O)=O)cc1

>  <CID>
100062959

>  <logBB>


>  <BBB+/BBB->
BBB+

>  <Inchi>
InChI=1S/C22H30N2O4S/c1-6-17-11-9-10-16(4)21(17)23-22(25)20(7-2)24(29(5-26)27)18-12-14-19(15-13-18)28-8-3/h9-15-20H-6-8H2-1-5H3-(H-23-25)/t20-/m0/s1

>  <threshold>
-1

>  <reference>
R16|R10|

>  <group>
B

>  <Class>
1

>  <ABC>
21.64

>  <ABCGG>
18.78

>  <nAcid>
0

>  <nBase>
0

>  <nAromAtom>
12

>  <nAromBond>
12

>  <nAtom>
59

>  <nHeavyAtom>
29

>  <nSpiro>
0

>  <nBridgehead>
0

>  <nHetero>
7

>  <nN>
2

>  <nO>
4

>  <nF>
0

>  <BalabanJ>
2.11

>  <BertzCT>
939.78

>  <nBonds>
60

>  <nBondsO>
30

>  <nBondsS>
45

>  <nBondsD>
3

>  <nBondsT>
0

>  <nBondsA>
12

>  <nBondsM>
15

>  <nBondsKS>
51

>  <nBondsKD>
9

>  <RNCG>
0.21

>  <RPCG>
0.11

>  <FCSP3>
0.41

>  <SZ>
37.33

>  <Sm>
34.85

>  <Sv>
35.69

>  <Sse>
59.04

>  <Sp>
38.95

>  <Si>
66.57

>  <MZ>
0.63

>  <Mm>
0.59

>  <Mv>
0.6

>  <Mse>
1

>  <Mp>
0.66

>  <Mi>
1.13

>  <NsCH3>
5

>  <NdCH2>
0

>  <NssCH2>
3

>  <NtCH>
0

>  <NdsCH>
0

>  <NaaCH>
7

>  <NsssCH>
1

>  <NddC>
0

>  <NtsC>
0

>  <NdssC>
1

>  <NaasC>
5

>  <NaaaC>
0

>  <NssssC>
0

>  <NsNH3>
0

>  <NsNH2>
0

>  <NssNH2>
0

>  <NdNH>
0

>  <NssNH>
1

>  <NaaNH>
0

>  <NtN>
0

>  <NsssNH>
0

>  <NdsN>
0

>  <NaaN>
0

>  <NsssN>
1

>  <NddsN>
0

>  <NaasN>
0

>  <NssssN>
0

>  <NsOH>
0

>  <NdO>
3

>  <NssO>
1

>  <NaaO>
0

>  <NsF>
0

>  <NsSiH3>
0

>  <NssSiH2>
0

>  <NsssSiH>
0

>  <NssssSi>
0

>  <NsPH2>
0

>  <NssPH>
0

>  <NsssP>
0

>  <NdsssP>
0

>  <NsssssP>
0

>  <NsSH>
0

>  <NdS>
0

>  <NssS>
0

>  <NaaS>
0

>  <NdssS>
0

>  <NddssS>
1

>  <NsCl>
0

>  <NsBr>
0

>  <NsI>
0

>  <fragCpx>
88.07

>  <fMF>
0.27

>  <nHBAcc>
4

>  <nHBDon>
1

>  <Kier1>
25.26

>  <Kier2>
11.57

>  <Lipinski>
1

>  <GhoseFilter>
1

>  <FilterItLogS>
-5.96

>  <VMcGowan>
328.81

>  <LabuteASA>
173.48

>  <PEOE_VSA1>
10.05

>  <PEOE_VSA2>
9.1

>  <PEOE_VSA3>
8.42

>  <PEOE_VSA4>
0

>  <PEOE_VSA5>
0

>  <PEOE_VSA6>
32.05

>  <PEOE_VSA7>
62.08

>  <PEOE_VSA8>
5.69

>  <PEOE_VSA9>
18.55

>  <PEOE_VSA10>
11.79

>  <PEOE_VSA11>
0

>  <PEOE_VSA12>
15.93

>  <PEOE_VSA13>
0

>  <SMR_VSA1>
17.95

>  <SMR_VSA2>
0

>  <SMR_VSA3>
0

>  <SMR_VSA4>
0

>  <SMR_VSA5>
46.58

>  <SMR_VSA6>
22.48

>  <SMR_VSA7>
53.59

>  <SMR_VSA8>
0

>  <SMR_VSA9>
5.75

>  <SlogP_VSA1>
14.36

>  <SlogP_VSA2>
33.23

>  <SlogP_VSA3>
21.24

>  <SlogP_VSA4>
6.92

>  <SlogP_VSA5>
38.32

>  <SlogP_VSA6>
42.46

>  <SlogP_VSA7>
0

>  <SlogP_VSA8>
0

>  <SlogP_VSA9>
0

>  <SlogP_VSA10>
11.37

>  <SlogP_VSA11>
5.75

>  <EState_VSA1>
16.07

>  <EState_VSA2>
5.91

>  <EState_VSA3>
24.46

>  <EState_VSA4>
29.49

>  <EState_VSA5>
4.31

>  <EState_VSA6>
31.19

>  <EState_VSA7>
38.97

>  <EState_VSA8>
5.32

>  <EState_VSA9>
4.74

>  <EState_VSA10>
13.21

>  <VSA_EState1>
31.82

>  <VSA_EState2>
13.15

>  <VSA_EState3>
2.97

>  <VSA_EState4>
3.14

>  <VSA_EState5>
0.3

>  <VSA_EState6>
11.7

>  <VSA_EState7>
2.22

>  <VSA_EState8>
8.15

>  <VSA_EState9>
-3.69

>  <apol>
65.05

>  <bpol>
41.64

>  <nRing>
2

>  <nHRing>
0

>  <naRing>
2

>  <naHRing>
0

>  <nARing 2>
0

>  <nAHRing 2>
0

>  <nFRing>
0

>  <nFHRing>
0

>  <nFaRing>
0

>  <nFaHRing>
0

>  <nFARing 2>
0

>  <nFAHRing 2>
0

>  <nRot>
9

>  <SLogP>
4.14

>  <SMR>
118.2

>  <TopoPSA(NO)>
75.71

>  <TopoPSA>
84.09

>  <JGI1>
0.23

>  <JGI2>
0.1

>  <JGI3>
0.06

>  <JGI4>
0.05

>  <JGI5>
0.02

>  <Diameter>
14

>  <Radius>
7

>  <TMWC10>
135.18

>  <TSRW10>
64.32

>  <MW>
418.19

>  <AMW>
7.09

>  <WPath>
2240

>  <WPol>
47

>  <Zagreb1>
144

>  <Zagreb2>
167

>  <mZagreb2>
6.64

>  <yes>


>  <nAR-cont>
0.336376

>  <nHA-cont>
0.785905698

>  <MWHBN>
0.244502432

>  <MWHBN-cont>
0.968535055

>  <TPSA-cont>
0.412999583

>  <pka_cont>
0.97

>  <yes.1>


>  <BBB_SCORE>
3.886083448

>  <MMFF94 Energy>
25.23

$$$$
Compound 2133
Actelion Java MolfileCreator 2.0

  0  0  0  0  0  0              0 V3000
M  V30 BEGIN CTAB
M  V30 COUNTS 32 34 0 0 0
M  V30 BEGIN ATOM
M  V30 1 S -1.0703 -1.2351 2.0591 0
M  V30 2 O -1.2555 -2.2333 3.0944 0
M  V30 3 O -1.8269 0.0 2.0999 0
M  V30 4 C 0.69 -0.8399 2.1297 0 CFG=2
M  V30 5 C -1.3579 -2.021 0.4914 0
M  V30 6 C 0.9425 0.5256 2.7284 0 CFG=2
M  V30 7 C 1.279 0.2492 1.2768 0 CFG=2
M  V30 8 C -0.3919 -3.1504 0.2028 0
M  V30 9 C 2.0155 0.6566 3.6714 0
M  V30 10 C 0.5629 0.861 0.0934 0
M  V30 11 N 2.8997 0.7462 4.4155 0
M  V30 12 C 0.9175 0.4409 -1.2063 0
M  V30 13 C -0.3441 1.9451 0.1967 0
M  V30 14 C 0.3268 1.0388 -2.3015 0
M  V30 15 C -0.9333 2.5384 -0.9287 0
M  V30 16 O 0.5562 0.7158 -3.6019 0
M  V30 17 C -0.5787 2.0583 -2.166 0
M  V30 18 C -0.3091 1.6586 -4.2708 0
M  V30 19 O -1.0387 2.5088 -3.3619 0
M  V30 20 H 1.3344 -1.6616 2.4153 0
M  V30 21 H -1.3113 -1.2589 -0.2885 0
M  V30 22 H -2.3841 -2.402 0.5211 0
M  V30 23 H 0.0966 1.1628 2.9525 0
M  V30 24 H 2.3448 0.1056 1.0754 0
M  V30 25 H -0.6505 -3.6361 -0.743 0
M  V30 26 H 0.6362 -2.7856 0.1215 0
M  V30 27 H -0.4185 -3.9074 0.9927 0
M  V30 28 H 1.6454 -0.3505 -1.3589 0
M  V30 29 H -0.62 2.3403 1.1727 0
M  V30 30 H -1.6409 3.3539 -0.8258 0
M  V30 31 H -1.0274 1.1013 -4.883 0
M  V30 32 H 0.3005 2.2887 -4.9286 0
M  V30 END ATOM
M  V30 BEGIN BOND
M  V30 1 2 1 2
M  V30 2 2 1 3
M  V30 3 1 1 4
M  V30 4 1 1 5
M  V30 5 1 4 6
M  V30 6 1 4 7
M  V30 7 1 5 8
M  V30 8 1 6 9
M  V30 9 1 7 10
M  V30 10 3 9 11
M  V30 11 2 10 12
M  V30 12 1 10 13
M  V30 13 1 12 14
M  V30 14 2 13 15
M  V30 15 1 14 16
M  V30 16 2 14 17
M  V30 17 1 16 18
M  V30 18 1 17 19
M  V30 19 1 6 7
M  V30 20 1 15 17
M  V30 21 1 18 19
M  V30 22 1 4 20
M  V30 23 1 5 21
M  V30 24 1 5 22
M  V30 25 1 6 23
M  V30 26 1 7 24
M  V30 27 1 8 25
M  V30 28 1 8 26
M  V30 29 1 8 27
M  V30 30 1 12 28
M  V30 31 1 13 29
M  V30 32 1 15 30
M  V30 33 1 18 31
M  V30 34 1 18 32
M  V30 END BOND
M  V30 BEGIN COLLECTION
M  V30 MDLV30/STEABS ATOMS=(3 4 6 7)
M  V30 END COLLECTION
M  V30 END CTAB
M  END
>  <Column 1>
2626

>  <level_0>
3856

>  <index>
3856

>  <Unnamed: 0>
3856

>  <NO.>
3868

>  <Name>
trazodone

>  <IUPAC_name>
(1r-2r-3s)-2-(1-3-benzodioxol-5-yl)-3-ethylsulfonylcyclopropane-1-carbonitrile

>  <SMILES>
CCS(=O)(=O)[C@@H]1[C@@H](C#N)[C@@H]1c1ccc2c(c1)OCO2

>  <CID>
100005533

>  <logBB>


>  <BBB+/BBB->
BBB+

>  <Inchi>
InChI=1S/C13H13NO4S/c1-2-19(15-16)13-9(6-14)12(13)8-3-4-10-11(5-8)18-7-17-10/h3-5-9-12-13H-2-7H2-1H3/t9--12--13+/m0/s1

>  <threshold>
-1

>  <reference>
R16|R10|R10|

>  <group>
B

>  <Class>
-1

>  <ABC>
14.9

>  <ABCGG>
13.71

>  <nAcid>
0

>  <nBase>
0

>  <nAromAtom>
6

>  <nAromBond>
6

>  <nAtom>
32

>  <nHeavyAtom>
19

>  <nSpiro>
0

>  <nBridgehead>
0

>  <nHetero>
6

>  <nN>
1

>  <nO>
4

>  <nF>
0

>  <BalabanJ>
1.66

>  <BertzCT>
661.71

>  <nBonds>
34

>  <nBondsO>
21

>  <nBondsS>
25

>  <nBondsD>
2

>  <nBondsT>
1

>  <nBondsA>
6

>  <nBondsM>
9

>  <nBondsKS>
28

>  <nBondsKD>
5

>  <RNCG>
0.26

>  <RPCG>
0.13

>  <FCSP3>
0.46

>  <SZ>
24.33

>  <Sm>
23.25

>  <Sv>
21.33

>  <Sse>
32.83

>  <Sp>
22.51

>  <Si>
35.75

>  <MZ>
0.76

>  <Mm>
0.73

>  <Mv>
0.67

>  <Mse>
1.03

>  <Mp>
0.7

>  <Mi>
1.12

>  <NsCH3>
1

>  <NdCH2>
0

>  <NssCH2>
2

>  <NtCH>
0

>  <NdsCH>
0

>  <NaaCH>
3

>  <NsssCH>
3

>  <NddC>
0

>  <NtsC>
1

>  <NdssC>
0

>  <NaasC>
3

>  <NaaaC>
0

>  <NssssC>
0

>  <NsNH3>
0

>  <NsNH2>
0

>  <NssNH2>
0

>  <NdNH>
0

>  <NssNH>
0

>  <NaaNH>
0

>  <NtN>
1

>  <NsssNH>
0

>  <NdsN>
0

>  <NaaN>
0

>  <NsssN>
0

>  <NddsN>
0

>  <NaasN>
0

>  <NssssN>
0

>  <NsOH>
0

>  <NdO>
2

>  <NssO>
2

>  <NaaO>
0

>  <NsF>
0

>  <NsSiH3>
0

>  <NssSiH2>
0

>  <NsssSiH>
0

>  <NssssSi>
0

>  <NsPH2>
0

>  <NssPH>
0

>  <NsssP>
0

>  <NdsssP>
0

>  <NsssssP>
0

>  <NsSH>
0

>  <NdS>
0

>  <NssS>
0

>  <NaaS>
0

>  <NdssS>
0

>  <NddssS>
1

>  <NsCl>
0

>  <NsBr>
0

>  <NsI>
0

>  <fragCpx>
99.06

>  <fMF>
0.38

>  <nHBAcc>
5

>  <nHBDon>
0

>  <Kier1>
13.96

>  <Kier2>
5.08

>  <Lipinski>
1

>  <GhoseFilter>
1

>  <FilterItLogS>
-2.64

>  <VMcGowan>
189.76

>  <LabuteASA>
111.22

>  <PEOE_VSA1>
9.47

>  <PEOE_VSA2>
0

>  <PEOE_VSA3>
8.42

>  <PEOE_VSA4>
5.26

>  <PEOE_VSA5>
0

>  <PEOE_VSA6>
12.99

>  <PEOE_VSA7>
17.7

>  <PEOE_VSA8>
11.67

>  <PEOE_VSA9>
17.24

>  <PEOE_VSA10>
0

>  <PEOE_VSA11>
21.34

>  <PEOE_VSA12>
6.79

>  <PEOE_VSA13>
0

>  <SMR_VSA1>
17.89

>  <SMR_VSA2>
5.26

>  <SMR_VSA3>
0

>  <SMR_VSA4>
5.92

>  <SMR_VSA5>
18.09

>  <SMR_VSA6>
12.55

>  <SMR_VSA7>
23.76

>  <SMR_VSA8>
0

>  <SMR_VSA9>
17.57

>  <SlogP_VSA1>
9.47

>  <SlogP_VSA2>
26.21

>  <SlogP_VSA3>
9.84

>  <SlogP_VSA4>
17.25

>  <SlogP_VSA5>
18.41

>  <SlogP_VSA6>
18.2

>  <SlogP_VSA7>
0

>  <SlogP_VSA8>
0

>  <SlogP_VSA9>
0

>  <SlogP_VSA10>
0

>  <SlogP_VSA11>
11.5

>  <EState_VSA1>
21.01

>  <EState_VSA2>
18.46

>  <EState_VSA3>
11.5

>  <EState_VSA4>
5.56

>  <EState_VSA5>
0

>  <EState_VSA6>
19.06

>  <EState_VSA7>
6.07

>  <EState_VSA8>
6.07

>  <EState_VSA9>
14.74

>  <EState_VSA10>
8.42

>  <VSA_EState1>
34.38

>  <VSA_EState2>
0

>  <VSA_EState3>
8.51

>  <VSA_EState4>
0.83

>  <VSA_EState5>
0.65

>  <VSA_EState6>
7.45

>  <VSA_EState7>
0

>  <VSA_EState8>
1.79

>  <VSA_EState9>
-3.19

>  <apol>
37.59

>  <bpol>
23.74

>  <nRing>
3

>  <nHRing>
1

>  <naRing>
1

>  <naHRing>
0

>  <nARing 2>
2

>  <nAHRing 2>
1

>  <nFRing>
1

>  <nFHRing>
1

>  <nFaRing>
0

>  <nFaHRing>
0

>  <nFARing 2>
1

>  <nFAHRing 2>
1

>  <nRot>
3

>  <SLogP>
1.46

>  <SMR>
67.66

>  <TopoPSA(NO)>
76.39

>  <TopoPSA>
84.77

>  <JGI1>
0.21

>  <JGI2>
0.11

>  <JGI3>
0.09

>  <JGI4>
0.05

>  <JGI5>
0.02

>  <Diameter>
9

>  <Radius>
5

>  <TMWC10>
115.63

>  <TSRW10>
74.3

>  <MW>
279.06

>  <AMW>
8.72

>  <WPath>
687

>  <WPol>
29

>  <Zagreb1>
106

>  <Zagreb2>
131

>  <mZagreb2>
4.18

>  <yes>


>  <nAR-cont>
1

>  <nHA-cont>
0.998649058

>  <MWHBN>
0.299309988

>  <MWHBN-cont>
0.842795416

>  <TPSA-cont>
0.408252761

>  <pka_cont>
0.97

>  <yes.1>


>  <BBB_SCORE>
4.564347703

>  <MMFF94 Energy>
6.8359

$$$$
Compound 2134
Actelion Java MolfileCreator 2.0

  0  0  0  0  0  0              0 V3000
M  V30 BEGIN CTAB
M  V30 COUNTS 36 38 0 0 0
M  V30 BEGIN ATOM
M  V30 1 S -1.3808 -1.3808 1.7059 0
M  V30 2 O -1.5785 -2.3824 2.7382 0
M  V30 3 O -2.1096 -0.1295 1.7613 0
M  V30 4 C 0.3983 -1.0435 1.7467 0 CFG=1
M  V30 5 C -1.7196 -2.1556 0.1431 0
M  V30 6 C 1.0142 -0.0181 0.8311 0 CFG=2
M  V30 7 C 0.7408 0.3301 2.2799 0 CFG=2
M  V30 8 C -0.7899 -3.3096 -0.1674 0
M  V30 9 C 0.2957 0.6089 -0.3417 0
M  V30 10 C 1.8594 0.4793 3.2545 0
M  V30 11 C 0.6026 0.1672 -1.6462 0
M  V30 12 C -0.5607 1.7319 -0.2252 0
M  V30 13 N 2.3727 1.8327 3.1367 0
M  V30 14 C 0.0117 0.7833 -2.7313 0
M  V30 15 C -1.1513 2.3437 -1.3398 0
M  V30 16 O 0.1971 0.4437 -4.0349 0
M  V30 17 C -0.847 1.8414 -2.5816 0
M  V30 18 C -0.6472 1.4156 -4.6888 0
M  V30 19 O -1.3155 2.3042 -3.7699 0
M  V30 20 H 1.0117 -1.8824 2.0472 0
M  V30 21 H -1.6722 -1.394 -0.6371 0
M  V30 22 H -2.7544 -2.5109 0.1938 0
M  V30 23 H 2.0631 -0.2241 0.6045 0
M  V30 24 H -0.0719 1.0014 2.5326 0
M  V30 25 H -1.0805 -3.7856 -1.1091 0
M  V30 26 H 0.2459 -2.973 -0.2684 0
M  V30 27 H -0.8213 -4.0681 0.621 0
M  V30 28 H 2.6633 -0.241 3.0681 0
M  V30 29 H 1.4875 0.3125 4.2707 0
M  V30 30 H 1.2921 -0.6556 -1.808 0
M  V30 31 H -0.7899 2.1415 0.7576 0
M  V30 32 H 2.7568 1.9786 2.2046 0
M  V30 33 H 3.1439 1.9618 3.7896 0
M  V30 34 H -1.8201 3.1893 -1.2234 0
M  V30 35 H -1.4047 0.883 -5.2755 0
M  V30 36 H -0.0307 2.0136 -5.3699 0
M  V30 END ATOM
M  V30 BEGIN BOND
M  V30 1 2 1 2
M  V30 2 2 1 3
M  V30 3 1 1 4
M  V30 4 1 1 5
M  V30 5 1 4 6
M  V30 6 1 4 7
M  V30 7 1 5 8
M  V30 8 1 6 9
M  V30 9 1 7 10
M  V30 10 2 9 11
M  V30 11 1 9 12
M  V30 12 1 10 13
M  V30 13 1 11 14
M  V30 14 2 12 15
M  V30 15 1 14 16
M  V30 16 2 14 17
M  V30 17 1 16 18
M  V30 18 1 17 19
M  V30 19 1 6 7
M  V30 20 1 15 17
M  V30 21 1 18 19
M  V30 22 1 4 20
M  V30 23 1 5 21
M  V30 24 1 5 22
M  V30 25 1 6 23
M  V30 26 1 7 24
M  V30 27 1 8 25
M  V30 28 1 8 26
M  V30 29 1 8 27
M  V30 30 1 10 28
M  V30 31 1 10 29
M  V30 32 1 11 30
M  V30 33 1 12 31
M  V30 34 1 13 32
M  V30 35 1 13 33
M  V30 36 1 15 34
M  V30 37 1 18 35
M  V30 38 1 18 36
M  V30 END BOND
M  V30 BEGIN COLLECTION
M  V30 MDLV30/STEABS ATOMS=(3 4 6 7)
M  V30 END COLLECTION
M  V30 END CTAB
M  END
>  <Column 1>
2627

>  <level_0>
3857

>  <index>
3857

>  <Unnamed: 0>
3857

>  <NO.>
3869

>  <Name>
vancomycin

>  <IUPAC_name>
[(1r-2r-3s)-2-(1-3-benzodioxol-5-yl)-3-ethylsulfonylcyclopropyl]methanamine

>  <SMILES>
CCS(=O)(=O)[C@@H]1[C@@H](CN)[C@@H]1c1ccc2c(c1)OCO2

>  <CID>
100005651

>  <logBB>


>  <BBB+/BBB->
BBB-

>  <Inchi>
InChI=1S/C13H17NO4S/c1-2-19(15-16)13-9(6-14)12(13)8-3-4-10-11(5-8)18-7-17-10/h3-5-9-12-13H-2-6-7-14H2-1H3/t9--12--13+/m0/s1

>  <threshold>
-1

>  <reference>
R16|R10|

>  <group>
B

>  <Class>
1

>  <ABC>
14.9

>  <ABCGG>
13.71

>  <nAcid>
0

>  <nBase>
1

>  <nAromAtom>
6

>  <nAromBond>
6

>  <nAtom>
36

>  <nHeavyAtom>
19

>  <nSpiro>
0

>  <nBridgehead>
0

>  <nHetero>
6

>  <nN>
1

>  <nO>
4

>  <nF>
0

>  <BalabanJ>
1.66

>  <BertzCT>
598.66

>  <nBonds>
38

>  <nBondsO>
21

>  <nBondsS>
30

>  <nBondsD>
2

>  <nBondsT>
0

>  <nBondsA>
6

>  <nBondsM>
8

>  <nBondsKS>
33

>  <nBondsKD>
5

>  <RNCG>
0.24

>  <RPCG>
0.12

>  <FCSP3>
0.54

>  <SZ>
25

>  <Sm>
23.59

>  <Sv>
22.41

>  <Sse>
36.61

>  <Sp>
24.1

>  <Si>
40.58

>  <MZ>
0.69

>  <Mm>
0.66

>  <Mv>
0.62

>  <Mse>
1.02

>  <Mp>
0.67

>  <Mi>
1.13

>  <NsCH3>
1

>  <NdCH2>
0

>  <NssCH2>
3

>  <NtCH>
0

>  <NdsCH>
0

>  <NaaCH>
3

>  <NsssCH>
3

>  <NddC>
0

>  <NtsC>
0

>  <NdssC>
0

>  <NaasC>
3

>  <NaaaC>
0

>  <NssssC>
0

>  <NsNH3>
0

>  <NsNH2>
1

>  <NssNH2>
0

>  <NdNH>
0

>  <NssNH>
0

>  <NaaNH>
0

>  <NtN>
0

>  <NsssNH>
0

>  <NdsN>
0

>  <NaaN>
0

>  <NsssN>
0

>  <NddsN>
0

>  <NaasN>
0

>  <NssssN>
0

>  <NsOH>
0

>  <NdO>
2

>  <NssO>
2

>  <NaaO>
0

>  <NsF>
0

>  <NsSiH3>
0

>  <NssSiH2>
0

>  <NsssSiH>
0

>  <NssssSi>
0

>  <NsPH2>
0

>  <NssPH>
0

>  <NsssP>
0

>  <NdsssP>
0

>  <NsssssP>
0

>  <NsSH>
0

>  <NdS>
0

>  <NssS>
0

>  <NaaS>
0

>  <NdssS>
0

>  <NddssS>
1

>  <NsCl>
0

>  <NsBr>
0

>  <NsI>
0

>  <fragCpx>
99.06

>  <fMF>
0.33

>  <nHBAcc>
5

>  <nHBDon>
1

>  <Kier1>
13.96

>  <Kier2>
5.08

>  <Lipinski>
1

>  <GhoseFilter>
1

>  <FilterItLogS>
-2.59

>  <VMcGowan>
198.36

>  <LabuteASA>
112.17

>  <PEOE_VSA1>
15.21

>  <PEOE_VSA2>
0

>  <PEOE_VSA3>
8.42

>  <PEOE_VSA4>
0

>  <PEOE_VSA5>
0

>  <PEOE_VSA6>
12.99

>  <PEOE_VSA7>
30.16

>  <PEOE_VSA8>
11.67

>  <PEOE_VSA9>
5.25

>  <PEOE_VSA10>
0

>  <PEOE_VSA11>
21.34

>  <PEOE_VSA12>
6.79

>  <PEOE_VSA13>
0

>  <SMR_VSA1>
17.89

>  <SMR_VSA2>
0

>  <SMR_VSA3>
0

>  <SMR_VSA4>
11.65

>  <SMR_VSA5>
18.09

>  <SMR_VSA6>
19.09

>  <SMR_VSA7>
23.76

>  <SMR_VSA8>
0

>  <SMR_VSA9>
11.5

>  <SlogP_VSA1>
15.21

>  <SlogP_VSA2>
32.76

>  <SlogP_VSA3>
9.84

>  <SlogP_VSA4>
5.92

>  <SlogP_VSA5>
18.41

>  <SlogP_VSA6>
18.2

>  <SlogP_VSA7>
0

>  <SlogP_VSA8>
0

>  <SlogP_VSA9>
0

>  <SlogP_VSA10>
0

>  <SlogP_VSA11>
11.5

>  <EState_VSA1>
9.84

>  <EState_VSA2>
29.63

>  <EState_VSA3>
18.04

>  <EState_VSA4>
5.56

>  <EState_VSA5>
0

>  <EState_VSA6>
6.92

>  <EState_VSA7>
18.2

>  <EState_VSA8>
0

>  <EState_VSA9>
15.21

>  <EState_VSA10>
8.42

>  <VSA_EState1>
34.66

>  <VSA_EState2>
0

>  <VSA_EState3>
-0.34

>  <VSA_EState4>
6.67

>  <VSA_EState5>
1.57

>  <VSA_EState6>
5.62

>  <VSA_EState7>
0

>  <VSA_EState8>
2.29

>  <VSA_EState9>
-3.05

>  <apol>
40.25

>  <bpol>
26.61

>  <nRing>
3

>  <nHRing>
1

>  <naRing>
1

>  <naHRing>
0

>  <nARing 2>
2

>  <nAHRing 2>
1

>  <nFRing>
1

>  <nFHRing>
1

>  <nFaRing>
0

>  <nFaHRing>
0

>  <nFARing 2>
1

>  <nFAHRing 2>
1

>  <nRot>
4

>  <SLogP>
0.89

>  <SMR>
71.1

>  <TopoPSA(NO)>
78.62

>  <TopoPSA>
87

>  <JGI1>
0.21

>  <JGI2>
0.11

>  <JGI3>
0.09

>  <JGI4>
0.05

>  <JGI5>
0.02

>  <Diameter>
9

>  <Radius>
5

>  <TMWC10>
115.63

>  <TSRW10>
74.3

>  <MW>
283.09

>  <AMW>
7.86

>  <WPath>
687

>  <WPol>
29

>  <Zagreb1>
106

>  <Zagreb2>
131

>  <mZagreb2>
4.18

>  <yes>


>  <nAR-cont>
1

>  <nHA-cont>
0.998649058

>  <MWHBN>
0.356606279

>  <MWHBN-cont>
0.645351983

>  <TPSA-cont>
0.392685976

>  <pka_cont>
0.97

>  <yes.1>


>  <BBB_SCORE>
4.237048984

>  <MMFF94 Energy>
15.335

$$$$
Compound 2135
Actelion Java MolfileCreator 2.0

  0  0  0  0  0  0              0 V3000
M  V30 BEGIN CTAB
M  V30 COUNTS 29 30 0 0 0
M  V30 BEGIN ATOM
M  V30 1 S -0.3266 1.6341 1.3888 0
M  V30 2 O 1.0341 1.9331 1.789 0
M  V30 3 O -1.0611 2.525 0.5169 0
M  V30 4 C -0.2141 0.0136 0.5927 0 CFG=1
M  V30 5 C -1.2844 1.3336 2.8611 0
M  V30 6 C -1.3896 -0.5143 -0.175 0 CFG=2
M  V30 7 C -0.2215 0.1028 -0.9202 0 CFG=2
M  V30 8 C -1.4238 2.5879 3.7005 0
M  V30 9 C -2.6699 0.128 -0.1814 0
M  V30 10 C 0.7244 -0.7657 -1.718 0
M  V30 11 N -3.7305 0.5938 -0.1395 0
M  V30 12 C 0.2502 -1.6811 -2.6728 0
M  V30 13 C 2.1045 -0.7678 -1.4513 0
M  V30 14 C 1.1187 -2.5362 -3.3567 0
M  V30 15 C 2.9773 -1.6204 -2.1319 0
M  V30 16 C 2.4833 -2.5042 -3.0862 0
M  V30 17 H 0.4372 -0.701 1.0766 0
M  V30 18 H -0.7744 0.5494 3.4284 0
M  V30 19 H -2.2694 0.9717 2.5575 0
M  V30 20 H -1.4671 -1.5983 -0.2057 0
M  V30 21 H -0.3987 1.0784 -1.3726 0
M  V30 22 H -2.0127 2.381 4.5993 0
M  V30 23 H -0.4446 2.9647 4.0129 0
M  V30 24 H -1.9243 3.3836 3.1393 0
M  V30 25 H -0.8127 -1.7234 -2.9029 0
M  V30 26 H 2.5133 -0.0831 -0.709 0
M  V30 27 H 0.7282 -3.2253 -4.1013 0
M  V30 28 H 4.0424 -1.5912 -1.9161 0
M  V30 29 H 3.161 -3.1662 -3.619 0
M  V30 END ATOM
M  V30 BEGIN BOND
M  V30 1 2 1 2
M  V30 2 2 1 3
M  V30 3 1 1 4
M  V30 4 1 1 5
M  V30 5 1 4 6
M  V30 6 1 4 7
M  V30 7 1 5 8
M  V30 8 1 6 9
M  V30 9 1 7 10
M  V30 10 3 9 11
M  V30 11 2 10 12
M  V30 12 1 10 13
M  V30 13 1 12 14
M  V30 14 2 13 15
M  V30 15 2 14 16
M  V30 16 1 6 7
M  V30 17 1 15 16
M  V30 18 1 4 17
M  V30 19 1 5 18
M  V30 20 1 5 19
M  V30 21 1 6 20
M  V30 22 1 7 21
M  V30 23 1 8 22
M  V30 24 1 8 23
M  V30 25 1 8 24
M  V30 26 1 12 25
M  V30 27 1 13 26
M  V30 28 1 14 27
M  V30 29 1 15 28
M  V30 30 1 16 29
M  V30 END BOND
M  V30 BEGIN COLLECTION
M  V30 MDLV30/STEABS ATOMS=(3 4 6 7)
M  V30 END COLLECTION
M  V30 END CTAB
M  END
>  <Column 1>
2628

>  <level_0>
3858

>  <index>
3858

>  <Unnamed: 0>
3858

>  <NO.>
3870

>  <Name>
quinidine

>  <IUPAC_name>
(1r-2r-3r)-2-ethylsulfonyl-3-phenylcyclopropane-1-carbonitrile

>  <SMILES>
CCS(=O)(=O)[C@H]1[C@@H](C#N)[C@@H]1c1ccccc1

>  <CID>
100001065

>  <logBB>


>  <BBB+/BBB->
BBB+

>  <Inchi>
InChI=1S/C12H13NO2S/c1-2-16(14-15)12-10(8-13)11(12)9-6-4-3-5-7-9/h3-7-10-12H-2H2-1H3/t10--11--12-/m0/s1

>  <threshold>
-1

>  <reference>
R16|R10|

>  <group>
B

>  <Class>
1

>  <ABC>
12.12

>  <ABCGG>
11.61

>  <nAcid>
0

>  <nBase>
0

>  <nAromAtom>
6

>  <nAromBond>
6

>  <nAtom>
29

>  <nHeavyAtom>
16

>  <nSpiro>
0

>  <nBridgehead>
0

>  <nHetero>
4

>  <nN>
1

>  <nO>
2

>  <nF>
0

>  <BalabanJ>
1.99

>  <BertzCT>
515.7

>  <nBonds>
30

>  <nBondsO>
17

>  <nBondsS>
21

>  <nBondsD>
2

>  <nBondsT>
1

>  <nBondsA>
6

>  <nBondsM>
9

>  <nBondsKS>
24

>  <nBondsKD>
5

>  <RNCG>
0.22

>  <RPCG>
0.15

>  <FCSP3>
0.42

>  <SZ>
20.67

>  <Sm>
19.59

>  <Sv>
18.9

>  <Sse>
29.17

>  <Sp>
20.55

>  <Si>
32.33

>  <MZ>
0.71

>  <Mm>
0.68

>  <Mv>
0.65

>  <Mse>
1.01

>  <Mp>
0.71

>  <Mi>
1.11

>  <NsCH3>
1

>  <NdCH2>
0

>  <NssCH2>
1

>  <NtCH>
0

>  <NdsCH>
0

>  <NaaCH>
5

>  <NsssCH>
3

>  <NddC>
0

>  <NtsC>
1

>  <NdssC>
0

>  <NaasC>
1

>  <NaaaC>
0

>  <NssssC>
0

>  <NsNH3>
0

>  <NsNH2>
0

>  <NssNH2>
0

>  <NdNH>
0

>  <NssNH>
0

>  <NaaNH>
0

>  <NtN>
1

>  <NsssNH>
0

>  <NdsN>
0

>  <NaaN>
0

>  <NsssN>
0

>  <NddsN>
0

>  <NaasN>
0

>  <NssssN>
0

>  <NsOH>
0

>  <NdO>
2

>  <NssO>
0

>  <NaaO>
0

>  <NsF>
0

>  <NsSiH3>
0

>  <NssSiH2>
0

>  <NsssSiH>
0

>  <NssssSi>
0

>  <NsPH2>
0

>  <NssPH>
0

>  <NsssP>
0

>  <NdsssP>
0

>  <NsssssP>
0

>  <NsSH>
0

>  <NdS>
0

>  <NssS>
0

>  <NaaS>
0

>  <NdssS>
0

>  <NddssS>
1

>  <NsCl>
0

>  <NsBr>
0

>  <NsI>
0

>  <fragCpx>
49.04

>  <fMF>
0.31

>  <nHBAcc>
3

>  <nHBDon>
0

>  <Kier1>
12.46

>  <Kier2>
4.7

>  <Lipinski>
1

>  <GhoseFilter>
1

>  <FilterItLogS>
-2.59

>  <VMcGowan>
174.79

>  <LabuteASA>
95.63

>  <PEOE_VSA1>
0

>  <PEOE_VSA2>
0

>  <PEOE_VSA3>
8.42

>  <PEOE_VSA4>
5.26

>  <PEOE_VSA5>
0

>  <PEOE_VSA6>
37.26

>  <PEOE_VSA7>
5.56

>  <PEOE_VSA8>
11.67

>  <PEOE_VSA9>
17.24

>  <PEOE_VSA10>
0

>  <PEOE_VSA11>
9.84

>  <PEOE_VSA12>
0

>  <PEOE_VSA13>
0

>  <SMR_VSA1>
8.42

>  <SMR_VSA2>
5.26

>  <SMR_VSA3>
0

>  <SMR_VSA4>
5.92

>  <SMR_VSA5>
18.09

>  <SMR_VSA6>
5.75

>  <SMR_VSA7>
35.9

>  <SMR_VSA8>
0

>  <SMR_VSA9>
6.07

>  <SlogP_VSA1>
0

>  <SlogP_VSA2>
19.42

>  <SlogP_VSA3>
9.84

>  <SlogP_VSA4>
17.25

>  <SlogP_VSA5>
18.41

>  <SlogP_VSA6>
30.33

>  <SlogP_VSA7>
0

>  <SlogP_VSA8>
0

>  <SlogP_VSA9>
0

>  <SlogP_VSA10>
0

>  <SlogP_VSA11>
0

>  <EState_VSA1>
15.09

>  <EState_VSA2>
17.59

>  <EState_VSA3>
0

>  <EState_VSA4>
5.56

>  <EState_VSA5>
0

>  <EState_VSA6>
6.92

>  <EState_VSA7>
30.33

>  <EState_VSA8>
6.07

>  <EState_VSA9>
5.26

>  <EState_VSA10>
8.42

>  <VSA_EState1>
23.53

>  <VSA_EState2>
0

>  <VSA_EState3>
8.46

>  <VSA_EState4>
0.95

>  <VSA_EState5>
-0.39

>  <VSA_EState6>
11.51

>  <VSA_EState7>
0

>  <VSA_EState8>
1.63

>  <VSA_EState9>
-3.11

>  <apol>
34.31

>  <bpol>
20.27

>  <nRing>
2

>  <nHRing>
0

>  <naRing>
1

>  <naHRing>
0

>  <nARing 2>
1

>  <nAHRing 2>
0

>  <nFRing>
0

>  <nFHRing>
0

>  <nFaRing>
0

>  <nFaHRing>
0

>  <nFARing 2>
0

>  <nFAHRing 2>
0

>  <nRot>
3

>  <SLogP>
1.73

>  <SMR>
61.53

>  <TopoPSA(NO)>
57.93

>  <TopoPSA>
66.31

>  <JGI1>
0.21

>  <JGI2>
0.12

>  <JGI3>
0.1

>  <JGI4>
0.06

>  <JGI5>
0.02

>  <Diameter>
8

>  <Radius>
4

>  <TMWC10>
106.35

>  <TSRW10>
69.63

>  <MW>
235.07

>  <AMW>
8.11

>  <WPath>
429

>  <WPol>
23

>  <Zagreb1>
84

>  <Zagreb2>
102

>  <mZagreb2>
3.65

>  <yes>


>  <nAR-cont>
0.816016

>  <nHA-cont>
0.954961865

>  <MWHBN>
0.195669282

>  <MWHBN-cont>
0.998433777

>  <TPSA-cont>
0.537115024

>  <pka_cont>
0.97

>  <yes.1>


>  <BBB_SCORE>
4.827858578

>  <MMFF94 Energy>
3.677

$$$$
Compound 2136
Actelion Java MolfileCreator 2.0

  0  0  0  0  0  0              0 V3000
M  V30 BEGIN CTAB
M  V30 COUNTS 36 37 0 0 0
M  V30 BEGIN ATOM
M  V30 1 S 0.7317 -3.011 -0.1625 0
M  V30 2 O 2.1518 -2.8954 -0.422 0
M  V30 3 O 0.2121 -4.0624 0.6926 0
M  V30 4 C 0.1485 -1.4694 0.5745 0 CFG=2
M  V30 5 C -0.0875 -3.0983 -1.7388 0
M  V30 6 C 1.0888 -0.3045 0.4242 0 CFG=2
M  V30 7 C 0.884 -0.96 1.7896 0 CFG=2
M  V30 8 C -1.5945 -3.2016 -1.6367 0
M  V30 9 C 0.5311 1.0747 0.1501 0
M  V30 10 C 1.9852 -1.6672 2.474 0
M  V30 11 C 0.7641 2.1436 1.0279 0
M  V30 12 C -0.3358 1.3123 -0.9293 0
M  V30 13 S 3.3283 -0.8023 2.9163 0
M  V30 14 N 1.8137 -2.9725 2.8087 0
M  V30 15 C 0.1879 3.4 0.8152 0
M  V30 16 C -0.915 2.57 -1.1477 0
M  V30 17 C -0.6521 3.622 -0.2744 0
M  V30 18 O -1.1494 4.8916 -0.367 0
M  V30 19 C -1.9747 5.1801 -1.4883 0
M  V30 20 H -0.9198 -1.3073 0.5672 0
M  V30 21 H 0.3137 -3.9805 -2.2481 0
M  V30 22 H 0.2067 -2.2125 -2.3101 0
M  V30 23 H 2.0532 -0.4827 -0.0492 0
M  V30 24 H 0.251 -0.425 2.4974 0
M  V30 25 H -2.0334 -3.3026 -2.6342 0
M  V30 26 H -1.895 -4.072 -1.0452 0
M  V30 27 H -2.028 -2.3125 -1.1707 0
M  V30 28 H 1.4149 2.0055 1.8898 0
M  V30 29 H -0.5604 0.5094 -1.6275 0
M  V30 30 H 2.5622 -3.4632 3.2831 0
M  V30 31 H 1.0146 -3.5316 2.5175 0
M  V30 32 H 0.3987 4.2111 1.5083 0
M  V30 33 H -1.5663 2.6901 -2.0068 0
M  V30 34 H -1.429 5.0409 -2.4273 0
M  V30 35 H -2.2674 6.2327 -1.4262 0
M  V30 36 H -2.8894 4.5785 -1.4691 0
M  V30 END ATOM
M  V30 BEGIN BOND
M  V30 1 2 1 2
M  V30 2 2 1 3
M  V30 3 1 1 4
M  V30 4 1 1 5
M  V30 5 1 4 6
M  V30 6 1 4 7
M  V30 7 1 5 8
M  V30 8 1 6 9
M  V30 9 1 7 10
M  V30 10 2 9 11
M  V30 11 1 9 12
M  V30 12 2 10 13
M  V30 13 1 10 14
M  V30 14 1 11 15
M  V30 15 2 12 16
M  V30 16 2 15 17
M  V30 17 1 17 18
M  V30 18 1 18 19
M  V30 19 1 6 7
M  V30 20 1 16 17
M  V30 21 1 4 20
M  V30 22 1 5 21
M  V30 23 1 5 22
M  V30 24 1 6 23
M  V30 25 1 7 24
M  V30 26 1 8 25
M  V30 27 1 8 26
M  V30 28 1 8 27
M  V30 29 1 11 28
M  V30 30 1 12 29
M  V30 31 1 14 30
M  V30 32 1 14 31
M  V30 33 1 15 32
M  V30 34 1 16 33
M  V30 35 1 19 34
M  V30 36 1 19 35
M  V30 37 1 19 36
M  V30 END BOND
M  V30 BEGIN COLLECTION
M  V30 MDLV30/STEABS ATOMS=(3 4 6 7)
M  V30 END COLLECTION
M  V30 END CTAB
M  END
>  <Column 1>
2629

>  <level_0>
3859

>  <index>
3859

>  <Unnamed: 0>
3859

>  <NO.>
3871

>  <Name>
hydroxyzine

>  <IUPAC_name>
(1s-2r-3r)-2-ethylsulfonyl-3-(4-methoxyphenyl)cyclopropane-1-carbothioamide

>  <SMILES>
CCS(=O)(=O)[C@H]1[C@@H](C(N)=S)[C@@H]1c1ccc(OC)cc1

>  <CID>
100003658

>  <logBB>


>  <BBB+/BBB->
BBB+

>  <Inchi>
InChI=1S/C13H17NO3S2/c1-3-19(15-16)12-10(11(12)13(14)18)8-4-6-9(17-2)7-5-8/h4-7-10-12H-3H2-1-2H3-(H2-14-18)/t10--11--12+/m0/s1

>  <threshold>
-1

>  <reference>
R16|R16|R10|R10|

>  <group>
B

>  <Class>
1

>  <ABC>
14.41

>  <ABCGG>
13.35

>  <nAcid>
0

>  <nBase>
0

>  <nAromAtom>
6

>  <nAromBond>
6

>  <nAtom>
36

>  <nHeavyAtom>
19

>  <nSpiro>
0

>  <nBridgehead>
0

>  <nHetero>
6

>  <nN>
1

>  <nO>
3

>  <nF>
0

>  <BalabanJ>
2

>  <BertzCT>
580.41

>  <nBonds>
37

>  <nBondsO>
20

>  <nBondsS>
28

>  <nBondsD>
3

>  <nBondsT>
0

>  <nBondsA>
6

>  <nBondsM>
9

>  <nBondsKS>
31

>  <nBondsKD>
6

>  <RNCG>
0.3

>  <RPCG>
0.09

>  <FCSP3>
0.46

>  <SZ>
26.33

>  <Sm>
24.93

>  <Sv>
22.88

>  <Sse>
36.36

>  <Sp>
25.36

>  <Si>
40.29

>  <MZ>
0.73

>  <Mm>
0.69

>  <Mv>
0.64

>  <Mse>
1.01

>  <Mp>
0.7

>  <Mi>
1.12

>  <NsCH3>
2

>  <NdCH2>
0

>  <NssCH2>
1

>  <NtCH>
0

>  <NdsCH>
0

>  <NaaCH>
4

>  <NsssCH>
3

>  <NddC>
0

>  <NtsC>
0

>  <NdssC>
1

>  <NaasC>
2

>  <NaaaC>
0

>  <NssssC>
0

>  <NsNH3>
0

>  <NsNH2>
1

>  <NssNH2>
0

>  <NdNH>
0

>  <NssNH>
0

>  <NaaNH>
0

>  <NtN>
0

>  <NsssNH>
0

>  <NdsN>
0

>  <NaaN>
0

>  <NsssN>
0

>  <NddsN>
0

>  <NaasN>
0

>  <NssssN>
0

>  <NsOH>
0

>  <NdO>
2

>  <NssO>
1

>  <NaaO>
0

>  <NsF>
0

>  <NsSiH3>
0

>  <NssSiH2>
0

>  <NsssSiH>
0

>  <NssssSi>
0

>  <NsPH2>
0

>  <NssPH>
0

>  <NsssP>
0

>  <NdsssP>
0

>  <NsssssP>
0

>  <NsSH>
0

>  <NdS>
1

>  <NssS>
0

>  <NaaS>
0

>  <NdssS>
0

>  <NddssS>
1

>  <NsCl>
0

>  <NsBr>
0

>  <NsI>
0

>  <fragCpx>
58.06

>  <fMF>
0.25

>  <nHBAcc>
4

>  <nHBDon>
1

>  <Kier1>
15.39

>  <Kier2>
5.78

>  <Lipinski>
1

>  <GhoseFilter>
1

>  <FilterItLogS>
-2.56

>  <VMcGowan>
215.4

>  <LabuteASA>
118.42

>  <PEOE_VSA1>
10.47

>  <PEOE_VSA2>
0

>  <PEOE_VSA3>
8.42

>  <PEOE_VSA4>
0

>  <PEOE_VSA5>
0

>  <PEOE_VSA6>
31.27

>  <PEOE_VSA7>
17.7

>  <PEOE_VSA8>
17.59

>  <PEOE_VSA9>
17.35

>  <PEOE_VSA10>
5.75

>  <PEOE_VSA11>
9.84

>  <PEOE_VSA12>
0

>  <PEOE_VSA13>
0

>  <SMR_VSA1>
13.15

>  <SMR_VSA2>
0

>  <SMR_VSA3>
0

>  <SMR_VSA4>
11.65

>  <SMR_VSA5>
18.09

>  <SMR_VSA6>
12.86

>  <SMR_VSA7>
29.83

>  <SMR_VSA8>
0

>  <SMR_VSA9>
5.75

>  <SlogP_VSA1>
10.47

>  <SlogP_VSA2>
31.52

>  <SlogP_VSA3>
9.84

>  <SlogP_VSA4>
5.92

>  <SlogP_VSA5>
18.41

>  <SlogP_VSA6>
24.27

>  <SlogP_VSA7>
0

>  <SlogP_VSA8>
0

>  <SlogP_VSA9>
0

>  <SlogP_VSA10>
0

>  <SlogP_VSA11>
5.75

>  <EState_VSA1>
15.09

>  <EState_VSA2>
22.58

>  <EState_VSA3>
0

>  <EState_VSA4>
11.31

>  <EState_VSA5>
0

>  <EState_VSA6>
14.03

>  <EState_VSA7>
24.27

>  <EState_VSA8>
0

>  <EState_VSA9>
22.69

>  <EState_VSA10>
8.42

>  <VSA_EState1>
29.18

>  <VSA_EState2>
0.28

>  <VSA_EState3>
-0.47

>  <VSA_EState4>
6.61

>  <VSA_EState5>
0.5

>  <VSA_EState6>
7.39

>  <VSA_EState7>
0

>  <VSA_EState8>
1.65

>  <VSA_EState9>
-1.54

>  <apol>
42.35

>  <bpol>
26.11

>  <nRing>
2

>  <nHRing>
0

>  <naRing>
1

>  <naHRing>
0

>  <nARing 2>
1

>  <nAHRing 2>
0

>  <nFRing>
0

>  <nFHRing>
0

>  <nFaRing>
0

>  <nFaHRing>
0

>  <nFARing 2>
0

>  <nFAHRing 2>
0

>  <nRot>
5

>  <SLogP>
1.5

>  <SMR>
79.26

>  <TopoPSA(NO)>
69.39

>  <TopoPSA>
109.86

>  <JGI1>
0.25

>  <JGI2>
0.11

>  <JGI3>
0.09

>  <JGI4>
0.07

>  <JGI5>
0.03

>  <Diameter>
10

>  <Radius>
5

>  <TMWC10>
113.93

>  <TSRW10>
73.55

>  <MW>
299.06

>  <AMW>
8.31

>  <WPath>
706

>  <WPol>
29

>  <Zagreb1>
100

>  <Zagreb2>
121

>  <mZagreb2>
4.26

>  <yes>


>  <nAR-cont>
0.816016

>  <nHA-cont>
0.998649058

>  <MWHBN>
0.289128458

>  <MWHBN-cont>
0.871956507

>  <TPSA-cont>
0.233108981

>  <pka_cont>
0.97

>  <yes.1>


>  <BBB_SCORE>
4.07381778

>  <MMFF94 Energy>
-11.157

$$$$
Compound 2137
Actelion Java MolfileCreator 2.0

  0  0  0  0  0  0              0 V3000
M  V30 BEGIN CTAB
M  V30 COUNTS 41 43 0 0 0
M  V30 BEGIN ATOM
M  V30 1 S -0.9773 0.4886 1.6293 0
M  V30 2 O -1.378 1.5036 0.676 0
M  V30 3 O -1.8949 -0.577 1.9905 0
M  V30 4 C 0.5149 -0.3492 1.0566 0 CFG=2
M  V30 5 C -0.5193 1.3029 3.146 0
M  V30 6 C 1.4696 0.3449 0.1054 0 CFG=1
M  V30 7 C 0.5559 -0.7743 -0.3984 0 CFG=2
M  V30 8 C -0.0042 0.3549 4.2099 0
M  V30 9 C 1.2953 1.7628 -0.2944 0
M  V30 10 C 2.9499 -0.0249 0.1577 0
M  V30 11 C -0.5547 -0.6129 -1.4157 0
M  V30 12 O 1.5882 2.2034 -1.3937 0
M  V30 13 O 1.0745 2.593 0.7426 0
M  V30 14 O 3.1551 -1.2515 0.8644 0
M  V30 15 C -1.8282 -1.1746 -1.192 0
M  V30 16 C -0.3748 0.1231 -2.6135 0
M  V30 17 C 4.5232 -1.6402 0.8486 0
M  V30 18 C -2.8316 -0.9816 -2.1211 0
M  V30 19 C -1.4057 0.3087 -3.5446 0
M  V30 20 O -4.0988 -1.4687 -2.0358 0
M  V30 21 C -2.6265 -0.2552 -3.2657 0
M  V30 22 C -4.6754 -0.9309 -3.2428 0
M  V30 23 O -3.7368 -0.1861 -4.0465 0
M  V30 24 H 0.9063 -1.0674 1.7645 0
M  V30 25 H -1.4216 1.8092 3.5053 0
M  V30 26 H 0.2263 2.0675 2.9274 0
M  V30 27 H 1.0506 -1.7386 -0.5427 0
M  V30 28 H 0.1946 0.9019 5.1369 0
M  V30 29 H -0.7315 -0.4321 4.4314 0
M  V30 30 H 0.9285 -0.1243 3.8998 0
M  V30 31 H 3.5076 0.7671 0.6721 0
M  V30 32 H 3.3327 -0.1209 -0.8656 0
M  V30 33 H 0.9664 3.4668 0.3083 0
M  V30 34 H -2.0344 -1.7627 -0.3029 0
M  V30 35 H 0.5986 0.5495 -2.8457 0
M  V30 36 H 4.6216 -2.5736 1.4091 0
M  V30 37 H 5.1437 -0.8769 1.3278 0
M  V30 38 H 4.8602 -1.8116 -0.178 0
M  V30 39 H -1.2445 0.8771 -4.453 0
M  V30 40 H -5.5072 -0.2701 -2.9713 0
M  V30 41 H -5.0677 -1.7601 -3.8425 0
M  V30 END ATOM
M  V30 BEGIN BOND
M  V30 1 2 1 2
M  V30 2 2 1 3
M  V30 3 1 1 4
M  V30 4 1 1 5
M  V30 5 1 4 6
M  V30 6 1 4 7
M  V30 7 1 5 8
M  V30 8 1 6 9
M  V30 9 1 6 10
M  V30 10 1 7 11
M  V30 11 2 9 12
M  V30 12 1 9 13
M  V30 13 1 10 14
M  V30 14 2 11 15
M  V30 15 1 11 16
M  V30 16 1 14 17
M  V30 17 1 15 18
M  V30 18 2 16 19
M  V30 19 1 18 20
M  V30 20 2 18 21
M  V30 21 1 20 22
M  V30 22 1 21 23
M  V30 23 1 6 7
M  V30 24 1 19 21
M  V30 25 1 22 23
M  V30 26 1 4 24
M  V30 27 1 5 25
M  V30 28 1 5 26
M  V30 29 1 7 27
M  V30 30 1 8 28
M  V30 31 1 8 29
M  V30 32 1 8 30
M  V30 33 1 10 31
M  V30 34 1 10 32
M  V30 35 1 13 33
M  V30 36 1 15 34
M  V30 37 1 16 35
M  V30 38 1 17 36
M  V30 39 1 17 37
M  V30 40 1 17 38
M  V30 41 1 19 39
M  V30 42 1 22 40
M  V30 43 1 22 41
M  V30 END BOND
M  V30 BEGIN COLLECTION
M  V30 MDLV30/STEABS ATOMS=(3 4 6 7)
M  V30 END COLLECTION
M  V30 END CTAB
M  END
>  <Column 1>
2630

>  <level_0>
3860

>  <index>
3860

>  <Unnamed: 0>
3860

>  <NO.>
3872

>  <Name>
zalcitabine

>  <IUPAC_name>
(1r-2s-3s)-2-(1-3-benzodioxol-5-yl)-3-ethylsulfonyl-1-(methoxymethyl)cyclopropane-1-carboxylic acid

>  <SMILES>
CCS(=O)(=O)[C@H]1[C@@H](c2ccc3c(c2)OCO3)[C@@]1(COC)C(=O)O

>  <CID>
100005718

>  <logBB>


>  <BBB+/BBB->
BBB+

>  <Inchi>
InChI=1S/C15H18O7S/c1-3-23(18-19)13-12(15(13-7-20-2)14(16)17)9-4-5-10-11(6-9)22-8-21-10/h4-6-12-13H-3-7-8H2-1-2H3-(H-16-17)/t12--13+-15-/m1/s1

>  <threshold>
-1

>  <reference>
R16|R10|

>  <group>
B

>  <Class>
1

>  <ABC>
17.85

>  <ABCGG>
16.51

>  <nAcid>
1

>  <nBase>
0

>  <nAromAtom>
6

>  <nAromBond>
6

>  <nAtom>
41

>  <nHeavyAtom>
23

>  <nSpiro>
0

>  <nBridgehead>
0

>  <nHetero>
8

>  <nN>
0

>  <nO>
7

>  <nF>
0

>  <BalabanJ>
1.83

>  <BertzCT>
742.19

>  <nBonds>
43

>  <nBondsO>
25

>  <nBondsS>
34

>  <nBondsD>
3

>  <nBondsT>
0

>  <nBondsA>
6

>  <nBondsM>
9

>  <nBondsKS>
37

>  <nBondsKD>
6

>  <RNCG>
0.18

>  <RPCG>
0.12

>  <FCSP3>
0.53

>  <SZ>
30

>  <Sm>
28.5

>  <Sv>
26.07

>  <Sse>
42.38

>  <Sp>
27.29

>  <Si>
46.12

>  <MZ>
0.73

>  <Mm>
0.7

>  <Mv>
0.64

>  <Mse>
1.03

>  <Mp>
0.67

>  <Mi>
1.12

>  <NsCH3>
2

>  <NdCH2>
0

>  <NssCH2>
3

>  <NtCH>
0

>  <NdsCH>
0

>  <NaaCH>
3

>  <NsssCH>
2

>  <NddC>
0

>  <NtsC>
0

>  <NdssC>
1

>  <NaasC>
3

>  <NaaaC>
0

>  <NssssC>
1

>  <NsNH3>
0

>  <NsNH2>
0

>  <NssNH2>
0

>  <NdNH>
0

>  <NssNH>
0

>  <NaaNH>
0

>  <NtN>
0

>  <NsssNH>
0

>  <NdsN>
0

>  <NaaN>
0

>  <NsssN>
0

>  <NddsN>
0

>  <NaasN>
0

>  <NssssN>
0

>  <NsOH>
1

>  <NdO>
3

>  <NssO>
3

>  <NaaO>
0

>  <NsF>
0

>  <NsSiH3>
0

>  <NssSiH2>
0

>  <NsssSiH>
0

>  <NssssSi>
0

>  <NsPH2>
0

>  <NssPH>
0

>  <NsssP>
0

>  <NdsssP>
0

>  <NsssssP>
0

>  <NsSH>
0

>  <NdS>
0

>  <NssS>
0

>  <NaaS>
0

>  <NdssS>
0

>  <NddssS>
1

>  <NsCl>
0

>  <NsBr>
0

>  <NsI>
0

>  <fragCpx>
119.08

>  <fMF>
0.29

>  <nHBAcc>
6

>  <nHBDon>
1

>  <Kier1>
17.81

>  <Kier2>
6.38

>  <Lipinski>
1

>  <GhoseFilter>
1

>  <FilterItLogS>
-2.64

>  <VMcGowan>
229.87

>  <LabuteASA>
133.63

>  <PEOE_VSA1>
19.32

>  <PEOE_VSA2>
4.79

>  <PEOE_VSA3>
8.42

>  <PEOE_VSA4>
0

>  <PEOE_VSA5>
0

>  <PEOE_VSA6>
12.99

>  <PEOE_VSA7>
17.7

>  <PEOE_VSA8>
18.78

>  <PEOE_VSA9>
11.86

>  <PEOE_VSA10>
5.41

>  <PEOE_VSA11>
21.34

>  <PEOE_VSA12>
6.79

>  <PEOE_VSA13>
0

>  <SMR_VSA1>
32.53

>  <SMR_VSA2>
0

>  <SMR_VSA3>
0

>  <SMR_VSA4>
5.41

>  <SMR_VSA5>
18.09

>  <SMR_VSA6>
26.26

>  <SMR_VSA7>
23.76

>  <SMR_VSA8>
0

>  <SMR_VSA9>
11.5

>  <SlogP_VSA1>
9.47

>  <SlogP_VSA2>
51.01

>  <SlogP_VSA3>
19.37

>  <SlogP_VSA4>
5.41

>  <SlogP_VSA5>
18.41

>  <SlogP_VSA6>
18.2

>  <SlogP_VSA7>
0

>  <SlogP_VSA8>
0

>  <SlogP_VSA9>
0

>  <SlogP_VSA10>
0

>  <SlogP_VSA11>
11.5

>  <EState_VSA1>
32.39

>  <EState_VSA2>
19.15

>  <EState_VSA3>
17.06

>  <EState_VSA4>
0

>  <EState_VSA5>
14.03

>  <EState_VSA6>
18.2

>  <EState_VSA7>
0

>  <EState_VSA8>
0

>  <EState_VSA9>
14.21

>  <EState_VSA10>
18.32

>  <VSA_EState1>
40.38

>  <VSA_EState2>
11.86

>  <VSA_EState3>
8.69

>  <VSA_EState4>
-0.85

>  <VSA_EState5>
-0.88

>  <VSA_EState6>
5.02

>  <VSA_EState7>
0

>  <VSA_EState8>
1.46

>  <VSA_EState9>
-2.17

>  <apol>
45.57

>  <bpol>
30.79

>  <nRing>
3

>  <nHRing>
1

>  <naRing>
1

>  <naHRing>
0

>  <nARing 2>
2

>  <nAHRing 2>
1

>  <nFRing>
1

>  <nFHRing>
1

>  <nFaRing>
0

>  <nFaHRing>
0

>  <nFARing 2>
1

>  <nFAHRing 2>
1

>  <nRot>
6

>  <SLogP>
1.03

>  <SMR>
80.5

>  <TopoPSA(NO)>
99.13

>  <TopoPSA>
107.51

>  <JGI1>
0.26

>  <JGI2>
0.13

>  <JGI3>
0.1

>  <JGI4>
0.06

>  <JGI5>
0.02

>  <Diameter>
9

>  <Radius>
5

>  <TMWC10>
126.46

>  <TSRW10>
80.23

>  <MW>
342.08

>  <AMW>
8.34

>  <WPath>
1083

>  <WPol>
39

>  <Zagreb1>
128

>  <Zagreb2>
161

>  <mZagreb2>
5.08

>  <yes>


>  <nAR-cont>
1

>  <nHA-cont>
0.967789328

>  <MWHBN>
0.378472386

>  <MWHBN-cont>
0.560795886

>  <TPSA-cont>
0.24951344

>  <pka_cont>
0.97

>  <yes.1>


>  <BBB_SCORE>
3.793010037

>  <MMFF94 Energy>
-10.545

$$$$
Compound 2138
Actelion Java MolfileCreator 2.0

  0  0  0  0  0  0              0 V3000
M  V30 BEGIN CTAB
M  V30 COUNTS 32 33 0 0 0
M  V30 BEGIN ATOM
M  V30 1 Cl -3.8612 -5.0135 0.164 0
M  V30 2 C -2.6259 -3.8311 -0.0194 0
M  V30 3 C -2.2984 -3.362 -1.2872 0
M  V30 4 C -1.9602 -3.3434 1.1001 0
M  V30 5 C -1.2958 -2.398 -1.4317 0
M  V30 6 C -0.9588 -2.3792 0.9467 0
M  V30 7 C -0.5948 -1.894 -0.3215 0
M  V30 8 C 0.4381 -0.8038 -0.4853 0 CFG=2
M  V30 9 C 0.4301 0.4127 0.4107 0 CFG=2
M  V30 10 C 0.073 0.5642 -1.0428 0 CFG=2
M  V30 11 S 2.0664 1.0611 0.8352 0
M  V30 12 C -1.307 1.0129 -1.3653 0
M  V30 13 O 2.3484 0.5402 2.1581 0
M  V30 14 O 2.9587 0.8119 -0.2798 0
M  V30 15 C 1.7862 2.8164 0.9624 0
M  V30 16 O -1.3796 2.4013 -1.069 0
M  V30 17 C 3.0448 3.5542 1.3713 0
M  V30 18 H -2.8147 -3.7398 -2.1655 0
M  V30 19 H -2.2109 -3.7061 2.0935 0
M  V30 20 H -1.0482 -2.0413 -2.4301 0
M  V30 21 H -0.4447 -2.0116 1.8339 0
M  V30 22 H 1.4172 -1.1816 -0.7815 0
M  V30 23 H -0.3413 0.5302 1.1575 0
M  V30 24 H 0.7893 1.0176 -1.7209 0
M  V30 25 H -1.5183 0.8653 -2.4288 0
M  V30 26 H -2.0716 0.4995 -0.7745 0
M  V30 27 H 0.995 2.9701 1.7022 0
M  V30 28 H 1.4391 3.1668 -0.0137 0
M  V30 29 H -2.2658 2.6969 -1.3428 0
M  V30 30 H 2.8501 4.6287 1.4424 0
M  V30 31 H 3.4067 3.2073 2.3445 0
M  V30 32 H 3.8467 3.3994 0.6424 0
M  V30 END ATOM
M  V30 BEGIN BOND
M  V30 1 1 1 2
M  V30 2 2 2 3
M  V30 3 1 2 4
M  V30 4 1 3 5
M  V30 5 2 4 6
M  V30 6 2 5 7
M  V30 7 1 7 8
M  V30 8 1 8 9
M  V30 9 1 8 10
M  V30 10 1 9 11
M  V30 11 1 10 12
M  V30 12 2 11 13
M  V30 13 2 11 14
M  V30 14 1 11 15
M  V30 15 1 12 16
M  V30 16 1 15 17
M  V30 17 1 6 7
M  V30 18 1 9 10
M  V30 19 1 3 18
M  V30 20 1 4 19
M  V30 21 1 5 20
M  V30 22 1 6 21
M  V30 23 1 8 22
M  V30 24 1 9 23
M  V30 25 1 10 24
M  V30 26 1 12 25
M  V30 27 1 12 26
M  V30 28 1 15 27
M  V30 29 1 15 28
M  V30 30 1 16 29
M  V30 31 1 17 30
M  V30 32 1 17 31
M  V30 33 1 17 32
M  V30 END BOND
M  V30 BEGIN COLLECTION
M  V30 MDLV30/STEABS ATOMS=(3 8 9 10)
M  V30 END COLLECTION
M  V30 END CTAB
M  END
>  <Column 1>
2631

>  <level_0>
3861

>  <index>
3861

>  <Unnamed: 0>
3861

>  <NO.>
3873

>  <Name>
pimozide

>  <IUPAC_name>
[(1s-2r-3r)-2-(4-chlorophenyl)-3-ethylsulfonylcyclopropyl]methanol

>  <SMILES>
CCS(=O)(=O)[C@H]1[C@H](CO)[C@@H]1c1ccc(Cl)cc1

>  <CID>
100016362

>  <logBB>


>  <BBB+/BBB->
BBB+

>  <Inchi>
InChI=1S/C12H15ClO3S/c1-2-17(15-16)12-10(7-14)11(12)8-3-5-9(13)6-4-8/h3-6-10-12-14H-2-7H2-1H3/t10--11+-12+/m1/s1

>  <threshold>
-1

>  <reference>
R16|R10|R10|

>  <group>
B

>  <Class>
1

>  <ABC>
12.93

>  <ABCGG>
12.18

>  <nAcid>
0

>  <nBase>
0

>  <nAromAtom>
6

>  <nAromBond>
6

>  <nAtom>
32

>  <nHeavyAtom>
17

>  <nSpiro>
0

>  <nBridgehead>
0

>  <nHetero>
5

>  <nN>
0

>  <nO>
3

>  <nF>
0

>  <BalabanJ>
1.97

>  <BertzCT>
494.99

>  <nBonds>
33

>  <nBondsO>
18

>  <nBondsS>
25

>  <nBondsD>
2

>  <nBondsT>
0

>  <nBondsA>
6

>  <nBondsM>
8

>  <nBondsKS>
28

>  <nBondsKD>
5

>  <RNCG>
0.32

>  <RPCG>
0.17

>  <FCSP3>
0.5

>  <SZ>
24

>  <Sm>
22.88

>  <Sv>
20.49

>  <Sse>
32.49

>  <Sp>
22.47

>  <Si>
35.81

>  <MZ>
0.75

>  <Mm>
0.71

>  <Mv>
0.64

>  <Mse>
1.02

>  <Mp>
0.7

>  <Mi>
1.12

>  <NsCH3>
1

>  <NdCH2>
0

>  <NssCH2>
2

>  <NtCH>
0

>  <NdsCH>
0

>  <NaaCH>
4

>  <NsssCH>
3

>  <NddC>
0

>  <NtsC>
0

>  <NdssC>
0

>  <NaasC>
2

>  <NaaaC>
0

>  <NssssC>
0

>  <NsNH3>
0

>  <NsNH2>
0

>  <NssNH2>
0

>  <NdNH>
0

>  <NssNH>
0

>  <NaaNH>
0

>  <NtN>
0

>  <NsssNH>
0

>  <NdsN>
0

>  <NaaN>
0

>  <NsssN>
0

>  <NddsN>
0

>  <NaasN>
0

>  <NssssN>
0

>  <NsOH>
1

>  <NdO>
2

>  <NssO>
0

>  <NaaO>
0

>  <NsF>
0

>  <NsSiH3>
0

>  <NssSiH2>
0

>  <NsssSiH>
0

>  <NssssSi>
0

>  <NsPH2>
0

>  <NssPH>
0

>  <NsssP>
0

>  <NdsssP>
0

>  <NsssssP>
0

>  <NsSH>
0

>  <NdS>
0

>  <NssS>
0

>  <NaaS>
0

>  <NdssS>
0

>  <NddssS>
1

>  <NsCl>
1

>  <NsBr>
0

>  <NsI>
0

>  <fragCpx>
52.05

>  <fMF>
0.28

>  <nHBAcc>
3

>  <nHBDon>
1

>  <Kier1>
13.43

>  <Kier2>
4.94

>  <Lipinski>
1

>  <GhoseFilter>
1

>  <FilterItLogS>
-3.09

>  <VMcGowan>
191.52

>  <LabuteASA>
106.34

>  <PEOE_VSA1>
5.11

>  <PEOE_VSA2>
0

>  <PEOE_VSA3>
8.42

>  <PEOE_VSA4>
0

>  <PEOE_VSA5>
0

>  <PEOE_VSA6>
30.66

>  <PEOE_VSA7>
17.7

>  <PEOE_VSA8>
29.22

>  <PEOE_VSA9>
5.25

>  <PEOE_VSA10>
0

>  <PEOE_VSA11>
9.84

>  <PEOE_VSA12>
0

>  <PEOE_VSA13>
0

>  <SMR_VSA1>
13.52

>  <SMR_VSA2>
0

>  <SMR_VSA3>
0

>  <SMR_VSA4>
5.92

>  <SMR_VSA5>
18.09

>  <SMR_VSA6>
12.36

>  <SMR_VSA7>
34.85

>  <SMR_VSA8>
0

>  <SMR_VSA9>
0

>  <SlogP_VSA1>
0

>  <SlogP_VSA2>
31.13

>  <SlogP_VSA3>
9.84

>  <SlogP_VSA4>
5.92

>  <SlogP_VSA5>
18.41

>  <SlogP_VSA6>
24.27

>  <SlogP_VSA7>
5.02

>  <SlogP_VSA8>
0

>  <SlogP_VSA9>
0

>  <SlogP_VSA10>
0

>  <SlogP_VSA11>
0

>  <EState_VSA1>
15.09

>  <EState_VSA2>
24.2

>  <EState_VSA3>
5.02

>  <EState_VSA4>
5.56

>  <EState_VSA5>
0

>  <EState_VSA6>
19.06

>  <EState_VSA7>
12.13

>  <EState_VSA8>
0

>  <EState_VSA9>
11.6

>  <EState_VSA10>
13.52

>  <VSA_EState1>
23.69

>  <VSA_EState2>
0

>  <VSA_EState3>
9.43

>  <VSA_EState4>
0.94

>  <VSA_EState5>
-0.12

>  <VSA_EState6>
7.17

>  <VSA_EState7>
0

>  <VSA_EState8>
1.55

>  <VSA_EState9>
-3.09

>  <apol>
37.53

>  <bpol>
22.21

>  <nRing>
2

>  <nHRing>
0

>  <naRing>
1

>  <naHRing>
0

>  <nARing 2>
1

>  <nAHRing 2>
0

>  <nFRing>
0

>  <nFHRing>
0

>  <nFaRing>
0

>  <nFaHRing>
0

>  <nFARing 2>
0

>  <nFAHRing 2>
0

>  <nRot>
4

>  <SLogP>
1.85

>  <SMR>
68.02

>  <TopoPSA(NO)>
54.37

>  <TopoPSA>
62.75

>  <JGI1>
0.25

>  <JGI2>
0.13

>  <JGI3>
0.09

>  <JGI4>
0.07

>  <JGI5>
0.02

>  <Diameter>
9

>  <Radius>
5

>  <TMWC10>
108.9

>  <TSRW10>
70.96

>  <MW>
274.04

>  <AMW>
8.56

>  <WPath>
516

>  <WPol>
25

>  <Zagreb1>
90

>  <Zagreb2>
109

>  <mZagreb2>
3.82

>  <yes>


>  <nAR-cont>
0.816016

>  <nHA-cont>
0.976740822

>  <MWHBN>
0.241631201

>  <MWHBN-cont>
0.97271625

>  <TPSA-cont>
0.561966035

>  <pka_cont>
0.97

>  <yes.1>


>  <BBB_SCORE>
4.860763266

>  <MMFF94 Energy>
12.37

$$$$
Compound 2139
Actelion Java MolfileCreator 2.0

  0  0  0  0  0  0              0 V3000
M  V30 BEGIN CTAB
M  V30 COUNTS 33 35 0 0 0
M  V30 BEGIN ATOM
M  V30 1 S 0.6615 -1.82 -2.234 0
M  V30 2 O 0.7553 -1.5136 -3.6444 0
M  V30 3 O 1.7251 -2.4844 -1.5138 0
M  V30 4 C 0.3761 -0.2313 -1.4376 0 CFG=2
M  V30 5 C -0.8558 -2.706 -1.9432 0
M  V30 6 C 1.5438 0.7211 -1.5353 0
M  V30 7 C 1.192 0.0537 -0.2032 0 CFG=1
M  V30 8 C -0.8237 -4.0874 -2.5642 0
M  V30 9 C 2.8164 0.3814 -2.1088 0
M  V30 10 C 1.2068 2.0942 -1.7873 0
M  V30 11 C 0.5877 0.8273 0.9516 0
M  V30 12 N 3.8637 0.134 -2.5413 0
M  V30 13 N 0.8985 3.1955 -1.9822 0
M  V30 14 C -0.7174 0.562 1.4083 0
M  V30 15 C 1.2918 1.9036 1.5502 0
M  V30 16 C -1.2449 1.3364 2.4223 0
M  V30 17 C 0.7353 2.6752 2.5779 0
M  V30 18 O -2.4831 1.1926 2.9659 0
M  V30 19 C -0.5379 2.3645 2.9922 0
M  V30 20 C -2.4725 2.2529 3.9466 0
M  V30 21 O -1.2378 2.9987 3.9687 0
M  V30 22 H -0.6203 0.1774 -1.5367 0
M  V30 23 H -1.6703 -2.1136 -2.3701 0
M  V30 24 H -0.9917 -2.7757 -0.8599 0
M  V30 25 H 1.8795 -0.7228 0.1334 0
M  V30 26 H -1.7649 -4.6121 -2.3743 0
M  V30 27 H -0.677 -4.029 -3.6473 0
M  V30 28 H -0.0079 -4.6874 -2.1488 0
M  V30 29 H -1.3129 -0.2424 0.9905 0
M  V30 30 H 2.3001 2.1454 1.2151 0
M  V30 31 H 1.2863 3.4931 3.0292 0
M  V30 32 H -3.2955 2.9425 3.726 0
M  V30 33 H -2.636 1.8148 4.9379 0
M  V30 END ATOM
M  V30 BEGIN BOND
M  V30 1 2 1 2
M  V30 2 2 1 3
M  V30 3 1 1 4
M  V30 4 1 1 5
M  V30 5 1 4 6
M  V30 6 1 4 7
M  V30 7 1 5 8
M  V30 8 1 6 9
M  V30 9 1 6 10
M  V30 10 1 7 11
M  V30 11 3 9 12
M  V30 12 3 10 13
M  V30 13 2 11 14
M  V30 14 1 11 15
M  V30 15 1 14 16
M  V30 16 2 15 17
M  V30 17 1 16 18
M  V30 18 2 16 19
M  V30 19 1 18 20
M  V30 20 1 19 21
M  V30 21 1 6 7
M  V30 22 1 17 19
M  V30 23 1 20 21
M  V30 24 1 4 22
M  V30 25 1 5 23
M  V30 26 1 5 24
M  V30 27 1 7 25
M  V30 28 1 8 26
M  V30 29 1 8 27
M  V30 30 1 8 28
M  V30 31 1 14 29
M  V30 32 1 15 30
M  V30 33 1 17 31
M  V30 34 1 20 32
M  V30 35 1 20 33
M  V30 END BOND
M  V30 BEGIN COLLECTION
M  V30 MDLV30/STEABS ATOMS=(2 4 7)
M  V30 END COLLECTION
M  V30 END CTAB
M  END
>  <Column 1>
2632

>  <level_0>
3862

>  <index>
3862

>  <Unnamed: 0>
3862

>  <NO.>
3874

>  <Name>
thioridazine

>  <IUPAC_name>
(2r-3s)-2-(1-3-benzodioxol-5-yl)-3-ethylsulfonylcyclopropane-1-1-dicarbonitrile

>  <SMILES>
CCS(=O)(=O)[C@H]1[C@H](c2ccc3c(c2)OCO3)C1(C#N)C#N

>  <CID>
100005452

>  <logBB>


>  <BBB+/BBB->
BBB+

>  <Inchi>
InChI=1S/C14H12N2O4S/c1-2-21(17-18)13-12(14(13-6-15)7-16)9-3-4-10-11(5-9)20-8-19-10/h3-5-12-13H-2-8H2-1H3/t12--13-/m0/s1

>  <threshold>
-1

>  <reference>
R16|R16|R10|R10|

>  <group>
B

>  <Class>
1

>  <ABC>
16.28

>  <ABCGG>
15.17

>  <nAcid>
0

>  <nBase>
0

>  <nAromAtom>
6

>  <nAromBond>
6

>  <nAtom>
33

>  <nHeavyAtom>
21

>  <nSpiro>
0

>  <nBridgehead>
0

>  <nHetero>
7

>  <nN>
2

>  <nO>
4

>  <nF>
0

>  <BalabanJ>
1.77

>  <BertzCT>
774.17

>  <nBonds>
35

>  <nBondsO>
23

>  <nBondsS>
25

>  <nBondsD>
2

>  <nBondsT>
2

>  <nBondsA>
6

>  <nBondsM>
10

>  <nBondsKS>
28

>  <nBondsKD>
5

>  <RNCG>
0.24

>  <RPCG>
0.12

>  <FCSP3>
0.43

>  <SZ>
26.33

>  <Sm>
25.34

>  <Sv>
22.81

>  <Sse>
34.05

>  <Sp>
23.77

>  <Si>
36.83

>  <MZ>
0.8

>  <Mm>
0.77

>  <Mv>
0.69

>  <Mse>
1.03

>  <Mp>
0.72

>  <Mi>
1.12

>  <NsCH3>
1

>  <NdCH2>
0

>  <NssCH2>
2

>  <NtCH>
0

>  <NdsCH>
0

>  <NaaCH>
3

>  <NsssCH>
2

>  <NddC>
0

>  <NtsC>
2

>  <NdssC>
0

>  <NaasC>
3

>  <NaaaC>
0

>  <NssssC>
1

>  <NsNH3>
0

>  <NsNH2>
0

>  <NssNH2>
0

>  <NdNH>
0

>  <NssNH>
0

>  <NaaNH>
0

>  <NtN>
2

>  <NsssNH>
0

>  <NdsN>
0

>  <NaaN>
0

>  <NsssN>
0

>  <NddsN>
0

>  <NaasN>
0

>  <NssssN>
0

>  <NsOH>
0

>  <NdO>
2

>  <NssO>
2

>  <NaaO>
0

>  <NsF>
0

>  <NsSiH3>
0

>  <NssSiH2>
0

>  <NsssSiH>
0

>  <NssssSi>
0

>  <NsPH2>
0

>  <NssPH>
0

>  <NsssP>
0

>  <NdsssP>
0

>  <NsssssP>
0

>  <NsSH>
0

>  <NdS>
0

>  <NssS>
0

>  <NaaS>
0

>  <NdssS>
0

>  <NddssS>
1

>  <NsCl>
0

>  <NsBr>
0

>  <NsI>
0

>  <fragCpx>
109.07

>  <fMF>
0.36

>  <nHBAcc>
6

>  <nHBDon>
0

>  <Kier1>
15.88

>  <Kier2>
5.57

>  <Lipinski>
1

>  <GhoseFilter>
1

>  <FilterItLogS>
-2.93

>  <VMcGowan>
205.23

>  <LabuteASA>
121.98

>  <PEOE_VSA1>
9.47

>  <PEOE_VSA2>
0

>  <PEOE_VSA3>
8.42

>  <PEOE_VSA4>
10.52

>  <PEOE_VSA5>
0

>  <PEOE_VSA6>
12.99

>  <PEOE_VSA7>
17.7

>  <PEOE_VSA8>
11.67

>  <PEOE_VSA9>
12.14

>  <PEOE_VSA10>
5.25

>  <PEOE_VSA11>
26.75

>  <PEOE_VSA12>
6.79

>  <PEOE_VSA13>
0

>  <SMR_VSA1>
17.89

>  <SMR_VSA2>
10.52

>  <SMR_VSA3>
0

>  <SMR_VSA4>
5.41

>  <SMR_VSA5>
18.09

>  <SMR_VSA6>
12.55

>  <SMR_VSA7>
23.76

>  <SMR_VSA8>
0

>  <SMR_VSA9>
23.64

>  <SlogP_VSA1>
9.47

>  <SlogP_VSA2>
26.21

>  <SlogP_VSA3>
9.84

>  <SlogP_VSA4>
28.08

>  <SlogP_VSA5>
18.41

>  <SlogP_VSA6>
18.2

>  <SlogP_VSA7>
0

>  <SlogP_VSA8>
0

>  <SlogP_VSA9>
0

>  <SlogP_VSA10>
0

>  <SlogP_VSA11>
11.5

>  <EState_VSA1>
26.42

>  <EState_VSA2>
12.55

>  <EState_VSA3>
17.06

>  <EState_VSA4>
0

>  <EState_VSA5>
6.92

>  <EState_VSA6>
18.2

>  <EState_VSA7>
12.14

>  <EState_VSA8>
0

>  <EState_VSA9>
9.47

>  <EState_VSA10>
18.94

>  <VSA_EState1>
34.77

>  <VSA_EState2>
0

>  <VSA_EState3>
17.66

>  <VSA_EState4>
-0.9

>  <VSA_EState5>
0.35

>  <VSA_EState6>
8.81

>  <VSA_EState7>
0

>  <VSA_EState8>
1.63

>  <VSA_EState9>
-3.49

>  <apol>
39.69

>  <bpol>
23.31

>  <nRing>
3

>  <nHRing>
1

>  <naRing>
1

>  <naHRing>
0

>  <nARing 2>
2

>  <nAHRing 2>
1

>  <nFRing>
1

>  <nFHRing>
1

>  <nFaRing>
0

>  <nFaHRing>
0

>  <nFARing 2>
1

>  <nFAHRing 2>
1

>  <nRot>
3

>  <SLogP>
1.35

>  <SMR>
72.21

>  <TopoPSA(NO)>
100.18

>  <TopoPSA>
108.56

>  <JGI1>
0.26

>  <JGI2>
0.13

>  <JGI3>
0.1

>  <JGI4>
0.05

>  <JGI5>
0.02

>  <Diameter>
9

>  <Radius>
5

>  <TMWC10>
121.59

>  <TSRW10>
77.77

>  <MW>
304.05

>  <AMW>
9.21

>  <WPath>
861

>  <WPol>
35

>  <Zagreb1>
118

>  <Zagreb2>
149

>  <mZagreb2>
4.71

>  <yes>


>  <nAR-cont>
1

>  <nHA-cont>
0.994529749

>  <MWHBN>
0.344095305

>  <MWHBN-cont>
0.692157234

>  <TPSA-cont>
0.242183788

>  <pka_cont>
0.97

>  <yes.1>


>  <BBB_SCORE>
4.002133178

>  <MMFF94 Energy>
-24.462

$$$$
Compound 2140
Actelion Java MolfileCreator 2.0

  0  0  0  0  0  0              0 V3000
M  V30 BEGIN CTAB
M  V30 COUNTS 39 41 0 0 0
M  V30 BEGIN ATOM
M  V30 1 S -0.4899 -2.0424 -2.4513 0
M  V30 2 O -1.8086 -2.6059 -2.2308 0
M  V30 3 O -0.1026 -1.5831 -3.7686 0
M  V30 4 C -0.4788 -0.5724 -1.412 0 CFG=2
M  V30 5 C 0.6951 -3.2301 -1.8637 0
M  V30 6 C 0.7476 0.3109 -1.4462 0 CFG=1
M  V30 7 C 0.4238 -0.55 -0.2107 0 CFG=1
M  V30 8 C 0.6842 -4.4886 -2.7113 0
M  V30 9 C 1.9438 -0.0633 -2.161 0
M  V30 10 C 0.4807 1.799 -1.4755 0
M  V30 11 C -0.0643 0.052 1.0917 0
M  V30 12 N 2.9105 -0.4171 -2.6951 0
M  V30 13 O 1.5494 2.4849 -0.8234 0
M  V30 14 C -1.3718 -0.1743 1.5635 0
M  V30 15 C 0.7676 0.921 1.8419 0
M  V30 16 C 1.3529 3.8934 -0.8318 0
M  V30 17 C -1.7794 0.4386 2.7317 0
M  V30 18 C 0.3323 1.5325 3.0237 0
M  V30 19 O -3.0045 0.3111 3.3081 0
M  V30 20 C -0.9501 1.2692 3.4425 0
M  V30 21 C -2.846 1.1513 4.4711 0
M  V30 22 O -1.5453 1.7703 4.5565 0
M  V30 23 H -1.4423 -0.0815 -1.3567 0
M  V30 24 H 0.4312 -3.4775 -0.8314 0
M  V30 25 H 1.6895 -2.7846 -1.8878 0
M  V30 26 H 1.0919 -1.3908 -0.0436 0
M  V30 27 H 1.4141 -5.2095 -2.3306 0
M  V30 28 H -0.3018 -4.9638 -2.7011 0
M  V30 29 H 0.9366 -4.2641 -3.7526 0
M  V30 30 H -0.463 2.0475 -0.9746 0
M  V30 31 H 0.4074 2.1398 -2.5162 0
M  V30 32 H -2.0599 -0.8261 1.0337 0
M  V30 33 H 1.7798 1.1265 1.4928 0
M  V30 34 H 2.2002 4.3617 -0.3241 0
M  V30 35 H 0.4358 4.1547 -0.2949 0
M  V30 36 H 1.3093 4.2678 -1.859 0
M  V30 37 H 0.9822 2.1928 3.5869 0
M  V30 38 H -3.6078 1.9388 4.441 0
M  V30 39 H -3.0046 0.542 5.3685 0
M  V30 END ATOM
M  V30 BEGIN BOND
M  V30 1 2 1 2
M  V30 2 2 1 3
M  V30 3 1 1 4
M  V30 4 1 1 5
M  V30 5 1 4 6
M  V30 6 1 4 7
M  V30 7 1 5 8
M  V30 8 1 6 9
M  V30 9 1 6 10
M  V30 10 1 7 11
M  V30 11 3 9 12
M  V30 12 1 10 13
M  V30 13 2 11 14
M  V30 14 1 11 15
M  V30 15 1 13 16
M  V30 16 1 14 17
M  V30 17 2 15 18
M  V30 18 1 17 19
M  V30 19 2 17 20
M  V30 20 1 19 21
M  V30 21 1 20 22
M  V30 22 1 6 7
M  V30 23 1 18 20
M  V30 24 1 21 22
M  V30 25 1 4 23
M  V30 26 1 5 24
M  V30 27 1 5 25
M  V30 28 1 7 26
M  V30 29 1 8 27
M  V30 30 1 8 28
M  V30 31 1 8 29
M  V30 32 1 10 30
M  V30 33 1 10 31
M  V30 34 1 14 32
M  V30 35 1 15 33
M  V30 36 1 16 34
M  V30 37 1 16 35
M  V30 38 1 16 36
M  V30 39 1 18 37
M  V30 40 1 21 38
M  V30 41 1 21 39
M  V30 END BOND
M  V30 BEGIN COLLECTION
M  V30 MDLV30/STEABS ATOMS=(3 4 6 7)
M  V30 END COLLECTION
M  V30 END CTAB
M  END
>  <Column 1>
2633

>  <level_0>
3863

>  <index>
3863

>  <Unnamed: 0>
3863

>  <NO.>
3875

>  <Name>
topotecan

>  <IUPAC_name>
(1s-2r-3s)-2-(1-3-benzodioxol-5-yl)-3-ethylsulfonyl-1-(methoxymethyl)cyclopropane-1-carbonitrile

>  <SMILES>
CCS(=O)(=O)[C@H]1[C@H](c2ccc3c(c2)OCO3)[C@]1(C#N)COC

>  <CID>
100005515

>  <logBB>


>  <BBB+/BBB->
BBB+

>  <Inchi>
InChI=1S/C15H17NO5S/c1-3-22(17-18)14-13(15(14-7-16)8-19-2)10-4-5-11-12(6-10)21-9-20-11/h4-6-13-14H-3-8-9H2-1-2H3/t13--14--15-/m0/s1

>  <threshold>
-1

>  <reference>
R16|R10|

>  <group>
B

>  <Class>
1

>  <ABC>
16.98

>  <ABCGG>
15.7

>  <nAcid>
0

>  <nBase>
0

>  <nAromAtom>
6

>  <nAromBond>
6

>  <nAtom>
39

>  <nHeavyAtom>
22

>  <nSpiro>
0

>  <nBridgehead>
0

>  <nHetero>
7

>  <nN>
1

>  <nO>
5

>  <nF>
0

>  <BalabanJ>
1.78

>  <BertzCT>
738.79

>  <nBonds>
41

>  <nBondsO>
24

>  <nBondsS>
32

>  <nBondsD>
2

>  <nBondsT>
1

>  <nBondsA>
6

>  <nBondsM>
9

>  <nBondsKS>
35

>  <nBondsKD>
5

>  <RNCG>
0.21

>  <RPCG>
0.11

>  <FCSP3>
0.53

>  <SZ>
28.33

>  <Sm>
26.92

>  <Sv>
25.12

>  <Sse>
39.94

>  <Sp>
26.58

>  <Si>
43.79

>  <MZ>
0.73

>  <Mm>
0.69

>  <Mv>
0.64

>  <Mse>
1.02

>  <Mp>
0.68

>  <Mi>
1.12

>  <NsCH3>
2

>  <NdCH2>
0

>  <NssCH2>
3

>  <NtCH>
0

>  <NdsCH>
0

>  <NaaCH>
3

>  <NsssCH>
2

>  <NddC>
0

>  <NtsC>
1

>  <NdssC>
0

>  <NaasC>
3

>  <NaaaC>
0

>  <NssssC>
1

>  <NsNH3>
0

>  <NsNH2>
0

>  <NssNH2>
0

>  <NdNH>
0

>  <NssNH>
0

>  <NaaNH>
0

>  <NtN>
1

>  <NsssNH>
0

>  <NdsN>
0

>  <NaaN>
0

>  <NsssN>
0

>  <NddsN>
0

>  <NaasN>
0

>  <NssssN>
0

>  <NsOH>
0

>  <NdO>
2

>  <NssO>
3

>  <NaaO>
0

>  <NsF>
0

>  <NsSiH3>
0

>  <NssSiH2>
0

>  <NsssSiH>
0

>  <NssssSi>
0

>  <NsPH2>
0

>  <NssPH>
0

>  <NsssP>
0

>  <NdsssP>
0

>  <NsssssP>
0

>  <NsSH>
0

>  <NdS>
0

>  <NssS>
0

>  <NaaS>
0

>  <NdssS>
0

>  <NddssS>
1

>  <NsCl>
0

>  <NsBr>
0

>  <NsI>
0

>  <fragCpx>
114.07

>  <fMF>
0.31

>  <nHBAcc>
6

>  <nHBDon>
0

>  <Kier1>
16.84

>  <Kier2>
6.14

>  <Lipinski>
1

>  <GhoseFilter>
1

>  <FilterItLogS>
-3.37

>  <VMcGowan>
223.81

>  <LabuteASA>
129.06

>  <PEOE_VSA1>
14.21

>  <PEOE_VSA2>
0

>  <PEOE_VSA3>
8.42

>  <PEOE_VSA4>
5.26

>  <PEOE_VSA5>
0

>  <PEOE_VSA6>
12.99

>  <PEOE_VSA7>
17.7

>  <PEOE_VSA8>
18.78

>  <PEOE_VSA9>
17.93

>  <PEOE_VSA10>
5.41

>  <PEOE_VSA11>
21.34

>  <PEOE_VSA12>
6.79

>  <PEOE_VSA13>
0

>  <SMR_VSA1>
22.63

>  <SMR_VSA2>
5.26

>  <SMR_VSA3>
0

>  <SMR_VSA4>
5.41

>  <SMR_VSA5>
18.09

>  <SMR_VSA6>
26.26

>  <SMR_VSA7>
23.76

>  <SMR_VSA8>
0

>  <SMR_VSA9>
17.57

>  <SlogP_VSA1>
9.47

>  <SlogP_VSA2>
39.93

>  <SlogP_VSA3>
14.57

>  <SlogP_VSA4>
16.75

>  <SlogP_VSA5>
18.41

>  <SlogP_VSA6>
18.2

>  <SlogP_VSA7>
0

>  <SlogP_VSA8>
0

>  <SlogP_VSA9>
0

>  <SlogP_VSA10>
0

>  <SlogP_VSA11>
11.5

>  <EState_VSA1>
26.42

>  <EState_VSA2>
19.15

>  <EState_VSA3>
11.5

>  <EState_VSA4>
5.56

>  <EState_VSA5>
7.11

>  <EState_VSA6>
25.12

>  <EState_VSA7>
0

>  <EState_VSA8>
6.07

>  <EState_VSA9>
14.21

>  <EState_VSA10>
13.68

>  <VSA_EState1>
40.47

>  <VSA_EState2>
0

>  <VSA_EState3>
8.85

>  <VSA_EState4>
-0.26

>  <VSA_EState5>
0.82

>  <VSA_EState6>
7.5

>  <VSA_EState7>
0

>  <VSA_EState8>
1.84

>  <VSA_EState9>
-1.88

>  <apol>
44.4

>  <bpol>
29.49

>  <nRing>
3

>  <nHRing>
1

>  <naRing>
1

>  <naHRing>
0

>  <nARing 2>
2

>  <nAHRing 2>
1

>  <nFRing>
1

>  <nFHRing>
1

>  <nFaRing>
0

>  <nFaHRing>
0

>  <nFARing 2>
1

>  <nFAHRing 2>
1

>  <nRot>
5

>  <SLogP>
1.47

>  <SMR>
78.48

>  <TopoPSA(NO)>
85.62

>  <TopoPSA>
94

>  <JGI1>
0.25

>  <JGI2>
0.13

>  <JGI3>
0.1

>  <JGI4>
0.05

>  <JGI5>
0.02

>  <Diameter>
9

>  <Radius>
5

>  <TMWC10>
123.83

>  <TSRW10>
78.89

>  <MW>
323.08

>  <AMW>
8.28

>  <WPath>
979

>  <WPol>
36

>  <Zagreb1>
122

>  <Zagreb2>
153

>  <mZagreb2>
4.96

>  <yes>


>  <nAR-cont>
1

>  <nHA-cont>
0.983774276

>  <MWHBN>
0.333807595

>  <MWHBN-cont>
0.729398678

>  <TPSA-cont>
0.34382163

>  <pka_cont>
0.97

>  <yes.1>


>  <BBB_SCORE>
4.250515552

>  <MMFF94 Energy>
8.463

$$$$
Compound 2141
Actelion Java MolfileCreator 2.0

  0  0  0  0  0  0              0 V3000
M  V30 BEGIN CTAB
M  V30 COUNTS 36 37 0 0 0
M  V30 BEGIN ATOM
M  V30 1 S 0.3241 1.9462 -1.7839 0
M  V30 2 O -0.1127 3.1251 -1.0677 0
M  V30 3 O 1.6385 1.8935 -2.3941 0
M  V30 4 C 0.3039 0.5456 -0.6492 0 CFG=2
M  V30 5 C -0.8813 1.5263 -3.0281 0
M  V30 6 C -0.8847 0.378 0.262 0 CFG=1
M  V30 7 C 0.448 0.9104 0.8078 0 CFG=1
M  V30 8 C -0.9392 2.5737 -4.1218 0
M  V30 9 C -1.9933 1.2991 0.2818 0
M  V30 10 C -1.3177 -1.0561 0.4588 0
M  V30 11 C 1.301 0.0832 1.7425 0
M  V30 12 N -2.9155 2.0019 0.3036 0
M  V30 13 O -1.8733 -1.5183 -0.7767 0
M  V30 14 C 2.5542 -0.4171 1.3514 0
M  V30 15 C 0.8255 -0.2871 3.0129 0
M  V30 16 C -2.3989 -2.8348 -0.6521 0
M  V30 17 C 3.3077 -1.2354 2.197 0
M  V30 18 C 1.5748 -1.105 3.8622 0
M  V30 19 C 2.8168 -1.5795 3.4527 0
M  V30 20 H 0.7907 -0.3453 -1.0223 0
M  V30 21 H -1.8557 1.4345 -2.5436 0
M  V30 22 H -0.5963 0.5554 -3.4439 0
M  V30 23 H 0.4825 1.975 1.0441 0
M  V30 24 H -1.6826 2.2965 -4.8752 0
M  V30 25 H -1.2128 3.5527 -3.7152 0
M  V30 26 H 0.0296 2.6782 -4.6202 0
M  V30 27 H -2.0637 -1.1294 1.2603 0
M  V30 28 H -0.4753 -1.7077 0.7159 0
M  V30 29 H 2.9643 -0.1554 0.3772 0
M  V30 30 H -0.1407 0.0782 3.3567 0
M  V30 31 H -2.7989 -3.1383 -1.6232 0
M  V30 32 H -3.21 -2.8547 0.082 0
M  V30 33 H -1.6101 -3.5359 -0.3633 0
M  V30 34 H 4.2802 -1.5989 1.8744 0
M  V30 35 H 1.1899 -1.3663 4.8448 0
M  V30 36 H 3.4044 -2.212 4.1131 0
M  V30 END ATOM
M  V30 BEGIN BOND
M  V30 1 2 1 2
M  V30 2 2 1 3
M  V30 3 1 1 4
M  V30 4 1 1 5
M  V30 5 1 4 6
M  V30 6 1 4 7
M  V30 7 1 5 8
M  V30 8 1 6 9
M  V30 9 1 6 10
M  V30 10 1 7 11
M  V30 11 3 9 12
M  V30 12 1 10 13
M  V30 13 2 11 14
M  V30 14 1 11 15
M  V30 15 1 13 16
M  V30 16 1 14 17
M  V30 17 2 15 18
M  V30 18 2 17 19
M  V30 19 1 6 7
M  V30 20 1 18 19
M  V30 21 1 4 20
M  V30 22 1 5 21
M  V30 23 1 5 22
M  V30 24 1 7 23
M  V30 25 1 8 24
M  V30 26 1 8 25
M  V30 27 1 8 26
M  V30 28 1 10 27
M  V30 29 1 10 28
M  V30 30 1 14 29
M  V30 31 1 15 30
M  V30 32 1 16 31
M  V30 33 1 16 32
M  V30 34 1 16 33
M  V30 35 1 17 34
M  V30 36 1 18 35
M  V30 37 1 19 36
M  V30 END BOND
M  V30 BEGIN COLLECTION
M  V30 MDLV30/STEABS ATOMS=(3 4 6 7)
M  V30 END COLLECTION
M  V30 END CTAB
M  END
>  <Column 1>
2634

>  <level_0>
3864

>  <index>
3864

>  <Unnamed: 0>
3864

>  <NO.>
3876

>  <Name>
pyrazinamide

>  <IUPAC_name>
(1s-2s-3r)-2-ethylsulfonyl-1-(methoxymethyl)-3-phenylcyclopropane-1-carbonitrile

>  <SMILES>
CCS(=O)(=O)[C@H]1[C@H](c2ccccc2)[C@]1(C#N)COC

>  <CID>
100001046

>  <logBB>


>  <BBB+/BBB->
BBB+

>  <Inchi>
InChI=1S/C14H17NO3S/c1-3-19(16-17)13-12(11-7-5-4-6-8-11)14(13-9-15)10-18-2/h4-8-12-13H-3-10H2-1-2H3/t12--13--14-/m0/s1

>  <threshold>
-1

>  <reference>
R16|R10|

>  <group>
B

>  <Class>
1

>  <ABC>
14.19

>  <ABCGG>
13.66

>  <nAcid>
0

>  <nBase>
0

>  <nAromAtom>
6

>  <nAromBond>
6

>  <nAtom>
36

>  <nHeavyAtom>
19

>  <nSpiro>
0

>  <nBridgehead>
0

>  <nHetero>
5

>  <nN>
1

>  <nO>
3

>  <nF>
0

>  <BalabanJ>
2.18

>  <BertzCT>
590.87

>  <nBonds>
37

>  <nBondsO>
20

>  <nBondsS>
28

>  <nBondsD>
2

>  <nBondsT>
1

>  <nBondsA>
6

>  <nBondsM>
9

>  <nBondsKS>
31

>  <nBondsKD>
5

>  <RNCG>
0.27

>  <RPCG>
0.11

>  <FCSP3>
0.5

>  <SZ>
24.67

>  <Sm>
23.26

>  <Sv>
22.69

>  <Sse>
36.28

>  <Sp>
24.62

>  <Si>
40.37

>  <MZ>
0.69

>  <Mm>
0.65

>  <Mv>
0.63

>  <Mse>
1.01

>  <Mp>
0.68

>  <Mi>
1.12

>  <NsCH3>
2

>  <NdCH2>
0

>  <NssCH2>
2

>  <NtCH>
0

>  <NdsCH>
0

>  <NaaCH>
5

>  <NsssCH>
2

>  <NddC>
0

>  <NtsC>
1

>  <NdssC>
0

>  <NaasC>
1

>  <NaaaC>
0

>  <NssssC>
1

>  <NsNH3>
0

>  <NsNH2>
0

>  <NssNH2>
0

>  <NdNH>
0

>  <NssNH>
0

>  <NaaNH>
0

>  <NtN>
1

>  <NsssNH>
0

>  <NdsN>
0

>  <NaaN>
0

>  <NsssN>
0

>  <NddsN>
0

>  <NaasN>
0

>  <NssssN>
0

>  <NsOH>
0

>  <NdO>
2

>  <NssO>
1

>  <NaaO>
0

>  <NsF>
0

>  <NsSiH3>
0

>  <NssSiH2>
0

>  <NsssSiH>
0

>  <NssssSi>
0

>  <NsPH2>
0

>  <NssPH>
0

>  <NsssP>
0

>  <NdsssP>
0

>  <NsssssP>
0

>  <NsSH>
0

>  <NdS>
0

>  <NssS>
0

>  <NaaS>
0

>  <NdssS>
0

>  <NddssS>
1

>  <NsCl>
0

>  <NsBr>
0

>  <NsI>
0

>  <fragCpx>
58.05

>  <fMF>
0.25

>  <nHBAcc>
4

>  <nHBDon>
0

>  <Kier1>
15.39

>  <Kier2>
5.78

>  <Lipinski>
1

>  <GhoseFilter>
1

>  <FilterItLogS>
-3.33

>  <VMcGowan>
208.84

>  <LabuteASA>
113.48

>  <PEOE_VSA1>
4.74

>  <PEOE_VSA2>
0

>  <PEOE_VSA3>
8.42

>  <PEOE_VSA4>
5.26

>  <PEOE_VSA5>
0

>  <PEOE_VSA6>
37.26

>  <PEOE_VSA7>
5.56

>  <PEOE_VSA8>
18.78

>  <PEOE_VSA9>
17.93

>  <PEOE_VSA10>
5.41

>  <PEOE_VSA11>
9.84

>  <PEOE_VSA12>
0

>  <PEOE_VSA13>
0

>  <SMR_VSA1>
13.15

>  <SMR_VSA2>
5.26

>  <SMR_VSA3>
0

>  <SMR_VSA4>
5.41

>  <SMR_VSA5>
18.09

>  <SMR_VSA6>
19.47

>  <SMR_VSA7>
35.9

>  <SMR_VSA8>
0

>  <SMR_VSA9>
6.07

>  <SlogP_VSA1>
0

>  <SlogP_VSA2>
33.14

>  <SlogP_VSA3>
14.57

>  <SlogP_VSA4>
16.75

>  <SlogP_VSA5>
18.41

>  <SlogP_VSA6>
30.33

>  <SlogP_VSA7>
0

>  <SlogP_VSA8>
0

>  <SlogP_VSA9>
0

>  <SlogP_VSA10>
0

>  <SlogP_VSA11>
0

>  <EState_VSA1>
20.5

>  <EState_VSA2>
18.28

>  <EState_VSA3>
0

>  <EState_VSA4>
5.56

>  <EState_VSA5>
7.11

>  <EState_VSA6>
6.92

>  <EState_VSA7>
30.33

>  <EState_VSA8>
6.07

>  <EState_VSA9>
4.74

>  <EState_VSA10>
13.68

>  <VSA_EState1>
29.47

>  <VSA_EState2>
0

>  <VSA_EState3>
8.8

>  <VSA_EState4>
-0.05

>  <VSA_EState5>
-0.24

>  <VSA_EState6>
11.53

>  <VSA_EState7>
0

>  <VSA_EState8>
1.76

>  <VSA_EState9>
-1.77

>  <apol>
41.12

>  <bpol>
26.02

>  <nRing>
2

>  <nHRing>
0

>  <naRing>
1

>  <naHRing>
0

>  <nARing 2>
1

>  <nAHRing 2>
0

>  <nFRing>
0

>  <nFHRing>
0

>  <nFaRing>
0

>  <nFaHRing>
0

>  <nFARing 2>
0

>  <nFAHRing 2>
0

>  <nRot>
5

>  <SLogP>
1.74

>  <SMR>
72.35

>  <TopoPSA(NO)>
67.16

>  <TopoPSA>
75.54

>  <JGI1>
0.25

>  <JGI2>
0.14

>  <JGI3>
0.11

>  <JGI4>
0.06

>  <JGI5>
0.02

>  <Diameter>
8

>  <Radius>
4

>  <TMWC10>
115.07

>  <TSRW10>
74.55

>  <MW>
279.09

>  <AMW>
7.75

>  <WPath>
652

>  <WPol>
30

>  <Zagreb1>
100

>  <Zagreb2>
124

>  <mZagreb2>
4.43

>  <yes>


>  <nAR-cont>
0.816016

>  <nHA-cont>
0.998649058

>  <MWHBN>
0.239435121

>  <MWHBN-cont>
0.975727942

>  <TPSA-cont>
0.472683892

>  <pka_cont>
0.97

>  <yes.1>


>  <BBB_SCORE>
4.708624755

>  <MMFF94 Energy>
2.118

$$$$
Compound 2142
Actelion Java MolfileCreator 2.0

  0  0  0  0  0  0              0 V3000
M  V30 BEGIN CTAB
M  V30 COUNTS 46 47 0 0 0
M  V30 BEGIN ATOM
M  V30 1 O 3.2363 1.1041 -2.1303 0
M  V30 2 C 2.6955 0.3371 -1.3411 0
M  V30 3 N 1.9085 0.7464 -0.2905 0
M  V30 4 C 2.8509 -1.1615 -1.4614 0
M  V30 5 C 1.6188 2.1666 -0.0371 0 CFG=1
M  V30 6 C 2.0022 -1.6974 -2.6065 0
M  V30 7 C 0.2994 2.2961 0.792 0 CFG=1
M  V30 8 C 2.8488 2.833 0.6225 0
M  V30 9 C 0.5608 -1.723 -2.2664 0
M  V30 10 C 0.0082 3.7427 1.2471 0
M  V30 11 C -0.8819 1.7261 -0.0122 0
M  V30 12 O 2.8195 4.2491 0.478 0
M  V30 13 O 0.1636 -2.5923 -1.2852 0
M  V30 14 N -0.4338 -1.0243 -2.7654 0
M  V30 15 C -1.2954 3.912 2.0183 0
M  V30 16 C -1.1884 -2.3576 -1.2353 0
M  V30 17 N -1.5686 -1.4345 -2.0961 0
M  V30 18 C -1.9683 -3.1133 -0.2642 0
M  V30 19 C -1.388 -4.0986 0.5496 0
M  V30 20 C -3.3412 -2.8558 -0.1269 0
M  V30 21 C -2.1605 -4.8054 1.476 0
M  V30 22 C -4.1132 -3.5619 0.7991 0
M  V30 23 C -3.5218 -4.5359 1.6001 0
M  V30 24 H 1.5021 0.0578 0.3295 0
M  V30 25 H 2.6108 -1.6539 -0.512 0
M  V30 26 H 3.9107 -1.3587 -1.6626 0
M  V30 27 H 1.4578 2.6484 -1.0111 0
M  V30 28 H 2.1513 -1.0982 -3.5124 0
M  V30 29 H 2.3222 -2.719 -2.8431 0
M  V30 30 H 0.4052 1.6793 1.6955 0
M  V30 31 H 3.7749 2.4819 0.1545 0
M  V30 32 H 2.9028 2.5855 1.6882 0
M  V30 33 H -0.0024 4.4137 0.3798 0
M  V30 34 H 0.8104 4.0809 1.9118 0
M  V30 35 H -0.6845 0.704 -0.3454 0
M  V30 36 H -1.0867 2.3375 -0.8975 0
M  V30 37 H -1.793 1.6803 0.592 0
M  V30 38 H 3.7056 4.5767 0.709 0
M  V30 39 H -1.3544 4.9232 2.4346 0
M  V30 40 H -1.358 3.2005 2.8476 0
M  V30 41 H -2.1671 3.7762 1.3715 0
M  V30 42 H -0.3283 -4.3307 0.4695 0
M  V30 43 H -3.8205 -2.0979 -0.7457 0
M  V30 44 H -1.6995 -5.5679 2.0991 0
M  V30 45 H -5.1758 -3.3506 0.8925 0
M  V30 46 H -4.1229 -5.0865 2.3198 0
M  V30 END ATOM
M  V30 BEGIN BOND
M  V30 1 2 1 2
M  V30 2 1 2 3
M  V30 3 1 2 4
M  V30 4 1 3 5
M  V30 5 1 4 6
M  V30 6 1 5 7
M  V30 7 1 5 8
M  V30 8 1 6 9
M  V30 9 1 7 10
M  V30 10 1 7 11
M  V30 11 1 8 12
M  V30 12 1 9 13
M  V30 13 2 9 14
M  V30 14 1 10 15
M  V30 15 1 13 16
M  V30 16 1 14 17
M  V30 17 1 16 18
M  V30 18 2 18 19
M  V30 19 1 18 20
M  V30 20 1 19 21
M  V30 21 2 20 22
M  V30 22 2 21 23
M  V30 23 2 16 17
M  V30 24 1 22 23
M  V30 25 1 3 24
M  V30 26 1 4 25
M  V30 27 1 4 26
M  V30 28 1 5 27
M  V30 29 1 6 28
M  V30 30 1 6 29
M  V30 31 1 7 30
M  V30 32 1 8 31
M  V30 33 1 8 32
M  V30 34 1 10 33
M  V30 35 1 10 34
M  V30 36 1 11 35
M  V30 37 1 11 36
M  V30 38 1 11 37
M  V30 39 1 12 38
M  V30 40 1 15 39
M  V30 41 1 15 40
M  V30 42 1 15 41
M  V30 43 1 19 42
M  V30 44 1 20 43
M  V30 45 1 21 44
M  V30 46 1 22 45
M  V30 47 1 23 46
M  V30 END BOND
M  V30 BEGIN COLLECTION
M  V30 MDLV30/STEABS ATOMS=(2 5 7)
M  V30 END COLLECTION
M  V30 END CTAB
M  END
>  <Column 1>
2635

>  <level_0>
3865

>  <index>
3865

>  <Unnamed: 0>
3865

>  <NO.>
3877

>  <Name>
trimethoprim

>  <IUPAC_name>
n-[(2s-3r)-1-hydroxy-3-methylpentan-2-yl]-3-(5-phenyl-1-3-4-oxadiazol-2-yl)propanamide

>  <SMILES>
CC[C@@H](C)[C@@H](CO)NC(=O)CCc1nnc(-c2ccccc2)o1

>  <CID>
100005578

>  <logBB>


>  <BBB+/BBB->
BBB+

>  <Inchi>
InChI=1S/C17H23N3O3/c1-3-12(2)14(11-21)18-15(22)9-10-16-19-20-17(23-16)13-7-5-4-6-8-13/h4-8-12-14-21H-3-9-11H2-1-2H3-(H-18-22)/t12--14-/m1/s1

>  <threshold>
-1

>  <reference>
R16|R10|

>  <group>
B

>  <Class>
1

>  <ABC>
17.11

>  <ABCGG>
14.58

>  <nAcid>
0

>  <nBase>
0

>  <nAromAtom>
11

>  <nAromBond>
11

>  <nAtom>
46

>  <nHeavyAtom>
23

>  <nSpiro>
0

>  <nBridgehead>
0

>  <nHetero>
6

>  <nN>
3

>  <nO>
3

>  <nF>
0

>  <BalabanJ>
1.65

>  <BertzCT>
612.56

>  <nBonds>
47

>  <nBondsO>
24

>  <nBondsS>
35

>  <nBondsD>
1

>  <nBondsT>
0

>  <nBondsA>
11

>  <nBondsM>
12

>  <nBondsKS>
41

>  <nBondsKD>
6

>  <RNCG>
0.2

>  <RPCG>
0.12

>  <FCSP3>
0.47

>  <SZ>
28.33

>  <Sm>
26.42

>  <Sv>
27.65

>  <Sse>
46.19

>  <Sp>
29.6

>  <Si>
52.28

>  <MZ>
0.62

>  <Mm>
0.57

>  <Mv>
0.6

>  <Mse>
1

>  <Mp>
0.64

>  <Mi>
1.14

>  <NsCH3>
2

>  <NdCH2>
0

>  <NssCH2>
4

>  <NtCH>
0

>  <NdsCH>
0

>  <NaaCH>
5

>  <NsssCH>
2

>  <NddC>
0

>  <NtsC>
0

>  <NdssC>
1

>  <NaasC>
3

>  <NaaaC>
0

>  <NssssC>
0

>  <NsNH3>
0

>  <NsNH2>
0

>  <NssNH2>
0

>  <NdNH>
0

>  <NssNH>
1

>  <NaaNH>
0

>  <NtN>
0

>  <NsssNH>
0

>  <NdsN>
0

>  <NaaN>
2

>  <NsssN>
0

>  <NddsN>
0

>  <NaasN>
0

>  <NssssN>
0

>  <NsOH>
1

>  <NdO>
1

>  <NssO>
0

>  <NaaO>
1

>  <NsF>
0

>  <NsSiH3>
0

>  <NssSiH2>
0

>  <NsssSiH>
0

>  <NssssSi>
0

>  <NsPH2>
0

>  <NssPH>
0

>  <NsssP>
0

>  <NdsssP>
0

>  <NsssssP>
0

>  <NsSH>
0

>  <NdS>
0

>  <NssS>
0

>  <NaaS>
0

>  <NdssS>
0

>  <NddssS>
0

>  <NsCl>
0

>  <NsBr>
0

>  <NsI>
0

>  <fragCpx>
70.06

>  <fMF>
0.24

>  <nHBAcc>
5

>  <nHBDon>
2

>  <Kier1>
19.33

>  <Kier2>
10.1

>  <Lipinski>
1

>  <GhoseFilter>
1

>  <FilterItLogS>
-4.52

>  <VMcGowan>
250.42

>  <LabuteASA>
135.48

>  <PEOE_VSA1>
14.84

>  <PEOE_VSA2>
4.79

>  <PEOE_VSA3>
0

>  <PEOE_VSA4>
0

>  <PEOE_VSA5>
10.2

>  <PEOE_VSA6>
38.47

>  <PEOE_VSA7>
18.05

>  <PEOE_VSA8>
18.41

>  <PEOE_VSA9>
12.65

>  <PEOE_VSA10>
0

>  <PEOE_VSA11>
0

>  <PEOE_VSA12>
17.69

>  <PEOE_VSA13>
0

>  <SMR_VSA1>
14.32

>  <SMR_VSA2>
0

>  <SMR_VSA3>
15.51

>  <SMR_VSA4>
5.92

>  <SMR_VSA5>
39.15

>  <SMR_VSA6>
6.61

>  <SMR_VSA7>
36.22

>  <SMR_VSA8>
0

>  <SMR_VSA9>
11.45

>  <SlogP_VSA1>
5.32

>  <SlogP_VSA2>
33.86

>  <SlogP_VSA3>
11.22

>  <SlogP_VSA4>
5.92

>  <SlogP_VSA5>
32.58

>  <SlogP_VSA6>
34.75

>  <SlogP_VSA7>
0

>  <SlogP_VSA8>
11.45

>  <SlogP_VSA9>
0

>  <SlogP_VSA10>
0

>  <SlogP_VSA11>
0

>  <EState_VSA1>
0

>  <EState_VSA2>
30.89

>  <EState_VSA3>
18.2

>  <EState_VSA4>
11.98

>  <EState_VSA5>
0

>  <EState_VSA6>
0

>  <EState_VSA7>
44.18

>  <EState_VSA8>
15.51

>  <EState_VSA9>
4.42

>  <EState_VSA10>
9.9

>  <VSA_EState1>
5.57

>  <VSA_EState2>
11.97

>  <VSA_EState3>
20.15

>  <VSA_EState4>
0.85

>  <VSA_EState5>
1

>  <VSA_EState6>
9.28

>  <VSA_EState7>
1.53

>  <VSA_EState8>
3.98

>  <VSA_EState9>
0

>  <apol>
49.43

>  <bpol>
27.39

>  <nRing>
2

>  <nHRing>
1

>  <naRing>
2

>  <naHRing>
1

>  <nARing 2>
0

>  <nAHRing 2>
0

>  <nFRing>
0

>  <nFHRing>
0

>  <nFaRing>
0

>  <nFaHRing>
0

>  <nFARing 2>
0

>  <nFAHRing 2>
0

>  <nRot>
8

>  <SLogP>
2.19

>  <SMR>
86.53

>  <TopoPSA(NO)>
88.25

>  <TopoPSA>
88.25

>  <JGI1>
0.19

>  <JGI2>
0.08

>  <JGI3>
0.04

>  <JGI4>
0.04

>  <JGI5>
0.02

>  <Diameter>
14

>  <Radius>
7

>  <TMWC10>
119.19

>  <TSRW10>
70.01

>  <MW>
317.17

>  <AMW>
6.9

>  <WPath>
1423

>  <WPol>
30

>  <Zagreb1>
110

>  <Zagreb2>
124

>  <mZagreb2>
5.39

>  <yes>


>  <nAR-cont>
0.336376

>  <nHA-cont>
0.967789328

>  <MWHBN>
0.393053791

>  <MWHBN-cont>
0.503426595

>  <TPSA-cont>
0.3839602

>  <pka_cont>
0.97

>  <yes.1>


>  <BBB_SCORE>
3.31222562

>  <MMFF94 Energy>
26.341

$$$$
Compound 2143
Actelion Java MolfileCreator 2.0

  0  0  0  0  0  0              0 V3000
M  V30 BEGIN CTAB
M  V30 COUNTS 48 50 0 0 0
M  V30 BEGIN ATOM
M  V30 1 O -0.396 0.4753 0.1584 0
M  V30 2 C 0.1213 -0.3709 -0.5628 0
M  V30 3 N -0.51 -1.5513 -0.8775 0
M  V30 4 C 1.4434 -0.2148 -1.1516 0
M  V30 5 C -1.8699 -1.8709 -0.4457 0 CFG=1
M  V30 6 C 2.489 0.5947 -0.7107 0
M  V30 7 C 1.9455 -0.8102 -2.3364 0
M  V30 8 C -2.9082 -1.2843 -1.447 0 CFG=1
M  V30 9 C -1.9726 -3.3884 -0.1964 0
M  V30 10 N 3.4808 0.4367 -1.6496 0
M  V30 11 C 2.6664 1.4786 0.4445 0
M  V30 12 N 3.1861 -0.4254 -2.6322 0
M  V30 13 C -2.8475 -1.9288 -2.8476 0
M  V30 14 C -4.3246 -1.356 -0.8608 0
M  V30 15 O -1.4549 -4.1227 -1.3074 0
M  V30 16 C 2.1735 1.1246 1.7074 0
M  V30 17 C 3.2525 2.7459 0.2854 0
M  V30 18 C -3.6554 -1.1716 -3.8947 0
M  V30 19 C 2.3054 1.9936 2.7921 0
M  V30 20 C 3.3943 3.6129 1.3737 0
M  V30 21 O 1.7968 1.5641 3.9926 0
M  V30 22 C 2.9379 3.2285 2.6302 0
M  V30 23 C 1.6495 2.6539 4.9096 0
M  V30 24 O 3.1289 4.1191 3.6552 0
M  V30 25 C 2.9083 3.5052 4.9304 0
M  V30 26 H -0.0584 -2.2511 -1.4526 0
M  V30 27 H -2.0321 -1.3733 0.5195 0
M  V30 28 H 1.4473 -1.4975 -3.0085 0
M  V30 29 H -2.6704 -0.2175 -1.566 0
M  V30 30 H -3.0025 -3.703 -0.0073 0
M  V30 31 H -1.3664 -3.6576 0.6758 0
M  V30 32 H 4.3981 0.8691 -1.6524 0
M  V30 33 H -3.2133 -2.9611 -2.8092 0
M  V30 34 H -1.8082 -1.9672 -3.1936 0
M  V30 35 H -4.3446 -0.9672 0.1629 0
M  V30 36 H -4.7047 -2.3822 -0.8437 0
M  V30 37 H -5.0239 -0.7508 -1.4463 0
M  V30 38 H -1.565 -5.0665 -1.0953 0
M  V30 39 H 1.6804 0.1687 1.863 0
M  V30 40 H 3.5906 3.0857 -0.6906 0
M  V30 41 H -3.5016 -1.6198 -4.8817 0
M  V30 42 H -3.3458 -0.1231 -3.948 0
M  V30 43 H -4.7274 -1.2075 -3.6803 0
M  V30 44 H 3.8569 4.5867 1.2391 0
M  V30 45 H 0.77 3.2416 4.618 0
M  V30 46 H 1.4629 2.23 5.9013 0
M  V30 47 H 3.7922 2.9076 5.1857 0
M  V30 48 H 2.8119 4.3053 5.6711 0
M  V30 END ATOM
M  V30 BEGIN BOND
M  V30 1 2 1 2
M  V30 2 1 2 3
M  V30 3 1 2 4
M  V30 4 1 3 5
M  V30 5 2 4 6
M  V30 6 1 4 7
M  V30 7 1 5 8
M  V30 8 1 5 9
M  V30 9 1 6 10
M  V30 10 1 6 11
M  V30 11 2 7 12
M  V30 12 1 8 13
M  V30 13 1 8 14
M  V30 14 1 9 15
M  V30 15 2 11 16
M  V30 16 1 11 17
M  V30 17 1 13 18
M  V30 18 1 16 19
M  V30 19 2 17 20
M  V30 20 1 19 21
M  V30 21 2 19 22
M  V30 22 1 21 23
M  V30 23 1 22 24
M  V30 24 1 23 25
M  V30 25 1 10 12
M  V30 26 1 20 22
M  V30 27 1 24 25
M  V30 28 1 3 26
M  V30 29 1 5 27
M  V30 30 1 7 28
M  V30 31 1 8 29
M  V30 32 1 9 30
M  V30 33 1 9 31
M  V30 34 1 10 32
M  V30 35 1 13 33
M  V30 36 1 13 34
M  V30 37 1 14 35
M  V30 38 1 14 36
M  V30 39 1 14 37
M  V30 40 1 15 38
M  V30 41 1 16 39
M  V30 42 1 17 40
M  V30 43 1 18 41
M  V30 44 1 18 42
M  V30 45 1 18 43
M  V30 46 1 20 44
M  V30 47 1 23 45
M  V30 48 1 23 46
M  V30 49 1 25 47
M  V30 50 1 25 48
M  V30 END BOND
M  V30 BEGIN COLLECTION
M  V30 MDLV30/STEABS ATOMS=(2 5 8)
M  V30 END COLLECTION
M  V30 END CTAB
M  END
>  <Column 1>
2636

>  <level_0>
3866

>  <index>
3866

>  <Unnamed: 0>
3866

>  <NO.>
3878

>  <Name>
methohexital

>  <IUPAC_name>
5-(2-3-dihydro-1-4-benzodioxin-6-yl)-n-[(2s-3r)-1-hydroxy-3-methylpentan-2-yl]-1h-pyrazole-4-carboxamide

>  <SMILES>
CC[C@@H](C)[C@@H](CO)NC(=O)c1cn[nH]c1-c1ccc2c(c1)OCCO2

>  <CID>
100009034

>  <logBB>


>  <BBB+/BBB->
BBB+

>  <Inchi>
InChI=1S/C18H23N3O4/c1-3-11(2)14(10-22)20-18(23)13-9-19-21-17(13)12-4-5-15-16(8-12)25-7-6-24-15/h4-5-8-9-11-14-22H-3-6-7-10H2-1-2H3-(H-19-21)(H-20-23)/t11--14-/m1/s1

>  <threshold>
-1

>  <reference>
R16|R10|

>  <group>
B

>  <Class>
1

>  <ABC>
19.11

>  <ABCGG>
16.2

>  <nAcid>
0

>  <nBase>
0

>  <nAromAtom>
11

>  <nAromBond>
11

>  <nAtom>
48

>  <nHeavyAtom>
25

>  <nSpiro>
0

>  <nBridgehead>
0

>  <nHetero>
7

>  <nN>
3

>  <nO>
4

>  <nF>
0

>  <BalabanJ>
1.58

>  <BertzCT>
743.67

>  <nBonds>
50

>  <nBondsO>
27

>  <nBondsS>
38

>  <nBondsD>
1

>  <nBondsT>
0

>  <nBondsA>
11

>  <nBondsM>
12

>  <nBondsKS>
44

>  <nBondsKD>
6

>  <RNCG>
0.18

>  <RPCG>
0.09

>  <FCSP3>
0.44

>  <SZ>
30.67

>  <Sm>
28.76

>  <Sv>
29.36

>  <Sse>
48.52

>  <Sp>
31.08

>  <Si>
54.49

>  <MZ>
0.64

>  <Mm>
0.6

>  <Mv>
0.61

>  <Mse>
1.01

>  <Mp>
0.65

>  <Mi>
1.14

>  <NsCH3>
2

>  <NdCH2>
0

>  <NssCH2>
4

>  <NtCH>
0

>  <NdsCH>
0

>  <NaaCH>
4

>  <NsssCH>
2

>  <NddC>
0

>  <NtsC>
0

>  <NdssC>
1

>  <NaasC>
5

>  <NaaaC>
0

>  <NssssC>
0

>  <NsNH3>
0

>  <NsNH2>
0

>  <NssNH2>
0

>  <NdNH>
0

>  <NssNH>
1

>  <NaaNH>
1

>  <NtN>
0

>  <NsssNH>
0

>  <NdsN>
0

>  <NaaN>
1

>  <NsssN>
0

>  <NddsN>
0

>  <NaasN>
0

>  <NssssN>
0

>  <NsOH>
1

>  <NdO>
1

>  <NssO>
2

>  <NaaO>
0

>  <NsF>
0

>  <NsSiH3>
0

>  <NssSiH2>
0

>  <NsssSiH>
0

>  <NssssSi>
0

>  <NsPH2>
0

>  <NssPH>
0

>  <NsssP>
0

>  <NdsssP>
0

>  <NsssssP>
0

>  <NsSH>
0

>  <NdS>
0

>  <NssS>
0

>  <NaaS>
0

>  <NdssS>
0

>  <NddssS>
0

>  <NsCl>
0

>  <NsBr>
0

>  <NsI>
0

>  <fragCpx>
129.07

>  <fMF>
0.31

>  <nHBAcc>
5

>  <nHBDon>
3

>  <Kier1>
19.75

>  <Kier2>
9.27

>  <Lipinski>
1

>  <GhoseFilter>
1

>  <FilterItLogS>
-4.25

>  <VMcGowan>
259.52

>  <LabuteASA>
145.9

>  <PEOE_VSA1>
19.9

>  <PEOE_VSA2>
9.89

>  <PEOE_VSA3>
0

>  <PEOE_VSA4>
5.1

>  <PEOE_VSA5>
0

>  <PEOE_VSA6>
20.27

>  <PEOE_VSA7>
24.12

>  <PEOE_VSA8>
5.56

>  <PEOE_VSA9>
30.1

>  <PEOE_VSA10>
13.21

>  <PEOE_VSA11>
11.5

>  <PEOE_VSA12>
0

>  <PEOE_VSA13>
5.91

>  <SMR_VSA1>
19.37

>  <SMR_VSA2>
0

>  <SMR_VSA3>
15.51

>  <SMR_VSA4>
5.92

>  <SMR_VSA5>
26.31

>  <SMR_VSA6>
19.82

>  <SMR_VSA7>
29.96

>  <SMR_VSA8>
0

>  <SMR_VSA9>
22.76

>  <SlogP_VSA1>
14.79

>  <SlogP_VSA2>
47.07

>  <SlogP_VSA3>
0

>  <SlogP_VSA4>
5.92

>  <SlogP_VSA5>
30.63

>  <SlogP_VSA6>
24.4

>  <SlogP_VSA7>
0

>  <SlogP_VSA8>
11.26

>  <SlogP_VSA9>
0

>  <SlogP_VSA10>
0

>  <SlogP_VSA11>
11.5

>  <EState_VSA1>
0

>  <EState_VSA2>
24.47

>  <EState_VSA3>
35.97

>  <EState_VSA4>
11.98

>  <EState_VSA5>
6.2

>  <EState_VSA6>
0

>  <EState_VSA7>
32.05

>  <EState_VSA8>
15.51

>  <EState_VSA9>
9.47

>  <EState_VSA10>
9.9

>  <VSA_EState1>
11.12

>  <VSA_EState2>
12.64

>  <VSA_EState3>
19.3

>  <VSA_EState4>
1.82

>  <VSA_EState5>
1.26

>  <VSA_EState6>
5.22

>  <VSA_EState7>
2.36

>  <VSA_EState8>
4.95

>  <VSA_EState9>
0

>  <apol>
51.9

>  <bpol>
28.55

>  <nRing>
3

>  <nHRing>
2

>  <naRing>
2

>  <naHRing>
1

>  <nARing 2>
1

>  <nAHRing 2>
1

>  <nFRing>
1

>  <nFHRing>
1

>  <nFaRing>
0

>  <nFaHRing>
0

>  <nFARing 2>
1

>  <nFAHRing 2>
1

>  <nRot>
6

>  <SLogP>
1.98

>  <SMR>
92.81

>  <TopoPSA(NO)>
96.47

>  <TopoPSA>
96.47

>  <JGI1>
0.17

>  <JGI2>
0.09

>  <JGI3>
0.04

>  <JGI4>
0.04

>  <JGI5>
0.02

>  <Diameter>
13

>  <Radius>
7

>  <TMWC10>
127.1

>  <TSRW10>
73.24

>  <MW>
345.17

>  <AMW>
7.19

>  <WPath>
1553

>  <WPol>
39

>  <Zagreb1>
128

>  <Zagreb2>
151

>  <mZagreb2>
5.72

>  <yes>


>  <nAR-cont>
0.816016

>  <nHA-cont>
0.921834225

>  <MWHBN>
0.430599445

>  <MWHBN-cont>
0.357443753

>  <TPSA-cont>
0.326579496

>  <pka_cont>
0.97

>  <yes.1>


>  <BBB_SCORE>
3.412174846

>  <MMFF94 Energy>
53.415

$$$$
Compound 2144
Actelion Java MolfileCreator 2.0

  0  0  0  0  0  0              0 V3000
M  V30 BEGIN CTAB
M  V30 COUNTS 43 44 0 0 0
M  V30 BEGIN ATOM
M  V30 1 Cl -1.1201 2.3214 4.1654 0
M  V30 2 C -1.9622 2.6631 2.699 0
M  V30 3 C -2.0473 1.7456 1.6454 0
M  V30 4 C -2.5398 3.9302 2.5587 0
M  V30 5 C -1.4845 0.388 1.7649 0
M  V30 6 C -2.7054 2.0836 0.4532 0
M  V30 7 C -3.2008 4.2801 1.3765 0
M  V30 8 O -1.9405 -0.3911 2.5887 0
M  V30 9 N -0.479 0.1018 0.8735 0
M  V30 10 C -3.2803 3.3542 0.3272 0
M  V30 11 C 0.1625 -1.2054 0.8213 0 CFG=1
M  V30 12 N -3.9725 3.7198 -0.9154 0 CHG=1
M  V30 13 C 0.799 -1.3974 -0.5531 0
M  V30 14 C 1.0972 -1.4417 2.0258 0
M  V30 15 O -3.9385 2.9078 -1.8497 0
M  V30 16 O -4.5398 4.8199 -0.9552 0 CHG=-1
M  V30 17 C 1.9294 -0.6951 -1.0289 0
M  V30 18 C 0.1809 -2.3285 -1.4146 0
M  V30 19 C 1.7287 -2.8276 2.0322 0
M  V30 20 C 2.4186 -0.9745 -2.3218 0
M  V30 21 C 2.6981 0.3078 -0.2117 0
M  V30 22 C 0.6706 -2.5796 -2.6969 0
M  V30 23 C 1.7903 -1.8972 -3.1651 0
M  V30 24 C 2.3505 -2.1915 -4.5246 0
M  V30 25 H -2.4768 4.6537 3.37 0
M  V30 26 H -2.7795 1.3494 -0.3476 0
M  V30 27 H -3.6444 5.2713 1.2919 0
M  V30 28 H -0.1786 0.7977 0.2047 0
M  V30 29 H -0.6516 -1.9361 0.9278 0
M  V30 30 H 1.8831 -0.6839 2.0852 0
M  V30 31 H 0.5223 -1.3304 2.9539 0
M  V30 32 H -0.6993 -2.8793 -1.0853 0
M  V30 33 H 2.4087 -2.9641 1.1862 0
M  V30 34 H 2.3081 -2.9712 2.95 0
M  V30 35 H 0.9624 -3.6082 1.9916 0
M  V30 36 H 3.3096 -0.4593 -2.6797 0
M  V30 37 H 3.2508 0.999 -0.8582 0
M  V30 38 H 2.041 0.9291 0.4007 0
M  V30 39 H 3.4218 -0.2063 0.4277 0
M  V30 40 H 0.17 -3.3144 -3.3232 0
M  V30 41 H 3.1002 -2.9857 -4.4565 0
M  V30 42 H 2.8168 -1.2993 -4.9558 0
M  V30 43 H 1.5605 -2.5091 -5.2133 0
M  V30 END ATOM
M  V30 BEGIN BOND
M  V30 1 1 1 2
M  V30 2 2 2 3
M  V30 3 1 2 4
M  V30 4 1 3 5
M  V30 5 1 3 6
M  V30 6 2 4 7
M  V30 7 2 5 8
M  V30 8 1 5 9
M  V30 9 2 6 10
M  V30 10 1 9 11
M  V30 11 1 10 12
M  V30 12 1 11 13
M  V30 13 1 11 14
M  V30 14 2 12 15
M  V30 15 1 12 16
M  V30 16 2 13 17
M  V30 17 1 13 18
M  V30 18 1 14 19
M  V30 19 1 17 20
M  V30 20 1 17 21
M  V30 21 2 18 22
M  V30 22 2 20 23
M  V30 23 1 23 24
M  V30 24 1 7 10
M  V30 25 1 22 23
M  V30 26 1 4 25
M  V30 27 1 6 26
M  V30 28 1 7 27
M  V30 29 1 9 28
M  V30 30 1 11 29
M  V30 31 1 14 30
M  V30 32 1 14 31
M  V30 33 1 18 32
M  V30 34 1 19 33
M  V30 35 1 19 34
M  V30 36 1 19 35
M  V30 37 1 20 36
M  V30 38 1 21 37
M  V30 39 1 21 38
M  V30 40 1 21 39
M  V30 41 1 22 40
M  V30 42 1 24 41
M  V30 43 1 24 42
M  V30 44 1 24 43
M  V30 END BOND
M  V30 BEGIN COLLECTION
M  V30 MDLV30/STEABS ATOMS=(1 11)
M  V30 END COLLECTION
M  V30 END CTAB
M  END
>  <Column 1>
2637

>  <level_0>
3867

>  <index>
3867

>  <Unnamed: 0>
3867

>  <NO.>
3879

>  <Name>
pyridostigmine bromide

>  <IUPAC_name>
2-chloro-n-[(1r)-1-(2-4-dimethylphenyl)propyl]-5-nitrobenzamide

>  <SMILES>
CC[C@@H](NC(=O)c1cc([N+](=O)[O-])ccc1Cl)c1ccc(C)cc1C

>  <CID>
100004991

>  <logBB>


>  <BBB+/BBB->
BBB+

>  <Inchi>
InChI=1S/C18H19ClN2O3/c1-4-17(14-7-5-11(2)9-12(14)3)20-18(22)15-10-13(21(23)24)6-8-16(15)19/h5-10-17H-4H2-1-3H3-(H-20-22)/t17-/m1/s1

>  <threshold>
-1

>  <reference>
R16|R10|

>  <group>
B

>  <Class>
1

>  <ABC>
18.13

>  <ABCGG>
15.65

>  <nAcid>
0

>  <nBase>
0

>  <nAromAtom>
12

>  <nAromBond>
12

>  <nAtom>
43

>  <nHeavyAtom>
24

>  <nSpiro>
0

>  <nBridgehead>
0

>  <nHetero>
6

>  <nN>
2

>  <nO>
3

>  <nF>
0

>  <BalabanJ>
1.96

>  <BertzCT>
789.83

>  <nBonds>
44

>  <nBondsO>
25

>  <nBondsS>
30

>  <nBondsD>
2

>  <nBondsT>
0

>  <nBondsA>
12

>  <nBondsM>
14

>  <nBondsKS>
36

>  <nBondsKD>
8

>  <RNCG>
0.2

>  <RPCG>
0.16

>  <FCSP3>
0.28

>  <SZ>
30.33

>  <Sm>
28.87

>  <Sv>
27.9

>  <Sse>
43.52

>  <Sp>
29.65

>  <Si>
48.31

>  <MZ>
0.71

>  <Mm>
0.67

>  <Mv>
0.65

>  <Mse>
1.01

>  <Mp>
0.69

>  <Mi>
1.12

>  <NsCH3>
3

>  <NdCH2>
0

>  <NssCH2>
1

>  <NtCH>
0

>  <NdsCH>
0

>  <NaaCH>
6

>  <NsssCH>
1

>  <NddC>
0

>  <NtsC>
0

>  <NdssC>
1

>  <NaasC>
6

>  <NaaaC>
0

>  <NssssC>
0

>  <NsNH3>
0

>  <NsNH2>
0

>  <NssNH2>
0

>  <NdNH>
0

>  <NssNH>
1

>  <NaaNH>
0

>  <NtN>
0

>  <NsssNH>
0

>  <NdsN>
0

>  <NaaN>
0

>  <NsssN>
0

>  <NddsN>
1

>  <NaasN>
0

>  <NssssN>
0

>  <NsOH>
0

>  <NdO>
2

>  <NssO>
0

>  <NaaO>
0

>  <NsF>
0

>  <NsSiH3>
0

>  <NssSiH2>
0

>  <NsssSiH>
0

>  <NssssSi>
0

>  <NsPH2>
0

>  <NssPH>
0

>  <NsssP>
0

>  <NdsssP>
0

>  <NsssssP>
0

>  <NsSH>
0

>  <NdS>
0

>  <NssS>
0

>  <NaaS>
0

>  <NdssS>
0

>  <NddssS>
0

>  <NsCl>
1

>  <NsBr>
0

>  <NsI>
0

>  <fragCpx>
73.06

>  <fMF>
0.35

>  <nHBAcc>
3

>  <nHBDon>
1

>  <Kier1>
20.31

>  <Kier2>
9.09

>  <Lipinski>
1

>  <GhoseFilter>
1

>  <FilterItLogS>
-6.21

>  <VMcGowan>
258.17

>  <LabuteASA>
145.35

>  <PEOE_VSA1>
5.32

>  <PEOE_VSA2>
14.91

>  <PEOE_VSA3>
0

>  <PEOE_VSA4>
0

>  <PEOE_VSA5>
0

>  <PEOE_VSA6>
42.29

>  <PEOE_VSA7>
37.46

>  <PEOE_VSA8>
12.13

>  <PEOE_VSA9>
21.55

>  <PEOE_VSA10>
0

>  <PEOE_VSA11>
0

>  <PEOE_VSA12>
0

>  <PEOE_VSA13>
11.59

>  <SMR_VSA1>
9.72

>  <SMR_VSA2>
0

>  <SMR_VSA3>
5.32

>  <SMR_VSA4>
0

>  <SMR_VSA5>
33.23

>  <SMR_VSA6>
0

>  <SMR_VSA7>
73.79

>  <SMR_VSA8>
0

>  <SMR_VSA9>
0

>  <SlogP_VSA1>
5.32

>  <SlogP_VSA2>
10.83

>  <SlogP_VSA3>
0

>  <SlogP_VSA4>
23.96

>  <SlogP_VSA5>
46.43

>  <SlogP_VSA6>
36.4

>  <SlogP_VSA7>
5.02

>  <SlogP_VSA8>
0

>  <SlogP_VSA9>
0

>  <SlogP_VSA10>
5.69

>  <SlogP_VSA11>
0

>  <EState_VSA1>
10.83

>  <EState_VSA2>
22.32

>  <EState_VSA3>
6.42

>  <EState_VSA4>
16.69

>  <EState_VSA5>
18.2

>  <EState_VSA6>
0

>  <EState_VSA7>
32.9

>  <EState_VSA8>
11.38

>  <EState_VSA9>
11.6

>  <EState_VSA10>
14.91

>  <VSA_EState1>
0

>  <VSA_EState2>
22.89

>  <VSA_EState3>
14

>  <VSA_EState4>
3.21

>  <VSA_EState5>
-0.42

>  <VSA_EState6>
9.71

>  <VSA_EState7>
0.7

>  <VSA_EState8>
5.98

>  <VSA_EState9>
0

>  <apol>
49.52

>  <bpol>
22.17

>  <nRing>
2

>  <nHRing>
0

>  <naRing>
2

>  <naHRing>
0

>  <nARing 2>
0

>  <nAHRing 2>
0

>  <nFRing>
0

>  <nFHRing>
0

>  <nFaRing>
0

>  <nFaHRing>
0

>  <nFARing 2>
0

>  <nFAHRing 2>
0

>  <nRot>
5

>  <SLogP>
4.75

>  <SMR>
94.52

>  <TopoPSA(NO)>
72.24

>  <TopoPSA>
72.24

>  <JGI1>
0.24

>  <JGI2>
0.1

>  <JGI3>
0.06

>  <JGI4>
0.04

>  <JGI5>
0.04

>  <Diameter>
12

>  <Radius>
6

>  <TMWC10>
123.11

>  <TSRW10>
58.32

>  <MW>
346.11

>  <AMW>
8.05

>  <WPath>
1374

>  <WPol>
38

>  <Zagreb1>
120

>  <Zagreb2>
139

>  <mZagreb2>
5.39

>  <yes>


>  <nAR-cont>
0.336376

>  <nHA-cont>
0.94700071

>  <MWHBN>
0.215007158

>  <MWHBN-cont>
0.997629253

>  <TPSA-cont>
0.495719942

>  <pka_cont>
0.97

>  <yes.1>


>  <BBB_SCORE>
4.256260472

>  <MMFF94 Energy>
56.631

$$$$
Compound 2145
Actelion Java MolfileCreator 2.0

  0  0  0  0  0  0              0 V3000
M  V30 BEGIN CTAB
M  V30 COUNTS 45 46 0 0 0
M  V30 BEGIN ATOM
M  V30 1 Cl -1.1203 4.0857 3.2836 0
M  V30 2 C 0.2336 3.0178 3.3403 0
M  V30 3 C 0.5541 2.1437 2.2942 0
M  V30 4 C 1.0043 3.009 4.509 0
M  V30 5 C -0.2065 2.1468 1.0291 0
M  V30 6 C 1.6409 1.2626 2.4086 0
M  V30 7 C 2.0904 2.137 4.635 0
M  V30 8 O -0.2551 3.1594 0.3462 0
M  V30 9 N -0.7887 0.9454 0.7013 0
M  V30 10 C 2.4039 1.2659 3.5831 0
M  V30 11 C -1.5357 0.7572 -0.5335 0 CFG=1
M  V30 12 N 3.5428 0.3479 3.7138 0 CHG=1
M  V30 13 C -1.0519 -0.5314 -1.1836 0
M  V30 14 C -3.0555 0.7949 -0.2767 0
M  V30 15 O 3.7143 -0.4823 2.8115 0
M  V30 16 O 4.2547 0.455 4.7213 0 CHG=-1
M  V30 17 C 0.0317 -0.4727 -2.0796 0
M  V30 18 C -1.5988 -1.7842 -0.8813 0
M  V30 19 C -3.5592 2.182 0.1038 0
M  V30 20 C 0.5417 -1.63 -2.6815 0
M  V30 21 C -1.0978 -2.9459 -1.4777 0
M  V30 22 O 1.5914 -1.646 -3.5665 0
M  V30 23 C -0.0319 -2.8796 -2.3794 0
M  V30 24 C 2.1877 -0.4029 -3.9074 0
M  V30 25 O 0.5217 -3.9669 -3.0084 0
M  V30 26 C -0.0474 -5.2413 -2.7477 0
M  V30 27 H 0.7612 3.6816 5.3302 0
M  V30 28 H 1.8921 0.6053 1.5772 0
M  V30 29 H 2.6759 2.1504 5.5533 0
M  V30 30 H -0.7061 0.1505 1.3206 0
M  V30 31 H -1.304 1.5827 -1.2195 0
M  V30 32 H -3.5882 0.4762 -1.1816 0
M  V30 33 H -3.3332 0.0978 0.5233 0
M  V30 34 H 0.4667 0.5006 -2.2894 0
M  V30 35 H -2.4215 -1.8811 -0.1772 0
M  V30 36 H -3.2971 2.9201 -0.6605 0
M  V30 37 H -4.6495 2.1709 0.2033 0
M  V30 38 H -3.1424 2.5094 1.0606 0
M  V30 39 H -1.5619 -3.8902 -1.2131 0
M  V30 40 H 1.4666 0.2613 -4.3952 0
M  V30 41 H 2.9912 -0.6025 -4.6228 0
M  V30 42 H 2.6361 0.0738 -3.0295 0
M  V30 43 H 0.0598 -5.5132 -1.6924 0
M  V30 44 H 0.5025 -5.9805 -3.3381 0
M  V30 45 H -1.0956 -5.2786 -3.0622 0
M  V30 END ATOM
M  V30 BEGIN BOND
M  V30 1 1 1 2
M  V30 2 2 2 3
M  V30 3 1 2 4
M  V30 4 1 3 5
M  V30 5 1 3 6
M  V30 6 2 4 7
M  V30 7 2 5 8
M  V30 8 1 5 9
M  V30 9 2 6 10
M  V30 10 1 9 11
M  V30 11 1 10 12
M  V30 12 1 11 13
M  V30 13 1 11 14
M  V30 14 2 12 15
M  V30 15 1 12 16
M  V30 16 2 13 17
M  V30 17 1 13 18
M  V30 18 1 14 19
M  V30 19 1 17 20
M  V30 20 2 18 21
M  V30 21 1 20 22
M  V30 22 2 20 23
M  V30 23 1 22 24
M  V30 24 1 23 25
M  V30 25 1 25 26
M  V30 26 1 7 10
M  V30 27 1 21 23
M  V30 28 1 4 27
M  V30 29 1 6 28
M  V30 30 1 7 29
M  V30 31 1 9 30
M  V30 32 1 11 31
M  V30 33 1 14 32
M  V30 34 1 14 33
M  V30 35 1 17 34
M  V30 36 1 18 35
M  V30 37 1 19 36
M  V30 38 1 19 37
M  V30 39 1 19 38
M  V30 40 1 21 39
M  V30 41 1 24 40
M  V30 42 1 24 41
M  V30 43 1 24 42
M  V30 44 1 26 43
M  V30 45 1 26 44
M  V30 46 1 26 45
M  V30 END BOND
M  V30 BEGIN COLLECTION
M  V30 MDLV30/STEABS ATOMS=(1 11)
M  V30 END COLLECTION
M  V30 END CTAB
M  END
>  <Column 1>
2638

>  <level_0>
3868

>  <index>
3868

>  <Unnamed: 0>
3868

>  <NO.>
3880

>  <Name>
quazepam

>  <IUPAC_name>
2-chloro-n-[(1r)-1-(3-4-dimethoxyphenyl)propyl]-5-nitrobenzamide

>  <SMILES>
CC[C@@H](NC(=O)c1cc([N+](=O)[O-])ccc1Cl)c1ccc(OC)c(OC)c1

>  <CID>
100004999

>  <logBB>


>  <BBB+/BBB->
BBB+

>  <Inchi>
InChI=1S/C18H19ClN2O5/c1-4-15(11-5-8-16(25-2)17(9-11)26-3)20-18(22)13-10-12(21(23)24)6-7-14(13)19/h5-10-15H-4H2-1-3H3-(H-20-22)/t15-/m1/s1

>  <threshold>
-1

>  <reference>
R16|R10|R10|

>  <group>
B

>  <Class>
1

>  <ABC>
19.33

>  <ABCGG>
16.59

>  <nAcid>
0

>  <nBase>
0

>  <nAromAtom>
12

>  <nAromBond>
12

>  <nAtom>
45

>  <nHeavyAtom>
26

>  <nSpiro>
0

>  <nBridgehead>
0

>  <nHetero>
8

>  <nN>
2

>  <nO>
5

>  <nF>
0

>  <BalabanJ>
1.95

>  <BertzCT>
825.22

>  <nBonds>
46

>  <nBondsO>
27

>  <nBondsS>
32

>  <nBondsD>
2

>  <nBondsT>
0

>  <nBondsA>
12

>  <nBondsM>
14

>  <nBondsKS>
38

>  <nBondsKD>
8

>  <RNCG>
0.2

>  <RPCG>
0.11

>  <FCSP3>
0.28

>  <SZ>
33

>  <Sm>
31.54

>  <Sv>
29.33

>  <Sse>
46.18

>  <Sp>
30.61

>  <Si>
50.73

>  <MZ>
0.73

>  <Mm>
0.7

>  <Mv>
0.65

>  <Mse>
1.03

>  <Mp>
0.68

>  <Mi>
1.13

>  <NsCH3>
3

>  <NdCH2>
0

>  <NssCH2>
1

>  <NtCH>
0

>  <NdsCH>
0

>  <NaaCH>
6

>  <NsssCH>
1

>  <NddC>
0

>  <NtsC>
0

>  <NdssC>
1

>  <NaasC>
6

>  <NaaaC>
0

>  <NssssC>
0

>  <NsNH3>
0

>  <NsNH2>
0

>  <NssNH2>
0

>  <NdNH>
0

>  <NssNH>
1

>  <NaaNH>
0

>  <NtN>
0

>  <NsssNH>
0

>  <NdsN>
0

>  <NaaN>
0

>  <NsssN>
0

>  <NddsN>
1

>  <NaasN>
0

>  <NssssN>
0

>  <NsOH>
0

>  <NdO>
2

>  <NssO>
2

>  <NaaO>
0

>  <NsF>
0

>  <NsSiH3>
0

>  <NssSiH2>
0

>  <NsssSiH>
0

>  <NssssSi>
0

>  <NsPH2>
0

>  <NssPH>
0

>  <NsssP>
0

>  <NdsssP>
0

>  <NsssssP>
0

>  <NsSH>
0

>  <NdS>
0

>  <NssS>
0

>  <NaaS>
0

>  <NdssS>
0

>  <NddssS>
0

>  <NsCl>
1

>  <NsBr>
0

>  <NsI>
0

>  <fragCpx>
79.08

>  <fMF>
0.33

>  <nHBAcc>
5

>  <nHBDon>
1

>  <Kier1>
22.29

>  <Kier2>
10.52

>  <Lipinski>
1

>  <GhoseFilter>
1

>  <FilterItLogS>
-5.67

>  <VMcGowan>
269.91

>  <LabuteASA>
155.57

>  <PEOE_VSA1>
14.79

>  <PEOE_VSA2>
14.91

>  <PEOE_VSA3>
0

>  <PEOE_VSA4>
0

>  <PEOE_VSA5>
0

>  <PEOE_VSA6>
24.59

>  <PEOE_VSA7>
30.18

>  <PEOE_VSA8>
12.13

>  <PEOE_VSA9>
35.77

>  <PEOE_VSA10>
0

>  <PEOE_VSA11>
11.5

>  <PEOE_VSA12>
0

>  <PEOE_VSA13>
11.59

>  <SMR_VSA1>
19.19

>  <SMR_VSA2>
0

>  <SMR_VSA3>
5.32

>  <SMR_VSA4>
0

>  <SMR_VSA5>
19.39

>  <SMR_VSA6>
14.22

>  <SMR_VSA7>
62.66

>  <SMR_VSA8>
0

>  <SMR_VSA9>
11.5

>  <SlogP_VSA1>
14.79

>  <SlogP_VSA2>
25.05

>  <SlogP_VSA3>
0

>  <SlogP_VSA4>
10.11

>  <SlogP_VSA5>
35.31

>  <SlogP_VSA6>
36.4

>  <SlogP_VSA7>
5.02

>  <SlogP_VSA8>
0

>  <SlogP_VSA9>
0

>  <SlogP_VSA10>
5.69

>  <SlogP_VSA11>
11.5

>  <EState_VSA1>
10.83

>  <EState_VSA2>
22.32

>  <EState_VSA3>
17.92

>  <EState_VSA4>
5.56

>  <EState_VSA5>
25.31

>  <EState_VSA6>
19.24

>  <EState_VSA7>
12.99

>  <EState_VSA8>
5.32

>  <EState_VSA9>
21.07

>  <EState_VSA10>
14.91

>  <VSA_EState1>
10.5

>  <VSA_EState2>
22.94

>  <VSA_EState3>
13.92

>  <VSA_EState4>
0.68

>  <VSA_EState5>
0.64

>  <VSA_EState6>
8.8

>  <VSA_EState7>
0.6

>  <VSA_EState8>
1.91

>  <VSA_EState9>
3.07

>  <apol>
51.12

>  <bpol>
25.65

>  <nRing>
2

>  <nHRing>
0

>  <naRing>
2

>  <naHRing>
0

>  <nARing 2>
0

>  <nAHRing 2>
0

>  <nFRing>
0

>  <nFHRing>
0

>  <nFaRing>
0

>  <nFaHRing>
0

>  <nFARing 2>
0

>  <nFAHRing 2>
0

>  <nRot>
7

>  <SLogP>
4.15

>  <SMR>
98.15

>  <TopoPSA(NO)>
90.7

>  <TopoPSA>
90.7

>  <JGI1>
0.22

>  <JGI2>
0.1

>  <JGI3>
0.04

>  <JGI4>
0.05

>  <JGI5>
0.04

>  <Diameter>
13

>  <Radius>
7

>  <TMWC10>
127.71

>  <TSRW10>
60.63

>  <MW>
378.1

>  <AMW>
8.4

>  <WPath>
1744

>  <WPol>
42

>  <Zagreb1>
128

>  <Zagreb2>
149

>  <mZagreb2>
6.06

>  <yes>


>  <nAR-cont>
0.336376

>  <nHA-cont>
0.892715677

>  <MWHBN>
0.308565887

>  <MWHBN-cont>
0.814414229

>  <TPSA-cont>
0.366857679

>  <pka_cont>
0.97

>  <yes.1>


>  <BBB_SCORE>
3.669428378

>  <MMFF94 Energy>
72.28

$$$$
Compound 2146
Actelion Java MolfileCreator 2.0

  0  0  0  0  0  0              0 V3000
M  V30 BEGIN CTAB
M  V30 COUNTS 62 63 0 0 0
M  V30 BEGIN ATOM
M  V30 1 Cl -3.003 -3.7345 4.141 0
M  V30 2 C -2.7043 -3.1875 2.5359 0
M  V30 3 C -3.7583 -2.7827 1.7171 0
M  V30 4 C -1.3935 -3.1341 2.0631 0
M  V30 5 F -5.0236 -2.8163 2.1612 0
M  V30 6 C -3.5173 -2.3185 0.4266 0
M  V30 7 C -1.1514 -2.6761 0.765 0
M  V30 8 C -2.2078 -2.257 -0.0487 0
M  V30 9 N 0.1805 -2.5589 0.2523 0
M  V30 10 S 1.0228 -4.0088 0.0125 0
M  V30 11 C 0.974 -1.3977 0.7334 0
M  V30 12 O 1.968 -4.1556 1.0999 0
M  V30 13 O 0.077 -5.0592 -0.3029 0
M  V30 14 C 1.9206 -3.6461 -1.4819 0
M  V30 15 C 0.7388 -0.2386 -0.2379 0
M  V30 16 O 0.9367 -0.4171 -1.4471 0
M  V30 17 N 0.3111 0.9922 0.2509 0
M  V30 18 C 0.0055 2.1015 -0.6882 0 CFG=1
M  V30 19 C 0.3773 1.3518 1.6764 0
M  V30 20 C 1.3215 2.7509 -1.1693 0
M  V30 21 C -0.9615 1.728 -1.8281 0
M  V30 22 C -0.8388 0.9373 2.4801 0
M  V30 23 O 1.7185 3.8149 -0.6973 0
M  V30 24 N 2.0385 2.0211 -2.0887 0
M  V30 25 C -1.5797 2.9619 -2.4753 0
M  V30 26 C -0.7324 0.4679 3.8032 0
M  V30 27 C -2.1315 1.0869 1.9437 0
M  V30 28 C 3.3253 2.4499 -2.6085 0
M  V30 29 Cl 0.7935 0.2879 4.5954 0
M  V30 30 C -1.872 0.1228 4.5385 0
M  V30 31 C -3.2681 0.7481 2.6823 0
M  V30 32 C 4.4496 1.9788 -1.6899 0
M  V30 33 C 3.5202 1.9186 -4.0243 0
M  V30 34 C -3.1388 0.2603 3.9774 0
M  V30 35 H -0.5707 -3.4492 2.6991 0
M  V30 36 H -4.3496 -2.0072 -0.1966 0
M  V30 37 H -2.013 -1.8953 -1.0554 0
M  V30 38 H 2.0503 -1.5989 0.7112 0
M  V30 39 H 0.7187 -1.1744 1.7668 0
M  V30 40 H 1.2084 -3.3885 -2.2682 0
M  V30 41 H 2.4739 -4.5443 -1.7651 0
M  V30 42 H 2.6193 -2.8288 -1.2988 0
M  V30 43 H -0.5085 2.8721 -0.097 0
M  V30 44 H 1.2943 0.8997 2.0641 0
M  V30 45 H 0.5109 2.4358 1.7772 0
M  V30 46 H -0.4699 1.1494 -2.6158 0
M  V30 47 H -1.7701 1.1004 -1.4347 0
M  V30 48 H 1.7248 1.0683 -2.2794 0
M  V30 49 H -0.8129 3.6009 -2.924 0
M  V30 50 H -2.2754 2.6635 -3.2661 0
M  V30 51 H -2.1372 3.5534 -1.7419 0
M  V30 52 H -2.2761 1.4752 0.9394 0
M  V30 53 H 3.3356 3.546 -2.6394 0
M  V30 54 H -1.7797 -0.2525 5.5554 0
M  V30 55 H -4.2573 0.8651 2.2444 0
M  V30 56 H 4.4626 0.8861 -1.6081 0
M  V30 57 H 4.3241 2.3818 -0.679 0
M  V30 58 H 5.4245 2.3061 -2.0654 0
M  V30 59 H 4.4738 2.2576 -4.4419 0
M  V30 60 H 3.5079 0.8231 -4.0438 0
M  V30 61 H 2.7175 2.2686 -4.6827 0
M  V30 62 H -4.0221 -0.011 4.551 0
M  V30 END ATOM
M  V30 BEGIN BOND
M  V30 1 1 1 2
M  V30 2 2 2 3
M  V30 3 1 2 4
M  V30 4 1 3 5
M  V30 5 1 3 6
M  V30 6 2 4 7
M  V30 7 2 6 8
M  V30 8 1 7 9
M  V30 9 1 9 10
M  V30 10 1 9 11
M  V30 11 2 10 12
M  V30 12 2 10 13
M  V30 13 1 10 14
M  V30 14 1 11 15
M  V30 15 2 15 16
M  V30 16 1 15 17
M  V30 17 1 17 18
M  V30 18 1 17 19
M  V30 19 1 18 20
M  V30 20 1 18 21
M  V30 21 1 19 22
M  V30 22 2 20 23
M  V30 23 1 20 24
M  V30 24 1 21 25
M  V30 25 2 22 26
M  V30 26 1 22 27
M  V30 27 1 24 28
M  V30 28 1 26 29
M  V30 29 1 26 30
M  V30 30 2 27 31
M  V30 31 1 28 32
M  V30 32 1 28 33
M  V30 33 2 30 34
M  V30 34 1 7 8
M  V30 35 1 31 34
M  V30 36 1 4 35
M  V30 37 1 6 36
M  V30 38 1 8 37
M  V30 39 1 11 38
M  V30 40 1 11 39
M  V30 41 1 14 40
M  V30 42 1 14 41
M  V30 43 1 14 42
M  V30 44 1 18 43
M  V30 45 1 19 44
M  V30 46 1 19 45
M  V30 47 1 21 46
M  V30 48 1 21 47
M  V30 49 1 24 48
M  V30 50 1 25 49
M  V30 51 1 25 50
M  V30 52 1 25 51
M  V30 53 1 27 52
M  V30 54 1 28 53
M  V30 55 1 30 54
M  V30 56 1 31 55
M  V30 57 1 32 56
M  V30 58 1 32 57
M  V30 59 1 32 58
M  V30 60 1 33 59
M  V30 61 1 33 60
M  V30 62 1 33 61
M  V30 63 1 34 62
M  V30 END BOND
M  V30 BEGIN COLLECTION
M  V30 MDLV30/STEABS ATOMS=(1 18)
M  V30 END COLLECTION
M  V30 END CTAB
M  END
>  <Column 1>
2639

>  <level_0>
3869

>  <index>
3869

>  <Unnamed: 0>
3869

>  <NO.>
3881

>  <Name>
levodopa

>  <IUPAC_name>
(2r)-2-[[2-(3-chloro-4-fluoro-n-methylsulfonylanilino)acetyl]-[(2-chlorophenyl)methyl]amino]-n-propan-2-ylbutanamide

>  <SMILES>
CC[C@H](C(=O)NC(C)C)N(Cc1ccccc1Cl)C(=O)CN(c1ccc(F)c(Cl)c1)S(C)(=O)=O

>  <CID>
100104778

>  <logBB>


>  <BBB+/BBB->
BBB+

>  <Inchi>
InChI=1S/C23H28Cl2FN3O4S/c1-5-21(23(31)27-15(2)3)28(13-16-8-6-7-9-18(16)24)22(30)14-29(34(4-32)33)17-10-11-20(26)19(25)12-17/h6-12-15-21H-5-13-14H2-1-4H3-(H-27-31)/t21-/m1/s1

>  <threshold>
-1

>  <reference>
R16|R10|

>  <group>
B

>  <Class>
-1

>  <ABC>
25.69

>  <ABCGG>
22.47

>  <nAcid>
0

>  <nBase>
0

>  <nAromAtom>
12

>  <nAromBond>
12

>  <nAtom>
62

>  <nHeavyAtom>
34

>  <nSpiro>
0

>  <nBridgehead>
0

>  <nHetero>
11

>  <nN>
3

>  <nO>
4

>  <nF>
1

>  <BalabanJ>
2.26

>  <BertzCT>
1144.79

>  <nBonds>
63

>  <nBondsO>
35

>  <nBondsS>
47

>  <nBondsD>
4

>  <nBondsT>
0

>  <nBondsA>
12

>  <nBondsM>
16

>  <nBondsKS>
53

>  <nBondsKD>
10

>  <RNCG>
0.13

>  <RPCG>
0.09

>  <FCSP3>
0.39

>  <SZ>
46.33

>  <Sm>
44.33

>  <Sv>
39.73

>  <Sse>
63.31

>  <Sp>
42.76

>  <Si>
70.29

>  <MZ>
0.75

>  <Mm>
0.72

>  <Mv>
0.64

>  <Mse>
1.02

>  <Mp>
0.69

>  <Mi>
1.13

>  <NsCH3>
4

>  <NdCH2>
0

>  <NssCH2>
3

>  <NtCH>
0

>  <NdsCH>
0

>  <NaaCH>
7

>  <NsssCH>
2

>  <NddC>
0

>  <NtsC>
0

>  <NdssC>
2

>  <NaasC>
5

>  <NaaaC>
0

>  <NssssC>
0

>  <NsNH3>
0

>  <NsNH2>
0

>  <NssNH2>
0

>  <NdNH>
0

>  <NssNH>
1

>  <NaaNH>
0

>  <NtN>
0

>  <NsssNH>
0

>  <NdsN>
0

>  <NaaN>
0

>  <NsssN>
2

>  <NddsN>
0

>  <NaasN>
0

>  <NssssN>
0

>  <NsOH>
0

>  <NdO>
4

>  <NssO>
0

>  <NaaO>
0

>  <NsF>
1

>  <NsSiH3>
0

>  <NssSiH2>
0

>  <NsssSiH>
0

>  <NssssSi>
0

>  <NsPH2>
0

>  <NssPH>
0

>  <NsssP>
0

>  <NdsssP>
0

>  <NsssssP>
0

>  <NsSH>
0

>  <NdS>
0

>  <NssS>
0

>  <NaaS>
0

>  <NdssS>
0

>  <NddssS>
1

>  <NsCl>
2

>  <NsBr>
0

>  <NsI>
0

>  <fragCpx>
103.11

>  <fMF>
0.27

>  <nHBAcc>
4

>  <nHBDon>
1

>  <Kier1>
30.23

>  <Kier2>
13.52

>  <Lipinski>
0

>  <GhoseFilter>
0

>  <FilterItLogS>
-6.56

>  <VMcGowan>
374.82

>  <LabuteASA>
209.43

>  <PEOE_VSA1>
10.22

>  <PEOE_VSA2>
13.89

>  <PEOE_VSA3>
12.81

>  <PEOE_VSA4>
0

>  <PEOE_VSA5>
0

>  <PEOE_VSA6>
48.32

>  <PEOE_VSA7>
50.1

>  <PEOE_VSA8>
17.61

>  <PEOE_VSA9>
16.97

>  <PEOE_VSA10>
18.4

>  <PEOE_VSA11>
0

>  <PEOE_VSA12>
21.84

>  <PEOE_VSA13>
0

>  <SMR_VSA1>
22.4

>  <SMR_VSA2>
0

>  <SMR_VSA3>
10.22

>  <SMR_VSA4>
0

>  <SMR_VSA5>
45.82

>  <SMR_VSA6>
17.11

>  <SMR_VSA7>
63.89

>  <SMR_VSA8>
0

>  <SMR_VSA9>
0

>  <SlogP_VSA1>
9.62

>  <SlogP_VSA2>
50.02

>  <SlogP_VSA3>
26.16

>  <SlogP_VSA4>
5.82

>  <SlogP_VSA5>
32.76

>  <SlogP_VSA6>
42.46

>  <SlogP_VSA7>
10.05

>  <SlogP_VSA8>
0

>  <SlogP_VSA9>
0

>  <SlogP_VSA10>
10.08

>  <SlogP_VSA11>
0

>  <EState_VSA1>
34.33

>  <EState_VSA2>
35.62

>  <EState_VSA3>
10.59

>  <EState_VSA4>
22.69

>  <EState_VSA5>
10.97

>  <EState_VSA6>
45.04

>  <EState_VSA7>
0

>  <EState_VSA8>
5.32

>  <EState_VSA9>
23.2

>  <EState_VSA10>
22.4

>  <VSA_EState1>
39.54

>  <VSA_EState2>
27.74

>  <VSA_EState3>
2.93

>  <VSA_EState4>
0.63

>  <VSA_EState5>
-1.72

>  <VSA_EState6>
9.22

>  <VSA_EState7>
1.22

>  <VSA_EState8>
4.73

>  <VSA_EState9>
-3.95

>  <apol>
71.41

>  <bpol>
42.6

>  <nRing>
2

>  <nHRing>
0

>  <naRing>
2

>  <naHRing>
0

>  <nARing 2>
0

>  <nAHRing 2>
0

>  <nFRing>
0

>  <nFHRing>
0

>  <nFaRing>
0

>  <nFaHRing>
0

>  <nFARing 2>
0

>  <nFAHRing 2>
0

>  <nRot>
10

>  <SLogP>
4.23

>  <SMR>
132.96

>  <TopoPSA(NO)>
86.79

>  <TopoPSA>
95.17

>  <JGI1>
0.27

>  <JGI2>
0.1

>  <JGI3>
0.06

>  <JGI4>
0.05

>  <JGI5>
0.03

>  <Diameter>
13

>  <Radius>
7

>  <TMWC10>
146.37

>  <TSRW10>
70.06

>  <MW>
531.12

>  <AMW>
8.57

>  <WPath>
3315

>  <WPol>
54

>  <Zagreb1>
170

>  <Zagreb2>
195

>  <mZagreb2>
7.5

>  <yes>


>  <nAR-cont>
0.336376

>  <nHA-cont>
0.568589513

>  <MWHBN>
0.216957005

>  <MWHBN-cont>
0.99670276

>  <TPSA-cont>
0.335654303

>  <pka_cont>
0.97

>  <yes.1>


>  <BBB_SCORE>
3.556328259

>  <MMFF94 Energy>
13.268

$$$$
Compound 2147
Actelion Java MolfileCreator 2.0

  0  0  0  0  0  0              0 V3000
M  V30 BEGIN CTAB
M  V30 COUNTS 61 62 0 0 0
M  V30 BEGIN ATOM
M  V30 1 S 0.3178 0.3178 3.8989 0
M  V30 2 O -1.0794 0.2302 4.2688 0
M  V30 3 O 1.2096 -0.7751 4.2265 0
M  V30 4 N 0.4161 0.6718 2.2238 0
M  V30 5 C 0.976 1.7917 4.6564 0
M  V30 6 C 1.6994 0.3381 1.6292 0
M  V30 7 C -0.2992 1.894 1.678 0 CFG=1
M  V30 8 C 1.9518 -0.975 1.1929 0
M  V30 9 C 2.7066 1.3109 1.5366 0
M  V30 10 C -0.1443 1.9676 0.1469 0
M  V30 11 C -1.798 1.9214 2.0268 0
M  V30 12 C 3.219 -1.2838 0.6746 0
M  V30 13 C 0.9408 -2.0827 1.3074 0
M  V30 14 C 3.9567 1.0026 0.9861 0
M  V30 15 O 0.2739 2.9812 -0.4101 0
M  V30 16 N -0.5444 0.8421 -0.5341 0
M  V30 17 C -2.5729 3.0493 1.3509 0
M  V30 18 C 4.2091 -0.3058 0.5696 0
M  V30 19 C 5.0293 2.0481 0.9039 0
M  V30 20 C -0.4766 0.7301 -1.9784 0 CFG=2
M  V30 21 C -1.4188 -0.368 -2.437 0
M  V30 22 C 0.9626 0.5141 -2.4566 0
M  V30 23 C -1.1219 -1.7271 -2.2441 0
M  V30 24 C -2.6442 -0.0317 -3.0238 0
M  V30 25 C -2.0142 -2.7381 -2.6404 0
M  V30 26 C -3.5384 -1.0258 -3.4253 0
M  V30 27 C -3.2355 -2.3824 -3.2435 0
M  V30 28 C -1.6427 -4.1781 -2.4117 0
M  V30 29 C -4.2263 -3.4242 -3.6857 0
M  V30 30 H 2.0061 1.9398 4.3318 0
M  V30 31 H 0.9568 1.6413 5.7388 0
M  V30 32 H 0.3495 2.647 4.4018 0
M  V30 33 H 0.1824 2.792 2.0847 0
M  V30 34 H 2.5244 2.3258 1.8793 0
M  V30 35 H -2.271 0.9628 1.7821 0
M  V30 36 H -1.9192 2.0783 3.1026 0
M  V30 37 H 3.4447 -2.2988 0.3534 0
M  V30 38 H 1.0163 -2.7589 0.4488 0
M  V30 39 H 1.1159 -2.66 2.2202 0
M  V30 40 H -0.0859 -1.7065 1.3195 0
M  V30 41 H -0.8307 0.0326 0.0032 0
M  V30 42 H -2.6424 2.9032 0.2689 0
M  V30 43 H -3.5951 3.0865 1.742 0
M  V30 44 H -2.1021 4.0187 1.5433 0
M  V30 45 H 5.1818 -0.5767 0.1645 0
M  V30 46 H 5.7131 1.8431 0.0736 0
M  V30 47 H 5.6019 2.0706 1.8362 0
M  V30 48 H 4.5955 3.0384 0.7295 0
M  V30 49 H -0.8127 1.6879 -2.3966 0
M  V30 50 H 1.422 -0.3674 -1.9976 0
M  V30 51 H 0.9993 0.3878 -3.5441 0
M  V30 52 H 1.5931 1.3716 -2.1974 0
M  V30 53 H -0.1823 -2.0078 -1.7722 0
M  V30 54 H -2.9161 1.0115 -3.1716 0
M  V30 55 H -4.481 -0.7299 -3.8814 0
M  V30 56 H -0.6746 -4.269 -1.9075 0
M  V30 57 H -2.389 -4.668 -1.7782 0
M  V30 58 H -1.5688 -4.7072 -3.3669 0
M  V30 59 H -5.1003 -2.9702 -4.1649 0
M  V30 60 H -3.7686 -4.101 -4.414 0
M  V30 61 H -4.5822 -3.999 -2.8248 0
M  V30 END ATOM
M  V30 BEGIN BOND
M  V30 1 2 1 2
M  V30 2 2 1 3
M  V30 3 1 1 4
M  V30 4 1 1 5
M  V30 5 1 4 6
M  V30 6 1 4 7
M  V30 7 2 6 8
M  V30 8 1 6 9
M  V30 9 1 7 10
M  V30 10 1 7 11
M  V30 11 1 8 12
M  V30 12 1 8 13
M  V30 13 2 9 14
M  V30 14 2 10 15
M  V30 15 1 10 16
M  V30 16 1 11 17
M  V30 17 2 12 18
M  V30 18 1 14 19
M  V30 19 1 16 20
M  V30 20 1 20 21
M  V30 21 1 20 22
M  V30 22 2 21 23
M  V30 23 1 21 24
M  V30 24 1 23 25
M  V30 25 2 24 26
M  V30 26 2 25 27
M  V30 27 1 25 28
M  V30 28 1 27 29
M  V30 29 1 14 18
M  V30 30 1 26 27
M  V30 31 1 5 30
M  V30 32 1 5 31
M  V30 33 1 5 32
M  V30 34 1 7 33
M  V30 35 1 9 34
M  V30 36 1 11 35
M  V30 37 1 11 36
M  V30 38 1 12 37
M  V30 39 1 13 38
M  V30 40 1 13 39
M  V30 41 1 13 40
M  V30 42 1 16 41
M  V30 43 1 17 42
M  V30 44 1 17 43
M  V30 45 1 17 44
M  V30 46 1 18 45
M  V30 47 1 19 46
M  V30 48 1 19 47
M  V30 49 1 19 48
M  V30 50 1 20 49
M  V30 51 1 22 50
M  V30 52 1 22 51
M  V30 53 1 22 52
M  V30 54 1 23 53
M  V30 55 1 24 54
M  V30 56 1 26 55
M  V30 57 1 28 56
M  V30 58 1 28 57
M  V30 59 1 28 58
M  V30 60 1 29 59
M  V30 61 1 29 60
M  V30 62 1 29 61
M  V30 END BOND
M  V30 BEGIN COLLECTION
M  V30 MDLV30/STEABS ATOMS=(2 7 20)
M  V30 END COLLECTION
M  V30 END CTAB
M  END
>  <Column 1>
2640

>  <level_0>
3870

>  <index>
3870

>  <Unnamed: 0>
3870

>  <NO.>
3882

>  <Name>
saquinavir

>  <IUPAC_name>
(2r)-2-(2-5-dimethyl-n-methylsulfonylanilino)-n-[(1s)-1-(3-4-dimethylphenyl)ethyl]butanamide

>  <SMILES>
CC[C@H](C(=O)N[C@@H](C)c1ccc(C)c(C)c1)N(c1cc(C)ccc1C)S(C)(=O)=O

>  <CID>
100060787

>  <logBB>


>  <BBB+/BBB->
BBB-

>  <Inchi>
InChI=1S/C23H32N2O3S/c1-8-21(23(26)24-19(6)20-12-11-16(3)18(5)14-20)25(29(7-27)28)22-13-15(2)9-10-17(22)4/h9-14-19-21H-8H2-1-7H3-(H-24-26)/t19--21+/m0/s1

>  <threshold>
-1

>  <reference>
R16|R10|

>  <group>
B

>  <Class>
1

>  <ABC>
22.04

>  <ABCGG>
19.37

>  <nAcid>
0

>  <nBase>
0

>  <nAromAtom>
12

>  <nAromBond>
12

>  <nAtom>
61

>  <nHeavyAtom>
29

>  <nSpiro>
0

>  <nBridgehead>
0

>  <nHetero>
6

>  <nN>
2

>  <nO>
3

>  <nF>
0

>  <BalabanJ>
2.12

>  <BertzCT>
999.18

>  <nBonds>
62

>  <nBondsO>
30

>  <nBondsS>
47

>  <nBondsD>
3

>  <nBondsT>
0

>  <nBondsA>
12

>  <nBondsM>
15

>  <nBondsKS>
53

>  <nBondsKD>
9

>  <RNCG>
0.17

>  <RPCG>
0.12

>  <FCSP3>
0.43

>  <SZ>
37.33

>  <Sm>
34.68

>  <Sv>
36.52

>  <Sse>
60.6

>  <Sp>
40.27

>  <Si>
68.77

>  <MZ>
0.61

>  <Mm>
0.57

>  <Mv>
0.6

>  <Mse>
0.99

>  <Mp>
0.66

>  <Mi>
1.13

>  <NsCH3>
7

>  <NdCH2>
0

>  <NssCH2>
1

>  <NtCH>
0

>  <NdsCH>
0

>  <NaaCH>
6

>  <NsssCH>
2

>  <NddC>
0

>  <NtsC>
0

>  <NdssC>
1

>  <NaasC>
6

>  <NaaaC>
0

>  <NssssC>
0

>  <NsNH3>
0

>  <NsNH2>
0

>  <NssNH2>
0

>  <NdNH>
0

>  <NssNH>
1

>  <NaaNH>
0

>  <NtN>
0

>  <NsssNH>
0

>  <NdsN>
0

>  <NaaN>
0

>  <NsssN>
1

>  <NddsN>
0

>  <NaasN>
0

>  <NssssN>
0

>  <NsOH>
0

>  <NdO>
3

>  <NssO>
0

>  <NaaO>
0

>  <NsF>
0

>  <NsSiH3>
0

>  <NssSiH2>
0

>  <NsssSiH>
0

>  <NssssSi>
0

>  <NsPH2>
0

>  <NssPH>
0

>  <NsssP>
0

>  <NdsssP>
0

>  <NsssssP>
0

>  <NsSH>
0

>  <NdS>
0

>  <NssS>
0

>  <NaaS>
0

>  <NdssS>
0

>  <NddssS>
1

>  <NsCl>
0

>  <NsBr>
0

>  <NsI>
0

>  <fragCpx>
88.06

>  <fMF>
0.28

>  <nHBAcc>
3

>  <nHBDon>
1

>  <Kier1>
25.26

>  <Kier2>
10.54

>  <Lipinski>
1

>  <GhoseFilter>
1

>  <FilterItLogS>
-6.39

>  <VMcGowan>
337.03

>  <LabuteASA>
174.73

>  <PEOE_VSA1>
5.32

>  <PEOE_VSA2>
9.1

>  <PEOE_VSA3>
8.42

>  <PEOE_VSA4>
0

>  <PEOE_VSA5>
0

>  <PEOE_VSA6>
37.26

>  <PEOE_VSA7>
74.92

>  <PEOE_VSA8>
0

>  <PEOE_VSA9>
17.99

>  <PEOE_VSA10>
6.04

>  <PEOE_VSA11>
0

>  <PEOE_VSA12>
15.93

>  <PEOE_VSA13>
0

>  <SMR_VSA1>
13.21

>  <SMR_VSA2>
0

>  <SMR_VSA3>
5.32

>  <SMR_VSA4>
0

>  <SMR_VSA5>
60.05

>  <SMR_VSA6>
10.56

>  <SMR_VSA7>
64.22

>  <SMR_VSA8>
0

>  <SMR_VSA9>
0

>  <SlogP_VSA1>
9.62

>  <SlogP_VSA2>
26.62

>  <SlogP_VSA3>
14.82

>  <SlogP_VSA4>
27.69

>  <SlogP_VSA5>
54.13

>  <SlogP_VSA6>
36.4

>  <SlogP_VSA7>
0

>  <SlogP_VSA8>
0

>  <SlogP_VSA9>
0

>  <SlogP_VSA10>
5.69

>  <SlogP_VSA11>
0

>  <EState_VSA1>
16.07

>  <EState_VSA2>
11.95

>  <EState_VSA3>
12.11

>  <EState_VSA4>
28.51

>  <EState_VSA5>
9.87

>  <EState_VSA6>
0

>  <EState_VSA7>
71.87

>  <EState_VSA8>
11.38

>  <EState_VSA9>
0

>  <EState_VSA10>
13.21

>  <VSA_EState1>
26.63

>  <VSA_EState2>
13.15

>  <VSA_EState3>
3.01

>  <VSA_EState4>
5.65

>  <VSA_EState5>
-0.3

>  <VSA_EState6>
10.67

>  <VSA_EState7>
1.52

>  <VSA_EState8>
11.59

>  <VSA_EState9>
-3.65

>  <apol>
67.25

>  <bpol>
41.91

>  <nRing>
2

>  <nHRing>
0

>  <naRing>
2

>  <naHRing>
0

>  <nARing 2>
0

>  <nAHRing 2>
0

>  <nFRing>
0

>  <nFHRing>
0

>  <nFaRing>
0

>  <nFaHRing>
0

>  <nFARing 2>
0

>  <nFAHRing 2>
0

>  <nRot>
7

>  <SLogP>
4.34

>  <SMR>
119.79

>  <TopoPSA(NO)>
66.48

>  <TopoPSA>
74.86

>  <JGI1>
0.28

>  <JGI2>
0.11

>  <JGI3>
0.07

>  <JGI4>
0.06

>  <JGI5>
0.03

>  <Diameter>
13

>  <Radius>
7

>  <TMWC10>
135.6

>  <TSRW10>
64.52

>  <MW>
416.21

>  <AMW>
6.82

>  <WPath>
2214

>  <WPol>
48

>  <Zagreb1>
148

>  <Zagreb2>
172

>  <mZagreb2>
6.33

>  <yes>


>  <nAR-cont>
0.336376

>  <nHA-cont>
0.785905698

>  <MWHBN>
0.196066653

>  <MWHBN-cont>
0.998576349

>  <TPSA-cont>
0.477430715

>  <pka_cont>
0.97

>  <yes.1>


>  <BBB_SCORE>
4.060007651

>  <MMFF94 Energy>
15.928

$$$$
Compound 2148
Actelion Java MolfileCreator 2.0

  0  0  0  0  0  0              0 V3000
M  V30 BEGIN CTAB
M  V30 COUNTS 52 53 0 0 0
M  V30 BEGIN ATOM
M  V30 1 S -2.7032 1.9075 -1.3509 0
M  V30 2 C -1.1669 1.4256 -0.4993 0
M  V30 3 C -2.3908 1.1929 -2.9983 0
M  V30 4 C -1.042 2.0865 0.8497 0
M  V30 5 C -1.9451 -0.2581 -2.9178 0
M  V30 6 C -0.5098 3.3757 0.9707 0
M  V30 7 C -1.4659 1.4212 2.0084 0
M  V30 8 O -2.6915 -1.166 -2.5636 0
M  V30 9 N -0.617 -0.454 -3.2424 0
M  V30 10 C -0.3934 3.9759 2.227 0
M  V30 11 C -1.3488 2.0255 3.2652 0
M  V30 12 C 0.0525 -1.7301 -3.0212 0 CFG=2
M  V30 13 C -0.8103 3.3067 3.3796 0
M  V30 14 C 0.7527 -1.6586 -1.6729 0
M  V30 15 C 0.9709 -2.0563 -4.2124 0
M  V30 16 O -0.6386 4.0076 4.5418 0
M  V30 17 C 0.1532 -2.2618 -0.5547 0
M  V30 18 C 1.9333 -0.9305 -1.4824 0
M  V30 19 C 1.6005 -3.4396 -4.1159 0
M  V30 20 C -1.097 3.3883 5.7368 0
M  V30 21 C 0.7113 -2.1511 0.7297 0
M  V30 22 C 2.4993 -0.8146 -0.2112 0
M  V30 23 C 1.8977 -1.4149 0.9035 0
M  V30 24 C 0.011 -2.798 1.8933 0
M  V30 25 C 2.5242 -1.2449 2.2604 0
M  V30 26 H -0.3018 1.6945 -1.1152 0
M  V30 27 H -1.16 0.3413 -0.366 0
M  V30 28 H -1.6461 1.8073 -3.5134 0
M  V30 29 H -3.3138 1.2351 -3.585 0
M  V30 30 H -0.1863 3.9234 0.0892 0
M  V30 31 H -1.8938 0.4229 1.9376 0
M  V30 32 H -0.037 0.3399 -3.4748 0
M  V30 33 H 0.0212 4.9775 2.308 0
M  V30 34 H -1.6901 1.4678 4.1304 0
M  V30 35 H -0.7118 -2.5167 -2.9792 0
M  V30 36 H 1.7601 -1.3039 -4.3265 0
M  V30 37 H 0.3796 -2.0122 -5.1364 0
M  V30 38 H -0.7844 -2.8033 -0.6843 0
M  V30 39 H 2.4214 -0.4298 -2.3139 0
M  V30 40 H 2.2714 -3.5176 -3.2553 0
M  V30 41 H 2.1871 -3.6484 -5.0162 0
M  V30 42 H 0.8324 -4.2144 -4.0263 0
M  V30 43 H -2.1754 3.2018 5.6977 0
M  V30 44 H -0.9091 4.0791 6.5645 0
M  V30 45 H -0.5426 2.4665 5.9409 0
M  V30 46 H 3.4145 -0.2376 -0.0937 0
M  V30 47 H -0.8698 -3.3626 1.5699 0
M  V30 48 H 0.6807 -3.4999 2.3999 0
M  V30 49 H -0.3261 -2.0361 2.6034 0
M  V30 50 H 3.4414 -0.6486 2.2082 0
M  V30 51 H 1.8337 -0.7289 2.9353 0
M  V30 52 H 2.7895 -2.2193 2.6824 0
M  V30 END ATOM
M  V30 BEGIN BOND
M  V30 1 1 1 2
M  V30 2 1 1 3
M  V30 3 1 2 4
M  V30 4 1 3 5
M  V30 5 2 4 6
M  V30 6 1 4 7
M  V30 7 2 5 8
M  V30 8 1 5 9
M  V30 9 1 6 10
M  V30 10 2 7 11
M  V30 11 1 9 12
M  V30 12 2 10 13
M  V30 13 1 12 14
M  V30 14 1 12 15
M  V30 15 1 13 16
M  V30 16 2 14 17
M  V30 17 1 14 18
M  V30 18 1 15 19
M  V30 19 1 16 20
M  V30 20 1 17 21
M  V30 21 2 18 22
M  V30 22 2 21 23
M  V30 23 1 21 24
M  V30 24 1 23 25
M  V30 25 1 11 13
M  V30 26 1 22 23
M  V30 27 1 2 26
M  V30 28 1 2 27
M  V30 29 1 3 28
M  V30 30 1 3 29
M  V30 31 1 6 30
M  V30 32 1 7 31
M  V30 33 1 9 32
M  V30 34 1 10 33
M  V30 35 1 11 34
M  V30 36 1 12 35
M  V30 37 1 15 36
M  V30 38 1 15 37
M  V30 39 1 17 38
M  V30 40 1 18 39
M  V30 41 1 19 40
M  V30 42 1 19 41
M  V30 43 1 19 42
M  V30 44 1 20 43
M  V30 45 1 20 44
M  V30 46 1 20 45
M  V30 47 1 22 46
M  V30 48 1 24 47
M  V30 49 1 24 48
M  V30 50 1 24 49
M  V30 51 1 25 50
M  V30 52 1 25 51
M  V30 53 1 25 52
M  V30 END BOND
M  V30 BEGIN COLLECTION
M  V30 MDLV30/STEABS ATOMS=(1 12)
M  V30 END COLLECTION
M  V30 END CTAB
M  END
>  <Column 1>
2642

>  <level_0>
3872

>  <index>
3872

>  <Unnamed: 0>
3872

>  <NO.>
3884

>  <Name>
oxacillin

>  <IUPAC_name>
n-[(1s)-1-(3-4-dimethylphenyl)propyl]-2-[(4-methoxyphenyl)methylsulfanyl]acetamide

>  <SMILES>
CC[C@H](NC(=O)CSCc1ccc(OC)cc1)c1ccc(C)c(C)c1

>  <CID>
100004607

>  <logBB>


>  <BBB+/BBB->
BBB-

>  <Inchi>
InChI=1S/C21H27NO2S/c1-5-20(18-9-6-15(2)16(3)12-18)22-21(23)14-25-13-17-7-10-19(24-4)11-8-17/h6-12-20H-5-13-14H2-1-4H3-(H-22-23)/t20-/m0/s1

>  <threshold>
-1

>  <reference>
R16|R10|

>  <group>
B

>  <Class>
1

>  <ABC>
18.63

>  <ABCGG>
14.92

>  <nAcid>
0

>  <nBase>
0

>  <nAromAtom>
12

>  <nAromBond>
12

>  <nAtom>
52

>  <nHeavyAtom>
25

>  <nSpiro>
0

>  <nBridgehead>
0

>  <nHetero>
4

>  <nN>
1

>  <nO>
2

>  <nF>
0

>  <BalabanJ>
1.64

>  <BertzCT>
697.54

>  <nBonds>
53

>  <nBondsO>
26

>  <nBondsS>
40

>  <nBondsD>
1

>  <nBondsT>
0

>  <nBondsA>
12

>  <nBondsM>
13

>  <nBondsKS>
46

>  <nBondsKD>
7

>  <RNCG>
0.26

>  <RPCG>
0.12

>  <FCSP3>
0.38

>  <SZ>
32

>  <Sm>
29.77

>  <Sv>
31.69

>  <Sse>
51.39

>  <Sp>
35.14

>  <Si>
58.24

>  <MZ>
0.62

>  <Mm>
0.57

>  <Mv>
0.61

>  <Mse>
0.99

>  <Mp>
0.68

>  <Mi>
1.12

>  <NsCH3>
4

>  <NdCH2>
0

>  <NssCH2>
3

>  <NtCH>
0

>  <NdsCH>
0

>  <NaaCH>
7

>  <NsssCH>
1

>  <NddC>
0

>  <NtsC>
0

>  <NdssC>
1

>  <NaasC>
5

>  <NaaaC>
0

>  <NssssC>
0

>  <NsNH3>
0

>  <NsNH2>
0

>  <NssNH2>
0

>  <NdNH>
0

>  <NssNH>
1

>  <NaaNH>
0

>  <NtN>
0

>  <NsssNH>
0

>  <NdsN>
0

>  <NaaN>
0

>  <NsssN>
0

>  <NddsN>
0

>  <NaasN>
0

>  <NssssN>
0

>  <NsOH>
0

>  <NdO>
1

>  <NssO>
1

>  <NaaO>
0

>  <NsF>
0

>  <NsSiH3>
0

>  <NssSiH2>
0

>  <NsssSiH>
0

>  <NssssSi>
0

>  <NsPH2>
0

>  <NssPH>
0

>  <NsssP>
0

>  <NdsssP>
0

>  <NsssssP>
0

>  <NsSH>
0

>  <NdS>
0

>  <NssS>
1

>  <NaaS>
0

>  <NdssS>
0

>  <NddssS>
0

>  <NsCl>
0

>  <NsBr>
0

>  <NsI>
0

>  <fragCpx>
76.04

>  <fMF>
0.35

>  <nHBAcc>
3

>  <nHBDon>
1

>  <Kier1>
21.3

>  <Kier2>
10.98

>  <Lipinski>
1

>  <GhoseFilter>
1

>  <FilterItLogS>
-6.47

>  <VMcGowan>
293

>  <LabuteASA>
154.72

>  <PEOE_VSA1>
10.05

>  <PEOE_VSA2>
4.79

>  <PEOE_VSA3>
0

>  <PEOE_VSA4>
0

>  <PEOE_VSA5>
11.76

>  <PEOE_VSA6>
37.26

>  <PEOE_VSA7>
54.65

>  <PEOE_VSA8>
5.75

>  <PEOE_VSA9>
18.9

>  <PEOE_VSA10>
5.75

>  <PEOE_VSA11>
0

>  <PEOE_VSA12>
5.91

>  <PEOE_VSA13>
0

>  <SMR_VSA1>
9.53

>  <SMR_VSA2>
0

>  <SMR_VSA3>
5.32

>  <SMR_VSA4>
0

>  <SMR_VSA5>
38.99

>  <SMR_VSA6>
12.86

>  <SMR_VSA7>
64.72

>  <SMR_VSA8>
0

>  <SMR_VSA9>
5.75

>  <SlogP_VSA1>
10.05

>  <SlogP_VSA2>
18.77

>  <SlogP_VSA3>
10.55

>  <SlogP_VSA4>
13.85

>  <SlogP_VSA5>
41.64

>  <SlogP_VSA6>
42.46

>  <SlogP_VSA7>
0

>  <SlogP_VSA8>
0

>  <SlogP_VSA9>
0

>  <SlogP_VSA10>
0

>  <SlogP_VSA11>
5.75

>  <EState_VSA1>
0

>  <EState_VSA2>
11.95

>  <EState_VSA3>
5.75

>  <EState_VSA4>
17.92

>  <EState_VSA5>
22.25

>  <EState_VSA6>
18.87

>  <EState_VSA7>
24.27

>  <EState_VSA8>
44.29

>  <EState_VSA9>
4.74

>  <EState_VSA10>
4.79

>  <VSA_EState1>
5.15

>  <VSA_EState2>
12.28

>  <VSA_EState3>
3.15

>  <VSA_EState4>
4.91

>  <VSA_EState5>
2.22

>  <VSA_EState6>
14.45

>  <VSA_EState7>
0.89

>  <VSA_EState8>
6.32

>  <VSA_EState9>
1.66

>  <apol>
58.68

>  <bpol>
32.72

>  <nRing>
2

>  <nHRing>
0

>  <naRing>
2

>  <naHRing>
0

>  <nARing 2>
0

>  <nAHRing 2>
0

>  <nFRing>
0

>  <nFHRing>
0

>  <nFaRing>
0

>  <nFaHRing>
0

>  <nFARing 2>
0

>  <nFAHRing 2>
0

>  <nRot>
8

>  <SLogP>
4.81

>  <SMR>
106.25

>  <TopoPSA(NO)>
38.33

>  <TopoPSA>
63.63

>  <JGI1>
0.21

>  <JGI2>
0.08

>  <JGI3>
0.03

>  <JGI4>
0.04

>  <JGI5>
0.03

>  <Diameter>
16

>  <Radius>
8

>  <TMWC10>
123.87

>  <TSRW10>
58.99

>  <MW>
357.18

>  <AMW>
6.87

>  <WPath>
1826

>  <WPol>
35

>  <Zagreb1>
120

>  <Zagreb2>
135

>  <mZagreb2>
5.81

>  <yes>


>  <nAR-cont>
0.336376

>  <nHA-cont>
0.921834225

>  <MWHBN>
0.211649099

>  <MWHBN-cont>
0.998872391

>  <TPSA-cont>
0.555823088

>  <pka_cont>
0.97

>  <yes.1>


>  <BBB_SCORE>
4.353164987

>  <MMFF94 Energy>
50.323

$$$$
Compound 2149
Actelion Java MolfileCreator 2.0

  0  0  0  0  0  0              0 V3000
M  V30 BEGIN CTAB
M  V30 COUNTS 53 54 0 0 0
M  V30 BEGIN ATOM
M  V30 1 S -2.2275 1.5111 -0.0794 0
M  V30 2 C -2.6271 0.4874 1.3961 0 CFG=1
M  V30 3 C -3.5156 2.7855 0.0931 0
M  V30 4 C -2.0366 -0.919 1.2528 0
M  V30 5 C -2.0884 1.1356 2.6654 0
M  V30 6 C -3.4674 3.769 -1.0482 0
M  V30 7 O -2.6397 -1.9127 1.6533 0
M  V30 8 N -0.7658 -0.9744 0.7294 0
M  V30 9 C -2.6837 4.929 -0.9579 0
M  V30 10 C -4.1865 3.5276 -2.2283 0
M  V30 11 C -0.0308 -2.2154 0.5641 0 CFG=2
M  V30 12 C -2.6336 5.8347 -2.0189 0
M  V30 13 C -4.1346 4.4347 -3.2879 0
M  V30 14 C 1.4693 -1.9695 0.4946 0
M  V30 15 C -0.5597 -3.0742 -0.6039 0
M  V30 16 C -3.3603 5.5885 -3.1821 0
M  V30 17 C 2.3329 -2.7527 1.2819 0
M  V30 18 C 2.0328 -0.9941 -0.3385 0
M  V30 19 C -0.5547 -2.4037 -1.9721 0
M  V30 20 C 3.7213 -2.5641 1.2474 0
M  V30 21 C 3.4166 -0.7985 -0.382 0
M  V30 22 O 4.6214 -3.289 1.9896 0
M  V30 23 C 4.2683 -1.5763 0.4064 0
M  V30 24 C 4.1095 -4.286 2.8614 0
M  V30 25 O 5.6355 -1.4528 0.4278 0
M  V30 26 C 6.2221 -0.4749 -0.4182 0
M  V30 27 H -3.7154 0.375 1.4531 0
M  V30 28 H -3.3853 3.3196 1.0401 0
M  V30 29 H -4.5007 2.3065 0.1234 0
M  V30 30 H -2.5588 2.1046 2.8588 0
M  V30 31 H -1.0028 1.2807 2.6222 0
M  V30 32 H -2.2899 0.497 3.5333 0
M  V30 33 H -0.3787 -0.1096 0.3702 0
M  V30 34 H -2.1031 5.1316 -0.0606 0
M  V30 35 H -4.7878 2.6267 -2.3306 0
M  V30 36 H -0.2262 -2.7903 1.4801 0
M  V30 37 H -2.0238 6.7309 -1.9394 0
M  V30 38 H -4.6953 4.2384 -4.1981 0
M  V30 39 H -1.5938 -3.3692 -0.3855 0
M  V30 40 H 0.0189 -4.0044 -0.667 0
M  V30 41 H -3.3188 6.2929 -4.0087 0
M  V30 42 H 1.8947 -3.5119 1.9228 0
M  V30 43 H 1.4038 -0.3755 -0.9754 0
M  V30 44 H -1.091 -1.4503 -1.9571 0
M  V30 45 H -1.0493 -3.0518 -2.7033 0
M  V30 46 H 0.4626 -2.2292 -2.3316 0
M  V30 47 H 3.797 -0.0299 -1.0464 0
M  V30 48 H 3.4619 -3.8471 3.6275 0
M  V30 49 H 4.9582 -4.7515 3.3719 0
M  V30 50 H 3.5884 -5.07 2.3022 0
M  V30 51 H 6.0153 -0.6884 -1.4721 0
M  V30 52 H 7.3064 -0.5182 -0.2777 0
M  V30 53 H 5.8922 0.5329 -0.1455 0
M  V30 END ATOM
M  V30 BEGIN BOND
M  V30 1 1 1 2
M  V30 2 1 1 3
M  V30 3 1 2 4
M  V30 4 1 2 5
M  V30 5 1 3 6
M  V30 6 2 4 7
M  V30 7 1 4 8
M  V30 8 2 6 9
M  V30 9 1 6 10
M  V30 10 1 8 11
M  V30 11 1 9 12
M  V30 12 2 10 13
M  V30 13 1 11 14
M  V30 14 1 11 15
M  V30 15 2 12 16
M  V30 16 2 14 17
M  V30 17 1 14 18
M  V30 18 1 15 19
M  V30 19 1 17 20
M  V30 20 2 18 21
M  V30 21 1 20 22
M  V30 22 2 20 23
M  V30 23 1 22 24
M  V30 24 1 23 25
M  V30 25 1 25 26
M  V30 26 1 13 16
M  V30 27 1 21 23
M  V30 28 1 2 27
M  V30 29 1 3 28
M  V30 30 1 3 29
M  V30 31 1 5 30
M  V30 32 1 5 31
M  V30 33 1 5 32
M  V30 34 1 8 33
M  V30 35 1 9 34
M  V30 36 1 10 35
M  V30 37 1 11 36
M  V30 38 1 12 37
M  V30 39 1 13 38
M  V30 40 1 15 39
M  V30 41 1 15 40
M  V30 42 1 16 41
M  V30 43 1 17 42
M  V30 44 1 18 43
M  V30 45 1 19 44
M  V30 46 1 19 45
M  V30 47 1 19 46
M  V30 48 1 21 47
M  V30 49 1 24 48
M  V30 50 1 24 49
M  V30 51 1 24 50
M  V30 52 1 26 51
M  V30 53 1 26 52
M  V30 54 1 26 53
M  V30 END BOND
M  V30 BEGIN COLLECTION
M  V30 MDLV30/STEABS ATOMS=(2 2 11)
M  V30 END COLLECTION
M  V30 END CTAB
M  END
>  <Column 1>
2643

>  <level_0>
3873

>  <index>
3873

>  <Unnamed: 0>
3873

>  <NO.>
3885

>  <Name>
desipramine

>  <IUPAC_name>
(2r)-2-benzylsulfanyl-n-[(1s)-1-(3-4-dimethoxyphenyl)propyl]propanamide

>  <SMILES>
CC[C@H](NC(=O)[C@@H](C)SCc1ccccc1)c1ccc(OC)c(OC)c1

>  <CID>
100002995

>  <logBB>


>  <BBB+/BBB->
BBB+

>  <Inchi>
InChI=1S/C21H27NO3S/c1-5-18(17-11-12-19(24-3)20(13-17)25-4)22-21(23)15(2)26-14-16-9-7-6-8-10-16/h6-13-15-18H-5-14H2-1-4H3-(H-22-23)/t15--18+/m1/s1

>  <threshold>
-1

>  <reference>
R16|R16|R10|R10|

>  <group>
B

>  <Class>
1

>  <ABC>
19.19

>  <ABCGG>
16.02

>  <nAcid>
0

>  <nBase>
0

>  <nAromAtom>
12

>  <nAromBond>
12

>  <nAtom>
53

>  <nHeavyAtom>
26

>  <nSpiro>
0

>  <nBridgehead>
0

>  <nHetero>
5

>  <nN>
1

>  <nO>
3

>  <nF>
0

>  <BalabanJ>
1.78

>  <BertzCT>
705.66

>  <nBonds>
54

>  <nBondsO>
27

>  <nBondsS>
41

>  <nBondsD>
1

>  <nBondsT>
0

>  <nBondsA>
12

>  <nBondsM>
13

>  <nBondsKS>
47

>  <nBondsKD>
7

>  <RNCG>
0.21

>  <RPCG>
0.1

>  <FCSP3>
0.38

>  <SZ>
33.33

>  <Sm>
31.1

>  <Sv>
32.4

>  <Sse>
52.72

>  <Sp>
35.62

>  <Si>
59.45

>  <MZ>
0.63

>  <Mm>
0.59

>  <Mv>
0.61

>  <Mse>
0.99

>  <Mp>
0.67

>  <Mi>
1.12

>  <NsCH3>
4

>  <NdCH2>
0

>  <NssCH2>
2

>  <NtCH>
0

>  <NdsCH>
0

>  <NaaCH>
8

>  <NsssCH>
2

>  <NddC>
0

>  <NtsC>
0

>  <NdssC>
1

>  <NaasC>
4

>  <NaaaC>
0

>  <NssssC>
0

>  <NsNH3>
0

>  <NsNH2>
0

>  <NssNH2>
0

>  <NdNH>
0

>  <NssNH>
1

>  <NaaNH>
0

>  <NtN>
0

>  <NsssNH>
0

>  <NdsN>
0

>  <NaaN>
0

>  <NsssN>
0

>  <NddsN>
0

>  <NaasN>
0

>  <NssssN>
0

>  <NsOH>
0

>  <NdO>
1

>  <NssO>
2

>  <NaaO>
0

>  <NsF>
0

>  <NsSiH3>
0

>  <NssSiH2>
0

>  <NsssSiH>
0

>  <NssssSi>
0

>  <NsPH2>
0

>  <NssPH>
0

>  <NsssP>
0

>  <NdsssP>
0

>  <NsssssP>
0

>  <NsSH>
0

>  <NdS>
0

>  <NssS>
1

>  <NaaS>
0

>  <NdssS>
0

>  <NddssS>
0

>  <NsCl>
0

>  <NsBr>
0

>  <NsI>
0

>  <fragCpx>
79.05

>  <fMF>
0.34

>  <nHBAcc>
4

>  <nHBDon>
1

>  <Kier1>
22.29

>  <Kier2>
11.76

>  <Lipinski>
1

>  <GhoseFilter>
1

>  <FilterItLogS>
-5.69

>  <VMcGowan>
298.87

>  <LabuteASA>
159.83

>  <PEOE_VSA1>
14.79

>  <PEOE_VSA2>
4.79

>  <PEOE_VSA3>
0

>  <PEOE_VSA4>
0

>  <PEOE_VSA5>
11.76

>  <PEOE_VSA6>
43.32

>  <PEOE_VSA7>
36.6

>  <PEOE_VSA8>
5.75

>  <PEOE_VSA9>
25.51

>  <PEOE_VSA10>
0

>  <PEOE_VSA11>
11.5

>  <PEOE_VSA12>
5.91

>  <PEOE_VSA13>
0

>  <SMR_VSA1>
14.27

>  <SMR_VSA2>
0

>  <SMR_VSA3>
5.32

>  <SMR_VSA4>
0

>  <SMR_VSA5>
37.31

>  <SMR_VSA6>
14.22

>  <SMR_VSA7>
59.66

>  <SMR_VSA8>
0

>  <SMR_VSA9>
11.5

>  <SlogP_VSA1>
14.79

>  <SlogP_VSA2>
25.38

>  <SlogP_VSA3>
10.55

>  <SlogP_VSA4>
0

>  <SlogP_VSA5>
37.44

>  <SlogP_VSA6>
48.53

>  <SlogP_VSA7>
0

>  <SlogP_VSA8>
0

>  <SlogP_VSA9>
0

>  <SlogP_VSA10>
0

>  <SlogP_VSA11>
11.5

>  <EState_VSA1>
0

>  <EState_VSA2>
17.2

>  <EState_VSA3>
11.5

>  <EState_VSA4>
17.74

>  <EState_VSA5>
5.56

>  <EState_VSA6>
25.98

>  <EState_VSA7>
43.32

>  <EState_VSA8>
24.37

>  <EState_VSA9>
9.47

>  <EState_VSA10>
4.79

>  <VSA_EState1>
10.65

>  <VSA_EState2>
12.6

>  <VSA_EState3>
3.03

>  <VSA_EState4>
2.24

>  <VSA_EState5>
2.23

>  <VSA_EState6>
15.91

>  <VSA_EState7>
0.8

>  <VSA_EState8>
4.01

>  <VSA_EState9>
3.23

>  <apol>
59.48

>  <bpol>
34.46

>  <nRing>
2

>  <nHRing>
0

>  <naRing>
2

>  <naHRing>
0

>  <nARing 2>
0

>  <nAHRing 2>
0

>  <nFRing>
0

>  <nFHRing>
0

>  <nFaRing>
0

>  <nFaHRing>
0

>  <nFARing 2>
0

>  <nFAHRing 2>
0

>  <nRot>
9

>  <SLogP>
4.59

>  <SMR>
107.92

>  <TopoPSA(NO)>
47.56

>  <TopoPSA>
72.86

>  <JGI1>
0.19

>  <JGI2>
0.09

>  <JGI3>
0.03

>  <JGI4>
0.04

>  <JGI5>
0.03

>  <Diameter>
15

>  <Radius>
8

>  <TMWC10>
126.48

>  <TSRW10>
60.21

>  <MW>
373.17

>  <AMW>
7.04

>  <WPath>
1901

>  <WPol>
38

>  <Zagreb1>
124

>  <Zagreb2>
141

>  <mZagreb2>
6.17

>  <yes>


>  <nAR-cont>
0.336376

>  <nHA-cont>
0.892715677

>  <MWHBN>
0.25883121

>  <MWHBN-cont>
0.943719329

>  <TPSA-cont>
0.491391957

>  <pka_cont>
0.97

>  <yes.1>


>  <BBB_SCORE>
4.112454585

>  <MMFF94 Energy>
67.076

$$$$
Compound 2150
Actelion Java MolfileCreator 2.0

  0  0  0  0  0  0              0 V3000
M  V30 BEGIN CTAB
M  V30 COUNTS 51 52 0 0 0
M  V30 BEGIN ATOM
M  V30 1 S 2.9166 -1.7816 3.9715 0
M  V30 2 O 3.1399 -0.392 4.3249 0
M  V30 3 O 2.2751 -2.6907 4.9019 0
M  V30 4 C 1.9787 -1.805 2.4639 0
M  V30 5 C 4.472 -2.4864 3.4926 0
M  V30 6 C 1.1963 -2.9174 2.153 0
M  V30 7 C 2.0004 -0.6916 1.6244 0
M  V30 8 C 0.445 -2.9208 0.9756 0
M  V30 9 C 1.2428 -0.7005 0.4523 0
M  V30 10 C 0.4556 -1.8132 0.1097 0
M  V30 11 C -0.3867 -1.8425 -1.1587 0 CFG=1
M  V30 12 N -1.1993 -0.6432 -1.2711 0
M  V30 13 C 0.4509 -2.1419 -2.4213 0
M  V30 14 C -2.278 -0.5506 -2.1286 0
M  V30 15 C 1.3711 -1.0204 -2.8878 0
M  V30 16 O -2.5929 -1.4468 -2.9061 0
M  V30 17 C -2.9986 0.8001 -2.059 0 CFG=2
M  V30 18 S -3.7131 1.0128 -0.3778 0
M  V30 19 C -4.1104 0.9117 -3.0934 0
M  V30 20 C -3.2381 2.7391 -0.0569 0
M  V30 21 C -1.7794 2.8803 0.3016 0
M  V30 22 C -1.2985 2.3997 1.5297 0
M  V30 23 C -0.8814 3.5042 -0.5761 0
M  V30 24 C 0.0464 2.5432 1.8721 0
M  V30 25 C 0.4651 3.6421 -0.2339 0
M  V30 26 C 0.9277 3.1645 0.9904 0
M  V30 27 H 4.9219 -1.8641 2.7168 0
M  V30 28 H 4.3067 -3.5022 3.1288 0
M  V30 29 H 5.119 -2.5081 4.3721 0
M  V30 30 H 1.1538 -3.7762 2.8196 0
M  V30 31 H 2.5881 0.1885 1.8756 0
M  V30 32 H -0.1653 -3.7926 0.7439 0
M  V30 33 H 1.2632 0.1789 -0.1888 0
M  V30 34 H -1.1056 -2.6678 -1.0594 0
M  V30 35 H -1.1033 0.0783 -0.5641 0
M  V30 36 H -0.2264 -2.3761 -3.2513 0
M  V30 37 H 1.0527 -3.0447 -2.2571 0
M  V30 38 H 0.8275 -0.0809 -3.0244 0
M  V30 39 H 1.8205 -1.2875 -3.8501 0
M  V30 40 H 2.1916 -0.8533 -2.1853 0
M  V30 41 H -2.2488 1.572 -2.2578 0
M  V30 42 H -4.5979 1.8919 -3.0533 0
M  V30 43 H -4.8746 0.1375 -2.9586 0
M  V30 44 H -3.7042 0.7884 -4.1037 0
M  V30 45 H -3.8424 3.1102 0.7788 0
M  V30 46 H -3.5001 3.3573 -0.9226 0
M  V30 47 H -1.974 1.9139 2.2324 0
M  V30 48 H -1.2245 3.8973 -1.5308 0
M  V30 49 H 0.4049 2.1716 2.8298 0
M  V30 50 H 1.1522 4.1335 -0.9183 0
M  V30 51 H 1.9736 3.2817 1.2621 0
M  V30 END ATOM
M  V30 BEGIN BOND
M  V30 1 2 1 2
M  V30 2 2 1 3
M  V30 3 1 1 4
M  V30 4 1 1 5
M  V30 5 2 4 6
M  V30 6 1 4 7
M  V30 7 1 6 8
M  V30 8 2 7 9
M  V30 9 2 8 10
M  V30 10 1 10 11
M  V30 11 1 11 12
M  V30 12 1 11 13
M  V30 13 1 12 14
M  V30 14 1 13 15
M  V30 15 2 14 16
M  V30 16 1 14 17
M  V30 17 1 17 18
M  V30 18 1 17 19
M  V30 19 1 18 20
M  V30 20 1 20 21
M  V30 21 2 21 22
M  V30 22 1 21 23
M  V30 23 1 22 24
M  V30 24 2 23 25
M  V30 25 2 24 26
M  V30 26 1 9 10
M  V30 27 1 25 26
M  V30 28 1 5 27
M  V30 29 1 5 28
M  V30 30 1 5 29
M  V30 31 1 6 30
M  V30 32 1 7 31
M  V30 33 1 8 32
M  V30 34 1 9 33
M  V30 35 1 11 34
M  V30 36 1 12 35
M  V30 37 1 13 36
M  V30 38 1 13 37
M  V30 39 1 15 38
M  V30 40 1 15 39
M  V30 41 1 15 40
M  V30 42 1 17 41
M  V30 43 1 19 42
M  V30 44 1 19 43
M  V30 45 1 19 44
M  V30 46 1 20 45
M  V30 47 1 20 46
M  V30 48 1 22 47
M  V30 49 1 23 48
M  V30 50 1 24 49
M  V30 51 1 25 50
M  V30 52 1 26 51
M  V30 END BOND
M  V30 BEGIN COLLECTION
M  V30 MDLV30/STEABS ATOMS=(2 11 17)
M  V30 END COLLECTION
M  V30 END CTAB
M  END
>  <Column 1>
2644

>  <level_0>
3874

>  <index>
3874

>  <Unnamed: 0>
3874

>  <NO.>
3886

>  <Name>
amphetamine

>  <IUPAC_name>
(2r)-2-benzylsulfanyl-n-[(1s)-1-(4-methylsulfonylphenyl)propyl]propanamide

>  <SMILES>
CC[C@H](NC(=O)[C@@H](C)SCc1ccccc1)c1ccc(S(C)(=O)=O)cc1

>  <CID>
100003007

>  <logBB>


>  <BBB+/BBB->
BBB+

>  <Inchi>
InChI=1S/C20H25NO3S2/c1-4-19(17-10-12-18(13-11-17)26(3-23)24)21-20(22)15(2)25-14-16-8-6-5-7-9-16/h5-13-15-19H-4-14H2-1-3H3-(H-21-22)/t15--19+/m1/s1

>  <threshold>
-1

>  <reference>
R16|R16|R10|R10|

>  <group>
B

>  <Class>
1

>  <ABC>
19.64

>  <ABCGG>
16.01

>  <nAcid>
0

>  <nBase>
0

>  <nAromAtom>
12

>  <nAromBond>
12

>  <nAtom>
51

>  <nHeavyAtom>
26

>  <nSpiro>
0

>  <nBridgehead>
0

>  <nHetero>
6

>  <nN>
1

>  <nO>
3

>  <nF>
0

>  <BalabanJ>
1.73

>  <BertzCT>
817.89

>  <nBonds>
52

>  <nBondsO>
27

>  <nBondsS>
37

>  <nBondsD>
3

>  <nBondsT>
0

>  <nBondsA>
12

>  <nBondsM>
15

>  <nBondsKS>
43

>  <nBondsKD>
9

>  <RNCG>
0.18

>  <RPCG>
0.12

>  <FCSP3>
0.35

>  <SZ>
34.67

>  <Sm>
32.6

>  <Sv>
32.05

>  <Sse>
50.91

>  <Sp>
35.55

>  <Si>
56.95

>  <MZ>
0.68

>  <Mm>
0.64

>  <Mv>
0.63

>  <Mse>
1

>  <Mp>
0.7

>  <Mi>
1.12

>  <NsCH3>
3

>  <NdCH2>
0

>  <NssCH2>
2

>  <NtCH>
0

>  <NdsCH>
0

>  <NaaCH>
9

>  <NsssCH>
2

>  <NddC>
0

>  <NtsC>
0

>  <NdssC>
1

>  <NaasC>
3

>  <NaaaC>
0

>  <NssssC>
0

>  <NsNH3>
0

>  <NsNH2>
0

>  <NssNH2>
0

>  <NdNH>
0

>  <NssNH>
1

>  <NaaNH>
0

>  <NtN>
0

>  <NsssNH>
0

>  <NdsN>
0

>  <NaaN>
0

>  <NsssN>
0

>  <NddsN>
0

>  <NaasN>
0

>  <NssssN>
0

>  <NsOH>
0

>  <NdO>
3

>  <NssO>
0

>  <NaaO>
0

>  <NsF>
0

>  <NsSiH3>
0

>  <NssSiH2>
0

>  <NsssSiH>
0

>  <NssssSi>
0

>  <NsPH2>
0

>  <NssPH>
0

>  <NsssP>
0

>  <NdsssP>
0

>  <NsssssP>
0

>  <NsSH>
0

>  <NdS>
0

>  <NssS>
1

>  <NaaS>
0

>  <NdssS>
0

>  <NddssS>
1

>  <NsCl>
0

>  <NsBr>
0

>  <NsI>
0

>  <fragCpx>
79.06

>  <fMF>
0.35

>  <nHBAcc>
4

>  <nHBDon>
1

>  <Kier1>
22.29

>  <Kier2>
10.52

>  <Lipinski>
1

>  <GhoseFilter>
1

>  <FilterItLogS>
-5.59

>  <VMcGowan>
301.13

>  <LabuteASA>
159.87

>  <PEOE_VSA1>
5.32

>  <PEOE_VSA2>
4.79

>  <PEOE_VSA3>
8.42

>  <PEOE_VSA4>
0

>  <PEOE_VSA5>
11.76

>  <PEOE_VSA6>
49.39

>  <PEOE_VSA7>
36.6

>  <PEOE_VSA8>
12.01

>  <PEOE_VSA9>
16.19

>  <PEOE_VSA10>
0

>  <PEOE_VSA11>
9.84

>  <PEOE_VSA12>
5.91

>  <PEOE_VSA13>
0

>  <SMR_VSA1>
13.21

>  <SMR_VSA2>
0

>  <SMR_VSA3>
5.32

>  <SMR_VSA4>
0

>  <SMR_VSA5>
42.21

>  <SMR_VSA6>
6.26

>  <SMR_VSA7>
65.72

>  <SMR_VSA8>
0

>  <SMR_VSA9>
0

>  <SlogP_VSA1>
5.32

>  <SlogP_VSA2>
25.83

>  <SlogP_VSA3>
20.38

>  <SlogP_VSA4>
0

>  <SlogP_VSA5>
37.44

>  <SlogP_VSA6>
59.49

>  <SlogP_VSA7>
0

>  <SlogP_VSA8>
0

>  <SlogP_VSA9>
0

>  <SlogP_VSA10>
0

>  <SlogP_VSA11>
0

>  <EState_VSA1>
9.84

>  <EState_VSA2>
22.09

>  <EState_VSA3>
0

>  <EState_VSA4>
17.74

>  <EState_VSA5>
11.82

>  <EState_VSA6>
36.03

>  <EState_VSA7>
32.05

>  <EState_VSA8>
17.45

>  <EState_VSA9>
0

>  <EState_VSA10>
13.21

>  <VSA_EState1>
23.13

>  <VSA_EState2>
12.79

>  <VSA_EState3>
2.9

>  <VSA_EState4>
2.11

>  <VSA_EState5>
0.78

>  <VSA_EState6>
16.66

>  <VSA_EState7>
1.92

>  <VSA_EState8>
3.9

>  <VSA_EState9>
-3.21

>  <apol>
59.38

>  <bpol>
35.63

>  <nRing>
2

>  <nHRing>
0

>  <naRing>
2

>  <naHRing>
0

>  <nARing 2>
0

>  <nAHRing 2>
0

>  <nFRing>
0

>  <nFHRing>
0

>  <nFaRing>
0

>  <nFaHRing>
0

>  <nFARing 2>
0

>  <nFAHRing 2>
0

>  <nRot>
8

>  <SLogP>
3.98

>  <SMR>
107.93

>  <TopoPSA(NO)>
63.24

>  <TopoPSA>
96.92

>  <JGI1>
0.24

>  <JGI2>
0.1

>  <JGI3>
0.04

>  <JGI4>
0.04

>  <JGI5>
0.04

>  <Diameter>
15

>  <Radius>
8

>  <TMWC10>
126.77

>  <TSRW10>
60.45

>  <MW>
391.13

>  <AMW>
7.67

>  <WPath>
1946

>  <WPol>
37

>  <Zagreb1>
128

>  <Zagreb2>
144

>  <mZagreb2>
5.81

>  <yes>


>  <nAR-cont>
0.336376

>  <nHA-cont>
0.892715677

>  <MWHBN>
0.252818843

>  <MWHBN-cont>
0.954912638

>  <TPSA-cont>
0.323438216

>  <pka_cont>
0.97

>  <yes.1>


>  <BBB_SCORE>
3.793337067

>  <MMFF94 Energy>
67.279

$$$$
Compound 2151
Actelion Java MolfileCreator 2.0

  0  0  0  0  0  0              0 V3000
M  V30 BEGIN CTAB
M  V30 COUNTS 51 52 0 0 0
M  V30 BEGIN ATOM
M  V30 1 S 2.2666 -0.9709 3.4014 0
M  V30 2 O 2.6361 0.4126 3.6371 0
M  V30 3 O 1.3279 -1.6456 4.2781 0
M  V30 4 C 1.6438 -1.0892 1.7438 0
M  V30 5 C 3.7539 -1.9348 3.3425 0
M  V30 6 C 2.0094 -0.1272 0.8028 0
M  V30 7 C 0.7489 -2.1059 1.4122 0
M  V30 8 C 1.4757 -0.1879 -0.4857 0
M  V30 9 C 0.2278 -2.1656 0.1181 0
M  V30 10 C 0.5814 -1.2088 -0.85 0
M  V30 11 C -0.0694 -1.2604 -2.2251 0 CFG=1
M  V30 12 N -0.7716 -0.0166 -2.4911 0
M  V30 13 C 0.8709 -1.661 -3.3774 0
M  V30 14 C -2.1294 0.1181 -2.3006 0
M  V30 15 C 1.9656 -0.6688 -3.7455 0
M  V30 16 O -2.875 -0.8327 -2.0706 0
M  V30 17 C -2.6815 1.5353 -2.4556 0 CFG=1
M  V30 18 S -1.6497 2.7789 -1.5727 0
M  V30 19 C -2.7394 1.9051 -3.934 0
M  V30 20 C -1.6073 2.1861 0.1161 0
M  V30 21 C -2.561 1.34 0.6865 0
M  V30 22 C -0.5429 2.6253 0.9146 0
M  V30 23 C -2.4288 0.9068 2.011 0
M  V30 24 C -0.4123 2.1982 2.24 0
M  V30 25 C -1.3468 1.3206 2.7934 0
M  V30 26 C -1.2224 0.8582 4.2148 0
M  V30 27 H 4.4361 -1.4943 2.6131 0
M  V30 28 H 3.5033 -2.9615 3.0696 0
M  V30 29 H 4.2094 -1.9156 4.335 0
M  V30 30 H 2.6758 0.6901 1.0689 0
M  V30 31 H 0.4309 -2.8364 2.1527 0
M  V30 32 H 1.7394 0.5964 -1.1904 0
M  V30 33 H -0.4916 -2.9476 -0.1213 0
M  V30 34 H -0.8282 -2.0532 -2.1896 0
M  V30 35 H -0.233 0.8353 -2.5836 0
M  V30 36 H 0.2585 -1.8204 -4.2747 0
M  V30 37 H 1.3398 -2.6254 -3.1448 0
M  V30 38 H 1.5628 0.3294 -3.9387 0
M  V30 39 H 2.4739 -1.0023 -4.6565 0
M  V30 40 H 2.7257 -0.5993 -2.9633 0
M  V30 41 H -3.6952 1.5666 -2.0429 0
M  V30 42 H -3.1949 2.8906 -4.0814 0
M  V30 43 H -1.7469 1.9098 -4.3991 0
M  V30 44 H -3.346 1.1766 -4.4842 0
M  V30 45 H -3.4253 0.9928 0.1297 0
M  V30 46 H 0.207 3.3018 0.5114 0
M  V30 47 H -3.1792 0.2381 2.4275 0
M  V30 48 H 0.432 2.5459 2.832 0
M  V30 49 H -1.9527 1.3781 4.8427 0
M  V30 50 H -1.3951 -0.2207 4.2817 0
M  V30 51 H -0.2225 1.057 4.6134 0
M  V30 END ATOM
M  V30 BEGIN BOND
M  V30 1 2 1 2
M  V30 2 2 1 3
M  V30 3 1 1 4
M  V30 4 1 1 5
M  V30 5 2 4 6
M  V30 6 1 4 7
M  V30 7 1 6 8
M  V30 8 2 7 9
M  V30 9 2 8 10
M  V30 10 1 10 11
M  V30 11 1 11 12
M  V30 12 1 11 13
M  V30 13 1 12 14
M  V30 14 1 13 15
M  V30 15 2 14 16
M  V30 16 1 14 17
M  V30 17 1 17 18
M  V30 18 1 17 19
M  V30 19 1 18 20
M  V30 20 2 20 21
M  V30 21 1 20 22
M  V30 22 1 21 23
M  V30 23 2 22 24
M  V30 24 2 23 25
M  V30 25 1 25 26
M  V30 26 1 9 10
M  V30 27 1 24 25
M  V30 28 1 5 27
M  V30 29 1 5 28
M  V30 30 1 5 29
M  V30 31 1 6 30
M  V30 32 1 7 31
M  V30 33 1 8 32
M  V30 34 1 9 33
M  V30 35 1 11 34
M  V30 36 1 12 35
M  V30 37 1 13 36
M  V30 38 1 13 37
M  V30 39 1 15 38
M  V30 40 1 15 39
M  V30 41 1 15 40
M  V30 42 1 17 41
M  V30 43 1 19 42
M  V30 44 1 19 43
M  V30 45 1 19 44
M  V30 46 1 21 45
M  V30 47 1 22 46
M  V30 48 1 23 47
M  V30 49 1 24 48
M  V30 50 1 26 49
M  V30 51 1 26 50
M  V30 52 1 26 51
M  V30 END BOND
M  V30 BEGIN COLLECTION
M  V30 MDLV30/STEABS ATOMS=(2 11 17)
M  V30 END COLLECTION
M  V30 END CTAB
M  END
>  <Column 1>
2646

>  <level_0>
3876

>  <index>
3876

>  <Unnamed: 0>
3876

>  <NO.>
3888

>  <Name>
triamterene

>  <IUPAC_name>
(2s)-2-(4-methylphenyl)sulfanyl-n-[(1s)-1-(4-methylsulfonylphenyl)propyl]propanamide

>  <SMILES>
CC[C@H](NC(=O)[C@H](C)Sc1ccc(C)cc1)c1ccc(S(C)(=O)=O)cc1

>  <CID>
100005546

>  <logBB>


>  <BBB+/BBB->
BBB-

>  <Inchi>
InChI=1S/C20H25NO3S2/c1-5-19(16-8-12-18(13-9-16)26(4-23)24)21-20(22)15(3)25-17-10-6-14(2)7-11-17/h6-13-15-19H-5H2-1-4H3-(H-21-22)/t15--19-/m0/s1

>  <threshold>
-1

>  <reference>
R16|R10|R10|

>  <group>
B

>  <Class>
1

>  <ABC>
19.75

>  <ABCGG>
16.13

>  <nAcid>
0

>  <nBase>
0

>  <nAromAtom>
12

>  <nAromBond>
12

>  <nAtom>
51

>  <nHeavyAtom>
26

>  <nSpiro>
0

>  <nBridgehead>
0

>  <nHetero>
6

>  <nN>
1

>  <nO>
3

>  <nF>
0

>  <BalabanJ>
1.77

>  <BertzCT>
843.63

>  <nBonds>
52

>  <nBondsO>
27

>  <nBondsS>
37

>  <nBondsD>
3

>  <nBondsT>
0

>  <nBondsA>
12

>  <nBondsM>
15

>  <nBondsKS>
43

>  <nBondsKD>
9

>  <RNCG>
0.19

>  <RPCG>
0.13

>  <FCSP3>
0.35

>  <SZ>
34.67

>  <Sm>
32.6

>  <Sv>
32.05

>  <Sse>
50.91

>  <Sp>
35.55

>  <Si>
56.95

>  <MZ>
0.68

>  <Mm>
0.64

>  <Mv>
0.63

>  <Mse>
1

>  <Mp>
0.7

>  <Mi>
1.12

>  <NsCH3>
4

>  <NdCH2>
0

>  <NssCH2>
1

>  <NtCH>
0

>  <NdsCH>
0

>  <NaaCH>
8

>  <NsssCH>
2

>  <NddC>
0

>  <NtsC>
0

>  <NdssC>
1

>  <NaasC>
4

>  <NaaaC>
0

>  <NssssC>
0

>  <NsNH3>
0

>  <NsNH2>
0

>  <NssNH2>
0

>  <NdNH>
0

>  <NssNH>
1

>  <NaaNH>
0

>  <NtN>
0

>  <NsssNH>
0

>  <NdsN>
0

>  <NaaN>
0

>  <NsssN>
0

>  <NddsN>
0

>  <NaasN>
0

>  <NssssN>
0

>  <NsOH>
0

>  <NdO>
3

>  <NssO>
0

>  <NaaO>
0

>  <NsF>
0

>  <NsSiH3>
0

>  <NssSiH2>
0

>  <NsssSiH>
0

>  <NssssSi>
0

>  <NsPH2>
0

>  <NssPH>
0

>  <NsssP>
0

>  <NdsssP>
0

>  <NsssssP>
0

>  <NsSH>
0

>  <NdS>
0

>  <NssS>
1

>  <NaaS>
0

>  <NdssS>
0

>  <NddssS>
1

>  <NsCl>
0

>  <NsBr>
0

>  <NsI>
0

>  <fragCpx>
79.06

>  <fMF>
0.33

>  <nHBAcc>
4

>  <nHBDon>
1

>  <Kier1>
22.29

>  <Kier2>
9.97

>  <Lipinski>
1

>  <GhoseFilter>
1

>  <FilterItLogS>
-5.72

>  <VMcGowan>
301.13

>  <LabuteASA>
159.87

>  <PEOE_VSA1>
5.32

>  <PEOE_VSA2>
4.79

>  <PEOE_VSA3>
8.42

>  <PEOE_VSA4>
0

>  <PEOE_VSA5>
11.76

>  <PEOE_VSA6>
36.75

>  <PEOE_VSA7>
50.1

>  <PEOE_VSA8>
11.15

>  <PEOE_VSA9>
16.19

>  <PEOE_VSA10>
0

>  <PEOE_VSA11>
9.84

>  <PEOE_VSA12>
5.91

>  <PEOE_VSA13>
0

>  <SMR_VSA1>
13.21

>  <SMR_VSA2>
0

>  <SMR_VSA3>
5.32

>  <SMR_VSA4>
0

>  <SMR_VSA5>
48.27

>  <SMR_VSA6>
6.26

>  <SMR_VSA7>
59.66

>  <SMR_VSA8>
0

>  <SMR_VSA9>
0

>  <SlogP_VSA1>
5.32

>  <SlogP_VSA2>
25.83

>  <SlogP_VSA3>
14.63

>  <SlogP_VSA4>
6.92

>  <SlogP_VSA5>
37.44

>  <SlogP_VSA6>
58.32

>  <SlogP_VSA7>
0

>  <SlogP_VSA8>
0

>  <SlogP_VSA9>
0

>  <SlogP_VSA10>
0

>  <SlogP_VSA11>
0

>  <EState_VSA1>
9.84

>  <EState_VSA2>
22.09

>  <EState_VSA3>
0

>  <EState_VSA4>
16.88

>  <EState_VSA5>
23.58

>  <EState_VSA6>
24.27

>  <EState_VSA7>
45.04

>  <EState_VSA8>
5.32

>  <EState_VSA9>
0

>  <EState_VSA10>
13.21

>  <VSA_EState1>
23.15

>  <VSA_EState2>
13.9

>  <VSA_EState3>
2.84

>  <VSA_EState4>
2.09

>  <VSA_EState5>
-0.03

>  <VSA_EState6>
14.67

>  <VSA_EState7>
1.91

>  <VSA_EState8>
5.91

>  <VSA_EState9>
-3.22

>  <apol>
59.38

>  <bpol>
35.63

>  <nRing>
2

>  <nHRing>
0

>  <naRing>
2

>  <naHRing>
0

>  <nARing 2>
0

>  <nAHRing 2>
0

>  <nFRing>
0

>  <nFHRing>
0

>  <nFaRing>
0

>  <nFaHRing>
0

>  <nFARing 2>
0

>  <nFAHRing 2>
0

>  <nRot>
7

>  <SLogP>
4.15

>  <SMR>
107.22

>  <TopoPSA(NO)>
63.24

>  <TopoPSA>
96.92

>  <JGI1>
0.28

>  <JGI2>
0.1

>  <JGI3>
0.04

>  <JGI4>
0.04

>  <JGI5>
0.03

>  <Diameter>
15

>  <Radius>
8

>  <TMWC10>
127.17

>  <TSRW10>
60.61

>  <MW>
391.13

>  <AMW>
7.67

>  <WPath>
1908

>  <WPol>
38

>  <Zagreb1>
130

>  <Zagreb2>
147

>  <mZagreb2>
5.72

>  <yes>


>  <nAR-cont>
0.336376

>  <nHA-cont>
0.892715677

>  <MWHBN>
0.252818843

>  <MWHBN-cont>
0.954912638

>  <TPSA-cont>
0.323438216

>  <pka_cont>
0.97

>  <yes.1>


>  <BBB_SCORE>
3.793337067

>  <MMFF94 Energy>
61.537

$$$$
Compound 2152
Actelion Java MolfileCreator 2.0

  0  0  0  0  0  0              0 V3000
M  V30 BEGIN CTAB
M  V30 COUNTS 46 47 0 0 0
M  V30 BEGIN ATOM
M  V30 1 O -2.7673 5.9373 -2.1342 0
M  V30 2 N -3.2673 5.2997 -1.1971 0 CHG=1
M  V30 3 O -3.9934 5.7754 -0.3145 0 CHG=-1
M  V30 4 C -2.9434 3.8777 -1.1146 0
M  V30 5 C -3.945 2.9121 -0.9041 0
M  V30 6 C -1.5945 3.516 -1.2634 0
M  V30 7 C -3.5457 1.567 -0.808 0
M  V30 8 C -5.4032 3.2494 -0.7621 0
M  V30 9 C -1.2237 2.1723 -1.1766 0
M  V30 10 C -2.1963 1.1948 -0.9323 0
M  V30 11 C -1.8527 -0.2514 -0.8343 0
M  V30 12 O -2.6864 -1.097 -1.1358 0
M  V30 13 N -0.5933 -0.5495 -0.365 0
M  V30 14 C -0.1342 -1.9227 -0.2018 0 CFG=2
M  V30 15 C 1.0865 -1.9884 0.7045 0
M  V30 16 C 0.0727 -2.6623 -1.5417 0
M  V30 17 C 2.2076 -1.1627 0.5164 0
M  V30 18 C 1.1103 -2.9048 1.7632 0
M  V30 19 C 1.03 -1.9983 -2.5239 0
M  V30 20 C 3.3284 -1.237 1.3621 0
M  V30 21 C 2.2162 -2.9888 2.6113 0
M  V30 22 C 3.3314 -2.1611 2.4237 0
M  V30 23 C 4.5037 -0.3322 1.1089 0
M  V30 24 C 4.5049 -2.2836 3.3566 0
M  V30 25 H -0.8331 4.2714 -1.4516 0
M  V30 26 H -4.292 0.7899 -0.6369 0
M  V30 27 H -5.6018 3.6658 0.2301 0
M  V30 28 H -6.0294 2.3588 -0.8847 0
M  V30 29 H -5.7165 3.9617 -1.532 0
M  V30 30 H -0.1815 1.9042 -1.3273 0
M  V30 31 H -0.0215 0.1836 0.0275 0
M  V30 32 H -0.9553 -2.4399 0.3143 0
M  V30 33 H -0.8962 -2.7633 -2.0456 0
M  V30 34 H 0.4227 -3.6839 -1.3467 0
M  V30 35 H 2.2175 -0.4532 -0.3086 0
M  V30 36 H 0.2633 -3.5653 1.9398 0
M  V30 37 H 0.7512 -0.9588 -2.7206 0
M  V30 38 H 1.0104 -2.5344 -3.4787 0
M  V30 39 H 2.061 -2.0238 -2.1617 0
M  V30 40 H 2.1993 -3.712 3.4243 0
M  V30 41 H 4.3276 0.3262 0.2516 0
M  V30 42 H 4.6879 0.305 1.9796 0
M  V30 43 H 5.3986 -0.9236 0.8918 0
M  V30 44 H 4.3323 -3.0475 4.1223 0
M  V30 45 H 5.4035 -2.5707 2.8015 0
M  V30 46 H 4.6812 -1.3347 3.8731 0
M  V30 END ATOM
M  V30 BEGIN BOND
M  V30 1 2 1 2
M  V30 2 1 2 3
M  V30 3 1 2 4
M  V30 4 2 4 5
M  V30 5 1 4 6
M  V30 6 1 5 7
M  V30 7 1 5 8
M  V30 8 2 6 9
M  V30 9 2 7 10
M  V30 10 1 10 11
M  V30 11 2 11 12
M  V30 12 1 11 13
M  V30 13 1 13 14
M  V30 14 1 14 15
M  V30 15 1 14 16
M  V30 16 2 15 17
M  V30 17 1 15 18
M  V30 18 1 16 19
M  V30 19 1 17 20
M  V30 20 2 18 21
M  V30 21 2 20 22
M  V30 22 1 20 23
M  V30 23 1 22 24
M  V30 24 1 9 10
M  V30 25 1 21 22
M  V30 26 1 6 25
M  V30 27 1 7 26
M  V30 28 1 8 27
M  V30 29 1 8 28
M  V30 30 1 8 29
M  V30 31 1 9 30
M  V30 32 1 13 31
M  V30 33 1 14 32
M  V30 34 1 16 33
M  V30 35 1 16 34
M  V30 36 1 17 35
M  V30 37 1 18 36
M  V30 38 1 19 37
M  V30 39 1 19 38
M  V30 40 1 19 39
M  V30 41 1 21 40
M  V30 42 1 23 41
M  V30 43 1 23 42
M  V30 44 1 23 43
M  V30 45 1 24 44
M  V30 46 1 24 45
M  V30 47 1 24 46
M  V30 END BOND
M  V30 BEGIN COLLECTION
M  V30 MDLV30/STEABS ATOMS=(1 14)
M  V30 END COLLECTION
M  V30 END CTAB
M  END
>  <Column 1>
2648

>  <level_0>
3879

>  <index>
3879

>  <Unnamed: 0>
3879

>  <NO.>
3891

>  <Name>
sulfadiazine

>  <IUPAC_name>
n-[(1s)-1-(3-4-dimethylphenyl)propyl]-3-methyl-4-nitrobenzamide

>  <SMILES>
CC[C@H](NC(=O)c1ccc([N+](=O)[O-])c(C)c1)c1ccc(C)c(C)c1

>  <CID>
100005215

>  <logBB>


>  <BBB+/BBB->
BBB+

>  <Inchi>
InChI=1S/C19H22N2O3/c1-5-17(15-7-6-12(2)13(3)10-15)20-19(22)16-8-9-18(21(23)24)14(4)11-16/h6-11-17H-5H2-1-4H3-(H-20-22)/t17-/m0/s1

>  <threshold>
-1

>  <reference>
R16|R10|

>  <group>
B

>  <Class>
1

>  <ABC>
18.13

>  <ABCGG>
15.33

>  <nAcid>
0

>  <nBase>
0

>  <nAromAtom>
12

>  <nAromBond>
12

>  <nAtom>
46

>  <nHeavyAtom>
24

>  <nSpiro>
0

>  <nBridgehead>
0

>  <nHetero>
5

>  <nN>
2

>  <nO>
3

>  <nF>
0

>  <BalabanJ>
1.87

>  <BertzCT>
784.18

>  <nBonds>
47

>  <nBondsO>
25

>  <nBondsS>
33

>  <nBondsD>
2

>  <nBondsT>
0

>  <nBondsA>
12

>  <nBondsM>
14

>  <nBondsKS>
39

>  <nBondsKD>
8

>  <RNCG>
0.2

>  <RPCG>
0.16

>  <FCSP3>
0.32

>  <SZ>
29

>  <Sm>
27.17

>  <Sv>
28.62

>  <Sse>
46.08

>  <Sp>
30.54

>  <Si>
51.78

>  <MZ>
0.63

>  <Mm>
0.59

>  <Mv>
0.62

>  <Mse>
1

>  <Mp>
0.66

>  <Mi>
1.13

>  <NsCH3>
4

>  <NdCH2>
0

>  <NssCH2>
1

>  <NtCH>
0

>  <NdsCH>
0

>  <NaaCH>
6

>  <NsssCH>
1

>  <NddC>
0

>  <NtsC>
0

>  <NdssC>
1

>  <NaasC>
6

>  <NaaaC>
0

>  <NssssC>
0

>  <NsNH3>
0

>  <NsNH2>
0

>  <NssNH2>
0

>  <NdNH>
0

>  <NssNH>
1

>  <NaaNH>
0

>  <NtN>
0

>  <NsssNH>
0

>  <NdsN>
0

>  <NaaN>
0

>  <NsssN>
0

>  <NddsN>
1

>  <NaasN>
0

>  <NssssN>
0

>  <NsOH>
0

>  <NdO>
2

>  <NssO>
0

>  <NaaO>
0

>  <NsF>
0

>  <NsSiH3>
0

>  <NssSiH2>
0

>  <NsssSiH>
0

>  <NssssSi>
0

>  <NsPH2>
0

>  <NssPH>
0

>  <NsssP>
0

>  <NdsssP>
0

>  <NsssssP>
0

>  <NsSH>
0

>  <NdS>
0

>  <NssS>
0

>  <NaaS>
0

>  <NdssS>
0

>  <NddssS>
0

>  <NsCl>
0

>  <NsBr>
0

>  <NsI>
0

>  <fragCpx>
73.05

>  <fMF>
0.33

>  <nHBAcc>
3

>  <nHBDon>
1

>  <Kier1>
20.31

>  <Kier2>
9.09

>  <Lipinski>
1

>  <GhoseFilter>
1

>  <FilterItLogS>
-5.99

>  <VMcGowan>
260.02

>  <LabuteASA>
141.41

>  <PEOE_VSA1>
5.32

>  <PEOE_VSA2>
14.91

>  <PEOE_VSA3>
0

>  <PEOE_VSA4>
0

>  <PEOE_VSA5>
0

>  <PEOE_VSA6>
25.12

>  <PEOE_VSA7>
56.02

>  <PEOE_VSA8>
17.19

>  <PEOE_VSA9>
10.97

>  <PEOE_VSA10>
0

>  <PEOE_VSA11>
0

>  <PEOE_VSA12>
0

>  <PEOE_VSA13>
11.59

>  <SMR_VSA1>
9.72

>  <SMR_VSA2>
0

>  <SMR_VSA3>
5.32

>  <SMR_VSA4>
0

>  <SMR_VSA5>
40.16

>  <SMR_VSA6>
0

>  <SMR_VSA7>
74.33

>  <SMR_VSA8>
0

>  <SMR_VSA9>
0

>  <SlogP_VSA1>
5.32

>  <SlogP_VSA2>
10.83

>  <SlogP_VSA3>
0

>  <SlogP_VSA4>
30.89

>  <SlogP_VSA5>
52

>  <SlogP_VSA6>
36.4

>  <SlogP_VSA7>
0

>  <SlogP_VSA8>
0

>  <SlogP_VSA9>
0

>  <SlogP_VSA10>
5.69

>  <SlogP_VSA11>
0

>  <EState_VSA1>
4.92

>  <EState_VSA2>
17.64

>  <EState_VSA3>
11.13

>  <EState_VSA4>
11.98

>  <EState_VSA5>
23.26

>  <EState_VSA6>
12.99

>  <EState_VSA7>
19.91

>  <EState_VSA8>
24.37

>  <EState_VSA9>
0

>  <EState_VSA10>
14.91

>  <VSA_EState1>
0

>  <VSA_EState2>
22.92

>  <VSA_EState3>
13.89

>  <VSA_EState4>
4.39

>  <VSA_EState5>
-0.22

>  <VSA_EState6>
10.5

>  <VSA_EState7>
0.76

>  <VSA_EState8>
7.75

>  <VSA_EState9>
0

>  <apol>
51.01

>  <bpol>
24.67

>  <nRing>
2

>  <nHRing>
0

>  <naRing>
2

>  <naHRing>
0

>  <nARing 2>
0

>  <nAHRing 2>
0

>  <nFRing>
0

>  <nFHRing>
0

>  <nFaRing>
0

>  <nFaHRing>
0

>  <nFARing 2>
0

>  <nFAHRing 2>
0

>  <nRot>
5

>  <SLogP>
4.4

>  <SMR>
94.25

>  <TopoPSA(NO)>
72.24

>  <TopoPSA>
72.24

>  <JGI1>
0.24

>  <JGI2>
0.11

>  <JGI3>
0.05

>  <JGI4>
0.05

>  <JGI5>
0.03

>  <Diameter>
13

>  <Radius>
7

>  <TMWC10>
122.96

>  <TSRW10>
58.31

>  <MW>
326.16

>  <AMW>
7.09

>  <WPath>
1439

>  <WPol>
38

>  <Zagreb1>
120

>  <Zagreb2>
139

>  <mZagreb2>
5.39

>  <yes>


>  <nAR-cont>
0.336376

>  <nHA-cont>
0.94700071

>  <MWHBN>
0.221485165

>  <MWHBN-cont>
0.993981748

>  <TPSA-cont>
0.495719942

>  <pka_cont>
0.97

>  <yes.1>


>  <BBB_SCORE>
4.250789215

>  <MMFF94 Energy>
71.424

$$$$
Compound 2153
Actelion Java MolfileCreator 2.0

  0  0  0  0  0  0              0 V3000
M  V30 BEGIN CTAB
M  V30 COUNTS 44 45 0 0 0
M  V30 BEGIN ATOM
M  V30 1 O 0.7088 -1.4968 -1.1815 0
M  V30 2 C 0.1358 -0.4577 -1.5183 0
M  V30 3 N 0.7933 0.482 -2.3111 0
M  V30 4 C -1.312 -0.1223 -1.099 0
M  V30 5 C 2.2234 0.2925 -2.562 0
M  V30 6 C 0.2173 1.749 -2.7401 0
M  V30 7 N -1.8439 -0.8688 0.0666 0
M  V30 8 C 3.0802 1.0154 -1.5516 0
M  V30 9 C -1.0346 -0.7629 1.3027 0 CFG=2
M  V30 10 C -2.1324 -2.2681 -0.2875 0
M  V30 11 N 3.5086 2.2717 -1.8553 0
M  V30 12 C 3.3771 0.4269 -0.3251 0
M  V30 13 C -1.7614 -1.4687 2.4696 0
M  V30 14 C -0.6686 0.6848 1.7154 0
M  V30 15 C -2.8724 -2.9915 0.8364 0
M  V30 16 C 4.2474 2.8855 -0.9024 0
M  V30 17 N 4.1165 1.0457 0.6272 0
M  V30 18 C -2.0884 -2.9198 2.1379 0
M  V30 19 C -1.8513 1.6117 1.9717 0
M  V30 20 C 4.5449 2.2864 0.3091 0
M  V30 21 H -1.3857 0.9451 -0.8735 0
M  V30 22 H -1.9568 -0.2891 -1.9709 0
M  V30 23 H 2.479 -0.7734 -2.5579 0
M  V30 24 H 2.4505 0.6556 -3.5714 0
M  V30 25 H 0.4106 2.5013 -1.9702 0
M  V30 26 H 0.6692 2.0619 -3.6858 0
M  V30 27 H -0.8604 1.66 -2.8932 0
M  V30 28 H -0.0837 -1.2921 1.1583 0
M  V30 29 H -1.2184 -2.824 -0.5232 0
M  V30 30 H -2.7696 -2.3017 -1.1798 0
M  V30 31 H 3.02 -0.5664 -0.0693 0
M  V30 32 H -2.6969 -0.9491 2.7107 0
M  V30 33 H -1.1382 -1.4394 3.3716 0
M  V30 34 H -0.0585 0.6475 2.6273 0
M  V30 35 H -0.023 1.1381 0.954 0
M  V30 36 H -3.0344 -4.0393 0.5589 0
M  V30 37 H -3.8632 -2.5409 0.9768 0
M  V30 38 H 4.5977 3.8832 -1.1406 0
M  V30 39 H -1.16 -3.4962 2.0448 0
M  V30 40 H -2.6682 -3.3697 2.9514 0
M  V30 41 H -2.4329 1.2897 2.8402 0
M  V30 42 H -1.4896 2.6242 2.1797 0
M  V30 43 H -2.5214 1.6681 1.1095 0
M  V30 44 H 5.1386 2.7923 1.0617 0
M  V30 END ATOM
M  V30 BEGIN BOND
M  V30 1 2 1 2
M  V30 2 1 2 3
M  V30 3 1 2 4
M  V30 4 1 3 5
M  V30 5 1 3 6
M  V30 6 1 4 7
M  V30 7 1 5 8
M  V30 8 1 7 9
M  V30 9 1 7 10
M  V30 10 2 8 11
M  V30 11 1 8 12
M  V30 12 1 9 13
M  V30 13 1 9 14
M  V30 14 1 10 15
M  V30 15 1 11 16
M  V30 16 2 12 17
M  V30 17 1 13 18
M  V30 18 1 14 19
M  V30 19 2 16 20
M  V30 20 1 15 18
M  V30 21 1 17 20
M  V30 22 1 4 21
M  V30 23 1 4 22
M  V30 24 1 5 23
M  V30 25 1 5 24
M  V30 26 1 6 25
M  V30 27 1 6 26
M  V30 28 1 6 27
M  V30 29 1 9 28
M  V30 30 1 10 29
M  V30 31 1 10 30
M  V30 32 1 12 31
M  V30 33 1 13 32
M  V30 34 1 13 33
M  V30 35 1 14 34
M  V30 36 1 14 35
M  V30 37 1 15 36
M  V30 38 1 15 37
M  V30 39 1 16 38
M  V30 40 1 18 39
M  V30 41 1 18 40
M  V30 42 1 19 41
M  V30 43 1 19 42
M  V30 44 1 19 43
M  V30 45 1 20 44
M  V30 END BOND
M  V30 BEGIN COLLECTION
M  V30 MDLV30/STEABS ATOMS=(1 9)
M  V30 END COLLECTION
M  V30 END CTAB
M  END
>  <Column 1>
2649

>  <level_0>
3880

>  <index>
3880

>  <Unnamed: 0>
3880

>  <NO.>
3892

>  <Name>
pethidine

>  <IUPAC_name>
2-[(2s)-2-ethylpiperidin-1-yl]-n-methyl-n-(pyrazin-2-ylmethyl)acetamide

>  <SMILES>
CC[C@H]1CCCCN1CC(=O)N(C)Cc1cnccn1

>  <CID>
100004058

>  <logBB>


>  <BBB+/BBB->
BBB+

>  <Inchi>
InChI=1S/C15H24N4O/c1-3-14-6-4-5-9-19(14)12-15(20)18(2)11-13-10-16-7-8-17-13/h7-8-10-14H-3-6-9-11-12H2-1-2H3/t14-/m0/s1

>  <threshold>
-1

>  <reference>
R16|R16|R10|R10|

>  <group>
B

>  <Class>
1

>  <ABC>
14.99

>  <ABCGG>
12.74

>  <nAcid>
0

>  <nBase>
1

>  <nAromAtom>
6

>  <nAromBond>
6

>  <nAtom>
44

>  <nHeavyAtom>
20

>  <nSpiro>
0

>  <nBridgehead>
0

>  <nHetero>
5

>  <nN>
4

>  <nO>
1

>  <nF>
0

>  <BalabanJ>
1.75

>  <BertzCT>
423.14

>  <nBonds>
45

>  <nBondsO>
21

>  <nBondsS>
38

>  <nBondsD>
1

>  <nBondsT>
0

>  <nBondsA>
6

>  <nBondsM>
7

>  <nBondsKS>
41

>  <nBondsKD>
4

>  <RNCG>
0.2

>  <RPCG>
0.14

>  <FCSP3>
0.67

>  <SZ>
25

>  <Sm>
23.01

>  <Sv>
25.25

>  <Sse>
43.64

>  <Sp>
27.7

>  <Si>
50.36

>  <MZ>
0.57

>  <Mm>
0.52

>  <Mv>
0.57

>  <Mse>
0.99

>  <Mp>
0.63

>  <Mi>
1.14

>  <NsCH3>
2

>  <NdCH2>
0

>  <NssCH2>
7

>  <NtCH>
0

>  <NdsCH>
0

>  <NaaCH>
3

>  <NsssCH>
1

>  <NddC>
0

>  <NtsC>
0

>  <NdssC>
1

>  <NaasC>
1

>  <NaaaC>
0

>  <NssssC>
0

>  <NsNH3>
0

>  <NsNH2>
0

>  <NssNH2>
0

>  <NdNH>
0

>  <NssNH>
0

>  <NaaNH>
0

>  <NtN>
0

>  <NsssNH>
0

>  <NdsN>
0

>  <NaaN>
2

>  <NsssN>
2

>  <NddsN>
0

>  <NaasN>
0

>  <NssssN>
0

>  <NsOH>
0

>  <NdO>
1

>  <NssO>
0

>  <NaaO>
0

>  <NsF>
0

>  <NsSiH3>
0

>  <NssSiH2>
0

>  <NsssSiH>
0

>  <NssssSi>
0

>  <NsPH2>
0

>  <NssPH>
0

>  <NsssP>
0

>  <NdsssP>
0

>  <NsssssP>
0

>  <NsSH>
0

>  <NdS>
0

>  <NssS>
0

>  <NaaS>
0

>  <NdssS>
0

>  <NddssS>
0

>  <NsCl>
0

>  <NsBr>
0

>  <NsI>
0

>  <fragCpx>
61.05

>  <fMF>
0.36

>  <nHBAcc>
4

>  <nHBDon>
0

>  <Kier1>
16.37

>  <Kier2>
8.44

>  <Lipinski>
1

>  <GhoseFilter>
1

>  <FilterItLogS>
-2.96

>  <VMcGowan>
229.08

>  <LabuteASA>
120.56

>  <PEOE_VSA1>
4.9

>  <PEOE_VSA2>
19.66

>  <PEOE_VSA3>
0

>  <PEOE_VSA4>
0

>  <PEOE_VSA5>
0

>  <PEOE_VSA6>
13.34

>  <PEOE_VSA7>
25.81

>  <PEOE_VSA8>
25.48

>  <PEOE_VSA9>
24.98

>  <PEOE_VSA10>
0

>  <PEOE_VSA11>
0

>  <PEOE_VSA12>
5.91

>  <PEOE_VSA13>
0

>  <SMR_VSA1>
4.79

>  <SMR_VSA2>
0

>  <SMR_VSA3>
19.77

>  <SMR_VSA4>
0

>  <SMR_VSA5>
45.19

>  <SMR_VSA6>
20.14

>  <SMR_VSA7>
24.28

>  <SMR_VSA8>
0

>  <SMR_VSA9>
0

>  <SlogP_VSA1>
0

>  <SlogP_VSA2>
51.85

>  <SlogP_VSA3>
11.34

>  <SlogP_VSA4>
0

>  <SlogP_VSA5>
38.3

>  <SlogP_VSA6>
18.59

>  <SlogP_VSA7>
0

>  <SlogP_VSA8>
0

>  <SlogP_VSA9>
0

>  <SlogP_VSA10>
0

>  <SlogP_VSA11>
0

>  <EState_VSA1>
0

>  <EState_VSA2>
5.91

>  <EState_VSA3>
19.13

>  <EState_VSA4>
18.66

>  <EState_VSA5>
19.26

>  <EState_VSA6>
23.49

>  <EState_VSA7>
7.05

>  <EState_VSA8>
21.79

>  <EState_VSA9>
0

>  <EState_VSA10>
4.79

>  <VSA_EState1>
0

>  <VSA_EState2>
24.62

>  <VSA_EState3>
0

>  <VSA_EState4>
0.83

>  <VSA_EState5>
0.16

>  <VSA_EState6>
0.57

>  <VSA_EState7>
9.85

>  <VSA_EState8>
4.3

>  <VSA_EState9>
1.84

>  <apol>
46.26

>  <bpol>
30.64

>  <nRing>
2

>  <nHRing>
2

>  <naRing>
1

>  <naHRing>
1

>  <nARing 2>
1

>  <nAHRing 2>
1

>  <nFRing>
0

>  <nFHRing>
0

>  <nFaRing>
0

>  <nFaHRing>
0

>  <nFARing 2>
0

>  <nFAHRing 2>
0

>  <nRot>
5

>  <SLogP>
1.7

>  <SMR>
78.01

>  <TopoPSA(NO)>
49.33

>  <TopoPSA>
49.33

>  <JGI1>
0.17

>  <JGI2>
0.07

>  <JGI3>
0.03

>  <JGI4>
0.05

>  <JGI5>
0.03

>  <Diameter>
11

>  <Radius>
6

>  <TMWC10>
111.81

>  <TSRW10>
52.87

>  <MW>
276.2

>  <AMW>
6.28

>  <WPath>
892

>  <WPol>
27

>  <Zagreb1>
96

>  <Zagreb2>
108

>  <mZagreb2>
4.64

>  <yes>


>  <nAR-cont>
0.816016

>  <nHA-cont>
0.999629945

>  <MWHBN>
0.240684517

>  <MWHBN-cont>
0.974034497

>  <TPSA-cont>
0.655645968

>  <pka_cont>
0.97

>  <yes.1>


>  <BBB_SCORE>
5.072989626

>  <MMFF94 Energy>
92.117

$$$$
Compound 2154
Actelion Java MolfileCreator 2.0

  0  0  0  0  0  0              0 V3000
M  V30 BEGIN CTAB
M  V30 COUNTS 55 57 0 0 0
M  V30 BEGIN ATOM
M  V30 1 O -1.2599 2.048 -3.1521 0
M  V30 2 C -1.0211 0.8421 -3.1516 0
M  V30 3 N -1.5312 -0.031 -2.2129 0
M  V30 4 C -0.1683 0.196 -4.22 0
M  V30 5 C -2.3056 0.3991 -1.0681 0
M  V30 6 N 0.9124 -0.5651 -3.6213 0
M  V30 7 C -1.481 0.3629 0.2269 0 CFG=2
M  V30 8 N 0.6802 -1.8509 -3.2843 0
M  V30 9 C 2.1567 -0.1213 -3.2541 0
M  V30 10 C -2.3952 0.6531 1.4284 0
M  V30 11 C -0.3062 1.3528 0.1973 0
M  V30 12 C 1.8177 -2.2486 -2.7053 0
M  V30 13 C 2.7801 -1.2026 -2.6529 0
M  V30 14 C 2.621 1.2714 -3.4834 0
M  V30 15 N -1.6194 0.6794 2.6712 0
M  V30 16 C 0.45 1.3232 1.5216 0
M  V30 17 C 1.95 -3.6376 -2.1986 0
M  V30 18 C 4.149 -1.2616 -2.0605 0
M  V30 19 C -2.3385 0.5897 3.8667 0
M  V30 20 C -0.4768 1.5963 2.7035 0
M  V30 21 C 4.1688 -0.8021 -0.6101 0
M  V30 22 N -2.1308 1.5143 4.8316 0
M  V30 23 C -3.2379 -0.4573 4.0787 0
M  V30 24 C -2.8281 1.4169 5.986 0
M  V30 25 C -3.9476 -0.5426 5.2768 0
M  V30 26 C -3.7433 0.418 6.253 0
M  V30 27 H -1.2377 -1.0072 -2.2687 0
M  V30 28 H 0.2615 0.9583 -4.8756 0
M  V30 29 H -0.779 -0.4825 -4.8246 0
M  V30 30 H -3.1514 -0.2933 -0.994 0
M  V30 31 H -2.709 1.4024 -1.2444 0
M  V30 32 H -1.0648 -0.6476 0.3464 0
M  V30 33 H -2.9022 1.6186 1.2973 0
M  V30 34 H -3.1749 -0.1164 1.4508 0
M  V30 35 H 0.3901 1.1016 -0.6099 0
M  V30 36 H -0.6727 2.3689 0.0047 0
M  V30 37 H 3.6061 1.4424 -3.039 0
M  V30 38 H 2.6969 1.479 -4.5554 0
M  V30 39 H 1.9279 1.9906 -3.0353 0
M  V30 40 H 0.9203 0.3393 1.6453 0
M  V30 41 H 1.2569 2.0644 1.5052 0
M  V30 42 H 2.725 -4.1729 -2.7561 0
M  V30 43 H 1.0129 -4.1948 -2.3007 0
M  V30 44 H 2.2251 -3.6336 -1.1391 0
M  V30 45 H 4.835 -0.6408 -2.6487 0
M  V30 46 H 4.5355 -2.2858 -2.1193 0
M  V30 47 H -0.825 2.6369 2.6709 0
M  V30 48 H 0.1112 1.4638 3.6207 0
M  V30 49 H 5.1849 -0.8604 -0.2074 0
M  V30 50 H 3.5193 -1.4273 0.0121 0
M  V30 51 H 3.8248 0.2336 -0.5168 0
M  V30 52 H -3.3708 -1.2308 3.3309 0
M  V30 53 H -2.6188 2.194 6.7151 0
M  V30 54 H -4.6434 -1.3593 5.4429 0
M  V30 55 H -4.2731 0.3854 7.1976 0
M  V30 END ATOM
M  V30 BEGIN BOND
M  V30 1 2 1 2
M  V30 2 1 2 3
M  V30 3 1 2 4
M  V30 4 1 3 5
M  V30 5 1 4 6
M  V30 6 1 5 7
M  V30 7 1 6 8
M  V30 8 1 6 9
M  V30 9 1 7 10
M  V30 10 1 7 11
M  V30 11 2 8 12
M  V30 12 2 9 13
M  V30 13 1 9 14
M  V30 14 1 10 15
M  V30 15 1 11 16
M  V30 16 1 12 17
M  V30 17 1 13 18
M  V30 18 1 15 19
M  V30 19 1 15 20
M  V30 20 1 18 21
M  V30 21 2 19 22
M  V30 22 1 19 23
M  V30 23 1 22 24
M  V30 24 2 23 25
M  V30 25 2 24 26
M  V30 26 1 12 13
M  V30 27 1 16 20
M  V30 28 1 25 26
M  V30 29 1 3 27
M  V30 30 1 4 28
M  V30 31 1 4 29
M  V30 32 1 5 30
M  V30 33 1 5 31
M  V30 34 1 7 32
M  V30 35 1 10 33
M  V30 36 1 10 34
M  V30 37 1 11 35
M  V30 38 1 11 36
M  V30 39 1 14 37
M  V30 40 1 14 38
M  V30 41 1 14 39
M  V30 42 1 16 40
M  V30 43 1 16 41
M  V30 44 1 17 42
M  V30 45 1 17 43
M  V30 46 1 17 44
M  V30 47 1 18 45
M  V30 48 1 18 46
M  V30 49 1 20 47
M  V30 50 1 20 48
M  V30 51 1 21 49
M  V30 52 1 21 50
M  V30 53 1 21 51
M  V30 54 1 23 52
M  V30 55 1 24 53
M  V30 56 1 25 54
M  V30 57 1 26 55
M  V30 END BOND
M  V30 BEGIN COLLECTION
M  V30 MDLV30/STEABS ATOMS=(1 7)
M  V30 END COLLECTION
M  V30 END CTAB
M  END
>  <Column 1>
2650

>  <level_0>
3881

>  <index>
3881

>  <Unnamed: 0>
3881

>  <NO.>
3893

>  <Name>
tibolone

>  <IUPAC_name>
2-(4-ethyl-3-5-dimethylpyrazol-1-yl)-n-[[(3r)-1-pyridin-2-ylpiperidin-3-yl]methyl]acetamide

>  <SMILES>
CCc1c(C)nn(CC(=O)NC[C@H]2CCCN(c3ccccn3)C2)c1C

>  <CID>
100005470

>  <logBB>


>  <BBB+/BBB->
BBB+

>  <Inchi>
InChI=1S/C20H29N5O/c1-4-18-15(2)23-25(16(18)3)14-20(26)22-12-17-8-7-11-24(13-17)19-9-5-6-10-21-19/h5-6-9-10-17H-4-7-8-11-14H2-1-3H3-(H-22-26)/t17-/m1/s1

>  <threshold>
-1

>  <reference>
R16|R10|

>  <group>
B

>  <Class>
1

>  <ABC>
19.97

>  <ABCGG>
15.96

>  <nAcid>
0

>  <nBase>
0

>  <nAromAtom>
11

>  <nAromBond>
11

>  <nAtom>
55

>  <nHeavyAtom>
26

>  <nSpiro>
0

>  <nBridgehead>
0

>  <nHetero>
6

>  <nN>
5

>  <nO>
1

>  <nF>
0

>  <BalabanJ>
1.39

>  <BertzCT>
740.16

>  <nBonds>
57

>  <nBondsO>
28

>  <nBondsS>
45

>  <nBondsD>
1

>  <nBondsT>
0

>  <nBondsA>
11

>  <nBondsM>
12

>  <nBondsKS>
51

>  <nBondsKD>
6

>  <RNCG>
0.18

>  <RPCG>
0.12

>  <FCSP3>
0.55

>  <SZ>
32

>  <Sm>
29.6

>  <Sv>
32.36

>  <Sse>
54.52

>  <Sp>
35.35

>  <Si>
62.68

>  <MZ>
0.58

>  <Mm>
0.54

>  <Mv>
0.59

>  <Mse>
0.99

>  <Mp>
0.64

>  <Mi>
1.14

>  <NsCH3>
3

>  <NdCH2>
0

>  <NssCH2>
7

>  <NtCH>
0

>  <NdsCH>
0

>  <NaaCH>
4

>  <NsssCH>
1

>  <NddC>
0

>  <NtsC>
0

>  <NdssC>
1

>  <NaasC>
4

>  <NaaaC>
0

>  <NssssC>
0

>  <NsNH3>
0

>  <NsNH2>
0

>  <NssNH2>
0

>  <NdNH>
0

>  <NssNH>
1

>  <NaaNH>
0

>  <NtN>
0

>  <NsssNH>
0

>  <NdsN>
0

>  <NaaN>
2

>  <NsssN>
1

>  <NddsN>
0

>  <NaasN>
1

>  <NssssN>
0

>  <NsOH>
0

>  <NdO>
1

>  <NssO>
0

>  <NaaO>
0

>  <NsF>
0

>  <NsSiH3>
0

>  <NssSiH2>
0

>  <NsssSiH>
0

>  <NssssSi>
0

>  <NsPH2>
0

>  <NssPH>
0

>  <NsssP>
0

>  <NdsssP>
0

>  <NsssssP>
0

>  <NsSH>
0

>  <NdS>
0

>  <NssS>
0

>  <NaaS>
0

>  <NdssS>
0

>  <NddssS>
0

>  <NsCl>
0

>  <NsBr>
0

>  <NsI>
0

>  <fragCpx>
134.06

>  <fMF>
0.38

>  <nHBAcc>
5

>  <nHBDon>
1

>  <Kier1>
20.73

>  <Kier2>
9.97

>  <Lipinski>
1

>  <GhoseFilter>
1

>  <FilterItLogS>
-4.78

>  <VMcGowan>
290.05

>  <LabuteASA>
155.16

>  <PEOE_VSA1>
10.22

>  <PEOE_VSA2>
9.48

>  <PEOE_VSA3>
4.98

>  <PEOE_VSA4>
5.1

>  <PEOE_VSA5>
0

>  <PEOE_VSA6>
12.99

>  <PEOE_VSA7>
56.72

>  <PEOE_VSA8>
31.53

>  <PEOE_VSA9>
5.69

>  <PEOE_VSA10>
12.36

>  <PEOE_VSA11>
0

>  <PEOE_VSA12>
5.91

>  <PEOE_VSA13>
0

>  <SMR_VSA1>
4.79

>  <SMR_VSA2>
0

>  <SMR_VSA3>
20.08

>  <SMR_VSA4>
5.92

>  <SMR_VSA5>
46.58

>  <SMR_VSA6>
24.53

>  <SMR_VSA7>
41.35

>  <SMR_VSA8>
0

>  <SMR_VSA9>
0

>  <SlogP_VSA1>
10.22

>  <SlogP_VSA2>
40.31

>  <SlogP_VSA3>
17.76

>  <SlogP_VSA4>
19.77

>  <SlogP_VSA5>
36.72

>  <SlogP_VSA6>
24.4

>  <SlogP_VSA7>
0

>  <SlogP_VSA8>
0

>  <SlogP_VSA9>
0

>  <SlogP_VSA10>
5.82

>  <SlogP_VSA11>
0

>  <EState_VSA1>
0

>  <EState_VSA2>
5.91

>  <EState_VSA3>
19.01

>  <EState_VSA4>
49.56

>  <EState_VSA5>
5.56

>  <EState_VSA6>
0

>  <EState_VSA7>
36.86

>  <EState_VSA8>
33.29

>  <EState_VSA9>
0

>  <EState_VSA10>
4.79

>  <VSA_EState1>
1.82

>  <VSA_EState2>
19.13

>  <VSA_EState3>
7.61

>  <VSA_EState4>
3.37

>  <VSA_EState5>
1.52

>  <VSA_EState6>
6.01

>  <VSA_EState7>
5.06

>  <VSA_EState8>
9.15

>  <VSA_EState9>
0

>  <apol>
59.04

>  <bpol>
35.09

>  <nRing>
3

>  <nHRing>
3

>  <naRing>
2

>  <naHRing>
2

>  <nARing 2>
1

>  <nAHRing 2>
1

>  <nFRing>
0

>  <nFHRing>
0

>  <nFaRing>
0

>  <nFaHRing>
0

>  <nFARing 2>
0

>  <nFAHRing 2>
0

>  <nRot>
6

>  <SLogP>
2.49

>  <SMR>
103.26

>  <TopoPSA(NO)>
63.05

>  <TopoPSA>
63.05

>  <JGI1>
0.18

>  <JGI2>
0.08

>  <JGI3>
0.06

>  <JGI4>
0.03

>  <JGI5>
0.02

>  <Diameter>
15

>  <Radius>
8

>  <TMWC10>
128.79

>  <TSRW10>
74.86

>  <MW>
355.24

>  <AMW>
6.46

>  <WPath>
1934

>  <WPol>
38

>  <Zagreb1>
132

>  <Zagreb2>
153

>  <mZagreb2>
5.86

>  <yes>


>  <nAR-cont>
0.816016

>  <nHA-cont>
0.892715677

>  <MWHBN>
0.318339346

>  <MWHBN-cont>
0.782712689

>  <TPSA-cont>
0.559871848

>  <pka_cont>
0.97

>  <yes.1>


>  <BBB_SCORE>
4.487544407

>  <MMFF94 Energy>
-10.43

$$$$
Compound 2155
Actelion Java MolfileCreator 2.0

  0  0  0  0  0  0              0 V3000
M  V30 BEGIN CTAB
M  V30 COUNTS 48 50 0 0 0
M  V30 BEGIN ATOM
M  V30 1 O -0.1579 -2.1333 -0.4737 0
M  V30 2 C 0.7106 -1.4799 0.1055 0
M  V30 3 N 1.2147 -0.2949 -0.4445 0
M  V30 4 C 1.2804 -1.9135 1.4457 0
M  V30 5 C 0.6001 0.2126 -1.6901 0 CFG=2
M  V30 6 C 2.1911 0.5824 0.2107 0
M  V30 7 N 0.6738 -3.1222 1.9813 0
M  V30 8 C 1.6891 0.6954 -2.6638 0
M  V30 9 C -0.4612 1.2798 -1.3593 0
M  V30 10 C 3.2748 1.0458 -0.7565 0
M  V30 11 C -0.524 -3.2258 2.6537 0
M  V30 12 C 1.2684 -4.3566 1.9961 0
M  V30 13 C 2.6757 1.6625 -2.0151 0
M  V30 14 C -1.4038 1.5581 -2.5291 0
M  V30 15 N -0.6948 -4.4562 3.0996 0
M  V30 16 C -1.4905 -2.1041 2.8489 0
M  V30 17 C 0.3989 -5.1653 2.6847 0
M  V30 18 N -2.3368 2.6301 -2.2265 0
M  V30 19 C -1.284 -1.4195 4.1905 0
M  V30 20 N -3.3468 2.4169 -1.3634 0
M  V30 21 C -2.315 3.9001 -2.7283 0
M  V30 22 C -3.9868 3.5881 -1.3292 0
M  V30 23 C -3.3853 4.5506 -2.1601 0
M  V30 24 H 1.1365 -1.1239 2.1897 0
M  V30 25 H 2.3527 -2.1078 1.3344 0
M  V30 26 H 0.0816 -0.6169 -2.1861 0
M  V30 27 H 1.6412 1.4422 0.6105 0
M  V30 28 H 2.667 0.0888 1.0601 0
M  V30 29 H 1.2503 1.1555 -3.5546 0
M  V30 30 H 2.2507 -0.1803 -3.0159 0
M  V30 31 H 0.0144 2.2122 -1.0324 0
M  V30 32 H -1.059 0.9389 -0.5028 0
M  V30 33 H 3.8979 0.188 -1.0388 0
M  V30 34 H 3.9302 1.7711 -0.2617 0
M  V30 35 H 2.2229 -4.5545 1.5302 0
M  V30 36 H 2.1766 2.6064 -1.7684 0
M  V30 37 H 3.4762 1.9028 -2.7239 0
M  V30 38 H -1.9993 0.6722 -2.7773 0
M  V30 39 H -0.8547 1.8562 -3.4274 0
M  V30 40 H -2.5099 -2.5056 2.804 0
M  V30 41 H -1.4118 -1.3678 2.0429 0
M  V30 42 H 0.5036 -6.2186 2.9082 0
M  V30 43 H -2.0126 -0.6131 4.3207 0
M  V30 44 H -0.281 -0.9868 4.2674 0
M  V30 45 H -1.408 -2.1259 5.0186 0
M  V30 46 H -1.5631 4.2268 -3.4323 0
M  V30 47 H -4.8626 3.6903 -0.7012 0
M  V30 48 H -3.6912 5.5738 -2.3231 0
M  V30 END ATOM
M  V30 BEGIN BOND
M  V30 1 2 1 2
M  V30 2 1 2 3
M  V30 3 1 2 4
M  V30 4 1 3 5
M  V30 5 1 3 6
M  V30 6 1 4 7
M  V30 7 1 5 8
M  V30 8 1 5 9
M  V30 9 1 6 10
M  V30 10 1 7 11
M  V30 11 1 7 12
M  V30 12 1 8 13
M  V30 13 1 9 14
M  V30 14 2 11 15
M  V30 15 1 11 16
M  V30 16 2 12 17
M  V30 17 1 14 18
M  V30 18 1 16 19
M  V30 19 1 18 20
M  V30 20 1 18 21
M  V30 21 2 20 22
M  V30 22 2 21 23
M  V30 23 1 10 13
M  V30 24 1 15 17
M  V30 25 1 22 23
M  V30 26 1 4 24
M  V30 27 1 4 25
M  V30 28 1 5 26
M  V30 29 1 6 27
M  V30 30 1 6 28
M  V30 31 1 8 29
M  V30 32 1 8 30
M  V30 33 1 9 31
M  V30 34 1 9 32
M  V30 35 1 10 33
M  V30 36 1 10 34
M  V30 37 1 12 35
M  V30 38 1 13 36
M  V30 39 1 13 37
M  V30 40 1 14 38
M  V30 41 1 14 39
M  V30 42 1 16 40
M  V30 43 1 16 41
M  V30 44 1 17 42
M  V30 45 1 19 43
M  V30 46 1 19 44
M  V30 47 1 19 45
M  V30 48 1 21 46
M  V30 49 1 22 47
M  V30 50 1 23 48
M  V30 END BOND
M  V30 BEGIN COLLECTION
M  V30 MDLV30/STEABS ATOMS=(1 5)
M  V30 END COLLECTION
M  V30 END CTAB
M  END
>  <Column 1>
2651

>  <level_0>
3882

>  <index>
3882

>  <Unnamed: 0>
3882

>  <NO.>
3894

>  <Name>
triazolam

>  <IUPAC_name>
2-(2-ethylimidazol-1-yl)-1-[(2r)-2-(2-pyrazol-1-ylethyl)piperidin-1-yl]ethanone

>  <SMILES>
CCc1nccn1CC(=O)N1CCCC[C@@H]1CCn1cccn1

>  <CID>
100005556

>  <logBB>


>  <BBB+/BBB->
BBB+

>  <Inchi>
InChI=1S/C17H25N5O/c1-2-16-18-9-13-20(16)14-17(23)22-11-4-3-6-15(22)7-12-21-10-5-8-19-21/h5-8-10-13-15H-2-4-6-7-11-12-14H2-1H3/t15-/m1/s1

>  <threshold>
-1

>  <reference>
R16|R10|

>  <group>
B

>  <Class>
1

>  <ABC>
17.67

>  <ABCGG>
15.35

>  <nAcid>
0

>  <nBase>
0

>  <nAromAtom>
10

>  <nAromBond>
10

>  <nAtom>
48

>  <nHeavyAtom>
23

>  <nSpiro>
0

>  <nBridgehead>
0

>  <nHetero>
6

>  <nN>
5

>  <nO>
1

>  <nF>
0

>  <BalabanJ>
1.5

>  <BertzCT>
618.73

>  <nBonds>
50

>  <nBondsO>
25

>  <nBondsS>
39

>  <nBondsD>
1

>  <nBondsT>
0

>  <nBondsA>
10

>  <nBondsM>
11

>  <nBondsKS>
45

>  <nBondsKD>
5

>  <RNCG>
0.18

>  <RPCG>
0.13

>  <FCSP3>
0.59

>  <SZ>
28.33

>  <Sm>
26.26

>  <Sv>
28.28

>  <Sse>
47.74

>  <Sp>
30.76

>  <Si>
54.85

>  <MZ>
0.59

>  <Mm>
0.55

>  <Mv>
0.59

>  <Mse>
0.99

>  <Mp>
0.64

>  <Mi>
1.14

>  <NsCH3>
1

>  <NdCH2>
0

>  <NssCH2>
8

>  <NtCH>
0

>  <NdsCH>
0

>  <NaaCH>
5

>  <NsssCH>
1

>  <NddC>
0

>  <NtsC>
0

>  <NdssC>
1

>  <NaasC>
1

>  <NaaaC>
0

>  <NssssC>
0

>  <NsNH3>
0

>  <NsNH2>
0

>  <NssNH2>
0

>  <NdNH>
0

>  <NssNH>
0

>  <NaaNH>
0

>  <NtN>
0

>  <NsssNH>
0

>  <NdsN>
0

>  <NaaN>
2

>  <NsssN>
1

>  <NddsN>
0

>  <NaasN>
2

>  <NssssN>
0

>  <NsOH>
0

>  <NdO>
1

>  <NssO>
0

>  <NaaO>
0

>  <NsF>
0

>  <NsSiH3>
0

>  <NssSiH2>
0

>  <NsssSiH>
0

>  <NssssSi>
0

>  <NsPH2>
0

>  <NssPH>
0

>  <NsssP>
0

>  <NdsssP>
0

>  <NsssssP>
0

>  <NsSH>
0

>  <NdS>
0

>  <NssS>
0

>  <NaaS>
0

>  <NdssS>
0

>  <NddssS>
0

>  <NsCl>
0

>  <NsBr>
0

>  <NsI>
0

>  <fragCpx>
119.06

>  <fMF>
0.42

>  <nHBAcc>
5

>  <nHBDon>
0

>  <Kier1>
17.81

>  <Kier2>
8.91

>  <Lipinski>
1

>  <GhoseFilter>
1

>  <FilterItLogS>
-2.61

>  <VMcGowan>
252.08

>  <LabuteASA>
136.66

>  <PEOE_VSA1>
9.47

>  <PEOE_VSA2>
9.48

>  <PEOE_VSA3>
4.98

>  <PEOE_VSA4>
5.1

>  <PEOE_VSA5>
0

>  <PEOE_VSA6>
6.92

>  <PEOE_VSA7>
31.75

>  <PEOE_VSA8>
50.34

>  <PEOE_VSA9>
0

>  <PEOE_VSA10>
12.37

>  <PEOE_VSA11>
0

>  <PEOE_VSA12>
5.91

>  <PEOE_VSA13>
0

>  <SMR_VSA1>
4.79

>  <SMR_VSA2>
0

>  <SMR_VSA3>
24.23

>  <SMR_VSA4>
0

>  <SMR_VSA5>
58.16

>  <SMR_VSA6>
6.54

>  <SMR_VSA7>
36.68

>  <SMR_VSA8>
0

>  <SMR_VSA9>
0

>  <SlogP_VSA1>
0

>  <SlogP_VSA2>
42.73

>  <SlogP_VSA3>
24.3

>  <SlogP_VSA4>
0

>  <SlogP_VSA5>
38.43

>  <SlogP_VSA6>
30.85

>  <SlogP_VSA7>
0

>  <SlogP_VSA8>
0

>  <SlogP_VSA9>
0

>  <SlogP_VSA10>
0

>  <SlogP_VSA11>
0

>  <EState_VSA1>
0

>  <EState_VSA2>
5.91

>  <EState_VSA3>
12.59

>  <EState_VSA4>
44.6

>  <EState_VSA5>
6.42

>  <EState_VSA6>
12.39

>  <EState_VSA7>
27.71

>  <EState_VSA8>
21.91

>  <EState_VSA9>
0

>  <EState_VSA10>
4.79

>  <VSA_EState1>
3.92

>  <VSA_EState2>
19.14

>  <VSA_EState3>
4.25

>  <VSA_EState4>
0

>  <VSA_EState5>
1.19

>  <VSA_EState6>
2.27

>  <VSA_EState7>
12.69

>  <VSA_EState8>
4.21

>  <VSA_EState9>
0

>  <apol>
51.36

>  <bpol>
32.22

>  <nRing>
3

>  <nHRing>
3

>  <naRing>
2

>  <naHRing>
2

>  <nARing 2>
1

>  <nAHRing 2>
1

>  <nFRing>
0

>  <nFHRing>
0

>  <nFaRing>
0

>  <nFaHRing>
0

>  <nFARing 2>
0

>  <nFAHRing 2>
0

>  <nRot>
6

>  <SLogP>
2.11

>  <SMR>
87.8

>  <TopoPSA(NO)>
55.95

>  <TopoPSA>
55.95

>  <JGI1>
0.14

>  <JGI2>
0.07

>  <JGI3>
0.04

>  <JGI4>
0.03

>  <JGI5>
0.02

>  <Diameter>
12

>  <Radius>
6

>  <TMWC10>
121.34

>  <TSRW10>
72.2

>  <MW>
315.21

>  <AMW>
6.57

>  <WPath>
1280

>  <WPol>
30

>  <Zagreb1>
116

>  <Zagreb2>
134

>  <mZagreb2>
5.25

>  <yes>


>  <nAR-cont>
0.816016

>  <nHA-cont>
0.967789328

>  <MWHBN>
0.281624226

>  <MWHBN-cont>
0.891936848

>  <TPSA-cont>
0.609434257

>  <pka_cont>
0.97

>  <yes.1>


>  <BBB_SCORE>
4.825579115

>  <MMFF94 Energy>
12.152

$$$$
Compound 2156
Actelion Java MolfileCreator 2.0

  0  0  0  0  0  0              0 V3000
M  V30 BEGIN CTAB
M  V30 COUNTS 48 50 0 0 0
M  V30 BEGIN ATOM
M  V30 1 O 1.3468 0.0791 1.4261 0
M  V30 2 C 0.7245 0.0411 0.3713 0
M  V30 3 N -0.554 -0.4371 0.262 0
M  V30 4 C 1.2903 0.5244 -0.9416 0
M  V30 5 C -1.3208 -0.9506 1.3878 0 CFG=1
M  V30 6 C 2.7203 1.0138 -0.7678 0
M  V30 7 C -2.7905 -0.6044 1.2049 0
M  V30 8 C -1.1579 -2.469 1.3584 0
M  V30 9 N 3.2746 1.5027 -2.0167 0
M  V30 10 N -3.2844 -0.6305 -0.0656 0
M  V30 11 C -3.583 -0.2925 2.3079 0
M  V30 12 C 0.2165 -3.0463 1.7999 0
M  V30 13 C -1.7632 -3.2726 2.5437 0
M  V30 14 C 3.2433 2.7951 -2.4925 0
M  V30 15 C 3.9306 0.7305 -2.9364 0
M  V30 16 C -4.5934 -0.3355 -0.2268 0
M  V30 17 C -4.9274 0.006 2.1055 0
M  V30 18 C -0.5527 -4.2269 2.4338 0
M  V30 19 N 3.8359 2.8596 -3.6701 0
M  V30 20 C 2.6239 3.9358 -1.749 0
M  V30 21 C 4.2666 1.5914 -3.951 0
M  V30 22 C -5.4451 -0.015 0.8161 0
M  V30 23 O -0.0295 -4.7246 3.6756 0
M  V30 24 C 2.56 5.2113 -2.5753 0
M  V30 25 H -1.054 -0.4049 -0.6211 0
M  V30 26 H 0.6483 1.3278 -1.3219 0
M  V30 27 H 1.2512 -0.2997 -1.6639 0
M  V30 28 H -0.9358 -0.5182 2.3186 0
M  V30 29 H 3.3718 0.2048 -0.4151 0
M  V30 30 H 2.7849 1.8191 -0.0277 0
M  V30 31 H -1.474 -2.8959 0.3923 0
M  V30 32 H -3.1657 -0.2777 3.3101 0
M  V30 33 H 0.7618 -2.436 2.5293 0
M  V30 34 H 0.8939 -3.3108 0.9833 0
M  V30 35 H -1.8103 -2.7282 3.4944 0
M  V30 36 H -2.7382 -3.7279 2.3485 0
M  V30 37 H 4.0991 -0.3282 -2.7995 0
M  V30 38 H -4.953 -0.3645 -1.2516 0
M  V30 39 H -5.5662 0.255 2.9486 0
M  V30 40 H -0.7193 -5.0497 1.7269 0
M  V30 41 H 3.2043 4.1291 -0.8395 0
M  V30 42 H 1.6072 3.6664 -1.4417 0
M  V30 43 H 4.7963 1.3672 -4.8674 0
M  V30 44 H -6.4882 0.2142 0.6282 0
M  V30 45 H -0.6785 -5.3827 3.9778 0
M  V30 46 H 2.0937 6.0147 -1.996 0
M  V30 47 H 1.9706 5.0639 -3.4867 0
M  V30 48 H 3.561 5.5443 -2.87 0
M  V30 END ATOM
M  V30 BEGIN BOND
M  V30 1 2 1 2
M  V30 2 1 2 3
M  V30 3 1 2 4
M  V30 4 1 3 5
M  V30 5 1 4 6
M  V30 6 1 5 7
M  V30 7 1 5 8
M  V30 8 1 6 9
M  V30 9 2 7 10
M  V30 10 1 7 11
M  V30 11 1 8 12
M  V30 12 1 8 13
M  V30 13 1 9 14
M  V30 14 1 9 15
M  V30 15 1 10 16
M  V30 16 2 11 17
M  V30 17 1 12 18
M  V30 18 2 14 19
M  V30 19 1 14 20
M  V30 20 2 15 21
M  V30 21 2 16 22
M  V30 22 1 18 23
M  V30 23 1 20 24
M  V30 24 1 13 18
M  V30 25 1 17 22
M  V30 26 1 19 21
M  V30 27 1 3 25
M  V30 28 1 4 26
M  V30 29 1 4 27
M  V30 30 1 5 28
M  V30 31 1 6 29
M  V30 32 1 6 30
M  V30 33 1 8 31
M  V30 34 1 11 32
M  V30 35 1 12 33
M  V30 36 1 12 34
M  V30 37 1 13 35
M  V30 38 1 13 36
M  V30 39 1 15 37
M  V30 40 1 16 38
M  V30 41 1 17 39
M  V30 42 1 18 40
M  V30 43 1 20 41
M  V30 44 1 20 42
M  V30 45 1 21 43
M  V30 46 1 22 44
M  V30 47 1 23 45
M  V30 48 1 24 46
M  V30 49 1 24 47
M  V30 50 1 24 48
M  V30 END BOND
M  V30 BEGIN COLLECTION
M  V30 MDLV30/STEABS ATOMS=(1 5)
M  V30 END COLLECTION
M  V30 END CTAB
M  END
>  <Column 1>
2652

>  <level_0>
3883

>  <index>
3883

>  <Unnamed: 0>
3883

>  <NO.>
3895

>  <Name>
haloperidol

>  <IUPAC_name>
3-(2-ethylimidazol-1-yl)-n-[(r)-(3-hydroxycyclobutyl)-pyridin-2-ylmethyl]propanamide

>  <SMILES>
CCc1nccn1CCC(=O)N[C@@H](c1ccccn1)C1CC(O)C1

>  <CID>
100003559

>  <logBB>


>  <BBB+/BBB->
BBB+

>  <Inchi>
InChI=1S/C18H24N4O2/c1-2-16-20-8-10-22(16)9-6-17(24)21-18(13-11-14(23)12-13)15-5-3-4-7-19-15/h3-5-7-8-10-13-14-18-23H-2-6-9-11-12H2-1H3-(H-21-24)/t13?-14?-18-/m1/s1

>  <threshold>
-1

>  <reference>
R16|R16|R10|R10|

>  <group>
B

>  <Class>
1

>  <ABC>
18.48

>  <ABCGG>
15.87

>  <nAcid>
0

>  <nBase>
0

>  <nAromAtom>
11

>  <nAromBond>
11

>  <nAtom>
48

>  <nHeavyAtom>
24

>  <nSpiro>
0

>  <nBridgehead>
0

>  <nHetero>
6

>  <nN>
4

>  <nO>
2

>  <nF>
0

>  <BalabanJ>
1.48

>  <BertzCT>
664.67

>  <nBonds>
50

>  <nBondsO>
26

>  <nBondsS>
38

>  <nBondsD>
1

>  <nBondsT>
0

>  <nBondsA>
11

>  <nBondsM>
12

>  <nBondsKS>
44

>  <nBondsKD>
6

>  <RNCG>
0.19

>  <RPCG>
0.11

>  <FCSP3>
0.5

>  <SZ>
29.33

>  <Sm>
27.34

>  <Sv>
28.96

>  <Sse>
47.97

>  <Sp>
31.18

>  <Si>
54.57

>  <MZ>
0.61

>  <Mm>
0.57

>  <Mv>
0.6

>  <Mse>
1

>  <Mp>
0.65

>  <Mi>
1.14

>  <NsCH3>
1

>  <NdCH2>
0

>  <NssCH2>
5

>  <NtCH>
0

>  <NdsCH>
0

>  <NaaCH>
6

>  <NsssCH>
3

>  <NddC>
0

>  <NtsC>
0

>  <NdssC>
1

>  <NaasC>
2

>  <NaaaC>
0

>  <NssssC>
0

>  <NsNH3>
0

>  <NsNH2>
0

>  <NssNH2>
0

>  <NdNH>
0

>  <NssNH>
1

>  <NaaNH>
0

>  <NtN>
0

>  <NsssNH>
0

>  <NdsN>
0

>  <NaaN>
2

>  <NsssN>
0

>  <NddsN>
0

>  <NaasN>
1

>  <NssssN>
0

>  <NsOH>
1

>  <NdO>
1

>  <NssO>
0

>  <NaaO>
0

>  <NsF>
0

>  <NsSiH3>
0

>  <NssSiH2>
0

>  <NsssSiH>
0

>  <NssssSi>
0

>  <NsPH2>
0

>  <NssPH>
0

>  <NsssP>
0

>  <NdsssP>
0

>  <NsssssP>
0

>  <NsSH>
0

>  <NdS>
0

>  <NssS>
0

>  <NaaS>
0

>  <NdssS>
0

>  <NddssS>
0

>  <NsCl>
0

>  <NsBr>
0

>  <NsI>
0

>  <fragCpx>
124.06

>  <fMF>
0.42

>  <nHBAcc>
5

>  <nHBDon>
2

>  <Kier1>
18.78

>  <Kier2>
9.09

>  <Lipinski>
1

>  <GhoseFilter>
1

>  <FilterItLogS>
-3.34

>  <VMcGowan>
257.76

>  <LabuteASA>
141.5

>  <PEOE_VSA1>
14.99

>  <PEOE_VSA2>
9.78

>  <PEOE_VSA3>
4.98

>  <PEOE_VSA4>
0

>  <PEOE_VSA5>
0

>  <PEOE_VSA6>
12.99

>  <PEOE_VSA7>
30.89

>  <PEOE_VSA8>
37.98

>  <PEOE_VSA9>
17.84

>  <PEOE_VSA10>
5.82

>  <PEOE_VSA11>
0

>  <PEOE_VSA12>
5.91

>  <PEOE_VSA13>
0

>  <SMR_VSA1>
9.9

>  <SMR_VSA2>
0

>  <SMR_VSA3>
19.85

>  <SMR_VSA4>
5.92

>  <SMR_VSA5>
51.3

>  <SMR_VSA6>
0

>  <SMR_VSA7>
48.31

>  <SMR_VSA8>
0

>  <SMR_VSA9>
0

>  <SlogP_VSA1>
5.32

>  <SlogP_VSA2>
31.65

>  <SlogP_VSA3>
17.76

>  <SlogP_VSA4>
5.92

>  <SlogP_VSA5>
43.75

>  <SlogP_VSA6>
36.79

>  <SlogP_VSA7>
0

>  <SlogP_VSA8>
0

>  <SlogP_VSA9>
0

>  <SlogP_VSA10>
0

>  <SlogP_VSA11>
0

>  <EState_VSA1>
0

>  <EState_VSA2>
23.97

>  <EState_VSA3>
25.81

>  <EState_VSA4>
17.94

>  <EState_VSA5>
0

>  <EState_VSA6>
12.39

>  <EState_VSA7>
28.96

>  <EState_VSA8>
22.21

>  <EState_VSA9>
0

>  <EState_VSA10>
9.9

>  <VSA_EState1>
2.02

>  <VSA_EState2>
21.07

>  <VSA_EState3>
12.7

>  <VSA_EState4>
0.86

>  <VSA_EState5>
1.24

>  <VSA_EState6>
5.59

>  <VSA_EState7>
7.84

>  <VSA_EState8>
2.68

>  <VSA_EState9>
0

>  <apol>
52.07

>  <bpol>
29.5

>  <nRing>
3

>  <nHRing>
2

>  <naRing>
2

>  <naHRing>
2

>  <nARing 2>
1

>  <nAHRing 2>
0

>  <nFRing>
0

>  <nFHRing>
0

>  <nFaRing>
0

>  <nFaHRing>
0

>  <nFARing 2>
0

>  <nFAHRing 2>
0

>  <nRot>
7

>  <SLogP>
1.86

>  <SMR>
90.07

>  <TopoPSA(NO)>
80.04

>  <TopoPSA>
80.04

>  <JGI1>
0.17

>  <JGI2>
0.07

>  <JGI3>
0.05

>  <JGI4>
0.04

>  <JGI5>
0.02

>  <Diameter>
12

>  <Radius>
6

>  <TMWC10>
124.11

>  <TSRW10>
72.07

>  <MW>
328.19

>  <AMW>
6.84

>  <WPath>
1463

>  <WPol>
31

>  <Zagreb1>
122

>  <Zagreb2>
141

>  <mZagreb2>
5.42

>  <yes>


>  <nAR-cont>
0.816016

>  <nHA-cont>
0.94700071

>  <MWHBN>
0.386398443

>  <MWHBN-cont>
0.529650927

>  <TPSA-cont>
0.441271098

>  <pka_cont>
0.97

>  <yes.1>


>  <BBB_SCORE>
3.925035296

>  <MMFF94 Energy>
-1.0069

$$$$
Compound 2157
Actelion Java MolfileCreator 2.0

  0  0  0  0  0  0              0 V3000
M  V30 BEGIN CTAB
M  V30 COUNTS 58 60 0 0 0
M  V30 BEGIN ATOM
M  V30 1 O 0.3951 2.5308 2.2933 0
M  V30 2 C -0.044 1.3805 2.3574 0
M  V30 3 N -1.0985 0.9725 1.5375 0
M  V30 4 C 0.5234 0.3243 3.3308 0
M  V30 5 C -1.6164 1.9487 0.576 0
M  V30 6 C -1.8803 -0.2586 1.7107 0
M  V30 7 N 1.7973 0.7318 3.961 0
M  V30 8 C -2.2582 1.2728 -0.5829 0
M  V30 9 C -2.0269 -1.0049 0.393 0
M  V30 10 C 2.0407 -0.0411 5.1805 0
M  V30 11 C 2.9132 0.796 3.015 0
M  V30 12 N -2.4431 -0.0769 -0.6365 0
M  V30 13 C -2.7857 1.7557 -1.7599 0
M  V30 14 C 3.4338 0.1049 5.8042 0
M  V30 15 C 3.594 -0.5262 2.6435 0
M  V30 16 N -3.0469 -0.5106 -1.7542 0
M  V30 17 C -3.2604 0.6146 -2.458 0
M  V30 18 C 4.6091 -0.4769 5.005 0
M  V30 19 C 4.2204 -1.3193 3.7941 0
M  V30 20 C -3.9369 0.5611 -3.8042 0 CFG=1
M  V30 21 O -4.1456 1.8608 -4.3783 0
M  V30 22 C -3.2198 -0.3519 -4.8043 0
M  V30 23 C -1.8435 0.1732 -5.1759 0
M  V30 24 O -1.554 1.3577 -4.9831 0
M  V30 25 N -0.9623 -0.7137 -5.7816 0
M  V30 26 C -1.2794 -2.0892 -6.1347 0
M  V30 27 C 0.4014 -0.2847 -6.0474 0
M  V30 28 H -0.2435 0.1953 4.1054 0
M  V30 29 H 0.6551 -0.6286 2.8072 0
M  V30 30 H -0.8102 2.6034 0.2272 0
M  V30 31 H -2.3518 2.5674 1.1035 0
M  V30 32 H -1.449 -0.9204 2.4636 0
M  V30 33 H -2.8642 0.0474 2.0897 0
M  V30 34 H -1.0709 -1.4283 0.0666 0
M  V30 35 H -2.7733 -1.8014 0.4713 0
M  V30 36 H 1.315 0.2941 5.9334 0
M  V30 37 H 1.8264 -1.1052 5.02 0
M  V30 38 H 2.5978 1.2795 2.0827 0
M  V30 39 H 3.6643 1.4872 3.418 0
M  V30 40 H -2.8275 2.7871 -2.0833 0
M  V30 41 H 3.6345 1.1616 6.0235 0
M  V30 42 H 3.4117 -0.3947 6.7819 0
M  V30 43 H 2.8962 -1.1742 2.0996 0
M  V30 44 H 4.3921 -0.2874 1.9279 0
M  V30 45 H 5.2742 0.3361 4.6879 0
M  V30 46 H 5.2113 -1.0955 5.6828 0
M  V30 47 H 3.5448 -2.1259 4.1025 0
M  V30 48 H 5.1157 -1.8266 3.4125 0
M  V30 49 H -4.9418 0.1517 -3.6403 0
M  V30 50 H -3.2471 2.1934 -4.5912 0
M  V30 51 H -3.1333 -1.3588 -4.3828 0
M  V30 52 H -3.8007 -0.4044 -5.7329 0
M  V30 53 H -2.3545 -2.2561 -6.2191 0
M  V30 54 H -0.8211 -2.3289 -7.099 0
M  V30 55 H -0.8693 -2.7468 -5.3629 0
M  V30 56 H 0.5922 0.7354 -5.705 0
M  V30 57 H 0.5815 -0.335 -7.1254 0
M  V30 58 H 1.0888 -0.9619 -5.5314 0
M  V30 END ATOM
M  V30 BEGIN BOND
M  V30 1 2 1 2
M  V30 2 1 2 3
M  V30 3 1 2 4
M  V30 4 1 3 5
M  V30 5 1 3 6
M  V30 6 1 4 7
M  V30 7 1 5 8
M  V30 8 1 6 9
M  V30 9 1 7 10
M  V30 10 1 7 11
M  V30 11 1 8 12
M  V30 12 2 8 13
M  V30 13 1 10 14
M  V30 14 1 11 15
M  V30 15 1 12 16
M  V30 16 1 13 17
M  V30 17 1 14 18
M  V30 18 1 15 19
M  V30 19 1 17 20
M  V30 20 1 20 21
M  V30 21 1 20 22
M  V30 22 1 22 23
M  V30 23 2 23 24
M  V30 24 1 23 25
M  V30 25 1 25 26
M  V30 26 1 25 27
M  V30 27 1 9 12
M  V30 28 2 16 17
M  V30 29 1 18 19
M  V30 30 1 4 28
M  V30 31 1 4 29
M  V30 32 1 5 30
M  V30 33 1 5 31
M  V30 34 1 6 32
M  V30 35 1 6 33
M  V30 36 1 9 34
M  V30 37 1 9 35
M  V30 38 1 10 36
M  V30 39 1 10 37
M  V30 40 1 11 38
M  V30 41 1 11 39
M  V30 42 1 13 40
M  V30 43 1 14 41
M  V30 44 1 14 42
M  V30 45 1 15 43
M  V30 46 1 15 44
M  V30 47 1 18 45
M  V30 48 1 18 46
M  V30 49 1 19 47
M  V30 50 1 19 48
M  V30 51 1 20 49
M  V30 52 1 21 50
M  V30 53 1 22 51
M  V30 54 1 22 52
M  V30 55 1 26 53
M  V30 56 1 26 54
M  V30 57 1 26 55
M  V30 58 1 27 56
M  V30 59 1 27 57
M  V30 60 1 27 58
M  V30 END BOND
M  V30 BEGIN COLLECTION
M  V30 MDLV30/STEABS ATOMS=(1 20)
M  V30 END COLLECTION
M  V30 END CTAB
M  END
>  <Column 1>
2653

>  <level_0>
3884

>  <index>
3884

>  <Unnamed: 0>
3884

>  <NO.>
3896

>  <Name>
lidocaine

>  <IUPAC_name>
(3s)-3-[5-[2-(azepan-1-yl)acetyl]-6-7-dihydro-4h-pyrazolo[1-5-a]pyrazin-2-yl]-3-hydroxy-n-n-dimethylpropanamide

>  <SMILES>
CN(C)C(=O)C[C@H](O)c1cc2n(n1)CCN(C(=O)CN1CCCCCC1)C2

>  <CID>
100003676

>  <logBB>


>  <BBB+/BBB->
BBB+

>  <Inchi>
InChI=1S/C19H31N5O3/c1-21(2)18(26)12-17(25)16-11-15-13-23(9-10-24(15)20-16)19(27)14-22-7-5-3-4-6-8-22/h11-17-25H-3-10-12-14H2-1-2H3/t17-/m0/s1

>  <threshold>
-1

>  <reference>
R16|R16|R10|R10|

>  <group>
B

>  <Class>
1

>  <ABC>
20.89

>  <ABCGG>
16.51

>  <nAcid>
0

>  <nBase>
1

>  <nAromAtom>
5

>  <nAromBond>
5

>  <nAtom>
58

>  <nHeavyAtom>
27

>  <nSpiro>
0

>  <nBridgehead>
0

>  <nHetero>
8

>  <nN>
5

>  <nO>
3

>  <nF>
0

>  <BalabanJ>
1.46

>  <BertzCT>
664.3

>  <nBonds>
60

>  <nBondsO>
29

>  <nBondsS>
53

>  <nBondsD>
2

>  <nBondsT>
0

>  <nBondsA>
5

>  <nBondsM>
7

>  <nBondsKS>
56

>  <nBondsKD>
4

>  <RNCG>
0.15

>  <RPCG>
0.09

>  <FCSP3>
0.74

>  <SZ>
34

>  <Sm>
31.43

>  <Sv>
33.33

>  <Sse>
58.07

>  <Sp>
36.11

>  <Si>
66.52

>  <MZ>
0.59

>  <Mm>
0.54

>  <Mv>
0.57

>  <Mse>
1

>  <Mp>
0.62

>  <Mi>
1.15

>  <NsCH3>
2

>  <NdCH2>
0

>  <NssCH2>
11

>  <NtCH>
0

>  <NdsCH>
0

>  <NaaCH>
1

>  <NsssCH>
1

>  <NddC>
0

>  <NtsC>
0

>  <NdssC>
2

>  <NaasC>
2

>  <NaaaC>
0

>  <NssssC>
0

>  <NsNH3>
0

>  <NsNH2>
0

>  <NssNH2>
0

>  <NdNH>
0

>  <NssNH>
0

>  <NaaNH>
0

>  <NtN>
0

>  <NsssNH>
0

>  <NdsN>
0

>  <NaaN>
1

>  <NsssN>
3

>  <NddsN>
0

>  <NaasN>
1

>  <NssssN>
0

>  <NsOH>
1

>  <NdO>
2

>  <NssO>
0

>  <NaaO>
0

>  <NsF>
0

>  <NsSiH3>
0

>  <NssSiH2>
0

>  <NsssSiH>
0

>  <NssssSi>
0

>  <NsPH2>
0

>  <NssPH>
0

>  <NsssP>
0

>  <NdsssP>
0

>  <NsssssP>
0

>  <NsSH>
0

>  <NdS>
0

>  <NssS>
0

>  <NaaS>
0

>  <NdssS>
0

>  <NddssS>
0

>  <NsCl>
0

>  <NsBr>
0

>  <NsI>
0

>  <fragCpx>
139.08

>  <fMF>
0.31

>  <nHBAcc>
6

>  <nHBDon>
1

>  <Kier1>
21.7

>  <Kier2>
10.16

>  <Lipinski>
1

>  <GhoseFilter>
1

>  <FilterItLogS>
-1.66

>  <VMcGowan>
296.3

>  <LabuteASA>
160.26

>  <PEOE_VSA1>
14.91

>  <PEOE_VSA2>
19.17

>  <PEOE_VSA3>
0

>  <PEOE_VSA4>
5.1

>  <PEOE_VSA5>
0

>  <PEOE_VSA6>
12.84

>  <PEOE_VSA7>
32

>  <PEOE_VSA8>
20.64

>  <PEOE_VSA9>
37.44

>  <PEOE_VSA10>
6.1

>  <PEOE_VSA11>
0

>  <PEOE_VSA12>
11.81

>  <PEOE_VSA13>
0

>  <SMR_VSA1>
14.7

>  <SMR_VSA2>
0

>  <SMR_VSA3>
24.48

>  <SMR_VSA4>
0

>  <SMR_VSA5>
51.3

>  <SMR_VSA6>
40.27

>  <SMR_VSA7>
17.45

>  <SMR_VSA8>
0

>  <SMR_VSA9>
0

>  <SlogP_VSA1>
0

>  <SlogP_VSA2>
81.68

>  <SlogP_VSA3>
22.68

>  <SlogP_VSA4>
0

>  <SlogP_VSA5>
49.6

>  <SlogP_VSA6>
6.07

>  <SlogP_VSA7>
0

>  <SlogP_VSA8>
0

>  <SlogP_VSA9>
0

>  <SlogP_VSA10>
0

>  <SlogP_VSA11>
0

>  <EState_VSA1>
6.1

>  <EState_VSA2>
18.24

>  <EState_VSA3>
31.87

>  <EState_VSA4>
18.78

>  <EState_VSA5>
30.58

>  <EState_VSA6>
14.1

>  <EState_VSA7>
15.65

>  <EState_VSA8>
10

>  <EState_VSA9>
0

>  <EState_VSA10>
14.7

>  <VSA_EState1>
1.84

>  <VSA_EState2>
30.11

>  <VSA_EState3>
14.73

>  <VSA_EState4>
1.42

>  <VSA_EState5>
0.02

>  <VSA_EState6>
1.82

>  <VSA_EState7>
3.96

>  <VSA_EState8>
4.26

>  <VSA_EState9>
3.34

>  <apol>
60.31

>  <bpol>
39.68

>  <nRing>
3

>  <nHRing>
3

>  <naRing>
1

>  <naHRing>
1

>  <nARing 2>
2

>  <nAHRing 2>
2

>  <nFRing>
1

>  <nFHRing>
1

>  <nFaRing>
0

>  <nFaHRing>
0

>  <nFARing 2>
1

>  <nFAHRing 2>
1

>  <nRot>
5

>  <SLogP>
0.61

>  <SMR>
100.82

>  <TopoPSA(NO)>
81.91

>  <TopoPSA>
81.91

>  <JGI1>
0.21

>  <JGI2>
0.08

>  <JGI3>
0.04

>  <JGI4>
0.05

>  <JGI5>
0.02

>  <Diameter>
15

>  <Radius>
8

>  <TMWC10>
131.24

>  <TSRW10>
76

>  <MW>
377.24

>  <AMW>
6.5

>  <WPath>
2093

>  <WPol>
42

>  <Zagreb1>
138

>  <Zagreb2>
159

>  <mZagreb2>
5.94

>  <yes>


>  <nAR-cont>
1

>  <nHA-cont>
0.860070871

>  <MWHBN>
0.360403643

>  <MWHBN-cont>
0.630877406

>  <TPSA-cont>
0.428217337

>  <pka_cont>
0.97

>  <yes.1>


>  <BBB_SCORE>
4.147821653

>  <MMFF94 Energy>
35.179

$$$$
Compound 2158
Actelion Java MolfileCreator 2.0

  0  0  0  0  0  0              0 V3000
M  V30 BEGIN CTAB
M  V30 COUNTS 50 52 0 0 0
M  V30 BEGIN ATOM
M  V30 1 S 5.0905 0.3278 -2.7892 0
M  V30 2 O 4.6779 1.3911 -3.6805 0
M  V30 3 O 5.4541 -0.9769 -3.2997 0
M  V30 4 N 6.3661 0.9011 -1.8229 0
M  V30 5 C 3.7696 0.0842 -1.6147 0
M  V30 6 C 6.228 2.2556 -1.2626 0
M  V30 7 C 6.9836 -0.0554 -0.8898 0
M  V30 8 C 3.6146 -1.16 -1.0011 0
M  V30 9 C 2.8629 1.1278 -1.3654 0
M  V30 10 C 2.5572 -1.3178 -0.116 0
M  V30 11 C 1.797 0.9452 -0.4734 0
M  V30 12 C 1.6367 -0.2899 0.1341 0
M  V30 13 C 2.2108 -2.5575 0.6478 0
M  V30 14 N 0.6837 -0.7394 1.0674 0
M  V30 15 C 1.1504 -2.0253 1.6118 0
M  V30 16 C -0.5109 -0.2039 1.5163 0
M  V30 17 O -1.1106 -0.7407 2.454 0
M  V30 18 C -1.065 1.0234 0.8089 0
M  V30 19 S -2.8194 1.3637 1.1652 0
M  V30 20 C -3.5605 -0.1501 0.4771 0
M  V30 21 C -5.0679 -0.0997 0.5595 0
M  V30 22 C -5.8253 0.4102 -0.5064 0
M  V30 23 C -5.7261 -0.5361 1.7211 0
M  V30 24 C -7.2186 0.4712 -0.4225 0
M  V30 25 C -7.1185 -0.479 1.8144 0
M  V30 26 C -7.8604 0.0244 0.7393 0
M  V30 27 N -9.324 0.0876 0.8315 0 CHG=1
M  V30 28 O -9.8561 -0.3235 1.8728 0
M  V30 29 O -9.9444 0.5451 -0.1393 0 CHG=-1
M  V30 30 H 5.8595 2.9602 -2.013 0
M  V30 31 H 5.5567 2.2575 -0.3994 0
M  V30 32 H 7.2081 2.6214 -0.9395 0
M  V30 33 H 7.1611 -1.0209 -1.3706 0
M  V30 34 H 6.3597 -0.1983 -0.0031 0
M  V30 35 H 7.9598 0.3224 -0.5687 0
M  V30 36 H 4.2947 -1.9812 -1.2099 0
M  V30 37 H 2.982 2.0884 -1.8647 0
M  V30 38 H 1.148 1.7895 -0.2859 0
M  V30 39 H 3.0659 -2.9798 1.1824 0
M  V30 40 H 1.7866 -3.3059 -0.0292 0
M  V30 41 H 1.577 -1.8269 2.6031 0
M  V30 42 H 0.3184 -2.7272 1.7352 0
M  V30 43 H -0.4987 1.8953 1.1468 0
M  V30 44 H -0.9681 0.9147 -0.274 0
M  V30 45 H -3.2029 -1.0338 1.0143 0
M  V30 46 H -3.2525 -0.2603 -0.5684 0
M  V30 47 H -5.3314 0.771 -1.4068 0
M  V30 48 H -5.1499 -0.9145 2.5648 0
M  V30 49 H -7.7827 0.8717 -1.2621 0
M  V30 50 H -7.6024 -0.8218 2.7265 0
M  V30 END ATOM
M  V30 BEGIN BOND
M  V30 1 2 1 2
M  V30 2 2 1 3
M  V30 3 1 1 4
M  V30 4 1 1 5
M  V30 5 1 4 6
M  V30 6 1 4 7
M  V30 7 2 5 8
M  V30 8 1 5 9
M  V30 9 1 8 10
M  V30 10 2 9 11
M  V30 11 2 10 12
M  V30 12 1 10 13
M  V30 13 1 12 14
M  V30 14 1 13 15
M  V30 15 1 14 16
M  V30 16 2 16 17
M  V30 17 1 16 18
M  V30 18 1 18 19
M  V30 19 1 19 20
M  V30 20 1 20 21
M  V30 21 2 21 22
M  V30 22 1 21 23
M  V30 23 1 22 24
M  V30 24 2 23 25
M  V30 25 2 24 26
M  V30 26 1 26 27
M  V30 27 2 27 28
M  V30 28 1 27 29
M  V30 29 1 11 12
M  V30 30 1 14 15
M  V30 31 1 25 26
M  V30 32 1 6 30
M  V30 33 1 6 31
M  V30 34 1 6 32
M  V30 35 1 7 33
M  V30 36 1 7 34
M  V30 37 1 7 35
M  V30 38 1 8 36
M  V30 39 1 9 37
M  V30 40 1 11 38
M  V30 41 1 13 39
M  V30 42 1 13 40
M  V30 43 1 15 41
M  V30 44 1 15 42
M  V30 45 1 18 43
M  V30 46 1 18 44
M  V30 47 1 20 45
M  V30 48 1 20 46
M  V30 49 1 22 47
M  V30 50 1 23 48
M  V30 51 1 24 49
M  V30 52 1 25 50
M  V30 END BOND
M  V30 END CTAB
M  END
>  <Column 1>
2654

>  <level_0>
3885

>  <index>
3885

>  <Unnamed: 0>
3885

>  <NO.>
3897

>  <Name>
aciclovir

>  <IUPAC_name>
n-n-dimethyl-1-[2-[(4-nitrophenyl)methylsulfanyl]acetyl]-2-3-dihydroindole-5-sulfonamide

>  <SMILES>
CN(C)S(=O)(=O)c1ccc2c(c1)CCN2C(=O)CSCc1ccc([N+](=O)[O-])cc1

>  <CID>
100002022

>  <logBB>


>  <BBB+/BBB->
BBB+

>  <Inchi>
InChI=1S/C19H21N3O5S2/c1-20(2)29(26-27)17-7-8-18-15(11-17)9-10-21(18)19(23)13-28-12-14-3-5-16(6-4-14)22(24)25/h3-8-11H-9-10-12-13H2-1-2H3

>  <threshold>
-1

>  <reference>
R16|R10|

>  <group>
B

>  <Class>
1

>  <ABC>
22.5

>  <ABCGG>
17.48

>  <nAcid>
0

>  <nBase>
0

>  <nAromAtom>
12

>  <nAromBond>
12

>  <nAtom>
50

>  <nHeavyAtom>
29

>  <nSpiro>
0

>  <nBridgehead>
0

>  <nHetero>
10

>  <nN>
3

>  <nO>
5

>  <nF>
0

>  <BalabanJ>
1.4

>  <BertzCT>
1036.31

>  <nBonds>
52

>  <nBondsO>
31

>  <nBondsS>
36

>  <nBondsD>
4

>  <nBondsT>
0

>  <nBondsA>
12

>  <nBondsM>
16

>  <nBondsKS>
42

>  <nBondsKD>
10

>  <RNCG>
0.14

>  <RPCG>
0.13

>  <FCSP3>
0.32

>  <SZ>
38

>  <Sm>
36.26

>  <Sv>
32.91

>  <Sse>
51.12

>  <Sp>
35.24

>  <Si>
56.12

>  <MZ>
0.76

>  <Mm>
0.73

>  <Mv>
0.66

>  <Mse>
1.02

>  <Mp>
0.7

>  <Mi>
1.12

>  <NsCH3>
2

>  <NdCH2>
0

>  <NssCH2>
4

>  <NtCH>
0

>  <NdsCH>
0

>  <NaaCH>
7

>  <NsssCH>
0

>  <NddC>
0

>  <NtsC>
0

>  <NdssC>
1

>  <NaasC>
5

>  <NaaaC>
0

>  <NssssC>
0

>  <NsNH3>
0

>  <NsNH2>
0

>  <NssNH2>
0

>  <NdNH>
0

>  <NssNH>
0

>  <NaaNH>
0

>  <NtN>
0

>  <NsssNH>
0

>  <NdsN>
0

>  <NaaN>
0

>  <NsssN>
2

>  <NddsN>
1

>  <NaasN>
0

>  <NssssN>
0

>  <NsOH>
0

>  <NdO>
4

>  <NssO>
0

>  <NaaO>
0

>  <NsF>
0

>  <NsSiH3>
0

>  <NssSiH2>
0

>  <NsssSiH>
0

>  <NssssSi>
0

>  <NsPH2>
0

>  <NssPH>
0

>  <NsssP>
0

>  <NdsssP>
0

>  <NsssssP>
0

>  <NsSH>
0

>  <NdS>
0

>  <NssS>
1

>  <NaaS>
0

>  <NdssS>
0

>  <NddssS>
1

>  <NsCl>
0

>  <NsBr>
0

>  <NsI>
0

>  <fragCpx>
149.1

>  <fMF>
0.38

>  <nHBAcc>
6

>  <nHBDon>
0

>  <Kier1>
23.66

>  <Kier2>
10.08

>  <Lipinski>
1

>  <GhoseFilter>
1

>  <FilterItLogS>
-4.54

>  <VMcGowan>
303.58

>  <LabuteASA>
173.26

>  <PEOE_VSA1>
4.9

>  <PEOE_VSA2>
14.91

>  <PEOE_VSA3>
12.72

>  <PEOE_VSA4>
0

>  <PEOE_VSA5>
11.76

>  <PEOE_VSA6>
12.13

>  <PEOE_VSA7>
35.75

>  <PEOE_VSA8>
44.21

>  <PEOE_VSA9>
15.57

>  <PEOE_VSA10>
0

>  <PEOE_VSA11>
0

>  <PEOE_VSA12>
15.93

>  <PEOE_VSA13>
5.69

>  <SMR_VSA1>
18.14

>  <SMR_VSA2>
0

>  <SMR_VSA3>
4.31

>  <SMR_VSA4>
0

>  <SMR_VSA5>
17.07

>  <SMR_VSA6>
31.29

>  <SMR_VSA7>
63.71

>  <SMR_VSA8>
0

>  <SMR_VSA9>
0

>  <SlogP_VSA1>
4.9

>  <SlogP_VSA2>
49.95

>  <SlogP_VSA3>
26.99

>  <SlogP_VSA4>
10.11

>  <SlogP_VSA5>
11.13

>  <SlogP_VSA6>
47.36

>  <SlogP_VSA7>
0

>  <SlogP_VSA8>
0

>  <SlogP_VSA9>
0

>  <SlogP_VSA10>
11.37

>  <SlogP_VSA11>
0

>  <EState_VSA1>
14.95

>  <EState_VSA2>
22.24

>  <EState_VSA3>
18.72

>  <EState_VSA4>
16.81

>  <EState_VSA5>
48.36

>  <EState_VSA6>
29.17

>  <EState_VSA7>
0

>  <EState_VSA8>
0

>  <EState_VSA9>
0

>  <EState_VSA10>
23.33

>  <VSA_EState1>
25.74

>  <VSA_EState2>
24.77

>  <VSA_EState3>
10.69

>  <VSA_EState4>
2.55

>  <VSA_EState5>
0.8

>  <VSA_EState6>
11.14

>  <VSA_EState7>
0.62

>  <VSA_EState8>
0.53

>  <VSA_EState9>
-0.53

>  <apol>
58.84

>  <bpol>
35.64

>  <nRing>
3

>  <nHRing>
1

>  <naRing>
2

>  <naHRing>
0

>  <nARing 2>
1

>  <nAHRing 2>
1

>  <nFRing>
1

>  <nFHRing>
1

>  <nFaRing>
0

>  <nFaHRing>
0

>  <nFARing 2>
1

>  <nFAHRing 2>
1

>  <nRot>
7

>  <SLogP>
2.67

>  <SMR>
112.63

>  <TopoPSA(NO)>
100.83

>  <TopoPSA>
134.51

>  <JGI1>
0.24

>  <JGI2>
0.11

>  <JGI3>
0.05

>  <JGI4>
0.04

>  <JGI5>
0.03

>  <Diameter>
17

>  <Radius>
9

>  <TMWC10>
136.79

>  <TSRW10>
78.59

>  <MW>
435.09

>  <AMW>
8.7

>  <WPath>
2673

>  <WPol>
47

>  <Zagreb1>
152

>  <Zagreb2>
179

>  <mZagreb2>
6.28

>  <yes>


>  <nAR-cont>
0.816016

>  <nHA-cont>
0.785905698

>  <MWHBN>
0.287648226

>  <MWHBN-cont>
0.876003167

>  <TPSA-cont>
0

>  <pka_cont>
0.97

>  <yes.1>


>  <BBB_SCORE>
3.400926448

>  <MMFF94 Energy>
65.78

$$$$
Compound 2159
Actelion Java MolfileCreator 2.0

  0  0  0  0  0  0              0 V3000
M  V30 BEGIN CTAB
M  V30 COUNTS 46 49 0 0 0
M  V30 BEGIN ATOM
M  V30 1 S -0.2418 -2.6628 2.986 0
M  V30 2 N 1.0348 -3.7004 2.7533 0
M  V30 3 C 0.212 -1.6385 1.6788 0
M  V30 4 C 1.7375 -3.2394 1.7151 0
M  V30 5 N 1.2959 -2.08 1.0869 0
M  V30 6 N -0.4831 -0.5324 1.3438 0
M  V30 7 N 2.8663 -3.8169 1.2254 0
M  V30 8 C -0.0954 0.2864 0.2121 0 CFG=1
M  V30 9 C 3.6532 -3.1392 0.2142 0
M  V30 10 C 3.4559 -4.9475 1.9166 0
M  V30 11 C -1.348 0.6569 -0.5592 0
M  V30 12 C 0.645 1.5563 0.6729 0
M  V30 13 C -1.5789 0.1056 -1.814 0
M  V30 14 C -2.3305 1.523 -0.0664 0
M  V30 15 C 2.0987 1.3728 1.1939 0
M  V30 16 C 1.2572 2.443 -0.4487 0
M  V30 17 N -2.6593 0.3725 -2.584 0
M  V30 18 C -3.4671 1.8198 -0.8333 0
M  V30 19 C 2.6085 1.7332 -0.2162 0
M  V30 20 C -3.5875 1.215 -2.101 0
M  V30 21 C -4.4667 2.6929 -0.368 0
M  V30 22 O 3.7753 2.5699 -0.2658 0
M  V30 23 C -4.71 1.5074 -2.8642 0
M  V30 24 C -5.5833 2.9689 -1.1547 0
M  V30 25 C -5.7055 2.3752 -2.4056 0
M  V30 26 H -1.3147 -0.2739 1.8593 0
M  V30 27 H 0.5585 -0.2766 -0.467 0
M  V30 28 H 3.0356 -2.8476 -0.6428 0
M  V30 29 H 4.1253 -2.2423 0.6302 0
M  V30 30 H 4.4484 -3.7834 -0.1761 0
M  V30 31 H 2.7042 -5.7064 2.1619 0
M  V30 32 H 3.942 -4.6205 2.8422 0
M  V30 33 H 4.2114 -5.4444 1.2982 0
M  V30 34 H 0.0427 2.1365 1.3855 0
M  V30 35 H -0.8787 -0.5971 -2.2602 0
M  V30 36 H -2.2177 1.973 0.9167 0
M  V30 37 H 2.3817 2.1009 1.9642 0
M  V30 38 H 2.3776 0.3783 1.5482 0
M  V30 39 H 0.8404 2.3247 -1.4525 0
M  V30 40 H 1.2703 3.512 -0.2042 0
M  V30 41 H 2.7424 0.8505 -0.854 0
M  V30 42 H -4.3799 3.163 0.6087 0
M  V30 43 H 3.8791 2.8046 -1.2039 0
M  V30 44 H -4.8122 1.0449 -3.843 0
M  V30 45 H -6.3543 3.6443 -0.7928 0
M  V30 46 H -6.5721 2.5821 -3.0283 0
M  V30 END ATOM
M  V30 BEGIN BOND
M  V30 1 1 1 2
M  V30 2 1 1 3
M  V30 3 2 2 4
M  V30 4 2 3 5
M  V30 5 1 3 6
M  V30 6 1 4 7
M  V30 7 1 6 8
M  V30 8 1 7 9
M  V30 9 1 7 10
M  V30 10 1 8 11
M  V30 11 1 8 12
M  V30 12 1 11 13
M  V30 13 2 11 14
M  V30 14 1 12 15
M  V30 15 1 12 16
M  V30 16 2 13 17
M  V30 17 1 14 18
M  V30 18 1 15 19
M  V30 19 1 17 20
M  V30 20 2 18 21
M  V30 21 1 19 22
M  V30 22 2 20 23
M  V30 23 1 21 24
M  V30 24 1 23 25
M  V30 25 1 4 5
M  V30 26 1 16 19
M  V30 27 1 18 20
M  V30 28 2 24 25
M  V30 29 1 6 26
M  V30 30 1 8 27
M  V30 31 1 9 28
M  V30 32 1 9 29
M  V30 33 1 9 30
M  V30 34 1 10 31
M  V30 35 1 10 32
M  V30 36 1 10 33
M  V30 37 1 12 34
M  V30 38 1 13 35
M  V30 39 1 14 36
M  V30 40 1 15 37
M  V30 41 1 15 38
M  V30 42 1 16 39
M  V30 43 1 16 40
M  V30 44 1 19 41
M  V30 45 1 21 42
M  V30 46 1 22 43
M  V30 47 1 23 44
M  V30 48 1 24 45
M  V30 49 1 25 46
M  V30 END BOND
M  V30 BEGIN COLLECTION
M  V30 MDLV30/STEABS ATOMS=(1 8)
M  V30 END COLLECTION
M  V30 END CTAB
M  END
>  <Column 1>
2655

>  <level_0>
3886

>  <index>
3886

>  <Unnamed: 0>
3886

>  <NO.>
3898

>  <Name>
chlordiazepoxide

>  <IUPAC_name>
3-[(r)-[[3-(dimethylamino)-1-2-4-thiadiazol-5-yl]amino]-quinolin-3-ylmethyl]cyclobutan-1-ol

>  <SMILES>
CN(C)c1nsc(N[C@@H](c2cnc3ccccc3c2)C2CC(O)C2)n1

>  <CID>
100002712

>  <logBB>


>  <BBB+/BBB->
BBB+

>  <Inchi>
InChI=1S/C18H21N5OS/c1-23(2)17-21-18(25-22-17)20-16(12-8-14(24)9-12)13-7-11-5-3-4-6-15(11)19-10-13/h3-7-10-12-14-16-24H-8-9H2-1-2H3-(H-20-21-22)/t12?-14?-16-/m1/s1

>  <threshold>
-1

>  <reference>
R16|R10|R10|

>  <group>
B

>  <Class>
1

>  <ABC>
19.97

>  <ABCGG>
15.94

>  <nAcid>
0

>  <nBase>
0

>  <nAromAtom>
15

>  <nAromBond>
16

>  <nAtom>
46

>  <nHeavyAtom>
25

>  <nSpiro>
0

>  <nBridgehead>
0

>  <nHetero>
7

>  <nN>
5

>  <nO>
1

>  <nF>
0

>  <BalabanJ>
1.38

>  <BertzCT>
874.54

>  <nBonds>
49

>  <nBondsO>
28

>  <nBondsS>
33

>  <nBondsD>
0

>  <nBondsT>
0

>  <nBondsA>
16

>  <nBondsM>
16

>  <nBondsKS>
42

>  <nBondsKD>
7

>  <RNCG>
0.2

>  <RPCG>
0.12

>  <FCSP3>
0.39

>  <SZ>
31.33

>  <Sm>
29.59

>  <Sv>
29.38

>  <Sse>
46.05

>  <Sp>
31.9

>  <Si>
51.94

>  <MZ>
0.68

>  <Mm>
0.64

>  <Mv>
0.64

>  <Mse>
1

>  <Mp>
0.69

>  <Mi>
1.13

>  <NsCH3>
2

>  <NdCH2>
0

>  <NssCH2>
2

>  <NtCH>
0

>  <NdsCH>
0

>  <NaaCH>
6

>  <NsssCH>
3

>  <NddC>
0

>  <NtsC>
0

>  <NdssC>
0

>  <NaasC>
3

>  <NaaaC>
2

>  <NssssC>
0

>  <NsNH3>
0

>  <NsNH2>
0

>  <NssNH2>
0

>  <NdNH>
0

>  <NssNH>
1

>  <NaaNH>
0

>  <NtN>
0

>  <NsssNH>
0

>  <NdsN>
0

>  <NaaN>
3

>  <NsssN>
1

>  <NddsN>
0

>  <NaasN>
0

>  <NssssN>
0

>  <NsOH>
1

>  <NdO>
0

>  <NssO>
0

>  <NaaO>
0

>  <NsF>
0

>  <NsSiH3>
0

>  <NssSiH2>
0

>  <NsssSiH>
0

>  <NssssSi>
0

>  <NsPH2>
0

>  <NssPH>
0

>  <NsssP>
0

>  <NdsssP>
0

>  <NsssssP>
0

>  <NsSH>
0

>  <NdS>
0

>  <NssS>
0

>  <NaaS>
1

>  <NdssS>
0

>  <NddssS>
0

>  <NsCl>
0

>  <NsBr>
0

>  <NsI>
0

>  <fragCpx>
184.07

>  <fMF>
0.46

>  <nHBAcc>
7

>  <nHBDon>
2

>  <Kier1>
18.37

>  <Kier2>
7.94

>  <Lipinski>
1

>  <GhoseFilter>
1

>  <FilterItLogS>
-4.07

>  <VMcGowan>
263.06

>  <LabuteASA>
150.26

>  <PEOE_VSA1>
15.32

>  <PEOE_VSA2>
4.98

>  <PEOE_VSA3>
0

>  <PEOE_VSA4>
9.36

>  <PEOE_VSA5>
0

>  <PEOE_VSA6>
18.2

>  <PEOE_VSA7>
36.46

>  <PEOE_VSA8>
37.21

>  <PEOE_VSA9>
17.66

>  <PEOE_VSA10>
0

>  <PEOE_VSA11>
0

>  <PEOE_VSA12>
11.08

>  <PEOE_VSA13>
0

>  <SMR_VSA1>
5.11

>  <SMR_VSA2>
0

>  <SMR_VSA3>
14.34

>  <SMR_VSA4>
5.92

>  <SMR_VSA5>
24.99

>  <SMR_VSA6>
24.31

>  <SMR_VSA7>
42.09

>  <SMR_VSA8>
0

>  <SMR_VSA9>
0

>  <SlogP_VSA1>
10.22

>  <SlogP_VSA2>
39.65

>  <SlogP_VSA3>
0

>  <SlogP_VSA4>
5.92

>  <SlogP_VSA5>
24.45

>  <SlogP_VSA6>
36.53

>  <SlogP_VSA7>
0

>  <SlogP_VSA8>
10.9

>  <SlogP_VSA9>
0

>  <SlogP_VSA10>
11.08

>  <SlogP_VSA11>
0

>  <EState_VSA1>
0

>  <EState_VSA2>
12.15

>  <EState_VSA3>
11.87

>  <EState_VSA4>
34.44

>  <EState_VSA5>
11.53

>  <EState_VSA6>
0

>  <EState_VSA7>
43.39

>  <EState_VSA8>
31.79

>  <EState_VSA9>
0

>  <EState_VSA10>
5.11

>  <VSA_EState1>
4.36

>  <VSA_EState2>
11.02

>  <VSA_EState3>
15.2

>  <VSA_EState4>
2.11

>  <VSA_EState5>
1.07

>  <VSA_EState6>
10.37

>  <VSA_EState7>
3.32

>  <VSA_EState8>
0

>  <VSA_EState9>
3.86

>  <apol>
53.26

>  <bpol>
29.23

>  <nRing>
4

>  <nHRing>
2

>  <naRing>
3

>  <naHRing>
2

>  <nARing 2>
1

>  <nAHRing 2>
0

>  <nFRing>
1

>  <nFHRing>
1

>  <nFaRing>
1

>  <nFaHRing>
1

>  <nFARing 2>
0

>  <nFAHRing 2>
0

>  <nRot>
5

>  <SLogP>
3.08

>  <SMR>
101.07

>  <TopoPSA(NO)>
74.17

>  <TopoPSA>
102.41

>  <JGI1>
0.2

>  <JGI2>
0.07

>  <JGI3>
0.05

>  <JGI4>
0.05

>  <JGI5>
0.02

>  <Diameter>
12

>  <Radius>
6

>  <TMWC10>
128.95

>  <TSRW10>
73.84

>  <MW>
355.15

>  <AMW>
7.72

>  <WPath>
1521

>  <WPol>
36

>  <Zagreb1>
136

>  <Zagreb2>
161

>  <mZagreb2>
5.36

>  <yes>


>  <nAR-cont>
0.816016

>  <nHA-cont>
0.921834225

>  <MWHBN>
0.477569519

>  <MWHBN-cont>
0

>  <TPSA-cont>
0.285114607

>  <pka_cont>
0.97

>  <yes.1>


>  <BBB_SCORE>
2.793079439

>  <MMFF94 Energy>
-25.065

$$$$
Compound 2160
Actelion Java MolfileCreator 2.0

  0  0  0  0  0  0              0 V3000
M  V30 BEGIN CTAB
M  V30 COUNTS 41 42 0 0 0
M  V30 BEGIN ATOM
M  V30 1 O -1.6545 1.4968 -0.0787 0
M  V30 2 C -0.8681 1.35 -1.0195 0
M  V30 3 N 0.384 0.7679 -0.8492 0
M  V30 4 C -1.2779 1.8158 -2.4103 0
M  V30 5 C 0.7185 0.214 0.4643 0
M  V30 6 C 1.3531 0.5502 -1.914 0
M  V30 7 C -0.8286 3.2153 -2.7384 0
M  V30 8 C 0.4605 -1.2923 0.5303 0
M  V30 9 C -0.2275 3.5032 -3.96 0
M  V30 10 C -1.0388 4.2858 -1.864 0
M  V30 11 C 0.7442 -1.8422 1.9317 0
M  V30 12 N 0.1897 4.7335 -4.334 0
M  V30 13 C -0.6239 5.5649 -2.2225 0
M  V30 14 C 0.5831 -3.366 1.9949 0 CFG=2
M  V30 15 C -0.0178 5.7364 -3.4548 0
M  V30 16 O -0.771 -3.7146 1.6604 0
M  V30 17 C 0.8374 -3.9236 3.3887 0
M  V30 18 C -1.413 -4.2602 2.8206 0
M  V30 19 C -0.5389 -3.9176 4.0054 0
M  V30 20 H -2.374 1.7859 -2.4637 0
M  V30 21 H -0.9312 1.0939 -3.1574 0
M  V30 22 H 1.7715 0.436 0.6734 0
M  V30 23 H 0.1315 0.719 1.2398 0
M  V30 24 H 2.3642 0.6957 -1.5227 0
M  V30 25 H 1.2453 -0.4749 -2.2787 0
M  V30 26 H 1.2123 1.2377 -2.747 0
M  V30 27 H 1.0928 -1.8084 -0.2018 0
M  V30 28 H -0.5797 -1.4978 0.2501 0
M  V30 29 H -0.0548 2.7285 -4.7025 0
M  V30 30 H -1.5263 4.1317 -0.9029 0
M  V30 31 H 0.0538 -1.3621 2.6361 0
M  V30 32 H 1.7633 -1.5721 2.2333 0
M  V30 33 H -0.7736 6.407 -1.5563 0
M  V30 34 H 1.2528 -3.8353 1.2656 0
M  V30 35 H 0.3232 6.7153 -3.7789 0
M  V30 36 H 1.577 -3.3607 3.9649 0
M  V30 37 H 1.1912 -4.9589 3.3089 0
M  V30 38 H -1.486 -5.3442 2.6829 0
M  V30 39 H -2.4232 -3.8511 2.9101 0
M  V30 40 H -0.7802 -2.9138 4.3737 0
M  V30 41 H -0.6511 -4.6205 4.835 0
M  V30 END ATOM
M  V30 BEGIN BOND
M  V30 1 2 1 2
M  V30 2 1 2 3
M  V30 3 1 2 4
M  V30 4 1 3 5
M  V30 5 1 3 6
M  V30 6 1 4 7
M  V30 7 1 5 8
M  V30 8 2 7 9
M  V30 9 1 7 10
M  V30 10 1 8 11
M  V30 11 1 9 12
M  V30 12 2 10 13
M  V30 13 1 11 14
M  V30 14 2 12 15
M  V30 15 1 14 16
M  V30 16 1 14 17
M  V30 17 1 16 18
M  V30 18 1 17 19
M  V30 19 1 13 15
M  V30 20 1 18 19
M  V30 21 1 4 20
M  V30 22 1 4 21
M  V30 23 1 5 22
M  V30 24 1 5 23
M  V30 25 1 6 24
M  V30 26 1 6 25
M  V30 27 1 6 26
M  V30 28 1 8 27
M  V30 29 1 8 28
M  V30 30 1 9 29
M  V30 31 1 10 30
M  V30 32 1 11 31
M  V30 33 1 11 32
M  V30 34 1 13 33
M  V30 35 1 14 34
M  V30 36 1 15 35
M  V30 37 1 17 36
M  V30 38 1 17 37
M  V30 39 1 18 38
M  V30 40 1 18 39
M  V30 41 1 19 40
M  V30 42 1 19 41
M  V30 END BOND
M  V30 BEGIN COLLECTION
M  V30 MDLV30/STEABS ATOMS=(1 14)
M  V30 END COLLECTION
M  V30 END CTAB
M  END
>  <Column 1>
2656

>  <level_0>
3887

>  <index>
3887

>  <Unnamed: 0>
3887

>  <NO.>
3899

>  <Name>
flumazenil

>  <IUPAC_name>
n-methyl-n-[3-[(2s)-oxolan-2-yl]propyl]-2-pyridin-3-ylacetamide

>  <SMILES>
CN(CCC[C@H]1CCCO1)C(=O)Cc1cccnc1

>  <CID>
100003373

>  <logBB>


>  <BBB+/BBB->
BBB+

>  <Inchi>
InChI=1S/C15H22N2O2/c1-17(9-3-6-14-7-4-10-19-14)15(18)11-13-5-2-8-16-12-13/h2-5-8-12-14H-3-4-6-7-9-11H2-1H3/t14-/m0/s1

>  <threshold>
-1

>  <reference>
R16|R10|

>  <group>
B

>  <Class>
-1

>  <ABC>
14.32

>  <ABCGG>
12.25

>  <nAcid>
0

>  <nBase>
0

>  <nAromAtom>
6

>  <nAromBond>
6

>  <nAtom>
41

>  <nHeavyAtom>
19

>  <nSpiro>
0

>  <nBridgehead>
0

>  <nHetero>
4

>  <nN>
2

>  <nO>
2

>  <nF>
0

>  <BalabanJ>
1.57

>  <BertzCT>
388.39

>  <nBonds>
42

>  <nBondsO>
20

>  <nBondsS>
35

>  <nBondsD>
1

>  <nBondsT>
0

>  <nBondsA>
6

>  <nBondsM>
7

>  <nBondsKS>
38

>  <nBondsKD>
4

>  <RNCG>
0.25

>  <RPCG>
0.15

>  <FCSP3>
0.6

>  <SZ>
23.67

>  <Sm>
21.84

>  <Sv>
23.91

>  <Sse>
40.75

>  <Sp>
26.06

>  <Si>
46.57

>  <MZ>
0.58

>  <Mm>
0.53

>  <Mv>
0.58

>  <Mse>
0.99

>  <Mp>
0.64

>  <Mi>
1.14

>  <NsCH3>
1

>  <NdCH2>
0

>  <NssCH2>
7

>  <NtCH>
0

>  <NdsCH>
0

>  <NaaCH>
4

>  <NsssCH>
1

>  <NddC>
0

>  <NtsC>
0

>  <NdssC>
1

>  <NaasC>
1

>  <NaaaC>
0

>  <NssssC>
0

>  <NsNH3>
0

>  <NsNH2>
0

>  <NssNH2>
0

>  <NdNH>
0

>  <NssNH>
0

>  <NaaNH>
0

>  <NtN>
0

>  <NsssNH>
0

>  <NdsN>
0

>  <NaaN>
1

>  <NsssN>
1

>  <NddsN>
0

>  <NaasN>
0

>  <NssssN>
0

>  <NsOH>
0

>  <NdO>
1

>  <NssO>
1

>  <NaaO>
0

>  <NsF>
0

>  <NsSiH3>
0

>  <NssSiH2>
0

>  <NsssSiH>
0

>  <NssssSi>
0

>  <NsPH2>
0

>  <NssPH>
0

>  <NsssP>
0

>  <NdsssP>
0

>  <NsssssP>
0

>  <NsSH>
0

>  <NdS>
0

>  <NssS>
0

>  <NaaS>
0

>  <NdssS>
0

>  <NddssS>
0

>  <NsCl>
0

>  <NsBr>
0

>  <NsI>
0

>  <fragCpx>
58.04

>  <fMF>
0.41

>  <nHBAcc>
3

>  <nHBDon>
0

>  <Kier1>
15.39

>  <Kier2>
8.32

>  <Lipinski>
1

>  <GhoseFilter>
1

>  <FilterItLogS>
-3.33

>  <VMcGowan>
214.99

>  <LabuteASA>
114.33

>  <PEOE_VSA1>
9.64

>  <PEOE_VSA2>
9.78

>  <PEOE_VSA3>
0

>  <PEOE_VSA4>
0

>  <PEOE_VSA5>
0

>  <PEOE_VSA6>
6.07

>  <PEOE_VSA7>
37.31

>  <PEOE_VSA8>
32.59

>  <PEOE_VSA9>
12.52

>  <PEOE_VSA10>
0

>  <PEOE_VSA11>
0

>  <PEOE_VSA12>
5.91

>  <PEOE_VSA13>
0

>  <SMR_VSA1>
9.53

>  <SMR_VSA2>
0

>  <SMR_VSA3>
9.88

>  <SMR_VSA4>
0

>  <SMR_VSA5>
38.21

>  <SMR_VSA6>
20.2

>  <SMR_VSA7>
30.09

>  <SMR_VSA8>
0

>  <SMR_VSA9>
0

>  <SlogP_VSA1>
0

>  <SlogP_VSA2>
42.09

>  <SlogP_VSA3>
15.95

>  <SlogP_VSA4>
0

>  <SlogP_VSA5>
31.25

>  <SlogP_VSA6>
24.53

>  <SlogP_VSA7>
0

>  <SlogP_VSA8>
0

>  <SlogP_VSA9>
0

>  <SlogP_VSA10>
0

>  <SlogP_VSA11>
0

>  <EState_VSA1>
0

>  <EState_VSA2>
5.91

>  <EState_VSA3>
12.52

>  <EState_VSA4>
31.56

>  <EState_VSA5>
12.84

>  <EState_VSA6>
12.39

>  <EState_VSA7>
24.08

>  <EState_VSA8>
4.98

>  <EState_VSA9>
4.74

>  <EState_VSA10>
4.79

>  <VSA_EState1>
5.58

>  <VSA_EState2>
17.84

>  <VSA_EState3>
0

>  <VSA_EState4>
0.97

>  <VSA_EState5>
0.15

>  <VSA_EState6>
3.8

>  <VSA_EState7>
8.75

>  <VSA_EState8>
1.71

>  <VSA_EState9>
1.87

>  <apol>
43.52

>  <bpol>
27.52

>  <nRing>
2

>  <nHRing>
2

>  <naRing>
1

>  <naHRing>
1

>  <nARing 2>
1

>  <nAHRing 2>
1

>  <nFRing>
0

>  <nFHRing>
0

>  <nFaRing>
0

>  <nFaHRing>
0

>  <nFARing 2>
0

>  <nFAHRing 2>
0

>  <nRot>
6

>  <SLogP>
2.04

>  <SMR>
73.79

>  <TopoPSA(NO)>
42.43

>  <TopoPSA>
42.43

>  <JGI1>
0.15

>  <JGI2>
0.06

>  <JGI3>
0.04

>  <JGI4>
0.03

>  <JGI5>
0.02

>  <Diameter>
12

>  <Radius>
6

>  <TMWC10>
108.31

>  <TSRW10>
64.29

>  <MW>
262.17

>  <AMW>
6.39

>  <WPath>
851

>  <WPol>
21

>  <Zagreb1>
90

>  <Zagreb2>
99

>  <mZagreb2>
4.36

>  <yes>


>  <nAR-cont>
0.816016

>  <nHA-cont>
0.998649058

>  <MWHBN>
0.185280519

>  <MWHBN-cont>
0.992214404

>  <TPSA-cont>
0.703812253

>  <pka_cont>
0.97

>  <yes.1>


>  <BBB_SCORE>
5.195611169

>  <MMFF94 Energy>
30.412

$$$$
Compound 2161
Actelion Java MolfileCreator 2.0

  0  0  0  0  0  0              0 V3000
M  V30 BEGIN CTAB
M  V30 COUNTS 48 50 0 0 0
M  V30 BEGIN ATOM
M  V30 1 Cl 7.3684 1.6339 -3.5972 0
M  V30 2 C 5.8085 1.3387 -2.9357 0
M  V30 3 C 5.5346 0.1191 -2.3207 0
M  V30 4 C 4.8275 2.3264 -3.0101 0
M  V30 5 C 4.2672 -0.1181 -1.7814 0
M  V30 6 C 3.5612 2.087 -2.4705 0
M  V30 7 C 3.2713 0.8555 -1.8755 0
M  V30 8 N 1.9765 0.692 -1.286 0
M  V30 9 S 0.9711 -0.5526 -1.8659 0
M  V30 10 C 1.8436 1.0137 0.1585 0
M  V30 11 O 1.7368 -1.741 -2.1669 0
M  V30 12 O -0.1948 -0.6047 -1.0065 0
M  V30 13 C 0.4347 0.1579 -3.4062 0
M  V30 14 C 1.9305 -0.1876 1.1024 0
M  V30 15 O 2.7708 -1.0692 0.903 0
M  V30 16 N 1.0772 -0.2442 2.2004 0
M  V30 17 C 0.1786 0.8308 2.6311 0
M  V30 18 C 1.0436 -1.4655 2.9953 0
M  V30 19 C -1.1915 0.6619 2.0807 0
M  V30 20 O -1.6104 1.6043 1.1898 0
M  V30 21 N -2.1106 -0.2349 2.3573 0
M  V30 22 N -2.9147 1.2698 0.8415 0
M  V30 23 C -3.1574 0.1479 1.5422 0
M  V30 24 C -4.4134 -0.5938 1.4879 0
M  V30 25 C -5.4845 -0.1504 0.6971 0
M  V30 26 C -4.5702 -1.7727 2.2324 0
M  V30 27 C -6.6833 -0.8678 0.6544 0
M  V30 28 C -5.769 -2.4896 2.1889 0
M  V30 29 C -6.8245 -2.0361 1.4005 0
M  V30 30 H 6.2983 -0.6509 -2.2506 0
M  V30 31 H 5.0432 3.2818 -3.4808 0
M  V30 32 H 4.0713 -1.0696 -1.2907 0
M  V30 33 H 2.8023 2.8632 -2.5216 0
M  V30 34 H 0.8947 1.5434 0.2619 0
M  V30 35 H 2.6235 1.7202 0.4683 0
M  V30 36 H -0.0397 1.1209 -3.2075 0
M  V30 37 H -0.2901 -0.5243 -3.8557 0
M  V30 38 H 1.293 0.2709 -4.0705 0
M  V30 39 H 0.1367 0.8264 3.7265 0
M  V30 40 H 0.5975 1.7998 2.3433 0
M  V30 41 H 1.3571 -1.2268 4.016 0
M  V30 42 H 0.0234 -1.8585 3.0112 0
M  V30 43 H 1.7035 -2.241 2.5989 0
M  V30 44 H -5.3946 0.7579 0.1047 0
M  V30 45 H -3.7546 -2.144 2.85 0
M  V30 46 H -7.5048 -0.5141 0.0367 0
M  V30 47 H -5.8754 -3.4029 2.7686 0
M  V30 48 H -7.7562 -2.595 1.3653 0
M  V30 END ATOM
M  V30 BEGIN BOND
M  V30 1 1 1 2
M  V30 2 2 2 3
M  V30 3 1 2 4
M  V30 4 1 3 5
M  V30 5 2 4 6
M  V30 6 2 5 7
M  V30 7 1 7 8
M  V30 8 1 8 9
M  V30 9 1 8 10
M  V30 10 2 9 11
M  V30 11 2 9 12
M  V30 12 1 9 13
M  V30 13 1 10 14
M  V30 14 2 14 15
M  V30 15 1 14 16
M  V30 16 1 16 17
M  V30 17 1 16 18
M  V30 18 1 17 19
M  V30 19 1 19 20
M  V30 20 2 19 21
M  V30 21 1 20 22
M  V30 22 1 21 23
M  V30 23 1 23 24
M  V30 24 2 24 25
M  V30 25 1 24 26
M  V30 26 1 25 27
M  V30 27 2 26 28
M  V30 28 2 27 29
M  V30 29 1 6 7
M  V30 30 2 22 23
M  V30 31 1 28 29
M  V30 32 1 3 30
M  V30 33 1 4 31
M  V30 34 1 5 32
M  V30 35 1 6 33
M  V30 36 1 10 34
M  V30 37 1 10 35
M  V30 38 1 13 36
M  V30 39 1 13 37
M  V30 40 1 13 38
M  V30 41 1 17 39
M  V30 42 1 17 40
M  V30 43 1 18 41
M  V30 44 1 18 42
M  V30 45 1 18 43
M  V30 46 1 25 44
M  V30 47 1 26 45
M  V30 48 1 27 46
M  V30 49 1 28 47
M  V30 50 1 29 48
M  V30 END BOND
M  V30 END CTAB
M  END
>  <Column 1>
2657

>  <level_0>
3888

>  <index>
3888

>  <Unnamed: 0>
3888

>  <NO.>
3900

>  <Name>
nafcillin

>  <IUPAC_name>
2-(4-chloro-n-methylsulfonylanilino)-n-methyl-n-[(3-phenyl-1-2-4-oxadiazol-5-yl)methyl]acetamide

>  <SMILES>
CN(Cc1nc(-c2ccccc2)no1)C(=O)CN(c1ccc(Cl)cc1)S(C)(=O)=O

>  <CID>
100008982

>  <logBB>


>  <BBB+/BBB->
BBB-

>  <Inchi>
InChI=1S/C19H19ClN4O4S/c1-23(12-17-21-19(22-28-17)14-6-4-3-5-7-14)18(25)13-24(29(2-26)27)16-10-8-15(20)9-11-16/h3-11H-12-13H2-1-2H3

>  <threshold>
-1

>  <reference>
R16|R10|

>  <group>
B

>  <Class>
-1

>  <ABC>
22.54

>  <ABCGG>
18.36

>  <nAcid>
0

>  <nBase>
0

>  <nAromAtom>
17

>  <nAromBond>
17

>  <nAtom>
48

>  <nHeavyAtom>
29

>  <nSpiro>
0

>  <nBridgehead>
0

>  <nHetero>
10

>  <nN>
4

>  <nO>
4

>  <nF>
0

>  <BalabanJ>
1.48

>  <BertzCT>
1084.91

>  <nBonds>
50

>  <nBondsO>
31

>  <nBondsS>
30

>  <nBondsD>
3

>  <nBondsT>
0

>  <nBondsA>
17

>  <nBondsM>
20

>  <nBondsKS>
39

>  <nBondsKD>
11

>  <RNCG>
0.14

>  <RPCG>
0.1

>  <FCSP3>
0.21

>  <SZ>
37.67

>  <Sm>
36.21

>  <Sv>
32.32

>  <Sse>
49.25

>  <Sp>
34.18

>  <Si>
54.02

>  <MZ>
0.78

>  <Mm>
0.75

>  <Mv>
0.67

>  <Mse>
1.03

>  <Mp>
0.71

>  <Mi>
1.13

>  <NsCH3>
2

>  <NdCH2>
0

>  <NssCH2>
2

>  <NtCH>
0

>  <NdsCH>
0

>  <NaaCH>
9

>  <NsssCH>
0

>  <NddC>
0

>  <NtsC>
0

>  <NdssC>
1

>  <NaasC>
5

>  <NaaaC>
0

>  <NssssC>
0

>  <NsNH3>
0

>  <NsNH2>
0

>  <NssNH2>
0

>  <NdNH>
0

>  <NssNH>
0

>  <NaaNH>
0

>  <NtN>
0

>  <NsssNH>
0

>  <NdsN>
0

>  <NaaN>
2

>  <NsssN>
2

>  <NddsN>
0

>  <NaasN>
0

>  <NssssN>
0

>  <NsOH>
0

>  <NdO>
3

>  <NssO>
0

>  <NaaO>
1

>  <NsF>
0

>  <NsSiH3>
0

>  <NssSiH2>
0

>  <NsssSiH>
0

>  <NssssSi>
0

>  <NsPH2>
0

>  <NssPH>
0

>  <NsssP>
0

>  <NdsssP>
0

>  <NsssssP>
0

>  <NsSH>
0

>  <NdS>
0

>  <NssS>
0

>  <NaaS>
0

>  <NdssS>
0

>  <NddssS>
1

>  <NsCl>
1

>  <NsBr>
0

>  <NsI>
0

>  <fragCpx>
149.1

>  <fMF>
0.46

>  <nHBAcc>
6

>  <nHBDon>
0

>  <Kier1>
23.66

>  <Kier2>
10.54

>  <Lipinski>
1

>  <GhoseFilter>
1

>  <FilterItLogS>
-5.18

>  <VMcGowan>
299.28

>  <LabuteASA>
173.3

>  <PEOE_VSA1>
9.42

>  <PEOE_VSA2>
9.1

>  <PEOE_VSA3>
8.42

>  <PEOE_VSA4>
4.98

>  <PEOE_VSA5>
0

>  <PEOE_VSA6>
47.09

>  <PEOE_VSA7>
24.27

>  <PEOE_VSA8>
17.63

>  <PEOE_VSA9>
18.49

>  <PEOE_VSA10>
6.54

>  <PEOE_VSA11>
0

>  <PEOE_VSA12>
27.65

>  <PEOE_VSA13>
0

>  <SMR_VSA1>
17.74

>  <SMR_VSA2>
0

>  <SMR_VSA3>
15.04

>  <SMR_VSA4>
0

>  <SMR_VSA5>
6.54

>  <SMR_VSA6>
24.15

>  <SMR_VSA7>
65.51

>  <SMR_VSA8>
0

>  <SMR_VSA9>
11.39

>  <SlogP_VSA1>
4.31

>  <SlogP_VSA2>
49.21

>  <SlogP_VSA3>
21.36

>  <SlogP_VSA4>
0

>  <SlogP_VSA5>
5.89

>  <SlogP_VSA6>
59.12

>  <SlogP_VSA7>
5.02

>  <SlogP_VSA8>
11.39

>  <SlogP_VSA9>
0

>  <SlogP_VSA10>
5.69

>  <SlogP_VSA11>
0

>  <EState_VSA1>
15.93

>  <EState_VSA2>
18.98

>  <EState_VSA3>
16.53

>  <EState_VSA4>
16.12

>  <EState_VSA5>
11.95

>  <EState_VSA6>
24.27

>  <EState_VSA7>
30.33

>  <EState_VSA8>
10.14

>  <EState_VSA9>
16.12

>  <EState_VSA10>
13.21

>  <VSA_EState1>
30.58

>  <VSA_EState2>
18.24

>  <VSA_EState3>
4.38

>  <VSA_EState4>
1.14

>  <VSA_EState5>
0.24

>  <VSA_EState6>
15.5

>  <VSA_EState7>
1.04

>  <VSA_EState8>
-0.31

>  <VSA_EState9>
-2.13

>  <apol>
57.09

>  <bpol>
33.39

>  <nRing>
3

>  <nHRing>
1

>  <naRing>
3

>  <naHRing>
1

>  <nARing 2>
0

>  <nAHRing 2>
0

>  <nFRing>
0

>  <nFHRing>
0

>  <nFaRing>
0

>  <nFaHRing>
0

>  <nFARing 2>
0

>  <nFAHRing 2>
0

>  <nRot>
7

>  <SLogP>
2.81

>  <SMR>
109.85

>  <TopoPSA(NO)>
96.61

>  <TopoPSA>
104.99

>  <JGI1>
0.24

>  <JGI2>
0.09

>  <JGI3>
0.05

>  <JGI4>
0.05

>  <JGI5>
0.03

>  <Diameter>
16

>  <Radius>
8

>  <TMWC10>
136.02

>  <TSRW10>
77.92

>  <MW>
434.08

>  <AMW>
9.04

>  <WPath>
2493

>  <WPol>
42

>  <Zagreb1>
150

>  <Zagreb2>
172

>  <mZagreb2>
6.25

>  <yes>


>  <nAR-cont>
0.336376

>  <nHA-cont>
0.785905698

>  <MWHBN>
0.287982675

>  <MWHBN-cont>
0.87509329

>  <TPSA-cont>
0.267104605

>  <pka_cont>
0.97

>  <yes.1>


>  <BBB_SCORE>
3.454130844

>  <MMFF94 Energy>
36.041

$$$$
Compound 2162
Actelion Java MolfileCreator 2.0

  0  0  0  0  0  0              0 V3000
M  V30 BEGIN CTAB
M  V30 COUNTS 43 45 0 0 0
M  V30 BEGIN ATOM
M  V30 1 S 4.4672 4.7986 4.55 0
M  V30 2 C 2.9416 4.0762 4.3073 0
M  V30 3 C 3.7736 6.1184 5.3918 0
M  V30 4 C 2.7135 2.7241 3.5522 0
M  V30 5 C 1.9204 4.8229 4.8557 0
M  V30 6 C 2.4033 6.0083 5.4852 0
M  V30 7 N 3.707 1.998 3.0215 0
M  V30 8 N 1.4585 2.1851 3.3817 0
M  V30 9 O 3.0484 0.905 2.4599 0
M  V30 10 C 1.7208 1.0828 2.713 0
M  V30 11 C 0.792 0.0391 2.2048 0
M  V30 12 N 0.1159 0.504 0.9897 0
M  V30 13 C 0.6424 0.1209 -0.235 0
M  V30 14 C -0.9661 1.4658 1.1657 0
M  V30 15 O 1.5756 -0.6835 -0.3124 0
M  V30 16 C 0.0476 0.7013 -1.5093 0
M  V30 17 S -1.3439 -0.3099 -2.1068 0
M  V30 18 C -0.4521 -1.866 -2.4391 0
M  V30 19 C -1.3272 -2.8329 -3.202 0
M  V30 20 C -2.1515 -3.7387 -2.5151 0
M  V30 21 C -1.3487 -2.8162 -4.6058 0
M  V30 22 C -2.9753 -4.6231 -3.2155 0
M  V30 23 C -2.1692 -3.6967 -5.3151 0
M  V30 24 C -2.9801 -4.5987 -4.6155 0
M  V30 25 N -3.8456 -5.5244 -5.356 0 CHG=1
M  V30 26 O -3.82 -5.4736 -6.5942 0
M  V30 27 O -4.5512 -6.3048 -4.7004 0 CHG=-1
M  V30 28 H 4.404 6.9086 5.7764 0
M  V30 29 H 0.8772 4.5335 4.8092 0
M  V30 30 H 1.7783 6.7412 5.9809 0
M  V30 31 H 0.0321 -0.1908 2.9597 0
M  V30 32 H 1.3401 -0.8892 2.0125 0
M  V30 33 H -1.5396 1.2154 2.0629 0
M  V30 34 H -0.5334 2.4646 1.2709 0
M  V30 35 H -1.6501 1.4651 0.3164 0
M  V30 36 H -0.2794 1.733 -1.358 0
M  V30 37 H 0.8267 0.7351 -2.2783 0
M  V30 38 H -0.1442 -2.3256 -1.4942 0
M  V30 39 H 0.4544 -1.6578 -3.0178 0
M  V30 40 H -2.1591 -3.7544 -1.4264 0
M  V30 41 H -0.7283 -2.1096 -5.1545 0
M  V30 42 H -3.6044 -5.3146 -2.659 0
M  V30 43 H -2.1673 -3.6628 -6.4025 0
M  V30 END ATOM
M  V30 BEGIN BOND
M  V30 1 1 1 2
M  V30 2 1 1 3
M  V30 3 1 2 4
M  V30 4 2 2 5
M  V30 5 2 3 6
M  V30 6 2 4 7
M  V30 7 1 4 8
M  V30 8 1 7 9
M  V30 9 2 8 10
M  V30 10 1 10 11
M  V30 11 1 11 12
M  V30 12 1 12 13
M  V30 13 1 12 14
M  V30 14 2 13 15
M  V30 15 1 13 16
M  V30 16 1 16 17
M  V30 17 1 17 18
M  V30 18 1 18 19
M  V30 19 2 19 20
M  V30 20 1 19 21
M  V30 21 1 20 22
M  V30 22 2 21 23
M  V30 23 2 22 24
M  V30 24 1 24 25
M  V30 25 2 25 26
M  V30 26 1 25 27
M  V30 27 1 5 6
M  V30 28 1 9 10
M  V30 29 1 23 24
M  V30 30 1 3 28
M  V30 31 1 5 29
M  V30 32 1 6 30
M  V30 33 1 11 31
M  V30 34 1 11 32
M  V30 35 1 14 33
M  V30 36 1 14 34
M  V30 37 1 14 35
M  V30 38 1 16 36
M  V30 39 1 16 37
M  V30 40 1 18 38
M  V30 41 1 18 39
M  V30 42 1 20 40
M  V30 43 1 21 41
M  V30 44 1 22 42
M  V30 45 1 23 43
M  V30 END BOND
M  V30 END CTAB
M  END
>  <Column 1>
2658

>  <level_0>
3889

>  <index>
3889

>  <Unnamed: 0>
3889

>  <NO.>
3901

>  <Name>
azithromycin

>  <IUPAC_name>
n-methyl-2-[(4-nitrophenyl)methylsulfanyl]-n-[(3-thiophen-2-yl-1-2-4-oxadiazol-5-yl)methyl]acetamide

>  <SMILES>
CN(Cc1nc(-c2cccs2)no1)C(=O)CSCc1ccc([N+](=O)[O-])cc1

>  <CID>
100002269

>  <logBB>


>  <BBB+/BBB->
BBB-

>  <Inchi>
InChI=1S/C17H16N4O4S2/c1-20(9-15-18-17(19-25-15)14-3-2-8-27-14)16(22)11-26-10-12-4-6-13(7-5-12)21(23)24/h2-8H-9-11H2-1H3

>  <threshold>
-1

>  <reference>
R16|R10|

>  <group>
B

>  <Class>
-1

>  <ABC>
20.82

>  <ABCGG>
16.54

>  <nAcid>
0

>  <nBase>
0

>  <nAromAtom>
16

>  <nAromBond>
16

>  <nAtom>
43

>  <nHeavyAtom>
27

>  <nSpiro>
0

>  <nBridgehead>
0

>  <nHetero>
10

>  <nN>
4

>  <nO>
4

>  <nF>
0

>  <BalabanJ>
1.28

>  <BertzCT>
909.43

>  <nBonds>
45

>  <nBondsO>
29

>  <nBondsS>
27

>  <nBondsD>
2

>  <nBondsT>
0

>  <nBondsA>
16

>  <nBondsM>
18

>  <nBondsKS>
36

>  <nBondsKD>
9

>  <RNCG>
0.15

>  <RPCG>
0.12

>  <FCSP3>
0.24

>  <SZ>
35

>  <Sm>
33.67

>  <Sv>
29.6

>  <Sse>
44.23

>  <Sp>
31.42

>  <Si>
48.16

>  <MZ>
0.81

>  <Mm>
0.78

>  <Mv>
0.69

>  <Mse>
1.03

>  <Mp>
0.73

>  <Mi>
1.12

>  <NsCH3>
1

>  <NdCH2>
0

>  <NssCH2>
3

>  <NtCH>
0

>  <NdsCH>
0

>  <NaaCH>
7

>  <NsssCH>
0

>  <NddC>
0

>  <NtsC>
0

>  <NdssC>
1

>  <NaasC>
5

>  <NaaaC>
0

>  <NssssC>
0

>  <NsNH3>
0

>  <NsNH2>
0

>  <NssNH2>
0

>  <NdNH>
0

>  <NssNH>
0

>  <NaaNH>
0

>  <NtN>
0

>  <NsssNH>
0

>  <NdsN>
0

>  <NaaN>
2

>  <NsssN>
1

>  <NddsN>
1

>  <NaasN>
0

>  <NssssN>
0

>  <NsOH>
0

>  <NdO>
2

>  <NssO>
0

>  <NaaO>
1

>  <NsF>
0

>  <NsSiH3>
0

>  <NssSiH2>
0

>  <NsssSiH>
0

>  <NssssSi>
0

>  <NsPH2>
0

>  <NssPH>
0

>  <NsssP>
0

>  <NdsssP>
0

>  <NsssssP>
0

>  <NsSH>
0

>  <NdS>
0

>  <NssS>
1

>  <NaaS>
1

>  <NdssS>
0

>  <NddssS>
0

>  <NsCl>
0

>  <NsBr>
0

>  <NsI>
0

>  <fragCpx>
139.1

>  <fMF>
0.51

>  <nHBAcc>
8

>  <nHBDon>
0

>  <Kier1>
21.7

>  <Kier2>
10.68

>  <Lipinski>
1

>  <GhoseFilter>
1

>  <FilterItLogS>
-5.03

>  <VMcGowan>
275.21

>  <LabuteASA>
162.89

>  <PEOE_VSA1>
9.42

>  <PEOE_VSA2>
14.91

>  <PEOE_VSA3>
0

>  <PEOE_VSA4>
4.98

>  <PEOE_VSA5>
23.1

>  <PEOE_VSA6>
23.36

>  <PEOE_VSA7>
17.01

>  <PEOE_VSA8>
24.93

>  <PEOE_VSA9>
22.1

>  <PEOE_VSA10>
0

>  <PEOE_VSA11>
0

>  <PEOE_VSA12>
17.62

>  <PEOE_VSA13>
5.69

>  <SMR_VSA1>
14.24

>  <SMR_VSA2>
0

>  <SMR_VSA3>
15.04

>  <SMR_VSA4>
0

>  <SMR_VSA5>
12.3

>  <SMR_VSA6>
12.8

>  <SMR_VSA7>
63.35

>  <SMR_VSA8>
0

>  <SMR_VSA9>
10.7

>  <SlogP_VSA1>
0

>  <SlogP_VSA2>
38.67

>  <SlogP_VSA3>
17.09

>  <SlogP_VSA4>
10.11

>  <SlogP_VSA5>
11.45

>  <SlogP_VSA6>
46.3

>  <SlogP_VSA7>
0

>  <SlogP_VSA8>
10.7

>  <SlogP_VSA9>
0

>  <SlogP_VSA10>
5.69

>  <SlogP_VSA11>
0

>  <EState_VSA1>
4.92

>  <EState_VSA2>
18.14

>  <EState_VSA3>
23.22

>  <EState_VSA4>
10.44

>  <EState_VSA5>
40.13

>  <EState_VSA6>
19.18

>  <EState_VSA7>
17.51

>  <EState_VSA8>
10.14

>  <EState_VSA9>
4.52

>  <EState_VSA10>
14.91

>  <VSA_EState1>
5.2

>  <VSA_EState2>
29.21

>  <VSA_EState3>
16.5

>  <VSA_EState4>
0.99

>  <VSA_EState5>
1.74

>  <VSA_EState6>
10.14

>  <VSA_EState7>
0

>  <VSA_EState8>
0.25

>  <VSA_EState9>
1.68

>  <apol>
52.47

>  <bpol>
27.59

>  <nRing>
3

>  <nHRing>
2

>  <naRing>
3

>  <naHRing>
2

>  <nARing 2>
0

>  <nAHRing 2>
0

>  <nFRing>
0

>  <nFHRing>
0

>  <nFaRing>
0

>  <nFaHRing>
0

>  <nFARing 2>
0

>  <nFAHRing 2>
0

>  <nRot>
8

>  <SLogP>
3.6

>  <SMR>
103.34

>  <TopoPSA(NO)>
102.37

>  <TopoPSA>
155.91

>  <JGI1>
0.19

>  <JGI2>
0.08

>  <JGI3>
0.04

>  <JGI4>
0.03

>  <JGI5>
0.02

>  <Diameter>
17

>  <Radius>
9

>  <TMWC10>
130.4

>  <TSRW10>
76.95

>  <MW>
404.06

>  <AMW>
9.4

>  <WPath>
2344

>  <WPol>
35

>  <Zagreb1>
136

>  <Zagreb2>
155

>  <mZagreb2>
6

>  <yes>


>  <nAR-cont>
0.336376

>  <nHA-cont>
0.860070871

>  <MWHBN>
0.397985324

>  <MWHBN-cont>
0.483993209

>  <TPSA-cont>
0

>  <pka_cont>
0.97

>  <yes.1>


>  <BBB_SCORE>
2.407436684

>  <MMFF94 Energy>
92.281

$$$$
Compound 2163
Actelion Java MolfileCreator 2.0

  0  0  0  0  0  0              0 V3000
M  V30 BEGIN CTAB
M  V30 COUNTS 56 59 0 0 0
M  V30 BEGIN ATOM
M  V30 1 S 2.9801 -2.4964 -3.706 0
M  V30 2 C 2.1321 -0.979 -3.201 0 CFG=1
M  V30 3 C 2.1774 -2.5621 -5.3165 0
M  V30 4 N 1.3715 -0.5126 -4.3399 0
M  V30 5 C 1.291 -1.2059 -1.9583 0
M  V30 6 C 1.3791 -1.2915 -5.4786 0
M  V30 7 C 0.6916 0.7749 -4.3007 0
M  V30 8 C 0.0658 -1.893 -2.007 0
M  V30 9 C 1.7509 -0.7456 -0.7125 0
M  V30 10 O 0.7964 -1.0057 -6.5194 0
M  V30 11 C 1.6564 1.9283 -4.1749 0
M  V30 12 C -0.686 -2.095 -0.8464 0
M  V30 13 C 0.9997 -0.9479 0.4504 0
M  V30 14 C 1.7425 2.6635 -2.9838 0
M  V30 15 C 2.4959 2.2666 -5.246 0
M  V30 16 C -0.23 -1.6121 0.3847 0
M  V30 17 C 2.6517 3.716 -2.8681 0
M  V30 18 C 3.4041 3.3189 -5.1275 0
M  V30 19 C -1.0663 -1.8571 1.5928 0
M  V30 20 C 3.482 4.0425 -3.939 0
M  V30 21 O -1.8344 -2.8116 1.6251 0
M  V30 22 N -0.9475 -0.9422 2.6192 0
M  V30 23 C -1.7281 -1.0622 3.8453 0
M  V30 24 C -0.9876 -0.4196 5.0189 0
M  V30 25 C -3.1127 -0.4333 3.6733 0
M  V30 26 C -1.8419 -0.454 6.2862 0
M  V30 27 C -3.8915 -0.4667 4.9883 0
M  V30 28 N -3.1763 0.1333 6.122 0
M  V30 29 C -3.142 1.5918 6.0503 0
M  V30 30 H 2.9098 -0.2355 -2.9955 0
M  V30 31 H 1.504 -3.4215 -5.3665 0
M  V30 32 H 2.9279 -2.6277 -6.108 0
M  V30 33 H 0.0919 0.9174 -5.2073 0
M  V30 34 H -0.0178 0.7677 -3.4657 0
M  V30 35 H -0.3129 -2.2824 -2.9502 0
M  V30 36 H 2.7109 -0.2368 -0.6365 0
M  V30 37 H -1.63 -2.6344 -0.9048 0
M  V30 38 H 1.4069 -0.6121 1.3996 0
M  V30 39 H 1.1007 2.4229 -2.1391 0
M  V30 40 H 2.4421 1.7089 -6.1798 0
M  V30 41 H 2.7113 4.2849 -1.9438 0
M  V30 42 H 4.0491 3.5752 -5.964 0
M  V30 43 H 4.1882 4.8639 -3.8493 0
M  V30 44 H -0.4123 -0.0977 2.4762 0
M  V30 45 H -1.8551 -2.1321 4.057 0
M  V30 46 H -0.0449 -0.951 5.1985 0
M  V30 47 H -0.7131 0.6147 4.7762 0
M  V30 48 H -3.6781 -0.9723 2.9034 0
M  V30 49 H -3.0177 0.5991 3.3143 0
M  V30 50 H -1.3077 0.0409 7.1066 0
M  V30 51 H -1.9621 -1.4977 6.6051 0
M  V30 52 H -4.8658 0.0193 4.8545 0
M  V30 53 H -4.1192 -1.5109 5.2396 0
M  V30 54 H -4.1597 1.9964 6.0138 0
M  V30 55 H -2.5952 1.9695 5.1808 0
M  V30 56 H -2.6764 2.0073 6.951 0
M  V30 END ATOM
M  V30 BEGIN BOND
M  V30 1 1 1 2
M  V30 2 1 1 3
M  V30 3 1 2 4
M  V30 4 1 2 5
M  V30 5 1 3 6
M  V30 6 1 4 7
M  V30 7 2 5 8
M  V30 8 1 5 9
M  V30 9 2 6 10
M  V30 10 1 7 11
M  V30 11 1 8 12
M  V30 12 2 9 13
M  V30 13 2 11 14
M  V30 14 1 11 15
M  V30 15 2 12 16
M  V30 16 1 14 17
M  V30 17 2 15 18
M  V30 18 1 16 19
M  V30 19 2 17 20
M  V30 20 2 19 21
M  V30 21 1 19 22
M  V30 22 1 22 23
M  V30 23 1 23 24
M  V30 24 1 23 25
M  V30 25 1 24 26
M  V30 26 1 25 27
M  V30 27 1 26 28
M  V30 28 1 28 29
M  V30 29 1 4 6
M  V30 30 1 13 16
M  V30 31 1 18 20
M  V30 32 1 27 28
M  V30 33 1 2 30
M  V30 34 1 3 31
M  V30 35 1 3 32
M  V30 36 1 7 33
M  V30 37 1 7 34
M  V30 38 1 8 35
M  V30 39 1 9 36
M  V30 40 1 12 37
M  V30 41 1 13 38
M  V30 42 1 14 39
M  V30 43 1 15 40
M  V30 44 1 17 41
M  V30 45 1 18 42
M  V30 46 1 20 43
M  V30 47 1 22 44
M  V30 48 1 23 45
M  V30 49 1 24 46
M  V30 50 1 24 47
M  V30 51 1 25 48
M  V30 52 1 25 49
M  V30 53 1 26 50
M  V30 54 1 26 51
M  V30 55 1 27 52
M  V30 56 1 27 53
M  V30 57 1 29 54
M  V30 58 1 29 55
M  V30 59 1 29 56
M  V30 END BOND
M  V30 BEGIN COLLECTION
M  V30 MDLV30/STEABS ATOMS=(1 2)
M  V30 END COLLECTION
M  V30 END CTAB
M  END
>  <Column 1>
2659

>  <level_0>
3890

>  <index>
3890

>  <Unnamed: 0>
3890

>  <NO.>
3902

>  <Name>
isoproterenol

>  <IUPAC_name>
4-[(2r)-3-benzyl-4-oxo-1-3-thiazolidin-2-yl]-n-(1-methylpiperidin-4-yl)benzamide

>  <SMILES>
CN1CCC(NC(=O)c2ccc([C@H]3SCC(=O)N3Cc3ccccc3)cc2)CC1

>  <CID>
100003779

>  <logBB>


>  <BBB+/BBB->
BBB-

>  <Inchi>
InChI=1S/C23H27N3O2S/c1-25-13-11-20(12-14-25)24-22(28)18-7-9-19(10-8-18)23-26(21(27)16-29-23)15-17-5-3-2-4-6-17/h2-10-20-23H-11-16H2-1H3-(H-24-28)/t23-/m1/s1

>  <threshold>
-1

>  <reference>
R16|R10|R10|

>  <group>
B

>  <Class>
-1

>  <ABC>
22.79

>  <ABCGG>
17.15

>  <nAcid>
0

>  <nBase>
1

>  <nAromAtom>
12

>  <nAromBond>
12

>  <nAtom>
56

>  <nHeavyAtom>
29

>  <nSpiro>
0

>  <nBridgehead>
0

>  <nHetero>
6

>  <nN>
3

>  <nO>
2

>  <nF>
0

>  <BalabanJ>
1.23

>  <BertzCT>
848.19

>  <nBonds>
59

>  <nBondsO>
32

>  <nBondsS>
45

>  <nBondsD>
2

>  <nBondsT>
0

>  <nBondsA>
12

>  <nBondsM>
14

>  <nBondsKS>
51

>  <nBondsKD>
8

>  <RNCG>
0.16

>  <RPCG>
0.11

>  <FCSP3>
0.39

>  <SZ>
36.33

>  <Sm>
34.1

>  <Sv>
35.21

>  <Sse>
55.71

>  <Sp>
38.45

>  <Si>
62.82

>  <MZ>
0.65

>  <Mm>
0.61

>  <Mv>
0.63

>  <Mse>
0.99

>  <Mp>
0.69

>  <Mi>
1.12

>  <NsCH3>
1

>  <NdCH2>
0

>  <NssCH2>
6

>  <NtCH>
0

>  <NdsCH>
0

>  <NaaCH>
9

>  <NsssCH>
2

>  <NddC>
0

>  <NtsC>
0

>  <NdssC>
2

>  <NaasC>
3

>  <NaaaC>
0

>  <NssssC>
0

>  <NsNH3>
0

>  <NsNH2>
0

>  <NssNH2>
0

>  <NdNH>
0

>  <NssNH>
1

>  <NaaNH>
0

>  <NtN>
0

>  <NsssNH>
0

>  <NdsN>
0

>  <NaaN>
0

>  <NsssN>
2

>  <NddsN>
0

>  <NaasN>
0

>  <NssssN>
0

>  <NsOH>
0

>  <NdO>
2

>  <NssO>
0

>  <NaaO>
0

>  <NsF>
0

>  <NsSiH3>
0

>  <NssSiH2>
0

>  <NsssSiH>
0

>  <NssssSi>
0

>  <NsPH2>
0

>  <NssPH>
0

>  <NsssP>
0

>  <NdsssP>
0

>  <NsssssP>
0

>  <NsSH>
0

>  <NdS>
0

>  <NssS>
1

>  <NaaS>
0

>  <NdssS>
0

>  <NddssS>
0

>  <NsCl>
0

>  <NsBr>
0

>  <NsI>
0

>  <fragCpx>
212.06

>  <fMF>
0.46

>  <nHBAcc>
4

>  <nHBDon>
1

>  <Kier1>
22.2

>  <Kier2>
10.54

>  <Lipinski>
1

>  <GhoseFilter>
1

>  <FilterItLogS>
-4.69

>  <VMcGowan>
315.12

>  <LabuteASA>
176.01

>  <PEOE_VSA1>
15.12

>  <PEOE_VSA2>
9.59

>  <PEOE_VSA3>
0

>  <PEOE_VSA4>
0

>  <PEOE_VSA5>
11.76

>  <PEOE_VSA6>
42.46

>  <PEOE_VSA7>
56.24

>  <PEOE_VSA8>
18.15

>  <PEOE_VSA9>
5.75

>  <PEOE_VSA10>
5.37

>  <PEOE_VSA11>
0

>  <PEOE_VSA12>
5.91

>  <PEOE_VSA13>
5.91

>  <SMR_VSA1>
9.59

>  <SMR_VSA2>
0

>  <SMR_VSA3>
15.12

>  <SMR_VSA4>
0

>  <SMR_VSA5>
30.8

>  <SMR_VSA6>
25.89

>  <SMR_VSA7>
71.29

>  <SMR_VSA8>
0

>  <SMR_VSA9>
0

>  <SlogP_VSA1>
5.32

>  <SlogP_VSA2>
53.55

>  <SlogP_VSA3>
11.34

>  <SlogP_VSA4>
0

>  <SlogP_VSA5>
39.7

>  <SlogP_VSA6>
54.6

>  <SlogP_VSA7>
0

>  <SlogP_VSA8>
0

>  <SlogP_VSA9>
0

>  <SlogP_VSA10>
0

>  <SlogP_VSA11>
0

>  <EState_VSA1>
0

>  <EState_VSA2>
23.23

>  <EState_VSA3>
17.86

>  <EState_VSA4>
37.06

>  <EState_VSA5>
0

>  <EState_VSA6>
11.76

>  <EState_VSA7>
59.5

>  <EState_VSA8>
17.26

>  <EState_VSA9>
0

>  <EState_VSA10>
9.59

>  <VSA_EState1>
0

>  <VSA_EState2>
29.22

>  <VSA_EState3>
3.15

>  <VSA_EState4>
2.87

>  <VSA_EState5>
0.64

>  <VSA_EState6>
18.04

>  <VSA_EState7>
1.99

>  <VSA_EState8>
2.65

>  <VSA_EState9>
2.11

>  <apol>
64.22

>  <bpol>
35.27

>  <nRing>
4

>  <nHRing>
2

>  <naRing>
2

>  <naHRing>
0

>  <nARing 2>
2

>  <nAHRing 2>
2

>  <nFRing>
0

>  <nFHRing>
0

>  <nFaRing>
0

>  <nFaHRing>
0

>  <nFARing 2>
0

>  <nFAHRing 2>
0

>  <nRot>
5

>  <SLogP>
3.28

>  <SMR>
116.62

>  <TopoPSA(NO)>
52.65

>  <TopoPSA>
77.95

>  <JGI1>
0.17

>  <JGI2>
0.08

>  <JGI3>
0.04

>  <JGI4>
0.04

>  <JGI5>
0.02

>  <Diameter>
17

>  <Radius>
9

>  <TMWC10>
137.26

>  <TSRW10>
78.31

>  <MW>
409.18

>  <AMW>
7.31

>  <WPath>
2564

>  <WPol>
43

>  <Zagreb1>
152

>  <Zagreb2>
177

>  <mZagreb2>
6.36

>  <yes>


>  <nAR-cont>
1

>  <nHA-cont>
0.785905698

>  <MWHBN>
0.247179703

>  <MWHBN-cont>
0.964391849

>  <TPSA-cont>
0.455860596

>  <pka_cont>
0.97

>  <yes.1>


>  <BBB_SCORE>
4.629214664

>  <MMFF94 Energy>
13.04

$$$$
Compound 2164
Actelion Java MolfileCreator 2.0

  0  0  0  0  0  0              0 V3000
M  V30 BEGIN CTAB
M  V30 COUNTS 33 34 0 0 0
M  V30 BEGIN ATOM
M  V30 1 F -0.875 -0.0795 -4.7802 0
M  V30 2 C -1.1504 0.3929 -3.5548 0
M  V30 3 C -2.3222 1.1281 -3.3341 0
M  V30 4 C -0.2512 0.1331 -2.5239 0
M  V30 5 N -3.2737 1.3955 -4.3358 0
M  V30 6 C -2.5807 1.5719 -2.0344 0
M  V30 7 C -0.5079 0.5984 -1.2336 0
M  V30 8 N -2.7849 1.9254 -5.3532 0 CHG=1
M  V30 9 C -1.6803 1.3142 -0.991 0
M  V30 10 O 0.4494 0.2725 -0.3172 0
M  V30 11 N -2.3566 2.4247 -6.285 0 CHG=-1
M  V30 12 C 0.3521 0.7838 1.0205 0
M  V30 13 C -0.5037 -0.1398 1.8906 0
M  V30 14 C 1.774 0.8578 1.5856 0
M  V30 15 C 0.1689 -1.4963 2.1044 0
M  V30 16 C 2.3671 -0.5324 1.8146 0
M  V30 17 N 1.5029 -1.3289 2.6968 0
M  V30 18 C 2.1103 -2.6348 2.9579 0
M  V30 19 H 0.6486 -0.4366 -2.7345 0
M  V30 20 H -3.4957 2.1232 -1.8279 0
M  V30 21 H -1.9378 1.6791 -0.002 0
M  V30 22 H -0.0465 1.8048 1.0174 0
M  V30 23 H -1.484 -0.3089 1.4323 0
M  V30 24 H -0.6785 0.3373 2.8633 0
M  V30 25 H 1.7622 1.4097 2.5341 0
M  V30 26 H 2.4226 1.4076 0.8933 0
M  V30 27 H 0.2235 -2.0436 1.1543 0
M  V30 28 H -0.4635 -2.0849 2.7802 0
M  V30 29 H 3.3536 -0.4078 2.2779 0
M  V30 30 H 2.5238 -1.0386 0.8531 0
M  V30 31 H 2.2458 -3.2201 2.0412 0
M  V30 32 H 3.0875 -2.5149 3.4387 0
M  V30 33 H 1.4901 -3.2156 3.6498 0
M  V30 END ATOM
M  V30 BEGIN BOND
M  V30 1 1 1 2
M  V30 2 2 2 3
M  V30 3 1 2 4
M  V30 4 1 3 5
M  V30 5 1 3 6
M  V30 6 2 4 7
M  V30 7 2 5 8
M  V30 8 2 6 9
M  V30 9 1 7 10
M  V30 10 2 8 11
M  V30 11 1 10 12
M  V30 12 1 12 13
M  V30 13 1 12 14
M  V30 14 1 13 15
M  V30 15 1 14 16
M  V30 16 1 15 17
M  V30 17 1 17 18
M  V30 18 1 7 9
M  V30 19 1 16 17
M  V30 20 1 4 19
M  V30 21 1 6 20
M  V30 22 1 9 21
M  V30 23 1 12 22
M  V30 24 1 13 23
M  V30 25 1 13 24
M  V30 26 1 14 25
M  V30 27 1 14 26
M  V30 28 1 15 27
M  V30 29 1 15 28
M  V30 30 1 16 29
M  V30 31 1 16 30
M  V30 32 1 18 31
M  V30 33 1 18 32
M  V30 34 1 18 33
M  V30 END BOND
M  V30 END CTAB
M  END
>  <Column 1>
2660

>  <level_0>
3891

>  <index>
3891

>  <Unnamed: 0>
3891

>  <NO.>
3903

>  <Name>
demeclocycline

>  <IUPAC_name>
4-(4-azido-3-fluorophenoxy)-1-methylpiperidine

>  <SMILES>
CN1CCC(Oc2ccc(N=[N+]=[N-])c(F)c2)CC1

>  <CID>
151601240

>  <logBB>


>  <BBB+/BBB->
BBB-

>  <Inchi>
InChI=1S/C12H15FN4O/c1-17-6-4-9(5-7-17)18-10-2-3-12(15-16-14)11(13)8-10/h2-3-8-9H-4-7H2-1H3

>  <threshold>
-1

>  <reference>
R16|R10|

>  <group>
B

>  <Class>
1

>  <ABC>
13.61

>  <ABCGG>
11.09

>  <nAcid>
0

>  <nBase>
1

>  <nAromAtom>
6

>  <nAromBond>
6

>  <nAtom>
33

>  <nHeavyAtom>
18

>  <nSpiro>
0

>  <nBridgehead>
0

>  <nHetero>
6

>  <nN>
4

>  <nO>
1

>  <nF>
1

>  <BalabanJ>
1.72

>  <BertzCT>
465.15

>  <nBonds>
34

>  <nBondsO>
19

>  <nBondsS>
26

>  <nBondsD>
2

>  <nBondsT>
0

>  <nBondsA>
6

>  <nBondsM>
8

>  <nBondsKS>
29

>  <nBondsKD>
5

>  <RNCG>
0.43

>  <RPCG>
0.12

>  <FCSP3>
0.5

>  <SZ>
22

>  <Sm>
20.84

>  <Sv>
20.46

>  <Sse>
33.6

>  <Sp>
21.44

>  <Si>
38.03

>  <MZ>
0.67

>  <Mm>
0.63

>  <Mv>
0.62

>  <Mse>
1.02

>  <Mp>
0.65

>  <Mi>
1.15

>  <NsCH3>
1

>  <NdCH2>
0

>  <NssCH2>
4

>  <NtCH>
0

>  <NdsCH>
0

>  <NaaCH>
3

>  <NsssCH>
1

>  <NddC>
0

>  <NtsC>
0

>  <NdssC>
0

>  <NaasC>
3

>  <NaaaC>
0

>  <NssssC>
0

>  <NsNH3>
0

>  <NsNH2>
0

>  <NssNH2>
0

>  <NdNH>
0

>  <NssNH>
0

>  <NaaNH>
0

>  <NtN>
0

>  <NsssNH>
0

>  <NdsN>
1

>  <NaaN>
0

>  <NsssN>
1

>  <NddsN>
0

>  <NaasN>
0

>  <NssssN>
0

>  <NsOH>
0

>  <NdO>
0

>  <NssO>
1

>  <NaaO>
0

>  <NsF>
1

>  <NsSiH3>
0

>  <NssSiH2>
0

>  <NsssSiH>
0

>  <NssssSi>
0

>  <NsPH2>
0

>  <NssPH>
0

>  <NsssP>
0

>  <NdsssP>
0

>  <NsssssP>
0

>  <NsSH>
0

>  <NdS>
0

>  <NssS>
0

>  <NaaS>
0

>  <NdssS>
0

>  <NddssS>
0

>  <NsCl>
0

>  <NsBr>
0

>  <NsI>
0

>  <fragCpx>
55.06

>  <fMF>
0.39

>  <nHBAcc>
3

>  <nHBDon>
0

>  <Kier1>
14.41

>  <Kier2>
6.96

>  <Lipinski>
1

>  <GhoseFilter>
1

>  <FilterItLogS>
-2.99

>  <VMcGowan>
184.27

>  <LabuteASA>
104.79

>  <PEOE_VSA1>
9.64

>  <PEOE_VSA2>
0

>  <PEOE_VSA3>
4.39

>  <PEOE_VSA4>
0

>  <PEOE_VSA5>
0

>  <PEOE_VSA6>
5.11

>  <PEOE_VSA7>
37.55

>  <PEOE_VSA8>
24.07

>  <PEOE_VSA9>
5.69

>  <PEOE_VSA10>
17.67

>  <PEOE_VSA11>
0

>  <PEOE_VSA12>
0

>  <PEOE_VSA13>
0

>  <SMR_VSA1>
9.13

>  <SMR_VSA2>
0

>  <SMR_VSA3>
4.9

>  <SMR_VSA4>
5.11

>  <SMR_VSA5>
18.95

>  <SMR_VSA6>
20.14

>  <SMR_VSA7>
34.46

>  <SMR_VSA8>
0

>  <SMR_VSA9>
5.75

>  <SlogP_VSA1>
4.74

>  <SlogP_VSA2>
31.14

>  <SlogP_VSA3>
0

>  <SlogP_VSA4>
5.82

>  <SlogP_VSA5>
12.84

>  <SlogP_VSA6>
23.31

>  <SlogP_VSA7>
0

>  <SlogP_VSA8>
10.44

>  <SlogP_VSA9>
0

>  <SlogP_VSA10>
10.08

>  <SlogP_VSA11>
5.75

>  <EState_VSA1>
5.82

>  <EState_VSA2>
11.79

>  <EState_VSA3>
5.75

>  <EState_VSA4>
25.93

>  <EState_VSA5>
12.13

>  <EState_VSA6>
6.07

>  <EState_VSA7>
0

>  <EState_VSA8>
21.97

>  <EState_VSA9>
10.27

>  <EState_VSA10>
4.39

>  <VSA_EState1>
19.22

>  <VSA_EState2>
4.8

>  <VSA_EState3>
3.25

>  <VSA_EState4>
8.25

>  <VSA_EState5>
-0.07

>  <VSA_EState6>
4.33

>  <VSA_EState7>
2.01

>  <VSA_EState8>
1.98

>  <VSA_EState9>
2.07

>  <apol>
35.8

>  <bpol>
20.18

>  <nRing>
2

>  <nHRing>
1

>  <naRing>
1

>  <naHRing>
0

>  <nARing 2>
1

>  <nAHRing 2>
1

>  <nFRing>
0

>  <nFHRing>
0

>  <nFaRing>
0

>  <nFaHRing>
0

>  <nFARing 2>
0

>  <nFAHRing 2>
0

>  <nRot>
3

>  <SLogP>
3.24

>  <SMR>
66.35

>  <TopoPSA(NO)>
61.23

>  <TopoPSA>
61.23

>  <JGI1>
0.21

>  <JGI2>
0.07

>  <JGI3>
0.04

>  <JGI4>
0.05

>  <JGI5>
0.02

>  <Diameter>
12

>  <Radius>
6

>  <TMWC10>
107.24

>  <TSRW10>
50.51

>  <MW>
250.12

>  <AMW>
7.58

>  <WPath>
679

>  <WPol>
24

>  <Zagreb1>
88

>  <Zagreb2>
99

>  <mZagreb2>
4.11

>  <yes>


>  <nAR-cont>
0.816016

>  <nHA-cont>
0.991161285

>  <MWHBN>
0.189691139

>  <MWHBN-cont>
0.995447489

>  <TPSA-cont>
0.572576578

>  <pka_cont>
0.97

>  <yes.1>


>  <BBB_SCORE>
4.930501676

>  <MMFF94 Energy>
18.69

$$$$
Compound 2165
Actelion Java MolfileCreator 2.0

  0  0  0  0  0  0              0 V3000
M  V30 BEGIN CTAB
M  V30 COUNTS 50 52 0 0 0
M  V30 BEGIN ATOM
M  V30 1 S -1.8616 3.888 1.7806 0
M  V30 2 N -3.5062 3.6705 2.0975 0
M  V30 3 N -1.6576 2.5823 0.7894 0
M  V30 4 C -3.8682 2.6013 1.452 0
M  V30 5 C -2.8244 1.8851 0.6444 0
M  V30 6 C -5.2334 2.072 1.4842 0
M  V30 7 C -3.1155 0.7725 -0.0518 0
M  V30 8 C -5.5291 0.9691 0.7976 0
M  V30 9 C -4.521 0.2551 -0.0093 0
M  V30 10 C -2.1707 -0.0615 -0.9239 0 CFG=2
M  V30 11 O -4.8604 -0.7421 -0.6373 0
M  V30 12 C -0.7313 -0.1228 -0.3994 0
M  V30 13 C -2.3383 0.3729 -2.3924 0
M  V30 14 C -0.4839 -0.837 0.7906 0
M  V30 15 C 0.3534 0.4976 -1.0324 0
M  V30 16 C -1.6637 -0.5684 -3.3578 0
M  V30 17 C 0.8028 -0.9249 1.337 0
M  V30 18 C 1.6435 0.4101 -0.4976 0
M  V30 19 O -0.77 -0.2259 -4.1215 0
M  V30 20 O -2.1984 -1.8147 -3.2818 0
M  V30 21 O 1.1112 -1.598 2.4921 0
M  V30 22 C 1.879 -0.2981 0.6831 0
M  V30 23 C -1.6092 -2.7598 -4.1757 0
M  V30 24 C 0.0499 -2.2085 3.2112 0
M  V30 25 O 3.1078 -0.4306 1.2796 0
M  V30 26 C 4.2357 0.0988 0.5991 0
M  V30 27 C 5.5238 -0.1887 1.3587 0
M  V30 28 O 5.6259 -0.7908 2.4183 0
M  V30 29 O 6.5781 0.3408 0.6637 0
M  V30 30 C 7.8454 0.1292 1.2882 0
M  V30 31 H -0.7647 2.2479 0.4518 0
M  V30 32 H -5.9654 2.6062 2.0776 0
M  V30 33 H -6.5284 0.5488 0.7976 0
M  V30 34 H -2.4993 -1.1097 -0.8641 0
M  V30 35 H -3.3959 0.4185 -2.6826 0
M  V30 36 H -1.94 1.3822 -2.5551 0
M  V30 37 H -1.3224 -1.3256 1.2796 0
M  V30 38 H 0.232 1.0654 -1.9528 0
M  V30 39 H 2.4433 0.9099 -1.0352 0
M  V30 40 H -2.1026 -3.7236 -4.0232 0
M  V30 41 H -1.7633 -2.4515 -5.2146 0
M  V30 42 H -0.5427 -2.8782 -3.9595 0
M  V30 43 H -0.6857 -1.4658 3.5376 0
M  V30 44 H 0.475 -2.6707 4.1074 0
M  V30 45 H -0.4215 -3.0007 2.6206 0
M  V30 46 H 4.1429 1.1882 0.5201 0
M  V30 47 H 4.3301 -0.3683 -0.3881 0
M  V30 48 H 8.6135 0.5862 0.6581 0
M  V30 49 H 7.8735 0.6095 2.2714 0
M  V30 50 H 8.0579 -0.9412 1.3716 0
M  V30 END ATOM
M  V30 BEGIN BOND
M  V30 1 1 1 2
M  V30 2 1 1 3
M  V30 3 2 2 4
M  V30 4 1 3 5
M  V30 5 1 4 6
M  V30 6 2 5 7
M  V30 7 2 6 8
M  V30 8 1 7 9
M  V30 9 1 7 10
M  V30 10 2 9 11
M  V30 11 1 10 12
M  V30 12 1 10 13
M  V30 13 2 12 14
M  V30 14 1 12 15
M  V30 15 1 13 16
M  V30 16 1 14 17
M  V30 17 2 15 18
M  V30 18 2 16 19
M  V30 19 1 16 20
M  V30 20 1 17 21
M  V30 21 2 17 22
M  V30 22 1 20 23
M  V30 23 1 21 24
M  V30 24 1 22 25
M  V30 25 1 25 26
M  V30 26 1 26 27
M  V30 27 2 27 28
M  V30 28 1 27 29
M  V30 29 1 29 30
M  V30 30 1 4 5
M  V30 31 1 8 9
M  V30 32 1 18 22
M  V30 33 1 3 31
M  V30 34 1 6 32
M  V30 35 1 8 33
M  V30 36 1 10 34
M  V30 37 1 13 35
M  V30 38 1 13 36
M  V30 39 1 14 37
M  V30 40 1 15 38
M  V30 41 1 18 39
M  V30 42 1 23 40
M  V30 43 1 23 41
M  V30 44 1 23 42
M  V30 45 1 24 43
M  V30 46 1 24 44
M  V30 47 1 24 45
M  V30 48 1 26 46
M  V30 49 1 26 47
M  V30 50 1 30 48
M  V30 51 1 30 49
M  V30 52 1 30 50
M  V30 END BOND
M  V30 BEGIN COLLECTION
M  V30 MDLV30/STEABS ATOMS=(1 10)
M  V30 END COLLECTION
M  V30 END CTAB
M  END
>  <Column 1>
2662

>  <level_0>
3893

>  <index>
3893

>  <Unnamed: 0>
3893

>  <NO.>
3905

>  <Name>
bethanechol

>  <IUPAC_name>
methyl (3s)-3-[3-methoxy-4-(2-methoxy-2-oxoethoxy)phenyl]-3-(6-oxo-1h-2-1-3-benzothiadiazol-7-yl)propanoate

>  <SMILES>
COC(=O)COc1ccc([C@H](CC(=O)OC)c2c3[nH]snc-3ccc2=O)cc1OC

>  <CID>
136902524

>  <logBB>


>  <BBB+/BBB->
BBB-

>  <Inchi>
InChI=1S/C20H20N2O7S/c1-26-16-8-11(4-7-15(16)29-10-18(25)28-3)12(9-17(24)27-2)19-14(23)6-5-13-20(19)22-30-21-13/h4-8-12-22H-9-10H2-1-3H3/t12-/m0/s1

>  <threshold>
-1

>  <reference>
R16|R10|

>  <group>
B

>  <Class>
-1

>  <ABC>
22.71

>  <ABCGG>
19.19

>  <nAcid>
0

>  <nBase>
0

>  <nAromAtom>
15

>  <nAromBond>
15

>  <nAtom>
50

>  <nHeavyAtom>
30

>  <nSpiro>
0

>  <nBridgehead>
0

>  <nHetero>
10

>  <nN>
2

>  <nO>
7

>  <nF>
0

>  <BalabanJ>
1.72

>  <BertzCT>
1075.04

>  <nBonds>
52

>  <nBondsO>
32

>  <nBondsS>
34

>  <nBondsD>
3

>  <nBondsT>
0

>  <nBondsA>
15

>  <nBondsM>
18

>  <nBondsKS>
43

>  <nBondsKD>
9

>  <RNCG>
0.15

>  <RPCG>
0.1

>  <FCSP3>
0.3

>  <SZ>
37.67

>  <Sm>
36

>  <Sv>
33.12

>  <Sse>
51.6

>  <Sp>
34.4

>  <Si>
56.12

>  <MZ>
0.75

>  <Mm>
0.72

>  <Mv>
0.66

>  <Mse>
1.03

>  <Mp>
0.69

>  <Mi>
1.12

>  <NsCH3>
3

>  <NdCH2>
0

>  <NssCH2>
2

>  <NtCH>
0

>  <NdsCH>
0

>  <NaaCH>
5

>  <NsssCH>
1

>  <NddC>
0

>  <NtsC>
0

>  <NdssC>
2

>  <NaasC>
6

>  <NaaaC>
0

>  <NssssC>
0

>  <NsNH3>
0

>  <NsNH2>
0

>  <NssNH2>
0

>  <NdNH>
0

>  <NssNH>
0

>  <NaaNH>
1

>  <NtN>
0

>  <NsssNH>
0

>  <NdsN>
0

>  <NaaN>
1

>  <NsssN>
0

>  <NddsN>
0

>  <NaasN>
0

>  <NssssN>
0

>  <NsOH>
0

>  <NdO>
3

>  <NssO>
4

>  <NaaO>
0

>  <NsF>
0

>  <NsSiH3>
0

>  <NssSiH2>
0

>  <NsssSiH>
0

>  <NssssSi>
0

>  <NsPH2>
0

>  <NssPH>
0

>  <NsssP>
0

>  <NdsssP>
0

>  <NsssssP>
0

>  <NsSH>
0

>  <NdS>
0

>  <NssS>
0

>  <NaaS>
1

>  <NdssS>
0

>  <NddssS>
0

>  <NsCl>
0

>  <NsBr>
0

>  <NsI>
0

>  <fragCpx>
154.1

>  <fMF>
0.32

>  <nHBAcc>
9

>  <nHBDon>
1

>  <Kier1>
24.64

>  <Kier2>
11.74

>  <Lipinski>
1

>  <GhoseFilter>
1

>  <FilterItLogS>
-5.04

>  <VMcGowan>
298.78

>  <LabuteASA>
175.74

>  <PEOE_VSA1>
18.95

>  <PEOE_VSA2>
13.96

>  <PEOE_VSA3>
4.79

>  <PEOE_VSA4>
4.37

>  <PEOE_VSA5>
0

>  <PEOE_VSA6>
6.07

>  <PEOE_VSA7>
29.83

>  <PEOE_VSA8>
23.21

>  <PEOE_VSA9>
33.44

>  <PEOE_VSA10>
5.69

>  <PEOE_VSA11>
23.53

>  <PEOE_VSA12>
0

>  <PEOE_VSA13>
0

>  <SMR_VSA1>
28.54

>  <SMR_VSA2>
0

>  <SMR_VSA3>
8.75

>  <SMR_VSA4>
0

>  <SMR_VSA5>
12.34

>  <SMR_VSA6>
27.94

>  <SMR_VSA7>
51.68

>  <SMR_VSA8>
0

>  <SMR_VSA9>
22.89

>  <SlogP_VSA1>
14.9

>  <SlogP_VSA2>
48.62

>  <SlogP_VSA3>
19.06

>  <SlogP_VSA4>
0

>  <SlogP_VSA5>
23.47

>  <SlogP_VSA6>
35.13

>  <SlogP_VSA7>
0

>  <SlogP_VSA8>
11.39

>  <SlogP_VSA9>
0

>  <SlogP_VSA10>
0

>  <SlogP_VSA11>
11.5

>  <EState_VSA1>
17.86

>  <EState_VSA2>
18.46

>  <EState_VSA3>
34.01

>  <EState_VSA4>
11.73

>  <EState_VSA5>
27.4

>  <EState_VSA6>
24.27

>  <EState_VSA7>
0

>  <EState_VSA8>
13.48

>  <EState_VSA9>
14.21

>  <EState_VSA10>
14.38

>  <VSA_EState1>
27.49

>  <VSA_EState2>
36.23

>  <VSA_EState3>
0

>  <VSA_EState4>
2.04

>  <VSA_EState5>
-0.94

>  <VSA_EState6>
8.05

>  <VSA_EState7>
-0.06

>  <VSA_EState8>
-0.28

>  <VSA_EState9>
4.01

>  <apol>
57.45

>  <bpol>
33.78

>  <nRing>
3

>  <nHRing>
1

>  <naRing>
3

>  <naHRing>
1

>  <nARing 2>
0

>  <nAHRing 2>
0

>  <nFRing>
1

>  <nFHRing>
1

>  <nFaRing>
1

>  <nFaHRing>
1

>  <nFARing 2>
0

>  <nFAHRing 2>
0

>  <nRot>
8

>  <SLogP>
2.19

>  <SMR>
108.34

>  <TopoPSA(NO)>
116.81

>  <TopoPSA>
145.05

>  <JGI1>
0.19

>  <JGI2>
0.09

>  <JGI3>
0.04

>  <JGI4>
0.04

>  <JGI5>
0.03

>  <Diameter>
13

>  <Radius>
7

>  <TMWC10>
139

>  <TSRW10>
79.13

>  <MW>
432.1

>  <AMW>
8.64

>  <WPath>
2434

>  <WPol>
48

>  <Zagreb1>
152

>  <Zagreb2>
179

>  <mZagreb2>
6.92

>  <yes>


>  <nAR-cont>
0.336376

>  <nHA-cont>
0.74523694

>  <MWHBN>
0.481069548

>  <MWHBN-cont>
0

>  <TPSA-cont>
0

>  <pka_cont>
0.97

>  <yes.1>


>  <BBB_SCORE>
1.56661294

>  <MMFF94 Energy>
51.577

$$$$
Compound 2166
Actelion Java MolfileCreator 2.0

  0  0  0  0  0  0              0 V3000
M  V30 BEGIN CTAB
M  V30 COUNTS 51 53 0 0 0
M  V30 BEGIN ATOM
M  V30 1 O 0.7988 4.2393 0.0798 0
M  V30 2 C 0.4918 3.575 -0.9039 0
M  V30 3 N 0.6294 4.0906 -2.1666 0
M  V30 4 C -0.0779 2.1811 -0.7898 0
M  V30 5 C 0.2949 3.4199 -3.3109 0
M  V30 6 C -0.4136 1.5539 -1.9429 0
M  V30 7 C -0.2537 1.6971 0.6527 0 CFG=2
M  V30 8 C -0.2008 2.177 -3.2404 0
M  V30 9 O -1.0341 0.3277 -2.0141 0
M  V30 10 C 0.2144 0.2536 0.8655 0
M  V30 11 C -1.6852 2.0349 1.1098 0
M  V30 12 C -0.4991 1.5283 -4.5396 0
M  V30 13 C 1.5771 -0.0379 0.7055 0
M  V30 14 C -0.6411 -0.8038 1.2128 0
M  V30 15 C -1.85 1.9213 2.6073 0
M  V30 16 O -1.0908 2.0833 -5.4557 0
M  V30 17 O 0.0597 0.292 -4.5873 0
M  V30 18 C 2.057 -1.3386 0.8682 0
M  V30 19 C -0.1685 -2.1159 1.4018 0
M  V30 20 O -0.9655 2.0888 3.4334 0
M  V30 21 O -3.1491 1.6285 2.901 0
M  V30 22 C -0.1679 -0.3997 -5.8139 0
M  V30 23 O 3.4037 -1.4985 0.6465 0
M  V30 24 C 1.1957 -2.3849 1.2357 0
M  V30 25 O -1.1774 -2.9845 1.7275 0
M  V30 26 C -3.4137 1.5066 4.2996 0
M  V30 27 C 3.7594 -2.8751 0.5023 0
M  V30 28 O 1.6652 -3.6635 1.406 0
M  V30 29 C -0.8324 -4.2819 2.1901 0
M  V30 30 C 3.0846 -3.7048 1.5754 0
M  V30 31 H 1.005 5.0312 -2.2177 0
M  V30 32 H 0.4629 3.9429 -4.2484 0
M  V30 33 H 0.4238 2.2729 1.2992 0
M  V30 34 H -0.9347 -0.1533 -1.1785 0
M  V30 35 H -1.9423 3.0698 0.8502 0
M  V30 36 H -2.4118 1.3828 0.61 0
M  V30 37 H 2.2815 0.7504 0.4432 0
M  V30 38 H -1.7082 -0.6414 1.3524 0
M  V30 39 H 0.2847 -1.3918 -5.7327 0
M  V30 40 H -1.2406 -0.5229 -5.9938 0
M  V30 41 H 0.3064 0.1305 -6.6454 0
M  V30 42 H -4.4728 1.2644 4.4239 0
M  V30 43 H -2.8198 0.6956 4.7327 0
M  V30 44 H -3.2121 2.4527 4.8116 0
M  V30 45 H 3.4736 -3.2062 -0.5036 0
M  V30 46 H 4.8477 -2.9493 0.5913 0
M  V30 47 H -0.4419 -4.898 1.3746 0
M  V30 48 H -1.7516 -4.7601 2.5436 0
M  V30 49 H -0.1436 -4.2379 3.0399 0
M  V30 50 H 3.3976 -4.7508 1.5005 0
M  V30 51 H 3.3299 -3.345 2.5824 0
M  V30 END ATOM
M  V30 BEGIN BOND
M  V30 1 2 1 2
M  V30 2 1 2 3
M  V30 3 1 2 4
M  V30 4 1 3 5
M  V30 5 2 4 6
M  V30 6 1 4 7
M  V30 7 2 5 8
M  V30 8 1 6 9
M  V30 9 1 7 10
M  V30 10 1 7 11
M  V30 11 1 8 12
M  V30 12 2 10 13
M  V30 13 1 10 14
M  V30 14 1 11 15
M  V30 15 2 12 16
M  V30 16 1 12 17
M  V30 17 1 13 18
M  V30 18 2 14 19
M  V30 19 2 15 20
M  V30 20 1 15 21
M  V30 21 1 17 22
M  V30 22 1 18 23
M  V30 23 2 18 24
M  V30 24 1 19 25
M  V30 25 1 21 26
M  V30 26 1 23 27
M  V30 27 1 24 28
M  V30 28 1 25 29
M  V30 29 1 27 30
M  V30 30 1 6 8
M  V30 31 1 19 24
M  V30 32 1 28 30
M  V30 33 1 3 31
M  V30 34 1 5 32
M  V30 35 1 7 33
M  V30 36 1 9 34
M  V30 37 1 11 35
M  V30 38 1 11 36
M  V30 39 1 13 37
M  V30 40 1 14 38
M  V30 41 1 22 39
M  V30 42 1 22 40
M  V30 43 1 22 41
M  V30 44 1 26 42
M  V30 45 1 26 43
M  V30 46 1 26 44
M  V30 47 1 27 45
M  V30 48 1 27 46
M  V30 49 1 29 47
M  V30 50 1 29 48
M  V30 51 1 29 49
M  V30 52 1 30 50
M  V30 53 1 30 51
M  V30 END BOND
M  V30 BEGIN COLLECTION
M  V30 MDLV30/STEABS ATOMS=(1 7)
M  V30 END COLLECTION
M  V30 END CTAB
M  END
>  <Column 1>
2665

>  <level_0>
3896

>  <index>
3896

>  <Unnamed: 0>
3896

>  <NO.>
3908

>  <Name>
nalidixic acid

>  <IUPAC_name>
methyl 4-hydroxy-5-[(1s)-3-methoxy-1-(5-methoxy-2-3-dihydro-1-4-benzodioxin-7-yl)-3-oxopropyl]-6-oxo-1h-pyridine-3-carboxylate

>  <SMILES>
COC(=O)C[C@@H](c1cc(OC)c2c(c1)OCCO2)c1c(O)c(C(=O)OC)c[nH]c1=O

>  <CID>
100004421

>  <logBB>


>  <BBB+/BBB->
BBB+

>  <Inchi>
InChI=1S/C20H21NO9/c1-26-13-6-10(7-14-18(13)30-5-4-29-14)11(8-15(22)27-2)16-17(23)12(20(25)28-3)9-21-19(16)24/h6-7-9-11H-4-5-8H2-1-3H3-(H2-21-23-24)/t11-/m0/s1

>  <threshold>
-1

>  <reference>
R16|R10|

>  <group>
B

>  <Class>
1

>  <ABC>
22.74

>  <ABCGG>
19.11

>  <nAcid>
0

>  <nBase>
0

>  <nAromAtom>
12

>  <nAromBond>
12

>  <nAtom>
51

>  <nHeavyAtom>
30

>  <nSpiro>
0

>  <nBridgehead>
0

>  <nHetero>
10

>  <nN>
1

>  <nO>
9

>  <nF>
0

>  <BalabanJ>
1.85

>  <BertzCT>
1010.42

>  <nBonds>
53

>  <nBondsO>
32

>  <nBondsS>
38

>  <nBondsD>
3

>  <nBondsT>
0

>  <nBondsA>
12

>  <nBondsM>
15

>  <nBondsKS>
45

>  <nBondsKD>
8

>  <RNCG>
0.12

>  <RPCG>
0.08

>  <FCSP3>
0.35

>  <SZ>
36.67

>  <Sm>
34.92

>  <Sv>
32.88

>  <Sse>
52.96

>  <Sp>
33.37

>  <Si>
57.54

>  <MZ>
0.72

>  <Mm>
0.68

>  <Mv>
0.64

>  <Mse>
1.04

>  <Mp>
0.65

>  <Mi>
1.13

>  <NsCH3>
3

>  <NdCH2>
0

>  <NssCH2>
3

>  <NtCH>
0

>  <NdsCH>
0

>  <NaaCH>
3

>  <NsssCH>
1

>  <NddC>
0

>  <NtsC>
0

>  <NdssC>
2

>  <NaasC>
7

>  <NaaaC>
0

>  <NssssC>
0

>  <NsNH3>
0

>  <NsNH2>
0

>  <NssNH2>
0

>  <NdNH>
0

>  <NssNH>
0

>  <NaaNH>
1

>  <NtN>
0

>  <NsssNH>
0

>  <NdsN>
0

>  <NaaN>
0

>  <NsssN>
0

>  <NddsN>
0

>  <NaasN>
0

>  <NssssN>
0

>  <NsOH>
1

>  <NdO>
3

>  <NssO>
5

>  <NaaO>
0

>  <NsF>
0

>  <NsSiH3>
0

>  <NssSiH2>
0

>  <NsssSiH>
0

>  <NssssSi>
0

>  <NsPH2>
0

>  <NssPH>
0

>  <NsssP>
0

>  <NdsssP>
0

>  <NsssssP>
0

>  <NsSH>
0

>  <NdS>
0

>  <NssS>
0

>  <NaaS>
0

>  <NdssS>
0

>  <NddssS>
0

>  <NsCl>
0

>  <NsBr>
0

>  <NsI>
0

>  <fragCpx>
154.1

>  <fMF>
0.33

>  <nHBAcc>
9

>  <nHBDon>
2

>  <Kier1>
24.64

>  <Kier2>
11.23

>  <Lipinski>
1

>  <GhoseFilter>
1

>  <FilterItLogS>
-4.09

>  <VMcGowan>
288.49

>  <LabuteASA>
170.83

>  <PEOE_VSA1>
33.77

>  <PEOE_VSA2>
9.59

>  <PEOE_VSA3>
4.79

>  <PEOE_VSA4>
0

>  <PEOE_VSA5>
0

>  <PEOE_VSA6>
0

>  <PEOE_VSA7>
17.7

>  <PEOE_VSA8>
12.11

>  <PEOE_VSA9>
33.31

>  <PEOE_VSA10>
24.53

>  <PEOE_VSA11>
11.5

>  <PEOE_VSA12>
5.75

>  <PEOE_VSA13>
5.56

>  <SMR_VSA1>
38.38

>  <SMR_VSA2>
0

>  <SMR_VSA3>
4.98

>  <SMR_VSA4>
0

>  <SMR_VSA5>
12.34

>  <SMR_VSA6>
34.54

>  <SMR_VSA7>
45.37

>  <SMR_VSA8>
0

>  <SMR_VSA9>
23

>  <SlogP_VSA1>
19.77

>  <SlogP_VSA2>
56.57

>  <SlogP_VSA3>
14.27

>  <SlogP_VSA4>
0

>  <SlogP_VSA5>
33.82

>  <SlogP_VSA6>
23.12

>  <SlogP_VSA7>
0

>  <SlogP_VSA8>
0

>  <SlogP_VSA9>
0

>  <SlogP_VSA10>
0

>  <SlogP_VSA11>
23

>  <EState_VSA1>
29.17

>  <EState_VSA2>
17.55

>  <EState_VSA3>
36.03

>  <EState_VSA4>
13.31

>  <EState_VSA5>
14.22

>  <EState_VSA6>
12.13

>  <EState_VSA7>
0

>  <EState_VSA8>
9.72

>  <EState_VSA9>
18.95

>  <EState_VSA10>
19.49

>  <VSA_EState1>
25.97

>  <VSA_EState2>
39.11

>  <VSA_EState3>
10.69

>  <VSA_EState4>
-0.69

>  <VSA_EState5>
-1.95

>  <VSA_EState6>
3.17

>  <VSA_EState7>
0.76

>  <VSA_EState8>
0.65

>  <VSA_EState9>
3.79

>  <apol>
55.72

>  <bpol>
32.92

>  <nRing>
3

>  <nHRing>
2

>  <naRing>
2

>  <naHRing>
1

>  <nARing 2>
1

>  <nAHRing 2>
1

>  <nFRing>
1

>  <nFHRing>
1

>  <nFaRing>
0

>  <nFaHRing>
0

>  <nFARing 2>
1

>  <nFAHRing 2>
1

>  <nRot>
6

>  <SLogP>
1.34

>  <SMR>
102.53

>  <TopoPSA(NO)>
133.38

>  <TopoPSA>
133.38

>  <JGI1>
0.19

>  <JGI2>
0.09

>  <JGI3>
0.05

>  <JGI4>
0.04

>  <JGI5>
0.03

>  <Diameter>
12

>  <Radius>
6

>  <TMWC10>
139.52

>  <TSRW10>
65.79

>  <MW>
419.12

>  <AMW>
8.22

>  <WPath>
2250

>  <WPol>
53

>  <Zagreb1>
154

>  <Zagreb2>
184

>  <mZagreb2>
6.89

>  <yes>


>  <nAR-cont>
0.816016

>  <nHA-cont>
0.74523694

>  <MWHBN>
0.53730823

>  <MWHBN-cont>
0

>  <TPSA-cont>
0

>  <pka_cont>
0.97

>  <yes.1>


>  <BBB_SCORE>
2.04625294

>  <MMFF94 Energy>
56.644

$$$$
Compound 2167
Actelion Java MolfileCreator 2.0

  0  0  0  0  0  0              0 V3000
M  V30 BEGIN CTAB
M  V30 COUNTS 42 43 0 0 0
M  V30 BEGIN ATOM
M  V30 1 O -0.0793 2.2244 2.0654 0
M  V30 2 C -0.6705 1.1507 2.0789 0
M  V30 3 N -1.2958 0.7198 3.222 0
M  V30 4 C -0.7578 0.2524 0.8746 0
M  V30 5 C -1.938 -0.4826 3.3426 0
M  V30 6 C -1.3837 -0.9383 1.0376 0
M  V30 7 C -0.1965 0.7477 -0.4583 0 CFG=2
M  V30 8 C -1.9814 -1.3279 2.3036 0
M  V30 9 O -1.5414 -1.8614 0.0255 0
M  V30 10 C 1.2307 0.2522 -0.6938 0
M  V30 11 C -0.3192 2.2622 -0.7286 0
M  V30 12 C -2.6669 -2.6191 2.5486 0
M  V30 13 C 1.5278 -0.5065 -1.8401 0
M  V30 14 C 2.2719 0.5524 0.1989 0
M  V30 15 C -0.2515 2.5726 -2.2064 0
M  V30 16 O -3.7402 -2.7181 3.1281 0
M  V30 17 O -1.8914 -3.652 2.1307 0
M  V30 18 C 2.8248 -0.9688 -2.0772 0
M  V30 19 C 3.5674 0.0883 -0.0375 0
M  V30 20 O -0.5659 1.8012 -3.1032 0
M  V30 21 O 0.1625 3.8573 -2.3924 0
M  V30 22 C -2.4714 -4.9371 2.3487 0
M  V30 23 C 3.8337 -0.6692 -1.1699 0
M  V30 24 C 0.2478 4.2516 -3.7621 0
M  V30 25 O 5.1131 -1.0984 -1.3615 0
M  V30 26 H -1.2434 1.3498 4.0151 0
M  V30 27 H -2.3785 -0.7045 4.3109 0
M  V30 28 H -0.8277 0.2703 -1.2215 0
M  V30 29 H -0.8517 -1.7289 -0.6463 0
M  V30 30 H -1.2831 2.6448 -0.3725 0
M  V30 31 H 0.487 2.8156 -0.2335 0
M  V30 32 H 0.7534 -0.728 -2.5734 0
M  V30 33 H 2.0931 1.1571 1.0859 0
M  V30 34 H 3.0263 -1.5488 -2.9723 0
M  V30 35 H 4.367 0.3237 0.6594 0
M  V30 36 H -1.789 -5.69 1.9449 0
M  V30 37 H -2.5974 -5.1228 3.42 0
M  V30 38 H -3.4289 -5.0219 1.825 0
M  V30 39 H 0.6059 5.2843 -3.796 0
M  V30 40 H 0.9616 3.6196 -4.2998 0
M  V30 41 H -0.739 4.2112 -4.2338 0
M  V30 42 H 5.1519 -1.5967 -2.194 0
M  V30 END ATOM
M  V30 BEGIN BOND
M  V30 1 2 1 2
M  V30 2 1 2 3
M  V30 3 1 2 4
M  V30 4 1 3 5
M  V30 5 2 4 6
M  V30 6 1 4 7
M  V30 7 2 5 8
M  V30 8 1 6 9
M  V30 9 1 7 10
M  V30 10 1 7 11
M  V30 11 1 8 12
M  V30 12 2 10 13
M  V30 13 1 10 14
M  V30 14 1 11 15
M  V30 15 2 12 16
M  V30 16 1 12 17
M  V30 17 1 13 18
M  V30 18 2 14 19
M  V30 19 2 15 20
M  V30 20 1 15 21
M  V30 21 1 17 22
M  V30 22 2 18 23
M  V30 23 1 21 24
M  V30 24 1 23 25
M  V30 25 1 6 8
M  V30 26 1 19 23
M  V30 27 1 3 26
M  V30 28 1 5 27
M  V30 29 1 7 28
M  V30 30 1 9 29
M  V30 31 1 11 30
M  V30 32 1 11 31
M  V30 33 1 13 32
M  V30 34 1 14 33
M  V30 35 1 18 34
M  V30 36 1 19 35
M  V30 37 1 22 36
M  V30 38 1 22 37
M  V30 39 1 22 38
M  V30 40 1 24 39
M  V30 41 1 24 40
M  V30 42 1 24 41
M  V30 43 1 25 42
M  V30 END BOND
M  V30 BEGIN COLLECTION
M  V30 MDLV30/STEABS ATOMS=(1 7)
M  V30 END COLLECTION
M  V30 END CTAB
M  END
>  <Column 1>
2666

>  <level_0>
3897

>  <index>
3897

>  <Unnamed: 0>
3897

>  <NO.>
3909

>  <Name>
naltrexone

>  <IUPAC_name>
methyl 4-hydroxy-5-[(1s)-1-(4-hydroxyphenyl)-3-methoxy-3-oxopropyl]-6-oxo-1h-pyridine-3-carboxylate

>  <SMILES>
COC(=O)C[C@@H](c1ccc(O)cc1)c1c(O)c(C(=O)OC)c[nH]c1=O

>  <CID>
100004428

>  <logBB>


>  <BBB+/BBB->
BBB+

>  <Inchi>
InChI=1S/C17H17NO7/c1-24-13(20)7-11(9-3-5-10(19)6-4-9)14-15(21)12(17(23)25-2)8-18-16(14)22/h3-6-8-11-19H-7H2-1-2H3-(H2-18-21-22)/t11-/m0/s1

>  <threshold>
-1

>  <reference>
R16|R10|

>  <group>
B

>  <Class>
1

>  <ABC>
18.69

>  <ABCGG>
16.47

>  <nAcid>
0

>  <nBase>
0

>  <nAromAtom>
12

>  <nAromBond>
12

>  <nAtom>
42

>  <nHeavyAtom>
25

>  <nSpiro>
0

>  <nBridgehead>
0

>  <nHetero>
8

>  <nN>
1

>  <nO>
7

>  <nF>
0

>  <BalabanJ>
2.2

>  <BertzCT>
839.07

>  <nBonds>
43

>  <nBondsO>
26

>  <nBondsS>
28

>  <nBondsD>
3

>  <nBondsT>
0

>  <nBondsA>
12

>  <nBondsM>
15

>  <nBondsKS>
35

>  <nBondsKD>
8

>  <RNCG>
0.16

>  <RPCG>
0.11

>  <FCSP3>
0.24

>  <SZ>
30.33

>  <Sm>
28.92

>  <Sv>
27.37

>  <Sse>
43.52

>  <Sp>
27.81

>  <Si>
47.29

>  <MZ>
0.72

>  <Mm>
0.69

>  <Mv>
0.65

>  <Mse>
1.04

>  <Mp>
0.66

>  <Mi>
1.13

>  <NsCH3>
2

>  <NdCH2>
0

>  <NssCH2>
1

>  <NtCH>
0

>  <NdsCH>
0

>  <NaaCH>
5

>  <NsssCH>
1

>  <NddC>
0

>  <NtsC>
0

>  <NdssC>
2

>  <NaasC>
5

>  <NaaaC>
0

>  <NssssC>
0

>  <NsNH3>
0

>  <NsNH2>
0

>  <NssNH2>
0

>  <NdNH>
0

>  <NssNH>
0

>  <NaaNH>
1

>  <NtN>
0

>  <NsssNH>
0

>  <NdsN>
0

>  <NaaN>
0

>  <NsssN>
0

>  <NddsN>
0

>  <NaasN>
0

>  <NssssN>
0

>  <NsOH>
2

>  <NdO>
3

>  <NssO>
2

>  <NaaO>
0

>  <NsF>
0

>  <NsSiH3>
0

>  <NssSiH2>
0

>  <NsssSiH>
0

>  <NssssSi>
0

>  <NsPH2>
0

>  <NssPH>
0

>  <NsssP>
0

>  <NdsssP>
0

>  <NsssssP>
0

>  <NsSH>
0

>  <NdS>
0

>  <NssS>
0

>  <NaaS>
0

>  <NdssS>
0

>  <NddssS>
0

>  <NsCl>
0

>  <NsBr>
0

>  <NsI>
0

>  <fragCpx>
76.08

>  <fMF>
0.31

>  <nHBAcc>
7

>  <nHBDon>
3

>  <Kier1>
21.3

>  <Kier2>
9.8

>  <Lipinski>
1

>  <GhoseFilter>
1

>  <FilterItLogS>
-3.11

>  <VMcGowan>
245.34

>  <LabuteASA>
142.2

>  <PEOE_VSA1>
24.67

>  <PEOE_VSA2>
9.59

>  <PEOE_VSA3>
4.79

>  <PEOE_VSA4>
0

>  <PEOE_VSA5>
0

>  <PEOE_VSA6>
12.13

>  <PEOE_VSA7>
17.7

>  <PEOE_VSA8>
12.11

>  <PEOE_VSA9>
26.2

>  <PEOE_VSA10>
17.06

>  <PEOE_VSA11>
0

>  <PEOE_VSA12>
0

>  <PEOE_VSA13>
5.56

>  <SMR_VSA1>
29.28

>  <SMR_VSA2>
0

>  <SMR_VSA3>
4.98

>  <SMR_VSA4>
0

>  <SMR_VSA5>
12.34

>  <SMR_VSA6>
14.22

>  <SMR_VSA7>
57.51

>  <SMR_VSA8>
0

>  <SMR_VSA9>
11.5

>  <SlogP_VSA1>
5.56

>  <SlogP_VSA2>
41.36

>  <SlogP_VSA3>
14.27

>  <SlogP_VSA4>
0

>  <SlogP_VSA5>
33.82

>  <SlogP_VSA6>
35.26

>  <SlogP_VSA7>
0

>  <SlogP_VSA8>
0

>  <SlogP_VSA9>
0

>  <SlogP_VSA10>
0

>  <SlogP_VSA11>
11.5

>  <EState_VSA1>
29.17

>  <EState_VSA2>
23.3

>  <EState_VSA3>
5.56

>  <EState_VSA4>
13.31

>  <EState_VSA5>
31.38

>  <EState_VSA6>
0

>  <EState_VSA7>
0

>  <EState_VSA8>
14.46

>  <EState_VSA9>
0

>  <EState_VSA10>
24.6

>  <VSA_EState1>
9.22

>  <VSA_EState2>
38.17

>  <VSA_EState3>
19.85

>  <VSA_EState4>
-0.58

>  <VSA_EState5>
-2.9

>  <VSA_EState6>
5.78

>  <VSA_EState7>
0.79

>  <VSA_EState8>
0

>  <VSA_EState9>
2.34

>  <apol>
46.44

>  <bpol>
23.7

>  <nRing>
2

>  <nHRing>
1

>  <naRing>
2

>  <naHRing>
1

>  <nARing 2>
0

>  <nAHRing 2>
0

>  <nFRing>
0

>  <nFHRing>
0

>  <nFaRing>
0

>  <nFaHRing>
0

>  <nFARing 2>
0

>  <nFAHRing 2>
0

>  <nRot>
5

>  <SLogP>
1.27

>  <SMR>
86.65

>  <TopoPSA(NO)>
125.92

>  <TopoPSA>
125.92

>  <JGI1>
0.21

>  <JGI2>
0.1

>  <JGI3>
0.05

>  <JGI4>
0.05

>  <JGI5>
0.03

>  <Diameter>
11

>  <Radius>
6

>  <TMWC10>
125.96

>  <TSRW10>
59.55

>  <MW>
347.1

>  <AMW>
8.26

>  <WPath>
1408

>  <WPol>
41

>  <Zagreb1>
124

>  <Zagreb2>
145

>  <mZagreb2>
5.75

>  <yes>


>  <nAR-cont>
0.336376

>  <nHA-cont>
0.921834225

>  <MWHBN>
0.536750791

>  <MWHBN-cont>
0

>  <TPSA-cont>
0

>  <pka_cont>
0.97

>  <yes.1>


>  <BBB_SCORE>
1.743210225

>  <MMFF94 Energy>
3.0279

$$$$
Compound 2168
Actelion Java MolfileCreator 2.0

  0  0  0  0  0  0              0 V3000
M  V30 BEGIN CTAB
M  V30 COUNTS 63 65 0 0 0
M  V30 BEGIN ATOM
M  V30 1 O 0.0792 -0.4753 0.4753 0
M  V30 2 C -0.5337 0.1893 -0.3587 0
M  V30 3 N -0.9225 -0.3418 -1.5991 0
M  V30 4 C -0.9215 1.6062 -0.0625 0
M  V30 5 C -1.6812 0.3838 -2.518 0
M  V30 6 C -0.5268 -1.7319 -1.8598 0
M  V30 7 C -1.6491 2.2563 -0.9861 0
M  V30 8 C -0.5042 2.2372 1.2602 0 CFG=2
M  V30 9 C -2.0423 1.643 -2.2251 0
M  V30 10 C -2.0906 -0.2368 -3.8258 0
M  V30 11 C -1.5253 -2.7315 -1.2641 0
M  V30 12 O -2.056 3.5606 -0.803 0
M  V30 13 C 0.9742 2.6367 1.2379 0
M  V30 14 C -0.9114 1.4583 2.5297 0
M  V30 15 C -1.1364 -4.1573 -1.567 0
M  V30 16 C 1.992 1.8152 1.7419 0
M  V30 17 C 1.3409 3.8608 0.6612 0
M  V30 18 C -2.4059 1.2882 2.658 0
M  V30 19 C -1.6983 -4.8351 -2.6581 0
M  V30 20 C -0.1843 -4.8117 -0.7727 0
M  V30 21 C 3.3439 2.2098 1.7105 0
M  V30 22 C 2.6797 4.2577 0.5999 0
M  V30 23 O -3.256 1.8713 2.0 0
M  V30 24 O -2.676 0.3986 3.6574 0
M  V30 25 C -1.3212 -6.1489 -2.9459 0
M  V30 26 C 0.1927 -6.1235 -1.0611 0
M  V30 27 C 3.6863 3.4387 1.117 0
M  V30 28 C 4.4231 1.2958 2.2395 0
M  V30 29 C -4.0679 0.1645 3.8708 0
M  V30 30 C -0.3779 -6.7818 -2.1431 0
M  V30 31 O 5.0253 3.7346 1.082 0
M  V30 32 O 3.9156 0.3736 3.2009 0
M  V30 33 O 0.0187 -8.063 -2.3888 0
M  V30 34 C 5.4031 4.9853 0.5212 0
M  V30 35 H -0.3938 -1.8963 -2.9342 0
M  V30 36 H 0.4651 -1.9012 -1.4205 0
M  V30 37 H -1.0451 3.1905 1.363 0
M  V30 38 H -2.6206 2.2272 -2.933 0
M  V30 39 H -2.7381 0.4284 -4.4082 0
M  V30 40 H -1.2132 -0.4511 -4.4442 0
M  V30 41 H -2.6508 -1.1628 -3.664 0
M  V30 42 H -1.5989 -2.6007 -0.177 0
M  V30 43 H -2.5345 -2.5366 -1.6477 0
M  V30 44 H -2.8468 3.7213 -1.344 0
M  V30 45 H -0.4526 0.4668 2.572 0
M  V30 46 H -0.5772 2.0104 3.4179 0
M  V30 47 H 1.7474 0.8403 2.1611 0
M  V30 48 H 0.5776 4.5154 0.2427 0
M  V30 49 H -2.4354 -4.3441 -3.2892 0
M  V30 50 H 0.2688 -4.3017 0.0756 0
M  V30 51 H 2.8986 5.2117 0.1331 0
M  V30 52 H -1.7704 -6.6566 -3.7931 0
M  V30 53 H 0.9292 -6.6287 -0.4429 0
M  V30 54 H 4.8565 0.7284 1.4094 0
M  V30 55 H 5.2094 1.8719 2.7375 0
M  V30 56 H -4.1689 -0.568 4.6762 0
M  V30 57 H -4.5689 1.0879 4.1777 0
M  V30 58 H -4.5307 -0.247 2.9684 0
M  V30 59 H 4.6608 -0.1965 3.4501 0
M  V30 60 H -0.4689 -8.3946 -3.1598 0
M  V30 61 H 5.1346 5.0394 -0.5387 0
M  V30 62 H 6.492 5.0671 0.592 0
M  V30 63 H 4.9703 5.8187 1.0844 0
M  V30 END ATOM
M  V30 BEGIN BOND
M  V30 1 2 1 2
M  V30 2 1 2 3
M  V30 3 1 2 4
M  V30 4 1 3 5
M  V30 5 1 3 6
M  V30 6 2 4 7
M  V30 7 1 4 8
M  V30 8 2 5 9
M  V30 9 1 5 10
M  V30 10 1 6 11
M  V30 11 1 7 12
M  V30 12 1 8 13
M  V30 13 1 8 14
M  V30 14 1 11 15
M  V30 15 2 13 16
M  V30 16 1 13 17
M  V30 17 1 14 18
M  V30 18 2 15 19
M  V30 19 1 15 20
M  V30 20 1 16 21
M  V30 21 2 17 22
M  V30 22 2 18 23
M  V30 23 1 18 24
M  V30 24 1 19 25
M  V30 25 2 20 26
M  V30 26 2 21 27
M  V30 27 1 21 28
M  V30 28 1 24 29
M  V30 29 2 25 30
M  V30 30 1 27 31
M  V30 31 1 28 32
M  V30 32 1 30 33
M  V30 33 1 31 34
M  V30 34 1 7 9
M  V30 35 1 22 27
M  V30 36 1 26 30
M  V30 37 1 6 35
M  V30 38 1 6 36
M  V30 39 1 8 37
M  V30 40 1 9 38
M  V30 41 1 10 39
M  V30 42 1 10 40
M  V30 43 1 10 41
M  V30 44 1 11 42
M  V30 45 1 11 43
M  V30 46 1 12 44
M  V30 47 1 14 45
M  V30 48 1 14 46
M  V30 49 1 16 47
M  V30 50 1 17 48
M  V30 51 1 19 49
M  V30 52 1 20 50
M  V30 53 1 22 51
M  V30 54 1 25 52
M  V30 55 1 26 53
M  V30 56 1 28 54
M  V30 57 1 28 55
M  V30 58 1 29 56
M  V30 59 1 29 57
M  V30 60 1 29 58
M  V30 61 1 32 59
M  V30 62 1 33 60
M  V30 63 1 34 61
M  V30 64 1 34 62
M  V30 65 1 34 63
M  V30 END BOND
M  V30 BEGIN COLLECTION
M  V30 MDLV30/STEABS ATOMS=(1 8)
M  V30 END COLLECTION
M  V30 END CTAB
M  END
>  <Column 1>
2667

>  <level_0>
3898

>  <index>
3898

>  <Unnamed: 0>
3898

>  <NO.>
3910

>  <Name>
dextromethorphan

>  <IUPAC_name>
methyl (3s)-3-[4-hydroxy-1-[2-(4-hydroxyphenyl)ethyl]-6-methyl-2-oxopyridin-3-yl]-3-[3-(hydroxymethyl)-4-methoxyphenyl]propanoate

>  <SMILES>
COC(=O)C[C@@H](c1ccc(OC)c(CO)c1)c1c(O)cc(C)n(CCc2ccc(O)cc2)c1=O

>  <CID>
100003008

>  <logBB>


>  <BBB+/BBB->
BBB+

>  <Inchi>
InChI=1S/C26H29NO7/c1-16-12-22(30)25(26(32)27(16)11-10-17-4-7-20(29)8-5-17)21(14-24(31)34-3)18-6-9-23(33-2)19(13-18)15-28/h4-9-12-13-21-28-30H-10-11-14-15H2-1-3H3/t21-/m0/s1

>  <threshold>
-1

>  <reference>
R16|R10|

>  <group>
B

>  <Class>
1

>  <ABC>
25.72

>  <ABCGG>
20.85

>  <nAcid>
0

>  <nBase>
0

>  <nAromAtom>
18

>  <nAromBond>
18

>  <nAtom>
63

>  <nHeavyAtom>
34

>  <nSpiro>
0

>  <nBridgehead>
0

>  <nHetero>
8

>  <nN>
1

>  <nO>
7

>  <nF>
0

>  <BalabanJ>
1.73

>  <BertzCT>
1215.05

>  <nBonds>
65

>  <nBondsO>
36

>  <nBondsS>
45

>  <nBondsD>
2

>  <nBondsT>
0

>  <nBondsA>
18

>  <nBondsM>
20

>  <nBondsKS>
55

>  <nBondsKD>
10

>  <RNCG>
0.14

>  <RPCG>
0.09

>  <FCSP3>
0.31

>  <SZ>
41.33

>  <Sm>
38.92

>  <Sv>
39.62

>  <Sse>
63.85

>  <Sp>
41.6

>  <Si>
70.78

>  <MZ>
0.66

>  <Mm>
0.62

>  <Mv>
0.63

>  <Mse>
1.01

>  <Mp>
0.66

>  <Mi>
1.12

>  <NsCH3>
3

>  <NdCH2>
0

>  <NssCH2>
4

>  <NtCH>
0

>  <NdsCH>
0

>  <NaaCH>
8

>  <NsssCH>
1

>  <NddC>
0

>  <NtsC>
0

>  <NdssC>
1

>  <NaasC>
8

>  <NaaaC>
0

>  <NssssC>
0

>  <NsNH3>
0

>  <NsNH2>
0

>  <NssNH2>
0

>  <NdNH>
0

>  <NssNH>
0

>  <NaaNH>
0

>  <NtN>
0

>  <NsssNH>
0

>  <NdsN>
0

>  <NaaN>
0

>  <NsssN>
0

>  <NddsN>
0

>  <NaasN>
1

>  <NssssN>
0

>  <NsOH>
3

>  <NdO>
2

>  <NssO>
2

>  <NaaO>
0

>  <NsF>
0

>  <NsSiH3>
0

>  <NssSiH2>
0

>  <NsssSiH>
0

>  <NssssSi>
0

>  <NsPH2>
0

>  <NssPH>
0

>  <NsssP>
0

>  <NdsssP>
0

>  <NsssssP>
0

>  <NsSH>
0

>  <NdS>
0

>  <NssS>
0

>  <NaaS>
0

>  <NdssS>
0

>  <NddssS>
0

>  <NsCl>
0

>  <NsBr>
0

>  <NsI>
0

>  <fragCpx>
174.08

>  <fMF>
0.33

>  <nHBAcc>
8

>  <nHBDon>
3

>  <Kier1>
28.57

>  <Kier2>
13.52

>  <Lipinski>
1

>  <GhoseFilter>
1

>  <FilterItLogS>
-5.32

>  <VMcGowan>
352.69

>  <LabuteASA>
197.19

>  <PEOE_VSA1>
29.36

>  <PEOE_VSA2>
9.59

>  <PEOE_VSA3>
0

>  <PEOE_VSA4>
0

>  <PEOE_VSA5>
0

>  <PEOE_VSA6>
18.2

>  <PEOE_VSA7>
54.8

>  <PEOE_VSA8>
23.72

>  <PEOE_VSA9>
32.81

>  <PEOE_VSA10>
17.25

>  <PEOE_VSA11>
0

>  <PEOE_VSA12>
0

>  <PEOE_VSA13>
5.56

>  <SMR_VSA1>
29.59

>  <SMR_VSA2>
0

>  <SMR_VSA3>
4.57

>  <SMR_VSA4>
0

>  <SMR_VSA5>
38.83

>  <SMR_VSA6>
14.22

>  <SMR_VSA7>
86.83

>  <SMR_VSA8>
0

>  <SMR_VSA9>
17.25

>  <SlogP_VSA1>
10.3

>  <SlogP_VSA2>
40.08

>  <SlogP_VSA3>
29.1

>  <SlogP_VSA4>
6.92

>  <SlogP_VSA5>
40.29

>  <SlogP_VSA6>
53.33

>  <SlogP_VSA7>
0

>  <SlogP_VSA8>
0

>  <SlogP_VSA9>
0

>  <SlogP_VSA10>
0

>  <SlogP_VSA11>
17.25

>  <EState_VSA1>
17.45

>  <EState_VSA2>
30.09

>  <EState_VSA3>
35.54

>  <EState_VSA4>
5.56

>  <EState_VSA5>
20.29

>  <EState_VSA6>
53.96

>  <EState_VSA7>
0

>  <EState_VSA8>
0

>  <EState_VSA9>
9.47

>  <EState_VSA10>
24.91

>  <VSA_EState1>
11.67

>  <VSA_EState2>
25.84

>  <VSA_EState3>
30.01

>  <VSA_EState4>
2.24

>  <VSA_EState5>
-0.91

>  <VSA_EState6>
13.25

>  <VSA_EState7>
0.36

>  <VSA_EState8>
1.78

>  <VSA_EState9>
2.75

>  <apol>
69.47

>  <bpol>
36.01

>  <nRing>
3

>  <nHRing>
1

>  <naRing>
3

>  <naHRing>
1

>  <nARing 2>
0

>  <nAHRing 2>
0

>  <nFRing>
0

>  <nFHRing>
0

>  <nFaRing>
0

>  <nFaHRing>
0

>  <nFARing 2>
0

>  <nFAHRing 2>
0

>  <nRot>
9

>  <SLogP>
3.01

>  <SMR>
126.31

>  <TopoPSA(NO)>
118.22

>  <TopoPSA>
118.22

>  <JGI1>
0.21

>  <JGI2>
0.09

>  <JGI3>
0.05

>  <JGI4>
0.05

>  <JGI5>
0.03

>  <Diameter>
16

>  <Radius>
8

>  <TMWC10>
147.92

>  <TSRW10>
70.19

>  <MW>
467.19

>  <AMW>
7.42

>  <WPath>
3452

>  <WPol>
57

>  <Zagreb1>
172

>  <Zagreb2>
202

>  <mZagreb2>
7.78

>  <yes>


>  <nAR-cont>
0.336376

>  <nHA-cont>
0.568589513

>  <MWHBN>
0.508915778

>  <MWHBN-cont>
0

>  <TPSA-cont>
0.17475099

>  <pka_cont>
0.97

>  <yes.1>


>  <BBB_SCORE>
1.739467492

>  <MMFF94 Energy>
22.558

$$$$
Compound 2169
Actelion Java MolfileCreator 2.0

  0  0  0  0  0  0              0 V3000
M  V30 BEGIN CTAB
M  V30 COUNTS 41 44 0 0 0
M  V30 BEGIN ATOM
M  V30 1 O -0.0806 0.4838 -3.7946 0
M  V30 2 C -0.2539 -0.493 -3.0783 0
M  V30 3 O -1.2806 -1.3797 -3.1942 0
M  V30 4 C 0.6509 -0.8788 -1.9368 0
M  V30 5 C -2.2139 -1.0544 -4.2243 0
M  V30 6 C 0.595 0.1851 -0.8262 0 CFG=2
M  V30 7 C 1.7053 0.0332 0.2172 0
M  V30 8 C -0.7837 0.2653 -0.1673 0
M  V30 9 C 2.2989 1.181 0.7997 0
M  V30 10 C 2.1371 -1.2347 0.6533 0
M  V30 11 C -1.4661 1.4961 -0.1525 0
M  V30 12 C -1.3902 -0.8636 0.4353 0
M  V30 13 O 1.8782 2.4176 0.3908 0
M  V30 14 C 3.2981 1.0877 1.7725 0
M  V30 15 C 3.1246 -1.3022 1.6149 0
M  V30 16 C -2.7089 1.5515 0.4423 0
M  V30 17 C -2.6532 -0.7763 1.031 0
M  V30 18 C 3.6887 -0.1742 2.1574 0
M  V30 19 O 3.6463 -2.4454 2.1349 0
M  V30 20 O -3.4957 2.6568 0.538 0
M  V30 21 C -3.2867 0.4456 1.0165 0
M  V30 22 O 4.639 -0.4635 3.086 0
M  V30 23 C 4.6047 -1.9059 3.0687 0
M  V30 24 C -4.6338 2.1182 1.2409 0
M  V30 25 O -4.5103 0.7135 1.5456 0
M  V30 26 H 1.6641 -0.9684 -2.3482 0
M  V30 27 H 0.3776 -1.8779 -1.5789 0
M  V30 28 H -3.0027 -1.8116 -4.2181 0
M  V30 29 H -2.6706 -0.0779 -4.0343 0
M  V30 30 H -1.7249 -1.0711 -5.2032 0
M  V30 31 H 0.7725 1.1403 -1.3405 0
M  V30 32 H 1.7146 -2.1546 0.2664 0
M  V30 33 H -1.0326 2.3889 -0.5926 0
M  V30 34 H -0.8786 -1.823 0.4494 0
M  V30 35 H 2.3317 3.0973 0.9164 0
M  V30 36 H 3.7586 1.96 2.2188 0
M  V30 37 H -3.1178 -1.6401 1.4923 0
M  V30 38 H 4.3538 -2.2627 4.0742 0
M  V30 39 H 5.6009 -2.2769 2.8022 0
M  V30 40 H -4.7598 2.6704 2.1794 0
M  V30 41 H -5.5281 2.2654 0.6246 0
M  V30 END ATOM
M  V30 BEGIN BOND
M  V30 1 2 1 2
M  V30 2 1 2 3
M  V30 3 1 2 4
M  V30 4 1 3 5
M  V30 5 1 4 6
M  V30 6 1 6 7
M  V30 7 1 6 8
M  V30 8 2 7 9
M  V30 9 1 7 10
M  V30 10 2 8 11
M  V30 11 1 8 12
M  V30 12 1 9 13
M  V30 13 1 9 14
M  V30 14 2 10 15
M  V30 15 1 11 16
M  V30 16 2 12 17
M  V30 17 2 14 18
M  V30 18 1 15 19
M  V30 19 1 16 20
M  V30 20 2 16 21
M  V30 21 1 18 22
M  V30 22 1 19 23
M  V30 23 1 20 24
M  V30 24 1 21 25
M  V30 25 1 15 18
M  V30 26 1 17 21
M  V30 27 1 22 23
M  V30 28 1 24 25
M  V30 29 1 4 26
M  V30 30 1 4 27
M  V30 31 1 5 28
M  V30 32 1 5 29
M  V30 33 1 5 30
M  V30 34 1 6 31
M  V30 35 1 10 32
M  V30 36 1 11 33
M  V30 37 1 12 34
M  V30 38 1 13 35
M  V30 39 1 14 36
M  V30 40 1 17 37
M  V30 41 1 23 38
M  V30 42 1 23 39
M  V30 43 1 24 40
M  V30 44 1 24 41
M  V30 END BOND
M  V30 BEGIN COLLECTION
M  V30 MDLV30/STEABS ATOMS=(1 6)
M  V30 END COLLECTION
M  V30 END CTAB
M  END
>  <Column 1>
2668

>  <level_0>
3899

>  <index>
3899

>  <Unnamed: 0>
3899

>  <NO.>
3911

>  <Name>
enflurane

>  <IUPAC_name>
methyl (3s)-3-(1-3-benzodioxol-5-yl)-3-(6-hydroxy-1-3-benzodioxol-5-yl)propanoate

>  <SMILES>
COC(=O)C[C@@H](c1ccc2c(c1)OCO2)c1cc2c(cc1O)OCO2

>  <CID>
100003226

>  <logBB>


>  <BBB+/BBB->
BBB+

>  <Inchi>
InChI=1S/C18H16O7/c1-21-18(20)6-11(10-2-3-14-15(4-10)23-8-22-14)12-5-16-17(7-13(12)19)25-9-24-16/h2-5-7-11-19H-6-8-9H2-1H3/t11-/m0/s1

>  <threshold>
-1

>  <reference>
R16|R10|

>  <group>
B

>  <Class>
1

>  <ABC>
19.82

>  <ABCGG>
16.7

>  <nAcid>
0

>  <nBase>
0

>  <nAromAtom>
12

>  <nAromBond>
12

>  <nAtom>
41

>  <nHeavyAtom>
25

>  <nSpiro>
0

>  <nBridgehead>
0

>  <nHetero>
7

>  <nN>
0

>  <nO>
7

>  <nF>
0

>  <BalabanJ>
1.49

>  <BertzCT>
830.41

>  <nBonds>
44

>  <nBondsO>
28

>  <nBondsS>
31

>  <nBondsD>
1

>  <nBondsT>
0

>  <nBondsA>
12

>  <nBondsM>
13

>  <nBondsKS>
37

>  <nBondsKD>
7

>  <RNCG>
0.16

>  <RPCG>
0.1

>  <FCSP3>
0.28

>  <SZ>
30

>  <Sm>
28.67

>  <Sv>
27.34

>  <Sse>
42.42

>  <Sp>
27.75

>  <Si>
45.79

>  <MZ>
0.73

>  <Mm>
0.7

>  <Mv>
0.67

>  <Mse>
1.03

>  <Mp>
0.68

>  <Mi>
1.12

>  <NsCH3>
1

>  <NdCH2>
0

>  <NssCH2>
3

>  <NtCH>
0

>  <NdsCH>
0

>  <NaaCH>
5

>  <NsssCH>
1

>  <NddC>
0

>  <NtsC>
0

>  <NdssC>
1

>  <NaasC>
7

>  <NaaaC>
0

>  <NssssC>
0

>  <NsNH3>
0

>  <NsNH2>
0

>  <NssNH2>
0

>  <NdNH>
0

>  <NssNH>
0

>  <NaaNH>
0

>  <NtN>
0

>  <NsssNH>
0

>  <NdsN>
0

>  <NaaN>
0

>  <NsssN>
0

>  <NddsN>
0

>  <NaasN>
0

>  <NssssN>
0

>  <NsOH>
1

>  <NdO>
1

>  <NssO>
5

>  <NaaO>
0

>  <NsF>
0

>  <NsSiH3>
0

>  <NssSiH2>
0

>  <NsssSiH>
0

>  <NssssSi>
0

>  <NsPH2>
0

>  <NssPH>
0

>  <NsssP>
0

>  <NdsssP>
0

>  <NsssssP>
0

>  <NsSH>
0

>  <NdS>
0

>  <NssS>
0

>  <NaaS>
0

>  <NdssS>
0

>  <NddssS>
0

>  <NsCl>
0

>  <NsBr>
0

>  <NsI>
0

>  <fragCpx>
184.07

>  <fMF>
0.46

>  <nHBAcc>
7

>  <nHBDon>
1

>  <Kier1>
18.37

>  <Kier2>
7.94

>  <Lipinski>
1

>  <GhoseFilter>
1

>  <FilterItLogS>
-3.58

>  <VMcGowan>
232.03

>  <LabuteASA>
143.19

>  <PEOE_VSA1>
28.79

>  <PEOE_VSA2>
4.79

>  <PEOE_VSA3>
0

>  <PEOE_VSA4>
0

>  <PEOE_VSA5>
0

>  <PEOE_VSA6>
6.07

>  <PEOE_VSA7>
23.76

>  <PEOE_VSA8>
17.55

>  <PEOE_VSA9>
13.53

>  <PEOE_VSA10>
5.75

>  <PEOE_VSA11>
23

>  <PEOE_VSA12>
13.59

>  <PEOE_VSA13>
0

>  <SMR_VSA1>
33.59

>  <SMR_VSA2>
0

>  <SMR_VSA3>
0

>  <SMR_VSA4>
0

>  <SMR_VSA5>
12.34

>  <SMR_VSA6>
20.7

>  <SMR_VSA7>
41.46

>  <SMR_VSA8>
0

>  <SMR_VSA9>
28.75

>  <SlogP_VSA1>
18.95

>  <SlogP_VSA2>
31.77

>  <SlogP_VSA3>
9.53

>  <SlogP_VSA4>
0

>  <SlogP_VSA5>
23.47

>  <SlogP_VSA6>
30.33

>  <SlogP_VSA7>
0

>  <SlogP_VSA8>
0

>  <SlogP_VSA9>
0

>  <SlogP_VSA10>
0

>  <SlogP_VSA11>
28.75

>  <EState_VSA1>
5.92

>  <EState_VSA2>
31.73

>  <EState_VSA3>
28.56

>  <EState_VSA4>
5.56

>  <EState_VSA5>
13.18

>  <EState_VSA6>
18.2

>  <EState_VSA7>
6.07

>  <EState_VSA8>
0

>  <EState_VSA9>
23.68

>  <EState_VSA10>
9.9

>  <VSA_EState1>
26.22

>  <VSA_EState2>
11.93

>  <VSA_EState3>
10.44

>  <VSA_EState4>
1.34

>  <VSA_EState5>
1.46

>  <VSA_EState6>
8.61

>  <VSA_EState7>
0.06

>  <VSA_EState8>
0.26

>  <VSA_EState9>
1.33

>  <apol>
46.34

>  <bpol>
25.6

>  <nRing>
4

>  <nHRing>
2

>  <naRing>
2

>  <naHRing>
0

>  <nARing 2>
2

>  <nAHRing 2>
2

>  <nFRing>
2

>  <nFHRing>
2

>  <nFaRing>
0

>  <nFaHRing>
0

>  <nFARing 2>
2

>  <nFAHRing 2>
2

>  <nRot>
4

>  <SLogP>
2.54

>  <SMR>
85.27

>  <TopoPSA(NO)>
83.45

>  <TopoPSA>
83.45

>  <JGI1>
0.18

>  <JGI2>
0.08

>  <JGI3>
0.04

>  <JGI4>
0.04

>  <JGI5>
0.02

>  <Diameter>
10

>  <Radius>
5

>  <TMWC10>
129.32

>  <TSRW10>
75.65

>  <MW>
344.09

>  <AMW>
8.39

>  <WPath>
1409

>  <WPol>
39

>  <Zagreb1>
136

>  <Zagreb2>
163

>  <mZagreb2>
5.47

>  <yes>


>  <nAR-cont>
1

>  <nHA-cont>
0.921834225

>  <MWHBN>
0.43127468

>  <MWHBN-cont>
0.35489167

>  <TPSA-cont>
0.417467181

>  <pka_cont>
0.97

>  <yes.1>


>  <BBB_SCORE>
3.774106092

>  <MMFF94 Energy>
25.386

$$$$
Compound 2170
Actelion Java MolfileCreator 2.0

  0  0  0  0  0  0              0 V3000
M  V30 BEGIN CTAB
M  V30 COUNTS 63 67 0 0 0
M  V30 BEGIN ATOM
M  V30 1 Br 3.9034 -5.2071 0.3248 0
M  V30 2 C 4.5377 -3.4425 0.0828 0
M  V30 3 C 3.6271 -2.3884 -0.006 0
M  V30 4 C 5.9067 -3.206 -0.0019 0
M  V30 5 C 4.0804 -1.0712 -0.1896 0
M  V30 6 C 6.3699 -1.9029 -0.1725 0
M  V30 7 C 5.4647 -0.8432 -0.2636 0
M  V30 8 C 3.1123 0.106 -0.2866 0 CFG=1
M  V30 9 C 2.0744 -0.1087 -1.3867 0
M  V30 10 C 2.458 0.4144 1.0741 0
M  V30 11 O 0.9173 -0.7385 -0.9379 0
M  V30 12 C 2.2303 0.2961 -2.6643 0
M  V30 13 C 3.4583 0.9725 2.0566 0
M  V30 14 C -0.1555 -0.9109 -1.7942 0
M  V30 15 O 3.3761 0.8862 -3.163 0
M  V30 16 C 1.0981 0.0847 -3.6174 0
M  V30 17 O 4.4429 1.6331 1.756 0
M  V30 18 O 3.0737 0.6727 3.3287 0
M  V30 19 C -0.1183 -0.5441 -3.0807 0
M  V30 20 C -1.3462 -1.6104 -1.1841 0
M  V30 21 O 1.1558 0.3955 -4.802 0
M  V30 22 C 3.9542 1.1742 4.3354 0
M  V30 23 N -2.2679 -0.7056 -0.48 0
M  V30 24 C -3.5634 -1.37 -0.2425 0
M  V30 25 C -1.704 -0.1738 0.7677 0
M  V30 26 C -4.5698 -0.4885 0.5363 0 CFG=2
M  V30 27 C -2.6943 0.6987 1.5677 0 CFG=2
M  V30 28 C -4.9497 0.7479 -0.2597 0
M  V30 29 C -3.959 -0.091 1.8769 0
M  V30 30 C -3.0694 1.9883 0.8235 0
M  V30 31 N -4.1845 1.9089 -0.1202 0
M  V30 32 C -6.0092 0.7406 -1.088 0
M  V30 33 C -4.4691 3.0797 -0.8309 0
M  V30 34 C -6.3531 1.9052 -1.8591 0
M  V30 35 O -3.8415 4.1314 -0.7251 0
M  V30 36 C -5.6288 3.0241 -1.7571 0
M  V30 37 H 2.5626 -2.5981 0.0667 0
M  V30 38 H 6.6181 -4.0244 0.0682 0
M  V30 39 H 7.4386 -1.7097 -0.2289 0
M  V30 40 H 5.8554 0.1678 -0.3751 0
M  V30 41 H 3.6913 0.9975 -0.5645 0
M  V30 42 H 2.0063 -0.4891 1.5019 0
M  V30 43 H 1.6698 1.1691 0.964 0
M  V30 44 H 4.1271 0.6869 -2.5834 0
M  V30 45 H -0.9437 -0.6832 -3.766 0
M  V30 46 H -1.8885 -2.1114 -1.998 0
M  V30 47 H -1.0018 -2.4155 -0.5213 0
M  V30 48 H 3.5655 0.8657 5.3098 0
M  V30 49 H 4.9567 0.7525 4.213 0
M  V30 50 H 3.9861 2.2678 4.3054 0
M  V30 51 H -4.0114 -1.6475 -1.2054 0
M  V30 52 H -3.4078 -2.3028 0.3169 0
M  V30 53 H -0.8229 0.4397 0.5514 0
M  V30 54 H -1.3696 -0.9994 1.4105 0
M  V30 55 H -5.4691 -1.0866 0.7342 0
M  V30 56 H -2.1991 0.9768 2.5068 0
M  V30 57 H -4.6605 0.5112 2.4677 0
M  V30 58 H -3.7204 -0.9819 2.4704 0
M  V30 59 H -3.3635 2.741 1.5683 0
M  V30 60 H -2.1975 2.4057 0.304 0
M  V30 61 H -6.6238 -0.1449 -1.2162 0
M  V30 62 H -7.2043 1.8514 -2.529 0
M  V30 63 H -5.8467 3.922 -2.3194 0
M  V30 END ATOM
M  V30 BEGIN BOND
M  V30 1 1 1 2
M  V30 2 2 2 3
M  V30 3 1 2 4
M  V30 4 1 3 5
M  V30 5 2 4 6
M  V30 6 2 5 7
M  V30 7 1 5 8
M  V30 8 1 8 9
M  V30 9 1 8 10
M  V30 10 1 9 11
M  V30 11 2 9 12
M  V30 12 1 10 13
M  V30 13 1 11 14
M  V30 14 1 12 15
M  V30 15 1 12 16
M  V30 16 2 13 17
M  V30 17 1 13 18
M  V30 18 2 14 19
M  V30 19 1 14 20
M  V30 20 2 16 21
M  V30 21 1 18 22
M  V30 22 1 20 23
M  V30 23 1 23 24
M  V30 24 1 23 25
M  V30 25 1 24 26
M  V30 26 1 25 27
M  V30 27 1 26 28
M  V30 28 1 26 29
M  V30 29 1 27 30
M  V30 30 1 28 31
M  V30 31 2 28 32
M  V30 32 1 31 33
M  V30 33 1 32 34
M  V30 34 2 33 35
M  V30 35 1 33 36
M  V30 36 1 6 7
M  V30 37 1 16 19
M  V30 38 1 27 29
M  V30 39 1 30 31
M  V30 40 2 34 36
M  V30 41 1 3 37
M  V30 42 1 4 38
M  V30 43 1 6 39
M  V30 44 1 7 40
M  V30 45 1 8 41
M  V30 46 1 10 42
M  V30 47 1 10 43
M  V30 48 1 15 44
M  V30 49 1 19 45
M  V30 50 1 20 46
M  V30 51 1 20 47
M  V30 52 1 22 48
M  V30 53 1 22 49
M  V30 54 1 22 50
M  V30 55 1 24 51
M  V30 56 1 24 52
M  V30 57 1 25 53
M  V30 58 1 25 54
M  V30 59 1 26 55
M  V30 60 1 27 56
M  V30 61 1 29 57
M  V30 62 1 29 58
M  V30 63 1 30 59
M  V30 64 1 30 60
M  V30 65 1 32 61
M  V30 66 1 34 62
M  V30 67 1 36 63
M  V30 END BOND
M  V30 BEGIN COLLECTION
M  V30 MDLV30/STEABS ATOMS=(3 8 26 27)
M  V30 END COLLECTION
M  V30 END CTAB
M  END
>  <Column 1>
2669

>  <level_0>
3900

>  <index>
3900

>  <Unnamed: 0>
3900

>  <NO.>
3912

>  <Name>
codeine

>  <IUPAC_name>
methyl (3s)-3-(3-bromophenyl)-3-[3-hydroxy-4-oxo-6-[[(1r-9s)-6-oxo-7-11-diazatricyclo[7.3.1.02-7]trideca-2-4-dien-11-yl]methyl]pyran-2-yl]propanoate

>  <SMILES>
COC(=O)C[C@@H](c1cccc(Br)c1)c1oc(CN2C[C@@H]3C[C@H](C2)c2cccc(=O)n2C3)cc(=O)c1O

>  <CID>
100002828

>  <logBB>


>  <BBB+/BBB->
BBB+

>  <Inchi>
InChI=1S/C27H27BrN2O6/c1-35-25(33)11-21(17-4-2-5-19(28)9-17)27-26(34)23(31)10-20(36-27)15-29-12-16-8-18(14-29)22-6-3-7-24(32)30(22)13-16/h2-7-9-10-16-18-21-34H-8-11-15H2-1H3/t16--18+-21-/m0/s1

>  <threshold>
-1

>  <reference>
R16|R16|R10|R10|

>  <group>
B

>  <Class>
1

>  <ABC>
28.55

>  <ABCGG>
21.06

>  <nAcid>
0

>  <nBase>
1

>  <nAromAtom>
18

>  <nAromBond>
18

>  <nAtom>
63

>  <nHeavyAtom>
36

>  <nSpiro>
0

>  <nBridgehead>
2

>  <nHetero>
9

>  <nN>
2

>  <nO>
6

>  <nF>
0

>  <BalabanJ>
1.26

>  <BertzCT>
1413.86

>  <nBonds>
67

>  <nBondsO>
40

>  <nBondsS>
46

>  <nBondsD>
3

>  <nBondsT>
0

>  <nBondsA>
18

>  <nBondsM>
21

>  <nBondsKS>
57

>  <nBondsKD>
10

>  <RNCG>
0.15

>  <RPCG>
0.09

>  <FCSP3>
0.37

>  <SZ>
47.67

>  <Sm>
46.24

>  <Sv>
41.41

>  <Sse>
63.97

>  <Sp>
43.81

>  <Si>
70.49

>  <MZ>
0.76

>  <Mm>
0.73

>  <Mv>
0.66

>  <Mse>
1.02

>  <Mp>
0.7

>  <Mi>
1.12

>  <NsCH3>
1

>  <NdCH2>
0

>  <NssCH2>
6

>  <NtCH>
0

>  <NdsCH>
0

>  <NaaCH>
8

>  <NsssCH>
3

>  <NddC>
0

>  <NtsC>
0

>  <NdssC>
1

>  <NaasC>
6

>  <NaaaC>
0

>  <NssssC>
0

>  <NsNH3>
0

>  <NsNH2>
0

>  <NssNH2>
0

>  <NdNH>
0

>  <NssNH>
0

>  <NaaNH>
0

>  <NtN>
0

>  <NsssNH>
0

>  <NdsN>
0

>  <NaaN>
0

>  <NsssN>
1

>  <NddsN>
0

>  <NaasN>
1

>  <NssssN>
0

>  <NsOH>
1

>  <NdO>
3

>  <NssO>
1

>  <NaaO>
1

>  <NsF>
0

>  <NsSiH3>
0

>  <NssSiH2>
0

>  <NsssSiH>
0

>  <NssssSi>
0

>  <NsPH2>
0

>  <NssPH>
0

>  <NsssP>
0

>  <NdsssP>
0

>  <NsssssP>
0

>  <NsSH>
0

>  <NdS>
0

>  <NssS>
0

>  <NaaS>
0

>  <NdssS>
0

>  <NddssS>
0

>  <NsCl>
0

>  <NsBr>
1

>  <NsI>
0

>  <fragCpx>
340.09

>  <fMF>
0.43

>  <nHBAcc>
8

>  <nHBDon>
1

>  <Kier1>
27.56

>  <Kier2>
12.03

>  <Lipinski>
0

>  <GhoseFilter>
0

>  <FilterItLogS>
-5.97

>  <VMcGowan>
366.67

>  <LabuteASA>
215.8

>  <PEOE_VSA1>
18.83

>  <PEOE_VSA2>
19.28

>  <PEOE_VSA3>
0

>  <PEOE_VSA4>
0

>  <PEOE_VSA5>
0

>  <PEOE_VSA6>
34.13

>  <PEOE_VSA7>
36.1

>  <PEOE_VSA8>
47.85

>  <PEOE_VSA9>
25.99

>  <PEOE_VSA10>
5.76

>  <PEOE_VSA11>
5.76

>  <PEOE_VSA12>
11.18

>  <PEOE_VSA13>
5.56

>  <SMR_VSA1>
19.06

>  <SMR_VSA2>
0

>  <SMR_VSA3>
9.47

>  <SMR_VSA4>
5.92

>  <SMR_VSA5>
37.77

>  <SMR_VSA6>
20.2

>  <SMR_VSA7>
96.36

>  <SMR_VSA8>
0

>  <SMR_VSA9>
5.75

>  <SlogP_VSA1>
10.99

>  <SlogP_VSA2>
40.74

>  <SlogP_VSA3>
22.62

>  <SlogP_VSA4>
5.92

>  <SlogP_VSA5>
47.46

>  <SlogP_VSA6>
67.01

>  <SlogP_VSA7>
0

>  <SlogP_VSA8>
0

>  <SlogP_VSA9>
0

>  <SlogP_VSA10>
0

>  <SlogP_VSA11>
5.75

>  <EState_VSA1>
23.07

>  <EState_VSA2>
23.66

>  <EState_VSA3>
30.33

>  <EState_VSA4>
29.68

>  <EState_VSA5>
13.18

>  <EState_VSA6>
6.07

>  <EState_VSA7>
40.97

>  <EState_VSA8>
20.83

>  <EState_VSA9>
9.15

>  <EState_VSA10>
19.49

>  <VSA_EState1>
13.68

>  <VSA_EState2>
39.53

>  <VSA_EState3>
10.66

>  <VSA_EState4>
1.24

>  <VSA_EState5>
-0.65

>  <VSA_EState6>
14.05

>  <VSA_EState7>
0.93

>  <VSA_EState8>
2.57

>  <VSA_EState9>
1.3

>  <apol>
73.16

>  <bpol>
37.96

>  <nRing>
5

>  <nHRing>
4

>  <naRing>
3

>  <naHRing>
2

>  <nARing 2>
2

>  <nAHRing 2>
2

>  <nFRing>
1

>  <nFHRing>
1

>  <nFaRing>
0

>  <nFaHRing>
0

>  <nFARing 2>
1

>  <nFAHRing 2>
1

>  <nRot>
6

>  <SLogP>
3.58

>  <SMR>
136.09

>  <TopoPSA(NO)>
101.98

>  <TopoPSA>
101.98

>  <JGI1>
0.21

>  <JGI2>
0.07

>  <JGI3>
0.05

>  <JGI4>
0.04

>  <JGI5>
0.03

>  <Diameter>
15

>  <Radius>
8

>  <TMWC10>
155.66

>  <TSRW10>
73.01

>  <MW>
554.11

>  <AMW>
8.8

>  <WPath>
4061

>  <WPol>
63

>  <Zagreb1>
196

>  <Zagreb2>
234

>  <mZagreb2>
7.78

>  <yes>


>  <nAR-cont>
1

>  <nHA-cont>
0.477843619

>  <MWHBN>
0.382335404

>  <MWHBN-cont>
0.54563435

>  <TPSA-cont>
0.288116274

>  <pka_cont>
0.97

>  <yes.1>


>  <BBB_SCORE>
3.357527692

>  <MMFF94 Energy>
71.008

$$$$
Compound 2171
Actelion Java MolfileCreator 2.0

  0  0  0  0  0  0              0 V3000
M  V30 BEGIN CTAB
M  V30 COUNTS 65 68 0 0 0
M  V30 BEGIN ATOM
M  V30 1 O -0.799 -4.1601 1.4385 0
M  V30 2 C -1.4784 -3.1467 1.3103 0
M  V30 3 O -2.7802 -3.2364 0.8396 0
M  V30 4 C -0.9609 -1.8003 1.6786 0
M  V30 5 C -3.6565 -2.1439 0.9026 0
M  V30 6 C -1.8309 -0.7777 1.7964 0
M  V30 7 C 0.5472 -1.6576 1.8952 0 CFG=2
M  V30 8 C -3.2291 -0.9182 1.3957 0
M  V30 9 C -4.9658 -2.3529 0.47 0
M  V30 10 O -1.4852 0.4766 2.2562 0
M  V30 11 C 1.3713 -2.0723 0.6663 0
M  V30 12 C 1.0258 -2.2972 3.2175 0
M  V30 13 C -4.156 0.1296 1.4532 0
M  V30 14 C -5.8784 -1.3028 0.5326 0
M  V30 15 C 1.5708 -1.1746 -0.4055 0
M  V30 16 C 1.9564 -3.3448 0.567 0
M  V30 17 C 0.5611 -1.4985 4.4118 0
M  V30 18 C -5.4742 -0.0617 1.0251 0
M  V30 19 O 1.0148 0.0811 -0.3093 0
M  V30 20 C 2.3999 -1.5022 -1.4982 0
M  V30 21 C 2.7342 -3.6953 -0.5372 0
M  V30 22 O 0.0223 -0.3991 4.3532 0
M  V30 23 O 0.8459 -2.1725 5.5591 0
M  V30 24 C -0.0716 0.2507 -1.2363 0
M  V30 25 O 2.6032 -0.5164 -2.4281 0
M  V30 26 C 2.9642 -2.7762 -1.5604 0
M  V30 27 C 0.4494 -1.4937 6.7521 0
M  V30 28 C -0.6599 1.6546 -1.064 0
M  V30 29 C 3.5413 -0.7683 -3.464 0
M  V30 30 C 0.1103 2.7131 -1.8227 0
M  V30 31 C 1.4043 3.0743 -1.4322 0
M  V30 32 C -0.4588 3.3503 -2.9328 0
M  V30 33 C 2.1119 4.0483 -2.1407 0
M  V30 34 C 0.2516 4.3276 -3.6403 0
M  V30 35 C 1.5419 4.6807 -3.2468 0
M  V30 36 O 2.3413 5.6134 -3.8489 0
M  V30 37 C 1.7979 6.2938 -4.9725 0
M  V30 38 H 0.78 -0.5896 2.0074 0
M  V30 39 H -5.2707 -3.3245 0.0926 0
M  V30 40 H -0.8255 0.3775 2.9777 0
M  V30 41 H 0.6634 -3.3247 3.3248 0
M  V30 42 H 2.1221 -2.3095 3.2562 0
M  V30 43 H -3.858 1.1074 1.8267 0
M  V30 44 H -6.903 -1.4498 0.2004 0
M  V30 45 H 1.8052 -4.0931 1.3428 0
M  V30 46 H -6.1832 0.7613 1.0752 0
M  V30 47 H 3.1698 -4.6901 -0.5944 0
M  V30 48 H -0.8492 -0.486 -1.0038 0
M  V30 49 H 0.2433 0.096 -2.2742 0
M  V30 50 H 3.5897 -3.0865 -2.3902 0
M  V30 51 H 0.7174 -2.1229 7.6052 0
M  V30 52 H 0.9791 -0.5403 6.8438 0
M  V30 53 H -0.634 -1.3384 6.7622 0
M  V30 54 H -1.6971 1.6455 -1.4209 0
M  V30 55 H -0.6895 1.9394 -0.0056 0
M  V30 56 H 4.5343 -0.9856 -3.0568 0
M  V30 57 H 3.6218 0.1395 -4.0698 0
M  V30 58 H 3.196 -1.5749 -4.1187 0
M  V30 59 H 1.8748 2.5942 -0.5765 0
M  V30 60 H -1.4634 3.0908 -3.2593 0
M  V30 61 H 3.118 4.3137 -1.8263 0
M  V30 62 H -0.2331 4.7905 -4.4928 0
M  V30 63 H 1.5816 5.5973 -5.7892 0
M  V30 64 H 2.5512 7.0022 -5.3306 0
M  V30 65 H 0.9074 6.8676 -4.6947 0
M  V30 END ATOM
M  V30 BEGIN BOND
M  V30 1 2 1 2
M  V30 2 1 2 3
M  V30 3 1 2 4
M  V30 4 1 3 5
M  V30 5 2 4 6
M  V30 6 1 4 7
M  V30 7 2 5 8
M  V30 8 1 5 9
M  V30 9 1 6 10
M  V30 10 1 7 11
M  V30 11 1 7 12
M  V30 12 1 8 13
M  V30 13 2 9 14
M  V30 14 2 11 15
M  V30 15 1 11 16
M  V30 16 1 12 17
M  V30 17 2 13 18
M  V30 18 1 15 19
M  V30 19 1 15 20
M  V30 20 2 16 21
M  V30 21 2 17 22
M  V30 22 1 17 23
M  V30 23 1 19 24
M  V30 24 1 20 25
M  V30 25 2 20 26
M  V30 26 1 23 27
M  V30 27 1 24 28
M  V30 28 1 25 29
M  V30 29 1 28 30
M  V30 30 2 30 31
M  V30 31 1 30 32
M  V30 32 1 31 33
M  V30 33 2 32 34
M  V30 34 2 33 35
M  V30 35 1 35 36
M  V30 36 1 36 37
M  V30 37 1 6 8
M  V30 38 1 14 18
M  V30 39 1 21 26
M  V30 40 1 34 35
M  V30 41 1 7 38
M  V30 42 1 9 39
M  V30 43 1 10 40
M  V30 44 1 12 41
M  V30 45 1 12 42
M  V30 46 1 13 43
M  V30 47 1 14 44
M  V30 48 1 16 45
M  V30 49 1 18 46
M  V30 50 1 21 47
M  V30 51 1 24 48
M  V30 52 1 24 49
M  V30 53 1 26 50
M  V30 54 1 27 51
M  V30 55 1 27 52
M  V30 56 1 27 53
M  V30 57 1 28 54
M  V30 58 1 28 55
M  V30 59 1 29 56
M  V30 60 1 29 57
M  V30 61 1 29 58
M  V30 62 1 31 59
M  V30 63 1 32 60
M  V30 64 1 33 61
M  V30 65 1 34 62
M  V30 66 1 37 63
M  V30 67 1 37 64
M  V30 68 1 37 65
M  V30 END BOND
M  V30 BEGIN COLLECTION
M  V30 MDLV30/STEABS ATOMS=(1 7)
M  V30 END COLLECTION
M  V30 END CTAB
M  END
>  <Column 1>
2670

>  <level_0>
3901

>  <index>
3901

>  <Unnamed: 0>
3901

>  <NO.>
3913

>  <Name>
chloroquine

>  <IUPAC_name>
methyl (3s)-3-(4-hydroxy-2-oxochromen-3-yl)-3-[3-methoxy-2-[2-(4-methoxyphenyl)ethoxy]phenyl]propanoate

>  <SMILES>
COC(=O)C[C@@H](c1cccc(OC)c1OCCc1ccc(OC)cc1)c1c(O)c2ccccc2oc1=O

>  <CID>
100002719

>  <logBB>


>  <BBB+/BBB->
BBB+

>  <Inchi>
InChI=1S/C29H28O8/c1-33-19-13-11-18(12-14-19)15-16-36-28-20(8-6-10-24(28)34-2)22(17-25(30)35-3)26-27(31)21-7-4-5-9-23(21)37-29(26)32/h4-14-22-31H-15-17H2-1-3H3/t22-/m0/s1

>  <threshold>
-1

>  <reference>
R16|R10|

>  <group>
B

>  <Class>
-1

>  <ABC>
28.29

>  <ABCGG>
21.95

>  <nAcid>
0

>  <nBase>
0

>  <nAromAtom>
22

>  <nAromBond>
23

>  <nAtom>
65

>  <nHeavyAtom>
37

>  <nSpiro>
0

>  <nBridgehead>
0

>  <nHetero>
8

>  <nN>
0

>  <nO>
8

>  <nF>
0

>  <BalabanJ>
1.48

>  <BertzCT>
1439.01

>  <nBonds>
68

>  <nBondsO>
40

>  <nBondsS>
43

>  <nBondsD>
2

>  <nBondsT>
0

>  <nBondsA>
23

>  <nBondsM>
25

>  <nBondsKS>
56

>  <nBondsKD>
12

>  <RNCG>
0.13

>  <RPCG>
0.09

>  <FCSP3>
0.24

>  <SZ>
44.33

>  <Sm>
42.01

>  <Sv>
42.3

>  <Sse>
66.08

>  <Sp>
44.02

>  <Si>
72.49

>  <MZ>
0.68

>  <Mm>
0.65

>  <Mv>
0.65

>  <Mse>
1.02

>  <Mp>
0.68

>  <Mi>
1.12

>  <NsCH3>
3

>  <NdCH2>
0

>  <NssCH2>
3

>  <NtCH>
0

>  <NdsCH>
0

>  <NaaCH>
11

>  <NsssCH>
1

>  <NddC>
0

>  <NtsC>
0

>  <NdssC>
1

>  <NaasC>
7

>  <NaaaC>
2

>  <NssssC>
0

>  <NsNH3>
0

>  <NsNH2>
0

>  <NssNH2>
0

>  <NdNH>
0

>  <NssNH>
0

>  <NaaNH>
0

>  <NtN>
0

>  <NsssNH>
0

>  <NdsN>
0

>  <NaaN>
0

>  <NsssN>
0

>  <NddsN>
0

>  <NaasN>
0

>  <NssssN>
0

>  <NsOH>
1

>  <NdO>
2

>  <NssO>
4

>  <NaaO>
1

>  <NsF>
0

>  <NsSiH3>
0

>  <NssSiH2>
0

>  <NsssSiH>
0

>  <NssssSi>
0

>  <NsPH2>
0

>  <NssPH>
0

>  <NsssP>
0

>  <NdsssP>
0

>  <NsssssP>
0

>  <NsSH>
0

>  <NdS>
0

>  <NssS>
0

>  <NaaS>
0

>  <NdssS>
0

>  <NddssS>
0

>  <NsCl>
0

>  <NsBr>
0

>  <NsI>
0

>  <fragCpx>
268.08

>  <fMF>
0.4

>  <nHBAcc>
8

>  <nHBDon>
1

>  <Kier1>
29.97

>  <Kier2>
14.58

>  <Lipinski>
0

>  <GhoseFilter>
0

>  <FilterItLogS>
-7.56

>  <VMcGowan>
371.39

>  <LabuteASA>
213.52

>  <PEOE_VSA1>
28.47

>  <PEOE_VSA2>
4.79

>  <PEOE_VSA3>
4.79

>  <PEOE_VSA4>
0

>  <PEOE_VSA5>
0

>  <PEOE_VSA6>
36.4

>  <PEOE_VSA7>
35.9

>  <PEOE_VSA8>
17.9

>  <PEOE_VSA9>
45.31

>  <PEOE_VSA10>
17.08

>  <PEOE_VSA11>
11.5

>  <PEOE_VSA12>
0

>  <PEOE_VSA13>
0

>  <SMR_VSA1>
33.27

>  <SMR_VSA2>
0

>  <SMR_VSA3>
0

>  <SMR_VSA4>
0

>  <SMR_VSA5>
18.76

>  <SMR_VSA6>
27.94

>  <SMR_VSA7>
93.84

>  <SMR_VSA8>
0

>  <SMR_VSA9>
23

>  <SlogP_VSA1>
19.84

>  <SlogP_VSA2>
39.01

>  <SlogP_VSA3>
15.95

>  <SlogP_VSA4>
0

>  <SlogP_VSA5>
29.03

>  <SlogP_VSA6>
75.94

>  <SlogP_VSA7>
0

>  <SlogP_VSA8>
10.97

>  <SlogP_VSA9>
0

>  <SlogP_VSA10>
0

>  <SlogP_VSA11>
23

>  <EState_VSA1>
17.51

>  <EState_VSA2>
23.32

>  <EState_VSA3>
35.48

>  <EState_VSA4>
11.31

>  <EState_VSA5>
14.22

>  <EState_VSA6>
49.57

>  <EState_VSA7>
24.27

>  <EState_VSA8>
0

>  <EState_VSA9>
23.36

>  <EState_VSA10>
14.7

>  <VSA_EState1>
27.34

>  <VSA_EState2>
25.55

>  <VSA_EState3>
11.5

>  <VSA_EState4>
0.95

>  <VSA_EState5>
-0.2

>  <VSA_EState6>
19.49

>  <VSA_EState7>
0.36

>  <VSA_EState8>
0.29

>  <VSA_EState9>
4.38

>  <apol>
73.52

>  <bpol>
38.51

>  <nRing>
4

>  <nHRing>
1

>  <naRing>
4

>  <naHRing>
1

>  <nARing 2>
0

>  <nAHRing 2>
0

>  <nFRing>
1

>  <nFHRing>
1

>  <nFaRing>
1

>  <nFaHRing>
1

>  <nFARing 2>
0

>  <nFAHRing 2>
0

>  <nRot>
10

>  <SLogP>
4.83

>  <SMR>
137.81

>  <TopoPSA(NO)>
104.43

>  <TopoPSA>
104.43

>  <JGI1>
0.16

>  <JGI2>
0.08

>  <JGI3>
0.04

>  <JGI4>
0.04

>  <JGI5>
0.03

>  <Diameter>
17

>  <Radius>
9

>  <TMWC10>
156.06

>  <TSRW10>
73.73

>  <MW>
504.18

>  <AMW>
7.76

>  <WPath>
4310

>  <WPol>
63

>  <Zagreb1>
190

>  <Zagreb2>
225

>  <mZagreb2>
8.47

>  <yes>


>  <nAR-cont>
0.336376

>  <nHA-cont>
0.433355441

>  <MWHBN>
0.400820294

>  <MWHBN-cont>
0.472832799

>  <TPSA-cont>
0.271013753

>  <pka_cont>
0.97

>  <yes.1>


>  <BBB_SCORE>
2.506008145

>  <MMFF94 Energy>
84.15

$$$$
Compound 2172
Actelion Java MolfileCreator 2.0

  0  0  0  0  0  0              0 V3000
M  V30 BEGIN CTAB
M  V30 COUNTS 41 42 0 0 0
M  V30 BEGIN ATOM
M  V30 1 O 1.1124 1.5894 2.0666 0
M  V30 2 C 0.6376 0.4745 1.8813 0
M  V30 3 N 0.4151 -0.3787 2.9345 0
M  V30 4 C 0.2307 -0.0188 0.5219 0
M  V30 5 C -0.2368 -1.5793 2.828 0
M  V30 6 C -0.4699 -1.1733 0.4629 0
M  V30 7 C 0.6545 0.792 -0.6967 0 CFG=2
M  V30 8 C -0.7124 -1.9855 1.6416 0
M  V30 9 O -0.9631 -1.6855 -0.7191 0
M  V30 10 C 2.1742 0.9374 -0.7995 0
M  V30 11 C -0.1322 2.11 -0.8357 0
M  V30 12 C -1.4465 -3.2727 1.6397 0
M  V30 13 C 2.9288 -0.1463 -1.2851 0
M  V30 14 C 2.8565 2.1005 -0.4136 0
M  V30 15 C -1.5706 1.8389 -1.2082 0
M  V30 16 O -1.0707 -4.2704 2.2403 0
M  V30 17 O -2.6212 -3.1447 0.971 0
M  V30 18 C 4.3177 -0.0612 -1.397 0
M  V30 19 C 4.2467 2.1835 -0.5248 0
M  V30 20 O -2.0152 0.7439 -1.5355 0
M  V30 21 O -2.2912 2.9915 -1.1462 0
M  V30 22 C -3.3981 -4.3405 0.9304 0
M  V30 23 C 4.9762 1.1054 -1.0192 0
M  V30 24 C -3.6702 2.841 -1.4875 0
M  V30 25 H 0.7357 -0.0512 3.8388 0
M  V30 26 H -0.363 -2.1466 3.746 0
M  V30 27 H 0.4043 0.2134 -1.5984 0
M  V30 28 H -1.382 -0.9454 -1.2135 0
M  V30 29 H -0.1132 2.6913 0.0921 0
M  V30 30 H 0.2932 2.7232 -1.6395 0
M  V30 31 H 2.4352 -1.071 -1.58 0
M  V30 32 H 2.3214 2.9505 0.004 0
M  V30 33 H 4.8846 -0.9078 -1.7749 0
M  V30 34 H 4.7601 3.0895 -0.2132 0
M  V30 35 H -4.2944 -4.1426 0.3361 0
M  V30 36 H -2.8372 -5.1489 0.451 0
M  V30 37 H -3.7084 -4.6289 1.9396 0
M  V30 38 H 6.0577 1.1716 -1.1006 0
M  V30 39 H -4.151 3.8189 -1.3955 0
M  V30 40 H -3.7728 2.4996 -2.5222 0
M  V30 41 H -4.1616 2.1466 -0.7988 0
M  V30 END ATOM
M  V30 BEGIN BOND
M  V30 1 2 1 2
M  V30 2 1 2 3
M  V30 3 1 2 4
M  V30 4 1 3 5
M  V30 5 2 4 6
M  V30 6 1 4 7
M  V30 7 2 5 8
M  V30 8 1 6 9
M  V30 9 1 7 10
M  V30 10 1 7 11
M  V30 11 1 8 12
M  V30 12 2 10 13
M  V30 13 1 10 14
M  V30 14 1 11 15
M  V30 15 2 12 16
M  V30 16 1 12 17
M  V30 17 1 13 18
M  V30 18 2 14 19
M  V30 19 2 15 20
M  V30 20 1 15 21
M  V30 21 1 17 22
M  V30 22 2 18 23
M  V30 23 1 21 24
M  V30 24 1 6 8
M  V30 25 1 19 23
M  V30 26 1 3 25
M  V30 27 1 5 26
M  V30 28 1 7 27
M  V30 29 1 9 28
M  V30 30 1 11 29
M  V30 31 1 11 30
M  V30 32 1 13 31
M  V30 33 1 14 32
M  V30 34 1 18 33
M  V30 35 1 19 34
M  V30 36 1 22 35
M  V30 37 1 22 36
M  V30 38 1 22 37
M  V30 39 1 23 38
M  V30 40 1 24 39
M  V30 41 1 24 40
M  V30 42 1 24 41
M  V30 END BOND
M  V30 BEGIN COLLECTION
M  V30 MDLV30/STEABS ATOMS=(1 7)
M  V30 END COLLECTION
M  V30 END CTAB
M  END
>  <Column 1>
2671

>  <level_0>
3902

>  <index>
3902

>  <Unnamed: 0>
3902

>  <NO.>
3914

>  <Name>
meloxicam

>  <IUPAC_name>
methyl 4-hydroxy-5-[(1s)-3-methoxy-3-oxo-1-phenylpropyl]-6-oxo-1h-pyridine-3-carboxylate

>  <SMILES>
COC(=O)C[C@@H](c1ccccc1)c1c(O)c(C(=O)OC)c[nH]c1=O

>  <CID>
100004051

>  <logBB>


>  <BBB+/BBB->
BBB-

>  <Inchi>
InChI=1S/C17H17NO6/c1-23-13(19)8-11(10-6-4-3-5-7-10)14-15(20)12(17(22)24-2)9-18-16(14)21/h3-7-9-11H-8H2-1-2H3-(H2-18-20-21)/t11-/m0/s1

>  <threshold>
-1

>  <reference>
R16|R10|

>  <group>
B

>  <Class>
1

>  <ABC>
17.87

>  <ABCGG>
15.94

>  <nAcid>
0

>  <nBase>
0

>  <nAromAtom>
12

>  <nAromBond>
12

>  <nAtom>
41

>  <nHeavyAtom>
24

>  <nSpiro>
0

>  <nBridgehead>
0

>  <nHetero>
7

>  <nN>
1

>  <nO>
6

>  <nF>
0

>  <BalabanJ>
2.2

>  <BertzCT>
796.47

>  <nBonds>
42

>  <nBondsO>
25

>  <nBondsS>
27

>  <nBondsD>
3

>  <nBondsT>
0

>  <nBondsA>
12

>  <nBondsM>
15

>  <nBondsKS>
34

>  <nBondsKD>
8

>  <RNCG>
0.18

>  <RPCG>
0.12

>  <FCSP3>
0.24

>  <SZ>
29

>  <Sm>
27.59

>  <Sv>
26.65

>  <Sse>
42.19

>  <Sp>
27.33

>  <Si>
46.08

>  <MZ>
0.71

>  <Mm>
0.67

>  <Mv>
0.65

>  <Mse>
1.03

>  <Mp>
0.67

>  <Mi>
1.12

>  <NsCH3>
2

>  <NdCH2>
0

>  <NssCH2>
1

>  <NtCH>
0

>  <NdsCH>
0

>  <NaaCH>
6

>  <NsssCH>
1

>  <NddC>
0

>  <NtsC>
0

>  <NdssC>
2

>  <NaasC>
4

>  <NaaaC>
0

>  <NssssC>
0

>  <NsNH3>
0

>  <NsNH2>
0

>  <NssNH2>
0

>  <NdNH>
0

>  <NssNH>
0

>  <NaaNH>
1

>  <NtN>
0

>  <NsssNH>
0

>  <NdsN>
0

>  <NaaN>
0

>  <NsssN>
0

>  <NddsN>
0

>  <NaasN>
0

>  <NssssN>
0

>  <NsOH>
1

>  <NdO>
3

>  <NssO>
2

>  <NaaO>
0

>  <NsF>
0

>  <NsSiH3>
0

>  <NssSiH2>
0

>  <NsssSiH>
0

>  <NssssSi>
0

>  <NsPH2>
0

>  <NssPH>
0

>  <NsssP>
0

>  <NdsssP>
0

>  <NsssssP>
0

>  <NsSH>
0

>  <NdS>
0

>  <NssS>
0

>  <NaaS>
0

>  <NdssS>
0

>  <NddssS>
0

>  <NsCl>
0

>  <NsBr>
0

>  <NsI>
0

>  <fragCpx>
73.07

>  <fMF>
0.32

>  <nHBAcc>
6

>  <nHBDon>
2

>  <Kier1>
20.31

>  <Kier2>
9.63

>  <Lipinski>
1

>  <GhoseFilter>
1

>  <FilterItLogS>
-3.55

>  <VMcGowan>
239.47

>  <LabuteASA>
137.4

>  <PEOE_VSA1>
19.56

>  <PEOE_VSA2>
9.59

>  <PEOE_VSA3>
4.79

>  <PEOE_VSA4>
0

>  <PEOE_VSA5>
0

>  <PEOE_VSA6>
30.33

>  <PEOE_VSA7>
5.56

>  <PEOE_VSA8>
12.11

>  <PEOE_VSA9>
26.2

>  <PEOE_VSA10>
11.31

>  <PEOE_VSA11>
0

>  <PEOE_VSA12>
0

>  <PEOE_VSA13>
5.56

>  <SMR_VSA1>
24.17

>  <SMR_VSA2>
0

>  <SMR_VSA3>
4.98

>  <SMR_VSA4>
0

>  <SMR_VSA5>
12.34

>  <SMR_VSA6>
14.22

>  <SMR_VSA7>
63.57

>  <SMR_VSA8>
0

>  <SMR_VSA9>
5.75

>  <SlogP_VSA1>
5.56

>  <SlogP_VSA2>
36.25

>  <SlogP_VSA3>
14.27

>  <SlogP_VSA4>
0

>  <SlogP_VSA5>
33.82

>  <SlogP_VSA6>
41.32

>  <SlogP_VSA7>
0

>  <SlogP_VSA8>
0

>  <SlogP_VSA9>
0

>  <SlogP_VSA10>
0

>  <SlogP_VSA11>
5.75

>  <EState_VSA1>
29.17

>  <EState_VSA2>
17.55

>  <EState_VSA3>
5.56

>  <EState_VSA4>
13.31

>  <EState_VSA5>
7.11

>  <EState_VSA6>
30.33

>  <EState_VSA7>
0

>  <EState_VSA8>
14.46

>  <EState_VSA9>
0

>  <EState_VSA10>
19.49

>  <VSA_EState1>
9.26

>  <VSA_EState2>
38.16

>  <VSA_EState3>
10.42

>  <VSA_EState4>
-0.24

>  <VSA_EState5>
-2.63

>  <VSA_EState6>
8.71

>  <VSA_EState7>
0.91

>  <VSA_EState8>
0

>  <VSA_EState9>
2.4

>  <apol>
45.64

>  <bpol>
23.7

>  <nRing>
2

>  <nHRing>
1

>  <naRing>
2

>  <naHRing>
1

>  <nARing 2>
0

>  <nAHRing 2>
0

>  <nFRing>
0

>  <nFHRing>
0

>  <nFaRing>
0

>  <nFaHRing>
0

>  <nFARing 2>
0

>  <nFAHRing 2>
0

>  <nRot>
5

>  <SLogP>
1.56

>  <SMR>
84.99

>  <TopoPSA(NO)>
105.69

>  <TopoPSA>
105.69

>  <JGI1>
0.18

>  <JGI2>
0.09

>  <JGI3>
0.05

>  <JGI4>
0.04

>  <JGI5>
0.03

>  <Diameter>
10

>  <Radius>
5

>  <TMWC10>
123.48

>  <TSRW10>
58.29

>  <MW>
331.11

>  <AMW>
8.08

>  <WPath>
1249

>  <WPol>
39

>  <Zagreb1>
118

>  <Zagreb2>
138

>  <mZagreb2>
5.58

>  <yes>


>  <nAR-cont>
0.336376

>  <nHA-cont>
0.94700071

>  <MWHBN>
0.439646721

>  <MWHBN-cont>
0.323594898

>  <TPSA-cont>
0.26221817

>  <pka_cont>
0.97

>  <yes.1>


>  <BBB_SCORE>
2.778205397

>  <MMFF94 Energy>
10.203

$$$$
Compound 2173
Actelion Java MolfileCreator 2.0

  0  0  0  0  0  0              0 V3000
M  V30 BEGIN CTAB
M  V30 COUNTS 43 43 0 0 0
M  V30 BEGIN ATOM
M  V30 1 O -2.0437 -1.7291 -1.6504 0
M  V30 2 C -1.2097 -1.9413 -0.777 0
M  V30 3 N -1.1244 -3.171 -0.1767 0
M  V30 4 C -0.2216 -0.8881 -0.3259 0
M  V30 5 C -0.2176 -3.491 0.7959 0
M  V30 6 C 0.689 -1.2565 0.6065 0
M  V30 7 C -0.357 0.4626 -1.0277 0 CFG=2
M  V30 8 C 0.6683 -2.5774 1.2151 0
M  V30 9 O 1.7324 -0.4657 1.0329 0
M  V30 10 C 0.8147 0.6443 -2.0173 0
M  V30 11 C -0.5024 1.678 -0.0682 0
M  V30 12 C 1.5832 -3.0148 2.296 0
M  V30 13 C 0.4976 1.6139 -3.1365 0
M  V30 14 C -1.9145 1.8749 0.5305 0
M  V30 15 O 2.176 -4.0849 2.2925 0
M  V30 16 O 1.583 -2.1084 3.3067 0
M  V30 17 O -0.4772 2.3483 -3.1906 0
M  V30 18 O 1.493 1.5649 -4.0676 0
M  V30 19 C -2.3081 0.7928 1.5351 0
M  V30 20 C -1.9903 3.2455 1.214 0
M  V30 21 C 2.4245 -2.4627 4.4028 0
M  V30 22 C 1.2948 2.4441 -5.176 0
M  V30 23 H -1.7943 -3.8612 -0.4975 0
M  V30 24 H -0.271 -4.4989 1.1983 0
M  V30 25 H -1.275 0.4587 -1.6283 0
M  V30 26 H 1.7513 0.3694 0.5447 0
M  V30 27 H 1.0493 -0.3174 -2.4915 0
M  V30 28 H 1.7109 1.008 -1.5032 0
M  V30 29 H 0.2244 1.6392 0.7487 0
M  V30 30 H -0.2557 2.5894 -0.6273 0
M  V30 31 H -2.6483 1.8729 -0.2852 0
M  V30 32 H -2.4755 -0.1673 1.0429 0
M  V30 33 H -1.5386 0.6616 2.3031 0
M  V30 34 H -3.2451 1.0527 2.0402 0
M  V30 35 H -1.7634 4.0486 0.5048 0
M  V30 36 H -1.2797 3.3146 2.0448 0
M  V30 37 H -2.9948 3.4293 1.61 0
M  V30 38 H 2.3799 -1.6557 5.1394 0
M  V30 39 H 2.0689 -3.3834 4.8758 0
M  V30 40 H 3.4622 -2.5721 4.0723 0
M  V30 41 H 2.1343 2.3153 -5.8646 0
M  V30 42 H 0.3707 2.192 -5.7055 0
M  V30 43 H 1.2787 3.4856 -4.8399 0
M  V30 END ATOM
M  V30 BEGIN BOND
M  V30 1 2 1 2
M  V30 2 1 2 3
M  V30 3 1 2 4
M  V30 4 1 3 5
M  V30 5 2 4 6
M  V30 6 1 4 7
M  V30 7 2 5 8
M  V30 8 1 6 9
M  V30 9 1 7 10
M  V30 10 1 7 11
M  V30 11 1 8 12
M  V30 12 1 10 13
M  V30 13 1 11 14
M  V30 14 2 12 15
M  V30 15 1 12 16
M  V30 16 2 13 17
M  V30 17 1 13 18
M  V30 18 1 14 19
M  V30 19 1 14 20
M  V30 20 1 16 21
M  V30 21 1 18 22
M  V30 22 1 6 8
M  V30 23 1 3 23
M  V30 24 1 5 24
M  V30 25 1 7 25
M  V30 26 1 9 26
M  V30 27 1 10 27
M  V30 28 1 10 28
M  V30 29 1 11 29
M  V30 30 1 11 30
M  V30 31 1 14 31
M  V30 32 1 19 32
M  V30 33 1 19 33
M  V30 34 1 19 34
M  V30 35 1 20 35
M  V30 36 1 20 36
M  V30 37 1 20 37
M  V30 38 1 21 38
M  V30 39 1 21 39
M  V30 40 1 21 40
M  V30 41 1 22 41
M  V30 42 1 22 42
M  V30 43 1 22 43
M  V30 END BOND
M  V30 BEGIN COLLECTION
M  V30 MDLV30/STEABS ATOMS=(1 7)
M  V30 END COLLECTION
M  V30 END CTAB
M  END
>  <Column 1>
2673

>  <level_0>
3904

>  <index>
3904

>  <Unnamed: 0>
3904

>  <NO.>
3916

>  <Name>
chlorpromazine

>  <IUPAC_name>
methyl 4-hydroxy-5-[(3s)-1-methoxy-5-methyl-1-oxohexan-3-yl]-6-oxo-1h-pyridine-3-carboxylate

>  <SMILES>
COC(=O)C[C@H](CC(C)C)c1c(O)c(C(=O)OC)c[nH]c1=O

>  <CID>
100002726

>  <logBB>


>  <BBB+/BBB->
BBB+

>  <Inchi>
InChI=1S/C15H21NO6/c1-8(2)5-9(6-11(17)21-3)12-13(18)10(15(20)22-4)7-16-14(12)19/h7-9H-5-6H2-1-4H3-(H2-16-18-19)/t9-/m0/s1

>  <threshold>
-1

>  <reference>
R16|R16|R10|R10|

>  <group>
B

>  <Class>
-1

>  <ABC>
16.01

>  <ABCGG>
15.06

>  <nAcid>
0

>  <nBase>
0

>  <nAromAtom>
6

>  <nAromBond>
6

>  <nAtom>
43

>  <nHeavyAtom>
22

>  <nSpiro>
0

>  <nBridgehead>
0

>  <nHetero>
7

>  <nN>
1

>  <nO>
6

>  <nF>
0

>  <BalabanJ>
2.91

>  <BertzCT>
604.54

>  <nBonds>
43

>  <nBondsO>
22

>  <nBondsS>
34

>  <nBondsD>
3

>  <nBondsT>
0

>  <nBondsA>
6

>  <nBondsM>
9

>  <nBondsKS>
38

>  <nBondsKD>
5

>  <RNCG>
0.18

>  <RPCG>
0.12

>  <FCSP3>
0.53

>  <SZ>
27.67

>  <Sm>
25.92

>  <Sv>
25.74

>  <Sse>
43.97

>  <Sp>
26.92

>  <Si>
48.91

>  <MZ>
0.64

>  <Mm>
0.6

>  <Mv>
0.6

>  <Mse>
1.02

>  <Mp>
0.63

>  <Mi>
1.14

>  <NsCH3>
4

>  <NdCH2>
0

>  <NssCH2>
2

>  <NtCH>
0

>  <NdsCH>
0

>  <NaaCH>
1

>  <NsssCH>
2

>  <NddC>
0

>  <NtsC>
0

>  <NdssC>
2

>  <NaasC>
3

>  <NaaaC>
0

>  <NssssC>
0

>  <NsNH3>
0

>  <NsNH2>
0

>  <NssNH2>
0

>  <NdNH>
0

>  <NssNH>
0

>  <NaaNH>
1

>  <NtN>
0

>  <NsssNH>
0

>  <NdsN>
0

>  <NaaN>
0

>  <NsssN>
0

>  <NddsN>
0

>  <NaasN>
0

>  <NssssN>
0

>  <NsOH>
1

>  <NdO>
3

>  <NssO>
2

>  <NaaO>
0

>  <NsF>
0

>  <NsSiH3>
0

>  <NssSiH2>
0

>  <NsssSiH>
0

>  <NssssSi>
0

>  <NsPH2>
0

>  <NssPH>
0

>  <NsssP>
0

>  <NdsssP>
0

>  <NsssssP>
0

>  <NsSH>
0

>  <NdS>
0

>  <NssS>
0

>  <NaaS>
0

>  <NdssS>
0

>  <NddssS>
0

>  <NsCl>
0

>  <NsBr>
0

>  <NsI>
0

>  <fragCpx>
22.07

>  <fMF>
0.14

>  <nHBAcc>
6

>  <nHBDon>
2

>  <Kier1>
20.05

>  <Kier2>
9.33

>  <Lipinski>
1

>  <GhoseFilter>
1

>  <FilterItLogS>
-3.02

>  <VMcGowan>
235.05

>  <LabuteASA>
127.81

>  <PEOE_VSA1>
19.56

>  <PEOE_VSA2>
9.59

>  <PEOE_VSA3>
4.79

>  <PEOE_VSA4>
0

>  <PEOE_VSA5>
0

>  <PEOE_VSA6>
13.85

>  <PEOE_VSA7>
12.34

>  <PEOE_VSA8>
12.11

>  <PEOE_VSA9>
26.2

>  <PEOE_VSA10>
11.31

>  <PEOE_VSA11>
0

>  <PEOE_VSA12>
0

>  <PEOE_VSA13>
5.56

>  <SMR_VSA1>
24.17

>  <SMR_VSA2>
0

>  <SMR_VSA3>
4.98

>  <SMR_VSA4>
5.92

>  <SMR_VSA5>
32.61

>  <SMR_VSA6>
14.22

>  <SMR_VSA7>
27.68

>  <SMR_VSA8>
0

>  <SMR_VSA9>
5.75

>  <SlogP_VSA1>
5.56

>  <SlogP_VSA2>
36.25

>  <SlogP_VSA3>
14.27

>  <SlogP_VSA4>
5.92

>  <SlogP_VSA5>
48.53

>  <SlogP_VSA6>
10.99

>  <SlogP_VSA7>
0

>  <SlogP_VSA8>
0

>  <SlogP_VSA9>
0

>  <SlogP_VSA10>
0

>  <SlogP_VSA11>
5.75

>  <EState_VSA1>
29.17

>  <EState_VSA2>
23.47

>  <EState_VSA3>
6.42

>  <EState_VSA4>
6.2

>  <EState_VSA5>
14.22

>  <EState_VSA6>
0

>  <EState_VSA7>
13.85

>  <EState_VSA8>
14.46

>  <EState_VSA9>
0

>  <EState_VSA10>
19.49

>  <VSA_EState1>
9.2

>  <VSA_EState2>
37.67

>  <VSA_EState3>
10.27

>  <VSA_EState4>
-0.68

>  <VSA_EState5>
-2.09

>  <VSA_EState6>
0

>  <VSA_EState7>
1.52

>  <VSA_EState8>
3.86

>  <VSA_EState9>
2.43

>  <apol>
44.96

>  <bpol>
27.71

>  <nRing>
1

>  <nHRing>
1

>  <naRing>
1

>  <naHRing>
1

>  <nARing 2>
0

>  <nAHRing 2>
0

>  <nFRing>
0

>  <nFHRing>
0

>  <nFaRing>
0

>  <nFaHRing>
0

>  <nFARing 2>
0

>  <nFAHRing 2>
0

>  <nRot>
6

>  <SLogP>
1.56

>  <SMR>
78.9

>  <TopoPSA(NO)>
105.69

>  <TopoPSA>
105.69

>  <JGI1>
0.25

>  <JGI2>
0.1

>  <JGI3>
0.07

>  <JGI4>
0.04

>  <JGI5>
0.04

>  <Diameter>
10

>  <Radius>
5

>  <TMWC10>
116.93

>  <TSRW10>
55.56

>  <MW>
311.14

>  <AMW>
7.24

>  <WPath>
1015

>  <WPol>
34

>  <Zagreb1>
104

>  <Zagreb2>
119

>  <mZagreb2>
5.14

>  <yes>


>  <nAR-cont>
0.336376

>  <nHA-cont>
0.983774276

>  <MWHBN>
0.453536311

>  <MWHBN-cont>
0

>  <TPSA-cont>
0.26221817

>  <pka_cont>
0.97

>  <yes.1>


>  <BBB_SCORE>
2.329586617

>  <MMFF94 Energy>
7.5487

$$$$
Compound 2174
Actelion Java MolfileCreator 2.0

  0  0  0  0  0  0              0 V3000
M  V30 BEGIN CTAB
M  V30 COUNTS 60 63 0 0 0
M  V30 BEGIN ATOM
M  V30 1 O 1.3559 0.1594 0.2391 0
M  V30 2 C 0.4005 0.5798 -0.4136 0
M  V30 3 N -0.1152 -0.1053 -1.522 0
M  V30 4 C -0.2574 1.873 -0.0262 0
M  V30 5 C -1.1943 0.3786 -2.2611 0
M  V30 6 C 0.523 -1.3881 -1.8455 0
M  V30 7 C -1.2662 2.3097 -0.7992 0
M  V30 8 C 0.3103 2.5917 1.197 0 CFG=2
M  V30 9 C -1.7531 1.5509 -1.9205 0
M  V30 10 C -1.7256 -0.4023 -3.4325 0
M  V30 11 C -0.057 -2.538 -1.0131 0
M  V30 12 O -1.8935 3.5139 -0.5669 0
M  V30 13 C -0.757 2.795 2.2914 0
M  V30 14 C 1.064 3.877 0.7985 0
M  V30 15 C 0.5751 -3.8601 -1.3703 0
M  V30 16 C -1.1342 1.7445 3.1843 0
M  V30 17 C -1.4153 4.0279 2.4109 0
M  V30 18 C 2.3869 3.5487 0.1563 0
M  V30 19 C -0.0508 -4.7307 -2.2738 0
M  V30 20 C 1.8133 -4.2209 -0.8203 0
M  V30 21 C -2.1514 2.0237 4.1323 0
M  V30 22 C -0.5652 0.4453 3.1941 0
M  V30 23 C -2.39 4.1838 3.3761 0
M  V30 24 O 3.4488 3.5087 0.7632 0
M  V30 25 O 2.2313 3.305 -1.1735 0
M  V30 26 C 0.5469 -5.9459 -2.6162 0
M  V30 27 C 2.4106 -5.4341 -1.1635 0
M  V30 28 N -2.7638 3.2129 4.2273 0
M  V30 29 C -2.5518 1.0311 5.0167 0
M  V30 30 C -0.9857 -0.5355 4.0935 0
M  V30 31 C 3.4347 2.9124 -1.8336 0
M  V30 32 C 1.774 -6.2868 -2.0566 0
M  V30 33 C -1.9837 -0.2422 5.0079 0
M  V30 34 O 2.3927 -7.4624 -2.3635 0
M  V30 35 H 0.4452 -1.5962 -2.9177 0
M  V30 36 H 1.5999 -1.302 -1.649 0
M  V30 37 H 1.0805 1.9712 1.6705 0
M  V30 38 H -2.5866 1.9428 -2.4942 0
M  V30 39 H -2.617 0.0661 -3.865 0
M  V30 40 H -0.9773 -0.4628 -4.2292 0
M  V30 41 H -2.0134 -1.4146 -3.1321 0
M  V30 42 H 0.0858 -2.3477 0.0584 0
M  V30 43 H -1.1434 -2.5989 -1.1541 0
M  V30 44 H -2.7063 3.5627 -1.0971 0
M  V30 45 H 0.4929 4.5285 0.1269 0
M  V30 46 H 1.2939 4.4843 1.6841 0
M  V30 47 H -1.2003 4.862 1.7521 0
M  V30 48 H -1.0101 -4.4689 -2.7145 0
M  V30 49 H 2.3197 -3.5582 -0.1206 0
M  V30 50 H 0.2277 0.1717 2.5044 0
M  V30 51 H -2.9186 5.1261 3.4891 0
M  V30 52 H 0.0442 -6.6069 -3.3147 0
M  V30 53 H 3.3691 -5.7122 -0.7346 0
M  V30 54 H -3.3329 1.2591 5.7387 0
M  V30 55 H -0.5271 -1.5209 4.0768 0
M  V30 56 H 3.1954 2.711 -2.8813 0
M  V30 57 H 4.1731 3.7193 -1.7951 0
M  V30 58 H 3.8356 1.9961 -1.3887 0
M  V30 59 H -2.3202 -0.9938 5.7164 0
M  V30 60 H 1.8284 -7.9576 -2.979 0
M  V30 END ATOM
M  V30 BEGIN BOND
M  V30 1 2 1 2
M  V30 2 1 2 3
M  V30 3 1 2 4
M  V30 4 1 3 5
M  V30 5 1 3 6
M  V30 6 2 4 7
M  V30 7 1 4 8
M  V30 8 2 5 9
M  V30 9 1 5 10
M  V30 10 1 6 11
M  V30 11 1 7 12
M  V30 12 1 8 13
M  V30 13 1 8 14
M  V30 14 1 11 15
M  V30 15 1 13 16
M  V30 16 2 13 17
M  V30 17 1 14 18
M  V30 18 2 15 19
M  V30 19 1 15 20
M  V30 20 1 16 21
M  V30 21 2 16 22
M  V30 22 1 17 23
M  V30 23 2 18 24
M  V30 24 1 18 25
M  V30 25 1 19 26
M  V30 26 2 20 27
M  V30 27 1 21 28
M  V30 28 2 21 29
M  V30 29 1 22 30
M  V30 30 1 25 31
M  V30 31 2 26 32
M  V30 32 1 29 33
M  V30 33 1 32 34
M  V30 34 1 7 9
M  V30 35 2 23 28
M  V30 36 1 27 32
M  V30 37 2 30 33
M  V30 38 1 6 35
M  V30 39 1 6 36
M  V30 40 1 8 37
M  V30 41 1 9 38
M  V30 42 1 10 39
M  V30 43 1 10 40
M  V30 44 1 10 41
M  V30 45 1 11 42
M  V30 46 1 11 43
M  V30 47 1 12 44
M  V30 48 1 14 45
M  V30 49 1 14 46
M  V30 50 1 17 47
M  V30 51 1 19 48
M  V30 52 1 20 49
M  V30 53 1 22 50
M  V30 54 1 23 51
M  V30 55 1 26 52
M  V30 56 1 27 53
M  V30 57 1 29 54
M  V30 58 1 30 55
M  V30 59 1 31 56
M  V30 60 1 31 57
M  V30 61 1 31 58
M  V30 62 1 33 59
M  V30 63 1 34 60
M  V30 END BOND
M  V30 BEGIN COLLECTION
M  V30 MDLV30/STEABS ATOMS=(1 8)
M  V30 END COLLECTION
M  V30 END CTAB
M  END
>  <Column 1>
2674

>  <level_0>
3905

>  <index>
3905

>  <Unnamed: 0>
3905

>  <NO.>
3917

>  <Name>
epinephrine

>  <IUPAC_name>
methyl (3s)-3-[4-hydroxy-1-[2-(4-hydroxyphenyl)ethyl]-6-methyl-2-oxopyridin-3-yl]-3-quinolin-4-ylpropanoate

>  <SMILES>
COC(=O)C[C@H](c1c(O)cc(C)n(CCc2ccc(O)cc2)c1=O)c1ccnc2ccccc12

>  <CID>
100000838

>  <logBB>


>  <BBB+/BBB->
BBB-

>  <Inchi>
InChI=1S/C27H26N2O5/c1-17-15-24(31)26(27(33)29(17)14-12-18-7-9-19(30)10-8-18)22(16-25(32)34-2)20-11-13-28-23-6-4-3-5-21(20)23/h3-11-13-15-22-30-31H-12-14-16H2-1-2H3/t22-/m0/s1

>  <threshold>
-1

>  <reference>
R16|R10|

>  <group>
B

>  <Class>
-1

>  <ABC>
26.39

>  <ABCGG>
20.63

>  <nAcid>
0

>  <nBase>
0

>  <nAromAtom>
22

>  <nAromBond>
23

>  <nAtom>
60

>  <nHeavyAtom>
34

>  <nSpiro>
0

>  <nBridgehead>
0

>  <nHetero>
7

>  <nN>
2

>  <nO>
5

>  <nF>
0

>  <BalabanJ>
1.5

>  <BertzCT>
1387.56

>  <nBonds>
63

>  <nBondsO>
37

>  <nBondsS>
38

>  <nBondsD>
2

>  <nBondsT>
0

>  <nBondsA>
23

>  <nBondsM>
25

>  <nBondsKS>
51

>  <nBondsKD>
12

>  <RNCG>
0.16

>  <RPCG>
0.1

>  <FCSP3>
0.22

>  <SZ>
40.33

>  <Sm>
38.17

>  <Sv>
39.13

>  <Sse>
60.52

>  <Sp>
41.1

>  <Si>
67.03

>  <MZ>
0.67

>  <Mm>
0.64

>  <Mv>
0.65

>  <Mse>
1.01

>  <Mp>
0.69

>  <Mi>
1.12

>  <NsCH3>
2

>  <NdCH2>
0

>  <NssCH2>
3

>  <NtCH>
0

>  <NdsCH>
0

>  <NaaCH>
11

>  <NsssCH>
1

>  <NddC>
0

>  <NtsC>
0

>  <NdssC>
1

>  <NaasC>
6

>  <NaaaC>
2

>  <NssssC>
0

>  <NsNH3>
0

>  <NsNH2>
0

>  <NssNH2>
0

>  <NdNH>
0

>  <NssNH>
0

>  <NaaNH>
0

>  <NtN>
0

>  <NsssNH>
0

>  <NdsN>
0

>  <NaaN>
1

>  <NsssN>
0

>  <NddsN>
0

>  <NaasN>
1

>  <NssssN>
0

>  <NsOH>
2

>  <NdO>
2

>  <NssO>
1

>  <NaaO>
0

>  <NsF>
0

>  <NsSiH3>
0

>  <NssSiH2>
0

>  <NsssSiH>
0

>  <NssssSi>
0

>  <NsPH2>
0

>  <NssPH>
0

>  <NsssP>
0

>  <NdsssP>
0

>  <NsssssP>
0

>  <NsSH>
0

>  <NdS>
0

>  <NssS>
0

>  <NaaS>
0

>  <NdssS>
0

>  <NddssS>
0

>  <NsCl>
0

>  <NsBr>
0

>  <NsI>
0

>  <fragCpx>
247.07

>  <fMF>
0.42

>  <nHBAcc>
7

>  <nHBDon>
2

>  <Kier1>
27.05

>  <Kier2>
12.5

>  <Lipinski>
1

>  <GhoseFilter>
1

>  <FilterItLogS>
-6.22

>  <VMcGowan>
345.56

>  <LabuteASA>
196.46

>  <PEOE_VSA1>
19.52

>  <PEOE_VSA2>
14.57

>  <PEOE_VSA3>
0

>  <PEOE_VSA4>
0

>  <PEOE_VSA5>
0

>  <PEOE_VSA6>
30.33

>  <PEOE_VSA7>
54.8

>  <PEOE_VSA8>
29.74

>  <PEOE_VSA9>
24.61

>  <PEOE_VSA10>
11.5

>  <PEOE_VSA11>
0

>  <PEOE_VSA12>
0

>  <PEOE_VSA13>
5.56

>  <SMR_VSA1>
19.74

>  <SMR_VSA2>
0

>  <SMR_VSA3>
9.55

>  <SMR_VSA4>
0

>  <SMR_VSA5>
32.23

>  <SMR_VSA6>
7.11

>  <SMR_VSA7>
99.6

>  <SMR_VSA8>
0

>  <SMR_VSA9>
11.5

>  <SlogP_VSA1>
5.56

>  <SlogP_VSA2>
32.84

>  <SlogP_VSA3>
22.5

>  <SlogP_VSA4>
6.92

>  <SlogP_VSA5>
34.72

>  <SlogP_VSA6>
71.66

>  <SlogP_VSA7>
0

>  <SlogP_VSA8>
10.9

>  <SlogP_VSA9>
0

>  <SlogP_VSA10>
0

>  <SlogP_VSA11>
11.5

>  <EState_VSA1>
11.89

>  <EState_VSA2>
29.04

>  <EState_VSA3>
18.66

>  <EState_VSA4>
22.03

>  <EState_VSA5>
7.11

>  <EState_VSA6>
54.09

>  <EState_VSA7>
24.27

>  <EState_VSA8>
4.98

>  <EState_VSA9>
4.74

>  <EState_VSA10>
19.8

>  <VSA_EState1>
6.53

>  <VSA_EState2>
30.45

>  <VSA_EState3>
21.2

>  <VSA_EState4>
2.82

>  <VSA_EState5>
-1.17

>  <VSA_EState6>
17.64

>  <VSA_EState7>
2.09

>  <VSA_EState8>
2.14

>  <VSA_EState9>
1.3

>  <apol>
68.64

>  <bpol>
32.41

>  <nRing>
4

>  <nHRing>
2

>  <naRing>
4

>  <naHRing>
2

>  <nARing 2>
0

>  <nAHRing 2>
0

>  <nFRing>
1

>  <nFHRing>
1

>  <nFaRing>
1

>  <nFaHRing>
1

>  <nFARing 2>
0

>  <nFAHRing 2>
0

>  <nRot>
7

>  <SLogP>
4.05

>  <SMR>
129.13

>  <TopoPSA(NO)>
101.65

>  <TopoPSA>
101.65

>  <JGI1>
0.18

>  <JGI2>
0.08

>  <JGI3>
0.05

>  <JGI4>
0.04

>  <JGI5>
0.03

>  <Diameter>
15

>  <Radius>
8

>  <TMWC10>
149.56

>  <TSRW10>
70.45

>  <MW>
458.18

>  <AMW>
7.64

>  <WPath>
3348

>  <WPol>
58

>  <Zagreb1>
178

>  <Zagreb2>
211

>  <mZagreb2>
7.56

>  <yes>


>  <nAR-cont>
0.336376

>  <nHA-cont>
0.568589513

>  <MWHBN>
0.420459767

>  <MWHBN-cont>
0.396189917

>  <TPSA-cont>
0.290419879

>  <pka_cont>
0.97

>  <yes.1>


>  <BBB_SCORE>
2.565090146

>  <MMFF94 Energy>
32.58

$$$$
Compound 2175
Actelion Java MolfileCreator 2.0

  0  0  0  0  0  0              0 V3000
M  V30 BEGIN CTAB
M  V30 COUNTS 44 46 0 0 0
M  V30 BEGIN ATOM
M  V30 1 Cl -1.2956 4.1343 -1.7818 0
M  V30 2 C -1.5187 2.8987 -0.6096 0
M  V30 3 C -2.699 2.7702 0.0901 0
M  V30 4 C -0.4872 1.9899 -0.347 0
M  V30 5 O -3.8116 3.5476 -0.0209 0
M  V30 6 C -2.8592 1.7705 1.0192 0
M  V30 7 C -0.6391 0.9596 0.6173 0
M  V30 8 C -4.688 2.9197 0.9344 0
M  V30 9 O -4.0876 1.7943 1.6048 0
M  V30 10 C -1.8621 0.8553 1.3008 0
M  V30 11 C 0.5283 -0.005 0.8489 0 CFG=2
M  V30 12 C 0.5874 -1.0843 -0.2244 0
M  V30 13 C 0.6518 -0.587 2.2709 0
M  V30 14 C -0.4998 -2.1282 -0.2043 0
M  V30 15 C 1.5124 -1.1703 -1.2095 0
M  V30 16 C 1.0098 0.5013 3.2509 0
M  V30 17 O -1.3476 -2.1813 0.6795 0
M  V30 18 N -0.4985 -3.0456 -1.2249 0
M  V30 19 O 2.5618 -0.2946 -1.3784 0
M  V30 20 C 1.4399 -2.1961 -2.2346 0
M  V30 21 O 1.9485 1.2725 3.0991 0
M  V30 22 O 0.1635 0.4908 4.3143 0
M  V30 23 C 0.4422 -3.0902 -2.2177 0
M  V30 24 C 2.4563 -2.3289 -3.3025 0
M  V30 25 C 0.4295 1.5062 5.2827 0
M  V30 26 O 3.6305 -2.6023 -3.1075 0
M  V30 27 O 1.867 -2.1222 -4.5102 0
M  V30 28 C 2.7736 -2.1998 -5.6099 0
M  V30 29 H 0.4465 2.0826 -0.8995 0
M  V30 30 H -5.5895 2.5781 0.4131 0
M  V30 31 H -4.9774 3.6627 1.6866 0
M  V30 32 H -2.0584 0.0725 2.0268 0
M  V30 33 H 1.4156 0.6296 0.7347 0
M  V30 34 H -0.26 -1.0912 2.6039 0
M  V30 35 H 1.4561 -1.3315 2.3208 0
M  V30 36 H -1.2471 -3.7291 -1.1994 0
M  V30 37 H 2.7635 0.1792 -0.5564 0
M  V30 38 H 0.337 -3.8818 -2.9533 0
M  V30 39 H -0.312 1.4157 6.0811 0
M  V30 40 H 1.4249 1.3699 5.7165 0
M  V30 41 H 0.3344 2.4994 4.8326 0
M  V30 42 H 2.2127 -1.9966 -6.5263 0
M  V30 43 H 3.5619 -1.4468 -5.5127 0
M  V30 44 H 3.2025 -3.2041 -5.6819 0
M  V30 END ATOM
M  V30 BEGIN BOND
M  V30 1 1 1 2
M  V30 2 2 2 3
M  V30 3 1 2 4
M  V30 4 1 3 5
M  V30 5 1 3 6
M  V30 6 2 4 7
M  V30 7 1 5 8
M  V30 8 1 6 9
M  V30 9 2 6 10
M  V30 10 1 7 11
M  V30 11 1 11 12
M  V30 12 1 11 13
M  V30 13 1 12 14
M  V30 14 2 12 15
M  V30 15 1 13 16
M  V30 16 2 14 17
M  V30 17 1 14 18
M  V30 18 1 15 19
M  V30 19 1 15 20
M  V30 20 2 16 21
M  V30 21 1 16 22
M  V30 22 1 18 23
M  V30 23 1 20 24
M  V30 24 1 22 25
M  V30 25 2 24 26
M  V30 26 1 24 27
M  V30 27 1 27 28
M  V30 28 1 7 10
M  V30 29 1 8 9
M  V30 30 2 20 23
M  V30 31 1 4 29
M  V30 32 1 8 30
M  V30 33 1 8 31
M  V30 34 1 10 32
M  V30 35 1 11 33
M  V30 36 1 13 34
M  V30 37 1 13 35
M  V30 38 1 18 36
M  V30 39 1 19 37
M  V30 40 1 23 38
M  V30 41 1 25 39
M  V30 42 1 25 40
M  V30 43 1 25 41
M  V30 44 1 28 42
M  V30 45 1 28 43
M  V30 46 1 28 44
M  V30 END BOND
M  V30 BEGIN COLLECTION
M  V30 MDLV30/STEABS ATOMS=(1 11)
M  V30 END COLLECTION
M  V30 END CTAB
M  END
>  <Column 1>
2675

>  <level_0>
3906

>  <index>
3906

>  <Unnamed: 0>
3906

>  <NO.>
3918

>  <Name>
hydrocortisone

>  <IUPAC_name>
methyl 5-[(1r)-1-(7-chloro-1-3-benzodioxol-5-yl)-3-methoxy-3-oxopropyl]-4-hydroxy-6-oxo-1h-pyridine-3-carboxylate

>  <SMILES>
COC(=O)C[C@H](c1cc(Cl)c2c(c1)OCO2)c1c(O)c(C(=O)OC)c[nH]c1=O

>  <CID>
100003640

>  <logBB>


>  <BBB+/BBB->
BBB-

>  <Inchi>
InChI=1S/C18H16ClNO8/c1-25-13(21)5-9(8-3-11(19)16-12(4-8)27-7-28-16)14-15(22)10(18(24)26-2)6-20-17(14)23/h3-4-6-9H-5-7H2-1-2H3-(H2-20-22-23)/t9-/m1/s1

>  <threshold>
-1

>  <reference>
R16|R16|R10|R10|

>  <group>
B

>  <Class>
1

>  <ABC>
21.44

>  <ABCGG>
18.75

>  <nAcid>
0

>  <nBase>
0

>  <nAromAtom>
12

>  <nAromBond>
12

>  <nAtom>
44

>  <nHeavyAtom>
28

>  <nSpiro>
0

>  <nBridgehead>
0

>  <nHetero>
10

>  <nN>
1

>  <nO>
8

>  <nF>
0

>  <BalabanJ>
1.83

>  <BertzCT>
999.81

>  <nBonds>
46

>  <nBondsO>
30

>  <nBondsS>
31

>  <nBondsD>
3

>  <nBondsT>
0

>  <nBondsA>
12

>  <nBondsM>
15

>  <nBondsKS>
38

>  <nBondsKD>
8

>  <RNCG>
0.14

>  <RPCG>
0.1

>  <FCSP3>
0.28

>  <SZ>
35.33

>  <Sm>
34.12

>  <Sv>
29.9

>  <Sse>
46.18

>  <Sp>
30.19

>  <Si>
49.44

>  <MZ>
0.8

>  <Mm>
0.78

>  <Mv>
0.68

>  <Mse>
1.05

>  <Mp>
0.69

>  <Mi>
1.12

>  <NsCH3>
2

>  <NdCH2>
0

>  <NssCH2>
2

>  <NtCH>
0

>  <NdsCH>
0

>  <NaaCH>
3

>  <NsssCH>
1

>  <NddC>
0

>  <NtsC>
0

>  <NdssC>
2

>  <NaasC>
7

>  <NaaaC>
0

>  <NssssC>
0

>  <NsNH3>
0

>  <NsNH2>
0

>  <NssNH2>
0

>  <NdNH>
0

>  <NssNH>
0

>  <NaaNH>
1

>  <NtN>
0

>  <NsssNH>
0

>  <NdsN>
0

>  <NaaN>
0

>  <NsssN>
0

>  <NddsN>
0

>  <NaasN>
0

>  <NssssN>
0

>  <NsOH>
1

>  <NdO>
3

>  <NssO>
4

>  <NaaO>
0

>  <NsF>
0

>  <NsSiH3>
0

>  <NssSiH2>
0

>  <NsssSiH>
0

>  <NssssSi>
0

>  <NsPH2>
0

>  <NssPH>
0

>  <NsssP>
0

>  <NdsssP>
0

>  <NsssssP>
0

>  <NsSH>
0

>  <NdS>
0

>  <NssS>
0

>  <NaaS>
0

>  <NdssS>
0

>  <NddssS>
0

>  <NsCl>
1

>  <NsBr>
0

>  <NsI>
0

>  <fragCpx>
144.1

>  <fMF>
0.36

>  <nHBAcc>
8

>  <nHBDon>
2

>  <Kier1>
22.68

>  <Kier2>
9.87

>  <Lipinski>
1

>  <GhoseFilter>
1

>  <FilterItLogS>
-4.31

>  <VMcGowan>
266.68

>  <LabuteASA>
163.29

>  <PEOE_VSA1>
29.04

>  <PEOE_VSA2>
9.59

>  <PEOE_VSA3>
4.79

>  <PEOE_VSA4>
0

>  <PEOE_VSA5>
0

>  <PEOE_VSA6>
11.6

>  <PEOE_VSA7>
17.7

>  <PEOE_VSA8>
12.11

>  <PEOE_VSA9>
31.23

>  <PEOE_VSA10>
11.31

>  <PEOE_VSA11>
11.5

>  <PEOE_VSA12>
6.79

>  <PEOE_VSA13>
5.56

>  <SMR_VSA1>
33.64

>  <SMR_VSA2>
0

>  <SMR_VSA3>
4.98

>  <SMR_VSA4>
0

>  <SMR_VSA5>
12.34

>  <SMR_VSA6>
21.01

>  <SMR_VSA7>
50.4

>  <SMR_VSA8>
0

>  <SMR_VSA9>
17.25

>  <SlogP_VSA1>
15.03

>  <SlogP_VSA2>
43.04

>  <SlogP_VSA3>
14.27

>  <SlogP_VSA4>
0

>  <SlogP_VSA5>
33.82

>  <SlogP_VSA6>
23.12

>  <SlogP_VSA7>
5.02

>  <SlogP_VSA8>
0

>  <SlogP_VSA9>
0

>  <SlogP_VSA10>
0

>  <SlogP_VSA11>
17.25

>  <EState_VSA1>
29.17

>  <EState_VSA2>
29.36

>  <EState_VSA3>
17.06

>  <EState_VSA4>
13.31

>  <EState_VSA5>
13.18

>  <EState_VSA6>
6.07

>  <EState_VSA7>
0

>  <EState_VSA8>
9.72

>  <EState_VSA9>
25.81

>  <EState_VSA10>
19.49

>  <VSA_EState1>
19.91

>  <VSA_EState2>
38.75

>  <VSA_EState3>
10.8

>  <VSA_EState4>
-0.75

>  <VSA_EState5>
-2.4

>  <VSA_EState6>
3.04

>  <VSA_EState7>
0.74

>  <VSA_EState8>
-0.02

>  <VSA_EState9>
2.33

>  <apol>
50.42

>  <bpol>
26.68

>  <nRing>
3

>  <nHRing>
2

>  <naRing>
2

>  <naHRing>
1

>  <nARing 2>
1

>  <nAHRing 2>
1

>  <nFRing>
1

>  <nFHRing>
1

>  <nFaRing>
0

>  <nFaHRing>
0

>  <nFARing 2>
1

>  <nFAHRing 2>
1

>  <nRot>
5

>  <SLogP>
1.94

>  <SMR>
96.12

>  <TopoPSA(NO)>
124.15

>  <TopoPSA>
124.15

>  <JGI1>
0.2

>  <JGI2>
0.09

>  <JGI3>
0.05

>  <JGI4>
0.05

>  <JGI5>
0.03

>  <Diameter>
11

>  <Radius>
6

>  <TMWC10>
135.13

>  <TSRW10>
77.1

>  <MW>
409.06

>  <AMW>
9.3

>  <WPath>
1867

>  <WPol>
48

>  <Zagreb1>
146

>  <Zagreb2>
175

>  <mZagreb2>
6.31

>  <yes>


>  <nAR-cont>
0.816016

>  <nHA-cont>
0.82432561

>  <MWHBN>
0.494431911

>  <MWHBN-cont>
0

>  <TPSA-cont>
0

>  <pka_cont>
0.97

>  <yes.1>


>  <BBB_SCORE>
2.12534161

>  <MMFF94 Energy>
23.674

$$$$
Compound 2176
Actelion Java MolfileCreator 2.0

  0  0  0  0  0  0              0 V3000
M  V30 BEGIN CTAB
M  V30 COUNTS 49 50 0 0 0
M  V30 BEGIN ATOM
M  V30 1 O -0.8715 -0.4753 2.6957 0
M  V30 2 C -1.6661 0.0126 1.8975 0
M  V30 3 O -3.0145 -0.1242 2.0954 0
M  V30 4 C -1.2132 0.7617 0.6842 0
M  V30 5 C -3.9528 0.4254 1.1992 0
M  V30 6 C -2.1522 1.2732 -0.1313 0
M  V30 7 C 0.3053 0.896 0.5469 0 CFG=1
M  V30 8 C -3.5565 1.1035 0.1185 0
M  V30 9 C -5.3776 0.1781 1.5722 0
M  V30 10 O -1.8314 1.9742 -1.2713 0
M  V30 11 C 0.9328 -0.3776 -0.0352 0
M  V30 12 C 0.8638 2.1043 -0.2328 0
M  V30 13 C 1.9922 -1.0276 0.612 0
M  V30 14 C 0.4747 -0.9089 -1.2566 0
M  V30 15 C 0.4384 3.4248 0.3595 0
M  V30 16 O 2.4994 -0.4783 1.7617 0
M  V30 17 C 2.5884 -2.1656 0.0581 0
M  V30 18 C 1.0462 -2.0631 -1.808 0
M  V30 19 O -0.1461 3.5786 1.4227 0
M  V30 20 O 0.8298 4.4391 -0.4663 0
M  V30 21 C 2.3641 -1.366 2.8735 0
M  V30 22 C 2.1141 -2.6964 -1.1441 0
M  V30 23 O 0.6446 -2.638 -2.989 0
M  V30 24 C 0.4992 5.7414 0.0169 0
M  V30 25 O 2.6297 -3.812 -1.7576 0
M  V30 26 C -0.4707 -2.066 -3.6561 0
M  V30 27 C 3.6775 -4.5034 -1.0936 0
M  V30 28 H 0.6793 1.0357 1.5706 0
M  V30 29 H -4.2879 1.5185 -0.5657 0
M  V30 30 H -6.0725 0.6208 0.8512 0
M  V30 31 H -5.5757 -0.8974 1.6154 0
M  V30 32 H -5.5912 0.6091 2.5555 0
M  V30 33 H -2.6344 2.3773 -1.6437 0
M  V30 34 H 0.5785 2.0715 -1.2897 0
M  V30 35 H 1.9614 2.0832 -0.1967 0
M  V30 36 H -0.3305 -0.3956 -1.7718 0
M  V30 37 H 3.4335 -2.6054 0.5738 0
M  V30 38 H 1.4187 -1.9198 2.8539 0
M  V30 39 H 2.3861 -0.7638 3.7867 0
M  V30 40 H 3.209 -2.0611 2.9058 0
M  V30 41 H 0.8549 6.474 -0.7128 0
M  V30 42 H -0.5854 5.8497 0.1156 0
M  V30 43 H 0.9976 5.9342 0.9721 0
M  V30 44 H -1.3665 -2.0925 -3.0266 0
M  V30 45 H -0.6733 -2.6693 -4.5463 0
M  V30 46 H -0.2501 -1.0467 -3.9897 0
M  V30 47 H 4.5716 -3.877 -1.0094 0
M  V30 48 H 3.9397 -5.3754 -1.7004 0
M  V30 49 H 3.3538 -4.8669 -0.1126 0
M  V30 END ATOM
M  V30 BEGIN BOND
M  V30 1 2 1 2
M  V30 2 1 2 3
M  V30 3 1 2 4
M  V30 4 1 3 5
M  V30 5 2 4 6
M  V30 6 1 4 7
M  V30 7 2 5 8
M  V30 8 1 5 9
M  V30 9 1 6 10
M  V30 10 1 7 11
M  V30 11 1 7 12
M  V30 12 2 11 13
M  V30 13 1 11 14
M  V30 14 1 12 15
M  V30 15 1 13 16
M  V30 16 1 13 17
M  V30 17 2 14 18
M  V30 18 2 15 19
M  V30 19 1 15 20
M  V30 20 1 16 21
M  V30 21 2 17 22
M  V30 22 1 18 23
M  V30 23 1 20 24
M  V30 24 1 22 25
M  V30 25 1 23 26
M  V30 26 1 25 27
M  V30 27 1 6 8
M  V30 28 1 18 22
M  V30 29 1 7 28
M  V30 30 1 8 29
M  V30 31 1 9 30
M  V30 32 1 9 31
M  V30 33 1 9 32
M  V30 34 1 10 33
M  V30 35 1 12 34
M  V30 36 1 12 35
M  V30 37 1 14 36
M  V30 38 1 17 37
M  V30 39 1 21 38
M  V30 40 1 21 39
M  V30 41 1 21 40
M  V30 42 1 24 41
M  V30 43 1 24 42
M  V30 44 1 24 43
M  V30 45 1 26 44
M  V30 46 1 26 45
M  V30 47 1 26 46
M  V30 48 1 27 47
M  V30 49 1 27 48
M  V30 50 1 27 49
M  V30 END BOND
M  V30 BEGIN COLLECTION
M  V30 MDLV30/STEABS ATOMS=(1 7)
M  V30 END COLLECTION
M  V30 END CTAB
M  END
>  <Column 1>
2676

>  <level_0>
3907

>  <index>
3907

>  <Unnamed: 0>
3907

>  <NO.>
3919

>  <Name>
methamphetamine

>  <IUPAC_name>
methyl (3r)-3-(4-hydroxy-6-methyl-2-oxopyran-3-yl)-3-(2-4-5-trimethoxyphenyl)propanoate

>  <SMILES>
COC(=O)C[C@H](c1cc(OC)c(OC)cc1OC)c1c(O)cc(C)oc1=O

>  <CID>
100001206

>  <logBB>


>  <BBB+/BBB->
BBB+

>  <Inchi>
InChI=1S/C19H22O8/c1-10-6-13(20)18(19(22)27-10)12(8-17(21)26-5)11-7-15(24-3)16(25-4)9-14(11)23-2/h6-7-9-12-20H-8H2-1-5H3/t12-/m1/s1

>  <threshold>
-1

>  <reference>
R16|R16|R10|R10|

>  <group>
B

>  <Class>
1

>  <ABC>
19.99

>  <ABCGG>
17.92

>  <nAcid>
0

>  <nBase>
0

>  <nAromAtom>
12

>  <nAromBond>
12

>  <nAtom>
49

>  <nHeavyAtom>
27

>  <nSpiro>
0

>  <nBridgehead>
0

>  <nHetero>
8

>  <nN>
0

>  <nO>
8

>  <nF>
0

>  <BalabanJ>
2.3

>  <BertzCT>
884.01

>  <nBonds>
50

>  <nBondsO>
28

>  <nBondsS>
36

>  <nBondsD>
2

>  <nBondsT>
0

>  <nBondsA>
12

>  <nBondsM>
14

>  <nBondsKS>
43

>  <nBondsKD>
7

>  <RNCG>
0.15

>  <RPCG>
0.1

>  <FCSP3>
0.37

>  <SZ>
33.33

>  <Sm>
31.5

>  <Sv>
30.68

>  <Sse>
50.41

>  <Sp>
31.63

>  <Si>
55.24

>  <MZ>
0.68

>  <Mm>
0.64

>  <Mv>
0.63

>  <Mse>
1.03

>  <Mp>
0.65

>  <Mi>
1.13

>  <NsCH3>
5

>  <NdCH2>
0

>  <NssCH2>
1

>  <NtCH>
0

>  <NdsCH>
0

>  <NaaCH>
3

>  <NsssCH>
1

>  <NddC>
0

>  <NtsC>
0

>  <NdssC>
1

>  <NaasC>
7

>  <NaaaC>
0

>  <NssssC>
0

>  <NsNH3>
0

>  <NsNH2>
0

>  <NssNH2>
0

>  <NdNH>
0

>  <NssNH>
0

>  <NaaNH>
0

>  <NtN>
0

>  <NsssNH>
0

>  <NdsN>
0

>  <NaaN>
0

>  <NsssN>
0

>  <NddsN>
0

>  <NaasN>
0

>  <NssssN>
0

>  <NsOH>
1

>  <NdO>
2

>  <NssO>
4

>  <NaaO>
1

>  <NsF>
0

>  <NsSiH3>
0

>  <NssSiH2>
0

>  <NsssSiH>
0

>  <NssssSi>
0

>  <NsPH2>
0

>  <NssPH>
0

>  <NsssP>
0

>  <NdsssP>
0

>  <NsssssP>
0

>  <NsSH>
0

>  <NdS>
0

>  <NssS>
0

>  <NaaS>
0

>  <NdssS>
0

>  <NddssS>
0

>  <NsCl>
0

>  <NsBr>
0

>  <NsI>
0

>  <fragCpx>
82.08

>  <fMF>
0.27

>  <nHBAcc>
8

>  <nHBDon>
1

>  <Kier1>
23.28

>  <Kier2>
10.68

>  <Lipinski>
1

>  <GhoseFilter>
1

>  <FilterItLogS>
-4.66

>  <VMcGowan>
273.71

>  <LabuteASA>
155.78

>  <PEOE_VSA1>
28.47

>  <PEOE_VSA2>
4.79

>  <PEOE_VSA3>
4.79

>  <PEOE_VSA4>
0

>  <PEOE_VSA5>
0

>  <PEOE_VSA6>
0

>  <PEOE_VSA7>
12.99

>  <PEOE_VSA8>
23.61

>  <PEOE_VSA9>
40.42

>  <PEOE_VSA10>
17.26

>  <PEOE_VSA11>
11.5

>  <PEOE_VSA12>
0

>  <PEOE_VSA13>
0

>  <SMR_VSA1>
33.27

>  <SMR_VSA2>
0

>  <SMR_VSA3>
0

>  <SMR_VSA4>
0

>  <SMR_VSA5>
19.26

>  <SMR_VSA6>
28.44

>  <SMR_VSA7>
45.51

>  <SMR_VSA8>
0

>  <SMR_VSA9>
23

>  <SlogP_VSA1>
19.84

>  <SlogP_VSA2>
39.52

>  <SlogP_VSA3>
9.53

>  <SlogP_VSA4>
6.92

>  <SlogP_VSA5>
29.23

>  <SlogP_VSA6>
27.41

>  <SlogP_VSA7>
0

>  <SlogP_VSA8>
0

>  <SlogP_VSA9>
0

>  <SlogP_VSA10>
0

>  <SlogP_VSA11>
23

>  <EState_VSA1>
17.51

>  <EState_VSA2>
23.49

>  <EState_VSA3>
22.81

>  <EState_VSA4>
0

>  <EState_VSA5>
41.43

>  <EState_VSA6>
12.13

>  <EState_VSA7>
0

>  <EState_VSA8>
0

>  <EState_VSA9>
23.36

>  <EState_VSA10>
14.7

>  <VSA_EState1>
25.85

>  <VSA_EState2>
24.45

>  <VSA_EState3>
10.37

>  <VSA_EState4>
-0.39

>  <VSA_EState5>
-0.36

>  <VSA_EState6>
4.48

>  <VSA_EState7>
-0.22

>  <VSA_EState8>
1.54

>  <VSA_EState9>
5.62

>  <apol>
52.82

>  <bpol>
32.49

>  <nRing>
2

>  <nHRing>
1

>  <naRing>
2

>  <naHRing>
1

>  <nARing 2>
0

>  <nAHRing 2>
0

>  <nFRing>
0

>  <nFHRing>
0

>  <nFaRing>
0

>  <nFaHRing>
0

>  <nFARing 2>
0

>  <nFAHRing 2>
0

>  <nRot>
7

>  <SLogP>
2.37

>  <SMR>
95.95

>  <TopoPSA(NO)>
104.43

>  <TopoPSA>
104.43

>  <JGI1>
0.23

>  <JGI2>
0.09

>  <JGI3>
0.06

>  <JGI4>
0.05

>  <JGI5>
0.04

>  <Diameter>
11

>  <Radius>
6

>  <TMWC10>
131.04

>  <TSRW10>
62.02

>  <MW>
378.13

>  <AMW>
7.72

>  <WPath>
1684

>  <WPol>
46

>  <Zagreb1>
134

>  <Zagreb2>
158

>  <mZagreb2>
6.33

>  <yes>


>  <nAR-cont>
0.336376

>  <nHA-cont>
0.860070871

>  <MWHBN>
0.462830469

>  <MWHBN-cont>
0

>  <TPSA-cont>
0.271013753

>  <pka_cont>
0.97

>  <yes.1>


>  <BBB_SCORE>
2.223474377

>  <MMFF94 Energy>
38.028

$$$$
Compound 2177
Actelion Java MolfileCreator 2.0

  0  0  0  0  0  0              0 V3000
M  V30 BEGIN CTAB
M  V30 COUNTS 70 75 0 0 0
M  V30 BEGIN ATOM
M  V30 1 O 0.4034 -2.665 -2.9075 0
M  V30 2 C 0.0324 -2.9975 -1.7835 0
M  V30 3 N -1.301 -3.0217 -1.361 0
M  V30 4 C 1.048 -3.4151 -0.7853 0
M  V30 5 C -1.6661 -3.418 -0.0705 0
M  V30 6 C -2.3004 -2.6512 -2.3653 0
M  V30 7 C 0.6689 -3.8088 0.4345 0
M  V30 8 C -0.7214 -3.816 0.8002 0
M  V30 9 C -3.1306 -3.3646 0.3345 0 CFG=1
M  V30 10 C -3.7591 -2.5469 -1.8919 0 CFG=1
M  V30 11 C -3.4798 -1.9749 0.9247 0
M  V30 12 C -4.0299 -3.6433 -0.8678 0
M  V30 13 C -4.0791 -1.1631 -1.287 0
M  V30 14 N -3.3135 -0.903 -0.068 0
M  V30 15 C -3.5438 0.4389 0.4725 0
M  V30 16 C -2.4535 0.8663 1.4283 0
M  V30 17 O -1.1685 0.6469 0.9561 0
M  V30 18 C -2.7018 1.3983 2.6317 0
M  V30 19 C -0.0621 0.9187 1.7568 0
M  V30 20 C -1.5622 1.7546 3.4849 0
M  V30 21 C -0.196 1.4601 2.9795 0
M  V30 22 C 1.2405 0.5071 1.0747 0 CFG=1
M  V30 23 O -1.7091 2.2659 4.5914 0
M  V30 24 O 0.862 1.7795 3.8067 0
M  V30 25 C 1.631 1.5327 0.0094 0
M  V30 26 C 2.4143 0.1679 2.0076 0
M  V30 27 C 2.0673 2.8338 0.3747 0
M  V30 28 C 1.5462 1.1898 -1.3502 0
M  V30 29 C 3.4703 -0.6056 1.2627 0
M  V30 30 C 2.4274 3.7807 -0.5923 0
M  V30 31 C 1.9052 2.1395 -2.2824 0
M  V30 32 O 3.3977 -1.8036 1.0209 0
M  V30 33 O 4.4928 0.2105 0.8906 0
M  V30 34 O 2.8604 5.0525 -0.3511 0
M  V30 35 C 2.3335 3.3957 -1.9185 0
M  V30 36 O 1.8823 1.9644 -3.6312 0
M  V30 37 C 5.5006 -0.4338 0.1117 0
M  V30 38 C 2.9887 5.4445 1.0085 0
M  V30 39 O 2.634 4.1648 -3.005 0
M  V30 40 C 2.3466 3.2517 -4.0799 0
M  V30 41 H 2.0851 -3.3771 -1.0914 0
M  V30 42 H -1.9847 -1.7192 -2.8515 0
M  V30 43 H -2.2439 -3.4286 -3.1398 0
M  V30 44 H 1.4073 -4.1028 1.1733 0
M  V30 45 H -0.972 -4.121 1.8112 0
M  V30 46 H -3.3305 -4.1267 1.099 0
M  V30 47 H -4.4147 -2.6864 -2.7606 0
M  V30 48 H -4.5137 -1.9887 1.2951 0
M  V30 49 H -2.8342 -1.7964 1.7935 0
M  V30 50 H -5.0849 -3.6353 -0.5678 0
M  V30 51 H -3.823 -4.6332 -1.2931 0
M  V30 52 H -3.8549 -0.3962 -2.039 0
M  V30 53 H -5.1554 -1.1007 -1.0777 0
M  V30 54 H -4.5347 0.5025 0.9402 0
M  V30 55 H -3.5357 1.1697 -0.3471 0
M  V30 56 H -3.6948 1.579 3.0189 0
M  V30 57 H 1.0035 -0.4312 0.5499 0
M  V30 58 H 0.445 2.1576 4.612 0
M  V30 59 H 2.0878 -0.471 2.838 0
M  V30 60 H 2.8774 1.0523 2.4596 0
M  V30 61 H 2.113 3.0821 1.4313 0
M  V30 62 H 1.2066 0.2104 -1.6763 0
M  V30 63 H 6.2523 0.314 -0.1553 0
M  V30 64 H 5.9871 -1.2229 0.6935 0
M  V30 65 H 5.0723 -0.8388 -0.8105 0
M  V30 66 H 2.0186 5.43 1.5166 0
M  V30 67 H 3.3578 6.4745 1.0266 0
M  V30 68 H 3.7195 4.82 1.5332 0
M  V30 69 H 3.2578 3.1088 -4.6721 0
M  V30 70 H 1.5783 3.6971 -4.7225 0
M  V30 END ATOM
M  V30 BEGIN BOND
M  V30 1 2 1 2
M  V30 2 1 2 3
M  V30 3 1 2 4
M  V30 4 1 3 5
M  V30 5 1 3 6
M  V30 6 2 4 7
M  V30 7 2 5 8
M  V30 8 1 5 9
M  V30 9 1 6 10
M  V30 10 1 9 11
M  V30 11 1 9 12
M  V30 12 1 10 13
M  V30 13 1 11 14
M  V30 14 1 14 15
M  V30 15 1 15 16
M  V30 16 1 16 17
M  V30 17 2 16 18
M  V30 18 1 17 19
M  V30 19 1 18 20
M  V30 20 2 19 21
M  V30 21 1 19 22
M  V30 22 2 20 23
M  V30 23 1 21 24
M  V30 24 1 22 25
M  V30 25 1 22 26
M  V30 26 2 25 27
M  V30 27 1 25 28
M  V30 28 1 26 29
M  V30 29 1 27 30
M  V30 30 2 28 31
M  V30 31 2 29 32
M  V30 32 1 29 33
M  V30 33 1 30 34
M  V30 34 2 30 35
M  V30 35 1 31 36
M  V30 36 1 33 37
M  V30 37 1 34 38
M  V30 38 1 35 39
M  V30 39 1 36 40
M  V30 40 1 7 8
M  V30 41 1 10 12
M  V30 42 1 13 14
M  V30 43 1 20 21
M  V30 44 1 31 35
M  V30 45 1 39 40
M  V30 46 1 4 41
M  V30 47 1 6 42
M  V30 48 1 6 43
M  V30 49 1 7 44
M  V30 50 1 8 45
M  V30 51 1 9 46
M  V30 52 1 10 47
M  V30 53 1 11 48
M  V30 54 1 11 49
M  V30 55 1 12 50
M  V30 56 1 12 51
M  V30 57 1 13 52
M  V30 58 1 13 53
M  V30 59 1 15 54
M  V30 60 1 15 55
M  V30 61 1 18 56
M  V30 62 1 22 57
M  V30 63 1 24 58
M  V30 64 1 26 59
M  V30 65 1 26 60
M  V30 66 1 27 61
M  V30 67 1 28 62
M  V30 68 1 37 63
M  V30 69 1 37 64
M  V30 70 1 37 65
M  V30 71 1 38 66
M  V30 72 1 38 67
M  V30 73 1 38 68
M  V30 74 1 40 69
M  V30 75 1 40 70
M  V30 END BOND
M  V30 BEGIN COLLECTION
M  V30 MDLV30/STEABS ATOMS=(3 9 10 22)
M  V30 END COLLECTION
M  V30 END CTAB
M  END
>  <Column 1>
2677

>  <level_0>
3908

>  <index>
3908

>  <Unnamed: 0>
3908

>  <NO.>
3920

>  <Name>
lamotrigine

>  <IUPAC_name>
methyl (3r)-3-[3-hydroxy-4-oxo-6-[[(1r-9s)-6-oxo-7-11-diazatricyclo[7.3.1.02-7]trideca-2-4-dien-11-yl]methyl]pyran-2-yl]-3-(7-methoxy-1-3-benzodioxol-5-yl)propanoate

>  <SMILES>
COC(=O)C[C@H](c1cc(OC)c2c(c1)OCO2)c1oc(CN2C[C@@H]3C[C@H](C2)c2cccc(=O)n2C3)cc(=O)c1O

>  <CID>
100003878

>  <logBB>


>  <BBB+/BBB->
BBB+

>  <Inchi>
InChI=1S/C29H30N2O9/c1-36-23-7-17(8-24-29(23)39-15-38-24)20(10-26(34)37-2)28-27(35)22(32)9-19(40-28)14-30-11-16-6-18(13-30)21-4-3-5-25(33)31(21)12-16/h3-5-7-9-16-18-20-35H-6-10-15H2-1-2H3/t16--18+-20+/m0/s1

>  <threshold>
-1

>  <reference>
R16|R10|

>  <group>
B

>  <Class>
-1

>  <ABC>
31.89

>  <ABCGG>
23.64

>  <nAcid>
0

>  <nBase>
1

>  <nAromAtom>
18

>  <nAromBond>
18

>  <nAtom>
70

>  <nHeavyAtom>
40

>  <nSpiro>
0

>  <nBridgehead>
2

>  <nHetero>
11

>  <nN>
2

>  <nO>
9

>  <nF>
0

>  <BalabanJ>
1.15

>  <BertzCT>
1576.65

>  <nBonds>
75

>  <nBondsO>
45

>  <nBondsS>
54

>  <nBondsD>
3

>  <nBondsT>
0

>  <nBondsA>
18

>  <nBondsM>
21

>  <nBondsKS>
65

>  <nBondsKD>
10

>  <RNCG>
0.11

>  <RPCG>
0.07

>  <FCSP3>
0.41

>  <SZ>
48.33

>  <Sm>
45.84

>  <Sv>
45.08

>  <Sse>
71.62

>  <Sp>
46.62

>  <Si>
78.7

>  <MZ>
0.69

>  <Mm>
0.65

>  <Mv>
0.64

>  <Mse>
1.02

>  <Mp>
0.67

>  <Mi>
1.12

>  <NsCH3>
2

>  <NdCH2>
0

>  <NssCH2>
7

>  <NtCH>
0

>  <NdsCH>
0

>  <NaaCH>
6

>  <NsssCH>
3

>  <NddC>
0

>  <NtsC>
0

>  <NdssC>
1

>  <NaasC>
8

>  <NaaaC>
0

>  <NssssC>
0

>  <NsNH3>
0

>  <NsNH2>
0

>  <NssNH2>
0

>  <NdNH>
0

>  <NssNH>
0

>  <NaaNH>
0

>  <NtN>
0

>  <NsssNH>
0

>  <NdsN>
0

>  <NaaN>
0

>  <NsssN>
1

>  <NddsN>
0

>  <NaasN>
1

>  <NssssN>
0

>  <NsOH>
1

>  <NdO>
3

>  <NssO>
4

>  <NaaO>
1

>  <NsF>
0

>  <NsSiH3>
0

>  <NssSiH2>
0

>  <NsssSiH>
0

>  <NssssSi>
0

>  <NsPH2>
0

>  <NssPH>
0

>  <NsssP>
0

>  <NdsssP>
0

>  <NsssssP>
0

>  <NsSH>
0

>  <NdS>
0

>  <NssS>
0

>  <NaaS>
0

>  <NdssS>
0

>  <NddssS>
0

>  <NsCl>
0

>  <NsBr>
0

>  <NsI>
0

>  <fragCpx>
465.11

>  <fMF>
0.43

>  <nHBAcc>
11

>  <nHBDon>
1

>  <Kier1>
30.04

>  <Kier2>
12.93

>  <Lipinski>
0

>  <GhoseFilter>
0

>  <FilterItLogS>
-5.31

>  <VMcGowan>
384.1

>  <LabuteASA>
229

>  <PEOE_VSA1>
33.04

>  <PEOE_VSA2>
19.28

>  <PEOE_VSA3>
0

>  <PEOE_VSA4>
0

>  <PEOE_VSA5>
0

>  <PEOE_VSA6>
6.07

>  <PEOE_VSA7>
36.1

>  <PEOE_VSA8>
43.38

>  <PEOE_VSA9>
33.1

>  <PEOE_VSA10>
5.76

>  <PEOE_VSA11>
17.26

>  <PEOE_VSA12>
23.72

>  <PEOE_VSA13>
5.56

>  <SMR_VSA1>
33.27

>  <SMR_VSA2>
0

>  <SMR_VSA3>
9.47

>  <SMR_VSA4>
5.92

>  <SMR_VSA5>
37.77

>  <SMR_VSA6>
34.1

>  <SMR_VSA7>
79.75

>  <SMR_VSA8>
0

>  <SMR_VSA9>
23

>  <SlogP_VSA1>
25.2

>  <SlogP_VSA2>
54.64

>  <SlogP_VSA3>
22.62

>  <SlogP_VSA4>
5.92

>  <SlogP_VSA5>
47.46

>  <SlogP_VSA6>
50.4

>  <SlogP_VSA7>
0

>  <SlogP_VSA8>
0

>  <SlogP_VSA9>
0

>  <SlogP_VSA10>
0

>  <SlogP_VSA11>
23

>  <EState_VSA1>
23.07

>  <EState_VSA2>
30.45

>  <EState_VSA3>
54.12

>  <EState_VSA4>
18.66

>  <EState_VSA5>
20.29

>  <EState_VSA6>
24.27

>  <EState_VSA7>
10.63

>  <EState_VSA8>
4.9

>  <EState_VSA9>
23.36

>  <EState_VSA10>
19.49

>  <VSA_EState1>
29.46

>  <VSA_EState2>
39.98

>  <VSA_EState3>
10.84

>  <VSA_EState4>
0.97

>  <VSA_EState5>
0.07

>  <VSA_EState6>
10.02

>  <VSA_EState7>
0.8

>  <VSA_EState8>
2.44

>  <VSA_EState9>
2.75

>  <apol>
77.85

>  <bpol>
44.8

>  <nRing>
6

>  <nHRing>
5

>  <naRing>
3

>  <naHRing>
2

>  <nARing 2>
3

>  <nAHRing 2>
3

>  <nFRing>
2

>  <nFHRing>
2

>  <nFaRing>
0

>  <nFaHRing>
0

>  <nFARing 2>
2

>  <nFAHRing 2>
2

>  <nRot>
7

>  <SLogP>
2.56

>  <SMR>
141.06

>  <TopoPSA(NO)>
129.67

>  <TopoPSA>
129.67

>  <JGI1>
0.2

>  <JGI2>
0.07

>  <JGI3>
0.05

>  <JGI4>
0.04

>  <JGI5>
0.03

>  <Diameter>
16

>  <Radius>
8

>  <TMWC10>
166.16

>  <TSRW10>
91.29

>  <MW>
550.2

>  <AMW>
7.86

>  <WPath>
5327

>  <WPol>
72

>  <Zagreb1>
222

>  <Zagreb2>
269

>  <mZagreb2>
8.67

>  <yes>


>  <nAR-cont>
0.691115

>  <nHA-cont>
0.308539627

>  <MWHBN>
0.511588712

>  <MWHBN-cont>
0

>  <TPSA-cont>
0

>  <pka_cont>
0.97

>  <yes.1>


>  <BBB_SCORE>
1.484654627

>  <MMFF94 Energy>
75.332

$$$$
Compound 2178
Actelion Java MolfileCreator 2.0

  0  0  0  0  0  0              0 V3000
M  V30 BEGIN CTAB
M  V30 COUNTS 72 76 0 0 0
M  V30 BEGIN ATOM
M  V30 1 O -2.1649 1.4429 -2.2452 0
M  V30 2 C -2.496 0.265 -2.3679 0
M  V30 3 N -3.2872 -0.4364 -1.4527 0
M  V30 4 C -2.0487 -0.4864 -3.5677 0
M  V30 5 C -3.6606 -1.768 -1.6576 0
M  V30 6 C -3.7485 0.3233 -0.29 0
M  V30 7 C -2.4306 -1.7552 -3.7445 0
M  V30 8 C -3.2632 -2.4096 -2.7708 0
M  V30 9 C -4.5162 -2.4683 -0.6139 0 CFG=1
M  V30 10 C -4.5608 -0.4422 0.7637 0 CFG=1
M  V30 11 C -3.6388 -3.1618 0.4573 0
M  V30 12 C -5.4467 -1.468 0.0678 0
M  V30 13 C -3.6611 -1.1374 1.8068 0
M  V30 14 N -2.8335 -2.2067 1.234 0
M  V30 15 C -2.0149 -2.89 2.2457 0
M  V30 16 C -0.8517 -2.044 2.7005 0
M  V30 17 O 0.0771 -1.781 1.7094 0
M  V30 18 C -0.7157 -1.5999 3.9554 0
M  V30 19 C 1.1635 -0.9547 1.9709 0
M  V30 20 C 0.4384 -0.752 4.2942 0
M  V30 21 C 1.3818 -0.4143 3.1866 0
M  V30 22 C 2.0649 -0.7968 0.7465 0 CFG=1
M  V30 23 O 0.5792 -0.3416 5.4412 0
M  V30 24 O 2.4403 0.4232 3.4773 0
M  V30 25 C 2.0961 0.6451 0.2417 0
M  V30 26 C 3.42 -1.4788 0.9959 0
M  V30 27 C 3.2243 1.4738 0.3133 0
M  V30 28 C 0.9239 1.1785 -0.3198 0
M  V30 29 C 4.1446 -1.7228 -0.3031 0
M  V30 30 C 3.1783 2.7914 -0.1565 0
M  V30 31 C 0.8796 2.4928 -0.7909 0
M  V30 32 O 3.6955 -2.3841 -1.2293 0
M  V30 33 O 5.3656 -1.1204 -0.2888 0
M  V30 34 C 2.0063 3.3183 -0.714 0
M  V30 35 C 6.11 -1.2905 -1.4957 0
M  V30 36 C 1.9345 4.742 -1.2356 0
M  V30 37 C 2.1861 5.7624 -0.1226 0
M  V30 38 C 2.8981 4.9609 -2.4045 0
M  V30 39 H -1.4188 0.0435 -4.2692 0
M  V30 40 H -4.3794 1.1284 -0.6919 0
M  V30 41 H -2.8849 0.8205 0.1701 0
M  V30 42 H -2.1119 -2.317 -4.6158 0
M  V30 43 H -3.5363 -3.4433 -2.9584 0
M  V30 44 H -5.1342 -3.234 -1.1009 0
M  V30 45 H -5.1897 0.2779 1.3023 0
M  V30 46 H -2.9748 -3.8791 -0.0419 0
M  V30 47 H -4.2875 -3.7406 1.129 0
M  V30 48 H -6.0906 -1.9764 0.7959 0
M  V30 49 H -6.1067 -0.9822 -0.6617 0
M  V30 50 H -3.0245 -0.3748 2.2713 0
M  V30 51 H -4.3006 -1.5445 2.602 0
M  V30 52 H -1.5835 -3.8055 1.8188 0
M  V30 53 H -2.633 -3.2127 3.0938 0
M  V30 54 H -1.424 -1.8054 4.7462 0
M  V30 55 H 1.5917 -1.3635 -0.0711 0
M  V30 56 H 2.5046 1.0704 2.7536 0
M  V30 57 H 3.2861 -2.4636 1.4623 0
M  V30 58 H 4.0531 -0.9032 1.6806 0
M  V30 59 H 4.1642 1.1257 0.7338 0
M  V30 60 H 0.0236 0.5692 -0.4027 0
M  V30 61 H 4.0749 3.4038 -0.0861 0
M  V30 62 H -0.0502 2.8586 -1.2253 0
M  V30 63 H 7.0596 -0.7597 -1.3853 0
M  V30 64 H 6.3229 -2.35 -1.6682 0
M  V30 65 H 5.569 -0.8591 -2.3439 0
M  V30 66 H 0.9203 4.9244 -1.6155 0
M  V30 67 H 3.2035 5.6909 0.2769 0
M  V30 68 H 2.0475 6.7824 -0.4973 0
M  V30 69 H 1.4893 5.6136 0.7098 0
M  V30 70 H 3.9445 4.8543 -2.0985 0
M  V30 71 H 2.7098 4.2393 -3.2073 0
M  V30 72 H 2.7747 5.9662 -2.8218 0
M  V30 END ATOM
M  V30 BEGIN BOND
M  V30 1 2 1 2
M  V30 2 1 2 3
M  V30 3 1 2 4
M  V30 4 1 3 5
M  V30 5 1 3 6
M  V30 6 2 4 7
M  V30 7 2 5 8
M  V30 8 1 5 9
M  V30 9 1 6 10
M  V30 10 1 9 11
M  V30 11 1 9 12
M  V30 12 1 10 13
M  V30 13 1 11 14
M  V30 14 1 14 15
M  V30 15 1 15 16
M  V30 16 1 16 17
M  V30 17 2 16 18
M  V30 18 1 17 19
M  V30 19 1 18 20
M  V30 20 2 19 21
M  V30 21 1 19 22
M  V30 22 2 20 23
M  V30 23 1 21 24
M  V30 24 1 22 25
M  V30 25 1 22 26
M  V30 26 2 25 27
M  V30 27 1 25 28
M  V30 28 1 26 29
M  V30 29 1 27 30
M  V30 30 2 28 31
M  V30 31 2 29 32
M  V30 32 1 29 33
M  V30 33 2 30 34
M  V30 34 1 33 35
M  V30 35 1 34 36
M  V30 36 1 36 37
M  V30 37 1 36 38
M  V30 38 1 7 8
M  V30 39 1 10 12
M  V30 40 1 13 14
M  V30 41 1 20 21
M  V30 42 1 31 34
M  V30 43 1 4 39
M  V30 44 1 6 40
M  V30 45 1 6 41
M  V30 46 1 7 42
M  V30 47 1 8 43
M  V30 48 1 9 44
M  V30 49 1 10 45
M  V30 50 1 11 46
M  V30 51 1 11 47
M  V30 52 1 12 48
M  V30 53 1 12 49
M  V30 54 1 13 50
M  V30 55 1 13 51
M  V30 56 1 15 52
M  V30 57 1 15 53
M  V30 58 1 18 54
M  V30 59 1 22 55
M  V30 60 1 24 56
M  V30 61 1 26 57
M  V30 62 1 26 58
M  V30 63 1 27 59
M  V30 64 1 28 60
M  V30 65 1 30 61
M  V30 66 1 31 62
M  V30 67 1 35 63
M  V30 68 1 35 64
M  V30 69 1 35 65
M  V30 70 1 36 66
M  V30 71 1 37 67
M  V30 72 1 37 68
M  V30 73 1 37 69
M  V30 74 1 38 70
M  V30 75 1 38 71
M  V30 76 1 38 72
M  V30 END BOND
M  V30 BEGIN COLLECTION
M  V30 MDLV30/STEABS ATOMS=(3 9 10 22)
M  V30 END COLLECTION
M  V30 END CTAB
M  END
>  <Column 1>
2678

>  <level_0>
3909

>  <index>
3909

>  <Unnamed: 0>
3909

>  <NO.>
3921

>  <Name>
salbutamol

>  <IUPAC_name>
methyl (3r)-3-[3-hydroxy-4-oxo-6-[[(1r-9s)-6-oxo-7-11-diazatricyclo[7.3.1.02-7]trideca-2-4-dien-11-yl]methyl]pyran-2-yl]-3-(4-propan-2-ylphenyl)propanoate

>  <SMILES>
COC(=O)C[C@H](c1ccc(C(C)C)cc1)c1oc(CN2C[C@@H]3C[C@H](C2)c2cccc(=O)n2C3)cc(=O)c1O

>  <CID>
100002083

>  <logBB>


>  <BBB+/BBB->
BBB-

>  <Inchi>
InChI=1S/C30H34N2O6/c1-18(2)20-7-9-21(10-8-20)24(13-28(35)37-3)30-29(36)26(33)12-23(38-30)17-31-14-19-11-22(16-31)25-5-4-6-27(34)32(25)15-19/h4-10-12-18-19-22-24-36H-11-13-17H2-1-3H3/t19--22+-24+/m0/s1

>  <threshold>
-1

>  <reference>
R16|R16|R10|R10|

>  <group>
B

>  <Class>
-1

>  <ABC>
30.03

>  <ABCGG>
21.87

>  <nAcid>
0

>  <nBase>
1

>  <nAromAtom>
18

>  <nAromBond>
18

>  <nAtom>
72

>  <nHeavyAtom>
38

>  <nSpiro>
0

>  <nBridgehead>
2

>  <nHetero>
8

>  <nN>
2

>  <nO>
6

>  <nF>
0

>  <BalabanJ>
1.24

>  <BertzCT>
1438.33

>  <nBonds>
76

>  <nBondsO>
42

>  <nBondsS>
55

>  <nBondsD>
3

>  <nBondsT>
0

>  <nBondsA>
18

>  <nBondsM>
21

>  <nBondsKS>
66

>  <nBondsKD>
10

>  <RNCG>
0.15

>  <RPCG>
0.09

>  <FCSP3>
0.43

>  <SZ>
46

>  <Sm>
43.18

>  <Sv>
45.02

>  <Sse>
72.4

>  <Sp>
47.77

>  <Si>
80.9

>  <MZ>
0.64

>  <Mm>
0.6

>  <Mv>
0.63

>  <Mse>
1.01

>  <Mp>
0.66

>  <Mi>
1.12

>  <NsCH3>
3

>  <NdCH2>
0

>  <NssCH2>
6

>  <NtCH>
0

>  <NdsCH>
0

>  <NaaCH>
8

>  <NsssCH>
4

>  <NddC>
0

>  <NtsC>
0

>  <NdssC>
1

>  <NaasC>
6

>  <NaaaC>
0

>  <NssssC>
0

>  <NsNH3>
0

>  <NsNH2>
0

>  <NssNH2>
0

>  <NdNH>
0

>  <NssNH>
0

>  <NaaNH>
0

>  <NtN>
0

>  <NsssNH>
0

>  <NdsN>
0

>  <NaaN>
0

>  <NsssN>
1

>  <NddsN>
0

>  <NaasN>
1

>  <NssssN>
0

>  <NsOH>
1

>  <NdO>
3

>  <NssO>
1

>  <NaaO>
1

>  <NsF>
0

>  <NsSiH3>
0

>  <NssSiH2>
0

>  <NsssSiH>
0

>  <NssssSi>
0

>  <NsPH2>
0

>  <NssPH>
0

>  <NsssP>
0

>  <NdsssP>
0

>  <NsssssP>
0

>  <NsSH>
0

>  <NdS>
0

>  <NssS>
0

>  <NaaS>
0

>  <NdssS>
0

>  <NddssS>
0

>  <NsCl>
0

>  <NsBr>
0

>  <NsI>
0

>  <fragCpx>
358.08

>  <fMF>
0.38

>  <nHBAcc>
8

>  <nHBDon>
1

>  <Kier1>
29.49

>  <Kier2>
12.89

>  <Lipinski>
0

>  <GhoseFilter>
0

>  <FilterItLogS>
-5.99

>  <VMcGowan>
391.44

>  <LabuteASA>
221.03

>  <PEOE_VSA1>
18.83

>  <PEOE_VSA2>
19.28

>  <PEOE_VSA3>
0

>  <PEOE_VSA4>
0

>  <PEOE_VSA5>
0

>  <PEOE_VSA6>
44.18

>  <PEOE_VSA7>
35.45

>  <PEOE_VSA8>
43.38

>  <PEOE_VSA9>
25.99

>  <PEOE_VSA10>
5.76

>  <PEOE_VSA11>
5.76

>  <PEOE_VSA12>
11.18

>  <PEOE_VSA13>
5.56

>  <SMR_VSA1>
19.06

>  <SMR_VSA2>
0

>  <SMR_VSA3>
9.47

>  <SMR_VSA4>
5.92

>  <SMR_VSA5>
57.53

>  <SMR_VSA6>
20.2

>  <SMR_VSA7>
97.45

>  <SMR_VSA8>
0

>  <SMR_VSA9>
5.75

>  <SlogP_VSA1>
10.99

>  <SlogP_VSA2>
40.74

>  <SlogP_VSA3>
22.62

>  <SlogP_VSA4>
5.92

>  <SlogP_VSA5>
72.78

>  <SlogP_VSA6>
62.54

>  <SlogP_VSA7>
0

>  <SlogP_VSA8>
0

>  <SlogP_VSA9>
0

>  <SlogP_VSA10>
0

>  <SlogP_VSA11>
5.75

>  <EState_VSA1>
23.07

>  <EState_VSA2>
23.66

>  <EState_VSA3>
30.69

>  <EState_VSA4>
36.33

>  <EState_VSA5>
13.18

>  <EState_VSA6>
6.07

>  <EState_VSA7>
40.97

>  <EState_VSA8>
18.75

>  <EState_VSA9>
9.15

>  <EState_VSA10>
19.49

>  <VSA_EState1>
12.99

>  <VSA_EState2>
39.76

>  <VSA_EState3>
10.75

>  <VSA_EState4>
2.45

>  <VSA_EState5>
-0.22

>  <VSA_EState6>
14.55

>  <VSA_EState7>
0.95

>  <VSA_EState8>
6.79

>  <VSA_EState9>
1.31

>  <apol>
79.78

>  <bpol>
43.61

>  <nRing>
5

>  <nHRing>
4

>  <naRing>
3

>  <naHRing>
2

>  <nARing 2>
2

>  <nAHRing 2>
2

>  <nFRing>
1

>  <nFHRing>
1

>  <nFaRing>
0

>  <nFaHRing>
0

>  <nFARing 2>
1

>  <nFAHRing 2>
1

>  <nRot>
7

>  <SLogP>
3.94

>  <SMR>
142.48

>  <TopoPSA(NO)>
101.98

>  <TopoPSA>
101.98

>  <JGI1>
0.21

>  <JGI2>
0.07

>  <JGI3>
0.05

>  <JGI4>
0.04

>  <JGI5>
0.03

>  <Diameter>
17

>  <Radius>
9

>  <TMWC10>
160.06

>  <TSRW10>
75.26

>  <MW>
518.24

>  <AMW>
7.2

>  <WPath>
4792

>  <WPol>
67

>  <Zagreb1>
206

>  <Zagreb2>
246

>  <mZagreb2>
8.22

>  <yes>


>  <nAR-cont>
1

>  <nHA-cont>
0.390024847

>  <MWHBN>
0.395345722

>  <MWHBN-cont>
0.494393075

>  <TPSA-cont>
0.288116274

>  <pka_cont>
0.97

>  <yes.1>


>  <BBB_SCORE>
3.192847007

>  <MMFF94 Energy>
77.73

$$$$
Compound 2179
Actelion Java MolfileCreator 2.0

  0  0  0  0  0  0              0 V3000
M  V30 BEGIN CTAB
M  V30 COUNTS 37 38 0 0 0
M  V30 BEGIN ATOM
M  V30 1 O -0.3181 -2.069 1.5116 0
M  V30 2 C -0.7591 -0.9955 1.9094 0
M  V30 3 O -1.2293 -0.8791 3.1899 0
M  V30 4 C -0.7981 0.2099 1.0295 0
M  V30 5 C -1.711 0.3481 3.6878 0
M  V30 6 C -1.2443 1.3608 1.5713 0
M  V30 7 C -0.3664 0.0776 -0.4311 0 CFG=1
M  V30 8 C -1.7213 1.4391 2.9195 0
M  V30 9 C -2.1827 0.3022 5.1031 0
M  V30 10 O -1.2964 2.5738 0.9279 0
M  V30 11 C 1.1016 0.454 -0.631 0
M  V30 12 C -0.7058 -1.2564 -1.1291 0
M  V30 13 C 1.4419 1.4931 -1.5138 0
M  V30 14 C 2.1355 -0.2264 0.0304 0
M  V30 15 C -0.7496 -1.1002 -2.632 0
M  V30 16 C 2.7758 1.854 -1.7113 0
M  V30 17 C 3.4689 0.1373 -0.1682 0
M  V30 18 O -1.0587 -0.0731 -3.2219 0
M  V30 19 O -0.4463 -2.2842 -3.2332 0
M  V30 20 C 3.7885 1.1789 -1.0353 0
M  V30 21 C -0.4718 -2.2381 -4.66 0
M  V30 22 H -0.9605 0.8338 -0.9641 0
M  V30 23 H -2.0862 2.3933 3.2867 0
M  V30 24 H -3.0018 -0.4164 5.2055 0
M  V30 25 H -2.544 1.2772 5.446 0
M  V30 26 H -1.3667 -0.0068 5.7638 0
M  V30 27 H -0.7094 2.56 0.1535 0
M  V30 28 H -1.6943 -1.6183 -0.8228 0
M  V30 29 H 0.0396 -2.0241 -0.8926 0
M  V30 30 H 0.6718 2.0211 -2.0743 0
M  V30 31 H 1.9209 -1.0545 0.7029 0
M  V30 32 H 3.025 2.6573 -2.4001 0
M  V30 33 H 4.259 -0.3982 0.3522 0
M  V30 34 H 4.8273 1.4578 -1.1909 0
M  V30 35 H -0.1947 -3.2267 -5.0361 0
M  V30 36 H -1.479 -2.001 -5.017 0
M  V30 37 H 0.2542 -1.5093 -5.0337 0
M  V30 END ATOM
M  V30 BEGIN BOND
M  V30 1 2 1 2
M  V30 2 1 2 3
M  V30 3 1 2 4
M  V30 4 1 3 5
M  V30 5 2 4 6
M  V30 6 1 4 7
M  V30 7 2 5 8
M  V30 8 1 5 9
M  V30 9 1 6 10
M  V30 10 1 7 11
M  V30 11 1 7 12
M  V30 12 2 11 13
M  V30 13 1 11 14
M  V30 14 1 12 15
M  V30 15 1 13 16
M  V30 16 2 14 17
M  V30 17 2 15 18
M  V30 18 1 15 19
M  V30 19 2 16 20
M  V30 20 1 19 21
M  V30 21 1 6 8
M  V30 22 1 17 20
M  V30 23 1 7 22
M  V30 24 1 8 23
M  V30 25 1 9 24
M  V30 26 1 9 25
M  V30 27 1 9 26
M  V30 28 1 10 27
M  V30 29 1 12 28
M  V30 30 1 12 29
M  V30 31 1 13 30
M  V30 32 1 14 31
M  V30 33 1 16 32
M  V30 34 1 17 33
M  V30 35 1 20 34
M  V30 36 1 21 35
M  V30 37 1 21 36
M  V30 38 1 21 37
M  V30 END BOND
M  V30 BEGIN COLLECTION
M  V30 MDLV30/STEABS ATOMS=(1 7)
M  V30 END COLLECTION
M  V30 END CTAB
M  END
>  <Column 1>
2679

>  <level_0>
3912

>  <index>
3912

>  <Unnamed: 0>
3912

>  <NO.>
3924

>  <Name>
clonidine

>  <IUPAC_name>
methyl (3r)-3-(4-hydroxy-6-methyl-2-oxopyran-3-yl)-3-phenylpropanoate

>  <SMILES>
COC(=O)C[C@H](c1ccccc1)c1c(O)cc(C)oc1=O

>  <CID>
100002803

>  <logBB>


>  <BBB+/BBB->
BBB+

>  <Inchi>
InChI=1S/C16H16O5/c1-10-8-13(17)15(16(19)21-10)12(9-14(18)20-2)11-6-4-3-5-7-11/h3-8-12-17H-9H2-1-2H3/t12-/m1/s1

>  <threshold>
-1

>  <reference>
R16|R10|

>  <group>
B

>  <Class>
1

>  <ABC>
15.83

>  <ABCGG>
14.04

>  <nAcid>
0

>  <nBase>
0

>  <nAromAtom>
12

>  <nAromBond>
12

>  <nAtom>
37

>  <nHeavyAtom>
21

>  <nSpiro>
0

>  <nBridgehead>
0

>  <nHetero>
5

>  <nN>
0

>  <nO>
5

>  <nF>
0

>  <BalabanJ>
2.12

>  <BertzCT>
687.56

>  <nBonds>
38

>  <nBondsO>
22

>  <nBondsS>
24

>  <nBondsD>
2

>  <nBondsT>
0

>  <nBondsA>
12

>  <nBondsM>
14

>  <nBondsKS>
31

>  <nBondsKD>
7

>  <RNCG>
0.23

>  <RPCG>
0.15

>  <FCSP3>
0.25

>  <SZ>
25.33

>  <Sm>
24

>  <Sv>
23.91

>  <Sse>
37.76

>  <Sp>
24.79

>  <Si>
41.37

>  <MZ>
0.68

>  <Mm>
0.65

>  <Mv>
0.65

>  <Mse>
1.02

>  <Mp>
0.67

>  <Mi>
1.12

>  <NsCH3>
2

>  <NdCH2>
0

>  <NssCH2>
1

>  <NtCH>
0

>  <NdsCH>
0

>  <NaaCH>
6

>  <NsssCH>
1

>  <NddC>
0

>  <NtsC>
0

>  <NdssC>
1

>  <NaasC>
4

>  <NaaaC>
0

>  <NssssC>
0

>  <NsNH3>
0

>  <NsNH2>
0

>  <NssNH2>
0

>  <NdNH>
0

>  <NssNH>
0

>  <NaaNH>
0

>  <NtN>
0

>  <NsssNH>
0

>  <NdsN>
0

>  <NaaN>
0

>  <NsssN>
0

>  <NddsN>
0

>  <NaasN>
0

>  <NssssN>
0

>  <NsOH>
1

>  <NdO>
2

>  <NssO>
1

>  <NaaO>
1

>  <NsF>
0

>  <NsSiH3>
0

>  <NssSiH2>
0

>  <NsssSiH>
0

>  <NssssSi>
0

>  <NsPH2>
0

>  <NssPH>
0

>  <NsssP>
0

>  <NdsssP>
0

>  <NsssssP>
0

>  <NsSH>
0

>  <NdS>
0

>  <NssS>
0

>  <NaaS>
0

>  <NdssS>
0

>  <NddssS>
0

>  <NsCl>
0

>  <NsBr>
0

>  <NsI>
0

>  <fragCpx>
64.05

>  <fMF>
0.35

>  <nHBAcc>
5

>  <nHBDon>
1

>  <Kier1>
17.36

>  <Kier2>
8.02

>  <Lipinski>
1

>  <GhoseFilter>
1

>  <FilterItLogS>
-3.88

>  <VMcGowan>
213.83

>  <LabuteASA>
121.35

>  <PEOE_VSA1>
14.26

>  <PEOE_VSA2>
4.79

>  <PEOE_VSA3>
4.79

>  <PEOE_VSA4>
0

>  <PEOE_VSA5>
0

>  <PEOE_VSA6>
30.33

>  <PEOE_VSA7>
12.49

>  <PEOE_VSA8>
11.98

>  <PEOE_VSA9>
19.09

>  <PEOE_VSA10>
11.51

>  <PEOE_VSA11>
0

>  <PEOE_VSA12>
0

>  <PEOE_VSA13>
0

>  <SMR_VSA1>
19.06

>  <SMR_VSA2>
0

>  <SMR_VSA3>
0

>  <SMR_VSA4>
0

>  <SMR_VSA5>
19.26

>  <SMR_VSA6>
7.11

>  <SMR_VSA7>
63.71

>  <SMR_VSA8>
0

>  <SMR_VSA9>
5.75

>  <SlogP_VSA1>
5.63

>  <SlogP_VSA2>
18.19

>  <SlogP_VSA3>
9.53

>  <SlogP_VSA4>
6.92

>  <SlogP_VSA5>
29.23

>  <SlogP_VSA6>
45.61

>  <SlogP_VSA7>
0

>  <SlogP_VSA8>
0

>  <SlogP_VSA9>
0

>  <SlogP_VSA10>
0

>  <SlogP_VSA11>
5.75

>  <EState_VSA1>
17.51

>  <EState_VSA2>
17.73

>  <EState_VSA3>
5.76

>  <EState_VSA4>
5.56

>  <EState_VSA5>
13.18

>  <EState_VSA6>
31.19

>  <EState_VSA7>
6.07

>  <EState_VSA8>
4.74

>  <EState_VSA9>
4.42

>  <EState_VSA10>
14.7

>  <VSA_EState1>
9.71

>  <VSA_EState2>
23.69

>  <VSA_EState3>
10.08

>  <VSA_EState4>
0.15

>  <VSA_EState5>
-0.95

>  <VSA_EState6>
10.36

>  <VSA_EState7>
-0.05

>  <VSA_EState8>
1.57

>  <VSA_EState9>
1.28

>  <apol>
41.4

>  <bpol>
21.26

>  <nRing>
2

>  <nHRing>
1

>  <naRing>
2

>  <naHRing>
1

>  <nARing 2>
0

>  <nAHRing 2>
0

>  <nFRing>
0

>  <nFHRing>
0

>  <nFaRing>
0

>  <nFaHRing>
0

>  <nFARing 2>
0

>  <nFAHRing 2>
0

>  <nRot>
4

>  <SLogP>
2.35

>  <SMR>
76.3

>  <TopoPSA(NO)>
76.74

>  <TopoPSA>
76.74

>  <JGI1>
0.2

>  <JGI2>
0.07

>  <JGI3>
0.06

>  <JGI4>
0.04

>  <JGI5>
0.03

>  <Diameter>
9

>  <Radius>
5

>  <TMWC10>
116.04

>  <TSRW10>
54.6

>  <MW>
288.1

>  <AMW>
7.79

>  <WPath>
874

>  <WPol>
32

>  <Zagreb1>
104

>  <Zagreb2>
120

>  <mZagreb2>
4.78

>  <yes>


>  <nAR-cont>
0.336376

>  <nHA-cont>
0.994529749

>  <MWHBN>
0.353492026

>  <MWHBN-cont>
0.65713701

>  <TPSA-cont>
0.464307147

>  <pka_cont>
0.97

>  <yes.1>


>  <BBB_SCORE>
3.730225559

>  <MMFF94 Energy>
12.26

$$$$
Compound 2180
Actelion Java MolfileCreator 2.0

  0  0  0  0  0  0              0 V3000
M  V30 BEGIN CTAB
M  V30 COUNTS 40 41 0 0 0
M  V30 BEGIN ATOM
M  V30 1 O -1.6703 -2.0683 0.5565 0
M  V30 2 C -0.9676 -1.828 -0.419 0
M  V30 3 N -1.0139 -2.6349 -1.5269 0
M  V30 4 C -0.0122 -0.6622 -0.4649 0
M  V30 5 C -0.2101 -2.4823 -2.6235 0
M  V30 6 C 0.7847 -0.5535 -1.5554 0
M  V30 7 C -0.0557 0.3099 0.7086 0 CFG=1
M  V30 8 C 0.6967 -1.496 -2.6609 0
M  V30 9 O 1.6903 0.4645 -1.7616 0
M  V30 10 C -1.3282 1.1488 0.7076 0
M  V30 11 C 0.2901 -0.3698 2.0484 0
M  V30 12 C 1.5476 -1.4502 -3.8747 0
M  V30 13 C -1.3963 2.2991 -0.0819 0
M  V30 14 C -2.4745 0.8282 1.442 0
M  V30 15 C 0.6882 0.6677 3.0666 0
M  V30 16 O 1.1182 -1.5896 -5.0117 0
M  V30 17 O 2.8557 -1.3365 -3.5279 0
M  V30 18 N -2.4714 3.1156 -0.1621 0
M  V30 19 C -3.599 1.648 1.3763 0
M  V30 20 O 1.5953 1.4721 2.8943 0
M  V30 21 O -0.0854 0.5776 4.1801 0
M  V30 22 C 3.7481 -1.3023 -4.6407 0
M  V30 23 C -3.5493 2.7706 0.5701 0
M  V30 24 C 0.2188 1.5491 5.1819 0
M  V30 25 H -1.6844 -3.3948 -1.4894 0
M  V30 26 H -0.3391 -3.2046 -3.4251 0
M  V30 27 H 0.7448 1.0449 0.5616 0
M  V30 28 H 1.9173 0.914 -0.9331 0
M  V30 29 H 1.1484 -1.0444 1.9369 0
M  V30 30 H -0.529 -0.9754 2.4472 0
M  V30 31 H -0.557 2.6136 -0.6981 0
M  V30 32 H -2.5224 -0.066 2.0584 0
M  V30 33 H -4.4959 1.4088 1.9369 0
M  V30 34 H 4.7633 -1.1685 -4.257 0
M  V30 35 H 3.7077 -2.247 -5.1919 0
M  V30 36 H 3.5131 -0.459 -5.2979 0
M  V30 37 H -4.4015 3.4387 0.4857 0
M  V30 38 H -0.4655 1.3965 6.021 0
M  V30 39 H 1.244 1.4189 5.5423 0
M  V30 40 H 0.0693 2.5611 4.7924 0
M  V30 END ATOM
M  V30 BEGIN BOND
M  V30 1 2 1 2
M  V30 2 1 2 3
M  V30 3 1 2 4
M  V30 4 1 3 5
M  V30 5 2 4 6
M  V30 6 1 4 7
M  V30 7 2 5 8
M  V30 8 1 6 9
M  V30 9 1 7 10
M  V30 10 1 7 11
M  V30 11 1 8 12
M  V30 12 2 10 13
M  V30 13 1 10 14
M  V30 14 1 11 15
M  V30 15 2 12 16
M  V30 16 1 12 17
M  V30 17 1 13 18
M  V30 18 2 14 19
M  V30 19 2 15 20
M  V30 20 1 15 21
M  V30 21 1 17 22
M  V30 22 2 18 23
M  V30 23 1 21 24
M  V30 24 1 6 8
M  V30 25 1 19 23
M  V30 26 1 3 25
M  V30 27 1 5 26
M  V30 28 1 7 27
M  V30 29 1 9 28
M  V30 30 1 11 29
M  V30 31 1 11 30
M  V30 32 1 13 31
M  V30 33 1 14 32
M  V30 34 1 19 33
M  V30 35 1 22 34
M  V30 36 1 22 35
M  V30 37 1 22 36
M  V30 38 1 23 37
M  V30 39 1 24 38
M  V30 40 1 24 39
M  V30 41 1 24 40
M  V30 END BOND
M  V30 BEGIN COLLECTION
M  V30 MDLV30/STEABS ATOMS=(1 7)
M  V30 END COLLECTION
M  V30 END CTAB
M  END
>  <Column 1>
2680

>  <level_0>
3913

>  <index>
3913

>  <Unnamed: 0>
3913

>  <NO.>
3925

>  <Name>
caffeine

>  <IUPAC_name>
methyl 4-hydroxy-5-[(1r)-3-methoxy-3-oxo-1-pyridin-3-ylpropyl]-6-oxo-1h-pyridine-3-carboxylate

>  <SMILES>
COC(=O)C[C@H](c1cccnc1)c1c(O)c(C(=O)OC)c[nH]c1=O

>  <CID>
100002519

>  <logBB>


>  <BBB+/BBB->
BBB+

>  <Inchi>
InChI=1S/C16H16N2O6/c1-23-12(19)6-10(9-4-3-5-17-7-9)13-14(20)11(16(22)24-2)8-18-15(13)21/h3-5-7-8-10H-6H2-1-2H3-(H2-18-20-21)/t10-/m1/s1

>  <threshold>
-1

>  <reference>
R16|R16|R10|R10|

>  <group>
B

>  <Class>
-1

>  <ABC>
17.87

>  <ABCGG>
15.94

>  <nAcid>
0

>  <nBase>
0

>  <nAromAtom>
12

>  <nAromBond>
12

>  <nAtom>
40

>  <nHeavyAtom>
24

>  <nSpiro>
0

>  <nBridgehead>
0

>  <nHetero>
8

>  <nN>
2

>  <nO>
6

>  <nF>
0

>  <BalabanJ>
2.2

>  <BertzCT>
799.96

>  <nBonds>
41

>  <nBondsO>
25

>  <nBondsS>
26

>  <nBondsD>
3

>  <nBondsT>
0

>  <nBondsA>
12

>  <nBondsM>
15

>  <nBondsKS>
33

>  <nBondsKD>
8

>  <RNCG>
0.17

>  <RPCG>
0.12

>  <FCSP3>
0.25

>  <SZ>
29

>  <Sm>
27.67

>  <Sv>
26.14

>  <Sse>
41.41

>  <Sp>
26.59

>  <Si>
45.16

>  <MZ>
0.73

>  <Mm>
0.69

>  <Mv>
0.65

>  <Mse>
1.04

>  <Mp>
0.66

>  <Mi>
1.13

>  <NsCH3>
2

>  <NdCH2>
0

>  <NssCH2>
1

>  <NtCH>
0

>  <NdsCH>
0

>  <NaaCH>
5

>  <NsssCH>
1

>  <NddC>
0

>  <NtsC>
0

>  <NdssC>
2

>  <NaasC>
4

>  <NaaaC>
0

>  <NssssC>
0

>  <NsNH3>
0

>  <NsNH2>
0

>  <NssNH2>
0

>  <NdNH>
0

>  <NssNH>
0

>  <NaaNH>
1

>  <NtN>
0

>  <NsssNH>
0

>  <NdsN>
0

>  <NaaN>
1

>  <NsssN>
0

>  <NddsN>
0

>  <NaasN>
0

>  <NssssN>
0

>  <NsOH>
1

>  <NdO>
3

>  <NssO>
2

>  <NaaO>
0

>  <NsF>
0

>  <NsSiH3>
0

>  <NssSiH2>
0

>  <NsssSiH>
0

>  <NssssSi>
0

>  <NsPH2>
0

>  <NssPH>
0

>  <NsssP>
0

>  <NdsssP>
0

>  <NsssssP>
0

>  <NsSH>
0

>  <NdS>
0

>  <NssS>
0

>  <NaaS>
0

>  <NdssS>
0

>  <NddssS>
0

>  <NsCl>
0

>  <NsBr>
0

>  <NsI>
0

>  <fragCpx>
73.08

>  <fMF>
0.33

>  <nHBAcc>
7

>  <nHBDon>
2

>  <Kier1>
20.31

>  <Kier2>
9.63

>  <Lipinski>
1

>  <GhoseFilter>
1

>  <FilterItLogS>
-3.32

>  <VMcGowan>
235.36

>  <LabuteASA>
136.62

>  <PEOE_VSA1>
19.56

>  <PEOE_VSA2>
14.57

>  <PEOE_VSA3>
4.79

>  <PEOE_VSA4>
0

>  <PEOE_VSA5>
0

>  <PEOE_VSA6>
6.07

>  <PEOE_VSA7>
11.63

>  <PEOE_VSA8>
24.51

>  <PEOE_VSA9>
26.2

>  <PEOE_VSA10>
11.31

>  <PEOE_VSA11>
0

>  <PEOE_VSA12>
0

>  <PEOE_VSA13>
5.56

>  <SMR_VSA1>
24.17

>  <SMR_VSA2>
0

>  <SMR_VSA3>
9.97

>  <SMR_VSA4>
0

>  <SMR_VSA5>
12.34

>  <SMR_VSA6>
14.22

>  <SMR_VSA7>
57.77

>  <SMR_VSA8>
0

>  <SMR_VSA9>
5.75

>  <SlogP_VSA1>
5.56

>  <SlogP_VSA2>
41.23

>  <SlogP_VSA3>
14.27

>  <SlogP_VSA4>
0

>  <SlogP_VSA5>
33.82

>  <SlogP_VSA6>
35.52

>  <SlogP_VSA7>
0

>  <SlogP_VSA8>
0

>  <SlogP_VSA9>
0

>  <SlogP_VSA10>
0

>  <SlogP_VSA11>
5.75

>  <EState_VSA1>
29.17

>  <EState_VSA2>
17.55

>  <EState_VSA3>
5.56

>  <EState_VSA4>
13.31

>  <EState_VSA5>
19.5

>  <EState_VSA6>
12.13

>  <EState_VSA7>
0

>  <EState_VSA8>
19.44

>  <EState_VSA9>
0

>  <EState_VSA10>
19.49

>  <VSA_EState1>
9.23

>  <VSA_EState2>
42.05

>  <VSA_EState3>
10.4

>  <VSA_EState4>
-0.44

>  <VSA_EState5>
-2.76

>  <VSA_EState6>
3.29

>  <VSA_EState7>
3.86

>  <VSA_EState8>
0

>  <VSA_EState9>
2.37

>  <apol>
44.4

>  <bpol>
23.84

>  <nRing>
2

>  <nHRing>
2

>  <naRing>
2

>  <naHRing>
2

>  <nARing 2>
0

>  <nAHRing 2>
0

>  <nFRing>
0

>  <nFHRing>
0

>  <nFaRing>
0

>  <nFaHRing>
0

>  <nFARing 2>
0

>  <nFAHRing 2>
0

>  <nRot>
5

>  <SLogP>
0.96

>  <SMR>
82.78

>  <TopoPSA(NO)>
118.58

>  <TopoPSA>
118.58

>  <JGI1>
0.18

>  <JGI2>
0.09

>  <JGI3>
0.05

>  <JGI4>
0.04

>  <JGI5>
0.03

>  <Diameter>
10

>  <Radius>
5

>  <TMWC10>
123.48

>  <TSRW10>
58.29

>  <MW>
332.1

>  <AMW>
8.3

>  <WPath>
1249

>  <WPol>
39

>  <Zagreb1>
118

>  <Zagreb2>
138

>  <mZagreb2>
5.58

>  <yes>


>  <nAR-cont>
0.336376

>  <nHA-cont>
0.94700071

>  <MWHBN>
0.493864798

>  <MWHBN-cont>
0

>  <TPSA-cont>
0.172237966

>  <pka_cont>
0.97

>  <yes.1>


>  <BBB_SCORE>
2.112852642

>  <MMFF94 Energy>
11.996

$$$$
Compound 2181
Actelion Java MolfileCreator 2.0

  0  0  0  0  0  0              0 V3000
M  V30 BEGIN CTAB
M  V30 COUNTS 52 54 0 0 0
M  V30 BEGIN ATOM
M  V30 1 O 0.6362 3.0247 3.5827 0
M  V30 2 C 0.4481 2.343 2.5811 0
M  V30 3 C 1.32 2.4108 1.3707 0
M  V30 4 C -0.6838 1.4013 2.5362 0
M  V30 5 O 2.4273 3.2377 1.4118 0
M  V30 6 C 0.9842 1.664 0.3007 0
M  V30 7 C -0.9417 0.7434 1.3993 0
M  V30 8 O -0.1859 0.9156 0.254 0
M  V30 9 C 1.844 1.5286 -0.9536 0 CFG=1
M  V30 10 C -2.0757 -0.2466 1.2612 0
M  V30 11 C 2.0953 0.0786 -1.2892 0
M  V30 12 C 1.2357 2.2885 -2.1428 0
M  V30 13 N -1.6777 -1.5353 0.6667 0
M  V30 14 C 3.3067 -0.6384 -1.1364 0
M  V30 15 C 1.2191 -0.8657 -1.7904 0
M  V30 16 C 1.366 3.7779 -1.9506 0
M  V30 17 C -2.8425 -2.3701 0.3386 0
M  V30 18 C -0.7122 -2.2885 1.483 0
M  V30 19 N 3.2017 -1.9161 -1.5076 0
M  V30 20 N 1.914 -2.0346 -1.8744 0
M  V30 21 O 2.0196 4.3138 -1.0627 0
M  V30 22 O 0.666 4.4338 -2.9155 0
M  V30 23 C -3.526 -2.9965 1.557 0
M  V30 24 C -1.3142 -2.9057 2.7476 0
M  V30 25 C 1.4058 -3.3181 -2.2909 0
M  V30 26 C 0.7315 5.8581 -2.8216 0
M  V30 27 C -2.5293 -3.766 2.4171 0
M  V30 28 H -1.2652 1.2901 3.4414 0
M  V30 29 H 2.466 3.7315 0.5644 0
M  V30 30 H 2.8362 1.9566 -0.7511 0
M  V30 31 H -2.5734 -0.3896 2.2278 0
M  V30 32 H -2.8153 0.2284 0.6027 0
M  V30 33 H 0.1754 2.0372 -2.2678 0
M  V30 34 H 1.7641 2.0324 -3.0692 0
M  V30 35 H 4.259 -0.2797 -0.7657 0
M  V30 36 H 0.1692 -0.8094 -2.0453 0
M  V30 37 H -2.5102 -3.1732 -0.3323 0
M  V30 38 H -3.5741 -1.7936 -0.2408 0
M  V30 39 H 0.1511 -1.6682 1.7497 0
M  V30 40 H -0.2988 -3.0938 0.8612 0
M  V30 41 H -4.3203 -3.6741 1.2234 0
M  V30 42 H -4.0098 -2.2191 2.1602 0
M  V30 43 H -1.6003 -2.1177 3.4543 0
M  V30 44 H -0.5587 -3.5197 3.251 0
M  V30 45 H 1.969 -3.6437 -3.1688 0
M  V30 46 H 1.5348 -4.0239 -1.4665 0
M  V30 47 H 0.3455 -3.2267 -2.5397 0
M  V30 48 H 0.1332 6.2793 -3.6342 0
M  V30 49 H 0.3124 6.1987 -1.8694 0
M  V30 50 H 1.7642 6.2017 -2.9365 0
M  V30 51 H -3.0122 -4.1056 3.34 0
M  V30 52 H -2.2021 -4.6634 1.8777 0
M  V30 END ATOM
M  V30 BEGIN BOND
M  V30 1 2 1 2
M  V30 2 1 2 3
M  V30 3 1 2 4
M  V30 4 1 3 5
M  V30 5 2 3 6
M  V30 6 2 4 7
M  V30 7 1 6 8
M  V30 8 1 6 9
M  V30 9 1 7 10
M  V30 10 1 9 11
M  V30 11 1 9 12
M  V30 12 1 10 13
M  V30 13 1 11 14
M  V30 14 2 11 15
M  V30 15 1 12 16
M  V30 16 1 13 17
M  V30 17 1 13 18
M  V30 18 2 14 19
M  V30 19 1 15 20
M  V30 20 2 16 21
M  V30 21 1 16 22
M  V30 22 1 17 23
M  V30 23 1 18 24
M  V30 24 1 20 25
M  V30 25 1 22 26
M  V30 26 1 23 27
M  V30 27 1 7 8
M  V30 28 1 19 20
M  V30 29 1 24 27
M  V30 30 1 4 28
M  V30 31 1 5 29
M  V30 32 1 9 30
M  V30 33 1 10 31
M  V30 34 1 10 32
M  V30 35 1 12 33
M  V30 36 1 12 34
M  V30 37 1 14 35
M  V30 38 1 15 36
M  V30 39 1 17 37
M  V30 40 1 17 38
M  V30 41 1 18 39
M  V30 42 1 18 40
M  V30 43 1 23 41
M  V30 44 1 23 42
M  V30 45 1 24 43
M  V30 46 1 24 44
M  V30 47 1 25 45
M  V30 48 1 25 46
M  V30 49 1 25 47
M  V30 50 1 26 48
M  V30 51 1 26 49
M  V30 52 1 26 50
M  V30 53 1 27 51
M  V30 54 1 27 52
M  V30 END BOND
M  V30 BEGIN COLLECTION
M  V30 MDLV30/STEABS ATOMS=(1 9)
M  V30 END COLLECTION
M  V30 END CTAB
M  END
>  <Column 1>
2681

>  <level_0>
3914

>  <index>
3914

>  <Unnamed: 0>
3914

>  <NO.>
3926

>  <Name>
ritonavir

>  <IUPAC_name>
methyl (3r)-3-[3-hydroxy-4-oxo-6-(piperidin-1-ylmethyl)pyran-2-yl]-3-(1-methylpyrazol-4-yl)propanoate

>  <SMILES>
COC(=O)C[C@H](c1cnn(C)c1)c1oc(CN2CCCCC2)cc(=O)c1O

>  <CID>
100005076

>  <logBB>


>  <BBB+/BBB->
BBB-

>  <Inchi>
InChI=1S/C19H25N3O5/c1-21-11-13(10-20-21)15(9-17(24)26-2)19-18(25)16(23)8-14(27-19)12-22-6-4-3-5-7-22/h8-10-11-15-25H-3-7-9-12H2-1-2H3/t15-/m1/s1

>  <threshold>
-1

>  <reference>
R16|R10|

>  <group>
B

>  <Class>
1

>  <ABC>
20.78

>  <ABCGG>
17.49

>  <nAcid>
0

>  <nBase>
1

>  <nAromAtom>
11

>  <nAromBond>
11

>  <nAtom>
52

>  <nHeavyAtom>
27

>  <nSpiro>
0

>  <nBridgehead>
0

>  <nHetero>
8

>  <nN>
3

>  <nO>
5

>  <nF>
0

>  <BalabanJ>
1.69

>  <BertzCT>
851.27

>  <nBonds>
54

>  <nBondsO>
29

>  <nBondsS>
41

>  <nBondsD>
2

>  <nBondsT>
0

>  <nBondsA>
11

>  <nBondsM>
13

>  <nBondsKS>
48

>  <nBondsKD>
6

>  <RNCG>
0.18

>  <RPCG>
0.11

>  <FCSP3>
0.53

>  <SZ>
33.33

>  <Sm>
31.26

>  <Sv>
31.62

>  <Sse>
52.74

>  <Sp>
33.36

>  <Si>
59.11

>  <MZ>
0.64

>  <Mm>
0.6

>  <Mv>
0.61

>  <Mse>
1.01

>  <Mp>
0.64

>  <Mi>
1.14

>  <NsCH3>
2

>  <NdCH2>
0

>  <NssCH2>
7

>  <NtCH>
0

>  <NdsCH>
0

>  <NaaCH>
3

>  <NsssCH>
1

>  <NddC>
0

>  <NtsC>
0

>  <NdssC>
1

>  <NaasC>
4

>  <NaaaC>
0

>  <NssssC>
0

>  <NsNH3>
0

>  <NsNH2>
0

>  <NssNH2>
0

>  <NdNH>
0

>  <NssNH>
0

>  <NaaNH>
0

>  <NtN>
0

>  <NsssNH>
0

>  <NdsN>
0

>  <NaaN>
1

>  <NsssN>
1

>  <NddsN>
0

>  <NaasN>
1

>  <NssssN>
0

>  <NsOH>
1

>  <NdO>
2

>  <NssO>
1

>  <NaaO>
1

>  <NsF>
0

>  <NsSiH3>
0

>  <NssSiH2>
0

>  <NsssSiH>
0

>  <NssssSi>
0

>  <NsPH2>
0

>  <NssPH>
0

>  <NsssP>
0

>  <NdsssP>
0

>  <NsssssP>
0

>  <NsSH>
0

>  <NdS>
0

>  <NssS>
0

>  <NaaS>
0

>  <NdssS>
0

>  <NddssS>
0

>  <NsCl>
0

>  <NsBr>
0

>  <NsI>
0

>  <fragCpx>
139.08

>  <fMF>
0.37

>  <nHBAcc>
8

>  <nHBDon>
1

>  <Kier1>
21.7

>  <Kier2>
10.16

>  <Lipinski>
1

>  <GhoseFilter>
1

>  <FilterItLogS>
-3.42

>  <VMcGowan>
279.48

>  <LabuteASA>
156.9

>  <PEOE_VSA1>
14.26

>  <PEOE_VSA2>
19.17

>  <PEOE_VSA3>
0

>  <PEOE_VSA4>
5.1

>  <PEOE_VSA5>
0

>  <PEOE_VSA6>
6.42

>  <PEOE_VSA7>
25.93

>  <PEOE_VSA8>
24.87

>  <PEOE_VSA9>
32.19

>  <PEOE_VSA10>
5.76

>  <PEOE_VSA11>
5.76

>  <PEOE_VSA12>
11.18

>  <PEOE_VSA13>
0

>  <SMR_VSA1>
19.06

>  <SMR_VSA2>
0

>  <SMR_VSA3>
14.68

>  <SMR_VSA4>
7.05

>  <SMR_VSA5>
38.15

>  <SMR_VSA6>
20.2

>  <SMR_VSA7>
45.77

>  <SMR_VSA8>
0

>  <SMR_VSA9>
5.75

>  <SlogP_VSA1>
5.43

>  <SlogP_VSA2>
45.96

>  <SlogP_VSA3>
23.12

>  <SlogP_VSA4>
0

>  <SlogP_VSA5>
48.69

>  <SlogP_VSA6>
27.67

>  <SlogP_VSA7>
0

>  <SlogP_VSA8>
0

>  <SlogP_VSA9>
0

>  <SlogP_VSA10>
0

>  <SlogP_VSA11>
5.75

>  <EState_VSA1>
23.07

>  <EState_VSA2>
12.18

>  <EState_VSA3>
17.87

>  <EState_VSA4>
25.93

>  <EState_VSA5>
19.6

>  <EState_VSA6>
24.12

>  <EState_VSA7>
0

>  <EState_VSA8>
10

>  <EState_VSA9>
9.15

>  <EState_VSA10>
14.7

>  <VSA_EState1>
12.29

>  <VSA_EState2>
26.47

>  <VSA_EState3>
14.47

>  <VSA_EState4>
0.15

>  <VSA_EState5>
-1.04

>  <VSA_EState6>
1.33

>  <VSA_EState7>
6.7

>  <VSA_EState8>
2.41

>  <VSA_EState9>
3.05

>  <apol>
55.71

>  <bpol>
33.71

>  <nRing>
3

>  <nHRing>
3

>  <naRing>
2

>  <naHRing>
2

>  <nARing 2>
1

>  <nAHRing 2>
1

>  <nFRing>
0

>  <nFHRing>
0

>  <nFaRing>
0

>  <nFaHRing>
0

>  <nFARing 2>
0

>  <nFAHRing 2>
0

>  <nRot>
6

>  <SLogP>
1.76

>  <SMR>
97.45

>  <TopoPSA(NO)>
97.8

>  <TopoPSA>
97.8

>  <JGI1>
0.21

>  <JGI2>
0.07

>  <JGI3>
0.05

>  <JGI4>
0.04

>  <JGI5>
0.02

>  <Diameter>
12

>  <Radius>
6

>  <TMWC10>
131.61

>  <TSRW10>
75.47

>  <MW>
375.18

>  <AMW>
7.21

>  <WPath>
1815

>  <WPol>
40

>  <Zagreb1>
138

>  <Zagreb2>
160

>  <mZagreb2>
6.03

>  <yes>


>  <nAR-cont>
0.816016

>  <nHA-cont>
0.860070871

>  <MWHBN>
0.4646465

>  <MWHBN-cont>
0

>  <TPSA-cont>
0.31729527

>  <pka_cont>
0.97

>  <yes.1>


>  <BBB_SCORE>
2.795677411

>  <MMFF94 Energy>
26.623

$$$$
Compound 2182
Actelion Java MolfileCreator 2.0

  0  0  0  0  0  0              0 V3000
M  V30 BEGIN CTAB
M  V30 COUNTS 60 63 0 0 0
M  V30 BEGIN ATOM
M  V30 1 O 0.0 -0.96 -0.8 0
M  V30 2 C -0.9921 -0.5251 -0.2147 0
M  V30 3 N -1.6433 -1.2351 0.8031 0
M  V30 4 C -1.5374 0.8257 -0.5809 0
M  V30 5 C -2.7181 -0.6982 1.5145 0
M  V30 6 C -1.0957 -2.5582 1.1294 0
M  V30 7 C -2.5432 1.3075 0.1709 0
M  V30 8 C -0.9289 1.5566 -1.7718 0 CFG=1
M  V30 9 C -3.1529 0.5348 1.214 0
M  V30 10 C -3.3801 -1.4865 2.611 0
M  V30 11 C 0.066 -2.4666 2.126 0
M  V30 12 O -3.0932 2.5606 0.0364 0
M  V30 13 C 0.3613 2.2505 -1.37 0
M  V30 14 C -0.8584 0.6771 -3.0424 0
M  V30 15 C 0.6004 -3.8307 2.4859 0
M  V30 16 C 0.2186 3.5754 -0.707 0
M  V30 17 C 1.6103 1.8057 -1.5731 0
M  V30 18 C -0.6966 1.5044 -4.2966 0
M  V30 19 C 0.1451 -4.4958 3.6334 0
M  V30 20 C 1.5396 -4.4616 1.658 0
M  V30 21 O -0.8865 4.0374 -0.4354 0
M  V30 22 C 1.4596 4.2921 -0.3726 0
M  V30 23 O 2.7778 2.4468 -1.2334 0
M  V30 24 O -0.5002 2.7104 -4.3342 0
M  V30 25 O -0.7907 0.6942 -5.3893 0
M  V30 26 C 0.627 -5.7674 3.9531 0
M  V30 27 C 2.0201 -5.732 1.9773 0
M  V30 28 C 2.6807 3.6856 -0.6538 0
M  V30 29 C 1.4178 5.5564 0.2236 0
M  V30 30 C -0.6433 1.3771 -6.6351 0
M  V30 31 C 1.5618 -6.3743 3.1208 0
M  V30 32 C 3.8719 4.3401 -0.3403 0
M  V30 33 C 2.6104 6.2111 0.5358 0
M  V30 34 O 2.058 -7.6144 3.395 0
M  V30 35 C 3.8356 5.6034 0.2542 0
M  V30 36 H -1.8875 -3.2177 1.5007 0
M  V30 37 H -0.7432 -3.028 0.2017 0
M  V30 38 H -1.6349 2.351 -2.056 0
M  V30 39 H -3.9845 0.9893 1.7451 0
M  V30 40 H -4.1627 -0.9073 3.1144 0
M  V30 41 H -2.657 -1.7781 3.3788 0
M  V30 42 H -3.857 -2.3856 2.2075 0
M  V30 43 H 0.8795 -1.8568 1.7126 0
M  V30 44 H -0.252 -1.9449 3.0373 0
M  V30 45 H -2.3866 3.1902 -0.2372 0
M  V30 46 H -1.7958 0.1153 -3.145 0
M  V30 47 H -0.0293 -0.0357 -3.0156 0
M  V30 48 H 1.8488 0.8532 -2.0309 0
M  V30 49 H -0.5865 -4.0259 4.287 0
M  V30 50 H 1.9025 -3.9661 0.7595 0
M  V30 51 H 0.2639 -6.2634 4.8475 0
M  V30 52 H 2.7494 -6.218 1.3356 0
M  V30 53 H 0.4639 6.0306 0.4435 0
M  V30 54 H -0.7369 0.6408 -7.4381 0
M  V30 55 H -1.4324 2.1257 -6.7576 0
M  V30 56 H 0.3459 1.8404 -6.7032 0
M  V30 57 H 4.8265 3.8687 -0.5584 0
M  V30 58 H 2.5845 7.1951 0.9985 0
M  V30 59 H 1.6606 -7.93 4.2228 0
M  V30 60 H 4.764 6.1149 0.498 0
M  V30 END ATOM
M  V30 BEGIN BOND
M  V30 1 2 1 2
M  V30 2 1 2 3
M  V30 3 1 2 4
M  V30 4 1 3 5
M  V30 5 1 3 6
M  V30 6 2 4 7
M  V30 7 1 4 8
M  V30 8 2 5 9
M  V30 9 1 5 10
M  V30 10 1 6 11
M  V30 11 1 7 12
M  V30 12 1 8 13
M  V30 13 1 8 14
M  V30 14 1 11 15
M  V30 15 1 13 16
M  V30 16 2 13 17
M  V30 17 1 14 18
M  V30 18 2 15 19
M  V30 19 1 15 20
M  V30 20 2 16 21
M  V30 21 1 16 22
M  V30 22 1 17 23
M  V30 23 2 18 24
M  V30 24 1 18 25
M  V30 25 1 19 26
M  V30 26 2 20 27
M  V30 27 2 22 28
M  V30 28 1 22 29
M  V30 29 1 25 30
M  V30 30 2 26 31
M  V30 31 1 28 32
M  V30 32 2 29 33
M  V30 33 1 31 34
M  V30 34 2 32 35
M  V30 35 1 7 9
M  V30 36 1 23 28
M  V30 37 1 27 31
M  V30 38 1 33 35
M  V30 39 1 6 36
M  V30 40 1 6 37
M  V30 41 1 8 38
M  V30 42 1 9 39
M  V30 43 1 10 40
M  V30 44 1 10 41
M  V30 45 1 10 42
M  V30 46 1 11 43
M  V30 47 1 11 44
M  V30 48 1 12 45
M  V30 49 1 14 46
M  V30 50 1 14 47
M  V30 51 1 17 48
M  V30 52 1 19 49
M  V30 53 1 20 50
M  V30 54 1 26 51
M  V30 55 1 27 52
M  V30 56 1 29 53
M  V30 57 1 30 54
M  V30 58 1 30 55
M  V30 59 1 30 56
M  V30 60 1 32 57
M  V30 61 1 33 58
M  V30 62 1 34 59
M  V30 63 1 35 60
M  V30 END BOND
M  V30 BEGIN COLLECTION
M  V30 MDLV30/STEABS ATOMS=(1 8)
M  V30 END COLLECTION
M  V30 END CTAB
M  END
>  <Column 1>
2682

>  <level_0>
3915

>  <index>
3915

>  <Unnamed: 0>
3915

>  <NO.>
3927

>  <Name>
perphenazine

>  <IUPAC_name>
methyl (3r)-3-[4-hydroxy-1-[2-(4-hydroxyphenyl)ethyl]-6-methyl-2-oxopyridin-3-yl]-3-(4-oxochromen-3-yl)propanoate

>  <SMILES>
COC(=O)C[C@H](c1coc2ccccc2c1=O)c1c(O)cc(C)n(CCc2ccc(O)cc2)c1=O

>  <CID>
100004748

>  <logBB>


>  <BBB+/BBB->
BBB+

>  <Inchi>
InChI=1S/C27H25NO7/c1-16-13-22(30)25(27(33)28(16)12-11-17-7-9-18(29)10-8-17)20(14-24(31)34-2)21-15-35-23-6-4-3-5-19(23)26(21)32/h3-10-13-15-20-29-30H-11-12-14H2-1-2H3/t20-/m1/s1

>  <threshold>
-1

>  <reference>
R16|R10|

>  <group>
B

>  <Class>
-1

>  <ABC>
27.16

>  <ABCGG>
21.18

>  <nAcid>
0

>  <nBase>
0

>  <nAromAtom>
22

>  <nAromBond>
23

>  <nAtom>
60

>  <nHeavyAtom>
35

>  <nSpiro>
0

>  <nBridgehead>
0

>  <nHetero>
8

>  <nN>
1

>  <nO>
7

>  <nF>
0

>  <BalabanJ>
1.49

>  <BertzCT>
1499.24

>  <nBonds>
63

>  <nBondsO>
38

>  <nBondsS>
37

>  <nBondsD>
3

>  <nBondsT>
0

>  <nBondsA>
23

>  <nBondsM>
26

>  <nBondsKS>
51

>  <nBondsKD>
12

>  <RNCG>
0.15

>  <RPCG>
0.09

>  <FCSP3>
0.22

>  <SZ>
41.67

>  <Sm>
39.59

>  <Sv>
39.53

>  <Sse>
61.08

>  <Sp>
41

>  <Si>
66.95

>  <MZ>
0.69

>  <Mm>
0.66

>  <Mv>
0.66

>  <Mse>
1.02

>  <Mp>
0.68

>  <Mi>
1.12

>  <NsCH3>
2

>  <NdCH2>
0

>  <NssCH2>
3

>  <NtCH>
0

>  <NdsCH>
0

>  <NaaCH>
10

>  <NsssCH>
1

>  <NddC>
0

>  <NtsC>
0

>  <NdssC>
1

>  <NaasC>
6

>  <NaaaC>
2

>  <NssssC>
0

>  <NsNH3>
0

>  <NsNH2>
0

>  <NssNH2>
0

>  <NdNH>
0

>  <NssNH>
0

>  <NaaNH>
0

>  <NtN>
0

>  <NsssNH>
0

>  <NdsN>
0

>  <NaaN>
0

>  <NsssN>
0

>  <NddsN>
0

>  <NaasN>
1

>  <NssssN>
0

>  <NsOH>
2

>  <NdO>
3

>  <NssO>
1

>  <NaaO>
1

>  <NsF>
0

>  <NsSiH3>
0

>  <NssSiH2>
0

>  <NsssSiH>
0

>  <NssssSi>
0

>  <NsPH2>
0

>  <NssPH>
0

>  <NsssP>
0

>  <NdsssP>
0

>  <NsssssP>
0

>  <NsSH>
0

>  <NdS>
0

>  <NssS>
0

>  <NaaS>
0

>  <NdssS>
0

>  <NddssS>
0

>  <NsCl>
0

>  <NsBr>
0

>  <NsI>
0

>  <fragCpx>
254.08

>  <fMF>
0.42

>  <nHBAcc>
8

>  <nHBDon>
2

>  <Kier1>
28.02

>  <Kier2>
12.7

>  <Lipinski>
1

>  <GhoseFilter>
1

>  <FilterItLogS>
-6.27

>  <VMcGowan>
347.32

>  <LabuteASA>
200.2

>  <PEOE_VSA1>
23.93

>  <PEOE_VSA2>
14.38

>  <PEOE_VSA3>
0

>  <PEOE_VSA4>
0

>  <PEOE_VSA5>
0

>  <PEOE_VSA6>
24.27

>  <PEOE_VSA7>
49.24

>  <PEOE_VSA8>
23.72

>  <PEOE_VSA9>
30.74

>  <PEOE_VSA10>
17.08

>  <PEOE_VSA11>
5.43

>  <PEOE_VSA12>
0

>  <PEOE_VSA13>
5.56

>  <SMR_VSA1>
24.16

>  <SMR_VSA2>
0

>  <SMR_VSA3>
4.57

>  <SMR_VSA4>
0

>  <SMR_VSA5>
32.23

>  <SMR_VSA6>
7.11

>  <SMR_VSA7>
103.82

>  <SMR_VSA8>
0

>  <SMR_VSA9>
11.5

>  <SlogP_VSA1>
10.99

>  <SlogP_VSA2>
27.86

>  <SlogP_VSA3>
22.5

>  <SlogP_VSA4>
6.92

>  <SlogP_VSA5>
34.72

>  <SlogP_VSA6>
74.87

>  <SlogP_VSA7>
0

>  <SlogP_VSA8>
10.97

>  <SlogP_VSA9>
0

>  <SlogP_VSA10>
0

>  <SlogP_VSA11>
11.5

>  <EState_VSA1>
22.88

>  <EState_VSA2>
29.05

>  <EState_VSA3>
29.63

>  <EState_VSA4>
5.56

>  <EState_VSA5>
24.01

>  <EState_VSA6>
55.45

>  <EState_VSA7>
0

>  <EState_VSA8>
0

>  <EState_VSA9>
9.15

>  <EState_VSA10>
24.6

>  <VSA_EState1>
11.94

>  <VSA_EState2>
39.22

>  <VSA_EState3>
20.61

>  <VSA_EState4>
0.91

>  <VSA_EState5>
-1.88

>  <VSA_EState6>
14.78

>  <VSA_EState7>
1.4

>  <VSA_EState8>
1.99

>  <VSA_EState9>
1.22

>  <apol>
68.47

>  <bpol>
32.87

>  <nRing>
4

>  <nHRing>
2

>  <naRing>
4

>  <naHRing>
2

>  <nARing 2>
0

>  <nAHRing 2>
0

>  <nFRing>
1

>  <nFHRing>
1

>  <nFaRing>
1

>  <nFaHRing>
1

>  <nFARing 2>
0

>  <nFAHRing 2>
0

>  <nRot>
7

>  <SLogP>
3.61

>  <SMR>
129.87

>  <TopoPSA(NO)>
118.97

>  <TopoPSA>
118.97

>  <JGI1>
0.18

>  <JGI2>
0.09

>  <JGI3>
0.05

>  <JGI4>
0.05

>  <JGI5>
0.03

>  <Diameter>
16

>  <Radius>
8

>  <TMWC10>
151.96

>  <TSRW10>
71.65

>  <MW>
475.16

>  <AMW>
7.92

>  <WPath>
3650

>  <WPol>
61

>  <Zagreb1>
184

>  <Zagreb2>
219

>  <mZagreb2>
7.75

>  <yes>


>  <nAR-cont>
0.336376

>  <nHA-cont>
0.523063577

>  <MWHBN>
0.45875421

>  <MWHBN-cont>
0

>  <TPSA-cont>
0.169515524

>  <pka_cont>
0.97

>  <yes.1>


>  <BBB_SCORE>
1.683470626

>  <MMFF94 Energy>
13.564

$$$$
Compound 2183
Actelion Java MolfileCreator 2.0

  0  0  0  0  0  0              0 V3000
M  V30 BEGIN CTAB
M  V30 COUNTS 52 55 0 0 0
M  V30 BEGIN ATOM
M  V30 1 O -0.1604 -0.8825 4.5794 0
M  V30 2 C 0.0013 -0.8549 3.3796 0
M  V30 3 C -0.8351 -0.1947 2.3858 0
M  V30 4 C 1.0754 -1.4697 2.5538 0
M  V30 5 C -0.2632 -0.4307 1.1414 0
M  V30 6 C -1.9887 0.5453 2.54 0
M  V30 7 O 0.8815 -1.1895 1.2048 0
M  V30 8 C 2.0884 -2.1729 3.0762 0
M  V30 9 C -0.832 0.0721 -0.0087 0
M  V30 10 C -2.5789 1.0629 1.3798 0
M  V30 11 C 3.1859 -2.7821 2.3078 0
M  V30 12 C -2.0065 0.8298 0.1106 0
M  V30 13 C 4.5195 -2.6602 2.744 0
M  V30 14 C 2.9251 -3.543 1.1614 0
M  V30 15 O -2.4993 1.2876 -1.0822 0
M  V30 16 O 4.7754 -1.9546 3.9009 0
M  V30 17 C 5.5736 -3.2991 2.0631 0
M  V30 18 C 3.9673 -4.1546 0.463 0
M  V30 19 C -3.6937 2.0691 -1.0376 0
M  V30 20 C 5.2353 -0.6404 3.5845 0
M  V30 21 O 6.8278 -3.1418 2.5943 0
M  V30 22 C 5.2849 -4.0339 0.9109 0
M  V30 23 C -4.0322 2.4515 -2.4346 0
M  V30 24 C 7.8774 -3.9162 2.0309 0
M  V30 25 O -5.196 3.1461 -2.5927 0
M  V30 26 C -3.4279 2.2694 -3.6607 0
M  V30 27 C -5.3465 3.4135 -3.9287 0
M  V30 28 C -4.2693 2.8846 -4.6182 0
M  V30 29 C -6.5164 4.1468 -4.3542 0
M  V30 30 O -7.4109 4.5662 -3.6291 0
M  V30 31 O -6.4861 4.3119 -5.711 0
M  V30 32 C -7.6055 5.0289 -6.2315 0
M  V30 33 H -2.4171 0.7164 3.5224 0
M  V30 34 H 2.154 -2.2928 4.1567 0
M  V30 35 H -0.3838 -0.1123 -0.979 0
M  V30 36 H -3.4879 1.6462 1.497 0
M  V30 37 H 1.9062 -3.6785 0.8057 0
M  V30 38 H 3.7496 -4.7388 -0.4278 0
M  V30 39 H -3.5322 2.9793 -0.4484 0
M  V30 40 H -4.5178 1.4804 -0.618 0
M  V30 41 H 6.2329 -0.6619 3.1348 0
M  V30 42 H 5.3011 -0.0766 4.52 0
M  V30 43 H 4.5337 -0.117 2.9249 0
M  V30 44 H 6.0614 -4.5319 0.3402 0
M  V30 45 H 7.6554 -4.9872 2.0847 0
M  V30 46 H 8.7808 -3.734 2.6211 0
M  V30 47 H 8.085 -3.6054 1.002 0
M  V30 48 H -2.4933 1.7538 -3.836 0
M  V30 49 H -4.115 2.9402 -5.6873 0
M  V30 50 H -7.4844 5.1048 -7.3157 0
M  V30 51 H -8.5361 4.491 -6.0248 0
M  V30 52 H -7.6405 6.041 -5.8161 0
M  V30 END ATOM
M  V30 BEGIN BOND
M  V30 1 2 1 2
M  V30 2 1 2 3
M  V30 3 1 2 4
M  V30 4 2 3 5
M  V30 5 1 3 6
M  V30 6 1 4 7
M  V30 7 2 4 8
M  V30 8 1 5 9
M  V30 9 2 6 10
M  V30 10 1 8 11
M  V30 11 2 9 12
M  V30 12 2 11 13
M  V30 13 1 11 14
M  V30 14 1 12 15
M  V30 15 1 13 16
M  V30 16 1 13 17
M  V30 17 2 14 18
M  V30 18 1 15 19
M  V30 19 1 16 20
M  V30 20 1 17 21
M  V30 21 2 17 22
M  V30 22 1 19 23
M  V30 23 1 21 24
M  V30 24 1 23 25
M  V30 25 2 23 26
M  V30 26 1 25 27
M  V30 27 1 26 28
M  V30 28 1 27 29
M  V30 29 2 29 30
M  V30 30 1 29 31
M  V30 31 1 31 32
M  V30 32 1 5 7
M  V30 33 1 10 12
M  V30 34 1 18 22
M  V30 35 2 27 28
M  V30 36 1 6 33
M  V30 37 1 8 34
M  V30 38 1 9 35
M  V30 39 1 10 36
M  V30 40 1 14 37
M  V30 41 1 18 38
M  V30 42 1 19 39
M  V30 43 1 19 40
M  V30 44 1 20 41
M  V30 45 1 20 42
M  V30 46 1 20 43
M  V30 47 1 22 44
M  V30 48 1 24 45
M  V30 49 1 24 46
M  V30 50 1 24 47
M  V30 51 1 26 48
M  V30 52 1 28 49
M  V30 53 1 32 50
M  V30 54 1 32 51
M  V30 55 1 32 52
M  V30 END BOND
M  V30 END CTAB
M  END
>  <Column 1>
2683

>  <level_0>
3916

>  <index>
3916

>  <Unnamed: 0>
3916

>  <NO.>
3928

>  <Name>
mefenamic acid

>  <IUPAC_name>
methyl 5-[[(2z)-2-[(2-3-dimethoxyphenyl)methylidene]-3-oxo-1-benzofuran-6-yl]oxymethyl]furan-2-carboxylate

>  <SMILES>
COC(=O)c1ccc(COc2ccc3c(c2)O/C(=C\c2cccc(OC)c2OC)C3=O)o1

>  <CID>
100004044

>  <logBB>


>  <BBB+/BBB->
BBB-

>  <Inchi>
InChI=1S/C24H20O8/c1-27-18-6-4-5-14(23(18)28-2)11-21-22(25)17-9-7-15(12-20(17)32-21)30-13-16-8-10-19(31-16)24(26)29-3/h4-12H-13H2-1-3H3/b21-11-

>  <threshold>
-1

>  <reference>
R16|R10|R10|

>  <group>
B

>  <Class>
1

>  <ABC>
24.72

>  <ABCGG>
19

>  <nAcid>
0

>  <nBase>
0

>  <nAromAtom>
17

>  <nAromBond>
17

>  <nAtom>
52

>  <nHeavyAtom>
32

>  <nSpiro>
0

>  <nBridgehead>
0

>  <nHetero>
8

>  <nN>
0

>  <nO>
8

>  <nF>
0

>  <BalabanJ>
1.24

>  <BertzCT>
1204.46

>  <nBonds>
55

>  <nBondsO>
35

>  <nBondsS>
35

>  <nBondsD>
3

>  <nBondsT>
0

>  <nBondsA>
17

>  <nBondsM>
20

>  <nBondsKS>
44

>  <nBondsKD>
11

>  <RNCG>
0.14

>  <RPCG>
0.1

>  <FCSP3>
0.17

>  <SZ>
38

>  <Sm>
36.33

>  <Sv>
35.14

>  <Sse>
53.52

>  <Sp>
35.83

>  <Si>
57.83

>  <MZ>
0.73

>  <Mm>
0.7

>  <Mv>
0.68

>  <Mse>
1.03

>  <Mp>
0.69

>  <Mi>
1.11

>  <NsCH3>
3

>  <NdCH2>
0

>  <NssCH2>
1

>  <NtCH>
0

>  <NdsCH>
1

>  <NaaCH>
8

>  <NsssCH>
0

>  <NddC>
0

>  <NtsC>
0

>  <NdssC>
3

>  <NaasC>
8

>  <NaaaC>
0

>  <NssssC>
0

>  <NsNH3>
0

>  <NsNH2>
0

>  <NssNH2>
0

>  <NdNH>
0

>  <NssNH>
0

>  <NaaNH>
0

>  <NtN>
0

>  <NsssNH>
0

>  <NdsN>
0

>  <NaaN>
0

>  <NsssN>
0

>  <NddsN>
0

>  <NaasN>
0

>  <NssssN>
0

>  <NsOH>
0

>  <NdO>
2

>  <NssO>
5

>  <NaaO>
1

>  <NsF>
0

>  <NsSiH3>
0

>  <NssSiH2>
0

>  <NsssSiH>
0

>  <NssssSi>
0

>  <NsPH2>
0

>  <NssPH>
0

>  <NsssP>
0

>  <NdsssP>
0

>  <NsssssP>
0

>  <NsSH>
0

>  <NdS>
0

>  <NssS>
0

>  <NaaS>
0

>  <NdssS>
0

>  <NddssS>
0

>  <NsCl>
0

>  <NsBr>
0

>  <NsI>
0

>  <fragCpx>
233.08

>  <fMF>
0.44

>  <nHBAcc>
8

>  <nHBDon>
0

>  <Kier1>
25.1

>  <Kier2>
11.62

>  <Lipinski>
1

>  <GhoseFilter>
1

>  <FilterItLogS>
-6.01

>  <VMcGowan>
305.24

>  <LabuteASA>
183.45

>  <PEOE_VSA1>
28.1

>  <PEOE_VSA2>
4.79

>  <PEOE_VSA3>
4.79

>  <PEOE_VSA4>
0

>  <PEOE_VSA5>
0

>  <PEOE_VSA6>
12.13

>  <PEOE_VSA7>
36.41

>  <PEOE_VSA8>
11.63

>  <PEOE_VSA9>
26.89

>  <PEOE_VSA10>
23.87

>  <PEOE_VSA11>
17.26

>  <PEOE_VSA12>
11.54

>  <PEOE_VSA13>
0

>  <SMR_VSA1>
37.69

>  <SMR_VSA2>
0

>  <SMR_VSA3>
0

>  <SMR_VSA4>
0

>  <SMR_VSA5>
6.61

>  <SMR_VSA6>
21.33

>  <SMR_VSA7>
76.94

>  <SMR_VSA8>
0

>  <SMR_VSA9>
23

>  <SlogP_VSA1>
18.95

>  <SlogP_VSA2>
33.08

>  <SlogP_VSA3>
11.34

>  <SlogP_VSA4>
0

>  <SlogP_VSA5>
32.24

>  <SlogP_VSA6>
58.71

>  <SlogP_VSA7>
0

>  <SlogP_VSA8>
6.08

>  <SlogP_VSA9>
0

>  <SlogP_VSA10>
0

>  <SlogP_VSA11>
23

>  <EState_VSA1>
5.97

>  <EState_VSA2>
23.91

>  <EState_VSA3>
39.89

>  <EState_VSA4>
0

>  <EState_VSA5>
20.29

>  <EState_VSA6>
55.65

>  <EState_VSA7>
0

>  <EState_VSA8>
4.74

>  <EState_VSA9>
23.36

>  <EState_VSA10>
9.59

>  <VSA_EState1>
32.2

>  <VSA_EState2>
24.25

>  <VSA_EState3>
0

>  <VSA_EState4>
1.08

>  <VSA_EState5>
1.82

>  <VSA_EState6>
13.44

>  <VSA_EState7>
1.61

>  <VSA_EState8>
0.09

>  <VSA_EState9>
4.35

>  <apol>
59.83

>  <bpol>
32.22

>  <nRing>
4

>  <nHRing>
2

>  <naRing>
3

>  <naHRing>
1

>  <nARing 2>
1

>  <nAHRing 2>
1

>  <nFRing>
1

>  <nFHRing>
1

>  <nFaRing>
0

>  <nFaHRing>
0

>  <nFARing 2>
1

>  <nFAHRing 2>
1

>  <nRot>
7

>  <SLogP>
4.28

>  <SMR>
113.3

>  <TopoPSA(NO)>
93.43

>  <TopoPSA>
93.43

>  <JGI1>
0.19

>  <JGI2>
0.08

>  <JGI3>
0.05

>  <JGI4>
0.04

>  <JGI5>
0.03

>  <Diameter>
18

>  <Radius>
9

>  <TMWC10>
144.84

>  <TSRW10>
83.99

>  <MW>
436.12

>  <AMW>
8.39

>  <WPath>
3390

>  <WPol>
51

>  <Zagreb1>
168

>  <Zagreb2>
200

>  <mZagreb2>
7.25

>  <yes>


>  <nAR-cont>
0.816016

>  <nHA-cont>
0.658856097

>  <MWHBN>
0.383077801

>  <MWHBN-cont>
0.542716267

>  <TPSA-cont>
0.347800583

>  <pka_cont>
0.97

>  <yes.1>


>  <BBB_SCORE>
3.469547665

>  <MMFF94 Energy>
128.9

$$$$
Compound 2184
Actelion Java MolfileCreator 2.0

  0  0  0  0  0  0              0 V3000
M  V30 BEGIN CTAB
M  V30 COUNTS 39 40 0 0 0
M  V30 BEGIN ATOM
M  V30 1 Cl 1.1117 -2.5425 1.0323 0
M  V30 2 C 0.3794 -2.9423 -0.4497 0
M  V30 3 C 0.8139 -3.962 -1.3368 0
M  V30 4 C -0.7482 -2.4066 -1.0381 0
M  V30 5 N 0.0052 -4.0846 -2.3852 0
M  V30 6 N 1.896 -4.728 -1.1625 0
M  V30 7 N -0.9675 -3.192 -2.1379 0
M  V30 8 C -1.6761 -1.3766 -0.6612 0
M  V30 9 O -2.882 -1.5688 -0.8149 0
M  V30 10 N -1.1893 -0.158 -0.1839 0
M  V30 11 C 0.1686 0.3554 -0.457 0
M  V30 12 C -2.1175 0.6919 0.5832 0
M  V30 13 C 0.1856 1.719 -1.1852 0 CFG=1
M  V30 14 C -1.6421 0.9898 2.0109 0
M  V30 15 O -0.0541 2.7809 -0.2345 0
M  V30 16 C 1.542 2.0259 -1.8097 0
M  V30 17 O -1.5704 -0.2293 2.7567 0
M  V30 18 C 1.1463 3.5503 -0.0773 0
M  V30 19 C 2.2639 2.7456 -0.699 0
M  V30 20 C -1.0991 -0.0104 4.0783 0
M  V30 21 H 2.4993 -4.6639 -0.3527 0
M  V30 22 H 2.1172 -5.4452 -1.8421 0
M  V30 23 H -1.7618 -3.1453 -2.769 0
M  V30 24 H 0.6983 -0.3576 -1.0916 0
M  V30 25 H 0.6932 0.42 0.5015 0
M  V30 26 H -3.0921 0.1966 0.6567 0
M  V30 27 H -2.2788 1.619 0.0254 0
M  V30 28 H -0.6021 1.7455 -1.9464 0
M  V30 29 H -0.6621 1.4768 2.0126 0
M  V30 30 H -2.3623 1.6596 2.4951 0
M  V30 31 H 2.0754 1.1457 -2.1788 0
M  V30 32 H 1.4067 2.7127 -2.6547 0
M  V30 33 H 1.315 3.7564 0.9832 0
M  V30 34 H 1.0035 4.502 -0.6002 0
M  V30 35 H 3.0944 3.3665 -1.0448 0
M  V30 36 H 2.6551 2.0211 0.0244 0
M  V30 37 H -1.0754 -0.9712 4.5993 0
M  V30 38 H -1.7704 0.664 4.6184 0
M  V30 39 H -0.0854 0.4013 4.0597 0
M  V30 END ATOM
M  V30 BEGIN BOND
M  V30 1 1 1 2
M  V30 2 1 2 3
M  V30 3 2 2 4
M  V30 4 2 3 5
M  V30 5 1 3 6
M  V30 6 1 4 7
M  V30 7 1 4 8
M  V30 8 2 8 9
M  V30 9 1 8 10
M  V30 10 1 10 11
M  V30 11 1 10 12
M  V30 12 1 11 13
M  V30 13 1 12 14
M  V30 14 1 13 15
M  V30 15 1 13 16
M  V30 16 1 14 17
M  V30 17 1 15 18
M  V30 18 1 16 19
M  V30 19 1 17 20
M  V30 20 1 5 7
M  V30 21 1 18 19
M  V30 22 1 6 21
M  V30 23 1 6 22
M  V30 24 1 7 23
M  V30 25 1 11 24
M  V30 26 1 11 25
M  V30 27 1 12 26
M  V30 28 1 12 27
M  V30 29 1 13 28
M  V30 30 1 14 29
M  V30 31 1 14 30
M  V30 32 1 16 31
M  V30 33 1 16 32
M  V30 34 1 18 33
M  V30 35 1 18 34
M  V30 36 1 19 35
M  V30 37 1 19 36
M  V30 38 1 20 37
M  V30 39 1 20 38
M  V30 40 1 20 39
M  V30 END BOND
M  V30 BEGIN COLLECTION
M  V30 MDLV30/STEABS ATOMS=(1 13)
M  V30 END COLLECTION
M  V30 END CTAB
M  END
>  <Column 1>
2684

>  <level_0>
3917

>  <index>
3917

>  <Unnamed: 0>
3917

>  <NO.>
3929

>  <Name>
isoflurane

>  <IUPAC_name>
3-amino-4-chloro-n-(2-methoxyethyl)-n-[[(2s)-oxolan-2-yl]methyl]-1h-pyrazole-5-carboxamide

>  <SMILES>
COCCN(C[C@@H]1CCCO1)C(=O)c1[nH]nc(N)c1Cl

>  <CID>
100003763

>  <logBB>


>  <BBB+/BBB->
BBB+

>  <Inchi>
InChI=1S/C12H19ClN4O3/c1-19-6-4-17(7-8-3-2-5-20-8)12(18)10-9(13)11(14)16-15-10/h8H-2-7H2-1H3-(H3-14-15-16)/t8-/m0/s1

>  <threshold>
-1

>  <reference>
R16|R10|

>  <group>
B

>  <Class>
1

>  <ABC>
15.02

>  <ABCGG>
14.22

>  <nAcid>
0

>  <nBase>
0

>  <nAromAtom>
5

>  <nAromBond>
5

>  <nAtom>
39

>  <nHeavyAtom>
20

>  <nSpiro>
0

>  <nBridgehead>
0

>  <nHetero>
8

>  <nN>
4

>  <nO>
3

>  <nF>
0

>  <BalabanJ>
1.93

>  <BertzCT>
459.55

>  <nBonds>
40

>  <nBondsO>
21

>  <nBondsS>
34

>  <nBondsD>
1

>  <nBondsT>
0

>  <nBondsA>
5

>  <nBondsM>
6

>  <nBondsKS>
37

>  <nBondsKD>
3

>  <RNCG>
0.17

>  <RPCG>
0.12

>  <FCSP3>
0.67

>  <SZ>
26.67

>  <Sm>
25.21

>  <Sv>
23.41

>  <Sse>
39.84

>  <Sp>
24.97

>  <Si>
44.89

>  <MZ>
0.68

>  <Mm>
0.65

>  <Mv>
0.6

>  <Mse>
1.02

>  <Mp>
0.64

>  <Mi>
1.15

>  <NsCH3>
1

>  <NdCH2>
0

>  <NssCH2>
6

>  <NtCH>
0

>  <NdsCH>
0

>  <NaaCH>
0

>  <NsssCH>
1

>  <NddC>
0

>  <NtsC>
0

>  <NdssC>
1

>  <NaasC>
3

>  <NaaaC>
0

>  <NssssC>
0

>  <NsNH3>
0

>  <NsNH2>
1

>  <NssNH2>
0

>  <NdNH>
0

>  <NssNH>
0

>  <NaaNH>
1

>  <NtN>
0

>  <NsssNH>
0

>  <NdsN>
0

>  <NaaN>
1

>  <NsssN>
1

>  <NddsN>
0

>  <NaasN>
0

>  <NssssN>
0

>  <NsOH>
0

>  <NdO>
1

>  <NssO>
2

>  <NaaO>
0

>  <NsF>
0

>  <NsSiH3>
0

>  <NssSiH2>
0

>  <NsssSiH>
0

>  <NssssSi>
0

>  <NsPH2>
0

>  <NssPH>
0

>  <NsssP>
0

>  <NdsssP>
0

>  <NsssssP>
0

>  <NsSH>
0

>  <NdS>
0

>  <NssS>
0

>  <NaaS>
0

>  <NdssS>
0

>  <NddssS>
0

>  <NsCl>
1

>  <NsBr>
0

>  <NsI>
0

>  <fragCpx>
61.08

>  <fMF>
0.33

>  <nHBAcc>
5

>  <nHBDon>
2

>  <Kier1>
16.37

>  <Kier2>
7.85

>  <Lipinski>
1

>  <GhoseFilter>
1

>  <FilterItLogS>
-2.73

>  <VMcGowan>
215.09

>  <LabuteASA>
121.9

>  <PEOE_VSA1>
20.11

>  <PEOE_VSA2>
9.89

>  <PEOE_VSA3>
0

>  <PEOE_VSA4>
5.1

>  <PEOE_VSA5>
0

>  <PEOE_VSA6>
11.6

>  <PEOE_VSA7>
12.84

>  <PEOE_VSA8>
26.81

>  <PEOE_VSA9>
12.71

>  <PEOE_VSA10>
10.72

>  <PEOE_VSA11>
5.82

>  <PEOE_VSA12>
0

>  <PEOE_VSA13>
5.91

>  <SMR_VSA1>
14.27

>  <SMR_VSA2>
0

>  <SMR_VSA3>
15.1

>  <SMR_VSA4>
0

>  <SMR_VSA5>
18.95

>  <SMR_VSA6>
39.15

>  <SMR_VSA7>
10.72

>  <SMR_VSA8>
0

>  <SMR_VSA9>
0

>  <SlogP_VSA1>
5.73

>  <SlogP_VSA2>
60.52

>  <SlogP_VSA3>
9.47

>  <SlogP_VSA4>
0

>  <SlogP_VSA5>
23.33

>  <SlogP_VSA6>
0

>  <SlogP_VSA7>
5.02

>  <SlogP_VSA8>
0

>  <SlogP_VSA9>
0

>  <SlogP_VSA10>
5.82

>  <SlogP_VSA11>
0

>  <EState_VSA1>
0

>  <EState_VSA2>
28.55

>  <EState_VSA3>
19.7

>  <EState_VSA4>
19.45

>  <EState_VSA5>
0

>  <EState_VSA6>
12.01

>  <EState_VSA7>
0

>  <EState_VSA8>
10.2

>  <EState_VSA9>
26.81

>  <EState_VSA10>
4.79

>  <VSA_EState1>
10.61

>  <VSA_EState2>
14.13

>  <VSA_EState3>
6.48

>  <VSA_EState4>
5.75

>  <VSA_EState5>
-0.12

>  <VSA_EState6>
0

>  <VSA_EState7>
2.04

>  <VSA_EState8>
2.16

>  <VSA_EState9>
1.59

>  <apol>
41.7

>  <bpol>
25.62

>  <nRing>
2

>  <nHRing>
2

>  <naRing>
1

>  <naHRing>
1

>  <nARing 2>
1

>  <nAHRing 2>
1

>  <nFRing>
0

>  <nFHRing>
0

>  <nFaRing>
0

>  <nFaHRing>
0

>  <nFARing 2>
0

>  <nFAHRing 2>
0

>  <nRot>
6

>  <SLogP>
0.91

>  <SMR>
74.76

>  <TopoPSA(NO)>
93.47

>  <TopoPSA>
93.47

>  <JGI1>
0.17

>  <JGI2>
0.09

>  <JGI3>
0.06

>  <JGI4>
0.04

>  <JGI5>
0.02

>  <Diameter>
9

>  <Radius>
5

>  <TMWC10>
113.05

>  <TSRW10>
68.57

>  <MW>
302.11

>  <AMW>
7.75

>  <WPath>
826

>  <WPol>
26

>  <Zagreb1>
98

>  <Zagreb2>
113

>  <mZagreb2>
4.61

>  <yes>


>  <nAR-cont>
0.816016

>  <nHA-cont>
0.999629945

>  <MWHBN>
0.402731398

>  <MWHBN-cont>
0.465317224

>  <TPSA-cont>
0.347521359

>  <pka_cont>
0.97

>  <yes.1>


>  <BBB_SCORE>
3.693664498

>  <MMFF94 Energy>
-26.891

$$$$
Compound 2185
Actelion Java MolfileCreator 2.0

  0  0  0  0  0  0              0 V3000
M  V30 BEGIN CTAB
M  V30 COUNTS 37 38 0 0 0
M  V30 BEGIN ATOM
M  V30 1 O 2.8547 2.696 -0.3961 0
M  V30 2 C 2.2436 1.8352 0.2298 0
M  V30 3 N 1.4695 0.8892 -0.3881 0
M  V30 4 C 2.3225 1.7851 1.722 0
M  V30 5 C 1.2728 0.8413 -1.828 0 CFG=2
M  V30 6 C 1.5953 0.8991 2.5232 0
M  V30 7 C 3.1778 2.7042 2.3425 0
M  V30 8 C 0.0238 0.0713 -2.1004 0
M  V30 9 C 2.4643 0.1895 -2.5238 0
M  V30 10 O 0.7399 -0.0195 1.98 0
M  V30 11 C 1.7635 0.9748 3.9004 0
M  V30 12 C 3.2741 2.6991 3.7227 0
M  V30 13 O -0.8525 0.6104 -2.9972 0
M  V30 14 N -0.3908 -1.0674 -1.5833 0
M  V30 15 N 2.5854 1.853 4.5163 0
M  V30 16 N -1.9428 -0.2605 -3.0559 0
M  V30 17 C -1.6173 -1.2194 -2.1783 0
M  V30 18 C -2.4911 -2.3898 -1.9193 0
M  V30 19 C -2.7613 -2.6163 -0.4316 0
M  V30 20 O -3.5062 -1.5686 0.1949 0
M  V30 21 C -4.875 -1.5304 -0.1851 0
M  V30 22 H 0.9906 0.1973 0.1872 0
M  V30 23 H 1.1636 1.8703 -2.191 0
M  V30 24 H 3.759 3.4141 1.7614 0
M  V30 25 H 2.6305 -0.8317 -2.1609 0
M  V30 26 H 2.3066 0.1378 -3.6068 0
M  V30 27 H 3.3847 0.755 -2.3434 0
M  V30 28 H 0.2386 -0.4627 2.6885 0
M  V30 29 H 1.2315 0.3136 4.5779 0
M  V30 30 H 3.9266 3.3969 4.2407 0
M  V30 31 H -3.4341 -2.2768 -2.4651 0
M  V30 32 H -1.9964 -3.2802 -2.3258 0
M  V30 33 H -3.289 -3.5666 -0.2859 0
M  V30 34 H -1.8137 -2.6979 0.1132 0
M  V30 35 H -5.3803 -0.7866 0.4373 0
M  V30 36 H -5.3516 -2.5015 -0.0208 0
M  V30 37 H -4.9814 -1.2267 -1.2296 0
M  V30 END ATOM
M  V30 BEGIN BOND
M  V30 1 2 1 2
M  V30 2 1 2 3
M  V30 3 1 2 4
M  V30 4 1 3 5
M  V30 5 2 4 6
M  V30 6 1 4 7
M  V30 7 1 5 8
M  V30 8 1 5 9
M  V30 9 1 6 10
M  V30 10 1 6 11
M  V30 11 2 7 12
M  V30 12 1 8 13
M  V30 13 2 8 14
M  V30 14 2 11 15
M  V30 15 1 13 16
M  V30 16 1 14 17
M  V30 17 1 17 18
M  V30 18 1 18 19
M  V30 19 1 19 20
M  V30 20 1 20 21
M  V30 21 1 12 15
M  V30 22 2 16 17
M  V30 23 1 3 22
M  V30 24 1 5 23
M  V30 25 1 7 24
M  V30 26 1 9 25
M  V30 27 1 9 26
M  V30 28 1 9 27
M  V30 29 1 10 28
M  V30 30 1 11 29
M  V30 31 1 12 30
M  V30 32 1 18 31
M  V30 33 1 18 32
M  V30 34 1 19 33
M  V30 35 1 19 34
M  V30 36 1 21 35
M  V30 37 1 21 36
M  V30 38 1 21 37
M  V30 END BOND
M  V30 BEGIN COLLECTION
M  V30 MDLV30/STEABS ATOMS=(1 5)
M  V30 END COLLECTION
M  V30 END CTAB
M  END
>  <Column 1>
2685

>  <level_0>
3918

>  <index>
3918

>  <Unnamed: 0>
3918

>  <NO.>
3930

>  <Name>
benzocaine

>  <IUPAC_name>
3-hydroxy-n-[(1s)-1-[3-(2-methoxyethyl)-1-2-4-oxadiazol-5-yl]ethyl]pyridine-4-carboxamide

>  <SMILES>
COCCc1noc([C@H](C)NC(=O)c2ccncc2O)n1

>  <CID>
100002337

>  <logBB>


>  <BBB+/BBB->
BBB+

>  <Inchi>
InChI=1S/C13H16N4O4/c1-8(13-16-11(17-21-13)4-6-20-2)15-12(19)9-3-5-14-7-10(9)18/h3-5-7-8-18H-4-6H2-1-2H3-(H-15-19)/t8-/m0/s1

>  <threshold>
-1

>  <reference>
R16|R10|R10|

>  <group>
B

>  <Class>
-1

>  <ABC>
15.76

>  <ABCGG>
13.66

>  <nAcid>
0

>  <nBase>
0

>  <nAromAtom>
11

>  <nAromBond>
11

>  <nAtom>
37

>  <nHeavyAtom>
21

>  <nSpiro>
0

>  <nBridgehead>
0

>  <nHetero>
8

>  <nN>
4

>  <nO>
4

>  <nF>
0

>  <BalabanJ>
1.74

>  <BertzCT>
613.72

>  <nBonds>
38

>  <nBondsO>
22

>  <nBondsS>
26

>  <nBondsD>
1

>  <nBondsT>
0

>  <nBondsA>
11

>  <nBondsM>
12

>  <nBondsKS>
32

>  <nBondsKD>
6

>  <RNCG>
0.21

>  <RPCG>
0.12

>  <FCSP3>
0.38

>  <SZ>
25.67

>  <Sm>
24.34

>  <Sv>
23.23

>  <Sse>
38.08

>  <Sp>
23.94

>  <Si>
42.32

>  <MZ>
0.69

>  <Mm>
0.66

>  <Mv>
0.63

>  <Mse>
1.03

>  <Mp>
0.65

>  <Mi>
1.14

>  <NsCH3>
2

>  <NdCH2>
0

>  <NssCH2>
2

>  <NtCH>
0

>  <NdsCH>
0

>  <NaaCH>
3

>  <NsssCH>
1

>  <NddC>
0

>  <NtsC>
0

>  <NdssC>
1

>  <NaasC>
4

>  <NaaaC>
0

>  <NssssC>
0

>  <NsNH3>
0

>  <NsNH2>
0

>  <NssNH2>
0

>  <NdNH>
0

>  <NssNH>
1

>  <NaaNH>
0

>  <NtN>
0

>  <NsssNH>
0

>  <NdsN>
0

>  <NaaN>
3

>  <NsssN>
0

>  <NddsN>
0

>  <NaasN>
0

>  <NssssN>
0

>  <NsOH>
1

>  <NdO>
1

>  <NssO>
1

>  <NaaO>
1

>  <NsF>
0

>  <NsSiH3>
0

>  <NssSiH2>
0

>  <NsssSiH>
0

>  <NssssSi>
0

>  <NsPH2>
0

>  <NssPH>
0

>  <NsssP>
0

>  <NdsssP>
0

>  <NsssssP>
0

>  <NsSH>
0

>  <NdS>
0

>  <NssS>
0

>  <NaaS>
0

>  <NdssS>
0

>  <NddssS>
0

>  <NsCl>
0

>  <NsBr>
0

>  <NsI>
0

>  <fragCpx>
64.08

>  <fMF>
0.38

>  <nHBAcc>
7

>  <nHBDon>
2

>  <Kier1>
17.36

>  <Kier2>
8.59

>  <Lipinski>
1

>  <GhoseFilter>
1

>  <FilterItLogS>
-3.35

>  <VMcGowan>
209.91

>  <LabuteASA>
120.7

>  <PEOE_VSA1>
19.68

>  <PEOE_VSA2>
9.78

>  <PEOE_VSA3>
0

>  <PEOE_VSA4>
4.98

>  <PEOE_VSA5>
0

>  <PEOE_VSA6>
5.16

>  <PEOE_VSA7>
12.99

>  <PEOE_VSA8>
19.73

>  <PEOE_VSA9>
18.37

>  <PEOE_VSA10>
11.79

>  <PEOE_VSA11>
5.82

>  <PEOE_VSA12>
5.89

>  <PEOE_VSA13>
5.91

>  <SMR_VSA1>
19.16

>  <SMR_VSA2>
0

>  <SMR_VSA3>
20.44

>  <SMR_VSA4>
0

>  <SMR_VSA5>
19.39

>  <SMR_VSA6>
13.72

>  <SMR_VSA7>
35.74

>  <SMR_VSA8>
0

>  <SMR_VSA9>
5.75

>  <SlogP_VSA1>
5.32

>  <SlogP_VSA2>
39.86

>  <SlogP_VSA3>
11.16

>  <SlogP_VSA4>
0

>  <SlogP_VSA5>
35.04

>  <SlogP_VSA6>
22.98

>  <SlogP_VSA7>
0

>  <SlogP_VSA8>
0

>  <SlogP_VSA9>
0

>  <SlogP_VSA10>
0

>  <SlogP_VSA11>
5.75

>  <EState_VSA1>
11.95

>  <EState_VSA2>
11.31

>  <EState_VSA3>
24.74

>  <EState_VSA4>
0

>  <EState_VSA5>
18.46

>  <EState_VSA6>
14.03

>  <EState_VSA7>
0

>  <EState_VSA8>
20.44

>  <EState_VSA9>
9.26

>  <EState_VSA10>
9.9

>  <VSA_EState1>
10.01

>  <VSA_EState2>
19.9

>  <VSA_EState3>
16.04

>  <VSA_EState4>
0.14

>  <VSA_EState5>
0.18

>  <VSA_EState6>
0.95

>  <VSA_EState7>
3.16

>  <VSA_EState8>
2.2

>  <VSA_EState9>
1.59

>  <apol>
39.99

>  <bpol>
23.24

>  <nRing>
2

>  <nHRing>
2

>  <naRing>
2

>  <naHRing>
2

>  <nARing 2>
0

>  <nAHRing 2>
0

>  <nFRing>
0

>  <nFHRing>
0

>  <nFaRing>
0

>  <nFaHRing>
0

>  <nFARing 2>
0

>  <nFAHRing 2>
0

>  <nRot>
6

>  <SLogP>
0.85

>  <SMR>
71.66

>  <TopoPSA(NO)>
110.37

>  <TopoPSA>
110.37

>  <JGI1>
0.18

>  <JGI2>
0.08

>  <JGI3>
0.05

>  <JGI4>
0.04

>  <JGI5>
0.03

>  <Diameter>
13

>  <Radius>
7

>  <TMWC10>
114.93

>  <TSRW10>
67.77

>  <MW>
292.12

>  <AMW>
7.9

>  <WPath>
1047

>  <WPol>
28

>  <Zagreb1>
102

>  <Zagreb2>
116

>  <mZagreb2>
4.83

>  <yes>


>  <nAR-cont>
0.336376

>  <nHA-cont>
0.994529749

>  <MWHBN>
0.526576973

>  <MWHBN-cont>
0

>  <TPSA-cont>
0.229548864

>  <pka_cont>
0.97

>  <yes.1>


>  <BBB_SCORE>
2.275003478

>  <MMFF94 Energy>
32.352

$$$$
Compound 2186
Actelion Java MolfileCreator 2.0

  0  0  0  0  0  0              0 V3000
M  V30 BEGIN CTAB
M  V30 COUNTS 43 46 0 0 0
M  V30 BEGIN ATOM
M  V30 1 S -1.5594 0.5743 0.4101 0
M  V30 2 O -2.9415 0.2935 0.0674 0
M  V30 3 O -0.829 1.6262 -0.2607 0
M  V30 4 C -1.5116 0.8935 2.1564 0
M  V30 5 C -0.7061 -0.9983 0.2401 0 CFG=2
M  V30 6 C -2.38 0.1958 3.0019 0
M  V30 7 C -0.6371 1.8558 2.6671 0
M  V30 8 C 0.8052 -0.9945 0.2419 0 CFG=1
M  V30 9 C 0.024 -1.33 -1.0315 0 CFG=2
M  V30 10 C -2.3498 0.4462 4.3737 0
M  V30 11 C -0.6122 2.0986 4.0404 0
M  V30 12 C 1.567 0.2229 0.3507 0
M  V30 13 C 1.4579 -2.1363 0.9923 0
M  V30 14 C 0.0055 -0.4939 -2.2915 0
M  V30 15 C -1.4645 1.3931 4.8916 0
M  V30 16 N 2.2496 1.1519 0.4794 0
M  V30 17 O 0.9698 -2.125 2.3345 0
M  V30 18 C 1.1841 0.0345 -2.8517 0
M  V30 19 C -1.2241 -0.167 -2.9227 0
M  V30 20 C 1.6514 -3.0678 3.1526 0
M  V30 21 C 1.0989 0.8258 -3.9806 0
M  V30 22 C -1.2867 0.6384 -4.0665 0
M  V30 23 O 2.1503 1.391 -4.6331 0
M  V30 24 C -0.1035 1.1208 -4.5713 0
M  V30 25 C 1.4623 2.1157 -5.6738 0
M  V30 26 O 0.0343 1.9119 -5.6676 0
M  V30 27 H -1.2132 -1.8186 0.7335 0
M  V30 28 H -3.0838 -0.5313 2.604 0
M  V30 29 H 0.0239 2.4207 2.0121 0
M  V30 30 H -0.0074 -2.3923 -1.2834 0
M  V30 31 H -3.0206 -0.0901 5.0405 0
M  V30 32 H 0.0694 2.8426 4.4461 0
M  V30 33 H 2.5511 -2.0387 0.984 0
M  V30 34 H 1.2062 -3.1028 0.5393 0
M  V30 35 H -1.4441 1.5891 5.9612 0
M  V30 36 H 2.1594 -0.1677 -2.4223 0
M  V30 37 H -2.1595 -0.5459 -2.5115 0
M  V30 38 H 1.2209 -3.0263 4.1567 0
M  V30 39 H 2.7149 -2.819 3.2176 0
M  V30 40 H 1.5234 -4.0801 2.7575 0
M  V30 41 H -2.2355 0.8822 -4.5305 0
M  V30 42 H 1.857 1.7924 -6.6437 0
M  V30 43 H 1.6657 3.1861 -5.5509 0
M  V30 END ATOM
M  V30 BEGIN BOND
M  V30 1 2 1 2
M  V30 2 2 1 3
M  V30 3 1 1 4
M  V30 4 1 1 5
M  V30 5 2 4 6
M  V30 6 1 4 7
M  V30 7 1 5 8
M  V30 8 1 5 9
M  V30 9 1 6 10
M  V30 10 2 7 11
M  V30 11 1 8 12
M  V30 12 1 8 13
M  V30 13 1 9 14
M  V30 14 2 10 15
M  V30 15 3 12 16
M  V30 16 1 13 17
M  V30 17 2 14 18
M  V30 18 1 14 19
M  V30 19 1 17 20
M  V30 20 1 18 21
M  V30 21 2 19 22
M  V30 22 1 21 23
M  V30 23 2 21 24
M  V30 24 1 23 25
M  V30 25 1 24 26
M  V30 26 1 8 9
M  V30 27 1 11 15
M  V30 28 1 22 24
M  V30 29 1 25 26
M  V30 30 1 5 27
M  V30 31 1 6 28
M  V30 32 1 7 29
M  V30 33 1 9 30
M  V30 34 1 10 31
M  V30 35 1 11 32
M  V30 36 1 13 33
M  V30 37 1 13 34
M  V30 38 1 15 35
M  V30 39 1 18 36
M  V30 40 1 19 37
M  V30 41 1 20 38
M  V30 42 1 20 39
M  V30 43 1 20 40
M  V30 44 1 22 41
M  V30 45 1 25 42
M  V30 46 1 25 43
M  V30 END BOND
M  V30 BEGIN COLLECTION
M  V30 MDLV30/STEABS ATOMS=(3 5 8 9)
M  V30 END COLLECTION
M  V30 END CTAB
M  END
>  <Column 1>
2686

>  <level_0>
3919

>  <index>
3919

>  <Unnamed: 0>
3919

>  <NO.>
3931

>  <Name>
oxandrolone

>  <IUPAC_name>
(1s-2s-3s)-2-(benzenesulfonyl)-3-(1-3-benzodioxol-5-yl)-1-(methoxymethyl)cyclopropane-1-carbonitrile

>  <SMILES>
COC[C@@]1(C#N)[C@H](c2ccc3c(c2)OCO3)[C@@H]1S(=O)(=O)c1ccccc1

>  <CID>
100005878

>  <logBB>


>  <BBB+/BBB->
BBB-

>  <Inchi>
InChI=1S/C19H17NO5S/c1-23-11-19(10-20)17(13-7-8-15-16(9-13)25-12-24-15)18(19)26(21-22)14-5-3-2-4-6-14/h2-9-17-18H-11-12H2-1H3/t17--18+-19+/m1/s1

>  <threshold>
-1

>  <reference>
R16|R10|R10|

>  <group>
B

>  <Class>
1

>  <ABC>
20.46

>  <ABCGG>
17.76

>  <nAcid>
0

>  <nBase>
0

>  <nAromAtom>
12

>  <nAromBond>
12

>  <nAtom>
43

>  <nHeavyAtom>
26

>  <nSpiro>
0

>  <nBridgehead>
0

>  <nHetero>
7

>  <nN>
1

>  <nO>
5

>  <nF>
0

>  <BalabanJ>
1.55

>  <BertzCT>
982.73

>  <nBonds>
46

>  <nBondsO>
29

>  <nBondsS>
31

>  <nBondsD>
2

>  <nBondsT>
1

>  <nBondsA>
12

>  <nBondsM>
15

>  <nBondsKS>
37

>  <nBondsKD>
8

>  <RNCG>
0.2

>  <RPCG>
0.1

>  <FCSP3>
0.32

>  <SZ>
32.33

>  <Sm>
30.92

>  <Sv>
29.12

>  <Sse>
43.94

>  <Sp>
30.58

>  <Si>
47.79

>  <MZ>
0.75

>  <Mm>
0.72

>  <Mv>
0.68

>  <Mse>
1.02

>  <Mp>
0.71

>  <Mi>
1.11

>  <NsCH3>
1

>  <NdCH2>
0

>  <NssCH2>
2

>  <NtCH>
0

>  <NdsCH>
0

>  <NaaCH>
8

>  <NsssCH>
2

>  <NddC>
0

>  <NtsC>
1

>  <NdssC>
0

>  <NaasC>
4

>  <NaaaC>
0

>  <NssssC>
1

>  <NsNH3>
0

>  <NsNH2>
0

>  <NssNH2>
0

>  <NdNH>
0

>  <NssNH>
0

>  <NaaNH>
0

>  <NtN>
1

>  <NsssNH>
0

>  <NdsN>
0

>  <NaaN>
0

>  <NsssN>
0

>  <NddsN>
0

>  <NaasN>
0

>  <NssssN>
0

>  <NsOH>
0

>  <NdO>
2

>  <NssO>
3

>  <NaaO>
0

>  <NsF>
0

>  <NsSiH3>
0

>  <NssSiH2>
0

>  <NsssSiH>
0

>  <NssssSi>
0

>  <NsPH2>
0

>  <NssPH>
0

>  <NsssP>
0

>  <NdsssP>
0

>  <NsssssP>
0

>  <NsSH>
0

>  <NdS>
0

>  <NssS>
0

>  <NaaS>
0

>  <NdssS>
0

>  <NddssS>
1

>  <NsCl>
0

>  <NsBr>
0

>  <NsI>
0

>  <fragCpx>
191.07

>  <fMF>
0.44

>  <nHBAcc>
6

>  <nHBDon>
0

>  <Kier1>
19.32

>  <Kier2>
7.44

>  <Lipinski>
1

>  <GhoseFilter>
1

>  <FilterItLogS>
-4.3

>  <VMcGowan>
256.41

>  <LabuteASA>
151.39

>  <PEOE_VSA1>
14.21

>  <PEOE_VSA2>
0

>  <PEOE_VSA3>
8.42

>  <PEOE_VSA4>
5.26

>  <PEOE_VSA5>
0

>  <PEOE_VSA6>
24.27

>  <PEOE_VSA7>
29.83

>  <PEOE_VSA8>
13.03

>  <PEOE_VSA9>
22.82

>  <PEOE_VSA10>
5.41

>  <PEOE_VSA11>
21.34

>  <PEOE_VSA12>
6.79

>  <PEOE_VSA13>
0

>  <SMR_VSA1>
22.63

>  <SMR_VSA2>
5.26

>  <SMR_VSA3>
0

>  <SMR_VSA4>
5.41

>  <SMR_VSA5>
16.06

>  <SMR_VSA6>
20.51

>  <SMR_VSA7>
54.09

>  <SMR_VSA8>
0

>  <SMR_VSA9>
17.57

>  <SlogP_VSA1>
9.47

>  <SlogP_VSA2>
34.18

>  <SlogP_VSA3>
14.57

>  <SlogP_VSA4>
16.75

>  <SlogP_VSA5>
11.48

>  <SlogP_VSA6>
53.43

>  <SlogP_VSA7>
0

>  <SlogP_VSA8>
0

>  <SlogP_VSA9>
0

>  <SlogP_VSA10>
0

>  <SlogP_VSA11>
11.5

>  <EState_VSA1>
26.42

>  <EState_VSA2>
18.3

>  <EState_VSA3>
11.5

>  <EState_VSA4>
5.56

>  <EState_VSA5>
7.11

>  <EState_VSA6>
48.53

>  <EState_VSA7>
0

>  <EState_VSA8>
6.07

>  <EState_VSA9>
14.21

>  <EState_VSA10>
13.68

>  <VSA_EState1>
42.33

>  <VSA_EState2>
0.21

>  <VSA_EState3>
8.97

>  <VSA_EState4>
-0.39

>  <VSA_EState5>
0.69

>  <VSA_EState6>
15.74

>  <VSA_EState7>
0

>  <VSA_EState8>
0.18

>  <VSA_EState9>
-2.22

>  <apol>
51.08

>  <bpol>
29.49

>  <nRing>
4

>  <nHRing>
1

>  <naRing>
2

>  <naHRing>
0

>  <nARing 2>
2

>  <nAHRing 2>
1

>  <nFRing>
1

>  <nFHRing>
1

>  <nFaRing>
0

>  <nFaHRing>
0

>  <nFARing 2>
1

>  <nFAHRing 2>
1

>  <nRot>
5

>  <SLogP>
2.51

>  <SMR>
92.64

>  <TopoPSA(NO)>
85.62

>  <TopoPSA>
94

>  <JGI1>
0.21

>  <JGI2>
0.12

>  <JGI3>
0.09

>  <JGI4>
0.05

>  <JGI5>
0.03

>  <Diameter>
11

>  <Radius>
6

>  <TMWC10>
134.31

>  <TSRW10>
83.74

>  <MW>
371.08

>  <AMW>
8.63

>  <WPath>
1537

>  <WPol>
44

>  <Zagreb1>
146

>  <Zagreb2>
183

>  <mZagreb2>
5.75

>  <yes>


>  <nAR-cont>
1

>  <nHA-cont>
0.892715677

>  <MWHBN>
0.311470899

>  <MWHBN-cont>
0.805168414

>  <TPSA-cont>
0.34382163

>  <pka_cont>
0.97

>  <yes.1>


>  <BBB_SCORE>
4.273111557

>  <MMFF94 Energy>
51.421

$$$$
Compound 2187
Actelion Java MolfileCreator 2.0

  0  0  0  0  0  0              0 V3000
M  V30 BEGIN CTAB
M  V30 COUNTS 38 40 0 0 0
M  V30 BEGIN ATOM
M  V30 1 S -1.5532 -0.4903 2.1259 0
M  V30 2 O -1.8856 0.7743 1.506 0
M  V30 3 O -2.4382 -1.6347 2.0057 0
M  V30 4 C 0.0549 -1.0841 1.5562 0 CFG=2
M  V30 5 C -1.3288 -0.2268 3.8655 0
M  V30 6 C 1.0821 -0.1162 0.9996 0 CFG=1
M  V30 7 C 0.3084 -1.0528 0.0665 0 CFG=2
M  V30 8 C 0.8668 1.3502 1.0474 0
M  V30 9 C 2.5468 -0.4899 1.1927 0
M  V30 10 C -0.6494 -0.595 -1.0135 0
M  V30 11 O 1.218 2.1418 0.1893 0
M  V30 12 O 0.4981 1.789 2.2688 0
M  V30 13 O 3.1737 -0.6158 -0.0813 0
M  V30 14 C -0.3224 0.4494 -1.8988 0
M  V30 15 C -1.9312 -1.1876 -1.1561 0
M  V30 16 C 4.5757 -0.8146 0.0332 0
M  V30 17 C -1.2445 0.8545 -2.8443 0
M  V30 18 C -2.8539 -0.7621 -2.1206 0
M  V30 19 O -1.0599 1.8405 -3.7635 0
M  V30 20 C -2.4791 0.2664 -2.9498 0
M  V30 21 C -2.3339 1.8219 -4.4379 0
M  V30 22 O -3.2325 0.8076 -3.9431 0
M  V30 23 H 0.4008 -1.9636 2.0832 0
M  V30 24 H -0.5807 0.5431 4.0417 0
M  V30 25 H -1.0174 -1.168 4.3234 0
M  V30 26 H -2.2869 0.0876 4.2856 0
M  V30 27 H 0.8795 -1.9151 -0.288 0
M  V30 28 H 2.6406 -1.4438 1.7257 0
M  V30 29 H 3.0574 0.2763 1.7893 0
M  V30 30 H 0.3875 2.7535 2.1162 0
M  V30 31 H 0.6508 0.9288 -1.8663 0
M  V30 32 H -2.2194 -2.0109 -0.5043 0
M  V30 33 H 4.9917 -0.9225 -0.9719 0
M  V30 34 H 4.7881 -1.7262 0.6001 0
M  V30 35 H 5.0463 0.0476 0.5152 0
M  V30 36 H -3.8291 -1.2267 -2.2065 0
M  V30 37 H -2.1618 1.6453 -5.5058 0
M  V30 38 H -2.8101 2.802 -4.3169 0
M  V30 END ATOM
M  V30 BEGIN BOND
M  V30 1 2 1 2
M  V30 2 2 1 3
M  V30 3 1 1 4
M  V30 4 1 1 5
M  V30 5 1 4 6
M  V30 6 1 4 7
M  V30 7 1 6 8
M  V30 8 1 6 9
M  V30 9 1 7 10
M  V30 10 2 8 11
M  V30 11 1 8 12
M  V30 12 1 9 13
M  V30 13 2 10 14
M  V30 14 1 10 15
M  V30 15 1 13 16
M  V30 16 1 14 17
M  V30 17 2 15 18
M  V30 18 1 17 19
M  V30 19 2 17 20
M  V30 20 1 19 21
M  V30 21 1 20 22
M  V30 22 1 6 7
M  V30 23 1 18 20
M  V30 24 1 21 22
M  V30 25 1 4 23
M  V30 26 1 5 24
M  V30 27 1 5 25
M  V30 28 1 5 26
M  V30 29 1 7 27
M  V30 30 1 9 28
M  V30 31 1 9 29
M  V30 32 1 12 30
M  V30 33 1 14 31
M  V30 34 1 15 32
M  V30 35 1 16 33
M  V30 36 1 16 34
M  V30 37 1 16 35
M  V30 38 1 18 36
M  V30 39 1 21 37
M  V30 40 1 21 38
M  V30 END BOND
M  V30 BEGIN COLLECTION
M  V30 MDLV30/STEABS ATOMS=(3 4 6 7)
M  V30 END COLLECTION
M  V30 END CTAB
M  END
>  <Column 1>
2687

>  <level_0>
3920

>  <index>
3920

>  <Unnamed: 0>
3920

>  <NO.>
3932

>  <Name>
sulfamethoxazole

>  <IUPAC_name>
(1r-2s-3s)-2-(1-3-benzodioxol-5-yl)-1-(methoxymethyl)-3-methylsulfonylcyclopropane-1-carboxylic acid

>  <SMILES>
COC[C@@]1(C(=O)O)[C@H](c2ccc3c(c2)OCO3)[C@@H]1S(C)(=O)=O

>  <CID>
100005329

>  <logBB>


>  <BBB+/BBB->
BBB+

>  <Inchi>
InChI=1S/C14H16O7S/c1-19-6-14(13(15)16)11(12(14)22(2-17)18)8-3-4-9-10(5-8)21-7-20-9/h3-5-11-12H-6-7H2-1-2H3-(H-15-16)/t11--12+-14-/m1/s1

>  <threshold>
-1

>  <reference>
R16|R10|

>  <group>
B

>  <Class>
1

>  <ABC>
17.3

>  <ABCGG>
15.91

>  <nAcid>
1

>  <nBase>
0

>  <nAromAtom>
6

>  <nAromBond>
6

>  <nAtom>
38

>  <nHeavyAtom>
22

>  <nSpiro>
0

>  <nBridgehead>
0

>  <nHetero>
8

>  <nN>
0

>  <nO>
7

>  <nF>
0

>  <BalabanJ>
1.81

>  <BertzCT>
726.71

>  <nBonds>
40

>  <nBondsO>
24

>  <nBondsS>
31

>  <nBondsD>
3

>  <nBondsT>
0

>  <nBondsA>
6

>  <nBondsM>
9

>  <nBondsKS>
34

>  <nBondsKD>
6

>  <RNCG>
0.18

>  <RPCG>
0.12

>  <FCSP3>
0.5

>  <SZ>
28.67

>  <Sm>
27.34

>  <Sv>
24.53

>  <Sse>
39.49

>  <Sp>
25.49

>  <Si>
42.71

>  <MZ>
0.75

>  <Mm>
0.72

>  <Mv>
0.65

>  <Mse>
1.04

>  <Mp>
0.67

>  <Mi>
1.12

>  <NsCH3>
2

>  <NdCH2>
0

>  <NssCH2>
2

>  <NtCH>
0

>  <NdsCH>
0

>  <NaaCH>
3

>  <NsssCH>
2

>  <NddC>
0

>  <NtsC>
0

>  <NdssC>
1

>  <NaasC>
3

>  <NaaaC>
0

>  <NssssC>
1

>  <NsNH3>
0

>  <NsNH2>
0

>  <NssNH2>
0

>  <NdNH>
0

>  <NssNH>
0

>  <NaaNH>
0

>  <NtN>
0

>  <NsssNH>
0

>  <NdsN>
0

>  <NaaN>
0

>  <NsssN>
0

>  <NddsN>
0

>  <NaasN>
0

>  <NssssN>
0

>  <NsOH>
1

>  <NdO>
3

>  <NssO>
3

>  <NaaO>
0

>  <NsF>
0

>  <NsSiH3>
0

>  <NssSiH2>
0

>  <NsssSiH>
0

>  <NssssSi>
0

>  <NsPH2>
0

>  <NssPH>
0

>  <NsssP>
0

>  <NdsssP>
0

>  <NsssssP>
0

>  <NsSH>
0

>  <NdS>
0

>  <NssS>
0

>  <NaaS>
0

>  <NdssS>
0

>  <NddssS>
1

>  <NsCl>
0

>  <NsBr>
0

>  <NsI>
0

>  <fragCpx>
114.08

>  <fMF>
0.32

>  <nHBAcc>
6

>  <nHBDon>
1

>  <Kier1>
16.84

>  <Kier2>
5.82

>  <Lipinski>
1

>  <GhoseFilter>
1

>  <FilterItLogS>
-2.25

>  <VMcGowan>
215.78

>  <LabuteASA>
127.26

>  <PEOE_VSA1>
19.32

>  <PEOE_VSA2>
4.79

>  <PEOE_VSA3>
8.42

>  <PEOE_VSA4>
0

>  <PEOE_VSA5>
0

>  <PEOE_VSA6>
6.07

>  <PEOE_VSA7>
17.7

>  <PEOE_VSA8>
19.28

>  <PEOE_VSA9>
11.86

>  <PEOE_VSA10>
5.41

>  <PEOE_VSA11>
21.34

>  <PEOE_VSA12>
6.79

>  <PEOE_VSA13>
0

>  <SMR_VSA1>
32.53

>  <SMR_VSA2>
0

>  <SMR_VSA3>
0

>  <SMR_VSA4>
5.41

>  <SMR_VSA5>
11.17

>  <SMR_VSA6>
26.77

>  <SMR_VSA7>
23.76

>  <SMR_VSA8>
0

>  <SMR_VSA9>
11.5

>  <SlogP_VSA1>
9.47

>  <SlogP_VSA2>
51.51

>  <SlogP_VSA3>
19.37

>  <SlogP_VSA4>
5.41

>  <SlogP_VSA5>
11.48

>  <SlogP_VSA6>
18.2

>  <SlogP_VSA7>
0

>  <SlogP_VSA8>
0

>  <SlogP_VSA9>
0

>  <SlogP_VSA10>
0

>  <SlogP_VSA11>
11.5

>  <EState_VSA1>
32.39

>  <EState_VSA2>
13.4

>  <EState_VSA3>
17.06

>  <EState_VSA4>
6.26

>  <EState_VSA5>
7.11

>  <EState_VSA6>
18.2

>  <EState_VSA7>
0

>  <EState_VSA8>
0

>  <EState_VSA9>
14.21

>  <EState_VSA10>
18.32

>  <VSA_EState1>
39.55

>  <VSA_EState2>
11.75

>  <VSA_EState3>
8.58

>  <VSA_EState4>
-0.87

>  <VSA_EState5>
-0.79

>  <VSA_EState6>
4.98

>  <VSA_EState7>
1.05

>  <VSA_EState8>
-0.07

>  <VSA_EState9>
-2.19

>  <apol>
42.56

>  <bpol>
28.78

>  <nRing>
3

>  <nHRing>
1

>  <naRing>
1

>  <naHRing>
0

>  <nARing 2>
2

>  <nAHRing 2>
1

>  <nFRing>
1

>  <nFHRing>
1

>  <nFaRing>
0

>  <nFaHRing>
0

>  <nFARing 2>
1

>  <nFAHRing 2>
1

>  <nRot>
5

>  <SLogP>
0.64

>  <SMR>
75.88

>  <TopoPSA(NO)>
99.13

>  <TopoPSA>
107.51

>  <JGI1>
0.27

>  <JGI2>
0.12

>  <JGI3>
0.11

>  <JGI4>
0.06

>  <JGI5>
0.02

>  <Diameter>
9

>  <Radius>
5

>  <TMWC10>
124.14

>  <TSRW10>
79.06

>  <MW>
328.06

>  <AMW>
8.63

>  <WPath>
963

>  <WPol>
36

>  <Zagreb1>
124

>  <Zagreb2>
155

>  <mZagreb2>
4.71

>  <yes>


>  <nAR-cont>
1

>  <nHA-cont>
0.983774276

>  <MWHBN>
0.386474995

>  <MWHBN-cont>
0.529349516

>  <TPSA-cont>
0.24951344

>  <pka_cont>
0.97

>  <yes.1>


>  <BBB_SCORE>
3.761825431

>  <MMFF94 Energy>
-3.7566

$$$$
Compound 2188
Actelion Java MolfileCreator 2.0

  0  0  0  0  0  0              0 V3000
M  V30 BEGIN CTAB
M  V30 COUNTS 39 41 0 0 0
M  V30 BEGIN ATOM
M  V30 1 S -0.1641 -2.3817 -1.9707 0
M  V30 2 O -0.4598 -2.3513 -3.387 0
M  V30 3 O 1.1313 -2.7935 -1.4657 0
M  V30 4 C -0.5883 -0.7565 -1.2918 0 CFG=2
M  V30 5 C -1.3728 -3.4339 -1.2113 0
M  V30 6 C 0.4622 0.3612 -1.3291 0 CFG=2
M  V30 7 C 0.1535 -0.4172 -0.0304 0 CFG=1
M  V30 8 C -0.0264 1.7747 -1.4486 0
M  V30 9 C 1.8288 0.1207 -1.9596 0
M  V30 10 C -0.5183 0.2389 1.1684 0
M  V30 11 S -1.0771 2.2115 -2.6551 0
M  V30 12 N 0.4488 2.6827 -0.5495 0
M  V30 13 O 1.6559 -0.098 -3.3523 0
M  V30 14 C 0.2016 0.3399 2.3779 0
M  V30 15 C -1.8837 0.6247 1.1966 0
M  V30 16 C 2.8352 -0.5945 -3.9669 0
M  V30 17 C -0.4149 0.8582 3.4993 0
M  V30 18 C -2.4909 1.1491 2.3466 0
M  V30 19 O 0.1653 1.0301 4.7168 0
M  V30 20 C -1.7263 1.2557 3.483 0
M  V30 21 C -0.9374 1.5842 5.4661 0
M  V30 22 O -2.1419 1.7318 4.6855 0
M  V30 23 H -1.6247 -0.4884 -1.419 0
M  V30 24 H -2.3693 -3.0904 -1.4949 0
M  V30 25 H -1.2443 -3.3946 -0.1279 0
M  V30 26 H -1.2126 -4.4528 -1.5699 0
M  V30 27 H 0.9331 -1.1172 0.2739 0
M  V30 28 H 2.4635 1.0044 -1.8189 0
M  V30 29 H 2.356 -0.7166 -1.4928 0
M  V30 30 H 1.07 2.435 0.2091 0
M  V30 31 H 0.1401 3.6458 -0.6125 0
M  V30 32 H 1.2376 0.0193 2.4388 0
M  V30 33 H -2.4987 0.541 0.3037 0
M  V30 34 H 2.6449 -0.7062 -5.0376 0
M  V30 35 H 3.0982 -1.5738 -3.556 0
M  V30 36 H 3.6634 0.1071 -3.829 0
M  V30 37 H -3.5309 1.4566 2.3415 0
M  V30 38 H -1.1489 0.9264 6.317 0
M  V30 39 H -0.643 2.569 5.8469 0
M  V30 END ATOM
M  V30 BEGIN BOND
M  V30 1 2 1 2
M  V30 2 2 1 3
M  V30 3 1 1 4
M  V30 4 1 1 5
M  V30 5 1 4 6
M  V30 6 1 4 7
M  V30 7 1 6 8
M  V30 8 1 6 9
M  V30 9 1 7 10
M  V30 10 2 8 11
M  V30 11 1 8 12
M  V30 12 1 9 13
M  V30 13 2 10 14
M  V30 14 1 10 15
M  V30 15 1 13 16
M  V30 16 1 14 17
M  V30 17 2 15 18
M  V30 18 1 17 19
M  V30 19 2 17 20
M  V30 20 1 19 21
M  V30 21 1 20 22
M  V30 22 1 6 7
M  V30 23 1 18 20
M  V30 24 1 21 22
M  V30 25 1 4 23
M  V30 26 1 5 24
M  V30 27 1 5 25
M  V30 28 1 5 26
M  V30 29 1 7 27
M  V30 30 1 9 28
M  V30 31 1 9 29
M  V30 32 1 12 30
M  V30 33 1 12 31
M  V30 34 1 14 32
M  V30 35 1 15 33
M  V30 36 1 16 34
M  V30 37 1 16 35
M  V30 38 1 16 36
M  V30 39 1 18 37
M  V30 40 1 21 38
M  V30 41 1 21 39
M  V30 END BOND
M  V30 BEGIN COLLECTION
M  V30 MDLV30/STEABS ATOMS=(3 4 6 7)
M  V30 END COLLECTION
M  V30 END CTAB
M  END
>  <Column 1>
2688

>  <level_0>
3921

>  <index>
3921

>  <Unnamed: 0>
3921

>  <NO.>
3933

>  <Name>
terbinafine

>  <IUPAC_name>
(1r-2r-3s)-2-(1-3-benzodioxol-5-yl)-1-(methoxymethyl)-3-methylsulfonylcyclopropane-1-carbothioamide

>  <SMILES>
COC[C@@]1(C(N)=S)[C@@H](S(C)(=O)=O)[C@@H]1c1ccc2c(c1)OCO2

>  <CID>
100005402

>  <logBB>


>  <BBB+/BBB->
BBB+

>  <Inchi>
InChI=1S/C14H17NO5S2/c1-18-6-14(13(15)21)11(12(14)22(2-16)17)8-3-4-9-10(5-8)20-7-19-9/h3-5-11-12H-6-7H2-1-2H3-(H2-15-21)/t11--12--14-/m0/s1

>  <threshold>
-1

>  <reference>
R16|R10|

>  <group>
B

>  <Class>
1

>  <ABC>
17.3

>  <ABCGG>
15.91

>  <nAcid>
0

>  <nBase>
0

>  <nAromAtom>
6

>  <nAromBond>
6

>  <nAtom>
39

>  <nHeavyAtom>
22

>  <nSpiro>
0

>  <nBridgehead>
0

>  <nHetero>
8

>  <nN>
1

>  <nO>
5

>  <nF>
0

>  <BalabanJ>
1.81

>  <BertzCT>
732.75

>  <nBonds>
41

>  <nBondsO>
24

>  <nBondsS>
32

>  <nBondsD>
3

>  <nBondsT>
0

>  <nBondsA>
6

>  <nBondsM>
9

>  <nBondsKS>
35

>  <nBondsKD>
6

>  <RNCG>
0.19

>  <RPCG>
0.1

>  <FCSP3>
0.5

>  <SZ>
30

>  <Sm>
28.59

>  <Sv>
25.31

>  <Sse>
40.02

>  <Sp>
27.32

>  <Si>
43.71

>  <MZ>
0.77

>  <Mm>
0.73

>  <Mv>
0.65

>  <Mse>
1.03

>  <Mp>
0.7

>  <Mi>
1.12

>  <NsCH3>
2

>  <NdCH2>
0

>  <NssCH2>
2

>  <NtCH>
0

>  <NdsCH>
0

>  <NaaCH>
3

>  <NsssCH>
2

>  <NddC>
0

>  <NtsC>
0

>  <NdssC>
1

>  <NaasC>
3

>  <NaaaC>
0

>  <NssssC>
1

>  <NsNH3>
0

>  <NsNH2>
1

>  <NssNH2>
0

>  <NdNH>
0

>  <NssNH>
0

>  <NaaNH>
0

>  <NtN>
0

>  <NsssNH>
0

>  <NdsN>
0

>  <NaaN>
0

>  <NsssN>
0

>  <NddsN>
0

>  <NaasN>
0

>  <NssssN>
0

>  <NsOH>
0

>  <NdO>
2

>  <NssO>
3

>  <NaaO>
0

>  <NsF>
0

>  <NsSiH3>
0

>  <NssSiH2>
0

>  <NsssSiH>
0

>  <NssssSi>
0

>  <NsPH2>
0

>  <NssPH>
0

>  <NsssP>
0

>  <NdsssP>
0

>  <NsssssP>
0

>  <NsSH>
0

>  <NdS>
1

>  <NssS>
0

>  <NaaS>
0

>  <NdssS>
0

>  <NddssS>
1

>  <NsCl>
0

>  <NsBr>
0

>  <NsI>
0

>  <fragCpx>
114.08

>  <fMF>
0.31

>  <nHBAcc>
6

>  <nHBDon>
1

>  <Kier1>
16.84

>  <Kier2>
5.82

>  <Lipinski>
1

>  <GhoseFilter>
1

>  <FilterItLogS>
-2.66

>  <VMcGowan>
230.37

>  <LabuteASA>
134

>  <PEOE_VSA1>
19.94

>  <PEOE_VSA2>
0

>  <PEOE_VSA3>
8.42

>  <PEOE_VSA4>
0

>  <PEOE_VSA5>
0

>  <PEOE_VSA6>
18.28

>  <PEOE_VSA7>
17.7

>  <PEOE_VSA8>
19.28

>  <PEOE_VSA9>
22.26

>  <PEOE_VSA10>
0

>  <PEOE_VSA11>
21.34

>  <PEOE_VSA12>
6.79

>  <PEOE_VSA13>
0

>  <SMR_VSA1>
22.63

>  <SMR_VSA2>
0

>  <SMR_VSA3>
0

>  <SMR_VSA4>
11.15

>  <SMR_VSA5>
11.17

>  <SMR_VSA6>
26.77

>  <SMR_VSA7>
23.76

>  <SMR_VSA8>
0

>  <SMR_VSA9>
11.5

>  <SlogP_VSA1>
15.21

>  <SlogP_VSA2>
45.42

>  <SlogP_VSA3>
14.57

>  <SlogP_VSA4>
5.41

>  <SlogP_VSA5>
11.48

>  <SlogP_VSA6>
18.2

>  <SlogP_VSA7>
0

>  <SlogP_VSA8>
0

>  <SlogP_VSA9>
0

>  <SlogP_VSA10>
0

>  <SlogP_VSA11>
11.5

>  <EState_VSA1>
20.5

>  <EState_VSA2>
24.31

>  <EState_VSA3>
11.5

>  <EState_VSA4>
5.56

>  <EState_VSA5>
13.37

>  <EState_VSA6>
12.13

>  <EState_VSA7>
6.07

>  <EState_VSA8>
0

>  <EState_VSA9>
32.16

>  <EState_VSA10>
8.42

>  <VSA_EState1>
40.21

>  <VSA_EState2>
0.16

>  <VSA_EState3>
-0.68

>  <VSA_EState4>
5.82

>  <VSA_EState5>
0.91

>  <VSA_EState6>
5.39

>  <VSA_EState7>
1.2

>  <VSA_EState8>
0.33

>  <VSA_EState9>
-1.83

>  <apol>
45.63

>  <bpol>
29.58

>  <nRing>
3

>  <nHRing>
1

>  <naRing>
1

>  <naHRing>
0

>  <nARing 2>
2

>  <nAHRing 2>
1

>  <nFRing>
1

>  <nFHRing>
1

>  <nFaRing>
0

>  <nFaHRing>
0

>  <nFARing 2>
1

>  <nFAHRing 2>
1

>  <nRot>
5

>  <SLogP>
0.84

>  <SMR>
85.03

>  <TopoPSA(NO)>
87.85

>  <TopoPSA>
128.32

>  <JGI1>
0.27

>  <JGI2>
0.12

>  <JGI3>
0.11

>  <JGI4>
0.06

>  <JGI5>
0.02

>  <Diameter>
9

>  <Radius>
5

>  <TMWC10>
124.14

>  <TSRW10>
79.06

>  <MW>
343.05

>  <AMW>
8.8

>  <WPath>
963

>  <WPol>
36

>  <Zagreb1>
124

>  <Zagreb2>
155

>  <mZagreb2>
4.71

>  <yes>


>  <nAR-cont>
1

>  <nHA-cont>
0.983774276

>  <MWHBN>
0.377936928

>  <MWHBN-cont>
0.562894016

>  <TPSA-cont>
0

>  <pka_cont>
0.97

>  <yes.1>


>  <BBB_SCORE>
3.3131153

>  <MMFF94 Energy>
-1.5871

$$$$
Compound 2189
Actelion Java MolfileCreator 2.0

  0  0  0  0  0  0              0 V3000
M  V30 BEGIN CTAB
M  V30 COUNTS 48 50 0 0 0
M  V30 BEGIN ATOM
M  V30 1 Cl -4.8051 -5.1315 1.9525 0
M  V30 2 C -3.3263 -4.4778 1.3657 0
M  V30 3 C -2.5601 -3.6518 2.1899 0
M  V30 4 C -2.902 -4.7803 0.0706 0
M  V30 5 C -1.3604 -3.1183 1.7158 0
M  V30 6 C -1.7031 -4.2502 -0.4107 0
M  V30 7 C -0.9445 -3.4139 0.4131 0
M  V30 8 S 0.584 -2.7272 -0.1798 0
M  V30 9 O 1.5138 -2.7513 0.9307 0
M  V30 10 O 0.8948 -3.3608 -1.445 0
M  V30 11 C 0.1331 -1.0212 -0.5566 0 CFG=2
M  V30 12 C 1.221 -0.1332 -1.1454 0 CFG=1
M  V30 13 C 0.7704 0.029 0.3134 0 CFG=1
M  V30 14 C 2.6592 -0.5844 -1.331 0
M  V30 15 C 0.7587 0.8339 -2.2157 0
M  V30 16 C 0.0023 1.2475 0.7713 0
M  V30 17 O 3.5087 0.5346 -1.0527 0
M  V30 18 N 0.5594 0.1042 -3.4631 0
M  V30 19 C 0.5924 2.5214 0.7179 0
M  V30 20 C -1.3359 1.1791 1.1847 0
M  V30 21 C 4.876 0.2081 -1.2641 0
M  V30 22 C -0.1097 3.6769 1.0831 0
M  V30 23 C -2.0415 2.3302 1.5504 0
M  V30 24 C -1.4334 3.5844 1.5036 0
M  V30 25 O -2.2339 4.6246 1.8854 0
M  V30 26 C -1.6469 5.92 1.8835 0
M  V30 27 H -2.8886 -3.4281 3.2022 0
M  V30 28 H -3.4975 -5.4319 -0.5644 0
M  V30 29 H -0.7562 -2.4879 2.3658 0
M  V30 30 H -1.3716 -4.4975 -1.4172 0
M  V30 31 H -0.8764 -0.8768 -0.9153 0
M  V30 32 H 1.4901 -0.3079 1.0598 0
M  V30 33 H 2.9387 -1.3913 -0.65 0
M  V30 34 H 2.8248 -0.9331 -2.3567 0
M  V30 35 H 1.5025 1.6236 -2.3661 0
M  V30 36 H -0.1845 1.3239 -1.9524 0
M  V30 37 H -0.2357 -0.5247 -3.3782 0
M  V30 38 H 0.3164 0.768 -4.1974 0
M  V30 39 H 1.6268 2.6142 0.3863 0
M  V30 40 H -1.845 0.2202 1.2357 0
M  V30 41 H 5.4791 1.0912 -1.0367 0
M  V30 42 H 5.0464 -0.0713 -2.3081 0
M  V30 43 H 5.1836 -0.6051 -0.5998 0
M  V30 44 H 0.4096 4.6273 1.0235 0
M  V30 45 H -3.0761 2.2473 1.8751 0
M  V30 46 H -0.8033 5.973 2.5798 0
M  V30 47 H -2.4053 6.6311 2.2251 0
M  V30 48 H -1.3456 6.2147 0.873 0
M  V30 END ATOM
M  V30 BEGIN BOND
M  V30 1 1 1 2
M  V30 2 2 2 3
M  V30 3 1 2 4
M  V30 4 1 3 5
M  V30 5 2 4 6
M  V30 6 2 5 7
M  V30 7 1 7 8
M  V30 8 2 8 9
M  V30 9 2 8 10
M  V30 10 1 8 11
M  V30 11 1 11 12
M  V30 12 1 11 13
M  V30 13 1 12 14
M  V30 14 1 12 15
M  V30 15 1 13 16
M  V30 16 1 14 17
M  V30 17 1 15 18
M  V30 18 2 16 19
M  V30 19 1 16 20
M  V30 20 1 17 21
M  V30 21 1 19 22
M  V30 22 2 20 23
M  V30 23 2 22 24
M  V30 24 1 24 25
M  V30 25 1 25 26
M  V30 26 1 6 7
M  V30 27 1 12 13
M  V30 28 1 23 24
M  V30 29 1 3 27
M  V30 30 1 4 28
M  V30 31 1 5 29
M  V30 32 1 6 30
M  V30 33 1 11 31
M  V30 34 1 13 32
M  V30 35 1 14 33
M  V30 36 1 14 34
M  V30 37 1 15 35
M  V30 38 1 15 36
M  V30 39 1 18 37
M  V30 40 1 18 38
M  V30 41 1 19 39
M  V30 42 1 20 40
M  V30 43 1 21 41
M  V30 44 1 21 42
M  V30 45 1 21 43
M  V30 46 1 22 44
M  V30 47 1 23 45
M  V30 48 1 26 46
M  V30 49 1 26 47
M  V30 50 1 26 48
M  V30 END BOND
M  V30 BEGIN COLLECTION
M  V30 MDLV30/STEABS ATOMS=(3 11 12 13)
M  V30 END COLLECTION
M  V30 END CTAB
M  END
>  <Column 1>
2689

>  <level_0>
3922

>  <index>
3922

>  <Unnamed: 0>
3922

>  <NO.>
3934

>  <Name>
physostigmine

>  <IUPAC_name>
[(1r-2s-3r)-2-(4-chlorophenyl)sulfonyl-1-(methoxymethyl)-3-(4-methoxyphenyl)cyclopropyl]methanamine

>  <SMILES>
COC[C@@]1(CN)[C@@H](S(=O)(=O)c2ccc(Cl)cc2)[C@@H]1c1ccc(OC)cc1

>  <CID>
100004811

>  <logBB>


>  <BBB+/BBB->
BBB+

>  <Inchi>
InChI=1S/C19H22ClNO4S/c1-24-12-19(11-21)17(13-3-7-15(25-2)8-4-13)18(19)26(22-23)16-9-5-14(20)6-10-16/h3-10-17-18H-11-12-21H2-1-2H3/t17--18--19+/m0/s1

>  <threshold>
-1

>  <reference>
R16|R16|R10|R10|

>  <group>
B

>  <Class>
-1

>  <ABC>
19.9

>  <ABCGG>
17.21

>  <nAcid>
0

>  <nBase>
1

>  <nAromAtom>
12

>  <nAromBond>
12

>  <nAtom>
48

>  <nHeavyAtom>
26

>  <nSpiro>
0

>  <nBridgehead>
0

>  <nHetero>
7

>  <nN>
1

>  <nO>
4

>  <nF>
0

>  <BalabanJ>
1.76

>  <BertzCT>
867.42

>  <nBonds>
50

>  <nBondsO>
28

>  <nBondsS>
36

>  <nBondsD>
2

>  <nBondsT>
0

>  <nBondsA>
12

>  <nBondsM>
14

>  <nBondsKS>
42

>  <nBondsKD>
8

>  <RNCG>
0.24

>  <RPCG>
0.09

>  <FCSP3>
0.37

>  <SZ>
34.67

>  <Sm>
32.96

>  <Sv>
30.86

>  <Sse>
48.59

>  <Sp>
33.41

>  <Si>
53.77

>  <MZ>
0.72

>  <Mm>
0.69

>  <Mv>
0.64

>  <Mse>
1.01

>  <Mp>
0.7

>  <Mi>
1.12

>  <NsCH3>
2

>  <NdCH2>
0

>  <NssCH2>
2

>  <NtCH>
0

>  <NdsCH>
0

>  <NaaCH>
8

>  <NsssCH>
2

>  <NddC>
0

>  <NtsC>
0

>  <NdssC>
0

>  <NaasC>
4

>  <NaaaC>
0

>  <NssssC>
1

>  <NsNH3>
0

>  <NsNH2>
1

>  <NssNH2>
0

>  <NdNH>
0

>  <NssNH>
0

>  <NaaNH>
0

>  <NtN>
0

>  <NsssNH>
0

>  <NdsN>
0

>  <NaaN>
0

>  <NsssN>
0

>  <NddsN>
0

>  <NaasN>
0

>  <NssssN>
0

>  <NsOH>
0

>  <NdO>
2

>  <NssO>
2

>  <NaaO>
0

>  <NsF>
0

>  <NsSiH3>
0

>  <NssSiH2>
0

>  <NsssSiH>
0

>  <NssssSi>
0

>  <NsPH2>
0

>  <NssPH>
0

>  <NsssP>
0

>  <NdsssP>
0

>  <NsssssP>
0

>  <NsSH>
0

>  <NdS>
0

>  <NssS>
0

>  <NaaS>
0

>  <NdssS>
0

>  <NddssS>
1

>  <NsCl>
1

>  <NsBr>
0

>  <NsI>
0

>  <fragCpx>
134.07

>  <fMF>
0.33

>  <nHBAcc>
5

>  <nHBDon>
1

>  <Kier1>
20.73

>  <Kier2>
8.16

>  <Lipinski>
1

>  <GhoseFilter>
1

>  <FilterItLogS>
-5.23

>  <VMcGowan>
282.24

>  <LabuteASA>
158.53

>  <PEOE_VSA1>
15.21

>  <PEOE_VSA2>
0

>  <PEOE_VSA3>
8.42

>  <PEOE_VSA4>
0

>  <PEOE_VSA5>
0

>  <PEOE_VSA6>
23.73

>  <PEOE_VSA7>
41.96

>  <PEOE_VSA8>
30.01

>  <PEOE_VSA9>
23.86

>  <PEOE_VSA10>
5.75

>  <PEOE_VSA11>
9.84

>  <PEOE_VSA12>
0

>  <PEOE_VSA13>
0

>  <SMR_VSA1>
17.89

>  <SMR_VSA2>
0

>  <SMR_VSA3>
0

>  <SMR_VSA4>
11.15

>  <SMR_VSA5>
16.06

>  <SMR_VSA6>
27.37

>  <SMR_VSA7>
59.12

>  <SMR_VSA8>
0

>  <SMR_VSA9>
5.75

>  <SlogP_VSA1>
10.47

>  <SlogP_VSA2>
41.04

>  <SlogP_VSA3>
14.57

>  <SlogP_VSA4>
5.41

>  <SlogP_VSA5>
11.48

>  <SlogP_VSA6>
53.43

>  <SlogP_VSA7>
5.02

>  <SlogP_VSA8>
0

>  <SlogP_VSA9>
0

>  <SlogP_VSA10>
0

>  <SlogP_VSA11>
5.75

>  <EState_VSA1>
20.5

>  <EState_VSA2>
23.97

>  <EState_VSA3>
5.02

>  <EState_VSA4>
11.31

>  <EState_VSA5>
12.13

>  <EState_VSA6>
26.35

>  <EState_VSA7>
24.27

>  <EState_VSA8>
0

>  <EState_VSA9>
26.81

>  <EState_VSA10>
8.42

>  <VSA_EState1>
37.1

>  <VSA_EState2>
0.25

>  <VSA_EState3>
-0.15

>  <VSA_EState4>
6.3

>  <VSA_EState5>
0.48

>  <VSA_EState6>
13.67

>  <VSA_EState7>
0

>  <VSA_EState8>
0.49

>  <VSA_EState9>
-0.43

>  <apol>
55.79

>  <bpol>
32.14

>  <nRing>
3

>  <nHRing>
0

>  <naRing>
2

>  <naHRing>
0

>  <nARing 2>
1

>  <nAHRing 2>
0

>  <nFRing>
0

>  <nFHRing>
0

>  <nFaRing>
0

>  <nFaHRing>
0

>  <nFARing 2>
0

>  <nFAHRing 2>
0

>  <nRot>
7

>  <SLogP>
2.88

>  <SMR>
101.52

>  <TopoPSA(NO)>
78.62

>  <TopoPSA>
87

>  <JGI1>
0.25

>  <JGI2>
0.13

>  <JGI3>
0.09

>  <JGI4>
0.06

>  <JGI5>
0.03

>  <Diameter>
13

>  <Radius>
7

>  <TMWC10>
132.71

>  <TSRW10>
83.12

>  <MW>
395.1

>  <AMW>
8.23

>  <WPath>
1598

>  <WPol>
44

>  <Zagreb1>
140

>  <Zagreb2>
173

>  <mZagreb2>
5.89

>  <yes>


>  <nAR-cont>
0.816016

>  <nHA-cont>
0.892715677

>  <MWHBN>
0.301854556

>  <MWHBN-cont>
0.835162632

>  <TPSA-cont>
0.392685976

>  <pka_cont>
0.97

>  <yes.1>


>  <BBB_SCORE>
4.231847578

>  <MMFF94 Energy>
56.634

$$$$
Compound 2190
Actelion Java MolfileCreator 2.0

  0  0  0  0  0  0              0 V3000
M  V30 BEGIN CTAB
M  V30 COUNTS 41 42 0 0 0
M  V30 BEGIN ATOM
M  V30 1 S -2.3268 -1.203 -0.4008 0
M  V30 2 O -2.5115 0.0062 0.3735 0
M  V30 3 O -2.6821 -1.2508 -1.8071 0
M  V30 4 C -0.6399 -1.8085 -0.3017 0 CFG=2
M  V30 5 C -3.2594 -2.489 0.3891 0
M  V30 6 C 0.2887 -1.3629 0.8175 0 CFG=2
M  V30 7 C 0.5129 -0.9086 -0.639 0 CFG=2
M  V30 8 C 1.2649 -2.4033 1.3419 0
M  V30 9 C -0.0961 -0.3618 1.8847 0
M  V30 10 C 0.497 0.5478 -1.044 0
M  V30 11 O 2.5618 -1.8096 1.4102 0
M  V30 12 N -1.1457 -0.9323 2.7311 0
M  V30 13 C -0.3532 1.0567 -2.0357 0
M  V30 14 C 1.3287 1.4771 -0.3943 0
M  V30 15 C 3.5197 -2.7065 1.9553 0
M  V30 16 C -0.3837 2.421 -2.3613 0
M  V30 17 C 1.3069 2.8384 -0.7153 0
M  V30 18 C 0.4454 3.3199 -1.6977 0
M  V30 19 O 0.5155 4.6676 -1.9161 0
M  V30 20 C -0.3916 5.2079 -2.8685 0
M  V30 21 H -0.5493 -2.8287 -0.6556 0
M  V30 22 H -2.9413 -2.5902 1.4263 0
M  V30 23 H -3.0981 -3.4236 -0.1516 0
M  V30 24 H -4.3161 -2.2157 0.3497 0
M  V30 25 H 1.3213 -1.4308 -1.1579 0
M  V30 26 H 1.3102 -3.2731 0.6755 0
M  V30 27 H 0.9592 -2.7543 2.3347 0
M  V30 28 H 0.7772 -0.1389 2.5094 0
M  V30 29 H -0.432 0.6019 1.4953 0
M  V30 30 H -2.0285 -0.569 2.3496 0
M  V30 31 H -1.0891 -0.4707 3.6411 0
M  V30 32 H -1.0026 0.3867 -2.5938 0
M  V30 33 H 2.0183 1.1327 0.375 0
M  V30 34 H 4.4898 -2.2028 1.9762 0
M  V30 35 H 3.604 -3.6022 1.3326 0
M  V30 36 H 3.2472 -2.9823 2.9786 0
M  V30 37 H -1.0696 2.7385 -3.1394 0
M  V30 38 H 1.9662 3.5252 -0.1911 0
M  V30 39 H -0.1964 4.8086 -3.8692 0
M  V30 40 H -0.2319 6.2899 -2.9056 0
M  V30 41 H -1.4307 5.0352 -2.5686 0
M  V30 END ATOM
M  V30 BEGIN BOND
M  V30 1 2 1 2
M  V30 2 2 1 3
M  V30 3 1 1 4
M  V30 4 1 1 5
M  V30 5 1 4 6
M  V30 6 1 4 7
M  V30 7 1 6 8
M  V30 8 1 6 9
M  V30 9 1 7 10
M  V30 10 1 8 11
M  V30 11 1 9 12
M  V30 12 2 10 13
M  V30 13 1 10 14
M  V30 14 1 11 15
M  V30 15 1 13 16
M  V30 16 2 14 17
M  V30 17 2 16 18
M  V30 18 1 18 19
M  V30 19 1 19 20
M  V30 20 1 6 7
M  V30 21 1 17 18
M  V30 22 1 4 21
M  V30 23 1 5 22
M  V30 24 1 5 23
M  V30 25 1 5 24
M  V30 26 1 7 25
M  V30 27 1 8 26
M  V30 28 1 8 27
M  V30 29 1 9 28
M  V30 30 1 9 29
M  V30 31 1 12 30
M  V30 32 1 12 31
M  V30 33 1 13 32
M  V30 34 1 14 33
M  V30 35 1 15 34
M  V30 36 1 15 35
M  V30 37 1 15 36
M  V30 38 1 16 37
M  V30 39 1 17 38
M  V30 40 1 20 39
M  V30 41 1 20 40
M  V30 42 1 20 41
M  V30 END BOND
M  V30 BEGIN COLLECTION
M  V30 MDLV30/STEABS ATOMS=(3 4 6 7)
M  V30 END COLLECTION
M  V30 END CTAB
M  END
>  <Column 1>
2690

>  <level_0>
3923

>  <index>
3923

>  <Unnamed: 0>
3923

>  <NO.>
3935

>  <Name>
dexamethasone

>  <IUPAC_name>
[(1s-2s-3s)-1-(methoxymethyl)-2-(4-methoxyphenyl)-3-methylsulfonylcyclopropyl]methanamine

>  <SMILES>
COC[C@@]1(CN)[C@H](c2ccc(OC)cc2)[C@@H]1S(C)(=O)=O

>  <CID>
100003003

>  <logBB>


>  <BBB+/BBB->
BBB-

>  <Inchi>
InChI=1S/C14H21NO4S/c1-18-9-14(8-15)12(13(14)20(3-16)17)10-4-6-11(19-2)7-5-10/h4-7-12-13H-8-9-15H2-1-3H3/t12--13+-14+/m1/s1

>  <threshold>
-1

>  <reference>
R16|R10|R10|

>  <group>
B

>  <Class>
1

>  <ABC>
15.06

>  <ABCGG>
14.01

>  <nAcid>
0

>  <nBase>
1

>  <nAromAtom>
6

>  <nAromBond>
6

>  <nAtom>
41

>  <nHeavyAtom>
20

>  <nSpiro>
0

>  <nBridgehead>
0

>  <nHetero>
6

>  <nN>
1

>  <nO>
4

>  <nF>
0

>  <BalabanJ>
2.09

>  <BertzCT>
569.34

>  <nBonds>
42

>  <nBondsO>
21

>  <nBondsS>
34

>  <nBondsD>
2

>  <nBondsT>
0

>  <nBondsA>
6

>  <nBondsM>
8

>  <nBondsKS>
37

>  <nBondsKD>
5

>  <RNCG>
0.27

>  <RPCG>
0.08

>  <FCSP3>
0.57

>  <SZ>
26.67

>  <Sm>
24.93

>  <Sv>
24.49

>  <Sse>
41.38

>  <Sp>
26.7

>  <Si>
46.41

>  <MZ>
0.65

>  <Mm>
0.61

>  <Mv>
0.6

>  <Mse>
1.01

>  <Mp>
0.65

>  <Mi>
1.13

>  <NsCH3>
3

>  <NdCH2>
0

>  <NssCH2>
2

>  <NtCH>
0

>  <NdsCH>
0

>  <NaaCH>
4

>  <NsssCH>
2

>  <NddC>
0

>  <NtsC>
0

>  <NdssC>
0

>  <NaasC>
2

>  <NaaaC>
0

>  <NssssC>
1

>  <NsNH3>
0

>  <NsNH2>
1

>  <NssNH2>
0

>  <NdNH>
0

>  <NssNH>
0

>  <NaaNH>
0

>  <NtN>
0

>  <NsssNH>
0

>  <NdsN>
0

>  <NaaN>
0

>  <NsssN>
0

>  <NddsN>
0

>  <NaasN>
0

>  <NssssN>
0

>  <NsOH>
0

>  <NdO>
2

>  <NssO>
2

>  <NaaO>
0

>  <NsF>
0

>  <NsSiH3>
0

>  <NssSiH2>
0

>  <NsssSiH>
0

>  <NssssSi>
0

>  <NsPH2>
0

>  <NssPH>
0

>  <NsssP>
0

>  <NdsssP>
0

>  <NsssssP>
0

>  <NsSH>
0

>  <NdS>
0

>  <NssS>
0

>  <NaaS>
0

>  <NdssS>
0

>  <NddssS>
1

>  <NsCl>
0

>  <NsBr>
0

>  <NsI>
0

>  <fragCpx>
61.06

>  <fMF>
0.22

>  <nHBAcc>
5

>  <nHBDon>
1

>  <Kier1>
16.37

>  <Kier2>
6.01

>  <Lipinski>
1

>  <GhoseFilter>
1

>  <FilterItLogS>
-3.16

>  <VMcGowan>
223.31

>  <LabuteASA>
119.54

>  <PEOE_VSA1>
15.21

>  <PEOE_VSA2>
0

>  <PEOE_VSA3>
8.42

>  <PEOE_VSA4>
0

>  <PEOE_VSA5>
0

>  <PEOE_VSA6>
12.13

>  <PEOE_VSA7>
17.7

>  <PEOE_VSA8>
31.24

>  <PEOE_VSA9>
18.97

>  <PEOE_VSA10>
5.75

>  <PEOE_VSA11>
9.84

>  <PEOE_VSA12>
0

>  <PEOE_VSA13>
0

>  <SMR_VSA1>
17.89

>  <SMR_VSA2>
0

>  <SMR_VSA3>
0

>  <SMR_VSA4>
11.15

>  <SMR_VSA5>
11.17

>  <SMR_VSA6>
33.63

>  <SMR_VSA7>
29.83

>  <SMR_VSA8>
0

>  <SMR_VSA9>
5.75

>  <SlogP_VSA1>
10.47

>  <SlogP_VSA2>
47.29

>  <SlogP_VSA3>
14.57

>  <SlogP_VSA4>
5.41

>  <SlogP_VSA5>
11.48

>  <SlogP_VSA6>
24.27

>  <SlogP_VSA7>
0

>  <SlogP_VSA8>
0

>  <SlogP_VSA9>
0

>  <SlogP_VSA10>
0

>  <SlogP_VSA11>
5.75

>  <EState_VSA1>
20.5

>  <EState_VSA2>
12.46

>  <EState_VSA3>
6.61

>  <EState_VSA4>
11.31

>  <EState_VSA5>
6.26

>  <EState_VSA6>
14.22

>  <EState_VSA7>
24.27

>  <EState_VSA8>
0

>  <EState_VSA9>
15.21

>  <EState_VSA10>
8.42

>  <VSA_EState1>
34.36

>  <VSA_EState2>
0

>  <VSA_EState3>
-0.48

>  <VSA_EState4>
6.3

>  <VSA_EState5>
0.63

>  <VSA_EState6>
7.46

>  <VSA_EState7>
1.27

>  <VSA_EState8>
0.63

>  <VSA_EState9>
-0.01

>  <apol>
44.59

>  <bpol>
30.63

>  <nRing>
2

>  <nHRing>
0

>  <naRing>
1

>  <naHRing>
0

>  <nARing 2>
1

>  <nAHRing 2>
0

>  <nFRing>
0

>  <nFHRing>
0

>  <nFaRing>
0

>  <nFaHRing>
0

>  <nFARing 2>
0

>  <nFAHRing 2>
0

>  <nRot>
6

>  <SLogP>
0.8

>  <SMR>
77.73

>  <TopoPSA(NO)>
78.62

>  <TopoPSA>
87

>  <JGI1>
0.29

>  <JGI2>
0.13

>  <JGI3>
0.11

>  <JGI4>
0.06

>  <JGI5>
0.02

>  <Diameter>
10

>  <Radius>
5

>  <TMWC10>
117.34

>  <TSRW10>
75.78

>  <MW>
299.12

>  <AMW>
7.3

>  <WPath>
787

>  <WPol>
31

>  <Zagreb1>
106

>  <Zagreb2>
130

>  <mZagreb2>
4.56

>  <yes>


>  <nAR-cont>
0.816016

>  <nHA-cont>
0.999629945

>  <MWHBN>
0.34691935

>  <MWHBN-cont>
0.681724186

>  <TPSA-cont>
0.392685976

>  <pka_cont>
0.97

>  <yes.1>


>  <BBB_SCORE>
4.108604176

>  <MMFF94 Energy>
25.784

$$$$
Compound 2191
Actelion Java MolfileCreator 2.0

  0  0  0  0  0  0              0 V3000
M  V30 BEGIN CTAB
M  V30 COUNTS 45 47 0 0 0
M  V30 BEGIN ATOM
M  V30 1 Cl -3.1854 -5.3132 3.1036 0
M  V30 2 C -2.6325 -4.089 2.0281 0
M  V30 3 C -2.0747 -4.4487 0.8001 0
M  V30 4 C -2.7506 -2.7461 2.3893 0
M  V30 5 C -1.6221 -3.4585 -0.0742 0
M  V30 6 C -2.3007 -1.7514 1.5191 0
M  V30 7 C -1.7243 -2.1137 0.2979 0
M  V30 8 S -1.1584 -0.8513 -0.8252 0
M  V30 9 O -1.4503 -1.3396 -2.1634 0
M  V30 10 O -1.7083 0.4114 -0.3792 0
M  V30 11 C 0.6305 -0.9293 -0.6873 0 CFG=2
M  V30 12 C 1.2934 -0.3875 0.5533 0 CFG=1
M  V30 13 C 1.4612 0.3188 -0.7908 0 CFG=2
M  V30 14 N 0.4852 0.2015 1.6455 0
M  V30 15 C 2.4967 -1.1841 1.0585 0
M  V30 16 C 0.9492 1.6988 -1.1262 0
M  V30 17 O 2.011 -2.2092 1.9283 0
M  V30 18 C 0.2143 1.9378 -2.3011 0
M  V30 19 C 1.1389 2.7932 -0.2692 0
M  V30 20 C 3.0743 -2.9752 2.4783 0
M  V30 21 C -0.297 3.2052 -2.6132 0
M  V30 22 C 0.6364 4.0625 -0.5778 0
M  V30 23 C -0.0881 4.2752 -1.7486 0
M  V30 24 O -0.5254 5.5579 -1.9307 0
M  V30 25 C -1.3815 5.7869 -3.0429 0
M  V30 26 H -1.9966 -5.4955 0.5178 0
M  V30 27 H -3.1942 -2.4676 3.3418 0
M  V30 28 H -1.2033 -3.7401 -1.0374 0
M  V30 29 H -2.3978 -0.7032 1.7971 0
M  V30 30 H 1.0481 -1.825 -1.1295 0
M  V30 31 H 2.4275 0.1526 -1.2721 0
M  V30 32 H 0.403 -0.4819 2.4041 0
M  V30 33 H 0.9462 1.0111 2.0569 0
M  V30 34 H 3.0544 -1.6404 0.2319 0
M  V30 35 H 3.1684 -0.5156 1.6105 0
M  V30 36 H 0.0238 1.1204 -2.9946 0
M  V30 37 H 1.6976 2.6694 0.6536 0
M  V30 38 H 2.6455 -3.7406 3.1306 0
M  V30 39 H 3.7363 -2.339 3.0737 0
M  V30 40 H 3.6405 -3.4701 1.6835 0
M  V30 41 H -0.8583 3.3124 -3.5348 0
M  V30 42 H 0.804 4.8888 0.1081 0
M  V30 43 H -0.8527 5.6189 -3.9869 0
M  V30 44 H -1.6894 6.8367 -3.0169 0
M  V30 45 H -2.2865 5.1732 -2.981 0
M  V30 END ATOM
M  V30 BEGIN BOND
M  V30 1 1 1 2
M  V30 2 2 2 3
M  V30 3 1 2 4
M  V30 4 1 3 5
M  V30 5 2 4 6
M  V30 6 2 5 7
M  V30 7 1 7 8
M  V30 8 2 8 9
M  V30 9 2 8 10
M  V30 10 1 8 11
M  V30 11 1 11 12
M  V30 12 1 11 13
M  V30 13 1 12 14
M  V30 14 1 12 15
M  V30 15 1 13 16
M  V30 16 1 15 17
M  V30 17 2 16 18
M  V30 18 1 16 19
M  V30 19 1 17 20
M  V30 20 1 18 21
M  V30 21 2 19 22
M  V30 22 2 21 23
M  V30 23 1 23 24
M  V30 24 1 24 25
M  V30 25 1 6 7
M  V30 26 1 12 13
M  V30 27 1 22 23
M  V30 28 1 3 26
M  V30 29 1 4 27
M  V30 30 1 5 28
M  V30 31 1 6 29
M  V30 32 1 11 30
M  V30 33 1 13 31
M  V30 34 1 14 32
M  V30 35 1 14 33
M  V30 36 1 15 34
M  V30 37 1 15 35
M  V30 38 1 18 36
M  V30 39 1 19 37
M  V30 40 1 20 38
M  V30 41 1 20 39
M  V30 42 1 20 40
M  V30 43 1 21 41
M  V30 44 1 22 42
M  V30 45 1 25 43
M  V30 46 1 25 44
M  V30 47 1 25 45
M  V30 END BOND
M  V30 BEGIN COLLECTION
M  V30 MDLV30/STEABS ATOMS=(3 11 12 13)
M  V30 END COLLECTION
M  V30 END CTAB
M  END
>  <Column 1>
2691

>  <level_0>
3924

>  <index>
3924

>  <Unnamed: 0>
3924

>  <NO.>
3936

>  <Name>
propofol

>  <IUPAC_name>
(1s-2s-3s)-2-(4-chlorophenyl)sulfonyl-1-(methoxymethyl)-3-(4-methoxyphenyl)cyclopropan-1-amine

>  <SMILES>
COC[C@@]1(N)[C@H](c2ccc(OC)cc2)[C@@H]1S(=O)(=O)c1ccc(Cl)cc1

>  <CID>
100004943

>  <logBB>


>  <BBB+/BBB->
BBB+

>  <Inchi>
InChI=1S/C18H20ClNO4S/c1-23-11-18(20)16(12-3-7-14(24-2)8-4-12)17(18)25(21-22)15-9-5-13(19)6-10-15/h3-10-16-17H-11-20H2-1-2H3/t16--17+-18-/m1/s1

>  <threshold>
-1

>  <reference>
R16|R16|R10|R10|

>  <group>
B

>  <Class>
-1

>  <ABC>
19.35

>  <ABCGG>
16.57

>  <nAcid>
0

>  <nBase>
1

>  <nAromAtom>
12

>  <nAromBond>
12

>  <nAtom>
45

>  <nHeavyAtom>
25

>  <nSpiro>
0

>  <nBridgehead>
0

>  <nHetero>
7

>  <nN>
1

>  <nO>
4

>  <nF>
0

>  <BalabanJ>
1.72

>  <BertzCT>
851.65

>  <nBonds>
47

>  <nBondsO>
27

>  <nBondsS>
33

>  <nBondsD>
2

>  <nBondsT>
0

>  <nBondsA>
12

>  <nBondsM>
14

>  <nBondsKS>
39

>  <nBondsKD>
8

>  <RNCG>
0.24

>  <RPCG>
0.09

>  <FCSP3>
0.33

>  <SZ>
33.33

>  <Sm>
31.79

>  <Sv>
29.31

>  <Sse>
45.71

>  <Sp>
31.61

>  <Si>
50.35

>  <MZ>
0.74

>  <Mm>
0.71

>  <Mv>
0.65

>  <Mse>
1.02

>  <Mp>
0.7

>  <Mi>
1.12

>  <NsCH3>
2

>  <NdCH2>
0

>  <NssCH2>
1

>  <NtCH>
0

>  <NdsCH>
0

>  <NaaCH>
8

>  <NsssCH>
2

>  <NddC>
0

>  <NtsC>
0

>  <NdssC>
0

>  <NaasC>
4

>  <NaaaC>
0

>  <NssssC>
1

>  <NsNH3>
0

>  <NsNH2>
1

>  <NssNH2>
0

>  <NdNH>
0

>  <NssNH>
0

>  <NaaNH>
0

>  <NtN>
0

>  <NsssNH>
0

>  <NdsN>
0

>  <NaaN>
0

>  <NsssN>
0

>  <NddsN>
0

>  <NaasN>
0

>  <NssssN>
0

>  <NsOH>
0

>  <NdO>
2

>  <NssO>
2

>  <NaaO>
0

>  <NsF>
0

>  <NsSiH3>
0

>  <NssSiH2>
0

>  <NsssSiH>
0

>  <NssssSi>
0

>  <NsPH2>
0

>  <NssPH>
0

>  <NsssP>
0

>  <NdsssP>
0

>  <NsssssP>
0

>  <NsSH>
0

>  <NdS>
0

>  <NssS>
0

>  <NaaS>
0

>  <NdssS>
0

>  <NddssS>
1

>  <NsCl>
1

>  <NsBr>
0

>  <NsI>
0

>  <fragCpx>
129.07

>  <fMF>
0.36

>  <nHBAcc>
5

>  <nHBDon>
1

>  <Kier1>
19.75

>  <Kier2>
7.55

>  <Lipinski>
1

>  <GhoseFilter>
1

>  <FilterItLogS>
-4.84

>  <VMcGowan>
268.15

>  <LabuteASA>
152.17

>  <PEOE_VSA1>
15.21

>  <PEOE_VSA2>
0

>  <PEOE_VSA3>
8.42

>  <PEOE_VSA4>
0

>  <PEOE_VSA5>
0

>  <PEOE_VSA6>
23.73

>  <PEOE_VSA7>
41.96

>  <PEOE_VSA8>
18.05

>  <PEOE_VSA9>
29.4

>  <PEOE_VSA10>
5.75

>  <PEOE_VSA11>
9.84

>  <PEOE_VSA12>
0

>  <PEOE_VSA13>
0

>  <SMR_VSA1>
17.89

>  <SMR_VSA2>
0

>  <SMR_VSA3>
0

>  <SMR_VSA4>
5.73

>  <SMR_VSA5>
21.6

>  <SMR_VSA6>
20.83

>  <SMR_VSA7>
59.12

>  <SMR_VSA8>
0

>  <SMR_VSA9>
5.75

>  <SlogP_VSA1>
10.47

>  <SlogP_VSA2>
40.03

>  <SlogP_VSA3>
14.57

>  <SlogP_VSA4>
0

>  <SlogP_VSA5>
11.48

>  <SlogP_VSA6>
53.43

>  <SlogP_VSA7>
5.02

>  <SlogP_VSA8>
0

>  <SlogP_VSA9>
0

>  <SlogP_VSA10>
0

>  <SlogP_VSA11>
5.75

>  <EState_VSA1>
20.63

>  <EState_VSA2>
17.42

>  <EState_VSA3>
10.77

>  <EState_VSA4>
5.56

>  <EState_VSA5>
19.24

>  <EState_VSA6>
31.38

>  <EState_VSA7>
12.13

>  <EState_VSA8>
0

>  <EState_VSA9>
26.81

>  <EState_VSA10>
8.42

>  <VSA_EState1>
36.57

>  <VSA_EState2>
0.21

>  <VSA_EState3>
-0.27

>  <VSA_EState4>
6.32

>  <VSA_EState5>
0.36

>  <VSA_EState6>
13.43

>  <VSA_EState7>
0

>  <VSA_EState8>
0.15

>  <VSA_EState9>
-0.52

>  <apol>
52.78

>  <bpol>
30.13

>  <nRing>
3

>  <nHRing>
0

>  <naRing>
2

>  <naHRing>
0

>  <nARing 2>
1

>  <nAHRing 2>
0

>  <nFRing>
0

>  <nFHRing>
0

>  <nFaRing>
0

>  <nFaHRing>
0

>  <nFARing 2>
0

>  <nFAHRing 2>
0

>  <nRot>
6

>  <SLogP>
2.63

>  <SMR>
96.96

>  <TopoPSA(NO)>
78.62

>  <TopoPSA>
87

>  <JGI1>
0.26

>  <JGI2>
0.13

>  <JGI3>
0.09

>  <JGI4>
0.06

>  <JGI5>
0.04

>  <Diameter>
13

>  <Radius>
7

>  <TMWC10>
130.26

>  <TSRW10>
81.89

>  <MW>
381.08

>  <AMW>
8.47

>  <WPath>
1465

>  <WPol>
41

>  <Zagreb1>
136

>  <Zagreb2>
167

>  <mZagreb2>
5.51

>  <yes>


>  <nAR-cont>
0.816016

>  <nHA-cont>
0.921834225

>  <MWHBN>
0.307357045

>  <MWHBN-cont>
0.818215493

>  <TPSA-cont>
0.392685976

>  <pka_cont>
0.97

>  <yes.1>


>  <BBB_SCORE>
4.235545416

>  <MMFF94 Energy>
101.98

$$$$
Compound 2192
Actelion Java MolfileCreator 2.0

  0  0  0  0  0  0              0 V3000
M  V30 BEGIN CTAB
M  V30 COUNTS 44 46 0 0 0
M  V30 BEGIN ATOM
M  V30 1 S -1.2125 -0.404 -0.8082 0
M  V30 2 O -1.6074 -0.3742 -2.2051 0
M  V30 3 O -2.1524 -0.0487 0.2386 0
M  V30 4 C -0.6329 -2.0512 -0.4664 0
M  V30 5 C 0.2817 0.5802 -0.6919 0 CFG=2
M  V30 6 C -0.2999 -2.9017 -1.5231 0
M  V30 7 C -0.5389 -2.4884 0.8561 0
M  V30 8 C 0.6782 1.1342 0.6591 0 CFG=1
M  V30 9 C 0.1941 2.0658 -0.4586 0 CFG=2
M  V30 10 C 0.1486 -4.1949 -1.2494 0
M  V30 11 C -0.0891 -3.7825 1.1224 0
M  V30 12 N -0.1635 0.9283 1.8712 0
M  V30 13 C 2.1767 1.1274 0.9881 0
M  V30 14 C -1.0746 2.888 -0.3887 0
M  V30 15 C 0.2478 -4.6481 0.073 0
M  V30 16 O 2.9738 1.2812 -0.1886 0
M  V30 17 C -2.0467 2.8351 -1.4023 0
M  V30 18 C -1.3627 3.7029 0.721 0
M  V30 19 C 0.7585 -6.0287 0.3646 0
M  V30 20 C 4.3615 1.2662 0.1191 0
M  V30 21 C -3.2422 3.5549 -1.315 0
M  V30 22 C -2.5545 4.428 0.8152 0
M  V30 23 C -3.4969 4.3507 -0.2039 0
M  V30 24 H 1.0623 0.2505 -1.3655 0
M  V30 25 H -0.3867 -2.5716 -2.5558 0
M  V30 26 H -0.8114 -1.8344 1.6813 0
M  V30 27 H 0.9843 2.6276 -0.9617 0
M  V30 28 H 0.4138 -4.8514 -2.0757 0
M  V30 29 H -0.0099 -4.1145 2.1557 0
M  V30 30 H -0.1359 1.7506 2.4738 0
M  V30 31 H -1.1586 0.8441 1.608 0
M  V30 32 H 2.4304 0.1761 1.4712 0
M  V30 33 H 2.3935 1.9502 1.68 0
M  V30 34 H -1.8755 2.228 -2.2892 0
M  V30 35 H -0.6367 3.7941 1.5247 0
M  V30 36 H 0.4927 -6.7216 -0.4405 0
M  V30 37 H 1.8474 -6.0096 0.4705 0
M  V30 38 H 0.3194 -6.4208 1.288 0
M  V30 39 H 4.9214 1.3882 -0.8117 0
M  V30 40 H 4.6429 0.3115 0.5736 0
M  V30 41 H 4.6143 2.093 0.7899 0
M  V30 42 H -3.9734 3.4851 -2.1161 0
M  V30 43 H -2.7448 5.0507 1.6851 0
M  V30 44 H -4.427 4.9075 -0.1334 0
M  V30 END ATOM
M  V30 BEGIN BOND
M  V30 1 2 1 2
M  V30 2 2 1 3
M  V30 3 1 1 4
M  V30 4 1 1 5
M  V30 5 2 4 6
M  V30 6 1 4 7
M  V30 7 1 5 8
M  V30 8 1 5 9
M  V30 9 1 6 10
M  V30 10 2 7 11
M  V30 11 1 8 12
M  V30 12 1 8 13
M  V30 13 1 9 14
M  V30 14 2 10 15
M  V30 15 1 13 16
M  V30 16 2 14 17
M  V30 17 1 14 18
M  V30 18 1 15 19
M  V30 19 1 16 20
M  V30 20 1 17 21
M  V30 21 2 18 22
M  V30 22 2 21 23
M  V30 23 1 8 9
M  V30 24 1 11 15
M  V30 25 1 22 23
M  V30 26 1 5 24
M  V30 27 1 6 25
M  V30 28 1 7 26
M  V30 29 1 9 27
M  V30 30 1 10 28
M  V30 31 1 11 29
M  V30 32 1 12 30
M  V30 33 1 12 31
M  V30 34 1 13 32
M  V30 35 1 13 33
M  V30 36 1 17 34
M  V30 37 1 18 35
M  V30 38 1 19 36
M  V30 39 1 19 37
M  V30 40 1 19 38
M  V30 41 1 20 39
M  V30 42 1 20 40
M  V30 43 1 20 41
M  V30 44 1 21 42
M  V30 45 1 22 43
M  V30 46 1 23 44
M  V30 END BOND
M  V30 BEGIN COLLECTION
M  V30 MDLV30/STEABS ATOMS=(3 5 8 9)
M  V30 END COLLECTION
M  V30 END CTAB
M  END
>  <Column 1>
2692

>  <level_0>
3925

>  <index>
3925

>  <Unnamed: 0>
3925

>  <NO.>
3937

>  <Name>
ampicillin

>  <IUPAC_name>
(1s-2s-3s)-1-(methoxymethyl)-2-(4-methylphenyl)sulfonyl-3-phenylcyclopropan-1-amine

>  <SMILES>
COC[C@@]1(N)[C@H](c2ccccc2)[C@@H]1S(=O)(=O)c1ccc(C)cc1

>  <CID>
100002173

>  <logBB>


>  <BBB+/BBB->
BBB-

>  <Inchi>
InChI=1S/C18H21NO3S/c1-13-8-10-15(11-9-13)23(20-21)17-16(18(17-19)12-22-2)14-6-4-3-5-7-14/h3-11-16-17H-12-19H2-1-2H3/t16--17+-18-/m1/s1

>  <threshold>
-1

>  <reference>
R16|R10|R10|

>  <group>
B

>  <Class>
-1

>  <ABC>
17.94

>  <ABCGG>
15.67

>  <nAcid>
0

>  <nBase>
1

>  <nAromAtom>
12

>  <nAromBond>
12

>  <nAtom>
44

>  <nHeavyAtom>
23

>  <nSpiro>
0

>  <nBridgehead>
0

>  <nHetero>
5

>  <nN>
1

>  <nO>
3

>  <nF>
0

>  <BalabanJ>
1.75

>  <BertzCT>
786.78

>  <nBonds>
46

>  <nBondsO>
25

>  <nBondsS>
32

>  <nBondsD>
2

>  <nBondsT>
0

>  <nBondsA>
12

>  <nBondsM>
14

>  <nBondsKS>
38

>  <nBondsKD>
8

>  <RNCG>
0.21

>  <RPCG>
0.1

>  <FCSP3>
0.33

>  <SZ>
29.33

>  <Sm>
27.59

>  <Sv>
27.78

>  <Sse>
44.05

>  <Sp>
30.22

>  <Si>
49.2

>  <MZ>
0.67

>  <Mm>
0.63

>  <Mv>
0.63

>  <Mse>
1

>  <Mp>
0.69

>  <Mi>
1.12

>  <NsCH3>
2

>  <NdCH2>
0

>  <NssCH2>
1

>  <NtCH>
0

>  <NdsCH>
0

>  <NaaCH>
9

>  <NsssCH>
2

>  <NddC>
0

>  <NtsC>
0

>  <NdssC>
0

>  <NaasC>
3

>  <NaaaC>
0

>  <NssssC>
1

>  <NsNH3>
0

>  <NsNH2>
1

>  <NssNH2>
0

>  <NdNH>
0

>  <NssNH>
0

>  <NaaNH>
0

>  <NtN>
0

>  <NsssNH>
0

>  <NdsN>
0

>  <NaaN>
0

>  <NsssN>
0

>  <NddsN>
0

>  <NaasN>
0

>  <NssssN>
0

>  <NsOH>
0

>  <NdO>
2

>  <NssO>
1

>  <NaaO>
0

>  <NsF>
0

>  <NsSiH3>
0

>  <NssSiH2>
0

>  <NsssSiH>
0

>  <NssssSi>
0

>  <NsPH2>
0

>  <NssPH>
0

>  <NsssP>
0

>  <NdsssP>
0

>  <NsssssP>
0

>  <NsSH>
0

>  <NdS>
0

>  <NssS>
0

>  <NaaS>
0

>  <NdssS>
0

>  <NddssS>
1

>  <NsCl>
0

>  <NsBr>
0

>  <NsI>
0

>  <fragCpx>
119.05

>  <fMF>
0.36

>  <nHBAcc>
4

>  <nHBDon>
1

>  <Kier1>
17.81

>  <Kier2>
6.72

>  <Lipinski>
1

>  <GhoseFilter>
1

>  <FilterItLogS>
-4.37

>  <VMcGowan>
250.04

>  <LabuteASA>
136.75

>  <PEOE_VSA1>
10.47

>  <PEOE_VSA2>
0

>  <PEOE_VSA3>
8.42

>  <PEOE_VSA4>
0

>  <PEOE_VSA5>
0

>  <PEOE_VSA6>
48.03

>  <PEOE_VSA7>
24.62

>  <PEOE_VSA8>
13.03

>  <PEOE_VSA9>
22.29

>  <PEOE_VSA10>
0

>  <PEOE_VSA11>
9.84

>  <PEOE_VSA12>
0

>  <PEOE_VSA13>
0

>  <SMR_VSA1>
13.15

>  <SMR_VSA2>
0

>  <SMR_VSA3>
0

>  <SMR_VSA4>
5.73

>  <SMR_VSA5>
28.53

>  <SMR_VSA6>
13.72

>  <SMR_VSA7>
65.72

>  <SMR_VSA8>
0

>  <SMR_VSA9>
0

>  <SlogP_VSA1>
5.73

>  <SlogP_VSA2>
32.92

>  <SlogP_VSA3>
14.57

>  <SlogP_VSA4>
6.92

>  <SlogP_VSA5>
17.04

>  <SlogP_VSA6>
59.49

>  <SlogP_VSA7>
0

>  <SlogP_VSA8>
0

>  <SlogP_VSA9>
0

>  <SlogP_VSA10>
0

>  <SlogP_VSA11>
0

>  <EState_VSA1>
20.63

>  <EState_VSA2>
12.52

>  <EState_VSA3>
4.9

>  <EState_VSA4>
11.13

>  <EState_VSA5>
0

>  <EState_VSA6>
31.38

>  <EState_VSA7>
37.26

>  <EState_VSA8>
0

>  <EState_VSA9>
10.47

>  <EState_VSA10>
8.42

>  <VSA_EState1>
31.3

>  <VSA_EState2>
0.32

>  <VSA_EState3>
-0.67

>  <VSA_EState4>
7.5

>  <VSA_EState5>
-0.25

>  <VSA_EState6>
16.47

>  <VSA_EState7>
0

>  <VSA_EState8>
2.14

>  <VSA_EState9>
-1.97

>  <apol>
50.47

>  <bpol>
28.89

>  <nRing>
3

>  <nHRing>
0

>  <naRing>
2

>  <naHRing>
0

>  <nARing 2>
1

>  <nAHRing 2>
0

>  <nFRing>
0

>  <nFHRing>
0

>  <nFaRing>
0

>  <nFaHRing>
0

>  <nFARing 2>
0

>  <nFAHRing 2>
0

>  <nRot>
5

>  <SLogP>
2.28

>  <SMR>
90.13

>  <TopoPSA(NO)>
69.39

>  <TopoPSA>
77.77

>  <JGI1>
0.24

>  <JGI2>
0.13

>  <JGI3>
0.1

>  <JGI4>
0.06

>  <JGI5>
0.03

>  <Diameter>
11

>  <Radius>
6

>  <TMWC10>
125.72

>  <TSRW10>
79.54

>  <MW>
331.12

>  <AMW>
7.53

>  <WPath>
1131

>  <WPol>
37

>  <Zagreb1>
126

>  <Zagreb2>
155

>  <mZagreb2>
5.01

>  <yes>


>  <nAR-cont>
0.816016

>  <nHA-cont>
0.967789328

>  <MWHBN>
0.274775051

>  <MWHBN-cont>
0.908963357

>  <TPSA-cont>
0.457117108

>  <pka_cont>
0.97

>  <yes.1>


>  <BBB_SCORE>
4.546484579

>  <MMFF94 Energy>
96.738

$$$$
Compound 2193
Actelion Java MolfileCreator 2.0

  0  0  0  0  0  0              0 V3000
M  V30 BEGIN CTAB
M  V30 COUNTS 40 42 0 0 0
M  V30 BEGIN ATOM
M  V30 1 Cl 1.2379 0.9902 -6.5327 0
M  V30 2 C 0.574 0.6697 -4.9783 0
M  V30 3 C -0.4264 1.499 -4.4689 0
M  V30 4 C 1.0341 -0.4217 -4.2412 0
M  V30 5 C -0.9678 1.2415 -3.2073 0
M  V30 6 C 0.496 -0.685 -2.9796 0
M  V30 7 C -0.4907 0.1581 -2.461 0
M  V30 8 S -1.1979 -0.1736 -0.862 0
M  V30 9 O -2.6356 -0.1602 -1.0591 0
M  V30 10 O -0.5386 -1.3389 -0.3141 0
M  V30 11 C -0.8386 1.2905 0.1096 0 CFG=2
M  V30 12 C 0.4493 1.3801 0.9037 0 CFG=2
M  V30 13 C -0.9071 1.2272 1.6132 0 CFG=2
M  V30 14 C 1.0374 2.7003 0.9674 0
M  V30 15 C 1.4929 0.2919 0.9149 0
M  V30 16 C -1.2639 0.0363 2.4718 0
M  V30 17 N 1.4718 3.7737 1.0318 0
M  V30 18 O 2.1176 0.2575 -0.3685 0
M  V30 19 C -2.4356 -0.7091 2.2601 0
M  V30 20 C -0.4067 -0.4067 3.4967 0
M  V30 21 C 3.1489 -0.722 -0.4173 0
M  V30 22 C -2.7372 -1.8383 3.0275 0
M  V30 23 C -0.703 -1.5333 4.2695 0
M  V30 24 C -1.8691 -2.2515 4.0317 0
M  V30 25 H -0.7921 2.34 -5.0532 0
M  V30 26 H 1.8074 -1.0709 -4.6438 0
M  V30 27 H -1.7655 1.8763 -2.8284 0
M  V30 28 H 0.8529 -1.5413 -2.4119 0
M  V30 29 H -1.2239 2.201 -0.3356 0
M  V30 30 H -1.3038 2.1446 2.0584 0
M  V30 31 H 2.2522 0.5211 1.675 0
M  V30 32 H 1.1001 -0.6953 1.1641 0
M  V30 33 H -3.145 -0.4095 1.4908 0
M  V30 34 H 0.5066 0.142 3.7167 0
M  V30 35 H 3.593 -0.7032 -1.4161 0
M  V30 36 H 2.7376 -1.7197 -0.2361 0
M  V30 37 H 3.9282 -0.4947 0.3163 0
M  V30 38 H -3.6513 -2.3942 2.8337 0
M  V30 39 H -0.0226 -1.848 5.0566 0
M  V30 40 H -2.1024 -3.1302 4.6268 0
M  V30 END ATOM
M  V30 BEGIN BOND
M  V30 1 1 1 2
M  V30 2 2 2 3
M  V30 3 1 2 4
M  V30 4 1 3 5
M  V30 5 2 4 6
M  V30 6 2 5 7
M  V30 7 1 7 8
M  V30 8 2 8 9
M  V30 9 2 8 10
M  V30 10 1 8 11
M  V30 11 1 11 12
M  V30 12 1 11 13
M  V30 13 1 12 14
M  V30 14 1 12 15
M  V30 15 1 13 16
M  V30 16 3 14 17
M  V30 17 1 15 18
M  V30 18 2 16 19
M  V30 19 1 16 20
M  V30 20 1 18 21
M  V30 21 1 19 22
M  V30 22 2 20 23
M  V30 23 2 22 24
M  V30 24 1 6 7
M  V30 25 1 12 13
M  V30 26 1 23 24
M  V30 27 1 3 25
M  V30 28 1 4 26
M  V30 29 1 5 27
M  V30 30 1 6 28
M  V30 31 1 11 29
M  V30 32 1 13 30
M  V30 33 1 15 31
M  V30 34 1 15 32
M  V30 35 1 19 33
M  V30 36 1 20 34
M  V30 37 1 21 35
M  V30 38 1 21 36
M  V30 39 1 21 37
M  V30 40 1 22 38
M  V30 41 1 23 39
M  V30 42 1 24 40
M  V30 END BOND
M  V30 BEGIN COLLECTION
M  V30 MDLV30/STEABS ATOMS=(3 11 12 13)
M  V30 END COLLECTION
M  V30 END CTAB
M  END
>  <Column 1>
2693

>  <level_0>
3926

>  <index>
3926

>  <Unnamed: 0>
3926

>  <NO.>
3938

>  <Name>
penicillin g

>  <IUPAC_name>
(1r-2s-3s)-2-(4-chlorophenyl)sulfonyl-1-(methoxymethyl)-3-phenylcyclopropane-1-carbonitrile

>  <SMILES>
COC[C@]1(C#N)[C@H](c2ccccc2)[C@@H]1S(=O)(=O)c1ccc(Cl)cc1

>  <CID>
100002349

>  <logBB>


>  <BBB+/BBB->
BBB-

>  <Inchi>
InChI=1S/C18H16ClNO3S/c1-23-12-18(11-20)16(13-5-3-2-4-6-13)17(18)24(21-22)15-9-7-14(19)8-10-15/h2-10-16-17H-12H2-1H3/t16--17+-18-/m1/s1

>  <threshold>
-1

>  <reference>
R16|R10|R10|

>  <group>
B

>  <Class>
-1

>  <ABC>
18.48

>  <ABCGG>
16.31

>  <nAcid>
0

>  <nBase>
0

>  <nAromAtom>
12

>  <nAromBond>
12

>  <nAtom>
40

>  <nHeavyAtom>
24

>  <nSpiro>
0

>  <nBridgehead>
0

>  <nHetero>
6

>  <nN>
1

>  <nO>
3

>  <nF>
0

>  <BalabanJ>
1.79

>  <BertzCT>
874.73

>  <nBonds>
42

>  <nBondsO>
26

>  <nBondsS>
27

>  <nBondsD>
2

>  <nBondsT>
1

>  <nBondsA>
12

>  <nBondsM>
15

>  <nBondsKS>
33

>  <nBondsKD>
8

>  <RNCG>
0.24

>  <RPCG>
0.11

>  <FCSP3>
0.28

>  <SZ>
31.33

>  <Sm>
30.13

>  <Sv>
27.51

>  <Sse>
40.6

>  <Sp>
29.53

>  <Si>
44.31

>  <MZ>
0.78

>  <Mm>
0.75

>  <Mv>
0.69

>  <Mse>
1.02

>  <Mp>
0.74

>  <Mi>
1.11

>  <NsCH3>
1

>  <NdCH2>
0

>  <NssCH2>
1

>  <NtCH>
0

>  <NdsCH>
0

>  <NaaCH>
9

>  <NsssCH>
2

>  <NddC>
0

>  <NtsC>
1

>  <NdssC>
0

>  <NaasC>
3

>  <NaaaC>
0

>  <NssssC>
1

>  <NsNH3>
0

>  <NsNH2>
0

>  <NssNH2>
0

>  <NdNH>
0

>  <NssNH>
0

>  <NaaNH>
0

>  <NtN>
1

>  <NsssNH>
0

>  <NdsN>
0

>  <NaaN>
0

>  <NsssN>
0

>  <NddsN>
0

>  <NaasN>
0

>  <NssssN>
0

>  <NsOH>
0

>  <NdO>
2

>  <NssO>
1

>  <NaaO>
0

>  <NsF>
0

>  <NsSiH3>
0

>  <NssSiH2>
0

>  <NsssSiH>
0

>  <NssssSi>
0

>  <NsPH2>
0

>  <NssPH>
0

>  <NsssP>
0

>  <NdsssP>
0

>  <NsssssP>
0

>  <NsSH>
0

>  <NdS>
0

>  <NssS>
0

>  <NaaS>
0

>  <NdssS>
0

>  <NddssS>
1

>  <NsCl>
1

>  <NsBr>
0

>  <NsI>
0

>  <fragCpx>
124.06

>  <fMF>
0.4

>  <nHBAcc>
4

>  <nHBDon>
0

>  <Kier1>
18.78

>  <Kier2>
7.32

>  <Lipinski>
1

>  <GhoseFilter>
1

>  <FilterItLogS>
-5.02

>  <VMcGowan>
253.68

>  <LabuteASA>
146.11

>  <PEOE_VSA1>
4.74

>  <PEOE_VSA2>
0

>  <PEOE_VSA3>
8.42

>  <PEOE_VSA4>
5.26

>  <PEOE_VSA5>
0

>  <PEOE_VSA6>
41.93

>  <PEOE_VSA7>
29.83

>  <PEOE_VSA8>
18.05

>  <PEOE_VSA9>
22.82

>  <PEOE_VSA10>
5.41

>  <PEOE_VSA11>
9.84

>  <PEOE_VSA12>
0

>  <PEOE_VSA13>
0

>  <SMR_VSA1>
13.15

>  <SMR_VSA2>
5.26

>  <SMR_VSA3>
0

>  <SMR_VSA4>
5.41

>  <SMR_VSA5>
16.06

>  <SMR_VSA6>
13.72

>  <SMR_VSA7>
65.18

>  <SMR_VSA8>
0

>  <SMR_VSA9>
6.07

>  <SlogP_VSA1>
0

>  <SlogP_VSA2>
27.38

>  <SlogP_VSA3>
14.57

>  <SlogP_VSA4>
16.75

>  <SlogP_VSA5>
11.48

>  <SlogP_VSA6>
59.49

>  <SlogP_VSA7>
5.02

>  <SlogP_VSA8>
0

>  <SlogP_VSA9>
0

>  <SlogP_VSA10>
0

>  <SlogP_VSA11>
0

>  <EState_VSA1>
26.42

>  <EState_VSA2>
11.5

>  <EState_VSA3>
5.02

>  <EState_VSA4>
5.56

>  <EState_VSA5>
19.24

>  <EState_VSA6>
12.13

>  <EState_VSA7>
30.33

>  <EState_VSA8>
6.07

>  <EState_VSA9>
16.34

>  <EState_VSA10>
13.68

>  <VSA_EState1>
31.36

>  <VSA_EState2>
0.17

>  <VSA_EState3>
9.36

>  <VSA_EState4>
-0.24

>  <VSA_EState5>
-0.41

>  <VSA_EState6>
17.49

>  <VSA_EState7>
0

>  <VSA_EState8>
0.07

>  <VSA_EState9>
-2.21

>  <apol>
49.31

>  <bpol>
25.52

>  <nRing>
3

>  <nHRing>
0

>  <naRing>
2

>  <naHRing>
0

>  <nARing 2>
1

>  <nAHRing 2>
0

>  <nFRing>
0

>  <nFHRing>
0

>  <nFaRing>
0

>  <nFaHRing>
0

>  <nFARing 2>
0

>  <nFAHRing 2>
0

>  <nRot>
5

>  <SLogP>
3.44

>  <SMR>
91.53

>  <TopoPSA(NO)>
67.16

>  <TopoPSA>
75.54

>  <JGI1>
0.23

>  <JGI2>
0.13

>  <JGI3>
0.09

>  <JGI4>
0.06

>  <JGI5>
0.03

>  <Diameter>
11

>  <Radius>
6

>  <TMWC10>
128.19

>  <TSRW10>
80.78

>  <MW>
361.05

>  <AMW>
9.03

>  <WPath>
1247

>  <WPol>
40

>  <Zagreb1>
130

>  <Zagreb2>
161

>  <mZagreb2>
5.39

>  <yes>


>  <nAR-cont>
0.816016

>  <nHA-cont>
0.94700071

>  <MWHBN>
0.210511738

>  <MWHBN-cont>
0.999191108

>  <TPSA-cont>
0.472683892

>  <pka_cont>
0.97

>  <yes.1>


>  <BBB_SCORE>
4.692171157

>  <MMFF94 Energy>
48.77

$$$$
Compound 2194
Actelion Java MolfileCreator 2.0

  0  0  0  0  0  0              0 V3000
M  V30 BEGIN CTAB
M  V30 COUNTS 49 51 0 0 0
M  V30 BEGIN ATOM
M  V30 1 S 0.8085 0.7276 2.7509 0
M  V30 2 O -0.195 1.3318 3.604 0
M  V30 3 O 2.2118 1.0421 2.9566 0
M  V30 4 C 0.6947 -1.0377 2.8623 0
M  V30 5 C 0.4815 1.2065 1.0465 0 CFG=2
M  V30 6 C -0.3128 -1.6339 3.6202 0
M  V30 7 C 1.6616 -1.8198 2.2228 0
M  V30 8 C -0.951 1.55 0.6646 0 CFG=1
M  V30 9 C -0.2585 0.2643 0.147 0 CFG=1
M  V30 10 C -0.377 -3.0258 3.7054 0
M  V30 11 C 1.5926 -3.2107 2.3131 0
M  V30 12 C -2.121 1.2763 1.5574 0
M  V30 13 C -1.0301 2.8017 -0.1931 0
M  V30 14 C 0.1021 0.1071 -1.3126 0
M  V30 15 C 0.564 -3.824 3.0408 0
M  V30 16 O -2.32 0.2128 2.1231 0
M  V30 17 O -2.9797 2.3034 1.6989 0
M  V30 18 O -0.5665 3.9102 0.5796 0
M  V30 19 C -0.9029 0.0099 -2.2899 0
M  V30 20 C 1.431 0.1186 -1.76 0
M  V30 21 C 0.511 -5.3186 3.1657 0
M  V30 22 C -0.7443 5.1413 -0.107 0
M  V30 23 C -0.5987 -0.0901 -3.6537 0
M  V30 24 C 1.7391 0.0202 -3.1207 0
M  V30 25 C 0.7279 -0.0859 -4.0749 0
M  V30 26 O 1.1651 -0.1747 -5.3665 0
M  V30 27 C 0.1715 -0.3137 -6.3743 0
M  V30 28 H 1.2636 1.8257 0.6253 0
M  V30 29 H -1.0532 -1.0287 4.1395 0
M  V30 30 H 2.4735 -1.3574 1.6664 0
M  V30 31 H -0.6152 -0.6687 0.5804 0
M  V30 32 H -1.1678 -3.484 4.2962 0
M  V30 33 H 2.3501 -3.8153 1.8184 0
M  V30 34 H -2.0576 2.9726 -0.5362 0
M  V30 35 H -0.3955 2.7265 -1.0825 0
M  V30 36 H -3.6037 1.9919 2.387 0
M  V30 37 H -1.9485 0.0031 -1.9856 0
M  V30 38 H 2.2492 0.1992 -1.0475 0
M  V30 39 H 1.0924 -5.6422 4.0346 0
M  V30 40 H -0.5216 -5.6643 3.2813 0
M  V30 41 H 0.9156 -5.7997 2.2692 0
M  V30 42 H -0.3586 5.9466 0.5239 0
M  V30 43 H -1.8066 5.3242 -0.2957 0
M  V30 44 H -0.1886 5.1383 -1.0496 0
M  V30 45 H -1.4222 -0.1694 -4.3554 0
M  V30 46 H 2.7794 0.0268 -3.4381 0
M  V30 47 H -0.4067 -1.2332 -6.235 0
M  V30 48 H 0.682 -0.3844 -7.3396 0
M  V30 49 H -0.4824 0.564 -6.4069 0
M  V30 END ATOM
M  V30 BEGIN BOND
M  V30 1 2 1 2
M  V30 2 2 1 3
M  V30 3 1 1 4
M  V30 4 1 1 5
M  V30 5 2 4 6
M  V30 6 1 4 7
M  V30 7 1 5 8
M  V30 8 1 5 9
M  V30 9 1 6 10
M  V30 10 2 7 11
M  V30 11 1 8 12
M  V30 12 1 8 13
M  V30 13 1 9 14
M  V30 14 2 10 15
M  V30 15 2 12 16
M  V30 16 1 12 17
M  V30 17 1 13 18
M  V30 18 2 14 19
M  V30 19 1 14 20
M  V30 20 1 15 21
M  V30 21 1 18 22
M  V30 22 1 19 23
M  V30 23 2 20 24
M  V30 24 2 23 25
M  V30 25 1 25 26
M  V30 26 1 26 27
M  V30 27 1 8 9
M  V30 28 1 11 15
M  V30 29 1 24 25
M  V30 30 1 5 28
M  V30 31 1 6 29
M  V30 32 1 7 30
M  V30 33 1 9 31
M  V30 34 1 10 32
M  V30 35 1 11 33
M  V30 36 1 13 34
M  V30 37 1 13 35
M  V30 38 1 17 36
M  V30 39 1 19 37
M  V30 40 1 20 38
M  V30 41 1 21 39
M  V30 42 1 21 40
M  V30 43 1 21 41
M  V30 44 1 22 42
M  V30 45 1 22 43
M  V30 46 1 22 44
M  V30 47 1 23 45
M  V30 48 1 24 46
M  V30 49 1 27 47
M  V30 50 1 27 48
M  V30 51 1 27 49
M  V30 END BOND
M  V30 BEGIN COLLECTION
M  V30 MDLV30/STEABS ATOMS=(3 5 8 9)
M  V30 END COLLECTION
M  V30 END CTAB
M  END
>  <Column 1>
2694

>  <level_0>
3927

>  <index>
3927

>  <Unnamed: 0>
3927

>  <NO.>
3939

>  <Name>
nelfinavir

>  <IUPAC_name>
(1r-2r-3s)-1-(methoxymethyl)-2-(4-methoxyphenyl)-3-(4-methylphenyl)sulfonylcyclopropane-1-carboxylic acid

>  <SMILES>
COC[C@]1(C(=O)O)[C@@H](S(=O)(=O)c2ccc(C)cc2)[C@@H]1c1ccc(OC)cc1

>  <CID>
100004451

>  <logBB>


>  <BBB+/BBB->
BBB-

>  <Inchi>
InChI=1S/C20H22O6S/c1-13-4-10-16(11-5-13)27(23-24)18-17(20(18-12-25-2)19(21)22)14-6-8-15(26-3)9-7-14/h4-11-17-18H-12H2-1-3H3-(H-21-22)/t17--18--20+/m0/s1

>  <threshold>
-1

>  <reference>
R16|R10|

>  <group>
B

>  <Class>
1

>  <ABC>
20.76

>  <ABCGG>
18.01

>  <nAcid>
1

>  <nBase>
0

>  <nAromAtom>
12

>  <nAromBond>
12

>  <nAtom>
49

>  <nHeavyAtom>
27

>  <nSpiro>
0

>  <nBridgehead>
0

>  <nHetero>
7

>  <nN>
0

>  <nO>
6

>  <nF>
0

>  <BalabanJ>
1.81

>  <BertzCT>
933.44

>  <nBonds>
51

>  <nBondsO>
29

>  <nBondsS>
36

>  <nBondsD>
3

>  <nBondsT>
0

>  <nBondsA>
12

>  <nBondsM>
15

>  <nBondsKS>
42

>  <nBondsKD>
9

>  <RNCG>
0.2

>  <RPCG>
0.12

>  <FCSP3>
0.35

>  <SZ>
34.33

>  <Sm>
32.51

>  <Sv>
31.44

>  <Sse>
49.83

>  <Sp>
33.4

>  <Si>
54.74

>  <MZ>
0.7

>  <Mm>
0.66

>  <Mv>
0.64

>  <Mse>
1.02

>  <Mp>
0.68

>  <Mi>
1.12

>  <NsCH3>
3

>  <NdCH2>
0

>  <NssCH2>
1

>  <NtCH>
0

>  <NdsCH>
0

>  <NaaCH>
8

>  <NsssCH>
2

>  <NddC>
0

>  <NtsC>
0

>  <NdssC>
1

>  <NaasC>
4

>  <NaaaC>
0

>  <NssssC>
1

>  <NsNH3>
0

>  <NsNH2>
0

>  <NssNH2>
0

>  <NdNH>
0

>  <NssNH>
0

>  <NaaNH>
0

>  <NtN>
0

>  <NsssNH>
0

>  <NdsN>
0

>  <NaaN>
0

>  <NsssN>
0

>  <NddsN>
0

>  <NaasN>
0

>  <NssssN>
0

>  <NsOH>
1

>  <NdO>
3

>  <NssO>
2

>  <NaaO>
0

>  <NsF>
0

>  <NsSiH3>
0

>  <NssSiH2>
0

>  <NsssSiH>
0

>  <NssssSi>
0

>  <NsPH2>
0

>  <NssPH>
0

>  <NsssP>
0

>  <NdsssP>
0

>  <NsssssP>
0

>  <NsSH>
0

>  <NdS>
0

>  <NssS>
0

>  <NaaS>
0

>  <NdssS>
0

>  <NddssS>
1

>  <NsCl>
0

>  <NsBr>
0

>  <NsI>
0

>  <fragCpx>
139.07

>  <fMF>
0.33

>  <nHBAcc>
5

>  <nHBDon>
1

>  <Kier1>
21.7

>  <Kier2>
8.39

>  <Lipinski>
1

>  <GhoseFilter>
1

>  <FilterItLogS>
-4.34

>  <VMcGowan>
281.55

>  <LabuteASA>
158.21

>  <PEOE_VSA1>
14.58

>  <PEOE_VSA2>
4.79

>  <PEOE_VSA3>
8.42

>  <PEOE_VSA4>
0

>  <PEOE_VSA5>
0

>  <PEOE_VSA6>
29.83

>  <PEOE_VSA7>
36.75

>  <PEOE_VSA8>
13.03

>  <PEOE_VSA9>
23.86

>  <PEOE_VSA10>
11.16

>  <PEOE_VSA11>
9.84

>  <PEOE_VSA12>
0

>  <PEOE_VSA13>
0

>  <SMR_VSA1>
27.79

>  <SMR_VSA2>
0

>  <SMR_VSA3>
0

>  <SMR_VSA4>
5.41

>  <SMR_VSA5>
22.99

>  <SMR_VSA6>
20.83

>  <SMR_VSA7>
59.66

>  <SMR_VSA8>
0

>  <SMR_VSA9>
5.75

>  <SlogP_VSA1>
4.74

>  <SlogP_VSA2>
45.57

>  <SlogP_VSA3>
19.37

>  <SlogP_VSA4>
12.34

>  <SlogP_VSA5>
17.04

>  <SlogP_VSA6>
53.43

>  <SlogP_VSA7>
0

>  <SlogP_VSA8>
0

>  <SlogP_VSA9>
0

>  <SlogP_VSA10>
0

>  <SlogP_VSA11>
5.75

>  <EState_VSA1>
32.39

>  <EState_VSA2>
11.5

>  <EState_VSA3>
11.31

>  <EState_VSA4>
5.56

>  <EState_VSA5>
26.35

>  <EState_VSA6>
36.4

>  <EState_VSA7>
6.92

>  <EState_VSA8>
0

>  <EState_VSA9>
9.47

>  <EState_VSA10>
18.32

>  <VSA_EState1>
36.8

>  <VSA_EState2>
12.27

>  <VSA_EState3>
8.82

>  <VSA_EState4>
0.04

>  <VSA_EState5>
-1.26

>  <VSA_EState6>
13.27

>  <VSA_EState7>
0

>  <VSA_EState8>
1.68

>  <VSA_EState9>
-0.95

>  <apol>
55.78

>  <bpol>
33.07

>  <nRing>
3

>  <nHRing>
0

>  <naRing>
2

>  <naHRing>
0

>  <nARing 2>
1

>  <nAHRing 2>
0

>  <nFRing>
0

>  <nFHRing>
0

>  <nFaRing>
0

>  <nFaHRing>
0

>  <nFARing 2>
0

>  <nFAHRing 2>
0

>  <nRot>
7

>  <SLogP>
2.66

>  <SMR>
99.83

>  <TopoPSA(NO)>
89.9

>  <TopoPSA>
98.28

>  <JGI1>
0.26

>  <JGI2>
0.13

>  <JGI3>
0.09

>  <JGI4>
0.06

>  <JGI5>
0.03

>  <Diameter>
13

>  <Radius>
7

>  <TMWC10>
135.3

>  <TSRW10>
84.43

>  <MW>
390.11

>  <AMW>
7.96

>  <WPath>
1733

>  <WPol>
47

>  <Zagreb1>
146

>  <Zagreb2>
181

>  <mZagreb2>
6.01

>  <yes>


>  <nAR-cont>
0.816016

>  <nHA-cont>
0.860070871

>  <MWHBN>
0.303778973

>  <MWHBN-cont>
0.829303158

>  <TPSA-cont>
0.313944572

>  <pka_cont>
0.97

>  <yes.1>


>  <BBB_SCORE>
4.032930752

>  <MMFF94 Energy>
27.253

$$$$
Compound 2195
Actelion Java MolfileCreator 2.0

  0  0  0  0  0  0              0 V3000
M  V30 BEGIN CTAB
M  V30 COUNTS 39 40 0 0 0
M  V30 BEGIN ATOM
M  V30 1 S 0.2423 -3.3967 0.8079 0
M  V30 2 O -1.0854 -3.8419 1.1951 0
M  V30 3 O 1.0005 -4.1563 -0.1642 0
M  V30 4 C -0.0358 -1.7484 0.1395 0 CFG=2
M  V30 5 C 1.1684 -3.2719 2.3097 0
M  V30 6 C 1.0439 -1.1525 -0.7513 0 CFG=1
M  V30 7 C 0.7652 -0.6001 0.6698 0 CFG=1
M  V30 8 C 2.3975 -1.7742 -0.9011 0
M  V30 9 C 0.4689 -0.4706 -1.9821 0
M  V30 10 C 0.1523 0.7674 0.8718 0
M  V30 11 O 3.0697 -2.1802 0.034 0
M  V30 12 O 2.8571 -1.8425 -2.1638 0
M  V30 13 O -0.152 -1.4616 -2.8015 0
M  V30 14 C 0.8459 1.9259 0.4896 0
M  V30 15 C -1.1485 0.9354 1.3728 0
M  V30 16 C -0.5805 -0.9234 -4.0443 0
M  V30 17 C 0.2718 3.1939 0.6214 0
M  V30 18 C -1.7277 2.2045 1.5065 0
M  V30 19 C -1.0172 3.3412 1.1308 0
M  V30 20 O -1.4603 4.6318 1.2057 0
M  V30 21 C -2.7658 4.8342 1.7325 0
M  V30 22 H -1.063 -1.58 -0.1598 0
M  V30 23 H 0.6575 -2.5808 2.9831 0
M  V30 24 H 2.1861 -2.9432 2.1155 0
M  V30 25 H 1.1967 -4.2647 2.7656 0
M  V30 26 H 1.525 -0.8166 1.4168 0
M  V30 27 H 1.2563 0.0529 -2.5371 0
M  V30 28 H -0.2947 0.2689 -1.7188 0
M  V30 29 H 3.6837 -2.3624 -2.0869 0
M  V30 30 H 1.8539 1.8472 0.087 0
M  V30 31 H -1.7314 0.0663 1.6733 0
M  V30 32 H -1.0606 -1.7208 -4.6176 0
M  V30 33 H 0.2749 -0.5498 -4.6148 0
M  V30 34 H -1.3071 -0.121 -3.8846 0
M  V30 35 H 0.8361 4.0744 0.3233 0
M  V30 36 H -2.7351 2.2647 1.905 0
M  V30 37 H -3.5236 4.3562 1.1031 0
M  V30 38 H -2.9634 5.9105 1.7319 0
M  V30 39 H -2.8326 4.484 2.7679 0
M  V30 END ATOM
M  V30 BEGIN BOND
M  V30 1 2 1 2
M  V30 2 2 1 3
M  V30 3 1 1 4
M  V30 4 1 1 5
M  V30 5 1 4 6
M  V30 6 1 4 7
M  V30 7 1 6 8
M  V30 8 1 6 9
M  V30 9 1 7 10
M  V30 10 2 8 11
M  V30 11 1 8 12
M  V30 12 1 9 13
M  V30 13 2 10 14
M  V30 14 1 10 15
M  V30 15 1 13 16
M  V30 16 1 14 17
M  V30 17 2 15 18
M  V30 18 2 17 19
M  V30 19 1 19 20
M  V30 20 1 20 21
M  V30 21 1 6 7
M  V30 22 1 18 19
M  V30 23 1 4 22
M  V30 24 1 5 23
M  V30 25 1 5 24
M  V30 26 1 5 25
M  V30 27 1 7 26
M  V30 28 1 9 27
M  V30 29 1 9 28
M  V30 30 1 12 29
M  V30 31 1 14 30
M  V30 32 1 15 31
M  V30 33 1 16 32
M  V30 34 1 16 33
M  V30 35 1 16 34
M  V30 36 1 17 35
M  V30 37 1 18 36
M  V30 38 1 21 37
M  V30 39 1 21 38
M  V30 40 1 21 39
M  V30 END BOND
M  V30 BEGIN COLLECTION
M  V30 MDLV30/STEABS ATOMS=(3 4 6 7)
M  V30 END COLLECTION
M  V30 END CTAB
M  END
>  <Column 1>
2695

>  <level_0>
3928

>  <index>
3928

>  <Unnamed: 0>
3928

>  <NO.>
3940

>  <Name>
disulfiram

>  <IUPAC_name>
(1r-2r-3s)-1-(methoxymethyl)-2-(4-methoxyphenyl)-3-methylsulfonylcyclopropane-1-carboxylic acid

>  <SMILES>
COC[C@]1(C(=O)O)[C@@H](S(C)(=O)=O)[C@@H]1c1ccc(OC)cc1

>  <CID>
100003117

>  <logBB>


>  <BBB+/BBB->
BBB+

>  <Inchi>
InChI=1S/C14H18O6S/c1-19-8-14(13(15)16)11(12(14)21(3-17)18)9-4-6-10(20-2)7-5-9/h4-7-11-12H-8H2-1-3H3-(H-15-16)/t11--12--14+/m0/s1

>  <threshold>
-1

>  <reference>
R16|R10|

>  <group>
B

>  <Class>
-1

>  <ABC>
15.92

>  <ABCGG>
14.83

>  <nAcid>
1

>  <nBase>
0

>  <nAromAtom>
6

>  <nAromBond>
6

>  <nAtom>
39

>  <nHeavyAtom>
21

>  <nSpiro>
0

>  <nBridgehead>
0

>  <nHetero>
7

>  <nN>
0

>  <nO>
6

>  <nF>
0

>  <BalabanJ>
2.16

>  <BertzCT>
635.93

>  <nBonds>
40

>  <nBondsO>
22

>  <nBondsS>
31

>  <nBondsD>
3

>  <nBondsT>
0

>  <nBondsA>
6

>  <nBondsM>
9

>  <nBondsKS>
34

>  <nBondsKD>
6

>  <RNCG>
0.22

>  <RPCG>
0.14

>  <FCSP3>
0.5

>  <SZ>
27.67

>  <Sm>
26.17

>  <Sv>
24.35

>  <Sse>
40.05

>  <Sp>
25.8

>  <Si>
43.91

>  <MZ>
0.71

>  <Mm>
0.67

>  <Mv>
0.62

>  <Mse>
1.03

>  <Mp>
0.66

>  <Mi>
1.13

>  <NsCH3>
3

>  <NdCH2>
0

>  <NssCH2>
1

>  <NtCH>
0

>  <NdsCH>
0

>  <NaaCH>
4

>  <NsssCH>
2

>  <NddC>
0

>  <NtsC>
0

>  <NdssC>
1

>  <NaasC>
2

>  <NaaaC>
0

>  <NssssC>
1

>  <NsNH3>
0

>  <NsNH2>
0

>  <NssNH2>
0

>  <NdNH>
0

>  <NssNH>
0

>  <NaaNH>
0

>  <NtN>
0

>  <NsssNH>
0

>  <NdsN>
0

>  <NaaN>
0

>  <NsssN>
0

>  <NddsN>
0

>  <NaasN>
0

>  <NssssN>
0

>  <NsOH>
1

>  <NdO>
3

>  <NssO>
2

>  <NaaO>
0

>  <NsF>
0

>  <NsSiH3>
0

>  <NssSiH2>
0

>  <NsssSiH>
0

>  <NssssSi>
0

>  <NsPH2>
0

>  <NssPH>
0

>  <NsssP>
0

>  <NdsssP>
0

>  <NsssssP>
0

>  <NsSH>
0

>  <NdS>
0

>  <NssS>
0

>  <NaaS>
0

>  <NdssS>
0

>  <NddssS>
1

>  <NsCl>
0

>  <NsBr>
0

>  <NsI>
0

>  <fragCpx>
64.07

>  <fMF>
0.23

>  <nHBAcc>
5

>  <nHBDon>
1

>  <Kier1>
17.36

>  <Kier2>
6.25

>  <Lipinski>
1

>  <GhoseFilter>
1

>  <FilterItLogS>
-2.48

>  <VMcGowan>
220.77

>  <LabuteASA>
123.15

>  <PEOE_VSA1>
14.58

>  <PEOE_VSA2>
4.79

>  <PEOE_VSA3>
8.42

>  <PEOE_VSA4>
0

>  <PEOE_VSA5>
0

>  <PEOE_VSA6>
12.13

>  <PEOE_VSA7>
17.7

>  <PEOE_VSA8>
19.28

>  <PEOE_VSA9>
18.97

>  <PEOE_VSA10>
11.16

>  <PEOE_VSA11>
9.84

>  <PEOE_VSA12>
0

>  <PEOE_VSA13>
0

>  <SMR_VSA1>
27.79

>  <SMR_VSA2>
0

>  <SMR_VSA3>
0

>  <SMR_VSA4>
5.41

>  <SMR_VSA5>
11.17

>  <SMR_VSA6>
27.08

>  <SMR_VSA7>
29.83

>  <SMR_VSA8>
0

>  <SMR_VSA9>
5.75

>  <SlogP_VSA1>
4.74

>  <SlogP_VSA2>
51.83

>  <SlogP_VSA3>
19.37

>  <SlogP_VSA4>
5.41

>  <SlogP_VSA5>
11.48

>  <SlogP_VSA6>
24.27

>  <SlogP_VSA7>
0

>  <SlogP_VSA8>
0

>  <SlogP_VSA9>
0

>  <SlogP_VSA10>
0

>  <SlogP_VSA11>
5.75

>  <EState_VSA1>
32.39

>  <EState_VSA2>
6.61

>  <EState_VSA3>
11.31

>  <EState_VSA4>
6.26

>  <EState_VSA5>
14.22

>  <EState_VSA6>
24.27

>  <EState_VSA7>
0

>  <EState_VSA8>
0

>  <EState_VSA9>
9.47

>  <EState_VSA10>
18.32

>  <VSA_EState1>
33.94

>  <VSA_EState2>
11.67

>  <VSA_EState3>
8.56

>  <VSA_EState4>
-0.76

>  <VSA_EState5>
-1.14

>  <VSA_EState6>
6.77

>  <VSA_EState7>
1.06

>  <VSA_EState8>
-0.14

>  <VSA_EState9>
-0.62

>  <apol>
43.09

>  <bpol>
29.05

>  <nRing>
2

>  <nHRing>
0

>  <naRing>
1

>  <naHRing>
0

>  <nARing 2>
1

>  <nAHRing 2>
0

>  <nFRing>
0

>  <nFHRing>
0

>  <nFaRing>
0

>  <nFaHRing>
0

>  <nFARing 2>
0

>  <nFAHRing 2>
0

>  <nRot>
6

>  <SLogP>
0.92

>  <SMR>
76.31

>  <TopoPSA(NO)>
89.9

>  <TopoPSA>
98.28

>  <JGI1>
0.3

>  <JGI2>
0.13

>  <JGI3>
0.11

>  <JGI4>
0.07

>  <JGI5>
0.02

>  <Diameter>
10

>  <Radius>
5

>  <TMWC10>
120.08

>  <TSRW10>
77.16

>  <MW>
314.08

>  <AMW>
8.05

>  <WPath>
879

>  <WPol>
34

>  <Zagreb1>
112

>  <Zagreb2>
138

>  <mZagreb2>
4.68

>  <yes>


>  <nAR-cont>
0.816016

>  <nHA-cont>
0.994529749

>  <MWHBN>
0.338556463

>  <MWHBN-cont>
0.712365133

>  <TPSA-cont>
0.313944572

>  <pka_cont>
0.97

>  <yes.1>


>  <BBB_SCORE>
3.991982592

>  <MMFF94 Energy>
-12.065

$$$$
Compound 2196
Actelion Java MolfileCreator 2.0

  0  0  0  0  0  0              0 V3000
M  V30 BEGIN CTAB
M  V30 COUNTS 46 48 0 0 0
M  V30 BEGIN ATOM
M  V30 1 Cl -3.1151 -6.1553 2.2947 0
M  V30 2 C -2.5886 -4.7595 1.4376 0
M  V30 3 C -1.9004 -4.9068 0.2326 0
M  V30 4 C -2.8595 -3.4903 1.9498 0
M  V30 5 C -1.4701 -3.776 -0.4648 0
M  V30 6 C -2.4326 -2.3558 1.2565 0
M  V30 7 C -1.7253 -2.5042 0.0602 0
M  V30 8 S -1.1867 -1.0667 -0.8411 0
M  V30 9 O -1.7017 -1.2378 -2.1874 0
M  V30 10 O -1.5367 0.1033 -0.0648 0
M  V30 11 C 0.59 -1.2527 -0.984 0 CFG=2
M  V30 12 C 1.5287 -0.7278 0.1002 0 CFG=2
M  V30 13 C 1.4504 -0.0628 -1.2952 0 CFG=2
M  V30 14 C 2.7461 -1.58 0.3248 0
M  V30 15 C 0.9904 -0.0156 1.323 0
M  V30 16 C 1.0112 1.3655 -1.5153 0
M  V30 17 O 3.2136 -2.3322 -0.5163 0
M  V30 18 O 3.3612 -1.4042 1.5094 0
M  V30 19 O 0.3358 -0.9828 2.145 0
M  V30 20 C 1.5644 2.4235 -0.7719 0
M  V30 21 C 0.0027 1.7012 -2.4302 0
M  V30 22 C -0.145 -0.3958 3.3484 0
M  V30 23 C 1.1396 3.7497 -0.934 0
M  V30 24 C -0.4265 3.0228 -2.596 0
M  V30 25 C 0.1367 4.0545 -1.8486 0
M  V30 26 O -0.3697 5.297 -2.1081 0
M  V30 27 C 0.145 6.375 -1.3375 0
M  V30 28 H -1.7043 -5.8974 -0.17 0
M  V30 29 H -3.4029 -3.3778 2.8844 0
M  V30 30 H -0.9563 -3.8971 -1.4153 0
M  V30 31 H -2.6499 -1.3677 1.6559 0
M  V30 32 H 0.8712 -2.1685 -1.4917 0
M  V30 33 H 2.2801 -0.3065 -1.9653 0
M  V30 34 H 1.8151 0.4421 1.8833 0
M  V30 35 H 0.302 0.7989 1.0935 0
M  V30 36 H 4.12 -2.0234 1.4794 0
M  V30 37 H 2.3588 2.2216 -0.0561 0
M  V30 38 H -0.4616 0.9312 -3.0432 0
M  V30 39 H -0.634 -1.175 3.939 0
M  V30 40 H -0.8776 0.3863 3.1271 0
M  V30 41 H 0.6837 0.0161 3.9319 0
M  V30 42 H 1.6156 4.5153 -0.3311 0
M  V30 43 H -1.2125 3.2433 -3.3144 0
M  V30 44 H -0.0517 6.228 -0.2703 0
M  V30 45 H -0.374 7.2866 -1.6489 0
M  V30 46 H 1.2137 6.5195 -1.5266 0
M  V30 END ATOM
M  V30 BEGIN BOND
M  V30 1 1 1 2
M  V30 2 2 2 3
M  V30 3 1 2 4
M  V30 4 1 3 5
M  V30 5 2 4 6
M  V30 6 2 5 7
M  V30 7 1 7 8
M  V30 8 2 8 9
M  V30 9 2 8 10
M  V30 10 1 8 11
M  V30 11 1 11 12
M  V30 12 1 11 13
M  V30 13 1 12 14
M  V30 14 1 12 15
M  V30 15 1 13 16
M  V30 16 2 14 17
M  V30 17 1 14 18
M  V30 18 1 15 19
M  V30 19 2 16 20
M  V30 20 1 16 21
M  V30 21 1 19 22
M  V30 22 1 20 23
M  V30 23 2 21 24
M  V30 24 2 23 25
M  V30 25 1 25 26
M  V30 26 1 26 27
M  V30 27 1 6 7
M  V30 28 1 12 13
M  V30 29 1 24 25
M  V30 30 1 3 28
M  V30 31 1 4 29
M  V30 32 1 5 30
M  V30 33 1 6 31
M  V30 34 1 11 32
M  V30 35 1 13 33
M  V30 36 1 15 34
M  V30 37 1 15 35
M  V30 38 1 18 36
M  V30 39 1 20 37
M  V30 40 1 21 38
M  V30 41 1 22 39
M  V30 42 1 22 40
M  V30 43 1 22 41
M  V30 44 1 23 42
M  V30 45 1 24 43
M  V30 46 1 27 44
M  V30 47 1 27 45
M  V30 48 1 27 46
M  V30 END BOND
M  V30 BEGIN COLLECTION
M  V30 MDLV30/STEABS ATOMS=(3 11 12 13)
M  V30 END COLLECTION
M  V30 END CTAB
M  END
>  <Column 1>
2696

>  <level_0>
3929

>  <index>
3929

>  <Unnamed: 0>
3929

>  <NO.>
3941

>  <Name>
probenecid

>  <IUPAC_name>
(1s-2s-3s)-2-(4-chlorophenyl)sulfonyl-1-(methoxymethyl)-3-(4-methoxyphenyl)cyclopropane-1-carboxylic acid

>  <SMILES>
COC[C@]1(C(=O)O)[C@H](c2ccc(OC)cc2)[C@@H]1S(=O)(=O)c1ccc(Cl)cc1

>  <CID>
100004911

>  <logBB>


>  <BBB+/BBB->
BBB-

>  <Inchi>
InChI=1S/C19H19ClO6S/c1-25-11-19(18(21)22)16(12-3-7-14(26-2)8-4-12)17(19)27(23-24)15-9-5-13(20)6-10-15/h3-10-16-17H-11H2-1-2H3-(H-21-22)/t16--17+-19+/m1/s1

>  <threshold>
-1

>  <reference>
R16|R16|R10|R10|

>  <group>
B

>  <Class>
-1

>  <ABC>
20.76

>  <ABCGG>
18.01

>  <nAcid>
1

>  <nBase>
0

>  <nAromAtom>
12

>  <nAromBond>
12

>  <nAtom>
46

>  <nHeavyAtom>
27

>  <nSpiro>
0

>  <nBridgehead>
0

>  <nHetero>
8

>  <nN>
0

>  <nO>
6

>  <nF>
0

>  <BalabanJ>
1.81

>  <BertzCT>
939.17

>  <nBonds>
48

>  <nBondsO>
29

>  <nBondsS>
33

>  <nBondsD>
3

>  <nBondsT>
0

>  <nBondsA>
12

>  <nBondsM>
15

>  <nBondsKS>
39

>  <nBondsKD>
9

>  <RNCG>
0.2

>  <RPCG>
0.13

>  <FCSP3>
0.32

>  <SZ>
35.67

>  <Sm>
34.21

>  <Sv>
30.71

>  <Sse>
47.26

>  <Sp>
32.51

>  <Si>
51.27

>  <MZ>
0.78

>  <Mm>
0.74

>  <Mv>
0.67

>  <Mse>
1.03

>  <Mp>
0.71

>  <Mi>
1.11

>  <NsCH3>
2

>  <NdCH2>
0

>  <NssCH2>
1

>  <NtCH>
0

>  <NdsCH>
0

>  <NaaCH>
8

>  <NsssCH>
2

>  <NddC>
0

>  <NtsC>
0

>  <NdssC>
1

>  <NaasC>
4

>  <NaaaC>
0

>  <NssssC>
1

>  <NsNH3>
0

>  <NsNH2>
0

>  <NssNH2>
0

>  <NdNH>
0

>  <NssNH>
0

>  <NaaNH>
0

>  <NtN>
0

>  <NsssNH>
0

>  <NdsN>
0

>  <NaaN>
0

>  <NsssN>
0

>  <NddsN>
0

>  <NaasN>
0

>  <NssssN>
0

>  <NsOH>
1

>  <NdO>
3

>  <NssO>
2

>  <NaaO>
0

>  <NsF>
0

>  <NsSiH3>
0

>  <NssSiH2>
0

>  <NsssSiH>
0

>  <NssssSi>
0

>  <NsPH2>
0

>  <NssPH>
0

>  <NsssP>
0

>  <NdsssP>
0

>  <NsssssP>
0

>  <NsSH>
0

>  <NdS>
0

>  <NssS>
0

>  <NaaS>
0

>  <NdssS>
0

>  <NddssS>
1

>  <NsCl>
1

>  <NsBr>
0

>  <NsI>
0

>  <fragCpx>
139.08

>  <fMF>
0.35

>  <nHBAcc>
5

>  <nHBDon>
1

>  <Kier1>
21.7

>  <Kier2>
8.39

>  <Lipinski>
1

>  <GhoseFilter>
1

>  <FilterItLogS>
-4.55

>  <VMcGowan>
279.7

>  <LabuteASA>
162.15

>  <PEOE_VSA1>
14.58

>  <PEOE_VSA2>
4.79

>  <PEOE_VSA3>
8.42

>  <PEOE_VSA4>
0

>  <PEOE_VSA5>
0

>  <PEOE_VSA6>
23.73

>  <PEOE_VSA7>
41.96

>  <PEOE_VSA8>
18.05

>  <PEOE_VSA9>
23.86

>  <PEOE_VSA10>
11.16

>  <PEOE_VSA11>
9.84

>  <PEOE_VSA12>
0

>  <PEOE_VSA13>
0

>  <SMR_VSA1>
27.79

>  <SMR_VSA2>
0

>  <SMR_VSA3>
0

>  <SMR_VSA4>
5.41

>  <SMR_VSA5>
16.06

>  <SMR_VSA6>
20.83

>  <SMR_VSA7>
59.12

>  <SMR_VSA8>
0

>  <SMR_VSA9>
5.75

>  <SlogP_VSA1>
4.74

>  <SlogP_VSA2>
45.57

>  <SlogP_VSA3>
19.37

>  <SlogP_VSA4>
5.41

>  <SlogP_VSA5>
11.48

>  <SlogP_VSA6>
53.43

>  <SlogP_VSA7>
5.02

>  <SlogP_VSA8>
0

>  <SlogP_VSA9>
0

>  <SlogP_VSA10>
0

>  <SlogP_VSA11>
5.75

>  <EState_VSA1>
32.39

>  <EState_VSA2>
11.5

>  <EState_VSA3>
16.34

>  <EState_VSA4>
0

>  <EState_VSA5>
38.49

>  <EState_VSA6>
24.27

>  <EState_VSA7>
0

>  <EState_VSA8>
0

>  <EState_VSA9>
21.07

>  <EState_VSA10>
18.32

>  <VSA_EState1>
36.68

>  <VSA_EState2>
12.17

>  <VSA_EState3>
9.16

>  <VSA_EState4>
-0.94

>  <VSA_EState5>
-1.33

>  <VSA_EState6>
12.46

>  <VSA_EState7>
0

>  <VSA_EState8>
-0.21

>  <VSA_EState9>
-1.04

>  <apol>
54.29

>  <bpol>
30.57

>  <nRing>
3

>  <nHRing>
0

>  <naRing>
2

>  <naHRing>
0

>  <nARing 2>
1

>  <nAHRing 2>
0

>  <nFRing>
0

>  <nFHRing>
0

>  <nFaRing>
0

>  <nFaHRing>
0

>  <nFARing 2>
0

>  <nFAHRing 2>
0

>  <nRot>
7

>  <SLogP>
3.01

>  <SMR>
100.11

>  <TopoPSA(NO)>
89.9

>  <TopoPSA>
98.28

>  <JGI1>
0.26

>  <JGI2>
0.13

>  <JGI3>
0.09

>  <JGI4>
0.06

>  <JGI5>
0.03

>  <Diameter>
13

>  <Radius>
7

>  <TMWC10>
135.3

>  <TSRW10>
84.43

>  <MW>
410.06

>  <AMW>
8.91

>  <WPath>
1733

>  <WPol>
47

>  <Zagreb1>
146

>  <Zagreb2>
181

>  <mZagreb2>
6.01

>  <yes>


>  <nAR-cont>
0.816016

>  <nHA-cont>
0.860070871

>  <MWHBN>
0.2962972

>  <MWHBN-cont>
0.851658831

>  <TPSA-cont>
0.313944572

>  <pka_cont>
0.97

>  <yes.1>


>  <BBB_SCORE>
4.066464262

>  <MMFF94 Energy>
28.545

$$$$
Compound 2197
Actelion Java MolfileCreator 2.0

  0  0  0  0  0  0              0 V3000
M  V30 BEGIN CTAB
M  V30 COUNTS 27 28 0 0 0
M  V30 BEGIN ATOM
M  V30 1 F 4.5162 0.0 -1.5305 0
M  V30 2 C 3.5809 0.1176 -0.5787 0
M  V30 3 C 2.2388 -0.0349 -0.9146 0
M  V30 4 C 3.9703 0.3888 0.7266 0
M  V30 5 C 1.256 0.0824 0.0716 0
M  V30 6 C 2.9995 0.5118 1.7161 0
M  V30 7 N -0.0917 -0.0701 -0.2409 0
M  V30 8 C 1.6476 0.3597 1.3893 0
M  V30 9 C -0.7591 -0.1707 -1.4162 0
M  V30 10 C -1.2756 -0.1495 0.6244 0 CFG=1
M  V30 11 O -0.4011 -0.1856 -2.5719 0
M  V30 12 C -2.1256 -0.2323 -0.6777 0 CFG=1
M  V30 13 C -1.3455 -1.4047 1.549 0
M  V30 14 O -3.0352 0.8754 -0.916 0
M  V30 15 O -1.4451 -2.5826 1.2275 0
M  V30 16 O -1.2869 -1.1059 2.8719 0
M  V30 17 C -3.5691 0.9573 -2.232 0
M  V30 18 H 1.9898 -0.2479 -1.9496 0
M  V30 19 H 5.0237 0.5041 0.9606 0
M  V30 20 H 3.291 0.7292 2.7407 0
M  V30 21 H 0.914 0.4741 2.1832 0
M  V30 22 H -1.4308 0.7883 1.1735 0
M  V30 23 H -2.637 -1.1913 -0.8233 0
M  V30 24 H -1.3366 -1.9813 3.3135 0
M  V30 25 H -4.0164 0.0022 -2.5214 0
M  V30 26 H -4.3436 1.7285 -2.2434 0
M  V30 27 H -2.7848 1.2364 -2.9403 0
M  V30 END ATOM
M  V30 BEGIN BOND
M  V30 1 1 1 2
M  V30 2 2 2 3
M  V30 3 1 2 4
M  V30 4 1 3 5
M  V30 5 2 4 6
M  V30 6 1 5 7
M  V30 7 2 5 8
M  V30 8 1 7 9
M  V30 9 1 7 10
M  V30 10 2 9 11
M  V30 11 1 9 12
M  V30 12 1 10 13
M  V30 13 1 12 14
M  V30 14 2 13 15
M  V30 15 1 13 16
M  V30 16 1 14 17
M  V30 17 1 6 8
M  V30 18 1 10 12
M  V30 19 1 3 18
M  V30 20 1 4 19
M  V30 21 1 6 20
M  V30 22 1 8 21
M  V30 23 1 10 22
M  V30 24 1 12 23
M  V30 25 1 16 24
M  V30 26 1 17 25
M  V30 27 1 17 26
M  V30 28 1 17 27
M  V30 END BOND
M  V30 BEGIN COLLECTION
M  V30 MDLV30/STEABS ATOMS=(2 10 12)
M  V30 END COLLECTION
M  V30 END CTAB
M  END
>  <Column 1>
2697

>  <level_0>
3930

>  <index>
3930

>  <Unnamed: 0>
3930

>  <NO.>
3942

>  <Name>
nandrolone

>  <IUPAC_name>
(2s-3r)-1-(3-fluorophenyl)-3-methoxy-4-oxoazetidine-2-carboxylic acid

>  <SMILES>
CO[C@H]1C(=O)N(c2cccc(F)c2)[C@@H]1C(=O)O

>  <CID>
100009904

>  <logBB>


>  <BBB+/BBB->
BBB-

>  <Inchi>
InChI=1S/C11H10FNO4/c1-17-9-8(11(15)16)13(10(9)14)7-4-2-3-6(12)5-7/h2-5-8-9H-1H3-(H-15-16)/t8--9+/m0/s1

>  <threshold>
-1

>  <reference>
R16|R10|R10|

>  <group>
B

>  <Class>
1

>  <ABC>
12.92

>  <ABCGG>
11.88

>  <nAcid>
1

>  <nBase>
0

>  <nAromAtom>
6

>  <nAromBond>
6

>  <nAtom>
27

>  <nHeavyAtom>
17

>  <nSpiro>
0

>  <nBridgehead>
0

>  <nHetero>
6

>  <nN>
1

>  <nO>
4

>  <nF>
1

>  <BalabanJ>
2.03

>  <BertzCT>
476.29

>  <nBonds>
28

>  <nBondsO>
18

>  <nBondsS>
20

>  <nBondsD>
2

>  <nBondsT>
0

>  <nBondsA>
6

>  <nBondsM>
8

>  <nBondsKS>
23

>  <nBondsKD>
5

>  <RNCG>
0.24

>  <RPCG>
0.17

>  <FCSP3>
0.27

>  <SZ>
20.67

>  <Sm>
19.92

>  <Sv>
17.97

>  <Sse>
28.38

>  <Sp>
17.91

>  <Si>
30.75

>  <MZ>
0.77

>  <Mm>
0.74

>  <Mv>
0.67

>  <Mse>
1.05

>  <Mp>
0.66

>  <Mi>
1.14

>  <NsCH3>
1

>  <NdCH2>
0

>  <NssCH2>
0

>  <NtCH>
0

>  <NdsCH>
0

>  <NaaCH>
4

>  <NsssCH>
2

>  <NddC>
0

>  <NtsC>
0

>  <NdssC>
2

>  <NaasC>
2

>  <NaaaC>
0

>  <NssssC>
0

>  <NsNH3>
0

>  <NsNH2>
0

>  <NssNH2>
0

>  <NdNH>
0

>  <NssNH>
0

>  <NaaNH>
0

>  <NtN>
0

>  <NsssNH>
0

>  <NdsN>
0

>  <NaaN>
0

>  <NsssN>
1

>  <NddsN>
0

>  <NaasN>
0

>  <NssssN>
0

>  <NsOH>
1

>  <NdO>
2

>  <NssO>
1

>  <NaaO>
0

>  <NsF>
1

>  <NsSiH3>
0

>  <NssSiH2>
0

>  <NsssSiH>
0

>  <NssssSi>
0

>  <NsPH2>
0

>  <NssPH>
0

>  <NsssP>
0

>  <NdsssP>
0

>  <NsssssP>
0

>  <NsSH>
0

>  <NdS>
0

>  <NssS>
0

>  <NaaS>
0

>  <NdssS>
0

>  <NddssS>
0

>  <NsCl>
0

>  <NsBr>
0

>  <NsI>
0

>  <fragCpx>
52.06

>  <fMF>
0.37

>  <nHBAcc>
3

>  <nHBDon>
1

>  <Kier1>
13.43

>  <Kier2>
5.33

>  <Lipinski>
1

>  <GhoseFilter>
1

>  <FilterItLogS>
-1.17

>  <VMcGowan>
157.85

>  <LabuteASA>
96.41

>  <PEOE_VSA1>
9.84

>  <PEOE_VSA2>
9.69

>  <PEOE_VSA3>
9.18

>  <PEOE_VSA4>
0

>  <PEOE_VSA5>
0

>  <PEOE_VSA6>
6.07

>  <PEOE_VSA7>
18.2

>  <PEOE_VSA8>
12.8

>  <PEOE_VSA9>
0

>  <PEOE_VSA10>
5.82

>  <PEOE_VSA11>
12.15

>  <PEOE_VSA12>
0

>  <PEOE_VSA13>
5.91

>  <SMR_VSA1>
23.82

>  <SMR_VSA2>
0

>  <SMR_VSA3>
0

>  <SMR_VSA4>
0

>  <SMR_VSA5>
12.15

>  <SMR_VSA6>
12.01

>  <SMR_VSA7>
30.08

>  <SMR_VSA8>
0

>  <SMR_VSA9>
0

>  <SlogP_VSA1>
4.9

>  <SlogP_VSA2>
36.24

>  <SlogP_VSA3>
14.33

>  <SlogP_VSA4>
5.82

>  <SlogP_VSA5>
0

>  <SlogP_VSA6>
24.27

>  <SlogP_VSA7>
0

>  <SlogP_VSA8>
0

>  <SlogP_VSA9>
0

>  <SlogP_VSA10>
10.08

>  <SlogP_VSA11>
0

>  <EState_VSA1>
29.84

>  <EState_VSA2>
5.69

>  <EState_VSA3>
0

>  <EState_VSA4>
10.97

>  <EState_VSA5>
25.31

>  <EState_VSA6>
0

>  <EState_VSA7>
0

>  <EState_VSA8>
0

>  <EState_VSA9>
9.84

>  <EState_VSA10>
13.98

>  <VSA_EState1>
17.79

>  <VSA_EState2>
23.65

>  <VSA_EState3>
8.99

>  <VSA_EState4>
0.22

>  <VSA_EState5>
-2.19

>  <VSA_EState6>
4.12

>  <VSA_EState7>
-1

>  <VSA_EState8>
0

>  <VSA_EState9>
1.27

>  <apol>
29.9

>  <bpol>
16.33

>  <nRing>
2

>  <nHRing>
1

>  <naRing>
1

>  <naHRing>
0

>  <nARing 2>
1

>  <nAHRing 2>
1

>  <nFRing>
0

>  <nFHRing>
0

>  <nFaRing>
0

>  <nFaHRing>
0

>  <nFARing 2>
0

>  <nFAHRing 2>
0

>  <nRot>
3

>  <SLogP>
0.64

>  <SMR>
56.11

>  <TopoPSA(NO)>
66.84

>  <TopoPSA>
66.84

>  <JGI1>
0.19

>  <JGI2>
0.08

>  <JGI3>
0.1

>  <JGI4>
0.07

>  <JGI5>
0.02

>  <Diameter>
8

>  <Radius>
4

>  <TMWC10>
108.07

>  <TSRW10>
50.75

>  <MW>
239.06

>  <AMW>
8.85

>  <WPath>
498

>  <WPol>
25

>  <Zagreb1>
88

>  <Zagreb2>
106

>  <mZagreb2>
3.83

>  <yes>


>  <nAR-cont>
0.816016

>  <nHA-cont>
0.976740822

>  <MWHBN>
0.258706019

>  <MWHBN-cont>
0.943963518

>  <TPSA-cont>
0.533415295

>  <pka_cont>
0.97

>  <yes.1>


>  <BBB_SCORE>
4.760532688

>  <MMFF94 Energy>
22.447

$$$$
Compound 2198
Actelion Java MolfileCreator 2.0

  0  0  0  0  0  0              0 V3000
M  V30 BEGIN CTAB
M  V30 COUNTS 56 58 0 0 0
M  V30 BEGIN ATOM
M  V30 1 O -0.789 2.9219 1.6575 0
M  V30 2 C 0.0324 2.041 1.4332 0
M  V30 3 N 0.0317 1.271 0.2895 0
M  V30 4 C 1.1315 1.7814 2.4012 0
M  V30 5 C -0.9873 1.4475 -0.7256 0
M  V30 6 C 1.6131 2.8616 3.1546 0
M  V30 7 C 1.6583 0.4939 2.58 0
M  V30 8 C -1.0018 0.2859 -1.7092 0
M  V30 9 C 2.6449 2.6716 4.0729 0
M  V30 10 C 2.6906 0.285 3.4954 0
M  V30 11 C -2.1001 0.4724 -2.7563 0
M  V30 12 O 3.1994 3.6592 4.845 0
M  V30 13 C 3.1689 1.3774 4.243 0
M  V30 14 O 3.2823 -0.9257 3.7466 0
M  V30 15 N -2.1086 -0.637 -3.7126 0
M  V30 16 C 2.7129 4.9829 4.6656 0
M  V30 17 O 4.2217 1.1842 5.1117 0
M  V30 18 C 2.8728 -2.038 2.9632 0
M  V30 19 C -2.7257 -1.8591 -3.4542 0
M  V30 20 C -1.205 -0.5359 -4.8606 0
M  V30 21 C 3.7253 0.8897 6.4165 0
M  V30 22 C -2.6743 -2.9088 -4.4004 0
M  V30 23 C -3.4443 -2.1107 -2.2727 0
M  V30 24 C -1.7732 -1.2718 -6.0605 0
M  V30 25 C -3.2786 -4.153 -4.1386 0
M  V30 26 C -1.9399 -2.7395 -5.707 0
M  V30 27 C -4.0561 -3.3446 -2.0206 0
M  V30 28 C -3.9691 -4.3688 -2.9522 0
M  V30 29 H 0.823 0.6756 0.0845 0
M  V30 30 H -0.7761 2.3915 -1.2406 0
M  V30 31 H -1.9597 1.5471 -0.2295 0
M  V30 32 H 1.1654 3.8384 2.9954 0
M  V30 33 H 1.2345 -0.3322 2.0212 0
M  V30 34 H -1.1429 -0.6545 -1.1633 0
M  V30 35 H -0.0241 0.2071 -2.2016 0
M  V30 36 H -3.0826 0.6001 -2.2872 0
M  V30 37 H -1.9232 1.4131 -3.2939 0
M  V30 38 H 2.8831 5.3316 3.6416 0
M  V30 39 H 3.2742 5.6391 5.3378 0
M  V30 40 H 1.6548 5.0542 4.9385 0
M  V30 41 H 1.8225 -2.2845 3.1502 0
M  V30 42 H 3.4755 -2.8999 3.265 0
M  V30 43 H 3.0544 -1.8608 1.898 0
M  V30 44 H -1.052 0.5142 -5.1359 0
M  V30 45 H -0.2221 -0.9417 -4.5896 0
M  V30 46 H 3.1427 1.7243 6.8215 0
M  V30 47 H 4.5858 0.73 7.0732 0
M  V30 48 H 3.125 -0.0267 6.4185 0
M  V30 49 H -3.545 -1.3499 -1.5057 0
M  V30 50 H -2.7428 -0.8389 -6.3391 0
M  V30 51 H -1.1079 -1.1673 -6.9244 0
M  V30 52 H -3.2154 -4.9553 -4.8701 0
M  V30 53 H -2.4848 -3.2396 -6.5165 0
M  V30 54 H -0.9572 -3.2189 -5.6183 0
M  V30 55 H -4.5994 -3.4978 -1.0919 0
M  V30 56 H -4.4401 -5.3282 -2.7588 0
M  V30 END ATOM
M  V30 BEGIN BOND
M  V30 1 2 1 2
M  V30 2 1 2 3
M  V30 3 1 2 4
M  V30 4 1 3 5
M  V30 5 2 4 6
M  V30 6 1 4 7
M  V30 7 1 5 8
M  V30 8 1 6 9
M  V30 9 2 7 10
M  V30 10 1 8 11
M  V30 11 1 9 12
M  V30 12 2 9 13
M  V30 13 1 10 14
M  V30 14 1 11 15
M  V30 15 1 12 16
M  V30 16 1 13 17
M  V30 17 1 14 18
M  V30 18 1 15 19
M  V30 19 1 15 20
M  V30 20 1 17 21
M  V30 21 2 19 22
M  V30 22 1 19 23
M  V30 23 1 20 24
M  V30 24 1 22 25
M  V30 25 1 22 26
M  V30 26 2 23 27
M  V30 27 2 25 28
M  V30 28 1 10 13
M  V30 29 1 24 26
M  V30 30 1 27 28
M  V30 31 1 3 29
M  V30 32 1 5 30
M  V30 33 1 5 31
M  V30 34 1 6 32
M  V30 35 1 7 33
M  V30 36 1 8 34
M  V30 37 1 8 35
M  V30 38 1 11 36
M  V30 39 1 11 37
M  V30 40 1 16 38
M  V30 41 1 16 39
M  V30 42 1 16 40
M  V30 43 1 18 41
M  V30 44 1 18 42
M  V30 45 1 18 43
M  V30 46 1 20 44
M  V30 47 1 20 45
M  V30 48 1 21 46
M  V30 49 1 21 47
M  V30 50 1 21 48
M  V30 51 1 23 49
M  V30 52 1 24 50
M  V30 53 1 24 51
M  V30 54 1 25 52
M  V30 55 1 26 53
M  V30 56 1 26 54
M  V30 57 1 27 55
M  V30 58 1 28 56
M  V30 END BOND
M  V30 END CTAB
M  END
>  <Column 1>
2699

>  <level_0>
3932

>  <index>
3932

>  <Unnamed: 0>
3932

>  <NO.>
3944

>  <Name>
stavudine

>  <IUPAC_name>
n-[3-(3-4-dihydro-2h-quinolin-1-yl)propyl]-3-4-5-trimethoxybenzamide

>  <SMILES>
COc1cc(C(=O)NCCCN2CCCc3ccccc32)cc(OC)c1OC

>  <CID>
100005155

>  <logBB>


>  <BBB+/BBB->
BBB+

>  <Inchi>
InChI=1S/C22H28N2O4/c1-26-19-14-17(15-20(27-2)21(19)28-3)22(25)23-11-7-13-24-12-6-9-16-8-4-5-10-18(16)24/h4-5-8-10-14-15H-6-7-9-11-13H2-1-3H3-(H-23-25)

>  <threshold>
-1

>  <reference>
R16|R10|

>  <group>
B

>  <Class>
1

>  <ABC>
21.12

>  <ABCGG>
16.53

>  <nAcid>
0

>  <nBase>
0

>  <nAromAtom>
12

>  <nAromBond>
12

>  <nAtom>
56

>  <nHeavyAtom>
28

>  <nSpiro>
0

>  <nBridgehead>
0

>  <nHetero>
6

>  <nN>
2

>  <nO>
4

>  <nF>
0

>  <BalabanJ>
1.4

>  <BertzCT>
796.93

>  <nBonds>
58

>  <nBondsO>
30

>  <nBondsS>
45

>  <nBondsD>
1

>  <nBondsT>
0

>  <nBondsA>
12

>  <nBondsM>
13

>  <nBondsKS>
51

>  <nBondsKD>
7

>  <RNCG>
0.18

>  <RPCG>
0.09

>  <FCSP3>
0.41

>  <SZ>
34.33

>  <Sm>
32.01

>  <Sv>
33.96

>  <Sse>
56.08

>  <Sp>
36.42

>  <Si>
63.23

>  <MZ>
0.61

>  <Mm>
0.57

>  <Mv>
0.61

>  <Mse>
1

>  <Mp>
0.65

>  <Mi>
1.13

>  <NsCH3>
3

>  <NdCH2>
0

>  <NssCH2>
6

>  <NtCH>
0

>  <NdsCH>
0

>  <NaaCH>
6

>  <NsssCH>
0

>  <NddC>
0

>  <NtsC>
0

>  <NdssC>
1

>  <NaasC>
6

>  <NaaaC>
0

>  <NssssC>
0

>  <NsNH3>
0

>  <NsNH2>
0

>  <NssNH2>
0

>  <NdNH>
0

>  <NssNH>
1

>  <NaaNH>
0

>  <NtN>
0

>  <NsssNH>
0

>  <NdsN>
0

>  <NaaN>
0

>  <NsssN>
1

>  <NddsN>
0

>  <NaasN>
0

>  <NssssN>
0

>  <NsOH>
0

>  <NdO>
1

>  <NssO>
3

>  <NaaO>
0

>  <NsF>
0

>  <NsSiH3>
0

>  <NssSiH2>
0

>  <NsssSiH>
0

>  <NssssSi>
0

>  <NsPH2>
0

>  <NssPH>
0

>  <NsssP>
0

>  <NdsssP>
0

>  <NsssssP>
0

>  <NsSH>
0

>  <NdS>
0

>  <NssS>
0

>  <NaaS>
0

>  <NdssS>
0

>  <NddssS>
0

>  <NsCl>
0

>  <NsBr>
0

>  <NsI>
0

>  <fragCpx>
144.06

>  <fMF>
0.38

>  <nHBAcc>
5

>  <nHBDon>
1

>  <Kier1>
22.68

>  <Kier2>
11.41

>  <Lipinski>
1

>  <GhoseFilter>
1

>  <FilterItLogS>
-5.71

>  <VMcGowan>
301.6

>  <LabuteASA>
165.94

>  <PEOE_VSA1>
24.43

>  <PEOE_VSA2>
4.79

>  <PEOE_VSA3>
0

>  <PEOE_VSA4>
0

>  <PEOE_VSA5>
0

>  <PEOE_VSA6>
18.2

>  <PEOE_VSA7>
43.03

>  <PEOE_VSA8>
30.89

>  <PEOE_VSA9>
21.33

>  <PEOE_VSA10>
0

>  <PEOE_VSA11>
11.5

>  <PEOE_VSA12>
5.75

>  <PEOE_VSA13>
5.91

>  <SMR_VSA1>
19.01

>  <SMR_VSA2>
0

>  <SMR_VSA3>
5.32

>  <SMR_VSA4>
0

>  <SMR_VSA5>
19.26

>  <SMR_VSA6>
45.86

>  <SMR_VSA7>
47.53

>  <SMR_VSA8>
0

>  <SMR_VSA9>
17.25

>  <SlogP_VSA1>
24.43

>  <SlogP_VSA2>
46.87

>  <SlogP_VSA3>
6.42

>  <SlogP_VSA4>
0

>  <SlogP_VSA5>
28.76

>  <SlogP_VSA6>
36.4

>  <SlogP_VSA7>
0

>  <SlogP_VSA8>
0

>  <SlogP_VSA9>
0

>  <SlogP_VSA10>
5.69

>  <SlogP_VSA11>
17.25

>  <EState_VSA1>
0

>  <EState_VSA2>
5.91

>  <EState_VSA3>
29.36

>  <EState_VSA4>
25.93

>  <EState_VSA5>
31.89

>  <EState_VSA6>
19.24

>  <EState_VSA7>
0

>  <EState_VSA8>
34.48

>  <EState_VSA9>
14.21

>  <EState_VSA10>
4.79

>  <VSA_EState1>
15.93

>  <VSA_EState2>
14.96

>  <VSA_EState3>
2.99

>  <VSA_EState4>
3.22

>  <VSA_EState5>
1.26

>  <VSA_EState6>
11.9

>  <VSA_EState7>
3.2

>  <VSA_EState8>
2.6

>  <VSA_EState9>
4.61

>  <apol>
60.82

>  <bpol>
36.45

>  <nRing>
3

>  <nHRing>
1

>  <naRing>
2

>  <naHRing>
0

>  <nARing 2>
1

>  <nAHRing 2>
1

>  <nFRing>
1

>  <nFHRing>
1

>  <nFaRing>
0

>  <nFaHRing>
0

>  <nFARing 2>
1

>  <nFAHRing 2>
1

>  <nRot>
8

>  <SLogP>
3.29

>  <SMR>
110.02

>  <TopoPSA(NO)>
60.03

>  <TopoPSA>
60.03

>  <JGI1>
0.15

>  <JGI2>
0.08

>  <JGI3>
0.04

>  <JGI4>
0.04

>  <JGI5>
0.03

>  <Diameter>
15

>  <Radius>
8

>  <TMWC10>
133.59

>  <TSRW10>
63.11

>  <MW>
384.2

>  <AMW>
6.86

>  <WPath>
2358

>  <WPol>
45

>  <Zagreb1>
140

>  <Zagreb2>
164

>  <mZagreb2>
6.56

>  <yes>


>  <nAR-cont>
0.816016

>  <nHA-cont>
0.82432561

>  <MWHBN>
0.306106513

>  <MWHBN-cont>
0.822118712

>  <TPSA-cont>
0.580953324

>  <pka_cont>
0.97

>  <yes.1>


>  <BBB_SCORE>
4.520426325

>  <MMFF94 Energy>
50.262

$$$$
Compound 2199
Actelion Java MolfileCreator 2.0

  0  0  0  0  0  0              0 V3000
M  V30 BEGIN CTAB
M  V30 COUNTS 55 57 0 0 0
M  V30 BEGIN ATOM
M  V30 1 O -0.2373 -0.7911 -2.3749 0
M  V30 2 C 0.3097 -0.3667 -1.364 0
M  V30 3 N -0.3603 -0.1089 -0.1903 0
M  V30 4 C 1.7669 -0.0645 -1.374 0
M  V30 5 C -1.7912 -0.3515 -0.0557 0 CFG=1
M  V30 6 C 2.5473 -0.1727 -0.2137 0
M  V30 7 C 2.3506 0.31 -2.593 0
M  V30 8 C -2.1673 -0.6077 1.3826 0
M  V30 9 C -2.5641 0.8457 -0.6081 0
M  V30 10 C 3.911 0.12 -0.2612 0
M  V30 11 C 3.712 0.6036 -2.6594 0
M  V30 12 C -3.3136 -0.0273 1.9323 0
M  V30 13 C -1.4032 -1.4733 2.1836 0
M  V30 14 C -4.0367 0.797 -0.1908 0
M  V30 15 O 4.7635 0.0504 0.81 0
M  V30 16 C 4.4852 0.4934 -1.4901 0
M  V30 17 O 4.376 0.992 -3.7936 0
M  V30 18 O -4.1679 0.7877 1.2411 0
M  V30 19 C -3.6517 -0.2524 3.2694 0
M  V30 20 C -1.7494 -1.7088 3.5162 0
M  V30 21 C -4.7934 -0.4017 -0.783 0
M  V30 22 C -4.7271 2.0856 -0.6635 0
M  V30 23 C 4.1936 -0.1577 2.0947 0
M  V30 24 O 5.8217 0.8272 -1.53 0
M  V30 25 C 3.6083 1.1607 -4.9779 0
M  V30 26 C -2.8801 -1.1023 4.0696 0
M  V30 27 C 6.5988 -0.323 -1.859 0
M  V30 28 C -3.2371 -1.3204 5.5096 0
M  V30 29 H 0.0986 0.3762 0.5679 0
M  V30 30 H -2.0431 -1.2475 -0.6369 0
M  V30 31 H 2.0869 -0.5132 0.7058 0
M  V30 32 H 1.714 0.3678 -3.4711 0
M  V30 33 H -2.1133 1.7688 -0.2144 0
M  V30 34 H -2.4642 0.8923 -1.6998 0
M  V30 35 H -0.531 -1.975 1.7698 0
M  V30 36 H -4.5359 0.2312 3.679 0
M  V30 37 H -1.1338 -2.3744 4.1173 0
M  V30 38 H -4.7358 -0.4088 -1.8764 0
M  V30 39 H -5.8502 -0.3719 -0.4927 0
M  V30 40 H -4.4093 -1.3574 -0.4129 0
M  V30 41 H -4.6926 2.1871 -1.7532 0
M  V30 42 H -5.7761 2.1069 -0.3457 0
M  V30 43 H -4.2542 2.9683 -0.2173 0
M  V30 44 H 3.4565 0.6161 2.3338 0
M  V30 45 H 4.9985 -0.0905 2.8329 0
M  V30 46 H 3.7554 -1.158 2.1707 0
M  V30 47 H 3.1662 0.2119 -5.2989 0
M  V30 48 H 4.2849 1.4965 -5.7695 0
M  V30 49 H 2.8417 1.9315 -4.8464 0
M  V30 50 H 6.4791 -1.1137 -1.1103 0
M  V30 51 H 7.6511 -0.0239 -1.8676 0
M  V30 52 H 6.3484 -0.7039 -2.8549 0
M  V30 53 H -2.9142 -2.3109 5.8469 0
M  V30 54 H -2.7564 -0.5605 6.1333 0
M  V30 55 H -4.3209 -1.2655 5.656 0
M  V30 END ATOM
M  V30 BEGIN BOND
M  V30 1 2 1 2
M  V30 2 1 2 3
M  V30 3 1 2 4
M  V30 4 1 3 5
M  V30 5 2 4 6
M  V30 6 1 4 7
M  V30 7 1 5 8
M  V30 8 1 5 9
M  V30 9 1 6 10
M  V30 10 2 7 11
M  V30 11 2 8 12
M  V30 12 1 8 13
M  V30 13 1 9 14
M  V30 14 1 10 15
M  V30 15 2 10 16
M  V30 16 1 11 17
M  V30 17 1 12 18
M  V30 18 1 12 19
M  V30 19 2 13 20
M  V30 20 1 14 21
M  V30 21 1 14 22
M  V30 22 1 15 23
M  V30 23 1 16 24
M  V30 24 1 17 25
M  V30 25 2 19 26
M  V30 26 1 24 27
M  V30 27 1 26 28
M  V30 28 1 11 16
M  V30 29 1 14 18
M  V30 30 1 20 26
M  V30 31 1 3 29
M  V30 32 1 5 30
M  V30 33 1 6 31
M  V30 34 1 7 32
M  V30 35 1 9 33
M  V30 36 1 9 34
M  V30 37 1 13 35
M  V30 38 1 19 36
M  V30 39 1 20 37
M  V30 40 1 21 38
M  V30 41 1 21 39
M  V30 42 1 21 40
M  V30 43 1 22 41
M  V30 44 1 22 42
M  V30 45 1 22 43
M  V30 46 1 23 44
M  V30 47 1 23 45
M  V30 48 1 23 46
M  V30 49 1 25 47
M  V30 50 1 25 48
M  V30 51 1 25 49
M  V30 52 1 27 50
M  V30 53 1 27 51
M  V30 54 1 27 52
M  V30 55 1 28 53
M  V30 56 1 28 54
M  V30 57 1 28 55
M  V30 END BOND
M  V30 BEGIN COLLECTION
M  V30 MDLV30/STEABS ATOMS=(1 5)
M  V30 END COLLECTION
M  V30 END CTAB
M  END
>  <Column 1>
2700

>  <level_0>
3933

>  <index>
3933

>  <Unnamed: 0>
3933

>  <NO.>
3945

>  <Name>
ropinirole

>  <IUPAC_name>
3-4-5-trimethoxy-n-[(4r)-2-2-7-trimethyl-3-4-dihydrochromen-4-yl]benzamide

>  <SMILES>
COc1cc(C(=O)N[C@@H]2CC(C)(C)Oc3cc(C)ccc32)cc(OC)c1OC

>  <CID>
100005095

>  <logBB>


>  <BBB+/BBB->
BBB+

>  <Inchi>
InChI=1S/C22H27NO5/c1-13-7-8-15-16(12-22(2-3)28-17(15)9-13)23-21(24)14-10-18(25-4)20(27-6)19(11-14)26-5/h7-11-16H-12H2-1-6H3-(H-23-24)/t16-/m1/s1

>  <threshold>
-1

>  <reference>
R16|R10|

>  <group>
B

>  <Class>
-1

>  <ABC>
21.55

>  <ABCGG>
17.6

>  <nAcid>
0

>  <nBase>
0

>  <nAromAtom>
12

>  <nAromBond>
12

>  <nAtom>
55

>  <nHeavyAtom>
28

>  <nSpiro>
0

>  <nBridgehead>
0

>  <nHetero>
6

>  <nN>
1

>  <nO>
5

>  <nF>
0

>  <BalabanJ>
1.67

>  <BertzCT>
865.49

>  <nBonds>
57

>  <nBondsO>
30

>  <nBondsS>
44

>  <nBondsD>
1

>  <nBondsT>
0

>  <nBondsA>
12

>  <nBondsM>
13

>  <nBondsKS>
50

>  <nBondsKD>
7

>  <RNCG>
0.17

>  <RPCG>
0.09

>  <FCSP3>
0.41

>  <SZ>
34.33

>  <Sm>
32.09

>  <Sv>
33.65

>  <Sse>
55.3

>  <Sp>
35.84

>  <Si>
61.94

>  <MZ>
0.62

>  <Mm>
0.58

>  <Mv>
0.61

>  <Mse>
1.01

>  <Mp>
0.65

>  <Mi>
1.13

>  <NsCH3>
6

>  <NdCH2>
0

>  <NssCH2>
1

>  <NtCH>
0

>  <NdsCH>
0

>  <NaaCH>
5

>  <NsssCH>
1

>  <NddC>
0

>  <NtsC>
0

>  <NdssC>
1

>  <NaasC>
7

>  <NaaaC>
0

>  <NssssC>
1

>  <NsNH3>
0

>  <NsNH2>
0

>  <NssNH2>
0

>  <NdNH>
0

>  <NssNH>
1

>  <NaaNH>
0

>  <NtN>
0

>  <NsssNH>
0

>  <NdsN>
0

>  <NaaN>
0

>  <NsssN>
0

>  <NddsN>
0

>  <NaasN>
0

>  <NssssN>
0

>  <NsOH>
0

>  <NdO>
1

>  <NssO>
4

>  <NaaO>
0

>  <NsF>
0

>  <NsSiH3>
0

>  <NssSiH2>
0

>  <NsssSiH>
0

>  <NssssSi>
0

>  <NsPH2>
0

>  <NssPH>
0

>  <NsssP>
0

>  <NdsssP>
0

>  <NsssssP>
0

>  <NsSH>
0

>  <NdS>
0

>  <NssS>
0

>  <NaaS>
0

>  <NdssS>
0

>  <NddssS>
0

>  <NsCl>
0

>  <NsBr>
0

>  <NsI>
0

>  <fragCpx>
144.06

>  <fMF>
0.33

>  <nHBAcc>
5

>  <nHBDon>
1

>  <Kier1>
22.68

>  <Kier2>
9.43

>  <Lipinski>
1

>  <GhoseFilter>
1

>  <FilterItLogS>
-5.97

>  <VMcGowan>
297.49

>  <LabuteASA>
165.3

>  <PEOE_VSA1>
24.26

>  <PEOE_VSA2>
4.79

>  <PEOE_VSA3>
0

>  <PEOE_VSA4>
0

>  <PEOE_VSA5>
0

>  <PEOE_VSA6>
12.13

>  <PEOE_VSA7>
44.53

>  <PEOE_VSA8>
17.55

>  <PEOE_VSA9>
27.37

>  <PEOE_VSA10>
11.35

>  <PEOE_VSA11>
11.5

>  <PEOE_VSA12>
5.75

>  <PEOE_VSA13>
5.91

>  <SMR_VSA1>
23.74

>  <SMR_VSA2>
0

>  <SMR_VSA3>
5.32

>  <SMR_VSA4>
0

>  <SMR_VSA5>
38.83

>  <SMR_VSA6>
21.33

>  <SMR_VSA7>
47.02

>  <SMR_VSA8>
0

>  <SMR_VSA9>
23

>  <SlogP_VSA1>
24.26

>  <SlogP_VSA2>
32.84

>  <SlogP_VSA3>
0

>  <SlogP_VSA4>
6.92

>  <SlogP_VSA5>
47.8

>  <SlogP_VSA6>
30.33

>  <SlogP_VSA7>
0

>  <SlogP_VSA8>
0

>  <SlogP_VSA9>
0

>  <SlogP_VSA10>
0

>  <SlogP_VSA11>
23

>  <EState_VSA1>
0

>  <EState_VSA2>
17.55

>  <EState_VSA3>
29.23

>  <EState_VSA4>
16.88

>  <EState_VSA5>
21.33

>  <EState_VSA6>
12.13

>  <EState_VSA7>
38.97

>  <EState_VSA8>
5.32

>  <EState_VSA9>
18.95

>  <EState_VSA10>
4.79

>  <VSA_EState1>
22.16

>  <VSA_EState2>
13.03

>  <VSA_EState3>
3.14

>  <VSA_EState4>
2.15

>  <VSA_EState5>
1.93

>  <VSA_EState6>
9.19

>  <VSA_EState7>
0.67

>  <VSA_EState8>
6.07

>  <VSA_EState9>
4.58

>  <apol>
59.85

>  <bpol>
35.47

>  <nRing>
3

>  <nHRing>
1

>  <naRing>
2

>  <naHRing>
0

>  <nARing 2>
1

>  <nAHRing 2>
1

>  <nFRing>
1

>  <nFHRing>
1

>  <nFaRing>
0

>  <nFaHRing>
0

>  <nFARing 2>
1

>  <nFAHRing 2>
1

>  <nRot>
5

>  <SLogP>
4.05

>  <SMR>
106.81

>  <TopoPSA(NO)>
66.02

>  <TopoPSA>
66.02

>  <JGI1>
0.27

>  <JGI2>
0.09

>  <JGI3>
0.06

>  <JGI4>
0.06

>  <JGI5>
0.04

>  <Diameter>
13

>  <Radius>
7

>  <TMWC10>
135.05

>  <TSRW10>
63.65

>  <MW>
385.19

>  <AMW>
7

>  <WPath>
2020

>  <WPol>
48

>  <Zagreb1>
148

>  <Zagreb2>
175

>  <mZagreb2>
6.22

>  <yes>


>  <nAR-cont>
0.816016

>  <nHA-cont>
0.82432561

>  <MWHBN>
0.305712889

>  <MWHBN-cont>
0.823341111

>  <TPSA-cont>
0.539139404

>  <pka_cont>
0.97

>  <yes.1>


>  <BBB_SCORE>
4.438632085

>  <MMFF94 Energy>
57.862

$$$$
Compound 2200
Actelion Java MolfileCreator 2.0

  0  0  0  0  0  0              0 V3000
M  V30 BEGIN CTAB
M  V30 COUNTS 53 54 0 0 0
M  V30 BEGIN ATOM
M  V30 1 S 2.3047 2.3047 0.7148 0
M  V30 2 C 2.8064 3.9654 0.3057 0
M  V30 3 C 2.8087 1.4182 -0.8194 0 CFG=1
M  V30 4 C 4.1491 4.287 0.0933 0
M  V30 5 C 1.8408 4.9715 0.2217 0
M  V30 6 C 2.7999 -0.0903 -0.5614 0
M  V30 7 C 1.8783 1.7561 -1.9793 0
M  V30 8 C 4.5201 5.5974 -0.2211 0
M  V30 9 C 2.211 6.2819 -0.093 0
M  V30 10 O 3.7602 -0.8025 -0.8494 0
M  V30 11 N 1.6302 -0.6005 -0.0474 0
M  V30 12 C 3.555 6.607 -0.3073 0
M  V30 13 C 1.4807 -2.0047 0.2398 0
M  V30 14 C 3.9493 8.0067 -0.6759 0
M  V30 15 C 0.0462 -2.3296 0.5594 0
M  V30 16 C -0.8608 -2.6204 -0.4762 0
M  V30 17 C -0.4134 -2.2834 1.8814 0
M  V30 18 C -2.2062 -2.8879 -0.2002 0
M  V30 19 C -1.7502 -2.5521 2.1676 0
M  V30 20 O -3.1604 -3.156 -1.1458 0
M  V30 21 C -2.633 -2.8772 1.1369 0
M  V30 22 C -2.7731 -3.0759 -2.5102 0
M  V30 23 O -3.9392 -3.0928 1.4995 0
M  V30 24 C -4.3485 -4.4569 1.3068 0
M  V30 25 C -4.3845 -5.1444 2.669 0
M  V30 26 C -5.7404 -4.437 0.6841 0
M  V30 27 H 3.838 1.6929 -1.073 0
M  V30 28 H 4.922 3.5271 0.1773 0
M  V30 29 H 0.7913 4.7457 0.3955 0
M  V30 30 H 1.9515 2.8117 -2.2604 0
M  V30 31 H 0.8303 1.5342 -1.7477 0
M  V30 32 H 2.1426 1.1639 -2.8628 0
M  V30 33 H 5.5702 5.8255 -0.3908 0
M  V30 34 H 1.442 7.048 -0.1645 0
M  V30 35 H 0.9165 0.0449 0.2721 0
M  V30 36 H 1.8299 -2.591 -0.6181 0
M  V30 37 H 2.1353 -2.2542 1.0831 0
M  V30 38 H 3.2695 8.7363 -0.2232 0
M  V30 39 H 4.9577 8.2361 -0.3158 0
M  V30 40 H 3.9254 8.1278 -1.7632 0
M  V30 41 H -0.4859 -2.6225 -1.4953 0
M  V30 42 H 0.265 -2.0324 2.6942 0
M  V30 43 H -2.1084 -2.51 3.1925 0
M  V30 44 H -2.414 -2.0727 -2.7626 0
M  V30 45 H -3.659 -3.2749 -3.121 0
M  V30 46 H -2.0252 -3.8379 -2.7521 0
M  V30 47 H -3.6721 -5.015 0.6467 0
M  V30 48 H -4.7425 -6.1749 2.5842 0
M  V30 49 H -3.3854 -5.1618 3.1172 0
M  V30 50 H -5.033 -4.6024 3.3664 0
M  V30 51 H -6.1221 -5.4512 0.5322 0
M  V30 52 H -5.7214 -3.9244 -0.2832 0
M  V30 53 H -6.4465 -3.887 1.3162 0
M  V30 END ATOM
M  V30 BEGIN BOND
M  V30 1 1 1 2
M  V30 2 1 1 3
M  V30 3 2 2 4
M  V30 4 1 2 5
M  V30 5 1 3 6
M  V30 6 1 3 7
M  V30 7 1 4 8
M  V30 8 2 5 9
M  V30 9 2 6 10
M  V30 10 1 6 11
M  V30 11 2 8 12
M  V30 12 1 11 13
M  V30 13 1 12 14
M  V30 14 1 13 15
M  V30 15 2 15 16
M  V30 16 1 15 17
M  V30 17 1 16 18
M  V30 18 2 17 19
M  V30 19 1 18 20
M  V30 20 2 18 21
M  V30 21 1 20 22
M  V30 22 1 21 23
M  V30 23 1 23 24
M  V30 24 1 24 25
M  V30 25 1 24 26
M  V30 26 1 9 12
M  V30 27 1 19 21
M  V30 28 1 3 27
M  V30 29 1 4 28
M  V30 30 1 5 29
M  V30 31 1 7 30
M  V30 32 1 7 31
M  V30 33 1 7 32
M  V30 34 1 8 33
M  V30 35 1 9 34
M  V30 36 1 11 35
M  V30 37 1 13 36
M  V30 38 1 13 37
M  V30 39 1 14 38
M  V30 40 1 14 39
M  V30 41 1 14 40
M  V30 42 1 16 41
M  V30 43 1 17 42
M  V30 44 1 19 43
M  V30 45 1 22 44
M  V30 46 1 22 45
M  V30 47 1 22 46
M  V30 48 1 24 47
M  V30 49 1 25 48
M  V30 50 1 25 49
M  V30 51 1 25 50
M  V30 52 1 26 51
M  V30 53 1 26 52
M  V30 54 1 26 53
M  V30 END BOND
M  V30 BEGIN COLLECTION
M  V30 MDLV30/STEABS ATOMS=(1 3)
M  V30 END COLLECTION
M  V30 END CTAB
M  END
>  <Column 1>
2701

>  <level_0>
3934

>  <index>
3934

>  <Unnamed: 0>
3934

>  <NO.>
3946

>  <Name>
streptomycin

>  <IUPAC_name>
(2r)-n-[(3-methoxy-4-propan-2-yloxyphenyl)methyl]-2-(4-methylphenyl)sulfanylpropanamide

>  <SMILES>
COc1cc(CNC(=O)[C@@H](C)Sc2ccc(C)cc2)ccc1OC(C)C

>  <CID>
100005297

>  <logBB>


>  <BBB+/BBB->
BBB-

>  <Inchi>
InChI=1S/C21H27NO3S/c1-14(2)25-19-11-8-17(12-20(19)24-5)13-22-21(23)16(4)26-18-9-6-15(3)7-10-18/h6-12-14-16H-13H2-1-5H3-(H-22-23)/t16-/m1/s1

>  <threshold>
-1

>  <reference>
R16|R10|

>  <group>
B

>  <Class>
1

>  <ABC>
19.56

>  <ABCGG>
15.62

>  <nAcid>
0

>  <nBase>
0

>  <nAromAtom>
12

>  <nAromBond>
12

>  <nAtom>
53

>  <nHeavyAtom>
26

>  <nSpiro>
0

>  <nBridgehead>
0

>  <nHetero>
5

>  <nN>
1

>  <nO>
3

>  <nF>
0

>  <BalabanJ>
1.69

>  <BertzCT>
728.54

>  <nBonds>
54

>  <nBondsO>
27

>  <nBondsS>
41

>  <nBondsD>
1

>  <nBondsT>
0

>  <nBondsA>
12

>  <nBondsM>
13

>  <nBondsKS>
47

>  <nBondsKD>
7

>  <RNCG>
0.22

>  <RPCG>
0.1

>  <FCSP3>
0.38

>  <SZ>
33.33

>  <Sm>
31.1

>  <Sv>
32.4

>  <Sse>
52.72

>  <Sp>
35.62

>  <Si>
59.45

>  <MZ>
0.63

>  <Mm>
0.59

>  <Mv>
0.61

>  <Mse>
0.99

>  <Mp>
0.67

>  <Mi>
1.12

>  <NsCH3>
5

>  <NdCH2>
0

>  <NssCH2>
1

>  <NtCH>
0

>  <NdsCH>
0

>  <NaaCH>
7

>  <NsssCH>
2

>  <NddC>
0

>  <NtsC>
0

>  <NdssC>
1

>  <NaasC>
5

>  <NaaaC>
0

>  <NssssC>
0

>  <NsNH3>
0

>  <NsNH2>
0

>  <NssNH2>
0

>  <NdNH>
0

>  <NssNH>
1

>  <NaaNH>
0

>  <NtN>
0

>  <NsssNH>
0

>  <NdsN>
0

>  <NaaN>
0

>  <NsssN>
0

>  <NddsN>
0

>  <NaasN>
0

>  <NssssN>
0

>  <NsOH>
0

>  <NdO>
1

>  <NssO>
2

>  <NaaO>
0

>  <NsF>
0

>  <NsSiH3>
0

>  <NssSiH2>
0

>  <NsssSiH>
0

>  <NssssSi>
0

>  <NsPH2>
0

>  <NssPH>
0

>  <NsssP>
0

>  <NdsssP>
0

>  <NsssssP>
0

>  <NsSH>
0

>  <NdS>
0

>  <NssS>
1

>  <NaaS>
0

>  <NdssS>
0

>  <NddssS>
0

>  <NsCl>
0

>  <NsBr>
0

>  <NsI>
0

>  <fragCpx>
79.05

>  <fMF>
0.32

>  <nHBAcc>
4

>  <nHBDon>
1

>  <Kier1>
22.29

>  <Kier2>
11.11

>  <Lipinski>
1

>  <GhoseFilter>
1

>  <FilterItLogS>
-5.83

>  <VMcGowan>
298.87

>  <LabuteASA>
159.83

>  <PEOE_VSA1>
14.79

>  <PEOE_VSA2>
4.79

>  <PEOE_VSA3>
0

>  <PEOE_VSA4>
0

>  <PEOE_VSA5>
11.76

>  <PEOE_VSA6>
23.76

>  <PEOE_VSA7>
57.52

>  <PEOE_VSA8>
11.44

>  <PEOE_VSA9>
18.46

>  <PEOE_VSA10>
0

>  <PEOE_VSA11>
11.5

>  <PEOE_VSA12>
5.91

>  <PEOE_VSA13>
0

>  <SMR_VSA1>
14.27

>  <SMR_VSA2>
0

>  <SMR_VSA3>
5.32

>  <SMR_VSA4>
0

>  <SMR_VSA5>
50.49

>  <SMR_VSA6>
7.11

>  <SMR_VSA7>
53.59

>  <SMR_VSA8>
0

>  <SMR_VSA9>
11.5

>  <SlogP_VSA1>
14.79

>  <SlogP_VSA2>
24.37

>  <SlogP_VSA3>
11.34

>  <SlogP_VSA4>
6.92

>  <SlogP_VSA5>
31.9

>  <SlogP_VSA6>
47.36

>  <SlogP_VSA7>
0

>  <SlogP_VSA8>
0

>  <SlogP_VSA9>
0

>  <SlogP_VSA10>
0

>  <SlogP_VSA11>
11.5

>  <EState_VSA1>
0

>  <EState_VSA2>
17.26

>  <EState_VSA3>
18.04

>  <EState_VSA4>
10.46

>  <EState_VSA5>
5.56

>  <EState_VSA6>
18.87

>  <EState_VSA7>
51.1

>  <EState_VSA8>
24.37

>  <EState_VSA9>
9.47

>  <EState_VSA10>
4.79

>  <VSA_EState1>
11.1

>  <VSA_EState2>
13.46

>  <VSA_EState3>
2.82

>  <VSA_EState4>
2.18

>  <VSA_EState5>
1.39

>  <VSA_EState6>
13.92

>  <VSA_EState7>
0.08

>  <VSA_EState8>
8.37

>  <VSA_EState9>
1.62

>  <apol>
59.48

>  <bpol>
34.46

>  <nRing>
2

>  <nHRing>
0

>  <naRing>
2

>  <naHRing>
0

>  <nARing 2>
0

>  <nAHRing 2>
0

>  <nFRing>
0

>  <nFHRing>
0

>  <nFaRing>
0

>  <nFaHRing>
0

>  <nFARing 2>
0

>  <nFAHRing 2>
0

>  <nRot>
8

>  <SLogP>
4.59

>  <SMR>
107.1

>  <TopoPSA(NO)>
47.56

>  <TopoPSA>
72.86

>  <JGI1>
0.24

>  <JGI2>
0.08

>  <JGI3>
0.04

>  <JGI4>
0.05

>  <JGI5>
0.03

>  <Diameter>
16

>  <Radius>
8

>  <TMWC10>
126.4

>  <TSRW10>
60.24

>  <MW>
373.17

>  <AMW>
7.04

>  <WPath>
2000

>  <WPol>
36

>  <Zagreb1>
126

>  <Zagreb2>
141

>  <mZagreb2>
5.89

>  <yes>


>  <nAR-cont>
0.336376

>  <nHA-cont>
0.892715677

>  <MWHBN>
0.25883121

>  <MWHBN-cont>
0.943719329

>  <TPSA-cont>
0.491391957

>  <pka_cont>
0.97

>  <yes.1>


>  <BBB_SCORE>
4.112454585

>  <MMFF94 Energy>
55.521

$$$$
Compound 2201
Actelion Java MolfileCreator 2.0

  0  0  0  0  0  0              0 V3000
M  V30 BEGIN CTAB
M  V30 COUNTS 70 74 0 0 0
M  V30 BEGIN ATOM
M  V30 1 O -6.9242 0.1606 0.8032 0
M  V30 2 C -5.8405 0.0825 0.2338 0
M  V30 3 O -5.3006 1.1687 -0.4399 0
M  V30 4 C -5.0611 -1.1997 0.1468 0
M  V30 5 C -3.9806 1.1536 -0.9298 0
M  V30 6 C -3.5523 -1.0069 0.2821 0 CFG=1
M  V30 7 C -3.0998 0.1247 -0.5906 0
M  V30 8 C -3.5972 2.246 -1.7312 0
M  V30 9 C -3.0548 -0.876 1.7182 0
M  V30 10 C -1.8115 0.2312 -1.0855 0
M  V30 11 C -2.2933 2.329 -2.2222 0
M  V30 12 C -3.5748 0.0756 2.6195 0
M  V30 13 C -2.0102 -1.7145 2.1508 0
M  V30 14 O -0.7915 -0.6666 -0.8711 0
M  V30 15 C -1.4266 1.3086 -1.8797 0
M  V30 16 C -3.0893 0.1753 3.9287 0
M  V30 17 C -1.4916 -1.5992 3.4399 0
M  V30 18 C 0.3254 -0.1607 -1.5439 0
M  V30 19 C -0.0238 1.1202 -2.2276 0
M  V30 20 O -3.548 1.048 4.8803 0
M  V30 21 C -2.0408 -0.6651 4.3196 0
M  V30 22 O -0.4876 -2.4171 3.8872 0
M  V30 23 C 1.4966 -0.8091 -1.5404 0
M  V30 24 O 0.6465 1.857 -2.9163 0
M  V30 25 C -4.6558 1.8697 4.5342 0
M  V30 26 O -1.5595 -0.5879 5.6304 0
M  V30 27 C 0.6956 -2.281 3.099 0
M  V30 28 C 2.7279 -0.3879 -2.2221 0
M  V30 29 C -0.4451 0.2317 5.7244 0
M  V30 30 C 3.3042 -1.1885 -3.2291 0
M  V30 31 C 3.3601 0.7992 -1.8397 0
M  V30 32 O 0.1242 0.8229 4.8149 0
M  V30 33 C -0.0107 0.2846 7.1591 0
M  V30 34 O 2.6332 -2.3509 -3.5272 0
M  V30 35 C 4.4972 -0.7804 -3.8474 0
M  V30 36 C 4.5275 1.2064 -2.4836 0
M  V30 37 C 3.1028 -3.1189 -4.6271 0
M  V30 38 C 5.12 0.4175 -3.4779 0
M  V30 39 O 5.1133 2.3762 -2.0655 0
M  V30 40 O 6.2827 0.9019 -4.0182 0
M  V30 41 C 4.6493 3.4581 -2.8745 0
M  V30 42 C 6.958 0.088 -4.966 0
M  V30 43 H -5.4296 -1.8894 0.9156 0
M  V30 44 H -5.302 -1.6401 -0.8295 0
M  V30 45 H -3.1176 -1.9289 -0.1314 0
M  V30 46 H -4.3156 3.0301 -1.9609 0
M  V30 47 H -1.9665 3.1594 -2.8396 0
M  V30 48 H -4.3587 0.7474 2.2901 0
M  V30 49 H -1.6 -2.4643 1.4789 0
M  V30 50 H 1.5722 -1.7619 -1.0228 0
M  V30 51 H -4.3945 2.5623 3.7274 0
M  V30 52 H -4.916 2.4671 5.4134 0
M  V30 53 H -5.5307 1.2658 4.2714 0
M  V30 54 H 0.6133 -2.8643 2.1764 0
M  V30 55 H 1.5305 -2.6857 3.6789 0
M  V30 56 H 0.9195 -1.2324 2.8712 0
M  V30 57 H 2.9445 1.4242 -1.0538 0
M  V30 58 H -0.8189 0.6843 7.777 0
M  V30 59 H 0.2752 -0.7146 7.4966 0
M  V30 60 H 0.8557 0.9458 7.251 0
M  V30 61 H 4.9425 -1.3979 -4.6153 0
M  V30 62 H 3.0963 -2.5332 -5.5524 0
M  V30 63 H 2.4176 -3.9613 -4.7626 0
M  V30 64 H 4.0969 -3.5295 -4.423 0
M  V30 65 H 4.9278 3.3224 -3.9251 0
M  V30 66 H 5.1282 4.3735 -2.5142 0
M  V30 67 H 3.5648 3.5852 -2.7816 0
M  V30 68 H 7.242 -0.8755 -4.5304 0
M  V30 69 H 7.8775 0.6053 -5.2563 0
M  V30 70 H 6.3541 -0.0475 -5.8691 0
M  V30 END ATOM
M  V30 BEGIN BOND
M  V30 1 2 1 2
M  V30 2 1 2 3
M  V30 3 1 2 4
M  V30 4 1 3 5
M  V30 5 1 4 6
M  V30 6 2 5 7
M  V30 7 1 5 8
M  V30 8 1 6 9
M  V30 9 1 7 10
M  V30 10 2 8 11
M  V30 11 2 9 12
M  V30 12 1 9 13
M  V30 13 1 10 14
M  V30 14 2 10 15
M  V30 15 1 12 16
M  V30 16 2 13 17
M  V30 17 1 14 18
M  V30 18 1 15 19
M  V30 19 1 16 20
M  V30 20 2 16 21
M  V30 21 1 17 22
M  V30 22 2 18 23
M  V30 23 2 19 24
M  V30 24 1 20 25
M  V30 25 1 21 26
M  V30 26 1 22 27
M  V30 27 1 23 28
M  V30 28 1 26 29
M  V30 29 2 28 30
M  V30 30 1 28 31
M  V30 31 2 29 32
M  V30 32 1 29 33
M  V30 33 1 30 34
M  V30 34 1 30 35
M  V30 35 2 31 36
M  V30 36 1 34 37
M  V30 37 2 35 38
M  V30 38 1 36 39
M  V30 39 1 38 40
M  V30 40 1 39 41
M  V30 41 1 40 42
M  V30 42 1 6 7
M  V30 43 1 11 15
M  V30 44 1 17 21
M  V30 45 1 18 19
M  V30 46 1 36 38
M  V30 47 1 4 43
M  V30 48 1 4 44
M  V30 49 1 6 45
M  V30 50 1 8 46
M  V30 51 1 11 47
M  V30 52 1 12 48
M  V30 53 1 13 49
M  V30 54 1 23 50
M  V30 55 1 25 51
M  V30 56 1 25 52
M  V30 57 1 25 53
M  V30 58 1 27 54
M  V30 59 1 27 55
M  V30 60 1 27 56
M  V30 61 1 31 57
M  V30 62 1 33 58
M  V30 63 1 33 59
M  V30 64 1 33 60
M  V30 65 1 35 61
M  V30 66 1 37 62
M  V30 67 1 37 63
M  V30 68 1 37 64
M  V30 69 1 41 65
M  V30 70 1 41 66
M  V30 71 1 41 67
M  V30 72 1 42 68
M  V30 73 1 42 69
M  V30 74 1 42 70
M  V30 END BOND
M  V30 BEGIN COLLECTION
M  V30 MDLV30/STEABS ATOMS=(1 6)
M  V30 END COLLECTION
M  V30 END CTAB
M  END
>  <Column 1>
2702

>  <level_0>
3935

>  <index>
3935

>  <Unnamed: 0>
3935

>  <NO.>
3947

>  <Name>
lorazepam

>  <IUPAC_name>
[4-[(2e-9r)-3-7-dioxo-2-[(2-4-5-trimethoxyphenyl)methylidene]-8-9-dihydrofuro[2-3-f]chromen-9-yl]-2-6-dimethoxyphenyl] acetate

>  <SMILES>
COc1cc(OC)c(OC)cc1/C=C1/Oc2c(ccc3c2[C@@H](c2cc(OC)c(OC(C)=O)c(OC)c2)CC(=O)O3)C1=O

>  <CID>
100003958

>  <logBB>


>  <BBB+/BBB->
BBB+

>  <Inchi>
InChI=1S/C31H28O11/c1-15(32)40-31-25(38-5)9-16(10-26(31)39-6)19-13-27(33)41-20-8-7-18-29(34)24(42-30(18)28(19)20)12-17-11-22(36-3)23(37-4)14-21(17)35-2/h7-12-14-19H-13H2-1-6H3/b24-12+/t19-/m1/s1

>  <threshold>
-1

>  <reference>
R16|R16|R10|R10|

>  <group>
B

>  <Class>
-1

>  <ABC>
32.52

>  <ABCGG>
25

>  <nAcid>
0

>  <nBase>
0

>  <nAromAtom>
18

>  <nAromBond>
18

>  <nAtom>
70

>  <nHeavyAtom>
42

>  <nSpiro>
0

>  <nBridgehead>
0

>  <nHetero>
11

>  <nN>
0

>  <nO>
11

>  <nF>
0

>  <BalabanJ>
1.34

>  <BertzCT>
1611.25

>  <nBonds>
74

>  <nBondsO>
46

>  <nBondsS>
52

>  <nBondsD>
4

>  <nBondsT>
0

>  <nBondsA>
18

>  <nBondsM>
22

>  <nBondsKS>
61

>  <nBondsKD>
13

>  <RNCG>
0.11

>  <RPCG>
0.07

>  <FCSP3>
0.26

>  <SZ>
50.33

>  <Sm>
48

>  <Sv>
46.45

>  <Sse>
72.07

>  <Sp>
47.46

>  <Si>
78.12

>  <MZ>
0.72

>  <Mm>
0.69

>  <Mv>
0.66

>  <Mse>
1.03

>  <Mp>
0.68

>  <Mi>
1.12

>  <NsCH3>
6

>  <NdCH2>
0

>  <NssCH2>
1

>  <NtCH>
0

>  <NdsCH>
1

>  <NaaCH>
6

>  <NsssCH>
1

>  <NddC>
0

>  <NtsC>
0

>  <NdssC>
4

>  <NaasC>
12

>  <NaaaC>
0

>  <NssssC>
0

>  <NsNH3>
0

>  <NsNH2>
0

>  <NssNH2>
0

>  <NdNH>
0

>  <NssNH>
0

>  <NaaNH>
0

>  <NtN>
0

>  <NsssNH>
0

>  <NdsN>
0

>  <NaaN>
0

>  <NsssN>
0

>  <NddsN>
0

>  <NaasN>
0

>  <NssssN>
0

>  <NsOH>
0

>  <NdO>
3

>  <NssO>
8

>  <NaaO>
0

>  <NsF>
0

>  <NsSiH3>
0

>  <NssSiH2>
0

>  <NsssSiH>
0

>  <NssssSi>
0

>  <NsPH2>
0

>  <NssPH>
0

>  <NsssP>
0

>  <NdsssP>
0

>  <NsssssP>
0

>  <NsSH>
0

>  <NdS>
0

>  <NssS>
0

>  <NaaS>
0

>  <NdssS>
0

>  <NddssS>
0

>  <NsCl>
0

>  <NsBr>
0

>  <NsI>
0

>  <fragCpx>
394.11

>  <fMF>
0.37

>  <nHBAcc>
11

>  <nHBDon>
0

>  <Kier1>
33.37

>  <Kier2>
14.61

>  <Lipinski>
0

>  <GhoseFilter>
0

>  <FilterItLogS>
-7.41

>  <VMcGowan>
402.02

>  <LabuteASA>
240.98

>  <PEOE_VSA1>
37.89

>  <PEOE_VSA2>
14.38

>  <PEOE_VSA3>
0

>  <PEOE_VSA4>
0

>  <PEOE_VSA5>
0

>  <PEOE_VSA6>
0

>  <PEOE_VSA7>
41.97

>  <PEOE_VSA8>
30.03

>  <PEOE_VSA9>
47.53

>  <PEOE_VSA10>
17.25

>  <PEOE_VSA11>
28.76

>  <PEOE_VSA12>
11.53

>  <PEOE_VSA13>
0

>  <SMR_VSA1>
52.28

>  <SMR_VSA2>
0

>  <SMR_VSA3>
0

>  <SMR_VSA4>
0

>  <SMR_VSA5>
19.26

>  <SMR_VSA6>
35.55

>  <SMR_VSA7>
64.41

>  <SMR_VSA8>
0

>  <SMR_VSA9>
46

>  <SlogP_VSA1>
37.89

>  <SlogP_VSA2>
53.27

>  <SlogP_VSA3>
9.59

>  <SlogP_VSA4>
0

>  <SlogP_VSA5>
46.31

>  <SlogP_VSA6>
42.16

>  <SlogP_VSA7>
0

>  <SlogP_VSA8>
6.08

>  <SlogP_VSA9>
0

>  <SlogP_VSA10>
0

>  <SlogP_VSA11>
46

>  <EState_VSA1>
17.86

>  <EState_VSA2>
46.71

>  <EState_VSA3>
39.5

>  <EState_VSA4>
0

>  <EState_VSA5>
42.47

>  <EState_VSA6>
42.47

>  <EState_VSA7>
0

>  <EState_VSA8>
0

>  <EState_VSA9>
37.89

>  <EState_VSA10>
14.38

>  <VSA_EState1>
44.29

>  <VSA_EState2>
37.91

>  <VSA_EState3>
0

>  <VSA_EState4>
1.94

>  <VSA_EState5>
0.48

>  <VSA_EState6>
9.75

>  <VSA_EState7>
1.5

>  <VSA_EState8>
1.26

>  <VSA_EState9>
7.36

>  <apol>
79.26

>  <bpol>
44.58

>  <nRing>
5

>  <nHRing>
2

>  <naRing>
3

>  <naHRing>
0

>  <nARing 2>
2

>  <nAHRing 2>
2

>  <nFRing>
1

>  <nFHRing>
1

>  <nFaRing>
0

>  <nFaHRing>
0

>  <nFARing 2>
1

>  <nFAHRing 2>
1

>  <nRot>
8

>  <SLogP>
4.71

>  <SMR>
148.43

>  <TopoPSA(NO)>
125.05

>  <TopoPSA>
125.05

>  <JGI1>
0.21

>  <JGI2>
0.08

>  <JGI3>
0.05

>  <JGI4>
0.05

>  <JGI5>
0.03

>  <Diameter>
18

>  <Radius>
9

>  <TMWC10>
169.67

>  <TSRW10>
94.09

>  <MW>
576.16

>  <AMW>
8.23

>  <WPath>
6011

>  <WPol>
78

>  <Zagreb1>
226

>  <Zagreb2>
275

>  <mZagreb2>
9.47

>  <yes>


>  <nAR-cont>
1

>  <nHA-cont>
0.236794392

>  <MWHBN>
0.458269689

>  <MWHBN-cont>
0

>  <TPSA-cont>
0

>  <pka_cont>
0.97

>  <yes.1>


>  <BBB_SCORE>
1.721794392

>  <MMFF94 Energy>
152.9

$$$$
Compound 2202
Actelion Java MolfileCreator 2.0

  0  0  0  0  0  0              0 V3000
M  V30 BEGIN CTAB
M  V30 COUNTS 68 72 0 0 0
M  V30 BEGIN ATOM
M  V30 1 O -6.5116 -1.926 -1.1231 0
M  V30 2 C -5.4038 -1.9622 -0.5981 0
M  V30 3 O -5.1681 -1.3615 0.6317 0
M  V30 4 C -4.2508 -2.7304 -1.1806 0
M  V30 5 C -3.8643 -1.2168 1.1448 0
M  V30 6 C -2.9162 -2.0017 -1.0474 0 CFG=2
M  V30 7 C -2.7474 -1.496 0.3538 0
M  V30 8 C -3.7581 -0.7285 2.4607 0
M  V30 9 C -2.7053 -0.9276 -2.1073 0
M  V30 10 C -1.5118 -1.2616 0.9305 0
M  V30 11 C -2.5002 -0.5062 3.0232 0
M  V30 12 C -1.684 -1.0975 -3.0557 0
M  V30 13 C -3.4867 0.2411 -2.1667 0
M  V30 14 O -0.2923 -1.4615 0.3273 0
M  V30 15 C -1.4003 -0.7793 2.2322 0
M  V30 16 C -1.4367 -0.1313 -4.0331 0
M  V30 17 C -3.2764 1.2032 -3.1629 0
M  V30 18 C 0.676 -1.089 1.2658 0
M  V30 19 C 0.0195 -0.6401 2.5297 0
M  V30 20 O -0.4079 -0.4246 -4.8897 0
M  V30 21 C -2.2602 0.9972 -4.1116 0
M  V30 22 O -4.0023 2.3597 -3.2976 0
M  V30 23 C 1.9827 -1.1366 0.9787 0
M  V30 24 O 0.4947 -0.2525 3.574 0
M  V30 25 C 0.48 0.6674 -5.1217 0
M  V30 26 O -2.0633 1.9312 -5.1012 0
M  V30 27 C -5.0702 2.5794 -2.386 0
M  V30 28 C 3.0871 -0.7492 1.867 0
M  V30 29 C -2.8971 1.628 -6.2203 0
M  V30 30 C 3.9624 0.2973 1.513 0
M  V30 31 C 3.3001 -1.4513 3.0571 0
M  V30 32 O 3.6986 0.9198 0.3161 0
M  V30 33 C 5.0307 0.6313 2.3609 0
M  V30 34 C 4.3453 -1.0873 3.9048 0
M  V30 35 C 4.4374 2.0941 0.0076 0
M  V30 36 C 5.233 -0.0597 3.5611 0
M  V30 37 O 4.5122 -1.8147 5.0578 0
M  V30 38 O 6.2441 0.1871 4.4529 0
M  V30 39 C 3.8487 -1.1563 6.138 0
M  V30 40 C 7.2111 1.1647 4.0981 0
M  V30 41 H -4.4678 -2.9472 -2.2334 0
M  V30 42 H -4.2175 -3.6905 -0.6494 0
M  V30 43 H -2.1495 -2.7751 -1.2007 0
M  V30 44 H -4.6565 -0.5154 3.0358 0
M  V30 45 H -2.3844 -0.1271 4.0334 0
M  V30 46 H -1.0499 -1.9819 -3.0324 0
M  V30 47 H -4.2604 0.3971 -1.4233 0
M  V30 48 H 2.2929 -1.4476 -0.0158 0
M  V30 49 H 0.1677 1.2294 -6.0063 0
M  V30 50 H 1.4694 0.2491 -5.3312 0
M  V30 51 H 0.5771 1.3269 -4.2515 0
M  V30 52 H -5.8266 1.7917 -2.4652 0
M  V30 53 H -5.5481 3.5267 -2.6534 0
M  V30 54 H -4.6995 2.6725 -1.3599 0
M  V30 55 H -2.6631 0.6406 -6.6334 0
M  V30 56 H -2.6978 2.3735 -6.9959 0
M  V30 57 H -3.959 1.6887 -5.959 0
M  V30 58 H 2.6485 -2.2716 3.3446 0
M  V30 59 H 5.7076 1.4273 2.0823 0
M  V30 60 H 4.3186 2.8555 0.7857 0
M  V30 61 H 4.0366 2.5056 -0.9236 0
M  V30 62 H 5.4933 1.8594 -0.1607 0
M  V30 63 H 4.283 -0.1704 6.3358 0
M  V30 64 H 3.982 -1.769 7.0345 0
M  V30 65 H 2.7733 -1.0669 5.9469 0
M  V30 66 H 7.7289 0.8926 3.1725 0
M  V30 67 H 7.9574 1.2025 4.8974 0
M  V30 68 H 6.7567 2.1579 4.0211 0
M  V30 END ATOM
M  V30 BEGIN BOND
M  V30 1 2 1 2
M  V30 2 1 2 3
M  V30 3 1 2 4
M  V30 4 1 3 5
M  V30 5 1 4 6
M  V30 6 2 5 7
M  V30 7 1 5 8
M  V30 8 1 6 9
M  V30 9 1 7 10
M  V30 10 2 8 11
M  V30 11 2 9 12
M  V30 12 1 9 13
M  V30 13 1 10 14
M  V30 14 2 10 15
M  V30 15 1 12 16
M  V30 16 2 13 17
M  V30 17 1 14 18
M  V30 18 1 15 19
M  V30 19 1 16 20
M  V30 20 2 16 21
M  V30 21 1 17 22
M  V30 22 2 18 23
M  V30 23 2 19 24
M  V30 24 1 20 25
M  V30 25 1 21 26
M  V30 26 1 22 27
M  V30 27 1 23 28
M  V30 28 1 26 29
M  V30 29 2 28 30
M  V30 30 1 28 31
M  V30 31 1 30 32
M  V30 32 1 30 33
M  V30 33 2 31 34
M  V30 34 1 32 35
M  V30 35 2 33 36
M  V30 36 1 34 37
M  V30 37 1 36 38
M  V30 38 1 37 39
M  V30 39 1 38 40
M  V30 40 1 6 7
M  V30 41 1 11 15
M  V30 42 1 17 21
M  V30 43 1 18 19
M  V30 44 1 34 36
M  V30 45 1 4 41
M  V30 46 1 4 42
M  V30 47 1 6 43
M  V30 48 1 8 44
M  V30 49 1 11 45
M  V30 50 1 12 46
M  V30 51 1 13 47
M  V30 52 1 23 48
M  V30 53 1 25 49
M  V30 54 1 25 50
M  V30 55 1 25 51
M  V30 56 1 27 52
M  V30 57 1 27 53
M  V30 58 1 27 54
M  V30 59 1 29 55
M  V30 60 1 29 56
M  V30 61 1 29 57
M  V30 62 1 31 58
M  V30 63 1 33 59
M  V30 64 1 35 60
M  V30 65 1 35 61
M  V30 66 1 35 62
M  V30 67 1 39 63
M  V30 68 1 39 64
M  V30 69 1 39 65
M  V30 70 1 40 66
M  V30 71 1 40 67
M  V30 72 1 40 68
M  V30 END BOND
M  V30 BEGIN COLLECTION
M  V30 MDLV30/STEABS ATOMS=(1 6)
M  V30 END COLLECTION
M  V30 END CTAB
M  END
>  <Column 1>
2703

>  <level_0>
3936

>  <index>
3936

>  <Unnamed: 0>
3936

>  <NO.>
3948

>  <Name>
etacrynicacid

>  <IUPAC_name>
(2e-9s)-9-(3-4-5-trimethoxyphenyl)-2-[(2-4-5-trimethoxyphenyl)methylidene]-8-9-dihydrofuro[2-3-f]chromene-3-7-dione

>  <SMILES>
COc1cc(OC)c(OC)cc1/C=C1/Oc2c(ccc3c2[C@H](c2cc(OC)c(OC)c(OC)c2)CC(=O)O3)C1=O

>  <CID>
100003278

>  <logBB>


>  <BBB+/BBB->
BBB-

>  <Inchi>
InChI=1S/C30H28O10/c1-33-20-14-22(35-3)21(34-2)11-16(20)12-23-28(32)17-7-8-19-27(29(17)40-23)18(13-26(31)39-19)15-9-24(36-4)30(38-6)25(10-15)37-5/h7-12-14-18H-13H2-1-6H3/b23-12+/t18-/m0/s1

>  <threshold>
-1

>  <reference>
R16|R16|R10|R10|

>  <group>
B

>  <Class>
1

>  <ABC>
30.89

>  <ABCGG>
23.91

>  <nAcid>
0

>  <nBase>
0

>  <nAromAtom>
18

>  <nAromBond>
18

>  <nAtom>
68

>  <nHeavyAtom>
40

>  <nSpiro>
0

>  <nBridgehead>
0

>  <nHetero>
10

>  <nN>
0

>  <nO>
10

>  <nF>
0

>  <BalabanJ>
1.34

>  <BertzCT>
1512.92

>  <nBonds>
72

>  <nBondsO>
44

>  <nBondsS>
51

>  <nBondsD>
3

>  <nBondsT>
0

>  <nBondsA>
18

>  <nBondsM>
21

>  <nBondsKS>
60

>  <nBondsKD>
12

>  <RNCG>
0.11

>  <RPCG>
0.07

>  <FCSP3>
0.27

>  <SZ>
48

>  <Sm>
45.67

>  <Sv>
44.73

>  <Sse>
69.74

>  <Sp>
45.98

>  <Si>
75.91

>  <MZ>
0.71

>  <Mm>
0.67

>  <Mv>
0.66

>  <Mse>
1.03

>  <Mp>
0.68

>  <Mi>
1.12

>  <NsCH3>
6

>  <NdCH2>
0

>  <NssCH2>
1

>  <NtCH>
0

>  <NdsCH>
1

>  <NaaCH>
6

>  <NsssCH>
1

>  <NddC>
0

>  <NtsC>
0

>  <NdssC>
3

>  <NaasC>
12

>  <NaaaC>
0

>  <NssssC>
0

>  <NsNH3>
0

>  <NsNH2>
0

>  <NssNH2>
0

>  <NdNH>
0

>  <NssNH>
0

>  <NaaNH>
0

>  <NtN>
0

>  <NsssNH>
0

>  <NdsN>
0

>  <NaaN>
0

>  <NsssN>
0

>  <NddsN>
0

>  <NaasN>
0

>  <NssssN>
0

>  <NsOH>
0

>  <NdO>
2

>  <NssO>
8

>  <NaaO>
0

>  <NsF>
0

>  <NsSiH3>
0

>  <NssSiH2>
0

>  <NsssSiH>
0

>  <NssssSi>
0

>  <NsPH2>
0

>  <NssPH>
0

>  <NsssP>
0

>  <NdsssP>
0

>  <NsssssP>
0

>  <NsSH>
0

>  <NdS>
0

>  <NssS>
0

>  <NaaS>
0

>  <NdssS>
0

>  <NddssS>
0

>  <NsCl>
0

>  <NsBr>
0

>  <NsI>
0

>  <fragCpx>
376.1

>  <fMF>
0.38

>  <nHBAcc>
10

>  <nHBDon>
0

>  <Kier1>
31.43

>  <Kier2>
13.75

>  <Lipinski>
0

>  <GhoseFilter>
0

>  <FilterItLogS>
-7.49

>  <VMcGowan>
386.36

>  <LabuteASA>
230.46

>  <PEOE_VSA1>
37.89

>  <PEOE_VSA2>
9.59

>  <PEOE_VSA3>
0

>  <PEOE_VSA4>
0

>  <PEOE_VSA5>
0

>  <PEOE_VSA6>
0

>  <PEOE_VSA7>
41.97

>  <PEOE_VSA8>
23.11

>  <PEOE_VSA9>
54.64

>  <PEOE_VSA10>
17.25

>  <PEOE_VSA11>
28.76

>  <PEOE_VSA12>
11.53

>  <PEOE_VSA13>
0

>  <SMR_VSA1>
47.48

>  <SMR_VSA2>
0

>  <SMR_VSA3>
0

>  <SMR_VSA4>
0

>  <SMR_VSA5>
12.34

>  <SMR_VSA6>
42.66

>  <SMR_VSA7>
64.41

>  <SMR_VSA8>
0

>  <SMR_VSA9>
46

>  <SlogP_VSA1>
37.89

>  <SlogP_VSA2>
54.41

>  <SlogP_VSA3>
4.79

>  <SlogP_VSA4>
0

>  <SlogP_VSA5>
39.39

>  <SlogP_VSA6>
42.16

>  <SlogP_VSA7>
0

>  <SlogP_VSA8>
6.08

>  <SlogP_VSA9>
0

>  <SlogP_VSA10>
0

>  <SlogP_VSA11>
46

>  <EState_VSA1>
11.89

>  <EState_VSA2>
17.96

>  <EState_VSA3>
68.25

>  <EState_VSA4>
0

>  <EState_VSA5>
42.66

>  <EState_VSA6>
42.47

>  <EState_VSA7>
0

>  <EState_VSA8>
0

>  <EState_VSA9>
37.89

>  <EState_VSA10>
9.59

>  <VSA_EState1>
44.56

>  <VSA_EState2>
26.13

>  <VSA_EState3>
0

>  <VSA_EState4>
2.18

>  <VSA_EState5>
2.15

>  <VSA_EState6>
10.11

>  <VSA_EState7>
1.6

>  <VSA_EState8>
0

>  <VSA_EState9>
9.11

>  <apol>
76.79

>  <bpol>
43.71

>  <nRing>
5

>  <nHRing>
2

>  <naRing>
3

>  <naHRing>
0

>  <nARing 2>
2

>  <nAHRing 2>
2

>  <nFRing>
1

>  <nFHRing>
1

>  <nFaRing>
0

>  <nFaHRing>
0

>  <nFARing 2>
1

>  <nFAHRing 2>
1

>  <nRot>
8

>  <SLogP>
4.8

>  <SMR>
143.67

>  <TopoPSA(NO)>
107.98

>  <TopoPSA>
107.98

>  <JGI1>
0.19

>  <JGI2>
0.08

>  <JGI3>
0.05

>  <JGI4>
0.05

>  <JGI5>
0.03

>  <Diameter>
17

>  <Radius>
9

>  <TMWC10>
165.36

>  <TSRW10>
91.9

>  <MW>
548.17

>  <AMW>
8.06

>  <WPath>
5219

>  <WPol>
76

>  <Zagreb1>
216

>  <Zagreb2>
265

>  <mZagreb2>
9.14

>  <yes>


>  <nAR-cont>
1

>  <nHA-cont>
0.308539627

>  <MWHBN>
0.427112585

>  <MWHBN-cont>
0.370682033

>  <TPSA-cont>
0.246232548

>  <pka_cont>
0.97

>  <yes.1>


>  <BBB_SCORE>
2.842027774

>  <MMFF94 Energy>
160.76

$$$$
Compound 2203
Actelion Java MolfileCreator 2.0

  0  0  0  0  0  0              0 V3000
M  V30 BEGIN CTAB
M  V30 COUNTS 47 50 0 0 0
M  V30 BEGIN ATOM
M  V30 1 O 2.7299 -3.2123 -1.4445 0
M  V30 2 C 1.7191 -2.7577 -0.9188 0
M  V30 3 O 1.6758 -2.4809 0.4398 0
M  V30 4 C 0.4204 -2.6051 -1.6487 0
M  V30 5 C 0.6398 -1.7152 1.0123 0
M  V30 6 C -0.3713 -1.3607 -1.2563 0 CFG=1
M  V30 7 C -0.3349 -1.103 0.2269 0
M  V30 8 C 0.7027 -1.5453 2.3988 0
M  V30 9 C -0.1201 -0.168 -2.1905 0
M  V30 10 C -1.2768 -0.29 0.8731 0
M  V30 11 C -0.2471 -0.7532 3.042 0
M  V30 12 C 0.999 0.724 -2.1475 0
M  V30 13 C -1.102 0.0224 -3.193 0
M  V30 14 O -2.2635 0.2824 0.1082 0
M  V30 15 C -1.253 -0.1451 2.2718 0
M  V30 16 O -0.2936 -0.5242 4.3924 0
M  V30 17 C 1.0698 1.7705 -3.1115 0
M  V30 18 C 2.0641 0.6664 -1.2172 0
M  V30 19 C -1.0122 1.051 -4.1213 0
M  V30 20 C -2.1487 1.708 0.095 0
M  V30 21 O -2.1983 0.6375 2.8933 0
M  V30 22 C 0.7813 -1.0222 5.1775 0
M  V30 23 C 0.0682 1.9184 -4.0778 0
M  V30 24 C 2.1445 2.6755 -3.1152 0
M  V30 25 C 3.1297 1.5732 -1.2319 0
M  V30 26 C -3.3243 -0.1614 3.2552 0
M  V30 27 C 3.1704 2.579 -2.1819 0
M  V30 28 H -0.1607 -3.5067 -1.4121 0
M  V30 29 H 0.6152 -2.6254 -2.7274 0
M  V30 30 H -1.4159 -1.6637 -1.4332 0
M  V30 31 H 1.5016 -2.0392 2.9411 0
M  V30 32 H -1.9653 -0.6393 -3.2529 0
M  V30 33 H 2.0998 -0.0853 -0.4434 0
M  V30 34 H -1.7832 1.1755 -4.8768 0
M  V30 35 H -2.734 2.1439 0.9098 0
M  V30 36 H -2.573 2.0662 -0.8478 0
M  V30 37 H -1.1081 2.0492 0.147 0
M  V30 38 H 0.799 -2.1168 5.1694 0
M  V30 39 H 0.6181 -0.7001 6.2105 0
M  V30 40 H 1.7395 -0.6077 4.847 0
M  V30 41 H 0.1234 2.718 -4.8137 0
M  V30 42 H 2.1921 3.4714 -3.8559 0
M  V30 43 H 3.9251 1.485 -0.4962 0
M  V30 44 H -3.8063 -0.5932 2.3714 0
M  V30 45 H -4.0506 0.49 3.7506 0
M  V30 46 H -3.0447 -0.9523 3.9597 0
M  V30 47 H 3.9954 3.2853 -2.1994 0
M  V30 END ATOM
M  V30 BEGIN BOND
M  V30 1 2 1 2
M  V30 2 1 2 3
M  V30 3 1 2 4
M  V30 4 1 3 5
M  V30 5 1 4 6
M  V30 6 2 5 7
M  V30 7 1 5 8
M  V30 8 1 6 9
M  V30 9 1 7 10
M  V30 10 2 8 11
M  V30 11 1 9 12
M  V30 12 2 9 13
M  V30 13 1 10 14
M  V30 14 2 10 15
M  V30 15 1 11 16
M  V30 16 1 12 17
M  V30 17 2 12 18
M  V30 18 1 13 19
M  V30 19 1 14 20
M  V30 20 1 15 21
M  V30 21 1 16 22
M  V30 22 1 17 23
M  V30 23 2 17 24
M  V30 24 1 18 25
M  V30 25 1 21 26
M  V30 26 1 24 27
M  V30 27 1 6 7
M  V30 28 1 11 15
M  V30 29 2 19 23
M  V30 30 2 25 27
M  V30 31 1 4 28
M  V30 32 1 4 29
M  V30 33 1 6 30
M  V30 34 1 8 31
M  V30 35 1 13 32
M  V30 36 1 18 33
M  V30 37 1 19 34
M  V30 38 1 20 35
M  V30 39 1 20 36
M  V30 40 1 20 37
M  V30 41 1 22 38
M  V30 42 1 22 39
M  V30 43 1 22 40
M  V30 44 1 23 41
M  V30 45 1 24 42
M  V30 46 1 25 43
M  V30 47 1 26 44
M  V30 48 1 26 45
M  V30 49 1 26 46
M  V30 50 1 27 47
M  V30 END BOND
M  V30 BEGIN COLLECTION
M  V30 MDLV30/STEABS ATOMS=(1 6)
M  V30 END COLLECTION
M  V30 END CTAB
M  END
>  <Column 1>
2704

>  <level_0>
3937

>  <index>
3937

>  <Unnamed: 0>
3937

>  <NO.>
3949

>  <Name>
ethosuximide

>  <IUPAC_name>
(4r)-5-6-7-trimethoxy-4-naphthalen-1-yl-3-4-dihydrochromen-2-one

>  <SMILES>
COc1cc2c(c(OC)c1OC)[C@@H](c1cccc3ccccc13)CC(=O)O2

>  <CID>
100003291

>  <logBB>


>  <BBB+/BBB->
BBB+

>  <Inchi>
InChI=1S/C22H20O5/c1-24-18-12-17-20(22(26-3)21(18)25-2)16(11-19(23)27-17)15-10-6-8-13-7-4-5-9-14(13)15/h4-10-12-16H-11H2-1-3H3/t16-/m1/s1

>  <threshold>
-1

>  <reference>
R16|R16|R10|R10|

>  <group>
B

>  <Class>
1

>  <ABC>
21

>  <ABCGG>
16.87

>  <nAcid>
0

>  <nBase>
0

>  <nAromAtom>
16

>  <nAromBond>
17

>  <nAtom>
47

>  <nHeavyAtom>
27

>  <nSpiro>
0

>  <nBridgehead>
0

>  <nHetero>
5

>  <nN>
0

>  <nO>
5

>  <nF>
0

>  <BalabanJ>
1.62

>  <BertzCT>
1019.38

>  <nBonds>
50

>  <nBondsO>
30

>  <nBondsS>
32

>  <nBondsD>
1

>  <nBondsT>
0

>  <nBondsA>
17

>  <nBondsM>
18

>  <nBondsKS>
41

>  <nBondsKD>
9

>  <RNCG>
0.19

>  <RPCG>
0.12

>  <FCSP3>
0.23

>  <SZ>
32

>  <Sm>
30.34

>  <Sv>
30.99

>  <Sse>
47.53

>  <Sp>
32.39

>  <Si>
52.2

>  <MZ>
0.68

>  <Mm>
0.65

>  <Mv>
0.66

>  <Mse>
1.01

>  <Mp>
0.69

>  <Mi>
1.11

>  <NsCH3>
3

>  <NdCH2>
0

>  <NssCH2>
1

>  <NtCH>
0

>  <NdsCH>
0

>  <NaaCH>
8

>  <NsssCH>
1

>  <NddC>
0

>  <NtsC>
0

>  <NdssC>
1

>  <NaasC>
6

>  <NaaaC>
2

>  <NssssC>
0

>  <NsNH3>
0

>  <NsNH2>
0

>  <NssNH2>
0

>  <NdNH>
0

>  <NssNH>
0

>  <NaaNH>
0

>  <NtN>
0

>  <NsssNH>
0

>  <NdsN>
0

>  <NaaN>
0

>  <NsssN>
0

>  <NddsN>
0

>  <NaasN>
0

>  <NssssN>
0

>  <NsOH>
0

>  <NdO>
1

>  <NssO>
4

>  <NaaO>
0

>  <NsF>
0

>  <NsSiH3>
0

>  <NssSiH2>
0

>  <NsssSiH>
0

>  <NssssSi>
0

>  <NsPH2>
0

>  <NssPH>
0

>  <NsssP>
0

>  <NdsssP>
0

>  <NsssssP>
0

>  <NsSH>
0

>  <NdS>
0

>  <NssS>
0

>  <NaaS>
0

>  <NdssS>
0

>  <NddssS>
0

>  <NsCl>
0

>  <NsBr>
0

>  <NsI>
0

>  <fragCpx>
198.05

>  <fMF>
0.43

>  <nHBAcc>
5

>  <nHBDon>
0

>  <Kier1>
20.28

>  <Kier2>
8.79

>  <Lipinski>
1

>  <GhoseFilter>
1

>  <FilterItLogS>
-5.94

>  <VMcGowan>
268.05

>  <LabuteASA>
156.97

>  <PEOE_VSA1>
18.95

>  <PEOE_VSA2>
4.79

>  <PEOE_VSA3>
0

>  <PEOE_VSA4>
0

>  <PEOE_VSA5>
0

>  <PEOE_VSA6>
42.46

>  <PEOE_VSA7>
16.34

>  <PEOE_VSA8>
17.55

>  <PEOE_VSA9>
27.75

>  <PEOE_VSA10>
5.75

>  <PEOE_VSA11>
11.5

>  <PEOE_VSA12>
5.75

>  <PEOE_VSA13>
0

>  <SMR_VSA1>
23.74

>  <SMR_VSA2>
0

>  <SMR_VSA3>
0

>  <SMR_VSA4>
0

>  <SMR_VSA5>
12.34

>  <SMR_VSA6>
21.33

>  <SMR_VSA7>
59.66

>  <SMR_VSA8>
0

>  <SMR_VSA9>
23

>  <SlogP_VSA1>
18.95

>  <SlogP_VSA2>
27.3

>  <SlogP_VSA3>
4.79

>  <SlogP_VSA4>
0

>  <SlogP_VSA5>
23.47

>  <SlogP_VSA6>
48.53

>  <SlogP_VSA7>
0

>  <SlogP_VSA8>
10.77

>  <SlogP_VSA9>
0

>  <SlogP_VSA10>
0

>  <SlogP_VSA11>
23

>  <EState_VSA1>
0

>  <EState_VSA2>
18.31

>  <EState_VSA3>
23

>  <EState_VSA4>
21.9

>  <EState_VSA5>
7.11

>  <EState_VSA6>
20.29

>  <EState_VSA7>
24.27

>  <EState_VSA8>
18.2

>  <EState_VSA9>
18.95

>  <EState_VSA10>
4.79

>  <VSA_EState1>
22.13

>  <VSA_EState2>
12.36

>  <VSA_EState3>
2.22

>  <VSA_EState4>
1.85

>  <VSA_EState5>
1.43

>  <VSA_EState6>
15.93

>  <VSA_EState7>
0.23

>  <VSA_EState8>
0

>  <VSA_EState9>
4.68

>  <apol>
54.09

>  <bpol>
27.88

>  <nRing>
4

>  <nHRing>
1

>  <naRing>
3

>  <naHRing>
0

>  <nARing 2>
1

>  <nAHRing 2>
1

>  <nFRing>
2

>  <nFHRing>
1

>  <nFaRing>
1

>  <nFaHRing>
0

>  <nFARing 2>
1

>  <nFAHRing 2>
1

>  <nRot>
4

>  <SLogP>
4.31

>  <SMR>
102.14

>  <TopoPSA(NO)>
53.99

>  <TopoPSA>
53.99

>  <JGI1>
0.15

>  <JGI2>
0.07

>  <JGI3>
0.05

>  <JGI4>
0.04

>  <JGI5>
0.03

>  <Diameter>
11

>  <Radius>
6

>  <TMWC10>
134.86

>  <TSRW10>
62.75

>  <MW>
364.13

>  <AMW>
7.75

>  <WPath>
1618

>  <WPol>
51

>  <Zagreb1>
146

>  <Zagreb2>
179

>  <mZagreb2>
6.14

>  <yes>


>  <nAR-cont>
0.816016

>  <nHA-cont>
0.860070871

>  <MWHBN>
0.262024423

>  <MWHBN-cont>
0.93733462

>  <TPSA-cont>
0.623116274

>  <pka_cont>
0.97

>  <yes.1>


>  <BBB_SCORE>
4.81332135

>  <MMFF94 Energy>
97.175

$$$$
Compound 2204
Actelion Java MolfileCreator 2.0

  0  0  0  0  0  0              0 V3000
M  V30 BEGIN CTAB
M  V30 COUNTS 46 49 0 0 0
M  V30 BEGIN ATOM
M  V30 1 O -2.8116 -1.4452 3.3747 0
M  V30 2 C -1.7197 -1.2416 2.8541 0
M  V30 3 O -1.0017 -0.0818 3.1116 0
M  V30 4 C -1.0224 -2.2595 1.9994 0
M  V30 5 C 0.1717 0.2338 2.3998 0
M  V30 6 C -0.3024 -1.6371 0.8071 0 CFG=2
M  V30 7 C 0.5391 -0.4719 1.2593 0
M  V30 8 C 0.9146 1.3146 2.8762 0
M  V30 9 C -1.2449 -1.3065 -0.3446 0
M  V30 10 C 1.6775 -0.0473 0.5601 0
M  V30 11 C 2.0755 1.7116 2.2071 0
M  V30 12 C -1.2264 -2.1055 -1.499 0
M  V30 13 C -2.1388 -0.2306 -0.3068 0
M  V30 14 O 2.0333 -0.7749 -0.5509 0
M  V30 15 C 2.4469 1.0391 1.0244 0
M  V30 16 O 2.8966 2.7205 2.6395 0
M  V30 17 C -2.0731 -1.8325 -2.59 0
M  V30 18 C -2.9805 0.0349 -1.3944 0
M  V30 19 C 1.9582 0.0033 -1.7461 0
M  V30 20 O 3.5976 1.3259 0.3277 0
M  V30 21 C 2.6353 3.2879 3.917 0
M  V30 22 C -2.9665 -0.7442 -2.5412 0
M  V30 23 C -2.0594 -2.619 -3.7499 0
M  V30 24 C 3.7338 2.7006 -0.0265 0
M  V30 25 N -3.7918 -0.4423 -3.5598 0
M  V30 26 C -2.9119 -2.3122 -4.8033 0
M  V30 27 C -3.7515 -1.2241 -4.6608 0
M  V30 28 H -0.3084 -2.7794 2.6513 0
M  V30 29 H -1.7579 -3.0001 1.6629 0
M  V30 30 H 0.3908 -2.4153 0.4563 0
M  V30 31 H 0.5659 1.8175 3.772 0
M  V30 32 H -0.5383 -2.9475 -1.5586 0
M  V30 33 H -2.199 0.4285 0.5557 0
M  V30 34 H -3.667 0.8774 -1.3444 0
M  V30 35 H 1.1969 0.7908 -1.6944 0
M  V30 36 H 1.6879 -0.6706 -2.5649 0
M  V30 37 H 2.9367 0.4326 -1.9789 0
M  V30 38 H 1.6853 3.8321 3.917 0
M  V30 39 H 3.4305 4.0088 4.1307 0
M  V30 40 H 2.6572 2.5259 4.7032 0
M  V30 41 H -1.3888 -3.4699 -3.8365 0
M  V30 42 H 2.7695 3.2094 -0.1404 0
M  V30 43 H 4.2466 2.7437 -0.9925 0
M  V30 44 H 4.3637 3.218 0.7027 0
M  V30 45 H -2.9212 -2.906 -5.71 0
M  V30 46 H -4.4387 -0.9397 -5.4528 0
M  V30 END ATOM
M  V30 BEGIN BOND
M  V30 1 2 1 2
M  V30 2 1 2 3
M  V30 3 1 2 4
M  V30 4 1 3 5
M  V30 5 1 4 6
M  V30 6 2 5 7
M  V30 7 1 5 8
M  V30 8 1 6 9
M  V30 9 1 7 10
M  V30 10 2 8 11
M  V30 11 2 9 12
M  V30 12 1 9 13
M  V30 13 1 10 14
M  V30 14 2 10 15
M  V30 15 1 11 16
M  V30 16 1 12 17
M  V30 17 2 13 18
M  V30 18 1 14 19
M  V30 19 1 15 20
M  V30 20 1 16 21
M  V30 21 1 17 22
M  V30 22 2 17 23
M  V30 23 1 20 24
M  V30 24 2 22 25
M  V30 25 1 23 26
M  V30 26 1 25 27
M  V30 27 1 6 7
M  V30 28 1 11 15
M  V30 29 1 18 22
M  V30 30 2 26 27
M  V30 31 1 4 28
M  V30 32 1 4 29
M  V30 33 1 6 30
M  V30 34 1 8 31
M  V30 35 1 12 32
M  V30 36 1 13 33
M  V30 37 1 18 34
M  V30 38 1 19 35
M  V30 39 1 19 36
M  V30 40 1 19 37
M  V30 41 1 21 38
M  V30 42 1 21 39
M  V30 43 1 21 40
M  V30 44 1 23 41
M  V30 45 1 24 42
M  V30 46 1 24 43
M  V30 47 1 24 44
M  V30 48 1 26 45
M  V30 49 1 27 46
M  V30 END BOND
M  V30 BEGIN COLLECTION
M  V30 MDLV30/STEABS ATOMS=(1 6)
M  V30 END COLLECTION
M  V30 END CTAB
M  END
>  <Column 1>
2705

>  <level_0>
3938

>  <index>
3938

>  <Unnamed: 0>
3938

>  <NO.>
3950

>  <Name>
carteolol

>  <IUPAC_name>
(4s)-5-6-7-trimethoxy-4-quinolin-6-yl-3-4-dihydrochromen-2-one

>  <SMILES>
COc1cc2c(c(OC)c1OC)[C@H](c1ccc3ncccc3c1)CC(=O)O2

>  <CID>
100002583

>  <logBB>


>  <BBB+/BBB->
BBB+

>  <Inchi>
InChI=1S/C21H19NO5/c1-24-17-11-16-19(21(26-3)20(17)25-2)14(10-18(23)27-16)12-6-7-15-13(9-12)5-4-8-22-15/h4-9-11-14H-10H2-1-3H3/t14-/m0/s1

>  <threshold>
-1

>  <reference>
R16|R10|

>  <group>
B

>  <Class>
-1

>  <ABC>
21.04

>  <ABCGG>
16.54

>  <nAcid>
0

>  <nBase>
0

>  <nAromAtom>
16

>  <nAromBond>
17

>  <nAtom>
46

>  <nHeavyAtom>
27

>  <nSpiro>
0

>  <nBridgehead>
0

>  <nHetero>
6

>  <nN>
1

>  <nO>
5

>  <nF>
0

>  <BalabanJ>
1.56

>  <BertzCT>
1030.5

>  <nBonds>
49

>  <nBondsO>
30

>  <nBondsS>
31

>  <nBondsD>
1

>  <nBondsT>
0

>  <nBondsA>
17

>  <nBondsM>
18

>  <nBondsKS>
40

>  <nBondsKD>
9

>  <RNCG>
0.18

>  <RPCG>
0.12

>  <FCSP3>
0.24

>  <SZ>
32

>  <Sm>
30.42

>  <Sv>
30.48

>  <Sse>
46.75

>  <Sp>
31.65

>  <Si>
51.28

>  <MZ>
0.7

>  <Mm>
0.66

>  <Mv>
0.66

>  <Mse>
1.02

>  <Mp>
0.69

>  <Mi>
1.11

>  <NsCH3>
3

>  <NdCH2>
0

>  <NssCH2>
1

>  <NtCH>
0

>  <NdsCH>
0

>  <NaaCH>
7

>  <NsssCH>
1

>  <NddC>
0

>  <NtsC>
0

>  <NdssC>
1

>  <NaasC>
6

>  <NaaaC>
2

>  <NssssC>
0

>  <NsNH3>
0

>  <NsNH2>
0

>  <NssNH2>
0

>  <NdNH>
0

>  <NssNH>
0

>  <NaaNH>
0

>  <NtN>
0

>  <NsssNH>
0

>  <NdsN>
0

>  <NaaN>
1

>  <NsssN>
0

>  <NddsN>
0

>  <NaasN>
0

>  <NssssN>
0

>  <NsOH>
0

>  <NdO>
1

>  <NssO>
4

>  <NaaO>
0

>  <NsF>
0

>  <NsSiH3>
0

>  <NssSiH2>
0

>  <NsssSiH>
0

>  <NssssSi>
0

>  <NsPH2>
0

>  <NssPH>
0

>  <NsssP>
0

>  <NdsssP>
0

>  <NsssssP>
0

>  <NsSH>
0

>  <NdS>
0

>  <NssS>
0

>  <NaaS>
0

>  <NdssS>
0

>  <NddssS>
0

>  <NsCl>
0

>  <NsBr>
0

>  <NsI>
0

>  <fragCpx>
198.06

>  <fMF>
0.43

>  <nHBAcc>
6

>  <nHBDon>
0

>  <Kier1>
20.28

>  <Kier2>
8.79

>  <Lipinski>
1

>  <GhoseFilter>
1

>  <FilterItLogS>
-5.72

>  <VMcGowan>
263.94

>  <LabuteASA>
156.19

>  <PEOE_VSA1>
18.95

>  <PEOE_VSA2>
9.78

>  <PEOE_VSA3>
0

>  <PEOE_VSA4>
0

>  <PEOE_VSA5>
0

>  <PEOE_VSA6>
12.13

>  <PEOE_VSA7>
23.76

>  <PEOE_VSA8>
29.13

>  <PEOE_VSA9>
33.27

>  <PEOE_VSA10>
5.75

>  <PEOE_VSA11>
11.5

>  <PEOE_VSA12>
5.75

>  <PEOE_VSA13>
0

>  <SMR_VSA1>
23.74

>  <SMR_VSA2>
0

>  <SMR_VSA3>
4.98

>  <SMR_VSA4>
0

>  <SMR_VSA5>
12.34

>  <SMR_VSA6>
21.33

>  <SMR_VSA7>
53.72

>  <SMR_VSA8>
0

>  <SMR_VSA9>
23

>  <SlogP_VSA1>
18.95

>  <SlogP_VSA2>
32.28

>  <SlogP_VSA3>
4.79

>  <SlogP_VSA4>
0

>  <SlogP_VSA5>
23.47

>  <SlogP_VSA6>
42.6

>  <SlogP_VSA7>
0

>  <SlogP_VSA8>
10.9

>  <SlogP_VSA9>
0

>  <SlogP_VSA10>
0

>  <SlogP_VSA11>
23

>  <EState_VSA1>
0

>  <EState_VSA2>
18.31

>  <EState_VSA3>
23

>  <EState_VSA4>
22.03

>  <EState_VSA5>
7.11

>  <EState_VSA6>
26.48

>  <EState_VSA7>
30.33

>  <EState_VSA8>
4.98

>  <EState_VSA9>
18.95

>  <EState_VSA10>
4.79

>  <VSA_EState1>
22.01

>  <VSA_EState2>
16.64

>  <VSA_EState3>
1.01

>  <VSA_EState4>
2.66

>  <VSA_EState5>
1.34

>  <VSA_EState6>
11.55

>  <VSA_EState7>
1.97

>  <VSA_EState8>
0

>  <VSA_EState9>
4.65

>  <apol>
52.85

>  <bpol>
28.01

>  <nRing>
4

>  <nHRing>
2

>  <naRing>
3

>  <naHRing>
1

>  <nARing 2>
1

>  <nAHRing 2>
1

>  <nFRing>
2

>  <nFHRing>
2

>  <nFaRing>
1

>  <nFaHRing>
1

>  <nFARing 2>
1

>  <nFAHRing 2>
1

>  <nRot>
4

>  <SLogP>
3.7

>  <SMR>
99.94

>  <TopoPSA(NO)>
66.88

>  <TopoPSA>
66.88

>  <JGI1>
0.17

>  <JGI2>
0.07

>  <JGI3>
0.05

>  <JGI4>
0.05

>  <JGI5>
0.03

>  <Diameter>
12

>  <Radius>
6

>  <TMWC10>
134.64

>  <TSRW10>
62.7

>  <MW>
365.13

>  <AMW>
7.94

>  <WPath>
1686

>  <WPol>
50

>  <Zagreb1>
146

>  <Zagreb2>
178

>  <mZagreb2>
6.11

>  <yes>


>  <nAR-cont>
0.816016

>  <nHA-cont>
0.860070871

>  <MWHBN>
0.313998441

>  <MWHBN-cont>
0.796999976

>  <TPSA-cont>
0.53313607

>  <pka_cont>
0.97

>  <yes.1>


>  <BBB_SCORE>
4.422858974

>  <MMFF94 Energy>
93.77

$$$$
Compound 2205
Actelion Java MolfileCreator 2.0

  0  0  0  0  0  0              0 V3000
M  V30 BEGIN CTAB
M  V30 COUNTS 62 65 0 0 0
M  V30 BEGIN ATOM
M  V30 1 O -0.8751 -1.3527 -4.8606 0
M  V30 2 C -0.2009 -1.6601 -3.8888 0
M  V30 3 N -0.578 -2.2677 -2.7123 0
M  V30 4 N 1.1674 -1.4605 -3.8664 0
M  V30 5 C -1.9047 -2.6175 -2.3714 0
M  V30 6 C 0.5262 -2.4752 -1.914 0
M  V30 7 C 1.7564 -1.9649 -2.6617 0 CFG=2
M  V30 8 C -2.9823 -1.8237 -2.7814 0
M  V30 9 C -2.1761 -3.764 -1.6153 0
M  V30 10 O 0.5954 -2.9916 -0.8039 0
M  V30 11 C 2.5876 -0.9686 -1.8666 0
M  V30 12 C -4.2973 -2.168 -2.4479 0
M  V30 13 C -3.4908 -4.1092 -1.2804 0
M  V30 14 C 1.8033 0.1847 -1.2619 0
M  V30 15 C -4.5689 -3.3161 -1.6931 0
M  V30 16 O 0.6176 0.3658 -1.5366 0
M  V30 17 N 2.4882 1.0333 -0.4033 0
M  V30 18 C -5.986 -3.7095 -1.317 0
M  V30 19 C 1.7444 2.1444 0.1882 0
M  V30 20 C 3.9307 1.0292 -0.1651 0
M  V30 21 C -6.6474 -2.6503 -0.4315 0
M  V30 22 C -6.8388 -3.9943 -2.556 0
M  V30 23 C 2.3182 2.6631 1.4895 0
M  V30 24 C 4.2353 1.0335 1.3308 0
M  V30 25 C 3.5086 2.1533 2.0304 0
M  V30 26 C 1.6435 3.693 2.1668 0
M  V30 27 C 3.9938 2.6532 3.2486 0
M  V30 28 C 2.1326 4.2034 3.375 0
M  V30 29 C 3.3183 3.677 3.9222 0
M  V30 30 O 1.5316 5.2085 4.0925 0
M  V30 31 O 3.7305 4.2283 5.1105 0
M  V30 32 C 0.2931 5.7124 3.6142 0
M  V30 33 C 4.8916 3.6875 5.7228 0
M  V30 34 H 1.6397 -1.0557 -4.6639 0
M  V30 35 H 2.37 -2.8277 -2.9443 0
M  V30 36 H -2.8179 -0.916 -3.3584 0
M  V30 37 H -1.3732 -4.414 -1.2766 0
M  V30 38 H 3.3661 -0.5484 -2.5138 0
M  V30 39 H 3.0687 -1.5091 -1.0425 0
M  V30 40 H -5.1055 -1.5231 -2.7856 0
M  V30 41 H -3.6611 -5.0072 -0.6902 0
M  V30 42 H -5.9469 -4.6387 -0.733 0
M  V30 43 H 0.7042 1.8404 0.354 0
M  V30 44 H 1.7501 2.955 -0.5509 0
M  V30 45 H 4.3355 1.9297 -0.6447 0
M  V30 46 H 4.4212 0.1739 -0.6332 0
M  V30 47 H -6.7799 -1.6994 -0.959 0
M  V30 48 H -7.636 -2.9875 -0.1013 0
M  V30 49 H -6.0442 -2.4549 0.4621 0
M  V30 50 H -6.9802 -3.0989 -3.1711 0
M  V30 51 H -6.3721 -4.7609 -3.1845 0
M  V30 52 H -7.8306 -4.3574 -2.2652 0
M  V30 53 H 5.3173 1.1343 1.4736 0
M  V30 54 H 3.9188 0.0842 1.7799 0
M  V30 55 H 0.729 4.0794 1.7267 0
M  V30 56 H 4.9062 2.226 3.6519 0
M  V30 57 H 0.4146 6.1963 2.6395 0
M  V30 58 H -0.0538 6.4729 4.3206 0
M  V30 59 H -0.4667 4.925 3.5746 0
M  V30 60 H 4.7546 2.6287 5.966 0
M  V30 61 H 5.0558 4.2248 6.6619 0
M  V30 62 H 5.7756 3.8394 5.095 0
M  V30 END ATOM
M  V30 BEGIN BOND
M  V30 1 2 1 2
M  V30 2 1 2 3
M  V30 3 1 2 4
M  V30 4 1 3 5
M  V30 5 1 3 6
M  V30 6 1 4 7
M  V30 7 2 5 8
M  V30 8 1 5 9
M  V30 9 2 6 10
M  V30 10 1 7 11
M  V30 11 1 8 12
M  V30 12 2 9 13
M  V30 13 1 11 14
M  V30 14 2 12 15
M  V30 15 2 14 16
M  V30 16 1 14 17
M  V30 17 1 15 18
M  V30 18 1 17 19
M  V30 19 1 17 20
M  V30 20 1 18 21
M  V30 21 1 18 22
M  V30 22 1 19 23
M  V30 23 1 20 24
M  V30 24 2 23 25
M  V30 25 1 23 26
M  V30 26 1 25 27
M  V30 27 2 26 28
M  V30 28 2 27 29
M  V30 29 1 28 30
M  V30 30 1 29 31
M  V30 31 1 30 32
M  V30 32 1 31 33
M  V30 33 1 6 7
M  V30 34 1 13 15
M  V30 35 1 24 25
M  V30 36 1 28 29
M  V30 37 1 4 34
M  V30 38 1 7 35
M  V30 39 1 8 36
M  V30 40 1 9 37
M  V30 41 1 11 38
M  V30 42 1 11 39
M  V30 43 1 12 40
M  V30 44 1 13 41
M  V30 45 1 18 42
M  V30 46 1 19 43
M  V30 47 1 19 44
M  V30 48 1 20 45
M  V30 49 1 20 46
M  V30 50 1 21 47
M  V30 51 1 21 48
M  V30 52 1 21 49
M  V30 53 1 22 50
M  V30 54 1 22 51
M  V30 55 1 22 52
M  V30 56 1 24 53
M  V30 57 1 24 54
M  V30 58 1 26 55
M  V30 59 1 27 56
M  V30 60 1 32 57
M  V30 61 1 32 58
M  V30 62 1 32 59
M  V30 63 1 33 60
M  V30 64 1 33 61
M  V30 65 1 33 62
M  V30 END BOND
M  V30 BEGIN COLLECTION
M  V30 MDLV30/STERAC1 ATOMS=(1 7)
M  V30 END COLLECTION
M  V30 END CTAB
M  END
>  <Column 1>
2706

>  <level_0>
3939

>  <index>
3939

>  <Unnamed: 0>
3939

>  <NO.>
3951

>  <Name>
hydroflumethiazide

>  <IUPAC_name>


>  <SMILES>
COc1cc2c(cc1OC)CN(C(=O)CC1NC(=O)N(c3ccc(C(C)C)cc3)C1=O)CC2

>  <CID>
122169549

>  <logBB>


>  <BBB+/BBB->
BBB-

>  <Inchi>
InChI=1S/C25H29N3O5/c1-15(2)16-5-7-19(8-6-16)28-24(30)20(26-25(28)31)13-23(29)27-10-9-17-11-21(32-3)22(33-4)12-18(17)14-27/h5-8-11-12-15-20H-9-10-13-14H2-1-4H3-(H-26-31)

>  <threshold>
-1

>  <reference>
R16|

>  <group>
B

>  <Class>
1

>  <ABC>
25.68

>  <ABCGG>
19.49

>  <nAcid>
0

>  <nBase>
0

>  <nAromAtom>
12

>  <nAromBond>
12

>  <nAtom>
62

>  <nHeavyAtom>
33

>  <nSpiro>
0

>  <nBridgehead>
0

>  <nHetero>
8

>  <nN>
3

>  <nO>
5

>  <nF>
0

>  <BalabanJ>
1.29

>  <BertzCT>
1080.2

>  <nBonds>
65

>  <nBondsO>
36

>  <nBondsS>
50

>  <nBondsD>
3

>  <nBondsT>
0

>  <nBondsA>
12

>  <nBondsM>
15

>  <nBondsKS>
56

>  <nBondsKD>
9

>  <RNCG>
0.16

>  <RPCG>
0.1

>  <FCSP3>
0.4

>  <SZ>
40

>  <Sm>
37.59

>  <Sv>
38.7

>  <Sse>
62.52

>  <Sp>
40.96

>  <Si>
69.94

>  <MZ>
0.65

>  <Mm>
0.61

>  <Mv>
0.62

>  <Mse>
1.01

>  <Mp>
0.66

>  <Mi>
1.13

>  <NsCH3>
4

>  <NdCH2>
0

>  <NssCH2>
4

>  <NtCH>
0

>  <NdsCH>
0

>  <NaaCH>
6

>  <NsssCH>
2

>  <NddC>
0

>  <NtsC>
0

>  <NdssC>
3

>  <NaasC>
6

>  <NaaaC>
0

>  <NssssC>
0

>  <NsNH3>
0

>  <NsNH2>
0

>  <NssNH2>
0

>  <NdNH>
0

>  <NssNH>
1

>  <NaaNH>
0

>  <NtN>
0

>  <NsssNH>
0

>  <NdsN>
0

>  <NaaN>
0

>  <NsssN>
2

>  <NddsN>
0

>  <NaasN>
0

>  <NssssN>
0

>  <NsOH>
0

>  <NdO>
3

>  <NssO>
2

>  <NaaO>
0

>  <NsF>
0

>  <NsSiH3>
0

>  <NssSiH2>
0

>  <NsssSiH>
0

>  <NssssSi>
0

>  <NsPH2>
0

>  <NssPH>
0

>  <NsssP>
0

>  <NdsssP>
0

>  <NsssssP>
0

>  <NsSH>
0

>  <NdS>
0

>  <NssS>
0

>  <NaaS>
0

>  <NdssS>
0

>  <NddssS>
0

>  <NsCl>
0

>  <NsBr>
0

>  <NsI>
0

>  <fragCpx>
240.08

>  <fMF>
0.37

>  <nHBAcc>
5

>  <nHBDon>
1

>  <Kier1>
26.07

>  <Kier2>
11.37

>  <Lipinski>
1

>  <GhoseFilter>
1

>  <FilterItLogS>
-5.24

>  <VMcGowan>
340.26

>  <LabuteASA>
193

>  <PEOE_VSA1>
19.69

>  <PEOE_VSA2>
9.59

>  <PEOE_VSA3>
9.69

>  <PEOE_VSA4>
0

>  <PEOE_VSA5>
0

>  <PEOE_VSA6>
25.98

>  <PEOE_VSA7>
53.29

>  <PEOE_VSA8>
13.09

>  <PEOE_VSA9>
26.33

>  <PEOE_VSA10>
6.04

>  <PEOE_VSA11>
11.5

>  <PEOE_VSA12>
5.91

>  <PEOE_VSA13>
5.91

>  <SMR_VSA1>
23.86

>  <SMR_VSA2>
0

>  <SMR_VSA3>
10.22

>  <SMR_VSA4>
0

>  <SMR_VSA5>
45.19

>  <SMR_VSA6>
25.66

>  <SMR_VSA7>
53.09

>  <SMR_VSA8>
0

>  <SMR_VSA9>
11.5

>  <SlogP_VSA1>
19.69

>  <SlogP_VSA2>
49.55

>  <SlogP_VSA3>
22.55

>  <SlogP_VSA4>
0

>  <SlogP_VSA5>
42.88

>  <SlogP_VSA6>
36.4

>  <SlogP_VSA7>
0

>  <SlogP_VSA8>
0

>  <SlogP_VSA9>
0

>  <SlogP_VSA10>
10.48

>  <SlogP_VSA11>
11.5

>  <EState_VSA1>
17.98

>  <EState_VSA2>
12.33

>  <EState_VSA3>
42.61

>  <EState_VSA4>
21.59

>  <EState_VSA5>
0

>  <EState_VSA6>
31.25

>  <EState_VSA7>
24.27

>  <EState_VSA8>
19.16

>  <EState_VSA9>
9.47

>  <EState_VSA10>
14.38

>  <VSA_EState1>
10.74

>  <VSA_EState2>
41.29

>  <VSA_EState3>
2.67

>  <VSA_EState4>
3.72

>  <VSA_EState5>
1.04

>  <VSA_EState6>
9.8

>  <VSA_EState7>
0.61

>  <VSA_EState8>
5.12

>  <VSA_EState9>
3.17

>  <apol>
68.4

>  <bpol>
39.16

>  <nRing>
4

>  <nHRing>
2

>  <naRing>
2

>  <naHRing>
0

>  <nARing 2>
2

>  <nAHRing 2>
2

>  <nFRing>
1

>  <nFHRing>
1

>  <nFaRing>
0

>  <nFaHRing>
0

>  <nFARing 2>
1

>  <nFAHRing 2>
1

>  <nRot>
6

>  <SLogP>
3.23

>  <SMR>
123.62

>  <TopoPSA(NO)>
88.18

>  <TopoPSA>
88.18

>  <JGI1>
0.21

>  <JGI2>
0.09

>  <JGI3>
0.05

>  <JGI4>
0.05

>  <JGI5>
0.03

>  <Diameter>
18

>  <Radius>
9

>  <TMWC10>
147.59

>  <TSRW10>
83.65

>  <MW>
451.21

>  <AMW>
7.28

>  <WPath>
3540

>  <WPol>
57

>  <Zagreb1>
176

>  <Zagreb2>
211

>  <mZagreb2>
7.31

>  <yes>


>  <nAR-cont>
1

>  <nHA-cont>
0.61399562

>  <MWHBN>
0.282463211

>  <MWHBN-cont>
0.889770234

>  <TPSA-cont>
0.384448844

>  <pka_cont>
0.97

>  <yes.1>


>  <BBB_SCORE>
4.202548658

>  <MMFF94 Energy>
26.606

$$$$
Compound 2206
Actelion Java MolfileCreator 2.0

  0  0  0  0  0  0              0 V3000
M  V30 BEGIN CTAB
M  V30 COUNTS 55 57 0 0 0
M  V30 BEGIN ATOM
M  V30 1 S -2.9728 -1.124 -2.4903 0
M  V30 2 C -1.3871 -1.337 -1.5976 0 CFG=2
M  V30 3 C -2.3916 -1.3825 -4.1943 0
M  V30 4 C -1.6289 -1.6387 -0.1105 0
M  V30 5 C -0.373 -0.2262 -1.842 0
M  V30 6 C -3.5355 -1.3551 -5.176 0
M  V30 7 O -1.386 -2.7835 0.2963 0
M  V30 8 N -2.0757 -0.6646 0.7705 0
M  V30 9 C -4.2479 -2.5267 -5.4727 0
M  V30 10 C -3.9207 -0.1543 -5.7906 0
M  V30 11 C -2.076 -1.004 2.198 0
M  V30 12 C -2.3927 0.7188 0.4448 0
M  V30 13 C -5.3113 -2.5 -6.3766 0
M  V30 14 C -4.9844 -0.1302 -6.6945 0
M  V30 15 C -0.7858 -0.6269 2.8402 0
M  V30 16 C -5.6775 -1.3028 -6.9887 0
M  V30 17 O -0.6638 -0.9385 4.1613 0
M  V30 18 N 0.2709 -0.0109 2.3543 0
M  V30 19 N 0.5887 -0.4863 4.5626 0
M  V30 20 C 1.1039 0.071 3.4543 0
M  V30 21 C 2.4383 0.6567 3.3536 0
M  V30 22 C 3.0567 1.347 4.413 0
M  V30 23 C 3.1307 0.515 2.1369 0
M  V30 24 O 2.3315 1.5212 5.564 0
M  V30 25 C 4.3465 1.8688 4.2301 0
M  V30 26 C 4.418 1.0336 1.9706 0
M  V30 27 C 3.0391 1.9122 6.7335 0
M  V30 28 C 5.031 1.7113 3.0193 0
M  V30 29 O 6.2789 2.2718 2.9935 0
M  V30 30 C 7.0275 2.1233 1.7933 0
M  V30 31 H -0.9453 -2.2603 -1.9961 0
M  V30 32 H -1.8736 -2.3456 -4.2632 0
M  V30 33 H -1.6676 -0.6043 -4.4582 0
M  V30 34 H 0.0588 -0.3087 -2.8453 0
M  V30 35 H -0.7997 0.7763 -1.7561 0
M  V30 36 H 0.4546 -0.2944 -1.127 0
M  V30 37 H -3.9818 -3.4669 -4.994 0
M  V30 38 H -3.397 0.7716 -5.5637 0
M  V30 39 H -2.9073 -0.4817 2.6845 0
M  V30 40 H -2.2466 -2.077 2.337 0
M  V30 41 H -3.248 1.045 1.0446 0
M  V30 42 H -1.5274 1.3454 0.6785 0
M  V30 43 H -2.6539 0.8546 -0.6012 0
M  V30 44 H -5.8576 -3.4131 -6.5983 0
M  V30 45 H -5.2759 0.8051 -7.1651 0
M  V30 46 H -6.5078 -1.2826 -7.6896 0
M  V30 47 H 2.6657 -0.0153 1.3068 0
M  V30 48 H 4.8469 2.4243 5.0173 0
M  V30 49 H 4.9067 0.8901 1.0128 0
M  V30 50 H 3.8889 1.2496 6.9293 0
M  V30 51 H 2.3522 1.8315 7.5817 0
M  V30 52 H 3.3585 2.957 6.6642 0
M  V30 53 H 7.2168 1.0673 1.574 0
M  V30 54 H 7.9957 2.6115 1.9408 0
M  V30 55 H 6.5289 2.6191 0.9539 0
M  V30 END ATOM
M  V30 BEGIN BOND
M  V30 1 1 1 2
M  V30 2 1 1 3
M  V30 3 1 2 4
M  V30 4 1 2 5
M  V30 5 1 3 6
M  V30 6 2 4 7
M  V30 7 1 4 8
M  V30 8 2 6 9
M  V30 9 1 6 10
M  V30 10 1 8 11
M  V30 11 1 8 12
M  V30 12 1 9 13
M  V30 13 2 10 14
M  V30 14 1 11 15
M  V30 15 2 13 16
M  V30 16 1 15 17
M  V30 17 2 15 18
M  V30 18 1 17 19
M  V30 19 1 18 20
M  V30 20 1 20 21
M  V30 21 2 21 22
M  V30 22 1 21 23
M  V30 23 1 22 24
M  V30 24 1 22 25
M  V30 25 2 23 26
M  V30 26 1 24 27
M  V30 27 2 25 28
M  V30 28 1 28 29
M  V30 29 1 29 30
M  V30 30 1 14 16
M  V30 31 2 19 20
M  V30 32 1 26 28
M  V30 33 1 2 31
M  V30 34 1 3 32
M  V30 35 1 3 33
M  V30 36 1 5 34
M  V30 37 1 5 35
M  V30 38 1 5 36
M  V30 39 1 9 37
M  V30 40 1 10 38
M  V30 41 1 11 39
M  V30 42 1 11 40
M  V30 43 1 12 41
M  V30 44 1 12 42
M  V30 45 1 12 43
M  V30 46 1 13 44
M  V30 47 1 14 45
M  V30 48 1 16 46
M  V30 49 1 23 47
M  V30 50 1 25 48
M  V30 51 1 26 49
M  V30 52 1 27 50
M  V30 53 1 27 51
M  V30 54 1 27 52
M  V30 55 1 30 53
M  V30 56 1 30 54
M  V30 57 1 30 55
M  V30 END BOND
M  V30 BEGIN COLLECTION
M  V30 MDLV30/STEABS ATOMS=(1 2)
M  V30 END COLLECTION
M  V30 END CTAB
M  END
>  <Column 1>
2707

>  <level_0>
3940

>  <index>
3940

>  <Unnamed: 0>
3940

>  <NO.>
3952

>  <Name>
diphenhydramine

>  <IUPAC_name>
(2s)-2-benzylsulfanyl-n-[[3-(2-4-dimethoxyphenyl)-1-2-4-oxadiazol-5-yl]methyl]-n-methylpropanamide

>  <SMILES>
COc1ccc(-c2noc(CN(C)C(=O)[C@H](C)SCc3ccccc3)n2)c(OC)c1

>  <CID>
100003100

>  <logBB>


>  <BBB+/BBB->
BBB+

>  <Inchi>
InChI=1S/C22H25N3O4S/c1-15(30-14-16-8-6-5-7-9-16)22(26)25(2)13-20-23-21(24-29-20)18-11-10-17(27-3)12-19(18)28-4/h5-12-15H-13-14H2-1-4H3/t15-/m0/s1

>  <threshold>
-1

>  <reference>
R16|R16|R10|R10|

>  <group>
B

>  <Class>
-1

>  <ABC>
22.79

>  <ABCGG>
18.16

>  <nAcid>
0

>  <nBase>
0

>  <nAromAtom>
17

>  <nAromBond>
17

>  <nAtom>
55

>  <nHeavyAtom>
30

>  <nSpiro>
0

>  <nBridgehead>
0

>  <nHetero>
8

>  <nN>
3

>  <nO>
4

>  <nF>
0

>  <BalabanJ>
1.4

>  <BertzCT>
977.52

>  <nBonds>
57

>  <nBondsO>
32

>  <nBondsS>
39

>  <nBondsD>
1

>  <nBondsT>
0

>  <nBondsA>
17

>  <nBondsM>
18

>  <nBondsKS>
48

>  <nBondsKD>
9

>  <RNCG>
0.18

>  <RPCG>
0.09

>  <FCSP3>
0.32

>  <SZ>
37.67

>  <Sm>
35.59

>  <Sv>
35.09

>  <Sse>
55.49

>  <Sp>
37.62

>  <Si>
61.82

>  <MZ>
0.68

>  <Mm>
0.65

>  <Mv>
0.64

>  <Mse>
1.01

>  <Mp>
0.68

>  <Mi>
1.12

>  <NsCH3>
4

>  <NdCH2>
0

>  <NssCH2>
2

>  <NtCH>
0

>  <NdsCH>
0

>  <NaaCH>
8

>  <NsssCH>
1

>  <NddC>
0

>  <NtsC>
0

>  <NdssC>
1

>  <NaasC>
6

>  <NaaaC>
0

>  <NssssC>
0

>  <NsNH3>
0

>  <NsNH2>
0

>  <NssNH2>
0

>  <NdNH>
0

>  <NssNH>
0

>  <NaaNH>
0

>  <NtN>
0

>  <NsssNH>
0

>  <NdsN>
0

>  <NaaN>
2

>  <NsssN>
1

>  <NddsN>
0

>  <NaasN>
0

>  <NssssN>
0

>  <NsOH>
0

>  <NdO>
1

>  <NssO>
2

>  <NaaO>
1

>  <NsF>
0

>  <NsSiH3>
0

>  <NssSiH2>
0

>  <NsssSiH>
0

>  <NssssSi>
0

>  <NsPH2>
0

>  <NssPH>
0

>  <NsssP>
0

>  <NdsssP>
0

>  <NsssssP>
0

>  <NsSH>
0

>  <NdS>
0

>  <NssS>
1

>  <NaaS>
0

>  <NdssS>
0

>  <NddssS>
0

>  <NsCl>
0

>  <NsBr>
0

>  <NsI>
0

>  <fragCpx>
154.08

>  <fMF>
0.42

>  <nHBAcc>
7

>  <nHBDon>
0

>  <Kier1>
24.64

>  <Kier2>
12.3

>  <Lipinski>
1

>  <GhoseFilter>
1

>  <FilterItLogS>
-5.87

>  <VMcGowan>
319.33

>  <LabuteASA>
179.92

>  <PEOE_VSA1>
18.9

>  <PEOE_VSA2>
4.79

>  <PEOE_VSA3>
0

>  <PEOE_VSA4>
4.98

>  <PEOE_VSA5>
11.76

>  <PEOE_VSA6>
35.49

>  <PEOE_VSA7>
24.62

>  <PEOE_VSA8>
18.87

>  <PEOE_VSA9>
31.58

>  <PEOE_VSA10>
11.5

>  <PEOE_VSA11>
0

>  <PEOE_VSA12>
17.62

>  <PEOE_VSA13>
0

>  <SMR_VSA1>
18.79

>  <SMR_VSA2>
0

>  <SMR_VSA3>
15.04

>  <SMR_VSA4>
0

>  <SMR_VSA5>
24.47

>  <SMR_VSA6>
21.27

>  <SMR_VSA7>
59.99

>  <SMR_VSA8>
0

>  <SMR_VSA9>
22.89

>  <SlogP_VSA1>
9.47

>  <SlogP_VSA2>
47.46

>  <SlogP_VSA3>
17.09

>  <SlogP_VSA4>
0

>  <SlogP_VSA5>
18.38

>  <SlogP_VSA6>
53.05

>  <SlogP_VSA7>
0

>  <SlogP_VSA8>
11.39

>  <SlogP_VSA9>
0

>  <SlogP_VSA10>
0

>  <SlogP_VSA11>
11.5

>  <EState_VSA1>
0

>  <EState_VSA2>
17.7

>  <EState_VSA3>
28.78

>  <EState_VSA4>
5.75

>  <EState_VSA5>
5.56

>  <EState_VSA6>
50.06

>  <EState_VSA7>
31.19

>  <EState_VSA8>
22.27

>  <EState_VSA9>
14

>  <EState_VSA10>
4.79

>  <VSA_EState1>
15.96

>  <VSA_EState2>
18.72

>  <VSA_EState3>
3.85

>  <VSA_EState4>
1.88

>  <VSA_EState5>
2.81

>  <VSA_EState6>
15.46

>  <VSA_EState7>
0

>  <VSA_EState8>
2.15

>  <VSA_EState9>
4.9

>  <apol>
62.82

>  <bpol>
36.47

>  <nRing>
3

>  <nHRing>
1

>  <naRing>
3

>  <naHRing>
1

>  <nARing 2>
0

>  <nAHRing 2>
0

>  <nFRing>
0

>  <nFHRing>
0

>  <nFaRing>
0

>  <nFaHRing>
0

>  <nFARing 2>
0

>  <nFAHRing 2>
0

>  <nRot>
9

>  <SLogP>
4.03

>  <SMR>
116.51

>  <TopoPSA(NO)>
77.69

>  <TopoPSA>
102.99

>  <JGI1>
0.19

>  <JGI2>
0.08

>  <JGI3>
0.04

>  <JGI4>
0.03

>  <JGI5>
0.03

>  <Diameter>
18

>  <Radius>
9

>  <TMWC10>
137.76

>  <TSRW10>
78.79

>  <MW>
427.16

>  <AMW>
7.77

>  <WPath>
2922

>  <WPol>
44

>  <Zagreb1>
150

>  <Zagreb2>
173

>  <mZagreb2>
6.86

>  <yes>


>  <nAR-cont>
0.336376

>  <nHA-cont>
0.74523694

>  <MWHBN>
0.338690294

>  <MWHBN-cont>
0.711881061

>  <TPSA-cont>
0.281065847

>  <pka_cont>
0.97

>  <yes.1>


>  <BBB_SCORE>
3.196566225

>  <MMFF94 Energy>
101.5

$$$$
Compound 2207
Actelion Java MolfileCreator 2.0

  0  0  0  0  0  0              0 V3000
M  V30 BEGIN CTAB
M  V30 COUNTS 45 47 0 0 0
M  V30 BEGIN ATOM
M  V30 1 Cl -6.8671 -4.5742 3.1022 0
M  V30 2 C -5.1525 -4.4813 3.2178 0
M  V30 3 C -4.5112 -3.2575 3.0251 0
M  V30 4 C -4.4161 -5.6288 3.5024 0
M  V30 5 C -3.1127 -3.1692 3.1143 0
M  V30 6 C -3.0271 -5.5523 3.5954 0
M  V30 7 C -2.3792 -4.33 3.4038 0
M  V30 8 C -2.411 -1.8515 2.9052 0
M  V30 9 S -2.4639 -1.2715 1.1763 0
M  V30 10 C -1.4289 -2.5427 0.3807 0
M  V30 11 C 4.0E-4 -2.4661 0.8844 0
M  V30 12 O 0.476 -3.2869 1.6647 0
M  V30 13 N 0.7191 -1.3995 0.404 0
M  V30 14 C 2.0973 -1.1826 0.7929 0
M  V30 15 C 2.6293 0.0181 0.1068 0
M  V30 16 O 3.9469 0.299 0.3005 0
M  V30 17 N 2.0202 0.8814 -0.6781 0
M  V30 18 N 4.2155 1.4537 -0.4288 0
M  V30 19 C 3.0355 1.7633 -0.9934 0
M  V30 20 C 2.8224 2.9176 -1.8611 0
M  V30 21 C 3.8731 3.7857 -2.1848 0
M  V30 22 C 1.5507 3.1809 -2.3906 0
M  V30 23 C 3.6519 4.8877 -3.0178 0
M  V30 24 C 1.3313 4.2857 -3.2247 0
M  V30 25 C 2.3832 5.1442 -3.5415 0
M  V30 26 O 2.3069 6.2519 -4.339 0
M  V30 27 C 1.034 6.5597 -4.8936 0
M  V30 28 H -5.0994 -2.3699 2.801 0
M  V30 29 H -4.916 -6.5818 3.6522 0
M  V30 30 H -2.4463 -6.4447 3.8161 0
M  V30 31 H -1.2926 -4.2923 3.4768 0
M  V30 32 H -2.903 -1.0931 3.5258 0
M  V30 33 H -1.3731 -1.8908 3.2518 0
M  V30 34 H -1.4331 -2.3637 -0.6996 0
M  V30 35 H -1.8333 -3.5448 0.546 0
M  V30 36 H 0.2672 -0.6979 -0.176 0
M  V30 37 H 2.1328 -1.0538 1.8796 0
M  V30 38 H 2.6771 -2.0725 0.5274 0
M  V30 39 H 4.8747 3.6169 -1.7943 0
M  V30 40 H 0.7131 2.526 -2.1569 0
M  V30 41 H 4.4783 5.5523 -3.2595 0
M  V30 42 H 0.3281 4.4436 -3.6068 0
M  V30 43 H 0.6873 5.7583 -5.5545 0
M  V30 44 H 1.1427 7.4657 -5.4977 0
M  V30 45 H 0.301 6.7696 -4.1075 0
M  V30 END ATOM
M  V30 BEGIN BOND
M  V30 1 1 1 2
M  V30 2 2 2 3
M  V30 3 1 2 4
M  V30 4 1 3 5
M  V30 5 2 4 6
M  V30 6 2 5 7
M  V30 7 1 5 8
M  V30 8 1 8 9
M  V30 9 1 9 10
M  V30 10 1 10 11
M  V30 11 2 11 12
M  V30 12 1 11 13
M  V30 13 1 13 14
M  V30 14 1 14 15
M  V30 15 1 15 16
M  V30 16 2 15 17
M  V30 17 1 16 18
M  V30 18 1 17 19
M  V30 19 1 19 20
M  V30 20 2 20 21
M  V30 21 1 20 22
M  V30 22 1 21 23
M  V30 23 2 22 24
M  V30 24 2 23 25
M  V30 25 1 25 26
M  V30 26 1 26 27
M  V30 27 1 6 7
M  V30 28 2 18 19
M  V30 29 1 24 25
M  V30 30 1 3 28
M  V30 31 1 4 29
M  V30 32 1 6 30
M  V30 33 1 7 31
M  V30 34 1 8 32
M  V30 35 1 8 33
M  V30 36 1 10 34
M  V30 37 1 10 35
M  V30 38 1 13 36
M  V30 39 1 14 37
M  V30 40 1 14 38
M  V30 41 1 21 39
M  V30 42 1 22 40
M  V30 43 1 23 41
M  V30 44 1 24 42
M  V30 45 1 27 43
M  V30 46 1 27 44
M  V30 47 1 27 45
M  V30 END BOND
M  V30 END CTAB
M  END
>  <Column 1>
2708

>  <level_0>
3941

>  <index>
3941

>  <Unnamed: 0>
3941

>  <NO.>
3953

>  <Name>
doxorubicin

>  <IUPAC_name>
2-[(3-chlorophenyl)methylsulfanyl]-n-[[3-(4-methoxyphenyl)-1-2-4-oxadiazol-5-yl]methyl]acetamide

>  <SMILES>
COc1ccc(-c2noc(CNC(=O)CSCc3cccc(Cl)c3)n2)cc1

>  <CID>
100001690

>  <logBB>


>  <BBB+/BBB->
BBB-

>  <Inchi>
InChI=1S/C19H18ClN3O3S/c1-25-16-7-5-14(6-8-16)19-22-18(26-23-19)10-21-17(24)12-27-11-13-3-2-4-15(20)9-13/h2-9H-10-12H2-1H3-(H-21-24)

>  <threshold>
-1

>  <reference>
R16|R16|R10|R10|

>  <group>
B

>  <Class>
-1

>  <ABC>
20.68

>  <ABCGG>
15.47

>  <nAcid>
0

>  <nBase>
0

>  <nAromAtom>
17

>  <nAromBond>
17

>  <nAtom>
45

>  <nHeavyAtom>
27

>  <nSpiro>
0

>  <nBridgehead>
0

>  <nHetero>
8

>  <nN>
3

>  <nO>
3

>  <nF>
0

>  <BalabanJ>
1.25

>  <BertzCT>
899.23

>  <nBonds>
47

>  <nBondsO>
29

>  <nBondsS>
29

>  <nBondsD>
1

>  <nBondsT>
0

>  <nBondsA>
17

>  <nBondsM>
18

>  <nBondsKS>
38

>  <nBondsKD>
9

>  <RNCG>
0.22

>  <RPCG>
0.11

>  <FCSP3>
0.21

>  <SZ>
35

>  <Sm>
33.63

>  <Sv>
30.57

>  <Sse>
45.81

>  <Sp>
32.65

>  <Si>
50.31

>  <MZ>
0.78

>  <Mm>
0.75

>  <Mv>
0.68

>  <Mse>
1.02

>  <Mp>
0.73

>  <Mi>
1.12

>  <NsCH3>
1

>  <NdCH2>
0

>  <NssCH2>
3

>  <NtCH>
0

>  <NdsCH>
0

>  <NaaCH>
8

>  <NsssCH>
0

>  <NddC>
0

>  <NtsC>
0

>  <NdssC>
1

>  <NaasC>
6

>  <NaaaC>
0

>  <NssssC>
0

>  <NsNH3>
0

>  <NsNH2>
0

>  <NssNH2>
0

>  <NdNH>
0

>  <NssNH>
1

>  <NaaNH>
0

>  <NtN>
0

>  <NsssNH>
0

>  <NdsN>
0

>  <NaaN>
2

>  <NsssN>
0

>  <NddsN>
0

>  <NaasN>
0

>  <NssssN>
0

>  <NsOH>
0

>  <NdO>
1

>  <NssO>
1

>  <NaaO>
1

>  <NsF>
0

>  <NsSiH3>
0

>  <NssSiH2>
0

>  <NsssSiH>
0

>  <NssssSi>
0

>  <NsPH2>
0

>  <NssPH>
0

>  <NsssP>
0

>  <NdsssP>
0

>  <NsssssP>
0

>  <NsSH>
0

>  <NdS>
0

>  <NssS>
1

>  <NaaS>
0

>  <NdssS>
0

>  <NddssS>
0

>  <NsCl>
1

>  <NsBr>
0

>  <NsI>
0

>  <fragCpx>
139.08

>  <fMF>
0.51

>  <nHBAcc>
6

>  <nHBDon>
1

>  <Kier1>
21.7

>  <Kier2>
11.25

>  <Lipinski>
1

>  <GhoseFilter>
1

>  <FilterItLogS>
-6.68

>  <VMcGowan>
283.43

>  <LabuteASA>
165.81

>  <PEOE_VSA1>
14.58

>  <PEOE_VSA2>
4.79

>  <PEOE_VSA3>
0

>  <PEOE_VSA4>
4.98

>  <PEOE_VSA5>
11.76

>  <PEOE_VSA6>
28.89

>  <PEOE_VSA7>
41.96

>  <PEOE_VSA8>
16.34

>  <PEOE_VSA9>
19.41

>  <PEOE_VSA10>
5.75

>  <PEOE_VSA11>
0

>  <PEOE_VSA12>
17.62

>  <PEOE_VSA13>
0

>  <SMR_VSA1>
14.05

>  <SMR_VSA2>
0

>  <SMR_VSA3>
15.46

>  <SMR_VSA4>
0

>  <SMR_VSA5>
12.3

>  <SMR_VSA6>
12.86

>  <SMR_VSA7>
65.01

>  <SMR_VSA8>
0

>  <SMR_VSA9>
17.14

>  <SlogP_VSA1>
10.05

>  <SlogP_VSA2>
28.91

>  <SlogP_VSA3>
17.09

>  <SlogP_VSA4>
0

>  <SlogP_VSA5>
11.45

>  <SlogP_VSA6>
53.05

>  <SlogP_VSA7>
5.02

>  <SlogP_VSA8>
11.39

>  <SlogP_VSA9>
0

>  <SlogP_VSA10>
0

>  <SlogP_VSA11>
5.75

>  <EState_VSA1>
0

>  <EState_VSA2>
12.45

>  <EState_VSA3>
22.49

>  <EState_VSA4>
22.63

>  <EState_VSA5>
11.76

>  <EState_VSA6>
7.11

>  <EState_VSA7>
48.53

>  <EState_VSA8>
15.46

>  <EState_VSA9>
20.86

>  <EState_VSA10>
4.79

>  <VSA_EState1>
10.31

>  <VSA_EState2>
16.25

>  <VSA_EState3>
7.41

>  <VSA_EState4>
1.9

>  <VSA_EState5>
2.55

>  <VSA_EState6>
14.94

>  <VSA_EState7>
0

>  <VSA_EState8>
0.19

>  <VSA_EState9>
1.61

>  <apol>
54.52

>  <bpol>
27.08

>  <nRing>
3

>  <nHRing>
1

>  <naRing>
3

>  <naHRing>
1

>  <nARing 2>
0

>  <nAHRing 2>
0

>  <nFRing>
0

>  <nFHRing>
0

>  <nFaRing>
0

>  <nFaHRing>
0

>  <nFARing 2>
0

>  <nFAHRing 2>
0

>  <nRot>
8

>  <SLogP>
3.95

>  <SMR>
105.75

>  <TopoPSA(NO)>
77.25

>  <TopoPSA>
102.55

>  <JGI1>
0.19

>  <JGI2>
0.06

>  <JGI3>
0.03

>  <JGI4>
0.04

>  <JGI5>
0.03

>  <Diameter>
18

>  <Radius>
9

>  <TMWC10>
129.95

>  <TSRW10>
75.02

>  <MW>
403.08

>  <AMW>
8.96

>  <WPath>
2405

>  <WPol>
35

>  <Zagreb1>
134

>  <Zagreb2>
151

>  <mZagreb2>
6.11

>  <yes>


>  <nAR-cont>
0.336376

>  <nHA-cont>
0.860070871

>  <MWHBN>
0.348660232

>  <MWHBN-cont>
0.675252029

>  <TPSA-cont>
0.28413732

>  <pka_cont>
0.97

>  <yes.1>


>  <BBB_SCORE>
3.262599555

>  <MMFF94 Energy>
59.693

$$$$
Compound 2208
Actelion Java MolfileCreator 2.0

  0  0  0  0  0  0              0 V3000
M  V30 BEGIN CTAB
M  V30 COUNTS 52 54 0 0 0
M  V30 BEGIN ATOM
M  V30 1 S -3.1366 -1.9293 2.4926 0
M  V30 2 C -1.7049 -1.2543 1.5887 0
M  V30 3 C -3.9114 -0.3823 3.0579 0
M  V30 4 C -1.0147 -2.3154 0.7586 0
M  V30 5 C -2.9159 0.5529 3.7259 0
M  V30 6 C -1.2448 -2.4688 -0.6256 0
M  V30 7 C -0.1076 -3.1816 1.3983 0
M  V30 8 O -2.3616 0.2954 4.79 0
M  V30 9 N -2.6693 1.7094 3.0195 0
M  V30 10 C -0.5486 -3.4649 -1.3313 0
M  V30 11 C -2.1962 -1.5792 -1.3779 0
M  V30 12 C 0.5705 -4.1685 0.6842 0
M  V30 13 C -1.6397 2.6538 3.4193 0
M  V30 14 C 0.3515 -4.3085 -0.6811 0
M  V30 15 C -0.5383 2.6265 2.4222 0
M  V30 16 O 0.4095 3.5984 2.5323 0
M  V30 17 N -0.3384 1.8159 1.4056 0
M  V30 18 N 1.3096 3.3935 1.4888 0
M  V30 19 C 0.8144 2.3257 0.8416 0
M  V30 20 C 1.4393 1.6835 -0.306 0
M  V30 21 C 1.9313 2.4039 -1.4081 0
M  V30 22 C 1.5372 0.2823 -0.3032 0
M  V30 23 O 1.7715 3.7661 -1.3889 0
M  V30 24 C 2.5023 1.7026 -2.4805 0
M  V30 25 C 2.1098 -0.4042 -1.3755 0
M  V30 26 C 2.5164 4.5247 -2.3332 0
M  V30 27 C 2.593 0.3048 -2.4701 0
M  V30 28 O 3.1661 -0.2389 -3.5874 0
M  V30 29 C 3.2591 -1.658 -3.6336 0
M  V30 30 H -0.9848 -0.8474 2.3073 0
M  V30 31 H -2.0312 -0.4231 0.9574 0
M  V30 32 H -4.6939 -0.6215 3.7849 0
M  V30 33 H -4.3951 0.1008 2.2034 0
M  V30 34 H 0.0687 -3.0902 2.4692 0
M  V30 35 H -3.0961 1.8493 2.1125 0
M  V30 36 H -0.7104 -3.5939 -2.3995 0
M  V30 37 H -1.8022 -0.5589 -1.4237 0
M  V30 38 H -2.3432 -1.9265 -2.4061 0
M  V30 39 H -3.1796 -1.5726 -0.8973 0
M  V30 40 H 1.2625 -4.8306 1.1977 0
M  V30 41 H -2.1032 3.6449 3.4394 0
M  V30 42 H -1.2555 2.4213 4.4165 0
M  V30 43 H 0.8736 -5.0808 -1.2393 0
M  V30 44 H 1.169 -0.288 0.5471 0
M  V30 45 H 2.8745 2.2198 -3.3593 0
M  V30 46 H 2.1546 -1.4871 -1.3187 0
M  V30 47 H 3.5844 4.2868 -2.2857 0
M  V30 48 H 2.3997 5.5824 -2.0777 0
M  V30 49 H 2.1228 4.3824 -3.3446 0
M  V30 50 H 3.8958 -2.038 -2.8278 0
M  V30 51 H 3.7271 -1.9309 -4.5843 0
M  V30 52 H 2.2666 -2.1202 -3.6062 0
M  V30 END ATOM
M  V30 BEGIN BOND
M  V30 1 1 1 2
M  V30 2 1 1 3
M  V30 3 1 2 4
M  V30 4 1 3 5
M  V30 5 2 4 6
M  V30 6 1 4 7
M  V30 7 2 5 8
M  V30 8 1 5 9
M  V30 9 1 6 10
M  V30 10 1 6 11
M  V30 11 2 7 12
M  V30 12 1 9 13
M  V30 13 2 10 14
M  V30 14 1 13 15
M  V30 15 1 15 16
M  V30 16 2 15 17
M  V30 17 1 16 18
M  V30 18 1 17 19
M  V30 19 1 19 20
M  V30 20 2 20 21
M  V30 21 1 20 22
M  V30 22 1 21 23
M  V30 23 1 21 24
M  V30 24 2 22 25
M  V30 25 1 23 26
M  V30 26 2 24 27
M  V30 27 1 27 28
M  V30 28 1 28 29
M  V30 29 1 12 14
M  V30 30 2 18 19
M  V30 31 1 25 27
M  V30 32 1 2 30
M  V30 33 1 2 31
M  V30 34 1 3 32
M  V30 35 1 3 33
M  V30 36 1 7 34
M  V30 37 1 9 35
M  V30 38 1 10 36
M  V30 39 1 11 37
M  V30 40 1 11 38
M  V30 41 1 11 39
M  V30 42 1 12 40
M  V30 43 1 13 41
M  V30 44 1 13 42
M  V30 45 1 14 43
M  V30 46 1 22 44
M  V30 47 1 24 45
M  V30 48 1 25 46
M  V30 49 1 26 47
M  V30 50 1 26 48
M  V30 51 1 26 49
M  V30 52 1 29 50
M  V30 53 1 29 51
M  V30 54 1 29 52
M  V30 END BOND
M  V30 END CTAB
M  END
>  <Column 1>
2709

>  <level_0>
3942

>  <index>
3942

>  <Unnamed: 0>
3942

>  <NO.>
3954

>  <Name>
norepinephrine

>  <IUPAC_name>
n-[[3-(2-4-dimethoxyphenyl)-1-2-4-oxadiazol-5-yl]methyl]-2-[(2-methylphenyl)methylsulfanyl]acetamide

>  <SMILES>
COc1ccc(-c2noc(CNC(=O)CSCc3ccccc3C)n2)c(OC)c1

>  <CID>
100000951

>  <logBB>


>  <BBB+/BBB->
BBB-

>  <Inchi>
InChI=1S/C21H23N3O4S/c1-14-6-4-5-7-15(14)12-29-13-19(25)22-11-20-23-21(24-28-20)17-9-8-16(26-2)10-18(17)27-3/h4-10H-11-13H2-1-3H3-(H-22-25)

>  <threshold>
-1

>  <reference>
R16|R10|

>  <group>
B

>  <Class>
1

>  <ABC>
22.02

>  <ABCGG>
17.03

>  <nAcid>
0

>  <nBase>
0

>  <nAromAtom>
17

>  <nAromBond>
17

>  <nAtom>
52

>  <nHeavyAtom>
29

>  <nSpiro>
0

>  <nBridgehead>
0

>  <nHetero>
8

>  <nN>
3

>  <nO>
4

>  <nF>
0

>  <BalabanJ>
1.31

>  <BertzCT>
974.06

>  <nBonds>
54

>  <nBondsO>
31

>  <nBondsS>
36

>  <nBondsD>
1

>  <nBondsT>
0

>  <nBondsA>
17

>  <nBondsM>
18

>  <nBondsKS>
45

>  <nBondsKD>
9

>  <RNCG>
0.18

>  <RPCG>
0.09

>  <FCSP3>
0.29

>  <SZ>
36.33

>  <Sm>
34.43

>  <Sv>
33.55

>  <Sse>
52.6

>  <Sp>
35.82

>  <Si>
58.41

>  <MZ>
0.7

>  <Mm>
0.66

>  <Mv>
0.65

>  <Mse>
1.01

>  <Mp>
0.69

>  <Mi>
1.12

>  <NsCH3>
3

>  <NdCH2>
0

>  <NssCH2>
3

>  <NtCH>
0

>  <NdsCH>
0

>  <NaaCH>
7

>  <NsssCH>
0

>  <NddC>
0

>  <NtsC>
0

>  <NdssC>
1

>  <NaasC>
7

>  <NaaaC>
0

>  <NssssC>
0

>  <NsNH3>
0

>  <NsNH2>
0

>  <NssNH2>
0

>  <NdNH>
0

>  <NssNH>
1

>  <NaaNH>
0

>  <NtN>
0

>  <NsssNH>
0

>  <NdsN>
0

>  <NaaN>
2

>  <NsssN>
0

>  <NddsN>
0

>  <NaasN>
0

>  <NssssN>
0

>  <NsOH>
0

>  <NdO>
1

>  <NssO>
2

>  <NaaO>
1

>  <NsF>
0

>  <NsSiH3>
0

>  <NssSiH2>
0

>  <NsssSiH>
0

>  <NssssSi>
0

>  <NsPH2>
0

>  <NssPH>
0

>  <NsssP>
0

>  <NdsssP>
0

>  <NsssssP>
0

>  <NsSH>
0

>  <NdS>
0

>  <NssS>
1

>  <NaaS>
0

>  <NdssS>
0

>  <NddssS>
0

>  <NsCl>
0

>  <NsBr>
0

>  <NsI>
0

>  <fragCpx>
149.08

>  <fMF>
0.44

>  <nHBAcc>
7

>  <nHBDon>
1

>  <Kier1>
23.66

>  <Kier2>
12.14

>  <Lipinski>
1

>  <GhoseFilter>
1

>  <FilterItLogS>
-6.72

>  <VMcGowan>
305.24

>  <LabuteASA>
173.35

>  <PEOE_VSA1>
19.31

>  <PEOE_VSA2>
4.79

>  <PEOE_VSA3>
0

>  <PEOE_VSA4>
4.98

>  <PEOE_VSA5>
11.76

>  <PEOE_VSA6>
29.42

>  <PEOE_VSA7>
30.18

>  <PEOE_VSA8>
11.82

>  <PEOE_VSA9>
32.08

>  <PEOE_VSA10>
11.5

>  <PEOE_VSA11>
0

>  <PEOE_VSA12>
17.62

>  <PEOE_VSA13>
0

>  <SMR_VSA1>
18.79

>  <SMR_VSA2>
0

>  <SMR_VSA3>
15.46

>  <SMR_VSA4>
0

>  <SMR_VSA5>
19.22

>  <SMR_VSA6>
19.97

>  <SMR_VSA7>
59.48

>  <SMR_VSA8>
0

>  <SMR_VSA9>
22.89

>  <SlogP_VSA1>
14.79

>  <SlogP_VSA2>
36.02

>  <SlogP_VSA3>
17.09

>  <SlogP_VSA4>
6.92

>  <SlogP_VSA5>
17.02

>  <SlogP_VSA6>
46.99

>  <SlogP_VSA7>
0

>  <SlogP_VSA8>
11.39

>  <SlogP_VSA9>
0

>  <SlogP_VSA10>
0

>  <SlogP_VSA11>
11.5

>  <EState_VSA1>
0

>  <EState_VSA2>
12.45

>  <EState_VSA3>
34.53

>  <EState_VSA4>
5.75

>  <EState_VSA5>
11.13

>  <EState_VSA6>
44.18

>  <EState_VSA7>
12.13

>  <EState_VSA8>
34.51

>  <EState_VSA9>
14

>  <EState_VSA10>
4.79

>  <VSA_EState1>
15.8

>  <VSA_EState2>
16.42

>  <VSA_EState3>
6.78

>  <VSA_EState4>
3.15

>  <VSA_EState5>
3.05

>  <VSA_EState6>
13.51

>  <VSA_EState7>
0

>  <VSA_EState8>
2.25

>  <VSA_EState9>
3.15

>  <apol>
59.81

>  <bpol>
33.32

>  <nRing>
3

>  <nHRing>
1

>  <naRing>
3

>  <naHRing>
1

>  <nARing 2>
0

>  <nAHRing 2>
0

>  <nFRing>
0

>  <nFHRing>
0

>  <nFaRing>
0

>  <nFaHRing>
0

>  <nFARing 2>
0

>  <nFAHRing 2>
0

>  <nRot>
9

>  <SLogP>
3.61

>  <SMR>
112.03

>  <TopoPSA(NO)>
86.48

>  <TopoPSA>
111.78

>  <JGI1>
0.18

>  <JGI2>
0.08

>  <JGI3>
0.04

>  <JGI4>
0.04

>  <JGI5>
0.03

>  <Diameter>
18

>  <Radius>
9

>  <TMWC10>
135.19

>  <TSRW10>
77.54

>  <MW>
413.14

>  <AMW>
7.95

>  <WPath>
2813

>  <WPol>
41

>  <Zagreb1>
144

>  <Zagreb2>
165

>  <mZagreb2>
6.67

>  <yes>


>  <nAR-cont>
0.336376

>  <nHA-cont>
0.785905698

>  <MWHBN>
0.393587561

>  <MWHBN-cont>
0.501322635

>  <TPSA-cont>
0.219706189

>  <pka_cont>
0.97

>  <yes.1>


>  <BBB_SCORE>
2.798678029

>  <MMFF94 Energy>
82.777

$$$$
Compound 2209
Actelion Java MolfileCreator 2.0

  0  0  0  0  0  0              0 V3000
M  V30 BEGIN CTAB
M  V30 COUNTS 52 55 0 0 0
M  V30 BEGIN ATOM
M  V30 1 O -1.1974 -2.316 1.9164 0
M  V30 2 C -0.7155 -1.1925 2.0314 0
M  V30 3 C 0.7303 -0.9685 1.73 0
M  V30 4 C -1.5127 -0.0719 2.4837 0
M  V30 5 C 1.2685 0.3086 1.5357 0
M  V30 6 C 1.567 -2.0864 1.6074 0
M  V30 7 C -2.5221 0.668 1.7836 0
M  V30 8 C -1.4312 0.4792 3.7456 0
M  V30 9 C 2.6253 0.4565 1.2317 0
M  V30 10 C 2.9252 -1.9323 1.3045 0
M  V30 11 C -3.0899 0.6369 0.4772 0
M  V30 12 C -2.9646 1.6236 2.6948 0
M  V30 13 O -2.302 1.5086 3.8772 0
M  V30 14 C 3.4594 -0.6582 1.1149 0
M  V30 15 C -4.0728 1.6175 0.2021 0
M  V30 16 C -2.6674 -0.3948 -0.5469 0
M  V30 17 C -3.9495 2.5689 2.4334 0
M  V30 18 O 4.7596 -0.3678 0.8089 0
M  V30 19 O -4.6767 1.7416 -1.0215 0
M  V30 20 C -4.5008 2.5452 1.1548 0
M  V30 21 N -1.2979 -0.1778 -1.0372 0
M  V30 22 C 5.6537 -1.4673 0.6883 0
M  V30 23 C -0.838 -1.3591 -1.7991 0
M  V30 24 C -1.1765 1.0225 -1.8869 0
M  V30 25 C 0.5882 -1.1787 -2.3654 0
M  V30 26 C 0.2541 1.2016 -2.4456 0
M  V30 27 N 0.7022 0.0242 -3.2123 0
M  V30 28 C 2.0798 0.2012 -3.6672 0
M  V30 29 H 0.6497 1.2004 1.5901 0
M  V30 30 H 1.1635 -3.0884 1.7449 0
M  V30 31 H -0.8353 0.2585 4.6207 0
M  V30 32 H 3.035 1.4522 1.0758 0
M  V30 33 H 3.5324 -2.8276 1.2206 0
M  V30 34 H -3.3789 -0.4636 -1.3777 0
M  V30 35 H -2.7329 -1.3706 -0.0485 0
M  V30 36 H -4.2612 3.2854 3.1831 0
M  V30 37 H -4.1122 1.349 -1.7045 0
M  V30 38 H -5.2697 3.2684 0.891 0
M  V30 39 H 5.7337 -2.0165 1.6323 0
M  V30 40 H 6.6443 -1.0679 0.4504 0
M  V30 41 H 5.3558 -2.1294 -0.1312 0
M  V30 42 H -0.833 -2.239 -1.1445 0
M  V30 43 H -1.5278 -1.5717 -2.6273 0
M  V30 44 H -1.4172 1.9205 -1.3066 0
M  V30 45 H -1.8848 0.9732 -2.7248 0
M  V30 46 H 0.8361 -2.0671 -2.9587 0
M  V30 47 H 1.302 -1.1331 -1.533 0
M  V30 48 H 0.9405 1.407 -1.613 0
M  V30 49 H 0.2587 2.0839 -3.0971 0
M  V30 50 H 2.7814 0.3269 -2.8344 0
M  V30 51 H 2.401 -0.6619 -4.2606 0
M  V30 52 H 2.1582 1.0784 -4.3189 0
M  V30 END ATOM
M  V30 BEGIN BOND
M  V30 1 2 1 2
M  V30 2 1 2 3
M  V30 3 1 2 4
M  V30 4 2 3 5
M  V30 5 1 3 6
M  V30 6 1 4 7
M  V30 7 2 4 8
M  V30 8 1 5 9
M  V30 9 2 6 10
M  V30 10 2 7 11
M  V30 11 1 7 12
M  V30 12 1 8 13
M  V30 13 2 9 14
M  V30 14 1 11 15
M  V30 15 1 11 16
M  V30 16 2 12 17
M  V30 17 1 14 18
M  V30 18 1 15 19
M  V30 19 2 15 20
M  V30 20 1 16 21
M  V30 21 1 18 22
M  V30 22 1 21 23
M  V30 23 1 21 24
M  V30 24 1 23 25
M  V30 25 1 24 26
M  V30 26 1 25 27
M  V30 27 1 27 28
M  V30 28 1 10 14
M  V30 29 1 12 13
M  V30 30 1 17 20
M  V30 31 1 26 27
M  V30 32 1 5 29
M  V30 33 1 6 30
M  V30 34 1 8 31
M  V30 35 1 9 32
M  V30 36 1 10 33
M  V30 37 1 16 34
M  V30 38 1 16 35
M  V30 39 1 17 36
M  V30 40 1 19 37
M  V30 41 1 20 38
M  V30 42 1 22 39
M  V30 43 1 22 40
M  V30 44 1 22 41
M  V30 45 1 23 42
M  V30 46 1 23 43
M  V30 47 1 24 44
M  V30 48 1 24 45
M  V30 49 1 25 46
M  V30 50 1 25 47
M  V30 51 1 26 48
M  V30 52 1 26 49
M  V30 53 1 28 50
M  V30 54 1 28 51
M  V30 55 1 28 52
M  V30 END BOND
M  V30 END CTAB
M  END
>  <Column 1>
2710

>  <level_0>
3943

>  <index>
3943

>  <Unnamed: 0>
3943

>  <NO.>
3955

>  <Name>
rescinnamine

>  <IUPAC_name>
[5-hydroxy-4-[(4-methylpiperazin-1-yl)methyl]-1-benzofuran-3-yl]-(4-methoxyphenyl)methanone

>  <SMILES>
COc1ccc(C(=O)c2coc3ccc(O)c(CN4CCN(C)CC4)c23)cc1

>  <CID>
100005051

>  <logBB>


>  <BBB+/BBB->
BBB+

>  <Inchi>
InChI=1S/C22H24N2O4/c1-23-9-11-24(12-10-23)13-17-19(25)7-8-20-21(17)18(14-28-20)22(26)15-3-5-16(27-2)6-4-15/h3-8-14-25H-9-13H2-1-2H3

>  <threshold>
-1

>  <reference>
R16|R10|R10|

>  <group>
B

>  <Class>
1

>  <ABC>
22.01

>  <ABCGG>
17.36

>  <nAcid>
0

>  <nBase>
2

>  <nAromAtom>
15

>  <nAromBond>
16

>  <nAtom>
52

>  <nHeavyAtom>
28

>  <nSpiro>
0

>  <nBridgehead>
0

>  <nHetero>
6

>  <nN>
2

>  <nO>
4

>  <nF>
0

>  <BalabanJ>
1.42

>  <BertzCT>
985.69

>  <nBonds>
55

>  <nBondsO>
31

>  <nBondsS>
38

>  <nBondsD>
1

>  <nBondsT>
0

>  <nBondsA>
16

>  <nBondsM>
17

>  <nBondsKS>
47

>  <nBondsKD>
8

>  <RNCG>
0.2

>  <RPCG>
0.12

>  <FCSP3>
0.32

>  <SZ>
33.67

>  <Sm>
31.67

>  <Sv>
32.88

>  <Sse>
52.3

>  <Sp>
34.82

>  <Si>
58.4

>  <MZ>
0.65

>  <Mm>
0.61

>  <Mv>
0.63

>  <Mse>
1.01

>  <Mp>
0.67

>  <Mi>
1.12

>  <NsCH3>
2

>  <NdCH2>
0

>  <NssCH2>
5

>  <NtCH>
0

>  <NdsCH>
0

>  <NaaCH>
7

>  <NsssCH>
0

>  <NddC>
0

>  <NtsC>
0

>  <NdssC>
1

>  <NaasC>
5

>  <NaaaC>
2

>  <NssssC>
0

>  <NsNH3>
0

>  <NsNH2>
0

>  <NssNH2>
0

>  <NdNH>
0

>  <NssNH>
0

>  <NaaNH>
0

>  <NtN>
0

>  <NsssNH>
0

>  <NdsN>
0

>  <NaaN>
0

>  <NsssN>
2

>  <NddsN>
0

>  <NaasN>
0

>  <NssssN>
0

>  <NsOH>
1

>  <NdO>
1

>  <NssO>
1

>  <NaaO>
1

>  <NsF>
0

>  <NsSiH3>
0

>  <NssSiH2>
0

>  <NsssSiH>
0

>  <NssssSi>
0

>  <NsPH2>
0

>  <NssPH>
0

>  <NsssP>
0

>  <NdsssP>
0

>  <NsssssP>
0

>  <NsSH>
0

>  <NdS>
0

>  <NssS>
0

>  <NaaS>
0

>  <NdssS>
0

>  <NddssS>
0

>  <NsCl>
0

>  <NsBr>
0

>  <NsI>
0

>  <fragCpx>
205.06

>  <fMF>
0.44

>  <nHBAcc>
6

>  <nHBDon>
1

>  <Kier1>
21.24

>  <Kier2>
9.43

>  <Lipinski>
1

>  <GhoseFilter>
1

>  <FilterItLogS>
-4.76

>  <VMcGowan>
286.44

>  <LabuteASA>
163.47

>  <PEOE_VSA1>
19.16

>  <PEOE_VSA2>
9.69

>  <PEOE_VSA3>
0

>  <PEOE_VSA4>
0

>  <PEOE_VSA5>
0

>  <PEOE_VSA6>
0

>  <PEOE_VSA7>
43.45

>  <PEOE_VSA8>
49.24

>  <PEOE_VSA9>
12.67

>  <PEOE_VSA10>
23.35

>  <PEOE_VSA11>
5.78

>  <PEOE_VSA12>
0

>  <PEOE_VSA13>
0

>  <SMR_VSA1>
19.06

>  <SMR_VSA2>
0

>  <SMR_VSA3>
9.8

>  <SMR_VSA4>
0

>  <SMR_VSA5>
6.54

>  <SMR_VSA6>
40.34

>  <SMR_VSA7>
59.35

>  <SMR_VSA8>
0

>  <SMR_VSA9>
11.5

>  <SlogP_VSA1>
4.74

>  <SlogP_VSA2>
61.03

>  <SlogP_VSA3>
6.54

>  <SlogP_VSA4>
0

>  <SlogP_VSA5>
21.48

>  <SlogP_VSA6>
47.08

>  <SlogP_VSA7>
0

>  <SlogP_VSA8>
10.97

>  <SlogP_VSA9>
0

>  <SlogP_VSA10>
0

>  <SlogP_VSA11>
11.5

>  <EState_VSA1>
0

>  <EState_VSA2>
11.53

>  <EState_VSA3>
34.39

>  <EState_VSA4>
31.74

>  <EState_VSA5>
6.26

>  <EState_VSA6>
43.51

>  <EState_VSA7>
0

>  <EState_VSA8>
16.85

>  <EState_VSA9>
9.15

>  <EState_VSA10>
9.9

>  <VSA_EState1>
10.82

>  <VSA_EState2>
17.7

>  <VSA_EState3>
11.24

>  <VSA_EState4>
2.38

>  <VSA_EState5>
0.75

>  <VSA_EState6>
10.35

>  <VSA_EState7>
1.49

>  <VSA_EState8>
4.4

>  <VSA_EState9>
3.7

>  <apol>
58.15

>  <bpol>
31.84

>  <nRing>
4

>  <nHRing>
2

>  <naRing>
3

>  <naHRing>
1

>  <nARing 2>
1

>  <nAHRing 2>
1

>  <nFRing>
1

>  <nFHRing>
1

>  <nFaRing>
1

>  <nFaHRing>
1

>  <nFARing 2>
0

>  <nFAHRing 2>
0

>  <nRot>
5

>  <SLogP>
3.13

>  <SMR>
107.08

>  <TopoPSA(NO)>
66.15

>  <TopoPSA>
66.15

>  <JGI1>
0.18

>  <JGI2>
0.08

>  <JGI3>
0.04

>  <JGI4>
0.05

>  <JGI5>
0.03

>  <Diameter>
15

>  <Radius>
8

>  <TMWC10>
136.12

>  <TSRW10>
77.55

>  <MW>
380.17

>  <AMW>
7.31

>  <WPath>
2053

>  <WPol>
46

>  <Zagreb1>
150

>  <Zagreb2>
179

>  <mZagreb2>
6.17

>  <yes>


>  <nAR-cont>
0.816016

>  <nHA-cont>
0.82432561

>  <MWHBN>
0.359012127

>  <MWHBN-cont>
0.636194155

>  <TPSA-cont>
0.538231923

>  <pka_cont>
0.97

>  <yes.1>


>  <BBB_SCORE>
4.156096689

>  <MMFF94 Energy>
125.71

$$$$
Compound 2210
Actelion Java MolfileCreator 2.0

  0  0  0  0  0  0              0 V3000
M  V30 BEGIN CTAB
M  V30 COUNTS 46 47 0 0 0
M  V30 BEGIN ATOM
M  V30 1 Cl -0.5636 -1.208 5.9704 0
M  V30 2 C 0.7974 -0.3622 5.3438 0
M  V30 3 C 0.6692 0.9759 4.9717 0
M  V30 4 C 2.0181 -1.0192 5.2102 0
M  V30 5 C 1.7709 1.6756 4.4538 0
M  V30 6 C 3.1199 -0.333 4.7012 0
M  V30 7 C 2.998 1.0067 4.3259 0
M  V30 8 C 1.6375 3.1192 4.0404 0
M  V30 9 S 0.6226 3.3482 2.547 0
M  V30 10 C 1.6859 2.4882 1.3361 0
M  V30 11 C 1.2043 2.6745 -0.096 0
M  V30 12 O 1.9941 2.708 -1.0376 0
M  V30 13 N -0.1615 2.7014 -0.2638 0
M  V30 14 C -0.7994 2.8204 -1.557 0
M  V30 15 C -1.3393 1.4851 -2.0621 0
M  V30 16 C -0.2277 0.4986 -2.4293 0
M  V30 17 C -0.793 -0.7779 -3.0029 0
M  V30 18 C -1.1908 -1.8222 -2.159 0
M  V30 19 C -0.955 -0.9265 -4.3841 0
M  V30 20 C -1.7332 -2.9998 -2.686 0
M  V30 21 C -1.4967 -2.103 -4.9072 0
M  V30 22 C -1.8879 -3.1454 -4.0643 0
M  V30 23 O -2.4023 -4.238 -4.7064 0
M  V30 24 C -2.8029 -5.3316 -3.891 0
M  V30 25 H -0.2912 1.4756 5.0807 0
M  V30 26 H 2.1176 -2.0616 5.5007 0
M  V30 27 H 4.0751 -0.8423 4.597 0
M  V30 28 H 3.8707 1.524 3.9309 0
M  V30 29 H 1.1729 3.6805 4.8593 0
M  V30 30 H 2.6196 3.5759 3.8753 0
M  V30 31 H 1.6941 1.4144 1.544 0
M  V30 32 H 2.7025 2.8869 1.4069 0
M  V30 33 H -0.7334 2.7266 0.575 0
M  V30 34 H -0.1049 3.2582 -2.2819 0
M  V30 35 H -1.6309 3.5218 -1.4279 0
M  V30 36 H -1.962 1.6765 -2.9454 0
M  V30 37 H -1.9973 1.0416 -1.3038 0
M  V30 38 H 0.4582 0.9532 -3.1551 0
M  V30 39 H 0.3789 0.2528 -1.5495 0
M  V30 40 H -1.0803 -1.7255 -1.0811 0
M  V30 41 H -0.6605 -0.1298 -5.0631 0
M  V30 42 H -2.0243 -3.7805 -1.9918 0
M  V30 43 H -1.6152 -2.2081 -5.9826 0
M  V30 44 H -1.9534 -5.7425 -3.3355 0
M  V30 45 H -3.1814 -6.1188 -4.5501 0
M  V30 46 H -3.6157 -5.0438 -3.2159 0
M  V30 END ATOM
M  V30 BEGIN BOND
M  V30 1 1 1 2
M  V30 2 2 2 3
M  V30 3 1 2 4
M  V30 4 1 3 5
M  V30 5 2 4 6
M  V30 6 2 5 7
M  V30 7 1 5 8
M  V30 8 1 8 9
M  V30 9 1 9 10
M  V30 10 1 10 11
M  V30 11 2 11 12
M  V30 12 1 11 13
M  V30 13 1 13 14
M  V30 14 1 14 15
M  V30 15 1 15 16
M  V30 16 1 16 17
M  V30 17 2 17 18
M  V30 18 1 17 19
M  V30 19 1 18 20
M  V30 20 2 19 21
M  V30 21 2 20 22
M  V30 22 1 22 23
M  V30 23 1 23 24
M  V30 24 1 6 7
M  V30 25 1 21 22
M  V30 26 1 3 25
M  V30 27 1 4 26
M  V30 28 1 6 27
M  V30 29 1 7 28
M  V30 30 1 8 29
M  V30 31 1 8 30
M  V30 32 1 10 31
M  V30 33 1 10 32
M  V30 34 1 13 33
M  V30 35 1 14 34
M  V30 36 1 14 35
M  V30 37 1 15 36
M  V30 38 1 15 37
M  V30 39 1 16 38
M  V30 40 1 16 39
M  V30 41 1 18 40
M  V30 42 1 19 41
M  V30 43 1 20 42
M  V30 44 1 21 43
M  V30 45 1 24 44
M  V30 46 1 24 45
M  V30 47 1 24 46
M  V30 END BOND
M  V30 END CTAB
M  END
>  <Column 1>
2711

>  <level_0>
3944

>  <index>
3944

>  <Unnamed: 0>
3944

>  <NO.>
3956

>  <Name>
cladribine

>  <IUPAC_name>
2-[(3-chlorophenyl)methylsulfanyl]-n-[3-(4-methoxyphenyl)propyl]acetamide

>  <SMILES>
COc1ccc(CCCNC(=O)CSCc2cccc(Cl)c2)cc1

>  <CID>
100001546

>  <logBB>


>  <BBB+/BBB->
BBB+

>  <Inchi>
InChI=1S/C19H22ClNO2S/c1-23-18-9-7-15(8-10-18)5-3-11-21-19(22)14-24-13-16-4-2-6-17(20)12-16/h2-4-6-10-12H-3-5-11-13-14H2-1H3-(H-21-22)

>  <threshold>
-1

>  <reference>
R16|R10|

>  <group>
B

>  <Class>
-1

>  <ABC>
17.9

>  <ABCGG>
13.45

>  <nAcid>
0

>  <nBase>
0

>  <nAromAtom>
12

>  <nAromBond>
12

>  <nAtom>
46

>  <nHeavyAtom>
24

>  <nSpiro>
0

>  <nBridgehead>
0

>  <nHetero>
5

>  <nN>
1

>  <nO>
2

>  <nF>
0

>  <BalabanJ>
1.43

>  <BertzCT>
646.07

>  <nBonds>
47

>  <nBondsO>
25

>  <nBondsS>
34

>  <nBondsD>
1

>  <nBondsT>
0

>  <nBondsA>
12

>  <nBondsM>
13

>  <nBondsKS>
40

>  <nBondsKD>
7

>  <RNCG>
0.27

>  <RPCG>
0.12

>  <FCSP3>
0.32

>  <SZ>
32

>  <Sm>
30.3

>  <Sv>
29.43

>  <Sse>
45.93

>  <Sp>
32.45

>  <Si>
51.35

>  <MZ>
0.7

>  <Mm>
0.66

>  <Mv>
0.64

>  <Mse>
1

>  <Mp>
0.71

>  <Mi>
1.12

>  <NsCH3>
1

>  <NdCH2>
0

>  <NssCH2>
5

>  <NtCH>
0

>  <NdsCH>
0

>  <NaaCH>
8

>  <NsssCH>
0

>  <NddC>
0

>  <NtsC>
0

>  <NdssC>
1

>  <NaasC>
4

>  <NaaaC>
0

>  <NssssC>
0

>  <NsNH3>
0

>  <NsNH2>
0

>  <NssNH2>
0

>  <NdNH>
0

>  <NssNH>
1

>  <NaaNH>
0

>  <NtN>
0

>  <NsssNH>
0

>  <NdsN>
0

>  <NaaN>
0

>  <NsssN>
0

>  <NddsN>
0

>  <NaasN>
0

>  <NssssN>
0

>  <NsOH>
0

>  <NdO>
1

>  <NssO>
1

>  <NaaO>
0

>  <NsF>
0

>  <NsSiH3>
0

>  <NssSiH2>
0

>  <NsssSiH>
0

>  <NssssSi>
0

>  <NsPH2>
0

>  <NssPH>
0

>  <NsssP>
0

>  <NdsssP>
0

>  <NsssssP>
0

>  <NsSH>
0

>  <NdS>
0

>  <NssS>
1

>  <NaaS>
0

>  <NdssS>
0

>  <NddssS>
0

>  <NsCl>
1

>  <NsBr>
0

>  <NsI>
0

>  <fragCpx>
73.05

>  <fMF>
0.43

>  <nHBAcc>
3

>  <nHBDon>
1

>  <Kier1>
20.31

>  <Kier2>
11.58

>  <Lipinski>
1

>  <GhoseFilter>
1

>  <FilterItLogS>
-6.53

>  <VMcGowan>
277.06

>  <LabuteASA>
152.29

>  <PEOE_VSA1>
10.05

>  <PEOE_VSA2>
4.79

>  <PEOE_VSA3>
0

>  <PEOE_VSA4>
0

>  <PEOE_VSA5>
11.76

>  <PEOE_VSA6>
35.87

>  <PEOE_VSA7>
48.23

>  <PEOE_VSA8>
17.32

>  <PEOE_VSA9>
12.86

>  <PEOE_VSA10>
5.75

>  <PEOE_VSA11>
0

>  <PEOE_VSA12>
5.91

>  <PEOE_VSA13>
0

>  <SMR_VSA1>
9.53

>  <SMR_VSA2>
0

>  <SMR_VSA3>
5.32

>  <SMR_VSA4>
0

>  <SMR_VSA5>
18.59

>  <SMR_VSA6>
19.41

>  <SMR_VSA7>
64.68

>  <SMR_VSA8>
0

>  <SMR_VSA9>
5.75

>  <SlogP_VSA1>
10.05

>  <SlogP_VSA2>
25.31

>  <SlogP_VSA3>
16.97

>  <SlogP_VSA4>
0

>  <SlogP_VSA5>
17.55

>  <SlogP_VSA6>
48.53

>  <SlogP_VSA7>
5.02

>  <SlogP_VSA8>
0

>  <SlogP_VSA9>
0

>  <SlogP_VSA10>
0

>  <SlogP_VSA11>
5.75

>  <EState_VSA1>
0

>  <EState_VSA2>
5.91

>  <EState_VSA3>
12.3

>  <EState_VSA4>
34.93

>  <EState_VSA5>
5.56

>  <EState_VSA6>
18.87

>  <EState_VSA7>
36.4

>  <EState_VSA8>
17.45

>  <EState_VSA9>
16.34

>  <EState_VSA10>
4.79

>  <VSA_EState1>
5.14

>  <VSA_EState2>
11.82

>  <VSA_EState3>
3.7

>  <VSA_EState4>
2.39

>  <VSA_EState5>
2.2

>  <VSA_EState6>
15.76

>  <VSA_EState7>
1.87

>  <VSA_EState8>
0.7

>  <VSA_EState9>
1.66

>  <apol>
54.18

>  <bpol>
28.21

>  <nRing>
2

>  <nHRing>
0

>  <naRing>
2

>  <naHRing>
0

>  <nARing 2>
0

>  <nAHRing 2>
0

>  <nFRing>
0

>  <nFHRing>
0

>  <nFaRing>
0

>  <nFaHRing>
0

>  <nFARing 2>
0

>  <nFAHRing 2>
0

>  <nRot>
9

>  <SLogP>
4.33

>  <SMR>
101.94

>  <TopoPSA(NO)>
38.33

>  <TopoPSA>
63.63

>  <JGI1>
0.18

>  <JGI2>
0.06

>  <JGI3>
0.03

>  <JGI4>
0.03

>  <JGI5>
0.02

>  <Diameter>
17

>  <Radius>
9

>  <TMWC10>
120.06

>  <TSRW10>
57.32

>  <MW>
363.11

>  <AMW>
7.89

>  <WPath>
1833

>  <WPol>
29

>  <Zagreb1>
112

>  <Zagreb2>
122

>  <mZagreb2>
5.58

>  <yes>


>  <nAR-cont>
0.336376

>  <nHA-cont>
0.94700071

>  <MWHBN>
0.20991375

>  <MWHBN-cont>
0.999337715

>  <TPSA-cont>
0.555823088

>  <pka_cont>
0.97

>  <yes.1>


>  <BBB_SCORE>
4.379029459

>  <MMFF94 Energy>
43.205

$$$$
Compound 2211
Actelion Java MolfileCreator 2.0

  0  0  0  0  0  0              0 V3000
M  V30 BEGIN CTAB
M  V30 COUNTS 58 61 0 0 0
M  V30 BEGIN ATOM
M  V30 1 O 0.0 0.5565 -2.8647 0
M  V30 2 C 0.7471 0.7064 -1.9 0
M  V30 3 N 2.0426 1.2098 -1.9961 0
M  V30 4 C 0.2218 0.3175 -0.5733 0
M  V30 5 C 2.6069 1.4142 -3.3284 0
M  V30 6 C 2.8727 1.5933 -0.8603 0
M  V30 7 C 0.8625 -0.665 0.187 0
M  V30 8 C -0.964 0.9013 -0.1205 0
M  V30 9 C 2.6261 2.8684 -3.7408 0
M  V30 10 C 0.3325 -1.0335 1.4246 0
M  V30 11 C -1.4927 0.5277 1.1168 0
M  V30 12 C 1.4301 3.5478 -4.0031 0
M  V30 13 C 3.8362 3.5639 -3.8691 0
M  V30 14 C -0.8508 -0.4439 1.9005 0
M  V30 15 C 1.4476 4.8926 -4.3805 0
M  V30 16 C 3.8507 4.9119 -4.2481 0
M  V30 17 C -1.4206 -0.8427 3.2479 0
M  V30 18 C 2.6548 5.5824 -4.5053 0
M  V30 19 N -1.6241 -2.2933 3.3949 0
M  V30 20 O 2.5299 6.8918 -4.8804 0
M  V30 21 C -2.6851 -2.7755 2.4854 0
M  V30 22 C -1.9822 -2.6204 4.784 0
M  V30 23 C 3.7331 7.6314 -5.0427 0
M  V30 24 C -3.0882 -4.2174 2.7242 0
M  V30 25 C -2.0028 -4.1395 4.9969 0
M  V30 26 C -2.8044 -4.8573 3.9429 0
M  V30 27 C -3.8121 -4.9077 1.7405 0
M  V30 28 C -3.2145 -6.1815 4.1477 0
M  V30 29 C -4.226 -6.2225 1.9563 0
M  V30 30 C -3.9259 -6.8591 3.1582 0
M  V30 31 H 3.6215 0.9972 -3.3255 0
M  V30 32 H 2.0463 0.8451 -4.0796 0
M  V30 33 H 3.6666 0.8496 -0.7465 0
M  V30 34 H 3.3213 2.5733 -1.0442 0
M  V30 35 H 2.3012 1.6614 0.0668 0
M  V30 36 H 1.76 -1.152 -0.1836 0
M  V30 37 H -1.4749 1.641 -0.7326 0
M  V30 38 H 0.829 -1.802 2.0151 0
M  V30 39 H -2.4143 0.9933 1.4592 0
M  V30 40 H 0.4763 3.0298 -3.9157 0
M  V30 41 H 4.7809 3.0618 -3.6733 0
M  V30 42 H 0.5098 5.4051 -4.5806 0
M  V30 43 H 4.8122 5.4066 -4.3328 0
M  V30 44 H -2.3558 -0.3006 3.4423 0
M  V30 45 H -0.6999 -0.4924 3.9992 0
M  V30 46 H -3.5895 -2.1601 2.5856 0
M  V30 47 H -2.3324 -2.6961 1.4502 0
M  V30 48 H -1.2464 -2.1963 5.4787 0
M  V30 49 H -2.9584 -2.1889 5.0453 0
M  V30 50 H 4.2814 7.7054 -4.0976 0
M  V30 51 H 3.4628 8.6462 -5.3504 0
M  V30 52 H 4.3589 7.2002 -5.831 0
M  V30 53 H -2.4176 -4.3514 5.9895 0
M  V30 54 H -0.9767 -4.5276 4.9711 0
M  V30 55 H -4.0535 -4.4223 0.7973 0
M  V30 56 H -2.9779 -6.691 5.0787 0
M  V30 57 H -4.7805 -6.7504 1.185 0
M  V30 58 H -4.2427 -7.8853 3.3234 0
M  V30 END ATOM
M  V30 BEGIN BOND
M  V30 1 2 1 2
M  V30 2 1 2 3
M  V30 3 1 2 4
M  V30 4 1 3 5
M  V30 5 1 3 6
M  V30 6 2 4 7
M  V30 7 1 4 8
M  V30 8 1 5 9
M  V30 9 1 7 10
M  V30 10 2 8 11
M  V30 11 2 9 12
M  V30 12 1 9 13
M  V30 13 2 10 14
M  V30 14 1 12 15
M  V30 15 2 13 16
M  V30 16 1 14 17
M  V30 17 2 15 18
M  V30 18 1 17 19
M  V30 19 1 18 20
M  V30 20 1 19 21
M  V30 21 1 19 22
M  V30 22 1 20 23
M  V30 23 1 21 24
M  V30 24 1 22 25
M  V30 25 2 24 26
M  V30 26 1 24 27
M  V30 27 1 26 28
M  V30 28 2 27 29
M  V30 29 2 28 30
M  V30 30 1 11 14
M  V30 31 1 16 18
M  V30 32 1 25 26
M  V30 33 1 29 30
M  V30 34 1 5 31
M  V30 35 1 5 32
M  V30 36 1 6 33
M  V30 37 1 6 34
M  V30 38 1 6 35
M  V30 39 1 7 36
M  V30 40 1 8 37
M  V30 41 1 10 38
M  V30 42 1 11 39
M  V30 43 1 12 40
M  V30 44 1 13 41
M  V30 45 1 15 42
M  V30 46 1 16 43
M  V30 47 1 17 44
M  V30 48 1 17 45
M  V30 49 1 21 46
M  V30 50 1 21 47
M  V30 51 1 22 48
M  V30 52 1 22 49
M  V30 53 1 23 50
M  V30 54 1 23 51
M  V30 55 1 23 52
M  V30 56 1 25 53
M  V30 57 1 25 54
M  V30 58 1 27 55
M  V30 59 1 28 56
M  V30 60 1 29 57
M  V30 61 1 30 58
M  V30 END BOND
M  V30 END CTAB
M  END
>  <Column 1>
2712

>  <level_0>
3945

>  <index>
3945

>  <Unnamed: 0>
3945

>  <NO.>
3957

>  <Name>
econazole

>  <IUPAC_name>
4-(3-4-dihydro-1h-isoquinolin-2-ylmethyl)-n-[(4-methoxyphenyl)methyl]-n-methylbenzamide

>  <SMILES>
COc1ccc(CN(C)C(=O)c2ccc(CN3CCc4ccccc4C3)cc2)cc1

>  <CID>
100003198

>  <logBB>


>  <BBB+/BBB->
BBB-

>  <Inchi>
InChI=1S/C26H28N2O2/c1-27(17-20-9-13-25(30-2)14-10-20)26(29)23-11-7-21(8-12-23)18-28-16-15-22-5-3-4-6-24(22)19-28/h3-14H-15-19H2-1-2H3

>  <threshold>
-1

>  <reference>
R16|R10|R10|

>  <group>
B

>  <Class>
-1

>  <ABC>
23.43

>  <ABCGG>
16.3

>  <nAcid>
0

>  <nBase>
1

>  <nAromAtom>
18

>  <nAromBond>
18

>  <nAtom>
58

>  <nHeavyAtom>
30

>  <nSpiro>
0

>  <nBridgehead>
0

>  <nHetero>
4

>  <nN>
2

>  <nO>
2

>  <nF>
0

>  <BalabanJ>
1.15

>  <BertzCT>
996.3

>  <nBonds>
61

>  <nBondsO>
33

>  <nBondsS>
42

>  <nBondsD>
1

>  <nBondsT>
0

>  <nBondsA>
18

>  <nBondsM>
19

>  <nBondsKS>
51

>  <nBondsKD>
10

>  <RNCG>
0.23

>  <RPCG>
0.12

>  <FCSP3>
0.27

>  <SZ>
35.67

>  <Sm>
33.35

>  <Sv>
36.53

>  <Sse>
57.42

>  <Sp>
39.46

>  <Si>
64.81

>  <MZ>
0.61

>  <Mm>
0.57

>  <Mv>
0.63

>  <Mse>
0.99

>  <Mp>
0.68

>  <Mi>
1.12

>  <NsCH3>
2

>  <NdCH2>
0

>  <NssCH2>
5

>  <NtCH>
0

>  <NdsCH>
0

>  <NaaCH>
12

>  <NsssCH>
0

>  <NddC>
0

>  <NtsC>
0

>  <NdssC>
1

>  <NaasC>
6

>  <NaaaC>
0

>  <NssssC>
0

>  <NsNH3>
0

>  <NsNH2>
0

>  <NssNH2>
0

>  <NdNH>
0

>  <NssNH>
0

>  <NaaNH>
0

>  <NtN>
0

>  <NsssNH>
0

>  <NdsN>
0

>  <NaaN>
0

>  <NsssN>
2

>  <NddsN>
0

>  <NaasN>
0

>  <NssssN>
0

>  <NsOH>
0

>  <NdO>
1

>  <NssO>
1

>  <NaaO>
0

>  <NsF>
0

>  <NsSiH3>
0

>  <NssSiH2>
0

>  <NsssSiH>
0

>  <NssssSi>
0

>  <NsPH2>
0

>  <NssPH>
0

>  <NsssP>
0

>  <NdsssP>
0

>  <NsssssP>
0

>  <NsSH>
0

>  <NdS>
0

>  <NssS>
0

>  <NaaS>
0

>  <NdssS>
0

>  <NddssS>
0

>  <NsCl>
0

>  <NsBr>
0

>  <NsI>
0

>  <fragCpx>
219.04

>  <fMF>
0.45

>  <nHBAcc>
3

>  <nHBDon>
0

>  <Kier1>
23.17

>  <Kier2>
11.23

>  <Lipinski>
1

>  <GhoseFilter>
1

>  <FilterItLogS>
-6.31

>  <VMcGowan>
322.46

>  <LabuteASA>
178.25

>  <PEOE_VSA1>
9.64

>  <PEOE_VSA2>
9.69

>  <PEOE_VSA3>
0

>  <PEOE_VSA4>
0

>  <PEOE_VSA5>
0

>  <PEOE_VSA6>
48.53

>  <PEOE_VSA7>
52.94

>  <PEOE_VSA8>
38.79

>  <PEOE_VSA9>
7.11

>  <PEOE_VSA10>
5.75

>  <PEOE_VSA11>
0

>  <PEOE_VSA12>
0

>  <PEOE_VSA13>
5.91

>  <SMR_VSA1>
9.53

>  <SMR_VSA2>
0

>  <SMR_VSA3>
9.8

>  <SMR_VSA4>
0

>  <SMR_VSA5>
26.06

>  <SMR_VSA6>
20.7

>  <SMR_VSA7>
100.61

>  <SMR_VSA8>
0

>  <SMR_VSA9>
5.75

>  <SlogP_VSA1>
4.74

>  <SlogP_VSA2>
36.41

>  <SlogP_VSA3>
26.06

>  <SlogP_VSA4>
0

>  <SlogP_VSA5>
32.61

>  <SlogP_VSA6>
72.8

>  <SlogP_VSA7>
0

>  <SlogP_VSA8>
0

>  <SlogP_VSA9>
0

>  <SlogP_VSA10>
0

>  <SlogP_VSA11>
5.75

>  <EState_VSA1>
0

>  <EState_VSA2>
5.91

>  <EState_VSA3>
6.54

>  <EState_VSA4>
42.93

>  <EState_VSA5>
16.69

>  <EState_VSA6>
12.01

>  <EState_VSA7>
43.45

>  <EState_VSA8>
41.3

>  <EState_VSA9>
4.74

>  <EState_VSA10>
4.79

>  <VSA_EState1>
5.19

>  <VSA_EState2>
17.02

>  <VSA_EState3>
0

>  <VSA_EState4>
5.93

>  <VSA_EState5>
0.85

>  <VSA_EState6>
24.55

>  <VSA_EState7>
1.1

>  <VSA_EState8>
3.53

>  <VSA_EState9>
3.49

>  <apol>
65.89

>  <bpol>
34.11

>  <nRing>
4

>  <nHRing>
1

>  <naRing>
3

>  <naHRing>
0

>  <nARing 2>
1

>  <nAHRing 2>
1

>  <nFRing>
1

>  <nFHRing>
1

>  <nFaRing>
0

>  <nFaHRing>
0

>  <nFARing 2>
1

>  <nFAHRing 2>
1

>  <nRot>
6

>  <SLogP>
4.53

>  <SMR>
119.49

>  <TopoPSA(NO)>
32.78

>  <TopoPSA>
32.78

>  <JGI1>
0.18

>  <JGI2>
0.07

>  <JGI3>
0.03

>  <JGI4>
0.04

>  <JGI5>
0.02

>  <Diameter>
19

>  <Radius>
10

>  <TMWC10>
139.16

>  <TSRW10>
65.55

>  <MW>
400.22

>  <AMW>
6.9

>  <WPath>
3003

>  <WPol>
46

>  <Zagreb1>
156

>  <Zagreb2>
181

>  <mZagreb2>
6.67

>  <yes>


>  <nAR-cont>
0.816016

>  <nHA-cont>
0.74523694

>  <MWHBN>
0.149958767

>  <MWHBN-cont>
0.932407459

>  <TPSA-cont>
0.771175245

>  <pka_cont>
0.97

>  <yes.1>


>  <BBB_SCORE>
4.987214617

>  <MMFF94 Energy>
83.057

$$$$
Compound 2212
Actelion Java MolfileCreator 2.0

  0  0  0  0  0  0              0 V3000
M  V30 BEGIN CTAB
M  V30 COUNTS 55 57 0 0 0
M  V30 BEGIN ATOM
M  V30 1 S 2.6434 2.2426 0.24 0
M  V30 2 C 3.6905 2.9608 -1.0646 0
M  V30 3 C 1.0897 2.0583 -0.7049 0
M  V30 4 C 3.9486 2.0133 -2.2075 0
M  V30 5 C -0.0729 1.6505 0.1898 0
M  V30 6 C 3.359 2.2279 -3.4593 0
M  V30 7 C 4.7816 0.8978 -2.0394 0
M  V30 8 O -1.2007 2.1022 0.0123 0
M  V30 9 N 0.2327 0.6919 1.1306 0
M  V30 10 C 3.5957 1.3412 -4.5126 0
M  V30 11 C 5.0169 0.0118 -3.0971 0
M  V30 12 C -0.7175 0.08 2.0504 0 CFG=2
M  V30 13 C 4.4231 0.23 -4.3393 0
M  V30 14 C -1.7506 -0.7909 1.3829 0
M  V30 15 C -1.3769 1.1013 2.975 0
M  V30 16 O 4.5674 -0.5536 -5.4503 0
M  V30 17 C -3.0414 -0.8791 1.9151 0
M  V30 18 C -1.4359 -1.5755 0.2628 0
M  V30 19 C -2.46 0.4376 3.8351 0
M  V30 20 C 5.3991 -1.7 -5.325 0
M  V30 21 O -3.4627 -0.2056 3.0309 0
M  V30 22 C -4.0127 -1.6865 1.3105 0
M  V30 23 C -2.4038 -2.389 -0.3309 0
M  V30 24 C -3.1969 1.5286 4.6278 0
M  V30 25 C -1.8923 -0.5828 4.8339 0
M  V30 26 C -3.6991 -2.4433 0.1832 0
M  V30 27 O -4.5503 -3.2735 -0.4931 0
M  V30 28 C -5.9027 -3.2971 -0.0533 0
M  V30 29 H 4.6494 3.2443 -0.6157 0
M  V30 30 H 3.2316 3.8913 -1.4173 0
M  V30 31 H 1.2057 1.2868 -1.4713 0
M  V30 32 H 0.8406 3.014 -1.1761 0
M  V30 33 H 2.7094 3.0839 -3.6288 0
M  V30 34 H 5.2538 0.7087 -1.0768 0
M  V30 35 H 1.2127 0.4505 1.2281 0
M  V30 36 H 3.1305 1.518 -5.4797 0
M  V30 37 H 5.6679 -0.8365 -2.9153 0
M  V30 38 H -0.1017 -0.5894 2.665 0
M  V30 39 H -0.6183 1.5892 3.6001 0
M  V30 40 H -1.8463 1.8945 2.3799 0
M  V30 41 H -0.4371 -1.5531 -0.165 0
M  V30 42 H 6.4301 -1.4158 -5.0899 0
M  V30 43 H 5.4076 -2.2139 -6.291 0
M  V30 44 H 5.0009 -2.3973 -4.5804 0
M  V30 45 H -5.0023 -1.7061 1.7539 0
M  V30 46 H -2.1472 -2.9804 -1.2062 0
M  V30 47 H -2.5189 2.0734 5.2932 0
M  V30 48 H -3.6727 2.2484 3.9515 0
M  V30 49 H -4.0039 1.0971 5.2316 0
M  V30 50 H -1.1317 -0.1307 5.4789 0
M  V30 51 H -2.6898 -0.9844 5.4703 0
M  V30 52 H -1.4495 -1.4487 4.3317 0
M  V30 53 H -5.9788 -3.6948 0.964 0
M  V30 54 H -6.4573 -3.9694 -0.7151 0
M  V30 55 H -6.3612 -2.3052 -0.1266 0
M  V30 END ATOM
M  V30 BEGIN BOND
M  V30 1 1 1 2
M  V30 2 1 1 3
M  V30 3 1 2 4
M  V30 4 1 3 5
M  V30 5 2 4 6
M  V30 6 1 4 7
M  V30 7 2 5 8
M  V30 8 1 5 9
M  V30 9 1 6 10
M  V30 10 2 7 11
M  V30 11 1 9 12
M  V30 12 2 10 13
M  V30 13 1 12 14
M  V30 14 1 12 15
M  V30 15 1 13 16
M  V30 16 2 14 17
M  V30 17 1 14 18
M  V30 18 1 15 19
M  V30 19 1 16 20
M  V30 20 1 17 21
M  V30 21 1 17 22
M  V30 22 2 18 23
M  V30 23 1 19 24
M  V30 24 1 19 25
M  V30 25 2 22 26
M  V30 26 1 26 27
M  V30 27 1 27 28
M  V30 28 1 11 13
M  V30 29 1 19 21
M  V30 30 1 23 26
M  V30 31 1 2 29
M  V30 32 1 2 30
M  V30 33 1 3 31
M  V30 34 1 3 32
M  V30 35 1 6 33
M  V30 36 1 7 34
M  V30 37 1 9 35
M  V30 38 1 10 36
M  V30 39 1 11 37
M  V30 40 1 12 38
M  V30 41 1 15 39
M  V30 42 1 15 40
M  V30 43 1 18 41
M  V30 44 1 20 42
M  V30 45 1 20 43
M  V30 46 1 20 44
M  V30 47 1 22 45
M  V30 48 1 23 46
M  V30 49 1 24 47
M  V30 50 1 24 48
M  V30 51 1 24 49
M  V30 52 1 25 50
M  V30 53 1 25 51
M  V30 54 1 25 52
M  V30 55 1 28 53
M  V30 56 1 28 54
M  V30 57 1 28 55
M  V30 END BOND
M  V30 BEGIN COLLECTION
M  V30 MDLV30/STEABS ATOMS=(1 12)
M  V30 END COLLECTION
M  V30 END CTAB
M  END
>  <Column 1>
2713

>  <level_0>
3946

>  <index>
3946

>  <Unnamed: 0>
3946

>  <NO.>
3958

>  <Name>
omeprazole

>  <IUPAC_name>
n-[(4s)-7-methoxy-2-2-dimethyl-3-4-dihydrochromen-4-yl]-2-[(4-methoxyphenyl)methylsulfanyl]acetamide

>  <SMILES>
COc1ccc(CSCC(=O)N[C@H]2CC(C)(C)Oc3cc(OC)ccc32)cc1

>  <CID>
100004594

>  <logBB>


>  <BBB+/BBB->
BBB-

>  <Inchi>
InChI=1S/C22H27NO4S/c1-22(2)12-19(18-10-9-17(26-4)11-20(18)27-22)23-21(24)14-28-13-15-5-7-16(25-3)8-6-15/h5-11-19H-12-14H2-1-4H3-(H-23-24)/t19-/m0/s1

>  <threshold>
-1

>  <reference>
R16|R10|

>  <group>
B

>  <Class>
1

>  <ABC>
21.56

>  <ABCGG>
16.25

>  <nAcid>
0

>  <nBase>
0

>  <nAromAtom>
12

>  <nAromBond>
12

>  <nAtom>
55

>  <nHeavyAtom>
28

>  <nSpiro>
0

>  <nBridgehead>
0

>  <nHetero>
6

>  <nN>
1

>  <nO>
4

>  <nF>
0

>  <BalabanJ>
1.43

>  <BertzCT>
819.79

>  <nBonds>
57

>  <nBondsO>
30

>  <nBondsS>
44

>  <nBondsD>
1

>  <nBondsT>
0

>  <nBondsA>
12

>  <nBondsM>
13

>  <nBondsKS>
50

>  <nBondsKD>
7

>  <RNCG>
0.19

>  <RPCG>
0.09

>  <FCSP3>
0.41

>  <SZ>
35.67

>  <Sm>
33.43

>  <Sv>
34.12

>  <Sse>
55.05

>  <Sp>
37.1

>  <Si>
61.65

>  <MZ>
0.65

>  <Mm>
0.61

>  <Mv>
0.62

>  <Mse>
1

>  <Mp>
0.67

>  <Mi>
1.12

>  <NsCH3>
4

>  <NdCH2>
0

>  <NssCH2>
3

>  <NtCH>
0

>  <NdsCH>
0

>  <NaaCH>
7

>  <NsssCH>
1

>  <NddC>
0

>  <NtsC>
0

>  <NdssC>
1

>  <NaasC>
5

>  <NaaaC>
0

>  <NssssC>
1

>  <NsNH3>
0

>  <NsNH2>
0

>  <NssNH2>
0

>  <NdNH>
0

>  <NssNH>
1

>  <NaaNH>
0

>  <NtN>
0

>  <NsssNH>
0

>  <NdsN>
0

>  <NaaN>
0

>  <NsssN>
0

>  <NddsN>
0

>  <NaasN>
0

>  <NssssN>
0

>  <NsOH>
0

>  <NdO>
1

>  <NssO>
3

>  <NaaO>
0

>  <NsF>
0

>  <NsSiH3>
0

>  <NssSiH2>
0

>  <NsssSiH>
0

>  <NssssSi>
0

>  <NsPH2>
0

>  <NssPH>
0

>  <NsssP>
0

>  <NdsssP>
0

>  <NsssssP>
0

>  <NsSH>
0

>  <NdS>
0

>  <NssS>
1

>  <NaaS>
0

>  <NdssS>
0

>  <NddssS>
0

>  <NsCl>
0

>  <NsBr>
0

>  <NsI>
0

>  <fragCpx>
144.06

>  <fMF>
0.38

>  <nHBAcc>
5

>  <nHBDon>
1

>  <Kier1>
22.68

>  <Kier2>
10.35

>  <Lipinski>
1

>  <GhoseFilter>
1

>  <FilterItLogS>
-6.05

>  <VMcGowan>
307.97

>  <LabuteASA>
170.31

>  <PEOE_VSA1>
19.53

>  <PEOE_VSA2>
4.79

>  <PEOE_VSA3>
0

>  <PEOE_VSA4>
0

>  <PEOE_VSA5>
11.76

>  <PEOE_VSA6>
12.13

>  <PEOE_VSA7>
43.68

>  <PEOE_VSA8>
23.8

>  <PEOE_VSA9>
26.01

>  <PEOE_VSA10>
22.85

>  <PEOE_VSA11>
0

>  <PEOE_VSA12>
5.91

>  <PEOE_VSA13>
0

>  <SMR_VSA1>
19.01

>  <SMR_VSA2>
0

>  <SMR_VSA3>
5.32

>  <SMR_VSA4>
0

>  <SMR_VSA5>
37.66

>  <SMR_VSA6>
19.97

>  <SMR_VSA7>
53.59

>  <SMR_VSA8>
0

>  <SMR_VSA9>
17.25

>  <SlogP_VSA1>
19.53

>  <SlogP_VSA2>
31.48

>  <SlogP_VSA3>
10.55

>  <SlogP_VSA4>
0

>  <SlogP_VSA5>
37.44

>  <SlogP_VSA6>
42.46

>  <SlogP_VSA7>
0

>  <SlogP_VSA8>
0

>  <SlogP_VSA9>
0

>  <SlogP_VSA10>
0

>  <SlogP_VSA11>
17.25

>  <EState_VSA1>
0

>  <EState_VSA2>
17.55

>  <EState_VSA3>
5.75

>  <EState_VSA4>
34.99

>  <EState_VSA5>
5.56

>  <EState_VSA6>
25.98

>  <EState_VSA7>
56.31

>  <EState_VSA8>
5.32

>  <EState_VSA9>
14.21

>  <EState_VSA10>
4.79

>  <VSA_EState1>
16.55

>  <VSA_EState2>
12.53

>  <VSA_EState3>
3.17

>  <VSA_EState4>
1.81

>  <VSA_EState5>
3.58

>  <VSA_EState6>
13.6

>  <VSA_EState7>
0.72

>  <VSA_EState8>
4.07

>  <VSA_EState9>
3.29

>  <apol>
61.95

>  <bpol>
36.19

>  <nRing>
3

>  <nHRing>
1

>  <naRing>
2

>  <naHRing>
0

>  <nARing 2>
1

>  <nAHRing 2>
1

>  <nFRing>
1

>  <nFHRing>
1

>  <nFaRing>
0

>  <nFaHRing>
0

>  <nFARing 2>
1

>  <nFAHRing 2>
1

>  <nRot>
7

>  <SLogP>
4.36

>  <SMR>
112.36

>  <TopoPSA(NO)>
56.79

>  <TopoPSA>
82.09

>  <JGI1>
0.25

>  <JGI2>
0.07

>  <JGI3>
0.05

>  <JGI4>
0.05

>  <JGI5>
0.04

>  <Diameter>
17

>  <Radius>
9

>  <TMWC10>
133.82

>  <TSRW10>
63.25

>  <MW>
401.17

>  <AMW>
7.29

>  <WPath>
2360

>  <WPol>
42

>  <Zagreb1>
144

>  <Zagreb2>
165

>  <mZagreb2>
6.22

>  <yes>


>  <nAR-cont>
0.816016

>  <nHA-cont>
0.82432561

>  <MWHBN>
0.29956221

>  <MWHBN-cont>
0.842044774

>  <TPSA-cont>
0.426960825

>  <pka_cont>
0.97

>  <yes.1>


>  <BBB_SCORE>
4.242330422

>  <MMFF94 Energy>
52.63

$$$$
Compound 2213
Actelion Java MolfileCreator 2.0

  0  0  0  0  0  0              0 V3000
M  V30 BEGIN CTAB
M  V30 COUNTS 53 56 0 0 0
M  V30 BEGIN ATOM
M  V30 1 O -1.0379 -0.7185 -4.1568 0
M  V30 2 C -0.9136 -0.8326 -2.9461 0
M  V30 3 N -1.0229 0.1493 -1.9602 0
M  V30 4 C -0.6971 -2.1599 -2.2631 0
M  V30 5 C -1.2477 1.5288 -2.1868 0
M  V30 6 C -0.9177 -0.4068 -0.6338 0
M  V30 7 C -0.3461 -1.8027 -0.8208 0 CFG=2
M  V30 8 C -0.8573 2.1395 -3.3832 0
M  V30 9 C -1.8461 2.3267 -1.2039 0
M  V30 10 C 1.1622 -1.779 -0.5885 0
M  V30 11 C -1.069 3.5082 -3.6028 0
M  V30 12 C -2.0567 3.693 -1.4228 0
M  V30 13 O 1.9114 -1.4876 -1.5241 0
M  V30 14 N 1.6655 -2.0321 0.6919 0
M  V30 15 C -1.6722 4.2913 -2.6222 0
M  V30 16 C 0.8483 -2.4187 1.8643 0 CFG=2
M  V30 17 C 3.0968 -1.759 0.8919 0
M  V30 18 O -1.9362 5.63 -2.707 0
M  V30 19 C 0.0885 -1.2682 2.4969 0
M  V30 20 C 1.6057 -3.2483 2.9188 0
M  V30 21 C 3.782 -2.6778 1.8915 0
M  V30 22 C -1.5644 6.2798 -3.9161 0
M  V30 23 C 0.6633 -0.0344 2.7803 0
M  V30 24 C -1.2588 -1.4288 2.856 0
M  V30 25 C 3.0103 -2.739 3.1972 0
M  V30 26 N 0.0039 1.0035 3.3457 0
M  V30 27 C -1.9604 -0.3788 3.4425 0
M  V30 28 C -1.2913 0.8098 3.6642 0
M  V30 29 H 0.0785 -2.7342 -2.7765 0
M  V30 30 H -1.6421 -2.7128 -2.3046 0
M  V30 31 H -0.2886 0.2364 -0.0114 0
M  V30 32 H -1.9259 -0.4647 -0.2076 0
M  V30 33 H -0.824 -2.5251 -0.1599 0
M  V30 34 H -0.3676 1.5673 -4.1674 0
M  V30 35 H -2.1684 1.9097 -0.255 0
M  V30 36 H -0.7452 3.9223 -4.5516 0
M  V30 37 H -2.5254 4.2953 -0.6484 0
M  V30 38 H 0.0915 -3.1094 1.4773 0
M  V30 39 H 3.1844 -0.7178 1.2196 0
M  V30 40 H 3.6379 -1.8229 -0.0583 0
M  V30 41 H 1.6932 -4.2777 2.5442 0
M  V30 42 H 1.0385 -3.3125 3.8555 0
M  V30 43 H 4.803 -2.3261 2.0768 0
M  V30 44 H 3.8625 -3.6858 1.4657 0
M  V30 45 H -0.4815 6.2339 -4.0721 0
M  V30 46 H -1.8431 7.3344 -3.828 0
M  V30 47 H -2.1062 5.8629 -4.7715 0
M  V30 48 H 1.7021 0.1819 2.5562 0
M  V30 49 H -1.7716 -2.373 2.6855 0
M  V30 50 H 2.9791 -1.7523 3.672 0
M  V30 51 H 3.5166 -3.4156 3.8948 0
M  V30 52 H -3.0019 -0.4872 3.7251 0
M  V30 53 H -1.79 1.6605 4.12 0
M  V30 END ATOM
M  V30 BEGIN BOND
M  V30 1 2 1 2
M  V30 2 1 2 3
M  V30 3 1 2 4
M  V30 4 1 3 5
M  V30 5 1 3 6
M  V30 6 1 4 7
M  V30 7 2 5 8
M  V30 8 1 5 9
M  V30 9 1 7 10
M  V30 10 1 8 11
M  V30 11 2 9 12
M  V30 12 2 10 13
M  V30 13 1 10 14
M  V30 14 2 11 15
M  V30 15 1 14 16
M  V30 16 1 14 17
M  V30 17 1 15 18
M  V30 18 1 16 19
M  V30 19 1 16 20
M  V30 20 1 17 21
M  V30 21 1 18 22
M  V30 22 2 19 23
M  V30 23 1 19 24
M  V30 24 1 20 25
M  V30 25 1 23 26
M  V30 26 2 24 27
M  V30 27 2 26 28
M  V30 28 1 6 7
M  V30 29 1 12 15
M  V30 30 1 21 25
M  V30 31 1 27 28
M  V30 32 1 4 29
M  V30 33 1 4 30
M  V30 34 1 6 31
M  V30 35 1 6 32
M  V30 36 1 7 33
M  V30 37 1 8 34
M  V30 38 1 9 35
M  V30 39 1 11 36
M  V30 40 1 12 37
M  V30 41 1 16 38
M  V30 42 1 17 39
M  V30 43 1 17 40
M  V30 44 1 20 41
M  V30 45 1 20 42
M  V30 46 1 21 43
M  V30 47 1 21 44
M  V30 48 1 22 45
M  V30 49 1 22 46
M  V30 50 1 22 47
M  V30 51 1 23 48
M  V30 52 1 24 49
M  V30 53 1 25 50
M  V30 54 1 25 51
M  V30 55 1 27 52
M  V30 56 1 28 53
M  V30 END BOND
M  V30 BEGIN COLLECTION
M  V30 MDLV30/STEABS ATOMS=(2 7 16)
M  V30 END COLLECTION
M  V30 END CTAB
M  END
>  <Column 1>
2714

>  <level_0>
3947

>  <index>
3947

>  <Unnamed: 0>
3947

>  <NO.>
3959

>  <Name>
gabapentin

>  <IUPAC_name>
(4r)-1-(4-methoxyphenyl)-4-[(2s)-2-pyridin-3-ylpiperidine-1-carbonyl]pyrrolidin-2-one

>  <SMILES>
COc1ccc(N2C[C@H](C(=O)N3CCCC[C@H]3c3cccnc3)CC2=O)cc1

>  <CID>
100003446

>  <logBB>


>  <BBB+/BBB->
BBB+

>  <Inchi>
InChI=1S/C22H25N3O3/c1-28-19-9-7-18(8-10-19)25-15-17(13-21(25)26)22(27)24-12-3-2-6-20(24)16-5-4-11-23-14-16/h4-5-7-11-14-17-20H-2-3-6-12-13-15H2-1H3/t17--20+/m1/s1

>  <threshold>
-1

>  <reference>
R16|R10|

>  <group>
B

>  <Class>
1

>  <ABC>
21.9

>  <ABCGG>
17.09

>  <nAcid>
0

>  <nBase>
0

>  <nAromAtom>
12

>  <nAromBond>
12

>  <nAtom>
53

>  <nHeavyAtom>
28

>  <nSpiro>
0

>  <nBridgehead>
0

>  <nHetero>
6

>  <nN>
3

>  <nO>
3

>  <nF>
0

>  <BalabanJ>
1.36

>  <BertzCT>
837.87

>  <nBonds>
56

>  <nBondsO>
31

>  <nBondsS>
42

>  <nBondsD>
2

>  <nBondsT>
0

>  <nBondsA>
12

>  <nBondsM>
14

>  <nBondsKS>
48

>  <nBondsKD>
8

>  <RNCG>
0.22

>  <RPCG>
0.1

>  <FCSP3>
0.41

>  <SZ>
33.67

>  <Sm>
31.59

>  <Sv>
33.19

>  <Sse>
53.08

>  <Sp>
35.4

>  <Si>
59.69

>  <MZ>
0.64

>  <Mm>
0.6

>  <Mv>
0.63

>  <Mse>
1

>  <Mp>
0.67

>  <Mi>
1.13

>  <NsCH3>
1

>  <NdCH2>
0

>  <NssCH2>
6

>  <NtCH>
0

>  <NdsCH>
0

>  <NaaCH>
8

>  <NsssCH>
2

>  <NddC>
0

>  <NtsC>
0

>  <NdssC>
2

>  <NaasC>
3

>  <NaaaC>
0

>  <NssssC>
0

>  <NsNH3>
0

>  <NsNH2>
0

>  <NssNH2>
0

>  <NdNH>
0

>  <NssNH>
0

>  <NaaNH>
0

>  <NtN>
0

>  <NsssNH>
0

>  <NdsN>
0

>  <NaaN>
1

>  <NsssN>
2

>  <NddsN>
0

>  <NaasN>
0

>  <NssssN>
0

>  <NsOH>
0

>  <NdO>
2

>  <NssO>
1

>  <NaaO>
0

>  <NsF>
0

>  <NsSiH3>
0

>  <NssSiH2>
0

>  <NsssSiH>
0

>  <NssssSi>
0

>  <NsPH2>
0

>  <NssPH>
0

>  <NsssP>
0

>  <NdsssP>
0

>  <NsssssP>
0

>  <NsSH>
0

>  <NdS>
0

>  <NssS>
0

>  <NaaS>
0

>  <NdssS>
0

>  <NddssS>
0

>  <NsCl>
0

>  <NsBr>
0

>  <NsI>
0

>  <fragCpx>
205.06

>  <fMF>
0.45

>  <nHBAcc>
4

>  <nHBDon>
0

>  <Kier1>
21.24

>  <Kier2>
9.87

>  <Lipinski>
1

>  <GhoseFilter>
1

>  <FilterItLogS>
-3.94

>  <VMcGowan>
290.55

>  <LabuteASA>
164.67

>  <PEOE_VSA1>
14.54

>  <PEOE_VSA2>
14.57

>  <PEOE_VSA3>
0

>  <PEOE_VSA4>
0

>  <PEOE_VSA5>
0

>  <PEOE_VSA6>
6.07

>  <PEOE_VSA7>
55.16

>  <PEOE_VSA8>
37.59

>  <PEOE_VSA9>
19.07

>  <PEOE_VSA10>
5.75

>  <PEOE_VSA11>
0

>  <PEOE_VSA12>
11.81

>  <PEOE_VSA13>
0

>  <SMR_VSA1>
14.33

>  <SMR_VSA2>
0

>  <SMR_VSA3>
9.88

>  <SMR_VSA4>
5.92

>  <SMR_VSA5>
31.73

>  <SMR_VSA6>
25.1

>  <SMR_VSA7>
54.36

>  <SMR_VSA8>
0

>  <SMR_VSA9>
5.75

>  <SlogP_VSA1>
9.64

>  <SlogP_VSA2>
41.9

>  <SlogP_VSA3>
9.59

>  <SlogP_VSA4>
5.92

>  <SlogP_VSA5>
37.29

>  <SlogP_VSA6>
48.79

>  <SlogP_VSA7>
0

>  <SlogP_VSA8>
0

>  <SlogP_VSA9>
0

>  <SlogP_VSA10>
5.69

>  <SlogP_VSA11>
5.75

>  <EState_VSA1>
0

>  <EState_VSA2>
30.19

>  <EState_VSA3>
6.54

>  <EState_VSA4>
42.81

>  <EState_VSA5>
0

>  <EState_VSA6>
18.21

>  <EState_VSA7>
47.49

>  <EState_VSA8>
4.98

>  <EState_VSA9>
4.74

>  <EState_VSA10>
9.59

>  <VSA_EState1>
5.18

>  <VSA_EState2>
33.81

>  <VSA_EState3>
0

>  <VSA_EState4>
1.88

>  <VSA_EState5>
0.53

>  <VSA_EState6>
11.4

>  <VSA_EState7>
6.91

>  <VSA_EState8>
1.17

>  <VSA_EState9>
1.61

>  <apol>
59.12

>  <bpol>
33.11

>  <nRing>
4

>  <nHRing>
3

>  <naRing>
2

>  <naHRing>
1

>  <nARing 2>
2

>  <nAHRing 2>
2

>  <nFRing>
0

>  <nFHRing>
0

>  <nFaRing>
0

>  <nFaHRing>
0

>  <nFARing 2>
0

>  <nFAHRing 2>
0

>  <nRot>
4

>  <SLogP>
3.2

>  <SMR>
106

>  <TopoPSA(NO)>
62.74

>  <TopoPSA>
62.74

>  <JGI1>
0.15

>  <JGI2>
0.08

>  <JGI3>
0.05

>  <JGI4>
0.03

>  <JGI5>
0.02

>  <Diameter>
15

>  <Radius>
8

>  <TMWC10>
135.72

>  <TSRW10>
77.37

>  <MW>
379.19

>  <AMW>
7.15

>  <WPath>
2117

>  <WPol>
45

>  <Zagreb1>
148

>  <Zagreb2>
176

>  <mZagreb2>
6.25

>  <yes>


>  <nAR-cont>
1

>  <nHA-cont>
0.82432561

>  <MWHBN>
0.205414716

>  <MWHBN-cont>
0.999972169

>  <TPSA-cont>
0.562035841

>  <pka_cont>
0.97

>  <yes.1>


>  <BBB_SCORE>
4.933355546

>  <MMFF94 Energy>
9.8775

$$$$
Compound 2214
Actelion Java MolfileCreator 2.0

  0  0  0  0  0  0              0 V3000
M  V30 BEGIN CTAB
M  V30 COUNTS 57 60 0 0 0
M  V30 BEGIN ATOM
M  V30 1 S -2.9166 2.9166 0.0 0
M  V30 2 O -3.1229 1.5104 -0.2751 0
M  V30 3 O -3.9767 3.7687 0.49 0
M  V30 4 N -1.5306 3.1167 0.9889 0
M  V30 5 C -2.1702 3.6545 -1.4474 0
M  V30 6 C -1.3834 2.1762 2.0663 0
M  V30 7 C -0.3545 3.4472 0.1589 0
M  V30 8 C -0.9118 4.3448 -0.9436 0
M  V30 9 C -1.9249 2.4817 3.3221 0
M  V30 10 C -0.8151 0.9148 1.853 0
M  V30 11 O -2.4696 3.722 3.537 0
M  V30 12 C -1.8303 1.5671 4.3713 0
M  V30 13 C -0.7206 -0.0094 2.8973 0
M  V30 14 C -3.8714 3.6342 3.7914 0
M  V30 15 C -1.2346 0.3224 4.1559 0
M  V30 16 N -0.1679 -1.2965 2.7357 0
M  V30 17 C 0.7084 -1.6913 1.7333 0
M  V30 18 O 1.1869 -0.9564 0.8782 0
M  V30 19 C 1.0077 -3.1802 1.8138 0
M  V30 20 C 1.9692 -3.7118 0.757 0 CFG=2
M  V30 21 O 3.2858 -3.1504 0.9285 0
M  V30 22 C 1.6496 -3.4332 -0.6609 0
M  V30 23 C 3.7581 -2.5897 -0.2311 0
M  V30 24 C 2.7176 -2.7746 -1.2424 0
M  V30 25 C 0.516 -3.7321 -1.3973 0
M  V30 26 O 4.8418 -2.0566 -0.3575 0
M  V30 27 C 2.6947 -2.378 -2.5696 0
M  V30 28 C 0.4756 -3.3513 -2.7449 0
M  V30 29 O 3.7806 -1.7746 -3.1421 0
M  V30 30 C 1.5608 -2.6827 -3.3428 0
M  V30 31 C 3.6823 -0.3569 -3.01 0
M  V30 32 O 1.6021 -2.2811 -4.6534 0
M  V30 33 C 0.5217 -2.6651 -5.4921 0
M  V30 34 H -2.8722 4.3499 -1.9118 0
M  V30 35 H -1.9205 2.8483 -2.1433 0
M  V30 36 H 0.3932 3.9858 0.7488 0
M  V30 37 H 0.1044 2.5521 -0.2723 0
M  V30 38 H -0.1873 4.5107 -1.746 0
M  V30 39 H -1.176 5.3225 -0.5213 0
M  V30 40 H -0.4775 0.6523 0.8568 0
M  V30 41 H -2.2052 1.824 5.3577 0
M  V30 42 H -4.3679 2.907 3.1389 0
M  V30 43 H -4.3096 4.6182 3.5999 0
M  V30 44 H -4.0511 3.3824 4.8416 0
M  V30 45 H -1.1706 -0.3746 4.9872 0
M  V30 46 H -0.3905 -1.9713 3.4569 0
M  V30 47 H 0.0511 -3.7123 1.7409 0
M  V30 48 H 1.4288 -3.3723 2.8087 0
M  V30 49 H 2.0759 -4.7952 0.8915 0
M  V30 50 H -0.3295 -4.2476 -0.9517 0
M  V30 51 H -0.4214 -3.5888 -3.3085 0
M  V30 52 H 2.8234 0.0323 -3.5675 0
M  V30 53 H 4.5891 0.0825 -3.4358 0
M  V30 54 H 3.6194 -0.0519 -1.9597 0
M  V30 55 H 0.419 -3.7545 -5.5335 0
M  V30 56 H 0.7429 -2.3135 -6.5044 0
M  V30 57 H -0.4116 -2.1906 -5.1723 0
M  V30 END ATOM
M  V30 BEGIN BOND
M  V30 1 2 1 2
M  V30 2 2 1 3
M  V30 3 1 1 4
M  V30 4 1 1 5
M  V30 5 1 4 6
M  V30 6 1 4 7
M  V30 7 1 5 8
M  V30 8 2 6 9
M  V30 9 1 6 10
M  V30 10 1 9 11
M  V30 11 1 9 12
M  V30 12 2 10 13
M  V30 13 1 11 14
M  V30 14 2 12 15
M  V30 15 1 13 16
M  V30 16 1 16 17
M  V30 17 2 17 18
M  V30 18 1 17 19
M  V30 19 1 19 20
M  V30 20 1 20 21
M  V30 21 1 20 22
M  V30 22 1 21 23
M  V30 23 2 22 24
M  V30 24 1 22 25
M  V30 25 2 23 26
M  V30 26 1 24 27
M  V30 27 2 25 28
M  V30 28 1 27 29
M  V30 29 2 27 30
M  V30 30 1 29 31
M  V30 31 1 30 32
M  V30 32 1 32 33
M  V30 33 1 7 8
M  V30 34 1 13 15
M  V30 35 1 23 24
M  V30 36 1 28 30
M  V30 37 1 5 34
M  V30 38 1 5 35
M  V30 39 1 7 36
M  V30 40 1 7 37
M  V30 41 1 8 38
M  V30 42 1 8 39
M  V30 43 1 10 40
M  V30 44 1 12 41
M  V30 45 1 14 42
M  V30 46 1 14 43
M  V30 47 1 14 44
M  V30 48 1 15 45
M  V30 49 1 16 46
M  V30 50 1 19 47
M  V30 51 1 19 48
M  V30 52 1 20 49
M  V30 53 1 25 50
M  V30 54 1 28 51
M  V30 55 1 31 52
M  V30 56 1 31 53
M  V30 57 1 31 54
M  V30 58 1 33 55
M  V30 59 1 33 56
M  V30 60 1 33 57
M  V30 END BOND
M  V30 BEGIN COLLECTION
M  V30 MDLV30/STEABS ATOMS=(1 20)
M  V30 END COLLECTION
M  V30 END CTAB
M  END
>  <Column 1>
2716

>  <level_0>
3949

>  <index>
3949

>  <Unnamed: 0>
3949

>  <NO.>
3961

>  <Name>
phenoxybenzamine

>  <IUPAC_name>
2-[(1s)-4-5-dimethoxy-3-oxo-1h-2-benzofuran-1-yl]-n-[3-(1-1-dioxo-1-2-thiazolidin-2-yl)-4-methoxyphenyl]acetamide

>  <SMILES>
COc1ccc(NC(=O)C[C@@H]2OC(=O)c3c2ccc(OC)c3OC)cc1N1CCCS1(=O)=O

>  <CID>
100004768

>  <logBB>


>  <BBB+/BBB->
BBB-

>  <Inchi>
InChI=1S/C22H24N2O8S/c1-29-16-7-5-13(11-15(16)24-9-4-10-33(24-27)28)23-19(25)12-18-14-6-8-17(30-2)21(31-3)20(14)22(26)32-18/h5-8-11-18H-4-9-10-12H2-1-3H3-(H-23-25)/t18-/m0/s1

>  <threshold>
-1

>  <reference>
R16|R10|R10|

>  <group>
B

>  <Class>
1

>  <ABC>
25.65

>  <ABCGG>
20.95

>  <nAcid>
0

>  <nBase>
0

>  <nAromAtom>
12

>  <nAromBond>
12

>  <nAtom>
57

>  <nHeavyAtom>
33

>  <nSpiro>
0

>  <nBridgehead>
0

>  <nHetero>
11

>  <nN>
2

>  <nO>
8

>  <nF>
0

>  <BalabanJ>
1.34

>  <BertzCT>
1211.12

>  <nBonds>
60

>  <nBondsO>
36

>  <nBondsS>
44

>  <nBondsD>
4

>  <nBondsT>
0

>  <nBondsA>
12

>  <nBondsM>
16

>  <nBondsKS>
50

>  <nBondsKD>
10

>  <RNCG>
0.14

>  <RPCG>
0.1

>  <FCSP3>
0.36

>  <SZ>
41.67

>  <Sm>
39.67

>  <Sv>
36.92

>  <Sse>
58.7

>  <Sp>
38.48

>  <Si>
64.16

>  <MZ>
0.73

>  <Mm>
0.7

>  <Mv>
0.65

>  <Mse>
1.03

>  <Mp>
0.68

>  <Mi>
1.13

>  <NsCH3>
3

>  <NdCH2>
0

>  <NssCH2>
4

>  <NtCH>
0

>  <NdsCH>
0

>  <NaaCH>
5

>  <NsssCH>
1

>  <NddC>
0

>  <NtsC>
0

>  <NdssC>
2

>  <NaasC>
7

>  <NaaaC>
0

>  <NssssC>
0

>  <NsNH3>
0

>  <NsNH2>
0

>  <NssNH2>
0

>  <NdNH>
0

>  <NssNH>
1

>  <NaaNH>
0

>  <NtN>
0

>  <NsssNH>
0

>  <NdsN>
0

>  <NaaN>
0

>  <NsssN>
1

>  <NddsN>
0

>  <NaasN>
0

>  <NssssN>
0

>  <NsOH>
0

>  <NdO>
4

>  <NssO>
4

>  <NaaO>
0

>  <NsF>
0

>  <NsSiH3>
0

>  <NssSiH2>
0

>  <NsssSiH>
0

>  <NssssSi>
0

>  <NsPH2>
0

>  <NssPH>
0

>  <NsssP>
0

>  <NdsssP>
0

>  <NsssssP>
0

>  <NsSH>
0

>  <NdS>
0

>  <NssS>
0

>  <NaaS>
0

>  <NdssS>
0

>  <NddssS>
1

>  <NsCl>
0

>  <NsBr>
0

>  <NsI>
0

>  <fragCpx>
240.11

>  <fMF>
0.4

>  <nHBAcc>
8

>  <nHBDon>
1

>  <Kier1>
26.07

>  <Kier2>
10.95

>  <Lipinski>
1

>  <GhoseFilter>
1

>  <FilterItLogS>
-4.84

>  <VMcGowan>
326.27

>  <LabuteASA>
190.97

>  <PEOE_VSA1>
24.26

>  <PEOE_VSA2>
9.1

>  <PEOE_VSA3>
13.21

>  <PEOE_VSA4>
0

>  <PEOE_VSA5>
0

>  <PEOE_VSA6>
6.07

>  <PEOE_VSA7>
30.69

>  <PEOE_VSA8>
17.8

>  <PEOE_VSA9>
39.19

>  <PEOE_VSA10>
17.42

>  <PEOE_VSA11>
11.5

>  <PEOE_VSA12>
15.93

>  <PEOE_VSA13>
0

>  <SMR_VSA1>
36.95

>  <SMR_VSA2>
0

>  <SMR_VSA3>
0

>  <SMR_VSA4>
0

>  <SMR_VSA5>
18.95

>  <SMR_VSA6>
43.25

>  <SMR_VSA7>
41.46

>  <SMR_VSA8>
0

>  <SMR_VSA9>
17.25

>  <SlogP_VSA1>
23.83

>  <SlogP_VSA2>
53.92

>  <SlogP_VSA3>
19.55

>  <SlogP_VSA4>
0

>  <SlogP_VSA5>
34.87

>  <SlogP_VSA6>
30.33

>  <SlogP_VSA7>
0

>  <SlogP_VSA8>
0

>  <SlogP_VSA9>
0

>  <SlogP_VSA10>
11.37

>  <SlogP_VSA11>
17.25

>  <EState_VSA1>
28

>  <EState_VSA2>
23.49

>  <EState_VSA3>
41.4

>  <EState_VSA4>
0

>  <EState_VSA5>
25.63

>  <EState_VSA6>
30.33

>  <EState_VSA7>
0

>  <EState_VSA8>
5.32

>  <EState_VSA9>
18.95

>  <EState_VSA10>
18.01

>  <VSA_EState1>
47.25

>  <VSA_EState2>
25.18

>  <VSA_EState3>
2.74

>  <VSA_EState4>
1.53

>  <VSA_EState5>
0.1

>  <VSA_EState6>
8.09

>  <VSA_EState7>
-0.4

>  <VSA_EState8>
0.34

>  <VSA_EState9>
0.91

>  <apol>
64.26

>  <bpol>
41.69

>  <nRing>
4

>  <nHRing>
2

>  <naRing>
2

>  <naHRing>
0

>  <nARing 2>
2

>  <nAHRing 2>
2

>  <nFRing>
1

>  <nFHRing>
1

>  <nFaRing>
0

>  <nFaHRing>
0

>  <nFARing 2>
1

>  <nFAHRing 2>
1

>  <nRot>
7

>  <SLogP>
2.49

>  <SMR>
119.69

>  <TopoPSA(NO)>
120.47

>  <TopoPSA>
128.85

>  <JGI1>
0.22

>  <JGI2>
0.09

>  <JGI3>
0.06

>  <JGI4>
0.04

>  <JGI5>
0.03

>  <Diameter>
15

>  <Radius>
8

>  <TMWC10>
148.23

>  <TSRW10>
85.7

>  <MW>
476.13

>  <AMW>
8.35

>  <WPath>
3380

>  <WPol>
57

>  <Zagreb1>
178

>  <Zagreb2>
215

>  <mZagreb2>
7.32

>  <yes>


>  <nAR-cont>
1

>  <nHA-cont>
0.61399562

>  <MWHBN>
0.412458004

>  <MWHBN-cont>
0.427225156

>  <TPSA-cont>
0

>  <pka_cont>
0.97

>  <yes.1>


>  <BBB_SCORE>
2.739833354

>  <MMFF94 Energy>
34.217

$$$$
Compound 2215
Actelion Java MolfileCreator 2.0

  0  0  0  0  0  0              0 V3000
M  V30 BEGIN CTAB
M  V30 COUNTS 48 50 0 0 0
M  V30 BEGIN ATOM
M  V30 1 F -1.9984 5.122 -0.3195 0
M  V30 2 C -1.107 4.151 -0.571 0
M  V30 3 C -0.4553 4.0999 -1.8052 0
M  V30 4 C -0.8567 3.2077 0.4248 0
M  V30 5 O -0.7876 5.0821 -2.6972 0
M  V30 6 C 0.4574 3.0697 -2.0319 0
M  V30 7 C 0.065 2.1735 0.21 0
M  V30 8 C -0.0769 5.1117 -3.9276 0
M  V30 9 C 0.711 2.1149 -1.0359 0
M  V30 10 C 0.3038 1.1513 1.3075 0 CFG=1
M  V30 11 N -0.1304 -0.1585 0.8657 0
M  V30 12 C 1.7827 1.1027 1.7061 0
M  V30 13 C -0.8197 -1.0238 1.6819 0
M  V30 14 C 2.1872 0.2245 2.9255 0
M  V30 15 C 2.8455 0.3036 0.8937 0
M  V30 16 O -1.0627 -0.8196 2.8635 0
M  V30 17 C -1.2381 -2.2787 0.9741 0
M  V30 18 C 3.5475 -0.01 2.2338 0
M  V30 19 N -1.5298 -2.2505 -0.3752 0
M  V30 20 C -1.3153 -3.4026 1.6988 0
M  V30 21 O 4.6082 0.8915 2.6023 0
M  V30 22 C -1.9195 -3.3821 -1.0462 0
M  V30 23 C -1.7057 -4.6581 1.0056 0
M  V30 24 C -2.0299 -4.5957 -0.4705 0
M  V30 25 O -1.7504 -5.708 1.6414 0
M  V30 26 O -2.4119 -5.7732 -1.0731 0
M  V30 27 C -2.7383 -5.7328 -2.4547 0
M  V30 28 H -1.3953 3.296 1.3652 0
M  V30 29 H 0.9907 2.9777 -2.9726 0
M  V30 30 H 0.9976 5.2411 -3.7615 0
M  V30 31 H -0.432 5.9752 -4.4986 0
M  V30 32 H -0.2803 4.214 -4.5206 0
M  V30 33 H 1.428 1.3267 -1.2526 0
M  V30 34 H -0.2791 1.4365 2.1923 0
M  V30 35 H 0.1277 -0.4682 -0.0601 0
M  V30 36 H 2.127 2.1371 1.8806 0
M  V30 37 H 1.6185 -0.7004 3.062 0
M  V30 38 H 2.224 0.7537 3.8823 0
M  V30 39 H 2.4784 -0.5918 0.3806 0
M  V30 40 H 3.4317 0.8969 0.1859 0
M  V30 41 H 3.903 -1.0438 2.3055 0
M  V30 42 H -1.6467 -1.3443 -0.8203 0
M  V30 43 H -1.1017 -3.4612 2.758 0
M  V30 44 H 4.8358 0.6502 3.5172 0
M  V30 45 H -2.143 -3.2024 -2.0916 0
M  V30 46 H -3.5953 -5.0759 -2.636 0
M  V30 47 H -3.0172 -6.744 -2.7656 0
M  V30 48 H -1.8751 -5.4223 -3.0524 0
M  V30 END ATOM
M  V30 BEGIN BOND
M  V30 1 1 1 2
M  V30 2 2 2 3
M  V30 3 1 2 4
M  V30 4 1 3 5
M  V30 5 1 3 6
M  V30 6 2 4 7
M  V30 7 1 5 8
M  V30 8 2 6 9
M  V30 9 1 7 10
M  V30 10 1 10 11
M  V30 11 1 10 12
M  V30 12 1 11 13
M  V30 13 1 12 14
M  V30 14 1 12 15
M  V30 15 2 13 16
M  V30 16 1 13 17
M  V30 17 1 14 18
M  V30 18 1 17 19
M  V30 19 2 17 20
M  V30 20 1 18 21
M  V30 21 1 19 22
M  V30 22 1 20 23
M  V30 23 2 22 24
M  V30 24 2 23 25
M  V30 25 1 24 26
M  V30 26 1 26 27
M  V30 27 1 7 9
M  V30 28 1 15 18
M  V30 29 1 23 24
M  V30 30 1 4 28
M  V30 31 1 6 29
M  V30 32 1 8 30
M  V30 33 1 8 31
M  V30 34 1 8 32
M  V30 35 1 9 33
M  V30 36 1 10 34
M  V30 37 1 11 35
M  V30 38 1 12 36
M  V30 39 1 14 37
M  V30 40 1 14 38
M  V30 41 1 15 39
M  V30 42 1 15 40
M  V30 43 1 18 41
M  V30 44 1 19 42
M  V30 45 1 20 43
M  V30 46 1 21 44
M  V30 47 1 22 45
M  V30 48 1 27 46
M  V30 49 1 27 47
M  V30 50 1 27 48
M  V30 END BOND
M  V30 BEGIN COLLECTION
M  V30 MDLV30/STEABS ATOMS=(1 10)
M  V30 END COLLECTION
M  V30 END CTAB
M  END
>  <Column 1>
2717

>  <level_0>
3951

>  <index>
3951

>  <Unnamed: 0>
3951

>  <NO.>
3963

>  <Name>
cetirizine

>  <IUPAC_name>
n-[(s)-(3-fluoro-4-methoxyphenyl)-(3-hydroxycyclobutyl)methyl]-5-methoxy-4-oxo-1h-pyridine-2-carboxamide

>  <SMILES>
COc1ccc([C@@H](NC(=O)c2cc(=O)c(OC)c[nH]2)C2CC(O)C2)cc1F

>  <CID>
100002678

>  <logBB>


>  <BBB+/BBB->
BBB-

>  <Inchi>
InChI=1S/C19H21FN2O5/c1-26-16-4-3-10(7-13(16)20)18(11-5-12(23)6-11)22-19(25)14-8-15(24)17(27-2)9-21-14/h3-4-7-9-11-12-18-23H-5-6H2-1-2H3-(H-21-24)(H-22-25)/t11?-12?-18-/m1/s1

>  <threshold>
-1

>  <reference>
R16|R10|

>  <group>
B

>  <Class>
-1

>  <ABC>
20.74

>  <ABCGG>
17.14

>  <nAcid>
0

>  <nBase>
0

>  <nAromAtom>
12

>  <nAromBond>
12

>  <nAtom>
48

>  <nHeavyAtom>
27

>  <nSpiro>
0

>  <nBridgehead>
0

>  <nHetero>
8

>  <nN>
2

>  <nO>
5

>  <nF>
1

>  <BalabanJ>
1.6

>  <BertzCT>
891.91

>  <nBonds>
50

>  <nBondsO>
29

>  <nBondsS>
36

>  <nBondsD>
2

>  <nBondsT>
0

>  <nBondsA>
12

>  <nBondsM>
14

>  <nBondsKS>
43

>  <nBondsKD>
7

>  <RNCG>
0.16

>  <RPCG>
0.09

>  <FCSP3>
0.37

>  <SZ>
33

>  <Sm>
31.34

>  <Sv>
30.43

>  <Sse>
49.26

>  <Sp>
31.44

>  <Si>
54.54

>  <MZ>
0.69

>  <Mm>
0.65

>  <Mv>
0.63

>  <Mse>
1.03

>  <Mp>
0.65

>  <Mi>
1.14

>  <NsCH3>
2

>  <NdCH2>
0

>  <NssCH2>
2

>  <NtCH>
0

>  <NdsCH>
0

>  <NaaCH>
5

>  <NsssCH>
3

>  <NddC>
0

>  <NtsC>
0

>  <NdssC>
1

>  <NaasC>
5

>  <NaaaC>
0

>  <NssssC>
0

>  <NsNH3>
0

>  <NsNH2>
0

>  <NssNH2>
0

>  <NdNH>
0

>  <NssNH>
1

>  <NaaNH>
1

>  <NtN>
0

>  <NsssNH>
0

>  <NdsN>
0

>  <NaaN>
0

>  <NsssN>
0

>  <NddsN>
0

>  <NaasN>
0

>  <NssssN>
0

>  <NsOH>
1

>  <NdO>
2

>  <NssO>
2

>  <NaaO>
0

>  <NsF>
1

>  <NsSiH3>
0

>  <NssSiH2>
0

>  <NsssSiH>
0

>  <NssssSi>
0

>  <NsPH2>
0

>  <NssPH>
0

>  <NsssP>
0

>  <NdsssP>
0

>  <NsssssP>
0

>  <NsSH>
0

>  <NdS>
0

>  <NssS>
0

>  <NaaS>
0

>  <NdssS>
0

>  <NddssS>
0

>  <NsCl>
0

>  <NsBr>
0

>  <NsI>
0

>  <fragCpx>
139.08

>  <fMF>
0.4

>  <nHBAcc>
5

>  <nHBDon>
3

>  <Kier1>
21.7

>  <Kier2>
9.67

>  <Lipinski>
1

>  <GhoseFilter>
1

>  <FilterItLogS>
-4.29

>  <VMcGowan>
266.96

>  <LabuteASA>
154.68

>  <PEOE_VSA1>
24.88

>  <PEOE_VSA2>
9.59

>  <PEOE_VSA3>
4.39

>  <PEOE_VSA4>
0

>  <PEOE_VSA5>
0

>  <PEOE_VSA6>
6.07

>  <PEOE_VSA7>
36.46

>  <PEOE_VSA8>
12.26

>  <PEOE_VSA9>
26.37

>  <PEOE_VSA10>
5.69

>  <PEOE_VSA11>
17.32

>  <PEOE_VSA12>
5.43

>  <PEOE_VSA13>
5.91

>  <SMR_VSA1>
23.77

>  <SMR_VSA2>
0

>  <SMR_VSA3>
10.3

>  <SMR_VSA4>
5.92

>  <SMR_VSA5>
24.99

>  <SMR_VSA6>
14.22

>  <SMR_VSA7>
57.76

>  <SMR_VSA8>
0

>  <SMR_VSA9>
11.5

>  <SlogP_VSA1>
20.22

>  <SlogP_VSA2>
36.32

>  <SlogP_VSA3>
0

>  <SlogP_VSA4>
11.74

>  <SlogP_VSA5>
34.94

>  <SlogP_VSA6>
35.26

>  <SlogP_VSA7>
0

>  <SlogP_VSA8>
0

>  <SlogP_VSA9>
0

>  <SlogP_VSA10>
4.39

>  <SlogP_VSA11>
11.5

>  <EState_VSA1>
29.3

>  <EState_VSA2>
23.11

>  <EState_VSA3>
18.41

>  <EState_VSA4>
6.07

>  <EState_VSA5>
32.55

>  <EState_VSA6>
6.07

>  <EState_VSA7>
0

>  <EState_VSA8>
10.3

>  <EState_VSA9>
9.47

>  <EState_VSA10>
19.09

>  <VSA_EState1>
23.94

>  <VSA_EState2>
27.2

>  <VSA_EState3>
12.46

>  <VSA_EState4>
0.21

>  <VSA_EState5>
-0.87

>  <VSA_EState6>
5.12

>  <VSA_EState7>
1.88

>  <VSA_EState8>
0

>  <VSA_EState9>
2.74

>  <apol>
52.5

>  <bpol>
28.53

>  <nRing>
3

>  <nHRing>
1

>  <naRing>
2

>  <naHRing>
1

>  <nARing 2>
1

>  <nAHRing 2>
0

>  <nFRing>
0

>  <nFHRing>
0

>  <nFaRing>
0

>  <nFaHRing>
0

>  <nFARing 2>
0

>  <nFAHRing 2>
0

>  <nRot>
6

>  <SLogP>
1.77

>  <SMR>
95.5

>  <TopoPSA(NO)>
100.65

>  <TopoPSA>
100.65

>  <JGI1>
0.22

>  <JGI2>
0.1

>  <JGI3>
0.05

>  <JGI4>
0.05

>  <JGI5>
0.03

>  <Diameter>
14

>  <Radius>
7

>  <TMWC10>
131.99

>  <TSRW10>
62.43

>  <MW>
376.14

>  <AMW>
7.84

>  <WPath>
1914

>  <WPol>
42

>  <Zagreb1>
140

>  <Zagreb2>
165

>  <mZagreb2>
6.06

>  <yes>


>  <nAR-cont>
0.816016

>  <nHA-cont>
0.860070871

>  <MWHBN>
0.412491712

>  <MWHBN-cont>
0.427093751

>  <TPSA-cont>
0.2974005

>  <pka_cont>
0.97

>  <yes.1>


>  <BBB_SCORE>
3.396528498

>  <MMFF94 Energy>
74.071

$$$$
Compound 2216
Actelion Java MolfileCreator 2.0

  0  0  0  0  0  0              0 V3000
M  V30 BEGIN CTAB
M  V30 COUNTS 45 48 0 0 0
M  V30 BEGIN ATOM
M  V30 1 O 1.3642 -1.2037 0.722 0
M  V30 2 C 0.1431 -1.1137 0.766 0
M  V30 3 N -0.5634 0.0511 0.5784 0
M  V30 4 C -0.7271 -2.268 1.0431 0
M  V30 5 C -0.0354 1.3491 0.2084 0 CFG=2
M  V30 6 N -2.0695 -2.144 1.099 0
M  V30 7 C -0.3165 -3.5994 1.28 0
M  V30 8 C 0.3882 1.4252 -1.2383 0
M  V30 9 C 1.0655 1.7682 1.1792 0
M  V30 10 N -2.5174 -3.3967 1.3642 0
M  V30 11 C -1.471 -4.3137 1.4863 0
M  V30 12 C 1.5705 0.8665 -1.719 0
M  V30 13 C -0.43 2.0641 -2.1792 0
M  V30 14 C 1.419 3.2811 1.1887 0
M  V30 15 C 0.6448 1.9505 2.6637 0
M  V30 16 C -3.8377 -3.811 1.5151 0
M  V30 17 N -1.6889 -5.637 1.7578 0
M  V30 18 N 1.9779 0.9217 -3.0102 0
M  V30 19 C -0.0397 2.1318 -3.5145 0
M  V30 20 C 1.5849 3.1751 2.7209 0
M  V30 21 C -4.1179 -5.0946 1.7794 0
M  V30 22 C -2.9324 -5.9899 1.8918 0
M  V30 23 C 1.1626 1.5525 -3.878 0
M  V30 24 O 1.1077 4.2983 3.4795 0
M  V30 25 O 1.5085 1.6469 -5.2114 0
M  V30 26 C 2.7521 1.0193 -5.5062 0
M  V30 27 H -1.5723 -0.0669 0.6246 0
M  V30 28 H -0.8835 2.0338 0.3463 0
M  V30 29 H 0.6926 -3.9854 1.2959 0
M  V30 30 H 1.9787 1.1613 1.1066 0
M  V30 31 H 2.2569 0.3353 -1.0642 0
M  V30 32 H -1.374 2.5144 -1.8822 0
M  V30 33 H 2.3243 3.5497 0.637 0
M  V30 34 H 0.6066 3.9487 0.8776 0
M  V30 35 H -0.4124 2.1973 2.8176 0
M  V30 36 H 0.9126 1.1231 3.3268 0
M  V30 37 H -4.5927 -3.0446 1.4058 0
M  V30 38 H -0.6584 2.6247 -4.2553 0
M  V30 39 H 2.6091 2.9144 3.0165 0
M  V30 40 H -5.112 -5.4956 1.9096 0
M  V30 41 H -3.1641 -7.0458 2.1105 0
M  V30 42 H 1.204 4.0311 4.4099 0
M  V30 43 H 2.7148 -0.0553 -5.2966 0
M  V30 44 H 2.9407 1.1419 -6.5771 0
M  V30 45 H 3.5769 1.4983 -4.967 0
M  V30 END ATOM
M  V30 BEGIN BOND
M  V30 1 2 1 2
M  V30 2 1 2 3
M  V30 3 1 2 4
M  V30 4 1 3 5
M  V30 5 2 4 6
M  V30 6 1 4 7
M  V30 7 1 5 8
M  V30 8 1 5 9
M  V30 9 1 6 10
M  V30 10 2 7 11
M  V30 11 2 8 12
M  V30 12 1 8 13
M  V30 13 1 9 14
M  V30 14 1 9 15
M  V30 15 1 10 16
M  V30 16 1 11 17
M  V30 17 1 12 18
M  V30 18 2 13 19
M  V30 19 1 14 20
M  V30 20 2 16 21
M  V30 21 2 17 22
M  V30 22 2 18 23
M  V30 23 1 20 24
M  V30 24 1 23 25
M  V30 25 1 25 26
M  V30 26 1 10 11
M  V30 27 1 15 20
M  V30 28 1 19 23
M  V30 29 1 21 22
M  V30 30 1 3 27
M  V30 31 1 5 28
M  V30 32 1 7 29
M  V30 33 1 9 30
M  V30 34 1 12 31
M  V30 35 1 13 32
M  V30 36 1 14 33
M  V30 37 1 14 34
M  V30 38 1 15 35
M  V30 39 1 15 36
M  V30 40 1 16 37
M  V30 41 1 19 38
M  V30 42 1 20 39
M  V30 43 1 21 40
M  V30 44 1 22 41
M  V30 45 1 24 42
M  V30 46 1 26 43
M  V30 47 1 26 44
M  V30 48 1 26 45
M  V30 END BOND
M  V30 BEGIN COLLECTION
M  V30 MDLV30/STEABS ATOMS=(1 5)
M  V30 END COLLECTION
M  V30 END CTAB
M  END
>  <Column 1>
2718

>  <level_0>
3952

>  <index>
3952

>  <Unnamed: 0>
3952

>  <NO.>
3964

>  <Name>
mifepristone

>  <IUPAC_name>
n-[(s)-(3-hydroxycyclobutyl)-(6-methoxypyridin-3-yl)methyl]pyrazolo[1-5-a]pyrimidine-2-carboxamide

>  <SMILES>
COc1ccc([C@@H](NC(=O)c2cc3ncccn3n2)C2CC(O)C2)cn1

>  <CID>
100004196

>  <logBB>


>  <BBB+/BBB->
BBB-

>  <Inchi>
InChI=1S/C18H19N5O3/c1-26-16-4-3-11(10-20-16)17(12-7-13(24)8-12)21-18(25)14-9-15-19-5-2-6-23(15)22-14/h2-6-9-10-12-13-17-24H-7-8H2-1H3-(H-21-25)/t12?-13?-17-/m1/s1

>  <threshold>
-1

>  <reference>
R16|R10|

>  <group>
B

>  <Class>
-1

>  <ABC>
20.56

>  <ABCGG>
16.45

>  <nAcid>
0

>  <nBase>
0

>  <nAromAtom>
15

>  <nAromBond>
16

>  <nAtom>
45

>  <nHeavyAtom>
26

>  <nSpiro>
0

>  <nBridgehead>
0

>  <nHetero>
8

>  <nN>
5

>  <nO>
3

>  <nF>
0

>  <BalabanJ>
1.35

>  <BertzCT>
884.98

>  <nBonds>
48

>  <nBondsO>
29

>  <nBondsS>
31

>  <nBondsD>
1

>  <nBondsT>
0

>  <nBondsA>
16

>  <nBondsM>
17

>  <nBondsKS>
40

>  <nBondsKD>
8

>  <RNCG>
0.2

>  <RPCG>
0.11

>  <FCSP3>
0.33

>  <SZ>
31

>  <Sm>
29.42

>  <Sv>
29.08

>  <Sse>
45.74

>  <Sp>
30.32

>  <Si>
51.03

>  <MZ>
0.69

>  <Mm>
0.65

>  <Mv>
0.65

>  <Mse>
1.02

>  <Mp>
0.67

>  <Mi>
1.13

>  <NsCH3>
1

>  <NdCH2>
0

>  <NssCH2>
2

>  <NtCH>
0

>  <NdsCH>
0

>  <NaaCH>
7

>  <NsssCH>
3

>  <NddC>
0

>  <NtsC>
0

>  <NdssC>
1

>  <NaasC>
3

>  <NaaaC>
1

>  <NssssC>
0

>  <NsNH3>
0

>  <NsNH2>
0

>  <NssNH2>
0

>  <NdNH>
0

>  <NssNH>
1

>  <NaaNH>
0

>  <NtN>
0

>  <NsssNH>
0

>  <NdsN>
0

>  <NaaN>
3

>  <NsssN>
0

>  <NddsN>
0

>  <NaasN>
1

>  <NssssN>
0

>  <NsOH>
1

>  <NdO>
1

>  <NssO>
1

>  <NaaO>
0

>  <NsF>
0

>  <NsSiH3>
0

>  <NssSiH2>
0

>  <NsssSiH>
0

>  <NssssSi>
0

>  <NsPH2>
0

>  <NssPH>
0

>  <NsssP>
0

>  <NdsssP>
0

>  <NsssssP>
0

>  <NsSH>
0

>  <NdS>
0

>  <NssS>
0

>  <NaaS>
0

>  <NdssS>
0

>  <NddssS>
0

>  <NsCl>
0

>  <NsBr>
0

>  <NsI>
0

>  <fragCpx>
191.08

>  <fMF>
0.49

>  <nHBAcc>
7

>  <nHBDon>
2

>  <Kier1>
19.32

>  <Kier2>
8.57

>  <Lipinski>
1

>  <GhoseFilter>
1

>  <FilterItLogS>
-3.01

>  <VMcGowan>
254.15

>  <LabuteASA>
149.4

>  <PEOE_VSA1>
15.16

>  <PEOE_VSA2>
4.79

>  <PEOE_VSA3>
14.48

>  <PEOE_VSA4>
5.1

>  <PEOE_VSA5>
0

>  <PEOE_VSA6>
6.07

>  <PEOE_VSA7>
30.39

>  <PEOE_VSA8>
30.72

>  <PEOE_VSA9>
19.26

>  <PEOE_VSA10>
0

>  <PEOE_VSA11>
11.34

>  <PEOE_VSA12>
5.88

>  <PEOE_VSA13>
5.91

>  <SMR_VSA1>
14.64

>  <SMR_VSA2>
0

>  <SMR_VSA3>
24.9

>  <SMR_VSA4>
5.92

>  <SMR_VSA5>
24.99

>  <SMR_VSA6>
7.11

>  <SMR_VSA7>
54.11

>  <SMR_VSA8>
0

>  <SMR_VSA9>
5.88

>  <SlogP_VSA1>
10.05

>  <SlogP_VSA2>
43.81

>  <SlogP_VSA3>
0

>  <SlogP_VSA4>
5.92

>  <SlogP_VSA5>
34.94

>  <SlogP_VSA6>
42.86

>  <SlogP_VSA7>
0

>  <SlogP_VSA8>
5.65

>  <SlogP_VSA9>
0

>  <SlogP_VSA10>
0

>  <SlogP_VSA11>
5.88

>  <EState_VSA1>
0

>  <EState_VSA2>
23.97

>  <EState_VSA3>
30.06

>  <EState_VSA4>
5.56

>  <EState_VSA5>
0

>  <EState_VSA6>
48.41

>  <EState_VSA7>
6.07

>  <EState_VSA8>
20.38

>  <EState_VSA9>
4.74

>  <EState_VSA10>
9.9

>  <VSA_EState1>
6.65

>  <VSA_EState2>
21.13

>  <VSA_EState3>
16.97

>  <VSA_EState4>
1.78

>  <VSA_EState5>
0.39

>  <VSA_EState6>
6.8

>  <VSA_EState7>
6.06

>  <VSA_EState8>
0

>  <VSA_EState9>
1.56

>  <apol>
50.64

>  <bpol>
26.22

>  <nRing>
4

>  <nHRing>
3

>  <naRing>
3

>  <naHRing>
3

>  <nARing 2>
1

>  <nAHRing 2>
0

>  <nFRing>
1

>  <nFHRing>
1

>  <nFaRing>
1

>  <nFaHRing>
1

>  <nFARing 2>
0

>  <nFAHRing 2>
0

>  <nRot>
5

>  <SLogP>
1.37

>  <SMR>
92.71

>  <TopoPSA(NO)>
101.64

>  <TopoPSA>
101.64

>  <JGI1>
0.19

>  <JGI2>
0.07

>  <JGI3>
0.05

>  <JGI4>
0.05

>  <JGI5>
0.03

>  <Diameter>
13

>  <Radius>
7

>  <TMWC10>
131.2

>  <TSRW10>
75.36

>  <MW>
353.15

>  <AMW>
7.85

>  <WPath>
1730

>  <WPol>
38

>  <Zagreb1>
140

>  <Zagreb2>
166

>  <mZagreb2>
5.69

>  <yes>


>  <nAR-cont>
0.816016

>  <nHA-cont>
0.892715677

>  <MWHBN>
0.478919923

>  <MWHBN-cont>
0

>  <TPSA-cont>
0.290489685

>  <pka_cont>
0.97

>  <yes.1>


>  <BBB_SCORE>
2.774711048

>  <MMFF94 Energy>
49.823

$$$$
Compound 2217
Actelion Java MolfileCreator 2.0

  0  0  0  0  0  0              0 V3000
M  V30 BEGIN CTAB
M  V30 COUNTS 42 44 0 0 0
M  V30 BEGIN ATOM
M  V30 1 O 2.3962 -1.1975 1.2774 0
M  V30 2 C 1.5135 -0.4135 1.6105 0
M  V30 3 N 0.4832 -0.0583 0.7675 0
M  V30 4 C 1.477 0.1906 2.9267 0
M  V30 5 C 0.3912 -0.5563 -0.593 0 CFG=2
M  V30 6 C 2.367 -0.0643 3.9525 0
M  V30 7 C 0.6 1.1388 3.4998 0
M  V30 8 C 0.0361 0.5676 -1.5402 0
M  V30 9 C -0.6313 -1.6969 -0.6532 0
M  V30 10 O 2.0321 0.6718 5.046 0
M  V30 11 C 3.5509 -0.9361 4.0918 0
M  V30 12 N 0.9128 1.4328 4.7631 0
M  V30 13 C -1.2099 1.1904 -1.5555 0
M  V30 14 C 0.9954 1.0649 -2.4309 0
M  V30 15 C -0.3039 -3.0043 0.1258 0
M  V30 16 C -1.9727 -1.6692 0.1401 0
M  V30 17 N -1.5464 2.2195 -2.3669 0
M  V30 18 C 0.677 2.1194 -3.2835 0
M  V30 19 C -1.8218 -3.1946 0.334 0
M  V30 20 C -0.5957 2.6578 -3.2172 0
M  V30 21 O -2.4944 -4.0112 -0.6422 0
M  V30 22 O -0.8637 3.7026 -4.0783 0
M  V30 23 C -2.198 4.1869 -3.9684 0
M  V30 24 H -0.2207 0.593 1.0788 0
M  V30 25 H 1.3642 -0.9654 -0.8922 0
M  V30 26 H -0.2547 1.6361 3.0649 0
M  V30 27 H -0.8124 -1.9467 -1.713 0
M  V30 28 H 3.9841 -0.8627 5.0945 0
M  V30 29 H 4.3227 -0.6523 3.3699 0
M  V30 30 H 3.2797 -1.9819 3.9181 0
M  V30 31 H -2.0103 0.8843 -0.8891 0
M  V30 32 H 1.9961 0.6396 -2.4658 0
M  V30 33 H 0.1966 -3.7781 -0.4632 0
M  V30 34 H 0.2397 -2.879 1.0674 0
M  V30 35 H -2.8484 -1.3572 -0.4362 0
M  V30 36 H -1.9573 -1.1114 1.0828 0
M  V30 37 H 1.4059 2.5149 -3.9817 0
M  V30 38 H -2.088 -3.5319 1.3418 0
M  V30 39 H -2.2018 -4.9203 -0.4557 0
M  V30 40 H -2.3908 4.597 -2.9708 0
M  V30 41 H -2.3173 5.0008 -4.6903 0
M  V30 42 H -2.926 3.4084 -4.2221 0
M  V30 END ATOM
M  V30 BEGIN BOND
M  V30 1 2 1 2
M  V30 2 1 2 3
M  V30 3 1 2 4
M  V30 4 1 3 5
M  V30 5 2 4 6
M  V30 6 1 4 7
M  V30 7 1 5 8
M  V30 8 1 5 9
M  V30 9 1 6 10
M  V30 10 1 6 11
M  V30 11 2 7 12
M  V30 12 2 8 13
M  V30 13 1 8 14
M  V30 14 1 9 15
M  V30 15 1 9 16
M  V30 16 1 13 17
M  V30 17 2 14 18
M  V30 18 1 15 19
M  V30 19 2 17 20
M  V30 20 1 19 21
M  V30 21 1 20 22
M  V30 22 1 22 23
M  V30 23 1 10 12
M  V30 24 1 16 19
M  V30 25 1 18 20
M  V30 26 1 3 24
M  V30 27 1 5 25
M  V30 28 1 7 26
M  V30 29 1 9 27
M  V30 30 1 11 28
M  V30 31 1 11 29
M  V30 32 1 11 30
M  V30 33 1 13 31
M  V30 34 1 14 32
M  V30 35 1 15 33
M  V30 36 1 15 34
M  V30 37 1 16 35
M  V30 38 1 16 36
M  V30 39 1 18 37
M  V30 40 1 19 38
M  V30 41 1 21 39
M  V30 42 1 23 40
M  V30 43 1 23 41
M  V30 44 1 23 42
M  V30 END BOND
M  V30 BEGIN COLLECTION
M  V30 MDLV30/STEABS ATOMS=(1 5)
M  V30 END COLLECTION
M  V30 END CTAB
M  END
>  <Column 1>
2719

>  <level_0>
3953

>  <index>
3953

>  <Unnamed: 0>
3953

>  <NO.>
3965

>  <Name>
cefotetan

>  <IUPAC_name>
n-[(s)-(3-hydroxycyclobutyl)-(6-methoxypyridin-3-yl)methyl]-5-methyl-1-2-oxazole-4-carboxamide

>  <SMILES>
COc1ccc([C@@H](NC(=O)c2cnoc2C)C2CC(O)C2)cn1

>  <CID>
100050614

>  <logBB>


>  <BBB+/BBB->
BBB-

>  <Inchi>
InChI=1S/C16H19N3O4/c1-9-13(8-18-23-9)16(21)19-15(11-5-12(20)6-11)10-3-4-14(22-2)17-7-10/h3-4-7-8-11-12-15-20H-5-6H2-1-2H3-(H-19-21)/t11?-12?-15-/m1/s1

>  <threshold>
-1

>  <reference>
R16|R10|

>  <group>
B

>  <Class>
1

>  <ABC>
17.84

>  <ABCGG>
15.48

>  <nAcid>
0

>  <nBase>
0

>  <nAromAtom>
11

>  <nAromBond>
11

>  <nAtom>
42

>  <nHeavyAtom>
23

>  <nSpiro>
0

>  <nBridgehead>
0

>  <nHetero>
7

>  <nN>
3

>  <nO>
4

>  <nF>
0

>  <BalabanJ>
1.59

>  <BertzCT>
676.89

>  <nBonds>
44

>  <nBondsO>
25

>  <nBondsS>
32

>  <nBondsD>
1

>  <nBondsT>
0

>  <nBondsA>
11

>  <nBondsM>
12

>  <nBondsKS>
38

>  <nBondsKD>
6

>  <RNCG>
0.21

>  <RPCG>
0.11

>  <FCSP3>
0.44

>  <SZ>
28

>  <Sm>
26.42

>  <Sv>
26.28

>  <Sse>
42.75

>  <Sp>
27.48

>  <Si>
47.66

>  <MZ>
0.67

>  <Mm>
0.63

>  <Mv>
0.63

>  <Mse>
1.02

>  <Mp>
0.65

>  <Mi>
1.13

>  <NsCH3>
2

>  <NdCH2>
0

>  <NssCH2>
2

>  <NtCH>
0

>  <NdsCH>
0

>  <NaaCH>
4

>  <NsssCH>
3

>  <NddC>
0

>  <NtsC>
0

>  <NdssC>
1

>  <NaasC>
4

>  <NaaaC>
0

>  <NssssC>
0

>  <NsNH3>
0

>  <NsNH2>
0

>  <NssNH2>
0

>  <NdNH>
0

>  <NssNH>
1

>  <NaaNH>
0

>  <NtN>
0

>  <NsssNH>
0

>  <NdsN>
0

>  <NaaN>
2

>  <NsssN>
0

>  <NddsN>
0

>  <NaasN>
0

>  <NssssN>
0

>  <NsOH>
1

>  <NdO>
1

>  <NssO>
1

>  <NaaO>
1

>  <NsF>
0

>  <NsSiH3>
0

>  <NssSiH2>
0

>  <NsssSiH>
0

>  <NssssSi>
0

>  <NsPH2>
0

>  <NssPH>
0

>  <NsssP>
0

>  <NdsssP>
0

>  <NsssssP>
0

>  <NsSH>
0

>  <NdS>
0

>  <NssS>
0

>  <NaaS>
0

>  <NdssS>
0

>  <NddssS>
0

>  <NsCl>
0

>  <NsBr>
0

>  <NsI>
0

>  <fragCpx>
119.07

>  <fMF>
0.43

>  <nHBAcc>
6

>  <nHBDon>
2

>  <Kier1>
17.81

>  <Kier2>
7.92

>  <Lipinski>
1

>  <GhoseFilter>
1

>  <FilterItLogS>
-3.4

>  <VMcGowan>
231.34

>  <LabuteASA>
133.21

>  <PEOE_VSA1>
19.68

>  <PEOE_VSA2>
4.79

>  <PEOE_VSA3>
4.98

>  <PEOE_VSA4>
0

>  <PEOE_VSA5>
0

>  <PEOE_VSA6>
11.22

>  <PEOE_VSA7>
31.25

>  <PEOE_VSA8>
12.26

>  <PEOE_VSA9>
25.45

>  <PEOE_VSA10>
11.32

>  <PEOE_VSA11>
0

>  <PEOE_VSA12>
5.88

>  <PEOE_VSA13>
5.91

>  <SMR_VSA1>
19.16

>  <SMR_VSA2>
0

>  <SMR_VSA3>
15.46

>  <SMR_VSA4>
5.92

>  <SMR_VSA5>
31.91

>  <SMR_VSA6>
7.11

>  <SMR_VSA7>
41.41

>  <SMR_VSA8>
0

>  <SMR_VSA9>
5.88

>  <SlogP_VSA1>
10.05

>  <SlogP_VSA2>
34.37

>  <SlogP_VSA3>
0

>  <SlogP_VSA4>
12.84

>  <SlogP_VSA5>
40.57

>  <SlogP_VSA6>
29.05

>  <SlogP_VSA7>
0

>  <SlogP_VSA8>
0

>  <SlogP_VSA9>
0

>  <SlogP_VSA10>
0

>  <SlogP_VSA11>
5.88

>  <EState_VSA1>
0

>  <EState_VSA2>
23.97

>  <EState_VSA3>
30.05

>  <EState_VSA4>
5.56

>  <EState_VSA5>
6.2

>  <EState_VSA6>
26.3

>  <EState_VSA7>
6.07

>  <EState_VSA8>
15.46

>  <EState_VSA9>
9.26

>  <EState_VSA10>
9.9

>  <VSA_EState1>
10

>  <VSA_EState2>
16.64

>  <VSA_EState3>
16.22

>  <VSA_EState4>
1.29

>  <VSA_EState5>
0.92

>  <VSA_EState6>
3.41

>  <VSA_EState7>
4.1

>  <VSA_EState8>
1.69

>  <VSA_EState9>
1.55

>  <apol>
45.9

>  <bpol>
25.11

>  <nRing>
3

>  <nHRing>
2

>  <naRing>
2

>  <naHRing>
2

>  <nARing 2>
1

>  <nAHRing 2>
0

>  <nFRing>
0

>  <nFHRing>
0

>  <nFaRing>
0

>  <nFaHRing>
0

>  <nFARing 2>
0

>  <nFAHRing 2>
0

>  <nRot>
5

>  <SLogP>
1.63

>  <SMR>
80.97

>  <TopoPSA(NO)>
97.48

>  <TopoPSA>
97.48

>  <JGI1>
0.2

>  <JGI2>
0.09

>  <JGI3>
0.05

>  <JGI4>
0.04

>  <JGI5>
0.03

>  <Diameter>
11

>  <Radius>
6

>  <TMWC10>
122.5

>  <TSRW10>
71.14

>  <MW>
317.14

>  <AMW>
7.55

>  <WPath>
1218

>  <WPol>
32

>  <Zagreb1>
120

>  <Zagreb2>
141

>  <mZagreb2>
5.11

>  <yes>


>  <nAR-cont>
0.816016

>  <nHA-cont>
0.967789328

>  <MWHBN>
0.449225578

>  <MWHBN-cont>
0.288690181

>  <TPSA-cont>
0.319529069

>  <pka_cont>
0.97

>  <yes.1>


>  <BBB_SCORE>
3.340898737

>  <MMFF94 Energy>
-23.198

$$$$
Compound 2218
Actelion Java MolfileCreator 2.0

  0  0  0  0  0  0              0 V3000
M  V30 BEGIN CTAB
M  V30 COUNTS 45 47 0 0 0
M  V30 BEGIN ATOM
M  V30 1 O 0.636 -0.3975 -4.4589 0
M  V30 2 C -0.0383 0.6855 -3.8176 0
M  V30 3 C 1.3882 -1.1793 -3.5326 0
M  V30 4 C -1.046 0.1606 -2.8045 0
M  V30 5 C 0.4749 -1.8046 -2.4847 0
M  V30 6 C -0.3922 -0.76 -1.7641 0
M  V30 7 N 0.3715 0.0651 -0.8122 0
M  V30 8 C 0.5842 -0.5771 0.4927 0 CFG=2
M  V30 9 C -0.6508 -0.499 1.3715 0
M  V30 10 C 1.7639 0.0509 1.2735 0
M  V30 11 C -1.439 0.648 1.4481 0
M  V30 12 C -1.0275 -1.5798 2.1767 0
M  V30 13 C 3.1771 -0.1638 0.6704 0
M  V30 14 C 2.0355 1.5791 1.2038 0
M  V30 15 N -2.53 0.7801 2.2397 0
M  V30 16 C -2.1483 -1.4758 2.9967 0
M  V30 17 C 3.1747 1.3025 0.1998 0
M  V30 18 C -2.8604 -0.2879 2.9935 0
M  V30 19 O 2.8558 1.4941 -1.1932 0
M  V30 20 O -3.9609 -0.2345 3.8264 0
M  V30 21 C -4.6503 1.009 3.7547 0
M  V30 22 H 0.696 1.3566 -3.3579 0
M  V30 23 H -0.559 1.2553 -4.594 0
M  V30 24 H 2.1703 -0.5608 -3.0794 0
M  V30 25 H 1.8902 -1.9695 -4.1002 0
M  V30 26 H -1.5689 0.994 -2.3203 0
M  V30 27 H -1.8062 -0.4223 -3.3411 0
M  V30 28 H 1.0648 -2.3982 -1.7787 0
M  V30 29 H -0.2019 -2.5034 -2.994 0
M  V30 30 H -1.2015 -1.2752 -1.2321 0
M  V30 31 H 1.2757 0.3251 -1.2217 0
M  V30 32 H 0.8308 -1.6355 0.3401 0
M  V30 33 H 1.7479 -0.313 2.3125 0
M  V30 34 H -1.2085 1.525 0.8483 0
M  V30 35 H -0.4547 -2.5032 2.1714 0
M  V30 36 H 3.2505 -0.9145 -0.122 0
M  V30 37 H 3.9487 -0.3777 1.4194 0
M  V30 38 H 1.2208 2.205 0.8302 0
M  V30 39 H 2.3872 2.0053 2.1508 0
M  V30 40 H -2.4602 -2.3008 3.6265 0
M  V30 41 H 4.103 1.8332 0.4389 0
M  V30 42 H 2.7816 2.4599 -1.2987 0
M  V30 43 H -5.0421 1.1893 2.7476 0
M  V30 44 H -5.5037 0.9562 4.4378 0
M  V30 45 H -4.0125 1.8367 4.0841 0
M  V30 END ATOM
M  V30 BEGIN BOND
M  V30 1 1 1 2
M  V30 2 1 1 3
M  V30 3 1 2 4
M  V30 4 1 3 5
M  V30 5 1 4 6
M  V30 6 1 6 7
M  V30 7 1 7 8
M  V30 8 1 8 9
M  V30 9 1 8 10
M  V30 10 2 9 11
M  V30 11 1 9 12
M  V30 12 1 10 13
M  V30 13 1 10 14
M  V30 14 1 11 15
M  V30 15 2 12 16
M  V30 16 1 13 17
M  V30 17 2 15 18
M  V30 18 1 17 19
M  V30 19 1 18 20
M  V30 20 1 20 21
M  V30 21 1 5 6
M  V30 22 1 14 17
M  V30 23 1 16 18
M  V30 24 1 2 22
M  V30 25 1 2 23
M  V30 26 1 3 24
M  V30 27 1 3 25
M  V30 28 1 4 26
M  V30 29 1 4 27
M  V30 30 1 5 28
M  V30 31 1 5 29
M  V30 32 1 6 30
M  V30 33 1 7 31
M  V30 34 1 8 32
M  V30 35 1 10 33
M  V30 36 1 11 34
M  V30 37 1 12 35
M  V30 38 1 13 36
M  V30 39 1 13 37
M  V30 40 1 14 38
M  V30 41 1 14 39
M  V30 42 1 16 40
M  V30 43 1 17 41
M  V30 44 1 19 42
M  V30 45 1 21 43
M  V30 46 1 21 44
M  V30 47 1 21 45
M  V30 END BOND
M  V30 BEGIN COLLECTION
M  V30 MDLV30/STEABS ATOMS=(1 8)
M  V30 END COLLECTION
M  V30 END CTAB
M  END
>  <Column 1>
2720

>  <level_0>
3954

>  <index>
3954

>  <Unnamed: 0>
3954

>  <NO.>
3966

>  <Name>
phencyclidine

>  <IUPAC_name>
3-[(s)-(6-methoxypyridin-3-yl)-(oxan-4-ylamino)methyl]cyclobutan-1-ol

>  <SMILES>
COc1ccc([C@@H](NC2CCOCC2)C2CC(O)C2)cn1

>  <CID>
100006468

>  <logBB>


>  <BBB+/BBB->
BBB+

>  <Inchi>
InChI=1S/C16H24N2O3/c1-20-15-3-2-11(10-17-15)16(12-8-14(19)9-12)18-13-4-6-21-7-5-13/h2-3-10-12-14-16-18-19H-4-9H2-1H3/t12?-14?-16-/m1/s1

>  <threshold>
-1

>  <reference>
R16|R16|R10|R10|

>  <group>
B

>  <Class>
-1

>  <ABC>
16.29

>  <ABCGG>
13.33

>  <nAcid>
0

>  <nBase>
1

>  <nAromAtom>
6

>  <nAromBond>
6

>  <nAtom>
45

>  <nHeavyAtom>
21

>  <nSpiro>
0

>  <nBridgehead>
0

>  <nHetero>
5

>  <nN>
2

>  <nO>
3

>  <nF>
0

>  <BalabanJ>
1.56

>  <BertzCT>
439.34

>  <nBonds>
47

>  <nBondsO>
23

>  <nBondsS>
41

>  <nBondsD>
0

>  <nBondsT>
0

>  <nBondsA>
6

>  <nBondsM>
6

>  <nBondsKS>
44

>  <nBondsKD>
3

>  <RNCG>
0.25

>  <RPCG>
0.11

>  <FCSP3>
0.69

>  <SZ>
26.33

>  <Sm>
24.34

>  <Sv>
26.16

>  <Sse>
44.97

>  <Sp>
28.34

>  <Si>
51.19

>  <MZ>
0.59

>  <Mm>
0.54

>  <Mv>
0.58

>  <Mse>
1

>  <Mp>
0.63

>  <Mi>
1.14

>  <NsCH3>
1

>  <NdCH2>
0

>  <NssCH2>
6

>  <NtCH>
0

>  <NdsCH>
0

>  <NaaCH>
3

>  <NsssCH>
4

>  <NddC>
0

>  <NtsC>
0

>  <NdssC>
0

>  <NaasC>
2

>  <NaaaC>
0

>  <NssssC>
0

>  <NsNH3>
0

>  <NsNH2>
0

>  <NssNH2>
0

>  <NdNH>
0

>  <NssNH>
1

>  <NaaNH>
0

>  <NtN>
0

>  <NsssNH>
0

>  <NdsN>
0

>  <NaaN>
1

>  <NsssN>
0

>  <NddsN>
0

>  <NaasN>
0

>  <NssssN>
0

>  <NsOH>
1

>  <NdO>
0

>  <NssO>
2

>  <NaaO>
0

>  <NsF>
0

>  <NsSiH3>
0

>  <NssSiH2>
0

>  <NsssSiH>
0

>  <NssssSi>
0

>  <NsPH2>
0

>  <NssPH>
0

>  <NsssP>
0

>  <NdsssP>
0

>  <NsssssP>
0

>  <NsSH>
0

>  <NdS>
0

>  <NssS>
0

>  <NaaS>
0

>  <NdssS>
0

>  <NddssS>
0

>  <NsCl>
0

>  <NsBr>
0

>  <NsI>
0

>  <fragCpx>
109.05

>  <fMF>
0.4

>  <nHBAcc>
5

>  <nHBDon>
2

>  <Kier1>
15.88

>  <Kier2>
7.51

>  <Lipinski>
1

>  <GhoseFilter>
1

>  <FilterItLogS>
-2.76

>  <VMcGowan>
228.39

>  <LabuteASA>
125.22

>  <PEOE_VSA1>
19.9

>  <PEOE_VSA2>
0

>  <PEOE_VSA3>
4.98

>  <PEOE_VSA4>
0

>  <PEOE_VSA5>
0

>  <PEOE_VSA6>
6.07

>  <PEOE_VSA7>
37.16

>  <PEOE_VSA8>
37.56

>  <PEOE_VSA9>
13.21

>  <PEOE_VSA10>
0

>  <PEOE_VSA11>
0

>  <PEOE_VSA12>
5.88

>  <PEOE_VSA13>
0

>  <SMR_VSA1>
14.58

>  <SMR_VSA2>
0

>  <SMR_VSA3>
10.3

>  <SMR_VSA4>
5.92

>  <SMR_VSA5>
43.87

>  <SMR_VSA6>
20.32

>  <SMR_VSA7>
23.89

>  <SMR_VSA8>
0

>  <SMR_VSA9>
5.88

>  <SlogP_VSA1>
10.05

>  <SlogP_VSA2>
42.56

>  <SlogP_VSA3>
4.74

>  <SlogP_VSA4>
5.92

>  <SlogP_VSA5>
37.29

>  <SlogP_VSA6>
18.33

>  <SlogP_VSA7>
0

>  <SlogP_VSA8>
0

>  <SlogP_VSA9>
0

>  <SlogP_VSA10>
0

>  <SlogP_VSA11>
5.88

>  <EState_VSA1>
0

>  <EState_VSA2>
12.15

>  <EState_VSA3>
17.84

>  <EState_VSA4>
38.9

>  <EState_VSA5>
5.56

>  <EState_VSA6>
7.11

>  <EState_VSA7>
12.26

>  <EState_VSA8>
16.37

>  <EState_VSA9>
9.47

>  <EState_VSA10>
5.11

>  <VSA_EState1>
10.55

>  <VSA_EState2>
4.32

>  <VSA_EState3>
13.38

>  <VSA_EState4>
1.18

>  <VSA_EState5>
1.12

>  <VSA_EState6>
4.73

>  <VSA_EState7>
5.59

>  <VSA_EState8>
1.66

>  <VSA_EState9>
1.63

>  <apol>
47.33

>  <bpol>
29.26

>  <nRing>
3

>  <nHRing>
2

>  <naRing>
1

>  <naHRing>
1

>  <nARing 2>
2

>  <nAHRing 2>
1

>  <nFRing>
0

>  <nFHRing>
0

>  <nFaRing>
0

>  <nFaHRing>
0

>  <nFARing 2>
0

>  <nFAHRing 2>
0

>  <nRot>
5

>  <SLogP>
1.67

>  <SMR>
79.24

>  <TopoPSA(NO)>
63.61

>  <TopoPSA>
63.61

>  <JGI1>
0.17

>  <JGI2>
0.06

>  <JGI3>
0.04

>  <JGI4>
0.04

>  <JGI5>
0.02

>  <Diameter>
11

>  <Radius>
6

>  <TMWC10>
117.13

>  <TSRW10>
55.05

>  <MW>
292.18

>  <AMW>
6.49

>  <WPath>
960

>  <WPol>
28

>  <Zagreb1>
108

>  <Zagreb2>
125

>  <mZagreb2>
4.72

>  <yes>


>  <nAR-cont>
1

>  <nHA-cont>
0.994529749

>  <MWHBN>
0.409517813

>  <MWHBN-cont>
0.438705371

>  <TPSA-cont>
0.555962701

>  <pka_cont>
0.97

>  <yes.1>


>  <BBB_SCORE>
4.249513207

>  <MMFF94 Energy>
18.826

$$$$
Compound 2219
Actelion Java MolfileCreator 2.0

  0  0  0  0  0  0              0 V3000
M  V30 BEGIN CTAB
M  V30 COUNTS 45 47 0 0 0
M  V30 BEGIN ATOM
M  V30 1 F -2.3923 -0.6375 2.8713 0
M  V30 2 C -2.1712 -0.7706 1.5541 0
M  V30 3 C -3.2109 -1.1591 0.7051 0
M  V30 4 C -0.8914 -0.513 1.0674 0
M  V30 5 O -4.4195 -1.3855 1.3061 0
M  V30 6 C -2.9455 -1.2825 -0.6588 0
M  V30 7 C -0.6117 -0.6418 -0.3001 0
M  V30 8 C -5.5025 -1.7574 0.465 0
M  V30 9 C -1.6601 -1.0238 -1.1544 0
M  V30 10 C 0.7723 -0.3698 -0.8742 0 CFG=1
M  V30 11 N 1.3771 0.7779 -0.2248 0
M  V30 12 C 1.7023 -1.5879 -0.7482 0
M  V30 13 C 1.0878 2.08 -0.5917 0
M  V30 14 C 2.0513 -2.2337 0.6222 0
M  V30 15 C 1.2332 -2.9986 -1.2033 0
M  V30 16 N 0.2701 2.2775 -1.6554 0
M  V30 17 C 1.5645 3.1671 0.1598 0
M  V30 18 C 2.1558 -3.5895 -0.1123 0
M  V30 19 C -0.0565 3.5428 -1.9973 0
M  V30 20 C 2.4513 2.9417 1.3298 0
M  V30 21 C 1.2197 4.4703 -0.2255 0
M  V30 22 O 3.4768 -3.9674 -0.5446 0
M  V30 23 C 0.3915 4.6619 -1.3236 0
M  V30 24 O 3.2238 1.9918 1.3893 0
M  V30 25 N 2.3651 3.832 2.3663 0
M  V30 26 H -0.1209 -0.2003 1.7665 0
M  V30 27 H -3.7135 -1.5725 -1.3678 0
M  V30 28 H -5.7276 -0.9695 -0.2612 0
M  V30 29 H -6.3865 -1.8896 1.0964 0
M  V30 30 H -5.3048 -2.7114 -0.0343 0
M  V30 31 H -1.4818 -1.1141 -2.2248 0
M  V30 32 H 0.6729 -0.1671 -1.9492 0
M  V30 33 H 2.2365 0.6505 0.3092 0
M  V30 34 H 2.6344 -1.3249 -1.2798 0
M  V30 35 H 1.2611 -2.2229 1.3782 0
M  V30 36 H 2.9751 -1.8689 1.0807 0
M  V30 37 H 0.1777 -3.235 -1.036 0
M  V30 38 H 1.4882 -3.2578 -2.2347 0
M  V30 39 H 1.7015 -4.4173 0.4434 0
M  V30 40 H -0.7094 3.6315 -2.8609 0
M  V30 41 H 1.6076 5.3347 0.3036 0
M  V30 42 H 3.3476 -4.7749 -1.0703 0
M  V30 43 H 0.1075 5.6562 -1.6494 0
M  V30 44 H 1.6795 4.5704 2.4228 0
M  V30 45 H 2.9616 3.668 3.1673 0
M  V30 END ATOM
M  V30 BEGIN BOND
M  V30 1 1 1 2
M  V30 2 2 2 3
M  V30 3 1 2 4
M  V30 4 1 3 5
M  V30 5 1 3 6
M  V30 6 2 4 7
M  V30 7 1 5 8
M  V30 8 2 6 9
M  V30 9 1 7 10
M  V30 10 1 10 11
M  V30 11 1 10 12
M  V30 12 1 11 13
M  V30 13 1 12 14
M  V30 14 1 12 15
M  V30 15 2 13 16
M  V30 16 1 13 17
M  V30 17 1 14 18
M  V30 18 1 16 19
M  V30 19 1 17 20
M  V30 20 2 17 21
M  V30 21 1 18 22
M  V30 22 2 19 23
M  V30 23 2 20 24
M  V30 24 1 20 25
M  V30 25 1 7 9
M  V30 26 1 15 18
M  V30 27 1 21 23
M  V30 28 1 4 26
M  V30 29 1 6 27
M  V30 30 1 8 28
M  V30 31 1 8 29
M  V30 32 1 8 30
M  V30 33 1 9 31
M  V30 34 1 10 32
M  V30 35 1 11 33
M  V30 36 1 12 34
M  V30 37 1 14 35
M  V30 38 1 14 36
M  V30 39 1 15 37
M  V30 40 1 15 38
M  V30 41 1 18 39
M  V30 42 1 19 40
M  V30 43 1 21 41
M  V30 44 1 22 42
M  V30 45 1 23 43
M  V30 46 1 25 44
M  V30 47 1 25 45
M  V30 END BOND
M  V30 BEGIN COLLECTION
M  V30 MDLV30/STEABS ATOMS=(1 10)
M  V30 END COLLECTION
M  V30 END CTAB
M  END
>  <Column 1>
2721

>  <level_0>
3955

>  <index>
3955

>  <Unnamed: 0>
3955

>  <NO.>
3967

>  <Name>
hydrochlorothiazide

>  <IUPAC_name>
2-[[(s)-(3-fluoro-4-methoxyphenyl)-(3-hydroxycyclobutyl)methyl]amino]pyridine-3-carboxamide

>  <SMILES>
COc1ccc([C@@H](Nc2ncccc2C(N)=O)C2CC(O)C2)cc1F

>  <CID>
100003639

>  <logBB>


>  <BBB+/BBB->
BBB-

>  <Inchi>
InChI=1S/C18H20FN3O3/c1-25-15-5-4-10(9-14(15)19)16(11-7-12(23)8-11)22-18-13(17(20)24)3-2-6-21-18/h2-6-9-11-12-16-23H-7-8H2-1H3-(H2-20-24)(H-21-22)/t11?-12?-16-/m1/s1

>  <threshold>
-1

>  <reference>
R16|R16|R10|R10|

>  <group>
B

>  <Class>
-1

>  <ABC>
19.33

>  <ABCGG>
16.24

>  <nAcid>
0

>  <nBase>
0

>  <nAromAtom>
12

>  <nAromBond>
12

>  <nAtom>
45

>  <nHeavyAtom>
25

>  <nSpiro>
0

>  <nBridgehead>
0

>  <nHetero>
7

>  <nN>
3

>  <nO>
3

>  <nF>
1

>  <BalabanJ>
1.67

>  <BertzCT>
777.91

>  <nBonds>
47

>  <nBondsO>
27

>  <nBondsS>
34

>  <nBondsD>
1

>  <nBondsT>
0

>  <nBondsA>
12

>  <nBondsM>
13

>  <nBondsKS>
40

>  <nBondsKD>
7

>  <RNCG>
0.19

>  <RPCG>
0.1

>  <FCSP3>
0.33

>  <SZ>
30.33

>  <Sm>
28.75

>  <Sv>
28.48

>  <Sse>
45.82

>  <Sp>
29.74

>  <Si>
51.2

>  <MZ>
0.67

>  <Mm>
0.64

>  <Mv>
0.63

>  <Mse>
1.02

>  <Mp>
0.66

>  <Mi>
1.14

>  <NsCH3>
1

>  <NdCH2>
0

>  <NssCH2>
2

>  <NtCH>
0

>  <NdsCH>
0

>  <NaaCH>
6

>  <NsssCH>
3

>  <NddC>
0

>  <NtsC>
0

>  <NdssC>
1

>  <NaasC>
5

>  <NaaaC>
0

>  <NssssC>
0

>  <NsNH3>
0

>  <NsNH2>
1

>  <NssNH2>
0

>  <NdNH>
0

>  <NssNH>
1

>  <NaaNH>
0

>  <NtN>
0

>  <NsssNH>
0

>  <NdsN>
0

>  <NaaN>
1

>  <NsssN>
0

>  <NddsN>
0

>  <NaasN>
0

>  <NssssN>
0

>  <NsOH>
1

>  <NdO>
1

>  <NssO>
1

>  <NaaO>
0

>  <NsF>
1

>  <NsSiH3>
0

>  <NssSiH2>
0

>  <NsssSiH>
0

>  <NssssSi>
0

>  <NsPH2>
0

>  <NssPH>
0

>  <NsssP>
0

>  <NdsssP>
0

>  <NsssssP>
0

>  <NsSH>
0

>  <NdS>
0

>  <NssS>
0

>  <NaaS>
0

>  <NdssS>
0

>  <NddssS>
0

>  <NsCl>
0

>  <NsBr>
0

>  <NsI>
0

>  <fragCpx>
129.07

>  <fMF>
0.4

>  <nHBAcc>
5

>  <nHBDon>
3

>  <Kier1>
19.75

>  <Kier2>
8.79

>  <Lipinski>
1

>  <GhoseFilter>
1

>  <FilterItLogS>
-3.77

>  <VMcGowan>
251.11

>  <LabuteASA>
144.38

>  <PEOE_VSA1>
20.89

>  <PEOE_VSA2>
4.79

>  <PEOE_VSA3>
9.37

>  <PEOE_VSA4>
0

>  <PEOE_VSA5>
0

>  <PEOE_VSA6>
6.07

>  <PEOE_VSA7>
48.59

>  <PEOE_VSA8>
6.2

>  <PEOE_VSA9>
24.82

>  <PEOE_VSA10>
5.82

>  <PEOE_VSA11>
11.57

>  <PEOE_VSA12>
0

>  <PEOE_VSA13>
5.91

>  <SMR_VSA1>
19.03

>  <SMR_VSA2>
0

>  <SMR_VSA3>
4.98

>  <SMR_VSA4>
11.65

>  <SMR_VSA5>
24.99

>  <SMR_VSA6>
12.43

>  <SMR_VSA7>
53.47

>  <SMR_VSA8>
0

>  <SMR_VSA9>
5.75

>  <SlogP_VSA1>
15.79

>  <SlogP_VSA2>
29.21

>  <SlogP_VSA3>
0

>  <SlogP_VSA4>
11.74

>  <SlogP_VSA5>
34.8

>  <SlogP_VSA6>
36.53

>  <SlogP_VSA7>
0

>  <SlogP_VSA8>
0

>  <SlogP_VSA9>
0

>  <SlogP_VSA10>
10.21

>  <SlogP_VSA11>
5.75

>  <EState_VSA1>
11.72

>  <EState_VSA2>
29.38

>  <EState_VSA3>
24.22

>  <EState_VSA4>
0

>  <EState_VSA5>
13.18

>  <EState_VSA6>
30.46

>  <EState_VSA7>
0

>  <EState_VSA8>
10.3

>  <EState_VSA9>
10.47

>  <EState_VSA10>
14.29

>  <VSA_EState1>
19.08

>  <VSA_EState2>
15.8

>  <VSA_EState3>
12.85

>  <VSA_EState4>
6.36

>  <VSA_EState5>
-0.47

>  <VSA_EState6>
7.61

>  <VSA_EState7>
2.36

>  <VSA_EState8>
0

>  <VSA_EState9>
1.41

>  <apol>
49.66

>  <bpol>
24.92

>  <nRing>
3

>  <nHRing>
1

>  <naRing>
2

>  <naHRing>
1

>  <nARing 2>
1

>  <nAHRing 2>
0

>  <nFRing>
0

>  <nFHRing>
0

>  <nFaRing>
0

>  <nFaHRing>
0

>  <nFARing 2>
0

>  <nFAHRing 2>
0

>  <nRot>
6

>  <SLogP>
2.25

>  <SMR>
90.8

>  <TopoPSA(NO)>
97.47

>  <TopoPSA>
97.47

>  <JGI1>
0.2

>  <JGI2>
0.09

>  <JGI3>
0.05

>  <JGI4>
0.04

>  <JGI5>
0.03

>  <Diameter>
11

>  <Radius>
6

>  <TMWC10>
127.39

>  <TSRW10>
60.08

>  <MW>
345.15

>  <AMW>
7.67

>  <WPath>
1476

>  <WPol>
38

>  <Zagreb1>
130

>  <Zagreb2>
153

>  <mZagreb2>
5.56

>  <yes>


>  <nAR-cont>
0.816016

>  <nHA-cont>
0.921834225

>  <MWHBN>
0.430611921

>  <MWHBN-cont>
0.357396566

>  <TPSA-cont>
0.319598875

>  <pka_cont>
0.97

>  <yes.1>


>  <BBB_SCORE>
3.398142824

>  <MMFF94 Energy>
37.155

$$$$
Compound 2220
Actelion Java MolfileCreator 2.0

  0  0  0  0  0  0              0 V3000
M  V30 BEGIN CTAB
M  V30 COUNTS 55 58 0 0 0
M  V30 BEGIN ATOM
M  V30 1 O -2.1765 1.5312 2.7414 0
M  V30 2 C -0.9808 1.4187 2.4919 0
M  V30 3 O -0.505 1.3415 1.1999 0
M  V30 4 C 0.0275 1.3811 3.5528 0
M  V30 5 C 0.8551 1.0855 0.9065 0
M  V30 6 C 1.3374 1.1956 3.3248 0
M  V30 7 C 1.8088 0.9991 1.9327 0
M  V30 8 C 1.1621 0.8956 -0.454 0
M  V30 9 C 2.2913 1.1841 4.4861 0
M  V30 10 C 3.134 0.7133 1.5421 0
M  V30 11 C 2.4801 0.5996 -0.7926 0
M  V30 12 C 0.1003 0.9579 -1.5277 0 CFG=2
M  V30 13 O 4.0971 0.606 2.5188 0
M  V30 14 C 3.4845 0.5301 0.1821 0
M  V30 15 O 2.7943 0.2571 -2.1244 0
M  V30 16 C -0.8163 -0.2579 -1.5231 0
M  V30 17 C 0.7087 1.259 -2.8922 0
M  V30 18 C 4.9098 0.2485 -0.1601 0
M  V30 19 C 1.9144 0.4217 -3.1866 0
M  V30 20 C -2.1808 -0.0766 -1.2466 0
M  V30 21 C -0.353 -1.5619 -1.7446 0
M  V30 22 O 5.6132 -0.3018 0.6896 0
M  V30 23 C 5.4783 0.6755 -1.487 0
M  V30 24 O 2.1753 -0.0165 -4.3005 0
M  V30 25 C -3.0459 -1.1713 -1.1512 0
M  V30 26 C -1.2294 -2.6546 -1.6916 0
M  V30 27 O -4.3769 -0.9871 -0.8706 0
M  V30 28 C -2.5826 -2.4694 -1.3992 0
M  V30 29 C -4.5934 -0.356 0.3889 0
M  V30 30 O -3.507 -3.4751 -1.2952 0
M  V30 31 C -4.9947 1.1142 0.258 0
M  V30 32 C -3.1257 -4.7579 -1.7722 0
M  V30 33 O -5.7263 1.558 -0.6221 0
M  V30 34 N -4.4724 1.9568 1.1973 0
M  V30 35 H -0.3667 1.5149 4.5545 0
M  V30 36 H 2.7689 0.2048 4.593 0
M  V30 37 H 3.0556 1.9602 4.3744 0
M  V30 38 H 1.78 1.3869 5.4348 0
M  V30 39 H -0.5181 1.8401 -1.3044 0
M  V30 40 H 4.898 0.1757 2.1394 0
M  V30 41 H 1.0385 2.3049 -2.9407 0
M  V30 42 H -0.0305 1.1101 -3.688 0
M  V30 43 H -2.5764 0.9257 -1.1007 0
M  V30 44 H 0.6948 -1.7628 -1.9532 0
M  V30 45 H 4.9938 1.5854 -1.8507 0
M  V30 46 H 6.5396 0.9094 -1.3556 0
M  V30 47 H 5.3806 -0.1343 -2.2134 0
M  V30 48 H -0.8175 -3.643 -1.8683 0
M  V30 49 H -3.7395 -0.4702 1.07 0
M  V30 50 H -5.4393 -0.8667 0.8638 0
M  V30 51 H -2.7909 -4.7139 -2.814 0
M  V30 52 H -4.0075 -5.4049 -1.7331 0
M  V30 53 H -2.3594 -5.202 -1.1287 0
M  V30 54 H -4.7219 2.9348 1.1495 0
M  V30 55 H -3.7906 1.6742 1.9015 0
M  V30 END ATOM
M  V30 BEGIN BOND
M  V30 1 2 1 2
M  V30 2 1 2 3
M  V30 3 1 2 4
M  V30 4 1 3 5
M  V30 5 2 4 6
M  V30 6 2 5 7
M  V30 7 1 5 8
M  V30 8 1 6 9
M  V30 9 1 7 10
M  V30 10 2 8 11
M  V30 11 1 8 12
M  V30 12 1 10 13
M  V30 13 2 10 14
M  V30 14 1 11 15
M  V30 15 1 12 16
M  V30 16 1 12 17
M  V30 17 1 14 18
M  V30 18 1 15 19
M  V30 19 2 16 20
M  V30 20 1 16 21
M  V30 21 2 18 22
M  V30 22 1 18 23
M  V30 23 2 19 24
M  V30 24 1 20 25
M  V30 25 2 21 26
M  V30 26 1 25 27
M  V30 27 2 25 28
M  V30 28 1 27 29
M  V30 29 1 28 30
M  V30 30 1 29 31
M  V30 31 1 30 32
M  V30 32 2 31 33
M  V30 33 1 31 34
M  V30 34 1 6 7
M  V30 35 1 11 14
M  V30 36 1 17 19
M  V30 37 1 26 28
M  V30 38 1 4 35
M  V30 39 1 9 36
M  V30 40 1 9 37
M  V30 41 1 9 38
M  V30 42 1 12 39
M  V30 43 1 13 40
M  V30 44 1 17 41
M  V30 45 1 17 42
M  V30 46 1 20 43
M  V30 47 1 21 44
M  V30 48 1 23 45
M  V30 49 1 23 46
M  V30 50 1 23 47
M  V30 51 1 26 48
M  V30 52 1 29 49
M  V30 53 1 29 50
M  V30 54 1 32 51
M  V30 55 1 32 52
M  V30 56 1 32 53
M  V30 57 1 34 54
M  V30 58 1 34 55
M  V30 END BOND
M  V30 BEGIN COLLECTION
M  V30 MDLV30/STEABS ATOMS=(1 12)
M  V30 END COLLECTION
M  V30 END CTAB
M  END
>  <Column 1>
2722

>  <level_0>
3956

>  <index>
3956

>  <Unnamed: 0>
3956

>  <NO.>
3968

>  <Name>
s-etodolac

>  <IUPAC_name>
2-[5-[(10s)-6-acetyl-5-hydroxy-4-methyl-2-8-dioxo-9-10-dihydropyrano[2-3-h]chromen-10-yl]-2-methoxyphenoxy]acetamide

>  <SMILES>
COc1ccc([C@@H]2CC(=O)Oc3c(C(C)=O)c(O)c4c(C)cc(=O)oc4c32)cc1OCC(N)=O

>  <CID>
100003308

>  <logBB>


>  <BBB+/BBB->
BBB-

>  <Inchi>
InChI=1S/C24H21NO9/c1-10-6-17(28)33-23-19(10)22(30)20(11(2)26)24-21(23)13(8-18(29)34-24)12-4-5-14(31-3)15(7-12)32-9-16(25)27/h4-7-13-30H-8-9H2-1-3H3-(H2-25-27)/t13-/m0/s1

>  <threshold>
-1

>  <reference>
R16|R10|

>  <group>
B

>  <Class>
-1

>  <ABC>
26.59

>  <ABCGG>
21.06

>  <nAcid>
0

>  <nBase>
0

>  <nAromAtom>
16

>  <nAromBond>
17

>  <nAtom>
55

>  <nHeavyAtom>
34

>  <nSpiro>
0

>  <nBridgehead>
0

>  <nHetero>
10

>  <nN>
1

>  <nO>
9

>  <nF>
0

>  <BalabanJ>
1.64

>  <BertzCT>
1420.44

>  <nBonds>
58

>  <nBondsO>
37

>  <nBondsS>
37

>  <nBondsD>
4

>  <nBondsT>
0

>  <nBondsA>
17

>  <nBondsM>
21

>  <nBondsKS>
47

>  <nBondsKD>
11

>  <RNCG>
0.13

>  <RPCG>
0.09

>  <FCSP3>
0.25

>  <SZ>
40.67

>  <Sm>
38.92

>  <Sv>
36.88

>  <Sse>
56.96

>  <Sp>
37.37

>  <Si>
61.54

>  <MZ>
0.74

>  <Mm>
0.71

>  <Mv>
0.67

>  <Mse>
1.04

>  <Mp>
0.68

>  <Mi>
1.12

>  <NsCH3>
3

>  <NdCH2>
0

>  <NssCH2>
2

>  <NtCH>
0

>  <NdsCH>
0

>  <NaaCH>
4

>  <NsssCH>
1

>  <NddC>
0

>  <NtsC>
0

>  <NdssC>
3

>  <NaasC>
8

>  <NaaaC>
2

>  <NssssC>
0

>  <NsNH3>
0

>  <NsNH2>
1

>  <NssNH2>
0

>  <NdNH>
0

>  <NssNH>
0

>  <NaaNH>
0

>  <NtN>
0

>  <NsssNH>
0

>  <NdsN>
0

>  <NaaN>
0

>  <NsssN>
0

>  <NddsN>
0

>  <NaasN>
0

>  <NssssN>
0

>  <NsOH>
1

>  <NdO>
4

>  <NssO>
3

>  <NaaO>
1

>  <NsF>
0

>  <NsSiH3>
0

>  <NssSiH2>
0

>  <NsssSiH>
0

>  <NssssSi>
0

>  <NsPH2>
0

>  <NssPH>
0

>  <NsssP>
0

>  <NdsssP>
0

>  <NsssssP>
0

>  <NsSH>
0

>  <NdS>
0

>  <NssS>
0

>  <NaaS>
0

>  <NdssS>
0

>  <NddssS>
0

>  <NsCl>
0

>  <NsBr>
0

>  <NsI>
0

>  <fragCpx>
247.1

>  <fMF>
0.36

>  <nHBAcc>
9

>  <nHBDon>
2

>  <Kier1>
27.05

>  <Kier2>
11.17

>  <Lipinski>
1

>  <GhoseFilter>
1

>  <FilterItLogS>
-5.62

>  <VMcGowan>
321.09

>  <LabuteASA>
192.37

>  <PEOE_VSA1>
29.47

>  <PEOE_VSA2>
14.38

>  <PEOE_VSA3>
4.79

>  <PEOE_VSA4>
0

>  <PEOE_VSA5>
0

>  <PEOE_VSA6>
6.07

>  <PEOE_VSA7>
37.11

>  <PEOE_VSA8>
17.55

>  <PEOE_VSA9>
18.92

>  <PEOE_VSA10>
16.9

>  <PEOE_VSA11>
29.64

>  <PEOE_VSA12>
0

>  <PEOE_VSA13>
5.91

>  <SMR_VSA1>
38.12

>  <SMR_VSA2>
0

>  <SMR_VSA3>
0

>  <SMR_VSA4>
5.73

>  <SMR_VSA5>
26.19

>  <SMR_VSA6>
13.72

>  <SMR_VSA7>
56.94

>  <SMR_VSA8>
0

>  <SMR_VSA9>
23

>  <SlogP_VSA1>
25.57

>  <SlogP_VSA2>
36.48

>  <SlogP_VSA3>
9.59

>  <SlogP_VSA4>
6.92

>  <SlogP_VSA5>
46.31

>  <SlogP_VSA6>
33.48

>  <SlogP_VSA7>
0

>  <SlogP_VSA8>
10.97

>  <SlogP_VSA9>
0

>  <SlogP_VSA10>
0

>  <SlogP_VSA11>
23

>  <EState_VSA1>
41.56

>  <EState_VSA2>
40.02

>  <EState_VSA3>
16.88

>  <EState_VSA4>
0

>  <EState_VSA5>
20.1

>  <EState_VSA6>
25.12

>  <EState_VSA7>
0

>  <EState_VSA8>
0

>  <EState_VSA9>
24.36

>  <EState_VSA10>
24.28

>  <VSA_EState1>
21.59

>  <VSA_EState2>
48.45

>  <VSA_EState3>
11.04

>  <VSA_EState4>
5.53

>  <VSA_EState5>
-2.68

>  <VSA_EState6>
6.02

>  <VSA_EState7>
-0.15

>  <VSA_EState8>
2.43

>  <VSA_EState9>
1.42

>  <apol>
62.4

>  <bpol>
30.91

>  <nRing>
4

>  <nHRing>
2

>  <naRing>
3

>  <naHRing>
1

>  <nARing 2>
1

>  <nAHRing 2>
1

>  <nFRing>
1

>  <nFHRing>
1

>  <nFaRing>
0

>  <nFaHRing>
0

>  <nFARing 2>
1

>  <nFAHRing 2>
1

>  <nRot>
6

>  <SLogP>
2.32

>  <SMR>
118.67

>  <TopoPSA(NO)>
155.36

>  <TopoPSA>
155.36

>  <JGI1>
0.22

>  <JGI2>
0.07

>  <JGI3>
0.05

>  <JGI4>
0.05

>  <JGI5>
0.04

>  <Diameter>
12

>  <Radius>
6

>  <TMWC10>
151.06

>  <TSRW10>
70.88

>  <MW>
467.12

>  <AMW>
8.49

>  <WPath>
3104

>  <WPol>
64

>  <Zagreb1>
184

>  <Zagreb2>
223

>  <mZagreb2>
7.39

>  <yes>


>  <nAR-cont>
0.816016

>  <nHA-cont>
0.568589513

>  <MWHBN>
0.508953909

>  <MWHBN-cont>
0

>  <TPSA-cont>
0

>  <pka_cont>
0.97

>  <yes.1>


>  <BBB_SCORE>
1.869605513

>  <MMFF94 Energy>
101.89

$$$$
Compound 2221
Actelion Java MolfileCreator 2.0

  0  0  0  0  0  0              0 V3000
M  V30 BEGIN CTAB
M  V30 COUNTS 60 64 0 0 0
M  V30 BEGIN ATOM
M  V30 1 O -6.4504 -3.1406 -1.046 0
M  V30 2 C -5.3711 -2.8397 -0.5468 0
M  V30 3 O -5.2755 -1.8502 0.4238 0
M  V30 4 C -4.0986 -3.5795 -0.8518 0
M  V30 5 C -4.0282 -1.3756 0.8749 0
M  V30 6 C -2.8825 -2.6631 -0.9544 0 CFG=2
M  V30 7 C -2.8468 -1.7313 0.2197 0
M  V30 8 C -4.0508 -0.4944 1.9724 0
M  V30 9 C -2.7816 -1.9569 -2.2995 0
M  V30 10 C -1.6809 -1.1658 0.7044 0
M  V30 11 C -2.8608 0.0585 2.4476 0
M  V30 12 C -1.772 -2.3328 -3.198 0
M  V30 13 C -3.666 -0.9391 -2.6883 0
M  V30 14 O -0.4166 -1.3774 0.2065 0
M  V30 15 C -1.6968 -0.295 1.7913 0
M  V30 16 C -1.6553 -1.7099 -4.4434 0
M  V30 17 C -3.547 -0.3179 -3.9385 0
M  V30 18 C 0.4493 -0.6102 0.9936 0
M  V30 19 C -0.3221 0.117 2.0452 0
M  V30 20 C -2.541 -0.7015 -4.8224 0
M  V30 21 C 1.766 -0.5752 0.7538 0
M  V30 22 O 0.0469 0.869 2.9198 0
M  V30 23 O -2.3162 -0.1784 -6.0652 0
M  V30 24 C 2.7708 0.2029 1.4916 0
M  V30 25 C -3.207 0.8393 -6.5042 0
M  V30 26 C 3.55 1.1779 0.836 0
M  V30 27 C 2.9912 -0.0548 2.848 0
M  V30 28 O 3.289 1.3519 -0.5022 0
M  V30 29 C 4.5274 1.8882 1.5515 0
M  V30 30 C 3.9431 0.6801 3.5531 0
M  V30 31 C 3.9357 2.4294 -1.166 0
M  V30 32 C 4.7343 1.6432 2.914 0
M  V30 33 O 4.1224 0.3817 4.8818 0
M  V30 34 O 5.6614 2.279 3.6982 0
M  V30 35 C 3.3267 1.2596 5.6797 0
M  V30 36 C 6.5377 3.2007 3.0661 0
M  V30 37 H -4.2347 -4.1449 -1.7815 0
M  V30 38 H -3.9613 -4.3088 -0.0428 0
M  V30 39 H -2.009 -3.3247 -0.8603 0
M  V30 40 H -4.9969 -0.2381 2.4442 0
M  V30 41 H -2.8444 0.7427 3.2897 0
M  V30 42 H -1.0597 -3.1139 -2.94 0
M  V30 43 H -4.4623 -0.6015 -2.0289 0
M  V30 44 H -0.8651 -2.0145 -5.1254 0
M  V30 45 H -4.2582 0.463 -4.1868 0
M  V30 46 H 2.162 -1.1353 -0.0898 0
M  V30 47 H -4.2342 0.4653 -6.5676 0
M  V30 48 H -2.9001 1.1409 -7.5103 0
M  V30 49 H -3.146 1.7221 -5.8591 0
M  V30 50 H 2.4157 -0.8129 3.372 0
M  V30 51 H 5.13 2.6296 1.0449 0
M  V30 52 H 3.7042 3.3874 -0.6886 0
M  V30 53 H 3.5534 2.468 -2.1905 0
M  V30 54 H 5.0164 2.2637 -1.2213 0
M  V30 55 H 3.6327 2.304 5.5558 0
M  V30 56 H 3.478 0.9864 6.7283 0
M  V30 57 H 2.261 1.1457 5.4515 0
M  V30 58 H 7.1326 2.7121 2.2874 0
M  V30 59 H 7.2298 3.5785 3.8249 0
M  V30 60 H 5.9855 4.0567 2.6648 0
M  V30 END ATOM
M  V30 BEGIN BOND
M  V30 1 2 1 2
M  V30 2 1 2 3
M  V30 3 1 2 4
M  V30 4 1 3 5
M  V30 5 1 4 6
M  V30 6 2 5 7
M  V30 7 1 5 8
M  V30 8 1 6 9
M  V30 9 1 7 10
M  V30 10 2 8 11
M  V30 11 2 9 12
M  V30 12 1 9 13
M  V30 13 1 10 14
M  V30 14 2 10 15
M  V30 15 1 12 16
M  V30 16 2 13 17
M  V30 17 1 14 18
M  V30 18 1 15 19
M  V30 19 2 16 20
M  V30 20 2 18 21
M  V30 21 2 19 22
M  V30 22 1 20 23
M  V30 23 1 21 24
M  V30 24 1 23 25
M  V30 25 2 24 26
M  V30 26 1 24 27
M  V30 27 1 26 28
M  V30 28 1 26 29
M  V30 29 2 27 30
M  V30 30 1 28 31
M  V30 31 2 29 32
M  V30 32 1 30 33
M  V30 33 1 32 34
M  V30 34 1 33 35
M  V30 35 1 34 36
M  V30 36 1 6 7
M  V30 37 1 11 15
M  V30 38 1 17 20
M  V30 39 1 18 19
M  V30 40 1 30 32
M  V30 41 1 4 37
M  V30 42 1 4 38
M  V30 43 1 6 39
M  V30 44 1 8 40
M  V30 45 1 11 41
M  V30 46 1 12 42
M  V30 47 1 13 43
M  V30 48 1 16 44
M  V30 49 1 17 45
M  V30 50 1 21 46
M  V30 51 1 25 47
M  V30 52 1 25 48
M  V30 53 1 25 49
M  V30 54 1 27 50
M  V30 55 1 29 51
M  V30 56 1 31 52
M  V30 57 1 31 53
M  V30 58 1 31 54
M  V30 59 1 35 55
M  V30 60 1 35 56
M  V30 61 1 35 57
M  V30 62 1 36 58
M  V30 63 1 36 59
M  V30 64 1 36 60
M  V30 END BOND
M  V30 BEGIN COLLECTION
M  V30 MDLV30/STEABS ATOMS=(1 6)
M  V30 END COLLECTION
M  V30 END CTAB
M  END
>  <Column 1>
2723

>  <level_0>
3957

>  <index>
3957

>  <Unnamed: 0>
3957

>  <NO.>
3969

>  <Name>
chlorambucil

>  <IUPAC_name>
(2e-9s)-9-(4-methoxyphenyl)-2-[(2-4-5-trimethoxyphenyl)methylidene]-8-9-dihydrofuro[2-3-f]chromene-3-7-dione

>  <SMILES>
COc1ccc([C@@H]2CC(=O)Oc3ccc4c(c32)O/C(=C/c2cc(OC)c(OC)cc2OC)C4=O)cc1

>  <CID>
100002708

>  <logBB>


>  <BBB+/BBB->
BBB-

>  <Inchi>
InChI=1S/C28H24O8/c1-31-17-7-5-15(6-8-17)19-13-25(29)35-20-10-9-18-27(30)24(36-28(18)26(19)20)12-16-11-22(33-3)23(34-4)14-21(16)32-2/h5-12-14-19H-13H2-1-4H3/b24-12+/t19-/m0/s1

>  <threshold>
-1

>  <reference>
R16|R16|R10|R10|

>  <group>
B

>  <Class>
1

>  <ABC>
28.14

>  <ABCGG>
21.21

>  <nAcid>
0

>  <nBase>
0

>  <nAromAtom>
18

>  <nAromBond>
18

>  <nAtom>
60

>  <nHeavyAtom>
36

>  <nSpiro>
0

>  <nBridgehead>
0

>  <nHetero>
8

>  <nN>
0

>  <nO>
8

>  <nF>
0

>  <BalabanJ>
1.3

>  <BertzCT>
1387.65

>  <nBonds>
64

>  <nBondsO>
40

>  <nBondsS>
43

>  <nBondsD>
3

>  <nBondsT>
0

>  <nBondsA>
18

>  <nBondsM>
21

>  <nBondsKS>
52

>  <nBondsKD>
12

>  <RNCG>
0.14

>  <RPCG>
0.09

>  <FCSP3>
0.21

>  <SZ>
42.67

>  <Sm>
40.67

>  <Sv>
40.22

>  <Sse>
61.3

>  <Sp>
41.42

>  <Si>
66.66

>  <MZ>
0.71

>  <Mm>
0.68

>  <Mv>
0.67

>  <Mse>
1.02

>  <Mp>
0.69

>  <Mi>
1.11

>  <NsCH3>
4

>  <NdCH2>
0

>  <NssCH2>
1

>  <NtCH>
0

>  <NdsCH>
1

>  <NaaCH>
8

>  <NsssCH>
1

>  <NddC>
0

>  <NtsC>
0

>  <NdssC>
3

>  <NaasC>
10

>  <NaaaC>
0

>  <NssssC>
0

>  <NsNH3>
0

>  <NsNH2>
0

>  <NssNH2>
0

>  <NdNH>
0

>  <NssNH>
0

>  <NaaNH>
0

>  <NtN>
0

>  <NsssNH>
0

>  <NdsN>
0

>  <NaaN>
0

>  <NsssN>
0

>  <NddsN>
0

>  <NaasN>
0

>  <NssssN>
0

>  <NsOH>
0

>  <NdO>
2

>  <NssO>
6

>  <NaaO>
0

>  <NsF>
0

>  <NsSiH3>
0

>  <NssSiH2>
0

>  <NsssSiH>
0

>  <NssssSi>
0

>  <NsPH2>
0

>  <NssPH>
0

>  <NsssP>
0

>  <NdsssP>
0

>  <NsssssP>
0

>  <NsSH>
0

>  <NdS>
0

>  <NssS>
0

>  <NaaS>
0

>  <NdssS>
0

>  <NddssS>
0

>  <NsCl>
0

>  <NsBr>
0

>  <NsI>
0

>  <fragCpx>
340.08

>  <fMF>
0.43

>  <nHBAcc>
8

>  <nHBDon>
0

>  <Kier1>
27.56

>  <Kier2>
12.03

>  <Lipinski>
1

>  <GhoseFilter>
0

>  <FilterItLogS>
-7.01

>  <VMcGowan>
346.44

>  <LabuteASA>
207.5

>  <PEOE_VSA1>
28.42

>  <PEOE_VSA2>
9.59

>  <PEOE_VSA3>
0

>  <PEOE_VSA4>
0

>  <PEOE_VSA5>
0

>  <PEOE_VSA6>
12.13

>  <PEOE_VSA7>
41.97

>  <PEOE_VSA8>
23.11

>  <PEOE_VSA9>
40.42

>  <PEOE_VSA10>
23

>  <PEOE_VSA11>
17.26

>  <PEOE_VSA12>
5.78

>  <PEOE_VSA13>
0

>  <SMR_VSA1>
38.01

>  <SMR_VSA2>
0

>  <SMR_VSA3>
0

>  <SMR_VSA4>
0

>  <SMR_VSA5>
12.34

>  <SMR_VSA6>
28.44

>  <SMR_VSA7>
76.54

>  <SMR_VSA8>
0

>  <SMR_VSA9>
34.5

>  <SlogP_VSA1>
28.42

>  <SlogP_VSA2>
40.19

>  <SlogP_VSA3>
4.79

>  <SlogP_VSA4>
0

>  <SlogP_VSA5>
39.39

>  <SlogP_VSA6>
54.29

>  <SlogP_VSA7>
0

>  <SlogP_VSA8>
6.08

>  <SlogP_VSA9>
0

>  <SlogP_VSA10>
0

>  <SlogP_VSA11>
34.5

>  <EState_VSA1>
0

>  <EState_VSA2>
29.85

>  <EState_VSA3>
51.19

>  <EState_VSA4>
5.56

>  <EState_VSA5>
21.33

>  <EState_VSA6>
37.45

>  <EState_VSA7>
24.27

>  <EState_VSA8>
0

>  <EState_VSA9>
28.42

>  <EState_VSA10>
9.59

>  <VSA_EState1>
33.15

>  <VSA_EState2>
25.72

>  <VSA_EState3>
0

>  <VSA_EState4>
2.53

>  <VSA_EState5>
2.08

>  <VSA_EState6>
14.11

>  <VSA_EState7>
1.72

>  <VSA_EState8>
0

>  <VSA_EState9>
6.18

>  <apol>
69.18

>  <bpol>
36.23

>  <nRing>
5

>  <nHRing>
2

>  <naRing>
3

>  <naHRing>
0

>  <nARing 2>
2

>  <nAHRing 2>
2

>  <nFRing>
1

>  <nFHRing>
1

>  <nFaRing>
0

>  <nFaHRing>
0

>  <nFARing 2>
1

>  <nFAHRing 2>
1

>  <nRot>
6

>  <SLogP>
4.78

>  <SMR>
130.56

>  <TopoPSA(NO)>
89.52

>  <TopoPSA>
89.52

>  <JGI1>
0.19

>  <JGI2>
0.08

>  <JGI3>
0.05

>  <JGI4>
0.05

>  <JGI5>
0.03

>  <Diameter>
17

>  <Radius>
9

>  <TMWC10>
156.3

>  <TSRW10>
87.37

>  <MW>
488.15

>  <AMW>
8.14

>  <WPath>
4001

>  <WPol>
66

>  <Zagreb1>
196

>  <Zagreb2>
239

>  <mZagreb2>
8.08

>  <yes>


>  <nAR-cont>
1

>  <nHA-cont>
0.477843619

>  <MWHBN>
0.36208734

>  <MWHBN-cont>
0.624425771

>  <TPSA-cont>
0.375094811

>  <pka_cont>
0.97

>  <yes.1>


>  <BBB_SCORE>
3.649671898

>  <MMFF94 Energy>
125.87

$$$$
Compound 2222
Actelion Java MolfileCreator 2.0

  0  0  0  0  0  0              0 V3000
M  V30 BEGIN CTAB
M  V30 COUNTS 42 44 0 0 0
M  V30 BEGIN ATOM
M  V30 1 S -0.487 -0.9742 -0.0811 0
M  V30 2 O -1.1212 0.1145 0.6342 0
M  V30 3 O -0.2339 -2.2586 0.541 0
M  V30 4 C -1.4572 -1.2702 -1.5417 0
M  V30 5 C 1.084 -0.4225 -0.7704 0 CFG=2
M  V30 6 C -2.1482 -0.2086 -2.1308 0
M  V30 7 C -1.5406 -2.5591 -2.0712 0
M  V30 8 C 2.0688 0.2907 0.1147 0 CFG=1
M  V30 9 C 1.2036 1.081 -0.8541 0 CFG=1
M  V30 10 C -2.9088 -0.4379 -3.278 0
M  V30 11 C -2.3033 -2.7802 -3.2189 0
M  V30 12 C 1.9171 0.4305 1.6099 0
M  V30 13 C 1.7917 1.665 -2.0687 0
M  V30 14 C -2.9797 -1.7204 -3.8389 0
M  V30 15 C 1.6683 1.6701 2.2213 0
M  V30 16 C 1.951 -0.6947 2.4468 0
M  V30 17 O 2.6827 1.151 -2.7224 0
M  V30 18 O 1.2349 2.8385 -2.4139 0
M  V30 19 C -3.8296 -1.971 -5.0504 0
M  V30 20 C 1.4853 1.788 3.6062 0
M  V30 21 C 1.7698 -0.5828 3.8292 0
M  V30 22 C 1.5359 0.6582 4.4175 0
M  V30 23 O 1.3771 0.6311 5.7749 0
M  V30 24 C 1.0544 1.8629 6.4071 0
M  V30 25 H 1.4907 -1.0349 -1.5639 0
M  V30 26 H -2.1117 0.7901 -1.7013 0
M  V30 27 H -1.0269 -3.3936 -1.599 0
M  V30 28 H 3.111 0.1699 -0.1861 0
M  V30 29 H 0.4156 1.6884 -0.4204 0
M  V30 30 H -3.4541 0.3886 -3.7294 0
M  V30 31 H -2.3728 -3.7874 -3.6252 0
M  V30 32 H 1.6167 2.5719 1.615 0
M  V30 33 H 2.116 -1.6835 2.0226 0
M  V30 34 H 1.7185 3.1076 -3.2229 0
M  V30 35 H -4.8487 -2.2278 -4.7457 0
M  V30 36 H -3.8643 -1.0848 -5.6927 0
M  V30 37 H -3.4215 -2.7909 -5.6505 0
M  V30 38 H 1.3012 2.7766 4.0125 0
M  V30 39 H 1.8008 -1.4761 4.4478 0
M  V30 40 H 1.868 2.5872 6.2965 0
M  V30 41 H 0.9272 1.6668 7.4761 0
M  V30 42 H 0.1099 2.2675 6.0283 0
M  V30 END ATOM
M  V30 BEGIN BOND
M  V30 1 2 1 2
M  V30 2 2 1 3
M  V30 3 1 1 4
M  V30 4 1 1 5
M  V30 5 2 4 6
M  V30 6 1 4 7
M  V30 7 1 5 8
M  V30 8 1 5 9
M  V30 9 1 6 10
M  V30 10 2 7 11
M  V30 11 1 8 12
M  V30 12 1 9 13
M  V30 13 2 10 14
M  V30 14 2 12 15
M  V30 15 1 12 16
M  V30 16 2 13 17
M  V30 17 1 13 18
M  V30 18 1 14 19
M  V30 19 1 15 20
M  V30 20 2 16 21
M  V30 21 2 20 22
M  V30 22 1 22 23
M  V30 23 1 23 24
M  V30 24 1 8 9
M  V30 25 1 11 14
M  V30 26 1 21 22
M  V30 27 1 5 25
M  V30 28 1 6 26
M  V30 29 1 7 27
M  V30 30 1 8 28
M  V30 31 1 9 29
M  V30 32 1 10 30
M  V30 33 1 11 31
M  V30 34 1 15 32
M  V30 35 1 16 33
M  V30 36 1 18 34
M  V30 37 1 19 35
M  V30 38 1 19 36
M  V30 39 1 19 37
M  V30 40 1 20 38
M  V30 41 1 21 39
M  V30 42 1 24 40
M  V30 43 1 24 41
M  V30 44 1 24 42
M  V30 END BOND
M  V30 BEGIN COLLECTION
M  V30 MDLV30/STEABS ATOMS=(3 5 8 9)
M  V30 END COLLECTION
M  V30 END CTAB
M  END
>  <Column 1>
2724

>  <level_0>
3958

>  <index>
3958

>  <Unnamed: 0>
3958

>  <NO.>
3970

>  <Name>
nevirapine

>  <IUPAC_name>
(1s-2s-3r)-2-(4-methoxyphenyl)-3-(4-methylphenyl)sulfonylcyclopropane-1-carboxylic acid

>  <SMILES>
COc1ccc([C@@H]2[C@@H](C(=O)O)[C@@H]2S(=O)(=O)c2ccc(C)cc2)cc1

>  <CID>
100004463

>  <logBB>


>  <BBB+/BBB->
BBB+

>  <Inchi>
InChI=1S/C18H18O5S/c1-11-3-9-14(10-4-11)24(21-22)17-15(16(17)18(19)20)12-5-7-13(23-2)8-6-12/h3-10-15-17H-1-2H3-(H-19-20)/t15--16--17-/m1/s1

>  <threshold>
-1

>  <reference>
R16|R10|

>  <group>
B

>  <Class>
1

>  <ABC>
18.71

>  <ABCGG>
15.96

>  <nAcid>
1

>  <nBase>
0

>  <nAromAtom>
12

>  <nAromBond>
12

>  <nAtom>
42

>  <nHeavyAtom>
24

>  <nSpiro>
0

>  <nBridgehead>
0

>  <nHetero>
6

>  <nN>
0

>  <nO>
5

>  <nF>
0

>  <BalabanJ>
1.67

>  <BertzCT>
853.29

>  <nBonds>
44

>  <nBondsO>
26

>  <nBondsS>
29

>  <nBondsD>
3

>  <nBondsT>
0

>  <nBondsA>
12

>  <nBondsM>
15

>  <nBondsKS>
35

>  <nBondsKD>
9

>  <RNCG>
0.23

>  <RPCG>
0.14

>  <FCSP3>
0.28

>  <SZ>
30.33

>  <Sm>
28.84

>  <Sv>
27.64

>  <Sse>
42.72

>  <Sp>
29.32

>  <Si>
46.7

>  <MZ>
0.72

>  <Mm>
0.69

>  <Mv>
0.66

>  <Mse>
1.02

>  <Mp>
0.7

>  <Mi>
1.11

>  <NsCH3>
2

>  <NdCH2>
0

>  <NssCH2>
0

>  <NtCH>
0

>  <NdsCH>
0

>  <NaaCH>
8

>  <NsssCH>
3

>  <NddC>
0

>  <NtsC>
0

>  <NdssC>
1

>  <NaasC>
4

>  <NaaaC>
0

>  <NssssC>
0

>  <NsNH3>
0

>  <NsNH2>
0

>  <NssNH2>
0

>  <NdNH>
0

>  <NssNH>
0

>  <NaaNH>
0

>  <NtN>
0

>  <NsssNH>
0

>  <NdsN>
0

>  <NaaN>
0

>  <NsssN>
0

>  <NddsN>
0

>  <NaasN>
0

>  <NssssN>
0

>  <NsOH>
1

>  <NdO>
3

>  <NssO>
1

>  <NaaO>
0

>  <NsF>
0

>  <NsSiH3>
0

>  <NssSiH2>
0

>  <NsssSiH>
0

>  <NssssSi>
0

>  <NsPH2>
0

>  <NssPH>
0

>  <NsssP>
0

>  <NdsssP>
0

>  <NsssssP>
0

>  <NsSH>
0

>  <NdS>
0

>  <NssS>
0

>  <NaaS>
0

>  <NdssS>
0

>  <NddssS>
1

>  <NsCl>
0

>  <NsBr>
0

>  <NsI>
0

>  <fragCpx>
124.06

>  <fMF>
0.38

>  <nHBAcc>
4

>  <nHBDon>
1

>  <Kier1>
18.78

>  <Kier2>
7.32

>  <Lipinski>
1

>  <GhoseFilter>
1

>  <FilterItLogS>
-3.62

>  <VMcGowan>
247.5

>  <LabuteASA>
140.37

>  <PEOE_VSA1>
9.84

>  <PEOE_VSA2>
4.79

>  <PEOE_VSA3>
8.42

>  <PEOE_VSA4>
0

>  <PEOE_VSA5>
0

>  <PEOE_VSA6>
29.83

>  <PEOE_VSA7>
36.75

>  <PEOE_VSA8>
5.92

>  <PEOE_VSA9>
23.17

>  <PEOE_VSA10>
5.75

>  <PEOE_VSA11>
9.84

>  <PEOE_VSA12>
0

>  <PEOE_VSA13>
0

>  <SMR_VSA1>
23.06

>  <SMR_VSA2>
0

>  <SMR_VSA3>
0

>  <SMR_VSA4>
5.92

>  <SMR_VSA5>
22.99

>  <SMR_VSA6>
7.11

>  <SMR_VSA7>
59.66

>  <SMR_VSA8>
0

>  <SMR_VSA9>
5.75

>  <SlogP_VSA1>
4.74

>  <SlogP_VSA2>
31.85

>  <SlogP_VSA3>
14.63

>  <SlogP_VSA4>
12.84

>  <SlogP_VSA5>
17.04

>  <SlogP_VSA6>
53.43

>  <SlogP_VSA7>
0

>  <SlogP_VSA8>
0

>  <SlogP_VSA9>
0

>  <SlogP_VSA10>
0

>  <SlogP_VSA11>
5.75

>  <EState_VSA1>
32.89

>  <EState_VSA2>
4.9

>  <EState_VSA3>
11.31

>  <EState_VSA4>
5.56

>  <EState_VSA5>
19.24

>  <EState_VSA6>
36.4

>  <EState_VSA7>
6.92

>  <EState_VSA8>
0

>  <EState_VSA9>
4.74

>  <EState_VSA10>
18.32

>  <VSA_EState1>
30.76

>  <VSA_EState2>
11.69

>  <VSA_EState3>
8.48

>  <VSA_EState4>
1.65

>  <VSA_EState5>
-1.91

>  <VSA_EState6>
13.37

>  <VSA_EState7>
0

>  <VSA_EState8>
1.87

>  <VSA_EState9>
-2.16

>  <apol>
48.97

>  <bpol>
27.32

>  <nRing>
3

>  <nHRing>
0

>  <naRing>
2

>  <naHRing>
0

>  <nARing 2>
1

>  <nAHRing 2>
0

>  <nFRing>
0

>  <nFHRing>
0

>  <nFaRing>
0

>  <nFaHRing>
0

>  <nFARing 2>
0

>  <nFAHRing 2>
0

>  <nRot>
5

>  <SLogP>
2.64

>  <SMR>
89.01

>  <TopoPSA(NO)>
80.67

>  <TopoPSA>
89.05

>  <JGI1>
0.23

>  <JGI2>
0.11

>  <JGI3>
0.08

>  <JGI4>
0.06

>  <JGI5>
0.04

>  <Diameter>
13

>  <Radius>
7

>  <TMWC10>
127.26

>  <TSRW10>
79.85

>  <MW>
346.09

>  <AMW>
8.24

>  <WPath>
1336

>  <WPol>
39

>  <Zagreb1>
130

>  <Zagreb2>
158

>  <mZagreb2>
5.22

>  <yes>


>  <nAR-cont>
0.816016

>  <nHA-cont>
0.94700071

>  <MWHBN>
0.268766712

>  <MWHBN-cont>
0.922890812

>  <TPSA-cont>
0.378375703

>  <pka_cont>
0.97

>  <yes.1>


>  <BBB_SCORE>
4.389104335

>  <MMFF94 Energy>
26.181

$$$$
Compound 2223
Actelion Java MolfileCreator 2.0

  0  0  0  0  0  0              0 V3000
M  V30 BEGIN CTAB
M  V30 COUNTS 38 40 0 0 0
M  V30 BEGIN ATOM
M  V30 1 Cl -1.6436 -6.9993 1.6436 0
M  V30 2 C -1.2123 -5.3522 1.3972 0
M  V30 3 C -1.9947 -4.5496 0.5653 0
M  V30 4 C -0.0858 -4.8293 2.0343 0
M  V30 5 C -1.647 -3.2126 0.362 0
M  V30 6 C 0.2677 -3.4929 1.8362 0
M  V30 7 C -0.5096 -2.6951 0.9907 0
M  V30 8 S -0.0741 -0.9848 0.7422 0
M  V30 9 O -1.3045 -0.2807 0.4419 0
M  V30 10 O 0.7797 -0.5991 1.8491 0
M  V30 11 C 0.9736 -1.0617 -0.7241 0 CFG=1
M  V30 12 C 0.2525 -0.7694 -2.009 0 CFG=1
M  V30 13 C 1.2683 0.2175 -1.463 0 CFG=1
M  V30 14 N 0.6013 -1.5366 -3.2158 0
M  V30 15 C 0.8616 1.5945 -0.9948 0
M  V30 16 C 1.3818 2.1406 0.1899 0
M  V30 17 C -0.0973 2.3583 -1.6773 0
M  V30 18 C 0.9807 3.3963 0.6657 0
M  V30 19 C -0.4981 3.6146 -1.2098 0
M  V30 20 C 0.0364 4.1404 -0.0351 0
M  V30 21 O -0.4404 5.3735 0.3126 0
M  V30 22 C 0.0179 5.9114 1.5466 0
M  V30 23 H -2.8784 -4.9577 0.0808 0
M  V30 24 H 0.5148 -5.4549 2.69 0
M  V30 25 H -2.2682 -2.5853 -0.2739 0
M  V30 26 H 1.139 -3.086 2.3454 0
M  V30 27 H 1.7482 -1.8153 -0.7142 0
M  V30 28 H -0.7938 -0.4752 -1.9646 0
M  V30 29 H 2.2314 0.2229 -1.975 0
M  V30 30 H 0.5536 -0.9382 -4.0428 0
M  V30 31 H -0.0737 -2.2842 -3.3825 0
M  V30 32 H 2.115 1.578 0.766 0
M  V30 33 H -0.5434 1.9792 -2.5934 0
M  V30 34 H 1.4238 3.7538 1.5889 0
M  V30 35 H -1.241 4.1827 -1.7638 0
M  V30 36 H -0.2555 5.2646 2.3869 0
M  V30 37 H -0.4769 6.8761 1.695 0
M  V30 38 H 1.0975 6.092 1.5207 0
M  V30 END ATOM
M  V30 BEGIN BOND
M  V30 1 1 1 2
M  V30 2 2 2 3
M  V30 3 1 2 4
M  V30 4 1 3 5
M  V30 5 2 4 6
M  V30 6 2 5 7
M  V30 7 1 7 8
M  V30 8 2 8 9
M  V30 9 2 8 10
M  V30 10 1 8 11
M  V30 11 1 11 12
M  V30 12 1 11 13
M  V30 13 1 12 14
M  V30 14 1 13 15
M  V30 15 2 15 16
M  V30 16 1 15 17
M  V30 17 1 16 18
M  V30 18 2 17 19
M  V30 19 2 18 20
M  V30 20 1 20 21
M  V30 21 1 21 22
M  V30 22 1 6 7
M  V30 23 1 12 13
M  V30 24 1 19 20
M  V30 25 1 3 23
M  V30 26 1 4 24
M  V30 27 1 5 25
M  V30 28 1 6 26
M  V30 29 1 11 27
M  V30 30 1 12 28
M  V30 31 1 13 29
M  V30 32 1 14 30
M  V30 33 1 14 31
M  V30 34 1 16 32
M  V30 35 1 17 33
M  V30 36 1 18 34
M  V30 37 1 19 35
M  V30 38 1 22 36
M  V30 39 1 22 37
M  V30 40 1 22 38
M  V30 END BOND
M  V30 BEGIN COLLECTION
M  V30 MDLV30/STEABS ATOMS=(3 11 12 13)
M  V30 END COLLECTION
M  V30 END CTAB
M  END
>  <Column 1>
2725

>  <level_0>
3959

>  <index>
3959

>  <Unnamed: 0>
3959

>  <NO.>
3971

>  <Name>
protriptyline

>  <IUPAC_name>
(1r-2r-3r)-2-(4-chlorophenyl)sulfonyl-3-(4-methoxyphenyl)cyclopropan-1-amine

>  <SMILES>
COc1ccc([C@@H]2[C@@H](N)[C@@H]2S(=O)(=O)c2ccc(Cl)cc2)cc1

>  <CID>
100004976

>  <logBB>


>  <BBB+/BBB->
BBB+

>  <Inchi>
InChI=1S/C16H16ClNO3S/c1-21-12-6-2-10(3-7-12)14-15(18)16(14)22(19-20)13-8-4-11(17)5-9-13/h2-9-14-16H-18H2-1H3/t14--15--16-/m1/s1

>  <threshold>
-1

>  <reference>
R16|R10|R10|

>  <group>
B

>  <Class>
1

>  <ABC>
17.22

>  <ABCGG>
14.77

>  <nAcid>
0

>  <nBase>
1

>  <nAromAtom>
12

>  <nAromBond>
12

>  <nAtom>
38

>  <nHeavyAtom>
22

>  <nSpiro>
0

>  <nBridgehead>
0

>  <nHetero>
6

>  <nN>
1

>  <nO>
3

>  <nF>
0

>  <BalabanJ>
1.58

>  <BertzCT>
772.04

>  <nBonds>
40

>  <nBondsO>
24

>  <nBondsS>
26

>  <nBondsD>
2

>  <nBondsT>
0

>  <nBondsA>
12

>  <nBondsM>
14

>  <nBondsKS>
32

>  <nBondsKD>
8

>  <RNCG>
0.29

>  <RPCG>
0.11

>  <FCSP3>
0.25

>  <SZ>
29.33

>  <Sm>
28.13

>  <Sv>
25.51

>  <Sse>
38.6

>  <Sp>
27.53

>  <Si>
42.31

>  <MZ>
0.77

>  <Mm>
0.74

>  <Mv>
0.67

>  <Mse>
1.02

>  <Mp>
0.72

>  <Mi>
1.11

>  <NsCH3>
1

>  <NdCH2>
0

>  <NssCH2>
0

>  <NtCH>
0

>  <NdsCH>
0

>  <NaaCH>
8

>  <NsssCH>
3

>  <NddC>
0

>  <NtsC>
0

>  <NdssC>
0

>  <NaasC>
4

>  <NaaaC>
0

>  <NssssC>
0

>  <NsNH3>
0

>  <NsNH2>
1

>  <NssNH2>
0

>  <NdNH>
0

>  <NssNH>
0

>  <NaaNH>
0

>  <NtN>
0

>  <NsssNH>
0

>  <NdsN>
0

>  <NaaN>
0

>  <NsssN>
0

>  <NddsN>
0

>  <NaasN>
0

>  <NssssN>
0

>  <NsOH>
0

>  <NdO>
2

>  <NssO>
1

>  <NaaO>
0

>  <NsF>
0

>  <NsSiH3>
0

>  <NssSiH2>
0

>  <NsssSiH>
0

>  <NssssSi>
0

>  <NsPH2>
0

>  <NssPH>
0

>  <NsssP>
0

>  <NdsssP>
0

>  <NsssssP>
0

>  <NsSH>
0

>  <NdS>
0

>  <NssS>
0

>  <NaaS>
0

>  <NdssS>
0

>  <NddssS>
1

>  <NsCl>
1

>  <NsBr>
0

>  <NsI>
0

>  <fragCpx>
114.06

>  <fMF>
0.42

>  <nHBAcc>
4

>  <nHBDon>
1

>  <Kier1>
16.84

>  <Kier2>
6.48

>  <Lipinski>
1

>  <GhoseFilter>
1

>  <FilterItLogS>
-4.12

>  <VMcGowan>
234.1

>  <LabuteASA>
134.32

>  <PEOE_VSA1>
10.47

>  <PEOE_VSA2>
0

>  <PEOE_VSA3>
8.42

>  <PEOE_VSA4>
0

>  <PEOE_VSA5>
0

>  <PEOE_VSA6>
23.73

>  <PEOE_VSA7>
41.96

>  <PEOE_VSA8>
16.98

>  <PEOE_VSA9>
17.26

>  <PEOE_VSA10>
5.75

>  <PEOE_VSA11>
9.84

>  <PEOE_VSA12>
0

>  <PEOE_VSA13>
0

>  <SMR_VSA1>
13.15

>  <SMR_VSA2>
0

>  <SMR_VSA3>
0

>  <SMR_VSA4>
5.73

>  <SMR_VSA5>
22.11

>  <SMR_VSA6>
7.11

>  <SMR_VSA7>
59.12

>  <SMR_VSA8>
0

>  <SMR_VSA9>
5.75

>  <SlogP_VSA1>
10.47

>  <SlogP_VSA2>
26.82

>  <SlogP_VSA3>
9.84

>  <SlogP_VSA4>
0

>  <SlogP_VSA5>
11.48

>  <SlogP_VSA6>
53.43

>  <SlogP_VSA7>
5.02

>  <SlogP_VSA8>
0

>  <SlogP_VSA9>
0

>  <SlogP_VSA10>
0

>  <SlogP_VSA11>
5.75

>  <EState_VSA1>
21.13

>  <EState_VSA2>
10.81

>  <EState_VSA3>
5.02

>  <EState_VSA4>
11.31

>  <EState_VSA5>
12.13

>  <EState_VSA6>
19.24

>  <EState_VSA7>
24.27

>  <EState_VSA8>
0

>  <EState_VSA9>
22.07

>  <EState_VSA10>
8.42

>  <VSA_EState1>
30.46

>  <VSA_EState2>
0.26

>  <VSA_EState3>
-0.09

>  <VSA_EState4>
6.94

>  <VSA_EState5>
0.54

>  <VSA_EState6>
13.14

>  <VSA_EState7>
0

>  <VSA_EState8>
0

>  <VSA_EState9>
-1.87

>  <apol>
45.97

>  <bpol>
24.38

>  <nRing>
3

>  <nHRing>
0

>  <naRing>
2

>  <naHRing>
0

>  <nARing 2>
1

>  <nAHRing 2>
0

>  <nFRing>
0

>  <nFHRing>
0

>  <nFaRing>
0

>  <nFaHRing>
0

>  <nFARing 2>
0

>  <nFAHRing 2>
0

>  <nRot>
4

>  <SLogP>
2.62

>  <SMR>
86.14

>  <TopoPSA(NO)>
69.39

>  <TopoPSA>
77.77

>  <JGI1>
0.23

>  <JGI2>
0.12

>  <JGI3>
0.07

>  <JGI4>
0.06

>  <JGI5>
0.04

>  <Diameter>
13

>  <Radius>
7

>  <TMWC10>
122.29

>  <TSRW10>
77.29

>  <MW>
337.05

>  <AMW>
8.87

>  <WPath>
1092

>  <WPol>
35

>  <Zagreb1>
120

>  <Zagreb2>
146

>  <mZagreb2>
4.78

>  <yes>


>  <nAR-cont>
0.816016

>  <nHA-cont>
0.983774276

>  <MWHBN>
0.272347152

>  <MWHBN-cont>
0.914707778

>  <TPSA-cont>
0.457117108

>  <pka_cont>
0.97

>  <yes.1>


>  <BBB_SCORE>
4.571086159

>  <MMFF94 Energy>
72.933

$$$$
Compound 2224
Actelion Java MolfileCreator 2.0

  0  0  0  0  0  0              0 V3000
M  V30 BEGIN CTAB
M  V30 COUNTS 46 48 0 0 0
M  V30 BEGIN ATOM
M  V30 1 Cl -5.539 -4.3967 -1.1385 0
M  V30 2 C -3.9349 -3.9884 -0.6707 0
M  V30 3 C -3.4321 -4.4468 0.5483 0
M  V30 4 C -3.1474 -3.203 -1.5142 0
M  V30 5 C -2.1313 -4.1159 0.9336 0
M  V30 6 C -1.8461 -2.8682 -1.1362 0
M  V30 7 C -1.3493 -3.3217 0.0908 0
M  V30 8 S 0.3061 -2.8777 0.5616 0
M  V30 9 O 0.5835 -3.489 1.8464 0
M  V30 10 O 1.1432 -3.1117 -0.5956 0
M  V30 11 C 0.1683 -1.1057 0.8791 0 CFG=1
M  V30 12 C 1.4138 -0.3668 1.3574 0
M  V30 13 C 0.9018 -0.2167 -0.0853 0 CFG=2
M  V30 14 C 1.1284 0.6793 2.4256 0
M  V30 15 C 2.7465 -1.0802 1.5403 0
M  V30 16 C 0.3399 1.1016 -0.5744 0
M  V30 17 N 2.054 1.8025 2.3349 0
M  V30 18 N 3.8055 -0.2099 1.037 0
M  V30 19 C -1.0201 1.4387 -0.5189 0
M  V30 20 C 1.1936 2.0167 -1.2157 0
M  V30 21 C -1.49 2.6543 -1.0298 0
M  V30 22 C 0.7294 3.2341 -1.7296 0
M  V30 23 C -0.6192 3.5601 -1.6336 0
M  V30 24 O -1.2076 4.7068 -2.0876 0
M  V30 25 C -0.3611 5.6507 -2.732 0
M  V30 26 H -4.0464 -5.0651 1.1985 0
M  V30 27 H -3.5392 -2.8569 -2.4677 0
M  V30 28 H -1.7412 -4.4827 1.881 0
M  V30 29 H -1.2278 -2.2695 -1.8026 0
M  V30 30 H -0.7791 -0.7992 1.2971 0
M  V30 31 H 1.5396 -0.6984 -0.8288 0
M  V30 32 H 0.1041 1.0621 2.3525 0
M  V30 33 H 1.2194 0.2181 3.4155 0
M  V30 34 H 2.8157 -2.0219 0.9952 0
M  V30 35 H 2.9128 -1.3049 2.5997 0
M  V30 36 H 1.9103 2.2601 1.4327 0
M  V30 37 H 1.7943 2.4995 3.0325 0
M  V30 38 H 3.7086 0.6865 1.5302 0
M  V30 39 H 4.7059 -0.5877 1.3246 0
M  V30 40 H -1.7429 0.7578 -0.0791 0
M  V30 41 H 2.2533 1.7756 -1.3078 0
M  V30 42 H -2.5492 2.8921 -0.9632 0
M  V30 43 H 1.4493 3.8947 -2.2007 0
M  V30 44 H 0.4051 6.0264 -2.046 0
M  V30 45 H -0.9795 6.5003 -3.0374 0
M  V30 46 H 0.0893 5.2253 -3.6347 0
M  V30 END ATOM
M  V30 BEGIN BOND
M  V30 1 1 1 2
M  V30 2 2 2 3
M  V30 3 1 2 4
M  V30 4 1 3 5
M  V30 5 2 4 6
M  V30 6 2 5 7
M  V30 7 1 7 8
M  V30 8 2 8 9
M  V30 9 2 8 10
M  V30 10 1 8 11
M  V30 11 1 11 12
M  V30 12 1 11 13
M  V30 13 1 12 14
M  V30 14 1 12 15
M  V30 15 1 13 16
M  V30 16 1 14 17
M  V30 17 1 15 18
M  V30 18 2 16 19
M  V30 19 1 16 20
M  V30 20 1 19 21
M  V30 21 2 20 22
M  V30 22 2 21 23
M  V30 23 1 23 24
M  V30 24 1 24 25
M  V30 25 1 6 7
M  V30 26 1 12 13
M  V30 27 1 22 23
M  V30 28 1 3 26
M  V30 29 1 4 27
M  V30 30 1 5 28
M  V30 31 1 6 29
M  V30 32 1 11 30
M  V30 33 1 13 31
M  V30 34 1 14 32
M  V30 35 1 14 33
M  V30 36 1 15 34
M  V30 37 1 15 35
M  V30 38 1 17 36
M  V30 39 1 17 37
M  V30 40 1 18 38
M  V30 41 1 18 39
M  V30 42 1 19 40
M  V30 43 1 20 41
M  V30 44 1 21 42
M  V30 45 1 22 43
M  V30 46 1 25 44
M  V30 47 1 25 45
M  V30 48 1 25 46
M  V30 END BOND
M  V30 BEGIN COLLECTION
M  V30 MDLV30/STEABS ATOMS=(2 11 13)
M  V30 END COLLECTION
M  V30 END CTAB
M  END
>  <Column 1>
2726

>  <level_0>
3960

>  <index>
3960

>  <Unnamed: 0>
3960

>  <NO.>
3972

>  <Name>
pentobarbital

>  <IUPAC_name>
[(2r-3s)-1-(aminomethyl)-2-(4-chlorophenyl)sulfonyl-3-(4-methoxyphenyl)cyclopropyl]methanamine

>  <SMILES>
COc1ccc([C@@H]2[C@@H](S(=O)(=O)c3ccc(Cl)cc3)C2(CN)CN)cc1

>  <CID>
100004737

>  <logBB>


>  <BBB+/BBB->
BBB+

>  <Inchi>
InChI=1S/C18H21ClN2O3S/c1-24-14-6-2-12(3-7-14)16-17(18(16-10-20)11-21)25(22-23)15-8-4-13(19)5-9-15/h2-9-16-17H-10-11-20-21H2-1H3/t16--17-/m1/s1

>  <threshold>
-1

>  <reference>
R16|R16|R10|

>  <group>
B

>  <Class>
-1

>  <ABC>
19.19

>  <ABCGG>
16.69

>  <nAcid>
0

>  <nBase>
2

>  <nAromAtom>
12

>  <nAromBond>
12

>  <nAtom>
46

>  <nHeavyAtom>
25

>  <nSpiro>
0

>  <nBridgehead>
0

>  <nHetero>
7

>  <nN>
2

>  <nO>
3

>  <nF>
0

>  <BalabanJ>
1.74

>  <BertzCT>
846.89

>  <nBonds>
48

>  <nBondsO>
27

>  <nBondsS>
34

>  <nBondsD>
2

>  <nBondsT>
0

>  <nBondsA>
12

>  <nBondsM>
14

>  <nBondsKS>
40

>  <nBondsKD>
8

>  <RNCG>
0.24

>  <RPCG>
0.09

>  <FCSP3>
0.33

>  <SZ>
33.33

>  <Sm>
31.71

>  <Sv>
29.63

>  <Sse>
46.48

>  <Sp>
32.18

>  <Si>
51.64

>  <MZ>
0.72

>  <Mm>
0.69

>  <Mv>
0.64

>  <Mse>
1.01

>  <Mp>
0.7

>  <Mi>
1.12

>  <NsCH3>
1

>  <NdCH2>
0

>  <NssCH2>
2

>  <NtCH>
0

>  <NdsCH>
0

>  <NaaCH>
8

>  <NsssCH>
2

>  <NddC>
0

>  <NtsC>
0

>  <NdssC>
0

>  <NaasC>
4

>  <NaaaC>
0

>  <NssssC>
1

>  <NsNH3>
0

>  <NsNH2>
2

>  <NssNH2>
0

>  <NdNH>
0

>  <NssNH>
0

>  <NaaNH>
0

>  <NtN>
0

>  <NsssNH>
0

>  <NdsN>
0

>  <NaaN>
0

>  <NsssN>
0

>  <NddsN>
0

>  <NaasN>
0

>  <NssssN>
0

>  <NsOH>
0

>  <NdO>
2

>  <NssO>
1

>  <NaaO>
0

>  <NsF>
0

>  <NsSiH3>
0

>  <NssSiH2>
0

>  <NsssSiH>
0

>  <NssssSi>
0

>  <NsPH2>
0

>  <NssPH>
0

>  <NsssP>
0

>  <NdsssP>
0

>  <NsssssP>
0

>  <NsSH>
0

>  <NdS>
0

>  <NssS>
0

>  <NaaS>
0

>  <NdssS>
0

>  <NddssS>
1

>  <NsCl>
1

>  <NsBr>
0

>  <NsI>
0

>  <fragCpx>
129.07

>  <fMF>
0.35

>  <nHBAcc>
5

>  <nHBDon>
2

>  <Kier1>
19.75

>  <Kier2>
7.55

>  <Lipinski>
1

>  <GhoseFilter>
1

>  <FilterItLogS>
-4.76

>  <VMcGowan>
272.26

>  <LabuteASA>
152.39

>  <PEOE_VSA1>
16.2

>  <PEOE_VSA2>
0

>  <PEOE_VSA3>
8.42

>  <PEOE_VSA4>
0

>  <PEOE_VSA5>
0

>  <PEOE_VSA6>
23.73

>  <PEOE_VSA7>
41.96

>  <PEOE_VSA8>
29.45

>  <PEOE_VSA9>
17.26

>  <PEOE_VSA10>
5.75

>  <PEOE_VSA11>
9.84

>  <PEOE_VSA12>
0

>  <PEOE_VSA13>
0

>  <SMR_VSA1>
13.15

>  <SMR_VSA2>
0

>  <SMR_VSA3>
0

>  <SMR_VSA4>
16.88

>  <SMR_VSA5>
16.06

>  <SMR_VSA6>
20.2

>  <SMR_VSA7>
59.12

>  <SMR_VSA8>
0

>  <SMR_VSA9>
5.75

>  <SlogP_VSA1>
16.2

>  <SlogP_VSA2>
33.87

>  <SlogP_VSA3>
9.84

>  <SlogP_VSA4>
5.41

>  <SlogP_VSA5>
11.48

>  <SlogP_VSA6>
53.43

>  <SlogP_VSA7>
5.02

>  <SlogP_VSA8>
0

>  <SlogP_VSA9>
0

>  <SlogP_VSA10>
0

>  <SlogP_VSA11>
5.75

>  <EState_VSA1>
20.5

>  <EState_VSA2>
23.9

>  <EState_VSA3>
10.77

>  <EState_VSA4>
5.56

>  <EState_VSA5>
12.13

>  <EState_VSA6>
19.24

>  <EState_VSA7>
24.27

>  <EState_VSA8>
0

>  <EState_VSA9>
27.81

>  <EState_VSA10>
8.42

>  <VSA_EState1>
31.5

>  <VSA_EState2>
0.24

>  <VSA_EState3>
-0.16

>  <VSA_EState4>
12.17

>  <VSA_EState5>
0.47

>  <VSA_EState6>
13.59

>  <VSA_EState7>
0

>  <VSA_EState8>
0.41

>  <VSA_EState9>
-1.99

>  <apol>
53.75

>  <bpol>
28.83

>  <nRing>
3

>  <nHRing>
0

>  <naRing>
2

>  <naHRing>
0

>  <nARing 2>
1

>  <nAHRing 2>
0

>  <nFRing>
0

>  <nFHRing>
0

>  <nFaRing>
0

>  <nFaHRing>
0

>  <nFARing 2>
0

>  <nFAHRing 2>
0

>  <nRot>
6

>  <SLogP>
2.19

>  <SMR>
98.7

>  <TopoPSA(NO)>
95.41

>  <TopoPSA>
103.79

>  <JGI1>
0.26

>  <JGI2>
0.13

>  <JGI3>
0.09

>  <JGI4>
0.06

>  <JGI5>
0.03

>  <Diameter>
13

>  <Radius>
7

>  <TMWC10>
130.49

>  <TSRW10>
82.01

>  <MW>
380.1

>  <AMW>
8.26

>  <WPath>
1445

>  <WPol>
43

>  <Zagreb1>
136

>  <Zagreb2>
169

>  <mZagreb2>
5.64

>  <yes>


>  <nAR-cont>
0.816016

>  <nHA-cont>
0.921834225

>  <MWHBN>
0.359045184

>  <MWHBN-cont>
0.636068016

>  <TPSA-cont>
0.27548135

>  <pka_cont>
0.97

>  <yes.1>


>  <BBB_SCORE>
3.72791495

>  <MMFF94 Energy>
46.798

$$$$
Compound 2225
Actelion Java MolfileCreator 2.0

  0  0  0  0  0  0              0 V3000
M  V30 BEGIN CTAB
M  V30 COUNTS 43 45 0 0 0
M  V30 BEGIN ATOM
M  V30 1 S 1.1383 -2.6034 -0.2438 0
M  V30 2 O 1.7266 -3.3628 0.8412 0
M  V30 3 O 1.7828 -2.4595 -1.5335 0
M  V30 4 C -0.4706 -3.3064 -0.5424 0
M  V30 5 C 0.7268 -0.9581 0.3712 0 CFG=1
M  V30 6 C -1.2032 -3.8112 0.5364 0
M  V30 7 C -0.9782 -3.3614 -1.843 0
M  V30 8 C 1.7884 -0.2934 1.2374 0 CFG=2
M  V30 9 C 1.4969 0.1923 -0.2044 0 CFG=2
M  V30 10 C -2.4649 -4.3596 0.3095 0
M  V30 11 C -2.241 -3.9122 -2.0604 0
M  V30 12 C 3.1525 -0.8895 1.4127 0
M  V30 13 C 1.1875 0.4043 2.4407 0
M  V30 14 C 0.8504 1.5339 -0.4637 0
M  V30 15 C -2.9831 -4.4074 -0.986 0
M  V30 16 O 3.8475 -1.3099 0.5028 0
M  V30 17 O 3.587 -0.9412 2.6869 0
M  V30 18 O 0.4725 -0.552 3.22 0
M  V30 19 C 1.502 2.7243 -0.1058 0
M  V30 20 C -0.4474 1.6472 -0.9874 0
M  V30 21 C 0.8914 3.9697 -0.282 0
M  V30 22 C -1.0631 2.8935 -1.167 0
M  V30 23 C -0.3935 4.0622 -0.8143 0
M  V30 24 O -0.8753 5.3358 -0.9326 0
M  V30 25 C -2.1637 5.4842 -1.5159 0
M  V30 26 H -0.308 -0.8131 0.6501 0
M  V30 27 H -0.7979 -3.7856 1.5462 0
M  V30 28 H -0.4011 -2.9879 -2.686 0
M  V30 29 H 2.2458 -0.0581 -0.9574 0
M  V30 30 H -3.0423 -4.7575 1.1407 0
M  V30 31 H -2.645 -3.9637 -3.0687 0
M  V30 32 H 0.4709 1.182 2.1628 0
M  V30 33 H 1.9569 0.8779 3.0595 0
M  V30 34 H -3.965 -4.8415 -1.1606 0
M  V30 35 H 4.428 -1.4399 2.6119 0
M  V30 36 H 0.3762 -0.1706 4.11 0
M  V30 37 H 2.5074 2.6871 0.3092 0
M  V30 38 H -0.9947 0.7518 -1.2755 0
M  V30 39 H 1.4252 4.8752 -0.0034 0
M  V30 40 H -2.0646 2.9111 -1.5835 0
M  V30 41 H -2.1807 5.099 -2.5408 0
M  V30 42 H -2.3902 6.554 -1.5586 0
M  V30 43 H -2.9324 5.0056 -0.9002 0
M  V30 END ATOM
M  V30 BEGIN BOND
M  V30 1 2 1 2
M  V30 2 2 1 3
M  V30 3 1 1 4
M  V30 4 1 1 5
M  V30 5 2 4 6
M  V30 6 1 4 7
M  V30 7 1 5 8
M  V30 8 1 5 9
M  V30 9 1 6 10
M  V30 10 2 7 11
M  V30 11 1 8 12
M  V30 12 1 8 13
M  V30 13 1 9 14
M  V30 14 2 10 15
M  V30 15 2 12 16
M  V30 16 1 12 17
M  V30 17 1 13 18
M  V30 18 2 14 19
M  V30 19 1 14 20
M  V30 20 1 19 21
M  V30 21 2 20 22
M  V30 22 2 21 23
M  V30 23 1 23 24
M  V30 24 1 24 25
M  V30 25 1 8 9
M  V30 26 1 11 15
M  V30 27 1 22 23
M  V30 28 1 5 26
M  V30 29 1 6 27
M  V30 30 1 7 28
M  V30 31 1 9 29
M  V30 32 1 10 30
M  V30 33 1 11 31
M  V30 34 1 13 32
M  V30 35 1 13 33
M  V30 36 1 15 34
M  V30 37 1 17 35
M  V30 38 1 18 36
M  V30 39 1 19 37
M  V30 40 1 20 38
M  V30 41 1 21 39
M  V30 42 1 22 40
M  V30 43 1 25 41
M  V30 44 1 25 42
M  V30 45 1 25 43
M  V30 END BOND
M  V30 BEGIN COLLECTION
M  V30 MDLV30/STEABS ATOMS=(3 5 8 9)
M  V30 END COLLECTION
M  V30 END CTAB
M  END
>  <Column 1>
2727

>  <level_0>
3961

>  <index>
3961

>  <Unnamed: 0>
3961

>  <NO.>
3973

>  <Name>
lomefloxacin

>  <IUPAC_name>
(1s-2r-3s)-2-(benzenesulfonyl)-1-(hydroxymethyl)-3-(4-methoxyphenyl)cyclopropane-1-carboxylic acid

>  <SMILES>
COc1ccc([C@@H]2[C@@H](S(=O)(=O)c3ccccc3)[C@@]2(CO)C(=O)O)cc1

>  <CID>
100003948

>  <logBB>


>  <BBB+/BBB->
BBB-

>  <Inchi>
InChI=1S/C18H18O6S/c1-24-13-9-7-12(8-10-13)15-16(18(15-11-19)17(20)21)25(22-23)14-5-3-2-4-6-14/h2-10-15-16-19H-11H2-1H3-(H-20-21)/t15--16--18+/m1/s1

>  <threshold>
-1

>  <reference>
R16|R10|

>  <group>
B

>  <Class>
-1

>  <ABC>
19.24

>  <ABCGG>
16.97

>  <nAcid>
1

>  <nBase>
0

>  <nAromAtom>
12

>  <nAromBond>
12

>  <nAtom>
43

>  <nHeavyAtom>
25

>  <nSpiro>
0

>  <nBridgehead>
0

>  <nHetero>
7

>  <nN>
0

>  <nO>
6

>  <nF>
0

>  <BalabanJ>
1.8

>  <BertzCT>
875.54

>  <nBonds>
45

>  <nBondsO>
27

>  <nBondsS>
30

>  <nBondsD>
3

>  <nBondsT>
0

>  <nBondsA>
12

>  <nBondsM>
15

>  <nBondsKS>
36

>  <nBondsKD>
9

>  <RNCG>
0.2

>  <RPCG>
0.12

>  <FCSP3>
0.28

>  <SZ>
31.67

>  <Sm>
30.17

>  <Sv>
28.35

>  <Sse>
44.05

>  <Sp>
29.8

>  <Si>
47.91

>  <MZ>
0.74

>  <Mm>
0.7

>  <Mv>
0.66

>  <Mse>
1.02

>  <Mp>
0.69

>  <Mi>
1.11

>  <NsCH3>
1

>  <NdCH2>
0

>  <NssCH2>
1

>  <NtCH>
0

>  <NdsCH>
0

>  <NaaCH>
9

>  <NsssCH>
2

>  <NddC>
0

>  <NtsC>
0

>  <NdssC>
1

>  <NaasC>
3

>  <NaaaC>
0

>  <NssssC>
1

>  <NsNH3>
0

>  <NsNH2>
0

>  <NssNH2>
0

>  <NdNH>
0

>  <NssNH>
0

>  <NaaNH>
0

>  <NtN>
0

>  <NsssNH>
0

>  <NdsN>
0

>  <NaaN>
0

>  <NsssN>
0

>  <NddsN>
0

>  <NaasN>
0

>  <NssssN>
0

>  <NsOH>
2

>  <NdO>
3

>  <NssO>
1

>  <NaaO>
0

>  <NsF>
0

>  <NsSiH3>
0

>  <NssSiH2>
0

>  <NsssSiH>
0

>  <NssssSi>
0

>  <NsPH2>
0

>  <NssPH>
0

>  <NsssP>
0

>  <NdsssP>
0

>  <NsssssP>
0

>  <NsSH>
0

>  <NdS>
0

>  <NssS>
0

>  <NaaS>
0

>  <NdssS>
0

>  <NddssS>
1

>  <NsCl>
0

>  <NsBr>
0

>  <NsI>
0

>  <fragCpx>
129.07

>  <fMF>
0.37

>  <nHBAcc>
5

>  <nHBDon>
2

>  <Kier1>
19.75

>  <Kier2>
7.55

>  <Lipinski>
1

>  <GhoseFilter>
1

>  <FilterItLogS>
-3.12

>  <VMcGowan>
253.37

>  <LabuteASA>
145.16

>  <PEOE_VSA1>
14.95

>  <PEOE_VSA2>
4.79

>  <PEOE_VSA3>
8.42

>  <PEOE_VSA4>
0

>  <PEOE_VSA5>
0

>  <PEOE_VSA6>
30.33

>  <PEOE_VSA7>
29.83

>  <PEOE_VSA8>
5.92

>  <PEOE_VSA9>
23.86

>  <PEOE_VSA10>
11.16

>  <PEOE_VSA11>
9.84

>  <PEOE_VSA12>
0

>  <PEOE_VSA13>
0

>  <SMR_VSA1>
28.16

>  <SMR_VSA2>
0

>  <SMR_VSA3>
0

>  <SMR_VSA4>
5.41

>  <SMR_VSA5>
16.06

>  <SMR_VSA6>
13.72

>  <SMR_VSA7>
60.16

>  <SMR_VSA8>
0

>  <SMR_VSA9>
5.75

>  <SlogP_VSA1>
4.74

>  <SlogP_VSA2>
43.57

>  <SlogP_VSA3>
14.63

>  <SlogP_VSA4>
5.41

>  <SlogP_VSA5>
11.48

>  <SlogP_VSA6>
59.49

>  <SlogP_VSA7>
0

>  <SlogP_VSA8>
0

>  <SlogP_VSA9>
0

>  <SlogP_VSA10>
0

>  <SlogP_VSA11>
5.75

>  <EState_VSA1>
39

>  <EState_VSA2>
4.9

>  <EState_VSA3>
11.31

>  <EState_VSA4>
0

>  <EState_VSA5>
19.24

>  <EState_VSA6>
42.46

>  <EState_VSA7>
0

>  <EState_VSA8>
0

>  <EState_VSA9>
4.74

>  <EState_VSA10>
23.43

>  <VSA_EState1>
31.04

>  <VSA_EState2>
11.91

>  <VSA_EState3>
18.21

>  <VSA_EState4>
-1.2

>  <VSA_EState5>
-1.57

>  <VSA_EState6>
14.27

>  <VSA_EState7>
0

>  <VSA_EState8>
-0.75

>  <VSA_EState9>
-2.41

>  <apol>
49.77

>  <bpol>
27.32

>  <nRing>
3

>  <nHRing>
0

>  <naRing>
2

>  <naHRing>
0

>  <nARing 2>
1

>  <nAHRing 2>
0

>  <nFRing>
0

>  <nFHRing>
0

>  <nFaRing>
0

>  <nFaHRing>
0

>  <nFARing 2>
0

>  <nFAHRing 2>
0

>  <nRot>
6

>  <SLogP>
1.7

>  <SMR>
90.31

>  <TopoPSA(NO)>
100.9

>  <TopoPSA>
109.28

>  <JGI1>
0.24

>  <JGI2>
0.13

>  <JGI3>
0.09

>  <JGI4>
0.06

>  <JGI5>
0.03

>  <Diameter>
12

>  <Radius>
6

>  <TMWC10>
130.78

>  <TSRW10>
82.12

>  <MW>
362.08

>  <AMW>
8.42

>  <WPath>
1398

>  <WPol>
44

>  <Zagreb1>
136

>  <Zagreb2>
170

>  <mZagreb2>
5.6

>  <yes>


>  <nAR-cont>
0.816016

>  <nHA-cont>
0.921834225

>  <MWHBN>
0.367871185

>  <MWHBN-cont>
0.602122831

>  <TPSA-cont>
0.237157741

>  <pka_cont>
0.97

>  <yes.1>


>  <BBB_SCORE>
3.600349953

>  <MMFF94 Energy>
17.644

$$$$
Compound 2226
Actelion Java MolfileCreator 2.0

  0  0  0  0  0  0              0 V3000
M  V30 BEGIN CTAB
M  V30 COUNTS 43 45 0 0 0
M  V30 BEGIN ATOM
M  V30 1 S 0.4843 -2.828 0.0 0
M  V30 2 O -0.2019 -3.8928 0.7056 0
M  V30 3 O 1.9283 -2.7128 0.0434 0
M  V30 4 C 0.0126 -2.8998 -1.7085 0
M  V30 5 C -0.2656 -1.2879 0.5587 0 CFG=1
M  V30 6 C -1.0248 -3.7428 -2.1133 0
M  V30 7 C 0.7018 -2.112 -2.6357 0
M  V30 8 C 0.0367 -0.8614 1.9814 0 CFG=1
M  V30 9 C 0.698 -0.1536 0.7929 0 CFG=2
M  V30 10 C -1.3867 -3.7814 -3.4597 0
M  V30 11 C 0.3328 -2.1568 -3.9794 0
M  V30 12 N -1.1016 -0.1801 2.6874 0
M  V30 13 C 0.9586 -1.6815 2.8887 0
M  V30 14 C 0.3394 1.2637 0.3984 0
M  V30 15 C -0.7111 -2.9882 -4.3893 0
M  V30 16 N 1.1639 -0.9607 4.1502 0
M  V30 17 C -0.3277 1.5615 -0.7993 0
M  V30 18 C 0.6109 2.3379 1.262 0
M  V30 19 C -0.6803 2.8749 -1.1279 0
M  V30 20 C 0.2595 3.655 0.9383 0
M  V30 21 C -0.3879 3.9288 -0.263 0
M  V30 22 O -0.7855 5.1605 -0.7037 0
M  V30 23 C -0.5184 6.2641 0.1522 0
M  V30 24 H -1.2595 -1.084 0.1854 0
M  V30 25 H -1.552 -4.3685 -1.3965 0
M  V30 26 H 1.5241 -1.4715 -2.3237 0
M  V30 27 H 1.7592 -0.3585 0.6604 0
M  V30 28 H -2.1932 -4.4334 -3.7873 0
M  V30 29 H 0.8621 -1.5496 -4.7101 0
M  V30 30 H -0.6937 0.4983 3.3346 0
M  V30 31 H -1.6033 -0.8504 3.2675 0
M  V30 32 H 1.938 -1.8481 2.4328 0
M  V30 33 H 0.5062 -2.6552 3.1029 0
M  V30 34 H -0.9945 -3.0241 -5.4388 0
M  V30 35 H 1.8542 -1.4721 4.7001 0
M  V30 36 H 0.3013 -1.0044 4.6893 0
M  V30 37 H -0.5773 0.7671 -1.4977 0
M  V30 38 H 1.1104 2.1428 2.2099 0
M  V30 39 H -1.1918 3.0753 -2.066 0
M  V30 40 H 0.5046 4.4356 1.6501 0
M  V30 41 H -1.0435 6.1595 1.1074 0
M  V30 42 H -0.8967 7.1665 -0.3378 0
M  V30 43 H 0.558 6.3945 0.3042 0
M  V30 END ATOM
M  V30 BEGIN BOND
M  V30 1 2 1 2
M  V30 2 2 1 3
M  V30 3 1 1 4
M  V30 4 1 1 5
M  V30 5 2 4 6
M  V30 6 1 4 7
M  V30 7 1 5 8
M  V30 8 1 5 9
M  V30 9 1 6 10
M  V30 10 2 7 11
M  V30 11 1 8 12
M  V30 12 1 8 13
M  V30 13 1 9 14
M  V30 14 2 10 15
M  V30 15 1 13 16
M  V30 16 2 14 17
M  V30 17 1 14 18
M  V30 18 1 17 19
M  V30 19 2 18 20
M  V30 20 2 19 21
M  V30 21 1 21 22
M  V30 22 1 22 23
M  V30 23 1 8 9
M  V30 24 1 11 15
M  V30 25 1 20 21
M  V30 26 1 5 24
M  V30 27 1 6 25
M  V30 28 1 7 26
M  V30 29 1 9 27
M  V30 30 1 10 28
M  V30 31 1 11 29
M  V30 32 1 12 30
M  V30 33 1 12 31
M  V30 34 1 13 32
M  V30 35 1 13 33
M  V30 36 1 15 34
M  V30 37 1 16 35
M  V30 38 1 16 36
M  V30 39 1 17 37
M  V30 40 1 18 38
M  V30 41 1 19 39
M  V30 42 1 20 40
M  V30 43 1 23 41
M  V30 44 1 23 42
M  V30 45 1 23 43
M  V30 END BOND
M  V30 BEGIN COLLECTION
M  V30 MDLV30/STEABS ATOMS=(3 5 8 9)
M  V30 END COLLECTION
M  V30 END CTAB
M  END
>  <Column 1>
2728

>  <level_0>
3962

>  <index>
3962

>  <Unnamed: 0>
3962

>  <NO.>
3974

>  <Name>
labetalol

>  <IUPAC_name>
(1s-2r-3s)-1-(aminomethyl)-2-(benzenesulfonyl)-3-(4-methoxyphenyl)cyclopropan-1-amine

>  <SMILES>
COc1ccc([C@@H]2[C@@H](S(=O)(=O)c3ccccc3)[C@@]2(N)CN)cc1

>  <CID>
100003869

>  <logBB>


>  <BBB+/BBB->
BBB-

>  <Inchi>
InChI=1S/C17H20N2O3S/c1-22-13-9-7-12(8-10-13)15-16(17(15-19)11-18)23(20-21)14-5-3-2-4-6-14/h2-10-15-16H-11-18-19H2-1H3/t15--16--17-/m1/s1

>  <threshold>
-1

>  <reference>
R16|R10|R10|

>  <group>
B

>  <Class>
-1

>  <ABC>
17.83

>  <ABCGG>
15.56

>  <nAcid>
0

>  <nBase>
2

>  <nAromAtom>
12

>  <nAromBond>
12

>  <nAtom>
43

>  <nHeavyAtom>
23

>  <nSpiro>
0

>  <nBridgehead>
0

>  <nHetero>
6

>  <nN>
2

>  <nO>
3

>  <nF>
0

>  <BalabanJ>
1.71

>  <BertzCT>
790.35

>  <nBonds>
45

>  <nBondsO>
25

>  <nBondsS>
31

>  <nBondsD>
2

>  <nBondsT>
0

>  <nBondsA>
12

>  <nBondsM>
14

>  <nBondsKS>
37

>  <nBondsKD>
8

>  <RNCG>
0.24

>  <RPCG>
0.09

>  <FCSP3>
0.29

>  <SZ>
29.33

>  <Sm>
27.68

>  <Sv>
27.27

>  <Sse>
43.27

>  <Sp>
29.48

>  <Si>
48.28

>  <MZ>
0.68

>  <Mm>
0.64

>  <Mv>
0.63

>  <Mse>
1.01

>  <Mp>
0.69

>  <Mi>
1.12

>  <NsCH3>
1

>  <NdCH2>
0

>  <NssCH2>
1

>  <NtCH>
0

>  <NdsCH>
0

>  <NaaCH>
9

>  <NsssCH>
2

>  <NddC>
0

>  <NtsC>
0

>  <NdssC>
0

>  <NaasC>
3

>  <NaaaC>
0

>  <NssssC>
1

>  <NsNH3>
0

>  <NsNH2>
2

>  <NssNH2>
0

>  <NdNH>
0

>  <NssNH>
0

>  <NaaNH>
0

>  <NtN>
0

>  <NsssNH>
0

>  <NdsN>
0

>  <NaaN>
0

>  <NsssN>
0

>  <NddsN>
0

>  <NaasN>
0

>  <NssssN>
0

>  <NsOH>
0

>  <NdO>
2

>  <NssO>
1

>  <NaaO>
0

>  <NsF>
0

>  <NsSiH3>
0

>  <NssSiH2>
0

>  <NsssSiH>
0

>  <NssssSi>
0

>  <NsPH2>
0

>  <NssPH>
0

>  <NsssP>
0

>  <NdsssP>
0

>  <NsssssP>
0

>  <NsSH>
0

>  <NdS>
0

>  <NssS>
0

>  <NaaS>
0

>  <NdssS>
0

>  <NddssS>
1

>  <NsCl>
0

>  <NsBr>
0

>  <NsI>
0

>  <fragCpx>
119.06

>  <fMF>
0.37

>  <nHBAcc>
5

>  <nHBDon>
2

>  <Kier1>
17.81

>  <Kier2>
6.72

>  <Lipinski>
1

>  <GhoseFilter>
1

>  <FilterItLogS>
-3.62

>  <VMcGowan>
245.93

>  <LabuteASA>
135.73

>  <PEOE_VSA1>
16.2

>  <PEOE_VSA2>
0

>  <PEOE_VSA3>
8.42

>  <PEOE_VSA4>
0

>  <PEOE_VSA5>
0

>  <PEOE_VSA6>
30.33

>  <PEOE_VSA7>
29.83

>  <PEOE_VSA8>
12.46

>  <PEOE_VSA9>
22.79

>  <PEOE_VSA10>
5.75

>  <PEOE_VSA11>
9.84

>  <PEOE_VSA12>
0

>  <PEOE_VSA13>
0

>  <SMR_VSA1>
13.15

>  <SMR_VSA2>
0

>  <SMR_VSA3>
0

>  <SMR_VSA4>
11.47

>  <SMR_VSA5>
21.6

>  <SMR_VSA6>
13.65

>  <SMR_VSA7>
60.16

>  <SMR_VSA8>
0

>  <SMR_VSA9>
5.75

>  <SlogP_VSA1>
16.2

>  <SlogP_VSA2>
32.86

>  <SlogP_VSA3>
9.84

>  <SlogP_VSA4>
0

>  <SlogP_VSA5>
11.48

>  <SlogP_VSA6>
59.49

>  <SlogP_VSA7>
0

>  <SlogP_VSA8>
0

>  <SlogP_VSA9>
0

>  <SlogP_VSA10>
0

>  <SlogP_VSA11>
5.75

>  <EState_VSA1>
20.63

>  <EState_VSA2>
17.36

>  <EState_VSA3>
5.75

>  <EState_VSA4>
5.56

>  <EState_VSA5>
0

>  <EState_VSA6>
49.57

>  <EState_VSA7>
12.13

>  <EState_VSA8>
0

>  <EState_VSA9>
16.2

>  <EState_VSA10>
8.42

>  <VSA_EState1>
30.97

>  <VSA_EState2>
0.28

>  <VSA_EState3>
-0.71

>  <VSA_EState4>
12.05

>  <VSA_EState5>
0.4

>  <VSA_EState6>
15.68

>  <VSA_EState7>
0

>  <VSA_EState8>
0.11

>  <VSA_EState9>
-1.95

>  <apol>
49.23

>  <bpol>
27.32

>  <nRing>
3

>  <nHRing>
0

>  <naRing>
2

>  <naHRing>
0

>  <nARing 2>
1

>  <nAHRing 2>
0

>  <nFRing>
0

>  <nFHRing>
0

>  <nFaRing>
0

>  <nFaHRing>
0

>  <nFARing 2>
0

>  <nFAHRing 2>
0

>  <nRot>
5

>  <SLogP>
1.29

>  <SMR>
89.12

>  <TopoPSA(NO)>
95.41

>  <TopoPSA>
103.79

>  <JGI1>
0.24

>  <JGI2>
0.13

>  <JGI3>
0.09

>  <JGI4>
0.05

>  <JGI5>
0.03

>  <Diameter>
12

>  <Radius>
6

>  <TMWC10>
125.7

>  <TSRW10>
79.56

>  <MW>
332.12

>  <AMW>
7.72

>  <WPath>
1158

>  <WPol>
38

>  <Zagreb1>
126

>  <Zagreb2>
156

>  <mZagreb2>
5.1

>  <yes>


>  <nAR-cont>
0.816016

>  <nHA-cont>
0.967789328

>  <MWHBN>
0.3841055

>  <MWHBN-cont>
0.538674842

>  <TPSA-cont>
0.27548135

>  <pka_cont>
0.97

>  <yes.1>


>  <BBB_SCORE>
3.627780292

>  <MMFF94 Energy>
70.81

$$$$
Compound 2227
Actelion Java MolfileCreator 2.0

  0  0  0  0  0  0              0 V3000
M  V30 BEGIN CTAB
M  V30 COUNTS 40 42 0 0 0
M  V30 BEGIN ATOM
M  V30 1 Cl -0.6617 0.5789 -5.718 0
M  V30 2 C 0.0886 0.1197 -4.2398 0
M  V30 3 C 0.7052 -1.1284 -4.1358 0
M  V30 4 C 0.0789 0.999 -3.1566 0
M  V30 5 C 1.3111 -1.5074 -2.9358 0
M  V30 6 C 0.6846 0.6271 -1.955 0
M  V30 7 C 1.2828 -0.6318 -1.8454 0
M  V30 8 S 2.0601 -1.1093 -0.3226 0
M  V30 9 O 3.1967 -1.9494 -0.6585 0
M  V30 10 O 2.2592 0.0808 0.473 0
M  V30 11 C 0.8807 -2.2354 0.4369 0 CFG=2
M  V30 12 C -0.2125 -1.7314 1.3374 0 CFG=1
M  V30 13 C 0.9857 -2.4463 1.926 0 CFG=2
M  V30 14 C -0.6526 -0.2844 1.3106 0
M  V30 15 C 2.0098 -1.9022 2.8307 0
M  V30 16 C -1.835 0.0338 0.6069 0
M  V30 17 C -0.0883 0.7639 2.0445 0
M  V30 18 S 1.571 -1.5625 4.3964 0
M  V30 19 N 3.3111 -1.8917 2.4361 0
M  V30 20 C -2.3778 1.3266 0.5755 0
M  V30 21 C -0.6196 2.0617 2.0172 0
M  V30 22 C -1.7635 2.3529 1.2805 0
M  V30 23 O -2.1725 3.6547 1.3358 0
M  V30 24 C -3.3572 3.9881 0.6239 0
M  V30 25 H 0.723 -1.804 -4.9875 0
M  V30 26 H -0.3916 1.9756 -3.2416 0
M  V30 27 H 1.8062 -2.4735 -2.8655 0
M  V30 28 H 0.6835 1.3224 -1.1166 0
M  V30 29 H 0.6585 -3.1079 -0.1644 0
M  V30 30 H -1.0932 -2.3831 1.3635 0
M  V30 31 H 0.7768 -3.4808 2.2144 0
M  V30 32 H -2.3535 -0.7482 0.0531 0
M  V30 33 H 0.8099 0.6132 2.6333 0
M  V30 34 H 4.0144 -1.5514 3.0818 0
M  V30 35 H 3.6423 -2.1702 1.5175 0
M  V30 36 H -3.2809 1.4882 -0.0028 0
M  V30 37 H -0.1271 2.8486 2.5844 0
M  V30 38 H -3.2307 3.8234 -0.4511 0
M  V30 39 H -3.5506 5.0543 0.7768 0
M  V30 40 H -4.2193 3.4344 1.0103 0
M  V30 END ATOM
M  V30 BEGIN BOND
M  V30 1 1 1 2
M  V30 2 2 2 3
M  V30 3 1 2 4
M  V30 4 1 3 5
M  V30 5 2 4 6
M  V30 6 2 5 7
M  V30 7 1 7 8
M  V30 8 2 8 9
M  V30 9 2 8 10
M  V30 10 1 8 11
M  V30 11 1 11 12
M  V30 12 1 11 13
M  V30 13 1 12 14
M  V30 14 1 13 15
M  V30 15 2 14 16
M  V30 16 1 14 17
M  V30 17 2 15 18
M  V30 18 1 15 19
M  V30 19 1 16 20
M  V30 20 2 17 21
M  V30 21 2 20 22
M  V30 22 1 22 23
M  V30 23 1 23 24
M  V30 24 1 6 7
M  V30 25 1 12 13
M  V30 26 1 21 22
M  V30 27 1 3 25
M  V30 28 1 4 26
M  V30 29 1 5 27
M  V30 30 1 6 28
M  V30 31 1 11 29
M  V30 32 1 12 30
M  V30 33 1 13 31
M  V30 34 1 16 32
M  V30 35 1 17 33
M  V30 36 1 19 34
M  V30 37 1 19 35
M  V30 38 1 20 36
M  V30 39 1 21 37
M  V30 40 1 24 38
M  V30 41 1 24 39
M  V30 42 1 24 40
M  V30 END BOND
M  V30 BEGIN COLLECTION
M  V30 MDLV30/STEABS ATOMS=(3 11 12 13)
M  V30 END COLLECTION
M  V30 END CTAB
M  END
>  <Column 1>
2729

>  <level_0>
3963

>  <index>
3963

>  <Unnamed: 0>
3963

>  <NO.>
3975

>  <Name>
ephedrine

>  <IUPAC_name>
(1s-2r-3s)-2-(4-chlorophenyl)sulfonyl-3-(4-methoxyphenyl)cyclopropane-1-carbothioamide

>  <SMILES>
COc1ccc([C@@H]2[C@H](C(N)=S)[C@@H]2S(=O)(=O)c2ccc(Cl)cc2)cc1

>  <CID>
100005032

>  <logBB>


>  <BBB+/BBB->
BBB-

>  <Inchi>
InChI=1S/C17H16ClNO3S2/c1-22-12-6-2-10(3-7-12)14-15(17(19)23)16(14)24(20-21)13-8-4-11(18)5-9-13/h2-9-14-16H-1H3-(H2-19-23)/t14--15+-16-/m1/s1

>  <threshold>
-1

>  <reference>
R16|R10|R10|

>  <group>
B

>  <Class>
-1

>  <ABC>
18.71

>  <ABCGG>
15.96

>  <nAcid>
0

>  <nBase>
0

>  <nAromAtom>
12

>  <nAromBond>
12

>  <nAtom>
40

>  <nHeavyAtom>
24

>  <nSpiro>
0

>  <nBridgehead>
0

>  <nHetero>
7

>  <nN>
1

>  <nO>
3

>  <nF>
0

>  <BalabanJ>
1.67

>  <BertzCT>
863.71

>  <nBonds>
42

>  <nBondsO>
26

>  <nBondsS>
27

>  <nBondsD>
3

>  <nBondsT>
0

>  <nBondsA>
12

>  <nBondsM>
15

>  <nBondsKS>
33

>  <nBondsKD>
9

>  <RNCG>
0.27

>  <RPCG>
0.1

>  <FCSP3>
0.24

>  <SZ>
33

>  <Sm>
31.79

>  <Sv>
27.7

>  <Sse>
40.68

>  <Sp>
30.27

>  <Si>
44.23

>  <MZ>
0.83

>  <Mm>
0.79

>  <Mv>
0.69

>  <Mse>
1.02

>  <Mp>
0.76

>  <Mi>
1.11

>  <NsCH3>
1

>  <NdCH2>
0

>  <NssCH2>
0

>  <NtCH>
0

>  <NdsCH>
0

>  <NaaCH>
8

>  <NsssCH>
3

>  <NddC>
0

>  <NtsC>
0

>  <NdssC>
1

>  <NaasC>
4

>  <NaaaC>
0

>  <NssssC>
0

>  <NsNH3>
0

>  <NsNH2>
1

>  <NssNH2>
0

>  <NdNH>
0

>  <NssNH>
0

>  <NaaNH>
0

>  <NtN>
0

>  <NsssNH>
0

>  <NdsN>
0

>  <NaaN>
0

>  <NsssN>
0

>  <NddsN>
0

>  <NaasN>
0

>  <NssssN>
0

>  <NsOH>
0

>  <NdO>
2

>  <NssO>
1

>  <NaaO>
0

>  <NsF>
0

>  <NsSiH3>
0

>  <NssSiH2>
0

>  <NsssSiH>
0

>  <NssssSi>
0

>  <NsPH2>
0

>  <NssPH>
0

>  <NsssP>
0

>  <NdsssP>
0

>  <NsssssP>
0

>  <NsSH>
0

>  <NdS>
1

>  <NssS>
0

>  <NaaS>
0

>  <NdssS>
0

>  <NddssS>
1

>  <NsCl>
1

>  <NsBr>
0

>  <NsI>
0

>  <fragCpx>
124.07

>  <fMF>
0.4

>  <nHBAcc>
4

>  <nHBDon>
1

>  <Kier1>
18.78

>  <Kier2>
7.32

>  <Lipinski>
1

>  <GhoseFilter>
1

>  <FilterItLogS>
-4.24

>  <VMcGowan>
260.24

>  <LabuteASA>
151.05

>  <PEOE_VSA1>
10.47

>  <PEOE_VSA2>
0

>  <PEOE_VSA3>
8.42

>  <PEOE_VSA4>
0

>  <PEOE_VSA5>
0

>  <PEOE_VSA6>
35.95

>  <PEOE_VSA7>
41.96

>  <PEOE_VSA8>
16.86

>  <PEOE_VSA9>
22.24

>  <PEOE_VSA10>
5.75

>  <PEOE_VSA11>
9.84

>  <PEOE_VSA12>
0

>  <PEOE_VSA13>
0

>  <SMR_VSA1>
13.15

>  <SMR_VSA2>
0

>  <SMR_VSA3>
0

>  <SMR_VSA4>
11.65

>  <SMR_VSA5>
16.06

>  <SMR_VSA6>
7.11

>  <SMR_VSA7>
59.12

>  <SMR_VSA8>
0

>  <SMR_VSA9>
5.75

>  <SlogP_VSA1>
10.47

>  <SlogP_VSA2>
25.77

>  <SlogP_VSA3>
9.84

>  <SlogP_VSA4>
5.92

>  <SlogP_VSA5>
11.48

>  <SlogP_VSA6>
53.43

>  <SlogP_VSA7>
5.02

>  <SlogP_VSA8>
0

>  <SlogP_VSA9>
0

>  <SlogP_VSA10>
0

>  <SlogP_VSA11>
5.75

>  <EState_VSA1>
15.09

>  <EState_VSA2>
21.72

>  <EState_VSA3>
10.77

>  <EState_VSA4>
5.56

>  <EState_VSA5>
12.13

>  <EState_VSA6>
31.38

>  <EState_VSA7>
12.13

>  <EState_VSA8>
0

>  <EState_VSA9>
34.29

>  <EState_VSA10>
8.42

>  <VSA_EState1>
31.03

>  <VSA_EState2>
0.45

>  <VSA_EState3>
-0.16

>  <VSA_EState4>
6.68

>  <VSA_EState5>
0.1

>  <VSA_EState6>
13.46

>  <VSA_EState7>
0

>  <VSA_EState8>
0

>  <VSA_EState9>
-1.97

>  <apol>
50.54

>  <bpol>
25.61

>  <nRing>
3

>  <nHRing>
0

>  <naRing>
2

>  <naHRing>
0

>  <nARing 2>
1

>  <nAHRing 2>
0

>  <nFRing>
0

>  <nFHRing>
0

>  <nFaRing>
0

>  <nFaHRing>
0

>  <nFARing 2>
0

>  <nFAHRing 2>
0

>  <nRot>
5

>  <SLogP>
3.19

>  <SMR>
98.44

>  <TopoPSA(NO)>
69.39

>  <TopoPSA>
109.86

>  <JGI1>
0.23

>  <JGI2>
0.11

>  <JGI3>
0.08

>  <JGI4>
0.06

>  <JGI5>
0.04

>  <Diameter>
13

>  <Radius>
7

>  <TMWC10>
127.26

>  <TSRW10>
79.85

>  <MW>
381.03

>  <AMW>
9.53

>  <WPath>
1336

>  <WPol>
39

>  <Zagreb1>
130

>  <Zagreb2>
158

>  <mZagreb2>
5.22

>  <yes>


>  <nAR-cont>
0.816016

>  <nHA-cont>
0.94700071

>  <MWHBN>
0.256147675

>  <MWHBN-cont>
0.948850916

>  <TPSA-cont>
0.233108981

>  <pka_cont>
0.97

>  <yes.1>


>  <BBB_SCORE>
4.137511046

>  <MMFF94 Energy>
43.134

$$$$
Compound 2228
Actelion Java MolfileCreator 2.0

  0  0  0  0  0  0              0 V3000
M  V30 BEGIN CTAB
M  V30 COUNTS 40 42 0 0 0
M  V30 BEGIN ATOM
M  V30 1 S 1.7182 -0.6543 -1.1452 0
M  V30 2 O 3.0635 -1.1139 -1.4274 0
M  V30 3 O 1.4846 0.5719 -0.4086 0
M  V30 4 C 0.8962 -0.4986 -2.7142 0
M  V30 5 C 0.8719 -2.0327 -0.3601 0 CFG=2
M  V30 6 C 1.1029 -1.4782 -3.6907 0
M  V30 7 C 0.0849 0.609 -2.9735 0
M  V30 8 C -0.1038 -1.8639 0.7718 0 CFG=1
M  V30 9 C 1.2959 -2.3671 1.0528 0 CFG=2
M  V30 10 C 0.4635 -1.3614 -4.9245 0
M  V30 11 C -0.5515 0.7175 -4.2097 0
M  V30 12 C -0.7257 -0.5805 1.2485 0
M  V30 13 C 2.3572 -1.6779 1.8279 0
M  V30 14 C -0.3658 -0.268 -5.1808 0
M  V30 15 C -0.5553 -0.1025 2.5577 0
M  V30 16 C -1.4919 0.2147 0.3819 0
M  V30 17 S 3.4149 -2.6384 2.6809 0
M  V30 18 N 2.472 -0.3282 1.8748 0
M  V30 19 C -1.111 1.1121 2.9834 0
M  V30 20 C -2.0511 1.4267 0.8004 0
M  V30 21 C -1.8604 1.8851 2.1021 0
M  V30 22 O -2.4571 3.0822 2.3832 0
M  V30 23 C -2.2501 3.6111 3.6871 0
M  V30 24 H 0.7183 -2.8798 -1.0175 0
M  V30 25 H 1.7666 -2.3201 -3.5064 0
M  V30 26 H -0.0518 1.3914 -2.2297 0
M  V30 27 H -0.851 -2.6632 0.8103 0
M  V30 28 H 1.3072 -3.4463 1.237 0
M  V30 29 H 0.6191 -2.1154 -5.6926 0
M  V30 30 H -1.1851 1.5758 -4.4215 0
M  V30 31 H -0.8582 -0.176 -6.1464 0
M  V30 32 H 0.0172 -0.6873 3.2758 0
M  V30 33 H -1.6751 -0.1151 -0.6374 0
M  V30 34 H 3.2285 0.0929 2.3992 0
M  V30 35 H 1.8866 0.3117 1.3356 0
M  V30 36 H -0.9371 1.4181 4.0095 0
M  V30 37 H -2.6399 2.0175 0.1031 0
M  V30 38 H -2.6817 2.956 4.4511 0
M  V30 39 H -2.7677 4.5736 3.7434 0
M  V30 40 H -1.187 3.7932 3.8761 0
M  V30 END ATOM
M  V30 BEGIN BOND
M  V30 1 2 1 2
M  V30 2 2 1 3
M  V30 3 1 1 4
M  V30 4 1 1 5
M  V30 5 2 4 6
M  V30 6 1 4 7
M  V30 7 1 5 8
M  V30 8 1 5 9
M  V30 9 1 6 10
M  V30 10 2 7 11
M  V30 11 1 8 12
M  V30 12 1 9 13
M  V30 13 2 10 14
M  V30 14 2 12 15
M  V30 15 1 12 16
M  V30 16 2 13 17
M  V30 17 1 13 18
M  V30 18 1 15 19
M  V30 19 2 16 20
M  V30 20 2 19 21
M  V30 21 1 21 22
M  V30 22 1 22 23
M  V30 23 1 8 9
M  V30 24 1 11 14
M  V30 25 1 20 21
M  V30 26 1 5 24
M  V30 27 1 6 25
M  V30 28 1 7 26
M  V30 29 1 8 27
M  V30 30 1 9 28
M  V30 31 1 10 29
M  V30 32 1 11 30
M  V30 33 1 14 31
M  V30 34 1 15 32
M  V30 35 1 16 33
M  V30 36 1 18 34
M  V30 37 1 18 35
M  V30 38 1 19 36
M  V30 39 1 20 37
M  V30 40 1 23 38
M  V30 41 1 23 39
M  V30 42 1 23 40
M  V30 END BOND
M  V30 BEGIN COLLECTION
M  V30 MDLV30/STEABS ATOMS=(3 5 8 9)
M  V30 END COLLECTION
M  V30 END CTAB
M  END
>  <Column 1>
2730

>  <level_0>
3964

>  <index>
3964

>  <Unnamed: 0>
3964

>  <NO.>
3976

>  <Name>
methotrexate

>  <IUPAC_name>
(1s-2r-3s)-2-(benzenesulfonyl)-3-(4-methoxyphenyl)cyclopropane-1-carbothioamide

>  <SMILES>
COc1ccc([C@@H]2[C@H](C(N)=S)[C@@H]2S(=O)(=O)c2ccccc2)cc1

>  <CID>
100004112

>  <logBB>


>  <BBB+/BBB->
BBB-

>  <Inchi>
InChI=1S/C17H17NO3S2/c1-21-12-9-7-11(8-10-12)14-15(17(18)22)16(14)23(19-20)13-5-3-2-4-6-13/h2-10-14-16H-1H3-(H2-18-22)/t14--15+-16-/m1/s1

>  <threshold>
-1

>  <reference>
R16|R16|R10|R10|

>  <group>
B

>  <Class>
1

>  <ABC>
17.89

>  <ABCGG>
15.45

>  <nAcid>
0

>  <nBase>
0

>  <nAromAtom>
12

>  <nAromBond>
12

>  <nAtom>
40

>  <nHeavyAtom>
23

>  <nSpiro>
0

>  <nBridgehead>
0

>  <nHetero>
6

>  <nN>
1

>  <nO>
3

>  <nF>
0

>  <BalabanJ>
1.68

>  <BertzCT>
816.68

>  <nBonds>
42

>  <nBondsO>
25

>  <nBondsS>
27

>  <nBondsD>
3

>  <nBondsT>
0

>  <nBondsA>
12

>  <nBondsM>
15

>  <nBondsKS>
33

>  <nBondsKD>
9

>  <RNCG>
0.27

>  <RPCG>
0.1

>  <FCSP3>
0.24

>  <SZ>
30.33

>  <Sm>
28.93

>  <Sv>
26.88

>  <Sse>
40.36

>  <Sp>
29.36

>  <Si>
44.29

>  <MZ>
0.76

>  <Mm>
0.72

>  <Mv>
0.67

>  <Mse>
1.01

>  <Mp>
0.73

>  <Mi>
1.11

>  <NsCH3>
1

>  <NdCH2>
0

>  <NssCH2>
0

>  <NtCH>
0

>  <NdsCH>
0

>  <NaaCH>
9

>  <NsssCH>
3

>  <NddC>
0

>  <NtsC>
0

>  <NdssC>
1

>  <NaasC>
3

>  <NaaaC>
0

>  <NssssC>
0

>  <NsNH3>
0

>  <NsNH2>
1

>  <NssNH2>
0

>  <NdNH>
0

>  <NssNH>
0

>  <NaaNH>
0

>  <NtN>
0

>  <NsssNH>
0

>  <NdsN>
0

>  <NaaN>
0

>  <NsssN>
0

>  <NddsN>
0

>  <NaasN>
0

>  <NssssN>
0

>  <NsOH>
0

>  <NdO>
2

>  <NssO>
1

>  <NaaO>
0

>  <NsF>
0

>  <NsSiH3>
0

>  <NssSiH2>
0

>  <NsssSiH>
0

>  <NssssSi>
0

>  <NsPH2>
0

>  <NssPH>
0

>  <NsssP>
0

>  <NdsssP>
0

>  <NsssssP>
0

>  <NsSH>
0

>  <NdS>
1

>  <NssS>
0

>  <NaaS>
0

>  <NdssS>
0

>  <NddssS>
1

>  <NsCl>
0

>  <NsBr>
0

>  <NsI>
0

>  <fragCpx>
119.06

>  <fMF>
0.4

>  <nHBAcc>
4

>  <nHBDon>
1

>  <Kier1>
17.81

>  <Kier2>
7.09

>  <Lipinski>
1

>  <GhoseFilter>
1

>  <FilterItLogS>
-3.5

>  <VMcGowan>
248

>  <LabuteASA>
140.74

>  <PEOE_VSA1>
10.47

>  <PEOE_VSA2>
0

>  <PEOE_VSA3>
8.42

>  <PEOE_VSA4>
0

>  <PEOE_VSA5>
0

>  <PEOE_VSA6>
42.55

>  <PEOE_VSA7>
29.83

>  <PEOE_VSA8>
11.84

>  <PEOE_VSA9>
22.24

>  <PEOE_VSA10>
5.75

>  <PEOE_VSA11>
9.84

>  <PEOE_VSA12>
0

>  <PEOE_VSA13>
0

>  <SMR_VSA1>
13.15

>  <SMR_VSA2>
0

>  <SMR_VSA3>
0

>  <SMR_VSA4>
11.65

>  <SMR_VSA5>
16.06

>  <SMR_VSA6>
7.11

>  <SMR_VSA7>
60.16

>  <SMR_VSA8>
0

>  <SMR_VSA9>
5.75

>  <SlogP_VSA1>
10.47

>  <SlogP_VSA2>
25.77

>  <SlogP_VSA3>
9.84

>  <SlogP_VSA4>
5.92

>  <SlogP_VSA5>
11.48

>  <SlogP_VSA6>
59.49

>  <SlogP_VSA7>
0

>  <SlogP_VSA8>
0

>  <SlogP_VSA9>
0

>  <SlogP_VSA10>
0

>  <SlogP_VSA11>
5.75

>  <EState_VSA1>
15.09

>  <EState_VSA2>
16.82

>  <EState_VSA3>
4.9

>  <EState_VSA4>
11.31

>  <EState_VSA5>
0

>  <EState_VSA6>
37.44

>  <EState_VSA7>
24.27

>  <EState_VSA8>
0

>  <EState_VSA9>
22.69

>  <EState_VSA10>
8.42

>  <VSA_EState1>
30.89

>  <VSA_EState2>
0.55

>  <VSA_EState3>
-0.6

>  <VSA_EState4>
6.7

>  <VSA_EState5>
0.19

>  <VSA_EState6>
15.81

>  <VSA_EState7>
0

>  <VSA_EState8>
0

>  <VSA_EState9>
-1.88

>  <apol>
49.03

>  <bpol>
26.11

>  <nRing>
3

>  <nHRing>
0

>  <naRing>
2

>  <naHRing>
0

>  <nARing 2>
1

>  <nAHRing 2>
0

>  <nFRing>
0

>  <nFHRing>
0

>  <nFaRing>
0

>  <nFaHRing>
0

>  <nFARing 2>
0

>  <nFAHRing 2>
0

>  <nRot>
5

>  <SLogP>
2.54

>  <SMR>
93.43

>  <TopoPSA(NO)>
69.39

>  <TopoPSA>
109.86

>  <JGI1>
0.2

>  <JGI2>
0.1

>  <JGI3>
0.08

>  <JGI4>
0.06

>  <JGI5>
0.03

>  <Diameter>
12

>  <Radius>
6

>  <TMWC10>
124.89

>  <TSRW10>
78.62

>  <MW>
347.06

>  <AMW>
8.68

>  <WPath>
1176

>  <WPol>
37

>  <Zagreb1>
124

>  <Zagreb2>
151

>  <mZagreb2>
5.06

>  <yes>


>  <nAR-cont>
0.816016

>  <nHA-cont>
0.967789328

>  <MWHBN>
0.268390861

>  <MWHBN-cont>
0.923729536

>  <TPSA-cont>
0.233108981

>  <pka_cont>
0.97

>  <yes.1>


>  <BBB_SCORE>
4.120617593

>  <MMFF94 Energy>
41.692

$$$$
Compound 2229
Actelion Java MolfileCreator 2.0

  0  0  0  0  0  0              0 V3000
M  V30 BEGIN CTAB
M  V30 COUNTS 43 45 0 0 0
M  V30 BEGIN ATOM
M  V30 1 S 0.2425 -0.8087 0.9705 0
M  V30 2 O -0.9042 0.0355 0.7117 0
M  V30 3 O 0.9726 -0.7338 2.2215 0
M  V30 4 C -0.2854 -2.4986 0.7937 0
M  V30 5 C 1.4708 -0.6286 -0.3398 0 CFG=2
M  V30 6 C -1.5405 -2.7877 0.2558 0
M  V30 7 C 0.555 -3.524 1.2351 0
M  V30 8 C 1.8676 0.7523 -0.8057 0 CFG=1
M  V30 9 C 1.0293 -0.1482 -1.7027 0 CFG=2
M  V30 10 C -1.9419 -4.1183 0.1266 0
M  V30 11 C 0.1463 -4.8519 1.1039 0
M  V30 12 C 1.403 2.0551 -0.1988 0
M  V30 13 C -0.389 0.0995 -2.0902 0
M  V30 14 C -1.0966 -5.1595 0.5341 0
M  V30 15 C 0.7561 3.0427 -0.9595 0
M  V30 16 C 1.5549 2.3215 1.1708 0
M  V30 17 O -0.4227 0.4351 -3.4741 0
M  V30 18 C -1.5492 -6.5867 0.4285 0
M  V30 19 C 0.2852 4.2349 -0.39 0
M  V30 20 C 1.0881 3.5087 1.7466 0
M  V30 21 C 0.4471 4.4711 0.9711 0
M  V30 22 O 0.0407 5.5839 1.6522 0
M  V30 23 C -0.6947 6.5533 0.917 0
M  V30 24 H 2.2628 -1.3661 -0.3029 0
M  V30 25 H -2.2146 -1.9932 -0.0562 0
M  V30 26 H 1.516 -3.3007 1.6929 0
M  V30 27 H 2.9135 0.8225 -1.1147 0
M  V30 28 H 1.5462 -0.6289 -2.5318 0
M  V30 29 H -2.9234 -4.3393 -0.2887 0
M  V30 30 H 0.7992 -5.6478 1.4567 0
M  V30 31 H -0.9745 -0.8162 -1.9771 0
M  V30 32 H -0.8856 0.9002 -1.5406 0
M  V30 33 H 0.6241 2.8998 -2.0279 0
M  V30 34 H 2.0546 1.6017 1.8163 0
M  V30 35 H -0.0307 1.3191 -3.5618 0
M  V30 36 H -2.0804 -6.879 1.3395 0
M  V30 37 H -2.2158 -6.7221 -0.4296 0
M  V30 38 H -0.6954 -7.2571 0.2852 0
M  V30 39 H -0.2005 4.9537 -1.0408 0
M  V30 40 H 1.2226 3.6755 2.8126 0
M  V30 41 H -0.0796 6.9986 0.1282 0
M  V30 42 H -0.9786 7.3527 1.6083 0
M  V30 43 H -1.6154 6.1253 0.5069 0
M  V30 END ATOM
M  V30 BEGIN BOND
M  V30 1 2 1 2
M  V30 2 2 1 3
M  V30 3 1 1 4
M  V30 4 1 1 5
M  V30 5 2 4 6
M  V30 6 1 4 7
M  V30 7 1 5 8
M  V30 8 1 5 9
M  V30 9 1 6 10
M  V30 10 2 7 11
M  V30 11 1 8 12
M  V30 12 1 9 13
M  V30 13 2 10 14
M  V30 14 2 12 15
M  V30 15 1 12 16
M  V30 16 1 13 17
M  V30 17 1 14 18
M  V30 18 1 15 19
M  V30 19 2 16 20
M  V30 20 2 19 21
M  V30 21 1 21 22
M  V30 22 1 22 23
M  V30 23 1 8 9
M  V30 24 1 11 14
M  V30 25 1 20 21
M  V30 26 1 5 24
M  V30 27 1 6 25
M  V30 28 1 7 26
M  V30 29 1 8 27
M  V30 30 1 9 28
M  V30 31 1 10 29
M  V30 32 1 11 30
M  V30 33 1 13 31
M  V30 34 1 13 32
M  V30 35 1 15 33
M  V30 36 1 16 34
M  V30 37 1 17 35
M  V30 38 1 18 36
M  V30 39 1 18 37
M  V30 40 1 18 38
M  V30 41 1 19 39
M  V30 42 1 20 40
M  V30 43 1 23 41
M  V30 44 1 23 42
M  V30 45 1 23 43
M  V30 END BOND
M  V30 BEGIN COLLECTION
M  V30 MDLV30/STEABS ATOMS=(3 5 8 9)
M  V30 END COLLECTION
M  V30 END CTAB
M  END
>  <Column 1>
2731

>  <level_0>
3965

>  <index>
3965

>  <Unnamed: 0>
3965

>  <NO.>
3977

>  <Name>
naloxone

>  <IUPAC_name>
[(1r-2s-3r)-2-(4-methoxyphenyl)-3-(4-methylphenyl)sulfonylcyclopropyl]methanol

>  <SMILES>
COc1ccc([C@@H]2[C@H](CO)[C@@H]2S(=O)(=O)c2ccc(C)cc2)cc1

>  <CID>
100004425

>  <logBB>


>  <BBB+/BBB->
BBB+

>  <Inchi>
InChI=1S/C18H20O4S/c1-12-3-9-15(10-4-12)23(20-21)18-16(11-19)17(18)13-5-7-14(22-2)8-6-13/h3-10-16-19H-11H2-1-2H3/t16--17+-18-/m0/s1

>  <threshold>
-1

>  <reference>
R16|R10|R10|

>  <group>
B

>  <Class>
1

>  <ABC>
17.82

>  <ABCGG>
15.24

>  <nAcid>
0

>  <nBase>
0

>  <nAromAtom>
12

>  <nAromBond>
12

>  <nAtom>
43

>  <nHeavyAtom>
23

>  <nSpiro>
0

>  <nBridgehead>
0

>  <nHetero>
5

>  <nN>
0

>  <nO>
4

>  <nF>
0

>  <BalabanJ>
1.62

>  <BertzCT>
778.78

>  <nBonds>
45

>  <nBondsO>
25

>  <nBondsS>
31

>  <nBondsD>
2

>  <nBondsT>
0

>  <nBondsA>
12

>  <nBondsM>
14

>  <nBondsKS>
37

>  <nBondsKD>
8

>  <RNCG>
0.27

>  <RPCG>
0.12

>  <FCSP3>
0.33

>  <SZ>
29.33

>  <Sm>
27.68

>  <Sv>
27.46

>  <Sse>
43.28

>  <Sp>
29.64

>  <Si>
47.91

>  <MZ>
0.68

>  <Mm>
0.64

>  <Mv>
0.64

>  <Mse>
1.01

>  <Mp>
0.69

>  <Mi>
1.11

>  <NsCH3>
2

>  <NdCH2>
0

>  <NssCH2>
1

>  <NtCH>
0

>  <NdsCH>
0

>  <NaaCH>
8

>  <NsssCH>
3

>  <NddC>
0

>  <NtsC>
0

>  <NdssC>
0

>  <NaasC>
4

>  <NaaaC>
0

>  <NssssC>
0

>  <NsNH3>
0

>  <NsNH2>
0

>  <NssNH2>
0

>  <NdNH>
0

>  <NssNH>
0

>  <NaaNH>
0

>  <NtN>
0

>  <NsssNH>
0

>  <NdsN>
0

>  <NaaN>
0

>  <NsssN>
0

>  <NddsN>
0

>  <NaasN>
0

>  <NssssN>
0

>  <NsOH>
1

>  <NdO>
2

>  <NssO>
1

>  <NaaO>
0

>  <NsF>
0

>  <NsSiH3>
0

>  <NssSiH2>
0

>  <NsssSiH>
0

>  <NssssSi>
0

>  <NsPH2>
0

>  <NssPH>
0

>  <NsssP>
0

>  <NdsssP>
0

>  <NsssssP>
0

>  <NsSH>
0

>  <NdS>
0

>  <NssS>
0

>  <NaaS>
0

>  <NdssS>
0

>  <NddssS>
1

>  <NsCl>
0

>  <NsBr>
0

>  <NsI>
0

>  <fragCpx>
119.05

>  <fMF>
0.37

>  <nHBAcc>
4

>  <nHBDon>
1

>  <Kier1>
17.81

>  <Kier2>
7.09

>  <Lipinski>
1

>  <GhoseFilter>
1

>  <FilterItLogS>
-4.08

>  <VMcGowan>
245.93

>  <LabuteASA>
136.21

>  <PEOE_VSA1>
9.84

>  <PEOE_VSA2>
0

>  <PEOE_VSA3>
8.42

>  <PEOE_VSA4>
0

>  <PEOE_VSA5>
0

>  <PEOE_VSA6>
29.83

>  <PEOE_VSA7>
36.75

>  <PEOE_VSA8>
18.44

>  <PEOE_VSA9>
17.26

>  <PEOE_VSA10>
5.75

>  <PEOE_VSA11>
9.84

>  <PEOE_VSA12>
0

>  <PEOE_VSA13>
0

>  <SMR_VSA1>
18.26

>  <SMR_VSA2>
0

>  <SMR_VSA3>
0

>  <SMR_VSA4>
5.92

>  <SMR_VSA5>
22.99

>  <SMR_VSA6>
13.72

>  <SMR_VSA7>
59.66

>  <SMR_VSA8>
0

>  <SMR_VSA9>
5.75

>  <SlogP_VSA1>
4.74

>  <SlogP_VSA2>
32.49

>  <SlogP_VSA3>
9.84

>  <SlogP_VSA4>
12.84

>  <SlogP_VSA5>
17.04

>  <SlogP_VSA6>
53.43

>  <SlogP_VSA7>
0

>  <SlogP_VSA8>
0

>  <SlogP_VSA9>
0

>  <SlogP_VSA10>
0

>  <SlogP_VSA11>
5.75

>  <EState_VSA1>
15.09

>  <EState_VSA2>
18.44

>  <EState_VSA3>
4.9

>  <EState_VSA4>
16.88

>  <EState_VSA5>
0

>  <EState_VSA6>
31.38

>  <EState_VSA7>
31.19

>  <EState_VSA8>
0

>  <EState_VSA9>
4.74

>  <EState_VSA10>
13.52

>  <VSA_EState1>
30.82

>  <VSA_EState2>
0.32

>  <VSA_EState3>
9.01

>  <VSA_EState4>
1.94

>  <VSA_EState5>
0.31

>  <VSA_EState6>
14.26

>  <VSA_EState7>
0

>  <VSA_EState8>
1.79

>  <VSA_EState9>
-1.86

>  <apol>
49.5

>  <bpol>
28.46

>  <nRing>
3

>  <nHRing>
0

>  <naRing>
2

>  <naHRing>
0

>  <nARing 2>
1

>  <nAHRing 2>
0

>  <nFRing>
0

>  <nFHRing>
0

>  <nFaRing>
0

>  <nFaHRing>
0

>  <nFARing 2>
0

>  <nFAHRing 2>
0

>  <nRot>
5

>  <SLogP>
2.55

>  <SMR>
88.46

>  <TopoPSA(NO)>
63.6

>  <TopoPSA>
71.98

>  <JGI1>
0.22

>  <JGI2>
0.12

>  <JGI3>
0.08

>  <JGI4>
0.06

>  <JGI5>
0.03

>  <Diameter>
13

>  <Radius>
7

>  <TMWC10>
124.7

>  <TSRW10>
78.53

>  <MW>
332.11

>  <AMW>
7.72

>  <WPath>
1213

>  <WPol>
37

>  <Zagreb1>
124

>  <Zagreb2>
151

>  <mZagreb2>
5.11

>  <yes>


>  <nAR-cont>
0.816016

>  <nHA-cont>
0.967789328

>  <MWHBN>
0.274365202

>  <MWHBN-cont>
0.909943976

>  <TPSA-cont>
0.497534903

>  <pka_cont>
0.97

>  <yes.1>


>  <BBB_SCORE>
4.628791099

>  <MMFF94 Energy>
74.421

$$$$
Compound 2230
Actelion Java MolfileCreator 2.0

  0  0  0  0  0  0              0 V3000
M  V30 BEGIN CTAB
M  V30 COUNTS 41 43 0 0 0
M  V30 BEGIN ATOM
M  V30 1 S -0.5662 0.3235 0.6471 0
M  V30 2 O 0.1724 0.9765 -0.4167 0
M  V30 3 O -0.2575 0.5831 2.0424 0
M  V30 4 C -2.2877 0.7056 0.4132 0
M  V30 5 C -0.5145 -1.4655 0.4612 0 CFG=1
M  V30 6 C -2.7997 0.8044 -0.8818 0
M  V30 7 C -3.1065 0.9353 1.5216 0
M  V30 8 C -0.2575 -2.0374 -0.9011 0 CFG=2
M  V30 9 C 0.8082 -2.1331 0.1728 0 CFG=1
M  V30 10 C -4.1494 1.1094 -1.0669 0
M  V30 11 C -4.4552 1.2408 1.329 0
M  V30 12 N -0.1155 -1.2295 -2.1135 0
M  V30 13 C 2.1541 -1.4483 0.0984 0
M  V30 14 C -4.9899 1.3151 0.0355 0
M  V30 15 C 2.9502 -1.5048 -1.0563 0
M  V30 16 C 2.6465 -0.6747 1.1627 0
M  V30 17 C -6.4312 1.6806 -0.1689 0
M  V30 18 C 4.1735 -0.8305 -1.14 0
M  V30 19 C 3.8687 0.0078 1.0843 0
M  V30 20 C 4.6377 -0.0656 -0.0723 0
M  V30 21 O 5.8426 0.5448 -0.2819 0
M  V30 22 C 6.3072 1.4103 0.7465 0
M  V30 23 H -1.1992 -1.9998 1.1069 0
M  V30 24 H -2.1604 0.6538 -1.7487 0
M  V30 25 H -2.7078 0.8883 2.5326 0
M  V30 26 H -0.7833 -2.9709 -1.107 0
M  V30 27 H 0.8995 -3.127 0.6166 0
M  V30 28 H -4.5407 1.191 -2.0792 0
M  V30 29 H -5.0875 1.427 2.1951 0
M  V30 30 H 0.4839 -1.6886 -2.799 0
M  V30 31 H 0.3582 -0.3364 -1.907 0
M  V30 32 H 2.628 -2.097 -1.9088 0
M  V30 33 H 2.0744 -0.5964 2.086 0
M  V30 34 H -6.5347 2.7676 -0.2426 0
M  V30 35 H -6.8236 1.2241 -1.0838 0
M  V30 36 H -7.0468 1.3215 0.6626 0
M  V30 37 H 4.7654 -0.9 -2.0491 0
M  V30 38 H 4.181 0.5876 1.9463 0
M  V30 39 H 5.603 2.2304 0.9233 0
M  V30 40 H 7.252 1.8495 0.412 0
M  V30 41 H 6.507 0.8541 1.6684 0
M  V30 END ATOM
M  V30 BEGIN BOND
M  V30 1 2 1 2
M  V30 2 2 1 3
M  V30 3 1 1 4
M  V30 4 1 1 5
M  V30 5 2 4 6
M  V30 6 1 4 7
M  V30 7 1 5 8
M  V30 8 1 5 9
M  V30 9 1 6 10
M  V30 10 2 7 11
M  V30 11 1 8 12
M  V30 12 1 9 13
M  V30 13 2 10 14
M  V30 14 2 13 15
M  V30 15 1 13 16
M  V30 16 1 14 17
M  V30 17 1 15 18
M  V30 18 2 16 19
M  V30 19 2 18 20
M  V30 20 1 20 21
M  V30 21 1 21 22
M  V30 22 1 8 9
M  V30 23 1 11 14
M  V30 24 1 19 20
M  V30 25 1 5 23
M  V30 26 1 6 24
M  V30 27 1 7 25
M  V30 28 1 8 26
M  V30 29 1 9 27
M  V30 30 1 10 28
M  V30 31 1 11 29
M  V30 32 1 12 30
M  V30 33 1 12 31
M  V30 34 1 15 32
M  V30 35 1 16 33
M  V30 36 1 17 34
M  V30 37 1 17 35
M  V30 38 1 17 36
M  V30 39 1 18 37
M  V30 40 1 19 38
M  V30 41 1 22 39
M  V30 42 1 22 40
M  V30 43 1 22 41
M  V30 END BOND
M  V30 BEGIN COLLECTION
M  V30 MDLV30/STEABS ATOMS=(3 5 8 9)
M  V30 END COLLECTION
M  V30 END CTAB
M  END
>  <Column 1>
2732

>  <level_0>
3966

>  <index>
3966

>  <Unnamed: 0>
3966

>  <NO.>
3978

>  <Name>
nitrazepam

>  <IUPAC_name>
(1s-2r-3r)-2-(4-methoxyphenyl)-3-(4-methylphenyl)sulfonylcyclopropan-1-amine

>  <SMILES>
COc1ccc([C@@H]2[C@H](N)[C@@H]2S(=O)(=O)c2ccc(C)cc2)cc1

>  <CID>
100004506

>  <logBB>


>  <BBB+/BBB->
BBB+

>  <Inchi>
InChI=1S/C17H19NO3S/c1-11-3-9-14(10-4-11)22(19-20)17-15(16(17)18)12-5-7-13(21-2)8-6-12/h3-10-15-17H-18H2-1-2H3/t15--16+-17-/m1/s1

>  <threshold>
-1

>  <reference>
R16|R10|R10|

>  <group>
B

>  <Class>
-1

>  <ABC>
17.22

>  <ABCGG>
14.77

>  <nAcid>
0

>  <nBase>
1

>  <nAromAtom>
12

>  <nAromBond>
12

>  <nAtom>
41

>  <nHeavyAtom>
22

>  <nSpiro>
0

>  <nBridgehead>
0

>  <nHetero>
5

>  <nN>
1

>  <nO>
3

>  <nF>
0

>  <BalabanJ>
1.58

>  <BertzCT>
766.56

>  <nBonds>
43

>  <nBondsO>
24

>  <nBondsS>
29

>  <nBondsD>
2

>  <nBondsT>
0

>  <nBondsA>
12

>  <nBondsM>
14

>  <nBondsKS>
35

>  <nBondsKD>
8

>  <RNCG>
0.28

>  <RPCG>
0.1

>  <FCSP3>
0.29

>  <SZ>
28

>  <Sm>
26.43

>  <Sv>
26.24

>  <Sse>
41.17

>  <Sp>
28.42

>  <Si>
45.78

>  <MZ>
0.68

>  <Mm>
0.64

>  <Mv>
0.64

>  <Mse>
1

>  <Mp>
0.69

>  <Mi>
1.12

>  <NsCH3>
2

>  <NdCH2>
0

>  <NssCH2>
0

>  <NtCH>
0

>  <NdsCH>
0

>  <NaaCH>
8

>  <NsssCH>
3

>  <NddC>
0

>  <NtsC>
0

>  <NdssC>
0

>  <NaasC>
4

>  <NaaaC>
0

>  <NssssC>
0

>  <NsNH3>
0

>  <NsNH2>
1

>  <NssNH2>
0

>  <NdNH>
0

>  <NssNH>
0

>  <NaaNH>
0

>  <NtN>
0

>  <NsssNH>
0

>  <NdsN>
0

>  <NaaN>
0

>  <NsssN>
0

>  <NddsN>
0

>  <NaasN>
0

>  <NssssN>
0

>  <NsOH>
0

>  <NdO>
2

>  <NssO>
1

>  <NaaO>
0

>  <NsF>
0

>  <NsSiH3>
0

>  <NssSiH2>
0

>  <NsssSiH>
0

>  <NssssSi>
0

>  <NsPH2>
0

>  <NssPH>
0

>  <NsssP>
0

>  <NdsssP>
0

>  <NsssssP>
0

>  <NsSH>
0

>  <NdS>
0

>  <NssS>
0

>  <NaaS>
0

>  <NdssS>
0

>  <NddssS>
1

>  <NsCl>
0

>  <NsBr>
0

>  <NsI>
0

>  <fragCpx>
114.05

>  <fMF>
0.39

>  <nHBAcc>
4

>  <nHBDon>
1

>  <Kier1>
16.84

>  <Kier2>
6.48

>  <Lipinski>
1

>  <GhoseFilter>
1

>  <FilterItLogS>
-3.9

>  <VMcGowan>
235.95

>  <LabuteASA>
130.39

>  <PEOE_VSA1>
10.47

>  <PEOE_VSA2>
0

>  <PEOE_VSA3>
8.42

>  <PEOE_VSA4>
0

>  <PEOE_VSA5>
0

>  <PEOE_VSA6>
29.83

>  <PEOE_VSA7>
36.75

>  <PEOE_VSA8>
11.96

>  <PEOE_VSA9>
17.26

>  <PEOE_VSA10>
5.75

>  <PEOE_VSA11>
9.84

>  <PEOE_VSA12>
0

>  <PEOE_VSA13>
0

>  <SMR_VSA1>
13.15

>  <SMR_VSA2>
0

>  <SMR_VSA3>
0

>  <SMR_VSA4>
5.73

>  <SMR_VSA5>
29.03

>  <SMR_VSA6>
7.11

>  <SMR_VSA7>
59.66

>  <SMR_VSA8>
0

>  <SMR_VSA9>
5.75

>  <SlogP_VSA1>
10.47

>  <SlogP_VSA2>
26.82

>  <SlogP_VSA3>
9.84

>  <SlogP_VSA4>
6.92

>  <SlogP_VSA5>
17.04

>  <SlogP_VSA6>
53.43

>  <SlogP_VSA7>
0

>  <SlogP_VSA8>
0

>  <SlogP_VSA9>
0

>  <SlogP_VSA10>
0

>  <SlogP_VSA11>
5.75

>  <EState_VSA1>
15.09

>  <EState_VSA2>
11.96

>  <EState_VSA3>
4.9

>  <EState_VSA4>
16.88

>  <EState_VSA5>
0

>  <EState_VSA6>
19.24

>  <EState_VSA7>
43.32

>  <EState_VSA8>
0

>  <EState_VSA9>
10.47

>  <EState_VSA10>
8.42

>  <VSA_EState1>
30.56

>  <VSA_EState2>
0.34

>  <VSA_EState3>
-0.55

>  <VSA_EState4>
8.03

>  <VSA_EState5>
0.59

>  <VSA_EState6>
13.99

>  <VSA_EState7>
0

>  <VSA_EState8>
1.93

>  <VSA_EState9>
-1.8

>  <apol>
47.47

>  <bpol>
26.88

>  <nRing>
3

>  <nHRing>
0

>  <naRing>
2

>  <naHRing>
0

>  <nARing 2>
1

>  <nAHRing 2>
0

>  <nFRing>
0

>  <nFHRing>
0

>  <nFaRing>
0

>  <nFaHRing>
0

>  <nFARing 2>
0

>  <nFAHRing 2>
0

>  <nRot>
4

>  <SLogP>
2.27

>  <SMR>
85.86

>  <TopoPSA(NO)>
69.39

>  <TopoPSA>
77.77

>  <JGI1>
0.23

>  <JGI2>
0.12

>  <JGI3>
0.07

>  <JGI4>
0.06

>  <JGI5>
0.04

>  <Diameter>
13

>  <Radius>
7

>  <TMWC10>
122.29

>  <TSRW10>
77.29

>  <MW>
317.11

>  <AMW>
7.73

>  <WPath>
1092

>  <WPol>
35

>  <Zagreb1>
120

>  <Zagreb2>
146

>  <mZagreb2>
4.78

>  <yes>


>  <nAR-cont>
0.816016

>  <nHA-cont>
0.983774276

>  <MWHBN>
0.280779267

>  <MWHBN-cont>
0.894101345

>  <TPSA-cont>
0.457117108

>  <pka_cont>
0.97

>  <yes.1>


>  <BBB_SCORE>
4.540176509

>  <MMFF94 Energy>
83.437

$$$$
Compound 2231
Actelion Java MolfileCreator 2.0

  0  0  0  0  0  0              0 V3000
M  V30 BEGIN CTAB
M  V30 COUNTS 43 45 0 0 0
M  V30 BEGIN ATOM
M  V30 1 S -0.2446 0.163 1.3051 0
M  V30 2 O -0.9453 0.9047 2.3356 0
M  V30 3 O 0.903 0.7223 0.6299 0
M  V30 4 C 0.2401 -1.388 2.0222 0
M  V30 5 C -1.5058 -0.3134 0.1233 0 CFG=2
M  V30 6 C -0.6025 -2.0015 2.9527 0
M  V30 7 C 1.4597 -1.9691 1.6721 0
M  V30 8 C -1.0525 -0.8691 -1.2151 0 CFG=1
M  V30 9 C -1.7396 0.5052 -1.1129 0 CFG=2
M  V30 10 C -0.2323 -3.2254 3.5117 0
M  V30 11 C 1.8217 -3.1941 2.234 0
M  V30 12 C 0.3402 -0.945 -1.5764 0
M  V30 13 C -1.8921 -1.9944 -1.738 0
M  V30 14 C -1.0942 1.8413 -1.3989 0
M  V30 15 C 0.9731 -3.8384 3.1444 0
M  V30 16 N 1.4513 -1.0562 -1.8932 0
M  V30 17 O -3.0871 -2.1068 -1.5096 0
M  V30 18 O -1.248 -2.9058 -2.4919 0
M  V30 19 C -1.2357 2.9145 -0.5031 0
M  V30 20 C -0.2846 2.0625 -2.5249 0
M  V30 21 C 1.387 -5.1358 3.7757 0
M  V30 22 C -0.6123 4.1462 -0.7294 0
M  V30 23 C 0.3455 3.2942 -2.7543 0
M  V30 24 C 0.1852 4.3427 -1.8537 0
M  V30 25 O 0.7377 5.5884 -1.9583 0
M  V30 26 C 1.6647 5.7898 -3.0174 0
M  V30 27 H -2.3899 -0.7372 0.585 0
M  V30 28 H -1.5348 -1.5324 3.2597 0
M  V30 29 H 2.1382 -1.481 0.9741 0
M  V30 30 H -2.7824 0.5108 -1.442 0
M  V30 31 H -0.8851 -3.6965 4.2445 0
M  V30 32 H 2.7764 -3.6405 1.9613 0
M  V30 33 H -1.93 -3.5611 -2.7528 0
M  V30 34 H -1.8417 2.8032 0.3947 0
M  V30 35 H -0.1337 1.2728 -3.2579 0
M  V30 36 H 1.9561 -4.942 4.6901 0
M  V30 37 H 0.5118 -5.745 4.0252 0
M  V30 38 H 2.0064 -5.7232 3.09 0
M  V30 39 H -0.7421 4.9534 -0.0125 0
M  V30 40 H 0.9561 3.394 -3.6454 0
M  V30 41 H 2.5103 5.0981 -2.9421 0
M  V30 42 H 2.0579 6.8071 -2.9284 0
M  V30 43 H 1.1717 5.7081 -3.9916 0
M  V30 END ATOM
M  V30 BEGIN BOND
M  V30 1 2 1 2
M  V30 2 2 1 3
M  V30 3 1 1 4
M  V30 4 1 1 5
M  V30 5 2 4 6
M  V30 6 1 4 7
M  V30 7 1 5 8
M  V30 8 1 5 9
M  V30 9 1 6 10
M  V30 10 2 7 11
M  V30 11 1 8 12
M  V30 12 1 8 13
M  V30 13 1 9 14
M  V30 14 2 10 15
M  V30 15 3 12 16
M  V30 16 2 13 17
M  V30 17 1 13 18
M  V30 18 2 14 19
M  V30 19 1 14 20
M  V30 20 1 15 21
M  V30 21 1 19 22
M  V30 22 2 20 23
M  V30 23 2 22 24
M  V30 24 1 24 25
M  V30 25 1 25 26
M  V30 26 1 8 9
M  V30 27 1 11 15
M  V30 28 1 23 24
M  V30 29 1 5 27
M  V30 30 1 6 28
M  V30 31 1 7 29
M  V30 32 1 9 30
M  V30 33 1 10 31
M  V30 34 1 11 32
M  V30 35 1 18 33
M  V30 36 1 19 34
M  V30 37 1 20 35
M  V30 38 1 21 36
M  V30 39 1 21 37
M  V30 40 1 21 38
M  V30 41 1 22 39
M  V30 42 1 23 40
M  V30 43 1 26 41
M  V30 44 1 26 42
M  V30 45 1 26 43
M  V30 END BOND
M  V30 BEGIN COLLECTION
M  V30 MDLV30/STEABS ATOMS=(3 5 8 9)
M  V30 END COLLECTION
M  V30 END CTAB
M  END
>  <Column 1>
2733

>  <level_0>
3967

>  <index>
3967

>  <Unnamed: 0>
3967

>  <NO.>
3979

>  <Name>
miconazole

>  <IUPAC_name>
(1s-2s-3s)-1-cyano-2-(4-methoxyphenyl)-3-(4-methylphenyl)sulfonylcyclopropane-1-carboxylic acid

>  <SMILES>
COc1ccc([C@@H]2[C@H](S(=O)(=O)c3ccc(C)cc3)[C@@]2(C#N)C(=O)O)cc1

>  <CID>
100004189

>  <logBB>


>  <BBB+/BBB->
BBB-

>  <Inchi>
InChI=1S/C19H17NO5S/c1-12-3-9-15(10-4-12)26(23-24)17-16(19(17-11-20)18(21)22)13-5-7-14(25-2)8-6-13/h3-10-16-17H-1-2H3-(H-21-22)/t16--17+-19+/m1/s1

>  <threshold>
-1

>  <reference>
R16|R10|R10|

>  <group>
B

>  <Class>
-1

>  <ABC>
20.06

>  <ABCGG>
17.48

>  <nAcid>
1

>  <nBase>
0

>  <nAromAtom>
12

>  <nAromBond>
12

>  <nAtom>
43

>  <nHeavyAtom>
26

>  <nSpiro>
0

>  <nBridgehead>
0

>  <nHetero>
7

>  <nN>
1

>  <nO>
5

>  <nF>
0

>  <BalabanJ>
1.79

>  <BertzCT>
989.72

>  <nBonds>
45

>  <nBondsO>
28

>  <nBondsS>
29

>  <nBondsD>
3

>  <nBondsT>
1

>  <nBondsA>
12

>  <nBondsM>
16

>  <nBondsKS>
35

>  <nBondsKD>
9

>  <RNCG>
0.21

>  <RPCG>
0.14

>  <FCSP3>
0.26

>  <SZ>
32.33

>  <Sm>
30.92

>  <Sv>
29.12

>  <Sse>
43.94

>  <Sp>
30.58

>  <Si>
47.79

>  <MZ>
0.75

>  <Mm>
0.72

>  <Mv>
0.68

>  <Mse>
1.02

>  <Mp>
0.71

>  <Mi>
1.11

>  <NsCH3>
2

>  <NdCH2>
0

>  <NssCH2>
0

>  <NtCH>
0

>  <NdsCH>
0

>  <NaaCH>
8

>  <NsssCH>
2

>  <NddC>
0

>  <NtsC>
1

>  <NdssC>
1

>  <NaasC>
4

>  <NaaaC>
0

>  <NssssC>
1

>  <NsNH3>
0

>  <NsNH2>
0

>  <NssNH2>
0

>  <NdNH>
0

>  <NssNH>
0

>  <NaaNH>
0

>  <NtN>
1

>  <NsssNH>
0

>  <NdsN>
0

>  <NaaN>
0

>  <NsssN>
0

>  <NddsN>
0

>  <NaasN>
0

>  <NssssN>
0

>  <NsOH>
1

>  <NdO>
3

>  <NssO>
1

>  <NaaO>
0

>  <NsF>
0

>  <NsSiH3>
0

>  <NssSiH2>
0

>  <NsssSiH>
0

>  <NssssSi>
0

>  <NsPH2>
0

>  <NssPH>
0

>  <NsssP>
0

>  <NdsssP>
0

>  <NsssssP>
0

>  <NsSH>
0

>  <NdS>
0

>  <NssS>
0

>  <NaaS>
0

>  <NdssS>
0

>  <NddssS>
1

>  <NsCl>
0

>  <NsBr>
0

>  <NsI>
0

>  <fragCpx>
134.07

>  <fMF>
0.37

>  <nHBAcc>
5

>  <nHBDon>
1

>  <Kier1>
20.73

>  <Kier2>
7.79

>  <Lipinski>
1

>  <GhoseFilter>
1

>  <FilterItLogS>
-3.91

>  <VMcGowan>
262.97

>  <LabuteASA>
151.12

>  <PEOE_VSA1>
9.84

>  <PEOE_VSA2>
4.79

>  <PEOE_VSA3>
8.42

>  <PEOE_VSA4>
5.26

>  <PEOE_VSA5>
0

>  <PEOE_VSA6>
29.83

>  <PEOE_VSA7>
36.75

>  <PEOE_VSA8>
5.92

>  <PEOE_VSA9>
18.07

>  <PEOE_VSA10>
11

>  <PEOE_VSA11>
15.25

>  <PEOE_VSA12>
0

>  <PEOE_VSA13>
0

>  <SMR_VSA1>
23.06

>  <SMR_VSA2>
5.26

>  <SMR_VSA3>
0

>  <SMR_VSA4>
5.41

>  <SMR_VSA5>
22.99

>  <SMR_VSA6>
7.11

>  <SMR_VSA7>
59.66

>  <SMR_VSA8>
0

>  <SMR_VSA9>
11.82

>  <SlogP_VSA1>
4.74

>  <SlogP_VSA2>
31.85

>  <SlogP_VSA3>
14.63

>  <SlogP_VSA4>
23.67

>  <SlogP_VSA5>
17.04

>  <SlogP_VSA6>
53.43

>  <SlogP_VSA7>
0

>  <SlogP_VSA8>
0

>  <SlogP_VSA9>
0

>  <SlogP_VSA10>
0

>  <SlogP_VSA11>
5.75

>  <EState_VSA1>
32.39

>  <EState_VSA2>
4.9

>  <EState_VSA3>
11.31

>  <EState_VSA4>
5.56

>  <EState_VSA5>
19.24

>  <EState_VSA6>
42.47

>  <EState_VSA7>
6.92

>  <EState_VSA8>
0

>  <EState_VSA9>
4.74

>  <EState_VSA10>
23.58

>  <VSA_EState1>
31.17

>  <VSA_EState2>
11.87

>  <VSA_EState3>
17.87

>  <VSA_EState4>
-0.63

>  <VSA_EState5>
-1.81

>  <VSA_EState6>
14.37

>  <VSA_EState7>
0

>  <VSA_EState8>
1.82

>  <VSA_EState9>
-2.5

>  <apol>
51.08

>  <bpol>
26.88

>  <nRing>
3

>  <nHRing>
0

>  <naRing>
2

>  <naHRing>
0

>  <nARing 2>
1

>  <nAHRing 2>
0

>  <nFRing>
0

>  <nFHRing>
0

>  <nFaRing>
0

>  <nFaHRing>
0

>  <nFARing 2>
0

>  <nFAHRing 2>
0

>  <nRot>
5

>  <SLogP>
2.54

>  <SMR>
93.57

>  <TopoPSA(NO)>
104.46

>  <TopoPSA>
112.84

>  <JGI1>
0.27

>  <JGI2>
0.13

>  <JGI3>
0.09

>  <JGI4>
0.06

>  <JGI5>
0.03

>  <Diameter>
13

>  <Radius>
7

>  <TMWC10>
133.08

>  <TSRW10>
83.32

>  <MW>
371.08

>  <AMW>
8.63

>  <WPath>
1575

>  <WPol>
46

>  <Zagreb1>
142

>  <Zagreb2>
177

>  <mZagreb2>
5.76

>  <yes>


>  <nAR-cont>
0.816016

>  <nHA-cont>
0.892715677

>  <MWHBN>
0.311470899

>  <MWHBN-cont>
0.805168414

>  <TPSA-cont>
0.212306731

>  <pka_cont>
0.97

>  <yes.1>


>  <BBB_SCORE>
3.826097759

>  <MMFF94 Energy>
10.448

$$$$
Compound 2232
Actelion Java MolfileCreator 2.0

  0  0  0  0  0  0              0 V3000
M  V30 BEGIN CTAB
M  V30 COUNTS 44 46 0 0 0
M  V30 BEGIN ATOM
M  V30 1 Cl -3.5223 -6.1496 2.2925 0
M  V30 2 C -2.9021 -4.774 1.4668 0
M  V30 3 C -2.3043 -4.9305 0.2154 0
M  V30 4 C -3.0056 -3.5109 2.0511 0
M  V30 5 C -1.797 -3.8165 -0.4566 0
M  V30 6 C -2.5016 -2.392 1.3841 0
M  V30 7 C -1.8851 -2.5535 0.1399 0
M  V30 8 S -1.2427 -1.1354 -0.7297 0
M  V30 9 O -1.5134 -1.3664 -2.1354 0
M  V30 10 O -1.7319 0.0415 -0.0477 0
M  V30 11 C 0.5381 -1.3183 -0.5282 0 CFG=2
M  V30 12 C 1.2376 -0.7083 0.6784 0
M  V30 13 C 1.4468 -0.1384 -0.7343 0 CFG=2
M  V30 14 C 0.4749 0.066 1.7392 0
M  V30 15 C 2.37 -1.5386 1.2492 0
M  V30 16 C 1.0336 1.2458 -1.1764 0
M  V30 17 O 1.3557 0.5573 2.7493 0
M  V30 18 O 3.461 -0.6663 1.5234 0
M  V30 19 C 1.3581 2.3868 -0.4231 0
M  V30 20 C 0.2668 1.4557 -2.3325 0
M  V30 21 C 0.9438 3.6722 -0.7997 0
M  V30 22 C -0.1493 2.736 -2.7155 0
M  V30 23 C 0.1831 3.8514 -1.9503 0
M  V30 24 O -0.2838 5.0419 -2.4329 0
M  V30 25 C -0.0363 6.1956 -1.6394 0
M  V30 26 H -2.2412 -5.9142 -0.2435 0
M  V30 27 H -3.4846 -3.3903 3.0201 0
M  V30 28 H -1.3528 -3.9397 -1.4422 0
M  V30 29 H -2.6034 -1.4078 1.8376 0
M  V30 30 H 0.9066 -2.26 -0.9168 0
M  V30 31 H 2.4087 -0.402 -1.1824 0
M  V30 32 H -0.0675 0.9298 1.357 0
M  V30 33 H -0.2374 -0.5944 2.2408 0
M  V30 34 H 2.0636 -2.0382 2.1745 0
M  V30 35 H 2.7181 -2.3024 0.5459 0
M  V30 36 H 2.2311 0.6832 2.3314 0
M  V30 37 H 4.1527 -1.2074 1.9446 0
M  V30 38 H 1.9576 2.2827 0.479 0
M  V30 39 H -0.0111 0.6164 -2.9665 0
M  V30 40 H 1.2345 4.5049 -0.1686 0
M  V30 41 H -0.744 2.8583 -3.6174 0
M  V30 42 H -0.4923 6.1004 -0.6482 0
M  V30 43 H -0.5017 7.0509 -2.1388 0
M  V30 44 H 1.0369 6.3983 -1.5636 0
M  V30 END ATOM
M  V30 BEGIN BOND
M  V30 1 1 1 2
M  V30 2 2 2 3
M  V30 3 1 2 4
M  V30 4 1 3 5
M  V30 5 2 4 6
M  V30 6 2 5 7
M  V30 7 1 7 8
M  V30 8 2 8 9
M  V30 9 2 8 10
M  V30 10 1 8 11
M  V30 11 1 11 12
M  V30 12 1 11 13
M  V30 13 1 12 14
M  V30 14 1 12 15
M  V30 15 1 13 16
M  V30 16 1 14 17
M  V30 17 1 15 18
M  V30 18 2 16 19
M  V30 19 1 16 20
M  V30 20 1 19 21
M  V30 21 2 20 22
M  V30 22 2 21 23
M  V30 23 1 23 24
M  V30 24 1 24 25
M  V30 25 1 6 7
M  V30 26 1 12 13
M  V30 27 1 22 23
M  V30 28 1 3 26
M  V30 29 1 4 27
M  V30 30 1 5 28
M  V30 31 1 6 29
M  V30 32 1 11 30
M  V30 33 1 13 31
M  V30 34 1 14 32
M  V30 35 1 14 33
M  V30 36 1 15 34
M  V30 37 1 15 35
M  V30 38 1 17 36
M  V30 39 1 18 37
M  V30 40 1 19 38
M  V30 41 1 20 39
M  V30 42 1 21 40
M  V30 43 1 22 41
M  V30 44 1 25 42
M  V30 45 1 25 43
M  V30 46 1 25 44
M  V30 END BOND
M  V30 BEGIN COLLECTION
M  V30 MDLV30/STEABS ATOMS=(2 11 13)
M  V30 END COLLECTION
M  V30 END CTAB
M  END
>  <Column 1>
2734

>  <level_0>
3968

>  <index>
3968

>  <Unnamed: 0>
3968

>  <NO.>
3980

>  <Name>
pirbuterol

>  <IUPAC_name>
[(2s-3s)-2-(4-chlorophenyl)sulfonyl-1-(hydroxymethyl)-3-(4-methoxyphenyl)cyclopropyl]methanol

>  <SMILES>
COc1ccc([C@@H]2[C@H](S(=O)(=O)c3ccc(Cl)cc3)C2(CO)CO)cc1

>  <CID>
100004845

>  <logBB>


>  <BBB+/BBB->
BBB-

>  <Inchi>
InChI=1S/C18H19ClO5S/c1-24-14-6-2-12(3-7-14)16-17(18(16-10-20)11-21)25(22-23)15-8-4-13(19)5-9-15/h2-9-16-17-20-21H-10-11H2-1H3/t16--17+/m1/s1

>  <threshold>
-1

>  <reference>
R16|R10|R10|

>  <group>
B

>  <Class>
-1

>  <ABC>
19.19

>  <ABCGG>
16.69

>  <nAcid>
0

>  <nBase>
0

>  <nAromAtom>
12

>  <nAromBond>
12

>  <nAtom>
44

>  <nHeavyAtom>
25

>  <nSpiro>
0

>  <nBridgehead>
0

>  <nHetero>
7

>  <nN>
0

>  <nO>
5

>  <nF>
0

>  <BalabanJ>
1.74

>  <BertzCT>
842.04

>  <nBonds>
46

>  <nBondsO>
27

>  <nBondsS>
32

>  <nBondsD>
2

>  <nBondsT>
0

>  <nBondsA>
12

>  <nBondsM>
14

>  <nBondsKS>
38

>  <nBondsKD>
8

>  <RNCG>
0.23

>  <RPCG>
0.1

>  <FCSP3>
0.33

>  <SZ>
33.33

>  <Sm>
31.88

>  <Sv>
29

>  <Sse>
44.93

>  <Sp>
31.03

>  <Si>
49.06

>  <MZ>
0.76

>  <Mm>
0.72

>  <Mv>
0.66

>  <Mse>
1.02

>  <Mp>
0.71

>  <Mi>
1.12

>  <NsCH3>
1

>  <NdCH2>
0

>  <NssCH2>
2

>  <NtCH>
0

>  <NdsCH>
0

>  <NaaCH>
8

>  <NsssCH>
2

>  <NddC>
0

>  <NtsC>
0

>  <NdssC>
0

>  <NaasC>
4

>  <NaaaC>
0

>  <NssssC>
1

>  <NsNH3>
0

>  <NsNH2>
0

>  <NssNH2>
0

>  <NdNH>
0

>  <NssNH>
0

>  <NaaNH>
0

>  <NtN>
0

>  <NsssNH>
0

>  <NdsN>
0

>  <NaaN>
0

>  <NsssN>
0

>  <NddsN>
0

>  <NaasN>
0

>  <NssssN>
0

>  <NsOH>
2

>  <NdO>
2

>  <NssO>
1

>  <NaaO>
0

>  <NsF>
0

>  <NsSiH3>
0

>  <NssSiH2>
0

>  <NsssSiH>
0

>  <NssssSi>
0

>  <NsPH2>
0

>  <NssPH>
0

>  <NsssP>
0

>  <NdsssP>
0

>  <NsssssP>
0

>  <NsSH>
0

>  <NdS>
0

>  <NssS>
0

>  <NaaS>
0

>  <NdssS>
0

>  <NddssS>
1

>  <NsCl>
1

>  <NsBr>
0

>  <NsI>
0

>  <fragCpx>
129.07

>  <fMF>
0.36

>  <nHBAcc>
5

>  <nHBDon>
2

>  <Kier1>
19.75

>  <Kier2>
7.55

>  <Lipinski>
1

>  <GhoseFilter>
1

>  <FilterItLogS>
-4.33

>  <VMcGowan>
264.04

>  <LabuteASA>
151.3

>  <PEOE_VSA1>
14.95

>  <PEOE_VSA2>
0

>  <PEOE_VSA3>
8.42

>  <PEOE_VSA4>
0

>  <PEOE_VSA5>
0

>  <PEOE_VSA6>
23.73

>  <PEOE_VSA7>
41.96

>  <PEOE_VSA8>
16.36

>  <PEOE_VSA9>
30.47

>  <PEOE_VSA10>
5.75

>  <PEOE_VSA11>
9.84

>  <PEOE_VSA12>
0

>  <PEOE_VSA13>
0

>  <SMR_VSA1>
23.37

>  <SMR_VSA2>
0

>  <SMR_VSA3>
0

>  <SMR_VSA4>
5.41

>  <SMR_VSA5>
16.06

>  <SMR_VSA6>
20.32

>  <SMR_VSA7>
59.12

>  <SMR_VSA8>
0

>  <SMR_VSA9>
5.75

>  <SlogP_VSA1>
4.74

>  <SlogP_VSA2>
44.2

>  <SlogP_VSA3>
9.84

>  <SlogP_VSA4>
5.41

>  <SlogP_VSA5>
11.48

>  <SlogP_VSA6>
53.43

>  <SlogP_VSA7>
5.02

>  <SlogP_VSA8>
0

>  <SlogP_VSA9>
0

>  <SlogP_VSA10>
0

>  <SlogP_VSA11>
5.75

>  <EState_VSA1>
39.63

>  <EState_VSA2>
4.9

>  <EState_VSA3>
10.77

>  <EState_VSA4>
5.56

>  <EState_VSA5>
24.27

>  <EState_VSA6>
31.38

>  <EState_VSA7>
0

>  <EState_VSA8>
0

>  <EState_VSA9>
16.34

>  <EState_VSA10>
18.63

>  <VSA_EState1>
31.23

>  <VSA_EState2>
0.13

>  <VSA_EState3>
19.23

>  <VSA_EState4>
-0.36

>  <VSA_EState5>
0.16

>  <VSA_EState6>
12.92

>  <VSA_EState7>
0

>  <VSA_EState8>
-0.84

>  <VSA_EState9>
-2.19

>  <apol>
51.82

>  <bpol>
27.96

>  <nRing>
3

>  <nHRing>
0

>  <naRing>
2

>  <naHRing>
0

>  <nARing 2>
1

>  <nAHRing 2>
0

>  <nFRing>
0

>  <nFHRing>
0

>  <nFaRing>
0

>  <nFaHRing>
0

>  <nFARing 2>
0

>  <nFAHRing 2>
0

>  <nRot>
6

>  <SLogP>
2.26

>  <SMR>
94.77

>  <TopoPSA(NO)>
83.83

>  <TopoPSA>
92.21

>  <JGI1>
0.26

>  <JGI2>
0.13

>  <JGI3>
0.09

>  <JGI4>
0.06

>  <JGI5>
0.03

>  <Diameter>
13

>  <Radius>
7

>  <TMWC10>
130.49

>  <TSRW10>
82.01

>  <MW>
382.06

>  <AMW>
8.68

>  <WPath>
1445

>  <WPol>
43

>  <Zagreb1>
136

>  <Zagreb2>
169

>  <mZagreb2>
5.64

>  <yes>


>  <nAR-cont>
0.816016

>  <nHA-cont>
0.921834225

>  <MWHBN>
0.358123033

>  <MWHBN-cont>
0.639583686

>  <TPSA-cont>
0.356316941

>  <pka_cont>
0.97

>  <yes.1>


>  <BBB_SCORE>
3.894859636

>  <MMFF94 Energy>
64.774

$$$$
Compound 2233
Actelion Java MolfileCreator 2.0

  0  0  0  0  0  0              0 V3000
M  V30 BEGIN CTAB
M  V30 COUNTS 32 33 0 0 0
M  V30 BEGIN ATOM
M  V30 1 S -0.6509 -1.2207 2.2795 0
M  V30 2 O 0.2853 -1.7108 1.2876 0
M  V30 3 O -0.2059 -0.4044 3.3923 0
M  V30 4 C -1.9522 -0.2718 1.4884 0 CFG=2
M  V30 5 C -1.5088 -2.6188 2.9518 0
M  V30 6 C -2.3686 -0.7104 0.1029 0 CFG=1
M  V30 7 C -1.6343 0.6181 0.3188 0 CFG=2
M  V30 8 N -1.7083 -1.8481 -0.5862 0
M  V30 9 C -3.7973 -0.5959 -0.1615 0
M  V30 10 C -0.2557 0.9287 -0.2175 0
M  V30 11 N -4.9363 -0.4844 -0.3528 0
M  V30 12 C 0.7677 1.4047 0.6169 0
M  V30 13 C 0.0817 0.7008 -1.5627 0
M  V30 14 C 2.0559 1.6498 0.1293 0
M  V30 15 C 1.3707 0.9456 -2.0572 0
M  V30 16 C 2.3661 1.4209 -1.2091 0
M  V30 17 O 3.6572 1.7025 -1.5571 0
M  V30 18 C 4.035 1.4314 -2.9005 0
M  V30 19 H -2.713 0.0851 2.1723 0
M  V30 20 H -1.9417 -3.1991 2.1355 0
M  V30 21 H -2.2882 -2.2628 3.6283 0
M  V30 22 H -0.7883 -3.2286 3.501 0
M  V30 23 H -2.2691 1.5073 0.2703 0
M  V30 24 H -0.6998 -1.8703 -0.3693 0
M  V30 25 H -1.7564 -1.7371 -1.5994 0
M  V30 26 H 0.5725 1.5956 1.671 0
M  V30 27 H -0.6748 0.343 -2.2575 0
M  V30 28 H 2.8241 2.016 0.8064 0
M  V30 29 H 1.5586 0.7557 -3.1084 0
M  V30 30 H 3.9201 0.3684 -3.1371 0
M  V30 31 H 5.0944 1.6836 -3.0073 0
M  V30 32 H 3.4718 2.056 -3.6017 0
M  V30 END ATOM
M  V30 BEGIN BOND
M  V30 1 2 1 2
M  V30 2 2 1 3
M  V30 3 1 1 4
M  V30 4 1 1 5
M  V30 5 1 4 6
M  V30 6 1 4 7
M  V30 7 1 6 8
M  V30 8 1 6 9
M  V30 9 1 7 10
M  V30 10 3 9 11
M  V30 11 2 10 12
M  V30 12 1 10 13
M  V30 13 1 12 14
M  V30 14 2 13 15
M  V30 15 2 14 16
M  V30 16 1 16 17
M  V30 17 1 17 18
M  V30 18 1 6 7
M  V30 19 1 15 16
M  V30 20 1 4 19
M  V30 21 1 5 20
M  V30 22 1 5 21
M  V30 23 1 5 22
M  V30 24 1 7 23
M  V30 25 1 8 24
M  V30 26 1 8 25
M  V30 27 1 12 26
M  V30 28 1 13 27
M  V30 29 1 14 28
M  V30 30 1 15 29
M  V30 31 1 18 30
M  V30 32 1 18 31
M  V30 33 1 18 32
M  V30 END BOND
M  V30 BEGIN COLLECTION
M  V30 MDLV30/STEABS ATOMS=(3 4 6 7)
M  V30 END COLLECTION
M  V30 END CTAB
M  END
>  <Column 1>
2735

>  <level_0>
3969

>  <index>
3969

>  <Unnamed: 0>
3969

>  <NO.>
3981

>  <Name>
clotrimazole

>  <IUPAC_name>
(1s-2s-3s)-1-amino-2-(4-methoxyphenyl)-3-methylsulfonylcyclopropane-1-carbonitrile

>  <SMILES>
COc1ccc([C@@H]2[C@H](S(C)(=O)=O)[C@@]2(N)C#N)cc1

>  <CID>
100002812

>  <logBB>


>  <BBB+/BBB->
BBB-

>  <Inchi>
InChI=1S/C12H14N2O3S/c1-17-9-5-3-8(4-6-9)10-11(18(2-15)16)12(10-14)7-13/h3-6-10-11H-14H2-1-2H3/t10--11+-12-/m1/s1

>  <threshold>
-1

>  <reference>
R16|R10|R10|

>  <group>
B

>  <Class>
1

>  <ABC>
13.8

>  <ABCGG>
12.85

>  <nAcid>
0

>  <nBase>
1

>  <nAromAtom>
6

>  <nAromBond>
6

>  <nAtom>
32

>  <nHeavyAtom>
18

>  <nSpiro>
0

>  <nBridgehead>
0

>  <nHetero>
6

>  <nN>
2

>  <nO>
3

>  <nF>
0

>  <BalabanJ>
2.02

>  <BertzCT>
603.2

>  <nBonds>
33

>  <nBondsO>
19

>  <nBondsS>
24

>  <nBondsD>
2

>  <nBondsT>
1

>  <nBondsA>
6

>  <nBondsM>
9

>  <nBondsKS>
27

>  <nBondsKD>
5

>  <RNCG>
0.3

>  <RPCG>
0.09

>  <FCSP3>
0.42

>  <SZ>
23.33

>  <Sm>
22.17

>  <Sv>
20.64

>  <Sse>
32.61

>  <Sp>
22.08

>  <Si>
36.04

>  <MZ>
0.73

>  <Mm>
0.69

>  <Mv>
0.65

>  <Mse>
1.02

>  <Mp>
0.69

>  <Mi>
1.13

>  <NsCH3>
2

>  <NdCH2>
0

>  <NssCH2>
0

>  <NtCH>
0

>  <NdsCH>
0

>  <NaaCH>
4

>  <NsssCH>
2

>  <NddC>
0

>  <NtsC>
1

>  <NdssC>
0

>  <NaasC>
2

>  <NaaaC>
0

>  <NssssC>
1

>  <NsNH3>
0

>  <NsNH2>
1

>  <NssNH2>
0

>  <NdNH>
0

>  <NssNH>
0

>  <NaaNH>
0

>  <NtN>
1

>  <NsssNH>
0

>  <NdsN>
0

>  <NaaN>
0

>  <NsssN>
0

>  <NddsN>
0

>  <NaasN>
0

>  <NssssN>
0

>  <NsOH>
0

>  <NdO>
2

>  <NssO>
1

>  <NaaO>
0

>  <NsF>
0

>  <NsSiH3>
0

>  <NssSiH2>
0

>  <NsssSiH>
0

>  <NssssSi>
0

>  <NsPH2>
0

>  <NssPH>
0

>  <NsssP>
0

>  <NdsssP>
0

>  <NsssssP>
0

>  <NsSH>
0

>  <NdS>
0

>  <NssS>
0

>  <NaaS>
0

>  <NdssS>
0

>  <NddssS>
1

>  <NsCl>
0

>  <NsBr>
0

>  <NsI>
0

>  <fragCpx>
55.06

>  <fMF>
0.28

>  <nHBAcc>
5

>  <nHBDon>
1

>  <Kier1>
14.41

>  <Kier2>
4.84

>  <Lipinski>
1

>  <GhoseFilter>
1

>  <FilterItLogS>
-2.32

>  <VMcGowan>
190.64

>  <LabuteASA>
106.09

>  <PEOE_VSA1>
10.47

>  <PEOE_VSA2>
0

>  <PEOE_VSA3>
8.42

>  <PEOE_VSA4>
5.26

>  <PEOE_VSA5>
0

>  <PEOE_VSA6>
12.13

>  <PEOE_VSA7>
17.7

>  <PEOE_VSA8>
12.17

>  <PEOE_VSA9>
13.18

>  <PEOE_VSA10>
16.54

>  <PEOE_VSA11>
9.84

>  <PEOE_VSA12>
0

>  <PEOE_VSA13>
0

>  <SMR_VSA1>
13.15

>  <SMR_VSA2>
5.26

>  <SMR_VSA3>
0

>  <SMR_VSA4>
5.73

>  <SMR_VSA5>
16.71

>  <SMR_VSA6>
13.37

>  <SMR_VSA7>
29.83

>  <SMR_VSA8>
0

>  <SMR_VSA9>
11.82

>  <SlogP_VSA1>
10.47

>  <SlogP_VSA2>
32.57

>  <SlogP_VSA3>
9.84

>  <SlogP_VSA4>
11.33

>  <SlogP_VSA5>
11.48

>  <SlogP_VSA6>
24.27

>  <SlogP_VSA7>
0

>  <SlogP_VSA8>
0

>  <SlogP_VSA9>
0

>  <SlogP_VSA10>
0

>  <SlogP_VSA11>
5.75

>  <EState_VSA1>
26.54

>  <EState_VSA2>
0

>  <EState_VSA3>
5.75

>  <EState_VSA4>
11.82

>  <EState_VSA5>
0

>  <EState_VSA6>
31.38

>  <EState_VSA7>
6.07

>  <EState_VSA8>
0

>  <EState_VSA9>
15.73

>  <EState_VSA10>
8.42

>  <VSA_EState1>
28.27

>  <VSA_EState2>
0

>  <VSA_EState3>
8.24

>  <VSA_EState4>
5.28

>  <VSA_EState5>
0.21

>  <VSA_EState6>
8.86

>  <VSA_EState7>
1.11

>  <VSA_EState8>
0

>  <VSA_EState9>
-1.79

>  <apol>
36.88

>  <bpol>
22.44

>  <nRing>
2

>  <nHRing>
0

>  <naRing>
1

>  <naHRing>
0

>  <nARing 2>
1

>  <nAHRing 2>
0

>  <nFRing>
0

>  <nFHRing>
0

>  <nFaRing>
0

>  <nFaHRing>
0

>  <nFARing 2>
0

>  <nFAHRing 2>
0

>  <nRot>
3

>  <SLogP>
0.43

>  <SMR>
66.9

>  <TopoPSA(NO)>
93.18

>  <TopoPSA>
101.56

>  <JGI1>
0.32

>  <JGI2>
0.14

>  <JGI3>
0.11

>  <JGI4>
0.06

>  <JGI5>
0.03

>  <Diameter>
9

>  <Radius>
5

>  <TMWC10>
112.48

>  <TSRW10>
73.35

>  <MW>
266.07

>  <AMW>
8.31

>  <WPath>
598

>  <WPol>
27

>  <Zagreb1>
98

>  <Zagreb2>
120

>  <mZagreb2>
3.93

>  <yes>


>  <nAR-cont>
0.816016

>  <nHA-cont>
0.991161285

>  <MWHBN>
0.367835208

>  <MWHBN-cont>
0.602262179

>  <TPSA-cont>
0.291048135

>  <pka_cont>
0.97

>  <yes.1>


>  <BBB_SCORE>
3.777666823

>  <MMFF94 Energy>
42.316

$$$$
Compound 2234
Actelion Java MolfileCreator 2.0

  0  0  0  0  0  0              0 V3000
M  V30 BEGIN CTAB
M  V30 COUNTS 35 37 0 0 0
M  V30 BEGIN ATOM
M  V30 1 O -0.9656 -1.0461 -2.4961 0
M  V30 2 C -1.225 -1.5899 -1.428 0
M  V30 3 O -2.4433 -2.1716 -1.1946 0
M  V30 4 C -0.2226 -1.6715 -0.3422 0
M  V30 5 C -2.7129 -2.8663 0.0102 0
M  V30 6 C -0.5027 -2.3695 0.762 0
M  V30 7 C 1.1139 -1.0273 -0.5257 0 CFG=1
M  V30 8 C -1.7825 -2.9787 0.9649 0
M  V30 9 C -4.0886 -3.4403 0.0966 0
M  V30 10 O 0.3958 -2.5235 1.8273 0
M  V30 11 C 1.0667 0.4772 -0.2779 0
M  V30 12 C 2.163 -1.7628 0.3114 0
M  V30 13 C 1.6957 -2.1294 1.6969 0
M  V30 14 C 1.0122 1.3475 -1.3799 0
M  V30 15 C 1.0377 1.0414 1.0046 0
M  V30 16 O 2.465 -2.1521 2.6535 0
M  V30 17 C 0.9499 2.7358 -1.2098 0
M  V30 18 C 0.9783 2.4293 1.171 0
M  V30 19 C 0.9356 3.2838 0.0695 0
M  V30 20 O 0.8768 4.6144 0.3774 0
M  V30 21 C 0.8245 5.5237 -0.7144 0
M  V30 22 H 1.4357 -1.1758 -1.5666 0
M  V30 23 H -1.9738 -3.507 1.8936 0
M  V30 24 H -4.2546 -4.1486 -0.721 0
M  V30 25 H -4.8357 -2.6439 0.0216 0
M  V30 26 H -4.2524 -3.9696 1.0408 0
M  V30 27 H 3.076 -1.1613 0.397 0
M  V30 28 H 2.4386 -2.7056 -0.1789 0
M  V30 29 H 1.0044 0.9495 -2.3945 0
M  V30 30 H 1.0543 0.4307 1.9025 0
M  V30 31 H 0.9075 3.355 -2.0995 0
M  V30 32 H 0.961 2.8488 2.1746 0
M  V30 33 H 1.7263 5.4522 -1.3313 0
M  V30 34 H 0.7821 6.5371 -0.3036 0
M  V30 35 H -0.0787 5.3695 -1.3138 0
M  V30 END ATOM
M  V30 BEGIN BOND
M  V30 1 2 1 2
M  V30 2 1 2 3
M  V30 3 1 2 4
M  V30 4 1 3 5
M  V30 5 2 4 6
M  V30 6 1 4 7
M  V30 7 2 5 8
M  V30 8 1 5 9
M  V30 9 1 6 10
M  V30 10 1 7 11
M  V30 11 1 7 12
M  V30 12 1 10 13
M  V30 13 2 11 14
M  V30 14 1 11 15
M  V30 15 2 13 16
M  V30 16 1 14 17
M  V30 17 2 15 18
M  V30 18 2 17 19
M  V30 19 1 19 20
M  V30 20 1 20 21
M  V30 21 1 6 8
M  V30 22 1 12 13
M  V30 23 1 18 19
M  V30 24 1 7 22
M  V30 25 1 8 23
M  V30 26 1 9 24
M  V30 27 1 9 25
M  V30 28 1 9 26
M  V30 29 1 12 27
M  V30 30 1 12 28
M  V30 31 1 14 29
M  V30 32 1 15 30
M  V30 33 1 17 31
M  V30 34 1 18 32
M  V30 35 1 21 33
M  V30 36 1 21 34
M  V30 37 1 21 35
M  V30 END BOND
M  V30 BEGIN COLLECTION
M  V30 MDLV30/STEABS ATOMS=(1 7)
M  V30 END COLLECTION
M  V30 END CTAB
M  END
>  <Column 1>
2736

>  <level_0>
3970

>  <index>
3970

>  <Unnamed: 0>
3970

>  <NO.>
3982

>  <Name>
mianserin

>  <IUPAC_name>
(4r)-4-(4-methoxyphenyl)-7-methyl-3-4-dihydropyrano[3-2-c]pyran-2-5-dione

>  <SMILES>
COc1ccc([C@H]2CC(=O)Oc3cc(C)oc(=O)c32)cc1

>  <CID>
100004184

>  <logBB>


>  <BBB+/BBB->
BBB+

>  <Inchi>
InChI=1S/C16H14O5/c1-9-7-13-15(16(18)20-9)12(8-14(17)21-13)10-3-5-11(19-2)6-4-10/h3-7-12H-8H2-1-2H3/t12-/m1/s1

>  <threshold>
-1

>  <reference>
R16|R10|

>  <group>
B

>  <Class>
-1

>  <ABC>
16.43

>  <ABCGG>
13.21

>  <nAcid>
0

>  <nBase>
0

>  <nAromAtom>
12

>  <nAromBond>
12

>  <nAtom>
35

>  <nHeavyAtom>
21

>  <nSpiro>
0

>  <nBridgehead>
0

>  <nHetero>
5

>  <nN>
0

>  <nO>
5

>  <nF>
0

>  <BalabanJ>
1.7

>  <BertzCT>
742.25

>  <nBonds>
37

>  <nBondsO>
23

>  <nBondsS>
23

>  <nBondsD>
2

>  <nBondsT>
0

>  <nBondsA>
12

>  <nBondsM>
14

>  <nBondsKS>
30

>  <nBondsKD>
7

>  <RNCG>
0.24

>  <RPCG>
0.17

>  <FCSP3>
0.25

>  <SZ>
25

>  <Sm>
23.84

>  <Sv>
23.37

>  <Sse>
35.87

>  <Sp>
23.99

>  <Si>
38.95

>  <MZ>
0.71

>  <Mm>
0.68

>  <Mv>
0.67

>  <Mse>
1.02

>  <Mp>
0.69

>  <Mi>
1.11

>  <NsCH3>
2

>  <NdCH2>
0

>  <NssCH2>
1

>  <NtCH>
0

>  <NdsCH>
0

>  <NaaCH>
5

>  <NsssCH>
1

>  <NddC>
0

>  <NtsC>
0

>  <NdssC>
1

>  <NaasC>
5

>  <NaaaC>
0

>  <NssssC>
0

>  <NsNH3>
0

>  <NsNH2>
0

>  <NssNH2>
0

>  <NdNH>
0

>  <NssNH>
0

>  <NaaNH>
0

>  <NtN>
0

>  <NsssNH>
0

>  <NdsN>
0

>  <NaaN>
0

>  <NsssN>
0

>  <NddsN>
0

>  <NaasN>
0

>  <NssssN>
0

>  <NsOH>
0

>  <NdO>
2

>  <NssO>
2

>  <NaaO>
1

>  <NsF>
0

>  <NsSiH3>
0

>  <NssSiH2>
0

>  <NsssSiH>
0

>  <NssssSi>
0

>  <NsPH2>
0

>  <NssPH>
0

>  <NsssP>
0

>  <NdsssP>
0

>  <NsssssP>
0

>  <NsSH>
0

>  <NdS>
0

>  <NssS>
0

>  <NaaS>
0

>  <NdssS>
0

>  <NddssS>
0

>  <NsCl>
0

>  <NsBr>
0

>  <NsI>
0

>  <fragCpx>
109.05

>  <fMF>
0.46

>  <nHBAcc>
5

>  <nHBDon>
0

>  <Kier1>
15.88

>  <Kier2>
6.63

>  <Lipinski>
1

>  <GhoseFilter>
1

>  <FilterItLogS>
-4.43

>  <VMcGowan>
202.97

>  <LabuteASA>
120.66

>  <PEOE_VSA1>
13.89

>  <PEOE_VSA2>
4.79

>  <PEOE_VSA3>
4.79

>  <PEOE_VSA4>
0

>  <PEOE_VSA5>
0

>  <PEOE_VSA6>
12.13

>  <PEOE_VSA7>
24.62

>  <PEOE_VSA8>
11.98

>  <PEOE_VSA9>
19.09

>  <PEOE_VSA10>
17.26

>  <PEOE_VSA11>
0

>  <PEOE_VSA12>
0

>  <PEOE_VSA13>
0

>  <SMR_VSA1>
18.69

>  <SMR_VSA2>
0

>  <SMR_VSA3>
0

>  <SMR_VSA4>
0

>  <SMR_VSA5>
19.26

>  <SMR_VSA6>
7.11

>  <SMR_VSA7>
57.64

>  <SMR_VSA8>
0

>  <SMR_VSA9>
11.5

>  <SlogP_VSA1>
15.1

>  <SlogP_VSA2>
13.08

>  <SlogP_VSA3>
4.79

>  <SlogP_VSA4>
6.92

>  <SlogP_VSA5>
29.23

>  <SlogP_VSA6>
39.54

>  <SlogP_VSA7>
0

>  <SlogP_VSA8>
0

>  <SlogP_VSA9>
0

>  <SlogP_VSA10>
0

>  <SlogP_VSA11>
11.5

>  <EState_VSA1>
5.63

>  <EState_VSA2>
18.31

>  <EState_VSA3>
22.82

>  <EState_VSA4>
5.56

>  <EState_VSA5>
0

>  <EState_VSA6>
32.23

>  <EState_VSA7>
12.13

>  <EState_VSA8>
0

>  <EState_VSA9>
13.89

>  <EState_VSA10>
9.59

>  <VSA_EState1>
15.42

>  <VSA_EState2>
23.89

>  <VSA_EState3>
0

>  <VSA_EState4>
0.79

>  <VSA_EState5>
0.72

>  <VSA_EState6>
8.84

>  <VSA_EState7>
0.12

>  <VSA_EState8>
1.65

>  <VSA_EState9>
1.58

>  <apol>
40.07

>  <bpol>
20.99

>  <nRing>
3

>  <nHRing>
2

>  <naRing>
2

>  <naHRing>
1

>  <nARing 2>
1

>  <nAHRing 2>
1

>  <nFRing>
1

>  <nFHRing>
1

>  <nFaRing>
0

>  <nFaHRing>
0

>  <nFARing 2>
1

>  <nFAHRing 2>
1

>  <nRot>
2

>  <SLogP>
2.4

>  <SMR>
74.8

>  <TopoPSA(NO)>
65.74

>  <TopoPSA>
65.74

>  <JGI1>
0.22

>  <JGI2>
0.07

>  <JGI3>
0.05

>  <JGI4>
0.05

>  <JGI5>
0.03

>  <Diameter>
11

>  <Radius>
6

>  <TMWC10>
118.56

>  <TSRW10>
55.23

>  <MW>
286.08

>  <AMW>
8.17

>  <WPath>
884

>  <WPol>
35

>  <Zagreb1>
112

>  <Zagreb2>
133

>  <mZagreb2>
4.61

>  <yes>


>  <nAR-cont>
0.816016

>  <nHA-cont>
0.994529749

>  <MWHBN>
0.295614856

>  <MWHBN-cont>
0.853639475

>  <TPSA-cont>
0.541093978

>  <pka_cont>
0.97

>  <yes.1>


>  <BBB_SCORE>
4.658192918

>  <MMFF94 Energy>
26.319

$$$$
Compound 2235
Actelion Java MolfileCreator 2.0

  0  0  0  0  0  0              0 V3000
M  V30 BEGIN CTAB
M  V30 COUNTS 37 39 0 0 0
M  V30 BEGIN ATOM
M  V30 1 Cl 0.4966 -2.6506 -5.7219 0
M  V30 2 C 0.5787 -2.7871 -4.0094 0
M  V30 3 C -0.3762 -3.5442 -3.3289 0
M  V30 4 C 1.6017 -2.1424 -3.3125 0
M  V30 5 C -0.3141 -3.6556 -1.9382 0
M  V30 6 C 1.6707 -2.2497 -1.922 0
M  V30 7 C 0.7037 -2.9973 -1.2418 0
M  V30 8 S 0.7909 -3.1317 0.5247 0
M  V30 9 O -0.0142 -4.2624 0.9357 0
M  V30 10 O 2.1807 -3.0115 0.9162 0
M  V30 11 C -0.0918 -1.6661 1.0909 0 CFG=1
M  V30 12 C 0.2612 -1.2882 2.5046 0 CFG=1
M  V30 13 C 0.7705 -0.4533 1.3415 0 CFG=2
M  V30 14 C -0.8031 -0.8446 3.3561 0
M  V30 15 C 0.2385 0.9213 1.0041 0
M  V30 16 N -1.6635 -0.4922 4.0487 0
M  V30 17 C -0.3652 1.186 -0.2353 0
M  V30 18 C 0.2372 1.9609 1.9481 0
M  V30 19 C -0.9134 2.4395 -0.5256 0
M  V30 20 C -0.3143 3.2174 1.6629 0
M  V30 21 C -0.8923 3.4621 0.4209 0
M  V30 22 O -1.463 4.6344 0.0121 0
M  V30 23 C -1.5091 5.6918 0.9624 0
M  V30 24 H -1.1658 -4.0533 -3.8766 0
M  V30 25 H 2.35 -1.5626 -3.8478 0
M  V30 26 H -1.0551 -4.2572 -1.4148 0
M  V30 27 H 2.4795 -1.7571 -1.3858 0
M  V30 28 H -1.1149 -1.5523 0.7609 0
M  V30 29 H 1.0102 -1.8809 3.0225 0
M  V30 30 H 1.8404 -0.5464 1.1562 0
M  V30 31 H -0.4077 0.4149 -1.0012 0
M  V30 32 H 0.6753 1.8012 2.9321 0
M  V30 33 H -1.3665 2.6178 -1.498 0
M  V30 34 H -0.2783 3.9763 2.4376 0
M  V30 35 H -2.0957 5.4074 1.8423 0
M  V30 36 H -2.0085 6.5436 0.4907 0
M  V30 37 H -0.5009 6.0117 1.2451 0
M  V30 END ATOM
M  V30 BEGIN BOND
M  V30 1 1 1 2
M  V30 2 2 2 3
M  V30 3 1 2 4
M  V30 4 1 3 5
M  V30 5 2 4 6
M  V30 6 2 5 7
M  V30 7 1 7 8
M  V30 8 2 8 9
M  V30 9 2 8 10
M  V30 10 1 8 11
M  V30 11 1 11 12
M  V30 12 1 11 13
M  V30 13 1 12 14
M  V30 14 1 13 15
M  V30 15 3 14 16
M  V30 16 2 15 17
M  V30 17 1 15 18
M  V30 18 1 17 19
M  V30 19 2 18 20
M  V30 20 2 19 21
M  V30 21 1 21 22
M  V30 22 1 22 23
M  V30 23 1 6 7
M  V30 24 1 12 13
M  V30 25 1 20 21
M  V30 26 1 3 24
M  V30 27 1 4 25
M  V30 28 1 5 26
M  V30 29 1 6 27
M  V30 30 1 11 28
M  V30 31 1 12 29
M  V30 32 1 13 30
M  V30 33 1 17 31
M  V30 34 1 18 32
M  V30 35 1 19 33
M  V30 36 1 20 34
M  V30 37 1 23 35
M  V30 38 1 23 36
M  V30 39 1 23 37
M  V30 END BOND
M  V30 BEGIN COLLECTION
M  V30 MDLV30/STEABS ATOMS=(3 11 12 13)
M  V30 END COLLECTION
M  V30 END CTAB
M  END
>  <Column 1>
2737

>  <level_0>
3971

>  <index>
3971

>  <Unnamed: 0>
3971

>  <NO.>
3983

>  <Name>
papaverine

>  <IUPAC_name>
(1s-2r-3r)-2-(4-chlorophenyl)sulfonyl-3-(4-methoxyphenyl)cyclopropane-1-carbonitrile

>  <SMILES>
COc1ccc([C@H]2[C@@H](C#N)[C@@H]2S(=O)(=O)c2ccc(Cl)cc2)cc1

>  <CID>
100004680

>  <logBB>


>  <BBB+/BBB->
BBB-

>  <Inchi>
InChI=1S/C17H14ClNO3S/c1-22-13-6-2-11(3-7-13)16-15(10-19)17(16)23(20-21)14-8-4-12(18)5-9-14/h2-9-15-17H-1H3/t15--16+-17+/m1/s1

>  <threshold>
-1

>  <reference>
R16|R10|R10|

>  <group>
B

>  <Class>
1

>  <ABC>
17.82

>  <ABCGG>
15.24

>  <nAcid>
0

>  <nBase>
0

>  <nAromAtom>
12

>  <nAromBond>
12

>  <nAtom>
37

>  <nHeavyAtom>
23

>  <nSpiro>
0

>  <nBridgehead>
0

>  <nHetero>
6

>  <nN>
1

>  <nO>
3

>  <nF>
0

>  <BalabanJ>
1.62

>  <BertzCT>
854.21

>  <nBonds>
39

>  <nBondsO>
25

>  <nBondsS>
24

>  <nBondsD>
2

>  <nBondsT>
1

>  <nBondsA>
12

>  <nBondsM>
15

>  <nBondsKS>
30

>  <nBondsKD>
8

>  <RNCG>
0.31

>  <RPCG>
0.12

>  <FCSP3>
0.24

>  <SZ>
30

>  <Sm>
28.96

>  <Sv>
25.97

>  <Sse>
37.71

>  <Sp>
27.73

>  <Si>
40.9

>  <MZ>
0.81

>  <Mm>
0.78

>  <Mv>
0.7

>  <Mse>
1.02

>  <Mp>
0.75

>  <Mi>
1.11

>  <NsCH3>
1

>  <NdCH2>
0

>  <NssCH2>
0

>  <NtCH>
0

>  <NdsCH>
0

>  <NaaCH>
8

>  <NsssCH>
3

>  <NddC>
0

>  <NtsC>
1

>  <NdssC>
0

>  <NaasC>
4

>  <NaaaC>
0

>  <NssssC>
0

>  <NsNH3>
0

>  <NsNH2>
0

>  <NssNH2>
0

>  <NdNH>
0

>  <NssNH>
0

>  <NaaNH>
0

>  <NtN>
1

>  <NsssNH>
0

>  <NdsN>
0

>  <NaaN>
0

>  <NsssN>
0

>  <NddsN>
0

>  <NaasN>
0

>  <NssssN>
0

>  <NsOH>
0

>  <NdO>
2

>  <NssO>
1

>  <NaaO>
0

>  <NsF>
0

>  <NsSiH3>
0

>  <NssSiH2>
0

>  <NsssSiH>
0

>  <NssssSi>
0

>  <NsPH2>
0

>  <NssPH>
0

>  <NsssP>
0

>  <NdsssP>
0

>  <NsssssP>
0

>  <NsSH>
0

>  <NdS>
0

>  <NssS>
0

>  <NaaS>
0

>  <NdssS>
0

>  <NddssS>
1

>  <NsCl>
1

>  <NsBr>
0

>  <NsI>
0

>  <fragCpx>
119.06

>  <fMF>
0.43

>  <nHBAcc>
4

>  <nHBDon>
0

>  <Kier1>
17.81

>  <Kier2>
7.09

>  <Lipinski>
1

>  <GhoseFilter>
1

>  <FilterItLogS>
-4.56

>  <VMcGowan>
239.59

>  <LabuteASA>
139.74

>  <PEOE_VSA1>
4.74

>  <PEOE_VSA2>
0

>  <PEOE_VSA3>
8.42

>  <PEOE_VSA4>
5.26

>  <PEOE_VSA5>
0

>  <PEOE_VSA6>
23.73

>  <PEOE_VSA7>
41.96

>  <PEOE_VSA8>
10.94

>  <PEOE_VSA9>
29.24

>  <PEOE_VSA10>
5.75

>  <PEOE_VSA11>
9.84

>  <PEOE_VSA12>
0

>  <PEOE_VSA13>
0

>  <SMR_VSA1>
13.15

>  <SMR_VSA2>
5.26

>  <SMR_VSA3>
0

>  <SMR_VSA4>
5.92

>  <SMR_VSA5>
16.06

>  <SMR_VSA6>
7.11

>  <SMR_VSA7>
59.12

>  <SMR_VSA8>
0

>  <SMR_VSA9>
11.82

>  <SlogP_VSA1>
4.74

>  <SlogP_VSA2>
20.78

>  <SlogP_VSA3>
9.84

>  <SlogP_VSA4>
17.25

>  <SlogP_VSA5>
11.48

>  <SlogP_VSA6>
53.43

>  <SlogP_VSA7>
5.02

>  <SlogP_VSA8>
0

>  <SlogP_VSA9>
0

>  <SlogP_VSA10>
0

>  <SlogP_VSA11>
5.75

>  <EState_VSA1>
21.01

>  <EState_VSA2>
10.81

>  <EState_VSA3>
10.77

>  <EState_VSA4>
5.56

>  <EState_VSA5>
12.13

>  <EState_VSA6>
31.38

>  <EState_VSA7>
12.13

>  <EState_VSA8>
6.07

>  <EState_VSA9>
16.34

>  <EState_VSA10>
13.68

>  <VSA_EState1>
30.63

>  <VSA_EState2>
0.2

>  <VSA_EState3>
9.06

>  <VSA_EState4>
0.83

>  <VSA_EState5>
-0.16

>  <VSA_EState6>
15.33

>  <VSA_EState7>
0

>  <VSA_EState8>
0

>  <VSA_EState9>
-2

>  <apol>
46.31

>  <bpol>
23.52

>  <nRing>
3

>  <nHRing>
0

>  <naRing>
2

>  <naHRing>
0

>  <nARing 2>
1

>  <nAHRing 2>
0

>  <nFRing>
0

>  <nFHRing>
0

>  <nFaRing>
0

>  <nFaHRing>
0

>  <nFARing 2>
0

>  <nFAHRing 2>
0

>  <nRot>
4

>  <SLogP>
3.43

>  <SMR>
87.26

>  <TopoPSA(NO)>
67.16

>  <TopoPSA>
75.54

>  <JGI1>
0.22

>  <JGI2>
0.12

>  <JGI3>
0.08

>  <JGI4>
0.06

>  <JGI5>
0.03

>  <Diameter>
13

>  <Radius>
7

>  <TMWC10>
124.7

>  <TSRW10>
78.53

>  <MW>
347.04

>  <AMW>
9.38

>  <WPath>
1213

>  <WPol>
37

>  <Zagreb1>
124

>  <Zagreb2>
151

>  <mZagreb2>
5.11

>  <yes>


>  <nAR-cont>
0.816016

>  <nHA-cont>
0.967789328

>  <MWHBN>
0.214718875

>  <MWHBN-cont>
0.997753547

>  <TPSA-cont>
0.472683892

>  <pka_cont>
0.97

>  <yes.1>


>  <BBB_SCORE>
4.710803433

>  <MMFF94 Energy>
45.988

$$$$
Compound 2236
Actelion Java MolfileCreator 2.0

  0  0  0  0  0  0              0 V3000
M  V30 BEGIN CTAB
M  V30 COUNTS 42 44 0 0 0
M  V30 BEGIN ATOM
M  V30 1 S -0.0816 0.0816 -1.0617 0
M  V30 2 O -0.9632 -0.6152 -0.1536 0
M  V30 3 O 0.3942 -0.5461 -2.2786 0
M  V30 4 C -0.8717 1.601 -1.5323 0
M  V30 5 C 1.3889 0.6423 -0.1999 0 CFG=1
M  V30 6 C -2.0198 2.0281 -0.863 0
M  V30 7 C -0.3401 2.3469 -2.5872 0
M  V30 8 C 1.2399 1.0626 1.2481 0 CFG=2
M  V30 9 C 2.0117 -0.2088 0.87 0 CFG=1
M  V30 10 C -2.6216 3.2314 -1.2337 0
M  V30 11 C -0.9486 3.5485 -2.9526 0
M  V30 12 C -0.0087 0.9808 1.9548 0
M  V30 13 C 2.0449 2.2525 1.6691 0
M  V30 14 C 1.5942 -1.6194 1.2145 0
M  V30 15 C -2.0826 4.0076 -2.2687 0
M  V30 16 N -0.9869 1.0259 2.5759 0
M  V30 17 O 3.1219 2.5167 1.1455 0
M  V30 18 C 1.1655 -1.9807 2.5009 0
M  V30 19 C 1.5596 -2.6248 0.232 0
M  V30 20 C -2.7573 5.2809 -2.6893 0
M  V30 21 C 0.7387 -3.2816 2.7911 0
M  V30 22 C 1.1294 -3.9279 0.5166 0
M  V30 23 C 0.7142 -4.2615 1.8014 0
M  V30 24 O 0.2756 -5.4878 2.2157 0
M  V30 25 C 0.1278 -6.4858 1.2137 0
M  V30 26 H 2.0782 1.1935 -0.8287 0
M  V30 27 H -2.4603 1.436 -0.0622 0
M  V30 28 H 0.5315 1.9989 -3.1369 0
M  V30 29 H 3.0993 -0.109 0.9259 0
M  V30 30 H -3.5208 3.5574 -0.7135 0
M  V30 31 H -0.5389 4.1235 -3.7811 0
M  V30 32 H 1.6311 2.8843 2.475 0
M  V30 33 H 1.1657 -1.2543 3.3101 0
M  V30 34 H 1.8748 -2.4009 -0.7862 0
M  V30 35 H -3.5084 5.0704 -3.4568 0
M  V30 36 H -3.247 5.7632 -1.8366 0
M  V30 37 H -2.0297 5.9938 -3.0911 0
M  V30 38 H 0.4133 -3.528 3.7991 0
M  V30 39 H 1.1288 -4.6505 -0.2922 0
M  V30 40 H -0.5838 -6.1719 0.4429 0
M  V30 41 H -0.275 -7.3832 1.6929 0
M  V30 42 H 1.0959 -6.749 0.7753 0
M  V30 END ATOM
M  V30 BEGIN BOND
M  V30 1 2 1 2
M  V30 2 2 1 3
M  V30 3 1 1 4
M  V30 4 1 1 5
M  V30 5 2 4 6
M  V30 6 1 4 7
M  V30 7 1 5 8
M  V30 8 1 5 9
M  V30 9 1 6 10
M  V30 10 2 7 11
M  V30 11 1 8 12
M  V30 12 1 8 13
M  V30 13 1 9 14
M  V30 14 2 10 15
M  V30 15 3 12 16
M  V30 16 2 13 17
M  V30 17 2 14 18
M  V30 18 1 14 19
M  V30 19 1 15 20
M  V30 20 1 18 21
M  V30 21 2 19 22
M  V30 22 2 21 23
M  V30 23 1 23 24
M  V30 24 1 24 25
M  V30 25 1 8 9
M  V30 26 1 11 15
M  V30 27 1 22 23
M  V30 28 1 5 26
M  V30 29 1 6 27
M  V30 30 1 7 28
M  V30 31 1 9 29
M  V30 32 1 10 30
M  V30 33 1 11 31
M  V30 34 1 13 32
M  V30 35 1 18 33
M  V30 36 1 19 34
M  V30 37 1 20 35
M  V30 38 1 20 36
M  V30 39 1 20 37
M  V30 40 1 21 38
M  V30 41 1 22 39
M  V30 42 1 25 40
M  V30 43 1 25 41
M  V30 44 1 25 42
M  V30 END BOND
M  V30 BEGIN COLLECTION
M  V30 MDLV30/STEABS ATOMS=(3 5 8 9)
M  V30 END COLLECTION
M  V30 END CTAB
M  END
>  <Column 1>
2738

>  <level_0>
3972

>  <index>
3972

>  <Unnamed: 0>
3972

>  <NO.>
3984

>  <Name>
methylphenidate

>  <IUPAC_name>
(1r-2r-3r)-1-formyl-2-(4-methoxyphenyl)-3-(4-methylphenyl)sulfonylcyclopropane-1-carbonitrile

>  <SMILES>
COc1ccc([C@H]2[C@@H](S(=O)(=O)c3ccc(C)cc3)[C@]2(C#N)C=O)cc1

>  <CID>
100004158

>  <logBB>


>  <BBB+/BBB->
BBB+

>  <Inchi>
InChI=1S/C19H17NO4S/c1-13-3-9-16(10-4-13)25(22-23)18-17(19(18-11-20)12-21)14-5-7-15(24-2)8-6-14/h3-10-12-17-18H-1-2H3/t17--18+-19+/m0/s1

>  <threshold>
-1

>  <reference>
R16|R10|R10|

>  <group>
B

>  <Class>
1

>  <ABC>
19.19

>  <ABCGG>
16.69

>  <nAcid>
0

>  <nBase>
0

>  <nAromAtom>
12

>  <nAromBond>
12

>  <nAtom>
42

>  <nHeavyAtom>
25

>  <nSpiro>
0

>  <nBridgehead>
0

>  <nHetero>
6

>  <nN>
1

>  <nO>
4

>  <nF>
0

>  <BalabanJ>
1.74

>  <BertzCT>
942.41

>  <nBonds>
44

>  <nBondsO>
27

>  <nBondsS>
28

>  <nBondsD>
3

>  <nBondsT>
1

>  <nBondsA>
12

>  <nBondsM>
16

>  <nBondsKS>
34

>  <nBondsKD>
9

>  <RNCG>
0.26

>  <RPCG>
0.1

>  <FCSP3>
0.26

>  <SZ>
31

>  <Sm>
29.59

>  <Sv>
28.41

>  <Sse>
42.61

>  <Sp>
30.1

>  <Si>
46.58

>  <MZ>
0.74

>  <Mm>
0.7

>  <Mv>
0.68

>  <Mse>
1.01

>  <Mp>
0.72

>  <Mi>
1.11

>  <NsCH3>
2

>  <NdCH2>
0

>  <NssCH2>
0

>  <NtCH>
0

>  <NdsCH>
1

>  <NaaCH>
8

>  <NsssCH>
2

>  <NddC>
0

>  <NtsC>
1

>  <NdssC>
0

>  <NaasC>
4

>  <NaaaC>
0

>  <NssssC>
1

>  <NsNH3>
0

>  <NsNH2>
0

>  <NssNH2>
0

>  <NdNH>
0

>  <NssNH>
0

>  <NaaNH>
0

>  <NtN>
1

>  <NsssNH>
0

>  <NdsN>
0

>  <NaaN>
0

>  <NsssN>
0

>  <NddsN>
0

>  <NaasN>
0

>  <NssssN>
0

>  <NsOH>
0

>  <NdO>
3

>  <NssO>
1

>  <NaaO>
0

>  <NsF>
0

>  <NsSiH3>
0

>  <NssSiH2>
0

>  <NsssSiH>
0

>  <NssssSi>
0

>  <NsPH2>
0

>  <NssPH>
0

>  <NsssP>
0

>  <NdsssP>
0

>  <NsssssP>
0

>  <NsSH>
0

>  <NdS>
0

>  <NssS>
0

>  <NaaS>
0

>  <NdssS>
0

>  <NddssS>
1

>  <NsCl>
0

>  <NsBr>
0

>  <NsI>
0

>  <fragCpx>
129.06

>  <fMF>
0.38

>  <nHBAcc>
5

>  <nHBDon>
0

>  <Kier1>
19.75

>  <Kier2>
7.55

>  <Lipinski>
1

>  <GhoseFilter>
1

>  <FilterItLogS>
-4.49

>  <VMcGowan>
257.1

>  <LabuteASA>
146.33

>  <PEOE_VSA1>
9.53

>  <PEOE_VSA2>
0

>  <PEOE_VSA3>
8.42

>  <PEOE_VSA4>
5.26

>  <PEOE_VSA5>
0

>  <PEOE_VSA6>
29.83

>  <PEOE_VSA7>
36.75

>  <PEOE_VSA8>
5.92

>  <PEOE_VSA9>
18.07

>  <PEOE_VSA10>
22.7

>  <PEOE_VSA11>
9.84

>  <PEOE_VSA12>
0

>  <PEOE_VSA13>
0

>  <SMR_VSA1>
17.95

>  <SMR_VSA2>
5.26

>  <SMR_VSA3>
0

>  <SMR_VSA4>
5.41

>  <SMR_VSA5>
22.99

>  <SMR_VSA6>
7.11

>  <SMR_VSA7>
59.66

>  <SMR_VSA8>
0

>  <SMR_VSA9>
11.82

>  <SlogP_VSA1>
4.74

>  <SlogP_VSA2>
27.06

>  <SlogP_VSA3>
14.63

>  <SlogP_VSA4>
23.67

>  <SlogP_VSA5>
17.04

>  <SlogP_VSA6>
53.43

>  <SlogP_VSA7>
0

>  <SlogP_VSA8>
0

>  <SlogP_VSA9>
0

>  <SlogP_VSA10>
0

>  <SlogP_VSA11>
5.75

>  <EState_VSA1>
26.42

>  <EState_VSA2>
4.9

>  <EState_VSA3>
17.6

>  <EState_VSA4>
5.56

>  <EState_VSA5>
19.24

>  <EState_VSA6>
36.4

>  <EState_VSA7>
12.99

>  <EState_VSA8>
0

>  <EState_VSA9>
4.74

>  <EState_VSA10>
18.47

>  <VSA_EState1>
31.12

>  <VSA_EState2>
11.78

>  <VSA_EState3>
8.46

>  <VSA_EState4>
0.01

>  <VSA_EState5>
-0.07

>  <VSA_EState6>
15.15

>  <VSA_EState7>
0.47

>  <VSA_EState8>
1.86

>  <VSA_EState9>
-2.28

>  <apol>
50.27

>  <bpol>
26.88

>  <nRing>
3

>  <nHRing>
0

>  <naRing>
2

>  <naHRing>
0

>  <nARing 2>
1

>  <nAHRing 2>
0

>  <nFRing>
0

>  <nFHRing>
0

>  <nFaRing>
0

>  <nFaHRing>
0

>  <nFARing 2>
0

>  <nFAHRing 2>
0

>  <nRot>
5

>  <SLogP>
2.65

>  <SMR>
92

>  <TopoPSA(NO)>
84.23

>  <TopoPSA>
92.61

>  <JGI1>
0.26

>  <JGI2>
0.13

>  <JGI3>
0.09

>  <JGI4>
0.06

>  <JGI5>
0.03

>  <Diameter>
13

>  <Radius>
7

>  <TMWC10>
130.49

>  <TSRW10>
82.01

>  <MW>
355.09

>  <AMW>
8.45

>  <WPath>
1445

>  <WPol>
43

>  <Zagreb1>
136

>  <Zagreb2>
169

>  <mZagreb2>
5.64

>  <yes>


>  <nAR-cont>
0.816016

>  <nHA-cont>
0.921834225

>  <MWHBN>
0.265338814

>  <MWHBN-cont>
0.930394867

>  <TPSA-cont>
0.353524693

>  <pka_cont>
0.97

>  <yes.1>


>  <BBB_SCORE>
4.32549191

>  <MMFF94 Energy>
36.181

$$$$
Compound 2237
Actelion Java MolfileCreator 2.0

  0  0  0  0  0  0              0 V3000
M  V30 BEGIN CTAB
M  V30 COUNTS 38 40 0 0 0
M  V30 BEGIN ATOM
M  V30 1 Cl -2.4938 -5.6591 -3.8257 0
M  V30 2 C -2.0125 -4.4117 -2.7441 0
M  V30 3 C -1.9353 -3.094 -3.1964 0
M  V30 4 C -1.7086 -4.7251 -1.4183 0
M  V30 5 C -1.5458 -2.0785 -2.3203 0
M  V30 6 C -1.3166 -3.7156 -0.5366 0
M  V30 7 C -1.2235 -2.398 -0.9979 0
M  V30 8 S -0.7257 -1.1171 0.13 0
M  V30 9 O -1.0106 0.1551 -0.4898 0
M  V30 10 O -1.2677 -1.4631 1.4288 0
M  V30 11 C 1.0457 -1.3574 0.2773 0 CFG=1
M  V30 12 C 1.9166 -0.7667 -0.7997 0
M  V30 13 C 1.9343 -0.1875 0.6123 0 CFG=1
M  V30 14 C 3.0487 -1.5624 -1.1922 0
M  V30 15 C 1.4085 -0.0379 -1.9234 0
M  V30 16 C 1.4504 1.1916 0.9942 0
M  V30 17 N 3.9525 -2.2372 -1.4609 0
M  V30 18 N 1.0374 0.5047 -2.8792 0
M  V30 19 C 1.7978 2.3363 0.2608 0
M  V30 20 C 0.5733 1.3773 2.0778 0
M  V30 21 C 1.3041 3.6006 0.6024 0
M  V30 22 C 0.0734 2.6409 2.4211 0
M  V30 23 C 0.437 3.7607 1.6809 0
M  V30 24 O 0.0287 5.0451 1.9057 0
M  V30 25 C -0.9413 5.2397 2.9272 0
M  V30 26 H -2.1842 -2.8499 -4.2267 0
M  V30 27 H -1.7854 -5.7514 -1.0667 0
M  V30 28 H -1.5075 -1.051 -2.6804 0
M  V30 29 H -1.1037 -3.9646 0.5009 0
M  V30 30 H 1.3257 -2.3099 0.711 0
M  V30 31 H 2.8109 -0.4608 1.2063 0
M  V30 32 H 2.4725 2.2701 -0.5896 0
M  V30 33 H 0.2627 0.525 2.681 0
M  V30 34 H 1.5936 4.4678 0.0132 0
M  V30 35 H -0.5998 2.7087 3.2691 0
M  V30 36 H -1.8592 4.6817 2.7141 0
M  V30 37 H -1.1959 6.3037 2.9481 0
M  V30 38 H -0.5363 4.9752 3.9095 0
M  V30 END ATOM
M  V30 BEGIN BOND
M  V30 1 1 1 2
M  V30 2 2 2 3
M  V30 3 1 2 4
M  V30 4 1 3 5
M  V30 5 2 4 6
M  V30 6 2 5 7
M  V30 7 1 7 8
M  V30 8 2 8 9
M  V30 9 2 8 10
M  V30 10 1 8 11
M  V30 11 1 11 12
M  V30 12 1 11 13
M  V30 13 1 12 14
M  V30 14 1 12 15
M  V30 15 1 13 16
M  V30 16 3 14 17
M  V30 17 3 15 18
M  V30 18 2 16 19
M  V30 19 1 16 20
M  V30 20 1 19 21
M  V30 21 2 20 22
M  V30 22 2 21 23
M  V30 23 1 23 24
M  V30 24 1 24 25
M  V30 25 1 6 7
M  V30 26 1 12 13
M  V30 27 1 22 23
M  V30 28 1 3 26
M  V30 29 1 4 27
M  V30 30 1 5 28
M  V30 31 1 6 29
M  V30 32 1 11 30
M  V30 33 1 13 31
M  V30 34 1 19 32
M  V30 35 1 20 33
M  V30 36 1 21 34
M  V30 37 1 22 35
M  V30 38 1 25 36
M  V30 39 1 25 37
M  V30 40 1 25 38
M  V30 END BOND
M  V30 BEGIN COLLECTION
M  V30 MDLV30/STEABS ATOMS=(2 11 13)
M  V30 END COLLECTION
M  V30 END CTAB
M  END
>  <Column 1>
2739

>  <level_0>
3973

>  <index>
3973

>  <Unnamed: 0>
3973

>  <NO.>
3985

>  <Name>
olanzapine

>  <IUPAC_name>
(2r-3r)-2-(4-chlorophenyl)sulfonyl-3-(4-methoxyphenyl)cyclopropane-1-1-dicarbonitrile

>  <SMILES>
COc1ccc([C@H]2[C@@H](S(=O)(=O)c3ccc(Cl)cc3)C2(C#N)C#N)cc1

>  <CID>
100004585

>  <logBB>


>  <BBB+/BBB->
BBB+

>  <Inchi>
InChI=1S/C18H13ClN2O3S/c1-24-14-6-2-12(3-7-14)16-17(18(16-10-20)11-21)25(22-23)15-8-4-13(19)5-9-15/h2-9-16-17H-1H3/t16--17+/m0/s1

>  <threshold>
-1

>  <reference>
R16|R10|

>  <group>
B

>  <Class>
1

>  <ABC>
19.19

>  <ABCGG>
16.69

>  <nAcid>
0

>  <nBase>
0

>  <nAromAtom>
12

>  <nAromBond>
12

>  <nAtom>
38

>  <nHeavyAtom>
25

>  <nSpiro>
0

>  <nBridgehead>
0

>  <nHetero>
7

>  <nN>
2

>  <nO>
3

>  <nF>
0

>  <BalabanJ>
1.74

>  <BertzCT>
972.6

>  <nBonds>
40

>  <nBondsO>
27

>  <nBondsS>
24

>  <nBondsD>
2

>  <nBondsT>
2

>  <nBondsA>
12

>  <nBondsM>
16

>  <nBondsKS>
30

>  <nBondsKD>
8

>  <RNCG>
0.28

>  <RPCG>
0.1

>  <FCSP3>
0.22

>  <SZ>
32

>  <Sm>
31.04

>  <Sv>
27.46

>  <Sse>
38.93

>  <Sp>
28.99

>  <Si>
41.98

>  <MZ>
0.84

>  <Mm>
0.82

>  <Mv>
0.72

>  <Mse>
1.02

>  <Mp>
0.76

>  <Mi>
1.1

>  <NsCH3>
1

>  <NdCH2>
0

>  <NssCH2>
0

>  <NtCH>
0

>  <NdsCH>
0

>  <NaaCH>
8

>  <NsssCH>
2

>  <NddC>
0

>  <NtsC>
2

>  <NdssC>
0

>  <NaasC>
4

>  <NaaaC>
0

>  <NssssC>
1

>  <NsNH3>
0

>  <NsNH2>
0

>  <NssNH2>
0

>  <NdNH>
0

>  <NssNH>
0

>  <NaaNH>
0

>  <NtN>
2

>  <NsssNH>
0

>  <NdsN>
0

>  <NaaN>
0

>  <NsssN>
0

>  <NddsN>
0

>  <NaasN>
0

>  <NssssN>
0

>  <NsOH>
0

>  <NdO>
2

>  <NssO>
1

>  <NaaO>
0

>  <NsF>
0

>  <NsSiH3>
0

>  <NssSiH2>
0

>  <NsssSiH>
0

>  <NssssSi>
0

>  <NsPH2>
0

>  <NssPH>
0

>  <NsssP>
0

>  <NdsssP>
0

>  <NsssssP>
0

>  <NsSH>
0

>  <NdS>
0

>  <NssS>
0

>  <NaaS>
0

>  <NdssS>
0

>  <NddssS>
1

>  <NsCl>
1

>  <NsBr>
0

>  <NsI>
0

>  <fragCpx>
129.07

>  <fMF>
0.42

>  <nHBAcc>
5

>  <nHBDon>
0

>  <Kier1>
19.75

>  <Kier2>
7.55

>  <Lipinski>
1

>  <GhoseFilter>
1

>  <FilterItLogS>
-4.85

>  <VMcGowan>
255.06

>  <LabuteASA>
150.5

>  <PEOE_VSA1>
4.74

>  <PEOE_VSA2>
0

>  <PEOE_VSA3>
8.42

>  <PEOE_VSA4>
10.52

>  <PEOE_VSA5>
0

>  <PEOE_VSA6>
23.73

>  <PEOE_VSA7>
41.96

>  <PEOE_VSA8>
10.94

>  <PEOE_VSA9>
24.14

>  <PEOE_VSA10>
11

>  <PEOE_VSA11>
15.25

>  <PEOE_VSA12>
0

>  <PEOE_VSA13>
0

>  <SMR_VSA1>
13.15

>  <SMR_VSA2>
10.52

>  <SMR_VSA3>
0

>  <SMR_VSA4>
5.41

>  <SMR_VSA5>
16.06

>  <SMR_VSA6>
7.11

>  <SMR_VSA7>
59.12

>  <SMR_VSA8>
0

>  <SMR_VSA9>
17.89

>  <SlogP_VSA1>
4.74

>  <SlogP_VSA2>
20.78

>  <SlogP_VSA3>
9.84

>  <SlogP_VSA4>
28.08

>  <SlogP_VSA5>
11.48

>  <SlogP_VSA6>
53.43

>  <SlogP_VSA7>
5.02

>  <SlogP_VSA8>
0

>  <SlogP_VSA9>
0

>  <SlogP_VSA10>
0

>  <SlogP_VSA11>
5.75

>  <EState_VSA1>
26.42

>  <EState_VSA2>
4.9

>  <EState_VSA3>
16.34

>  <EState_VSA4>
0

>  <EState_VSA5>
31.38

>  <EState_VSA6>
24.27

>  <EState_VSA7>
12.14

>  <EState_VSA8>
0

>  <EState_VSA9>
16.34

>  <EState_VSA10>
18.94

>  <VSA_EState1>
31.04

>  <VSA_EState2>
0.05

>  <VSA_EState3>
18.35

>  <VSA_EState4>
-0.99

>  <VSA_EState5>
-0.1

>  <VSA_EState6>
16.29

>  <VSA_EState7>
0

>  <VSA_EState8>
0

>  <VSA_EState9>
-2.34

>  <apol>
48.41

>  <bpol>
23.08

>  <nRing>
3

>  <nHRing>
0

>  <naRing>
2

>  <naHRing>
0

>  <nARing 2>
1

>  <nAHRing 2>
0

>  <nFRing>
0

>  <nFHRing>
0

>  <nFaRing>
0

>  <nFaHRing>
0

>  <nFARing 2>
0

>  <nFAHRing 2>
0

>  <nRot>
4

>  <SLogP>
3.32

>  <SMR>
91.82

>  <TopoPSA(NO)>
90.95

>  <TopoPSA>
99.33

>  <JGI1>
0.26

>  <JGI2>
0.13

>  <JGI3>
0.09

>  <JGI4>
0.06

>  <JGI5>
0.03

>  <Diameter>
13

>  <Radius>
7

>  <TMWC10>
130.49

>  <TSRW10>
82.01

>  <MW>
372.03

>  <AMW>
9.79

>  <WPath>
1445

>  <WPol>
43

>  <Zagreb1>
136

>  <Zagreb2>
169

>  <mZagreb2>
5.64

>  <yes>


>  <nAR-cont>
0.816016

>  <nHA-cont>
0.921834225

>  <MWHBN>
0.259227471

>  <MWHBN-cont>
0.942943342

>  <TPSA-cont>
0.30661492

>  <pka_cont>
0.97

>  <yes.1>


>  <BBB_SCORE>
4.250495078

>  <MMFF94 Energy>
23.988

$$$$
Compound 2238
Actelion Java MolfileCreator 2.0

  0  0  0  0  0  0              0 V3000
M  V30 BEGIN CTAB
M  V30 COUNTS 39 41 0 0 0
M  V30 BEGIN ATOM
M  V30 1 S -0.9018 -1.0659 0.2459 0
M  V30 2 O -1.2229 0.1787 -0.4139 0
M  V30 3 O -1.3904 -1.3586 1.5792 0
M  V30 4 C -1.4312 -2.395 -0.8071 0
M  V30 5 C 0.8762 -1.2942 0.3217 0 CFG=1
M  V30 6 C -1.8332 -2.1296 -2.1186 0
M  V30 7 C -1.4531 -3.6981 -0.3004 0
M  V30 8 C 1.7049 -0.7642 -0.8307 0 CFG=2
M  V30 9 C 1.7817 -0.1188 0.5596 0 CFG=1
M  V30 10 C -2.2335 -3.1848 -2.9377 0
M  V30 11 C -1.856 -4.7468 -1.1265 0
M  V30 12 C 1.1271 -0.0547 -1.9389 0
M  V30 13 C 2.8589 -1.6192 -1.2531 0
M  V30 14 C 1.323 1.28 0.9003 0
M  V30 15 C -2.2411 -4.4903 -2.4435 0
M  V30 16 N 0.7393 0.4526 -2.9068 0
M  V30 17 O 3.4521 -2.3366 -0.4547 0
M  V30 18 C 0.4848 1.5188 2.0039 0
M  V30 19 C 1.6539 2.3905 0.1087 0
M  V30 20 C 0.0068 2.8002 2.3113 0
M  V30 21 C 1.1824 3.6727 0.4137 0
M  V30 22 C 0.3538 3.8852 1.5132 0
M  V30 23 O -0.0367 5.1818 1.6984 0
M  V30 24 C -0.9723 5.4251 2.7415 0
M  V30 25 H 1.176 -2.2257 0.7873 0
M  V30 26 H -1.846 -1.1139 -2.5112 0
M  V30 27 H -1.1727 -3.9041 0.7303 0
M  V30 28 H 2.6829 -0.3724 1.1251 0
M  V30 29 H -2.5486 -2.9884 -3.9603 0
M  V30 30 H -1.8805 -5.7645 -0.7432 0
M  V30 31 H 3.1587 -1.5762 -2.3151 0
M  V30 32 H -2.5609 -5.3093 -3.0841 0
M  V30 33 H 0.1893 0.6938 2.6511 0
M  V30 34 H 2.2983 2.2802 -0.76 0
M  V30 35 H -0.6366 2.9079 3.178 0
M  V30 36 H 1.4585 4.5117 -0.2206 0
M  V30 37 H -1.9004 4.8663 2.5807 0
M  V30 38 H -1.2192 6.4912 2.7271 0
M  V30 39 H -0.5377 5.1977 3.7204 0
M  V30 END ATOM
M  V30 BEGIN BOND
M  V30 1 2 1 2
M  V30 2 2 1 3
M  V30 3 1 1 4
M  V30 4 1 1 5
M  V30 5 2 4 6
M  V30 6 1 4 7
M  V30 7 1 5 8
M  V30 8 1 5 9
M  V30 9 1 6 10
M  V30 10 2 7 11
M  V30 11 1 8 12
M  V30 12 1 8 13
M  V30 13 1 9 14
M  V30 14 2 10 15
M  V30 15 3 12 16
M  V30 16 2 13 17
M  V30 17 2 14 18
M  V30 18 1 14 19
M  V30 19 1 18 20
M  V30 20 2 19 21
M  V30 21 2 20 22
M  V30 22 1 22 23
M  V30 23 1 23 24
M  V30 24 1 8 9
M  V30 25 1 11 15
M  V30 26 1 21 22
M  V30 27 1 5 25
M  V30 28 1 6 26
M  V30 29 1 7 27
M  V30 30 1 9 28
M  V30 31 1 10 29
M  V30 32 1 11 30
M  V30 33 1 13 31
M  V30 34 1 15 32
M  V30 35 1 18 33
M  V30 36 1 19 34
M  V30 37 1 20 35
M  V30 38 1 21 36
M  V30 39 1 24 37
M  V30 40 1 24 38
M  V30 41 1 24 39
M  V30 END BOND
M  V30 BEGIN COLLECTION
M  V30 MDLV30/STEABS ATOMS=(3 5 8 9)
M  V30 END COLLECTION
M  V30 END CTAB
M  END
>  <Column 1>
2740

>  <level_0>
3975

>  <index>
3975

>  <Unnamed: 0>
3975

>  <NO.>
3987

>  <Name>
imipramine

>  <IUPAC_name>
(1r-2r-3r)-2-(benzenesulfonyl)-1-formyl-3-(4-methoxyphenyl)cyclopropane-1-carbonitrile

>  <SMILES>
COc1ccc([C@H]2[C@@H](S(=O)(=O)c3ccccc3)[C@]2(C#N)C=O)cc1

>  <CID>
100003696

>  <logBB>


>  <BBB+/BBB->
BBB+

>  <Inchi>
InChI=1S/C18H15NO4S/c1-23-14-9-7-13(8-10-14)16-17(18(16-11-19)12-20)24(21-22)15-5-3-2-4-6-15/h2-10-12-16-17H-1H3/t16--17+-18+/m0/s1

>  <threshold>
-1

>  <reference>
R16|R16|R10|R10|

>  <group>
B

>  <Class>
-1

>  <ABC>
18.38

>  <ABCGG>
16.17

>  <nAcid>
0

>  <nBase>
0

>  <nAromAtom>
12

>  <nAromBond>
12

>  <nAtom>
39

>  <nHeavyAtom>
24

>  <nSpiro>
0

>  <nBridgehead>
0

>  <nHetero>
6

>  <nN>
1

>  <nO>
4

>  <nF>
0

>  <BalabanJ>
1.75

>  <BertzCT>
900.28

>  <nBonds>
41

>  <nBondsO>
26

>  <nBondsS>
25

>  <nBondsD>
3

>  <nBondsT>
1

>  <nBondsA>
12

>  <nBondsM>
16

>  <nBondsKS>
31

>  <nBondsKD>
9

>  <RNCG>
0.26

>  <RPCG>
0.1

>  <FCSP3>
0.22

>  <SZ>
29.67

>  <Sm>
28.42

>  <Sv>
26.87

>  <Sse>
39.72

>  <Sp>
28.31

>  <Si>
43.16

>  <MZ>
0.76

>  <Mm>
0.73

>  <Mv>
0.69

>  <Mse>
1.02

>  <Mp>
0.73

>  <Mi>
1.11

>  <NsCH3>
1

>  <NdCH2>
0

>  <NssCH2>
0

>  <NtCH>
0

>  <NdsCH>
1

>  <NaaCH>
9

>  <NsssCH>
2

>  <NddC>
0

>  <NtsC>
1

>  <NdssC>
0

>  <NaasC>
3

>  <NaaaC>
0

>  <NssssC>
1

>  <NsNH3>
0

>  <NsNH2>
0

>  <NssNH2>
0

>  <NdNH>
0

>  <NssNH>
0

>  <NaaNH>
0

>  <NtN>
1

>  <NsssNH>
0

>  <NdsN>
0

>  <NaaN>
0

>  <NsssN>
0

>  <NddsN>
0

>  <NaasN>
0

>  <NssssN>
0

>  <NsOH>
0

>  <NdO>
3

>  <NssO>
1

>  <NaaO>
0

>  <NsF>
0

>  <NsSiH3>
0

>  <NssSiH2>
0

>  <NsssSiH>
0

>  <NssssSi>
0

>  <NsPH2>
0

>  <NssPH>
0

>  <NsssP>
0

>  <NdsssP>
0

>  <NsssssP>
0

>  <NsSH>
0

>  <NdS>
0

>  <NssS>
0

>  <NaaS>
0

>  <NdssS>
0

>  <NddssS>
1

>  <NsCl>
0

>  <NsBr>
0

>  <NsI>
0

>  <fragCpx>
124.06

>  <fMF>
0.41

>  <nHBAcc>
5

>  <nHBDon>
0

>  <Kier1>
18.78

>  <Kier2>
7.32

>  <Lipinski>
1

>  <GhoseFilter>
1

>  <FilterItLogS>
-3.96

>  <VMcGowan>
243.01

>  <LabuteASA>
139.97

>  <PEOE_VSA1>
9.53

>  <PEOE_VSA2>
0

>  <PEOE_VSA3>
8.42

>  <PEOE_VSA4>
5.26

>  <PEOE_VSA5>
0

>  <PEOE_VSA6>
30.33

>  <PEOE_VSA7>
29.83

>  <PEOE_VSA8>
5.92

>  <PEOE_VSA9>
18.07

>  <PEOE_VSA10>
22.7

>  <PEOE_VSA11>
9.84

>  <PEOE_VSA12>
0

>  <PEOE_VSA13>
0

>  <SMR_VSA1>
17.95

>  <SMR_VSA2>
5.26

>  <SMR_VSA3>
0

>  <SMR_VSA4>
5.41

>  <SMR_VSA5>
16.06

>  <SMR_VSA6>
7.11

>  <SMR_VSA7>
60.16

>  <SMR_VSA8>
0

>  <SMR_VSA9>
11.82

>  <SlogP_VSA1>
4.74

>  <SlogP_VSA2>
27.06

>  <SlogP_VSA3>
14.63

>  <SlogP_VSA4>
16.75

>  <SlogP_VSA5>
11.48

>  <SlogP_VSA6>
59.49

>  <SlogP_VSA7>
0

>  <SlogP_VSA8>
0

>  <SlogP_VSA9>
0

>  <SlogP_VSA10>
0

>  <SlogP_VSA11>
5.75

>  <EState_VSA1>
26.42

>  <EState_VSA2>
4.9

>  <EState_VSA3>
17.6

>  <EState_VSA4>
0

>  <EState_VSA5>
19.24

>  <EState_VSA6>
42.46

>  <EState_VSA7>
6.07

>  <EState_VSA8>
0

>  <EState_VSA9>
4.74

>  <EState_VSA10>
18.47

>  <VSA_EState1>
30.88

>  <VSA_EState2>
11.72

>  <VSA_EState3>
8.42

>  <VSA_EState4>
-0.92

>  <VSA_EState5>
-0.06

>  <VSA_EState6>
16.59

>  <VSA_EState7>
0.47

>  <VSA_EState8>
0

>  <VSA_EState9>
-2.27

>  <apol>
47.27

>  <bpol>
24.88

>  <nRing>
3

>  <nHRing>
0

>  <naRing>
2

>  <naHRing>
0

>  <nARing 2>
1

>  <nAHRing 2>
0

>  <nFRing>
0

>  <nFHRing>
0

>  <nFaRing>
0

>  <nFaHRing>
0

>  <nFARing 2>
0

>  <nFAHRing 2>
0

>  <nRot>
5

>  <SLogP>
2.34

>  <SMR>
87.26

>  <TopoPSA(NO)>
84.23

>  <TopoPSA>
92.61

>  <JGI1>
0.23

>  <JGI2>
0.13

>  <JGI3>
0.09

>  <JGI4>
0.05

>  <JGI5>
0.03

>  <Diameter>
12

>  <Radius>
6

>  <TMWC10>
128.16

>  <TSRW10>
80.8

>  <MW>
341.07

>  <AMW>
8.75

>  <WPath>
1277

>  <WPol>
41

>  <Zagreb1>
130

>  <Zagreb2>
162

>  <mZagreb2>
5.47

>  <yes>


>  <nAR-cont>
0.816016

>  <nHA-cont>
0.94700071

>  <MWHBN>
0.270737394

>  <MWHBN-cont>
0.918429843

>  <TPSA-cont>
0.353524693

>  <pka_cont>
0.97

>  <yes.1>


>  <BBB_SCORE>
4.332710859

>  <MMFF94 Energy>
34.259

$$$$
Compound 2239
Actelion Java MolfileCreator 2.0

  0  0  0  0  0  0              0 V3000
M  V30 BEGIN CTAB
M  V30 COUNTS 38 39 0 0 0
M  V30 BEGIN ATOM
M  V30 1 S -0.7231 -2.0098 1.2859 0
M  V30 2 O -0.2636 -1.7967 2.6453 0
M  V30 3 O -1.8378 -1.2569 0.747 0
M  V30 4 C 0.7348 -1.8714 0.2434 0 CFG=1
M  V30 5 C -1.1366 -3.7306 1.1602 0
M  V30 6 C 0.5991 -1.4362 -1.2113 0 CFG=2
M  V30 7 C 1.2732 -0.5312 -0.1585 0 CFG=1
M  V30 8 C -0.7317 -1.0544 -1.8189 0
M  V30 9 C 1.4977 -2.1623 -2.1963 0
M  V30 10 C 0.7432 0.8393 0.1977 0
M  V30 11 O -1.6018 -2.1798 -1.7723 0
M  V30 12 N 2.2449 -1.1923 -2.9856 0
M  V30 13 C 0.4042 1.2081 1.5075 0
M  V30 14 C 0.5227 1.8034 -0.8013 0
M  V30 15 C -0.1352 2.4671 1.8104 0
M  V30 16 C -0.0116 3.0623 -0.5073 0
M  V30 17 C -0.3496 3.4 0.8007 0
M  V30 18 O -0.8659 4.6561 0.9567 0
M  V30 19 C -1.2728 5.0209 2.2697 0
M  V30 20 H 1.4863 -2.6131 0.4874 0
M  V30 21 H -1.371 -3.9744 0.124 0
M  V30 22 H -0.289 -4.3231 1.51 0
M  V30 23 H -2.0071 -3.9184 1.7926 0
M  V30 24 H 2.3653 -0.5097 -0.2127 0
M  V30 25 H -1.2214 -0.2043 -1.3375 0
M  V30 26 H -0.6124 -0.7747 -2.871 0
M  V30 27 H 2.2148 -2.8036 -1.6718 0
M  V30 28 H 0.9127 -2.8152 -2.8538 0
M  V30 29 H -2.2939 -1.9185 -1.1278 0
M  V30 30 H 1.6066 -0.6888 -3.6002 0
M  V30 31 H 2.8822 -1.6904 -3.6066 0
M  V30 32 H 0.5754 0.5173 2.3299 0
M  V30 33 H 0.7838 1.5755 -1.8329 0
M  V30 34 H -0.3729 2.678 2.8477 0
M  V30 35 H -0.1653 3.7823 -1.307 0
M  V30 36 H -2.063 4.3582 2.6381 0
M  V30 37 H -1.6838 6.0341 2.2228 0
M  V30 38 H -0.4196 5.0396 2.9558 0
M  V30 END ATOM
M  V30 BEGIN BOND
M  V30 1 2 1 2
M  V30 2 2 1 3
M  V30 3 1 1 4
M  V30 4 1 1 5
M  V30 5 1 4 6
M  V30 6 1 4 7
M  V30 7 1 6 8
M  V30 8 1 6 9
M  V30 9 1 7 10
M  V30 10 1 8 11
M  V30 11 1 9 12
M  V30 12 2 10 13
M  V30 13 1 10 14
M  V30 14 1 13 15
M  V30 15 2 14 16
M  V30 16 2 15 17
M  V30 17 1 17 18
M  V30 18 1 18 19
M  V30 19 1 6 7
M  V30 20 1 16 17
M  V30 21 1 4 20
M  V30 22 1 5 21
M  V30 23 1 5 22
M  V30 24 1 5 23
M  V30 25 1 7 24
M  V30 26 1 8 25
M  V30 27 1 8 26
M  V30 28 1 9 27
M  V30 29 1 9 28
M  V30 30 1 11 29
M  V30 31 1 12 30
M  V30 32 1 12 31
M  V30 33 1 13 32
M  V30 34 1 14 33
M  V30 35 1 15 34
M  V30 36 1 16 35
M  V30 37 1 19 36
M  V30 38 1 19 37
M  V30 39 1 19 38
M  V30 END BOND
M  V30 BEGIN COLLECTION
M  V30 MDLV30/STEABS ATOMS=(3 4 6 7)
M  V30 END COLLECTION
M  V30 END CTAB
M  END
>  <Column 1>
2741

>  <level_0>
3976

>  <index>
3976

>  <Unnamed: 0>
3976

>  <NO.>
3988

>  <Name>
dapsone

>  <IUPAC_name>
[(1s-2r-3r)-1-(aminomethyl)-2-(4-methoxyphenyl)-3-methylsulfonylcyclopropyl]methanol

>  <SMILES>
COc1ccc([C@H]2[C@@H](S(C)(=O)=O)[C@@]2(CN)CO)cc1

>  <CID>
100002955

>  <logBB>


>  <BBB+/BBB->
BBB-

>  <Inchi>
InChI=1S/C13H19NO4S/c1-18-10-5-3-9(4-6-10)11-12(19(2-16)17)13(11-7-14)8-15/h3-6-11-12-15H-7-8-14H2-1-2H3/t11--12+-13-/m0/s1

>  <threshold>
-1

>  <reference>
R16|R10|R10|

>  <group>
B

>  <Class>
1

>  <ABC>
14.35

>  <ABCGG>
13.48

>  <nAcid>
0

>  <nBase>
1

>  <nAromAtom>
6

>  <nAromBond>
6

>  <nAtom>
38

>  <nHeavyAtom>
19

>  <nSpiro>
0

>  <nBridgehead>
0

>  <nHetero>
6

>  <nN>
1

>  <nO>
4

>  <nF>
0

>  <BalabanJ>
2.07

>  <BertzCT>
548.51

>  <nBonds>
39

>  <nBondsO>
20

>  <nBondsS>
31

>  <nBondsD>
2

>  <nBondsT>
0

>  <nBondsA>
6

>  <nBondsM>
8

>  <nBondsKS>
34

>  <nBondsKD>
5

>  <RNCG>
0.27

>  <RPCG>
0.11

>  <FCSP3>
0.54

>  <SZ>
25.33

>  <Sm>
23.76

>  <Sv>
22.95

>  <Sse>
38.5

>  <Sp>
24.9

>  <Si>
42.99

>  <MZ>
0.67

>  <Mm>
0.63

>  <Mv>
0.6

>  <Mse>
1.01

>  <Mp>
0.66

>  <Mi>
1.13

>  <NsCH3>
2

>  <NdCH2>
0

>  <NssCH2>
2

>  <NtCH>
0

>  <NdsCH>
0

>  <NaaCH>
4

>  <NsssCH>
2

>  <NddC>
0

>  <NtsC>
0

>  <NdssC>
0

>  <NaasC>
2

>  <NaaaC>
0

>  <NssssC>
1

>  <NsNH3>
0

>  <NsNH2>
1

>  <NssNH2>
0

>  <NdNH>
0

>  <NssNH>
0

>  <NaaNH>
0

>  <NtN>
0

>  <NsssNH>
0

>  <NdsN>
0

>  <NaaN>
0

>  <NsssN>
0

>  <NddsN>
0

>  <NaasN>
0

>  <NssssN>
0

>  <NsOH>
1

>  <NdO>
2

>  <NssO>
1

>  <NaaO>
0

>  <NsF>
0

>  <NsSiH3>
0

>  <NssSiH2>
0

>  <NsssSiH>
0

>  <NssssSi>
0

>  <NsPH2>
0

>  <NssPH>
0

>  <NsssP>
0

>  <NdsssP>
0

>  <NsssssP>
0

>  <NsSH>
0

>  <NdS>
0

>  <NssS>
0

>  <NaaS>
0

>  <NdssS>
0

>  <NddssS>
1

>  <NsCl>
0

>  <NsBr>
0

>  <NsI>
0

>  <fragCpx>
58.06

>  <fMF>
0.24

>  <nHBAcc>
5

>  <nHBDon>
2

>  <Kier1>
15.39

>  <Kier2>
5.41

>  <Lipinski>
1

>  <GhoseFilter>
1

>  <FilterItLogS>
-2.46

>  <VMcGowan>
209.22

>  <LabuteASA>
112.85

>  <PEOE_VSA1>
15.58

>  <PEOE_VSA2>
0

>  <PEOE_VSA3>
8.42

>  <PEOE_VSA4>
0

>  <PEOE_VSA5>
0

>  <PEOE_VSA6>
12.13

>  <PEOE_VSA7>
17.7

>  <PEOE_VSA8>
24.13

>  <PEOE_VSA9>
18.97

>  <PEOE_VSA10>
5.75

>  <PEOE_VSA11>
9.84

>  <PEOE_VSA12>
0

>  <PEOE_VSA13>
0

>  <SMR_VSA1>
18.26

>  <SMR_VSA2>
0

>  <SMR_VSA3>
0

>  <SMR_VSA4>
11.15

>  <SMR_VSA5>
11.17

>  <SMR_VSA6>
26.52

>  <SMR_VSA7>
29.83

>  <SMR_VSA8>
0

>  <SMR_VSA9>
5.75

>  <SlogP_VSA1>
10.47

>  <SlogP_VSA2>
45.29

>  <SlogP_VSA3>
9.84

>  <SlogP_VSA4>
5.41

>  <SlogP_VSA5>
11.48

>  <SlogP_VSA6>
24.27

>  <SlogP_VSA7>
0

>  <SlogP_VSA8>
0

>  <SlogP_VSA9>
0

>  <SlogP_VSA10>
0

>  <SlogP_VSA11>
5.75

>  <EState_VSA1>
20.5

>  <EState_VSA2>
19.07

>  <EState_VSA3>
5.75

>  <EState_VSA4>
5.56

>  <EState_VSA5>
6.26

>  <EState_VSA6>
19.24

>  <EState_VSA7>
12.13

>  <EState_VSA8>
0

>  <EState_VSA9>
10.47

>  <EState_VSA10>
13.52

>  <VSA_EState1>
28.76

>  <VSA_EState2>
0

>  <VSA_EState3>
8.95

>  <VSA_EState4>
5.82

>  <VSA_EState5>
0.46

>  <VSA_EState6>
7.22

>  <VSA_EState7>
1.2

>  <VSA_EState8>
-0.07

>  <VSA_EState9>
-1.67

>  <apol>
41.59

>  <bpol>
26.88

>  <nRing>
2

>  <nHRing>
0

>  <naRing>
1

>  <naHRing>
0

>  <nARing 2>
1

>  <nAHRing 2>
0

>  <nFRing>
0

>  <nFHRing>
0

>  <nFaRing>
0

>  <nFaHRing>
0

>  <nFARing 2>
0

>  <nFAHRing 2>
0

>  <nRot>
5

>  <SLogP>
0.14

>  <SMR>
72.94

>  <TopoPSA(NO)>
89.62

>  <TopoPSA>
98

>  <JGI1>
0.3

>  <JGI2>
0.13

>  <JGI3>
0.11

>  <JGI4>
0.06

>  <JGI5>
0.02

>  <Diameter>
9

>  <Radius>
5

>  <TMWC10>
115.05

>  <TSRW10>
74.63

>  <MW>
285.1

>  <AMW>
7.5

>  <WPath>
683

>  <WPol>
30

>  <Zagreb1>
102

>  <Zagreb2>
126

>  <mZagreb2>
4.31

>  <yes>


>  <nAR-cont>
0.816016

>  <nHA-cont>
0.998649058

>  <MWHBN>
0.414571489

>  <MWHBN-cont>
0.418995967

>  <TPSA-cont>
0.315899146

>  <pka_cont>
0.97

>  <yes.1>


>  <BBB_SCORE>
3.559957299

>  <MMFF94 Energy>
17.071

$$$$
Compound 2240
Actelion Java MolfileCreator 2.0

  0  0  0  0  0  0              0 V3000
M  V30 BEGIN CTAB
M  V30 COUNTS 36 37 0 0 0
M  V30 BEGIN ATOM
M  V30 1 S -1.7835 -2.108 0.081 0
M  V30 2 O -2.2595 -0.8051 0.4801 0
M  V30 3 O -2.2149 -2.756 -1.1432 0
M  V30 4 C 0.0164 -2.1798 0.0664 0 CFG=1
M  V30 5 C -2.197 -3.2103 1.4067 0
M  V30 6 C 0.6541 -1.6067 -1.2075 0 CFG=2
M  V30 7 C 0.9269 -1.0015 0.175 0 CFG=1
M  V30 8 C -0.1837 -0.8726 -2.2147 0
M  V30 9 C 1.7826 -2.4468 -1.7814 0
M  V30 10 C 0.5797 0.3908 0.6323 0
M  V30 11 O -1.0156 -0.014 -1.9798 0
M  V30 12 O -0.0118 -1.2927 -3.4865 0
M  V30 13 O 2.8871 -1.5995 -2.074 0
M  V30 14 C 0.8456 1.5184 -0.1618 0
M  V30 15 C -0.0503 0.624 1.8646 0
M  V30 16 C 0.5124 2.8158 0.2522 0
M  V30 17 C -0.3825 1.9167 2.2862 0
M  V30 18 C -0.1062 3.0198 1.4816 0
M  V30 19 O -0.4793 4.2256 2.0078 0
M  V30 20 C -0.343 5.3592 1.1606 0
M  V30 21 H 0.4049 -3.1193 0.4389 0
M  V30 22 H -1.7924 -4.1999 1.1868 0
M  V30 23 H -1.7768 -2.818 2.3349 0
M  V30 24 H -3.2854 -3.2615 1.4822 0
M  V30 25 H 1.9147 -1.2607 0.5691 0
M  V30 26 H 1.4795 -2.9826 -2.6866 0
M  V30 27 H 2.1326 -3.1998 -1.0664 0
M  V30 28 H -0.6808 -0.7626 -3.9703 0
M  V30 29 H 3.4773 -2.0971 -2.6659 0
M  V30 30 H 1.3305 1.3919 -1.1279 0
M  V30 31 H -0.2955 -0.2099 2.5163 0
M  V30 32 H 0.7494 3.6371 -0.4146 0
M  V30 33 H -0.8748 2.0594 3.2445 0
M  V30 34 H 0.7101 5.558 0.9366 0
M  V30 35 H -0.7377 6.2272 1.6978 0
M  V30 36 H -0.9282 5.2422 0.2423 0
M  V30 END ATOM
M  V30 BEGIN BOND
M  V30 1 2 1 2
M  V30 2 2 1 3
M  V30 3 1 1 4
M  V30 4 1 1 5
M  V30 5 1 4 6
M  V30 6 1 4 7
M  V30 7 1 6 8
M  V30 8 1 6 9
M  V30 9 1 7 10
M  V30 10 2 8 11
M  V30 11 1 8 12
M  V30 12 1 9 13
M  V30 13 2 10 14
M  V30 14 1 10 15
M  V30 15 1 14 16
M  V30 16 2 15 17
M  V30 17 2 16 18
M  V30 18 1 18 19
M  V30 19 1 19 20
M  V30 20 1 6 7
M  V30 21 1 17 18
M  V30 22 1 4 21
M  V30 23 1 5 22
M  V30 24 1 5 23
M  V30 25 1 5 24
M  V30 26 1 7 25
M  V30 27 1 9 26
M  V30 28 1 9 27
M  V30 29 1 12 28
M  V30 30 1 13 29
M  V30 31 1 14 30
M  V30 32 1 15 31
M  V30 33 1 16 32
M  V30 34 1 17 33
M  V30 35 1 20 34
M  V30 36 1 20 35
M  V30 37 1 20 36
M  V30 END BOND
M  V30 BEGIN COLLECTION
M  V30 MDLV30/STEABS ATOMS=(3 4 6 7)
M  V30 END COLLECTION
M  V30 END CTAB
M  END
>  <Column 1>
2742

>  <level_0>
3977

>  <index>
3977

>  <Unnamed: 0>
3977

>  <NO.>
3989

>  <Name>
dihydrocodeine

>  <IUPAC_name>
(1s-2r-3r)-1-(hydroxymethyl)-2-(4-methoxyphenyl)-3-methylsulfonylcyclopropane-1-carboxylic acid

>  <SMILES>
COc1ccc([C@H]2[C@@H](S(C)(=O)=O)[C@@]2(CO)C(=O)O)cc1

>  <CID>
100003063

>  <logBB>


>  <BBB+/BBB->
BBB+

>  <Inchi>
InChI=1S/C13H16O6S/c1-19-9-5-3-8(4-6-9)10-11(20(2-17)18)13(10-7-14)12(15)16/h3-6-10-11-14H-7H2-1-2H3-(H-15-16)/t10--11+-13-/m0/s1

>  <threshold>
-1

>  <reference>
R16|R10|R10|

>  <group>
B

>  <Class>
-1

>  <ABC>
15.22

>  <ABCGG>
14.28

>  <nAcid>
1

>  <nBase>
0

>  <nAromAtom>
6

>  <nAromBond>
6

>  <nAtom>
36

>  <nHeavyAtom>
20

>  <nSpiro>
0

>  <nBridgehead>
0

>  <nHetero>
7

>  <nN>
0

>  <nO>
6

>  <nF>
0

>  <BalabanJ>
2.14

>  <BertzCT>
620.77

>  <nBonds>
37

>  <nBondsO>
21

>  <nBondsS>
28

>  <nBondsD>
3

>  <nBondsT>
0

>  <nBondsA>
6

>  <nBondsM>
9

>  <nBondsKS>
31

>  <nBondsKD>
6

>  <RNCG>
0.22

>  <RPCG>
0.14

>  <FCSP3>
0.46

>  <SZ>
26.33

>  <Sm>
25

>  <Sv>
22.81

>  <Sse>
37.16

>  <Sp>
24.01

>  <Si>
40.5

>  <MZ>
0.73

>  <Mm>
0.69

>  <Mv>
0.63

>  <Mse>
1.03

>  <Mp>
0.67

>  <Mi>
1.12

>  <NsCH3>
2

>  <NdCH2>
0

>  <NssCH2>
1

>  <NtCH>
0

>  <NdsCH>
0

>  <NaaCH>
4

>  <NsssCH>
2

>  <NddC>
0

>  <NtsC>
0

>  <NdssC>
1

>  <NaasC>
2

>  <NaaaC>
0

>  <NssssC>
1

>  <NsNH3>
0

>  <NsNH2>
0

>  <NssNH2>
0

>  <NdNH>
0

>  <NssNH>
0

>  <NaaNH>
0

>  <NtN>
0

>  <NsssNH>
0

>  <NdsN>
0

>  <NaaN>
0

>  <NsssN>
0

>  <NddsN>
0

>  <NaasN>
0

>  <NssssN>
0

>  <NsOH>
2

>  <NdO>
3

>  <NssO>
1

>  <NaaO>
0

>  <NsF>
0

>  <NsSiH3>
0

>  <NssSiH2>
0

>  <NsssSiH>
0

>  <NssssSi>
0

>  <NsPH2>
0

>  <NssPH>
0

>  <NsssP>
0

>  <NdsssP>
0

>  <NsssssP>
0

>  <NsSH>
0

>  <NdS>
0

>  <NssS>
0

>  <NaaS>
0

>  <NdssS>
0

>  <NddssS>
1

>  <NsCl>
0

>  <NsBr>
0

>  <NsI>
0

>  <fragCpx>
61.07

>  <fMF>
0.25

>  <nHBAcc>
5

>  <nHBDon>
2

>  <Kier1>
16.37

>  <Kier2>
5.65

>  <Lipinski>
1

>  <GhoseFilter>
1

>  <FilterItLogS>
-1.78

>  <VMcGowan>
206.68

>  <LabuteASA>
116.47

>  <PEOE_VSA1>
14.95

>  <PEOE_VSA2>
4.79

>  <PEOE_VSA3>
8.42

>  <PEOE_VSA4>
0

>  <PEOE_VSA5>
0

>  <PEOE_VSA6>
12.13

>  <PEOE_VSA7>
17.7

>  <PEOE_VSA8>
12.17

>  <PEOE_VSA9>
18.97

>  <PEOE_VSA10>
11.16

>  <PEOE_VSA11>
9.84

>  <PEOE_VSA12>
0

>  <PEOE_VSA13>
0

>  <SMR_VSA1>
28.16

>  <SMR_VSA2>
0

>  <SMR_VSA3>
0

>  <SMR_VSA4>
5.41

>  <SMR_VSA5>
11.17

>  <SMR_VSA6>
19.97

>  <SMR_VSA7>
29.83

>  <SMR_VSA8>
0

>  <SMR_VSA9>
5.75

>  <SlogP_VSA1>
4.74

>  <SlogP_VSA2>
49.82

>  <SlogP_VSA3>
14.63

>  <SlogP_VSA4>
5.41

>  <SlogP_VSA5>
11.48

>  <SlogP_VSA6>
24.27

>  <SlogP_VSA7>
0

>  <SlogP_VSA8>
0

>  <SlogP_VSA9>
0

>  <SlogP_VSA10>
0

>  <SlogP_VSA11>
5.75

>  <EState_VSA1>
39

>  <EState_VSA2>
0

>  <EState_VSA3>
11.31

>  <EState_VSA4>
6.26

>  <EState_VSA5>
7.11

>  <EState_VSA6>
24.27

>  <EState_VSA7>
0

>  <EState_VSA8>
0

>  <EState_VSA9>
4.74

>  <EState_VSA10>
23.43

>  <VSA_EState1>
28.57

>  <VSA_EState2>
11.43

>  <VSA_EState3>
17.64

>  <VSA_EState4>
-1.08

>  <VSA_EState5>
-1.45

>  <VSA_EState6>
6.53

>  <VSA_EState7>
0.99

>  <VSA_EState8>
-0.71

>  <VSA_EState9>
-2.08

>  <apol>
40.09

>  <bpol>
25.31

>  <nRing>
2

>  <nHRing>
0

>  <naRing>
1

>  <naHRing>
0

>  <nARing 2>
1

>  <nAHRing 2>
0

>  <nFRing>
0

>  <nFHRing>
0

>  <nFaRing>
0

>  <nFaHRing>
0

>  <nFARing 2>
0

>  <nFAHRing 2>
0

>  <nRot>
5

>  <SLogP>
0.27

>  <SMR>
71.52

>  <TopoPSA(NO)>
100.9

>  <TopoPSA>
109.28

>  <JGI1>
0.31

>  <JGI2>
0.13

>  <JGI3>
0.11

>  <JGI4>
0.07

>  <JGI5>
0.02

>  <Diameter>
9

>  <Radius>
5

>  <TMWC10>
117.81

>  <TSRW10>
76.03

>  <MW>
300.07

>  <AMW>
8.34

>  <WPath>
770

>  <WPol>
33

>  <Zagreb1>
108

>  <Zagreb2>
134

>  <mZagreb2>
4.43

>  <yes>


>  <nAR-cont>
0.816016

>  <nHA-cont>
0.999629945

>  <MWHBN>
0.404098046

>  <MWHBN-cont>
0.459947656

>  <TPSA-cont>
0.237157741

>  <pka_cont>
0.97

>  <yes.1>


>  <BBB_SCORE>
3.464882912

>  <MMFF94 Energy>
-3.42

$$$$
Compound 2241
Actelion Java MolfileCreator 2.0

  0  0  0  0  0  0              0 V3000
M  V30 BEGIN CTAB
M  V30 COUNTS 34 35 0 0 0
M  V30 BEGIN ATOM
M  V30 1 S -1.6261 -1.9516 -0.7315 0
M  V30 2 O -1.9769 -0.5514 -0.7925 0
M  V30 3 O -2.0168 -2.8707 -1.7827 0
M  V30 4 C 0.1579 -2.149 -0.598 0 CFG=1
M  V30 5 C -2.2413 -2.6021 0.7968 0
M  V30 6 C 0.9382 -1.4555 -1.7 0 CFG=2
M  V30 7 C 1.0822 -1.0137 -0.2445 0 CFG=1
M  V30 8 C 0.3015 -0.5939 -2.6664 0
M  V30 9 C 2.0728 -2.2302 -2.3412 0
M  V30 10 C 0.6079 0.2702 0.3943 0
M  V30 11 N -0.1179 0.0898 -3.5043 0
M  V30 12 O 2.6873 -3.1257 -1.4153 0
M  V30 13 C 0.1375 0.2548 1.7198 0
M  V30 14 C 0.6034 1.5123 -0.258 0
M  V30 15 C -0.3271 1.4134 2.3506 0
M  V30 16 C 0.1327 2.6769 0.3673 0
M  V30 17 C -0.3405 2.6306 1.6748 0
M  V30 18 O -0.8223 3.6858 2.3978 0
M  V30 19 C -0.9721 4.9185 1.704 0
M  V30 20 H 0.4658 -3.1441 -0.304 0
M  V30 21 H -1.8954 -3.6314 0.9077 0
M  V30 22 H -1.8838 -1.9843 1.6207 0
M  V30 23 H -3.3326 -2.5782 0.762 0
M  V30 24 H 2.017 -1.3383 0.2206 0
M  V30 25 H 2.8441 -1.5423 -2.7056 0
M  V30 26 H 1.7001 -2.8251 -3.1827 0
M  V30 27 H 3.3982 -3.5831 -1.8998 0
M  V30 28 H 0.1408 -0.674 2.2852 0
M  V30 29 H 0.9731 1.6046 -1.2761 0
M  V30 30 H -0.6849 1.3644 3.376 0
M  V30 31 H 0.151 3.5996 -0.2031 0
M  V30 32 H 1.0E-4 5.3155 1.3944 0
M  V30 33 H -1.4201 5.6387 2.3956 0
M  V30 34 H -1.648 4.8136 0.8487 0
M  V30 END ATOM
M  V30 BEGIN BOND
M  V30 1 2 1 2
M  V30 2 2 1 3
M  V30 3 1 1 4
M  V30 4 1 1 5
M  V30 5 1 4 6
M  V30 6 1 4 7
M  V30 7 1 6 8
M  V30 8 1 6 9
M  V30 9 1 7 10
M  V30 10 3 8 11
M  V30 11 1 9 12
M  V30 12 2 10 13
M  V30 13 1 10 14
M  V30 14 1 13 15
M  V30 15 2 14 16
M  V30 16 2 15 17
M  V30 17 1 17 18
M  V30 18 1 18 19
M  V30 19 1 6 7
M  V30 20 1 16 17
M  V30 21 1 4 20
M  V30 22 1 5 21
M  V30 23 1 5 22
M  V30 24 1 5 23
M  V30 25 1 7 24
M  V30 26 1 9 25
M  V30 27 1 9 26
M  V30 28 1 12 27
M  V30 29 1 13 28
M  V30 30 1 14 29
M  V30 31 1 15 30
M  V30 32 1 16 31
M  V30 33 1 19 32
M  V30 34 1 19 33
M  V30 35 1 19 34
M  V30 END BOND
M  V30 BEGIN COLLECTION
M  V30 MDLV30/STEABS ATOMS=(3 4 6 7)
M  V30 END COLLECTION
M  V30 END CTAB
M  END
>  <Column 1>
2743

>  <level_0>
3978

>  <index>
3978

>  <Unnamed: 0>
3978

>  <NO.>
3990

>  <Name>
clofazimine

>  <IUPAC_name>
(1r-2r-3r)-1-(hydroxymethyl)-2-(4-methoxyphenyl)-3-methylsulfonylcyclopropane-1-carbonitrile

>  <SMILES>
COc1ccc([C@H]2[C@@H](S(C)(=O)=O)[C@]2(C#N)CO)cc1

>  <CID>
100002794

>  <logBB>


>  <BBB+/BBB->
BBB-

>  <Inchi>
InChI=1S/C13H15NO4S/c1-18-10-5-3-9(4-6-10)11-12(19(2-16)17)13(11-7-14)8-15/h3-6-11-12-15H-8H2-1-2H3/t11--12+-13+/m0/s1

>  <threshold>
-1

>  <reference>
R16|R10|

>  <group>
B

>  <Class>
1

>  <ABC>
14.35

>  <ABCGG>
13.48

>  <nAcid>
0

>  <nBase>
0

>  <nAromAtom>
6

>  <nAromBond>
6

>  <nAtom>
34

>  <nHeavyAtom>
19

>  <nSpiro>
0

>  <nBridgehead>
0

>  <nHetero>
6

>  <nN>
1

>  <nO>
4

>  <nF>
0

>  <BalabanJ>
2.07

>  <BertzCT>
617.04

>  <nBonds>
35

>  <nBondsO>
20

>  <nBondsS>
26

>  <nBondsD>
2

>  <nBondsT>
1

>  <nBondsA>
6

>  <nBondsM>
9

>  <nBondsKS>
29

>  <nBondsKD>
5

>  <RNCG>
0.29

>  <RPCG>
0.12

>  <FCSP3>
0.46

>  <SZ>
24.67

>  <Sm>
23.42

>  <Sv>
21.87

>  <Sse>
34.72

>  <Sp>
23.31

>  <Si>
38.16

>  <MZ>
0.73

>  <Mm>
0.69

>  <Mv>
0.64

>  <Mse>
1.02

>  <Mp>
0.69

>  <Mi>
1.12

>  <NsCH3>
2

>  <NdCH2>
0

>  <NssCH2>
1

>  <NtCH>
0

>  <NdsCH>
0

>  <NaaCH>
4

>  <NsssCH>
2

>  <NddC>
0

>  <NtsC>
1

>  <NdssC>
0

>  <NaasC>
2

>  <NaaaC>
0

>  <NssssC>
1

>  <NsNH3>
0

>  <NsNH2>
0

>  <NssNH2>
0

>  <NdNH>
0

>  <NssNH>
0

>  <NaaNH>
0

>  <NtN>
1

>  <NsssNH>
0

>  <NdsN>
0

>  <NaaN>
0

>  <NsssN>
0

>  <NddsN>
0

>  <NaasN>
0

>  <NssssN>
0

>  <NsOH>
1

>  <NdO>
2

>  <NssO>
1

>  <NaaO>
0

>  <NsF>
0

>  <NsSiH3>
0

>  <NssSiH2>
0

>  <NsssSiH>
0

>  <NssssSi>
0

>  <NsPH2>
0

>  <NssPH>
0

>  <NsssP>
0

>  <NdsssP>
0

>  <NsssssP>
0

>  <NsSH>
0

>  <NdS>
0

>  <NssS>
0

>  <NaaS>
0

>  <NdssS>
0

>  <NddssS>
1

>  <NsCl>
0

>  <NsBr>
0

>  <NsI>
0

>  <fragCpx>
58.06

>  <fMF>
0.26

>  <nHBAcc>
5

>  <nHBDon>
1

>  <Kier1>
15.39

>  <Kier2>
5.41

>  <Lipinski>
1

>  <GhoseFilter>
1

>  <FilterItLogS>
-2.5

>  <VMcGowan>
200.62

>  <LabuteASA>
111.91

>  <PEOE_VSA1>
9.84

>  <PEOE_VSA2>
0

>  <PEOE_VSA3>
8.42

>  <PEOE_VSA4>
5.26

>  <PEOE_VSA5>
0

>  <PEOE_VSA6>
12.13

>  <PEOE_VSA7>
17.7

>  <PEOE_VSA8>
12.17

>  <PEOE_VSA9>
25.04

>  <PEOE_VSA10>
11.16

>  <PEOE_VSA11>
9.84

>  <PEOE_VSA12>
0

>  <PEOE_VSA13>
0

>  <SMR_VSA1>
18.26

>  <SMR_VSA2>
5.26

>  <SMR_VSA3>
0

>  <SMR_VSA4>
5.41

>  <SMR_VSA5>
11.17

>  <SMR_VSA6>
19.97

>  <SMR_VSA7>
29.83

>  <SMR_VSA8>
0

>  <SMR_VSA9>
11.82

>  <SlogP_VSA1>
4.74

>  <SlogP_VSA2>
38.75

>  <SlogP_VSA3>
9.84

>  <SlogP_VSA4>
16.75

>  <SlogP_VSA5>
11.48

>  <SlogP_VSA6>
24.27

>  <SlogP_VSA7>
0

>  <SlogP_VSA8>
0

>  <SlogP_VSA9>
0

>  <SlogP_VSA10>
0

>  <SlogP_VSA11>
5.75

>  <EState_VSA1>
33.03

>  <EState_VSA2>
0

>  <EState_VSA3>
5.75

>  <EState_VSA4>
11.82

>  <EState_VSA5>
0

>  <EState_VSA6>
31.38

>  <EState_VSA7>
6.07

>  <EState_VSA8>
0

>  <EState_VSA9>
4.74

>  <EState_VSA10>
18.79

>  <VSA_EState1>
28.53

>  <VSA_EState2>
0

>  <VSA_EState3>
17.79

>  <VSA_EState4>
-0.49

>  <VSA_EState5>
0.18

>  <VSA_EState6>
8.87

>  <VSA_EState7>
1.1

>  <VSA_EState8>
-0.46

>  <VSA_EState9>
-1.85

>  <apol>
38.92

>  <bpol>
24.01

>  <nRing>
2

>  <nHRing>
0

>  <naRing>
1

>  <naHRing>
0

>  <nARing 2>
1

>  <nAHRing 2>
0

>  <nFRing>
0

>  <nFHRing>
0

>  <nFaRing>
0

>  <nFaHRing>
0

>  <nFARing 2>
0

>  <nFAHRing 2>
0

>  <nRot>
4

>  <SLogP>
0.71

>  <SMR>
69.5

>  <TopoPSA(NO)>
87.39

>  <TopoPSA>
95.77

>  <JGI1>
0.3

>  <JGI2>
0.13

>  <JGI3>
0.11

>  <JGI4>
0.06

>  <JGI5>
0.02

>  <Diameter>
9

>  <Radius>
5

>  <TMWC10>
115.05

>  <TSRW10>
74.63

>  <MW>
281.07

>  <AMW>
8.27

>  <WPath>
683

>  <WPol>
30

>  <Zagreb1>
102

>  <Zagreb2>
126

>  <mZagreb2>
4.31

>  <yes>


>  <nAR-cont>
0.816016

>  <nHA-cont>
0.998649058

>  <MWHBN>
0.357885418

>  <MWHBN-cont>
0.640488536

>  <TPSA-cont>
0.33146593

>  <pka_cont>
0.97

>  <yes.1>


>  <BBB_SCORE>
3.923329723

>  <MMFF94 Energy>
13.669

$$$$
Compound 2242
Actelion Java MolfileCreator 2.0

  0  0  0  0  0  0              0 V3000
M  V30 BEGIN CTAB
M  V30 COUNTS 40 42 0 0 0
M  V30 BEGIN ATOM
M  V30 1 S 0.0 2.8772 -2.0303 0
M  V30 2 O -0.1388 2.9487 -3.4787 0
M  V30 3 O 0.6014 3.9906 -1.3097 0
M  V30 4 C -1.5094 2.358 -1.2835 0
M  V30 5 C 1.233 1.2316 -1.71 0 CFG=1
M  V30 6 C -2.4633 1.6781 -2.0478 0
M  V30 7 C -1.7216 2.583 0.0804 0
M  V30 8 C 3.0072 1.5139 -1.4335 0 CFG=2
M  V30 9 C 1.9444 0.9957 -0.0526 0 CFG=2
M  V30 10 C -3.6423 1.2371 -1.4444 0
M  V30 11 C -2.9033 2.1387 0.6761 0
M  V30 12 C 3.5798 3.1088 -1.4574 0
M  V30 13 C 2.1027 -0.6487 0.5582 0
M  V30 14 C -3.8655 1.4538 -0.078 0
M  V30 15 N 4.0167 4.3256 -1.4756 0
M  V30 16 C 3.2314 -1.0239 1.3091 0
M  V30 17 C 1.059 -1.5876 0.4786 0
M  V30 18 C -5.1504 1.009 0.5588 0
M  V30 19 C 3.3479 -2.2938 1.8911 0
M  V30 20 C 1.1668 -2.8588 1.0559 0
M  V30 21 C 2.3146 -3.2255 1.7643 0
M  V30 22 O 2.3014 -4.5003 2.2824 0
M  V30 23 C 1.1324 -5.2608 2.0182 0
M  V30 24 H 0.914 0.2946 -2.3097 0
M  V30 25 H -2.3049 1.4933 -3.109 0
M  V30 26 H -0.9827 3.1064 0.685 0
M  V30 27 H 3.7594 0.7459 -1.8631 0
M  V30 28 H 1.6928 1.7712 0.7683 0
M  V30 29 H -4.3886 0.7209 -2.0461 0
M  V30 30 H -3.0709 2.3286 1.735 0
M  V30 31 H 4.0504 -0.3174 1.4386 0
M  V30 32 H 0.1424 -1.3335 -0.0519 0
M  V30 33 H -5.8998 1.8028 0.4824 0
M  V30 34 H -5.5368 0.1083 0.0705 0
M  V30 35 H -4.9984 0.7654 1.6155 0
M  V30 36 H 4.2553 -2.527 2.443 0
M  V30 37 H 0.3405 -3.5591 0.9527 0
M  V30 38 H 0.2451 -4.7981 2.464 0
M  V30 39 H 1.2608 -6.2421 2.4856 0
M  V30 40 H 0.996 -5.4237 0.9438 0
M  V30 END ATOM
M  V30 BEGIN BOND
M  V30 1 2 1 2
M  V30 2 2 1 3
M  V30 3 1 1 4
M  V30 4 1 1 5
M  V30 5 2 4 6
M  V30 6 1 4 7
M  V30 7 1 5 8
M  V30 8 1 5 9
M  V30 9 1 6 10
M  V30 10 2 7 11
M  V30 11 1 8 12
M  V30 12 1 9 13
M  V30 13 2 10 14
M  V30 14 3 12 15
M  V30 15 2 13 16
M  V30 16 1 13 17
M  V30 17 1 14 18
M  V30 18 1 16 19
M  V30 19 2 17 20
M  V30 20 2 19 21
M  V30 21 1 21 22
M  V30 22 1 22 23
M  V30 23 1 8 9
M  V30 24 1 11 14
M  V30 25 1 20 21
M  V30 26 1 5 24
M  V30 27 1 6 25
M  V30 28 1 7 26
M  V30 29 1 8 27
M  V30 30 1 9 28
M  V30 31 1 10 29
M  V30 32 1 11 30
M  V30 33 1 16 31
M  V30 34 1 17 32
M  V30 35 1 18 33
M  V30 36 1 18 34
M  V30 37 1 18 35
M  V30 38 1 19 36
M  V30 39 1 20 37
M  V30 40 1 23 38
M  V30 41 1 23 39
M  V30 42 1 23 40
M  V30 END BOND
M  V30 BEGIN COLLECTION
M  V30 MDLV30/STEABS ATOMS=(3 5 8 9)
M  V30 END COLLECTION
M  V30 END CTAB
M  END
>  <Column 1>
2744

>  <level_0>
3979

>  <index>
3979

>  <Unnamed: 0>
3979

>  <NO.>
3991

>  <Name>
morphine

>  <IUPAC_name>
(1r-2r-3r)-2-(4-methoxyphenyl)-3-(4-methylphenyl)sulfonylcyclopropane-1-carbonitrile

>  <SMILES>
COc1ccc([C@H]2[C@H](C#N)[C@@H]2S(=O)(=O)c2ccc(C)cc2)cc1

>  <CID>
100004253

>  <logBB>


>  <BBB+/BBB->
BBB+

>  <Inchi>
InChI=1S/C18H17NO3S/c1-12-3-9-15(10-4-12)23(20-21)18-16(11-19)17(18)13-5-7-14(22-2)8-6-13/h3-10-16-18H-1-2H3/t16--17--18-/m0/s1

>  <threshold>
-1

>  <reference>
R16|R16|R10|R10|

>  <group>
B

>  <Class>
-1

>  <ABC>
17.82

>  <ABCGG>
15.24

>  <nAcid>
0

>  <nBase>
0

>  <nAromAtom>
12

>  <nAromBond>
12

>  <nAtom>
40

>  <nHeavyAtom>
23

>  <nSpiro>
0

>  <nBridgehead>
0

>  <nHetero>
5

>  <nN>
1

>  <nO>
3

>  <nF>
0

>  <BalabanJ>
1.62

>  <BertzCT>
848.63

>  <nBonds>
42

>  <nBondsO>
25

>  <nBondsS>
27

>  <nBondsD>
2

>  <nBondsT>
1

>  <nBondsA>
12

>  <nBondsM>
15

>  <nBondsKS>
33

>  <nBondsKD>
8

>  <RNCG>
0.31

>  <RPCG>
0.11

>  <FCSP3>
0.28

>  <SZ>
28.67

>  <Sm>
27.26

>  <Sv>
26.69

>  <Sse>
40.28

>  <Sp>
28.62

>  <Si>
44.37

>  <MZ>
0.72

>  <Mm>
0.68

>  <Mv>
0.67

>  <Mse>
1.01

>  <Mp>
0.72

>  <Mi>
1.11

>  <NsCH3>
2

>  <NdCH2>
0

>  <NssCH2>
0

>  <NtCH>
0

>  <NdsCH>
0

>  <NaaCH>
8

>  <NsssCH>
3

>  <NddC>
0

>  <NtsC>
1

>  <NdssC>
0

>  <NaasC>
4

>  <NaaaC>
0

>  <NssssC>
0

>  <NsNH3>
0

>  <NsNH2>
0

>  <NssNH2>
0

>  <NdNH>
0

>  <NssNH>
0

>  <NaaNH>
0

>  <NtN>
1

>  <NsssNH>
0

>  <NdsN>
0

>  <NaaN>
0

>  <NsssN>
0

>  <NddsN>
0

>  <NaasN>
0

>  <NssssN>
0

>  <NsOH>
0

>  <NdO>
2

>  <NssO>
1

>  <NaaO>
0

>  <NsF>
0

>  <NsSiH3>
0

>  <NssSiH2>
0

>  <NsssSiH>
0

>  <NssssSi>
0

>  <NsPH2>
0

>  <NssPH>
0

>  <NsssP>
0

>  <NdsssP>
0

>  <NsssssP>
0

>  <NsSH>
0

>  <NdS>
0

>  <NssS>
0

>  <NaaS>
0

>  <NdssS>
0

>  <NddssS>
1

>  <NsCl>
0

>  <NsBr>
0

>  <NsI>
0

>  <fragCpx>
119.05

>  <fMF>
0.4

>  <nHBAcc>
4

>  <nHBDon>
0

>  <Kier1>
17.81

>  <Kier2>
7.09

>  <Lipinski>
1

>  <GhoseFilter>
1

>  <FilterItLogS>
-4.34

>  <VMcGowan>
241.44

>  <LabuteASA>
135.8

>  <PEOE_VSA1>
4.74

>  <PEOE_VSA2>
0

>  <PEOE_VSA3>
8.42

>  <PEOE_VSA4>
5.26

>  <PEOE_VSA5>
0

>  <PEOE_VSA6>
29.83

>  <PEOE_VSA7>
36.75

>  <PEOE_VSA8>
5.92

>  <PEOE_VSA9>
29.24

>  <PEOE_VSA10>
5.75

>  <PEOE_VSA11>
9.84

>  <PEOE_VSA12>
0

>  <PEOE_VSA13>
0

>  <SMR_VSA1>
13.15

>  <SMR_VSA2>
5.26

>  <SMR_VSA3>
0

>  <SMR_VSA4>
5.92

>  <SMR_VSA5>
22.99

>  <SMR_VSA6>
7.11

>  <SMR_VSA7>
59.66

>  <SMR_VSA8>
0

>  <SMR_VSA9>
11.82

>  <SlogP_VSA1>
4.74

>  <SlogP_VSA2>
20.78

>  <SlogP_VSA3>
9.84

>  <SlogP_VSA4>
24.17

>  <SlogP_VSA5>
17.04

>  <SlogP_VSA6>
53.43

>  <SlogP_VSA7>
0

>  <SlogP_VSA8>
0

>  <SlogP_VSA9>
0

>  <SlogP_VSA10>
0

>  <SlogP_VSA11>
5.75

>  <EState_VSA1>
21.01

>  <EState_VSA2>
10.81

>  <EState_VSA3>
5.75

>  <EState_VSA4>
11.13

>  <EState_VSA5>
0

>  <EState_VSA6>
43.51

>  <EState_VSA7>
19.06

>  <EState_VSA8>
6.07

>  <EState_VSA9>
4.74

>  <EState_VSA10>
13.68

>  <VSA_EState1>
30.73

>  <VSA_EState2>
0.28

>  <VSA_EState3>
8.65

>  <VSA_EState4>
1.86

>  <VSA_EState5>
-0.08

>  <VSA_EState6>
16.17

>  <VSA_EState7>
0

>  <VSA_EState8>
1.91

>  <VSA_EState9>
-1.93

>  <apol>
47.8

>  <bpol>
26.02

>  <nRing>
3

>  <nHRing>
0

>  <naRing>
2

>  <naHRing>
0

>  <nARing 2>
1

>  <nAHRing 2>
0

>  <nFRing>
0

>  <nFHRing>
0

>  <nFaRing>
0

>  <nFaHRing>
0

>  <nFARing 2>
0

>  <nFAHRing 2>
0

>  <nRot>
4

>  <SLogP>
3.08

>  <SMR>
86.99

>  <TopoPSA(NO)>
67.16

>  <TopoPSA>
75.54

>  <JGI1>
0.22

>  <JGI2>
0.12

>  <JGI3>
0.08

>  <JGI4>
0.06

>  <JGI5>
0.03

>  <Diameter>
13

>  <Radius>
7

>  <TMWC10>
124.7

>  <TSRW10>
78.53

>  <MW>
327.09

>  <AMW>
8.18

>  <WPath>
1213

>  <WPol>
37

>  <Zagreb1>
124

>  <Zagreb2>
151

>  <mZagreb2>
5.11

>  <yes>


>  <nAR-cont>
0.816016

>  <nHA-cont>
0.967789328

>  <MWHBN>
0.221170071

>  <MWHBN-cont>
0.994196557

>  <TPSA-cont>
0.472683892

>  <pka_cont>
0.97

>  <yes.1>


>  <BBB_SCORE>
4.705467948

>  <MMFF94 Energy>
MMFF94 error code 2

$$$$
Compound 2243
Actelion Java MolfileCreator 2.0

  0  0  0  0  0  0              0 V3000
M  V30 BEGIN CTAB
M  V30 COUNTS 40 42 0 0 0
M  V30 BEGIN ATOM
M  V30 1 Cl 7.4027 0.9846 0.9846 0
M  V30 2 C 5.8862 0.313 0.5273 0
M  V30 3 C 5.5123 0.2992 -0.8167 0
M  V30 4 C 5.0418 -0.2164 1.5044 0
M  V30 5 C 4.2813 -0.2441 -1.1904 0
M  V30 6 C 3.8085 -0.7589 1.137 0
M  V30 7 C 3.428 -0.7561 -0.2096 0
M  V30 8 S 1.8733 -1.4777 -0.6687 0
M  V30 9 O 1.8197 -1.5968 -2.1114 0
M  V30 10 O 1.6923 -2.6475 0.1708 0
M  V30 11 C 0.63 -0.2945 -0.1041 0 CFG=2
M  V30 12 C -0.6619 -0.4054 -0.8958 0 CFG=2
M  V30 13 C 0.1776 0.8547 -0.967 0 CFG=2
M  V30 14 C -1.9809 -0.4142 -0.1595 0
M  V30 15 C 0.8278 1.2766 -2.2348 0
M  V30 16 C -2.9576 0.5684 -0.3865 0
M  V30 17 C -2.2321 -1.3413 0.8631 0
M  V30 18 O 2.0784 1.8651 -1.9195 0
M  V30 19 C -4.1519 0.6041 0.3459 0
M  V30 20 C -3.4217 -1.3095 1.5976 0
M  V30 21 C -4.3897 -0.3394 1.3418 0
M  V30 22 O -5.504 -0.4186 2.1293 0
M  V30 23 C -6.5395 0.5221 1.8752 0
M  V30 24 H 6.1721 0.7085 -1.5775 0
M  V30 25 H 5.3426 -0.2163 2.5491 0
M  V30 26 H 3.9925 -0.2502 -2.2398 0
M  V30 27 H 3.1622 -1.1899 1.8986 0
M  V30 28 H 0.5742 -0.164 0.9681 0
M  V30 29 H -0.655 -1.0351 -1.785 0
M  V30 30 H -0.1764 1.7289 -0.4272 0
M  V30 31 H 0.987 0.464 -2.9447 0
M  V30 32 H 0.211 2.0239 -2.746 0
M  V30 33 H -2.7942 1.3197 -1.1565 0
M  V30 34 H -1.4966 -2.112 1.089 0
M  V30 35 H 1.8998 2.7409 -1.5362 0
M  V30 36 H -4.8695 1.3835 0.113 0
M  V30 37 H -3.5924 -2.0497 2.3757 0
M  V30 38 H -6.198 1.5449 2.066 0
M  V30 39 H -7.3604 0.3111 2.5674 0
M  V30 40 H -6.9276 0.4179 0.8566 0
M  V30 END ATOM
M  V30 BEGIN BOND
M  V30 1 1 1 2
M  V30 2 2 2 3
M  V30 3 1 2 4
M  V30 4 1 3 5
M  V30 5 2 4 6
M  V30 6 2 5 7
M  V30 7 1 7 8
M  V30 8 2 8 9
M  V30 9 2 8 10
M  V30 10 1 8 11
M  V30 11 1 11 12
M  V30 12 1 11 13
M  V30 13 1 12 14
M  V30 14 1 13 15
M  V30 15 2 14 16
M  V30 16 1 14 17
M  V30 17 1 15 18
M  V30 18 1 16 19
M  V30 19 2 17 20
M  V30 20 2 19 21
M  V30 21 1 21 22
M  V30 22 1 22 23
M  V30 23 1 6 7
M  V30 24 1 12 13
M  V30 25 1 20 21
M  V30 26 1 3 24
M  V30 27 1 4 25
M  V30 28 1 5 26
M  V30 29 1 6 27
M  V30 30 1 11 28
M  V30 31 1 12 29
M  V30 32 1 13 30
M  V30 33 1 15 31
M  V30 34 1 15 32
M  V30 35 1 16 33
M  V30 36 1 17 34
M  V30 37 1 18 35
M  V30 38 1 19 36
M  V30 39 1 20 37
M  V30 40 1 23 38
M  V30 41 1 23 39
M  V30 42 1 23 40
M  V30 END BOND
M  V30 BEGIN COLLECTION
M  V30 MDLV30/STEABS ATOMS=(3 11 12 13)
M  V30 END COLLECTION
M  V30 END CTAB
M  END
>  <Column 1>
2745

>  <level_0>
3980

>  <index>
3980

>  <Unnamed: 0>
3980

>  <NO.>
3992

>  <Name>
prednisolone

>  <IUPAC_name>
[(1r-2r-3r)-2-(4-chlorophenyl)sulfonyl-3-(4-methoxyphenyl)cyclopropyl]methanol

>  <SMILES>
COc1ccc([C@H]2[C@H](CO)[C@@H]2S(=O)(=O)c2ccc(Cl)cc2)cc1

>  <CID>
100004894

>  <logBB>


>  <BBB+/BBB->
BBB-

>  <Inchi>
InChI=1S/C17H17ClO4S/c1-22-13-6-2-11(3-7-13)16-15(10-19)17(16)23(20-21)14-8-4-12(18)5-9-14/h2-9-15-17-19H-10H2-1H3/t15--16--17-/m0/s1

>  <threshold>
-1

>  <reference>
R16|R10|R10|

>  <group>
B

>  <Class>
1

>  <ABC>
17.82

>  <ABCGG>
15.24

>  <nAcid>
0

>  <nBase>
0

>  <nAromAtom>
12

>  <nAromBond>
12

>  <nAtom>
40

>  <nHeavyAtom>
23

>  <nSpiro>
0

>  <nBridgehead>
0

>  <nHetero>
6

>  <nN>
0

>  <nO>
4

>  <nF>
0

>  <BalabanJ>
1.62

>  <BertzCT>
784.35

>  <nBonds>
42

>  <nBondsO>
25

>  <nBondsS>
28

>  <nBondsD>
2

>  <nBondsT>
0

>  <nBondsA>
12

>  <nBondsM>
14

>  <nBondsKS>
34

>  <nBondsKD>
8

>  <RNCG>
0.28

>  <RPCG>
0.12

>  <FCSP3>
0.29

>  <SZ>
30.67

>  <Sm>
29.38

>  <Sv>
26.74

>  <Sse>
40.71

>  <Sp>
28.75

>  <Si>
44.44

>  <MZ>
0.77

>  <Mm>
0.73

>  <Mv>
0.67

>  <Mse>
1.02

>  <Mp>
0.72

>  <Mi>
1.11

>  <NsCH3>
1

>  <NdCH2>
0

>  <NssCH2>
1

>  <NtCH>
0

>  <NdsCH>
0

>  <NaaCH>
8

>  <NsssCH>
3

>  <NddC>
0

>  <NtsC>
0

>  <NdssC>
0

>  <NaasC>
4

>  <NaaaC>
0

>  <NssssC>
0

>  <NsNH3>
0

>  <NsNH2>
0

>  <NssNH2>
0

>  <NdNH>
0

>  <NssNH>
0

>  <NaaNH>
0

>  <NtN>
0

>  <NsssNH>
0

>  <NdsN>
0

>  <NaaN>
0

>  <NsssN>
0

>  <NddsN>
0

>  <NaasN>
0

>  <NssssN>
0

>  <NsOH>
1

>  <NdO>
2

>  <NssO>
1

>  <NaaO>
0

>  <NsF>
0

>  <NsSiH3>
0

>  <NssSiH2>
0

>  <NsssSiH>
0

>  <NssssSi>
0

>  <NsPH2>
0

>  <NssPH>
0

>  <NsssP>
0

>  <NdsssP>
0

>  <NsssssP>
0

>  <NsSH>
0

>  <NdS>
0

>  <NssS>
0

>  <NaaS>
0

>  <NdssS>
0

>  <NddssS>
1

>  <NsCl>
1

>  <NsBr>
0

>  <NsI>
0

>  <fragCpx>
119.06

>  <fMF>
0.4

>  <nHBAcc>
4

>  <nHBDon>
1

>  <Kier1>
17.81

>  <Kier2>
7.09

>  <Lipinski>
1

>  <GhoseFilter>
1

>  <FilterItLogS>
-4.3

>  <VMcGowan>
244.08

>  <LabuteASA>
140.14

>  <PEOE_VSA1>
9.84

>  <PEOE_VSA2>
0

>  <PEOE_VSA3>
8.42

>  <PEOE_VSA4>
0

>  <PEOE_VSA5>
0

>  <PEOE_VSA6>
23.73

>  <PEOE_VSA7>
41.96

>  <PEOE_VSA8>
23.47

>  <PEOE_VSA9>
17.26

>  <PEOE_VSA10>
5.75

>  <PEOE_VSA11>
9.84

>  <PEOE_VSA12>
0

>  <PEOE_VSA13>
0

>  <SMR_VSA1>
18.26

>  <SMR_VSA2>
0

>  <SMR_VSA3>
0

>  <SMR_VSA4>
5.92

>  <SMR_VSA5>
16.06

>  <SMR_VSA6>
13.72

>  <SMR_VSA7>
59.12

>  <SMR_VSA8>
0

>  <SMR_VSA9>
5.75

>  <SlogP_VSA1>
4.74

>  <SlogP_VSA2>
32.49

>  <SlogP_VSA3>
9.84

>  <SlogP_VSA4>
5.92

>  <SlogP_VSA5>
11.48

>  <SlogP_VSA6>
53.43

>  <SlogP_VSA7>
5.02

>  <SlogP_VSA8>
0

>  <SlogP_VSA9>
0

>  <SlogP_VSA10>
0

>  <SlogP_VSA11>
5.75

>  <EState_VSA1>
15.09

>  <EState_VSA2>
23.34

>  <EState_VSA3>
10.77

>  <EState_VSA4>
5.56

>  <EState_VSA5>
12.13

>  <EState_VSA6>
31.38

>  <EState_VSA7>
12.13

>  <EState_VSA8>
0

>  <EState_VSA9>
16.34

>  <EState_VSA10>
13.52

>  <VSA_EState1>
30.72

>  <VSA_EState2>
0.24

>  <VSA_EState3>
9.43

>  <VSA_EState4>
0.9

>  <VSA_EState5>
0.22

>  <VSA_EState6>
13.44

>  <VSA_EState7>
0

>  <VSA_EState8>
-0.16

>  <VSA_EState9>
-1.93

>  <apol>
48.01

>  <bpol>
25.96

>  <nRing>
3

>  <nHRing>
0

>  <naRing>
2

>  <naHRing>
0

>  <nARing 2>
1

>  <nAHRing 2>
0

>  <nFRing>
0

>  <nFHRing>
0

>  <nFaRing>
0

>  <nFaHRing>
0

>  <nFARing 2>
0

>  <nFAHRing 2>
0

>  <nRot>
5

>  <SLogP>
2.9

>  <SMR>
88.74

>  <TopoPSA(NO)>
63.6

>  <TopoPSA>
71.98

>  <JGI1>
0.22

>  <JGI2>
0.12

>  <JGI3>
0.08

>  <JGI4>
0.06

>  <JGI5>
0.03

>  <Diameter>
13

>  <Radius>
7

>  <TMWC10>
124.7

>  <TSRW10>
78.53

>  <MW>
352.05

>  <AMW>
8.8

>  <WPath>
1213

>  <WPol>
37

>  <Zagreb1>
124

>  <Zagreb2>
151

>  <mZagreb2>
5.11

>  <yes>


>  <nAR-cont>
0.816016

>  <nHA-cont>
0.967789328

>  <MWHBN>
0.26648197

>  <MWHBN-cont>
0.927928851

>  <TPSA-cont>
0.497534903

>  <pka_cont>
0.97

>  <yes.1>


>  <BBB_SCORE>
4.655768411

>  <MMFF94 Energy>
62.714

$$$$
Compound 2244
Actelion Java MolfileCreator 2.0

  0  0  0  0  0  0              0 V3000
M  V30 BEGIN CTAB
M  V30 COUNTS 31 32 0 0 0
M  V30 BEGIN ATOM
M  V30 1 S 0.4847 -3.5586 -0.5655 0
M  V30 2 O 0.2397 -4.6565 0.3519 0
M  V30 3 O -0.135 -3.5574 -1.879 0
M  V30 4 C -0.1566 -2.0857 0.2353 0 CFG=1
M  V30 5 C 2.2278 -3.4284 -0.8225 0
M  V30 6 C 0.4363 -1.6685 1.5447 0 CFG=2
M  V30 7 C 0.7429 -0.8781 0.2867 0 CFG=2
M  V30 8 N 1.5283 -2.3775 2.2132 0
M  V30 9 C 0.1529 0.4984 0.0793 0
M  V30 10 C -0.6384 0.7901 -1.0439 0
M  V30 11 C 0.2781 1.5019 1.051 0
M  V30 12 C -1.2461 2.0414 -1.2129 0
M  V30 13 C -0.3258 2.7525 0.8868 0
M  V30 14 C -1.0892 3.0309 -0.2461 0
M  V30 15 O -1.6242 4.288 -0.283 0
M  V30 16 C -2.4033 4.6212 -1.4251 0
M  V30 17 H -1.2234 -1.9449 0.1207 0
M  V30 18 H 2.4356 -2.5797 -1.476 0
M  V30 19 H 2.7511 -3.335 0.1269 0
M  V30 20 H 2.5564 -4.3452 -1.3188 0
M  V30 21 H -0.2833 -1.2397 2.2426 0
M  V30 22 H 1.7614 -0.9619 -0.0769 0
M  V30 23 H 1.1893 -3.2624 2.6051 0
M  V30 24 H 1.8736 -1.8441 3.0134 0
M  V30 25 H -0.7842 0.0314 -1.8118 0
M  V30 26 H 0.8622 1.3155 1.9497 0
M  V30 27 H -1.8366 2.2033 -2.1084 0
M  V30 28 H -0.2017 3.5149 1.6523 0
M  V30 29 H -1.8032 4.5751 -2.3397 0
M  V30 30 H -2.7482 5.6528 -1.305 0
M  V30 31 H -3.2884 3.9808 -1.4992 0
M  V30 END ATOM
M  V30 BEGIN BOND
M  V30 1 2 1 2
M  V30 2 2 1 3
M  V30 3 1 1 4
M  V30 4 1 1 5
M  V30 5 1 4 6
M  V30 6 1 4 7
M  V30 7 1 6 8
M  V30 8 1 7 9
M  V30 9 2 9 10
M  V30 10 1 9 11
M  V30 11 1 10 12
M  V30 12 2 11 13
M  V30 13 2 12 14
M  V30 14 1 14 15
M  V30 15 1 15 16
M  V30 16 1 6 7
M  V30 17 1 13 14
M  V30 18 1 4 17
M  V30 19 1 5 18
M  V30 20 1 5 19
M  V30 21 1 5 20
M  V30 22 1 6 21
M  V30 23 1 7 22
M  V30 24 1 8 23
M  V30 25 1 8 24
M  V30 26 1 10 25
M  V30 27 1 11 26
M  V30 28 1 12 27
M  V30 29 1 13 28
M  V30 30 1 16 29
M  V30 31 1 16 30
M  V30 32 1 16 31
M  V30 END BOND
M  V30 BEGIN COLLECTION
M  V30 MDLV30/STEABS ATOMS=(3 4 6 7)
M  V30 END COLLECTION
M  V30 END CTAB
M  END
>  <Column 1>
2746

>  <level_0>
3981

>  <index>
3981

>  <Unnamed: 0>
3981

>  <NO.>
3993

>  <Name>
droperidol

>  <IUPAC_name>
(1s-2s-3r)-2-(4-methoxyphenyl)-3-methylsulfonylcyclopropan-1-amine

>  <SMILES>
COc1ccc([C@H]2[C@H](N)[C@@H]2S(C)(=O)=O)cc1

>  <CID>
100003168

>  <logBB>


>  <BBB+/BBB->
BBB+

>  <Inchi>
InChI=1S/C11H15NO3S/c1-15-8-5-3-7(4-6-8)9-10(12)11(9)16(2-13)14/h3-6-9-11H-12H2-1-2H3/t9--10--11+/m0/s1

>  <threshold>
-1

>  <reference>
R16|R10|R10|

>  <group>
B

>  <Class>
1

>  <ABC>
12.38

>  <ABCGG>
11.5

>  <nAcid>
0

>  <nBase>
1

>  <nAromAtom>
6

>  <nAromBond>
6

>  <nAtom>
31

>  <nHeavyAtom>
16

>  <nSpiro>
0

>  <nBridgehead>
0

>  <nHetero>
5

>  <nN>
1

>  <nO>
3

>  <nF>
0

>  <BalabanJ>
1.87

>  <BertzCT>
480.46

>  <nBonds>
32

>  <nBondsO>
17

>  <nBondsS>
24

>  <nBondsD>
2

>  <nBondsT>
0

>  <nBondsA>
6

>  <nBondsM>
8

>  <nBondsKS>
27

>  <nBondsKD>
5

>  <RNCG>
0.34

>  <RPCG>
0.1

>  <FCSP3>
0.45

>  <SZ>
21.33

>  <Sm>
20.09

>  <Sv>
19.15

>  <Sse>
31.39

>  <Sp>
20.83

>  <Si>
34.95

>  <MZ>
0.69

>  <Mm>
0.65

>  <Mv>
0.62

>  <Mse>
1.01

>  <Mp>
0.67

>  <Mi>
1.13

>  <NsCH3>
2

>  <NdCH2>
0

>  <NssCH2>
0

>  <NtCH>
0

>  <NdsCH>
0

>  <NaaCH>
4

>  <NsssCH>
3

>  <NddC>
0

>  <NtsC>
0

>  <NdssC>
0

>  <NaasC>
2

>  <NaaaC>
0

>  <NssssC>
0

>  <NsNH3>
0

>  <NsNH2>
1

>  <NssNH2>
0

>  <NdNH>
0

>  <NssNH>
0

>  <NaaNH>
0

>  <NtN>
0

>  <NsssNH>
0

>  <NdsN>
0

>  <NaaN>
0

>  <NsssN>
0

>  <NddsN>
0

>  <NaasN>
0

>  <NssssN>
0

>  <NsOH>
0

>  <NdO>
2

>  <NssO>
1

>  <NaaO>
0

>  <NsF>
0

>  <NsSiH3>
0

>  <NssSiH2>
0

>  <NsssSiH>
0

>  <NssssSi>
0

>  <NsPH2>
0

>  <NssPH>
0

>  <NsssP>
0

>  <NdsssP>
0

>  <NsssssP>
0

>  <NsSH>
0

>  <NdS>
0

>  <NssS>
0

>  <NaaS>
0

>  <NdssS>
0

>  <NddssS>
1

>  <NsCl>
0

>  <NsBr>
0

>  <NsI>
0

>  <fragCpx>
49.05

>  <fMF>
0.29

>  <nHBAcc>
4

>  <nHBDon>
1

>  <Kier1>
12.46

>  <Kier2>
4.35

>  <Lipinski>
1

>  <GhoseFilter>
1

>  <FilterItLogS>
-2.02

>  <VMcGowan>
175.17

>  <LabuteASA>
95.33

>  <PEOE_VSA1>
10.47

>  <PEOE_VSA2>
0

>  <PEOE_VSA3>
8.42

>  <PEOE_VSA4>
0

>  <PEOE_VSA5>
0

>  <PEOE_VSA6>
12.13

>  <PEOE_VSA7>
17.7

>  <PEOE_VSA8>
18.22

>  <PEOE_VSA9>
12.36

>  <PEOE_VSA10>
5.75

>  <PEOE_VSA11>
9.84

>  <PEOE_VSA12>
0

>  <PEOE_VSA13>
0

>  <SMR_VSA1>
13.15

>  <SMR_VSA2>
0

>  <SMR_VSA3>
0

>  <SMR_VSA4>
5.73

>  <SMR_VSA5>
17.21

>  <SMR_VSA6>
13.37

>  <SMR_VSA7>
29.83

>  <SMR_VSA8>
0

>  <SMR_VSA9>
5.75

>  <SlogP_VSA1>
10.47

>  <SlogP_VSA2>
33.08

>  <SlogP_VSA3>
9.84

>  <SlogP_VSA4>
0

>  <SlogP_VSA5>
11.48

>  <SlogP_VSA6>
24.27

>  <SlogP_VSA7>
0

>  <SlogP_VSA8>
0

>  <SlogP_VSA9>
0

>  <SlogP_VSA10>
0

>  <SlogP_VSA11>
5.75

>  <EState_VSA1>
15.09

>  <EState_VSA2>
11.96

>  <EState_VSA3>
0

>  <EState_VSA4>
11.31

>  <EState_VSA5>
6.26

>  <EState_VSA6>
7.11

>  <EState_VSA7>
24.27

>  <EState_VSA8>
0

>  <EState_VSA9>
10.47

>  <EState_VSA10>
8.42

>  <VSA_EState1>
27.85

>  <VSA_EState2>
0

>  <VSA_EState3>
-0.43

>  <VSA_EState4>
6.75

>  <VSA_EState5>
0.69

>  <VSA_EState6>
7.1

>  <VSA_EState7>
1.24

>  <VSA_EState8>
0

>  <VSA_EState9>
-1.45

>  <apol>
34.78

>  <bpol>
22.87

>  <nRing>
2

>  <nHRing>
0

>  <naRing>
1

>  <naHRing>
0

>  <nARing 2>
1

>  <nAHRing 2>
0

>  <nFRing>
0

>  <nFHRing>
0

>  <nFaRing>
0

>  <nFaHRing>
0

>  <nFARing 2>
0

>  <nFAHRing 2>
0

>  <nRot>
3

>  <SLogP>
0.53

>  <SMR>
62.34

>  <TopoPSA(NO)>
69.39

>  <TopoPSA>
77.77

>  <JGI1>
0.26

>  <JGI2>
0.11

>  <JGI3>
0.1

>  <JGI4>
0.06

>  <JGI5>
0.04

>  <Diameter>
9

>  <Radius>
5

>  <TMWC10>
106.16

>  <TSRW10>
69.62

>  <MW>
241.08

>  <AMW>
7.78

>  <WPath>
453

>  <WPol>
22

>  <Zagreb1>
86

>  <Zagreb2>
103

>  <mZagreb2>
3.44

>  <yes>


>  <nAR-cont>
0.816016

>  <nHA-cont>
0.954961865

>  <MWHBN>
0.32202487

>  <MWHBN-cont>
0.770337572

>  <TPSA-cont>
0.457117108

>  <pka_cont>
0.97

>  <yes.1>


>  <BBB_SCORE>
4.325718439

>  <MMFF94 Energy>
36.794

$$$$
Compound 2245
Actelion Java MolfileCreator 2.0

  0  0  0  0  0  0              0 V3000
M  V30 BEGIN CTAB
M  V30 COUNTS 45 47 0 0 0
M  V30 BEGIN ATOM
M  V30 1 Cl -2.6933 -6.7024 -2.1215 0
M  V30 2 C -1.9031 -5.4729 -1.2146 0
M  V30 3 C -2.6573 -4.4585 -0.6224 0
M  V30 4 C -0.5152 -5.5001 -1.0736 0
M  V30 5 C -2.0198 -3.4566 0.1122 0
M  V30 6 C 0.1288 -4.5028 -0.3383 0
M  V30 7 C -0.6267 -3.4779 0.239 0
M  V30 8 S 0.1725 -2.2049 1.1827 0
M  V30 9 O -0.5841 -2.0653 2.4117 0
M  V30 10 O 1.5945 -2.4789 1.2153 0
M  V30 11 C -0.1345 -0.6848 0.2591 0 CFG=2
M  V30 12 C 0.6345 -0.3192 -1.0016 0 CFG=2
M  V30 13 C 1.003 0.3038 0.3607 0 CFG=1
M  V30 14 C -0.1907 0.475 -2.0038 0
M  V30 15 C 1.5413 -1.3188 -1.7011 0
M  V30 16 C 0.7118 1.7475 0.7146 0
M  V30 17 O 0.6692 1.2747 -2.8003 0
M  V30 18 N 2.8264 -1.5577 -1.0764 0
M  V30 19 C -0.1703 2.0861 1.7546 0
M  V30 20 C 1.2427 2.804 -0.0383 0
M  V30 21 C -0.4898 3.4189 2.0475 0
M  V30 22 C 0.9252 4.1356 0.247 0
M  V30 23 C 0.0594 4.4515 1.2927 0
M  V30 24 O -0.1687 5.7879 1.4662 0
M  V30 25 C -0.9902 6.1617 2.565 0
M  V30 26 H -3.74 -4.4505 -0.7224 0
M  V30 27 H 0.0692 -6.2957 -1.5295 0
M  V30 28 H -2.6138 -2.682 0.5923 0
M  V30 29 H 1.2115 -4.5329 -0.2279 0
M  V30 30 H -1.1476 -0.3166 0.3568 0
M  V30 31 H 1.9224 -0.043 0.8264 0
M  V30 32 H -0.7408 -0.2072 -2.661 0
M  V30 33 H -0.9203 1.1305 -1.5161 0
M  V30 34 H 1.012 -2.266 -1.8321 0
M  V30 35 H 1.7568 -0.9749 -2.719 0
M  V30 36 H 0.1028 1.8624 -3.3293 0
M  V30 37 H 3.3237 -0.6762 -0.9622 0
M  V30 38 H 2.7032 -1.9504 -0.136 0
M  V30 39 H -0.6097 1.3 2.3671 0
M  V30 40 H 1.9202 2.5897 -0.8633 0
M  V30 41 H -1.1695 3.6101 2.8711 0
M  V30 42 H 1.3602 4.9311 -0.3529 0
M  V30 43 H -2.0084 5.7777 2.4438 0
M  V30 44 H -1.047 7.2544 2.5835 0
M  V30 45 H -0.5543 5.8348 3.5148 0
M  V30 END ATOM
M  V30 BEGIN BOND
M  V30 1 1 1 2
M  V30 2 2 2 3
M  V30 3 1 2 4
M  V30 4 1 3 5
M  V30 5 2 4 6
M  V30 6 2 5 7
M  V30 7 1 7 8
M  V30 8 2 8 9
M  V30 9 2 8 10
M  V30 10 1 8 11
M  V30 11 1 11 12
M  V30 12 1 11 13
M  V30 13 1 12 14
M  V30 14 1 12 15
M  V30 15 1 13 16
M  V30 16 1 14 17
M  V30 17 1 15 18
M  V30 18 2 16 19
M  V30 19 1 16 20
M  V30 20 1 19 21
M  V30 21 2 20 22
M  V30 22 2 21 23
M  V30 23 1 23 24
M  V30 24 1 24 25
M  V30 25 1 6 7
M  V30 26 1 12 13
M  V30 27 1 22 23
M  V30 28 1 3 26
M  V30 29 1 4 27
M  V30 30 1 5 28
M  V30 31 1 6 29
M  V30 32 1 11 30
M  V30 33 1 13 31
M  V30 34 1 14 32
M  V30 35 1 14 33
M  V30 36 1 15 34
M  V30 37 1 15 35
M  V30 38 1 17 36
M  V30 39 1 18 37
M  V30 40 1 18 38
M  V30 41 1 19 39
M  V30 42 1 20 40
M  V30 43 1 21 41
M  V30 44 1 22 42
M  V30 45 1 25 43
M  V30 46 1 25 44
M  V30 47 1 25 45
M  V30 END BOND
M  V30 BEGIN COLLECTION
M  V30 MDLV30/STEABS ATOMS=(3 11 12 13)
M  V30 END COLLECTION
M  V30 END CTAB
M  END
>  <Column 1>
2747

>  <level_0>
3982

>  <index>
3982

>  <Unnamed: 0>
3982

>  <NO.>
3994

>  <Name>
pergolide

>  <IUPAC_name>
[(1s-2s-3r)-1-(aminomethyl)-2-(4-chlorophenyl)sulfonyl-3-(4-methoxyphenyl)cyclopropyl]methanol

>  <SMILES>
COc1ccc([C@H]2[C@H](S(=O)(=O)c3ccc(Cl)cc3)[C@@]2(CN)CO)cc1

>  <CID>
100004745

>  <logBB>


>  <BBB+/BBB->
BBB+

>  <Inchi>
InChI=1S/C18H20ClNO4S/c1-24-14-6-2-12(3-7-14)16-17(18(16-10-20)11-21)25(22-23)15-8-4-13(19)5-9-15/h2-9-16-17-21H-10-11-20H2-1H3/t16--17--18-/m0/s1

>  <threshold>
-1

>  <reference>
R16|R10|R10|

>  <group>
B

>  <Class>
1

>  <ABC>
19.19

>  <ABCGG>
16.69

>  <nAcid>
0

>  <nBase>
1

>  <nAromAtom>
12

>  <nAromBond>
12

>  <nAtom>
45

>  <nHeavyAtom>
25

>  <nSpiro>
0

>  <nBridgehead>
0

>  <nHetero>
7

>  <nN>
1

>  <nO>
4

>  <nF>
0

>  <BalabanJ>
1.74

>  <BertzCT>
845.65

>  <nBonds>
47

>  <nBondsO>
27

>  <nBondsS>
33

>  <nBondsD>
2

>  <nBondsT>
0

>  <nBondsA>
12

>  <nBondsM>
14

>  <nBondsKS>
39

>  <nBondsKD>
8

>  <RNCG>
0.24

>  <RPCG>
0.1

>  <FCSP3>
0.33

>  <SZ>
33.33

>  <Sm>
31.79

>  <Sv>
29.31

>  <Sse>
45.71

>  <Sp>
31.61

>  <Si>
50.35

>  <MZ>
0.74

>  <Mm>
0.71

>  <Mv>
0.65

>  <Mse>
1.02

>  <Mp>
0.7

>  <Mi>
1.12

>  <NsCH3>
1

>  <NdCH2>
0

>  <NssCH2>
2

>  <NtCH>
0

>  <NdsCH>
0

>  <NaaCH>
8

>  <NsssCH>
2

>  <NddC>
0

>  <NtsC>
0

>  <NdssC>
0

>  <NaasC>
4

>  <NaaaC>
0

>  <NssssC>
1

>  <NsNH3>
0

>  <NsNH2>
1

>  <NssNH2>
0

>  <NdNH>
0

>  <NssNH>
0

>  <NaaNH>
0

>  <NtN>
0

>  <NsssNH>
0

>  <NdsN>
0

>  <NaaN>
0

>  <NsssN>
0

>  <NddsN>
0

>  <NaasN>
0

>  <NssssN>
0

>  <NsOH>
1

>  <NdO>
2

>  <NssO>
1

>  <NaaO>
0

>  <NsF>
0

>  <NsSiH3>
0

>  <NssSiH2>
0

>  <NsssSiH>
0

>  <NssssSi>
0

>  <NsPH2>
0

>  <NssPH>
0

>  <NsssP>
0

>  <NdsssP>
0

>  <NsssssP>
0

>  <NsSH>
0

>  <NdS>
0

>  <NssS>
0

>  <NaaS>
0

>  <NdssS>
0

>  <NddssS>
1

>  <NsCl>
1

>  <NsBr>
0

>  <NsI>
0

>  <fragCpx>
129.07

>  <fMF>
0.36

>  <nHBAcc>
5

>  <nHBDon>
2

>  <Kier1>
19.75

>  <Kier2>
7.55

>  <Lipinski>
1

>  <GhoseFilter>
1

>  <FilterItLogS>
-4.54

>  <VMcGowan>
268.15

>  <LabuteASA>
151.85

>  <PEOE_VSA1>
15.58

>  <PEOE_VSA2>
0

>  <PEOE_VSA3>
8.42

>  <PEOE_VSA4>
0

>  <PEOE_VSA5>
0

>  <PEOE_VSA6>
23.73

>  <PEOE_VSA7>
41.96

>  <PEOE_VSA8>
22.9

>  <PEOE_VSA9>
23.86

>  <PEOE_VSA10>
5.75

>  <PEOE_VSA11>
9.84

>  <PEOE_VSA12>
0

>  <PEOE_VSA13>
0

>  <SMR_VSA1>
18.26

>  <SMR_VSA2>
0

>  <SMR_VSA3>
0

>  <SMR_VSA4>
11.15

>  <SMR_VSA5>
16.06

>  <SMR_VSA6>
20.26

>  <SMR_VSA7>
59.12

>  <SMR_VSA8>
0

>  <SMR_VSA9>
5.75

>  <SlogP_VSA1>
10.47

>  <SlogP_VSA2>
39.04

>  <SlogP_VSA3>
9.84

>  <SlogP_VSA4>
5.41

>  <SlogP_VSA5>
11.48

>  <SlogP_VSA6>
53.43

>  <SlogP_VSA7>
5.02

>  <SlogP_VSA8>
0

>  <SlogP_VSA9>
0

>  <SlogP_VSA10>
0

>  <SlogP_VSA11>
5.75

>  <EState_VSA1>
20.5

>  <EState_VSA2>
23.97

>  <EState_VSA3>
10.77

>  <EState_VSA4>
5.56

>  <EState_VSA5>
12.13

>  <EState_VSA6>
31.38

>  <EState_VSA7>
12.13

>  <EState_VSA8>
0

>  <EState_VSA9>
22.07

>  <EState_VSA10>
13.52

>  <VSA_EState1>
31.37

>  <VSA_EState2>
0.18

>  <VSA_EState3>
9.62

>  <VSA_EState4>
5.82

>  <VSA_EState5>
0.32

>  <VSA_EState6>
13.25

>  <VSA_EState7>
0

>  <VSA_EState8>
-0.21

>  <VSA_EState9>
-2.09

>  <apol>
52.78

>  <bpol>
28.4

>  <nRing>
3

>  <nHRing>
0

>  <naRing>
2

>  <naHRing>
0

>  <nARing 2>
1

>  <nAHRing 2>
0

>  <nFRing>
0

>  <nFHRing>
0

>  <nFaRing>
0

>  <nFaHRing>
0

>  <nFARing 2>
0

>  <nFAHRing 2>
0

>  <nRot>
6

>  <SLogP>
2.23

>  <SMR>
96.73

>  <TopoPSA(NO)>
89.62

>  <TopoPSA>
98

>  <JGI1>
0.26

>  <JGI2>
0.13

>  <JGI3>
0.09

>  <JGI4>
0.06

>  <JGI5>
0.03

>  <Diameter>
13

>  <Radius>
7

>  <TMWC10>
130.49

>  <TSRW10>
82.01

>  <MW>
381.08

>  <AMW>
8.47

>  <WPath>
1445

>  <WPol>
43

>  <Zagreb1>
136

>  <Zagreb2>
169

>  <mZagreb2>
5.64

>  <yes>


>  <nAR-cont>
0.816016

>  <nHA-cont>
0.921834225

>  <MWHBN>
0.358583219

>  <MWHBN-cont>
0.637830047

>  <TPSA-cont>
0.315899146

>  <pka_cont>
0.97

>  <yes.1>


>  <BBB_SCORE>
3.811393586

>  <MMFF94 Energy>
55.465

$$$$
Compound 2246
Actelion Java MolfileCreator 2.0

  0  0  0  0  0  0              0 V3000
M  V30 BEGIN CTAB
M  V30 COUNTS 39 41 0 0 0
M  V30 BEGIN ATOM
M  V30 1 Cl 2.4773 -5.8704 -2.312 0
M  V30 2 C 2.5297 -4.4534 -1.3385 0
M  V30 3 C 1.5595 -4.2538 -0.3551 0
M  V30 4 C 3.544 -3.515 -1.5364 0
M  V30 5 C 1.5983 -3.1041 0.436 0
M  V30 6 C 3.5898 -2.3626 -0.749 0
M  V30 7 C 2.6088 -2.1596 0.2261 0
M  V30 8 S 2.6519 -0.6967 1.2397 0
M  V30 9 O 2.148 -1.0808 2.542 0
M  V30 10 O 3.9562 -0.0867 1.0672 0
M  V30 11 C 1.4715 0.3771 0.4224 0 CFG=2
M  V30 12 C 1.4085 1.7918 0.9538 0 CFG=1
M  V30 13 C 0.279 0.7965 1.2368 0 CFG=1
M  V30 14 N 2.1729 2.2341 2.1506 0
M  V30 15 C 1.247 2.7975 -0.0856 0
M  V30 16 C -1.0855 0.9017 0.5898 0
M  V30 17 N 1.1452 3.6109 -0.9065 0
M  V30 18 C -1.5701 -0.0945 -0.272 0
M  V30 19 C -1.8816 2.0477 0.751 0
M  V30 20 C -2.8033 0.0387 -0.918 0
M  V30 21 C -3.1166 2.1866 0.1037 0
M  V30 22 C -3.5834 1.1792 -0.7352 0
M  V30 23 O -4.7628 1.1842 -1.4252 0
M  V30 24 C -5.5773 2.3429 -1.2966 0
M  V30 25 H 0.7785 -4.9935 -0.1958 0
M  V30 26 H 4.3036 -3.6796 -2.297 0
M  V30 27 H 0.8507 -2.9607 1.214 0
M  V30 28 H 4.3902 -1.641 -0.9003 0
M  V30 29 H 1.3654 0.2353 -0.6449 0
M  V30 30 H 0.227 0.4409 2.2659 0
M  V30 31 H 3.1755 2.2704 1.9437 0
M  V30 32 H 1.9112 3.1829 2.4236 0
M  V30 33 H -0.9932 -0.9999 -0.4437 0
M  V30 34 H -1.5425 2.8548 1.3985 0
M  V30 35 H -3.1571 -0.7536 -1.5734 0
M  V30 36 H -3.6823 3.0962 0.2764 0
M  V30 37 H -5.9088 2.479 -0.2619 0
M  V30 38 H -6.4682 2.1955 -1.9146 0
M  V30 39 H -5.0588 3.2335 -1.6668 0
M  V30 END ATOM
M  V30 BEGIN BOND
M  V30 1 1 1 2
M  V30 2 2 2 3
M  V30 3 1 2 4
M  V30 4 1 3 5
M  V30 5 2 4 6
M  V30 6 2 5 7
M  V30 7 1 7 8
M  V30 8 2 8 9
M  V30 9 2 8 10
M  V30 10 1 8 11
M  V30 11 1 11 12
M  V30 12 1 11 13
M  V30 13 1 12 14
M  V30 14 1 12 15
M  V30 15 1 13 16
M  V30 16 3 15 17
M  V30 17 2 16 18
M  V30 18 1 16 19
M  V30 19 1 18 20
M  V30 20 2 19 21
M  V30 21 2 20 22
M  V30 22 1 22 23
M  V30 23 1 23 24
M  V30 24 1 6 7
M  V30 25 1 12 13
M  V30 26 1 21 22
M  V30 27 1 3 25
M  V30 28 1 4 26
M  V30 29 1 5 27
M  V30 30 1 6 28
M  V30 31 1 11 29
M  V30 32 1 13 30
M  V30 33 1 14 31
M  V30 34 1 14 32
M  V30 35 1 18 33
M  V30 36 1 19 34
M  V30 37 1 20 35
M  V30 38 1 21 36
M  V30 39 1 24 37
M  V30 40 1 24 38
M  V30 41 1 24 39
M  V30 END BOND
M  V30 BEGIN COLLECTION
M  V30 MDLV30/STEABS ATOMS=(3 11 12 13)
M  V30 END COLLECTION
M  V30 END CTAB
M  END
>  <Column 1>
2748

>  <level_0>
3983

>  <index>
3983

>  <Unnamed: 0>
3983

>  <NO.>
3995

>  <Name>
oxymorphone

>  <IUPAC_name>
(1s-2s-3r)-1-amino-2-(4-chlorophenyl)sulfonyl-3-(4-methoxyphenyl)cyclopropane-1-carbonitrile

>  <SMILES>
COc1ccc([C@H]2[C@H](S(=O)(=O)c3ccc(Cl)cc3)[C@@]2(N)C#N)cc1

>  <CID>
100004639

>  <logBB>


>  <BBB+/BBB->
BBB+

>  <Inchi>
InChI=1S/C17H15ClN2O3S/c1-23-13-6-2-11(3-7-13)15-16(17(15-20)10-19)24(21-22)14-8-4-12(18)5-9-14/h2-9-15-16H-20H2-1H3/t15--16--17+/m0/s1

>  <threshold>
-1

>  <reference>
R16|

>  <group>
B

>  <Class>
-1

>  <ABC>
18.64

>  <ABCGG>
16.08

>  <nAcid>
0

>  <nBase>
1

>  <nAromAtom>
12

>  <nAromBond>
12

>  <nAtom>
39

>  <nHeavyAtom>
24

>  <nSpiro>
0

>  <nBridgehead>
0

>  <nHetero>
7

>  <nN>
2

>  <nO>
3

>  <nF>
0

>  <BalabanJ>
1.69

>  <BertzCT>
904.35

>  <nBonds>
41

>  <nBondsO>
26

>  <nBondsS>
26

>  <nBondsD>
2

>  <nBondsT>
1

>  <nBondsA>
12

>  <nBondsM>
15

>  <nBondsKS>
32

>  <nBondsKD>
8

>  <RNCG>
0.26

>  <RPCG>
0.1

>  <FCSP3>
0.24

>  <SZ>
31.33

>  <Sm>
30.21

>  <Sv>
27

>  <Sse>
39.82

>  <Sp>
28.79

>  <Si>
43.4

>  <MZ>
0.8

>  <Mm>
0.77

>  <Mv>
0.69

>  <Mse>
1.02

>  <Mp>
0.74

>  <Mi>
1.11

>  <NsCH3>
1

>  <NdCH2>
0

>  <NssCH2>
0

>  <NtCH>
0

>  <NdsCH>
0

>  <NaaCH>
8

>  <NsssCH>
2

>  <NddC>
0

>  <NtsC>
1

>  <NdssC>
0

>  <NaasC>
4

>  <NaaaC>
0

>  <NssssC>
1

>  <NsNH3>
0

>  <NsNH2>
1

>  <NssNH2>
0

>  <NdNH>
0

>  <NssNH>
0

>  <NaaNH>
0

>  <NtN>
1

>  <NsssNH>
0

>  <NdsN>
0

>  <NaaN>
0

>  <NsssN>
0

>  <NddsN>
0

>  <NaasN>
0

>  <NssssN>
0

>  <NsOH>
0

>  <NdO>
2

>  <NssO>
1

>  <NaaO>
0

>  <NsF>
0

>  <NsSiH3>
0

>  <NssSiH2>
0

>  <NsssSiH>
0

>  <NssssSi>
0

>  <NsPH2>
0

>  <NssPH>
0

>  <NsssP>
0

>  <NdsssP>
0

>  <NsssssP>
0

>  <NsSH>
0

>  <NdS>
0

>  <NssS>
0

>  <NaaS>
0

>  <NdssS>
0

>  <NddssS>
1

>  <NsCl>
1

>  <NsBr>
0

>  <NsI>
0

>  <fragCpx>
124.07

>  <fMF>
0.41

>  <nHBAcc>
5

>  <nHBDon>
1

>  <Kier1>
18.78

>  <Kier2>
6.96

>  <Lipinski>
1

>  <GhoseFilter>
1

>  <FilterItLogS>
-4.41

>  <VMcGowan>
249.57

>  <LabuteASA>
145.08

>  <PEOE_VSA1>
10.47

>  <PEOE_VSA2>
0

>  <PEOE_VSA3>
8.42

>  <PEOE_VSA4>
5.26

>  <PEOE_VSA5>
0

>  <PEOE_VSA6>
23.73

>  <PEOE_VSA7>
41.96

>  <PEOE_VSA8>
10.94

>  <PEOE_VSA9>
18.07

>  <PEOE_VSA10>
16.54

>  <PEOE_VSA11>
9.84

>  <PEOE_VSA12>
0

>  <PEOE_VSA13>
0

>  <SMR_VSA1>
13.15

>  <SMR_VSA2>
5.26

>  <SMR_VSA3>
0

>  <SMR_VSA4>
5.73

>  <SMR_VSA5>
21.6

>  <SMR_VSA6>
7.11

>  <SMR_VSA7>
59.12

>  <SMR_VSA8>
0

>  <SMR_VSA9>
11.82

>  <SlogP_VSA1>
10.47

>  <SlogP_VSA2>
26.32

>  <SlogP_VSA3>
9.84

>  <SlogP_VSA4>
11.33

>  <SlogP_VSA5>
11.48

>  <SlogP_VSA6>
53.43

>  <SlogP_VSA7>
5.02

>  <SlogP_VSA8>
0

>  <SlogP_VSA9>
0

>  <SlogP_VSA10>
0

>  <SlogP_VSA11>
5.75

>  <EState_VSA1>
26.54

>  <EState_VSA2>
4.9

>  <EState_VSA3>
16.34

>  <EState_VSA4>
0

>  <EState_VSA5>
24.27

>  <EState_VSA6>
31.38

>  <EState_VSA7>
6.07

>  <EState_VSA8>
0

>  <EState_VSA9>
22.07

>  <EState_VSA10>
13.68

>  <VSA_EState1>
30.87

>  <VSA_EState2>
0.11

>  <VSA_EState3>
8.88

>  <VSA_EState4>
5.34

>  <VSA_EState5>
0.06

>  <VSA_EState6>
14.75

>  <VSA_EState7>
0

>  <VSA_EState8>
0

>  <VSA_EState9>
-2.21

>  <apol>
48.08

>  <bpol>
23.95

>  <nRing>
3

>  <nHRing>
0

>  <naRing>
2

>  <naHRing>
0

>  <nARing 2>
1

>  <nAHRing 2>
0

>  <nFRing>
0

>  <nFHRing>
0

>  <nFaRing>
0

>  <nFaHRing>
0

>  <nFARing 2>
0

>  <nFAHRing 2>
0

>  <nRot>
4

>  <SLogP>
2.51

>  <SMR>
90.69

>  <TopoPSA(NO)>
93.18

>  <TopoPSA>
101.56

>  <JGI1>
0.27

>  <JGI2>
0.14

>  <JGI3>
0.09

>  <JGI4>
0.06

>  <JGI5>
0.03

>  <Diameter>
13

>  <Radius>
7

>  <TMWC10>
128.04

>  <TSRW10>
80.77

>  <MW>
362.05

>  <AMW>
9.28

>  <WPath>
1317

>  <WPol>
40

>  <Zagreb1>
132

>  <Zagreb2>
163

>  <mZagreb2>
5.26

>  <yes>


>  <nAR-cont>
0.816016

>  <nHA-cont>
0.94700071

>  <MWHBN>
0.315331222

>  <MWHBN-cont>
0.792647555

>  <TPSA-cont>
0.291048135

>  <pka_cont>
0.97

>  <yes.1>


>  <BBB_SCORE>
4.019084312

>  <MMFF94 Energy>
76.123

$$$$
Compound 2247
Actelion Java MolfileCreator 2.0

  0  0  0  0  0  0              0 V3000
M  V30 BEGIN CTAB
M  V30 COUNTS 41 43 0 0 0
M  V30 BEGIN ATOM
M  V30 1 Cl 4.5311 -3.6236 2.8816 0
M  V30 2 C 4.0759 -2.3313 1.8413 0
M  V30 3 C 4.1858 -1.0133 2.2865 0
M  V30 4 C 3.6047 -2.6099 0.5577 0
M  V30 5 C 3.8163 0.0385 1.4453 0
M  V30 6 C 3.233 -1.563 -0.288 0
M  V30 7 C 3.3247 -0.2421 0.1671 0
M  V30 8 S 2.8736 1.0816 -0.9248 0
M  V30 9 O 3.4024 2.3234 -0.3887 0
M  V30 10 O 3.2463 0.6534 -2.2606 0
M  V30 11 C 1.091 1.2297 -0.9573 0 CFG=2
M  V30 12 C 0.4565 1.9467 0.2163 0 CFG=1
M  V30 13 C 0.2711 0.4415 0.0213 0 CFG=1
M  V30 14 N 1.1975 2.3171 1.4691 0
M  V30 15 C -0.6173 2.9437 -0.1537 0
M  V30 16 C -1.0657 -0.1491 -0.3646 0
M  V30 17 O -1.2693 2.9285 -1.1847 0
M  V30 18 O -0.8318 3.8867 0.7943 0
M  V30 19 C -2.1718 -0.0452 0.4957 0
M  V30 20 C -1.2787 -0.7606 -1.6087 0
M  V30 21 C -3.4306 -0.5501 0.1441 0
M  V30 22 C -2.5337 -1.2661 -1.9638 0
M  V30 23 C -3.6159 -1.1654 -1.0906 0
M  V30 24 O -4.7831 -1.7004 -1.5591 0
M  V30 25 C -5.9205 -1.6038 -0.7112 0
M  V30 26 H 4.5611 -0.7988 3.2841 0
M  V30 27 H 3.5316 -3.6374 0.2099 0
M  V30 28 H 3.9111 1.0639 1.7959 0
M  V30 29 H 2.8813 -1.7839 -1.2938 0
M  V30 30 H 0.683 1.4247 -1.941 0
M  V30 31 H 0.7885 -0.1731 0.7532 0
M  V30 32 H 0.5801 2.919 2.0281 0
M  V30 33 H 1.9713 2.9435 1.2121 0
M  V30 34 H -1.5468 4.4349 0.4063 0
M  V30 35 H -2.0531 0.4325 1.4669 0
M  V30 36 H -0.4619 -0.8546 -2.3207 0
M  V30 37 H -4.2402 -0.4432 0.858 0
M  V30 38 H -2.6678 -1.7385 -2.9339 0
M  V30 39 H -5.7634 -2.1517 0.2237 0
M  V30 40 H -6.7649 -2.0672 -1.2304 0
M  V30 41 H -6.1818 -0.558 -0.5181 0
M  V30 END ATOM
M  V30 BEGIN BOND
M  V30 1 1 1 2
M  V30 2 2 2 3
M  V30 3 1 2 4
M  V30 4 1 3 5
M  V30 5 2 4 6
M  V30 6 2 5 7
M  V30 7 1 7 8
M  V30 8 2 8 9
M  V30 9 2 8 10
M  V30 10 1 8 11
M  V30 11 1 11 12
M  V30 12 1 11 13
M  V30 13 1 12 14
M  V30 14 1 12 15
M  V30 15 1 13 16
M  V30 16 2 15 17
M  V30 17 1 15 18
M  V30 18 2 16 19
M  V30 19 1 16 20
M  V30 20 1 19 21
M  V30 21 2 20 22
M  V30 22 2 21 23
M  V30 23 1 23 24
M  V30 24 1 24 25
M  V30 25 1 6 7
M  V30 26 1 12 13
M  V30 27 1 22 23
M  V30 28 1 3 26
M  V30 29 1 4 27
M  V30 30 1 5 28
M  V30 31 1 6 29
M  V30 32 1 11 30
M  V30 33 1 13 31
M  V30 34 1 14 32
M  V30 35 1 14 33
M  V30 36 1 18 34
M  V30 37 1 19 35
M  V30 38 1 20 36
M  V30 39 1 21 37
M  V30 40 1 22 38
M  V30 41 1 25 39
M  V30 42 1 25 40
M  V30 43 1 25 41
M  V30 END BOND
M  V30 BEGIN COLLECTION
M  V30 MDLV30/STEABS ATOMS=(3 11 12 13)
M  V30 END COLLECTION
M  V30 END CTAB
M  END
>  <Column 1>
2749

>  <level_0>
3984

>  <index>
3984

>  <Unnamed: 0>
3984

>  <NO.>
3996

>  <Name>
prednisone

>  <IUPAC_name>
(1s-2s-3r)-1-amino-2-(4-chlorophenyl)sulfonyl-3-(4-methoxyphenyl)cyclopropane-1-carboxylic acid

>  <SMILES>
COc1ccc([C@H]2[C@H](S(=O)(=O)c3ccc(Cl)cc3)[C@@]2(N)C(=O)O)cc1

>  <CID>
100004900

>  <logBB>


>  <BBB+/BBB->
BBB-

>  <Inchi>
InChI=1S/C17H16ClNO5S/c1-24-12-6-2-10(3-7-12)14-15(17(14-19)16(20)21)25(22-23)13-8-4-11(18)5-9-13/h2-9-14-15H-19H2-1H3-(H-20-21)/t14--15--17+/m0/s1

>  <threshold>
-1

>  <reference>
R16|R10|R10|

>  <group>
B

>  <Class>
-1

>  <ABC>
19.51

>  <ABCGG>
16.84

>  <nAcid>
1

>  <nBase>
1

>  <nAromAtom>
12

>  <nAromBond>
12

>  <nAtom>
41

>  <nHeavyAtom>
25

>  <nSpiro>
0

>  <nBridgehead>
0

>  <nHetero>
8

>  <nN>
1

>  <nO>
5

>  <nF>
0

>  <BalabanJ>
1.74

>  <BertzCT>
911.06

>  <nBonds>
43

>  <nBondsO>
27

>  <nBondsS>
28

>  <nBondsD>
3

>  <nBondsT>
0

>  <nBondsA>
12

>  <nBondsM>
15

>  <nBondsKS>
34

>  <nBondsKD>
9

>  <RNCG>
0.2

>  <RPCG>
0.13

>  <FCSP3>
0.24

>  <SZ>
33

>  <Sm>
31.79

>  <Sv>
27.94

>  <Sse>
42.26

>  <Sp>
29.49

>  <Si>
45.73

>  <MZ>
0.8

>  <Mm>
0.78

>  <Mv>
0.68

>  <Mse>
1.03

>  <Mp>
0.72

>  <Mi>
1.12

>  <NsCH3>
1

>  <NdCH2>
0

>  <NssCH2>
0

>  <NtCH>
0

>  <NdsCH>
0

>  <NaaCH>
8

>  <NsssCH>
2

>  <NddC>
0

>  <NtsC>
0

>  <NdssC>
1

>  <NaasC>
4

>  <NaaaC>
0

>  <NssssC>
1

>  <NsNH3>
0

>  <NsNH2>
1

>  <NssNH2>
0

>  <NdNH>
0

>  <NssNH>
0

>  <NaaNH>
0

>  <NtN>
0

>  <NsssNH>
0

>  <NdsN>
0

>  <NaaN>
0

>  <NsssN>
0

>  <NddsN>
0

>  <NaasN>
0

>  <NssssN>
0

>  <NsOH>
1

>  <NdO>
3

>  <NssO>
1

>  <NaaO>
0

>  <NsF>
0

>  <NsSiH3>
0

>  <NssSiH2>
0

>  <NsssSiH>
0

>  <NssssSi>
0

>  <NsPH2>
0

>  <NssPH>
0

>  <NsssP>
0

>  <NdsssP>
0

>  <NsssssP>
0

>  <NsSH>
0

>  <NdS>
0

>  <NssS>
0

>  <NaaS>
0

>  <NdssS>
0

>  <NddssS>
1

>  <NsCl>
1

>  <NsBr>
0

>  <NsI>
0

>  <fragCpx>
129.08

>  <fMF>
0.39

>  <nHBAcc>
5

>  <nHBDon>
2

>  <Kier1>
19.75

>  <Kier2>
7.2

>  <Lipinski>
1

>  <GhoseFilter>
1

>  <FilterItLogS>
-3.68

>  <VMcGowan>
255.63

>  <LabuteASA>
149.65

>  <PEOE_VSA1>
15.58

>  <PEOE_VSA2>
4.79

>  <PEOE_VSA3>
8.42

>  <PEOE_VSA4>
0

>  <PEOE_VSA5>
0

>  <PEOE_VSA6>
23.73

>  <PEOE_VSA7>
41.96

>  <PEOE_VSA8>
10.94

>  <PEOE_VSA9>
12.01

>  <PEOE_VSA10>
16.54

>  <PEOE_VSA11>
9.84

>  <PEOE_VSA12>
0

>  <PEOE_VSA13>
0

>  <SMR_VSA1>
23.06

>  <SMR_VSA2>
0

>  <SMR_VSA3>
0

>  <SMR_VSA4>
5.73

>  <SMR_VSA5>
21.6

>  <SMR_VSA6>
7.11

>  <SMR_VSA7>
59.12

>  <SMR_VSA8>
0

>  <SMR_VSA9>
5.75

>  <SlogP_VSA1>
10.47

>  <SlogP_VSA2>
37.39

>  <SlogP_VSA3>
14.63

>  <SlogP_VSA4>
0

>  <SlogP_VSA5>
11.48

>  <SlogP_VSA6>
53.43

>  <SlogP_VSA7>
5.02

>  <SlogP_VSA8>
0

>  <SlogP_VSA9>
0

>  <SlogP_VSA10>
0

>  <SlogP_VSA11>
5.75

>  <EState_VSA1>
32.51

>  <EState_VSA2>
4.9

>  <EState_VSA3>
16.34

>  <EState_VSA4>
0

>  <EState_VSA5>
31.38

>  <EState_VSA6>
24.27

>  <EState_VSA7>
0

>  <EState_VSA8>
0

>  <EState_VSA9>
22.07

>  <EState_VSA10>
18.32

>  <VSA_EState1>
30.91

>  <VSA_EState2>
11.69

>  <VSA_EState3>
8.66

>  <VSA_EState4>
4.65

>  <VSA_EState5>
-1.62

>  <VSA_EState6>
12.13

>  <VSA_EState7>
0

>  <VSA_EState8>
0

>  <VSA_EState9>
-2.44

>  <apol>
49.25

>  <bpol>
25.25

>  <nRing>
3

>  <nHRing>
0

>  <naRing>
2

>  <naHRing>
0

>  <nARing 2>
1

>  <nAHRing 2>
0

>  <nFRing>
0

>  <nFHRing>
0

>  <nFaRing>
0

>  <nFaHRing>
0

>  <nFARing 2>
0

>  <nFAHRing 2>
0

>  <nRot>
5

>  <SLogP>
2.07

>  <SMR>
92.72

>  <TopoPSA(NO)>
106.69

>  <TopoPSA>
115.07

>  <JGI1>
0.28

>  <JGI2>
0.14

>  <JGI3>
0.09

>  <JGI4>
0.06

>  <JGI5>
0.04

>  <Diameter>
13

>  <Radius>
7

>  <TMWC10>
130.64

>  <TSRW10>
82.1

>  <MW>
381.04

>  <AMW>
9.29

>  <WPath>
1443

>  <WPol>
43

>  <Zagreb1>
138

>  <Zagreb2>
171

>  <mZagreb2>
5.39

>  <yes>


>  <nAR-cont>
0.816016

>  <nHA-cont>
0.921834225

>  <MWHBN>
0.35860204

>  <MWHBN-cont>
0.637758292

>  <TPSA-cont>
0.196739946

>  <pka_cont>
0.97

>  <yes.1>


>  <BBB_SCORE>
3.572967554

>  <MMFF94 Energy>
70.871

$$$$
Compound 2248
Actelion Java MolfileCreator 2.0

  0  0  0  0  0  0              0 V3000
M  V30 BEGIN CTAB
M  V30 COUNTS 41 43 0 0 0
M  V30 BEGIN ATOM
M  V30 1 Cl 2.639 4.6216 4.1257 0
M  V30 2 C 1.4505 3.9915 3.0539 0
M  V30 3 C 0.7414 2.8419 3.4064 0
M  V30 4 C 1.2009 4.6357 1.841 0
M  V30 5 C -0.2229 2.3264 2.5383 0
M  V30 6 C 0.2374 4.1266 0.9674 0
M  V30 7 C -0.4612 2.9676 1.3179 0
M  V30 8 S -1.6906 2.3105 0.2207 0
M  V30 9 O -2.7158 1.6899 1.0335 0
M  V30 10 O -2.0175 3.327 -0.7583 0
M  V30 11 C -0.8066 1.028 -0.6734 0 CFG=2
M  V30 12 C -1.5724 0.4066 -1.8368 0 CFG=2
M  V30 13 C -1.3435 -0.3728 -0.5424 0 CFG=1
M  V30 14 C -0.7512 0.1779 -3.0029 0
M  V30 15 C -3.0042 0.7488 -2.1768 0
M  V30 16 C -0.4013 -1.5544 -0.4703 0
M  V30 17 N -0.0606 0.0479 -3.9259 0
M  V30 18 O -3.6307 -0.4033 -2.7335 0
M  V30 19 C -0.5874 -2.6767 -1.2914 0
M  V30 20 C 0.744 -1.5402 0.3428 0
M  V30 21 C 0.3112 -3.7479 -1.2753 0
M  V30 22 C 1.6473 -2.612 0.3625 0
M  V30 23 C 1.4325 -3.7233 -0.4481 0
M  V30 24 O 2.2284 -4.8314 -0.5263 0
M  V30 25 C 3.4049 -4.8373 0.2718 0
M  V30 26 H 0.9306 2.3505 4.3581 0
M  V30 27 H 1.7491 5.5366 1.5746 0
M  V30 28 H -0.7847 1.4393 2.8251 0
M  V30 29 H 0.0403 4.6406 0.0285 0
M  V30 30 H 0.2578 1.1824 -0.7946 0
M  V30 31 H -2.231 -0.5162 0.0738 0
M  V30 32 H -3.0487 1.5632 -2.9086 0
M  V30 33 H -3.5983 1.0358 -1.3065 0
M  V30 34 H -4.5319 -0.1397 -2.992 0
M  V30 35 H -1.4484 -2.7264 -1.9572 0
M  V30 36 H 0.9425 -0.6869 0.9875 0
M  V30 37 H 0.1354 -4.605 -1.921 0
M  V30 38 H 2.5071 -2.5431 1.0204 0
M  V30 39 H 4.0759 -4.018 -0.0071 0
M  V30 40 H 3.9318 -5.7778 0.084 0
M  V30 41 H 3.1581 -4.801 1.3381 0
M  V30 END ATOM
M  V30 BEGIN BOND
M  V30 1 1 1 2
M  V30 2 2 2 3
M  V30 3 1 2 4
M  V30 4 1 3 5
M  V30 5 2 4 6
M  V30 6 2 5 7
M  V30 7 1 7 8
M  V30 8 2 8 9
M  V30 9 2 8 10
M  V30 10 1 8 11
M  V30 11 1 11 12
M  V30 12 1 11 13
M  V30 13 1 12 14
M  V30 14 1 12 15
M  V30 15 1 13 16
M  V30 16 3 14 17
M  V30 17 1 15 18
M  V30 18 2 16 19
M  V30 19 1 16 20
M  V30 20 1 19 21
M  V30 21 2 20 22
M  V30 22 2 21 23
M  V30 23 1 23 24
M  V30 24 1 24 25
M  V30 25 1 6 7
M  V30 26 1 12 13
M  V30 27 1 22 23
M  V30 28 1 3 26
M  V30 29 1 4 27
M  V30 30 1 5 28
M  V30 31 1 6 29
M  V30 32 1 11 30
M  V30 33 1 13 31
M  V30 34 1 15 32
M  V30 35 1 15 33
M  V30 36 1 18 34
M  V30 37 1 19 35
M  V30 38 1 20 36
M  V30 39 1 21 37
M  V30 40 1 22 38
M  V30 41 1 25 39
M  V30 42 1 25 40
M  V30 43 1 25 41
M  V30 END BOND
M  V30 BEGIN COLLECTION
M  V30 MDLV30/STEABS ATOMS=(3 11 12 13)
M  V30 END COLLECTION
M  V30 END CTAB
M  END
>  <Column 1>
2750

>  <level_0>
3985

>  <index>
3985

>  <Unnamed: 0>
3985

>  <NO.>
3997

>  <Name>
oxaprozin

>  <IUPAC_name>
(1r-2s-3r)-2-(4-chlorophenyl)sulfonyl-1-(hydroxymethyl)-3-(4-methoxyphenyl)cyclopropane-1-carbonitrile

>  <SMILES>
COc1ccc([C@H]2[C@H](S(=O)(=O)c3ccc(Cl)cc3)[C@]2(C#N)CO)cc1

>  <CID>
100004614

>  <logBB>


>  <BBB+/BBB->
BBB-

>  <Inchi>
InChI=1S/C18H16ClNO4S/c1-24-14-6-2-12(3-7-14)16-17(18(16-10-20)11-21)25(22-23)15-8-4-13(19)5-9-15/h2-9-16-17-21H-11H2-1H3/t16--17--18+/m0/s1

>  <threshold>
-1

>  <reference>
R16|R10|R10|

>  <group>
B

>  <Class>
1

>  <ABC>
19.19

>  <ABCGG>
16.69

>  <nAcid>
0

>  <nBase>
0

>  <nAromAtom>
12

>  <nAromBond>
12

>  <nAtom>
41

>  <nHeavyAtom>
25

>  <nSpiro>
0

>  <nBridgehead>
0

>  <nHetero>
7

>  <nN>
1

>  <nO>
4

>  <nF>
0

>  <BalabanJ>
1.74

>  <BertzCT>
919.04

>  <nBonds>
43

>  <nBondsO>
27

>  <nBondsS>
28

>  <nBondsD>
2

>  <nBondsT>
1

>  <nBondsA>
12

>  <nBondsM>
15

>  <nBondsKS>
34

>  <nBondsKD>
8

>  <RNCG>
0.25

>  <RPCG>
0.11

>  <FCSP3>
0.28

>  <SZ>
32.67

>  <Sm>
31.46

>  <Sv>
28.23

>  <Sse>
41.93

>  <Sp>
30.01

>  <Si>
45.52

>  <MZ>
0.8

>  <Mm>
0.77

>  <Mv>
0.69

>  <Mse>
1.02

>  <Mp>
0.73

>  <Mi>
1.11

>  <NsCH3>
1

>  <NdCH2>
0

>  <NssCH2>
1

>  <NtCH>
0

>  <NdsCH>
0

>  <NaaCH>
8

>  <NsssCH>
2

>  <NddC>
0

>  <NtsC>
1

>  <NdssC>
0

>  <NaasC>
4

>  <NaaaC>
0

>  <NssssC>
1

>  <NsNH3>
0

>  <NsNH2>
0

>  <NssNH2>
0

>  <NdNH>
0

>  <NssNH>
0

>  <NaaNH>
0

>  <NtN>
1

>  <NsssNH>
0

>  <NdsN>
0

>  <NaaN>
0

>  <NsssN>
0

>  <NddsN>
0

>  <NaasN>
0

>  <NssssN>
0

>  <NsOH>
1

>  <NdO>
2

>  <NssO>
1

>  <NaaO>
0

>  <NsF>
0

>  <NsSiH3>
0

>  <NssSiH2>
0

>  <NsssSiH>
0

>  <NssssSi>
0

>  <NsPH2>
0

>  <NssPH>
0

>  <NsssP>
0

>  <NdsssP>
0

>  <NsssssP>
0

>  <NsSH>
0

>  <NdS>
0

>  <NssS>
0

>  <NaaS>
0

>  <NdssS>
0

>  <NddssS>
1

>  <NsCl>
1

>  <NsBr>
0

>  <NsI>
0

>  <fragCpx>
129.07

>  <fMF>
0.39

>  <nHBAcc>
5

>  <nHBDon>
1

>  <Kier1>
19.75

>  <Kier2>
7.55

>  <Lipinski>
1

>  <GhoseFilter>
1

>  <FilterItLogS>
-4.59

>  <VMcGowan>
259.55

>  <LabuteASA>
150.9

>  <PEOE_VSA1>
9.84

>  <PEOE_VSA2>
0

>  <PEOE_VSA3>
8.42

>  <PEOE_VSA4>
5.26

>  <PEOE_VSA5>
0

>  <PEOE_VSA6>
23.73

>  <PEOE_VSA7>
41.96

>  <PEOE_VSA8>
10.94

>  <PEOE_VSA9>
29.93

>  <PEOE_VSA10>
11.16

>  <PEOE_VSA11>
9.84

>  <PEOE_VSA12>
0

>  <PEOE_VSA13>
0

>  <SMR_VSA1>
18.26

>  <SMR_VSA2>
5.26

>  <SMR_VSA3>
0

>  <SMR_VSA4>
5.41

>  <SMR_VSA5>
16.06

>  <SMR_VSA6>
13.72

>  <SMR_VSA7>
59.12

>  <SMR_VSA8>
0

>  <SMR_VSA9>
11.82

>  <SlogP_VSA1>
4.74

>  <SlogP_VSA2>
32.49

>  <SlogP_VSA3>
9.84

>  <SlogP_VSA4>
16.75

>  <SlogP_VSA5>
11.48

>  <SlogP_VSA6>
53.43

>  <SlogP_VSA7>
5.02

>  <SlogP_VSA8>
0

>  <SlogP_VSA9>
0

>  <SlogP_VSA10>
0

>  <SlogP_VSA11>
5.75

>  <EState_VSA1>
33.03

>  <EState_VSA2>
4.9

>  <EState_VSA3>
16.34

>  <EState_VSA4>
0

>  <EState_VSA5>
31.38

>  <EState_VSA6>
24.27

>  <EState_VSA7>
6.07

>  <EState_VSA8>
0

>  <EState_VSA9>
16.34

>  <EState_VSA10>
18.79

>  <VSA_EState1>
31.14

>  <VSA_EState2>
0.09

>  <VSA_EState3>
18.79

>  <VSA_EState4>
-0.67

>  <VSA_EState5>
0.03

>  <VSA_EState6>
14.71

>  <VSA_EState7>
0

>  <VSA_EState8>
-0.53

>  <VSA_EState9>
-2.26

>  <apol>
50.12

>  <bpol>
25.52

>  <nRing>
3

>  <nHRing>
0

>  <naRing>
2

>  <naHRing>
0

>  <nARing 2>
1

>  <nAHRing 2>
0

>  <nFRing>
0

>  <nFHRing>
0

>  <nFaRing>
0

>  <nFaHRing>
0

>  <nFARing 2>
0

>  <nFAHRing 2>
0

>  <nRot>
5

>  <SLogP>
2.79

>  <SMR>
93.29

>  <TopoPSA(NO)>
87.39

>  <TopoPSA>
95.77

>  <JGI1>
0.26

>  <JGI2>
0.13

>  <JGI3>
0.09

>  <JGI4>
0.06

>  <JGI5>
0.03

>  <Diameter>
13

>  <Radius>
7

>  <TMWC10>
130.49

>  <TSRW10>
82.01

>  <MW>
377.05

>  <AMW>
9.2

>  <WPath>
1445

>  <WPol>
43

>  <Zagreb1>
136

>  <Zagreb2>
169

>  <mZagreb2>
5.64

>  <yes>


>  <nAR-cont>
0.816016

>  <nHA-cont>
0.921834225

>  <MWHBN>
0.308995232

>  <MWHBN-cont>
0.813057544

>  <TPSA-cont>
0.33146593

>  <pka_cont>
0.97

>  <yes.1>


>  <BBB_SCORE>
4.105368401

>  <MMFF94 Energy>
41.878

$$$$
Compound 2249
Actelion Java MolfileCreator 2.0

  0  0  0  0  0  0              0 V3000
M  V30 BEGIN CTAB
M  V30 COUNTS 55 57 0 0 0
M  V30 BEGIN ATOM
M  V30 1 Cl 2.1151 7.0091 -2.1151 0
M  V30 2 C 1.3102 5.8314 -1.1542 0
M  V30 3 C 2.052 4.8409 -0.5087 0
M  V30 4 C -0.0784 5.8768 -1.0234 0
M  V30 5 C 1.4023 3.8825 0.2719 0
M  V30 6 C -0.7352 4.9215 -0.245 0
M  V30 7 C 0.0096 3.922 0.3891 0
M  V30 8 S -0.8272 2.7079 1.3755 0
M  V30 9 O 0.1414 2.0975 2.267 0
M  V30 10 O -2.0314 3.3166 1.9016 0
M  V30 11 C -1.3607 1.4896 0.1795 0 CFG=2
M  V30 12 C -1.3693 0.0377 0.6411 0 CFG=1
M  V30 13 C -0.3002 0.5669 -0.3348 0 CFG=1
M  V30 14 N -0.8398 -0.4182 1.9125 0
M  V30 15 C -2.5832 -0.7277 0.1523 0
M  V30 16 C -0.2474 0.1448 -1.7828 0
M  V30 17 C -0.4273 -1.7001 2.1392 0
M  V30 18 O -3.221 -0.3861 -0.8385 0
M  V30 19 C -0.157 -1.2103 -2.1406 0
M  V30 20 C -0.3776 1.0739 -2.8262 0
M  V30 21 O -0.5362 -2.6113 1.3339 0
M  V30 22 O 0.1089 -1.7792 3.3759 0
M  V30 23 C -0.1611 -1.6217 -3.4798 0
M  V30 24 C -0.3788 0.6678 -4.1645 0
M  V30 25 C 0.6417 -3.0324 3.8772 0
M  V30 26 C -0.2706 -0.6808 -4.4996 0
M  V30 27 C -0.4539 -4.0982 3.9867 0
M  V30 28 C 1.1504 -2.7036 5.289 0
M  V30 29 C 1.8248 -3.5118 3.0292 0
M  V30 30 O -0.285 -0.9421 -5.8412 0
M  V30 31 C -0.2432 -2.3098 -6.2276 0
M  V30 32 H 3.1347 4.8144 -0.6067 0
M  V30 33 H -0.6519 6.6562 -1.5198 0
M  V30 34 H 1.9882 3.1196 0.7805 0
M  V30 35 H -1.8173 4.9689 -0.1365 0
M  V30 36 H -2.1354 1.8209 -0.4996 0
M  V30 37 H 0.6958 0.6793 0.0936 0
M  V30 38 H -0.6008 0.2529 2.64 0
M  V30 39 H -2.8811 -1.6121 0.7391 0
M  V30 40 H -0.0784 -1.9699 -1.3634 0
M  V30 41 H -0.4732 2.1345 -2.6073 0
M  V30 42 H -0.0826 -2.6839 -3.6846 0
M  V30 43 H -0.4735 1.411 -4.9525 0
M  V30 44 H -0.809 -4.4221 3.0038 0
M  V30 45 H -0.093 -4.9879 4.514 0
M  V30 46 H -1.326 -3.7058 4.5219 0
M  V30 47 H 0.3372 -2.3206 5.9168 0
M  V30 48 H 1.5828 -3.5812 5.7806 0
M  V30 49 H 1.9116 -1.9154 5.2551 0
M  V30 50 H 1.5106 -3.825 2.029 0
M  V30 51 H 2.5554 -2.7068 2.8909 0
M  V30 52 H 2.3298 -4.3644 3.4958 0
M  V30 53 H 0.696 -2.7785 -5.9161 0
M  V30 54 H -0.2885 -2.3499 -7.3201 0
M  V30 55 H -1.1076 -2.8579 -5.8383 0
M  V30 END ATOM
M  V30 BEGIN BOND
M  V30 1 1 1 2
M  V30 2 2 2 3
M  V30 3 1 2 4
M  V30 4 1 3 5
M  V30 5 2 4 6
M  V30 6 2 5 7
M  V30 7 1 7 8
M  V30 8 2 8 9
M  V30 9 2 8 10
M  V30 10 1 8 11
M  V30 11 1 11 12
M  V30 12 1 11 13
M  V30 13 1 12 14
M  V30 14 1 12 15
M  V30 15 1 13 16
M  V30 16 1 14 17
M  V30 17 2 15 18
M  V30 18 2 16 19
M  V30 19 1 16 20
M  V30 20 2 17 21
M  V30 21 1 17 22
M  V30 22 1 19 23
M  V30 23 2 20 24
M  V30 24 1 22 25
M  V30 25 2 23 26
M  V30 26 1 25 27
M  V30 27 1 25 28
M  V30 28 1 25 29
M  V30 29 1 26 30
M  V30 30 1 30 31
M  V30 31 1 6 7
M  V30 32 1 12 13
M  V30 33 1 24 26
M  V30 34 1 3 32
M  V30 35 1 4 33
M  V30 36 1 5 34
M  V30 37 1 6 35
M  V30 38 1 11 36
M  V30 39 1 13 37
M  V30 40 1 14 38
M  V30 41 1 15 39
M  V30 42 1 19 40
M  V30 43 1 20 41
M  V30 44 1 23 42
M  V30 45 1 24 43
M  V30 46 1 27 44
M  V30 47 1 27 45
M  V30 48 1 27 46
M  V30 49 1 28 47
M  V30 50 1 28 48
M  V30 51 1 28 49
M  V30 52 1 29 50
M  V30 53 1 29 51
M  V30 54 1 29 52
M  V30 55 1 31 53
M  V30 56 1 31 54
M  V30 57 1 31 55
M  V30 END BOND
M  V30 BEGIN COLLECTION
M  V30 MDLV30/STEABS ATOMS=(3 11 12 13)
M  V30 END COLLECTION
M  V30 END CTAB
M  END
>  <Column 1>
2751

>  <level_0>
3986

>  <index>
3986

>  <Unnamed: 0>
3986

>  <NO.>
3998

>  <Name>
mepyramine

>  <IUPAC_name>
tert-butyl n-[(1s-2s-3r)-2-(4-chlorophenyl)sulfonyl-1-formyl-3-(4-methoxyphenyl)cyclopropyl]carbamate

>  <SMILES>
COc1ccc([C@H]2[C@H](S(=O)(=O)c3ccc(Cl)cc3)[C@]2(C=O)NC(=O)OC(C)(C)C)cc1

>  <CID>
100004992

>  <logBB>


>  <BBB+/BBB->
BBB+

>  <Inchi>
InChI=1S/C22H24ClNO6S/c1-21(2-3)30-20(26)24-22(13-25)18(14-5-9-16(29-4)10-6-14)19(22)31(27-28)17-11-7-15(23)8-12-17/h5-13-18-19H-1-4H3-(H-24-26)/t18--19--22+/m0/s1

>  <threshold>
-1

>  <reference>
R16|R16|R10|R10|

>  <group>
B

>  <Class>
-1

>  <ABC>
24.02

>  <ABCGG>
20.45

>  <nAcid>
0

>  <nBase>
0

>  <nAromAtom>
12

>  <nAromBond>
12

>  <nAtom>
55

>  <nHeavyAtom>
31

>  <nSpiro>
0

>  <nBridgehead>
0

>  <nHetero>
9

>  <nN>
1

>  <nO>
6

>  <nF>
0

>  <BalabanJ>
1.82

>  <BertzCT>
1076.48

>  <nBonds>
57

>  <nBondsO>
33

>  <nBondsS>
41

>  <nBondsD>
4

>  <nBondsT>
0

>  <nBondsA>
12

>  <nBondsM>
16

>  <nBondsKS>
47

>  <nBondsKD>
10

>  <RNCG>
0.18

>  <RPCG>
0.15

>  <FCSP3>
0.36

>  <SZ>
40.67

>  <Sm>
38.79

>  <Sv>
35.83

>  <Sse>
56.14

>  <Sp>
38.16

>  <Si>
61.6

>  <MZ>
0.74

>  <Mm>
0.71

>  <Mv>
0.65

>  <Mse>
1.02

>  <Mp>
0.69

>  <Mi>
1.12

>  <NsCH3>
4

>  <NdCH2>
0

>  <NssCH2>
0

>  <NtCH>
0

>  <NdsCH>
1

>  <NaaCH>
8

>  <NsssCH>
2

>  <NddC>
0

>  <NtsC>
0

>  <NdssC>
1

>  <NaasC>
4

>  <NaaaC>
0

>  <NssssC>
2

>  <NsNH3>
0

>  <NsNH2>
0

>  <NssNH2>
0

>  <NdNH>
0

>  <NssNH>
1

>  <NaaNH>
0

>  <NtN>
0

>  <NsssNH>
0

>  <NdsN>
0

>  <NaaN>
0

>  <NsssN>
0

>  <NddsN>
0

>  <NaasN>
0

>  <NssssN>
0

>  <NsOH>
0

>  <NdO>
4

>  <NssO>
2

>  <NaaO>
0

>  <NsF>
0

>  <NsSiH3>
0

>  <NssSiH2>
0

>  <NsssSiH>
0

>  <NssssSi>
0

>  <NsPH2>
0

>  <NssPH>
0

>  <NsssP>
0

>  <NdsssP>
0

>  <NsssssP>
0

>  <NsSH>
0

>  <NdS>
0

>  <NssS>
0

>  <NaaS>
0

>  <NdssS>
0

>  <NddssS>
1

>  <NsCl>
1

>  <NsBr>
0

>  <NsI>
0

>  <fragCpx>
159.09

>  <fMF>
0.29

>  <nHBAcc>
6

>  <nHBDon>
1

>  <Kier1>
25.62

>  <Kier2>
9.7

>  <Lipinski>
1

>  <GhoseFilter>
1

>  <FilterItLogS>
-5.49

>  <VMcGowan>
327.65

>  <LabuteASA>
186.16

>  <PEOE_VSA1>
19.59

>  <PEOE_VSA2>
0

>  <PEOE_VSA3>
13.21

>  <PEOE_VSA4>
0

>  <PEOE_VSA5>
0

>  <PEOE_VSA6>
23.73

>  <PEOE_VSA7>
62.73

>  <PEOE_VSA8>
10.94

>  <PEOE_VSA9>
12.01

>  <PEOE_VSA10>
28.43

>  <PEOE_VSA11>
9.84

>  <PEOE_VSA12>
0

>  <PEOE_VSA13>
0

>  <SMR_VSA1>
27.48

>  <SMR_VSA2>
0

>  <SMR_VSA3>
5.32

>  <SMR_VSA4>
0

>  <SMR_VSA5>
47.97

>  <SMR_VSA6>
7.11

>  <SMR_VSA7>
59.12

>  <SMR_VSA8>
0

>  <SMR_VSA9>
5.75

>  <SlogP_VSA1>
10.05

>  <SlogP_VSA2>
44.3

>  <SlogP_VSA3>
19.37

>  <SlogP_VSA4>
0

>  <SlogP_VSA5>
32.25

>  <SlogP_VSA6>
53.43

>  <SlogP_VSA7>
5.02

>  <SlogP_VSA8>
0

>  <SlogP_VSA9>
0

>  <SlogP_VSA10>
4.79

>  <SlogP_VSA11>
5.75

>  <EState_VSA1>
38.24

>  <EState_VSA2>
4.9

>  <EState_VSA3>
22.62

>  <EState_VSA4>
0

>  <EState_VSA5>
31.38

>  <EState_VSA6>
45.04

>  <EState_VSA7>
0

>  <EState_VSA8>
5.32

>  <EState_VSA9>
21.07

>  <EState_VSA10>
18.01

>  <VSA_EState1>
37.3

>  <VSA_EState2>
24.75

>  <VSA_EState3>
1.7

>  <VSA_EState4>
-1.91

>  <VSA_EState5>
-0.22

>  <VSA_EState6>
12.37

>  <VSA_EState7>
-0.39

>  <VSA_EState8>
5.03

>  <VSA_EState9>
-2.48

>  <apol>
63.74

>  <bpol>
37.02

>  <nRing>
3

>  <nHRing>
0

>  <naRing>
2

>  <naHRing>
0

>  <nARing 2>
1

>  <nAHRing 2>
0

>  <nFRing>
0

>  <nFHRing>
0

>  <nFaRing>
0

>  <nFaHRing>
0

>  <nFARing 2>
0

>  <nFAHRing 2>
0

>  <nRot>
6

>  <SLogP>
3.75

>  <SMR>
116.33

>  <TopoPSA(NO)>
98.77

>  <TopoPSA>
107.15

>  <JGI1>
0.32

>  <JGI2>
0.12

>  <JGI3>
0.09

>  <JGI4>
0.05

>  <JGI5>
0.04

>  <Diameter>
13

>  <Radius>
7

>  <TMWC10>
143.93

>  <TSRW10>
88.91

>  <MW>
465.1

>  <AMW>
8.46

>  <WPath>
2571

>  <WPol>
50

>  <Zagreb1>
168

>  <Zagreb2>
202

>  <mZagreb2>
6.68

>  <yes>


>  <nAR-cont>
0.816016

>  <nHA-cont>
0.702745138

>  <MWHBN>
0.324582328

>  <MWHBN-cont>
0.761624305

>  <TPSA-cont>
0.252026464

>  <pka_cont>
0.97

>  <yes.1>


>  <BBB_SCORE>
3.650250523

>  <MMFF94 Energy>
26.703

$$$$
Compound 2250
Actelion Java MolfileCreator 2.0

  0  0  0  0  0  0              0 V3000
M  V30 BEGIN CTAB
M  V30 COUNTS 42 44 0 0 0
M  V30 BEGIN ATOM
M  V30 1 S 2.6749 -0.5669 1.2152 0
M  V30 2 O 2.294 -1.616 2.1407 0
M  V30 3 O 3.7599 0.3528 1.5068 0
M  V30 4 C 3.0542 -1.3618 -0.3313 0
M  V30 5 C 1.2307 0.4238 0.7935 0 CFG=2
M  V30 6 C 2.4253 -2.5685 -0.6527 0
M  V30 7 C 3.9859 -0.7849 -1.1982 0
M  V30 8 C 0.8198 1.4793 1.801 0 CFG=1
M  V30 9 C 0.0035 0.1876 1.633 0 CFG=1
M  V30 10 C 2.7198 -3.1915 -1.8649 0
M  V30 11 C 4.2737 -1.4147 -2.4088 0
M  V30 12 N 1.4859 1.6006 3.1259 0
M  V30 13 C 0.3572 2.8214 1.2257 0
M  V30 14 C -1.382 0.1879 1.0306 0
M  V30 15 C 3.6399 -2.6136 -2.7418 0
M  V30 16 O -0.0175 2.7483 -0.1448 0
M  V30 17 C -1.6515 -0.3826 -0.224 0
M  V30 18 C -2.4424 0.8433 1.6753 0
M  V30 19 C -2.9246 -0.3151 -0.8062 0
M  V30 20 C -3.7138 0.9139 1.0985 0
M  V30 21 C -3.9628 0.3353 -0.1449 0
M  V30 22 O -5.2441 0.4785 -0.5978 0
M  V30 23 C -5.5575 -0.1285 -1.8451 0
M  V30 24 H 1.1245 0.6511 -0.2569 0
M  V30 25 H 1.7183 -3.0299 0.0336 0
M  V30 26 H 4.4902 0.1439 -0.9408 0
M  V30 27 H 0.0997 -0.5277 2.4505 0
M  V30 28 H 2.24 -4.1324 -2.1239 0
M  V30 29 H 4.9975 -0.9754 -3.0913 0
M  V30 30 H 1.1042 2.364 3.6834 0
M  V30 31 H 2.486 1.7973 3.0121 0
M  V30 32 H 1.1821 3.5393 1.2891 0
M  V30 33 H -0.4798 3.2253 1.8055 0
M  V30 34 H 3.8718 -3.1045 -3.6842 0
M  V30 35 H -0.9339 2.4184 -0.1684 0
M  V30 36 H -0.8598 -0.8969 -0.7655 0
M  V30 37 H -2.2796 1.3014 2.6495 0
M  V30 38 H -3.0661 -0.7804 -1.776 0
M  V30 39 H -4.5172 1.4222 1.6268 0
M  V30 40 H -4.9736 0.3163 -2.6575 0
M  V30 41 H -6.6151 0.061 -2.0528 0
M  V30 42 H -5.4154 -1.2135 -1.8033 0
M  V30 END ATOM
M  V30 BEGIN BOND
M  V30 1 2 1 2
M  V30 2 2 1 3
M  V30 3 1 1 4
M  V30 4 1 1 5
M  V30 5 2 4 6
M  V30 6 1 4 7
M  V30 7 1 5 8
M  V30 8 1 5 9
M  V30 9 1 6 10
M  V30 10 2 7 11
M  V30 11 1 8 12
M  V30 12 1 8 13
M  V30 13 1 9 14
M  V30 14 2 10 15
M  V30 15 1 13 16
M  V30 16 2 14 17
M  V30 17 1 14 18
M  V30 18 1 17 19
M  V30 19 2 18 20
M  V30 20 2 19 21
M  V30 21 1 21 22
M  V30 22 1 22 23
M  V30 23 1 8 9
M  V30 24 1 11 15
M  V30 25 1 20 21
M  V30 26 1 5 24
M  V30 27 1 6 25
M  V30 28 1 7 26
M  V30 29 1 9 27
M  V30 30 1 10 28
M  V30 31 1 11 29
M  V30 32 1 12 30
M  V30 33 1 12 31
M  V30 34 1 13 32
M  V30 35 1 13 33
M  V30 36 1 15 34
M  V30 37 1 16 35
M  V30 38 1 17 36
M  V30 39 1 18 37
M  V30 40 1 19 38
M  V30 41 1 20 39
M  V30 42 1 23 40
M  V30 43 1 23 41
M  V30 44 1 23 42
M  V30 END BOND
M  V30 BEGIN COLLECTION
M  V30 MDLV30/STEABS ATOMS=(3 5 8 9)
M  V30 END COLLECTION
M  V30 END CTAB
M  END
>  <Column 1>
2752

>  <level_0>
3987

>  <index>
3987

>  <Unnamed: 0>
3987

>  <NO.>
3999

>  <Name>
loratadine

>  <IUPAC_name>
[(1s-2s-3r)-1-amino-2-(benzenesulfonyl)-3-(4-methoxyphenyl)cyclopropyl]methanol

>  <SMILES>
COc1ccc([C@H]2[C@H](S(=O)(=O)c3ccccc3)[C@@]2(N)CO)cc1

>  <CID>
100003957

>  <logBB>


>  <BBB+/BBB->
BBB-

>  <Inchi>
InChI=1S/C17H19NO4S/c1-22-13-9-7-12(8-10-13)15-16(17(15-18)11-19)23(20-21)14-5-3-2-4-6-14/h2-10-15-16-19H-11-18H2-1H3/t15--16--17+/m0/s1

>  <threshold>
-1

>  <reference>
R16|R10|

>  <group>
B

>  <Class>
1

>  <ABC>
17.83

>  <ABCGG>
15.56

>  <nAcid>
0

>  <nBase>
1

>  <nAromAtom>
12

>  <nAromBond>
12

>  <nAtom>
42

>  <nHeavyAtom>
23

>  <nSpiro>
0

>  <nBridgehead>
0

>  <nHetero>
6

>  <nN>
1

>  <nO>
4

>  <nF>
0

>  <BalabanJ>
1.71

>  <BertzCT>
789.1

>  <nBonds>
44

>  <nBondsO>
25

>  <nBondsS>
30

>  <nBondsD>
2

>  <nBondsT>
0

>  <nBondsA>
12

>  <nBondsM>
14

>  <nBondsKS>
36

>  <nBondsKD>
8

>  <RNCG>
0.23

>  <RPCG>
0.1

>  <FCSP3>
0.29

>  <SZ>
29.33

>  <Sm>
27.76

>  <Sv>
26.95

>  <Sse>
42.5

>  <Sp>
28.9

>  <Si>
46.99

>  <MZ>
0.7

>  <Mm>
0.66

>  <Mv>
0.64

>  <Mse>
1.01

>  <Mp>
0.69

>  <Mi>
1.12

>  <NsCH3>
1

>  <NdCH2>
0

>  <NssCH2>
1

>  <NtCH>
0

>  <NdsCH>
0

>  <NaaCH>
9

>  <NsssCH>
2

>  <NddC>
0

>  <NtsC>
0

>  <NdssC>
0

>  <NaasC>
3

>  <NaaaC>
0

>  <NssssC>
1

>  <NsNH3>
0

>  <NsNH2>
1

>  <NssNH2>
0

>  <NdNH>
0

>  <NssNH>
0

>  <NaaNH>
0

>  <NtN>
0

>  <NsssNH>
0

>  <NdsN>
0

>  <NaaN>
0

>  <NsssN>
0

>  <NddsN>
0

>  <NaasN>
0

>  <NssssN>
0

>  <NsOH>
1

>  <NdO>
2

>  <NssO>
1

>  <NaaO>
0

>  <NsF>
0

>  <NsSiH3>
0

>  <NssSiH2>
0

>  <NsssSiH>
0

>  <NssssSi>
0

>  <NsPH2>
0

>  <NssPH>
0

>  <NsssP>
0

>  <NdsssP>
0

>  <NsssssP>
0

>  <NsSH>
0

>  <NdS>
0

>  <NssS>
0

>  <NaaS>
0

>  <NdssS>
0

>  <NddssS>
1

>  <NsCl>
0

>  <NsBr>
0

>  <NsI>
0

>  <fragCpx>
119.06

>  <fMF>
0.38

>  <nHBAcc>
5

>  <nHBDon>
2

>  <Kier1>
17.81

>  <Kier2>
6.72

>  <Lipinski>
1

>  <GhoseFilter>
1

>  <FilterItLogS>
-3.4

>  <VMcGowan>
241.82

>  <LabuteASA>
135.18

>  <PEOE_VSA1>
15.58

>  <PEOE_VSA2>
0

>  <PEOE_VSA3>
8.42

>  <PEOE_VSA4>
0

>  <PEOE_VSA5>
0

>  <PEOE_VSA6>
30.33

>  <PEOE_VSA7>
29.83

>  <PEOE_VSA8>
5.92

>  <PEOE_VSA9>
29.4

>  <PEOE_VSA10>
5.75

>  <PEOE_VSA11>
9.84

>  <PEOE_VSA12>
0

>  <PEOE_VSA13>
0

>  <SMR_VSA1>
18.26

>  <SMR_VSA2>
0

>  <SMR_VSA3>
0

>  <SMR_VSA4>
5.73

>  <SMR_VSA5>
21.6

>  <SMR_VSA6>
13.72

>  <SMR_VSA7>
60.16

>  <SMR_VSA8>
0

>  <SMR_VSA9>
5.75

>  <SlogP_VSA1>
10.47

>  <SlogP_VSA2>
38.03

>  <SlogP_VSA3>
9.84

>  <SlogP_VSA4>
0

>  <SlogP_VSA5>
11.48

>  <SlogP_VSA6>
59.49

>  <SlogP_VSA7>
0

>  <SlogP_VSA8>
0

>  <SlogP_VSA9>
0

>  <SlogP_VSA10>
0

>  <SlogP_VSA11>
5.75

>  <EState_VSA1>
26.54

>  <EState_VSA2>
11.5

>  <EState_VSA3>
5.75

>  <EState_VSA4>
5.56

>  <EState_VSA5>
0

>  <EState_VSA6>
61.71

>  <EState_VSA7>
0

>  <EState_VSA8>
0

>  <EState_VSA9>
10.47

>  <EState_VSA10>
13.52

>  <VSA_EState1>
30.83

>  <VSA_EState2>
0.23

>  <VSA_EState3>
8.83

>  <VSA_EState4>
5.82

>  <VSA_EState5>
0.24

>  <VSA_EState6>
15.32

>  <VSA_EState7>
0

>  <VSA_EState8>
-0.39

>  <VSA_EState9>
-2.05

>  <apol>
48.27

>  <bpol>
26.88

>  <nRing>
3

>  <nHRing>
0

>  <naRing>
2

>  <naHRing>
0

>  <nARing 2>
1

>  <nAHRing 2>
0

>  <nFRing>
0

>  <nFHRing>
0

>  <nFaRing>
0

>  <nFaHRing>
0

>  <nFARing 2>
0

>  <nFAHRing 2>
0

>  <nRot>
5

>  <SLogP>
1.32

>  <SMR>
87.16

>  <TopoPSA(NO)>
89.62

>  <TopoPSA>
98

>  <JGI1>
0.24

>  <JGI2>
0.13

>  <JGI3>
0.09

>  <JGI4>
0.05

>  <JGI5>
0.03

>  <Diameter>
12

>  <Radius>
6

>  <TMWC10>
125.7

>  <TSRW10>
79.56

>  <MW>
333.1

>  <AMW>
7.93

>  <WPath>
1158

>  <WPol>
38

>  <Zagreb1>
126

>  <Zagreb2>
156

>  <mZagreb2>
5.1

>  <yes>


>  <nAR-cont>
0.816016

>  <nHA-cont>
0.967789328

>  <MWHBN>
0.383540053

>  <MWHBN-cont>
0.540898726

>  <TPSA-cont>
0.315899146

>  <pka_cont>
0.97

>  <yes.1>


>  <BBB_SCORE>
3.711951709

>  <MMFF94 Energy>
89.309

$$$$
Compound 2251
Actelion Java MolfileCreator 2.0

  0  0  0  0  0  0              0 V3000
M  V30 BEGIN CTAB
M  V30 COUNTS 33 34 0 0 0
M  V30 BEGIN ATOM
M  V30 1 S 0.4085 -3.6817 0.6537 0
M  V30 2 O -0.2564 -4.6709 -0.1663 0
M  V30 3 O 1.8486 -3.6197 0.7756 0
M  V30 4 C -0.1721 -2.0894 0.0542 0 CFG=2
M  V30 5 C -0.2687 -3.781 2.2882 0
M  V30 6 C 0.2553 -1.7522 -1.3634 0 CFG=1
M  V30 7 C 0.8758 -1.0277 -0.1589 0 CFG=1
M  V30 8 C 1.1654 -2.5891 -2.1087 0
M  V30 9 C -0.7231 -1.0496 -2.2337 0
M  V30 10 C 0.5687 0.428 0.1232 0
M  V30 11 N 1.9099 -3.2414 -2.7135 0
M  V30 12 O -0.4497 -0.531 -3.304 0
M  V30 13 O -1.9932 -1.05 -1.7709 0
M  V30 14 C -0.1303 0.8289 1.2715 0
M  V30 15 C 0.8918 1.4285 -0.809 0
M  V30 16 C -0.4676 2.1693 1.4867 0
M  V30 17 C 0.5555 2.7722 -0.5977 0
M  V30 18 C -0.1263 3.1487 0.5552 0
M  V30 19 O -0.5169 4.4158 0.8855 0
M  V30 20 C -0.156 5.455 -0.0161 0
M  V30 21 H -1.1627 -1.804 0.3776 0
M  V30 22 H -1.3569 -3.7247 2.2244 0
M  V30 23 H 0.127 -2.9561 2.8836 0
M  V30 24 H 0.0312 -4.7357 2.7249 0
M  V30 25 H 1.9077 -1.29 0.076 0
M  V30 26 H -2.496 -0.567 -2.4626 0
M  V30 27 H -0.4134 0.0983 2.0254 0
M  V30 28 H 1.4226 1.1661 -1.7242 0
M  V30 29 H -1.0016 2.4526 2.391 0
M  V30 30 H 0.8404 3.4931 -1.3572 0
M  V30 31 H 0.9317 5.5332 -0.1143 0
M  V30 32 H -0.5217 6.3993 0.3987 0
M  V30 33 H -0.6326 5.3131 -0.9916 0
M  V30 END ATOM
M  V30 BEGIN BOND
M  V30 1 2 1 2
M  V30 2 2 1 3
M  V30 3 1 1 4
M  V30 4 1 1 5
M  V30 5 1 4 6
M  V30 6 1 4 7
M  V30 7 1 6 8
M  V30 8 1 6 9
M  V30 9 1 7 10
M  V30 10 3 8 11
M  V30 11 2 9 12
M  V30 12 1 9 13
M  V30 13 2 10 14
M  V30 14 1 10 15
M  V30 15 1 14 16
M  V30 16 2 15 17
M  V30 17 2 16 18
M  V30 18 1 18 19
M  V30 19 1 19 20
M  V30 20 1 6 7
M  V30 21 1 17 18
M  V30 22 1 4 21
M  V30 23 1 5 22
M  V30 24 1 5 23
M  V30 25 1 5 24
M  V30 26 1 7 25
M  V30 27 1 13 26
M  V30 28 1 14 27
M  V30 29 1 15 28
M  V30 30 1 16 29
M  V30 31 1 17 30
M  V30 32 1 20 31
M  V30 33 1 20 32
M  V30 34 1 20 33
M  V30 END BOND
M  V30 BEGIN COLLECTION
M  V30 MDLV30/STEABS ATOMS=(3 4 6 7)
M  V30 END COLLECTION
M  V30 END CTAB
M  END
>  <Column 1>
2753

>  <level_0>
3988

>  <index>
3988

>  <Unnamed: 0>
3988

>  <NO.>
4000

>  <Name>
clomipramine

>  <IUPAC_name>
(1s-2r-3s)-1-cyano-2-(4-methoxyphenyl)-3-methylsulfonylcyclopropane-1-carboxylic acid

>  <SMILES>
COc1ccc([C@H]2[C@H](S(C)(=O)=O)[C@@]2(C#N)C(=O)O)cc1

>  <CID>
100002801

>  <logBB>


>  <BBB+/BBB->
BBB+

>  <Inchi>
InChI=1S/C13H13NO5S/c1-19-9-5-3-8(4-6-9)10-11(20(2-17)18)13(10-7-14)12(15)16/h3-6-10-11H-1-2H3-(H-15-16)/t10--11--13-/m0/s1

>  <threshold>
-1

>  <reference>
R16|R16|R10|R10|

>  <group>
B

>  <Class>
1

>  <ABC>
15.22

>  <ABCGG>
14.28

>  <nAcid>
1

>  <nBase>
0

>  <nAromAtom>
6

>  <nAromBond>
6

>  <nAtom>
33

>  <nHeavyAtom>
20

>  <nSpiro>
0

>  <nBridgehead>
0

>  <nHetero>
7

>  <nN>
1

>  <nO>
5

>  <nF>
0

>  <BalabanJ>
2.14

>  <BertzCT>
688.47

>  <nBonds>
34

>  <nBondsO>
21

>  <nBondsS>
24

>  <nBondsD>
3

>  <nBondsT>
1

>  <nBondsA>
6

>  <nBondsM>
10

>  <nBondsKS>
27

>  <nBondsKD>
6

>  <RNCG>
0.24

>  <RPCG>
0.16

>  <FCSP3>
0.38

>  <SZ>
25.67

>  <Sm>
24.59

>  <Sv>
22.04

>  <Sse>
34.16

>  <Sp>
22.99

>  <Si>
36.96

>  <MZ>
0.78

>  <Mm>
0.75

>  <Mv>
0.67

>  <Mse>
1.04

>  <Mp>
0.7

>  <Mi>
1.12

>  <NsCH3>
2

>  <NdCH2>
0

>  <NssCH2>
0

>  <NtCH>
0

>  <NdsCH>
0

>  <NaaCH>
4

>  <NsssCH>
2

>  <NddC>
0

>  <NtsC>
1

>  <NdssC>
1

>  <NaasC>
2

>  <NaaaC>
0

>  <NssssC>
1

>  <NsNH3>
0

>  <NsNH2>
0

>  <NssNH2>
0

>  <NdNH>
0

>  <NssNH>
0

>  <NaaNH>
0

>  <NtN>
1

>  <NsssNH>
0

>  <NdsN>
0

>  <NaaN>
0

>  <NsssN>
0

>  <NddsN>
0

>  <NaasN>
0

>  <NssssN>
0

>  <NsOH>
1

>  <NdO>
3

>  <NssO>
1

>  <NaaO>
0

>  <NsF>
0

>  <NsSiH3>
0

>  <NssSiH2>
0

>  <NsssSiH>
0

>  <NssssSi>
0

>  <NsPH2>
0

>  <NssPH>
0

>  <NsssP>
0

>  <NdsssP>
0

>  <NsssssP>
0

>  <NsSH>
0

>  <NdS>
0

>  <NssS>
0

>  <NaaS>
0

>  <NdssS>
0

>  <NddssS>
1

>  <NsCl>
0

>  <NsBr>
0

>  <NsI>
0

>  <fragCpx>
61.07

>  <fMF>
0.27

>  <nHBAcc>
5

>  <nHBDon>
1

>  <Kier1>
16.37

>  <Kier2>
5.65

>  <Lipinski>
1

>  <GhoseFilter>
1

>  <FilterItLogS>
-2.04

>  <VMcGowan>
202.19

>  <LabuteASA>
116.07

>  <PEOE_VSA1>
9.84

>  <PEOE_VSA2>
4.79

>  <PEOE_VSA3>
8.42

>  <PEOE_VSA4>
5.26

>  <PEOE_VSA5>
0

>  <PEOE_VSA6>
12.13

>  <PEOE_VSA7>
17.7

>  <PEOE_VSA8>
12.17

>  <PEOE_VSA9>
13.18

>  <PEOE_VSA10>
11

>  <PEOE_VSA11>
15.25

>  <PEOE_VSA12>
0

>  <PEOE_VSA13>
0

>  <SMR_VSA1>
23.06

>  <SMR_VSA2>
5.26

>  <SMR_VSA3>
0

>  <SMR_VSA4>
5.41

>  <SMR_VSA5>
11.17

>  <SMR_VSA6>
13.37

>  <SMR_VSA7>
29.83

>  <SMR_VSA8>
0

>  <SMR_VSA9>
11.82

>  <SlogP_VSA1>
4.74

>  <SlogP_VSA2>
38.11

>  <SlogP_VSA3>
14.63

>  <SlogP_VSA4>
16.75

>  <SlogP_VSA5>
11.48

>  <SlogP_VSA6>
24.27

>  <SlogP_VSA7>
0

>  <SlogP_VSA8>
0

>  <SlogP_VSA9>
0

>  <SlogP_VSA10>
0

>  <SlogP_VSA11>
5.75

>  <EState_VSA1>
32.39

>  <EState_VSA2>
0

>  <EState_VSA3>
11.31

>  <EState_VSA4>
6.26

>  <EState_VSA5>
7.11

>  <EState_VSA6>
30.33

>  <EState_VSA7>
0

>  <EState_VSA8>
0

>  <EState_VSA9>
4.74

>  <EState_VSA10>
23.58

>  <VSA_EState1>
28.47

>  <VSA_EState2>
11.37

>  <VSA_EState3>
17.21

>  <VSA_EState4>
-1.4

>  <VSA_EState5>
-1.69

>  <VSA_EState6>
8.07

>  <VSA_EState7>
0.95

>  <VSA_EState8>
0

>  <VSA_EState9>
-2.15

>  <apol>
38.39

>  <bpol>
22.87

>  <nRing>
2

>  <nHRing>
0

>  <naRing>
1

>  <naHRing>
0

>  <nARing 2>
1

>  <nAHRing 2>
0

>  <nFRing>
0

>  <nFHRing>
0

>  <nFaRing>
0

>  <nFaHRing>
0

>  <nFARing 2>
0

>  <nFAHRing 2>
0

>  <nRot>
4

>  <SLogP>
0.8

>  <SMR>
70.05

>  <TopoPSA(NO)>
104.46

>  <TopoPSA>
112.84

>  <JGI1>
0.31

>  <JGI2>
0.13

>  <JGI3>
0.11

>  <JGI4>
0.07

>  <JGI5>
0.02

>  <Diameter>
9

>  <Radius>
5

>  <TMWC10>
117.81

>  <TSRW10>
76.03

>  <MW>
295.05

>  <AMW>
8.94

>  <WPath>
770

>  <WPol>
33

>  <Zagreb1>
108

>  <Zagreb2>
134

>  <mZagreb2>
4.43

>  <yes>


>  <nAR-cont>
0.816016

>  <nHA-cont>
0.999629945

>  <MWHBN>
0.349303905

>  <MWHBN-cont>
0.67285145

>  <TPSA-cont>
0.212306731

>  <pka_cont>
0.97

>  <yes.1>


>  <BBB_SCORE>
3.734536581

>  <MMFF94 Energy>
-32.502

$$$$
Compound 2252
Actelion Java MolfileCreator 2.0

  0  0  0  0  0  0              0 V3000
M  V30 BEGIN CTAB
M  V30 COUNTS 62 67 0 0 0
M  V30 BEGIN ATOM
M  V30 1 O -2.9953 -0.647 -2.0231 0
M  V30 2 C -2.4846 -1.4299 -1.2275 0
M  V30 3 N -2.0317 -2.6535 -1.636 0
M  V30 4 C -2.3386 -1.0831 0.2276 0
M  V30 5 C -1.445 -3.5892 -0.7807 0
M  V30 6 C -1.7686 -1.9785 1.0575 0
M  V30 7 C -2.8376 0.3029 0.6087 0 CFG=2
M  V30 8 C -1.3008 -3.2775 0.5726 0
M  V30 9 C -1.0112 -4.8158 -1.2784 0
M  V30 10 C -2.2462 0.86 1.8746 0
M  V30 11 C -4.3602 0.3622 0.728 0
M  V30 12 C -0.7123 -4.2112 1.4297 0
M  V30 13 C -0.4236 -5.7455 -0.4141 0
M  V30 14 C -2.9355 0.7511 3.0858 0
M  V30 15 C -1.0072 1.4717 1.9266 0
M  V30 16 C -4.8503 -0.2851 1.9945 0
M  V30 17 C -0.2721 -5.4469 0.942 0
M  V30 18 O -4.1707 0.0781 3.1512 0
M  V30 19 C -2.4171 1.2405 4.2999 0
M  V30 20 O -0.1591 1.6582 0.8599 0
M  V30 21 C -0.4888 1.9597 3.1259 0
M  V30 22 O -5.8341 -1.0162 2.0334 0
M  V30 23 O 0.2844 -6.2643 1.8869 0
M  V30 24 C -1.1677 1.8638 4.3257 0
M  V30 25 C 0.9674 2.2916 1.3721 0
M  V30 26 C 0.8249 2.5213 2.8344 0
M  V30 27 C 0.7285 -7.544 1.4535 0
M  V30 28 C 2.0432 2.6692 0.6699 0
M  V30 29 O 1.5984 3.0321 3.6139 0
M  V30 30 C 2.2161 2.4777 -0.7803 0
M  V30 31 C 2.7259 3.5172 -1.5848 0
M  V30 32 C 1.9368 1.2403 -1.3756 0
M  V30 33 O 2.9831 4.7226 -0.9666 0
M  V30 34 C 2.8779 3.3472 -2.9762 0
M  V30 35 C 2.1174 1.0555 -2.7457 0
M  V30 36 C 4.3508 5.1124 -1.0851 0
M  V30 37 O 3.312 4.4341 -3.6901 0
M  V30 38 C 2.5801 2.1041 -3.5427 0
M  V30 39 C 3.2568 4.3525 -5.108 0
M  V30 40 H -2.1513 -2.8621 -2.6179 0
M  V30 41 H -1.6342 -1.7786 2.1154 0
M  V30 42 H -2.556 0.9976 -0.1954 0
M  V30 43 H -1.1235 -5.0626 -2.3303 0
M  V30 44 H -4.7123 1.4019 0.7386 0
M  V30 45 H -4.8439 -0.1303 -0.123 0
M  V30 46 H -0.5904 -3.9901 2.4876 0
M  V30 47 H -0.0956 -6.6924 -0.8306 0
M  V30 48 H -2.9863 1.1236 5.2197 0
M  V30 49 H -0.7392 2.2473 5.246 0
M  V30 50 H -0.1032 -8.1388 1.0616 0
M  V30 51 H 1.133 -8.0699 2.3238 0
M  V30 52 H 1.5325 -7.453 0.7158 0
M  V30 53 H 2.8505 3.1958 1.1752 0
M  V30 54 H 1.5783 0.4045 -0.7787 0
M  V30 55 H 1.8907 0.0916 -3.195 0
M  V30 56 H 5.0317 4.2581 -1.1776 0
M  V30 57 H 4.6203 5.6567 -0.1746 0
M  V30 58 H 4.477 5.7965 -1.9292 0
M  V30 59 H 2.6976 1.9165 -4.6048 0
M  V30 60 H 3.9783 3.6213 -5.4863 0
M  V30 61 H 3.5356 5.3316 -5.5096 0
M  V30 62 H 2.243 4.127 -5.4558 0
M  V30 END ATOM
M  V30 BEGIN BOND
M  V30 1 2 1 2
M  V30 2 1 2 3
M  V30 3 1 2 4
M  V30 4 1 3 5
M  V30 5 2 4 6
M  V30 6 1 4 7
M  V30 7 2 5 8
M  V30 8 1 5 9
M  V30 9 1 7 10
M  V30 10 1 7 11
M  V30 11 1 8 12
M  V30 12 2 9 13
M  V30 13 2 10 14
M  V30 14 1 10 15
M  V30 15 1 11 16
M  V30 16 2 12 17
M  V30 17 1 14 18
M  V30 18 1 14 19
M  V30 19 1 15 20
M  V30 20 2 15 21
M  V30 21 2 16 22
M  V30 22 1 17 23
M  V30 23 2 19 24
M  V30 24 1 20 25
M  V30 25 1 21 26
M  V30 26 1 23 27
M  V30 27 2 25 28
M  V30 28 2 26 29
M  V30 29 1 28 30
M  V30 30 2 30 31
M  V30 31 1 30 32
M  V30 32 1 31 33
M  V30 33 1 31 34
M  V30 34 2 32 35
M  V30 35 1 33 36
M  V30 36 1 34 37
M  V30 37 2 34 38
M  V30 38 1 37 39
M  V30 39 1 6 8
M  V30 40 1 13 17
M  V30 41 1 16 18
M  V30 42 1 21 24
M  V30 43 1 25 26
M  V30 44 1 35 38
M  V30 45 1 3 40
M  V30 46 1 6 41
M  V30 47 1 7 42
M  V30 48 1 9 43
M  V30 49 1 11 44
M  V30 50 1 11 45
M  V30 51 1 12 46
M  V30 52 1 13 47
M  V30 53 1 19 48
M  V30 54 1 24 49
M  V30 55 1 27 50
M  V30 56 1 27 51
M  V30 57 1 27 52
M  V30 58 1 28 53
M  V30 59 1 32 54
M  V30 60 1 35 55
M  V30 61 1 36 56
M  V30 62 1 36 57
M  V30 63 1 36 58
M  V30 64 1 38 59
M  V30 65 1 39 60
M  V30 66 1 39 61
M  V30 67 1 39 62
M  V30 END BOND
M  V30 BEGIN COLLECTION
M  V30 MDLV30/STEABS ATOMS=(1 7)
M  V30 END COLLECTION
M  V30 END CTAB
M  END
>  <Column 1>
2754

>  <level_0>
3989

>  <index>
3989

>  <Unnamed: 0>
3989

>  <NO.>
4001

>  <Name>
levofloxacin

>  <IUPAC_name>
(2z-9s)-2-[(2-3-dimethoxyphenyl)methylidene]-9-(6-methoxy-2-oxo-1h-quinolin-3-yl)-8-9-dihydrofuro[2-3-f]chromene-3-7-dione

>  <SMILES>
COc1ccc2[nH]c(=O)c([C@H]3CC(=O)Oc4ccc5c(c43)O/C(=C\c3cccc(OC)c3OC)C5=O)cc2c1

>  <CID>
100004583

>  <logBB>


>  <BBB+/BBB->
BBB+

>  <Inchi>
InChI=1S/C30H23NO8/c1-35-17-7-9-21-16(11-17)12-20(30(34)31-21)19-14-25(32)38-22-10-8-18-27(33)24(39-29(18)26(19)22)13-15-5-4-6-23(36-2)28(15)37-3/h4-13-19H-14H2-1-3H3-(H-31-34)/b24-13-/t19-/m1/s1

>  <threshold>
-1

>  <reference>
R16|R10|

>  <group>
B

>  <Class>
-1

>  <ABC>
31

>  <ABCGG>
22.66

>  <nAcid>
0

>  <nBase>
0

>  <nAromAtom>
22

>  <nAromBond>
23

>  <nAtom>
62

>  <nHeavyAtom>
39

>  <nSpiro>
0

>  <nBridgehead>
0

>  <nHetero>
9

>  <nN>
1

>  <nO>
8

>  <nF>
0

>  <BalabanJ>
1.2

>  <BertzCT>
1767.32

>  <nBonds>
67

>  <nBondsO>
44

>  <nBondsS>
40

>  <nBondsD>
4

>  <nBondsT>
0

>  <nBondsA>
23

>  <nBondsM>
27

>  <nBondsKS>
53

>  <nBondsKD>
14

>  <RNCG>
0.13

>  <RPCG>
0.08

>  <FCSP3>
0.17

>  <SZ>
45.67

>  <Sm>
43.75

>  <Sv>
42.71

>  <Sse>
63.52

>  <Sp>
43.68

>  <Si>
68.74

>  <MZ>
0.74

>  <Mm>
0.71

>  <Mv>
0.69

>  <Mse>
1.02

>  <Mp>
0.7

>  <Mi>
1.11

>  <NsCH3>
3

>  <NdCH2>
0

>  <NssCH2>
1

>  <NtCH>
0

>  <NdsCH>
1

>  <NaaCH>
9

>  <NsssCH>
1

>  <NddC>
0

>  <NtsC>
0

>  <NdssC>
3

>  <NaasC>
9

>  <NaaaC>
2

>  <NssssC>
0

>  <NsNH3>
0

>  <NsNH2>
0

>  <NssNH2>
0

>  <NdNH>
0

>  <NssNH>
0

>  <NaaNH>
1

>  <NtN>
0

>  <NsssNH>
0

>  <NdsN>
0

>  <NaaN>
0

>  <NsssN>
0

>  <NddsN>
0

>  <NaasN>
0

>  <NssssN>
0

>  <NsOH>
0

>  <NdO>
3

>  <NssO>
5

>  <NaaO>
0

>  <NsF>
0

>  <NsSiH3>
0

>  <NssSiH2>
0

>  <NsssSiH>
0

>  <NssssSi>
0

>  <NsPH2>
0

>  <NssPH>
0

>  <NsssP>
0

>  <NdsssP>
0

>  <NsssssP>
0

>  <NsSH>
0

>  <NdS>
0

>  <NssS>
0

>  <NaaS>
0

>  <NdssS>
0

>  <NddssS>
0

>  <NsCl>
0

>  <NsBr>
0

>  <NsI>
0

>  <fragCpx>
454.09

>  <fMF>
0.48

>  <nHBAcc>
8

>  <nHBDon>
1

>  <Kier1>
29.09

>  <Kier2>
12.31

>  <Lipinski>
0

>  <GhoseFilter>
0

>  <FilterItLogS>
-7.89

>  <VMcGowan>
365.14

>  <LabuteASA>
222.08

>  <PEOE_VSA1>
28.67

>  <PEOE_VSA2>
14.38

>  <PEOE_VSA3>
0

>  <PEOE_VSA4>
0

>  <PEOE_VSA5>
0

>  <PEOE_VSA6>
12.13

>  <PEOE_VSA7>
48.54

>  <PEOE_VSA8>
33.51

>  <PEOE_VSA9>
33.31

>  <PEOE_VSA10>
17.25

>  <PEOE_VSA11>
17.26

>  <PEOE_VSA12>
5.78

>  <PEOE_VSA13>
5.56

>  <SMR_VSA1>
33.27

>  <SMR_VSA2>
0

>  <SMR_VSA3>
4.98

>  <SMR_VSA4>
0

>  <SMR_VSA5>
12.34

>  <SMR_VSA6>
21.33

>  <SMR_VSA7>
92.96

>  <SMR_VSA8>
0

>  <SMR_VSA9>
28.75

>  <SlogP_VSA1>
29.24

>  <SlogP_VSA2>
38.07

>  <SlogP_VSA3>
4.79

>  <SlogP_VSA4>
0

>  <SlogP_VSA5>
39.39

>  <SlogP_VSA6>
65.15

>  <SlogP_VSA7>
0

>  <SlogP_VSA8>
16.98

>  <SlogP_VSA9>
0

>  <SlogP_VSA10>
0

>  <SlogP_VSA11>
28.75

>  <EState_VSA1>
11.89

>  <EState_VSA2>
35.02

>  <EState_VSA3>
45.02

>  <EState_VSA4>
5.39

>  <EState_VSA5>
14.22

>  <EState_VSA6>
67.78

>  <EState_VSA7>
0

>  <EState_VSA8>
4.98

>  <EState_VSA9>
23.68

>  <EState_VSA10>
14.38

>  <VSA_EState1>
27.83

>  <VSA_EState2>
42.1

>  <VSA_EState3>
0.74

>  <VSA_EState4>
2

>  <VSA_EState5>
0.62

>  <VSA_EState6>
15.47

>  <VSA_EState7>
1.48

>  <VSA_EState8>
0

>  <VSA_EState9>
4.6

>  <apol>
72.95

>  <bpol>
34.93

>  <nRing>
6

>  <nHRing>
3

>  <naRing>
4

>  <naHRing>
1

>  <nARing 2>
2

>  <nAHRing 2>
2

>  <nFRing>
2

>  <nFHRing>
2

>  <nFaRing>
1

>  <nFaHRing>
1

>  <nFARing 2>
1

>  <nFAHRing 2>
1

>  <nRot>
5

>  <SLogP>
4.61

>  <SMR>
142.14

>  <TopoPSA(NO)>
113.15

>  <TopoPSA>
113.15

>  <JGI1>
0.18

>  <JGI2>
0.08

>  <JGI3>
0.05

>  <JGI4>
0.04

>  <JGI5>
0.03

>  <Diameter>
17

>  <Radius>
9

>  <TMWC10>
164.5

>  <TSRW10>
90.98

>  <MW>
525.14

>  <AMW>
8.47

>  <WPath>
4852

>  <WPol>
74

>  <Zagreb1>
218

>  <Zagreb2>
268

>  <mZagreb2>
8.56

>  <yes>


>  <nAR-cont>
1

>  <nHA-cont>
0.348277641

>  <MWHBN>
0.392739841

>  <MWHBN-cont>
0.504664102

>  <TPSA-cont>
0.210142738

>  <pka_cont>
0.97

>  <yes.1>


>  <BBB_SCORE>
3.01055927

>  <MMFF94 Energy>
92.085

$$$$
Compound 2253
Actelion Java MolfileCreator 2.0

  0  0  0  0  0  0              0 V3000
M  V30 BEGIN CTAB
M  V30 COUNTS 51 53 0 0 0
M  V30 BEGIN ATOM
M  V30 1 Cl -0.8816 3.2089 7.7147 0
M  V30 2 C -0.4159 1.9464 6.6259 0
M  V30 3 C -0.9767 1.8175 5.3385 0
M  V30 4 C 0.5428 1.0417 7.0896 0
M  V30 5 C -0.5756 0.7203 4.5395 0
M  V30 6 C -2.0084 2.7994 4.8407 0
M  V30 7 C 0.9467 -0.0171 6.2864 0
M  V30 8 N -1.1842 0.5197 3.285 0
M  V30 9 C 0.3836 -0.1803 5.0222 0
M  V30 10 C -0.6887 -0.1979 2.2168 0
M  V30 11 O 0.369 -0.8037 2.1158 0
M  V30 12 C -1.6528 -0.1652 1.0106 0
M  V30 13 O -2.7037 0.4548 1.0991 0
M  V30 14 N -1.2002 -0.8758 -0.0741 0
M  V30 15 C -1.8604 -0.8516 -1.3681 0
M  V30 16 C -1.2169 0.136 -2.3936 0 CFG=1
M  V30 17 O -1.1512 1.4464 -1.8085 0
M  V30 18 C 0.1865 -0.3139 -2.7987 0
M  V30 19 C -2.1285 0.275 -3.6313 0
M  V30 20 C 0.4218 -0.9665 -4.0234 0
M  V30 21 C 1.2756 -0.1012 -1.9323 0
M  V30 22 C -2.0736 -0.9611 -4.5177 0
M  V30 23 C 1.7253 -1.3871 -4.3425 0
M  V30 24 C -0.6618 -1.1673 -5.0549 0
M  V30 25 C 2.5643 -0.5333 -2.2599 0
M  V30 26 C 2.7945 -1.1819 -3.4679 0
M  V30 27 O 3.9982 -1.6515 -3.9147 0
M  V30 28 C 5.1139 -1.4846 -3.0487 0
M  V30 29 H 0.9736 1.1551 8.0815 0
M  V30 30 H -1.9294 3.7764 5.3249 0
M  V30 31 H -3.0138 2.4027 5.0124 0
M  V30 32 H -1.878 3.0011 3.7722 0
M  V30 33 H 1.6883 -0.7256 6.6463 0
M  V30 34 H -2.0753 0.9736 3.0965 0
M  V30 35 H 0.6987 -1.0388 4.4348 0
M  V30 36 H -0.3079 -1.3517 0.0289 0
M  V30 37 H -2.9073 -0.573 -1.2005 0
M  V30 38 H -1.8375 -1.8801 -1.7431 0
M  V30 39 H -0.4933 1.9528 -2.3154 0
M  V30 40 H -3.1623 0.47 -3.3195 0
M  V30 41 H -1.8327 1.1563 -4.2178 0
M  V30 42 H 1.1266 0.4094 -0.9812 0
M  V30 43 H -2.3947 -1.8464 -3.9575 0
M  V30 44 H -2.7711 -0.8542 -5.3564 0
M  V30 45 H 1.9173 -1.8802 -5.2942 0
M  V30 46 H -0.5903 -2.1755 -5.48 0
M  V30 47 H -0.4836 -0.4535 -5.8694 0
M  V30 48 H 3.361 -0.3439 -1.5481 0
M  V30 49 H 5.3235 -0.4239 -2.8756 0
M  V30 50 H 5.9879 -1.9202 -3.5422 0
M  V30 51 H 4.9644 -2.0181 -2.1041 0
M  V30 END ATOM
M  V30 BEGIN BOND
M  V30 1 1 1 2
M  V30 2 2 2 3
M  V30 3 1 2 4
M  V30 4 1 3 5
M  V30 5 1 3 6
M  V30 6 2 4 7
M  V30 7 1 5 8
M  V30 8 2 5 9
M  V30 9 1 8 10
M  V30 10 2 10 11
M  V30 11 1 10 12
M  V30 12 2 12 13
M  V30 13 1 12 14
M  V30 14 1 14 15
M  V30 15 1 15 16
M  V30 16 1 16 17
M  V30 17 1 16 18
M  V30 18 1 16 19
M  V30 19 2 18 20
M  V30 20 1 18 21
M  V30 21 1 19 22
M  V30 22 1 20 23
M  V30 23 1 20 24
M  V30 24 2 21 25
M  V30 25 2 23 26
M  V30 26 1 26 27
M  V30 27 1 27 28
M  V30 28 1 7 9
M  V30 29 1 22 24
M  V30 30 1 25 26
M  V30 31 1 4 29
M  V30 32 1 6 30
M  V30 33 1 6 31
M  V30 34 1 6 32
M  V30 35 1 7 33
M  V30 36 1 8 34
M  V30 37 1 9 35
M  V30 38 1 14 36
M  V30 39 1 15 37
M  V30 40 1 15 38
M  V30 41 1 17 39
M  V30 42 1 19 40
M  V30 43 1 19 41
M  V30 44 1 21 42
M  V30 45 1 22 43
M  V30 46 1 22 44
M  V30 47 1 23 45
M  V30 48 1 24 46
M  V30 49 1 24 47
M  V30 50 1 25 48
M  V30 51 1 28 49
M  V30 52 1 28 50
M  V30 53 1 28 51
M  V30 END BOND
M  V30 BEGIN COLLECTION
M  V30 MDLV30/STEABS ATOMS=(1 16)
M  V30 END COLLECTION
M  V30 END CTAB
M  END
>  <Column 1>
2755

>  <level_0>
3990

>  <index>
3990

>  <Unnamed: 0>
3990

>  <NO.>
4002

>  <Name>
dopamine

>  <IUPAC_name>
n'-(3-chloro-2-methylphenyl)-n-[[(1s)-1-hydroxy-6-methoxy-3-4-dihydro-2h-naphthalen-1-yl]methyl]oxamide

>  <SMILES>
COc1ccc2c(c1)CCC[C@@]2(O)CNC(=O)C(=O)Nc1cccc(Cl)c1C

>  <CID>
100000681

>  <logBB>


>  <BBB+/BBB->
BBB-

>  <Inchi>
InChI=1S/C21H23ClN2O4/c1-13-17(22)6-3-7-18(13)24-20(26)19(25)23-12-21(27)10-4-5-14-11-15(28-2)8-9-16(14)21/h3-6-9-11-27H-4-5-10-12H2-1-2H3-(H-23-25)(H-24-26)/t21-/m1/s1

>  <threshold>
-1

>  <reference>
R16|R16|R10|R10|

>  <group>
B

>  <Class>
-1

>  <ABC>
21.59

>  <ABCGG>
17.15

>  <nAcid>
0

>  <nBase>
0

>  <nAromAtom>
12

>  <nAromBond>
12

>  <nAtom>
51

>  <nHeavyAtom>
28

>  <nSpiro>
0

>  <nBridgehead>
0

>  <nHetero>
7

>  <nN>
2

>  <nO>
4

>  <nF>
0

>  <BalabanJ>
1.5

>  <BertzCT>
915.27

>  <nBonds>
53

>  <nBondsO>
30

>  <nBondsS>
39

>  <nBondsD>
2

>  <nBondsT>
0

>  <nBondsA>
12

>  <nBondsM>
14

>  <nBondsKS>
45

>  <nBondsKD>
8

>  <RNCG>
0.19

>  <RPCG>
0.12

>  <FCSP3>
0.33

>  <SZ>
35.33

>  <Sm>
33.54

>  <Sv>
32.7

>  <Sse>
51.62

>  <Sp>
34.73

>  <Si>
57.35

>  <MZ>
0.69

>  <Mm>
0.66

>  <Mv>
0.64

>  <Mse>
1.01

>  <Mp>
0.68

>  <Mi>
1.12

>  <NsCH3>
2

>  <NdCH2>
0

>  <NssCH2>
4

>  <NtCH>
0

>  <NdsCH>
0

>  <NaaCH>
6

>  <NsssCH>
0

>  <NddC>
0

>  <NtsC>
0

>  <NdssC>
2

>  <NaasC>
6

>  <NaaaC>
0

>  <NssssC>
1

>  <NsNH3>
0

>  <NsNH2>
0

>  <NssNH2>
0

>  <NdNH>
0

>  <NssNH>
2

>  <NaaNH>
0

>  <NtN>
0

>  <NsssNH>
0

>  <NdsN>
0

>  <NaaN>
0

>  <NsssN>
0

>  <NddsN>
0

>  <NaasN>
0

>  <NssssN>
0

>  <NsOH>
1

>  <NdO>
2

>  <NssO>
1

>  <NaaO>
0

>  <NsF>
0

>  <NsSiH3>
0

>  <NssSiH2>
0

>  <NsssSiH>
0

>  <NssssSi>
0

>  <NsPH2>
0

>  <NssPH>
0

>  <NsssP>
0

>  <NdsssP>
0

>  <NsssssP>
0

>  <NsSH>
0

>  <NdS>
0

>  <NssS>
0

>  <NaaS>
0

>  <NdssS>
0

>  <NddssS>
0

>  <NsCl>
1

>  <NsBr>
0

>  <NsI>
0

>  <fragCpx>
144.07

>  <fMF>
0.41

>  <nHBAcc>
4

>  <nHBDon>
3

>  <Kier1>
22.68

>  <Kier2>
9.87

>  <Lipinski>
1

>  <GhoseFilter>
1

>  <FilterItLogS>
-5.99

>  <VMcGowan>
295.45

>  <LabuteASA>
168.4

>  <PEOE_VSA1>
20.48

>  <PEOE_VSA2>
9.59

>  <PEOE_VSA3>
0

>  <PEOE_VSA4>
0

>  <PEOE_VSA5>
0

>  <PEOE_VSA6>
23.73

>  <PEOE_VSA7>
67.14

>  <PEOE_VSA8>
10.71

>  <PEOE_VSA9>
13.65

>  <PEOE_VSA10>
11.35

>  <PEOE_VSA11>
0

>  <PEOE_VSA12>
0

>  <PEOE_VSA13>
0

>  <SMR_VSA1>
19.43

>  <SMR_VSA2>
0

>  <SMR_VSA3>
5.32

>  <SMR_VSA4>
0

>  <SMR_VSA5>
31.79

>  <SMR_VSA6>
18.97

>  <SMR_VSA7>
58.11

>  <SMR_VSA8>
0

>  <SMR_VSA9>
5.75

>  <SlogP_VSA1>
15.37

>  <SlogP_VSA2>
30.58

>  <SlogP_VSA3>
21.61

>  <SlogP_VSA4>
6.92

>  <SlogP_VSA5>
29.53

>  <SlogP_VSA6>
36.4

>  <SlogP_VSA7>
5.02

>  <SlogP_VSA8>
0

>  <SlogP_VSA9>
0

>  <SlogP_VSA10>
5.69

>  <SlogP_VSA11>
5.75

>  <EState_VSA1>
17.42

>  <EState_VSA2>
6.54

>  <EState_VSA3>
22.69

>  <EState_VSA4>
29.72

>  <EState_VSA5>
0

>  <EState_VSA6>
38.3

>  <EState_VSA7>
12.13

>  <EState_VSA8>
10.63

>  <EState_VSA9>
16.34

>  <EState_VSA10>
14.7

>  <VSA_EState1>
5.24

>  <VSA_EState2>
24.47

>  <VSA_EState3>
16.69

>  <VSA_EState4>
1.68

>  <VSA_EState5>
-0.89

>  <VSA_EState6>
10.57

>  <VSA_EState7>
2.11

>  <VSA_EState8>
1.71

>  <VSA_EState9>
1.59

>  <apol>
57.99

>  <bpol>
28.2

>  <nRing>
3

>  <nHRing>
0

>  <naRing>
2

>  <naHRing>
0

>  <nARing 2>
1

>  <nAHRing 2>
0

>  <nFRing>
1

>  <nFHRing>
0

>  <nFaRing>
0

>  <nFaHRing>
0

>  <nFARing 2>
1

>  <nFAHRing 2>
0

>  <nRot>
4

>  <SLogP>
2.94

>  <SMR>
107.66

>  <TopoPSA(NO)>
87.66

>  <TopoPSA>
87.66

>  <JGI1>
0.23

>  <JGI2>
0.11

>  <JGI3>
0.05

>  <JGI4>
0.05

>  <JGI5>
0.03

>  <Diameter>
15

>  <Radius>
8

>  <TMWC10>
134.43

>  <TSRW10>
63.51

>  <MW>
402.13

>  <AMW>
7.88

>  <WPath>
2227

>  <WPol>
47

>  <Zagreb1>
146

>  <Zagreb2>
172

>  <mZagreb2>
6.19

>  <yes>


>  <nAR-cont>
0.816016

>  <nHA-cont>
0.82432561

>  <MWHBN>
0.34907183

>  <MWHBN-cont>
0.673717437

>  <TPSA-cont>
0.388078766

>  <pka_cont>
0.97

>  <yes.1>


>  <BBB_SCORE>
3.912075298

>  <MMFF94 Energy>
96.361

$$$$
Compound 2254
Actelion Java MolfileCreator 2.0

  0  0  0  0  0  0              0 V3000
M  V30 BEGIN CTAB
M  V30 COUNTS 54 57 0 0 0
M  V30 BEGIN ATOM
M  V30 1 O 0.0799 3.0405 -0.3197 0
M  V30 2 C -0.8013 2.2001 -0.431 0
M  V30 3 N -2.0682 2.2809 0.0892 0
M  V30 4 C -0.5325 0.8977 -1.216 0
M  V30 5 C -2.4931 3.4105 0.8707 0
M  V30 6 O -1.4091 0.0549 -1.3581 0
M  V30 7 N 0.7494 0.7909 -1.6992 0
M  V30 8 C -3.9466 3.292 1.2409 0
M  V30 9 C 1.203 -0.3556 -2.4642 0
M  V30 10 C -4.3229 2.6491 2.4318 0
M  V30 11 C -4.945 3.7846 0.3684 0
M  V30 12 C 1.4802 -1.6702 -1.6527 0 CFG=2
M  V30 13 C -5.6684 2.5398 2.7138 0
M  V30 14 C -6.302 3.6582 0.6823 0
M  V30 15 O 0.4395 -1.9266 -0.6991 0
M  V30 16 C 2.7893 -1.635 -0.8623 0
M  V30 17 C 1.4415 -2.8296 -2.6772 0
M  V30 18 O -6.2024 1.954 3.8188 0
M  V30 19 C -6.6304 3.0314 1.864 0
M  V30 20 C 3.734 -2.6806 -0.9426 0
M  V30 21 C 3.0623 -0.5783 0.0231 0
M  V30 22 C 2.0217 -4.1149 -2.1057 0
M  V30 23 C -7.6115 2.135 3.5673 0
M  V30 24 O -7.8908 2.8181 2.3275 0
M  V30 25 C 4.948 -2.6001 -0.2283 0
M  V30 26 C 3.4962 -3.9042 -1.793 0
M  V30 27 C 4.2619 -0.5166 0.7373 0
M  V30 28 C 5.2174 -1.519 0.6074 0
M  V30 29 O 6.3494 -1.3336 1.3509 0
M  V30 30 C 7.3406 -2.3498 1.2773 0
M  V30 31 H -2.6953 1.497 -0.0701 0
M  V30 32 H -1.8655 3.4691 1.7678 0
M  V30 33 H -2.3111 4.3277 0.298 0
M  V30 34 H 1.3812 1.5643 -1.5055 0
M  V30 35 H 0.4115 -0.5494 -3.1996 0
M  V30 36 H 2.0982 -0.0479 -3.0169 0
M  V30 37 H -3.5853 2.2447 3.1173 0
M  V30 38 H -4.661 4.2694 -0.5642 0
M  V30 39 H -7.0712 4.0367 0.0187 0
M  V30 40 H -0.393 -1.562 -1.0598 0
M  V30 41 H 0.4063 -3.0196 -2.9877 0
M  V30 42 H 2.0078 -2.5614 -3.5793 0
M  V30 43 H 2.3305 0.2045 0.196 0
M  V30 44 H 1.9123 -4.9308 -2.8288 0
M  V30 45 H 1.4754 -4.4095 -1.2013 0
M  V30 46 H -8.0431 2.7145 4.3916 0
M  V30 47 H -8.0921 1.1502 3.5408 0
M  V30 48 H 5.6606 -3.4119 -0.3357 0
M  V30 49 H 3.8741 -4.7966 -1.2798 0
M  V30 50 H 4.0634 -3.7923 -2.7253 0
M  V30 51 H 4.444 0.3177 1.4101 0
M  V30 52 H 6.9537 -3.3064 1.644 0
M  V30 53 H 8.1699 -2.0555 1.9276 0
M  V30 54 H 7.7334 -2.4451 0.2597 0
M  V30 END ATOM
M  V30 BEGIN BOND
M  V30 1 2 1 2
M  V30 2 1 2 3
M  V30 3 1 2 4
M  V30 4 1 3 5
M  V30 5 2 4 6
M  V30 6 1 4 7
M  V30 7 1 5 8
M  V30 8 1 7 9
M  V30 9 2 8 10
M  V30 10 1 8 11
M  V30 11 1 9 12
M  V30 12 1 10 13
M  V30 13 2 11 14
M  V30 14 1 12 15
M  V30 15 1 12 16
M  V30 16 1 12 17
M  V30 17 1 13 18
M  V30 18 2 13 19
M  V30 19 2 16 20
M  V30 20 1 16 21
M  V30 21 1 17 22
M  V30 22 1 18 23
M  V30 23 1 19 24
M  V30 24 1 20 25
M  V30 25 1 20 26
M  V30 26 2 21 27
M  V30 27 2 25 28
M  V30 28 1 28 29
M  V30 29 1 29 30
M  V30 30 1 14 19
M  V30 31 1 22 26
M  V30 32 1 23 24
M  V30 33 1 27 28
M  V30 34 1 3 31
M  V30 35 1 5 32
M  V30 36 1 5 33
M  V30 37 1 7 34
M  V30 38 1 9 35
M  V30 39 1 9 36
M  V30 40 1 10 37
M  V30 41 1 11 38
M  V30 42 1 14 39
M  V30 43 1 15 40
M  V30 44 1 17 41
M  V30 45 1 17 42
M  V30 46 1 21 43
M  V30 47 1 22 44
M  V30 48 1 22 45
M  V30 49 1 23 46
M  V30 50 1 23 47
M  V30 51 1 25 48
M  V30 52 1 26 49
M  V30 53 1 26 50
M  V30 54 1 27 51
M  V30 55 1 30 52
M  V30 56 1 30 53
M  V30 57 1 30 54
M  V30 END BOND
M  V30 BEGIN COLLECTION
M  V30 MDLV30/STEABS ATOMS=(1 12)
M  V30 END COLLECTION
M  V30 END CTAB
M  END
>  <Column 1>
2756

>  <level_0>
3991

>  <index>
3991

>  <Unnamed: 0>
3991

>  <NO.>
4003

>  <Name>
estrone

>  <IUPAC_name>
n-(1-3-benzodioxol-5-ylmethyl)-n'-[[(1r)-1-hydroxy-6-methoxy-3-4-dihydro-2h-naphthalen-1-yl]methyl]oxamide

>  <SMILES>
COc1ccc2c(c1)CCC[C@]2(O)CNC(=O)C(=O)NCc1ccc2c(c1)OCO2

>  <CID>
100000698

>  <logBB>


>  <BBB+/BBB->
BBB-

>  <Inchi>
InChI=1S/C22H24N2O6/c1-28-16-5-6-17-15(10-16)3-2-8-22(17-27)12-24-21(26)20(25)23-11-14-4-7-18-19(9-14)30-13-29-18/h4-7-9-10-27H-2-3-8-11-13H2-1H3-(H-23-25)(H-24-26)/t22-/m0/s1

>  <threshold>
-1

>  <reference>
R16|R10|R10|

>  <group>
B

>  <Class>
1

>  <ABC>
23.53

>  <ABCGG>
17.9

>  <nAcid>
0

>  <nBase>
0

>  <nAromAtom>
12

>  <nAromBond>
12

>  <nAtom>
54

>  <nHeavyAtom>
30

>  <nSpiro>
0

>  <nBridgehead>
0

>  <nHetero>
8

>  <nN>
2

>  <nO>
6

>  <nF>
0

>  <BalabanJ>
1.21

>  <BertzCT>
976.1

>  <nBonds>
57

>  <nBondsO>
33

>  <nBondsS>
43

>  <nBondsD>
2

>  <nBondsT>
0

>  <nBondsA>
12

>  <nBondsM>
14

>  <nBondsKS>
49

>  <nBondsKD>
8

>  <RNCG>
0.15

>  <RPCG>
0.09

>  <FCSP3>
0.36

>  <SZ>
36.33

>  <Sm>
34.34

>  <Sv>
34.31

>  <Sse>
54.96

>  <Sp>
35.78

>  <Si>
60.82

>  <MZ>
0.67

>  <Mm>
0.64

>  <Mv>
0.64

>  <Mse>
1.02

>  <Mp>
0.66

>  <Mi>
1.13

>  <NsCH3>
1

>  <NdCH2>
0

>  <NssCH2>
6

>  <NtCH>
0

>  <NdsCH>
0

>  <NaaCH>
6

>  <NsssCH>
0

>  <NddC>
0

>  <NtsC>
0

>  <NdssC>
2

>  <NaasC>
6

>  <NaaaC>
0

>  <NssssC>
1

>  <NsNH3>
0

>  <NsNH2>
0

>  <NssNH2>
0

>  <NdNH>
0

>  <NssNH>
2

>  <NaaNH>
0

>  <NtN>
0

>  <NsssNH>
0

>  <NdsN>
0

>  <NaaN>
0

>  <NsssN>
0

>  <NddsN>
0

>  <NaasN>
0

>  <NssssN>
0

>  <NsOH>
1

>  <NdO>
2

>  <NssO>
3

>  <NaaO>
0

>  <NsF>
0

>  <NsSiH3>
0

>  <NssSiH2>
0

>  <NsssSiH>
0

>  <NssssSi>
0

>  <NsPH2>
0

>  <NssPH>
0

>  <NsssP>
0

>  <NdsssP>
0

>  <NsssssP>
0

>  <NsSH>
0

>  <NdS>
0

>  <NssS>
0

>  <NaaS>
0

>  <NdssS>
0

>  <NddssS>
0

>  <NsCl>
0

>  <NsBr>
0

>  <NsI>
0

>  <fragCpx>
219.08

>  <fMF>
0.46

>  <nHBAcc>
6

>  <nHBDon>
3

>  <Kier1>
23.17

>  <Kier2>
10.29

>  <Lipinski>
1

>  <GhoseFilter>
1

>  <FilterItLogS>
-5.13

>  <VMcGowan>
298.18

>  <LabuteASA>
173.68

>  <PEOE_VSA1>
29.95

>  <PEOE_VSA2>
9.59

>  <PEOE_VSA3>
0

>  <PEOE_VSA4>
0

>  <PEOE_VSA5>
0

>  <PEOE_VSA6>
12.13

>  <PEOE_VSA7>
60.22

>  <PEOE_VSA8>
6.54

>  <PEOE_VSA9>
13.65

>  <PEOE_VSA10>
11.35

>  <PEOE_VSA11>
11.5

>  <PEOE_VSA12>
6.79

>  <PEOE_VSA13>
0

>  <SMR_VSA1>
28.91

>  <SMR_VSA2>
0

>  <SMR_VSA3>
10.63

>  <SMR_VSA4>
0

>  <SMR_VSA5>
31.41

>  <SMR_VSA6>
20.45

>  <SMR_VSA7>
53.09

>  <SMR_VSA8>
0

>  <SMR_VSA9>
17.25

>  <SlogP_VSA1>
24.84

>  <SlogP_VSA2>
37.37

>  <SlogP_VSA3>
28.16

>  <SlogP_VSA4>
0

>  <SlogP_VSA5>
29.53

>  <SlogP_VSA6>
36.4

>  <SlogP_VSA7>
0

>  <SlogP_VSA8>
0

>  <SlogP_VSA9>
0

>  <SlogP_VSA10>
0

>  <SlogP_VSA11>
17.25

>  <EState_VSA1>
17.42

>  <EState_VSA2>
19.88

>  <EState_VSA3>
17.92

>  <EState_VSA4>
35.28

>  <EState_VSA5>
0

>  <EState_VSA6>
31.38

>  <EState_VSA7>
12.13

>  <EState_VSA8>
10.63

>  <EState_VSA9>
14.21

>  <EState_VSA10>
14.7

>  <VSA_EState1>
15.8

>  <VSA_EState2>
24.43

>  <VSA_EState3>
16.24

>  <VSA_EState4>
1.32

>  <VSA_EState5>
0.44

>  <VSA_EState6>
10.82

>  <VSA_EState7>
2.12

>  <VSA_EState8>
0.31

>  <VSA_EState9>
1.6

>  <apol>
59.76

>  <bpol>
32.16

>  <nRing>
4

>  <nHRing>
1

>  <naRing>
2

>  <naHRing>
0

>  <nARing 2>
2

>  <nAHRing 2>
1

>  <nFRing>
2

>  <nFHRing>
1

>  <nFaRing>
0

>  <nFaHRing>
0

>  <nFARing 2>
2

>  <nFAHRing 2>
1

>  <nRot>
5

>  <SLogP>
1.38

>  <SMR>
107.25

>  <TopoPSA(NO)>
106.12

>  <TopoPSA>
106.12

>  <JGI1>
0.21

>  <JGI2>
0.09

>  <JGI3>
0.04

>  <JGI4>
0.04

>  <JGI5>
0.03

>  <Diameter>
17

>  <Radius>
9

>  <TMWC10>
140.28

>  <TSRW10>
79.48

>  <MW>
412.16

>  <AMW>
7.63

>  <WPath>
2841

>  <WPol>
48

>  <Zagreb1>
160

>  <Zagreb2>
189

>  <mZagreb2>
6.58

>  <yes>


>  <nAR-cont>
1

>  <nHA-cont>
0.74523694

>  <MWHBN>
0.443312104

>  <MWHBN-cont>
0.310114952

>  <TPSA-cont>
0.259216503

>  <pka_cont>
0.97

>  <yes.1>


>  <BBB_SCORE>
3.213842375

>  <MMFF94 Energy>
84.065

$$$$
Compound 2255
Actelion Java MolfileCreator 2.0

  0  0  0  0  0  0              0 V3000
M  V30 BEGIN CTAB
M  V30 COUNTS 40 43 0 0 0
M  V30 BEGIN ATOM
M  V30 1 O -1.368 0.885 3.3019 0
M  V30 2 C -0.4826 1.1034 2.5004 0
M  V30 3 O 0.8377 0.7896 2.6797 0
M  V30 4 C -0.6154 1.6654 1.1571 0
M  V30 5 C 1.6266 1.2385 1.5747 0 CFG=2
M  V30 6 C -1.7488 2.0727 0.4728 0
M  V30 7 C 0.6361 1.699 0.5777 0
M  V30 8 N 2.5385 0.2332 1.0805 0
M  V30 9 O -2.9652 2.0871 1.097 0
M  V30 10 C -1.604 2.5552 -0.8399 0
M  V30 11 C 0.8032 2.1524 -0.7202 0
M  V30 12 C 2.2843 -1.0426 0.6246 0
M  V30 13 C -3.6987 0.9007 0.7956 0
M  V30 14 O -2.7555 2.9678 -1.459 0
M  V30 15 C -0.3263 2.5782 -1.4306 0
M  V30 16 C 1.031 -1.6676 0.6829 0
M  V30 17 C 3.3485 -1.7494 0.0119 0
M  V30 18 C -2.6334 3.5752 -2.738 0
M  V30 19 C 0.8733 -2.9447 0.1608 0
M  V30 20 C 3.1842 -3.0344 -0.5159 0
M  V30 21 C 1.9311 -3.6007 -0.4229 0
M  V30 22 C -0.32 -3.8112 0.1152 0
M  V30 23 C 1.4806 -4.9062 -0.8833 0
M  V30 24 O 0.1561 -4.9981 -0.5569 0
M  V30 25 O 2.1505 -5.7448 -1.4509 0
M  V30 26 H 2.2091 2.0991 1.9255 0
M  V30 27 H 3.5151 0.4898 1.1586 0
M  V30 28 H 1.7867 2.1743 -1.1819 0
M  V30 29 H -3.9669 0.8578 -0.265 0
M  V30 30 H -4.6248 0.9225 1.3779 0
M  V30 31 H -3.1403 0.0021 1.0807 0
M  V30 32 H -0.1791 2.928 -2.4483 0
M  V30 33 H 0.1764 -1.1935 1.1477 0
M  V30 34 H 4.332 -1.2885 -0.0616 0
M  V30 35 H -1.9952 4.4641 -2.6962 0
M  V30 36 H -3.6312 3.8966 -3.052 0
M  V30 37 H -2.2666 2.858 -3.4794 0
M  V30 38 H 4.0072 -3.5664 -0.9816 0
M  V30 39 H -0.6711 -4.0889 1.1128 0
M  V30 40 H -1.1289 -3.3732 -0.4759 0
M  V30 END ATOM
M  V30 BEGIN BOND
M  V30 1 2 1 2
M  V30 2 1 2 3
M  V30 3 1 2 4
M  V30 4 1 3 5
M  V30 5 2 4 6
M  V30 6 1 4 7
M  V30 7 1 5 8
M  V30 8 1 6 9
M  V30 9 1 6 10
M  V30 10 2 7 11
M  V30 11 1 8 12
M  V30 12 1 9 13
M  V30 13 1 10 14
M  V30 14 2 10 15
M  V30 15 2 12 16
M  V30 16 1 12 17
M  V30 17 1 14 18
M  V30 18 1 16 19
M  V30 19 2 17 20
M  V30 20 2 19 21
M  V30 21 1 19 22
M  V30 22 1 21 23
M  V30 23 1 22 24
M  V30 24 2 23 25
M  V30 25 1 5 7
M  V30 26 1 11 15
M  V30 27 1 20 21
M  V30 28 1 23 24
M  V30 29 1 5 26
M  V30 30 1 8 27
M  V30 31 1 11 28
M  V30 32 1 13 29
M  V30 33 1 13 30
M  V30 34 1 13 31
M  V30 35 1 15 32
M  V30 36 1 16 33
M  V30 37 1 17 34
M  V30 38 1 18 35
M  V30 39 1 18 36
M  V30 40 1 18 37
M  V30 41 1 20 38
M  V30 42 1 22 39
M  V30 43 1 22 40
M  V30 END BOND
M  V30 BEGIN COLLECTION
M  V30 MDLV30/STEABS ATOMS=(1 5)
M  V30 END COLLECTION
M  V30 END CTAB
M  END
>  <Column 1>
2758

>  <level_0>
3993

>  <index>
3993

>  <Unnamed: 0>
3993

>  <NO.>
4005

>  <Name>
trimipramine

>  <IUPAC_name>
(3r)-6-7-dimethoxy-3-[(1-oxo-3h-2-benzofuran-5-yl)amino]-3h-2-benzofuran-1-one

>  <SMILES>
COc1ccc2c(c1OC)C(=O)O[C@H]2Nc1ccc2c(c1)COC2=O

>  <CID>
100005584

>  <logBB>


>  <BBB+/BBB->
BBB+

>  <Inchi>
InChI=1S/C18H15NO6/c1-22-13-6-5-12-14(15(13)23-2)18(21)25-16(12)19-10-3-4-11-9(7-10)8-24-17(11)20/h3-7-16-19H-8H2-1-2H3/t16-/m1/s1

>  <threshold>
-1

>  <reference>
R16|R10|R10|

>  <group>
B

>  <Class>
1

>  <ABC>
19.73

>  <ABCGG>
16.02

>  <nAcid>
0

>  <nBase>
0

>  <nAromAtom>
12

>  <nAromBond>
12

>  <nAtom>
40

>  <nHeavyAtom>
25

>  <nSpiro>
0

>  <nBridgehead>
0

>  <nHetero>
7

>  <nN>
1

>  <nO>
6

>  <nF>
0

>  <BalabanJ>
1.39

>  <BertzCT>
891.38

>  <nBonds>
43

>  <nBondsO>
28

>  <nBondsS>
29

>  <nBondsD>
2

>  <nBondsT>
0

>  <nBondsA>
12

>  <nBondsM>
14

>  <nBondsKS>
35

>  <nBondsKD>
8

>  <RNCG>
0.17

>  <RPCG>
0.12

>  <FCSP3>
0.22

>  <SZ>
29.67

>  <Sm>
28.42

>  <Sv>
27.11

>  <Sse>
41.31

>  <Sp>
27.53

>  <Si>
44.66

>  <MZ>
0.74

>  <Mm>
0.71

>  <Mv>
0.68

>  <Mse>
1.03

>  <Mp>
0.69

>  <Mi>
1.12

>  <NsCH3>
2

>  <NdCH2>
0

>  <NssCH2>
1

>  <NtCH>
0

>  <NdsCH>
0

>  <NaaCH>
5

>  <NsssCH>
1

>  <NddC>
0

>  <NtsC>
0

>  <NdssC>
2

>  <NaasC>
7

>  <NaaaC>
0

>  <NssssC>
0

>  <NsNH3>
0

>  <NsNH2>
0

>  <NssNH2>
0

>  <NdNH>
0

>  <NssNH>
1

>  <NaaNH>
0

>  <NtN>
0

>  <NsssNH>
0

>  <NdsN>
0

>  <NaaN>
0

>  <NsssN>
0

>  <NddsN>
0

>  <NaasN>
0

>  <NssssN>
0

>  <NsOH>
0

>  <NdO>
2

>  <NssO>
4

>  <NaaO>
0

>  <NsF>
0

>  <NsSiH3>
0

>  <NssSiH2>
0

>  <NsssSiH>
0

>  <NssssSi>
0

>  <NsPH2>
0

>  <NssPH>
0

>  <NsssP>
0

>  <NdsssP>
0

>  <NsssssP>
0

>  <NsSH>
0

>  <NdS>
0

>  <NssS>
0

>  <NaaS>
0

>  <NdssS>
0

>  <NddssS>
0

>  <NsCl>
0

>  <NsBr>
0

>  <NsI>
0

>  <fragCpx>
184.07

>  <fMF>
0.48

>  <nHBAcc>
7

>  <nHBDon>
1

>  <Kier1>
18.37

>  <Kier2>
7.55

>  <Lipinski>
1

>  <GhoseFilter>
1

>  <FilterItLogS>
-4.56

>  <VMcGowan>
231.84

>  <LabuteASA>
142.99

>  <PEOE_VSA1>
24.26

>  <PEOE_VSA2>
0

>  <PEOE_VSA3>
9.59

>  <PEOE_VSA4>
0

>  <PEOE_VSA5>
0

>  <PEOE_VSA6>
0

>  <PEOE_VSA7>
30.33

>  <PEOE_VSA8>
16.81

>  <PEOE_VSA9>
19.78

>  <PEOE_VSA10>
12.17

>  <PEOE_VSA11>
11.5

>  <PEOE_VSA12>
6.23

>  <PEOE_VSA13>
0

>  <SMR_VSA1>
28.54

>  <SMR_VSA2>
0

>  <SMR_VSA3>
0

>  <SMR_VSA4>
0

>  <SMR_VSA5>
12.83

>  <SMR_VSA6>
19.54

>  <SMR_VSA7>
52.59

>  <SMR_VSA8>
0

>  <SMR_VSA9>
11.5

>  <SlogP_VSA1>
14.79

>  <SlogP_VSA2>
26.16

>  <SlogP_VSA3>
16.08

>  <SlogP_VSA4>
0

>  <SlogP_VSA5>
38.07

>  <SlogP_VSA6>
30.33

>  <SlogP_VSA7>
0

>  <SlogP_VSA8>
0

>  <SlogP_VSA9>
0

>  <SlogP_VSA10>
5.69

>  <SlogP_VSA11>
11.5

>  <EState_VSA1>
12.2

>  <EState_VSA2>
12.58

>  <EState_VSA3>
28.19

>  <EState_VSA4>
11.25

>  <EState_VSA5>
14.22

>  <EState_VSA6>
24.27

>  <EState_VSA7>
6.07

>  <EState_VSA8>
5.32

>  <EState_VSA9>
18.95

>  <EState_VSA10>
9.59

>  <VSA_EState1>
20.97

>  <VSA_EState2>
23.8

>  <VSA_EState3>
3.15

>  <VSA_EState4>
3.08

>  <VSA_EState5>
0.01

>  <VSA_EState6>
8.74

>  <VSA_EState7>
-0.65

>  <VSA_EState8>
0.25

>  <VSA_EState9>
2.98

>  <apol>
45.97

>  <bpol>
24.3

>  <nRing>
4

>  <nHRing>
2

>  <naRing>
2

>  <naHRing>
0

>  <nARing 2>
2

>  <nAHRing 2>
2

>  <nFRing>
2

>  <nFHRing>
2

>  <nFaRing>
0

>  <nFaHRing>
0

>  <nFARing 2>
2

>  <nFAHRing 2>
2

>  <nRot>
4

>  <SLogP>
2.66

>  <SMR>
86.89

>  <TopoPSA(NO)>
83.09

>  <TopoPSA>
83.09

>  <JGI1>
0.18

>  <JGI2>
0.08

>  <JGI3>
0.06

>  <JGI4>
0.04

>  <JGI5>
0.03

>  <Diameter>
13

>  <Radius>
7

>  <TMWC10>
130.09

>  <TSRW10>
76.44

>  <MW>
341.09

>  <AMW>
8.53

>  <WPath>
1508

>  <WPol>
43

>  <Zagreb1>
138

>  <Zagreb2>
169

>  <mZagreb2>
5.53

>  <yes>


>  <nAR-cont>
1

>  <nHA-cont>
0.921834225

>  <MWHBN>
0.43316713

>  <MWHBN-cont>
0.347760079

>  <TPSA-cont>
0.419980204

>  <pka_cont>
0.97

>  <yes.1>


>  <BBB_SCORE>
3.768434752

>  <MMFF94 Energy>
45.463

$$$$
Compound 2256
Actelion Java MolfileCreator 2.0

  0  0  0  0  0  0              0 V3000
M  V30 BEGIN CTAB
M  V30 COUNTS 41 44 0 0 0
M  V30 BEGIN ATOM
M  V30 1 O 1.4565 -2.3474 -2.2664 0
M  V30 2 C 1.6348 -2.6684 -1.0974 0
M  V30 3 O 2.8585 -3.082 -0.641 0
M  V30 4 C 0.5328 -2.6193 -0.1111 0
M  V30 5 C 3.0594 -3.4515 0.712 0
M  V30 6 C 0.7588 -2.9955 1.1518 0
M  V30 7 C -0.8337 -2.1859 -0.5547 0 CFG=2
M  V30 8 C 2.0543 -3.4143 1.5943 0
M  V30 9 C 4.456 -3.8695 1.0361 0
M  V30 10 O -0.2199 -2.9474 2.1554 0
M  V30 11 C -1.0232 -0.6753 -0.6216 0
M  V30 12 C -1.8709 -2.8446 0.3602 0
M  V30 13 C -1.5233 -2.7066 1.8207 0
M  V30 14 C -2.151 -0.222 -1.5081 0
M  V30 15 C -0.2743 0.2518 0.0073 0
M  V30 16 O -2.3713 -2.485 2.6795 0
M  V30 17 O -2.873 -1.0309 -2.0839 0
M  V30 18 N -2.3544 1.1234 -1.6356 0
M  V30 19 C -0.5394 1.6824 -0.1535 0
M  V30 20 C -1.5844 2.0913 -0.9847 0
M  V30 21 C 0.2283 2.6486 0.4999 0
M  V30 22 C -1.8649 3.4451 -1.1653 0
M  V30 23 C -0.05 4.0099 0.3215 0
M  V30 24 C -1.0968 4.4122 -0.5112 0
M  V30 25 O -1.4687 5.7034 -0.7674 0
M  V30 26 C -0.7196 6.73 -0.1285 0
M  V30 27 H -0.9962 -2.5946 -1.5618 0
M  V30 28 H 2.1921 -3.6923 2.6346 0
M  V30 29 H 4.7424 -4.7336 0.4285 0
M  V30 30 H 5.1533 -3.0522 0.8262 0
M  V30 31 H 4.5662 -4.1456 2.0899 0
M  V30 32 H -2.8686 -2.4189 0.2027 0
M  V30 33 H -1.9455 -3.9188 0.1465 0
M  V30 34 H 0.5527 -0.0165 0.655 0
M  V30 35 H -3.117 1.4008 -2.239 0
M  V30 36 H 1.0484 2.3583 1.1522 0
M  V30 37 H -2.6783 3.7622 -1.8119 0
M  V30 38 H 0.5699 4.7289 0.8473 0
M  V30 39 H -0.8064 6.6619 0.9609 0
M  V30 40 H -1.1406 7.692 -0.4364 0
M  V30 41 H 0.3285 6.7085 -0.4446 0
M  V30 END ATOM
M  V30 BEGIN BOND
M  V30 1 2 1 2
M  V30 2 1 2 3
M  V30 3 1 2 4
M  V30 4 1 3 5
M  V30 5 2 4 6
M  V30 6 1 4 7
M  V30 7 2 5 8
M  V30 8 1 5 9
M  V30 9 1 6 10
M  V30 10 1 7 11
M  V30 11 1 7 12
M  V30 12 1 10 13
M  V30 13 1 11 14
M  V30 14 2 11 15
M  V30 15 2 13 16
M  V30 16 2 14 17
M  V30 17 1 14 18
M  V30 18 1 15 19
M  V30 19 1 18 20
M  V30 20 1 19 21
M  V30 21 1 20 22
M  V30 22 2 21 23
M  V30 23 2 22 24
M  V30 24 1 24 25
M  V30 25 1 25 26
M  V30 26 1 6 8
M  V30 27 1 12 13
M  V30 28 2 19 20
M  V30 29 1 23 24
M  V30 30 1 7 27
M  V30 31 1 8 28
M  V30 32 1 9 29
M  V30 33 1 9 30
M  V30 34 1 9 31
M  V30 35 1 12 32
M  V30 36 1 12 33
M  V30 37 1 15 34
M  V30 38 1 18 35
M  V30 39 1 21 36
M  V30 40 1 22 37
M  V30 41 1 23 38
M  V30 42 1 26 39
M  V30 43 1 26 40
M  V30 44 1 26 41
M  V30 END BOND
M  V30 BEGIN COLLECTION
M  V30 MDLV30/STEABS ATOMS=(1 7)
M  V30 END COLLECTION
M  V30 END CTAB
M  END
>  <Column 1>
2759

>  <level_0>
3994

>  <index>
3994

>  <Unnamed: 0>
3994

>  <NO.>
4006

>  <Name>
oxycodone

>  <IUPAC_name>
(4s)-4-(7-methoxy-2-oxo-1h-quinolin-3-yl)-7-methyl-3-4-dihydropyrano[3-2-c]pyran-2-5-dione

>  <SMILES>
COc1ccc2cc([C@@H]3CC(=O)Oc4cc(C)oc(=O)c43)c(=O)[nH]c2c1

>  <CID>
100004635

>  <logBB>


>  <BBB+/BBB->
BBB+

>  <Inchi>
InChI=1S/C19H15NO6/c1-9-5-15-17(19(23)25-9)12(8-16(21)26-15)13-6-10-3-4-11(24-2)7-14(10)20-18(13)22/h3-7-12H-8H2-1-2H3-(H-20-22)/t12-/m0/s1

>  <threshold>
-1

>  <reference>
R16|R10|R10|

>  <group>
B

>  <Class>
-1

>  <ABC>
20.7

>  <ABCGG>
15.82

>  <nAcid>
0

>  <nBase>
0

>  <nAromAtom>
16

>  <nAromBond>
17

>  <nAtom>
41

>  <nHeavyAtom>
26

>  <nSpiro>
0

>  <nBridgehead>
0

>  <nHetero>
7

>  <nN>
1

>  <nO>
6

>  <nF>
0

>  <BalabanJ>
1.5

>  <BertzCT>
1156.88

>  <nBonds>
44

>  <nBondsO>
29

>  <nBondsS>
24

>  <nBondsD>
3

>  <nBondsT>
0

>  <nBondsA>
17

>  <nBondsM>
20

>  <nBondsKS>
35

>  <nBondsKD>
9

>  <RNCG>
0.19

>  <RPCG>
0.13

>  <FCSP3>
0.21

>  <SZ>
30.67

>  <Sm>
29.42

>  <Sv>
28.11

>  <Sse>
42.31

>  <Sp>
28.53

>  <Si>
45.66

>  <MZ>
0.75

>  <Mm>
0.72

>  <Mv>
0.69

>  <Mse>
1.03

>  <Mp>
0.7

>  <Mi>
1.11

>  <NsCH3>
2

>  <NdCH2>
0

>  <NssCH2>
1

>  <NtCH>
0

>  <NdsCH>
0

>  <NaaCH>
5

>  <NsssCH>
1

>  <NddC>
0

>  <NtsC>
0

>  <NdssC>
1

>  <NaasC>
5

>  <NaaaC>
2

>  <NssssC>
0

>  <NsNH3>
0

>  <NsNH2>
0

>  <NssNH2>
0

>  <NdNH>
0

>  <NssNH>
0

>  <NaaNH>
1

>  <NtN>
0

>  <NsssNH>
0

>  <NdsN>
0

>  <NaaN>
0

>  <NsssN>
0

>  <NddsN>
0

>  <NaasN>
0

>  <NssssN>
0

>  <NsOH>
0

>  <NdO>
3

>  <NssO>
2

>  <NaaO>
1

>  <NsF>
0

>  <NsSiH3>
0

>  <NssSiH2>
0

>  <NsssSiH>
0

>  <NssssSi>
0

>  <NsPH2>
0

>  <NssPH>
0

>  <NsssP>
0

>  <NdsssP>
0

>  <NsssssP>
0

>  <NsSH>
0

>  <NdS>
0

>  <NssS>
0

>  <NaaS>
0

>  <NdssS>
0

>  <NddssS>
0

>  <NsCl>
0

>  <NsBr>
0

>  <NsI>
0

>  <fragCpx>
191.07

>  <fMF>
0.49

>  <nHBAcc>
6

>  <nHBDon>
1

>  <Kier1>
19.32

>  <Kier2>
7.79

>  <Lipinski>
1

>  <GhoseFilter>
1

>  <FilterItLogS>
-5.61

>  <VMcGowan>
241.63

>  <LabuteASA>
146.73

>  <PEOE_VSA1>
18.87

>  <PEOE_VSA2>
9.59

>  <PEOE_VSA3>
4.79

>  <PEOE_VSA4>
0

>  <PEOE_VSA5>
0

>  <PEOE_VSA6>
0

>  <PEOE_VSA7>
30.51

>  <PEOE_VSA8>
23.61

>  <PEOE_VSA9>
24.61

>  <PEOE_VSA10>
17.26

>  <PEOE_VSA11>
0

>  <PEOE_VSA12>
0

>  <PEOE_VSA13>
5.56

>  <SMR_VSA1>
18.69

>  <SMR_VSA2>
0

>  <SMR_VSA3>
4.98

>  <SMR_VSA4>
0

>  <SMR_VSA5>
19.26

>  <SMR_VSA6>
7.11

>  <SMR_VSA7>
67.99

>  <SMR_VSA8>
0

>  <SMR_VSA9>
11.5

>  <SlogP_VSA1>
20.66

>  <SlogP_VSA2>
18.06

>  <SlogP_VSA3>
4.79

>  <SlogP_VSA4>
6.92

>  <SlogP_VSA5>
29.23

>  <SlogP_VSA6>
44.34

>  <SlogP_VSA7>
0

>  <SlogP_VSA8>
10.9

>  <SlogP_VSA9>
0

>  <SlogP_VSA10>
0

>  <SlogP_VSA11>
11.5

>  <EState_VSA1>
17.51

>  <EState_VSA2>
23.29

>  <EState_VSA3>
22.59

>  <EState_VSA4>
5.39

>  <EState_VSA5>
6.07

>  <EState_VSA6>
38.3

>  <EState_VSA7>
0

>  <EState_VSA8>
4.98

>  <EState_VSA9>
13.89

>  <EState_VSA10>
14.38

>  <VSA_EState1>
15.48

>  <VSA_EState2>
39.79

>  <VSA_EState3>
0.76

>  <VSA_EState4>
0.13

>  <VSA_EState5>
-0.13

>  <VSA_EState6>
8.45

>  <VSA_EState7>
-0.11

>  <VSA_EState8>
1.59

>  <VSA_EState9>
1.54

>  <apol>
47.64

>  <bpol>
23.43

>  <nRing>
4

>  <nHRing>
3

>  <naRing>
3

>  <naHRing>
2

>  <nARing 2>
1

>  <nAHRing 2>
1

>  <nFRing>
2

>  <nFHRing>
2

>  <nFaRing>
1

>  <nFaHRing>
1

>  <nFARing 2>
1

>  <nFAHRing 2>
1

>  <nRot>
2

>  <SLogP>
2.24

>  <SMR>
92.93

>  <TopoPSA(NO)>
98.6

>  <TopoPSA>
98.6

>  <JGI1>
0.22

>  <JGI2>
0.07

>  <JGI3>
0.05

>  <JGI4>
0.05

>  <JGI5>
0.03

>  <Diameter>
13

>  <Radius>
7

>  <TMWC10>
132.38

>  <TSRW10>
61.62

>  <MW>
353.09

>  <AMW>
8.61

>  <WPath>
1569

>  <WPol>
47

>  <Zagreb1>
144

>  <Zagreb2>
174

>  <mZagreb2>
5.58

>  <yes>


>  <nAR-cont>
0.816016

>  <nHA-cont>
0.892715677

>  <MWHBN>
0.372524921

>  <MWHBN-cont>
0.584041734

>  <TPSA-cont>
0.311710773

>  <pka_cont>
0.97

>  <yes.1>


>  <BBB_SCORE>
3.693215825

>  <MMFF94 Energy>
-0.83745

$$$$
Compound 2257
Actelion Java MolfileCreator 2.0

  0  0  0  0  0  0              0 V3000
M  V30 BEGIN CTAB
M  V30 COUNTS 52 55 0 0 0
M  V30 BEGIN ATOM
M  V30 1 O -3.0533 -0.8028 -0.321 0
M  V30 2 C -2.9119 -1.7002 0.5006 0
M  V30 3 O -3.9638 -2.4862 0.8939 0
M  V30 4 C -1.5946 -1.9952 1.1063 0
M  V30 5 C -3.7929 -3.5523 1.8113 0
M  V30 6 C -1.4693 -3.0285 1.9458 0
M  V30 7 C -0.4042 -1.1687 0.7247 0 CFG=1
M  V30 8 C -2.5911 -3.8314 2.3282 0
M  V30 9 C -5.0454 -4.3021 2.1256 0
M  V30 10 O -0.262 -3.3645 2.5773 0
M  V30 11 C -0.2701 0.1579 1.476 0
M  V30 12 C 0.8607 -2.0148 0.88 0
M  V30 13 C 0.9019 -2.7636 2.1867 0
M  V30 14 C 0.363 1.2603 0.8539 0
M  V30 15 C -0.7116 0.3061 2.8017 0
M  V30 16 O 1.9426 -2.9183 2.8189 0
M  V30 17 O 0.7953 1.0479 -0.4347 0
M  V30 18 C 0.4684 2.5027 1.5119 0
M  V30 19 C -0.5656 1.5203 3.4704 0
M  V30 20 C 2.1337 1.4851 -0.7085 0
M  V30 21 O 1.0237 3.5433 0.8147 0
M  V30 22 C 0.0145 2.6133 2.8287 0
M  V30 23 C 2.763 0.5422 -1.7403 0
M  V30 24 C 0.777 4.8569 1.2998 0
M  V30 25 C 2.2948 0.8016 -3.1545 0
M  V30 26 C 0.9961 0.4573 -3.5537 0
M  V30 27 C 3.1546 1.3948 -4.0894 0
M  V30 28 C 0.5667 0.701 -4.8593 0
M  V30 29 C 2.7241 1.6361 -5.3954 0
M  V30 30 C 1.4308 1.2892 -5.7801 0
M  V30 31 H -0.5028 -0.9464 -0.3461 0
M  V30 32 H -2.4432 -4.6435 3.033 0
M  V30 33 H -5.4656 -4.7355 1.2126 0
M  V30 34 H -5.7892 -3.6287 2.5631 0
M  V30 35 H -4.8674 -5.1162 2.8356 0
M  V30 36 H 1.7624 -1.3957 0.8092 0
M  V30 37 H 0.92 -2.7654 0.0813 0
M  V30 38 H -1.175 -0.5145 3.3432 0
M  V30 39 H -0.9119 1.6181 4.4969 0
M  V30 40 H 2.7447 1.4464 0.2025 0
M  V30 41 H 2.1162 2.5093 -1.0964 0
M  V30 42 H 0.1036 3.5393 3.3871 0
M  V30 43 H 3.8534 0.6557 -1.7005 0
M  V30 44 H 2.5453 -0.5031 -1.4895 0
M  V30 45 H -0.2922 5.0337 1.4583 0
M  V30 46 H 1.1215 5.5635 0.5386 0
M  V30 47 H 1.3497 5.0484 2.2128 0
M  V30 48 H 0.3041 0.0047 -2.8466 0
M  V30 49 H 4.1669 1.6752 -3.8079 0
M  V30 50 H -0.4451 0.4354 -5.1538 0
M  V30 51 H 3.3981 2.0971 -6.1124 0
M  V30 52 H 1.0946 1.4801 -6.7955 0
M  V30 END ATOM
M  V30 BEGIN BOND
M  V30 1 2 1 2
M  V30 2 1 2 3
M  V30 3 1 2 4
M  V30 4 1 3 5
M  V30 5 2 4 6
M  V30 6 1 4 7
M  V30 7 2 5 8
M  V30 8 1 5 9
M  V30 9 1 6 10
M  V30 10 1 7 11
M  V30 11 1 7 12
M  V30 12 1 10 13
M  V30 13 2 11 14
M  V30 14 1 11 15
M  V30 15 2 13 16
M  V30 16 1 14 17
M  V30 17 1 14 18
M  V30 18 2 15 19
M  V30 19 1 17 20
M  V30 20 1 18 21
M  V30 21 2 18 22
M  V30 22 1 20 23
M  V30 23 1 21 24
M  V30 24 1 23 25
M  V30 25 2 25 26
M  V30 26 1 25 27
M  V30 27 1 26 28
M  V30 28 2 27 29
M  V30 29 2 28 30
M  V30 30 1 6 8
M  V30 31 1 12 13
M  V30 32 1 19 22
M  V30 33 1 29 30
M  V30 34 1 7 31
M  V30 35 1 8 32
M  V30 36 1 9 33
M  V30 37 1 9 34
M  V30 38 1 9 35
M  V30 39 1 12 36
M  V30 40 1 12 37
M  V30 41 1 15 38
M  V30 42 1 19 39
M  V30 43 1 20 40
M  V30 44 1 20 41
M  V30 45 1 22 42
M  V30 46 1 23 43
M  V30 47 1 23 44
M  V30 48 1 24 45
M  V30 49 1 24 46
M  V30 50 1 24 47
M  V30 51 1 26 48
M  V30 52 1 27 49
M  V30 53 1 28 50
M  V30 54 1 29 51
M  V30 55 1 30 52
M  V30 END BOND
M  V30 BEGIN COLLECTION
M  V30 MDLV30/STEABS ATOMS=(1 7)
M  V30 END COLLECTION
M  V30 END CTAB
M  END
>  <Column 1>
2760

>  <level_0>
3995

>  <index>
3995

>  <Unnamed: 0>
3995

>  <NO.>
4007

>  <Name>
mesna

>  <IUPAC_name>
(4r)-4-[3-methoxy-2-(2-phenylethoxy)phenyl]-7-methyl-3-4-dihydropyrano[3-2-c]pyran-2-5-dione

>  <SMILES>
COc1cccc([C@H]2CC(=O)Oc3cc(C)oc(=O)c32)c1OCCc1ccccc1

>  <CID>
100000598

>  <logBB>


>  <BBB+/BBB->
BBB-

>  <Inchi>
InChI=1S/C24H22O6/c1-15-13-20-22(24(26)29-15)18(14-21(25)30-20)17-9-6-10-19(27-2)23(17)28-12-11-16-7-4-3-5-8-16/h3-10-13-18H-11-12-14H2-1-2H3/t18-/m1/s1

>  <threshold>
-1

>  <reference>
R16|R10|

>  <group>
B

>  <Class>
1

>  <ABC>
23.42

>  <ABCGG>
18.04

>  <nAcid>
0

>  <nBase>
0

>  <nAromAtom>
18

>  <nAromBond>
18

>  <nAtom>
52

>  <nHeavyAtom>
30

>  <nSpiro>
0

>  <nBridgehead>
0

>  <nHetero>
6

>  <nN>
0

>  <nO>
6

>  <nF>
0

>  <BalabanJ>
1.45

>  <BertzCT>
1116.29

>  <nBonds>
55

>  <nBondsO>
33

>  <nBondsS>
35

>  <nBondsD>
2

>  <nBondsT>
0

>  <nBondsA>
18

>  <nBondsM>
20

>  <nBondsKS>
45

>  <nBondsKD>
10

>  <RNCG>
0.18

>  <RPCG>
0.12

>  <FCSP3>
0.25

>  <SZ>
35.67

>  <Sm>
33.84

>  <Sv>
34.25

>  <Sse>
52.75

>  <Sp>
35.67

>  <Si>
57.82

>  <MZ>
0.69

>  <Mm>
0.65

>  <Mv>
0.66

>  <Mse>
1.01

>  <Mp>
0.69

>  <Mi>
1.11

>  <NsCH3>
2

>  <NdCH2>
0

>  <NssCH2>
3

>  <NtCH>
0

>  <NdsCH>
0

>  <NaaCH>
9

>  <NsssCH>
1

>  <NddC>
0

>  <NtsC>
0

>  <NdssC>
1

>  <NaasC>
7

>  <NaaaC>
0

>  <NssssC>
0

>  <NsNH3>
0

>  <NsNH2>
0

>  <NssNH2>
0

>  <NdNH>
0

>  <NssNH>
0

>  <NaaNH>
0

>  <NtN>
0

>  <NsssNH>
0

>  <NdsN>
0

>  <NaaN>
0

>  <NsssN>
0

>  <NddsN>
0

>  <NaasN>
0

>  <NssssN>
0

>  <NsOH>
0

>  <NdO>
2

>  <NssO>
3

>  <NaaO>
1

>  <NsF>
0

>  <NsSiH3>
0

>  <NssSiH2>
0

>  <NsssSiH>
0

>  <NssssSi>
0

>  <NsPH2>
0

>  <NssPH>
0

>  <NsssP>
0

>  <NdsssP>
0

>  <NsssssP>
0

>  <NsSH>
0

>  <NdS>
0

>  <NssS>
0

>  <NaaS>
0

>  <NdssS>
0

>  <NddssS>
0

>  <NsCl>
0

>  <NsBr>
0

>  <NsI>
0

>  <fragCpx>
219.06

>  <fMF>
0.48

>  <nHBAcc>
6

>  <nHBDon>
0

>  <Kier1>
23.17

>  <Kier2>
10.74

>  <Lipinski>
1

>  <GhoseFilter>
1

>  <FilterItLogS>
-6.82

>  <VMcGowan>
297.8

>  <LabuteASA>
173.56

>  <PEOE_VSA1>
18.63

>  <PEOE_VSA2>
4.79

>  <PEOE_VSA3>
4.79

>  <PEOE_VSA4>
0

>  <PEOE_VSA5>
0

>  <PEOE_VSA6>
42.46

>  <PEOE_VSA7>
18.55

>  <PEOE_VSA8>
23.97

>  <PEOE_VSA9>
25.7

>  <PEOE_VSA10>
11.51

>  <PEOE_VSA11>
11.5

>  <PEOE_VSA12>
0

>  <PEOE_VSA13>
0

>  <SMR_VSA1>
23.42

>  <SMR_VSA2>
0

>  <SMR_VSA3>
0

>  <SMR_VSA4>
0

>  <SMR_VSA5>
25.68

>  <SMR_VSA6>
13.72

>  <SMR_VSA7>
87.47

>  <SMR_VSA8>
0

>  <SMR_VSA9>
17.25

>  <SlogP_VSA1>
19.84

>  <SlogP_VSA2>
19.69

>  <SlogP_VSA3>
11.22

>  <SlogP_VSA4>
6.92

>  <SlogP_VSA5>
34.79

>  <SlogP_VSA6>
63.81

>  <SlogP_VSA7>
0

>  <SlogP_VSA8>
0

>  <SlogP_VSA9>
0

>  <SlogP_VSA10>
0

>  <SlogP_VSA11>
17.25

>  <EState_VSA1>
17.51

>  <EState_VSA2>
12.17

>  <EState_VSA3>
41.41

>  <EState_VSA4>
5.56

>  <EState_VSA5>
0

>  <EState_VSA6>
26.17

>  <EState_VSA7>
42.46

>  <EState_VSA8>
0

>  <EState_VSA9>
18.63

>  <EState_VSA10>
9.59

>  <VSA_EState1>
22.21

>  <VSA_EState2>
24.88

>  <VSA_EState3>
0

>  <VSA_EState4>
1.65

>  <VSA_EState5>
0.73

>  <VSA_EState6>
17.01

>  <VSA_EState7>
0.73

>  <VSA_EState8>
2.06

>  <VSA_EState9>
1.56

>  <apol>
59.56

>  <bpol>
30.75

>  <nRing>
4

>  <nHRing>
2

>  <naRing>
3

>  <naHRing>
1

>  <nARing 2>
1

>  <nAHRing 2>
1

>  <nFRing>
1

>  <nFHRing>
1

>  <nFaRing>
0

>  <nFaHRing>
0

>  <nFARing 2>
1

>  <nFAHRing 2>
1

>  <nRot>
6

>  <SLogP>
4.02

>  <SMR>
110.45

>  <TopoPSA(NO)>
74.97

>  <TopoPSA>
74.97

>  <JGI1>
0.17

>  <JGI2>
0.06

>  <JGI3>
0.05

>  <JGI4>
0.04

>  <JGI5>
0.03

>  <Diameter>
14

>  <Radius>
7

>  <TMWC10>
140.5

>  <TSRW10>
65.86

>  <MW>
406.14

>  <AMW>
7.81

>  <WPath>
2419

>  <WPol>
50

>  <Zagreb1>
158

>  <Zagreb2>
187

>  <mZagreb2>
6.67

>  <yes>


>  <nAR-cont>
0.816016

>  <nHA-cont>
0.74523694

>  <MWHBN>
0.297723673

>  <MWHBN-cont>
0.847486088

>  <TPSA-cont>
0.476662846

>  <pka_cont>
0.97

>  <yes.1>


>  <BBB_SCORE>
4.270807764

>  <MMFF94 Energy>
70.946

$$$$
Compound 2258
Actelion Java MolfileCreator 2.0

  0  0  0  0  0  0              0 V3000
M  V30 BEGIN CTAB
M  V30 COUNTS 46 47 0 0 0
M  V30 BEGIN ATOM
M  V30 1 S 2.7899 3.3486 3.7478 0
M  V30 2 C 3.8608 2.037 3.1851 0
M  V30 3 C 1.4791 3.3006 2.4703 0
M  V30 4 C 4.406 2.0311 1.8975 0
M  V30 5 C 4.1856 1.003 4.0694 0
M  V30 6 C 0.6333 2.0392 2.5827 0
M  V30 7 C 5.2433 0.9896 1.4906 0
M  V30 8 C 5.0232 -0.038 3.6627 0
M  V30 9 C -0.4698 2.0326 1.5464 0
M  V30 10 C 5.5486 -0.046 2.372 0
M  V30 11 O -0.6348 2.9273 0.7249 0
M  V30 12 N -1.2675 0.9105 1.6205 0
M  V30 13 C -2.3732 0.6932 0.71 0
M  V30 14 C -1.9133 5.0E-4 -0.5685 0
M  V30 15 C -3.0846 -0.209 -1.5282 0
M  V30 16 C -2.6573 -0.9402 -2.7812 0
M  V30 17 C -2.5984 -2.3463 -2.8298 0
M  V30 18 C -2.2837 -0.1936 -3.9112 0
M  V30 19 O -2.9598 -3.0003 -1.6801 0
M  V30 20 C -2.1833 -2.9762 -4.008 0
M  V30 21 C -1.8713 -0.8318 -5.0789 0
M  V30 22 C -2.9305 -4.4214 -1.701 0
M  V30 23 C -1.8231 -2.2212 -5.1275 0
M  V30 24 H 1.9184 3.4012 1.4727 0
M  V30 25 H 0.8495 4.1843 2.6253 0
M  V30 26 H 4.1976 2.8399 1.202 0
M  V30 27 H 3.7887 0.9996 5.082 0
M  V30 28 H 0.1685 1.9722 3.574 0
M  V30 29 H 1.2401 1.1399 2.426 0
M  V30 30 H 5.6627 0.9918 0.4877 0
M  V30 31 H 5.2687 -0.8387 4.3555 0
M  V30 32 H 6.2034 -0.854 2.0558 0
M  V30 33 H -1.0616 0.1975 2.3086 0
M  V30 34 H -2.8416 1.6566 0.4793 0
M  V30 35 H -3.1071 0.0755 1.2386 0
M  V30 36 H -1.449 -0.961 -0.3144 0
M  V30 37 H -1.1322 0.5969 -1.0574 0
M  V30 38 H -3.8949 -0.7598 -1.0345 0
M  V30 39 H -3.5185 0.7614 -1.8026 0
M  V30 40 H -2.3111 0.8938 -3.8827 0
M  V30 41 H -2.1253 -4.0562 -4.0898 0
M  V30 42 H -1.5863 -0.2445 -5.9478 0
M  V30 43 H -3.6288 -4.8206 -2.4439 0
M  V30 44 H -3.2539 -4.7761 -0.7175 0
M  V30 45 H -1.9144 -4.7928 -1.8699 0
M  V30 46 H -1.501 -2.7207 -6.0375 0
M  V30 END ATOM
M  V30 BEGIN BOND
M  V30 1 1 1 2
M  V30 2 1 1 3
M  V30 3 2 2 4
M  V30 4 1 2 5
M  V30 5 1 3 6
M  V30 6 1 4 7
M  V30 7 2 5 8
M  V30 8 1 6 9
M  V30 9 2 7 10
M  V30 10 2 9 11
M  V30 11 1 9 12
M  V30 12 1 12 13
M  V30 13 1 13 14
M  V30 14 1 14 15
M  V30 15 1 15 16
M  V30 16 2 16 17
M  V30 17 1 16 18
M  V30 18 1 17 19
M  V30 19 1 17 20
M  V30 20 2 18 21
M  V30 21 1 19 22
M  V30 22 2 20 23
M  V30 23 1 8 10
M  V30 24 1 21 23
M  V30 25 1 3 24
M  V30 26 1 3 25
M  V30 27 1 4 26
M  V30 28 1 5 27
M  V30 29 1 6 28
M  V30 30 1 6 29
M  V30 31 1 7 30
M  V30 32 1 8 31
M  V30 33 1 10 32
M  V30 34 1 12 33
M  V30 35 1 13 34
M  V30 36 1 13 35
M  V30 37 1 14 36
M  V30 38 1 14 37
M  V30 39 1 15 38
M  V30 40 1 15 39
M  V30 41 1 18 40
M  V30 42 1 20 41
M  V30 43 1 21 42
M  V30 44 1 22 43
M  V30 45 1 22 44
M  V30 46 1 22 45
M  V30 47 1 23 46
M  V30 END BOND
M  V30 END CTAB
M  END
>  <Column 1>
2761

>  <level_0>
3996

>  <index>
3996

>  <Unnamed: 0>
3996

>  <NO.>
4008

>  <Name>
estazolam

>  <IUPAC_name>
n-[3-(2-methoxyphenyl)propyl]-3-phenylsulfanylpropanamide

>  <SMILES>
COc1ccccc1CCCNC(=O)CCSc1ccccc1

>  <CID>
100003261

>  <logBB>


>  <BBB+/BBB->
BBB+

>  <Inchi>
InChI=1S/C19H23NO2S/c1-22-18-12-6-5-8-16(18)9-7-14-20-19(21)13-15-23-17-10-3-2-4-11-17/h2-6-8-10-12H-7-9-13-15H2-1H3-(H-20-21)

>  <threshold>
-1

>  <reference>
R16|R10|R10|

>  <group>
B

>  <Class>
1

>  <ABC>
17.04

>  <ABCGG>
13.28

>  <nAcid>
0

>  <nBase>
0

>  <nAromAtom>
12

>  <nAromBond>
12

>  <nAtom>
46

>  <nHeavyAtom>
23

>  <nSpiro>
0

>  <nBridgehead>
0

>  <nHetero>
4

>  <nN>
1

>  <nO>
2

>  <nF>
0

>  <BalabanJ>
1.46

>  <BertzCT>
601.33

>  <nBonds>
47

>  <nBondsO>
24

>  <nBondsS>
34

>  <nBondsD>
1

>  <nBondsT>
0

>  <nBondsA>
12

>  <nBondsM>
13

>  <nBondsKS>
40

>  <nBondsKD>
7

>  <RNCG>
0.28

>  <RPCG>
0.12

>  <FCSP3>
0.32

>  <SZ>
29.33

>  <Sm>
27.43

>  <Sv>
28.61

>  <Sse>
45.61

>  <Sp>
31.54

>  <Si>
51.41

>  <MZ>
0.64

>  <Mm>
0.6

>  <Mv>
0.62

>  <Mse>
0.99

>  <Mp>
0.69

>  <Mi>
1.12

>  <NsCH3>
1

>  <NdCH2>
0

>  <NssCH2>
5

>  <NtCH>
0

>  <NdsCH>
0

>  <NaaCH>
9

>  <NsssCH>
0

>  <NddC>
0

>  <NtsC>
0

>  <NdssC>
1

>  <NaasC>
3

>  <NaaaC>
0

>  <NssssC>
0

>  <NsNH3>
0

>  <NsNH2>
0

>  <NssNH2>
0

>  <NdNH>
0

>  <NssNH>
1

>  <NaaNH>
0

>  <NtN>
0

>  <NsssNH>
0

>  <NdsN>
0

>  <NaaN>
0

>  <NsssN>
0

>  <NddsN>
0

>  <NaasN>
0

>  <NssssN>
0

>  <NsOH>
0

>  <NdO>
1

>  <NssO>
1

>  <NaaO>
0

>  <NsF>
0

>  <NsSiH3>
0

>  <NssSiH2>
0

>  <NsssSiH>
0

>  <NssssSi>
0

>  <NsPH2>
0

>  <NssPH>
0

>  <NsssP>
0

>  <NdsssP>
0

>  <NsssssP>
0

>  <NsSH>
0

>  <NdS>
0

>  <NssS>
1

>  <NaaS>
0

>  <NdssS>
0

>  <NddssS>
0

>  <NsCl>
0

>  <NsBr>
0

>  <NsI>
0

>  <fragCpx>
70.04

>  <fMF>
0.43

>  <nHBAcc>
3

>  <nHBDon>
1

>  <Kier1>
19.33

>  <Kier2>
11.54

>  <Lipinski>
1

>  <GhoseFilter>
1

>  <FilterItLogS>
-5.79

>  <VMcGowan>
264.82

>  <LabuteASA>
141.99

>  <PEOE_VSA1>
10.05

>  <PEOE_VSA2>
4.79

>  <PEOE_VSA3>
0

>  <PEOE_VSA4>
0

>  <PEOE_VSA5>
11.76

>  <PEOE_VSA6>
36.4

>  <PEOE_VSA7>
36.6

>  <PEOE_VSA8>
23.61

>  <PEOE_VSA9>
7.11

>  <PEOE_VSA10>
5.75

>  <PEOE_VSA11>
0

>  <PEOE_VSA12>
5.91

>  <PEOE_VSA13>
0

>  <SMR_VSA1>
9.53

>  <SMR_VSA2>
0

>  <SMR_VSA3>
5.32

>  <SMR_VSA4>
0

>  <SMR_VSA5>
24.16

>  <SMR_VSA6>
19.41

>  <SMR_VSA7>
60.16

>  <SMR_VSA8>
0

>  <SMR_VSA9>
5.75

>  <SlogP_VSA1>
10.05

>  <SlogP_VSA2>
25.31

>  <SlogP_VSA3>
11.22

>  <SlogP_VSA4>
0

>  <SlogP_VSA5>
18.41

>  <SlogP_VSA6>
59.49

>  <SlogP_VSA7>
0

>  <SlogP_VSA8>
0

>  <SlogP_VSA9>
0

>  <SlogP_VSA10>
0

>  <SlogP_VSA11>
5.75

>  <EState_VSA1>
0

>  <EState_VSA2>
5.91

>  <EState_VSA3>
12.97

>  <EState_VSA4>
24.34

>  <EState_VSA5>
10.46

>  <EState_VSA6>
18.87

>  <EState_VSA7>
36.4

>  <EState_VSA8>
23.52

>  <EState_VSA9>
4.74

>  <EState_VSA10>
4.79

>  <VSA_EState1>
5.33

>  <VSA_EState2>
13.02

>  <VSA_EState3>
2.98

>  <VSA_EState4>
1.18

>  <VSA_EState5>
1.84

>  <VSA_EState6>
18.17

>  <VSA_EState7>
2.37

>  <VSA_EState8>
0.7

>  <VSA_EState9>
1.69

>  <apol>
52.67

>  <bpol>
28.71

>  <nRing>
2

>  <nHRing>
0

>  <naRing>
2

>  <naHRing>
0

>  <nARing 2>
0

>  <nAHRing 2>
0

>  <nFRing>
0

>  <nFHRing>
0

>  <nFaRing>
0

>  <nFaHRing>
0

>  <nFARing 2>
0

>  <nFAHRing 2>
0

>  <nRot>
9

>  <SLogP>
3.93

>  <SMR>
96.11

>  <TopoPSA(NO)>
38.33

>  <TopoPSA>
63.63

>  <JGI1>
0.13

>  <JGI2>
0.06

>  <JGI3>
0.03

>  <JGI4>
0.02

>  <JGI5>
0.02

>  <Diameter>
15

>  <Radius>
8

>  <TMWC10>
117.58

>  <TSRW10>
56.05

>  <MW>
329.14

>  <AMW>
7.16

>  <WPath>
1576

>  <WPol>
28

>  <Zagreb1>
106

>  <Zagreb2>
116

>  <mZagreb2>
5.44

>  <yes>


>  <nAR-cont>
0.336376

>  <nHA-cont>
0.967789328

>  <MWHBN>
0.220480233

>  <MWHBN-cont>
0.994653632

>  <TPSA-cont>
0.555823088

>  <pka_cont>
0.97

>  <yes.1>


>  <BBB_SCORE>
4.392791953

>  <MMFF94 Energy>
10.886

$$$$
Compound 2259
Actelion Java MolfileCreator 2.0

  0  0  0  0  0  0              0 V3000
M  V30 BEGIN CTAB
M  V30 COUNTS 46 47 0 0 0
M  V30 BEGIN ATOM
M  V30 1 Cl 1.6111 7.6705 5.8902 0
M  V30 2 C 1.5035 6.2478 4.9283 0
M  V30 3 C 1.3113 5.0116 5.5413 0
M  V30 4 C 1.6121 6.339 3.5429 0
M  V30 5 C 1.2233 3.8559 4.7616 0
M  V30 6 C 1.524 5.1838 2.7628 0
M  V30 7 C 1.3205 3.9317 3.3638 0
M  V30 8 C 1.2369 2.6848 2.518 0
M  V30 9 S 2.8861 1.9678 2.237 0
M  V30 10 C 2.411 0.3983 1.4488 0
M  V30 11 C 1.4554 0.6044 0.2845 0
M  V30 12 O 1.7443 1.2605 -0.7115 0
M  V30 13 N 0.2212 0.0067 0.4554 0
M  V30 14 C -0.8254 0.1146 -0.5425 0
M  V30 15 C -0.6575 -0.8768 -1.6915 0
M  V30 16 C -0.7584 -2.3303 -1.2221 0
M  V30 17 C -0.7251 -3.2971 -2.3847 0
M  V30 18 C -1.8979 -3.6571 -3.076 0
M  V30 19 C 0.5104 -3.8196 -2.8015 0
M  V30 20 O -3.0593 -3.0882 -2.6204 0
M  V30 21 C -1.815 -4.5447 -4.1541 0
M  V30 22 C 0.581 -4.7008 -3.8781 0
M  V30 23 C -4.2553 -3.3919 -3.3264 0
M  V30 24 C -0.5805 -5.0645 -4.5515 0
M  V30 25 H 1.2353 4.9399 6.6228 0
M  V30 26 H 1.7711 7.3013 3.0642 0
M  V30 27 H 1.086 2.8948 5.2522 0
M  V30 28 H 1.6238 5.2631 1.6817 0
M  V30 29 H 0.5976 1.9472 3.016 0
M  V30 30 H 0.7678 2.9313 1.5595 0
M  V30 31 H 1.9756 -0.2576 2.2086 0
M  V30 32 H 3.3105 -0.0934 1.0657 0
M  V30 33 H 0.0314 -0.538 1.2867 0
M  V30 34 H -0.8259 1.1368 -0.9373 0
M  V30 35 H -1.7803 -0.0462 -0.0308 0
M  V30 36 H 0.306 -0.7158 -2.1908 0
M  V30 37 H -1.4349 -0.6725 -2.4383 0
M  V30 38 H 0.0665 -2.5645 -0.5372 0
M  V30 39 H -1.6732 -2.4838 -0.6364 0
M  V30 40 H 1.4266 -3.5359 -2.2885 0
M  V30 41 H -2.6934 -4.8528 -4.7108 0
M  V30 42 H 1.5418 -5.0997 -4.1926 0
M  V30 43 H -4.1957 -3.0591 -4.3679 0
M  V30 44 H -5.0729 -2.843 -2.8491 0
M  V30 45 H -4.4907 -4.4593 -3.2626 0
M  V30 46 H -0.5271 -5.7514 -5.3922 0
M  V30 END ATOM
M  V30 BEGIN BOND
M  V30 1 1 1 2
M  V30 2 2 2 3
M  V30 3 1 2 4
M  V30 4 1 3 5
M  V30 5 2 4 6
M  V30 6 2 5 7
M  V30 7 1 7 8
M  V30 8 1 8 9
M  V30 9 1 9 10
M  V30 10 1 10 11
M  V30 11 2 11 12
M  V30 12 1 11 13
M  V30 13 1 13 14
M  V30 14 1 14 15
M  V30 15 1 15 16
M  V30 16 1 16 17
M  V30 17 2 17 18
M  V30 18 1 17 19
M  V30 19 1 18 20
M  V30 20 1 18 21
M  V30 21 2 19 22
M  V30 22 1 20 23
M  V30 23 2 21 24
M  V30 24 1 6 7
M  V30 25 1 22 24
M  V30 26 1 3 25
M  V30 27 1 4 26
M  V30 28 1 5 27
M  V30 29 1 6 28
M  V30 30 1 8 29
M  V30 31 1 8 30
M  V30 32 1 10 31
M  V30 33 1 10 32
M  V30 34 1 13 33
M  V30 35 1 14 34
M  V30 36 1 14 35
M  V30 37 1 15 36
M  V30 38 1 15 37
M  V30 39 1 16 38
M  V30 40 1 16 39
M  V30 41 1 19 40
M  V30 42 1 21 41
M  V30 43 1 22 42
M  V30 44 1 23 43
M  V30 45 1 23 44
M  V30 46 1 23 45
M  V30 47 1 24 46
M  V30 END BOND
M  V30 END CTAB
M  END
>  <Column 1>
2762

>  <level_0>
3997

>  <index>
3997

>  <Unnamed: 0>
3997

>  <NO.>
4009

>  <Name>
phenytoin

>  <IUPAC_name>
2-[(4-chlorophenyl)methylsulfanyl]-n-[3-(2-methoxyphenyl)propyl]acetamide

>  <SMILES>
COc1ccccc1CCCNC(=O)CSCc1ccc(Cl)cc1

>  <CID>
100001775

>  <logBB>


>  <BBB+/BBB->
BBB+

>  <Inchi>
InChI=1S/C19H22ClNO2S/c1-23-18-7-3-2-5-16(18)6-4-12-21-19(22)14-24-13-15-8-10-17(20)11-9-15/h2-3-5-7-11H-4-6-12-14H2-1H3-(H-21-22)

>  <threshold>
-1

>  <reference>
R16|R16|R10|R10|

>  <group>
B

>  <Class>
-1

>  <ABC>
17.86

>  <ABCGG>
13.76

>  <nAcid>
0

>  <nBase>
0

>  <nAromAtom>
12

>  <nAromBond>
12

>  <nAtom>
46

>  <nHeavyAtom>
24

>  <nSpiro>
0

>  <nBridgehead>
0

>  <nHetero>
5

>  <nN>
1

>  <nO>
2

>  <nF>
0

>  <BalabanJ>
1.46

>  <BertzCT>
646.07

>  <nBonds>
47

>  <nBondsO>
25

>  <nBondsS>
34

>  <nBondsD>
1

>  <nBondsT>
0

>  <nBondsA>
12

>  <nBondsM>
13

>  <nBondsKS>
40

>  <nBondsKD>
7

>  <RNCG>
0.27

>  <RPCG>
0.12

>  <FCSP3>
0.32

>  <SZ>
32

>  <Sm>
30.3

>  <Sv>
29.43

>  <Sse>
45.93

>  <Sp>
32.45

>  <Si>
51.35

>  <MZ>
0.7

>  <Mm>
0.66

>  <Mv>
0.64

>  <Mse>
1

>  <Mp>
0.71

>  <Mi>
1.12

>  <NsCH3>
1

>  <NdCH2>
0

>  <NssCH2>
5

>  <NtCH>
0

>  <NdsCH>
0

>  <NaaCH>
8

>  <NsssCH>
0

>  <NddC>
0

>  <NtsC>
0

>  <NdssC>
1

>  <NaasC>
4

>  <NaaaC>
0

>  <NssssC>
0

>  <NsNH3>
0

>  <NsNH2>
0

>  <NssNH2>
0

>  <NdNH>
0

>  <NssNH>
1

>  <NaaNH>
0

>  <NtN>
0

>  <NsssNH>
0

>  <NdsN>
0

>  <NaaN>
0

>  <NsssN>
0

>  <NddsN>
0

>  <NaasN>
0

>  <NssssN>
0

>  <NsOH>
0

>  <NdO>
1

>  <NssO>
1

>  <NaaO>
0

>  <NsF>
0

>  <NsSiH3>
0

>  <NssSiH2>
0

>  <NsssSiH>
0

>  <NssssSi>
0

>  <NsPH2>
0

>  <NssPH>
0

>  <NsssP>
0

>  <NdsssP>
0

>  <NsssssP>
0

>  <NsSH>
0

>  <NdS>
0

>  <NssS>
1

>  <NaaS>
0

>  <NdssS>
0

>  <NddssS>
0

>  <NsCl>
1

>  <NsBr>
0

>  <NsI>
0

>  <fragCpx>
73.05

>  <fMF>
0.43

>  <nHBAcc>
3

>  <nHBDon>
1

>  <Kier1>
20.31

>  <Kier2>
11.58

>  <Lipinski>
1

>  <GhoseFilter>
1

>  <FilterItLogS>
-6.53

>  <VMcGowan>
277.06

>  <LabuteASA>
152.29

>  <PEOE_VSA1>
10.05

>  <PEOE_VSA2>
4.79

>  <PEOE_VSA3>
0

>  <PEOE_VSA4>
0

>  <PEOE_VSA5>
11.76

>  <PEOE_VSA6>
41.93

>  <PEOE_VSA7>
42.17

>  <PEOE_VSA8>
17.32

>  <PEOE_VSA9>
12.86

>  <PEOE_VSA10>
5.75

>  <PEOE_VSA11>
0

>  <PEOE_VSA12>
5.91

>  <PEOE_VSA13>
0

>  <SMR_VSA1>
9.53

>  <SMR_VSA2>
0

>  <SMR_VSA3>
5.32

>  <SMR_VSA4>
0

>  <SMR_VSA5>
18.59

>  <SMR_VSA6>
19.41

>  <SMR_VSA7>
64.68

>  <SMR_VSA8>
0

>  <SMR_VSA9>
5.75

>  <SlogP_VSA1>
10.05

>  <SlogP_VSA2>
25.31

>  <SlogP_VSA3>
16.97

>  <SlogP_VSA4>
0

>  <SlogP_VSA5>
17.55

>  <SlogP_VSA6>
48.53

>  <SlogP_VSA7>
5.02

>  <SlogP_VSA8>
0

>  <SlogP_VSA9>
0

>  <SlogP_VSA10>
0

>  <SlogP_VSA11>
5.75

>  <EState_VSA1>
0

>  <EState_VSA2>
5.91

>  <EState_VSA3>
12.3

>  <EState_VSA4>
29.37

>  <EState_VSA5>
11.13

>  <EState_VSA6>
18.87

>  <EState_VSA7>
42.46

>  <EState_VSA8>
11.38

>  <EState_VSA9>
16.34

>  <EState_VSA10>
4.79

>  <VSA_EState1>
5.33

>  <VSA_EState2>
11.84

>  <VSA_EState3>
3.7

>  <VSA_EState4>
2.35

>  <VSA_EState5>
2.26

>  <VSA_EState6>
15.7

>  <VSA_EState7>
1.79

>  <VSA_EState8>
0.68

>  <VSA_EState9>
1.68

>  <apol>
54.18

>  <bpol>
28.21

>  <nRing>
2

>  <nHRing>
0

>  <naRing>
2

>  <naHRing>
0

>  <nARing 2>
0

>  <nAHRing 2>
0

>  <nFRing>
0

>  <nFHRing>
0

>  <nFaRing>
0

>  <nFaHRing>
0

>  <nFARing 2>
0

>  <nFAHRing 2>
0

>  <nRot>
9

>  <SLogP>
4.33

>  <SMR>
101.94

>  <TopoPSA(NO)>
38.33

>  <TopoPSA>
63.63

>  <JGI1>
0.16

>  <JGI2>
0.07

>  <JGI3>
0.03

>  <JGI4>
0.03

>  <JGI5>
0.02

>  <Diameter>
16

>  <Radius>
8

>  <TMWC10>
120.29

>  <TSRW10>
57.39

>  <MW>
363.11

>  <AMW>
7.89

>  <WPath>
1786

>  <WPol>
30

>  <Zagreb1>
112

>  <Zagreb2>
123

>  <mZagreb2>
5.61

>  <yes>


>  <nAR-cont>
0.336376

>  <nHA-cont>
0.94700071

>  <MWHBN>
0.20991375

>  <MWHBN-cont>
0.999337715

>  <TPSA-cont>
0.555823088

>  <pka_cont>
0.97

>  <yes.1>


>  <BBB_SCORE>
4.379029459

>  <MMFF94 Energy>
49.068

$$$$
Compound 2260
Actelion Java MolfileCreator 2.0

  0  0  0  0  0  0              0 V3000
M  V30 BEGIN CTAB
M  V30 COUNTS 49 50 0 0 0
M  V30 BEGIN ATOM
M  V30 1 S 1.0347 -0.4774 2.5484 0
M  V30 2 C -0.6783 -0.6132 3.2027 0 CFG=1
M  V30 3 C 1.8515 0.2158 4.0195 0
M  V30 4 C -1.696 -0.6689 2.059 0
M  V30 5 C -0.825 -1.8546 4.0738 0
M  V30 6 C 3.3139 0.4766 3.7631 0
M  V30 7 O -2.7858 -0.1046 2.1429 0
M  V30 8 N -1.3413 -1.4554 0.9855 0
M  V30 9 C 4.2734 -0.5093 4.0369 0
M  V30 10 C 3.7358 1.7013 3.2244 0
M  V30 11 C -2.1996 -1.6433 -0.1635 0
M  V30 12 C 5.6265 -0.2687 3.7922 0
M  V30 13 C 5.0894 1.9395 2.9804 0
M  V30 14 C -2.0108 -0.5301 -1.1889 0
M  V30 15 C 6.0341 0.9558 3.2664 0
M  V30 16 C -2.9327 -0.7331 -2.3914 0
M  V30 17 C -2.7272 0.3352 -3.442 0
M  V30 18 C -1.7159 0.2256 -4.4156 0
M  V30 19 C -3.5465 1.4765 -3.4226 0
M  V30 20 O -0.949 -0.9091 -4.356 0
M  V30 21 C -1.556 1.2468 -5.3584 0
M  V30 22 C -3.3765 2.4883 -4.3651 0
M  V30 23 C 0.1173 -1.0261 -5.2883 0
M  V30 24 C -2.384 2.3723 -5.3329 0
M  V30 25 H -0.898 0.2902 3.7826 0
M  V30 26 H 1.7467 -0.4751 4.8625 0
M  V30 27 H 1.3568 1.1514 4.3039 0
M  V30 28 H -0.182 -1.8094 4.9583 0
M  V30 29 H -0.5899 -2.7721 3.5221 0
M  V30 30 H -1.8583 -1.9514 4.4269 0
M  V30 31 H -0.387 -1.8005 0.9529 0
M  V30 32 H 3.9707 -1.4739 4.4382 0
M  V30 33 H 3.0096 2.4755 2.9855 0
M  V30 34 H -3.2417 -1.6831 0.1728 0
M  V30 35 H -1.9435 -2.6147 -0.5991 0
M  V30 36 H 6.3624 -1.0389 4.0074 0
M  V30 37 H 5.4057 2.8915 2.562 0
M  V30 38 H -0.9615 -0.5051 -1.5097 0
M  V30 39 H -2.2112 0.4444 -0.725 0
M  V30 40 H 7.0873 1.1412 3.0732 0
M  V30 41 H -2.7767 -1.7245 -2.8345 0
M  V30 42 H -3.9802 -0.7237 -2.0622 0
M  V30 43 H -4.3213 1.5815 -2.6658 0
M  V30 44 H -0.794 1.1999 -6.1288 0
M  V30 45 H -4.0167 3.3663 -4.3417 0
M  V30 46 H -0.2598 -1.0706 -6.3152 0
M  V30 47 H 0.6366 -1.9676 -5.0845 0
M  V30 48 H 0.8418 -0.2141 -5.1655 0
M  V30 49 H -2.2501 3.1607 -6.0691 0
M  V30 END ATOM
M  V30 BEGIN BOND
M  V30 1 1 1 2
M  V30 2 1 1 3
M  V30 3 1 2 4
M  V30 4 1 2 5
M  V30 5 1 3 6
M  V30 6 2 4 7
M  V30 7 1 4 8
M  V30 8 2 6 9
M  V30 9 1 6 10
M  V30 10 1 8 11
M  V30 11 1 9 12
M  V30 12 2 10 13
M  V30 13 1 11 14
M  V30 14 2 12 15
M  V30 15 1 14 16
M  V30 16 1 16 17
M  V30 17 2 17 18
M  V30 18 1 17 19
M  V30 19 1 18 20
M  V30 20 1 18 21
M  V30 21 2 19 22
M  V30 22 1 20 23
M  V30 23 2 21 24
M  V30 24 1 13 15
M  V30 25 1 22 24
M  V30 26 1 2 25
M  V30 27 1 3 26
M  V30 28 1 3 27
M  V30 29 1 5 28
M  V30 30 1 5 29
M  V30 31 1 5 30
M  V30 32 1 8 31
M  V30 33 1 9 32
M  V30 34 1 10 33
M  V30 35 1 11 34
M  V30 36 1 11 35
M  V30 37 1 12 36
M  V30 38 1 13 37
M  V30 39 1 14 38
M  V30 40 1 14 39
M  V30 41 1 15 40
M  V30 42 1 16 41
M  V30 43 1 16 42
M  V30 44 1 19 43
M  V30 45 1 21 44
M  V30 46 1 22 45
M  V30 47 1 23 46
M  V30 48 1 23 47
M  V30 49 1 23 48
M  V30 50 1 24 49
M  V30 END BOND
M  V30 BEGIN COLLECTION
M  V30 MDLV30/STEABS ATOMS=(1 2)
M  V30 END COLLECTION
M  V30 END CTAB
M  END
>  <Column 1>
2763

>  <level_0>
3998

>  <index>
3998

>  <Unnamed: 0>
3998

>  <NO.>
4010

>  <Name>
cimetidine

>  <IUPAC_name>
(2r)-2-benzylsulfanyl-n-[3-(2-methoxyphenyl)propyl]propanamide

>  <SMILES>
COc1ccccc1CCCNC(=O)[C@@H](C)SCc1ccccc1

>  <CID>
100002756

>  <logBB>


>  <BBB+/BBB->
BBB-

>  <Inchi>
InChI=1S/C20H25NO2S/c1-16(24-15-17-9-4-3-5-10-17)20(22)21-14-8-12-18-11-6-7-13-19(18)23-2/h3-7-9-11-13-16H-8-12-14-15H2-1-2H3-(H-21-22)/t16-/m1/s1

>  <threshold>
-1

>  <reference>
R16|R10|

>  <group>
B

>  <Class>
-1

>  <ABC>
17.82

>  <ABCGG>
14.2

>  <nAcid>
0

>  <nBase>
0

>  <nAromAtom>
12

>  <nAromBond>
12

>  <nAtom>
49

>  <nHeavyAtom>
24

>  <nSpiro>
0

>  <nBridgehead>
0

>  <nHetero>
4

>  <nN>
1

>  <nO>
2

>  <nF>
0

>  <BalabanJ>
1.54

>  <BertzCT>
630.55

>  <nBonds>
50

>  <nBondsO>
25

>  <nBondsS>
37

>  <nBondsD>
1

>  <nBondsT>
0

>  <nBondsA>
12

>  <nBondsM>
13

>  <nBondsKS>
43

>  <nBondsKD>
7

>  <RNCG>
0.26

>  <RPCG>
0.12

>  <FCSP3>
0.35

>  <SZ>
30.67

>  <Sm>
28.6

>  <Sv>
30.15

>  <Sse>
48.5

>  <Sp>
33.34

>  <Si>
54.82

>  <MZ>
0.63

>  <Mm>
0.58

>  <Mv>
0.62

>  <Mse>
0.99

>  <Mp>
0.68

>  <Mi>
1.12

>  <NsCH3>
2

>  <NdCH2>
0

>  <NssCH2>
4

>  <NtCH>
0

>  <NdsCH>
0

>  <NaaCH>
9

>  <NsssCH>
1

>  <NddC>
0

>  <NtsC>
0

>  <NdssC>
1

>  <NaasC>
3

>  <NaaaC>
0

>  <NssssC>
0

>  <NsNH3>
0

>  <NsNH2>
0

>  <NssNH2>
0

>  <NdNH>
0

>  <NssNH>
1

>  <NaaNH>
0

>  <NtN>
0

>  <NsssNH>
0

>  <NdsN>
0

>  <NaaN>
0

>  <NsssN>
0

>  <NddsN>
0

>  <NaasN>
0

>  <NssssN>
0

>  <NsOH>
0

>  <NdO>
1

>  <NssO>
1

>  <NaaO>
0

>  <NsF>
0

>  <NsSiH3>
0

>  <NssSiH2>
0

>  <NsssSiH>
0

>  <NssssSi>
0

>  <NsPH2>
0

>  <NssPH>
0

>  <NsssP>
0

>  <NdsssP>
0

>  <NsssssP>
0

>  <NsSH>
0

>  <NdS>
0

>  <NssS>
1

>  <NaaS>
0

>  <NdssS>
0

>  <NddssS>
0

>  <NsCl>
0

>  <NsBr>
0

>  <NsI>
0

>  <fragCpx>
73.04

>  <fMF>
0.41

>  <nHBAcc>
3

>  <nHBDon>
1

>  <Kier1>
20.31

>  <Kier2>
11.58

>  <Lipinski>
1

>  <GhoseFilter>
1

>  <FilterItLogS>
-5.81

>  <VMcGowan>
278.91

>  <LabuteASA>
148.36

>  <PEOE_VSA1>
10.05

>  <PEOE_VSA2>
4.79

>  <PEOE_VSA3>
0

>  <PEOE_VSA4>
0

>  <PEOE_VSA5>
11.76

>  <PEOE_VSA6>
48.53

>  <PEOE_VSA7>
36.96

>  <PEOE_VSA8>
12.3

>  <PEOE_VSA9>
12.36

>  <PEOE_VSA10>
5.75

>  <PEOE_VSA11>
0

>  <PEOE_VSA12>
5.91

>  <PEOE_VSA13>
0

>  <SMR_VSA1>
9.53

>  <SMR_VSA2>
0

>  <SMR_VSA3>
5.32

>  <SMR_VSA4>
0

>  <SMR_VSA5>
30.77

>  <SMR_VSA6>
13.65

>  <SMR_VSA7>
65.72

>  <SMR_VSA8>
0

>  <SMR_VSA9>
5.75

>  <SlogP_VSA1>
10.05

>  <SlogP_VSA2>
24.81

>  <SlogP_VSA3>
16.97

>  <SlogP_VSA4>
0

>  <SlogP_VSA5>
24.47

>  <SlogP_VSA6>
54.6

>  <SlogP_VSA7>
0

>  <SlogP_VSA8>
0

>  <SlogP_VSA9>
0

>  <SlogP_VSA10>
0

>  <SlogP_VSA11>
5.75

>  <EState_VSA1>
0

>  <EState_VSA2>
11.16

>  <EState_VSA3>
6.54

>  <EState_VSA4>
24.34

>  <EState_VSA5>
11.13

>  <EState_VSA6>
18.87

>  <EState_VSA7>
43.32

>  <EState_VSA8>
23.52

>  <EState_VSA9>
4.74

>  <EState_VSA10>
4.79

>  <VSA_EState1>
5.35

>  <VSA_EState2>
12.14

>  <VSA_EState3>
2.98

>  <VSA_EState4>
2.43

>  <VSA_EState5>
1.88

>  <VSA_EState6>
18.25

>  <VSA_EState7>
1.8

>  <VSA_EState8>
2.65

>  <VSA_EState9>
1.69

>  <apol>
55.67

>  <bpol>
30.71

>  <nRing>
2

>  <nHRing>
0

>  <naRing>
2

>  <naHRing>
0

>  <nARing 2>
0

>  <nAHRing 2>
0

>  <nFRing>
0

>  <nFHRing>
0

>  <nFaRing>
0

>  <nFaHRing>
0

>  <nFARing 2>
0

>  <nFAHRing 2>
0

>  <nRot>
9

>  <SLogP>
4.07

>  <SMR>
101.52

>  <TopoPSA(NO)>
38.33

>  <TopoPSA>
63.63

>  <JGI1>
0.14

>  <JGI2>
0.08

>  <JGI3>
0.03

>  <JGI4>
0.03

>  <JGI5>
0.02

>  <Diameter>
15

>  <Radius>
8

>  <TMWC10>
120.43

>  <TSRW10>
57.44

>  <MW>
343.16

>  <AMW>
7

>  <WPath>
1708

>  <WPol>
31

>  <Zagreb1>
112

>  <Zagreb2>
124

>  <mZagreb2>
5.64

>  <yes>


>  <nAR-cont>
0.336376

>  <nHA-cont>
0.94700071

>  <MWHBN>
0.215929342

>  <MWHBN-cont>
0.997209657

>  <TPSA-cont>
0.555823088

>  <pka_cont>
0.97

>  <yes.1>


>  <BBB_SCORE>
4.375837371

>  <MMFF94 Energy>
51.358

$$$$
Compound 2261
Actelion Java MolfileCreator 2.0

  0  0  0  0  0  0              0 V3000
M  V30 BEGIN CTAB
M  V30 COUNTS 55 57 0 0 0
M  V30 BEGIN ATOM
M  V30 1 O 0.4742 2.5313 -1.0277 0
M  V30 2 C 0.6274 1.4813 -0.4007 0
M  V30 3 N 0.1039 1.3156 0.8764 0
M  V30 4 C 1.4022 0.2948 -0.9916 0
M  V30 5 C -0.6138 2.4279 1.5158 0
M  V30 6 C 0.2338 0.1196 1.7208 0
M  V30 7 O 1.9161 0.5978 -2.2799 0
M  V30 8 C -1.9833 1.9835 2.0626 0
M  V30 9 C -1.1204 -0.3336 2.3055 0
M  V30 10 C 2.6357 -0.3698 -2.9328 0
M  V30 11 N -1.8227 0.8008 2.927 0
M  V30 12 C 3.1243 -0.0127 -4.208 0
M  V30 13 C 2.8917 -1.6459 -2.4184 0
M  V30 14 C -2.7917 0.4873 3.8845 0
M  V30 15 C 3.8251 -0.9695 -4.9758 0
M  V30 16 C 2.8308 1.3604 -4.7635 0
M  V30 17 C 3.6275 -2.5811 -3.1551 0
M  V30 18 C -4.1837 0.7065 3.7335 0
M  V30 19 C -2.3464 -0.0845 5.0935 0
M  V30 20 C 4.0755 -2.2398 -4.434 0
M  V30 21 C 4.3321 -0.6602 -6.3587 0
M  V30 22 C 3.8733 -3.9567 -2.6085 0
M  V30 23 O -4.6086 1.2211 2.5323 0
M  V30 24 C -5.0633 0.3624 4.7734 0
M  V30 25 C -3.2279 -0.4235 6.1201 0
M  V30 26 C -5.9947 1.4847 2.3692 0
M  V30 27 C -4.5873 -0.1983 5.9593 0
M  V30 28 H 2.23 0.0697 -0.3091 0
M  V30 29 H 0.7039 -0.5471 -1.0637 0
M  V30 30 H 0.0204 2.7801 2.3386 0
M  V30 31 H -0.7502 3.2655 0.825 0
M  V30 32 H 0.6877 -0.7116 1.1779 0
M  V30 33 H 0.9157 0.3884 2.5368 0
M  V30 34 H -2.4216 2.8198 2.62 0
M  V30 35 H -2.6333 1.742 1.2133 0
M  V30 36 H -0.9309 -1.1433 3.0196 0
M  V30 37 H -1.7474 -0.7428 1.5031 0
M  V30 38 H 2.5273 -1.9428 -1.441 0
M  V30 39 H 1.8814 1.3451 -5.3076 0
M  V30 40 H 3.6219 1.7001 -5.4386 0
M  V30 41 H 2.774 2.1144 -3.9715 0
M  V30 42 H -1.2817 -0.2433 5.2486 0
M  V30 43 H 4.6247 -2.9752 -5.0197 0
M  V30 44 H 5.1589 0.055 -6.3063 0
M  V30 45 H 3.5293 -0.2504 -6.9802 0
M  V30 46 H 4.6991 -1.5607 -6.8628 0
M  V30 47 H 3.9601 -3.9334 -1.517 0
M  V30 48 H 3.0489 -4.6215 -2.8843 0
M  V30 49 H 4.8086 -4.3715 -2.9987 0
M  V30 50 H -6.1342 0.5126 4.6886 0
M  V30 51 H -2.8484 -0.8537 7.0427 0
M  V30 52 H -6.5803 0.5608 2.4152 0
M  V30 53 H -6.1368 1.917 1.374 0
M  V30 54 H -6.348 2.2179 3.1018 0
M  V30 55 H -5.2807 -0.4581 6.7549 0
M  V30 END ATOM
M  V30 BEGIN BOND
M  V30 1 2 1 2
M  V30 2 1 2 3
M  V30 3 1 2 4
M  V30 4 1 3 5
M  V30 5 1 3 6
M  V30 6 1 4 7
M  V30 7 1 5 8
M  V30 8 1 6 9
M  V30 9 1 7 10
M  V30 10 1 8 11
M  V30 11 2 10 12
M  V30 12 1 10 13
M  V30 13 1 11 14
M  V30 14 1 12 15
M  V30 15 1 12 16
M  V30 16 2 13 17
M  V30 17 2 14 18
M  V30 18 1 14 19
M  V30 19 2 15 20
M  V30 20 1 15 21
M  V30 21 1 17 22
M  V30 22 1 18 23
M  V30 23 1 18 24
M  V30 24 2 19 25
M  V30 25 1 23 26
M  V30 26 2 24 27
M  V30 27 1 9 11
M  V30 28 1 17 20
M  V30 29 1 25 27
M  V30 30 1 4 28
M  V30 31 1 4 29
M  V30 32 1 5 30
M  V30 33 1 5 31
M  V30 34 1 6 32
M  V30 35 1 6 33
M  V30 36 1 8 34
M  V30 37 1 8 35
M  V30 38 1 9 36
M  V30 39 1 9 37
M  V30 40 1 13 38
M  V30 41 1 16 39
M  V30 42 1 16 40
M  V30 43 1 16 41
M  V30 44 1 19 42
M  V30 45 1 20 43
M  V30 46 1 21 44
M  V30 47 1 21 45
M  V30 48 1 21 46
M  V30 49 1 22 47
M  V30 50 1 22 48
M  V30 51 1 22 49
M  V30 52 1 24 50
M  V30 53 1 25 51
M  V30 54 1 26 52
M  V30 55 1 26 53
M  V30 56 1 26 54
M  V30 57 1 27 55
M  V30 END BOND
M  V30 END CTAB
M  END
>  <Column 1>
2764

>  <level_0>
3999

>  <index>
3999

>  <Unnamed: 0>
3999

>  <NO.>
4011

>  <Name>
dexrazoxane

>  <IUPAC_name>
1-[4-(2-methoxyphenyl)piperazin-1-yl]-2-(2-3-5-trimethylphenoxy)ethanone

>  <SMILES>
COc1ccccc1N1CCN(C(=O)COc2cc(C)cc(C)c2C)CC1

>  <CID>
100030623

>  <logBB>


>  <BBB+/BBB->
BBB-

>  <Inchi>
InChI=1S/C22H28N2O3/c1-16-13-17(2)18(3)21(14-16)27-15-22(25)24-11-9-23(10-12-24)19-7-5-6-8-20(19)26-4/h5-8-13-14H-9-12-15H2-1-4H3

>  <threshold>
-1

>  <reference>
R16|R10|

>  <group>
B

>  <Class>
1

>  <ABC>
20.74

>  <ABCGG>
16.06

>  <nAcid>
0

>  <nBase>
0

>  <nAromAtom>
12

>  <nAromBond>
12

>  <nAtom>
55

>  <nHeavyAtom>
27

>  <nSpiro>
0

>  <nBridgehead>
0

>  <nHetero>
5

>  <nN>
2

>  <nO>
3

>  <nF>
0

>  <BalabanJ>
1.42

>  <BertzCT>
811.2

>  <nBonds>
57

>  <nBondsO>
29

>  <nBondsS>
44

>  <nBondsD>
1

>  <nBondsT>
0

>  <nBondsA>
12

>  <nBondsM>
13

>  <nBondsKS>
50

>  <nBondsKD>
7

>  <RNCG>
0.21

>  <RPCG>
0.11

>  <FCSP3>
0.41

>  <SZ>
33

>  <Sm>
30.68

>  <Sv>
33.25

>  <Sse>
54.75

>  <Sp>
35.94

>  <Si>
62.02

>  <MZ>
0.6

>  <Mm>
0.56

>  <Mv>
0.6

>  <Mse>
1

>  <Mp>
0.65

>  <Mi>
1.13

>  <NsCH3>
4

>  <NdCH2>
0

>  <NssCH2>
5

>  <NtCH>
0

>  <NdsCH>
0

>  <NaaCH>
6

>  <NsssCH>
0

>  <NddC>
0

>  <NtsC>
0

>  <NdssC>
1

>  <NaasC>
6

>  <NaaaC>
0

>  <NssssC>
0

>  <NsNH3>
0

>  <NsNH2>
0

>  <NssNH2>
0

>  <NdNH>
0

>  <NssNH>
0

>  <NaaNH>
0

>  <NtN>
0

>  <NsssNH>
0

>  <NdsN>
0

>  <NaaN>
0

>  <NsssN>
2

>  <NddsN>
0

>  <NaasN>
0

>  <NssssN>
0

>  <NsOH>
0

>  <NdO>
1

>  <NssO>
2

>  <NaaO>
0

>  <NsF>
0

>  <NsSiH3>
0

>  <NssSiH2>
0

>  <NsssSiH>
0

>  <NssssSi>
0

>  <NsPH2>
0

>  <NssPH>
0

>  <NsssP>
0

>  <NdsssP>
0

>  <NsssssP>
0

>  <NsSH>
0

>  <NdS>
0

>  <NssS>
0

>  <NaaS>
0

>  <NdssS>
0

>  <NddssS>
0

>  <NsCl>
0

>  <NsBr>
0

>  <NsI>
0

>  <fragCpx>
139.05

>  <fMF>
0.38

>  <nHBAcc>
4

>  <nHBDon>
0

>  <Kier1>
21.7

>  <Kier2>
10.16

>  <Lipinski>
1

>  <GhoseFilter>
1

>  <FilterItLogS>
-5.12

>  <VMcGowan>
295.73

>  <LabuteASA>
161.04

>  <PEOE_VSA1>
19.27

>  <PEOE_VSA2>
4.79

>  <PEOE_VSA3>
0

>  <PEOE_VSA4>
0

>  <PEOE_VSA5>
0

>  <PEOE_VSA6>
18.2

>  <PEOE_VSA7>
55.66

>  <PEOE_VSA8>
26.18

>  <PEOE_VSA9>
12.8

>  <PEOE_VSA10>
11.5

>  <PEOE_VSA11>
6.61

>  <PEOE_VSA12>
0

>  <PEOE_VSA13>
5.91

>  <SMR_VSA1>
14.27

>  <SMR_VSA2>
0

>  <SMR_VSA3>
4.9

>  <SMR_VSA4>
0

>  <SMR_VSA5>
20.77

>  <SMR_VSA6>
44.8

>  <SMR_VSA7>
53.09

>  <SMR_VSA8>
0

>  <SMR_VSA9>
11.5

>  <SlogP_VSA1>
14.37

>  <SlogP_VSA2>
50.7

>  <SlogP_VSA3>
4.79

>  <SlogP_VSA4>
20.77

>  <SlogP_VSA5>
16.69

>  <SlogP_VSA6>
36.4

>  <SlogP_VSA7>
0

>  <SlogP_VSA8>
0

>  <SlogP_VSA9>
0

>  <SlogP_VSA10>
5.69

>  <SlogP_VSA11>
11.5

>  <EState_VSA1>
0

>  <EState_VSA2>
12.51

>  <EState_VSA3>
13.09

>  <EState_VSA4>
41.4

>  <EState_VSA5>
5.56

>  <EState_VSA6>
7.11

>  <EState_VSA7>
43.01

>  <EState_VSA8>
23.96

>  <EState_VSA9>
9.47

>  <EState_VSA10>
4.79

>  <VSA_EState1>
11.29

>  <VSA_EState2>
16.72

>  <VSA_EState3>
0

>  <VSA_EState4>
4.5

>  <VSA_EState5>
1.7

>  <VSA_EState6>
12.12

>  <VSA_EState7>
0

>  <VSA_EState8>
9.16

>  <VSA_EState9>
1.69

>  <apol>
60.02

>  <bpol>
35.85

>  <nRing>
3

>  <nHRing>
1

>  <naRing>
2

>  <naHRing>
0

>  <nARing 2>
1

>  <nAHRing 2>
1

>  <nFRing>
0

>  <nFHRing>
0

>  <nFaRing>
0

>  <nFaHRing>
0

>  <nFARing 2>
0

>  <nFAHRing 2>
0

>  <nRot>
5

>  <SLogP>
3.35

>  <SMR>
107.94

>  <TopoPSA(NO)>
42.01

>  <TopoPSA>
42.01

>  <JGI1>
0.19

>  <JGI2>
0.09

>  <JGI3>
0.05

>  <JGI4>
0.04

>  <JGI5>
0.02

>  <Diameter>
14

>  <Radius>
7

>  <TMWC10>
131.3

>  <TSRW10>
62.02

>  <MW>
368.21

>  <AMW>
6.69

>  <WPath>
2116

>  <WPol>
43

>  <Zagreb1>
138

>  <Zagreb2>
161

>  <mZagreb2>
6.06

>  <yes>


>  <nAR-cont>
0.816016

>  <nHA-cont>
0.860070871

>  <MWHBN>
0.208454945

>  <MWHBN-cont>
0.999634395

>  <TPSA-cont>
0.706744113

>  <pka_cont>
0.97

>  <yes.1>


>  <BBB_SCORE>
5.074026691

>  <MMFF94 Energy>
151.3

$$$$
Compound 2262
Actelion Java MolfileCreator 2.0

  0  0  0  0  0  0              0 V3000
M  V30 BEGIN CTAB
M  V30 COUNTS 31 33 0 0 0
M  V30 BEGIN ATOM
M  V30 1 S -0.0829 -1.8268 2.8243 0
M  V30 2 O -1.3356 -2.5195 2.6048 0
M  V30 3 O 1.1831 -2.5046 2.6374 0
M  V30 4 C -0.1333 -0.4228 1.6955 0 CFG=1
M  V30 5 C -0.1245 -1.1048 4.4427 0
M  V30 6 C 1.1755 0.2539 1.3714 0 CFG=1
M  V30 7 C 0.5392 -0.7035 0.3642 0 CFG=2
M  V30 8 C 1.0684 1.6794 1.1717 0
M  V30 9 C 2.4413 -0.1524 2.035 0
M  V30 10 C -0.1119 -0.2394 -0.922 0
M  V30 11 N 0.9502 2.8213 1.006 0
M  V30 12 O 2.7927 0.3719 3.0847 0
M  V30 13 C 0.6099 0.497 -1.8803 0
M  V30 14 C -1.4942 -0.457 -1.1575 0
M  V30 15 C -0.0429 0.9518 -3.0086 0
M  V30 16 C -2.1346 0.0143 -2.3099 0
M  V30 17 O 0.5238 1.6635 -4.0192 0
M  V30 18 C -1.3785 0.7174 -3.2176 0
M  V30 19 C -0.6156 1.8622 -4.8825 0
M  V30 20 O -1.8244 1.2511 -4.3848 0
M  V30 21 H -1.0416 0.1647 1.7161 0
M  V30 22 H 0.7663 -0.4949 4.5906 0
M  V30 23 H -1.0271 -0.4974 4.5327 0
M  V30 24 H -0.146 -1.9147 5.1749 0
M  V30 25 H 1.0252 -1.6736 0.2547 0
M  V30 26 H 3.0538 -0.9178 1.5285 0
M  V30 27 H 1.6663 0.7109 -1.7538 0
M  V30 28 H -2.0834 -1.0196 -0.4333 0
M  V30 29 H -3.1898 -0.1663 -2.4819 0
M  V30 30 H -0.3876 1.4371 -5.8666 0
M  V30 31 H -0.7871 2.939 -4.9952 0
M  V30 END ATOM
M  V30 BEGIN BOND
M  V30 1 2 1 2
M  V30 2 2 1 3
M  V30 3 1 1 4
M  V30 4 1 1 5
M  V30 5 1 4 6
M  V30 6 1 4 7
M  V30 7 1 6 8
M  V30 8 1 6 9
M  V30 9 1 7 10
M  V30 10 3 8 11
M  V30 11 2 9 12
M  V30 12 2 10 13
M  V30 13 1 10 14
M  V30 14 1 13 15
M  V30 15 2 14 16
M  V30 16 1 15 17
M  V30 17 2 15 18
M  V30 18 1 17 19
M  V30 19 1 18 20
M  V30 20 1 6 7
M  V30 21 1 16 18
M  V30 22 1 19 20
M  V30 23 1 4 21
M  V30 24 1 5 22
M  V30 25 1 5 23
M  V30 26 1 5 24
M  V30 27 1 7 25
M  V30 28 1 9 26
M  V30 29 1 13 27
M  V30 30 1 14 28
M  V30 31 1 16 29
M  V30 32 1 19 30
M  V30 33 1 19 31
M  V30 END BOND
M  V30 BEGIN COLLECTION
M  V30 MDLV30/STEABS ATOMS=(3 4 6 7)
M  V30 END COLLECTION
M  V30 END CTAB
M  END
>  <Column 1>
2765

>  <level_0>
4000

>  <index>
4000

>  <Unnamed: 0>
4000

>  <NO.>
4012

>  <Name>
risperidone

>  <IUPAC_name>
(1s-2s-3r)-2-(1-3-benzodioxol-5-yl)-1-formyl-3-methylsulfonylcyclopropane-1-carbonitrile

>  <SMILES>
CS(=O)(=O)[C@@H]1[C@@H](c2ccc3c(c2)OCO3)[C@]1(C#N)C=O

>  <CID>
100005073

>  <logBB>


>  <BBB+/BBB->
BBB+

>  <Inchi>
InChI=1S/C13H11NO5S/c1-20(16-17)12-11(13(12-5-14)6-15)8-2-3-9-10(4-8)19-7-18-9/h2-4-6-11-12H-7H2-1H3/t11--12--13+/m1/s1

>  <threshold>
-1

>  <reference>
R16|R10|

>  <group>
B

>  <Class>
1

>  <ABC>
15.73

>  <ABCGG>
14.57

>  <nAcid>
0

>  <nBase>
0

>  <nAromAtom>
6

>  <nAromBond>
6

>  <nAtom>
31

>  <nHeavyAtom>
20

>  <nSpiro>
0

>  <nBridgehead>
0

>  <nHetero>
7

>  <nN>
1

>  <nO>
5

>  <nF>
0

>  <BalabanJ>
1.75

>  <BertzCT>
735.62

>  <nBonds>
33

>  <nBondsO>
22

>  <nBondsS>
23

>  <nBondsD>
3

>  <nBondsT>
1

>  <nBondsA>
6

>  <nBondsM>
10

>  <nBondsKS>
26

>  <nBondsKD>
6

>  <RNCG>
0.23

>  <RPCG>
0.12

>  <FCSP3>
0.38

>  <SZ>
25.33

>  <Sm>
24.42

>  <Sv>
21.5

>  <Sse>
32.28

>  <Sp>
22.19

>  <Si>
34.54

>  <MZ>
0.82

>  <Mm>
0.79

>  <Mv>
0.69

>  <Mse>
1.04

>  <Mp>
0.72

>  <Mi>
1.11

>  <NsCH3>
1

>  <NdCH2>
0

>  <NssCH2>
1

>  <NtCH>
0

>  <NdsCH>
1

>  <NaaCH>
3

>  <NsssCH>
2

>  <NddC>
0

>  <NtsC>
1

>  <NdssC>
0

>  <NaasC>
3

>  <NaaaC>
0

>  <NssssC>
1

>  <NsNH3>
0

>  <NsNH2>
0

>  <NssNH2>
0

>  <NdNH>
0

>  <NssNH>
0

>  <NaaNH>
0

>  <NtN>
1

>  <NsssNH>
0

>  <NdsN>
0

>  <NaaN>
0

>  <NsssN>
0

>  <NddsN>
0

>  <NaasN>
0

>  <NssssN>
0

>  <NsOH>
0

>  <NdO>
3

>  <NssO>
2

>  <NaaO>
0

>  <NsF>
0

>  <NsSiH3>
0

>  <NssSiH2>
0

>  <NsssSiH>
0

>  <NssssSi>
0

>  <NsPH2>
0

>  <NssPH>
0

>  <NsssP>
0

>  <NdsssP>
0

>  <NsssssP>
0

>  <NsSH>
0

>  <NdS>
0

>  <NssS>
0

>  <NaaS>
0

>  <NdssS>
0

>  <NddssS>
1

>  <NsCl>
0

>  <NsBr>
0

>  <NsI>
0

>  <fragCpx>
104.07

>  <fMF>
0.39

>  <nHBAcc>
6

>  <nHBDon>
0

>  <Kier1>
14.92

>  <Kier2>
5.03

>  <Lipinski>
1

>  <GhoseFilter>
1

>  <FilterItLogS>
-2.39

>  <VMcGowan>
191.33

>  <LabuteASA>
115.38

>  <PEOE_VSA1>
14.27

>  <PEOE_VSA2>
0

>  <PEOE_VSA3>
8.42

>  <PEOE_VSA4>
5.26

>  <PEOE_VSA5>
0

>  <PEOE_VSA6>
6.07

>  <PEOE_VSA7>
17.7

>  <PEOE_VSA8>
12.17

>  <PEOE_VSA9>
11.32

>  <PEOE_VSA10>
11.7

>  <PEOE_VSA11>
21.34

>  <PEOE_VSA12>
6.79

>  <PEOE_VSA13>
0

>  <SMR_VSA1>
22.69

>  <SMR_VSA2>
5.26

>  <SMR_VSA3>
0

>  <SMR_VSA4>
5.41

>  <SMR_VSA5>
11.17

>  <SMR_VSA6>
13.05

>  <SMR_VSA7>
23.76

>  <SMR_VSA8>
0

>  <SMR_VSA9>
17.57

>  <SlogP_VSA1>
9.47

>  <SlogP_VSA2>
33

>  <SlogP_VSA3>
14.63

>  <SlogP_VSA4>
16.75

>  <SlogP_VSA5>
11.48

>  <SlogP_VSA6>
18.2

>  <SlogP_VSA7>
0

>  <SlogP_VSA8>
0

>  <SlogP_VSA9>
0

>  <SlogP_VSA10>
0

>  <SlogP_VSA11>
11.5

>  <EState_VSA1>
26.42

>  <EState_VSA2>
6.79

>  <EState_VSA3>
23.35

>  <EState_VSA4>
6.26

>  <EState_VSA5>
0

>  <EState_VSA6>
18.2

>  <EState_VSA7>
6.07

>  <EState_VSA8>
0

>  <EState_VSA9>
9.47

>  <EState_VSA10>
18.47

>  <VSA_EState1>
33.96

>  <VSA_EState2>
11.25

>  <VSA_EState3>
8.21

>  <VSA_EState4>
-0.9

>  <VSA_EState5>
0.41

>  <VSA_EState6>
6.81

>  <VSA_EState7>
1.48

>  <VSA_EState8>
0.11

>  <VSA_EState9>
-3.5

>  <apol>
37.05

>  <bpol>
22.6

>  <nRing>
3

>  <nHRing>
1

>  <naRing>
1

>  <naHRing>
0

>  <nARing 2>
2

>  <nAHRing 2>
1

>  <nFRing>
1

>  <nFHRing>
1

>  <nFaRing>
0

>  <nFaHRing>
0

>  <nFARing 2>
1

>  <nFAHRing 2>
1

>  <nRot>
3

>  <SLogP>
0.63

>  <SMR>
68.05

>  <TopoPSA(NO)>
93.46

>  <TopoPSA>
101.84

>  <JGI1>
0.27

>  <JGI2>
0.13

>  <JGI3>
0.11

>  <JGI4>
0.05

>  <JGI5>
0.02

>  <Diameter>
8

>  <Radius>
4

>  <TMWC10>
119.23

>  <TSRW10>
76.59

>  <MW>
293.04

>  <AMW>
9.45

>  <WPath>
754

>  <WPol>
32

>  <Zagreb1>
114

>  <Zagreb2>
143

>  <mZagreb2>
4.33

>  <yes>


>  <nAR-cont>
1

>  <nHA-cont>
0.999629945

>  <MWHBN>
0.350499819

>  <MWHBN-cont>
0.668380735

>  <TPSA-cont>
0.289093561

>  <pka_cont>
0.97

>  <yes.1>


>  <BBB_SCORE>
4.065388169

>  <MMFF94 Energy>
-8.6409

$$$$
Compound 2263
Actelion Java MolfileCreator 2.0

  0  0  0  0  0  0              0 V3000
M  V30 BEGIN CTAB
M  V30 COUNTS 29 30 0 0 0
M  V30 BEGIN ATOM
M  V30 1 S -0.4105 1.1499 1.8896 0
M  V30 2 O -1.2675 1.0385 3.0588 0
M  V30 3 O 0.7746 0.3336 1.7698 0
M  V30 4 C -1.5116 0.905 0.4939 0 CFG=1
M  V30 5 C 0.0655 2.8532 1.7669 0
M  V30 6 C -1.1262 0.2241 -0.7807 0 CFG=2
M  V30 7 C -1.9732 -0.5184 0.2485 0 CFG=1
M  V30 8 C 0.2365 -0.1905 -1.287 0
M  V30 9 C -1.5848 -1.701 1.0512 0
M  V30 10 C 0.3645 -1.3386 -2.0927 0
M  V30 11 C 1.4149 0.5398 -1.0738 0
M  V30 12 S -1.3855 -3.1684 0.3033 0
M  V30 13 N -1.6147 -1.6243 2.4086 0
M  V30 14 C 1.5936 -1.7619 -2.6094 0
M  V30 15 C 2.6524 0.1271 -1.5845 0
M  V30 16 C 2.7428 -1.0294 -2.3479 0
M  V30 17 H -2.2785 1.6677 0.4214 0
M  V30 18 H -0.8319 3.4729 1.818 0
M  V30 19 H 0.7234 3.0837 2.6076 0
M  V30 20 H 0.59 3.0229 0.8276 0
M  V30 21 H -1.726 0.5607 -1.6334 0
M  V30 22 H -3.0297 -0.5912 -0.0188 0
M  V30 23 H -0.5202 -1.924 -2.337 0
M  V30 24 H 1.3965 1.4625 -0.5083 0
M  V30 25 H -1.3838 -2.4477 2.9511 0
M  V30 26 H -1.7927 -0.7706 2.935 0
M  V30 27 H 1.6448 -2.6649 -3.2116 0
M  V30 28 H 3.5445 0.713 -1.3794 0
M  V30 29 H 3.7018 -1.3555 -2.7394 0
M  V30 END ATOM
M  V30 BEGIN BOND
M  V30 1 2 1 2
M  V30 2 2 1 3
M  V30 3 1 1 4
M  V30 4 1 1 5
M  V30 5 1 4 6
M  V30 6 1 4 7
M  V30 7 1 6 8
M  V30 8 1 7 9
M  V30 9 2 8 10
M  V30 10 1 8 11
M  V30 11 2 9 12
M  V30 12 1 9 13
M  V30 13 1 10 14
M  V30 14 2 11 15
M  V30 15 2 14 16
M  V30 16 1 6 7
M  V30 17 1 15 16
M  V30 18 1 4 17
M  V30 19 1 5 18
M  V30 20 1 5 19
M  V30 21 1 5 20
M  V30 22 1 6 21
M  V30 23 1 7 22
M  V30 24 1 10 23
M  V30 25 1 11 24
M  V30 26 1 13 25
M  V30 27 1 13 26
M  V30 28 1 14 27
M  V30 29 1 15 28
M  V30 30 1 16 29
M  V30 END BOND
M  V30 BEGIN COLLECTION
M  V30 MDLV30/STEABS ATOMS=(3 4 6 7)
M  V30 END COLLECTION
M  V30 END CTAB
M  END
>  <Column 1>
2766

>  <level_0>
4001

>  <index>
4001

>  <Unnamed: 0>
4001

>  <NO.>
4013

>  <Name>
nicotine

>  <IUPAC_name>
(1r-2s-3r)-2-methylsulfonyl-3-phenylcyclopropane-1-carbothioamide

>  <SMILES>
CS(=O)(=O)[C@@H]1[C@H](C(N)=S)[C@@H]1c1ccccc1

>  <CID>
100000942

>  <logBB>


>  <BBB+/BBB->
BBB+

>  <Inchi>
InChI=1S/C11H13NO2S2/c1-16(13-14)10-8(9(10)11(12)15)7-5-3-2-4-6-7/h2-6-8-10H-1H3-(H2-12-15)/t8--9+-10-/m0/s1

>  <threshold>
-1

>  <reference>
R16|R16|R10|R10|

>  <group>
B

>  <Class>
1

>  <ABC>
12.45

>  <ABCGG>
11.74

>  <nAcid>
0

>  <nBase>
0

>  <nAromAtom>
6

>  <nAromBond>
6

>  <nAtom>
29

>  <nHeavyAtom>
16

>  <nSpiro>
0

>  <nBridgehead>
0

>  <nHetero>
5

>  <nN>
1

>  <nO>
2

>  <nF>
0

>  <BalabanJ>
2.03

>  <BertzCT>
510.05

>  <nBonds>
30

>  <nBondsO>
17

>  <nBondsS>
21

>  <nBondsD>
3

>  <nBondsT>
0

>  <nBondsA>
6

>  <nBondsM>
9

>  <nBondsKS>
24

>  <nBondsKD>
6

>  <RNCG>
0.31

>  <RPCG>
0.12

>  <FCSP3>
0.36

>  <SZ>
22.33

>  <Sm>
21.26

>  <Sv>
19.08

>  <Sse>
29.25

>  <Sp>
21.28

>  <Si>
32.25

>  <MZ>
0.77

>  <Mm>
0.73

>  <Mv>
0.66

>  <Mse>
1.01

>  <Mp>
0.73

>  <Mi>
1.11

>  <NsCH3>
1

>  <NdCH2>
0

>  <NssCH2>
0

>  <NtCH>
0

>  <NdsCH>
0

>  <NaaCH>
5

>  <NsssCH>
3

>  <NddC>
0

>  <NtsC>
0

>  <NdssC>
1

>  <NaasC>
1

>  <NaaaC>
0

>  <NssssC>
0

>  <NsNH3>
0

>  <NsNH2>
1

>  <NssNH2>
0

>  <NdNH>
0

>  <NssNH>
0

>  <NaaNH>
0

>  <NtN>
0

>  <NsssNH>
0

>  <NdsN>
0

>  <NaaN>
0

>  <NsssN>
0

>  <NddsN>
0

>  <NaasN>
0

>  <NssssN>
0

>  <NsOH>
0

>  <NdO>
2

>  <NssO>
0

>  <NaaO>
0

>  <NsF>
0

>  <NsSiH3>
0

>  <NssSiH2>
0

>  <NsssSiH>
0

>  <NssssSi>
0

>  <NsPH2>
0

>  <NssPH>
0

>  <NsssP>
0

>  <NdsssP>
0

>  <NsssssP>
0

>  <NsSH>
0

>  <NdS>
1

>  <NssS>
0

>  <NaaS>
0

>  <NdssS>
0

>  <NddssS>
1

>  <NsCl>
0

>  <NsBr>
0

>  <NsI>
0

>  <fragCpx>
49.05

>  <fMF>
0.31

>  <nHBAcc>
3

>  <nHBDon>
1

>  <Kier1>
12.46

>  <Kier2>
4.35

>  <Lipinski>
1

>  <GhoseFilter>
1

>  <FilterItLogS>
-1.89

>  <VMcGowan>
181.35

>  <LabuteASA>
100.57

>  <PEOE_VSA1>
5.73

>  <PEOE_VSA2>
0

>  <PEOE_VSA3>
8.42

>  <PEOE_VSA4>
0

>  <PEOE_VSA5>
0

>  <PEOE_VSA6>
42.55

>  <PEOE_VSA7>
5.56

>  <PEOE_VSA8>
18.09

>  <PEOE_VSA9>
10.24

>  <PEOE_VSA10>
0

>  <PEOE_VSA11>
9.84

>  <PEOE_VSA12>
0

>  <PEOE_VSA13>
0

>  <SMR_VSA1>
8.42

>  <SMR_VSA2>
0

>  <SMR_VSA3>
0

>  <SMR_VSA4>
11.65

>  <SMR_VSA5>
11.17

>  <SMR_VSA6>
6.26

>  <SMR_VSA7>
35.9

>  <SMR_VSA8>
0

>  <SMR_VSA9>
0

>  <SlogP_VSA1>
5.73

>  <SlogP_VSA2>
24.91

>  <SlogP_VSA3>
9.84

>  <SlogP_VSA4>
5.92

>  <SlogP_VSA5>
11.48

>  <SlogP_VSA6>
30.33

>  <SlogP_VSA7>
0

>  <SlogP_VSA8>
0

>  <SlogP_VSA9>
0

>  <SlogP_VSA10>
0

>  <SlogP_VSA11>
0

>  <EState_VSA1>
15.09

>  <EState_VSA2>
11.84

>  <EState_VSA3>
4.99

>  <EState_VSA4>
5.56

>  <EState_VSA5>
6.26

>  <EState_VSA6>
0

>  <EState_VSA7>
30.33

>  <EState_VSA8>
0

>  <EState_VSA9>
17.95

>  <EState_VSA10>
8.42

>  <VSA_EState1>
23.15

>  <VSA_EState2>
0.3

>  <VSA_EState3>
-0.44

>  <VSA_EState4>
6.58

>  <VSA_EState5>
-0.26

>  <VSA_EState6>
9.52

>  <VSA_EState7>
1.24

>  <VSA_EState8>
0

>  <VSA_EState9>
-3.09

>  <apol>
35.54

>  <bpol>
20.36

>  <nRing>
2

>  <nHRing>
0

>  <naRing>
1

>  <naHRing>
0

>  <nARing 2>
1

>  <nAHRing 2>
0

>  <nFRing>
0

>  <nFHRing>
0

>  <nFaRing>
0

>  <nFaHRing>
0

>  <nFARing 2>
0

>  <nFAHRing 2>
0

>  <nRot>
3

>  <SLogP>
1.1

>  <SMR>
68.09

>  <TopoPSA(NO)>
60.16

>  <TopoPSA>
100.63

>  <JGI1>
0.24

>  <JGI2>
0.09

>  <JGI3>
0.11

>  <JGI4>
0.07

>  <JGI5>
0.02

>  <Diameter>
7

>  <Radius>
4

>  <TMWC10>
106.64

>  <TSRW10>
69.81

>  <MW>
255.04

>  <AMW>
8.79

>  <WPath>
422

>  <WPol>
22

>  <Zagreb1>
86

>  <Zagreb2>
103

>  <mZagreb2>
3.39

>  <yes>


>  <nAR-cont>
0.816016

>  <nHA-cont>
0.954961865

>  <MWHBN>
0.250470072

>  <MWHBN-cont>
0.958983123

>  <TPSA-cont>
0.297540113

>  <pka_cont>
0.97

>  <yes.1>


>  <BBB_SCORE>
4.289532775

>  <MMFF94 Energy>
5.6722

$$$$
Compound 2264
Actelion Java MolfileCreator 2.0

  0  0  0  0  0  0              0 V3000
M  V30 BEGIN CTAB
M  V30 COUNTS 26 27 0 0 0
M  V30 BEGIN ATOM
M  V30 1 S -0.7388 2.2178 1.889 0
M  V30 2 O -1.3143 1.9985 3.1995 0
M  V30 3 O 0.3386 3.1723 1.7101 0
M  V30 4 C -0.0173 0.6427 1.4031 0 CFG=1
M  V30 5 C -2.0278 2.6839 0.7728 0
M  V30 6 C -0.8863 -0.5801 1.4743 0 CFG=2
M  V30 7 C -0.4985 0.0117 0.1248 0 CFG=2
M  V30 8 C -2.276 -0.5689 1.8237 0
M  V30 9 C 0.4819 -0.7166 -0.767 0
M  V30 10 N -3.4145 -0.5591 2.0405 0
M  V30 11 C 0.274 -2.0565 -1.1366 0
M  V30 12 C 1.6882 -0.1163 -1.1671 0
M  V30 13 C 1.21 -2.7543 -1.9043 0
M  V30 14 C 2.6277 -0.8097 -1.9345 0
M  V30 15 C 2.3865 -2.129 -2.305 0
M  V30 16 H 1.0158 0.517 1.7012 0
M  V30 17 H -1.6139 2.7802 -0.2324 0
M  V30 18 H -2.4118 3.6547 1.0965 0
M  V30 19 H -2.836 1.9552 0.7978 0
M  V30 20 H -0.3737 -1.4849 1.79 0
M  V30 21 H -1.2963 0.4939 -0.4322 0
M  V30 22 H -0.6368 -2.5694 -0.8327 0
M  V30 23 H 1.9041 0.913 -0.8846 0
M  V30 24 H 1.0202 -3.7869 -2.1867 0
M  V30 25 H 3.5489 -0.3189 -2.2391 0
M  V30 26 H 3.1164 -2.6701 -2.9016 0
M  V30 END ATOM
M  V30 BEGIN BOND
M  V30 1 2 1 2
M  V30 2 2 1 3
M  V30 3 1 1 4
M  V30 4 1 1 5
M  V30 5 1 4 6
M  V30 6 1 4 7
M  V30 7 1 6 8
M  V30 8 1 7 9
M  V30 9 3 8 10
M  V30 10 2 9 11
M  V30 11 1 9 12
M  V30 12 1 11 13
M  V30 13 2 12 14
M  V30 14 2 13 15
M  V30 15 1 6 7
M  V30 16 1 14 15
M  V30 17 1 4 16
M  V30 18 1 5 17
M  V30 19 1 5 18
M  V30 20 1 5 19
M  V30 21 1 6 20
M  V30 22 1 7 21
M  V30 23 1 11 22
M  V30 24 1 12 23
M  V30 25 1 13 24
M  V30 26 1 14 25
M  V30 27 1 15 26
M  V30 END BOND
M  V30 BEGIN COLLECTION
M  V30 MDLV30/STEABS ATOMS=(3 4 6 7)
M  V30 END COLLECTION
M  V30 END CTAB
M  END
>  <Column 1>
2769

>  <level_0>
4004

>  <index>
4004

>  <Unnamed: 0>
4004

>  <NO.>
4016

>  <Name>
cytarabine

>  <IUPAC_name>
(1r-2r-3r)-2-methylsulfonyl-3-phenylcyclopropane-1-carbonitrile

>  <SMILES>
CS(=O)(=O)[C@H]1[C@@H](C#N)[C@@H]1c1ccccc1

>  <CID>
100000596

>  <logBB>


>  <BBB+/BBB->
BBB+

>  <Inchi>
InChI=1S/C11H11NO2S/c1-15(13-14)11-9(7-12)10(11)8-5-3-2-4-6-8/h2-6-9-11H-1H3/t9--10--11-/m0/s1

>  <threshold>
-1

>  <reference>
R16|R10|R10|

>  <group>
B

>  <Class>
1

>  <ABC>
11.57

>  <ABCGG>
10.99

>  <nAcid>
0

>  <nBase>
0

>  <nAromAtom>
6

>  <nAromBond>
6

>  <nAtom>
26

>  <nHeavyAtom>
15

>  <nSpiro>
0

>  <nBridgehead>
0

>  <nHetero>
4

>  <nN>
1

>  <nO>
2

>  <nF>
0

>  <BalabanJ>
1.97

>  <BertzCT>
501.14

>  <nBonds>
27

>  <nBondsO>
16

>  <nBondsS>
18

>  <nBondsD>
2

>  <nBondsT>
1

>  <nBondsA>
6

>  <nBondsM>
9

>  <nBondsKS>
21

>  <nBondsKD>
5

>  <RNCG>
0.23

>  <RPCG>
0.15

>  <FCSP3>
0.36

>  <SZ>
19.33

>  <Sm>
18.42

>  <Sv>
17.35

>  <Sse>
26.28

>  <Sp>
18.75

>  <Si>
28.91

>  <MZ>
0.74

>  <Mm>
0.71

>  <Mv>
0.67

>  <Mse>
1.01

>  <Mp>
0.72

>  <Mi>
1.11

>  <NsCH3>
1

>  <NdCH2>
0

>  <NssCH2>
0

>  <NtCH>
0

>  <NdsCH>
0

>  <NaaCH>
5

>  <NsssCH>
3

>  <NddC>
0

>  <NtsC>
1

>  <NdssC>
0

>  <NaasC>
1

>  <NaaaC>
0

>  <NssssC>
0

>  <NsNH3>
0

>  <NsNH2>
0

>  <NssNH2>
0

>  <NdNH>
0

>  <NssNH>
0

>  <NaaNH>
0

>  <NtN>
1

>  <NsssNH>
0

>  <NdsN>
0

>  <NaaN>
0

>  <NsssN>
0

>  <NddsN>
0

>  <NaasN>
0

>  <NssssN>
0

>  <NsOH>
0

>  <NdO>
2

>  <NssO>
0

>  <NaaO>
0

>  <NsF>
0

>  <NsSiH3>
0

>  <NssSiH2>
0

>  <NsssSiH>
0

>  <NssssSi>
0

>  <NsPH2>
0

>  <NssPH>
0

>  <NsssP>
0

>  <NdsssP>
0

>  <NsssssP>
0

>  <NsSH>
0

>  <NdS>
0

>  <NssS>
0

>  <NaaS>
0

>  <NdssS>
0

>  <NddssS>
1

>  <NsCl>
0

>  <NsBr>
0

>  <NsI>
0

>  <fragCpx>
46.04

>  <fMF>
0.35

>  <nHBAcc>
3

>  <nHBDon>
0

>  <Kier1>
11.48

>  <Kier2>
4.11

>  <Lipinski>
1

>  <GhoseFilter>
1

>  <FilterItLogS>
-2.18

>  <VMcGowan>
160.7

>  <LabuteASA>
89.27

>  <PEOE_VSA1>
0

>  <PEOE_VSA2>
0

>  <PEOE_VSA3>
8.42

>  <PEOE_VSA4>
5.26

>  <PEOE_VSA5>
0

>  <PEOE_VSA6>
30.33

>  <PEOE_VSA7>
5.56

>  <PEOE_VSA8>
12.17

>  <PEOE_VSA9>
17.24

>  <PEOE_VSA10>
0

>  <PEOE_VSA11>
9.84

>  <PEOE_VSA12>
0

>  <PEOE_VSA13>
0

>  <SMR_VSA1>
8.42

>  <SMR_VSA2>
5.26

>  <SMR_VSA3>
0

>  <SMR_VSA4>
5.92

>  <SMR_VSA5>
11.17

>  <SMR_VSA6>
6.26

>  <SMR_VSA7>
35.9

>  <SMR_VSA8>
0

>  <SMR_VSA9>
6.07

>  <SlogP_VSA1>
0

>  <SlogP_VSA2>
19.92

>  <SlogP_VSA3>
9.84

>  <SlogP_VSA4>
17.25

>  <SlogP_VSA5>
11.48

>  <SlogP_VSA6>
30.33

>  <SlogP_VSA7>
0

>  <SlogP_VSA8>
0

>  <SlogP_VSA9>
0

>  <SlogP_VSA10>
0

>  <SlogP_VSA11>
0

>  <EState_VSA1>
15.09

>  <EState_VSA2>
11.84

>  <EState_VSA3>
0

>  <EState_VSA4>
5.56

>  <EState_VSA5>
6.26

>  <EState_VSA6>
0

>  <EState_VSA7>
30.33

>  <EState_VSA8>
6.07

>  <EState_VSA9>
5.26

>  <EState_VSA10>
8.42

>  <VSA_EState1>
22.79

>  <VSA_EState2>
0

>  <VSA_EState3>
8.35

>  <VSA_EState4>
0.94

>  <VSA_EState5>
-0.51

>  <VSA_EState6>
11.42

>  <VSA_EState7>
1.2

>  <VSA_EState8>
0

>  <VSA_EState9>
-3.11

>  <apol>
31.31

>  <bpol>
18.26

>  <nRing>
2

>  <nHRing>
0

>  <naRing>
1

>  <naHRing>
0

>  <nARing 2>
1

>  <nAHRing 2>
0

>  <nFRing>
0

>  <nFHRing>
0

>  <nFaRing>
0

>  <nFaHRing>
0

>  <nFARing 2>
0

>  <nFAHRing 2>
0

>  <nRot>
2

>  <SLogP>
1.34

>  <SMR>
56.92

>  <TopoPSA(NO)>
57.93

>  <TopoPSA>
66.31

>  <JGI1>
0.22

>  <JGI2>
0.1

>  <JGI3>
0.11

>  <JGI4>
0.06

>  <JGI5>
0.02

>  <Diameter>
7

>  <Radius>
4

>  <TMWC10>
103.81

>  <TSRW10>
68.36

>  <MW>
221.05

>  <AMW>
8.5

>  <WPath>
359

>  <WPol>
20

>  <Zagreb1>
80

>  <Zagreb2>
96

>  <mZagreb2>
3.28

>  <yes>


>  <nAR-cont>
0.816016

>  <nHA-cont>
0.92539861

>  <MWHBN>
0.201779014

>  <MWHBN-cont>
0.999871008

>  <TPSA-cont>
0.537115024

>  <pka_cont>
0.97

>  <yes.1>


>  <BBB_SCORE>
4.80045117

>  <MMFF94 Energy>
9.9775

$$$$
Compound 2265
Actelion Java MolfileCreator 2.0

  0  0  0  0  0  0              0 V3000
M  V30 BEGIN CTAB
M  V30 COUNTS 30 32 0 0 0
M  V30 BEGIN ATOM
M  V30 1 S -1.1645 -0.2494 2.2468 0
M  V30 2 O -1.0964 0.949 1.4449 0
M  V30 3 O -2.2896 -1.1577 2.1508 0
M  V30 4 C 0.2755 -1.2774 1.9361 0 CFG=2
M  V30 5 C -0.9988 0.2172 3.9492 0
M  V30 6 C 1.5745 -0.5798 1.6252 0
M  V30 7 C 0.8397 -1.361 0.5401 0 CFG=2
M  V30 8 C 1.7139 0.8461 1.6006 0
M  V30 9 C 2.7572 -1.1862 2.176 0
M  V30 10 C 0.2165 -0.753 -0.6967 0
M  V30 11 N 1.8885 1.9922 1.6439 0
M  V30 12 N 3.6767 -1.7199 2.639 0
M  V30 13 C 0.8955 0.2001 -1.4801 0
M  V30 14 C -1.1103 -1.0882 -1.0762 0
M  V30 15 C 0.2572 0.7526 -2.5735 0
M  V30 16 C -1.7376 -0.5139 -2.189 0
M  V30 17 O 0.7926 1.6716 -3.4215 0
M  V30 18 C -1.0244 0.4064 -2.9182 0
M  V30 19 C -0.3178 1.8915 -4.3164 0
M  V30 20 O -1.4628 1.064 -4.0234 0
M  V30 21 H 0.2981 -2.1901 2.5198 0
M  V30 22 H -0.0974 0.8199 4.0696 0
M  V30 23 H -0.9431 -0.6865 4.5587 0
M  V30 24 H -1.8776 0.8022 4.2289 0
M  V30 25 H 1.2744 -2.3367 0.305 0
M  V30 26 H 1.9117 0.5078 -1.2563 0
M  V30 27 H -1.6746 -1.8134 -0.4901 0
M  V30 28 H -2.7533 -0.7785 -2.4602 0
M  V30 29 H 0.0119 1.6821 -5.3404 0
M  V30 30 H -0.6185 2.944 -4.2521 0
M  V30 END ATOM
M  V30 BEGIN BOND
M  V30 1 2 1 2
M  V30 2 2 1 3
M  V30 3 1 1 4
M  V30 4 1 1 5
M  V30 5 1 4 6
M  V30 6 1 4 7
M  V30 7 1 6 8
M  V30 8 1 6 9
M  V30 9 1 7 10
M  V30 10 3 8 11
M  V30 11 3 9 12
M  V30 12 2 10 13
M  V30 13 1 10 14
M  V30 14 1 13 15
M  V30 15 2 14 16
M  V30 16 1 15 17
M  V30 17 2 15 18
M  V30 18 1 17 19
M  V30 19 1 18 20
M  V30 20 1 6 7
M  V30 21 1 16 18
M  V30 22 1 19 20
M  V30 23 1 4 21
M  V30 24 1 5 22
M  V30 25 1 5 23
M  V30 26 1 5 24
M  V30 27 1 7 25
M  V30 28 1 13 26
M  V30 29 1 14 27
M  V30 30 1 16 28
M  V30 31 1 19 29
M  V30 32 1 19 30
M  V30 END BOND
M  V30 BEGIN COLLECTION
M  V30 MDLV30/STEABS ATOMS=(2 4 7)
M  V30 END COLLECTION
M  V30 END CTAB
M  END
>  <Column 1>
2770

>  <level_0>
4005

>  <index>
4005

>  <Unnamed: 0>
4005

>  <NO.>
4017

>  <Name>
ribavirin

>  <IUPAC_name>
(2s-3s)-2-(1-3-benzodioxol-5-yl)-3-methylsulfonylcyclopropane-1-1-dicarbonitrile

>  <SMILES>
CS(=O)(=O)[C@H]1[C@@H](c2ccc3c(c2)OCO3)C1(C#N)C#N

>  <CID>
100005064

>  <logBB>


>  <BBB+/BBB->
BBB+

>  <Inchi>
InChI=1S/C13H10N2O4S/c1-20(16-17)12-11(13(12-5-14)6-15)8-2-3-9-10(4-8)19-7-18-9/h2-4-11-12H-7H2-1H3/t11--12+/m1/s1

>  <threshold>
-1

>  <reference>
R16|R10|

>  <group>
B

>  <Class>
1

>  <ABC>
15.73

>  <ABCGG>
14.57

>  <nAcid>
0

>  <nBase>
0

>  <nAromAtom>
6

>  <nAromBond>
6

>  <nAtom>
30

>  <nHeavyAtom>
20

>  <nSpiro>
0

>  <nBridgehead>
0

>  <nHetero>
7

>  <nN>
2

>  <nO>
4

>  <nF>
0

>  <BalabanJ>
1.75

>  <BertzCT>
758.54

>  <nBonds>
32

>  <nBondsO>
22

>  <nBondsS>
22

>  <nBondsD>
2

>  <nBondsT>
2

>  <nBondsA>
6

>  <nBondsM>
10

>  <nBondsKS>
25

>  <nBondsKD>
5

>  <RNCG>
0.24

>  <RPCG>
0.12

>  <FCSP3>
0.38

>  <SZ>
25

>  <Sm>
24.17

>  <Sv>
21.27

>  <Sse>
31.16

>  <Sp>
21.97

>  <Si>
33.42

>  <MZ>
0.83

>  <Mm>
0.81

>  <Mv>
0.71

>  <Mse>
1.04

>  <Mp>
0.73

>  <Mi>
1.11

>  <NsCH3>
1

>  <NdCH2>
0

>  <NssCH2>
1

>  <NtCH>
0

>  <NdsCH>
0

>  <NaaCH>
3

>  <NsssCH>
2

>  <NddC>
0

>  <NtsC>
2

>  <NdssC>
0

>  <NaasC>
3

>  <NaaaC>
0

>  <NssssC>
1

>  <NsNH3>
0

>  <NsNH2>
0

>  <NssNH2>
0

>  <NdNH>
0

>  <NssNH>
0

>  <NaaNH>
0

>  <NtN>
2

>  <NsssNH>
0

>  <NdsN>
0

>  <NaaN>
0

>  <NsssN>
0

>  <NddsN>
0

>  <NaasN>
0

>  <NssssN>
0

>  <NsOH>
0

>  <NdO>
2

>  <NssO>
2

>  <NaaO>
0

>  <NsF>
0

>  <NsSiH3>
0

>  <NssSiH2>
0

>  <NsssSiH>
0

>  <NssssSi>
0

>  <NsPH2>
0

>  <NssPH>
0

>  <NsssP>
0

>  <NdsssP>
0

>  <NsssssP>
0

>  <NsSH>
0

>  <NdS>
0

>  <NssS>
0

>  <NaaS>
0

>  <NdssS>
0

>  <NddssS>
1

>  <NsCl>
0

>  <NsBr>
0

>  <NsI>
0

>  <fragCpx>
104.07

>  <fMF>
0.4

>  <nHBAcc>
6

>  <nHBDon>
0

>  <Kier1>
14.92

>  <Kier2>
5.03

>  <Lipinski>
1

>  <GhoseFilter>
1

>  <FilterItLogS>
-2.53

>  <VMcGowan>
191.14

>  <LabuteASA>
115.61

>  <PEOE_VSA1>
9.47

>  <PEOE_VSA2>
0

>  <PEOE_VSA3>
8.42

>  <PEOE_VSA4>
10.52

>  <PEOE_VSA5>
0

>  <PEOE_VSA6>
6.07

>  <PEOE_VSA7>
17.7

>  <PEOE_VSA8>
12.17

>  <PEOE_VSA9>
12.14

>  <PEOE_VSA10>
5.25

>  <PEOE_VSA11>
26.75

>  <PEOE_VSA12>
6.79

>  <PEOE_VSA13>
0

>  <SMR_VSA1>
17.89

>  <SMR_VSA2>
10.52

>  <SMR_VSA3>
0

>  <SMR_VSA4>
5.41

>  <SMR_VSA5>
11.17

>  <SMR_VSA6>
13.05

>  <SMR_VSA7>
23.76

>  <SMR_VSA8>
0

>  <SMR_VSA9>
23.64

>  <SlogP_VSA1>
9.47

>  <SlogP_VSA2>
26.72

>  <SlogP_VSA3>
9.84

>  <SlogP_VSA4>
28.08

>  <SlogP_VSA5>
11.48

>  <SlogP_VSA6>
18.2

>  <SlogP_VSA7>
0

>  <SlogP_VSA8>
0

>  <SlogP_VSA9>
0

>  <SlogP_VSA10>
0

>  <SlogP_VSA11>
11.5

>  <EState_VSA1>
26.42

>  <EState_VSA2>
6.79

>  <EState_VSA3>
17.06

>  <EState_VSA4>
6.26

>  <EState_VSA5>
0

>  <EState_VSA6>
18.2

>  <EState_VSA7>
12.14

>  <EState_VSA8>
0

>  <EState_VSA9>
9.47

>  <EState_VSA10>
18.94

>  <VSA_EState1>
33.99

>  <VSA_EState2>
0

>  <VSA_EState3>
17.45

>  <VSA_EState4>
-0.91

>  <VSA_EState5>
0.43

>  <VSA_EState6>
8.7

>  <VSA_EState7>
1.05

>  <VSA_EState8>
0.11

>  <VSA_EState9>
-3.49

>  <apol>
36.69

>  <bpol>
21.3

>  <nRing>
3

>  <nHRing>
1

>  <naRing>
1

>  <naHRing>
0

>  <nARing 2>
2

>  <nAHRing 2>
1

>  <nFRing>
1

>  <nFHRing>
1

>  <nFaRing>
0

>  <nFaHRing>
0

>  <nFARing 2>
1

>  <nFAHRing 2>
1

>  <nRot>
2

>  <SLogP>
0.96

>  <SMR>
67.6

>  <TopoPSA(NO)>
100.18

>  <TopoPSA>
108.56

>  <JGI1>
0.27

>  <JGI2>
0.13

>  <JGI3>
0.11

>  <JGI4>
0.05

>  <JGI5>
0.02

>  <Diameter>
8

>  <Radius>
4

>  <TMWC10>
119.23

>  <TSRW10>
76.59

>  <MW>
290.04

>  <AMW>
9.67

>  <WPath>
754

>  <WPol>
32

>  <Zagreb1>
114

>  <Zagreb2>
143

>  <mZagreb2>
4.33

>  <yes>


>  <nAR-cont>
1

>  <nHA-cont>
0.999629945

>  <MWHBN>
0.352307835

>  <MWHBN-cont>
0.661596456

>  <TPSA-cont>
0.242183788

>  <pka_cont>
0.97

>  <yes.1>


>  <BBB_SCORE>
3.961392205

>  <MMFF94 Energy>
-12.213

$$$$
Compound 2266
Actelion Java MolfileCreator 2.0

  0  0  0  0  0  0              0 V3000
M  V30 BEGIN CTAB
M  V30 COUNTS 46 47 0 0 0
M  V30 BEGIN ATOM
M  V30 1 S -1.5139 2.5508 -2.471 0
M  V30 2 C -0.0367 2.3971 -3.5357 0
M  V30 3 C -2.7105 1.7346 -3.5562 0
M  V30 4 C 1.2097 2.9957 -2.8792 0
M  V30 5 C 1.9223 2.0572 -1.8796 0 CFG=2
M  V30 6 N 1.0397 1.6715 -0.7816 0
M  V30 7 C 3.2169 2.7172 -1.3547 0
M  V30 8 C 1.3507 0.6629 0.1041 0
M  V30 9 O 4.0761 3.09 -2.4295 0
M  V30 10 O 2.4131 0.0516 0.0701 0
M  V30 11 C 0.2561 0.3874 1.1268 0
M  V30 12 C -0.9094 -0.369 0.464 0
M  V30 13 C 0.8094 -0.3948 2.3322 0
M  V30 14 C -1.9802 -0.7328 1.4938 0
M  V30 15 C -0.31 -0.7535 3.31 0
M  V30 16 N -1.3568 -1.4603 2.5871 0
M  V30 17 C -1.3375 -2.8407 2.5544 0
M  V30 18 N -2.1117 -3.4823 1.6612 0
M  V30 19 N -0.5477 -3.5017 3.4185 0
M  V30 20 C -2.077 -4.8282 1.6468 0
M  V30 21 C -0.5424 -4.8469 3.3693 0
M  V30 22 C -1.2985 -5.575 2.4901 0
M  V30 23 H -0.2463 2.9446 -4.4608 0
M  V30 24 H 0.1274 1.3452 -3.7904 0
M  V30 25 H -3.6911 1.7322 -3.0729 0
M  V30 26 H -2.4114 0.6997 -3.7409 0
M  V30 27 H -2.7914 2.2709 -4.5053 0
M  V30 28 H 0.9707 3.9544 -2.4004 0
M  V30 29 H 1.9124 3.2264 -3.6901 0
M  V30 30 H 2.2018 1.1396 -2.4138 0
M  V30 31 H 0.1188 2.0994 -0.7417 0
M  V30 32 H 3.7715 2.0344 -0.7042 0
M  V30 33 H 2.9821 3.617 -0.7749 0
M  V30 34 H 4.9192 3.3633 -2.0275 0
M  V30 35 H -0.1125 1.3572 1.4893 0
M  V30 36 H -1.3626 0.2371 -0.3266 0
M  V30 37 H -0.5311 -1.2792 -0.0194 0
M  V30 38 H 1.3038 -1.3135 1.9905 0
M  V30 39 H 1.573 0.2011 2.8461 0
M  V30 40 H -2.8064 -1.2744 1.0195 0
M  V30 41 H -2.423 0.1899 1.891 0
M  V30 42 H 0.0863 -1.3103 4.1665 0
M  V30 43 H -0.7315 0.1699 3.728 0
M  V30 44 H -2.7189 -5.2981 0.9083 0
M  V30 45 H 0.113 -5.3318 4.086 0
M  V30 46 H -1.2823 -6.6543 2.4644 0
M  V30 END ATOM
M  V30 BEGIN BOND
M  V30 1 1 1 2
M  V30 2 1 1 3
M  V30 3 1 2 4
M  V30 4 1 4 5
M  V30 5 1 5 6
M  V30 6 1 5 7
M  V30 7 1 6 8
M  V30 8 1 7 9
M  V30 9 2 8 10
M  V30 10 1 8 11
M  V30 11 1 11 12
M  V30 12 1 11 13
M  V30 13 1 12 14
M  V30 14 1 13 15
M  V30 15 1 14 16
M  V30 16 1 16 17
M  V30 17 2 17 18
M  V30 18 1 17 19
M  V30 19 1 18 20
M  V30 20 2 19 21
M  V30 21 2 20 22
M  V30 22 1 15 16
M  V30 23 1 21 22
M  V30 24 1 2 23
M  V30 25 1 2 24
M  V30 26 1 3 25
M  V30 27 1 3 26
M  V30 28 1 3 27
M  V30 29 1 4 28
M  V30 30 1 4 29
M  V30 31 1 5 30
M  V30 32 1 6 31
M  V30 33 1 7 32
M  V30 34 1 7 33
M  V30 35 1 9 34
M  V30 36 1 11 35
M  V30 37 1 12 36
M  V30 38 1 12 37
M  V30 39 1 13 38
M  V30 40 1 13 39
M  V30 41 1 14 40
M  V30 42 1 14 41
M  V30 43 1 15 42
M  V30 44 1 15 43
M  V30 45 1 20 44
M  V30 46 1 21 45
M  V30 47 1 22 46
M  V30 END BOND
M  V30 BEGIN COLLECTION
M  V30 MDLV30/STEABS ATOMS=(1 5)
M  V30 END COLLECTION
M  V30 END CTAB
M  END
>  <Column 1>
2773

>  <level_0>
4008

>  <index>
4008

>  <Unnamed: 0>
4008

>  <NO.>
4020

>  <Name>
triamcinolone

>  <IUPAC_name>
n-[(2s)-1-hydroxy-4-methylsulfanylbutan-2-yl]-1-pyrimidin-2-ylpiperidine-4-carboxamide

>  <SMILES>
CSCC[C@@H](CO)NC(=O)C1CCN(c2ncccn2)CC1

>  <CID>
100005544

>  <logBB>


>  <BBB+/BBB->
BBB-

>  <Inchi>
InChI=1S/C15H24N4O2S/c1-22-10-5-13(11-20)18-14(21)12-3-8-19(9-4-12)15-16-6-2-7-17-15/h2-6-7-12-13-20H-3-5-8-11H2-1H3-(H-18-21)/t13-/m0/s1

>  <threshold>
-1

>  <reference>
R16|R10|R10|

>  <group>
B

>  <Class>
-1

>  <ABC>
16.29

>  <ABCGG>
13.22

>  <nAcid>
0

>  <nBase>
0

>  <nAromAtom>
6

>  <nAromBond>
6

>  <nAtom>
46

>  <nHeavyAtom>
22

>  <nSpiro>
0

>  <nBridgehead>
0

>  <nHetero>
7

>  <nN>
4

>  <nO>
2

>  <nF>
0

>  <BalabanJ>
1.7

>  <BertzCT>
452.12

>  <nBonds>
47

>  <nBondsO>
23

>  <nBondsS>
40

>  <nBondsD>
1

>  <nBondsT>
0

>  <nBondsA>
6

>  <nBondsM>
7

>  <nBondsKS>
43

>  <nBondsKD>
4

>  <RNCG>
0.19

>  <RPCG>
0.11

>  <FCSP3>
0.67

>  <SZ>
29

>  <Sm>
27.01

>  <Sv>
27.15

>  <Sse>
46.04

>  <Sp>
29.91

>  <Si>
52.49

>  <MZ>
0.63

>  <Mm>
0.59

>  <Mv>
0.59

>  <Mse>
1

>  <Mp>
0.65

>  <Mi>
1.14

>  <NsCH3>
1

>  <NdCH2>
0

>  <NssCH2>
7

>  <NtCH>
0

>  <NdsCH>
0

>  <NaaCH>
3

>  <NsssCH>
2

>  <NddC>
0

>  <NtsC>
0

>  <NdssC>
1

>  <NaasC>
1

>  <NaaaC>
0

>  <NssssC>
0

>  <NsNH3>
0

>  <NsNH2>
0

>  <NssNH2>
0

>  <NdNH>
0

>  <NssNH>
1

>  <NaaNH>
0

>  <NtN>
0

>  <NsssNH>
0

>  <NdsN>
0

>  <NaaN>
2

>  <NsssN>
1

>  <NddsN>
0

>  <NaasN>
0

>  <NssssN>
0

>  <NsOH>
1

>  <NdO>
1

>  <NssO>
0

>  <NaaO>
0

>  <NsF>
0

>  <NsSiH3>
0

>  <NssSiH2>
0

>  <NsssSiH>
0

>  <NssssSi>
0

>  <NsPH2>
0

>  <NssPH>
0

>  <NsssP>
0

>  <NdsssP>
0

>  <NsssssP>
0

>  <NsSH>
0

>  <NdS>
0

>  <NssS>
1

>  <NaaS>
0

>  <NdssS>
0

>  <NddssS>
0

>  <NsCl>
0

>  <NsBr>
0

>  <NsI>
0

>  <fragCpx>
67.07

>  <fMF>
0.26

>  <nHBAcc>
6

>  <nHBDon>
2

>  <Kier1>
18.34

>  <Kier2>
9.99

>  <Lipinski>
1

>  <GhoseFilter>
1

>  <FilterItLogS>
-2.86

>  <VMcGowan>
251.3

>  <LabuteASA>
135.27

>  <PEOE_VSA1>
15.32

>  <PEOE_VSA2>
4.79

>  <PEOE_VSA3>
9.97

>  <PEOE_VSA4>
11.76

>  <PEOE_VSA5>
0

>  <PEOE_VSA6>
0

>  <PEOE_VSA7>
37.34

>  <PEOE_VSA8>
31.4

>  <PEOE_VSA9>
12.65

>  <PEOE_VSA10>
0

>  <PEOE_VSA11>
0

>  <PEOE_VSA12>
11.86

>  <PEOE_VSA13>
0

>  <SMR_VSA1>
9.9

>  <SMR_VSA2>
0

>  <SMR_VSA3>
15.28

>  <SMR_VSA4>
5.92

>  <SMR_VSA5>
25.3

>  <SMR_VSA6>
36.6

>  <SMR_VSA7>
18.46

>  <SMR_VSA8>
0

>  <SMR_VSA9>
0

>  <SlogP_VSA1>
10.22

>  <SlogP_VSA2>
58.73

>  <SlogP_VSA3>
4.79

>  <SlogP_VSA4>
5.92

>  <SlogP_VSA5>
19.26

>  <SlogP_VSA6>
18.46

>  <SlogP_VSA7>
0

>  <SlogP_VSA8>
0

>  <SlogP_VSA9>
0

>  <SlogP_VSA10>
5.95

>  <SlogP_VSA11>
0

>  <EState_VSA1>
0

>  <EState_VSA2>
24.47

>  <EState_VSA3>
0

>  <EState_VSA4>
44.05

>  <EState_VSA5>
0

>  <EState_VSA6>
30.22

>  <EState_VSA7>
6.26

>  <EState_VSA8>
20.18

>  <EState_VSA9>
0

>  <EState_VSA10>
9.9

>  <VSA_EState1>
0

>  <VSA_EState2>
22.9

>  <VSA_EState3>
12.32

>  <VSA_EState4>
0

>  <VSA_EState5>
1.75

>  <VSA_EState6>
1.67

>  <VSA_EState7>
7.89

>  <VSA_EState8>
1.58

>  <VSA_EState9>
0

>  <apol>
49.96

>  <bpol>
31.96

>  <nRing>
2

>  <nHRing>
2

>  <naRing>
1

>  <naHRing>
1

>  <nARing 2>
1

>  <nAHRing 2>
1

>  <nFRing>
0

>  <nFHRing>
0

>  <nFaRing>
0

>  <nFaHRing>
0

>  <nFARing 2>
0

>  <nFAHRing 2>
0

>  <nRot>
7

>  <SLogP>
0.92

>  <SMR>
88.98

>  <TopoPSA(NO)>
78.35

>  <TopoPSA>
103.65

>  <JGI1>
0.15

>  <JGI2>
0.08

>  <JGI3>
0.04

>  <JGI4>
0.03

>  <JGI5>
0.03

>  <Diameter>
14

>  <Radius>
7

>  <TMWC10>
116.63

>  <TSRW10>
55.23

>  <MW>
324.16

>  <AMW>
7.05

>  <WPath>
1227

>  <WPol>
30

>  <Zagreb1>
104

>  <Zagreb2>
117

>  <mZagreb2>
5.22

>  <yes>


>  <nAR-cont>
0.816016

>  <nHA-cont>
0.983774276

>  <MWHBN>
0.444334746

>  <MWHBN-cont>
0.306380502

>  <TPSA-cont>
0.276458637

>  <pka_cont>
0.97

>  <yes.1>


>  <BBB_SCORE>
3.297278304

>  <MMFF94 Energy>
-73.541

$$$$
Compound 2267
Actelion Java MolfileCreator 2.0

  0  0  0  0  0  0              0 V3000
M  V30 BEGIN CTAB
M  V30 COUNTS 42 44 0 0 0
M  V30 BEGIN ATOM
M  V30 1 O 1.5896 0.5561 1.192 0
M  V30 2 C 0.9473 0.5004 0.1419 0
M  V30 3 N 0.5937 1.6518 -0.5556 0
M  V30 4 C 0.557 -0.8344 -0.4845 0
M  V30 5 C -0.1145 1.6502 -1.8551 0
M  V30 6 C 0.8375 2.9672 0.0815 0
M  V30 7 C 0.6364 -2.0188 0.5025 0 CFG=1
M  V30 8 C 0.3018 2.8294 -2.6584 0
M  V30 9 C 1.6603 3.9176 -0.8163 0
M  V30 10 N -0.5284 -2.003 1.4156 0
M  V30 11 C 0.8217 -3.3313 -0.2739 0
M  V30 12 C 1.0964 3.848 -2.1838 0
M  V30 13 C 0.026 3.2034 -3.9856 0
M  V30 14 C -1.775 -2.5807 0.8795 0
M  V30 15 C -0.2221 -2.6379 2.7149 0
M  V30 16 N 1.2612 4.734 -3.2002 0
M  V30 17 N 0.6052 4.3634 -4.3175 0
M  V30 18 C -2.9234 -2.4437 1.8938 0
M  V30 19 C -1.4087 -2.5195 3.686 0
M  V30 20 O -2.5998 -3.0939 3.1299 0
M  V30 21 H -0.4481 -0.7698 -0.9125 0
M  V30 22 H 1.2583 -0.998 -1.3128 0
M  V30 23 H -1.1879 1.6913 -1.641 0
M  V30 24 H 0.0996 0.7348 -2.4122 0
M  V30 25 H -0.1513 3.4007 0.2812 0
M  V30 26 H 1.3383 2.8596 1.0487 0
M  V30 27 H 1.5477 -1.8859 1.1005 0
M  V30 28 H 2.7057 3.5892 -0.8405 0
M  V30 29 H 1.6283 4.9365 -0.4172 0
M  V30 30 H 1.7699 -3.3149 -0.8233 0
M  V30 31 H 0.8536 -4.1943 0.3987 0
M  V30 32 H 0.0235 -3.4903 -1.0066 0
M  V30 33 H -0.5697 2.6871 -4.7275 0
M  V30 34 H -1.6403 -3.6472 0.6616 0
M  V30 35 H -2.0694 -2.0769 -0.0465 0
M  V30 36 H 0.6478 -2.1567 3.1765 0
M  V30 37 H 0.0136 -3.6991 2.5683 0
M  V30 38 H 1.7927 5.5989 -3.215 0
M  V30 39 H -3.8256 -2.9205 1.4971 0
M  V30 40 H -3.1615 -1.3907 2.0878 0
M  V30 41 H -1.6027 -1.4724 3.9492 0
M  V30 42 H -1.184 -3.058 4.6122 0
M  V30 END ATOM
M  V30 BEGIN BOND
M  V30 1 2 1 2
M  V30 2 1 2 3
M  V30 3 1 2 4
M  V30 4 1 3 5
M  V30 5 1 3 6
M  V30 6 1 4 7
M  V30 7 1 5 8
M  V30 8 1 6 9
M  V30 9 1 7 10
M  V30 10 1 7 11
M  V30 11 2 8 12
M  V30 12 1 8 13
M  V30 13 1 10 14
M  V30 14 1 10 15
M  V30 15 1 12 16
M  V30 16 2 13 17
M  V30 17 1 14 18
M  V30 18 1 15 19
M  V30 19 1 18 20
M  V30 20 1 9 12
M  V30 21 1 16 17
M  V30 22 1 19 20
M  V30 23 1 4 21
M  V30 24 1 4 22
M  V30 25 1 5 23
M  V30 26 1 5 24
M  V30 27 1 6 25
M  V30 28 1 6 26
M  V30 29 1 7 27
M  V30 30 1 9 28
M  V30 31 1 9 29
M  V30 32 1 11 30
M  V30 33 1 11 31
M  V30 34 1 11 32
M  V30 35 1 13 33
M  V30 36 1 14 34
M  V30 37 1 14 35
M  V30 38 1 15 36
M  V30 39 1 15 37
M  V30 40 1 16 38
M  V30 41 1 18 39
M  V30 42 1 18 40
M  V30 43 1 19 41
M  V30 44 1 19 42
M  V30 END BOND
M  V30 BEGIN COLLECTION
M  V30 MDLV30/STEABS ATOMS=(1 7)
M  V30 END COLLECTION
M  V30 END CTAB
M  END
>  <Column 1>
2774

>  <level_0>
4009

>  <index>
4009

>  <Unnamed: 0>
4009

>  <NO.>
4021

>  <Name>
polythiazide

>  <IUPAC_name>
(3s)-3-morpholin-4-yl-1-(1-4-6-7-tetrahydropyrazolo[4-3-c]pyridin-5-yl)butan-1-one

>  <SMILES>
C[C@@H](CC(=O)N1CCc2[nH]ncc2C1)N1CCOCC1

>  <CID>
100004870

>  <logBB>


>  <BBB+/BBB->
BBB-

>  <Inchi>
InChI=1S/C14H22N4O2/c1-11(17-4-6-20-7-5-17)8-14(19)18-3-2-13-12(10-18)9-15-16-13/h9-11H-2-8-10H2-1H3-(H-15-16)/t11-/m0/s1

>  <threshold>
-1

>  <reference>
R16|R10|R10|

>  <group>
B

>  <Class>
1

>  <ABC>
15.65

>  <ABCGG>
13

>  <nAcid>
0

>  <nBase>
1

>  <nAromAtom>
5

>  <nAromBond>
5

>  <nAtom>
42

>  <nHeavyAtom>
20

>  <nSpiro>
0

>  <nBridgehead>
0

>  <nHetero>
6

>  <nN>
4

>  <nO>
2

>  <nF>
0

>  <BalabanJ>
1.47

>  <BertzCT>
467.49

>  <nBonds>
44

>  <nBondsO>
22

>  <nBondsS>
38

>  <nBondsD>
1

>  <nBondsT>
0

>  <nBondsA>
5

>  <nBondsM>
6

>  <nBondsKS>
41

>  <nBondsKD>
3

>  <RNCG>
0.21

>  <RPCG>
0.12

>  <FCSP3>
0.71

>  <SZ>
25

>  <Sm>
23.18

>  <Sv>
24.42

>  <Sse>
42.08

>  <Sp>
26.38

>  <Si>
48.15

>  <MZ>
0.6

>  <Mm>
0.55

>  <Mv>
0.58

>  <Mse>
1

>  <Mp>
0.63

>  <Mi>
1.15

>  <NsCH3>
1

>  <NdCH2>
0

>  <NssCH2>
8

>  <NtCH>
0

>  <NdsCH>
0

>  <NaaCH>
1

>  <NsssCH>
1

>  <NddC>
0

>  <NtsC>
0

>  <NdssC>
1

>  <NaasC>
2

>  <NaaaC>
0

>  <NssssC>
0

>  <NsNH3>
0

>  <NsNH2>
0

>  <NssNH2>
0

>  <NdNH>
0

>  <NssNH>
0

>  <NaaNH>
1

>  <NtN>
0

>  <NsssNH>
0

>  <NdsN>
0

>  <NaaN>
1

>  <NsssN>
2

>  <NddsN>
0

>  <NaasN>
0

>  <NssssN>
0

>  <NsOH>
0

>  <NdO>
1

>  <NssO>
1

>  <NaaO>
0

>  <NsF>
0

>  <NsSiH3>
0

>  <NssSiH2>
0

>  <NsssSiH>
0

>  <NssssSi>
0

>  <NsPH2>
0

>  <NssPH>
0

>  <NsssP>
0

>  <NdsssP>
0

>  <NsssssP>
0

>  <NsSH>
0

>  <NdS>
0

>  <NssS>
0

>  <NaaS>
0

>  <NdssS>
0

>  <NddssS>
0

>  <NsCl>
0

>  <NsBr>
0

>  <NsI>
0

>  <fragCpx>
104.06

>  <fMF>
0.43

>  <nHBAcc>
4

>  <nHBDon>
1

>  <Kier1>
14.92

>  <Kier2>
6.84

>  <Lipinski>
1

>  <GhoseFilter>
1

>  <FilterItLogS>
-2.22

>  <VMcGowan>
214.3

>  <LabuteASA>
118.63

>  <PEOE_VSA1>
9.64

>  <PEOE_VSA2>
14.79

>  <PEOE_VSA3>
0

>  <PEOE_VSA4>
5.1

>  <PEOE_VSA5>
0

>  <PEOE_VSA6>
0

>  <PEOE_VSA7>
6.92

>  <PEOE_VSA8>
56.32

>  <PEOE_VSA9>
19.41

>  <PEOE_VSA10>
0

>  <PEOE_VSA11>
0

>  <PEOE_VSA12>
5.91

>  <PEOE_VSA13>
0

>  <SMR_VSA1>
9.53

>  <SMR_VSA2>
0

>  <SMR_VSA3>
20

>  <SMR_VSA4>
0

>  <SMR_VSA5>
32.35

>  <SMR_VSA6>
32.85

>  <SMR_VSA7>
17.45

>  <SMR_VSA8>
0

>  <SMR_VSA9>
0

>  <SlogP_VSA1>
0

>  <SlogP_VSA2>
64.79

>  <SlogP_VSA3>
22.5

>  <SlogP_VSA4>
0

>  <SlogP_VSA5>
24.6

>  <SlogP_VSA6>
6.2

>  <SlogP_VSA7>
0

>  <SlogP_VSA8>
0

>  <SlogP_VSA9>
0

>  <SlogP_VSA10>
0

>  <SlogP_VSA11>
0

>  <EState_VSA1>
0

>  <EState_VSA2>
11.95

>  <EState_VSA3>
12.97

>  <EState_VSA4>
44.83

>  <EState_VSA5>
5.69

>  <EState_VSA6>
0

>  <EState_VSA7>
11.1

>  <EState_VSA8>
22.02

>  <EState_VSA9>
4.74

>  <EState_VSA10>
4.79

>  <VSA_EState1>
5.35

>  <VSA_EState2>
16.72

>  <VSA_EState3>
7.05

>  <VSA_EState4>
2.33

>  <VSA_EState5>
0.25

>  <VSA_EState6>
0.29

>  <VSA_EState7>
3.31

>  <VSA_EState8>
7.04

>  <VSA_EState9>
0

>  <apol>
44.05

>  <bpol>
28.66

>  <nRing>
3

>  <nHRing>
3

>  <naRing>
1

>  <naHRing>
1

>  <nARing 2>
2

>  <nAHRing 2>
2

>  <nFRing>
1

>  <nFHRing>
1

>  <nFaRing>
0

>  <nFaHRing>
0

>  <nFARing 2>
1

>  <nFAHRing 2>
1

>  <nRot>
3

>  <SLogP>
0.41

>  <SMR>
74.18

>  <TopoPSA(NO)>
61.46

>  <TopoPSA>
61.46

>  <JGI1>
0.16

>  <JGI2>
0.08

>  <JGI3>
0.04

>  <JGI4>
0.04

>  <JGI5>
0.03

>  <Diameter>
11

>  <Radius>
6

>  <TMWC10>
114.63

>  <TSRW10>
67.06

>  <MW>
278.17

>  <AMW>
6.62

>  <WPath>
868

>  <WPol>
28

>  <Zagreb1>
104

>  <Zagreb2>
121

>  <mZagreb2>
4.42

>  <yes>


>  <nAR-cont>
1

>  <nHA-cont>
0.999629945

>  <MWHBN>
0.299788424

>  <MWHBN-cont>
0.841370417

>  <TPSA-cont>
0.570971036

>  <pka_cont>
0.97

>  <yes.1>


>  <BBB_SCORE>
4.888627642

>  <MMFF94 Energy>
77.694

$$$$
Compound 2268
Actelion Java MolfileCreator 2.0

  0  0  0  0  0  0              0 V3000
M  V30 BEGIN CTAB
M  V30 COUNTS 50 53 0 0 0
M  V30 BEGIN ATOM
M  V30 1 O -0.5595 -2.6398 3.6811 0
M  V30 2 C -1.6524 -2.1988 3.3555 0
M  V30 3 C -1.9396 -1.6756 2.0081 0
M  V30 4 C -2.8544 -2.1354 4.2486 0
M  V30 5 C -3.2479 -1.3816 2.0073 0
M  V30 6 C -0.8779 -1.595 0.9719 0
M  V30 7 C -3.9543 -1.6779 3.2983 0
M  V30 8 C -3.9911 -0.8265 0.874 0
M  V30 9 C 0.0024 -0.3605 1.1695 0
M  V30 10 C -3.6034 0.3898 0.296 0
M  V30 11 C -5.1112 -1.4931 0.3627 0
M  V30 12 O -0.2995 0.5252 1.9732 0
M  V30 13 N 1.1407 -0.2542 0.3722 0
M  V30 14 C -4.3136 0.9214 -0.7824 0
M  V30 15 C -5.8206 -0.9611 -0.7168 0
M  V30 16 C 2.0322 0.878 0.634 0
M  V30 17 C 1.6297 -1.2905 -0.5483 0
M  V30 18 C -5.4206 0.2445 -1.2898 0
M  V30 19 C 2.8542 1.2193 -0.5565 0
M  V30 20 C 2.0162 -0.7018 -1.8976 0
M  V30 21 N 2.8402 0.469 -1.6952 0
M  V30 22 C 3.7423 2.2436 -0.8047 0
M  V30 23 N 3.6496 0.9223 -2.6664 0
M  V30 24 C 4.2118 2.0159 -2.1212 0
M  V30 25 C 5.1955 2.83 -2.9158 0 CFG=2
M  V30 26 O 5.0931 2.5443 -4.3176 0
M  V30 27 C 6.6331 2.5647 -2.4907 0
M  V30 28 H -2.6839 -1.4096 5.0489 0
M  V30 29 H -3.0718 -3.1216 4.6676 0
M  V30 30 H -0.2612 -2.4982 1.0302 0
M  V30 31 H -1.3112 -1.5507 -0.033 0
M  V30 32 H -4.7023 -2.4686 3.1733 0
M  V30 33 H -4.4601 -0.7902 3.6941 0
M  V30 34 H -2.7552 0.9453 0.6928 0
M  V30 35 H -5.4371 -2.4381 0.7906 0
M  V30 36 H -4.0061 1.8681 -1.2196 0
M  V30 37 H -6.6865 -1.4879 -1.1099 0
M  V30 38 H 1.454 1.7536 0.9489 0
M  V30 39 H 2.6847 0.5894 1.4665 0
M  V30 40 H 0.89 -2.0769 -0.7077 0
M  V30 41 H 2.4986 -1.7548 -0.0651 0
M  V30 42 H -5.975 0.6598 -2.1276 0
M  V30 43 H 1.1322 -0.3704 -2.4533 0
M  V30 44 H 2.5745 -1.4264 -2.4982 0
M  V30 45 H 4.0161 3.0458 -0.1331 0
M  V30 46 H 4.9678 3.8943 -2.7896 0
M  V30 47 H 4.5562 1.7244 -4.3499 0
M  V30 48 H 6.7918 2.8036 -1.434 0
M  V30 49 H 6.9028 1.5141 -2.6492 0
M  V30 50 H 7.3268 3.1625 -3.0919 0
M  V30 END ATOM
M  V30 BEGIN BOND
M  V30 1 2 1 2
M  V30 2 1 2 3
M  V30 3 1 2 4
M  V30 4 2 3 5
M  V30 5 1 3 6
M  V30 6 1 4 7
M  V30 7 1 5 8
M  V30 8 1 6 9
M  V30 9 2 8 10
M  V30 10 1 8 11
M  V30 11 2 9 12
M  V30 12 1 9 13
M  V30 13 1 10 14
M  V30 14 2 11 15
M  V30 15 1 13 16
M  V30 16 1 13 17
M  V30 17 2 14 18
M  V30 18 1 16 19
M  V30 19 1 17 20
M  V30 20 1 19 21
M  V30 21 2 19 22
M  V30 22 1 21 23
M  V30 23 1 22 24
M  V30 24 1 24 25
M  V30 25 1 25 26
M  V30 26 1 25 27
M  V30 27 1 5 7
M  V30 28 1 15 18
M  V30 29 1 20 21
M  V30 30 2 23 24
M  V30 31 1 4 28
M  V30 32 1 4 29
M  V30 33 1 6 30
M  V30 34 1 6 31
M  V30 35 1 7 32
M  V30 36 1 7 33
M  V30 37 1 10 34
M  V30 38 1 11 35
M  V30 39 1 14 36
M  V30 40 1 15 37
M  V30 41 1 16 38
M  V30 42 1 16 39
M  V30 43 1 17 40
M  V30 44 1 17 41
M  V30 45 1 18 42
M  V30 46 1 20 43
M  V30 47 1 20 44
M  V30 48 1 22 45
M  V30 49 1 25 46
M  V30 50 1 26 47
M  V30 51 1 27 48
M  V30 52 1 27 49
M  V30 53 1 27 50
M  V30 END BOND
M  V30 BEGIN COLLECTION
M  V30 MDLV30/STEABS ATOMS=(1 25)
M  V30 END COLLECTION
M  V30 END CTAB
M  END
>  <Column 1>
2775

>  <level_0>
4010

>  <index>
4010

>  <Unnamed: 0>
4010

>  <NO.>
4022

>  <Name>
ceftazidime

>  <IUPAC_name>
2-[2-[2-[(1r)-1-hydroxyethyl]-6-7-dihydro-4h-pyrazolo[1-5-a]pyrazin-5-yl]-2-oxoethyl]-3-phenylcyclopent-2-en-1-one

>  <SMILES>
C[C@@H](O)c1cc2n(n1)CCN(C(=O)CC1=C(c3ccccc3)CCC1=O)C2

>  <CID>
100002650

>  <logBB>


>  <BBB+/BBB->
BBB+

>  <Inchi>
InChI=1S/C21H23N3O3/c1-14(25)19-11-16-13-23(9-10-24(16)22-19)21(27)12-18-17(7-8-20(18)26)15-5-3-2-4-6-15/h2-6-11-14-25H-7-10-12-13H2-1H3/t14-/m1/s1

>  <threshold>
-1

>  <reference>
R16|R10|

>  <group>
B

>  <Class>
1

>  <ABC>
21.41

>  <ABCGG>
17.28

>  <nAcid>
0

>  <nBase>
0

>  <nAromAtom>
11

>  <nAromBond>
11

>  <nAtom>
50

>  <nHeavyAtom>
27

>  <nSpiro>
0

>  <nBridgehead>
0

>  <nHetero>
6

>  <nN>
3

>  <nO>
3

>  <nF>
0

>  <BalabanJ>
1.33

>  <BertzCT>
912.01

>  <nBonds>
53

>  <nBondsO>
30

>  <nBondsS>
39

>  <nBondsD>
3

>  <nBondsT>
0

>  <nBondsA>
11

>  <nBondsM>
14

>  <nBondsKS>
45

>  <nBondsKD>
8

>  <RNCG>
0.18

>  <RPCG>
0.11

>  <FCSP3>
0.38

>  <SZ>
32.33

>  <Sm>
30.42

>  <Sv>
31.65

>  <Sse>
50.19

>  <Sp>
33.6

>  <Si>
56.28

>  <MZ>
0.65

>  <Mm>
0.61

>  <Mv>
0.63

>  <Mse>
1

>  <Mp>
0.67

>  <Mi>
1.13

>  <NsCH3>
1

>  <NdCH2>
0

>  <NssCH2>
6

>  <NtCH>
0

>  <NdsCH>
0

>  <NaaCH>
6

>  <NsssCH>
1

>  <NddC>
0

>  <NtsC>
0

>  <NdssC>
4

>  <NaasC>
3

>  <NaaaC>
0

>  <NssssC>
0

>  <NsNH3>
0

>  <NsNH2>
0

>  <NssNH2>
0

>  <NdNH>
0

>  <NssNH>
0

>  <NaaNH>
0

>  <NtN>
0

>  <NsssNH>
0

>  <NdsN>
0

>  <NaaN>
1

>  <NsssN>
1

>  <NddsN>
0

>  <NaasN>
1

>  <NssssN>
0

>  <NsOH>
1

>  <NdO>
2

>  <NssO>
0

>  <NaaO>
0

>  <NsF>
0

>  <NsSiH3>
0

>  <NssSiH2>
0

>  <NsssSiH>
0

>  <NssssSi>
0

>  <NsPH2>
0

>  <NssPH>
0

>  <NsssP>
0

>  <NdsssP>
0

>  <NsssssP>
0

>  <NsSH>
0

>  <NdS>
0

>  <NssS>
0

>  <NaaS>
0

>  <NdssS>
0

>  <NddssS>
0

>  <NsCl>
0

>  <NsBr>
0

>  <NsI>
0

>  <fragCpx>
198.06

>  <fMF>
0.44

>  <nHBAcc>
5

>  <nHBDon>
1

>  <Kier1>
20.28

>  <Kier2>
8.79

>  <Lipinski>
1

>  <GhoseFilter>
1

>  <FilterItLogS>
-3.6

>  <VMcGowan>
276.46

>  <LabuteASA>
157.65

>  <PEOE_VSA1>
10.01

>  <PEOE_VSA2>
14.27

>  <PEOE_VSA3>
0

>  <PEOE_VSA4>
5.1

>  <PEOE_VSA5>
0

>  <PEOE_VSA6>
30.33

>  <PEOE_VSA7>
30.55

>  <PEOE_VSA8>
18.54

>  <PEOE_VSA9>
37

>  <PEOE_VSA10>
0

>  <PEOE_VSA11>
5.78

>  <PEOE_VSA12>
5.91

>  <PEOE_VSA13>
0

>  <SMR_VSA1>
14.7

>  <SMR_VSA2>
0

>  <SMR_VSA3>
14.68

>  <SMR_VSA4>
0

>  <SMR_VSA5>
45.38

>  <SMR_VSA6>
6.54

>  <SMR_VSA7>
58.92

>  <SMR_VSA8>
0

>  <SMR_VSA9>
0

>  <SlogP_VSA1>
0

>  <SlogP_VSA2>
38.02

>  <SlogP_VSA3>
22.68

>  <SlogP_VSA4>
0

>  <SlogP_VSA5>
49.24

>  <SlogP_VSA6>
41.97

>  <SlogP_VSA7>
0

>  <SlogP_VSA8>
5.57

>  <SlogP_VSA9>
0

>  <SlogP_VSA10>
0

>  <SlogP_VSA11>
0

>  <EState_VSA1>
6.1

>  <EState_VSA2>
18.11

>  <EState_VSA3>
43.74

>  <EState_VSA4>
16.83

>  <EState_VSA5>
0

>  <EState_VSA6>
11.82

>  <EState_VSA7>
41.08

>  <EState_VSA8>
5.1

>  <EState_VSA9>
0

>  <EState_VSA10>
14.7

>  <VSA_EState1>
1.85

>  <VSA_EState2>
27.05

>  <VSA_EState3>
14.08

>  <VSA_EState4>
4.24

>  <VSA_EState5>
0.06

>  <VSA_EState6>
11.7

>  <VSA_EState7>
0.72

>  <VSA_EState8>
3.31

>  <VSA_EState9>
0

>  <apol>
56.11

>  <bpol>
28.23

>  <nRing>
4

>  <nHRing>
2

>  <naRing>
2

>  <naHRing>
1

>  <nARing 2>
2

>  <nAHRing 2>
1

>  <nFRing>
1

>  <nFHRing>
1

>  <nFaRing>
0

>  <nFaHRing>
0

>  <nFARing 2>
1

>  <nFAHRing 2>
1

>  <nRot>
4

>  <SLogP>
2.49

>  <SMR>
100.5

>  <TopoPSA(NO)>
75.43

>  <TopoPSA>
75.43

>  <JGI1>
0.18

>  <JGI2>
0.08

>  <JGI3>
0.05

>  <JGI4>
0.04

>  <JGI5>
0.03

>  <Diameter>
14

>  <Radius>
7

>  <TMWC10>
133.75

>  <TSRW10>
78.32

>  <MW>
365.17

>  <AMW>
7.3

>  <WPath>
1943

>  <WPol>
42

>  <Zagreb1>
146

>  <Zagreb2>
174

>  <mZagreb2>
5.83

>  <yes>


>  <nAR-cont>
1

>  <nHA-cont>
0.860070871

>  <MWHBN>
0.313981243

>  <MWHBN-cont>
0.797055936

>  <TPSA-cont>
0.473451761

>  <pka_cont>
0.97

>  <yes.1>


>  <BBB_SCORE>
4.487558297

>  <MMFF94 Energy>
20.469

$$$$
Compound 2269
Actelion Java MolfileCreator 2.0

  0  0  0  0  0  0              0 V3000
M  V30 BEGIN CTAB
M  V30 COUNTS 46 48 0 0 0
M  V30 BEGIN ATOM
M  V30 1 F -2.8998 2.5773 5.1596 0
M  V30 2 C -2.5989 1.521 5.9662 0
M  V30 3 F -3.793 0.9875 6.3439 0
M  V30 4 F -2.0554 2.0593 7.0936 0
M  V30 5 C -1.7038 0.5075 5.2991 0
M  V30 6 C -1.8095 0.266 3.9178 0
M  V30 7 C -0.7807 -0.2341 6.0479 0
M  V30 8 C -0.9992 -0.6857 3.2861 0
M  V30 9 C 0.0271 -1.1835 5.4247 0
M  V30 10 N -1.169 -0.8583 1.9034 0
M  V30 11 C -0.0812 -1.4074 4.0495 0
M  V30 12 C -0.466 -1.6917 1.0591 0
M  V30 13 O 0.4528 -2.457 1.3132 0
M  V30 14 C -0.9629 -1.5724 -0.3988 0
M  V30 15 O -1.892 -0.8193 -0.6582 0
M  V30 16 N -0.2695 -2.3511 -1.2906 0
M  V30 17 C -0.4759 -2.2984 -2.7297 0
M  V30 18 C 0.7443 -1.7219 -3.4889 0 CFG=2
M  V30 19 O 1.8969 -2.5216 -3.1659 0
M  V30 20 C 1.0494 -0.3176 -3.0589 0
M  V30 21 C 0.5234 -1.8266 -5.0006 0
M  V30 22 O 0.3762 0.6864 -3.6962 0
M  V30 23 C 1.8849 0.2182 -2.0951 0
M  V30 24 C 0.7787 1.8607 -3.1381 0
M  V30 25 C 1.7154 1.6257 -2.1395 0
M  V30 26 C 0.3253 3.1261 -3.5024 0
M  V30 27 C 2.2461 2.7256 -1.443 0
M  V30 28 C 0.8655 4.2083 -2.7994 0
M  V30 29 C 1.8095 4.0136 -1.7869 0
M  V30 30 H -2.5347 0.836 3.3379 0
M  V30 31 H -0.6864 -0.0742 7.1213 0
M  V30 32 H 0.7445 -1.7562 6.0083 0
M  V30 33 H -1.8852 -0.3057 1.4348 0
M  V30 34 H 0.5651 -2.1583 3.605 0
M  V30 35 H 0.4932 -2.9183 -0.9269 0
M  V30 36 H -0.6458 -3.3369 -3.0364 0
M  V30 37 H -1.3808 -1.721 -2.9516 0
M  V30 38 H 2.6469 -2.1425 -3.6574 0
M  V30 39 H -0.3687 -1.279 -5.3233 0
M  V30 40 H 0.4139 -2.8738 -5.3053 0
M  V30 41 H 1.3836 -1.4302 -5.5534 0
M  V30 42 H 2.5263 -0.3454 -1.4316 0
M  V30 43 H -0.4095 3.2578 -4.2869 0
M  V30 44 H 2.9778 2.5855 -0.6531 0
M  V30 45 H 0.5425 5.2181 -3.0447 0
M  V30 46 H 2.2115 4.8737 -1.2551 0
M  V30 END ATOM
M  V30 BEGIN BOND
M  V30 1 1 1 2
M  V30 2 1 2 3
M  V30 3 1 2 4
M  V30 4 1 2 5
M  V30 5 2 5 6
M  V30 6 1 5 7
M  V30 7 1 6 8
M  V30 8 2 7 9
M  V30 9 1 8 10
M  V30 10 2 8 11
M  V30 11 1 10 12
M  V30 12 2 12 13
M  V30 13 1 12 14
M  V30 14 2 14 15
M  V30 15 1 14 16
M  V30 16 1 16 17
M  V30 17 1 17 18
M  V30 18 1 18 19
M  V30 19 1 18 20
M  V30 20 1 18 21
M  V30 21 1 20 22
M  V30 22 2 20 23
M  V30 23 1 22 24
M  V30 24 1 23 25
M  V30 25 1 24 26
M  V30 26 1 25 27
M  V30 27 2 26 28
M  V30 28 2 27 29
M  V30 29 1 9 11
M  V30 30 2 24 25
M  V30 31 1 28 29
M  V30 32 1 6 30
M  V30 33 1 7 31
M  V30 34 1 9 32
M  V30 35 1 10 33
M  V30 36 1 11 34
M  V30 37 1 16 35
M  V30 38 1 17 36
M  V30 39 1 17 37
M  V30 40 1 19 38
M  V30 41 1 21 39
M  V30 42 1 21 40
M  V30 43 1 21 41
M  V30 44 1 23 42
M  V30 45 1 26 43
M  V30 46 1 27 44
M  V30 47 1 28 45
M  V30 48 1 29 46
M  V30 END BOND
M  V30 BEGIN COLLECTION
M  V30 MDLV30/STEABS ATOMS=(1 18)
M  V30 END COLLECTION
M  V30 END CTAB
M  END
>  <Column 1>
2777

>  <level_0>
4012

>  <index>
4012

>  <Unnamed: 0>
4012

>  <NO.>
4024

>  <Name>
methane

>  <IUPAC_name>
n-[(2s)-2-(1-benzofuran-2-yl)-2-hydroxypropyl]-n'-[3-(trifluoromethyl)phenyl]oxamide

>  <SMILES>
C[C@](O)(CNC(=O)C(=O)Nc1cccc(C(F)(F)F)c1)c1cc2ccccc2o1

>  <CID>
100000297

>  <logBB>


>  <BBB+/BBB->
BBB+

>  <Inchi>
InChI=1S/C20H17F3N2O4/c1-19(28-16-9-12-5-2-3-8-15(12)29-16)11-24-17(26)18(27)25-14-7-4-6-13(10-14)20(21-22)23/h2-10-28H-11H2-1H3-(H-24-26)(H-25-27)/t19-/m0/s1

>  <threshold>
-1

>  <reference>
R16|R10|

>  <group>
B

>  <Class>
-1

>  <ABC>
22.73

>  <ABCGG>
18.33

>  <nAcid>
0

>  <nBase>
0

>  <nAromAtom>
15

>  <nAromBond>
16

>  <nAtom>
46

>  <nHeavyAtom>
29

>  <nSpiro>
0

>  <nBridgehead>
0

>  <nHetero>
9

>  <nN>
2

>  <nO>
4

>  <nF>
3

>  <BalabanJ>
1.44

>  <BertzCT>
1024.06

>  <nBonds>
48

>  <nBondsO>
31

>  <nBondsS>
30

>  <nBondsD>
2

>  <nBondsT>
0

>  <nBondsA>
16

>  <nBondsM>
18

>  <nBondsKS>
39

>  <nBondsKD>
9

>  <RNCG>
0.16

>  <RPCG>
0.14

>  <FCSP3>
0.2

>  <SZ>
35

>  <Sm>
33.83

>  <Sv>
30.92

>  <Sse>
48.07

>  <Sp>
31.03

>  <Si>
52.59

>  <MZ>
0.76

>  <Mm>
0.74

>  <Mv>
0.67

>  <Mse>
1.04

>  <Mp>
0.67

>  <Mi>
1.14

>  <NsCH3>
1

>  <NdCH2>
0

>  <NssCH2>
1

>  <NtCH>
0

>  <NdsCH>
0

>  <NaaCH>
9

>  <NsssCH>
0

>  <NddC>
0

>  <NtsC>
0

>  <NdssC>
2

>  <NaasC>
3

>  <NaaaC>
2

>  <NssssC>
2

>  <NsNH3>
0

>  <NsNH2>
0

>  <NssNH2>
0

>  <NdNH>
0

>  <NssNH>
2

>  <NaaNH>
0

>  <NtN>
0

>  <NsssNH>
0

>  <NdsN>
0

>  <NaaN>
0

>  <NsssN>
0

>  <NddsN>
0

>  <NaasN>
0

>  <NssssN>
0

>  <NsOH>
1

>  <NdO>
2

>  <NssO>
0

>  <NaaO>
1

>  <NsF>
3

>  <NsSiH3>
0

>  <NssSiH2>
0

>  <NsssSiH>
0

>  <NssssSi>
0

>  <NsPH2>
0

>  <NssPH>
0

>  <NsssP>
0

>  <NdsssP>
0

>  <NsssssP>
0

>  <NsSH>
0

>  <NdS>
0

>  <NssS>
0

>  <NaaS>
0

>  <NdssS>
0

>  <NddssS>
0

>  <NsCl>
0

>  <NsBr>
0

>  <NsI>
0

>  <fragCpx>
149.09

>  <fMF>
0.46

>  <nHBAcc>
4

>  <nHBDon>
3

>  <Kier1>
23.66

>  <Kier2>
9.65

>  <Lipinski>
1

>  <GhoseFilter>
1

>  <FilterItLogS>
-5.51

>  <VMcGowan>
270.1

>  <LabuteASA>
162.87

>  <PEOE_VSA1>
20.16

>  <PEOE_VSA2>
9.59

>  <PEOE_VSA3>
0

>  <PEOE_VSA4>
13.17

>  <PEOE_VSA5>
0

>  <PEOE_VSA6>
24.27

>  <PEOE_VSA7>
37.26

>  <PEOE_VSA8>
11.07

>  <PEOE_VSA9>
12.11

>  <PEOE_VSA10>
16.94

>  <PEOE_VSA11>
0

>  <PEOE_VSA12>
0

>  <PEOE_VSA13>
0

>  <SMR_VSA1>
32.28

>  <SMR_VSA2>
0

>  <SMR_VSA3>
5.32

>  <SMR_VSA4>
0

>  <SMR_VSA5>
18.7

>  <SMR_VSA6>
11.86

>  <SMR_VSA7>
65.92

>  <SMR_VSA8>
0

>  <SMR_VSA9>
0

>  <SlogP_VSA1>
10.63

>  <SlogP_VSA2>
23.47

>  <SlogP_VSA3>
21.37

>  <SlogP_VSA4>
0

>  <SlogP_VSA5>
18.25

>  <SlogP_VSA6>
59.01

>  <SlogP_VSA7>
0

>  <SlogP_VSA8>
10.97

>  <SlogP_VSA9>
0

>  <SlogP_VSA10>
18.86

>  <SlogP_VSA11>
0

>  <EState_VSA1>
29.16

>  <EState_VSA2>
17.99

>  <EState_VSA3>
5.58

>  <EState_VSA4>
23.59

>  <EState_VSA5>
12.99

>  <EState_VSA6>
30.33

>  <EState_VSA7>
0

>  <EState_VSA8>
10.63

>  <EState_VSA9>
4.42

>  <EState_VSA10>
27.87

>  <VSA_EState1>
43.73

>  <VSA_EState2>
23.95

>  <VSA_EState3>
15.67

>  <VSA_EState4>
-2.19

>  <VSA_EState5>
-2.08

>  <VSA_EState6>
12.6

>  <VSA_EState7>
-4.58

>  <VSA_EState8>
1.05

>  <VSA_EState9>
0

>  <apol>
51.81

>  <bpol>
25.01

>  <nRing>
3

>  <nHRing>
1

>  <naRing>
3

>  <naHRing>
1

>  <nARing 2>
0

>  <nAHRing 2>
0

>  <nFRing>
1

>  <nFHRing>
1

>  <nFaRing>
1

>  <nFaHRing>
1

>  <nFARing 2>
0

>  <nFAHRing 2>
0

>  <nRot>
4

>  <SLogP>
3.41

>  <SMR>
98.87

>  <TopoPSA(NO)>
91.57

>  <TopoPSA>
91.57

>  <JGI1>
0.29

>  <JGI2>
0.1

>  <JGI3>
0.05

>  <JGI4>
0.05

>  <JGI5>
0.03

>  <Diameter>
15

>  <Radius>
8

>  <TMWC10>
136.66

>  <TSRW10>
78.64

>  <MW>
406.11

>  <AMW>
8.83

>  <WPath>
2559

>  <WPol>
44

>  <Zagreb1>
154

>  <Zagreb2>
178

>  <mZagreb2>
6.1

>  <yes>


>  <nAR-cont>
0.336376

>  <nHA-cont>
0.785905698

>  <MWHBN>
0.347357114

>  <MWHBN-cont>
0.680099544

>  <TPSA-cont>
0.360784538

>  <pka_cont>
0.97

>  <yes.1>


>  <BBB_SCORE>
3.349000091

>  <MMFF94 Energy>
102.89

$$$$
Compound 2270
Actelion Java MolfileCreator 2.0

  0  0  0  0  0  0              0 V3000
M  V30 BEGIN CTAB
M  V30 COUNTS 36 37 0 0 0
M  V30 BEGIN ATOM
M  V30 1 Cl 0.6399 -5.3695 2.722 0
M  V30 2 C 0.6561 -3.8668 1.8702 0
M  V30 3 C -0.5144 -3.1068 1.7019 0
M  V30 4 C 1.8757 -3.4287 1.3428 0
M  V30 5 C -0.4336 -1.8927 0.9998 0
M  V30 6 C -1.8415 -3.564 2.2393 0
M  V30 7 C 1.946 -2.2214 0.6477 0
M  V30 8 C 0.7952 -1.4459 0.4961 0
M  V30 9 C 0.8838 -0.1846 -0.2715 0
M  V30 10 O 1.293 -0.2701 -1.4254 0
M  V30 11 N 0.4838 1.0102 0.3278 0
M  V30 12 C 0.4839 2.2614 -0.4698 0 CFG=2
M  V30 13 C 0.22 1.1649 1.7543 0
M  V30 14 C -0.4693 2.2887 -1.6665 0
M  V30 15 C 1.9167 2.6739 -0.837 0
M  V30 16 N -0.2712 3.2632 -2.5883 0
M  V30 17 C -1.5589 1.4376 -1.754 0
M  V30 18 C -1.1382 3.3218 -3.6117 0
M  V30 19 C -2.3864 1.5953 -2.8444 0
M  V30 20 N -2.2037 2.5311 -3.79 0
M  V30 21 H 2.7742 -4.0294 1.4631 0
M  V30 22 H -1.3279 -1.2964 0.835 0
M  V30 23 H -1.7946 -3.6786 3.3269 0
M  V30 24 H -2.6332 -2.8391 2.0213 0
M  V30 25 H -2.1316 -4.5148 1.7811 0
M  V30 26 H 2.89 -1.8901 0.2209 0
M  V30 27 H 0.0942 3.0447 0.1959 0
M  V30 28 H 0.4617 0.2719 2.3315 0
M  V30 29 H -0.8373 1.4113 1.8859 0
M  V30 30 H 0.8348 1.984 2.1407 0
M  V30 31 H 2.3451 2.0286 -1.6105 0
M  V30 32 H 2.5719 2.6269 0.0397 0
M  V30 33 H 1.9472 3.7012 -1.2166 0
M  V30 34 H -1.7631 0.6746 -1.0174 0
M  V30 35 H -0.9617 4.0857 -4.3606 0
M  V30 36 H -3.2499 0.9528 -2.9885 0
M  V30 END ATOM
M  V30 BEGIN BOND
M  V30 1 1 1 2
M  V30 2 2 2 3
M  V30 3 1 2 4
M  V30 4 1 3 5
M  V30 5 1 3 6
M  V30 6 2 4 7
M  V30 7 2 5 8
M  V30 8 1 8 9
M  V30 9 2 9 10
M  V30 10 1 9 11
M  V30 11 1 11 12
M  V30 12 1 11 13
M  V30 13 1 12 14
M  V30 14 1 12 15
M  V30 15 2 14 16
M  V30 16 1 14 17
M  V30 17 1 16 18
M  V30 18 2 17 19
M  V30 19 2 18 20
M  V30 20 1 7 8
M  V30 21 1 19 20
M  V30 22 1 4 21
M  V30 23 1 5 22
M  V30 24 1 6 23
M  V30 25 1 6 24
M  V30 26 1 6 25
M  V30 27 1 7 26
M  V30 28 1 12 27
M  V30 29 1 13 28
M  V30 30 1 13 29
M  V30 31 1 13 30
M  V30 32 1 15 31
M  V30 33 1 15 32
M  V30 34 1 15 33
M  V30 35 1 17 34
M  V30 36 1 18 35
M  V30 37 1 19 36
M  V30 END BOND
M  V30 BEGIN COLLECTION
M  V30 MDLV30/STEABS ATOMS=(1 12)
M  V30 END COLLECTION
M  V30 END CTAB
M  END
>  <Column 1>
2778

>  <level_0>
4013

>  <index>
4013

>  <Unnamed: 0>
4013

>  <NO.>
4025

>  <Name>
homatropine

>  <IUPAC_name>
4-chloro-n-3-dimethyl-n-[(1s)-1-pyrimidin-4-ylethyl]benzamide

>  <SMILES>
Cc1cc(C(=O)N(C)[C@@H](C)c2ccncn2)ccc1Cl

>  <CID>
100003623

>  <logBB>


>  <BBB+/BBB->
BBB-

>  <Inchi>
InChI=1S/C15H16ClN3O/c1-10-8-12(4-5-13(10)16)15(20)19(3)11(2)14-6-7-17-9-18-14/h4-9-11H-1-3H3/t11-/m0/s1

>  <threshold>
-1

>  <reference>
R16|R10|R10|

>  <group>
B

>  <Class>
-1

>  <ABC>
15.19

>  <ABCGG>
13.2

>  <nAcid>
0

>  <nBase>
0

>  <nAromAtom>
12

>  <nAromBond>
12

>  <nAtom>
36

>  <nHeavyAtom>
20

>  <nSpiro>
0

>  <nBridgehead>
0

>  <nHetero>
5

>  <nN>
3

>  <nO>
1

>  <nF>
0

>  <BalabanJ>
1.88

>  <BertzCT>
615.77

>  <nBonds>
37

>  <nBondsO>
21

>  <nBondsS>
24

>  <nBondsD>
1

>  <nBondsT>
0

>  <nBondsA>
12

>  <nBondsM>
13

>  <nBondsKS>
30

>  <nBondsKD>
7

>  <RNCG>
0.23

>  <RPCG>
0.18

>  <FCSP3>
0.27

>  <SZ>
25.33

>  <Sm>
24.12

>  <Sv>
23.41

>  <Sse>
36.19

>  <Sp>
25.15

>  <Si>
40.56

>  <MZ>
0.7

>  <Mm>
0.67

>  <Mv>
0.65

>  <Mse>
1.01

>  <Mp>
0.7

>  <Mi>
1.13

>  <NsCH3>
3

>  <NdCH2>
0

>  <NssCH2>
0

>  <NtCH>
0

>  <NdsCH>
0

>  <NaaCH>
6

>  <NsssCH>
1

>  <NddC>
0

>  <NtsC>
0

>  <NdssC>
1

>  <NaasC>
4

>  <NaaaC>
0

>  <NssssC>
0

>  <NsNH3>
0

>  <NsNH2>
0

>  <NssNH2>
0

>  <NdNH>
0

>  <NssNH>
0

>  <NaaNH>
0

>  <NtN>
0

>  <NsssNH>
0

>  <NdsN>
0

>  <NaaN>
2

>  <NsssN>
1

>  <NddsN>
0

>  <NaasN>
0

>  <NssssN>
0

>  <NsOH>
0

>  <NdO>
1

>  <NssO>
0

>  <NaaO>
0

>  <NsF>
0

>  <NsSiH3>
0

>  <NssSiH2>
0

>  <NsssSiH>
0

>  <NssssSi>
0

>  <NsPH2>
0

>  <NssPH>
0

>  <NsssP>
0

>  <NdsssP>
0

>  <NsssssP>
0

>  <NsSH>
0

>  <NdS>
0

>  <NssS>
0

>  <NaaS>
0

>  <NdssS>
0

>  <NddssS>
0

>  <NsCl>
1

>  <NsBr>
0

>  <NsI>
0

>  <fragCpx>
61.05

>  <fMF>
0.42

>  <nHBAcc>
3

>  <nHBDon>
0

>  <Kier1>
16.37

>  <Kier2>
7.32

>  <Lipinski>
1

>  <GhoseFilter>
1

>  <FilterItLogS>
-4.37

>  <VMcGowan>
218.44

>  <LabuteASA>
122.98

>  <PEOE_VSA1>
4.9

>  <PEOE_VSA2>
4.79

>  <PEOE_VSA3>
9.97

>  <PEOE_VSA4>
0

>  <PEOE_VSA5>
0

>  <PEOE_VSA6>
11.6

>  <PEOE_VSA7>
43.68

>  <PEOE_VSA8>
23.83

>  <PEOE_VSA9>
11.74

>  <PEOE_VSA10>
6.33

>  <PEOE_VSA11>
0

>  <PEOE_VSA12>
0

>  <PEOE_VSA13>
5.91

>  <SMR_VSA1>
4.79

>  <SMR_VSA2>
0

>  <SMR_VSA3>
14.87

>  <SMR_VSA4>
0

>  <SMR_VSA5>
19.89

>  <SMR_VSA6>
7.05

>  <SMR_VSA7>
58.63

>  <SMR_VSA8>
0

>  <SMR_VSA9>
0

>  <SlogP_VSA1>
0

>  <SlogP_VSA2>
27.82

>  <SlogP_VSA3>
0

>  <SlogP_VSA4>
6.92

>  <SlogP_VSA5>
34.58

>  <SlogP_VSA6>
36.79

>  <SlogP_VSA7>
5.02

>  <SlogP_VSA8>
0

>  <SlogP_VSA9>
0

>  <SlogP_VSA10>
0

>  <SlogP_VSA11>
0

>  <EState_VSA1>
0

>  <EState_VSA2>
11.95

>  <EState_VSA3>
10.59

>  <EState_VSA4>
11.26

>  <EState_VSA5>
6.33

>  <EState_VSA6>
36.34

>  <EState_VSA7>
19.91

>  <EState_VSA8>
9.97

>  <EState_VSA9>
11.6

>  <EState_VSA10>
4.79

>  <VSA_EState1>
0

>  <VSA_EState2>
22.18

>  <VSA_EState3>
0.66

>  <VSA_EState4>
2.32

>  <VSA_EState5>
-0.06

>  <VSA_EState6>
6.96

>  <VSA_EState7>
3.15

>  <VSA_EState8>
3.82

>  <VSA_EState9>
1.76

>  <apol>
42

>  <bpol>
21.42

>  <nRing>
2

>  <nHRing>
1

>  <naRing>
2

>  <naHRing>
1

>  <nARing 2>
0

>  <nAHRing 2>
0

>  <nFRing>
0

>  <nFHRing>
0

>  <nFaRing>
0

>  <nFaHRing>
0

>  <nFARing 2>
0

>  <nFAHRing 2>
0

>  <nRot>
3

>  <SLogP>
3.27

>  <SMR>
78.73

>  <TopoPSA(NO)>
46.09

>  <TopoPSA>
46.09

>  <JGI1>
0.19

>  <JGI2>
0.11

>  <JGI3>
0.05

>  <JGI4>
0.05

>  <JGI5>
0.03

>  <Diameter>
11

>  <Radius>
6

>  <TMWC10>
113.18

>  <TSRW10>
53.39

>  <MW>
289.1

>  <AMW>
8.03

>  <WPath>
838

>  <WPol>
31

>  <Zagreb1>
100

>  <Zagreb2>
116

>  <mZagreb2>
4.47

>  <yes>


>  <nAR-cont>
0.336376

>  <nHA-cont>
0.999629945

>  <MWHBN>
0.176440065

>  <MWHBN-cont>
0.983017955

>  <TPSA-cont>
0.67826318

>  <pka_cont>
0.97

>  <yes.1>


>  <BBB_SCORE>
4.652059237

>  <MMFF94 Energy>
35.149

$$$$
Compound 2271
Actelion Java MolfileCreator 2.0

  0  0  0  0  0  0              0 V3000
M  V30 BEGIN CTAB
M  V30 COUNTS 49 51 0 0 0
M  V30 BEGIN ATOM
M  V30 1 O -5.0918 0.9532 -6.2083 0
M  V30 2 N -5.1877 1.5534 -5.1286 0 CHG=1
M  V30 3 O -5.8181 2.6028 -4.9465 0 CHG=-1
M  V30 4 C -4.473 0.9832 -3.9895 0
M  V30 5 C -5.0998 0.8216 -2.7402 0
M  V30 6 C -3.1356 0.6064 -4.1945 0
M  V30 7 C -4.3322 0.2896 -1.6886 0
M  V30 8 C -6.5272 1.2104 -2.4732 0
M  V30 9 C -2.3975 0.0674 -3.1385 0
M  V30 10 C -2.9964 -0.1009 -1.8842 0
M  V30 11 C -2.2494 -0.6567 -0.7222 0
M  V30 12 O -2.5471 -0.3129 0.4157 0
M  V30 13 N -1.2585 -1.5728 -1.0078 0
M  V30 14 C -0.4414 -2.1508 0.0411 0
M  V30 15 C 0.7823 -1.2889 0.3317 0
M  V30 16 C 1.5917 -1.8719 1.4898 0
M  V30 17 N 2.8062 -1.0927 1.7379 0
M  V30 18 C 2.8152 0.0796 2.491 0
M  V30 19 C 3.9918 -1.4229 0.9465 0
M  V30 20 C 4.0181 0.7932 2.7011 0
M  V30 21 C 1.6587 0.6018 3.0949 0
M  V30 22 C 5.2572 -1.1571 1.7419 0
M  V30 23 C 4.0336 1.9864 3.4479 0
M  V30 24 C 5.3171 0.3181 2.0993 0
M  V30 25 C 1.679 1.7827 3.8469 0
M  V30 26 C 2.8669 2.4779 4.0209 0
M  V30 27 H -2.6618 0.7431 -5.1654 0
M  V30 28 H -4.7754 0.1691 -0.6991 0
M  V30 29 H -6.6127 2.2968 -2.3732 0
M  V30 30 H -6.8941 0.7571 -1.5457 0
M  V30 31 H -7.1846 0.8596 -3.2751 0
M  V30 32 H -1.3526 -0.1819 -3.3014 0
M  V30 33 H -1.113 -1.8906 -1.9554 0
M  V30 34 H -0.1368 -3.1457 -0.3004 0
M  V30 35 H -1.0504 -2.2743 0.9437 0
M  V30 36 H 0.4703 -0.263 0.5599 0
M  V30 37 H 1.4052 -1.2222 -0.5693 0
M  V30 38 H 0.983 -1.9573 2.3978 0
M  V30 39 H 1.871 -2.9046 1.2438 0
M  V30 40 H 3.9772 -2.4802 0.6569 0
M  V30 41 H 3.9884 -0.8375 0.0184 0
M  V30 42 H 0.6976 0.1087 2.9868 0
M  V30 43 H 5.2583 -1.7658 2.6554 0
M  V30 44 H 6.142 -1.4382 1.1605 0
M  V30 45 H 4.9639 2.5321 3.5861 0
M  V30 46 H 6.1426 0.4796 2.8026 0
M  V30 47 H 5.5213 0.9133 1.2008 0
M  V30 48 H 0.7589 2.1547 4.2896 0
M  V30 49 H 2.8847 3.3967 4.5999 0
M  V30 END ATOM
M  V30 BEGIN BOND
M  V30 1 2 1 2
M  V30 2 1 2 3
M  V30 3 1 2 4
M  V30 4 2 4 5
M  V30 5 1 4 6
M  V30 6 1 5 7
M  V30 7 1 5 8
M  V30 8 2 6 9
M  V30 9 2 7 10
M  V30 10 1 10 11
M  V30 11 2 11 12
M  V30 12 1 11 13
M  V30 13 1 13 14
M  V30 14 1 14 15
M  V30 15 1 15 16
M  V30 16 1 16 17
M  V30 17 1 17 18
M  V30 18 1 17 19
M  V30 19 2 18 20
M  V30 20 1 18 21
M  V30 21 1 19 22
M  V30 22 1 20 23
M  V30 23 1 20 24
M  V30 24 2 21 25
M  V30 25 2 23 26
M  V30 26 1 9 10
M  V30 27 1 22 24
M  V30 28 1 25 26
M  V30 29 1 6 27
M  V30 30 1 7 28
M  V30 31 1 8 29
M  V30 32 1 8 30
M  V30 33 1 8 31
M  V30 34 1 9 32
M  V30 35 1 13 33
M  V30 36 1 14 34
M  V30 37 1 14 35
M  V30 38 1 15 36
M  V30 39 1 15 37
M  V30 40 1 16 38
M  V30 41 1 16 39
M  V30 42 1 19 40
M  V30 43 1 19 41
M  V30 44 1 21 42
M  V30 45 1 22 43
M  V30 46 1 22 44
M  V30 47 1 23 45
M  V30 48 1 24 46
M  V30 49 1 24 47
M  V30 50 1 25 48
M  V30 51 1 26 49
M  V30 END BOND
M  V30 END CTAB
M  END
>  <Column 1>
2779

>  <level_0>
4014

>  <index>
4014

>  <Unnamed: 0>
4014

>  <NO.>
4026

>  <Name>
spironolactone

>  <IUPAC_name>
n-[3-(3-4-dihydro-2h-quinolin-1-yl)propyl]-3-methyl-4-nitrobenzamide

>  <SMILES>
Cc1cc(C(=O)NCCCN2CCCc3ccccc32)ccc1[N+](=O)[O-]

>  <CID>
100005267

>  <logBB>


>  <BBB+/BBB->
BBB-

>  <Inchi>
InChI=1S/C20H23N3O3/c1-15-14-17(9-10-18(15)23(25)26)20(24)21-11-5-13-22-12-4-7-16-6-2-3-8-19(16)22/h2-3-6-8-10-14H-4-5-7-11-13H2-1H3-(H-21-24)

>  <threshold>
-1

>  <reference>
R16|R10|R10|

>  <group>
B

>  <Class>
-1

>  <ABC>
20.03

>  <ABCGG>
15.21

>  <nAcid>
0

>  <nBase>
0

>  <nAromAtom>
12

>  <nAromBond>
12

>  <nAtom>
49

>  <nHeavyAtom>
26

>  <nSpiro>
0

>  <nBridgehead>
0

>  <nHetero>
6

>  <nN>
3

>  <nO>
3

>  <nF>
0

>  <BalabanJ>
1.34

>  <BertzCT>
819.7

>  <nBonds>
51

>  <nBondsO>
28

>  <nBondsS>
37

>  <nBondsD>
2

>  <nBondsT>
0

>  <nBondsA>
12

>  <nBondsM>
14

>  <nBondsKS>
43

>  <nBondsKD>
8

>  <RNCG>
0.19

>  <RPCG>
0.14

>  <FCSP3>
0.35

>  <SZ>
31.33

>  <Sm>
29.42

>  <Sv>
30.65

>  <Sse>
49.19

>  <Sp>
32.6

>  <Si>
55.28

>  <MZ>
0.64

>  <Mm>
0.6

>  <Mv>
0.63

>  <Mse>
1

>  <Mp>
0.67

>  <Mi>
1.13

>  <NsCH3>
1

>  <NdCH2>
0

>  <NssCH2>
6

>  <NtCH>
0

>  <NdsCH>
0

>  <NaaCH>
7

>  <NsssCH>
0

>  <NddC>
0

>  <NtsC>
0

>  <NdssC>
1

>  <NaasC>
5

>  <NaaaC>
0

>  <NssssC>
0

>  <NsNH3>
0

>  <NsNH2>
0

>  <NssNH2>
0

>  <NdNH>
0

>  <NssNH>
1

>  <NaaNH>
0

>  <NtN>
0

>  <NsssNH>
0

>  <NdsN>
0

>  <NaaN>
0

>  <NsssN>
1

>  <NddsN>
1

>  <NaasN>
0

>  <NssssN>
0

>  <NsOH>
0

>  <NdO>
2

>  <NssO>
0

>  <NaaO>
0

>  <NsF>
0

>  <NsSiH3>
0

>  <NssSiH2>
0

>  <NsssSiH>
0

>  <NssssSi>
0

>  <NsPH2>
0

>  <NssPH>
0

>  <NsssP>
0

>  <NdsssP>
0

>  <NsssssP>
0

>  <NsSH>
0

>  <NdS>
0

>  <NssS>
0

>  <NaaS>
0

>  <NdssS>
0

>  <NddssS>
0

>  <NsCl>
0

>  <NsBr>
0

>  <NsI>
0

>  <fragCpx>
134.06

>  <fMF>
0.43

>  <nHBAcc>
4

>  <nHBDon>
1

>  <Kier1>
20.73

>  <Kier2>
9.97

>  <Lipinski>
1

>  <GhoseFilter>
1

>  <FilterItLogS>
-5.59

>  <VMcGowan>
273.23

>  <LabuteASA>
152.53

>  <PEOE_VSA1>
10.22

>  <PEOE_VSA2>
14.91

>  <PEOE_VSA3>
0

>  <PEOE_VSA4>
0

>  <PEOE_VSA5>
0

>  <PEOE_VSA6>
18.2

>  <PEOE_VSA7>
49.95

>  <PEOE_VSA8>
42.51

>  <PEOE_VSA9>
4.92

>  <PEOE_VSA10>
0

>  <PEOE_VSA11>
0

>  <PEOE_VSA12>
0

>  <PEOE_VSA13>
11.59

>  <SMR_VSA1>
9.72

>  <SMR_VSA2>
0

>  <SMR_VSA3>
5.32

>  <SMR_VSA4>
0

>  <SMR_VSA5>
26.19

>  <SMR_VSA6>
24.53

>  <SMR_VSA7>
69.27

>  <SMR_VSA8>
0

>  <SMR_VSA9>
0

>  <SlogP_VSA1>
10.22

>  <SlogP_VSA2>
30.46

>  <SlogP_VSA3>
6.42

>  <SlogP_VSA4>
17.04

>  <SlogP_VSA5>
34.33

>  <SlogP_VSA6>
42.46

>  <SlogP_VSA7>
0

>  <SlogP_VSA8>
0

>  <SlogP_VSA9>
0

>  <SlogP_VSA10>
11.37

>  <SlogP_VSA11>
0

>  <EState_VSA1>
4.92

>  <EState_VSA2>
11.59

>  <EState_VSA3>
17.67

>  <EState_VSA4>
32.35

>  <EState_VSA5>
23.38

>  <EState_VSA6>
12.99

>  <EState_VSA7>
0

>  <EState_VSA8>
34.48

>  <EState_VSA9>
0

>  <EState_VSA10>
14.91

>  <VSA_EState1>
0

>  <VSA_EState2>
25.02

>  <VSA_EState3>
13.76

>  <VSA_EState4>
3.68

>  <VSA_EState5>
-0.19

>  <VSA_EState6>
12.93

>  <VSA_EState7>
3.14

>  <VSA_EState8>
4.17

>  <VSA_EState9>
0

>  <apol>
54.44

>  <bpol>
27.39

>  <nRing>
3

>  <nHRing>
1

>  <naRing>
2

>  <naHRing>
0

>  <nARing 2>
1

>  <nAHRing 2>
1

>  <nFRing>
1

>  <nFHRing>
1

>  <nFaRing>
0

>  <nFaHRing>
0

>  <nFARing 2>
1

>  <nFAHRing 2>
1

>  <nRot>
6

>  <SLogP>
3.48

>  <SMR>
101.76

>  <TopoPSA(NO)>
75.48

>  <TopoPSA>
75.48

>  <JGI1>
0.16

>  <JGI2>
0.09

>  <JGI3>
0.05

>  <JGI4>
0.04

>  <JGI5>
0.02

>  <Diameter>
15

>  <Radius>
8

>  <TMWC10>
128.72

>  <TSRW10>
60.76

>  <MW>
353.17

>  <AMW>
7.21

>  <WPath>
1990

>  <WPol>
40

>  <Zagreb1>
132

>  <Zagreb2>
153

>  <mZagreb2>
5.81

>  <yes>


>  <nAR-cont>
0.816016

>  <nHA-cont>
0.892715677

>  <MWHBN>
0.26605909

>  <MWHBN-cont>
0.928845372

>  <TPSA-cont>
0.47310273

>  <pka_cont>
0.97

>  <yes.1>


>  <BBB_SCORE>
4.533205195

>  <MMFF94 Energy>
59.956

$$$$
Compound 2272
Actelion Java MolfileCreator 2.0

  0  0  0  0  0  0              0 V3000
M  V30 BEGIN CTAB
M  V30 COUNTS 43 45 0 0 0
M  V30 BEGIN ATOM
M  V30 1 Cl -3.7718 -2.4865 1.6037 0
M  V30 2 C -3.0274 -1.5311 0.3809 0
M  V30 3 C -2.0911 -2.115 -0.4721 0
M  V30 4 C -3.356 -0.1717 0.2724 0
M  V30 5 C -1.4897 -1.3039 -1.42 0
M  V30 6 C -2.7433 0.6278 -0.6977 0
M  V30 7 C -1.8224 0.0458 -1.5456 0
M  V30 8 C -0.4811 -1.6749 -2.4646 0
M  V30 9 N -1.0525 0.6876 -2.4989 0
M  V30 10 C -0.0686 -0.2886 -3.0173 0 CFG=1
M  V30 11 C 1.3618 0.0573 -2.5459 0
M  V30 12 O 2.3464 -0.6051 -2.8625 0
M  V30 13 N 1.4244 1.1508 -1.7162 0
M  V30 14 C 2.6361 1.6394 -1.0929 0
M  V30 15 C 2.9569 0.9333 0.2378 0
M  V30 16 N 1.8047 0.859 1.1509 0
M  V30 17 C 1.3587 2.0785 1.6934 0
M  V30 18 C 1.1753 -0.3459 1.4526 0
M  V30 19 O 1.9536 3.1292 1.4605 0
M  V30 20 N 0.2313 2.0812 2.4749 0
M  V30 21 C 0.0938 -0.3466 2.2401 0
M  V30 22 C 1.7091 -1.6461 0.9205 0
M  V30 23 C -0.3618 0.9645 2.7254 0
M  V30 24 C -1.6053 0.9996 3.5772 0
M  V30 25 H -1.8385 -3.1668 -0.3951 0
M  V30 26 H -4.0835 0.2716 0.9477 0
M  V30 27 H -2.98 1.6843 -0.7687 0
M  V30 28 H -0.9692 -2.2673 -3.2461 0
M  V30 29 H 0.352 -2.2432 -2.0428 0
M  V30 30 H -1.3076 1.5391 -2.9767 0
M  V30 31 H -0.0648 -0.2787 -4.1129 0
M  V30 32 H 0.5294 1.5573 -1.452 0
M  V30 33 H 2.4962 2.7142 -0.9452 0
M  V30 34 H 3.4746 1.5089 -1.7856 0
M  V30 35 H 3.361 -0.0606 0.031 0
M  V30 36 H 3.7573 1.4873 0.7443 0
M  V30 37 H -0.4457 -1.24 2.5229 0
M  V30 38 H 1.7414 -1.6434 -0.1712 0
M  V30 39 H 1.0848 -2.4963 1.2181 0
M  V30 40 H 2.7155 -1.8361 1.3077 0
M  V30 41 H -2.3461 1.6535 3.1077 0
M  V30 42 H -1.3543 1.3973 4.5649 0
M  V30 43 H -2.0408 0.0044 3.6972 0
M  V30 END ATOM
M  V30 BEGIN BOND
M  V30 1 1 1 2
M  V30 2 2 2 3
M  V30 3 1 2 4
M  V30 4 1 3 5
M  V30 5 2 4 6
M  V30 6 2 5 7
M  V30 7 1 5 8
M  V30 8 1 7 9
M  V30 9 1 8 10
M  V30 10 1 10 11
M  V30 11 2 11 12
M  V30 12 1 11 13
M  V30 13 1 13 14
M  V30 14 1 14 15
M  V30 15 1 15 16
M  V30 16 1 16 17
M  V30 17 1 16 18
M  V30 18 2 17 19
M  V30 19 1 17 20
M  V30 20 2 18 21
M  V30 21 1 18 22
M  V30 22 2 20 23
M  V30 23 1 23 24
M  V30 24 1 6 7
M  V30 25 1 9 10
M  V30 26 1 21 23
M  V30 27 1 3 25
M  V30 28 1 4 26
M  V30 29 1 6 27
M  V30 30 1 8 28
M  V30 31 1 8 29
M  V30 32 1 9 30
M  V30 33 1 10 31
M  V30 34 1 13 32
M  V30 35 1 14 33
M  V30 36 1 14 34
M  V30 37 1 15 35
M  V30 38 1 15 36
M  V30 39 1 21 37
M  V30 40 1 22 38
M  V30 41 1 22 39
M  V30 42 1 22 40
M  V30 43 1 24 41
M  V30 44 1 24 42
M  V30 45 1 24 43
M  V30 END BOND
M  V30 BEGIN COLLECTION
M  V30 MDLV30/STEABS ATOMS=(1 10)
M  V30 END COLLECTION
M  V30 END CTAB
M  END
>  <Column 1>
2780

>  <level_0>
4015

>  <index>
4015

>  <Unnamed: 0>
4015

>  <NO.>
4027

>  <Name>
phenoxymethylpenicillin

>  <IUPAC_name>
(2r)-5-chloro-n-[2-(4-6-dimethyl-2-oxopyrimidin-1-yl)ethyl]-2-3-dihydro-1h-indole-2-carboxamide

>  <SMILES>
Cc1cc(C)n(CCNC(=O)[C@H]2Cc3cc(Cl)ccc3N2)c(=O)n1

>  <CID>
100004730

>  <logBB>


>  <BBB+/BBB->
BBB-

>  <Inchi>
InChI=1S/C17H19ClN4O2/c1-10-7-11(2)22(17(24)20-10)6-5-19-16(23)15-9-12-8-13(18)3-4-14(12)21-15/h3-4-7-8-15-21H-5-6-9H2-1-2H3-(H-19-23)/t15-/m1/s1

>  <threshold>
-1

>  <reference>
R16|R10|

>  <group>
B

>  <Class>
-1

>  <ABC>
18.77

>  <ABCGG>
15.01

>  <nAcid>
0

>  <nBase>
0

>  <nAromAtom>
12

>  <nAromBond>
12

>  <nAtom>
43

>  <nHeavyAtom>
24

>  <nSpiro>
0

>  <nBridgehead>
0

>  <nHetero>
7

>  <nN>
4

>  <nO>
2

>  <nF>
0

>  <BalabanJ>
1.41

>  <BertzCT>
846.97

>  <nBonds>
45

>  <nBondsO>
26

>  <nBondsS>
31

>  <nBondsD>
2

>  <nBondsT>
0

>  <nBondsA>
12

>  <nBondsM>
14

>  <nBondsKS>
38

>  <nBondsKD>
7

>  <RNCG>
0.18

>  <RPCG>
0.17

>  <FCSP3>
0.35

>  <SZ>
30.33

>  <Sm>
28.87

>  <Sv>
27.7

>  <Sse>
43.51

>  <Sp>
29.49

>  <Si>
48.68

>  <MZ>
0.71

>  <Mm>
0.67

>  <Mv>
0.64

>  <Mse>
1.01

>  <Mp>
0.69

>  <Mi>
1.13

>  <NsCH3>
2

>  <NdCH2>
0

>  <NssCH2>
3

>  <NtCH>
0

>  <NdsCH>
0

>  <NaaCH>
4

>  <NsssCH>
1

>  <NddC>
0

>  <NtsC>
0

>  <NdssC>
1

>  <NaasC>
5

>  <NaaaC>
0

>  <NssssC>
0

>  <NsNH3>
0

>  <NsNH2>
0

>  <NssNH2>
0

>  <NdNH>
0

>  <NssNH>
2

>  <NaaNH>
0

>  <NtN>
0

>  <NsssNH>
0

>  <NdsN>
0

>  <NaaN>
1

>  <NsssN>
0

>  <NddsN>
0

>  <NaasN>
1

>  <NssssN>
0

>  <NsOH>
0

>  <NdO>
2

>  <NssO>
0

>  <NaaO>
0

>  <NsF>
0

>  <NsSiH3>
0

>  <NssSiH2>
0

>  <NsssSiH>
0

>  <NssssSi>
0

>  <NsPH2>
0

>  <NssPH>
0

>  <NsssP>
0

>  <NdsssP>
0

>  <NsssssP>
0

>  <NsSH>
0

>  <NdS>
0

>  <NssS>
0

>  <NaaS>
0

>  <NdssS>
0

>  <NddssS>
0

>  <NsCl>
1

>  <NsBr>
0

>  <NsI>
0

>  <fragCpx>
124.07

>  <fMF>
0.44

>  <nHBAcc>
5

>  <nHBDon>
2

>  <Kier1>
18.78

>  <Kier2>
8.13

>  <Lipinski>
1

>  <GhoseFilter>
1

>  <FilterItLogS>
-5.18

>  <VMcGowan>
251.61

>  <LabuteASA>
144.41

>  <PEOE_VSA1>
10.63

>  <PEOE_VSA2>
9.36

>  <PEOE_VSA3>
4.79

>  <PEOE_VSA4>
4.98

>  <PEOE_VSA5>
0

>  <PEOE_VSA6>
11.6

>  <PEOE_VSA7>
43.68

>  <PEOE_VSA8>
41.61

>  <PEOE_VSA9>
0

>  <PEOE_VSA10>
6.04

>  <PEOE_VSA11>
0

>  <PEOE_VSA12>
5.91

>  <PEOE_VSA13>
0

>  <SMR_VSA1>
4.79

>  <SMR_VSA2>
0

>  <SMR_VSA3>
14.87

>  <SMR_VSA4>
0

>  <SMR_VSA5>
32.85

>  <SMR_VSA6>
11.86

>  <SMR_VSA7>
56.72

>  <SMR_VSA8>
0

>  <SMR_VSA9>
0

>  <SlogP_VSA1>
16.32

>  <SlogP_VSA2>
28.04

>  <SlogP_VSA3>
17.76

>  <SlogP_VSA4>
13.85

>  <SlogP_VSA5>
16.95

>  <SlogP_VSA6>
29.06

>  <SlogP_VSA7>
5.02

>  <SlogP_VSA8>
0

>  <SlogP_VSA9>
0

>  <SlogP_VSA10>
5.69

>  <SlogP_VSA11>
0

>  <EState_VSA1>
0

>  <EState_VSA2>
17.64

>  <EState_VSA3>
30.23

>  <EState_VSA4>
16.94

>  <EState_VSA5>
0

>  <EState_VSA6>
17.56

>  <EState_VSA7>
25.12

>  <EState_VSA8>
15.62

>  <EState_VSA9>
11.6

>  <EState_VSA10>
9.59

>  <VSA_EState1>
1.56

>  <VSA_EState2>
28.11

>  <VSA_EState3>
6.72

>  <VSA_EState4>
3.22

>  <VSA_EState5>
-0.09

>  <VSA_EState6>
7.09

>  <VSA_EState7>
0.6

>  <VSA_EState8>
4.42

>  <VSA_EState9>
0

>  <apol>
49.24

>  <bpol>
25.3

>  <nRing>
3

>  <nHRing>
2

>  <naRing>
2

>  <naHRing>
1

>  <nARing 2>
1

>  <nAHRing 2>
1

>  <nFRing>
1

>  <nFHRing>
1

>  <nFaRing>
0

>  <nFaHRing>
0

>  <nFARing 2>
1

>  <nFAHRing 2>
1

>  <nRot>
4

>  <SLogP>
1.67

>  <SMR>
93.55

>  <TopoPSA(NO)>
76.02

>  <TopoPSA>
76.02

>  <JGI1>
0.23

>  <JGI2>
0.08

>  <JGI3>
0.06

>  <JGI4>
0.05

>  <JGI5>
0.02

>  <Diameter>
14

>  <Radius>
7

>  <TMWC10>
124.77

>  <TSRW10>
72.53

>  <MW>
346.12

>  <AMW>
8.05

>  <WPath>
1522

>  <WPol>
36

>  <Zagreb1>
126

>  <Zagreb2>
147

>  <mZagreb2>
5.19

>  <yes>


>  <nAR-cont>
0.816016

>  <nHA-cont>
0.94700071

>  <MWHBN>
0.37625709

>  <MWHBN-cont>
0.56947

>  <TPSA-cont>
0.469333194

>  <pka_cont>
0.97

>  <yes.1>


>  <BBB_SCORE>
4.040888098

>  <MMFF94 Energy>
16.803

$$$$
Compound 2273
Actelion Java MolfileCreator 2.0

  0  0  0  0  0  0              0 V3000
M  V30 BEGIN CTAB
M  V30 COUNTS 61 66 0 0 0
M  V30 BEGIN ATOM
M  V30 1 O 0.727 -0.2423 1.697 0
M  V30 2 C -0.0361 -1.0836 1.2286 0
M  V30 3 N 0.3921 -2.2748 0.623 0
M  V30 4 C -1.5065 -0.8589 1.2929 0
M  V30 5 C -0.5048 -3.2348 0.1396 0
M  V30 6 C 1.8448 -2.4837 0.5633 0
M  V30 7 C -2.326 -1.8066 0.8281 0
M  V30 8 C -2.0427 0.3987 1.9099 0 CFG=1
M  V30 9 C -1.8267 -3.0138 0.2368 0
M  V30 10 C 0.0047 -4.5056 -0.4841 0
M  V30 11 C 2.3872 -3.106 1.8553 0
M  V30 12 O -3.7224 -1.6751 0.8137 0
M  V30 13 C -2.0478 1.603 0.9763 0
M  V30 14 C -3.4401 0.1038 2.4629 0
M  V30 15 C 3.8713 -3.3619 1.7701 0
M  V30 16 C -4.3094 -0.6343 1.4771 0
M  V30 17 C -2.1115 2.9365 1.668 0
M  V30 18 C -1.9737 1.5683 -0.3685 0
M  V30 19 C 4.3585 -4.625 1.4052 0
M  V30 20 C 4.7812 -2.3271 2.0286 0
M  V30 21 O -5.5038 -0.3859 1.3425 0
M  V30 22 O -2.1987 3.0198 2.8897 0
M  V30 23 N -2.0874 4.0577 0.8859 0
M  V30 24 C -1.9596 2.7965 -1.1648 0
M  V30 25 C 5.7333 -4.8526 1.3082 0
M  V30 26 C 6.1542 -2.5547 1.9303 0
M  V30 27 C -2.0147 4.0322 -0.5092 0
M  V30 28 C -1.8835 2.7607 -2.5597 0
M  V30 29 C 6.6196 -3.8136 1.5723 0
M  V30 30 C -2.0055 5.2269 -1.2278 0
M  V30 31 C -1.8608 3.9535 -3.2828 0
M  V30 32 O 7.9687 -3.9921 1.4889 0
M  V30 33 C -1.9437 5.1834 -2.619 0
M  V30 34 O -1.763 3.8421 -4.6465 0
M  V30 35 O -1.9605 6.3893 -3.2726 0
M  V30 36 C -1.406 5.0918 -5.2489 0
M  V30 37 C -2.2371 6.2238 -4.6683 0
M  V30 38 H 2.1071 -3.089 -0.3105 0
M  V30 39 H 2.3296 -1.5128 0.3959 0
M  V30 40 H -1.406 0.6401 2.7724 0
M  V30 41 H -2.5526 -3.734 -0.1299 0
M  V30 42 H 0.5553 -4.2908 -1.4055 0
M  V30 43 H -0.8129 -5.1851 -0.75 0
M  V30 44 H 0.6575 -5.0486 0.2059 0
M  V30 45 H 2.1814 -2.452 2.7124 0
M  V30 46 H 1.8644 -4.045 2.0755 0
M  V30 47 H -3.9568 1.0259 2.7528 0
M  V30 48 H -3.3732 -0.5198 3.3638 0
M  V30 49 H -1.917 0.6348 -0.9177 0
M  V30 50 H 3.6701 -5.4407 1.1969 0
M  V30 51 H 4.4253 -1.3372 2.3087 0
M  V30 52 H -2.1298 4.9393 1.3793 0
M  V30 53 H 6.0899 -5.8383 1.0275 0
M  V30 54 H 6.8572 -1.7519 2.1332 0
M  V30 55 H -1.8302 1.8154 -3.0925 0
M  V30 56 H -2.0568 6.1866 -0.7234 0
M  V30 57 H 8.1443 -4.9163 1.2494 0
M  V30 58 H -1.5849 5.004 -6.325 0
M  V30 59 H -0.3332 5.2601 -5.0928 0
M  V30 60 H -1.9947 7.1667 -5.1683 0
M  V30 61 H -3.3113 6.0377 -4.791 0
M  V30 END ATOM
M  V30 BEGIN BOND
M  V30 1 2 1 2
M  V30 2 1 2 3
M  V30 3 1 2 4
M  V30 4 1 3 5
M  V30 5 1 3 6
M  V30 6 2 4 7
M  V30 7 1 4 8
M  V30 8 2 5 9
M  V30 9 1 5 10
M  V30 10 1 6 11
M  V30 11 1 7 12
M  V30 12 1 8 13
M  V30 13 1 8 14
M  V30 14 1 11 15
M  V30 15 1 12 16
M  V30 16 1 13 17
M  V30 17 2 13 18
M  V30 18 2 15 19
M  V30 19 1 15 20
M  V30 20 2 16 21
M  V30 21 2 17 22
M  V30 22 1 17 23
M  V30 23 1 18 24
M  V30 24 1 19 25
M  V30 25 2 20 26
M  V30 26 1 23 27
M  V30 27 1 24 28
M  V30 28 2 25 29
M  V30 29 1 27 30
M  V30 30 2 28 31
M  V30 31 1 29 32
M  V30 32 2 30 33
M  V30 33 1 31 34
M  V30 34 1 33 35
M  V30 35 1 34 36
M  V30 36 1 35 37
M  V30 37 1 7 9
M  V30 38 1 14 16
M  V30 39 2 24 27
M  V30 40 1 26 29
M  V30 41 1 31 33
M  V30 42 1 36 37
M  V30 43 1 6 38
M  V30 44 1 6 39
M  V30 45 1 8 40
M  V30 46 1 9 41
M  V30 47 1 10 42
M  V30 48 1 10 43
M  V30 49 1 10 44
M  V30 50 1 11 45
M  V30 51 1 11 46
M  V30 52 1 14 47
M  V30 53 1 14 48
M  V30 54 1 18 49
M  V30 55 1 19 50
M  V30 56 1 20 51
M  V30 57 1 23 52
M  V30 58 1 25 53
M  V30 59 1 26 54
M  V30 60 1 28 55
M  V30 61 1 30 56
M  V30 62 1 32 57
M  V30 63 1 36 58
M  V30 64 1 36 59
M  V30 65 1 37 60
M  V30 66 1 37 61
M  V30 END BOND
M  V30 BEGIN COLLECTION
M  V30 MDLV30/STEABS ATOMS=(1 8)
M  V30 END COLLECTION
M  V30 END CTAB
M  END
>  <Column 1>
2781

>  <level_0>
4016

>  <index>
4016

>  <Unnamed: 0>
4016

>  <NO.>
4028

>  <Name>
androsan

>  <IUPAC_name>
(4r)-6-[2-(4-hydroxyphenyl)ethyl]-7-methyl-4-(7-oxo-3-6-dihydro-2h-[1-4]dioxino[2-3-g]quinolin-8-yl)-3-4-dihydropyrano[3-2-c]pyridine-2-5-dione

>  <SMILES>
Cc1cc2c(c(=O)n1CCc1ccc(O)cc1)[C@@H](c1cc3cc4c(cc3[nH]c1=O)OCCO4)CC(=O)O2

>  <CID>
100004160

>  <logBB>


>  <BBB+/BBB->
BBB-

>  <Inchi>
InChI=1S/C28H24N2O7/c1-15-10-24-26(28(34)30(15)7-6-16-2-4-18(31)5-3-16)19(13-25(32)37-24)20-11-17-12-22-23(36-9-8-35-22)14-21(17)29-27(20)33/h2-5-10-12-14-19-31H-6-9-13H2-1H3-(H-29-33)/t19-/m1/s1

>  <threshold>
-1

>  <reference>
R16|R10|R10|

>  <group>
B

>  <Class>
-1

>  <ABC>
29.88

>  <ABCGG>
20.67

>  <nAcid>
0

>  <nBase>
0

>  <nAromAtom>
22

>  <nAromBond>
23

>  <nAtom>
61

>  <nHeavyAtom>
37

>  <nSpiro>
0

>  <nBridgehead>
0

>  <nHetero>
9

>  <nN>
2

>  <nO>
7

>  <nF>
0

>  <BalabanJ>
1.15

>  <BertzCT>
1667.74

>  <nBonds>
66

>  <nBondsO>
42

>  <nBondsS>
40

>  <nBondsD>
3

>  <nBondsT>
0

>  <nBondsA>
23

>  <nBondsM>
26

>  <nBondsKS>
54

>  <nBondsKD>
12

>  <RNCG>
0.14

>  <RPCG>
0.09

>  <FCSP3>
0.25

>  <SZ>
43.67

>  <Sm>
41.67

>  <Sv>
41.02

>  <Sse>
62.29

>  <Sp>
42.26

>  <Si>
68.03

>  <MZ>
0.72

>  <Mm>
0.68

>  <Mv>
0.67

>  <Mse>
1.02

>  <Mp>
0.69

>  <Mi>
1.12

>  <NsCH3>
1

>  <NdCH2>
0

>  <NssCH2>
5

>  <NtCH>
0

>  <NdsCH>
0

>  <NaaCH>
8

>  <NsssCH>
1

>  <NddC>
0

>  <NtsC>
0

>  <NdssC>
1

>  <NaasC>
8

>  <NaaaC>
2

>  <NssssC>
0

>  <NsNH3>
0

>  <NsNH2>
0

>  <NssNH2>
0

>  <NdNH>
0

>  <NssNH>
0

>  <NaaNH>
1

>  <NtN>
0

>  <NsssNH>
0

>  <NdsN>
0

>  <NaaN>
0

>  <NsssN>
0

>  <NddsN>
0

>  <NaasN>
1

>  <NssssN>
0

>  <NsOH>
1

>  <NdO>
3

>  <NssO>
3

>  <NaaO>
0

>  <NsF>
0

>  <NsSiH3>
0

>  <NssSiH2>
0

>  <NsssSiH>
0

>  <NssssSi>
0

>  <NsPH2>
0

>  <NssPH>
0

>  <NsssP>
0

>  <NdsssP>
0

>  <NsssssP>
0

>  <NsSH>
0

>  <NdS>
0

>  <NssS>
0

>  <NaaS>
0

>  <NdssS>
0

>  <NddssS>
0

>  <NsCl>
0

>  <NsBr>
0

>  <NsI>
0

>  <fragCpx>
432.09

>  <fMF>
0.52

>  <nHBAcc>
8

>  <nHBDon>
2

>  <Kier1>
27.18

>  <Kier2>
11.47

>  <Lipinski>
0

>  <GhoseFilter>
0

>  <FilterItLogS>
-6.84

>  <VMcGowan>
349.67

>  <LabuteASA>
210.4

>  <PEOE_VSA1>
28.87

>  <PEOE_VSA2>
14.38

>  <PEOE_VSA3>
0

>  <PEOE_VSA4>
0

>  <PEOE_VSA5>
0

>  <PEOE_VSA6>
12.13

>  <PEOE_VSA7>
43.17

>  <PEOE_VSA8>
41.24

>  <PEOE_VSA9>
17.5

>  <PEOE_VSA10>
24.71

>  <PEOE_VSA11>
11.5

>  <PEOE_VSA12>
0

>  <PEOE_VSA13>
11.12

>  <SMR_VSA1>
24.11

>  <SMR_VSA2>
0

>  <SMR_VSA3>
9.55

>  <SMR_VSA4>
0

>  <SMR_VSA5>
32.23

>  <SMR_VSA6>
13.21

>  <SMR_VSA7>
91.62

>  <SMR_VSA8>
0

>  <SMR_VSA9>
23

>  <SlogP_VSA1>
25.33

>  <SlogP_VSA2>
33.84

>  <SlogP_VSA3>
17.76

>  <SlogP_VSA4>
6.92

>  <SlogP_VSA5>
34.72

>  <SlogP_VSA6>
58.12

>  <SlogP_VSA7>
0

>  <SlogP_VSA8>
10.9

>  <SlogP_VSA9>
0

>  <SlogP_VSA10>
0

>  <SlogP_VSA11>
23

>  <EState_VSA1>
11.89

>  <EState_VSA2>
29.04

>  <EState_VSA3>
65.4

>  <EState_VSA4>
5.56

>  <EState_VSA5>
0

>  <EState_VSA6>
60.02

>  <EState_VSA7>
0

>  <EState_VSA8>
4.98

>  <EState_VSA9>
14.21

>  <EState_VSA10>
19.49

>  <VSA_EState1>
18.38

>  <VSA_EState2>
42.36

>  <VSA_EState3>
10.24

>  <VSA_EState4>
2.11

>  <VSA_EState5>
0.24

>  <VSA_EState6>
13.71

>  <VSA_EState7>
0.44

>  <VSA_EState8>
3.03

>  <VSA_EState9>
0

>  <apol>
70.58

>  <bpol>
34.17

>  <nRing>
6

>  <nHRing>
4

>  <naRing>
4

>  <naHRing>
2

>  <nARing 2>
2

>  <nAHRing 2>
2

>  <nFRing>
2

>  <nFHRing>
2

>  <nFaRing>
0

>  <nFaHRing>
0

>  <nFARing 2>
2

>  <nFAHRing 2>
2

>  <nRot>
4

>  <SLogP>
3.16

>  <SMR>
134.9

>  <TopoPSA(NO)>
119.85

>  <TopoPSA>
119.85

>  <JGI1>
0.19

>  <JGI2>
0.07

>  <JGI3>
0.04

>  <JGI4>
0.05

>  <JGI5>
0.03

>  <Diameter>
18

>  <Radius>
9

>  <TMWC10>
159.64

>  <TSRW10>
74.43

>  <MW>
500.16

>  <AMW>
8.2

>  <WPath>
4346

>  <WPol>
68

>  <Zagreb1>
208

>  <Zagreb2>
252

>  <mZagreb2>
7.83

>  <yes>


>  <nAR-cont>
1

>  <nHA-cont>
0.433355441

>  <MWHBN>
0.447142058

>  <MWHBN-cont>
0.296191168

>  <TPSA-cont>
0.163372578

>  <pka_cont>
0.97

>  <yes.1>


>  <BBB_SCORE>
2.689387348

>  <MMFF94 Energy>
18.094

$$$$
Compound 2274
Actelion Java MolfileCreator 2.0

  0  0  0  0  0  0              0 V3000
M  V30 BEGIN CTAB
M  V30 COUNTS 34 37 0 0 0
M  V30 BEGIN ATOM
M  V30 1 O -0.9777 -0.7332 -2.7721 0
M  V30 2 C -1.1975 -1.3278 -1.7225 0
M  V30 3 O -2.3898 -1.9608 -1.4894 0
M  V30 4 C -0.1719 -1.4146 -0.6594 0
M  V30 5 C -2.6124 -2.7065 -0.3055 0
M  V30 6 C -0.407 -2.1592 0.4247 0
M  V30 7 C 1.1379 -0.7193 -0.8452 0 CFG=1
M  V30 8 C -1.6612 -2.8191 0.6284 0
M  V30 9 C -3.9656 -3.3315 -0.2157 0
M  V30 10 O 0.5159 -2.3167 1.4685 0
M  V30 11 C 1.0451 0.7755 -0.5485 0
M  V30 12 C 2.2278 -1.4389 -0.0474 0
M  V30 13 C 1.7981 -1.8701 1.3316 0
M  V30 14 C 0.9571 1.2844 0.7598 0
M  V30 15 C 1.0112 1.6851 -1.6366 0
M  V30 16 O 2.585 -1.8995 2.2735 0
M  V30 17 C 0.861 2.6519 0.9275 0
M  V30 18 C 0.9128 3.066 -1.4342 0
M  V30 19 O 0.77 3.2967 2.1219 0
M  V30 20 C 0.842 3.5182 -0.1375 0
M  V30 21 C 0.699 4.6696 1.6839 0
M  V30 22 O 0.74 4.8171 0.2496 0
M  V30 23 H 1.4448 -0.826 -1.8954 0
M  V30 24 H -1.8168 -3.3858 1.5409 0
M  V30 25 H -4.122 -4.0163 -1.055 0
M  V30 26 H -4.7412 -2.5599 -0.2493 0
M  V30 27 H -4.0933 -3.8988 0.7118 0
M  V30 28 H 3.1174 -0.8043 0.0452 0
M  V30 29 H 2.5328 -2.3532 -0.5731 0
M  V30 30 H 0.9542 0.6522 1.64 0
M  V30 31 H 1.0482 1.314 -2.661 0
M  V30 32 H 0.8851 3.7556 -2.2702 0
M  V30 33 H -0.2346 5.1079 2.0548 0
M  V30 34 H 1.542 5.22 2.1174 0
M  V30 END ATOM
M  V30 BEGIN BOND
M  V30 1 2 1 2
M  V30 2 1 2 3
M  V30 3 1 2 4
M  V30 4 1 3 5
M  V30 5 2 4 6
M  V30 6 1 4 7
M  V30 7 2 5 8
M  V30 8 1 5 9
M  V30 9 1 6 10
M  V30 10 1 7 11
M  V30 11 1 7 12
M  V30 12 1 10 13
M  V30 13 2 11 14
M  V30 14 1 11 15
M  V30 15 2 13 16
M  V30 16 1 14 17
M  V30 17 2 15 18
M  V30 18 1 17 19
M  V30 19 2 17 20
M  V30 20 1 19 21
M  V30 21 1 20 22
M  V30 22 1 6 8
M  V30 23 1 12 13
M  V30 24 1 18 20
M  V30 25 1 21 22
M  V30 26 1 7 23
M  V30 27 1 8 24
M  V30 28 1 9 25
M  V30 29 1 9 26
M  V30 30 1 9 27
M  V30 31 1 12 28
M  V30 32 1 12 29
M  V30 33 1 14 30
M  V30 34 1 15 31
M  V30 35 1 18 32
M  V30 36 1 21 33
M  V30 37 1 21 34
M  V30 END BOND
M  V30 BEGIN COLLECTION
M  V30 MDLV30/STEABS ATOMS=(1 7)
M  V30 END COLLECTION
M  V30 END CTAB
M  END
>  <Column 1>
2782

>  <level_0>
4017

>  <index>
4017

>  <Unnamed: 0>
4017

>  <NO.>
4029

>  <Name>
ranitidine

>  <IUPAC_name>
(4r)-4-(1-3-benzodioxol-5-yl)-7-methyl-3-4-dihydropyrano[3-2-c]pyran-2-5-dione

>  <SMILES>
Cc1cc2c(c(=O)o1)[C@@H](c1ccc3c(c1)OCO3)CC(=O)O2

>  <CID>
100005039

>  <logBB>


>  <BBB+/BBB->
BBB-

>  <Inchi>
InChI=1S/C16H12O6/c1-8-4-13-15(16(18)21-8)10(6-14(17)22-13)9-2-3-11-12(5-9)20-7-19-11/h2-5-10H-6-7H2-1H3/t10-/m1/s1

>  <threshold>
-1

>  <reference>
R16|R10|

>  <group>
B

>  <Class>
-1

>  <ABC>
17.8

>  <ABCGG>
14.27

>  <nAcid>
0

>  <nBase>
0

>  <nAromAtom>
12

>  <nAromBond>
12

>  <nAtom>
34

>  <nHeavyAtom>
22

>  <nSpiro>
0

>  <nBridgehead>
0

>  <nHetero>
6

>  <nN>
0

>  <nO>
6

>  <nF>
0

>  <BalabanJ>
1.51

>  <BertzCT>
835.02

>  <nBonds>
37

>  <nBondsO>
25

>  <nBondsS>
23

>  <nBondsD>
2

>  <nBondsT>
0

>  <nBondsA>
12

>  <nBondsM>
14

>  <nBondsKS>
30

>  <nBondsKD>
7

>  <RNCG>
0.19

>  <RPCG>
0.14

>  <FCSP3>
0.25

>  <SZ>
26

>  <Sm>
25

>  <Sv>
23.54

>  <Sse>
35.31

>  <Sp>
23.67

>  <Si>
37.75

>  <MZ>
0.76

>  <Mm>
0.74

>  <Mv>
0.69

>  <Mse>
1.04

>  <Mp>
0.7

>  <Mi>
1.11

>  <NsCH3>
1

>  <NdCH2>
0

>  <NssCH2>
2

>  <NtCH>
0

>  <NdsCH>
0

>  <NaaCH>
4

>  <NsssCH>
1

>  <NddC>
0

>  <NtsC>
0

>  <NdssC>
1

>  <NaasC>
6

>  <NaaaC>
0

>  <NssssC>
0

>  <NsNH3>
0

>  <NsNH2>
0

>  <NssNH2>
0

>  <NdNH>
0

>  <NssNH>
0

>  <NaaNH>
0

>  <NtN>
0

>  <NsssNH>
0

>  <NdsN>
0

>  <NaaN>
0

>  <NsssN>
0

>  <NddsN>
0

>  <NaasN>
0

>  <NssssN>
0

>  <NsOH>
0

>  <NdO>
2

>  <NssO>
3

>  <NaaO>
1

>  <NsF>
0

>  <NsSiH3>
0

>  <NssSiH2>
0

>  <NsssSiH>
0

>  <NssssSi>
0

>  <NsPH2>
0

>  <NssPH>
0

>  <NsssP>
0

>  <NdsssP>
0

>  <NsssssP>
0

>  <NsSH>
0

>  <NdS>
0

>  <NssS>
0

>  <NaaS>
0

>  <NdssS>
0

>  <NddssS>
0

>  <NsCl>
0

>  <NsBr>
0

>  <NsI>
0

>  <fragCpx>
163.06

>  <fMF>
0.56

>  <nHBAcc>
6

>  <nHBDon>
0

>  <Kier1>
15.52

>  <Kier2>
6.14

>  <Lipinski>
1

>  <GhoseFilter>
1

>  <FilterItLogS>
-4.21

>  <VMcGowan>
197.98

>  <LabuteASA>
124.77

>  <PEOE_VSA1>
18.63

>  <PEOE_VSA2>
4.79

>  <PEOE_VSA3>
4.79

>  <PEOE_VSA4>
0

>  <PEOE_VSA5>
0

>  <PEOE_VSA6>
6.07

>  <PEOE_VSA7>
24.62

>  <PEOE_VSA8>
11.98

>  <PEOE_VSA9>
11.98

>  <PEOE_VSA10>
11.51

>  <PEOE_VSA11>
11.5

>  <PEOE_VSA12>
6.79

>  <PEOE_VSA13>
0

>  <SMR_VSA1>
23.42

>  <SMR_VSA2>
0

>  <SMR_VSA3>
0

>  <SMR_VSA4>
0

>  <SMR_VSA5>
19.26

>  <SMR_VSA6>
6.79

>  <SMR_VSA7>
51.57

>  <SMR_VSA8>
0

>  <SMR_VSA9>
17.25

>  <SlogP_VSA1>
19.84

>  <SlogP_VSA2>
12.76

>  <SlogP_VSA3>
4.79

>  <SlogP_VSA4>
6.92

>  <SlogP_VSA5>
29.23

>  <SlogP_VSA6>
33.48

>  <SlogP_VSA7>
0

>  <SlogP_VSA8>
0

>  <SlogP_VSA9>
0

>  <SlogP_VSA10>
0

>  <SlogP_VSA11>
17.25

>  <EState_VSA1>
11.54

>  <EState_VSA2>
24.93

>  <EState_VSA3>
22.82

>  <EState_VSA4>
5.56

>  <EState_VSA5>
0

>  <EState_VSA6>
25.12

>  <EState_VSA7>
6.07

>  <EState_VSA8>
0

>  <EState_VSA9>
18.63

>  <EState_VSA10>
9.59

>  <VSA_EState1>
20.97

>  <VSA_EState2>
24.05

>  <VSA_EState3>
0

>  <VSA_EState4>
0.67

>  <VSA_EState5>
1.14

>  <VSA_EState6>
6.94

>  <VSA_EState7>
0.08

>  <VSA_EState8>
1.81

>  <VSA_EState9>
0

>  <apol>
39.53

>  <bpol>
20.72

>  <nRing>
4

>  <nHRing>
3

>  <naRing>
2

>  <naHRing>
1

>  <nARing 2>
2

>  <nAHRing 2>
2

>  <nFRing>
2

>  <nFHRing>
2

>  <nFaRing>
0

>  <nFaHRing>
0

>  <nFARing 2>
2

>  <nFAHRing 2>
2

>  <nRot>
1

>  <SLogP>
2.12

>  <SMR>
74.38

>  <TopoPSA(NO)>
74.97

>  <TopoPSA>
74.97

>  <JGI1>
0.2

>  <JGI2>
0.07

>  <JGI3>
0.05

>  <JGI4>
0.05

>  <JGI5>
0.03

>  <Diameter>
10

>  <Radius>
5

>  <TMWC10>
122.94

>  <TSRW10>
70.38

>  <MW>
300.06

>  <AMW>
8.83

>  <WPath>
970

>  <WPol>
37

>  <Zagreb1>
124

>  <Zagreb2>
150

>  <mZagreb2>
4.64

>  <yes>


>  <nAR-cont>
1

>  <nHA-cont>
0.983774276

>  <MWHBN>
0.346375526

>  <MWHBN-cont>
0.683739728

>  <TPSA-cont>
0.476662846

>  <pka_cont>
0.97

>  <yes.1>


>  <BBB_SCORE>
4.447709561

>  <MMFF94 Energy>
23.661

$$$$
Compound 2275
Actelion Java MolfileCreator 2.0

  0  0  0  0  0  0              0 V3000
M  V30 BEGIN CTAB
M  V30 COUNTS 56 59 0 0 0
M  V30 BEGIN ATOM
M  V30 1 S 3.1915 -0.7971 1.2756 0
M  V30 2 C 1.6439 -0.3502 0.8856 0
M  V30 3 N 1.172 0.3201 -0.2446 0
M  V30 4 N 0.5757 -0.6296 1.7117 0
M  V30 5 C -0.2692 0.5396 -0.1325 0 CFG=2
M  V30 6 C 1.9812 0.9136 -1.3176 0
M  V30 7 C -0.69 -0.1857 1.1672 0 CFG=2
M  V30 8 C -1.0017 0.1163 -1.3825 0
M  V30 9 C 1.7556 2.4247 -1.5677 0
M  V30 10 C -1.4907 0.6691 2.1378 0
M  V30 11 N -1.1404 -1.1788 -1.8677 0
M  V30 12 C -1.6929 0.9503 -2.2546 0
M  V30 13 N 1.804 3.2961 -0.3778 0
M  V30 14 N -1.0511 0.7651 3.4223 0
M  V30 15 C -2.6791 1.2735 1.723 0
M  V30 16 C -0.6629 -2.3853 -1.3196 0
M  V30 17 C -1.9093 -1.139 -3.0131 0
M  V30 18 C -2.2567 0.1627 -3.2773 0
M  V30 19 C 1.3853 4.6549 -0.7249 0
M  V30 20 C 3.1396 3.326 0.22 0
M  V30 21 C -1.7797 1.5065 4.2843 0
M  V30 22 C -3.4127 2.0264 2.6368 0
M  V30 23 C -1.5757 -3.2779 -0.7498 0
M  V30 24 C 0.691 -2.7012 -1.404 0
M  V30 25 C -2.9545 2.1509 3.9416 0
M  V30 26 C -1.1132 -4.4815 -0.2168 0
M  V30 27 C 1.1455 -3.9054 -0.865 0
M  V30 28 C 0.252 -4.7958 -0.2534 0
M  V30 29 C 0.7463 -6.099 0.3018 0
M  V30 30 H 0.6737 -1.0316 2.6342 0
M  V30 31 H -0.4037 1.621 -0.0022 0
M  V30 32 H 1.7412 0.3698 -2.2382 0
M  V30 33 H 3.0423 0.7347 -1.1239 0
M  V30 34 H -1.2829 -1.0863 0.9895 0
M  V30 35 H 2.4789 2.7636 -2.3214 0
M  V30 36 H 0.7675 2.5326 -2.03 0
M  V30 37 H -1.7769 2.0261 -2.154 0
M  V30 38 H -3.0407 1.1627 0.7055 0
M  V30 39 H -2.1357 -2.0517 -3.5494 0
M  V30 40 H -2.8526 0.5029 -4.1145 0
M  V30 41 H 0.3622 4.6544 -1.1173 0
M  V30 42 H 2.0425 5.1121 -1.4734 0
M  V30 43 H 1.3761 5.2952 0.1643 0
M  V30 44 H 3.8973 3.6899 -0.4832 0
M  V30 45 H 3.4429 2.3372 0.5709 0
M  V30 46 H 3.1502 3.9771 1.1016 0
M  V30 47 H -1.3799 1.5684 5.2924 0
M  V30 48 H -4.3364 2.5102 2.3321 0
M  V30 49 H -2.6367 -3.0452 -0.7083 0
M  V30 50 H 1.3996 -2.0279 -1.8761 0
M  V30 51 H -3.5009 2.7322 4.6756 0
M  V30 52 H -1.8223 -5.1734 0.2321 0
M  V30 53 H 2.2062 -4.1418 -0.918 0
M  V30 54 H 0.1208 -6.43 1.1375 0
M  V30 55 H 1.7684 -5.9986 0.6818 0
M  V30 56 H 0.7315 -6.867 -0.4773 0
M  V30 END ATOM
M  V30 BEGIN BOND
M  V30 1 2 1 2
M  V30 2 1 2 3
M  V30 3 1 2 4
M  V30 4 1 3 5
M  V30 5 1 3 6
M  V30 6 1 4 7
M  V30 7 1 5 8
M  V30 8 1 6 9
M  V30 9 1 7 10
M  V30 10 1 8 11
M  V30 11 2 8 12
M  V30 12 1 9 13
M  V30 13 2 10 14
M  V30 14 1 10 15
M  V30 15 1 11 16
M  V30 16 1 11 17
M  V30 17 1 12 18
M  V30 18 1 13 19
M  V30 19 1 13 20
M  V30 20 1 14 21
M  V30 21 2 15 22
M  V30 22 2 16 23
M  V30 23 1 16 24
M  V30 24 2 21 25
M  V30 25 1 23 26
M  V30 26 2 24 27
M  V30 27 2 26 28
M  V30 28 1 28 29
M  V30 29 1 5 7
M  V30 30 2 17 18
M  V30 31 1 22 25
M  V30 32 1 27 28
M  V30 33 1 4 30
M  V30 34 1 5 31
M  V30 35 1 6 32
M  V30 36 1 6 33
M  V30 37 1 7 34
M  V30 38 1 9 35
M  V30 39 1 9 36
M  V30 40 1 12 37
M  V30 41 1 15 38
M  V30 42 1 17 39
M  V30 43 1 18 40
M  V30 44 1 19 41
M  V30 45 1 19 42
M  V30 46 1 19 43
M  V30 47 1 20 44
M  V30 48 1 20 45
M  V30 49 1 20 46
M  V30 50 1 21 47
M  V30 51 1 22 48
M  V30 52 1 23 49
M  V30 53 1 24 50
M  V30 54 1 25 51
M  V30 55 1 26 52
M  V30 56 1 27 53
M  V30 57 1 29 54
M  V30 58 1 29 55
M  V30 59 1 29 56
M  V30 END BOND
M  V30 BEGIN COLLECTION
M  V30 MDLV30/STEABS ATOMS=(2 5 7)
M  V30 END COLLECTION
M  V30 END CTAB
M  END
>  <Column 1>
2783

>  <level_0>
4018

>  <index>
4018

>  <Unnamed: 0>
4018

>  <NO.>
4030

>  <Name>
cortisone

>  <IUPAC_name>
(4r-5r)-1-[2-(dimethylamino)ethyl]-5-[1-(4-methylphenyl)pyrrol-2-yl]-4-pyridin-2-ylimidazolidine-2-thione

>  <SMILES>
Cc1ccc(-n2cccc2[C@H]2[C@H](c3ccccn3)NC(=S)N2CCN(C)C)cc1

>  <CID>
100222786

>  <logBB>


>  <BBB+/BBB->
BBB-

>  <Inchi>
InChI=1S/C23H27N5S/c1-17-9-11-18(12-10-17)27-14-6-8-20(27)22-21(19-7-4-5-13-24-19)25-23(29)28(22)16-15-26(2)3/h4-14-21-22H-15-16H2-1-3H3-(H-25-29)/t21--22-/m0/s1

>  <threshold>
-1

>  <reference>
R16|R10|R10|

>  <group>
B

>  <Class>
-1

>  <ABC>
22.78

>  <ABCGG>
19.06

>  <nAcid>
0

>  <nBase>
1

>  <nAromAtom>
17

>  <nAromBond>
17

>  <nAtom>
56

>  <nHeavyAtom>
29

>  <nSpiro>
0

>  <nBridgehead>
0

>  <nHetero>
6

>  <nN>
5

>  <nO>
0

>  <nF>
0

>  <BalabanJ>
1.53

>  <BertzCT>
964.45

>  <nBonds>
59

>  <nBondsO>
32

>  <nBondsS>
41

>  <nBondsD>
1

>  <nBondsT>
0

>  <nBondsA>
17

>  <nBondsM>
18

>  <nBondsKS>
50

>  <nBondsKD>
9

>  <RNCG>
0.16

>  <RPCG>
0.08

>  <FCSP3>
0.3

>  <SZ>
36

>  <Sm>
33.77

>  <Sv>
35.29

>  <Sse>
55.38

>  <Sp>
38.81

>  <Si>
62.98

>  <MZ>
0.64

>  <Mm>
0.6

>  <Mv>
0.63

>  <Mse>
0.99

>  <Mp>
0.69

>  <Mi>
1.12

>  <NsCH3>
3

>  <NdCH2>
0

>  <NssCH2>
2

>  <NtCH>
0

>  <NdsCH>
0

>  <NaaCH>
11

>  <NsssCH>
2

>  <NddC>
0

>  <NtsC>
0

>  <NdssC>
1

>  <NaasC>
4

>  <NaaaC>
0

>  <NssssC>
0

>  <NsNH3>
0

>  <NsNH2>
0

>  <NssNH2>
0

>  <NdNH>
0

>  <NssNH>
1

>  <NaaNH>
0

>  <NtN>
0

>  <NsssNH>
0

>  <NdsN>
0

>  <NaaN>
1

>  <NsssN>
2

>  <NddsN>
0

>  <NaasN>
1

>  <NssssN>
0

>  <NsOH>
0

>  <NdO>
0

>  <NssO>
0

>  <NaaO>
0

>  <NsF>
0

>  <NsSiH3>
0

>  <NssSiH2>
0

>  <NsssSiH>
0

>  <NssssSi>
0

>  <NsPH2>
0

>  <NssPH>
0

>  <NsssP>
0

>  <NdsssP>
0

>  <NsssssP>
0

>  <NsSH>
0

>  <NdS>
1

>  <NssS>
0

>  <NaaS>
0

>  <NdssS>
0

>  <NddssS>
0

>  <NsCl>
0

>  <NsBr>
0

>  <NsI>
0

>  <fragCpx>
212.06

>  <fMF>
0.39

>  <nHBAcc>
4

>  <nHBDon>
1

>  <Kier1>
22.2

>  <Kier2>
10.08

>  <Lipinski>
1

>  <GhoseFilter>
1

>  <FilterItLogS>
-4.85

>  <VMcGowan>
319.04

>  <LabuteASA>
177.53

>  <PEOE_VSA1>
19.68

>  <PEOE_VSA2>
4.98

>  <PEOE_VSA3>
0

>  <PEOE_VSA4>
0

>  <PEOE_VSA5>
0

>  <PEOE_VSA6>
23.76

>  <PEOE_VSA7>
69.64

>  <PEOE_VSA8>
36.86

>  <PEOE_VSA9>
17.78

>  <PEOE_VSA10>
0

>  <PEOE_VSA11>
5.11

>  <PEOE_VSA12>
0

>  <PEOE_VSA13>
0

>  <SMR_VSA1>
0

>  <SMR_VSA2>
0

>  <SMR_VSA3>
24.67

>  <SMR_VSA4>
0

>  <SMR_VSA5>
19.01

>  <SMR_VSA6>
27.18

>  <SMR_VSA7>
83.94

>  <SMR_VSA8>
0

>  <SMR_VSA9>
5.69

>  <SlogP_VSA1>
5.32

>  <SlogP_VSA2>
51.65

>  <SlogP_VSA3>
0

>  <SlogP_VSA4>
6.92

>  <SlogP_VSA5>
29.03

>  <SlogP_VSA6>
66.99

>  <SlogP_VSA7>
0

>  <SlogP_VSA8>
5.69

>  <SlogP_VSA9>
0

>  <SlogP_VSA10>
0

>  <SlogP_VSA11>
0

>  <EState_VSA1>
0

>  <EState_VSA2>
12.08

>  <EState_VSA3>
0

>  <EState_VSA4>
29.58

>  <EState_VSA5>
11.26

>  <EState_VSA6>
0

>  <EState_VSA7>
18.33

>  <EState_VSA8>
94.35

>  <EState_VSA9>
12.22

>  <EState_VSA10>
0

>  <VSA_EState1>
2.26

>  <VSA_EState2>
9.12

>  <VSA_EState3>
4.31

>  <VSA_EState4>
4.62

>  <VSA_EState5>
0

>  <VSA_EState6>
19.05

>  <VSA_EState7>
3.97

>  <VSA_EState8>
3.89

>  <VSA_EState9>
4.18

>  <apol>
64.81

>  <bpol>
35.16

>  <nRing>
4

>  <nHRing>
3

>  <naRing>
3

>  <naHRing>
2

>  <nARing 2>
1

>  <nAHRing 2>
1

>  <nFRing>
0

>  <nFHRing>
0

>  <nFaRing>
0

>  <nFaHRing>
0

>  <nFARing 2>
0

>  <nFAHRing 2>
0

>  <nRot>
6

>  <SLogP>
3.71

>  <SMR>
121.22

>  <TopoPSA(NO)>
36.33

>  <TopoPSA>
68.42

>  <JGI1>
0.16

>  <JGI2>
0.07

>  <JGI3>
0.04

>  <JGI4>
0.04

>  <JGI5>
0.02

>  <Diameter>
12

>  <Radius>
6

>  <TMWC10>
138.6

>  <TSRW10>
80.59

>  <MW>
405.2

>  <AMW>
7.24

>  <WPath>
2110

>  <WPol>
45

>  <Zagreb1>
154

>  <Zagreb2>
183

>  <mZagreb2>
6.36

>  <yes>


>  <nAR-cont>
0.816016

>  <nHA-cont>
0.785905698

>  <MWHBN>
0.248390674

>  <MWHBN-cont>
0.962441503

>  <TPSA-cont>
0.522385914

>  <pka_cont>
0.97

>  <yes.1>


>  <BBB_SCORE>
4.57535578

>  <MMFF94 Energy>
72.151

$$$$
Compound 2276
Actelion Java MolfileCreator 2.0

  0  0  0  0  0  0              0 V3000
M  V30 BEGIN CTAB
M  V30 COUNTS 23 23 0 0 0
M  V30 BEGIN ATOM
M  V30 1 N 1.7032 0.4642 -2.4782 0
M  V30 2 C 0.9342 -0.4515 -1.9667 0
M  V30 3 C 1.9796 1.5764 -1.7472 0
M  V30 4 N 0.7423 -1.5906 -2.6906 0
M  V30 5 C 0.2389 -0.3478 -0.6555 0
M  V30 6 N 1.657 2.7264 -2.223 0
M  V30 7 C 0.4711 -1.3198 0.3198 0
M  V30 8 C -0.6607 0.6938 -0.4202 0
M  V30 9 C -0.1908 -1.2376 1.5462 0
M  V30 10 C -1.3209 0.7711 0.8071 0
M  V30 11 C -1.0992 -0.1988 1.7946 0
M  V30 12 C -1.7853 -0.0941 3.1254 0
M  V30 13 H 2.4854 1.4746 -0.7706 0
M  V30 14 H 0.0779 -2.303 -2.4234 0
M  V30 15 H 1.1674 -1.6373 -3.6081 0
M  V30 16 H 1.9485 3.4532 -1.5648 0
M  V30 17 H 1.1733 -2.1284 0.1352 0
M  V30 18 H -0.853 1.4391 -1.1896 0
M  V30 19 H 0.0045 -1.989 2.3084 0
M  V30 20 H -2.0142 1.5905 0.986 0
M  V30 21 H -1.9441 -1.0857 3.5621 0
M  V30 22 H -1.1782 0.5025 3.813 0
M  V30 23 H -2.7689 0.376 3.0219 0
M  V30 END ATOM
M  V30 BEGIN BOND
M  V30 1 2 1 2
M  V30 2 1 1 3
M  V30 3 1 2 4
M  V30 4 1 2 5
M  V30 5 2 3 6
M  V30 6 2 5 7
M  V30 7 1 5 8
M  V30 8 1 7 9
M  V30 9 2 8 10
M  V30 10 2 9 11
M  V30 11 1 11 12
M  V30 12 1 10 11
M  V30 13 1 3 13
M  V30 14 1 4 14
M  V30 15 1 4 15
M  V30 16 1 6 16
M  V30 17 1 7 17
M  V30 18 1 8 18
M  V30 19 1 9 19
M  V30 20 1 10 20
M  V30 21 1 12 21
M  V30 22 1 12 22
M  V30 23 1 12 23
M  V30 END BOND
M  V30 END CTAB
M  END
>  <Column 1>
2784

>  <level_0>
4019

>  <index>
4019

>  <Unnamed: 0>
4019

>  <NO.>
4031

>  <Name>
oxytetracycline

>  <IUPAC_name>
n'-methanimidoyl-4-methylbenzenecarboximidamide

>  <SMILES>
Cc1ccc(C(N)=NC=N)cc1

>  <CID>
144134877

>  <logBB>


>  <BBB+/BBB->
BBB-

>  <Inchi>
InChI=1S/C9H11N3/c1-7-2-4-8(5-3-7)9(11)12-6-10/h2-6H-1H3-(H3-10-11-12)

>  <threshold>
-1

>  <reference>
R16|R10|R10|

>  <group>
B

>  <Class>
-1

>  <ABC>
8.66

>  <ABCGG>
8.06

>  <nAcid>
0

>  <nBase>
3

>  <nAromAtom>
6

>  <nAromBond>
6

>  <nAtom>
23

>  <nHeavyAtom>
12

>  <nSpiro>
0

>  <nBridgehead>
0

>  <nHetero>
3

>  <nN>
3

>  <nO>
0

>  <nF>
0

>  <BalabanJ>
2.24

>  <BertzCT>
298.05

>  <nBonds>
23

>  <nBondsO>
12

>  <nBondsS>
15

>  <nBondsD>
2

>  <nBondsT>
0

>  <nBondsA>
6

>  <nBondsM>
8

>  <nBondsKS>
18

>  <nBondsKD>
5

>  <RNCG>
0.32

>  <RPCG>
0.16

>  <FCSP3>
0.11

>  <SZ>
14.33

>  <Sm>
13.42

>  <Sv>
14.25

>  <Sse>
22.87

>  <Sp>
15.37

>  <Si>
26.16

>  <MZ>
0.62

>  <Mm>
0.58

>  <Mv>
0.62

>  <Mse>
0.99

>  <Mp>
0.67

>  <Mi>
1.14

>  <NsCH3>
1

>  <NdCH2>
0

>  <NssCH2>
0

>  <NtCH>
0

>  <NdsCH>
1

>  <NaaCH>
4

>  <NsssCH>
0

>  <NddC>
0

>  <NtsC>
0

>  <NdssC>
1

>  <NaasC>
2

>  <NaaaC>
0

>  <NssssC>
0

>  <NsNH3>
0

>  <NsNH2>
1

>  <NssNH2>
0

>  <NdNH>
1

>  <NssNH>
0

>  <NaaNH>
0

>  <NtN>
0

>  <NsssNH>
0

>  <NdsN>
1

>  <NaaN>
0

>  <NsssN>
0

>  <NddsN>
0

>  <NaasN>
0

>  <NssssN>
0

>  <NsOH>
0

>  <NdO>
0

>  <NssO>
0

>  <NaaO>
0

>  <NsF>
0

>  <NsSiH3>
0

>  <NssSiH2>
0

>  <NsssSiH>
0

>  <NssssSi>
0

>  <NsPH2>
0

>  <NssPH>
0

>  <NsssP>
0

>  <NdsssP>
0

>  <NsssssP>
0

>  <NsSH>
0

>  <NdS>
0

>  <NssS>
0

>  <NaaS>
0

>  <NdssS>
0

>  <NddssS>
0

>  <NsCl>
0

>  <NsBr>
0

>  <NsI>
0

>  <fragCpx>
12.03

>  <fMF>
0.26

>  <nHBAcc>
1

>  <nHBDon>
2

>  <Kier1>
10.08

>  <Kier2>
4.89

>  <Lipinski>
1

>  <GhoseFilter>
1

>  <FilterItLogS>
-2

>  <VMcGowan>
135.25

>  <LabuteASA>
71.45

>  <PEOE_VSA1>
5.73

>  <PEOE_VSA2>
5.41

>  <PEOE_VSA3>
4.99

>  <PEOE_VSA4>
0

>  <PEOE_VSA5>
0

>  <PEOE_VSA6>
29.83

>  <PEOE_VSA7>
6.92

>  <PEOE_VSA8>
5.56

>  <PEOE_VSA9>
0

>  <PEOE_VSA10>
12.17

>  <PEOE_VSA11>
0

>  <PEOE_VSA12>
0

>  <PEOE_VSA13>
0

>  <SMR_VSA1>
0

>  <SMR_VSA2>
5.41

>  <SMR_VSA3>
0

>  <SMR_VSA4>
10.73

>  <SMR_VSA5>
6.92

>  <SMR_VSA6>
0

>  <SMR_VSA7>
35.39

>  <SMR_VSA8>
0

>  <SMR_VSA9>
0

>  <SlogP_VSA1>
5.73

>  <SlogP_VSA2>
12.17

>  <SlogP_VSA3>
0

>  <SlogP_VSA4>
12.33

>  <SlogP_VSA5>
11.13

>  <SlogP_VSA6>
29.26

>  <SlogP_VSA7>
0

>  <SlogP_VSA8>
0

>  <SlogP_VSA9>
0

>  <SlogP_VSA10>
0

>  <SlogP_VSA11>
0

>  <EState_VSA1>
0

>  <EState_VSA2>
0

>  <EState_VSA3>
5.84

>  <EState_VSA4>
11.9

>  <EState_VSA5>
5.56

>  <EState_VSA6>
0

>  <EState_VSA7>
31.19

>  <EState_VSA8>
4.99

>  <EState_VSA9>
11.14

>  <EState_VSA10>
0

>  <VSA_EState1>
0

>  <VSA_EState2>
3.66

>  <VSA_EState3>
6.73

>  <VSA_EState4>
7.59

>  <VSA_EState5>
0.38

>  <VSA_EState6>
7.69

>  <VSA_EState7>
0.94

>  <VSA_EState8>
2.01

>  <VSA_EState9>
0

>  <apol>
25.66

>  <bpol>
11.61

>  <nRing>
1

>  <nHRing>
0

>  <naRing>
1

>  <naHRing>
0

>  <nARing 2>
0

>  <nAHRing 2>
0

>  <nFRing>
0

>  <nFHRing>
0

>  <nFaRing>
0

>  <nFaHRing>
0

>  <nFARing 2>
0

>  <nFAHRing 2>
0

>  <nRot>
2

>  <SLogP>
1.31

>  <SMR>
50.69

>  <TopoPSA(NO)>
62.23

>  <TopoPSA>
62.23

>  <JGI1>
0.21

>  <JGI2>
0.1

>  <JGI3>
0.04

>  <JGI4>
0.04

>  <JGI5>
0.04

>  <Diameter>
8

>  <Radius>
4

>  <TMWC10>
88.86

>  <TSRW10>
41.88

>  <MW>
161.1

>  <AMW>
7

>  <WPath>
211

>  <WPol>
14

>  <Zagreb1>
54

>  <Zagreb2>
59

>  <mZagreb2>
2.86

>  <yes>


>  <nAR-cont>
0.336376

>  <nHA-cont>
0.785745021

>  <MWHBN>
0.23635973

>  <MWHBN-cont>
0.979669192

>  <TPSA-cont>
0.565595957

>  <pka_cont>
0.97

>  <yes.1>


>  <BBB_SCORE>
4.207816723

>  <MMFF94 Energy>
-14.236

$$$$
Compound 2277
Actelion Java MolfileCreator 2.0

  0  0  0  0  0  0              0 V3000
M  V30 BEGIN CTAB
M  V30 COUNTS 48 49 0 0 0
M  V30 BEGIN ATOM
M  V30 1 S -1.7519 -3.2668 -0.4775 0
M  V30 2 C -0.238 -2.9814 -1.482 0 CFG=2
M  V30 3 C -0.9921 -3.5928 1.1457 0
M  V30 4 C -0.3573 -1.6455 -2.2238 0
M  V30 5 C -0.0601 -4.1512 -2.4422 0
M  V30 6 C -0.4517 -2.3394 1.7863 0
M  V30 7 O -0.3507 -1.5533 -3.4491 0
M  V30 8 N -0.406 -0.5432 -1.3966 0
M  V30 9 C 0.9302 -2.1241 1.8878 0
M  V30 10 C -1.3272 -1.3544 2.2695 0
M  V30 11 C -0.4919 0.8131 -1.9075 0 CFG=2
M  V30 12 C 1.424 -0.9412 2.439 0
M  V30 13 C -0.8309 -0.1755 2.8251 0
M  V30 14 C 0.1029 1.7752 -0.8823 0
M  V30 15 C -1.9307 1.1322 -2.3324 0
M  V30 16 C 0.5437 0.0324 2.9049 0
M  V30 17 C 1.4988 2.0017 -0.8241 0
M  V30 18 C -0.7178 2.422 0.064 0
M  V30 19 C 2.0191 2.8839 0.1372 0
M  V30 20 C 2.4558 1.3325 -1.7753 0
M  V30 21 C -0.193 3.3109 1.0126 0
M  V30 22 C 1.1832 3.5302 1.0463 0
M  V30 23 C -1.0913 3.9682 2.0181 0
M  V30 24 H 0.6468 -2.9192 -0.8419 0
M  V30 25 H -0.2142 -4.3565 1.0374 0
M  V30 26 H -1.7575 -4.0234 1.8015 0
M  V30 27 H 0.056 -5.0975 -1.9026 0
M  V30 28 H -0.9051 -4.2464 -3.1339 0
M  V30 29 H 0.8391 -4.0095 -3.0525 0
M  V30 30 H -0.4478 -0.6757 -0.3921 0
M  V30 31 H 1.6351 -2.8712 1.53 0
M  V30 32 H -2.4045 -1.4972 2.2032 0
M  V30 33 H 0.1041 0.8709 -2.8259 0
M  V30 34 H 2.4963 -0.7745 2.5018 0
M  V30 35 H -1.5163 0.5862 3.1871 0
M  V30 36 H -2.6483 0.946 -1.5257 0
M  V30 37 H -2.0279 2.1757 -2.6505 0
M  V30 38 H -2.2345 0.4979 -3.1727 0
M  V30 39 H 0.9296 0.9582 3.3238 0
M  V30 40 H -1.7893 2.2355 0.0746 0
M  V30 41 H 3.0894 3.073 0.1858 0
M  V30 42 H 2.3358 0.2454 -1.7433 0
M  V30 43 H 2.2913 1.6935 -2.7951 0
M  V30 44 H 3.4975 1.547 -1.5132 0
M  V30 45 H 1.6165 4.2033 1.7822 0
M  V30 46 H -1.165 3.3477 2.9164 0
M  V30 47 H -0.7065 4.9542 2.2992 0
M  V30 48 H -2.0956 4.1173 1.608 0
M  V30 END ATOM
M  V30 BEGIN BOND
M  V30 1 1 1 2
M  V30 2 1 1 3
M  V30 3 1 2 4
M  V30 4 1 2 5
M  V30 5 1 3 6
M  V30 6 2 4 7
M  V30 7 1 4 8
M  V30 8 2 6 9
M  V30 9 1 6 10
M  V30 10 1 8 11
M  V30 11 1 9 12
M  V30 12 2 10 13
M  V30 13 1 11 14
M  V30 14 1 11 15
M  V30 15 2 12 16
M  V30 16 2 14 17
M  V30 17 1 14 18
M  V30 18 1 17 19
M  V30 19 1 17 20
M  V30 20 2 18 21
M  V30 21 2 19 22
M  V30 22 1 21 23
M  V30 23 1 13 16
M  V30 24 1 21 22
M  V30 25 1 2 24
M  V30 26 1 3 25
M  V30 27 1 3 26
M  V30 28 1 5 27
M  V30 29 1 5 28
M  V30 30 1 5 29
M  V30 31 1 8 30
M  V30 32 1 9 31
M  V30 33 1 10 32
M  V30 34 1 11 33
M  V30 35 1 12 34
M  V30 36 1 13 35
M  V30 37 1 15 36
M  V30 38 1 15 37
M  V30 39 1 15 38
M  V30 40 1 16 39
M  V30 41 1 18 40
M  V30 42 1 19 41
M  V30 43 1 20 42
M  V30 44 1 20 43
M  V30 45 1 20 44
M  V30 46 1 22 45
M  V30 47 1 23 46
M  V30 48 1 23 47
M  V30 49 1 23 48
M  V30 END BOND
M  V30 BEGIN COLLECTION
M  V30 MDLV30/STEABS ATOMS=(2 2 11)
M  V30 END COLLECTION
M  V30 END CTAB
M  END
>  <Column 1>
2785

>  <level_0>
4020

>  <index>
4020

>  <Unnamed: 0>
4020

>  <NO.>
4032

>  <Name>
chlorthalidone

>  <IUPAC_name>
(2s)-2-benzylsulfanyl-n-[(1s)-1-(2-5-dimethylphenyl)ethyl]propanamide

>  <SMILES>
Cc1ccc(C)c([C@H](C)NC(=O)[C@H](C)SCc2ccccc2)c1

>  <CID>
100002732

>  <logBB>


>  <BBB+/BBB->
BBB-

>  <Inchi>
InChI=1S/C20H25NOS/c1-14-10-11-15(2)19(12-14)16(3)21-20(22)17(4)23-13-18-8-6-5-7-9-18/h5-12-16-17H-13H2-1-4H3-(H-21-22)/t16--17-/m0/s1

>  <threshold>
-1

>  <reference>
R16|R10|R10|

>  <group>
B

>  <Class>
1

>  <ABC>
17.4

>  <ABCGG>
14.51

>  <nAcid>
0

>  <nBase>
0

>  <nAromAtom>
12

>  <nAromBond>
12

>  <nAtom>
48

>  <nHeavyAtom>
23

>  <nSpiro>
0

>  <nBridgehead>
0

>  <nHetero>
3

>  <nN>
1

>  <nO>
1

>  <nF>
0

>  <BalabanJ>
1.72

>  <BertzCT>
653.95

>  <nBonds>
49

>  <nBondsO>
24

>  <nBondsS>
36

>  <nBondsD>
1

>  <nBondsT>
0

>  <nBondsA>
12

>  <nBondsM>
13

>  <nBondsKS>
42

>  <nBondsKD>
7

>  <RNCG>
0.22

>  <RPCG>
0.15

>  <FCSP3>
0.35

>  <SZ>
29.33

>  <Sm>
27.27

>  <Sv>
29.43

>  <Sse>
47.17

>  <Sp>
32.86

>  <Si>
53.61

>  <MZ>
0.61

>  <Mm>
0.57

>  <Mv>
0.61

>  <Mse>
0.98

>  <Mp>
0.68

>  <Mi>
1.12

>  <NsCH3>
4

>  <NdCH2>
0

>  <NssCH2>
1

>  <NtCH>
0

>  <NdsCH>
0

>  <NaaCH>
8

>  <NsssCH>
2

>  <NddC>
0

>  <NtsC>
0

>  <NdssC>
1

>  <NaasC>
4

>  <NaaaC>
0

>  <NssssC>
0

>  <NsNH3>
0

>  <NsNH2>
0

>  <NssNH2>
0

>  <NdNH>
0

>  <NssNH>
1

>  <NaaNH>
0

>  <NtN>
0

>  <NsssNH>
0

>  <NdsN>
0

>  <NaaN>
0

>  <NsssN>
0

>  <NddsN>
0

>  <NaasN>
0

>  <NssssN>
0

>  <NsOH>
0

>  <NdO>
1

>  <NssO>
0

>  <NaaO>
0

>  <NsF>
0

>  <NsSiH3>
0

>  <NssSiH2>
0

>  <NsssSiH>
0

>  <NssssSi>
0

>  <NsPH2>
0

>  <NssPH>
0

>  <NsssP>
0

>  <NdsssP>
0

>  <NsssssP>
0

>  <NsSH>
0

>  <NdS>
0

>  <NssS>
1

>  <NaaS>
0

>  <NdssS>
0

>  <NddssS>
0

>  <NsCl>
0

>  <NsBr>
0

>  <NsI>
0

>  <fragCpx>
70.03

>  <fMF>
0.38

>  <nHBAcc>
2

>  <nHBDon>
1

>  <Kier1>
19.33

>  <Kier2>
9.47

>  <Lipinski>
1

>  <GhoseFilter>
1

>  <FilterItLogS>
-5.84

>  <VMcGowan>
273.04

>  <LabuteASA>
143.24

>  <PEOE_VSA1>
5.32

>  <PEOE_VSA2>
4.79

>  <PEOE_VSA3>
0

>  <PEOE_VSA4>
0

>  <PEOE_VSA5>
11.76

>  <PEOE_VSA6>
54.09

>  <PEOE_VSA7>
44.39

>  <PEOE_VSA8>
5.75

>  <PEOE_VSA9>
11.29

>  <PEOE_VSA10>
0

>  <PEOE_VSA11>
0

>  <PEOE_VSA12>
5.91

>  <PEOE_VSA13>
0

>  <SMR_VSA1>
4.79

>  <SMR_VSA2>
0

>  <SMR_VSA3>
5.32

>  <SMR_VSA4>
0

>  <SMR_VSA5>
44.74

>  <SMR_VSA6>
0

>  <SMR_VSA7>
70.78

>  <SMR_VSA8>
0

>  <SMR_VSA9>
0

>  <SlogP_VSA1>
5.32

>  <SlogP_VSA2>
11.16

>  <SlogP_VSA3>
10.55

>  <SlogP_VSA4>
13.85

>  <SlogP_VSA5>
42.14

>  <SlogP_VSA6>
48.53

>  <SlogP_VSA7>
0

>  <SlogP_VSA8>
0

>  <SlogP_VSA9>
0

>  <SlogP_VSA10>
0

>  <SlogP_VSA11>
0

>  <EState_VSA1>
0

>  <EState_VSA2>
17.2

>  <EState_VSA3>
0

>  <EState_VSA4>
5.75

>  <EState_VSA5>
22.25

>  <EState_VSA6>
11.76

>  <EState_VSA7>
32.05

>  <EState_VSA8>
49.5

>  <EState_VSA9>
0

>  <EState_VSA10>
4.79

>  <VSA_EState1>
0

>  <VSA_EState2>
12.41

>  <VSA_EState3>
3.07

>  <VSA_EState4>
4.88

>  <VSA_EState5>
0.95

>  <VSA_EState6>
16.66

>  <VSA_EState7>
0

>  <VSA_EState8>
8.19

>  <VSA_EState9>
0

>  <apol>
54.87

>  <bpol>
28.98

>  <nRing>
2

>  <nHRing>
0

>  <naRing>
2

>  <naHRing>
0

>  <nARing 2>
0

>  <nAHRing 2>
0

>  <nFRing>
0

>  <nFHRing>
0

>  <nFaRing>
0

>  <nFaHRing>
0

>  <nFARing 2>
0

>  <nFAHRing 2>
0

>  <nRot>
6

>  <SLogP>
4.8

>  <SMR>
99.67

>  <TopoPSA(NO)>
29.1

>  <TopoPSA>
54.4

>  <JGI1>
0.21

>  <JGI2>
0.09

>  <JGI3>
0.04

>  <JGI4>
0.04

>  <JGI5>
0.03

>  <Diameter>
13

>  <Radius>
7

>  <TMWC10>
119.34

>  <TSRW10>
56.69

>  <MW>
327.17

>  <AMW>
6.82

>  <WPath>
1364

>  <WPol>
32

>  <Zagreb1>
112

>  <Zagreb2>
126

>  <mZagreb2>
5.17

>  <yes>


>  <nAR-cont>
0.336376

>  <nHA-cont>
0.967789328

>  <MWHBN>
0.165857272

>  <MWHBN-cont>
0.967061715

>  <TPSA-cont>
0.62025422

>  <pka_cont>
0.97

>  <yes.1>


>  <BBB_SCORE>
4.48026634

>  <MMFF94 Energy>
45.571

$$$$
Compound 2278
Actelion Java MolfileCreator 2.0

  0  0  0  0  0  0              0 V3000
M  V30 BEGIN CTAB
M  V30 COUNTS 46 48 0 0 0
M  V30 BEGIN ATOM
M  V30 1 S -0.6468 -1.6986 1.4558 0
M  V30 2 O -2.0323 -1.9605 1.7923 0
M  V30 3 O 0.2489 -2.7691 1.0748 0
M  V30 4 N -0.6031 -0.5514 0.2343 0
M  V30 5 C 0.0744 -0.8285 2.8555 0
M  V30 6 C -1.8554 -0.2702 -0.5037 0 CFG=2
M  V30 7 C 1.2706 0.0037 2.4654 0
M  V30 8 C -2.366 -1.4538 -1.3168 0
M  V30 9 C -1.6947 0.9427 -1.45 0
M  V30 10 C 2.4648 -0.5911 2.0397 0
M  V30 11 C 1.2166 1.4022 2.567 0
M  V30 12 N -1.4461 -2.1974 -1.9853 0
M  V30 13 C -3.7293 -1.7412 -1.3638 0
M  V30 14 C -0.8739 2.1431 -0.8994 0
M  V30 15 C -0.6999 0.9192 -2.6484 0
M  V30 16 C 3.5692 0.1944 1.6996 0
M  V30 17 C 2.3236 2.1867 2.2332 0
M  V30 18 C -1.8934 -3.258 -2.6904 0
M  V30 19 C -4.1611 -2.8349 -2.1092 0
M  V30 20 C 0.3115 1.6973 -1.786 0
M  V30 21 C 3.5041 1.5894 1.7815 0
M  V30 22 C -3.2278 -3.6113 -2.7844 0
M  V30 23 O 1.3283 0.8824 -1.1723 0
M  V30 24 C 4.7046 2.4255 1.4511 0
M  V30 25 H 0.1736 -0.7466 -0.4144 0
M  V30 26 H 0.3524 -1.5766 3.6049 0
M  V30 27 H -0.7183 -0.2022 3.2791 0
M  V30 28 H -2.6098 0.0091 0.2442 0
M  V30 29 H -2.6981 1.2583 -1.7743 0
M  V30 30 H 2.5485 -1.6746 1.9625 0
M  V30 31 H 0.3101 1.8953 2.913 0
M  V30 32 H -4.4465 -1.1396 -0.815 0
M  V30 33 H -1.2822 3.1202 -1.1855 0
M  V30 34 H -0.6902 2.1576 0.178 0
M  V30 35 H -0.3586 -0.0582 -2.9954 0
M  V30 36 H -1.0511 1.4856 -3.5196 0
M  V30 37 H 4.4829 -0.2952 1.3685 0
M  V30 38 H 2.2588 3.2682 2.3324 0
M  V30 39 H -1.1232 -3.836 -3.1926 0
M  V30 40 H -5.2169 -3.0866 -2.1514 0
M  V30 41 H 0.7872 2.5296 -2.316 0
M  V30 42 H -3.5311 -4.4758 -3.3635 0
M  V30 43 H 1.658 1.3994 -0.4148 0
M  V30 44 H 4.4037 3.4086 1.0739 0
M  V30 45 H 5.3088 1.9501 0.6714 0
M  V30 46 H 5.3223 2.5628 2.3439 0
M  V30 END ATOM
M  V30 BEGIN BOND
M  V30 1 2 1 2
M  V30 2 2 1 3
M  V30 3 1 1 4
M  V30 4 1 1 5
M  V30 5 1 4 6
M  V30 6 1 5 7
M  V30 7 1 6 8
M  V30 8 1 6 9
M  V30 9 2 7 10
M  V30 10 1 7 11
M  V30 11 2 8 12
M  V30 12 1 8 13
M  V30 13 1 9 14
M  V30 14 1 9 15
M  V30 15 1 10 16
M  V30 16 2 11 17
M  V30 17 1 12 18
M  V30 18 2 13 19
M  V30 19 1 14 20
M  V30 20 2 16 21
M  V30 21 2 18 22
M  V30 22 1 20 23
M  V30 23 1 21 24
M  V30 24 1 15 20
M  V30 25 1 17 21
M  V30 26 1 19 22
M  V30 27 1 4 25
M  V30 28 1 5 26
M  V30 29 1 5 27
M  V30 30 1 6 28
M  V30 31 1 9 29
M  V30 32 1 10 30
M  V30 33 1 11 31
M  V30 34 1 13 32
M  V30 35 1 14 33
M  V30 36 1 14 34
M  V30 37 1 15 35
M  V30 38 1 15 36
M  V30 39 1 16 37
M  V30 40 1 17 38
M  V30 41 1 18 39
M  V30 42 1 19 40
M  V30 43 1 20 41
M  V30 44 1 22 42
M  V30 45 1 23 43
M  V30 46 1 24 44
M  V30 47 1 24 45
M  V30 48 1 24 46
M  V30 END BOND
M  V30 BEGIN COLLECTION
M  V30 MDLV30/STEABS ATOMS=(1 6)
M  V30 END COLLECTION
M  V30 END CTAB
M  END
>  <Column 1>
2786

>  <level_0>
4021

>  <index>
4021

>  <Unnamed: 0>
4021

>  <NO.>
4033

>  <Name>
reserpine

>  <IUPAC_name>
n-[(s)-(3-hydroxycyclobutyl)-pyridin-2-ylmethyl]-1-(4-methylphenyl)methanesulfonamide

>  <SMILES>
Cc1ccc(CS(=O)(=O)N[C@H](c2ccccn2)C2CC(O)C2)cc1

>  <CID>
100005052

>  <logBB>


>  <BBB+/BBB->
BBB+

>  <Inchi>
InChI=1S/C18H22N2O3S/c1-13-5-7-14(8-6-13)12-24(22-23)20-18(15-10-16(21)11-15)17-4-2-3-9-19-17/h2-9-15-16-18-20-21H-10-12H2-1H3/t15?-16?-18-/m0/s1

>  <threshold>
-1

>  <reference>
R16|R10|R10|

>  <group>
B

>  <Class>
-1

>  <ABC>
18.84

>  <ABCGG>
15.53

>  <nAcid>
0

>  <nBase>
0

>  <nAromAtom>
12

>  <nAromBond>
12

>  <nAtom>
46

>  <nHeavyAtom>
24

>  <nSpiro>
0

>  <nBridgehead>
0

>  <nHetero>
6

>  <nN>
2

>  <nO>
3

>  <nF>
0

>  <BalabanJ>
1.57

>  <BertzCT>
769.67

>  <nBonds>
48

>  <nBondsO>
26

>  <nBondsS>
34

>  <nBondsD>
2

>  <nBondsT>
0

>  <nBondsA>
12

>  <nBondsM>
14

>  <nBondsKS>
40

>  <nBondsKD>
8

>  <RNCG>
0.21

>  <RPCG>
0.12

>  <FCSP3>
0.39

>  <SZ>
30.67

>  <Sm>
28.84

>  <Sv>
28.81

>  <Sse>
46.16

>  <Sp>
31.28

>  <Si>
51.7

>  <MZ>
0.67

>  <Mm>
0.63

>  <Mv>
0.63

>  <Mse>
1

>  <Mp>
0.68

>  <Mi>
1.12

>  <NsCH3>
1

>  <NdCH2>
0

>  <NssCH2>
3

>  <NtCH>
0

>  <NdsCH>
0

>  <NaaCH>
8

>  <NsssCH>
3

>  <NddC>
0

>  <NtsC>
0

>  <NdssC>
0

>  <NaasC>
3

>  <NaaaC>
0

>  <NssssC>
0

>  <NsNH3>
0

>  <NsNH2>
0

>  <NssNH2>
0

>  <NdNH>
0

>  <NssNH>
1

>  <NaaNH>
0

>  <NtN>
0

>  <NsssNH>
0

>  <NdsN>
0

>  <NaaN>
1

>  <NsssN>
0

>  <NddsN>
0

>  <NaasN>
0

>  <NssssN>
0

>  <NsOH>
1

>  <NdO>
2

>  <NssO>
0

>  <NaaO>
0

>  <NsF>
0

>  <NsSiH3>
0

>  <NssSiH2>
0

>  <NsssSiH>
0

>  <NssssSi>
0

>  <NsPH2>
0

>  <NssPH>
0

>  <NsssP>
0

>  <NdsssP>
0

>  <NsssssP>
0

>  <NsSH>
0

>  <NdS>
0

>  <NssS>
0

>  <NaaS>
0

>  <NdssS>
0

>  <NddssS>
1

>  <NsCl>
0

>  <NsBr>
0

>  <NsI>
0

>  <fragCpx>
124.06

>  <fMF>
0.43

>  <nHBAcc>
4

>  <nHBDon>
2

>  <Kier1>
18.78

>  <Kier2>
8.13

>  <Lipinski>
1

>  <GhoseFilter>
1

>  <FilterItLogS>
-4.18

>  <VMcGowan>
260.02

>  <LabuteASA>
142.36

>  <PEOE_VSA1>
5.11

>  <PEOE_VSA2>
4.98

>  <PEOE_VSA3>
13.14

>  <PEOE_VSA4>
0

>  <PEOE_VSA5>
0

>  <PEOE_VSA6>
35.9

>  <PEOE_VSA7>
43.38

>  <PEOE_VSA8>
6.2

>  <PEOE_VSA9>
23.59

>  <PEOE_VSA10>
0

>  <PEOE_VSA11>
0

>  <PEOE_VSA12>
10.02

>  <PEOE_VSA13>
0

>  <SMR_VSA1>
13.52

>  <SMR_VSA2>
0

>  <SMR_VSA3>
9.71

>  <SMR_VSA4>
5.92

>  <SMR_VSA5>
37.66

>  <SMR_VSA6>
0

>  <SMR_VSA7>
65.48

>  <SMR_VSA8>
0

>  <SMR_VSA9>
0

>  <SlogP_VSA1>
4.72

>  <SlogP_VSA2>
24.61

>  <SlogP_VSA3>
15.78

>  <SlogP_VSA4>
12.84

>  <SlogP_VSA5>
35.7

>  <SlogP_VSA6>
48.66

>  <SlogP_VSA7>
0

>  <SlogP_VSA8>
0

>  <SlogP_VSA9>
0

>  <SlogP_VSA10>
0

>  <SlogP_VSA11>
0

>  <EState_VSA1>
16.07

>  <EState_VSA2>
17.77

>  <EState_VSA3>
18.54

>  <EState_VSA4>
11.13

>  <EState_VSA5>
0

>  <EState_VSA6>
12.26

>  <EState_VSA7>
43.32

>  <EState_VSA8>
9.71

>  <EState_VSA9>
0

>  <EState_VSA10>
13.52

>  <VSA_EState1>
27.98

>  <VSA_EState2>
4.3

>  <VSA_EState3>
9.58

>  <VSA_EState4>
2.54

>  <VSA_EState5>
0.01

>  <VSA_EState6>
12.55

>  <VSA_EState7>
2.5

>  <VSA_EState8>
1.97

>  <VSA_EState9>
-3.51

>  <apol>
52.24

>  <bpol>
30.44

>  <nRing>
3

>  <nHRing>
1

>  <naRing>
2

>  <naHRing>
1

>  <nARing 2>
1

>  <nAHRing 2>
0

>  <nFRing>
0

>  <nFHRing>
0

>  <nFaRing>
0

>  <nFaHRing>
0

>  <nFARing 2>
0

>  <nFAHRing 2>
0

>  <nRot>
6

>  <SLogP>
2.32

>  <SMR>
92.65

>  <TopoPSA(NO)>
79.29

>  <TopoPSA>
87.67

>  <JGI1>
0.25

>  <JGI2>
0.07

>  <JGI3>
0.06

>  <JGI4>
0.05

>  <JGI5>
0.02

>  <Diameter>
12

>  <Radius>
6

>  <TMWC10>
124.65

>  <TSRW10>
58.84

>  <MW>
346.14

>  <AMW>
7.52

>  <WPath>
1384

>  <WPol>
32

>  <Zagreb1>
126

>  <Zagreb2>
144

>  <mZagreb2>
5.14

>  <yes>


>  <nAR-cont>
0.816016

>  <nHA-cont>
0.94700071

>  <MWHBN>
0.32249676

>  <MWHBN-cont>
0.768737451

>  <TPSA-cont>
0.38800896

>  <pka_cont>
0.97

>  <yes.1>


>  <BBB_SCORE>
4.177140807

>  <MMFF94 Energy>
16.034

$$$$
Compound 2279
Actelion Java MolfileCreator 2.0

  0  0  0  0  0  0              0 V3000
M  V30 BEGIN CTAB
M  V30 COUNTS 43 44 0 0 0
M  V30 BEGIN ATOM
M  V30 1 S -5.3539 -0.1595 1.9951 0
M  V30 2 C -4.8487 -1.8398 1.6722 0
M  V30 3 C -3.9957 0.7693 1.1934 0
M  V30 4 C -4.6361 -2.3067 0.3716 0
M  V30 5 C -4.6905 -2.7186 2.7487 0
M  V30 6 C -2.6889 0.6199 1.9609 0
M  V30 7 C -4.2437 -3.6292 0.1523 0
M  V30 8 C -4.2981 -4.0408 2.5293 0
M  V30 9 C -1.5829 1.4213 1.3091 0
M  V30 10 C -4.0714 -4.4944 1.2314 0
M  V30 11 O -1.7245 2.0599 0.2732 0
M  V30 12 N -0.3891 1.347 1.9925 0
M  V30 13 C 0.7911 2.0695 1.5549 0
M  V30 14 C 1.4365 1.4791 0.2993 0
M  V30 15 O 2.7051 2.1106 0.1141 0
M  V30 16 C 3.4511 1.7014 -0.9564 0
M  V30 17 C 3.0702 0.7603 -1.9122 0
M  V30 18 C 4.7039 2.309 -1.0613 0
M  V30 19 C 3.9364 0.4327 -2.9619 0
M  V30 20 C 5.5701 1.9832 -2.1077 0
M  V30 21 C 5.1873 1.0495 -3.075 0
M  V30 22 C 6.1251 0.6723 -4.1827 0
M  V30 23 H -4.2958 1.8232 1.1737 0
M  V30 24 H -3.8865 0.4556 0.1503 0
M  V30 25 H -4.7864 -1.6538 -0.4842 0
M  V30 26 H -4.8718 -2.381 3.7665 0
M  V30 27 H -2.3641 -0.4263 1.9916 0
M  V30 28 H -2.804 0.9747 2.9924 0
M  V30 29 H -4.0814 -3.9854 -0.8617 0
M  V30 30 H -4.1761 -4.7172 3.3714 0
M  V30 31 H -3.7708 -5.5249 1.0598 0
M  V30 32 H -0.3358 0.8059 2.8466 0
M  V30 33 H 1.5043 2.0606 2.3867 0
M  V30 34 H 0.5209 3.1172 1.3781 0
M  V30 35 H 1.574 0.3994 0.4374 0
M  V30 36 H 0.7908 1.6586 -0.568 0
M  V30 37 H 2.1069 0.2629 -1.8749 0
M  V30 38 H 5.0103 3.0425 -0.3197 0
M  V30 39 H 3.623 -0.3076 -3.6947 0
M  V30 40 H 6.5427 2.4664 -2.1616 0
M  V30 41 H 6.7538 -0.1672 -3.8709 0
M  V30 42 H 5.5711 0.3853 -5.0826 0
M  V30 43 H 6.7691 1.5156 -4.4535 0
M  V30 END ATOM
M  V30 BEGIN BOND
M  V30 1 1 1 2
M  V30 2 1 1 3
M  V30 3 2 2 4
M  V30 4 1 2 5
M  V30 5 1 3 6
M  V30 6 1 4 7
M  V30 7 2 5 8
M  V30 8 1 6 9
M  V30 9 2 7 10
M  V30 10 2 9 11
M  V30 11 1 9 12
M  V30 12 1 12 13
M  V30 13 1 13 14
M  V30 14 1 14 15
M  V30 15 1 15 16
M  V30 16 2 16 17
M  V30 17 1 16 18
M  V30 18 1 17 19
M  V30 19 2 18 20
M  V30 20 2 19 21
M  V30 21 1 21 22
M  V30 22 1 8 10
M  V30 23 1 20 21
M  V30 24 1 3 23
M  V30 25 1 3 24
M  V30 26 1 4 25
M  V30 27 1 5 26
M  V30 28 1 6 27
M  V30 29 1 6 28
M  V30 30 1 7 29
M  V30 31 1 8 30
M  V30 32 1 10 31
M  V30 33 1 12 32
M  V30 34 1 13 33
M  V30 35 1 13 34
M  V30 36 1 14 35
M  V30 37 1 14 36
M  V30 38 1 17 37
M  V30 39 1 18 38
M  V30 40 1 19 39
M  V30 41 1 20 40
M  V30 42 1 22 41
M  V30 43 1 22 42
M  V30 44 1 22 43
M  V30 END BOND
M  V30 END CTAB
M  END
>  <Column 1>
2787

>  <level_0>
4022

>  <index>
4022

>  <Unnamed: 0>
4022

>  <NO.>
4034

>  <Name>
ethambutol

>  <IUPAC_name>
n-[2-(4-methylphenoxy)ethyl]-3-phenylsulfanylpropanamide

>  <SMILES>
Cc1ccc(OCCNC(=O)CCSc2ccccc2)cc1

>  <CID>
100003279

>  <logBB>


>  <BBB+/BBB->
BBB-

>  <Inchi>
InChI=1S/C18H21NO2S/c1-15-7-9-16(10-8-15)21-13-12-19-18(20)11-14-22-17-5-3-2-4-6-17/h2-10H-11-14H2-1H3-(H-19-20)

>  <threshold>
-1

>  <reference>
R16|R10|

>  <group>
B

>  <Class>
1

>  <ABC>
16.48

>  <ABCGG>
12.48

>  <nAcid>
0

>  <nBase>
0

>  <nAromAtom>
12

>  <nAromBond>
12

>  <nAtom>
43

>  <nHeavyAtom>
22

>  <nSpiro>
0

>  <nBridgehead>
0

>  <nHetero>
4

>  <nN>
1

>  <nO>
2

>  <nF>
0

>  <BalabanJ>
1.41

>  <BertzCT>
569.4

>  <nBonds>
44

>  <nBondsO>
23

>  <nBondsS>
31

>  <nBondsD>
1

>  <nBondsT>
0

>  <nBondsA>
12

>  <nBondsM>
13

>  <nBondsKS>
37

>  <nBondsKD>
7

>  <RNCG>
0.28

>  <RPCG>
0.12

>  <FCSP3>
0.28

>  <SZ>
28

>  <Sm>
26.26

>  <Sv>
27.06

>  <Sse>
42.72

>  <Sp>
29.74

>  <Si>
47.99

>  <MZ>
0.65

>  <Mm>
0.61

>  <Mv>
0.63

>  <Mse>
0.99

>  <Mp>
0.69

>  <Mi>
1.12

>  <NsCH3>
1

>  <NdCH2>
0

>  <NssCH2>
4

>  <NtCH>
0

>  <NdsCH>
0

>  <NaaCH>
9

>  <NsssCH>
0

>  <NddC>
0

>  <NtsC>
0

>  <NdssC>
1

>  <NaasC>
3

>  <NaaaC>
0

>  <NssssC>
0

>  <NsNH3>
0

>  <NsNH2>
0

>  <NssNH2>
0

>  <NdNH>
0

>  <NssNH>
1

>  <NaaNH>
0

>  <NtN>
0

>  <NsssNH>
0

>  <NdsN>
0

>  <NaaN>
0

>  <NsssN>
0

>  <NddsN>
0

>  <NaasN>
0

>  <NssssN>
0

>  <NsOH>
0

>  <NdO>
1

>  <NssO>
1

>  <NaaO>
0

>  <NsF>
0

>  <NsSiH3>
0

>  <NssSiH2>
0

>  <NsssSiH>
0

>  <NssssSi>
0

>  <NsPH2>
0

>  <NssPH>
0

>  <NsssP>
0

>  <NdsssP>
0

>  <NsssssP>
0

>  <NsSH>
0

>  <NdS>
0

>  <NssS>
1

>  <NaaS>
0

>  <NdssS>
0

>  <NddssS>
0

>  <NsCl>
0

>  <NsBr>
0

>  <NsI>
0

>  <fragCpx>
67.04

>  <fMF>
0.47

>  <nHBAcc>
3

>  <nHBDon>
1

>  <Kier1>
18.34

>  <Kier2>
10.71

>  <Lipinski>
1

>  <GhoseFilter>
1

>  <FilterItLogS>
-5.39

>  <VMcGowan>
250.73

>  <LabuteASA>
135.63

>  <PEOE_VSA1>
10.05

>  <PEOE_VSA2>
4.79

>  <PEOE_VSA3>
0

>  <PEOE_VSA4>
0

>  <PEOE_VSA5>
11.76

>  <PEOE_VSA6>
35.9

>  <PEOE_VSA7>
31.19

>  <PEOE_VSA8>
17.07

>  <PEOE_VSA9>
6.54

>  <PEOE_VSA10>
12.36

>  <PEOE_VSA11>
0

>  <PEOE_VSA12>
5.91

>  <PEOE_VSA13>
0

>  <SMR_VSA1>
9.53

>  <SMR_VSA2>
0

>  <SMR_VSA3>
5.32

>  <SMR_VSA4>
0

>  <SMR_VSA5>
18.24

>  <SMR_VSA6>
18.9

>  <SMR_VSA7>
60.16

>  <SMR_VSA8>
0

>  <SMR_VSA9>
5.75

>  <SlogP_VSA1>
10.05

>  <SlogP_VSA2>
24.81

>  <SlogP_VSA3>
4.79

>  <SlogP_VSA4>
6.92

>  <SlogP_VSA5>
11.98

>  <SlogP_VSA6>
59.49

>  <SlogP_VSA7>
0

>  <SlogP_VSA8>
0

>  <SlogP_VSA9>
0

>  <SlogP_VSA10>
0

>  <SlogP_VSA11>
5.75

>  <EState_VSA1>
0

>  <EState_VSA2>
5.91

>  <EState_VSA3>
19.57

>  <EState_VSA4>
11.5

>  <EState_VSA5>
10.46

>  <EState_VSA6>
11.76

>  <EState_VSA7>
49.39

>  <EState_VSA8>
17.45

>  <EState_VSA9>
4.74

>  <EState_VSA10>
4.79

>  <VSA_EState1>
5.57

>  <VSA_EState2>
12.9

>  <VSA_EState3>
2.87

>  <VSA_EState4>
1.21

>  <VSA_EState5>
1.68

>  <VSA_EState6>
18

>  <VSA_EState7>
0.52

>  <VSA_EState8>
3.06

>  <VSA_EState9>
0

>  <apol>
49.67

>  <bpol>
26.7

>  <nRing>
2

>  <nHRing>
0

>  <naRing>
2

>  <naHRing>
0

>  <nARing 2>
0

>  <nAHRing 2>
0

>  <nFRing>
0

>  <nFHRing>
0

>  <nFaRing>
0

>  <nFaHRing>
0

>  <nFARing 2>
0

>  <nFAHRing 2>
0

>  <nRot>
8

>  <SLogP>
3.67

>  <SMR>
91.47

>  <TopoPSA(NO)>
38.33

>  <TopoPSA>
63.63

>  <JGI1>
0.15

>  <JGI2>
0.06

>  <JGI3>
0.02

>  <JGI4>
0.03

>  <JGI5>
0.02

>  <Diameter>
16

>  <Radius>
8

>  <TMWC10>
114.8

>  <TSRW10>
54.75

>  <MW>
315.13

>  <AMW>
7.33

>  <WPath>
1434

>  <WPol>
25

>  <Zagreb1>
102

>  <Zagreb2>
110

>  <mZagreb2>
5.08

>  <yes>


>  <nAR-cont>
0.336376

>  <nHA-cont>
0.983774276

>  <MWHBN>
0.225327976

>  <MWHBN-cont>
0.991060421

>  <TPSA-cont>
0.555823088

>  <pka_cont>
0.97

>  <yes.1>


>  <BBB_SCORE>
4.403387084

>  <MMFF94 Energy>
21.531

$$$$
Compound 2280
Actelion Java MolfileCreator 2.0

  0  0  0  0  0  0              0 V3000
M  V30 BEGIN CTAB
M  V30 COUNTS 46 47 0 0 0
M  V30 BEGIN ATOM
M  V30 1 S -1.8337 -3.2706 -0.5578 0
M  V30 2 C -1.768 -3.5584 1.2539 0 CFG=1
M  V30 3 C -0.0672 -2.9199 -0.8492 0
M  V30 4 C -1.3494 -2.2775 1.9769 0
M  V30 5 C -3.124 -4.0471 1.7472 0
M  V30 6 C 0.1799 -2.5214 -2.2819 0
M  V30 7 O -0.3699 -2.2431 2.7177 0
M  V30 8 N -2.1321 -1.1725 1.7232 0
M  V30 9 C 0.4554 -3.4922 -3.2556 0
M  V30 10 C 0.1157 -1.1736 -2.6673 0
M  V30 11 C -1.8536 0.1246 2.3078 0
M  V30 12 C 0.677 -3.121 -4.5828 0
M  V30 13 C 0.3377 -0.8049 -3.995 0
M  V30 14 C -0.6616 0.8253 1.6521 0
M  V30 15 C 0.6201 -1.7781 -4.9514 0
M  V30 16 O -0.616 2.1729 2.1225 0
M  V30 17 C 0.3644 2.9744 1.6051 0
M  V30 18 C 1.3676 2.5793 0.7205 0
M  V30 19 C 0.317 4.3035 2.0306 0
M  V30 20 C 2.3117 3.5077 0.2666 0
M  V30 21 C 1.2581 5.2318 1.5785 0
M  V30 22 C 2.2719 4.8376 0.7005 0
M  V30 23 C 3.2657 5.8364 0.187 0
M  V30 24 H -1.0167 -4.3307 1.4524 0
M  V30 25 H 0.5223 -3.8097 -0.6021 0
M  V30 26 H 0.272 -2.1129 -0.1913 0
M  V30 27 H -3.3906 -5.0056 1.2886 0
M  V30 28 H -3.9282 -3.3323 1.5386 0
M  V30 29 H -3.1016 -4.1952 2.833 0
M  V30 30 H -2.875 -1.2534 1.0367 0
M  V30 31 H 0.4936 -4.5453 -2.9856 0
M  V30 32 H -0.1125 -0.4024 -1.9351 0
M  V30 33 H -1.6722 0.0037 3.3821 0
M  V30 34 H -2.7587 0.7328 2.2012 0
M  V30 35 H 0.8893 -3.8808 -5.3304 0
M  V30 36 H 0.2857 0.2415 -4.2842 0
M  V30 37 H 0.2639 0.2986 1.9128 0
M  V30 38 H -0.7937 0.814 0.5627 0
M  V30 39 H 0.79 -1.4908 -5.9857 0
M  V30 40 H 1.4498 1.558 0.3649 0
M  V30 41 H -0.462 4.6213 2.7192 0
M  V30 42 H 3.0835 3.1816 -0.4272 0
M  V30 43 H 1.1935 6.2624 1.9198 0
M  V30 44 H 4.2269 5.3569 -0.0258 0
M  V30 45 H 2.8902 6.3 -0.7303 0
M  V30 46 H 3.4515 6.6199 0.9294 0
M  V30 END ATOM
M  V30 BEGIN BOND
M  V30 1 1 1 2
M  V30 2 1 1 3
M  V30 3 1 2 4
M  V30 4 1 2 5
M  V30 5 1 3 6
M  V30 6 2 4 7
M  V30 7 1 4 8
M  V30 8 2 6 9
M  V30 9 1 6 10
M  V30 10 1 8 11
M  V30 11 1 9 12
M  V30 12 2 10 13
M  V30 13 1 11 14
M  V30 14 2 12 15
M  V30 15 1 14 16
M  V30 16 1 16 17
M  V30 17 2 17 18
M  V30 18 1 17 19
M  V30 19 1 18 20
M  V30 20 2 19 21
M  V30 21 2 20 22
M  V30 22 1 22 23
M  V30 23 1 13 15
M  V30 24 1 21 22
M  V30 25 1 2 24
M  V30 26 1 3 25
M  V30 27 1 3 26
M  V30 28 1 5 27
M  V30 29 1 5 28
M  V30 30 1 5 29
M  V30 31 1 8 30
M  V30 32 1 9 31
M  V30 33 1 10 32
M  V30 34 1 11 33
M  V30 35 1 11 34
M  V30 36 1 12 35
M  V30 37 1 13 36
M  V30 38 1 14 37
M  V30 39 1 14 38
M  V30 40 1 15 39
M  V30 41 1 18 40
M  V30 42 1 19 41
M  V30 43 1 20 42
M  V30 44 1 21 43
M  V30 45 1 23 44
M  V30 46 1 23 45
M  V30 47 1 23 46
M  V30 END BOND
M  V30 BEGIN COLLECTION
M  V30 MDLV30/STEABS ATOMS=(1 2)
M  V30 END COLLECTION
M  V30 END CTAB
M  END
>  <Column 1>
2788

>  <level_0>
4023

>  <index>
4023

>  <Unnamed: 0>
4023

>  <NO.>
4035

>  <Name>
clobazam

>  <IUPAC_name>
(2r)-2-benzylsulfanyl-n-[2-(4-methylphenoxy)ethyl]propanamide

>  <SMILES>
Cc1ccc(OCCNC(=O)[C@@H](C)SCc2ccccc2)cc1

>  <CID>
100002789

>  <logBB>


>  <BBB+/BBB->
BBB+

>  <Inchi>
InChI=1S/C19H23NO2S/c1-15-8-10-18(11-9-15)22-13-12-20-19(21)16(2)23-14-17-6-4-3-5-7-17/h3-11-16H-12-14H2-1-2H3-(H-20-21)/t16-/m1/s1

>  <threshold>
-1

>  <reference>
R16|R16|R10|R10|

>  <group>
B

>  <Class>
-1

>  <ABC>
17.26

>  <ABCGG>
13.4

>  <nAcid>
0

>  <nBase>
0

>  <nAromAtom>
12

>  <nAromBond>
12

>  <nAtom>
46

>  <nHeavyAtom>
23

>  <nSpiro>
0

>  <nBridgehead>
0

>  <nHetero>
4

>  <nN>
1

>  <nO>
2

>  <nF>
0

>  <BalabanJ>
1.49

>  <BertzCT>
598.53

>  <nBonds>
47

>  <nBondsO>
24

>  <nBondsS>
34

>  <nBondsD>
1

>  <nBondsT>
0

>  <nBondsA>
12

>  <nBondsM>
13

>  <nBondsKS>
40

>  <nBondsKD>
7

>  <RNCG>
0.26

>  <RPCG>
0.12

>  <FCSP3>
0.32

>  <SZ>
29.33

>  <Sm>
27.43

>  <Sv>
28.61

>  <Sse>
45.61

>  <Sp>
31.54

>  <Si>
51.41

>  <MZ>
0.64

>  <Mm>
0.6

>  <Mv>
0.62

>  <Mse>
0.99

>  <Mp>
0.69

>  <Mi>
1.12

>  <NsCH3>
2

>  <NdCH2>
0

>  <NssCH2>
3

>  <NtCH>
0

>  <NdsCH>
0

>  <NaaCH>
9

>  <NsssCH>
1

>  <NddC>
0

>  <NtsC>
0

>  <NdssC>
1

>  <NaasC>
3

>  <NaaaC>
0

>  <NssssC>
0

>  <NsNH3>
0

>  <NsNH2>
0

>  <NssNH2>
0

>  <NdNH>
0

>  <NssNH>
1

>  <NaaNH>
0

>  <NtN>
0

>  <NsssNH>
0

>  <NdsN>
0

>  <NaaN>
0

>  <NsssN>
0

>  <NddsN>
0

>  <NaasN>
0

>  <NssssN>
0

>  <NsOH>
0

>  <NdO>
1

>  <NssO>
1

>  <NaaO>
0

>  <NsF>
0

>  <NsSiH3>
0

>  <NssSiH2>
0

>  <NsssSiH>
0

>  <NssssSi>
0

>  <NsPH2>
0

>  <NssPH>
0

>  <NsssP>
0

>  <NdsssP>
0

>  <NsssssP>
0

>  <NsSH>
0

>  <NdS>
0

>  <NssS>
1

>  <NaaS>
0

>  <NdssS>
0

>  <NddssS>
0

>  <NsCl>
0

>  <NsBr>
0

>  <NsI>
0

>  <fragCpx>
70.04

>  <fMF>
0.43

>  <nHBAcc>
3

>  <nHBDon>
1

>  <Kier1>
19.33

>  <Kier2>
10.78

>  <Lipinski>
1

>  <GhoseFilter>
1

>  <FilterItLogS>
-5.41

>  <VMcGowan>
264.82

>  <LabuteASA>
141.99

>  <PEOE_VSA1>
10.05

>  <PEOE_VSA2>
4.79

>  <PEOE_VSA3>
0

>  <PEOE_VSA4>
0

>  <PEOE_VSA5>
11.76

>  <PEOE_VSA6>
48.03

>  <PEOE_VSA7>
31.54

>  <PEOE_VSA8>
5.75

>  <PEOE_VSA9>
11.79

>  <PEOE_VSA10>
12.36

>  <PEOE_VSA11>
0

>  <PEOE_VSA12>
5.91

>  <PEOE_VSA13>
0

>  <SMR_VSA1>
9.53

>  <SMR_VSA2>
0

>  <SMR_VSA3>
5.32

>  <SMR_VSA4>
0

>  <SMR_VSA5>
24.85

>  <SMR_VSA6>
13.15

>  <SMR_VSA7>
65.72

>  <SMR_VSA8>
0

>  <SMR_VSA9>
5.75

>  <SlogP_VSA1>
10.05

>  <SlogP_VSA2>
24.31

>  <SlogP_VSA3>
10.55

>  <SlogP_VSA4>
6.92

>  <SlogP_VSA5>
18.05

>  <SlogP_VSA6>
54.6

>  <SlogP_VSA7>
0

>  <SlogP_VSA8>
0

>  <SlogP_VSA9>
0

>  <SlogP_VSA10>
0

>  <SlogP_VSA11>
5.75

>  <EState_VSA1>
0

>  <EState_VSA2>
11.16

>  <EState_VSA3>
13.15

>  <EState_VSA4>
11.5

>  <EState_VSA5>
11.13

>  <EState_VSA6>
11.76

>  <EState_VSA7>
56.31

>  <EState_VSA8>
17.45

>  <EState_VSA9>
4.74

>  <EState_VSA10>
4.79

>  <VSA_EState1>
5.6

>  <VSA_EState2>
12.03

>  <VSA_EState3>
2.84

>  <VSA_EState4>
2.44

>  <VSA_EState5>
1.73

>  <VSA_EState6>
18.09

>  <VSA_EState7>
0

>  <VSA_EState8>
4.97

>  <VSA_EState9>
0

>  <apol>
52.67

>  <bpol>
28.71

>  <nRing>
2

>  <nHRing>
0

>  <naRing>
2

>  <naHRing>
0

>  <nARing 2>
0

>  <nAHRing 2>
0

>  <nFRing>
0

>  <nFHRing>
0

>  <nFaRing>
0

>  <nFaHRing>
0

>  <nFARing 2>
0

>  <nFAHRing 2>
0

>  <nRot>
8

>  <SLogP>
3.81

>  <SMR>
96.88

>  <TopoPSA(NO)>
38.33

>  <TopoPSA>
63.63

>  <JGI1>
0.17

>  <JGI2>
0.07

>  <JGI3>
0.02

>  <JGI4>
0.03

>  <JGI5>
0.02

>  <Diameter>
16

>  <Radius>
8

>  <TMWC10>
117.72

>  <TSRW10>
56.16

>  <MW>
329.14

>  <AMW>
7.16

>  <WPath>
1558

>  <WPol>
28

>  <Zagreb1>
108

>  <Zagreb2>
118

>  <mZagreb2>
5.28

>  <yes>


>  <nAR-cont>
0.336376

>  <nHA-cont>
0.967789328

>  <MWHBN>
0.220480233

>  <MWHBN-cont>
0.994653632

>  <TPSA-cont>
0.555823088

>  <pka_cont>
0.97

>  <yes.1>


>  <BBB_SCORE>
4.392791953

>  <MMFF94 Energy>
59.719

$$$$
Compound 2281
Actelion Java MolfileCreator 2.0

  0  0  0  0  0  0              0 V3000
M  V30 BEGIN CTAB
M  V30 COUNTS 50 52 0 0 0
M  V30 BEGIN ATOM
M  V30 1 O 2.455 -1.5041 -1.4249 0
M  V30 2 C 1.4861 -0.8148 -1.7145 0
M  V30 3 N 0.2207 -1.3035 -1.9435 0
M  V30 4 C 1.5597 0.6747 -1.789 0
M  V30 5 C -0.1173 -2.6962 -1.6687 0 CFG=1
M  V30 6 C 1.7526 1.4201 -0.5309 0
M  V30 7 C 1.4526 1.167 -3.039 0
M  V30 8 C -0.3604 -2.8981 -0.1586 0
M  V30 9 C -1.3257 -3.1112 -2.5031 0
M  V30 10 C 2.8721 2.2412 -0.339 0
M  V30 11 C 0.8359 1.2704 0.5204 0
M  V30 12 C 1.4181 2.5489 -3.3766 0
M  V30 13 O -1.4886 -2.1094 0.2414 0
M  V30 14 C 3.0598 2.9141 0.8706 0
M  V30 15 C 1.0265 1.9408 1.7307 0
M  V30 16 O 1.0867 3.5648 -2.5089 0
M  V30 17 C 1.6596 3.1335 -4.6163 0
M  V30 18 C -1.7128 -1.9807 1.5835 0
M  V30 19 C 2.1367 2.7643 1.9041 0
M  V30 20 C 1.1425 4.7414 -3.1752 0
M  V30 21 C 1.4913 4.5322 -4.4835 0
M  V30 22 C -1.0534 -2.6757 2.5957 0
M  V30 23 C -2.7095 -1.064 1.9238 0
M  V30 24 C -1.3783 -2.4412 3.9367 0
M  V30 25 C -3.0356 -0.8286 3.2615 0
M  V30 26 C -2.361 -1.5064 4.2811 0
M  V30 27 C -2.7285 -1.2823 5.7176 0
M  V30 28 H -0.539 -0.6442 -2.0632 0
M  V30 29 H 0.7394 -3.3153 -1.9609 0
M  V30 30 H 1.3758 0.4731 -3.8736 0
M  V30 31 H 0.5357 -2.5867 0.3921 0
M  V30 32 H -0.5664 -3.9561 0.0424 0
M  V30 33 H -1.591 -4.156 -2.3123 0
M  V30 34 H -1.1083 -3.0065 -3.5717 0
M  V30 35 H -2.2014 -2.4896 -2.2872 0
M  V30 36 H 3.6068 2.3615 -1.1315 0
M  V30 37 H -0.0354 0.6287 0.4115 0
M  V30 38 H 3.9294 3.5513 1.0054 0
M  V30 39 H 0.3091 1.8139 2.5374 0
M  V30 40 H 1.9353 2.5997 -5.5155 0
M  V30 41 H 2.2856 3.2851 2.8461 0
M  V30 42 H 0.9095 5.6199 -2.59 0
M  V30 43 H 1.6077 5.2895 -5.2454 0
M  V30 44 H -0.2848 -3.4101 2.3797 0
M  V30 45 H -3.2378 -0.5263 1.1408 0
M  V30 46 H -0.8551 -2.9962 4.7124 0
M  V30 47 H -3.8188 -0.1128 3.4995 0
M  V30 48 H -3.5199 -1.9774 6.0143 0
M  V30 49 H -1.8621 -1.4323 6.3703 0
M  V30 50 H -3.08 -0.2572 5.8758 0
M  V30 END ATOM
M  V30 BEGIN BOND
M  V30 1 2 1 2
M  V30 2 1 2 3
M  V30 3 1 2 4
M  V30 4 1 3 5
M  V30 5 1 4 6
M  V30 6 2 4 7
M  V30 7 1 5 8
M  V30 8 1 5 9
M  V30 9 2 6 10
M  V30 10 1 6 11
M  V30 11 1 7 12
M  V30 12 1 8 13
M  V30 13 1 10 14
M  V30 14 2 11 15
M  V30 15 1 12 16
M  V30 16 2 12 17
M  V30 17 1 13 18
M  V30 18 2 14 19
M  V30 19 1 16 20
M  V30 20 1 17 21
M  V30 21 2 18 22
M  V30 22 1 18 23
M  V30 23 1 22 24
M  V30 24 2 23 25
M  V30 25 2 24 26
M  V30 26 1 26 27
M  V30 27 1 15 19
M  V30 28 2 20 21
M  V30 29 1 25 26
M  V30 30 1 3 28
M  V30 31 1 5 29
M  V30 32 1 7 30
M  V30 33 1 8 31
M  V30 34 1 8 32
M  V30 35 1 9 33
M  V30 36 1 9 34
M  V30 37 1 9 35
M  V30 38 1 10 36
M  V30 39 1 11 37
M  V30 40 1 14 38
M  V30 41 1 15 39
M  V30 42 1 17 40
M  V30 43 1 19 41
M  V30 44 1 20 42
M  V30 45 1 21 43
M  V30 46 1 22 44
M  V30 47 1 23 45
M  V30 48 1 24 46
M  V30 49 1 25 47
M  V30 50 1 27 48
M  V30 51 1 27 49
M  V30 52 1 27 50
M  V30 END BOND
M  V30 BEGIN COLLECTION
M  V30 MDLV30/STEABS ATOMS=(1 5)
M  V30 END COLLECTION
M  V30 END CTAB
M  END
>  <Column 1>
2789

>  <level_0>
4024

>  <index>
4024

>  <Unnamed: 0>
4024

>  <NO.>
4036

>  <Name>
methylprednisolone

>  <IUPAC_name>
(e)-3-(furan-2-yl)-n-[(2r)-1-(4-methylphenoxy)propan-2-yl]-2-phenylprop-2-enamide

>  <SMILES>
Cc1ccc(OC[C@@H](C)NC(=O)/C(=C/c2ccco2)c2ccccc2)cc1

>  <CID>
100004159

>  <logBB>


>  <BBB+/BBB->
BBB-

>  <Inchi>
InChI=1S/C23H23NO3/c1-17-10-12-20(13-11-17)27-16-18(2)24-23(25)22(15-21-9-6-14-26-21)19-7-4-3-5-8-19/h3-15-18H-16H2-1-2H3-(H-24-25)/b22-15+/t18-/m1/s1

>  <threshold>
-1

>  <reference>
R16|R10|R10|

>  <group>
B

>  <Class>
1

>  <ABC>
20.75

>  <ABCGG>
16.85

>  <nAcid>
0

>  <nBase>
0

>  <nAromAtom>
17

>  <nAromBond>
17

>  <nAtom>
50

>  <nHeavyAtom>
27

>  <nSpiro>
0

>  <nBridgehead>
0

>  <nHetero>
4

>  <nN>
1

>  <nO>
3

>  <nF>
0

>  <BalabanJ>
1.45

>  <BertzCT>
881.14

>  <nBonds>
52

>  <nBondsO>
29

>  <nBondsS>
33

>  <nBondsD>
2

>  <nBondsT>
0

>  <nBondsA>
17

>  <nBondsM>
19

>  <nBondsKS>
42

>  <nBondsKD>
10

>  <RNCG>
0.22

>  <RPCG>
0.11

>  <FCSP3>
0.17

>  <SZ>
32

>  <Sm>
30.09

>  <Sv>
32.13

>  <Sse>
49.87

>  <Sp>
34.28

>  <Si>
55.69

>  <MZ>
0.64

>  <Mm>
0.6

>  <Mv>
0.64

>  <Mse>
1

>  <Mp>
0.69

>  <Mi>
1.11

>  <NsCH3>
2

>  <NdCH2>
0

>  <NssCH2>
1

>  <NtCH>
0

>  <NdsCH>
1

>  <NaaCH>
12

>  <NsssCH>
1

>  <NddC>
0

>  <NtsC>
0

>  <NdssC>
2

>  <NaasC>
4

>  <NaaaC>
0

>  <NssssC>
0

>  <NsNH3>
0

>  <NsNH2>
0

>  <NssNH2>
0

>  <NdNH>
0

>  <NssNH>
1

>  <NaaNH>
0

>  <NtN>
0

>  <NsssNH>
0

>  <NdsN>
0

>  <NaaN>
0

>  <NsssN>
0

>  <NddsN>
0

>  <NaasN>
0

>  <NssssN>
0

>  <NsOH>
0

>  <NdO>
1

>  <NssO>
1

>  <NaaO>
1

>  <NsF>
0

>  <NsSiH3>
0

>  <NssSiH2>
0

>  <NsssSiH>
0

>  <NssssSi>
0

>  <NsPH2>
0

>  <NssPH>
0

>  <NsssP>
0

>  <NdsssP>
0

>  <NsssssP>
0

>  <NsSH>
0

>  <NdS>
0

>  <NssS>
0

>  <NaaS>
0

>  <NdssS>
0

>  <NddssS>
0

>  <NsCl>
0

>  <NsBr>
0

>  <NsI>
0

>  <fragCpx>
139.04

>  <fMF>
0.48

>  <nHBAcc>
3

>  <nHBDon>
1

>  <Kier1>
21.7

>  <Kier2>
11.25

>  <Lipinski>
1

>  <GhoseFilter>
1

>  <FilterItLogS>
-5.84

>  <VMcGowan>
286.94

>  <LabuteASA>
159.03

>  <PEOE_VSA1>
14.47

>  <PEOE_VSA2>
4.79

>  <PEOE_VSA3>
0

>  <PEOE_VSA4>
0

>  <PEOE_VSA5>
0

>  <PEOE_VSA6>
48.03

>  <PEOE_VSA7>
49.75

>  <PEOE_VSA8>
0

>  <PEOE_VSA9>
17.88

>  <PEOE_VSA10>
18.12

>  <PEOE_VSA11>
0

>  <PEOE_VSA12>
0

>  <PEOE_VSA13>
5.91

>  <SMR_VSA1>
13.95

>  <SMR_VSA2>
0

>  <SMR_VSA3>
5.32

>  <SMR_VSA4>
0

>  <SMR_VSA5>
19.89

>  <SMR_VSA6>
6.61

>  <SMR_VSA7>
89.88

>  <SMR_VSA8>
0

>  <SMR_VSA9>
5.75

>  <SlogP_VSA1>
10.05

>  <SlogP_VSA2>
18.56

>  <SlogP_VSA3>
4.79

>  <SlogP_VSA4>
6.92

>  <SlogP_VSA5>
23.81

>  <SlogP_VSA6>
77.41

>  <SlogP_VSA7>
0

>  <SlogP_VSA8>
11.65

>  <SlogP_VSA9>
0

>  <SlogP_VSA10>
0

>  <SlogP_VSA11>
5.75

>  <EState_VSA1>
0

>  <EState_VSA2>
11.95

>  <EState_VSA3>
17.94

>  <EState_VSA4>
11.31

>  <EState_VSA5>
5.56

>  <EState_VSA6>
18.41

>  <EState_VSA7>
74.51

>  <EState_VSA8>
5.32

>  <EState_VSA9>
9.15

>  <EState_VSA10>
4.79

>  <VSA_EState1>
11.14

>  <VSA_EState2>
12.86

>  <VSA_EState3>
3

>  <VSA_EState4>
2.56

>  <VSA_EState5>
1.25

>  <VSA_EState6>
20.86

>  <VSA_EState7>
3.34

>  <VSA_EState8>
4.34

>  <VSA_EState9>
0

>  <apol>
57.25

>  <bpol>
27.98

>  <nRing>
3

>  <nHRing>
1

>  <naRing>
3

>  <naHRing>
1

>  <nARing 2>
0

>  <nAHRing 2>
0

>  <nFRing>
0

>  <nFHRing>
0

>  <nFaRing>
0

>  <nFaHRing>
0

>  <nFARing 2>
0

>  <nFAHRing 2>
0

>  <nRot>
7

>  <SLogP>
4.71

>  <SMR>
107.3

>  <TopoPSA(NO)>
51.47

>  <TopoPSA>
51.47

>  <JGI1>
0.17

>  <JGI2>
0.06

>  <JGI3>
0.04

>  <JGI4>
0.04

>  <JGI5>
0.02

>  <Diameter>
14

>  <Radius>
7

>  <TMWC10>
130.04

>  <TSRW10>
74.56

>  <MW>
361.17

>  <AMW>
7.22

>  <WPath>
2071

>  <WPol>
35

>  <Zagreb1>
134

>  <Zagreb2>
151

>  <mZagreb2>
6.06

>  <yes>


>  <nAR-cont>
0.336376

>  <nHA-cont>
0.860070871

>  <MWHBN>
0.210476763

>  <MWHBN-cont>
0.999200081

>  <TPSA-cont>
0.640707439

>  <pka_cont>
0.97

>  <yes.1>


>  <BBB_SCORE>
4.461661871

>  <MMFF94 Energy>
46.455

$$$$
Compound 2282
Actelion Java MolfileCreator 2.0

  0  0  0  0  0  0              0 V3000
M  V30 BEGIN CTAB
M  V30 COUNTS 41 42 0 0 0
M  V30 BEGIN ATOM
M  V30 1 Cl 4.9807 0.4811 -1.0427 0
M  V30 2 C 4.6825 0.1982 0.6356 0
M  V30 3 C 3.4182 0.3237 1.2327 0
M  V30 4 C 5.7961 -0.1414 1.4181 0
M  V30 5 C 2.1678 0.6836 0.5091 0
M  V30 6 C 3.2885 0.1262 2.6213 0
M  V30 7 C 5.6645 -0.3498 2.7934 0
M  V30 8 O 1.3147 1.3451 1.0896 0
M  V30 9 N 2.0115 0.1959 -0.7661 0
M  V30 10 C 4.4078 -0.2119 3.3919 0
M  V30 11 C 0.8562 0.4901 -1.6147 0 CFG=1
M  V30 12 N 4.2627 -0.4277 4.8375 0 CHG=1
M  V30 13 C -0.4965 0.1435 -0.962 0
M  V30 14 C 0.8883 1.9371 -2.108 0
M  V30 15 O 3.1163 -0.4444 5.3048 0
M  V30 16 O 5.2976 -0.5879 5.4992 0 CHG=-1
M  V30 17 O -1.485 0.0423 -1.9933 0
M  V30 18 C -2.7578 -0.2712 -1.6029 0
M  V30 19 C -3.1906 -0.468 -0.292 0
M  V30 20 C -3.6748 -0.3972 -2.6483 0
M  V30 21 C -4.5288 -0.7862 -0.0326 0
M  V30 22 C -5.0108 -0.7153 -2.3917 0
M  V30 23 C -5.4518 -0.9005 -1.0781 0
M  V30 24 C -6.8771 -1.2735 -0.7983 0
M  V30 25 H 6.7799 -0.2365 0.9604 0
M  V30 26 H 2.3089 0.2394 3.0875 0
M  V30 27 H 6.5455 -0.6105 3.378 0
M  V30 28 H 2.7701 -0.3233 -1.1916 0
M  V30 29 H 0.9806 -0.1518 -2.4964 0
M  V30 30 H -0.7838 0.921 -0.2447 0
M  V30 31 H -0.4103 -0.8211 -0.4465 0
M  V30 32 H 0.0873 2.1247 -2.8303 0
M  V30 33 H 1.843 2.1566 -2.5985 0
M  V30 34 H 0.7723 2.6466 -1.2819 0
M  V30 35 H -2.5164 -0.3806 0.5537 0
M  V30 36 H -3.3459 -0.2485 -3.6736 0
M  V30 37 H -4.8455 -0.9411 0.9967 0
M  V30 38 H -5.7024 -0.8143 -3.2249 0
M  V30 39 H -6.987 -2.3622 -0.804 0
M  V30 40 H -7.197 -0.8902 0.1764 0
M  V30 41 H -7.548 -0.8458 -1.5508 0
M  V30 END ATOM
M  V30 BEGIN BOND
M  V30 1 1 1 2
M  V30 2 2 2 3
M  V30 3 1 2 4
M  V30 4 1 3 5
M  V30 5 1 3 6
M  V30 6 2 4 7
M  V30 7 2 5 8
M  V30 8 1 5 9
M  V30 9 2 6 10
M  V30 10 1 9 11
M  V30 11 1 10 12
M  V30 12 1 11 13
M  V30 13 1 11 14
M  V30 14 2 12 15
M  V30 15 1 12 16
M  V30 16 1 13 17
M  V30 17 1 17 18
M  V30 18 2 18 19
M  V30 19 1 18 20
M  V30 20 1 19 21
M  V30 21 2 20 22
M  V30 22 2 21 23
M  V30 23 1 23 24
M  V30 24 1 7 10
M  V30 25 1 22 23
M  V30 26 1 4 25
M  V30 27 1 6 26
M  V30 28 1 7 27
M  V30 29 1 9 28
M  V30 30 1 11 29
M  V30 31 1 13 30
M  V30 32 1 13 31
M  V30 33 1 14 32
M  V30 34 1 14 33
M  V30 35 1 14 34
M  V30 36 1 19 35
M  V30 37 1 20 36
M  V30 38 1 21 37
M  V30 39 1 22 38
M  V30 40 1 24 39
M  V30 41 1 24 40
M  V30 42 1 24 41
M  V30 END BOND
M  V30 BEGIN COLLECTION
M  V30 MDLV30/STEABS ATOMS=(1 11)
M  V30 END COLLECTION
M  V30 END CTAB
M  END
>  <Column 1>
2790

>  <level_0>
4025

>  <index>
4025

>  <Unnamed: 0>
4025

>  <NO.>
4037

>  <Name>
isopromethazine

>  <IUPAC_name>
2-chloro-n-[(2r)-1-(4-methylphenoxy)propan-2-yl]-5-nitrobenzamide

>  <SMILES>
Cc1ccc(OC[C@@H](C)NC(=O)c2cc([N+](=O)[O-])ccc2Cl)cc1

>  <CID>
100004927

>  <logBB>


>  <BBB+/BBB->
BBB+

>  <Inchi>
InChI=1S/C17H17ClN2O4/c1-11-3-6-14(7-4-11)24-10-12(2)19-17(21)15-9-13(20(22)23)5-8-16(15)18/h3-9-12H-10H2-1-2H3-(H-19-21)/t12-/m1/s1

>  <threshold>
-1

>  <reference>
R16|R16|R10|R10|

>  <group>
B

>  <Class>
1

>  <ABC>
18.21

>  <ABCGG>
14.89

>  <nAcid>
0

>  <nBase>
0

>  <nAromAtom>
12

>  <nAromBond>
12

>  <nAtom>
41

>  <nHeavyAtom>
24

>  <nSpiro>
0

>  <nBridgehead>
0

>  <nHetero>
7

>  <nN>
2

>  <nO>
4

>  <nF>
0

>  <BalabanJ>
1.72

>  <BertzCT>
746.76

>  <nBonds>
42

>  <nBondsO>
25

>  <nBondsS>
28

>  <nBondsD>
2

>  <nBondsT>
0

>  <nBondsA>
12

>  <nBondsM>
14

>  <nBondsKS>
34

>  <nBondsKD>
8

>  <RNCG>
0.24

>  <RPCG>
0.13

>  <FCSP3>
0.24

>  <SZ>
30.33

>  <Sm>
29.04

>  <Sv>
27.07

>  <Sse>
41.96

>  <Sp>
28.33

>  <Si>
46.1

>  <MZ>
0.74

>  <Mm>
0.71

>  <Mv>
0.66

>  <Mse>
1.02

>  <Mp>
0.69

>  <Mi>
1.12

>  <NsCH3>
2

>  <NdCH2>
0

>  <NssCH2>
1

>  <NtCH>
0

>  <NdsCH>
0

>  <NaaCH>
7

>  <NsssCH>
1

>  <NddC>
0

>  <NtsC>
0

>  <NdssC>
1

>  <NaasC>
5

>  <NaaaC>
0

>  <NssssC>
0

>  <NsNH3>
0

>  <NsNH2>
0

>  <NssNH2>
0

>  <NdNH>
0

>  <NssNH>
1

>  <NaaNH>
0

>  <NtN>
0

>  <NsssNH>
0

>  <NdsN>
0

>  <NaaN>
0

>  <NsssN>
0

>  <NddsN>
1

>  <NaasN>
0

>  <NssssN>
0

>  <NsOH>
0

>  <NdO>
2

>  <NssO>
1

>  <NaaO>
0

>  <NsF>
0

>  <NsSiH3>
0

>  <NssSiH2>
0

>  <NsssSiH>
0

>  <NssssSi>
0

>  <NsPH2>
0

>  <NssPH>
0

>  <NsssP>
0

>  <NdsssP>
0

>  <NsssssP>
0

>  <NsSH>
0

>  <NdS>
0

>  <NssS>
0

>  <NaaS>
0

>  <NdssS>
0

>  <NddssS>
0

>  <NsCl>
1

>  <NsBr>
0

>  <NsI>
0

>  <fragCpx>
73.07

>  <fMF>
0.41

>  <nHBAcc>
4

>  <nHBDon>
1

>  <Kier1>
20.31

>  <Kier2>
9.63

>  <Lipinski>
1

>  <GhoseFilter>
1

>  <FilterItLogS>
-5.41

>  <VMcGowan>
249.95

>  <LabuteASA>
144.09

>  <PEOE_VSA1>
10.05

>  <PEOE_VSA2>
14.91

>  <PEOE_VSA3>
0

>  <PEOE_VSA4>
0

>  <PEOE_VSA5>
0

>  <PEOE_VSA6>
29.3

>  <PEOE_VSA7>
32.05

>  <PEOE_VSA8>
12.13

>  <PEOE_VSA9>
21.55

>  <PEOE_VSA10>
12.36

>  <PEOE_VSA11>
0

>  <PEOE_VSA12>
0

>  <PEOE_VSA13>
11.59

>  <SMR_VSA1>
14.45

>  <SMR_VSA2>
0

>  <SMR_VSA3>
5.32

>  <SMR_VSA4>
0

>  <SMR_VSA5>
19.89

>  <SMR_VSA6>
6.61

>  <SMR_VSA7>
68.73

>  <SMR_VSA8>
0

>  <SMR_VSA9>
5.75

>  <SlogP_VSA1>
10.05

>  <SlogP_VSA2>
23.48

>  <SlogP_VSA3>
0

>  <SlogP_VSA4>
17.04

>  <SlogP_VSA5>
22.85

>  <SlogP_VSA6>
42.46

>  <SlogP_VSA7>
5.02

>  <SlogP_VSA8>
0

>  <SlogP_VSA9>
0

>  <SlogP_VSA10>
5.69

>  <SlogP_VSA11>
5.75

>  <EState_VSA1>
10.83

>  <EState_VSA2>
28.92

>  <EState_VSA3>
5.75

>  <EState_VSA4>
11.63

>  <EState_VSA5>
12.13

>  <EState_VSA6>
6.92

>  <EState_VSA7>
31.19

>  <EState_VSA8>
5.32

>  <EState_VSA9>
16.34

>  <EState_VSA10>
14.91

>  <VSA_EState1>
5.6

>  <VSA_EState2>
22.46

>  <VSA_EState3>
13.67

>  <VSA_EState4>
1

>  <VSA_EState5>
0.22

>  <VSA_EState6>
11.01

>  <VSA_EState7>
0

>  <VSA_EState8>
4.02

>  <VSA_EState9>
0

>  <apol>
47.31

>  <bpol>
21.9

>  <nRing>
2

>  <nHRing>
0

>  <naRing>
2

>  <naHRing>
0

>  <nARing 2>
0

>  <nAHRing 2>
0

>  <nFRing>
0

>  <nFHRing>
0

>  <nFaRing>
0

>  <nFaHRing>
0

>  <nFARing 2>
0

>  <nFAHRing 2>
0

>  <nRot>
6

>  <SLogP>
3.75

>  <SMR>
91.71

>  <TopoPSA(NO)>
81.47

>  <TopoPSA>
81.47

>  <JGI1>
0.24

>  <JGI2>
0.09

>  <JGI3>
0.04

>  <JGI4>
0.05

>  <JGI5>
0.04

>  <Diameter>
14

>  <Radius>
7

>  <TMWC10>
122.04

>  <TSRW10>
58

>  <MW>
348.09

>  <AMW>
8.49

>  <WPath>
1546

>  <WPol>
34

>  <Zagreb1>
118

>  <Zagreb2>
133

>  <mZagreb2>
5.33

>  <yes>


>  <nAR-cont>
0.336376

>  <nHA-cont>
0.94700071

>  <MWHBN>
0.267993482

>  <MWHBN-cont>
0.924612058

>  <TPSA-cont>
0.43128881

>  <pka_cont>
0.97

>  <yes.1>


>  <BBB_SCORE>
4.017872417

>  <MMFF94 Energy>
68.839

$$$$
Compound 2283
Actelion Java MolfileCreator 2.0

  0  0  0  0  0  0              0 V3000
M  V30 BEGIN CTAB
M  V30 COUNTS 45 47 0 0 0
M  V30 BEGIN ATOM
M  V30 1 S 1.6903 -0.1608 -1.1266 0
M  V30 2 O 1.5074 0.7878 -2.2084 0
M  V30 3 O 2.4984 -1.3498 -1.3143 0
M  V30 4 C 2.4061 0.7214 0.2333 0
M  V30 5 C 0.08 -0.7472 -0.5868 0 CFG=1
M  V30 6 C 3.2325 1.8158 -0.0381 0
M  V30 7 C 2.123 0.3558 1.5492 0
M  V30 8 C -1.119 0.186 -0.5382 0
M  V30 9 C -0.95 -0.8298 -1.6821 0 CFG=2
M  V30 10 C 3.7752 2.5505 1.0167 0
M  V30 11 C 2.6673 1.0974 2.5999 0
M  V30 12 C -2.0749 -0.1003 0.6115 0
M  V30 13 C -1.134 1.6359 -0.9877 0
M  V30 14 C -1.8509 -2.0352 -1.8285 0
M  V30 15 C 3.4852 2.2058 2.3429 0
M  V30 16 N -1.4062 0.2621 1.8595 0
M  V30 17 N -0.6138 2.5218 0.0469 0
M  V30 18 C -1.3618 -3.3441 -1.6831 0
M  V30 19 C -3.234 -1.883 -2.0295 0
M  V30 20 C 4.0951 2.9759 3.4774 0
M  V30 21 C -2.2094 -4.4523 -1.7613 0
M  V30 22 C -4.0866 -2.987 -2.1083 0
M  V30 23 C -3.5725 -4.2729 -1.9749 0
M  V30 24 H 0.1194 -1.5542 0.1335 0
M  V30 25 H 3.4616 2.0976 -1.0639 0
M  V30 26 H 1.4868 -0.4936 1.7812 0
M  V30 27 H -0.659 -0.4198 -2.6496 0
M  V30 28 H 4.4269 3.3941 0.7984 0
M  V30 29 H 2.4459 0.8047 3.6247 0
M  V30 30 H -3.0024 0.4711 0.4966 0
M  V30 31 H -2.347 -1.1578 0.6746 0
M  V30 32 H -0.601 1.8068 -1.9253 0
M  V30 33 H -2.1737 1.9198 -1.1913 0
M  V30 34 H -1.1202 1.2456 1.7606 0
M  V30 35 H -2.0938 0.2568 2.6111 0
M  V30 36 H 0.3994 2.423 0.1 0
M  V30 37 H -0.7563 3.4864 -0.2563 0
M  V30 38 H -0.2985 -3.5093 -1.5176 0
M  V30 39 H -3.6549 -0.8851 -2.1331 0
M  V30 40 H 5.058 2.5355 3.7534 0
M  V30 41 H 4.2512 4.0234 3.1991 0
M  V30 42 H 3.4374 2.9676 4.353 0
M  V30 43 H -1.8017 -5.4542 -1.6548 0
M  V30 44 H -5.1509 -2.8409 -2.2728 0
M  V30 45 H -4.2325 -5.1339 -2.0365 0
M  V30 END ATOM
M  V30 BEGIN BOND
M  V30 1 2 1 2
M  V30 2 2 1 3
M  V30 3 1 1 4
M  V30 4 1 1 5
M  V30 5 2 4 6
M  V30 6 1 4 7
M  V30 7 1 5 8
M  V30 8 1 5 9
M  V30 9 1 6 10
M  V30 10 2 7 11
M  V30 11 1 8 12
M  V30 12 1 8 13
M  V30 13 1 9 14
M  V30 14 2 10 15
M  V30 15 1 12 16
M  V30 16 1 13 17
M  V30 17 2 14 18
M  V30 18 1 14 19
M  V30 19 1 15 20
M  V30 20 1 18 21
M  V30 21 2 19 22
M  V30 22 2 21 23
M  V30 23 1 8 9
M  V30 24 1 11 15
M  V30 25 1 22 23
M  V30 26 1 5 24
M  V30 27 1 6 25
M  V30 28 1 7 26
M  V30 29 1 9 27
M  V30 30 1 10 28
M  V30 31 1 11 29
M  V30 32 1 12 30
M  V30 33 1 12 31
M  V30 34 1 13 32
M  V30 35 1 13 33
M  V30 36 1 16 34
M  V30 37 1 16 35
M  V30 38 1 17 36
M  V30 39 1 17 37
M  V30 40 1 18 38
M  V30 41 1 19 39
M  V30 42 1 20 40
M  V30 43 1 20 41
M  V30 44 1 20 42
M  V30 45 1 21 43
M  V30 46 1 22 44
M  V30 47 1 23 45
M  V30 END BOND
M  V30 BEGIN COLLECTION
M  V30 MDLV30/STEABS ATOMS=(2 5 9)
M  V30 END COLLECTION
M  V30 END CTAB
M  END
>  <Column 1>
2791

>  <level_0>
4026

>  <index>
4026

>  <Unnamed: 0>
4026

>  <NO.>
4038

>  <Name>
acebutolol

>  <IUPAC_name>
[(2r-3s)-1-(aminomethyl)-2-(4-methylphenyl)sulfonyl-3-phenylcyclopropyl]methanamine

>  <SMILES>
Cc1ccc(S(=O)(=O)[C@@H]2[C@@H](c3ccccc3)C2(CN)CN)cc1

>  <CID>
100001978

>  <logBB>


>  <BBB+/BBB->
BBB+

>  <Inchi>
InChI=1S/C18H22N2O2S/c1-13-7-9-15(10-8-13)23(21-22)17-16(18(17-11-19)12-20)14-5-3-2-4-6-14/h2-10-16-17H-11-12-19-20H2-1H3/t16--17-/m1/s1

>  <threshold>
-1

>  <reference>
R16|R10|

>  <group>
B

>  <Class>
1

>  <ABC>
17.78

>  <ABCGG>
15.79

>  <nAcid>
0

>  <nBase>
2

>  <nAromAtom>
12

>  <nAromBond>
12

>  <nAtom>
45

>  <nHeavyAtom>
23

>  <nSpiro>
0

>  <nBridgehead>
0

>  <nHetero>
5

>  <nN>
2

>  <nO>
2

>  <nF>
0

>  <BalabanJ>
1.78

>  <BertzCT>
781.53

>  <nBonds>
47

>  <nBondsO>
25

>  <nBondsS>
33

>  <nBondsD>
2

>  <nBondsT>
0

>  <nBondsA>
12

>  <nBondsM>
14

>  <nBondsKS>
39

>  <nBondsKD>
8

>  <RNCG>
0.19

>  <RPCG>
0.1

>  <FCSP3>
0.33

>  <SZ>
29.33

>  <Sm>
27.51

>  <Sv>
28.09

>  <Sse>
44.83

>  <Sp>
30.8

>  <Si>
50.49

>  <MZ>
0.65

>  <Mm>
0.61

>  <Mv>
0.62

>  <Mse>
1

>  <Mp>
0.68

>  <Mi>
1.12

>  <NsCH3>
1

>  <NdCH2>
0

>  <NssCH2>
2

>  <NtCH>
0

>  <NdsCH>
0

>  <NaaCH>
9

>  <NsssCH>
2

>  <NddC>
0

>  <NtsC>
0

>  <NdssC>
0

>  <NaasC>
3

>  <NaaaC>
0

>  <NssssC>
1

>  <NsNH3>
0

>  <NsNH2>
2

>  <NssNH2>
0

>  <NdNH>
0

>  <NssNH>
0

>  <NaaNH>
0

>  <NtN>
0

>  <NsssNH>
0

>  <NdsN>
0

>  <NaaN>
0

>  <NsssN>
0

>  <NddsN>
0

>  <NaasN>
0

>  <NssssN>
0

>  <NsOH>
0

>  <NdO>
2

>  <NssO>
0

>  <NaaO>
0

>  <NsF>
0

>  <NsSiH3>
0

>  <NssSiH2>
0

>  <NsssSiH>
0

>  <NssssSi>
0

>  <NsPH2>
0

>  <NssPH>
0

>  <NsssP>
0

>  <NdsssP>
0

>  <NsssssP>
0

>  <NsSH>
0

>  <NdS>
0

>  <NssS>
0

>  <NaaS>
0

>  <NdssS>
0

>  <NddssS>
1

>  <NsCl>
0

>  <NsBr>
0

>  <NsI>
0

>  <fragCpx>
119.05

>  <fMF>
0.36

>  <nHBAcc>
4

>  <nHBDon>
2

>  <Kier1>
17.81

>  <Kier2>
6.72

>  <Lipinski>
1

>  <GhoseFilter>
1

>  <FilterItLogS>
-4.29

>  <VMcGowan>
254.15

>  <LabuteASA>
136.98

>  <PEOE_VSA1>
11.47

>  <PEOE_VSA2>
0

>  <PEOE_VSA3>
8.42

>  <PEOE_VSA4>
0

>  <PEOE_VSA5>
0

>  <PEOE_VSA6>
48.03

>  <PEOE_VSA7>
24.62

>  <PEOE_VSA8>
24.42

>  <PEOE_VSA9>
10.15

>  <PEOE_VSA10>
0

>  <PEOE_VSA11>
9.84

>  <PEOE_VSA12>
0

>  <PEOE_VSA13>
0

>  <SMR_VSA1>
8.42

>  <SMR_VSA2>
0

>  <SMR_VSA3>
0

>  <SMR_VSA4>
16.88

>  <SMR_VSA5>
22.99

>  <SMR_VSA6>
13.09

>  <SMR_VSA7>
65.72

>  <SMR_VSA8>
0

>  <SMR_VSA9>
0

>  <SlogP_VSA1>
11.47

>  <SlogP_VSA2>
26.76

>  <SlogP_VSA3>
9.84

>  <SlogP_VSA4>
12.34

>  <SlogP_VSA5>
17.04

>  <SlogP_VSA6>
59.49

>  <SlogP_VSA7>
0

>  <SlogP_VSA8>
0

>  <SlogP_VSA9>
0

>  <SlogP_VSA10>
0

>  <SlogP_VSA11>
0

>  <EState_VSA1>
20.5

>  <EState_VSA2>
19.01

>  <EState_VSA3>
4.9

>  <EState_VSA4>
11.13

>  <EState_VSA5>
0

>  <EState_VSA6>
12.13

>  <EState_VSA7>
49.39

>  <EState_VSA8>
0

>  <EState_VSA9>
11.47

>  <EState_VSA10>
8.42

>  <VSA_EState1>
26.22

>  <VSA_EState2>
0.35

>  <VSA_EState3>
-0.56

>  <VSA_EState4>
13.35

>  <VSA_EState5>
-0.15

>  <VSA_EState6>
16.64

>  <VSA_EState7>
0

>  <VSA_EState8>
2.46

>  <VSA_EState9>
-3.47

>  <apol>
51.43

>  <bpol>
27.59

>  <nRing>
3

>  <nHRing>
0

>  <naRing>
2

>  <naHRing>
0

>  <nARing 2>
1

>  <nAHRing 2>
0

>  <nFRing>
0

>  <nFHRing>
0

>  <nFaRing>
0

>  <nFaHRing>
0

>  <nFARing 2>
0

>  <nFAHRing 2>
0

>  <nRot>
5

>  <SLogP>
1.84

>  <SMR>
91.88

>  <TopoPSA(NO)>
86.18

>  <TopoPSA>
94.56

>  <JGI1>
0.24

>  <JGI2>
0.13

>  <JGI3>
0.1

>  <JGI4>
0.06

>  <JGI5>
0.03

>  <Diameter>
11

>  <Radius>
6

>  <TMWC10>
125.96

>  <TSRW10>
79.66

>  <MW>
330.14

>  <AMW>
7.34

>  <WPath>
1113

>  <WPol>
39

>  <Zagreb1>
126

>  <Zagreb2>
157

>  <mZagreb2>
5.14

>  <yes>


>  <nAR-cont>
0.816016

>  <nHA-cont>
0.967789328

>  <MWHBN>
0.33021909

>  <MWHBN-cont>
0.742075841

>  <TPSA-cont>
0.339912482

>  <pka_cont>
0.97

>  <yes.1>


>  <BBB_SCORE>
4.061744053

>  <MMFF94 Energy>
43.977

$$$$
Compound 2284
Actelion Java MolfileCreator 2.0

  0  0  0  0  0  0              0 V3000
M  V30 BEGIN CTAB
M  V30 COUNTS 40 42 0 0 0
M  V30 BEGIN ATOM
M  V30 1 S 0.8136 0.3254 0.8136 0
M  V30 2 O 0.0466 -0.6516 1.5621 0
M  V30 3 O 1.5925 1.3396 1.5018 0
M  V30 4 C 1.9339 -0.5606 -0.2454 0
M  V30 5 C -0.2239 1.2164 -0.3421 0 CFG=1
M  V30 6 C 1.6047 -1.8456 -0.6799 0
M  V30 7 C 3.1516 0.0222 -0.6043 0
M  V30 8 C -1.4386 0.5084 -0.8965 0 CFG=2
M  V30 9 C -1.5887 1.6768 0.0871 0 CFG=1
M  V30 10 C 2.4899 -2.5402 -1.5057 0
M  V30 11 C 4.0326 -0.6785 -1.4297 0
M  V30 12 N -1.7804 -0.8857 -0.502 0
M  V30 13 C -1.7917 0.8111 -2.3392 0
M  V30 14 C -2.1884 1.5463 1.4685 0
M  V30 15 C 3.7022 -1.9571 -1.8988 0
M  V30 16 O -1.4621 1.8313 -2.9245 0
M  V30 17 O -2.5954 -0.1037 -2.9269 0
M  V30 18 C -3.4045 0.873 1.6834 0
M  V30 19 C -1.5274 2.0407 2.6063 0
M  V30 20 C 4.6675 -2.7225 -2.7557 0
M  V30 21 C -3.9391 0.7096 2.9648 0
M  V30 22 C -2.0546 1.8792 3.8909 0
M  V30 23 C -3.2615 1.2125 4.0698 0
M  V30 24 H 0.3232 1.8817 -0.9986 0
M  V30 25 H 0.6701 -2.3149 -0.3805 0
M  V30 26 H 3.4275 1.0106 -0.2434 0
M  V30 27 H -1.8855 2.6235 -0.3718 0
M  V30 28 H 2.2295 -3.5434 -1.8374 0
M  V30 29 H 4.9833 -0.2236 -1.7009 0
M  V30 30 H -2.7473 -1.0952 -0.7525 0
M  V30 31 H -1.6967 -1.0159 0.514 0
M  V30 32 H -2.7293 0.2446 -3.8318 0
M  V30 33 H -3.96 0.4763 0.8368 0
M  V30 34 H -0.5809 2.5684 2.5005 0
M  V30 35 H 5.3432 -3.309 -2.1256 0
M  V30 36 H 4.1363 -3.3999 -3.4325 0
M  V30 37 H 5.2615 -2.0436 -3.3765 0
M  V30 38 H -4.8824 0.1867 3.0978 0
M  V30 39 H -1.5142 2.2697 4.7494 0
M  V30 40 H -3.6698 1.0824 5.0683 0
M  V30 END ATOM
M  V30 BEGIN BOND
M  V30 1 2 1 2
M  V30 2 2 1 3
M  V30 3 1 1 4
M  V30 4 1 1 5
M  V30 5 2 4 6
M  V30 6 1 4 7
M  V30 7 1 5 8
M  V30 8 1 5 9
M  V30 9 1 6 10
M  V30 10 2 7 11
M  V30 11 1 8 12
M  V30 12 1 8 13
M  V30 13 1 9 14
M  V30 14 2 10 15
M  V30 15 2 13 16
M  V30 16 1 13 17
M  V30 17 2 14 18
M  V30 18 1 14 19
M  V30 19 1 15 20
M  V30 20 1 18 21
M  V30 21 2 19 22
M  V30 22 2 21 23
M  V30 23 1 8 9
M  V30 24 1 11 15
M  V30 25 1 22 23
M  V30 26 1 5 24
M  V30 27 1 6 25
M  V30 28 1 7 26
M  V30 29 1 9 27
M  V30 30 1 10 28
M  V30 31 1 11 29
M  V30 32 1 12 30
M  V30 33 1 12 31
M  V30 34 1 17 32
M  V30 35 1 18 33
M  V30 36 1 19 34
M  V30 37 1 20 35
M  V30 38 1 20 36
M  V30 39 1 20 37
M  V30 40 1 21 38
M  V30 41 1 22 39
M  V30 42 1 23 40
M  V30 END BOND
M  V30 BEGIN COLLECTION
M  V30 MDLV30/STEABS ATOMS=(3 5 8 9)
M  V30 END COLLECTION
M  V30 END CTAB
M  END
>  <Column 1>
2792

>  <level_0>
4028

>  <index>
4028

>  <Unnamed: 0>
4028

>  <NO.>
4040

>  <Name>
amifostine

>  <IUPAC_name>
(1r-2r-3r)-1-amino-2-(4-methylphenyl)sulfonyl-3-phenylcyclopropane-1-carboxylic acid

>  <SMILES>
Cc1ccc(S(=O)(=O)[C@@H]2[C@H](c3ccccc3)[C@@]2(N)C(=O)O)cc1

>  <CID>
100002141

>  <logBB>


>  <BBB+/BBB->
BBB-

>  <Inchi>
InChI=1S/C17H17NO4S/c1-11-7-9-13(10-8-11)23(21-22)15-14(17(15-18)16(19)20)12-5-3-2-4-6-12/h2-10-14-15H-18H2-1H3-(H-19-20)/t14--15+-17-/m0/s1

>  <threshold>
-1

>  <reference>
R16|R10|

>  <group>
B

>  <Class>
1

>  <ABC>
18.09

>  <ABCGG>
15.94

>  <nAcid>
1

>  <nBase>
1

>  <nAromAtom>
12

>  <nAromBond>
12

>  <nAtom>
40

>  <nHeavyAtom>
23

>  <nSpiro>
0

>  <nBridgehead>
0

>  <nHetero>
6

>  <nN>
1

>  <nO>
4

>  <nF>
0

>  <BalabanJ>
1.78

>  <BertzCT>
845.92

>  <nBonds>
42

>  <nBondsO>
25

>  <nBondsS>
27

>  <nBondsD>
3

>  <nBondsT>
0

>  <nBondsA>
12

>  <nBondsM>
15

>  <nBondsKS>
33

>  <nBondsKD>
9

>  <RNCG>
0.23

>  <RPCG>
0.15

>  <FCSP3>
0.24

>  <SZ>
29

>  <Sm>
27.59

>  <Sv>
26.41

>  <Sse>
40.61

>  <Sp>
28.1

>  <Si>
44.58

>  <MZ>
0.73

>  <Mm>
0.69

>  <Mv>
0.66

>  <Mse>
1.02

>  <Mp>
0.7

>  <Mi>
1.11

>  <NsCH3>
1

>  <NdCH2>
0

>  <NssCH2>
0

>  <NtCH>
0

>  <NdsCH>
0

>  <NaaCH>
9

>  <NsssCH>
2

>  <NddC>
0

>  <NtsC>
0

>  <NdssC>
1

>  <NaasC>
3

>  <NaaaC>
0

>  <NssssC>
1

>  <NsNH3>
0

>  <NsNH2>
1

>  <NssNH2>
0

>  <NdNH>
0

>  <NssNH>
0

>  <NaaNH>
0

>  <NtN>
0

>  <NsssNH>
0

>  <NdsN>
0

>  <NaaN>
0

>  <NsssN>
0

>  <NddsN>
0

>  <NaasN>
0

>  <NssssN>
0

>  <NsOH>
1

>  <NdO>
3

>  <NssO>
0

>  <NaaO>
0

>  <NsF>
0

>  <NsSiH3>
0

>  <NssSiH2>
0

>  <NsssSiH>
0

>  <NssssSi>
0

>  <NsPH2>
0

>  <NssPH>
0

>  <NsssP>
0

>  <NdsssP>
0

>  <NsssssP>
0

>  <NsSH>
0

>  <NdS>
0

>  <NssS>
0

>  <NaaS>
0

>  <NdssS>
0

>  <NddssS>
1

>  <NsCl>
0

>  <NsBr>
0

>  <NsI>
0

>  <fragCpx>
119.06

>  <fMF>
0.4

>  <nHBAcc>
4

>  <nHBDon>
2

>  <Kier1>
17.81

>  <Kier2>
6.38

>  <Lipinski>
1

>  <GhoseFilter>
1

>  <FilterItLogS>
-3.21

>  <VMcGowan>
237.52

>  <LabuteASA>
134.23

>  <PEOE_VSA1>
10.84

>  <PEOE_VSA2>
4.79

>  <PEOE_VSA3>
8.42

>  <PEOE_VSA4>
0

>  <PEOE_VSA5>
0

>  <PEOE_VSA6>
48.03

>  <PEOE_VSA7>
24.62

>  <PEOE_VSA8>
5.92

>  <PEOE_VSA9>
4.9

>  <PEOE_VSA10>
10.79

>  <PEOE_VSA11>
9.84

>  <PEOE_VSA12>
0

>  <PEOE_VSA13>
0

>  <SMR_VSA1>
18.32

>  <SMR_VSA2>
0

>  <SMR_VSA3>
0

>  <SMR_VSA4>
5.73

>  <SMR_VSA5>
28.53

>  <SMR_VSA6>
0

>  <SMR_VSA7>
65.72

>  <SMR_VSA8>
0

>  <SMR_VSA9>
0

>  <SlogP_VSA1>
5.73

>  <SlogP_VSA2>
30.28

>  <SlogP_VSA3>
14.63

>  <SlogP_VSA4>
6.92

>  <SlogP_VSA5>
17.04

>  <SlogP_VSA6>
59.49

>  <SlogP_VSA7>
0

>  <SlogP_VSA8>
0

>  <SlogP_VSA9>
0

>  <SlogP_VSA10>
0

>  <SlogP_VSA11>
0

>  <EState_VSA1>
32.51

>  <EState_VSA2>
4.9

>  <EState_VSA3>
5.56

>  <EState_VSA4>
5.56

>  <EState_VSA5>
12.13

>  <EState_VSA6>
42.46

>  <EState_VSA7>
6.92

>  <EState_VSA8>
0

>  <EState_VSA9>
5.73

>  <EState_VSA10>
18.32

>  <VSA_EState1>
25.73

>  <VSA_EState2>
11.72

>  <VSA_EState3>
8.31

>  <VSA_EState4>
5.73

>  <VSA_EState5>
-2.06

>  <VSA_EState6>
15.04

>  <VSA_EState7>
0

>  <VSA_EState8>
1.85

>  <VSA_EState9>
-3.84

>  <apol>
46.93

>  <bpol>
24.01

>  <nRing>
3

>  <nHRing>
0

>  <naRing>
2

>  <naHRing>
0

>  <nARing 2>
1

>  <nAHRing 2>
0

>  <nFRing>
0

>  <nFHRing>
0

>  <nFaRing>
0

>  <nFaHRing>
0

>  <nFARing 2>
0

>  <nFAHRing 2>
0

>  <nRot>
4

>  <SLogP>
1.72

>  <SMR>
85.89

>  <TopoPSA(NO)>
97.46

>  <TopoPSA>
105.84

>  <JGI1>
0.26

>  <JGI2>
0.14

>  <JGI3>
0.09

>  <JGI4>
0.06

>  <JGI5>
0.04

>  <Diameter>
11

>  <Radius>
6

>  <TMWC10>
126.11

>  <TSRW10>
79.76

>  <MW>
331.09

>  <AMW>
8.28

>  <WPath>
1111

>  <WPol>
39

>  <Zagreb1>
128

>  <Zagreb2>
159

>  <mZagreb2>
4.89

>  <yes>


>  <nAR-cont>
0.816016

>  <nHA-cont>
0.967789328

>  <MWHBN>
0.329745

>  <MWHBN-cont>
0.743737532

>  <TPSA-cont>
0.261171077

>  <pka_cont>
0.97

>  <yes.1>


>  <BBB_SCORE>
3.906753781

>  <MMFF94 Energy>
73.069

$$$$
Compound 2285
Actelion Java MolfileCreator 2.0

  0  0  0  0  0  0              0 V3000
M  V30 BEGIN CTAB
M  V30 COUNTS 54 56 0 0 0
M  V30 BEGIN ATOM
M  V30 1 S -2.098 0.4032 -1.2907 0
M  V30 2 O -1.697 -0.7624 -0.5251 0
M  V30 3 O -2.99 0.2948 -2.4277 0
M  V30 4 C -2.8447 1.5447 -0.148 0
M  V30 5 C -0.6525 1.3013 -1.8415 0 CFG=1
M  V30 6 C -2.5807 1.4321 1.2187 0
M  V30 7 C -3.7104 2.5293 -0.6297 0
M  V30 8 C 0.6278 1.0722 -1.0391 0 CFG=2
M  V30 9 C 0.4995 0.6174 -2.5088 0 CFG=1
M  V30 10 C -3.1681 2.3342 2.107 0
M  V30 11 C -4.2935 3.4276 0.265 0
M  V30 12 N 0.7359 0.0507 -0.0125 0
M  V30 13 C 1.3896 2.3571 -0.767 0
M  V30 14 C 0.5429 -0.835 -2.9336 0
M  V30 15 C -4.015 3.347 1.6363 0
M  V30 16 C 1.8901 -0.3142 0.6167 0
M  V30 17 O 1.3705 3.2934 -1.5607 0
M  V30 18 C 1.6014 -1.6763 -2.5451 0
M  V30 19 C -0.4915 -1.4257 -3.6781 0
M  V30 20 C -4.6732 4.2924 2.5989 0
M  V30 21 O 2.9696 0.2339 0.4631 0
M  V30 22 O 1.6374 -1.3766 1.4112 0
M  V30 23 C 1.626 -3.0341 -2.8758 0
M  V30 24 C -0.4756 -2.7834 -4.0121 0
M  V30 25 C 2.7021 -2.0194 2.1578 0
M  V30 26 C 0.5827 -3.5888 -3.6074 0
M  V30 27 C 3.7578 -2.611 1.2172 0
M  V30 28 C 2.0132 -3.1692 2.9082 0
M  V30 29 C 3.3188 -1.0634 3.1844 0
M  V30 30 H -0.8716 2.2999 -2.2013 0
M  V30 31 H -1.9342 0.6483 1.6055 0
M  V30 32 H -3.9428 2.6021 -1.6901 0
M  V30 33 H 1.0305 1.2496 -3.2248 0
M  V30 34 H -2.9674 2.2404 3.1728 0
M  V30 35 H -4.9725 4.1901 -0.1124 0
M  V30 36 H -0.0407 -0.5995 0.1245 0
M  V30 37 H 1.9311 2.4336 0.1891 0
M  V30 38 H 2.4415 -1.2657 -1.9884 0
M  V30 39 H -1.3289 -0.8235 -4.025 0
M  V30 40 H -5.6286 3.8782 2.9356 0
M  V30 41 H -4.0354 4.4676 3.4716 0
M  V30 42 H -4.8542 5.2648 2.1289 0
M  V30 43 H 2.4616 -3.6537 -2.5617 0
M  V30 44 H -1.2948 -3.2072 -4.5875 0
M  V30 45 H 0.5953 -4.644 -3.8654 0
M  V30 46 H 4.3264 -1.8324 0.6998 0
M  V30 47 H 4.4751 -3.2325 1.764 0
M  V30 48 H 3.2866 -3.2236 0.4403 0
M  V30 49 H 1.5262 -3.856 2.2061 0
M  V30 50 H 2.722 -3.7409 3.5162 0
M  V30 51 H 1.2227 -2.7874 3.565 0
M  V30 52 H 3.8849 -0.2588 2.7058 0
M  V30 53 H 2.5388 -0.5836 3.7863 0
M  V30 54 H 4.004 -1.5898 3.8575 0
M  V30 END ATOM
M  V30 BEGIN BOND
M  V30 1 2 1 2
M  V30 2 2 1 3
M  V30 3 1 1 4
M  V30 4 1 1 5
M  V30 5 2 4 6
M  V30 6 1 4 7
M  V30 7 1 5 8
M  V30 8 1 5 9
M  V30 9 1 6 10
M  V30 10 2 7 11
M  V30 11 1 8 12
M  V30 12 1 8 13
M  V30 13 1 9 14
M  V30 14 2 10 15
M  V30 15 1 12 16
M  V30 16 2 13 17
M  V30 17 2 14 18
M  V30 18 1 14 19
M  V30 19 1 15 20
M  V30 20 2 16 21
M  V30 21 1 16 22
M  V30 22 1 18 23
M  V30 23 2 19 24
M  V30 24 1 22 25
M  V30 25 2 23 26
M  V30 26 1 25 27
M  V30 27 1 25 28
M  V30 28 1 25 29
M  V30 29 1 8 9
M  V30 30 1 11 15
M  V30 31 1 24 26
M  V30 32 1 5 30
M  V30 33 1 6 31
M  V30 34 1 7 32
M  V30 35 1 9 33
M  V30 36 1 10 34
M  V30 37 1 11 35
M  V30 38 1 12 36
M  V30 39 1 13 37
M  V30 40 1 18 38
M  V30 41 1 19 39
M  V30 42 1 20 40
M  V30 43 1 20 41
M  V30 44 1 20 42
M  V30 45 1 23 43
M  V30 46 1 24 44
M  V30 47 1 26 45
M  V30 48 1 27 46
M  V30 49 1 27 47
M  V30 50 1 27 48
M  V30 51 1 28 49
M  V30 52 1 28 50
M  V30 53 1 28 51
M  V30 54 1 29 52
M  V30 55 1 29 53
M  V30 56 1 29 54
M  V30 END BOND
M  V30 BEGIN COLLECTION
M  V30 MDLV30/STEABS ATOMS=(3 5 8 9)
M  V30 END COLLECTION
M  V30 END CTAB
M  END
>  <Column 1>
2793

>  <level_0>
4029

>  <index>
4029

>  <Unnamed: 0>
4029

>  <NO.>
4041

>  <Name>
apomorphine

>  <IUPAC_name>
tert-butyl n-[(1r-2r-3r)-1-formyl-2-(4-methylphenyl)sulfonyl-3-phenylcyclopropyl]carbamate

>  <SMILES>
Cc1ccc(S(=O)(=O)[C@@H]2[C@H](c3ccccc3)[C@]2(C=O)NC(=O)OC(C)(C)C)cc1

>  <CID>
100002215

>  <logBB>


>  <BBB+/BBB->
BBB+

>  <Inchi>
InChI=1S/C22H25NO5S/c1-15-10-12-17(13-11-15)29(26-27)19-18(16-8-6-5-7-9-16)22(19-14-24)23-20(25)28-21(2-3)4/h5-14-18-19H-1-4H3-(H-23-25)/t18--19+-22-/m0/s1

>  <threshold>
-1

>  <reference>
R16|R10|R10|

>  <group>
B

>  <Class>
1

>  <ABC>
22.61

>  <ABCGG>
19.58

>  <nAcid>
0

>  <nBase>
0

>  <nAromAtom>
12

>  <nAromBond>
12

>  <nAtom>
54

>  <nHeavyAtom>
29

>  <nSpiro>
0

>  <nBridgehead>
0

>  <nHetero>
7

>  <nN>
1

>  <nO>
5

>  <nF>
0

>  <BalabanJ>
1.82

>  <BertzCT>
1009.42

>  <nBonds>
56

>  <nBondsO>
31

>  <nBondsS>
40

>  <nBondsD>
4

>  <nBondsT>
0

>  <nBondsA>
12

>  <nBondsM>
16

>  <nBondsKS>
46

>  <nBondsKD>
10

>  <RNCG>
0.18

>  <RPCG>
0.17

>  <FCSP3>
0.36

>  <SZ>
36.67

>  <Sm>
34.59

>  <Sv>
34.29

>  <Sse>
54.49

>  <Sp>
36.78

>  <Si>
60.45

>  <MZ>
0.68

>  <Mm>
0.64

>  <Mv>
0.64

>  <Mse>
1.01

>  <Mp>
0.68

>  <Mi>
1.12

>  <NsCH3>
4

>  <NdCH2>
0

>  <NssCH2>
0

>  <NtCH>
0

>  <NdsCH>
1

>  <NaaCH>
9

>  <NsssCH>
2

>  <NddC>
0

>  <NtsC>
0

>  <NdssC>
1

>  <NaasC>
3

>  <NaaaC>
0

>  <NssssC>
2

>  <NsNH3>
0

>  <NsNH2>
0

>  <NssNH2>
0

>  <NdNH>
0

>  <NssNH>
1

>  <NaaNH>
0

>  <NtN>
0

>  <NsssNH>
0

>  <NdsN>
0

>  <NaaN>
0

>  <NsssN>
0

>  <NddsN>
0

>  <NaasN>
0

>  <NssssN>
0

>  <NsOH>
0

>  <NdO>
4

>  <NssO>
1

>  <NaaO>
0

>  <NsF>
0

>  <NsSiH3>
0

>  <NssSiH2>
0

>  <NsssSiH>
0

>  <NssssSi>
0

>  <NsPH2>
0

>  <NssPH>
0

>  <NsssP>
0

>  <NdsssP>
0

>  <NsssssP>
0

>  <NsSH>
0

>  <NdS>
0

>  <NssS>
0

>  <NaaS>
0

>  <NdssS>
0

>  <NddssS>
1

>  <NsCl>
0

>  <NsBr>
0

>  <NsI>
0

>  <fragCpx>
149.07

>  <fMF>
0.3

>  <nHBAcc>
5

>  <nHBDon>
1

>  <Kier1>
23.66

>  <Kier2>
8.86

>  <Lipinski>
1

>  <GhoseFilter>
1

>  <FilterItLogS>
-5.03

>  <VMcGowan>
309.54

>  <LabuteASA>
170.74

>  <PEOE_VSA1>
14.85

>  <PEOE_VSA2>
0

>  <PEOE_VSA3>
13.21

>  <PEOE_VSA4>
0

>  <PEOE_VSA5>
0

>  <PEOE_VSA6>
48.03

>  <PEOE_VSA7>
45.39

>  <PEOE_VSA8>
5.92

>  <PEOE_VSA9>
4.9

>  <PEOE_VSA10>
22.68

>  <PEOE_VSA11>
9.84

>  <PEOE_VSA12>
0

>  <PEOE_VSA13>
0

>  <SMR_VSA1>
22.74

>  <SMR_VSA2>
0

>  <SMR_VSA3>
5.32

>  <SMR_VSA4>
0

>  <SMR_VSA5>
54.9

>  <SMR_VSA6>
0

>  <SMR_VSA7>
65.72

>  <SMR_VSA8>
0

>  <SMR_VSA9>
0

>  <SlogP_VSA1>
5.32

>  <SlogP_VSA2>
37.19

>  <SlogP_VSA3>
19.37

>  <SlogP_VSA4>
6.92

>  <SlogP_VSA5>
37.82

>  <SlogP_VSA6>
59.49

>  <SlogP_VSA7>
0

>  <SlogP_VSA8>
0

>  <SlogP_VSA9>
0

>  <SlogP_VSA10>
4.79

>  <SlogP_VSA11>
0

>  <EState_VSA1>
38.24

>  <EState_VSA2>
4.9

>  <EState_VSA3>
11.85

>  <EState_VSA4>
5.56

>  <EState_VSA5>
12.13

>  <EState_VSA6>
63.24

>  <EState_VSA7>
6.92

>  <EState_VSA8>
5.32

>  <EState_VSA9>
4.74

>  <EState_VSA10>
18.01

>  <VSA_EState1>
32.04

>  <VSA_EState2>
24.71

>  <VSA_EState3>
1.43

>  <VSA_EState4>
-0.78

>  <VSA_EState5>
-0.71

>  <VSA_EState6>
15.31

>  <VSA_EState7>
-0.31

>  <VSA_EState8>
6.95

>  <VSA_EState9>
-3.89

>  <apol>
61.42

>  <bpol>
35.78

>  <nRing>
3

>  <nHRing>
0

>  <naRing>
2

>  <naHRing>
0

>  <nARing 2>
1

>  <nAHRing 2>
0

>  <nFRing>
0

>  <nFHRing>
0

>  <nFaRing>
0

>  <nFaHRing>
0

>  <nFARing 2>
0

>  <nFAHRing 2>
0

>  <nRot>
5

>  <SLogP>
3.4

>  <SMR>
109.5

>  <TopoPSA(NO)>
89.54

>  <TopoPSA>
97.92

>  <JGI1>
0.31

>  <JGI2>
0.11

>  <JGI3>
0.1

>  <JGI4>
0.05

>  <JGI5>
0.04

>  <Diameter>
12

>  <Radius>
6

>  <TMWC10>
139.48

>  <TSRW10>
86.63

>  <MW>
415.15

>  <AMW>
7.69

>  <WPath>
2111

>  <WPol>
46

>  <Zagreb1>
158

>  <Zagreb2>
190

>  <mZagreb2>
6.18

>  <yes>


>  <nAR-cont>
0.816016

>  <nHA-cont>
0.785905698

>  <MWHBN>
0.294475203

>  <MWHBN-cont>
0.856925145

>  <TPSA-cont>
0.316457595

>  <pka_cont>
0.97

>  <yes.1>


>  <BBB_SCORE>
4.005224606

>  <MMFF94 Energy>
27.368

$$$$
Compound 2286
Actelion Java MolfileCreator 2.0

  0  0  0  0  0  0              0 V3000
M  V30 BEGIN CTAB
M  V30 COUNTS 39 41 0 0 0
M  V30 BEGIN ATOM
M  V30 1 S 0.3272 1.8826 -1.4731 0
M  V30 2 O -0.6326 2.8515 -1.9661 0
M  V30 3 O 1.5866 1.6496 -2.1494 0
M  V30 4 C 0.68 2.2561 0.222 0
M  V30 5 C -0.59 0.3311 -1.376 0 CFG=2
M  V30 6 C 0.0473 3.3313 0.8482 0
M  V30 7 C 1.6016 1.4668 0.9138 0
M  V30 8 C 0.2175 -0.9222 -1.5473 0 CFG=2
M  V30 9 C -0.6342 -0.4026 -2.7001 0 CFG=1
M  V30 10 C 0.3266 3.6047 2.1883 0
M  V30 11 C 1.8747 1.7459 2.2535 0
M  V30 12 C -0.1169 -2.201 -0.803 0
M  V30 13 C -1.9036 -1.0038 -3.1463 0
M  V30 14 C 1.2293 2.8063 2.9044 0
M  V30 15 C 0.5839 -3.3813 -1.1151 0
M  V30 16 C -0.9964 -2.2625 0.2922 0
M  V30 17 S -1.877 -2.4433 -3.9625 0
M  V30 18 N -3.0484 -0.2929 -2.9512 0
M  V30 19 C 1.5542 3.1269 4.3345 0
M  V30 20 C 0.3749 -4.5736 -0.4166 0
M  V30 21 C -1.2104 -3.4523 0.9973 0
M  V30 22 C -0.528 -4.6094 0.6389 0
M  V30 23 H -1.4742 0.3444 -0.7596 0
M  V30 24 H -0.6541 3.963 0.3076 0
M  V30 25 H 2.1183 0.646 0.4216 0
M  V30 26 H 1.2883 -0.8075 -1.7231 0
M  V30 27 H -0.0718 0.0323 -3.5265 0
M  V30 28 H -0.1613 4.449 2.6721 0
M  V30 29 H 2.5998 1.1346 2.7878 0
M  V30 30 H 1.2975 -3.378 -1.9378 0
M  V30 31 H -1.536 -1.3795 0.6214 0
M  V30 32 H -3.9238 -0.6754 -3.2903 0
M  V30 33 H -3.067 0.6373 -2.5529 0
M  V30 34 H 2.3941 3.827 4.3793 0
M  V30 35 H 0.692 3.5747 4.8399 0
M  V30 36 H 1.8191 2.2195 4.8874 0
M  V30 37 H 0.9181 -5.4707 -0.7015 0
M  V30 38 H -1.9087 -3.4709 1.8302 0
M  V30 39 H -0.6954 -5.5347 1.1834 0
M  V30 END ATOM
M  V30 BEGIN BOND
M  V30 1 2 1 2
M  V30 2 2 1 3
M  V30 3 1 1 4
M  V30 4 1 1 5
M  V30 5 2 4 6
M  V30 6 1 4 7
M  V30 7 1 5 8
M  V30 8 1 5 9
M  V30 9 1 6 10
M  V30 10 2 7 11
M  V30 11 1 8 12
M  V30 12 1 9 13
M  V30 13 2 10 14
M  V30 14 2 12 15
M  V30 15 1 12 16
M  V30 16 2 13 17
M  V30 17 1 13 18
M  V30 18 1 14 19
M  V30 19 1 15 20
M  V30 20 2 16 21
M  V30 21 2 20 22
M  V30 22 1 8 9
M  V30 23 1 11 14
M  V30 24 1 21 22
M  V30 25 1 5 23
M  V30 26 1 6 24
M  V30 27 1 7 25
M  V30 28 1 8 26
M  V30 29 1 9 27
M  V30 30 1 10 28
M  V30 31 1 11 29
M  V30 32 1 15 30
M  V30 33 1 16 31
M  V30 34 1 18 32
M  V30 35 1 18 33
M  V30 36 1 19 34
M  V30 37 1 19 35
M  V30 38 1 19 36
M  V30 39 1 20 37
M  V30 40 1 21 38
M  V30 41 1 22 39
M  V30 END BOND
M  V30 BEGIN COLLECTION
M  V30 MDLV30/STEABS ATOMS=(3 5 8 9)
M  V30 END COLLECTION
M  V30 END CTAB
M  END
>  <Column 1>
2794

>  <level_0>
4030

>  <index>
4030

>  <Unnamed: 0>
4030

>  <NO.>
4042

>  <Name>
atenolol

>  <IUPAC_name>
(1r-2r-3r)-2-(4-methylphenyl)sulfonyl-3-phenylcyclopropane-1-carbothioamide

>  <SMILES>
Cc1ccc(S(=O)(=O)[C@H]2[C@H](C(N)=S)[C@@H]2c2ccccc2)cc1

>  <CID>
100002249

>  <logBB>


>  <BBB+/BBB->
BBB+

>  <Inchi>
InChI=1S/C17H17NO2S2/c1-11-7-9-13(10-8-11)22(19-20)16-14(15(16)17(18)21)12-5-3-2-4-6-12/h2-10-14-16H-1H3-(H2-18-21)/t14--15+-16+/m0/s1

>  <threshold>
-1

>  <reference>
R16|R10|

>  <group>
B

>  <Class>
-1

>  <ABC>
17.29

>  <ABCGG>
15.06

>  <nAcid>
0

>  <nBase>
0

>  <nAromAtom>
12

>  <nAromBond>
12

>  <nAtom>
39

>  <nHeavyAtom>
22

>  <nSpiro>
0

>  <nBridgehead>
0

>  <nHetero>
5

>  <nN>
1

>  <nO>
2

>  <nF>
0

>  <BalabanJ>
1.7

>  <BertzCT>
798.31

>  <nBonds>
41

>  <nBondsO>
24

>  <nBondsS>
26

>  <nBondsD>
3

>  <nBondsT>
0

>  <nBondsA>
12

>  <nBondsM>
15

>  <nBondsKS>
32

>  <nBondsKD>
9

>  <RNCG>
0.25

>  <RPCG>
0.12

>  <FCSP3>
0.24

>  <SZ>
29

>  <Sm>
27.6

>  <Sv>
26.17

>  <Sse>
39.02

>  <Sp>
28.88

>  <Si>
43.08

>  <MZ>
0.74

>  <Mm>
0.71

>  <Mv>
0.67

>  <Mse>
1

>  <Mp>
0.74

>  <Mi>
1.1

>  <NsCH3>
1

>  <NdCH2>
0

>  <NssCH2>
0

>  <NtCH>
0

>  <NdsCH>
0

>  <NaaCH>
9

>  <NsssCH>
3

>  <NddC>
0

>  <NtsC>
0

>  <NdssC>
1

>  <NaasC>
3

>  <NaaaC>
0

>  <NssssC>
0

>  <NsNH3>
0

>  <NsNH2>
1

>  <NssNH2>
0

>  <NdNH>
0

>  <NssNH>
0

>  <NaaNH>
0

>  <NtN>
0

>  <NsssNH>
0

>  <NdsN>
0

>  <NaaN>
0

>  <NsssN>
0

>  <NddsN>
0

>  <NaasN>
0

>  <NssssN>
0

>  <NsOH>
0

>  <NdO>
2

>  <NssO>
0

>  <NaaO>
0

>  <NsF>
0

>  <NsSiH3>
0

>  <NssSiH2>
0

>  <NsssSiH>
0

>  <NssssSi>
0

>  <NsPH2>
0

>  <NssPH>
0

>  <NsssP>
0

>  <NdsssP>
0

>  <NsssssP>
0

>  <NsSH>
0

>  <NdS>
1

>  <NssS>
0

>  <NaaS>
0

>  <NdssS>
0

>  <NddssS>
1

>  <NsCl>
0

>  <NsBr>
0

>  <NsI>
0

>  <fragCpx>
114.05

>  <fMF>
0.41

>  <nHBAcc>
3

>  <nHBDon>
1

>  <Kier1>
16.84

>  <Kier2>
6.48

>  <Lipinski>
1

>  <GhoseFilter>
1

>  <FilterItLogS>
-3.77

>  <VMcGowan>
242.13

>  <LabuteASA>
135.63

>  <PEOE_VSA1>
5.73

>  <PEOE_VSA2>
0

>  <PEOE_VSA3>
8.42

>  <PEOE_VSA4>
0

>  <PEOE_VSA5>
0

>  <PEOE_VSA6>
60.25

>  <PEOE_VSA7>
24.62

>  <PEOE_VSA8>
11.84

>  <PEOE_VSA9>
15.13

>  <PEOE_VSA10>
0

>  <PEOE_VSA11>
9.84

>  <PEOE_VSA12>
0

>  <PEOE_VSA13>
0

>  <SMR_VSA1>
8.42

>  <SMR_VSA2>
0

>  <SMR_VSA3>
0

>  <SMR_VSA4>
11.65

>  <SMR_VSA5>
22.99

>  <SMR_VSA6>
0

>  <SMR_VSA7>
65.72

>  <SMR_VSA8>
0

>  <SMR_VSA9>
0

>  <SlogP_VSA1>
5.73

>  <SlogP_VSA2>
18.66

>  <SlogP_VSA3>
9.84

>  <SlogP_VSA4>
12.84

>  <SlogP_VSA5>
17.04

>  <SlogP_VSA6>
59.49

>  <SlogP_VSA7>
0

>  <SlogP_VSA8>
0

>  <SlogP_VSA9>
0

>  <SlogP_VSA10>
0

>  <SlogP_VSA11>
0

>  <EState_VSA1>
15.09

>  <EState_VSA2>
16.82

>  <EState_VSA3>
4.9

>  <EState_VSA4>
11.13

>  <EState_VSA5>
0

>  <EState_VSA6>
12.13

>  <EState_VSA7>
49.39

>  <EState_VSA8>
0

>  <EState_VSA9>
17.95

>  <EState_VSA10>
8.42

>  <VSA_EState1>
25.78

>  <VSA_EState2>
0.61

>  <VSA_EState3>
-0.56

>  <VSA_EState4>
7.78

>  <VSA_EState5>
-0.44

>  <VSA_EState6>
16.5

>  <VSA_EState7>
0

>  <VSA_EState8>
1.93

>  <VSA_EState9>
-3.44

>  <apol>
48.23

>  <bpol>
24.37

>  <nRing>
3

>  <nHRing>
0

>  <naRing>
2

>  <naHRing>
0

>  <nARing 2>
1

>  <nAHRing 2>
0

>  <nFRing>
0

>  <nFHRing>
0

>  <nFaRing>
0

>  <nFaHRing>
0

>  <nFARing 2>
0

>  <nFAHRing 2>
0

>  <nRot>
4

>  <SLogP>
2.84

>  <SMR>
91.61

>  <TopoPSA(NO)>
60.16

>  <TopoPSA>
100.63

>  <JGI1>
0.21

>  <JGI2>
0.11

>  <JGI3>
0.09

>  <JGI4>
0.06

>  <JGI5>
0.03

>  <Diameter>
11

>  <Radius>
6

>  <TMWC10>
122.65

>  <TSRW10>
77.48

>  <MW>
331.07

>  <AMW>
8.49

>  <WPath>
1019

>  <WPol>
35

>  <Zagreb1>
120

>  <Zagreb2>
146

>  <mZagreb2>
4.72

>  <yes>


>  <nAR-cont>
0.816016

>  <nHA-cont>
0.983774276

>  <MWHBN>
0.21983664

>  <MWHBN-cont>
0.995063663

>  <TPSA-cont>
0.297540113

>  <pka_cont>
0.97

>  <yes.1>


>  <BBB_SCORE>
4.372465995

>  <MMFF94 Energy>
30.927

$$$$
Compound 2287
Actelion Java MolfileCreator 2.0

  0  0  0  0  0  0              0 V3000
M  V30 BEGIN CTAB
M  V30 COUNTS 37 39 0 0 0
M  V30 BEGIN ATOM
M  V30 1 S -2.2877 -0.98 0.6532 0
M  V30 2 O -3.2794 -0.5162 1.6021 0
M  V30 3 O -2.3714 -2.2937 0.0484 0
M  V30 4 C -2.1578 0.2179 -0.647 0
M  V30 5 C -0.697 -0.8262 1.4973 0 CFG=2
M  V30 6 C -2.6834 1.4986 -0.4661 0
M  V30 7 C -1.5432 -0.1397 -1.8489 0
M  V30 8 C 0.3948 -1.7075 0.9611 0 CFG=2
M  V30 9 C -0.3033 -2.0647 2.2676 0 CFG=1
M  V30 10 C -2.5663 2.4384 -1.4914 0
M  V30 11 C -1.4293 0.8056 -2.8689 0
M  V30 12 C 1.8194 -1.2045 0.9195 0
M  V30 13 C 0.369 -1.8944 3.5746 0
M  V30 14 C -1.9254 2.1046 -2.6925 0
M  V30 15 C 2.8696 -1.948 1.4844 0
M  V30 16 C 2.1325 0.0684 0.4114 0
M  V30 17 O 0.4535 -2.8314 4.3572 0
M  V30 18 C -1.8365 3.1066 -3.8068 0
M  V30 19 C 4.1774 -1.4576 1.5152 0
M  V30 20 C 3.439 0.5634 0.4382 0
M  V30 21 C 4.4618 -0.2012 0.9902 0
M  V30 22 H -0.4645 0.144 1.911 0
M  V30 23 H -3.1892 1.7728 0.4572 0
M  V30 24 H -1.1611 -1.1461 -2.0053 0
M  V30 25 H 0.1516 -2.3651 0.1268 0
M  V30 26 H -0.9662 -2.9252 2.2342 0
M  V30 27 H -2.9848 3.4335 -1.3516 0
M  V30 28 H -0.9576 0.5217 -3.8079 0
M  V30 29 H 0.7798 -0.8987 3.8123 0
M  V30 30 H 2.671 -2.9335 1.9048 0
M  V30 31 H 1.3519 0.6873 -0.0268 0
M  V30 32 H -2.72 3.0319 -4.4482 0
M  V30 33 H -1.7707 4.1256 -3.411 0
M  V30 34 H -0.9416 2.9361 -4.4143 0
M  V30 35 H 4.9713 -2.0586 1.9517 0
M  V30 36 H 3.6566 1.5464 0.0282 0
M  V30 37 H 5.479 0.1811 1.0125 0
M  V30 END ATOM
M  V30 BEGIN BOND
M  V30 1 2 1 2
M  V30 2 2 1 3
M  V30 3 1 1 4
M  V30 4 1 1 5
M  V30 5 2 4 6
M  V30 6 1 4 7
M  V30 7 1 5 8
M  V30 8 1 5 9
M  V30 9 1 6 10
M  V30 10 2 7 11
M  V30 11 1 8 12
M  V30 12 1 9 13
M  V30 13 2 10 14
M  V30 14 2 12 15
M  V30 15 1 12 16
M  V30 16 2 13 17
M  V30 17 1 14 18
M  V30 18 1 15 19
M  V30 19 2 16 20
M  V30 20 2 19 21
M  V30 21 1 8 9
M  V30 22 1 11 14
M  V30 23 1 20 21
M  V30 24 1 5 22
M  V30 25 1 6 23
M  V30 26 1 7 24
M  V30 27 1 8 25
M  V30 28 1 9 26
M  V30 29 1 10 27
M  V30 30 1 11 28
M  V30 31 1 13 29
M  V30 32 1 15 30
M  V30 33 1 16 31
M  V30 34 1 18 32
M  V30 35 1 18 33
M  V30 36 1 18 34
M  V30 37 1 19 35
M  V30 38 1 20 36
M  V30 39 1 21 37
M  V30 END BOND
M  V30 BEGIN COLLECTION
M  V30 MDLV30/STEABS ATOMS=(3 5 8 9)
M  V30 END COLLECTION
M  V30 END CTAB
M  END
>  <Column 1>
2795

>  <level_0>
4031

>  <index>
4031

>  <Unnamed: 0>
4031

>  <NO.>
4043

>  <Name>
azelaicacid

>  <IUPAC_name>
(1s-2r-3r)-2-(4-methylphenyl)sulfonyl-3-phenylcyclopropane-1-carbaldehyde

>  <SMILES>
Cc1ccc(S(=O)(=O)[C@H]2[C@H](C=O)[C@@H]2c2ccccc2)cc1

>  <CID>
100002266

>  <logBB>


>  <BBB+/BBB->
BBB-

>  <Inchi>
InChI=1S/C17H16O3S/c1-12-7-9-14(10-8-12)21(19-20)17-15(11-18)16(17)13-5-3-2-4-6-13/h2-11-15-17H-1H3/t15--16+-17+/m1/s1

>  <threshold>
-1

>  <reference>
R16|R10|

>  <group>
B

>  <Class>
1

>  <ABC>
16.41

>  <ABCGG>
14.33

>  <nAcid>
0

>  <nBase>
0

>  <nAromAtom>
12

>  <nAromBond>
12

>  <nAtom>
37

>  <nHeavyAtom>
21

>  <nSpiro>
0

>  <nBridgehead>
0

>  <nHetero>
4

>  <nN>
0

>  <nO>
3

>  <nF>
0

>  <BalabanJ>
1.66

>  <BertzCT>
748.38

>  <nBonds>
39

>  <nBondsO>
23

>  <nBondsS>
24

>  <nBondsD>
3

>  <nBondsT>
0

>  <nBondsA>
12

>  <nBondsM>
15

>  <nBondsKS>
30

>  <nBondsKD>
9

>  <RNCG>
0.22

>  <RPCG>
0.13

>  <FCSP3>
0.24

>  <SZ>
26.33

>  <Sm>
25.01

>  <Sv>
24.67

>  <Sse>
37.17

>  <Sp>
26.57

>  <Si>
40.87

>  <MZ>
0.71

>  <Mm>
0.68

>  <Mv>
0.67

>  <Mse>
1

>  <Mp>
0.72

>  <Mi>
1.1

>  <NsCH3>
1

>  <NdCH2>
0

>  <NssCH2>
0

>  <NtCH>
0

>  <NdsCH>
1

>  <NaaCH>
9

>  <NsssCH>
3

>  <NddC>
0

>  <NtsC>
0

>  <NdssC>
0

>  <NaasC>
3

>  <NaaaC>
0

>  <NssssC>
0

>  <NsNH3>
0

>  <NsNH2>
0

>  <NssNH2>
0

>  <NdNH>
0

>  <NssNH>
0

>  <NaaNH>
0

>  <NtN>
0

>  <NsssNH>
0

>  <NdsN>
0

>  <NaaN>
0

>  <NsssN>
0

>  <NddsN>
0

>  <NaasN>
0

>  <NssssN>
0

>  <NsOH>
0

>  <NdO>
3

>  <NssO>
0

>  <NaaO>
0

>  <NsF>
0

>  <NsSiH3>
0

>  <NssSiH2>
0

>  <NsssSiH>
0

>  <NssssSi>
0

>  <NsPH2>
0

>  <NssPH>
0

>  <NsssP>
0

>  <NdsssP>
0

>  <NsssssP>
0

>  <NsSH>
0

>  <NdS>
0

>  <NssS>
0

>  <NaaS>
0

>  <NdssS>
0

>  <NddssS>
1

>  <NsCl>
0

>  <NsBr>
0

>  <NsI>
0

>  <fragCpx>
109.04

>  <fMF>
0.43

>  <nHBAcc>
3

>  <nHBDon>
0

>  <Kier1>
15.88

>  <Kier2>
6.25

>  <Lipinski>
1

>  <GhoseFilter>
1

>  <FilterItLogS>
-3.94

>  <VMcGowan>
221.67

>  <LabuteASA>
124.09

>  <PEOE_VSA1>
4.79

>  <PEOE_VSA2>
0

>  <PEOE_VSA3>
8.42

>  <PEOE_VSA4>
0

>  <PEOE_VSA5>
0

>  <PEOE_VSA6>
48.03

>  <PEOE_VSA7>
24.62

>  <PEOE_VSA8>
11.84

>  <PEOE_VSA9>
10.15

>  <PEOE_VSA10>
6.29

>  <PEOE_VSA11>
9.84

>  <PEOE_VSA12>
0

>  <PEOE_VSA13>
0

>  <SMR_VSA1>
13.21

>  <SMR_VSA2>
0

>  <SMR_VSA3>
0

>  <SMR_VSA4>
5.92

>  <SMR_VSA5>
22.99

>  <SMR_VSA6>
0

>  <SMR_VSA7>
65.72

>  <SMR_VSA8>
0

>  <SMR_VSA9>
0

>  <SlogP_VSA1>
0

>  <SlogP_VSA2>
19.95

>  <SlogP_VSA3>
14.63

>  <SlogP_VSA4>
12.84

>  <SlogP_VSA5>
17.04

>  <SlogP_VSA6>
59.49

>  <SlogP_VSA7>
0

>  <SlogP_VSA8>
0

>  <SlogP_VSA9>
0

>  <SlogP_VSA10>
0

>  <SlogP_VSA11>
0

>  <EState_VSA1>
21.01

>  <EState_VSA2>
5.92

>  <EState_VSA3>
4.9

>  <EState_VSA4>
17.41

>  <EState_VSA5>
0

>  <EState_VSA6>
24.27

>  <EState_VSA7>
37.26

>  <EState_VSA8>
0

>  <EState_VSA9>
0

>  <EState_VSA10>
13.21

>  <VSA_EState1>
25.4

>  <VSA_EState2>
11.52

>  <VSA_EState3>
-0.64

>  <VSA_EState4>
1.92

>  <VSA_EState5>
-0.67

>  <VSA_EState6>
16.17

>  <VSA_EState7>
0.77

>  <VSA_EState8>
1.91

>  <VSA_EState9>
-3.47

>  <apol>
44.36

>  <bpol>
23.58

>  <nRing>
3

>  <nHRing>
0

>  <naRing>
2

>  <naHRing>
0

>  <nARing 2>
1

>  <nAHRing 2>
0

>  <nFRing>
0

>  <nFHRing>
0

>  <nFaRing>
0

>  <nFaHRing>
0

>  <nFARing 2>
0

>  <nFAHRing 2>
0

>  <nRot>
4

>  <SLogP>
2.75

>  <SMR>
80.89

>  <TopoPSA(NO)>
51.21

>  <TopoPSA>
59.59

>  <JGI1>
0.2

>  <JGI2>
0.11

>  <JGI3>
0.08

>  <JGI4>
0.05

>  <JGI5>
0.03

>  <Diameter>
11

>  <Radius>
6

>  <TMWC10>
120.05

>  <TSRW10>
76.13

>  <MW>
300.08

>  <AMW>
8.11

>  <WPath>
913

>  <WPol>
33

>  <Zagreb1>
114

>  <Zagreb2>
139

>  <mZagreb2>
4.61

>  <yes>


>  <nAR-cont>
0.816016

>  <nHA-cont>
0.994529749

>  <MWHBN>
0.173181991

>  <MWHBN-cont>
0.978690643

>  <TPSA-cont>
0.584024797

>  <pka_cont>
0.97

>  <yes.1>


>  <BBB_SCORE>
4.931631307

>  <MMFF94 Energy>
60.468

$$$$
Compound 2288
Actelion Java MolfileCreator 2.0

  0  0  0  0  0  0              0 V3000
M  V30 BEGIN CTAB
M  V30 COUNTS 40 42 0 0 0
M  V30 BEGIN ATOM
M  V30 1 S 0.8893 0.0 2.265 0
M  V30 2 O 0.1739 -0.0676 3.5236 0
M  V30 3 O 2.2534 0.4899 2.2022 0
M  V30 4 C 0.8579 -1.6158 1.531 0
M  V30 5 C -0.135 0.9652 1.1291 0 CFG=2
M  V30 6 C -0.0971 -2.5457 1.9463 0
M  V30 7 C 1.8023 -1.947 0.5571 0
M  V30 8 C 0.621 1.5987 -0.0176 0 CFG=2
M  V30 9 C 0.1445 2.445 1.1543 0 CFG=1
M  V30 10 C -0.1211 -3.812 1.36 0
M  V30 11 C 1.7714 -3.2148 -0.025 0
M  V30 12 C -0.0023 1.6919 -1.3902 0
M  V30 13 C -1.0057 3.3921 1.0773 0
M  V30 14 C 0.8015 -4.1505 0.3605 0
M  V30 15 C 0.0522 2.8878 -2.1267 0
M  V30 16 C -0.7244 0.624 -1.9497 0
M  V30 17 N -1.6731 3.379 2.3692 0
M  V30 18 C 0.7956 -5.5259 -0.2403 0
M  V30 19 C -0.5637 3.0064 -3.3752 0
M  V30 20 C -1.3427 0.7362 -3.1981 0
M  V30 21 C -1.261 1.9284 -3.9111 0
M  V30 22 H -1.1583 0.6418 1.0067 0
M  V30 23 H -0.8175 -2.2986 2.7233 0
M  V30 24 H 2.5642 -1.2333 0.2517 0
M  V30 25 H 1.6987 1.4412 -0.0529 0
M  V30 26 H 0.916 2.8186 1.8216 0
M  V30 27 H -0.8619 -4.5373 1.6914 0
M  V30 28 H 2.5131 -3.4722 -0.7786 0
M  V30 29 H -0.6483 4.4008 0.8464 0
M  V30 30 H -1.7288 3.1042 0.3081 0
M  V30 31 H 0.5914 3.7425 -1.7226 0
M  V30 32 H -0.8032 -0.3189 -1.4124 0
M  V30 33 H -1.0336 3.7009 3.095 0
M  V30 34 H -2.4431 4.0461 2.357 0
M  V30 35 H 1.4354 -6.1928 0.3457 0
M  V30 36 H -0.2188 -5.9374 -0.2633 0
M  V30 37 H 1.1596 -5.5021 -1.2729 0
M  V30 38 H -0.4988 3.941 -3.9262 0
M  V30 39 H -1.8887 -0.1081 -3.6106 0
M  V30 40 H -1.7414 2.0174 -4.8819 0
M  V30 END ATOM
M  V30 BEGIN BOND
M  V30 1 2 1 2
M  V30 2 2 1 3
M  V30 3 1 1 4
M  V30 4 1 1 5
M  V30 5 2 4 6
M  V30 6 1 4 7
M  V30 7 1 5 8
M  V30 8 1 5 9
M  V30 9 1 6 10
M  V30 10 2 7 11
M  V30 11 1 8 12
M  V30 12 1 9 13
M  V30 13 2 10 14
M  V30 14 2 12 15
M  V30 15 1 12 16
M  V30 16 1 13 17
M  V30 17 1 14 18
M  V30 18 1 15 19
M  V30 19 2 16 20
M  V30 20 2 19 21
M  V30 21 1 8 9
M  V30 22 1 11 14
M  V30 23 1 20 21
M  V30 24 1 5 22
M  V30 25 1 6 23
M  V30 26 1 7 24
M  V30 27 1 8 25
M  V30 28 1 9 26
M  V30 29 1 10 27
M  V30 30 1 11 28
M  V30 31 1 13 29
M  V30 32 1 13 30
M  V30 33 1 15 31
M  V30 34 1 16 32
M  V30 35 1 17 33
M  V30 36 1 17 34
M  V30 37 1 18 35
M  V30 38 1 18 36
M  V30 39 1 18 37
M  V30 40 1 19 38
M  V30 41 1 20 39
M  V30 42 1 21 40
M  V30 END BOND
M  V30 BEGIN COLLECTION
M  V30 MDLV30/STEABS ATOMS=(3 5 8 9)
M  V30 END COLLECTION
M  V30 END CTAB
M  END
>  <Column 1>
2796

>  <level_0>
4032

>  <index>
4032

>  <Unnamed: 0>
4032

>  <NO.>
4044

>  <Name>
albendazole

>  <IUPAC_name>
[(1s-2r-3r)-2-(4-methylphenyl)sulfonyl-3-phenylcyclopropyl]methanamine

>  <SMILES>
Cc1ccc(S(=O)(=O)[C@H]2[C@H](CN)[C@@H]2c2ccccc2)cc1

>  <CID>
100002082

>  <logBB>


>  <BBB+/BBB->
BBB+

>  <Inchi>
InChI=1S/C17H19NO2S/c1-12-7-9-14(10-8-12)21(19-20)17-15(11-18)16(17)13-5-3-2-4-6-13/h2-10-15-17H-11-18H2-1H3/t15--16+-17+/m1/s1

>  <threshold>
-1

>  <reference>
R16|R10|

>  <group>
B

>  <Class>
1

>  <ABC>
16.41

>  <ABCGG>
14.33

>  <nAcid>
0

>  <nBase>
1

>  <nAromAtom>
12

>  <nAromBond>
12

>  <nAtom>
40

>  <nHeavyAtom>
21

>  <nSpiro>
0

>  <nBridgehead>
0

>  <nHetero>
4

>  <nN>
1

>  <nO>
2

>  <nF>
0

>  <BalabanJ>
1.66

>  <BertzCT>
723.15

>  <nBonds>
42

>  <nBondsO>
23

>  <nBondsS>
28

>  <nBondsD>
2

>  <nBondsT>
0

>  <nBondsA>
12

>  <nBondsM>
14

>  <nBondsKS>
34

>  <nBondsKD>
8

>  <RNCG>
0.23

>  <RPCG>
0.13

>  <FCSP3>
0.29

>  <SZ>
26.67

>  <Sm>
25.09

>  <Sv>
25.52

>  <Sse>
39.84

>  <Sp>
27.94

>  <Si>
44.57

>  <MZ>
0.67

>  <Mm>
0.63

>  <Mv>
0.64

>  <Mse>
1

>  <Mp>
0.7

>  <Mi>
1.11

>  <NsCH3>
1

>  <NdCH2>
0

>  <NssCH2>
1

>  <NtCH>
0

>  <NdsCH>
0

>  <NaaCH>
9

>  <NsssCH>
3

>  <NddC>
0

>  <NtsC>
0

>  <NdssC>
0

>  <NaasC>
3

>  <NaaaC>
0

>  <NssssC>
0

>  <NsNH3>
0

>  <NsNH2>
1

>  <NssNH2>
0

>  <NdNH>
0

>  <NssNH>
0

>  <NaaNH>
0

>  <NtN>
0

>  <NsssNH>
0

>  <NdsN>
0

>  <NaaN>
0

>  <NsssN>
0

>  <NddsN>
0

>  <NaasN>
0

>  <NssssN>
0

>  <NsOH>
0

>  <NdO>
2

>  <NssO>
0

>  <NaaO>
0

>  <NsF>
0

>  <NsSiH3>
0

>  <NssSiH2>
0

>  <NsssSiH>
0

>  <NssssSi>
0

>  <NsPH2>
0

>  <NssPH>
0

>  <NsssP>
0

>  <NdsssP>
0

>  <NsssssP>
0

>  <NsSH>
0

>  <NdS>
0

>  <NssS>
0

>  <NaaS>
0

>  <NdssS>
0

>  <NddssS>
1

>  <NsCl>
0

>  <NsBr>
0

>  <NsI>
0

>  <fragCpx>
109.04

>  <fMF>
0.4

>  <nHBAcc>
3

>  <nHBDon>
1

>  <Kier1>
15.88

>  <Kier2>
6.25

>  <Lipinski>
1

>  <GhoseFilter>
1

>  <FilterItLogS>
-4.04

>  <VMcGowan>
230.08

>  <LabuteASA>
125.27

>  <PEOE_VSA1>
5.73

>  <PEOE_VSA2>
0

>  <PEOE_VSA3>
8.42

>  <PEOE_VSA4>
0

>  <PEOE_VSA5>
0

>  <PEOE_VSA6>
48.03

>  <PEOE_VSA7>
37.08

>  <PEOE_VSA8>
5.92

>  <PEOE_VSA9>
10.15

>  <PEOE_VSA10>
0

>  <PEOE_VSA11>
9.84

>  <PEOE_VSA12>
0

>  <PEOE_VSA13>
0

>  <SMR_VSA1>
8.42

>  <SMR_VSA2>
0

>  <SMR_VSA3>
0

>  <SMR_VSA4>
11.65

>  <SMR_VSA5>
22.99

>  <SMR_VSA6>
6.54

>  <SMR_VSA7>
65.72

>  <SMR_VSA8>
0

>  <SMR_VSA9>
0

>  <SlogP_VSA1>
5.73

>  <SlogP_VSA2>
20.21

>  <SlogP_VSA3>
9.84

>  <SlogP_VSA4>
12.84

>  <SlogP_VSA5>
17.04

>  <SlogP_VSA6>
59.49

>  <SlogP_VSA7>
0

>  <SlogP_VSA8>
0

>  <SlogP_VSA9>
0

>  <SlogP_VSA10>
0

>  <SlogP_VSA11>
0

>  <EState_VSA1>
15.09

>  <EState_VSA2>
11.84

>  <EState_VSA3>
11.44

>  <EState_VSA4>
11.13

>  <EState_VSA5>
0

>  <EState_VSA6>
12.13

>  <EState_VSA7>
49.39

>  <EState_VSA8>
0

>  <EState_VSA9>
5.73

>  <EState_VSA10>
8.42

>  <VSA_EState1>
25.61

>  <VSA_EState2>
0.4

>  <VSA_EState3>
-0.4

>  <VSA_EState4>
7.91

>  <VSA_EState5>
0.03

>  <VSA_EState6>
16.85

>  <VSA_EState7>
0

>  <VSA_EState8>
2.35

>  <VSA_EState9>
-3.32

>  <apol>
46.66

>  <bpol>
25.15

>  <nRing>
3

>  <nHRing>
0

>  <naRing>
2

>  <naHRing>
0

>  <nARing 2>
1

>  <nAHRing 2>
0

>  <nFRing>
0

>  <nFHRing>
0

>  <nFaRing>
0

>  <nFaHRing>
0

>  <nFARing 2>
0

>  <nFAHRing 2>
0

>  <nRot>
4

>  <SLogP>
2.51

>  <SMR>
83.88

>  <TopoPSA(NO)>
60.16

>  <TopoPSA>
68.54

>  <JGI1>
0.2

>  <JGI2>
0.11

>  <JGI3>
0.08

>  <JGI4>
0.05

>  <JGI5>
0.03

>  <Diameter>
11

>  <Radius>
6

>  <TMWC10>
120.05

>  <TSRW10>
76.13

>  <MW>
301.11

>  <AMW>
7.53

>  <WPath>
913

>  <WPol>
33

>  <Zagreb1>
114

>  <Zagreb2>
139

>  <mZagreb2>
4.61

>  <yes>


>  <nAR-cont>
0.816016

>  <nHA-cont>
0.994529749

>  <MWHBN>
0.23051405

>  <MWHBN-cont>
0.986250372

>  <TPSA-cont>
0.521548239

>  <pka_cont>
0.97

>  <yes.1>


>  <BBB_SCORE>
4.818017786

>  <MMFF94 Energy>
53.568

$$$$
Compound 2289
Actelion Java MolfileCreator 2.0

  0  0  0  0  0  0              0 V3000
M  V30 BEGIN CTAB
M  V30 COUNTS 41 43 0 0 0
M  V30 BEGIN ATOM
M  V30 1 S -0.6483 0.5672 1.8648 0
M  V30 2 O 0.4236 1.4617 2.2533 0
M  V30 3 O -1.4756 -0.0878 2.8627 0
M  V30 4 C -1.7037 1.4549 0.7535 0
M  V30 5 C 0.0295 -0.7533 0.8367 0 CFG=2
M  V30 6 C -1.1246 2.2032 -0.2744 0
M  V30 7 C -3.0895 1.4035 0.9092 0
M  V30 8 C 0.8158 -1.8257 1.5758 0 CFG=2
M  V30 9 C 1.5331 -0.7825 0.7262 0 CFG=1
M  V30 10 C -1.9462 2.8993 -1.1619 0
M  V30 11 C -3.9045 2.1027 0.0174 0
M  V30 12 N 0.624 -3.2141 1.0465 0
M  V30 13 C 1.0584 -1.77 3.08 0
M  V30 14 C 2.2639 -1.1647 -0.5533 0
M  V30 15 C -3.3401 2.8632 -1.0165 0
M  V30 16 O -0.0613 -2.3437 3.7475 0
M  V30 17 C 1.6275 -1.6578 -1.7063 0
M  V30 18 C 3.6376 -0.8753 -0.6734 0
M  V30 19 C -4.2221 3.5882 -1.9911 0
M  V30 20 C 2.3303 -1.9044 -2.8911 0
M  V30 21 C 4.3477 -1.1166 -1.8537 0
M  V30 22 C 3.6923 -1.6361 -2.9635 0
M  V30 23 H -0.5983 -1.0762 0.0209 0
M  V30 24 H -0.0439 2.2542 -0.3892 0
M  V30 25 H -3.5443 0.8271 1.7119 0
M  V30 26 H 2.0667 -0.0183 1.2926 0
M  V30 27 H -1.4936 3.4771 -1.9656 0
M  V30 28 H -4.9855 2.0554 0.1357 0
M  V30 29 H 0.0877 -3.7453 1.7411 0
M  V30 30 H 1.5276 -3.6873 0.9938 0
M  V30 31 H 1.9381 -2.3746 3.3264 0
M  V30 32 H 1.2403 -0.7654 3.4715 0
M  V30 33 H -0.7906 -1.6917 3.6705 0
M  V30 34 H 0.5649 -1.8864 -1.6899 0
M  V30 35 H 4.1739 -0.4547 0.1758 0
M  V30 36 H -5.1533 3.9085 -1.5118 0
M  V30 37 H -3.727 4.488 -2.3715 0
M  V30 38 H -4.4644 2.9338 -2.8341 0
M  V30 39 H 1.8078 -2.3063 -3.7554 0
M  V30 40 H 5.4101 -0.8925 -1.9033 0
M  V30 41 H 4.2391 -1.8263 -3.8828 0
M  V30 END ATOM
M  V30 BEGIN BOND
M  V30 1 2 1 2
M  V30 2 2 1 3
M  V30 3 1 1 4
M  V30 4 1 1 5
M  V30 5 2 4 6
M  V30 6 1 4 7
M  V30 7 1 5 8
M  V30 8 1 5 9
M  V30 9 1 6 10
M  V30 10 2 7 11
M  V30 11 1 8 12
M  V30 12 1 8 13
M  V30 13 1 9 14
M  V30 14 2 10 15
M  V30 15 1 13 16
M  V30 16 2 14 17
M  V30 17 1 14 18
M  V30 18 1 15 19
M  V30 19 1 17 20
M  V30 20 2 18 21
M  V30 21 2 20 22
M  V30 22 1 8 9
M  V30 23 1 11 15
M  V30 24 1 21 22
M  V30 25 1 5 23
M  V30 26 1 6 24
M  V30 27 1 7 25
M  V30 28 1 9 26
M  V30 29 1 10 27
M  V30 30 1 11 28
M  V30 31 1 12 29
M  V30 32 1 12 30
M  V30 33 1 13 31
M  V30 34 1 13 32
M  V30 35 1 16 33
M  V30 36 1 17 34
M  V30 37 1 18 35
M  V30 38 1 19 36
M  V30 39 1 19 37
M  V30 40 1 19 38
M  V30 41 1 20 39
M  V30 42 1 21 40
M  V30 43 1 22 41
M  V30 END BOND
M  V30 BEGIN COLLECTION
M  V30 MDLV30/STEABS ATOMS=(3 5 8 9)
M  V30 END COLLECTION
M  V30 END CTAB
M  END
>  <Column 1>
2797

>  <level_0>
4033

>  <index>
4033

>  <Unnamed: 0>
4033

>  <NO.>
4045

>  <Name>
alprazolam

>  <IUPAC_name>
[(1r-2s-3r)-1-amino-2-(4-methylphenyl)sulfonyl-3-phenylcyclopropyl]methanol

>  <SMILES>
Cc1ccc(S(=O)(=O)[C@H]2[C@H](c3ccccc3)[C@@]2(N)CO)cc1

>  <CID>
100002118

>  <logBB>


>  <BBB+/BBB->
BBB+

>  <Inchi>
InChI=1S/C17H19NO3S/c1-12-7-9-14(10-8-12)22(20-21)16-15(17(16-18)11-19)13-5-3-2-4-6-13/h2-10-15-16-19H-11-18H2-1H3/t15--16--17-/m0/s1

>  <threshold>
-1

>  <reference>
R16|R10|

>  <group>
B

>  <Class>
1

>  <ABC>
17.23

>  <ABCGG>
15.17

>  <nAcid>
0

>  <nBase>
1

>  <nAromAtom>
12

>  <nAromBond>
12

>  <nAtom>
41

>  <nHeavyAtom>
22

>  <nSpiro>
0

>  <nBridgehead>
0

>  <nHetero>
5

>  <nN>
1

>  <nO>
3

>  <nF>
0

>  <BalabanJ>
1.73

>  <BertzCT>
771.31

>  <nBonds>
43

>  <nBondsO>
24

>  <nBondsS>
29

>  <nBondsD>
2

>  <nBondsT>
0

>  <nBondsA>
12

>  <nBondsM>
14

>  <nBondsKS>
35

>  <nBondsKD>
8

>  <RNCG>
0.22

>  <RPCG>
0.12

>  <FCSP3>
0.29

>  <SZ>
28

>  <Sm>
26.43

>  <Sv>
26.24

>  <Sse>
41.17

>  <Sp>
28.42

>  <Si>
45.78

>  <MZ>
0.68

>  <Mm>
0.64

>  <Mv>
0.64

>  <Mse>
1

>  <Mp>
0.69

>  <Mi>
1.12

>  <NsCH3>
1

>  <NdCH2>
0

>  <NssCH2>
1

>  <NtCH>
0

>  <NdsCH>
0

>  <NaaCH>
9

>  <NsssCH>
2

>  <NddC>
0

>  <NtsC>
0

>  <NdssC>
0

>  <NaasC>
3

>  <NaaaC>
0

>  <NssssC>
1

>  <NsNH3>
0

>  <NsNH2>
1

>  <NssNH2>
0

>  <NdNH>
0

>  <NssNH>
0

>  <NaaNH>
0

>  <NtN>
0

>  <NsssNH>
0

>  <NdsN>
0

>  <NaaN>
0

>  <NsssN>
0

>  <NddsN>
0

>  <NaasN>
0

>  <NssssN>
0

>  <NsOH>
1

>  <NdO>
2

>  <NssO>
0

>  <NaaO>
0

>  <NsF>
0

>  <NsSiH3>
0

>  <NssSiH2>
0

>  <NsssSiH>
0

>  <NssssSi>
0

>  <NsPH2>
0

>  <NssPH>
0

>  <NsssP>
0

>  <NdsssP>
0

>  <NsssssP>
0

>  <NsSH>
0

>  <NdS>
0

>  <NssS>
0

>  <NaaS>
0

>  <NdssS>
0

>  <NddssS>
1

>  <NsCl>
0

>  <NsBr>
0

>  <NsI>
0

>  <fragCpx>
114.05

>  <fMF>
0.39

>  <nHBAcc>
4

>  <nHBDon>
2

>  <Kier1>
16.84

>  <Kier2>
6.14

>  <Lipinski>
1

>  <GhoseFilter>
1

>  <FilterItLogS>
-3.67

>  <VMcGowan>
235.95

>  <LabuteASA>
130.07

>  <PEOE_VSA1>
10.84

>  <PEOE_VSA2>
0

>  <PEOE_VSA3>
8.42

>  <PEOE_VSA4>
0

>  <PEOE_VSA5>
0

>  <PEOE_VSA6>
48.03

>  <PEOE_VSA7>
24.62

>  <PEOE_VSA8>
5.92

>  <PEOE_VSA9>
22.29

>  <PEOE_VSA10>
0

>  <PEOE_VSA11>
9.84

>  <PEOE_VSA12>
0

>  <PEOE_VSA13>
0

>  <SMR_VSA1>
13.52

>  <SMR_VSA2>
0

>  <SMR_VSA3>
0

>  <SMR_VSA4>
5.73

>  <SMR_VSA5>
28.53

>  <SMR_VSA6>
6.61

>  <SMR_VSA7>
65.72

>  <SMR_VSA8>
0

>  <SMR_VSA9>
0

>  <SlogP_VSA1>
5.73

>  <SlogP_VSA2>
30.92

>  <SlogP_VSA3>
9.84

>  <SlogP_VSA4>
6.92

>  <SlogP_VSA5>
17.04

>  <SlogP_VSA6>
59.49

>  <SlogP_VSA7>
0

>  <SlogP_VSA8>
0

>  <SlogP_VSA9>
0

>  <SlogP_VSA10>
0

>  <SlogP_VSA11>
0

>  <EState_VSA1>
20.63

>  <EState_VSA2>
17.42

>  <EState_VSA3>
0

>  <EState_VSA4>
11.13

>  <EState_VSA5>
0

>  <EState_VSA6>
24.27

>  <EState_VSA7>
37.26

>  <EState_VSA8>
0

>  <EState_VSA9>
5.73

>  <EState_VSA10>
13.52

>  <VSA_EState1>
25.75

>  <VSA_EState2>
0.25

>  <VSA_EState3>
8.84

>  <VSA_EState4>
6.91

>  <VSA_EState5>
-0.38

>  <VSA_EState6>
16.01

>  <VSA_EState7>
0

>  <VSA_EState8>
1.55

>  <VSA_EState9>
-3.58

>  <apol>
47.47

>  <bpol>
25.15

>  <nRing>
3

>  <nHRing>
0

>  <naRing>
2

>  <naHRing>
0

>  <nARing 2>
1

>  <nAHRing 2>
0

>  <nFRing>
0

>  <nFHRing>
0

>  <nFaRing>
0

>  <nFaHRing>
0

>  <nFARing 2>
0

>  <nFAHRing 2>
0

>  <nRot>
4

>  <SLogP>
1.62

>  <SMR>
85.34

>  <TopoPSA(NO)>
80.39

>  <TopoPSA>
88.77

>  <JGI1>
0.25

>  <JGI2>
0.14

>  <JGI3>
0.09

>  <JGI4>
0.06

>  <JGI5>
0.03

>  <Diameter>
11

>  <Radius>
6

>  <TMWC10>
123.48

>  <TSRW10>
78.42

>  <MW>
317.11

>  <AMW>
7.73

>  <WPath>
1002

>  <WPol>
36

>  <Zagreb1>
122

>  <Zagreb2>
151

>  <mZagreb2>
4.76

>  <yes>


>  <nAR-cont>
0.816016

>  <nHA-cont>
0.983774276

>  <MWHBN>
0.33693512

>  <MWHBN-cont>
0.718212343

>  <TPSA-cont>
0.380330277

>  <pka_cont>
0.97

>  <yes.1>


>  <BBB_SCORE>
4.122769345

>  <MMFF94 Energy>
72.904

$$$$
Compound 2290
Actelion Java MolfileCreator 2.0

  0  0  0  0  0  0              0 V3000
M  V30 BEGIN CTAB
M  V30 COUNTS 47 49 0 0 0
M  V30 BEGIN ATOM
M  V30 1 Cl -2.1185 -4.0772 5.8751 0
M  V30 2 C -1.4712 -4.5616 4.3449 0
M  V30 3 C -0.7182 -3.709 3.5233 0
M  V30 4 C -1.7743 -5.8626 3.9195 0
M  V30 5 C -0.3475 -2.3521 3.8958 0
M  V30 6 C -0.2984 -4.1837 2.266 0
M  V30 7 C -1.3387 -6.3215 2.6763 0
M  V30 8 N 0.1246 -1.995 5.1001 0
M  V30 9 N -0.3889 -1.3186 2.9829 0
M  V30 10 C -0.6035 -5.4805 1.8471 0
M  V30 11 O 0.39 -0.6355 4.9651 0
M  V30 12 C 0.0686 -0.3014 3.6829 0
M  V30 13 C 0.2542 1.1301 3.3157 0
M  V30 14 N 0.0975 1.3328 1.8724 0
M  V30 15 C 1.2374 1.2138 1.0822 0
M  V30 16 C -1.2644 1.5305 1.3937 0
M  V30 17 O 2.3373 0.9957 1.6013 0
M  V30 18 C 1.1031 1.3498 -0.4441 0 CFG=1
M  V30 19 S 0.9851 3.1475 -0.8466 0
M  V30 20 C 2.3174 0.7392 -1.1452 0
M  V30 21 C 0.5374 3.0729 -2.5704 0
M  V30 22 C 1.3824 3.6556 -3.5179 0
M  V30 23 C -0.6495 2.4697 -2.9936 0
M  V30 24 C 1.0556 3.6177 -4.8762 0
M  V30 25 C -0.9776 2.4318 -4.3519 0
M  V30 26 C -0.1321 3.0141 -5.3029 0
M  V30 27 C -0.4675 2.9452 -6.7633 0
M  V30 28 H -2.3591 -6.5239 4.5551 0
M  V30 29 H 0.2824 -3.5388 1.6073 0
M  V30 30 H -1.5782 -7.3322 2.3549 0
M  V30 31 H -0.2641 -5.8315 0.8756 0
M  V30 32 H 1.2476 1.4619 3.6372 0
M  V30 33 H -0.4804 1.7515 3.8399 0
M  V30 34 H -1.8575 0.6422 1.6285 0
M  V30 35 H -1.693 2.3956 1.909 0
M  V30 36 H -1.324 1.7079 0.3219 0
M  V30 37 H 0.211 0.8106 -0.774 0
M  V30 38 H 2.2046 0.7499 -2.2341 0
M  V30 39 H 3.2473 1.2606 -0.89 0
M  V30 40 H 2.4419 -0.3074 -0.844 0
M  V30 41 H 2.3068 4.1385 -3.2089 0
M  V30 42 H -1.3368 2.0306 -2.2764 0
M  V30 43 H 1.7348 4.0669 -5.5975 0
M  V30 44 H -1.9024 1.9505 -4.6624 0
M  V30 45 H -1.552 2.9449 -6.9154 0
M  V30 46 H -0.0653 3.8122 -7.2978 0
M  V30 47 H -0.0484 2.0339 -7.2005 0
M  V30 END ATOM
M  V30 BEGIN BOND
M  V30 1 1 1 2
M  V30 2 2 2 3
M  V30 3 1 2 4
M  V30 4 1 3 5
M  V30 5 1 3 6
M  V30 6 2 4 7
M  V30 7 2 5 8
M  V30 8 1 5 9
M  V30 9 2 6 10
M  V30 10 1 8 11
M  V30 11 2 9 12
M  V30 12 1 12 13
M  V30 13 1 13 14
M  V30 14 1 14 15
M  V30 15 1 14 16
M  V30 16 2 15 17
M  V30 17 1 15 18
M  V30 18 1 18 19
M  V30 19 1 18 20
M  V30 20 1 19 21
M  V30 21 2 21 22
M  V30 22 1 21 23
M  V30 23 1 22 24
M  V30 24 2 23 25
M  V30 25 2 24 26
M  V30 26 1 26 27
M  V30 27 1 7 10
M  V30 28 1 11 12
M  V30 29 1 25 26
M  V30 30 1 4 28
M  V30 31 1 6 29
M  V30 32 1 7 30
M  V30 33 1 10 31
M  V30 34 1 13 32
M  V30 35 1 13 33
M  V30 36 1 16 34
M  V30 37 1 16 35
M  V30 38 1 16 36
M  V30 39 1 18 37
M  V30 40 1 20 38
M  V30 41 1 20 39
M  V30 42 1 20 40
M  V30 43 1 22 41
M  V30 44 1 23 42
M  V30 45 1 24 43
M  V30 46 1 25 44
M  V30 47 1 27 45
M  V30 48 1 27 46
M  V30 49 1 27 47
M  V30 END BOND
M  V30 BEGIN COLLECTION
M  V30 MDLV30/STEABS ATOMS=(1 18)
M  V30 END COLLECTION
M  V30 END CTAB
M  END
>  <Column 1>
2799

>  <level_0>
4035

>  <index>
4035

>  <Unnamed: 0>
4035

>  <NO.>
4047

>  <Name>
delavirdine

>  <IUPAC_name>
(2s)-n-[[3-(2-chlorophenyl)-1-2-4-oxadiazol-5-yl]methyl]-n-methyl-2-(4-methylphenyl)sulfanylpropanamide

>  <SMILES>
Cc1ccc(S[C@@H](C)C(=O)N(C)Cc2nc(-c3ccccc3Cl)no2)cc1

>  <CID>
100005625

>  <logBB>


>  <BBB+/BBB->
BBB-

>  <Inchi>
InChI=1S/C20H20ClN3O2S/c1-13-8-10-15(11-9-13)27-14(2)20(25)24(3)12-18-22-19(23-26-18)16-6-4-5-7-17(16)21/h4-11-14H-12H2-1-3H3/t14-/m0/s1

>  <threshold>
-1

>  <reference>
R16|R10|

>  <group>
B

>  <Class>
1

>  <ABC>
20.89

>  <ABCGG>
16.78

>  <nAcid>
0

>  <nBase>
0

>  <nAromAtom>
17

>  <nAromBond>
17

>  <nAtom>
47

>  <nHeavyAtom>
27

>  <nSpiro>
0

>  <nBridgehead>
0

>  <nHetero>
7

>  <nN>
3

>  <nO>
2

>  <nF>
0

>  <BalabanJ>
1.4

>  <BertzCT>
926.99

>  <nBonds>
49

>  <nBondsO>
29

>  <nBondsS>
31

>  <nBondsD>
1

>  <nBondsT>
0

>  <nBondsA>
17

>  <nBondsM>
18

>  <nBondsKS>
40

>  <nBondsKD>
9

>  <RNCG>
0.17

>  <RPCG>
0.13

>  <FCSP3>
0.25

>  <SZ>
35

>  <Sm>
33.46

>  <Sv>
31.4

>  <Sse>
47.37

>  <Sp>
33.96

>  <Si>
52.52

>  <MZ>
0.74

>  <Mm>
0.71

>  <Mv>
0.67

>  <Mse>
1.01

>  <Mp>
0.72

>  <Mi>
1.12

>  <NsCH3>
3

>  <NdCH2>
0

>  <NssCH2>
1

>  <NtCH>
0

>  <NdsCH>
0

>  <NaaCH>
8

>  <NsssCH>
1

>  <NddC>
0

>  <NtsC>
0

>  <NdssC>
1

>  <NaasC>
6

>  <NaaaC>
0

>  <NssssC>
0

>  <NsNH3>
0

>  <NsNH2>
0

>  <NssNH2>
0

>  <NdNH>
0

>  <NssNH>
0

>  <NaaNH>
0

>  <NtN>
0

>  <NsssNH>
0

>  <NdsN>
0

>  <NaaN>
2

>  <NsssN>
1

>  <NddsN>
0

>  <NaasN>
0

>  <NssssN>
0

>  <NsOH>
0

>  <NdO>
1

>  <NssO>
0

>  <NaaO>
1

>  <NsF>
0

>  <NsSiH3>
0

>  <NssSiH2>
0

>  <NsssSiH>
0

>  <NssssSi>
0

>  <NsPH2>
0

>  <NssPH>
0

>  <NsssP>
0

>  <NdsssP>
0

>  <NsssssP>
0

>  <NsSH>
0

>  <NdS>
0

>  <NssS>
1

>  <NaaS>
0

>  <NdssS>
0

>  <NddssS>
0

>  <NsCl>
1

>  <NsBr>
0

>  <NsI>
0

>  <fragCpx>
139.07

>  <fMF>
0.47

>  <nHBAcc>
5

>  <nHBDon>
0

>  <Kier1>
21.7

>  <Kier2>
10.16

>  <Lipinski>
1

>  <GhoseFilter>
1

>  <FilterItLogS>
-6.24

>  <VMcGowan>
291.65

>  <LabuteASA>
167.27

>  <PEOE_VSA1>
9.42

>  <PEOE_VSA2>
4.79

>  <PEOE_VSA3>
0

>  <PEOE_VSA4>
4.98

>  <PEOE_VSA5>
11.76

>  <PEOE_VSA6>
46.59

>  <PEOE_VSA7>
38.11

>  <PEOE_VSA8>
17.51

>  <PEOE_VSA9>
16.82

>  <PEOE_VSA10>
0

>  <PEOE_VSA11>
0

>  <PEOE_VSA12>
17.62

>  <PEOE_VSA13>
0

>  <SMR_VSA1>
9.32

>  <SMR_VSA2>
0

>  <SMR_VSA3>
15.04

>  <SMR_VSA4>
0

>  <SMR_VSA5>
30.54

>  <SMR_VSA6>
7.05

>  <SMR_VSA7>
65.01

>  <SMR_VSA8>
0

>  <SMR_VSA9>
11.39

>  <SlogP_VSA1>
0

>  <SlogP_VSA2>
33.25

>  <SlogP_VSA3>
11.34

>  <SlogP_VSA4>
6.92

>  <SlogP_VSA5>
18.38

>  <SlogP_VSA6>
57.95

>  <SlogP_VSA7>
5.02

>  <SlogP_VSA8>
11.39

>  <SlogP_VSA9>
0

>  <SlogP_VSA10>
0

>  <SlogP_VSA11>
0

>  <EState_VSA1>
0

>  <EState_VSA2>
17.7

>  <EState_VSA3>
22.3

>  <EState_VSA4>
4.9

>  <EState_VSA5>
17.33

>  <EState_VSA6>
18.01

>  <EState_VSA7>
56.31

>  <EState_VSA8>
10.14

>  <EState_VSA9>
16.12

>  <EState_VSA10>
4.79

>  <VSA_EState1>
5.29

>  <VSA_EState2>
19.65

>  <VSA_EState3>
4.3

>  <VSA_EState4>
1.9

>  <VSA_EState5>
0.78

>  <VSA_EState6>
15.42

>  <VSA_EState7>
0

>  <VSA_EState8>
4.18

>  <VSA_EState9>
1.73

>  <apol>
56.72

>  <bpol>
28.49

>  <nRing>
3

>  <nHRing>
1

>  <naRing>
3

>  <naHRing>
1

>  <nARing 2>
0

>  <nAHRing 2>
0

>  <nFRing>
0

>  <nFHRing>
0

>  <nFaRing>
0

>  <nFaHRing>
0

>  <nFARing 2>
0

>  <nFAHRing 2>
0

>  <nRot>
6

>  <SLogP>
4.84

>  <SMR>
107.72

>  <TopoPSA(NO)>
59.23

>  <TopoPSA>
84.53

>  <JGI1>
0.21

>  <JGI2>
0.08

>  <JGI3>
0.05

>  <JGI4>
0.04

>  <JGI5>
0.03

>  <Diameter>
16

>  <Radius>
8

>  <TMWC10>
131

>  <TSRW10>
75.41

>  <MW>
401.1

>  <AMW>
8.53

>  <WPath>
2143

>  <WPol>
39

>  <Zagreb1>
138

>  <Zagreb2>
159

>  <mZagreb2>
5.94

>  <yes>


>  <nAR-cont>
0.336376

>  <nHA-cont>
0.860070871

>  <MWHBN>
0.249656957

>  <MWHBN-cont>
0.960351832

>  <TPSA-cont>
0.40992811

>  <pka_cont>
0.97

>  <yes.1>


>  <BBB_SCORE>
3.941830839

>  <MMFF94 Energy>
74.762

$$$$
Compound 2291
Actelion Java MolfileCreator 2.0

  0  0  0  0  0  0              0 V3000
M  V30 BEGIN CTAB
M  V30 COUNTS 44 46 0 0 0
M  V30 BEGIN ATOM
M  V30 1 Cl -2.6951 6.7071 -1.061 0
M  V30 2 C -1.6287 6.1456 0.1809 0
M  V30 3 C -0.732 5.0801 0.0047 0
M  V30 4 C -1.7285 6.7842 1.4254 0
M  V30 5 C -0.555 4.3731 -1.2559 0
M  V30 6 C 0.039 4.6627 1.107 0
M  V30 7 C -0.9469 6.3661 2.5022 0
M  V30 8 N -0.5005 4.9621 -2.4611 0
M  V30 9 N -0.3419 3.0089 -1.2931 0
M  V30 10 C -0.0653 5.3021 2.3445 0
M  V30 11 O -0.2784 3.9073 -3.3416 0
M  V30 12 C -0.1957 2.7814 -2.5813 0
M  V30 13 C 0.0486 1.509 -3.3003 0
M  V30 14 N -0.0178 0.4021 -2.3699 0
M  V30 15 C 0.1561 -0.8951 -2.7838 0
M  V30 16 O 0.3435 -1.182 -3.9648 0
M  V30 17 C 0.0369 -1.9668 -1.698 0 CFG=1
M  V30 18 S 1.1719 -1.5559 -0.3065 0
M  V30 19 C -1.4064 -2.0677 -1.2171 0
M  V30 20 C 1.1853 -3.1108 0.5644 0
M  V30 21 C 0.6879 -3.1705 1.8683 0
M  V30 22 C 1.7073 -4.2662 -0.0221 0
M  V30 23 C 0.6925 -4.3782 2.5717 0
M  V30 24 C 1.7127 -5.4741 0.6808 0
M  V30 25 C 1.2139 -5.5374 1.9868 0
M  V30 26 C 1.1903 -6.8406 2.7294 0
M  V30 27 H -2.4246 7.6088 1.5631 0
M  V30 28 H 0.7373 3.8332 1.0017 0
M  V30 29 H -1.0319 6.8672 3.4636 0
M  V30 30 H 0.5431 4.9683 3.1817 0
M  V30 31 H 1.0405 1.512 -3.7636 0
M  V30 32 H -0.7019 1.3518 -4.0816 0
M  V30 33 H -0.0903 0.6081 -1.3772 0
M  V30 34 H 0.348 -2.9147 -2.1496 0
M  V30 35 H -1.5426 -2.9038 -0.5236 0
M  V30 36 H -1.7424 -1.1507 -0.7198 0
M  V30 37 H -2.0786 -2.2354 -2.0664 0
M  V30 38 H 0.2873 -2.2806 2.348 0
M  V30 39 H 2.122 -4.24 -1.0267 0
M  V30 40 H 0.2897 -4.4058 3.5818 0
M  V30 41 H 2.1161 -6.3644 0.2032 0
M  V30 42 H 2.0278 -7.4778 2.4268 0
M  V30 43 H 1.2804 -6.6771 3.8084 0
M  V30 44 H 0.253 -7.3684 2.5284 0
M  V30 END ATOM
M  V30 BEGIN BOND
M  V30 1 1 1 2
M  V30 2 2 2 3
M  V30 3 1 2 4
M  V30 4 1 3 5
M  V30 5 1 3 6
M  V30 6 2 4 7
M  V30 7 2 5 8
M  V30 8 1 5 9
M  V30 9 2 6 10
M  V30 10 1 8 11
M  V30 11 2 9 12
M  V30 12 1 12 13
M  V30 13 1 13 14
M  V30 14 1 14 15
M  V30 15 2 15 16
M  V30 16 1 15 17
M  V30 17 1 17 18
M  V30 18 1 17 19
M  V30 19 1 18 20
M  V30 20 2 20 21
M  V30 21 1 20 22
M  V30 22 1 21 23
M  V30 23 2 22 24
M  V30 24 2 23 25
M  V30 25 1 25 26
M  V30 26 1 7 10
M  V30 27 1 11 12
M  V30 28 1 24 25
M  V30 29 1 4 27
M  V30 30 1 6 28
M  V30 31 1 7 29
M  V30 32 1 10 30
M  V30 33 1 13 31
M  V30 34 1 13 32
M  V30 35 1 14 33
M  V30 36 1 17 34
M  V30 37 1 19 35
M  V30 38 1 19 36
M  V30 39 1 19 37
M  V30 40 1 21 38
M  V30 41 1 22 39
M  V30 42 1 23 40
M  V30 43 1 24 41
M  V30 44 1 26 42
M  V30 45 1 26 43
M  V30 46 1 26 44
M  V30 END BOND
M  V30 BEGIN COLLECTION
M  V30 MDLV30/STEABS ATOMS=(1 17)
M  V30 END COLLECTION
M  V30 END CTAB
M  END
>  <Column 1>
2800

>  <level_0>
4036

>  <index>
4036

>  <Unnamed: 0>
4036

>  <NO.>
4048

>  <Name>
trifluoperazine

>  <IUPAC_name>
(2s)-n-[[3-(2-chlorophenyl)-1-2-4-oxadiazol-5-yl]methyl]-2-(4-methylphenyl)sulfanylpropanamide

>  <SMILES>
Cc1ccc(S[C@@H](C)C(=O)NCc2nc(-c3ccccc3Cl)no2)cc1

>  <CID>
100005566

>  <logBB>


>  <BBB+/BBB->
BBB+

>  <Inchi>
InChI=1S/C19H18ClN3O2S/c1-12-7-9-14(10-8-12)26-13(2)19(24)21-11-17-22-18(23-25-17)15-5-3-4-6-16(15)20/h3-10-13H-11H2-1-2H3-(H-21-24)/t13-/m0/s1

>  <threshold>
-1

>  <reference>
R16|R10|

>  <group>
B

>  <Class>
1

>  <ABC>
20.12

>  <ABCGG>
15.85

>  <nAcid>
0

>  <nBase>
0

>  <nAromAtom>
17

>  <nAromBond>
17

>  <nAtom>
44

>  <nHeavyAtom>
26

>  <nSpiro>
0

>  <nBridgehead>
0

>  <nHetero>
7

>  <nN>
3

>  <nO>
2

>  <nF>
0

>  <BalabanJ>
1.34

>  <BertzCT>
895.81

>  <nBonds>
46

>  <nBondsO>
28

>  <nBondsS>
28

>  <nBondsD>
1

>  <nBondsT>
0

>  <nBondsA>
17

>  <nBondsM>
18

>  <nBondsKS>
37

>  <nBondsKD>
9

>  <RNCG>
0.18

>  <RPCG>
0.13

>  <FCSP3>
0.21

>  <SZ>
33.67

>  <Sm>
32.29

>  <Sv>
29.86

>  <Sse>
44.48

>  <Sp>
32.17

>  <Si>
49.1

>  <MZ>
0.77

>  <Mm>
0.73

>  <Mv>
0.68

>  <Mse>
1.01

>  <Mp>
0.73

>  <Mi>
1.12

>  <NsCH3>
2

>  <NdCH2>
0

>  <NssCH2>
1

>  <NtCH>
0

>  <NdsCH>
0

>  <NaaCH>
8

>  <NsssCH>
1

>  <NddC>
0

>  <NtsC>
0

>  <NdssC>
1

>  <NaasC>
6

>  <NaaaC>
0

>  <NssssC>
0

>  <NsNH3>
0

>  <NsNH2>
0

>  <NssNH2>
0

>  <NdNH>
0

>  <NssNH>
1

>  <NaaNH>
0

>  <NtN>
0

>  <NsssNH>
0

>  <NdsN>
0

>  <NaaN>
2

>  <NsssN>
0

>  <NddsN>
0

>  <NaasN>
0

>  <NssssN>
0

>  <NsOH>
0

>  <NdO>
1

>  <NssO>
0

>  <NaaO>
1

>  <NsF>
0

>  <NsSiH3>
0

>  <NssSiH2>
0

>  <NsssSiH>
0

>  <NssssSi>
0

>  <NsPH2>
0

>  <NssPH>
0

>  <NsssP>
0

>  <NdsssP>
0

>  <NsssssP>
0

>  <NsSH>
0

>  <NdS>
0

>  <NssS>
1

>  <NaaS>
0

>  <NdssS>
0

>  <NddssS>
0

>  <NsCl>
1

>  <NsBr>
0

>  <NsI>
0

>  <fragCpx>
134.07

>  <fMF>
0.5

>  <nHBAcc>
5

>  <nHBDon>
1

>  <Kier1>
20.73

>  <Kier2>
9.97

>  <Lipinski>
1

>  <GhoseFilter>
1

>  <FilterItLogS>
-6.58

>  <VMcGowan>
277.56

>  <LabuteASA>
160.69

>  <PEOE_VSA1>
9.84

>  <PEOE_VSA2>
4.79

>  <PEOE_VSA3>
0

>  <PEOE_VSA4>
4.98

>  <PEOE_VSA5>
11.76

>  <PEOE_VSA6>
46.59

>  <PEOE_VSA7>
38.11

>  <PEOE_VSA8>
10.46

>  <PEOE_VSA9>
16.82

>  <PEOE_VSA10>
0

>  <PEOE_VSA11>
0

>  <PEOE_VSA12>
17.62

>  <PEOE_VSA13>
0

>  <SMR_VSA1>
9.32

>  <SMR_VSA2>
0

>  <SMR_VSA3>
15.46

>  <SMR_VSA4>
0

>  <SMR_VSA5>
30.54

>  <SMR_VSA6>
0

>  <SMR_VSA7>
65.01

>  <SMR_VSA8>
0

>  <SMR_VSA9>
11.39

>  <SlogP_VSA1>
5.32

>  <SlogP_VSA2>
21.3

>  <SlogP_VSA3>
11.34

>  <SlogP_VSA4>
6.92

>  <SlogP_VSA5>
18.38

>  <SlogP_VSA6>
57.95

>  <SlogP_VSA7>
5.02

>  <SlogP_VSA8>
11.39

>  <SlogP_VSA9>
0

>  <SlogP_VSA10>
0

>  <SlogP_VSA11>
0

>  <EState_VSA1>
0

>  <EState_VSA2>
17.7

>  <EState_VSA3>
22.3

>  <EState_VSA4>
4.9

>  <EState_VSA5>
17.33

>  <EState_VSA6>
6.07

>  <EState_VSA7>
56.31

>  <EState_VSA8>
15.46

>  <EState_VSA9>
16.12

>  <EState_VSA10>
4.79

>  <VSA_EState1>
5.19

>  <VSA_EState2>
17.61

>  <VSA_EState3>
7.06

>  <VSA_EState4>
1.89

>  <VSA_EState5>
0.65

>  <VSA_EState6>
15.34

>  <VSA_EState7>
0

>  <VSA_EState8>
4.07

>  <VSA_EState9>
0

>  <apol>
53.72

>  <bpol>
25.34

>  <nRing>
3

>  <nHRing>
1

>  <naRing>
3

>  <naHRing>
1

>  <nARing 2>
0

>  <nAHRing 2>
0

>  <nFRing>
0

>  <nFHRing>
0

>  <nFaRing>
0

>  <nFaHRing>
0

>  <nFARing 2>
0

>  <nFAHRing 2>
0

>  <nRot>
6

>  <SLogP>
4.5

>  <SMR>
103.09

>  <TopoPSA(NO)>
68.02

>  <TopoPSA>
93.32

>  <JGI1>
0.2

>  <JGI2>
0.08

>  <JGI3>
0.04

>  <JGI4>
0.04

>  <JGI5>
0.03

>  <Diameter>
16

>  <Radius>
8

>  <TMWC10>
128.33

>  <TSRW10>
74.11

>  <MW>
387.08

>  <AMW>
8.8

>  <WPath>
2002

>  <WPol>
36

>  <Zagreb1>
132

>  <Zagreb2>
151

>  <mZagreb2>
5.75

>  <yes>


>  <nAR-cont>
0.336376

>  <nHA-cont>
0.892715677

>  <MWHBN>
0.304965621

>  <MWHBN-cont>
0.825653503

>  <TPSA-cont>
0.348568452

>  <pka_cont>
0.97

>  <yes.1>


>  <BBB_SCORE>
3.649708835

>  <MMFF94 Energy>
60.225

$$$$
Compound 2292
Actelion Java MolfileCreator 2.0

  0  0  0  0  0  0              0 V3000
M  V30 BEGIN CTAB
M  V30 COUNTS 44 46 0 0 0
M  V30 BEGIN ATOM
M  V30 1 Br 4.4244 4.2602 -1.4731 0
M  V30 2 C 2.6039 3.8797 -1.1325 0
M  V30 3 C 2.2641 2.9872 -0.1155 0
M  V30 4 C 1.6166 4.4872 -1.9056 0
M  V30 5 C 0.9176 2.6855 0.1351 0
M  V30 6 C 0.2753 4.1987 -1.6612 0
M  V30 7 C 0.5427 1.7332 1.1749 0
M  V30 8 C -0.0715 3.302 -0.6475 0
M  V30 9 N 1.4188 1.1528 2.0122 0
M  V30 10 N -0.766 1.348 1.3805 0
M  V30 11 O 0.629 0.3055 2.7856 0
M  V30 12 C -0.651 0.4682 2.351 0
M  V30 13 C -1.6958 -0.3621 2.9987 0
M  V30 14 N -2.2471 -1.274 2.0176 0
M  V30 15 C -1.7594 -2.5494 1.8617 0
M  V30 16 O -0.9305 -3.0362 2.6284 0
M  V30 17 C -2.3577 -3.3614 0.7137 0 CFG=2
M  V30 18 S -2.5072 -2.371 -0.8292 0
M  V30 19 C -3.7425 -3.8624 1.1107 0
M  V30 20 C -0.8399 -1.7992 -1.137 0
M  V30 21 C -0.7007 -0.6416 -1.9133 0
M  V30 22 C 0.3151 -2.4373 -0.6802 0
M  V30 23 C 0.5624 -0.1206 -2.2096 0
M  V30 24 C 1.58 -1.9107 -0.9662 0
M  V30 25 C 1.7139 -0.7477 -1.7305 0
M  V30 26 C 3.0764 -0.1949 -2.0244 0
M  V30 27 H 3.0482 2.518 0.4749 0
M  V30 28 H 1.8811 5.1834 -2.6972 0
M  V30 29 H -0.5012 4.6686 -2.2597 0
M  V30 30 H -1.1235 3.0813 -0.4738 0
M  V30 31 H -2.5137 0.2748 3.3484 0
M  V30 32 H -1.2945 -0.9151 3.8535 0
M  V30 33 H -2.8319 -0.8912 1.2823 0
M  V30 34 H -1.7123 -4.2232 0.5169 0
M  V30 35 H -4.1733 -4.5033 0.3338 0
M  V30 36 H -4.4398 -3.0396 1.3068 0
M  V30 37 H -3.6827 -4.4553 2.0306 0
M  V30 38 H -1.5785 -0.1255 -2.296 0
M  V30 39 H 0.2722 -3.3518 -0.0974 0
M  V30 40 H 0.6357 0.7834 -2.8097 0
M  V30 41 H 2.4638 -2.4185 -0.5854 0
M  V30 42 H 3.6671 -0.9266 -2.5843 0
M  V30 43 H 3.0184 0.7193 -2.624 0
M  V30 44 H 3.5944 0.0478 -1.0911 0
M  V30 END ATOM
M  V30 BEGIN BOND
M  V30 1 1 1 2
M  V30 2 2 2 3
M  V30 3 1 2 4
M  V30 4 1 3 5
M  V30 5 2 4 6
M  V30 6 1 5 7
M  V30 7 2 5 8
M  V30 8 2 7 9
M  V30 9 1 7 10
M  V30 10 1 9 11
M  V30 11 2 10 12
M  V30 12 1 12 13
M  V30 13 1 13 14
M  V30 14 1 14 15
M  V30 15 2 15 16
M  V30 16 1 15 17
M  V30 17 1 17 18
M  V30 18 1 17 19
M  V30 19 1 18 20
M  V30 20 2 20 21
M  V30 21 1 20 22
M  V30 22 1 21 23
M  V30 23 2 22 24
M  V30 24 2 23 25
M  V30 25 1 25 26
M  V30 26 1 6 8
M  V30 27 1 11 12
M  V30 28 1 24 25
M  V30 29 1 3 27
M  V30 30 1 4 28
M  V30 31 1 6 29
M  V30 32 1 8 30
M  V30 33 1 13 31
M  V30 34 1 13 32
M  V30 35 1 14 33
M  V30 36 1 17 34
M  V30 37 1 19 35
M  V30 38 1 19 36
M  V30 39 1 19 37
M  V30 40 1 21 38
M  V30 41 1 22 39
M  V30 42 1 23 40
M  V30 43 1 24 41
M  V30 44 1 26 42
M  V30 45 1 26 43
M  V30 46 1 26 44
M  V30 END BOND
M  V30 BEGIN COLLECTION
M  V30 MDLV30/STEABS ATOMS=(1 17)
M  V30 END COLLECTION
M  V30 END CTAB
M  END
>  <Column 1>
2803

>  <level_0>
4039

>  <index>
4039

>  <Unnamed: 0>
4039

>  <NO.>
4051

>  <Name>
trimetrexate

>  <IUPAC_name>
(2r)-n-[[3-(3-bromophenyl)-1-2-4-oxadiazol-5-yl]methyl]-2-(4-methylphenyl)sulfanylpropanamide

>  <SMILES>
Cc1ccc(S[C@H](C)C(=O)NCc2nc(-c3cccc(Br)c3)no2)cc1

>  <CID>
100005582

>  <logBB>


>  <BBB+/BBB->
BBB-

>  <Inchi>
InChI=1S/C19H18BrN3O2S/c1-12-6-8-16(9-7-12)26-13(2)19(24)21-11-17-22-18(23-25-17)14-4-3-5-15(20)10-14/h3-10-13H-11H2-1-2H3-(H-21-24)/t13-/m1/s1

>  <threshold>
-1

>  <reference>
R16|R10|

>  <group>
B

>  <Class>
-1

>  <ABC>
20.16

>  <ABCGG>
15.71

>  <nAcid>
0

>  <nBase>
0

>  <nAromAtom>
17

>  <nAromBond>
17

>  <nAtom>
44

>  <nHeavyAtom>
26

>  <nSpiro>
0

>  <nBridgehead>
0

>  <nHetero>
7

>  <nN>
3

>  <nO>
2

>  <nF>
0

>  <BalabanJ>
1.33

>  <BertzCT>
895.81

>  <nBonds>
46

>  <nBondsO>
28

>  <nBondsS>
28

>  <nBondsD>
1

>  <nBondsT>
0

>  <nBondsA>
17

>  <nBondsM>
18

>  <nBondsKS>
37

>  <nBondsKD>
9

>  <RNCG>
0.18

>  <RPCG>
0.13

>  <FCSP3>
0.21

>  <SZ>
36.67

>  <Sm>
36

>  <Sv>
30.06

>  <Sse>
44.39

>  <Sp>
32.69

>  <Si>
49

>  <MZ>
0.83

>  <Mm>
0.82

>  <Mv>
0.68

>  <Mse>
1.01

>  <Mp>
0.74

>  <Mi>
1.11

>  <NsCH3>
2

>  <NdCH2>
0

>  <NssCH2>
1

>  <NtCH>
0

>  <NdsCH>
0

>  <NaaCH>
8

>  <NsssCH>
1

>  <NddC>
0

>  <NtsC>
0

>  <NdssC>
1

>  <NaasC>
6

>  <NaaaC>
0

>  <NssssC>
0

>  <NsNH3>
0

>  <NsNH2>
0

>  <NssNH2>
0

>  <NdNH>
0

>  <NssNH>
1

>  <NaaNH>
0

>  <NtN>
0

>  <NsssNH>
0

>  <NdsN>
0

>  <NaaN>
2

>  <NsssN>
0

>  <NddsN>
0

>  <NaasN>
0

>  <NssssN>
0

>  <NsOH>
0

>  <NdO>
1

>  <NssO>
0

>  <NaaO>
1

>  <NsF>
0

>  <NsSiH3>
0

>  <NssSiH2>
0

>  <NsssSiH>
0

>  <NssssSi>
0

>  <NsPH2>
0

>  <NssPH>
0

>  <NsssP>
0

>  <NdsssP>
0

>  <NsssssP>
0

>  <NsSH>
0

>  <NdS>
0

>  <NssS>
1

>  <NaaS>
0

>  <NdssS>
0

>  <NddssS>
0

>  <NsCl>
0

>  <NsBr>
1

>  <NsI>
0

>  <fragCpx>
134.07

>  <fMF>
0.5

>  <nHBAcc>
5

>  <nHBDon>
1

>  <Kier1>
20.73

>  <Kier2>
9.97

>  <Lipinski>
1

>  <GhoseFilter>
1

>  <FilterItLogS>
-6.77

>  <VMcGowan>
282.82

>  <LabuteASA>
164.26

>  <PEOE_VSA1>
9.84

>  <PEOE_VSA2>
4.79

>  <PEOE_VSA3>
0

>  <PEOE_VSA4>
4.98

>  <PEOE_VSA5>
11.76

>  <PEOE_VSA6>
50.92

>  <PEOE_VSA7>
38.11

>  <PEOE_VSA8>
14.93

>  <PEOE_VSA9>
11.79

>  <PEOE_VSA10>
0

>  <PEOE_VSA11>
0

>  <PEOE_VSA12>
17.62

>  <PEOE_VSA13>
0

>  <SMR_VSA1>
9.32

>  <SMR_VSA2>
0

>  <SMR_VSA3>
15.46

>  <SMR_VSA4>
0

>  <SMR_VSA5>
30.54

>  <SMR_VSA6>
0

>  <SMR_VSA7>
64.46

>  <SMR_VSA8>
0

>  <SMR_VSA9>
11.39

>  <SlogP_VSA1>
5.32

>  <SlogP_VSA2>
21.3

>  <SlogP_VSA3>
11.34

>  <SlogP_VSA4>
6.92

>  <SlogP_VSA5>
18.38

>  <SlogP_VSA6>
62.42

>  <SlogP_VSA7>
0

>  <SlogP_VSA8>
11.39

>  <SlogP_VSA9>
0

>  <SlogP_VSA10>
0

>  <SlogP_VSA11>
0

>  <EState_VSA1>
0

>  <EState_VSA2>
17.7

>  <EState_VSA3>
11.72

>  <EState_VSA4>
14.93

>  <EState_VSA5>
17.33

>  <EState_VSA6>
0

>  <EState_VSA7>
62.38

>  <EState_VSA8>
31.39

>  <EState_VSA9>
4.52

>  <EState_VSA10>
4.79

>  <VSA_EState1>
6.16

>  <VSA_EState2>
17.67

>  <VSA_EState3>
6.59

>  <VSA_EState4>
2.05

>  <VSA_EState5>
0.8

>  <VSA_EState6>
15.76

>  <VSA_EState7>
0

>  <VSA_EState8>
4.12

>  <VSA_EState9>
0

>  <apol>
54.59

>  <bpol>
26.21

>  <nRing>
3

>  <nHRing>
1

>  <naRing>
3

>  <naHRing>
1

>  <nARing 2>
0

>  <nAHRing 2>
0

>  <nFRing>
0

>  <nFHRing>
0

>  <nFaRing>
0

>  <nFaHRing>
0

>  <nFARing 2>
0

>  <nFAHRing 2>
0

>  <nRot>
6

>  <SLogP>
4.6

>  <SMR>
105.78

>  <TopoPSA(NO)>
68.02

>  <TopoPSA>
93.32

>  <JGI1>
0.21

>  <JGI2>
0.08

>  <JGI3>
0.03

>  <JGI4>
0.05

>  <JGI5>
0.02

>  <Diameter>
16

>  <Radius>
8

>  <TMWC10>
128.16

>  <TSRW10>
74.06

>  <MW>
431.03

>  <AMW>
9.8

>  <WPath>
2021

>  <WPol>
35

>  <Zagreb1>
132

>  <Zagreb2>
150

>  <mZagreb2>
5.72

>  <yes>


>  <nAR-cont>
0.336376

>  <nHA-cont>
0.892715677

>  <MWHBN>
0.288999773

>  <MWHBN-cont>
0.872310316

>  <TPSA-cont>
0.348568452

>  <pka_cont>
0.97

>  <yes.1>


>  <BBB_SCORE>
3.719694055

>  <MMFF94 Energy>
49.313

$$$$
Compound 2293
Actelion Java MolfileCreator 2.0

  0  0  0  0  0  0              0 V3000
M  V30 BEGIN CTAB
M  V30 COUNTS 45 46 0 0 0
M  V30 BEGIN ATOM
M  V30 1 S -1.434 -3.7478 -1.9124 0
M  V30 2 C -1.9121 -4.1155 -3.5925 0
M  V30 3 C -0.5561 -2.1628 -2.1524 0
M  V30 4 C -1.003 -4.0723 -4.6542 0
M  V30 5 C -3.235 -4.4946 -3.8444 0
M  V30 6 C -0.2685 -1.5313 -0.7975 0
M  V30 7 C -1.4176 -4.3798 -5.9527 0
M  V30 8 C -3.6496 -4.8021 -5.1424 0
M  V30 9 C 0.476 -0.223 -0.9558 0
M  V30 10 C -2.741 -4.7415 -6.1966 0
M  V30 11 O 0.8212 0.2336 -2.0394 0
M  V30 12 N 0.7294 0.3973 0.2455 0
M  V30 13 C 1.4249 1.671 0.3312 0 CFG=1
M  V30 14 C 1.0838 2.3422 1.6501 0
M  V30 15 C 2.9331 1.4974 0.1286 0
M  V30 16 C 1.6139 1.8944 2.8713 0
M  V30 17 C 0.1801 3.4112 1.6698 0
M  V30 18 C 1.2719 2.5071 4.0897 0
M  V30 19 C -0.1678 4.0287 2.8725 0
M  V30 20 C 0.3722 3.5899 4.0892 0
M  V30 21 C 1.8762 1.9922 5.3679 0
M  V30 22 C -0.0264 4.2813 5.3641 0
M  V30 23 H -1.1761 -1.4933 -2.7589 0
M  V30 24 H 0.3797 -2.344 -2.6907 0
M  V30 25 H 0.0382 -3.8123 -4.4867 0
M  V30 26 H -3.9557 -4.5505 -3.0319 0
M  V30 27 H 0.3485 -2.1962 -0.1807 0
M  V30 28 H -1.2017 -1.3277 -0.2581 0
M  V30 29 H -0.7046 -4.3414 -6.7722 0
M  V30 30 H -4.6808 -5.0906 -5.328 0
M  V30 31 H -3.0623 -4.9818 -7.2067 0
M  V30 32 H 0.3951 -0.0201 1.1045 0
M  V30 33 H 1.0612 2.2997 -0.4921 0
M  V30 34 H 3.3632 0.7798 0.8357 0
M  V30 35 H 3.4583 2.4511 0.2496 0
M  V30 36 H 3.1502 1.1209 -0.8767 0
M  V30 37 H 2.3035 1.0524 2.8796 0
M  V30 38 H -0.264 3.7738 0.7448 0
M  V30 39 H -0.8697 4.86 2.851 0
M  V30 40 H 2.5426 1.1428 5.1848 0
M  V30 41 H 1.0908 1.6524 6.0503 0
M  V30 42 H 2.4674 2.7763 5.8515 0
M  V30 43 H -0.7185 5.1087 5.1738 0
M  V30 44 H 0.8541 4.6984 5.8627 0
M  V30 45 H -0.5292 3.5788 6.0362 0
M  V30 END ATOM
M  V30 BEGIN BOND
M  V30 1 1 1 2
M  V30 2 1 1 3
M  V30 3 2 2 4
M  V30 4 1 2 5
M  V30 5 1 3 6
M  V30 6 1 4 7
M  V30 7 2 5 8
M  V30 8 1 6 9
M  V30 9 2 7 10
M  V30 10 2 9 11
M  V30 11 1 9 12
M  V30 12 1 12 13
M  V30 13 1 13 14
M  V30 14 1 13 15
M  V30 15 2 14 16
M  V30 16 1 14 17
M  V30 17 1 16 18
M  V30 18 2 17 19
M  V30 19 2 18 20
M  V30 20 1 18 21
M  V30 21 1 20 22
M  V30 22 1 8 10
M  V30 23 1 19 20
M  V30 24 1 3 23
M  V30 25 1 3 24
M  V30 26 1 4 25
M  V30 27 1 5 26
M  V30 28 1 6 27
M  V30 29 1 6 28
M  V30 30 1 7 29
M  V30 31 1 8 30
M  V30 32 1 10 31
M  V30 33 1 12 32
M  V30 34 1 13 33
M  V30 35 1 15 34
M  V30 36 1 15 35
M  V30 37 1 15 36
M  V30 38 1 16 37
M  V30 39 1 17 38
M  V30 40 1 19 39
M  V30 41 1 21 40
M  V30 42 1 21 41
M  V30 43 1 21 42
M  V30 44 1 22 43
M  V30 45 1 22 44
M  V30 46 1 22 45
M  V30 END BOND
M  V30 BEGIN COLLECTION
M  V30 MDLV30/STEABS ATOMS=(1 13)
M  V30 END COLLECTION
M  V30 END CTAB
M  END
>  <Column 1>
2804

>  <level_0>
4040

>  <index>
4040

>  <Unnamed: 0>
4040

>  <NO.>
4052

>  <Name>
flucloxacillin

>  <IUPAC_name>
n-[(1r)-1-(3-4-dimethylphenyl)ethyl]-3-phenylsulfanylpropanamide

>  <SMILES>
Cc1ccc([C@@H](C)NC(=O)CCSc2ccccc2)cc1C

>  <CID>
100003364

>  <logBB>


>  <BBB+/BBB->
BBB-

>  <Inchi>
InChI=1S/C19H23NOS/c1-14-9-10-17(13-15(14)2)16(3)20-19(21)11-12-22-18-7-5-4-6-8-18/h4-10-13-16H-11-12H2-1-3H3-(H-20-21)/t16-/m1/s1

>  <threshold>
-1

>  <reference>
R16|R10|R10|

>  <group>
B

>  <Class>
1

>  <ABC>
16.62

>  <ABCGG>
13.42

>  <nAcid>
0

>  <nBase>
0

>  <nAromAtom>
12

>  <nAromBond>
12

>  <nAtom>
45

>  <nHeavyAtom>
22

>  <nSpiro>
0

>  <nBridgehead>
0

>  <nHetero>
3

>  <nN>
1

>  <nO>
1

>  <nF>
0

>  <BalabanJ>
1.6

>  <BertzCT>
624.59

>  <nBonds>
46

>  <nBondsO>
23

>  <nBondsS>
33

>  <nBondsD>
1

>  <nBondsT>
0

>  <nBondsA>
12

>  <nBondsM>
13

>  <nBondsKS>
39

>  <nBondsKD>
7

>  <RNCG>
0.24

>  <RPCG>
0.15

>  <FCSP3>
0.32

>  <SZ>
28

>  <Sm>
26.1

>  <Sv>
27.89

>  <Sse>
44.28

>  <Sp>
31.06

>  <Si>
50.2

>  <MZ>
0.62

>  <Mm>
0.58

>  <Mv>
0.62

>  <Mse>
0.98

>  <Mp>
0.69

>  <Mi>
1.12

>  <NsCH3>
3

>  <NdCH2>
0

>  <NssCH2>
2

>  <NtCH>
0

>  <NdsCH>
0

>  <NaaCH>
8

>  <NsssCH>
1

>  <NddC>
0

>  <NtsC>
0

>  <NdssC>
1

>  <NaasC>
4

>  <NaaaC>
0

>  <NssssC>
0

>  <NsNH3>
0

>  <NsNH2>
0

>  <NssNH2>
0

>  <NdNH>
0

>  <NssNH>
1

>  <NaaNH>
0

>  <NtN>
0

>  <NsssNH>
0

>  <NdsN>
0

>  <NaaN>
0

>  <NsssN>
0

>  <NddsN>
0

>  <NaasN>
0

>  <NssssN>
0

>  <NsOH>
0

>  <NdO>
1

>  <NssO>
0

>  <NaaO>
0

>  <NsF>
0

>  <NsSiH3>
0

>  <NssSiH2>
0

>  <NsssSiH>
0

>  <NssssSi>
0

>  <NsPH2>
0

>  <NssPH>
0

>  <NsssP>
0

>  <NdsssP>
0

>  <NsssssP>
0

>  <NsSH>
0

>  <NdS>
0

>  <NssS>
1

>  <NaaS>
0

>  <NdssS>
0

>  <NddssS>
0

>  <NsCl>
0

>  <NsBr>
0

>  <NsI>
0

>  <fragCpx>
67.03

>  <fMF>
0.4

>  <nHBAcc>
2

>  <nHBDon>
1

>  <Kier1>
18.34

>  <Kier2>
9.33

>  <Lipinski>
1

>  <GhoseFilter>
1

>  <FilterItLogS>
-5.82

>  <VMcGowan>
258.95

>  <LabuteASA>
136.88

>  <PEOE_VSA1>
5.32

>  <PEOE_VSA2>
4.79

>  <PEOE_VSA3>
0

>  <PEOE_VSA4>
0

>  <PEOE_VSA5>
11.76

>  <PEOE_VSA6>
36.4

>  <PEOE_VSA7>
49.59

>  <PEOE_VSA8>
17.07

>  <PEOE_VSA9>
6.04

>  <PEOE_VSA10>
0

>  <PEOE_VSA11>
0

>  <PEOE_VSA12>
5.91

>  <PEOE_VSA13>
0

>  <SMR_VSA1>
4.79

>  <SMR_VSA2>
0

>  <SMR_VSA3>
5.32

>  <SMR_VSA4>
0

>  <SMR_VSA5>
38.13

>  <SMR_VSA6>
5.75

>  <SMR_VSA7>
65.22

>  <SMR_VSA8>
0

>  <SMR_VSA9>
0

>  <SlogP_VSA1>
5.32

>  <SlogP_VSA2>
11.66

>  <SlogP_VSA3>
4.79

>  <SlogP_VSA4>
13.85

>  <SlogP_VSA5>
36.08

>  <SlogP_VSA6>
53.43

>  <SlogP_VSA7>
0

>  <SlogP_VSA8>
0

>  <SlogP_VSA9>
0

>  <SlogP_VSA10>
0

>  <SlogP_VSA11>
0

>  <EState_VSA1>
0

>  <EState_VSA2>
11.95

>  <EState_VSA3>
6.42

>  <EState_VSA4>
11.32

>  <EState_VSA5>
16.02

>  <EState_VSA6>
11.76

>  <EState_VSA7>
25.12

>  <EState_VSA8>
49.5

>  <EState_VSA9>
0

>  <EState_VSA10>
4.79

>  <VSA_EState1>
0

>  <VSA_EState2>
13.25

>  <VSA_EState3>
3.08

>  <VSA_EState4>
3.7

>  <VSA_EState5>
0.91

>  <VSA_EState6>
16.58

>  <VSA_EState7>
0.54

>  <VSA_EState8>
6.24

>  <VSA_EState9>
0

>  <apol>
51.87

>  <bpol>
26.97

>  <nRing>
2

>  <nHRing>
0

>  <naRing>
2

>  <naHRing>
0

>  <nARing 2>
0

>  <nAHRing 2>
0

>  <nFRing>
0

>  <nFHRing>
0

>  <nFaRing>
0

>  <nFaHRing>
0

>  <nFARing 2>
0

>  <nFAHRing 2>
0

>  <nRot>
6

>  <SLogP>
4.66

>  <SMR>
94.26

>  <TopoPSA(NO)>
29.1

>  <TopoPSA>
54.4

>  <JGI1>
0.2

>  <JGI2>
0.08

>  <JGI3>
0.04

>  <JGI4>
0.04

>  <JGI5>
0.03

>  <Diameter>
14

>  <Radius>
7

>  <TMWC10>
116.42

>  <TSRW10>
55.31

>  <MW>
313.15

>  <AMW>
6.96

>  <WPath>
1280

>  <WPol>
29

>  <Zagreb1>
106

>  <Zagreb2>
118

>  <mZagreb2>
4.97

>  <yes>


>  <nAR-cont>
0.336376

>  <nHA-cont>
0.983774276

>  <MWHBN>
0.169529408

>  <MWHBN-cont>
0.973223957

>  <TPSA-cont>
0.62025422

>  <pka_cont>
0.97

>  <yes.1>


>  <BBB_SCORE>
4.50549465

>  <MMFF94 Energy>
8.5494

$$$$
Compound 2294
Actelion Java MolfileCreator 2.0

  0  0  0  0  0  0              0 V3000
M  V30 BEGIN CTAB
M  V30 COUNTS 34 35 0 0 0
M  V30 BEGIN ATOM
M  V30 1 S -1.0429 -1.926 4.1766 0
M  V30 2 C 0.0306 -2.7219 3.1095 0
M  V30 3 C -2.0651 -1.4639 2.8892 0
M  V30 4 C -0.3652 -2.6374 1.7869 0
M  V30 5 C -1.5967 -1.9087 1.6733 0
M  V30 6 C 0.3842 -3.2345 0.6292 0
M  V30 7 C 0.7085 -2.2044 -0.4419 0
M  V30 8 O 0.2636 -2.2979 -1.5824 0
M  V30 9 N 1.5541 -1.2022 -0.0244 0
M  V30 10 C 1.9412 -0.0443 -0.8254 0 CFG=2
M  V30 11 C 0.851 1.016 -0.8393 0
M  V30 12 C 2.5052 -0.39 -2.2045 0
M  V30 13 N 0.9941 2.0377 0.046 0
M  V30 14 C -0.2583 0.9216 -1.677 0
M  V30 15 C 0.0256 2.9816 0.078 0
M  V30 16 C -1.2399 1.9092 -1.6211 0
M  V30 17 C -1.0986 2.9761 -0.7364 0
M  V30 18 C -2.1464 4.0355 -0.6185 0
M  V30 19 H 0.9061 -3.2148 3.5103 0
M  V30 20 H -2.96 -0.8888 3.083 0
M  V30 21 H -2.1092 -1.7113 0.738 0
M  V30 22 H 1.3251 -3.6866 0.9644 0
M  V30 23 H -0.2195 -4.0304 0.178 0
M  V30 24 H 1.7447 -1.1284 0.9669 0
M  V30 25 H 2.783 0.3867 -0.2657 0
M  V30 26 H 1.7552 -0.8073 -2.8823 0
M  V30 27 H 2.9128 0.5052 -2.6874 0
M  V30 28 H 3.3131 -1.1244 -2.1162 0
M  V30 29 H -0.3755 0.0843 -2.3583 0
M  V30 30 H 0.1879 3.7706 0.8078 0
M  V30 31 H -2.111 1.8341 -2.2668 0
M  V30 32 H -2.6526 4.1927 -1.5767 0
M  V30 33 H -1.7032 4.9928 -0.3248 0
M  V30 34 H -2.8904 3.7463 0.13 0
M  V30 END ATOM
M  V30 BEGIN BOND
M  V30 1 1 1 2
M  V30 2 1 1 3
M  V30 3 2 2 4
M  V30 4 2 3 5
M  V30 5 1 4 6
M  V30 6 1 6 7
M  V30 7 2 7 8
M  V30 8 1 7 9
M  V30 9 1 9 10
M  V30 10 1 10 11
M  V30 11 1 10 12
M  V30 12 2 11 13
M  V30 13 1 11 14
M  V30 14 1 13 15
M  V30 15 2 14 16
M  V30 16 2 15 17
M  V30 17 1 17 18
M  V30 18 1 4 5
M  V30 19 1 16 17
M  V30 20 1 2 19
M  V30 21 1 3 20
M  V30 22 1 5 21
M  V30 23 1 6 22
M  V30 24 1 6 23
M  V30 25 1 9 24
M  V30 26 1 10 25
M  V30 27 1 12 26
M  V30 28 1 12 27
M  V30 29 1 12 28
M  V30 30 1 14 29
M  V30 31 1 15 30
M  V30 32 1 16 31
M  V30 33 1 18 32
M  V30 34 1 18 33
M  V30 35 1 18 34
M  V30 END BOND
M  V30 BEGIN COLLECTION
M  V30 MDLV30/STEABS ATOMS=(1 10)
M  V30 END COLLECTION
M  V30 END CTAB
M  END
>  <Column 1>
2805

>  <level_0>
4042

>  <index>
4042

>  <Unnamed: 0>
4042

>  <NO.>
4054

>  <Name>
didanosine

>  <IUPAC_name>
n-[(1s)-1-(5-methylpyridin-2-yl)ethyl]-2-thiophen-3-ylacetamide

>  <SMILES>
Cc1ccc([C@H](C)NC(=O)Cc2ccsc2)nc1

>  <CID>
100003043

>  <logBB>


>  <BBB+/BBB->
BBB-

>  <Inchi>
InChI=1S/C14H16N2OS/c1-10-3-4-13(15-8-10)11(2)16-14(17)7-12-5-6-18-9-12/h3-6-8-9-11H-7H2-1-2H3-(H-16-17)/t11-/m0/s1

>  <threshold>
-1

>  <reference>
R16|R10|

>  <group>
B

>  <Class>
-1

>  <ABC>
13.72

>  <ABCGG>
11.97

>  <nAcid>
0

>  <nBase>
0

>  <nAromAtom>
11

>  <nAromBond>
11

>  <nAtom>
34

>  <nHeavyAtom>
18

>  <nSpiro>
0

>  <nBridgehead>
0

>  <nHetero>
4

>  <nN>
2

>  <nO>
1

>  <nF>
0

>  <BalabanJ>
1.67

>  <BertzCT>
505.1

>  <nBonds>
35

>  <nBondsO>
19

>  <nBondsS>
23

>  <nBondsD>
1

>  <nBondsT>
0

>  <nBondsA>
11

>  <nBondsM>
12

>  <nBondsKS>
29

>  <nBondsKD>
6

>  <RNCG>
0.26

>  <RPCG>
0.17

>  <FCSP3>
0.29

>  <SZ>
23

>  <Sm>
21.68

>  <Sv>
21.75

>  <Sse>
33.84

>  <Sp>
23.92

>  <Si>
38.03

>  <MZ>
0.68

>  <Mm>
0.64

>  <Mv>
0.64

>  <Mse>
1

>  <Mp>
0.7

>  <Mi>
1.12

>  <NsCH3>
2

>  <NdCH2>
0

>  <NssCH2>
1

>  <NtCH>
0

>  <NdsCH>
0

>  <NaaCH>
6

>  <NsssCH>
1

>  <NddC>
0

>  <NtsC>
0

>  <NdssC>
1

>  <NaasC>
3

>  <NaaaC>
0

>  <NssssC>
0

>  <NsNH3>
0

>  <NsNH2>
0

>  <NssNH2>
0

>  <NdNH>
0

>  <NssNH>
1

>  <NaaNH>
0

>  <NtN>
0

>  <NsssNH>
0

>  <NdsN>
0

>  <NaaN>
1

>  <NsssN>
0

>  <NddsN>
0

>  <NaasN>
0

>  <NssssN>
0

>  <NsOH>
0

>  <NdO>
1

>  <NssO>
0

>  <NaaO>
0

>  <NsF>
0

>  <NsSiH3>
0

>  <NssSiH2>
0

>  <NsssSiH>
0

>  <NssssSi>
0

>  <NsPH2>
0

>  <NssPH>
0

>  <NsssP>
0

>  <NdsssP>
0

>  <NsssssP>
0

>  <NsSH>
0

>  <NdS>
0

>  <NssS>
0

>  <NaaS>
1

>  <NdssS>
0

>  <NddssS>
0

>  <NsCl>
0

>  <NsBr>
0

>  <NsI>
0

>  <fragCpx>
55.04

>  <fMF>
0.44

>  <nHBAcc>
3

>  <nHBDon>
1

>  <Kier1>
14.41

>  <Kier2>
6.96

>  <Lipinski>
1

>  <GhoseFilter>
1

>  <FilterItLogS>
-4.13

>  <VMcGowan>
202.78

>  <LabuteASA>
110.88

>  <PEOE_VSA1>
5.32

>  <PEOE_VSA2>
9.78

>  <PEOE_VSA3>
0

>  <PEOE_VSA4>
11.34

>  <PEOE_VSA5>
0

>  <PEOE_VSA6>
6.07

>  <PEOE_VSA7>
47.87

>  <PEOE_VSA8>
6.2

>  <PEOE_VSA9>
18.16

>  <PEOE_VSA10>
0

>  <PEOE_VSA11>
0

>  <PEOE_VSA12>
5.91

>  <PEOE_VSA13>
0

>  <SMR_VSA1>
4.79

>  <SMR_VSA2>
0

>  <SMR_VSA3>
10.3

>  <SMR_VSA4>
0

>  <SMR_VSA5>
26.31

>  <SMR_VSA6>
0

>  <SMR_VSA7>
51.98

>  <SMR_VSA8>
0

>  <SMR_VSA9>
0

>  <SlogP_VSA1>
5.32

>  <SlogP_VSA2>
10.89

>  <SlogP_VSA3>
11.22

>  <SlogP_VSA4>
6.92

>  <SlogP_VSA5>
29.79

>  <SlogP_VSA6>
35.16

>  <SlogP_VSA7>
0

>  <SlogP_VSA8>
0

>  <SlogP_VSA9>
0

>  <SlogP_VSA10>
0

>  <SlogP_VSA11>
0

>  <EState_VSA1>
0

>  <EState_VSA2>
11.95

>  <EState_VSA3>
6.42

>  <EState_VSA4>
16.82

>  <EState_VSA5>
0

>  <EState_VSA6>
11.34

>  <EState_VSA7>
49

>  <EState_VSA8>
10.3

>  <EState_VSA9>
0

>  <EState_VSA10>
4.79

>  <VSA_EState1>
0

>  <VSA_EState2>
16.14

>  <VSA_EState3>
6.93

>  <VSA_EState4>
3.07

>  <VSA_EState5>
0.03

>  <VSA_EState6>
5.87

>  <VSA_EState7>
2.25

>  <VSA_EState8>
3.94

>  <VSA_EState9>
0

>  <apol>
39.95

>  <bpol>
21.09

>  <nRing>
2

>  <nHRing>
2

>  <naRing>
2

>  <naHRing>
2

>  <nARing 2>
0

>  <nAHRing 2>
0

>  <nFRing>
0

>  <nFHRing>
0

>  <nFaRing>
0

>  <nFaHRing>
0

>  <nFARing 2>
0

>  <nFAHRing 2>
0

>  <nRot>
4

>  <SLogP>
2.87

>  <SMR>
73.55

>  <TopoPSA(NO)>
41.99

>  <TopoPSA>
70.23

>  <JGI1>
0.21

>  <JGI2>
0.07

>  <JGI3>
0.05

>  <JGI4>
0.03

>  <JGI5>
0.03

>  <Diameter>
11

>  <Radius>
6

>  <TMWC10>
106.82

>  <TSRW10>
63.39

>  <MW>
260.1

>  <AMW>
7.65

>  <WPath>
687

>  <WPol>
21

>  <Zagreb1>
88

>  <Zagreb2>
98

>  <mZagreb2>
4.03

>  <yes>


>  <nAR-cont>
0.336376

>  <nHA-cont>
0.991161285

>  <MWHBN>
0.248021777

>  <MWHBN-cont>
0.963040628

>  <TPSA-cont>
0.50975099

>  <pka_cont>
0.97

>  <yes.1>


>  <BBB_SCORE>
4.276600207

>  <MMFF94 Energy>
36.184

$$$$
Compound 2295
Actelion Java MolfileCreator 2.0

  0  0  0  0  0  0              0 V3000
M  V30 BEGIN CTAB
M  V30 COUNTS 48 49 0 0 0
M  V30 BEGIN ATOM
M  V30 1 S -1.1939 -1.4329 0.8754 0
M  V30 2 C -1.971 -1.7621 -0.7583 0 CFG=2
M  V30 3 C -1.1329 -3.1355 1.5141 0
M  V30 4 C -1.6646 -0.6362 -1.7516 0
M  V30 5 C -3.4805 -1.9074 -0.611 0
M  V30 6 C -0.5128 -3.1844 2.8872 0
M  V30 7 O -1.5131 -0.8674 -2.9501 0
M  V30 8 N -1.6665 0.6339 -1.2247 0
M  V30 9 C 0.8775 -3.2936 3.0379 0
M  V30 10 C -1.3137 -3.0974 4.0356 0
M  V30 11 C -1.3789 1.82 -2.0093 0 CFG=2
M  V30 12 C 1.4519 -3.3311 4.3096 0
M  V30 13 C -0.737 -3.1354 5.3064 0
M  V30 14 C 0.0415 2.276 -1.7256 0
M  V30 15 C -2.443 2.8882 -1.7519 0
M  V30 16 C 0.6446 -3.2544 5.4429 0
M  V30 17 C 1.0816 1.8276 -2.5574 0
M  V30 18 C 0.3707 3.0831 -0.6308 0
M  V30 19 C 2.4192 2.1944 -2.3308 0
M  V30 20 C 1.6961 3.4567 -0.3946 0
M  V30 21 C 2.729 3.0254 -1.2384 0
M  V30 22 C 3.4879 1.6845 -3.2583 0
M  V30 23 C 4.1434 3.4448 -0.9466 0
M  V30 24 H -1.5342 -2.6788 -1.1694 0
M  V30 25 H -0.5519 -3.7611 0.8273 0
M  V30 26 H -2.1445 -3.5529 1.555 0
M  V30 27 H -3.748 -2.7583 0.023 0
M  V30 28 H -3.939 -1.0048 -0.1904 0
M  V30 29 H -3.9441 -2.0724 -1.5905 0
M  V30 30 H -1.6529 0.7105 -0.2129 0
M  V30 31 H 1.5222 -3.3427 2.1629 0
M  V30 32 H -2.3929 -2.994 3.9466 0
M  V30 33 H -1.4485 1.5658 -3.0747 0
M  V30 34 H 2.5303 -3.4146 4.4152 0
M  V30 35 H -1.3658 -3.0672 6.1903 0
M  V30 36 H -2.5335 3.1348 -0.6884 0
M  V30 37 H -2.2186 3.8099 -2.2995 0
M  V30 38 H -3.4263 2.5306 -2.0785 0
M  V30 39 H 1.0931 -3.2806 6.4324 0
M  V30 40 H 0.8413 1.1702 -3.3934 0
M  V30 41 H -0.3936 3.4279 0.06 0
M  V30 42 H 1.9173 4.0872 0.4641 0
M  V30 43 H 3.0695 1.0432 -4.0413 0
M  V30 44 H 3.9927 2.5207 -3.7523 0
M  V30 45 H 4.221 1.0904 -2.7037 0
M  V30 46 H 4.1934 4.1189 -0.0848 0
M  V30 47 H 4.7593 2.5693 -0.7185 0
M  V30 48 H 4.5678 3.9777 -1.8033 0
M  V30 END ATOM
M  V30 BEGIN BOND
M  V30 1 1 1 2
M  V30 2 1 1 3
M  V30 3 1 2 4
M  V30 4 1 2 5
M  V30 5 1 3 6
M  V30 6 2 4 7
M  V30 7 1 4 8
M  V30 8 2 6 9
M  V30 9 1 6 10
M  V30 10 1 8 11
M  V30 11 1 9 12
M  V30 12 2 10 13
M  V30 13 1 11 14
M  V30 14 1 11 15
M  V30 15 2 12 16
M  V30 16 2 14 17
M  V30 17 1 14 18
M  V30 18 1 17 19
M  V30 19 2 18 20
M  V30 20 2 19 21
M  V30 21 1 19 22
M  V30 22 1 21 23
M  V30 23 1 13 16
M  V30 24 1 20 21
M  V30 25 1 2 24
M  V30 26 1 3 25
M  V30 27 1 3 26
M  V30 28 1 5 27
M  V30 29 1 5 28
M  V30 30 1 5 29
M  V30 31 1 8 30
M  V30 32 1 9 31
M  V30 33 1 10 32
M  V30 34 1 11 33
M  V30 35 1 12 34
M  V30 36 1 13 35
M  V30 37 1 15 36
M  V30 38 1 15 37
M  V30 39 1 15 38
M  V30 40 1 16 39
M  V30 41 1 17 40
M  V30 42 1 18 41
M  V30 43 1 20 42
M  V30 44 1 22 43
M  V30 45 1 22 44
M  V30 46 1 22 45
M  V30 47 1 23 46
M  V30 48 1 23 47
M  V30 49 1 23 48
M  V30 END BOND
M  V30 BEGIN COLLECTION
M  V30 MDLV30/STEABS ATOMS=(2 2 11)
M  V30 END COLLECTION
M  V30 END CTAB
M  END
>  <Column 1>
2806

>  <level_0>
4043

>  <index>
4043

>  <Unnamed: 0>
4043

>  <NO.>
4055

>  <Name>
daunorubicin

>  <IUPAC_name>
(2s)-2-benzylsulfanyl-n-[(1s)-1-(3-4-dimethylphenyl)ethyl]propanamide

>  <SMILES>
Cc1ccc([C@H](C)NC(=O)[C@H](C)SCc2ccccc2)cc1C

>  <CID>
100002958

>  <logBB>


>  <BBB+/BBB->
BBB-

>  <Inchi>
InChI=1S/C20H25NOS/c1-14-10-11-19(12-15(14)2)16(3)21-20(22)17(4)23-13-18-8-6-5-7-9-18/h5-12-16-17H-13H2-1-4H3-(H-21-22)/t16--17-/m0/s1

>  <threshold>
-1

>  <reference>
R16|R10|

>  <group>
B

>  <Class>
-1

>  <ABC>
17.4

>  <ABCGG>
14.34

>  <nAcid>
0

>  <nBase>
0

>  <nAromAtom>
12

>  <nAromBond>
12

>  <nAtom>
48

>  <nHeavyAtom>
23

>  <nSpiro>
0

>  <nBridgehead>
0

>  <nHetero>
3

>  <nN>
1

>  <nO>
1

>  <nF>
0

>  <BalabanJ>
1.68

>  <BertzCT>
653.95

>  <nBonds>
49

>  <nBondsO>
24

>  <nBondsS>
36

>  <nBondsD>
1

>  <nBondsT>
0

>  <nBondsA>
12

>  <nBondsM>
13

>  <nBondsKS>
42

>  <nBondsKD>
7

>  <RNCG>
0.22

>  <RPCG>
0.15

>  <FCSP3>
0.35

>  <SZ>
29.33

>  <Sm>
27.27

>  <Sv>
29.43

>  <Sse>
47.17

>  <Sp>
32.86

>  <Si>
53.61

>  <MZ>
0.61

>  <Mm>
0.57

>  <Mv>
0.61

>  <Mse>
0.98

>  <Mp>
0.68

>  <Mi>
1.12

>  <NsCH3>
4

>  <NdCH2>
0

>  <NssCH2>
1

>  <NtCH>
0

>  <NdsCH>
0

>  <NaaCH>
8

>  <NsssCH>
2

>  <NddC>
0

>  <NtsC>
0

>  <NdssC>
1

>  <NaasC>
4

>  <NaaaC>
0

>  <NssssC>
0

>  <NsNH3>
0

>  <NsNH2>
0

>  <NssNH2>
0

>  <NdNH>
0

>  <NssNH>
1

>  <NaaNH>
0

>  <NtN>
0

>  <NsssNH>
0

>  <NdsN>
0

>  <NaaN>
0

>  <NsssN>
0

>  <NddsN>
0

>  <NaasN>
0

>  <NssssN>
0

>  <NsOH>
0

>  <NdO>
1

>  <NssO>
0

>  <NaaO>
0

>  <NsF>
0

>  <NsSiH3>
0

>  <NssSiH2>
0

>  <NsssSiH>
0

>  <NssssSi>
0

>  <NsPH2>
0

>  <NssPH>
0

>  <NsssP>
0

>  <NdsssP>
0

>  <NsssssP>
0

>  <NsSH>
0

>  <NdS>
0

>  <NssS>
1

>  <NaaS>
0

>  <NdssS>
0

>  <NddssS>
0

>  <NsCl>
0

>  <NsBr>
0

>  <NsI>
0

>  <fragCpx>
70.03

>  <fMF>
0.38

>  <nHBAcc>
2

>  <nHBDon>
1

>  <Kier1>
19.33

>  <Kier2>
9.47

>  <Lipinski>
1

>  <GhoseFilter>
1

>  <FilterItLogS>
-5.84

>  <VMcGowan>
273.04

>  <LabuteASA>
143.24

>  <PEOE_VSA1>
5.32

>  <PEOE_VSA2>
4.79

>  <PEOE_VSA3>
0

>  <PEOE_VSA4>
0

>  <PEOE_VSA5>
11.76

>  <PEOE_VSA6>
48.53

>  <PEOE_VSA7>
49.95

>  <PEOE_VSA8>
5.75

>  <PEOE_VSA9>
11.29

>  <PEOE_VSA10>
0

>  <PEOE_VSA11>
0

>  <PEOE_VSA12>
5.91

>  <PEOE_VSA13>
0

>  <SMR_VSA1>
4.79

>  <SMR_VSA2>
0

>  <SMR_VSA3>
5.32

>  <SMR_VSA4>
0

>  <SMR_VSA5>
44.74

>  <SMR_VSA6>
0

>  <SMR_VSA7>
70.78

>  <SMR_VSA8>
0

>  <SMR_VSA9>
0

>  <SlogP_VSA1>
5.32

>  <SlogP_VSA2>
11.16

>  <SlogP_VSA3>
10.55

>  <SlogP_VSA4>
13.85

>  <SlogP_VSA5>
42.14

>  <SlogP_VSA6>
48.53

>  <SlogP_VSA7>
0

>  <SlogP_VSA8>
0

>  <SlogP_VSA9>
0

>  <SlogP_VSA10>
0

>  <SlogP_VSA11>
0

>  <EState_VSA1>
0

>  <EState_VSA2>
17.2

>  <EState_VSA3>
0

>  <EState_VSA4>
11.32

>  <EState_VSA5>
16.69

>  <EState_VSA6>
11.76

>  <EState_VSA7>
32.05

>  <EState_VSA8>
49.5

>  <EState_VSA9>
0

>  <EState_VSA10>
4.79

>  <VSA_EState1>
0

>  <VSA_EState2>
12.37

>  <VSA_EState3>
3.05

>  <VSA_EState4>
4.94

>  <VSA_EState5>
0.95

>  <VSA_EState6>
16.64

>  <VSA_EState7>
0

>  <VSA_EState8>
8.21

>  <VSA_EState9>
0

>  <apol>
54.87

>  <bpol>
28.98

>  <nRing>
2

>  <nHRing>
0

>  <naRing>
2

>  <naHRing>
0

>  <nARing 2>
0

>  <nAHRing 2>
0

>  <nFRing>
0

>  <nFHRing>
0

>  <nFaRing>
0

>  <nFaHRing>
0

>  <nFARing 2>
0

>  <nFAHRing 2>
0

>  <nRot>
6

>  <SLogP>
4.8

>  <SMR>
99.67

>  <TopoPSA(NO)>
29.1

>  <TopoPSA>
54.4

>  <JGI1>
0.21

>  <JGI2>
0.1

>  <JGI3>
0.04

>  <JGI4>
0.05

>  <JGI5>
0.03

>  <Diameter>
14

>  <Radius>
7

>  <TMWC10>
119.22

>  <TSRW10>
56.67

>  <MW>
327.17

>  <AMW>
6.82

>  <WPath>
1392

>  <WPol>
32

>  <Zagreb1>
112

>  <Zagreb2>
126

>  <mZagreb2>
5.17

>  <yes>


>  <nAR-cont>
0.336376

>  <nHA-cont>
0.967789328

>  <MWHBN>
0.165857272

>  <MWHBN-cont>
0.967061715

>  <TPSA-cont>
0.62025422

>  <pka_cont>
0.97

>  <yes.1>


>  <BBB_SCORE>
4.48026634

>  <MMFF94 Energy>
50.159

$$$$
Compound 2296
Actelion Java MolfileCreator 2.0

  0  0  0  0  0  0              0 V3000
M  V30 BEGIN CTAB
M  V30 COUNTS 48 50 0 0 0
M  V30 BEGIN ATOM
M  V30 1 O 0.7903 -2.5308 2.135 0
M  V30 2 C 1.01 -1.3842 1.7605 0
M  V30 3 N 2.1966 -0.7272 1.9994 0
M  V30 4 C 0.0226 -0.5542 0.9732 0
M  V30 5 C 3.285 -1.3271 2.7673 0 CFG=1
M  V30 6 C -1.2909 -1.2998 0.7707 0
M  V30 7 C 4.0435 -2.4185 1.9864 0
M  V30 8 C 4.2079 -0.2363 3.3102 0
M  V30 9 C -2.2787 -0.4939 -0.002 0
M  V30 10 C 4.6946 -1.9313 0.7211 0
M  V30 11 N -2.1526 0.7515 -0.4096 0
M  V30 12 N -3.4933 -1.0084 -0.382 0
M  V30 13 N 5.9593 -1.4438 0.8053 0
M  V30 14 C 4.0126 -1.9628 -0.4921 0
M  V30 15 C -3.3204 1.0529 -1.0769 0
M  V30 16 C -4.1773 -0.0402 -1.0708 0
M  V30 17 C 6.4995 -1.0048 -0.3546 0
M  V30 18 N 4.5508 -1.5158 -1.6513 0
M  V30 19 C -3.7071 2.2532 -1.7126 0
M  V30 20 C -5.4349 -0.035 -1.6684 0
M  V30 21 C 5.811 -1.039 -1.5543 0
M  V30 22 C -4.9864 2.2838 -2.3301 0
M  V30 23 C -2.8028 3.4532 -1.737 0
M  V30 24 C -5.8203 1.1516 -2.2983 0
M  V30 25 C -5.4742 3.526 -3.0299 0
M  V30 26 H 2.3312 0.1984 1.607 0
M  V30 27 H 0.477 -0.3053 0.0061 0
M  V30 28 H -0.1473 0.3846 1.5146 0
M  V30 29 H 2.8211 -1.8201 3.632 0
M  V30 30 H -1.1052 -2.243 0.2417 0
M  V30 31 H -1.7264 -1.5593 1.7438 0
M  V30 32 H 3.3665 -3.2462 1.7404 0
M  V30 33 H 4.8182 -2.8519 2.6322 0
M  V30 34 H 4.6355 0.3729 2.5071 0
M  V30 35 H 3.6509 0.4429 3.9655 0
M  V30 36 H 5.0277 -0.6687 3.8927 0
M  V30 37 H -3.8255 -1.9415 -0.1872 0
M  V30 38 H 3.0026 -2.3524 -0.5671 0
M  V30 39 H 7.5108 -0.6201 -0.2926 0
M  V30 40 H -6.0869 -0.9009 -1.651 0
M  V30 41 H 6.2575 -0.6823 -2.4751 0
M  V30 42 H -2.5596 3.7256 -2.7687 0
M  V30 43 H -1.8604 3.256 -1.2161 0
M  V30 44 H -3.2833 4.3022 -1.2408 0
M  V30 45 H -6.7989 1.1869 -2.7754 0
M  V30 46 H -5.5287 4.3623 -2.3259 0
M  V30 47 H -6.4756 3.3846 -3.4504 0
M  V30 48 H -4.8045 3.7845 -3.8561 0
M  V30 END ATOM
M  V30 BEGIN BOND
M  V30 1 2 1 2
M  V30 2 1 2 3
M  V30 3 1 2 4
M  V30 4 1 3 5
M  V30 5 1 4 6
M  V30 6 1 5 7
M  V30 7 1 5 8
M  V30 8 1 6 9
M  V30 9 1 7 10
M  V30 10 2 9 11
M  V30 11 1 9 12
M  V30 12 2 10 13
M  V30 13 1 10 14
M  V30 14 1 11 15
M  V30 15 1 12 16
M  V30 16 1 13 17
M  V30 17 2 14 18
M  V30 18 1 15 19
M  V30 19 1 16 20
M  V30 20 2 17 21
M  V30 21 2 19 22
M  V30 22 1 19 23
M  V30 23 2 20 24
M  V30 24 1 22 25
M  V30 25 2 15 16
M  V30 26 1 18 21
M  V30 27 1 22 24
M  V30 28 1 3 26
M  V30 29 1 4 27
M  V30 30 1 4 28
M  V30 31 1 5 29
M  V30 32 1 6 30
M  V30 33 1 6 31
M  V30 34 1 7 32
M  V30 35 1 7 33
M  V30 36 1 8 34
M  V30 37 1 8 35
M  V30 38 1 8 36
M  V30 39 1 12 37
M  V30 40 1 14 38
M  V30 41 1 17 39
M  V30 42 1 20 40
M  V30 43 1 21 41
M  V30 44 1 23 42
M  V30 45 1 23 43
M  V30 46 1 23 44
M  V30 47 1 24 45
M  V30 48 1 25 46
M  V30 49 1 25 47
M  V30 50 1 25 48
M  V30 END BOND
M  V30 BEGIN COLLECTION
M  V30 MDLV30/STEABS ATOMS=(1 5)
M  V30 END COLLECTION
M  V30 END CTAB
M  END
>  <Column 1>
2807

>  <level_0>
4044

>  <index>
4044

>  <Unnamed: 0>
4044

>  <NO.>
4056

>  <Name>
terconazole

>  <IUPAC_name>
3-(4-5-dimethyl-1h-benzimidazol-2-yl)-n-[(2r)-1-pyrazin-2-ylpropan-2-yl]propanamide

>  <SMILES>
Cc1ccc2[nH]c(CCC(=O)N[C@H](C)Cc3cnccn3)nc2c1C

>  <CID>
100005404

>  <logBB>


>  <BBB+/BBB->
BBB-

>  <Inchi>
InChI=1S/C19H23N5O/c1-12-4-5-16-19(14(12)3)24-17(23-16)6-7-18(25)22-13(2)10-15-11-20-8-9-21-15/h4-5-8-9-11-13H-6-7-10H2-1-3H3-(H-22-25)(H-23-24)/t13-/m1/s1

>  <threshold>
-1

>  <reference>
R16|R10|R10|

>  <group>
B

>  <Class>
1

>  <ABC>
19.41

>  <ABCGG>
15.26

>  <nAcid>
0

>  <nBase>
0

>  <nAromAtom>
15

>  <nAromBond>
16

>  <nAtom>
48

>  <nHeavyAtom>
25

>  <nSpiro>
0

>  <nBridgehead>
0

>  <nHetero>
6

>  <nN>
5

>  <nO>
1

>  <nF>
0

>  <BalabanJ>
1.34

>  <BertzCT>
872.16

>  <nBonds>
50

>  <nBondsO>
27

>  <nBondsS>
33

>  <nBondsD>
1

>  <nBondsT>
0

>  <nBondsA>
16

>  <nBondsM>
17

>  <nBondsKS>
42

>  <nBondsKD>
8

>  <RNCG>
0.18

>  <RPCG>
0.11

>  <FCSP3>
0.37

>  <SZ>
30

>  <Sm>
28.09

>  <Sv>
29.74

>  <Sse>
47.86

>  <Sp>
31.96

>  <Si>
54.44

>  <MZ>
0.63

>  <Mm>
0.59

>  <Mv>
0.62

>  <Mse>
1

>  <Mp>
0.67

>  <Mi>
1.13

>  <NsCH3>
3

>  <NdCH2>
0

>  <NssCH2>
3

>  <NtCH>
0

>  <NdsCH>
0

>  <NaaCH>
5

>  <NsssCH>
1

>  <NddC>
0

>  <NtsC>
0

>  <NdssC>
1

>  <NaasC>
4

>  <NaaaC>
2

>  <NssssC>
0

>  <NsNH3>
0

>  <NsNH2>
0

>  <NssNH2>
0

>  <NdNH>
0

>  <NssNH>
1

>  <NaaNH>
1

>  <NtN>
0

>  <NsssNH>
0

>  <NdsN>
0

>  <NaaN>
3

>  <NsssN>
0

>  <NddsN>
0

>  <NaasN>
0

>  <NssssN>
0

>  <NsOH>
0

>  <NdO>
1

>  <NssO>
0

>  <NaaO>
0

>  <NsF>
0

>  <NsSiH3>
0

>  <NssSiH2>
0

>  <NsssSiH>
0

>  <NssssSi>
0

>  <NsPH2>
0

>  <NssPH>
0

>  <NsssP>
0

>  <NdsssP>
0

>  <NsssssP>
0

>  <NsSH>
0

>  <NdS>
0

>  <NssS>
0

>  <NaaS>
0

>  <NdssS>
0

>  <NddssS>
0

>  <NsCl>
0

>  <NsBr>
0

>  <NsI>
0

>  <fragCpx>
129.06

>  <fMF>
0.44

>  <nHBAcc>
4

>  <nHBDon>
2

>  <Kier1>
19.75

>  <Kier2>
9.27

>  <Lipinski>
1

>  <GhoseFilter>
1

>  <FilterItLogS>
-6.32

>  <VMcGowan>
267.36

>  <LabuteASA>
146.67

>  <PEOE_VSA1>
10.3

>  <PEOE_VSA2>
14.76

>  <PEOE_VSA3>
4.98

>  <PEOE_VSA4>
0

>  <PEOE_VSA5>
0

>  <PEOE_VSA6>
6.07

>  <PEOE_VSA7>
37.96

>  <PEOE_VSA8>
43.89

>  <PEOE_VSA9>
16.73

>  <PEOE_VSA10>
5.82

>  <PEOE_VSA11>
0

>  <PEOE_VSA12>
5.91

>  <PEOE_VSA13>
0

>  <SMR_VSA1>
4.79

>  <SMR_VSA2>
0

>  <SMR_VSA3>
25.25

>  <SMR_VSA4>
0

>  <SMR_VSA5>
46.08

>  <SMR_VSA6>
0

>  <SMR_VSA7>
53.37

>  <SMR_VSA8>
0

>  <SMR_VSA9>
0

>  <SlogP_VSA1>
5.32

>  <SlogP_VSA2>
31.88

>  <SlogP_VSA3>
17.64

>  <SlogP_VSA4>
13.85

>  <SlogP_VSA5>
35.99

>  <SlogP_VSA6>
30.72

>  <SlogP_VSA7>
0

>  <SlogP_VSA8>
11.03

>  <SlogP_VSA9>
0

>  <SlogP_VSA10>
0

>  <SlogP_VSA11>
0

>  <EState_VSA1>
0

>  <EState_VSA2>
11.95

>  <EState_VSA3>
19.26

>  <EState_VSA4>
22.55

>  <EState_VSA5>
11.13

>  <EState_VSA6>
18.59

>  <EState_VSA7>
12.99

>  <EState_VSA8>
45.17

>  <EState_VSA9>
0

>  <EState_VSA10>
4.79

>  <VSA_EState1>
0

>  <VSA_EState2>
28.37

>  <VSA_EState3>
3

>  <VSA_EState4>
5.29

>  <VSA_EState5>
0.87

>  <VSA_EState6>
4.14

>  <VSA_EState7>
6.7

>  <VSA_EState8>
6.12

>  <VSA_EState9>
0

>  <apol>
53.37

>  <bpol>
28.5

>  <nRing>
3

>  <nHRing>
2

>  <naRing>
3

>  <naHRing>
2

>  <nARing 2>
0

>  <nAHRing 2>
0

>  <nFRing>
1

>  <nFHRing>
1

>  <nFaRing>
1

>  <nFaHRing>
1

>  <nFARing 2>
0

>  <nFAHRing 2>
0

>  <nRot>
6

>  <SLogP>
2.65

>  <SMR>
97.23

>  <TopoPSA(NO)>
83.56

>  <TopoPSA>
83.56

>  <JGI1>
0.2

>  <JGI2>
0.07

>  <JGI3>
0.05

>  <JGI4>
0.05

>  <JGI5>
0.02

>  <Diameter>
15

>  <Radius>
8

>  <TMWC10>
126.43

>  <TSRW10>
73.43

>  <MW>
337.19

>  <AMW>
7.02

>  <WPath>
1789

>  <WPol>
35

>  <Zagreb1>
128

>  <Zagreb2>
147

>  <mZagreb2>
5.5

>  <yes>


>  <nAR-cont>
0.336376

>  <nHA-cont>
0.921834225

>  <MWHBN>
0.326748729

>  <MWHBN-cont>
0.754165838

>  <TPSA-cont>
0.416699312

>  <pka_cont>
0.97

>  <yes.1>


>  <BBB_SCORE>
3.707857606

>  <MMFF94 Energy>
43.738

$$$$
Compound 2297
Actelion Java MolfileCreator 2.0

  0  0  0  0  0  0              0 V3000
M  V30 BEGIN CTAB
M  V30 COUNTS 50 52 0 0 0
M  V30 BEGIN ATOM
M  V30 1 S 3.129 -0.6412 1.363 0
M  V30 2 C 4.0222 -1.5682 0.1293 0
M  V30 3 C 3.2189 1.0318 0.6218 0
M  V30 4 C 3.5639 -1.6542 -1.1894 0
M  V30 5 C 5.1826 -2.255 0.4975 0
M  V30 6 C 2.38 2.0263 1.4119 0
M  V30 7 C 4.272 -2.3998 -2.1342 0
M  V30 8 C 5.8904 -3.0006 -0.4477 0
M  V30 9 C 0.9241 1.9477 1.0055 0
M  V30 10 C 5.4362 -3.0704 -1.7635 0
M  V30 11 O 0.4767 2.654 0.1092 0
M  V30 12 N 0.1941 1.0218 1.7127 0
M  V30 13 C -1.22 0.729 1.4926 0 CFG=2
M  V30 14 C -1.51 0.0329 0.1872 0
M  V30 15 C -2.1114 1.9571 1.6745 0
M  V30 16 C -2.6995 0.2987 -0.4981 0
M  V30 17 C -0.6392 -0.9358 -0.3375 0
M  V30 18 C -3.5618 1.6425 1.2874 0
M  V30 19 O -3.6595 1.1745 -0.0676 0
M  V30 20 C -2.9795 -0.3403 -1.7097 0
M  V30 21 C -0.9255 -1.5837 -1.5417 0
M  V30 22 C -4.3793 2.9429 1.3396 0
M  V30 23 C -4.2258 0.6192 2.222 0
M  V30 24 C -2.1018 -1.2937 -2.2367 0
M  V30 25 C -2.3952 -1.9517 -3.5512 0
M  V30 26 H 2.8899 1.0006 -0.4215 0
M  V30 27 H 4.2685 1.3434 0.6401 0
M  V30 28 H 2.6501 -1.1502 -1.495 0
M  V30 29 H 5.5466 -2.2145 1.5213 0
M  V30 30 H 2.7169 3.0449 1.1823 0
M  V30 31 H 2.4866 1.9007 2.4955 0
M  V30 32 H 3.9122 -2.4598 -3.1582 0
M  V30 33 H 6.7943 -3.5288 -0.1555 0
M  V30 34 H 5.9866 -3.6518 -2.4988 0
M  V30 35 H 0.6926 0.419 2.3557 0
M  V30 36 H -1.4701 0.0113 2.2851 0
M  V30 37 H -1.7575 2.7754 1.0361 0
M  V30 38 H -2.0463 2.3196 2.7083 0
M  V30 39 H 0.2767 -1.1929 0.1863 0
M  V30 40 H -3.8989 -0.0929 -2.2355 0
M  V30 41 H -0.2225 -2.3164 -1.931 0
M  V30 42 H -4.3824 3.379 2.3441 0
M  V30 43 H -5.4174 2.7657 1.0347 0
M  V30 44 H -3.9777 3.685 0.6399 0
M  V30 45 H -4.1886 0.9482 3.2657 0
M  V30 46 H -5.2759 0.4686 1.9449 0
M  V30 47 H -3.7566 -0.3671 2.1544 0
M  V30 48 H -1.9583 -2.9549 -3.5924 0
M  V30 49 H -1.9834 -1.353 -4.3694 0
M  V30 50 H -3.4744 -2.0617 -3.7007 0
M  V30 END ATOM
M  V30 BEGIN BOND
M  V30 1 1 1 2
M  V30 2 1 1 3
M  V30 3 2 2 4
M  V30 4 1 2 5
M  V30 5 1 3 6
M  V30 6 1 4 7
M  V30 7 2 5 8
M  V30 8 1 6 9
M  V30 9 2 7 10
M  V30 10 2 9 11
M  V30 11 1 9 12
M  V30 12 1 12 13
M  V30 13 1 13 14
M  V30 14 1 13 15
M  V30 15 2 14 16
M  V30 16 1 14 17
M  V30 17 1 15 18
M  V30 18 1 16 19
M  V30 19 1 16 20
M  V30 20 2 17 21
M  V30 21 1 18 22
M  V30 22 1 18 23
M  V30 23 2 20 24
M  V30 24 1 24 25
M  V30 25 1 8 10
M  V30 26 1 18 19
M  V30 27 1 21 24
M  V30 28 1 3 26
M  V30 29 1 3 27
M  V30 30 1 4 28
M  V30 31 1 5 29
M  V30 32 1 6 30
M  V30 33 1 6 31
M  V30 34 1 7 32
M  V30 35 1 8 33
M  V30 36 1 10 34
M  V30 37 1 12 35
M  V30 38 1 13 36
M  V30 39 1 15 37
M  V30 40 1 15 38
M  V30 41 1 17 39
M  V30 42 1 20 40
M  V30 43 1 21 41
M  V30 44 1 22 42
M  V30 45 1 22 43
M  V30 46 1 22 44
M  V30 47 1 23 45
M  V30 48 1 23 46
M  V30 49 1 23 47
M  V30 50 1 25 48
M  V30 51 1 25 49
M  V30 52 1 25 50
M  V30 END BOND
M  V30 BEGIN COLLECTION
M  V30 MDLV30/STEABS ATOMS=(1 13)
M  V30 END COLLECTION
M  V30 END CTAB
M  END
>  <Column 1>
2808

>  <level_0>
4045

>  <index>
4045

>  <Unnamed: 0>
4045

>  <NO.>
4057

>  <Name>
fentanyl

>  <IUPAC_name>
3-phenylsulfanyl-n-[(4s)-2-2-7-trimethyl-3-4-dihydrochromen-4-yl]propanamide

>  <SMILES>
Cc1ccc2c(c1)OC(C)(C)C[C@@H]2NC(=O)CCSc1ccccc1

>  <CID>
100003345

>  <logBB>


>  <BBB+/BBB->
BBB+

>  <Inchi>
InChI=1S/C21H25NO2S/c1-15-9-10-17-18(14-21(2-3)24-19(17)13-15)22-20(23)11-12-25-16-7-5-4-6-8-16/h4-10-13-18H-11-12-14H2-1-3H3-(H-22-23)/t18-/m0/s1

>  <threshold>
-1

>  <reference>
R16|R10|

>  <group>
B

>  <Class>
1

>  <ABC>
19.55

>  <ABCGG>
15.02

>  <nAcid>
0

>  <nBase>
0

>  <nAromAtom>
12

>  <nAromBond>
12

>  <nAtom>
50

>  <nHeavyAtom>
25

>  <nSpiro>
0

>  <nBridgehead>
0

>  <nHetero>
4

>  <nN>
1

>  <nO>
2

>  <nF>
0

>  <BalabanJ>
1.46

>  <BertzCT>
742.82

>  <nBonds>
52

>  <nBondsO>
27

>  <nBondsS>
39

>  <nBondsD>
1

>  <nBondsT>
0

>  <nBondsA>
12

>  <nBondsM>
13

>  <nBondsKS>
45

>  <nBondsKD>
7

>  <RNCG>
0.27

>  <RPCG>
0.12

>  <FCSP3>
0.38

>  <SZ>
31.67

>  <Sm>
29.6

>  <Sv>
31.15

>  <Sse>
49.5

>  <Sp>
34.34

>  <Si>
55.82

>  <MZ>
0.63

>  <Mm>
0.59

>  <Mv>
0.62

>  <Mse>
0.99

>  <Mp>
0.69

>  <Mi>
1.12

>  <NsCH3>
3

>  <NdCH2>
0

>  <NssCH2>
3

>  <NtCH>
0

>  <NdsCH>
0

>  <NaaCH>
8

>  <NsssCH>
1

>  <NddC>
0

>  <NtsC>
0

>  <NdssC>
1

>  <NaasC>
4

>  <NaaaC>
0

>  <NssssC>
1

>  <NsNH3>
0

>  <NsNH2>
0

>  <NssNH2>
0

>  <NdNH>
0

>  <NssNH>
1

>  <NaaNH>
0

>  <NtN>
0

>  <NsssNH>
0

>  <NdsN>
0

>  <NaaN>
0

>  <NsssN>
0

>  <NddsN>
0

>  <NaasN>
0

>  <NssssN>
0

>  <NsOH>
0

>  <NdO>
1

>  <NssO>
1

>  <NaaO>
0

>  <NsF>
0

>  <NsSiH3>
0

>  <NssSiH2>
0

>  <NsssSiH>
0

>  <NssssSi>
0

>  <NsPH2>
0

>  <NssPH>
0

>  <NsssP>
0

>  <NdsssP>
0

>  <NsssssP>
0

>  <NsSH>
0

>  <NdS>
0

>  <NssS>
1

>  <NaaS>
0

>  <NdssS>
0

>  <NddssS>
0

>  <NsCl>
0

>  <NsBr>
0

>  <NsI>
0

>  <fragCpx>
129.04

>  <fMF>
0.42

>  <nHBAcc>
3

>  <nHBDon>
1

>  <Kier1>
19.75

>  <Kier2>
8.79

>  <Lipinski>
1

>  <GhoseFilter>
1

>  <FilterItLogS>
-6.07

>  <VMcGowan>
282.14

>  <LabuteASA>
153.72

>  <PEOE_VSA1>
10.05

>  <PEOE_VSA2>
4.79

>  <PEOE_VSA3>
0

>  <PEOE_VSA4>
0

>  <PEOE_VSA5>
11.76

>  <PEOE_VSA6>
30.33

>  <PEOE_VSA7>
44.53

>  <PEOE_VSA8>
29.05

>  <PEOE_VSA9>
6.04

>  <PEOE_VSA10>
11.35

>  <PEOE_VSA11>
0

>  <PEOE_VSA12>
5.91

>  <PEOE_VSA13>
0

>  <SMR_VSA1>
9.53

>  <SMR_VSA2>
0

>  <SMR_VSA3>
5.32

>  <SMR_VSA4>
0

>  <SMR_VSA5>
50.15

>  <SMR_VSA6>
5.75

>  <SMR_VSA7>
59.66

>  <SMR_VSA8>
0

>  <SMR_VSA9>
5.75

>  <SlogP_VSA1>
10.05

>  <SlogP_VSA2>
17.26

>  <SlogP_VSA3>
4.79

>  <SlogP_VSA4>
6.92

>  <SlogP_VSA5>
43.86

>  <SlogP_VSA6>
53.43

>  <SlogP_VSA7>
0

>  <SlogP_VSA8>
0

>  <SlogP_VSA9>
0

>  <SlogP_VSA10>
0

>  <SlogP_VSA11>
5.75

>  <EState_VSA1>
0

>  <EState_VSA2>
17.55

>  <EState_VSA3>
6.42

>  <EState_VSA4>
23.49

>  <EState_VSA5>
10.46

>  <EState_VSA6>
11.76

>  <EState_VSA7>
18.2

>  <EState_VSA8>
56.42

>  <EState_VSA9>
4.74

>  <EState_VSA10>
4.79

>  <VSA_EState1>
6.1

>  <VSA_EState2>
13.62

>  <VSA_EState3>
3.2

>  <VSA_EState4>
1.96

>  <VSA_EState5>
1.77

>  <VSA_EState6>
16.4

>  <VSA_EState7>
1.29

>  <VSA_EState8>
6.2

>  <VSA_EState9>
0

>  <apol>
57.34

>  <bpol>
30.71

>  <nRing>
3

>  <nHRing>
1

>  <naRing>
2

>  <naHRing>
0

>  <nARing 2>
1

>  <nAHRing 2>
1

>  <nFRing>
1

>  <nFHRing>
1

>  <nFaRing>
0

>  <nFaHRing>
0

>  <nFARing 2>
1

>  <nFAHRing 2>
1

>  <nRot>
5

>  <SLogP>
4.9

>  <SMR>
103.17

>  <TopoPSA(NO)>
38.33

>  <TopoPSA>
63.63

>  <JGI1>
0.24

>  <JGI2>
0.06

>  <JGI3>
0.05

>  <JGI4>
0.05

>  <JGI5>
0.04

>  <Diameter>
14

>  <Radius>
7

>  <TMWC10>
126.84

>  <TSRW10>
59.73

>  <MW>
355.16

>  <AMW>
7.1

>  <WPath>
1664

>  <WPol>
36

>  <Zagreb1>
130

>  <Zagreb2>
148

>  <mZagreb2>
5.39

>  <yes>


>  <nAR-cont>
0.816016

>  <nHA-cont>
0.921834225

>  <MWHBN>
0.212250131

>  <MWHBN-cont>
0.998682949

>  <TPSA-cont>
0.555823088

>  <pka_cont>
0.97

>  <yes.1>


>  <BBB_SCORE>
4.832520825

>  <MMFF94 Energy>
12.721

$$$$
Compound 2298
Actelion Java MolfileCreator 2.0

  0  0  0  0  0  0              0 V3000
M  V30 BEGIN CTAB
M  V30 COUNTS 52 54 0 0 0
M  V30 BEGIN ATOM
M  V30 1 S -2.6607 -0.4833 -2.58 0
M  V30 2 C -1.1157 0.4419 -2.3076 0
M  V30 3 C -3.3453 -0.4513 -0.8932 0
M  V30 4 C -0.4205 0.738 -3.6151 0
M  V30 5 C -2.3346 -0.8627 0.1687 0
M  V30 6 C -0.741 1.89 -4.3505 0
M  V30 7 C 0.5374 -0.1547 -4.1221 0
M  V30 8 O -1.5833 -1.8225 0.0365 0
M  V30 9 N -2.341 -0.044 1.2831 0
M  V30 10 C -0.1064 2.1556 -5.5663 0
M  V30 11 C 1.1775 0.1022 -5.3366 0
M  V30 12 C -1.399 -0.1591 2.3963 0 CFG=2
M  V30 13 C 0.8529 1.2594 -6.0544 0
M  V30 14 C 0.017 0.2023 2.0274 0
M  V30 15 C -1.4659 -1.5156 3.0971 0
M  V30 16 N 1.5222 1.5358 -7.331 0 CHG=1
M  V30 17 C 1.0874 -0.4789 2.6135 0
M  V30 18 C 0.2983 1.2603 1.1466 0
M  V30 19 C -0.3448 -1.6504 4.1357 0
M  V30 20 O 1.2093 2.5732 -7.9337 0
M  V30 21 O 2.3651 0.7199 -7.7308 0 CHG=-1
M  V30 22 O 0.9517 -1.476 3.5408 0
M  V30 23 C 2.4042 -0.1628 2.2676 0
M  V30 24 C 1.6151 1.583 0.8099 0
M  V30 25 C -0.359 -3.0818 4.6945 0
M  V30 26 C -0.4945 -0.6731 5.3123 0
M  V30 27 C 2.6793 0.8585 1.3518 0
M  V30 28 C 4.0962 1.2126 1.0126 0
M  V30 29 H -0.4397 -0.1312 -1.6656 0
M  V30 30 H -1.3402 1.3833 -1.7938 0
M  V30 31 H -4.1908 -1.1442 -0.8414 0
M  V30 32 H -3.7271 0.556 -0.7008 0
M  V30 33 H -1.4955 2.583 -3.9827 0
M  V30 34 H 0.7832 -1.0623 -3.5714 0
M  V30 35 H -3.0125 0.7094 1.336 0
M  V30 36 H -0.3737 3.0542 -6.1183 0
M  V30 37 H 1.9149 -0.607 -5.7063 0
M  V30 38 H -1.7337 0.6045 3.1111 0
M  V30 39 H -2.4526 -1.6526 3.5573 0
M  V30 40 H -1.3511 -2.324 2.3658 0
M  V30 41 H -0.5086 1.842 0.7099 0
M  V30 42 H 3.218 -0.7195 2.7269 0
M  V30 43 H 1.8049 2.4017 0.1193 0
M  V30 44 H 0.452 -3.2282 5.4174 0
M  V30 45 H -0.1929 -3.8142 3.8961 0
M  V30 46 H -1.309 -3.3145 5.1871 0
M  V30 47 H 0.2936 -0.841 6.0556 0
M  V30 48 H -1.4647 -0.7884 5.8066 0
M  V30 49 H -0.3896 0.3702 4.9987 0
M  V30 50 H 4.7403 0.328 1.0544 0
M  V30 51 H 4.4742 1.9598 1.717 0
M  V30 52 H 4.1653 1.6164 -0.0028 0
M  V30 END ATOM
M  V30 BEGIN BOND
M  V30 1 1 1 2
M  V30 2 1 1 3
M  V30 3 1 2 4
M  V30 4 1 3 5
M  V30 5 2 4 6
M  V30 6 1 4 7
M  V30 7 2 5 8
M  V30 8 1 5 9
M  V30 9 1 6 10
M  V30 10 2 7 11
M  V30 11 1 9 12
M  V30 12 2 10 13
M  V30 13 1 12 14
M  V30 14 1 12 15
M  V30 15 1 13 16
M  V30 16 2 14 17
M  V30 17 1 14 18
M  V30 18 1 15 19
M  V30 19 2 16 20
M  V30 20 1 16 21
M  V30 21 1 17 22
M  V30 22 1 17 23
M  V30 23 2 18 24
M  V30 24 1 19 25
M  V30 25 1 19 26
M  V30 26 2 23 27
M  V30 27 1 27 28
M  V30 28 1 11 13
M  V30 29 1 19 22
M  V30 30 1 24 27
M  V30 31 1 2 29
M  V30 32 1 2 30
M  V30 33 1 3 31
M  V30 34 1 3 32
M  V30 35 1 6 33
M  V30 36 1 7 34
M  V30 37 1 9 35
M  V30 38 1 10 36
M  V30 39 1 11 37
M  V30 40 1 12 38
M  V30 41 1 15 39
M  V30 42 1 15 40
M  V30 43 1 18 41
M  V30 44 1 23 42
M  V30 45 1 24 43
M  V30 46 1 25 44
M  V30 47 1 25 45
M  V30 48 1 25 46
M  V30 49 1 26 47
M  V30 50 1 26 48
M  V30 51 1 26 49
M  V30 52 1 28 50
M  V30 53 1 28 51
M  V30 54 1 28 52
M  V30 END BOND
M  V30 BEGIN COLLECTION
M  V30 MDLV30/STEABS ATOMS=(1 12)
M  V30 END COLLECTION
M  V30 END CTAB
M  END
>  <Column 1>
2809

>  <level_0>
4046

>  <index>
4046

>  <Unnamed: 0>
4046

>  <NO.>
4058

>  <Name>
amitriptyline

>  <IUPAC_name>
2-[(4-nitrophenyl)methylsulfanyl]-n-[(4s)-2-2-7-trimethyl-3-4-dihydrochromen-4-yl]acetamide

>  <SMILES>
Cc1ccc2c(c1)OC(C)(C)C[C@@H]2NC(=O)CSCc1ccc([N+](=O)[O-])cc1

>  <CID>
100002160

>  <logBB>


>  <BBB+/BBB->
BBB+

>  <Inchi>
InChI=1S/C21H24N2O4S/c1-14-4-9-17-18(11-21(2-3)27-19(17)10-14)22-20(24)13-28-12-15-5-7-16(8-6-15)23(25)26/h4-10-18H-11-13H2-1-3H3-(H-22-24)/t18-/m0/s1

>  <threshold>
-1

>  <reference>
R16|R16|R10|R10|

>  <group>
B

>  <Class>
1

>  <ABC>
21.85

>  <ABCGG>
16.43

>  <nAcid>
0

>  <nBase>
0

>  <nAromAtom>
12

>  <nAromBond>
12

>  <nAtom>
52

>  <nHeavyAtom>
28

>  <nSpiro>
0

>  <nBridgehead>
0

>  <nHetero>
7

>  <nN>
2

>  <nO>
4

>  <nF>
0

>  <BalabanJ>
1.4

>  <BertzCT>
880.47

>  <nBonds>
54

>  <nBondsO>
30

>  <nBondsS>
40

>  <nBondsD>
2

>  <nBondsT>
0

>  <nBondsA>
12

>  <nBondsM>
14

>  <nBondsKS>
46

>  <nBondsKD>
8

>  <RNCG>
0.22

>  <RPCG>
0.12

>  <FCSP3>
0.38

>  <SZ>
35.33

>  <Sm>
33.34

>  <Sv>
33.06

>  <Sse>
52.38

>  <Sp>
35.56

>  <Si>
58.32

>  <MZ>
0.68

>  <Mm>
0.64

>  <Mv>
0.64

>  <Mse>
1.01

>  <Mp>
0.68

>  <Mi>
1.12

>  <NsCH3>
3

>  <NdCH2>
0

>  <NssCH2>
3

>  <NtCH>
0

>  <NdsCH>
0

>  <NaaCH>
7

>  <NsssCH>
1

>  <NddC>
0

>  <NtsC>
0

>  <NdssC>
1

>  <NaasC>
5

>  <NaaaC>
0

>  <NssssC>
1

>  <NsNH3>
0

>  <NsNH2>
0

>  <NssNH2>
0

>  <NdNH>
0

>  <NssNH>
1

>  <NaaNH>
0

>  <NtN>
0

>  <NsssNH>
0

>  <NdsN>
0

>  <NaaN>
0

>  <NsssN>
0

>  <NddsN>
1

>  <NaasN>
0

>  <NssssN>
0

>  <NsOH>
0

>  <NdO>
2

>  <NssO>
1

>  <NaaO>
0

>  <NsF>
0

>  <NsSiH3>
0

>  <NssSiH2>
0

>  <NsssSiH>
0

>  <NssssSi>
0

>  <NsPH2>
0

>  <NssPH>
0

>  <NsssP>
0

>  <NdsssP>
0

>  <NsssssP>
0

>  <NsSH>
0

>  <NdS>
0

>  <NssS>
1

>  <NaaS>
0

>  <NdssS>
0

>  <NddssS>
0

>  <NsCl>
0

>  <NsBr>
0

>  <NsI>
0

>  <fragCpx>
144.07

>  <fMF>
0.4

>  <nHBAcc>
5

>  <nHBDon>
1

>  <Kier1>
22.68

>  <Kier2>
9.87

>  <Lipinski>
1

>  <GhoseFilter>
1

>  <FilterItLogS>
-6.19

>  <VMcGowan>
299.56

>  <LabuteASA>
168.37

>  <PEOE_VSA1>
10.05

>  <PEOE_VSA2>
14.91

>  <PEOE_VSA3>
0

>  <PEOE_VSA4>
0

>  <PEOE_VSA5>
11.76

>  <PEOE_VSA6>
24.27

>  <PEOE_VSA7>
37.96

>  <PEOE_VSA8>
29.87

>  <PEOE_VSA9>
16.72

>  <PEOE_VSA10>
11.35

>  <PEOE_VSA11>
0

>  <PEOE_VSA12>
5.91

>  <PEOE_VSA13>
5.69

>  <SMR_VSA1>
14.45

>  <SMR_VSA2>
0

>  <SMR_VSA3>
5.32

>  <SMR_VSA4>
0

>  <SMR_VSA5>
44.59

>  <SMR_VSA6>
5.75

>  <SMR_VSA7>
69.27

>  <SMR_VSA8>
0

>  <SMR_VSA9>
5.75

>  <SlogP_VSA1>
10.05

>  <SlogP_VSA2>
22.18

>  <SlogP_VSA3>
10.55

>  <SlogP_VSA4>
17.04

>  <SlogP_VSA5>
43

>  <SlogP_VSA6>
42.46

>  <SlogP_VSA7>
0

>  <SlogP_VSA8>
0

>  <SlogP_VSA9>
0

>  <SlogP_VSA10>
5.69

>  <SlogP_VSA11>
5.75

>  <EState_VSA1>
4.92

>  <EState_VSA2>
23.24

>  <EState_VSA3>
17.93

>  <EState_VSA4>
22.44

>  <EState_VSA5>
23.89

>  <EState_VSA6>
12.13

>  <EState_VSA7>
38.97

>  <EState_VSA8>
5.32

>  <EState_VSA9>
4.74

>  <EState_VSA10>
14.91

>  <VSA_EState1>
6.07

>  <VSA_EState2>
22.75

>  <VSA_EState3>
13.83

>  <VSA_EState4>
2.82

>  <VSA_EState5>
1.76

>  <VSA_EState6>
12.41

>  <VSA_EState7>
0.71

>  <VSA_EState8>
6.08

>  <VSA_EState9>
0

>  <apol>
59.38

>  <bpol>
30.88

>  <nRing>
3

>  <nHRing>
1

>  <naRing>
2

>  <naHRing>
0

>  <nARing 2>
1

>  <nAHRing 2>
1

>  <nFRing>
1

>  <nFHRing>
1

>  <nFaRing>
0

>  <nFaHRing>
0

>  <nFARing 2>
1

>  <nFAHRing 2>
1

>  <nRot>
6

>  <SLogP>
4.56

>  <SMR>
110.65

>  <TopoPSA(NO)>
81.47

>  <TopoPSA>
106.77

>  <JGI1>
0.27

>  <JGI2>
0.08

>  <JGI3>
0.05

>  <JGI4>
0.05

>  <JGI5>
0.04

>  <Diameter>
16

>  <Radius>
8

>  <TMWC10>
133.96

>  <TSRW10>
63.34

>  <MW>
400.15

>  <AMW>
7.7

>  <WPath>
2381

>  <WPol>
42

>  <Zagreb1>
146

>  <Zagreb2>
167

>  <mZagreb2>
6

>  <yes>


>  <nAR-cont>
0.816016

>  <nHA-cont>
0.82432561

>  <MWHBN>
0.299943766

>  <MWHBN-cont>
0.840906723

>  <TPSA-cont>
0.2546791

>  <pka_cont>
0.97

>  <yes.1>


>  <BBB_SCORE>
3.896059894

>  <MMFF94 Energy>
83.903

$$$$
Compound 2299
Actelion Java MolfileCreator 2.0

  0  0  0  0  0  0              0 V3000
M  V30 BEGIN CTAB
M  V30 COUNTS 50 52 0 0 0
M  V30 BEGIN ATOM
M  V30 1 S 0.3207 2.4877 -2.6483 0
M  V30 2 C 1.9824 2.0425 -2.1615 0
M  V30 3 C -0.3599 0.9392 -3.3687 0 CFG=1
M  V30 4 C 2.574 2.8162 -1.1526 0
M  V30 5 C 2.7244 1.0026 -2.7284 0
M  V30 6 C -0.3268 -0.2302 -2.385 0
M  V30 7 C -1.8023 1.1948 -3.7957 0
M  V30 8 C 3.8673 2.5407 -0.7024 0
M  V30 9 C 4.0179 0.7238 -2.2754 0
M  V30 10 O -0.062 -1.3717 -2.7594 0
M  V30 11 N -0.6858 0.06 -1.0911 0
M  V30 12 C 4.5876 1.4898 -1.2615 0
M  V30 13 C -0.7754 -0.9562 -0.0536 0 CFG=1
M  V30 14 C -0.4596 -0.3835 1.305 0
M  V30 15 C -2.1764 -1.5658 -0.0699 0
M  V30 16 C -1.2444 -0.7068 2.4146 0
M  V30 17 C 0.6636 0.4428 1.4913 0
M  V30 18 C -2.4465 -2.3758 1.2014 0
M  V30 19 O -2.3181 -1.5533 2.3743 0
M  V30 20 C -0.9621 -0.1532 3.6638 0
M  V30 21 C 0.9691 0.9822 2.7478 0
M  V30 22 C -1.5402 -3.6091 1.336 0
M  V30 23 C -3.9079 -2.8499 1.1839 0
M  V30 24 C 0.134 0.6936 3.8299 0
M  V30 25 C 2.1529 1.8888 2.9081 0
M  V30 26 H 0.2282 0.674 -4.2527 0
M  V30 27 H 2.0291 3.6434 -0.7017 0
M  V30 28 H 2.3286 0.3887 -3.5312 0
M  V30 29 H -1.8615 1.9847 -4.5524 0
M  V30 30 H -2.4401 1.4763 -2.9497 0
M  V30 31 H -2.2355 0.2878 -4.2329 0
M  V30 32 H 4.31 3.148 0.0827 0
M  V30 33 H 4.5812 -0.0929 -2.7202 0
M  V30 34 H -0.8721 1.0254 -0.8424 0
M  V30 35 H 5.5939 1.2714 -0.9137 0
M  V30 36 H -0.0365 -1.7379 -0.2696 0
M  V30 37 H -2.9146 -0.7525 -0.1358 0
M  V30 38 H -2.3115 -2.1809 -0.9686 0
M  V30 39 H 1.3132 0.6636 0.6459 0
M  V30 40 H -1.5933 -0.3938 4.5153 0
M  V30 41 H -0.4852 -3.338 1.4433 0
M  V30 42 H -1.7956 -4.1784 2.2374 0
M  V30 43 H -1.6376 -4.2717 0.4699 0
M  V30 44 H -4.1129 -3.498 0.3255 0
M  V30 45 H -4.595 -1.9965 1.1467 0
M  V30 46 H -4.152 -3.3996 2.1004 0
M  V30 47 H 0.3374 1.1117 4.8128 0
M  V30 48 H 2.4318 1.996 3.9615 0
M  V30 49 H 3.0216 1.4817 2.3804 0
M  V30 50 H 1.9221 2.8807 2.5074 0
M  V30 END ATOM
M  V30 BEGIN BOND
M  V30 1 1 1 2
M  V30 2 1 1 3
M  V30 3 2 2 4
M  V30 4 1 2 5
M  V30 5 1 3 6
M  V30 6 1 3 7
M  V30 7 1 4 8
M  V30 8 2 5 9
M  V30 9 2 6 10
M  V30 10 1 6 11
M  V30 11 2 8 12
M  V30 12 1 11 13
M  V30 13 1 13 14
M  V30 14 1 13 15
M  V30 15 2 14 16
M  V30 16 1 14 17
M  V30 17 1 15 18
M  V30 18 1 16 19
M  V30 19 1 16 20
M  V30 20 2 17 21
M  V30 21 1 18 22
M  V30 22 1 18 23
M  V30 23 2 20 24
M  V30 24 1 21 25
M  V30 25 1 9 12
M  V30 26 1 18 19
M  V30 27 1 21 24
M  V30 28 1 3 26
M  V30 29 1 4 27
M  V30 30 1 5 28
M  V30 31 1 7 29
M  V30 32 1 7 30
M  V30 33 1 7 31
M  V30 34 1 8 32
M  V30 35 1 9 33
M  V30 36 1 11 34
M  V30 37 1 12 35
M  V30 38 1 13 36
M  V30 39 1 15 37
M  V30 40 1 15 38
M  V30 41 1 17 39
M  V30 42 1 20 40
M  V30 43 1 22 41
M  V30 44 1 22 42
M  V30 45 1 22 43
M  V30 46 1 23 44
M  V30 47 1 23 45
M  V30 48 1 23 46
M  V30 49 1 24 47
M  V30 50 1 25 48
M  V30 51 1 25 49
M  V30 52 1 25 50
M  V30 END BOND
M  V30 BEGIN COLLECTION
M  V30 MDLV30/STEABS ATOMS=(2 3 13)
M  V30 END COLLECTION
M  V30 END CTAB
M  END
>  <Column 1>
2810

>  <level_0>
4048

>  <index>
4048

>  <Unnamed: 0>
4048

>  <NO.>
4060

>  <Name>
buprenorphine

>  <IUPAC_name>
(2r)-2-phenylsulfanyl-n-[(4r)-2-2-6-trimethyl-3-4-dihydrochromen-4-yl]propanamide

>  <SMILES>
Cc1ccc2c(c1)[C@H](NC(=O)[C@@H](C)Sc1ccccc1)CC(C)(C)O2

>  <CID>
100002476

>  <logBB>


>  <BBB+/BBB->
BBB+

>  <Inchi>
InChI=1S/C21H25NO2S/c1-14-10-11-19-17(12-14)18(13-21(3-4)24-19)22-20(23)15(2)25-16-8-6-5-7-9-16/h5-12-15-18H-13H2-1-4H3-(H-22-23)/t15--18-/m1/s1

>  <threshold>
-1

>  <reference>
R16|R10|

>  <group>
B

>  <Class>
1

>  <ABC>
19.62

>  <ABCGG>
15.64

>  <nAcid>
0

>  <nBase>
0

>  <nAromAtom>
12

>  <nAromBond>
12

>  <nAtom>
50

>  <nHeavyAtom>
25

>  <nSpiro>
0

>  <nBridgehead>
0

>  <nHetero>
4

>  <nN>
1

>  <nO>
2

>  <nF>
0

>  <BalabanJ>
1.58

>  <BertzCT>
757.75

>  <nBonds>
52

>  <nBondsO>
27

>  <nBondsS>
39

>  <nBondsD>
1

>  <nBondsT>
0

>  <nBondsA>
12

>  <nBondsM>
13

>  <nBondsKS>
45

>  <nBondsKD>
7

>  <RNCG>
0.27

>  <RPCG>
0.13

>  <FCSP3>
0.38

>  <SZ>
31.67

>  <Sm>
29.6

>  <Sv>
31.15

>  <Sse>
49.5

>  <Sp>
34.34

>  <Si>
55.82

>  <MZ>
0.63

>  <Mm>
0.59

>  <Mv>
0.62

>  <Mse>
0.99

>  <Mp>
0.69

>  <Mi>
1.12

>  <NsCH3>
4

>  <NdCH2>
0

>  <NssCH2>
1

>  <NtCH>
0

>  <NdsCH>
0

>  <NaaCH>
8

>  <NsssCH>
2

>  <NddC>
0

>  <NtsC>
0

>  <NdssC>
1

>  <NaasC>
4

>  <NaaaC>
0

>  <NssssC>
1

>  <NsNH3>
0

>  <NsNH2>
0

>  <NssNH2>
0

>  <NdNH>
0

>  <NssNH>
1

>  <NaaNH>
0

>  <NtN>
0

>  <NsssNH>
0

>  <NdsN>
0

>  <NaaN>
0

>  <NsssN>
0

>  <NddsN>
0

>  <NaasN>
0

>  <NssssN>
0

>  <NsOH>
0

>  <NdO>
1

>  <NssO>
1

>  <NaaO>
0

>  <NsF>
0

>  <NsSiH3>
0

>  <NssSiH2>
0

>  <NsssSiH>
0

>  <NssssSi>
0

>  <NsPH2>
0

>  <NssPH>
0

>  <NsssP>
0

>  <NdsssP>
0

>  <NsssssP>
0

>  <NsSH>
0

>  <NdS>
0

>  <NssS>
1

>  <NaaS>
0

>  <NdssS>
0

>  <NddssS>
0

>  <NsCl>
0

>  <NsBr>
0

>  <NsI>
0

>  <fragCpx>
129.04

>  <fMF>
0.4

>  <nHBAcc>
3

>  <nHBDon>
1

>  <Kier1>
19.75

>  <Kier2>
8.35

>  <Lipinski>
1

>  <GhoseFilter>
1

>  <FilterItLogS>
-5.7

>  <VMcGowan>
282.14

>  <LabuteASA>
153.72

>  <PEOE_VSA1>
10.05

>  <PEOE_VSA2>
4.79

>  <PEOE_VSA3>
0

>  <PEOE_VSA4>
0

>  <PEOE_VSA5>
11.76

>  <PEOE_VSA6>
35.9

>  <PEOE_VSA7>
45.89

>  <PEOE_VSA8>
16.88

>  <PEOE_VSA9>
11.29

>  <PEOE_VSA10>
11.35

>  <PEOE_VSA11>
0

>  <PEOE_VSA12>
5.91

>  <PEOE_VSA13>
0

>  <SMR_VSA1>
9.53

>  <SMR_VSA2>
0

>  <SMR_VSA3>
5.32

>  <SMR_VSA4>
0

>  <SMR_VSA5>
55.9

>  <SMR_VSA6>
0

>  <SMR_VSA7>
59.66

>  <SMR_VSA8>
0

>  <SMR_VSA9>
5.75

>  <SlogP_VSA1>
10.05

>  <SlogP_VSA2>
16.76

>  <SlogP_VSA3>
4.79

>  <SlogP_VSA4>
6.92

>  <SlogP_VSA5>
44.36

>  <SlogP_VSA6>
53.43

>  <SlogP_VSA7>
0

>  <SlogP_VSA8>
0

>  <SlogP_VSA9>
0

>  <SlogP_VSA10>
0

>  <SlogP_VSA11>
5.75

>  <EState_VSA1>
0

>  <EState_VSA2>
22.8

>  <EState_VSA3>
0

>  <EState_VSA4>
22.63

>  <EState_VSA5>
5.56

>  <EState_VSA6>
11.76

>  <EState_VSA7>
49.39

>  <EState_VSA8>
32.15

>  <EState_VSA9>
4.74

>  <EState_VSA10>
4.79

>  <VSA_EState1>
6.09

>  <VSA_EState2>
13.85

>  <VSA_EState3>
3.09

>  <VSA_EState4>
1.95

>  <VSA_EState5>
0.93

>  <VSA_EState6>
16.18

>  <VSA_EState7>
0.76

>  <VSA_EState8>
8.15

>  <VSA_EState9>
0

>  <apol>
57.34

>  <bpol>
30.71

>  <nRing>
3

>  <nHRing>
1

>  <naRing>
2

>  <naHRing>
0

>  <nARing 2>
1

>  <nAHRing 2>
1

>  <nFRing>
1

>  <nFHRing>
1

>  <nFaRing>
0

>  <nFaHRing>
0

>  <nFARing 2>
1

>  <nFAHRing 2>
1

>  <nRot>
4

>  <SLogP>
4.89

>  <SMR>
103.15

>  <TopoPSA(NO)>
38.33

>  <TopoPSA>
63.63

>  <JGI1>
0.26

>  <JGI2>
0.07

>  <JGI3>
0.05

>  <JGI4>
0.06

>  <JGI5>
0.03

>  <Diameter>
12

>  <Radius>
6

>  <TMWC10>
127.31

>  <TSRW10>
59.9

>  <MW>
355.16

>  <AMW>
7.1

>  <WPath>
1542

>  <WPol>
38

>  <Zagreb1>
132

>  <Zagreb2>
152

>  <mZagreb2>
5.33

>  <yes>


>  <nAR-cont>
0.816016

>  <nHA-cont>
0.921834225

>  <MWHBN>
0.212250131

>  <MWHBN-cont>
0.998682949

>  <TPSA-cont>
0.555823088

>  <pka_cont>
0.97

>  <yes.1>


>  <BBB_SCORE>
4.832520825

>  <MMFF94 Energy>
35.395

$$$$
Compound 2300
Actelion Java MolfileCreator 2.0

  0  0  0  0  0  0              0 V3000
M  V30 BEGIN CTAB
M  V30 COUNTS 44 46 0 0 0
M  V30 BEGIN ATOM
M  V30 1 Cl -5.2283 -4.6554 1.3051 0
M  V30 2 C -4.7033 -3.2291 2.1102 0
M  V30 3 C -3.9743 -3.3294 3.2933 0
M  V30 4 C -5.0138 -1.9794 1.5787 0
M  V30 5 C -3.5468 -2.1697 3.9469 0
M  V30 6 C -4.5855 -0.8211 2.2334 0
M  V30 7 C -3.8383 -0.9096 3.4135 0
M  V30 8 S -3.3186 0.5934 4.2203 0
M  V30 9 C -1.5079 0.3377 4.3005 0
M  V30 10 C -0.869 0.4326 2.9214 0
M  V30 11 C 0.6312 0.2583 3.0074 0
M  V30 12 O 1.2345 0.0254 4.0485 0
M  V30 13 N 1.262 0.3789 1.7951 0
M  V30 14 C 2.7004 0.2393 1.6825 0
M  V30 15 C 3.1107 0.4116 0.2691 0
M  V30 16 O 4.4417 0.3152 0.003 0
M  V30 17 N 2.3789 0.6489 -0.7989 0
M  V30 18 N 4.585 0.5084 -1.3676 0
M  V30 19 C 3.3276 0.7033 -1.8021 0
M  V30 20 C 2.9747 0.9507 -3.197 0
M  V30 21 C 1.6324 1.1385 -3.565 0
M  V30 22 C 3.9596 1.003 -4.1937 0
M  V30 23 C 1.2742 1.3846 -4.8992 0
M  V30 24 C 3.6104 1.2328 -5.526 0
M  V30 25 C 2.2735 1.4173 -5.8773 0
M  V30 26 C -0.1676 1.5491 -5.2795 0
M  V30 27 H -3.7417 -4.3031 3.7164 0
M  V30 28 H -5.5909 -1.898 0.6614 0
M  V30 29 H -2.9979 -2.2645 4.8807 0
M  V30 30 H -4.8405 0.1498 1.8141 0
M  V30 31 H -1.281 -0.6184 4.7828 0
M  V30 32 H -1.1024 1.1206 4.9515 0
M  V30 33 H -1.0727 1.4099 2.4671 0
M  V30 34 H -1.2542 -0.3446 2.2515 0
M  V30 35 H 0.7352 0.5682 0.9482 0
M  V30 36 H 3.1724 0.9951 2.3186 0
M  V30 37 H 2.982 -0.7528 2.05 0
M  V30 38 H 0.8541 1.0937 -2.8049 0
M  V30 39 H 5.0092 0.8612 -3.9433 0
M  V30 40 H 4.3825 1.2649 -6.2907 0
M  V30 41 H 2.0166 1.5879 -6.9207 0
M  V30 42 H -0.2691 2.1917 -6.1605 0
M  V30 43 H -0.6098 0.5729 -5.501 0
M  V30 44 H -0.7339 2.0193 -4.4685 0
M  V30 END ATOM
M  V30 BEGIN BOND
M  V30 1 1 1 2
M  V30 2 2 2 3
M  V30 3 1 2 4
M  V30 4 1 3 5
M  V30 5 2 4 6
M  V30 6 2 5 7
M  V30 7 1 7 8
M  V30 8 1 8 9
M  V30 9 1 9 10
M  V30 10 1 10 11
M  V30 11 2 11 12
M  V30 12 1 11 13
M  V30 13 1 13 14
M  V30 14 1 14 15
M  V30 15 1 15 16
M  V30 16 2 15 17
M  V30 17 1 16 18
M  V30 18 1 17 19
M  V30 19 1 19 20
M  V30 20 2 20 21
M  V30 21 1 20 22
M  V30 22 1 21 23
M  V30 23 2 22 24
M  V30 24 2 23 25
M  V30 25 1 23 26
M  V30 26 1 6 7
M  V30 27 2 18 19
M  V30 28 1 24 25
M  V30 29 1 3 27
M  V30 30 1 4 28
M  V30 31 1 5 29
M  V30 32 1 6 30
M  V30 33 1 9 31
M  V30 34 1 9 32
M  V30 35 1 10 33
M  V30 36 1 10 34
M  V30 37 1 13 35
M  V30 38 1 14 36
M  V30 39 1 14 37
M  V30 40 1 21 38
M  V30 41 1 22 39
M  V30 42 1 24 40
M  V30 43 1 25 41
M  V30 44 1 26 42
M  V30 45 1 26 43
M  V30 46 1 26 44
M  V30 END BOND
M  V30 END CTAB
M  END
>  <Column 1>
2811

>  <level_0>
4049

>  <index>
4049

>  <Unnamed: 0>
4049

>  <NO.>
4061

>  <Name>
hydroxycarbamide

>  <IUPAC_name>
3-(4-chlorophenyl)sulfanyl-n-[[3-(3-methylphenyl)-1-2-4-oxadiazol-5-yl]methyl]propanamide

>  <SMILES>
Cc1cccc(-c2noc(CNC(=O)CCSc3ccc(Cl)cc3)n2)c1

>  <CID>
100003657

>  <logBB>


>  <BBB+/BBB->
BBB+

>  <Inchi>
InChI=1S/C19H18ClN3O2S/c1-13-3-2-4-14(11-13)19-22-18(25-23-19)12-21-17(24)9-10-26-16-7-5-15(20)6-8-16/h2-8-11H-9-10-12H2-1H3-(H-21-24)

>  <threshold>
-1

>  <reference>
R16|R10|

>  <group>
B

>  <Class>
-1

>  <ABC>
20.09

>  <ABCGG>
15.13

>  <nAcid>
0

>  <nBase>
0

>  <nAromAtom>
17

>  <nAromBond>
17

>  <nAtom>
44

>  <nHeavyAtom>
26

>  <nSpiro>
0

>  <nBridgehead>
0

>  <nHetero>
7

>  <nN>
3

>  <nO>
2

>  <nF>
0

>  <BalabanJ>
1.25

>  <BertzCT>
880.5

>  <nBonds>
46

>  <nBondsO>
28

>  <nBondsS>
28

>  <nBondsD>
1

>  <nBondsT>
0

>  <nBondsA>
17

>  <nBondsM>
18

>  <nBondsKS>
37

>  <nBondsKD>
9

>  <RNCG>
0.18

>  <RPCG>
0.13

>  <FCSP3>
0.21

>  <SZ>
33.67

>  <Sm>
32.29

>  <Sv>
29.86

>  <Sse>
44.48

>  <Sp>
32.17

>  <Si>
49.1

>  <MZ>
0.77

>  <Mm>
0.73

>  <Mv>
0.68

>  <Mse>
1.01

>  <Mp>
0.73

>  <Mi>
1.12

>  <NsCH3>
1

>  <NdCH2>
0

>  <NssCH2>
3

>  <NtCH>
0

>  <NdsCH>
0

>  <NaaCH>
8

>  <NsssCH>
0

>  <NddC>
0

>  <NtsC>
0

>  <NdssC>
1

>  <NaasC>
6

>  <NaaaC>
0

>  <NssssC>
0

>  <NsNH3>
0

>  <NsNH2>
0

>  <NssNH2>
0

>  <NdNH>
0

>  <NssNH>
1

>  <NaaNH>
0

>  <NtN>
0

>  <NsssNH>
0

>  <NdsN>
0

>  <NaaN>
2

>  <NsssN>
0

>  <NddsN>
0

>  <NaasN>
0

>  <NssssN>
0

>  <NsOH>
0

>  <NdO>
1

>  <NssO>
0

>  <NaaO>
1

>  <NsF>
0

>  <NsSiH3>
0

>  <NssSiH2>
0

>  <NsssSiH>
0

>  <NssssSi>
0

>  <NsPH2>
0

>  <NssPH>
0

>  <NsssP>
0

>  <NdsssP>
0

>  <NsssssP>
0

>  <NsSH>
0

>  <NdS>
0

>  <NssS>
1

>  <NaaS>
0

>  <NdssS>
0

>  <NddssS>
0

>  <NsCl>
1

>  <NsBr>
0

>  <NsI>
0

>  <fragCpx>
134.07

>  <fMF>
0.52

>  <nHBAcc>
5

>  <nHBDon>
1

>  <Kier1>
20.73

>  <Kier2>
10.52

>  <Lipinski>
1

>  <GhoseFilter>
1

>  <FilterItLogS>
-6.95

>  <VMcGowan>
277.56

>  <LabuteASA>
160.69

>  <PEOE_VSA1>
9.84

>  <PEOE_VSA2>
4.79

>  <PEOE_VSA3>
0

>  <PEOE_VSA4>
4.98

>  <PEOE_VSA5>
11.76

>  <PEOE_VSA6>
40.52

>  <PEOE_VSA7>
37.26

>  <PEOE_VSA8>
27.66

>  <PEOE_VSA9>
6.54

>  <PEOE_VSA10>
0

>  <PEOE_VSA11>
0

>  <PEOE_VSA12>
17.62

>  <PEOE_VSA13>
0

>  <SMR_VSA1>
9.32

>  <SMR_VSA2>
0

>  <SMR_VSA3>
15.46

>  <SMR_VSA4>
0

>  <SMR_VSA5>
24.78

>  <SMR_VSA6>
5.75

>  <SMR_VSA7>
65.01

>  <SMR_VSA8>
0

>  <SMR_VSA9>
11.39

>  <SlogP_VSA1>
5.32

>  <SlogP_VSA2>
21.8

>  <SlogP_VSA3>
11.34

>  <SlogP_VSA4>
6.92

>  <SlogP_VSA5>
17.88

>  <SlogP_VSA6>
57.95

>  <SlogP_VSA7>
5.02

>  <SlogP_VSA8>
11.39

>  <SlogP_VSA9>
0

>  <SlogP_VSA10>
0

>  <SlogP_VSA11>
0

>  <EState_VSA1>
0

>  <EState_VSA2>
12.45

>  <EState_VSA3>
28.91

>  <EState_VSA4>
16.02

>  <EState_VSA5>
0

>  <EState_VSA6>
11.76

>  <EState_VSA7>
55.45

>  <EState_VSA8>
15.46

>  <EState_VSA9>
16.12

>  <EState_VSA10>
4.79

>  <VSA_EState1>
5.2

>  <VSA_EState2>
17.35

>  <VSA_EState3>
7.47

>  <VSA_EState4>
2.02

>  <VSA_EState5>
1.55

>  <VSA_EState6>
15.42

>  <VSA_EState7>
0.41

>  <VSA_EState8>
2.23

>  <VSA_EState9>
0

>  <apol>
53.72

>  <bpol>
25.34

>  <nRing>
3

>  <nHRing>
1

>  <naRing>
3

>  <naHRing>
1

>  <nARing 2>
0

>  <nAHRing 2>
0

>  <nFRing>
0

>  <nFHRing>
0

>  <nFaRing>
0

>  <nFaHRing>
0

>  <nFARing 2>
0

>  <nFAHRing 2>
0

>  <nRot>
7

>  <SLogP>
4.5

>  <SMR>
103.11

>  <TopoPSA(NO)>
68.02

>  <TopoPSA>
93.32

>  <JGI1>
0.2

>  <JGI2>
0.07

>  <JGI3>
0.03

>  <JGI4>
0.04

>  <JGI5>
0.02

>  <Diameter>
17

>  <Radius>
9

>  <TMWC10>
127.65

>  <TSRW10>
73.87

>  <MW>
387.08

>  <AMW>
8.8

>  <WPath>
2149

>  <WPol>
33

>  <Zagreb1>
130

>  <Zagreb2>
146

>  <mZagreb2>
5.78

>  <yes>


>  <nAR-cont>
0.336376

>  <nHA-cont>
0.892715677

>  <MWHBN>
0.304965621

>  <MWHBN-cont>
0.825653503

>  <TPSA-cont>
0.348568452

>  <pka_cont>
0.97

>  <yes.1>


>  <BBB_SCORE>
3.649708835

>  <MMFF94 Energy>
25.457

$$$$
Compound 2301
Actelion Java MolfileCreator 2.0

  0  0  0  0  0  0              0 V3000
M  V30 BEGIN CTAB
M  V30 COUNTS 48 49 0 0 0
M  V30 BEGIN ATOM
M  V30 1 S 2.3252 -0.8013 -0.9616 0
M  V30 2 C 2.8968 -1.8882 0.387 0
M  V30 3 C 0.8021 -1.6903 -1.4131 0
M  V30 4 C 4.2716 -1.4789 0.8606 0
M  V30 5 C -0.1677 -1.7192 -0.2472 0
M  V30 6 C 4.4154 -0.5453 1.8997 0
M  V30 7 C 5.4205 -2.0039 0.2477 0
M  V30 8 O -0.3122 -2.716 0.4554 0
M  V30 9 N -0.8383 -0.535 -0.0375 0
M  V30 10 C 5.6841 -0.1502 2.3305 0
M  V30 11 C 6.6935 -1.6149 0.6715 0
M  V30 12 C -1.8348 -0.3703 1.0195 0 CFG=2
M  V30 13 C 6.82 -0.6884 1.7138 0
M  V30 14 C -2.7488 0.836 0.7338 0
M  V30 15 C -1.1533 -0.2036 2.3768 0
M  V30 16 N 8.1553 -0.2749 2.1615 0 CHG=1
M  V30 17 O -3.4202 0.6136 -0.5085 0
M  V30 18 O 9.136 -0.7775 1.5943 0
M  V30 19 O 8.2252 0.5518 3.0826 0 CHG=-1
M  V30 20 C -4.2433 1.605 -0.9735 0
M  V30 21 C -4.8278 1.3679 -2.2313 0
M  V30 22 C -4.529 2.7931 -0.2938 0
M  V30 23 C -5.6855 2.329 -2.7873 0
M  V30 24 C -4.5461 0.0962 -2.9828 0
M  V30 25 C -5.3845 3.7425 -0.8587 0
M  V30 26 C -5.9614 3.5115 -2.1036 0
M  V30 27 H 2.9223 -2.9264 0.0377 0
M  V30 28 H 2.196 -1.8399 1.2271 0
M  V30 29 H 1.0387 -2.7128 -1.7223 0
M  V30 30 H 0.3345 -1.1835 -2.2632 0
M  V30 31 H 3.5349 -0.1165 2.3756 0
M  V30 32 H 5.3274 -2.7161 -0.5704 0
M  V30 33 H -0.6473 0.2504 -0.6495 0
M  V30 34 H 5.7676 0.5745 3.1376 0
M  V30 35 H 7.5673 -2.0364 0.1792 0
M  V30 36 H -2.4423 -1.2837 1.03 0
M  V30 37 H -3.4865 0.9314 1.5398 0
M  V30 38 H -2.1417 1.7481 0.6707 0
M  V30 39 H -1.8946 -0.0924 3.1749 0
M  V30 40 H -0.5298 -1.0706 2.6181 0
M  V30 41 H -0.5043 0.6791 2.3865 0
M  V30 42 H -4.1068 3.0133 0.6804 0
M  V30 43 H -6.1455 2.1597 -3.7582 0
M  V30 44 H -3.4739 0.0045 -3.1847 0
M  V30 45 H -5.0674 0.0742 -3.9456 0
M  V30 46 H -4.8828 -0.7689 -2.4028 0
M  V30 47 H -5.6021 4.6634 -0.3235 0
M  V30 48 H -6.6279 4.2501 -2.5415 0
M  V30 END ATOM
M  V30 BEGIN BOND
M  V30 1 1 1 2
M  V30 2 1 1 3
M  V30 3 1 2 4
M  V30 4 1 3 5
M  V30 5 2 4 6
M  V30 6 1 4 7
M  V30 7 2 5 8
M  V30 8 1 5 9
M  V30 9 1 6 10
M  V30 10 2 7 11
M  V30 11 1 9 12
M  V30 12 2 10 13
M  V30 13 1 12 14
M  V30 14 1 12 15
M  V30 15 1 13 16
M  V30 16 1 14 17
M  V30 17 2 16 18
M  V30 18 1 16 19
M  V30 19 1 17 20
M  V30 20 2 20 21
M  V30 21 1 20 22
M  V30 22 1 21 23
M  V30 23 1 21 24
M  V30 24 2 22 25
M  V30 25 2 23 26
M  V30 26 1 11 13
M  V30 27 1 25 26
M  V30 28 1 2 27
M  V30 29 1 2 28
M  V30 30 1 3 29
M  V30 31 1 3 30
M  V30 32 1 6 31
M  V30 33 1 7 32
M  V30 34 1 9 33
M  V30 35 1 10 34
M  V30 36 1 11 35
M  V30 37 1 12 36
M  V30 38 1 14 37
M  V30 39 1 14 38
M  V30 40 1 15 39
M  V30 41 1 15 40
M  V30 42 1 15 41
M  V30 43 1 22 42
M  V30 44 1 23 43
M  V30 45 1 24 44
M  V30 46 1 24 45
M  V30 47 1 24 46
M  V30 48 1 25 47
M  V30 49 1 26 48
M  V30 END BOND
M  V30 BEGIN COLLECTION
M  V30 MDLV30/STEABS ATOMS=(1 12)
M  V30 END COLLECTION
M  V30 END CTAB
M  END
>  <Column 1>
2813

>  <level_0>
4051

>  <index>
4051

>  <Unnamed: 0>
4051

>  <NO.>
4063

>  <Name>
amantadine

>  <IUPAC_name>
n-[(2s)-1-(2-methylphenoxy)propan-2-yl]-2-[(4-nitrophenyl)methylsulfanyl]acetamide

>  <SMILES>
Cc1ccccc1OC[C@H](C)NC(=O)CSCc1ccc([N+](=O)[O-])cc1

>  <CID>
100002130

>  <logBB>


>  <BBB+/BBB->
BBB+

>  <Inchi>
InChI=1S/C19H22N2O4S/c1-14-5-3-4-6-18(14)25-11-15(2)20-19(22)13-26-12-16-7-9-17(10-8-16)21(23)24/h3-10-15H-11-13H2-1-2H3-(H-20-22)/t15-/m0/s1

>  <threshold>
-1

>  <reference>
R16|R16|R10|R10|

>  <group>
B

>  <Class>
-1

>  <ABC>
19.56

>  <ABCGG>
15.11

>  <nAcid>
0

>  <nBase>
0

>  <nAromAtom>
12

>  <nAromBond>
12

>  <nAtom>
48

>  <nHeavyAtom>
26

>  <nSpiro>
0

>  <nBridgehead>
0

>  <nHetero>
7

>  <nN>
2

>  <nO>
4

>  <nF>
0

>  <BalabanJ>
1.52

>  <BertzCT>
749.46

>  <nBonds>
49

>  <nBondsO>
27

>  <nBondsS>
35

>  <nBondsD>
2

>  <nBondsT>
0

>  <nBondsA>
12

>  <nBondsM>
14

>  <nBondsKS>
41

>  <nBondsKD>
8

>  <RNCG>
0.22

>  <RPCG>
0.12

>  <FCSP3>
0.32

>  <SZ>
33

>  <Sm>
31.18

>  <Sv>
30.52

>  <Sse>
48.49

>  <Sp>
32.76

>  <Si>
53.91

>  <MZ>
0.69

>  <Mm>
0.65

>  <Mv>
0.64

>  <Mse>
1.01

>  <Mp>
0.68

>  <Mi>
1.12

>  <NsCH3>
2

>  <NdCH2>
0

>  <NssCH2>
3

>  <NtCH>
0

>  <NdsCH>
0

>  <NaaCH>
8

>  <NsssCH>
1

>  <NddC>
0

>  <NtsC>
0

>  <NdssC>
1

>  <NaasC>
4

>  <NaaaC>
0

>  <NssssC>
0

>  <NsNH3>
0

>  <NsNH2>
0

>  <NssNH2>
0

>  <NdNH>
0

>  <NssNH>
1

>  <NaaNH>
0

>  <NtN>
0

>  <NsssNH>
0

>  <NdsN>
0

>  <NaaN>
0

>  <NsssN>
0

>  <NddsN>
1

>  <NaasN>
0

>  <NssssN>
0

>  <NsOH>
0

>  <NdO>
2

>  <NssO>
1

>  <NaaO>
0

>  <NsF>
0

>  <NsSiH3>
0

>  <NssSiH2>
0

>  <NsssSiH>
0

>  <NssssSi>
0

>  <NsPH2>
0

>  <NssPH>
0

>  <NsssP>
0

>  <NdsssP>
0

>  <NsssssP>
0

>  <NsSH>
0

>  <NdS>
0

>  <NssS>
1

>  <NaaS>
0

>  <NdssS>
0

>  <NddssS>
0

>  <NsCl>
0

>  <NsBr>
0

>  <NsI>
0

>  <fragCpx>
79.07

>  <fMF>
0.42

>  <nHBAcc>
5

>  <nHBDon>
1

>  <Kier1>
22.29

>  <Kier2>
11.76

>  <Lipinski>
1

>  <GhoseFilter>
1

>  <FilterItLogS>
-5.54

>  <VMcGowan>
282.24

>  <LabuteASA>
156.64

>  <PEOE_VSA1>
10.05

>  <PEOE_VSA2>
14.91

>  <PEOE_VSA3>
0

>  <PEOE_VSA4>
0

>  <PEOE_VSA5>
11.76

>  <PEOE_VSA6>
30.33

>  <PEOE_VSA7>
31.04

>  <PEOE_VSA8>
17.89

>  <PEOE_VSA9>
16.72

>  <PEOE_VSA10>
12.36

>  <PEOE_VSA11>
0

>  <PEOE_VSA12>
5.91

>  <PEOE_VSA13>
5.69

>  <SMR_VSA1>
14.45

>  <SMR_VSA2>
0

>  <SMR_VSA3>
5.32

>  <SMR_VSA4>
0

>  <SMR_VSA5>
25.64

>  <SMR_VSA6>
12.36

>  <SMR_VSA7>
69.77

>  <SMR_VSA8>
0

>  <SMR_VSA9>
5.75

>  <SlogP_VSA1>
10.05

>  <SlogP_VSA2>
29.23

>  <SlogP_VSA3>
10.55

>  <SlogP_VSA4>
17.04

>  <SlogP_VSA5>
18.05

>  <SlogP_VSA6>
48.53

>  <SlogP_VSA7>
0

>  <SlogP_VSA8>
0

>  <SlogP_VSA9>
0

>  <SlogP_VSA10>
5.69

>  <SlogP_VSA11>
5.75

>  <EState_VSA1>
4.92

>  <EState_VSA2>
17.64

>  <EState_VSA3>
18.11

>  <EState_VSA4>
16.88

>  <EState_VSA5>
23.89

>  <EState_VSA6>
12.13

>  <EState_VSA7>
38.11

>  <EState_VSA8>
5.32

>  <EState_VSA9>
4.74

>  <EState_VSA10>
14.91

>  <VSA_EState1>
5.73

>  <VSA_EState2>
22.18

>  <VSA_EState3>
13.52

>  <VSA_EState4>
2.08

>  <VSA_EState5>
1.71

>  <VSA_EState6>
14.03

>  <VSA_EState7>
0

>  <VSA_EState8>
4.29

>  <VSA_EState9>
0

>  <apol>
54.71

>  <bpol>
28.87

>  <nRing>
2

>  <nHRing>
0

>  <naRing>
2

>  <naHRing>
0

>  <nARing 2>
0

>  <nAHRing 2>
0

>  <nFRing>
0

>  <nFHRing>
0

>  <nFaRing>
0

>  <nFaHRing>
0

>  <nFARing 2>
0

>  <nFAHRing 2>
0

>  <nRot>
9

>  <SLogP>
3.72

>  <SMR>
103.54

>  <TopoPSA(NO)>
81.47

>  <TopoPSA>
106.77

>  <JGI1>
0.2

>  <JGI2>
0.08

>  <JGI3>
0.04

>  <JGI4>
0.03

>  <JGI5>
0.03

>  <Diameter>
17

>  <Radius>
9

>  <TMWC10>
125.55

>  <TSRW10>
60

>  <MW>
374.13

>  <AMW>
7.79

>  <WPath>
2189

>  <WPol>
34

>  <Zagreb1>
124

>  <Zagreb2>
137

>  <mZagreb2>
5.89

>  <yes>


>  <nAR-cont>
0.336376

>  <nHA-cont>
0.892715677

>  <MWHBN>
0.310198707

>  <MWHBN-cont>
0.809236485

>  <TPSA-cont>
0.2546791

>  <pka_cont>
0.97

>  <yes.1>


>  <BBB_SCORE>
3.437304604

>  <MMFF94 Energy>
95.063

$$$$
Compound 2302
Actelion Java MolfileCreator 2.0

  0  0  0  0  0  0              0 V3000
M  V30 BEGIN CTAB
M  V30 COUNTS 46 47 0 0 0
M  V30 BEGIN ATOM
M  V30 1 S 1.6745 1.3554 -2.5526 0
M  V30 2 C 2.1463 -0.2322 -1.8999 0
M  V30 3 C 2.157 2.4496 -1.1554 0 CFG=2
M  V30 4 C 3.4886 -0.5508 -1.6718 0
M  V30 5 C 1.1596 -1.1789 -1.6156 0
M  V30 6 C 1.0655 2.4225 -0.0791 0
M  V30 7 C 2.3478 3.8632 -1.6966 0
M  V30 8 C 3.836 -1.7935 -1.1377 0
M  V30 9 C 1.5062 -2.419 -1.0768 0
M  V30 10 O 0.1664 3.2578 -0.0156 0
M  V30 11 N 1.1886 1.3891 0.8292 0
M  V30 12 C 2.8439 -2.725 -0.8355 0
M  V30 13 C 0.2568 1.1523 1.9347 0 CFG=2
M  V30 14 C -1.1618 0.7989 1.4504 0
M  V30 15 C 0.2386 2.3139 2.9259 0
M  V30 16 O -1.0928 -0.4585 0.7566 0
M  V30 17 C -2.318 -0.8575 0.2913 0
M  V30 18 C -2.8459 -2.0681 0.76 0
M  V30 19 C -2.9816 -0.1238 -0.6947 0
M  V30 20 C -4.0785 -2.5059 0.2564 0
M  V30 21 C -2.1115 -2.8829 1.7841 0
M  V30 22 C -4.2061 -0.5713 -1.1879 0
M  V30 23 C -4.7567 -1.7582 -0.7086 0
M  V30 24 H 3.1048 2.1165 -0.7194 0
M  V30 25 H 4.2751 0.1585 -1.9167 0
M  V30 26 H 0.1099 -0.9556 -1.7958 0
M  V30 27 H 3.1563 3.9013 -2.435 0
M  V30 28 H 1.4362 4.2565 -2.1616 0
M  V30 29 H 2.6132 4.548 -0.8828 0
M  V30 30 H 4.881 -2.0381 -0.9651 0
M  V30 31 H 0.7271 -3.1422 -0.8479 0
M  V30 32 H 1.86 0.6556 0.6351 0
M  V30 33 H 3.1129 -3.6936 -0.4219 0
M  V30 34 H 0.6675 0.2758 2.4521 0
M  V30 35 H -1.828 0.6872 2.3156 0
M  V30 36 H -1.5563 1.5883 0.8027 0
M  V30 37 H -0.3393 2.0492 3.8177 0
M  V30 38 H 1.255 2.5676 3.2458 0
M  V30 39 H -0.2098 3.2148 2.4964 0
M  V30 40 H -2.5434 0.7859 -1.096 0
M  V30 41 H -4.5176 -3.4365 0.6084 0
M  V30 42 H -1.1326 -3.1843 1.3977 0
M  V30 43 H -2.6618 -3.7936 2.0429 0
M  V30 44 H -1.9759 -2.3038 2.7033 0
M  V30 45 H -4.7248 0.001 -1.9522 0
M  V30 46 H -5.7104 -2.1087 -1.095 0
M  V30 END ATOM
M  V30 BEGIN BOND
M  V30 1 1 1 2
M  V30 2 1 1 3
M  V30 3 2 2 4
M  V30 4 1 2 5
M  V30 5 1 3 6
M  V30 6 1 3 7
M  V30 7 1 4 8
M  V30 8 2 5 9
M  V30 9 2 6 10
M  V30 10 1 6 11
M  V30 11 2 8 12
M  V30 12 1 11 13
M  V30 13 1 13 14
M  V30 14 1 13 15
M  V30 15 1 14 16
M  V30 16 1 16 17
M  V30 17 2 17 18
M  V30 18 1 17 19
M  V30 19 1 18 20
M  V30 20 1 18 21
M  V30 21 2 19 22
M  V30 22 2 20 23
M  V30 23 1 9 12
M  V30 24 1 22 23
M  V30 25 1 3 24
M  V30 26 1 4 25
M  V30 27 1 5 26
M  V30 28 1 7 27
M  V30 29 1 7 28
M  V30 30 1 7 29
M  V30 31 1 8 30
M  V30 32 1 9 31
M  V30 33 1 11 32
M  V30 34 1 12 33
M  V30 35 1 13 34
M  V30 36 1 14 35
M  V30 37 1 14 36
M  V30 38 1 15 37
M  V30 39 1 15 38
M  V30 40 1 15 39
M  V30 41 1 19 40
M  V30 42 1 20 41
M  V30 43 1 21 42
M  V30 44 1 21 43
M  V30 45 1 21 44
M  V30 46 1 22 45
M  V30 47 1 23 46
M  V30 END BOND
M  V30 BEGIN COLLECTION
M  V30 MDLV30/STEABS ATOMS=(2 3 13)
M  V30 END COLLECTION
M  V30 END CTAB
M  END
>  <Column 1>
2814

>  <level_0>
4052

>  <index>
4052

>  <Unnamed: 0>
4052

>  <NO.>
4064

>  <Name>
bretylium

>  <IUPAC_name>
(2s)-n-[(2s)-1-(2-methylphenoxy)propan-2-yl]-2-phenylsulfanylpropanamide

>  <SMILES>
Cc1ccccc1OC[C@H](C)NC(=O)[C@H](C)Sc1ccccc1

>  <CID>
100002431

>  <logBB>


>  <BBB+/BBB->
BBB-

>  <Inchi>
InChI=1S/C19H23NO2S/c1-14-9-7-8-12-18(14)22-13-15(2)20-19(21)16(3)23-17-10-5-4-6-11-17/h4-12-15-16H-13H2-1-3H3-(H-20-21)/t15--16-/m0/s1

>  <threshold>
-1

>  <reference>
R16|R10|

>  <group>
B

>  <Class>
1

>  <ABC>
17.33

>  <ABCGG>
14.23

>  <nAcid>
0

>  <nBase>
0

>  <nAromAtom>
12

>  <nAromBond>
12

>  <nAtom>
46

>  <nHeavyAtom>
23

>  <nSpiro>
0

>  <nBridgehead>
0

>  <nHetero>
4

>  <nN>
1

>  <nO>
2

>  <nF>
0

>  <BalabanJ>
1.63

>  <BertzCT>
630.28

>  <nBonds>
47

>  <nBondsO>
24

>  <nBondsS>
34

>  <nBondsD>
1

>  <nBondsT>
0

>  <nBondsA>
12

>  <nBondsM>
13

>  <nBondsKS>
40

>  <nBondsKD>
7

>  <RNCG>
0.27

>  <RPCG>
0.13

>  <FCSP3>
0.32

>  <SZ>
29.33

>  <Sm>
27.43

>  <Sv>
28.61

>  <Sse>
45.61

>  <Sp>
31.54

>  <Si>
51.41

>  <MZ>
0.64

>  <Mm>
0.6

>  <Mv>
0.62

>  <Mse>
0.99

>  <Mp>
0.69

>  <Mi>
1.12

>  <NsCH3>
3

>  <NdCH2>
0

>  <NssCH2>
1

>  <NtCH>
0

>  <NdsCH>
0

>  <NaaCH>
9

>  <NsssCH>
2

>  <NddC>
0

>  <NtsC>
0

>  <NdssC>
1

>  <NaasC>
3

>  <NaaaC>
0

>  <NssssC>
0

>  <NsNH3>
0

>  <NsNH2>
0

>  <NssNH2>
0

>  <NdNH>
0

>  <NssNH>
1

>  <NaaNH>
0

>  <NtN>
0

>  <NsssNH>
0

>  <NdsN>
0

>  <NaaN>
0

>  <NsssN>
0

>  <NddsN>
0

>  <NaasN>
0

>  <NssssN>
0

>  <NsOH>
0

>  <NdO>
1

>  <NssO>
1

>  <NaaO>
0

>  <NsF>
0

>  <NsSiH3>
0

>  <NssSiH2>
0

>  <NsssSiH>
0

>  <NssssSi>
0

>  <NsPH2>
0

>  <NssPH>
0

>  <NsssP>
0

>  <NdsssP>
0

>  <NsssssP>
0

>  <NsSH>
0

>  <NdS>
0

>  <NssS>
1

>  <NaaS>
0

>  <NdssS>
0

>  <NddssS>
0

>  <NsCl>
0

>  <NsBr>
0

>  <NsI>
0

>  <fragCpx>
70.04

>  <fMF>
0.41

>  <nHBAcc>
3

>  <nHBDon>
1

>  <Kier1>
19.33

>  <Kier2>
10.1

>  <Lipinski>
1

>  <GhoseFilter>
1

>  <FilterItLogS>
-5.04

>  <VMcGowan>
264.82

>  <LabuteASA>
141.99

>  <PEOE_VSA1>
10.05

>  <PEOE_VSA2>
4.79

>  <PEOE_VSA3>
0

>  <PEOE_VSA4>
0

>  <PEOE_VSA5>
11.76

>  <PEOE_VSA6>
36.4

>  <PEOE_VSA7>
44.53

>  <PEOE_VSA8>
4.9

>  <PEOE_VSA9>
11.29

>  <PEOE_VSA10>
12.36

>  <PEOE_VSA11>
0

>  <PEOE_VSA12>
5.91

>  <PEOE_VSA13>
0

>  <SMR_VSA1>
9.53

>  <SMR_VSA2>
0

>  <SMR_VSA3>
5.32

>  <SMR_VSA4>
0

>  <SMR_VSA5>
36.96

>  <SMR_VSA6>
6.61

>  <SMR_VSA7>
60.16

>  <SMR_VSA8>
0

>  <SMR_VSA9>
5.75

>  <SlogP_VSA1>
10.05

>  <SlogP_VSA2>
23.81

>  <SlogP_VSA3>
4.79

>  <SlogP_VSA4>
6.92

>  <SlogP_VSA5>
19.41

>  <SlogP_VSA6>
59.49

>  <SlogP_VSA7>
0

>  <SlogP_VSA8>
0

>  <SlogP_VSA9>
0

>  <SlogP_VSA10>
0

>  <SlogP_VSA11>
5.75

>  <EState_VSA1>
0

>  <EState_VSA2>
17.2

>  <EState_VSA3>
6.61

>  <EState_VSA4>
16.21

>  <EState_VSA5>
0

>  <EState_VSA6>
11.76

>  <EState_VSA7>
75.37

>  <EState_VSA8>
5.32

>  <EState_VSA9>
4.74

>  <EState_VSA10>
4.79

>  <VSA_EState1>
5.78

>  <VSA_EState2>
13.34

>  <VSA_EState3>
2.86

>  <VSA_EState4>
1.1

>  <VSA_EState5>
0.89

>  <VSA_EState6>
17.8

>  <VSA_EState7>
0

>  <VSA_EState8>
6.34

>  <VSA_EState9>
0

>  <apol>
52.67

>  <bpol>
28.71

>  <nRing>
2

>  <nHRing>
0

>  <naRing>
2

>  <naHRing>
0

>  <nARing 2>
0

>  <nAHRing 2>
0

>  <nFRing>
0

>  <nFHRing>
0

>  <nFaRing>
0

>  <nFaHRing>
0

>  <nFARing 2>
0

>  <nFAHRing 2>
0

>  <nRot>
7

>  <SLogP>
4.06

>  <SMR>
96.04

>  <TopoPSA(NO)>
38.33

>  <TopoPSA>
63.63

>  <JGI1>
0.19

>  <JGI2>
0.08

>  <JGI3>
0.04

>  <JGI4>
0.05

>  <JGI5>
0.02

>  <Diameter>
14

>  <Radius>
7

>  <TMWC10>
118.56

>  <TSRW10>
56.43

>  <MW>
329.14

>  <AMW>
7.16

>  <WPath>
1426

>  <WPol>
30

>  <Zagreb1>
110

>  <Zagreb2>
122

>  <mZagreb2>
5.22

>  <yes>


>  <nAR-cont>
0.336376

>  <nHA-cont>
0.967789328

>  <MWHBN>
0.220480233

>  <MWHBN-cont>
0.994653632

>  <TPSA-cont>
0.555823088

>  <pka_cont>
0.97

>  <yes.1>


>  <BBB_SCORE>
4.392791953

>  <MMFF94 Energy>
55.795

$$$$
Compound 2303
Actelion Java MolfileCreator 2.0

  0  0  0  0  0  0              0 V3000
M  V30 BEGIN CTAB
M  V30 COUNTS 36 38 0 0 0
M  V30 BEGIN ATOM
M  V30 1 F 1.9977 -3.9985 -2.6376 0
M  V30 2 C 1.866 -2.8407 -1.9777 0
M  V30 3 C 1.9634 -1.643 -2.6682 0
M  V30 4 C 1.6323 -2.8516 -0.6119 0
M  V30 5 C 1.8245 -0.4363 -1.9763 0
M  V30 6 C 1.4973 -1.6404 0.0728 0
M  V30 7 C 1.5895 -0.3931 -0.5835 0
M  V30 8 C 1.4078 0.969 0.2134 0 CFG=2
M  V30 9 N 0.3964 1.8866 -0.2928 0
M  V30 10 C 2.4199 2.1123 -0.0096 0
M  V30 11 C -0.962 1.8373 -0.4097 0
M  V30 12 C 1.3166 2.9312 -0.6841 0
M  V30 13 O -1.6461 2.7204 -0.9121 0
M  V30 14 C -1.6188 0.6398 0.11 0
M  V30 15 C -1.967 0.4829 1.4363 0
M  V30 16 C -1.9355 -0.3976 -0.7343 0
M  V30 17 N -2.5434 -0.6579 1.8877 0
M  V30 18 C -1.7364 1.5632 2.4501 0
M  V30 19 N -2.5188 -1.5398 -0.3139 0
M  V30 20 C -2.7953 -1.6214 0.9913 0
M  V30 21 N -3.3762 -2.7671 1.4428 0
M  V30 22 H 2.1426 -1.6522 -3.7385 0
M  V30 23 H 1.5493 -3.7977 -0.0867 0
M  V30 24 H 1.8944 0.4944 -2.5372 0
M  V30 25 H 1.3014 -1.6689 1.1442 0
M  V30 26 H 1.2574 0.7882 1.2871 0
M  V30 27 H 2.8002 2.5546 0.9183 0
M  V30 28 H 3.2731 1.8808 -0.6549 0
M  V30 29 H 1.1067 3.8989 -0.2219 0
M  V30 30 H 1.4069 3.0356 -1.7684 0
M  V30 31 H -1.7177 -0.3522 -1.7972 0
M  V30 32 H -2.243 2.4855 2.1489 0
M  V30 33 H -0.667 1.7588 2.5692 0
M  V30 34 H -2.1338 1.2682 3.427 0
M  V30 35 H -3.6305 -2.818 2.413 0
M  V30 36 H -3.6049 -3.4743 0.767 0
M  V30 END ATOM
M  V30 BEGIN BOND
M  V30 1 1 1 2
M  V30 2 2 2 3
M  V30 3 1 2 4
M  V30 4 1 3 5
M  V30 5 2 4 6
M  V30 6 2 5 7
M  V30 7 1 7 8
M  V30 8 1 8 9
M  V30 9 1 8 10
M  V30 10 1 9 11
M  V30 11 1 9 12
M  V30 12 2 11 13
M  V30 13 1 11 14
M  V30 14 2 14 15
M  V30 15 1 14 16
M  V30 16 1 15 17
M  V30 17 1 15 18
M  V30 18 2 16 19
M  V30 19 2 17 20
M  V30 20 1 20 21
M  V30 21 1 6 7
M  V30 22 1 10 12
M  V30 23 1 19 20
M  V30 24 1 3 22
M  V30 25 1 4 23
M  V30 26 1 5 24
M  V30 27 1 6 25
M  V30 28 1 8 26
M  V30 29 1 10 27
M  V30 30 1 10 28
M  V30 31 1 12 29
M  V30 32 1 12 30
M  V30 33 1 16 31
M  V30 34 1 18 32
M  V30 35 1 18 33
M  V30 36 1 18 34
M  V30 37 1 21 35
M  V30 38 1 21 36
M  V30 END BOND
M  V30 BEGIN COLLECTION
M  V30 MDLV30/STEABS ATOMS=(1 8)
M  V30 END COLLECTION
M  V30 END CTAB
M  END
>  <Column 1>
2815

>  <level_0>
4053

>  <index>
4053

>  <Unnamed: 0>
4053

>  <NO.>
4065

>  <Name>
fluoxetine

>  <IUPAC_name>
(2-amino-4-methylpyrimidin-5-yl)-[(2r)-2-(4-fluorophenyl)azetidin-1-yl]methanone

>  <SMILES>
Cc1nc(N)ncc1C(=O)N1CC[C@@H]1c1ccc(F)cc1

>  <CID>
100003386

>  <logBB>


>  <BBB+/BBB->
BBB+

>  <Inchi>
InChI=1S/C15H15FN4O/c1-9-12(8-18-15(17)19-9)14(21)20-7-6-13(20)10-2-4-11(16)5-3-10/h2-5-8-13H-6-7H2-1H3-(H2-17-18-19)/t13-/m1/s1

>  <threshold>
-1

>  <reference>
R16|R10|

>  <group>
B

>  <Class>
1

>  <ABC>
16.5

>  <ABCGG>
13.7

>  <nAcid>
0

>  <nBase>
0

>  <nAromAtom>
12

>  <nAromBond>
12

>  <nAtom>
36

>  <nHeavyAtom>
21

>  <nSpiro>
0

>  <nBridgehead>
0

>  <nHetero>
6

>  <nN>
4

>  <nO>
1

>  <nF>
1

>  <BalabanJ>
1.56

>  <BertzCT>
686.57

>  <nBonds>
38

>  <nBondsO>
23

>  <nBondsS>
25

>  <nBondsD>
1

>  <nBondsT>
0

>  <nBondsA>
12

>  <nBondsM>
13

>  <nBondsKS>
31

>  <nBondsKD>
7

>  <RNCG>
0.2

>  <RPCG>
0.14

>  <FCSP3>
0.27

>  <SZ>
25

>  <Sm>
23.84

>  <Sv>
23.46

>  <Sse>
36.6

>  <Sp>
24.44

>  <Si>
41.03

>  <MZ>
0.69

>  <Mm>
0.66

>  <Mv>
0.65

>  <Mse>
1.02

>  <Mp>
0.68

>  <Mi>
1.14

>  <NsCH3>
1

>  <NdCH2>
0

>  <NssCH2>
2

>  <NtCH>
0

>  <NdsCH>
0

>  <NaaCH>
5

>  <NsssCH>
1

>  <NddC>
0

>  <NtsC>
0

>  <NdssC>
1

>  <NaasC>
5

>  <NaaaC>
0

>  <NssssC>
0

>  <NsNH3>
0

>  <NsNH2>
1

>  <NssNH2>
0

>  <NdNH>
0

>  <NssNH>
0

>  <NaaNH>
0

>  <NtN>
0

>  <NsssNH>
0

>  <NdsN>
0

>  <NaaN>
2

>  <NsssN>
1

>  <NddsN>
0

>  <NaasN>
0

>  <NssssN>
0

>  <NsOH>
0

>  <NdO>
1

>  <NssO>
0

>  <NaaO>
0

>  <NsF>
1

>  <NsSiH3>
0

>  <NssSiH2>
0

>  <NsssSiH>
0

>  <NssssSi>
0

>  <NsPH2>
0

>  <NssPH>
0

>  <NsssP>
0

>  <NdsssP>
0

>  <NsssssP>
0

>  <NsSH>
0

>  <NdS>
0

>  <NssS>
0

>  <NaaS>
0

>  <NdssS>
0

>  <NddssS>
0

>  <NsCl>
0

>  <NsBr>
0

>  <NsI>
0

>  <fragCpx>
109.06

>  <fMF>
0.47

>  <nHBAcc>
4

>  <nHBDon>
1

>  <Kier1>
15.88

>  <Kier2>
6.63

>  <Lipinski>
1

>  <GhoseFilter>
1

>  <FilterItLogS>
-3.6

>  <VMcGowan>
207.08

>  <LabuteASA>
121.17

>  <PEOE_VSA1>
10.63

>  <PEOE_VSA2>
4.79

>  <PEOE_VSA3>
14.36

>  <PEOE_VSA4>
0

>  <PEOE_VSA5>
0

>  <PEOE_VSA6>
12.13

>  <PEOE_VSA7>
31.04

>  <PEOE_VSA8>
12.74

>  <PEOE_VSA9>
17.3

>  <PEOE_VSA10>
5.82

>  <PEOE_VSA11>
0

>  <PEOE_VSA12>
5.95

>  <PEOE_VSA13>
5.91

>  <SMR_VSA1>
9.18

>  <SMR_VSA2>
0

>  <SMR_VSA3>
14.87

>  <SMR_VSA4>
0

>  <SMR_VSA5>
19.39

>  <SMR_VSA6>
12.28

>  <SMR_VSA7>
53.1

>  <SMR_VSA8>
0

>  <SMR_VSA9>
0

>  <SlogP_VSA1>
5.73

>  <SlogP_VSA2>
27.32

>  <SlogP_VSA3>
0

>  <SlogP_VSA4>
12.74

>  <SlogP_VSA5>
34.08

>  <SlogP_VSA6>
30.46

>  <SlogP_VSA7>
0

>  <SlogP_VSA8>
0

>  <SlogP_VSA9>
0

>  <SlogP_VSA10>
10.34

>  <SlogP_VSA11>
0

>  <EState_VSA1>
0

>  <EState_VSA2>
23.71

>  <EState_VSA3>
17.8

>  <EState_VSA4>
11.98

>  <EState_VSA5>
18.33

>  <EState_VSA6>
23.96

>  <EState_VSA7>
0

>  <EState_VSA8>
9.97

>  <EState_VSA9>
5.73

>  <EState_VSA10>
9.18

>  <VSA_EState1>
12.97

>  <VSA_EState2>
22.18

>  <VSA_EState3>
0

>  <VSA_EState4>
7.46

>  <VSA_EState5>
-0.24

>  <VSA_EState6>
6.23

>  <VSA_EState7>
2.33

>  <VSA_EState8>
2.41

>  <VSA_EState9>
0

>  <apol>
40.81

>  <bpol>
20.45

>  <nRing>
3

>  <nHRing>
2

>  <naRing>
2

>  <naHRing>
1

>  <nARing 2>
1

>  <nAHRing 2>
1

>  <nFRing>
0

>  <nFHRing>
0

>  <nFaRing>
0

>  <nFaHRing>
0

>  <nFARing 2>
0

>  <nFAHRing 2>
0

>  <nRot>
2

>  <SLogP>
2.09

>  <SMR>
75.98

>  <TopoPSA(NO)>
72.11

>  <TopoPSA>
72.11

>  <JGI1>
0.2

>  <JGI2>
0.09

>  <JGI3>
0.06

>  <JGI4>
0.05

>  <JGI5>
0.03

>  <Diameter>
12

>  <Radius>
6

>  <TMWC10>
118.29

>  <TSRW10>
55.49

>  <MW>
286.12

>  <AMW>
7.95

>  <WPath>
958

>  <WPol>
32

>  <Zagreb1>
112

>  <Zagreb2>
133

>  <mZagreb2>
4.56

>  <yes>


>  <nAR-cont>
0.816016

>  <nHA-cont>
0.994529749

>  <MWHBN>
0.295594192

>  <MWHBN-cont>
0.853699302

>  <TPSA-cont>
0.496627422

>  <pka_cont>
0.97

>  <yes.1>


>  <BBB_SCORE>
4.569349547

>  <MMFF94 Energy>
-59.157

$$$$
Compound 2304
Actelion Java MolfileCreator 2.0

  0  0  0  0  0  0              0 V3000
M  V30 BEGIN CTAB
M  V30 COUNTS 45 47 0 0 0
M  V30 BEGIN ATOM
M  V30 1 S 2.5722 -2.1699 -0.8032 0
M  V30 2 C 2.9431 -0.5635 -1.2917 0
M  V30 3 C 3.113 -1.8004 0.7761 0
M  V30 4 C 3.5218 0.1226 -0.2334 0
M  V30 5 C 2.6246 -0.1043 -2.6851 0
M  V30 6 N 3.5869 -0.5873 0.9559 0
M  V30 7 C 4.0296 1.5202 -0.2378 0
M  V30 8 C 1.4652 0.8897 -2.7317 0
M  V30 9 C 0.1551 0.2351 -2.3469 0
M  V30 10 O -0.5625 -0.3226 -3.17 0
M  V30 11 N -0.1271 0.3049 -1.0054 0
M  V30 12 C -1.2813 -0.3343 -0.407 0 CFG=1
M  V30 13 C -0.8221 -0.9638 0.8665 0
M  V30 14 C -2.3148 0.7611 -0.1761 0
M  V30 15 C -0.7893 -2.3461 1.1681 0
M  V30 16 C -0.3034 -0.3695 2.0031 0
M  V30 17 C -3.0421 1.325 -1.428 0
M  V30 18 C -3.7124 0.2934 0.3152 0
M  V30 19 N -0.2855 -2.6009 2.3781 0
M  V30 20 N 0.0072 -1.3814 2.8624 0
M  V30 21 C -4.3297 1.3913 -0.5789 0
M  V30 22 C 0.6083 -1.2587 4.168 0
M  V30 23 O -4.5882 2.6537 0.0659 0
M  V30 24 H 3.0627 -2.53 1.574 0
M  V30 25 H 2.4001 -0.9618 -3.332 0
M  V30 26 H 3.518 0.3726 -3.1069 0
M  V30 27 H 3.2054 2.2214 -0.0749 0
M  V30 28 H 4.7666 1.6671 0.5581 0
M  V30 29 H 4.5119 1.7619 -1.1897 0
M  V30 30 H 1.6511 1.7542 -2.0841 0
M  V30 31 H 1.3531 1.278 -3.7509 0
M  V30 32 H 0.5329 0.7509 -0.3816 0
M  V30 33 H -1.673 -1.1016 -1.0854 0
M  V30 34 H -1.9249 1.5778 0.4526 0
M  V30 35 H -1.1008 -3.176 0.5458 0
M  V30 36 H -0.1183 0.6655 2.2546 0
M  V30 37 H -3.1178 0.6308 -2.2729 0
M  V30 38 H -2.6617 2.2833 -1.7929 0
M  V30 39 H -3.886 0.401 1.3898 0
M  V30 40 H -3.9931 -0.7223 0.0129 0
M  V30 41 H -5.224 1.0655 -1.1214 0
M  V30 42 H 1.5614 -1.7933 4.1599 0
M  V30 43 H -0.0722 -1.6954 4.9032 0
M  V30 44 H 0.7747 -0.2026 4.3944 0
M  V30 45 H -5.3648 2.4921 0.6289 0
M  V30 END ATOM
M  V30 BEGIN BOND
M  V30 1 1 1 2
M  V30 2 1 1 3
M  V30 3 2 2 4
M  V30 4 1 2 5
M  V30 5 2 3 6
M  V30 6 1 4 7
M  V30 7 1 5 8
M  V30 8 1 8 9
M  V30 9 2 9 10
M  V30 10 1 9 11
M  V30 11 1 11 12
M  V30 12 1 12 13
M  V30 13 1 12 14
M  V30 14 1 13 15
M  V30 15 2 13 16
M  V30 16 1 14 17
M  V30 17 1 14 18
M  V30 18 2 15 19
M  V30 19 1 16 20
M  V30 20 1 17 21
M  V30 21 1 20 22
M  V30 22 1 21 23
M  V30 23 1 4 6
M  V30 24 1 18 21
M  V30 25 1 19 20
M  V30 26 1 3 24
M  V30 27 1 5 25
M  V30 28 1 5 26
M  V30 29 1 7 27
M  V30 30 1 7 28
M  V30 31 1 7 29
M  V30 32 1 8 30
M  V30 33 1 8 31
M  V30 34 1 11 32
M  V30 35 1 12 33
M  V30 36 1 14 34
M  V30 37 1 15 35
M  V30 38 1 16 36
M  V30 39 1 17 37
M  V30 40 1 17 38
M  V30 41 1 18 39
M  V30 42 1 18 40
M  V30 43 1 21 41
M  V30 44 1 22 42
M  V30 45 1 22 43
M  V30 46 1 22 44
M  V30 47 1 23 45
M  V30 END BOND
M  V30 BEGIN COLLECTION
M  V30 MDLV30/STEABS ATOMS=(1 12)
M  V30 END COLLECTION
M  V30 END CTAB
M  END
>  <Column 1>
2816

>  <level_0>
4054

>  <index>
4054

>  <Unnamed: 0>
4054

>  <NO.>
4066

>  <Name>
oxazepam

>  <IUPAC_name>
n-[(r)-(3-hydroxycyclobutyl)-(1-methylpyrazol-4-yl)methyl]-3-(4-methyl-1-3-thiazol-5-yl)propanamide

>  <SMILES>
Cc1ncsc1CCC(=O)N[C@@H](c1cnn(C)c1)C1CC(O)C1

>  <CID>
100004616

>  <logBB>


>  <BBB+/BBB->
BBB+

>  <Inchi>
InChI=1S/C16H22N4O2S/c1-10-14(23-9-17-10)3-4-15(22)19-16(11-5-13(21)6-11)12-7-18-20(2)8-12/h7-9-11-13-16-21H-3-6H2-1-2H3-(H-19-22)/t11?-13?-16-/m1/s1

>  <threshold>
-1

>  <reference>
R16|R16|R10|R10|

>  <group>
B

>  <Class>
1

>  <ABC>
17.99

>  <ABCGG>
15.93

>  <nAcid>
0

>  <nBase>
0

>  <nAromAtom>
10

>  <nAromBond>
10

>  <nAtom>
45

>  <nHeavyAtom>
23

>  <nSpiro>
0

>  <nBridgehead>
0

>  <nHetero>
7

>  <nN>
4

>  <nO>
2

>  <nF>
0

>  <BalabanJ>
1.48

>  <BertzCT>
675.18

>  <nBonds>
47

>  <nBondsO>
25

>  <nBondsS>
36

>  <nBondsD>
1

>  <nBondsT>
0

>  <nBondsA>
10

>  <nBondsM>
11

>  <nBondsKS>
42

>  <nBondsKD>
5

>  <RNCG>
0.2

>  <RPCG>
0.11

>  <FCSP3>
0.56

>  <SZ>
29.67

>  <Sm>
27.84

>  <Sv>
27.61

>  <Sse>
45.16

>  <Sp>
30.12

>  <Si>
51.07

>  <MZ>
0.66

>  <Mm>
0.62

>  <Mv>
0.61

>  <Mse>
1

>  <Mp>
0.67

>  <Mi>
1.13

>  <NsCH3>
2

>  <NdCH2>
0

>  <NssCH2>
4

>  <NtCH>
0

>  <NdsCH>
0

>  <NaaCH>
3

>  <NsssCH>
3

>  <NddC>
0

>  <NtsC>
0

>  <NdssC>
1

>  <NaasC>
3

>  <NaaaC>
0

>  <NssssC>
0

>  <NsNH3>
0

>  <NsNH2>
0

>  <NssNH2>
0

>  <NdNH>
0

>  <NssNH>
1

>  <NaaNH>
0

>  <NtN>
0

>  <NsssNH>
0

>  <NdsN>
0

>  <NaaN>
2

>  <NsssN>
0

>  <NddsN>
0

>  <NaasN>
1

>  <NssssN>
0

>  <NsOH>
1

>  <NdO>
1

>  <NssO>
0

>  <NaaO>
0

>  <NsF>
0

>  <NsSiH3>
0

>  <NssSiH2>
0

>  <NsssSiH>
0

>  <NssssSi>
0

>  <NsPH2>
0

>  <NssPH>
0

>  <NsssP>
0

>  <NdsssP>
0

>  <NsssssP>
0

>  <NsSH>
0

>  <NdS>
0

>  <NssS>
0

>  <NaaS>
1

>  <NdssS>
0

>  <NddssS>
0

>  <NsCl>
0

>  <NsBr>
0

>  <NsI>
0

>  <fragCpx>
119.07

>  <fMF>
0.42

>  <nHBAcc>
6

>  <nHBDon>
2

>  <Kier1>
17.81

>  <Kier2>
7.92

>  <Lipinski>
1

>  <GhoseFilter>
1

>  <FilterItLogS>
-3.05

>  <VMcGowan>
250.23

>  <LabuteASA>
139.1

>  <PEOE_VSA1>
10.42

>  <PEOE_VSA2>
9.48

>  <PEOE_VSA3>
4.98

>  <PEOE_VSA4>
5.1

>  <PEOE_VSA5>
11.34

>  <PEOE_VSA6>
0

>  <PEOE_VSA7>
32.1

>  <PEOE_VSA8>
30.11

>  <PEOE_VSA9>
29.55

>  <PEOE_VSA10>
0

>  <PEOE_VSA11>
0

>  <PEOE_VSA12>
5.91

>  <PEOE_VSA13>
0

>  <SMR_VSA1>
9.9

>  <SMR_VSA2>
0

>  <SMR_VSA3>
20.08

>  <SMR_VSA4>
12.97

>  <SMR_VSA5>
44.75

>  <SMR_VSA6>
0

>  <SMR_VSA7>
34.04

>  <SMR_VSA8>
0

>  <SMR_VSA9>
0

>  <SlogP_VSA1>
5.32

>  <SlogP_VSA2>
31.88

>  <SlogP_VSA3>
18.26

>  <SlogP_VSA4>
12.84

>  <SlogP_VSA5>
41.44

>  <SlogP_VSA6>
17.9

>  <SlogP_VSA7>
0

>  <SlogP_VSA8>
0

>  <SlogP_VSA9>
0

>  <SlogP_VSA10>
0

>  <SlogP_VSA11>
0

>  <EState_VSA1>
0

>  <EState_VSA2>
23.97

>  <EState_VSA3>
6.42

>  <EState_VSA4>
35.4

>  <EState_VSA5>
0

>  <EState_VSA6>
22.22

>  <EState_VSA7>
25.68

>  <EState_VSA8>
15.4

>  <EState_VSA9>
0

>  <EState_VSA10>
9.9

>  <VSA_EState1>
1.74

>  <VSA_EState2>
17.73

>  <VSA_EState3>
16.9

>  <VSA_EState4>
3.83

>  <VSA_EState5>
0.32

>  <VSA_EState6>
-0.07

>  <VSA_EState7>
6.12

>  <VSA_EState8>
1.97

>  <VSA_EState9>
1.87

>  <apol>
50.29

>  <bpol>
28.82

>  <nRing>
3

>  <nHRing>
2

>  <naRing>
2

>  <naHRing>
2

>  <nARing 2>
1

>  <nAHRing 2>
0

>  <nFRing>
0

>  <nFHRing>
0

>  <nFaRing>
0

>  <nFaHRing>
0

>  <nFARing 2>
0

>  <nFAHRing 2>
0

>  <nRot>
6

>  <SLogP>
1.75

>  <SMR>
87.99

>  <TopoPSA(NO)>
80.04

>  <TopoPSA>
108.28

>  <JGI1>
0.22

>  <JGI2>
0.08

>  <JGI3>
0.06

>  <JGI4>
0.04

>  <JGI5>
0.03

>  <Diameter>
11

>  <Radius>
6

>  <TMWC10>
122.18

>  <TSRW10>
72.99

>  <MW>
334.15

>  <AMW>
7.43

>  <WPath>
1293

>  <WPol>
28

>  <Zagreb1>
120

>  <Zagreb2>
139

>  <mZagreb2>
5

>  <yes>


>  <nAR-cont>
0.816016

>  <nHA-cont>
0.967789328

>  <MWHBN>
0.437642262

>  <MWHBN-cont>
0.331026472

>  <TPSA-cont>
0.244138362

>  <pka_cont>
0.97

>  <yes.1>


>  <BBB_SCORE>
3.253621761

>  <MMFF94 Energy>
-15.294

$$$$
Compound 2305
Actelion Java MolfileCreator 2.0

  0  0  0  0  0  0              0 V3000
M  V30 BEGIN CTAB
M  V30 COUNTS 45 48 0 0 0
M  V30 BEGIN ATOM
M  V30 1 O -1.9961 -1.1973 0.6384 0
M  V30 2 C -0.9948 -0.4957 0.4992 0
M  V30 3 N -0.8953 0.4171 -0.5521 0
M  V30 4 C 0.125 -0.6177 1.4163 0
M  V30 5 C -1.8494 0.3161 -1.6747 0 CFG=2
M  V30 6 C 0.0373 1.5473 -0.595 0
M  V30 7 N 0.0039 -0.788 2.7845 0
M  V30 8 C 1.4801 -0.6943 1.1332 0
M  V30 9 C -1.1663 -0.2328 -2.9219 0
M  V30 10 C -2.614 1.6496 -1.8132 0
M  V30 11 C -0.7181 2.8698 -0.6992 0
M  V30 12 C 1.247 -0.926 3.3734 0
M  V30 13 C -1.2592 -0.8057 3.4952 0
M  V30 14 C 2.1914 -0.8663 2.3476 0
M  V30 15 C -1.2566 0.3521 -4.1818 0
M  V30 16 C -0.436 -1.4302 -2.8496 0
M  V30 17 C -1.6897 2.8675 -1.8732 0
M  V30 18 C 1.6273 -1.1104 4.7137 0
M  V30 19 C 3.5589 -0.9908 2.6624 0
M  V30 20 N -0.6681 -0.1322 -5.3026 0
M  V30 21 C 0.1776 -1.9563 -3.9831 0
M  V30 22 C 2.9904 -1.2272 5.004 0
M  V30 23 C 3.9453 -1.1679 3.9944 0
M  V30 24 C 0.0368 -1.2743 -5.1764 0
M  V30 25 H -2.6143 -0.4344 -1.4358 0
M  V30 26 H 0.7 1.4096 -1.4565 0
M  V30 27 H 0.6578 1.5965 0.3011 0
M  V30 28 H 1.915 -0.6426 0.1433 0
M  V30 29 H -3.2589 1.7656 -0.9309 0
M  V30 30 H -3.286 1.6388 -2.6785 0
M  V30 31 H -0.0082 3.6978 -0.804 0
M  V30 32 H -1.2785 3.0409 0.2287 0
M  V30 33 H -1.0985 -0.577 4.5505 0
M  V30 34 H -1.9183 -0.042 3.074 0
M  V30 35 H -1.6958 -1.8015 3.3873 0
M  V30 36 H -1.8235 1.2601 -4.361 0
M  V30 37 H -0.3481 -1.966 -1.9066 0
M  V30 38 H -1.125 2.8779 -2.8112 0
M  V30 39 H -2.2896 3.7846 -1.8565 0
M  V30 40 H 0.8953 -1.1671 5.5126 0
M  V30 41 H 4.3091 -0.9519 1.8783 0
M  V30 42 H 0.7449 -2.8786 -3.9339 0
M  V30 43 H 3.3065 -1.3703 6.0349 0
M  V30 44 H 4.9999 -1.2641 4.24 0
M  V30 45 H 0.4946 -1.6413 -6.09 0
M  V30 END ATOM
M  V30 BEGIN BOND
M  V30 1 2 1 2
M  V30 2 1 2 3
M  V30 3 1 2 4
M  V30 4 1 3 5
M  V30 5 1 3 6
M  V30 6 1 4 7
M  V30 7 2 4 8
M  V30 8 1 5 9
M  V30 9 1 5 10
M  V30 10 1 6 11
M  V30 11 1 7 12
M  V30 12 1 7 13
M  V30 13 1 8 14
M  V30 14 2 9 15
M  V30 15 1 9 16
M  V30 16 1 10 17
M  V30 17 1 12 18
M  V30 18 1 14 19
M  V30 19 1 15 20
M  V30 20 2 16 21
M  V30 21 2 18 22
M  V30 22 2 19 23
M  V30 23 2 20 24
M  V30 24 1 11 17
M  V30 25 2 12 14
M  V30 26 1 21 24
M  V30 27 1 22 23
M  V30 28 1 5 25
M  V30 29 1 6 26
M  V30 30 1 6 27
M  V30 31 1 8 28
M  V30 32 1 10 29
M  V30 33 1 10 30
M  V30 34 1 11 31
M  V30 35 1 11 32
M  V30 36 1 13 33
M  V30 37 1 13 34
M  V30 38 1 13 35
M  V30 39 1 15 36
M  V30 40 1 16 37
M  V30 41 1 17 38
M  V30 42 1 17 39
M  V30 43 1 18 40
M  V30 44 1 19 41
M  V30 45 1 21 42
M  V30 46 1 22 43
M  V30 47 1 23 44
M  V30 48 1 24 45
M  V30 END BOND
M  V30 BEGIN COLLECTION
M  V30 MDLV30/STEABS ATOMS=(1 5)
M  V30 END COLLECTION
M  V30 END CTAB
M  END
>  <Column 1>
2817

>  <level_0>
4055

>  <index>
4055

>  <Unnamed: 0>
4055

>  <NO.>
4067

>  <Name>
metoprolol

>  <IUPAC_name>
(1-methylindol-2-yl)-[(2s)-2-pyridin-3-ylpiperidin-1-yl]methanone

>  <SMILES>
Cn1c(C(=O)N2CCCC[C@H]2c2cccnc2)cc2ccccc21

>  <CID>
100004171

>  <logBB>


>  <BBB+/BBB->
BBB+

>  <Inchi>
InChI=1S/C20H21N3O/c1-22-17-9-3-2-7-15(17)13-19(22)20(24)23-12-5-4-10-18(23)16-8-6-11-21-14-16/h2-3-6-9-11-13-14-18H-4-5-10-12H2-1H3/t18-/m0/s1

>  <threshold>
-1

>  <reference>
R16|R10|

>  <group>
B

>  <Class>
-1

>  <ABC>
19.03

>  <ABCGG>
15.38

>  <nAcid>
0

>  <nBase>
0

>  <nAromAtom>
15

>  <nAromBond>
16

>  <nAtom>
45

>  <nHeavyAtom>
24

>  <nSpiro>
0

>  <nBridgehead>
0

>  <nHetero>
4

>  <nN>
3

>  <nO>
1

>  <nF>
0

>  <BalabanJ>
1.46

>  <BertzCT>
868.98

>  <nBonds>
48

>  <nBondsO>
27

>  <nBondsS>
31

>  <nBondsD>
1

>  <nBondsT>
0

>  <nBondsA>
16

>  <nBondsM>
17

>  <nBondsKS>
40

>  <nBondsKD>
8

>  <RNCG>
0.21

>  <RPCG>
0.16

>  <FCSP3>
0.3

>  <SZ>
28.33

>  <Sm>
26.59

>  <Sv>
28.68

>  <Sse>
44.64

>  <Sp>
30.84

>  <Si>
50.44

>  <MZ>
0.63

>  <Mm>
0.59

>  <Mv>
0.64

>  <Mse>
0.99

>  <Mp>
0.69

>  <Mi>
1.12

>  <NsCH3>
1

>  <NdCH2>
0

>  <NssCH2>
4

>  <NtCH>
0

>  <NdsCH>
0

>  <NaaCH>
9

>  <NsssCH>
1

>  <NddC>
0

>  <NtsC>
0

>  <NdssC>
1

>  <NaasC>
2

>  <NaaaC>
2

>  <NssssC>
0

>  <NsNH3>
0

>  <NsNH2>
0

>  <NssNH2>
0

>  <NdNH>
0

>  <NssNH>
0

>  <NaaNH>
0

>  <NtN>
0

>  <NsssNH>
0

>  <NdsN>
0

>  <NaaN>
1

>  <NsssN>
1

>  <NddsN>
0

>  <NaasN>
1

>  <NssssN>
0

>  <NsOH>
0

>  <NdO>
1

>  <NssO>
0

>  <NaaO>
0

>  <NsF>
0

>  <NsSiH3>
0

>  <NssSiH2>
0

>  <NsssSiH>
0

>  <NssssSi>
0

>  <NsPH2>
0

>  <NssPH>
0

>  <NsssP>
0

>  <NdsssP>
0

>  <NsssssP>
0

>  <NsSH>
0

>  <NdS>
0

>  <NssS>
0

>  <NaaS>
0

>  <NdssS>
0

>  <NddssS>
0

>  <NsCl>
0

>  <NsBr>
0

>  <NsI>
0

>  <fragCpx>
177.04

>  <fMF>
0.49

>  <nHBAcc>
3

>  <nHBDon>
0

>  <Kier1>
17.42

>  <Kier2>
7.71

>  <Lipinski>
1

>  <GhoseFilter>
1

>  <FilterItLogS>
-4.05

>  <VMcGowan>
250.63

>  <LabuteASA>
141.28

>  <PEOE_VSA1>
9.47

>  <PEOE_VSA2>
9.78

>  <PEOE_VSA3>
0

>  <PEOE_VSA4>
0

>  <PEOE_VSA5>
0

>  <PEOE_VSA6>
24.27

>  <PEOE_VSA7>
43.03

>  <PEOE_VSA8>
36.89

>  <PEOE_VSA9>
6.04

>  <PEOE_VSA10>
5.69

>  <PEOE_VSA11>
0

>  <PEOE_VSA12>
0

>  <PEOE_VSA13>
5.91

>  <SMR_VSA1>
4.79

>  <SMR_VSA2>
0

>  <SMR_VSA3>
14.45

>  <SMR_VSA4>
7.05

>  <SMR_VSA5>
25.3

>  <SMR_VSA6>
6.54

>  <SMR_VSA7>
66.12

>  <SMR_VSA8>
0

>  <SMR_VSA9>
0

>  <SlogP_VSA1>
0

>  <SlogP_VSA2>
26.9

>  <SlogP_VSA3>
7.05

>  <SlogP_VSA4>
0

>  <SlogP_VSA5>
41.36

>  <SlogP_VSA6>
54.86

>  <SlogP_VSA7>
0

>  <SlogP_VSA8>
10.9

>  <SlogP_VSA9>
0

>  <SlogP_VSA10>
0

>  <SlogP_VSA11>
0

>  <EState_VSA1>
0

>  <EState_VSA2>
11.95

>  <EState_VSA3>
0

>  <EState_VSA4>
47.97

>  <EState_VSA5>
0

>  <EState_VSA6>
6.2

>  <EState_VSA7>
46.98

>  <EState_VSA8>
23.18

>  <EState_VSA9>
0

>  <EState_VSA10>
4.79

>  <VSA_EState1>
2.01

>  <VSA_EState2>
19.52

>  <VSA_EState3>
1.11

>  <VSA_EState4>
2.98

>  <VSA_EState5>
0.11

>  <VSA_EState6>
14.28

>  <VSA_EState7>
6.88

>  <VSA_EState8>
0.81

>  <VSA_EState9>
1.97

>  <apol>
51.5

>  <bpol>
26.5

>  <nRing>
4

>  <nHRing>
3

>  <naRing>
3

>  <naHRing>
2

>  <nARing 2>
1

>  <nAHRing 2>
1

>  <nFRing>
1

>  <nFHRing>
1

>  <nFaRing>
1

>  <nFaHRing>
1

>  <nFARing 2>
0

>  <nFAHRing 2>
0

>  <nRot>
2

>  <SLogP>
3.94

>  <SMR>
94.78

>  <TopoPSA(NO)>
38.13

>  <TopoPSA>
38.13

>  <JGI1>
0.11

>  <JGI2>
0.08

>  <JGI3>
0.06

>  <JGI4>
0.03

>  <JGI5>
0.02

>  <Diameter>
11

>  <Radius>
6

>  <TMWC10>
127.06

>  <TSRW10>
73.18

>  <MW>
319.17

>  <AMW>
7.09

>  <WPath>
1279

>  <WPol>
40

>  <Zagreb1>
130

>  <Zagreb2>
157

>  <mZagreb2>
5.28

>  <yes>


>  <nAR-cont>
0.816016

>  <nHA-cont>
0.94700071

>  <MWHBN>
0.167923015

>  <MWHBN-cont>
0.970611102

>  <TPSA-cont>
0.733828923

>  <pka_cont>
0.97

>  <yes.1>


>  <BBB_SCORE>
5.171591208

>  <MMFF94 Energy>
12.647

$$$$
Compound 2306
Actelion Java MolfileCreator 2.0

  0  0  0  0  0  0              0 V3000
M  V30 BEGIN CTAB
M  V30 COUNTS 37 38 0 0 0
M  V30 BEGIN ATOM
M  V30 1 O -1.9016 -1.3466 0.8712 0
M  V30 2 C -1.7027 -0.1857 0.5456 0
M  V30 3 N -0.776 0.646 1.1343 0
M  V30 4 C -2.4818 0.416 -0.5584 0
M  V30 5 C 0.0348 0.2029 2.2491 0
M  V30 6 C -3.8793 0.3245 -0.5869 0
M  V30 7 C -1.791 1.0492 -1.604 0
M  V30 8 C 1.4091 0.8617 2.2611 0
M  V30 9 C -4.6319 -0.2748 0.4778 0
M  V30 10 C -4.5762 0.8829 -1.6694 0
M  V30 11 C -2.4965 1.5992 -2.6744 0
M  V30 12 C 2.2622 0.6671 1.0012 0
M  V30 13 N -5.2992 -0.7045 1.325 0
M  V30 14 C -3.8874 1.5165 -2.7069 0
M  V30 15 C 2.7122 -0.7702 0.7297 0 CFG=1
M  V30 16 C 1.7014 -1.6555 0.009 0
M  V30 17 C 3.887 -0.8318 -0.2314 0
M  V30 18 O 2.45 -2.6191 -0.7522 0
M  V30 19 C 3.8358 -2.2669 -0.6997 0
M  V30 20 H -0.7572 1.6265 0.883 0
M  V30 21 H 0.1195 -0.8868 2.2531 0
M  V30 22 H -0.5083 0.4802 3.1598 0
M  V30 23 H -0.7039 1.091 -1.6033 0
M  V30 24 H 1.9667 0.501 3.1341 0
M  V30 25 H 1.2745 1.9416 2.4068 0
M  V30 26 H -5.6637 0.829 -1.7092 0
M  V30 27 H -1.9617 2.0814 -3.4899 0
M  V30 28 H 3.1593 1.2872 1.1321 0
M  V30 29 H 1.742 1.076 0.1264 0
M  V30 30 H -4.438 1.9415 -3.5437 0
M  V30 31 H 3.0116 -1.2531 1.6694 0
M  V30 32 H 1.0467 -2.1947 0.6977 0
M  V30 33 H 1.0824 -1.091 -0.6957 0
M  V30 34 H 4.8436 -0.5738 0.2316 0
M  V30 35 H 3.7235 -0.157 -1.0809 0
M  V30 36 H 4.2913 -2.4065 -1.6838 0
M  V30 37 H 4.328 -2.9368 0.0133 0
M  V30 END ATOM
M  V30 BEGIN BOND
M  V30 1 2 1 2
M  V30 2 1 2 3
M  V30 3 1 2 4
M  V30 4 1 3 5
M  V30 5 2 4 6
M  V30 6 1 4 7
M  V30 7 1 5 8
M  V30 8 1 6 9
M  V30 9 1 6 10
M  V30 10 2 7 11
M  V30 11 1 8 12
M  V30 12 3 9 13
M  V30 13 2 10 14
M  V30 14 1 12 15
M  V30 15 1 15 16
M  V30 16 1 15 17
M  V30 17 1 16 18
M  V30 18 1 17 19
M  V30 19 1 11 14
M  V30 20 1 18 19
M  V30 21 1 3 20
M  V30 22 1 5 21
M  V30 23 1 5 22
M  V30 24 1 7 23
M  V30 25 1 8 24
M  V30 26 1 8 25
M  V30 27 1 10 26
M  V30 28 1 11 27
M  V30 29 1 12 28
M  V30 30 1 12 29
M  V30 31 1 14 30
M  V30 32 1 15 31
M  V30 33 1 16 32
M  V30 34 1 16 33
M  V30 35 1 17 34
M  V30 36 1 17 35
M  V30 37 1 19 36
M  V30 38 1 19 37
M  V30 END BOND
M  V30 BEGIN COLLECTION
M  V30 MDLV30/STEABS ATOMS=(1 15)
M  V30 END COLLECTION
M  V30 END CTAB
M  END
>  <Column 1>
2818

>  <level_0>
4056

>  <index>
4056

>  <Unnamed: 0>
4056

>  <NO.>
4068

>  <Name>
indomethacin

>  <IUPAC_name>
2-cyano-n-[3-[(3r)-oxolan-3-yl]propyl]benzamide

>  <SMILES>
N#Cc1ccccc1C(=O)NCCC[C@@H]1CCOC1

>  <CID>
100003715

>  <logBB>


>  <BBB+/BBB->
BBB-

>  <Inchi>
InChI=1S/C15H18N2O2/c16-10-13-5-1-2-6-14(13)15(18)17-8-3-4-12-7-9-19-11-12/h1-2-5-6-12H-3-4-7-9-11H2-(H-17-18)/t12-/m1/s1

>  <threshold>
-1

>  <reference>
R16|R16|R10|R10|

>  <group>
B

>  <Class>
1

>  <ABC>
14.17

>  <ABCGG>
12.28

>  <nAcid>
0

>  <nBase>
0

>  <nAromAtom>
6

>  <nAromBond>
6

>  <nAtom>
37

>  <nHeavyAtom>
19

>  <nSpiro>
0

>  <nBridgehead>
0

>  <nHetero>
4

>  <nN>
2

>  <nO>
2

>  <nF>
0

>  <BalabanJ>
1.61

>  <BertzCT>
473.28

>  <nBonds>
38

>  <nBondsO>
20

>  <nBondsS>
30

>  <nBondsD>
1

>  <nBondsT>
1

>  <nBondsA>
6

>  <nBondsM>
8

>  <nBondsKS>
33

>  <nBondsKD>
4

>  <RNCG>
0.25

>  <RPCG>
0.16

>  <FCSP3>
0.47

>  <SZ>
23

>  <Sm>
21.51

>  <Sv>
22.82

>  <Sse>
36.98

>  <Sp>
24.46

>  <Si>
41.74

>  <MZ>
0.62

>  <Mm>
0.58

>  <Mv>
0.62

>  <Mse>
1

>  <Mp>
0.66

>  <Mi>
1.13

>  <NsCH3>
0

>  <NdCH2>
0

>  <NssCH2>
6

>  <NtCH>
0

>  <NdsCH>
0

>  <NaaCH>
4

>  <NsssCH>
1

>  <NddC>
0

>  <NtsC>
1

>  <NdssC>
1

>  <NaasC>
2

>  <NaaaC>
0

>  <NssssC>
0

>  <NsNH3>
0

>  <NsNH2>
0

>  <NssNH2>
0

>  <NdNH>
0

>  <NssNH>
1

>  <NaaNH>
0

>  <NtN>
1

>  <NsssNH>
0

>  <NdsN>
0

>  <NaaN>
0

>  <NsssN>
0

>  <NddsN>
0

>  <NaasN>
0

>  <NssssN>
0

>  <NsOH>
0

>  <NdO>
1

>  <NssO>
1

>  <NaaO>
0

>  <NsF>
0

>  <NsSiH3>
0

>  <NssSiH2>
0

>  <NsssSiH>
0

>  <NssssSi>
0

>  <NsPH2>
0

>  <NssPH>
0

>  <NsssP>
0

>  <NdsssP>
0

>  <NsssssP>
0

>  <NsSH>
0

>  <NdS>
0

>  <NssS>
0

>  <NaaS>
0

>  <NdssS>
0

>  <NddssS>
0

>  <NsCl>
0

>  <NsBr>
0

>  <NsI>
0

>  <fragCpx>
58.04

>  <fMF>
0.43

>  <nHBAcc>
3

>  <nHBDon>
1

>  <Kier1>
15.39

>  <Kier2>
8.32

>  <Lipinski>
1

>  <GhoseFilter>
1

>  <FilterItLogS>
-3.72

>  <VMcGowan>
206.39

>  <LabuteASA>
112.93

>  <PEOE_VSA1>
10.05

>  <PEOE_VSA2>
4.79

>  <PEOE_VSA3>
0

>  <PEOE_VSA4>
5.26

>  <PEOE_VSA5>
0

>  <PEOE_VSA6>
12.13

>  <PEOE_VSA7>
37.31

>  <PEOE_VSA8>
19.76

>  <PEOE_VSA9>
17.2

>  <PEOE_VSA10>
0

>  <PEOE_VSA11>
0

>  <PEOE_VSA12>
0

>  <PEOE_VSA13>
5.91

>  <SMR_VSA1>
9.53

>  <SMR_VSA2>
5.26

>  <SMR_VSA3>
5.32

>  <SMR_VSA4>
5.92

>  <SMR_VSA5>
19.26

>  <SMR_VSA6>
19.76

>  <SMR_VSA7>
35.39

>  <SMR_VSA8>
0

>  <SMR_VSA9>
6.07

>  <SlogP_VSA1>
5.32

>  <SlogP_VSA2>
25.67

>  <SlogP_VSA3>
4.74

>  <SlogP_VSA4>
17.25

>  <SlogP_VSA5>
35.18

>  <SlogP_VSA6>
24.27

>  <SlogP_VSA7>
0

>  <SlogP_VSA8>
0

>  <SlogP_VSA9>
0

>  <SlogP_VSA10>
0

>  <SlogP_VSA11>
0

>  <EState_VSA1>
0

>  <EState_VSA2>
5.91

>  <EState_VSA3>
23.59

>  <EState_VSA4>
32.48

>  <EState_VSA5>
0

>  <EState_VSA6>
24.27

>  <EState_VSA7>
6.07

>  <EState_VSA8>
5.32

>  <EState_VSA9>
10

>  <EState_VSA10>
4.79

>  <VSA_EState1>
5.31

>  <VSA_EState2>
11.93

>  <VSA_EState3>
11.81

>  <VSA_EState4>
0.87

>  <VSA_EState5>
0.48

>  <VSA_EState6>
8.9

>  <VSA_EState7>
3.17

>  <VSA_EState8>
2.37

>  <VSA_EState9>
0

>  <apol>
40.86

>  <bpol>
21.8

>  <nRing>
2

>  <nHRing>
1

>  <naRing>
1

>  <naHRing>
0

>  <nARing 2>
1

>  <nAHRing 2>
1

>  <nFRing>
0

>  <nFHRing>
0

>  <nFaRing>
0

>  <nFaHRing>
0

>  <nFARing 2>
0

>  <nFAHRing 2>
0

>  <nRot>
5

>  <SLogP>
2.1

>  <SMR>
71.65

>  <TopoPSA(NO)>
62.12

>  <TopoPSA>
62.12

>  <JGI1>
0.13

>  <JGI2>
0.07

>  <JGI3>
0.05

>  <JGI4>
0.03

>  <JGI5>
0.02

>  <Diameter>
11

>  <Radius>
6

>  <TMWC10>
109.01

>  <TSRW10>
64.49

>  <MW>
258.14

>  <AMW>
6.98

>  <WPath>
833

>  <WPol>
23

>  <Zagreb1>
90

>  <Zagreb2>
101

>  <mZagreb2>
4.47

>  <yes>


>  <nAR-cont>
0.816016

>  <nHA-cont>
0.998649058

>  <MWHBN>
0.248961584

>  <MWHBN-cont>
0.961505697

>  <TPSA-cont>
0.566363826

>  <pka_cont>
0.97

>  <yes.1>


>  <BBB_SCORE>
4.874651254

>  <MMFF94 Energy>
21.559

$$$$
Compound 2307
Actelion Java MolfileCreator 2.0

  0  0  0  0  0  0              0 V3000
M  V30 BEGIN CTAB
M  V30 COUNTS 49 51 0 0 0
M  V30 BEGIN ATOM
M  V30 1 O 0.3186 -0.2389 -4.708 0
M  V30 2 C 0.1037 -0.2415 -3.501 0
M  V30 3 C 1.1812 -0.085 -2.4782 0
M  V30 4 C -1.2695 -0.415 -3.0036 0
M  V30 5 O 2.4776 0.0438 -2.939 0
M  V30 6 C 0.8307 -0.0895 -1.1749 0
M  V30 7 C -1.4989 -0.4036 -1.6849 0
M  V30 8 O -0.4852 -0.2606 -0.754 0
M  V30 9 C 1.8164 0.1261 -0.0267 0 CFG=2
M  V30 10 C -2.8762 -0.6208 -1.102 0
M  V30 11 C 2.4345 -1.1901 0.4413 0
M  V30 12 C 1.1889 0.8958 1.1524 0
M  V30 13 N -3.5558 0.5308 -0.5022 0
M  V30 14 C 3.831 -1.3001 0.5572 0
M  V30 15 C 1.6441 -2.2986 0.788 0
M  V30 16 C 2.2379 1.4932 2.0654 0
M  V30 17 C -2.9238 1.0276 0.7295 0
M  V30 18 C -3.7645 1.6475 -1.4411 0
M  V30 19 C 4.4228 -2.4886 0.9916 0
M  V30 20 C 2.2361 -3.4867 1.22 0
M  V30 21 O 3.3821 1.7658 1.7229 0
M  V30 22 N 1.8013 1.7748 3.3261 0
M  V30 23 C -3.7557 2.1646 1.345 0
M  V30 24 C -4.5626 2.7818 -0.7752 0
M  V30 25 C 3.6182 -3.5736 1.3171 0
M  V30 26 O -3.9131 3.2462 0.417 0
M  V30 27 O 4.1521 -4.7517 1.7465 0
M  V30 28 H -2.0449 -0.5462 -3.7466 0
M  V30 29 H 3.1004 -0.1738 -2.2277 0
M  V30 30 H 2.6242 0.7568 -0.4223 0
M  V30 31 H -3.5384 -1.0305 -1.8768 0
M  V30 32 H -2.8099 -1.4225 -0.3542 0
M  V30 33 H 0.519 0.255 1.739 0
M  V30 34 H 0.5945 1.7405 0.7805 0
M  V30 35 H 4.4724 -0.4492 0.3298 0
M  V30 36 H 0.5595 -2.2534 0.7256 0
M  V30 37 H -2.8316 0.2193 1.4634 0
M  V30 38 H -1.9219 1.4163 0.5173 0
M  V30 39 H -2.7999 2.051 -1.7733 0
M  V30 40 H -4.3132 1.3024 -2.3246 0
M  V30 41 H 5.5036 -2.5422 1.0762 0
M  V30 42 H 1.6198 -4.3423 1.4815 0
M  V30 43 H 2.4617 2.1901 3.971 0
M  V30 44 H 0.8661 1.577 3.6519 0
M  V30 45 H -3.245 2.5598 2.2289 0
M  V30 46 H -4.7443 1.8108 1.6618 0
M  V30 47 H -4.6411 3.6314 -1.4609 0
M  V30 48 H -5.581 2.4585 -0.5279 0
M  V30 49 H 5.1196 -4.6671 1.7571 0
M  V30 END ATOM
M  V30 BEGIN BOND
M  V30 1 2 1 2
M  V30 2 1 2 3
M  V30 3 1 2 4
M  V30 4 1 3 5
M  V30 5 2 3 6
M  V30 6 2 4 7
M  V30 7 1 6 8
M  V30 8 1 6 9
M  V30 9 1 7 10
M  V30 10 1 9 11
M  V30 11 1 9 12
M  V30 12 1 10 13
M  V30 13 2 11 14
M  V30 14 1 11 15
M  V30 15 1 12 16
M  V30 16 1 13 17
M  V30 17 1 13 18
M  V30 18 1 14 19
M  V30 19 2 15 20
M  V30 20 2 16 21
M  V30 21 1 16 22
M  V30 22 1 17 23
M  V30 23 1 18 24
M  V30 24 2 19 25
M  V30 25 1 23 26
M  V30 26 1 25 27
M  V30 27 1 7 8
M  V30 28 1 20 25
M  V30 29 1 24 26
M  V30 30 1 4 28
M  V30 31 1 5 29
M  V30 32 1 9 30
M  V30 33 1 10 31
M  V30 34 1 10 32
M  V30 35 1 12 33
M  V30 36 1 12 34
M  V30 37 1 14 35
M  V30 38 1 15 36
M  V30 39 1 17 37
M  V30 40 1 17 38
M  V30 41 1 18 39
M  V30 42 1 18 40
M  V30 43 1 19 41
M  V30 44 1 20 42
M  V30 45 1 22 43
M  V30 46 1 22 44
M  V30 47 1 23 45
M  V30 48 1 23 46
M  V30 49 1 24 47
M  V30 50 1 24 48
M  V30 51 1 27 49
M  V30 END BOND
M  V30 BEGIN COLLECTION
M  V30 MDLV30/STEABS ATOMS=(1 9)
M  V30 END COLLECTION
M  V30 END CTAB
M  END
>  <Column 1>
2819

>  <level_0>
4057

>  <index>
4057

>  <Unnamed: 0>
4057

>  <NO.>
4069

>  <Name>
praziquantel

>  <IUPAC_name>
(3s)-3-[3-hydroxy-6-(morpholin-4-ylmethyl)-4-oxopyran-2-yl]-3-(4-hydroxyphenyl)propanamide

>  <SMILES>
NC(=O)C[C@@H](c1ccc(O)cc1)c1oc(CN2CCOCC2)cc(=O)c1O

>  <CID>
100004891

>  <logBB>


>  <BBB+/BBB->
BBB+

>  <Inchi>
InChI=1S/C19H22N2O6/c20-17(24)10-15(12-1-3-13(22)4-2-12)19-18(25)16(23)9-14(27-19)11-21-5-7-26-8-6-21/h1-4-9-15-22-25H-5-8-10-11H2-(H2-20-24)/t15-/m0/s1

>  <threshold>
-1

>  <reference>
R16|R10|

>  <group>
B

>  <Class>
-1

>  <ABC>
20.89

>  <ABCGG>
16.81

>  <nAcid>
0

>  <nBase>
1

>  <nAromAtom>
12

>  <nAromBond>
12

>  <nAtom>
49

>  <nHeavyAtom>
27

>  <nSpiro>
0

>  <nBridgehead>
0

>  <nHetero>
8

>  <nN>
2

>  <nO>
6

>  <nF>
0

>  <BalabanJ>
1.68

>  <BertzCT>
855.49

>  <nBonds>
51

>  <nBondsO>
29

>  <nBondsS>
37

>  <nBondsD>
2

>  <nBondsT>
0

>  <nBondsA>
12

>  <nBondsM>
14

>  <nBondsKS>
44

>  <nBondsKD>
7

>  <RNCG>
0.16

>  <RPCG>
0.09

>  <FCSP3>
0.37

>  <SZ>
33

>  <Sm>
31.17

>  <Sv>
30.76

>  <Sse>
50.08

>  <Sp>
31.98

>  <Si>
55.41

>  <MZ>
0.67

>  <Mm>
0.64

>  <Mv>
0.63

>  <Mse>
1.02

>  <Mp>
0.65

>  <Mi>
1.13

>  <NsCH3>
0

>  <NdCH2>
0

>  <NssCH2>
6

>  <NtCH>
0

>  <NdsCH>
0

>  <NaaCH>
5

>  <NsssCH>
1

>  <NddC>
0

>  <NtsC>
0

>  <NdssC>
1

>  <NaasC>
5

>  <NaaaC>
0

>  <NssssC>
0

>  <NsNH3>
0

>  <NsNH2>
1

>  <NssNH2>
0

>  <NdNH>
0

>  <NssNH>
0

>  <NaaNH>
0

>  <NtN>
0

>  <NsssNH>
0

>  <NdsN>
0

>  <NaaN>
0

>  <NsssN>
1

>  <NddsN>
0

>  <NaasN>
0

>  <NssssN>
0

>  <NsOH>
2

>  <NdO>
2

>  <NssO>
1

>  <NaaO>
1

>  <NsF>
0

>  <NsSiH3>
0

>  <NssSiH2>
0

>  <NsssSiH>
0

>  <NssssSi>
0

>  <NsPH2>
0

>  <NssPH>
0

>  <NsssP>
0

>  <NdsssP>
0

>  <NsssssP>
0

>  <NsSH>
0

>  <NdS>
0

>  <NssS>
0

>  <NaaS>
0

>  <NdssS>
0

>  <NddssS>
0

>  <NsCl>
0

>  <NsBr>
0

>  <NsI>
0

>  <fragCpx>
139.08

>  <fMF>
0.41

>  <nHBAcc>
7

>  <nHBDon>
3

>  <Kier1>
21.7

>  <Kier2>
10.16

>  <Lipinski>
1

>  <GhoseFilter>
1

>  <FilterItLogS>
-3.12

>  <VMcGowan>
271.07

>  <LabuteASA>
155.33

>  <PEOE_VSA1>
25.1

>  <PEOE_VSA2>
14.49

>  <PEOE_VSA3>
0

>  <PEOE_VSA4>
0

>  <PEOE_VSA5>
0

>  <PEOE_VSA6>
12.13

>  <PEOE_VSA7>
17.7

>  <PEOE_VSA8>
25.58

>  <PEOE_VSA9>
25.68

>  <PEOE_VSA10>
11.51

>  <PEOE_VSA11>
5.76

>  <PEOE_VSA12>
17.09

>  <PEOE_VSA13>
0

>  <SMR_VSA1>
24.16

>  <SMR_VSA2>
0

>  <SMR_VSA3>
4.9

>  <SMR_VSA4>
5.73

>  <SMR_VSA5>
18.88

>  <SMR_VSA6>
26.3

>  <SMR_VSA7>
57.64

>  <SMR_VSA8>
0

>  <SMR_VSA9>
11.5

>  <SlogP_VSA1>
11.16

>  <SlogP_VSA2>
47.32

>  <SlogP_VSA3>
16.08

>  <SlogP_VSA4>
0

>  <SlogP_VSA5>
29.42

>  <SlogP_VSA6>
39.54

>  <SlogP_VSA7>
0

>  <SlogP_VSA8>
0

>  <SlogP_VSA9>
0

>  <SlogP_VSA10>
0

>  <SlogP_VSA11>
11.5

>  <EState_VSA1>
23

>  <EState_VSA2>
17.93

>  <EState_VSA3>
44.17

>  <EState_VSA4>
0

>  <EState_VSA5>
18.2

>  <EState_VSA6>
12.13

>  <EState_VSA7>
0

>  <EState_VSA8>
4.9

>  <EState_VSA9>
14.89

>  <EState_VSA10>
19.8

>  <VSA_EState1>
11.14

>  <VSA_EState2>
25.91

>  <VSA_EState3>
19.77

>  <VSA_EState4>
5.38

>  <VSA_EState5>
-1.43

>  <VSA_EState6>
7.35

>  <VSA_EState7>
-0.15

>  <VSA_EState8>
3.02

>  <VSA_EState9>
0

>  <apol>
53.41

>  <bpol>
28.42

>  <nRing>
3

>  <nHRing>
2

>  <naRing>
2

>  <naHRing>
1

>  <nARing 2>
1

>  <nAHRing 2>
1

>  <nFRing>
0

>  <nFHRing>
0

>  <nFaRing>
0

>  <nFaHRing>
0

>  <nFARing 2>
0

>  <nFAHRing 2>
0

>  <nRot>
6

>  <SLogP>
0.89

>  <SMR>
96.5

>  <TopoPSA(NO)>
126.23

>  <TopoPSA>
126.23

>  <JGI1>
0.21

>  <JGI2>
0.07

>  <JGI3>
0.04

>  <JGI4>
0.04

>  <JGI5>
0.03

>  <Diameter>
13

>  <Radius>
7

>  <TMWC10>
131.45

>  <TSRW10>
61.96

>  <MW>
374.15

>  <AMW>
7.64

>  <WPath>
1828

>  <WPol>
41

>  <Zagreb1>
138

>  <Zagreb2>
159

>  <mZagreb2>
5.94

>  <yes>


>  <nAR-cont>
0.816016

>  <nHA-cont>
0.860070871

>  <MWHBN>
0.516984027

>  <MWHBN-cont>
0

>  <TPSA-cont>
0

>  <pka_cont>
0.97

>  <yes.1>


>  <BBB_SCORE>
2.161086871

>  <MMFF94 Energy>
75.996

$$$$
Compound 2308
Actelion Java MolfileCreator 2.0

  0  0  0  0  0  0              0 V3000
M  V30 BEGIN CTAB
M  V30 COUNTS 53 56 0 0 0
M  V30 BEGIN ATOM
M  V30 1 O -0.2403 -1.2822 4.6539 0
M  V30 2 C -0.0741 -0.9383 3.4885 0
M  V30 3 C -1.1 -1.1571 2.4209 0
M  V30 4 C 1.1859 -0.2908 3.0915 0
M  V30 5 O -2.2763 -1.7743 2.802 0
M  V30 6 C -0.8084 -0.7462 1.1688 0
M  V30 7 C 1.3713 0.0444 1.81 0
M  V30 8 O 0.414 -0.1715 0.8372 0
M  V30 9 C -1.7442 -0.8479 -0.0317 0 CFG=1
M  V30 10 C 2.6283 0.7122 1.3083 0
M  V30 11 C -1.946 0.5274 -0.692 0
M  V30 12 C -1.233 -1.9695 -0.9624 0
M  V30 13 N 3.317 -0.0648 0.263 0
M  V30 14 C -2.9326 1.4499 -0.2227 0
M  V30 15 C -1.118 0.9314 -1.7501 0
M  V30 16 C -2.2763 -2.3558 -1.9844 0
M  V30 17 C 4.3727 0.7565 -0.3698 0
M  V30 18 C 3.9408 -1.2892 0.8137 0
M  V30 19 C -3.0353 2.696 -0.8918 0
M  V30 20 C -3.8104 1.2149 0.8671 0
M  V30 21 C -1.3094 2.1741 -2.3211 0
M  V30 22 O -3.4779 -2.3909 -1.7478 0
M  V30 23 N -1.7871 -2.734 -3.1979 0
M  V30 24 C 5.1502 -0.0468 -1.4236 0
M  V30 25 C 4.7307 -2.0468 -0.2657 0
M  V30 26 N -2.2483 3.0469 -1.9187 0
M  V30 27 C -3.9848 3.6193 -0.4756 0
M  V30 28 C -4.7543 2.1617 1.2685 0
M  V30 29 O 5.744 -1.2165 -0.8467 0
M  V30 30 C -4.8443 3.3673 0.5928 0
M  V30 31 H 1.9186 -0.1238 3.8695 0
M  V30 32 H -2.7807 -2.0706 2.0304 0
M  V30 33 H -2.7352 -1.1748 0.296 0
M  V30 34 H 2.32 1.681 0.892 0
M  V30 35 H 3.3114 0.9378 2.1382 0
M  V30 36 H -0.2877 -1.7135 -1.4522 0
M  V30 37 H -1.0368 -2.8788 -0.3775 0
M  V30 38 H -0.3136 0.3135 -2.1301 0
M  V30 39 H 3.9246 1.6304 -0.8565 0
M  V30 40 H 5.0754 1.1153 0.3938 0
M  V30 41 H 4.6233 -1.0254 1.6324 0
M  V30 42 H 3.1752 -1.9631 1.2135 0
M  V30 43 H -3.7749 0.2895 1.4331 0
M  V30 44 H -0.6859 2.5142 -3.143 0
M  V30 45 H -2.455 -3.0138 -3.9059 0
M  V30 46 H -0.8039 -2.7522 -3.4286 0
M  V30 47 H 5.9589 0.5662 -1.8342 0
M  V30 48 H 4.5013 -0.3432 -2.2567 0
M  V30 49 H 5.2294 -2.9131 0.1805 0
M  V30 50 H 4.0675 -2.4162 -1.0574 0
M  V30 51 H -4.0548 4.5697 -1.0003 0
M  V30 52 H -5.4138 1.9532 2.1074 0
M  V30 53 H -5.5746 4.114 0.8924 0
M  V30 END ATOM
M  V30 BEGIN BOND
M  V30 1 2 1 2
M  V30 2 1 2 3
M  V30 3 1 2 4
M  V30 4 1 3 5
M  V30 5 2 3 6
M  V30 6 2 4 7
M  V30 7 1 6 8
M  V30 8 1 6 9
M  V30 9 1 7 10
M  V30 10 1 9 11
M  V30 11 1 9 12
M  V30 12 1 10 13
M  V30 13 1 11 14
M  V30 14 2 11 15
M  V30 15 1 12 16
M  V30 16 1 13 17
M  V30 17 1 13 18
M  V30 18 1 14 19
M  V30 19 2 14 20
M  V30 20 1 15 21
M  V30 21 2 16 22
M  V30 22 1 16 23
M  V30 23 1 17 24
M  V30 24 1 18 25
M  V30 25 1 19 26
M  V30 26 2 19 27
M  V30 27 1 20 28
M  V30 28 1 24 29
M  V30 29 1 27 30
M  V30 30 1 7 8
M  V30 31 2 21 26
M  V30 32 1 25 29
M  V30 33 2 28 30
M  V30 34 1 4 31
M  V30 35 1 5 32
M  V30 36 1 9 33
M  V30 37 1 10 34
M  V30 38 1 10 35
M  V30 39 1 12 36
M  V30 40 1 12 37
M  V30 41 1 15 38
M  V30 42 1 17 39
M  V30 43 1 17 40
M  V30 44 1 18 41
M  V30 45 1 18 42
M  V30 46 1 20 43
M  V30 47 1 21 44
M  V30 48 1 23 45
M  V30 49 1 23 46
M  V30 50 1 24 47
M  V30 51 1 24 48
M  V30 52 1 25 49
M  V30 53 1 25 50
M  V30 54 1 27 51
M  V30 55 1 28 52
M  V30 56 1 30 53
M  V30 END BOND
M  V30 BEGIN COLLECTION
M  V30 MDLV30/STEABS ATOMS=(1 9)
M  V30 END COLLECTION
M  V30 END CTAB
M  END
>  <Column 1>
2820

>  <level_0>
4058

>  <index>
4058

>  <Unnamed: 0>
4058

>  <NO.>
4070

>  <Name>
ketorolac

>  <IUPAC_name>
(3r)-3-[3-hydroxy-6-(morpholin-4-ylmethyl)-4-oxopyran-2-yl]-3-quinolin-4-ylpropanamide

>  <SMILES>
NC(=O)C[C@@H](c1oc(CN2CCOCC2)cc(=O)c1O)c1ccnc2ccccc12

>  <CID>
100003826

>  <logBB>


>  <BBB+/BBB->
BBB-

>  <Inchi>
InChI=1S/C22H23N3O5/c23-20(27)12-17(15-5-6-24-18-4-2-1-3-16(15)18)22-21(28)19(26)11-14(30-22)13-25-7-9-29-10-8-25/h1-6-11-17-28H-7-10-12-13H2-(H2-23-27)/t17-/m1/s1

>  <threshold>
-1

>  <reference>
R16|R10|

>  <group>
B

>  <Class>
-1

>  <ABC>
23.53

>  <ABCGG>
18.36

>  <nAcid>
0

>  <nBase>
1

>  <nAromAtom>
16

>  <nAromBond>
17

>  <nAtom>
53

>  <nHeavyAtom>
30

>  <nSpiro>
0

>  <nBridgehead>
0

>  <nHetero>
8

>  <nN>
3

>  <nO>
5

>  <nF>
0

>  <BalabanJ>
1.5

>  <BertzCT>
1115.95

>  <nBonds>
56

>  <nBondsO>
33

>  <nBondsS>
37

>  <nBondsD>
2

>  <nBondsT>
0

>  <nBondsA>
17

>  <nBondsM>
19

>  <nBondsKS>
47

>  <nBondsKD>
9

>  <RNCG>
0.16

>  <RPCG>
0.09

>  <FCSP3>
0.32

>  <SZ>
36

>  <Sm>
34.09

>  <Sv>
34.08

>  <Sse>
53.85

>  <Sp>
35.56

>  <Si>
59.69

>  <MZ>
0.68

>  <Mm>
0.64

>  <Mv>
0.64

>  <Mse>
1.02

>  <Mp>
0.67

>  <Mi>
1.13

>  <NsCH3>
0

>  <NdCH2>
0

>  <NssCH2>
6

>  <NtCH>
0

>  <NdsCH>
0

>  <NaaCH>
7

>  <NsssCH>
1

>  <NddC>
0

>  <NtsC>
0

>  <NdssC>
1

>  <NaasC>
4

>  <NaaaC>
2

>  <NssssC>
0

>  <NsNH3>
0

>  <NsNH2>
1

>  <NssNH2>
0

>  <NdNH>
0

>  <NssNH>
0

>  <NaaNH>
0

>  <NtN>
0

>  <NsssNH>
0

>  <NdsN>
0

>  <NaaN>
1

>  <NsssN>
1

>  <NddsN>
0

>  <NaasN>
0

>  <NssssN>
0

>  <NsOH>
1

>  <NdO>
2

>  <NssO>
1

>  <NaaO>
1

>  <NsF>
0

>  <NsSiH3>
0

>  <NssSiH2>
0

>  <NsssSiH>
0

>  <NssssSi>
0

>  <NsPH2>
0

>  <NssPH>
0

>  <NsssP>
0

>  <NdsssP>
0

>  <NsssssP>
0

>  <NsSH>
0

>  <NdS>
0

>  <NssS>
0

>  <NaaS>
0

>  <NdssS>
0

>  <NddssS>
0

>  <NsCl>
0

>  <NsBr>
0

>  <NsI>
0

>  <fragCpx>
219.08

>  <fMF>
0.45

>  <nHBAcc>
7

>  <nHBDon>
2

>  <Kier1>
23.17

>  <Kier2>
10.74

>  <Lipinski>
1

>  <GhoseFilter>
1

>  <FilterItLogS>
-4.67

>  <VMcGowan>
297.99

>  <LabuteASA>
172.44

>  <PEOE_VSA1>
19.99

>  <PEOE_VSA2>
19.47

>  <PEOE_VSA3>
0

>  <PEOE_VSA4>
0

>  <PEOE_VSA5>
0

>  <PEOE_VSA6>
18.2

>  <PEOE_VSA7>
17.7

>  <PEOE_VSA8>
37.16

>  <PEOE_VSA9>
31.19

>  <PEOE_VSA10>
5.76

>  <PEOE_VSA11>
5.76

>  <PEOE_VSA12>
17.09

>  <PEOE_VSA13>
0

>  <SMR_VSA1>
19.06

>  <SMR_VSA2>
0

>  <SMR_VSA3>
9.88

>  <SMR_VSA4>
5.73

>  <SMR_VSA5>
18.88

>  <SMR_VSA6>
26.3

>  <SMR_VSA7>
69.9

>  <SMR_VSA8>
0

>  <SMR_VSA9>
5.75

>  <SlogP_VSA1>
11.16

>  <SlogP_VSA2>
47.2

>  <SlogP_VSA3>
16.08

>  <SlogP_VSA4>
0

>  <SlogP_VSA5>
29.42

>  <SlogP_VSA6>
51.81

>  <SlogP_VSA7>
0

>  <SlogP_VSA8>
10.9

>  <SlogP_VSA9>
0

>  <SlogP_VSA10>
0

>  <SlogP_VSA11>
5.75

>  <EState_VSA1>
23

>  <EState_VSA2>
12.18

>  <EState_VSA3>
31.08

>  <EState_VSA4>
23.99

>  <EState_VSA5>
6.07

>  <EState_VSA6>
12.26

>  <EState_VSA7>
24.27

>  <EState_VSA8>
9.88

>  <EState_VSA9>
14.89

>  <EState_VSA10>
14.7

>  <VSA_EState1>
11.35

>  <VSA_EState2>
30.83

>  <VSA_EState3>
11.34

>  <VSA_EState4>
6.4

>  <VSA_EState5>
-1.33

>  <VSA_EState6>
10.5

>  <VSA_EState7>
1.5

>  <VSA_EState8>
3.08

>  <VSA_EState9>
0

>  <apol>
59.39

>  <bpol>
30.56

>  <nRing>
4

>  <nHRing>
3

>  <naRing>
3

>  <naHRing>
2

>  <nARing 2>
1

>  <nAHRing 2>
1

>  <nFRing>
1

>  <nFHRing>
1

>  <nFaRing>
1

>  <nFaHRing>
1

>  <nFARing 2>
0

>  <nFAHRing 2>
0

>  <nRot>
6

>  <SLogP>
1.73

>  <SMR>
110.14

>  <TopoPSA(NO)>
118.89

>  <TopoPSA>
118.89

>  <JGI1>
0.17

>  <JGI2>
0.06

>  <JGI3>
0.04

>  <JGI4>
0.04

>  <JGI5>
0.02

>  <Diameter>
13

>  <Radius>
7

>  <TMWC10>
140.32

>  <TSRW10>
65.8

>  <MW>
409.16

>  <AMW>
7.72

>  <WPath>
2337

>  <WPol>
49

>  <Zagreb1>
158

>  <Zagreb2>
186

>  <mZagreb2>
6.58

>  <yes>


>  <nAR-cont>
0.816016

>  <nHA-cont>
0.74523694

>  <MWHBN>
0.444934339

>  <MWHBN-cont>
0.304196487

>  <TPSA-cont>
0.170073974

>  <pka_cont>
0.97

>  <yes.1>


>  <BBB_SCORE>
2.842695618

>  <MMFF94 Energy>
104.86

$$$$
Compound 2309
Actelion Java MolfileCreator 2.0

  0  0  0  0  0  0              0 V3000
M  V30 BEGIN CTAB
M  V30 COUNTS 36 38 0 0 0
M  V30 BEGIN ATOM
M  V30 1 Cl -0.8323 -5.1684 4.25 0
M  V30 2 C -0.1863 -4.0447 3.1195 0
M  V30 3 C 0.007 -2.7152 3.4993 0
M  V30 4 C 0.1421 -4.4701 1.8317 0
M  V30 5 C 0.5273 -1.7984 2.5833 0
M  V30 6 C 0.6635 -3.559 0.911 0
M  V30 7 C 0.8411 -2.2241 1.2884 0
M  V30 8 S 1.4958 -1.0533 0.1238 0
M  V30 9 O 2.6397 -0.4359 0.7651 0
M  V30 10 O 1.6166 -1.7144 -1.1578 0
M  V30 11 C 0.2381 0.2399 0.018 0 CFG=1
M  V30 12 C 0.3447 1.0013 -1.2835 0 CFG=1
M  V30 13 C -0.8847 0.1547 -0.9811 0 CFG=1
M  V30 14 C 0.259 2.5108 -1.2702 0
M  V30 15 C -1.2299 -1.0673 -1.7258 0
M  V30 16 C -0.7393 3.1935 -1.9849 0
M  V30 17 C 1.1065 3.2783 -0.4524 0
M  V30 18 S -1.251 -1.0501 -3.3807 0
M  V30 19 N -1.6539 -2.1381 -1.0015 0
M  V30 20 C -0.8652 4.5835 -1.9149 0
M  V30 21 C 0.9856 4.6685 -0.3783 0
M  V30 22 C -8.0E-4 5.3211 -1.1115 0
M  V30 23 H -0.2344 -2.3929 4.5098 0
M  V30 24 H 0.0024 -5.5092 1.5428 0
M  V30 25 H 0.7025 -0.7706 2.8941 0
M  V30 26 H 0.928 -3.8967 -0.0898 0
M  V30 27 H 0.0621 0.7976 0.9275 0
M  V30 28 H 1.0282 0.6148 -2.039 0
M  V30 29 H -1.7799 0.7095 -0.6992 0
M  V30 30 H -1.4243 2.6351 -2.6207 0
M  V30 31 H 1.8871 2.7877 0.1272 0
M  V30 32 H -1.9322 -2.9761 -1.5011 0
M  V30 33 H -1.7549 -2.1405 0.0044 0
M  V30 34 H -1.6377 5.0876 -2.4902 0
M  V30 35 H 1.6642 5.2394 0.2503 0
M  V30 36 H -0.0947 6.4026 -1.0585 0
M  V30 END ATOM
M  V30 BEGIN BOND
M  V30 1 1 1 2
M  V30 2 2 2 3
M  V30 3 1 2 4
M  V30 4 1 3 5
M  V30 5 2 4 6
M  V30 6 2 5 7
M  V30 7 1 7 8
M  V30 8 2 8 9
M  V30 9 2 8 10
M  V30 10 1 8 11
M  V30 11 1 11 12
M  V30 12 1 11 13
M  V30 13 1 12 14
M  V30 14 1 13 15
M  V30 15 2 14 16
M  V30 16 1 14 17
M  V30 17 2 15 18
M  V30 18 1 15 19
M  V30 19 1 16 20
M  V30 20 2 17 21
M  V30 21 2 20 22
M  V30 22 1 6 7
M  V30 23 1 12 13
M  V30 24 1 21 22
M  V30 25 1 3 23
M  V30 26 1 4 24
M  V30 27 1 5 25
M  V30 28 1 6 26
M  V30 29 1 11 27
M  V30 30 1 12 28
M  V30 31 1 13 29
M  V30 32 1 16 30
M  V30 33 1 17 31
M  V30 34 1 19 32
M  V30 35 1 19 33
M  V30 36 1 20 34
M  V30 37 1 21 35
M  V30 38 1 22 36
M  V30 END BOND
M  V30 BEGIN COLLECTION
M  V30 MDLV30/STEABS ATOMS=(3 11 12 13)
M  V30 END COLLECTION
M  V30 END CTAB
M  END
>  <Column 1>
2821

>  <level_0>
4061

>  <index>
4061

>  <Unnamed: 0>
4061

>  <NO.>
4073

>  <Name>
chlorpropamide

>  <IUPAC_name>
(1r-2s-3s)-2-(4-chlorophenyl)sulfonyl-3-phenylcyclopropane-1-carbothioamide

>  <SMILES>
NC(=S)[C@@H]1[C@@H](c2ccccc2)[C@@H]1S(=O)(=O)c1ccc(Cl)cc1

>  <CID>
100002727

>  <logBB>


>  <BBB+/BBB->
BBB-

>  <Inchi>
InChI=1S/C16H14ClNO2S2/c17-11-6-8-12(9-7-11)22(19-20)15-13(14(15)16(18)21)10-4-2-1-3-5-10/h1-9-13-15H-(H2-18-21)/t13--14--15+/m1/s1

>  <threshold>
-1

>  <reference>
R16|R10|R10|

>  <group>
B

>  <Class>
-1

>  <ABC>
17.29

>  <ABCGG>
15.06

>  <nAcid>
0

>  <nBase>
0

>  <nAromAtom>
12

>  <nAromBond>
12

>  <nAtom>
36

>  <nHeavyAtom>
22

>  <nSpiro>
0

>  <nBridgehead>
0

>  <nHetero>
6

>  <nN>
1

>  <nO>
2

>  <nF>
0

>  <BalabanJ>
1.7

>  <BertzCT>
803.8

>  <nBonds>
38

>  <nBondsO>
24

>  <nBondsS>
23

>  <nBondsD>
3

>  <nBondsT>
0

>  <nBondsA>
12

>  <nBondsM>
15

>  <nBondsKS>
29

>  <nBondsKD>
9

>  <RNCG>
0.26

>  <RPCG>
0.12

>  <FCSP3>
0.19

>  <SZ>
30.33

>  <Sm>
29.3

>  <Sv>
25.45

>  <Sse>
36.46

>  <Sp>
27.99

>  <Si>
39.61

>  <MZ>
0.84

>  <Mm>
0.81

>  <Mv>
0.71

>  <Mse>
1.01

>  <Mp>
0.78

>  <Mi>
1.1

>  <NsCH3>
0

>  <NdCH2>
0

>  <NssCH2>
0

>  <NtCH>
0

>  <NdsCH>
0

>  <NaaCH>
9

>  <NsssCH>
3

>  <NddC>
0

>  <NtsC>
0

>  <NdssC>
1

>  <NaasC>
3

>  <NaaaC>
0

>  <NssssC>
0

>  <NsNH3>
0

>  <NsNH2>
1

>  <NssNH2>
0

>  <NdNH>
0

>  <NssNH>
0

>  <NaaNH>
0

>  <NtN>
0

>  <NsssNH>
0

>  <NdsN>
0

>  <NaaN>
0

>  <NsssN>
0

>  <NddsN>
0

>  <NaasN>
0

>  <NssssN>
0

>  <NsOH>
0

>  <NdO>
2

>  <NssO>
0

>  <NaaO>
0

>  <NsF>
0

>  <NsSiH3>
0

>  <NssSiH2>
0

>  <NsssSiH>
0

>  <NssssSi>
0

>  <NsPH2>
0

>  <NssPH>
0

>  <NsssP>
0

>  <NdsssP>
0

>  <NsssssP>
0

>  <NsSH>
0

>  <NdS>
1

>  <NssS>
0

>  <NaaS>
0

>  <NdssS>
0

>  <NddssS>
1

>  <NsCl>
1

>  <NsBr>
0

>  <NsI>
0

>  <fragCpx>
114.06

>  <fMF>
0.44

>  <nHBAcc>
3

>  <nHBDon>
1

>  <Kier1>
16.84

>  <Kier2>
6.48

>  <Lipinski>
1

>  <GhoseFilter>
1

>  <FilterItLogS>
-3.98

>  <VMcGowan>
240.28

>  <LabuteASA>
139.57

>  <PEOE_VSA1>
5.73

>  <PEOE_VSA2>
0

>  <PEOE_VSA3>
8.42

>  <PEOE_VSA4>
0

>  <PEOE_VSA5>
0

>  <PEOE_VSA6>
54.15

>  <PEOE_VSA7>
29.83

>  <PEOE_VSA8>
16.86

>  <PEOE_VSA9>
15.13

>  <PEOE_VSA10>
0

>  <PEOE_VSA11>
9.84

>  <PEOE_VSA12>
0

>  <PEOE_VSA13>
0

>  <SMR_VSA1>
8.42

>  <SMR_VSA2>
0

>  <SMR_VSA3>
0

>  <SMR_VSA4>
11.65

>  <SMR_VSA5>
16.06

>  <SMR_VSA6>
0

>  <SMR_VSA7>
65.18

>  <SMR_VSA8>
0

>  <SMR_VSA9>
0

>  <SlogP_VSA1>
5.73

>  <SlogP_VSA2>
18.66

>  <SlogP_VSA3>
9.84

>  <SlogP_VSA4>
5.92

>  <SlogP_VSA5>
11.48

>  <SlogP_VSA6>
59.49

>  <SlogP_VSA7>
5.02

>  <SlogP_VSA8>
0

>  <SlogP_VSA9>
0

>  <SlogP_VSA10>
0

>  <SlogP_VSA11>
0

>  <EState_VSA1>
15.09

>  <EState_VSA2>
21.72

>  <EState_VSA3>
5.02

>  <EState_VSA4>
5.56

>  <EState_VSA5>
12.13

>  <EState_VSA6>
12.13

>  <EState_VSA7>
30.33

>  <EState_VSA8>
0

>  <EState_VSA9>
29.55

>  <EState_VSA10>
8.42

>  <VSA_EState1>
25.69

>  <VSA_EState2>
0.5

>  <VSA_EState3>
-0.1

>  <VSA_EState4>
6.71

>  <VSA_EState5>
-0.5

>  <VSA_EState6>
15.68

>  <VSA_EState7>
0

>  <VSA_EState8>
0

>  <VSA_EState9>
-3.5

>  <apol>
46.74

>  <bpol>
21.87

>  <nRing>
3

>  <nHRing>
0

>  <naRing>
2

>  <naHRing>
0

>  <nARing 2>
1

>  <nAHRing 2>
0

>  <nFRing>
0

>  <nFHRing>
0

>  <nFaRing>
0

>  <nFaHRing>
0

>  <nFARing 2>
0

>  <nFAHRing 2>
0

>  <nRot>
4

>  <SLogP>
3.18

>  <SMR>
91.88

>  <TopoPSA(NO)>
60.16

>  <TopoPSA>
100.63

>  <JGI1>
0.21

>  <JGI2>
0.11

>  <JGI3>
0.09

>  <JGI4>
0.06

>  <JGI5>
0.03

>  <Diameter>
11

>  <Radius>
6

>  <TMWC10>
122.65

>  <TSRW10>
77.48

>  <MW>
351.02

>  <AMW>
9.75

>  <WPath>
1019

>  <WPol>
35

>  <Zagreb1>
120

>  <Zagreb2>
146

>  <mZagreb2>
4.72

>  <yes>


>  <nAR-cont>
0.816016

>  <nHA-cont>
0.983774276

>  <MWHBN>
0.213498123

>  <MWHBN-cont>
0.998243426

>  <TPSA-cont>
0.297540113

>  <pka_cont>
0.97

>  <yes.1>


>  <BBB_SCORE>
4.37723564

>  <MMFF94 Energy>
29.964

$$$$
Compound 2310
Actelion Java MolfileCreator 2.0

  0  0  0  0  0  0              0 V3000
M  V30 BEGIN CTAB
M  V30 COUNTS 36 38 0 0 0
M  V30 BEGIN ATOM
M  V30 1 Cl -4.4164 3.4986 -1.8315 0
M  V30 2 C -3.337 2.1773 -1.6131 0
M  V30 3 C -2.9265 1.8245 -0.3271 0
M  V30 4 C -2.8827 1.4647 -2.7241 0
M  V30 5 C -2.049 0.7535 -0.1476 0
M  V30 6 C -2.003 0.3937 -2.5517 0
M  V30 7 C -1.5784 0.0541 -1.2629 0
M  V30 8 S -0.4702 -1.3146 -1.0402 0
M  V30 9 O -0.5763 -1.7597 0.3308 0
M  V30 10 O -0.7143 -2.254 -2.1216 0
M  V30 11 C 1.1504 -0.6262 -1.404 0 CFG=1
M  V30 12 C 2.0055 -0.0185 -0.3281 0 CFG=2
M  V30 13 C 2.3514 -1.381 -0.8916 0 CFG=1
M  V30 14 C 1.4176 0.4449 0.9868 0
M  V30 15 C 2.3569 -2.6738 -0.1898 0
M  V30 16 C 1.216 -0.347 2.1246 0
M  V30 17 C 1.193 1.8298 1.1578 0
M  V30 18 S 3.5526 -2.9521 0.9295 0
M  V30 19 N 1.5333 -3.6689 -0.6148 0
M  V30 20 C 0.75 0.1873 3.3334 0
M  V30 21 C 0.7303 2.3762 2.3595 0
M  V30 22 C 0.5027 1.5492 3.4499 0
M  V30 23 H -3.2892 2.3736 0.5385 0
M  V30 24 H -3.2166 1.7346 -3.7231 0
M  V30 25 H -1.7418 0.475 0.8593 0
M  V30 26 H -1.6657 -0.1692 -3.4193 0
M  V30 27 H 1.231 -0.1979 -2.3952 0
M  V30 28 H 2.7069 0.7359 -0.7022 0
M  V30 29 H 3.1862 -1.361 -1.5984 0
M  V30 30 H 1.3819 -1.4183 2.0923 0
M  V30 31 H 1.3779 2.5092 0.3267 0
M  V30 32 H 1.5744 -4.5691 -0.151 0
M  V30 33 H 0.8448 -3.5768 -1.3561 0
M  V30 34 H 0.5862 -0.4721 4.1823 0
M  V30 35 H 0.5599 3.4465 2.4415 0
M  V30 36 H 0.1467 1.9619 4.3898 0
M  V30 END ATOM
M  V30 BEGIN BOND
M  V30 1 1 1 2
M  V30 2 2 2 3
M  V30 3 1 2 4
M  V30 4 1 3 5
M  V30 5 2 4 6
M  V30 6 2 5 7
M  V30 7 1 7 8
M  V30 8 2 8 9
M  V30 9 2 8 10
M  V30 10 1 8 11
M  V30 11 1 11 12
M  V30 12 1 11 13
M  V30 13 1 12 14
M  V30 14 1 13 15
M  V30 15 2 14 16
M  V30 16 1 14 17
M  V30 17 2 15 18
M  V30 18 1 15 19
M  V30 19 1 16 20
M  V30 20 2 17 21
M  V30 21 2 20 22
M  V30 22 1 6 7
M  V30 23 1 12 13
M  V30 24 1 21 22
M  V30 25 1 3 23
M  V30 26 1 4 24
M  V30 27 1 5 25
M  V30 28 1 6 26
M  V30 29 1 11 27
M  V30 30 1 12 28
M  V30 31 1 13 29
M  V30 32 1 16 30
M  V30 33 1 17 31
M  V30 34 1 19 32
M  V30 35 1 19 33
M  V30 36 1 20 34
M  V30 37 1 21 35
M  V30 38 1 22 36
M  V30 END BOND
M  V30 BEGIN COLLECTION
M  V30 MDLV30/STEABS ATOMS=(3 11 12 13)
M  V30 END COLLECTION
M  V30 END CTAB
M  END
>  <Column 1>
2822

>  <level_0>
4062

>  <index>
4062

>  <Unnamed: 0>
4062

>  <NO.>
4074

>  <Name>
chlorothiazide

>  <IUPAC_name>
(1r-2s-3r)-2-(4-chlorophenyl)sulfonyl-3-phenylcyclopropane-1-carbothioamide

>  <SMILES>
NC(=S)[C@H]1[C@@H](S(=O)(=O)c2ccc(Cl)cc2)[C@H]1c1ccccc1

>  <CID>
100002720

>  <logBB>


>  <BBB+/BBB->
BBB-

>  <Inchi>
InChI=1S/C16H14ClNO2S2/c17-11-6-8-12(9-7-11)22(19-20)15-13(14(15)16(18)21)10-4-2-1-3-5-10/h1-9-13-15H-(H2-18-21)/t13--14+-15-/m0/s1

>  <threshold>
-1

>  <reference>
R16|R16|R10|R10|

>  <group>
B

>  <Class>
1

>  <ABC>
17.29

>  <ABCGG>
15.06

>  <nAcid>
0

>  <nBase>
0

>  <nAromAtom>
12

>  <nAromBond>
12

>  <nAtom>
36

>  <nHeavyAtom>
22

>  <nSpiro>
0

>  <nBridgehead>
0

>  <nHetero>
6

>  <nN>
1

>  <nO>
2

>  <nF>
0

>  <BalabanJ>
1.7

>  <BertzCT>
803.8

>  <nBonds>
38

>  <nBondsO>
24

>  <nBondsS>
23

>  <nBondsD>
3

>  <nBondsT>
0

>  <nBondsA>
12

>  <nBondsM>
15

>  <nBondsKS>
29

>  <nBondsKD>
9

>  <RNCG>
0.26

>  <RPCG>
0.12

>  <FCSP3>
0.19

>  <SZ>
30.33

>  <Sm>
29.3

>  <Sv>
25.45

>  <Sse>
36.46

>  <Sp>
27.99

>  <Si>
39.61

>  <MZ>
0.84

>  <Mm>
0.81

>  <Mv>
0.71

>  <Mse>
1.01

>  <Mp>
0.78

>  <Mi>
1.1

>  <NsCH3>
0

>  <NdCH2>
0

>  <NssCH2>
0

>  <NtCH>
0

>  <NdsCH>
0

>  <NaaCH>
9

>  <NsssCH>
3

>  <NddC>
0

>  <NtsC>
0

>  <NdssC>
1

>  <NaasC>
3

>  <NaaaC>
0

>  <NssssC>
0

>  <NsNH3>
0

>  <NsNH2>
1

>  <NssNH2>
0

>  <NdNH>
0

>  <NssNH>
0

>  <NaaNH>
0

>  <NtN>
0

>  <NsssNH>
0

>  <NdsN>
0

>  <NaaN>
0

>  <NsssN>
0

>  <NddsN>
0

>  <NaasN>
0

>  <NssssN>
0

>  <NsOH>
0

>  <NdO>
2

>  <NssO>
0

>  <NaaO>
0

>  <NsF>
0

>  <NsSiH3>
0

>  <NssSiH2>
0

>  <NsssSiH>
0

>  <NssssSi>
0

>  <NsPH2>
0

>  <NssPH>
0

>  <NsssP>
0

>  <NdsssP>
0

>  <NsssssP>
0

>  <NsSH>
0

>  <NdS>
1

>  <NssS>
0

>  <NaaS>
0

>  <NdssS>
0

>  <NddssS>
1

>  <NsCl>
1

>  <NsBr>
0

>  <NsI>
0

>  <fragCpx>
114.06

>  <fMF>
0.44

>  <nHBAcc>
3

>  <nHBDon>
1

>  <Kier1>
16.84

>  <Kier2>
6.48

>  <Lipinski>
1

>  <GhoseFilter>
1

>  <FilterItLogS>
-3.98

>  <VMcGowan>
240.28

>  <LabuteASA>
139.57

>  <PEOE_VSA1>
5.73

>  <PEOE_VSA2>
0

>  <PEOE_VSA3>
8.42

>  <PEOE_VSA4>
0

>  <PEOE_VSA5>
0

>  <PEOE_VSA6>
54.15

>  <PEOE_VSA7>
29.83

>  <PEOE_VSA8>
16.86

>  <PEOE_VSA9>
15.13

>  <PEOE_VSA10>
0

>  <PEOE_VSA11>
9.84

>  <PEOE_VSA12>
0

>  <PEOE_VSA13>
0

>  <SMR_VSA1>
8.42

>  <SMR_VSA2>
0

>  <SMR_VSA3>
0

>  <SMR_VSA4>
11.65

>  <SMR_VSA5>
16.06

>  <SMR_VSA6>
0

>  <SMR_VSA7>
65.18

>  <SMR_VSA8>
0

>  <SMR_VSA9>
0

>  <SlogP_VSA1>
5.73

>  <SlogP_VSA2>
18.66

>  <SlogP_VSA3>
9.84

>  <SlogP_VSA4>
5.92

>  <SlogP_VSA5>
11.48

>  <SlogP_VSA6>
59.49

>  <SlogP_VSA7>
5.02

>  <SlogP_VSA8>
0

>  <SlogP_VSA9>
0

>  <SlogP_VSA10>
0

>  <SlogP_VSA11>
0

>  <EState_VSA1>
15.09

>  <EState_VSA2>
21.72

>  <EState_VSA3>
5.02

>  <EState_VSA4>
5.56

>  <EState_VSA5>
12.13

>  <EState_VSA6>
12.13

>  <EState_VSA7>
30.33

>  <EState_VSA8>
0

>  <EState_VSA9>
29.55

>  <EState_VSA10>
8.42

>  <VSA_EState1>
25.69

>  <VSA_EState2>
0.5

>  <VSA_EState3>
-0.1

>  <VSA_EState4>
6.71

>  <VSA_EState5>
-0.5

>  <VSA_EState6>
15.68

>  <VSA_EState7>
0

>  <VSA_EState8>
0

>  <VSA_EState9>
-3.5

>  <apol>
46.74

>  <bpol>
21.87

>  <nRing>
3

>  <nHRing>
0

>  <naRing>
2

>  <naHRing>
0

>  <nARing 2>
1

>  <nAHRing 2>
0

>  <nFRing>
0

>  <nFHRing>
0

>  <nFaRing>
0

>  <nFaHRing>
0

>  <nFARing 2>
0

>  <nFAHRing 2>
0

>  <nRot>
4

>  <SLogP>
3.18

>  <SMR>
91.88

>  <TopoPSA(NO)>
60.16

>  <TopoPSA>
100.63

>  <JGI1>
0.21

>  <JGI2>
0.11

>  <JGI3>
0.09

>  <JGI4>
0.06

>  <JGI5>
0.03

>  <Diameter>
11

>  <Radius>
6

>  <TMWC10>
122.65

>  <TSRW10>
77.48

>  <MW>
351.02

>  <AMW>
9.75

>  <WPath>
1019

>  <WPol>
35

>  <Zagreb1>
120

>  <Zagreb2>
146

>  <mZagreb2>
4.72

>  <yes>


>  <nAR-cont>
0.816016

>  <nHA-cont>
0.983774276

>  <MWHBN>
0.213498123

>  <MWHBN-cont>
0.998243426

>  <TPSA-cont>
0.297540113

>  <pka_cont>
0.97

>  <yes.1>


>  <BBB_SCORE>
4.37723564

>  <MMFF94 Energy>
39.212

$$$$
Compound 2311
Actelion Java MolfileCreator 2.0

  0  0  0  0  0  0              0 V3000
M  V30 BEGIN CTAB
M  V30 COUNTS 40 43 0 0 0
M  V30 BEGIN ATOM
M  V30 1 S 1.7162 -0.7352 -1.8798 0
M  V30 2 O 2.903 -0.5161 -1.0769 0
M  V30 3 O 1.7445 -0.5868 -3.3213 0
M  V30 4 C 1.1078 -2.3573 -1.5 0
M  V30 5 C 0.3908 0.3415 -1.2869 0 CFG=1
M  V30 6 C 1.271 -2.8603 -0.2057 0
M  V30 7 C 0.4906 -3.1205 -2.4938 0
M  V30 8 C 0.7393 1.1835 -0.0788 0 CFG=1
M  V30 9 C 0.6 1.8299 -1.4455 0 CFG=1
M  V30 10 C 0.7899 -4.1329 0.0991 0
M  V30 11 C 0.0129 -4.3926 -2.1799 0
M  V30 12 C -0.3059 1.4184 0.9884 0
M  V30 13 C 1.7814 2.4389 -2.127 0
M  V30 14 C 0.1597 -4.8956 -0.8857 0
M  V30 15 C -0.9185 0.337 1.6492 0
M  V30 16 C -0.7798 2.7239 1.273 0
M  V30 17 N 1.8769 3.817 -1.6632 0
M  V30 18 C -1.916 0.5912 2.5686 0
M  V30 19 C -1.7938 2.9583 2.2094 0
M  V30 20 O -2.5879 -0.3459 3.2897 0
M  V30 21 C -2.3404 1.8674 2.843 0
M  V30 22 C -3.4803 0.4911 4.0554 0
M  V30 23 O -3.3311 1.8978 3.7728 0
M  V30 24 H -0.6177 -0.0258 -1.4169 0
M  V30 25 H 1.7738 -2.2761 0.5619 0
M  V30 26 H 0.38 -2.7392 -3.5066 0
M  V30 27 H 1.7533 1.1267 0.3124 0
M  V30 28 H -0.2999 2.3984 -1.6667 0
M  V30 29 H 0.9115 -4.5354 1.102 0
M  V30 30 H -0.4695 -4.9964 -2.9451 0
M  V30 31 H 2.7222 1.928 -1.9092 0
M  V30 32 H 1.6272 2.4274 -3.2105 0
M  V30 33 H -0.2107 -5.8897 -0.6461 0
M  V30 34 H -0.6145 -0.6851 1.452 0
M  V30 35 H -0.3434 3.5745 0.75 0
M  V30 36 H 2.1556 3.8162 -0.6825 0
M  V30 37 H 2.6392 4.275 -2.1624 0
M  V30 38 H -2.1405 3.963 2.4224 0
M  V30 39 H -4.5126 0.1966 3.8343 0
M  V30 40 H -3.2881 0.3251 5.1217 0
M  V30 END ATOM
M  V30 BEGIN BOND
M  V30 1 2 1 2
M  V30 2 2 1 3
M  V30 3 1 1 4
M  V30 4 1 1 5
M  V30 5 2 4 6
M  V30 6 1 4 7
M  V30 7 1 5 8
M  V30 8 1 5 9
M  V30 9 1 6 10
M  V30 10 2 7 11
M  V30 11 1 8 12
M  V30 12 1 9 13
M  V30 13 2 10 14
M  V30 14 2 12 15
M  V30 15 1 12 16
M  V30 16 1 13 17
M  V30 17 1 15 18
M  V30 18 2 16 19
M  V30 19 1 18 20
M  V30 20 2 18 21
M  V30 21 1 20 22
M  V30 22 1 21 23
M  V30 23 1 8 9
M  V30 24 1 11 14
M  V30 25 1 19 21
M  V30 26 1 22 23
M  V30 27 1 5 24
M  V30 28 1 6 25
M  V30 29 1 7 26
M  V30 30 1 8 27
M  V30 31 1 9 28
M  V30 32 1 10 29
M  V30 33 1 11 30
M  V30 34 1 13 31
M  V30 35 1 13 32
M  V30 36 1 14 33
M  V30 37 1 15 34
M  V30 38 1 16 35
M  V30 39 1 17 36
M  V30 40 1 17 37
M  V30 41 1 19 38
M  V30 42 1 22 39
M  V30 43 1 22 40
M  V30 END BOND
M  V30 BEGIN COLLECTION
M  V30 MDLV30/STEABS ATOMS=(3 5 8 9)
M  V30 END COLLECTION
M  V30 END CTAB
M  END
>  <Column 1>
2823

>  <level_0>
4063

>  <index>
4063

>  <Unnamed: 0>
4063

>  <NO.>
4075

>  <Name>
tetrabenzine

>  <IUPAC_name>
[(1s-2s-3s)-2-(benzenesulfonyl)-3-(1-3-benzodioxol-5-yl)cyclopropyl]methanamine

>  <SMILES>
NC[C@@H]1[C@@H](c2ccc3c(c2)OCO3)[C@@H]1S(=O)(=O)c1ccccc1

>  <CID>
100006018

>  <logBB>


>  <BBB+/BBB->
BBB+

>  <Inchi>
InChI=1S/C17H17NO4S/c18-9-13-16(11-6-7-14-15(8-11)22-10-21-14)17(13)23(19-20)12-4-2-1-3-5-12/h1-8-13-16-17H-9-10-18H2/t13--16--17-/m1/s1

>  <threshold>
-1

>  <reference>
R16|R10|R10|

>  <group>
B

>  <Class>
-1

>  <ABC>
18.38

>  <ABCGG>
15.79

>  <nAcid>
0

>  <nBase>
1

>  <nAromAtom>
12

>  <nAromBond>
12

>  <nAtom>
40

>  <nHeavyAtom>
23

>  <nSpiro>
0

>  <nBridgehead>
0

>  <nHetero>
6

>  <nN>
1

>  <nO>
4

>  <nF>
0

>  <BalabanJ>
1.44

>  <BertzCT>
834.93

>  <nBonds>
43

>  <nBondsO>
26

>  <nBondsS>
29

>  <nBondsD>
2

>  <nBondsT>
0

>  <nBondsA>
12

>  <nBondsM>
14

>  <nBondsKS>
35

>  <nBondsKD>
8

>  <RNCG>
0.22

>  <RPCG>
0.11

>  <FCSP3>
0.29

>  <SZ>
29

>  <Sm>
27.59

>  <Sv>
26.41

>  <Sse>
40.61

>  <Sp>
28.1

>  <Si>
44.58

>  <MZ>
0.73

>  <Mm>
0.69

>  <Mv>
0.66

>  <Mse>
1.02

>  <Mp>
0.7

>  <Mi>
1.11

>  <NsCH3>
0

>  <NdCH2>
0

>  <NssCH2>
2

>  <NtCH>
0

>  <NdsCH>
0

>  <NaaCH>
8

>  <NsssCH>
3

>  <NddC>
0

>  <NtsC>
0

>  <NdssC>
0

>  <NaasC>
4

>  <NaaaC>
0

>  <NssssC>
0

>  <NsNH3>
0

>  <NsNH2>
1

>  <NssNH2>
0

>  <NdNH>
0

>  <NssNH>
0

>  <NaaNH>
0

>  <NtN>
0

>  <NsssNH>
0

>  <NdsN>
0

>  <NaaN>
0

>  <NsssN>
0

>  <NddsN>
0

>  <NaasN>
0

>  <NssssN>
0

>  <NsOH>
0

>  <NdO>
2

>  <NssO>
2

>  <NaaO>
0

>  <NsF>
0

>  <NsSiH3>
0

>  <NssSiH2>
0

>  <NsssSiH>
0

>  <NssssSi>
0

>  <NsPH2>
0

>  <NssPH>
0

>  <NsssP>
0

>  <NdsssP>
0

>  <NsssssP>
0

>  <NsSH>
0

>  <NdS>
0

>  <NssS>
0

>  <NaaS>
0

>  <NdssS>
0

>  <NddssS>
1

>  <NsCl>
0

>  <NsBr>
0

>  <NsI>
0

>  <fragCpx>
170.06

>  <fMF>
0.48

>  <nHBAcc>
5

>  <nHBDon>
1

>  <Kier1>
16.47

>  <Kier2>
6.38

>  <Lipinski>
1

>  <GhoseFilter>
1

>  <FilterItLogS>
-3.54

>  <VMcGowan>
230.96

>  <LabuteASA>
134.49

>  <PEOE_VSA1>
15.21

>  <PEOE_VSA2>
0

>  <PEOE_VSA3>
8.42

>  <PEOE_VSA4>
0

>  <PEOE_VSA5>
0

>  <PEOE_VSA6>
24.27

>  <PEOE_VSA7>
42.29

>  <PEOE_VSA8>
5.92

>  <PEOE_VSA9>
10.15

>  <PEOE_VSA10>
0

>  <PEOE_VSA11>
21.34

>  <PEOE_VSA12>
6.79

>  <PEOE_VSA13>
0

>  <SMR_VSA1>
17.89

>  <SMR_VSA2>
0

>  <SMR_VSA3>
0

>  <SMR_VSA4>
11.65

>  <SMR_VSA5>
16.06

>  <SMR_VSA6>
13.34

>  <SMR_VSA7>
54.09

>  <SMR_VSA8>
0

>  <SMR_VSA9>
11.5

>  <SlogP_VSA1>
15.21

>  <SlogP_VSA2>
27.01

>  <SlogP_VSA3>
9.84

>  <SlogP_VSA4>
5.92

>  <SlogP_VSA5>
11.48

>  <SlogP_VSA6>
53.43

>  <SlogP_VSA7>
0

>  <SlogP_VSA8>
0

>  <SlogP_VSA9>
0

>  <SlogP_VSA10>
0

>  <SlogP_VSA11>
11.5

>  <EState_VSA1>
15.09

>  <EState_VSA2>
18.63

>  <EState_VSA3>
22.94

>  <EState_VSA4>
5.56

>  <EState_VSA5>
0

>  <EState_VSA6>
24.27

>  <EState_VSA7>
24.27

>  <EState_VSA8>
0

>  <EState_VSA9>
15.21

>  <EState_VSA10>
8.42

>  <VSA_EState1>
36.43

>  <VSA_EState2>
0.35

>  <VSA_EState3>
-0.48

>  <VSA_EState4>
6.76

>  <VSA_EState5>
1.2

>  <VSA_EState6>
14.16

>  <VSA_EState7>
0

>  <VSA_EState8>
0.55

>  <VSA_EState9>
-3.39

>  <apol>
46.93

>  <bpol>
26.61

>  <nRing>
4

>  <nHRing>
1

>  <naRing>
2

>  <naHRing>
0

>  <nARing 2>
2

>  <nAHRing 2>
1

>  <nFRing>
1

>  <nFHRing>
1

>  <nFaRing>
0

>  <nFaHRing>
0

>  <nFARing 2>
1

>  <nFAHRing 2>
1

>  <nRot>
4

>  <SLogP>
1.93

>  <SMR>
85.27

>  <TopoPSA(NO)>
78.62

>  <TopoPSA>
87

>  <JGI1>
0.17

>  <JGI2>
0.1

>  <JGI3>
0.08

>  <JGI4>
0.05

>  <JGI5>
0.03

>  <Diameter>
11

>  <Radius>
6

>  <TMWC10>
126.45

>  <TSRW10>
79.3

>  <MW>
331.09

>  <AMW>
8.28

>  <WPath>
1161

>  <WPol>
37

>  <Zagreb1>
130

>  <Zagreb2>
161

>  <mZagreb2>
4.97

>  <yes>


>  <nAR-cont>
1

>  <nHA-cont>
0.967789328

>  <MWHBN>
0.329745

>  <MWHBN-cont>
0.743737532

>  <TPSA-cont>
0.392685976

>  <pka_cont>
0.97

>  <yes.1>


>  <BBB_SCORE>
4.353767578

>  <MMFF94 Energy>
51.041

$$$$
Compound 2312
Actelion Java MolfileCreator 2.0

  0  0  0  0  0  0              0 V3000
M  V30 BEGIN CTAB
M  V30 COUNTS 41 43 0 0 0
M  V30 BEGIN ATOM
M  V30 1 Cl -3.6906 -0.4915 -5.9099 0
M  V30 2 C -2.6685 -0.6345 -4.5339 0
M  V30 3 C -2.5114 0.4514 -3.6721 0
M  V30 4 C -2.0034 -1.8353 -4.2875 0
M  V30 5 C -1.6824 0.3402 -2.5528 0
M  V30 6 C -1.1743 -1.9528 -3.1699 0
M  V30 7 C -1.0156 -0.862 -2.3065 0
M  V30 8 S 0.0323 -1.0421 -0.8704 0
M  V30 9 O 0.009 -2.458 -0.5573 0
M  V30 10 O 1.2615 -0.355 -1.203 0
M  V30 11 C -0.8582 -0.2236 0.4571 0 CFG=2
M  V30 12 C -0.3723 1.107 1.0165 0 CFG=2
M  V30 13 C -0.2996 -0.1777 1.8566 0 CFG=2
M  V30 14 C -1.4667 2.0943 1.378 0
M  V30 15 C 0.9056 1.8023 0.5872 0
M  V30 16 C 1.0051 -0.7439 2.3764 0
M  V30 17 O -1.9872 2.6651 0.1849 0
M  V30 18 N 0.6966 2.4283 -0.7205 0
M  V30 19 C 1.3726 -2.0841 2.1852 0
M  V30 20 C 1.9324 0.0682 3.0581 0
M  V30 21 C 2.6008 -2.586 2.6293 0
M  V30 22 C 3.1618 -0.4239 3.5076 0
M  V30 23 C 3.4982 -1.7535 3.2871 0
M  V30 24 H -3.0306 1.3872 -3.8658 0
M  V30 25 H -2.126 -2.6809 -4.9596 0
M  V30 26 H -1.5693 1.1975 -1.8974 0
M  V30 27 H -0.6566 -2.8916 -2.982 0
M  V30 28 H -1.9301 -0.3799 0.3975 0
M  V30 29 H -1.0759 -0.2774 2.62 0
M  V30 30 H -2.2977 1.6137 1.9048 0
M  V30 31 H -1.0873 2.8959 2.0204 0
M  V30 32 H 1.1435 2.5899 1.312 0
M  V30 33 H 1.7827 1.1528 0.5502 0
M  V30 34 H -1.1977 2.961 -0.3211 0
M  V30 35 H 0.9049 1.6939 -1.4127 0
M  V30 36 H 1.4655 3.0873 -0.8713 0
M  V30 37 H 0.6859 -2.7762 1.7041 0
M  V30 38 H 1.6913 1.1093 3.2613 0
M  V30 39 H 2.8489 -3.6305 2.4588 0
M  V30 40 H 3.8525 0.2326 4.0298 0
M  V30 41 H 4.4524 -2.1423 3.6313 0
M  V30 END ATOM
M  V30 BEGIN BOND
M  V30 1 1 1 2
M  V30 2 2 2 3
M  V30 3 1 2 4
M  V30 4 1 3 5
M  V30 5 2 4 6
M  V30 6 2 5 7
M  V30 7 1 7 8
M  V30 8 2 8 9
M  V30 9 2 8 10
M  V30 10 1 8 11
M  V30 11 1 11 12
M  V30 12 1 11 13
M  V30 13 1 12 14
M  V30 14 1 12 15
M  V30 15 1 13 16
M  V30 16 1 14 17
M  V30 17 1 15 18
M  V30 18 2 16 19
M  V30 19 1 16 20
M  V30 20 1 19 21
M  V30 21 2 20 22
M  V30 22 2 21 23
M  V30 23 1 6 7
M  V30 24 1 12 13
M  V30 25 1 22 23
M  V30 26 1 3 24
M  V30 27 1 4 25
M  V30 28 1 5 26
M  V30 29 1 6 27
M  V30 30 1 11 28
M  V30 31 1 13 29
M  V30 32 1 14 30
M  V30 33 1 14 31
M  V30 34 1 15 32
M  V30 35 1 15 33
M  V30 36 1 17 34
M  V30 37 1 18 35
M  V30 38 1 18 36
M  V30 39 1 19 37
M  V30 40 1 20 38
M  V30 41 1 21 39
M  V30 42 1 22 40
M  V30 43 1 23 41
M  V30 END BOND
M  V30 BEGIN COLLECTION
M  V30 MDLV30/STEABS ATOMS=(3 11 12 13)
M  V30 END COLLECTION
M  V30 END CTAB
M  END
>  <Column 1>
2824

>  <level_0>
4064

>  <index>
4064

>  <Unnamed: 0>
4064

>  <NO.>
4076

>  <Name>
bromocriptine

>  <IUPAC_name>
[(1s-2s-3s)-1-(aminomethyl)-2-(4-chlorophenyl)sulfonyl-3-phenylcyclopropyl]methanol

>  <SMILES>
NC[C@]1(CO)[C@H](c2ccccc2)[C@@H]1S(=O)(=O)c1ccc(Cl)cc1

>  <CID>
100002443

>  <logBB>


>  <BBB+/BBB->
BBB-

>  <Inchi>
InChI=1S/C17H18ClNO3S/c18-13-6-8-14(9-7-13)23(21-22)16-15(17(16-10-19)11-20)12-4-2-1-3-5-12/h1-9-15-16-20H-10-11-19H2/t15--16+-17+/m1/s1

>  <threshold>
-1

>  <reference>
R16|R10|

>  <group>
B

>  <Class>
-1

>  <ABC>
17.78

>  <ABCGG>
15.79

>  <nAcid>
0

>  <nBase>
1

>  <nAromAtom>
12

>  <nAromBond>
12

>  <nAtom>
41

>  <nHeavyAtom>
23

>  <nSpiro>
0

>  <nBridgehead>
0

>  <nHetero>
6

>  <nN>
1

>  <nO>
3

>  <nF>
0

>  <BalabanJ>
1.78

>  <BertzCT>
786.35

>  <nBonds>
43

>  <nBondsO>
25

>  <nBondsS>
29

>  <nBondsD>
2

>  <nBondsT>
0

>  <nBondsA>
12

>  <nBondsM>
14

>  <nBondsKS>
35

>  <nBondsKD>
8

>  <RNCG>
0.22

>  <RPCG>
0.12

>  <FCSP3>
0.29

>  <SZ>
30.67

>  <Sm>
29.29

>  <Sv>
27.06

>  <Sse>
41.49

>  <Sp>
29.33

>  <Si>
45.73

>  <MZ>
0.75

>  <Mm>
0.71

>  <Mv>
0.66

>  <Mse>
1.01

>  <Mp>
0.72

>  <Mi>
1.12

>  <NsCH3>
0

>  <NdCH2>
0

>  <NssCH2>
2

>  <NtCH>
0

>  <NdsCH>
0

>  <NaaCH>
9

>  <NsssCH>
2

>  <NddC>
0

>  <NtsC>
0

>  <NdssC>
0

>  <NaasC>
3

>  <NaaaC>
0

>  <NssssC>
1

>  <NsNH3>
0

>  <NsNH2>
1

>  <NssNH2>
0

>  <NdNH>
0

>  <NssNH>
0

>  <NaaNH>
0

>  <NtN>
0

>  <NsssNH>
0

>  <NdsN>
0

>  <NaaN>
0

>  <NsssN>
0

>  <NddsN>
0

>  <NaasN>
0

>  <NssssN>
0

>  <NsOH>
1

>  <NdO>
2

>  <NssO>
0

>  <NaaO>
0

>  <NsF>
0

>  <NsSiH3>
0

>  <NssSiH2>
0

>  <NsssSiH>
0

>  <NssssSi>
0

>  <NsPH2>
0

>  <NssPH>
0

>  <NsssP>
0

>  <NdsssP>
0

>  <NsssssP>
0

>  <NsSH>
0

>  <NdS>
0

>  <NssS>
0

>  <NaaS>
0

>  <NdssS>
0

>  <NddssS>
1

>  <NsCl>
1

>  <NsBr>
0

>  <NsI>
0

>  <fragCpx>
119.06

>  <fMF>
0.39

>  <nHBAcc>
4

>  <nHBDon>
2

>  <Kier1>
17.81

>  <Kier2>
6.72

>  <Lipinski>
1

>  <GhoseFilter>
1

>  <FilterItLogS>
-4.29

>  <VMcGowan>
248.19

>  <LabuteASA>
140.37

>  <PEOE_VSA1>
10.84

>  <PEOE_VSA2>
0

>  <PEOE_VSA3>
8.42

>  <PEOE_VSA4>
0

>  <PEOE_VSA5>
0

>  <PEOE_VSA6>
41.93

>  <PEOE_VSA7>
29.83

>  <PEOE_VSA8>
22.9

>  <PEOE_VSA9>
16.75

>  <PEOE_VSA10>
0

>  <PEOE_VSA11>
9.84

>  <PEOE_VSA12>
0

>  <PEOE_VSA13>
0

>  <SMR_VSA1>
13.52

>  <SMR_VSA2>
0

>  <SMR_VSA3>
0

>  <SMR_VSA4>
11.15

>  <SMR_VSA5>
16.06

>  <SMR_VSA6>
13.15

>  <SMR_VSA7>
65.18

>  <SMR_VSA8>
0

>  <SMR_VSA9>
0

>  <SlogP_VSA1>
5.73

>  <SlogP_VSA2>
31.93

>  <SlogP_VSA3>
9.84

>  <SlogP_VSA4>
5.41

>  <SlogP_VSA5>
11.48

>  <SlogP_VSA6>
59.49

>  <SlogP_VSA7>
5.02

>  <SlogP_VSA8>
0

>  <SlogP_VSA9>
0

>  <SlogP_VSA10>
0

>  <SlogP_VSA11>
0

>  <EState_VSA1>
20.5

>  <EState_VSA2>
23.97

>  <EState_VSA3>
5.02

>  <EState_VSA4>
5.56

>  <EState_VSA5>
12.13

>  <EState_VSA6>
12.13

>  <EState_VSA7>
30.33

>  <EState_VSA8>
0

>  <EState_VSA9>
17.33

>  <EState_VSA10>
13.52

>  <VSA_EState1>
26.03

>  <VSA_EState2>
0.21

>  <VSA_EState3>
9.6

>  <VSA_EState4>
5.9

>  <VSA_EState5>
-0.31

>  <VSA_EState6>
15.45

>  <VSA_EState7>
0

>  <VSA_EState8>
-0.15

>  <VSA_EState9>
-3.61

>  <apol>
48.98

>  <bpol>
24.65

>  <nRing>
3

>  <nHRing>
0

>  <naRing>
2

>  <naHRing>
0

>  <nARing 2>
1

>  <nAHRing 2>
0

>  <nFRing>
0

>  <nFHRing>
0

>  <nFaRing>
0

>  <nFaHRing>
0

>  <nFARing 2>
0

>  <nFAHRing 2>
0

>  <nRot>
5

>  <SLogP>
2.22

>  <SMR>
90.18

>  <TopoPSA(NO)>
80.39

>  <TopoPSA>
88.77

>  <JGI1>
0.24

>  <JGI2>
0.13

>  <JGI3>
0.1

>  <JGI4>
0.06

>  <JGI5>
0.03

>  <Diameter>
11

>  <Radius>
6

>  <TMWC10>
125.96

>  <TSRW10>
79.66

>  <MW>
351.07

>  <AMW>
8.56

>  <WPath>
1113

>  <WPol>
39

>  <Zagreb1>
126

>  <Zagreb2>
157

>  <mZagreb2>
5.14

>  <yes>


>  <nAR-cont>
0.816016

>  <nHA-cont>
0.967789328

>  <MWHBN>
0.320224378

>  <MWHBN-cont>
0.776410513

>  <TPSA-cont>
0.380330277

>  <pka_cont>
0.97

>  <yes.1>


>  <BBB_SCORE>
4.194081652

>  <MMFF94 Energy>
50.103

$$$$
Compound 2313
Actelion Java MolfileCreator 2.0

  0  0  0  0  0  0              0 V3000
M  V30 BEGIN CTAB
M  V30 COUNTS 38 40 0 0 0
M  V30 BEGIN ATOM
M  V30 1 Cl -6.3485 -0.7404 1.399 0
M  V30 2 C -4.7213 -0.1939 1.511 0
M  V30 3 C -4.1289 0.4421 0.4189 0
M  V30 4 C -4.006 -0.3885 2.6941 0
M  V30 5 C -2.8079 0.8853 0.506 0
M  V30 6 C -2.6841 0.0519 2.7889 0
M  V30 7 C -2.0909 0.6789 1.6898 0
M  V30 8 S -0.4104 1.2457 1.7861 0
M  V30 9 O -0.362 2.5402 1.1383 0
M  V30 10 O 0.0484 1.0667 3.1493 0
M  V30 11 C 0.4811 0.0365 0.7905 0 CFG=2
M  V30 12 C 1.9803 0.2301 0.6774 0 CFG=2
M  V30 13 C 1.0559 0.5643 -0.4984 0 CFG=1
M  V30 14 N 2.7695 -1.0425 0.6338 0
M  V30 15 C 2.6976 1.4094 1.3273 0
M  V30 16 C 1.0688 -0.2677 -1.7642 0
M  V30 17 O 4.0141 1.5083 0.7845 0
M  V30 18 C 0.0532 -1.1856 -2.0808 0
M  V30 19 C 2.1357 -0.1494 -2.6731 0
M  V30 20 C 0.0989 -1.9474 -3.2521 0
M  V30 21 C 2.1866 -0.9075 -3.8453 0
M  V30 22 C 1.1662 -1.8078 -4.1341 0
M  V30 23 H -4.693 0.601 -0.497 0
M  V30 24 H -4.474 -0.8776 3.5452 0
M  V30 25 H -2.3532 1.3943 -0.3417 0
M  V30 26 H -2.1338 -0.0952 3.7162 0
M  V30 27 H 0.1237 -0.9814 0.8528 0
M  V30 28 H 0.9367 1.6272 -0.7064 0
M  V30 29 H 3.2735 -1.2089 1.503 0
M  V30 30 H 3.4498 -1.0087 -0.1261 0
M  V30 31 H 2.2041 2.3663 1.1435 0
M  V30 32 H 2.7825 1.2611 2.4087 0
M  V30 33 H 4.4646 0.6782 1.0077 0
M  V30 34 H -0.7939 -1.3145 -1.4124 0
M  V30 35 H 2.9415 0.5519 -2.4619 0
M  V30 36 H -0.6999 -2.6504 -3.4735 0
M  V30 37 H 3.0226 -0.7925 -4.53 0
M  V30 38 H 1.2025 -2.3995 -5.0447 0
M  V30 END ATOM
M  V30 BEGIN BOND
M  V30 1 1 1 2
M  V30 2 2 2 3
M  V30 3 1 2 4
M  V30 4 1 3 5
M  V30 5 2 4 6
M  V30 6 2 5 7
M  V30 7 1 7 8
M  V30 8 2 8 9
M  V30 9 2 8 10
M  V30 10 1 8 11
M  V30 11 1 11 12
M  V30 12 1 11 13
M  V30 13 1 12 14
M  V30 14 1 12 15
M  V30 15 1 13 16
M  V30 16 1 15 17
M  V30 17 2 16 18
M  V30 18 1 16 19
M  V30 19 1 18 20
M  V30 20 2 19 21
M  V30 21 2 20 22
M  V30 22 1 6 7
M  V30 23 1 12 13
M  V30 24 1 21 22
M  V30 25 1 3 23
M  V30 26 1 4 24
M  V30 27 1 5 25
M  V30 28 1 6 26
M  V30 29 1 11 27
M  V30 30 1 13 28
M  V30 31 1 14 29
M  V30 32 1 14 30
M  V30 33 1 15 31
M  V30 34 1 15 32
M  V30 35 1 17 33
M  V30 36 1 18 34
M  V30 37 1 19 35
M  V30 38 1 20 36
M  V30 39 1 21 37
M  V30 40 1 22 38
M  V30 END BOND
M  V30 BEGIN COLLECTION
M  V30 MDLV30/STEABS ATOMS=(3 11 12 13)
M  V30 END COLLECTION
M  V30 END CTAB
M  END
>  <Column 1>
2825

>  <level_0>
4065

>  <index>
4065

>  <Unnamed: 0>
4065

>  <NO.>
4077

>  <Name>
carbidopa

>  <IUPAC_name>
[(1r-2s-3r)-1-amino-2-(4-chlorophenyl)sulfonyl-3-phenylcyclopropyl]methanol

>  <SMILES>
N[C@]1(CO)[C@@H](S(=O)(=O)c2ccc(Cl)cc2)[C@@H]1c1ccccc1

>  <CID>
100002563

>  <logBB>


>  <BBB+/BBB->
BBB-

>  <Inchi>
InChI=1S/C16H16ClNO3S/c17-12-6-8-13(9-7-12)22(20-21)15-14(16(15-18)10-19)11-4-2-1-3-5-11/h1-9-14-15-19H-10-18H2/t14--15--16-/m0/s1

>  <threshold>
-1

>  <reference>
R16|R16|R10|R10|

>  <group>
B

>  <Class>
-1

>  <ABC>
17.23

>  <ABCGG>
15.17

>  <nAcid>
0

>  <nBase>
1

>  <nAromAtom>
12

>  <nAromBond>
12

>  <nAtom>
38

>  <nHeavyAtom>
22

>  <nSpiro>
0

>  <nBridgehead>
0

>  <nHetero>
6

>  <nN>
1

>  <nO>
3

>  <nF>
0

>  <BalabanJ>
1.73

>  <BertzCT>
776.8

>  <nBonds>
40

>  <nBondsO>
24

>  <nBondsS>
26

>  <nBondsD>
2

>  <nBondsT>
0

>  <nBondsA>
12

>  <nBondsM>
14

>  <nBondsKS>
32

>  <nBondsKD>
8

>  <RNCG>
0.22

>  <RPCG>
0.12

>  <FCSP3>
0.25

>  <SZ>
29.33

>  <Sm>
28.13

>  <Sv>
25.51

>  <Sse>
38.6

>  <Sp>
27.53

>  <Si>
42.31

>  <MZ>
0.77

>  <Mm>
0.74

>  <Mv>
0.67

>  <Mse>
1.02

>  <Mp>
0.72

>  <Mi>
1.11

>  <NsCH3>
0

>  <NdCH2>
0

>  <NssCH2>
1

>  <NtCH>
0

>  <NdsCH>
0

>  <NaaCH>
9

>  <NsssCH>
2

>  <NddC>
0

>  <NtsC>
0

>  <NdssC>
0

>  <NaasC>
3

>  <NaaaC>
0

>  <NssssC>
1

>  <NsNH3>
0

>  <NsNH2>
1

>  <NssNH2>
0

>  <NdNH>
0

>  <NssNH>
0

>  <NaaNH>
0

>  <NtN>
0

>  <NsssNH>
0

>  <NdsN>
0

>  <NaaN>
0

>  <NsssN>
0

>  <NddsN>
0

>  <NaasN>
0

>  <NssssN>
0

>  <NsOH>
1

>  <NdO>
2

>  <NssO>
0

>  <NaaO>
0

>  <NsF>
0

>  <NsSiH3>
0

>  <NssSiH2>
0

>  <NsssSiH>
0

>  <NssssSi>
0

>  <NsPH2>
0

>  <NssPH>
0

>  <NsssP>
0

>  <NdsssP>
0

>  <NsssssP>
0

>  <NsSH>
0

>  <NdS>
0

>  <NssS>
0

>  <NaaS>
0

>  <NdssS>
0

>  <NddssS>
1

>  <NsCl>
1

>  <NsBr>
0

>  <NsI>
0

>  <fragCpx>
114.06

>  <fMF>
0.42

>  <nHBAcc>
4

>  <nHBDon>
2

>  <Kier1>
16.84

>  <Kier2>
6.14

>  <Lipinski>
1

>  <GhoseFilter>
1

>  <FilterItLogS>
-3.89

>  <VMcGowan>
234.1

>  <LabuteASA>
134.01

>  <PEOE_VSA1>
10.84

>  <PEOE_VSA2>
0

>  <PEOE_VSA3>
8.42

>  <PEOE_VSA4>
0

>  <PEOE_VSA5>
0

>  <PEOE_VSA6>
41.93

>  <PEOE_VSA7>
29.83

>  <PEOE_VSA8>
10.94

>  <PEOE_VSA9>
22.29

>  <PEOE_VSA10>
0

>  <PEOE_VSA11>
9.84

>  <PEOE_VSA12>
0

>  <PEOE_VSA13>
0

>  <SMR_VSA1>
13.52

>  <SMR_VSA2>
0

>  <SMR_VSA3>
0

>  <SMR_VSA4>
5.73

>  <SMR_VSA5>
21.6

>  <SMR_VSA6>
6.61

>  <SMR_VSA7>
65.18

>  <SMR_VSA8>
0

>  <SMR_VSA9>
0

>  <SlogP_VSA1>
5.73

>  <SlogP_VSA2>
30.92

>  <SlogP_VSA3>
9.84

>  <SlogP_VSA4>
0

>  <SlogP_VSA5>
11.48

>  <SlogP_VSA6>
59.49

>  <SlogP_VSA7>
5.02

>  <SlogP_VSA8>
0

>  <SlogP_VSA9>
0

>  <SlogP_VSA10>
0

>  <SlogP_VSA11>
0

>  <EState_VSA1>
26.54

>  <EState_VSA2>
11.5

>  <EState_VSA3>
5.02

>  <EState_VSA4>
5.56

>  <EState_VSA5>
24.27

>  <EState_VSA6>
0

>  <EState_VSA7>
30.33

>  <EState_VSA8>
0

>  <EState_VSA9>
17.33

>  <EState_VSA10>
13.52

>  <VSA_EState1>
25.66

>  <VSA_EState2>
0.17

>  <VSA_EState3>
9.24

>  <VSA_EState4>
5.83

>  <VSA_EState5>
-0.42

>  <VSA_EState6>
15.18

>  <VSA_EState7>
0

>  <VSA_EState8>
-0.38

>  <VSA_EState9>
-3.64

>  <apol>
45.97

>  <bpol>
22.65

>  <nRing>
3

>  <nHRing>
0

>  <naRing>
2

>  <naHRing>
0

>  <nARing 2>
1

>  <nAHRing 2>
0

>  <nFRing>
0

>  <nFHRing>
0

>  <nFaRing>
0

>  <nFaHRing>
0

>  <nFARing 2>
0

>  <nFAHRing 2>
0

>  <nRot>
4

>  <SLogP>
1.97

>  <SMR>
85.61

>  <TopoPSA(NO)>
80.39

>  <TopoPSA>
88.77

>  <JGI1>
0.25

>  <JGI2>
0.14

>  <JGI3>
0.09

>  <JGI4>
0.06

>  <JGI5>
0.03

>  <Diameter>
11

>  <Radius>
6

>  <TMWC10>
123.48

>  <TSRW10>
78.42

>  <MW>
337.05

>  <AMW>
8.87

>  <WPath>
1002

>  <WPol>
36

>  <Zagreb1>
122

>  <Zagreb2>
151

>  <mZagreb2>
4.76

>  <yes>


>  <nAR-cont>
0.816016

>  <nHA-cont>
0.983774276

>  <MWHBN>
0.326816583

>  <MWHBN-cont>
0.75393111

>  <TPSA-cont>
0.380330277

>  <pka_cont>
0.97

>  <yes.1>


>  <BBB_SCORE>
4.176347496

>  <MMFF94 Energy>
75.13

$$$$
Compound 2314
Actelion Java MolfileCreator 2.0

  0  0  0  0  0  0              0 V3000
M  V30 BEGIN CTAB
M  V30 COUNTS 25 25 0 0 0
M  V30 BEGIN ATOM
M  V30 1 F 3.863 -0.6567 0.6567 0
M  V30 2 C 3.5795 0.136 -0.4088 0
M  V30 3 F 4.0351 -0.5046 -1.5051 0
M  V30 4 F 4.3147 1.2586 -0.2511 0
M  V30 5 C 2.1026 0.4265 -0.4633 0
M  V30 6 O 1.3871 -0.8244 -0.5812 0
M  V30 7 C 1.8911 1.3182 -1.6608 0
M  V30 8 C 0.0886 -0.7844 -0.128 0
M  V30 9 F 2.283 0.7336 -2.8144 0
M  V30 10 F 0.5899 1.6554 -1.8218 0
M  V30 11 F 2.5711 2.4818 -1.5444 0
M  V30 12 N -0.368 0.3321 0.4766 0
M  V30 13 C -0.6696 -1.9253 -0.3224 0
M  V30 14 C -1.6464 0.3425 0.9199 0
M  V30 15 C -1.9854 -1.918 0.1238 0
M  V30 16 N -2.0498 1.5468 1.4527 0
M  V30 17 C -2.4759 -0.7655 0.75 0
M  V30 18 N -3.8494 -0.7525 1.2223 0 CHG=1
M  V30 19 O -4.1076 -0.1038 2.2479 0
M  V30 20 O -4.6754 -1.422 0.5849 0 CHG=-1
M  V30 21 H 1.8518 0.9523 0.4657 0
M  V30 22 H -0.2487 -2.7961 -0.814 0
M  V30 23 H -2.6109 -2.7962 -0.0186 0
M  V30 24 H -2.7673 1.5498 2.1722 0
M  V30 25 H -1.3392 2.2653 1.4929 0
M  V30 END ATOM
M  V30 BEGIN BOND
M  V30 1 1 1 2
M  V30 2 1 2 3
M  V30 3 1 2 4
M  V30 4 1 2 5
M  V30 5 1 5 6
M  V30 6 1 5 7
M  V30 7 1 6 8
M  V30 8 1 7 9
M  V30 9 1 7 10
M  V30 10 1 7 11
M  V30 11 2 8 12
M  V30 12 1 8 13
M  V30 13 1 12 14
M  V30 14 2 13 15
M  V30 15 1 14 16
M  V30 16 2 14 17
M  V30 17 1 17 18
M  V30 18 2 18 19
M  V30 19 1 18 20
M  V30 20 1 15 17
M  V30 21 1 5 21
M  V30 22 1 13 22
M  V30 23 1 15 23
M  V30 24 1 16 24
M  V30 25 1 16 25
M  V30 END BOND
M  V30 END CTAB
M  END
>  <Column 1>
2826

>  <level_0>
4066

>  <index>
4066

>  <Unnamed: 0>
4066

>  <NO.>
4078

>  <Name>
thioguanine

>  <IUPAC_name>
6-(1-1-1-3-3-3-hexafluoropropan-2-yloxy)-3-nitropyridin-2-amine

>  <SMILES>
Nc1nc(OC(C(F)(F)F)C(F)(F)F)ccc1[N+](=O)[O-]

>  <CID>
102723601

>  <logBB>


>  <BBB+/BBB->
BBB-

>  <Inchi>
InChI=1S/C8H5F6N3O3/c9-7(10-11)6(8(12-13)14)20-4-2-1-3(17(18)19)5(15)16-4/h1-2-6H-(H2-15-16)

>  <threshold>
-1

>  <reference>
R16|R10|R10|

>  <group>
B

>  <Class>
1

>  <ABC>
15.22

>  <ABCGG>
13.97

>  <nAcid>
0

>  <nBase>
0

>  <nAromAtom>
6

>  <nAromBond>
6

>  <nAtom>
25

>  <nHeavyAtom>
20

>  <nSpiro>
0

>  <nBridgehead>
0

>  <nHetero>
12

>  <nN>
3

>  <nO>
3

>  <nF>
6

>  <BalabanJ>
2.69

>  <BertzCT>
501.16

>  <nBonds>
25

>  <nBondsO>
20

>  <nBondsS>
18

>  <nBondsD>
1

>  <nBondsT>
0

>  <nBondsA>
6

>  <nBondsM>
7

>  <nBondsKS>
21

>  <nBondsKD>
4

>  <RNCG>
0.18

>  <RPCG>
0.17

>  <FCSP3>
0.38

>  <SZ>
25.33

>  <Sm>
25.4

>  <Sv>
17.65

>  <Sse>
28.94

>  <Sp>
15.41

>  <Si>
30.82

>  <MZ>
1.01

>  <Mm>
1.02

>  <Mv>
0.71

>  <Mse>
1.16

>  <Mp>
0.62

>  <Mi>
1.23

>  <NsCH3>
0

>  <NdCH2>
0

>  <NssCH2>
0

>  <NtCH>
0

>  <NdsCH>
0

>  <NaaCH>
2

>  <NsssCH>
1

>  <NddC>
0

>  <NtsC>
0

>  <NdssC>
0

>  <NaasC>
3

>  <NaaaC>
0

>  <NssssC>
2

>  <NsNH3>
0

>  <NsNH2>
1

>  <NssNH2>
0

>  <NdNH>
0

>  <NssNH>
0

>  <NaaNH>
0

>  <NtN>
0

>  <NsssNH>
0

>  <NdsN>
0

>  <NaaN>
1

>  <NsssN>
0

>  <NddsN>
1

>  <NaasN>
0

>  <NssssN>
0

>  <NsOH>
0

>  <NdO>
1

>  <NssO>
1

>  <NaaO>
0

>  <NsF>
6

>  <NsSiH3>
0

>  <NssSiH2>
0

>  <NsssSiH>
0

>  <NssssSi>
0

>  <NsPH2>
0

>  <NssPH>
0

>  <NsssP>
0

>  <NdsssP>
0

>  <NsssssP>
0

>  <NsSH>
0

>  <NdS>
0

>  <NssS>
0

>  <NaaS>
0

>  <NdssS>
0

>  <NddssS>
0

>  <NsCl>
0

>  <NsBr>
0

>  <NsI>
0

>  <fragCpx>
20.12

>  <fMF>
0.24

>  <nHBAcc>
5

>  <nHBDon>
1

>  <Kier1>
18.05

>  <Kier2>
6.41

>  <Lipinski>
1

>  <GhoseFilter>
1

>  <FilterItLogS>
-2.92

>  <VMcGowan>
153.63

>  <LabuteASA>
105.85

>  <PEOE_VSA1>
10.47

>  <PEOE_VSA2>
10.11

>  <PEOE_VSA3>
0

>  <PEOE_VSA4>
31.33

>  <PEOE_VSA5>
0

>  <PEOE_VSA6>
0

>  <PEOE_VSA7>
0

>  <PEOE_VSA8>
12.13

>  <PEOE_VSA9>
4.92

>  <PEOE_VSA10>
0

>  <PEOE_VSA11>
0

>  <PEOE_VSA12>
11.7

>  <PEOE_VSA13>
6.1

>  <SMR_VSA1>
36

>  <SMR_VSA2>
0

>  <SMR_VSA3>
4.98

>  <SMR_VSA4>
0

>  <SMR_VSA5>
18.46

>  <SMR_VSA6>
5.73

>  <SMR_VSA7>
22.25

>  <SMR_VSA8>
0

>  <SMR_VSA9>
5.88

>  <SlogP_VSA1>
10.47

>  <SlogP_VSA2>
28.36

>  <SlogP_VSA3>
0

>  <SlogP_VSA4>
10.11

>  <SlogP_VSA5>
0

>  <SlogP_VSA6>
12.13

>  <SlogP_VSA7>
0

>  <SlogP_VSA8>
0

>  <SlogP_VSA9>
0

>  <SlogP_VSA10>
37.85

>  <SlogP_VSA11>
5.88

>  <EState_VSA1>
40.77

>  <EState_VSA2>
0

>  <EState_VSA3>
12.13

>  <EState_VSA4>
0

>  <EState_VSA5>
0

>  <EState_VSA6>
0

>  <EState_VSA7>
0

>  <EState_VSA8>
9.72

>  <EState_VSA9>
5.73

>  <EState_VSA10>
36.46

>  <VSA_EState1>
76.88

>  <VSA_EState2>
12.33

>  <VSA_EState3>
10.36

>  <VSA_EState4>
4.25

>  <VSA_EState5>
-2

>  <VSA_EState6>
1.07

>  <VSA_EState7>
-15.56

>  <VSA_EState8>
0

>  <VSA_EState9>
0

>  <apol>
25.74

>  <bpol>
15.17

>  <nRing>
1

>  <nHRing>
1

>  <naRing>
1

>  <naHRing>
1

>  <nARing 2>
0

>  <nAHRing 2>
0

>  <nFRing>
0

>  <nFHRing>
0

>  <nFaRing>
0

>  <nFaHRing>
0

>  <nFARing 2>
0

>  <nFAHRing 2>
0

>  <nRot>
3

>  <SLogP>
2.44

>  <SMR>
51.83

>  <TopoPSA(NO)>
91.28

>  <TopoPSA>
91.28

>  <JGI1>
0.4

>  <JGI2>
0.1

>  <JGI3>
0.09

>  <JGI4>
0.04

>  <JGI5>
0.04

>  <Diameter>
9

>  <Radius>
5

>  <TMWC10>
112.84

>  <TSRW10>
53.72

>  <MW>
305.02

>  <AMW>
12.2

>  <WPath>
815

>  <WPol>
30

>  <Zagreb1>
102

>  <Zagreb2>
115

>  <mZagreb2>
4.14

>  <yes>


>  <nAR-cont>
0.336376

>  <nHA-cont>
0.999629945

>  <MWHBN>
0.343547737

>  <MWHBN-cont>
0.694170342

>  <TPSA-cont>
0.362808919

>  <pka_cont>
0.97

>  <yes.1>


>  <BBB_SCORE>
3.587879295

>  <MMFF94 Energy>
-12.26

$$$$
Compound 2315
Actelion Java MolfileCreator 2.0

  0  0  0  0  0  0              0 V3000
M  V30 BEGIN CTAB
M  V30 COUNTS 52 55 0 0 0
M  V30 BEGIN ATOM
M  V30 1 S -1.4602 -4.3042 -0.9733 0
M  V30 2 O -0.8069 -5.5732 -0.7321 0
M  V30 3 O -2.8965 -4.1652 -0.8539 0
M  V30 4 N -0.7425 -3.1463 0.0345 0
M  V30 5 C -1.0034 -3.7667 -2.6091 0
M  V30 6 C -1.382 -1.8033 0.0842 0
M  V30 7 C 0.7426 -3.1534 0.1621 0
M  V30 8 C -1.8553 -2.9168 -3.322 0
M  V30 9 C 0.1711 -4.2498 -3.1945 0
M  V30 10 C -0.5624 -0.8243 0.936 0
M  V30 11 C 1.3684 -1.826 -0.2793 0
M  V30 12 C -1.5025 -2.5106 -4.6088 0
M  V30 13 C 0.5173 -3.8388 -4.4816 0
M  V30 14 N 0.8109 -0.6731 0.4318 0
M  V30 15 C -0.3153 -2.9663 -5.184 0
M  V30 16 C 1.5843 0.4747 0.5223 0
M  V30 17 O 2.6893 0.5767 -0.0067 0
M  V30 18 C 1.0311 1.6231 1.3078 0
M  V30 19 C 0.7122 2.8733 0.5899 0
M  V30 20 C 0.9805 1.4116 2.6389 0
M  V30 21 C -0.2472 2.8796 -0.432 0
M  V30 22 C 1.3968 4.0628 0.8793 0
M  V30 23 C 0.4534 2.3263 3.5929 0
M  V30 24 C -0.5327 4.055 -1.1315 0
M  V30 25 C 1.1105 5.2373 0.1798 0
M  V30 26 O -0.4505 3.3248 3.3076 0
M  V30 27 C 0.6929 2.3702 4.9629 0
M  V30 28 C 0.1443 5.2333 -0.8236 0
M  V30 29 C -0.7435 3.985 4.4524 0
M  V30 30 C -0.0644 3.4343 5.5075 0
M  V30 31 H -2.3823 -1.8987 0.5195 0
M  V30 32 H -1.4768 -1.396 -0.9271 0
M  V30 33 H 1.1938 -3.972 -0.405 0
M  V30 34 H 0.9748 -3.3392 1.2181 0
M  V30 35 H -2.7915 -2.5733 -2.8876 0
M  V30 36 H 0.8133 -4.9487 -2.6635 0
M  V30 37 H -0.4837 -1.1972 1.9642 0
M  V30 38 H -1.0686 0.144 0.9673 0
M  V30 39 H 1.185 -1.6566 -1.3472 0
M  V30 40 H 2.4538 -1.8613 -0.1347 0
M  V30 41 H -2.1565 -1.8464 -5.169 0
M  V30 42 H 1.431 -4.206 -4.9433 0
M  V30 43 H -0.0449 -2.6515 -6.1895 0
M  V30 44 H 1.3508 0.4703 3.0394 0
M  V30 45 H -0.783 1.9722 -0.695 0
M  V30 46 H 2.1606 4.0824 1.6535 0
M  V30 47 H -1.2813 4.0501 -1.9192 0
M  V30 48 H 1.6453 6.1528 0.418 0
M  V30 49 H 1.3529 1.7058 5.504 0
M  V30 50 H -0.0768 6.1471 -1.3687 0
M  V30 51 H -1.44 4.8057 4.3525 0
M  V30 52 H -0.1099 3.7565 6.5381 0
M  V30 END ATOM
M  V30 BEGIN BOND
M  V30 1 2 1 2
M  V30 2 2 1 3
M  V30 3 1 1 4
M  V30 4 1 1 5
M  V30 5 1 4 6
M  V30 6 1 4 7
M  V30 7 2 5 8
M  V30 8 1 5 9
M  V30 9 1 6 10
M  V30 10 1 7 11
M  V30 11 1 8 12
M  V30 12 2 9 13
M  V30 13 1 10 14
M  V30 14 2 12 15
M  V30 15 1 14 16
M  V30 16 2 16 17
M  V30 17 1 16 18
M  V30 18 1 18 19
M  V30 19 2 18 20
M  V30 20 2 19 21
M  V30 21 1 19 22
M  V30 22 1 20 23
M  V30 23 1 21 24
M  V30 24 2 22 25
M  V30 25 1 23 26
M  V30 26 2 23 27
M  V30 27 2 24 28
M  V30 28 1 26 29
M  V30 29 1 27 30
M  V30 30 1 11 14
M  V30 31 1 13 15
M  V30 32 1 25 28
M  V30 33 2 29 30
M  V30 34 1 6 31
M  V30 35 1 6 32
M  V30 36 1 7 33
M  V30 37 1 7 34
M  V30 38 1 8 35
M  V30 39 1 9 36
M  V30 40 1 10 37
M  V30 41 1 10 38
M  V30 42 1 11 39
M  V30 43 1 11 40
M  V30 44 1 12 41
M  V30 45 1 13 42
M  V30 46 1 15 43
M  V30 47 1 20 44
M  V30 48 1 21 45
M  V30 49 1 22 46
M  V30 50 1 24 47
M  V30 51 1 25 48
M  V30 52 1 27 49
M  V30 53 1 28 50
M  V30 54 1 29 51
M  V30 55 1 30 52
M  V30 END BOND
M  V30 END CTAB
M  END
>  <Column 1>
2827

>  <level_0>
4067

>  <index>
4067

>  <Unnamed: 0>
4067

>  <NO.>
4079

>  <Name>
mefloquine

>  <IUPAC_name>
(e)-1-[4-(benzenesulfonyl)piperazin-1-yl]-3-(furan-2-yl)-2-phenylprop-2-en-1-one

>  <SMILES>
O=C(/C(=C/c1ccco1)c1ccccc1)N1CCN(S(=O)(=O)c2ccccc2)CC1

>  <CID>
100004046

>  <logBB>


>  <BBB+/BBB->
BBB+

>  <Inchi>
InChI=1S/C23H22N2O4S/c26-23(22(18-20-10-7-17-29-20)19-8-3-1-4-9-19)24-13-15-25(16-14-24)30(27-28)21-11-5-2-6-12-21/h1-12-17-18H-13-16H2/b22-18+

>  <threshold>
-1

>  <reference>
R16|R10|

>  <group>
B

>  <Class>
-1

>  <ABC>
23.52

>  <ABCGG>
18.59

>  <nAcid>
0

>  <nBase>
0

>  <nAromAtom>
17

>  <nAromBond>
17

>  <nAtom>
52

>  <nHeavyAtom>
30

>  <nSpiro>
0

>  <nBridgehead>
0

>  <nHetero>
7

>  <nN>
2

>  <nO>
4

>  <nF>
0

>  <BalabanJ>
1.35

>  <BertzCT>
1116.47

>  <nBonds>
55

>  <nBondsO>
33

>  <nBondsS>
34

>  <nBondsD>
4

>  <nBondsT>
0

>  <nBondsA>
17

>  <nBondsM>
21

>  <nBondsKS>
43

>  <nBondsKD>
12

>  <RNCG>
0.2

>  <RPCG>
0.11

>  <FCSP3>
0.17

>  <SZ>
37

>  <Sm>
35.18

>  <Sv>
34.52

>  <Sse>
52.49

>  <Sp>
36.76

>  <Si>
57.91

>  <MZ>
0.71

>  <Mm>
0.68

>  <Mv>
0.66

>  <Mse>
1.01

>  <Mp>
0.71

>  <Mi>
1.11

>  <NsCH3>
0

>  <NdCH2>
0

>  <NssCH2>
4

>  <NtCH>
0

>  <NdsCH>
1

>  <NaaCH>
13

>  <NsssCH>
0

>  <NddC>
0

>  <NtsC>
0

>  <NdssC>
2

>  <NaasC>
3

>  <NaaaC>
0

>  <NssssC>
0

>  <NsNH3>
0

>  <NsNH2>
0

>  <NssNH2>
0

>  <NdNH>
0

>  <NssNH>
0

>  <NaaNH>
0

>  <NtN>
0

>  <NsssNH>
0

>  <NdsN>
0

>  <NaaN>
0

>  <NsssN>
2

>  <NddsN>
0

>  <NaasN>
0

>  <NssssN>
0

>  <NsOH>
0

>  <NdO>
3

>  <NssO>
0

>  <NaaO>
1

>  <NsF>
0

>  <NsSiH3>
0

>  <NssSiH2>
0

>  <NsssSiH>
0

>  <NssssSi>
0

>  <NsPH2>
0

>  <NssPH>
0

>  <NsssP>
0

>  <NdsssP>
0

>  <NsssssP>
0

>  <NsSH>
0

>  <NdS>
0

>  <NssS>
0

>  <NaaS>
0

>  <NdssS>
0

>  <NddssS>
1

>  <NsCl>
0

>  <NsBr>
0

>  <NsI>
0

>  <fragCpx>
219.07

>  <fMF>
0.52

>  <nHBAcc>
4

>  <nHBDon>
0

>  <Kier1>
23.17

>  <Kier2>
10.74

>  <Lipinski>
1

>  <GhoseFilter>
1

>  <FilterItLogS>
-4.32

>  <VMcGowan>
308.28

>  <LabuteASA>
175.64

>  <PEOE_VSA1>
9.32

>  <PEOE_VSA2>
4.79

>  <PEOE_VSA3>
8.42

>  <PEOE_VSA4>
4.31

>  <PEOE_VSA5>
0

>  <PEOE_VSA6>
48.53

>  <PEOE_VSA7>
35.9

>  <PEOE_VSA8>
26.18

>  <PEOE_VSA9>
16.73

>  <PEOE_VSA10>
5.76

>  <PEOE_VSA11>
0

>  <PEOE_VSA12>
10.02

>  <PEOE_VSA13>
5.91

>  <SMR_VSA1>
17.63

>  <SMR_VSA2>
0

>  <SMR_VSA3>
9.21

>  <SMR_VSA4>
0

>  <SMR_VSA5>
4.9

>  <SMR_VSA6>
26.18

>  <SMR_VSA7>
90.38

>  <SMR_VSA8>
0

>  <SMR_VSA9>
0

>  <SlogP_VSA1>
0

>  <SlogP_VSA2>
49.71

>  <SlogP_VSA3>
14.82

>  <SlogP_VSA4>
0

>  <SlogP_VSA5>
11.32

>  <SlogP_VSA6>
88.37

>  <SlogP_VSA7>
0

>  <SlogP_VSA8>
11.65

>  <SlogP_VSA9>
0

>  <SlogP_VSA10>
0

>  <SlogP_VSA11>
0

>  <EState_VSA1>
10.02

>  <EState_VSA2>
23.89

>  <EState_VSA3>
24.42

>  <EState_VSA4>
5.56

>  <EState_VSA5>
4.31

>  <EState_VSA6>
59.7

>  <EState_VSA7>
30.33

>  <EState_VSA8>
0

>  <EState_VSA9>
4.42

>  <EState_VSA10>
13.21

>  <VSA_EState1>
32.49

>  <VSA_EState2>
15.26

>  <VSA_EState3>
0

>  <VSA_EState4>
1.31

>  <VSA_EState5>
0.45

>  <VSA_EState6>
21.34

>  <VSA_EState7>
3.29

>  <VSA_EState8>
1.16

>  <VSA_EState9>
-3.56

>  <apol>
61.39

>  <bpol>
34.75

>  <nRing>
4

>  <nHRing>
2

>  <naRing>
3

>  <naHRing>
1

>  <nARing 2>
1

>  <nAHRing 2>
1

>  <nFRing>
0

>  <nFHRing>
0

>  <nFaRing>
0

>  <nFaHRing>
0

>  <nFARing 2>
0

>  <nFAHRing 2>
0

>  <nRot>
5

>  <SLogP>
3.35

>  <SMR>
114.8

>  <TopoPSA(NO)>
70.83

>  <TopoPSA>
79.21

>  <JGI1>
0.17

>  <JGI2>
0.09

>  <JGI3>
0.05

>  <JGI4>
0.03

>  <JGI5>
0.02

>  <Diameter>
14

>  <Radius>
7

>  <TMWC10>
140.01

>  <TSRW10>
78.86

>  <MW>
422.13

>  <AMW>
8.12

>  <WPath>
2578

>  <WPol>
47

>  <Zagreb1>
158

>  <Zagreb2>
186

>  <mZagreb2>
6.58

>  <yes>


>  <nAR-cont>
0.816016

>  <nHA-cont>
0.74523694

>  <MWHBN>
0.194686968

>  <MWHBN-cont>
0.998051665

>  <TPSA-cont>
0.447065014

>  <pka_cont>
0.97

>  <yes.1>


>  <BBB_SCORE>
4.437460465

>  <MMFF94 Energy>
48.094

$$$$
Compound 2316
Actelion Java MolfileCreator 2.0

  0  0  0  0  0  0              0 V3000
M  V30 BEGIN CTAB
M  V30 COUNTS 49 52 0 0 0
M  V30 BEGIN ATOM
M  V30 1 O -1.6784 0.1597 -2.3984 0
M  V30 2 C -1.0233 -0.5389 -1.6275 0
M  V30 3 N 0.2304 -0.2104 -1.1347 0
M  V30 4 C -1.5854 -1.8489 -1.2289 0
M  V30 5 C 1.002 -1.0656 -0.2214 0
M  V30 6 C 0.8931 0.9749 -1.7057 0
M  V30 7 C -2.3775 -2.0317 -0.1614 0
M  V30 8 C 1.6127 -0.2734 0.8799 0
M  V30 9 C 2.1091 0.6378 -2.5823 0 CFG=1
M  V30 10 C -2.8153 -0.9993 0.7973 0
M  V30 11 O 2.9456 0.0059 0.7703 0
M  V30 12 C 1.1148 0.2732 2.0448 0
M  V30 13 O 1.7419 -0.2202 -3.6829 0
M  V30 14 C 2.7431 1.8746 -3.2033 0
M  V30 15 C -2.5497 -1.1671 2.1681 0
M  V30 16 C -3.5348 0.1147 0.3339 0
M  V30 17 C 3.2911 0.728 1.8669 0
M  V30 18 C 2.2004 0.9204 2.6811 0
M  V30 19 C 2.3565 0.2805 -4.8772 0
M  V30 20 C 3.3836 1.3029 -4.4427 0
M  V30 21 N -1.8593 -2.24 2.6255 0
M  V30 22 C -3.0116 -0.1686 3.0574 0
M  V30 23 C -3.9799 1.0872 1.2221 0
M  V30 24 C -1.622 -2.3471 3.9507 0
M  V30 25 C -2.7442 -0.3147 4.4256 0
M  V30 26 C -3.7189 0.9468 2.5804 0
M  V30 27 C -2.0391 -1.4196 4.8822 0
M  V30 28 H -1.3073 -2.6767 -1.87 0
M  V30 29 H 0.385 -1.8511 0.2199 0
M  V30 30 H 1.7723 -1.5735 -0.8121 0
M  V30 31 H 1.1854 1.6403 -0.8863 0
M  V30 32 H 0.1711 1.5343 -2.3112 0
M  V30 33 H -2.7126 -3.0387 0.0787 0
M  V30 34 H 2.8654 0.0951 -2.0045 0
M  V30 35 H 0.0914 0.2113 2.3858 0
M  V30 36 H 1.9799 2.6082 -3.4902 0
M  V30 37 H 3.4544 2.3666 -2.5339 0
M  V30 38 H -3.7514 0.2289 -0.7273 0
M  V30 39 H 4.329 1.025 1.9226 0
M  V30 40 H 2.1891 1.4602 3.6172 0
M  V30 41 H 1.5728 0.7407 -5.4884 0
M  V30 42 H 2.7981 -0.5464 -5.4399 0
M  V30 43 H 3.5962 2.0489 -5.2126 0
M  V30 44 H 4.3226 0.8025 -4.1782 0
M  V30 45 H -4.5291 1.9495 0.8528 0
M  V30 46 H -1.0666 -3.2315 4.2498 0
M  V30 47 H -3.0845 0.4306 5.1403 0
M  V30 48 H -4.0723 1.7138 3.2662 0
M  V30 49 H -1.8229 -1.5528 5.9359 0
M  V30 END ATOM
M  V30 BEGIN BOND
M  V30 1 2 1 2
M  V30 2 1 2 3
M  V30 3 1 2 4
M  V30 4 1 3 5
M  V30 5 1 3 6
M  V30 6 2 4 7
M  V30 7 1 5 8
M  V30 8 1 6 9
M  V30 9 1 7 10
M  V30 10 1 8 11
M  V30 11 2 8 12
M  V30 12 1 9 13
M  V30 13 1 9 14
M  V30 14 1 10 15
M  V30 15 2 10 16
M  V30 16 1 11 17
M  V30 17 1 12 18
M  V30 18 1 13 19
M  V30 19 1 14 20
M  V30 20 2 15 21
M  V30 21 1 15 22
M  V30 22 1 16 23
M  V30 23 1 21 24
M  V30 24 2 22 25
M  V30 25 1 22 26
M  V30 26 2 24 27
M  V30 27 2 17 18
M  V30 28 1 19 20
M  V30 29 2 23 26
M  V30 30 1 25 27
M  V30 31 1 4 28
M  V30 32 1 5 29
M  V30 33 1 5 30
M  V30 34 1 6 31
M  V30 35 1 6 32
M  V30 36 1 7 33
M  V30 37 1 9 34
M  V30 38 1 12 35
M  V30 39 1 14 36
M  V30 40 1 14 37
M  V30 41 1 16 38
M  V30 42 1 17 39
M  V30 43 1 18 40
M  V30 44 1 19 41
M  V30 45 1 19 42
M  V30 46 1 20 43
M  V30 47 1 20 44
M  V30 48 1 23 45
M  V30 49 1 24 46
M  V30 50 1 25 47
M  V30 51 1 26 48
M  V30 52 1 27 49
M  V30 END BOND
M  V30 BEGIN COLLECTION
M  V30 MDLV30/STEABS ATOMS=(1 9)
M  V30 END COLLECTION
M  V30 END CTAB
M  END
>  <Column 1>
2828

>  <level_0>
4068

>  <index>
4068

>  <Unnamed: 0>
4068

>  <NO.>
4080

>  <Name>
atovaquone

>  <IUPAC_name>
(z)-n-(furan-2-ylmethyl)-n-[[(2s)-oxolan-2-yl]methyl]-3-quinolin-8-ylprop-2-enamide

>  <SMILES>
O=C(/C=C\c1cccc2cccnc12)N(Cc1ccco1)C[C@@H]1CCCO1

>  <CID>
100074989

>  <logBB>


>  <BBB+/BBB->
BBB-

>  <Inchi>
InChI=1S/C22H22N2O3/c25-21(11-10-18-6-1-5-17-7-2-12-23-22(17)18)24(15-19-8-3-13-26-19)16-20-9-4-14-27-20/h1-3-5-8-10-13-20H-4-9-14-16H2/b11-10-/t20-/m0/s1

>  <threshold>
-1

>  <reference>
R16|R10|

>  <group>
B

>  <Class>
1

>  <ABC>
21.2

>  <ABCGG>
17.21

>  <nAcid>
0

>  <nBase>
0

>  <nAromAtom>
15

>  <nAromBond>
16

>  <nAtom>
49

>  <nHeavyAtom>
27

>  <nSpiro>
0

>  <nBridgehead>
0

>  <nHetero>
5

>  <nN>
2

>  <nO>
3

>  <nF>
0

>  <BalabanJ>
1.3

>  <BertzCT>
922.4

>  <nBonds>
52

>  <nBondsO>
30

>  <nBondsS>
34

>  <nBondsD>
2

>  <nBondsT>
0

>  <nBondsA>
16

>  <nBondsM>
18

>  <nBondsKS>
43

>  <nBondsKD>
9

>  <RNCG>
0.22

>  <RPCG>
0.12

>  <FCSP3>
0.27

>  <SZ>
32

>  <Sm>
30.17

>  <Sv>
31.62

>  <Sse>
49.08

>  <Sp>
33.54

>  <Si>
54.78

>  <MZ>
0.65

>  <Mm>
0.62

>  <Mv>
0.65

>  <Mse>
1

>  <Mp>
0.68

>  <Mi>
1.12

>  <NsCH3>
0

>  <NdCH2>
0

>  <NssCH2>
5

>  <NtCH>
0

>  <NdsCH>
2

>  <NaaCH>
9

>  <NsssCH>
1

>  <NddC>
0

>  <NtsC>
0

>  <NdssC>
1

>  <NaasC>
2

>  <NaaaC>
2

>  <NssssC>
0

>  <NsNH3>
0

>  <NsNH2>
0

>  <NssNH2>
0

>  <NdNH>
0

>  <NssNH>
0

>  <NaaNH>
0

>  <NtN>
0

>  <NsssNH>
0

>  <NdsN>
0

>  <NaaN>
1

>  <NsssN>
1

>  <NddsN>
0

>  <NaasN>
0

>  <NssssN>
0

>  <NsOH>
0

>  <NdO>
1

>  <NssO>
1

>  <NaaO>
1

>  <NsF>
0

>  <NsSiH3>
0

>  <NssSiH2>
0

>  <NsssSiH>
0

>  <NssssSi>
0

>  <NsPH2>
0

>  <NssPH>
0

>  <NsssP>
0

>  <NdsssP>
0

>  <NsssssP>
0

>  <NsSH>
0

>  <NdS>
0

>  <NssS>
0

>  <NaaS>
0

>  <NdssS>
0

>  <NddssS>
0

>  <NsCl>
0

>  <NsBr>
0

>  <NsI>
0

>  <fragCpx>
198.05

>  <fMF>
0.53

>  <nHBAcc>
4

>  <nHBDon>
0

>  <Kier1>
20.28

>  <Kier2>
10.16

>  <Lipinski>
1

>  <GhoseFilter>
1

>  <FilterItLogS>
-4.82

>  <VMcGowan>
276.27

>  <LabuteASA>
157.81

>  <PEOE_VSA1>
14.05

>  <PEOE_VSA2>
9.78

>  <PEOE_VSA3>
0

>  <PEOE_VSA4>
0

>  <PEOE_VSA5>
0

>  <PEOE_VSA6>
24.27

>  <PEOE_VSA7>
37.12

>  <PEOE_VSA8>
36.37

>  <PEOE_VSA9>
24.43

>  <PEOE_VSA10>
5.76

>  <PEOE_VSA11>
0

>  <PEOE_VSA12>
5.91

>  <PEOE_VSA13>
0

>  <SMR_VSA1>
13.95

>  <SMR_VSA2>
0

>  <SMR_VSA3>
9.88

>  <SMR_VSA4>
0

>  <SMR_VSA5>
25.49

>  <SMR_VSA6>
13.15

>  <SMR_VSA7>
72.32

>  <SMR_VSA8>
0

>  <SMR_VSA9>
0

>  <SlogP_VSA1>
0

>  <SlogP_VSA2>
35.05

>  <SlogP_VSA3>
16.08

>  <SlogP_VSA4>
0

>  <SlogP_VSA5>
24.17

>  <SlogP_VSA6>
65.42

>  <SlogP_VSA7>
0

>  <SlogP_VSA8>
16.98

>  <SlogP_VSA9>
0

>  <SlogP_VSA10>
0

>  <SlogP_VSA11>
0

>  <EState_VSA1>
0

>  <EState_VSA2>
12.01

>  <EState_VSA3>
13.09

>  <EState_VSA4>
41.68

>  <EState_VSA5>
0

>  <EState_VSA6>
23.44

>  <EState_VSA7>
48.54

>  <EState_VSA8>
4.98

>  <EState_VSA9>
9.15

>  <EState_VSA10>
4.79

>  <VSA_EState1>
11.14

>  <VSA_EState2>
19.11

>  <VSA_EState3>
1.05

>  <VSA_EState4>
1.82

>  <VSA_EState5>
0.71

>  <VSA_EState6>
13.6

>  <VSA_EState7>
8.97

>  <VSA_EState8>
1.77

>  <VSA_EState9>
0

>  <apol>
56.02

>  <bpol>
29.26

>  <nRing>
4

>  <nHRing>
3

>  <naRing>
3

>  <naHRing>
2

>  <nARing 2>
1

>  <nAHRing 2>
1

>  <nFRing>
1

>  <nFHRing>
1

>  <nFaRing>
1

>  <nFaHRing>
1

>  <nFARing 2>
0

>  <nFAHRing 2>
0

>  <nRot>
6

>  <SLogP>
4.05

>  <SMR>
103.88

>  <TopoPSA(NO)>
55.57

>  <TopoPSA>
55.57

>  <JGI1>
0.13

>  <JGI2>
0.06

>  <JGI3>
0.04

>  <JGI4>
0.03

>  <JGI5>
0.02

>  <Diameter>
12

>  <Radius>
6

>  <TMWC10>
132.13

>  <TSRW10>
76.96

>  <MW>
362.16

>  <AMW>
7.39

>  <WPath>
1966

>  <WPol>
36

>  <Zagreb1>
140

>  <Zagreb2>
162

>  <mZagreb2>
6

>  <yes>


>  <nAR-cont>
0.816016

>  <nHA-cont>
0.860070871

>  <MWHBN>
0.210188887

>  <MWHBN-cont>
0.99927206

>  <TPSA-cont>
0.612086893

>  <pka_cont>
0.97

>  <yes.1>


>  <BBB_SCORE>
4.884168747

>  <MMFF94 Energy>
61.03

$$$$
Compound 2317
Actelion Java MolfileCreator 2.0

  0  0  0  0  0  0              0 V3000
M  V30 BEGIN CTAB
M  V30 COUNTS 50 53 0 0 0
M  V30 BEGIN ATOM
M  V30 1 O 1.522 -3.2063 -0.4804 0
M  V30 2 C 2.2748 -2.2873 -0.1949 0
M  V30 3 N 2.2986 -1.5846 0.9794 0
M  V30 4 C 3.3712 -1.7386 -1.0915 0
M  V30 5 C 3.4576 -0.8824 1.1306 0
M  V30 6 C 1.2847 -1.7224 2.0117 0
M  V30 7 C 4.3188 -1.1023 -0.0799 0
M  V30 8 C 4.0194 -2.8016 -1.9747 0
M  V30 9 C 2.7947 -0.7333 -2.0917 0
M  V30 10 O 3.7975 -0.2309 2.1072 0
M  V30 11 C 0.6684 -0.4021 2.4688 0
M  V30 12 C 3.2413 -2.7879 -3.2936 0
M  V30 13 C 2.2753 -1.6097 -3.2232 0
M  V30 14 C -0.0945 0.3117 1.3736 0
M  V30 15 O -0.1643 -0.09 0.2187 0
M  V30 16 N -0.6967 1.4719 1.8131 0
M  V30 17 C -1.486 2.3227 0.9422 0
M  V30 18 C -2.9784 2.223 1.2641 0 CFG=1
M  V30 19 C -3.8268 3.2319 0.4431 0 CFG=2
M  V30 20 C -3.6129 0.8536 0.8521 0
M  V30 21 C -5.2178 3.2308 1.0406 0
M  V30 22 C -4.1255 2.4403 -0.8349 0
M  V30 23 C -4.7693 1.2747 -0.0803 0 CFG=2
M  V30 24 C -5.7783 2.0507 0.7342 0
M  V30 25 H 0.4987 -2.4013 1.6623 0
M  V30 26 H 1.7718 -2.1944 2.8732 0
M  V30 27 H 4.7398 -0.1529 -0.4221 0
M  V30 28 H 5.1311 -1.7806 0.2035 0
M  V30 29 H 5.0677 -2.5505 -2.1783 0
M  V30 30 H 4.0048 -3.7984 -1.5207 0
M  V30 31 H 1.9973 -0.1087 -1.6765 0
M  V30 32 H 3.5807 -0.0714 -2.4756 0
M  V30 33 H -0.0315 -0.6044 3.2886 0
M  V30 34 H 1.4325 0.2809 2.8543 0
M  V30 35 H 2.6973 -3.7261 -3.4463 0
M  V30 36 H 3.9329 -2.6725 -4.1356 0
M  V30 37 H 1.266 -1.969 -2.9902 0
M  V30 38 H 2.2187 -1.0663 -4.1713 0
M  V30 39 H -0.5711 1.7599 2.7754 0
M  V30 40 H -1.1387 3.3466 1.119 0
M  V30 41 H -1.2799 2.0812 -0.1052 0
M  V30 42 H -3.1198 2.3858 2.3416 0
M  V30 43 H -3.3986 4.2233 0.2896 0
M  V30 44 H -3.9666 0.2986 1.7279 0
M  V30 45 H -2.902 0.2232 0.3083 0
M  V30 46 H -5.6484 4.0126 1.6476 0
M  V30 47 H -3.2305 2.152 -1.3958 0
M  V30 48 H -4.8172 2.9551 -1.5142 0
M  V30 49 H -5.1901 0.4883 -0.7074 0
M  V30 50 H -6.7497 1.6949 1.0423 0
M  V30 END ATOM
M  V30 BEGIN BOND
M  V30 1 2 1 2
M  V30 2 1 2 3
M  V30 3 1 2 4
M  V30 4 1 3 5
M  V30 5 1 3 6
M  V30 6 1 4 7
M  V30 7 1 4 8
M  V30 8 1 4 9
M  V30 9 2 5 10
M  V30 10 1 6 11
M  V30 11 1 8 12
M  V30 12 1 9 13
M  V30 13 1 11 14
M  V30 14 2 14 15
M  V30 15 1 14 16
M  V30 16 1 16 17
M  V30 17 1 17 18
M  V30 18 1 18 19
M  V30 19 1 18 20
M  V30 20 1 19 21
M  V30 21 1 19 22
M  V30 22 1 20 23
M  V30 23 2 21 24
M  V30 24 1 5 7
M  V30 25 1 12 13
M  V30 26 1 22 23
M  V30 27 1 23 24
M  V30 28 1 6 25
M  V30 29 1 6 26
M  V30 30 1 7 27
M  V30 31 1 7 28
M  V30 32 1 8 29
M  V30 33 1 8 30
M  V30 34 1 9 31
M  V30 35 1 9 32
M  V30 36 1 11 33
M  V30 37 1 11 34
M  V30 38 1 12 35
M  V30 39 1 12 36
M  V30 40 1 13 37
M  V30 41 1 13 38
M  V30 42 1 16 39
M  V30 43 1 17 40
M  V30 44 1 17 41
M  V30 45 1 18 42
M  V30 46 1 19 43
M  V30 47 1 20 44
M  V30 48 1 20 45
M  V30 49 1 21 46
M  V30 50 1 22 47
M  V30 51 1 22 48
M  V30 52 1 23 49
M  V30 53 1 24 50
M  V30 END BOND
M  V30 BEGIN COLLECTION
M  V30 MDLV30/STEABS ATOMS=(3 18 19 23)
M  V30 END COLLECTION
M  V30 END CTAB
M  END
>  <Column 1>
2829

>  <level_0>
4069

>  <index>
4069

>  <Unnamed: 0>
4069

>  <NO.>
4081

>  <Name>
thc

>  <IUPAC_name>
n-[[(1s-2r-4s)-2-bicyclo[2.2.1]hept-5-enyl]methyl]-3-(1-3-dioxo-2-azaspiro[4.4]nonan-2-yl)propanamide

>  <SMILES>
O=C(CCN1C(=O)CC2(CCCC2)C1=O)NC[C@@H]1C[C@H]2C=C[C@@H]1C2

>  <CID>
100002978

>  <logBB>


>  <BBB+/BBB->
BBB+

>  <Inchi>
InChI=1S/C19H26N2O3/c22-16(20-12-15-10-13-3-4-14(15)9-13)5-8-21-17(23)11-19(18(21)24)6-1-2-7-19/h3-4-13-15H-1-2-5-12H2-(H-20-22)/t13--14+-15-/m0/s1

>  <threshold>
-1

>  <reference>
R16|R10|R10|

>  <group>
B

>  <Class>
1

>  <ABC>
19.24

>  <ABCGG>
16.51

>  <nAcid>
0

>  <nBase>
0

>  <nAromAtom>
0

>  <nAromBond>
0

>  <nAtom>
50

>  <nHeavyAtom>
24

>  <nSpiro>
1

>  <nBridgehead>
2

>  <nHetero>
5

>  <nN>
2

>  <nO>
3

>  <nF>
0

>  <BalabanJ>
1.21

>  <BertzCT>
591.42

>  <nBonds>
53

>  <nBondsO>
27

>  <nBondsS>
49

>  <nBondsD>
4

>  <nBondsT>
0

>  <nBondsA>
0

>  <nBondsM>
4

>  <nBondsKS>
49

>  <nBondsKD>
4

>  <RNCG>
0.18

>  <RPCG>
0.12

>  <FCSP3>
0.74

>  <SZ>
29.67

>  <Sm>
27.51

>  <Sv>
29.7

>  <Sse>
49.86

>  <Sp>
32.14

>  <Si>
56.61

>  <MZ>
0.59

>  <Mm>
0.55

>  <Mv>
0.59

>  <Mse>
1

>  <Mp>
0.64

>  <Mi>
1.13

>  <NsCH3>
0

>  <NdCH2>
0

>  <NssCH2>
10

>  <NtCH>
0

>  <NdsCH>
2

>  <NaaCH>
0

>  <NsssCH>
3

>  <NddC>
0

>  <NtsC>
0

>  <NdssC>
3

>  <NaasC>
0

>  <NaaaC>
0

>  <NssssC>
1

>  <NsNH3>
0

>  <NsNH2>
0

>  <NssNH2>
0

>  <NdNH>
0

>  <NssNH>
1

>  <NaaNH>
0

>  <NtN>
0

>  <NsssNH>
0

>  <NdsN>
0

>  <NaaN>
0

>  <NsssN>
1

>  <NddsN>
0

>  <NaasN>
0

>  <NssssN>
0

>  <NsOH>
0

>  <NdO>
3

>  <NssO>
0

>  <NaaO>
0

>  <NsF>
0

>  <NsSiH3>
0

>  <NssSiH2>
0

>  <NsssSiH>
0

>  <NssssSi>
0

>  <NsPH2>
0

>  <NssPH>
0

>  <NsssP>
0

>  <NdsssP>
0

>  <NsssssP>
0

>  <NsSH>
0

>  <NdS>
0

>  <NssS>
0

>  <NaaS>
0

>  <NdssS>
0

>  <NddssS>
0

>  <NsCl>
0

>  <NsBr>
0

>  <NsI>
0

>  <fragCpx>
177.05

>  <fMF>
0.42

>  <nHBAcc>
3

>  <nHBDon>
1

>  <Kier1>
17.42

>  <Kier2>
6.96

>  <Lipinski>
1

>  <GhoseFilter>
1

>  <FilterItLogS>
-3.17

>  <VMcGowan>
255.5

>  <LabuteASA>
142.39

>  <PEOE_VSA1>
5.32

>  <PEOE_VSA2>
19.28

>  <PEOE_VSA3>
0

>  <PEOE_VSA4>
0

>  <PEOE_VSA5>
0

>  <PEOE_VSA6>
24.99

>  <PEOE_VSA7>
43.44

>  <PEOE_VSA8>
25.93

>  <PEOE_VSA9>
5.41

>  <PEOE_VSA10>
0

>  <PEOE_VSA11>
0

>  <PEOE_VSA12>
17.72

>  <PEOE_VSA13>
0

>  <SMR_VSA1>
14.38

>  <SMR_VSA2>
0

>  <SMR_VSA3>
10.22

>  <SMR_VSA4>
23.17

>  <SMR_VSA5>
51.37

>  <SMR_VSA6>
13.09

>  <SMR_VSA7>
12.15

>  <SMR_VSA8>
0

>  <SMR_VSA9>
0

>  <SlogP_VSA1>
5.32

>  <SlogP_VSA2>
35.71

>  <SlogP_VSA3>
14.38

>  <SlogP_VSA4>
23.17

>  <SlogP_VSA5>
51.37

>  <SlogP_VSA6>
12.15

>  <SlogP_VSA7>
0

>  <SlogP_VSA8>
0

>  <SlogP_VSA9>
0

>  <SlogP_VSA10>
0

>  <SlogP_VSA11>
0

>  <EState_VSA1>
5.41

>  <EState_VSA2>
30.69

>  <EState_VSA3>
24.17

>  <EState_VSA4>
32.23

>  <EState_VSA5>
17.74

>  <EState_VSA6>
0

>  <EState_VSA7>
0

>  <EState_VSA8>
17.47

>  <EState_VSA9>
0

>  <EState_VSA10>
14.38

>  <VSA_EState1>
0

>  <VSA_EState2>
38.2

>  <VSA_EState3>
3

>  <VSA_EState4>
-0.43

>  <VSA_EState5>
1.72

>  <VSA_EState6>
0

>  <VSA_EState7>
11.3

>  <VSA_EState8>
0.96

>  <VSA_EState9>
0

>  <apol>
53.67

>  <bpol>
30.97

>  <nRing>
4

>  <nHRing>
1

>  <naRing>
0

>  <naHRing>
0

>  <nARing 2>
4

>  <nAHRing 2>
1

>  <nFRing>
1

>  <nFHRing>
0

>  <nFaRing>
0

>  <nFaHRing>
0

>  <nFARing 2>
1

>  <nFAHRing 2>
0

>  <nRot>
5

>  <SLogP>
2.02

>  <SMR>
88.71

>  <TopoPSA(NO)>
66.48

>  <TopoPSA>
66.48

>  <JGI1>
0.22

>  <JGI2>
0.09

>  <JGI3>
0.07

>  <JGI4>
0.04

>  <JGI5>
0.03

>  <Diameter>
13

>  <Radius>
7

>  <TMWC10>
127.56

>  <TSRW10>
77.11

>  <MW>
330.19

>  <AMW>
6.6

>  <WPath>
1506

>  <WPol>
33

>  <Zagreb1>
134

>  <Zagreb2>
162

>  <mZagreb2>
5.13

>  <yes>


>  <nAR-cont>
0.199399

>  <nHA-cont>
0.94700071

>  <MWHBN>
0.220129392

>  <MWHBN-cont>
0.994879119

>  <TPSA-cont>
0.535928318

>  <pka_cont>
0.97

>  <yes.1>


>  <BBB_SCORE>
4.195575025

>  <MMFF94 Energy>
-22.549

$$$$
Compound 2318
Actelion Java MolfileCreator 2.0

  0  0  0  0  0  0              0 V3000
M  V30 BEGIN CTAB
M  V30 COUNTS 44 47 0 0 0
M  V30 BEGIN ATOM
M  V30 1 O 1.3672 2.4138 -0.5628 0
M  V30 2 C 0.9498 1.5898 0.2422 0
M  V30 3 N 0.0333 1.8814 1.2279 0
M  V30 4 C 1.3903 0.1443 0.2553 0
M  V30 5 C -0.5181 3.2115 1.3989 0
M  V30 6 C 2.3679 -0.1457 -0.8756 0
M  V30 7 C -1.6666 3.4872 0.4303 0 CFG=1
M  V30 8 C 2.7902 -1.5631 -0.8496 0
M  V30 9 C -2.9027 2.5579 0.5729 0 CFG=2
M  V30 10 C -2.2943 4.9052 0.6163 0
M  V30 11 O 4.014 -1.8345 -0.3173 0
M  V30 12 N 2.1453 -2.6349 -1.2466 0
M  V30 13 C -3.4711 2.6691 1.9701 0
M  V30 14 C -3.9563 3.3895 -0.1704 0
M  V30 15 C -3.8006 4.596 0.7598 0 CFG=1
M  V30 16 N 4.1758 -3.216 -0.384 0
M  V30 17 C 3.0368 -3.6461 -0.9525 0
M  V30 18 C -4.0019 3.8959 2.0842 0
M  V30 19 C 2.7437 -5.0457 -1.2336 0
M  V30 20 C 3.6536 -6.0546 -0.9063 0
M  V30 21 C 1.537 -5.4039 -1.8404 0
M  V30 22 C 3.3184 -7.3661 -1.1964 0
M  V30 23 C 1.294 -6.7435 -2.0901 0
M  V30 24 N 2.158 -7.7321 -1.78 0
M  V30 25 H -0.2752 1.1517 1.8577 0
M  V30 26 H 0.5 -0.4906 0.1667 0
M  V30 27 H 1.8532 -0.0668 1.2273 0
M  V30 28 H -0.8331 3.2983 2.4438 0
M  V30 29 H 0.2827 3.9426 1.2386 0
M  V30 30 H 1.9005 0.0701 -1.844 0
M  V30 31 H 3.2452 0.508 -0.7985 0
M  V30 32 H -1.2907 3.4105 -0.5993 0
M  V30 33 H -2.7819 1.5389 0.2029 0
M  V30 34 H -1.8938 5.4405 1.4844 0
M  V30 35 H -2.1087 5.5111 -0.2778 0
M  V30 36 H -3.4169 1.9151 2.7403 0
M  V30 37 H -4.9598 2.9455 -0.1474 0
M  V30 38 H -3.6862 3.6063 -1.2101 0
M  V30 39 H -4.4815 5.4261 0.57 0
M  V30 40 H -4.4586 4.3259 2.9628 0
M  V30 41 H 4.606 -5.8333 -0.4353 0
M  V30 42 H 0.798 -4.6585 -2.1166 0
M  V30 43 H 3.9955 -8.182 -0.9596 0
M  V30 44 H 0.3696 -7.0664 -2.5607 0
M  V30 END ATOM
M  V30 BEGIN BOND
M  V30 1 2 1 2
M  V30 2 1 2 3
M  V30 3 1 2 4
M  V30 4 1 3 5
M  V30 5 1 4 6
M  V30 6 1 5 7
M  V30 7 1 6 8
M  V30 8 1 7 9
M  V30 9 1 7 10
M  V30 10 1 8 11
M  V30 11 2 8 12
M  V30 12 1 9 13
M  V30 13 1 9 14
M  V30 14 1 10 15
M  V30 15 1 11 16
M  V30 16 1 12 17
M  V30 17 2 13 18
M  V30 18 1 17 19
M  V30 19 2 19 20
M  V30 20 1 19 21
M  V30 21 1 20 22
M  V30 22 2 21 23
M  V30 23 2 22 24
M  V30 24 1 14 15
M  V30 25 1 15 18
M  V30 26 2 16 17
M  V30 27 1 23 24
M  V30 28 1 3 25
M  V30 29 1 4 26
M  V30 30 1 4 27
M  V30 31 1 5 28
M  V30 32 1 5 29
M  V30 33 1 6 30
M  V30 34 1 6 31
M  V30 35 1 7 32
M  V30 36 1 9 33
M  V30 37 1 10 34
M  V30 38 1 10 35
M  V30 39 1 13 36
M  V30 40 1 14 37
M  V30 41 1 14 38
M  V30 42 1 15 39
M  V30 43 1 18 40
M  V30 44 1 20 41
M  V30 45 1 21 42
M  V30 46 1 22 43
M  V30 47 1 23 44
M  V30 END BOND
M  V30 BEGIN COLLECTION
M  V30 MDLV30/STEABS ATOMS=(3 7 9 15)
M  V30 END COLLECTION
M  V30 END CTAB
M  END
>  <Column 1>
2830

>  <level_0>
4070

>  <index>
4070

>  <Unnamed: 0>
4070

>  <NO.>
4082

>  <Name>
mirtazapine

>  <IUPAC_name>
n-[[(1s-2r-4r)-2-bicyclo[2.2.1]hept-5-enyl]methyl]-3-(3-pyridin-4-yl-1-2-4-oxadiazol-5-yl)propanamide

>  <SMILES>
O=C(CCc1nc(-c2ccncc2)no1)NC[C@@H]1C[C@@H]2C=C[C@@H]1C2

>  <CID>
100004205

>  <logBB>


>  <BBB+/BBB->
BBB+

>  <Inchi>
InChI=1S/C18H20N4O2/c23-16(20-11-15-10-12-1-2-14(15)9-12)3-4-17-21-18(22-24-17)13-5-7-19-8-6-13/h1-2-5-8-12-14-15H-3-4-9-11H2-(H-20-23)/t12--14--15+/m1/s1

>  <threshold>
-1

>  <reference>
R16|R10|

>  <group>
B

>  <Class>
-1

>  <ABC>
19.12

>  <ABCGG>
15.13

>  <nAcid>
0

>  <nBase>
0

>  <nAromAtom>
11

>  <nAromBond>
11

>  <nAtom>
44

>  <nHeavyAtom>
24

>  <nSpiro>
0

>  <nBridgehead>
2

>  <nHetero>
6

>  <nN>
4

>  <nO>
2

>  <nF>
0

>  <BalabanJ>
1.11

>  <BertzCT>
740.49

>  <nBonds>
47

>  <nBondsO>
27

>  <nBondsS>
34

>  <nBondsD>
2

>  <nBondsT>
0

>  <nBondsA>
11

>  <nBondsM>
13

>  <nBondsKS>
40

>  <nBondsKD>
7

>  <RNCG>
0.19

>  <RPCG>
0.12

>  <FCSP3>
0.44

>  <SZ>
28.67

>  <Sm>
27.01

>  <Sv>
27.88

>  <Sse>
44.19

>  <Sp>
29.58

>  <Si>
49.73

>  <MZ>
0.65

>  <Mm>
0.61

>  <Mv>
0.63

>  <Mse>
1

>  <Mp>
0.67

>  <Mi>
1.13

>  <NsCH3>
0

>  <NdCH2>
0

>  <NssCH2>
5

>  <NtCH>
0

>  <NdsCH>
2

>  <NaaCH>
4

>  <NsssCH>
3

>  <NddC>
0

>  <NtsC>
0

>  <NdssC>
1

>  <NaasC>
3

>  <NaaaC>
0

>  <NssssC>
0

>  <NsNH3>
0

>  <NsNH2>
0

>  <NssNH2>
0

>  <NdNH>
0

>  <NssNH>
1

>  <NaaNH>
0

>  <NtN>
0

>  <NsssNH>
0

>  <NdsN>
0

>  <NaaN>
3

>  <NsssN>
0

>  <NddsN>
0

>  <NaasN>
0

>  <NssssN>
0

>  <NsOH>
0

>  <NdO>
1

>  <NssO>
0

>  <NaaO>
1

>  <NsF>
0

>  <NsSiH3>
0

>  <NssSiH2>
0

>  <NsssSiH>
0

>  <NssssSi>
0

>  <NsPH2>
0

>  <NssPH>
0

>  <NsssP>
0

>  <NdsssP>
0

>  <NsssssP>
0

>  <NsSH>
0

>  <NdS>
0

>  <NssS>
0

>  <NaaS>
0

>  <NdssS>
0

>  <NddssS>
0

>  <NsCl>
0

>  <NsBr>
0

>  <NsI>
0

>  <fragCpx>
177.06

>  <fMF>
0.52

>  <nHBAcc>
5

>  <nHBDon>
1

>  <Kier1>
17.42

>  <Kier2>
8.13

>  <Lipinski>
1

>  <GhoseFilter>
1

>  <FilterItLogS>
-4.38

>  <VMcGowan>
242.6

>  <LabuteASA>
139.92

>  <PEOE_VSA1>
9.84

>  <PEOE_VSA2>
9.78

>  <PEOE_VSA3>
0

>  <PEOE_VSA4>
4.98

>  <PEOE_VSA5>
0

>  <PEOE_VSA6>
17.31

>  <PEOE_VSA7>
42.73

>  <PEOE_VSA8>
37.34

>  <PEOE_VSA9>
0

>  <PEOE_VSA10>
0

>  <PEOE_VSA11>
0

>  <PEOE_VSA12>
17.62

>  <PEOE_VSA13>
0

>  <SMR_VSA1>
9.32

>  <SMR_VSA2>
0

>  <SMR_VSA3>
20.44

>  <SMR_VSA4>
17.75

>  <SMR_VSA5>
25.68

>  <SMR_VSA6>
6.54

>  <SMR_VSA7>
42.57

>  <SMR_VSA8>
0

>  <SMR_VSA9>
11.39

>  <SlogP_VSA1>
5.32

>  <SlogP_VSA2>
27.58

>  <SlogP_VSA3>
11.22

>  <SlogP_VSA4>
17.75

>  <SlogP_VSA5>
25.15

>  <SlogP_VSA6>
41.2

>  <SlogP_VSA7>
0

>  <SlogP_VSA8>
11.39

>  <SlogP_VSA9>
0

>  <SlogP_VSA10>
0

>  <SlogP_VSA11>
0

>  <EState_VSA1>
0

>  <EState_VSA2>
5.91

>  <EState_VSA3>
36.39

>  <EState_VSA4>
18.03

>  <EState_VSA5>
12.84

>  <EState_VSA6>
12.39

>  <EState_VSA7>
12.13

>  <EState_VSA8>
32.59

>  <EState_VSA9>
4.52

>  <EState_VSA10>
4.79

>  <VSA_EState1>
5.22

>  <VSA_EState2>
20.32

>  <VSA_EState3>
6.99

>  <VSA_EState4>
0.86

>  <VSA_EState5>
3.06

>  <VSA_EState6>
3.65

>  <VSA_EState7>
11.3

>  <VSA_EState8>
0.77

>  <VSA_EState9>
0

>  <apol>
49.4

>  <bpol>
25.52

>  <nRing>
4

>  <nHRing>
2

>  <naRing>
2

>  <naHRing>
2

>  <nARing 2>
2

>  <nAHRing 2>
0

>  <nFRing>
1

>  <nFHRing>
0

>  <nFaRing>
0

>  <nFaHRing>
0

>  <nFARing 2>
1

>  <nFAHRing 2>
0

>  <nRot>
6

>  <SLogP>
2.39

>  <SMR>
87.7

>  <TopoPSA(NO)>
80.91

>  <TopoPSA>
80.91

>  <JGI1>
0.17

>  <JGI2>
0.06

>  <JGI3>
0.03

>  <JGI4>
0.03

>  <JGI5>
0.02

>  <Diameter>
15

>  <Radius>
8

>  <TMWC10>
125.64

>  <TSRW10>
75.37

>  <MW>
324.16

>  <AMW>
7.37

>  <WPath>
1640

>  <WPol>
28

>  <Zagreb1>
128

>  <Zagreb2>
149

>  <mZagreb2>
5.22

>  <yes>


>  <nAR-cont>
1

>  <nHA-cont>
0.94700071

>  <MWHBN>
0.333251059

>  <MWHBN-cont>
0.731376049

>  <TPSA-cont>
0.435197958

>  <pka_cont>
0.97

>  <yes.1>


>  <BBB_SCORE>
4.3994607

>  <MMFF94 Energy>
15.96

$$$$
Compound 2319
Actelion Java MolfileCreator 2.0

  0  0  0  0  0  0              0 V3000
M  V30 BEGIN CTAB
M  V30 COUNTS 46 49 0 0 0
M  V30 BEGIN ATOM
M  V30 1 S 0.0813 3.0124 5.95 0
M  V30 2 C -0.3084 3.4267 4.335 0
M  V30 3 C -0.144 1.3455 5.6353 0
M  V30 4 C -0.6048 2.3182 3.5694 0
M  V30 5 C -0.508 1.1106 4.3269 0
M  V30 6 C -0.9753 2.3402 2.153 0
M  V30 7 N -1.1096 3.4556 1.425 0
M  V30 8 N -1.2254 1.1714 1.4764 0
M  V30 9 O -1.4495 2.9711 0.1604 0
M  V30 10 C -1.4997 1.6112 0.2678 0
M  V30 11 C -1.8606 0.8617 -0.9642 0
M  V30 12 C -2.4612 -0.5284 -0.6624 0 CFG=2
M  V30 13 C -1.4002 -1.5484 -0.2068 0
M  V30 14 C -3.2135 -1.0889 -1.8886 0
M  V30 15 N -0.5277 -1.9332 -1.3172 0
M  V30 16 C -2.269 -1.5583 -2.9978 0
M  V30 17 C 0.8495 -1.7519 -1.3785 0
M  V30 18 C -1.2193 -2.5276 -2.4582 0
M  V30 19 O 1.52 -2.2183 -2.3054 0
M  V30 20 C 1.5321 -0.9808 -0.2355 0
M  V30 21 N 2.716 -0.2982 -0.7186 0
M  V30 22 C 2.7048 0.9507 -1.2708 0
M  V30 23 C 4.0042 -0.9029 -0.8095 0
M  V30 24 O 1.7406 1.6945 -1.3496 0
M  V30 25 O 3.954 1.2581 -1.7289 0
M  V30 26 C 4.7516 0.066 -1.6956 0
M  V30 27 H -0.3 4.4636 4.0253 0
M  V30 28 H 6.0E-4 0.6201 6.4241 0
M  V30 29 H -0.6974 0.1194 3.9329 0
M  V30 30 H -2.5982 1.4586 -1.5155 0
M  V30 31 H -0.9777 0.7817 -1.6068 0
M  V30 32 H -3.1954 -0.4171 0.1474 0
M  V30 33 H -1.9035 -2.4665 0.1239 0
M  V30 34 H -0.8337 -1.2017 0.6567 0
M  V30 35 H -3.9112 -0.3425 -2.2858 0
M  V30 36 H -3.8238 -1.9424 -1.5651 0
M  V30 37 H -2.8452 -2.0419 -3.7943 0
M  V30 38 H -1.7709 -0.6892 -3.4441 0
M  V30 39 H -0.5234 -2.7941 -3.2593 0
M  V30 40 H -1.6927 -3.4544 -2.1133 0
M  V30 41 H 1.8063 -1.6735 0.5649 0
M  V30 42 H 0.867 -0.211 0.1549 0
M  V30 43 H 3.9577 -1.9075 -1.2377 0
M  V30 44 H 4.4356 -0.9557 0.1948 0
M  V30 45 H 4.8512 -0.3089 -2.7196 0
M  V30 46 H 5.7475 0.2965 -1.3065 0
M  V30 END ATOM
M  V30 BEGIN BOND
M  V30 1 1 1 2
M  V30 2 1 1 3
M  V30 3 2 2 4
M  V30 4 2 3 5
M  V30 5 1 4 6
M  V30 6 2 6 7
M  V30 7 1 6 8
M  V30 8 1 7 9
M  V30 9 2 8 10
M  V30 10 1 10 11
M  V30 11 1 11 12
M  V30 12 1 12 13
M  V30 13 1 12 14
M  V30 14 1 13 15
M  V30 15 1 14 16
M  V30 16 1 15 17
M  V30 17 1 15 18
M  V30 18 2 17 19
M  V30 19 1 17 20
M  V30 20 1 20 21
M  V30 21 1 21 22
M  V30 22 1 21 23
M  V30 23 2 22 24
M  V30 24 1 22 25
M  V30 25 1 23 26
M  V30 26 1 4 5
M  V30 27 1 9 10
M  V30 28 1 16 18
M  V30 29 1 25 26
M  V30 30 1 2 27
M  V30 31 1 3 28
M  V30 32 1 5 29
M  V30 33 1 11 30
M  V30 34 1 11 31
M  V30 35 1 12 32
M  V30 36 1 13 33
M  V30 37 1 13 34
M  V30 38 1 14 35
M  V30 39 1 14 36
M  V30 40 1 16 37
M  V30 41 1 16 38
M  V30 42 1 18 39
M  V30 43 1 18 40
M  V30 44 1 20 41
M  V30 45 1 20 42
M  V30 46 1 23 43
M  V30 47 1 23 44
M  V30 48 1 26 45
M  V30 49 1 26 46
M  V30 END BOND
M  V30 BEGIN COLLECTION
M  V30 MDLV30/STEABS ATOMS=(1 12)
M  V30 END COLLECTION
M  V30 END CTAB
M  END
>  <Column 1>
2831

>  <level_0>
4071

>  <index>
4071

>  <Unnamed: 0>
4071

>  <NO.>
4083

>  <Name>
bacitracin

>  <IUPAC_name>
3-[2-oxo-2-[(3r)-3-[(3-thiophen-3-yl-1-2-4-oxadiazol-5-yl)methyl]piperidin-1-yl]ethyl]-1-3-oxazolidin-2-one

>  <SMILES>
O=C(CN1CCOC1=O)N1CCC[C@H](Cc2nc(-c3ccsc3)no2)C1

>  <CID>
100065281

>  <logBB>


>  <BBB+/BBB->
BBB-

>  <Inchi>
InChI=1S/C17H20N4O4S/c22-15(10-21-5-6-24-17(21)23)20-4-1-2-12(9-20)8-14-18-16(19-25-14)13-3-7-26-11-13/h3-7-11-12H-1-2-4-6-8-10H2/t12-/m1/s1

>  <threshold>
-1

>  <reference>
R16|R10|

>  <group>
B

>  <Class>
1

>  <ABC>
20.6

>  <ABCGG>
16.82

>  <nAcid>
0

>  <nBase>
0

>  <nAromAtom>
10

>  <nAromBond>
10

>  <nAtom>
46

>  <nHeavyAtom>
26

>  <nSpiro>
0

>  <nBridgehead>
0

>  <nHetero>
9

>  <nN>
4

>  <nO>
4

>  <nF>
0

>  <BalabanJ>
1.22

>  <BertzCT>
775.58

>  <nBonds>
49

>  <nBondsO>
29

>  <nBondsS>
37

>  <nBondsD>
2

>  <nBondsT>
0

>  <nBondsA>
10

>  <nBondsM>
12

>  <nBondsKS>
43

>  <nBondsKD>
6

>  <RNCG>
0.18

>  <RPCG>
0.17

>  <FCSP3>
0.53

>  <SZ>
33

>  <Sm>
31.34

>  <Sv>
29.5

>  <Sse>
46.93

>  <Sp>
31.28

>  <Si>
52.07

>  <MZ>
0.72

>  <Mm>
0.68

>  <Mv>
0.64

>  <Mse>
1.02

>  <Mp>
0.68

>  <Mi>
1.13

>  <NsCH3>
0

>  <NdCH2>
0

>  <NssCH2>
8

>  <NtCH>
0

>  <NdsCH>
0

>  <NaaCH>
3

>  <NsssCH>
1

>  <NddC>
0

>  <NtsC>
0

>  <NdssC>
2

>  <NaasC>
3

>  <NaaaC>
0

>  <NssssC>
0

>  <NsNH3>
0

>  <NsNH2>
0

>  <NssNH2>
0

>  <NdNH>
0

>  <NssNH>
0

>  <NaaNH>
0

>  <NtN>
0

>  <NsssNH>
0

>  <NdsN>
0

>  <NaaN>
2

>  <NsssN>
2

>  <NddsN>
0

>  <NaasN>
0

>  <NssssN>
0

>  <NsOH>
0

>  <NdO>
2

>  <NssO>
1

>  <NaaO>
1

>  <NsF>
0

>  <NsSiH3>
0

>  <NssSiH2>
0

>  <NsssSiH>
0

>  <NssssSi>
0

>  <NsPH2>
0

>  <NssPH>
0

>  <NsssP>
0

>  <NdsssP>
0

>  <NsssssP>
0

>  <NsSH>
0

>  <NdS>
0

>  <NssS>
0

>  <NaaS>
1

>  <NdssS>
0

>  <NddssS>
0

>  <NsCl>
0

>  <NsBr>
0

>  <NsI>
0

>  <fragCpx>
191.09

>  <fMF>
0.52

>  <nHBAcc>
7

>  <nHBDon>
0

>  <Kier1>
19.32

>  <Kier2>
9

>  <Lipinski>
1

>  <GhoseFilter>
1

>  <FilterItLogS>
-3.19

>  <VMcGowan>
260.9

>  <LabuteASA>
154.27

>  <PEOE_VSA1>
14.16

>  <PEOE_VSA2>
9.69

>  <PEOE_VSA3>
4.79

>  <PEOE_VSA4>
16.32

>  <PEOE_VSA5>
0

>  <PEOE_VSA6>
5.16

>  <PEOE_VSA7>
30.21

>  <PEOE_VSA8>
30.45

>  <PEOE_VSA9>
6.54

>  <PEOE_VSA10>
13.15

>  <PEOE_VSA11>
0

>  <PEOE_VSA12>
17.62

>  <PEOE_VSA13>
0

>  <SMR_VSA1>
18.85

>  <SMR_VSA2>
0

>  <SMR_VSA3>
19.94

>  <SMR_VSA4>
5.92

>  <SMR_VSA5>
19.26

>  <SMR_VSA6>
32.79

>  <SMR_VSA7>
22.72

>  <SMR_VSA8>
0

>  <SMR_VSA9>
11.39

>  <SlogP_VSA1>
0

>  <SlogP_VSA2>
64.73

>  <SlogP_VSA3>
15.95

>  <SlogP_VSA4>
5.92

>  <SlogP_VSA5>
18.73

>  <SlogP_VSA6>
21.35

>  <SlogP_VSA7>
0

>  <SlogP_VSA8>
11.39

>  <SlogP_VSA9>
0

>  <SlogP_VSA10>
4.79

>  <SlogP_VSA11>
0

>  <EState_VSA1>
6.09

>  <EState_VSA2>
18.37

>  <EState_VSA3>
37.83

>  <EState_VSA4>
24.95

>  <EState_VSA5>
4.9

>  <EState_VSA6>
11.34

>  <EState_VSA7>
21.73

>  <EState_VSA8>
10.14

>  <EState_VSA9>
9.26

>  <EState_VSA10>
9.59

>  <VSA_EState1>
10.26

>  <VSA_EState2>
31.74

>  <VSA_EState3>
8

>  <VSA_EState4>
0.96

>  <VSA_EState5>
1.47

>  <VSA_EState6>
1.96

>  <VSA_EState7>
2.21

>  <VSA_EState8>
2.31

>  <VSA_EState9>
0

>  <apol>
52.23

>  <bpol>
32.29

>  <nRing>
4

>  <nHRing>
4

>  <naRing>
2

>  <naHRing>
2

>  <nARing 2>
2

>  <nAHRing 2>
2

>  <nFRing>
0

>  <nFHRing>
0

>  <nFaRing>
0

>  <nFaHRing>
0

>  <nFARing 2>
0

>  <nFAHRing 2>
0

>  <nRot>
5

>  <SLogP>
2.03

>  <SMR>
93.54

>  <TopoPSA(NO)>
88.77

>  <TopoPSA>
117.01

>  <JGI1>
0.17

>  <JGI2>
0.07

>  <JGI3>
0.04

>  <JGI4>
0.03

>  <JGI5>
0.02

>  <Diameter>
14

>  <Radius>
7

>  <TMWC10>
130.28

>  <TSRW10>
77.4

>  <MW>
376.12

>  <AMW>
8.18

>  <WPath>
1894

>  <WPol>
34

>  <Zagreb1>
138

>  <Zagreb2>
161

>  <mZagreb2>
5.67

>  <yes>


>  <nAR-cont>
1

>  <nHA-cont>
0.892715677

>  <MWHBN>
0.360939844

>  <MWHBN-cont>
0.628824931

>  <TPSA-cont>
0.183197541

>  <pka_cont>
0.97

>  <yes.1>


>  <BBB_SCORE>
3.687348157

>  <MMFF94 Energy>
-3.2297

$$$$
Compound 2320
Actelion Java MolfileCreator 2.0

  0  0  0  0  0  0              0 V3000
M  V30 BEGIN CTAB
M  V30 COUNTS 43 45 0 0 0
M  V30 BEGIN ATOM
M  V30 1 O -0.9542 0.3179 -1.2724 0
M  V30 2 C 0.248 0.082 -1.3169 0
M  V30 3 N 1.2022 0.9775 -0.8917 0
M  V30 4 C 0.8398 -1.2024 -1.8652 0
M  V30 5 C 0.8357 2.2577 -0.3038 0
M  V30 6 C -0.1882 -2.3232 -2.0076 0 CFG=2
M  V30 7 C 0.4319 2.1197 1.1756 0 CFG=1
M  V30 8 C -0.8582 -2.8269 -0.7027 0 CFG=1
M  V30 9 C 0.42 -3.6198 -2.588 0
M  V30 10 O 1.5718 1.7025 1.9429 0
M  V30 11 C -0.1087 3.4184 1.7355 0
M  V30 12 C -1.4116 -4.1789 -1.165 0
M  V30 13 C 0.1802 -3.2761 0.3384 0
M  V30 14 C -0.0388 -4.6977 -1.5891 0 CFG=2
M  V30 15 C -1.4921 3.5922 1.8888 0
M  V30 16 C 0.7476 4.4751 2.0832 0
M  V30 17 C 0.773 -4.5443 -0.2912 0
M  V30 18 C -2.0053 4.7895 2.3906 0
M  V30 19 C 0.2323 5.671 2.5853 0
M  V30 20 C -1.1435 5.8271 2.7401 0
M  V30 21 H 2.176 0.7057 -0.8613 0
M  V30 22 H 1.2541 -0.9662 -2.8535 0
M  V30 23 H 1.6835 -1.5115 -1.2392 0
M  V30 24 H 0.0164 2.6875 -0.8916 0
M  V30 25 H 1.7133 2.9054 -0.4087 0
M  V30 26 H -0.98 -1.982 -2.6897 0
M  V30 27 H -0.3179 1.3283 1.2913 0
M  V30 28 H -1.6093 -2.1438 -0.3004 0
M  V30 29 H -0.0015 -3.8143 -3.581 0
M  V30 30 H 1.51 -3.5837 -2.6848 0
M  V30 31 H 1.3321 1.8374 2.8767 0
M  V30 32 H -1.863 -4.7618 -0.3551 0
M  V30 33 H -2.1199 -4.0972 -1.9962 0
M  V30 34 H 0.9397 -2.5229 0.5604 0
M  V30 35 H -0.3143 -3.5294 1.2839 0
M  V30 36 H -0.0205 -5.7091 -1.9993 0
M  V30 37 H -2.1814 2.7961 1.612 0
M  V30 38 H 1.8243 4.3696 1.9635 0
M  V30 39 H 0.6163 -5.4023 0.3719 0
M  V30 40 H 1.8473 -4.4479 -0.477 0
M  V30 41 H -3.0793 4.9134 2.5049 0
M  V30 42 H 0.9044 6.482 2.8534 0
M  V30 43 H -1.545 6.7593 3.1292 0
M  V30 END ATOM
M  V30 BEGIN BOND
M  V30 1 2 1 2
M  V30 2 1 2 3
M  V30 3 1 2 4
M  V30 4 1 3 5
M  V30 5 1 4 6
M  V30 6 1 5 7
M  V30 7 1 6 8
M  V30 8 1 6 9
M  V30 9 1 7 10
M  V30 10 1 7 11
M  V30 11 1 8 12
M  V30 12 1 8 13
M  V30 13 1 9 14
M  V30 14 2 11 15
M  V30 15 1 11 16
M  V30 16 1 13 17
M  V30 17 1 15 18
M  V30 18 2 16 19
M  V30 19 2 18 20
M  V30 20 1 12 14
M  V30 21 1 14 17
M  V30 22 1 19 20
M  V30 23 1 3 21
M  V30 24 1 4 22
M  V30 25 1 4 23
M  V30 26 1 5 24
M  V30 27 1 5 25
M  V30 28 1 6 26
M  V30 29 1 7 27
M  V30 30 1 8 28
M  V30 31 1 9 29
M  V30 32 1 9 30
M  V30 33 1 10 31
M  V30 34 1 12 32
M  V30 35 1 12 33
M  V30 36 1 13 34
M  V30 37 1 13 35
M  V30 38 1 14 36
M  V30 39 1 15 37
M  V30 40 1 16 38
M  V30 41 1 17 39
M  V30 42 1 17 40
M  V30 43 1 18 41
M  V30 44 1 19 42
M  V30 45 1 20 43
M  V30 END BOND
M  V30 BEGIN COLLECTION
M  V30 MDLV30/STEABS ATOMS=(4 6 7 8 14)
M  V30 END COLLECTION
M  V30 END CTAB
M  END
>  <Column 1>
2832

>  <level_0>
4072

>  <index>
4072

>  <Unnamed: 0>
4072

>  <NO.>
4084

>  <Name>
pindolol

>  <IUPAC_name>
2-[(1r-2r-4s)-2-bicyclo[2.2.1]heptanyl]-n-[(2s)-2-hydroxy-2-phenylethyl]acetamide

>  <SMILES>
O=C(C[C@H]1C[C@H]2CC[C@@H]1C2)NC[C@@H](O)c1ccccc1

>  <CID>
100004828

>  <logBB>


>  <BBB+/BBB->
BBB+

>  <Inchi>
InChI=1S/C17H23NO2/c19-16(13-4-2-1-3-5-13)11-18-17(20)10-15-9-12-6-7-14(15)8-12/h1-5-12-14-16-19H-6-11H2-(H-18-20)/t12--14+-15+-16+/m0/s1

>  <threshold>
-1

>  <reference>
R16|R10|

>  <group>
B

>  <Class>
1

>  <ABC>
15.69

>  <ABCGG>
13.22

>  <nAcid>
0

>  <nBase>
0

>  <nAromAtom>
6

>  <nAromBond>
6

>  <nAtom>
43

>  <nHeavyAtom>
20

>  <nSpiro>
0

>  <nBridgehead>
2

>  <nHetero>
3

>  <nN>
1

>  <nO>
2

>  <nF>
0

>  <BalabanJ>
1.35

>  <BertzCT>
459.32

>  <nBonds>
45

>  <nBondsO>
22

>  <nBondsS>
38

>  <nBondsD>
1

>  <nBondsT>
0

>  <nBondsA>
6

>  <nBondsM>
7

>  <nBondsKS>
41

>  <nBondsKD>
4

>  <RNCG>
0.24

>  <RPCG>
0.13

>  <FCSP3>
0.59

>  <SZ>
24.67

>  <Sm>
22.76

>  <Sv>
25.42

>  <Sse>
42.53

>  <Sp>
27.8

>  <Si>
48.49

>  <MZ>
0.57

>  <Mm>
0.53

>  <Mv>
0.59

>  <Mse>
0.99

>  <Mp>
0.65

>  <Mi>
1.13

>  <NsCH3>
0

>  <NdCH2>
0

>  <NssCH2>
6

>  <NtCH>
0

>  <NdsCH>
0

>  <NaaCH>
5

>  <NsssCH>
4

>  <NddC>
0

>  <NtsC>
0

>  <NdssC>
1

>  <NaasC>
1

>  <NaaaC>
0

>  <NssssC>
0

>  <NsNH3>
0

>  <NsNH2>
0

>  <NssNH2>
0

>  <NdNH>
0

>  <NssNH>
1

>  <NaaNH>
0

>  <NtN>
0

>  <NsssNH>
0

>  <NdsN>
0

>  <NaaN>
0

>  <NsssN>
0

>  <NddsN>
0

>  <NaasN>
0

>  <NssssN>
0

>  <NsOH>
1

>  <NdO>
1

>  <NssO>
0

>  <NaaO>
0

>  <NsF>
0

>  <NsSiH3>
0

>  <NssSiH2>
0

>  <NsssSiH>
0

>  <NssssSi>
0

>  <NsPH2>
0

>  <NssPH>
0

>  <NsssP>
0

>  <NdsssP>
0

>  <NsssssP>
0

>  <NsSH>
0

>  <NdS>
0

>  <NssS>
0

>  <NaaS>
0

>  <NdssS>
0

>  <NddssS>
0

>  <NsCl>
0

>  <NsBr>
0

>  <NsI>
0

>  <fragCpx>
104.03

>  <fMF>
0.42

>  <nHBAcc>
2

>  <nHBDon>
2

>  <Kier1>
14.92

>  <Kier2>
6.84

>  <Lipinski>
1

>  <GhoseFilter>
1

>  <FilterItLogS>
-3.17

>  <VMcGowan>
222.33

>  <LabuteASA>
119.94

>  <PEOE_VSA1>
10.42

>  <PEOE_VSA2>
4.79

>  <PEOE_VSA3>
0

>  <PEOE_VSA4>
0

>  <PEOE_VSA5>
0

>  <PEOE_VSA6>
36.75

>  <PEOE_VSA7>
42.58

>  <PEOE_VSA8>
12.97

>  <PEOE_VSA9>
6.1

>  <PEOE_VSA10>
0

>  <PEOE_VSA11>
0

>  <PEOE_VSA12>
5.91

>  <PEOE_VSA13>
0

>  <SMR_VSA1>
9.9

>  <SMR_VSA2>
0

>  <SMR_VSA3>
5.32

>  <SMR_VSA4>
17.75

>  <SMR_VSA5>
38.21

>  <SMR_VSA6>
6.54

>  <SMR_VSA7>
35.9

>  <SMR_VSA8>
0

>  <SMR_VSA9>
0

>  <SlogP_VSA1>
5.32

>  <SlogP_VSA2>
17.56

>  <SlogP_VSA3>
4.79

>  <SlogP_VSA4>
17.75

>  <SlogP_VSA5>
43.77

>  <SlogP_VSA6>
30.33

>  <SlogP_VSA7>
0

>  <SlogP_VSA8>
0

>  <SlogP_VSA9>
0

>  <SlogP_VSA10>
0

>  <SlogP_VSA11>
0

>  <EState_VSA1>
6.1

>  <EState_VSA2>
5.91

>  <EState_VSA3>
18.88

>  <EState_VSA4>
17.4

>  <EState_VSA5>
25.68

>  <EState_VSA6>
0

>  <EState_VSA7>
30.33

>  <EState_VSA8>
5.32

>  <EState_VSA9>
0

>  <EState_VSA10>
9.9

>  <VSA_EState1>
0

>  <VSA_EState2>
11.99

>  <VSA_EState3>
12.9

>  <VSA_EState4>
0.85

>  <VSA_EState5>
2.35

>  <VSA_EState6>
9.48

>  <VSA_EState7>
5.29

>  <VSA_EState8>
0.31

>  <VSA_EState9>
0

>  <apol>
46.43

>  <bpol>
24.51

>  <nRing>
3

>  <nHRing>
0

>  <naRing>
1

>  <naHRing>
0

>  <nARing 2>
2

>  <nAHRing 2>
0

>  <nFRing>
1

>  <nFHRing>
0

>  <nFaRing>
0

>  <nFaHRing>
0

>  <nFARing 2>
1

>  <nFAHRing 2>
0

>  <nRot>
5

>  <SLogP>
2.66

>  <SMR>
77.97

>  <TopoPSA(NO)>
49.33

>  <TopoPSA>
49.33

>  <JGI1>
0.18

>  <JGI2>
0.07

>  <JGI3>
0.04

>  <JGI4>
0.03

>  <JGI5>
0.02

>  <Diameter>
12

>  <Radius>
6

>  <TMWC10>
114.56

>  <TSRW10>
69.22

>  <MW>
273.17

>  <AMW>
6.35

>  <WPath>
936

>  <WPol>
23

>  <Zagreb1>
104

>  <Zagreb2>
120

>  <mZagreb2>
4.39

>  <yes>


>  <nAR-cont>
1

>  <nHA-cont>
0.999629945

>  <MWHBN>
0.242015672

>  <MWHBN-cont>
0.972172285

>  <TPSA-cont>
0.655645968

>  <pka_cont>
0.97

>  <yes.1>


>  <BBB_SCORE>
5.254180308

>  <MMFF94 Energy>
46.188

$$$$
Compound 2321
Actelion Java MolfileCreator 2.0

  0  0  0  0  0  0              0 V3000
M  V30 BEGIN CTAB
M  V30 COUNTS 45 48 0 0 0
M  V30 BEGIN ATOM
M  V30 1 S -1.1337 1.2958 4.0536 0
M  V30 2 C -0.9737 -0.1715 3.2069 0
M  V30 3 C 0.2752 1.8782 3.2692 0
M  V30 4 N 0.0485 -0.2687 2.3836 0
M  V30 5 N -1.905 -1.2054 3.3888 0
M  V30 6 C 0.7742 0.9153 2.4083 0
M  V30 7 C -1.8548 -2.4296 2.7363 0
M  V30 8 C -3.0252 -1.2407 4.2061 0
M  V30 9 C 1.9803 1.0403 1.5378 0
M  V30 10 C -2.9161 -3.2105 3.1336 0
M  V30 11 C -3.6582 -2.457 4.0651 0
M  V30 12 C 1.7201 2.0063 0.394 0
M  V30 13 O 2.03 3.194 0.536 0
M  V30 14 N 1.1346 1.5356 -0.7762 0
M  V30 15 C 0.5938 0.1718 -0.9812 0 CFG=2
M  V30 16 C 0.836 2.4913 -1.8459 0
M  V30 17 C 1.3369 -0.5757 -2.0808 0
M  V30 18 C -0.9401 0.2946 -1.1311 0
M  V30 19 C -0.6735 2.6506 -2.0013 0
M  V30 20 C 2.732 -0.5298 -2.1343 0
M  V30 21 C 0.713 -1.3917 -3.0318 0
M  V30 22 C -1.3506 1.2973 -2.215 0
M  V30 23 N 3.4967 -1.1847 -3.0397 0
M  V30 24 C 1.4725 -2.0766 -3.9799 0
M  V30 25 C 2.8478 -1.9411 -3.9452 0
M  V30 26 H 0.6584 2.872 3.4589 0
M  V30 27 H -1.0508 -2.6326 2.0405 0
M  V30 28 H -3.2887 -0.3965 4.8284 0
M  V30 29 H 2.3201 0.07 1.1663 0
M  V30 30 H 2.8151 1.4376 2.1291 0
M  V30 31 H -3.1268 -4.2148 2.7886 0
M  V30 32 H -4.5584 -2.7639 4.5828 0
M  V30 33 H 0.7545 -0.4355 -0.0891 0
M  V30 34 H 1.2801 2.1199 -2.776 0
M  V30 35 H 1.2875 3.4681 -1.6464 0
M  V30 36 H -1.3526 0.6499 -0.1765 0
M  V30 37 H -1.4082 -0.678 -1.3154 0
M  V30 38 H -0.896 3.3161 -2.8425 0
M  V30 39 H -1.0856 3.119 -1.0986 0
M  V30 40 H 3.3048 0.0607 -1.4234 0
M  V30 41 H -0.3652 -1.5164 -3.0575 0
M  V30 42 H -1.0876 0.9116 -3.2062 0
M  V30 43 H -2.439 1.4253 -2.2041 0
M  V30 44 H 0.9993 -2.7063 -4.7251 0
M  V30 45 H 3.4815 -2.4552 -4.6617 0
M  V30 END ATOM
M  V30 BEGIN BOND
M  V30 1 1 1 2
M  V30 2 1 1 3
M  V30 3 2 2 4
M  V30 4 1 2 5
M  V30 5 2 3 6
M  V30 6 1 5 7
M  V30 7 1 5 8
M  V30 8 1 6 9
M  V30 9 2 7 10
M  V30 10 2 8 11
M  V30 11 1 9 12
M  V30 12 2 12 13
M  V30 13 1 12 14
M  V30 14 1 14 15
M  V30 15 1 14 16
M  V30 16 1 15 17
M  V30 17 1 15 18
M  V30 18 1 16 19
M  V30 19 2 17 20
M  V30 20 1 17 21
M  V30 21 1 18 22
M  V30 22 1 20 23
M  V30 23 2 21 24
M  V30 24 2 23 25
M  V30 25 1 4 6
M  V30 26 1 10 11
M  V30 27 1 19 22
M  V30 28 1 24 25
M  V30 29 1 3 26
M  V30 30 1 7 27
M  V30 31 1 8 28
M  V30 32 1 9 29
M  V30 33 1 9 30
M  V30 34 1 10 31
M  V30 35 1 11 32
M  V30 36 1 15 33
M  V30 37 1 16 34
M  V30 38 1 16 35
M  V30 39 1 18 36
M  V30 40 1 18 37
M  V30 41 1 19 38
M  V30 42 1 19 39
M  V30 43 1 20 40
M  V30 44 1 21 41
M  V30 45 1 22 42
M  V30 46 1 22 43
M  V30 47 1 24 44
M  V30 48 1 25 45
M  V30 END BOND
M  V30 BEGIN COLLECTION
M  V30 MDLV30/STEABS ATOMS=(1 15)
M  V30 END COLLECTION
M  V30 END CTAB
M  END
>  <Column 1>
2833

>  <level_0>
4073

>  <index>
4073

>  <Unnamed: 0>
4073

>  <NO.>
4085

>  <Name>
moclobemide

>  <IUPAC_name>
1-[(2s)-2-pyridin-3-ylpiperidin-1-yl]-2-(2-pyrrol-1-yl-1-3-thiazol-4-yl)ethanone

>  <SMILES>
O=C(Cc1csc(-n2cccc2)n1)N1CCCC[C@H]1c1cccnc1

>  <CID>
100004235

>  <logBB>


>  <BBB+/BBB->
BBB+

>  <Inchi>
InChI=1S/C19H20N4OS/c24-18(12-16-14-25-19(21-16)22-9-3-4-10-22)23-11-2-1-7-17(23)15-6-5-8-20-13-15/h3-6-8-10-13-14-17H-1-2-7-11-12H2/t17-/m0/s1

>  <threshold>
-1

>  <reference>
R16|R10|

>  <group>
B

>  <Class>
-1

>  <ABC>
19.75

>  <ABCGG>
16.01

>  <nAcid>
0

>  <nBase>
0

>  <nAromAtom>
16

>  <nAromBond>
16

>  <nAtom>
45

>  <nHeavyAtom>
25

>  <nSpiro>
0

>  <nBridgehead>
0

>  <nHetero>
6

>  <nN>
4

>  <nO>
1

>  <nF>
0

>  <BalabanJ>
1.3

>  <BertzCT>
828.25

>  <nBonds>
48

>  <nBondsO>
28

>  <nBondsS>
31

>  <nBondsD>
1

>  <nBondsT>
0

>  <nBondsA>
16

>  <nBondsM>
17

>  <nBondsKS>
40

>  <nBondsKD>
8

>  <RNCG>
0.19

>  <RPCG>
0.13

>  <FCSP3>
0.32

>  <SZ>
31

>  <Sm>
29.34

>  <Sv>
29.35

>  <Sse>
44.94

>  <Sp>
31.84

>  <Si>
50.45

>  <MZ>
0.69

>  <Mm>
0.65

>  <Mv>
0.65

>  <Mse>
1

>  <Mp>
0.71

>  <Mi>
1.12

>  <NsCH3>
0

>  <NdCH2>
0

>  <NssCH2>
5

>  <NtCH>
0

>  <NdsCH>
0

>  <NaaCH>
9

>  <NsssCH>
1

>  <NddC>
0

>  <NtsC>
0

>  <NdssC>
1

>  <NaasC>
3

>  <NaaaC>
0

>  <NssssC>
0

>  <NsNH3>
0

>  <NsNH2>
0

>  <NssNH2>
0

>  <NdNH>
0

>  <NssNH>
0

>  <NaaNH>
0

>  <NtN>
0

>  <NsssNH>
0

>  <NdsN>
0

>  <NaaN>
2

>  <NsssN>
1

>  <NddsN>
0

>  <NaasN>
1

>  <NssssN>
0

>  <NsOH>
0

>  <NdO>
1

>  <NssO>
0

>  <NaaO>
0

>  <NsF>
0

>  <NsSiH3>
0

>  <NssSiH2>
0

>  <NsssSiH>
0

>  <NssssSi>
0

>  <NsPH2>
0

>  <NssPH>
0

>  <NsssP>
0

>  <NdsssP>
0

>  <NsssssP>
0

>  <NsSH>
0

>  <NdS>
0

>  <NssS>
0

>  <NaaS>
1

>  <NdssS>
0

>  <NddssS>
0

>  <NsCl>
0

>  <NsBr>
0

>  <NsI>
0

>  <fragCpx>
184.06

>  <fMF>
0.53

>  <nHBAcc>
5

>  <nHBDon>
0

>  <Kier1>
18.37

>  <Kier2>
8.79

>  <Lipinski>
1

>  <GhoseFilter>
1

>  <FilterItLogS>
-3.78

>  <VMcGowan>
262.87

>  <LabuteASA>
150.51

>  <PEOE_VSA1>
9.47

>  <PEOE_VSA2>
9.78

>  <PEOE_VSA3>
4.98

>  <PEOE_VSA4>
0

>  <PEOE_VSA5>
11.34

>  <PEOE_VSA6>
6.07

>  <PEOE_VSA7>
43.03

>  <PEOE_VSA8>
36.71

>  <PEOE_VSA9>
18.16

>  <PEOE_VSA10>
0

>  <PEOE_VSA11>
5.13

>  <PEOE_VSA12>
5.91

>  <PEOE_VSA13>
0

>  <SMR_VSA1>
4.79

>  <SMR_VSA2>
0

>  <SMR_VSA3>
19.43

>  <SMR_VSA4>
0

>  <SMR_VSA5>
31.73

>  <SMR_VSA6>
6.54

>  <SMR_VSA7>
65.69

>  <SMR_VSA8>
0

>  <SMR_VSA9>
5.13

>  <SlogP_VSA1>
0

>  <SlogP_VSA2>
31.89

>  <SlogP_VSA3>
11.22

>  <SlogP_VSA4>
0

>  <SlogP_VSA5>
36.56

>  <SlogP_VSA6>
54.43

>  <SlogP_VSA7>
0

>  <SlogP_VSA8>
5.13

>  <SlogP_VSA9>
0

>  <SlogP_VSA10>
0

>  <SlogP_VSA11>
0

>  <EState_VSA1>
0

>  <EState_VSA2>
11.95

>  <EState_VSA3>
6.42

>  <EState_VSA4>
42.2

>  <EState_VSA5>
0

>  <EState_VSA6>
17.53

>  <EState_VSA7>
51.64

>  <EState_VSA8>
16.03

>  <EState_VSA9>
0

>  <EState_VSA10>
4.79

>  <VSA_EState1>
1.97

>  <VSA_EState2>
23.74

>  <VSA_EState3>
2.88

>  <VSA_EState4>
1.97

>  <VSA_EState5>
0.15

>  <VSA_EState6>
8.08

>  <VSA_EState7>
11.16

>  <VSA_EState8>
0.81

>  <VSA_EState9>
0

>  <apol>
53.17

>  <bpol>
29.09

>  <nRing>
4

>  <nHRing>
4

>  <naRing>
3

>  <naHRing>
3

>  <nARing 2>
1

>  <nAHRing 2>
1

>  <nFRing>
0

>  <nFHRing>
0

>  <nFaRing>
0

>  <nFaHRing>
0

>  <nFARing 2>
0

>  <nFAHRing 2>
0

>  <nRot>
4

>  <SLogP>
3.63

>  <SMR>
97.69

>  <TopoPSA(NO)>
51.02

>  <TopoPSA>
79.26

>  <JGI1>
0.13

>  <JGI2>
0.06

>  <JGI3>
0.04

>  <JGI4>
0.03

>  <JGI5>
0.02

>  <Diameter>
13

>  <Radius>
7

>  <TMWC10>
128.16

>  <TSRW10>
75.05

>  <MW>
352.14

>  <AMW>
7.83

>  <WPath>
1592

>  <WPol>
35

>  <Zagreb1>
132

>  <Zagreb2>
155

>  <mZagreb2>
5.53

>  <yes>


>  <nAR-cont>
0.816016

>  <nHA-cont>
0.921834225

>  <MWHBN>
0.266447914

>  <MWHBN-cont>
0.928002848

>  <TPSA-cont>
0.446715982

>  <pka_cont>
0.97

>  <yes.1>


>  <BBB_SCORE>
4.508286461

>  <MMFF94 Energy>
59.888

$$$$
Compound 2322
Actelion Java MolfileCreator 2.0

  0  0  0  0  0  0              0 V3000
M  V30 BEGIN CTAB
M  V30 COUNTS 57 60 0 0 0
M  V30 BEGIN ATOM
M  V30 1 S 4.8511 -1.0495 -2.1 0
M  V30 2 C 3.5736 0.223 -2.2648 0 CFG=1
M  V30 3 C 4.5196 -1.7786 -3.7121 0
M  V30 4 N 2.9623 0.0545 -3.5657 0
M  V30 5 C 2.5806 0.1604 -1.1191 0
M  V30 6 C 3.437 -0.9598 -4.371 0
M  V30 7 C 1.965 1.0027 -4.0442 0
M  V30 8 C 1.6464 -0.8848 -1.0039 0
M  V30 9 C 2.5926 1.1586 -0.1317 0
M  V30 10 O 3.0319 -1.1932 -5.5052 0
M  V30 11 C 2.5403 2.3826 -4.2493 0
M  V30 12 C 0.738 -0.9231 0.0594 0
M  V30 13 C 1.6848 1.1222 0.9303 0
M  V30 14 C 2.2082 3.4332 -3.3818 0
M  V30 15 C 3.4347 2.6258 -5.3018 0
M  V30 16 C 0.7445 0.0898 1.0244 0
M  V30 17 C 2.7616 4.7014 -3.5645 0
M  V30 18 C 3.9862 3.8946 -5.4822 0
M  V30 19 C -0.1976 0.0988 2.1786 0
M  V30 20 C 3.6501 4.9312 -4.6135 0
M  V30 21 O 0.1121 0.6676 3.2198 0
M  V30 22 N -1.4119 -0.5285 1.9917 0
M  V30 23 C -2.4052 -0.5889 3.0465 0
M  V30 24 C -2.1262 -1.7408 4.0111 0
M  V30 25 C -3.0987 -1.7714 5.1931 0
M  V30 26 C -4.5244 -2.0695 4.7948 0
M  V30 27 C -5.4973 -1.0586 4.8263 0
M  V30 28 C -4.8911 -3.3598 4.3815 0
M  V30 29 C -6.8121 -1.3335 4.4474 0
M  V30 30 C -6.2064 -3.6322 4.0035 0
M  V30 31 C -7.1541 -2.6168 4.0393 0
M  V30 32 F -8.4161 -2.879 3.6749 0
M  V30 33 H 4.0894 1.1895 -2.2648 0
M  V30 34 H 4.1748 -2.809 -3.5946 0
M  V30 35 H 5.4219 -1.7539 -4.328 0
M  V30 36 H 1.5366 0.6577 -4.9926 0
M  V30 37 H 1.1351 1.0284 -3.3291 0
M  V30 38 H 1.6278 -1.6859 -1.741 0
M  V30 39 H 3.314 1.973 -0.1766 0
M  V30 40 H 0.0582 -1.7668 0.1317 0
M  V30 41 H 1.714 1.9027 1.6892 0
M  V30 42 H 1.5156 3.2725 -2.5582 0
M  V30 43 H 3.7034 1.8236 -5.9873 0
M  V30 44 H 2.4981 5.5122 -2.8899 0
M  V30 45 H 4.677 4.0742 -6.302 0
M  V30 46 H 4.0792 5.9198 -4.7561 0
M  V30 47 H -1.6604 -0.9021 1.0871 0
M  V30 48 H -3.3757 -0.7142 2.556 0
M  V30 49 H -2.4134 0.3678 3.5805 0
M  V30 50 H -1.1078 -1.6443 4.4081 0
M  V30 51 H -2.1517 -2.6917 3.4644 0
M  V30 52 H -2.7744 -2.5396 5.9069 0
M  V30 53 H -3.0495 -0.82 5.7377 0
M  V30 54 H -5.2372 -0.0515 5.1461 0
M  V30 55 H -4.1537 -4.1593 4.3559 0
M  V30 56 H -7.57 -0.5571 4.4697 0
M  V30 57 H -6.4977 -4.6277 3.6846 0
M  V30 END ATOM
M  V30 BEGIN BOND
M  V30 1 1 1 2
M  V30 2 1 1 3
M  V30 3 1 2 4
M  V30 4 1 2 5
M  V30 5 1 3 6
M  V30 6 1 4 7
M  V30 7 2 5 8
M  V30 8 1 5 9
M  V30 9 2 6 10
M  V30 10 1 7 11
M  V30 11 1 8 12
M  V30 12 2 9 13
M  V30 13 2 11 14
M  V30 14 1 11 15
M  V30 15 2 12 16
M  V30 16 1 14 17
M  V30 17 2 15 18
M  V30 18 1 16 19
M  V30 19 2 17 20
M  V30 20 2 19 21
M  V30 21 1 19 22
M  V30 22 1 22 23
M  V30 23 1 23 24
M  V30 24 1 24 25
M  V30 25 1 25 26
M  V30 26 2 26 27
M  V30 27 1 26 28
M  V30 28 1 27 29
M  V30 29 2 28 30
M  V30 30 2 29 31
M  V30 31 1 31 32
M  V30 32 1 4 6
M  V30 33 1 13 16
M  V30 34 1 18 20
M  V30 35 1 30 31
M  V30 36 1 2 33
M  V30 37 1 3 34
M  V30 38 1 3 35
M  V30 39 1 7 36
M  V30 40 1 7 37
M  V30 41 1 8 38
M  V30 42 1 9 39
M  V30 43 1 12 40
M  V30 44 1 13 41
M  V30 45 1 14 42
M  V30 46 1 15 43
M  V30 47 1 17 44
M  V30 48 1 18 45
M  V30 49 1 20 46
M  V30 50 1 22 47
M  V30 51 1 23 48
M  V30 52 1 23 49
M  V30 53 1 24 50
M  V30 54 1 24 51
M  V30 55 1 25 52
M  V30 56 1 25 53
M  V30 57 1 27 54
M  V30 58 1 28 55
M  V30 59 1 29 56
M  V30 60 1 30 57
M  V30 END BOND
M  V30 BEGIN COLLECTION
M  V30 MDLV30/STEABS ATOMS=(1 2)
M  V30 END COLLECTION
M  V30 END CTAB
M  END
>  <Column 1>
2834

>  <level_0>
4074

>  <index>
4074

>  <Unnamed: 0>
4074

>  <NO.>
4086

>  <Name>
ipratropium bromide

>  <IUPAC_name>
4-[(2r)-3-benzyl-4-oxo-1-3-thiazolidin-2-yl]-n-[3-(4-fluorophenyl)propyl]benzamide

>  <SMILES>
O=C(NCCCc1ccc(F)cc1)c1ccc([C@H]2SCC(=O)N2Cc2ccccc2)cc1

>  <CID>
100003746

>  <logBB>


>  <BBB+/BBB->
BBB-

>  <Inchi>
InChI=1S/C26H25FN2O2S/c27-23-14-8-19(9-15-23)7-4-16-28-25(31)21-10-12-22(13-11-21)26-29(24(30)18-32-26)17-20-5-2-1-3-6-20/h1-3-5-6-8-15-26H-4-7-16-18H2-(H-28-31)/t26-/m1/s1

>  <threshold>
-1

>  <reference>
R16|R10|

>  <group>
B

>  <Class>
1

>  <ABC>
24.92

>  <ABCGG>
18.07

>  <nAcid>
0

>  <nBase>
0

>  <nAromAtom>
18

>  <nAromBond>
18

>  <nAtom>
57

>  <nHeavyAtom>
32

>  <nSpiro>
0

>  <nBridgehead>
0

>  <nHetero>
6

>  <nN>
2

>  <nO>
2

>  <nF>
1

>  <BalabanJ>
1.14

>  <BertzCT>
1055.45

>  <nBonds>
60

>  <nBondsO>
35

>  <nBondsS>
40

>  <nBondsD>
2

>  <nBondsT>
0

>  <nBondsA>
18

>  <nBondsM>
20

>  <nBondsKS>
49

>  <nBondsKD>
11

>  <RNCG>
0.15

>  <RPCG>
0.11

>  <FCSP3>
0.23

>  <SZ>
39.33

>  <Sm>
37.35

>  <Sv>
37.55

>  <Sse>
57.12

>  <Sp>
40.33

>  <Si>
63.66

>  <MZ>
0.69

>  <Mm>
0.66

>  <Mv>
0.66

>  <Mse>
1

>  <Mp>
0.71

>  <Mi>
1.12

>  <NsCH3>
0

>  <NdCH2>
0

>  <NssCH2>
5

>  <NtCH>
0

>  <NdsCH>
0

>  <NaaCH>
13

>  <NsssCH>
1

>  <NddC>
0

>  <NtsC>
0

>  <NdssC>
2

>  <NaasC>
5

>  <NaaaC>
0

>  <NssssC>
0

>  <NsNH3>
0

>  <NsNH2>
0

>  <NssNH2>
0

>  <NdNH>
0

>  <NssNH>
1

>  <NaaNH>
0

>  <NtN>
0

>  <NsssNH>
0

>  <NdsN>
0

>  <NaaN>
0

>  <NsssN>
1

>  <NddsN>
0

>  <NaasN>
0

>  <NssssN>
0

>  <NsOH>
0

>  <NdO>
2

>  <NssO>
0

>  <NaaO>
0

>  <NsF>
1

>  <NsSiH3>
0

>  <NssSiH2>
0

>  <NsssSiH>
0

>  <NssssSi>
0

>  <NsPH2>
0

>  <NssPH>
0

>  <NsssP>
0

>  <NdsssP>
0

>  <NsssssP>
0

>  <NsSH>
0

>  <NdS>
0

>  <NssS>
1

>  <NaaS>
0

>  <NdssS>
0

>  <NddssS>
0

>  <NsCl>
0

>  <NsBr>
0

>  <NsI>
0

>  <fragCpx>
233.06

>  <fMF>
0.51

>  <nHBAcc>
3

>  <nHBDon>
1

>  <Kier1>
25.1

>  <Kier2>
12.63

>  <Lipinski>
1

>  <GhoseFilter>
1

>  <FilterItLogS>
-7.17

>  <VMcGowan>
336.27

>  <LabuteASA>
191.38

>  <PEOE_VSA1>
10.22

>  <PEOE_VSA2>
9.59

>  <PEOE_VSA3>
4.39

>  <PEOE_VSA4>
0

>  <PEOE_VSA5>
11.76

>  <PEOE_VSA6>
54.6

>  <PEOE_VSA7>
53.8

>  <PEOE_VSA8>
18.65

>  <PEOE_VSA9>
5.75

>  <PEOE_VSA10>
11.19

>  <PEOE_VSA11>
0

>  <PEOE_VSA12>
5.91

>  <PEOE_VSA13>
5.91

>  <SMR_VSA1>
13.98

>  <SMR_VSA2>
0

>  <SMR_VSA3>
10.22

>  <SMR_VSA4>
0

>  <SMR_VSA5>
24.76

>  <SMR_VSA6>
12.3

>  <SMR_VSA7>
106.93

>  <SMR_VSA8>
0

>  <SMR_VSA9>
0

>  <SlogP_VSA1>
5.32

>  <SlogP_VSA2>
29.01

>  <SlogP_VSA3>
17.76

>  <SlogP_VSA4>
5.82

>  <SlogP_VSA5>
38.84

>  <SlogP_VSA6>
78.86

>  <SlogP_VSA7>
0

>  <SlogP_VSA8>
0

>  <SlogP_VSA9>
0

>  <SlogP_VSA10>
4.39

>  <SlogP_VSA11>
0

>  <EState_VSA1>
0

>  <EState_VSA2>
23.01

>  <EState_VSA3>
24.41

>  <EState_VSA4>
29.53

>  <EState_VSA5>
12.13

>  <EState_VSA6>
23.89

>  <EState_VSA7>
59.5

>  <EState_VSA8>
5.32

>  <EState_VSA9>
0

>  <EState_VSA10>
13.98

>  <VSA_EState1>
12.96

>  <VSA_EState2>
26.78

>  <VSA_EState3>
2.89

>  <VSA_EState4>
3.77

>  <VSA_EState5>
0.24

>  <VSA_EState6>
23.9

>  <VSA_EState7>
1.56

>  <VSA_EState8>
1.13

>  <VSA_EState9>
0

>  <apol>
67.35

>  <bpol>
32.67

>  <nRing>
4

>  <nHRing>
1

>  <naRing>
3

>  <naHRing>
0

>  <nARing 2>
1

>  <nAHRing 2>
1

>  <nFRing>
0

>  <nFHRing>
0

>  <nFaRing>
0

>  <nFaHRing>
0

>  <nFARing 2>
0

>  <nFAHRing 2>
0

>  <nRot>
8

>  <SLogP>
4.96

>  <SMR>
125.69

>  <TopoPSA(NO)>
49.41

>  <TopoPSA>
74.71

>  <JGI1>
0.16

>  <JGI2>
0.08

>  <JGI3>
0.04

>  <JGI4>
0.04

>  <JGI5>
0.02

>  <Diameter>
20

>  <Radius>
10

>  <TMWC10>
143.57

>  <TSRW10>
81.59

>  <MW>
448.16

>  <AMW>
7.86

>  <WPath>
3663

>  <WPol>
46

>  <Zagreb1>
164

>  <Zagreb2>
189

>  <mZagreb2>
7.11

>  <yes>


>  <nAR-cont>
0.816016

>  <nHA-cont>
0.658856097

>  <MWHBN>
0.188948499

>  <MWHBN-cont>
0.994965016

>  <TPSA-cont>
0.478477808

>  <pka_cont>
0.97

>  <yes.1>


>  <BBB_SCORE>
4.409275237

>  <MMFF94 Energy>
23.166

$$$$
Compound 2323
Actelion Java MolfileCreator 2.0

  0  0  0  0  0  0              0 V3000
M  V30 BEGIN CTAB
M  V30 COUNTS 47 49 0 0 0
M  V30 BEGIN ATOM
M  V30 1 S -0.6427 -1.527 2.2509 0
M  V30 2 C 0.9579 -2.3415 1.9342 0
M  V30 3 C -1.6395 -2.1634 0.8523 0
M  V30 4 C 0.8896 -3.848 1.8977 0
M  V30 5 C -1.1213 -1.8152 -0.5456 0
M  V30 6 C 0.4761 -4.581 3.0205 0
M  V30 7 C 1.2693 -4.5445 0.7408 0
M  V30 8 N -0.923 -0.3908 -0.7369 0
M  V30 9 C 0.4237 -5.9752 2.9792 0
M  V30 10 C 1.2168 -5.9388 0.7013 0
M  V30 11 C 0.2976 0.1507 -1.064 0
M  V30 12 C 0.7918 -6.6533 1.8193 0
M  V30 13 O 1.2911 -0.5386 -1.2803 0
M  V30 14 C 0.3347 1.661 -1.1378 0
M  V30 15 C -0.8355 2.4616 -0.7324 0
M  V30 16 C 1.5005 2.1826 -1.5744 0
M  V30 17 C -1.0953 2.6866 0.626 0
M  V30 18 C -1.721 2.9646 -1.6949 0
M  V30 19 C 1.8022 3.5701 -1.7058 0
M  V30 20 C -2.2267 3.4051 1.0153 0
M  V30 21 C -2.8505 3.6845 -1.302 0
M  V30 22 O 0.9841 4.6087 -1.3218 0
M  V30 23 C 2.9619 4.1403 -2.2252 0
M  V30 24 C -3.1033 3.9026 0.0518 0
M  V30 25 C 1.6055 5.7793 -1.5943 0
M  V30 26 C 2.8336 5.5475 -2.1551 0
M  V30 27 H 1.646 -2.0469 2.735 0
M  V30 28 H 1.3844 -1.9412 1.0103 0
M  V30 29 H -1.7599 -3.2465 0.9534 0
M  V30 30 H -2.6376 -1.7273 0.9752 0
M  V30 31 H -0.2032 -2.364 -0.7702 0
M  V30 32 H -1.866 -2.1256 -1.2869 0
M  V30 33 H 0.1892 -4.0662 3.9355 0
M  V30 34 H 1.6141 -4.0036 -0.1389 0
M  V30 35 H -1.7173 0.2191 -0.5899 0
M  V30 36 H 0.0978 -6.5313 3.8543 0
M  V30 37 H 1.5129 -6.4671 -0.201 0
M  V30 38 H 0.7533 -7.7388 1.7889 0
M  V30 39 H 2.3073 1.5078 -1.8542 0
M  V30 40 H -0.4185 2.3036 1.3872 0
M  V30 41 H -1.5296 2.8067 -2.7537 0
M  V30 42 H -2.4208 3.5797 2.0705 0
M  V30 43 H -3.5293 4.0809 -2.0525 0
M  V30 44 H 3.8078 3.5884 -2.612 0
M  V30 45 H -3.9807 4.4675 0.3567 0
M  V30 46 H 1.0538 6.6716 -1.334 0
M  V30 47 H 3.5468 6.295 -2.4711 0
M  V30 END ATOM
M  V30 BEGIN BOND
M  V30 1 1 1 2
M  V30 2 1 1 3
M  V30 3 1 2 4
M  V30 4 1 3 5
M  V30 5 2 4 6
M  V30 6 1 4 7
M  V30 7 1 5 8
M  V30 8 1 6 9
M  V30 9 2 7 10
M  V30 10 1 8 11
M  V30 11 2 9 12
M  V30 12 2 11 13
M  V30 13 1 11 14
M  V30 14 1 14 15
M  V30 15 2 14 16
M  V30 16 2 15 17
M  V30 17 1 15 18
M  V30 18 1 16 19
M  V30 19 1 17 20
M  V30 20 2 18 21
M  V30 21 1 19 22
M  V30 22 2 19 23
M  V30 23 2 20 24
M  V30 24 1 22 25
M  V30 25 1 23 26
M  V30 26 1 10 12
M  V30 27 1 21 24
M  V30 28 2 25 26
M  V30 29 1 2 27
M  V30 30 1 2 28
M  V30 31 1 3 29
M  V30 32 1 3 30
M  V30 33 1 5 31
M  V30 34 1 5 32
M  V30 35 1 6 33
M  V30 36 1 7 34
M  V30 37 1 8 35
M  V30 38 1 9 36
M  V30 39 1 10 37
M  V30 40 1 12 38
M  V30 41 1 16 39
M  V30 42 1 17 40
M  V30 43 1 18 41
M  V30 44 1 20 42
M  V30 45 1 21 43
M  V30 46 1 23 44
M  V30 47 1 24 45
M  V30 48 1 25 46
M  V30 49 1 26 47
M  V30 END BOND
M  V30 END CTAB
M  END
>  <Column 1>
2835

>  <level_0>
4075

>  <index>
4075

>  <Unnamed: 0>
4075

>  <NO.>
4087

>  <Name>
ketoprofen

>  <IUPAC_name>
(e)-n-(2-benzylsulfanylethyl)-3-(furan-2-yl)-2-phenylprop-2-enamide

>  <SMILES>
O=C(NCCSCc1ccccc1)/C(=C/c1ccco1)c1ccccc1

>  <CID>
100003825

>  <logBB>


>  <BBB+/BBB->
BBB+

>  <Inchi>
InChI=1S/C22H21NO2S/c24-22(23-13-15-26-17-18-8-3-1-4-9-18)21(16-20-12-7-14-25-20)19-10-5-2-6-11-19/h1-12-14-16H-13-15-17H2-(H-23-24)/b21-16+

>  <threshold>
-1

>  <reference>
R16|R10|

>  <group>
B

>  <Class>
1

>  <ABC>
19.83

>  <ABCGG>
15.79

>  <nAcid>
0

>  <nBase>
0

>  <nAromAtom>
17

>  <nAromBond>
17

>  <nAtom>
47

>  <nHeavyAtom>
26

>  <nSpiro>
0

>  <nBridgehead>
0

>  <nHetero>
4

>  <nN>
1

>  <nO>
2

>  <nF>
0

>  <BalabanJ>
1.37

>  <BertzCT>
827.1

>  <nBonds>
49

>  <nBondsO>
28

>  <nBondsS>
30

>  <nBondsD>
2

>  <nBondsT>
0

>  <nBondsA>
17

>  <nBondsM>
19

>  <nBondsKS>
39

>  <nBondsKD>
10

>  <RNCG>
0.24

>  <RPCG>
0.13

>  <FCSP3>
0.14

>  <SZ>
32

>  <Sm>
30.26

>  <Sv>
31.06

>  <Sse>
46.72

>  <Sp>
33.74

>  <Si>
51.99

>  <MZ>
0.68

>  <Mm>
0.64

>  <Mv>
0.66

>  <Mse>
0.99

>  <Mp>
0.72

>  <Mi>
1.11

>  <NsCH3>
0

>  <NdCH2>
0

>  <NssCH2>
3

>  <NtCH>
0

>  <NdsCH>
1

>  <NaaCH>
13

>  <NsssCH>
0

>  <NddC>
0

>  <NtsC>
0

>  <NdssC>
2

>  <NaasC>
3

>  <NaaaC>
0

>  <NssssC>
0

>  <NsNH3>
0

>  <NsNH2>
0

>  <NssNH2>
0

>  <NdNH>
0

>  <NssNH>
1

>  <NaaNH>
0

>  <NtN>
0

>  <NsssNH>
0

>  <NdsN>
0

>  <NaaN>
0

>  <NsssN>
0

>  <NddsN>
0

>  <NaasN>
0

>  <NssssN>
0

>  <NsOH>
0

>  <NdO>
1

>  <NssO>
0

>  <NaaO>
1

>  <NsF>
0

>  <NsSiH3>
0

>  <NssSiH2>
0

>  <NsssSiH>
0

>  <NssssSi>
0

>  <NsPH2>
0

>  <NssPH>
0

>  <NsssP>
0

>  <NdsssP>
0

>  <NsssssP>
0

>  <NsSH>
0

>  <NdS>
0

>  <NssS>
1

>  <NaaS>
0

>  <NdssS>
0

>  <NddssS>
0

>  <NsCl>
0

>  <NsBr>
0

>  <NsI>
0

>  <fragCpx>
134.04

>  <fMF>
0.53

>  <nHBAcc>
3

>  <nHBDon>
1

>  <Kier1>
20.73

>  <Kier2>
11.76

>  <Lipinski>
1

>  <GhoseFilter>
1

>  <FilterItLogS>
-6.04

>  <VMcGowan>
283.33

>  <LabuteASA>
157.67

>  <PEOE_VSA1>
9.73

>  <PEOE_VSA2>
4.79

>  <PEOE_VSA3>
0

>  <PEOE_VSA4>
11.76

>  <PEOE_VSA5>
0

>  <PEOE_VSA6>
60.66

>  <PEOE_VSA7>
29.34

>  <PEOE_VSA8>
18.05

>  <PEOE_VSA9>
11.84

>  <PEOE_VSA10>
5.76

>  <PEOE_VSA11>
0

>  <PEOE_VSA12>
0

>  <PEOE_VSA13>
5.91

>  <SMR_VSA1>
9.21

>  <SMR_VSA2>
0

>  <SMR_VSA3>
5.32

>  <SMR_VSA4>
0

>  <SMR_VSA5>
5.75

>  <SMR_VSA6>
12.3

>  <SMR_VSA7>
95.95

>  <SMR_VSA8>
0

>  <SMR_VSA9>
0

>  <SlogP_VSA1>
5.32

>  <SlogP_VSA2>
18.2

>  <SlogP_VSA3>
10.55

>  <SlogP_VSA4>
0

>  <SlogP_VSA5>
16.89

>  <SlogP_VSA6>
83.48

>  <SlogP_VSA7>
0

>  <SlogP_VSA8>
11.65

>  <SlogP_VSA9>
0

>  <SlogP_VSA10>
0

>  <SlogP_VSA11>
0

>  <EState_VSA1>
0

>  <EState_VSA2>
5.91

>  <EState_VSA3>
17.88

>  <EState_VSA4>
17.07

>  <EState_VSA5>
5.56

>  <EState_VSA6>
12.34

>  <EState_VSA7>
72.43

>  <EState_VSA8>
17.45

>  <EState_VSA9>
4.42

>  <EState_VSA10>
4.79

>  <VSA_EState1>
5.37

>  <VSA_EState2>
12.67

>  <VSA_EState3>
3.01

>  <VSA_EState4>
2.78

>  <VSA_EState5>
2.39

>  <VSA_EState6>
23.64

>  <VSA_EState7>
3.38

>  <VSA_EState8>
0.62

>  <VSA_EState9>
0

>  <apol>
56.35

>  <bpol>
26.7

>  <nRing>
3

>  <nHRing>
1

>  <naRing>
3

>  <naHRing>
1

>  <nARing 2>
0

>  <nAHRing 2>
0

>  <nFRing>
0

>  <nFHRing>
0

>  <nFaRing>
0

>  <nFaHRing>
0

>  <nFARing 2>
0

>  <nFAHRing 2>
0

>  <nRot>
8

>  <SLogP>
4.87

>  <SMR>
108.63

>  <TopoPSA(NO)>
42.24

>  <TopoPSA>
67.54

>  <JGI1>
0.11

>  <JGI2>
0.05

>  <JGI3>
0.03

>  <JGI4>
0.03

>  <JGI5>
0.01

>  <Diameter>
14

>  <Radius>
7

>  <TMWC10>
127.1

>  <TSRW10>
73.12

>  <MW>
363.13

>  <AMW>
7.73

>  <WPath>
1969

>  <WPol>
32

>  <Zagreb1>
126

>  <Zagreb2>
141

>  <mZagreb2>
5.97

>  <yes>


>  <nAR-cont>
0.336376

>  <nHA-cont>
0.892715677

>  <MWHBN>
0.209907969

>  <MWHBN-cont>
0.999339062

>  <TPSA-cont>
0.52852886

>  <pka_cont>
0.97

>  <yes.1>


>  <BBB_SCORE>
4.27015799

>  <MMFF94 Energy>
39.17

$$$$
Compound 2324
Actelion Java MolfileCreator 2.0

  0  0  0  0  0  0              0 V3000
M  V30 BEGIN CTAB
M  V30 COUNTS 50 53 0 0 0
M  V30 BEGIN ATOM
M  V30 1 Cl 7.6196 4.7773 -0.9702 0
M  V30 2 C 6.1984 4.2586 -1.7882 0
M  V30 3 C 5.9658 4.6655 -3.0996 0
M  V30 4 C 5.2859 3.4335 -1.1353 0
M  V30 5 C 4.8097 4.2431 -3.7645 0
M  V30 6 C 4.1302 3.0114 -1.8009 0
M  V30 7 C 3.8782 3.4108 -3.123 0
M  V30 8 C 2.6689 2.9644 -3.8085 0
M  V30 9 N 2.3452 3.3153 -5.0645 0
M  V30 10 N 1.7465 2.131 -3.2075 0
M  V30 11 O 1.1337 2.6687 -5.2922 0
M  V30 12 C 0.84 1.9863 -4.1516 0
M  V30 13 C -0.4218 1.2086 -4.1483 0
M  V30 14 N -0.5279 0.4544 -2.9157 0
M  V30 15 C -1.5881 -0.3933 -2.7034 0
M  V30 16 O -2.4948 -0.5314 -3.5166 0
M  V30 17 C -1.6104 -1.1274 -1.4083 0
M  V30 18 C -0.4395 -1.4425 -0.7079 0
M  V30 19 C -2.849 -1.5319 -0.8983 0
M  V30 20 C -0.5123 -2.1359 0.5047 0
M  V30 21 C -2.919 -2.2229 0.3132 0
M  V30 22 C -1.7522 -2.5266 1.03 0
M  V30 23 C -1.8329 -3.2888 2.3371 0
M  V30 24 N -2.6508 -2.608 3.3532 0
M  V30 25 C -2.8893 -3.5062 4.5034 0
M  V30 26 C -1.999 -1.3734 3.8444 0
M  V30 27 C -3.6888 -2.8009 5.6097 0
M  V30 28 C -2.8183 -0.7182 4.9682 0
M  V30 29 O -3.0109 -1.6224 6.0639 0
M  V30 30 H 6.6761 5.3097 -3.6114 0
M  V30 31 H 5.465 3.1154 -0.1117 0
M  V30 32 H 4.6448 4.5715 -4.7894 0
M  V30 33 H 3.4261 2.3677 -1.2772 0
M  V30 34 H -0.4499 0.5088 -4.9898 0
M  V30 35 H -1.2862 1.8768 -4.2193 0
M  V30 36 H 0.1583 0.637 -2.1941 0
M  V30 37 H 0.5392 -1.1836 -1.1002 0
M  V30 38 H -3.7652 -1.3066 -1.4406 0
M  V30 39 H 0.4074 -2.3756 1.034 0
M  V30 40 H -3.8899 -2.5223 0.7039 0
M  V30 41 H -0.8256 -3.4946 2.7229 0
M  V30 42 H -2.2748 -4.2657 2.0987 0
M  V30 43 H -3.4482 -4.3907 4.177 0
M  V30 44 H -1.9307 -3.8439 4.9187 0
M  V30 45 H -0.9972 -1.6074 4.2278 0
M  V30 46 H -1.8903 -0.6455 3.0332 0
M  V30 47 H -3.8007 -3.4694 6.4692 0
M  V30 48 H -4.6944 -2.5311 5.2649 0
M  V30 49 H -2.2848 0.1568 5.3528 0
M  V30 50 H -3.7949 -0.3781 4.6026 0
M  V30 END ATOM
M  V30 BEGIN BOND
M  V30 1 1 1 2
M  V30 2 2 2 3
M  V30 3 1 2 4
M  V30 4 1 3 5
M  V30 5 2 4 6
M  V30 6 2 5 7
M  V30 7 1 7 8
M  V30 8 2 8 9
M  V30 9 1 8 10
M  V30 10 1 9 11
M  V30 11 2 10 12
M  V30 12 1 12 13
M  V30 13 1 13 14
M  V30 14 1 14 15
M  V30 15 2 15 16
M  V30 16 1 15 17
M  V30 17 2 17 18
M  V30 18 1 17 19
M  V30 19 1 18 20
M  V30 20 2 19 21
M  V30 21 2 20 22
M  V30 22 1 22 23
M  V30 23 1 23 24
M  V30 24 1 24 25
M  V30 25 1 24 26
M  V30 26 1 25 27
M  V30 27 1 26 28
M  V30 28 1 27 29
M  V30 29 1 6 7
M  V30 30 1 11 12
M  V30 31 1 21 22
M  V30 32 1 28 29
M  V30 33 1 3 30
M  V30 34 1 4 31
M  V30 35 1 5 32
M  V30 36 1 6 33
M  V30 37 1 13 34
M  V30 38 1 13 35
M  V30 39 1 14 36
M  V30 40 1 18 37
M  V30 41 1 19 38
M  V30 42 1 20 39
M  V30 43 1 21 40
M  V30 44 1 23 41
M  V30 45 1 23 42
M  V30 46 1 25 43
M  V30 47 1 25 44
M  V30 48 1 26 45
M  V30 49 1 26 46
M  V30 50 1 27 47
M  V30 51 1 27 48
M  V30 52 1 28 49
M  V30 53 1 28 50
M  V30 END BOND
M  V30 END CTAB
M  END
>  <Column 1>
2837

>  <level_0>
4077

>  <index>
4077

>  <Unnamed: 0>
4077

>  <NO.>
4089

>  <Name>
doxepin

>  <IUPAC_name>
n-[[3-(4-chlorophenyl)-1-2-4-oxadiazol-5-yl]methyl]-4-(morpholin-4-ylmethyl)benzamide

>  <SMILES>
O=C(NCc1nc(-c2ccc(Cl)cc2)no1)c1ccc(CN2CCOCC2)cc1

>  <CID>
100003158

>  <logBB>


>  <BBB+/BBB->
BBB+

>  <Inchi>
InChI=1S/C21H21ClN4O3/c22-18-7-5-16(6-8-18)20-24-19(29-25-20)13-23-21(27)17-3-1-15(2-4-17)14-26-9-11-28-12-10-26/h1-8H-9-14H2-(H-23-27)

>  <threshold>
-1

>  <reference>
R16|R10|R10|

>  <group>
B

>  <Class>
1

>  <ABC>
22.77

>  <ABCGG>
16.18

>  <nAcid>
0

>  <nBase>
1

>  <nAromAtom>
17

>  <nAromBond>
17

>  <nAtom>
50

>  <nHeavyAtom>
29

>  <nSpiro>
0

>  <nBridgehead>
0

>  <nHetero>
8

>  <nN>
4

>  <nO>
3

>  <nF>
0

>  <BalabanJ>
1.1

>  <BertzCT>
950.82

>  <nBonds>
53

>  <nBondsO>
32

>  <nBondsS>
35

>  <nBondsD>
1

>  <nBondsT>
0

>  <nBondsA>
17

>  <nBondsM>
18

>  <nBondsKS>
44

>  <nBondsKD>
9

>  <RNCG>
0.16

>  <RPCG>
0.11

>  <FCSP3>
0.29

>  <SZ>
36

>  <Sm>
34.37

>  <Sv>
32.96

>  <Sse>
50.73

>  <Sp>
34.77

>  <Si>
56.3

>  <MZ>
0.72

>  <Mm>
0.69

>  <Mv>
0.66

>  <Mse>
1.01

>  <Mp>
0.7

>  <Mi>
1.13

>  <NsCH3>
0

>  <NdCH2>
0

>  <NssCH2>
6

>  <NtCH>
0

>  <NdsCH>
0

>  <NaaCH>
8

>  <NsssCH>
0

>  <NddC>
0

>  <NtsC>
0

>  <NdssC>
1

>  <NaasC>
6

>  <NaaaC>
0

>  <NssssC>
0

>  <NsNH3>
0

>  <NsNH2>
0

>  <NssNH2>
0

>  <NdNH>
0

>  <NssNH>
1

>  <NaaNH>
0

>  <NtN>
0

>  <NsssNH>
0

>  <NdsN>
0

>  <NaaN>
2

>  <NsssN>
1

>  <NddsN>
0

>  <NaasN>
0

>  <NssssN>
0

>  <NsOH>
0

>  <NdO>
1

>  <NssO>
1

>  <NaaO>
1

>  <NsF>
0

>  <NsSiH3>
0

>  <NssSiH2>
0

>  <NsssSiH>
0

>  <NssssSi>
0

>  <NsPH2>
0

>  <NssPH>
0

>  <NsssP>
0

>  <NdsssP>
0

>  <NsssssP>
0

>  <NsSH>
0

>  <NdS>
0

>  <NssS>
0

>  <NaaS>
0

>  <NdssS>
0

>  <NddssS>
0

>  <NsCl>
1

>  <NsBr>
0

>  <NsI>
0

>  <fragCpx>
212.08

>  <fMF>
0.54

>  <nHBAcc>
6

>  <nHBDon>
1

>  <Kier1>
22.2

>  <Kier2>
11.04

>  <Lipinski>
1

>  <GhoseFilter>
1

>  <FilterItLogS>
-6.21

>  <VMcGowan>
294.38

>  <LabuteASA>
173.17

>  <PEOE_VSA1>
14.58

>  <PEOE_VSA2>
9.69

>  <PEOE_VSA3>
0

>  <PEOE_VSA4>
4.98

>  <PEOE_VSA5>
0

>  <PEOE_VSA6>
28.89

>  <PEOE_VSA7>
41.96

>  <PEOE_VSA8>
35.78

>  <PEOE_VSA9>
19.76

>  <PEOE_VSA10>
0

>  <PEOE_VSA11>
0

>  <PEOE_VSA12>
11.72

>  <PEOE_VSA13>
5.91

>  <SMR_VSA1>
14.05

>  <SMR_VSA2>
0

>  <SMR_VSA3>
20.36

>  <SMR_VSA4>
0

>  <SMR_VSA5>
13.09

>  <SMR_VSA6>
26.3

>  <SMR_VSA7>
70.57

>  <SMR_VSA8>
0

>  <SMR_VSA9>
11.39

>  <SlogP_VSA1>
5.32

>  <SlogP_VSA2>
47.25

>  <SlogP_VSA3>
17.83

>  <SlogP_VSA4>
0

>  <SlogP_VSA5>
21.81

>  <SlogP_VSA6>
53.05

>  <SlogP_VSA7>
5.02

>  <SlogP_VSA8>
11.39

>  <SlogP_VSA9>
0

>  <SlogP_VSA10>
0

>  <SlogP_VSA11>
0

>  <EState_VSA1>
0

>  <EState_VSA2>
12.45

>  <EState_VSA3>
22.3

>  <EState_VSA4>
38.41

>  <EState_VSA5>
5.56

>  <EState_VSA6>
12.13

>  <EState_VSA7>
36.4

>  <EState_VSA8>
20.36

>  <EState_VSA9>
20.86

>  <EState_VSA10>
4.79

>  <VSA_EState1>
10.58

>  <VSA_EState2>
19.03

>  <VSA_EState3>
7.39

>  <VSA_EState4>
2.56

>  <VSA_EState5>
0.61

>  <VSA_EState6>
14.78

>  <VSA_EState7>
0

>  <VSA_EState8>
4.44

>  <VSA_EState9>
0

>  <apol>
58.06

>  <bpol>
29.34

>  <nRing>
4

>  <nHRing>
2

>  <naRing>
3

>  <naHRing>
1

>  <nARing 2>
1

>  <nAHRing 2>
1

>  <nFRing>
0

>  <nFHRing>
0

>  <nFaRing>
0

>  <nFaHRing>
0

>  <nFARing 2>
0

>  <nFAHRing 2>
0

>  <nRot>
6

>  <SLogP>
3.15

>  <SMR>
108.45

>  <TopoPSA(NO)>
80.49

>  <TopoPSA>
80.49

>  <JGI1>
0.17

>  <JGI2>
0.07

>  <JGI3>
0.03

>  <JGI4>
0.03

>  <JGI5>
0.02

>  <Diameter>
19

>  <Radius>
10

>  <TMWC10>
136.45

>  <TSRW10>
77.73

>  <MW>
412.13

>  <AMW>
8.24

>  <WPath>
2833

>  <WPol>
40

>  <Zagreb1>
150

>  <Zagreb2>
172

>  <mZagreb2>
6.39

>  <yes>


>  <nAR-cont>
0.816016

>  <nHA-cont>
0.785905698

>  <MWHBN>
0.344810852

>  <MWHBN-cont>
0.689521687

>  <TPSA-cont>
0.438129819

>  <pka_cont>
0.97

>  <yes.1>


>  <BBB_SCORE>
3.997463866

>  <MMFF94 Energy>
105.23

$$$$
Compound 2325
Actelion Java MolfileCreator 2.0

  0  0  0  0  0  0              0 V3000
M  V30 BEGIN CTAB
M  V30 COUNTS 45 48 0 0 0
M  V30 BEGIN ATOM
M  V30 1 O -0.16 -1.4414 1.5215 0
M  V30 2 C -0.2758 -0.2356 1.3183 0
M  V30 3 N 0.1838 0.3837 0.1718 0
M  V30 4 C -0.9272 0.6765 2.2736 0
M  V30 5 C 0.8484 -0.3488 -0.9017 0 CFG=2
M  V30 6 N -1.15 1.976 1.98 0
M  V30 7 C -1.4123 0.3538 3.5775 0
M  V30 8 C 1.5653 0.6582 -1.8215 0
M  V30 9 C -0.1634 -1.2042 -1.695 0
M  V30 10 N -1.731 2.4637 3.0875 0
M  V30 11 C -1.9288 1.5433 4.0779 0
M  V30 12 C -1.4663 -0.7995 4.3842 0
M  V30 13 C 0.7756 1.8178 -2.4796 0
M  V30 14 C 2.4947 1.7169 -1.1775 0
M  V30 15 C 0.4311 -2.1117 -2.7486 0
M  V30 16 C -2.5035 1.655 5.3482 0
M  V30 17 C -2.0385 -0.7123 5.6592 0
M  V30 18 C 1.4578 2.8051 -1.515 0
M  V30 19 N 1.7133 -2.5216 -2.5993 0
M  V30 20 C -0.3668 -2.5501 -3.8044 0
M  V30 21 C -2.5482 0.4969 6.1311 0
M  V30 22 O 0.6475 3.2472 -0.4113 0
M  V30 23 C 2.2137 -3.3669 -3.5269 0
M  V30 24 C 0.1757 -3.4181 -4.7482 0
M  V30 25 C 1.4926 -3.8359 -4.6102 0
M  V30 26 H 0.0866 1.4029 0.1586 0
M  V30 27 H 1.5944 -1.0005 -0.4298 0
M  V30 28 H 2.1282 0.0967 -2.5806 0
M  V30 29 H -0.896 -0.5405 -2.1721 0
M  V30 30 H -0.7309 -1.8445 -1.0087 0
M  V30 31 H -1.9761 3.4466 3.1061 0
M  V30 32 H -1.0694 -1.7453 4.0235 0
M  V30 33 H 1.0349 1.9865 -3.5311 0
M  V30 34 H -0.3139 1.7674 -2.3986 0
M  V30 35 H 2.7099 1.5829 -0.1131 0
M  V30 36 H 3.4469 1.8468 -1.705 0
M  V30 37 H -2.8989 2.5952 5.7183 0
M  V30 38 H -2.0829 -1.5999 6.2862 0
M  V30 39 H 1.8969 3.6729 -2.0199 0
M  V30 40 H -1.3996 -2.2277 -3.8915 0
M  V30 41 H -2.9869 0.5402 7.1259 0
M  V30 42 H -0.0028 3.8586 -0.7981 0
M  V30 43 H 3.2447 -3.6688 -3.3673 0
M  V30 44 H -0.4282 -3.7708 -5.579 0
M  V30 45 H 1.9439 -4.5152 -5.3238 0
M  V30 END ATOM
M  V30 BEGIN BOND
M  V30 1 2 1 2
M  V30 2 1 2 3
M  V30 3 1 2 4
M  V30 4 1 3 5
M  V30 5 2 4 6
M  V30 6 1 4 7
M  V30 7 1 5 8
M  V30 8 1 5 9
M  V30 9 1 6 10
M  V30 10 2 7 11
M  V30 11 1 7 12
M  V30 12 1 8 13
M  V30 13 1 8 14
M  V30 14 1 9 15
M  V30 15 1 11 16
M  V30 16 2 12 17
M  V30 17 1 13 18
M  V30 18 2 15 19
M  V30 19 1 15 20
M  V30 20 2 16 21
M  V30 21 1 18 22
M  V30 22 1 19 23
M  V30 23 2 20 24
M  V30 24 2 23 25
M  V30 25 1 10 11
M  V30 26 1 14 18
M  V30 27 1 17 21
M  V30 28 1 24 25
M  V30 29 1 3 26
M  V30 30 1 5 27
M  V30 31 1 8 28
M  V30 32 1 9 29
M  V30 33 1 9 30
M  V30 34 1 10 31
M  V30 35 1 12 32
M  V30 36 1 13 33
M  V30 37 1 13 34
M  V30 38 1 14 35
M  V30 39 1 14 36
M  V30 40 1 16 37
M  V30 41 1 17 38
M  V30 42 1 18 39
M  V30 43 1 20 40
M  V30 44 1 21 41
M  V30 45 1 22 42
M  V30 46 1 23 43
M  V30 47 1 24 44
M  V30 48 1 25 45
M  V30 END BOND
M  V30 BEGIN COLLECTION
M  V30 MDLV30/STEABS ATOMS=(1 5)
M  V30 END COLLECTION
M  V30 END CTAB
M  END
>  <Column 1>
2838

>  <level_0>
4078

>  <index>
4078

>  <Unnamed: 0>
4078

>  <NO.>
4090

>  <Name>
bromazepam

>  <IUPAC_name>
n-[(1s)-1-(3-hydroxycyclobutyl)-2-pyridin-2-ylethyl]-1h-indazole-3-carboxamide

>  <SMILES>
O=C(N[C@@H](Cc1ccccn1)C1CC(O)C1)c1n[nH]c2ccccc12

>  <CID>
100002441

>  <logBB>


>  <BBB+/BBB->
BBB+

>  <Inchi>
InChI=1S/C19H20N4O2/c24-14-9-12(10-14)17(11-13-5-3-4-8-20-13)21-19(25)18-15-6-1-2-7-16(15)22-23-18/h1-8-12-14-17-24H-9-11H2-(H-21-25)(H-22-23)/t12?-14?-17-/m0/s1

>  <threshold>
-1

>  <reference>
R16|R10|R10|

>  <group>
B

>  <Class>
-1

>  <ABC>
19.86

>  <ABCGG>
16.19

>  <nAcid>
0

>  <nBase>
0

>  <nAromAtom>
15

>  <nAromBond>
16

>  <nAtom>
45

>  <nHeavyAtom>
25

>  <nSpiro>
0

>  <nBridgehead>
0

>  <nHetero>
6

>  <nN>
4

>  <nO>
2

>  <nF>
0

>  <BalabanJ>
1.35

>  <BertzCT>
871.28

>  <nBonds>
48

>  <nBondsO>
28

>  <nBondsS>
31

>  <nBondsD>
1

>  <nBondsT>
0

>  <nBondsA>
16

>  <nBondsM>
17

>  <nBondsKS>
40

>  <nBondsKD>
8

>  <RNCG>
0.18

>  <RPCG>
0.13

>  <FCSP3>
0.32

>  <SZ>
29.67

>  <Sm>
28.01

>  <Sv>
28.88

>  <Sse>
45.19

>  <Sp>
30.58

>  <Si>
50.73

>  <MZ>
0.66

>  <Mm>
0.62

>  <Mv>
0.64

>  <Mse>
1

>  <Mp>
0.68

>  <Mi>
1.13

>  <NsCH3>
0

>  <NdCH2>
0

>  <NssCH2>
3

>  <NtCH>
0

>  <NdsCH>
0

>  <NaaCH>
8

>  <NsssCH>
3

>  <NddC>
0

>  <NtsC>
0

>  <NdssC>
1

>  <NaasC>
2

>  <NaaaC>
2

>  <NssssC>
0

>  <NsNH3>
0

>  <NsNH2>
0

>  <NssNH2>
0

>  <NdNH>
0

>  <NssNH>
1

>  <NaaNH>
1

>  <NtN>
0

>  <NsssNH>
0

>  <NdsN>
0

>  <NaaN>
2

>  <NsssN>
0

>  <NddsN>
0

>  <NaasN>
0

>  <NssssN>
0

>  <NsOH>
1

>  <NdO>
1

>  <NssO>
0

>  <NaaO>
0

>  <NsF>
0

>  <NsSiH3>
0

>  <NssSiH2>
0

>  <NsssSiH>
0

>  <NssssSi>
0

>  <NsPH2>
0

>  <NssPH>
0

>  <NsssP>
0

>  <NdsssP>
0

>  <NsssssP>
0

>  <NsSH>
0

>  <NdS>
0

>  <NssS>
0

>  <NaaS>
0

>  <NdssS>
0

>  <NddssS>
0

>  <NsCl>
0

>  <NsBr>
0

>  <NsI>
0

>  <fragCpx>
184.06

>  <fMF>
0.51

>  <nHBAcc>
4

>  <nHBDon>
3

>  <Kier1>
18.37

>  <Kier2>
8.35

>  <Lipinski>
1

>  <GhoseFilter>
1

>  <FilterItLogS>
-4.34

>  <VMcGowan>
252.39

>  <LabuteASA>
144.84

>  <PEOE_VSA1>
10.42

>  <PEOE_VSA2>
14.88

>  <PEOE_VSA3>
0

>  <PEOE_VSA4>
5.1

>  <PEOE_VSA5>
0

>  <PEOE_VSA6>
24.27

>  <PEOE_VSA7>
36.96

>  <PEOE_VSA8>
29.74

>  <PEOE_VSA9>
11.62

>  <PEOE_VSA10>
0

>  <PEOE_VSA11>
5.69

>  <PEOE_VSA12>
0

>  <PEOE_VSA13>
5.91

>  <SMR_VSA1>
9.9

>  <SMR_VSA2>
0

>  <SMR_VSA3>
20.5

>  <SMR_VSA4>
5.92

>  <SMR_VSA5>
31.41

>  <SMR_VSA6>
0

>  <SMR_VSA7>
60.05

>  <SMR_VSA8>
0

>  <SMR_VSA9>
0

>  <SlogP_VSA1>
5.32

>  <SlogP_VSA2>
38.34

>  <SlogP_VSA3>
6.42

>  <SlogP_VSA4>
5.92

>  <SlogP_VSA5>
29.02

>  <SlogP_VSA6>
48.66

>  <SlogP_VSA7>
0

>  <SlogP_VSA8>
10.9

>  <SlogP_VSA9>
0

>  <SlogP_VSA10>
0

>  <SlogP_VSA11>
0

>  <EState_VSA1>
0

>  <EState_VSA2>
23.97

>  <EState_VSA3>
24.96

>  <EState_VSA4>
16.6

>  <EState_VSA5>
0

>  <EState_VSA6>
6.2

>  <EState_VSA7>
42.46

>  <EState_VSA8>
20.5

>  <EState_VSA9>
0

>  <EState_VSA10>
9.9

>  <VSA_EState1>
0

>  <VSA_EState2>
17.13

>  <VSA_EState3>
20.63

>  <VSA_EState4>
2.18

>  <VSA_EState5>
0.06

>  <VSA_EState6>
13.28

>  <VSA_EState7>
3.55

>  <VSA_EState8>
0

>  <VSA_EState9>
0

>  <apol>
51.07

>  <bpol>
23.21

>  <nRing>
4

>  <nHRing>
2

>  <naRing>
3

>  <naHRing>
2

>  <nARing 2>
1

>  <nAHRing 2>
0

>  <nFRing>
1

>  <nFHRing>
1

>  <nFaRing>
1

>  <nFaHRing>
1

>  <nFARing 2>
0

>  <nFAHRing 2>
0

>  <nRot>
5

>  <SLogP>
2.07

>  <SMR>
94.02

>  <TopoPSA(NO)>
90.9

>  <TopoPSA>
90.9

>  <JGI1>
0.16

>  <JGI2>
0.07

>  <JGI3>
0.05

>  <JGI4>
0.04

>  <JGI5>
0.02

>  <Diameter>
12

>  <Radius>
6

>  <TMWC10>
128.62

>  <TSRW10>
74.1

>  <MW>
336.16

>  <AMW>
7.47

>  <WPath>
1539

>  <WPol>
35

>  <Zagreb1>
134

>  <Zagreb2>
158

>  <mZagreb2>
5.44

>  <yes>


>  <nAR-cont>
0.816016

>  <nHA-cont>
0.921834225

>  <MWHBN>
0.381790416

>  <MWHBN-cont>
0.54777569

>  <TPSA-cont>
0.365461554

>  <pka_cont>
0.97

>  <yes.1>


>  <BBB_SCORE>
3.775436869

>  <MMFF94 Energy>
73.47

$$$$
Compound 2326
Actelion Java MolfileCreator 2.0

  0  0  0  0  0  0              0 V3000
M  V30 BEGIN CTAB
M  V30 COUNTS 42 45 0 0 0
M  V30 BEGIN ATOM
M  V30 1 O -1.4476 -1.2062 0.0803 0
M  V30 2 C -1.2239 -0.0867 0.5222 0
M  V30 3 N -0.0797 0.6198 0.2259 0
M  V30 4 C -2.0997 0.6597 1.4251 0
M  V30 5 C 0.9611 0.1261 -0.6568 0 CFG=1
M  V30 6 N -1.706 1.9266 1.8822 0
M  V30 7 C -3.3382 0.3484 1.9688 0
M  V30 8 C 1.3922 1.1693 -1.6782 0
M  V30 9 C 2.1506 -0.2602 0.2343 0
M  V30 10 C -2.6957 2.3027 2.6524 0
M  V30 11 O -3.7099 1.4141 2.7564 0
M  V30 12 C -4.2859 -0.8788 1.8499 0
M  V30 13 N 1.4177 0.7705 -2.9764 0
M  V30 14 C 1.7629 2.4619 -1.3006 0
M  V30 15 C 1.9808 -1.5162 1.1364 0
M  V30 16 C 3.3063 -1.0324 -0.4638 0
M  V30 17 C -4.4442 -1.6553 0.5769 0
M  V30 18 C -3.7734 -2.2859 1.7703 0
M  V30 19 C 1.8009 1.6727 -3.9062 0
M  V30 20 C 2.1577 3.3691 -2.2809 0
M  V30 21 C 2.6783 -2.3489 0.0413 0
M  V30 22 C 2.1763 2.9705 -3.6105 0
M  V30 23 O 3.6022 -3.3468 0.5067 0
M  V30 24 H -0.0044 1.5328 0.6628 0
M  V30 25 H 0.5865 -0.7529 -1.1945 0
M  V30 26 H 2.5174 0.6016 0.8101 0
M  V30 27 H -2.7996 3.2241 3.208 0
M  V30 28 H -5.1951 -0.7432 2.4322 0
M  V30 29 H 1.752 2.7686 -0.26 0
M  V30 30 H 2.5453 -1.4597 2.0753 0
M  V30 31 H 0.9588 -1.8229 1.3709 0
M  V30 32 H 3.3749 -0.9414 -1.551 0
M  V30 33 H 4.2945 -0.8212 -0.0375 0
M  V30 34 H -3.8402 -1.4037 -0.2848 0
M  V30 35 H -5.4379 -2.0023 0.3157 0
M  V30 36 H -4.3185 -3.0545 2.3071 0
M  V30 37 H -2.7075 -2.468 1.7299 0
M  V30 38 H 1.7977 1.3104 -4.9302 0
M  V30 39 H 2.4477 4.3797 -2.0074 0
M  V30 40 H 1.9679 -2.7855 -0.6719 0
M  V30 41 H 2.4759 3.6533 -4.3972 0
M  V30 42 H 4.006 -3.7076 -0.3011 0
M  V30 END ATOM
M  V30 BEGIN BOND
M  V30 1 2 1 2
M  V30 2 1 2 3
M  V30 3 1 2 4
M  V30 4 1 3 5
M  V30 5 1 4 6
M  V30 6 2 4 7
M  V30 7 1 5 8
M  V30 8 1 5 9
M  V30 9 2 6 10
M  V30 10 1 7 11
M  V30 11 1 7 12
M  V30 12 2 8 13
M  V30 13 1 8 14
M  V30 14 1 9 15
M  V30 15 1 9 16
M  V30 16 1 12 17
M  V30 17 1 12 18
M  V30 18 1 13 19
M  V30 19 2 14 20
M  V30 20 1 15 21
M  V30 21 2 19 22
M  V30 22 1 21 23
M  V30 23 1 10 11
M  V30 24 1 16 21
M  V30 25 1 17 18
M  V30 26 1 20 22
M  V30 27 1 3 24
M  V30 28 1 5 25
M  V30 29 1 9 26
M  V30 30 1 10 27
M  V30 31 1 12 28
M  V30 32 1 14 29
M  V30 33 1 15 30
M  V30 34 1 15 31
M  V30 35 1 16 32
M  V30 36 1 16 33
M  V30 37 1 17 34
M  V30 38 1 17 35
M  V30 39 1 18 36
M  V30 40 1 18 37
M  V30 41 1 19 38
M  V30 42 1 20 39
M  V30 43 1 21 40
M  V30 44 1 22 41
M  V30 45 1 23 42
M  V30 END BOND
M  V30 BEGIN COLLECTION
M  V30 MDLV30/STEABS ATOMS=(1 5)
M  V30 END COLLECTION
M  V30 END CTAB
M  END
>  <Column 1>
2839

>  <level_0>
4079

>  <index>
4079

>  <Unnamed: 0>
4079

>  <NO.>
4091

>  <Name>
aminosalicylic acid

>  <IUPAC_name>
5-cyclopropyl-n-[(r)-(3-hydroxycyclobutyl)-pyridin-2-ylmethyl]-1-3-oxazole-4-carboxamide

>  <SMILES>
O=C(N[C@@H](c1ccccn1)C1CC(O)C1)c1ncoc1C1CC1

>  <CID>
100004649

>  <logBB>


>  <BBB+/BBB->
BBB-

>  <Inchi>
InChI=1S/C17H19N3O3/c21-12-7-11(8-12)14(13-3-1-2-6-18-13)20-17(22)15-16(10-4-5-10)23-9-19-15/h1-3-6-9-12-14-21H-4-5-7-8H2-(H-20-22)/t11?-12?-14-/m1/s1

>  <threshold>
-1

>  <reference>
R16|R10|

>  <group>
B

>  <Class>
1

>  <ABC>
18.4

>  <ABCGG>
15.88

>  <nAcid>
0

>  <nBase>
0

>  <nAromAtom>
11

>  <nAromBond>
11

>  <nAtom>
42

>  <nHeavyAtom>
23

>  <nSpiro>
0

>  <nBridgehead>
0

>  <nHetero>
6

>  <nN>
3

>  <nO>
3

>  <nF>
0

>  <BalabanJ>
1.39

>  <BertzCT>
690.12

>  <nBonds>
45

>  <nBondsO>
26

>  <nBondsS>
33

>  <nBondsD>
1

>  <nBondsT>
0

>  <nBondsA>
11

>  <nBondsM>
12

>  <nBondsKS>
39

>  <nBondsKD>
6

>  <RNCG>
0.2

>  <RPCG>
0.12

>  <FCSP3>
0.47

>  <SZ>
27.67

>  <Sm>
26.09

>  <Sv>
26.57

>  <Sse>
42.42

>  <Sp>
28

>  <Si>
47.45

>  <MZ>
0.66

>  <Mm>
0.62

>  <Mv>
0.63

>  <Mse>
1.01

>  <Mp>
0.67

>  <Mi>
1.13

>  <NsCH3>
0

>  <NdCH2>
0

>  <NssCH2>
4

>  <NtCH>
0

>  <NdsCH>
0

>  <NaaCH>
5

>  <NsssCH>
4

>  <NddC>
0

>  <NtsC>
0

>  <NdssC>
1

>  <NaasC>
3

>  <NaaaC>
0

>  <NssssC>
0

>  <NsNH3>
0

>  <NsNH2>
0

>  <NssNH2>
0

>  <NdNH>
0

>  <NssNH>
1

>  <NaaNH>
0

>  <NtN>
0

>  <NsssNH>
0

>  <NdsN>
0

>  <NaaN>
2

>  <NsssN>
0

>  <NddsN>
0

>  <NaasN>
0

>  <NssssN>
0

>  <NsOH>
1

>  <NdO>
1

>  <NssO>
0

>  <NaaO>
1

>  <NsF>
0

>  <NsSiH3>
0

>  <NssSiH2>
0

>  <NsssSiH>
0

>  <NssssSi>
0

>  <NsPH2>
0

>  <NssPH>
0

>  <NsssP>
0

>  <NdsssP>
0

>  <NsssssP>
0

>  <NsSH>
0

>  <NdS>
0

>  <NssS>
0

>  <NaaS>
0

>  <NdssS>
0

>  <NddssS>
0

>  <NsCl>
0

>  <NsBr>
0

>  <NsI>
0

>  <fragCpx>
170.06

>  <fMF>
0.5

>  <nHBAcc>
5

>  <nHBDon>
2

>  <Kier1>
16.47

>  <Kier2>
7.09

>  <Lipinski>
1

>  <GhoseFilter>
1

>  <FilterItLogS>
-3.33

>  <VMcGowan>
228.7

>  <LabuteASA>
133.5

>  <PEOE_VSA1>
14.84

>  <PEOE_VSA2>
9.78

>  <PEOE_VSA3>
4.98

>  <PEOE_VSA4>
0

>  <PEOE_VSA5>
0

>  <PEOE_VSA6>
6.07

>  <PEOE_VSA7>
43.73

>  <PEOE_VSA8>
12.11

>  <PEOE_VSA9>
17.84

>  <PEOE_VSA10>
5.76

>  <PEOE_VSA11>
12.09

>  <PEOE_VSA12>
0

>  <PEOE_VSA13>
5.91

>  <SMR_VSA1>
14.32

>  <SMR_VSA2>
0

>  <SMR_VSA3>
15.28

>  <SMR_VSA4>
5.92

>  <SMR_VSA5>
43.75

>  <SMR_VSA6>
0

>  <SMR_VSA7>
47.94

>  <SMR_VSA8>
0

>  <SMR_VSA9>
0

>  <SlogP_VSA1>
5.32

>  <SlogP_VSA2>
27.09

>  <SlogP_VSA3>
0

>  <SlogP_VSA4>
5.92

>  <SlogP_VSA5>
59.59

>  <SlogP_VSA6>
35.21

>  <SlogP_VSA7>
0

>  <SlogP_VSA8>
0

>  <SlogP_VSA9>
0

>  <SlogP_VSA10>
0

>  <SlogP_VSA11>
0

>  <EState_VSA1>
0

>  <EState_VSA2>
23.97

>  <EState_VSA3>
30.21

>  <EState_VSA4>
18.54

>  <EState_VSA5>
6.39

>  <EState_VSA6>
6.2

>  <EState_VSA7>
18.2

>  <EState_VSA8>
15.28

>  <EState_VSA9>
4.42

>  <EState_VSA10>
9.9

>  <VSA_EState1>
5.39

>  <VSA_EState2>
21.11

>  <VSA_EState3>
12.64

>  <VSA_EState4>
1.2

>  <VSA_EState5>
0.99

>  <VSA_EState6>
5.44

>  <VSA_EState7>
6.23

>  <VSA_EState8>
0

>  <VSA_EState9>
0

>  <apol>
46.77

>  <bpol>
24.51

>  <nRing>
4

>  <nHRing>
2

>  <naRing>
2

>  <naHRing>
2

>  <nARing 2>
2

>  <nAHRing 2>
0

>  <nFRing>
0

>  <nFHRing>
0

>  <nFaRing>
0

>  <nFaHRing>
0

>  <nFARing 2>
0

>  <nFAHRing 2>
0

>  <nRot>
5

>  <SLogP>
2.19

>  <SMR>
81.65

>  <TopoPSA(NO)>
88.25

>  <TopoPSA>
88.25

>  <JGI1>
0.15

>  <JGI2>
0.07

>  <JGI3>
0.05

>  <JGI4>
0.03

>  <JGI5>
0.02

>  <Diameter>
10

>  <Radius>
5

>  <TMWC10>
124.57

>  <TSRW10>
77.31

>  <MW>
313.14

>  <AMW>
7.46

>  <WPath>
1189

>  <WPol>
32

>  <Zagreb1>
126

>  <Zagreb2>
151

>  <mZagreb2>
4.97

>  <yes>


>  <nAR-cont>
1

>  <nHA-cont>
0.967789328

>  <MWHBN>
0.395574936

>  <MWHBN-cont>
0.493489767

>  <TPSA-cont>
0.3839602

>  <pka_cont>
0.97

>  <yes.1>


>  <BBB_SCORE>
3.960944379

>  <MMFF94 Energy>
55.2

$$$$
Compound 2327
Actelion Java MolfileCreator 2.0

  0  0  0  0  0  0              0 V3000
M  V30 BEGIN CTAB
M  V30 COUNTS 49 51 0 0 0
M  V30 BEGIN ATOM
M  V30 1 F 0.7951 -4.1399 8.0531 0
M  V30 2 C 0.2674 -3.2765 7.1741 0
M  V30 3 C 1.0944 -2.3237 6.58 0
M  V30 4 C -1.088 -3.3548 6.8793 0
M  V30 5 C 0.5303 -1.4228 5.6583 0
M  V30 6 C -1.6693 -2.4697 5.9673 0
M  V30 7 C -0.833 -1.5152 5.3739 0
M  V30 8 C 1.0487 -0.3521 4.8797 0
M  V30 9 N -1.1221 -0.5304 4.4567 0
M  V30 10 C 0.0109 0.1813 4.1417 0
M  V30 11 C -0.0199 1.2978 3.1656 0
M  V30 12 N 0.165 0.7265 1.8572 0
M  V30 13 C -0.2832 1.3636 0.7249 0
M  V30 14 O -0.911 2.4158 0.7468 0
M  V30 15 C 0.0578 0.6139 -0.5494 0
M  V30 16 C -0.3221 1.4124 -1.7995 0
M  V30 17 C 0.0485 0.7737 -3.1647 0 CFG=1
M  V30 18 N 1.4705 0.5402 -3.2443 0
M  V30 19 C -0.5451 -0.6374 -3.3326 0
M  V30 20 C -0.4099 1.7438 -4.283 0
M  V30 21 C 1.8291 -0.783 -3.1393 0
M  V30 22 C 0.5823 -1.6066 -2.9766 0
M  V30 23 C 0.0364 1.3809 -5.7055 0
M  V30 24 O 2.974 -1.1977 -3.1331 0
M  V30 25 C -0.4275 2.4116 -6.6997 0
M  V30 26 O -1.129 3.3847 -6.4856 0
M  V30 27 O 0.0199 2.1472 -7.9423 0
M  V30 28 H 2.1484 -2.2886 6.8323 0
M  V30 29 H -1.6935 -4.113 7.3673 0
M  V30 30 H -2.7277 -2.5245 5.734 0
M  V30 31 H 2.076 -0.0103 4.8627 0
M  V30 32 H -2.0395 -0.3625 4.0651 0
M  V30 33 H 0.7982 2.0032 3.3441 0
M  V30 34 H -0.965 1.8494 3.2126 0
M  V30 35 H 0.7296 -0.1094 1.7774 0
M  V30 36 H -0.4821 -0.338 -0.5194 0
M  V30 37 H 1.1329 0.4043 -0.5382 0
M  V30 38 H -1.4042 1.6015 -1.778 0
M  V30 39 H 0.1589 2.3983 -1.73 0
M  V30 40 H 2.1832 1.2584 -3.3112 0
M  V30 41 H -0.8518 -0.8348 -4.3645 0
M  V30 42 H -1.4359 -0.8049 -2.7176 0
M  V30 43 H -0.0244 2.749 -4.0608 0
M  V30 44 H -1.5049 1.8274 -4.2595 0
M  V30 45 H 0.5125 -1.9507 -1.9413 0
M  V30 46 H 0.6001 -2.4679 -3.6493 0
M  V30 47 H 1.1293 1.3363 -5.7585 0
M  V30 48 H -0.3776 0.4179 -6.0156 0
M  V30 49 H -0.3424 2.8757 -8.4893 0
M  V30 END ATOM
M  V30 BEGIN BOND
M  V30 1 1 1 2
M  V30 2 2 2 3
M  V30 3 1 2 4
M  V30 4 1 3 5
M  V30 5 2 4 6
M  V30 6 2 5 7
M  V30 7 1 5 8
M  V30 8 1 7 9
M  V30 9 2 8 10
M  V30 10 1 10 11
M  V30 11 1 11 12
M  V30 12 1 12 13
M  V30 13 2 13 14
M  V30 14 1 13 15
M  V30 15 1 15 16
M  V30 16 1 16 17
M  V30 17 1 17 18
M  V30 18 1 17 19
M  V30 19 1 17 20
M  V30 20 1 18 21
M  V30 21 1 19 22
M  V30 22 1 20 23
M  V30 23 2 21 24
M  V30 24 1 23 25
M  V30 25 2 25 26
M  V30 26 1 25 27
M  V30 27 1 6 7
M  V30 28 1 9 10
M  V30 29 1 21 22
M  V30 30 1 3 28
M  V30 31 1 4 29
M  V30 32 1 6 30
M  V30 33 1 8 31
M  V30 34 1 9 32
M  V30 35 1 11 33
M  V30 36 1 11 34
M  V30 37 1 12 35
M  V30 38 1 15 36
M  V30 39 1 15 37
M  V30 40 1 16 38
M  V30 41 1 16 39
M  V30 42 1 18 40
M  V30 43 1 19 41
M  V30 44 1 19 42
M  V30 45 1 20 43
M  V30 46 1 20 44
M  V30 47 1 22 45
M  V30 48 1 22 46
M  V30 49 1 23 47
M  V30 50 1 23 48
M  V30 51 1 27 49
M  V30 END BOND
M  V30 BEGIN COLLECTION
M  V30 MDLV30/STEABS ATOMS=(1 17)
M  V30 END COLLECTION
M  V30 END CTAB
M  END
>  <Column 1>
2841

>  <level_0>
4081

>  <index>
4081

>  <Unnamed: 0>
4081

>  <NO.>
4093

>  <Name>
norfloxacin

>  <IUPAC_name>
3-[(2s)-2-[3-[(5-fluoro-1h-indol-2-yl)methylamino]-3-oxopropyl]-5-oxopyrrolidin-2-yl]propanoic acid

>  <SMILES>
O=C(O)CC[C@@]1(CCC(=O)NCc2cc3cc(F)ccc3[nH]2)CCC(=O)N1

>  <CID>
100004539

>  <logBB>


>  <BBB+/BBB->
BBB-

>  <Inchi>
InChI=1S/C19H22FN3O4/c20-13-1-2-15-12(9-13)10-14(22-15)11-21-16(24)3-6-19(8-5-18(26)27)7-4-17(25)23-19/h1-2-9-10-22H-3-8-11H2-(H-21-24)(H-23-25)(H-26-27)/t19-/m1/s1

>  <threshold>
-1

>  <reference>
R16|R10|

>  <group>
B

>  <Class>
1

>  <ABC>
21.01

>  <ABCGG>
17.05

>  <nAcid>
1

>  <nBase>
0

>  <nAromAtom>
9

>  <nAromBond>
10

>  <nAtom>
49

>  <nHeavyAtom>
27

>  <nSpiro>
0

>  <nBridgehead>
0

>  <nHetero>
8

>  <nN>
3

>  <nO>
4

>  <nF>
1

>  <BalabanJ>
1.39

>  <BertzCT>
878.96

>  <nBonds>
51

>  <nBondsO>
29

>  <nBondsS>
38

>  <nBondsD>
3

>  <nBondsT>
0

>  <nBondsA>
10

>  <nBondsM>
13

>  <nBondsKS>
44

>  <nBondsKD>
7

>  <RNCG>
0.18

>  <RPCG>
0.11

>  <FCSP3>
0.42

>  <SZ>
33

>  <Sm>
31.25

>  <Sv>
30.74

>  <Sse>
50.03

>  <Sp>
32.01

>  <Si>
55.83

>  <MZ>
0.67

>  <Mm>
0.64

>  <Mv>
0.63

>  <Mse>
1.02

>  <Mp>
0.65

>  <Mi>
1.14

>  <NsCH3>
0

>  <NdCH2>
0

>  <NssCH2>
7

>  <NtCH>
0

>  <NdsCH>
0

>  <NaaCH>
4

>  <NsssCH>
0

>  <NddC>
0

>  <NtsC>
0

>  <NdssC>
3

>  <NaasC>
2

>  <NaaaC>
2

>  <NssssC>
1

>  <NsNH3>
0

>  <NsNH2>
0

>  <NssNH2>
0

>  <NdNH>
0

>  <NssNH>
2

>  <NaaNH>
1

>  <NtN>
0

>  <NsssNH>
0

>  <NdsN>
0

>  <NaaN>
0

>  <NsssN>
0

>  <NddsN>
0

>  <NaasN>
0

>  <NssssN>
0

>  <NsOH>
1

>  <NdO>
3

>  <NssO>
0

>  <NaaO>
0

>  <NsF>
1

>  <NsSiH3>
0

>  <NssSiH2>
0

>  <NsssSiH>
0

>  <NssssSi>
0

>  <NsPH2>
0

>  <NssPH>
0

>  <NsssP>
0

>  <NdsssP>
0

>  <NsssssP>
0

>  <NsSH>
0

>  <NdS>
0

>  <NssS>
0

>  <NaaS>
0

>  <NdssS>
0

>  <NddssS>
0

>  <NsCl>
0

>  <NsBr>
0

>  <NsI>
0

>  <fragCpx>
139.08

>  <fMF>
0.39

>  <nHBAcc>
3

>  <nHBDon>
4

>  <Kier1>
21.7

>  <Kier2>
9.67

>  <Lipinski>
1

>  <GhoseFilter>
1

>  <FilterItLogS>
-5.34

>  <VMcGowan>
271.07

>  <LabuteASA>
154.87

>  <PEOE_VSA1>
20.72

>  <PEOE_VSA2>
14.38

>  <PEOE_VSA3>
4.39

>  <PEOE_VSA4>
0

>  <PEOE_VSA5>
0

>  <PEOE_VSA6>
0

>  <PEOE_VSA7>
43.53

>  <PEOE_VSA8>
41.4

>  <PEOE_VSA9>
6.54

>  <PEOE_VSA10>
5.82

>  <PEOE_VSA11>
0

>  <PEOE_VSA12>
11.81

>  <PEOE_VSA13>
0

>  <SMR_VSA1>
23.88

>  <SMR_VSA2>
0

>  <SMR_VSA3>
15.62

>  <SMR_VSA4>
0

>  <SMR_VSA5>
50.61

>  <SMR_VSA6>
0

>  <SMR_VSA7>
35.78

>  <SMR_VSA8>
0

>  <SMR_VSA9>
0

>  <SlogP_VSA1>
10.63

>  <SlogP_VSA2>
33.41

>  <SlogP_VSA3>
20.93

>  <SlogP_VSA4>
5.82

>  <SlogP_VSA5>
44.22

>  <SlogP_VSA6>
24.27

>  <SlogP_VSA7>
0

>  <SlogP_VSA8>
10.9

>  <SlogP_VSA9>
0

>  <SlogP_VSA10>
4.39

>  <SlogP_VSA11>
0

>  <EState_VSA1>
11.51

>  <EState_VSA2>
37.02

>  <EState_VSA3>
25.68

>  <EState_VSA4>
16.6

>  <EState_VSA5>
12.13

>  <EState_VSA6>
12.13

>  <EState_VSA7>
0

>  <EState_VSA8>
15.62

>  <EState_VSA9>
5.11

>  <EState_VSA10>
18.77

>  <VSA_EState1>
13.23

>  <VSA_EState2>
37.74

>  <VSA_EState3>
15.29

>  <VSA_EState4>
0.94

>  <VSA_EState5>
-1.53

>  <VSA_EState6>
6.22

>  <VSA_EState7>
1.75

>  <VSA_EState8>
0.28

>  <VSA_EState9>
0

>  <apol>
53.46

>  <bpol>
27.5

>  <nRing>
3

>  <nHRing>
2

>  <naRing>
2

>  <naHRing>
1

>  <nARing 2>
1

>  <nAHRing 2>
1

>  <nFRing>
1

>  <nFHRing>
1

>  <nFaRing>
1

>  <nFaHRing>
1

>  <nFARing 2>
0

>  <nFAHRing 2>
0

>  <nRot>
8

>  <SLogP>
2.22

>  <SMR>
96.31

>  <TopoPSA(NO)>
111.29

>  <TopoPSA>
111.29

>  <JGI1>
0.28

>  <JGI2>
0.07

>  <JGI3>
0.05

>  <JGI4>
0.05

>  <JGI5>
0.02

>  <Diameter>
15

>  <Radius>
8

>  <TMWC10>
131.52

>  <TSRW10>
77.89

>  <MW>
375.16

>  <AMW>
7.66

>  <WPath>
2164

>  <WPol>
36

>  <Zagreb1>
140

>  <Zagreb2>
160

>  <mZagreb2>
5.86

>  <yes>


>  <nAR-cont>
0.816016

>  <nHA-cont>
0.860070871

>  <MWHBN>
0.361401355

>  <MWHBN-cont>
0.627056732

>  <TPSA-cont>
0.223126693

>  <pka_cont>
0.97

>  <yes.1>


>  <BBB_SCORE>
3.547925356

>  <MMFF94 Energy>
-71

$$$$
Compound 2328
Actelion Java MolfileCreator 2.0

  0  0  0  0  0  0              0 V3000
M  V30 BEGIN CTAB
M  V30 COUNTS 25 26 0 0 0
M  V30 BEGIN ATOM
M  V30 1 Cl -1.5077 -4.5282 -3.101 0
M  V30 2 C -1.0306 -3.0546 -2.3527 0
M  V30 3 C 0.3236 -2.7262 -2.2727 0
M  V30 4 C -2.0015 -2.1964 -1.8337 0
M  V30 5 C 0.7153 -1.5316 -1.6646 0
M  V30 6 C -1.6176 -1.0005 -1.2239 0
M  V30 7 C -0.2587 -0.6805 -1.1338 0
M  V30 8 S 0.223 0.852 -0.3615 0
M  V30 9 O 1.6156 1.077 -0.6928 0
M  V30 10 O -0.8235 1.807 -0.6583 0
M  V30 11 C 0.1654 0.4332 1.3995 0 CFG=1
M  V30 12 C 0.8309 1.4211 2.3293 0 CFG=2
M  V30 13 C -0.6784 1.3159 2.2733 0
M  V30 14 C 1.4894 2.6665 1.8873 0
M  V30 15 O 1.027 3.4686 1.0972 0
M  V30 16 O 2.7024 2.8362 2.4431 0
M  V30 17 H 1.076 -3.3922 -2.688 0
M  V30 18 H -3.0562 -2.4497 -1.9093 0
M  V30 19 H 1.7714 -1.2741 -1.6169 0
M  V30 20 H -2.3772 -0.3244 -0.836 0
M  V30 21 H 0.2522 -0.6151 1.6474 0
M  V30 22 H 1.3358 0.9515 3.1696 0
M  V30 23 H -1.1828 0.865 3.1201 0
M  V30 24 H -1.2332 2.1368 1.8291 0
M  V30 25 H 3.0284 3.6598 2.0223 0
M  V30 END ATOM
M  V30 BEGIN BOND
M  V30 1 1 1 2
M  V30 2 2 2 3
M  V30 3 1 2 4
M  V30 4 1 3 5
M  V30 5 2 4 6
M  V30 6 2 5 7
M  V30 7 1 7 8
M  V30 8 2 8 9
M  V30 9 2 8 10
M  V30 10 1 8 11
M  V30 11 1 11 12
M  V30 12 1 11 13
M  V30 13 1 12 14
M  V30 14 2 14 15
M  V30 15 1 14 16
M  V30 16 1 6 7
M  V30 17 1 12 13
M  V30 18 1 3 17
M  V30 19 1 4 18
M  V30 20 1 5 19
M  V30 21 1 6 20
M  V30 22 1 11 21
M  V30 23 1 12 22
M  V30 24 1 13 23
M  V30 25 1 13 24
M  V30 26 1 16 25
M  V30 END BOND
M  V30 BEGIN COLLECTION
M  V30 MDLV30/STEABS ATOMS=(2 11 12)
M  V30 END COLLECTION
M  V30 END CTAB
M  END
>  <Column 1>
2842

>  <level_0>
4083

>  <index>
4083

>  <Unnamed: 0>
4083

>  <NO.>
4095

>  <Name>
salicyclic acid

>  <IUPAC_name>
(1r-2r)-2-(4-chlorophenyl)sulfonylcyclopropane-1-carboxylic acid

>  <SMILES>
O=C(O)[C@H]1C[C@H]1S(=O)(=O)c1ccc(Cl)cc1

>  <CID>
100000338

>  <logBB>


>  <BBB+/BBB->
BBB-

>  <Inchi>
InChI=1S/C10H9ClO4S/c11-6-1-3-7(4-2-6)16(14-15)9-5-8(9)10(12)13/h1-4-8-9H-5H2-(H-12-13)/t8--9+/m0/s1

>  <threshold>
-1

>  <reference>
R16|R16|R10|R10|

>  <group>
B

>  <Class>
-1

>  <ABC>
12.46

>  <ABCGG>
11.99

>  <nAcid>
1

>  <nBase>
0

>  <nAromAtom>
6

>  <nAromBond>
6

>  <nAtom>
25

>  <nHeavyAtom>
16

>  <nSpiro>
0

>  <nBridgehead>
0

>  <nHetero>
6

>  <nN>
0

>  <nO>
4

>  <nF>
0

>  <BalabanJ>
1.93

>  <BertzCT>
520.25

>  <nBonds>
26

>  <nBondsO>
17

>  <nBondsS>
17

>  <nBondsD>
3

>  <nBondsT>
0

>  <nBondsA>
6

>  <nBondsM>
9

>  <nBondsKS>
20

>  <nBondsKD>
6

>  <RNCG>
0.33

>  <RPCG>
0.21

>  <FCSP3>
0.3

>  <SZ>
22.33

>  <Sm>
21.7

>  <Sv>
17.58

>  <Sse>
26.16

>  <Sp>
18.56

>  <Si>
27.78

>  <MZ>
0.89

>  <Mm>
0.87

>  <Mv>
0.7

>  <Mse>
1.05

>  <Mp>
0.74

>  <Mi>
1.11

>  <NsCH3>
0

>  <NdCH2>
0

>  <NssCH2>
1

>  <NtCH>
0

>  <NdsCH>
0

>  <NaaCH>
4

>  <NsssCH>
2

>  <NddC>
0

>  <NtsC>
0

>  <NdssC>
1

>  <NaasC>
2

>  <NaaaC>
0

>  <NssssC>
0

>  <NsNH3>
0

>  <NsNH2>
0

>  <NssNH2>
0

>  <NdNH>
0

>  <NssNH>
0

>  <NaaNH>
0

>  <NtN>
0

>  <NsssNH>
0

>  <NdsN>
0

>  <NaaN>
0

>  <NsssN>
0

>  <NddsN>
0

>  <NaasN>
0

>  <NssssN>
0

>  <NsOH>
1

>  <NdO>
3

>  <NssO>
0

>  <NaaO>
0

>  <NsF>
0

>  <NsSiH3>
0

>  <NssSiH2>
0

>  <NsssSiH>
0

>  <NssssSi>
0

>  <NsPH2>
0

>  <NssPH>
0

>  <NsssP>
0

>  <NdsssP>
0

>  <NsssssP>
0

>  <NsSH>
0

>  <NdS>
0

>  <NssS>
0

>  <NaaS>
0

>  <NdssS>
0

>  <NddssS>
1

>  <NsCl>
1

>  <NsBr>
0

>  <NsI>
0

>  <fragCpx>
49.06

>  <fMF>
0.4

>  <nHBAcc>
3

>  <nHBDon>
1

>  <Kier1>
12.46

>  <Kier2>
4.35

>  <Lipinski>
1

>  <GhoseFilter>
1

>  <FilterItLogS>
-2.08

>  <VMcGowan>
164.91

>  <LabuteASA>
97.77

>  <PEOE_VSA1>
5.11

>  <PEOE_VSA2>
4.79

>  <PEOE_VSA3>
8.42

>  <PEOE_VSA4>
0

>  <PEOE_VSA5>
0

>  <PEOE_VSA6>
11.6

>  <PEOE_VSA7>
30.69

>  <PEOE_VSA8>
5.02

>  <PEOE_VSA9>
16.06

>  <PEOE_VSA10>
0

>  <PEOE_VSA11>
9.84

>  <PEOE_VSA12>
0

>  <PEOE_VSA13>
0

>  <SMR_VSA1>
18.32

>  <SMR_VSA2>
0

>  <SMR_VSA3>
0

>  <SMR_VSA4>
5.92

>  <SMR_VSA5>
16.57

>  <SMR_VSA6>
0

>  <SMR_VSA7>
29.29

>  <SMR_VSA8>
0

>  <SMR_VSA9>
0

>  <SlogP_VSA1>
0

>  <SlogP_VSA2>
24.74

>  <SlogP_VSA3>
14.63

>  <SlogP_VSA4>
5.92

>  <SlogP_VSA5>
6.42

>  <SlogP_VSA6>
29.16

>  <SlogP_VSA7>
5.02

>  <SlogP_VSA8>
0

>  <SlogP_VSA9>
0

>  <SlogP_VSA10>
0

>  <SlogP_VSA11>
0

>  <EState_VSA1>
26.97

>  <EState_VSA2>
11.32

>  <EState_VSA3>
5.02

>  <EState_VSA4>
0

>  <EState_VSA5>
24.27

>  <EState_VSA6>
0

>  <EState_VSA7>
0

>  <EState_VSA8>
0

>  <EState_VSA9>
16.71

>  <EState_VSA10>
13.21

>  <VSA_EState1>
23.83

>  <VSA_EState2>
10.75

>  <VSA_EState3>
8.36

>  <VSA_EState4>
0

>  <VSA_EState5>
-1.82

>  <VSA_EState6>
5.75

>  <VSA_EState7>
0.19

>  <VSA_EState8>
0

>  <VSA_EState9>
-3.52

>  <apol>
30.99

>  <bpol>
17.06

>  <nRing>
2

>  <nHRing>
0

>  <naRing>
1

>  <naHRing>
0

>  <nARing 2>
1

>  <nAHRing 2>
0

>  <nFRing>
0

>  <nFHRing>
0

>  <nFaRing>
0

>  <nFaHRing>
0

>  <nFARing 2>
0

>  <nFAHRing 2>
0

>  <nRot>
3

>  <SLogP>
1.59

>  <SMR>
58.17

>  <TopoPSA(NO)>
71.44

>  <TopoPSA>
79.82

>  <JGI1>
0.29

>  <JGI2>
0.12

>  <JGI3>
0.08

>  <JGI4>
0.06

>  <JGI5>
0.04

>  <Diameter>
9

>  <Radius>
5

>  <TMWC10>
105.82

>  <TSRW10>
68.84

>  <MW>
259.99

>  <AMW>
10.4

>  <WPath>
440

>  <WPol>
24

>  <Zagreb1>
86

>  <Zagreb2>
103

>  <mZagreb2>
3.39

>  <yes>


>  <nAR-cont>
0.816016

>  <nHA-cont>
0.954961865

>  <MWHBN>
0.24807424

>  <MWHBN-cont>
0.96295569

>  <TPSA-cont>
0.442806835

>  <pka_cont>
0.97

>  <yes.1>


>  <BBB_SCORE>
4.58602507

>  <MMFF94 Energy>
28.774

$$$$
Compound 2329
Actelion Java MolfileCreator 2.0

  0  0  0  0  0  0              0 V3000
M  V30 BEGIN CTAB
M  V30 COUNTS 44 48 0 0 0
M  V30 BEGIN ATOM
M  V30 1 Br 3.3994 -6.641 4.9777 0
M  V30 2 C 2.4952 -4.9924 4.6378 0
M  V30 3 S 2.7569 -4.0611 3.2517 0
M  V30 4 C 1.5721 -4.4468 5.4903 0
M  V30 5 C 1.6197 -2.8716 3.7554 0
M  V30 6 C 1.063 -3.2136 4.9771 0
M  V30 7 C 1.3453 -1.7121 2.9537 0
M  V30 8 N 0.4078 -0.7693 3.2718 0
M  V30 9 C 1.8969 -1.2649 1.7723 0
M  V30 10 N 0.3091 0.2397 2.391 0
M  V30 11 C 1.217 -0.0578 1.4398 0
M  V30 12 C 1.5313 0.7961 0.2714 0
M  V30 13 O 2.6589 0.7401 -0.2245 0
M  V30 14 N 0.5591 1.6658 -0.2503 0
M  V30 15 C -0.8447 1.6968 0.1723 0
M  V30 16 C 1.0095 2.7338 -1.1374 0
M  V30 17 C -1.8182 2.0733 -0.9641 0 CFG=2
M  V30 18 C 0.0057 3.1105 -2.2351 0 CFG=2
M  V30 19 C -1.9065 0.9452 -1.9773 0
M  V30 20 C -1.3684 3.3675 -1.6329 0
M  V30 21 C -0.0944 2.0269 -3.3147 0
M  V30 22 N -1.031 0.9325 -3.0649 0
M  V30 23 C -2.8125 -0.039 -1.8363 0
M  V30 24 C -1.0501 -0.0852 -4.0258 0
M  V30 25 C -2.8775 -1.1256 -2.776 0
M  V30 26 O -0.3233 -0.1256 -5.0159 0
M  V30 27 C -2.0424 -1.1704 -3.8185 0
M  V30 28 H 1.2714 -4.894 6.4298 0
M  V30 29 H 0.3243 -2.6189 5.4992 0
M  V30 30 H -0.1988 -0.75 4.0829 0
M  V30 31 H 2.693 -1.7237 1.2009 0
M  V30 32 H -1.1464 0.7251 0.5709 0
M  V30 33 H -0.9163 2.4346 0.9806 0
M  V30 34 H 1.979 2.4925 -1.5862 0
M  V30 35 H 1.1788 3.6062 -0.4927 0
M  V30 36 H -2.8099 2.2408 -0.5233 0
M  V30 37 H 0.3732 4.0283 -2.7112 0
M  V30 38 H -2.0795 3.6735 -2.4103 0
M  V30 39 H -1.3216 4.1827 -0.9005 0
M  V30 40 H 0.8935 1.6027 -3.5339 0
M  V30 41 H -0.4319 2.5001 -4.2473 0
M  V30 42 H -3.506 -0.0576 -1.0009 0
M  V30 43 H -3.6106 -1.9086 -2.6146 0
M  V30 44 H -2.0517 -1.968 -4.5489 0
M  V30 END ATOM
M  V30 BEGIN BOND
M  V30 1 1 1 2
M  V30 2 1 2 3
M  V30 3 2 2 4
M  V30 4 1 3 5
M  V30 5 1 4 6
M  V30 6 1 5 7
M  V30 7 1 7 8
M  V30 8 2 7 9
M  V30 9 1 8 10
M  V30 10 1 9 11
M  V30 11 1 11 12
M  V30 12 2 12 13
M  V30 13 1 12 14
M  V30 14 1 14 15
M  V30 15 1 14 16
M  V30 16 1 15 17
M  V30 17 1 16 18
M  V30 18 1 17 19
M  V30 19 1 17 20
M  V30 20 1 18 21
M  V30 21 1 19 22
M  V30 22 2 19 23
M  V30 23 1 22 24
M  V30 24 1 23 25
M  V30 25 2 24 26
M  V30 26 1 24 27
M  V30 27 2 5 6
M  V30 28 2 10 11
M  V30 29 1 18 20
M  V30 30 1 21 22
M  V30 31 2 25 27
M  V30 32 1 4 28
M  V30 33 1 6 29
M  V30 34 1 8 30
M  V30 35 1 9 31
M  V30 36 1 15 32
M  V30 37 1 15 33
M  V30 38 1 16 34
M  V30 39 1 16 35
M  V30 40 1 17 36
M  V30 41 1 18 37
M  V30 42 1 20 38
M  V30 43 1 20 39
M  V30 44 1 21 40
M  V30 45 1 21 41
M  V30 46 1 23 42
M  V30 47 1 25 43
M  V30 48 1 27 44
M  V30 END BOND
M  V30 BEGIN COLLECTION
M  V30 MDLV30/STEABS ATOMS=(2 17 18)
M  V30 END COLLECTION
M  V30 END CTAB
M  END
>  <Column 1>
2843

>  <level_0>
4084

>  <index>
4084

>  <Unnamed: 0>
4084

>  <NO.>
4096

>  <Name>
amoxicillin

>  <IUPAC_name>
(1r-9s)-11-[5-(5-bromothiophen-2-yl)-1h-pyrazole-3-carbonyl]-7-11-diazatricyclo[7.3.1.02-7]trideca-2-4-dien-6-one

>  <SMILES>
O=C(c1cc(-c2ccc(Br)s2)[nH]n1)N1C[C@@H]2C[C@H](C1)c1cccc(=O)n1C2

>  <CID>
100002171

>  <logBB>


>  <BBB+/BBB->
BBB-

>  <Inchi>
InChI=1S/C19H17BrN4O2S/c20-17-5-4-16(27-17)13-7-14(22-21-13)19(26)23-8-11-6-12(10-23)15-2-1-3-18(25)24(15)9-11/h1-5-7-11-12H-6-8-10H2-(H-21-22)/t11--12+/m0/s1

>  <threshold>
-1

>  <reference>
R16|R10|R10|

>  <group>
B

>  <Class>
1

>  <ABC>
22.01

>  <ABCGG>
16.74

>  <nAcid>
0

>  <nBase>
0

>  <nAromAtom>
16

>  <nAromBond>
16

>  <nAtom>
44

>  <nHeavyAtom>
27

>  <nSpiro>
0

>  <nBridgehead>
2

>  <nHetero>
8

>  <nN>
4

>  <nO>
2

>  <nF>
0

>  <BalabanJ>
1.2

>  <BertzCT>
1085.32

>  <nBonds>
48

>  <nBondsO>
31

>  <nBondsS>
30

>  <nBondsD>
2

>  <nBondsT>
0

>  <nBondsA>
16

>  <nBondsM>
18

>  <nBondsKS>
40

>  <nBondsKD>
8

>  <RNCG>
0.17

>  <RPCG>
0.14

>  <FCSP3>
0.32

>  <SZ>
37.67

>  <Sm>
37.08

>  <Sv>
30.54

>  <Sse>
44.61

>  <Sp>
32.95

>  <Si>
49.08

>  <MZ>
0.86

>  <Mm>
0.84

>  <Mv>
0.69

>  <Mse>
1.01

>  <Mp>
0.75

>  <Mi>
1.12

>  <NsCH3>
0

>  <NdCH2>
0

>  <NssCH2>
4

>  <NtCH>
0

>  <NdsCH>
0

>  <NaaCH>
6

>  <NsssCH>
2

>  <NddC>
0

>  <NtsC>
0

>  <NdssC>
1

>  <NaasC>
5

>  <NaaaC>
0

>  <NssssC>
0

>  <NsNH3>
0

>  <NsNH2>
0

>  <NssNH2>
0

>  <NdNH>
0

>  <NssNH>
0

>  <NaaNH>
1

>  <NtN>
0

>  <NsssNH>
0

>  <NdsN>
0

>  <NaaN>
1

>  <NsssN>
1

>  <NddsN>
0

>  <NaasN>
1

>  <NssssN>
0

>  <NsOH>
0

>  <NdO>
2

>  <NssO>
0

>  <NaaO>
0

>  <NsF>
0

>  <NsSiH3>
0

>  <NssSiH2>
0

>  <NsssSiH>
0

>  <NssssSi>
0

>  <NsPH2>
0

>  <NssPH>
0

>  <NsssP>
0

>  <NdsssP>
0

>  <NsssssP>
0

>  <NsSH>
0

>  <NdS>
0

>  <NssS>
0

>  <NaaS>
1

>  <NdssS>
0

>  <NddssS>
0

>  <NsCl>
0

>  <NsBr>
1

>  <NsI>
0

>  <fragCpx>
259.08

>  <fMF>
0.55

>  <nHBAcc>
5

>  <nHBDon>
1

>  <Kier1>
18.99

>  <Kier2>
7.68

>  <Lipinski>
1

>  <GhoseFilter>
1

>  <FilterItLogS>
-4.56

>  <VMcGowan>
275.38

>  <LabuteASA>
167.51

>  <PEOE_VSA1>
9.47

>  <PEOE_VSA2>
14.69

>  <PEOE_VSA3>
0

>  <PEOE_VSA4>
5.1

>  <PEOE_VSA5>
11.34

>  <PEOE_VSA6>
6.07

>  <PEOE_VSA7>
52.53

>  <PEOE_VSA8>
37.31

>  <PEOE_VSA9>
14.36

>  <PEOE_VSA10>
0

>  <PEOE_VSA11>
5.69

>  <PEOE_VSA12>
0

>  <PEOE_VSA13>
11.47

>  <SMR_VSA1>
4.79

>  <SMR_VSA2>
0

>  <SMR_VSA3>
19.66

>  <SMR_VSA4>
5.92

>  <SMR_VSA5>
18.88

>  <SMR_VSA6>
13.09

>  <SMR_VSA7>
61.93

>  <SMR_VSA8>
0

>  <SMR_VSA9>
10.57

>  <SlogP_VSA1>
5.56

>  <SlogP_VSA2>
38.66

>  <SlogP_VSA3>
6.54

>  <SlogP_VSA4>
5.92

>  <SlogP_VSA5>
28.52

>  <SlogP_VSA6>
44.98

>  <SlogP_VSA7>
0

>  <SlogP_VSA8>
10.57

>  <SlogP_VSA9>
0

>  <SlogP_VSA10>
0

>  <SlogP_VSA11>
0

>  <EState_VSA1>
0

>  <EState_VSA2>
17.38

>  <EState_VSA3>
31.25

>  <EState_VSA4>
26.47

>  <EState_VSA5>
0

>  <EState_VSA6>
17.4

>  <EState_VSA7>
39.8

>  <EState_VSA8>
26.13

>  <EState_VSA9>
0

>  <EState_VSA10>
9.59

>  <VSA_EState1>
2.92

>  <VSA_EState2>
28.1

>  <VSA_EState3>
7.22

>  <VSA_EState4>
2.39

>  <VSA_EState5>
0.48

>  <VSA_EState6>
11.24

>  <VSA_EState7>
1.03

>  <VSA_EState8>
1.98

>  <VSA_EState9>
0

>  <apol>
55.02

>  <bpol>
26.62

>  <nRing>
5

>  <nHRing>
5

>  <naRing>
3

>  <naHRing>
3

>  <nARing 2>
2

>  <nAHRing 2>
2

>  <nFRing>
1

>  <nFHRing>
1

>  <nFaRing>
0

>  <nFaHRing>
0

>  <nFARing 2>
1

>  <nFAHRing 2>
1

>  <nRot>
2

>  <SLogP>
3.32

>  <SMR>
107.05

>  <TopoPSA(NO)>
70.99

>  <TopoPSA>
99.23

>  <JGI1>
0.19

>  <JGI2>
0.07

>  <JGI3>
0.04

>  <JGI4>
0.04

>  <JGI5>
0.03

>  <Diameter>
14

>  <Radius>
7

>  <TMWC10>
135.8

>  <TSRW10>
78.42

>  <MW>
444.03

>  <AMW>
10.09

>  <WPath>
1912

>  <WPol>
45

>  <Zagreb1>
154

>  <Zagreb2>
187

>  <mZagreb2>
5.67

>  <yes>


>  <nAR-cont>
1

>  <nHA-cont>
0.860070871

>  <MWHBN>
0.284737779

>  <MWHBN-cont>
0.883810059

>  <TPSA-cont>
0.307312982

>  <pka_cont>
0.97

>  <yes.1>


>  <BBB_SCORE>
4.285411923

>  <MMFF94 Energy>
57.815

$$$$
Compound 2330
Actelion Java MolfileCreator 2.0

  0  0  0  0  0  0              0 V3000
M  V30 BEGIN CTAB
M  V30 COUNTS 48 51 0 0 0
M  V30 BEGIN ATOM
M  V30 1 S -0.3238 2.3496 3.81 0
M  V30 2 C 0.3669 3.4096 5.0667 0
M  V30 3 C 1.1985 1.6097 3.1369 0
M  V30 4 N 1.7089 3.4399 5.2247 0
M  V30 5 C -0.4967 4.1727 5.8452 0
M  V30 6 C 0.8817 0.6403 2.0215 0
M  V30 7 C 2.2011 4.2531 6.1854 0
M  V30 8 C 0.038 5.0022 6.828 0
M  V30 9 C 0.7929 1.0884 0.6939 0
M  V30 10 C 0.6569 -0.7169 2.3017 0
M  V30 11 C 1.4147 5.0453 7.004 0
M  V30 12 C 0.4873 0.1963 -0.3356 0
M  V30 13 C 0.352 -1.6111 1.2737 0
M  V30 14 C 0.2482 -1.1493 -0.0407 0
M  V30 15 C -0.0649 -2.1174 -1.1169 0
M  V30 16 O 0.5733 -3.1664 -1.1633 0
M  V30 17 N -1.0728 -1.8036 -2.0078 0
M  V30 18 C -1.3338 -2.639 -3.1822 0 CFG=2
M  V30 19 C -2.1333 -0.8291 -1.8143 0
M  V30 20 C -0.2343 -2.5384 -4.2314 0
M  V30 21 C -2.7005 -2.1545 -3.7055 0
M  V30 22 C -3.3298 -1.4689 -2.4988 0
M  V30 23 N -0.1726 -1.416 -4.9996 0
M  V30 24 C 0.7056 -3.5622 -4.3486 0
M  V30 25 C 0.8275 -1.3314 -5.9038 0
M  V30 26 C 1.7244 -3.4454 -5.2903 0
M  V30 27 C 1.7876 -2.3104 -6.0871 0
M  V30 28 H 1.7407 1.0839 3.9314 0
M  V30 29 H 1.8592 2.3968 2.7553 0
M  V30 30 H -1.5706 4.1277 5.6952 0
M  V30 31 H 3.2832 4.2508 6.2832 0
M  V30 32 H -0.616 5.6078 7.4489 0
M  V30 33 H 0.967 2.136 0.4561 0
M  V30 34 H 0.7209 -1.0843 3.3239 0
M  V30 35 H 1.8642 5.6798 7.7598 0
M  V30 36 H 0.4495 0.5491 -1.3632 0
M  V30 37 H 0.1931 -2.6635 1.4962 0
M  V30 38 H -1.4293 -3.6768 -2.837 0
M  V30 39 H -1.8404 0.0965 -2.321 0
M  V30 40 H -2.3219 -0.6271 -0.7567 0
M  V30 41 H -2.6096 -1.4252 -4.5185 0
M  V30 42 H -3.3115 -2.9823 -4.0797 0
M  V30 43 H -4.0982 -0.7415 -2.7741 0
M  V30 44 H -3.7843 -2.2206 -1.8421 0
M  V30 45 H 0.6632 -4.4298 -3.6963 0
M  V30 46 H 0.8381 -0.4214 -6.4963 0
M  V30 47 H 2.4688 -4.2299 -5.3881 0
M  V30 48 H 2.5714 -2.1872 -6.8251 0
M  V30 END ATOM
M  V30 BEGIN BOND
M  V30 1 1 1 2
M  V30 2 1 1 3
M  V30 3 2 2 4
M  V30 4 1 2 5
M  V30 5 1 3 6
M  V30 6 1 4 7
M  V30 7 2 5 8
M  V30 8 2 6 9
M  V30 9 1 6 10
M  V30 10 2 7 11
M  V30 11 1 9 12
M  V30 12 2 10 13
M  V30 13 2 12 14
M  V30 14 1 14 15
M  V30 15 2 15 16
M  V30 16 1 15 17
M  V30 17 1 17 18
M  V30 18 1 17 19
M  V30 19 1 18 20
M  V30 20 1 18 21
M  V30 21 1 19 22
M  V30 22 2 20 23
M  V30 23 1 20 24
M  V30 24 1 23 25
M  V30 25 2 24 26
M  V30 26 2 25 27
M  V30 27 1 8 11
M  V30 28 1 13 14
M  V30 29 1 21 22
M  V30 30 1 26 27
M  V30 31 1 3 28
M  V30 32 1 3 29
M  V30 33 1 5 30
M  V30 34 1 7 31
M  V30 35 1 8 32
M  V30 36 1 9 33
M  V30 37 1 10 34
M  V30 38 1 11 35
M  V30 39 1 12 36
M  V30 40 1 13 37
M  V30 41 1 18 38
M  V30 42 1 19 39
M  V30 43 1 19 40
M  V30 44 1 21 41
M  V30 45 1 21 42
M  V30 46 1 22 43
M  V30 47 1 22 44
M  V30 48 1 24 45
M  V30 49 1 25 46
M  V30 50 1 26 47
M  V30 51 1 27 48
M  V30 END BOND
M  V30 BEGIN COLLECTION
M  V30 MDLV30/STEABS ATOMS=(1 18)
M  V30 END COLLECTION
M  V30 END CTAB
M  END
>  <Column 1>
2844

>  <level_0>
4085

>  <index>
4085

>  <Unnamed: 0>
4085

>  <NO.>
4097

>  <Name>
amikacin

>  <IUPAC_name>
[(2s)-2-pyridin-2-ylpyrrolidin-1-yl]-[4-(pyridin-2-ylsulfanylmethyl)phenyl]methanone

>  <SMILES>
O=C(c1ccc(CSc2ccccn2)cc1)N1CCC[C@H]1c1ccccn1

>  <CID>
100002142

>  <logBB>


>  <BBB+/BBB->
BBB+

>  <Inchi>
InChI=1S/C22H21N3OS/c26-22(25-15-5-7-20(25)19-6-1-3-13-23-19)18-11-9-17(10-12-18)16-27-21-8-2-4-14-24-21/h1-4-6-8-14-20H-5-7-15-16H2/t20-/m0/s1

>  <threshold>
-1

>  <reference>
R16|R10|

>  <group>
B

>  <Class>
-1

>  <ABC>
21.16

>  <ABCGG>
16.02

>  <nAcid>
0

>  <nBase>
0

>  <nAromAtom>
18

>  <nAromBond>
18

>  <nAtom>
48

>  <nHeavyAtom>
27

>  <nSpiro>
0

>  <nBridgehead>
0

>  <nHetero>
5

>  <nN>
3

>  <nO>
1

>  <nF>
0

>  <BalabanJ>
1.21

>  <BertzCT>
884.45

>  <nBonds>
51

>  <nBondsO>
30

>  <nBondsS>
32

>  <nBondsD>
1

>  <nBondsT>
0

>  <nBondsA>
18

>  <nBondsM>
19

>  <nBondsKS>
41

>  <nBondsKD>
10

>  <RNCG>
0.18

>  <RPCG>
0.14

>  <FCSP3>
0.23

>  <SZ>
33

>  <Sm>
31.26

>  <Sv>
31.86

>  <Sse>
47.72

>  <Sp>
34.58

>  <Si>
53.36

>  <MZ>
0.69

>  <Mm>
0.65

>  <Mv>
0.66

>  <Mse>
0.99

>  <Mp>
0.72

>  <Mi>
1.11

>  <NsCH3>
0

>  <NdCH2>
0

>  <NssCH2>
4

>  <NtCH>
0

>  <NdsCH>
0

>  <NaaCH>
12

>  <NsssCH>
1

>  <NddC>
0

>  <NtsC>
0

>  <NdssC>
1

>  <NaasC>
4

>  <NaaaC>
0

>  <NssssC>
0

>  <NsNH3>
0

>  <NsNH2>
0

>  <NssNH2>
0

>  <NdNH>
0

>  <NssNH>
0

>  <NaaNH>
0

>  <NtN>
0

>  <NsssNH>
0

>  <NdsN>
0

>  <NaaN>
2

>  <NsssN>
1

>  <NddsN>
0

>  <NaasN>
0

>  <NssssN>
0

>  <NsOH>
0

>  <NdO>
1

>  <NssO>
0

>  <NaaO>
0

>  <NsF>
0

>  <NsSiH3>
0

>  <NssSiH2>
0

>  <NsssSiH>
0

>  <NssssSi>
0

>  <NsPH2>
0

>  <NssPH>
0

>  <NsssP>
0

>  <NdsssP>
0

>  <NsssssP>
0

>  <NsSH>
0

>  <NdS>
0

>  <NssS>
1

>  <NaaS>
0

>  <NdssS>
0

>  <NddssS>
0

>  <NsCl>
0

>  <NsBr>
0

>  <NsI>
0

>  <fragCpx>
198.05

>  <fMF>
0.54

>  <nHBAcc>
4

>  <nHBDon>
0

>  <Kier1>
20.28

>  <Kier2>
10.16

>  <Lipinski>
1

>  <GhoseFilter>
1

>  <FilterItLogS>
-5.49

>  <VMcGowan>
286.56

>  <LabuteASA>
163.21

>  <PEOE_VSA1>
4.9

>  <PEOE_VSA2>
9.78

>  <PEOE_VSA3>
4.98

>  <PEOE_VSA4>
0

>  <PEOE_VSA5>
11.76

>  <PEOE_VSA6>
24.27

>  <PEOE_VSA7>
54.8

>  <PEOE_VSA8>
30.25

>  <PEOE_VSA9>
16.76

>  <PEOE_VSA10>
0

>  <PEOE_VSA11>
0

>  <PEOE_VSA12>
0

>  <PEOE_VSA13>
5.91

>  <SMR_VSA1>
4.79

>  <SMR_VSA2>
0

>  <SMR_VSA3>
14.87

>  <SMR_VSA4>
0

>  <SMR_VSA5>
29.66

>  <SMR_VSA6>
6.54

>  <SMR_VSA7>
89.88

>  <SMR_VSA8>
0

>  <SMR_VSA9>
0

>  <SlogP_VSA1>
0

>  <SlogP_VSA2>
27.32

>  <SlogP_VSA3>
5.75

>  <SlogP_VSA4>
0

>  <SlogP_VSA5>
40.5

>  <SlogP_VSA6>
78.08

>  <SlogP_VSA7>
0

>  <SlogP_VSA8>
0

>  <SlogP_VSA9>
0

>  <SlogP_VSA10>
0

>  <SlogP_VSA11>
0

>  <EState_VSA1>
0

>  <EState_VSA2>
11.95

>  <EState_VSA3>
0

>  <EState_VSA4>
41.42

>  <EState_VSA5>
5.56

>  <EState_VSA6>
24.16

>  <EState_VSA7>
65.56

>  <EState_VSA8>
9.97

>  <EState_VSA9>
0

>  <EState_VSA10>
4.79

>  <VSA_EState1>
0

>  <VSA_EState2>
23.74

>  <VSA_EState3>
1.01

>  <VSA_EState4>
2.9

>  <VSA_EState5>
0.93

>  <VSA_EState6>
19.84

>  <VSA_EState7>
5.59

>  <VSA_EState8>
0.79

>  <VSA_EState9>
0

>  <apol>
57.74

>  <bpol>
28.39

>  <nRing>
4

>  <nHRing>
3

>  <naRing>
3

>  <naHRing>
2

>  <nARing 2>
1

>  <nAHRing 2>
1

>  <nFRing>
0

>  <nFHRing>
0

>  <nFaRing>
0

>  <nFaHRing>
0

>  <nFARing 2>
0

>  <nFAHRing 2>
0

>  <nRot>
5

>  <SLogP>
4.75

>  <SMR>
107.49

>  <TopoPSA(NO)>
46.09

>  <TopoPSA>
71.39

>  <JGI1>
0.12

>  <JGI2>
0.07

>  <JGI3>
0.03

>  <JGI4>
0.03

>  <JGI5>
0.02

>  <Diameter>
16

>  <Radius>
8

>  <TMWC10>
132.37

>  <TSRW10>
75.53

>  <MW>
375.14

>  <AMW>
7.82

>  <WPath>
2131

>  <WPol>
39

>  <Zagreb1>
140

>  <Zagreb2>
163

>  <mZagreb2>
6.03

>  <yes>


>  <nAR-cont>
0.816016

>  <nHA-cont>
0.860070871

>  <MWHBN>
0.206520565

>  <MWHBN-cont>
0.999893448

>  <TPSA-cont>
0.501653469

>  <pka_cont>
0.97

>  <yes.1>


>  <BBB_SCORE>
4.664233982

>  <MMFF94 Energy>
61.524

$$$$
Compound 2331
Actelion Java MolfileCreator 2.0

  0  0  0  0  0  0              0 V3000
M  V30 BEGIN CTAB
M  V30 COUNTS 49 52 0 0 0
M  V30 BEGIN ATOM
M  V30 1 O 0.6396 1.9197 -1.8397 0
M  V30 2 C 0.6381 1.1434 -0.8885 0
M  V30 3 N -0.289 1.181 0.149 0
M  V30 4 C 1.6848 0.1063 -0.8768 0
M  V30 5 C -0.2418 0.3333 1.353 0
M  V30 6 C -1.4 2.1383 0.0479 0
M  V30 7 C 1.3437 -1.2294 -1.1255 0
M  V30 8 C 3.0114 0.4846 -0.671 0
M  V30 9 C -0.0142 1.1099 2.6334 0
M  V30 10 C -2.6986 1.5098 -0.4712 0 CFG=1
M  V30 11 C 2.334 -2.2205 -1.1262 0
M  V30 12 C 4.0029 -0.4914 -0.6702 0
M  V30 13 N -1.0 1.0669 3.5655 0
M  V30 14 C 1.1627 1.8317 2.8253 0
M  V30 15 O -3.7709 2.4748 -0.4348 0
M  V30 16 C -2.6284 1.0185 -1.9092 0
M  V30 17 C 1.9848 -3.6182 -1.3707 0
M  V30 18 C 3.6641 -1.8315 -0.8895 0
M  V30 19 C -0.8077 1.7651 4.7062 0
M  V30 20 C 1.3324 2.5384 4.0124 0
M  V30 21 C -4.5471 2.3372 -1.6338 0
M  V30 22 C -4.0786 1.0717 -2.3186 0
M  V30 23 O 2.9939 -4.5307 -1.2262 0
M  V30 24 C 0.8236 -4.2796 -1.7258 0
M  V30 25 C 0.3295 2.5072 4.973 0
M  V30 26 C 2.4763 -5.757 -1.489 0
M  V30 27 C 1.1428 -5.6578 -1.8021 0
M  V30 28 H -1.1916 -0.2103 1.4094 0
M  V30 29 H 0.5447 -0.4212 1.2893 0
M  V30 30 H -1.1185 2.9723 -0.6066 0
M  V30 31 H -1.5749 2.5954 1.0283 0
M  V30 32 H 0.3041 -1.4804 -1.3177 0
M  V30 33 H 3.2688 1.53 -0.5215 0
M  V30 34 H -3.0027 0.6847 0.1843 0
M  V30 35 H 5.0421 -0.215 -0.5094 0
M  V30 36 H 1.9329 1.8537 2.062 0
M  V30 37 H -2.1899 0.0209 -1.9986 0
M  V30 38 H -2.0501 1.7089 -2.5342 0
M  V30 39 H 4.4593 -2.5756 -0.8882 0
M  V30 40 H -1.6211 1.711 5.4244 0
M  V30 41 H 2.2384 3.1128 4.1834 0
M  V30 42 H -4.3572 3.2183 -2.256 0
M  V30 43 H -5.6112 2.3099 -1.383 0
M  V30 44 H -4.2305 1.0906 -3.4008 0
M  V30 45 H -4.6123 0.2049 -1.9112 0
M  V30 46 H -0.1397 -3.8277 -1.9132 0
M  V30 47 H 0.4299 3.05 5.906 0
M  V30 48 H 3.1698 -6.5827 -1.4132 0
M  V30 49 H 0.4836 -6.476 -2.0552 0
M  V30 END ATOM
M  V30 BEGIN BOND
M  V30 1 2 1 2
M  V30 2 1 2 3
M  V30 3 1 2 4
M  V30 4 1 3 5
M  V30 5 1 3 6
M  V30 6 2 4 7
M  V30 7 1 4 8
M  V30 8 1 5 9
M  V30 9 1 6 10
M  V30 10 1 7 11
M  V30 11 2 8 12
M  V30 12 2 9 13
M  V30 13 1 9 14
M  V30 14 1 10 15
M  V30 15 1 10 16
M  V30 16 1 11 17
M  V30 17 2 11 18
M  V30 18 1 13 19
M  V30 19 2 14 20
M  V30 20 1 15 21
M  V30 21 1 16 22
M  V30 22 1 17 23
M  V30 23 2 17 24
M  V30 24 2 19 25
M  V30 25 1 23 26
M  V30 26 1 24 27
M  V30 27 1 12 18
M  V30 28 1 20 25
M  V30 29 1 21 22
M  V30 30 2 26 27
M  V30 31 1 5 28
M  V30 32 1 5 29
M  V30 33 1 6 30
M  V30 34 1 6 31
M  V30 35 1 7 32
M  V30 36 1 8 33
M  V30 37 1 10 34
M  V30 38 1 12 35
M  V30 39 1 14 36
M  V30 40 1 16 37
M  V30 41 1 16 38
M  V30 42 1 18 39
M  V30 43 1 19 40
M  V30 44 1 20 41
M  V30 45 1 21 42
M  V30 46 1 21 43
M  V30 47 1 22 44
M  V30 48 1 22 45
M  V30 49 1 24 46
M  V30 50 1 25 47
M  V30 51 1 26 48
M  V30 52 1 27 49
M  V30 END BOND
M  V30 BEGIN COLLECTION
M  V30 MDLV30/STEABS ATOMS=(1 10)
M  V30 END COLLECTION
M  V30 END CTAB
M  END
>  <Column 1>
2845

>  <level_0>
4086

>  <index>
4086

>  <Unnamed: 0>
4086

>  <NO.>
4098

>  <Name>
etoposide

>  <IUPAC_name>
3-(furan-2-yl)-n-[[(2s)-oxolan-2-yl]methyl]-n-(pyridin-2-ylmethyl)benzamide

>  <SMILES>
O=C(c1cccc(-c2ccco2)c1)N(Cc1ccccn1)C[C@@H]1CCCO1

>  <CID>
100003310

>  <logBB>


>  <BBB+/BBB->
BBB-

>  <Inchi>
InChI=1S/C22H22N2O3/c25-22(18-7-3-6-17(14-18)21-10-5-13-27-21)24(16-20-9-4-12-26-20)15-19-8-1-2-11-23-19/h1-3-5-8-10-11-13-14-20H-4-9-12-15-16H2/t20-/m0/s1

>  <threshold>
-1

>  <reference>
R16|R10|

>  <group>
B

>  <Class>
1

>  <ABC>
21.2

>  <ABCGG>
17.4

>  <nAcid>
0

>  <nBase>
0

>  <nAromAtom>
17

>  <nAromBond>
17

>  <nAtom>
49

>  <nHeavyAtom>
27

>  <nSpiro>
0

>  <nBridgehead>
0

>  <nHetero>
5

>  <nN>
2

>  <nO>
3

>  <nF>
0

>  <BalabanJ>
1.37

>  <BertzCT>
871.59

>  <nBonds>
52

>  <nBondsO>
30

>  <nBondsS>
34

>  <nBondsD>
1

>  <nBondsT>
0

>  <nBondsA>
17

>  <nBondsM>
18

>  <nBondsKS>
43

>  <nBondsKD>
9

>  <RNCG>
0.22

>  <RPCG>
0.12

>  <FCSP3>
0.27

>  <SZ>
32

>  <Sm>
30.17

>  <Sv>
31.62

>  <Sse>
49.08

>  <Sp>
33.54

>  <Si>
54.78

>  <MZ>
0.65

>  <Mm>
0.62

>  <Mv>
0.65

>  <Mse>
1

>  <Mp>
0.68

>  <Mi>
1.12

>  <NsCH3>
0

>  <NdCH2>
0

>  <NssCH2>
5

>  <NtCH>
0

>  <NdsCH>
0

>  <NaaCH>
11

>  <NsssCH>
1

>  <NddC>
0

>  <NtsC>
0

>  <NdssC>
1

>  <NaasC>
4

>  <NaaaC>
0

>  <NssssC>
0

>  <NsNH3>
0

>  <NsNH2>
0

>  <NssNH2>
0

>  <NdNH>
0

>  <NssNH>
0

>  <NaaNH>
0

>  <NtN>
0

>  <NsssNH>
0

>  <NdsN>
0

>  <NaaN>
1

>  <NsssN>
1

>  <NddsN>
0

>  <NaasN>
0

>  <NssssN>
0

>  <NsOH>
0

>  <NdO>
1

>  <NssO>
1

>  <NaaO>
1

>  <NsF>
0

>  <NsSiH3>
0

>  <NssSiH2>
0

>  <NsssSiH>
0

>  <NssssSi>
0

>  <NsPH2>
0

>  <NssPH>
0

>  <NsssP>
0

>  <NdsssP>
0

>  <NsssssP>
0

>  <NsSH>
0

>  <NdS>
0

>  <NssS>
0

>  <NaaS>
0

>  <NdssS>
0

>  <NddssS>
0

>  <NsCl>
0

>  <NsBr>
0

>  <NsI>
0

>  <fragCpx>
198.05

>  <fMF>
0.53

>  <nHBAcc>
4

>  <nHBDon>
0

>  <Kier1>
20.28

>  <Kier2>
10.16

>  <Lipinski>
1

>  <GhoseFilter>
1

>  <FilterItLogS>
-5.27

>  <VMcGowan>
276.27

>  <LabuteASA>
158.14

>  <PEOE_VSA1>
14.05

>  <PEOE_VSA2>
9.78

>  <PEOE_VSA3>
0

>  <PEOE_VSA4>
0

>  <PEOE_VSA5>
0

>  <PEOE_VSA6>
18.2

>  <PEOE_VSA7>
49.24

>  <PEOE_VSA8>
30.48

>  <PEOE_VSA9>
24.61

>  <PEOE_VSA10>
5.76

>  <PEOE_VSA11>
0

>  <PEOE_VSA12>
0

>  <PEOE_VSA13>
5.91

>  <SMR_VSA1>
13.95

>  <SMR_VSA2>
0

>  <SMR_VSA3>
9.88

>  <SMR_VSA4>
0

>  <SMR_VSA5>
25.49

>  <SMR_VSA6>
13.15

>  <SMR_VSA7>
78.31

>  <SMR_VSA8>
0

>  <SMR_VSA9>
11.32

>  <SlogP_VSA1>
0

>  <SlogP_VSA2>
35.05

>  <SlogP_VSA3>
11.28

>  <SlogP_VSA4>
0

>  <SlogP_VSA5>
28.89

>  <SlogP_VSA6>
71.47

>  <SlogP_VSA7>
0

>  <SlogP_VSA8>
11.32

>  <SlogP_VSA9>
0

>  <SlogP_VSA10>
0

>  <SlogP_VSA11>
0

>  <EState_VSA1>
0

>  <EState_VSA2>
12.01

>  <EState_VSA3>
18.65

>  <EState_VSA4>
36.47

>  <EState_VSA5>
0

>  <EState_VSA6>
12.46

>  <EState_VSA7>
59.5

>  <EState_VSA8>
4.98

>  <EState_VSA9>
9.15

>  <EState_VSA10>
4.79

>  <VSA_EState1>
11.22

>  <VSA_EState2>
19.48

>  <VSA_EState3>
0

>  <VSA_EState4>
2.39

>  <VSA_EState5>
0.73

>  <VSA_EState6>
17.04

>  <VSA_EState7>
5.5

>  <VSA_EState8>
1.8

>  <VSA_EState9>
0

>  <apol>
56.02

>  <bpol>
29.26

>  <nRing>
4

>  <nHRing>
3

>  <naRing>
3

>  <naHRing>
2

>  <nARing 2>
1

>  <nAHRing 2>
1

>  <nFRing>
0

>  <nFHRing>
0

>  <nFaRing>
0

>  <nFaHRing>
0

>  <nFARing 2>
0

>  <nFAHRing 2>
0

>  <nRot>
6

>  <SLogP>
4.16

>  <SMR>
102.1

>  <TopoPSA(NO)>
55.57

>  <TopoPSA>
55.57

>  <JGI1>
0.13

>  <JGI2>
0.06

>  <JGI3>
0.04

>  <JGI4>
0.02

>  <JGI5>
0.02

>  <Diameter>
12

>  <Radius>
6

>  <TMWC10>
132.19

>  <TSRW10>
76.95

>  <MW>
362.16

>  <AMW>
7.39

>  <WPath>
1882

>  <WPol>
36

>  <Zagreb1>
140

>  <Zagreb2>
162

>  <mZagreb2>
6

>  <yes>


>  <nAR-cont>
0.816016

>  <nHA-cont>
0.860070871

>  <MWHBN>
0.210188887

>  <MWHBN-cont>
0.99927206

>  <TPSA-cont>
0.612086893

>  <pka_cont>
0.97

>  <yes.1>


>  <BBB_SCORE>
4.884168747

>  <MMFF94 Energy>
74.01

$$$$
Compound 2332
Actelion Java MolfileCreator 2.0

  0  0  0  0  0  0              0 V3000
M  V30 BEGIN CTAB
M  V30 COUNTS 45 48 0 0 0
M  V30 BEGIN ATOM
M  V30 1 F 1.6102 5.806 5.2404 0
M  V30 2 C 0.7839 4.7302 5.2059 0
M  V30 3 F -0.4566 5.2042 4.931 0
M  V30 4 O 1.2126 3.9008 4.139 0
M  V30 5 C 0.6375 2.6637 4.0602 0
M  V30 6 C 1.3309 1.7464 3.2679 0
M  V30 7 C -0.5599 2.2768 4.67 0
M  V30 8 C 0.8316 0.453 3.0961 0
M  V30 9 C -1.0457 0.9736 4.5126 0
M  V30 10 C 1.5995 -0.5053 2.2765 0
M  V30 11 C -0.3466 0.0546 3.7327 0
M  V30 12 O 2.7406 -0.7754 2.6408 0
M  V30 13 N 1.0014 -1.0559 1.1488 0
M  V30 14 C -0.2662 -0.6006 0.5712 0
M  V30 15 C 1.6915 -2.1387 0.4413 0
M  V30 16 C -0.1955 -0.6048 -0.9153 0
M  V30 17 C 2.0412 -1.7147 -0.9757 0
M  V30 18 N 0.8656 -1.1343 -1.5962 0
M  V30 19 C -1.0598 -0.1454 -1.8851 0
M  V30 20 N 0.7531 -1.0614 -2.9327 0
M  V30 21 C -0.4362 -0.4592 -3.1186 0
M  V30 22 C -0.93 -0.1685 -4.5166 0 CFG=1
M  V30 23 O 0.1794 0.0025 -5.4092 0
M  V30 24 C -1.8544 -1.1699 -5.1645 0
M  V30 25 C -1.5997 -2.6577 -5.0969 0
M  V30 26 C -2.7961 -2.0698 -4.3972 0
M  V30 27 H 0.8064 4.2336 6.1824 0
M  V30 28 H 2.2637 2.0356 2.7881 0
M  V30 29 H -1.1514 2.9674 5.2652 0
M  V30 30 H -1.9716 0.6784 5.0017 0
M  V30 31 H -0.7139 -0.963 3.6299 0
M  V30 32 H -0.5171 0.405 0.9195 0
M  V30 33 H -1.046 -1.2924 0.9086 0
M  V30 34 H 2.5966 -2.4512 0.9714 0
M  V30 35 H 1.0095 -2.9986 0.4313 0
M  V30 36 H 2.8144 -0.939 -0.984 0
M  V30 37 H 2.3688 -2.5687 -1.5762 0
M  V30 38 H -2.0111 0.346 -1.7347 0
M  V30 39 H -1.4521 0.7956 -4.4925 0
M  V30 40 H 0.8949 -0.5104 -4.9798 0
M  V30 41 H -2.2093 -0.7834 -6.116 0
M  V30 42 H -0.7782 -3.0202 -4.4892 0
M  V30 43 H -1.766 -3.2366 -5.9984 0
M  V30 44 H -2.7886 -2.0665 -3.3144 0
M  V30 45 H -3.7742 -2.259 -4.8263 0
M  V30 END ATOM
M  V30 BEGIN BOND
M  V30 1 1 1 2
M  V30 2 1 2 3
M  V30 3 1 2 4
M  V30 4 1 4 5
M  V30 5 2 5 6
M  V30 6 1 5 7
M  V30 7 1 6 8
M  V30 8 2 7 9
M  V30 9 1 8 10
M  V30 10 2 8 11
M  V30 11 2 10 12
M  V30 12 1 10 13
M  V30 13 1 13 14
M  V30 14 1 13 15
M  V30 15 1 14 16
M  V30 16 1 15 17
M  V30 17 1 16 18
M  V30 18 2 16 19
M  V30 19 1 18 20
M  V30 20 1 19 21
M  V30 21 1 21 22
M  V30 22 1 22 23
M  V30 23 1 22 24
M  V30 24 1 24 25
M  V30 25 1 24 26
M  V30 26 1 9 11
M  V30 27 1 17 18
M  V30 28 2 20 21
M  V30 29 1 25 26
M  V30 30 1 2 27
M  V30 31 1 6 28
M  V30 32 1 7 29
M  V30 33 1 9 30
M  V30 34 1 11 31
M  V30 35 1 14 32
M  V30 36 1 14 33
M  V30 37 1 15 34
M  V30 38 1 15 35
M  V30 39 1 17 36
M  V30 40 1 17 37
M  V30 41 1 19 38
M  V30 42 1 22 39
M  V30 43 1 23 40
M  V30 44 1 24 41
M  V30 45 1 25 42
M  V30 46 1 25 43
M  V30 47 1 26 44
M  V30 48 1 26 45
M  V30 END BOND
M  V30 BEGIN COLLECTION
M  V30 MDLV30/STEABS ATOMS=(1 22)
M  V30 END COLLECTION
M  V30 END CTAB
M  END
>  <Column 1>
2846

>  <level_0>
4087

>  <index>
4087

>  <Unnamed: 0>
4087

>  <NO.>
4099

>  <Name>
flunitrazepam

>  <IUPAC_name>
[2-[(s)-cyclopropyl(hydroxy)methyl]-6-7-dihydro-4h-pyrazolo[1-5-a]pyrazin-5-yl]-[3-(difluoromethoxy)phenyl]methanone

>  <SMILES>
O=C(c1cccc(OC(F)F)c1)N1CCn2nc([C@@H](O)C3CC3)cc2C1

>  <CID>
100003380

>  <logBB>


>  <BBB+/BBB->
BBB+

>  <Inchi>
InChI=1S/C18H19F2N3O3/c19-18(20)26-14-3-1-2-12(8-14)17(25)22-6-7-23-13(10-22)9-15(21-23)16(24)11-4-5-11/h1-3-8-9-11-16-18-24H-4-7-10H2/t16-/m0/s1

>  <threshold>
-1

>  <reference>
R16|R10|

>  <group>
B

>  <Class>
-1

>  <ABC>
20.74

>  <ABCGG>
16.14

>  <nAcid>
0

>  <nBase>
0

>  <nAromAtom>
11

>  <nAromBond>
11

>  <nAtom>
45

>  <nHeavyAtom>
26

>  <nSpiro>
0

>  <nBridgehead>
0

>  <nHetero>
8

>  <nN>
3

>  <nO>
3

>  <nF>
2

>  <BalabanJ>
1.3

>  <BertzCT>
819.76

>  <nBonds>
48

>  <nBondsO>
29

>  <nBondsS>
36

>  <nBondsD>
1

>  <nBondsT>
0

>  <nBondsA>
11

>  <nBondsM>
12

>  <nBondsKS>
42

>  <nBondsKD>
6

>  <RNCG>
0.18

>  <RPCG>
0.16

>  <FCSP3>
0.44

>  <SZ>
31.67

>  <Sm>
30.25

>  <Sv>
28.86

>  <Sse>
46.33

>  <Sp>
29.67

>  <Si>
51.54

>  <MZ>
0.7

>  <Mm>
0.67

>  <Mv>
0.64

>  <Mse>
1.03

>  <Mp>
0.66

>  <Mi>
1.15

>  <NsCH3>
0

>  <NdCH2>
0

>  <NssCH2>
5

>  <NtCH>
0

>  <NdsCH>
0

>  <NaaCH>
5

>  <NsssCH>
3

>  <NddC>
0

>  <NtsC>
0

>  <NdssC>
1

>  <NaasC>
4

>  <NaaaC>
0

>  <NssssC>
0

>  <NsNH3>
0

>  <NsNH2>
0

>  <NssNH2>
0

>  <NdNH>
0

>  <NssNH>
0

>  <NaaNH>
0

>  <NtN>
0

>  <NsssNH>
0

>  <NdsN>
0

>  <NaaN>
1

>  <NsssN>
1

>  <NddsN>
0

>  <NaasN>
1

>  <NssssN>
0

>  <NsOH>
1

>  <NdO>
1

>  <NssO>
1

>  <NaaO>
0

>  <NsF>
2

>  <NsSiH3>
0

>  <NssSiH2>
0

>  <NsssSiH>
0

>  <NssssSi>
0

>  <NsPH2>
0

>  <NssPH>
0

>  <NsssP>
0

>  <NdsssP>
0

>  <NsssssP>
0

>  <NsSH>
0

>  <NdS>
0

>  <NssS>
0

>  <NaaS>
0

>  <NdssS>
0

>  <NddssS>
0

>  <NsCl>
0

>  <NsBr>
0

>  <NsI>
0

>  <fragCpx>
191.08

>  <fMF>
0.44

>  <nHBAcc>
5

>  <nHBDon>
1

>  <Kier1>
19.32

>  <Kier2>
8.16

>  <Lipinski>
1

>  <GhoseFilter>
1

>  <FilterItLogS>
-2.66

>  <VMcGowan>
246.31

>  <LabuteASA>
148.53

>  <PEOE_VSA1>
14.74

>  <PEOE_VSA2>
9.48

>  <PEOE_VSA3>
0

>  <PEOE_VSA4>
13.88

>  <PEOE_VSA5>
0

>  <PEOE_VSA6>
6.07

>  <PEOE_VSA7>
43.03

>  <PEOE_VSA8>
12.11

>  <PEOE_VSA9>
24.48

>  <PEOE_VSA10>
11.85

>  <PEOE_VSA11>
0

>  <PEOE_VSA12>
0

>  <PEOE_VSA13>
5.91

>  <SMR_VSA1>
23.42

>  <SMR_VSA2>
0

>  <SMR_VSA3>
14.68

>  <SMR_VSA4>
5.92

>  <SMR_VSA5>
38.65

>  <SMR_VSA6>
6.54

>  <SMR_VSA7>
47.28

>  <SMR_VSA8>
0

>  <SMR_VSA9>
5.75

>  <SlogP_VSA1>
4.74

>  <SlogP_VSA2>
38.85

>  <SlogP_VSA3>
13.09

>  <SlogP_VSA4>
5.92

>  <SlogP_VSA5>
40.69

>  <SlogP_VSA6>
30.33

>  <SlogP_VSA7>
0

>  <SlogP_VSA8>
0

>  <SlogP_VSA9>
0

>  <SlogP_VSA10>
8.78

>  <SlogP_VSA11>
5.75

>  <EState_VSA1>
12.72

>  <EState_VSA2>
11.66

>  <EState_VSA3>
36.81

>  <EState_VSA4>
18.54

>  <EState_VSA5>
18.2

>  <EState_VSA6>
10.97

>  <EState_VSA7>
10.75

>  <EState_VSA8>
9.84

>  <EState_VSA9>
0

>  <EState_VSA10>
18.68

>  <VSA_EState1>
30.89

>  <VSA_EState2>
14.35

>  <VSA_EState3>
14.68

>  <VSA_EState4>
1.82

>  <VSA_EState5>
0.01

>  <VSA_EState6>
7.65

>  <VSA_EState7>
1.5

>  <VSA_EState8>
-1.57

>  <VSA_EState9>
0

>  <apol>
49.55

>  <bpol>
27.31

>  <nRing>
4

>  <nHRing>
2

>  <naRing>
2

>  <naHRing>
1

>  <nARing 2>
2

>  <nAHRing 2>
1

>  <nFRing>
1

>  <nFHRing>
1

>  <nFaRing>
0

>  <nFaHRing>
0

>  <nFARing 2>
1

>  <nFAHRing 2>
1

>  <nRot>
5

>  <SLogP>
2.58

>  <SMR>
87.73

>  <TopoPSA(NO)>
67.59

>  <TopoPSA>
67.59

>  <JGI1>
0.21

>  <JGI2>
0.07

>  <JGI3>
0.06

>  <JGI4>
0.04

>  <JGI5>
0.03

>  <Diameter>
14

>  <Radius>
7

>  <TMWC10>
131.48

>  <TSRW10>
80.73

>  <MW>
363.14

>  <AMW>
8.07

>  <WPath>
1802

>  <WPol>
40

>  <Zagreb1>
142

>  <Zagreb2>
169

>  <mZagreb2>
5.56

>  <yes>


>  <nAR-cont>
1

>  <nHA-cont>
0.892715677

>  <MWHBN>
0.314857618

>  <MWHBN-cont>
0.794197711

>  <TPSA-cont>
0.528179829

>  <pka_cont>
0.97

>  <yes.1>


>  <BBB_SCORE>
4.625371902

>  <MMFF94 Energy>
55.718

$$$$
Compound 2333
Actelion Java MolfileCreator 2.0

  0  0  0  0  0  0              0 V3000
M  V30 BEGIN CTAB
M  V30 COUNTS 48 51 0 0 0
M  V30 BEGIN ATOM
M  V30 1 O -0.8784 -1.6775 0.1596 0
M  V30 2 C -0.5041 -0.5118 0.0159 0
M  V30 3 N -1.1856 0.3659 -0.8386 0
M  V30 4 C 0.699 -0.0265 0.7295 0
M  V30 5 C -2.1455 -0.1904 -1.8105 0 CFG=2
M  V30 6 C -1.032 1.8239 -0.8324 0
M  V30 7 N 1.6041 0.7856 0.1433 0
M  V30 8 C 1.1303 -0.3901 2.0459 0
M  V30 9 C -1.5882 -0.159 -3.2318 0
M  V30 10 C -3.5151 0.4838 -1.5861 0
M  V30 11 C -2.3816 2.5169 -0.6455 0
M  V30 12 N 2.5656 0.9412 1.0622 0
M  V30 13 C 2.3336 0.2623 2.2201 0
M  V30 14 C 0.4617 -1.2694 3.0462 0
M  V30 15 C -2.359 0.1444 -4.3523 0
M  V30 16 C -0.2544 -0.5172 -3.4851 0
M  V30 17 C -3.4257 2.0099 -1.634 0
M  V30 18 C 3.2695 0.2755 3.3729 0
M  V30 19 C 1.3734 -2.3795 3.575 0
M  V30 20 N -1.9028 0.1521 -5.6291 0
M  V30 21 C 0.2456 -0.5211 -4.7849 0
M  V30 22 C 3.6305 -1.1363 3.8379 0
M  V30 23 C 2.4834 -1.895 4.5162 0
M  V30 24 C -0.6094 -0.1786 -5.8145 0
M  V30 25 H -2.2969 -1.2572 -1.6017 0
M  V30 26 H -0.5717 2.1228 -1.7804 0
M  V30 27 H -0.3848 2.1616 -0.0214 0
M  V30 28 H -3.8816 0.1978 -0.5901 0
M  V30 29 H -4.2672 0.1235 -2.2957 0
M  V30 30 H -2.2617 3.601 -0.7506 0
M  V30 31 H -2.7408 2.3316 0.3749 0
M  V30 32 H 3.363 1.5232 0.8271 0
M  V30 33 H 0.1019 -0.654 3.8804 0
M  V30 34 H -0.4267 -1.7355 2.6087 0
M  V30 35 H -3.4108 0.4025 -4.2793 0
M  V30 36 H 0.4094 -0.7963 -2.6694 0
M  V30 37 H -3.17 2.3487 -2.6439 0
M  V30 38 H -4.4026 2.4437 -1.3917 0
M  V30 39 H 4.1934 0.7975 3.0939 0
M  V30 40 H 2.8245 0.8427 4.1993 0
M  V30 41 H 1.8101 -2.9463 2.7433 0
M  V30 42 H 0.7475 -3.0833 4.1387 0
M  V30 43 H 1.2768 -0.7891 -4.9841 0
M  V30 44 H 4.0224 -1.7275 3.0007 0
M  V30 45 H 4.4463 -1.048 4.5667 0
M  V30 46 H 2.9157 -2.7817 4.9977 0
M  V30 47 H 2.0545 -1.2862 5.3215 0
M  V30 48 H -0.2692 -0.1657 -6.8455 0
M  V30 END ATOM
M  V30 BEGIN BOND
M  V30 1 2 1 2
M  V30 2 1 2 3
M  V30 3 1 2 4
M  V30 4 1 3 5
M  V30 5 1 3 6
M  V30 6 2 4 7
M  V30 7 1 4 8
M  V30 8 1 5 9
M  V30 9 1 5 10
M  V30 10 1 6 11
M  V30 11 1 7 12
M  V30 12 2 8 13
M  V30 13 1 8 14
M  V30 14 2 9 15
M  V30 15 1 9 16
M  V30 16 1 10 17
M  V30 17 1 13 18
M  V30 18 1 14 19
M  V30 19 1 15 20
M  V30 20 2 16 21
M  V30 21 1 18 22
M  V30 22 1 19 23
M  V30 23 2 20 24
M  V30 24 1 11 17
M  V30 25 1 12 13
M  V30 26 1 21 24
M  V30 27 1 22 23
M  V30 28 1 5 25
M  V30 29 1 6 26
M  V30 30 1 6 27
M  V30 31 1 10 28
M  V30 32 1 10 29
M  V30 33 1 11 30
M  V30 34 1 11 31
M  V30 35 1 12 32
M  V30 36 1 14 33
M  V30 37 1 14 34
M  V30 38 1 15 35
M  V30 39 1 16 36
M  V30 40 1 17 37
M  V30 41 1 17 38
M  V30 42 1 18 39
M  V30 43 1 18 40
M  V30 44 1 19 41
M  V30 45 1 19 42
M  V30 46 1 21 43
M  V30 47 1 22 44
M  V30 48 1 22 45
M  V30 49 1 23 46
M  V30 50 1 23 47
M  V30 51 1 24 48
M  V30 END BOND
M  V30 BEGIN COLLECTION
M  V30 MDLV30/STEABS ATOMS=(1 5)
M  V30 END COLLECTION
M  V30 END CTAB
M  END
>  <Column 1>
2847

>  <level_0>
4088

>  <index>
4088

>  <Unnamed: 0>
4088

>  <NO.>
4100

>  <Name>
digoxin

>  <IUPAC_name>
1-4-5-6-7-8-hexahydrocyclohepta[c]pyrazol-3-yl-[(2s)-2-pyridin-3-ylpiperidin-1-yl]methanone

>  <SMILES>
O=C(c1n[nH]c2c1CCCCC2)N1CCCC[C@H]1c1cccnc1

>  <CID>
100003062

>  <logBB>


>  <BBB+/BBB->
BBB-

>  <Inchi>
InChI=1S/C19H24N4O/c24-19(18-15-8-2-1-3-9-16(15)21-22-18)23-12-5-4-10-17(23)14-7-6-11-20-13-14/h6-7-11-13-17H-1-5-8-10-12H2-(H-21-22)/t17-/m0/s1

>  <threshold>
-1

>  <reference>
R16|R10|R10|

>  <group>
B

>  <Class>
1

>  <ABC>
18.96

>  <ABCGG>
15.39

>  <nAcid>
0

>  <nBase>
0

>  <nAromAtom>
11

>  <nAromBond>
11

>  <nAtom>
48

>  <nHeavyAtom>
24

>  <nSpiro>
0

>  <nBridgehead>
0

>  <nHetero>
5

>  <nN>
4

>  <nO>
1

>  <nF>
0

>  <BalabanJ>
1.45

>  <BertzCT>
709.41

>  <nBonds>
51

>  <nBondsO>
27

>  <nBondsS>
39

>  <nBondsD>
1

>  <nBondsT>
0

>  <nBondsA>
11

>  <nBondsM>
12

>  <nBondsKS>
45

>  <nBondsKD>
6

>  <RNCG>
0.19

>  <RPCG>
0.16

>  <FCSP3>
0.53

>  <SZ>
29

>  <Sm>
27.01

>  <Sv>
29.25

>  <Sse>
47.64

>  <Sp>
31.7

>  <Si>
54.36

>  <MZ>
0.6

>  <Mm>
0.56

>  <Mv>
0.61

>  <Mse>
0.99

>  <Mp>
0.66

>  <Mi>
1.13

>  <NsCH3>
0

>  <NdCH2>
0

>  <NssCH2>
9

>  <NtCH>
0

>  <NdsCH>
0

>  <NaaCH>
4

>  <NsssCH>
1

>  <NddC>
0

>  <NtsC>
0

>  <NdssC>
1

>  <NaasC>
4

>  <NaaaC>
0

>  <NssssC>
0

>  <NsNH3>
0

>  <NsNH2>
0

>  <NssNH2>
0

>  <NdNH>
0

>  <NssNH>
0

>  <NaaNH>
1

>  <NtN>
0

>  <NsssNH>
0

>  <NdsN>
0

>  <NaaN>
2

>  <NsssN>
1

>  <NddsN>
0

>  <NaasN>
0

>  <NssssN>
0

>  <NsOH>
0

>  <NdO>
1

>  <NssO>
0

>  <NaaO>
0

>  <NsF>
0

>  <NsSiH3>
0

>  <NssSiH2>
0

>  <NsssSiH>
0

>  <NssssSi>
0

>  <NsPH2>
0

>  <NssPH>
0

>  <NsssP>
0

>  <NdsssP>
0

>  <NsssssP>
0

>  <NsSH>
0

>  <NdS>
0

>  <NssS>
0

>  <NaaS>
0

>  <NdssS>
0

>  <NddssS>
0

>  <NsCl>
0

>  <NsBr>
0

>  <NsI>
0

>  <fragCpx>
177.05

>  <fMF>
0.48

>  <nHBAcc>
3

>  <nHBDon>
1

>  <Kier1>
17.42

>  <Kier2>
8.13

>  <Lipinski>
1

>  <GhoseFilter>
1

>  <FilterItLogS>
-4.58

>  <VMcGowan>
255.12

>  <LabuteASA>
142.03

>  <PEOE_VSA1>
4.9

>  <PEOE_VSA2>
14.88

>  <PEOE_VSA3>
0

>  <PEOE_VSA4>
5.1

>  <PEOE_VSA5>
0

>  <PEOE_VSA6>
12.49

>  <PEOE_VSA7>
56.58

>  <PEOE_VSA8>
30.2

>  <PEOE_VSA9>
6.04

>  <PEOE_VSA10>
0

>  <PEOE_VSA11>
5.69

>  <PEOE_VSA12>
0

>  <PEOE_VSA13>
5.91

>  <SMR_VSA1>
4.79

>  <SMR_VSA2>
0

>  <SMR_VSA3>
20.08

>  <SMR_VSA4>
0

>  <SMR_VSA5>
57.41

>  <SMR_VSA6>
6.54

>  <SMR_VSA7>
47.04

>  <SMR_VSA8>
0

>  <SMR_VSA9>
0

>  <SlogP_VSA1>
0

>  <SlogP_VSA2>
32.53

>  <SlogP_VSA3>
12.84

>  <SlogP_VSA4>
0

>  <SlogP_VSA5>
71.88

>  <SlogP_VSA6>
24.53

>  <SlogP_VSA7>
0

>  <SlogP_VSA8>
0

>  <SlogP_VSA9>
0

>  <SlogP_VSA10>
0

>  <SlogP_VSA11>
0

>  <EState_VSA1>
0

>  <EState_VSA2>
11.95

>  <EState_VSA3>
5.69

>  <EState_VSA4>
56.2

>  <EState_VSA5>
18.54

>  <EState_VSA6>
6.2

>  <EState_VSA7>
17.16

>  <EState_VSA8>
21.25

>  <EState_VSA9>
0

>  <EState_VSA10>
4.79

>  <VSA_EState1>
0

>  <VSA_EState2>
19.51

>  <VSA_EState3>
7.54

>  <VSA_EState4>
4.12

>  <VSA_EState5>
0.09

>  <VSA_EState6>
4.15

>  <VSA_EState7>
12.45

>  <VSA_EState8>
0.81

>  <VSA_EState9>
0

>  <apol>
52.94

>  <bpol>
28.36

>  <nRing>
4

>  <nHRing>
3

>  <naRing>
2

>  <naHRing>
2

>  <nARing 2>
2

>  <nAHRing 2>
1

>  <nFRing>
1

>  <nFHRing>
1

>  <nFaRing>
0

>  <nFaHRing>
0

>  <nFARing 2>
1

>  <nFAHRing 2>
1

>  <nRot>
2

>  <SLogP>
3.44

>  <SMR>
91.71

>  <TopoPSA(NO)>
61.88

>  <TopoPSA>
61.88

>  <JGI1>
0.09

>  <JGI2>
0.07

>  <JGI3>
0.05

>  <JGI4>
0.03

>  <JGI5>
0.02

>  <Diameter>
11

>  <Radius>
6

>  <TMWC10>
126.56

>  <TSRW10>
72.88

>  <MW>
324.2

>  <AMW>
6.75

>  <WPath>
1280

>  <WPol>
41

>  <Zagreb1>
128

>  <Zagreb2>
153

>  <mZagreb2>
5.33

>  <yes>


>  <nAR-cont>
1

>  <nHA-cont>
0.94700071

>  <MWHBN>
0.222153667

>  <MWHBN-cont>
0.993513523

>  <TPSA-cont>
0.568039175

>  <pka_cont>
0.97

>  <yes.1>


>  <BBB_SCORE>
5.058349343

>  <MMFF94 Energy>
57.477

$$$$
Compound 2334
Actelion Java MolfileCreator 2.0

  0  0  0  0  0  0              0 V3000
M  V30 BEGIN CTAB
M  V30 COUNTS 41 43 0 0 0
M  V30 BEGIN ATOM
M  V30 1 F -2.327 -6.0268 -0.2405 0
M  V30 2 C -1.615 -4.9028 -0.0871 0
M  V30 3 C -0.8103 -4.7492 1.0334 0
M  V30 4 C -1.6926 -3.9063 -1.0509 0
M  V30 5 C -0.0676 -3.5776 1.1929 0
M  V30 6 C -0.9507 -2.7335 -0.8933 0
M  V30 7 C -0.1243 -2.5527 0.2307 0
M  V30 8 C 0.6998 -1.2921 0.4386 0 CFG=2
M  V30 9 N -0.1479 -0.126 0.4801 0
M  V30 10 C 1.7387 -1.139 -0.6888 0
M  V30 11 C 0.0847 0.9539 1.2921 0
M  V30 12 C 1.4022 -0.3887 -2.008 0
M  V30 13 C 2.8843 -0.1191 -0.4627 0
M  V30 14 O 0.9685 1.0585 2.1271 0
M  V30 15 C -0.8839 2.1059 1.0523 0
M  V30 16 C 2.3002 0.7801 -1.5648 0
M  V30 17 N -2.0421 1.8488 0.5135 0
M  V30 18 C -0.4598 3.4681 1.5155 0
M  V30 19 O 1.6214 1.9714 -1.1186 0
M  V30 20 N -2.8814 2.9076 0.3154 0
M  V30 21 C -1.0763 4.5158 0.6165 0
M  V30 22 C -2.5369 4.2361 0.3853 0
M  V30 23 O -3.359 5.129 0.1989 0
M  V30 24 H -0.7674 -5.539 1.7765 0
M  V30 25 H -2.3307 -4.0471 -1.9174 0
M  V30 26 H 0.5548 -3.4678 2.0792 0
M  V30 27 H -1.0287 -1.9648 -1.6574 0
M  V30 28 H 1.2335 -1.3686 1.3942 0
M  V30 29 H -0.9485 -0.0541 -0.1392 0
M  V30 30 H 2.1774 -2.1285 -0.8944 0
M  V30 31 H 1.7676 -0.9005 -2.9061 0
M  V30 32 H 0.3545 -0.1242 -2.1738 0
M  V30 33 H 3.8769 -0.5145 -0.7101 0
M  V30 34 H 2.9436 0.331 0.5314 0
M  V30 35 H 3.0399 1.0523 -2.3268 0
M  V30 36 H 0.6304 3.5587 1.5024 0
M  V30 37 H -0.8036 3.5897 2.5489 0
M  V30 38 H 2.3326 2.5323 -0.7603 0
M  V30 39 H -3.8428 2.6911 0.0682 0
M  V30 40 H -0.5832 4.5196 -0.3625 0
M  V30 41 H -0.964 5.5095 1.0619 0
M  V30 END ATOM
M  V30 BEGIN BOND
M  V30 1 1 1 2
M  V30 2 2 2 3
M  V30 3 1 2 4
M  V30 4 1 3 5
M  V30 5 2 4 6
M  V30 6 2 5 7
M  V30 7 1 7 8
M  V30 8 1 8 9
M  V30 9 1 8 10
M  V30 10 1 9 11
M  V30 11 1 10 12
M  V30 12 1 10 13
M  V30 13 2 11 14
M  V30 14 1 11 15
M  V30 15 1 12 16
M  V30 16 2 15 17
M  V30 17 1 15 18
M  V30 18 1 16 19
M  V30 19 1 17 20
M  V30 20 1 18 21
M  V30 21 1 20 22
M  V30 22 2 22 23
M  V30 23 1 6 7
M  V30 24 1 13 16
M  V30 25 1 21 22
M  V30 26 1 3 24
M  V30 27 1 4 25
M  V30 28 1 5 26
M  V30 29 1 6 27
M  V30 30 1 8 28
M  V30 31 1 9 29
M  V30 32 1 10 30
M  V30 33 1 12 31
M  V30 34 1 12 32
M  V30 35 1 13 33
M  V30 36 1 13 34
M  V30 37 1 16 35
M  V30 38 1 18 36
M  V30 39 1 18 37
M  V30 40 1 19 38
M  V30 41 1 20 39
M  V30 42 1 21 40
M  V30 43 1 21 41
M  V30 END BOND
M  V30 BEGIN COLLECTION
M  V30 MDLV30/STEABS ATOMS=(1 8)
M  V30 END COLLECTION
M  V30 END CTAB
M  END
>  <Column 1>
2848

>  <level_0>
4089

>  <index>
4089

>  <Unnamed: 0>
4089

>  <NO.>
4101

>  <Name>
meprobamate

>  <IUPAC_name>
n-[(r)-(4-fluorophenyl)-(3-hydroxycyclobutyl)methyl]-6-oxo-4-5-dihydro-1h-pyridazine-3-carboxamide

>  <SMILES>
O=C1CCC(C(=O)N[C@@H](c2ccc(F)cc2)C2CC(O)C2)=NN1

>  <CID>
100004064

>  <logBB>


>  <BBB+/BBB->
BBB+

>  <Inchi>
InChI=1S/C16H18FN3O3/c17-11-3-1-9(2-4-11)15(10-7-12(21)8-10)18-16(23)13-5-6-14(22)20-19-13/h1-4-10-12-15-21H-5-8H2-(H-18-23)(H-20-22)/t10?-12?-15-/m0/s1

>  <threshold>
-1

>  <reference>
R16|R10|R10|

>  <group>
B

>  <Class>
-1

>  <ABC>
17.99

>  <ABCGG>
14.74

>  <nAcid>
0

>  <nBase>
0

>  <nAromAtom>
6

>  <nAromBond>
6

>  <nAtom>
41

>  <nHeavyAtom>
23

>  <nSpiro>
0

>  <nBridgehead>
0

>  <nHetero>
7

>  <nN>
3

>  <nO>
3

>  <nF>
1

>  <BalabanJ>
1.57

>  <BertzCT>
638.48

>  <nBonds>
43

>  <nBondsO>
25

>  <nBondsS>
34

>  <nBondsD>
3

>  <nBondsT>
0

>  <nBondsA>
6

>  <nBondsM>
9

>  <nBondsKS>
37

>  <nBondsKD>
6

>  <RNCG>
0.18

>  <RPCG>
0.12

>  <FCSP3>
0.44

>  <SZ>
28

>  <Sm>
26.59

>  <Sv>
25.94

>  <Sse>
41.93

>  <Sp>
26.94

>  <Si>
46.79

>  <MZ>
0.68

>  <Mm>
0.65

>  <Mv>
0.63

>  <Mse>
1.02

>  <Mp>
0.66

>  <Mi>
1.14

>  <NsCH3>
0

>  <NdCH2>
0

>  <NssCH2>
4

>  <NtCH>
0

>  <NdsCH>
0

>  <NaaCH>
4

>  <NsssCH>
3

>  <NddC>
0

>  <NtsC>
0

>  <NdssC>
3

>  <NaasC>
2

>  <NaaaC>
0

>  <NssssC>
0

>  <NsNH3>
0

>  <NsNH2>
0

>  <NssNH2>
0

>  <NdNH>
0

>  <NssNH>
2

>  <NaaNH>
0

>  <NtN>
0

>  <NsssNH>
0

>  <NdsN>
1

>  <NaaN>
0

>  <NsssN>
0

>  <NddsN>
0

>  <NaasN>
0

>  <NssssN>
0

>  <NsOH>
1

>  <NdO>
2

>  <NssO>
0

>  <NaaO>
0

>  <NsF>
1

>  <NsSiH3>
0

>  <NssSiH2>
0

>  <NsssSiH>
0

>  <NssssSi>
0

>  <NsPH2>
0

>  <NssPH>
0

>  <NsssP>
0

>  <NdsssP>
0

>  <NsssssP>
0

>  <NsSH>
0

>  <NdS>
0

>  <NssS>
0

>  <NaaS>
0

>  <NdssS>
0

>  <NddssS>
0

>  <NsCl>
0

>  <NsBr>
0

>  <NsI>
0

>  <fragCpx>
119.07

>  <fMF>
0.46

>  <nHBAcc>
4

>  <nHBDon>
3

>  <Kier1>
17.81

>  <Kier2>
7.92

>  <Lipinski>
1

>  <GhoseFilter>
1

>  <FilterItLogS>
-3.26

>  <VMcGowan>
227.23

>  <LabuteASA>
132.32

>  <PEOE_VSA1>
10.42

>  <PEOE_VSA2>
9.59

>  <PEOE_VSA3>
9.82

>  <PEOE_VSA4>
5.1

>  <PEOE_VSA5>
0

>  <PEOE_VSA6>
12.13

>  <PEOE_VSA7>
36.46

>  <PEOE_VSA8>
12.84

>  <PEOE_VSA9>
12.15

>  <PEOE_VSA10>
11.53

>  <PEOE_VSA11>
0

>  <PEOE_VSA12>
5.91

>  <PEOE_VSA13>
5.91

>  <SMR_VSA1>
19.09

>  <SMR_VSA2>
0

>  <SMR_VSA3>
10.74

>  <SMR_VSA4>
11.02

>  <SMR_VSA5>
37.83

>  <SMR_VSA6>
0

>  <SMR_VSA7>
35.65

>  <SMR_VSA8>
0

>  <SMR_VSA9>
0

>  <SlogP_VSA1>
10.74

>  <SlogP_VSA2>
28.74

>  <SlogP_VSA3>
9.59

>  <SlogP_VSA4>
11.74

>  <SlogP_VSA5>
37.29

>  <SlogP_VSA6>
29.37

>  <SlogP_VSA7>
0

>  <SlogP_VSA8>
0

>  <SlogP_VSA9>
0

>  <SlogP_VSA10>
4.39

>  <SlogP_VSA11>
0

>  <EState_VSA1>
0

>  <EState_VSA2>
47.83

>  <EState_VSA3>
19.26

>  <EState_VSA4>
5.56

>  <EState_VSA5>
12.13

>  <EState_VSA6>
12.13

>  <EState_VSA7>
0

>  <EState_VSA8>
15.84

>  <EState_VSA9>
0

>  <EState_VSA10>
19.09

>  <VSA_EState1>
13.11

>  <VSA_EState2>
23.45

>  <VSA_EState3>
16.22

>  <VSA_EState4>
3.36

>  <VSA_EState5>
-0.8

>  <VSA_EState6>
5.65

>  <VSA_EState7>
1.35

>  <VSA_EState8>
0

>  <VSA_EState9>
0

>  <apol>
44.99

>  <bpol>
22.05

>  <nRing>
3

>  <nHRing>
1

>  <naRing>
1

>  <naHRing>
0

>  <nARing 2>
2

>  <nAHRing 2>
1

>  <nFRing>
0

>  <nFHRing>
0

>  <nFaRing>
0

>  <nFaHRing>
0

>  <nFARing 2>
0

>  <nFAHRing 2>
0

>  <nRot>
4

>  <SLogP>
1.02

>  <SMR>
80.83

>  <TopoPSA(NO)>
90.79

>  <TopoPSA>
90.79

>  <JGI1>
0.22

>  <JGI2>
0.09

>  <JGI3>
0.05

>  <JGI4>
0.04

>  <JGI5>
0.03

>  <Diameter>
12

>  <Radius>
6

>  <TMWC10>
122.18

>  <TSRW10>
57.59

>  <MW>
319.13

>  <AMW>
7.78

>  <WPath>
1234

>  <WPol>
32

>  <Zagreb1>
120

>  <Zagreb2>
139

>  <mZagreb2>
5

>  <yes>


>  <nAR-cont>
1

>  <nHA-cont>
0.967789328

>  <MWHBN>
0.391844923

>  <MWHBN-cont>
0.50819161

>  <TPSA-cont>
0.366229423

>  <pka_cont>
0.97

>  <yes.1>


>  <BBB_SCORE>
3.947535589

>  <MMFF94 Energy>
62.446

$$$$
Compound 2335
Actelion Java MolfileCreator 2.0

  0  0  0  0  0  0              0 V3000
M  V30 BEGIN CTAB
M  V30 COUNTS 48 52 0 0 0
M  V30 BEGIN ATOM
M  V30 1 O 3.6527 -3.4902 1.9469 0
M  V30 2 C 2.6348 -2.8395 1.7354 0
M  V30 3 O 1.3983 -3.4544 1.5993 0
M  V30 4 C 2.6189 -1.3384 1.7119 0
M  V30 5 C 0.257 -2.7376 1.1951 0
M  V30 6 C 1.7015 -0.7697 0.633 0 CFG=2
M  V30 7 C 0.3503 -1.4362 0.6987 0
M  V30 8 C -0.9596 -3.4134 1.2687 0
M  V30 9 C 2.324 -0.7945 -0.7507 0
M  V30 10 C -0.8233 -0.7986 0.2669 0
M  V30 11 C -2.1182 -2.7791 0.828 0
M  V30 12 C 2.6841 0.4028 -1.3696 0
M  V30 13 C 2.5691 -1.9708 -1.4683 0
M  V30 14 O -0.6968 0.4805 -0.2021 0
M  V30 15 C -2.0432 -1.478 0.3185 0
M  V30 16 N 3.2526 0.495 -2.5929 0
M  V30 17 C 3.1526 -1.9065 -2.7315 0
M  V30 18 C -1.9002 1.2715 -0.2557 0
M  V30 19 C -3.2519 -0.8182 -0.2051 0
M  V30 20 C 3.4747 -0.6633 -3.2459 0
M  V30 21 C -3.0417 0.4897 -0.9106 0
M  V30 22 C -2.2724 1.7786 1.1592 0
M  V30 23 C -1.5682 2.4881 -1.1516 0
M  V30 24 O -4.3533 -1.3493 -0.1128 0
M  V30 25 C -1.1882 2.672 1.7641 0
M  V30 26 C -0.4907 3.3912 -0.5485 0
M  V30 27 C -0.8633 3.8515 0.8555 0
M  V30 28 H 2.2886 -1.0133 2.7071 0
M  V30 29 H 3.6452 -0.9778 1.5737 0
M  V30 30 H 1.556 0.2832 0.9149 0
M  V30 31 H -1.0036 -4.4303 1.6503 0
M  V30 32 H -3.0718 -3.3024 0.8645 0
M  V30 33 H 2.5212 1.362 -0.8843 0
M  V30 34 H 2.3092 -2.947 -1.0686 0
M  V30 35 H 3.3509 -2.8077 -3.301 0
M  V30 36 H 3.9321 -0.5636 -4.2259 0
M  V30 37 H -3.9735 1.0655 -0.8808 0
M  V30 38 H -2.8125 0.2523 -1.9566 0
M  V30 39 H -3.2138 2.3413 1.1134 0
M  V30 40 H -2.4372 0.9425 1.8481 0
M  V30 41 H -2.4744 3.0823 -1.3263 0
M  V30 42 H -1.2111 2.144 -2.1305 0
M  V30 43 H -1.5233 3.0436 2.7392 0
M  V30 44 H -0.28 2.0847 1.9448 0
M  V30 45 H 0.4662 2.8577 -0.5165 0
M  V30 46 H -0.3428 4.2647 -1.1937 0
M  V30 47 H -0.0397 4.433 1.2847 0
M  V30 48 H -1.7314 4.5199 0.8014 0
M  V30 END ATOM
M  V30 BEGIN BOND
M  V30 1 2 1 2
M  V30 2 1 2 3
M  V30 3 1 2 4
M  V30 4 1 3 5
M  V30 5 1 4 6
M  V30 6 2 5 7
M  V30 7 1 5 8
M  V30 8 1 6 9
M  V30 9 1 7 10
M  V30 10 2 8 11
M  V30 11 2 9 12
M  V30 12 1 9 13
M  V30 13 1 10 14
M  V30 14 2 10 15
M  V30 15 1 12 16
M  V30 16 2 13 17
M  V30 17 1 14 18
M  V30 18 1 15 19
M  V30 19 2 16 20
M  V30 20 1 18 21
M  V30 21 1 18 22
M  V30 22 1 18 23
M  V30 23 2 19 24
M  V30 24 1 22 25
M  V30 25 1 23 26
M  V30 26 1 25 27
M  V30 27 1 6 7
M  V30 28 1 11 15
M  V30 29 1 17 20
M  V30 30 1 19 21
M  V30 31 1 26 27
M  V30 32 1 4 28
M  V30 33 1 4 29
M  V30 34 1 6 30
M  V30 35 1 8 31
M  V30 36 1 11 32
M  V30 37 1 12 33
M  V30 38 1 13 34
M  V30 39 1 17 35
M  V30 40 1 20 36
M  V30 41 1 21 37
M  V30 42 1 21 38
M  V30 43 1 22 39
M  V30 44 1 22 40
M  V30 45 1 23 41
M  V30 46 1 23 42
M  V30 47 1 25 43
M  V30 48 1 25 44
M  V30 49 1 26 45
M  V30 50 1 26 46
M  V30 51 1 27 47
M  V30 52 1 27 48
M  V30 END BOND
M  V30 BEGIN COLLECTION
M  V30 MDLV30/STEABS ATOMS=(1 6)
M  V30 END COLLECTION
M  V30 END CTAB
M  END
>  <Column 1>
2849

>  <level_0>
4090

>  <index>
4090

>  <Unnamed: 0>
4090

>  <NO.>
4102

>  <Name>
phenazopyridine

>  <IUPAC_name>
(10s)-10-pyridin-3-ylspiro[9-10-dihydro-3h-pyrano[2-3-f]chromene-2-1'-cyclohexane]-4-8-dione

>  <SMILES>
O=C1C[C@@H](c2cccnc2)c2c(ccc3c2OC2(CCCCC2)CC3=O)O1

>  <CID>
100004756

>  <logBB>


>  <BBB+/BBB->
BBB-

>  <Inchi>
InChI=1S/C22H21NO4/c24-17-12-22(8-2-1-3-9-22)27-21-15(17)6-7-18-20(21)16(11-19(25)26-18)14-5-4-10-23-13-14/h4-7-10-13-16H-1-3-8-9-11-12H2/t16-/m0/s1

>  <threshold>
-1

>  <reference>
R16|R16|R10|R10|

>  <group>
B

>  <Class>
1

>  <ABC>
21.9

>  <ABCGG>
16.3

>  <nAcid>
0

>  <nBase>
0

>  <nAromAtom>
12

>  <nAromBond>
12

>  <nAtom>
48

>  <nHeavyAtom>
27

>  <nSpiro>
1

>  <nBridgehead>
0

>  <nHetero>
5

>  <nN>
1

>  <nO>
4

>  <nF>
0

>  <BalabanJ>
1.43

>  <BertzCT>
915.41

>  <nBonds>
52

>  <nBondsO>
31

>  <nBondsS>
38

>  <nBondsD>
2

>  <nBondsT>
0

>  <nBondsA>
12

>  <nBondsM>
14

>  <nBondsKS>
44

>  <nBondsKD>
8

>  <RNCG>
0.23

>  <RPCG>
0.15

>  <FCSP3>
0.41

>  <SZ>
32

>  <Sm>
30.26

>  <Sv>
31.31

>  <Sse>
48.31

>  <Sp>
32.96

>  <Si>
53.49

>  <MZ>
0.67

>  <Mm>
0.63

>  <Mv>
0.65

>  <Mse>
1.01

>  <Mp>
0.69

>  <Mi>
1.11

>  <NsCH3>
0

>  <NdCH2>
0

>  <NssCH2>
7

>  <NtCH>
0

>  <NdsCH>
0

>  <NaaCH>
6

>  <NsssCH>
1

>  <NddC>
0

>  <NtsC>
0

>  <NdssC>
2

>  <NaasC>
5

>  <NaaaC>
0

>  <NssssC>
1

>  <NsNH3>
0

>  <NsNH2>
0

>  <NssNH2>
0

>  <NdNH>
0

>  <NssNH>
0

>  <NaaNH>
0

>  <NtN>
0

>  <NsssNH>
0

>  <NdsN>
0

>  <NaaN>
1

>  <NsssN>
0

>  <NddsN>
0

>  <NaasN>
0

>  <NssssN>
0

>  <NsOH>
0

>  <NdO>
2

>  <NssO>
2

>  <NaaO>
0

>  <NsF>
0

>  <NsSiH3>
0

>  <NssSiH2>
0

>  <NsssSiH>
0

>  <NssssSi>
0

>  <NsPH2>
0

>  <NssPH>
0

>  <NsssP>
0

>  <NdsssP>
0

>  <NsssssP>
0

>  <NsSH>
0

>  <NdS>
0

>  <NssS>
0

>  <NaaS>
0

>  <NdssS>
0

>  <NddssS>
0

>  <NsCl>
0

>  <NsBr>
0

>  <NsI>
0

>  <fragCpx>
259.05

>  <fMF>
0.52

>  <nHBAcc>
5

>  <nHBDon>
0

>  <Kier1>
18.99

>  <Kier2>
7.68

>  <Lipinski>
1

>  <GhoseFilter>
1

>  <FilterItLogS>
-5.65

>  <VMcGowan>
265.6

>  <LabuteASA>
157.26

>  <PEOE_VSA1>
9.47

>  <PEOE_VSA2>
14.57

>  <PEOE_VSA3>
0

>  <PEOE_VSA4>
0

>  <PEOE_VSA5>
0

>  <PEOE_VSA6>
12.49

>  <PEOE_VSA7>
49.45

>  <PEOE_VSA8>
23.88

>  <PEOE_VSA9>
18.41

>  <PEOE_VSA10>
17.1

>  <PEOE_VSA11>
5.78

>  <PEOE_VSA12>
0

>  <PEOE_VSA13>
0

>  <SMR_VSA1>
19.06

>  <SMR_VSA2>
0

>  <SMR_VSA3>
4.98

>  <SMR_VSA4>
0

>  <SMR_VSA5>
56.46

>  <SMR_VSA6>
0

>  <SMR_VSA7>
53.35

>  <SMR_VSA8>
0

>  <SMR_VSA9>
11.5

>  <SlogP_VSA1>
9.47

>  <SlogP_VSA2>
22.34

>  <SlogP_VSA3>
4.79

>  <SlogP_VSA4>
0

>  <SlogP_VSA5>
72.35

>  <SlogP_VSA6>
36.66

>  <SlogP_VSA7>
0

>  <SlogP_VSA8>
0

>  <SlogP_VSA9>
0

>  <SlogP_VSA10>
0

>  <SlogP_VSA11>
11.5

>  <EState_VSA1>
5.6

>  <EState_VSA2>
24.09

>  <EState_VSA3>
23.48

>  <EState_VSA4>
36.81

>  <EState_VSA5>
6.42

>  <EState_VSA6>
24.53

>  <EState_VSA7>
12.13

>  <EState_VSA8>
4.98

>  <EState_VSA9>
9.47

>  <EState_VSA10>
9.59

>  <VSA_EState1>
12.09

>  <VSA_EState2>
29.35

>  <VSA_EState3>
0

>  <VSA_EState4>
1.95

>  <VSA_EState5>
0.76

>  <VSA_EState6>
7.29

>  <VSA_EState7>
9.3

>  <VSA_EState8>
0

>  <VSA_EState9>
0

>  <apol>
55.05

>  <bpol>
27.42

>  <nRing>
5

>  <nHRing>
3

>  <naRing>
2

>  <naHRing>
1

>  <nARing 2>
3

>  <nAHRing 2>
2

>  <nFRing>
1

>  <nFHRing>
1

>  <nFaRing>
0

>  <nFaHRing>
0

>  <nFARing 2>
1

>  <nFAHRing 2>
1

>  <nRot>
1

>  <SLogP>
4.19

>  <SMR>
98.17

>  <TopoPSA(NO)>
65.49

>  <TopoPSA>
65.49

>  <JGI1>
0.18

>  <JGI2>
0.06

>  <JGI3>
0.05

>  <JGI4>
0.05

>  <JGI5>
0.03

>  <Diameter>
11

>  <Radius>
6

>  <TMWC10>
136.46

>  <TSRW10>
63.08

>  <MW>
363.15

>  <AMW>
7.57

>  <WPath>
1620

>  <WPol>
50

>  <Zagreb1>
154

>  <Zagreb2>
188

>  <mZagreb2>
5.75

>  <yes>


>  <nAR-cont>
0.691115

>  <nHA-cont>
0.860070871

>  <MWHBN>
0.262377736

>  <MWHBN-cont>
0.936609878

>  <TPSA-cont>
0.542839133

>  <pka_cont>
0.97

>  <yes.1>


>  <BBB_SCORE>
4.526778955

>  <MMFF94 Energy>
55.553

$$$$
Compound 2336
Actelion Java MolfileCreator 2.0

  0  0  0  0  0  0              0 V3000
M  V30 BEGIN CTAB
M  V30 COUNTS 34 36 0 0 0
M  V30 BEGIN ATOM
M  V30 1 Cl 6.5814 1.164 1.3303 0
M  V30 2 C 4.9641 0.6549 1.0404 0
M  V30 3 C 4.6911 -0.2136 -0.0172 0
M  V30 4 C 3.9368 1.1103 1.8687 0
M  V30 5 C 3.3793 -0.6288 -0.255 0
M  V30 6 C 2.6223 0.6998 1.6367 0
M  V30 7 C 2.3499 -0.1589 0.5672 0
M  V30 8 S 0.6773 -0.6975 0.2705 0
M  V30 9 O 0.76 -2.0015 -0.3551 0
M  V30 10 O -0.0604 -0.4744 1.4977 0
M  V30 11 C 0.1152 0.462 -0.9896 0 CFG=1
M  V30 12 C -1.353 0.5445 -1.3097 0 CFG=2
M  V30 13 C -0.7035 1.6055 -0.4361 0 CFG=2
M  V30 14 C -2.399 -0.3972 -0.7622 0
M  V30 15 C -0.4716 2.9674 -0.9666 0
M  V30 16 C -3.3856 0.0305 0.143 0
M  V30 17 C -2.3814 -1.7637 -1.0889 0
M  V30 18 O -0.1087 3.1523 -2.121 0
M  V30 19 C -4.3223 -0.8579 0.6793 0
M  V30 20 C -3.3132 -2.6577 -0.5548 0
M  V30 21 C -4.2858 -2.2033 0.329 0
M  V30 22 H 5.4956 -0.5747 -0.6533 0
M  V30 23 H 4.1562 1.7768 2.6993 0
M  V30 24 H 3.1731 -1.3182 -1.0715 0
M  V30 25 H 1.8283 1.0439 2.2962 0
M  V30 26 H 0.8021 0.6438 -1.8054 0
M  V30 27 H -1.57 0.8538 -2.3341 0
M  V30 28 H -0.9726 1.6025 0.6146 0
M  V30 29 H -0.6455 3.8023 -0.2677 0
M  V30 30 H -3.4371 1.0758 0.4372 0
M  V30 31 H -1.624 -2.1476 -1.7704 0
M  V30 32 H -5.0752 -0.4984 1.3757 0
M  V30 33 H -3.2694 -3.7095 -0.8244 0
M  V30 34 H -5.0079 -2.8976 0.7495 0
M  V30 END ATOM
M  V30 BEGIN BOND
M  V30 1 1 1 2
M  V30 2 2 2 3
M  V30 3 1 2 4
M  V30 4 1 3 5
M  V30 5 2 4 6
M  V30 6 2 5 7
M  V30 7 1 7 8
M  V30 8 2 8 9
M  V30 9 2 8 10
M  V30 10 1 8 11
M  V30 11 1 11 12
M  V30 12 1 11 13
M  V30 13 1 12 14
M  V30 14 1 13 15
M  V30 15 2 14 16
M  V30 16 1 14 17
M  V30 17 2 15 18
M  V30 18 1 16 19
M  V30 19 2 17 20
M  V30 20 2 19 21
M  V30 21 1 6 7
M  V30 22 1 12 13
M  V30 23 1 20 21
M  V30 24 1 3 22
M  V30 25 1 4 23
M  V30 26 1 5 24
M  V30 27 1 6 25
M  V30 28 1 11 26
M  V30 29 1 12 27
M  V30 30 1 13 28
M  V30 31 1 15 29
M  V30 32 1 16 30
M  V30 33 1 17 31
M  V30 34 1 19 32
M  V30 35 1 20 33
M  V30 36 1 21 34
M  V30 END BOND
M  V30 BEGIN COLLECTION
M  V30 MDLV30/STEABS ATOMS=(3 11 12 13)
M  V30 END COLLECTION
M  V30 END CTAB
M  END
>  <Column 1>
2850

>  <level_0>
4091

>  <index>
4091

>  <Unnamed: 0>
4091

>  <NO.>
4103

>  <Name>
chlorzoxazone

>  <IUPAC_name>
(1r-2s-3r)-2-(4-chlorophenyl)sulfonyl-3-phenylcyclopropane-1-carbaldehyde

>  <SMILES>
O=C[C@@H]1[C@@H](S(=O)(=O)c2ccc(Cl)cc2)[C@H]1c1ccccc1

>  <CID>
100002733

>  <logBB>


>  <BBB+/BBB->
BBB+

>  <Inchi>
InChI=1S/C16H13ClO3S/c17-12-6-8-13(9-7-12)21(19-20)16-14(10-18)15(16)11-4-2-1-3-5-11/h1-10-14-16H/t14--15--16+/m0/s1

>  <threshold>
-1

>  <reference>
R16|R10|R10|

>  <group>
B

>  <Class>
1

>  <ABC>
16.41

>  <ABCGG>
14.33

>  <nAcid>
0

>  <nBase>
0

>  <nAromAtom>
12

>  <nAromBond>
12

>  <nAtom>
34

>  <nHeavyAtom>
21

>  <nSpiro>
0

>  <nBridgehead>
0

>  <nHetero>
5

>  <nN>
0

>  <nO>
3

>  <nF>
0

>  <BalabanJ>
1.66

>  <BertzCT>
753.87

>  <nBonds>
36

>  <nBondsO>
23

>  <nBondsS>
21

>  <nBondsD>
3

>  <nBondsT>
0

>  <nBondsA>
12

>  <nBondsM>
15

>  <nBondsKS>
27

>  <nBondsKD>
9

>  <RNCG>
0.22

>  <RPCG>
0.13

>  <FCSP3>
0.19

>  <SZ>
27.67

>  <Sm>
26.71

>  <Sv>
23.94

>  <Sse>
34.61

>  <Sp>
25.67

>  <Si>
37.4

>  <MZ>
0.81

>  <Mm>
0.79

>  <Mv>
0.7

>  <Mse>
1.02

>  <Mp>
0.76

>  <Mi>
1.1

>  <NsCH3>
0

>  <NdCH2>
0

>  <NssCH2>
0

>  <NtCH>
0

>  <NdsCH>
1

>  <NaaCH>
9

>  <NsssCH>
3

>  <NddC>
0

>  <NtsC>
0

>  <NdssC>
0

>  <NaasC>
3

>  <NaaaC>
0

>  <NssssC>
0

>  <NsNH3>
0

>  <NsNH2>
0

>  <NssNH2>
0

>  <NdNH>
0

>  <NssNH>
0

>  <NaaNH>
0

>  <NtN>
0

>  <NsssNH>
0

>  <NdsN>
0

>  <NaaN>
0

>  <NsssN>
0

>  <NddsN>
0

>  <NaasN>
0

>  <NssssN>
0

>  <NsOH>
0

>  <NdO>
3

>  <NssO>
0

>  <NaaO>
0

>  <NsF>
0

>  <NsSiH3>
0

>  <NssSiH2>
0

>  <NsssSiH>
0

>  <NssssSi>
0

>  <NsPH2>
0

>  <NssPH>
0

>  <NsssP>
0

>  <NdsssP>
0

>  <NsssssP>
0

>  <NsSH>
0

>  <NdS>
0

>  <NssS>
0

>  <NaaS>
0

>  <NdssS>
0

>  <NddssS>
1

>  <NsCl>
1

>  <NsBr>
0

>  <NsI>
0

>  <fragCpx>
109.05

>  <fMF>
0.47

>  <nHBAcc>
3

>  <nHBDon>
0

>  <Kier1>
15.88

>  <Kier2>
6.25

>  <Lipinski>
1

>  <GhoseFilter>
1

>  <FilterItLogS>
-4.16

>  <VMcGowan>
219.82

>  <LabuteASA>
128.03

>  <PEOE_VSA1>
4.79

>  <PEOE_VSA2>
0

>  <PEOE_VSA3>
8.42

>  <PEOE_VSA4>
0

>  <PEOE_VSA5>
0

>  <PEOE_VSA6>
41.93

>  <PEOE_VSA7>
29.83

>  <PEOE_VSA8>
16.86

>  <PEOE_VSA9>
10.15

>  <PEOE_VSA10>
6.29

>  <PEOE_VSA11>
9.84

>  <PEOE_VSA12>
0

>  <PEOE_VSA13>
0

>  <SMR_VSA1>
13.21

>  <SMR_VSA2>
0

>  <SMR_VSA3>
0

>  <SMR_VSA4>
5.92

>  <SMR_VSA5>
16.06

>  <SMR_VSA6>
0

>  <SMR_VSA7>
65.18

>  <SMR_VSA8>
0

>  <SMR_VSA9>
0

>  <SlogP_VSA1>
0

>  <SlogP_VSA2>
19.95

>  <SlogP_VSA3>
14.63

>  <SlogP_VSA4>
5.92

>  <SlogP_VSA5>
11.48

>  <SlogP_VSA6>
59.49

>  <SlogP_VSA7>
5.02

>  <SlogP_VSA8>
0

>  <SlogP_VSA9>
0

>  <SlogP_VSA10>
0

>  <SlogP_VSA11>
0

>  <EState_VSA1>
21.01

>  <EState_VSA2>
10.81

>  <EState_VSA3>
5.02

>  <EState_VSA4>
11.85

>  <EState_VSA5>
12.13

>  <EState_VSA6>
12.13

>  <EState_VSA7>
30.33

>  <EState_VSA8>
0

>  <EState_VSA9>
11.6

>  <EState_VSA10>
13.21

>  <VSA_EState1>
25.31

>  <VSA_EState2>
11.42

>  <VSA_EState3>
-0.2

>  <VSA_EState4>
0.89

>  <VSA_EState5>
-0.74

>  <VSA_EState6>
15.35

>  <VSA_EState7>
0.75

>  <VSA_EState8>
0

>  <VSA_EState9>
-3.53

>  <apol>
42.87

>  <bpol>
21.08

>  <nRing>
3

>  <nHRing>
0

>  <naRing>
2

>  <naHRing>
0

>  <nARing 2>
1

>  <nAHRing 2>
0

>  <nFRing>
0

>  <nFHRing>
0

>  <nFaRing>
0

>  <nFaHRing>
0

>  <nFARing 2>
0

>  <nFAHRing 2>
0

>  <nRot>
4

>  <SLogP>
3.09

>  <SMR>
81.16

>  <TopoPSA(NO)>
51.21

>  <TopoPSA>
59.59

>  <JGI1>
0.2

>  <JGI2>
0.11

>  <JGI3>
0.08

>  <JGI4>
0.05

>  <JGI5>
0.03

>  <Diameter>
11

>  <Radius>
6

>  <TMWC10>
120.05

>  <TSRW10>
76.13

>  <MW>
320.03

>  <AMW>
9.41

>  <WPath>
913

>  <WPol>
33

>  <Zagreb1>
114

>  <Zagreb2>
139

>  <mZagreb2>
4.61

>  <yes>


>  <nAR-cont>
0.816016

>  <nHA-cont>
0.994529749

>  <MWHBN>
0.167697238

>  <MWHBN-cont>
0.970233568

>  <TPSA-cont>
0.584024797

>  <pka_cont>
0.97

>  <yes.1>


>  <BBB_SCORE>
4.918945696

>  <MMFF94 Energy>
58.872

$$$$
Compound 2337
Actelion Java MolfileCreator 2.0

  0  0  0  0  0  0              0 V3000
M  V30 BEGIN CTAB
M  V30 COUNTS 36 38 0 0 0
M  V30 BEGIN ATOM
M  V30 1 Cl -3.0546 3.4679 3.8814 0
M  V30 2 C -1.7752 2.49 3.2768 0
M  V30 3 C -0.9604 2.9736 2.252 0
M  V30 4 C -1.5601 1.221 3.8169 0
M  V30 5 C 0.0766 2.1811 1.7564 0
M  V30 6 C -0.5252 0.4224 3.3259 0
M  V30 7 C 0.2799 0.9036 2.2889 0
M  V30 8 S 1.6025 -0.1104 1.6538 0
M  V30 9 O 2.608 0.795 1.1355 0
M  V30 10 O 1.8982 -1.1017 2.6675 0
M  V30 11 C 0.7873 -0.9755 0.291 0 CFG=1
M  V30 12 C 0.8826 -0.2588 -1.0396 0 CFG=1
M  V30 13 C 1.6335 -1.559 -0.8132 0 CFG=1
M  V30 14 C -0.3194 -0.22 -1.955 0
M  V30 15 C 3.1225 -1.5884 -0.8065 0
M  V30 16 C -1.5734 0.2201 -1.4973 0
M  V30 17 C -0.2547 -0.7293 -3.2628 0
M  V30 18 O 3.561 -2.4652 0.2145 0
M  V30 19 C -2.7019 0.1927 -2.321 0
M  V30 20 C -1.3795 -0.7594 -4.0915 0
M  V30 21 C -2.6034 -0.2952 -3.6201 0
M  V30 22 H -1.1237 3.9674 1.8419 0
M  V30 23 H -2.1898 0.8526 4.6233 0
M  V30 24 H 0.7183 2.5666 0.9666 0
M  V30 25 H -0.3527 -0.5612 3.7583 0
M  V30 26 H -0.1146 -1.5116 0.5513 0
M  V30 27 H 1.496 0.6395 -1.0911 0
M  V30 28 H 1.2437 -2.4617 -1.2742 0
M  V30 29 H 3.5769 -0.6082 -0.6473 0
M  V30 30 H 3.4958 -1.9603 -1.7665 0
M  V30 31 H -1.6789 0.6012 -0.484 0
M  V30 32 H 0.6914 -1.1023 -3.6493 0
M  V30 33 H 3.2241 -3.3541 0.0164 0
M  V30 34 H -3.6575 0.5504 -1.9456 0
M  V30 35 H -1.2981 -1.1479 -5.1034 0
M  V30 36 H -3.4797 -0.3176 -4.2626 0
M  V30 END ATOM
M  V30 BEGIN BOND
M  V30 1 1 1 2
M  V30 2 2 2 3
M  V30 3 1 2 4
M  V30 4 1 3 5
M  V30 5 2 4 6
M  V30 6 2 5 7
M  V30 7 1 7 8
M  V30 8 2 8 9
M  V30 9 2 8 10
M  V30 10 1 8 11
M  V30 11 1 11 12
M  V30 12 1 11 13
M  V30 13 1 12 14
M  V30 14 1 13 15
M  V30 15 2 14 16
M  V30 16 1 14 17
M  V30 17 1 15 18
M  V30 18 1 16 19
M  V30 19 2 17 20
M  V30 20 2 19 21
M  V30 21 1 6 7
M  V30 22 1 12 13
M  V30 23 1 20 21
M  V30 24 1 3 22
M  V30 25 1 4 23
M  V30 26 1 5 24
M  V30 27 1 6 25
M  V30 28 1 11 26
M  V30 29 1 12 27
M  V30 30 1 13 28
M  V30 31 1 15 29
M  V30 32 1 15 30
M  V30 33 1 16 31
M  V30 34 1 17 32
M  V30 35 1 18 33
M  V30 36 1 19 34
M  V30 37 1 20 35
M  V30 38 1 21 36
M  V30 END BOND
M  V30 BEGIN COLLECTION
M  V30 MDLV30/STEABS ATOMS=(3 11 12 13)
M  V30 END COLLECTION
M  V30 END CTAB
M  END
>  <Column 1>
2851

>  <level_0>
4092

>  <index>
4092

>  <Unnamed: 0>
4092

>  <NO.>
4104

>  <Name>
bcnu

>  <IUPAC_name>
[(1s-2s-3s)-2-(4-chlorophenyl)sulfonyl-3-phenylcyclopropyl]methanol

>  <SMILES>
O=S(=O)(c1ccc(Cl)cc1)[C@@H]1[C@H](CO)[C@H]1c1ccccc1

>  <CID>
100002578

>  <logBB>


>  <BBB+/BBB->
BBB+

>  <Inchi>
InChI=1S/C16H15ClO3S/c17-12-6-8-13(9-7-12)21(19-20)16-14(10-18)15(16)11-4-2-1-3-5-11/h1-9-14-16-18H-10H2/t14--15--16-/m1/s1

>  <threshold>
-1

>  <reference>
R16|R10|

>  <group>
B

>  <Class>
1

>  <ABC>
16.41

>  <ABCGG>
14.33

>  <nAcid>
0

>  <nBase>
0

>  <nAromAtom>
12

>  <nAromBond>
12

>  <nAtom>
36

>  <nHeavyAtom>
21

>  <nSpiro>
0

>  <nBridgehead>
0

>  <nHetero>
5

>  <nN>
0

>  <nO>
3

>  <nF>
0

>  <BalabanJ>
1.66

>  <BertzCT>
725.88

>  <nBonds>
38

>  <nBondsO>
23

>  <nBondsS>
24

>  <nBondsD>
2

>  <nBondsT>
0

>  <nBondsA>
12

>  <nBondsM>
14

>  <nBondsKS>
30

>  <nBondsKD>
8

>  <RNCG>
0.27

>  <RPCG>
0.15

>  <FCSP3>
0.25

>  <SZ>
28

>  <Sm>
26.88

>  <Sv>
24.49

>  <Sse>
36.49

>  <Sp>
26.47

>  <Si>
39.81

>  <MZ>
0.78

>  <Mm>
0.75

>  <Mv>
0.68

>  <Mse>
1.01

>  <Mp>
0.74

>  <Mi>
1.11

>  <NsCH3>
0

>  <NdCH2>
0

>  <NssCH2>
1

>  <NtCH>
0

>  <NdsCH>
0

>  <NaaCH>
9

>  <NsssCH>
3

>  <NddC>
0

>  <NtsC>
0

>  <NdssC>
0

>  <NaasC>
3

>  <NaaaC>
0

>  <NssssC>
0

>  <NsNH3>
0

>  <NsNH2>
0

>  <NssNH2>
0

>  <NdNH>
0

>  <NssNH>
0

>  <NaaNH>
0

>  <NtN>
0

>  <NsssNH>
0

>  <NdsN>
0

>  <NaaN>
0

>  <NsssN>
0

>  <NddsN>
0

>  <NaasN>
0

>  <NssssN>
0

>  <NsOH>
1

>  <NdO>
2

>  <NssO>
0

>  <NaaO>
0

>  <NsF>
0

>  <NsSiH3>
0

>  <NssSiH2>
0

>  <NsssSiH>
0

>  <NssssSi>
0

>  <NsPH2>
0

>  <NssPH>
0

>  <NsssP>
0

>  <NdsssP>
0

>  <NsssssP>
0

>  <NsSH>
0

>  <NdS>
0

>  <NssS>
0

>  <NaaS>
0

>  <NdssS>
0

>  <NddssS>
1

>  <NsCl>
1

>  <NsBr>
0

>  <NsI>
0

>  <fragCpx>
109.05

>  <fMF>
0.44

>  <nHBAcc>
3

>  <nHBDon>
1

>  <Kier1>
15.88

>  <Kier2>
6.25

>  <Lipinski>
1

>  <GhoseFilter>
1

>  <FilterItLogS>
-4.04

>  <VMcGowan>
224.12

>  <LabuteASA>
128.67

>  <PEOE_VSA1>
5.11

>  <PEOE_VSA2>
0

>  <PEOE_VSA3>
8.42

>  <PEOE_VSA4>
0

>  <PEOE_VSA5>
0

>  <PEOE_VSA6>
41.93

>  <PEOE_VSA7>
29.83

>  <PEOE_VSA8>
23.47

>  <PEOE_VSA9>
10.15

>  <PEOE_VSA10>
0

>  <PEOE_VSA11>
9.84

>  <PEOE_VSA12>
0

>  <PEOE_VSA13>
0

>  <SMR_VSA1>
13.52

>  <SMR_VSA2>
0

>  <SMR_VSA3>
0

>  <SMR_VSA4>
5.92

>  <SMR_VSA5>
16.06

>  <SMR_VSA6>
6.61

>  <SMR_VSA7>
65.18

>  <SMR_VSA8>
0

>  <SMR_VSA9>
0

>  <SlogP_VSA1>
0

>  <SlogP_VSA2>
25.38

>  <SlogP_VSA3>
9.84

>  <SlogP_VSA4>
5.92

>  <SlogP_VSA5>
11.48

>  <SlogP_VSA6>
59.49

>  <SlogP_VSA7>
5.02

>  <SlogP_VSA8>
0

>  <SlogP_VSA9>
0

>  <SlogP_VSA10>
0

>  <SlogP_VSA11>
0

>  <EState_VSA1>
15.09

>  <EState_VSA2>
23.34

>  <EState_VSA3>
5.02

>  <EState_VSA4>
5.56

>  <EState_VSA5>
12.13

>  <EState_VSA6>
12.13

>  <EState_VSA7>
30.33

>  <EState_VSA8>
0

>  <EState_VSA9>
11.6

>  <EState_VSA10>
13.52

>  <VSA_EState1>
25.41

>  <VSA_EState2>
0.26

>  <VSA_EState3>
9.42

>  <VSA_EState4>
0.96

>  <VSA_EState5>
-0.38

>  <VSA_EState6>
15.66

>  <VSA_EState7>
0

>  <VSA_EState8>
-0.13

>  <VSA_EState9>
-3.46

>  <apol>
44.21

>  <bpol>
22.21

>  <nRing>
3

>  <nHRing>
0

>  <naRing>
2

>  <naHRing>
0

>  <nARing 2>
1

>  <nAHRing 2>
0

>  <nFRing>
0

>  <nFHRing>
0

>  <nFaRing>
0

>  <nFaHRing>
0

>  <nFARing 2>
0

>  <nFAHRing 2>
0

>  <nRot>
4

>  <SLogP>
2.89

>  <SMR>
82.18

>  <TopoPSA(NO)>
54.37

>  <TopoPSA>
62.75

>  <JGI1>
0.2

>  <JGI2>
0.11

>  <JGI3>
0.08

>  <JGI4>
0.05

>  <JGI5>
0.03

>  <Diameter>
11

>  <Radius>
6

>  <TMWC10>
120.05

>  <TSRW10>
76.13

>  <MW>
322.04

>  <AMW>
8.95

>  <WPath>
913

>  <WPol>
33

>  <Zagreb1>
114

>  <Zagreb2>
139

>  <mZagreb2>
4.61

>  <yes>


>  <nAR-cont>
0.816016

>  <nHA-cont>
0.994529749

>  <MWHBN>
0.222897441

>  <MWHBN-cont>
0.992972694

>  <TPSA-cont>
0.561966035

>  <pka_cont>
0.97

>  <yes.1>


>  <BBB_SCORE>
4.90893686

>  <MMFF94 Energy>
60.3

$$$$
Compound 2338
Actelion Java MolfileCreator 2.0

  0  0  0  0  0  0              0 V3000
M  V30 BEGIN CTAB
M  V30 COUNTS 51 54 0 0 0
M  V30 BEGIN ATOM
M  V30 1 O -4.0658 -0.5573 -5.0243 0
M  V30 2 C -2.7187 -0.5421 -4.5478 0
M  V30 3 C -2.6088 0.3734 -3.3252 0
M  V30 4 C -2.2888 -1.9794 -4.2428 0
M  V30 5 C -3.2762 -0.2509 -2.0976 0
M  V30 6 C -2.9868 -2.5168 -2.9919 0
M  V30 7 N -2.7451 -1.5979 -1.8782 0
M  V30 8 C -1.6324 -1.7394 -1.0583 0
M  V30 9 N -0.9985 -0.629 -0.6315 0
M  V30 10 C -1.1895 -2.9825 -0.6543 0
M  V30 11 C 0.0767 -0.754 0.1578 0
M  V30 12 C -0.0814 -3.0187 0.1566 0
M  V30 13 N 0.5708 -1.923 0.5648 0
M  V30 14 N 0.6598 0.4187 0.545 0
M  V30 15 C 1.7286 0.4714 1.5252 0 CFG=2
M  V30 16 C 1.2329 0.3694 2.969 0
M  V30 17 C 2.4705 1.8072 1.3767 0
M  V30 18 N 2.1286 -0.0828 3.8885 0
M  V30 19 C -0.0522 0.7714 3.3405 0
M  V30 20 C 3.8567 1.9503 2.066 0
M  V30 21 C 3.223 2.021 0.0344 0
M  V30 22 C 1.7286 -0.16 5.1763 0
M  V30 23 C -0.4347 0.6846 4.6773 0
M  V30 24 C 4.3161 2.7634 0.8353 0
M  V30 25 C 0.4704 0.2085 5.6156 0
M  V30 26 O 5.6707 2.5478 0.408 0
M  V30 27 H -4.2756 0.3416 -5.3326 0
M  V30 28 H -2.0987 -0.1479 -5.3608 0
M  V30 29 H -1.5495 0.5611 -3.1139 0
M  V30 30 H -3.0812 1.3406 -3.5317 0
M  V30 31 H -1.2022 -2.0076 -4.0958 0
M  V30 32 H -2.5282 -2.6318 -5.0903 0
M  V30 33 H -4.358 -0.3233 -2.2697 0
M  V30 34 H -3.1635 0.3953 -1.2187 0
M  V30 35 H -2.6557 -3.5399 -2.7912 0
M  V30 36 H -4.0675 -2.5838 -3.1705 0
M  V30 37 H -1.6913 -3.8995 -0.9241 0
M  V30 38 H 0.3206 -3.9601 0.5173 0
M  V30 39 H 0.184 1.2471 0.2315 0
M  V30 40 H 2.4398 -0.3458 1.3453 0
M  V30 41 H 1.8161 2.6643 1.603 0
M  V30 42 H -0.7588 1.1383 2.6036 0
M  V30 43 H 4.4032 1.0099 2.2031 0
M  V30 44 H 3.851 2.497 3.0131 0
M  V30 45 H 3.5751 1.1015 -0.4481 0
M  V30 46 H 2.6913 2.6257 -0.7054 0
M  V30 47 H 2.4746 -0.5388 5.8688 0
M  V30 48 H -1.4344 0.9825 4.9798 0
M  V30 49 H 4.1118 3.8368 0.9388 0
M  V30 50 H 0.2021 0.1246 6.6622 0
M  V30 51 H 5.7349 2.9862 -0.4572 0
M  V30 END ATOM
M  V30 BEGIN BOND
M  V30 1 1 1 2
M  V30 2 1 2 3
M  V30 3 1 2 4
M  V30 4 1 3 5
M  V30 5 1 4 6
M  V30 6 1 5 7
M  V30 7 1 7 8
M  V30 8 2 8 9
M  V30 9 1 8 10
M  V30 10 1 9 11
M  V30 11 2 10 12
M  V30 12 2 11 13
M  V30 13 1 11 14
M  V30 14 1 14 15
M  V30 15 1 15 16
M  V30 16 1 15 17
M  V30 17 2 16 18
M  V30 18 1 16 19
M  V30 19 1 17 20
M  V30 20 1 17 21
M  V30 21 1 18 22
M  V30 22 2 19 23
M  V30 23 1 20 24
M  V30 24 2 22 25
M  V30 25 1 24 26
M  V30 26 1 6 7
M  V30 27 1 12 13
M  V30 28 1 21 24
M  V30 29 1 23 25
M  V30 30 1 1 27
M  V30 31 1 2 28
M  V30 32 1 3 29
M  V30 33 1 3 30
M  V30 34 1 4 31
M  V30 35 1 4 32
M  V30 36 1 5 33
M  V30 37 1 5 34
M  V30 38 1 6 35
M  V30 39 1 6 36
M  V30 40 1 10 37
M  V30 41 1 12 38
M  V30 42 1 14 39
M  V30 43 1 15 40
M  V30 44 1 17 41
M  V30 45 1 19 42
M  V30 46 1 20 43
M  V30 47 1 20 44
M  V30 48 1 21 45
M  V30 49 1 21 46
M  V30 50 1 22 47
M  V30 51 1 23 48
M  V30 52 1 24 49
M  V30 53 1 25 50
M  V30 54 1 26 51
M  V30 END BOND
M  V30 BEGIN COLLECTION
M  V30 MDLV30/STEABS ATOMS=(1 15)
M  V30 END COLLECTION
M  V30 END CTAB
M  END
>  <Column 1>
2852

>  <level_0>
4093

>  <index>
4093

>  <Unnamed: 0>
4093

>  <NO.>
4105

>  <Name>
abacavir

>  <IUPAC_name>
1-[2-[[(s)-(3-hydroxycyclobutyl)-pyridin-2-ylmethyl]amino]pyrimidin-4-yl]piperidin-4-ol

>  <SMILES>
OC1CCN(c2ccnc(N[C@H](c3ccccn3)C3CC(O)C3)n2)CC1

>  <CID>
100001971

>  <logBB>


>  <BBB+/BBB->
BBB+

>  <Inchi>
InChI=1S/C19H25N5O2/c25-14-5-9-24(10-6-14)17-4-8-21-19(22-17)23-18(13-11-15(26)12-13)16-3-1-2-7-20-16/h1-4-7-8-13-15-18-25-26H-5-6-9-12H2-(H-21-22-23)/t13?-15?-18-/m0/s1

>  <threshold>
-1

>  <reference>
R16|R10|

>  <group>
B

>  <Class>
1

>  <ABC>
20.6

>  <ABCGG>
15.82

>  <nAcid>
0

>  <nBase>
0

>  <nAromAtom>
12

>  <nAromBond>
12

>  <nAtom>
51

>  <nHeavyAtom>
26

>  <nSpiro>
0

>  <nBridgehead>
0

>  <nHetero>
7

>  <nN>
5

>  <nO>
2

>  <nF>
0

>  <BalabanJ>
1.34

>  <BertzCT>
714.88

>  <nBonds>
54

>  <nBondsO>
29

>  <nBondsS>
42

>  <nBondsD>
0

>  <nBondsT>
0

>  <nBondsA>
12

>  <nBondsM>
12

>  <nBondsKS>
48

>  <nBondsKD>
6

>  <RNCG>
0.17

>  <RPCG>
0.09

>  <FCSP3>
0.53

>  <SZ>
31.67

>  <Sm>
29.59

>  <Sv>
30.99

>  <Sse>
51.08

>  <Sp>
33.24

>  <Si>
58.06

>  <MZ>
0.62

>  <Mm>
0.58

>  <Mv>
0.61

>  <Mse>
1

>  <Mp>
0.65

>  <Mi>
1.14

>  <NsCH3>
0

>  <NdCH2>
0

>  <NssCH2>
6

>  <NtCH>
0

>  <NdsCH>
0

>  <NaaCH>
6

>  <NsssCH>
4

>  <NddC>
0

>  <NtsC>
0

>  <NdssC>
0

>  <NaasC>
3

>  <NaaaC>
0

>  <NssssC>
0

>  <NsNH3>
0

>  <NsNH2>
0

>  <NssNH2>
0

>  <NdNH>
0

>  <NssNH>
1

>  <NaaNH>
0

>  <NtN>
0

>  <NsssNH>
0

>  <NdsN>
0

>  <NaaN>
3

>  <NsssN>
1

>  <NddsN>
0

>  <NaasN>
0

>  <NssssN>
0

>  <NsOH>
2

>  <NdO>
0

>  <NssO>
0

>  <NaaO>
0

>  <NsF>
0

>  <NsSiH3>
0

>  <NssSiH2>
0

>  <NsssSiH>
0

>  <NssssSi>
0

>  <NsPH2>
0

>  <NssPH>
0

>  <NsssP>
0

>  <NdsssP>
0

>  <NsssssP>
0

>  <NsSH>
0

>  <NdS>
0

>  <NssS>
0

>  <NaaS>
0

>  <NdssS>
0

>  <NddssS>
0

>  <NsCl>
0

>  <NsBr>
0

>  <NsI>
0

>  <fragCpx>
191.07

>  <fMF>
0.47

>  <nHBAcc>
7

>  <nHBDon>
3

>  <Kier1>
19.32

>  <Kier2>
9

>  <Lipinski>
1

>  <GhoseFilter>
1

>  <FilterItLogS>
-2.94

>  <VMcGowan>
270.97

>  <LabuteASA>
152.68

>  <PEOE_VSA1>
20.43

>  <PEOE_VSA2>
4.98

>  <PEOE_VSA3>
4.98

>  <PEOE_VSA4>
4.98

>  <PEOE_VSA5>
0

>  <PEOE_VSA6>
6.07

>  <PEOE_VSA7>
49.8

>  <PEOE_VSA8>
25.48

>  <PEOE_VSA9>
23.94

>  <PEOE_VSA10>
5.82

>  <PEOE_VSA11>
0

>  <PEOE_VSA12>
5.95

>  <PEOE_VSA13>
0

>  <SMR_VSA1>
10.21

>  <SMR_VSA2>
0

>  <SMR_VSA3>
14.95

>  <SMR_VSA4>
5.92

>  <SMR_VSA5>
43.93

>  <SMR_VSA6>
23.31

>  <SMR_VSA7>
42.35

>  <SMR_VSA8>
0

>  <SMR_VSA9>
0

>  <SlogP_VSA1>
10.22

>  <SlogP_VSA2>
50.46

>  <SlogP_VSA3>
0

>  <SlogP_VSA4>
5.92

>  <SlogP_VSA5>
37.42

>  <SlogP_VSA6>
36.66

>  <SlogP_VSA7>
0

>  <SlogP_VSA8>
0

>  <SlogP_VSA9>
0

>  <SlogP_VSA10>
11.77

>  <SlogP_VSA11>
0

>  <EState_VSA1>
0

>  <EState_VSA2>
18.25

>  <EState_VSA3>
11.87

>  <EState_VSA4>
50.28

>  <EState_VSA5>
0

>  <EState_VSA6>
12.39

>  <EState_VSA7>
24.27

>  <EState_VSA8>
25.17

>  <EState_VSA9>
0

>  <EState_VSA10>
10.21

>  <VSA_EState1>
0

>  <VSA_EState2>
15.73

>  <VSA_EState3>
22.83

>  <VSA_EState4>
0.94

>  <VSA_EState5>
1.77

>  <VSA_EState6>
7.77

>  <VSA_EState7>
6.18

>  <VSA_EState8>
1.6

>  <VSA_EState9>
0

>  <apol>
55.5

>  <bpol>
30.78

>  <nRing>
4

>  <nHRing>
3

>  <naRing>
2

>  <naHRing>
2

>  <nARing 2>
2

>  <nAHRing 2>
1

>  <nFRing>
0

>  <nFHRing>
0

>  <nFaRing>
0

>  <nFaHRing>
0

>  <nFARing 2>
0

>  <nFAHRing 2>
0

>  <nRot>
5

>  <SLogP>
1.76

>  <SMR>
98.82

>  <TopoPSA(NO)>
94.4

>  <TopoPSA>
94.4

>  <JGI1>
0.17

>  <JGI2>
0.06

>  <JGI3>
0.04

>  <JGI4>
0.03

>  <JGI5>
0.02

>  <Diameter>
13

>  <Radius>
7

>  <TMWC10>
130.56

>  <TSRW10>
61.26

>  <MW>
355.2

>  <AMW>
6.96

>  <WPath>
1743

>  <WPol>
37

>  <Zagreb1>
138

>  <Zagreb2>
161

>  <mZagreb2>
5.67

>  <yes>


>  <nAR-cont>
1

>  <nHA-cont>
0.892715677

>  <MWHBN>
0.53059545

>  <MWHBN-cont>
0

>  <TPSA-cont>
0.341029381

>  <pka_cont>
0.97

>  <yes.1>


>  <BBB_SCORE>
3.05977444

>  <MMFF94 Energy>
-71.024

$$$$
Compound 2339
Actelion Java MolfileCreator 2.0

  0  0  0  0  0  0              0 V3000
M  V30 BEGIN CTAB
M  V30 COUNTS 32 34 0 0 0
M  V30 BEGIN ATOM
M  V30 1 N 2.3109 1.1151 2.1514 0
M  V30 2 C 1.4144 1.7406 1.4317 0
M  V30 3 C 1.9326 1.4112 3.5657 0
M  V30 4 N 0.4577 2.42 2.1263 0
M  V30 5 C 1.4329 1.6965 -0.0809 0
M  V30 6 C 0.6188 2.2054 3.5333 0
M  V30 7 C 0.4745 0.6492 -0.5912 0
M  V30 8 C 0.9038 -0.5516 -1.0217 0
M  V30 9 C -0.9972 0.9906 -0.5937 0
M  V30 10 C -0.0417 -1.5765 -1.4779 0
M  V30 11 C -1.806 0.2094 -1.6384 0
M  V30 12 C -1.375 -1.2293 -1.7563 0
M  V30 13 C 0.3777 -2.8996 -1.6503 0
M  V30 14 C -2.2676 -2.2072 -2.214 0
M  V30 15 C -0.5212 -3.8717 -2.093 0
M  V30 16 C -1.8417 -3.5256 -2.3747 0
M  V30 17 H 1.814 0.4764 4.123 0
M  V30 18 H 2.7312 1.9944 4.0366 0
M  V30 19 H -0.3348 2.8887 1.7152 0
M  V30 20 H 2.4579 1.4862 -0.4088 0
M  V30 21 H 1.1669 2.6831 -0.4761 0
M  V30 22 H -0.2105 1.6174 3.9374 0
M  V30 23 H 0.6994 3.1466 4.0844 0
M  V30 24 H 1.9587 -0.8103 -1.002 0
M  V30 25 H -1.398 0.7843 0.407 0
M  V30 26 H -1.1423 2.0613 -0.7803 0
M  V30 27 H -1.682 0.6798 -2.6223 0
M  V30 28 H -2.8697 0.2703 -1.3792 0
M  V30 29 H 1.4047 -3.1847 -1.4362 0
M  V30 30 H -3.2957 -1.9454 -2.4511 0
M  V30 31 H -0.189 -4.8984 -2.2207 0
M  V30 32 H -2.5382 -4.2824 -2.7257 0
M  V30 END ATOM
M  V30 BEGIN BOND
M  V30 1 2 1 2
M  V30 2 1 1 3
M  V30 3 1 2 4
M  V30 4 1 2 5
M  V30 5 1 3 6
M  V30 6 1 5 7
M  V30 7 2 7 8
M  V30 8 1 7 9
M  V30 9 1 8 10
M  V30 10 1 9 11
M  V30 11 2 10 12
M  V30 12 1 10 13
M  V30 13 1 12 14
M  V30 14 2 13 15
M  V30 15 2 14 16
M  V30 16 1 4 6
M  V30 17 1 11 12
M  V30 18 1 15 16
M  V30 19 1 3 17
M  V30 20 1 3 18
M  V30 21 1 4 19
M  V30 22 1 5 20
M  V30 23 1 5 21
M  V30 24 1 6 22
M  V30 25 1 6 23
M  V30 26 1 8 24
M  V30 27 1 9 25
M  V30 28 1 9 26
M  V30 29 1 11 27
M  V30 30 1 11 28
M  V30 31 1 13 29
M  V30 32 1 14 30
M  V30 33 1 15 31
M  V30 34 1 16 32
M  V30 END BOND
M  V30 END CTAB
M  END
>  <Column 1>
2853

>  <level_0>
4097

>  <index>
4097

>  <Unnamed: 0>
4097

>  <NO.>
4109

>  <Name>
napamezole

>  <IUPAC_name>
2-(3-4-dihydronaphthalen-2-ylmethyl)-4-5-dihydro-1h-imidazole

>  <SMILES>
C1=C(CC2=NCCN2)CCc2ccccc21

>  <CID>
55718

>  <logBB>


>  <BBB+/BBB->
BBB+

>  <Inchi>
InChI=1S/C14H16N2/c1-2-4-13-9-11(5-6-12(13)3-1)10-14-15-7-8-16-14/h1-4-9H-5-8-10H2-(H-15-16)

>  <threshold>
-1

>  <reference>
R19|R6|R24|R27|R27|R30|

>  <group>
B

>  <Class>
1

>  <ABC>
12.69

>  <ABCGG>
10.32

>  <nAcid>
0

>  <nBase>
2

>  <nAromAtom>
6

>  <nAromBond>
6

>  <nAtom>
32

>  <nHeavyAtom>
16

>  <nSpiro>
0

>  <nBridgehead>
0

>  <nHetero>
2

>  <nN>
2

>  <nO>
0

>  <nF>
0

>  <BalabanJ>
1.5

>  <BertzCT>
457.56

>  <nBonds>
34

>  <nBondsO>
18

>  <nBondsS>
26

>  <nBondsD>
2

>  <nBondsT>
0

>  <nBondsA>
6

>  <nBondsM>
8

>  <nBondsKS>
29

>  <nBondsKD>
5

>  <RNCG>
0.34

>  <RPCG>
0.15

>  <FCSP3>
0.36

>  <SZ>
19

>  <Sm>
17.68

>  <Sv>
19.85

>  <Sse>
31.43

>  <Sp>
21.71

>  <Si>
35.9

>  <MZ>
0.59

>  <Mm>
0.55

>  <Mv>
0.62

>  <Mse>
0.98

>  <Mp>
0.68

>  <Mi>
1.12

>  <NsCH3>
0

>  <NdCH2>
0

>  <NssCH2>
5

>  <NtCH>
0

>  <NdsCH>
1

>  <NaaCH>
4

>  <NsssCH>
0

>  <NddC>
0

>  <NtsC>
0

>  <NdssC>
2

>  <NaasC>
2

>  <NaaaC>
0

>  <NssssC>
0

>  <NsNH3>
0

>  <NsNH2>
0

>  <NssNH2>
0

>  <NdNH>
0

>  <NssNH>
1

>  <NaaNH>
0

>  <NtN>
0

>  <NsssNH>
0

>  <NdsN>
1

>  <NaaN>
0

>  <NsssN>
0

>  <NddsN>
0

>  <NaasN>
0

>  <NssssN>
0

>  <NsOH>
0

>  <NdO>
0

>  <NssO>
0

>  <NaaO>
0

>  <NsF>
0

>  <NsSiH3>
0

>  <NssSiH2>
0

>  <NsssSiH>
0

>  <NssssSi>
0

>  <NsPH2>
0

>  <NssPH>
0

>  <NsssP>
0

>  <NdsssP>
0

>  <NsssssP>
0

>  <NsSH>
0

>  <NdS>
0

>  <NssS>
0

>  <NaaS>
0

>  <NdssS>
0

>  <NddssS>
0

>  <NsCl>
0

>  <NsBr>
0

>  <NsI>
0

>  <fragCpx>
84.02

>  <fMF>
0.5

>  <nHBAcc>
2

>  <nHBDon>
1

>  <Kier1>
11.11

>  <Kier2>
5.1

>  <Lipinski>
1

>  <GhoseFilter>
1

>  <FilterItLogS>
-3.98

>  <VMcGowan>
174

>  <LabuteASA>
96.09

>  <PEOE_VSA1>
5.32

>  <PEOE_VSA2>
4.99

>  <PEOE_VSA3>
0

>  <PEOE_VSA4>
0

>  <PEOE_VSA5>
0

>  <PEOE_VSA6>
35.91

>  <PEOE_VSA7>
23.97

>  <PEOE_VSA8>
12.97

>  <PEOE_VSA9>
6.54

>  <PEOE_VSA10>
5.84

>  <PEOE_VSA11>
0

>  <PEOE_VSA12>
0

>  <PEOE_VSA13>
0

>  <SMR_VSA1>
0

>  <SMR_VSA2>
0

>  <SMR_VSA3>
5.32

>  <SMR_VSA4>
4.99

>  <SMR_VSA5>
19.26

>  <SMR_VSA6>
13.09

>  <SMR_VSA7>
40.97

>  <SMR_VSA8>
0

>  <SMR_VSA9>
0

>  <SlogP_VSA1>
5.32

>  <SlogP_VSA2>
18.93

>  <SlogP_VSA3>
6.42

>  <SlogP_VSA4>
0

>  <SlogP_VSA5>
23.97

>  <SlogP_VSA6>
34.83

>  <SlogP_VSA7>
0

>  <SlogP_VSA8>
6.08

>  <SlogP_VSA9>
0

>  <SlogP_VSA10>
0

>  <SlogP_VSA11>
0

>  <EState_VSA1>
0

>  <EState_VSA2>
0

>  <EState_VSA3>
0

>  <EState_VSA4>
19.51

>  <EState_VSA5>
35.38

>  <EState_VSA6>
0

>  <EState_VSA7>
0

>  <EState_VSA8>
40.65

>  <EState_VSA9>
0

>  <EState_VSA10>
0

>  <VSA_EState1>
0

>  <VSA_EState2>
4.45

>  <VSA_EState3>
3.34

>  <VSA_EState4>
4.38

>  <VSA_EState5>
1.17

>  <VSA_EState6>
8.68

>  <VSA_EState7>
5.7

>  <VSA_EState8>
1.96

>  <VSA_EState9>
0

>  <apol>
36.25

>  <bpol>
17.76

>  <nRing>
3

>  <nHRing>
1

>  <naRing>
1

>  <naHRing>
0

>  <nARing 2>
2

>  <nAHRing 2>
1

>  <nFRing>
1

>  <nFHRing>
0

>  <nFaRing>
0

>  <nFaHRing>
0

>  <nFARing 2>
1

>  <nFAHRing 2>
0

>  <nRot>
2

>  <SLogP>
2.41

>  <SMR>
67.66

>  <TopoPSA(NO)>
24.39

>  <TopoPSA>
24.39

>  <JGI1>
0.14

>  <JGI2>
0.05

>  <JGI3>
0.03

>  <JGI4>
0.03

>  <JGI5>
0.01

>  <Diameter>
9

>  <Radius>
5

>  <TMWC10>
104.47

>  <TSRW10>
61.47

>  <MW>
212.13

>  <AMW>
6.63

>  <WPath>
455

>  <WPol>
20

>  <Zagreb1>
84

>  <Zagreb2>
97

>  <mZagreb2>
3.53

>  <yes>


>  <nAR-cont>
1

>  <nHA-cont>
0.954961865

>  <MWHBN>
0.205977702

>  <MWHBN-cont>
0.999938427

>  <TPSA-cont>
0.829742655

>  <pka_cont>
0.97

>  <yes.1>


>  <BBB_SCORE>
5.599354815

>  <MMFF94 Energy>
54.85

$$$$
Compound 2340
Actelion Java MolfileCreator 2.0

  0  0  0  0  0  0              0 V3000
M  V30 BEGIN CTAB
M  V30 COUNTS 35 37 0 0 0
M  V30 BEGIN ATOM
M  V30 1 Cl 3.3923 1.372 3.4732 0
M  V30 2 C 2.5599 0.3482 2.3701 0
M  V30 3 C 1.3829 0.7888 1.7698 0
M  V30 4 C 3.0666 -0.9144 2.0839 0
M  V30 5 C 0.6997 -0.0443 0.8689 0
M  V30 6 C 2.3853 -1.7439 1.1909 0
M  V30 7 C -0.5526 0.477 0.2545 0
M  V30 8 C 1.1929 -1.3325 0.5807 0
M  V30 9 N -1.6101 -0.3105 0.128 0 CHG=1
M  V30 10 C -0.5978 1.8821 -0.2166 0
M  V30 11 N 0.6161 -2.2366 -0.326 0
M  V30 12 O -2.6998 0.1184 -0.3886 0 CHG=-1
M  V30 13 C -1.6139 -1.7141 0.5743 0
M  V30 14 C 0.3849 2.3312 -1.1047 0
M  V30 15 C -1.5745 2.7624 0.2561 0
M  V30 16 C -0.669 -2.4391 -0.3539 0
M  V30 17 C 0.3851 3.6627 -1.522 0
M  V30 18 C -1.5701 4.0926 -0.1656 0
M  V30 19 N -1.2234 -3.3263 -1.2472 0
M  V30 20 C -0.5908 4.5421 -1.052 0
M  V30 21 C -0.4534 -4.0679 -2.2147 0
M  V30 22 H 1.0012 1.7781 2.0106 0
M  V30 23 H 3.9881 -1.2599 2.5447 0
M  V30 24 H 2.7872 -2.7282 0.9593 0
M  V30 25 H -2.6308 -2.1106 0.4941 0
M  V30 26 H -1.2987 -1.7714 1.6196 0
M  V30 27 H 1.1445 1.6525 -1.4834 0
M  V30 28 H -2.3448 2.4208 0.9422 0
M  V30 29 H 1.1432 4.0137 -2.2173 0
M  V30 30 H -2.3349 4.7767 0.1927 0
M  V30 31 H -2.2322 -3.4125 -1.3073 0
M  V30 32 H -0.5926 5.5779 -1.382 0
M  V30 33 H 0.2794 -4.7111 -1.718 0
M  V30 34 H -1.1162 -4.7048 -2.8078 0
M  V30 35 H 0.068 -3.3907 -2.8981 0
M  V30 END ATOM
M  V30 BEGIN BOND
M  V30 1 1 1 2
M  V30 2 2 2 3
M  V30 3 1 2 4
M  V30 4 1 3 5
M  V30 5 2 4 6
M  V30 6 1 5 7
M  V30 7 2 5 8
M  V30 8 2 7 9
M  V30 9 1 7 10
M  V30 10 1 8 11
M  V30 11 1 9 12
M  V30 12 1 9 13
M  V30 13 2 10 14
M  V30 14 1 10 15
M  V30 15 2 11 16
M  V30 16 1 14 17
M  V30 17 2 15 18
M  V30 18 1 16 19
M  V30 19 2 17 20
M  V30 20 1 19 21
M  V30 21 1 6 8
M  V30 22 1 13 16
M  V30 23 1 18 20
M  V30 24 1 3 22
M  V30 25 1 4 23
M  V30 26 1 6 24
M  V30 27 1 13 25
M  V30 28 1 13 26
M  V30 29 1 14 27
M  V30 30 1 15 28
M  V30 31 1 17 29
M  V30 32 1 18 30
M  V30 33 1 19 31
M  V30 34 1 20 32
M  V30 35 1 21 33
M  V30 36 1 21 34
M  V30 37 1 21 35
M  V30 END BOND
M  V30 END CTAB
M  END
>  <Column 1>
2857

>  <level_0>
4472

>  <index>
4472

>  <Unnamed: 0>
4472

>  <NO.>
4484

>  <Name>
chlordiazepoxide

>  <IUPAC_name>


>  <SMILES>
CNC1=Nc2ccc(Cl)cc2C(c2ccccc2)=[N+]([O-])C1

>  <CID>
2712

>  <logBB>


>  <BBB+/BBB->
BBB+

>  <Inchi>
InChI=1S/C16H14ClN3O/c1-18-15-10-20(21)16(11-5-3-2-4-6-11)13-9-12(17)7-8-14(13)19-15/h2-9H-10H2-1H3-(H-18-19)

>  <threshold>
-1

>  <reference>
R19|R27|R27|

>  <group>
B

>  <Class>
-1

>  <ABC>
16.32

>  <ABCGG>
13.52

>  <nAcid>
0

>  <nBase>
2

>  <nAromAtom>
12

>  <nAromBond>
12

>  <nAtom>
35

>  <nHeavyAtom>
21

>  <nSpiro>
0

>  <nBridgehead>
0

>  <nHetero>
5

>  <nN>
3

>  <nO>
1

>  <nF>
0

>  <BalabanJ>
1.81

>  <BertzCT>
738.44

>  <nBonds>
37

>  <nBondsO>
23

>  <nBondsS>
23

>  <nBondsD>
2

>  <nBondsT>
0

>  <nBondsA>
12

>  <nBondsM>
14

>  <nBondsKS>
29

>  <nBondsKD>
8

>  <RNCG>
0.33

>  <RPCG>
0.12

>  <FCSP3>
0.13

>  <SZ>
26

>  <Sm>
24.96

>  <Sv>
23.87

>  <Sse>
35.3

>  <Sp>
25.35

>  <Si>
39.14

>  <MZ>
0.74

>  <Mm>
0.71

>  <Mv>
0.68

>  <Mse>
1.01

>  <Mp>
0.72

>  <Mi>
1.12

>  <NsCH3>
1

>  <NdCH2>
0

>  <NssCH2>
1

>  <NtCH>
0

>  <NdsCH>
0

>  <NaaCH>
8

>  <NsssCH>
0

>  <NddC>
0

>  <NtsC>
0

>  <NdssC>
2

>  <NaasC>
4

>  <NaaaC>
0

>  <NssssC>
0

>  <NsNH3>
0

>  <NsNH2>
0

>  <NssNH2>
0

>  <NdNH>
0

>  <NssNH>
1

>  <NaaNH>
0

>  <NtN>
0

>  <NsssNH>
0

>  <NdsN>
1

>  <NaaN>
0

>  <NsssN>
0

>  <NddsN>
0

>  <NaasN>
0

>  <NssssN>
0

>  <NsOH>
0

>  <NdO>
0

>  <NssO>
0

>  <NaaO>
0

>  <NsF>
0

>  <NsSiH3>
0

>  <NssSiH2>
0

>  <NsssSiH>
0

>  <NssssSi>
0

>  <NsPH2>
0

>  <NssPH>
0

>  <NsssP>
0

>  <NdsssP>
0

>  <NsssssP>
0

>  <NsSH>
0

>  <NdS>
0

>  <NssS>
0

>  <NaaS>
0

>  <NdssS>
0

>  <NddssS>
0

>  <NsCl>
1

>  <NsBr>
0

>  <NsI>
0

>  <fragCpx>
109.05

>  <fMF>
0.49

>  <nHBAcc>
3

>  <nHBDon>
1

>  <Kier1>
15.88

>  <Kier2>
7.05

>  <Lipinski>
1

>  <GhoseFilter>
1

>  <FilterItLogS>
-5.7

>  <VMcGowan>
217.37

>  <LabuteASA>
127.54

>  <PEOE_VSA1>
10.52

>  <PEOE_VSA2>
0

>  <PEOE_VSA3>
4.99

>  <PEOE_VSA4>
4.74

>  <PEOE_VSA5>
0

>  <PEOE_VSA6>
29.8

>  <PEOE_VSA7>
30.33

>  <PEOE_VSA8>
17.63

>  <PEOE_VSA9>
11.25

>  <PEOE_VSA10>
0

>  <PEOE_VSA11>
5.84

>  <PEOE_VSA12>
12.26

>  <PEOE_VSA13>
0

>  <SMR_VSA1>
4.74

>  <SMR_VSA2>
0

>  <SMR_VSA3>
5.32

>  <SMR_VSA4>
4.99

>  <SMR_VSA5>
0

>  <SMR_VSA6>
13.59

>  <SMR_VSA7>
69.89

>  <SMR_VSA8>
0

>  <SMR_VSA9>
0

>  <SlogP_VSA1>
5.32

>  <SlogP_VSA2>
29.88

>  <SlogP_VSA3>
0

>  <SlogP_VSA4>
5.21

>  <SlogP_VSA5>
11.13

>  <SlogP_VSA6>
53.52

>  <SlogP_VSA7>
5.02

>  <SlogP_VSA8>
0

>  <SlogP_VSA9>
0

>  <SlogP_VSA10>
5.69

>  <SlogP_VSA11>
0

>  <EState_VSA1>
0

>  <EState_VSA2>
6.54

>  <EState_VSA3>
16.57

>  <EState_VSA4>
21.55

>  <EState_VSA5>
0

>  <EState_VSA6>
19.18

>  <EState_VSA7>
36.4

>  <EState_VSA8>
10.31

>  <EState_VSA9>
11.6

>  <EState_VSA10>
5.21

>  <VSA_EState1>
0.95

>  <VSA_EState2>
4.51

>  <VSA_EState3>
16.12

>  <VSA_EState4>
2.92

>  <VSA_EState5>
0.62

>  <VSA_EState6>
14.95

>  <VSA_EState7>
0

>  <VSA_EState8>
0.17

>  <VSA_EState9>
1.76

>  <apol>
42.34

>  <bpol>
17.7

>  <nRing>
3

>  <nHRing>
1

>  <naRing>
2

>  <naHRing>
0

>  <nARing 2>
1

>  <nAHRing 2>
1

>  <nFRing>
1

>  <nFHRing>
1

>  <nFaRing>
0

>  <nFaHRing>
0

>  <nFARing 2>
1

>  <nFAHRing 2>
1

>  <nRot>
1

>  <SLogP>
2.95

>  <SMR>
85.75

>  <TopoPSA(NO)>
50.46

>  <TopoPSA>
50.46

>  <JGI1>
0.17

>  <JGI2>
0.06

>  <JGI3>
0.05

>  <JGI4>
0.04

>  <JGI5>
0.02

>  <Diameter>
9

>  <Radius>
5

>  <TMWC10>
118.17

>  <TSRW10>
63.02

>  <MW>
299.08

>  <AMW>
8.55

>  <WPath>
828

>  <WPol>
37

>  <Zagreb1>
110

>  <Zagreb2>
130

>  <mZagreb2>
4.69

>  <yes>


>  <nAR-cont>
0.816016

>  <nHA-cont>
0.994529749

>  <MWHBN>
0.231295032

>  <MWHBN-cont>
0.985441364

>  <TPSA-cont>
0.647757866

>  <pka_cont>
0.97

>  <yes.1>


>  <BBB_SCORE>
5.069223528

>  <MMFF94 Energy>
35.194

$$$$
Compound 2341
Actelion Java MolfileCreator 2.0

  0  0  0  0  0  0              0 V3000
M  V30 BEGIN CTAB
M  V30 COUNTS 31 33 0 0 0
M  V30 BEGIN ATOM
M  V30 1 Cl 1.8713 3.5822 2.1156 0
M  V30 2 C 1.2539 1.9771 2.1112 0
M  V30 3 C 0.5208 1.5198 1.0177 0
M  V30 4 C 1.4977 1.1414 3.1967 0
M  V30 5 C 0.015 0.2103 1.0058 0
M  V30 6 C 0.9928 -0.1599 3.1955 0
M  V30 7 C -0.679 -0.2564 -0.2265 0
M  V30 8 C 0.2346 -0.6258 2.1142 0
M  V30 9 N -1.7645 -1.013 -0.1579 0 CHG=1
M  V30 10 C -0.1257 0.1305 -1.5495 0
M  V30 11 N -0.2425 -1.9396 2.2014 0
M  V30 12 O -2.3521 -1.4096 -1.2216 0 CHG=-1
M  V30 13 C -2.3788 -1.4194 1.1114 0
M  V30 14 C 1.2085 -0.1687 -1.8436 0
M  V30 15 C -0.9098 0.8322 -2.4691 0
M  V30 16 C -1.4491 -2.4016 1.7523 0
M  V30 17 C 1.7549 0.2324 -3.0632 0
M  V30 18 C -0.3581 1.2295 -3.6876 0
M  V30 19 O -1.7585 -3.5754 1.9507 0
M  V30 20 C 0.9725 0.9315 -3.9831 0
M  V30 21 H 0.354 2.1884 0.1757 0
M  V30 22 H 2.0755 1.4965 4.0469 0
M  V30 23 H 1.1835 -0.7972 4.0568 0
M  V30 24 H 0.2939 -2.627 2.7201 0
M  V30 25 H -2.5557 -0.5415 1.7387 0
M  V30 26 H -3.3404 -1.9002 0.9041 0
M  V30 27 H 1.8252 -0.7197 -1.1392 0
M  V30 28 H -1.9496 1.0623 -2.252 0
M  V30 29 H 2.7889 -0.0045 -3.3002 0
M  V30 30 H -0.9692 1.7649 -4.4099 0
M  V30 31 H 1.3976 1.2377 -4.9358 0
M  V30 END ATOM
M  V30 BEGIN BOND
M  V30 1 1 1 2
M  V30 2 2 2 3
M  V30 3 1 2 4
M  V30 4 1 3 5
M  V30 5 2 4 6
M  V30 6 1 5 7
M  V30 7 2 5 8
M  V30 8 2 7 9
M  V30 9 1 7 10
M  V30 10 1 8 11
M  V30 11 1 9 12
M  V30 12 1 9 13
M  V30 13 2 10 14
M  V30 14 1 10 15
M  V30 15 1 11 16
M  V30 16 1 14 17
M  V30 17 2 15 18
M  V30 18 2 16 19
M  V30 19 2 17 20
M  V30 20 1 6 8
M  V30 21 1 13 16
M  V30 22 1 18 20
M  V30 23 1 3 21
M  V30 24 1 4 22
M  V30 25 1 6 23
M  V30 26 1 11 24
M  V30 27 1 13 25
M  V30 28 1 13 26
M  V30 29 1 14 27
M  V30 30 1 15 28
M  V30 31 1 17 29
M  V30 32 1 18 30
M  V30 33 1 20 31
M  V30 END BOND
M  V30 END CTAB
M  END
>  <Column 1>
2860

>  <level_0>
4642

>  <index>
4642

>  <Unnamed: 0>
4642

>  <NO.>
4654

>  <Name>
demoxepam

>  <IUPAC_name>


>  <SMILES>
O=C1C[N+]([O-])=C(c2ccccc2)c2cc(Cl)ccc2N1

>  <CID>
13756

>  <logBB>


>  <BBB+/BBB->
BBB+

>  <Inchi>
InChI=1S/C15H11ClN2O2/c16-11-6-7-13-12(8-11)15(10-4-2-1-3-5-10)18(20)9-14(19)17-13/h1-8H-9H2-(H-17-19)

>  <threshold>
-1

>  <reference>
R19|R27|R27|

>  <group>
B

>  <Class>
-1

>  <ABC>
15.72

>  <ABCGG>
13.02

>  <nAcid>
0

>  <nBase>
0

>  <nAromAtom>
12

>  <nAromBond>
12

>  <nAtom>
31

>  <nHeavyAtom>
20

>  <nSpiro>
0

>  <nBridgehead>
0

>  <nHetero>
5

>  <nN>
2

>  <nO>
2

>  <nF>
0

>  <BalabanJ>
1.81

>  <BertzCT>
711.07

>  <nBonds>
33

>  <nBondsO>
22

>  <nBondsS>
19

>  <nBondsD>
2

>  <nBondsT>
0

>  <nBondsA>
12

>  <nBondsM>
14

>  <nBondsKS>
25

>  <nBondsKD>
8

>  <RNCG>
0.33

>  <RPCG>
0.16

>  <FCSP3>
0.07

>  <SZ>
24.67

>  <Sm>
23.87

>  <Sv>
22.02

>  <Sse>
31.64

>  <Sp>
22.98

>  <Si>
34.44

>  <MZ>
0.8

>  <Mm>
0.77

>  <Mv>
0.71

>  <Mse>
1.02

>  <Mp>
0.74

>  <Mi>
1.11

>  <NsCH3>
0

>  <NdCH2>
0

>  <NssCH2>
1

>  <NtCH>
0

>  <NdsCH>
0

>  <NaaCH>
8

>  <NsssCH>
0

>  <NddC>
0

>  <NtsC>
0

>  <NdssC>
2

>  <NaasC>
4

>  <NaaaC>
0

>  <NssssC>
0

>  <NsNH3>
0

>  <NsNH2>
0

>  <NssNH2>
0

>  <NdNH>
0

>  <NssNH>
1

>  <NaaNH>
0

>  <NtN>
0

>  <NsssNH>
0

>  <NdsN>
0

>  <NaaN>
0

>  <NsssN>
0

>  <NddsN>
0

>  <NaasN>
0

>  <NssssN>
0

>  <NsOH>
0

>  <NdO>
1

>  <NssO>
0

>  <NaaO>
0

>  <NsF>
0

>  <NsSiH3>
0

>  <NssSiH2>
0

>  <NsssSiH>
0

>  <NssssSi>
0

>  <NsPH2>
0

>  <NssPH>
0

>  <NsssP>
0

>  <NdsssP>
0

>  <NsssssP>
0

>  <NsSH>
0

>  <NdS>
0

>  <NssS>
0

>  <NaaS>
0

>  <NdssS>
0

>  <NddssS>
0

>  <NsCl>
1

>  <NsBr>
0

>  <NsI>
0

>  <fragCpx>
104.05

>  <fMF>
0.55

>  <nHBAcc>
2

>  <nHBDon>
1

>  <Kier1>
14.92

>  <Kier2>
6.41

>  <Lipinski>
1

>  <GhoseFilter>
1

>  <FilterItLogS>
-5.17

>  <VMcGowan>
199.17

>  <LabuteASA>
120.45

>  <PEOE_VSA1>
10.52

>  <PEOE_VSA2>
4.79

>  <PEOE_VSA3>
0

>  <PEOE_VSA4>
4.74

>  <PEOE_VSA5>
0

>  <PEOE_VSA6>
29.8

>  <PEOE_VSA7>
30.33

>  <PEOE_VSA8>
10.59

>  <PEOE_VSA9>
11.25

>  <PEOE_VSA10>
0

>  <PEOE_VSA11>
0

>  <PEOE_VSA12>
12.26

>  <PEOE_VSA13>
5.91

>  <SMR_VSA1>
9.53

>  <SMR_VSA2>
0

>  <SMR_VSA3>
0

>  <SMR_VSA4>
0

>  <SMR_VSA5>
0

>  <SMR_VSA6>
11.86

>  <SMR_VSA7>
69.89

>  <SMR_VSA8>
0

>  <SMR_VSA9>
0

>  <SlogP_VSA1>
5.32

>  <SlogP_VSA2>
22.9

>  <SlogP_VSA3>
4.79

>  <SlogP_VSA4>
5.21

>  <SlogP_VSA5>
11.13

>  <SlogP_VSA6>
48.53

>  <SlogP_VSA7>
5.02

>  <SlogP_VSA8>
0

>  <SlogP_VSA9>
0

>  <SlogP_VSA10>
5.69

>  <SlogP_VSA11>
0

>  <EState_VSA1>
0

>  <EState_VSA2>
12.45

>  <EState_VSA3>
26.72

>  <EState_VSA4>
5.56

>  <EState_VSA5>
0

>  <EState_VSA6>
18.2

>  <EState_VSA7>
30.33

>  <EState_VSA8>
5.32

>  <EState_VSA9>
11.6

>  <EState_VSA10>
10

>  <VSA_EState1>
0.7

>  <VSA_EState2>
11.72

>  <VSA_EState3>
15.51

>  <VSA_EState4>
2.42

>  <VSA_EState5>
-0.34

>  <VSA_EState6>
14.32

>  <VSA_EState7>
0

>  <VSA_EState8>
-0.24

>  <VSA_EState9>
0

>  <apol>
38.37

>  <bpol>
14.42

>  <nRing>
3

>  <nHRing>
1

>  <naRing>
2

>  <naHRing>
0

>  <nARing 2>
1

>  <nAHRing 2>
1

>  <nFRing>
1

>  <nFHRing>
1

>  <nFaRing>
0

>  <nFaHRing>
0

>  <nFARing 2>
1

>  <nFAHRing 2>
1

>  <nRot>
1

>  <SLogP>
2.64

>  <SMR>
78.23

>  <TopoPSA(NO)>
55.17

>  <TopoPSA>
55.17

>  <JGI1>
0.18

>  <JGI2>
0.06

>  <JGI3>
0.05

>  <JGI4>
0.04

>  <JGI5>
0.02

>  <Diameter>
8

>  <Radius>
4

>  <TMWC10>
115.83

>  <TSRW10>
61.85

>  <MW>
286.05

>  <AMW>
9.23

>  <WPath>
719

>  <WPol>
35

>  <Zagreb1>
106

>  <Zagreb2>
125

>  <mZagreb2>
4.36

>  <yes>


>  <nAR-cont>
0.816016

>  <nHA-cont>
0.999629945

>  <MWHBN>
0.177378214

>  <MWHBN-cont>
0.984169154

>  <TPSA-cont>
0.614879141

>  <pka_cont>
0.97

>  <yes.1>


>  <BBB_SCORE>
5.006657959

>  <MMFF94 Energy>
34.963

$$$$
Compound 2342
Actelion Java MolfileCreator 2.0

  0  0  0  0  0  0              0 V3000
M  V30 BEGIN CTAB
M  V30 COUNTS 42 45 0 0 0
M  V30 BEGIN ATOM
M  V30 1 Cl 3.5558 2.1808 4.2843 0
M  V30 2 C 2.7449 1.1713 3.1522 0
M  V30 3 C 1.5864 1.6247 2.5257 0
M  V30 4 C 3.2503 -0.0924 2.8689 0
M  V30 5 C 0.9211 0.8031 1.6012 0
M  V30 6 C 2.5866 -0.9104 1.9522 0
M  V30 7 C -0.3117 1.3375 0.9591 0
M  V30 8 C 1.413 -0.486 1.3152 0
M  V30 9 N -1.3708 0.5579 0.8002 0 CHG=1
M  V30 10 C -0.3355 2.746 0.4967 0
M  V30 11 N 0.8533 -1.3787 0.3866 0
M  V30 12 O -2.4436 0.9973 0.2574 0 CHG=-1
M  V30 13 C -1.3948 -0.8486 1.2362 0
M  V30 14 C 0.6732 3.195 -0.3617 0
M  V30 15 C -1.319 3.6293 0.9495 0
M  V30 16 C -0.432 -1.5725 0.3256 0
M  V30 17 C 0.6927 4.5292 -0.7696 0
M  V30 18 C -1.2952 4.9623 0.5373 0
M  V30 19 N -0.971 -2.4465 -0.5883 0
M  V30 20 C -0.2899 5.4116 -0.3195 0
M  V30 21 C -0.1844 -3.1573 -1.5687 0
M  V30 22 C -1.0751 -4.1155 -2.3005 0
M  V30 23 C -2.0245 -3.6238 -3.3652 0
M  V30 24 C -0.8229 -4.4424 -3.7506 0
M  V30 25 H 1.2052 2.6146 2.7646 0
M  V30 26 H 4.1575 -0.4478 3.3503 0
M  V30 27 H 2.9879 -1.8955 1.7232 0
M  V30 28 H -2.4121 -1.2378 1.1282 0
M  V30 29 H -1.1057 -0.9156 2.2884 0
M  V30 30 H 1.4385 2.5141 -0.7248 0
M  V30 31 H -2.1094 3.288 1.6127 0
M  V30 32 H 1.4711 4.8801 -1.442 0
M  V30 33 H -2.065 5.6488 0.8801 0
M  V30 34 H -1.9781 -2.4984 -0.6953 0
M  V30 35 H -0.2766 6.4497 -0.6423 0
M  V30 36 H 0.6163 -3.7227 -1.0793 0
M  V30 37 H 0.2777 -2.4435 -2.2602 0
M  V30 38 H -1.4073 -4.9247 -1.659 0
M  V30 39 H -2.0211 -2.5692 -3.619 0
M  V30 40 H -3.0002 -4.0918 -3.432 0
M  V30 41 H -0.0136 -3.9394 -4.2681 0
M  V30 42 H -0.988 -5.4632 -4.0768 0
M  V30 END ATOM
M  V30 BEGIN BOND
M  V30 1 1 1 2
M  V30 2 2 2 3
M  V30 3 1 2 4
M  V30 4 1 3 5
M  V30 5 2 4 6
M  V30 6 1 5 7
M  V30 7 2 5 8
M  V30 8 2 7 9
M  V30 9 1 7 10
M  V30 10 1 8 11
M  V30 11 1 9 12
M  V30 12 1 9 13
M  V30 13 2 10 14
M  V30 14 1 10 15
M  V30 15 2 11 16
M  V30 16 1 14 17
M  V30 17 2 15 18
M  V30 18 1 16 19
M  V30 19 2 17 20
M  V30 20 1 19 21
M  V30 21 1 21 22
M  V30 22 1 22 23
M  V30 23 1 22 24
M  V30 24 1 6 8
M  V30 25 1 13 16
M  V30 26 1 18 20
M  V30 27 1 23 24
M  V30 28 1 3 25
M  V30 29 1 4 26
M  V30 30 1 6 27
M  V30 31 1 13 28
M  V30 32 1 13 29
M  V30 33 1 14 30
M  V30 34 1 15 31
M  V30 35 1 17 32
M  V30 36 1 18 33
M  V30 37 1 19 34
M  V30 38 1 20 35
M  V30 39 1 21 36
M  V30 40 1 21 37
M  V30 41 1 22 38
M  V30 42 1 23 39
M  V30 43 1 23 40
M  V30 44 1 24 41
M  V30 45 1 24 42
M  V30 END BOND
M  V30 END CTAB
M  END
>  <Column 1>
2861

>  <level_0>
4651

>  <index>
4651

>  <Unnamed: 0>
4651

>  <NO.>
4663

>  <Name>
cyprazepam

>  <IUPAC_name>


>  <SMILES>
[O-][N+]1=C(c2ccccc2)c2cc(Cl)ccc2N=C(NCC2CC2)C1

>  <CID>
27452

>  <logBB>


>  <BBB+/BBB->
BBB+

>  <Inchi>
InChI=1S/C19H18ClN3O/c20-15-8-9-17-16(10-15)19(14-4-2-1-3-5-14)23(24)12-18(22-17)21-11-13-6-7-13/h1-5-8-10-13H-6-7-11-12H2-(H-21-22)

>  <threshold>
-1

>  <reference>
R19|R27|R27|

>  <group>
B

>  <Class>
1

>  <ABC>
19.15

>  <ABCGG>
14.99

>  <nAcid>
0

>  <nBase>
2

>  <nAromAtom>
12

>  <nAromBond>
12

>  <nAtom>
42

>  <nHeavyAtom>
24

>  <nSpiro>
0

>  <nBridgehead>
0

>  <nHetero>
5

>  <nN>
3

>  <nO>
1

>  <nF>
0

>  <BalabanJ>
1.49

>  <BertzCT>
825.76

>  <nBonds>
45

>  <nBondsO>
27

>  <nBondsS>
31

>  <nBondsD>
2

>  <nBondsT>
0

>  <nBondsA>
12

>  <nBondsM>
14

>  <nBondsKS>
37

>  <nBondsKD>
8

>  <RNCG>
0.31

>  <RPCG>
0.11

>  <FCSP3>
0.26

>  <SZ>
29.67

>  <Sm>
28.29

>  <Sv>
27.96

>  <Sse>
42.08

>  <Sp>
29.95

>  <Si>
46.97

>  <MZ>
0.71

>  <Mm>
0.67

>  <Mv>
0.67

>  <Mse>
1

>  <Mp>
0.71

>  <Mi>
1.12

>  <NsCH3>
0

>  <NdCH2>
0

>  <NssCH2>
4

>  <NtCH>
0

>  <NdsCH>
0

>  <NaaCH>
8

>  <NsssCH>
1

>  <NddC>
0

>  <NtsC>
0

>  <NdssC>
2

>  <NaasC>
4

>  <NaaaC>
0

>  <NssssC>
0

>  <NsNH3>
0

>  <NsNH2>
0

>  <NssNH2>
0

>  <NdNH>
0

>  <NssNH>
1

>  <NaaNH>
0

>  <NtN>
0

>  <NsssNH>
0

>  <NdsN>
1

>  <NaaN>
0

>  <NsssN>
0

>  <NddsN>
0

>  <NaasN>
0

>  <NssssN>
0

>  <NsOH>
0

>  <NdO>
0

>  <NssO>
0

>  <NaaO>
0

>  <NsF>
0

>  <NsSiH3>
0

>  <NssSiH2>
0

>  <NsssSiH>
0

>  <NssssSi>
0

>  <NsPH2>
0

>  <NssPH>
0

>  <NsssP>
0

>  <NdsssP>
0

>  <NsssssP>
0

>  <NsSH>
0

>  <NdS>
0

>  <NssS>
0

>  <NaaS>
0

>  <NdssS>
0

>  <NddssS>
0

>  <NsCl>
1

>  <NsBr>
0

>  <NsI>
0

>  <fragCpx>
177.05

>  <fMF>
0.52

>  <nHBAcc>
3

>  <nHBDon>
1

>  <Kier1>
17.42

>  <Kier2>
7.71

>  <Lipinski>
1

>  <GhoseFilter>
1

>  <FilterItLogS>
-6.29

>  <VMcGowan>
248.78

>  <LabuteASA>
145.63

>  <PEOE_VSA1>
10.52

>  <PEOE_VSA2>
0

>  <PEOE_VSA3>
4.99

>  <PEOE_VSA4>
4.74

>  <PEOE_VSA5>
0

>  <PEOE_VSA6>
29.8

>  <PEOE_VSA7>
49.09

>  <PEOE_VSA8>
17.13

>  <PEOE_VSA9>
11.25

>  <PEOE_VSA10>
0

>  <PEOE_VSA11>
5.84

>  <PEOE_VSA12>
12.26

>  <PEOE_VSA13>
0

>  <SMR_VSA1>
4.74

>  <SMR_VSA2>
0

>  <SMR_VSA3>
5.32

>  <SMR_VSA4>
10.91

>  <SMR_VSA5>
12.84

>  <SMR_VSA6>
13.09

>  <SMR_VSA7>
69.89

>  <SMR_VSA8>
0

>  <SMR_VSA9>
0

>  <SlogP_VSA1>
5.32

>  <SlogP_VSA2>
29.38

>  <SlogP_VSA3>
0

>  <SlogP_VSA4>
11.13

>  <SlogP_VSA5>
23.97

>  <SlogP_VSA6>
53.52

>  <SlogP_VSA7>
5.02

>  <SlogP_VSA8>
0

>  <SlogP_VSA9>
0

>  <SlogP_VSA10>
5.69

>  <SlogP_VSA11>
0

>  <EState_VSA1>
0

>  <EState_VSA2>
6.54

>  <EState_VSA3>
16.57

>  <EState_VSA4>
34.02

>  <EState_VSA5>
12.84

>  <EState_VSA6>
0

>  <EState_VSA7>
48.53

>  <EState_VSA8>
5.32

>  <EState_VSA9>
16.59

>  <EState_VSA10>
5.21

>  <VSA_EState1>
1.01

>  <VSA_EState2>
4.69

>  <VSA_EState3>
16.82

>  <VSA_EState4>
3.02

>  <VSA_EState5>
1.43

>  <VSA_EState6>
15.17

>  <VSA_EState7>
2.52

>  <VSA_EState8>
1.1

>  <VSA_EState9>
0

>  <apol>
50.01

>  <bpol>
21.72

>  <nRing>
4

>  <nHRing>
1

>  <naRing>
2

>  <naHRing>
0

>  <nARing 2>
2

>  <nAHRing 2>
1

>  <nFRing>
1

>  <nFHRing>
1

>  <nFaRing>
0

>  <nFaHRing>
0

>  <nFARing 2>
1

>  <nFAHRing 2>
1

>  <nRot>
3

>  <SLogP>
3.73

>  <SMR>
97.42

>  <TopoPSA(NO)>
50.46

>  <TopoPSA>
50.46

>  <JGI1>
0.17

>  <JGI2>
0.07

>  <JGI3>
0.05

>  <JGI4>
0.04

>  <JGI5>
0.02

>  <Diameter>
11

>  <Radius>
6

>  <TMWC10>
126.62

>  <TSRW10>
77.13

>  <MW>
339.11

>  <AMW>
8.07

>  <WPath>
1263

>  <WPol>
40

>  <Zagreb1>
130

>  <Zagreb2>
154

>  <mZagreb2>
5.19

>  <yes>


>  <nAR-cont>
1

>  <nHA-cont>
0.94700071

>  <MWHBN>
0.21721494

>  <MWHBN-cont>
0.996569055

>  <TPSA-cont>
0.647757866

>  <pka_cont>
0.97

>  <yes.1>


>  <BBB_SCORE>
5.222370025

>  <MMFF94 Energy>
46.373

$$$$
Compound 2343
Actelion Java MolfileCreator 2.0

  0  0  0  0  0  0              0 V3000
M  V30 BEGIN CTAB
M  V30 COUNTS 35 35 0 0 0
M  V30 BEGIN ATOM
M  V30 1 I -2.5434 0.4235 -2.1192 0
M  V30 2 C -0.565 0.7528 -1.1519 0
M  V30 3 C -0.6997 0.8888 0.3824 0
M  V30 4 C 0.3975 -0.3885 -1.5706 0
M  V30 5 N -1.5243 2.0538 0.7335 0
M  V30 6 C 0.6924 1.0059 1.0608 0
M  V30 7 N -0.1537 -1.7125 -1.2401 0
M  V30 8 C 1.7936 -0.1981 -0.9246 0
M  V30 9 C -2.7555 1.9258 1.3425 0
M  V30 10 I 0.3541 0.7122 3.3273 0
M  V30 11 C 1.6969 -0.0655 0.605 0
M  V30 12 C 0.3865 -2.8748 -1.7454 0
M  V30 13 I 2.8007 1.5472 -1.8834 0
M  V30 14 O -3.2588 0.8483 1.6386 0
M  V30 15 C -3.4215 3.2412 1.6387 0
M  V30 16 C 3.0682 0.1498 1.2025 0
M  V30 17 O 1.3878 -2.9001 -2.4506 0
M  V30 18 C -0.3809 -4.114 -1.3754 0
M  V30 19 O 3.5222 1.1942 1.6364 0
M  V30 20 O 3.8036 -0.9772 1.2119 0
M  V30 21 H -0.2231 1.7087 -1.5651 0
M  V30 22 H -1.1988 -0.0105 0.7636 0
M  V30 23 H 0.5045 -0.3779 -2.6637 0
M  V30 24 H -1.1817 2.9867 0.5327 0
M  V30 25 H 1.0961 2.0217 0.9702 0
M  V30 26 H -1.0677 -1.775 -0.7995 0
M  V30 27 H 2.4483 -1.0431 -1.167 0
M  V30 28 H 1.3446 -1.0292 1.0009 0
M  V30 29 H -2.9872 3.6697 2.5458 0
M  V30 30 H -4.4931 3.0835 1.7884 0
M  V30 31 H -3.285 3.9374 0.8064 0
M  V30 32 H -0.7947 -4.0277 -0.3666 0
M  V30 33 H 0.2876 -4.9786 -1.4036 0
M  V30 34 H -1.1956 -4.2591 -2.0896 0
M  V30 35 H 4.6597 -0.715 1.6139 0
M  V30 END ATOM
M  V30 BEGIN BOND
M  V30 1 1 1 2
M  V30 2 1 2 3
M  V30 3 1 2 4
M  V30 4 1 3 5
M  V30 5 1 3 6
M  V30 6 1 4 7
M  V30 7 1 4 8
M  V30 8 1 5 9
M  V30 9 1 6 10
M  V30 10 1 6 11
M  V30 11 1 7 12
M  V30 12 1 8 13
M  V30 13 2 9 14
M  V30 14 1 9 15
M  V30 15 1 11 16
M  V30 16 2 12 17
M  V30 17 1 12 18
M  V30 18 2 16 19
M  V30 19 1 16 20
M  V30 20 1 8 11
M  V30 21 1 2 21
M  V30 22 1 3 22
M  V30 23 1 4 23
M  V30 24 1 5 24
M  V30 25 1 6 25
M  V30 26 1 7 26
M  V30 27 1 8 27
M  V30 28 1 11 28
M  V30 29 1 15 29
M  V30 30 1 15 30
M  V30 31 1 15 31
M  V30 32 1 18 32
M  V30 33 1 18 33
M  V30 34 1 18 34
M  V30 35 1 20 35
M  V30 END BOND
M  V30 END CTAB
M  END
>  <Column 1>
2862

>  <level_0>
4653

>  <index>
4653

>  <Unnamed: 0>
4653

>  <NO.>
4665

>  <Name>
sodiumamidotrizoate

>  <IUPAC_name>


>  <SMILES>
CC(=O)NC1C(I)C(NC(C)=O)C(I)C(C(=O)O)C1I

>  <CID>
44228116

>  <logBB>


>  <BBB+/BBB->
BBB-

>  <Inchi>
InChI=1S/C11H15I3N2O4/c1-3(17)15-9-6(12)5(11(19)20)7(13)10(8(9)14)16-4(2)18/h5-10H-1-2H3-(H-15-17)(H-16-18)(H-19-20)

>  <threshold>
-1

>  <reference>
R28|R9|R27|R36|

>  <group>
B

>  <Class>
1

>  <ABC>
14.84

>  <ABCGG>
14.17

>  <nAcid>
1

>  <nBase>
0

>  <nAromAtom>
0

>  <nAromBond>
0

>  <nAtom>
35

>  <nHeavyAtom>
20

>  <nSpiro>
0

>  <nBridgehead>
0

>  <nHetero>
9

>  <nN>
2

>  <nO>
4

>  <nF>
0

>  <BalabanJ>
3.01

>  <BertzCT>
390.47

>  <nBonds>
35

>  <nBondsO>
20

>  <nBondsS>
32

>  <nBondsD>
3

>  <nBondsT>
0

>  <nBondsA>
0

>  <nBondsM>
3

>  <nBondsKS>
32

>  <nBondsKD>
3

>  <RNCG>
0.22

>  <RPCG>
0.14

>  <FCSP3>
0.73

>  <SZ>
47.67

>  <Sm>
51.62

>  <Sv>
24.18

>  <Sse>
35.84

>  <Sp>
29.84

>  <Si>
39.32

>  <MZ>
1.36

>  <Mm>
1.47

>  <Mv>
0.69

>  <Mse>
1.02

>  <Mp>
0.85

>  <Mi>
1.12

>  <NsCH3>
2

>  <NdCH2>
0

>  <NssCH2>
0

>  <NtCH>
0

>  <NdsCH>
0

>  <NaaCH>
0

>  <NsssCH>
6

>  <NddC>
0

>  <NtsC>
0

>  <NdssC>
3

>  <NaasC>
0

>  <NaaaC>
0

>  <NssssC>
0

>  <NsNH3>
0

>  <NsNH2>
0

>  <NssNH2>
0

>  <NdNH>
0

>  <NssNH>
2

>  <NaaNH>
0

>  <NtN>
0

>  <NsssNH>
0

>  <NdsN>
0

>  <NaaN>
0

>  <NsssN>
0

>  <NddsN>
0

>  <NaasN>
0

>  <NssssN>
0

>  <NsOH>
1

>  <NdO>
3

>  <NssO>
0

>  <NaaO>
0

>  <NsF>
0

>  <NsSiH3>
0

>  <NssSiH2>
0

>  <NsssSiH>
0

>  <NssssSi>
0

>  <NsPH2>
0

>  <NssPH>
0

>  <NsssP>
0

>  <NdsssP>
0

>  <NsssssP>
0

>  <NsSH>
0

>  <NdS>
0

>  <NssS>
0

>  <NaaS>
0

>  <NdssS>
0

>  <NddssS>
0

>  <NsCl>
0

>  <NsBr>
0

>  <NsI>
3

>  <fragCpx>
20.09

>  <fMF>
0.17

>  <nHBAcc>
3

>  <nHBDon>
3

>  <Kier1>
18.05

>  <Kier2>
7.32

>  <Lipinski>
0

>  <GhoseFilter>
0

>  <FilterItLogS>
-2.83

>  <VMcGowan>
263.02

>  <LabuteASA>
157.55

>  <PEOE_VSA1>
15.74

>  <PEOE_VSA2>
14.38

>  <PEOE_VSA3>
0

>  <PEOE_VSA4>
0

>  <PEOE_VSA5>
0

>  <PEOE_VSA6>
67.77

>  <PEOE_VSA7>
0

>  <PEOE_VSA8>
21.7

>  <PEOE_VSA9>
21.93

>  <PEOE_VSA10>
0

>  <PEOE_VSA11>
0

>  <PEOE_VSA12>
11.81

>  <PEOE_VSA13>
0

>  <SMR_VSA1>
19.49

>  <SMR_VSA2>
0

>  <SMR_VSA3>
10.63

>  <SMR_VSA4>
5.92

>  <SMR_VSA5>
37.71

>  <SMR_VSA6>
0

>  <SMR_VSA7>
0

>  <SMR_VSA8>
0

>  <SMR_VSA9>
0

>  <SlogP_VSA1>
10.63

>  <SlogP_VSA2>
46.75

>  <SlogP_VSA3>
14.38

>  <SlogP_VSA4>
5.92

>  <SlogP_VSA5>
13.85

>  <SlogP_VSA6>
0

>  <SlogP_VSA7>
0

>  <SlogP_VSA8>
0

>  <SlogP_VSA9>
0

>  <SlogP_VSA10>
0

>  <SlogP_VSA11>
0

>  <EState_VSA1>
11.89

>  <EState_VSA2>
35.67

>  <EState_VSA3>
0

>  <EState_VSA4>
0

>  <EState_VSA5>
13.85

>  <EState_VSA6>
0

>  <EState_VSA7>
0

>  <EState_VSA8>
78.41

>  <EState_VSA9>
0

>  <EState_VSA10>
19.49

>  <VSA_EState1>
-0.54

>  <VSA_EState2>
34.18

>  <VSA_EState3>
15.07

>  <VSA_EState4>
0

>  <VSA_EState5>
-1.93

>  <VSA_EState6>
-0.59

>  <VSA_EState7>
0

>  <VSA_EState8>
2.82

>  <VSA_EState9>
0

>  <apol>
49.83

>  <bpol>
29.83

>  <nRing>
1

>  <nHRing>
0

>  <naRing>
0

>  <naHRing>
0

>  <nARing 2>
1

>  <nAHRing 2>
0

>  <nFRing>
0

>  <nFHRing>
0

>  <nFaRing>
0

>  <nFaHRing>
0

>  <nFARing 2>
0

>  <nFAHRing 2>
0

>  <nRot>
3

>  <SLogP>
1.12

>  <SMR>
99.76

>  <TopoPSA(NO)>
95.5

>  <TopoPSA>
95.5

>  <JGI1>
0.28

>  <JGI2>
0.09

>  <JGI3>
0.08

>  <JGI4>
0.06

>  <JGI5>
0.03

>  <Diameter>
8

>  <Radius>
5

>  <TMWC10>
113.23

>  <TSRW10>
53.52

>  <MW>
619.82

>  <AMW>
17.71

>  <WPath>
746

>  <WPol>
33

>  <Zagreb1>
98

>  <Zagreb2>
114

>  <mZagreb2>
4.44

>  <yes>


>  <nAR-cont>
0.816016

>  <nHA-cont>
0.999629945

>  <MWHBN>
0.241000785

>  <MWHBN-cont>
0.973597452

>  <TPSA-cont>
0.333350698

>  <pka_cont>
0.97

>  <yes.1>


>  <BBB_SCORE>
4.427743519

>  <MMFF94 Energy>
-37.704

$$$$
Compound 2344
Actelion Java MolfileCreator 2.0

  0  0  0  0  0  0              0 V3000
M  V30 BEGIN CTAB
M  V30 COUNTS 21 21 0 0 0
M  V30 BEGIN ATOM
M  V30 1 Cl -0.3972 4.3761 -1.5101 0
M  V30 2 C -0.4653 2.7074 -1.0951 0
M  V30 3 C -1.0971 2.312 0.0816 0
M  V30 4 C 0.1118 1.7606 -1.9379 0
M  V30 5 C -1.1521 0.9576 0.4187 0
M  V30 6 C 0.0569 0.4065 -1.6006 0
M  V30 7 C -0.5755 -0.0072 -0.4191 0
M  V30 8 C -0.6283 -1.4708 -0.0524 0
M  V30 9 C 0.7141 -2.0373 0.4193 0
M  V30 10 C 1.1706 -1.4644 1.754 0
M  V30 11 H -1.547 3.0501 0.74 0
M  V30 12 H 0.6047 2.0681 -2.8561 0
M  V30 13 H -1.6455 0.6609 1.342 0
M  V30 14 H 0.5102 -0.3254 -2.2656 0
M  V30 15 H -0.9649 -2.032 -0.9338 0
M  V30 16 H -1.393 -1.64 0.7162 0
M  V30 17 H 0.6123 -3.1239 0.5271 0
M  V30 18 H 1.4924 -1.8654 -0.3332 0
M  V30 19 H 2.0899 -1.961 2.0809 0
M  V30 20 H 1.3799 -0.3929 1.6801 0
M  V30 21 H 0.4108 -1.6163 2.5274 0
M  V30 END ATOM
M  V30 BEGIN BOND
M  V30 1 1 1 2
M  V30 2 2 2 3
M  V30 3 1 2 4
M  V30 4 1 3 5
M  V30 5 2 4 6
M  V30 6 2 5 7
M  V30 7 1 7 8
M  V30 8 1 8 9
M  V30 9 1 9 10
M  V30 10 1 6 7
M  V30 11 1 3 11
M  V30 12 1 4 12
M  V30 13 1 5 13
M  V30 14 1 6 14
M  V30 15 1 8 15
M  V30 16 1 8 16
M  V30 17 1 9 17
M  V30 18 1 9 18
M  V30 19 1 10 19
M  V30 20 1 10 20
M  V30 21 1 10 21
M  V30 END BOND
M  V30 END CTAB
M  END
>  <Column 1>
2864

>  <level_0>
4657

>  <index>
4657

>  <Unnamed: 0>
4657

>  <NO.>
4669

>  <Name>
1-chloro-4-propylbenzene

>  <IUPAC_name>
1-chloro-4-propylbenzene

>  <SMILES>
CCCc1ccc(Cl)cc1

>  <CID>
521435

>  <logBB>


>  <BBB+/BBB->
BBB-

>  <Inchi>
InChI=1S/C9H11Cl/c1-2-3-8-4-6-9(10)7-5-8/h4-7H-2-3H2-1H3

>  <threshold>
-1

>  <reference>
R28|

>  <group>
B

>  <Class>
1

>  <ABC>
7.18

>  <ABCGG>
6.67

>  <nAcid>
0

>  <nBase>
0

>  <nAromAtom>
6

>  <nAromBond>
6

>  <nAtom>
21

>  <nHeavyAtom>
10

>  <nSpiro>
0

>  <nBridgehead>
0

>  <nHetero>
1

>  <nN>
0

>  <nO>
0

>  <nF>
0

>  <BalabanJ>
2.13

>  <BertzCT>
188.39

>  <nBonds>
21

>  <nBondsO>
10

>  <nBondsS>
15

>  <nBondsD>
0

>  <nBondsT>
0

>  <nBondsA>
6

>  <nBondsM>
6

>  <nBondsKS>
18

>  <nBondsKD>
3

>  <RNCG>
0.18

>  <RPCG>
0.13

>  <FCSP3>
0.33

>  <SZ>
13.67

>  <Sm>
12.87

>  <Sv>
13.07

>  <Sse>
20.65

>  <Sp>
14.7

>  <Si>
23.44

>  <MZ>
0.65

>  <Mm>
0.61

>  <Mv>
0.62

>  <Mse>
0.98

>  <Mp>
0.7

>  <Mi>
1.12

>  <NsCH3>
1

>  <NdCH2>
0

>  <NssCH2>
2

>  <NtCH>
0

>  <NdsCH>
0

>  <NaaCH>
4

>  <NsssCH>
0

>  <NddC>
0

>  <NtsC>
0

>  <NdssC>
0

>  <NaasC>
2

>  <NaaaC>
0

>  <NssssC>
0

>  <NsNH3>
0

>  <NsNH2>
0

>  <NssNH2>
0

>  <NdNH>
0

>  <NssNH>
0

>  <NaaNH>
0

>  <NtN>
0

>  <NsssNH>
0

>  <NdsN>
0

>  <NaaN>
0

>  <NsssN>
0

>  <NddsN>
0

>  <NaasN>
0

>  <NssssN>
0

>  <NsOH>
0

>  <NdO>
0

>  <NssO>
0

>  <NaaO>
0

>  <NsF>
0

>  <NsSiH3>
0

>  <NssSiH2>
0

>  <NsssSiH>
0

>  <NssssSi>
0

>  <NsPH2>
0

>  <NssPH>
0

>  <NsssP>
0

>  <NdsssP>
0

>  <NsssssP>
0

>  <NsSH>
0

>  <NdS>
0

>  <NssS>
0

>  <NaaS>
0

>  <NdssS>
0

>  <NddssS>
0

>  <NsCl>
1

>  <NsBr>
0

>  <NsI>
0

>  <fragCpx>
10.01

>  <fMF>
0.29

>  <nHBAcc>
0

>  <nHBDon>
0

>  <Kier1>
8.1

>  <Kier2>
4

>  <Lipinski>
1

>  <GhoseFilter>
0

>  <FilterItLogS>
-3.59

>  <VMcGowan>
126.15

>  <LabuteASA>
66.83

>  <PEOE_VSA1>
0

>  <PEOE_VSA2>
0

>  <PEOE_VSA3>
0

>  <PEOE_VSA4>
0

>  <PEOE_VSA5>
0

>  <PEOE_VSA6>
37.08

>  <PEOE_VSA7>
24.12

>  <PEOE_VSA8>
5.02

>  <PEOE_VSA9>
0

>  <PEOE_VSA10>
0

>  <PEOE_VSA11>
0

>  <PEOE_VSA12>
0

>  <PEOE_VSA13>
0

>  <SMR_VSA1>
0

>  <SMR_VSA2>
0

>  <SMR_VSA3>
0

>  <SMR_VSA4>
0

>  <SMR_VSA5>
19.77

>  <SMR_VSA6>
0

>  <SMR_VSA7>
34.85

>  <SMR_VSA8>
0

>  <SMR_VSA9>
0

>  <SlogP_VSA1>
0

>  <SlogP_VSA2>
0

>  <SlogP_VSA3>
6.42

>  <SlogP_VSA4>
0

>  <SlogP_VSA5>
18.91

>  <SlogP_VSA6>
24.27

>  <SlogP_VSA7>
5.02

>  <SlogP_VSA8>
0

>  <SlogP_VSA9>
0

>  <SlogP_VSA10>
0

>  <SlogP_VSA11>
0

>  <EState_VSA1>
0

>  <EState_VSA2>
0

>  <EState_VSA3>
0

>  <EState_VSA4>
11.44

>  <EState_VSA5>
11.98

>  <EState_VSA6>
0

>  <EState_VSA7>
12.13

>  <EState_VSA8>
19.06

>  <EState_VSA9>
11.6

>  <EState_VSA10>
0

>  <VSA_EState1>
0

>  <VSA_EState2>
0

>  <VSA_EState3>
0.82

>  <VSA_EState4>
1.37

>  <VSA_EState5>
0

>  <VSA_EState6>
8.02

>  <VSA_EState7>
2.35

>  <VSA_EState8>
2.18

>  <VSA_EState9>
0

>  <apol>
24.54

>  <bpol>
11.55

>  <nRing>
1

>  <nHRing>
0

>  <naRing>
1

>  <naHRing>
0

>  <nARing 2>
0

>  <nAHRing 2>
0

>  <nFRing>
0

>  <nFHRing>
0

>  <nFaRing>
0

>  <nFaHRing>
0

>  <nFARing 2>
0

>  <nFAHRing 2>
0

>  <nRot>
2

>  <SLogP>
3.29

>  <SMR>
45.45

>  <TopoPSA(NO)>
0

>  <TopoPSA>
0

>  <JGI1>
0.2

>  <JGI2>
0.07

>  <JGI3>
0.03

>  <JGI4>
0.06

>  <JGI5>
0.04

>  <Diameter>
7

>  <Radius>
4

>  <TMWC10>
82.23

>  <TSRW10>
38.68

>  <MW>
154.05

>  <AMW>
7.34

>  <WPath>
127

>  <WPol>
10

>  <Zagreb1>
44

>  <Zagreb2>
47

>  <mZagreb2>
2.42

>  <yes>


>  <nAR-cont>
0.336376

>  <nHA-cont>
0.645914733

>  <MWHBN>
0

>  <MWHBN-cont>
0

>  <TPSA-cont>
0

>  <pka_cont>
0.97

>  <yes.1>


>  <BBB_SCORE>
1.467290733

>  <MMFF94 Energy>
16.646

$$$$
Compound 2345
Actelion Java MolfileCreator 2.0

  0  0  0  0  0  0              0 V3000
M  V30 BEGIN CTAB
M  V30 COUNTS 46 49 0 0 0
M  V30 BEGIN ATOM
M  V30 1 O -1.9271 -3.7766 3.133 0
M  V30 2 C -0.9542 -3.2035 2.645 0
M  V30 3 N -0.879 -2.8666 1.2989 0
M  V30 4 C 0.1865 -2.8799 3.5561 0
M  V30 5 C 0.3114 -2.3185 0.6796 0
M  V30 6 C -2.0284 -3.0881 0.4369 0
M  V30 7 C 0.9548 -1.7021 3.5122 0
M  V30 8 C 0.4415 -3.8118 4.5773 0
M  V30 9 C 0.4647 -0.9471 1.1934 0
M  V30 10 N 0.7413 -0.7175 2.5229 0
M  V30 11 C 1.9733 -1.4852 4.457 0
M  V30 12 C 1.4526 -3.5921 5.5148 0
M  V30 13 C 0.3799 0.3052 0.6123 0
M  V30 14 C 0.8129 0.6442 2.6825 0
M  V30 15 C 2.2187 -2.4319 5.4521 0
M  V30 16 N 0.6143 1.2852 1.5536 0
M  V30 17 C 0.0859 0.6685 -0.7816 0
M  V30 18 N -0.1953 -0.2115 -1.754 0
M  V30 19 N 0.0806 1.9813 -1.1862 0
M  V30 20 O -0.4046 0.5952 -2.8706 0
M  V30 21 C -0.2218 1.8876 -2.4604 0
M  V30 22 C -0.4025 2.9629 -3.4974 0
M  V30 23 C 0.5466 2.6556 -4.6838 0
M  V30 24 C -1.8885 2.9513 -3.9358 0
M  V30 25 C -0.0518 4.3374 -2.8925 0
M  V30 26 O 0.6536 3.7262 -5.6134 0
M  V30 27 O -2.225 4.0205 -4.8099 0
M  V30 28 H 0.2204 -2.3657 -0.408 0
M  V30 29 H 1.1739 -2.9378 0.9535 0
M  V30 30 H -2.8952 -3.4554 0.9922 0
M  V30 31 H -2.2955 -2.1434 -0.046 0
M  V30 32 H -1.758 -3.8249 -0.3251 0
M  V30 33 H -0.159 -4.7182 4.6491 0
M  V30 34 H 2.598 -0.5944 4.4277 0
M  V30 35 H 1.6354 -4.3261 6.2964 0
M  V30 36 H 1.0012 1.1138 3.6393 0
M  V30 37 H 3.0076 -2.2632 6.182 0
M  V30 38 H 1.5592 2.4487 -4.3155 0
M  V30 39 H 0.2104 1.7662 -5.2301 0
M  V30 40 H -2.1366 2.0121 -4.4447 0
M  V30 41 H -2.5434 3.029 -3.0587 0
M  V30 42 H 0.9885 4.3632 -2.5467 0
M  V30 43 H -0.6883 4.5649 -2.0288 0
M  V30 44 H -0.1795 5.1502 -3.6155 0
M  V30 45 H 1.2286 3.4316 -6.3395 0
M  V30 46 H -3.1735 3.9504 -5.0116 0
M  V30 END ATOM
M  V30 BEGIN BOND
M  V30 1 2 1 2
M  V30 2 1 2 3
M  V30 3 1 2 4
M  V30 4 1 3 5
M  V30 5 1 3 6
M  V30 6 2 4 7
M  V30 7 1 4 8
M  V30 8 1 5 9
M  V30 9 1 7 10
M  V30 10 1 7 11
M  V30 11 2 8 12
M  V30 12 2 9 13
M  V30 13 1 10 14
M  V30 14 2 11 15
M  V30 15 1 13 16
M  V30 16 1 13 17
M  V30 17 2 17 18
M  V30 18 1 17 19
M  V30 19 1 18 20
M  V30 20 2 19 21
M  V30 21 1 21 22
M  V30 22 1 22 23
M  V30 23 1 22 24
M  V30 24 1 22 25
M  V30 25 1 23 26
M  V30 26 1 24 27
M  V30 27 1 9 10
M  V30 28 1 12 15
M  V30 29 2 14 16
M  V30 30 1 20 21
M  V30 31 1 5 28
M  V30 32 1 5 29
M  V30 33 1 6 30
M  V30 34 1 6 31
M  V30 35 1 6 32
M  V30 36 1 8 33
M  V30 37 1 11 34
M  V30 38 1 12 35
M  V30 39 1 14 36
M  V30 40 1 15 37
M  V30 41 1 23 38
M  V30 42 1 23 39
M  V30 43 1 24 40
M  V30 44 1 24 41
M  V30 45 1 25 42
M  V30 46 1 25 43
M  V30 47 1 25 44
M  V30 48 1 26 45
M  V30 49 1 27 46
M  V30 END BOND
M  V30 END CTAB
M  END
>  <Column 1>
2866

>  <level_0>
4660

>  <index>
4660

>  <Unnamed: 0>
4660

>  <NO.>
4672

>  <Name>
bis-hydroxylated-l-663581

>  <IUPAC_name>


>  <SMILES>
CN1Cc2c(-c3noc(C(C)(CO)CO)n3)ncn2-c2ccccc2C1=O

>  <CID>


>  <logBB>


>  <BBB+/BBB->
BBB-

>  <Inchi>
InChI=1S/C18H19N5O4/c1-18(8-24-9-25)17-20-15(21-27-17)14-13-7-22(2)16(26)11-5-3-4-6-12(11)23(13)10-19-14/h3-6-10-24-25H-7-9H2-1-2H3

>  <threshold>
-1

>  <reference>
R28|

>  <group>
B

>  <Class>
1

>  <ABC>
21.25

>  <ABCGG>
17.84

>  <nAcid>
0

>  <nBase>
0

>  <nAromAtom>
16

>  <nAromBond>
16

>  <nAtom>
46

>  <nHeavyAtom>
27

>  <nSpiro>
0

>  <nBridgehead>
0

>  <nHetero>
9

>  <nN>
5

>  <nO>
4

>  <nF>
0

>  <BalabanJ>
1.5

>  <BertzCT>
1004.86

>  <nBonds>
49

>  <nBondsO>
30

>  <nBondsS>
32

>  <nBondsD>
1

>  <nBondsT>
0

>  <nBondsA>
16

>  <nBondsM>
17

>  <nBondsKS>
41

>  <nBondsKD>
8

>  <RNCG>
0.14

>  <RPCG>
0.09

>  <FCSP3>
0.33

>  <SZ>
32.33

>  <Sm>
30.75

>  <Sv>
29.8

>  <Sse>
47.07

>  <Sp>
30.8

>  <Si>
52.24

>  <MZ>
0.7

>  <Mm>
0.67

>  <Mv>
0.65

>  <Mse>
1.02

>  <Mp>
0.67

>  <Mi>
1.14

>  <NsCH3>
2

>  <NdCH2>
0

>  <NssCH2>
3

>  <NtCH>
0

>  <NdsCH>
0

>  <NaaCH>
5

>  <NsssCH>
0

>  <NddC>
0

>  <NtsC>
0

>  <NdssC>
1

>  <NaasC>
6

>  <NaaaC>
0

>  <NssssC>
1

>  <NsNH3>
0

>  <NsNH2>
0

>  <NssNH2>
0

>  <NdNH>
0

>  <NssNH>
0

>  <NaaNH>
0

>  <NtN>
0

>  <NsssNH>
0

>  <NdsN>
0

>  <NaaN>
3

>  <NsssN>
1

>  <NddsN>
0

>  <NaasN>
1

>  <NssssN>
0

>  <NsOH>
2

>  <NdO>
1

>  <NssO>
0

>  <NaaO>
1

>  <NsF>
0

>  <NsSiH3>
0

>  <NssSiH2>
0

>  <NsssSiH>
0

>  <NssssSi>
0

>  <NsPH2>
0

>  <NssPH>
0

>  <NsssP>
0

>  <NdsssP>
0

>  <NsssssP>
0

>  <NsSH>
0

>  <NdS>
0

>  <NssS>
0

>  <NaaS>
0

>  <NdssS>
0

>  <NddssS>
0

>  <NsCl>
0

>  <NsBr>
0

>  <NsI>
0

>  <fragCpx>
198.09

>  <fMF>
0.41

>  <nHBAcc>
8

>  <nHBDon>
2

>  <Kier1>
20.28

>  <Kier2>
8.02

>  <Lipinski>
1

>  <GhoseFilter>
1

>  <FilterItLogS>
-3.36

>  <VMcGowan>
260.02

>  <LabuteASA>
154.43

>  <PEOE_VSA1>
19.64

>  <PEOE_VSA2>
9.36

>  <PEOE_VSA3>
4.98

>  <PEOE_VSA4>
4.98

>  <PEOE_VSA5>
0

>  <PEOE_VSA6>
17.29

>  <PEOE_VSA7>
19.06

>  <PEOE_VSA8>
7.05

>  <PEOE_VSA9>
42.12

>  <PEOE_VSA10>
12.02

>  <PEOE_VSA11>
0

>  <PEOE_VSA12>
11.72

>  <PEOE_VSA13>
5.91

>  <SMR_VSA1>
19.53

>  <SMR_VSA2>
0

>  <SMR_VSA3>
24.59

>  <SMR_VSA4>
0

>  <SMR_VSA5>
18.88

>  <SMR_VSA6>
20.26

>  <SMR_VSA7>
47.74

>  <SMR_VSA8>
0

>  <SMR_VSA9>
17.21

>  <SlogP_VSA1>
0

>  <SlogP_VSA2>
60.97

>  <SlogP_VSA3>
11.96

>  <SlogP_VSA4>
0

>  <SlogP_VSA5>
28.87

>  <SlogP_VSA6>
35.12

>  <SlogP_VSA7>
0

>  <SlogP_VSA8>
17.21

>  <SlogP_VSA9>
0

>  <SlogP_VSA10>
0

>  <SlogP_VSA11>
0

>  <EState_VSA1>
5.41

>  <EState_VSA2>
30.84

>  <EState_VSA3>
17.8

>  <EState_VSA4>
11.38

>  <EState_VSA5>
0

>  <EState_VSA6>
31.27

>  <EState_VSA7>
22.77

>  <EState_VSA8>
15.12

>  <EState_VSA9>
4.52

>  <EState_VSA10>
15.01

>  <VSA_EState1>
7.11

>  <VSA_EState2>
23.02

>  <VSA_EState3>
23.03

>  <VSA_EState4>
1.52

>  <VSA_EState5>
0.29

>  <VSA_EState6>
7.33

>  <VSA_EState7>
1.63

>  <VSA_EState8>
1.28

>  <VSA_EState9>
1.72

>  <apol>
51.44

>  <bpol>
27.36

>  <nRing>
4

>  <nHRing>
3

>  <naRing>
3

>  <naHRing>
2

>  <nARing 2>
1

>  <nAHRing 2>
1

>  <nFRing>
1

>  <nFHRing>
1

>  <nFaRing>
0

>  <nFaHRing>
0

>  <nFARing 2>
1

>  <nFAHRing 2>
1

>  <nRot>
4

>  <SLogP>
0.75

>  <SMR>
94.18

>  <TopoPSA(NO)>
117.51

>  <TopoPSA>
117.51

>  <JGI1>
0.2

>  <JGI2>
0.1

>  <JGI3>
0.04

>  <JGI4>
0.04

>  <JGI5>
0.03

>  <Diameter>
12

>  <Radius>
6

>  <TMWC10>
135.11

>  <TSRW10>
78.78

>  <MW>
369.14

>  <AMW>
8.02

>  <WPath>
1750

>  <WPol>
52

>  <Zagreb1>
150

>  <Zagreb2>
185

>  <mZagreb2>
5.94

>  <yes>


>  <nAR-cont>
0.816016

>  <nHA-cont>
0.860070871

>  <MWHBN>
0.52048048

>  <MWHBN-cont>
0

>  <TPSA-cont>
0.179707231

>  <pka_cont>
0.97

>  <yes.1>


>  <BBB_SCORE>
2.520501333

>  <MMFF94 Energy>
73.209

$$$$
Compound 2346
Actelion Java MolfileCreator 2.0

  0  0  0  0  0  0              0 V3000
M  V30 BEGIN CTAB
M  V30 COUNTS 40 42 0 0 0
M  V30 BEGIN ATOM
M  V30 1 N 1.3534 7.8213 -0.0795 0
M  V30 2 C 1.1891 6.6723 -0.0934 0
M  V30 3 C 0.9842 5.2541 -0.1095 0
M  V30 4 C 0.2121 4.6426 0.8779 0
M  V30 5 C 1.5575 4.4708 -1.1099 0
M  V30 6 C 0.0153 3.2552 0.8597 0
M  V30 7 C 1.352 3.0856 -1.1188 0
M  V30 8 C 0.573 2.4452 -0.141 0
M  V30 9 N 0.3939 1.0642 -0.1755 0
M  V30 10 C 0.094 0.3415 1.0614 0
M  V30 11 C -0.1277 0.484 -1.4184 0
M  V30 12 C 0.5057 -1.1277 0.9406 0
M  V30 13 C 0.2986 -0.9784 -1.5431 0
M  V30 14 C -0.0784 -1.8325 -0.3091 0
M  V30 15 C 0.5483 -3.2403 -0.4696 0
M  V30 16 C -1.6157 -2.0069 -0.2168 0
M  V30 17 C 0.0548 -4.2376 0.579 0
M  V30 18 C -2.0382 -3.0504 0.8198 0
M  V30 19 N -1.4023 -4.3404 0.5691 0
M  V30 20 H -0.2454 5.2341 1.6685 0
M  V30 21 H 2.1737 4.9223 -1.8846 0
M  V30 22 H -0.606 2.8215 1.6386 0
M  V30 23 H 1.841 2.4972 -1.8919 0
M  V30 24 H -0.9723 0.4252 1.301 0
M  V30 25 H 0.6543 0.7673 1.9037 0
M  V30 26 H -1.2209 0.5709 -1.4303 0
M  V30 27 H 0.2338 1.0101 -2.3089 0
M  V30 28 H 1.6028 -1.1697 0.8905 0
M  V30 29 H 0.225 -1.6473 1.8628 0
M  V30 30 H -0.1434 -1.4045 -2.4523 0
M  V30 31 H 1.3878 -1.0105 -1.684 0
M  V30 32 H 0.3061 -3.635 -1.4663 0
M  V30 33 H 1.6428 -3.1796 -0.4224 0
M  V30 34 H -2.1147 -1.0598 0.014 0
M  V30 35 H -2.0016 -2.3195 -1.1972 0
M  V30 36 H 0.4767 -5.2238 0.3555 0
M  V30 37 H 0.4114 -3.9633 1.5785 0
M  V30 38 H -3.1249 -3.1806 0.7664 0
M  V30 39 H -1.8147 -2.705 1.8356 0
M  V30 40 H -1.6995 -5.0099 1.2786 0
M  V30 END ATOM
M  V30 BEGIN BOND
M  V30 1 3 1 2
M  V30 2 1 2 3
M  V30 3 2 3 4
M  V30 4 1 3 5
M  V30 5 1 4 6
M  V30 6 2 5 7
M  V30 7 2 6 8
M  V30 8 1 8 9
M  V30 9 1 9 10
M  V30 10 1 9 11
M  V30 11 1 10 12
M  V30 12 1 11 13
M  V30 13 1 12 14
M  V30 14 1 14 15
M  V30 15 1 14 16
M  V30 16 1 15 17
M  V30 17 1 16 18
M  V30 18 1 17 19
M  V30 19 1 7 8
M  V30 20 1 13 14
M  V30 21 1 18 19
M  V30 22 1 4 20
M  V30 23 1 5 21
M  V30 24 1 6 22
M  V30 25 1 7 23
M  V30 26 1 10 24
M  V30 27 1 10 25
M  V30 28 1 11 26
M  V30 29 1 11 27
M  V30 30 1 12 28
M  V30 31 1 12 29
M  V30 32 1 13 30
M  V30 33 1 13 31
M  V30 34 1 15 32
M  V30 35 1 15 33
M  V30 36 1 16 34
M  V30 37 1 16 35
M  V30 38 1 17 36
M  V30 39 1 17 37
M  V30 40 1 18 38
M  V30 41 1 18 39
M  V30 42 1 19 40
M  V30 END BOND
M  V30 END CTAB
M  END
>  <Column 1>
2867

>  <level_0>
4662

>  <index>
4662

>  <Unnamed: 0>
4662

>  <NO.>
4674

>  <Name>
4-(3-9-diazaspiro[5.5]undecan-3-yl)benzonitrile

>  <IUPAC_name>
4-(3-9-diazaspiro[5.5]undecan-3-yl)benzonitrile

>  <SMILES>
N#Cc1ccc(N2CCC3(CCNCC3)CC2)cc1

>  <CID>
15940810

>  <logBB>


>  <BBB+/BBB->
BBB-

>  <Inchi>
InChI=1S/C16H21N3/c17-13-14-1-3-15(4-2-14)19-11-7-16(8-12-19)5-9-18-10-6-16/h1-4-18H-5-12H2

>  <threshold>
-1

>  <reference>
R28|

>  <group>
B

>  <Class>
1

>  <ABC>
14.81

>  <ABCGG>
11.28

>  <nAcid>
0

>  <nBase>
1

>  <nAromAtom>
6

>  <nAromBond>
6

>  <nAtom>
40

>  <nHeavyAtom>
19

>  <nSpiro>
1

>  <nBridgehead>
0

>  <nHetero>
3

>  <nN>
3

>  <nO>
0

>  <nF>
0

>  <BalabanJ>
1.47

>  <BertzCT>
455.76

>  <nBonds>
42

>  <nBondsO>
21

>  <nBondsS>
35

>  <nBondsD>
0

>  <nBondsT>
1

>  <nBondsA>
6

>  <nBondsM>
7

>  <nBondsKS>
38

>  <nBondsKD>
3

>  <RNCG>
0.31

>  <RPCG>
0.1

>  <FCSP3>
0.56

>  <SZ>
23

>  <Sm>
21.26

>  <Sv>
23.96

>  <Sse>
39.31

>  <Sp>
26.36

>  <Si>
45.23

>  <MZ>
0.58

>  <Mm>
0.53

>  <Mv>
0.6

>  <Mse>
0.98

>  <Mp>
0.66

>  <Mi>
1.13

>  <NsCH3>
0

>  <NdCH2>
0

>  <NssCH2>
8

>  <NtCH>
0

>  <NdsCH>
0

>  <NaaCH>
4

>  <NsssCH>
0

>  <NddC>
0

>  <NtsC>
1

>  <NdssC>
0

>  <NaasC>
2

>  <NaaaC>
0

>  <NssssC>
1

>  <NsNH3>
0

>  <NsNH2>
0

>  <NssNH2>
0

>  <NdNH>
0

>  <NssNH>
1

>  <NaaNH>
0

>  <NtN>
1

>  <NsssNH>
0

>  <NdsN>
0

>  <NaaN>
0

>  <NsssN>
1

>  <NddsN>
0

>  <NaasN>
0

>  <NssssN>
0

>  <NsOH>
0

>  <NdO>
0

>  <NssO>
0

>  <NaaO>
0

>  <NsF>
0

>  <NsSiH3>
0

>  <NssSiH2>
0

>  <NsssSiH>
0

>  <NssssSi>
0

>  <NsPH2>
0

>  <NssPH>
0

>  <NsssP>
0

>  <NdsssP>
0

>  <NsssssP>
0

>  <NsSH>
0

>  <NdS>
0

>  <NssS>
0

>  <NaaS>
0

>  <NdssS>
0

>  <NddssS>
0

>  <NsCl>
0

>  <NsBr>
0

>  <NsI>
0

>  <fragCpx>
99.03

>  <fMF>
0.43

>  <nHBAcc>
3

>  <nHBDon>
1

>  <Kier1>
13.96

>  <Kier2>
6.19

>  <Lipinski>
1

>  <GhoseFilter>
1

>  <FilterItLogS>
-3.76

>  <VMcGowan>
212.16

>  <LabuteASA>
114.77

>  <PEOE_VSA1>
10.22

>  <PEOE_VSA2>
0

>  <PEOE_VSA3>
0

>  <PEOE_VSA4>
5.26

>  <PEOE_VSA5>
0

>  <PEOE_VSA6>
0

>  <PEOE_VSA7>
68.45

>  <PEOE_VSA8>
18.78

>  <PEOE_VSA9>
11.63

>  <PEOE_VSA10>
0

>  <PEOE_VSA11>
0

>  <PEOE_VSA12>
0

>  <PEOE_VSA13>
0

>  <SMR_VSA1>
0

>  <SMR_VSA2>
5.26

>  <SMR_VSA3>
5.32

>  <SMR_VSA4>
5.41

>  <SMR_VSA5>
25.68

>  <SMR_VSA6>
31.08

>  <SMR_VSA7>
29.83

>  <SMR_VSA8>
0

>  <SMR_VSA9>
6.07

>  <SlogP_VSA1>
10.22

>  <SlogP_VSA2>
26.18

>  <SlogP_VSA3>
0

>  <SlogP_VSA4>
16.75

>  <SlogP_VSA5>
31.25

>  <SlogP_VSA6>
24.27

>  <SlogP_VSA7>
0

>  <SlogP_VSA8>
0

>  <SlogP_VSA9>
0

>  <SlogP_VSA10>
5.69

>  <SlogP_VSA11>
0

>  <EState_VSA1>
0

>  <EState_VSA2>
0

>  <EState_VSA3>
5.41

>  <EState_VSA4>
18.65

>  <EState_VSA5>
44.46

>  <EState_VSA6>
0

>  <EState_VSA7>
12.13

>  <EState_VSA8>
28.42

>  <EState_VSA9>
5.26

>  <EState_VSA10>
0

>  <VSA_EState1>
0

>  <VSA_EState2>
2.47

>  <VSA_EState3>
12.3

>  <VSA_EState4>
2.62

>  <VSA_EState5>
0

>  <VSA_EState6>
10.18

>  <VSA_EState7>
5.31

>  <VSA_EState8>
4.7

>  <VSA_EState9>
0

>  <apol>
44.02

>  <bpol>
23.92

>  <nRing>
3

>  <nHRing>
2

>  <naRing>
1

>  <naHRing>
0

>  <nARing 2>
2

>  <nAHRing 2>
2

>  <nFRing>
0

>  <nFHRing>
0

>  <nFaRing>
0

>  <nFaHRing>
0

>  <nFARing 2>
0

>  <nFAHRing 2>
0

>  <nRot>
1

>  <SLogP>
2.53

>  <SMR>
77.14

>  <TopoPSA(NO)>
39.06

>  <TopoPSA>
39.06

>  <JGI1>
0.19

>  <JGI2>
0.08

>  <JGI3>
0.02

>  <JGI4>
0.04

>  <JGI5>
0.04

>  <Diameter>
12

>  <Radius>
6

>  <TMWC10>
112.66

>  <TSRW10>
52.57

>  <MW>
255.17

>  <AMW>
6.38

>  <WPath>
758

>  <WPol>
29

>  <Zagreb1>
100

>  <Zagreb2>
117

>  <mZagreb2>
4.28

>  <yes>


>  <nAR-cont>
1

>  <nHA-cont>
0.998649058

>  <MWHBN>
0.250406262

>  <MWHBN-cont>
0.959091292

>  <TPSA-cont>
0.727336945

>  <pka_cont>
0.97

>  <yes.1>


>  <BBB_SCORE>
5.376959886

>  <MMFF94 Energy>
45.632

$$$$
Compound 2347
Actelion Java MolfileCreator 2.0

  0  0  0  0  0  0              0 V3000
M  V30 BEGIN CTAB
M  V30 COUNTS 50 53 0 0 0
M  V30 BEGIN ATOM
M  V30 1 O 1.1335 -3.6468 -1.7816 0
M  V30 2 C 1.1082 -3.1884 -2.9173 0
M  V30 3 C 1.369 -1.7704 -3.2382 0
M  V30 4 C 0.7774 -4.0712 -4.0472 0
M  V30 5 C 1.2094 -1.3616 -4.5624 0
M  V30 6 C 1.7383 -0.8319 -2.2671 0
M  V30 7 C 0.6707 -3.5562 -5.2793 0
M  V30 8 O 0.8561 -2.2158 -5.5762 0
M  V30 9 C 1.4119 -0.0266 -4.9201 0
M  V30 10 O 1.9702 -1.2355 -0.9813 0
M  V30 11 C 1.9555 0.502 -2.6277 0
M  V30 12 C 0.3268 -4.4287 -6.4293 0
M  V30 13 C 1.784 0.9052 -3.952 0
M  V30 14 C 1.0961 -0.5933 -0.0353 0
M  V30 15 O 0.1973 -4.0546 -7.5822 0
M  V30 16 O 0.1595 -5.7237 -6.1066 0
M  V30 17 C 0.8517 -1.5839 1.1099 0
M  V30 18 O 0.1327 -2.7273 0.6265 0
M  V30 19 C 0.0453 -0.9499 2.2448 0
M  V30 20 O 0.7832 0.1414 2.8116 0
M  V30 21 C 0.0324 0.7894 3.7554 0
M  V30 22 C -0.7286 1.9268 3.4576 0
M  V30 23 C 0.1185 0.323 5.0716 0
M  V30 24 C -0.8427 2.4912 2.0968 0
M  V30 25 C -1.4221 2.5682 4.486 0
M  V30 26 C -0.582 0.9667 6.0902 0
M  V30 27 O -0.3156 2.0042 1.1056 0
M  V30 28 C -1.6588 3.7073 1.9501 0
M  V30 29 O -2.1934 3.6868 4.2933 0
M  V30 30 C -1.3551 2.0885 5.7969 0
M  V30 31 C -2.2738 4.2258 3.0208 0
M  V30 32 C -3.106 5.4476 2.8899 0
M  V30 33 O -3.7058 5.9913 3.8011 0
M  V30 34 O -3.1609 5.9444 1.6411 0
M  V30 35 H 0.623 -5.1166 -3.8106 0
M  V30 36 H 1.2846 0.2864 -5.9538 0
M  V30 37 H 2.2707 1.2283 -1.8822 0
M  V30 38 H 1.9506 1.9434 -4.2295 0
M  V30 39 H 0.1379 -0.3311 -0.503 0
M  V30 40 H 1.5963 0.3098 0.3281 0
M  V30 41 H -0.0582 -6.1506 -6.9621 0
M  V30 42 H 1.8154 -1.9417 1.4908 0
M  V30 43 H 0.6265 -3.0602 -0.1596 0
M  V30 44 H -0.1486 -1.7102 3.013 0
M  V30 45 H -0.9293 -0.6147 1.8649 0
M  V30 46 H 0.737 -0.5413 5.302 0
M  V30 47 H -0.5187 0.599 7.1116 0
M  V30 48 H -1.7237 4.1245 0.9529 0
M  V30 49 H -1.8988 2.595 6.5914 0
M  V30 50 H -3.7388 6.7319 1.7301 0
M  V30 END ATOM
M  V30 BEGIN BOND
M  V30 1 2 1 2
M  V30 2 1 2 3
M  V30 3 1 2 4
M  V30 4 2 3 5
M  V30 5 1 3 6
M  V30 6 2 4 7
M  V30 7 1 5 8
M  V30 8 1 5 9
M  V30 9 1 6 10
M  V30 10 2 6 11
M  V30 11 1 7 12
M  V30 12 2 9 13
M  V30 13 1 10 14
M  V30 14 2 12 15
M  V30 15 1 12 16
M  V30 16 1 14 17
M  V30 17 1 17 18
M  V30 18 1 17 19
M  V30 19 1 19 20
M  V30 20 1 20 21
M  V30 21 2 21 22
M  V30 22 1 21 23
M  V30 23 1 22 24
M  V30 24 1 22 25
M  V30 25 2 23 26
M  V30 26 2 24 27
M  V30 27 1 24 28
M  V30 28 1 25 29
M  V30 29 2 25 30
M  V30 30 2 28 31
M  V30 31 1 31 32
M  V30 32 2 32 33
M  V30 33 1 32 34
M  V30 34 1 7 8
M  V30 35 1 11 13
M  V30 36 1 26 30
M  V30 37 1 29 31
M  V30 38 1 4 35
M  V30 39 1 9 36
M  V30 40 1 11 37
M  V30 41 1 13 38
M  V30 42 1 14 39
M  V30 43 1 14 40
M  V30 44 1 16 41
M  V30 45 1 17 42
M  V30 46 1 18 43
M  V30 47 1 19 44
M  V30 48 1 19 45
M  V30 49 1 23 46
M  V30 50 1 26 47
M  V30 51 1 28 48
M  V30 52 1 30 49
M  V30 53 1 34 50
M  V30 END BOND
M  V30 END CTAB
M  END
>  <Column 1>
2868

>  <level_0>
4665

>  <index>
4665

>  <Unnamed: 0>
4665

>  <NO.>
4677

>  <Name>
cromoglicicacid

>  <IUPAC_name>
5-[3-(2-carboxy-4-oxochromen-5-yl)oxy-2-hydroxypropoxy]-4-oxochromene-2-carboxylic acid

>  <SMILES>
O=C(O)c1cc(=O)c2c(OCC(O)COc3cccc4oc(C(=O)O)cc(=O)c34)cccc2o1

>  <CID>
2882

>  <logBB>


>  <BBB+/BBB->
BBB-

>  <Inchi>
InChI=1S/C23H16O11/c24-11(9-31-14-3-1-5-16-20(14)12(25)7-18(33-16)22(27)28)10-32-15-4-2-6-17-21(15)13(26)8-19(34-17)23(29)30/h1-8-11-24H-9-10H2-(H-27-28)(H-29-30)

>  <threshold>
-1

>  <reference>
R28|R9|R15|R27|

>  <group>
B

>  <Class>
-1

>  <ABC>
26.61

>  <ABCGG>
19.59

>  <nAcid>
2

>  <nBase>
0

>  <nAromAtom>
20

>  <nAromBond>
22

>  <nAtom>
50

>  <nHeavyAtom>
34

>  <nSpiro>
0

>  <nBridgehead>
0

>  <nHetero>
11

>  <nN>
0

>  <nO>
11

>  <nF>
0

>  <BalabanJ>
1.25

>  <BertzCT>
1414.76

>  <nBonds>
53

>  <nBondsO>
37

>  <nBondsS>
27

>  <nBondsD>
4

>  <nBondsT>
0

>  <nBondsA>
22

>  <nBondsM>
26

>  <nBondsKS>
41

>  <nBondsKD>
12

>  <RNCG>
0.11

>  <RPCG>
0.08

>  <FCSP3>
0.13

>  <SZ>
40.33

>  <Sm>
39

>  <Sv>
35.2

>  <Sse>
52.74

>  <Sp>
34.67

>  <Si>
55.63

>  <MZ>
0.81

>  <Mm>
0.78

>  <Mv>
0.7

>  <Mse>
1.05

>  <Mp>
0.69

>  <Mi>
1.11

>  <NsCH3>
0

>  <NdCH2>
0

>  <NssCH2>
2

>  <NtCH>
0

>  <NdsCH>
0

>  <NaaCH>
8

>  <NsssCH>
1

>  <NddC>
0

>  <NtsC>
0

>  <NdssC>
2

>  <NaasC>
4

>  <NaaaC>
4

>  <NssssC>
0

>  <NsNH3>
0

>  <NsNH2>
0

>  <NssNH2>
0

>  <NdNH>
0

>  <NssNH>
0

>  <NaaNH>
0

>  <NtN>
0

>  <NsssNH>
0

>  <NdsN>
0

>  <NaaN>
0

>  <NsssN>
0

>  <NddsN>
0

>  <NaasN>
0

>  <NssssN>
0

>  <NsOH>
3

>  <NdO>
4

>  <NssO>
2

>  <NaaO>
2

>  <NsF>
0

>  <NsSiH3>
0

>  <NssSiH2>
0

>  <NsssSiH>
0

>  <NssssSi>
0

>  <NsPH2>
0

>  <NssPH>
0

>  <NsssP>
0

>  <NdsssP>
0

>  <NsssssP>
0

>  <NsSH>
0

>  <NdS>
0

>  <NssS>
0

>  <NaaS>
0

>  <NdssS>
0

>  <NddssS>
0

>  <NsCl>
0

>  <NsBr>
0

>  <NsI>
0

>  <fragCpx>
247.11

>  <fMF>
0.5

>  <nHBAcc>
9

>  <nHBDon>
3

>  <Kier1>
27.05

>  <Kier2>
12.03

>  <Lipinski>
1

>  <GhoseFilter>
1

>  <FilterItLogS>
-4.5

>  <VMcGowan>
304.46

>  <LabuteASA>
188.54

>  <PEOE_VSA1>
33.63

>  <PEOE_VSA2>
9.59

>  <PEOE_VSA3>
9.59

>  <PEOE_VSA4>
0

>  <PEOE_VSA5>
0

>  <PEOE_VSA6>
12.13

>  <PEOE_VSA7>
24.27

>  <PEOE_VSA8>
12.13

>  <PEOE_VSA9>
0

>  <PEOE_VSA10>
52.76

>  <PEOE_VSA11>
10.86

>  <PEOE_VSA12>
11.52

>  <PEOE_VSA13>
0

>  <SMR_VSA1>
43.22

>  <SMR_VSA2>
0

>  <SMR_VSA3>
0

>  <SMR_VSA4>
0

>  <SMR_VSA5>
6.1

>  <SMR_VSA6>
13.21

>  <SMR_VSA7>
80.5

>  <SMR_VSA8>
0

>  <SMR_VSA9>
11.5

>  <SlogP_VSA1>
20.33

>  <SlogP_VSA2>
46.58

>  <SlogP_VSA3>
0

>  <SlogP_VSA4>
0

>  <SlogP_VSA5>
21.11

>  <SlogP_VSA6>
66.95

>  <SlogP_VSA7>
0

>  <SlogP_VSA8>
21.94

>  <SlogP_VSA9>
0

>  <SlogP_VSA10>
0

>  <SlogP_VSA11>
11.5

>  <EState_VSA1>
40.42

>  <EState_VSA2>
46.65

>  <EState_VSA3>
0

>  <EState_VSA4>
12.13

>  <EState_VSA5>
36.4

>  <EState_VSA6>
0

>  <EState_VSA7>
0

>  <EState_VSA8>
0

>  <EState_VSA9>
28.52

>  <EState_VSA10>
24.28

>  <VSA_EState1>
21.42

>  <VSA_EState2>
46.82

>  <VSA_EState3>
28.36

>  <VSA_EState4>
-1.22

>  <VSA_EState5>
-3.65

>  <VSA_EState6>
10.41

>  <VSA_EState7>
-1.19

>  <VSA_EState8>
-0.61

>  <VSA_EState9>
0

>  <apol>
57.9

>  <bpol>
26.47

>  <nRing>
4

>  <nHRing>
2

>  <naRing>
4

>  <naHRing>
2

>  <nARing 2>
0

>  <nAHRing 2>
0

>  <nFRing>
2

>  <nFHRing>
2

>  <nFaRing>
2

>  <nFaHRing>
2

>  <nFARing 2>
0

>  <nFAHRing 2>
0

>  <nRot>
8

>  <SLogP>
2.11

>  <SMR>
115.88

>  <TopoPSA(NO)>
173.71

>  <TopoPSA>
173.71

>  <JGI1>
0.2

>  <JGI2>
0.08

>  <JGI3>
0.05

>  <JGI4>
0.05

>  <JGI5>
0.03

>  <Diameter>
18

>  <Radius>
9

>  <TMWC10>
149.57

>  <TSRW10>
70.53

>  <MW>
468.07

>  <AMW>
9.36

>  <WPath>
3945

>  <WPol>
58

>  <Zagreb1>
180

>  <Zagreb2>
213

>  <mZagreb2>
7.39

>  <yes>


>  <nAR-cont>
0.336376

>  <nHA-cont>
0.568589513

>  <MWHBN>
0.554658717

>  <MWHBN-cont>
0

>  <TPSA-cont>
0

>  <pka_cont>
0.97

>  <yes.1>


>  <BBB_SCORE>
1.389965513

>  <MMFF94 Energy>
68.182

$$$$
Compound 2348
Actelion Java MolfileCreator 2.0

  0  0  0  0  0  0              0 V3000
M  V30 BEGIN CTAB
M  V30 COUNTS 14 14 0 0 0
M  V30 BEGIN ATOM
M  V30 1 O 2.397 -1.2779 -1.1181 0
M  V30 2 C 1.5308 -0.8355 -0.3752 0
M  V30 3 C 0.3103 -0.2058 -0.9072 0
M  V30 4 C 1.665 -0.9105 1.0895 0
M  V30 5 C -0.6059 0.2618 -0.046 0
M  V30 6 C 0.6795 -0.4067 1.8351 0
M  V30 7 O -0.457 0.1796 1.3334 0
M  V30 8 C -1.8498 0.9034 -0.5343 0
M  V30 9 O -2.7351 1.3557 0.1711 0
M  V30 10 O -1.9465 0.9586 -1.8751 0
M  V30 11 H 0.2192 -0.1544 -1.9842 0
M  V30 12 H 2.5539 -1.3692 1.4992 0
M  V30 13 H 0.6729 -0.4078 2.9169 0
M  V30 14 H -2.808 1.4022 -2.0268 0
M  V30 END ATOM
M  V30 BEGIN BOND
M  V30 1 2 1 2
M  V30 2 1 2 3
M  V30 3 1 2 4
M  V30 4 2 3 5
M  V30 5 2 4 6
M  V30 6 1 5 7
M  V30 7 1 5 8
M  V30 8 2 8 9
M  V30 9 1 8 10
M  V30 10 1 6 7
M  V30 11 1 3 11
M  V30 12 1 4 12
M  V30 13 1 6 13
M  V30 14 1 10 14
M  V30 END BOND
M  V30 END CTAB
M  END
>  <Column 1>
2869

>  <level_0>
4666

>  <index>
4666

>  <Unnamed: 0>
4666

>  <NO.>
4678

>  <Name>
comanic acid

>  <IUPAC_name>
4-oxopyran-2-carboxylic acid

>  <SMILES>
O=C(O)c1cc(=O)cco1

>  <CID>
12305536

>  <logBB>


>  <BBB+/BBB->
BBB-

>  <Inchi>
InChI=1S/C6H4O4/c7-4-1-2-10-5(3-4)6(8)9/h1-3H-(H-8-9)

>  <threshold>
-1

>  <reference>
R28|

>  <group>
B

>  <Class>
-1

>  <ABC>
7.36

>  <ABCGG>
6.99

>  <nAcid>
1

>  <nBase>
0

>  <nAromAtom>
6

>  <nAromBond>
6

>  <nAtom>
14

>  <nHeavyAtom>
10

>  <nSpiro>
0

>  <nBridgehead>
0

>  <nHetero>
4

>  <nN>
0

>  <nO>
4

>  <nF>
0

>  <BalabanJ>
2.32

>  <BertzCT>
298.62

>  <nBonds>
14

>  <nBondsO>
10

>  <nBondsS>
6

>  <nBondsD>
2

>  <nBondsT>
0

>  <nBondsA>
6

>  <nBondsM>
8

>  <nBondsKS>
10

>  <nBondsKD>
4

>  <RNCG>
0.32

>  <RPCG>
0.25

>  <FCSP3>
0

>  <SZ>
12

>  <Sm>
11.66

>  <Sv>
9.94

>  <Sse>
15.1

>  <Sp>
9.52

>  <Si>
15.67

>  <MZ>
0.86

>  <Mm>
0.83

>  <Mv>
0.71

>  <Mse>
1.08

>  <Mp>
0.68

>  <Mi>
1.12

>  <NsCH3>
0

>  <NdCH2>
0

>  <NssCH2>
0

>  <NtCH>
0

>  <NdsCH>
0

>  <NaaCH>
3

>  <NsssCH>
0

>  <NddC>
0

>  <NtsC>
0

>  <NdssC>
1

>  <NaasC>
1

>  <NaaaC>
0

>  <NssssC>
0

>  <NsNH3>
0

>  <NsNH2>
0

>  <NssNH2>
0

>  <NdNH>
0

>  <NssNH>
0

>  <NaaNH>
0

>  <NtN>
0

>  <NsssNH>
0

>  <NdsN>
0

>  <NaaN>
0

>  <NsssN>
0

>  <NddsN>
0

>  <NaasN>
0

>  <NssssN>
0

>  <NsOH>
1

>  <NdO>
2

>  <NssO>
0

>  <NaaO>
1

>  <NsF>
0

>  <NsSiH3>
0

>  <NssSiH2>
0

>  <NsssSiH>
0

>  <NssssSi>
0

>  <NsPH2>
0

>  <NssPH>
0

>  <NsssP>
0

>  <NdsssP>
0

>  <NsssssP>
0

>  <NsSH>
0

>  <NdS>
0

>  <NssS>
0

>  <NaaS>
0

>  <NdssS>
0

>  <NddssS>
0

>  <NsCl>
0

>  <NsBr>
0

>  <NsI>
0

>  <fragCpx>
10.04

>  <fMF>
0.43

>  <nHBAcc>
3

>  <nHBDon>
1

>  <Kier1>
8.1

>  <Kier2>
3.41

>  <Lipinski>
1

>  <GhoseFilter>
0

>  <FilterItLogS>
-0.83

>  <VMcGowan>
90.82

>  <LabuteASA>
55.72

>  <PEOE_VSA1>
9.52

>  <PEOE_VSA2>
4.79

>  <PEOE_VSA3>
4.79

>  <PEOE_VSA4>
0

>  <PEOE_VSA5>
0

>  <PEOE_VSA6>
0

>  <PEOE_VSA7>
0

>  <PEOE_VSA8>
12.13

>  <PEOE_VSA9>
6.26

>  <PEOE_VSA10>
0

>  <PEOE_VSA11>
5.43

>  <PEOE_VSA12>
5.76

>  <PEOE_VSA13>
0

>  <SMR_VSA1>
14.32

>  <SMR_VSA2>
0

>  <SMR_VSA3>
0

>  <SMR_VSA4>
0

>  <SMR_VSA5>
0

>  <SMR_VSA6>
0

>  <SMR_VSA7>
34.38

>  <SMR_VSA8>
0

>  <SMR_VSA9>
0

>  <SlogP_VSA1>
5.43

>  <SlogP_VSA2>
11.08

>  <SlogP_VSA3>
0

>  <SlogP_VSA4>
0

>  <SlogP_VSA5>
10.55

>  <SlogP_VSA6>
27.61

>  <SlogP_VSA7>
0

>  <SlogP_VSA8>
0

>  <SlogP_VSA9>
0

>  <SlogP_VSA10>
0

>  <SlogP_VSA11>
0

>  <EState_VSA1>
5.97

>  <EState_VSA2>
11.19

>  <EState_VSA3>
0

>  <EState_VSA4>
18.4

>  <EState_VSA5>
0

>  <EState_VSA6>
0

>  <EState_VSA7>
0

>  <EState_VSA8>
4.42

>  <EState_VSA9>
5.11

>  <EState_VSA10>
9.59

>  <VSA_EState1>
4.47

>  <VSA_EState2>
20.59

>  <VSA_EState3>
8.28

>  <VSA_EState4>
-0.37

>  <VSA_EState5>
-1.58

>  <VSA_EState6>
2.06

>  <VSA_EState7>
1.05

>  <VSA_EState8>
0

>  <VSA_EState9>
0

>  <apol>
15.9

>  <bpol>
7.48

>  <nRing>
1

>  <nHRing>
1

>  <naRing>
1

>  <naHRing>
1

>  <nARing 2>
0

>  <nAHRing 2>
0

>  <nFRing>
0

>  <nFHRing>
0

>  <nFaRing>
0

>  <nFaHRing>
0

>  <nFARing 2>
0

>  <nFAHRing 2>
0

>  <nRot>
1

>  <SLogP>
0.34

>  <SMR>
31.94

>  <TopoPSA(NO)>
67.51

>  <TopoPSA>
67.51

>  <JGI1>
0.25

>  <JGI2>
0.09

>  <JGI3>
0.06

>  <JGI4>
0.07

>  <JGI5>
0.03

>  <Diameter>
5

>  <Radius>
3

>  <TMWC10>
83.38

>  <TSRW10>
39.16

>  <MW>
140.01

>  <AMW>
10

>  <WPath>
117

>  <WPol>
11

>  <Zagreb1>
46

>  <Zagreb2>
50

>  <mZagreb2>
2.28

>  <yes>


>  <nAR-cont>
0.336376

>  <nHA-cont>
0.645914733

>  <MWHBN>
0.338049629

>  <MWHBN-cont>
0.714196419

>  <TPSA-cont>
0.528738279

>  <pka_cont>
0.97

>  <yes.1>


>  <BBB_SCORE>
3.59606192

>  <MMFF94 Energy>
-18.92

$$$$
Compound 2349
Actelion Java MolfileCreator 2.0

  0  0  0  0  0  0              0 V3000
M  V30 BEGIN CTAB
M  V30 COUNTS 44 46 0 0 0
M  V30 BEGIN ATOM
M  V30 1 S 0.0 -2.098 -1.4521 0
M  V30 2 C 0.979 -0.6934 -1.309 0
M  V30 3 C -0.9495 -2.0217 0.0976 0 CFG=1
M  V30 4 C 0.7505 0.5363 -1.7978 0
M  V30 5 C 2.3046 -0.744 -0.5848 0
M  V30 6 C -2.2532 -1.2177 0.0081 0
M  V30 7 C -1.4577 -3.3987 0.5096 0
M  V30 8 N 1.7949 1.3794 -1.5107 0
M  V30 9 C -0.4537 1.0315 -2.5017 0
M  V30 10 C 2.8955 0.6427 -0.8645 0 CFG=1
M  V30 11 N -3.0959 -1.7886 1.0617 0
M  V30 12 C -2.5427 -3.0564 1.5277 0
M  V30 13 C 1.7323 2.3839 -0.5945 0
M  V30 14 O -1.5784 0.569 -2.4386 0
M  V30 15 O -0.1798 2.1041 -3.267 0
M  V30 16 C 2.9245 1.7976 0.1864 0 CFG=2
M  V30 17 C -4.2521 -1.2204 1.5416 0
M  V30 18 O 0.9545 3.293 -0.425 0
M  V30 19 C 4.1685 2.6681 0.2914 0 CFG=2
M  V30 20 N -4.7911 -0.1523 1.0556 0
M  V30 21 C -4.9709 -1.8667 2.7073 0
M  V30 22 O 3.9795 3.6182 1.3398 0
M  V30 23 C 4.5298 3.4086 -0.9881 0
M  V30 24 H -0.3192 -1.6238 0.9034 0
M  V30 25 H 2.168 -0.9143 0.4881 0
M  V30 26 H 2.9503 -1.5276 -0.9953 0
M  V30 27 H -2.7564 -1.3471 -0.9566 0
M  V30 28 H -2.0603 -0.1538 0.1821 0
M  V30 29 H -0.6779 -4.0336 0.9417 0
M  V30 30 H -1.9082 -3.9325 -0.3372 0
M  V30 31 H 3.7768 0.5929 -1.516 0
M  V30 32 H -2.1077 -2.9269 2.525 0
M  V30 33 H -3.2964 -3.8493 1.5668 0
M  V30 34 H -1.0477 2.3692 -3.6345 0
M  V30 35 H 2.6205 1.4469 1.1833 0
M  V30 36 H 5.0167 2.0421 0.5895 0
M  V30 37 H -4.2431 0.187 0.2646 0
M  V30 38 H -4.2749 -2.0156 3.5374 0
M  V30 39 H -5.7952 -1.2347 3.0512 0
M  V30 40 H -5.3765 -2.8329 2.3947 0
M  V30 41 H 3.2771 4.2408 1.0713 0
M  V30 42 H 4.708 2.7233 -1.8212 0
M  V30 43 H 3.7441 4.1131 -1.2815 0
M  V30 44 H 5.4353 4.006 -0.8338 0
M  V30 END ATOM
M  V30 BEGIN BOND
M  V30 1 1 1 2
M  V30 2 1 1 3
M  V30 3 2 2 4
M  V30 4 1 2 5
M  V30 5 1 3 6
M  V30 6 1 3 7
M  V30 7 1 4 8
M  V30 8 1 4 9
M  V30 9 1 5 10
M  V30 10 1 6 11
M  V30 11 1 7 12
M  V30 12 1 8 13
M  V30 13 2 9 14
M  V30 14 1 9 15
M  V30 15 1 10 16
M  V30 16 1 11 17
M  V30 17 2 13 18
M  V30 18 1 16 19
M  V30 19 2 17 20
M  V30 20 1 17 21
M  V30 21 1 19 22
M  V30 22 1 19 23
M  V30 23 1 8 10
M  V30 24 1 11 12
M  V30 25 1 13 16
M  V30 26 1 3 24
M  V30 27 1 5 25
M  V30 28 1 5 26
M  V30 29 1 6 27
M  V30 30 1 6 28
M  V30 31 1 7 29
M  V30 32 1 7 30
M  V30 33 1 10 31
M  V30 34 1 12 32
M  V30 35 1 12 33
M  V30 36 1 15 34
M  V30 37 1 16 35
M  V30 38 1 19 36
M  V30 39 1 20 37
M  V30 40 1 21 38
M  V30 41 1 21 39
M  V30 42 1 21 40
M  V30 43 1 22 41
M  V30 44 1 23 42
M  V30 45 1 23 43
M  V30 46 1 23 44
M  V30 END BOND
M  V30 BEGIN COLLECTION
M  V30 MDLV30/STEABS ATOMS=(4 3 10 16 19)
M  V30 END COLLECTION
M  V30 END CTAB
M  END
>  <Column 1>
2870

>  <level_0>
4682

>  <index>
4682

>  <Unnamed: 0>
4682

>  <NO.>
4694

>  <Name>
(5r-6s)-3-[(3r)-1-ethanimidoylpyrrolidin-3-yl]sulfanyl-6-[(1r)-1-hydroxyethyl]-7-oxo-1-azabicyclo[3.2.0]hept-2-ene-2-carboxylic acid

>  <IUPAC_name>
(5r-6s)-3-[(3r)-1-ethanimidoylpyrrolidin-3-yl]sulfanyl-6-[(1r)-1-hydroxyethyl]-7-oxo-1-azabicyclo[3.2.0]hept-2-ene-2-carboxylic acid

>  <SMILES>
CC(=N)N1CC[C@@H](SC2=C(C(=O)O)N3C(=O)[C@H]([C@@H](C)O)[C@H]3C2)C1

>  <CID>
9840851

>  <logBB>


>  <BBB+/BBB->
BBB-

>  <Inchi>
InChI=1S/C15H21N3O4S/c1-7(19)12-10-5-11(13(15(21)22)18(10)14(12)20)23-9-3-4-17(6-9)8(2)16/h7-9-10-12-16-19H-3-6H2-1-2H3-(H-21-22)/t7--9--10--12-/m1/s1

>  <threshold>


>  <reference>
R6|

>  <group>
C

>  <Class>
-1

>  <ABC>
18.08

>  <ABCGG>
16.02

>  <nAcid>
1

>  <nBase>
2

>  <nAromAtom>
0

>  <nAromBond>
0

>  <nAtom>
44

>  <nHeavyAtom>
23

>  <nSpiro>
0

>  <nBridgehead>
0

>  <nHetero>
8

>  <nN>
3

>  <nO>
4

>  <nF>
0

>  <BalabanJ>
1.65

>  <BertzCT>
603.53

>  <nBonds>
46

>  <nBondsO>
25

>  <nBondsS>
42

>  <nBondsD>
4

>  <nBondsT>
0

>  <nBondsA>
0

>  <nBondsM>
4

>  <nBondsKS>
42

>  <nBondsKD>
4

>  <RNCG>
0.19

>  <RPCG>
0.14

>  <FCSP3>
0.67

>  <SZ>
30

>  <Sm>
28.26

>  <Sv>
27.01

>  <Sse>
44.71

>  <Sp>
29.02

>  <Si>
49.99

>  <MZ>
0.68

>  <Mm>
0.64

>  <Mv>
0.61

>  <Mse>
1.02

>  <Mp>
0.66

>  <Mi>
1.14

>  <NsCH3>
2

>  <NdCH2>
0

>  <NssCH2>
4

>  <NtCH>
0

>  <NdsCH>
0

>  <NaaCH>
0

>  <NsssCH>
4

>  <NddC>
0

>  <NtsC>
0

>  <NdssC>
5

>  <NaasC>
0

>  <NaaaC>
0

>  <NssssC>
0

>  <NsNH3>
0

>  <NsNH2>
0

>  <NssNH2>
0

>  <NdNH>
1

>  <NssNH>
0

>  <NaaNH>
0

>  <NtN>
0

>  <NsssNH>
0

>  <NdsN>
0

>  <NaaN>
0

>  <NsssN>
2

>  <NddsN>
0

>  <NaasN>
0

>  <NssssN>
0

>  <NsOH>
2

>  <NdO>
2

>  <NssO>
0

>  <NaaO>
0

>  <NsF>
0

>  <NsSiH3>
0

>  <NssSiH2>
0

>  <NsssSiH>
0

>  <NssssSi>
0

>  <NsPH2>
0

>  <NssPH>
0

>  <NsssP>
0

>  <NdsssP>
0

>  <NsssssP>
0

>  <NsSH>
0

>  <NdS>
0

>  <NssS>
1

>  <NaaS>
0

>  <NdssS>
0

>  <NddssS>
0

>  <NsCl>
0

>  <NsBr>
0

>  <NsI>
0

>  <fragCpx>
119.08

>  <fMF>
0.3

>  <nHBAcc>
5

>  <nHBDon>
3

>  <Kier1>
17.81

>  <Kier2>
6.72

>  <Lipinski>
1

>  <GhoseFilter>
1

>  <FilterItLogS>
-0.28

>  <VMcGowan>
242.2

>  <LabuteASA>
138.38

>  <PEOE_VSA1>
20.01

>  <PEOE_VSA2>
10.2

>  <PEOE_VSA3>
4.79

>  <PEOE_VSA4>
0

>  <PEOE_VSA5>
11.76

>  <PEOE_VSA6>
0

>  <PEOE_VSA7>
20.27

>  <PEOE_VSA8>
29.67

>  <PEOE_VSA9>
23.9

>  <PEOE_VSA10>
5.7

>  <PEOE_VSA11>
0

>  <PEOE_VSA12>
5.91

>  <PEOE_VSA13>
0

>  <SMR_VSA1>
19.8

>  <SMR_VSA2>
5.41

>  <SMR_VSA3>
9.8

>  <SMR_VSA4>
5.92

>  <SMR_VSA5>
44.08

>  <SMR_VSA6>
13.09

>  <SMR_VSA7>
10.6

>  <SMR_VSA8>
0

>  <SMR_VSA9>
0

>  <SlogP_VSA1>
0

>  <SlogP_VSA2>
68.21

>  <SlogP_VSA3>
9.59

>  <SlogP_VSA4>
11.33

>  <SlogP_VSA5>
26.69

>  <SlogP_VSA6>
10.6

>  <SlogP_VSA7>
0

>  <SlogP_VSA8>
0

>  <SlogP_VSA9>
0

>  <SlogP_VSA10>
0

>  <SlogP_VSA11>
0

>  <EState_VSA1>
17.99

>  <EState_VSA2>
22.9

>  <EState_VSA3>
12.26

>  <EState_VSA4>
24.42

>  <EState_VSA5>
16.66

>  <EState_VSA6>
13.85

>  <EState_VSA7>
4.9

>  <EState_VSA8>
0

>  <EState_VSA9>
5.41

>  <EState_VSA10>
19.8

>  <VSA_EState1>
0

>  <VSA_EState2>
27.8

>  <VSA_EState3>
27.13

>  <VSA_EState4>
0.09

>  <VSA_EState5>
-1.33

>  <VSA_EState6>
-0.22

>  <VSA_EState7>
0.65

>  <VSA_EState8>
4.87

>  <VSA_EState9>
0

>  <apol>
48.46

>  <bpol>
28.68

>  <nRing>
3

>  <nHRing>
3

>  <naRing>
0

>  <naHRing>
0

>  <nARing 2>
3

>  <nAHRing 2>
3

>  <nFRing>
1

>  <nFHRing>
1

>  <nFaRing>
0

>  <nFaHRing>
0

>  <nFARing 2>
1

>  <nFAHRing 2>
1

>  <nRot>
4

>  <SLogP>
0.7

>  <SMR>
86.05

>  <TopoPSA(NO)>
104.93

>  <TopoPSA>
130.23

>  <JGI1>
0.22

>  <JGI2>
0.07

>  <JGI3>
0.09

>  <JGI4>
0.05

>  <JGI5>
0.04

>  <Diameter>
11

>  <Radius>
6

>  <TMWC10>
124.89

>  <TSRW10>
74.52

>  <MW>
339.13

>  <AMW>
7.71

>  <WPath>
1191

>  <WPol>
35

>  <Zagreb1>
126

>  <Zagreb2>
154

>  <mZagreb2>
4.92

>  <yes>


>  <nAR-cont>
0.691115

>  <nHA-cont>
0.967789328

>  <MWHBN>
0.43441707

>  <MWHBN-cont>
0.343067294

>  <TPSA-cont>
0

>  <pka_cont>
0.97

>  <yes.1>


>  <BBB_SCORE>
2.658505269

>  <MMFF94 Energy>
15.632

$$$$
Compound 2350
Actelion Java MolfileCreator 2.0

  0  0  0  0  0  0              0 V3000
M  V30 BEGIN CTAB
M  V30 COUNTS 39 40 0 0 0
M  V30 BEGIN ATOM
M  V30 1 S -2.2582 1.6126 -0.5642 0
M  V30 2 O -3.4169 1.5727 0.31 0
M  V30 3 O -2.2535 2.4708 -1.7354 0
M  V30 4 C -0.8633 2.0598 0.4432 0
M  V30 5 C -1.9488 -0.043 -1.1327 0
M  V30 6 C 0.113 2.9219 -0.0566 0
M  V30 7 C -0.7731 1.5633 1.7446 0
M  V30 8 C -1.0482 -0.2491 -2.1788 0
M  V30 9 C -2.624 -1.1188 -0.5553 0
M  V30 10 C 1.2014 3.2668 0.7498 0
M  V30 11 C 0.3201 1.9132 2.5437 0
M  V30 12 C -0.802 -1.5487 -2.633 0
M  V30 13 C -2.3722 -2.414 -1.0167 0
M  V30 14 C 1.319 2.7579 2.0512 0
M  V30 15 C -1.4529 -2.6403 -2.0508 0
M  V30 16 N 2.4408 3.1607 2.8029 0
M  V30 17 N -1.2623 -3.9737 -2.4646 0
M  V30 18 C 2.8828 2.618 3.9966 0
M  V30 19 C -0.2585 -4.4562 -3.2858 0
M  V30 20 O 2.3971 1.6662 4.5969 0
M  V30 21 C 4.1118 3.3203 4.5166 0
M  V30 22 O 0.6655 -3.8152 -3.7727 0
M  V30 23 C -0.3852 -5.94 -3.522 0
M  V30 24 H 0.0384 3.3303 -1.0622 0
M  V30 25 H -1.5449 0.9138 2.1518 0
M  V30 26 H -0.5393 0.5869 -2.6536 0
M  V30 27 H -3.3436 -0.9639 0.2458 0
M  V30 28 H 1.9565 3.9356 0.3436 0
M  V30 29 H 0.3578 1.5194 3.5557 0
M  V30 30 H -0.1035 -1.6769 -3.4553 0
M  V30 31 H -2.9028 -3.242 -0.5526 0
M  V30 32 H 3.0035 3.9017 2.4037 0
M  V30 33 H -1.9085 -4.6555 -2.087 0
M  V30 34 H 4.9731 3.0532 3.8982 0
M  V30 35 H 4.3013 3.0152 5.5495 0
M  V30 36 H 3.9683 4.4045 4.4941 0
M  V30 37 H -0.1114 -6.4788 -2.6107 0
M  V30 38 H 0.2823 -6.2423 -4.3336 0
M  V30 39 H -1.4118 -6.1941 -3.8019 0
M  V30 END ATOM
M  V30 BEGIN BOND
M  V30 1 2 1 2
M  V30 2 2 1 3
M  V30 3 1 1 4
M  V30 4 1 1 5
M  V30 5 2 4 6
M  V30 6 1 4 7
M  V30 7 2 5 8
M  V30 8 1 5 9
M  V30 9 1 6 10
M  V30 10 2 7 11
M  V30 11 1 8 12
M  V30 12 2 9 13
M  V30 13 2 10 14
M  V30 14 2 12 15
M  V30 15 1 14 16
M  V30 16 1 15 17
M  V30 17 1 16 18
M  V30 18 1 17 19
M  V30 19 2 18 20
M  V30 20 1 18 21
M  V30 21 2 19 22
M  V30 22 1 19 23
M  V30 23 1 11 14
M  V30 24 1 13 15
M  V30 25 1 6 24
M  V30 26 1 7 25
M  V30 27 1 8 26
M  V30 28 1 9 27
M  V30 29 1 10 28
M  V30 30 1 11 29
M  V30 31 1 12 30
M  V30 32 1 13 31
M  V30 33 1 16 32
M  V30 34 1 17 33
M  V30 35 1 21 34
M  V30 36 1 21 35
M  V30 37 1 21 36
M  V30 38 1 23 37
M  V30 39 1 23 38
M  V30 40 1 23 39
M  V30 END BOND
M  V30 END CTAB
M  END
>  <Column 1>
2871

>  <level_0>
4684

>  <index>
4684

>  <Unnamed: 0>
4684

>  <NO.>
4696

>  <Name>
ornidazole

>  <IUPAC_name>
n-[4-(4-acetamidophenyl)sulfonylphenyl]acetamide

>  <SMILES>
CC(=O)Nc1ccc(S(=O)(=O)c2ccc(NC(C)=O)cc2)cc1

>  <CID>
6477

>  <logBB>


>  <BBB+/BBB->
BBB+

>  <Inchi>
InChI=1S/C16H16N2O4S/c1-11(19)17-13-3-7-15(8-4-13)23(21-22)16-9-5-14(6-10-16)18-12(2)20/h3-10H-1-2H3-(H-17-19)(H-18-20)

>  <threshold>


>  <reference>
R6|

>  <group>
C

>  <Class>
1

>  <ABC>
17.6

>  <ABCGG>
14.1

>  <nAcid>
0

>  <nBase>
0

>  <nAromAtom>
12

>  <nAromBond>
12

>  <nAtom>
39

>  <nHeavyAtom>
23

>  <nSpiro>
0

>  <nBridgehead>
0

>  <nHetero>
7

>  <nN>
2

>  <nO>
4

>  <nF>
0

>  <BalabanJ>
1.81

>  <BertzCT>
759.89

>  <nBonds>
40

>  <nBondsO>
24

>  <nBondsS>
24

>  <nBondsD>
4

>  <nBondsT>
0

>  <nBondsA>
12

>  <nBondsM>
16

>  <nBondsKS>
30

>  <nBondsKD>
10

>  <RNCG>
0.17

>  <RPCG>
0.11

>  <FCSP3>
0.13

>  <SZ>
29

>  <Sm>
27.67

>  <Sv>
25.9

>  <Sse>
39.83

>  <Sp>
27.36

>  <Si>
43.66

>  <MZ>
0.74

>  <Mm>
0.71

>  <Mv>
0.66

>  <Mse>
1.02

>  <Mp>
0.7

>  <Mi>
1.12

>  <NsCH3>
2

>  <NdCH2>
0

>  <NssCH2>
0

>  <NtCH>
0

>  <NdsCH>
0

>  <NaaCH>
8

>  <NsssCH>
0

>  <NddC>
0

>  <NtsC>
0

>  <NdssC>
2

>  <NaasC>
4

>  <NaaaC>
0

>  <NssssC>
0

>  <NsNH3>
0

>  <NsNH2>
0

>  <NssNH2>
0

>  <NdNH>
0

>  <NssNH>
2

>  <NaaNH>
0

>  <NtN>
0

>  <NsssNH>
0

>  <NdsN>
0

>  <NaaN>
0

>  <NsssN>
0

>  <NddsN>
0

>  <NaasN>
0

>  <NssssN>
0

>  <NsOH>
0

>  <NdO>
4

>  <NssO>
0

>  <NaaO>
0

>  <NsF>
0

>  <NsSiH3>
0

>  <NssSiH2>
0

>  <NsssSiH>
0

>  <NssssSi>
0

>  <NsPH2>
0

>  <NssPH>
0

>  <NsssP>
0

>  <NdsssP>
0

>  <NsssssP>
0

>  <NsSH>
0

>  <NdS>
0

>  <NssS>
0

>  <NaaS>
0

>  <NdssS>
0

>  <NddssS>
1

>  <NsCl>
0

>  <NsBr>
0

>  <NsI>
0

>  <fragCpx>
70.07

>  <fMF>
0.33

>  <nHBAcc>
4

>  <nHBDon>
2

>  <Kier1>
19.33

>  <Kier2>
8.39

>  <Lipinski>
1

>  <GhoseFilter>
1

>  <FilterItLogS>
-4.38

>  <VMcGowan>
239.97

>  <LabuteASA>
134

>  <PEOE_VSA1>
10.63

>  <PEOE_VSA2>
9.59

>  <PEOE_VSA3>
8.42

>  <PEOE_VSA4>
0

>  <PEOE_VSA5>
0

>  <PEOE_VSA6>
0

>  <PEOE_VSA7>
48.53

>  <PEOE_VSA8>
25.22

>  <PEOE_VSA9>
9.79

>  <PEOE_VSA10>
0

>  <PEOE_VSA11>
0

>  <PEOE_VSA12>
21.65

>  <PEOE_VSA13>
0

>  <SMR_VSA1>
18.01

>  <SMR_VSA2>
0

>  <SMR_VSA3>
0

>  <SMR_VSA4>
0

>  <SMR_VSA5>
23.64

>  <SMR_VSA6>
10.63

>  <SMR_VSA7>
48.53

>  <SMR_VSA8>
0

>  <SMR_VSA9>
0

>  <SlogP_VSA1>
10.63

>  <SlogP_VSA2>
20.23

>  <SlogP_VSA3>
19.43

>  <SlogP_VSA4>
0

>  <SlogP_VSA5>
13.85

>  <SlogP_VSA6>
58.32

>  <SlogP_VSA7>
0

>  <SlogP_VSA8>
0

>  <SlogP_VSA9>
0

>  <SlogP_VSA10>
11.37

>  <SlogP_VSA11>
0

>  <EState_VSA1>
9.84

>  <EState_VSA2>
21.61

>  <EState_VSA3>
11.37

>  <EState_VSA4>
0

>  <EState_VSA5>
62.38

>  <EState_VSA6>
0

>  <EState_VSA7>
0

>  <EState_VSA8>
10.63

>  <EState_VSA9>
0

>  <EState_VSA10>
18.01

>  <VSA_EState1>
25.05

>  <VSA_EState2>
22.18

>  <VSA_EState3>
5.15

>  <VSA_EState4>
1.05

>  <VSA_EState5>
-0.46

>  <VSA_EState6>
11.84

>  <VSA_EState7>
0

>  <VSA_EState8>
2.75

>  <VSA_EState9>
-3.65

>  <apol>
45.7

>  <bpol>
25.58

>  <nRing>
2

>  <nHRing>
0

>  <naRing>
2

>  <naHRing>
0

>  <nARing 2>
0

>  <nAHRing 2>
0

>  <nFRing>
0

>  <nFHRing>
0

>  <nFaRing>
0

>  <nFaHRing>
0

>  <nFARing 2>
0

>  <nFAHRing 2>
0

>  <nRot>
4

>  <SLogP>
2.44

>  <SMR>
86.94

>  <TopoPSA(NO)>
92.34

>  <TopoPSA>
100.72

>  <JGI1>
0.29

>  <JGI2>
0.09

>  <JGI3>
0.06

>  <JGI4>
0.04

>  <JGI5>
0.03

>  <Diameter>
14

>  <Radius>
7

>  <TMWC10>
120.71

>  <TSRW10>
57.17

>  <MW>
332.08

>  <AMW>
8.51

>  <WPath>
1336

>  <WPol>
34

>  <Zagreb1>
116

>  <Zagreb2>
132

>  <mZagreb2>
5

>  <yes>


>  <nAR-cont>
0.336376

>  <nHA-cont>
0.967789328

>  <MWHBN>
0.329253113

>  <MWHBN-cont>
0.745458275

>  <TPSA-cont>
0.296911857

>  <pka_cont>
0.97

>  <yes.1>


>  <BBB_SCORE>
3.501176454

>  <MMFF94 Energy>
52.397

$$$$
Compound 2351
Actelion Java MolfileCreator 2.0

  0  0  0  0  0  0              0 V3000
M  V30 BEGIN CTAB
M  V30 COUNTS 55 58 0 0 0
M  V30 BEGIN ATOM
M  V30 1 O 3.7687 0.9612 -4.2506 0
M  V30 2 C 3.7426 1.094 -3.0268 0
M  V30 3 C 2.5052 1.5872 -2.2791 0 CFG=2
M  V30 4 C 4.9494 0.7337 -2.199 0
M  V30 5 C 1.6961 0.4992 -1.5305 0 CFG=2
M  V30 6 C 1.4605 2.2613 -3.2065 0
M  V30 7 C 0.3796 1.2721 -1.2988 0 CFG=1
M  V30 8 C 2.238 0.1117 -0.1462 0
M  V30 9 C 1.5341 -0.7638 -2.4128 0
M  V30 10 C 0.0749 1.8828 -2.6597 0
M  V30 11 C -0.7085 0.4381 -0.6138 0 CFG=1
M  V30 12 C 1.2221 -0.7274 0.648 0
M  V30 13 C -0.183 -0.0776 0.7564 0 CFG=2
M  V30 14 C -1.9853 1.2694 -0.4127 0
M  V30 15 C -1.2562 -0.9793 1.4888 0 CFG=2
M  V30 16 C -2.9452 0.6675 0.5645 0
M  V30 17 C -2.6507 -0.3389 1.407 0
M  V30 18 C -0.8428 -1.1129 2.9851 0
M  V30 19 C -1.3383 -2.3873 0.8517 0
M  V30 20 C -3.7121 -0.8895 2.3352 0
M  V30 21 C -1.9144 -1.7289 3.884 0
M  V30 22 C -3.2289 -0.9625 3.7845 0 CFG=2
M  V30 23 O -4.1987 -1.6266 4.5919 0
M  V30 24 H 2.8508 2.3536 -1.5708 0
M  V30 25 H 5.045 1.4185 -1.3527 0
M  V30 26 H 4.8592 -0.2943 -1.8435 0
M  V30 27 H 5.8502 0.8258 -2.8125 0
M  V30 28 H 1.5413 1.9539 -4.2541 0
M  V30 29 H 1.5961 3.3491 -3.1836 0
M  V30 30 H 0.5956 2.1196 -0.6259 0
M  V30 31 H 2.478 1.0134 0.4318 0
M  V30 32 H 3.1708 -0.4548 -0.2366 0
M  V30 33 H 1.2152 -0.5225 -3.4319 0
M  V30 34 H 2.4838 -1.3048 -2.492 0
M  V30 35 H 0.8027 -1.4702 -2.0115 0
M  V30 36 H -0.4162 1.1618 -3.3225 0
M  V30 37 H -0.576 2.7597 -2.5842 0
M  V30 38 H -0.9657 -0.4148 -1.2518 0
M  V30 39 H 1.1548 -1.7142 0.1813 0
M  V30 40 H 1.6317 -0.8909 1.6512 0
M  V30 41 H -0.041 0.82 1.3803 0
M  V30 42 H -1.7381 2.2791 -0.0619 0
M  V30 43 H -2.4929 1.3847 -1.378 0
M  V30 44 H -3.9458 1.0961 0.5598 0
M  V30 45 H -0.5966 -0.1207 3.3877 0
M  V30 46 H 0.0677 -1.7168 3.0766 0
M  V30 47 H -0.417 -2.9571 1.0101 0
M  V30 48 H -1.5208 -2.3356 -0.2265 0
M  V30 49 H -2.1454 -2.9916 1.2791 0
M  V30 50 H -4.0193 -1.8863 1.9946 0
M  V30 51 H -4.6282 -0.2857 2.3 0
M  V30 52 H -2.0711 -2.7847 3.6309 0
M  V30 53 H -1.5687 -1.7292 4.9254 0
M  V30 54 H -3.0949 0.0483 4.1888 0
M  V30 55 H -5.0201 -1.1076 4.5463 0
M  V30 END ATOM
M  V30 BEGIN BOND
M  V30 1 2 1 2
M  V30 2 1 2 3
M  V30 3 1 2 4
M  V30 4 1 3 5
M  V30 5 1 3 6
M  V30 6 1 5 7
M  V30 7 1 5 8
M  V30 8 1 5 9
M  V30 9 1 6 10
M  V30 10 1 7 11
M  V30 11 1 8 12
M  V30 12 1 11 13
M  V30 13 1 11 14
M  V30 14 1 13 15
M  V30 15 1 14 16
M  V30 16 1 15 17
M  V30 17 1 15 18
M  V30 18 1 15 19
M  V30 19 1 17 20
M  V30 20 1 18 21
M  V30 21 1 20 22
M  V30 22 1 22 23
M  V30 23 1 7 10
M  V30 24 1 12 13
M  V30 25 2 16 17
M  V30 26 1 21 22
M  V30 27 1 3 24
M  V30 28 1 4 25
M  V30 29 1 4 26
M  V30 30 1 4 27
M  V30 31 1 6 28
M  V30 32 1 6 29
M  V30 33 1 7 30
M  V30 34 1 8 31
M  V30 35 1 8 32
M  V30 36 1 9 33
M  V30 37 1 9 34
M  V30 38 1 9 35
M  V30 39 1 10 36
M  V30 40 1 10 37
M  V30 41 1 11 38
M  V30 42 1 12 39
M  V30 43 1 12 40
M  V30 44 1 13 41
M  V30 45 1 14 42
M  V30 46 1 14 43
M  V30 47 1 16 44
M  V30 48 1 18 45
M  V30 49 1 18 46
M  V30 50 1 19 47
M  V30 51 1 19 48
M  V30 52 1 19 49
M  V30 53 1 20 50
M  V30 54 1 20 51
M  V30 55 1 21 52
M  V30 56 1 21 53
M  V30 57 1 22 54
M  V30 58 1 23 55
M  V30 END BOND
M  V30 BEGIN COLLECTION
M  V30 MDLV30/STEABS ATOMS=(7 3 5 7 11 13 15 22)
M  V30 END COLLECTION
M  V30 END CTAB
M  END
>  <Column 1>
2872

>  <level_0>
4720

>  <index>
4720

>  <Unnamed: 0>
4720

>  <NO.>
4732

>  <Name>
pregnenolone

>  <IUPAC_name>
1-[(3s-8s-9s-10r-13s-14s-17s)-3-hydroxy-10-13-dimethyl-2-3-4-7-8-9-11-12-14-15-16-17-dodecahydro-1h-cyclopenta[a]phenanthren-17-yl]ethanone

>  <SMILES>
CC(=O)[C@H]1CC[C@H]2[C@@H]3CC=C4C[C@@H](O)CC[C@]4(C)[C@H]3CC[C@]12C

>  <CID>
8955

>  <logBB>


>  <BBB+/BBB->
BBB+

>  <Inchi>
InChI=1S/C21H32O2/c1-13(22)17-6-7-18-16-5-4-14-12-15(23)8-10-20(14-2)19(16)9-11-21(17-18)3/h4-15-19-23H-5-12H2-1-3H3/t15--16--17+-18--19--20--21+/m0/s1

>  <threshold>


>  <reference>
R6|

>  <group>
C

>  <Class>
1

>  <ABC>
18.66

>  <ABCGG>
14.99

>  <nAcid>
0

>  <nBase>
0

>  <nAromAtom>
0

>  <nAromBond>
0

>  <nAtom>
55

>  <nHeavyAtom>
23

>  <nSpiro>
0

>  <nBridgehead>
0

>  <nHetero>
2

>  <nN>
0

>  <nO>
2

>  <nF>
0

>  <BalabanJ>
1.6

>  <BertzCT>
550.04

>  <nBonds>
58

>  <nBondsO>
26

>  <nBondsS>
56

>  <nBondsD>
2

>  <nBondsT>
0

>  <nBondsA>
0

>  <nBondsM>
2

>  <nBondsKS>
56

>  <nBondsKD>
2

>  <RNCG>
0.29

>  <RPCG>
0.15

>  <FCSP3>
0.86

>  <SZ>
29

>  <Sm>
26.35

>  <Sv>
31.1

>  <Sse>
53.87

>  <Sp>
34.74

>  <Si>
62.06

>  <MZ>
0.53

>  <Mm>
0.48

>  <Mv>
0.57

>  <Mse>
0.98

>  <Mp>
0.63

>  <Mi>
1.13

>  <NsCH3>
3

>  <NdCH2>
0

>  <NssCH2>
8

>  <NtCH>
0

>  <NdsCH>
1

>  <NaaCH>
0

>  <NsssCH>
5

>  <NddC>
0

>  <NtsC>
0

>  <NdssC>
2

>  <NaasC>
0

>  <NaaaC>
0

>  <NssssC>
2

>  <NsNH3>
0

>  <NsNH2>
0

>  <NssNH2>
0

>  <NdNH>
0

>  <NssNH>
0

>  <NaaNH>
0

>  <NtN>
0

>  <NsssNH>
0

>  <NdsN>
0

>  <NaaN>
0

>  <NsssN>
0

>  <NddsN>
0

>  <NaasN>
0

>  <NssssN>
0

>  <NsOH>
1

>  <NdO>
1

>  <NssO>
0

>  <NaaO>
0

>  <NsF>
0

>  <NsSiH3>
0

>  <NssSiH2>
0

>  <NsssSiH>
0

>  <NssssSi>
0

>  <NsPH2>
0

>  <NssPH>
0

>  <NsssP>
0

>  <NdsssP>
0

>  <NsssssP>
0

>  <NsSH>
0

>  <NdS>
0

>  <NssS>
0

>  <NaaS>
0

>  <NdssS>
0

>  <NddssS>
0

>  <NsCl>
0

>  <NsBr>
0

>  <NsI>
0

>  <fragCpx>
170.02

>  <fMF>
0.31

>  <nHBAcc>
2

>  <nHBDon>
1

>  <Kier1>
16.47

>  <Kier2>
5.5

>  <Lipinski>
1

>  <GhoseFilter>
1

>  <FilterItLogS>
-3.69

>  <VMcGowan>
266.45

>  <LabuteASA>
140.28

>  <PEOE_VSA1>
5.11

>  <PEOE_VSA2>
4.79

>  <PEOE_VSA3>
0

>  <PEOE_VSA4>
0

>  <PEOE_VSA5>
0

>  <PEOE_VSA6>
25.5

>  <PEOE_VSA7>
86.87

>  <PEOE_VSA8>
5.92

>  <PEOE_VSA9>
6.1

>  <PEOE_VSA10>
5.78

>  <PEOE_VSA11>
0

>  <PEOE_VSA12>
0

>  <PEOE_VSA13>
0

>  <SMR_VSA1>
9.9

>  <SMR_VSA2>
0

>  <SMR_VSA3>
0

>  <SMR_VSA4>
34.5

>  <SMR_VSA5>
78.24

>  <SMR_VSA6>
0

>  <SMR_VSA7>
11.65

>  <SMR_VSA8>
0

>  <SMR_VSA9>
0

>  <SlogP_VSA1>
0

>  <SlogP_VSA2>
16.99

>  <SlogP_VSA3>
4.79

>  <SlogP_VSA4>
34.5

>  <SlogP_VSA5>
72.14

>  <SlogP_VSA6>
11.65

>  <SlogP_VSA7>
0

>  <SlogP_VSA8>
0

>  <SlogP_VSA9>
0

>  <SlogP_VSA10>
0

>  <SlogP_VSA11>
0

>  <EState_VSA1>
0

>  <EState_VSA2>
11.52

>  <EState_VSA3>
17.12

>  <EState_VSA4>
43.44

>  <EState_VSA5>
25.68

>  <EState_VSA6>
5.57

>  <EState_VSA7>
6.92

>  <EState_VSA8>
19.92

>  <EState_VSA9>
0

>  <EState_VSA10>
9.9

>  <VSA_EState1>
0

>  <VSA_EState2>
12.15

>  <VSA_EState3>
10.07

>  <VSA_EState4>
2.11

>  <VSA_EState5>
3

>  <VSA_EState6>
0

>  <VSA_EState7>
11.46

>  <VSA_EState8>
6.7

>  <VSA_EState9>
0

>  <apol>
58.01

>  <bpol>
32.97

>  <nRing>
4

>  <nHRing>
0

>  <naRing>
0

>  <naHRing>
0

>  <nARing 2>
4

>  <nAHRing 2>
0

>  <nFRing>
1

>  <nFHRing>
0

>  <nFaRing>
0

>  <nFaHRing>
0

>  <nFARing 2>
1

>  <nFAHRing 2>
0

>  <nRot>
1

>  <SLogP>
4.52

>  <SMR>
91.88

>  <TopoPSA(NO)>
37.3

>  <TopoPSA>
37.3

>  <JGI1>
0.27

>  <JGI2>
0.13

>  <JGI3>
0.07

>  <JGI4>
0.06

>  <JGI5>
0.03

>  <Diameter>
11

>  <Radius>
6

>  <TMWC10>
127.44

>  <TSRW10>
73.11

>  <MW>
316.24

>  <AMW>
5.75

>  <WPath>
1052

>  <WPol>
48

>  <Zagreb1>
136

>  <Zagreb2>
172

>  <mZagreb2>
4.75

>  <yes>


>  <nAR-cont>
0.199399

>  <nHA-cont>
0.967789328

>  <MWHBN>
0.168699134

>  <MWHBN-cont>
0.971889507

>  <TPSA-cont>
0.739622838

>  <pka_cont>
0.97

>  <yes.1>


>  <BBB_SCORE>
4.589268265

>  <MMFF94 Energy>
85.055

$$$$
Compound 2352
Actelion Java MolfileCreator 2.0

  0  0  0  0  0  0              0 V3000
M  V30 BEGIN CTAB
M  V30 COUNTS 70 73 0 0 0
M  V30 BEGIN ATOM
M  V30 1 S 0.4849 3.5607 -4.8579 0
M  V30 2 C -0.1644 2.417 -3.6155 0
M  V30 3 C -0.3762 3.0959 -2.2714 0
M  V30 4 O -1.0187 4.146 -2.1795 0
M  V30 5 C 0.1201 2.3297 -1.0114 0 CFG=2
M  V30 6 O 1.4417 1.763 -1.1891 0
M  V30 7 C -0.8535 1.148 -0.6268 0 CFG=2
M  V30 8 C 0.1084 3.1993 0.2885 0
M  V30 9 C 2.4786 2.5945 -1.4939 0
M  V30 10 C -0.4063 0.8976 0.8324 0 CFG=1
M  V30 11 C -0.6501 -0.1786 -1.3958 0
M  V30 12 C -2.3318 1.6168 -0.7328 0
M  V30 13 C -0.3773 2.2942 1.4374 0
M  V30 14 O 2.3607 3.7959 -1.6761 0
M  V30 15 C 3.7885 1.8125 -1.6005 0
M  V30 16 C -1.2095 -0.1953 1.5547 0 CFG=1
M  V30 17 C -1.3597 -1.3851 -0.7428 0 CFG=1
M  V30 18 C 4.95 2.7904 -1.8357 0
M  V30 19 C 4.0397 1.0434 -0.2961 0
M  V30 20 C 3.6975 0.8424 -2.7852 0
M  V30 21 C -1.0463 -1.5387 0.7752 0 CFG=2
M  V30 22 C -0.7138 -0.3547 3.0017 0
M  V30 23 O -2.7564 -1.2824 -0.9717 0
M  V30 24 C -1.7547 -2.7575 1.4945 0 CFG=2
M  V30 25 C -1.4261 -1.4879 3.7248 0
M  V30 26 C -1.3202 -2.7895 2.9681 0
M  V30 27 C -1.3067 -4.0677 0.7803 0
M  V30 28 C -3.2981 -2.6802 1.4764 0
M  V30 29 C -0.9003 -3.899 3.602 0
M  V30 30 C -1.5729 -5.3284 1.5897 0
M  V30 31 C -0.9185 -5.2244 2.9418 0
M  V30 32 O -0.4697 -6.2026 3.5337 0
M  V30 33 H 0.4021 2.7247 -5.9019 0
M  V30 34 H -1.1245 2.0124 -3.9491 0
M  V30 35 H 0.538 1.586 -3.5269 0
M  V30 36 H 1.1024 3.5836 0.5388 0
M  V30 37 H -0.5588 4.0645 0.2149 0
M  V30 38 H 0.6392 0.5485 0.823 0
M  V30 39 H -1.0056 -0.063 -2.4262 0
M  V30 40 H 0.4178 -0.4207 -1.4545 0
M  V30 41 H -3.0287 0.97 -0.1967 0
M  V30 42 H -2.4838 2.6227 -0.3281 0
M  V30 43 H -2.6567 1.6394 -1.7792 0
M  V30 44 H -1.3712 2.6067 1.7774 0
M  V30 45 H 0.2985 2.3545 2.2968 0
M  V30 46 H -2.2668 0.086 1.5943 0
M  V30 47 H -1.0223 -2.2862 -1.2672 0
M  V30 48 H 5.0325 3.5129 -1.0151 0
M  V30 49 H 5.9062 2.2611 -1.9138 0
M  V30 50 H 4.8082 3.3617 -2.7605 0
M  V30 51 H 4.0334 1.7196 0.5666 0
M  V30 52 H 3.2693 0.2843 -0.1188 0
M  V30 53 H 5.0078 0.5308 -0.3182 0
M  V30 54 H 3.4735 1.3769 -3.7158 0
M  V30 55 H 2.9033 0.1014 -2.639 0
M  V30 56 H 4.6378 0.2979 -2.9252 0
M  V30 57 H 0.0341 -1.7591 0.8127 0
M  V30 58 H -0.8793 0.574 3.5605 0
M  V30 59 H 0.3683 -0.54 3.0099 0
M  V30 60 H -2.9133 -1.3384 -1.9302 0
M  V30 61 H -1.0075 -1.5803 4.7346 0
M  V30 62 H -2.4854 -1.2336 3.8541 0
M  V30 63 H -1.803 -4.1656 -0.1927 0
M  V30 64 H -0.228 -4.0213 0.5744 0
M  V30 65 H -3.7096 -2.9414 0.4966 0
M  V30 66 H -3.7442 -3.3827 2.1913 0
M  V30 67 H -3.6669 -1.6839 1.7393 0
M  V30 68 H -0.5882 -3.903 4.6407 0
M  V30 69 H -2.6442 -5.5056 1.728 0
M  V30 70 H -1.1487 -6.1904 1.0631 0
M  V30 END ATOM
M  V30 BEGIN BOND
M  V30 1 1 1 2
M  V30 2 1 2 3
M  V30 3 2 3 4
M  V30 4 1 3 5
M  V30 5 1 5 6
M  V30 6 1 5 7
M  V30 7 1 5 8
M  V30 8 1 6 9
M  V30 9 1 7 10
M  V30 10 1 7 11
M  V30 11 1 7 12
M  V30 12 1 8 13
M  V30 13 2 9 14
M  V30 14 1 9 15
M  V30 15 1 10 16
M  V30 16 1 11 17
M  V30 17 1 15 18
M  V30 18 1 15 19
M  V30 19 1 15 20
M  V30 20 1 16 21
M  V30 21 1 16 22
M  V30 22 1 17 23
M  V30 23 1 21 24
M  V30 24 1 22 25
M  V30 25 1 24 26
M  V30 26 1 24 27
M  V30 27 1 24 28
M  V30 28 2 26 29
M  V30 29 1 27 30
M  V30 30 1 29 31
M  V30 31 2 31 32
M  V30 32 1 10 13
M  V30 33 1 17 21
M  V30 34 1 25 26
M  V30 35 1 30 31
M  V30 36 1 1 33
M  V30 37 1 2 34
M  V30 38 1 2 35
M  V30 39 1 8 36
M  V30 40 1 8 37
M  V30 41 1 10 38
M  V30 42 1 11 39
M  V30 43 1 11 40
M  V30 44 1 12 41
M  V30 45 1 12 42
M  V30 46 1 12 43
M  V30 47 1 13 44
M  V30 48 1 13 45
M  V30 49 1 16 46
M  V30 50 1 17 47
M  V30 51 1 18 48
M  V30 52 1 18 49
M  V30 53 1 18 50
M  V30 54 1 19 51
M  V30 55 1 19 52
M  V30 56 1 19 53
M  V30 57 1 20 54
M  V30 58 1 20 55
M  V30 59 1 20 56
M  V30 60 1 21 57
M  V30 61 1 22 58
M  V30 62 1 22 59
M  V30 63 1 23 60
M  V30 64 1 25 61
M  V30 65 1 25 62
M  V30 66 1 27 63
M  V30 67 1 27 64
M  V30 68 1 28 65
M  V30 69 1 28 66
M  V30 70 1 28 67
M  V30 71 1 29 68
M  V30 72 1 30 69
M  V30 73 1 30 70
M  V30 END BOND
M  V30 BEGIN COLLECTION
M  V30 MDLV30/STEABS ATOMS=(7 5 7 10 16 17 21 24)
M  V30 END COLLECTION
M  V30 END CTAB
M  END
>  <Column 1>
2873

>  <level_0>
4726

>  <index>
4726

>  <Unnamed: 0>
4726

>  <NO.>
4738

>  <Name>
tixocortol-pivalate

>  <IUPAC_name>
[(8s-9s-10r-11s-13s-14s-17r)-11-hydroxy-10-13-dimethyl-3-oxo-17-(2-sulfanylacetyl)-2-6-7-8-9-11-12-14-15-16-decahydro-1h-cyclopenta[a]phenanthren-17-yl] 2-2-dimethylpropanoate

>  <SMILES>
CC(C)(C)C(=O)O[C@]1(C(=O)CS)CC[C@H]2[C@@H]3CCC4=CC(=O)CC[C@]4(C)[C@H]3[C@@H](O)C[C@@]21C

>  <CID>
9804413

>  <logBB>


>  <BBB+/BBB->
BBB+

>  <Inchi>
InChI=1S/C26H38O5S/c1-23(2-3)22(30)31-26(20(29)14-32)11-9-18-17-7-6-15-12-16(27)8-10-24(15-4)21(17)19(28)13-25(18-26)5/h12-17-19-21-28-32H-6-11-13-14H2-1-5H3/t17--18--19--21+-24--25--26-/m0/s1

>  <threshold>


>  <reference>
R6|

>  <group>
C

>  <Class>
-1

>  <ABC>
25.46

>  <ABCGG>
21.17

>  <nAcid>
0

>  <nBase>
0

>  <nAromAtom>
0

>  <nAromBond>
0

>  <nAtom>
70

>  <nHeavyAtom>
32

>  <nSpiro>
0

>  <nBridgehead>
0

>  <nHetero>
6

>  <nN>
0

>  <nO>
5

>  <nF>
0

>  <BalabanJ>
1.7

>  <BertzCT>
871.93

>  <nBonds>
73

>  <nBondsO>
35

>  <nBondsS>
69

>  <nBondsD>
4

>  <nBondsT>
0

>  <nBondsA>
0

>  <nBondsM>
4

>  <nBondsKS>
69

>  <nBondsKD>
4

>  <RNCG>
0.18

>  <RPCG>
0.13

>  <FCSP3>
0.81

>  <SZ>
41.67

>  <Sm>
38.52

>  <Sv>
41.06

>  <Sse>
69.6

>  <Sp>
45.31

>  <Si>
78.86

>  <MZ>
0.6

>  <Mm>
0.55

>  <Mv>
0.59

>  <Mse>
0.99

>  <Mp>
0.65

>  <Mi>
1.13

>  <NsCH3>
5

>  <NdCH2>
0

>  <NssCH2>
8

>  <NtCH>
0

>  <NdsCH>
1

>  <NaaCH>
0

>  <NsssCH>
4

>  <NddC>
0

>  <NtsC>
0

>  <NdssC>
4

>  <NaasC>
0

>  <NaaaC>
0

>  <NssssC>
4

>  <NsNH3>
0

>  <NsNH2>
0

>  <NssNH2>
0

>  <NdNH>
0

>  <NssNH>
0

>  <NaaNH>
0

>  <NtN>
0

>  <NsssNH>
0

>  <NdsN>
0

>  <NaaN>
0

>  <NsssN>
0

>  <NddsN>
0

>  <NaasN>
0

>  <NssssN>
0

>  <NsOH>
1

>  <NdO>
3

>  <NssO>
1

>  <NaaO>
0

>  <NsF>
0

>  <NsSiH3>
0

>  <NssSiH2>
0

>  <NsssSiH>
0

>  <NssssSi>
0

>  <NsPH2>
0

>  <NssPH>
0

>  <NsssP>
0

>  <NdsssP>
0

>  <NsssssP>
0

>  <NsSH>
1

>  <NdS>
0

>  <NssS>
0

>  <NaaS>
0

>  <NdssS>
0

>  <NddssS>
0

>  <NsCl>
0

>  <NsBr>
0

>  <NsI>
0

>  <fragCpx>
233.06

>  <fMF>
0.24

>  <nHBAcc>
6

>  <nHBDon>
2

>  <Kier1>
25.1

>  <Kier2>
8.29

>  <Lipinski>
1

>  <GhoseFilter>
1

>  <FilterItLogS>
-4.7

>  <VMcGowan>
362.26

>  <LabuteASA>
196.7

>  <PEOE_VSA1>
9.84

>  <PEOE_VSA2>
14.38

>  <PEOE_VSA3>
0

>  <PEOE_VSA4>
12.63

>  <PEOE_VSA5>
0

>  <PEOE_VSA6>
19.42

>  <PEOE_VSA7>
88.54

>  <PEOE_VSA8>
11.84

>  <PEOE_VSA9>
17.27

>  <PEOE_VSA10>
0

>  <PEOE_VSA11>
17.17

>  <PEOE_VSA12>
0

>  <PEOE_VSA13>
0

>  <SMR_VSA1>
24.23

>  <SMR_VSA2>
0

>  <SMR_VSA3>
0

>  <SMR_VSA4>
34

>  <SMR_VSA5>
91.27

>  <SMR_VSA6>
5.75

>  <SMR_VSA7>
11.65

>  <SMR_VSA8>
0

>  <SMR_VSA9>
0

>  <SlogP_VSA1>
0

>  <SlogP_VSA2>
40.1

>  <SlogP_VSA3>
19.12

>  <SlogP_VSA4>
34

>  <SlogP_VSA5>
79.56

>  <SlogP_VSA6>
11.65

>  <SlogP_VSA7>
0

>  <SlogP_VSA8>
0

>  <SlogP_VSA9>
0

>  <SlogP_VSA10>
0

>  <SlogP_VSA11>
0

>  <EState_VSA1>
22.54

>  <EState_VSA2>
46.46

>  <EState_VSA3>
19.26

>  <EState_VSA4>
25.68

>  <EState_VSA5>
5.57

>  <EState_VSA6>
20.77

>  <EState_VSA7>
6.08

>  <EState_VSA8>
26.48

>  <EState_VSA9>
4.74

>  <EState_VSA10>
19.49

>  <VSA_EState1>
6.16

>  <VSA_EState2>
38.45

>  <VSA_EState3>
11.58

>  <VSA_EState4>
-1.59

>  <VSA_EState5>
0.16

>  <VSA_EState6>
0

>  <VSA_EState7>
6

>  <VSA_EState8>
9.67

>  <VSA_EState9>
0

>  <apol>
75.67

>  <bpol>
44.92

>  <nRing>
4

>  <nHRing>
0

>  <naRing>
0

>  <naHRing>
0

>  <nARing 2>
4

>  <nAHRing 2>
0

>  <nFRing>
1

>  <nFHRing>
0

>  <nFaRing>
0

>  <nFaHRing>
0

>  <nFARing 2>
1

>  <nFAHRing 2>
0

>  <nRot>
3

>  <SLogP>
4.32

>  <SMR>
125.24

>  <TopoPSA(NO)>
80.67

>  <TopoPSA>
119.47

>  <JGI1>
0.33

>  <JGI2>
0.14

>  <JGI3>
0.07

>  <JGI4>
0.06

>  <JGI5>
0.04

>  <Diameter>
13

>  <Radius>
7

>  <TMWC10>
148.68

>  <TSRW10>
84.05

>  <MW>
462.24

>  <AMW>
6.6

>  <WPath>
2537

>  <WPol>
70

>  <Zagreb1>
186

>  <Zagreb2>
235

>  <mZagreb2>
6.65

>  <yes>


>  <nAR-cont>
0.199399

>  <nHA-cont>
0.658856097

>  <MWHBN>
0.372097048

>  <MWHBN-cont>
0.585708533

>  <TPSA-cont>
0.166025214

>  <pka_cont>
0.97

>  <yes.1>


>  <BBB_SCORE>
2.553868323

>  <MMFF94 Energy>
116.77

$$$$
Compound 2353
Actelion Java MolfileCreator 2.0

  0  0  0  0  0  0              0 V3000
M  V30 BEGIN CTAB
M  V30 COUNTS 57 60 0 0 0
M  V30 BEGIN ATOM
M  V30 1 F 0.7275 -1.5364 -1.4555 0
M  V30 2 C 0.151 -1.5666 -0.1933 0 CFG=2
M  V30 3 C 0.1741 -3.0828 0.2654 0 CFG=2
M  V30 4 C -1.2651 -0.9433 -0.3937 0 CFG=1
M  V30 5 C 1.0619 -0.6691 0.7078 0 CFG=2
M  V30 6 C 1.6474 -3.5256 0.3439 0
M  V30 7 C -0.6041 -3.9604 -0.7151 0
M  V30 8 C -0.4645 -3.3286 1.6522 0
M  V30 9 O -2.0974 -1.0952 0.7516 0
M  V30 10 C -1.2252 0.5494 -0.7981 0
M  V30 11 C 1.056 0.7643 0.1536 0 CFG=1
M  V30 12 C 2.4988 -1.2212 0.7645 0
M  V30 13 C 2.1526 -4.5655 -0.3433 0
M  V30 14 C 2.5429 -2.6785 1.211 0
M  V30 15 C -0.0954 -4.9945 -1.398 0
M  V30 16 C -0.3478 1.4189 0.1312 0 CFG=1
M  V30 17 C 1.9264 1.8084 0.8389 0
M  V30 18 C 1.3198 -5.3807 -1.2502 0
M  V30 19 C 0.0287 2.845 -0.3948 0 CFG=1
M  V30 20 C -0.991 1.5382 1.5386 0
M  V30 21 C 1.3742 3.1524 0.3312 0
M  V30 22 O 1.7846 -6.339 -1.8542 0
M  V30 23 O 0.2953 2.7813 -1.8029 0
M  V30 24 C -1.0423 3.939 -0.1336 0
M  V30 25 O -0.9296 4.7396 0.7984 0
M  V30 26 C -2.288 3.9318 -1.0466 0
M  V30 27 O -1.9801 3.9411 -2.4331 0
M  V30 28 C -3.178 5.1382 -0.7758 0
M  V30 29 H -1.7623 -1.4721 -1.2153 0
M  V30 30 H 0.6757 -0.6632 1.732 0
M  V30 31 H -1.6615 -3.7418 -0.8467 0
M  V30 32 H -0.1271 -2.6109 2.4058 0
M  V30 33 H -0.2151 -4.3292 2.0299 0
M  V30 34 H -1.5583 -3.2817 1.6222 0
M  V30 35 H -2.995 -0.8055 0.5085 0
M  V30 36 H -0.8483 0.6028 -1.8267 0
M  V30 37 H -2.2475 0.9404 -0.8163 0
M  V30 38 H 1.4267 0.6972 -0.8821 0
M  V30 39 H 3.102 -0.6263 1.4605 0
M  V30 40 H 2.9733 -1.1285 -0.2213 0
M  V30 41 H 3.1955 -4.856 -0.2887 0
M  V30 42 H 3.5816 -3.0289 1.1737 0
M  V30 43 H 2.2305 -2.7608 2.2585 0
M  V30 44 H -0.6901 -5.5966 -2.074 0
M  V30 45 H 2.9848 1.6965 0.5821 0
M  V30 46 H 1.8431 1.7469 1.9299 0
M  V30 47 H -1.014 0.5935 2.0845 0
M  V30 48 H -2.0266 1.8887 1.4605 0
M  V30 49 H -0.4606 2.2479 2.1821 0
M  V30 50 H 2.0991 3.6155 -0.348 0
M  V30 51 H 1.2598 3.8263 1.1866 0
M  V30 52 H 0.7989 3.5832 -2.0453 0
M  V30 53 H -2.864 3.0295 -0.8274 0
M  V30 54 H -1.357 3.2038 -2.5983 0
M  V30 55 H -4.0616 5.1179 -1.4229 0
M  V30 56 H -2.6468 6.0719 -0.9928 0
M  V30 57 H -3.5101 5.1665 0.2668 0
M  V30 END ATOM
M  V30 BEGIN BOND
M  V30 1 1 1 2
M  V30 2 1 2 3
M  V30 3 1 2 4
M  V30 4 1 2 5
M  V30 5 1 3 6
M  V30 6 1 3 7
M  V30 7 1 3 8
M  V30 8 1 4 9
M  V30 9 1 4 10
M  V30 10 1 5 11
M  V30 11 1 5 12
M  V30 12 2 6 13
M  V30 13 1 6 14
M  V30 14 2 7 15
M  V30 15 1 10 16
M  V30 16 1 11 17
M  V30 17 1 13 18
M  V30 18 1 16 19
M  V30 19 1 16 20
M  V30 20 1 17 21
M  V30 21 2 18 22
M  V30 22 1 19 23
M  V30 23 1 19 24
M  V30 24 2 24 25
M  V30 25 1 24 26
M  V30 26 1 26 27
M  V30 27 1 26 28
M  V30 28 1 11 16
M  V30 29 1 12 14
M  V30 30 1 15 18
M  V30 31 1 19 21
M  V30 32 1 4 29
M  V30 33 1 5 30
M  V30 34 1 7 31
M  V30 35 1 8 32
M  V30 36 1 8 33
M  V30 37 1 8 34
M  V30 38 1 9 35
M  V30 39 1 10 36
M  V30 40 1 10 37
M  V30 41 1 11 38
M  V30 42 1 12 39
M  V30 43 1 12 40
M  V30 44 1 13 41
M  V30 45 1 14 42
M  V30 46 1 14 43
M  V30 47 1 15 44
M  V30 48 1 17 45
M  V30 49 1 17 46
M  V30 50 1 20 47
M  V30 51 1 20 48
M  V30 52 1 20 49
M  V30 53 1 21 50
M  V30 54 1 21 51
M  V30 55 1 23 52
M  V30 56 1 26 53
M  V30 57 1 27 54
M  V30 58 1 28 55
M  V30 59 1 28 56
M  V30 60 1 28 57
M  V30 END BOND
M  V30 BEGIN COLLECTION
M  V30 MDLV30/STEABS ATOMS=(7 2 3 4 5 11 16 19)
M  V30 END COLLECTION
M  V30 END CTAB
M  END
>  <Column 1>
2876

>  <level_0>
4737

>  <index>
4737

>  <Unnamed: 0>
4737

>  <NO.>
4749

>  <Name>
fluperolone

>  <IUPAC_name>
(8s-9r-10s-11s-13s-14s-17r)-9-fluoro-11-17-dihydroxy-17-(2-hydroxypropanoyl)-10-13-dimethyl-6-7-8-11-12-14-15-16-octahydrocyclopenta[a]phenanthren-3-one

>  <SMILES>
CC(O)C(=O)[C@@]1(O)CC[C@H]2[C@@H]3CCC4=CC(=O)C=C[C@]4(C)[C@@]3(F)[C@@H](O)C[C@@]21C

>  <CID>
10430619

>  <logBB>


>  <BBB+/BBB->
BBB+

>  <Inchi>
InChI=1S/C22H29FO5/c1-12(24)18(27)21(28)9-7-15-16-5-4-13-10-14(25)6-8-19(13-2)22(16-23)17(26)11-20(15-21)3/h6-8-10-12-15-17-24-26-28H-4-5-7-9-11H2-1-3H3/t12?-15--16--17--19--20--21--22-/m0/s1

>  <threshold>


>  <reference>
R6|

>  <group>
C

>  <Class>
-1

>  <ABC>
22.52

>  <ABCGG>
18.9

>  <nAcid>
0

>  <nBase>
0

>  <nAromAtom>
0

>  <nAromBond>
0

>  <nAtom>
57

>  <nHeavyAtom>
28

>  <nSpiro>
0

>  <nBridgehead>
0

>  <nHetero>
6

>  <nN>
0

>  <nO>
5

>  <nF>
1

>  <BalabanJ>
1.73

>  <BertzCT>
802.75

>  <nBonds>
60

>  <nBondsO>
31

>  <nBondsS>
56

>  <nBondsD>
4

>  <nBondsT>
0

>  <nBondsA>
0

>  <nBondsM>
4

>  <nBondsKS>
56

>  <nBondsKD>
4

>  <RNCG>
0.16

>  <RPCG>
0.09

>  <FCSP3>
0.73

>  <SZ>
35

>  <Sm>
32.68

>  <Sv>
34.08

>  <Sse>
57.48

>  <Sp>
36.31

>  <Si>
64.62

>  <MZ>
0.61

>  <Mm>
0.57

>  <Mv>
0.6

>  <Mse>
1.01

>  <Mp>
0.64

>  <Mi>
1.13

>  <NsCH3>
3

>  <NdCH2>
0

>  <NssCH2>
5

>  <NtCH>
0

>  <NdsCH>
3

>  <NaaCH>
0

>  <NsssCH>
4

>  <NddC>
0

>  <NtsC>
0

>  <NdssC>
3

>  <NaasC>
0

>  <NaaaC>
0

>  <NssssC>
4

>  <NsNH3>
0

>  <NsNH2>
0

>  <NssNH2>
0

>  <NdNH>
0

>  <NssNH>
0

>  <NaaNH>
0

>  <NtN>
0

>  <NsssNH>
0

>  <NdsN>
0

>  <NaaN>
0

>  <NsssN>
0

>  <NddsN>
0

>  <NaasN>
0

>  <NssssN>
0

>  <NsOH>
3

>  <NdO>
2

>  <NssO>
0

>  <NaaO>
0

>  <NsF>
1

>  <NsSiH3>
0

>  <NssSiH2>
0

>  <NsssSiH>
0

>  <NssssSi>
0

>  <NsPH2>
0

>  <NssPH>
0

>  <NsssP>
0

>  <NdsssP>
0

>  <NsssssP>
0

>  <NsSH>
0

>  <NdS>
0

>  <NssS>
0

>  <NaaS>
0

>  <NdssS>
0

>  <NddssS>
0

>  <NsCl>
0

>  <NsBr>
0

>  <NsI>
0

>  <fragCpx>
205.06

>  <fMF>
0.3

>  <nHBAcc>
5

>  <nHBDon>
3

>  <Kier1>
21.24

>  <Kier2>
6.5

>  <Lipinski>
1

>  <GhoseFilter>
1

>  <FilterItLogS>
-2.67

>  <VMcGowan>
291.31

>  <LabuteASA>
163.87

>  <PEOE_VSA1>
15.32

>  <PEOE_VSA2>
9.59

>  <PEOE_VSA3>
4.39

>  <PEOE_VSA4>
0

>  <PEOE_VSA5>
0

>  <PEOE_VSA6>
18.57

>  <PEOE_VSA7>
64.02

>  <PEOE_VSA8>
16.75

>  <PEOE_VSA9>
6.1

>  <PEOE_VSA10>
11.71

>  <PEOE_VSA11>
17.24

>  <PEOE_VSA12>
0

>  <PEOE_VSA13>
0

>  <SMR_VSA1>
29.3

>  <SMR_VSA2>
0

>  <SMR_VSA3>
0

>  <SMR_VSA4>
22.67

>  <SMR_VSA5>
76.35

>  <SMR_VSA6>
0

>  <SMR_VSA7>
23.8

>  <SMR_VSA8>
0

>  <SMR_VSA9>
0

>  <SlogP_VSA1>
0

>  <SlogP_VSA2>
50.36

>  <SlogP_VSA3>
9.59

>  <SlogP_VSA4>
22.67

>  <SlogP_VSA5>
52.88

>  <SlogP_VSA6>
23.8

>  <SlogP_VSA7>
0

>  <SlogP_VSA8>
0

>  <SlogP_VSA9>
0

>  <SlogP_VSA10>
4.39

>  <SlogP_VSA11>
0

>  <EState_VSA1>
46.01

>  <EState_VSA2>
24.54

>  <EState_VSA3>
24.84

>  <EState_VSA4>
0

>  <EState_VSA5>
19.08

>  <EState_VSA6>
19.92

>  <EState_VSA7>
0

>  <EState_VSA8>
0

>  <EState_VSA9>
0

>  <EState_VSA10>
24.91

>  <VSA_EState1>
16.81

>  <VSA_EState2>
24.49

>  <VSA_EState3>
32.21

>  <VSA_EState4>
-5.14

>  <VSA_EState5>
-1.65

>  <VSA_EState6>
0

>  <VSA_EState7>
3.29

>  <VSA_EState8>
4.82

>  <VSA_EState9>
0

>  <apol>
60.64

>  <bpol>
31.94

>  <nRing>
4

>  <nHRing>
0

>  <naRing>
0

>  <naHRing>
0

>  <nARing 2>
4

>  <nAHRing 2>
0

>  <nFRing>
1

>  <nFHRing>
0

>  <nFaRing>
0

>  <nFaHRing>
0

>  <nFARing 2>
1

>  <nFAHRing 2>
0

>  <nRot>
2

>  <SLogP>
2.04

>  <SMR>
99.99

>  <TopoPSA(NO)>
94.83

>  <TopoPSA>
94.83

>  <JGI1>
0.32

>  <JGI2>
0.16

>  <JGI3>
0.08

>  <JGI4>
0.06

>  <JGI5>
0.04

>  <Diameter>
12

>  <Radius>
6

>  <TMWC10>
140.47

>  <TSRW10>
79.78

>  <MW>
392.2

>  <AMW>
6.88

>  <WPath>
1703

>  <WPol>
68

>  <Zagreb1>
168

>  <Zagreb2>
219

>  <mZagreb2>
5.72

>  <yes>


>  <nAR-cont>
0.199399

>  <nHA-cont>
0.82432561

>  <MWHBN>
0.40395798

>  <MWHBN-cont>
0.460497769

>  <TPSA-cont>
0.338027714

>  <pka_cont>
0.97

>  <yes.1>


>  <BBB_SCORE>
2.875526691

>  <MMFF94 Energy>
173.3

$$$$
Compound 2354
Actelion Java MolfileCreator 2.0

  0  0  0  0  0  0              0 V3000
M  V30 BEGIN CTAB
M  V30 COUNTS 43 45 0 0 0
M  V30 BEGIN ATOM
M  V30 1 S -2.372 -1.39 1.7991 0
M  V30 2 C -3.5442 -1.312 0.3444 0
M  V30 3 C -1.0401 -0.4063 0.9731 0
M  V30 4 C -2.988 -0.179 -0.536 0
M  V30 5 C -3.5612 -2.6933 -0.3211 0
M  V30 6 C -4.942 -0.9776 0.8768 0
M  V30 7 N -1.5401 -0.1972 -0.3935 0
M  V30 8 C 0.1126 -1.2491 0.3715 0
M  V30 9 C -3.5597 -0.1308 -1.951 0
M  V30 10 C -0.6606 -1.0681 -0.9592 0
M  V30 11 N 1.472 -0.6367 0.375 0
M  V30 12 O -3.2364 -0.7895 -2.9225 0
M  V30 13 O -4.5879 0.7417 -2.0575 0
M  V30 14 O -0.569 -1.5299 -2.0707 0
M  V30 15 C 2.094 -0.2481 1.5443 0
M  V30 16 O 1.5436 -0.4023 2.6342 0
M  V30 17 C 3.5346 0.305 1.388 0
M  V30 18 N 3.9513 0.9606 2.6461 0
M  V30 19 C 3.6589 1.2747 0.2231 0
M  V30 20 N 4.2598 0.191 3.5731 0 CHG=1
M  V30 21 C 4.4201 0.9361 -0.9065 0
M  V30 22 C 2.9958 2.5125 0.2474 0
M  V30 23 N 4.5669 -0.5166 4.4117 0 CHG=-1
M  V30 24 C 4.5047 1.8116 -1.9904 0
M  V30 25 C 3.0835 3.3852 -0.8375 0
M  V30 26 C 3.8351 3.0333 -1.9565 0
M  V30 27 H -0.7762 0.5301 1.4725 0
M  V30 28 H -3.2606 0.7879 -0.085 0
M  V30 29 H -3.8931 -3.4696 0.379 0
M  V30 30 H -4.2591 -2.713 -1.1657 0
M  V30 31 H -2.5797 -2.9921 -0.701 0
M  V30 32 H -5.6663 -0.9176 0.0566 0
M  V30 33 H -5.304 -1.7438 1.5726 0
M  V30 34 H -4.9607 -0.0142 1.3997 0
M  V30 35 H 0.1607 -2.2948 0.6957 0
M  V30 36 H 1.934 -0.46 -0.5131 0
M  V30 37 H -4.8484 0.6749 -3.0021 0
M  V30 38 H 4.1816 -0.5633 1.1988 0
M  V30 39 H 4.9568 -0.0092 -0.9542 0
M  V30 40 H 2.4111 2.8062 1.1182 0
M  V30 41 H 5.0969 1.5433 -2.8621 0
M  V30 42 H 2.5691 4.3427 -0.8076 0
M  V30 43 H 3.9048 3.7153 -2.8004 0
M  V30 END ATOM
M  V30 BEGIN BOND
M  V30 1 1 1 2
M  V30 2 1 1 3
M  V30 3 1 2 4
M  V30 4 1 2 5
M  V30 5 1 2 6
M  V30 6 1 3 7
M  V30 7 1 3 8
M  V30 8 1 4 9
M  V30 9 1 7 10
M  V30 10 1 8 11
M  V30 11 2 9 12
M  V30 12 1 9 13
M  V30 13 2 10 14
M  V30 14 1 11 15
M  V30 15 2 15 16
M  V30 16 1 15 17
M  V30 17 1 17 18
M  V30 18 1 17 19
M  V30 19 2 18 20
M  V30 20 2 19 21
M  V30 21 1 19 22
M  V30 22 2 20 23
M  V30 23 1 21 24
M  V30 24 2 22 25
M  V30 25 2 24 26
M  V30 26 1 4 7
M  V30 27 1 8 10
M  V30 28 1 25 26
M  V30 29 1 3 27
M  V30 30 1 4 28
M  V30 31 1 5 29
M  V30 32 1 5 30
M  V30 33 1 5 31
M  V30 34 1 6 32
M  V30 35 1 6 33
M  V30 36 1 6 34
M  V30 37 1 8 35
M  V30 38 1 11 36
M  V30 39 1 13 37
M  V30 40 1 17 38
M  V30 41 1 21 39
M  V30 42 1 22 40
M  V30 43 1 24 41
M  V30 44 1 25 42
M  V30 45 1 26 43
M  V30 END BOND
M  V30 END CTAB
M  END
>  <Column 1>
2877

>  <level_0>
4749

>  <index>
4749

>  <Unnamed: 0>
4749

>  <NO.>
4761

>  <Name>
ft-0770806

>  <IUPAC_name>
6-[(2-azido-2-phenylacetyl)amino]-3-3-dimethyl-7-oxo-4-thia-1-azabicyclo[3.2.0]heptane-2-carboxylic acid

>  <SMILES>
CC1(C)SC2C(NC(=O)C(N=[N+]=[N-])c3ccccc3)C(=O)N2C1C(=O)O

>  <CID>
71886

>  <logBB>


>  <BBB+/BBB->
BBB-

>  <Inchi>
InChI=1S/C16H17N5O4S/c1-16(2)11(15(24)25)21-13(23)10(14(21)26-16)18-12(22)9(19-20-17)8-6-4-3-5-7-8/h3-7-9-11-14H-1-2H3-(H-18-22)(H-24-25)

>  <threshold>


>  <reference>
R6|R23|

>  <group>
C

>  <Class>
-1

>  <ABC>
20.17

>  <ABCGG>
17.47

>  <nAcid>
1

>  <nBase>
0

>  <nAromAtom>
6

>  <nAromBond>
6

>  <nAtom>
43

>  <nHeavyAtom>
26

>  <nSpiro>
0

>  <nBridgehead>
0

>  <nHetero>
10

>  <nN>
5

>  <nO>
4

>  <nF>
0

>  <BalabanJ>
1.65

>  <BertzCT>
808.12

>  <nBonds>
45

>  <nBondsO>
28

>  <nBondsS>
34

>  <nBondsD>
5

>  <nBondsT>
0

>  <nBondsA>
6

>  <nBondsM>
11

>  <nBondsKS>
37

>  <nBondsKD>
8

>  <RNCG>
0.19

>  <RPCG>
0.13

>  <FCSP3>
0.44

>  <SZ>
32.67

>  <Sm>
31.25

>  <Sv>
28.44

>  <Sse>
44.26

>  <Sp>
29.74

>  <Si>
48.74

>  <MZ>
0.76

>  <Mm>
0.73

>  <Mv>
0.66

>  <Mse>
1.03

>  <Mp>
0.69

>  <Mi>
1.13

>  <NsCH3>
2

>  <NdCH2>
0

>  <NssCH2>
0

>  <NtCH>
0

>  <NdsCH>
0

>  <NaaCH>
5

>  <NsssCH>
4

>  <NddC>
0

>  <NtsC>
0

>  <NdssC>
3

>  <NaasC>
1

>  <NaaaC>
0

>  <NssssC>
1

>  <NsNH3>
0

>  <NsNH2>
0

>  <NssNH2>
0

>  <NdNH>
0

>  <NssNH>
1

>  <NaaNH>
0

>  <NtN>
0

>  <NsssNH>
0

>  <NdsN>
1

>  <NaaN>
0

>  <NsssN>
1

>  <NddsN>
0

>  <NaasN>
0

>  <NssssN>
0

>  <NsOH>
1

>  <NdO>
3

>  <NssO>
0

>  <NaaO>
0

>  <NsF>
0

>  <NsSiH3>
0

>  <NssSiH2>
0

>  <NsssSiH>
0

>  <NssssSi>
0

>  <NsPH2>
0

>  <NssPH>
0

>  <NsssP>
0

>  <NdsssP>
0

>  <NsssssP>
0

>  <NsSH>
0

>  <NdS>
0

>  <NssS>
1

>  <NaaS>
0

>  <NdssS>
0

>  <NddssS>
0

>  <NsCl>
0

>  <NsBr>
0

>  <NsI>
0

>  <fragCpx>
134.1

>  <fMF>
0.37

>  <nHBAcc>
5

>  <nHBDon>
2

>  <Kier1>
20.73

>  <Kier2>
8.16

>  <Lipinski>
1

>  <GhoseFilter>
1

>  <FilterItLogS>
-1.94

>  <VMcGowan>
259.05

>  <LabuteASA>
152.91

>  <PEOE_VSA1>
15.32

>  <PEOE_VSA2>
9.59

>  <PEOE_VSA3>
4.79

>  <PEOE_VSA4>
0

>  <PEOE_VSA5>
11.76

>  <PEOE_VSA6>
35.45

>  <PEOE_VSA7>
24.94

>  <PEOE_VSA8>
9.66

>  <PEOE_VSA9>
0

>  <PEOE_VSA10>
23.5

>  <PEOE_VSA11>
0

>  <PEOE_VSA12>
11.81

>  <PEOE_VSA13>
0

>  <SMR_VSA1>
19.49

>  <SMR_VSA2>
0

>  <SMR_VSA3>
10.22

>  <SMR_VSA4>
5.11

>  <SMR_VSA5>
42.09

>  <SMR_VSA6>
0

>  <SMR_VSA7>
46.34

>  <SMR_VSA8>
0

>  <SMR_VSA9>
0

>  <SlogP_VSA1>
5.32

>  <SlogP_VSA2>
49.99

>  <SlogP_VSA3>
14.38

>  <SlogP_VSA4>
0

>  <SlogP_VSA5>
25.45

>  <SlogP_VSA6>
35.45

>  <SlogP_VSA7>
0

>  <SlogP_VSA8>
10.44

>  <SlogP_VSA9>
0

>  <SlogP_VSA10>
0

>  <SlogP_VSA11>
0

>  <EState_VSA1>
46.03

>  <EState_VSA2>
0

>  <EState_VSA3>
5.56

>  <EState_VSA4>
0

>  <EState_VSA5>
16.66

>  <EState_VSA6>
44.18

>  <EState_VSA7>
0

>  <EState_VSA8>
15.34

>  <EState_VSA9>
5.53

>  <EState_VSA10>
19.49

>  <VSA_EState1>
-0.67

>  <VSA_EState2>
40.52

>  <VSA_EState3>
15.1

>  <VSA_EState4>
9.26

>  <VSA_EState5>
-2.11

>  <VSA_EState6>
5.63

>  <VSA_EState7>
0

>  <VSA_EState8>
3.52

>  <VSA_EState9>
0

>  <apol>
49.66

>  <bpol>
24.97

>  <nRing>
3

>  <nHRing>
2

>  <naRing>
1

>  <naHRing>
0

>  <nARing 2>
2

>  <nAHRing 2>
2

>  <nFRing>
1

>  <nFHRing>
1

>  <nFaRing>
0

>  <nFaHRing>
0

>  <nFARing 2>
1

>  <nFAHRing 2>
1

>  <nRot>
5

>  <SLogP>
1.67

>  <SMR>
93.99

>  <TopoPSA(NO)>
135.47

>  <TopoPSA>
160.77

>  <JGI1>
0.21

>  <JGI2>
0.09

>  <JGI3>
0.09

>  <JGI4>
0.05

>  <JGI5>
0.02

>  <Diameter>
12

>  <Radius>
6

>  <TMWC10>
131.8

>  <TSRW10>
76.74

>  <MW>
375.1

>  <AMW>
8.72

>  <WPath>
1674

>  <WPol>
42

>  <Zagreb1>
140

>  <Zagreb2>
170

>  <mZagreb2>
5.68

>  <yes>


>  <nAR-cont>
1

>  <nHA-cont>
0.892715677

>  <MWHBN>
0.361430258

>  <MWHBN-cont>
0.626945945

>  <TPSA-cont>
0

>  <pka_cont>
0.97

>  <yes.1>


>  <BBB_SCORE>
3.318134595

>  <MMFF94 Energy>
77.408

$$$$
Compound 2355
Actelion Java MolfileCreator 2.0

  0  0  0  0  0  0              0 V3000
M  V30 BEGIN CTAB
M  V30 COUNTS 64 67 0 0 0
M  V30 BEGIN ATOM
M  V30 1 Cl -3.8353 -4.1622 2.5284 0
M  V30 2 C -2.7968 -3.4706 1.2696 0
M  V30 3 C -2.0675 -2.2455 1.7933 0
M  V30 4 O -1.446 -2.2987 2.8609 0
M  V30 5 C -1.9725 -0.9807 0.8619 0 CFG=2
M  V30 6 O -3.0421 -0.8149 -0.0935 0
M  V30 7 C -0.6187 -1.0138 0.0107 0 CFG=2
M  V30 8 C -1.7686 0.3423 1.6689 0 CFG=2
M  V30 9 C -4.3329 -0.7886 0.3258 0
M  V30 10 C 0.449 -0.5791 1.0399 0
M  V30 11 C -0.6757 -0.0091 -1.1878 0
M  V30 12 C -0.3109 -2.4222 -0.5375 0
M  V30 13 C -0.2598 0.4379 1.9548 0
M  V30 14 C -2.5906 0.5728 2.9359 0
M  V30 15 O -4.7059 -1.0584 1.4548 0
M  V30 16 C -5.2515 -0.4432 -0.8142 0
M  V30 17 C 1.8035 -0.1312 0.4351 0
M  V30 18 C 0.6787 0.3945 -1.7903 0 CFG=1
M  V30 19 C -5.4948 -1.6523 -1.6942 0
M  V30 20 C 1.6646 0.9103 -0.7116 0 CFG=1
M  V30 21 C 2.7484 0.3643 1.547 0
M  V30 22 O 1.2084 -0.6929 -2.5383 0
M  V30 23 F 1.0662 2.0254 -0.1618 0
M  V30 24 C 3.0747 1.3899 -1.2647 0 CFG=2
M  V30 25 C 4.1059 0.7958 1.0129 0 CFG=1
M  V30 26 C 3.9342 1.8303 -0.068 0
M  V30 27 C 2.8992 2.5403 -2.2579 0
M  V30 28 C 3.8589 0.2956 -2.026 0
M  V30 29 F 4.8287 1.2846 2.0605 0
M  V30 30 C 4.4696 3.0583 0.0582 0
M  V30 31 C 3.4335 3.7618 -2.1261 0
M  V30 32 C 4.2689 4.1065 -0.9606 0
M  V30 33 O 4.7748 5.2154 -0.8487 0
M  V30 34 H -2.0638 -4.2281 0.9822 0
M  V30 35 H -3.4163 -3.2518 0.4008 0
M  V30 36 H -2.0339 1.1845 1.0153 0
M  V30 37 H 0.683 -1.4452 1.6765 0
M  V30 38 H -1.3025 -0.4393 -1.9804 0
M  V30 39 H -1.1702 0.9195 -0.884 0
M  V30 40 H 0.6175 -2.4562 -1.1103 0
M  V30 41 H -0.1722 -3.1518 0.2658 0
M  V30 42 H -1.1186 -2.7758 -1.187 0
M  V30 43 H 0.0684 1.4679 1.7907 0
M  V30 44 H -0.0331 0.2021 3.0019 0
M  V30 45 H -3.6507 0.7032 2.7089 0
M  V30 46 H -2.2641 1.4953 3.4306 0
M  V30 47 H -2.49 -0.2345 3.6643 0
M  V30 48 H -4.8186 0.3838 -1.3873 0
M  V30 49 H -6.1955 -0.0773 -0.3956 0
M  V30 50 H 2.2615 -1.0334 0.0084 0
M  V30 51 H 0.4764 1.2016 -2.5031 0
M  V30 52 H -6.187 -1.4029 -2.504 0
M  V30 53 H -5.9236 -2.4778 -1.1164 0
M  V30 54 H -4.5607 -2.01 -2.1399 0
M  V30 55 H 2.3079 1.2081 2.092 0
M  V30 56 H 2.8954 -0.4252 2.2945 0
M  V30 57 H 0.5841 -0.8914 -3.2596 0
M  V30 58 H 4.6602 -0.0664 0.6296 0
M  V30 59 H 2.3157 2.3438 -3.1544 0
M  V30 60 H 3.4491 0.11 -3.0249 0
M  V30 61 H 4.9053 0.592 -2.1784 0
M  V30 62 H 3.8723 -0.6602 -1.494 0
M  V30 63 H 5.0614 3.3525 0.9188 0
M  V30 64 H 3.2917 4.544 -2.862 0
M  V30 END ATOM
M  V30 BEGIN BOND
M  V30 1 1 1 2
M  V30 2 1 2 3
M  V30 3 2 3 4
M  V30 4 1 3 5
M  V30 5 1 5 6
M  V30 6 1 5 7
M  V30 7 1 5 8
M  V30 8 1 6 9
M  V30 9 1 7 10
M  V30 10 1 7 11
M  V30 11 1 7 12
M  V30 12 1 8 13
M  V30 13 1 8 14
M  V30 14 2 9 15
M  V30 15 1 9 16
M  V30 16 1 10 17
M  V30 17 1 11 18
M  V30 18 1 16 19
M  V30 19 1 17 20
M  V30 20 1 17 21
M  V30 21 1 18 22
M  V30 22 1 20 23
M  V30 23 1 20 24
M  V30 24 1 21 25
M  V30 25 1 24 26
M  V30 26 1 24 27
M  V30 27 1 24 28
M  V30 28 1 25 29
M  V30 29 2 26 30
M  V30 30 2 27 31
M  V30 31 1 30 32
M  V30 32 2 32 33
M  V30 33 1 10 13
M  V30 34 1 18 20
M  V30 35 1 25 26
M  V30 36 1 31 32
M  V30 37 1 2 34
M  V30 38 1 2 35
M  V30 39 1 8 36
M  V30 40 1 10 37
M  V30 41 1 11 38
M  V30 42 1 11 39
M  V30 43 1 12 40
M  V30 44 1 12 41
M  V30 45 1 12 42
M  V30 46 1 13 43
M  V30 47 1 13 44
M  V30 48 1 14 45
M  V30 49 1 14 46
M  V30 50 1 14 47
M  V30 51 1 16 48
M  V30 52 1 16 49
M  V30 53 1 17 50
M  V30 54 1 18 51
M  V30 55 1 19 52
M  V30 56 1 19 53
M  V30 57 1 19 54
M  V30 58 1 21 55
M  V30 59 1 21 56
M  V30 60 1 22 57
M  V30 61 1 25 58
M  V30 62 1 27 59
M  V30 63 1 28 60
M  V30 64 1 28 61
M  V30 65 1 28 62
M  V30 66 1 30 63
M  V30 67 1 31 64
M  V30 END BOND
M  V30 BEGIN COLLECTION
M  V30 MDLV30/STEABS ATOMS=(7 5 7 8 18 20 24 25)
M  V30 END COLLECTION
M  V30 END CTAB
M  END
>  <Column 1>
2879

>  <level_0>
4773

>  <index>
4773

>  <Unnamed: 0>
4773

>  <NO.>
4785

>  <Name>
schembl13321839

>  <IUPAC_name>
[(6s-9r-10s-11s-13s-16s-17r)-17-(2-chloroacetyl)-6-9-difluoro-11-hydroxy-10-13-16-trimethyl-3-oxo-6-7-8-11-12-14-15-16-octahydrocyclopenta[a]phenanthren-17-yl] propanoate

>  <SMILES>
CCC(=O)O[C@]1(C(=O)CCl)[C@@H](C)CC2C3C[C@H](F)C4=CC(=O)C=C[C@]4(C)[C@@]3(F)[C@@H](O)C[C@@]21C

>  <CID>
10074089

>  <logBB>


>  <BBB+/BBB->
BBB+

>  <Inchi>
InChI=1S/C25H31ClF2O5/c1-5-21(32)33-25(20(31)12-26)13(2)8-15-16-10-18(27)17-9-14(29)6-7-22(17-3)24(16-28)19(30)11-23(15-25)4/h6-7-9-13-15-16-18-19-30H-5-8-10-12H2-1-4H3/t13--15?-16?-18--19--22--23--24--25-/m0/s1

>  <threshold>


>  <reference>
R6|

>  <group>
C

>  <Class>
1

>  <ABC>
25.95

>  <ABCGG>
22.1

>  <nAcid>
0

>  <nBase>
0

>  <nAromAtom>
0

>  <nAromBond>
0

>  <nAtom>
64

>  <nHeavyAtom>
33

>  <nSpiro>
0

>  <nBridgehead>
0

>  <nHetero>
8

>  <nN>
0

>  <nO>
5

>  <nF>
2

>  <BalabanJ>
1.82

>  <BertzCT>
964.44

>  <nBonds>
67

>  <nBondsO>
36

>  <nBondsS>
62

>  <nBondsD>
5

>  <nBondsT>
0

>  <nBondsA>
0

>  <nBondsM>
5

>  <nBondsKS>
62

>  <nBondsKD>
5

>  <RNCG>
0.17

>  <RPCG>
0.11

>  <FCSP3>
0.72

>  <SZ>
42.67

>  <Sm>
40.38

>  <Sv>
39.36

>  <Sse>
65.09

>  <Sp>
41.75

>  <Si>
72.73

>  <MZ>
0.67

>  <Mm>
0.63

>  <Mv>
0.61

>  <Mse>
1.02

>  <Mp>
0.65

>  <Mi>
1.14

>  <NsCH3>
4

>  <NdCH2>
0

>  <NssCH2>
5

>  <NtCH>
0

>  <NdsCH>
3

>  <NaaCH>
0

>  <NsssCH>
5

>  <NddC>
0

>  <NtsC>
0

>  <NdssC>
4

>  <NaasC>
0

>  <NaaaC>
0

>  <NssssC>
4

>  <NsNH3>
0

>  <NsNH2>
0

>  <NssNH2>
0

>  <NdNH>
0

>  <NssNH>
0

>  <NaaNH>
0

>  <NtN>
0

>  <NsssNH>
0

>  <NdsN>
0

>  <NaaN>
0

>  <NsssN>
0

>  <NddsN>
0

>  <NaasN>
0

>  <NssssN>
0

>  <NsOH>
1

>  <NdO>
3

>  <NssO>
1

>  <NaaO>
0

>  <NsF>
2

>  <NsSiH3>
0

>  <NssSiH2>
0

>  <NsssSiH>
0

>  <NssssSi>
0

>  <NsPH2>
0

>  <NssPH>
0

>  <NsssP>
0

>  <NdsssP>
0

>  <NsssssP>
0

>  <NsSH>
0

>  <NdS>
0

>  <NssS>
0

>  <NaaS>
0

>  <NdssS>
0

>  <NddssS>
0

>  <NsCl>
1

>  <NsBr>
0

>  <NsI>
0

>  <fragCpx>
240.08

>  <fMF>
0.27

>  <nHBAcc>
5

>  <nHBDon>
1

>  <Kier1>
26.07

>  <Kier2>
8.54

>  <Lipinski>
1

>  <GhoseFilter>
0

>  <FilterItLogS>
-5

>  <VMcGowan>
343.28

>  <LabuteASA>
197.12

>  <PEOE_VSA1>
9.84

>  <PEOE_VSA2>
14.38

>  <PEOE_VSA3>
8.78

>  <PEOE_VSA4>
0

>  <PEOE_VSA5>
11.6

>  <PEOE_VSA6>
26.85

>  <PEOE_VSA7>
49.83

>  <PEOE_VSA8>
29.09

>  <PEOE_VSA9>
11.98

>  <PEOE_VSA10>
6.17

>  <PEOE_VSA11>
22.84

>  <PEOE_VSA12>
0

>  <PEOE_VSA13>
0

>  <SMR_VSA1>
33.01

>  <SMR_VSA2>
0

>  <SMR_VSA3>
0

>  <SMR_VSA4>
28.58

>  <SMR_VSA5>
76.92

>  <SMR_VSA6>
5.88

>  <SMR_VSA7>
23.8

>  <SMR_VSA8>
0

>  <SMR_VSA9>
0

>  <SlogP_VSA1>
0

>  <SlogP_VSA2>
52.07

>  <SlogP_VSA3>
19.12

>  <SlogP_VSA4>
28.58

>  <SlogP_VSA5>
53.38

>  <SlogP_VSA6>
23.8

>  <SlogP_VSA7>
0

>  <SlogP_VSA8>
0

>  <SlogP_VSA9>
0

>  <SlogP_VSA10>
8.78

>  <SlogP_VSA11>
0

>  <EState_VSA1>
75.54

>  <EState_VSA2>
24.84

>  <EState_VSA3>
6.42

>  <EState_VSA4>
6.08

>  <EState_VSA5>
19.08

>  <EState_VSA6>
20.77

>  <EState_VSA7>
0

>  <EState_VSA8>
0

>  <EState_VSA9>
16.34

>  <EState_VSA10>
19.49

>  <VSA_EState1>
38.53

>  <VSA_EState2>
37.66

>  <VSA_EState3>
11.37

>  <VSA_EState4>
-6.47

>  <VSA_EState5>
-3.84

>  <VSA_EState6>
0

>  <VSA_EState7>
0.58

>  <VSA_EState8>
6.64

>  <VSA_EState9>
0

>  <apol>
69.72

>  <bpol>
38.18

>  <nRing>
4

>  <nHRing>
0

>  <naRing>
0

>  <naHRing>
0

>  <nARing 2>
4

>  <nAHRing 2>
0

>  <nFRing>
1

>  <nFHRing>
0

>  <nFaRing>
0

>  <nFaHRing>
0

>  <nFARing 2>
1

>  <nFAHRing 2>
0

>  <nRot>
4

>  <SLogP>
4.05

>  <SMR>
118.02

>  <TopoPSA(NO)>
80.67

>  <TopoPSA>
80.67

>  <JGI1>
0.32

>  <JGI2>
0.15

>  <JGI3>
0.08

>  <JGI4>
0.06

>  <JGI5>
0.04

>  <Diameter>
13

>  <Radius>
7

>  <TMWC10>
151.86

>  <TSRW10>
85.68

>  <MW>
484.18

>  <AMW>
7.57

>  <WPath>
2596

>  <WPol>
80

>  <Zagreb1>
192

>  <Zagreb2>
250

>  <mZagreb2>
7.06

>  <yes>


>  <nAR-cont>
0.199399

>  <nHA-cont>
0.61399562

>  <MWHBN>
0.272676573

>  <MWHBN-cont>
0.913937531

>  <TPSA-cont>
0.436873307

>  <pka_cont>
0.97

>  <yes.1>


>  <BBB_SCORE>
3.543047531

>  <MMFF94 Energy>
143.27

$$$$
Compound 2356
Actelion Java MolfileCreator 2.0

  0  0  0  0  0  0              0 V3000
M  V30 BEGIN CTAB
M  V30 COUNTS 52 53 0 0 0
M  V30 BEGIN ATOM
M  V30 1 O -0.7079 -1.4163 0.7866 0
M  V30 2 C -0.4737 -0.7308 -0.2008 0
M  V30 3 O 0.1801 0.4716 -0.1538 0
M  V30 4 C -0.8852 -1.0606 -1.6368 0
M  V30 5 C 0.5044 0.9421 1.1643 0
M  V30 6 C -2.2353 -0.4142 -1.9166 0
M  V30 7 C -0.8425 -2.5985 -1.9031 0
M  V30 8 C 1.7995 0.2977 1.6479 0
M  V30 9 C 0.6548 2.4569 1.0879 0
M  V30 10 C -2.3395 0.6067 -2.874 0
M  V30 11 C -3.3906 -0.81 -1.2232 0
M  V30 12 C 0.5958 -3.1409 -1.7025 0
M  V30 13 C -1.3419 -2.9331 -3.3187 0
M  V30 14 C 2.2206 0.86 2.9945 0
M  V30 15 C 1.0717 3.0374 2.4285 0
M  V30 16 C -3.5698 1.2128 -3.1338 0
M  V30 17 C -4.6189 -0.2014 -1.4852 0
M  V30 18 C 0.7003 -4.6584 -1.7853 0
M  V30 19 N 2.356 2.3873 2.9555 0 CHG=1
M  V30 20 C -4.7083 0.809 -2.4398 0
M  V30 21 C 2.5848 2.8806 4.3927 0
M  V30 22 C 3.5733 2.816 2.133 0
M  V30 23 H -0.1293 -0.6072 -2.2944 0
M  V30 24 H -0.3179 0.7152 1.8566 0
M  V30 25 H -1.5004 -3.107 -1.1858 0
M  V30 26 H 1.6694 -0.787 1.7381 0
M  V30 27 H 2.5892 0.4259 0.8982 0
M  V30 28 H 1.3657 2.7305 0.2991 0
M  V30 29 H -0.2992 2.9012 0.7773 0
M  V30 30 H -1.4666 0.9337 -3.4348 0
M  V30 31 H -3.3472 -1.6 -0.4752 0
M  V30 32 H 1.2699 -2.6945 -2.4438 0
M  V30 33 H 0.9748 -2.8434 -0.7186 0
M  V30 34 H -1.3491 -4.0126 -3.4953 0
M  V30 35 H -0.7072 -2.4677 -4.0803 0
M  V30 36 H -2.3692 -2.5915 -3.478 0
M  V30 37 H 1.4695 0.6221 3.7576 0
M  V30 38 H 3.1854 0.449 3.3123 0
M  V30 39 H 0.2903 2.8611 3.1778 0
M  V30 40 H 1.2501 4.1161 2.3561 0
M  V30 41 H -3.6435 1.9956 -3.8848 0
M  V30 42 H -5.5093 -0.521 -0.9489 0
M  V30 43 H 1.7093 -4.9786 -1.5057 0
M  V30 44 H -0.0078 -5.1393 -1.1034 0
M  V30 45 H 0.5128 -5.0229 -2.799 0
M  V30 46 H -5.6676 1.2764 -2.6485 0
M  V30 47 H 3.5007 2.4191 4.7736 0
M  V30 48 H 2.6813 3.9702 4.3716 0
M  V30 49 H 1.726 2.5851 5.0028 0
M  V30 50 H 4.4638 2.3565 2.572 0
M  V30 51 H 3.4518 2.4865 1.0999 0
M  V30 52 H 3.6481 3.9069 2.173 0
M  V30 END ATOM
M  V30 BEGIN BOND
M  V30 1 2 1 2
M  V30 2 1 2 3
M  V30 3 1 2 4
M  V30 4 1 3 5
M  V30 5 1 4 6
M  V30 6 1 4 7
M  V30 7 1 5 8
M  V30 8 1 5 9
M  V30 9 2 6 10
M  V30 10 1 6 11
M  V30 11 1 7 12
M  V30 12 1 7 13
M  V30 13 1 8 14
M  V30 14 1 9 15
M  V30 15 1 10 16
M  V30 16 2 11 17
M  V30 17 1 12 18
M  V30 18 1 14 19
M  V30 19 2 16 20
M  V30 20 1 19 21
M  V30 21 1 19 22
M  V30 22 1 15 19
M  V30 23 1 17 20
M  V30 24 1 4 23
M  V30 25 1 5 24
M  V30 26 1 7 25
M  V30 27 1 8 26
M  V30 28 1 8 27
M  V30 29 1 9 28
M  V30 30 1 9 29
M  V30 31 1 10 30
M  V30 32 1 11 31
M  V30 33 1 12 32
M  V30 34 1 12 33
M  V30 35 1 13 34
M  V30 36 1 13 35
M  V30 37 1 13 36
M  V30 38 1 14 37
M  V30 39 1 14 38
M  V30 40 1 15 39
M  V30 41 1 15 40
M  V30 42 1 16 41
M  V30 43 1 17 42
M  V30 44 1 18 43
M  V30 45 1 18 44
M  V30 46 1 18 45
M  V30 47 1 20 46
M  V30 48 1 21 47
M  V30 49 1 21 48
M  V30 50 1 21 49
M  V30 51 1 22 50
M  V30 52 1 22 51
M  V30 53 1 22 52
M  V30 END BOND
M  V30 END CTAB
M  END
>  <Column 1>
2880

>  <level_0>
4779

>  <index>
4779

>  <Unnamed: 0>
4779

>  <NO.>
4791

>  <Name>
pentapiperium

>  <IUPAC_name>
(1-1-dimethylpiperidin-1-ium-4-yl) 3-methyl-2-phenylpentanoate

>  <SMILES>
CCC(C)C(C(=O)OC1CC[N+](C)(C)CC1)c1ccccc1

>  <CID>
27490

>  <logBB>


>  <BBB+/BBB->
BBB-

>  <Inchi>
InChI=1S/C19H30NO2/c1-5-15(2)18(16-9-7-6-8-10-16)19(21)22-17-11-13-20(3-4)14-12-17/h6-10-15-17-18H-5-11-14H2-1-4H3/q+1

>  <threshold>


>  <reference>
R6|

>  <group>
C

>  <Class>
-1

>  <ABC>
16.68

>  <ABCGG>
14.28

>  <nAcid>
0

>  <nBase>
1

>  <nAromAtom>
6

>  <nAromBond>
6

>  <nAtom>
52

>  <nHeavyAtom>
22

>  <nSpiro>
0

>  <nBridgehead>
0

>  <nHetero>
3

>  <nN>
1

>  <nO>
2

>  <nF>
0

>  <BalabanJ>
1.92

>  <BertzCT>
473.47

>  <nBonds>
53

>  <nBondsO>
23

>  <nBondsS>
46

>  <nBondsD>
1

>  <nBondsT>
0

>  <nBondsA>
6

>  <nBondsM>
7

>  <nBondsKS>
49

>  <nBondsKD>
4

>  <RNCG>
0.29

>  <RPCG>
0.12

>  <FCSP3>
0.63

>  <SZ>
27.83

>  <Sm>
25.35

>  <Sv>
29.31

>  <Sse>
51.14

>  <Sp>
32.6

>  <Si>
58.94

>  <MZ>
0.54

>  <Mm>
0.49

>  <Mv>
0.56

>  <Mse>
0.98

>  <Mp>
0.63

>  <Mi>
1.13

>  <NsCH3>
4

>  <NdCH2>
0

>  <NssCH2>
5

>  <NtCH>
0

>  <NdsCH>
0

>  <NaaCH>
5

>  <NsssCH>
3

>  <NddC>
0

>  <NtsC>
0

>  <NdssC>
1

>  <NaasC>
1

>  <NaaaC>
0

>  <NssssC>
0

>  <NsNH3>
0

>  <NsNH2>
0

>  <NssNH2>
0

>  <NdNH>
0

>  <NssNH>
0

>  <NaaNH>
0

>  <NtN>
0

>  <NsssNH>
0

>  <NdsN>
0

>  <NaaN>
0

>  <NsssN>
0

>  <NddsN>
0

>  <NaasN>
0

>  <NssssN>
1

>  <NsOH>
0

>  <NdO>
1

>  <NssO>
1

>  <NaaO>
0

>  <NsF>
0

>  <NsSiH3>
0

>  <NssSiH2>
0

>  <NsssSiH>
0

>  <NssssSi>
0

>  <NsPH2>
0

>  <NssPH>
0

>  <NsssP>
0

>  <NdsssP>
0

>  <NsssssP>
0

>  <NsSH>
0

>  <NdS>
0

>  <NssS>
0

>  <NaaS>
0

>  <NdssS>
0

>  <NddssS>
0

>  <NsCl>
0

>  <NsBr>
0

>  <NsI>
0

>  <fragCpx>
67.03

>  <fMF>
0.29

>  <nHBAcc>
2

>  <nHBDon>
0

>  <Kier1>
18.34

>  <Kier2>
8.2

>  <Lipinski>
1

>  <GhoseFilter>
1

>  <FilterItLogS>
-4.58

>  <VMcGowan>
263.52

>  <LabuteASA>
134.41

>  <PEOE_VSA1>
9.22

>  <PEOE_VSA2>
4.79

>  <PEOE_VSA3>
0

>  <PEOE_VSA4>
0

>  <PEOE_VSA5>
0

>  <PEOE_VSA6>
50.6

>  <PEOE_VSA7>
11.48

>  <PEOE_VSA8>
12.84

>  <PEOE_VSA9>
33.1

>  <PEOE_VSA10>
6.1

>  <PEOE_VSA11>
0

>  <PEOE_VSA12>
0

>  <PEOE_VSA13>
0

>  <SMR_VSA1>
14.01

>  <SMR_VSA2>
0

>  <SMR_VSA3>
0

>  <SMR_VSA4>
5.92

>  <SMR_VSA5>
45.13

>  <SMR_VSA6>
27.18

>  <SMR_VSA7>
35.9

>  <SMR_VSA8>
0

>  <SMR_VSA9>
0

>  <SlogP_VSA1>
0

>  <SlogP_VSA2>
43.74

>  <SlogP_VSA3>
9.53

>  <SlogP_VSA4>
5.92

>  <SlogP_VSA5>
44.59

>  <SlogP_VSA6>
30.33

>  <SlogP_VSA7>
0

>  <SlogP_VSA8>
0

>  <SlogP_VSA9>
0

>  <SlogP_VSA10>
0

>  <SlogP_VSA11>
0

>  <EState_VSA1>
0

>  <EState_VSA2>
17.99

>  <EState_VSA3>
5.92

>  <EState_VSA4>
42.4

>  <EState_VSA5>
0

>  <EState_VSA6>
0

>  <EState_VSA7>
30.33

>  <EState_VSA8>
27.94

>  <EState_VSA9>
4.74

>  <EState_VSA10>
4.79

>  <VSA_EState1>
6.9

>  <VSA_EState2>
12.75

>  <VSA_EState3>
0

>  <VSA_EState4>
1.08

>  <VSA_EState5>
0.11

>  <VSA_EState6>
10.07

>  <VSA_EState7>
3.01

>  <VSA_EState8>
6.43

>  <VSA_EState9>
4.48

>  <apol>
54.44

>  <bpol>
34.98

>  <nRing>
2

>  <nHRing>
1

>  <naRing>
1

>  <naHRing>
0

>  <nARing 2>
1

>  <nAHRing 2>
1

>  <nFRing>
0

>  <nFHRing>
0

>  <nFaRing>
0

>  <nFaHRing>
0

>  <nFARing 2>
0

>  <nFAHRing 2>
0

>  <nRot>
5

>  <SLogP>
3.6

>  <SMR>
89.59

>  <TopoPSA(NO)>
26.3

>  <TopoPSA>
26.3

>  <JGI1>
0.24

>  <JGI2>
0.08

>  <JGI3>
0.06

>  <JGI4>
0.04

>  <JGI5>
0.02

>  <Diameter>
11

>  <Radius>
6

>  <TMWC10>
117.98

>  <TSRW10>
55.85

>  <MW>
304.23

>  <AMW>
5.85

>  <WPath>
1089

>  <WPol>
32

>  <Zagreb1>
110

>  <Zagreb2>
125

>  <mZagreb2>
4.92

>  <yes>


>  <nAR-cont>
0.816016

>  <nHA-cont>
0.983774276

>  <MWHBN>
0.114664499

>  <MWHBN-cont>
0.805498501

>  <TPSA-cont>
0.816409669

>  <pka_cont>
0.97

>  <yes.1>


>  <BBB_SCORE>
5.125857365

>  <MMFF94 Energy>
45.107

$$$$
Compound 2357
Actelion Java MolfileCreator 2.0

  0  0  0  0  0  0              0 V3000
M  V30 BEGIN CTAB
M  V30 COUNTS 75 78 0 0 0
M  V30 BEGIN ATOM
M  V30 1 O 4.5746 4.5746 -4.9767 0
M  V30 2 C 3.9761 4.331 -3.9321 0
M  V30 3 C 2.5067 4.5057 -3.8744 0
M  V30 4 C 4.6891 3.9401 -2.6651 0
M  V30 5 C 1.8018 4.194 -2.772 0
M  V30 6 C 3.8287 2.9842 -1.8521 0
M  V30 7 C 2.4116 3.5415 -1.5218 0 CFG=2
M  V30 8 C 0.3316 4.5279 -2.7024 0
M  V30 9 C 1.498 2.3288 -1.0756 0 CFG=1
M  V30 10 C 2.5457 4.6473 -0.4507 0
M  V30 11 C -0.5023 3.3248 -2.2888 0
M  V30 12 C 1.9988 1.5381 0.1688 0 CFG=1
M  V30 13 C -0.0111 2.7131 -0.9662 0 CFG=1
M  V30 14 O 2.1715 2.3944 1.2876 0
M  V30 15 C 1.0702 0.3707 0.5683 0
M  V30 16 C -0.8212 1.452 -0.6267 0 CFG=1
M  V30 17 C -0.4149 0.7806 0.7063 0 CFG=1
M  V30 18 C -2.3339 1.5751 -0.5141 0
M  V30 19 C -1.4626 -0.3976 0.7495 0 CFG=1
M  V30 20 C -0.6124 1.7107 1.936 0
M  V30 21 C -2.7654 0.3031 0.2395 0
M  V30 22 O -1.0553 -1.3946 -0.2201 0
M  V30 23 C -1.6114 -0.9993 2.1732 0
M  V30 24 C -1.8254 -2.5139 -0.3611 0
M  V30 25 O -2.5921 -0.7686 2.8866 0
M  V30 26 C -0.45 -1.8357 2.7009 0
M  V30 27 O -2.8321 -2.751 0.2877 0
M  V30 28 C -1.2409 -3.3926 -1.4397 0
M  V30 29 O -0.929 -2.9572 3.4433 0
M  V30 30 C -2.024 -4.6825 -1.6082 0
M  V30 31 C -0.952 -4.1376 2.7654 0
M  V30 32 O -0.4711 -4.3148 1.6545 0
M  V30 33 C -1.6341 -5.1905 3.6054 0
M  V30 34 C -1.8477 -6.4855 2.8261 0
M  V30 35 C -2.5534 -7.5341 3.6699 0
M  V30 36 H 2.0591 4.9581 -4.7525 0
M  V30 37 H 5.6266 3.4409 -2.9333 0
M  V30 38 H 4.9334 4.8468 -2.1028 0
M  V30 39 H 3.7301 2.0507 -2.4239 0
M  V30 40 H 4.3661 2.727 -0.9313 0
M  V30 41 H -0.0376 4.8983 -3.6667 0
M  V30 42 H 0.1829 5.3431 -1.9836 0
M  V30 43 H 1.5464 1.6006 -1.903 0
M  V30 44 H 1.5828 4.9083 -9.0E-4 0
M  V30 45 H 2.9583 5.5707 -0.8756 0
M  V30 46 H 3.2239 4.355 0.3568 0
M  V30 47 H -1.5473 3.6419 -2.1914 0
M  V30 48 H -0.4739 2.5699 -3.0855 0
M  V30 49 H 2.9834 1.1122 -0.0545 0
M  V30 50 H -0.1479 3.4641 -0.1814 0
M  V30 51 H 2.6395 1.8966 1.9803 0
M  V30 52 H 1.1763 -0.409 -0.1954 0
M  V30 53 H 1.4217 -0.0602 1.5124 0
M  V30 54 H -0.6337 0.7404 -1.4474 0
M  V30 55 H -2.8152 1.6317 -1.4959 0
M  V30 56 H -2.6245 2.4703 0.0472 0
M  V30 57 H -1.6686 1.8954 2.1576 0
M  V30 58 H -0.1708 1.2652 2.8342 0
M  V30 59 H -0.1553 2.6939 1.8105 0
M  V30 60 H -3.4401 0.5893 1.0531 0
M  V30 61 H -3.338 -0.3344 -0.4416 0
M  V30 62 H 0.2262 -2.129 1.8937 0
M  V30 63 H 0.1259 -1.2055 3.3861 0
M  V30 64 H -0.2055 -3.6288 -1.1734 0
M  V30 65 H -1.25 -2.8347 -2.3819 0
M  V30 66 H -1.5762 -5.3004 -2.3924 0
M  V30 67 H -3.0635 -4.4779 -1.8852 0
M  V30 68 H -2.0339 -5.262 -0.6792 0
M  V30 69 H -2.6035 -4.7953 3.9299 0
M  V30 70 H -1.0123 -5.3799 4.4872 0
M  V30 71 H -2.4403 -6.286 1.9251 0
M  V30 72 H -0.8831 -6.8826 2.4881 0
M  V30 73 H -2.6947 -8.453 3.0925 0
M  V30 74 H -1.9673 -7.7796 4.5613 0
M  V30 75 H -3.5381 -7.1807 3.9922 0
M  V30 END ATOM
M  V30 BEGIN BOND
M  V30 1 2 1 2
M  V30 2 1 2 3
M  V30 3 1 2 4
M  V30 4 2 3 5
M  V30 5 1 4 6
M  V30 6 1 5 7
M  V30 7 1 5 8
M  V30 8 1 7 9
M  V30 9 1 7 10
M  V30 10 1 8 11
M  V30 11 1 9 12
M  V30 12 1 9 13
M  V30 13 1 12 14
M  V30 14 1 12 15
M  V30 15 1 13 16
M  V30 16 1 15 17
M  V30 17 1 16 18
M  V30 18 1 17 19
M  V30 19 1 17 20
M  V30 20 1 18 21
M  V30 21 1 19 22
M  V30 22 1 19 23
M  V30 23 1 22 24
M  V30 24 2 23 25
M  V30 25 1 23 26
M  V30 26 2 24 27
M  V30 27 1 24 28
M  V30 28 1 26 29
M  V30 29 1 28 30
M  V30 30 1 29 31
M  V30 31 2 31 32
M  V30 32 1 31 33
M  V30 33 1 33 34
M  V30 34 1 34 35
M  V30 35 1 6 7
M  V30 36 1 11 13
M  V30 37 1 16 17
M  V30 38 1 19 21
M  V30 39 1 3 36
M  V30 40 1 4 37
M  V30 41 1 4 38
M  V30 42 1 6 39
M  V30 43 1 6 40
M  V30 44 1 8 41
M  V30 45 1 8 42
M  V30 46 1 9 43
M  V30 47 1 10 44
M  V30 48 1 10 45
M  V30 49 1 10 46
M  V30 50 1 11 47
M  V30 51 1 11 48
M  V30 52 1 12 49
M  V30 53 1 13 50
M  V30 54 1 14 51
M  V30 55 1 15 52
M  V30 56 1 15 53
M  V30 57 1 16 54
M  V30 58 1 18 55
M  V30 59 1 18 56
M  V30 60 1 20 57
M  V30 61 1 20 58
M  V30 62 1 20 59
M  V30 63 1 21 60
M  V30 64 1 21 61
M  V30 65 1 26 62
M  V30 66 1 26 63
M  V30 67 1 28 64
M  V30 68 1 28 65
M  V30 69 1 30 66
M  V30 70 1 30 67
M  V30 71 1 30 68
M  V30 72 1 33 69
M  V30 73 1 33 70
M  V30 74 1 34 71
M  V30 75 1 34 72
M  V30 76 1 35 73
M  V30 77 1 35 74
M  V30 78 1 35 75
M  V30 END BOND
M  V30 BEGIN COLLECTION
M  V30 MDLV30/STEABS ATOMS=(7 7 9 12 13 16 17 19)
M  V30 END COLLECTION
M  V30 END CTAB
M  END
>  <Column 1>
2881

>  <level_0>
4782

>  <index>
4782

>  <Unnamed: 0>
4782

>  <NO.>
4794

>  <Name>
hydrocortisone-buteprate

>  <IUPAC_name>
[2-[(8s-9s-10r-11s-13s-14s-17r)-11-hydroxy-10-13-dimethyl-3-oxo-17-propanoyloxy-2-6-7-8-9-11-12-14-15-16-decahydro-1h-cyclopenta[a]phenanthren-17-yl]-2-oxoethyl] butanoate

>  <SMILES>
CCCC(=O)OCC(=O)[C@@]1(OC(=O)CC)CC[C@H]2[C@@H]3CCC4=CC(=O)CC[C@]4(C)[C@H]3[C@@H](O)C[C@@]21C

>  <CID>
10368237

>  <logBB>


>  <BBB+/BBB->
BBB+

>  <Inchi>
InChI=1S/C28H40O7/c1-5-7-24(33)34-16-22(31)28(35-23(32)6-2)13-11-20-19-9-8-17-14-18(29)10-12-26(17-3)25(19)21(30)15-27(20-28)4/h14-19-21-25-30H-5-13-15-16H2-1-4H3/t19--20--21--25+-26--27--28-/m0/s1

>  <threshold>


>  <reference>
R6|

>  <group>
C

>  <Class>
1

>  <ABC>
27.27

>  <ABCGG>
22.15

>  <nAcid>
0

>  <nBase>
0

>  <nAromAtom>
0

>  <nAromBond>
0

>  <nAtom>
75

>  <nHeavyAtom>
35

>  <nSpiro>
0

>  <nBridgehead>
0

>  <nHetero>
7

>  <nN>
0

>  <nO>
7

>  <nF>
0

>  <BalabanJ>
1.63

>  <BertzCT>
937.59

>  <nBonds>
78

>  <nBondsO>
38

>  <nBondsS>
73

>  <nBondsD>
5

>  <nBondsT>
0

>  <nBondsA>
0

>  <nBondsM>
5

>  <nBondsKS>
73

>  <nBondsKD>
5

>  <RNCG>
0.15

>  <RPCG>
0.1

>  <FCSP3>
0.79

>  <SZ>
44

>  <Sm>
40.68

>  <Sv>
43.84

>  <Sse>
75.07

>  <Sp>
47.33

>  <Si>
84.77

>  <MZ>
0.59

>  <Mm>
0.54

>  <Mv>
0.58

>  <Mse>
1

>  <Mp>
0.63

>  <Mi>
1.13

>  <NsCH3>
4

>  <NdCH2>
0

>  <NssCH2>
11

>  <NtCH>
0

>  <NdsCH>
1

>  <NaaCH>
0

>  <NsssCH>
4

>  <NddC>
0

>  <NtsC>
0

>  <NdssC>
5

>  <NaasC>
0

>  <NaaaC>
0

>  <NssssC>
3

>  <NsNH3>
0

>  <NsNH2>
0

>  <NssNH2>
0

>  <NdNH>
0

>  <NssNH>
0

>  <NaaNH>
0

>  <NtN>
0

>  <NsssNH>
0

>  <NdsN>
0

>  <NaaN>
0

>  <NsssN>
0

>  <NddsN>
0

>  <NaasN>
0

>  <NssssN>
0

>  <NsOH>
1

>  <NdO>
4

>  <NssO>
2

>  <NaaO>
0

>  <NsF>
0

>  <NsSiH3>
0

>  <NssSiH2>
0

>  <NsssSiH>
0

>  <NssssSi>
0

>  <NsPH2>
0

>  <NssPH>
0

>  <NsssP>
0

>  <NdsssP>
0

>  <NsssssP>
0

>  <NsSH>
0

>  <NdS>
0

>  <NssS>
0

>  <NaaS>
0

>  <NdssS>
0

>  <NddssS>
0

>  <NsCl>
0

>  <NsBr>
0

>  <NsI>
0

>  <fragCpx>
254.07

>  <fMF>
0.23

>  <nHBAcc>
7

>  <nHBDon>
1

>  <Kier1>
28.02

>  <Kier2>
10.64

>  <Lipinski>
1

>  <GhoseFilter>
0

>  <FilterItLogS>
-5.03

>  <VMcGowan>
381.53

>  <LabuteASA>
207.55

>  <PEOE_VSA1>
14.58

>  <PEOE_VSA2>
19.18

>  <PEOE_VSA3>
0

>  <PEOE_VSA4>
0

>  <PEOE_VSA5>
0

>  <PEOE_VSA6>
33.27

>  <PEOE_VSA7>
74.19

>  <PEOE_VSA8>
24.68

>  <PEOE_VSA9>
6.1

>  <PEOE_VSA10>
0

>  <PEOE_VSA11>
17.99

>  <PEOE_VSA12>
5.78

>  <PEOE_VSA13>
0

>  <SMR_VSA1>
33.76

>  <SMR_VSA2>
0

>  <SMR_VSA3>
0

>  <SMR_VSA4>
28.58

>  <SMR_VSA5>
103.61

>  <SMR_VSA6>
6.61

>  <SMR_VSA7>
11.65

>  <SMR_VSA8>
0

>  <SMR_VSA9>
0

>  <SlogP_VSA1>
0

>  <SlogP_VSA2>
46.92

>  <SlogP_VSA3>
28.65

>  <SlogP_VSA4>
28.58

>  <SlogP_VSA5>
91.9

>  <SlogP_VSA6>
11.65

>  <SlogP_VSA7>
0

>  <SlogP_VSA8>
0

>  <SlogP_VSA9>
0

>  <SlogP_VSA10>
0

>  <SlogP_VSA11>
0

>  <EState_VSA1>
35.67

>  <EState_VSA2>
47.58

>  <EState_VSA3>
32.1

>  <EState_VSA4>
24.84

>  <EState_VSA5>
0

>  <EState_VSA6>
13

>  <EState_VSA7>
13.85

>  <EState_VSA8>
6.92

>  <EState_VSA9>
9.47

>  <EState_VSA10>
24.28

>  <VSA_EState1>
11.27

>  <VSA_EState2>
50.39

>  <VSA_EState3>
11.63

>  <VSA_EState4>
-1.25

>  <VSA_EState5>
-0.85

>  <VSA_EState6>
0

>  <VSA_EState7>
6.42

>  <VSA_EState8>
7.31

>  <VSA_EState9>
0

>  <apol>
79.05

>  <bpol>
47.07

>  <nRing>
4

>  <nHRing>
0

>  <naRing>
0

>  <naHRing>
0

>  <nARing 2>
4

>  <nAHRing 2>
0

>  <nFRing>
1

>  <nFHRing>
0

>  <nFaRing>
0

>  <nFaHRing>
0

>  <nFARing 2>
1

>  <nFAHRing 2>
0

>  <nRot>
7

>  <SLogP>
4.09

>  <SMR>
128.09

>  <TopoPSA(NO)>
106.97

>  <TopoPSA>
106.97

>  <JGI1>
0.28

>  <JGI2>
0.13

>  <JGI3>
0.07

>  <JGI4>
0.05

>  <JGI5>
0.03

>  <Diameter>
16

>  <Radius>
8

>  <TMWC10>
154.69

>  <TSRW10>
87.11

>  <MW>
488.28

>  <AMW>
6.51

>  <WPath>
3423

>  <WPol>
72

>  <Zagreb1>
194

>  <Zagreb2>
242

>  <mZagreb2>
7.65

>  <yes>


>  <nAR-cont>
0.199399

>  <nHA-cont>
0.523063577

>  <MWHBN>
0.362039135

>  <MWHBN-cont>
0.624610755

>  <TPSA-cont>
0.253282976

>  <pka_cont>
0.97

>  <yes.1>


>  <BBB_SCORE>
2.650944661

>  <MMFF94 Energy>
81.568

$$$$
Compound 2358
Actelion Java MolfileCreator 2.0

  0  0  0  0  0  0              0 V3000
M  V30 BEGIN CTAB
M  V30 COUNTS 49 50 0 0 0
M  V30 BEGIN ATOM
M  V30 1 N 2.0418 -1.3347 -1.099 0 CHG=1
M  V30 2 C 0.6499 -1.4504 -0.325 0 CFG=2
M  V30 3 C 1.8938 -0.1907 -2.1484 0
M  V30 4 C 3.1993 -1.0602 -0.1414 0
M  V30 5 C 2.3338 -2.6431 -1.8493 0
M  V30 6 C 0.4568 -0.2765 0.6707 0
M  V30 7 C 0.5168 -2.7983 0.4012 0
M  V30 8 C 3.153 0.089 -2.9557 0
M  V30 9 C -1.0328 -0.0125 1.0288 0
M  V30 10 C -1.2387 0.9351 2.2086 0
M  V30 11 C -1.8064 0.4343 -0.2078 0
M  V30 12 C -2.4357 0.845 2.9427 0
M  V30 13 C -0.3039 1.912 2.5867 0
M  V30 14 C -1.5333 1.6571 -0.8423 0
M  V30 15 C -2.8068 -0.3928 -0.7445 0
M  V30 16 C -2.6809 1.6895 4.0268 0
M  V30 17 C -0.5514 2.7563 3.6728 0
M  V30 18 C -2.2286 2.0323 -1.9926 0
M  V30 19 C -3.499 -0.015 -1.8961 0
M  V30 20 C -1.7371 2.6434 4.3933 0
M  V30 21 C -3.207 1.1944 -2.5215 0
M  V30 22 H -0.101 -1.4217 -1.1208 0
M  V30 23 H 1.0708 -0.4737 -2.8144 0
M  V30 24 H 1.6119 0.7185 -1.6136 0
M  V30 25 H 3.1631 -1.7859 0.6737 0
M  V30 26 H 4.1411 -1.175 -0.685 0
M  V30 27 H 3.1109 -0.0406 0.2412 0
M  V30 28 H 3.2467 -2.5258 -2.4364 0
M  V30 29 H 2.5026 -3.4392 -1.1196 0
M  V30 30 H 1.4816 -2.8674 -2.4964 0
M  V30 31 H 1.0098 -0.503 1.5926 0
M  V30 32 H 0.8927 0.6463 0.2802 0
M  V30 33 H 0.4739 -3.6345 -0.3029 0
M  V30 34 H -0.4148 -2.8473 0.973 0
M  V30 35 H 1.3372 -2.9744 1.1024 0
M  V30 36 H 3.9979 0.3683 -2.3209 0
M  V30 37 H 2.9671 0.9321 -3.6303 0
M  V30 38 H 3.4448 -0.7564 -3.5829 0
M  V30 39 H -1.4467 -0.9731 1.3624 0
M  V30 40 H -3.1974 0.1167 2.6701 0
M  V30 41 H 0.6275 2.0479 2.0467 0
M  V30 42 H -0.7963 2.3446 -0.4328 0
M  V30 43 H -3.0691 -1.334 -0.2656 0
M  V30 44 H -3.6126 1.607 4.5816 0
M  V30 45 H 0.1792 3.5104 3.9559 0
M  V30 46 H -2.025 2.9907 -2.4652 0
M  V30 47 H -4.2812 -0.6558 -2.2974 0
M  V30 48 H -1.9297 3.304 5.2353 0
M  V30 49 H -3.7604 1.4956 -3.4082 0
M  V30 END ATOM
M  V30 BEGIN BOND
M  V30 1 1 1 2
M  V30 2 1 1 3
M  V30 3 1 1 4
M  V30 4 1 1 5
M  V30 5 1 2 6
M  V30 6 1 2 7
M  V30 7 1 3 8
M  V30 8 1 6 9
M  V30 9 1 9 10
M  V30 10 1 9 11
M  V30 11 2 10 12
M  V30 12 1 10 13
M  V30 13 2 11 14
M  V30 14 1 11 15
M  V30 15 1 12 16
M  V30 16 2 13 17
M  V30 17 1 14 18
M  V30 18 2 15 19
M  V30 19 2 16 20
M  V30 20 2 18 21
M  V30 21 1 17 20
M  V30 22 1 19 21
M  V30 23 1 2 22
M  V30 24 1 3 23
M  V30 25 1 3 24
M  V30 26 1 4 25
M  V30 27 1 4 26
M  V30 28 1 4 27
M  V30 29 1 5 28
M  V30 30 1 5 29
M  V30 31 1 5 30
M  V30 32 1 6 31
M  V30 33 1 6 32
M  V30 34 1 7 33
M  V30 35 1 7 34
M  V30 36 1 7 35
M  V30 37 1 8 36
M  V30 38 1 8 37
M  V30 39 1 8 38
M  V30 40 1 9 39
M  V30 41 1 12 40
M  V30 42 1 13 41
M  V30 43 1 14 42
M  V30 44 1 15 43
M  V30 45 1 16 44
M  V30 46 1 17 45
M  V30 47 1 18 46
M  V30 48 1 19 47
M  V30 49 1 20 48
M  V30 50 1 21 49
M  V30 END BOND
M  V30 BEGIN COLLECTION
M  V30 MDLV30/STERAC1 ATOMS=(1 2)
M  V30 END COLLECTION
M  V30 END CTAB
M  END
>  <Column 1>
2882

>  <level_0>
4825

>  <index>
4825

>  <Unnamed: 0>
4825

>  <NO.>
4837

>  <Name>
emepronium

>  <IUPAC_name>
4-4-diphenylbutan-2-yl-ethyl-dimethylazanium

>  <SMILES>
CC[N+](C)(C)C(C)CC(c1ccccc1)c1ccccc1

>  <CID>
34055

>  <logBB>


>  <BBB+/BBB->
BBB-

>  <Inchi>
InChI=1S/C20H28N/c1-5-21(3-4)17(2)16-20(18-12-8-6-9-13-18)19-14-10-7-11-15-19/h6-15-17-20H-5-16H2-1-4H3/q+1

>  <threshold>


>  <reference>
R6|R14|

>  <group>
C

>  <Class>
-1

>  <ABC>
15.84

>  <ABCGG>
14

>  <nAcid>
0

>  <nBase>
1

>  <nAromAtom>
12

>  <nAromBond>
12

>  <nAtom>
49

>  <nHeavyAtom>
21

>  <nSpiro>
0

>  <nBridgehead>
0

>  <nHetero>
1

>  <nN>
1

>  <nO>
0

>  <nF>
0

>  <BalabanJ>
2.03

>  <BertzCT>
490.78

>  <nBonds>
50

>  <nBondsO>
22

>  <nBondsS>
38

>  <nBondsD>
0

>  <nBondsT>
0

>  <nBondsA>
12

>  <nBondsM>
12

>  <nBondsKS>
44

>  <nBondsKD>
6

>  <RNCG>
0.31

>  <RPCG>
0.05

>  <FCSP3>
0.4

>  <SZ>
25.83

>  <Sm>
23.52

>  <Sv>
28.34

>  <Sse>
47.59

>  <Sp>
31.84

>  <Si>
55.1

>  <MZ>
0.53

>  <Mm>
0.48

>  <Mv>
0.58

>  <Mse>
0.97

>  <Mp>
0.65

>  <Mi>
1.12

>  <NsCH3>
4

>  <NdCH2>
0

>  <NssCH2>
2

>  <NtCH>
0

>  <NdsCH>
0

>  <NaaCH>
10

>  <NsssCH>
2

>  <NddC>
0

>  <NtsC>
0

>  <NdssC>
0

>  <NaasC>
2

>  <NaaaC>
0

>  <NssssC>
0

>  <NsNH3>
0

>  <NsNH2>
0

>  <NssNH2>
0

>  <NdNH>
0

>  <NssNH>
0

>  <NaaNH>
0

>  <NtN>
0

>  <NsssNH>
0

>  <NdsN>
0

>  <NaaN>
0

>  <NsssN>
0

>  <NddsN>
0

>  <NaasN>
0

>  <NssssN>
1

>  <NsOH>
0

>  <NdO>
0

>  <NssO>
0

>  <NaaO>
0

>  <NsF>
0

>  <NsSiH3>
0

>  <NssSiH2>
0

>  <NsssSiH>
0

>  <NssssSi>
0

>  <NsPH2>
0

>  <NssPH>
0

>  <NsssP>
0

>  <NdsssP>
0

>  <NsssssP>
0

>  <NsSH>
0

>  <NdS>
0

>  <NssS>
0

>  <NaaS>
0

>  <NdssS>
0

>  <NddssS>
0

>  <NsCl>
0

>  <NsBr>
0

>  <NsI>
0

>  <fragCpx>
64.01

>  <fMF>
0.27

>  <nHBAcc>
0

>  <nHBDon>
0

>  <Kier1>
17.36

>  <Kier2>
8.02

>  <Lipinski>
1

>  <GhoseFilter>
1

>  <FilterItLogS>
-5.91

>  <VMcGowan>
257.27

>  <LabuteASA>
129.38

>  <PEOE_VSA1>
4.48

>  <PEOE_VSA2>
0

>  <PEOE_VSA3>
0

>  <PEOE_VSA4>
0

>  <PEOE_VSA5>
0

>  <PEOE_VSA6>
60.66

>  <PEOE_VSA7>
24.97

>  <PEOE_VSA8>
12.34

>  <PEOE_VSA9>
26.68

>  <PEOE_VSA10>
0

>  <PEOE_VSA11>
0

>  <PEOE_VSA12>
0

>  <PEOE_VSA13>
0

>  <SMR_VSA1>
4.48

>  <SMR_VSA2>
0

>  <SMR_VSA3>
0

>  <SMR_VSA4>
0

>  <SMR_VSA5>
32.23

>  <SMR_VSA6>
20.64

>  <SMR_VSA7>
71.79

>  <SMR_VSA8>
0

>  <SMR_VSA9>
0

>  <SlogP_VSA1>
0

>  <SlogP_VSA2>
31.16

>  <SlogP_VSA3>
0

>  <SlogP_VSA4>
0

>  <SlogP_VSA5>
37.31

>  <SlogP_VSA6>
60.66

>  <SlogP_VSA7>
0

>  <SlogP_VSA8>
0

>  <SlogP_VSA9>
0

>  <SlogP_VSA10>
0

>  <SlogP_VSA11>
0

>  <EState_VSA1>
0

>  <EState_VSA2>
0

>  <EState_VSA3>
11.96

>  <EState_VSA4>
11.03

>  <EState_VSA5>
17.55

>  <EState_VSA6>
0

>  <EState_VSA7>
0

>  <EState_VSA8>
88.61

>  <EState_VSA9>
0

>  <EState_VSA10>
0

>  <VSA_EState1>
1.07

>  <VSA_EState2>
0

>  <VSA_EState3>
0

>  <VSA_EState4>
2.85

>  <VSA_EState5>
0.48

>  <VSA_EState6>
22.46

>  <VSA_EState7>
1.18

>  <VSA_EState8>
5.82

>  <VSA_EState9>
4.66

>  <apol>
53.17

>  <bpol>
30.37

>  <nRing>
2

>  <nHRing>
0

>  <naRing>
2

>  <naHRing>
0

>  <nARing 2>
0

>  <nAHRing 2>
0

>  <nFRing>
0

>  <nFHRing>
0

>  <nFaRing>
0

>  <nFaHRing>
0

>  <nFARing 2>
0

>  <nFAHRing 2>
0

>  <nRot>
6

>  <SLogP>
4.69

>  <SMR>
91.46

>  <TopoPSA(NO)>
0

>  <TopoPSA>
0

>  <JGI1>
0.2

>  <JGI2>
0.1

>  <JGI3>
0.04

>  <JGI4>
0.03

>  <JGI5>
0.03

>  <Diameter>
9

>  <Radius>
5

>  <TMWC10>
115.49

>  <TSRW10>
54.57

>  <MW>
282.22

>  <AMW>
5.76

>  <WPath>
904

>  <WPol>
31

>  <Zagreb1>
104

>  <Zagreb2>
119

>  <mZagreb2>
4.76

>  <yes>


>  <nAR-cont>
0.336376

>  <nHA-cont>
0.994529749

>  <MWHBN>
0

>  <MWHBN-cont>
0

>  <TPSA-cont>
0

>  <pka_cont>
0.97

>  <yes.1>


>  <BBB_SCORE>
1.815905749

>  <MMFF94 Energy>
77.337

$$$$
Compound 2359
Actelion Java MolfileCreator 2.0

  0  0  0  0  0  0              0 V3000
M  V30 BEGIN CTAB
M  V30 COUNTS 55 59 0 0 0
M  V30 BEGIN ATOM
M  V30 1 O -4.1911 -1.2076 1.0465 0
M  V30 2 C -2.987 -0.9513 1.0124 0
M  V30 3 C -2.5512 0.4308 1.3472 0
M  V30 4 C -1.9271 -2.0136 0.6745 0 CFG=2
M  V30 5 C -1.3086 0.8583 1.0825 0
M  V30 6 O -2.0422 -3.0856 1.6723 0
M  V30 7 C -0.4811 -1.4939 0.7203 0 CFG=1
M  V30 8 C -0.256 0.0059 0.3841 0 CFG=2
M  V30 9 C -1.1455 -2.6964 2.6379 0
M  V30 10 C -0.2668 -1.7384 2.1805 0
M  V30 11 C 0.5131 -2.3984 -0.0456 0
M  V30 12 C 1.2214 0.2939 0.8804 0 CFG=2
M  V30 13 C -0.4259 0.2844 -1.154 0
M  V30 14 C -1.0954 -3.1168 3.9446 0
M  V30 15 C 0.6283 -1.0811 3.001 0
M  V30 16 C 1.9734 -1.9541 0.1521 0
M  V30 17 N 2.1493 -0.5016 0.0318 0
M  V30 18 C 1.3957 0.0821 2.4339 0
M  V30 19 C -0.1955 1.7406 -1.5939 0
M  V30 20 O -1.9472 -4.0629 4.4203 0
M  V30 21 C -0.1658 -2.5233 4.7995 0
M  V30 22 C 0.6829 -1.4937 4.3348 0
M  V30 23 C 3.5505 -0.1228 0.19 0
M  V30 24 C -0.394 1.8955 -3.1052 0
M  V30 25 C -0.1701 3.3425 -3.55 0
M  V30 26 C -0.3588 3.4924 -5.0585 0
M  V30 27 N -0.1357 4.8762 -5.4603 0
M  V30 28 H -3.301 1.0706 1.799 0
M  V30 29 H -2.1735 -2.4228 -0.3121 0
M  V30 30 H -1.0477 1.8866 1.3262 0
M  V30 31 H 0.2711 -2.3955 -1.1151 0
M  V30 32 H 0.4259 -3.4473 0.2684 0
M  V30 33 H 1.4422 1.3531 0.6934 0
M  V30 34 H -1.4363 -0.0156 -1.4649 0
M  V30 35 H 0.2538 -0.3408 -1.7421 0
M  V30 36 H 2.5801 -2.4599 -0.6093 0
M  V30 37 H 2.3422 -2.3124 1.1213 0
M  V30 38 H 2.4525 -0.0087 2.7034 0
M  V30 39 H 1.0268 0.9878 2.934 0
M  V30 40 H 0.8211 2.0557 -1.3367 0
M  V30 41 H -0.8883 2.4122 -1.0755 0
M  V30 42 H -2.5376 -4.2916 3.6768 0
M  V30 43 H -0.1192 -2.8349 5.8399 0
M  V30 44 H 1.366 -1.0146 5.0325 0
M  V30 45 H 3.9639 -0.4152 1.1604 0
M  V30 46 H 4.1592 -0.5955 -0.5889 0
M  V30 47 H 3.6778 0.9584 0.0691 0
M  V30 48 H -1.409 1.581 -3.3768 0
M  V30 49 H 0.3029 1.2362 -3.6365 0
M  V30 50 H -0.8713 3.9995 -3.0197 0
M  V30 51 H 0.8427 3.6585 -3.2697 0
M  V30 52 H -1.3713 3.1892 -5.3466 0
M  V30 53 H 0.3474 2.8476 -5.5921 0
M  V30 54 H -0.3048 4.9685 -6.4612 0
M  V30 55 H -0.8146 5.4815 -5.0001 0
M  V30 END ATOM
M  V30 BEGIN BOND
M  V30 1 2 1 2
M  V30 2 1 2 3
M  V30 3 1 2 4
M  V30 4 2 3 5
M  V30 5 1 4 6
M  V30 6 1 4 7
M  V30 7 1 5 8
M  V30 8 1 6 9
M  V30 9 1 7 10
M  V30 10 1 7 11
M  V30 11 1 8 12
M  V30 12 1 8 13
M  V30 13 1 9 14
M  V30 14 1 10 15
M  V30 15 1 11 16
M  V30 16 1 12 17
M  V30 17 1 12 18
M  V30 18 1 13 19
M  V30 19 1 14 20
M  V30 20 2 14 21
M  V30 21 2 15 22
M  V30 22 1 17 23
M  V30 23 1 19 24
M  V30 24 1 24 25
M  V30 25 1 25 26
M  V30 26 1 26 27
M  V30 27 1 7 8
M  V30 28 2 9 10
M  V30 29 1 15 18
M  V30 30 1 16 17
M  V30 31 1 21 22
M  V30 32 1 3 28
M  V30 33 1 4 29
M  V30 34 1 5 30
M  V30 35 1 11 31
M  V30 36 1 11 32
M  V30 37 1 12 33
M  V30 38 1 13 34
M  V30 39 1 13 35
M  V30 40 1 16 36
M  V30 41 1 16 37
M  V30 42 1 18 38
M  V30 43 1 18 39
M  V30 44 1 19 40
M  V30 45 1 19 41
M  V30 46 1 20 42
M  V30 47 1 21 43
M  V30 48 1 22 44
M  V30 49 1 23 45
M  V30 50 1 23 46
M  V30 51 1 23 47
M  V30 52 1 24 48
M  V30 53 1 24 49
M  V30 54 1 25 50
M  V30 55 1 25 51
M  V30 56 1 26 52
M  V30 57 1 26 53
M  V30 58 1 27 54
M  V30 59 1 27 55
M  V30 END BOND
M  V30 BEGIN COLLECTION
M  V30 MDLV30/STEABS ATOMS=(4 4 7 8 12)
M  V30 END COLLECTION
M  V30 END CTAB
M  END
>  <Column 1>
2884

>  <level_0>
4836

>  <index>
4836

>  <Unnamed: 0>
4836

>  <NO.>
4848

>  <Name>
pentamorphone

>  <IUPAC_name>
(4r-4ar-7ar-12bs)-4a-(5-aminopentyl)-9-hydroxy-3-methyl-2-4-7a-13-tetrahydro-1h-4-12-methanobenzofuro[3-2-e]isoquinolin-7-one

>  <SMILES>
CN1CC[C@]23c4c5ccc(O)c4O[C@H]2C(=O)C=C[C@@]3(CCCCCN)[C@H]1C5

>  <CID>
10316960

>  <logBB>


>  <BBB+/BBB->
BBB+

>  <Inchi>
InChI=1S/C22H28N2O3/c1-24-12-10-22-18-14-5-6-15(25)19(18)27-20(22)16(26)7-9-21(22-17(24)13-14)8-3-2-4-11-23/h5-7-9-17-20-25H-2-4-8-10-13-23H2-1H3/t17--20+-21+-22+/m1/s1

>  <threshold>


>  <reference>
R6|

>  <group>
C

>  <Class>
1

>  <ABC>
21.77

>  <ABCGG>
16.76

>  <nAcid>
0

>  <nBase>
2

>  <nAromAtom>
6

>  <nAromBond>
6

>  <nAtom>
55

>  <nHeavyAtom>
27

>  <nSpiro>
1

>  <nBridgehead>
2

>  <nHetero>
5

>  <nN>
2

>  <nO>
3

>  <nF>
0

>  <BalabanJ>
1.58

>  <BertzCT>
835.09

>  <nBonds>
59

>  <nBondsO>
31

>  <nBondsS>
51

>  <nBondsD>
2

>  <nBondsT>
0

>  <nBondsA>
6

>  <nBondsM>
8

>  <nBondsKS>
54

>  <nBondsKD>
5

>  <RNCG>
0.21

>  <RPCG>
0.12

>  <FCSP3>
0.59

>  <SZ>
33

>  <Sm>
30.68

>  <Sv>
33.25

>  <Sse>
54.75

>  <Sp>
35.94

>  <Si>
62.02

>  <MZ>
0.6

>  <Mm>
0.56

>  <Mv>
0.6

>  <Mse>
1

>  <Mp>
0.65

>  <Mi>
1.13

>  <NsCH3>
1

>  <NdCH2>
0

>  <NssCH2>
8

>  <NtCH>
0

>  <NdsCH>
2

>  <NaaCH>
2

>  <NsssCH>
2

>  <NddC>
0

>  <NtsC>
0

>  <NdssC>
1

>  <NaasC>
4

>  <NaaaC>
0

>  <NssssC>
2

>  <NsNH3>
0

>  <NsNH2>
1

>  <NssNH2>
0

>  <NdNH>
0

>  <NssNH>
0

>  <NaaNH>
0

>  <NtN>
0

>  <NsssNH>
0

>  <NdsN>
0

>  <NaaN>
0

>  <NsssN>
1

>  <NddsN>
0

>  <NaasN>
0

>  <NssssN>
0

>  <NsOH>
1

>  <NdO>
1

>  <NssO>
1

>  <NaaO>
0

>  <NsF>
0

>  <NsSiH3>
0

>  <NssSiH2>
0

>  <NsssSiH>
0

>  <NssssSi>
0

>  <NsPH2>
0

>  <NssPH>
0

>  <NsssP>
0

>  <NdsssP>
0

>  <NsssssP>
0

>  <NsSH>
0

>  <NdS>
0

>  <NssS>
0

>  <NaaS>
0

>  <NdssS>
0

>  <NddssS>
0

>  <NsCl>
0

>  <NsBr>
0

>  <NsI>
0

>  <fragCpx>
259.05

>  <fMF>
0.33

>  <nHBAcc>
5

>  <nHBDon>
2

>  <Kier1>
18.99

>  <Kier2>
6.77

>  <Lipinski>
1

>  <GhoseFilter>
1

>  <FilterItLogS>
-4.29

>  <VMcGowan>
282.61

>  <LabuteASA>
159.73

>  <PEOE_VSA1>
20.48

>  <PEOE_VSA2>
4.79

>  <PEOE_VSA3>
0

>  <PEOE_VSA4>
0

>  <PEOE_VSA5>
0

>  <PEOE_VSA6>
24.98

>  <PEOE_VSA7>
63.53

>  <PEOE_VSA8>
17.02

>  <PEOE_VSA9>
5.41

>  <PEOE_VSA10>
0

>  <PEOE_VSA11>
23.39

>  <PEOE_VSA12>
0

>  <PEOE_VSA13>
0

>  <SMR_VSA1>
14.64

>  <SMR_VSA2>
0

>  <SMR_VSA3>
4.9

>  <SMR_VSA4>
11.15

>  <SMR_VSA5>
56.09

>  <SMR_VSA6>
20.14

>  <SMR_VSA7>
35.41

>  <SMR_VSA8>
0

>  <SMR_VSA9>
11.5

>  <SlogP_VSA1>
10.47

>  <SlogP_VSA2>
48.07

>  <SlogP_VSA3>
16.63

>  <SlogP_VSA4>
5.41

>  <SlogP_VSA5>
43.23

>  <SlogP_VSA6>
24.28

>  <SlogP_VSA7>
0

>  <SlogP_VSA8>
0

>  <SlogP_VSA9>
0

>  <SlogP_VSA10>
0

>  <SlogP_VSA11>
11.5

>  <EState_VSA1>
6.1

>  <EState_VSA2>
22.36

>  <EState_VSA3>
11.79

>  <EState_VSA4>
57.18

>  <EState_VSA5>
5.56

>  <EState_VSA6>
12.14

>  <EState_VSA7>
6.07

>  <EState_VSA8>
18.02

>  <EState_VSA9>
10.47

>  <EState_VSA10>
9.9

>  <VSA_EState1>
6.22

>  <VSA_EState2>
15.38

>  <VSA_EState3>
10.49

>  <VSA_EState4>
7.59

>  <VSA_EState5>
0.77

>  <VSA_EState6>
4.11

>  <VSA_EState7>
9.56

>  <VSA_EState8>
1.67

>  <VSA_EState9>
2.21

>  <apol>
60.02

>  <bpol>
31.83

>  <nRing>
5

>  <nHRing>
2

>  <naRing>
1

>  <naHRing>
0

>  <nARing 2>
4

>  <nAHRing 2>
2

>  <nFRing>
1

>  <nFHRing>
1

>  <nFaRing>
0

>  <nFaHRing>
0

>  <nFARing 2>
1

>  <nFAHRing 2>
1

>  <nRot>
5

>  <SLogP>
2.3

>  <SMR>
103.04

>  <TopoPSA(NO)>
75.79

>  <TopoPSA>
75.79

>  <JGI1>
0.19

>  <JGI2>
0.11

>  <JGI3>
0.06

>  <JGI4>
0.05

>  <JGI5>
0.03

>  <Diameter>
11

>  <Radius>
6

>  <TMWC10>
139.3

>  <TSRW10>
78.52

>  <MW>
368.21

>  <AMW>
6.69

>  <WPath>
1518

>  <WPol>
62

>  <Zagreb1>
160

>  <Zagreb2>
208

>  <mZagreb2>
5.83

>  <yes>


>  <nAR-cont>
0.199399

>  <nHA-cont>
0.860070871

>  <MWHBN>
0.364796154

>  <MWHBN-cont>
0.614006077

>  <TPSA-cont>
0.470938737

>  <pka_cont>
0.97

>  <yes.1>


>  <BBB_SCORE>
3.407356461

>  <MMFF94 Energy>
105.12

$$$$
Compound 2360
Actelion Java MolfileCreator 2.0

  0  0  0  0  0  0              0 V3000
M  V30 BEGIN CTAB
M  V30 COUNTS 32 33 0 0 0
M  V30 BEGIN ATOM
M  V30 1 Cl 1.3676 2.9783 1.0456 0
M  V30 2 C 1.4978 2.0217 -0.3889 0
M  V30 3 C 0.9794 0.7167 -0.4805 0
M  V30 4 C 2.1499 2.61 -1.4799 0
M  V30 5 C 1.168 0.0187 -1.6925 0
M  V30 6 C 0.2647 0.0307 0.6836 0
M  V30 7 C 2.3076 1.9073 -2.6725 0
M  V30 8 C 1.8204 0.6097 -2.7767 0
M  V30 9 C 1.1367 -1.098 1.2614 0
M  V30 10 C -1.1634 -0.5163 0.3475 0
M  V30 11 O 2.2816 -1.3469 0.8811 0
M  V30 12 C 0.5446 -1.8764 2.4102 0
M  V30 13 N -2.1792 0.5281 0.0758 0
M  V30 14 C -1.7322 -1.3256 1.541 0
M  V30 15 C -0.7965 -2.4405 1.9893 0
M  V30 16 C -2.1137 1.0942 -1.2657 0
M  V30 17 H 2.5447 3.6202 -1.4017 0
M  V30 18 H 0.8239 -1.008 -1.7974 0
M  V30 19 H 0.143 0.7355 1.5139 0
M  V30 20 H 2.821 2.3677 -3.5124 0
M  V30 21 H 1.9585 0.049 -3.6979 0
M  V30 22 H -1.1147 -1.2083 -0.5033 0
M  V30 23 H 0.4507 -1.2088 3.2734 0
M  V30 24 H 1.2247 -2.6899 2.6837 0
M  V30 25 H -3.1128 0.1306 0.1915 0
M  V30 26 H -2.6953 -1.7741 1.2638 0
M  V30 27 H -1.9272 -0.6576 2.3914 0
M  V30 28 H -1.2466 -2.9854 2.8268 0
M  V30 29 H -0.6634 -3.1573 1.1697 0
M  V30 30 H -2.0703 0.3188 -2.0368 0
M  V30 31 H -3.0193 1.6837 -1.4456 0
M  V30 32 H -1.2761 1.7831 -1.3817 0
M  V30 END ATOM
M  V30 BEGIN BOND
M  V30 1 1 1 2
M  V30 2 2 2 3
M  V30 3 1 2 4
M  V30 4 1 3 5
M  V30 5 1 3 6
M  V30 6 2 4 7
M  V30 7 2 5 8
M  V30 8 1 6 9
M  V30 9 1 6 10
M  V30 10 2 9 11
M  V30 11 1 9 12
M  V30 12 1 10 13
M  V30 13 1 10 14
M  V30 14 1 12 15
M  V30 15 1 13 16
M  V30 16 1 7 8
M  V30 17 1 14 15
M  V30 18 1 4 17
M  V30 19 1 5 18
M  V30 20 1 6 19
M  V30 21 1 7 20
M  V30 22 1 8 21
M  V30 23 1 10 22
M  V30 24 1 12 23
M  V30 25 1 12 24
M  V30 26 1 13 25
M  V30 27 1 14 26
M  V30 28 1 14 27
M  V30 29 1 15 28
M  V30 30 1 15 29
M  V30 31 1 16 30
M  V30 32 1 16 31
M  V30 33 1 16 32
M  V30 END BOND
M  V30 END CTAB
M  END
>  <Column 1>
2885

>  <level_0>
4847

>  <index>
4847

>  <Unnamed: 0>
4847

>  <NO.>
4859

>  <Name>
ketamine

>  <IUPAC_name>
2-(2-chlorophenyl)-3-(methylamino)cyclohexan-1-one

>  <SMILES>
CNC1CCCC(=O)C1c1ccccc1Cl

>  <CID>
13566109

>  <logBB>


>  <BBB+/BBB->
BBB+

>  <Inchi>
InChI=1S/C13H16ClNO/c1-15-11-7-4-8-12(16)13(11)9-5-2-3-6-10(9)14/h2-3-5-6-11-13-15H-4-7-8H2-1H3

>  <threshold>


>  <reference>
R6|

>  <group>
C

>  <Class>
1

>  <ABC>
12.08

>  <ABCGG>
10.84

>  <nAcid>
0

>  <nBase>
1

>  <nAromAtom>
6

>  <nAromBond>
6

>  <nAtom>
32

>  <nHeavyAtom>
16

>  <nSpiro>
0

>  <nBridgehead>
0

>  <nHetero>
3

>  <nN>
1

>  <nO>
1

>  <nF>
0

>  <BalabanJ>
2.07

>  <BertzCT>
391.27

>  <nBonds>
33

>  <nBondsO>
17

>  <nBondsS>
26

>  <nBondsD>
1

>  <nBondsT>
0

>  <nBondsA>
6

>  <nBondsM>
7

>  <nBondsKS>
29

>  <nBondsKD>
4

>  <RNCG>
0.3

>  <RPCG>
0.14

>  <FCSP3>
0.46

>  <SZ>
21

>  <Sm>
19.79

>  <Sv>
19.9

>  <Sse>
31.86

>  <Sp>
21.83

>  <Si>
35.97

>  <MZ>
0.66

>  <Mm>
0.62

>  <Mv>
0.62

>  <Mse>
1

>  <Mp>
0.68

>  <Mi>
1.12

>  <NsCH3>
1

>  <NdCH2>
0

>  <NssCH2>
3

>  <NtCH>
0

>  <NdsCH>
0

>  <NaaCH>
4

>  <NsssCH>
2

>  <NddC>
0

>  <NtsC>
0

>  <NdssC>
1

>  <NaasC>
2

>  <NaaaC>
0

>  <NssssC>
0

>  <NsNH3>
0

>  <NsNH2>
0

>  <NssNH2>
0

>  <NdNH>
0

>  <NssNH>
1

>  <NaaNH>
0

>  <NtN>
0

>  <NsssNH>
0

>  <NdsN>
0

>  <NaaN>
0

>  <NsssN>
0

>  <NddsN>
0

>  <NaasN>
0

>  <NssssN>
0

>  <NsOH>
0

>  <NdO>
1

>  <NssO>
0

>  <NaaO>
0

>  <NsF>
0

>  <NsSiH3>
0

>  <NssSiH2>
0

>  <NsssSiH>
0

>  <NssssSi>
0

>  <NsPH2>
0

>  <NssPH>
0

>  <NsssP>
0

>  <NdsssP>
0

>  <NsssssP>
0

>  <NsSH>
0

>  <NdS>
0

>  <NssS>
0

>  <NaaS>
0

>  <NdssS>
0

>  <NddssS>
0

>  <NsCl>
1

>  <NsBr>
0

>  <NsI>
0

>  <fragCpx>
49.03

>  <fMF>
0.38

>  <nHBAcc>
2

>  <nHBDon>
1

>  <Kier1>
12.46

>  <Kier2>
5.56

>  <Lipinski>
1

>  <GhoseFilter>
1

>  <FilterItLogS>
-3.95

>  <VMcGowan>
183.2

>  <LabuteASA>
100.99

>  <PEOE_VSA1>
5.32

>  <PEOE_VSA2>
4.79

>  <PEOE_VSA3>
0

>  <PEOE_VSA4>
0

>  <PEOE_VSA5>
0

>  <PEOE_VSA6>
29.8

>  <PEOE_VSA7>
31.52

>  <PEOE_VSA8>
17.49

>  <PEOE_VSA9>
5.92

>  <PEOE_VSA10>
5.78

>  <PEOE_VSA11>
0

>  <PEOE_VSA12>
0

>  <PEOE_VSA13>
0

>  <SMR_VSA1>
4.79

>  <SMR_VSA2>
0

>  <SMR_VSA3>
5.32

>  <SMR_VSA4>
0

>  <SMR_VSA5>
31.22

>  <SMR_VSA6>
7.05

>  <SMR_VSA7>
34.85

>  <SMR_VSA8>
0

>  <SMR_VSA9>
0

>  <SlogP_VSA1>
5.32

>  <SlogP_VSA2>
18.87

>  <SlogP_VSA3>
4.79

>  <SlogP_VSA4>
0

>  <SlogP_VSA5>
30.74

>  <SlogP_VSA6>
24.27

>  <SlogP_VSA7>
5.02

>  <SlogP_VSA8>
0

>  <SlogP_VSA9>
0

>  <SlogP_VSA10>
0

>  <SlogP_VSA11>
0

>  <EState_VSA1>
0

>  <EState_VSA2>
11.96

>  <EState_VSA3>
17.23

>  <EState_VSA4>
18.41

>  <EState_VSA5>
0

>  <EState_VSA6>
0

>  <EState_VSA7>
31.31

>  <EState_VSA8>
5.32

>  <EState_VSA9>
11.6

>  <EState_VSA10>
4.79

>  <VSA_EState1>
0

>  <VSA_EState2>
12.02

>  <VSA_EState3>
3.93

>  <VSA_EState4>
0.97

>  <VSA_EState5>
0.23

>  <VSA_EState6>
7.87

>  <VSA_EState7>
2.69

>  <VSA_EState8>
0

>  <VSA_EState9>
1.91

>  <apol>
36.46

>  <bpol>
18

>  <nRing>
2

>  <nHRing>
0

>  <naRing>
1

>  <naHRing>
0

>  <nARing 2>
1

>  <nAHRing 2>
0

>  <nFRing>
0

>  <nFHRing>
0

>  <nFaRing>
0

>  <nFaHRing>
0

>  <nFARing 2>
0

>  <nFAHRing 2>
0

>  <nRot>
2

>  <SLogP>
2.76

>  <SMR>
65.9

>  <TopoPSA(NO)>
29.1

>  <TopoPSA>
29.1

>  <JGI1>
0.15

>  <JGI2>
0.09

>  <JGI3>
0.06

>  <JGI4>
0.05

>  <JGI5>
0.02

>  <Diameter>
7

>  <Radius>
4

>  <TMWC10>
103.85

>  <TSRW10>
48.43

>  <MW>
237.09

>  <AMW>
7.41

>  <WPath>
404

>  <WPol>
25

>  <Zagreb1>
80

>  <Zagreb2>
94

>  <mZagreb2>
3.69

>  <yes>


>  <nAR-cont>
0.816016

>  <nHA-cont>
0.954961865

>  <MWHBN>
0.19483395

>  <MWHBN-cont>
0.998111533

>  <TPSA-cont>
0.79686393

>  <pka_cont>
0.97

>  <yes.1>


>  <BBB_SCORE>
5.346873025

>  <MMFF94 Energy>
51.294

$$$$
Compound 2361
Actelion Java MolfileCreator 2.0

  0  0  0  0  0  0              0 V3000
M  V30 BEGIN CTAB
M  V30 COUNTS 57 60 0 0 0
M  V30 BEGIN ATOM
M  V30 1 S 3.0327 -3.8536 -0.3275 0
M  V30 2 C 2.244 -3.1875 1.1157 0
M  V30 3 C 4.4578 -4.6389 0.458 0
M  V30 4 O 2.8055 -3.2054 2.2038 0
M  V30 5 C 0.8486 -2.5542 0.8465 0 CFG=2
M  V30 6 O 0.1104 -3.2909 -0.1367 0
M  V30 7 C 0.9094 -1.0386 0.4411 0 CFG=2
M  V30 8 C -0.0086 -2.5156 2.161 0 CFG=1
M  V30 9 C -0.5617 -0.639 0.7063 0 CFG=1
M  V30 10 C 1.1949 -0.7407 -1.0478 0
M  V30 11 C 1.9209 -0.2815 1.3445 0
M  V30 12 C -0.8621 -1.2241 2.0843 0
M  V30 13 C -0.8688 -3.7563 2.3889 0
M  V30 14 C -0.8488 0.8509 0.463 0 CFG=1
M  V30 15 C 0.8917 0.7209 -1.4545 0 CFG=1
M  V30 16 C -0.5333 1.1957 -1.0309 0 CFG=1
M  V30 17 C -2.312 1.1828 0.8036 0
M  V30 18 O 1.9176 1.5735 -0.9586 0
M  V30 19 F -1.3997 0.417 -1.7831 0
M  V30 20 C -0.8872 2.702 -1.3765 0 CFG=2
M  V30 21 C -2.6691 2.6271 0.4799 0 CFG=1
M  V30 22 C -2.3471 2.9508 -0.9557 0
M  V30 23 C -0.6993 2.9746 -2.869 0
M  V30 24 C -0.0029 3.7382 -0.6441 0
M  V30 25 F -3.9966 2.795 0.7442 0
M  V30 26 C -3.3051 3.3779 -1.7986 0
M  V30 27 C -1.6577 3.3989 -3.7032 0
M  V30 28 C -3.0304 3.6452 -3.2234 0
M  V30 29 O -3.9019 4.0569 -3.9781 0
M  V30 30 H 5.084 -3.8924 0.9543 0
M  V30 31 H 5.0582 -5.1394 -0.3062 0
M  V30 32 H 4.1322 -5.3864 1.1865 0
M  V30 33 H 0.7173 -3.4967 -0.8719 0
M  V30 34 H 0.6412 -2.4162 3.0396 0
M  V30 35 H -1.2059 -1.1915 0.0034 0
M  V30 36 H 0.5823 -1.3901 -1.6846 0
M  V30 37 H 2.2423 -0.9719 -1.2735 0
M  V30 38 H 1.8263 -0.5474 2.4016 0
M  V30 39 H 2.9503 -0.51 1.0457 0
M  V30 40 H 1.8102 0.8032 1.3006 0
M  V30 41 H -0.5618 -0.5299 2.8782 0
M  V30 42 H -1.9321 -1.4209 2.2106 0
M  V30 43 H -1.6377 -3.8678 1.6175 0
M  V30 44 H -1.3802 -3.6924 3.3555 0
M  V30 45 H -0.2516 -4.6603 2.395 0
M  V30 46 H -0.2163 1.4534 1.1225 0
M  V30 47 H 0.9572 0.7555 -2.5482 0
M  V30 48 H -2.5062 1.0083 1.8688 0
M  V30 49 H -2.9927 0.5106 0.2642 0
M  V30 50 H 2.7648 1.2705 -1.3324 0
M  V30 51 H -2.133 3.3101 1.1468 0
M  V30 52 H 0.299 2.8382 -3.2787 0
M  V30 53 H -0.4298 4.747 -0.7227 0
M  V30 54 H 0.1068 3.5217 0.4224 0
M  V30 55 H 1.0039 3.8032 -1.0698 0
M  V30 56 H -4.3325 3.5322 -1.4858 0
M  V30 57 H -1.4748 3.5912 -4.7533 0
M  V30 END ATOM
M  V30 BEGIN BOND
M  V30 1 1 1 2
M  V30 2 1 1 3
M  V30 3 2 2 4
M  V30 4 1 2 5
M  V30 5 1 5 6
M  V30 6 1 5 7
M  V30 7 1 5 8
M  V30 8 1 7 9
M  V30 9 1 7 10
M  V30 10 1 7 11
M  V30 11 1 8 12
M  V30 12 1 8 13
M  V30 13 1 9 14
M  V30 14 1 10 15
M  V30 15 1 14 16
M  V30 16 1 14 17
M  V30 17 1 15 18
M  V30 18 1 16 19
M  V30 19 1 16 20
M  V30 20 1 17 21
M  V30 21 1 20 22
M  V30 22 1 20 23
M  V30 23 1 20 24
M  V30 24 1 21 25
M  V30 25 2 22 26
M  V30 26 2 23 27
M  V30 27 1 26 28
M  V30 28 2 28 29
M  V30 29 1 9 12
M  V30 30 1 15 16
M  V30 31 1 21 22
M  V30 32 1 27 28
M  V30 33 1 3 30
M  V30 34 1 3 31
M  V30 35 1 3 32
M  V30 36 1 6 33
M  V30 37 1 8 34
M  V30 38 1 9 35
M  V30 39 1 10 36
M  V30 40 1 10 37
M  V30 41 1 11 38
M  V30 42 1 11 39
M  V30 43 1 11 40
M  V30 44 1 12 41
M  V30 45 1 12 42
M  V30 46 1 13 43
M  V30 47 1 13 44
M  V30 48 1 13 45
M  V30 49 1 14 46
M  V30 50 1 15 47
M  V30 51 1 17 48
M  V30 52 1 17 49
M  V30 53 1 18 50
M  V30 54 1 21 51
M  V30 55 1 23 52
M  V30 56 1 24 53
M  V30 57 1 24 54
M  V30 58 1 24 55
M  V30 59 1 26 56
M  V30 60 1 27 57
M  V30 END BOND
M  V30 BEGIN COLLECTION
M  V30 MDLV30/STEABS ATOMS=(9 5 7 8 9 14 15 16 20 21)
M  V30 END COLLECTION
M  V30 END CTAB
M  END
>  <Column 1>
2892

>  <level_0>
4906

>  <index>
4906

>  <Unnamed: 0>
4906

>  <NO.>
4918

>  <Name>
ticabesone

>  <IUPAC_name>
s-methyl (6s-8s-9r-10s-11s-13s-14s-16r-17r)-6-9-difluoro-11-17-dihydroxy-10-13-16-trimethyl-3-oxo-6-7-8-11-12-14-15-16-octahydrocyclopenta[a]phenanthrene-17-carbothioate

>  <SMILES>
CSC(=O)[C@@]1(O)[C@H](C)C[C@H]2[C@@H]3C[C@H](F)C4=CC(=O)C=C[C@]4(C)[C@@]3(F)[C@@H](O)C[C@@]21C

>  <CID>
23254171

>  <logBB>


>  <BBB+/BBB->
BBB+

>  <Inchi>
InChI=1S/C22H28F2O4S/c1-11-7-13-14-9-16(23)15-8-12(25)5-6-19(15-2)21(14-24)17(26)10-20(13-3)22(11-28)18(27)29-4/h5-6-8-11-13-14-16-17-26-28H-7-9-10H2-1-4H3/t11--13+-14+-16+-17+-19+-20+-21+-22+/m1/s1

>  <threshold>


>  <reference>
R6|

>  <group>
C

>  <Class>
1

>  <ABC>
23.17

>  <ABCGG>
19.7

>  <nAcid>
0

>  <nBase>
0

>  <nAromAtom>
0

>  <nAromBond>
0

>  <nAtom>
57

>  <nHeavyAtom>
29

>  <nSpiro>
0

>  <nBridgehead>
0

>  <nHetero>
7

>  <nN>
0

>  <nO>
4

>  <nF>
2

>  <BalabanJ>
1.8

>  <BertzCT>
842.67

>  <nBonds>
60

>  <nBondsO>
32

>  <nBondsS>
56

>  <nBondsD>
4

>  <nBondsT>
0

>  <nBondsA>
0

>  <nBondsM>
4

>  <nBondsKS>
56

>  <nBondsKD>
4

>  <RNCG>
0.17

>  <RPCG>
0.1

>  <FCSP3>
0.73

>  <SZ>
37.67

>  <Sm>
35.51

>  <Sv>
34.92

>  <Sse>
57.74

>  <Sp>
37.5

>  <Si>
64.67

>  <MZ>
0.66

>  <Mm>
0.62

>  <Mv>
0.61

>  <Mse>
1.01

>  <Mp>
0.66

>  <Mi>
1.13

>  <NsCH3>
4

>  <NdCH2>
0

>  <NssCH2>
3

>  <NtCH>
0

>  <NdsCH>
3

>  <NaaCH>
0

>  <NsssCH>
5

>  <NddC>
0

>  <NtsC>
0

>  <NdssC>
3

>  <NaasC>
0

>  <NaaaC>
0

>  <NssssC>
4

>  <NsNH3>
0

>  <NsNH2>
0

>  <NssNH2>
0

>  <NdNH>
0

>  <NssNH>
0

>  <NaaNH>
0

>  <NtN>
0

>  <NsssNH>
0

>  <NdsN>
0

>  <NaaN>
0

>  <NsssN>
0

>  <NddsN>
0

>  <NaasN>
0

>  <NssssN>
0

>  <NsOH>
2

>  <NdO>
2

>  <NssO>
0

>  <NaaO>
0

>  <NsF>
2

>  <NsSiH3>
0

>  <NssSiH2>
0

>  <NsssSiH>
0

>  <NssssSi>
0

>  <NsPH2>
0

>  <NssPH>
0

>  <NsssP>
0

>  <NdsssP>
0

>  <NsssssP>
0

>  <NsSH>
0

>  <NdS>
0

>  <NssS>
1

>  <NaaS>
0

>  <NdssS>
0

>  <NddssS>
0

>  <NsCl>
0

>  <NsBr>
0

>  <NsI>
0

>  <fragCpx>
212.07

>  <fMF>
0.3

>  <nHBAcc>
5

>  <nHBDon>
2

>  <Kier1>
22.2

>  <Kier2>
6.75

>  <Lipinski>
1

>  <GhoseFilter>
1

>  <FilterItLogS>
-3.48

>  <VMcGowan>
303.55

>  <LabuteASA>
173.37

>  <PEOE_VSA1>
10.21

>  <PEOE_VSA2>
9.59

>  <PEOE_VSA3>
8.78

>  <PEOE_VSA4>
0

>  <PEOE_VSA5>
0

>  <PEOE_VSA6>
31.69

>  <PEOE_VSA7>
62

>  <PEOE_VSA8>
16.75

>  <PEOE_VSA9>
6.1

>  <PEOE_VSA10>
11.77

>  <PEOE_VSA11>
11.45

>  <PEOE_VSA12>
5.12

>  <PEOE_VSA13>
0

>  <SMR_VSA1>
28.58

>  <SMR_VSA2>
0

>  <SMR_VSA3>
0

>  <SMR_VSA4>
28.58

>  <SMR_VSA5>
63.58

>  <SMR_VSA6>
6.26

>  <SMR_VSA7>
23.8

>  <SMR_VSA8>
0

>  <SMR_VSA9>
0

>  <SlogP_VSA1>
0

>  <SlogP_VSA2>
50.91

>  <SlogP_VSA3>
9.59

>  <SlogP_VSA4>
28.58

>  <SlogP_VSA5>
40.03

>  <SlogP_VSA6>
23.8

>  <SlogP_VSA7>
0

>  <SlogP_VSA8>
0

>  <SlogP_VSA9>
0

>  <SlogP_VSA10>
8.78

>  <SlogP_VSA11>
0

>  <EState_VSA1>
57.24

>  <EState_VSA2>
24.2

>  <EState_VSA3>
6.42

>  <EState_VSA4>
17.84

>  <EState_VSA5>
12.15

>  <EState_VSA6>
27.03

>  <EState_VSA7>
0

>  <EState_VSA8>
0

>  <EState_VSA9>
0

>  <EState_VSA10>
19.8

>  <VSA_EState1>
32.18

>  <VSA_EState2>
24.58

>  <VSA_EState3>
22.24

>  <VSA_EState4>
-6.32

>  <VSA_EState5>
-2.16

>  <VSA_EState6>
0

>  <VSA_EState7>
2.49

>  <VSA_EState8>
5.05

>  <VSA_EState9>
0

>  <apol>
62.63

>  <bpol>
34.51

>  <nRing>
4

>  <nHRing>
0

>  <naRing>
0

>  <naHRing>
0

>  <nARing 2>
4

>  <nAHRing 2>
0

>  <nFRing>
1

>  <nFHRing>
0

>  <nFaRing>
0

>  <nFaHRing>
0

>  <nFARing 2>
1

>  <nFAHRing 2>
0

>  <nRot>
1

>  <SLogP>
3.17

>  <SMR>
106.65

>  <TopoPSA(NO)>
74.6

>  <TopoPSA>
99.9

>  <JGI1>
0.33

>  <JGI2>
0.16

>  <JGI3>
0.08

>  <JGI4>
0.06

>  <JGI5>
0.04

>  <Diameter>
12

>  <Radius>
6

>  <TMWC10>
143.1

>  <TSRW10>
81.26

>  <MW>
426.17

>  <AMW>
7.48

>  <WPath>
1810

>  <WPol>
73

>  <Zagreb1>
174

>  <Zagreb2>
229

>  <mZagreb2>
6.01

>  <yes>


>  <nAR-cont>
0.199399

>  <nHA-cont>
0.785905698

>  <MWHBN>
0.339083457

>  <MWHBN-cont>
0.710457731

>  <TPSA-cont>
0.302635966

>  <pka_cont>
0.97

>  <yes.1>


>  <BBB_SCORE>
3.141263226

>  <MMFF94 Energy>
151.77

$$$$
Compound 2362
Actelion Java MolfileCreator 2.0

  0  0  0  0  0  0              0 V3000
M  V30 BEGIN CTAB
M  V30 COUNTS 55 58 0 0 0
M  V30 BEGIN ATOM
M  V30 1 F 1.8624 4.1333 -0.4046 0
M  V30 2 C 0.811 3.2859 -0.5957 0 CFG=2
M  V30 3 C -0.2289 3.4471 0.4815 0
M  V30 4 C 1.3555 1.8658 -0.5762 0
M  V30 5 C -0.0647 4.3401 1.4745 0
M  V30 6 C -1.4283 2.4961 0.3809 0 CFG=2
M  V30 7 C 0.249 0.8002 -0.6931 0
M  V30 8 C -1.0403 4.4729 2.5741 0
M  V30 9 C -2.376 2.6863 1.5603 0
M  V30 10 C -0.8653 1.0175 0.3747 0
M  V30 11 C -2.2335 2.879 -0.8813 0
M  V30 12 C 0.8666 -0.6202 -0.6559 0
M  V30 13 O -0.8837 5.288 3.4736 0
M  V30 14 C -2.2093 3.5743 2.5494 0
M  V30 15 C -1.9324 -0.102 0.2912 0 CFG=1
M  V30 16 C -0.1609 -1.7752 -0.7009 0 CFG=2
M  V30 17 C 1.6992 -0.9423 0.5916 0
M  V30 18 O -2.8146 0.0348 -0.8106 0
M  V30 19 C -1.3242 -1.5108 0.3014 0
M  V30 20 C 0.6534 -3.0196 -0.1836 0 CFG=2
M  V30 21 C -0.7169 -1.969 -2.1231 0
M  V30 22 C 1.9181 -2.4526 0.5061 0 CFG=2
M  V30 23 C 0.945 -4.0958 -1.2252 0
M  V30 24 C 2.1736 -3.0761 1.8736 0
M  V30 25 O 0.1618 -5.0067 -1.4782 0
M  V30 26 C 2.2416 -3.9959 -2.0282 0
M  V30 27 O 2.5381 -3.0556 -2.7365 0
M  V30 28 O 3.0433 -5.0457 -1.8225 0
M  V30 29 H 0.3902 3.5276 -1.5765 0
M  V30 30 H 1.9275 1.7316 0.3503 0
M  V30 31 H 2.0793 1.7488 -1.3922 0
M  V30 32 H 0.7969 4.9968 1.5344 0
M  V30 33 H -0.2039 0.9216 -1.6851 0
M  V30 34 H -3.2762 2.0738 1.5808 0
M  V30 35 H -0.3802 0.8832 1.3544 0
M  V30 36 H -3.2327 2.43 -0.8909 0
M  V30 37 H -1.7312 2.5807 -1.8064 0
M  V30 38 H -2.3895 3.9646 -0.9366 0
M  V30 39 H 1.5349 -0.7098 -1.525 0
M  V30 40 H -2.9198 3.6851 3.3598 0
M  V30 41 H -2.5715 -0.0421 1.1792 0
M  V30 42 H 2.6595 -0.4161 0.5914 0
M  V30 43 H 1.1775 -0.6739 1.5159 0
M  V30 44 H -2.31 0.2124 -1.618 0
M  V30 45 H -0.9643 -1.6883 1.3241 0
M  V30 46 H -2.1171 -2.2504 0.128 0
M  V30 47 H 0.055 -3.5499 0.5715 0
M  V30 48 H 0.0717 -2.218 -2.8386 0
M  V30 49 H -1.4622 -2.7711 -2.1505 0
M  V30 50 H -1.1861 -1.0684 -2.5197 0
M  V30 51 H 2.8167 -2.6221 -0.0949 0
M  V30 52 H 3.0627 -2.6368 2.3378 0
M  V30 53 H 1.3275 -2.9181 2.551 0
M  V30 54 H 2.3374 -4.1547 1.7809 0
M  V30 55 H 3.8154 -4.8991 -2.4062 0
M  V30 END ATOM
M  V30 BEGIN BOND
M  V30 1 1 1 2
M  V30 2 1 2 3
M  V30 3 1 2 4
M  V30 4 2 3 5
M  V30 5 1 3 6
M  V30 6 1 4 7
M  V30 7 1 5 8
M  V30 8 1 6 9
M  V30 9 1 6 10
M  V30 10 1 6 11
M  V30 11 1 7 12
M  V30 12 2 8 13
M  V30 13 1 8 14
M  V30 14 1 10 15
M  V30 15 1 12 16
M  V30 16 1 12 17
M  V30 17 1 15 18
M  V30 18 1 15 19
M  V30 19 1 16 20
M  V30 20 1 16 21
M  V30 21 1 17 22
M  V30 22 1 20 23
M  V30 23 1 22 24
M  V30 24 2 23 25
M  V30 25 1 23 26
M  V30 26 2 26 27
M  V30 27 1 26 28
M  V30 28 1 7 10
M  V30 29 2 9 14
M  V30 30 1 16 19
M  V30 31 1 20 22
M  V30 32 1 2 29
M  V30 33 1 4 30
M  V30 34 1 4 31
M  V30 35 1 5 32
M  V30 36 1 7 33
M  V30 37 1 9 34
M  V30 38 1 10 35
M  V30 39 1 11 36
M  V30 40 1 11 37
M  V30 41 1 11 38
M  V30 42 1 12 39
M  V30 43 1 14 40
M  V30 44 1 15 41
M  V30 45 1 17 42
M  V30 46 1 17 43
M  V30 47 1 18 44
M  V30 48 1 19 45
M  V30 49 1 19 46
M  V30 50 1 20 47
M  V30 51 1 21 48
M  V30 52 1 21 49
M  V30 53 1 21 50
M  V30 54 1 22 51
M  V30 55 1 24 52
M  V30 56 1 24 53
M  V30 57 1 24 54
M  V30 58 1 28 55
M  V30 END BOND
M  V30 BEGIN COLLECTION
M  V30 MDLV30/STEABS ATOMS=(6 2 6 15 16 20 22)
M  V30 END COLLECTION
M  V30 END CTAB
M  END
>  <Column 1>
2894

>  <level_0>
4915

>  <index>
4915

>  <Unnamed: 0>
4915

>  <NO.>
4927

>  <Name>
fluocortin

>  <IUPAC_name>
2-[(6s-10r-11s-13s-16r-17s)-6-fluoro-11-hydroxy-10-13-16-trimethyl-3-oxo-6-7-8-9-11-12-14-15-16-17-decahydrocyclopenta[a]phenanthren-17-yl]-2-oxoacetic acid

>  <SMILES>
C[C@@H]1CC2C3C[C@H](F)C4=CC(=O)C=C[C@]4(C)C3[C@@H](O)C[C@]2(C)[C@H]1C(=O)C(=O)O

>  <CID>
10340345

>  <logBB>


>  <BBB+/BBB->
BBB+

>  <Inchi>
InChI=1S/C22H27FO5/c1-10-6-13-12-8-15(23)14-7-11(24)4-5-21(14-2)18(12)16(25)9-22(13-3)17(10)19(26)20(27)28/h4-5-7-10-12-13-15-18-25H-6-8-9H2-1-3H3-(H-27-28)/t10--12?-13?-15+-16+-17--18?-21+-22+/m1/s1

>  <threshold>


>  <reference>
R6|

>  <group>
C

>  <Class>
1

>  <ABC>
22.47

>  <ABCGG>
18.62

>  <nAcid>
1

>  <nBase>
0

>  <nAromAtom>
0

>  <nAromBond>
0

>  <nAtom>
55

>  <nHeavyAtom>
28

>  <nSpiro>
0

>  <nBridgehead>
0

>  <nHetero>
6

>  <nN>
0

>  <nO>
5

>  <nF>
1

>  <BalabanJ>
1.7

>  <BertzCT>
815.74

>  <nBonds>
58

>  <nBondsO>
31

>  <nBondsS>
53

>  <nBondsD>
5

>  <nBondsT>
0

>  <nBondsA>
0

>  <nBondsM>
5

>  <nBondsKS>
53

>  <nBondsKD>
5

>  <RNCG>
0.2

>  <RPCG>
0.15

>  <FCSP3>
0.68

>  <SZ>
34.67

>  <Sm>
32.51

>  <Sv>
33.54

>  <Sse>
55.6

>  <Sp>
35.52

>  <Si>
62.2

>  <MZ>
0.63

>  <Mm>
0.59

>  <Mv>
0.61

>  <Mse>
1.01

>  <Mp>
0.65

>  <Mi>
1.13

>  <NsCH3>
3

>  <NdCH2>
0

>  <NssCH2>
3

>  <NtCH>
0

>  <NdsCH>
3

>  <NaaCH>
0

>  <NsssCH>
7

>  <NddC>
0

>  <NtsC>
0

>  <NdssC>
4

>  <NaasC>
0

>  <NaaaC>
0

>  <NssssC>
2

>  <NsNH3>
0

>  <NsNH2>
0

>  <NssNH2>
0

>  <NdNH>
0

>  <NssNH>
0

>  <NaaNH>
0

>  <NtN>
0

>  <NsssNH>
0

>  <NdsN>
0

>  <NaaN>
0

>  <NsssN>
0

>  <NddsN>
0

>  <NaasN>
0

>  <NssssN>
0

>  <NsOH>
2

>  <NdO>
3

>  <NssO>
0

>  <NaaO>
0

>  <NsF>
1

>  <NsSiH3>
0

>  <NssSiH2>
0

>  <NsssSiH>
0

>  <NssssSi>
0

>  <NsPH2>
0

>  <NssPH>
0

>  <NsssP>
0

>  <NdsssP>
0

>  <NsssssP>
0

>  <NsSH>
0

>  <NdS>
0

>  <NssS>
0

>  <NaaS>
0

>  <NdssS>
0

>  <NddssS>
0

>  <NsCl>
0

>  <NsBr>
0

>  <NsI>
0

>  <fragCpx>
205.06

>  <fMF>
0.31

>  <nHBAcc>
4

>  <nHBDon>
2

>  <Kier1>
21.24

>  <Kier2>
7.02

>  <Lipinski>
1

>  <GhoseFilter>
1

>  <FilterItLogS>
-2.25

>  <VMcGowan>
287.01

>  <LabuteASA>
163.24

>  <PEOE_VSA1>
10.21

>  <PEOE_VSA2>
9.59

>  <PEOE_VSA3>
9.18

>  <PEOE_VSA4>
0

>  <PEOE_VSA5>
0

>  <PEOE_VSA6>
26.85

>  <PEOE_VSA7>
60.16

>  <PEOE_VSA8>
17.25

>  <PEOE_VSA9>
6.1

>  <PEOE_VSA10>
6.17

>  <PEOE_VSA11>
5.78

>  <PEOE_VSA12>
5.78

>  <PEOE_VSA13>
0

>  <SMR_VSA1>
28.99

>  <SMR_VSA2>
0

>  <SMR_VSA3>
0

>  <SMR_VSA4>
40.42

>  <SMR_VSA5>
52.31

>  <SMR_VSA6>
0

>  <SMR_VSA7>
23.8

>  <SMR_VSA8>
0

>  <SMR_VSA9>
0

>  <SlogP_VSA1>
0

>  <SlogP_VSA2>
40.02

>  <SlogP_VSA3>
14.38

>  <SlogP_VSA4>
40.42

>  <SlogP_VSA5>
40.03

>  <SlogP_VSA6>
23.8

>  <SlogP_VSA7>
0

>  <SlogP_VSA8>
0

>  <SlogP_VSA9>
0

>  <SlogP_VSA10>
4.39

>  <SlogP_VSA11>
0

>  <EState_VSA1>
40.78

>  <EState_VSA2>
35.88

>  <EState_VSA3>
18.41

>  <EState_VSA4>
0

>  <EState_VSA5>
12.15

>  <EState_VSA6>
6.08

>  <EState_VSA7>
20.77

>  <EState_VSA8>
0

>  <EState_VSA9>
0

>  <EState_VSA10>
24.6

>  <VSA_EState1>
15.2

>  <VSA_EState2>
35.69

>  <VSA_EState3>
20.48

>  <VSA_EState4>
-0.97

>  <VSA_EState5>
-3.72

>  <VSA_EState6>
0

>  <VSA_EState7>
3.65

>  <VSA_EState8>
5.67

>  <VSA_EState9>
0

>  <apol>
59.31

>  <bpol>
30.8

>  <nRing>
4

>  <nHRing>
0

>  <naRing>
0

>  <naHRing>
0

>  <nARing 2>
4

>  <nAHRing 2>
0

>  <nFRing>
1

>  <nFHRing>
0

>  <nFaRing>
0

>  <nFaHRing>
0

>  <nFARing 2>
1

>  <nFAHRing 2>
0

>  <nRot>
2

>  <SLogP>
2.73

>  <SMR>
98.96

>  <TopoPSA(NO)>
91.67

>  <TopoPSA>
91.67

>  <JGI1>
0.29

>  <JGI2>
0.12

>  <JGI3>
0.08

>  <JGI4>
0.06

>  <JGI5>
0.04

>  <Diameter>
12

>  <Radius>
6

>  <TMWC10>
139.56

>  <TSRW10>
79.35

>  <MW>
390.18

>  <AMW>
7.09

>  <WPath>
1733

>  <WPol>
61

>  <Zagreb1>
164

>  <Zagreb2>
208

>  <mZagreb2>
5.78

>  <yes>


>  <nAR-cont>
0.199399

>  <nHA-cont>
0.82432561

>  <MWHBN>
0.303751722

>  <MWHBN-cont>
0.829386646

>  <TPSA-cont>
0.360086476

>  <pka_cont>
0.97

>  <yes.1>


>  <BBB_SCORE>
3.472977531

>  <MMFF94 Energy>
113.83

$$$$
Compound 2363
Actelion Java MolfileCreator 2.0

  0  0  0  0  0  0              0 V3000
M  V30 BEGIN CTAB
M  V30 COUNTS 57 60 0 0 0
M  V30 BEGIN ATOM
M  V30 1 Cl 0.0825 -1.3217 -7.0367 0
M  V30 2 C 0.3945 0.3786 -6.6388 0
M  V30 3 S 1.1916 0.5382 -5.029 0
M  V30 4 C -0.1974 0.1816 -4.0162 0
M  V30 5 O -1.3109 0.6112 -4.3206 0
M  V30 6 C -0.0085 -0.6486 -2.7241 0 CFG=2
M  V30 7 O -1.1543 -1.5278 -2.6668 0
M  V30 8 C 0.0132 0.2332 -1.4275 0 CFG=2
M  V30 9 C 1.2774 -1.5219 -2.5708 0 CFG=1
M  V30 10 C 0.4082 -0.842 -0.3889 0 CFG=1
M  V30 11 C -1.3447 0.8186 -0.9789 0
M  V30 12 C 1.0671 1.3643 -1.5677 0
M  V30 13 C 1.5735 -1.5798 -1.0465 0
M  V30 14 C 1.17 -2.9182 -3.1792 0
M  V30 15 C 0.5929 -0.2822 1.0301 0 CFG=1
M  V30 16 C -1.3287 1.3706 0.4659 0 CFG=1
M  V30 17 C -0.7547 0.3581 1.5074 0 CFG=1
M  V30 18 C 1.0431 -1.3918 1.9957 0
M  V30 19 O -0.6462 2.6197 0.4874 0
M  V30 20 F -1.6724 -0.6813 1.5276 0
M  V30 21 C -0.6604 0.8859 2.9997 0 CFG=2
M  V30 22 C 1.142 -0.9013 3.434 0 CFG=1
M  V30 23 C -0.1535 -0.2729 3.878 0
M  V30 24 C -2.0225 1.38 3.4877 0
M  V30 25 C 0.3104 2.0757 3.184 0
M  V30 26 F 1.4726 -1.9697 4.2145 0
M  V30 27 C -0.8217 -0.7493 4.9445 0
M  V30 28 C -2.683 0.9005 4.5501 0
M  V30 29 C -2.1212 -0.1916 5.3665 0
M  V30 30 O -2.7095 -0.6129 6.354 0
M  V30 31 H 1.0691 0.7721 -7.4038 0
M  V30 32 H -0.5427 0.9387 -6.696 0
M  V30 33 H -1.9247 -1.024 -2.9986 0
M  V30 34 H 2.1447 -1.0382 -3.0318 0
M  V30 35 H -0.407 -1.5801 -0.3199 0
M  V30 36 H -2.1209 0.0452 -1.0218 0
M  V30 37 H -1.649 1.6096 -1.6751 0
M  V30 38 H 0.6997 2.1532 -2.2337 0
M  V30 39 H 2.0174 1.0095 -1.9769 0
M  V30 40 H 1.3159 1.8422 -0.6185 0
M  V30 41 H 1.6566 -2.6067 -0.6747 0
M  V30 42 H 2.5242 -1.0772 -0.8321 0
M  V30 43 H 0.4137 -3.5274 -2.6734 0
M  V30 44 H 0.9135 -2.8626 -4.2413 0
M  V30 45 H 2.1265 -3.4449 -3.0925 0
M  V30 46 H 1.3798 0.4783 1.0192 0
M  V30 47 H -2.3727 1.58 0.7272 0
M  V30 48 H 0.352 -2.2441 1.9491 0
M  V30 49 H 2.0212 -1.7866 1.6958 0
M  V30 50 H -1.1177 3.2245 -0.1142 0
M  V30 51 H 1.9604 -0.1809 3.5344 0
M  V30 52 H -2.478 2.2044 2.9431 0
M  V30 53 H 0.5247 2.249 4.2471 0
M  V30 54 H 1.272 1.9175 2.6875 0
M  V30 55 H -0.1034 3.0155 2.8032 0
M  V30 56 H -0.455 -1.5775 5.542 0
M  V30 57 H -3.6427 1.2913 4.8662 0
M  V30 END ATOM
M  V30 BEGIN BOND
M  V30 1 1 1 2
M  V30 2 1 2 3
M  V30 3 1 3 4
M  V30 4 2 4 5
M  V30 5 1 4 6
M  V30 6 1 6 7
M  V30 7 1 6 8
M  V30 8 1 6 9
M  V30 9 1 8 10
M  V30 10 1 8 11
M  V30 11 1 8 12
M  V30 12 1 9 13
M  V30 13 1 9 14
M  V30 14 1 10 15
M  V30 15 1 11 16
M  V30 16 1 15 17
M  V30 17 1 15 18
M  V30 18 1 16 19
M  V30 19 1 17 20
M  V30 20 1 17 21
M  V30 21 1 18 22
M  V30 22 1 21 23
M  V30 23 1 21 24
M  V30 24 1 21 25
M  V30 25 1 22 26
M  V30 26 2 23 27
M  V30 27 2 24 28
M  V30 28 1 27 29
M  V30 29 2 29 30
M  V30 30 1 10 13
M  V30 31 1 16 17
M  V30 32 1 22 23
M  V30 33 1 28 29
M  V30 34 1 2 31
M  V30 35 1 2 32
M  V30 36 1 7 33
M  V30 37 1 9 34
M  V30 38 1 10 35
M  V30 39 1 11 36
M  V30 40 1 11 37
M  V30 41 1 12 38
M  V30 42 1 12 39
M  V30 43 1 12 40
M  V30 44 1 13 41
M  V30 45 1 13 42
M  V30 46 1 14 43
M  V30 47 1 14 44
M  V30 48 1 14 45
M  V30 49 1 15 46
M  V30 50 1 16 47
M  V30 51 1 18 48
M  V30 52 1 18 49
M  V30 53 1 19 50
M  V30 54 1 22 51
M  V30 55 1 24 52
M  V30 56 1 25 53
M  V30 57 1 25 54
M  V30 58 1 25 55
M  V30 59 1 27 56
M  V30 60 1 28 57
M  V30 END BOND
M  V30 BEGIN COLLECTION
M  V30 MDLV30/STEABS ATOMS=(9 6 8 9 10 15 16 17 21 22)
M  V30 END COLLECTION
M  V30 END CTAB
M  END
>  <Column 1>
2895

>  <level_0>
4927

>  <index>
4927

>  <Unnamed: 0>
4927

>  <NO.>
4939

>  <Name>
cloticasone

>  <IUPAC_name>
s-(chloromethyl) (6s-8s-9r-10s-11s-13s-14s-16r-17r)-6-9-difluoro-11-17-dihydroxy-10-13-16-trimethyl-3-oxo-6-7-8-11-12-14-15-16-octahydrocyclopenta[a]phenanthrene-17-carbothioate

>  <SMILES>
C[C@@H]1C[C@H]2[C@@H]3C[C@H](F)C4=CC(=O)C=C[C@]4(C)[C@@]3(F)[C@@H](O)C[C@]2(C)[C@@]1(O)C(=O)SCCl

>  <CID>
44481798

>  <logBB>


>  <BBB+/BBB->
BBB+

>  <Inchi>
InChI=1S/C22H27ClF2O4S/c1-11-6-13-14-8-16(24)15-7-12(26)4-5-19(15-2)21(14-25)17(27)9-20(13-3)22(11-29)18(28)30-10-23/h4-5-7-11-13-14-16-17-27-29H-6-8-10H2-1-3H3/t11--13+-14+-16+-17+-19+-20+-21+-22+/m1/s1

>  <threshold>


>  <reference>
R6|

>  <group>
C

>  <Class>
1

>  <ABC>
23.88

>  <ABCGG>
20.16

>  <nAcid>
0

>  <nBase>
0

>  <nAromAtom>
0

>  <nAromBond>
0

>  <nAtom>
57

>  <nHeavyAtom>
30

>  <nSpiro>
0

>  <nBridgehead>
0

>  <nHetero>
8

>  <nN>
0

>  <nO>
4

>  <nF>
2

>  <BalabanJ>
1.78

>  <BertzCT>
864.08

>  <nBonds>
60

>  <nBondsO>
33

>  <nBondsS>
56

>  <nBondsD>
4

>  <nBondsT>
0

>  <nBondsA>
0

>  <nBondsM>
4

>  <nBondsKS>
56

>  <nBondsKD>
4

>  <RNCG>
0.16

>  <RPCG>
0.09

>  <FCSP3>
0.73

>  <SZ>
40.33

>  <Sm>
38.38

>  <Sv>
35.74

>  <Sse>
58.06

>  <Sp>
38.41

>  <Si>
64.61

>  <MZ>
0.71

>  <Mm>
0.67

>  <Mv>
0.63

>  <Mse>
1.02

>  <Mp>
0.67

>  <Mi>
1.13

>  <NsCH3>
3

>  <NdCH2>
0

>  <NssCH2>
4

>  <NtCH>
0

>  <NdsCH>
3

>  <NaaCH>
0

>  <NsssCH>
5

>  <NddC>
0

>  <NtsC>
0

>  <NdssC>
3

>  <NaasC>
0

>  <NaaaC>
0

>  <NssssC>
4

>  <NsNH3>
0

>  <NsNH2>
0

>  <NssNH2>
0

>  <NdNH>
0

>  <NssNH>
0

>  <NaaNH>
0

>  <NtN>
0

>  <NsssNH>
0

>  <NdsN>
0

>  <NaaN>
0

>  <NsssN>
0

>  <NddsN>
0

>  <NaasN>
0

>  <NssssN>
0

>  <NsOH>
2

>  <NdO>
2

>  <NssO>
0

>  <NaaO>
0

>  <NsF>
2

>  <NsSiH3>
0

>  <NssSiH2>
0

>  <NsssSiH>
0

>  <NssssSi>
0

>  <NsPH2>
0

>  <NssPH>
0

>  <NsssP>
0

>  <NdsssP>
0

>  <NsssssP>
0

>  <NsSH>
0

>  <NdS>
0

>  <NssS>
1

>  <NaaS>
0

>  <NdssS>
0

>  <NddssS>
0

>  <NsCl>
1

>  <NsBr>
0

>  <NsI>
0

>  <fragCpx>
219.08

>  <fMF>
0.3

>  <nHBAcc>
5

>  <nHBDon>
2

>  <Kier1>
23.17

>  <Kier2>
7.25

>  <Lipinski>
1

>  <GhoseFilter>
1

>  <FilterItLogS>
-4.08

>  <VMcGowan>
315.79

>  <LabuteASA>
183.67

>  <PEOE_VSA1>
10.21

>  <PEOE_VSA2>
9.59

>  <PEOE_VSA3>
8.78

>  <PEOE_VSA4>
0

>  <PEOE_VSA5>
11.6

>  <PEOE_VSA6>
31.69

>  <PEOE_VSA7>
55.75

>  <PEOE_VSA8>
16.75

>  <PEOE_VSA9>
11.32

>  <PEOE_VSA10>
11.77

>  <PEOE_VSA11>
11.45

>  <PEOE_VSA12>
5.12

>  <PEOE_VSA13>
0

>  <SMR_VSA1>
28.58

>  <SMR_VSA2>
0

>  <SMR_VSA3>
0

>  <SMR_VSA4>
28.58

>  <SMR_VSA5>
63.58

>  <SMR_VSA6>
5.21

>  <SMR_VSA7>
23.8

>  <SMR_VSA8>
0

>  <SMR_VSA9>
0

>  <SlogP_VSA1>
0

>  <SlogP_VSA2>
49.87

>  <SlogP_VSA3>
9.59

>  <SlogP_VSA4>
28.58

>  <SlogP_VSA5>
40.03

>  <SlogP_VSA6>
23.8

>  <SlogP_VSA7>
0

>  <SlogP_VSA8>
0

>  <SlogP_VSA9>
0

>  <SlogP_VSA10>
8.78

>  <SlogP_VSA11>
0

>  <EState_VSA1>
63.03

>  <EState_VSA2>
23.63

>  <EState_VSA3>
6.42

>  <EState_VSA4>
17.84

>  <EState_VSA5>
19.08

>  <EState_VSA6>
13.85

>  <EState_VSA7>
0

>  <EState_VSA8>
0

>  <EState_VSA9>
11.6

>  <EState_VSA10>
19.8

>  <VSA_EState1>
32.26

>  <VSA_EState2>
24.75

>  <VSA_EState3>
22.23

>  <VSA_EState4>
-6.53

>  <VSA_EState5>
-2.3

>  <VSA_EState6>
0

>  <VSA_EState7>
0.7

>  <VSA_EState8>
4.98

>  <VSA_EState9>
0

>  <apol>
64.15

>  <bpol>
34.02

>  <nRing>
4

>  <nHRing>
0

>  <naRing>
0

>  <naHRing>
0

>  <nARing 2>
4

>  <nAHRing 2>
0

>  <nFRing>
1

>  <nFHRing>
0

>  <nFaRing>
0

>  <nFaHRing>
0

>  <nFARing 2>
1

>  <nFAHRing 2>
0

>  <nRot>
2

>  <SLogP>
3.74

>  <SMR>
111.45

>  <TopoPSA(NO)>
74.6

>  <TopoPSA>
99.9

>  <JGI1>
0.32

>  <JGI2>
0.16

>  <JGI3>
0.08

>  <JGI4>
0.06

>  <JGI5>
0.04

>  <Diameter>
13

>  <Radius>
7

>  <TMWC10>
145.21

>  <TSRW10>
82.34

>  <MW>
460.13

>  <AMW>
8.07

>  <WPath>
2021

>  <WPol>
74

>  <Zagreb1>
178

>  <Zagreb2>
233

>  <mZagreb2>
6.26

>  <yes>


>  <nAR-cont>
0.199399

>  <nHA-cont>
0.74523694

>  <MWHBN>
0.326330574

>  <MWHBN-cont>
0.75561088

>  <TPSA-cont>
0.302635966

>  <pka_cont>
0.97

>  <yes.1>


>  <BBB_SCORE>
3.168324191

>  <MMFF94 Energy>
140.28

$$$$
Compound 2364
Actelion Java MolfileCreator 2.0

  0  0  0  0  0  0              0 V3000
M  V30 BEGIN CTAB
M  V30 COUNTS 54 57 0 0 0
M  V30 BEGIN ATOM
M  V30 1 Cl 0.6506 -6.1119 3.5822 0
M  V30 2 C -0.6074 -5.6029 2.4381 0
M  V30 3 O -0.6591 -4.1816 2.4474 0
M  V30 4 C -1.5638 -3.6767 1.5774 0
M  V30 5 O -2.2655 -4.3554 0.8314 0
M  V30 6 C -1.6184 -2.1384 1.5765 0 CFG=2
M  V30 7 O -2.9464 -1.7642 1.1534 0
M  V30 8 C -0.5627 -1.4603 0.6485 0 CFG=2
M  V30 9 C -1.3911 -1.466 2.9531 0
M  V30 10 C -0.6699 -0.0045 1.1559 0 CFG=1
M  V30 11 C -0.9011 -1.4484 -0.8571 0
M  V30 12 C 0.8382 -2.0853 0.8874 0
M  V30 13 C -0.6258 -0.1544 2.6741 0
M  V30 14 C 0.3149 0.9557 0.4738 0 CFG=1
M  V30 15 C -0.0307 -0.4658 -1.6717 0 CFG=1
M  V30 16 C 0.0171 0.9708 -1.067 0 CFG=2
M  V30 17 C 0.1965 2.3676 1.0765 0
M  V30 18 O 1.2736 -1.0068 -1.8222 0
M  V30 19 C 0.9206 2.011 -1.8357 0 CFG=2
M  V30 20 C 1.0598 3.386 0.3419 0
M  V30 21 C 0.7474 3.3666 -1.1322 0
M  V30 22 C 0.4965 2.0997 -3.2985 0
M  V30 23 C 2.4257 1.6614 -1.8434 0
M  V30 24 C 0.3012 4.4763 -1.7473 0
M  V30 25 C 0.0512 3.2057 -3.9089 0
M  V30 26 C -0.072 4.4792 -3.1758 0
M  V30 27 O -0.4739 5.4953 -3.7284 0
M  V30 28 H -0.3306 -5.9798 1.4487 0
M  V30 29 H -1.5585 -6.0295 2.7711 0
M  V30 30 H -3.2412 -2.4422 0.5127 0
M  V30 31 H -2.3448 -1.2413 3.4454 0
M  V30 32 H -0.8054 -2.0778 3.6463 0
M  V30 33 H -1.6769 0.3772 0.9201 0
M  V30 34 H -1.9471 -1.1539 -1.006 0
M  V30 35 H -0.7991 -2.4632 -1.2607 0
M  V30 36 H 1.0633 -2.2162 1.9507 0
M  V30 37 H 0.9048 -3.0732 0.4175 0
M  V30 38 H 1.6549 -1.4854 0.4825 0
M  V30 39 H 0.4045 -0.2278 3.0396 0
M  V30 40 H -1.0973 0.6919 3.1842 0
M  V30 41 H 1.3403 0.614 0.6468 0
M  V30 42 H -0.4623 -0.4124 -2.6776 0
M  V30 43 H -1.0181 1.3418 -1.1616 0
M  V30 44 H 0.4945 2.3512 2.1315 0
M  V30 45 H -0.8512 2.6957 1.0505 0
M  V30 46 H 1.193 -1.8553 -2.2918 0
M  V30 47 H 2.1218 3.1682 0.5019 0
M  V30 48 H 0.8832 4.3785 0.7743 0
M  V30 49 H 0.5995 1.1988 -3.8995 0
M  V30 50 H 2.6612 0.8454 -2.535 0
M  V30 51 H 2.7958 1.3691 -0.8563 0
M  V30 52 H 3.028 2.5195 -2.1702 0
M  V30 53 H 0.1729 5.4224 -1.2339 0
M  V30 54 H -0.2218 3.2243 -4.9567 0
M  V30 END ATOM
M  V30 BEGIN BOND
M  V30 1 1 1 2
M  V30 2 1 2 3
M  V30 3 1 3 4
M  V30 4 2 4 5
M  V30 5 1 4 6
M  V30 6 1 6 7
M  V30 7 1 6 8
M  V30 8 1 6 9
M  V30 9 1 8 10
M  V30 10 1 8 11
M  V30 11 1 8 12
M  V30 12 1 9 13
M  V30 13 1 10 14
M  V30 14 1 11 15
M  V30 15 1 14 16
M  V30 16 1 14 17
M  V30 17 1 15 18
M  V30 18 1 16 19
M  V30 19 1 17 20
M  V30 20 1 19 21
M  V30 21 1 19 22
M  V30 22 1 19 23
M  V30 23 2 21 24
M  V30 24 2 22 25
M  V30 25 1 24 26
M  V30 26 2 26 27
M  V30 27 1 10 13
M  V30 28 1 15 16
M  V30 29 1 20 21
M  V30 30 1 25 26
M  V30 31 1 2 28
M  V30 32 1 2 29
M  V30 33 1 7 30
M  V30 34 1 9 31
M  V30 35 1 9 32
M  V30 36 1 10 33
M  V30 37 1 11 34
M  V30 38 1 11 35
M  V30 39 1 12 36
M  V30 40 1 12 37
M  V30 41 1 12 38
M  V30 42 1 13 39
M  V30 43 1 13 40
M  V30 44 1 14 41
M  V30 45 1 15 42
M  V30 46 1 16 43
M  V30 47 1 17 44
M  V30 48 1 17 45
M  V30 49 1 18 46
M  V30 50 1 20 47
M  V30 51 1 20 48
M  V30 52 1 22 49
M  V30 53 1 23 50
M  V30 54 1 23 51
M  V30 55 1 23 52
M  V30 56 1 24 53
M  V30 57 1 25 54
M  V30 END BOND
M  V30 BEGIN COLLECTION
M  V30 MDLV30/STEABS ATOMS=(7 6 8 10 14 15 16 19)
M  V30 END COLLECTION
M  V30 END CTAB
M  END
>  <Column 1>
2896

>  <level_0>
4952

>  <index>
4952

>  <Unnamed: 0>
4952

>  <NO.>
4964

>  <Name>
loteprednol

>  <IUPAC_name>
chloromethyl (8s-9s-10r-11s-13s-14s-17r)-11-17-dihydroxy-10-13-dimethyl-3-oxo-7-8-9-11-12-14-15-16-octahydro-6h-cyclopenta[a]phenanthrene-17-carboxylate

>  <SMILES>
C[C@]12C[C@H](O)[C@H]3[C@@H](CCC4=CC(=O)C=C[C@@]43C)[C@@H]1CC[C@]2(O)C(=O)OCCl

>  <CID>
9865442

>  <logBB>


>  <BBB+/BBB->
BBB+

>  <Inchi>
InChI=1S/C21H27ClO5/c1-19-7-5-13(23)9-12(19)3-4-14-15-6-8-21(26-18(25)27-11-22)20(15-2)10-16(24)17(14)19/h5-7-9-14-17-24-26H-3-4-6-8-10-11H2-1-2H3/t14--15--16--17+-19--20--21-/m0/s1

>  <threshold>


>  <reference>
R6|

>  <group>
C

>  <Class>
1

>  <ABC>
21.56

>  <ABCGG>
17.7

>  <nAcid>
0

>  <nBase>
0

>  <nAromAtom>
0

>  <nAromBond>
0

>  <nAtom>
54

>  <nHeavyAtom>
27

>  <nSpiro>
0

>  <nBridgehead>
0

>  <nHetero>
6

>  <nN>
0

>  <nO>
5

>  <nF>
0

>  <BalabanJ>
1.65

>  <BertzCT>
744.85

>  <nBonds>
57

>  <nBondsO>
30

>  <nBondsS>
53

>  <nBondsD>
4

>  <nBondsT>
0

>  <nBondsA>
0

>  <nBondsM>
4

>  <nBondsKS>
53

>  <nBondsKD>
4

>  <RNCG>
0.19

>  <RPCG>
0.15

>  <FCSP3>
0.71

>  <SZ>
35

>  <Sm>
32.88

>  <Sv>
32.98

>  <Sse>
54.4

>  <Sp>
35.49

>  <Si>
60.8

>  <MZ>
0.65

>  <Mm>
0.61

>  <Mv>
0.61

>  <Mse>
1.01

>  <Mp>
0.66

>  <Mi>
1.13

>  <NsCH3>
2

>  <NdCH2>
0

>  <NssCH2>
6

>  <NtCH>
0

>  <NdsCH>
3

>  <NaaCH>
0

>  <NsssCH>
4

>  <NddC>
0

>  <NtsC>
0

>  <NdssC>
3

>  <NaasC>
0

>  <NaaaC>
0

>  <NssssC>
3

>  <NsNH3>
0

>  <NsNH2>
0

>  <NssNH2>
0

>  <NdNH>
0

>  <NssNH>
0

>  <NaaNH>
0

>  <NtN>
0

>  <NsssNH>
0

>  <NdsN>
0

>  <NaaN>
0

>  <NsssN>
0

>  <NddsN>
0

>  <NaasN>
0

>  <NssssN>
0

>  <NsOH>
2

>  <NdO>
2

>  <NssO>
1

>  <NaaO>
0

>  <NsF>
0

>  <NsSiH3>
0

>  <NssSiH2>
0

>  <NsssSiH>
0

>  <NssssSi>
0

>  <NsPH2>
0

>  <NssPH>
0

>  <NsssP>
0

>  <NdsssP>
0

>  <NsssssP>
0

>  <NsSH>
0

>  <NdS>
0

>  <NssS>
0

>  <NaaS>
0

>  <NdssS>
0

>  <NddssS>
0

>  <NsCl>
1

>  <NsBr>
0

>  <NsI>
0

>  <fragCpx>
198.06

>  <fMF>
0.31

>  <nHBAcc>
5

>  <nHBDon>
2

>  <Kier1>
20.28

>  <Kier2>
6.77

>  <Lipinski>
1

>  <GhoseFilter>
1

>  <FilterItLogS>
-3.07

>  <VMcGowan>
287.7

>  <LabuteASA>
163.96

>  <PEOE_VSA1>
14.95

>  <PEOE_VSA2>
4.79

>  <PEOE_VSA3>
4.79

>  <PEOE_VSA4>
0

>  <PEOE_VSA5>
0

>  <PEOE_VSA6>
37.1

>  <PEOE_VSA7>
56.09

>  <PEOE_VSA8>
16.75

>  <PEOE_VSA9>
6.1

>  <PEOE_VSA10>
0

>  <PEOE_VSA11>
17.45

>  <PEOE_VSA12>
0

>  <PEOE_VSA13>
0

>  <SMR_VSA1>
24.54

>  <SMR_VSA2>
0

>  <SMR_VSA3>
0

>  <SMR_VSA4>
28.58

>  <SMR_VSA5>
57.66

>  <SMR_VSA6>
6.07

>  <SMR_VSA7>
23.8

>  <SMR_VSA8>
0

>  <SMR_VSA9>
0

>  <SlogP_VSA1>
0

>  <SlogP_VSA2>
39.74

>  <SlogP_VSA3>
14.33

>  <SlogP_VSA4>
28.58

>  <SlogP_VSA5>
45.95

>  <SlogP_VSA6>
23.8

>  <SlogP_VSA7>
0

>  <SlogP_VSA8>
0

>  <SlogP_VSA9>
0

>  <SlogP_VSA10>
0

>  <SlogP_VSA11>
0

>  <EState_VSA1>
23.09

>  <EState_VSA2>
35.02

>  <EState_VSA3>
12.84

>  <EState_VSA4>
24.84

>  <EState_VSA5>
0

>  <EState_VSA6>
12.15

>  <EState_VSA7>
13

>  <EState_VSA8>
6.92

>  <EState_VSA9>
16.34

>  <EState_VSA10>
19.8

>  <VSA_EState1>
4.97

>  <VSA_EState2>
24.36

>  <VSA_EState3>
22.47

>  <VSA_EState4>
-1.63

>  <VSA_EState5>
-0.4

>  <VSA_EState6>
-0.29

>  <VSA_EState7>
7.64

>  <VSA_EState8>
4.01

>  <VSA_EState9>
0

>  <apol>
59.26

>  <bpol>
31.07

>  <nRing>
4

>  <nHRing>
0

>  <naRing>
0

>  <naHRing>
0

>  <nARing 2>
4

>  <nAHRing 2>
0

>  <nFRing>
1

>  <nFHRing>
0

>  <nFaRing>
0

>  <nFaHRing>
0

>  <nFARing 2>
1

>  <nFAHRing 2>
0

>  <nRot>
2

>  <SLogP>
2.74

>  <SMR>
99.77

>  <TopoPSA(NO)>
83.83

>  <TopoPSA>
83.83

>  <JGI1>
0.28

>  <JGI2>
0.14

>  <JGI3>
0.07

>  <JGI4>
0.06

>  <JGI5>
0.03

>  <Diameter>
13

>  <Radius>
7

>  <TMWC10>
137.32

>  <TSRW10>
78.27

>  <MW>
394.15

>  <AMW>
7.3

>  <WPath>
1611

>  <WPol>
60

>  <Zagreb1>
158

>  <Zagreb2>
202

>  <mZagreb2>
5.69

>  <yes>


>  <nAR-cont>
0.199399

>  <nHA-cont>
0.860070871

>  <MWHBN>
0.352587795

>  <MWHBN-cont>
0.660543302

>  <TPSA-cont>
0.414814545

>  <pka_cont>
0.97

>  <yes.1>


>  <BBB_SCORE>
3.364913913

>  <MMFF94 Energy>
98.184

$$$$
Compound 2365
Actelion Java MolfileCreator 2.0

  0  0  0  0  0  0              0 V3000
M  V30 BEGIN CTAB
M  V30 COUNTS 54 56 0 0 0
M  V30 BEGIN ATOM
M  V30 1 O 2.4661 1.2722 0.2384 0
M  V30 2 C 1.2592 1.3023 0.0102 0
M  V30 3 O 0.4039 0.3193 0.4328 0
M  V30 4 C 0.5271 2.4484 -0.753 0
M  V30 5 C 1.0514 -0.8385 0.9775 0
M  V30 6 O 1.5227 3.0227 -1.6292 0
M  V30 7 C 0.0785 3.5934 0.1676 0
M  V30 8 C -0.5944 1.8689 -1.6329 0
M  V30 9 C 0.0491 -2.0214 1.0376 0 CFG=2
M  V30 10 C -0.3409 4.8109 -0.4085 0
M  V30 11 C 0.0511 3.4874 1.5695 0
M  V30 12 C -1.9257 1.7896 -1.1801 0
M  V30 13 C -0.2986 1.3347 -2.9018 0
M  V30 14 N 0.7193 -3.3583 1.5151 0 CHG=1
M  V30 15 C -0.6613 -2.2499 -0.3098 0
M  V30 16 C -0.7667 5.8779 0.3835 0
M  V30 17 C -0.3748 4.559 2.3605 0
M  V30 18 C -2.9218 1.2144 -1.9733 0
M  V30 19 C -1.2956 0.7582 -3.6918 0
M  V30 20 C 1.6349 -3.9506 0.4312 0
M  V30 21 C 1.5629 -3.1273 2.7794 0
M  V30 22 C -0.3636 -4.376 1.9138 0
M  V30 23 C 0.2632 -2.8228 -1.3749 0
M  V30 24 C -0.7829 5.7513 1.7685 0
M  V30 25 C -2.6063 0.6987 -3.2273 0
M  V30 26 C 0.9188 -4.1122 -0.9032 0
M  V30 27 H 1.9195 -1.1039 0.3652 0
M  V30 28 H 1.3905 -0.5783 1.9857 0
M  V30 29 H 2.1988 3.42 -1.0498 0
M  V30 30 H -0.7129 -1.7768 1.7892 0
M  V30 31 H -0.3379 4.931 -1.4924 0
M  V30 32 H 0.3595 2.5803 2.0814 0
M  V30 33 H -2.2097 2.1862 -0.207 0
M  V30 34 H 0.7163 1.3812 -3.2948 0
M  V30 35 H -1.0956 -1.3137 -0.6767 0
M  V30 36 H -1.5164 -2.9219 -0.1745 0
M  V30 37 H -1.0844 6.8077 -0.0826 0
M  V30 38 H -0.3865 4.4669 3.4442 0
M  V30 39 H -3.9489 1.1823 -1.6171 0
M  V30 40 H -1.0503 0.3715 -4.6781 0
M  V30 41 H 2.4942 -3.2796 0.3253 0
M  V30 42 H 1.9988 -4.9169 0.7989 0
M  V30 43 H 1.9038 -4.0991 3.15 0
M  V30 44 H 2.4296 -2.5128 2.5227 0
M  V30 45 H 0.9351 -2.6299 3.5242 0
M  V30 46 H -0.9908 -4.6085 1.0529 0
M  V30 47 H -0.9667 -3.9365 2.714 0
M  V30 48 H 0.1315 -5.286 2.2661 0
M  V30 49 H -0.3074 -3.0158 -2.2906 0
M  V30 50 H 1.0344 -2.0891 -1.637 0
M  V30 51 H -1.112 6.5838 2.3861 0
M  V30 52 H -3.3853 0.2659 -3.8503 0
M  V30 53 H 0.1653 -4.9051 -0.8358 0
M  V30 54 H 1.641 -4.4455 -1.6578 0
M  V30 END ATOM
M  V30 BEGIN BOND
M  V30 1 2 1 2
M  V30 2 1 2 3
M  V30 3 1 2 4
M  V30 4 1 3 5
M  V30 5 1 4 6
M  V30 6 1 4 7
M  V30 7 1 4 8
M  V30 8 1 5 9
M  V30 9 2 7 10
M  V30 10 1 7 11
M  V30 11 2 8 12
M  V30 12 1 8 13
M  V30 13 1 9 14
M  V30 14 1 9 15
M  V30 15 1 10 16
M  V30 16 2 11 17
M  V30 17 1 12 18
M  V30 18 2 13 19
M  V30 19 1 14 20
M  V30 20 1 14 21
M  V30 21 1 14 22
M  V30 22 1 15 23
M  V30 23 2 16 24
M  V30 24 2 18 25
M  V30 25 1 20 26
M  V30 26 1 17 24
M  V30 27 1 19 25
M  V30 28 1 23 26
M  V30 29 1 5 27
M  V30 30 1 5 28
M  V30 31 1 6 29
M  V30 32 1 9 30
M  V30 33 1 10 31
M  V30 34 1 11 32
M  V30 35 1 12 33
M  V30 36 1 13 34
M  V30 37 1 15 35
M  V30 38 1 15 36
M  V30 39 1 16 37
M  V30 40 1 17 38
M  V30 41 1 18 39
M  V30 42 1 19 40
M  V30 43 1 20 41
M  V30 44 1 20 42
M  V30 45 1 21 43
M  V30 46 1 21 44
M  V30 47 1 21 45
M  V30 48 1 22 46
M  V30 49 1 22 47
M  V30 50 1 22 48
M  V30 51 1 23 49
M  V30 52 1 23 50
M  V30 53 1 24 51
M  V30 54 1 25 52
M  V30 55 1 26 53
M  V30 56 1 26 54
M  V30 END BOND
M  V30 BEGIN COLLECTION
M  V30 MDLV30/STERAC1 ATOMS=(1 9)
M  V30 END COLLECTION
M  V30 END CTAB
M  END
>  <Column 1>
2897

>  <level_0>
4954

>  <index>
4954

>  <Unnamed: 0>
4954

>  <NO.>
4966

>  <Name>
bevonium

>  <IUPAC_name>
(1-1-dimethylpiperidin-1-ium-2-yl)methyl 2-hydroxy-2-2-diphenylacetate

>  <SMILES>
C[N+]1(C)CCCCC1COC(=O)C(O)(c1ccccc1)c1ccccc1

>  <CID>
31800

>  <logBB>


>  <BBB+/BBB->
BBB-

>  <Inchi>
InChI=1S/C22H28NO3/c1-23(2)16-10-9-15-20(23)17-26-21(24)22(25-18-11-5-3-6-12-18)19-13-7-4-8-14-19/h3-8-11-14-20-25H-9-10-15-17H2-1-2H3/q+1

>  <threshold>


>  <reference>
R6|

>  <group>
C

>  <Class>
-1

>  <ABC>
20.14

>  <ABCGG>
16.78

>  <nAcid>
0

>  <nBase>
1

>  <nAromAtom>
12

>  <nAromBond>
12

>  <nAtom>
54

>  <nHeavyAtom>
26

>  <nSpiro>
0

>  <nBridgehead>
0

>  <nHetero>
4

>  <nN>
1

>  <nO>
3

>  <nF>
0

>  <BalabanJ>
1.68

>  <BertzCT>
688.07

>  <nBonds>
56

>  <nBondsO>
28

>  <nBondsS>
43

>  <nBondsD>
1

>  <nBondsT>
0

>  <nBondsA>
12

>  <nBondsM>
13

>  <nBondsKS>
49

>  <nBondsKD>
7

>  <RNCG>
0.22

>  <RPCG>
0.11

>  <FCSP3>
0.41

>  <SZ>
31.83

>  <Sm>
29.51

>  <Sv>
32.49

>  <Sse>
53.58

>  <Sp>
35.28

>  <Si>
60.73

>  <MZ>
0.59

>  <Mm>
0.55

>  <Mv>
0.6

>  <Mse>
0.99

>  <Mp>
0.65

>  <Mi>
1.12

>  <NsCH3>
2

>  <NdCH2>
0

>  <NssCH2>
5

>  <NtCH>
0

>  <NdsCH>
0

>  <NaaCH>
10

>  <NsssCH>
1

>  <NddC>
0

>  <NtsC>
0

>  <NdssC>
1

>  <NaasC>
2

>  <NaaaC>
0

>  <NssssC>
1

>  <NsNH3>
0

>  <NsNH2>
0

>  <NssNH2>
0

>  <NdNH>
0

>  <NssNH>
0

>  <NaaNH>
0

>  <NtN>
0

>  <NsssNH>
0

>  <NdsN>
0

>  <NaaN>
0

>  <NsssN>
0

>  <NddsN>
0

>  <NaasN>
0

>  <NssssN>
1

>  <NsOH>
1

>  <NdO>
1

>  <NssO>
1

>  <NaaO>
0

>  <NsF>
0

>  <NsSiH3>
0

>  <NssSiH2>
0

>  <NsssSiH>
0

>  <NssssSi>
0

>  <NsPH2>
0

>  <NssPH>
0

>  <NsssP>
0

>  <NdsssP>
0

>  <NsssssP>
0

>  <NsSH>
0

>  <NdS>
0

>  <NssS>
0

>  <NaaS>
0

>  <NdssS>
0

>  <NddssS>
0

>  <NsCl>
0

>  <NsBr>
0

>  <NsI>
0

>  <fragCpx>
134.04

>  <fMF>
0.41

>  <nHBAcc>
3

>  <nHBDon>
1

>  <Kier1>
20.73

>  <Kier2>
9

>  <Lipinski>
1

>  <GhoseFilter>
1

>  <FilterItLogS>
-4.91

>  <VMcGowan>
287.9

>  <LabuteASA>
155.17

>  <PEOE_VSA1>
14.33

>  <PEOE_VSA2>
0

>  <PEOE_VSA3>
4.79

>  <PEOE_VSA4>
0

>  <PEOE_VSA5>
0

>  <PEOE_VSA6>
60.66

>  <PEOE_VSA7>
23.97

>  <PEOE_VSA8>
6.42

>  <PEOE_VSA9>
20.64

>  <PEOE_VSA10>
12.65

>  <PEOE_VSA11>
0

>  <PEOE_VSA12>
5.6

>  <PEOE_VSA13>
0

>  <SMR_VSA1>
19.12

>  <SMR_VSA2>
0

>  <SMR_VSA3>
0

>  <SMR_VSA4>
0

>  <SMR_VSA5>
30.91

>  <SMR_VSA6>
27.25

>  <SMR_VSA7>
71.79

>  <SMR_VSA8>
0

>  <SMR_VSA9>
0

>  <SlogP_VSA1>
0

>  <SlogP_VSA2>
48.85

>  <SlogP_VSA3>
15.13

>  <SlogP_VSA4>
0

>  <SlogP_VSA5>
30.39

>  <SlogP_VSA6>
60.66

>  <SlogP_VSA7>
0

>  <SlogP_VSA8>
0

>  <SlogP_VSA9>
0

>  <SlogP_VSA10>
0

>  <SlogP_VSA11>
0

>  <EState_VSA1>
11.57

>  <EState_VSA2>
6.04

>  <EState_VSA3>
17.73

>  <EState_VSA4>
23.87

>  <EState_VSA5>
6.42

>  <EState_VSA6>
24.27

>  <EState_VSA7>
36.4

>  <EState_VSA8>
14.1

>  <EState_VSA9>
4.74

>  <EState_VSA10>
9.9

>  <VSA_EState1>
6.54

>  <VSA_EState2>
13.04

>  <VSA_EState3>
11.4

>  <VSA_EState4>
-0.75

>  <VSA_EState5>
-0.61

>  <VSA_EState6>
18.3

>  <VSA_EState7>
3.4

>  <VSA_EState8>
1.41

>  <VSA_EState9>
4.36

>  <apol>
58.92

>  <bpol>
32.97

>  <nRing>
3

>  <nHRing>
1

>  <naRing>
2

>  <naHRing>
0

>  <nARing 2>
1

>  <nAHRing 2>
1

>  <nFRing>
0

>  <nFHRing>
0

>  <nFaRing>
0

>  <nFaHRing>
0

>  <nFARing 2>
0

>  <nFAHRing 2>
0

>  <nRot>
5

>  <SLogP>
3.09

>  <SMR>
101.46

>  <TopoPSA(NO)>
46.53

>  <TopoPSA>
46.53

>  <JGI1>
0.21

>  <JGI2>
0.11

>  <JGI3>
0.06

>  <JGI4>
0.03

>  <JGI5>
0.02

>  <Diameter>
11

>  <Radius>
6

>  <TMWC10>
130.1

>  <TSRW10>
61.28

>  <MW>
354.21

>  <AMW>
6.56

>  <WPath>
1622

>  <WPol>
44

>  <Zagreb1>
136

>  <Zagreb2>
161

>  <mZagreb2>
5.71

>  <yes>


>  <nAR-cont>
0.816016

>  <nHA-cont>
0.892715677

>  <MWHBN>
0.212534571

>  <MWHBN-cont>
0.998588248

>  <TPSA-cont>
0.675191707

>  <pka_cont>
0.97

>  <yes.1>


>  <BBB_SCORE>
5.041997462

>  <MMFF94 Energy>
157.18

$$$$
Compound 2366
Actelion Java MolfileCreator 2.0

  0  0  0  0  0  0              0 V3000
M  V30 BEGIN CTAB
M  V30 COUNTS 58 60 0 0 0
M  V30 BEGIN ATOM
M  V30 1 S -0.7251 -1.2893 -6.4594 0
M  V30 2 O -1.1022 -1.6711 -7.7959 0
M  V30 3 O -0.9323 -2.1252 -5.2994 0
M  V30 4 O 0.8483 -0.9338 -6.5279 0
M  V30 5 C -1.3216 0.3605 -6.1019 0
M  V30 6 C -1.4167 0.6463 -4.6016 0
M  V30 7 C -0.0546 0.661 -3.8939 0
M  V30 8 N -0.1723 0.6248 -2.3295 0 CHG=1
M  V30 9 C -0.5924 -0.7741 -1.8023 0
M  V30 10 C 1.2497 0.6982 -1.6985 0
M  V30 11 C -1.0895 1.7765 -1.9079 0
M  V30 12 C -0.8759 -0.6849 -0.2954 0
M  V30 13 C 0.6493 -1.641 -2.0666 0
M  V30 14 C 1.1471 0.8947 -0.18 0
M  V30 15 C 1.8435 -0.6839 -2.0131 0
M  V30 16 C 0.3369 -0.2102 0.5196 0
M  V30 17 O -0.1543 0.2615 1.7872 0
M  V30 18 C 0.7665 0.3193 2.799 0
M  V30 19 O 1.9409 -0.0051 2.669 0
M  V30 20 C 0.1239 0.8272 4.0786 0
M  V30 21 C -0.0943 -0.2947 5.0772 0
M  V30 22 C 0.9803 1.9615 4.6494 0
M  V30 23 C -1.3961 -0.6122 5.496 0
M  V30 24 C 0.9795 -1.0305 5.6034 0
M  V30 25 O 0.8486 3.1243 3.827 0
M  V30 26 C -1.6168 -1.6381 6.4168 0
M  V30 27 C 0.7553 -2.0565 6.5231 0
M  V30 28 C -0.5417 -2.3596 6.9297 0
M  V30 29 H 1.1914 -1.269 -7.3904 0
M  V30 30 H -2.3222 0.4207 -6.5442 0
M  V30 31 H -0.6838 1.0811 -6.6224 0
M  V30 32 H -1.8933 1.6272 -4.4885 0
M  V30 33 H -2.0915 -0.0838 -4.1447 0
M  V30 34 H 0.5687 -0.1771 -4.1939 0
M  V30 35 H 0.4838 1.5842 -4.1395 0
M  V30 36 H -1.4759 -1.1159 -2.347 0
M  V30 37 H 1.7992 1.5191 -2.171 0
M  V30 38 H -0.7149 2.694 -2.3707 0
M  V30 39 H -1.1072 1.8965 -0.8256 0
M  V30 40 H -2.1045 1.5493 -2.243 0
M  V30 41 H -1.1745 -1.6743 0.0767 0
M  V30 42 H -1.7491 -0.0513 -0.099 0
M  V30 43 H 0.7492 -2.4579 -1.3437 0
M  V30 44 H 0.5942 -2.1119 -3.0536 0
M  V30 45 H 0.7505 1.8862 0.0664 0
M  V30 46 H 2.1617 0.9072 0.2391 0
M  V30 47 H 2.5853 -1.0002 -1.2717 0
M  V30 48 H 2.3605 -0.6724 -2.9795 0
M  V30 49 H 0.9806 -1.0833 0.6913 0
M  V30 50 H -0.8477 1.2602 3.8022 0
M  V30 51 H 2.0424 1.6991 4.7031 0
M  V30 52 H 0.6411 2.2324 5.6558 0
M  V30 53 H -2.2533 -0.0604 5.1152 0
M  V30 54 H 2.0038 -0.8187 5.3006 0
M  V30 55 H 1.3455 3.8352 4.2734 0
M  V30 56 H -2.6287 -1.8732 6.7385 0
M  V30 57 H 1.5944 -2.62 6.9242 0
M  V30 58 H -0.7142 -3.1569 7.6485 0
M  V30 END ATOM
M  V30 BEGIN BOND
M  V30 1 2 1 2
M  V30 2 2 1 3
M  V30 3 1 1 4
M  V30 4 1 1 5
M  V30 5 1 5 6
M  V30 6 1 6 7
M  V30 7 1 7 8
M  V30 8 1 8 9
M  V30 9 1 8 10
M  V30 10 1 8 11
M  V30 11 1 9 12
M  V30 12 1 9 13
M  V30 13 1 10 14
M  V30 14 1 10 15
M  V30 15 1 12 16
M  V30 16 1 16 17
M  V30 17 1 17 18
M  V30 18 2 18 19
M  V30 19 1 18 20
M  V30 20 1 20 21
M  V30 21 1 20 22
M  V30 22 2 21 23
M  V30 23 1 21 24
M  V30 24 1 22 25
M  V30 25 1 23 26
M  V30 26 2 24 27
M  V30 27 2 26 28
M  V30 28 1 13 15
M  V30 29 1 14 16
M  V30 30 1 27 28
M  V30 31 1 4 29
M  V30 32 1 5 30
M  V30 33 1 5 31
M  V30 34 1 6 32
M  V30 35 1 6 33
M  V30 36 1 7 34
M  V30 37 1 7 35
M  V30 38 1 9 36
M  V30 39 1 10 37
M  V30 40 1 11 38
M  V30 41 1 11 39
M  V30 42 1 11 40
M  V30 43 1 12 41
M  V30 44 1 12 42
M  V30 45 1 13 43
M  V30 46 1 13 44
M  V30 47 1 14 45
M  V30 48 1 14 46
M  V30 49 1 15 47
M  V30 50 1 15 48
M  V30 51 1 16 49
M  V30 52 1 20 50
M  V30 53 1 22 51
M  V30 54 1 22 52
M  V30 55 1 23 53
M  V30 56 1 24 54
M  V30 57 1 25 55
M  V30 58 1 26 56
M  V30 59 1 27 57
M  V30 60 1 28 58
M  V30 END BOND
M  V30 END CTAB
M  END
>  <Column 1>
2898

>  <level_0>
4955

>  <index>
4955

>  <Unnamed: 0>
4955

>  <NO.>
4967

>  <Name>
15130-91-3

>  <IUPAC_name>
3-[3-(3-hydroxy-2-phenylpropanoyl)oxy-8-methyl-8-azoniabicyclo[3.2.1]octan-8-yl]propane-1-sulfonate

>  <SMILES>
C[N+]1(CCCS(=O)(=O)O)C2CCC1CC(OC(=O)C(CO)c1ccccc1)C2

>  <CID>
71869

>  <logBB>


>  <BBB+/BBB->
BBB-

>  <Inchi>
InChI=1S/C20H29NO6S/c1-21(10-5-11-28(24-25)26)16-8-9-17(21)13-18(12-16)27-20(23)19(14-22)15-6-3-2-4-7-15/h2-4-6-7-16-19-22H-5-8-14H2-1H3/p+1

>  <threshold>


>  <reference>
R6|

>  <group>
C

>  <Class>
1

>  <ABC>
21.75

>  <ABCGG>
17.87

>  <nAcid>
1

>  <nBase>
1

>  <nAromAtom>
6

>  <nAromBond>
6

>  <nAtom>
58

>  <nHeavyAtom>
28

>  <nSpiro>
0

>  <nBridgehead>
2

>  <nHetero>
8

>  <nN>
1

>  <nO>
6

>  <nF>
0

>  <BalabanJ>
1.53

>  <BertzCT>
767.15

>  <nBonds>
60

>  <nBondsO>
30

>  <nBondsS>
51

>  <nBondsD>
3

>  <nBondsT>
0

>  <nBondsA>
6

>  <nBondsM>
9

>  <nBondsKS>
54

>  <nBondsKD>
6

>  <RNCG>
0.19

>  <RPCG>
0.09

>  <FCSP3>
0.65

>  <SZ>
36.83

>  <Sm>
34.35

>  <Sv>
34.36

>  <Sse>
58.54

>  <Sp>
37.25

>  <Si>
65.7

>  <MZ>
0.64

>  <Mm>
0.59

>  <Mv>
0.59

>  <Mse>
1.01

>  <Mp>
0.64

>  <Mi>
1.13

>  <NsCH3>
1

>  <NdCH2>
0

>  <NssCH2>
8

>  <NtCH>
0

>  <NdsCH>
0

>  <NaaCH>
5

>  <NsssCH>
4

>  <NddC>
0

>  <NtsC>
0

>  <NdssC>
1

>  <NaasC>
1

>  <NaaaC>
0

>  <NssssC>
0

>  <NsNH3>
0

>  <NsNH2>
0

>  <NssNH2>
0

>  <NdNH>
0

>  <NssNH>
0

>  <NaaNH>
0

>  <NtN>
0

>  <NsssNH>
0

>  <NdsN>
0

>  <NaaN>
0

>  <NsssN>
0

>  <NddsN>
0

>  <NaasN>
0

>  <NssssN>
1

>  <NsOH>
2

>  <NdO>
3

>  <NssO>
1

>  <NaaO>
0

>  <NsF>
0

>  <NsSiH3>
0

>  <NssSiH2>
0

>  <NsssSiH>
0

>  <NssssSi>
0

>  <NsPH2>
0

>  <NssPH>
0

>  <NsssP>
0

>  <NdsssP>
0

>  <NsssssP>
0

>  <NsSH>
0

>  <NdS>
0

>  <NssS>
0

>  <NaaS>
0

>  <NdssS>
0

>  <NddssS>
1

>  <NsCl>
0

>  <NsBr>
0

>  <NsI>
0

>  <fragCpx>
144.08

>  <fMF>
0.29

>  <nHBAcc>
5

>  <nHBDon>
2

>  <Kier1>
22.68

>  <Kier2>
9.43

>  <Lipinski>
1

>  <GhoseFilter>
1

>  <FilterItLogS>
-3.37

>  <VMcGowan>
306.58

>  <LabuteASA>
166.2

>  <PEOE_VSA1>
14.33

>  <PEOE_VSA2>
9.35

>  <PEOE_VSA3>
0

>  <PEOE_VSA4>
8.42

>  <PEOE_VSA5>
0

>  <PEOE_VSA6>
30.33

>  <PEOE_VSA7>
5.56

>  <PEOE_VSA8>
32.1

>  <PEOE_VSA9>
38.04

>  <PEOE_VSA10>
12.02

>  <PEOE_VSA11>
0

>  <PEOE_VSA12>
0

>  <PEOE_VSA13>
10.12

>  <SMR_VSA1>
32.09

>  <SMR_VSA2>
0

>  <SMR_VSA3>
0

>  <SMR_VSA4>
0

>  <SMR_VSA5>
56.21

>  <SMR_VSA6>
25.95

>  <SMR_VSA7>
35.9

>  <SMR_VSA8>
0

>  <SMR_VSA9>
0

>  <SlogP_VSA1>
0

>  <SlogP_VSA2>
72.67

>  <SlogP_VSA3>
19.65

>  <SlogP_VSA4>
0

>  <SlogP_VSA5>
43.59

>  <SlogP_VSA6>
30.33

>  <SlogP_VSA7>
0

>  <SlogP_VSA8>
0

>  <SlogP_VSA9>
0

>  <SlogP_VSA10>
0

>  <SlogP_VSA11>
0

>  <EState_VSA1>
16.04

>  <EState_VSA2>
24.43

>  <EState_VSA3>
25.05

>  <EState_VSA4>
35.73

>  <EState_VSA5>
0

>  <EState_VSA6>
0

>  <EState_VSA7>
30.33

>  <EState_VSA8>
7.05

>  <EState_VSA9>
9.29

>  <EState_VSA10>
18.32

>  <VSA_EState1>
37.57

>  <VSA_EState2>
12.64

>  <VSA_EState3>
9.67

>  <VSA_EState4>
0.75

>  <VSA_EState5>
-1.27

>  <VSA_EState6>
9.81

>  <VSA_EState7>
3.81

>  <VSA_EState8>
0.41

>  <VSA_EState9>
-1.79

>  <apol>
62.22

>  <bpol>
41.64

>  <nRing>
3

>  <nHRing>
2

>  <naRing>
1

>  <naHRing>
0

>  <nARing 2>
2

>  <nAHRing 2>
2

>  <nFRing>
1

>  <nFHRing>
1

>  <nFaRing>
0

>  <nFaHRing>
0

>  <nFARing 2>
1

>  <nFAHRing 2>
1

>  <nRot>
8

>  <SLogP>
1.72

>  <SMR>
104.28

>  <TopoPSA(NO)>
100.9

>  <TopoPSA>
109.28

>  <JGI1>
0.27

>  <JGI2>
0.09

>  <JGI3>
0.06

>  <JGI4>
0.03

>  <JGI5>
0.03

>  <Diameter>
15

>  <Radius>
8

>  <TMWC10>
134.85

>  <TSRW10>
78.08

>  <MW>
412.18

>  <AMW>
7.11

>  <WPath>
2237

>  <WPol>
44

>  <Zagreb1>
148

>  <Zagreb2>
173

>  <mZagreb2>
6.06

>  <yes>


>  <nAR-cont>
1

>  <nHA-cont>
0.82432561

>  <MWHBN>
0.344789937

>  <MWHBN-cont>
0.689598798

>  <TPSA-cont>
0.237157741

>  <pka_cont>
0.97

>  <yes.1>


>  <BBB_SCORE>
3.818039289

>  <MMFF94 Energy>
4.6538

$$$$
Compound 2367
Actelion Java MolfileCreator 2.0

  0  0  0  0  0  0              0 V3000
M  V30 BEGIN CTAB
M  V30 COUNTS 42 45 0 0 0
M  V30 BEGIN ATOM
M  V30 1 I 1.8691 6.268 -1.5439 0
M  V30 2 C 1.0378 4.8525 -0.2701 0
M  V30 3 C 0.7705 3.5668 -0.7396 0
M  V30 4 C 0.7469 5.191 1.0461 0
M  V30 5 C 0.2155 2.5893 0.0985 0
M  V30 6 C 0.1838 4.2347 1.8899 0
M  V30 7 N -0.0399 1.3479 -0.5012 0
M  V30 8 C -0.0866 2.9349 1.4236 0
M  V30 9 C 0.1493 0.1568 0.016 0
M  V30 10 C -0.689 1.9237 2.3529 0
M  V30 11 N 8.0E-4 -0.9482 -0.8319 0
M  V30 12 N 0.4975 -0.0424 1.3839 0
M  V30 13 C 0.1791 0.7337 2.4751 0
M  V30 14 C 0.292 -0.8382 -2.2704 0
M  V30 15 C -0.2439 -2.3259 -0.3811 0
M  V30 16 N 1.1958 -1.1371 1.8033 0
M  V30 17 N 0.6942 0.2143 3.5707 0
M  V30 18 C -0.78 -1.5549 -3.114 0
M  V30 19 C -1.2804 -3.035 -1.2856 0
M  V30 20 C 1.3188 -0.9106 3.114 0
M  V30 21 N -0.9438 -2.9708 -2.7223 0
M  V30 22 C 2.0515 -1.827 4.0103 0
M  V30 23 C -1.9825 -3.6114 -3.5261 0
M  V30 24 H 0.9888 3.3013 -1.7715 0
M  V30 25 H 0.9496 6.1881 1.4286 0
M  V30 26 H -0.0392 4.5081 2.9198 0
M  V30 27 H -0.8422 2.3574 3.3488 0
M  V30 28 H -1.6837 1.639 1.988 0
M  V30 29 H 0.3508 0.2038 -2.6027 0
M  V30 30 H 1.2758 -1.2844 -2.4626 0
M  V30 31 H 0.6998 -2.8839 -0.3857 0
M  V30 32 H -0.6544 -2.347 0.6338 0
M  V30 33 H -0.4805 -1.4997 -4.1675 0
M  V30 34 H -1.7329 -1.0175 -3.0136 0
M  V30 35 H -1.346 -4.0836 -0.9709 0
M  V30 36 H -2.2653 -2.5802 -1.11 0
M  V30 37 H 2.0808 -1.4343 5.0314 0
M  V30 38 H 3.0825 -1.9585 3.6677 0
M  V30 39 H 1.5659 -2.8074 4.0364 0
M  V30 40 H -1.7145 -3.5869 -4.5882 0
M  V30 41 H -2.9596 -3.1293 -3.4062 0
M  V30 42 H -2.0833 -4.667 -3.2509 0
M  V30 END ATOM
M  V30 BEGIN BOND
M  V30 1 1 1 2
M  V30 2 2 2 3
M  V30 3 1 2 4
M  V30 4 1 3 5
M  V30 5 2 4 6
M  V30 6 1 5 7
M  V30 7 2 5 8
M  V30 8 2 7 9
M  V30 9 1 8 10
M  V30 10 1 9 11
M  V30 11 1 9 12
M  V30 12 1 10 13
M  V30 13 1 11 14
M  V30 14 1 11 15
M  V30 15 1 12 16
M  V30 16 2 13 17
M  V30 17 1 14 18
M  V30 18 1 15 19
M  V30 19 2 16 20
M  V30 20 1 18 21
M  V30 21 1 20 22
M  V30 22 1 21 23
M  V30 23 1 6 8
M  V30 24 1 12 13
M  V30 25 1 17 20
M  V30 26 1 19 21
M  V30 27 1 3 24
M  V30 28 1 4 25
M  V30 29 1 6 26
M  V30 30 1 10 27
M  V30 31 1 10 28
M  V30 32 1 14 29
M  V30 33 1 14 30
M  V30 34 1 15 31
M  V30 35 1 15 32
M  V30 36 1 18 33
M  V30 37 1 18 34
M  V30 38 1 19 35
M  V30 39 1 19 36
M  V30 40 1 22 37
M  V30 41 1 22 38
M  V30 42 1 22 39
M  V30 43 1 23 40
M  V30 44 1 23 41
M  V30 45 1 23 42
M  V30 END BOND
M  V30 END CTAB
M  END
>  <Column 1>
2899

>  <level_0>
4960

>  <index>
4960

>  <Unnamed: 0>
4960

>  <NO.>
4972

>  <Name>
schembl2056520

>  <IUPAC_name>
8-iodo-2-methyl-5-(4-methylpiperazin-1-yl)-11h-[1-2-4]triazolo[1-5-c][1-3]benzodiazepine

>  <SMILES>
Cc1nc2n(n1)C(N1CCN(C)CC1)=Nc1cc(I)ccc1C2

>  <CID>
10342163

>  <logBB>


>  <BBB+/BBB->
BBB+

>  <Inchi>
InChI=1S/C16H19IN6/c1-11-18-15-9-12-3-4-13(17)10-14(12)19-16(23(15)20-11)22-7-5-21(2)6-8-22/h3-4-10H-5-9H2-1-2H3

>  <threshold>


>  <reference>
R6|

>  <group>
C

>  <Class>
1

>  <ABC>
18.55

>  <ABCGG>
14.54

>  <nAcid>
0

>  <nBase>
3

>  <nAromAtom>
11

>  <nAromBond>
11

>  <nAtom>
42

>  <nHeavyAtom>
23

>  <nSpiro>
0

>  <nBridgehead>
0

>  <nHetero>
7

>  <nN>
6

>  <nO>
0

>  <nF>
0

>  <BalabanJ>
1.54

>  <BertzCT>
772.87

>  <nBonds>
45

>  <nBondsO>
26

>  <nBondsS>
33

>  <nBondsD>
1

>  <nBondsT>
0

>  <nBondsA>
11

>  <nBondsM>
12

>  <nBondsKS>
39

>  <nBondsKD>
6

>  <RNCG>
0.21

>  <RPCG>
0.14

>  <FCSP3>
0.44

>  <SZ>
35

>  <Sm>
35.16

>  <Sv>
27.28

>  <Sse>
41.92

>  <Sp>
30.74

>  <Si>
47.62

>  <MZ>
0.83

>  <Mm>
0.84

>  <Mv>
0.65

>  <Mse>
1

>  <Mp>
0.73

>  <Mi>
1.13

>  <NsCH3>
2

>  <NdCH2>
0

>  <NssCH2>
5

>  <NtCH>
0

>  <NdsCH>
0

>  <NaaCH>
3

>  <NsssCH>
0

>  <NddC>
0

>  <NtsC>
0

>  <NdssC>
1

>  <NaasC>
5

>  <NaaaC>
0

>  <NssssC>
0

>  <NsNH3>
0

>  <NsNH2>
0

>  <NssNH2>
0

>  <NdNH>
0

>  <NssNH>
0

>  <NaaNH>
0

>  <NtN>
0

>  <NsssNH>
0

>  <NdsN>
1

>  <NaaN>
2

>  <NsssN>
2

>  <NddsN>
0

>  <NaasN>
1

>  <NssssN>
0

>  <NsOH>
0

>  <NdO>
0

>  <NssO>
0

>  <NaaO>
0

>  <NsF>
0

>  <NsSiH3>
0

>  <NssSiH2>
0

>  <NsssSiH>
0

>  <NssssSi>
0

>  <NsPH2>
0

>  <NssPH>
0

>  <NsssP>
0

>  <NdsssP>
0

>  <NsssssP>
0

>  <NsSH>
0

>  <NdS>
0

>  <NssS>
0

>  <NaaS>
0

>  <NdssS>
0

>  <NddssS>
0

>  <NsCl>
0

>  <NsBr>
0

>  <NsI>
1

>  <fragCpx>
170.07

>  <fMF>
0.48

>  <nHBAcc>
6

>  <nHBDon>
0

>  <Kier1>
16.47

>  <Kier2>
6.72

>  <Lipinski>
1

>  <GhoseFilter>
1

>  <FilterItLogS>
-4.09

>  <VMcGowan>
252.77

>  <LabuteASA>
148.9

>  <PEOE_VSA1>
9.8

>  <PEOE_VSA2>
0

>  <PEOE_VSA3>
9.98

>  <PEOE_VSA4>
4.68

>  <PEOE_VSA5>
5.1

>  <PEOE_VSA6>
6.07

>  <PEOE_VSA7>
54.26

>  <PEOE_VSA8>
36.17

>  <PEOE_VSA9>
5.69

>  <PEOE_VSA10>
11.65

>  <PEOE_VSA11>
0

>  <PEOE_VSA12>
5.96

>  <PEOE_VSA13>
0

>  <SMR_VSA1>
0

>  <SMR_VSA2>
0

>  <SMR_VSA3>
24.56

>  <SMR_VSA4>
4.99

>  <SMR_VSA5>
13.34

>  <SMR_VSA6>
33.23

>  <SMR_VSA7>
38.98

>  <SMR_VSA8>
0

>  <SMR_VSA9>
0

>  <SlogP_VSA1>
0

>  <SlogP_VSA2>
63.75

>  <SlogP_VSA3>
6.42

>  <SlogP_VSA4>
10.49

>  <SlogP_VSA5>
17.21

>  <SlogP_VSA6>
23.19

>  <SlogP_VSA7>
0

>  <SlogP_VSA8>
0

>  <SlogP_VSA9>
0

>  <SlogP_VSA10>
5.69

>  <SlogP_VSA11>
0

>  <EState_VSA1>
0

>  <EState_VSA2>
0

>  <EState_VSA3>
0

>  <EState_VSA4>
55.9

>  <EState_VSA5>
9.13

>  <EState_VSA6>
0

>  <EState_VSA7>
11.61

>  <EState_VSA8>
67.72

>  <EState_VSA9>
4.99

>  <EState_VSA10>
0

>  <VSA_EState1>
3.14

>  <VSA_EState2>
14.28

>  <VSA_EState3>
4.61

>  <VSA_EState4>
2.25

>  <VSA_EState5>
2.69

>  <VSA_EState6>
6.43

>  <VSA_EState7>
0.77

>  <VSA_EState8>
5.96

>  <VSA_EState9>
2.16

>  <apol>
51.34

>  <bpol>
30.15

>  <nRing>
4

>  <nHRing>
3

>  <naRing>
2

>  <naHRing>
1

>  <nARing 2>
2

>  <nAHRing 2>
2

>  <nFRing>
1

>  <nFHRing>
1

>  <nFaRing>
0

>  <nFaHRing>
0

>  <nFARing 2>
1

>  <nFAHRing 2>
1

>  <nRot>
0

>  <SLogP>
1.88

>  <SMR>
98.29

>  <TopoPSA(NO)>
49.55

>  <TopoPSA>
49.55

>  <JGI1>
0.21

>  <JGI2>
0.07

>  <JGI3>
0.04

>  <JGI4>
0.04

>  <JGI5>
0.02

>  <Diameter>
10

>  <Radius>
5

>  <TMWC10>
124.92

>  <TSRW10>
72

>  <MW>
422.07

>  <AMW>
10.05

>  <WPath>
1085

>  <WPol>
40

>  <Zagreb1>
128

>  <Zagreb2>
153

>  <mZagreb2>
4.86

>  <yes>


>  <nAR-cont>
1

>  <nHA-cont>
0.967789328

>  <MWHBN>
0.292051209

>  <MWHBN-cont>
0.863819028

>  <TPSA-cont>
0.654110231

>  <pka_cont>
0.97

>  <yes.1>


>  <BBB_SCORE>
5.056738332

>  <MMFF94 Energy>
140.52

$$$$
Compound 2368
Actelion Java MolfileCreator 2.0

  0  0  0  0  0  0              0 V3000
M  V30 BEGIN CTAB
M  V30 COUNTS 48 48 0 0 0
M  V30 BEGIN ATOM
M  V30 1 O 0.8626 1.5689 -1.0195 0
M  V30 2 C -0.0167 0.9838 -0.4037 0
M  V30 3 O -1.1705 1.5571 0.0364 0
M  V30 4 C 0.0095 -0.4704 -0.0163 0
M  V30 5 C -1.2832 2.9468 -0.2919 0
M  V30 6 C 1.2851 -1.1463 -0.5038 0
M  V30 7 C -2.5666 3.5531 0.2311 0
M  V30 8 C 1.3103 -2.6017 -0.1188 0
M  V30 9 C -2.7964 4.9506 0.1898 0
M  V30 10 C -3.5809 2.7431 0.7419 0
M  V30 11 O 0.4384 -3.176 0.5166 0
M  V30 12 O 2.4533 -3.1767 -0.5835 0
M  V30 13 C -4.0214 5.4272 0.6872 0
M  V30 14 C -1.7202 5.8641 -0.3568 0
M  V30 15 N -4.7603 3.1953 1.2183 0
M  V30 16 C 2.575 -4.5785 -0.284 0
M  V30 17 O -4.3298 6.761 0.6952 0
M  V30 18 C -4.968 4.5321 1.1898 0
M  V30 19 O -2.1506 7.2204 -0.4629 0
M  V30 20 C 3.9153 -5.0757 -0.8448 0
M  V30 21 C -6.2816 5.0214 1.7248 0
M  V30 22 N 4.1167 -6.5317 -0.7372 0
M  V30 23 C 4.2443 -6.9665 0.6552 0
M  V30 24 C 5.31 -6.9283 -1.4898 0
M  V30 25 H -0.8668 -0.9612 -0.455 0
M  V30 26 H -0.0588 -0.5386 1.0754 0
M  V30 27 H -1.2673 3.0568 -1.3828 0
M  V30 28 H -0.4332 3.4749 0.1556 0
M  V30 29 H 1.3531 -1.0756 -1.5954 0
M  V30 30 H 2.1616 -0.6568 -0.0641 0
M  V30 31 H -3.4787 1.6616 0.7891 0
M  V30 32 H -0.8505 5.8443 0.3075 0
M  V30 33 H -1.4291 5.5372 -1.36 0
M  V30 34 H 1.746 -5.1197 -0.7552 0
M  V30 35 H 2.5358 -4.7133 0.8022 0
M  V30 36 H -3.5895 7.2285 0.2499 0
M  V30 37 H -1.4029 7.7123 -0.8505 0
M  V30 38 H 3.9458 -4.7849 -1.9038 0
M  V30 39 H 4.7367 -4.5252 -0.3662 0
M  V30 40 H -6.8934 4.1847 2.0778 0
M  V30 41 H -6.1203 5.7002 2.5681 0
M  V30 42 H -6.8416 5.5419 0.9417 0
M  V30 43 H 3.3189 -6.7881 1.2117 0
M  V30 44 H 5.0664 -6.4593 1.1729 0
M  V30 45 H 4.4226 -8.0468 0.7058 0
M  V30 46 H 6.2195 -6.4553 -1.1018 0
M  V30 47 H 5.2055 -6.6614 -2.5474 0
M  V30 48 H 5.4438 -8.0152 -1.4556 0
M  V30 END ATOM
M  V30 BEGIN BOND
M  V30 1 2 1 2
M  V30 2 1 2 3
M  V30 3 1 2 4
M  V30 4 1 3 5
M  V30 5 1 4 6
M  V30 6 1 5 7
M  V30 7 1 6 8
M  V30 8 2 7 9
M  V30 9 1 7 10
M  V30 10 2 8 11
M  V30 11 1 8 12
M  V30 12 1 9 13
M  V30 13 1 9 14
M  V30 14 2 10 15
M  V30 15 1 12 16
M  V30 16 1 13 17
M  V30 17 2 13 18
M  V30 18 1 14 19
M  V30 19 1 16 20
M  V30 20 1 18 21
M  V30 21 1 20 22
M  V30 22 1 22 23
M  V30 23 1 22 24
M  V30 24 1 15 18
M  V30 25 1 4 25
M  V30 26 1 4 26
M  V30 27 1 5 27
M  V30 28 1 5 28
M  V30 29 1 6 29
M  V30 30 1 6 30
M  V30 31 1 10 31
M  V30 32 1 14 32
M  V30 33 1 14 33
M  V30 34 1 16 34
M  V30 35 1 16 35
M  V30 36 1 17 36
M  V30 37 1 19 37
M  V30 38 1 20 38
M  V30 39 1 20 39
M  V30 40 1 21 40
M  V30 41 1 21 41
M  V30 42 1 21 42
M  V30 43 1 23 43
M  V30 44 1 23 44
M  V30 45 1 23 45
M  V30 46 1 24 46
M  V30 47 1 24 47
M  V30 48 1 24 48
M  V30 END BOND
M  V30 END CTAB
M  END
>  <Column 1>
2900

>  <level_0>
4961

>  <index>
4961

>  <Unnamed: 0>
4961

>  <NO.>
4973

>  <Name>
pirisudanol

>  <IUPAC_name>
1-o-[2-(dimethylamino)ethyl] 4-o-[[5-hydroxy-4-(hydroxymethyl)-6-methylpyridin-3-yl]methyl] butanedioate

>  <SMILES>
Cc1ncc(COC(=O)CCC(=O)OCCN(C)C)c(CO)c1O

>  <CID>
65782

>  <logBB>


>  <BBB+/BBB->
BBB+

>  <Inchi>
InChI=1S/C16H24N2O6/c1-11-16(22)13(9-19)12(8-17-11)10-24-15(21)5-4-14(20)23-7-6-18(2)3/h8-19-22H-4-7-9-10H2-1-3H3

>  <threshold>


>  <reference>
R6|

>  <group>
C

>  <Class>
-1

>  <ABC>
17.51

>  <ABCGG>
14.87

>  <nAcid>
0

>  <nBase>
1

>  <nAromAtom>
6

>  <nAromBond>
6

>  <nAtom>
48

>  <nHeavyAtom>
24

>  <nSpiro>
0

>  <nBridgehead>
0

>  <nHetero>
8

>  <nN>
2

>  <nO>
6

>  <nF>
0

>  <BalabanJ>
2.22

>  <BertzCT>
573.93

>  <nBonds>
48

>  <nBondsO>
24

>  <nBondsS>
40

>  <nBondsD>
2

>  <nBondsT>
0

>  <nBondsA>
6

>  <nBondsM>
8

>  <nBondsKS>
43

>  <nBondsKD>
5

>  <RNCG>
0.17

>  <RPCG>
0.1

>  <FCSP3>
0.56

>  <SZ>
30.33

>  <Sm>
28.34

>  <Sv>
28.31

>  <Sse>
48.96

>  <Sp>
29.78

>  <Si>
54.82

>  <MZ>
0.63

>  <Mm>
0.59

>  <Mv>
0.59

>  <Mse>
1.02

>  <Mp>
0.62

>  <Mi>
1.14

>  <NsCH3>
3

>  <NdCH2>
0

>  <NssCH2>
6

>  <NtCH>
0

>  <NdsCH>
0

>  <NaaCH>
1

>  <NsssCH>
0

>  <NddC>
0

>  <NtsC>
0

>  <NdssC>
2

>  <NaasC>
4

>  <NaaaC>
0

>  <NssssC>
0

>  <NsNH3>
0

>  <NsNH2>
0

>  <NssNH2>
0

>  <NdNH>
0

>  <NssNH>
0

>  <NaaNH>
0

>  <NtN>
0

>  <NsssNH>
0

>  <NdsN>
0

>  <NaaN>
1

>  <NsssN>
1

>  <NddsN>
0

>  <NaasN>
0

>  <NssssN>
0

>  <NsOH>
2

>  <NdO>
2

>  <NssO>
2

>  <NaaO>
0

>  <NsF>
0

>  <NsSiH3>
0

>  <NssSiH2>
0

>  <NsssSiH>
0

>  <NssssSi>
0

>  <NsPH2>
0

>  <NssPH>
0

>  <NsssP>
0

>  <NdsssP>
0

>  <NsssssP>
0

>  <NsSH>
0

>  <NdS>
0

>  <NssS>
0

>  <NaaS>
0

>  <NdssS>
0

>  <NddssS>
0

>  <NsCl>
0

>  <NsBr>
0

>  <NsI>
0

>  <fragCpx>
24.08

>  <fMF>
0.13

>  <nHBAcc>
8

>  <nHBDon>
2

>  <Kier1>
22.04

>  <Kier2>
11.58

>  <Lipinski>
1

>  <GhoseFilter>
1

>  <FilterItLogS>
-3

>  <VMcGowan>
259.12

>  <LabuteASA>
140.56

>  <PEOE_VSA1>
24.59

>  <PEOE_VSA2>
14.57

>  <PEOE_VSA3>
0

>  <PEOE_VSA4>
0

>  <PEOE_VSA5>
0

>  <PEOE_VSA6>
0

>  <PEOE_VSA7>
21.02

>  <PEOE_VSA8>
23.87

>  <PEOE_VSA9>
25.14

>  <PEOE_VSA10>
18.96

>  <PEOE_VSA11>
0

>  <PEOE_VSA12>
0

>  <PEOE_VSA13>
0

>  <SMR_VSA1>
29.28

>  <SMR_VSA2>
0

>  <SMR_VSA3>
9.88

>  <SMR_VSA4>
0

>  <SMR_VSA5>
32.98

>  <SMR_VSA6>
27.25

>  <SMR_VSA7>
23.02

>  <SMR_VSA8>
0

>  <SMR_VSA9>
5.75

>  <SlogP_VSA1>
0

>  <SlogP_VSA2>
59.28

>  <SlogP_VSA3>
32.28

>  <SlogP_VSA4>
6.92

>  <SlogP_VSA5>
29.66

>  <SlogP_VSA6>
6.2

>  <SlogP_VSA7>
0

>  <SlogP_VSA8>
0

>  <SlogP_VSA9>
0

>  <SlogP_VSA10>
0

>  <SlogP_VSA11>
5.75

>  <EState_VSA1>
11.94

>  <EState_VSA2>
43.98

>  <EState_VSA3>
17.8

>  <EState_VSA4>
0

>  <EState_VSA5>
6.2

>  <EState_VSA6>
6.92

>  <EState_VSA7>
19

>  <EState_VSA8>
4.98

>  <EState_VSA9>
9.47

>  <EState_VSA10>
19.8

>  <VSA_EState1>
10.01

>  <VSA_EState2>
28.97

>  <VSA_EState3>
19.11

>  <VSA_EState4>
1.08

>  <VSA_EState5>
-1.14

>  <VSA_EState6>
0

>  <VSA_EState7>
1.28

>  <VSA_EState8>
1.97

>  <VSA_EState9>
3.73

>  <apol>
49.74

>  <bpol>
32.13

>  <nRing>
1

>  <nHRing>
1

>  <naRing>
1

>  <naHRing>
1

>  <nARing 2>
0

>  <nAHRing 2>
0

>  <nFRing>
0

>  <nFHRing>
0

>  <nFaRing>
0

>  <nFaHRing>
0

>  <nFARing 2>
0

>  <nFAHRing 2>
0

>  <nRot>
9

>  <SLogP>
0.52

>  <SMR>
85.1

>  <TopoPSA(NO)>
109.19

>  <TopoPSA>
109.19

>  <JGI1>
0.23

>  <JGI2>
0.1

>  <JGI3>
0.05

>  <JGI4>
0.04

>  <JGI5>
0.03

>  <Diameter>
15

>  <Radius>
8

>  <TMWC10>
119.73

>  <TSRW10>
57.44

>  <MW>
340.16

>  <AMW>
7.09

>  <WPath>
1675

>  <WPol>
32

>  <Zagreb1>
110

>  <Zagreb2>
121

>  <mZagreb2>
5.58

>  <yes>


>  <nAR-cont>
0.336376

>  <nHA-cont>
0.94700071

>  <MWHBN>
0.542198583

>  <MWHBN-cont>
0

>  <TPSA-cont>
0.237785997

>  <pka_cont>
0.97

>  <yes.1>


>  <BBB_SCORE>
2.243948704

>  <MMFF94 Energy>
7.0891

$$$$
Compound 2369
Actelion Java MolfileCreator 2.0

  0  0  0  0  0  0              0 V3000
M  V30 BEGIN CTAB
M  V30 COUNTS 33 34 0 0 0
M  V30 BEGIN ATOM
M  V30 1 S -1.1256 -1.5278 -1.6888 0
M  V30 2 O -0.5912 -1.6316 -3.0353 0
M  V30 3 O -1.9613 -2.5845 -1.148 0
M  V30 4 C 0.2651 -1.3179 -0.6001 0
M  V30 5 C -2.0632 -0.0216 -1.5887 0
M  V30 6 C 0.2511 -1.8959 0.6698 0
M  V30 7 C 1.3782 -0.6001 -1.042 0
M  V30 8 C -2.8221 0.2346 -0.4453 0
M  V30 9 C -2.0488 0.8845 -2.6497 0
M  V30 10 C 1.3516 -1.7282 1.5162 0
M  V30 11 C 2.4746 -0.4403 -0.1904 0
M  V30 12 C -3.5587 1.4191 -0.3626 0
M  V30 13 C -2.7913 2.0647 -2.5527 0
M  V30 14 C 2.4646 -0.9924 1.0978 0
M  V30 15 C -3.5616 2.3366 -1.4177 0
M  V30 16 N 3.6093 -0.8014 1.895 0
M  V30 17 N -4.2612 3.5244 -1.3127 0
M  V30 18 C 3.7088 -0.9824 3.2489 0
M  V30 19 O 2.8229 -1.2921 4.0327 0
M  V30 20 N 4.9709 -0.7665 3.7105 0
M  V30 21 H -0.6003 -2.4799 1.0129 0
M  V30 22 H 1.4037 -0.1695 -2.0406 0
M  V30 23 H -2.8503 -0.4739 0.3791 0
M  V30 24 H -1.4703 0.688 -3.5492 0
M  V30 25 H 1.3201 -2.1961 2.4969 0
M  V30 26 H 3.3329 0.1242 -0.5462 0
M  V30 27 H -4.139 1.6183 0.5351 0
M  V30 28 H -2.768 2.772 -3.378 0
M  V30 29 H 4.422 -0.4169 1.4401 0
M  V30 30 H -4.3294 4.1489 -2.1046 0
M  V30 31 H -4.8774 3.6857 -0.5274 0
M  V30 32 H 5.7659 -0.5855 3.1211 0
M  V30 33 H 5.115 -0.8787 4.7053 0
M  V30 END ATOM
M  V30 BEGIN BOND
M  V30 1 2 1 2
M  V30 2 2 1 3
M  V30 3 1 1 4
M  V30 4 1 1 5
M  V30 5 2 4 6
M  V30 6 1 4 7
M  V30 7 2 5 8
M  V30 8 1 5 9
M  V30 9 1 6 10
M  V30 10 2 7 11
M  V30 11 1 8 12
M  V30 12 2 9 13
M  V30 13 2 10 14
M  V30 14 2 12 15
M  V30 15 1 14 16
M  V30 16 1 15 17
M  V30 17 1 16 18
M  V30 18 2 18 19
M  V30 19 1 18 20
M  V30 20 1 11 14
M  V30 21 1 13 15
M  V30 22 1 6 21
M  V30 23 1 7 22
M  V30 24 1 8 23
M  V30 25 1 9 24
M  V30 26 1 10 25
M  V30 27 1 11 26
M  V30 28 1 12 27
M  V30 29 1 13 28
M  V30 30 1 16 29
M  V30 31 1 17 30
M  V30 32 1 17 31
M  V30 33 1 20 32
M  V30 34 1 20 33
M  V30 END BOND
M  V30 END CTAB
M  END
>  <Column 1>
2901

>  <level_0>
4966

>  <index>
4966

>  <Unnamed: 0>
4966

>  <NO.>
4978

>  <Name>
amidapsone

>  <IUPAC_name>
[4-(4-aminophenyl)sulfonylphenyl]urea

>  <SMILES>
NC(=O)Nc1ccc(S(=O)(=O)c2ccc(N)cc2)cc1

>  <CID>
66267

>  <logBB>


>  <BBB+/BBB->
BBB+

>  <Inchi>
InChI=1S/C13H13N3O3S/c14-9-1-5-11(6-2-9)20(18-19)12-7-3-10(4-8-12)16-13(15)17/h1-8H-14H2-(H3-15-16-17)

>  <threshold>


>  <reference>
R6|

>  <group>
C

>  <Class>
-1

>  <ABC>
15.37

>  <ABCGG>
12.71

>  <nAcid>
0

>  <nBase>
0

>  <nAromAtom>
12

>  <nAromBond>
12

>  <nAtom>
33

>  <nHeavyAtom>
20

>  <nSpiro>
0

>  <nBridgehead>
0

>  <nHetero>
7

>  <nN>
3

>  <nO>
3

>  <nF>
0

>  <BalabanJ>
1.85

>  <BertzCT>
722.46

>  <nBonds>
34

>  <nBondsO>
21

>  <nBondsS>
19

>  <nBondsD>
3

>  <nBondsT>
0

>  <nBondsA>
12

>  <nBondsM>
15

>  <nBondsKS>
25

>  <nBondsKD>
9

>  <RNCG>
0.19

>  <RPCG>
0.15

>  <FCSP3>
0

>  <SZ>
25.33

>  <Sm>
24.25

>  <Sv>
22.13

>  <Sse>
33.83

>  <Sp>
23.34

>  <Si>
37.12

>  <MZ>
0.77

>  <Mm>
0.74

>  <Mv>
0.67

>  <Mse>
1.03

>  <Mp>
0.71

>  <Mi>
1.12

>  <NsCH3>
0

>  <NdCH2>
0

>  <NssCH2>
0

>  <NtCH>
0

>  <NdsCH>
0

>  <NaaCH>
8

>  <NsssCH>
0

>  <NddC>
0

>  <NtsC>
0

>  <NdssC>
1

>  <NaasC>
4

>  <NaaaC>
0

>  <NssssC>
0

>  <NsNH3>
0

>  <NsNH2>
2

>  <NssNH2>
0

>  <NdNH>
0

>  <NssNH>
1

>  <NaaNH>
0

>  <NtN>
0

>  <NsssNH>
0

>  <NdsN>
0

>  <NaaN>
0

>  <NsssN>
0

>  <NddsN>
0

>  <NaasN>
0

>  <NssssN>
0

>  <NsOH>
0

>  <NdO>
3

>  <NssO>
0

>  <NaaO>
0

>  <NsF>
0

>  <NsSiH3>
0

>  <NssSiH2>
0

>  <NsssSiH>
0

>  <NssssSi>
0

>  <NsPH2>
0

>  <NssPH>
0

>  <NsssP>
0

>  <NdsssP>
0

>  <NsssssP>
0

>  <NsSH>
0

>  <NdS>
0

>  <NssS>
0

>  <NaaS>
0

>  <NdssS>
0

>  <NddssS>
1

>  <NsCl>
0

>  <NsBr>
0

>  <NsI>
0

>  <fragCpx>
61.07

>  <fMF>
0.39

>  <nHBAcc>
4

>  <nHBDon>
3

>  <Kier1>
16.37

>  <Kier2>
6.84

>  <Lipinski>
1

>  <GhoseFilter>
1

>  <FilterItLogS>
-2.9

>  <VMcGowan>
206.11

>  <LabuteASA>
115.87

>  <PEOE_VSA1>
16.78

>  <PEOE_VSA2>
0

>  <PEOE_VSA3>
13.21

>  <PEOE_VSA4>
0

>  <PEOE_VSA5>
0

>  <PEOE_VSA6>
0

>  <PEOE_VSA7>
48.53

>  <PEOE_VSA8>
11.37

>  <PEOE_VSA9>
9.79

>  <PEOE_VSA10>
0

>  <PEOE_VSA11>
0

>  <PEOE_VSA12>
9.84

>  <PEOE_VSA13>
0

>  <SMR_VSA1>
13.21

>  <SMR_VSA2>
0

>  <SMR_VSA3>
0

>  <SMR_VSA4>
5.73

>  <SMR_VSA5>
9.79

>  <SMR_VSA6>
11.05

>  <SMR_VSA7>
48.53

>  <SMR_VSA8>
0

>  <SMR_VSA9>
0

>  <SlogP_VSA1>
16.78

>  <SlogP_VSA2>
14.45

>  <SlogP_VSA3>
9.84

>  <SlogP_VSA4>
0

>  <SlogP_VSA5>
0

>  <SlogP_VSA6>
58.32

>  <SlogP_VSA7>
0

>  <SlogP_VSA8>
0

>  <SlogP_VSA9>
0

>  <SlogP_VSA10>
16.17

>  <SlogP_VSA11>
0

>  <EState_VSA1>
15.87

>  <EState_VSA2>
9.79

>  <EState_VSA3>
11.37

>  <EState_VSA4>
0

>  <EState_VSA5>
48.53

>  <EState_VSA6>
0

>  <EState_VSA7>
0

>  <EState_VSA8>
5.32

>  <EState_VSA9>
11.47

>  <EState_VSA10>
13.21

>  <VSA_EState1>
24.65

>  <VSA_EState2>
10.96

>  <VSA_EState3>
2.36

>  <VSA_EState4>
11.42

>  <VSA_EState5>
0

>  <VSA_EState6>
10.96

>  <VSA_EState7>
0

>  <VSA_EState8>
0

>  <VSA_EState9>
-3.6

>  <apol>
38.98

>  <bpol>
20

>  <nRing>
2

>  <nHRing>
0

>  <naRing>
2

>  <naHRing>
0

>  <nARing 2>
0

>  <nAHRing 2>
0

>  <nFRing>
0

>  <nFHRing>
0

>  <nFaRing>
0

>  <nFaHRing>
0

>  <nFARing 2>
0

>  <nFAHRing 2>
0

>  <nRot>
3

>  <SLogP>
1.59

>  <SMR>
75.95

>  <TopoPSA(NO)>
115.28

>  <TopoPSA>
123.66

>  <JGI1>
0.29

>  <JGI2>
0.1

>  <JGI3>
0.06

>  <JGI4>
0.04

>  <JGI5>
0.03

>  <Diameter>
12

>  <Radius>
6

>  <TMWC10>
113.7

>  <TSRW10>
53.61

>  <MW>
291.07

>  <AMW>
8.82

>  <WPath>
866

>  <WPol>
30

>  <Zagreb1>
102

>  <Zagreb2>
117

>  <mZagreb2>
4.33

>  <yes>


>  <nAR-cont>
0.336376

>  <nHA-cont>
0.999629945

>  <MWHBN>
0.410297922

>  <MWHBN-cont>
0.435655999

>  <TPSA-cont>
0

>  <pka_cont>
0.97

>  <yes.1>


>  <BBB_SCORE>
2.474489944

>  <MMFF94 Energy>
-9.368

$$$$
Compound 2370
Actelion Java MolfileCreator 2.0

  0  0  0  0  0  0              0 V3000
M  V30 BEGIN CTAB
M  V30 COUNTS 46 49 0 0 0
M  V30 BEGIN ATOM
M  V30 1 S -1.0699 0.8229 -1.8112 0
M  V30 2 C -1.8695 0.6829 -0.1873 0 CFG=1
M  V30 3 C -0.7526 -0.9583 -1.9586 0
M  V30 4 N -0.9125 0.1006 0.7197 0
M  V30 5 C -1.8683 1.9451 0.7308 0 CFG=1
M  V30 6 C -0.0913 -1.5725 -0.7361 0
M  V30 7 C -0.1674 -1.0114 0.4947 0
M  V30 8 C -0.9142 1.086 1.6473 0
M  V30 9 N -1.2667 3.1836 0.1688 0
M  V30 10 C 0.7317 -2.8082 -1.0554 0
M  V30 11 C 0.6287 -1.5557 1.6298 0
M  V30 12 O -0.2976 1.1998 2.6785 0
M  V30 13 C -1.1963 4.3418 0.9121 0
M  V30 14 N 0.343 -4.0057 -0.2609 0 CHG=1
M  V30 15 O 1.7705 -1.9721 1.5466 0
M  V30 16 O -0.1204 -1.675 2.734 0
M  V30 17 O -1.7433 4.43 2.0099 0
M  V30 18 C -0.5014 5.5293 0.2628 0
M  V30 19 C 1.2868 -4.6659 0.4558 0
M  V30 20 C -0.9284 -4.4727 -0.3074 0
M  V30 21 C 0.6906 5.1303 -0.5595 0
M  V30 22 C 0.9603 -5.8051 1.182 0
M  V30 23 C -1.2964 -5.6085 0.4043 0
M  V30 24 S 2.0902 4.4861 0.1933 0
M  V30 25 C 0.8509 5.2245 -1.9286 0
M  V30 26 C -0.3438 -6.2786 1.1587 0
M  V30 27 C 2.8983 4.324 -1.3035 0
M  V30 28 C 2.1252 4.7539 -2.3581 0
M  V30 29 H -2.8272 0.1496 -0.1976 0
M  V30 30 H -1.691 -1.4817 -2.171 0
M  V30 31 H -0.1029 -1.0729 -2.8326 0
M  V30 32 H -2.8453 2.1412 1.1879 0
M  V30 33 H -0.8038 3.1564 -0.7352 0
M  V30 34 H 0.5943 -3.1202 -2.0988 0
M  V30 35 H 1.8007 -2.6076 -0.9288 0
M  V30 36 H 0.4921 -1.84 3.4823 0
M  V30 37 H -0.1917 6.2258 1.0509 0
M  V30 38 H -1.2405 6.0423 -0.3634 0
M  V30 39 H 2.299 -4.2686 0.4548 0
M  V30 40 H -1.6461 -3.9329 -0.9175 0
M  V30 41 H 1.7213 -6.3196 1.7653 0
M  V30 42 H -2.3212 -5.9727 0.3699 0
M  V30 43 H 0.095 5.6244 -2.5954 0
M  V30 44 H -0.6152 -7.1696 1.7239 0
M  V30 45 H 3.9067 3.9344 -1.3364 0
M  V30 46 H 2.4645 4.7475 -3.387 0
M  V30 END ATOM
M  V30 BEGIN BOND
M  V30 1 1 1 2
M  V30 2 1 1 3
M  V30 3 1 2 4
M  V30 4 1 2 5
M  V30 5 1 3 6
M  V30 6 1 4 7
M  V30 7 1 4 8
M  V30 8 1 5 9
M  V30 9 1 6 10
M  V30 10 1 7 11
M  V30 11 2 8 12
M  V30 12 1 9 13
M  V30 13 1 10 14
M  V30 14 2 11 15
M  V30 15 1 11 16
M  V30 16 2 13 17
M  V30 17 1 13 18
M  V30 18 2 14 19
M  V30 19 1 14 20
M  V30 20 1 18 21
M  V30 21 1 19 22
M  V30 22 2 20 23
M  V30 23 1 21 24
M  V30 24 2 21 25
M  V30 25 2 22 26
M  V30 26 1 24 27
M  V30 27 1 25 28
M  V30 28 1 5 8
M  V30 29 2 6 7
M  V30 30 1 23 26
M  V30 31 2 27 28
M  V30 32 1 2 29
M  V30 33 1 3 30
M  V30 34 1 3 31
M  V30 35 1 5 32
M  V30 36 1 9 33
M  V30 37 1 10 34
M  V30 38 1 10 35
M  V30 39 1 16 36
M  V30 40 1 18 37
M  V30 41 1 18 38
M  V30 42 1 19 39
M  V30 43 1 20 40
M  V30 44 1 22 41
M  V30 45 1 23 42
M  V30 46 1 25 43
M  V30 47 1 26 44
M  V30 48 1 27 45
M  V30 49 1 28 46
M  V30 END BOND
M  V30 BEGIN COLLECTION
M  V30 MDLV30/STEABS ATOMS=(2 2 5)
M  V30 END COLLECTION
M  V30 END CTAB
M  END
>  <Column 1>
2905

>  <level_0>
4982

>  <index>
4982

>  <Unnamed: 0>
4982

>  <NO.>
4994

>  <Name>
cefaloridine

>  <IUPAC_name>
(6r-7r)-8-oxo-3-(pyridin-1-ium-1-ylmethyl)-7-[(2-thiophen-2-ylacetyl)amino]-5-thia-1-azabicyclo[4.2.0]oct-2-ene-2-carboxylate

>  <SMILES>
O=C(Cc1cccs1)N[C@@H]1C(=O)N2C(C(=O)O)=C(C[n+]3ccccc3)CS[C@H]12

>  <CID>
5774

>  <logBB>


>  <BBB+/BBB->
BBB-

>  <Inchi>
InChI=1S/C19H17N3O4S2/c23-14(9-13-5-4-8-27-13)20-15-17(24)22-16(19(25)26)12(11-28-18(15)22)10-21-6-2-1-3-7-21/h1-8-15-18H-9-11H2-(H--20-23-25-26)/p+1/t15--18-/m1/s1

>  <threshold>


>  <reference>
R6|

>  <group>
C

>  <Class>
-1

>  <ABC>
22.07

>  <ABCGG>
17.48

>  <nAcid>
1

>  <nBase>
1

>  <nAromAtom>
11

>  <nAromBond>
11

>  <nAtom>
46

>  <nHeavyAtom>
28

>  <nSpiro>
0

>  <nBridgehead>
0

>  <nHetero>
9

>  <nN>
3

>  <nO>
4

>  <nF>
0

>  <BalabanJ>
1.33

>  <BertzCT>
943.35

>  <nBonds>
49

>  <nBondsO>
31

>  <nBondsS>
34

>  <nBondsD>
4

>  <nBondsT>
0

>  <nBondsA>
11

>  <nBondsM>
15

>  <nBondsKS>
40

>  <nBondsKD>
9

>  <RNCG>
0.19

>  <RPCG>
0.1

>  <FCSP3>
0.26

>  <SZ>
36.17

>  <Sm>
34.68

>  <Sv>
31.38

>  <Sse>
46.96

>  <Sp>
33.56

>  <Si>
51.29

>  <MZ>
0.79

>  <Mm>
0.75

>  <Mv>
0.68

>  <Mse>
1.02

>  <Mp>
0.73

>  <Mi>
1.11

>  <NsCH3>
0

>  <NdCH2>
0

>  <NssCH2>
3

>  <NtCH>
0

>  <NdsCH>
0

>  <NaaCH>
8

>  <NsssCH>
2

>  <NddC>
0

>  <NtsC>
0

>  <NdssC>
5

>  <NaasC>
1

>  <NaaaC>
0

>  <NssssC>
0

>  <NsNH3>
0

>  <NsNH2>
0

>  <NssNH2>
0

>  <NdNH>
0

>  <NssNH>
1

>  <NaaNH>
0

>  <NtN>
0

>  <NsssNH>
0

>  <NdsN>
0

>  <NaaN>
0

>  <NsssN>
1

>  <NddsN>
0

>  <NaasN>
1

>  <NssssN>
0

>  <NsOH>
1

>  <NdO>
3

>  <NssO>
0

>  <NaaO>
0

>  <NsF>
0

>  <NsSiH3>
0

>  <NssSiH2>
0

>  <NsssSiH>
0

>  <NssssSi>
0

>  <NsPH2>
0

>  <NssPH>
0

>  <NsssP>
0

>  <NdsssP>
0

>  <NsssssP>
0

>  <NsSH>
0

>  <NdS>
0

>  <NssS>
1

>  <NaaS>
1

>  <NdssS>
0

>  <NddssS>
0

>  <NsCl>
0

>  <NsBr>
0

>  <NsI>
0

>  <fragCpx>
205.09

>  <fMF>
0.5

>  <nHBAcc>
5

>  <nHBDon>
2

>  <Kier1>
21.24

>  <Kier2>
9.43

>  <Lipinski>
1

>  <GhoseFilter>
1

>  <FilterItLogS>
-2.37

>  <VMcGowan>
284.7

>  <LabuteASA>
169.22

>  <PEOE_VSA1>
10.42

>  <PEOE_VSA2>
14.49

>  <PEOE_VSA3>
9.36

>  <PEOE_VSA4>
0

>  <PEOE_VSA5>
23.1

>  <PEOE_VSA6>
12.13

>  <PEOE_VSA7>
11.45

>  <PEOE_VSA8>
28.34

>  <PEOE_VSA9>
6.42

>  <PEOE_VSA10>
17.11

>  <PEOE_VSA11>
18.94

>  <PEOE_VSA12>
5.91

>  <PEOE_VSA13>
5.91

>  <SMR_VSA1>
24.06

>  <SMR_VSA2>
0

>  <SMR_VSA3>
10.22

>  <SMR_VSA4>
0

>  <SMR_VSA5>
24.38

>  <SMR_VSA6>
5.75

>  <SMR_VSA7>
64.25

>  <SMR_VSA8>
0

>  <SMR_VSA9>
0

>  <SlogP_VSA1>
9.88

>  <SlogP_VSA2>
44.96

>  <SlogP_VSA3>
27.35

>  <SlogP_VSA4>
0

>  <SlogP_VSA5>
4.88

>  <SlogP_VSA6>
59.38

>  <SlogP_VSA7>
0

>  <SlogP_VSA8>
0

>  <SlogP_VSA9>
0

>  <SlogP_VSA10>
0

>  <SlogP_VSA11>
0

>  <EState_VSA1>
12.01

>  <EState_VSA2>
29.31

>  <EState_VSA3>
17.87

>  <EState_VSA4>
4.88

>  <EState_VSA5>
28

>  <EState_VSA6>
0

>  <EState_VSA7>
52.67

>  <EState_VSA8>
5.32

>  <EState_VSA9>
0

>  <EState_VSA10>
19.49

>  <VSA_EState1>
1.88

>  <VSA_EState2>
38.99

>  <VSA_EState3>
13.99

>  <VSA_EState4>
0.72

>  <VSA_EState5>
-1.22

>  <VSA_EState6>
8.68

>  <VSA_EState7>
3.93

>  <VSA_EState8>
0.4

>  <VSA_EState9>
0

>  <apol>
56.04

>  <bpol>
29.57

>  <nRing>
4

>  <nHRing>
4

>  <naRing>
2

>  <naHRing>
2

>  <nARing 2>
2

>  <nAHRing 2>
2

>  <nFRing>
1

>  <nFHRing>
1

>  <nFaRing>
0

>  <nFaHRing>
0

>  <nFARing 2>
1

>  <nFAHRing 2>
1

>  <nRot>
6

>  <SLogP>
1.02

>  <SMR>
104.34

>  <TopoPSA(NO)>
90.59

>  <TopoPSA>
144.13

>  <JGI1>
0.16

>  <JGI2>
0.06

>  <JGI3>
0.07

>  <JGI4>
0.04

>  <JGI5>
0.03

>  <Diameter>
15

>  <Radius>
8

>  <TMWC10>
136.49

>  <TSRW10>
77.1

>  <MW>
416.07

>  <AMW>
9.05

>  <WPath>
2180

>  <WPol>
41

>  <Zagreb1>
150

>  <Zagreb2>
179

>  <mZagreb2>
6.11

>  <yes>


>  <nAR-cont>
1

>  <nHA-cont>
0.82432561

>  <MWHBN>
0.343174365

>  <MWHBN-cont>
0.695541153

>  <TPSA-cont>
0

>  <pka_cont>
0.97

>  <yes.1>


>  <BBB_SCORE>
3.35263734

>  <MMFF94 Energy>
48.832

$$$$
Compound 2371
Actelion Java MolfileCreator 2.0

  0  0  0  0  0  0              0 V3000
M  V30 BEGIN CTAB
M  V30 COUNTS 17 18 0 0 0
M  V30 BEGIN ATOM
M  V30 1 O -2.4129 -1.2863 1.2863 0
M  V30 2 C -1.2831 -0.8576 1.1272 0
M  V30 3 N -0.7122 -0.2547 -0.0022 0
M  V30 4 C -0.1679 -0.8795 2.1791 0
M  V30 5 C -1.1759 0.0621 -1.2753 0
M  V30 6 C 0.5825 0.0928 0.2056 0
M  V30 7 C 0.9766 -0.2306 1.4351 0
M  V30 8 O -2.2784 -0.1197 -1.7619 0
M  V30 9 C -0.0043 0.7112 -1.9958 0
M  V30 10 C 1.1655 0.7262 -0.9957 0
M  V30 11 H 0.0675 -1.9101 2.4544 0
M  V30 12 H -0.4629 -0.2905 3.0507 0
M  V30 13 H 1.958 -0.063 1.8531 0
M  V30 14 H -0.2796 1.727 -2.2957 0
M  V30 15 H 0.2451 0.125 -2.8855 0
M  V30 16 H 2.0138 0.1539 -1.3836 0
M  V30 17 H 1.4904 1.7518 -0.7953 0
M  V30 END ATOM
M  V30 BEGIN BOND
M  V30 1 2 1 2
M  V30 2 1 2 3
M  V30 3 1 2 4
M  V30 4 1 3 5
M  V30 5 1 3 6
M  V30 6 1 4 7
M  V30 7 2 5 8
M  V30 8 1 5 9
M  V30 9 1 6 10
M  V30 10 2 6 7
M  V30 11 1 9 10
M  V30 12 1 4 11
M  V30 13 1 4 12
M  V30 14 1 7 13
M  V30 15 1 9 14
M  V30 16 1 9 15
M  V30 17 1 10 16
M  V30 18 1 10 17
M  V30 END BOND
M  V30 END CTAB
M  END
>  <Column 1>
2907

>  <level_0>
4986

>  <index>
4986

>  <Unnamed: 0>
4986

>  <NO.>
4998

>  <Name>
2-6-dihydro-1h-pyrrolizine-3-5-dione

>  <IUPAC_name>
2-6-dihydro-1h-pyrrolizine-3-5-dione

>  <SMILES>
O=C1CC=C2CCC(=O)N12

>  <CID>
11819136

>  <logBB>


>  <BBB+/BBB->
BBB+

>  <Inchi>
InChI=1S/C7H7NO2/c9-6-3-1-5-2-4-7(10)8(5)6/h1H-2-4H2

>  <threshold>


>  <reference>
R6|

>  <group>
C

>  <Class>
1

>  <ABC>
7.88

>  <ABCGG>
7.88

>  <nAcid>
0

>  <nBase>
0

>  <nAromAtom>
0

>  <nAromBond>
0

>  <nAtom>
17

>  <nHeavyAtom>
10

>  <nSpiro>
0

>  <nBridgehead>
0

>  <nHetero>
3

>  <nN>
1

>  <nO>
2

>  <nF>
0

>  <BalabanJ>
2.11

>  <BertzCT>
241.99

>  <nBonds>
18

>  <nBondsO>
11

>  <nBondsS>
15

>  <nBondsD>
3

>  <nBondsT>
0

>  <nBondsA>
0

>  <nBondsM>
3

>  <nBondsKS>
15

>  <nBondsKD>
3

>  <RNCG>
0.32

>  <RPCG>
0.28

>  <FCSP3>
0.43

>  <SZ>
12

>  <Sm>
11.42

>  <Sv>
11.08

>  <Sse>
17.43

>  <Sp>
11.41

>  <Si>
19.16

>  <MZ>
0.71

>  <Mm>
0.67

>  <Mv>
0.65

>  <Mse>
1.03

>  <Mp>
0.67

>  <Mi>
1.13

>  <NsCH3>
0

>  <NdCH2>
0

>  <NssCH2>
3

>  <NtCH>
0

>  <NdsCH>
1

>  <NaaCH>
0

>  <NsssCH>
0

>  <NddC>
0

>  <NtsC>
0

>  <NdssC>
3

>  <NaasC>
0

>  <NaaaC>
0

>  <NssssC>
0

>  <NsNH3>
0

>  <NsNH2>
0

>  <NssNH2>
0

>  <NdNH>
0

>  <NssNH>
0

>  <NaaNH>
0

>  <NtN>
0

>  <NsssNH>
0

>  <NdsN>
0

>  <NaaN>
0

>  <NsssN>
1

>  <NddsN>
0

>  <NaasN>
0

>  <NssssN>
0

>  <NsOH>
0

>  <NdO>
2

>  <NssO>
0

>  <NaaO>
0

>  <NsF>
0

>  <NsSiH3>
0

>  <NssSiH2>
0

>  <NsssSiH>
0

>  <NssssSi>
0

>  <NsPH2>
0

>  <NssPH>
0

>  <NsssP>
0

>  <NdsssP>
0

>  <NsssssP>
0

>  <NsSH>
0

>  <NdS>
0

>  <NssS>
0

>  <NaaS>
0

>  <NdssS>
0

>  <NddssS>
0

>  <NsCl>
0

>  <NsBr>
0

>  <NsI>
0

>  <fragCpx>
31.03

>  <fMF>
0.47

>  <nHBAcc>
2

>  <nHBDon>
0

>  <Kier1>
6.69

>  <Kier2>
2.25

>  <Lipinski>
1

>  <GhoseFilter>
0

>  <FilterItLogS>
-0.65

>  <VMcGowan>
96.59

>  <LabuteASA>
58.31

>  <PEOE_VSA1>
0

>  <PEOE_VSA2>
14.49

>  <PEOE_VSA3>
0

>  <PEOE_VSA4>
0

>  <PEOE_VSA5>
0

>  <PEOE_VSA6>
6.08

>  <PEOE_VSA7>
6.42

>  <PEOE_VSA8>
18.54

>  <PEOE_VSA9>
0

>  <PEOE_VSA10>
0

>  <PEOE_VSA11>
0

>  <PEOE_VSA12>
11.81

>  <PEOE_VSA13>
0

>  <SMR_VSA1>
9.59

>  <SMR_VSA2>
0

>  <SMR_VSA3>
4.9

>  <SMR_VSA4>
0

>  <SMR_VSA5>
19.26

>  <SMR_VSA6>
0

>  <SMR_VSA7>
11.77

>  <SMR_VSA8>
0

>  <SMR_VSA9>
0

>  <SlogP_VSA1>
0

>  <SlogP_VSA2>
16.71

>  <SlogP_VSA3>
9.59

>  <SlogP_VSA4>
0

>  <SlogP_VSA5>
19.26

>  <SlogP_VSA6>
11.77

>  <SlogP_VSA7>
0

>  <SlogP_VSA8>
0

>  <SlogP_VSA9>
0

>  <SlogP_VSA10>
0

>  <SlogP_VSA11>
0

>  <EState_VSA1>
0

>  <EState_VSA2>
11.81

>  <EState_VSA3>
12.84

>  <EState_VSA4>
12.12

>  <EState_VSA5>
4.9

>  <EState_VSA6>
0

>  <EState_VSA7>
6.08

>  <EState_VSA8>
0

>  <EState_VSA9>
0

>  <EState_VSA10>
9.59

>  <VSA_EState1>
0

>  <VSA_EState2>
23.16

>  <VSA_EState3>
0

>  <VSA_EState4>
0.91

>  <VSA_EState5>
-0.09

>  <VSA_EState6>
0

>  <VSA_EState7>
3.52

>  <VSA_EState8>
0

>  <VSA_EState9>
0

>  <apol>
19.06

>  <bpol>
10.47

>  <nRing>
2

>  <nHRing>
2

>  <naRing>
0

>  <naHRing>
0

>  <nARing 2>
2

>  <nAHRing 2>
2

>  <nFRing>
1

>  <nFHRing>
1

>  <nFaRing>
0

>  <nFaHRing>
0

>  <nFARing 2>
1

>  <nFAHRing 2>
1

>  <nRot>
0

>  <SLogP>
0.42

>  <SMR>
33.79

>  <TopoPSA(NO)>
37.38

>  <TopoPSA>
37.38

>  <JGI1>
0.18

>  <JGI2>
0.1

>  <JGI3>
0.09

>  <JGI4>
0.04

>  <JGI5>
0

>  <Diameter>
4

>  <Radius>
2

>  <TMWC10>
88.96

>  <TSRW10>
56.37

>  <MW>
137.05

>  <AMW>
8.06

>  <WPath>
103

>  <WPol>
12

>  <Zagreb1>
54

>  <Zagreb2>
65

>  <mZagreb2>
2.17

>  <yes>


>  <nAR-cont>
1

>  <nHA-cont>
0.645914733

>  <MWHBN>
0.170840359

>  <MWHBN-cont>
0.975261485

>  <TPSA-cont>
0.739064388

>  <pka_cont>
0.97

>  <yes.1>


>  <BBB_SCORE>
5.071935738

>  <MMFF94 Energy>
12.463

$$$$
Compound 2372
Actelion Java MolfileCreator 2.0

  0  0  0  0  0  0              0 V3000
M  V30 BEGIN CTAB
M  V30 COUNTS 34 36 0 0 0
M  V30 BEGIN ATOM
M  V30 1 O 0.2397 4.1616 2.3192 0
M  V30 2 C -0.6215 3.3003 2.4424 0
M  V30 3 C -1.2479 2.5076 1.3168 0
M  V30 4 C -1.2527 2.9502 3.7563 0
M  V30 5 N -2.4804 1.9212 1.9606 0
M  V30 6 C -0.3444 1.3986 0.7708 0
M  V30 7 C -2.0818 1.736 3.3708 0
M  V30 8 O 0.8676 1.5172 0.6231 0
M  V30 9 N -1.0442 0.2548 0.4244 0
M  V30 10 C -0.4231 -0.8971 -0.1385 0 CFG=2
M  V30 11 C -0.2443 -1.0202 -1.6367 0
M  V30 12 C -1.2241 -1.9064 -0.9105 0
M  V30 13 C 1.0417 -1.5762 -2.1988 0
M  V30 14 C 2.2855 -1.0378 -1.8271 0
M  V30 15 C 1.0536 -2.7171 -3.0183 0
M  V30 16 C 3.4856 -1.5852 -2.2875 0
M  V30 17 C 2.2503 -3.2699 -3.4827 0
M  V30 18 C 3.467 -2.7007 -3.1189 0
M  V30 19 H -1.5484 3.1689 0.499 0
M  V30 20 H -0.4965 2.7097 4.5063 0
M  V30 21 H -1.8844 3.7825 4.0796 0
M  V30 22 H -3.2045 2.6449 1.9333 0
M  V30 23 H -2.96 1.6256 4.0146 0
M  V30 24 H -1.4895 0.8177 3.4642 0
M  V30 25 H -2.0294 0.2406 0.6796 0
M  V30 26 H 0.3662 -1.2964 0.4957 0
M  V30 27 H -0.6827 -0.2237 -2.2351 0
M  V30 28 H -0.9774 -2.9519 -0.7646 0
M  V30 29 H -2.2792 -1.7225 -1.0725 0
M  V30 30 H 2.3177 -0.1691 -1.1693 0
M  V30 31 H 0.1122 -3.1798 -3.3061 0
M  V30 32 H 4.4311 -1.1392 -1.9907 0
M  V30 33 H 2.2297 -4.1462 -4.1246 0
M  V30 34 H 4.3991 -3.1283 -3.4773 0
M  V30 END ATOM
M  V30 BEGIN BOND
M  V30 1 2 1 2
M  V30 2 1 2 3
M  V30 3 1 2 4
M  V30 4 1 3 5
M  V30 5 1 3 6
M  V30 6 1 4 7
M  V30 7 2 6 8
M  V30 8 1 6 9
M  V30 9 1 9 10
M  V30 10 1 10 11
M  V30 11 1 10 12
M  V30 12 1 11 13
M  V30 13 2 13 14
M  V30 14 1 13 15
M  V30 15 1 14 16
M  V30 16 2 15 17
M  V30 17 2 16 18
M  V30 18 1 5 7
M  V30 19 1 11 12
M  V30 20 1 17 18
M  V30 21 1 3 19
M  V30 22 1 4 20
M  V30 23 1 4 21
M  V30 24 1 5 22
M  V30 25 1 7 23
M  V30 26 1 7 24
M  V30 27 1 9 25
M  V30 28 1 10 26
M  V30 29 1 11 27
M  V30 30 1 12 28
M  V30 31 1 12 29
M  V30 32 1 14 30
M  V30 33 1 15 31
M  V30 34 1 16 32
M  V30 35 1 17 33
M  V30 36 1 18 34
M  V30 END BOND
M  V30 BEGIN COLLECTION
M  V30 MDLV30/STEABS ATOMS=(1 10)
M  V30 END COLLECTION
M  V30 END CTAB
M  END
>  <Column 1>
2908

>  <level_0>
4987

>  <index>
4987

>  <Unnamed: 0>
4987

>  <NO.>
4999

>  <Name>
rolicyprine

>  <IUPAC_name>
3-oxo-n-[(1s)-2-phenylcyclopropyl]pyrrolidine-2-carboxamide

>  <SMILES>
O=C1CCNC1C(=O)N[C@H]1CC1c1ccccc1

>  <CID>
10105879

>  <logBB>


>  <BBB+/BBB->
BBB+

>  <Inchi>
InChI=1S/C14H16N2O2/c17-12-6-7-15-13(12)14(18)16-11-8-10(11)9-4-2-1-3-5-9/h1-5-10-11-13-15H-6-8H2-(H-16-18)/t10?-11--13?/m0/s1

>  <threshold>


>  <reference>
R6|

>  <group>
C

>  <Class>
1

>  <ABC>
14.2

>  <ABCGG>
13.12

>  <nAcid>
0

>  <nBase>
1

>  <nAromAtom>
6

>  <nAromBond>
6

>  <nAtom>
34

>  <nHeavyAtom>
18

>  <nSpiro>
0

>  <nBridgehead>
0

>  <nHetero>
4

>  <nN>
2

>  <nO>
2

>  <nF>
0

>  <BalabanJ>
1.44

>  <BertzCT>
471.94

>  <nBonds>
36

>  <nBondsO>
20

>  <nBondsS>
28

>  <nBondsD>
2

>  <nBondsT>
0

>  <nBondsA>
6

>  <nBondsM>
8

>  <nBondsKS>
31

>  <nBondsKD>
5

>  <RNCG>
0.22

>  <RPCG>
0.15

>  <FCSP3>
0.43

>  <SZ>
21.67

>  <Sm>
20.34

>  <Sv>
21.28

>  <Sse>
34.09

>  <Sp>
22.67

>  <Si>
38.32

>  <MZ>
0.64

>  <Mm>
0.6

>  <Mv>
0.63

>  <Mse>
1

>  <Mp>
0.67

>  <Mi>
1.13

>  <NsCH3>
0

>  <NdCH2>
0

>  <NssCH2>
3

>  <NtCH>
0

>  <NdsCH>
0

>  <NaaCH>
5

>  <NsssCH>
3

>  <NddC>
0

>  <NtsC>
0

>  <NdssC>
2

>  <NaasC>
1

>  <NaaaC>
0

>  <NssssC>
0

>  <NsNH3>
0

>  <NsNH2>
0

>  <NssNH2>
0

>  <NdNH>
0

>  <NssNH>
2

>  <NaaNH>
0

>  <NtN>
0

>  <NsssNH>
0

>  <NdsN>
0

>  <NaaN>
0

>  <NsssN>
0

>  <NddsN>
0

>  <NaasN>
0

>  <NssssN>
0

>  <NsOH>
0

>  <NdO>
2

>  <NssO>
0

>  <NaaO>
0

>  <NsF>
0

>  <NsSiH3>
0

>  <NssSiH2>
0

>  <NsssSiH>
0

>  <NssssSi>
0

>  <NsPH2>
0

>  <NssPH>
0

>  <NsssP>
0

>  <NdsssP>
0

>  <NsssssP>
0

>  <NsSH>
0

>  <NdS>
0

>  <NssS>
0

>  <NaaS>
0

>  <NdssS>
0

>  <NddssS>
0

>  <NsCl>
0

>  <NsBr>
0

>  <NsI>
0

>  <fragCpx>
94.04

>  <fMF>
0.47

>  <nHBAcc>
3

>  <nHBDon>
2

>  <Kier1>
13.01

>  <Kier2>
5.55

>  <Lipinski>
1

>  <GhoseFilter>
1

>  <FilterItLogS>
-2.83

>  <VMcGowan>
185.74

>  <LabuteASA>
105.76

>  <PEOE_VSA1>
5.32

>  <PEOE_VSA2>
14.91

>  <PEOE_VSA3>
0

>  <PEOE_VSA4>
0

>  <PEOE_VSA5>
0

>  <PEOE_VSA6>
30.33

>  <PEOE_VSA7>
11.98

>  <PEOE_VSA8>
24.93

>  <PEOE_VSA9>
0

>  <PEOE_VSA10>
6.04

>  <PEOE_VSA11>
5.78

>  <PEOE_VSA12>
5.91

>  <PEOE_VSA13>
0

>  <SMR_VSA1>
9.59

>  <SMR_VSA2>
0

>  <SMR_VSA3>
10.63

>  <SMR_VSA4>
0

>  <SMR_VSA5>
30.84

>  <SMR_VSA6>
6.54

>  <SMR_VSA7>
35.9

>  <SMR_VSA8>
0

>  <SMR_VSA9>
0

>  <SlogP_VSA1>
10.63

>  <SlogP_VSA2>
30.32

>  <SlogP_VSA3>
9.59

>  <SlogP_VSA4>
0

>  <SlogP_VSA5>
24.32

>  <SlogP_VSA6>
30.33

>  <SlogP_VSA7>
0

>  <SlogP_VSA8>
0

>  <SlogP_VSA9>
0

>  <SlogP_VSA10>
0

>  <SlogP_VSA11>
0

>  <EState_VSA1>
6.04

>  <EState_VSA2>
17.73

>  <EState_VSA3>
18.88

>  <EState_VSA4>
6.42

>  <EState_VSA5>
5.56

>  <EState_VSA6>
0

>  <EState_VSA7>
18.2

>  <EState_VSA8>
22.77

>  <EState_VSA9>
0

>  <EState_VSA10>
9.59

>  <VSA_EState1>
0

>  <VSA_EState2>
23.33

>  <VSA_EState3>
5.88

>  <VSA_EState4>
1.26

>  <VSA_EState5>
0.25

>  <VSA_EState6>
9.73

>  <VSA_EState7>
1.43

>  <VSA_EState8>
0.61

>  <VSA_EState9>
0

>  <apol>
37.85

>  <bpol>
18.93

>  <nRing>
3

>  <nHRing>
1

>  <naRing>
1

>  <naHRing>
0

>  <nARing 2>
2

>  <nAHRing 2>
1

>  <nFRing>
0

>  <nFHRing>
0

>  <nFaRing>
0

>  <nFaHRing>
0

>  <nFARing 2>
0

>  <nFAHRing 2>
0

>  <nRot>
3

>  <SLogP>
0.59

>  <SMR>
67.15

>  <TopoPSA(NO)>
58.2

>  <TopoPSA>
58.2

>  <JGI1>
0.15

>  <JGI2>
0.09

>  <JGI3>
0.06

>  <JGI4>
0.03

>  <JGI5>
0.02

>  <Diameter>
10

>  <Radius>
5

>  <TMWC10>
110.83

>  <TSRW10>
71.41

>  <MW>
244.12

>  <AMW>
7.18

>  <WPath>
666

>  <WPol>
23

>  <Zagreb1>
96

>  <Zagreb2>
114

>  <mZagreb2>
3.94

>  <yes>


>  <nAR-cont>
1

>  <nHA-cont>
0.991161285

>  <MWHBN>
0.320013518

>  <MWHBN-cont>
0.777118344

>  <TPSA-cont>
0.59372786

>  <pka_cont>
0.97

>  <yes.1>


>  <BBB_SCORE>
4.829294521

>  <MMFF94 Energy>
60.607

$$$$
Compound 2373
Actelion Java MolfileCreator 2.0

  0  0  0  0  0  0              0 V3000
M  V30 BEGIN CTAB
M  V30 COUNTS 44 46 0 0 0
M  V30 BEGIN ATOM
M  V30 1 F -0.3209 -1.0435 1.2041 0
M  V30 2 C 0.2556 -0.2838 0.2568 0
M  V30 3 C -0.6008 0.509 -0.5486 0
M  V30 4 C 1.6652 -0.3345 0.1054 0
M  V30 5 N -1.9883 0.5553 -0.3767 0
M  V30 6 C 0.029 1.2844 -1.5355 0
M  V30 7 N 2.5419 -1.1262 0.8909 0
M  V30 8 C 2.2119 0.4733 -0.9112 0
M  V30 9 C -2.8498 0.3212 -1.5524 0
M  V30 10 C -2.598 0.2479 0.9262 0
M  V30 11 F -0.6903 2.1098 -2.313 0
M  V30 12 C 1.4039 1.2733 -1.7241 0
M  V30 13 C 3.9124 -1.0344 0.6769 0
M  V30 14 C 2.0169 -2.0083 1.9512 0
M  V30 15 C 3.6784 0.4983 -1.1491 0
M  V30 16 C -4.258 0.9466 -1.3478 0 CFG=2
M  V30 17 C -4.0077 0.8708 1.0381 0
M  V30 18 C 4.5431 -0.2992 -0.251 0
M  V30 19 C 1.7992 -1.2416 3.2482 0
M  V30 20 O 4.1265 1.1628 -2.0768 0
M  V30 21 N -4.9026 0.5205 -0.0823 0
M  V30 22 C -5.1769 0.5765 -2.5111 0
M  V30 23 C 6.015 -0.2858 -0.3538 0
M  V30 24 O 6.7029 0.4538 -1.0321 0
M  V30 25 O 6.6132 -1.2182 0.4174 0
M  V30 26 H -2.425 0.7303 -2.474 0
M  V30 27 H -2.941 -0.7628 -1.7022 0
M  V30 28 H -1.9898 0.6508 1.7451 0
M  V30 29 H -2.6749 -0.8391 1.0507 0
M  V30 30 H 1.8335 1.9023 -2.5001 0
M  V30 31 H 4.4857 -1.6442 1.3729 0
M  V30 32 H 2.7432 -2.8074 2.1529 0
M  V30 33 H 1.1183 -2.5456 1.6326 0
M  V30 34 H -4.1585 2.0401 -1.3312 0
M  V30 35 H -4.4729 0.5393 1.9731 0
M  V30 36 H -3.9249 1.9632 1.1001 0
M  V30 37 H 1.0789 -0.4271 3.1286 0
M  V30 38 H 2.7375 -0.8023 3.6036 0
M  V30 39 H 1.4248 -1.9145 4.026 0
M  V30 40 H -5.0073 -0.4938 -0.1017 0
M  V30 41 H -4.7542 0.9205 -3.4612 0
M  V30 42 H -6.1613 1.0443 -2.3977 0
M  V30 43 H -5.3227 -0.5072 -2.5801 0
M  V30 44 H 7.5657 -1.078 0.2266 0
M  V30 END ATOM
M  V30 BEGIN BOND
M  V30 1 1 1 2
M  V30 2 2 2 3
M  V30 3 1 2 4
M  V30 4 1 3 5
M  V30 5 1 3 6
M  V30 6 1 4 7
M  V30 7 2 4 8
M  V30 8 1 5 9
M  V30 9 1 5 10
M  V30 10 1 6 11
M  V30 11 2 6 12
M  V30 12 1 7 13
M  V30 13 1 7 14
M  V30 14 1 8 15
M  V30 15 1 9 16
M  V30 16 1 10 17
M  V30 17 2 13 18
M  V30 18 1 14 19
M  V30 19 2 15 20
M  V30 20 1 16 21
M  V30 21 1 16 22
M  V30 22 1 18 23
M  V30 23 2 23 24
M  V30 24 1 23 25
M  V30 25 1 8 12
M  V30 26 1 15 18
M  V30 27 1 17 21
M  V30 28 1 9 26
M  V30 29 1 9 27
M  V30 30 1 10 28
M  V30 31 1 10 29
M  V30 32 1 12 30
M  V30 33 1 13 31
M  V30 34 1 14 32
M  V30 35 1 14 33
M  V30 36 1 16 34
M  V30 37 1 17 35
M  V30 38 1 17 36
M  V30 39 1 19 37
M  V30 40 1 19 38
M  V30 41 1 19 39
M  V30 42 1 21 40
M  V30 43 1 22 41
M  V30 44 1 22 42
M  V30 45 1 22 43
M  V30 46 1 25 44
M  V30 END BOND
M  V30 BEGIN COLLECTION
M  V30 MDLV30/STEABS ATOMS=(1 16)
M  V30 END COLLECTION
M  V30 END CTAB
M  END
>  <Column 1>
2910

>  <level_0>
5014

>  <index>
5014

>  <Unnamed: 0>
5014

>  <NO.>
5026

>  <Name>
lomefloxacin

>  <IUPAC_name>
1-ethyl-6-8-difluoro-7-[(3r)-3-methylpiperazin-1-yl]-4-oxoquinoline-3-carboxylic acid

>  <SMILES>
CCn1cc(C(=O)O)c(=O)c2cc(F)c(N3CCN[C@H](C)C3)c(F)c21

>  <CID>
9843232

>  <logBB>


>  <BBB+/BBB->
BBB-

>  <Inchi>
InChI=1S/C17H19F2N3O3/c1-3-21-8-11(17(24)25)16(23)10-6-12(18)15(13(19)14(10)21)22-5-4-20-9(2)7-22/h6-8-9-20H-3-5-7H2-1-2H3-(H-24-25)/t9-/m1/s1

>  <threshold>


>  <reference>
R9|R24|

>  <group>
C

>  <Class>
1

>  <ABC>
19.38

>  <ABCGG>
16.24

>  <nAcid>
1

>  <nBase>
1

>  <nAromAtom>
10

>  <nAromBond>
11

>  <nAtom>
44

>  <nHeavyAtom>
25

>  <nSpiro>
0

>  <nBridgehead>
0

>  <nHetero>
8

>  <nN>
3

>  <nO>
3

>  <nF>
2

>  <BalabanJ>
1.83

>  <BertzCT>
910.37

>  <nBonds>
46

>  <nBondsO>
27

>  <nBondsS>
33

>  <nBondsD>
2

>  <nBondsT>
0

>  <nBondsA>
11

>  <nBondsM>
13

>  <nBondsKS>
40

>  <nBondsKD>
6

>  <RNCG>
0.19

>  <RPCG>
0.13

>  <FCSP3>
0.41

>  <SZ>
30.67

>  <Sm>
29.25

>  <Sv>
27.86

>  <Sse>
45.33

>  <Sp>
28.67

>  <Si>
50.54

>  <MZ>
0.7

>  <Mm>
0.66

>  <Mv>
0.63

>  <Mse>
1.03

>  <Mp>
0.65

>  <Mi>
1.15

>  <NsCH3>
2

>  <NdCH2>
0

>  <NssCH2>
4

>  <NtCH>
0

>  <NdsCH>
0

>  <NaaCH>
2

>  <NsssCH>
1

>  <NddC>
0

>  <NtsC>
0

>  <NdssC>
1

>  <NaasC>
4

>  <NaaaC>
2

>  <NssssC>
0

>  <NsNH3>
0

>  <NsNH2>
0

>  <NssNH2>
0

>  <NdNH>
0

>  <NssNH>
1

>  <NaaNH>
0

>  <NtN>
0

>  <NsssNH>
0

>  <NdsN>
0

>  <NaaN>
0

>  <NsssN>
1

>  <NddsN>
0

>  <NaasN>
1

>  <NssssN>
0

>  <NsOH>
1

>  <NdO>
2

>  <NssO>
0

>  <NaaO>
0

>  <NsF>
2

>  <NsSiH3>
0

>  <NssSiH2>
0

>  <NsssSiH>
0

>  <NssssSi>
0

>  <NsPH2>
0

>  <NssPH>
0

>  <NsssP>
0

>  <NdsssP>
0

>  <NsssssP>
0

>  <NsSH>
0

>  <NdS>
0

>  <NssS>
0

>  <NaaS>
0

>  <NdssS>
0

>  <NddssS>
0

>  <NsCl>
0

>  <NsBr>
0

>  <NsI>
0

>  <fragCpx>
129.08

>  <fMF>
0.36

>  <nHBAcc>
5

>  <nHBDon>
2

>  <Kier1>
19.75

>  <Kier2>
7.94

>  <Lipinski>
1

>  <GhoseFilter>
1

>  <FilterItLogS>
-3.82

>  <VMcGowan>
243.08

>  <LabuteASA>
142.21

>  <PEOE_VSA1>
19.89

>  <PEOE_VSA2>
4.79

>  <PEOE_VSA3>
13.58

>  <PEOE_VSA4>
0

>  <PEOE_VSA5>
0

>  <PEOE_VSA6>
0

>  <PEOE_VSA7>
19.91

>  <PEOE_VSA8>
38.42

>  <PEOE_VSA9>
10.9

>  <PEOE_VSA10>
17.07

>  <PEOE_VSA11>
5.82

>  <PEOE_VSA12>
5.43

>  <PEOE_VSA13>
0

>  <SMR_VSA1>
18.68

>  <SMR_VSA2>
0

>  <SMR_VSA3>
9.88

>  <SMR_VSA4>
0

>  <SMR_VSA5>
26.43

>  <SMR_VSA6>
24.53

>  <SMR_VSA7>
39.68

>  <SMR_VSA8>
0

>  <SMR_VSA9>
0

>  <SlogP_VSA1>
15.65

>  <SlogP_VSA2>
41.32

>  <SlogP_VSA3>
6.54

>  <SlogP_VSA4>
11.63

>  <SlogP_VSA5>
24.21

>  <SlogP_VSA6>
17.06

>  <SlogP_VSA7>
0

>  <SlogP_VSA8>
10.9

>  <SlogP_VSA9>
0

>  <SlogP_VSA10>
14.47

>  <SlogP_VSA11>
0

>  <EState_VSA1>
28.6

>  <EState_VSA2>
29.18

>  <EState_VSA3>
19.63

>  <EState_VSA4>
12.26

>  <EState_VSA5>
4.57

>  <EState_VSA6>
11.82

>  <EState_VSA7>
6.92

>  <EState_VSA8>
5.32

>  <EState_VSA9>
5.11

>  <EState_VSA10>
13.98

>  <VSA_EState1>
31.17

>  <VSA_EState2>
25.18

>  <VSA_EState3>
12.1

>  <VSA_EState4>
-1.63

>  <VSA_EState5>
-3.11

>  <VSA_EState6>
1.02

>  <VSA_EState7>
1.11

>  <VSA_EState8>
5.33

>  <VSA_EState9>
0

>  <apol>
47.88

>  <bpol>
27.01

>  <nRing>
3

>  <nHRing>
2

>  <naRing>
2

>  <naHRing>
1

>  <nARing 2>
1

>  <nAHRing 2>
1

>  <nFRing>
1

>  <nFHRing>
1

>  <nFaRing>
1

>  <nFaHRing>
1

>  <nFARing 2>
0

>  <nFAHRing 2>
0

>  <nRot>
3

>  <SLogP>
1.8

>  <SMR>
90.44

>  <TopoPSA(NO)>
74.57

>  <TopoPSA>
74.57

>  <JGI1>
0.2

>  <JGI2>
0.08

>  <JGI3>
0.06

>  <JGI4>
0.05

>  <JGI5>
0.04

>  <Diameter>
11

>  <Radius>
6

>  <TMWC10>
128.98

>  <TSRW10>
60.32

>  <MW>
351.14

>  <AMW>
7.98

>  <WPath>
1362

>  <WPol>
47

>  <Zagreb1>
134

>  <Zagreb2>
163

>  <mZagreb2>
5.5

>  <yes>


>  <nAR-cont>
0.816016

>  <nHA-cont>
0.921834225

>  <MWHBN>
0.373557868

>  <MWHBN-cont>
0.580014493

>  <TPSA-cont>
0.479455095

>  <pka_cont>
0.97

>  <yes.1>


>  <BBB_SCORE>
4.051782153

>  <MMFF94 Energy>
141.4

$$$$
Compound 2374
Actelion Java MolfileCreator 2.0

  0  0  0  0  0  0              0 V3000
M  V30 BEGIN CTAB
M  V30 COUNTS 46 49 0 0 0
M  V30 BEGIN ATOM
M  V30 1 F -0.9663 -1.6109 2.4978 0
M  V30 2 C -0.9991 -1.3011 1.1886 0
M  V30 3 C -0.1795 -0.2585 0.7111 0
M  V30 4 C -1.8091 -2.0591 0.3452 0
M  V30 5 N 0.6203 0.4546 1.6041 0
M  V30 6 C -0.2223 -0.0134 -0.6834 0
M  V30 7 C -1.8355 -1.8111 -1.0264 0
M  V30 8 C -2.5967 -3.1136 0.9738 0
M  V30 9 C 1.9397 0.9723 1.219 0
M  V30 10 C -0.0221 1.1267 2.7467 0
M  V30 11 O 0.5444 1.0334 -1.163 0
M  V30 12 C -1.0208 -0.7934 -1.5652 0
M  V30 13 C -2.7178 -2.5831 -1.9461 0
M  V30 14 O -3.5966 -2.9589 1.6458 0
M  V30 15 O -2.025 -4.3088 0.749 0
M  V30 16 C 2.8576 1.1161 2.4583 0
M  V30 17 C 0.9634 1.2716 3.9309 0
M  V30 18 C 0.0637 1.5489 -2.4045 0
M  V30 19 N -1.013 -0.5703 -2.9682 0
M  V30 20 O -3.5216 -3.4216 -1.5591 0
M  V30 21 C -2.6235 -2.3027 -3.3935 0
M  V30 22 N 2.2812 1.8608 3.6006 0
M  V30 23 C -0.0685 0.4466 -3.4527 0 CFG=2
M  V30 24 C -1.7961 -1.339 -3.7989 0
M  V30 25 C 2.1759 3.2894 3.3156 0
M  V30 26 C 1.2771 -0.2027 -3.7847 0
M  V30 27 H 2.4338 0.2889 0.5178 0
M  V30 28 H 1.8341 1.9485 0.7324 0
M  V30 29 H -0.9061 0.5905 3.1071 0
M  V30 30 H -0.3698 2.1157 2.4239 0
M  V30 31 H -2.664 -4.9481 1.1278 0
M  V30 32 H 3.1133 0.1095 2.8156 0
M  V30 33 H 3.8091 1.5714 2.1572 0
M  V30 34 H 1.1435 0.2733 4.3517 0
M  V30 35 H 0.4878 1.848 4.7341 0
M  V30 36 H 0.7761 2.3097 -2.7419 0
M  V30 37 H -0.8943 2.0579 -2.2339 0
M  V30 38 H -3.2354 -2.8891 -4.0648 0
M  V30 39 H -0.4636 0.9023 -4.3699 0
M  V30 40 H -1.7015 -1.1084 -4.8571 0
M  V30 41 H 3.167 3.7097 3.1116 0
M  V30 42 H 1.5288 3.5185 2.4631 0
M  V30 43 H 1.7864 3.823 4.1897 0
M  V30 44 H 1.9898 0.5478 -4.1419 0
M  V30 45 H 1.7194 -0.7045 -2.9176 0
M  V30 46 H 1.1597 -0.9554 -4.5719 0
M  V30 END ATOM
M  V30 BEGIN BOND
M  V30 1 1 1 2
M  V30 2 2 2 3
M  V30 3 1 2 4
M  V30 4 1 3 5
M  V30 5 1 3 6
M  V30 6 2 4 7
M  V30 7 1 4 8
M  V30 8 1 5 9
M  V30 9 1 5 10
M  V30 10 1 6 11
M  V30 11 2 6 12
M  V30 12 1 7 13
M  V30 13 2 8 14
M  V30 14 1 8 15
M  V30 15 1 9 16
M  V30 16 1 10 17
M  V30 17 1 11 18
M  V30 18 1 12 19
M  V30 19 2 13 20
M  V30 20 1 13 21
M  V30 21 1 16 22
M  V30 22 1 18 23
M  V30 23 1 19 24
M  V30 24 1 22 25
M  V30 25 1 23 26
M  V30 26 1 7 12
M  V30 27 1 17 22
M  V30 28 1 19 23
M  V30 29 2 21 24
M  V30 30 1 9 27
M  V30 31 1 9 28
M  V30 32 1 10 29
M  V30 33 1 10 30
M  V30 34 1 15 31
M  V30 35 1 16 32
M  V30 36 1 16 33
M  V30 37 1 17 34
M  V30 38 1 17 35
M  V30 39 1 18 36
M  V30 40 1 18 37
M  V30 41 1 21 38
M  V30 42 1 23 39
M  V30 43 1 24 40
M  V30 44 1 25 41
M  V30 45 1 25 42
M  V30 46 1 25 43
M  V30 47 1 26 44
M  V30 48 1 26 45
M  V30 49 1 26 46
M  V30 END BOND
M  V30 BEGIN COLLECTION
M  V30 MDLV30/STEABS ATOMS=(1 23)
M  V30 END COLLECTION
M  V30 END CTAB
M  END
>  <Column 1>
2912

>  <level_0>
5029

>  <index>
5029

>  <Unnamed: 0>
5029

>  <NO.>
5041

>  <Name>
ofloxacin

>  <IUPAC_name>


>  <SMILES>
C[C@@H]1COc2c(N3CCN(C)CC3)c(F)c(C(=O)O)c3c(=O)ccn1c23

>  <CID>


>  <logBB>


>  <BBB+/BBB->
BBB+

>  <Inchi>
InChI=1S/C18H20FN3O4/c1-10-9-26-17-15-12(11(23)3-4-22(10)15)13(18(24)25)14(19)16(17)21-7-5-20(2)6-8-21/h3-4-10H-5-9H2-1-2H3-(H-24-25)/t10-/m1/s1

>  <threshold>


>  <reference>
R9|

>  <group>
C

>  <Class>
-1

>  <ABC>
20.72

>  <ABCGG>
16.51

>  <nAcid>
1

>  <nBase>
1

>  <nAromAtom>
10

>  <nAromBond>
11

>  <nAtom>
46

>  <nHeavyAtom>
26

>  <nSpiro>
0

>  <nBridgehead>
0

>  <nHetero>
8

>  <nN>
3

>  <nO>
4

>  <nF>
1

>  <BalabanJ>
1.69

>  <BertzCT>
963.29

>  <nBonds>
49

>  <nBondsO>
29

>  <nBondsS>
36

>  <nBondsD>
2

>  <nBondsT>
0

>  <nBondsA>
11

>  <nBondsM>
13

>  <nBondsKS>
43

>  <nBondsKD>
6

>  <RNCG>
0.18

>  <RPCG>
0.12

>  <FCSP3>
0.44

>  <SZ>
31.67

>  <Sm>
30.09

>  <Sv>
29.2

>  <Sse>
47.15

>  <Sp>
30.22

>  <Si>
52.41

>  <MZ>
0.69

>  <Mm>
0.65

>  <Mv>
0.63

>  <Mse>
1.02

>  <Mp>
0.66

>  <Mi>
1.14

>  <NsCH3>
2

>  <NdCH2>
0

>  <NssCH2>
5

>  <NtCH>
0

>  <NdsCH>
0

>  <NaaCH>
2

>  <NsssCH>
1

>  <NddC>
0

>  <NtsC>
0

>  <NdssC>
1

>  <NaasC>
4

>  <NaaaC>
2

>  <NssssC>
0

>  <NsNH3>
0

>  <NsNH2>
0

>  <NssNH2>
0

>  <NdNH>
0

>  <NssNH>
0

>  <NaaNH>
0

>  <NtN>
0

>  <NsssNH>
0

>  <NdsN>
0

>  <NaaN>
0

>  <NsssN>
2

>  <NddsN>
0

>  <NaasN>
1

>  <NssssN>
0

>  <NsOH>
1

>  <NdO>
2

>  <NssO>
1

>  <NaaO>
0

>  <NsF>
1

>  <NsSiH3>
0

>  <NssSiH2>
0

>  <NsssSiH>
0

>  <NssssSi>
0

>  <NsPH2>
0

>  <NssPH>
0

>  <NsssP>
0

>  <NdsssP>
0

>  <NsssssP>
0

>  <NsSH>
0

>  <NdS>
0

>  <NssS>
0

>  <NaaS>
0

>  <NdssS>
0

>  <NddssS>
0

>  <NsCl>
0

>  <NsBr>
0

>  <NsI>
0

>  <fragCpx>
191.08

>  <fMF>
0.41

>  <nHBAcc>
6

>  <nHBDon>
1

>  <Kier1>
19.32

>  <Kier2>
7.44

>  <Lipinski>
1

>  <GhoseFilter>
1

>  <FilterItLogS>
-2.7

>  <VMcGowan>
250.42

>  <LabuteASA>
148.73

>  <PEOE_VSA1>
24.21

>  <PEOE_VSA2>
4.79

>  <PEOE_VSA3>
9.18

>  <PEOE_VSA4>
0

>  <PEOE_VSA5>
0

>  <PEOE_VSA6>
0

>  <PEOE_VSA7>
13.97

>  <PEOE_VSA8>
38.44

>  <PEOE_VSA9>
16.94

>  <PEOE_VSA10>
17.86

>  <PEOE_VSA11>
17

>  <PEOE_VSA12>
0

>  <PEOE_VSA13>
0

>  <SMR_VSA1>
19.03

>  <SMR_VSA2>
0

>  <SMR_VSA3>
9.47

>  <SMR_VSA4>
0

>  <SMR_VSA5>
12.97

>  <SMR_VSA6>
44.73

>  <SMR_VSA7>
33.87

>  <SMR_VSA8>
0

>  <SMR_VSA9>
5.75

>  <SlogP_VSA1>
15.07

>  <SlogP_VSA2>
60.38

>  <SlogP_VSA3>
0

>  <SlogP_VSA4>
5.82

>  <SlogP_VSA5>
23.32

>  <SlogP_VSA6>
17.06

>  <SlogP_VSA7>
0

>  <SlogP_VSA8>
10.9

>  <SlogP_VSA9>
0

>  <SlogP_VSA10>
10.08

>  <SlogP_VSA11>
5.75

>  <EState_VSA1>
22.78

>  <EState_VSA2>
22.86

>  <EState_VSA3>
25.21

>  <EState_VSA4>
13.09

>  <EState_VSA5>
6.07

>  <EState_VSA6>
10.76

>  <EState_VSA7>
18.87

>  <EState_VSA8>
4.9

>  <EState_VSA9>
4.74

>  <EState_VSA10>
14.7

>  <VSA_EState1>
23

>  <VSA_EState2>
28.19

>  <VSA_EState3>
9.51

>  <VSA_EState4>
-0.58

>  <VSA_EState5>
-2.07

>  <VSA_EState6>
1.2

>  <VSA_EState7>
1.62

>  <VSA_EState8>
4.82

>  <VSA_EState9>
1.98

>  <apol>
50.46

>  <bpol>
29.78

>  <nRing>
4

>  <nHRing>
3

>  <naRing>
2

>  <naHRing>
1

>  <nARing 2>
2

>  <nAHRing 2>
2

>  <nFRing>
1

>  <nFHRing>
1

>  <nFaRing>
0

>  <nFaHRing>
0

>  <nFARing 2>
1

>  <nFAHRing 2>
1

>  <nRot>
2

>  <SLogP>
1.54

>  <SMR>
95.04

>  <TopoPSA(NO)>
75.01

>  <TopoPSA>
75.01

>  <JGI1>
0.17

>  <JGI2>
0.08

>  <JGI3>
0.05

>  <JGI4>
0.06

>  <JGI5>
0.03

>  <Diameter>
10

>  <Radius>
5

>  <TMWC10>
133.49

>  <TSRW10>
61.91

>  <MW>
361.14

>  <AMW>
7.85

>  <WPath>
1409

>  <WPol>
52

>  <Zagreb1>
146

>  <Zagreb2>
181

>  <mZagreb2>
5.56

>  <yes>


>  <nAR-cont>
1

>  <nHA-cont>
0.892715677

>  <MWHBN>
0.368349634

>  <MWHBN-cont>
0.600269047

>  <TPSA-cont>
0.476383622

>  <pka_cont>
0.97

>  <yes.1>


>  <BBB_SCORE>
4.230886491

>  <MMFF94 Energy>
148

$$$$
Compound 2375
Actelion Java MolfileCreator 2.0

  0  0  0  0  0  0              0 V3000
M  V30 BEGIN CTAB
M  V30 COUNTS 57 60 0 0 0
M  V30 BEGIN ATOM
M  V30 1 O 0.4 1.2006 1.0404 0
M  V30 2 C -0.0726 0.4434 0.1988 0
M  V30 3 O 0.7195 -0.2637 -0.6731 0
M  V30 4 C -1.6037 0.1699 -0.0816 0
M  V30 5 C 2.1128 0.092 -0.654 0 CFG=2
M  V30 6 O -1.7752 -1.2231 -0.3841 0
M  V30 7 C -1.9703 1.0182 -1.3094 0
M  V30 8 C -2.4842 0.4575 1.1284 0 CHG=1
M  V30 9 C 2.776 -0.5494 -1.8894 0
M  V30 10 C 2.8083 -0.4187 0.6279 0
M  V30 11 C -1.9029 2.4253 -1.2424 0
M  V30 12 C -2.3595 0.4325 -2.5264 0
M  V30 13 C -2.0867 -0.0428 2.4978 0
M  V30 14 C -3.9744 0.6484 0.9448 0
M  V30 15 C 4.2816 -0.2646 -1.8401 0
M  V30 16 C 2.5791 -2.0725 -1.8443 0
M  V30 17 N 3.8165 -1.5364 0.2578 0 CHG=1
M  V30 18 C -2.2169 3.2128 -2.3516 0
M  V30 19 C -2.6728 1.2233 -3.6345 0
M  V30 20 C -2.6999 0.8103 3.607 0
M  V30 21 C -4.5778 1.4851 2.0733 0
M  V30 22 C 4.9213 -0.9416 -0.6259 0
M  V30 23 C 3.0771 -2.6396 -0.5154 0
M  V30 24 C 4.4233 -2.1142 1.5251 0
M  V30 25 C -2.601 2.6113 -3.5467 0
M  V30 26 C -4.2127 0.9392 3.4508 0
M  V30 27 H 2.201 1.1844 -0.7229 0
M  V30 28 H -2.1078 -1.6691 0.4102 0
M  V30 29 H 2.3333 -0.1515 -2.8095 0
M  V30 30 H 3.3906 0.378 1.1042 0
M  V30 31 H 2.108 -0.8465 1.3533 0
M  V30 32 H -1.6163 2.9225 -0.3163 0
M  V30 33 H -2.4288 -0.6491 -2.6243 0
M  V30 34 H -2.427 -1.08 2.607 0
M  V30 35 H -1.0023 -0.057 2.63 0
M  V30 36 H -4.2133 1.138 -0.0029 0
M  V30 37 H -4.4533 -0.3381 0.9199 0
M  V30 38 H 4.4608 0.8167 -1.7993 0
M  V30 39 H 4.7694 -0.6212 -2.7552 0
M  V30 40 H 1.5255 -2.3395 -1.9879 0
M  V30 41 H 3.1233 -2.5436 -2.6723 0
M  V30 42 H -2.1699 4.297 -2.281 0
M  V30 43 H -2.9798 0.7543 -4.5663 0
M  V30 44 H -2.2457 1.8094 3.5955 0
M  V30 45 H -2.4685 0.3665 4.582 0
M  V30 46 H -4.2243 2.5208 1.9886 0
M  V30 47 H -5.6684 1.5124 1.9666 0
M  V30 48 H 5.5823 -1.7636 -0.9231 0
M  V30 49 H 5.4885 -0.2246 -0.0217 0
M  V30 50 H 3.7764 -3.4684 -0.6719 0
M  V30 51 H 2.2483 -2.982 0.1145 0
M  V30 52 H 5.1473 -2.8834 1.2418 0
M  V30 53 H 3.6197 -2.5481 2.1273 0
M  V30 54 H 4.9176 -1.3058 2.0717 0
M  V30 55 H -2.8524 3.2244 -4.4088 0
M  V30 56 H -4.6097 1.6016 4.2282 0
M  V30 57 H -4.6822 -0.0417 3.5936 0
M  V30 END ATOM
M  V30 BEGIN BOND
M  V30 1 2 1 2
M  V30 2 1 2 3
M  V30 3 1 2 4
M  V30 4 1 3 5
M  V30 5 1 4 6
M  V30 6 1 4 7
M  V30 7 1 4 8
M  V30 8 1 5 9
M  V30 9 1 5 10
M  V30 10 2 7 11
M  V30 11 1 7 12
M  V30 12 1 8 13
M  V30 13 1 8 14
M  V30 14 1 9 15
M  V30 15 1 9 16
M  V30 16 1 10 17
M  V30 17 1 11 18
M  V30 18 2 12 19
M  V30 19 1 13 20
M  V30 20 1 14 21
M  V30 21 1 15 22
M  V30 22 1 16 23
M  V30 23 1 17 24
M  V30 24 2 18 25
M  V30 25 1 20 26
M  V30 26 1 17 22
M  V30 27 1 17 23
M  V30 28 1 19 25
M  V30 29 1 21 26
M  V30 30 1 5 27
M  V30 31 1 6 28
M  V30 32 1 9 29
M  V30 33 1 10 30
M  V30 34 1 10 31
M  V30 35 1 11 32
M  V30 36 1 12 33
M  V30 37 1 13 34
M  V30 38 1 13 35
M  V30 39 1 14 36
M  V30 40 1 14 37
M  V30 41 1 15 38
M  V30 42 1 15 39
M  V30 43 1 16 40
M  V30 44 1 16 41
M  V30 45 1 18 42
M  V30 46 1 19 43
M  V30 47 1 20 44
M  V30 48 1 20 45
M  V30 49 1 21 46
M  V30 50 1 21 47
M  V30 51 1 22 48
M  V30 52 1 22 49
M  V30 53 1 23 50
M  V30 54 1 23 51
M  V30 55 1 24 52
M  V30 56 1 24 53
M  V30 57 1 24 54
M  V30 58 1 25 55
M  V30 59 1 26 56
M  V30 60 1 26 57
M  V30 END BOND
M  V30 BEGIN COLLECTION
M  V30 MDLV30/STEABS ATOMS=(1 5)
M  V30 END COLLECTION
M  V30 END CTAB
M  END
>  <Column 1>
2913

>  <level_0>
5032

>  <index>
5033

>  <Unnamed: 0>
5033

>  <NO.>
5045

>  <Name>
clidiniumbromide

>  <IUPAC_name>


>  <SMILES>
C[N+]12CCC(CC1)[C@@H](OC(=O)C(O)(c1ccccc1)[C+]1CCCCC1)C2

>  <CID>


>  <logBB>


>  <BBB+/BBB->
BBB-

>  <Inchi>
InChI=1S/C22H31NO3/c1-23-14-12-17(13-15-23)20(16-23)26-21(24)22(25-18-8-4-2-5-9-18)19-10-6-3-7-11-19/h2-4-5-8-9-17-20-25H-3-6-7-10-16H2-1H3/q+2/t17?-20--22?-23?/m0/s1

>  <threshold>


>  <reference>
R9|

>  <group>
C

>  <Class>
1

>  <ABC>
20.71

>  <ABCGG>
16.66

>  <nAcid>
0

>  <nBase>
2

>  <nAromAtom>
6

>  <nAromBond>
6

>  <nAtom>
57

>  <nHeavyAtom>
26

>  <nSpiro>
0

>  <nBridgehead>
2

>  <nHetero>
4

>  <nN>
1

>  <nO>
3

>  <nF>
0

>  <BalabanJ>
1.5

>  <BertzCT>
632.05

>  <nBonds>
60

>  <nBondsO>
29

>  <nBondsS>
53

>  <nBondsD>
1

>  <nBondsT>
0

>  <nBondsA>
6

>  <nBondsM>
7

>  <nBondsKS>
56

>  <nBondsKD>
4

>  <RNCG>
0.26

>  <RPCG>
0.11

>  <FCSP3>
0.64

>  <SZ>
32.33

>  <Sm>
29.76

>  <Sv>
33.3

>  <Sse>
56.42

>  <Sp>
36.48

>  <Si>
64.36

>  <MZ>
0.57

>  <Mm>
0.52

>  <Mv>
0.58

>  <Mse>
0.99

>  <Mp>
0.64

>  <Mi>
1.13

>  <NsCH3>
1

>  <NdCH2>
0

>  <NssCH2>
10

>  <NtCH>
0

>  <NdsCH>
0

>  <NaaCH>
5

>  <NsssCH>
2

>  <NddC>
0

>  <NtsC>
0

>  <NdssC>
1

>  <NaasC>
1

>  <NaaaC>
0

>  <NssssC>
1

>  <NsNH3>
0

>  <NsNH2>
0

>  <NssNH2>
0

>  <NdNH>
0

>  <NssNH>
0

>  <NaaNH>
0

>  <NtN>
0

>  <NsssNH>
0

>  <NdsN>
0

>  <NaaN>
0

>  <NsssN>
0

>  <NddsN>
0

>  <NaasN>
0

>  <NssssN>
1

>  <NsOH>
1

>  <NdO>
1

>  <NssO>
1

>  <NaaO>
0

>  <NsF>
0

>  <NsSiH3>
0

>  <NssSiH2>
0

>  <NsssSiH>
0

>  <NssssSi>
0

>  <NsPH2>
0

>  <NssPH>
0

>  <NsssP>
0

>  <NdsssP>
0

>  <NsssssP>
0

>  <NsSH>
0

>  <NdS>
0

>  <NssS>
0

>  <NaaS>
0

>  <NdssS>
0

>  <NddssS>
0

>  <NsCl>
0

>  <NsBr>
0

>  <NsI>
0

>  <fragCpx>
191.04

>  <fMF>
0.4

>  <nHBAcc>
3

>  <nHBDon>
1

>  <Kier1>
19.32

>  <Kier2>
7.79

>  <Lipinski>
1

>  <GhoseFilter>
1

>  <FilterItLogS>
-4.33

>  <VMcGowan>
287.79

>  <LabuteASA>
156.29

>  <PEOE_VSA1>
14.33

>  <PEOE_VSA2>
0

>  <PEOE_VSA3>
4.79

>  <PEOE_VSA4>
0

>  <PEOE_VSA5>
0

>  <PEOE_VSA6>
30.33

>  <PEOE_VSA7>
19.26

>  <PEOE_VSA8>
24.32

>  <PEOE_VSA9>
32.98

>  <PEOE_VSA10>
12.46

>  <PEOE_VSA11>
6.1

>  <PEOE_VSA12>
0

>  <PEOE_VSA13>
0

>  <SMR_VSA1>
19.12

>  <SMR_VSA2>
0

>  <SMR_VSA3>
0

>  <SMR_VSA4>
5.92

>  <SMR_VSA5>
56.65

>  <SMR_VSA6>
26.68

>  <SMR_VSA7>
41.81

>  <SMR_VSA8>
0

>  <SMR_VSA9>
0

>  <SlogP_VSA1>
0

>  <SlogP_VSA2>
48.34

>  <SlogP_VSA3>
15.13

>  <SlogP_VSA4>
11.84

>  <SlogP_VSA5>
50.51

>  <SlogP_VSA6>
30.33

>  <SlogP_VSA7>
0

>  <SlogP_VSA8>
0

>  <SlogP_VSA9>
0

>  <SlogP_VSA10>
0

>  <SlogP_VSA11>
0

>  <EState_VSA1>
11.57

>  <EState_VSA2>
6.1

>  <EState_VSA3>
11.48

>  <EState_VSA4>
55.47

>  <EState_VSA5>
19.51

>  <EState_VSA6>
0

>  <EState_VSA7>
30.33

>  <EState_VSA8>
7.05

>  <EState_VSA9>
4.74

>  <EState_VSA10>
9.9

>  <VSA_EState1>
7.03

>  <VSA_EState2>
13.31

>  <VSA_EState3>
11.62

>  <VSA_EState4>
-0.93

>  <VSA_EState5>
0.93

>  <VSA_EState6>
9.4

>  <VSA_EState7>
7.05

>  <VSA_EState8>
3.24

>  <VSA_EState9>
2.26

>  <apol>
60.92

>  <bpol>
35.98

>  <nRing>
5

>  <nHRing>
3

>  <naRing>
1

>  <naHRing>
0

>  <nARing 2>
4

>  <nAHRing 2>
3

>  <nFRing>
1

>  <nFHRing>
1

>  <nFaRing>
0

>  <nFaHRing>
0

>  <nFARing 2>
1

>  <nFAHRing 2>
1

>  <nRot>
4

>  <SLogP>
3.19

>  <SMR>
100.06

>  <TopoPSA(NO)>
46.53

>  <TopoPSA>
46.53

>  <JGI1>
0.22

>  <JGI2>
0.1

>  <JGI3>
0.06

>  <JGI4>
0.04

>  <JGI5>
0.02

>  <Diameter>
10

>  <Radius>
5

>  <TMWC10>
132.33

>  <TSRW10>
61.79

>  <MW>
357.23

>  <AMW>
6.27

>  <WPath>
1548

>  <WPol>
45

>  <Zagreb1>
144

>  <Zagreb2>
174

>  <mZagreb2>
5.57

>  <yes>


>  <nAR-cont>
0.199399

>  <nHA-cont>
0.892715677

>  <MWHBN>
0.211634287

>  <MWHBN-cont>
0.998876877

>  <TPSA-cont>
0.675191707

>  <pka_cont>
0.97

>  <yes.1>


>  <BBB_SCORE>
4.425813405

>  <MMFF94 Energy>
120.57

$$$$
Compound 2376
Actelion Java MolfileCreator 2.0

  0  0  0  0  0  0              0 V3000
M  V30 BEGIN CTAB
M  V30 COUNTS 57 60 0 0 0
M  V30 BEGIN ATOM
M  V30 1 F 0.2392 0.9573 -8.32 0
M  V30 2 C 0.051 1.1354 -7.006 0
M  V30 3 C 1.087 0.8514 -6.1225 0
M  V30 4 C -1.1778 1.5947 -6.5463 0
M  V30 5 C 0.8954 1.0355 -4.7512 0
M  V30 6 C -1.3735 1.78 -5.1765 0
M  V30 7 C -0.3334 1.5144 -4.2737 0
M  V30 8 C -0.5751 1.7148 -2.8088 0
M  V30 9 N -1.7751 1.5084 -2.3682 0
M  V30 10 C 0.5734 2.1319 -1.9482 0
M  V30 11 C -2.0037 1.6841 -0.9295 0
M  V30 12 C 0.8771 1.4132 -0.7771 0
M  V30 13 C 1.3572 3.2221 -2.3564 0
M  V30 14 C -1.3704 0.5465 -0.0947 0 CFG=1
M  V30 15 N 0.0894 0.3692 -0.3262 0
M  V30 16 C 2.0318 1.7898 -0.0711 0
M  V30 17 C 2.4839 3.5862 -1.6226 0
M  V30 18 C -1.643 0.8522 1.4019 0
M  V30 19 C 0.7031 -0.9144 -0.033 0
M  V30 20 C 2.8428 2.8592 -0.4856 0
M  V30 21 N -1.2643 -0.2168 2.3144 0
M  V30 22 C 4.0392 3.2597 0.3263 0
M  V30 23 C -2.0545 -1.3335 2.4757 0
M  V30 24 O -3.1217 -1.4826 1.8909 0
M  V30 25 C -1.5683 -2.3714 3.4281 0
M  V30 26 C -2.5119 -3.2275 4.0085 0
M  V30 27 C -0.2123 -2.537 3.7345 0
M  V30 28 C -2.1093 -4.2197 4.9058 0
M  V30 29 C 0.1879 -3.5318 4.6326 0
M  V30 30 C -0.758 -4.369 5.2366 0
M  V30 31 C -0.3223 -5.4581 6.1722 0
M  V30 32 H 2.0321 0.4803 -6.5055 0
M  V30 33 H -1.9764 1.7993 -7.2518 0
M  V30 34 H 1.7018 0.7841 -4.0673 0
M  V30 35 H -2.3373 2.1291 -4.8118 0
M  V30 36 H -1.6671 2.6755 -0.5976 0
M  V30 37 H -3.0889 1.6776 -0.7693 0
M  V30 38 H 1.0939 3.7901 -3.2452 0
M  V30 39 H -1.872 -0.389 -0.3733 0
M  V30 40 H 2.2926 1.2574 0.8405 0
M  V30 41 H 3.0809 4.4358 -1.9465 0
M  V30 42 H -1.0845 1.7415 1.7167 0
M  V30 43 H -2.7093 1.0574 1.5546 0
M  V30 44 H 1.4121 -1.1967 -0.8195 0
M  V30 45 H -0.0451 -1.7119 0.0233 0
M  V30 46 H 1.2361 -0.8867 0.9225 0
M  V30 47 H -0.4253 -0.0877 2.8586 0
M  V30 48 H 4.4983 2.386 0.8005 0
M  V30 49 H 3.7427 3.9706 1.1037 0
M  V30 50 H 4.803 3.7247 -0.3055 0
M  V30 51 H -3.5671 -3.1241 3.7619 0
M  V30 52 H 0.552 -1.9255 3.2673 0
M  V30 53 H -2.8597 -4.876 5.3418 0
M  V30 54 H 1.2462 -3.6554 4.8533 0
M  V30 55 H -1.0977 -5.6664 6.9169 0
M  V30 56 H 0.581 -5.1657 6.7176 0
M  V30 57 H -0.1159 -6.3738 5.61 0
M  V30 END ATOM
M  V30 BEGIN BOND
M  V30 1 1 1 2
M  V30 2 2 2 3
M  V30 3 1 2 4
M  V30 4 1 3 5
M  V30 5 2 4 6
M  V30 6 2 5 7
M  V30 7 1 7 8
M  V30 8 2 8 9
M  V30 9 1 8 10
M  V30 10 1 9 11
M  V30 11 2 10 12
M  V30 12 1 10 13
M  V30 13 1 11 14
M  V30 14 1 12 15
M  V30 15 1 12 16
M  V30 16 2 13 17
M  V30 17 1 14 18
M  V30 18 1 15 19
M  V30 19 2 16 20
M  V30 20 1 18 21
M  V30 21 1 20 22
M  V30 22 1 21 23
M  V30 23 2 23 24
M  V30 24 1 23 25
M  V30 25 2 25 26
M  V30 26 1 25 27
M  V30 27 1 26 28
M  V30 28 2 27 29
M  V30 29 2 28 30
M  V30 30 1 30 31
M  V30 31 1 6 7
M  V30 32 1 14 15
M  V30 33 1 17 20
M  V30 34 1 29 30
M  V30 35 1 3 32
M  V30 36 1 4 33
M  V30 37 1 5 34
M  V30 38 1 6 35
M  V30 39 1 11 36
M  V30 40 1 11 37
M  V30 41 1 13 38
M  V30 42 1 14 39
M  V30 43 1 16 40
M  V30 44 1 17 41
M  V30 45 1 18 42
M  V30 46 1 18 43
M  V30 47 1 19 44
M  V30 48 1 19 45
M  V30 49 1 19 46
M  V30 50 1 21 47
M  V30 51 1 22 48
M  V30 52 1 22 49
M  V30 53 1 22 50
M  V30 54 1 26 51
M  V30 55 1 27 52
M  V30 56 1 28 53
M  V30 57 1 29 54
M  V30 58 1 31 55
M  V30 59 1 31 56
M  V30 60 1 31 57
M  V30 END BOND
M  V30 BEGIN COLLECTION
M  V30 MDLV30/STEABS ATOMS=(1 14)
M  V30 END COLLECTION
M  V30 END CTAB
M  END
>  <Column 1>
2914

>  <level_0>
5033

>  <index>
5034

>  <Unnamed: 0>
5034

>  <NO.>
5046

>  <Name>
chembl68870

>  <IUPAC_name>
n-[[(2s)-5-(4-fluorophenyl)-1-8-dimethyl-2-3-dihydro-1-4-benzodiazepin-2-yl]methyl]-4-methylbenzamide

>  <SMILES>
Cc1ccc(C(=O)NC[C@H]2CN=C(c3ccc(F)cc3)c3ccc(C)cc3N2C)cc1

>  <CID>
44310001

>  <logBB>


>  <BBB+/BBB->
BBB+

>  <Inchi>
InChI=1S/C26H26FN3O/c1-17-4-7-20(8-5-17)26(31)29-16-22-15-28-25(19-9-11-21(27)12-10-19)23-13-6-18(2)14-24(23)30(22)3/h4-14-22H-15-16H2-1-3H3-(H-29-31)/t22-/m1/s1

>  <threshold>


>  <reference>
R9|R24|

>  <group>
C

>  <Class>
1

>  <ABC>
24.35

>  <ABCGG>
18.18

>  <nAcid>
0

>  <nBase>
0

>  <nAromAtom>
18

>  <nAromBond>
18

>  <nAtom>
57

>  <nHeavyAtom>
31

>  <nSpiro>
0

>  <nBridgehead>
0

>  <nHetero>
5

>  <nN>
3

>  <nO>
1

>  <nF>
1

>  <BalabanJ>
1.39

>  <BertzCT>
1120.39

>  <nBonds>
60

>  <nBondsO>
34

>  <nBondsS>
40

>  <nBondsD>
2

>  <nBondsT>
0

>  <nBondsA>
18

>  <nBondsM>
20

>  <nBondsKS>
49

>  <nBondsKD>
11

>  <RNCG>
0.17

>  <RPCG>
0.12

>  <FCSP3>
0.23

>  <SZ>
36.67

>  <Sm>
34.59

>  <Sv>
36.68

>  <Sse>
56.82

>  <Sp>
39.17

>  <Si>
64.03

>  <MZ>
0.64

>  <Mm>
0.61

>  <Mv>
0.64

>  <Mse>
1

>  <Mp>
0.69

>  <Mi>
1.12

>  <NsCH3>
3

>  <NdCH2>
0

>  <NssCH2>
2

>  <NtCH>
0

>  <NdsCH>
0

>  <NaaCH>
11

>  <NsssCH>
1

>  <NddC>
0

>  <NtsC>
0

>  <NdssC>
2

>  <NaasC>
7

>  <NaaaC>
0

>  <NssssC>
0

>  <NsNH3>
0

>  <NsNH2>
0

>  <NssNH2>
0

>  <NdNH>
0

>  <NssNH>
1

>  <NaaNH>
0

>  <NtN>
0

>  <NsssNH>
0

>  <NdsN>
1

>  <NaaN>
0

>  <NsssN>
1

>  <NddsN>
0

>  <NaasN>
0

>  <NssssN>
0

>  <NsOH>
0

>  <NdO>
1

>  <NssO>
0

>  <NaaO>
0

>  <NsF>
1

>  <NsSiH3>
0

>  <NssSiH2>
0

>  <NsssSiH>
0

>  <NssssSi>
0

>  <NsPH2>
0

>  <NssPH>
0

>  <NsssP>
0

>  <NdsssP>
0

>  <NsssssP>
0

>  <NsSH>
0

>  <NdS>
0

>  <NssS>
0

>  <NaaS>
0

>  <NdssS>
0

>  <NddssS>
0

>  <NsCl>
0

>  <NsBr>
0

>  <NsI>
0

>  <fragCpx>
226.05

>  <fMF>
0.46

>  <nHBAcc>
3

>  <nHBDon>
1

>  <Kier1>
24.13

>  <Kier2>
10.95

>  <Lipinski>
1

>  <GhoseFilter>
1

>  <FilterItLogS>
-7.49

>  <VMcGowan>
324.03

>  <LabuteASA>
181.99

>  <PEOE_VSA1>
10.22

>  <PEOE_VSA2>
9.79

>  <PEOE_VSA3>
4.39

>  <PEOE_VSA4>
0

>  <PEOE_VSA5>
0

>  <PEOE_VSA6>
29.83

>  <PEOE_VSA7>
61.88

>  <PEOE_VSA8>
35.97

>  <PEOE_VSA9>
18.3

>  <PEOE_VSA10>
5.82

>  <PEOE_VSA11>
0

>  <PEOE_VSA12>
0

>  <PEOE_VSA13>
5.91

>  <SMR_VSA1>
9.18

>  <SMR_VSA2>
0

>  <SMR_VSA3>
5.32

>  <SMR_VSA4>
4.99

>  <SMR_VSA5>
19.89

>  <SMR_VSA6>
25.04

>  <SMR_VSA7>
100.36

>  <SMR_VSA8>
0

>  <SMR_VSA9>
0

>  <SlogP_VSA1>
10.22

>  <SlogP_VSA2>
37.8

>  <SlogP_VSA3>
0

>  <SlogP_VSA4>
19.66

>  <SlogP_VSA5>
32.61

>  <SlogP_VSA6>
71.72

>  <SlogP_VSA7>
0

>  <SlogP_VSA8>
0

>  <SlogP_VSA9>
0

>  <SlogP_VSA10>
10.08

>  <SlogP_VSA11>
0

>  <EState_VSA1>
0

>  <EState_VSA2>
17.77

>  <EState_VSA3>
18.65

>  <EState_VSA4>
33.65

>  <EState_VSA5>
12.13

>  <EState_VSA6>
12.13

>  <EState_VSA7>
38.24

>  <EState_VSA8>
35.34

>  <EState_VSA9>
4.99

>  <EState_VSA10>
9.18

>  <VSA_EState1>
13.46

>  <VSA_EState2>
19.68

>  <VSA_EState3>
3.05

>  <VSA_EState4>
6.69

>  <VSA_EState5>
-0.36

>  <VSA_EState6>
20.24

>  <VSA_EState7>
0

>  <VSA_EState8>
5.04

>  <VSA_EState9>
2.03

>  <apol>
65.42

>  <bpol>
31.48

>  <nRing>
4

>  <nHRing>
1

>  <naRing>
3

>  <naHRing>
0

>  <nARing 2>
1

>  <nAHRing 2>
1

>  <nFRing>
1

>  <nFHRing>
1

>  <nFaRing>
0

>  <nFaHRing>
0

>  <nFARing 2>
1

>  <nFAHRing 2>
1

>  <nRot>
4

>  <SLogP>
4.53

>  <SMR>
123.79

>  <TopoPSA(NO)>
44.7

>  <TopoPSA>
44.7

>  <JGI1>
0.19

>  <JGI2>
0.09

>  <JGI3>
0.04

>  <JGI4>
0.04

>  <JGI5>
0.03

>  <Diameter>
16

>  <Radius>
8

>  <TMWC10>
142.41

>  <TSRW10>
74.98

>  <MW>
415.21

>  <AMW>
7.28

>  <WPath>
2772

>  <WPol>
54

>  <Zagreb1>
164

>  <Zagreb2>
193

>  <mZagreb2>
6.75

>  <yes>


>  <nAR-cont>
0.816016

>  <nHA-cont>
0.702745138

>  <MWHBN>
0.196302617

>  <MWHBN-cont>
0.998657747

>  <TPSA-cont>
0.687966243

>  <pka_cont>
0.97

>  <yes.1>


>  <BBB_SCORE>
4.877680244

>  <MMFF94 Energy>
156.44

$$$$
Compound 2377
Actelion Java MolfileCreator 2.0

  0  0  0  0  0  0              0 V3000
M  V30 BEGIN CTAB
M  V30 COUNTS 32 34 0 0 0
M  V30 BEGIN ATOM
M  V30 1 O 0.0802 0.6419 2.3287 0
M  V30 2 C 0.087 1.0005 1.152 0
M  V30 3 C -0.2678 2.417 0.8701 0
M  V30 4 C 0.4298 0.1067 0.0593 0
M  V30 5 C -1.1273 2.7614 -0.1805 0
M  V30 6 C 0.2325 3.4146 1.7163 0
M  V30 7 N 0.4791 -1.2473 0.1686 0
M  V30 8 C 0.8073 0.3667 -1.2602 0
M  V30 9 C -1.4535 4.1009 -0.4027 0
M  V30 10 C -0.096 4.7521 1.4901 0
M  V30 11 C 0.8099 -1.8468 -1.0106 0
M  V30 12 C 0.2377 -2.1955 1.2442 0
M  V30 13 C 1.0382 -0.8687 -1.9375 0
M  V30 14 C -0.9347 5.094 0.4289 0
M  V30 15 C 0.823 -3.3251 -0.8702 0 CFG=1
M  V30 16 C 0.8459 -3.4912 0.6747 0
M  V30 17 C -0.4292 -3.9246 -1.4765 0
M  V30 18 O -1.4509 -4.2447 -0.8888 0
M  V30 19 O -0.3357 -4.0924 -2.8129 0
M  V30 20 H -1.5607 1.9959 -0.8194 0
M  V30 21 H 0.8774 3.1499 2.5518 0
M  V30 22 H 0.9159 1.3495 -1.7025 0
M  V30 23 H -2.1199 4.37 -1.2188 0
M  V30 24 H 0.2966 5.5259 2.1452 0
M  V30 25 H 0.7446 -1.866 2.1536 0
M  V30 26 H -0.8442 -2.2671 1.3872 0
M  V30 27 H 1.336 -1.0056 -2.9691 0
M  V30 28 H -1.1931 6.1363 0.2563 0
M  V30 29 H 1.7057 -3.7978 -1.3116 0
M  V30 30 H 0.3262 -4.3836 1.0374 0
M  V30 31 H 1.8906 -3.564 1.0068 0
M  V30 32 H -1.214 -4.4433 -3.0689 0
M  V30 END ATOM
M  V30 BEGIN BOND
M  V30 1 2 1 2
M  V30 2 1 2 3
M  V30 3 1 2 4
M  V30 4 2 3 5
M  V30 5 1 3 6
M  V30 6 1 4 7
M  V30 7 2 4 8
M  V30 8 1 5 9
M  V30 9 2 6 10
M  V30 10 1 7 11
M  V30 11 1 7 12
M  V30 12 1 8 13
M  V30 13 2 9 14
M  V30 14 1 11 15
M  V30 15 1 12 16
M  V30 16 1 15 17
M  V30 17 2 17 18
M  V30 18 1 17 19
M  V30 19 1 10 14
M  V30 20 2 11 13
M  V30 21 1 15 16
M  V30 22 1 5 20
M  V30 23 1 6 21
M  V30 24 1 8 22
M  V30 25 1 9 23
M  V30 26 1 10 24
M  V30 27 1 12 25
M  V30 28 1 12 26
M  V30 29 1 13 27
M  V30 30 1 14 28
M  V30 31 1 15 29
M  V30 32 1 16 30
M  V30 33 1 16 31
M  V30 34 1 19 32
M  V30 END BOND
M  V30 BEGIN COLLECTION
M  V30 MDLV30/STEABS ATOMS=(1 15)
M  V30 END COLLECTION
M  V30 END CTAB
M  END
>  <Column 1>
2915

>  <level_0>
5043

>  <index>
5044

>  <Unnamed: 0>
5044

>  <NO.>
5056

>  <Name>
(r)-ketorolac

>  <IUPAC_name>
(1r)-5-benzoyl-2-3-dihydro-1h-pyrrolizine-1-carboxylic acid

>  <SMILES>
O=C(c1ccccc1)c1ccc2n1CC[C@H]2C(=O)O

>  <CID>
181818

>  <logBB>


>  <BBB+/BBB->
BBB-

>  <Inchi>
InChI=1S/C15H13NO3/c17-14(10-4-2-1-3-5-10)13-7-6-12-11(15(18)19)8-9-16(12)13/h1-7-11H-8-9H2-(H-18-19)/t11-/m1/s1

>  <threshold>


>  <reference>
R9|R24|R27|

>  <group>
C

>  <Class>
1

>  <ABC>
14.93

>  <ABCGG>
13.2

>  <nAcid>
1

>  <nBase>
0

>  <nAromAtom>
11

>  <nAromBond>
11

>  <nAtom>
32

>  <nHeavyAtom>
19

>  <nSpiro>
0

>  <nBridgehead>
0

>  <nHetero>
4

>  <nN>
1

>  <nO>
3

>  <nF>
0

>  <BalabanJ>
1.63

>  <BertzCT>
642.67

>  <nBonds>
34

>  <nBondsO>
21

>  <nBondsS>
21

>  <nBondsD>
2

>  <nBondsT>
0

>  <nBondsA>
11

>  <nBondsM>
13

>  <nBondsKS>
27

>  <nBondsKD>
7

>  <RNCG>
0.28

>  <RPCG>
0.18

>  <FCSP3>
0.2

>  <SZ>
22.33

>  <Sm>
21.25

>  <Sv>
21.42

>  <Sse>
32.43

>  <Sp>
22.29

>  <Si>
35.62

>  <MZ>
0.7

>  <Mm>
0.66

>  <Mv>
0.67

>  <Mse>
1.01

>  <Mp>
0.7

>  <Mi>
1.11

>  <NsCH3>
0

>  <NdCH2>
0

>  <NssCH2>
2

>  <NtCH>
0

>  <NdsCH>
0

>  <NaaCH>
7

>  <NsssCH>
1

>  <NddC>
0

>  <NtsC>
0

>  <NdssC>
2

>  <NaasC>
3

>  <NaaaC>
0

>  <NssssC>
0

>  <NsNH3>
0

>  <NsNH2>
0

>  <NssNH2>
0

>  <NdNH>
0

>  <NssNH>
0

>  <NaaNH>
0

>  <NtN>
0

>  <NsssNH>
0

>  <NdsN>
0

>  <NaaN>
0

>  <NsssN>
0

>  <NddsN>
0

>  <NaasN>
1

>  <NssssN>
0

>  <NsOH>
1

>  <NdO>
2

>  <NssO>
0

>  <NaaO>
0

>  <NsF>
0

>  <NsSiH3>
0

>  <NssSiH2>
0

>  <NsssSiH>
0

>  <NssssSi>
0

>  <NsPH2>
0

>  <NssPH>
0

>  <NsssP>
0

>  <NdsssP>
0

>  <NsssssP>
0

>  <NsSH>
0

>  <NdS>
0

>  <NssS>
0

>  <NaaS>
0

>  <NdssS>
0

>  <NddssS>
0

>  <NsCl>
0

>  <NsBr>
0

>  <NsI>
0

>  <fragCpx>
99.04

>  <fMF>
0.47

>  <nHBAcc>
3

>  <nHBDon>
1

>  <Kier1>
13.96

>  <Kier2>
5.78

>  <Lipinski>
1

>  <GhoseFilter>
1

>  <FilterItLogS>
-2.17

>  <VMcGowan>
187.12

>  <LabuteASA>
109.84

>  <PEOE_VSA1>
9.67

>  <PEOE_VSA2>
9.59

>  <PEOE_VSA3>
0

>  <PEOE_VSA4>
0

>  <PEOE_VSA5>
0

>  <PEOE_VSA6>
30.33

>  <PEOE_VSA7>
18.55

>  <PEOE_VSA8>
17.8

>  <PEOE_VSA9>
11.61

>  <PEOE_VSA10>
0

>  <PEOE_VSA11>
0

>  <PEOE_VSA12>
5.78

>  <PEOE_VSA13>
0

>  <SMR_VSA1>
14.7

>  <SMR_VSA2>
0

>  <SMR_VSA3>
4.57

>  <SMR_VSA4>
0

>  <SMR_VSA5>
18.88

>  <SMR_VSA6>
0

>  <SMR_VSA7>
59.42

>  <SMR_VSA8>
0

>  <SMR_VSA9>
0

>  <SlogP_VSA1>
0

>  <SlogP_VSA2>
21.43

>  <SlogP_VSA3>
11.34

>  <SlogP_VSA4>
0

>  <SlogP_VSA5>
34.08

>  <SlogP_VSA6>
42.46

>  <SlogP_VSA7>
0

>  <SlogP_VSA8>
0

>  <SlogP_VSA9>
0

>  <SlogP_VSA10>
0

>  <SlogP_VSA11>
0

>  <EState_VSA1>
11.89

>  <EState_VSA2>
5.78

>  <EState_VSA3>
24.22

>  <EState_VSA4>
5.69

>  <EState_VSA5>
0

>  <EState_VSA6>
24.27

>  <EState_VSA7>
22.77

>  <EState_VSA8>
0

>  <EState_VSA9>
5.11

>  <EState_VSA10>
9.59

>  <VSA_EState1>
1.83

>  <VSA_EState2>
23.49

>  <VSA_EState3>
9.13

>  <VSA_EState4>
1.93

>  <VSA_EState5>
-1.37

>  <VSA_EState6>
12.52

>  <VSA_EState7>
0.56

>  <VSA_EState8>
0.59

>  <VSA_EState9>
0

>  <apol>
37.22

>  <bpol>
16.49

>  <nRing>
3

>  <nHRing>
2

>  <naRing>
2

>  <naHRing>
1

>  <nARing 2>
1

>  <nAHRing 2>
1

>  <nFRing>
1

>  <nFHRing>
1

>  <nFaRing>
0

>  <nFaHRing>
0

>  <nFARing 2>
1

>  <nFAHRing 2>
1

>  <nRot>
3

>  <SLogP>
2.29

>  <SMR>
69.3

>  <TopoPSA(NO)>
59.3

>  <TopoPSA>
59.3

>  <JGI1>
0.14

>  <JGI2>
0.09

>  <JGI3>
0.05

>  <JGI4>
0.04

>  <JGI5>
0.03

>  <Diameter>
10

>  <Radius>
5

>  <TMWC10>
113.95

>  <TSRW10>
68.62

>  <MW>
255.09

>  <AMW>
7.97

>  <WPath>
693

>  <WPol>
29

>  <Zagreb1>
102

>  <Zagreb2>
123

>  <mZagreb2>
4.17

>  <yes>


>  <nAR-cont>
0.816016

>  <nHA-cont>
0.998649058

>  <MWHBN>
0.250445524

>  <MWHBN-cont>
0.959024752

>  <TPSA-cont>
0.586049177

>  <pka_cont>
0.97

>  <yes.1>


>  <BBB_SCORE>
4.910300539

>  <MMFF94 Energy>
58.815

$$$$
Compound 2378
Actelion Java MolfileCreator 2.0

  0  0  0  0  0  0              0 V3000
M  V30 BEGIN CTAB
M  V30 COUNTS 52 56 0 0 0
M  V30 BEGIN ATOM
M  V30 1 O 0.2426 -2.8332 -5.3478 0
M  V30 2 N 1.1569 -2.1297 -6.1205 0
M  V30 3 C 0.2294 -2.3332 -4.0758 0
M  V30 4 C 1.6759 -1.2087 -5.3056 0
M  V30 5 C 1.129 -1.292 -4.0178 0
M  V30 6 C -0.5447 -2.7891 -2.9877 0
M  V30 7 C 1.3303 -0.4897 -2.7895 0
M  V30 8 C -0.2756 -2.2941 -1.7601 0
M  V30 9 C 0.8317 -1.2332 -1.4812 0
M  V30 10 C -1.0201 -2.8258 -0.5601 0
M  V30 11 C 0.2777 -0.1408 -0.4842 0
M  V30 12 C 2.0427 -1.9998 -0.893 0
M  V30 13 C -1.5663 -1.6984 0.3035 0
M  V30 14 C -0.4514 -0.7385 0.7452 0
M  V30 15 C 1.3544 0.8604 -0.02 0
M  V30 16 C -0.9963 0.3365 1.7124 0
M  V30 17 C 0.7741 1.9584 0.8721 0
M  V30 18 C 0.0364 1.4156 2.1247 0
M  V30 19 C -2.2006 1.147 1.1964 0
M  V30 20 C -0.8932 2.4812 2.7817 0
M  V30 21 C 1.0594 0.8475 3.1285 0
M  V30 22 C -2.1204 2.5276 1.8613 0
M  V30 23 O -1.3369 2.0206 4.0612 0
M  V30 24 C -0.2746 3.8049 2.9548 0
M  V30 25 C 0.2253 4.8866 3.1069 0
M  V30 26 H 2.4156 -0.5236 -5.6943 0
M  V30 27 H -1.2938 -3.5538 -3.1615 0
M  V30 28 H 2.3847 -0.2025 -2.6974 0
M  V30 29 H 0.7656 0.4422 -2.9269 0
M  V30 30 H -0.3458 -3.4539 0.0341 0
M  V30 31 H -1.8531 -3.471 -0.8648 0
M  V30 32 H -0.4705 0.4358 -1.0473 0
M  V30 33 H 2.9086 -1.3451 -0.7495 0
M  V30 34 H 2.3643 -2.8047 -1.565 0
M  V30 35 H 1.8164 -2.4572 0.075 0
M  V30 36 H -2.3392 -1.1594 -0.2581 0
M  V30 37 H -2.0563 -2.1293 1.185 0
M  V30 38 H 0.2786 -1.3274 1.3165 0
M  V30 39 H 1.8246 1.3416 -0.8846 0
M  V30 40 H 2.1549 0.3446 0.5192 0
M  V30 41 H -1.3348 -0.1901 2.6176 0
M  V30 42 H 0.1012 2.5688 0.2575 0
M  V30 43 H 1.5903 2.625 1.1779 0
M  V30 44 H -3.1409 0.6459 1.4524 0
M  V30 45 H -2.1891 1.2693 0.1088 0
M  V30 46 H 0.5707 0.4094 4.0054 0
M  V30 47 H 1.7356 1.6327 3.4836 0
M  V30 48 H 1.6742 0.0575 2.6875 0
M  V30 49 H -2.0213 3.2941 1.0827 0
M  V30 50 H -3.0444 2.7402 2.4116 0
M  V30 51 H -1.8183 2.757 4.4755 0
M  V30 52 H 0.6735 5.8437 3.2444 0
M  V30 END ATOM
M  V30 BEGIN BOND
M  V30 1 1 1 2
M  V30 2 1 1 3
M  V30 3 2 2 4
M  V30 4 2 3 5
M  V30 5 1 3 6
M  V30 6 1 5 7
M  V30 7 2 6 8
M  V30 8 1 7 9
M  V30 9 1 8 10
M  V30 10 1 9 11
M  V30 11 1 9 12
M  V30 12 1 10 13
M  V30 13 1 11 14
M  V30 14 1 11 15
M  V30 15 1 14 16
M  V30 16 1 15 17
M  V30 17 1 16 18
M  V30 18 1 16 19
M  V30 19 1 18 20
M  V30 20 1 18 21
M  V30 21 1 19 22
M  V30 22 1 20 23
M  V30 23 1 20 24
M  V30 24 3 24 25
M  V30 25 1 4 5
M  V30 26 1 8 9
M  V30 27 1 13 14
M  V30 28 1 17 18
M  V30 29 1 20 22
M  V30 30 1 4 26
M  V30 31 1 6 27
M  V30 32 1 7 28
M  V30 33 1 7 29
M  V30 34 1 10 30
M  V30 35 1 10 31
M  V30 36 1 11 32
M  V30 37 1 12 33
M  V30 38 1 12 34
M  V30 39 1 12 35
M  V30 40 1 13 36
M  V30 41 1 13 37
M  V30 42 1 14 38
M  V30 43 1 15 39
M  V30 44 1 15 40
M  V30 45 1 16 41
M  V30 46 1 17 42
M  V30 47 1 17 43
M  V30 48 1 19 44
M  V30 49 1 19 45
M  V30 50 1 21 46
M  V30 51 1 21 47
M  V30 52 1 21 48
M  V30 53 1 22 49
M  V30 54 1 22 50
M  V30 55 1 23 51
M  V30 56 1 25 52
M  V30 END BOND
M  V30 END CTAB
M  END
>  <Column 1>
2916

>  <level_0>
5055

>  <index>
5056

>  <Unnamed: 0>
5056

>  <NO.>
5068

>  <Name>
mls003115428

>  <IUPAC_name>
17-ethynyl-2-18-dimethyl-7-oxa-6-azapentacyclo[11.7.0.02-10.04-8.014-18]icosa-4(8)-5-9-trien-17-ol

>  <SMILES>
C#CC1(O)CCC2C3CCC4=Cc5oncc5CC4(C)C3CCC21C

>  <CID>
2949

>  <logBB>


>  <BBB+/BBB->
BBB-

>  <Inchi>
InChI=1S/C22H27NO2/c1-4-22(24)10-8-18-16-6-5-15-11-19-14(13-23-25-19)12-20(15-2)17(16)7-9-21(18-22)3/h1-11-13-16-18-24H-5-10-12H2-2-3H3

>  <threshold>


>  <reference>
R14|R23|

>  <group>
C

>  <Class>
-1

>  <ABC>
20.58

>  <ABCGG>
16.52

>  <nAcid>
0

>  <nBase>
0

>  <nAromAtom>
5

>  <nAromBond>
5

>  <nAtom>
52

>  <nHeavyAtom>
25

>  <nSpiro>
0

>  <nBridgehead>
0

>  <nHetero>
3

>  <nN>
1

>  <nO>
2

>  <nF>
0

>  <BalabanJ>
1.45

>  <BertzCT>
801.19

>  <nBonds>
56

>  <nBondsO>
29

>  <nBondsS>
49

>  <nBondsD>
1

>  <nBondsT>
1

>  <nBondsA>
5

>  <nBondsM>
7

>  <nBondsKS>
52

>  <nBondsKD>
3

>  <RNCG>
0.25

>  <RPCG>
0.14

>  <FCSP3>
0.68

>  <SZ>
30.33

>  <Sm>
28.1

>  <Sv>
31.5

>  <Sse>
51.31

>  <Sp>
34.4

>  <Si>
58.32

>  <MZ>
0.58

>  <Mm>
0.54

>  <Mv>
0.61

>  <Mse>
0.99

>  <Mp>
0.66

>  <Mi>
1.12

>  <NsCH3>
2

>  <NdCH2>
0

>  <NssCH2>
7

>  <NtCH>
1

>  <NdsCH>
1

>  <NaaCH>
1

>  <NsssCH>
3

>  <NddC>
0

>  <NtsC>
1

>  <NdssC>
1

>  <NaasC>
2

>  <NaaaC>
0

>  <NssssC>
3

>  <NsNH3>
0

>  <NsNH2>
0

>  <NssNH2>
0

>  <NdNH>
0

>  <NssNH>
0

>  <NaaNH>
0

>  <NtN>
0

>  <NsssNH>
0

>  <NdsN>
0

>  <NaaN>
1

>  <NsssN>
0

>  <NddsN>
0

>  <NaasN>
0

>  <NssssN>
0

>  <NsOH>
1

>  <NdO>
0

>  <NssO>
0

>  <NaaO>
1

>  <NsF>
0

>  <NsSiH3>
0

>  <NssSiH2>
0

>  <NsssSiH>
0

>  <NssssSi>
0

>  <NsPH2>
0

>  <NssPH>
0

>  <NsssP>
0

>  <NdsssP>
0

>  <NsssssP>
0

>  <NsSH>
0

>  <NdS>
0

>  <NssS>
0

>  <NaaS>
0

>  <NdssS>
0

>  <NddssS>
0

>  <NsCl>
0

>  <NsBr>
0

>  <NsI>
0

>  <fragCpx>
241.03

>  <fMF>
0.38

>  <nHBAcc>
3

>  <nHBDon>
1

>  <Kier1>
17.12

>  <Kier2>
5.51

>  <Lipinski>
1

>  <GhoseFilter>
1

>  <FilterItLogS>
-4.52

>  <VMcGowan>
266.76

>  <LabuteASA>
149.41

>  <PEOE_VSA1>
9.63

>  <PEOE_VSA2>
0

>  <PEOE_VSA3>
0

>  <PEOE_VSA4>
0

>  <PEOE_VSA5>
6.42

>  <PEOE_VSA6>
30.5

>  <PEOE_VSA7>
74.19

>  <PEOE_VSA8>
10.98

>  <PEOE_VSA9>
6.2

>  <PEOE_VSA10>
5.6

>  <PEOE_VSA11>
5.76

>  <PEOE_VSA12>
0

>  <PEOE_VSA13>
0

>  <SMR_VSA1>
9.63

>  <SMR_VSA2>
0

>  <SMR_VSA3>
5.16

>  <SMR_VSA4>
28.58

>  <SMR_VSA5>
64.39

>  <SMR_VSA6>
0

>  <SMR_VSA7>
23.09

>  <SMR_VSA8>
0

>  <SMR_VSA9>
12.34

>  <SlogP_VSA1>
0

>  <SlogP_VSA2>
15.86

>  <SlogP_VSA3>
6.42

>  <SlogP_VSA4>
40.93

>  <SlogP_VSA5>
63.7

>  <SlogP_VSA6>
16.29

>  <SlogP_VSA7>
0

>  <SlogP_VSA8>
6.08

>  <SlogP_VSA9>
0

>  <SlogP_VSA10>
0

>  <SlogP_VSA11>
0

>  <EState_VSA1>
5.6

>  <EState_VSA2>
10.83

>  <EState_VSA3>
17.75

>  <EState_VSA4>
44.29

>  <EState_VSA5>
11.98

>  <EState_VSA6>
5.57

>  <EState_VSA7>
6.2

>  <EState_VSA8>
31

>  <EState_VSA9>
10.95

>  <EState_VSA10>
5.11

>  <VSA_EState1>
5.43

>  <VSA_EState2>
0

>  <VSA_EState3>
15.09

>  <VSA_EState4>
1.99

>  <VSA_EState5>
5.64

>  <VSA_EState6>
0

>  <VSA_EState7>
17.39

>  <VSA_EState8>
4.71

>  <VSA_EState9>
0

>  <apol>
57.45

>  <bpol>
28.82

>  <nRing>
5

>  <nHRing>
1

>  <naRing>
1

>  <naHRing>
1

>  <nARing 2>
4

>  <nAHRing 2>
0

>  <nFRing>
1

>  <nFHRing>
1

>  <nFaRing>
0

>  <nFaHRing>
0

>  <nFARing 2>
1

>  <nFAHRing 2>
1

>  <nRot>
0

>  <SLogP>
4.22

>  <SMR>
96.35

>  <TopoPSA(NO)>
46.26

>  <TopoPSA>
46.26

>  <JGI1>
0.26

>  <JGI2>
0.13

>  <JGI3>
0.06

>  <JGI4>
0.06

>  <JGI5>
0.03

>  <Diameter>
11

>  <Radius>
6

>  <TMWC10>
134.05

>  <TSRW10>
77.72

>  <MW>
337.2

>  <AMW>
6.48

>  <WPath>
1299

>  <WPol>
55

>  <Zagreb1>
154

>  <Zagreb2>
199

>  <mZagreb2>
5.15

>  <yes>


>  <nAR-cont>
0.199399

>  <nHA-cont>
0.921834225

>  <MWHBN>
0.217829256

>  <MWHBN-cont>
0.996240184

>  <TPSA-cont>
0.677076474

>  <pka_cont>
0.97

>  <yes.1>


>  <BBB_SCORE>
4.45474645

>  <MMFF94 Energy>
76.289

$$$$
Compound 2379
Actelion Java MolfileCreator 2.0

  0  0  0  0  0  0              0 V3000
M  V30 BEGIN CTAB
M  V30 COUNTS 29 31 0 0 0
M  V30 BEGIN ATOM
M  V30 1 O 1.2665 -0.5539 -1.9002 0
M  V30 2 C 0.1464 -1.0881 -1.3533 0
M  V30 3 C 1.5352 -1.3683 -3.0288 0
M  V30 4 N -0.291 -2.2197 -1.8 0
M  V30 5 N -0.4319 -0.3746 -0.3667 0
M  V30 6 C 0.7116 -2.611 -2.7946 0
M  V30 7 C 0.0234 0.8725 0.1909 0
M  V30 8 C -1.1687 1.8058 0.2003 0
M  V30 9 C 0.6927 0.6756 1.5335 0
M  V30 10 C -2.3014 1.6665 1.1922 0
M  V30 11 C -1.4081 2.876 1.2418 0
M  V30 12 C 0.2592 -0.362 2.5456 0
M  V30 13 C 1.5723 -0.5199 1.8301 0
M  V30 14 H 1.2256 -0.833 -3.9326 0
M  V30 15 H 2.6047 -1.5873 -3.0952 0
M  V30 16 H -1.2559 -0.7865 0.0457 0
M  V30 17 H 1.3259 -3.4231 -2.3903 0
M  V30 18 H 0.2451 -2.9647 -3.7189 0
M  V30 19 H 0.7677 1.3393 -0.4653 0
M  V30 20 H -1.4479 2.057 -0.8205 0
M  V30 21 H 1.0703 1.6212 1.9109 0
M  V30 22 H -3.3127 1.7958 0.8223 0
M  V30 23 H -2.2192 0.9455 1.996 0
M  V30 24 H -0.7446 2.9724 2.0917 0
M  V30 25 H -1.8195 3.822 0.9057 0
M  V30 26 H -0.5331 -1.0564 2.294 0
M  V30 27 H 0.2816 -0.084 3.5933 0
M  V30 28 H 2.4822 -0.3508 2.3949 0
M  V30 29 H 1.6574 -1.3132 1.0969 0
M  V30 END ATOM
M  V30 BEGIN BOND
M  V30 1 1 1 2
M  V30 2 1 1 3
M  V30 3 2 2 4
M  V30 4 1 2 5
M  V30 5 1 3 6
M  V30 6 1 5 7
M  V30 7 1 7 8
M  V30 8 1 7 9
M  V30 9 1 8 10
M  V30 10 1 8 11
M  V30 11 1 9 12
M  V30 12 1 9 13
M  V30 13 1 4 6
M  V30 14 1 10 11
M  V30 15 1 12 13
M  V30 16 1 3 14
M  V30 17 1 3 15
M  V30 18 1 5 16
M  V30 19 1 6 17
M  V30 20 1 6 18
M  V30 21 1 7 19
M  V30 22 1 8 20
M  V30 23 1 9 21
M  V30 24 1 10 22
M  V30 25 1 10 23
M  V30 26 1 11 24
M  V30 27 1 11 25
M  V30 28 1 12 26
M  V30 29 1 12 27
M  V30 30 1 13 28
M  V30 31 1 13 29
M  V30 END BOND
M  V30 END CTAB
M  END
>  <Column 1>
2920

>  <level_0>
5060

>  <index>
5061

>  <Unnamed: 0>
5061

>  <NO.>
5073

>  <Name>
rilmenidine

>  <IUPAC_name>
n-(dicyclopropylmethyl)-4-5-dihydro-1-3-oxazol-2-amine

>  <SMILES>
C1COC(NC(C2CC2)C2CC2)=N1

>  <CID>
68712

>  <logBB>


>  <BBB+/BBB->
BBB-

>  <Inchi>
InChI=1S/C10H16N2O/c1-2-7(1)9(8-3-4-8)12-10-11-5-6-13-10/h7-9H-1-6H2-(H-11-12)

>  <threshold>


>  <reference>
R14|

>  <group>
C

>  <Class>
-1

>  <ABC>
10.53

>  <ABCGG>
9.6

>  <nAcid>
0

>  <nBase>
2

>  <nAromAtom>
0

>  <nAromBond>
0

>  <nAtom>
29

>  <nHeavyAtom>
13

>  <nSpiro>
0

>  <nBridgehead>
0

>  <nHetero>
3

>  <nN>
2

>  <nO>
1

>  <nF>
0

>  <BalabanJ>
1.54

>  <BertzCT>
219.08

>  <nBonds>
31

>  <nBondsO>
15

>  <nBondsS>
30

>  <nBondsD>
1

>  <nBondsT>
0

>  <nBondsA>
0

>  <nBondsM>
1

>  <nBondsKS>
30

>  <nBondsKD>
1

>  <RNCG>
0.37

>  <RPCG>
0.22

>  <FCSP3>
0.9

>  <SZ>
16.33

>  <Sm>
15.01

>  <Sv>
16.57

>  <Sse>
28.76

>  <Sp>
18.19

>  <Si>
33.11

>  <MZ>
0.56

>  <Mm>
0.52

>  <Mv>
0.57

>  <Mse>
0.99

>  <Mp>
0.63

>  <Mi>
1.14

>  <NsCH3>
0

>  <NdCH2>
0

>  <NssCH2>
6

>  <NtCH>
0

>  <NdsCH>
0

>  <NaaCH>
0

>  <NsssCH>
3

>  <NddC>
0

>  <NtsC>
0

>  <NdssC>
1

>  <NaasC>
0

>  <NaaaC>
0

>  <NssssC>
0

>  <NsNH3>
0

>  <NsNH2>
0

>  <NssNH2>
0

>  <NdNH>
0

>  <NssNH>
1

>  <NaaNH>
0

>  <NtN>
0

>  <NsssNH>
0

>  <NdsN>
1

>  <NaaN>
0

>  <NsssN>
0

>  <NddsN>
0

>  <NaasN>
0

>  <NssssN>
0

>  <NsOH>
0

>  <NdO>
0

>  <NssO>
1

>  <NaaO>
0

>  <NsF>
0

>  <NsSiH3>
0

>  <NssSiH2>
0

>  <NsssSiH>
0

>  <NssssSi>
0

>  <NsPH2>
0

>  <NssPH>
0

>  <NsssP>
0

>  <NdsssP>
0

>  <NsssssP>
0

>  <NsSH>
0

>  <NdS>
0

>  <NssS>
0

>  <NaaS>
0

>  <NdssS>
0

>  <NddssS>
0

>  <NsCl>
0

>  <NsBr>
0

>  <NsI>
0

>  <fragCpx>
69.03

>  <fMF>
0.45

>  <nHBAcc>
3

>  <nHBDon>
1

>  <Kier1>
8.32

>  <Kier2>
3.29

>  <Lipinski>
1

>  <GhoseFilter>
1

>  <FilterItLogS>
-1.78

>  <VMcGowan>
140.71

>  <LabuteASA>
78.56

>  <PEOE_VSA1>
10.05

>  <PEOE_VSA2>
0

>  <PEOE_VSA3>
4.99

>  <PEOE_VSA4>
0

>  <PEOE_VSA5>
0

>  <PEOE_VSA6>
0

>  <PEOE_VSA7>
37.52

>  <PEOE_VSA8>
6.04

>  <PEOE_VSA9>
6.54

>  <PEOE_VSA10>
6.61

>  <PEOE_VSA11>
0

>  <PEOE_VSA12>
0

>  <PEOE_VSA13>
6.02

>  <SMR_VSA1>
4.74

>  <SMR_VSA2>
0

>  <SMR_VSA3>
5.32

>  <SMR_VSA4>
16.83

>  <SMR_VSA5>
31.73

>  <SMR_VSA6>
13.15

>  <SMR_VSA7>
0

>  <SMR_VSA8>
0

>  <SMR_VSA9>
0

>  <SlogP_VSA1>
5.32

>  <SlogP_VSA2>
25.22

>  <SlogP_VSA3>
4.74

>  <SlogP_VSA4>
11.84

>  <SlogP_VSA5>
25.68

>  <SlogP_VSA6>
4.99

>  <SlogP_VSA7>
0

>  <SlogP_VSA8>
0

>  <SlogP_VSA9>
0

>  <SlogP_VSA10>
0

>  <SlogP_VSA11>
0

>  <EState_VSA1>
0

>  <EState_VSA2>
0

>  <EState_VSA3>
6.04

>  <EState_VSA4>
31.01

>  <EState_VSA5>
25.68

>  <EState_VSA6>
0

>  <EState_VSA7>
0

>  <EState_VSA8>
10.31

>  <EState_VSA9>
4.74

>  <EState_VSA10>
0

>  <VSA_EState1>
5.38

>  <VSA_EState2>
4.28

>  <VSA_EState3>
3.47

>  <VSA_EState4>
0

>  <VSA_EState5>
1.83

>  <VSA_EState6>
1.49

>  <VSA_EState7>
5.62

>  <VSA_EState8>
1.61

>  <VSA_EState9>
0

>  <apol>
30.37

>  <bpol>
19.5

>  <nRing>
3

>  <nHRing>
1

>  <naRing>
0

>  <naHRing>
0

>  <nARing 2>
3

>  <nAHRing 2>
1

>  <nFRing>
0

>  <nFHRing>
0

>  <nFaRing>
0

>  <nFaHRing>
0

>  <nFARing 2>
0

>  <nFAHRing 2>
0

>  <nRot>
3

>  <SLogP>
1.15

>  <SMR>
50.63

>  <TopoPSA(NO)>
33.62

>  <TopoPSA>
33.62

>  <JGI1>
0.13

>  <JGI2>
0.04

>  <JGI3>
0.03

>  <JGI4>
0.02

>  <JGI5>
0.01

>  <Diameter>
6

>  <Radius>
3

>  <TMWC10>
98.27

>  <TSRW10>
66.26

>  <MW>
180.13

>  <AMW>
6.21

>  <WPath>
251

>  <WPol>
14

>  <Zagreb1>
72

>  <Zagreb2>
86

>  <mZagreb2>
2.81

>  <yes>


>  <nAR-cont>
0.691115

>  <nHA-cont>
0.841215992

>  <MWHBN>
0.298034793

>  <MWHBN-cont>
0.846570273

>  <TPSA-cont>
0.765311523

>  <pka_cont>
0.97

>  <yes.1>


>  <BBB_SCORE>
4.817809448

>  <MMFF94 Energy>
-31.619

$$$$
Compound 2380
Actelion Java MolfileCreator 2.0

  0  0  0  0  0  0              0 V3000
M  V30 BEGIN CTAB
M  V30 COUNTS 29 30 0 0 0
M  V30 BEGIN ATOM
M  V30 1 S -3.5274 -0.8809 -0.5605 0
M  V30 2 C -3.5693 -1.0188 1.1483 0
M  V30 3 C -2.0394 -0.0352 -0.4535 0
M  V30 4 N -2.5599 -0.4747 1.7798 0
M  V30 5 N -4.5747 -1.6382 1.7742 0
M  V30 6 C -1.6709 0.081 0.8733 0
M  V30 7 C -1.3393 0.4315 -1.6901 0
M  V30 8 C -0.4606 0.7779 1.3879 0
M  V30 9 C 0.0211 1.1152 -1.4532 0
M  V30 10 C 0.8617 0.3269 0.7415 0
M  V30 11 N 0.961 0.2428 -0.7358 0
M  V30 12 C 2.3429 0.4373 -1.1951 0
M  V30 13 C 3.2574 -0.6517 -0.7109 0
M  V30 14 C 4.3911 -0.4478 -0.0267 0
M  V30 15 H -4.5653 -1.7052 2.7829 0
M  V30 16 H -5.3437 -2.0586 1.2732 0
M  V30 17 H -1.989 1.1368 -2.2241 0
M  V30 18 H -1.1873 -0.4274 -2.3574 0
M  V30 19 H -0.5937 1.8584 1.2511 0
M  V30 20 H -0.384 0.6209 2.4714 0
M  V30 21 H -0.0932 2.0862 -0.9557 0
M  V30 22 H 0.4093 1.3497 -2.4537 0
M  V30 23 H 1.629 1.0118 1.1281 0
M  V30 24 H 1.1048 -0.6675 1.1381 0
M  V30 25 H 2.7131 1.4308 -0.9106 0
M  V30 26 H 2.3744 0.3901 -2.2914 0
M  V30 27 H 2.9588 -1.6703 -0.9501 0
M  V30 28 H 4.7297 0.5497 0.2341 0
M  V30 29 H 5.0034 -1.2864 0.2905 0
M  V30 END ATOM
M  V30 BEGIN BOND
M  V30 1 1 1 2
M  V30 2 1 1 3
M  V30 3 2 2 4
M  V30 4 1 2 5
M  V30 5 2 3 6
M  V30 6 1 3 7
M  V30 7 1 6 8
M  V30 8 1 7 9
M  V30 9 1 8 10
M  V30 10 1 9 11
M  V30 11 1 11 12
M  V30 12 1 12 13
M  V30 13 2 13 14
M  V30 14 1 4 6
M  V30 15 1 10 11
M  V30 16 1 5 15
M  V30 17 1 5 16
M  V30 18 1 7 17
M  V30 19 1 7 18
M  V30 20 1 8 19
M  V30 21 1 8 20
M  V30 22 1 9 21
M  V30 23 1 9 22
M  V30 24 1 10 23
M  V30 25 1 10 24
M  V30 26 1 12 25
M  V30 27 1 12 26
M  V30 28 1 13 27
M  V30 29 1 14 28
M  V30 30 1 14 29
M  V30 END BOND
M  V30 END CTAB
M  END
>  <Column 1>
2926

>  <level_0>
5066

>  <index>
5067

>  <Unnamed: 0>
5067

>  <NO.>
5079

>  <Name>
talipexole

>  <IUPAC_name>
6-prop-2-enyl-4-5-7-8-tetrahydro-[1-3]thiazolo[4-5-d]azepin-2-amine

>  <SMILES>
C=CCN1CCc2nc(N)sc2CC1

>  <CID>
5374

>  <logBB>


>  <BBB+/BBB->
BBB+

>  <Inchi>
InChI=1S/C10H15N3S/c1-2-5-13-6-3-8-9(4-7-13)14-10(11)12-8/h2H-1-3-7H2-(H2-11-12)

>  <threshold>


>  <reference>
R14|R23|R37|

>  <group>
C

>  <Class>
-1

>  <ABC>
10.68

>  <ABCGG>
9.38

>  <nAcid>
0

>  <nBase>
1

>  <nAromAtom>
5

>  <nAromBond>
5

>  <nAtom>
29

>  <nHeavyAtom>
14

>  <nSpiro>
0

>  <nBridgehead>
0

>  <nHetero>
4

>  <nN>
3

>  <nO>
0

>  <nF>
0

>  <BalabanJ>
1.86

>  <BertzCT>
306.61

>  <nBonds>
30

>  <nBondsO>
15

>  <nBondsS>
24

>  <nBondsD>
1

>  <nBondsT>
0

>  <nBondsA>
5

>  <nBondsM>
6

>  <nBondsKS>
27

>  <nBondsKD>
3

>  <RNCG>
0.32

>  <RPCG>
0.15

>  <FCSP3>
0.5

>  <SZ>
18.67

>  <Sm>
17.43

>  <Sv>
17.52

>  <Sse>
28.73

>  <Sp>
19.7

>  <Si>
32.91

>  <MZ>
0.64

>  <Mm>
0.6

>  <Mv>
0.6

>  <Mse>
0.99

>  <Mp>
0.68

>  <Mi>
1.13

>  <NsCH3>
0

>  <NdCH2>
1

>  <NssCH2>
5

>  <NtCH>
0

>  <NdsCH>
1

>  <NaaCH>
0

>  <NsssCH>
0

>  <NddC>
0

>  <NtsC>
0

>  <NdssC>
0

>  <NaasC>
3

>  <NaaaC>
0

>  <NssssC>
0

>  <NsNH3>
0

>  <NsNH2>
1

>  <NssNH2>
0

>  <NdNH>
0

>  <NssNH>
0

>  <NaaNH>
0

>  <NtN>
0

>  <NsssNH>
0

>  <NdsN>
0

>  <NaaN>
1

>  <NsssN>
1

>  <NddsN>
0

>  <NaasN>
0

>  <NssssN>
0

>  <NsOH>
0

>  <NdO>
0

>  <NssO>
0

>  <NaaO>
0

>  <NsF>
0

>  <NsSiH3>
0

>  <NssSiH2>
0

>  <NsssSiH>
0

>  <NssssSi>
0

>  <NsPH2>
0

>  <NssPH>
0

>  <NsssP>
0

>  <NdsssP>
0

>  <NsssssP>
0

>  <NsSH>
0

>  <NdS>
0

>  <NssS>
0

>  <NaaS>
1

>  <NdssS>
0

>  <NddssS>
0

>  <NsCl>
0

>  <NsBr>
0

>  <NsI>
0

>  <fragCpx>
43.04

>  <fMF>
0.34

>  <nHBAcc>
4

>  <nHBDon>
1

>  <Kier1>
10.52

>  <Kier2>
4.68

>  <Lipinski>
1

>  <GhoseFilter>
1

>  <FilterItLogS>
-2.24

>  <VMcGowan>
163.43

>  <LabuteASA>
88.25

>  <PEOE_VSA1>
5.73

>  <PEOE_VSA2>
4.9

>  <PEOE_VSA3>
4.98

>  <PEOE_VSA4>
0

>  <PEOE_VSA5>
17.92

>  <PEOE_VSA6>
6.08

>  <PEOE_VSA7>
6.42

>  <PEOE_VSA8>
30.93

>  <PEOE_VSA9>
5.69

>  <PEOE_VSA10>
0

>  <PEOE_VSA11>
5.13

>  <PEOE_VSA12>
0

>  <PEOE_VSA13>
0

>  <SMR_VSA1>
0

>  <SMR_VSA2>
0

>  <SMR_VSA3>
9.88

>  <SMR_VSA4>
0

>  <SMR_VSA5>
12.84

>  <SMR_VSA6>
25.37

>  <SMR_VSA7>
23.23

>  <SMR_VSA8>
0

>  <SMR_VSA9>
0

>  <SlogP_VSA1>
5.73

>  <SlogP_VSA2>
29.52

>  <SlogP_VSA3>
12.84

>  <SlogP_VSA4>
0

>  <SlogP_VSA5>
10.57

>  <SlogP_VSA6>
12.65

>  <SlogP_VSA7>
0

>  <SlogP_VSA8>
0

>  <SlogP_VSA9>
0

>  <SlogP_VSA10>
5.13

>  <SlogP_VSA11>
0

>  <EState_VSA1>
0

>  <EState_VSA2>
0

>  <EState_VSA3>
5.13

>  <EState_VSA4>
32.48

>  <EState_VSA5>
10.57

>  <EState_VSA6>
11.34

>  <EState_VSA7>
6.08

>  <EState_VSA8>
16.46

>  <EState_VSA9>
5.73

>  <EState_VSA10>
0

>  <VSA_EState1>
0

>  <VSA_EState2>
8.12

>  <VSA_EState3>
0.71

>  <VSA_EState4>
6.89

>  <VSA_EState5>
0

>  <VSA_EState6>
0

>  <VSA_EState7>
4.07

>  <VSA_EState8>
6.91

>  <VSA_EState9>
0

>  <apol>
32.9

>  <bpol>
19.79

>  <nRing>
2

>  <nHRing>
2

>  <naRing>
1

>  <naHRing>
1

>  <nARing 2>
1

>  <nAHRing 2>
1

>  <nFRing>
1

>  <nFHRing>
1

>  <nFaRing>
0

>  <nFaHRing>
0

>  <nFARing 2>
1

>  <nFAHRing 2>
1

>  <nRot>
2

>  <SLogP>
1.31

>  <SMR>
60.57

>  <TopoPSA(NO)>
42.15

>  <TopoPSA>
70.39

>  <JGI1>
0.2

>  <JGI2>
0.07

>  <JGI3>
0.05

>  <JGI4>
0.04

>  <JGI5>
0.02

>  <Diameter>
9

>  <Radius>
5

>  <TMWC10>
97.83

>  <TSRW10>
59.41

>  <MW>
209.1

>  <AMW>
7.21

>  <WPath>
305

>  <WPol>
20

>  <Zagreb1>
70

>  <Zagreb2>
80

>  <mZagreb2>
3.19

>  <yes>


>  <nAR-cont>
0.816016

>  <nHA-cont>
0.887625254

>  <MWHBN>
0.345774521

>  <MWHBN-cont>
0.685963654

>  <TPSA-cont>
0.50863409

>  <pka_cont>
0.97

>  <yes.1>


>  <BBB_SCORE>
4.234854917

>  <MMFF94 Energy>
-1.3542

$$$$
Compound 2381
Actelion Java MolfileCreator 2.0

  0  0  0  0  0  0              0 V3000
M  V30 BEGIN CTAB
M  V30 COUNTS 34 35 0 0 0
M  V30 BEGIN ATOM
M  V30 1 S -2.9428 -0.3266 -3.0246 0
M  V30 2 C -1.861 0.4289 -2.0037 0
M  V30 3 S -1.9634 0.2849 -0.2543 0
M  V30 4 N -0.8055 1.2468 -2.3422 0
M  V30 5 C -0.5585 1.2401 -0.0012 0
M  V30 6 C -0.032 1.7262 -1.3022 0
M  V30 7 C -0.4098 1.5775 -3.709 0
M  V30 8 C 0.0287 1.5622 1.1595 0
M  V30 9 O 0.9476 2.4505 -1.4176 0
M  V30 10 C 0.6113 0.567 -4.1972 0
M  V30 11 C -0.3693 1.1341 2.4927 0
M  V30 12 O 0.9396 -0.4755 -3.6546 0
M  V30 13 O 1.1485 0.9155 -5.385 0
M  V30 14 C -0.2821 -0.132 2.9472 0
M  V30 15 C -0.8832 2.2437 3.3699 0
M  V30 16 C 0.244 -1.2925 2.2149 0
M  V30 17 C -0.5647 -2.4237 2.0554 0
M  V30 18 C 1.5453 -1.306 1.6989 0
M  V30 19 C -0.0896 -3.5402 1.3646 0
M  V30 20 C 2.0194 -2.4229 1.008 0
M  V30 21 C 1.2008 -3.538 0.8388 0
M  V30 22 H 0.0508 2.5708 -3.7237 0
M  V30 23 H -1.2714 1.5656 -4.3806 0
M  V30 24 H 0.8939 2.2255 1.1431 0
M  V30 25 H 1.778 0.1901 -5.5855 0
M  V30 26 H -0.6252 -0.3671 3.9533 0
M  V30 27 H -1.1656 1.8837 4.3652 0
M  V30 28 H -1.77 2.7073 2.9239 0
M  V30 29 H -0.1176 3.0157 3.504 0
M  V30 30 H -1.5773 -2.4359 2.4517 0
M  V30 31 H 2.1992 -0.4475 1.8298 0
M  V30 32 H -0.7291 -4.4089 1.2331 0
M  V30 33 H 3.0271 -2.4213 0.6013 0
M  V30 34 H 1.5688 -4.4052 0.2971 0
M  V30 END ATOM
M  V30 BEGIN BOND
M  V30 1 2 1 2
M  V30 2 1 2 3
M  V30 3 1 2 4
M  V30 4 1 3 5
M  V30 5 1 4 6
M  V30 6 1 4 7
M  V30 7 2 5 8
M  V30 8 2 6 9
M  V30 9 1 7 10
M  V30 10 1 8 11
M  V30 11 2 10 12
M  V30 12 1 10 13
M  V30 13 2 11 14
M  V30 14 1 11 15
M  V30 15 1 14 16
M  V30 16 2 16 17
M  V30 17 1 16 18
M  V30 18 1 17 19
M  V30 19 2 18 20
M  V30 20 2 19 21
M  V30 21 1 5 6
M  V30 22 1 20 21
M  V30 23 1 7 22
M  V30 24 1 7 23
M  V30 25 1 8 24
M  V30 26 1 13 25
M  V30 27 1 14 26
M  V30 28 1 15 27
M  V30 29 1 15 28
M  V30 30 1 15 29
M  V30 31 1 17 30
M  V30 32 1 18 31
M  V30 33 1 19 32
M  V30 34 1 20 33
M  V30 35 1 21 34
M  V30 END BOND
M  V30 END CTAB
M  END
>  <Column 1>
2928

>  <level_0>
5068

>  <index>
5069

>  <Unnamed: 0>
5069

>  <NO.>
5081

>  <Name>
epalrestat

>  <IUPAC_name>
2-[5-(2-methyl-3-phenylprop-2-enylidene)-4-oxo-2-sulfanylidene-1-3-thiazolidin-3-yl]acetic acid

>  <SMILES>
CC(=Cc1ccccc1)C=C1SC(=S)N(CC(=O)O)C1=O

>  <CID>
3235

>  <logBB>


>  <BBB+/BBB->
BBB-

>  <Inchi>
InChI=1S/C15H13NO3S2/c1-10(7-11-5-3-2-4-6-11)8-12-14(19)16(9-13(17)18)15(20)21-12/h2-8H-9H2-1H3-(H-17-18)

>  <threshold>


>  <reference>
R14|

>  <group>
C

>  <Class>
-1

>  <ABC>
15.98

>  <ABCGG>
13.85

>  <nAcid>
1

>  <nBase>
0

>  <nAromAtom>
6

>  <nAromBond>
6

>  <nAtom>
34

>  <nHeavyAtom>
21

>  <nSpiro>
0

>  <nBridgehead>
0

>  <nHetero>
6

>  <nN>
1

>  <nO>
3

>  <nF>
0

>  <BalabanJ>
1.79

>  <BertzCT>
650.14

>  <nBonds>
35

>  <nBondsO>
22

>  <nBondsS>
24

>  <nBondsD>
5

>  <nBondsT>
0

>  <nBondsA>
6

>  <nBondsM>
11

>  <nBondsKS>
27

>  <nBondsKD>
8

>  <RNCG>
0.25

>  <RPCG>
0.17

>  <FCSP3>
0.13

>  <SZ>
27.67

>  <Sm>
26.59

>  <Sv>
23.8

>  <Sse>
34.58

>  <Sp>
25.76

>  <Si>
37.46

>  <MZ>
0.81

>  <Mm>
0.78

>  <Mv>
0.7

>  <Mse>
1.02

>  <Mp>
0.76

>  <Mi>
1.1

>  <NsCH3>
1

>  <NdCH2>
0

>  <NssCH2>
1

>  <NtCH>
0

>  <NdsCH>
2

>  <NaaCH>
5

>  <NsssCH>
0

>  <NddC>
0

>  <NtsC>
0

>  <NdssC>
5

>  <NaasC>
1

>  <NaaaC>
0

>  <NssssC>
0

>  <NsNH3>
0

>  <NsNH2>
0

>  <NssNH2>
0

>  <NdNH>
0

>  <NssNH>
0

>  <NaaNH>
0

>  <NtN>
0

>  <NsssNH>
0

>  <NdsN>
0

>  <NaaN>
0

>  <NsssN>
1

>  <NddsN>
0

>  <NaasN>
0

>  <NssssN>
0

>  <NsOH>
1

>  <NdO>
2

>  <NssO>
0

>  <NaaO>
0

>  <NsF>
0

>  <NsSiH3>
0

>  <NssSiH2>
0

>  <NsssSiH>
0

>  <NssssSi>
0

>  <NsPH2>
0

>  <NssPH>
0

>  <NsssP>
0

>  <NdsssP>
0

>  <NsssssP>
0

>  <NsSH>
0

>  <NdS>
1

>  <NssS>
1

>  <NaaS>
0

>  <NdssS>
0

>  <NddssS>
0

>  <NsCl>
0

>  <NsBr>
0

>  <NsI>
0

>  <fragCpx>
64.06

>  <fMF>
0.41

>  <nHBAcc>
4

>  <nHBDon>
1

>  <Kier1>
17.36

>  <Kier2>
8.02

>  <Lipinski>
1

>  <GhoseFilter>
1

>  <FilterItLogS>
-2.16

>  <VMcGowan>
226.38

>  <LabuteASA>
131.69

>  <PEOE_VSA1>
5.11

>  <PEOE_VSA2>
14.49

>  <PEOE_VSA3>
0

>  <PEOE_VSA4>
0

>  <PEOE_VSA5>
0

>  <PEOE_VSA6>
60.39

>  <PEOE_VSA7>
24.14

>  <PEOE_VSA8>
0

>  <PEOE_VSA9>
4.91

>  <PEOE_VSA10>
10.87

>  <PEOE_VSA11>
0

>  <PEOE_VSA12>
0

>  <PEOE_VSA13>
5.91

>  <SMR_VSA1>
14.7

>  <SMR_VSA2>
0

>  <SMR_VSA3>
4.9

>  <SMR_VSA4>
0

>  <SMR_VSA5>
6.92

>  <SMR_VSA6>
6.54

>  <SMR_VSA7>
52.45

>  <SMR_VSA8>
0

>  <SMR_VSA9>
0

>  <SlogP_VSA1>
0

>  <SlogP_VSA2>
32.75

>  <SlogP_VSA3>
9.59

>  <SlogP_VSA4>
0

>  <SlogP_VSA5>
12.49

>  <SlogP_VSA6>
46.89

>  <SlogP_VSA7>
0

>  <SlogP_VSA8>
6.08

>  <SlogP_VSA9>
0

>  <SlogP_VSA10>
0

>  <SlogP_VSA11>
0

>  <EState_VSA1>
12.51

>  <EState_VSA2>
10.23

>  <EState_VSA3>
4.91

>  <EState_VSA4>
27.8

>  <EState_VSA5>
0

>  <EState_VSA6>
6.08

>  <EState_VSA7>
43.33

>  <EState_VSA8>
0

>  <EState_VSA9>
17.32

>  <EState_VSA10>
9.59

>  <VSA_EState1>
0.28

>  <VSA_EState2>
24.37

>  <VSA_EState3>
8.78

>  <VSA_EState4>
1.93

>  <VSA_EState5>
-1.43

>  <VSA_EState6>
9.74

>  <VSA_EState7>
3.68

>  <VSA_EState8>
1.49

>  <VSA_EState9>
0

>  <apol>
43.02

>  <bpol>
20.18

>  <nRing>
2

>  <nHRing>
1

>  <naRing>
1

>  <naHRing>
0

>  <nARing 2>
1

>  <nAHRing 2>
1

>  <nFRing>
0

>  <nFHRing>
0

>  <nFaRing>
0

>  <nFaHRing>
0

>  <nFARing 2>
0

>  <nFAHRing 2>
0

>  <nRot>
4

>  <SLogP>
2.92

>  <SMR>
87.71

>  <TopoPSA(NO)>
57.61

>  <TopoPSA>
115

>  <JGI1>
0.23

>  <JGI2>
0.07

>  <JGI3>
0.07

>  <JGI4>
0.04

>  <JGI5>
0.03

>  <Diameter>
12

>  <Radius>
6

>  <TMWC10>
115.44

>  <TSRW10>
68.56

>  <MW>
319.03

>  <AMW>
9.38

>  <WPath>
1021

>  <WPol>
28

>  <Zagreb1>
104

>  <Zagreb2>
118

>  <mZagreb2>
4.67

>  <yes>


>  <nAR-cont>
0.816016

>  <nHA-cont>
0.994529749

>  <MWHBN>
0.279933093

>  <MWHBN-cont>
0.896251177

>  <TPSA-cont>
0.197228589

>  <pka_cont>
0.97

>  <yes.1>


>  <BBB_SCORE>
4.034379693

>  <MMFF94 Energy>
-9.3906

$$$$
Compound 2382
Actelion Java MolfileCreator 2.0

  0  0  0  0  0  0              0 V3000
M  V30 BEGIN CTAB
M  V30 COUNTS 55 58 0 0 0
M  V30 BEGIN ATOM
M  V30 1 O 3.9444 2.9773 3.7832 0
M  V30 2 C 3.5099 2.2344 2.9052 0
M  V30 3 C 2.2777 1.4507 3.1672 0
M  V30 4 C 4.225 2.0527 1.5918 0
M  V30 5 C 1.7642 0.578 2.2783 0
M  V30 6 C 3.2479 1.6194 0.5078 0
M  V30 7 C 0.5755 -0.2348 2.5851 0
M  V30 8 C 2.4076 0.3692 0.8975 0
M  V30 9 C -0.0025 -1.0149 1.6517 0
M  V30 10 C 0.0178 -0.2331 3.9884 0
M  V30 11 C 1.307 0.0884 -0.2004 0
M  V30 12 C 3.3707 -0.8477 0.9869 0
M  V30 13 C 0.4293 -1.1231 0.2074 0
M  V30 14 C 0.4321 1.3219 -0.5286 0
M  V30 15 C -0.7764 -1.3706 -0.7282 0
M  V30 16 C -0.6682 1.0244 -1.5446 0
M  V30 17 C -1.6089 -0.1348 -1.132 0
M  V30 18 C -0.3572 -1.9867 -2.0767 0
M  V30 19 C -2.4191 -0.6691 -2.3615 0
M  V30 20 C -2.5389 0.3525 -0.0056 0
M  V30 21 C -1.4245 -1.5843 -3.0986 0
M  V30 22 O -2.7836 0.389 -3.2446 0
M  V30 23 C -3.6692 -1.5145 -1.9758 0
M  V30 24 O -3.5823 -2.5943 -1.3866 0
M  V30 25 C -5.0249 -0.9587 -2.3344 0
M  V30 26 H 1.8526 1.6282 4.1481 0
M  V30 27 H 4.6693 3.0131 1.3066 0
M  V30 28 H 5.0382 1.3342 1.7269 0
M  V30 29 H 2.5943 2.4801 0.3278 0
M  V30 30 H 3.7923 1.4368 -0.4266 0
M  V30 31 H -0.8405 -1.6472 1.9432 0
M  V30 32 H 0.7836 -0.5328 4.7118 0
M  V30 33 H -0.8189 -0.9316 4.1012 0
M  V30 34 H -0.3574 0.7606 4.2548 0
M  V30 35 H 1.8331 -0.1751 -1.1286 0
M  V30 36 H 2.8645 -1.7679 1.2942 0
M  V30 37 H 3.8458 -1.0381 0.018 0
M  V30 38 H 4.168 -0.6905 1.7209 0
M  V30 39 H 1.0396 -2.0343 0.1503 0
M  V30 40 H 1.0504 2.1094 -0.9722 0
M  V30 41 H -0.0038 1.7491 0.3802 0
M  V30 42 H -1.4331 -2.1045 -0.2414 0
M  V30 43 H -0.184 0.8055 -2.5047 0
M  V30 44 H -1.2495 1.9411 -1.7074 0
M  V30 45 H 0.62 -1.6228 -2.4109 0
M  V30 46 H -0.2787 -3.0766 -1.9963 0
M  V30 47 H -3.1383 -0.4637 0.4105 0
M  V30 48 H -1.9876 0.7931 0.829 0
M  V30 49 H -3.2293 1.1194 -0.3737 0
M  V30 50 H -0.9525 -1.0677 -3.9434 0
M  V30 51 H -1.9084 -2.4747 -3.5167 0
M  V30 52 H -3.1857 1.1031 -2.7208 0
M  V30 53 H -5.1634 0.0167 -1.8625 0
M  V30 54 H -5.116 -0.8765 -3.42 0
M  V30 55 H -5.8049 -1.6335 -1.97 0
M  V30 END ATOM
M  V30 BEGIN BOND
M  V30 1 2 1 2
M  V30 2 1 2 3
M  V30 3 1 2 4
M  V30 4 2 3 5
M  V30 5 1 4 6
M  V30 6 1 5 7
M  V30 7 1 5 8
M  V30 8 2 7 9
M  V30 9 1 7 10
M  V30 10 1 8 11
M  V30 11 1 8 12
M  V30 12 1 9 13
M  V30 13 1 11 14
M  V30 14 1 13 15
M  V30 15 1 14 16
M  V30 16 1 15 17
M  V30 17 1 15 18
M  V30 18 1 17 19
M  V30 19 1 17 20
M  V30 20 1 18 21
M  V30 21 1 19 22
M  V30 22 1 19 23
M  V30 23 2 23 24
M  V30 24 1 23 25
M  V30 25 1 6 8
M  V30 26 1 11 13
M  V30 27 1 16 17
M  V30 28 1 19 21
M  V30 29 1 3 26
M  V30 30 1 4 27
M  V30 31 1 4 28
M  V30 32 1 6 29
M  V30 33 1 6 30
M  V30 34 1 9 31
M  V30 35 1 10 32
M  V30 36 1 10 33
M  V30 37 1 10 34
M  V30 38 1 11 35
M  V30 39 1 12 36
M  V30 40 1 12 37
M  V30 41 1 12 38
M  V30 42 1 13 39
M  V30 43 1 14 40
M  V30 44 1 14 41
M  V30 45 1 15 42
M  V30 46 1 16 43
M  V30 47 1 16 44
M  V30 48 1 18 45
M  V30 49 1 18 46
M  V30 50 1 20 47
M  V30 51 1 20 48
M  V30 52 1 20 49
M  V30 53 1 21 50
M  V30 54 1 21 51
M  V30 55 1 22 52
M  V30 56 1 25 53
M  V30 57 1 25 54
M  V30 58 1 25 55
M  V30 END BOND
M  V30 END CTAB
M  END
>  <Column 1>
2929

>  <level_0>
5069

>  <index>
5070

>  <Unnamed: 0>
5070

>  <NO.>
5082

>  <Name>
megestrol acetate

>  <IUPAC_name>
17-acetyl-17-hydroxy-6-10-13-trimethyl-2-8-9-11-12-14-15-16-octahydro-1h-cyclopenta[a]phenanthren-3-one

>  <SMILES>
CC(=O)C1(O)CCC2C3C=C(C)C4=CC(=O)CCC4(C)C3CCC21C

>  <CID>
4474932

>  <logBB>


>  <BBB+/BBB->
BBB-

>  <Inchi>
InChI=1S/C22H30O3/c1-13-11-16-17(20(3)8-5-15(24)12-19(13)20)6-9-21(4)18(16)7-10-22(21-25)14(2)23/h11-12-16-18-25H-5-10H2-1-4H3

>  <threshold>


>  <reference>
R14|

>  <group>
C

>  <Class>
-1

>  <ABC>
20.25

>  <ABCGG>
16.67

>  <nAcid>
0

>  <nBase>
0

>  <nAromAtom>
0

>  <nAromBond>
0

>  <nAtom>
55

>  <nHeavyAtom>
25

>  <nSpiro>
0

>  <nBridgehead>
0

>  <nHetero>
3

>  <nN>
0

>  <nO>
3

>  <nF>
0

>  <BalabanJ>
1.67

>  <BertzCT>
716.78

>  <nBonds>
58

>  <nBondsO>
28

>  <nBondsS>
54

>  <nBondsD>
4

>  <nBondsT>
0

>  <nBondsA>
0

>  <nBondsM>
4

>  <nBondsKS>
54

>  <nBondsKD>
4

>  <RNCG>
0.24

>  <RPCG>
0.13

>  <FCSP3>
0.73

>  <SZ>
31

>  <Sm>
28.51

>  <Sv>
32.27

>  <Sse>
54.31

>  <Sp>
35.42

>  <Si>
61.86

>  <MZ>
0.56

>  <Mm>
0.52

>  <Mv>
0.59

>  <Mse>
0.99

>  <Mp>
0.64

>  <Mi>
1.12

>  <NsCH3>
4

>  <NdCH2>
0

>  <NssCH2>
6

>  <NtCH>
0

>  <NdsCH>
2

>  <NaaCH>
0

>  <NsssCH>
3

>  <NddC>
0

>  <NtsC>
0

>  <NdssC>
4

>  <NaasC>
0

>  <NaaaC>
0

>  <NssssC>
3

>  <NsNH3>
0

>  <NsNH2>
0

>  <NssNH2>
0

>  <NdNH>
0

>  <NssNH>
0

>  <NaaNH>
0

>  <NtN>
0

>  <NsssNH>
0

>  <NdsN>
0

>  <NaaN>
0

>  <NsssN>
0

>  <NddsN>
0

>  <NaasN>
0

>  <NssssN>
0

>  <NsOH>
1

>  <NdO>
2

>  <NssO>
0

>  <NaaO>
0

>  <NsF>
0

>  <NsSiH3>
0

>  <NssSiH2>
0

>  <NsssSiH>
0

>  <NssssSi>
0

>  <NsPH2>
0

>  <NssPH>
0

>  <NsssP>
0

>  <NdsssP>
0

>  <NsssssP>
0

>  <NsSH>
0

>  <NdS>
0

>  <NssS>
0

>  <NaaS>
0

>  <NdssS>
0

>  <NddssS>
0

>  <NsCl>
0

>  <NsBr>
0

>  <NsI>
0

>  <fragCpx>
184.03

>  <fMF>
0.31

>  <nHBAcc>
3

>  <nHBDon>
1

>  <Kier1>
18.37

>  <Kier2>
5.75

>  <Lipinski>
1

>  <GhoseFilter>
1

>  <FilterItLogS>
-4.15

>  <VMcGowan>
277.81

>  <LabuteASA>
150.12

>  <PEOE_VSA1>
5.11

>  <PEOE_VSA2>
9.59

>  <PEOE_VSA3>
0

>  <PEOE_VSA4>
0

>  <PEOE_VSA5>
0

>  <PEOE_VSA6>
25.5

>  <PEOE_VSA7>
80.77

>  <PEOE_VSA8>
11.84

>  <PEOE_VSA9>
0

>  <PEOE_VSA10>
5.6

>  <PEOE_VSA11>
11.57

>  <PEOE_VSA12>
0

>  <PEOE_VSA13>
0

>  <SMR_VSA1>
14.7

>  <SMR_VSA2>
0

>  <SMR_VSA3>
0

>  <SMR_VSA4>
28.58

>  <SMR_VSA5>
71.82

>  <SMR_VSA6>
0

>  <SMR_VSA7>
23.3

>  <SMR_VSA8>
0

>  <SMR_VSA9>
0

>  <SlogP_VSA1>
0

>  <SlogP_VSA2>
22.27

>  <SlogP_VSA3>
9.59

>  <SlogP_VSA4>
28.58

>  <SlogP_VSA5>
66.22

>  <SlogP_VSA6>
23.3

>  <SlogP_VSA7>
0

>  <SlogP_VSA8>
0

>  <SlogP_VSA9>
0

>  <SlogP_VSA10>
0

>  <SlogP_VSA11>
0

>  <EState_VSA1>
5.6

>  <EState_VSA2>
22.4

>  <EState_VSA3>
30.6

>  <EState_VSA4>
25.68

>  <EState_VSA5>
11.15

>  <EState_VSA6>
6.92

>  <EState_VSA7>
6.08

>  <EState_VSA8>
26.85

>  <EState_VSA9>
0

>  <EState_VSA10>
14.7

>  <VSA_EState1>
0

>  <VSA_EState2>
24.25

>  <VSA_EState3>
11.18

>  <VSA_EState4>
1.06

>  <VSA_EState5>
1.46

>  <VSA_EState6>
0

>  <VSA_EState7>
9.28

>  <VSA_EState8>
8.17

>  <VSA_EState9>
0

>  <apol>
59.15

>  <bpol>
31.83

>  <nRing>
4

>  <nHRing>
0

>  <naRing>
0

>  <naHRing>
0

>  <nARing 2>
4

>  <nAHRing 2>
0

>  <nFRing>
1

>  <nFHRing>
0

>  <nFaRing>
0

>  <nFaHRing>
0

>  <nFARing 2>
1

>  <nFAHRing 2>
0

>  <nRot>
1

>  <SLogP>
4

>  <SMR>
96.86

>  <TopoPSA(NO)>
54.37

>  <TopoPSA>
54.37

>  <JGI1>
0.3

>  <JGI2>
0.15

>  <JGI3>
0.07

>  <JGI4>
0.06

>  <JGI5>
0.04

>  <Diameter>
11

>  <Radius>
6

>  <TMWC10>
132.9

>  <TSRW10>
76.07

>  <MW>
342.22

>  <AMW>
6.22

>  <WPath>
1276

>  <WPol>
57

>  <Zagreb1>
150

>  <Zagreb2>
193

>  <mZagreb2>
5.1

>  <yes>


>  <nAR-cont>
0.199399

>  <nHA-cont>
0.921834225

>  <MWHBN>
0.216225693

>  <MWHBN-cont>
0.997067723

>  <TPSA-cont>
0.620463638

>  <pka_cont>
0.97

>  <yes.1>


>  <BBB_SCORE>
4.342762086

>  <MMFF94 Energy>
97.632

$$$$
Compound 2383
Actelion Java MolfileCreator 2.0

  0  0  0  0  0  0              0 V3000
M  V30 BEGIN CTAB
M  V30 COUNTS 57 60 0 0 0
M  V30 BEGIN ATOM
M  V30 1 O 5.1506 -1.0446 -3.2973 0
M  V30 2 C 4.3323 -0.559 -2.52 0
M  V30 3 C 3.0081 -0.1297 -3.0283 0
M  V30 4 C 4.6535 -0.2937 -1.0767 0
M  V30 5 C 2.0488 0.3736 -2.2261 0
M  V30 6 C 3.4025 -0.453 -0.2296 0
M  V30 7 C 2.2096 0.4394 -0.6908 0
M  V30 8 C 0.7448 0.9523 -2.7821 0
M  V30 9 C 0.9033 -0.1047 0.0066 0
M  V30 10 C 2.509 1.9043 -0.297 0
M  V30 11 C -0.4698 0.3384 -2.0737 0
M  V30 12 C 0.545 0.8357 -4.3005 0
M  V30 13 C -0.3969 0.5416 -0.5549 0
M  V30 14 C 0.9481 -0.052 1.5586 0
M  V30 15 C -1.6114 -0.0787 0.1502 0
M  V30 16 C -0.3377 -0.5729 2.227 0
M  V30 17 C -1.5944 0.1245 1.6807 0
M  V30 18 C -3.0049 0.388 -0.2587 0
M  V30 19 C -2.9778 -0.4841 2.0701 0
M  V30 20 C -1.5533 1.6214 2.1083 0
M  V30 21 C -3.91 0.0091 0.9281 0
M  V30 22 O -3.4464 0.0368 3.3125 0
M  V30 23 C -2.9799 -2.0353 2.1464 0
M  V30 24 O -3.1729 -2.7476 1.1587 0
M  V30 25 C -2.7484 -2.6646 3.4998 0
M  V30 26 H 2.9136 -0.2027 -4.1053 0
M  V30 27 H 5.0831 0.7088 -0.9878 0
M  V30 28 H 5.4061 -1.0187 -0.7479 0
M  V30 29 H 3.6653 -0.2398 0.8134 0
M  V30 30 H 3.1022 -1.5098 -0.2645 0
M  V30 31 H 0.7545 2.0289 -2.5631 0
M  V30 32 H 0.8398 -1.1753 -0.2483 0
M  V30 33 H 3.3312 2.3198 -0.8912 0
M  V30 34 H 2.8029 1.9875 0.7546 0
M  V30 35 H 1.6465 2.5609 -0.4467 0
M  V30 36 H -1.3839 0.8065 -2.4595 0
M  V30 37 H -0.5404 -0.7323 -2.3079 0
M  V30 38 H -0.4018 1.2983 -4.6015 0
M  V30 39 H 1.3413 1.3531 -4.8465 0
M  V30 40 H 0.5209 -0.2102 -4.6253 0
M  V30 41 H -0.3868 1.6208 -0.3675 0
M  V30 42 H 1.7784 -0.663 1.9295 0
M  V30 43 H 1.1443 0.9685 1.9012 0
M  V30 44 H -1.5714 -1.1577 -0.0639 0
M  V30 45 H -0.3857 -1.6533 2.0465 0
M  V30 46 H -0.2647 -0.4391 3.3129 0
M  V30 47 H -3.3416 -0.0962 -1.1812 0
M  V30 48 H -3.0322 1.4707 -0.4258 0
M  V30 49 H -0.6899 2.1584 1.7081 0
M  V30 50 H -2.4419 2.1729 1.7847 0
M  V30 51 H -1.4988 1.708 3.2 0
M  V30 52 H -4.6339 -0.756 0.6262 0
M  V30 53 H -4.4977 0.8827 1.2358 0
M  V30 54 H -4.4077 -0.1144 3.3567 0
M  V30 55 H -3.6538 -2.5713 4.1045 0
M  V30 56 H -1.909 -2.186 4.0077 0
M  V30 57 H -2.5116 -3.7248 3.3727 0
M  V30 END ATOM
M  V30 BEGIN BOND
M  V30 1 2 1 2
M  V30 2 1 2 3
M  V30 3 1 2 4
M  V30 4 2 3 5
M  V30 5 1 4 6
M  V30 6 1 5 7
M  V30 7 1 5 8
M  V30 8 1 7 9
M  V30 9 1 7 10
M  V30 10 1 8 11
M  V30 11 1 8 12
M  V30 12 1 9 13
M  V30 13 1 9 14
M  V30 14 1 13 15
M  V30 15 1 14 16
M  V30 16 1 15 17
M  V30 17 1 15 18
M  V30 18 1 17 19
M  V30 19 1 17 20
M  V30 20 1 18 21
M  V30 21 1 19 22
M  V30 22 1 19 23
M  V30 23 2 23 24
M  V30 24 1 23 25
M  V30 25 1 6 7
M  V30 26 1 11 13
M  V30 27 1 16 17
M  V30 28 1 19 21
M  V30 29 1 3 26
M  V30 30 1 4 27
M  V30 31 1 4 28
M  V30 32 1 6 29
M  V30 33 1 6 30
M  V30 34 1 8 31
M  V30 35 1 9 32
M  V30 36 1 10 33
M  V30 37 1 10 34
M  V30 38 1 10 35
M  V30 39 1 11 36
M  V30 40 1 11 37
M  V30 41 1 12 38
M  V30 42 1 12 39
M  V30 43 1 12 40
M  V30 44 1 13 41
M  V30 45 1 14 42
M  V30 46 1 14 43
M  V30 47 1 15 44
M  V30 48 1 16 45
M  V30 49 1 16 46
M  V30 50 1 18 47
M  V30 51 1 18 48
M  V30 52 1 20 49
M  V30 53 1 20 50
M  V30 54 1 20 51
M  V30 55 1 21 52
M  V30 56 1 21 53
M  V30 57 1 22 54
M  V30 58 1 25 55
M  V30 59 1 25 56
M  V30 60 1 25 57
M  V30 END BOND
M  V30 END CTAB
M  END
>  <Column 1>
2930

>  <level_0>
5070

>  <index>
5071

>  <Unnamed: 0>
5071

>  <NO.>
5083

>  <Name>
medroxyprogesterone

>  <IUPAC_name>
17-acetyl-17-hydroxy-6-10-13-trimethyl-2-6-7-8-9-11-12-14-15-16-decahydro-1h-cyclopenta[a]phenanthren-3-one

>  <SMILES>
CC(=O)C1(O)CCC2C3CC(C)C4=CC(=O)CCC4(C)C3CCC21C

>  <CID>
541103

>  <logBB>


>  <BBB+/BBB->
BBB-

>  <Inchi>
InChI=1S/C22H32O3/c1-13-11-16-17(20(3)8-5-15(24)12-19(13)20)6-9-21(4)18(16)7-10-22(21-25)14(2)23/h12-13-16-18-25H-5-11H2-1-4H3

>  <threshold>


>  <reference>
R14|

>  <group>
C

>  <Class>
-1

>  <ABC>
20.25

>  <ABCGG>
16.67

>  <nAcid>
0

>  <nBase>
0

>  <nAromAtom>
0

>  <nAromBond>
0

>  <nAtom>
57

>  <nHeavyAtom>
25

>  <nSpiro>
0

>  <nBridgehead>
0

>  <nHetero>
3

>  <nN>
0

>  <nO>
3

>  <nF>
0

>  <BalabanJ>
1.67

>  <BertzCT>
664.18

>  <nBonds>
60

>  <nBondsO>
28

>  <nBondsS>
57

>  <nBondsD>
3

>  <nBondsT>
0

>  <nBondsA>
0

>  <nBondsM>
3

>  <nBondsKS>
57

>  <nBondsKD>
3

>  <RNCG>
0.24

>  <RPCG>
0.13

>  <FCSP3>
0.82

>  <SZ>
31.33

>  <Sm>
28.68

>  <Sv>
32.81

>  <Sse>
56.2

>  <Sp>
36.22

>  <Si>
64.27

>  <MZ>
0.55

>  <Mm>
0.5

>  <Mv>
0.58

>  <Mse>
0.99

>  <Mp>
0.64

>  <Mi>
1.13

>  <NsCH3>
4

>  <NdCH2>
0

>  <NssCH2>
7

>  <NtCH>
0

>  <NdsCH>
1

>  <NaaCH>
0

>  <NsssCH>
4

>  <NddC>
0

>  <NtsC>
0

>  <NdssC>
3

>  <NaasC>
0

>  <NaaaC>
0

>  <NssssC>
3

>  <NsNH3>
0

>  <NsNH2>
0

>  <NssNH2>
0

>  <NdNH>
0

>  <NssNH>
0

>  <NaaNH>
0

>  <NtN>
0

>  <NsssNH>
0

>  <NdsN>
0

>  <NaaN>
0

>  <NsssN>
0

>  <NddsN>
0

>  <NaasN>
0

>  <NssssN>
0

>  <NsOH>
1

>  <NdO>
2

>  <NssO>
0

>  <NaaO>
0

>  <NsF>
0

>  <NsSiH3>
0

>  <NssSiH2>
0

>  <NsssSiH>
0

>  <NssssSi>
0

>  <NsPH2>
0

>  <NssPH>
0

>  <NsssP>
0

>  <NdsssP>
0

>  <NsssssP>
0

>  <NsSH>
0

>  <NdS>
0

>  <NssS>
0

>  <NaaS>
0

>  <NdssS>
0

>  <NddssS>
0

>  <NsCl>
0

>  <NsBr>
0

>  <NsI>
0

>  <fragCpx>
184.03

>  <fMF>
0.3

>  <nHBAcc>
3

>  <nHBDon>
1

>  <Kier1>
18.37

>  <Kier2>
5.75

>  <Lipinski>
1

>  <GhoseFilter>
1

>  <FilterItLogS>
-4.17

>  <VMcGowan>
282.11

>  <LabuteASA>
150.81

>  <PEOE_VSA1>
5.11

>  <PEOE_VSA2>
9.59

>  <PEOE_VSA3>
0

>  <PEOE_VSA4>
0

>  <PEOE_VSA5>
0

>  <PEOE_VSA6>
26.34

>  <PEOE_VSA7>
80.61

>  <PEOE_VSA8>
11.84

>  <PEOE_VSA9>
0

>  <PEOE_VSA10>
5.6

>  <PEOE_VSA11>
11.57

>  <PEOE_VSA12>
0

>  <PEOE_VSA13>
0

>  <SMR_VSA1>
14.7

>  <SMR_VSA2>
0

>  <SMR_VSA3>
0

>  <SMR_VSA4>
34.5

>  <SMR_VSA5>
78.24

>  <SMR_VSA6>
0

>  <SMR_VSA7>
11.65

>  <SMR_VSA8>
0

>  <SMR_VSA9>
0

>  <SlogP_VSA1>
0

>  <SlogP_VSA2>
22.27

>  <SlogP_VSA3>
9.59

>  <SlogP_VSA4>
34.5

>  <SlogP_VSA5>
72.64

>  <SlogP_VSA6>
11.65

>  <SlogP_VSA7>
0

>  <SlogP_VSA8>
0

>  <SlogP_VSA9>
0

>  <SlogP_VSA10>
0

>  <SlogP_VSA11>
0

>  <EState_VSA1>
5.6

>  <EState_VSA2>
16.61

>  <EState_VSA3>
42.3

>  <EState_VSA4>
32.1

>  <EState_VSA5>
5.57

>  <EState_VSA6>
6.92

>  <EState_VSA7>
6.08

>  <EState_VSA8>
20.77

>  <EState_VSA9>
0

>  <EState_VSA10>
14.7

>  <VSA_EState1>
0

>  <VSA_EState2>
24.3

>  <VSA_EState3>
11.2

>  <VSA_EState4>
0.11

>  <VSA_EState5>
2.27

>  <VSA_EState6>
0

>  <VSA_EState7>
8.31

>  <VSA_EState8>
8.4

>  <VSA_EState9>
0

>  <apol>
60.48

>  <bpol>
33.84

>  <nRing>
4

>  <nHRing>
0

>  <naRing>
0

>  <naHRing>
0

>  <nARing 2>
4

>  <nAHRing 2>
0

>  <nFRing>
1

>  <nFHRing>
0

>  <nFaRing>
0

>  <nFaHRing>
0

>  <nFARing 2>
1

>  <nFAHRing 2>
0

>  <nRot>
1

>  <SLogP>
4.08

>  <SMR>
96.89

>  <TopoPSA(NO)>
54.37

>  <TopoPSA>
54.37

>  <JGI1>
0.3

>  <JGI2>
0.15

>  <JGI3>
0.07

>  <JGI4>
0.06

>  <JGI5>
0.04

>  <Diameter>
11

>  <Radius>
6

>  <TMWC10>
132.9

>  <TSRW10>
76.07

>  <MW>
344.24

>  <AMW>
6.04

>  <WPath>
1276

>  <WPol>
57

>  <Zagreb1>
150

>  <Zagreb2>
193

>  <mZagreb2>
5.1

>  <yes>


>  <nAR-cont>
0.199399

>  <nHA-cont>
0.921834225

>  <MWHBN>
0.215590354

>  <MWHBN-cont>
0.997367786

>  <TPSA-cont>
0.620463638

>  <pka_cont>
0.97

>  <yes.1>


>  <BBB_SCORE>
4.34321218

>  <MMFF94 Energy>
107.64

$$$$
Compound 2384
Actelion Java MolfileCreator 2.0

  0  0  0  0  0  0              0 V3000
M  V30 BEGIN CTAB
M  V30 COUNTS 51 54 0 0 0
M  V30 BEGIN ATOM
M  V30 1 O -3.6245 4.9963 2.0123 0
M  V30 2 C -3.0541 4.0035 1.5654 0
M  V30 3 C -1.6248 4.0977 1.1944 0
M  V30 4 C -3.7812 2.7048 1.3319 0
M  V30 5 C -0.9663 3.0642 0.6431 0
M  V30 6 C -2.8253 1.5175 1.3206 0
M  V30 7 C 0.4381 3.2185 0.3089 0
M  V30 8 C -1.616 1.7022 0.3618 0
M  V30 9 C 1.2143 2.2014 -0.088 0
M  V30 10 C -0.5576 0.5699 0.6276 0
M  V30 11 C -2.121 1.6828 -1.1004 0
M  V30 12 C 0.7387 0.7713 -0.2008 0
M  V30 13 C -1.0754 -0.8588 0.4055 0
M  V30 14 C 1.8366 -0.2464 0.2272 0
M  V30 15 C -0.0456 -1.8798 0.8797 0
M  V30 16 C 1.3518 -1.7268 0.251 0
M  V30 17 C 2.9963 -0.2977 -0.7839 0
M  V30 18 C 1.3971 -2.1076 -1.2546 0
M  V30 19 C 2.3276 -2.5869 1.0921 0
M  V30 20 C 2.5813 -1.3195 -1.8421 0
M  V30 21 C 1.5018 -3.6024 -1.5534 0
M  V30 22 O 2.5679 -4.2148 -1.4947 0
M  V30 23 C 0.2257 -4.3168 -1.9188 0
M  V30 24 H -1.1603 5.0568 1.3966 0
M  V30 25 H -4.5084 2.5674 2.1402 0
M  V30 26 H -4.3337 2.782 0.3903 0
M  V30 27 H -2.4573 1.3601 2.3442 0
M  V30 28 H -3.4012 0.6237 1.0548 0
M  V30 29 H 0.8771 4.2124 0.3826 0
M  V30 30 H 2.2457 2.4245 -0.3486 0
M  V30 31 H -0.2802 0.6443 1.6923 0
M  V30 32 H -2.6716 0.7619 -1.3193 0
M  V30 33 H -1.3047 1.7621 -1.8251 0
M  V30 34 H -2.7971 2.5199 -1.3081 0
M  V30 35 H 0.5165 0.6014 -1.2622 0
M  V30 36 H -1.318 -1.0283 -0.6485 0
M  V30 37 H -1.9958 -1.0324 0.9714 0
M  V30 38 H 2.2184 0.0502 1.2133 0
M  V30 39 H 0.0395 -1.7786 1.9707 0
M  V30 40 H -0.4341 -2.889 0.706 0
M  V30 41 H 3.2389 0.665 -1.2407 0
M  V30 42 H 3.9101 -0.6403 -0.2837 0
M  V30 43 H 0.4957 -1.7484 -1.7662 0
M  V30 44 H 3.3333 -2.6271 0.6628 0
M  V30 45 H 1.9678 -3.618 1.1839 0
M  V30 46 H 2.4221 -2.1863 2.1082 0
M  V30 47 H 2.2587 -0.8034 -2.7545 0
M  V30 48 H 3.4343 -1.9461 -2.122 0
M  V30 49 H 0.4486 -5.3566 -2.1743 0
M  V30 50 H -0.228 -3.8357 -2.7888 0
M  V30 51 H -0.4673 -4.3039 -1.0763 0
M  V30 END ATOM
M  V30 BEGIN BOND
M  V30 1 2 1 2
M  V30 2 1 2 3
M  V30 3 1 2 4
M  V30 4 2 3 5
M  V30 5 1 4 6
M  V30 6 1 5 7
M  V30 7 1 5 8
M  V30 8 2 7 9
M  V30 9 1 8 10
M  V30 10 1 8 11
M  V30 11 1 9 12
M  V30 12 1 10 13
M  V30 13 1 12 14
M  V30 14 1 13 15
M  V30 15 1 14 16
M  V30 16 1 14 17
M  V30 17 1 16 18
M  V30 18 1 16 19
M  V30 19 1 17 20
M  V30 20 1 18 21
M  V30 21 2 21 22
M  V30 22 1 21 23
M  V30 23 1 6 8
M  V30 24 1 10 12
M  V30 25 1 15 16
M  V30 26 1 18 20
M  V30 27 1 3 24
M  V30 28 1 4 25
M  V30 29 1 4 26
M  V30 30 1 6 27
M  V30 31 1 6 28
M  V30 32 1 7 29
M  V30 33 1 9 30
M  V30 34 1 10 31
M  V30 35 1 11 32
M  V30 36 1 11 33
M  V30 37 1 11 34
M  V30 38 1 12 35
M  V30 39 1 13 36
M  V30 40 1 13 37
M  V30 41 1 14 38
M  V30 42 1 15 39
M  V30 43 1 15 40
M  V30 44 1 17 41
M  V30 45 1 17 42
M  V30 46 1 18 43
M  V30 47 1 19 44
M  V30 48 1 19 45
M  V30 49 1 19 46
M  V30 50 1 20 47
M  V30 51 1 20 48
M  V30 52 1 23 49
M  V30 53 1 23 50
M  V30 54 1 23 51
M  V30 END BOND
M  V30 END CTAB
M  END
>  <Column 1>
2931

>  <level_0>
5071

>  <index>
5072

>  <Unnamed: 0>
5072

>  <NO.>
5084

>  <Name>
dydrogesterone

>  <IUPAC_name>
17-acetyl-10-13-dimethyl-1-2-8-9-11-12-14-15-16-17-decahydrocyclopenta[a]phenanthren-3-one

>  <SMILES>
CC(=O)C1CCC2C3C=CC4=CC(=O)CCC4(C)C3CCC12C

>  <CID>
3181

>  <logBB>


>  <BBB+/BBB->
BBB-

>  <Inchi>
InChI=1S/C21H28O2/c1-13(22)17-6-7-18-16-5-4-14-12-15(23)8-10-20(14-2)19(16)9-11-21(17-18)3/h4-5-12-16-19H-6-11H2-1-3H3

>  <threshold>


>  <reference>
R14|R23|

>  <group>
C

>  <Class>
-1

>  <ABC>
18.66

>  <ABCGG>
14.99

>  <nAcid>
0

>  <nBase>
0

>  <nAromAtom>
0

>  <nAromBond>
0

>  <nAtom>
51

>  <nHeavyAtom>
23

>  <nSpiro>
0

>  <nBridgehead>
0

>  <nHetero>
2

>  <nN>
0

>  <nO>
2

>  <nF>
0

>  <BalabanJ>
1.6

>  <BertzCT>
627.75

>  <nBonds>
54

>  <nBondsO>
26

>  <nBondsS>
50

>  <nBondsD>
4

>  <nBondsT>
0

>  <nBondsA>
0

>  <nBondsM>
4

>  <nBondsKS>
50

>  <nBondsKD>
4

>  <RNCG>
0.24

>  <RPCG>
0.13

>  <FCSP3>
0.71

>  <SZ>
28.33

>  <Sm>
26.01

>  <Sv>
30.02

>  <Sse>
50.09

>  <Sp>
33.14

>  <Si>
57.23

>  <MZ>
0.56

>  <Mm>
0.51

>  <Mv>
0.59

>  <Mse>
0.98

>  <Mp>
0.65

>  <Mi>
1.12

>  <NsCH3>
3

>  <NdCH2>
0

>  <NssCH2>
6

>  <NtCH>
0

>  <NdsCH>
3

>  <NaaCH>
0

>  <NsssCH>
4

>  <NddC>
0

>  <NtsC>
0

>  <NdssC>
3

>  <NaasC>
0

>  <NaaaC>
0

>  <NssssC>
2

>  <NsNH3>
0

>  <NsNH2>
0

>  <NssNH2>
0

>  <NdNH>
0

>  <NssNH>
0

>  <NaaNH>
0

>  <NtN>
0

>  <NsssNH>
0

>  <NdsN>
0

>  <NaaN>
0

>  <NsssN>
0

>  <NddsN>
0

>  <NaasN>
0

>  <NssssN>
0

>  <NsOH>
0

>  <NdO>
2

>  <NssO>
0

>  <NaaO>
0

>  <NsF>
0

>  <NsSiH3>
0

>  <NssSiH2>
0

>  <NsssSiH>
0

>  <NssssSi>
0

>  <NsPH2>
0

>  <NssPH>
0

>  <NsssP>
0

>  <NdsssP>
0

>  <NsssssP>
0

>  <NsSH>
0

>  <NdS>
0

>  <NssS>
0

>  <NaaS>
0

>  <NdssS>
0

>  <NddssS>
0

>  <NsCl>
0

>  <NsBr>
0

>  <NsI>
0

>  <fragCpx>
170.02

>  <fMF>
0.33

>  <nHBAcc>
2

>  <nHBDon>
0

>  <Kier1>
16.47

>  <Kier2>
5.5

>  <Lipinski>
1

>  <GhoseFilter>
1

>  <FilterItLogS>
-3.92

>  <VMcGowan>
257.85

>  <LabuteASA>
138.96

>  <PEOE_VSA1>
0

>  <PEOE_VSA2>
9.59

>  <PEOE_VSA3>
0

>  <PEOE_VSA4>
0

>  <PEOE_VSA5>
0

>  <PEOE_VSA6>
26

>  <PEOE_VSA7>
79.26

>  <PEOE_VSA8>
12.34

>  <PEOE_VSA9>
0

>  <PEOE_VSA10>
5.78

>  <PEOE_VSA11>
5.78

>  <PEOE_VSA12>
0

>  <PEOE_VSA13>
0

>  <SMR_VSA1>
9.59

>  <SMR_VSA2>
0

>  <SMR_VSA3>
0

>  <SMR_VSA4>
34.5

>  <SMR_VSA5>
59.3

>  <SMR_VSA6>
0

>  <SMR_VSA7>
23.8

>  <SMR_VSA8>
0

>  <SMR_VSA9>
0

>  <SlogP_VSA1>
0

>  <SlogP_VSA2>
11.57

>  <SlogP_VSA3>
9.59

>  <SlogP_VSA4>
34.5

>  <SlogP_VSA5>
59.3

>  <SlogP_VSA6>
23.8

>  <SlogP_VSA7>
0

>  <SlogP_VSA8>
0

>  <SlogP_VSA9>
0

>  <SlogP_VSA10>
0

>  <SlogP_VSA11>
0

>  <EState_VSA1>
0

>  <EState_VSA2>
16.75

>  <EState_VSA3>
35.74

>  <EState_VSA4>
12.84

>  <EState_VSA5>
24.84

>  <EState_VSA6>
6.92

>  <EState_VSA7>
6.08

>  <EState_VSA8>
26

>  <EState_VSA9>
0

>  <EState_VSA10>
9.59

>  <VSA_EState1>
0

>  <VSA_EState2>
23.95

>  <VSA_EState3>
0

>  <VSA_EState4>
1.63

>  <VSA_EState5>
2.83

>  <VSA_EState6>
0

>  <VSA_EState7>
12.88

>  <VSA_EState8>
6.54

>  <VSA_EState9>
0

>  <apol>
55.34

>  <bpol>
29.83

>  <nRing>
4

>  <nHRing>
0

>  <naRing>
0

>  <naHRing>
0

>  <nARing 2>
4

>  <nAHRing 2>
0

>  <nFRing>
1

>  <nFHRing>
0

>  <nFaRing>
0

>  <nFaHRing>
0

>  <nFARing 2>
1

>  <nFAHRing 2>
0

>  <nRot>
1

>  <SLogP>
4.5

>  <SMR>
90.79

>  <TopoPSA(NO)>
34.14

>  <TopoPSA>
34.14

>  <JGI1>
0.27

>  <JGI2>
0.13

>  <JGI3>
0.07

>  <JGI4>
0.06

>  <JGI5>
0.03

>  <Diameter>
11

>  <Radius>
6

>  <TMWC10>
127.44

>  <TSRW10>
73.11

>  <MW>
312.21

>  <AMW>
6.12

>  <WPath>
1052

>  <WPol>
48

>  <Zagreb1>
136

>  <Zagreb2>
172

>  <mZagreb2>
4.75

>  <yes>


>  <nAR-cont>
0.199399

>  <nHA-cont>
0.967789328

>  <MWHBN>
0.113189617

>  <MWHBN-cont>
0.798589508

>  <TPSA-cont>
0.7616816

>  <pka_cont>
0.97

>  <yes.1>


>  <BBB_SCORE>
4.373435791

>  <MMFF94 Energy>
65.883

$$$$
Compound 2385
Actelion Java MolfileCreator 2.0

  0  0  0  0  0  0              0 V3000
M  V30 BEGIN CTAB
M  V30 COUNTS 33 33 0 0 0
M  V30 BEGIN ATOM
M  V30 1 I 0.5879 0.2519 -3.2787 0
M  V30 2 C -0.6955 0.9263 -1.6885 0
M  V30 3 C -0.2936 0.8093 -0.3316 0
M  V30 4 C -1.929 1.5212 -2.0501 0
M  V30 5 N 0.9301 0.165 0.0162 0
M  V30 6 C -1.1374 1.339 0.6635 0
M  V30 7 N -2.3112 1.6524 -3.3825 0
M  V30 8 C -2.7419 2.0219 -1.019 0
M  V30 9 C 2.125 0.8535 0.2212 0
M  V30 10 C 0.9586 -1.3097 -0.0153 0
M  V30 11 I -0.6812 1.3367 2.7217 0
M  V30 12 C -2.3538 1.9375 0.3197 0
M  V30 13 I -4.5931 2.9421 -1.4232 0
M  V30 14 O 3.1714 0.2723 0.5172 0
M  V30 15 C 2.1142 2.3572 0.0639 0
M  V30 16 C 1.0314 -1.9792 1.3661 0 CFG=1
M  V30 17 C -0.3173 -2.263 1.9848 0
M  V30 18 C 1.7789 -3.3104 1.2734 0
M  V30 19 O -0.5107 -2.5284 3.1618 0
M  V30 20 O -1.3531 -2.2806 1.1288 0
M  V30 21 H -1.7424 1.2513 -4.1178 0
M  V30 22 H -3.2165 2.0407 -3.617 0
M  V30 23 H 1.8603 -1.5783 -0.582 0
M  V30 24 H 0.1167 -1.684 -0.608 0
M  V30 25 H -3.0005 2.3439 1.0948 0
M  V30 26 H 1.6666 2.6517 -0.8875 0
M  V30 27 H 1.578 2.8264 0.8901 0
M  V30 28 H 3.1453 2.7242 0.0743 0
M  V30 29 H 1.5683 -1.3247 2.0628 0
M  V30 30 H 1.275 -4.0005 0.5874 0
M  V30 31 H 2.8034 -3.1598 0.9177 0
M  V30 32 H 1.8344 -3.8005 2.2518 0
M  V30 33 H -2.1171 -2.5151 1.6987 0
M  V30 END ATOM
M  V30 BEGIN BOND
M  V30 1 1 1 2
M  V30 2 2 2 3
M  V30 3 1 2 4
M  V30 4 1 3 5
M  V30 5 1 3 6
M  V30 6 1 4 7
M  V30 7 2 4 8
M  V30 8 1 5 9
M  V30 9 1 5 10
M  V30 10 1 6 11
M  V30 11 2 6 12
M  V30 12 1 8 13
M  V30 13 2 9 14
M  V30 14 1 9 15
M  V30 15 1 10 16
M  V30 16 1 16 17
M  V30 17 1 16 18
M  V30 18 2 17 19
M  V30 19 1 17 20
M  V30 20 1 8 12
M  V30 21 1 7 21
M  V30 22 1 7 22
M  V30 23 1 10 23
M  V30 24 1 10 24
M  V30 25 1 12 25
M  V30 26 1 15 26
M  V30 27 1 15 27
M  V30 28 1 15 28
M  V30 29 1 16 29
M  V30 30 1 18 30
M  V30 31 1 18 31
M  V30 32 1 18 32
M  V30 33 1 20 33
M  V30 END BOND
M  V30 BEGIN COLLECTION
M  V30 MDLV30/STERAC1 ATOMS=(1 16)
M  V30 END COLLECTION
M  V30 END CTAB
M  END
>  <Column 1>
2932

>  <level_0>
5072

>  <index>
5073

>  <Unnamed: 0>
5073

>  <NO.>
5085

>  <Name>
iocetamic acid

>  <IUPAC_name>
3-(n-acetyl-3-amino-2-4-6-triiodoanilino)-2-methylpropanoic acid

>  <SMILES>
CC(=O)N(CC(C)C(=O)O)c1c(I)cc(I)c(N)c1I

>  <CID>
27648

>  <logBB>


>  <BBB+/BBB->
BBB-

>  <Inchi>
InChI=1S/C12H13I3N2O3/c1-5(12(19)20)4-17(6(2)18)11-8(14)3-7(13)10(16)9(11)15/h3-5H-4-16H2-1-2H3-(H-19-20)

>  <threshold>


>  <reference>
R14|

>  <group>
C

>  <Class>
-1

>  <ABC>
14.84

>  <ABCGG>
14.21

>  <nAcid>
1

>  <nBase>
0

>  <nAromAtom>
6

>  <nAromBond>
6

>  <nAtom>
33

>  <nHeavyAtom>
20

>  <nSpiro>
0

>  <nBridgehead>
0

>  <nHetero>
8

>  <nN>
2

>  <nO>
3

>  <nF>
0

>  <BalabanJ>
2.89

>  <BertzCT>
563.37

>  <nBonds>
33

>  <nBondsO>
20

>  <nBondsS>
25

>  <nBondsD>
2

>  <nBondsT>
0

>  <nBondsA>
6

>  <nBondsM>
8

>  <nBondsKS>
28

>  <nBondsKD>
5

>  <RNCG>
0.25

>  <RPCG>
0.16

>  <FCSP3>
0.33

>  <SZ>
47

>  <Sm>
51.12

>  <Sv>
23.92

>  <Sse>
33.62

>  <Sp>
29.56

>  <Si>
36.69

>  <MZ>
1.42

>  <Mm>
1.55

>  <Mv>
0.72

>  <Mse>
1.02

>  <Mp>
0.9

>  <Mi>
1.11

>  <NsCH3>
2

>  <NdCH2>
0

>  <NssCH2>
1

>  <NtCH>
0

>  <NdsCH>
0

>  <NaaCH>
1

>  <NsssCH>
1

>  <NddC>
0

>  <NtsC>
0

>  <NdssC>
2

>  <NaasC>
5

>  <NaaaC>
0

>  <NssssC>
0

>  <NsNH3>
0

>  <NsNH2>
1

>  <NssNH2>
0

>  <NdNH>
0

>  <NssNH>
0

>  <NaaNH>
0

>  <NtN>
0

>  <NsssNH>
0

>  <NdsN>
0

>  <NaaN>
0

>  <NsssN>
1

>  <NddsN>
0

>  <NaasN>
0

>  <NssssN>
0

>  <NsOH>
1

>  <NdO>
2

>  <NssO>
0

>  <NaaO>
0

>  <NsF>
0

>  <NsSiH3>
0

>  <NssSiH2>
0

>  <NsssSiH>
0

>  <NssssSi>
0

>  <NsPH2>
0

>  <NssPH>
0

>  <NsssP>
0

>  <NdsssP>
0

>  <NsssssP>
0

>  <NsSH>
0

>  <NdS>
0

>  <NssS>
0

>  <NaaS>
0

>  <NdssS>
0

>  <NddssS>
0

>  <NsCl>
0

>  <NsBr>
0

>  <NsI>
3

>  <fragCpx>
20.08

>  <fMF>
0.18

>  <nHBAcc>
3

>  <nHBDon>
2

>  <Kier1>
18.05

>  <Kier2>
7.32

>  <Lipinski>
0

>  <GhoseFilter>
0

>  <FilterItLogS>
-4.3

>  <VMcGowan>
262.64

>  <LabuteASA>
157.62

>  <PEOE_VSA1>
15.74

>  <PEOE_VSA2>
9.59

>  <PEOE_VSA3>
0

>  <PEOE_VSA4>
0

>  <PEOE_VSA5>
0

>  <PEOE_VSA6>
6.92

>  <PEOE_VSA7>
73.84

>  <PEOE_VSA8>
20.61

>  <PEOE_VSA9>
20.86

>  <PEOE_VSA10>
0

>  <PEOE_VSA11>
0

>  <PEOE_VSA12>
5.91

>  <PEOE_VSA13>
0

>  <SMR_VSA1>
14.7

>  <SMR_VSA2>
0

>  <SMR_VSA3>
0

>  <SMR_VSA4>
5.92

>  <SMR_VSA5>
13.85

>  <SMR_VSA6>
17.18

>  <SMR_VSA7>
16.78

>  <SMR_VSA8>
0

>  <SMR_VSA9>
0

>  <SlogP_VSA1>
10.63

>  <SlogP_VSA2>
23.53

>  <SlogP_VSA3>
9.59

>  <SlogP_VSA4>
16.63

>  <SlogP_VSA5>
13.85

>  <SlogP_VSA6>
6.07

>  <SlogP_VSA7>
0

>  <SlogP_VSA8>
0

>  <SlogP_VSA9>
0

>  <SlogP_VSA10>
11.37

>  <SlogP_VSA11>
0

>  <EState_VSA1>
11.89

>  <EState_VSA2>
12.45

>  <EState_VSA3>
11.37

>  <EState_VSA4>
10.71

>  <EState_VSA5>
11.82

>  <EState_VSA6>
6.92

>  <EState_VSA7>
6.07

>  <EState_VSA8>
67.77

>  <EState_VSA9>
10.84

>  <EState_VSA10>
9.59

>  <VSA_EState1>
2.56

>  <VSA_EState2>
24.38

>  <VSA_EState3>
9.03

>  <VSA_EState4>
7.3

>  <VSA_EState5>
-1.78

>  <VSA_EState6>
1.88

>  <VSA_EState7>
0

>  <VSA_EState8>
3.12

>  <VSA_EState9>
0

>  <apol>
49.36

>  <bpol>
26.96

>  <nRing>
1

>  <nHRing>
0

>  <naRing>
1

>  <naHRing>
0

>  <nARing 2>
0

>  <nAHRing 2>
0

>  <nFRing>
0

>  <nFHRing>
0

>  <nFaRing>
0

>  <nFaHRing>
0

>  <nFARing 2>
0

>  <nFAHRing 2>
0

>  <nRot>
4

>  <SLogP>
3.16

>  <SMR>
103.83

>  <TopoPSA(NO)>
83.63

>  <TopoPSA>
83.63

>  <JGI1>
0.28

>  <JGI2>
0.11

>  <JGI3>
0.06

>  <JGI4>
0.06

>  <JGI5>
0.03

>  <Diameter>
9

>  <Radius>
5

>  <TMWC10>
112.77

>  <TSRW10>
53.45

>  <MW>
613.81

>  <AMW>
18.6

>  <WPath>
766

>  <WPol>
33

>  <Zagreb1>
98

>  <Zagreb2>
114

>  <mZagreb2>
4.44

>  <yes>


>  <nAR-cont>
0.336376

>  <nHA-cont>
0.999629945

>  <MWHBN>
0.201814806

>  <MWHBN-cont>
0.999874717

>  <TPSA-cont>
0.416210669

>  <pka_cont>
0.97

>  <yes.1>


>  <BBB_SCORE>
4.153239358

>  <MMFF94 Energy>
28.651

$$$$
Compound 2386
Actelion Java MolfileCreator 2.0

  0  0  0  0  0  0              0 V3000
M  V30 BEGIN CTAB
M  V30 COUNTS 36 37 0 0 0
M  V30 BEGIN ATOM
M  V30 1 S -0.8887 0.6463 -2.0208 0
M  V30 2 O 0.0689 1.2186 -2.944 0
M  V30 3 O -2.2943 0.5857 -2.3741 0
M  V30 4 N -0.3855 -0.904 -1.5995 0
M  V30 5 C -0.809 1.5545 -0.4899 0
M  V30 6 C 0.8314 -0.9256 -0.787 0
M  V30 7 C -0.4866 -2.0286 -2.4669 0
M  V30 8 C -1.8268 1.3922 0.4533 0
M  V30 9 C 0.2471 2.4345 -0.2497 0
M  V30 10 O 1.9819 -0.2735 -1.1035 0
M  V30 11 C 0.9873 -1.5714 0.4215 0
M  V30 12 O 0.0893 -3.0909 -2.2323 0
M  V30 13 C -1.3921 -1.922 -3.6657 0
M  V30 14 C -1.768 2.1021 1.6553 0
M  V30 15 C 0.2943 3.134 0.9589 0
M  V30 16 N 2.9159 -0.4678 -0.1058 0
M  V30 17 C 2.3221 -1.2554 0.798 0
M  V30 18 C 0.0072 -2.4048 1.1521 0
M  V30 19 C -0.7169 2.9873 1.9136 0
M  V30 20 C 3.0581 -1.6778 2.0128 0
M  V30 21 N -0.64 3.6507 3.1244 0
M  V30 22 H -2.6617 0.7214 0.2653 0
M  V30 23 H 1.043 2.5704 -0.9791 0
M  V30 24 H -2.4304 -1.8169 -3.3426 0
M  V30 25 H -1.096 -1.0843 -4.3011 0
M  V30 26 H -1.311 -2.8369 -4.261 0
M  V30 27 H -2.5562 1.9629 2.3911 0
M  V30 28 H 1.1327 3.8001 1.1484 0
M  V30 29 H -1.0197 -2.0915 0.9387 0
M  V30 30 H 0.1562 -2.3296 2.234 0
M  V30 31 H 0.113 -3.4553 0.8636 0
M  V30 32 H 2.6445 -1.1832 2.8976 0
M  V30 33 H 4.1218 -1.4259 1.9485 0
M  V30 34 H 2.9778 -2.7604 2.1533 0
M  V30 35 H 0.0772 4.3474 3.276 0
M  V30 36 H -1.4134 3.6197 3.7746 0
M  V30 END ATOM
M  V30 BEGIN BOND
M  V30 1 2 1 2
M  V30 2 2 1 3
M  V30 3 1 1 4
M  V30 4 1 1 5
M  V30 5 1 4 6
M  V30 6 1 4 7
M  V30 7 2 5 8
M  V30 8 1 5 9
M  V30 9 1 6 10
M  V30 10 2 6 11
M  V30 11 2 7 12
M  V30 12 1 7 13
M  V30 13 1 8 14
M  V30 14 2 9 15
M  V30 15 1 10 16
M  V30 16 1 11 17
M  V30 17 1 11 18
M  V30 18 2 14 19
M  V30 19 1 17 20
M  V30 20 1 19 21
M  V30 21 1 15 19
M  V30 22 2 16 17
M  V30 23 1 8 22
M  V30 24 1 9 23
M  V30 25 1 13 24
M  V30 26 1 13 25
M  V30 27 1 13 26
M  V30 28 1 14 27
M  V30 29 1 15 28
M  V30 30 1 18 29
M  V30 31 1 18 30
M  V30 32 1 18 31
M  V30 33 1 20 32
M  V30 34 1 20 33
M  V30 35 1 20 34
M  V30 36 1 21 35
M  V30 37 1 21 36
M  V30 END BOND
M  V30 END CTAB
M  END
>  <Column 1>
2934

>  <level_0>
5074

>  <index>
5075

>  <Unnamed: 0>
5075

>  <NO.>
5087

>  <Name>
sulfisoxazole acetyl

>  <IUPAC_name>
n-(4-aminophenyl)sulfonyl-n-(3-4-dimethyl-1-2-oxazol-5-yl)acetamide

>  <SMILES>
CC(=O)N(c1onc(C)c1C)S(=O)(=O)c1ccc(N)cc1

>  <CID>
6662

>  <logBB>


>  <BBB+/BBB->
BBB-

>  <Inchi>
InChI=1S/C13H15N3O4S/c1-8-9(2)15-20-13(8)16(10(3)17)21(18-19)12-6-4-11(14)5-7-12/h4-7H-14H2-1-3H3

>  <threshold>


>  <reference>
R14|

>  <group>
C

>  <Class>
-1

>  <ABC>
16.14

>  <ABCGG>
15.02

>  <nAcid>
0

>  <nBase>
0

>  <nAromAtom>
11

>  <nAromBond>
11

>  <nAtom>
36

>  <nHeavyAtom>
21

>  <nSpiro>
0

>  <nBridgehead>
0

>  <nHetero>
8

>  <nN>
3

>  <nO>
4

>  <nF>
0

>  <BalabanJ>
2.16

>  <BertzCT>
778.25

>  <nBonds>
37

>  <nBondsO>
22

>  <nBondsS>
23

>  <nBondsD>
3

>  <nBondsT>
0

>  <nBondsA>
11

>  <nBondsM>
14

>  <nBondsKS>
29

>  <nBondsKD>
8

>  <RNCG>
0.21

>  <RPCG>
0.15

>  <FCSP3>
0.23

>  <SZ>
27

>  <Sm>
25.75

>  <Sv>
23.38

>  <Sse>
37.05

>  <Sp>
24.62

>  <Si>
40.74

>  <MZ>
0.75

>  <Mm>
0.72

>  <Mv>
0.65

>  <Mse>
1.03

>  <Mp>
0.68

>  <Mi>
1.13

>  <NsCH3>
3

>  <NdCH2>
0

>  <NssCH2>
0

>  <NtCH>
0

>  <NdsCH>
0

>  <NaaCH>
4

>  <NsssCH>
0

>  <NddC>
0

>  <NtsC>
0

>  <NdssC>
1

>  <NaasC>
5

>  <NaaaC>
0

>  <NssssC>
0

>  <NsNH3>
0

>  <NsNH2>
1

>  <NssNH2>
0

>  <NdNH>
0

>  <NssNH>
0

>  <NaaNH>
0

>  <NtN>
0

>  <NsssNH>
0

>  <NdsN>
0

>  <NaaN>
1

>  <NsssN>
1

>  <NddsN>
0

>  <NaasN>
0

>  <NssssN>
0

>  <NsOH>
0

>  <NdO>
3

>  <NssO>
0

>  <NaaO>
1

>  <NsF>
0

>  <NsSiH3>
0

>  <NssSiH2>
0

>  <NsssSiH>
0

>  <NssssSi>
0

>  <NsPH2>
0

>  <NssPH>
0

>  <NsssP>
0

>  <NdsssP>
0

>  <NsssssP>
0

>  <NsSH>
0

>  <NdS>
0

>  <NssS>
0

>  <NaaS>
0

>  <NdssS>
0

>  <NddssS>
1

>  <NsCl>
0

>  <NsBr>
0

>  <NsI>
0

>  <fragCpx>
64.08

>  <fMF>
0.36

>  <nHBAcc>
6

>  <nHBDon>
1

>  <Kier1>
17.36

>  <Kier2>
6.63

>  <Lipinski>
1

>  <GhoseFilter>
1

>  <FilterItLogS>
-3.15

>  <VMcGowan>
216.28

>  <LabuteASA>
121.94

>  <PEOE_VSA1>
10.26

>  <PEOE_VSA2>
4.79

>  <PEOE_VSA3>
8.42

>  <PEOE_VSA4>
4.31

>  <PEOE_VSA5>
0

>  <PEOE_VSA6>
5.16

>  <PEOE_VSA7>
38.11

>  <PEOE_VSA8>
18.17

>  <PEOE_VSA9>
10.59

>  <PEOE_VSA10>
0

>  <PEOE_VSA11>
0

>  <PEOE_VSA12>
5.91

>  <PEOE_VSA13>
15.91

>  <SMR_VSA1>
17.74

>  <SMR_VSA2>
0

>  <SMR_VSA3>
5.16

>  <SMR_VSA4>
0

>  <SMR_VSA5>
25.67

>  <SMR_VSA6>
10.04

>  <SMR_VSA7>
35.52

>  <SMR_VSA8>
0

>  <SMR_VSA9>
0

>  <SlogP_VSA1>
10.04

>  <SlogP_VSA2>
19.48

>  <SlogP_VSA3>
14.82

>  <SlogP_VSA4>
13.85

>  <SlogP_VSA5>
18.18

>  <SlogP_VSA6>
33.68

>  <SlogP_VSA7>
0

>  <SlogP_VSA8>
0

>  <SlogP_VSA9>
0

>  <SlogP_VSA10>
11.57

>  <SlogP_VSA11>
0

>  <EState_VSA1>
15.93

>  <EState_VSA2>
10.78

>  <EState_VSA3>
21.25

>  <EState_VSA4>
6.92

>  <EState_VSA5>
24.27

>  <EState_VSA6>
13.85

>  <EState_VSA7>
0

>  <EState_VSA8>
5.16

>  <EState_VSA9>
10.26

>  <EState_VSA10>
13.21

>  <VSA_EState1>
30.85

>  <VSA_EState2>
11.77

>  <VSA_EState3>
3.69

>  <VSA_EState4>
6.97

>  <VSA_EState5>
-0.79

>  <VSA_EState6>
5.56

>  <VSA_EState7>
0

>  <VSA_EState8>
4.44

>  <VSA_EState9>
-4.08

>  <apol>
41.12

>  <bpol>
25.45

>  <nRing>
2

>  <nHRing>
1

>  <naRing>
2

>  <naHRing>
1

>  <nARing 2>
0

>  <nAHRing 2>
0

>  <nFRing>
0

>  <nFHRing>
0

>  <nFaRing>
0

>  <nFaHRing>
0

>  <nFARing 2>
0

>  <nFAHRing 2>
0

>  <nRot>
3

>  <SLogP>
1.62

>  <SMR>
77.18

>  <TopoPSA(NO)>
106.5

>  <TopoPSA>
114.88

>  <JGI1>
0.27

>  <JGI2>
0.12

>  <JGI3>
0.08

>  <JGI4>
0.05

>  <JGI5>
0.04

>  <Diameter>
10

>  <Radius>
5

>  <TMWC10>
117.64

>  <TSRW10>
69.1

>  <MW>
309.08

>  <AMW>
8.59

>  <WPath>
858

>  <WPol>
35

>  <Zagreb1>
110

>  <Zagreb2>
131

>  <mZagreb2>
4.53

>  <yes>


>  <nAR-cont>
0.336376

>  <nHA-cont>
0.994529749

>  <MWHBN>
0.398164548

>  <MWHBN-cont>
0.483287327

>  <TPSA-cont>
0.198066264

>  <pka_cont>
0.97

>  <yes.1>


>  <BBB_SCORE>
2.936969268

>  <MMFF94 Energy>
-55.199

$$$$
Compound 2387
Actelion Java MolfileCreator 2.0

  0  0  0  0  0  0              0 V3000
M  V30 BEGIN CTAB
M  V30 COUNTS 28 28 0 0 0
M  V30 BEGIN ATOM
M  V30 1 S -1.1009 6.9361 -1.1009 0
M  V30 2 C -0.8914 5.4724 -0.3502 0
M  V30 3 N -0.6612 4.3193 -1.0478 0
M  V30 4 N -0.9374 5.3418 0.9955 0
M  V30 5 N -0.4913 3.1229 -0.4075 0
M  V30 6 C -0.2811 2.1153 -1.1948 0
M  V30 7 C -0.0764 0.7489 -0.6756 0
M  V30 8 C 0.1449 -0.2904 -1.5796 0
M  V30 9 C -0.1015 0.4875 0.6948 0
M  V30 10 C 0.3417 -1.595 -1.1105 0
M  V30 11 C 0.0957 -0.8174 1.1573 0
M  V30 12 C 0.319 -1.87 0.2591 0
M  V30 13 N 0.5083 -3.1545 0.8081 0
M  V30 14 C 0.7442 -4.3357 0.1267 0
M  V30 15 O 0.8329 -4.4843 -1.0861 0
M  V30 16 C 0.8937 -5.5059 1.0663 0
M  V30 17 H -0.6195 4.3758 -2.0607 0
M  V30 18 H -1.1016 6.1313 1.6019 0
M  V30 19 H -0.7991 4.4116 1.3702 0
M  V30 20 H -0.246 2.2358 -2.2932 0
M  V30 21 H 0.1681 -0.1079 -2.6509 0
M  V30 22 H -0.2733 1.2903 1.4078 0
M  V30 23 H 0.5108 -2.3762 -1.8458 0
M  V30 24 H 0.0714 -0.9944 2.2297 0
M  V30 25 H 0.4666 -3.2167 1.8179 0
M  V30 26 H 1.7383 -5.3352 1.74 0
M  V30 27 H 1.076 -6.4194 0.4936 0
M  V30 28 H -0.0216 -5.6312 1.6516 0
M  V30 END ATOM
M  V30 BEGIN BOND
M  V30 1 2 1 2
M  V30 2 1 2 3
M  V30 3 1 2 4
M  V30 4 1 3 5
M  V30 5 2 5 6
M  V30 6 1 6 7
M  V30 7 2 7 8
M  V30 8 1 7 9
M  V30 9 1 8 10
M  V30 10 2 9 11
M  V30 11 2 10 12
M  V30 12 1 12 13
M  V30 13 1 13 14
M  V30 14 2 14 15
M  V30 15 1 14 16
M  V30 16 1 11 12
M  V30 17 1 3 17
M  V30 18 1 4 18
M  V30 19 1 4 19
M  V30 20 1 6 20
M  V30 21 1 8 21
M  V30 22 1 9 22
M  V30 23 1 10 23
M  V30 24 1 11 24
M  V30 25 1 13 25
M  V30 26 1 16 26
M  V30 27 1 16 27
M  V30 28 1 16 28
M  V30 END BOND
M  V30 END CTAB
M  END
>  <Column 1>
2938

>  <level_0>
5078

>  <index>
5079

>  <Unnamed: 0>
5079

>  <NO.>
5091

>  <Name>
thiacetazone

>  <IUPAC_name>
n-[4-[(carbamothioylhydrazinylidene)methyl]phenyl]acetamide

>  <SMILES>
CC(=O)Nc1ccc(C=NNC(N)=S)cc1

>  <CID>
2733749

>  <logBB>


>  <BBB+/BBB->
BBB-

>  <Inchi>
InChI=1S/C10H12N4OS/c1-7(15)13-9-4-2-8(3-5-9)6-12-14-10(11)16/h2-6H-1H3-(H-13-15)(H3-11-14-16)

>  <threshold>


>  <reference>
R14|

>  <group>
C

>  <Class>
-1

>  <ABC>
11.75

>  <ABCGG>
9.96

>  <nAcid>
0

>  <nBase>
0

>  <nAromAtom>
6

>  <nAromBond>
6

>  <nAtom>
28

>  <nHeavyAtom>
16

>  <nSpiro>
0

>  <nBridgehead>
0

>  <nHetero>
6

>  <nN>
4

>  <nO>
1

>  <nF>
0

>  <BalabanJ>
2.07

>  <BertzCT>
413.33

>  <nBonds>
28

>  <nBondsO>
16

>  <nBondsS>
19

>  <nBondsD>
3

>  <nBondsT>
0

>  <nBondsA>
6

>  <nBondsM>
9

>  <nBondsKS>
22

>  <nBondsKD>
6

>  <RNCG>
0.23

>  <RPCG>
0.14

>  <FCSP3>
0.1

>  <SZ>
20.67

>  <Sm>
19.67

>  <Sv>
18.18

>  <Sse>
28.39

>  <Sp>
19.64

>  <Si>
31.78

>  <MZ>
0.74

>  <Mm>
0.7

>  <Mv>
0.65

>  <Mse>
1.01

>  <Mp>
0.7

>  <Mi>
1.14

>  <NsCH3>
1

>  <NdCH2>
0

>  <NssCH2>
0

>  <NtCH>
0

>  <NdsCH>
1

>  <NaaCH>
4

>  <NsssCH>
0

>  <NddC>
0

>  <NtsC>
0

>  <NdssC>
2

>  <NaasC>
2

>  <NaaaC>
0

>  <NssssC>
0

>  <NsNH3>
0

>  <NsNH2>
1

>  <NssNH2>
0

>  <NdNH>
0

>  <NssNH>
2

>  <NaaNH>
0

>  <NtN>
0

>  <NsssNH>
0

>  <NdsN>
1

>  <NaaN>
0

>  <NsssN>
0

>  <NddsN>
0

>  <NaasN>
0

>  <NssssN>
0

>  <NsOH>
0

>  <NdO>
1

>  <NssO>
0

>  <NaaO>
0

>  <NsF>
0

>  <NsSiH3>
0

>  <NssSiH2>
0

>  <NsssSiH>
0

>  <NssssSi>
0

>  <NsPH2>
0

>  <NssPH>
0

>  <NsssP>
0

>  <NdsssP>
0

>  <NsssssP>
0

>  <NsSH>
0

>  <NdS>
1

>  <NssS>
0

>  <NaaS>
0

>  <NdssS>
0

>  <NddssS>
0

>  <NsCl>
0

>  <NsBr>
0

>  <NsI>
0

>  <fragCpx>
16.06

>  <fMF>
0.21

>  <nHBAcc>
3

>  <nHBDon>
3

>  <Kier1>
14.06

>  <Kier2>
7.35

>  <Lipinski>
1

>  <GhoseFilter>
1

>  <FilterItLogS>
-2.12

>  <VMcGowan>
177.24

>  <LabuteASA>
98.72

>  <PEOE_VSA1>
11.05

>  <PEOE_VSA2>
10.22

>  <PEOE_VSA3>
0

>  <PEOE_VSA4>
5.1

>  <PEOE_VSA5>
0

>  <PEOE_VSA6>
12.13

>  <PEOE_VSA7>
29.91

>  <PEOE_VSA8>
12.61

>  <PEOE_VSA9>
6.21

>  <PEOE_VSA10>
0

>  <PEOE_VSA11>
5.11

>  <PEOE_VSA12>
5.91

>  <PEOE_VSA13>
0

>  <SMR_VSA1>
4.79

>  <SMR_VSA2>
0

>  <SMR_VSA3>
5.43

>  <SMR_VSA4>
10.84

>  <SMR_VSA5>
6.92

>  <SMR_VSA6>
5.32

>  <SMR_VSA7>
29.83

>  <SMR_VSA8>
0

>  <SMR_VSA9>
0

>  <SlogP_VSA1>
16.48

>  <SlogP_VSA2>
17.23

>  <SlogP_VSA3>
4.79

>  <SlogP_VSA4>
0

>  <SlogP_VSA5>
12.49

>  <SlogP_VSA6>
29.37

>  <SlogP_VSA7>
0

>  <SlogP_VSA8>
0

>  <SlogP_VSA9>
0

>  <SlogP_VSA10>
5.69

>  <SlogP_VSA11>
0

>  <EState_VSA1>
0

>  <EState_VSA2>
11.02

>  <EState_VSA3>
0

>  <EState_VSA4>
11.25

>  <EState_VSA5>
6.92

>  <EState_VSA6>
18.35

>  <EState_VSA7>
12.13

>  <EState_VSA8>
28.06

>  <EState_VSA9>
5.73

>  <EState_VSA10>
4.79

>  <VSA_EState1>
0

>  <VSA_EState2>
10.77

>  <VSA_EState3>
6.59

>  <VSA_EState4>
9.26

>  <VSA_EState5>
-0.1

>  <VSA_EState6>
7.19

>  <VSA_EState7>
1.58

>  <VSA_EState8>
1.46

>  <VSA_EState9>
0

>  <apol>
32.8

>  <bpol>
14.71

>  <nRing>
1

>  <nHRing>
0

>  <naRing>
1

>  <naHRing>
0

>  <nARing 2>
0

>  <nAHRing 2>
0

>  <nFRing>
0

>  <nFHRing>
0

>  <nFaRing>
0

>  <nFaHRing>
0

>  <nFARing 2>
0

>  <nFAHRing 2>
0

>  <nRot>
3

>  <SLogP>
0.81

>  <SMR>
68.26

>  <TopoPSA(NO)>
79.51

>  <TopoPSA>
111.6

>  <JGI1>
0.25

>  <JGI2>
0.06

>  <JGI3>
0.04

>  <JGI4>
0.04

>  <JGI5>
0.03

>  <Diameter>
11

>  <Radius>
6

>  <TMWC10>
98.77

>  <TSRW10>
47.01

>  <MW>
236.07

>  <AMW>
8.43

>  <WPath>
538

>  <WPol>
17

>  <Zagreb1>
72

>  <Zagreb2>
76

>  <mZagreb2>
3.67

>  <yes>


>  <nAR-cont>
0.336376

>  <nHA-cont>
0.954961865

>  <MWHBN>
0.390508823

>  <MWHBN-cont>
0.513457796

>  <TPSA-cont>
0.220962701

>  <pka_cont>
0.97

>  <yes.1>


>  <BBB_SCORE>
2.98844996

>  <MMFF94 Energy>
-16.884

$$$$
Compound 2388
Actelion Java MolfileCreator 2.0

  0  0  0  0  0  0              0 V3000
M  V30 BEGIN CTAB
M  V30 COUNTS 60 63 0 0 0
M  V30 BEGIN ATOM
M  V30 1 F -0.4046 2.5109 0.0809 0
M  V30 2 C 0.703 1.7291 -0.1854 0
M  V30 3 C 1.9079 2.727 -0.4679 0
M  V30 4 C 0.3074 0.7768 -1.3717 0
M  V30 5 C 0.9401 0.8747 1.1153 0
M  V30 6 C 2.2425 3.4866 0.8349 0
M  V30 7 C 1.5988 3.7215 -1.5877 0
M  V30 8 C 3.1731 1.9635 -0.9245 0
M  V30 9 O -0.04 1.4881 -2.561 0
M  V30 10 C -0.8784 -0.1503 -1.0229 0
M  V30 11 C -0.3028 0.0105 1.3858 0
M  V30 12 C 1.2561 1.7652 2.3261 0
M  V30 13 C 2.287 4.8282 0.9319 0
M  V30 14 C 2.4676 2.6489 2.065 0
M  V30 15 C 1.641 5.0566 -1.4859 0
M  V30 16 C -0.6162 -0.9825 0.2405 0
M  V30 17 C -0.3371 -0.8633 2.6419 0
M  V30 18 C 2.0097 5.7084 -0.2191 0
M  V30 19 C -1.8474 -1.7102 0.8552 0
M  V30 20 C 0.539 -1.9862 -0.0269 0
M  V30 21 C -1.4273 -1.9166 2.3464 0
M  V30 22 O 2.0876 6.9267 -0.1231 0
M  V30 23 O -2.997 -0.8497 0.8382 0
M  V30 24 C -2.2052 -3.0437 0.1792 0
M  V30 25 O -2.5689 -1.6979 3.1861 0
M  V30 26 O -1.6523 -4.1036 0.4891 0
M  V30 27 C -3.2702 -2.9858 -0.9164 0
M  V30 28 O -3.2989 -4.1652 -1.7218 0
M  V30 29 C -2.2733 -4.2539 -2.6117 0
M  V30 30 O -1.423 -3.3935 -2.7974 0
M  V30 31 C -2.3404 -5.5559 -3.3482 0
M  V30 32 H 1.1728 0.1624 -1.6371 0
M  V30 33 H 1.8062 0.2214 0.9652 0
M  V30 34 H 1.3432 3.3158 -2.5628 0
M  V30 35 H 3.4551 1.1643 -0.2323 0
M  V30 36 H 3.0358 1.5036 -1.9101 0
M  V30 37 H 4.0364 2.6367 -1.0057 0
M  V30 38 H -0.4197 0.8547 -3.1952 0
M  V30 39 H -1.089 -0.8081 -1.8745 0
M  V30 40 H -1.7782 0.4685 -0.9111 0
M  V30 41 H -1.1473 0.7111 1.4872 0
M  V30 42 H 0.3868 2.3885 2.574 0
M  V30 43 H 1.4629 1.1459 3.2067 0
M  V30 44 H 2.5088 5.3449 1.8589 0
M  V30 45 H 2.6461 3.2737 2.9489 0
M  V30 46 H 3.3667 2.035 1.9386 0
M  V30 47 H 1.418 5.7099 -2.3203 0
M  V30 48 H -0.5574 -0.2744 3.5384 0
M  V30 49 H 0.6306 -1.3558 2.7898 0
M  V30 50 H 1.4859 -1.4967 -0.2664 0
M  V30 51 H 0.7351 -2.6406 0.8281 0
M  V30 52 H 0.3012 -2.6313 -0.879 0
M  V30 53 H -1.0409 -2.9193 2.5555 0
M  V30 54 H -3.3982 -0.9444 1.7319 0
M  V30 55 H -2.2802 -1.855 4.1044 0
M  V30 56 H -4.2465 -2.9041 -0.4278 0
M  V30 57 H -3.1329 -2.1009 -1.5463 0
M  V30 58 H -2.2802 -6.3859 -2.6397 0
M  V30 59 H -3.2671 -5.6079 -3.9251 0
M  V30 60 H -1.4941 -5.626 -4.0374 0
M  V30 END ATOM
M  V30 BEGIN BOND
M  V30 1 1 1 2
M  V30 2 1 2 3
M  V30 3 1 2 4
M  V30 4 1 2 5
M  V30 5 1 3 6
M  V30 6 1 3 7
M  V30 7 1 3 8
M  V30 8 1 4 9
M  V30 9 1 4 10
M  V30 10 1 5 11
M  V30 11 1 5 12
M  V30 12 2 6 13
M  V30 13 1 6 14
M  V30 14 2 7 15
M  V30 15 1 10 16
M  V30 16 1 11 17
M  V30 17 1 13 18
M  V30 18 1 16 19
M  V30 19 1 16 20
M  V30 20 1 17 21
M  V30 21 2 18 22
M  V30 22 1 19 23
M  V30 23 1 19 24
M  V30 24 1 21 25
M  V30 25 2 24 26
M  V30 26 1 24 27
M  V30 27 1 27 28
M  V30 28 1 28 29
M  V30 29 2 29 30
M  V30 30 1 29 31
M  V30 31 1 11 16
M  V30 32 1 12 14
M  V30 33 1 15 18
M  V30 34 1 19 21
M  V30 35 1 4 32
M  V30 36 1 5 33
M  V30 37 1 7 34
M  V30 38 1 8 35
M  V30 39 1 8 36
M  V30 40 1 8 37
M  V30 41 1 9 38
M  V30 42 1 10 39
M  V30 43 1 10 40
M  V30 44 1 11 41
M  V30 45 1 12 42
M  V30 46 1 12 43
M  V30 47 1 13 44
M  V30 48 1 14 45
M  V30 49 1 14 46
M  V30 50 1 15 47
M  V30 51 1 17 48
M  V30 52 1 17 49
M  V30 53 1 20 50
M  V30 54 1 20 51
M  V30 55 1 20 52
M  V30 56 1 21 53
M  V30 57 1 23 54
M  V30 58 1 25 55
M  V30 59 1 27 56
M  V30 60 1 27 57
M  V30 61 1 31 58
M  V30 62 1 31 59
M  V30 63 1 31 60
M  V30 END BOND
M  V30 END CTAB
M  END
>  <Column 1>
2939

>  <level_0>
5079

>  <index>
5080

>  <Unnamed: 0>
5080

>  <NO.>
5092

>  <Name>
ctk8i5337

>  <IUPAC_name>
[2-(9-fluoro-11-16-17-trihydroxy-10-13-dimethyl-3-oxo-6-7-8-11-12-14-15-16-octahydrocyclopenta[a]phenanthren-17-yl)-2-oxoethyl] acetate

>  <SMILES>
CC(=O)OCC(=O)C1(O)C(O)CC2C3CCC4=CC(=O)C=CC4(C)C3(F)C(O)CC21C

>  <CID>
13756003

>  <logBB>


>  <BBB+/BBB->
BBB-

>  <Inchi>
InChI=1S/C23H29FO7/c1-12(25)31-11-19(29)23(30)17(27)9-16-15-5-4-13-8-14(26)6-7-20(13-2)22(15-24)18(28)10-21(16-23)3/h6-8-15-18-27-28-30H-4-5-9-11H2-1-3H3

>  <threshold>


>  <reference>
R14|

>  <group>
C

>  <Class>
-1

>  <ABC>
24.73

>  <ABCGG>
20.39

>  <nAcid>
0

>  <nBase>
0

>  <nAromAtom>
0

>  <nAromBond>
0

>  <nAtom>
60

>  <nHeavyAtom>
31

>  <nSpiro>
0

>  <nBridgehead>
0

>  <nHetero>
8

>  <nN>
0

>  <nO>
7

>  <nF>
1

>  <BalabanJ>
1.7

>  <BertzCT>
911.6

>  <nBonds>
63

>  <nBondsO>
34

>  <nBondsS>
58

>  <nBondsD>
5

>  <nBondsT>
0

>  <nBondsA>
0

>  <nBondsM>
5

>  <nBondsKS>
58

>  <nBondsKD>
5

>  <RNCG>
0.15

>  <RPCG>
0.1

>  <FCSP3>
0.7

>  <SZ>
38.67

>  <Sm>
36.34

>  <Sv>
36.51

>  <Sse>
61.14

>  <Sp>
38.27

>  <Si>
68.03

>  <MZ>
0.64

>  <Mm>
0.61

>  <Mv>
0.61

>  <Mse>
1.02

>  <Mp>
0.64

>  <Mi>
1.13

>  <NsCH3>
3

>  <NdCH2>
0

>  <NssCH2>
5

>  <NtCH>
0

>  <NdsCH>
3

>  <NaaCH>
0

>  <NsssCH>
4

>  <NddC>
0

>  <NtsC>
0

>  <NdssC>
4

>  <NaasC>
0

>  <NaaaC>
0

>  <NssssC>
4

>  <NsNH3>
0

>  <NsNH2>
0

>  <NssNH2>
0

>  <NdNH>
0

>  <NssNH>
0

>  <NaaNH>
0

>  <NtN>
0

>  <NsssNH>
0

>  <NdsN>
0

>  <NaaN>
0

>  <NsssN>
0

>  <NddsN>
0

>  <NaasN>
0

>  <NssssN>
0

>  <NsOH>
3

>  <NdO>
3

>  <NssO>
1

>  <NaaO>
0

>  <NsF>
1

>  <NsSiH3>
0

>  <NssSiH2>
0

>  <NsssSiH>
0

>  <NssssSi>
0

>  <NsPH2>
0

>  <NssPH>
0

>  <NsssP>
0

>  <NdsssP>
0

>  <NsssssP>
0

>  <NsSH>
0

>  <NdS>
0

>  <NssS>
0

>  <NaaS>
0

>  <NdssS>
0

>  <NddssS>
0

>  <NsCl>
0

>  <NsBr>
0

>  <NsI>
0

>  <fragCpx>
226.08

>  <fMF>
0.28

>  <nHBAcc>
7

>  <nHBDon>
3

>  <Kier1>
24.13

>  <Kier2>
7.77

>  <Lipinski>
1

>  <GhoseFilter>
1

>  <FilterItLogS>
-2.45

>  <VMcGowan>
312.84

>  <LabuteASA>
179.51

>  <PEOE_VSA1>
20.06

>  <PEOE_VSA2>
14.38

>  <PEOE_VSA3>
4.39

>  <PEOE_VSA4>
0

>  <PEOE_VSA5>
0

>  <PEOE_VSA6>
18.57

>  <PEOE_VSA7>
50.68

>  <PEOE_VSA8>
23.67

>  <PEOE_VSA9>
12.21

>  <PEOE_VSA10>
0

>  <PEOE_VSA11>
23.66

>  <PEOE_VSA12>
5.78

>  <PEOE_VSA13>
0

>  <SMR_VSA1>
38.83

>  <SMR_VSA2>
0

>  <SMR_VSA3>
0

>  <SMR_VSA4>
22.67

>  <SMR_VSA5>
69.93

>  <SMR_VSA6>
6.61

>  <SMR_VSA7>
23.8

>  <SMR_VSA8>
0

>  <SMR_VSA9>
0

>  <SlogP_VSA1>
0

>  <SlogP_VSA2>
62.94

>  <SlogP_VSA3>
19.12

>  <SlogP_VSA4>
22.67

>  <SlogP_VSA5>
46.45

>  <SlogP_VSA6>
23.8

>  <SlogP_VSA7>
0

>  <SlogP_VSA8>
0

>  <SlogP_VSA9>
0

>  <SlogP_VSA10>
4.39

>  <SlogP_VSA11>
0

>  <EState_VSA1>
64.5

>  <EState_VSA2>
18.62

>  <EState_VSA3>
18.41

>  <EState_VSA4>
6.92

>  <EState_VSA5>
18.23

>  <EState_VSA6>
13.85

>  <EState_VSA7>
0

>  <EState_VSA8>
0

>  <EState_VSA9>
4.74

>  <EState_VSA10>
29.7

>  <VSA_EState1>
21.69

>  <VSA_EState2>
35.9

>  <VSA_EState3>
33.36

>  <VSA_EState4>
-6.28

>  <VSA_EState5>
-3.11

>  <VSA_EState6>
0

>  <VSA_EState7>
1.74

>  <VSA_EState8>
3.69

>  <VSA_EState9>
0

>  <apol>
63.92

>  <bpol>
34.55

>  <nRing>
4

>  <nHRing>
0

>  <naRing>
0

>  <naHRing>
0

>  <nARing 2>
4

>  <nAHRing 2>
0

>  <nFRing>
1

>  <nFHRing>
0

>  <nFaRing>
0

>  <nFaHRing>
0

>  <nFARing 2>
1

>  <nFAHRing 2>
0

>  <nRot>
3

>  <SLogP>
1.19

>  <SMR>
106.33

>  <TopoPSA(NO)>
121.13

>  <TopoPSA>
121.13

>  <JGI1>
0.32

>  <JGI2>
0.16

>  <JGI3>
0.08

>  <JGI4>
0.06

>  <JGI5>
0.04

>  <Diameter>
14

>  <Radius>
7

>  <TMWC10>
147.07

>  <TSRW10>
83.36

>  <MW>
436.19

>  <AMW>
7.27

>  <WPath>
2333

>  <WPol>
73

>  <Zagreb1>
182

>  <Zagreb2>
235

>  <mZagreb2>
6.4

>  <yes>


>  <nAR-cont>
0.199399

>  <nHA-cont>
0.702745138

>  <MWHBN>
0.478808826

>  <MWHBN-cont>
0

>  <TPSA-cont>
0

>  <pka_cont>
0.97

>  <yes.1>


>  <BBB_SCORE>
1.387144138

>  <MMFF94 Energy>
157.95

$$$$
Compound 2389
Actelion Java MolfileCreator 2.0

  0  0  0  0  0  0              0 V3000
M  V30 BEGIN CTAB
M  V30 COUNTS 33 34 0 0 0
M  V30 BEGIN ATOM
M  V30 1 O -0.9546 -3.1051 -1.273 0
M  V30 2 C -0.4339 -2.553 -2.2322 0
M  V30 3 O 0.0148 -1.2395 -2.3046 0
M  V30 4 C -0.184 -3.2173 -3.5532 0
M  V30 5 C -0.1606 -0.5258 -1.1052 0
M  V30 6 C 0.9172 -0.462 -0.1847 0
M  V30 7 C -1.3783 0.1469 -0.9017 0
M  V30 8 C 0.7384 0.2757 1.0079 0
M  V30 9 C 2.1575 -1.1024 -0.4037 0
M  V30 10 C -1.5454 0.858 0.2864 0
M  V30 11 C -2.4985 0.0758 -1.8968 0
M  V30 12 C -0.4961 0.9309 1.2086 0
M  V30 13 C 1.7942 0.3303 1.9441 0
M  V30 14 C 3.1901 -1.0304 0.532 0
M  V30 15 O -0.7202 1.6306 2.4057 0
M  V30 16 C 3.0072 -0.3162 1.7082 0
M  V30 17 C -0.6369 3.0109 2.2682 0
M  V30 18 O -0.4098 3.6396 1.2438 0
M  V30 19 C -0.8768 3.6411 3.6079 0
M  V30 20 H -0.7453 -2.7039 -4.3378 0
M  V30 21 H 0.8858 -3.2092 -3.7753 0
M  V30 22 H -0.5214 -4.2565 -3.5054 0
M  V30 23 H 2.3297 -1.6687 -1.3156 0
M  V30 24 H -2.4818 1.3676 0.4964 0
M  V30 25 H -2.122 0.2088 -2.9161 0
M  V30 26 H -3.0085 -0.8893 -1.8225 0
M  V30 27 H -3.2354 0.8672 -1.7221 0
M  V30 28 H 1.6768 0.8844 2.8725 0
M  V30 29 H 4.1337 -1.5342 0.3405 0
M  V30 30 H 3.8063 -0.2588 2.4422 0
M  V30 31 H -1.8776 3.3846 3.9643 0
M  V30 32 H -0.1165 3.3046 4.3171 0
M  V30 33 H -0.8082 4.7286 3.514 0
M  V30 END ATOM
M  V30 BEGIN BOND
M  V30 1 2 1 2
M  V30 2 1 2 3
M  V30 3 1 2 4
M  V30 4 1 3 5
M  V30 5 1 5 6
M  V30 6 2 5 7
M  V30 7 1 6 8
M  V30 8 2 6 9
M  V30 9 1 7 10
M  V30 10 1 7 11
M  V30 11 1 8 12
M  V30 12 2 8 13
M  V30 13 1 9 14
M  V30 14 1 12 15
M  V30 15 1 13 16
M  V30 16 1 15 17
M  V30 17 2 17 18
M  V30 18 1 17 19
M  V30 19 2 10 12
M  V30 20 2 14 16
M  V30 21 1 4 20
M  V30 22 1 4 21
M  V30 23 1 4 22
M  V30 24 1 9 23
M  V30 25 1 10 24
M  V30 26 1 11 25
M  V30 27 1 11 26
M  V30 28 1 11 27
M  V30 29 1 13 28
M  V30 30 1 14 29
M  V30 31 1 16 30
M  V30 32 1 19 31
M  V30 33 1 19 32
M  V30 34 1 19 33
M  V30 END BOND
M  V30 END CTAB
M  END
>  <Column 1>
2942

>  <level_0>
5082

>  <index>
5083

>  <Unnamed: 0>
5083

>  <NO.>
5095

>  <Name>
menadiol sodium diphosphate

>  <IUPAC_name>
(4-acetyloxy-3-methylnaphthalen-1-yl) acetate

>  <SMILES>
CC(=O)Oc1cc(C)c(OC(C)=O)c2ccccc12

>  <CID>
11310

>  <logBB>


>  <BBB+/BBB->
BBB-

>  <Inchi>
InChI=1S/C15H14O4/c1-9-8-14(18-10(2)16)12-6-4-5-7-13(12)15(9)19-11(3)17/h4-8H-1-3H3

>  <threshold>


>  <reference>
R14|

>  <group>
C

>  <Class>
-1

>  <ABC>
14.53

>  <ABCGG>
12.56

>  <nAcid>
0

>  <nBase>
0

>  <nAromAtom>
10

>  <nAromBond>
11

>  <nAtom>
33

>  <nHeavyAtom>
19

>  <nSpiro>
0

>  <nBridgehead>
0

>  <nHetero>
4

>  <nN>
0

>  <nO>
4

>  <nF>
0

>  <BalabanJ>
2.09

>  <BertzCT>
658.49

>  <nBonds>
34

>  <nBondsO>
20

>  <nBondsS>
21

>  <nBondsD>
2

>  <nBondsT>
0

>  <nBondsA>
11

>  <nBondsM>
13

>  <nBondsKS>
27

>  <nBondsKD>
7

>  <RNCG>
0.26

>  <RPCG>
0.19

>  <FCSP3>
0.2

>  <SZ>
22.67

>  <Sm>
21.5

>  <Sv>
21.65

>  <Sse>
33.54

>  <Sp>
22.51

>  <Si>
36.74

>  <MZ>
0.69

>  <Mm>
0.65

>  <Mv>
0.66

>  <Mse>
1.02

>  <Mp>
0.68

>  <Mi>
1.11

>  <NsCH3>
3

>  <NdCH2>
0

>  <NssCH2>
0

>  <NtCH>
0

>  <NdsCH>
0

>  <NaaCH>
5

>  <NsssCH>
0

>  <NddC>
0

>  <NtsC>
0

>  <NdssC>
2

>  <NaasC>
3

>  <NaaaC>
2

>  <NssssC>
0

>  <NsNH3>
0

>  <NsNH2>
0

>  <NssNH2>
0

>  <NdNH>
0

>  <NssNH>
0

>  <NaaNH>
0

>  <NtN>
0

>  <NsssNH>
0

>  <NdsN>
0

>  <NaaN>
0

>  <NsssN>
0

>  <NddsN>
0

>  <NaasN>
0

>  <NssssN>
0

>  <NsOH>
0

>  <NdO>
2

>  <NssO>
2

>  <NaaO>
0

>  <NsF>
0

>  <NsSiH3>
0

>  <NssSiH2>
0

>  <NsssSiH>
0

>  <NssssSi>
0

>  <NsPH2>
0

>  <NssPH>
0

>  <NsssP>
0

>  <NdsssP>
0

>  <NsssssP>
0

>  <NsSH>
0

>  <NdS>
0

>  <NssS>
0

>  <NaaS>
0

>  <NdssS>
0

>  <NddssS>
0

>  <NsCl>
0

>  <NsBr>
0

>  <NsI>
0

>  <fragCpx>
58.04

>  <fMF>
0.3

>  <nHBAcc>
4

>  <nHBDon>
0

>  <Kier1>
15.39

>  <Kier2>
6.64

>  <Lipinski>
1

>  <GhoseFilter>
1

>  <FilterItLogS>
-3.86

>  <VMcGowan>
193.87

>  <LabuteASA>
110.49

>  <PEOE_VSA1>
9.47

>  <PEOE_VSA2>
9.59

>  <PEOE_VSA3>
0

>  <PEOE_VSA4>
0

>  <PEOE_VSA5>
0

>  <PEOE_VSA6>
24.27

>  <PEOE_VSA7>
18.55

>  <PEOE_VSA8>
24.62

>  <PEOE_VSA9>
0

>  <PEOE_VSA10>
11.5

>  <PEOE_VSA11>
0

>  <PEOE_VSA12>
0

>  <PEOE_VSA13>
0

>  <SMR_VSA1>
19.06

>  <SMR_VSA2>
0

>  <SMR_VSA3>
0

>  <SMR_VSA4>
0

>  <SMR_VSA5>
20.77

>  <SMR_VSA6>
0

>  <SMR_VSA7>
35.9

>  <SMR_VSA8>
0

>  <SMR_VSA9>
11.5

>  <SlogP_VSA1>
9.47

>  <SlogP_VSA2>
11.94

>  <SlogP_VSA3>
9.59

>  <SlogP_VSA4>
6.92

>  <SlogP_VSA5>
19.41

>  <SlogP_VSA6>
30.33

>  <SlogP_VSA7>
0

>  <SlogP_VSA8>
10.77

>  <SlogP_VSA9>
0

>  <SlogP_VSA10>
0

>  <SlogP_VSA11>
11.5

>  <EState_VSA1>
0

>  <EState_VSA2>
11.94

>  <EState_VSA3>
11.5

>  <EState_VSA4>
16.34

>  <EState_VSA5>
13.85

>  <EState_VSA6>
12.99

>  <EState_VSA7>
24.27

>  <EState_VSA8>
0

>  <EState_VSA9>
9.47

>  <EState_VSA10>
9.59

>  <VSA_EState1>
10.43

>  <VSA_EState2>
22.29

>  <VSA_EState3>
1.48

>  <VSA_EState4>
0.74

>  <VSA_EState5>
0.2

>  <VSA_EState6>
9.02

>  <VSA_EState7>
0

>  <VSA_EState8>
4.51

>  <VSA_EState9>
0

>  <apol>
37.59

>  <bpol>
19.25

>  <nRing>
2

>  <nHRing>
0

>  <naRing>
2

>  <naHRing>
0

>  <nARing 2>
0

>  <nAHRing 2>
0

>  <nFRing>
1

>  <nFHRing>
0

>  <nFaRing>
1

>  <nFaHRing>
0

>  <nFARing 2>
0

>  <nFAHRing 2>
0

>  <nRot>
2

>  <SLogP>
3

>  <SMR>
71.3

>  <TopoPSA(NO)>
52.6

>  <TopoPSA>
52.6

>  <JGI1>
0.23

>  <JGI2>
0.07

>  <JGI3>
0.05

>  <JGI4>
0.05

>  <JGI5>
0.03

>  <Diameter>
9

>  <Radius>
5

>  <TMWC10>
111.75

>  <TSRW10>
52.32

>  <MW>
258.09

>  <AMW>
7.82

>  <WPath>
668

>  <WPol>
29

>  <Zagreb1>
96

>  <Zagreb2>
111

>  <mZagreb2>
4.19

>  <yes>


>  <nAR-cont>
0.336376

>  <nHA-cont>
0.998649058

>  <MWHBN>
0.248985699

>  <MWHBN-cont>
0.96146594

>  <TPSA-cont>
0.632819337

>  <pka_cont>
0.97

>  <yes.1>


>  <BBB_SCORE>
4.527862642

>  <MMFF94 Energy>
59.245

$$$$
Compound 2390
Actelion Java MolfileCreator 2.0

  0  0  0  0  0  0              0 V3000
M  V30 BEGIN CTAB
M  V30 COUNTS 46 48 0 0 0
M  V30 BEGIN ATOM
M  V30 1 O 1.1195 -1.6796 5.7677 0
M  V30 2 C 2.2856 -1.6594 5.3985 0
M  V30 3 O 2.7584 -1.4023 4.1162 0
M  V30 4 C 3.4581 -1.9218 6.2967 0
M  V30 5 C 1.7718 -1.1301 3.1628 0
M  V30 6 C 0.9953 0.0225 3.2417 0
M  V30 7 C 1.6575 -2.0002 2.0831 0
M  V30 8 C 0.0572 0.2836 2.2416 0
M  V30 9 C 0.7196 -1.7343 1.0836 0
M  V30 10 C -0.1055 -0.5973 1.1543 0
M  V30 11 C -1.1424 -0.2666 0.0726 0
M  V30 12 C -1.8084 -1.4961 -0.5655 0
M  V30 13 C -0.6337 0.7692 -0.9362 0
M  V30 14 N -1.2374 -2.0645 -1.662 0
M  V30 15 C -2.953 -2.0385 0.0257 0
M  V30 16 C 0.5192 0.5408 -1.7078 0
M  V30 17 C -1.3227 1.9854 -1.103 0
M  V30 18 C -1.8346 -3.1542 -2.1916 0
M  V30 19 C -3.5411 -3.1682 -0.5377 0
M  V30 20 C 0.9714 1.497 -2.6186 0
M  V30 21 C -0.8708 2.9465 -2.0104 0
M  V30 22 C -2.9758 -3.7366 -1.6709 0
M  V30 23 C 0.2634 2.6855 -2.7742 0
M  V30 24 O 0.7979 3.6303 -3.6633 0
M  V30 25 C -0.0546 4.1756 -4.6191 0
M  V30 26 O -1.2386 3.9199 -4.7885 0
M  V30 27 C 0.7219 5.1575 -5.4455 0
M  V30 28 H 4.007 -2.7981 5.9432 0
M  V30 29 H 4.1083 -1.0437 6.3236 0
M  V30 30 H 3.0998 -2.1205 7.3109 0
M  V30 31 H 1.1097 0.7128 4.0718 0
M  V30 32 H 2.2907 -2.8791 2.0135 0
M  V30 33 H -0.5463 1.1863 2.3114 0
M  V30 34 H 0.6438 -2.4223 0.2435 0
M  V30 35 H -1.9617 0.2313 0.615 0
M  V30 36 H -3.3839 -1.594 0.9177 0
M  V30 37 H 1.0657 -0.3946 -1.6095 0
M  V30 38 H -2.2207 2.1956 -0.5262 0
M  V30 39 H -1.3523 -3.5606 -3.0758 0
M  V30 40 H -4.433 -3.6005 -0.0932 0
M  V30 41 H 1.8658 1.3068 -3.2036 0
M  V30 42 H -1.4124 3.8814 -2.1179 0
M  V30 43 H -3.4116 -4.6134 -2.1356 0
M  V30 44 H 1.106 5.9573 -4.8074 0
M  V30 45 H 1.5403 4.6455 -5.9576 0
M  V30 46 H 0.062 5.5993 -6.1977 0
M  V30 END ATOM
M  V30 BEGIN BOND
M  V30 1 2 1 2
M  V30 2 1 2 3
M  V30 3 1 2 4
M  V30 4 1 3 5
M  V30 5 2 5 6
M  V30 6 1 5 7
M  V30 7 1 6 8
M  V30 8 2 7 9
M  V30 9 2 8 10
M  V30 10 1 10 11
M  V30 11 1 11 12
M  V30 12 1 11 13
M  V30 13 2 12 14
M  V30 14 1 12 15
M  V30 15 2 13 16
M  V30 16 1 13 17
M  V30 17 1 14 18
M  V30 18 2 15 19
M  V30 19 1 16 20
M  V30 20 2 17 21
M  V30 21 2 18 22
M  V30 22 2 20 23
M  V30 23 1 23 24
M  V30 24 1 24 25
M  V30 25 2 25 26
M  V30 26 1 25 27
M  V30 27 1 9 10
M  V30 28 1 19 22
M  V30 29 1 21 23
M  V30 30 1 4 28
M  V30 31 1 4 29
M  V30 32 1 4 30
M  V30 33 1 6 31
M  V30 34 1 7 32
M  V30 35 1 8 33
M  V30 36 1 9 34
M  V30 37 1 11 35
M  V30 38 1 15 36
M  V30 39 1 16 37
M  V30 40 1 17 38
M  V30 41 1 18 39
M  V30 42 1 19 40
M  V30 43 1 20 41
M  V30 44 1 21 42
M  V30 45 1 22 43
M  V30 46 1 27 44
M  V30 47 1 27 45
M  V30 48 1 27 46
M  V30 END BOND
M  V30 END CTAB
M  END
>  <Column 1>
2944

>  <level_0>
5084

>  <index>
5085

>  <Unnamed: 0>
5085

>  <NO.>
5097

>  <Name>
bisacodyl

>  <IUPAC_name>
[4-[(4-acetyloxyphenyl)-pyridin-2-ylmethyl]phenyl] acetate

>  <SMILES>
CC(=O)Oc1ccc(C(c2ccc(OC(C)=O)cc2)c2ccccn2)cc1

>  <CID>
2391

>  <logBB>


>  <BBB+/BBB->
BBB-

>  <Inchi>
InChI=1S/C22H19NO4/c1-15(24)26-19-10-6-17(7-11-19)22(21-5-3-4-14-23-21)18-8-12-20(13-9-18)27-16(2)25/h3-14-22H-1-2H3

>  <threshold>


>  <reference>
R14|

>  <group>
C

>  <Class>
-1

>  <ABC>
20.82

>  <ABCGG>
15.96

>  <nAcid>
0

>  <nBase>
0

>  <nAromAtom>
18

>  <nAromBond>
18

>  <nAtom>
46

>  <nHeavyAtom>
27

>  <nSpiro>
0

>  <nBridgehead>
0

>  <nHetero>
5

>  <nN>
1

>  <nO>
4

>  <nF>
0

>  <BalabanJ>
1.59

>  <BertzCT>
859.29

>  <nBonds>
48

>  <nBondsO>
29

>  <nBondsS>
28

>  <nBondsD>
2

>  <nBondsT>
0

>  <nBondsA>
18

>  <nBondsM>
20

>  <nBondsKS>
37

>  <nBondsKD>
11

>  <RNCG>
0.2

>  <RPCG>
0.14

>  <FCSP3>
0.14

>  <SZ>
31.67

>  <Sm>
30.09

>  <Sv>
30.76

>  <Sse>
46.42

>  <Sp>
32.17

>  <Si>
51.07

>  <MZ>
0.69

>  <Mm>
0.65

>  <Mv>
0.67

>  <Mse>
1.01

>  <Mp>
0.7

>  <Mi>
1.11

>  <NsCH3>
2

>  <NdCH2>
0

>  <NssCH2>
0

>  <NtCH>
0

>  <NdsCH>
0

>  <NaaCH>
12

>  <NsssCH>
1

>  <NddC>
0

>  <NtsC>
0

>  <NdssC>
2

>  <NaasC>
5

>  <NaaaC>
0

>  <NssssC>
0

>  <NsNH3>
0

>  <NsNH2>
0

>  <NssNH2>
0

>  <NdNH>
0

>  <NssNH>
0

>  <NaaNH>
0

>  <NtN>
0

>  <NsssNH>
0

>  <NdsN>
0

>  <NaaN>
1

>  <NsssN>
0

>  <NddsN>
0

>  <NaasN>
0

>  <NssssN>
0

>  <NsOH>
0

>  <NdO>
2

>  <NssO>
2

>  <NaaO>
0

>  <NsF>
0

>  <NsSiH3>
0

>  <NssSiH2>
0

>  <NsssSiH>
0

>  <NssssSi>
0

>  <NsPH2>
0

>  <NssPH>
0

>  <NsssP>
0

>  <NdsssP>
0

>  <NsssssP>
0

>  <NsSH>
0

>  <NdS>
0

>  <NssS>
0

>  <NaaS>
0

>  <NdssS>
0

>  <NddssS>
0

>  <NsCl>
0

>  <NsBr>
0

>  <NsI>
0

>  <fragCpx>
139.05

>  <fMF>
0.41

>  <nHBAcc>
5

>  <nHBDon>
0

>  <Kier1>
21.7

>  <Kier2>
10.68

>  <Lipinski>
1

>  <GhoseFilter>
1

>  <FilterItLogS>
-5.4

>  <VMcGowan>
274.42

>  <LabuteASA>
157.14

>  <PEOE_VSA1>
9.47

>  <PEOE_VSA2>
14.57

>  <PEOE_VSA3>
0

>  <PEOE_VSA4>
0

>  <PEOE_VSA5>
0

>  <PEOE_VSA6>
30.33

>  <PEOE_VSA7>
47.53

>  <PEOE_VSA8>
20.04

>  <PEOE_VSA9>
11.61

>  <PEOE_VSA10>
11.5

>  <PEOE_VSA11>
0

>  <PEOE_VSA12>
0

>  <PEOE_VSA13>
0

>  <SMR_VSA1>
19.06

>  <SMR_VSA2>
0

>  <SMR_VSA3>
4.98

>  <SMR_VSA4>
0

>  <SMR_VSA5>
19.77

>  <SMR_VSA6>
0

>  <SMR_VSA7>
89.75

>  <SMR_VSA8>
0

>  <SMR_VSA9>
11.5

>  <SlogP_VSA1>
9.47

>  <SlogP_VSA2>
16.92

>  <SlogP_VSA3>
9.59

>  <SlogP_VSA4>
0

>  <SlogP_VSA5>
36.59

>  <SlogP_VSA6>
72.93

>  <SlogP_VSA7>
0

>  <SlogP_VSA8>
0

>  <SlogP_VSA9>
0

>  <SlogP_VSA10>
0

>  <SlogP_VSA11>
11.5

>  <EState_VSA1>
0

>  <EState_VSA2>
17.86

>  <EState_VSA3>
11.5

>  <EState_VSA4>
16.82

>  <EState_VSA5>
13.85

>  <EState_VSA6>
30.46

>  <EState_VSA7>
42.46

>  <EState_VSA8>
4.98

>  <EState_VSA9>
9.47

>  <EState_VSA10>
9.59

>  <VSA_EState1>
10.22

>  <VSA_EState2>
26.73

>  <VSA_EState3>
0

>  <VSA_EState4>
2.9

>  <VSA_EState5>
0.17

>  <VSA_EState6>
20.48

>  <VSA_EState7>
1.75

>  <VSA_EState8>
2.74

>  <VSA_EState9>
0

>  <apol>
53.72

>  <bpol>
25.41

>  <nRing>
3

>  <nHRing>
1

>  <naRing>
3

>  <naHRing>
1

>  <nARing 2>
0

>  <nAHRing 2>
0

>  <nFRing>
0

>  <nFHRing>
0

>  <nFaRing>
0

>  <nFaHRing>
0

>  <nFARing 2>
0

>  <nFAHRing 2>
0

>  <nRot>
5

>  <SLogP>
4.11

>  <SMR>
100.68

>  <TopoPSA(NO)>
65.49

>  <TopoPSA>
65.49

>  <JGI1>
0.19

>  <JGI2>
0.06

>  <JGI3>
0.05

>  <JGI4>
0.03

>  <JGI5>
0.01

>  <Diameter>
14

>  <Radius>
7

>  <TMWC10>
131

>  <TSRW10>
61.77

>  <MW>
361.13

>  <AMW>
7.85

>  <WPath>
1954

>  <WPol>
39

>  <Zagreb1>
136

>  <Zagreb2>
155

>  <mZagreb2>
6

>  <yes>


>  <nAR-cont>
0.336376

>  <nHA-cont>
0.860070871

>  <MWHBN>
0.263110525

>  <MWHBN-cont>
0.935095224

>  <TPSA-cont>
0.542839133

>  <pka_cont>
0.97

>  <yes.1>


>  <BBB_SCORE>
4.169767974

>  <MMFF94 Energy>
115.25

$$$$
Compound 2391
Actelion Java MolfileCreator 2.0

  0  0  0  0  0  0              0 V3000
M  V30 BEGIN CTAB
M  V30 COUNTS 39 41 0 0 0
M  V30 BEGIN ATOM
M  V30 1 O 0.9735 1.2982 0.5678 0
M  V30 2 C 0.7184 0.1275 0.3087 0
M  V30 3 C -0.5455 -0.4834 0.7898 0
M  V30 4 C 1.6844 -0.6988 -0.4553 0
M  V30 5 C -1.5611 0.2787 1.3915 0
M  V30 6 C -0.7378 -1.859 0.6691 0
M  V30 7 C 2.8263 -0.1468 -1.059 0
M  V30 8 C 1.4783 -2.0734 -0.5663 0
M  V30 9 O -1.454 1.6635 1.5513 0
M  V30 10 C -2.7214 -0.3159 1.8994 0
M  V30 11 C 0.2885 -2.7043 0.0329 0
M  V30 12 C -1.9072 -2.4657 1.1594 0
M  V30 13 O 3.1159 1.2192 -0.9978 0
M  V30 14 C 3.7618 -0.9499 -1.7197 0
M  V30 15 C 2.4055 -2.8829 -1.2433 0
M  V30 16 C -1.7808 2.3457 0.3847 0
M  V30 17 C -2.8983 -1.6955 1.7785 0
M  V30 18 O 0.152 -3.9214 0.0029 0
M  V30 19 C 2.3815 1.9516 -1.9235 0
M  V30 20 C 3.5468 -2.3213 -1.8144 0
M  V30 21 O -2.2354 1.8522 -0.6394 0
M  V30 22 C -1.5159 3.8078 0.5809 0
M  V30 23 C -4.1111 -2.3795 2.287 0
M  V30 24 O 1.6466 1.4987 -2.7918 0
M  V30 25 C 2.6483 3.4117 -1.7131 0
M  V30 26 O -4.3381 -3.5719 2.2169 0
M  V30 27 O -4.9798 -1.5327 2.865 0
M  V30 28 H -3.4795 0.3038 2.3723 0
M  V30 29 H -2.0439 -3.5432 1.06 0
M  V30 30 H 4.6471 -0.5059 -2.1673 0
M  V30 31 H 2.2403 -3.9566 -1.3256 0
M  V30 32 H 4.2625 -2.9528 -2.3356 0
M  V30 33 H -2.1693 4.2007 1.3637 0
M  V30 34 H -0.4658 3.9635 0.8406 0
M  V30 35 H -1.7234 4.3409 -0.3512 0
M  V30 36 H 2.3767 3.6958 -0.6933 0
M  V30 37 H 3.702 3.6271 -1.906 0
M  V30 38 H 2.0371 3.9946 -2.408 0
M  V30 39 H -5.7227 -2.1099 3.143 0
M  V30 END ATOM
M  V30 BEGIN BOND
M  V30 1 2 1 2
M  V30 2 1 2 3
M  V30 3 1 2 4
M  V30 4 2 3 5
M  V30 5 1 3 6
M  V30 6 2 4 7
M  V30 7 1 4 8
M  V30 8 1 5 9
M  V30 9 1 5 10
M  V30 10 1 6 11
M  V30 11 2 6 12
M  V30 12 1 7 13
M  V30 13 1 7 14
M  V30 14 2 8 15
M  V30 15 1 9 16
M  V30 16 2 10 17
M  V30 17 2 11 18
M  V30 18 1 13 19
M  V30 19 2 14 20
M  V30 20 2 16 21
M  V30 21 1 16 22
M  V30 22 1 17 23
M  V30 23 2 19 24
M  V30 24 1 19 25
M  V30 25 2 23 26
M  V30 26 1 23 27
M  V30 27 1 8 11
M  V30 28 1 12 17
M  V30 29 1 15 20
M  V30 30 1 10 28
M  V30 31 1 12 29
M  V30 32 1 14 30
M  V30 33 1 15 31
M  V30 34 1 20 32
M  V30 35 1 22 33
M  V30 36 1 22 34
M  V30 37 1 22 35
M  V30 38 1 25 36
M  V30 39 1 25 37
M  V30 40 1 25 38
M  V30 41 1 27 39
M  V30 END BOND
M  V30 END CTAB
M  END
>  <Column 1>
2945

>  <level_0>
5085

>  <index>
5086

>  <Unnamed: 0>
5086

>  <NO.>
5098

>  <Name>
diacerein

>  <IUPAC_name>
4-5-diacetyloxy-9-10-dioxoanthracene-2-carboxylic acid

>  <SMILES>
CC(=O)Oc1cccc2c1C(=O)c1c(OC(C)=O)cc(C(=O)O)cc1C2=O

>  <CID>
26248

>  <logBB>


>  <BBB+/BBB->
BBB-

>  <Inchi>
InChI=1S/C19H12O8/c1-8(20)26-13-5-3-4-11-15(13)18(23)16-12(17(11)22)6-10(19(24)25)7-14(16)27-9(2)21/h3-7H-1-2H3-(H-24-25)

>  <threshold>


>  <reference>
R14|

>  <group>
C

>  <Class>
-1

>  <ABC>
21.02

>  <ABCGG>
17.33

>  <nAcid>
1

>  <nBase>
0

>  <nAromAtom>
12

>  <nAromBond>
12

>  <nAtom>
39

>  <nHeavyAtom>
27

>  <nSpiro>
0

>  <nBridgehead>
0

>  <nHetero>
8

>  <nN>
0

>  <nO>
8

>  <nF>
0

>  <BalabanJ>
1.89

>  <BertzCT>
1047.92

>  <nBonds>
41

>  <nBondsO>
29

>  <nBondsS>
24

>  <nBondsD>
5

>  <nBondsT>
0

>  <nBondsA>
12

>  <nBondsM>
17

>  <nBondsKS>
30

>  <nBondsKD>
11

>  <RNCG>
0.17

>  <RPCG>
0.12

>  <FCSP3>
0.11

>  <SZ>
31.67

>  <Sm>
30.66

>  <Sv>
27.97

>  <Sse>
40.97

>  <Sp>
27.63

>  <Si>
43.17

>  <MZ>
0.81

>  <Mm>
0.79

>  <Mv>
0.72

>  <Mse>
1.05

>  <Mp>
0.71

>  <Mi>
1.11

>  <NsCH3>
2

>  <NdCH2>
0

>  <NssCH2>
0

>  <NtCH>
0

>  <NdsCH>
0

>  <NaaCH>
5

>  <NsssCH>
0

>  <NddC>
0

>  <NtsC>
0

>  <NdssC>
5

>  <NaasC>
7

>  <NaaaC>
0

>  <NssssC>
0

>  <NsNH3>
0

>  <NsNH2>
0

>  <NssNH2>
0

>  <NdNH>
0

>  <NssNH>
0

>  <NaaNH>
0

>  <NtN>
0

>  <NsssNH>
0

>  <NdsN>
0

>  <NaaN>
0

>  <NsssN>
0

>  <NddsN>
0

>  <NaasN>
0

>  <NssssN>
0

>  <NsOH>
1

>  <NdO>
5

>  <NssO>
2

>  <NaaO>
0

>  <NsF>
0

>  <NsSiH3>
0

>  <NssSiH2>
0

>  <NsssSiH>
0

>  <NssssSi>
0

>  <NsPH2>
0

>  <NssPH>
0

>  <NsssP>
0

>  <NdsssP>
0

>  <NsssssP>
0

>  <NsSH>
0

>  <NdS>
0

>  <NssS>
0

>  <NaaS>
0

>  <NdssS>
0

>  <NddssS>
0

>  <NsCl>
0

>  <NsBr>
0

>  <NsI>
0

>  <fragCpx>
139.08

>  <fMF>
0.36

>  <nHBAcc>
7

>  <nHBDon>
1

>  <Kier1>
21.7

>  <Kier2>
8.79

>  <Lipinski>
1

>  <GhoseFilter>
1

>  <FilterItLogS>
-3.96

>  <VMcGowan>
245.65

>  <LabuteASA>
151.87

>  <PEOE_VSA1>
14.58

>  <PEOE_VSA2>
19.18

>  <PEOE_VSA3>
4.79

>  <PEOE_VSA4>
0

>  <PEOE_VSA5>
0

>  <PEOE_VSA6>
12.13

>  <PEOE_VSA7>
18.2

>  <PEOE_VSA8>
24.97

>  <PEOE_VSA9>
16.69

>  <PEOE_VSA10>
11.5

>  <PEOE_VSA11>
5.78

>  <PEOE_VSA12>
5.78

>  <PEOE_VSA13>
0

>  <SMR_VSA1>
38.55

>  <SMR_VSA2>
0

>  <SMR_VSA3>
0

>  <SMR_VSA4>
0

>  <SMR_VSA5>
13.85

>  <SMR_VSA6>
0

>  <SMR_VSA7>
58.15

>  <SMR_VSA8>
0

>  <SMR_VSA9>
11.5

>  <SlogP_VSA1>
9.47

>  <SlogP_VSA2>
34.58

>  <SlogP_VSA3>
9.59

>  <SlogP_VSA4>
0

>  <SlogP_VSA5>
56.05

>  <SlogP_VSA6>
30.33

>  <SlogP_VSA7>
0

>  <SlogP_VSA8>
0

>  <SlogP_VSA9>
0

>  <SlogP_VSA10>
0

>  <SlogP_VSA11>
11.5

>  <EState_VSA1>
29.47

>  <EState_VSA2>
39.32

>  <EState_VSA3>
0

>  <EState_VSA4>
25.98

>  <EState_VSA5>
18.2

>  <EState_VSA6>
0

>  <EState_VSA7>
0

>  <EState_VSA8>
0

>  <EState_VSA9>
9.47

>  <EState_VSA10>
29.08

>  <VSA_EState1>
9.99

>  <VSA_EState2>
59.98

>  <VSA_EState3>
9.24

>  <VSA_EState4>
-0.97

>  <VSA_EState5>
-4.66

>  <VSA_EState6>
6.19

>  <VSA_EState7>
0

>  <VSA_EState8>
2.22

>  <VSA_EState9>
0

>  <apol>
46.15

>  <bpol>
19.85

>  <nRing>
3

>  <nHRing>
0

>  <naRing>
2

>  <naHRing>
0

>  <nARing 2>
1

>  <nAHRing 2>
0

>  <nFRing>
1

>  <nFHRing>
0

>  <nFaRing>
0

>  <nFaHRing>
0

>  <nFARing 2>
1

>  <nFAHRing 2>
0

>  <nRot>
3

>  <SLogP>
2.01

>  <SMR>
89.33

>  <TopoPSA(NO)>
124.04

>  <TopoPSA>
124.04

>  <JGI1>
0.22

>  <JGI2>
0.07

>  <JGI3>
0.06

>  <JGI4>
0.05

>  <JGI5>
0.04

>  <Diameter>
11

>  <Radius>
6

>  <TMWC10>
133.67

>  <TSRW10>
62.63

>  <MW>
368.05

>  <AMW>
9.44

>  <WPath>
1652

>  <WPol>
49

>  <Zagreb1>
144

>  <Zagreb2>
173

>  <mZagreb2>
5.83

>  <yes>


>  <nAR-cont>
0.816016

>  <nHA-cont>
0.860070871

>  <MWHBN>
0.4170005

>  <MWHBN-cont>
0.409565124

>  <TPSA-cont>
0

>  <pka_cont>
0.97

>  <yes.1>


>  <BBB_SCORE>
2.775434558

>  <MMFF94 Energy>
51.058

$$$$
Compound 2392
Actelion Java MolfileCreator 2.0

  0  0  0  0  0  0              0 V3000
M  V30 BEGIN CTAB
M  V30 COUNTS 30 31 0 0 0
M  V30 BEGIN ATOM
M  V30 1 S 2.0415 -0.6529 -2.6137 0
M  V30 2 C 1.0024 0.4426 -1.8205 0
M  V30 3 C 2.7716 0.6513 -3.4146 0
M  V30 4 N 1.1734 1.7146 -2.1091 0
M  V30 5 N 0.0467 0.0567 -0.9183 0
M  V30 6 N 3.8383 0.4728 -4.3452 0 CHG=1
M  V30 7 C 2.1959 1.8399 -3.0354 0
M  V30 8 C -0.2118 -1.2156 -0.4663 0
M  V30 9 O 4.2272 -0.6765 -4.5821 0
M  V30 10 O 4.2976 1.5053 -4.852 0 CHG=-1
M  V30 11 O 0.3331 -2.2466 -0.8411 0
M  V30 12 C -1.2996 -1.3202 0.5533 0
M  V30 13 C -1.6364 -0.295 1.4497 0
M  V30 14 C -2.0176 -2.5239 0.6155 0
M  V30 15 O -0.954 0.9274 1.4499 0
M  V30 16 C -2.6993 -0.44 2.3478 0
M  V30 17 C -3.0671 -2.6805 1.5254 0
M  V30 18 C 0.0608 0.9798 2.4034 0
M  V30 19 C -3.411 -1.6376 2.385 0
M  V30 20 O 0.3732 0.0946 3.1858 0
M  V30 21 C 0.7376 2.315 2.3149 0
M  V30 22 H -0.5157 0.8264 -0.5818 0
M  V30 23 H 2.4727 2.8253 -3.3933 0
M  V30 24 H -1.7643 -3.3477 -0.05 0
M  V30 25 H -2.9621 0.3652 3.0281 0
M  V30 26 H -3.6149 -3.6195 1.5627 0
M  V30 27 H -4.2279 -1.7639 3.0919 0
M  V30 28 H 1.1958 2.4328 1.3298 0
M  V30 29 H 0.0127 3.1112 2.501 0
M  V30 30 H 1.5217 2.3742 3.0749 0
M  V30 END ATOM
M  V30 BEGIN BOND
M  V30 1 1 1 2
M  V30 2 1 1 3
M  V30 3 2 2 4
M  V30 4 1 2 5
M  V30 5 1 3 6
M  V30 6 2 3 7
M  V30 7 1 5 8
M  V30 8 2 6 9
M  V30 9 1 6 10
M  V30 10 2 8 11
M  V30 11 1 8 12
M  V30 12 2 12 13
M  V30 13 1 12 14
M  V30 14 1 13 15
M  V30 15 1 13 16
M  V30 16 2 14 17
M  V30 17 1 15 18
M  V30 18 2 16 19
M  V30 19 2 18 20
M  V30 20 1 18 21
M  V30 21 1 4 7
M  V30 22 1 17 19
M  V30 23 1 5 22
M  V30 24 1 7 23
M  V30 25 1 14 24
M  V30 26 1 16 25
M  V30 27 1 17 26
M  V30 28 1 19 27
M  V30 29 1 21 28
M  V30 30 1 21 29
M  V30 31 1 21 30
M  V30 END BOND
M  V30 END CTAB
M  END
>  <Column 1>
2946

>  <level_0>
5086

>  <index>
5087

>  <Unnamed: 0>
5087

>  <NO.>
5099

>  <Name>
nitazoxanide

>  <IUPAC_name>
[2-[(5-nitro-1-3-thiazol-2-yl)carbamoyl]phenyl] acetate

>  <SMILES>
CC(=O)Oc1ccccc1C(=O)Nc1ncc([N+](=O)[O-])s1

>  <CID>
41684

>  <logBB>


>  <BBB+/BBB->
BBB-

>  <Inchi>
InChI=1S/C12H9N3O5S/c1-7(16)20-9-5-3-2-4-8(9)11(17)14-12-13-6-10(21-12)15(18)19/h2-6H-1H3-(H-13-14-17)

>  <threshold>


>  <reference>
R14|R15|R23|

>  <group>
C

>  <Class>
-1

>  <ABC>
15.98

>  <ABCGG>
13.99

>  <nAcid>
0

>  <nBase>
0

>  <nAromAtom>
11

>  <nAromBond>
11

>  <nAtom>
30

>  <nHeavyAtom>
21

>  <nSpiro>
0

>  <nBridgehead>
0

>  <nHetero>
9

>  <nN>
3

>  <nO>
5

>  <nF>
0

>  <BalabanJ>
1.84

>  <BertzCT>
712.42

>  <nBonds>
31

>  <nBondsO>
22

>  <nBondsS>
17

>  <nBondsD>
3

>  <nBondsT>
0

>  <nBondsA>
11

>  <nBondsM>
14

>  <nBondsKS>
23

>  <nBondsKD>
8

>  <RNCG>
0.19

>  <RPCG>
0.16

>  <FCSP3>
0.08

>  <SZ>
26.33

>  <Sm>
25.58

>  <Sv>
21.47

>  <Sse>
31.71

>  <Sp>
21.71

>  <Si>
33.71

>  <MZ>
0.88

>  <Mm>
0.85

>  <Mv>
0.72

>  <Mse>
1.06

>  <Mp>
0.72

>  <Mi>
1.12

>  <NsCH3>
1

>  <NdCH2>
0

>  <NssCH2>
0

>  <NtCH>
0

>  <NdsCH>
0

>  <NaaCH>
5

>  <NsssCH>
0

>  <NddC>
0

>  <NtsC>
0

>  <NdssC>
2

>  <NaasC>
4

>  <NaaaC>
0

>  <NssssC>
0

>  <NsNH3>
0

>  <NsNH2>
0

>  <NssNH2>
0

>  <NdNH>
0

>  <NssNH>
1

>  <NaaNH>
0

>  <NtN>
0

>  <NsssNH>
0

>  <NdsN>
0

>  <NaaN>
1

>  <NsssN>
0

>  <NddsN>
1

>  <NaasN>
0

>  <NssssN>
0

>  <NsOH>
0

>  <NdO>
3

>  <NssO>
1

>  <NaaO>
0

>  <NsF>
0

>  <NsSiH3>
0

>  <NssSiH2>
0

>  <NsssSiH>
0

>  <NssssSi>
0

>  <NsPH2>
0

>  <NssPH>
0

>  <NsssP>
0

>  <NdsssP>
0

>  <NsssssP>
0

>  <NsSH>
0

>  <NdS>
0

>  <NssS>
0

>  <NaaS>
1

>  <NdssS>
0

>  <NddssS>
0

>  <NsCl>
0

>  <NsBr>
0

>  <NsI>
0

>  <fragCpx>
64.09

>  <fMF>
0.43

>  <nHBAcc>
7

>  <nHBDon>
1

>  <Kier1>
17.36

>  <Kier2>
8.02

>  <Lipinski>
1

>  <GhoseFilter>
1

>  <FilterItLogS>
-3.12

>  <VMcGowan>
199.46

>  <LabuteASA>
122.08

>  <PEOE_VSA1>
4.74

>  <PEOE_VSA2>
25.02

>  <PEOE_VSA3>
4.98

>  <PEOE_VSA4>
0

>  <PEOE_VSA5>
0

>  <PEOE_VSA6>
12.13

>  <PEOE_VSA7>
23.47

>  <PEOE_VSA8>
6.92

>  <PEOE_VSA9>
10.49

>  <PEOE_VSA10>
11.95

>  <PEOE_VSA11>
5.13

>  <PEOE_VSA12>
0

>  <PEOE_VSA13>
5.91

>  <SMR_VSA1>
19.25

>  <SMR_VSA2>
0

>  <SMR_VSA3>
4.98

>  <SMR_VSA4>
0

>  <SMR_VSA5>
6.92

>  <SMR_VSA6>
5.32

>  <SMR_VSA7>
46.14

>  <SMR_VSA8>
0

>  <SMR_VSA9>
5.75

>  <SlogP_VSA1>
10.05

>  <SlogP_VSA2>
21.78

>  <SlogP_VSA3>
4.79

>  <SlogP_VSA4>
10.11

>  <SlogP_VSA5>
17.28

>  <SlogP_VSA6>
30.46

>  <SlogP_VSA7>
0

>  <SlogP_VSA8>
0

>  <SlogP_VSA9>
0

>  <SlogP_VSA10>
10.13

>  <SlogP_VSA11>
5.75

>  <EState_VSA1>
16.8

>  <EState_VSA2>
21.45

>  <EState_VSA3>
0

>  <EState_VSA4>
17.53

>  <EState_VSA5>
19.06

>  <EState_VSA6>
12.13

>  <EState_VSA7>
0

>  <EState_VSA8>
10.3

>  <EState_VSA9>
4.74

>  <EState_VSA10>
19.7

>  <VSA_EState1>
4.92

>  <VSA_EState2>
36.76

>  <VSA_EState3>
12.88

>  <VSA_EState4>
0.13

>  <VSA_EState5>
-1.02

>  <VSA_EState6>
6.16

>  <VSA_EState7>
1.05

>  <VSA_EState8>
1.22

>  <VSA_EState9>
0

>  <apol>
36.25

>  <bpol>
17.84

>  <nRing>
2

>  <nHRing>
1

>  <naRing>
2

>  <naHRing>
1

>  <nARing 2>
0

>  <nAHRing 2>
0

>  <nFRing>
0

>  <nFHRing>
0

>  <nFaRing>
0

>  <nFaHRing>
0

>  <nFARing 2>
0

>  <nFAHRing 2>
0

>  <nRot>
4

>  <SLogP>
2.23

>  <SMR>
74.47

>  <TopoPSA(NO)>
111.43

>  <TopoPSA>
139.67

>  <JGI1>
0.23

>  <JGI2>
0.07

>  <JGI3>
0.06

>  <JGI4>
0.04

>  <JGI5>
0.03

>  <Diameter>
11

>  <Radius>
6

>  <TMWC10>
115.32

>  <TSRW10>
67.91

>  <MW>
307.03

>  <AMW>
10.23

>  <WPath>
993

>  <WPol>
28

>  <Zagreb1>
104

>  <Zagreb2>
118

>  <mZagreb2>
4.67

>  <yes>


>  <nAR-cont>
0.336376

>  <nHA-cont>
0.994529749

>  <MWHBN>
0.456561809

>  <MWHBN-cont>
0

>  <TPSA-cont>
0

>  <pka_cont>
0.97

>  <yes.1>


>  <BBB_SCORE>
1.815905749

>  <MMFF94 Energy>
2.6892

$$$$
Compound 2393
Actelion Java MolfileCreator 2.0

  0  0  0  0  0  0              0 V3000
M  V30 BEGIN CTAB
M  V30 COUNTS 42 43 0 0 0
M  V30 BEGIN ATOM
M  V30 1 O 3.866 -4.5774 0.4727 0
M  V30 2 C 2.9275 -3.78 0.4684 0
M  V30 3 C 2.9607 -2.5244 1.185 0
M  V30 4 C 1.6687 -4.0849 -0.3055 0
M  V30 5 O 1.8809 -1.6888 1.1265 0
M  V30 6 C 3.943 -1.9601 1.976 0
M  V30 7 C 2.1705 -0.5887 1.8823 0
M  V30 8 C 3.4424 -0.7123 2.4296 0
M  V30 9 C 1.3234 0.5091 2.0808 0
M  V30 10 C 3.929 0.3233 3.2434 0
M  V30 11 O 0.0962 0.494 1.4839 0
M  V30 12 C 1.8327 1.5253 2.9017 0
M  V30 13 C 3.1096 1.436 3.4704 0
M  V30 14 C -0.6531 1.7075 1.5117 0
M  V30 15 C -1.9204 1.5364 0.6708 0 CFG=1
M  V30 16 O -2.6969 2.7405 0.726 0
M  V30 17 C -1.5983 1.2144 -0.803 0
M  V30 18 N -2.8555 1.214 -1.5768 0
M  V30 19 C -2.6303 1.105 -3.0248 0
M  V30 20 C -2.1386 -0.2824 -3.4411 0
M  V30 21 C -3.954 1.4179 -3.7254 0
M  V30 22 H 0.8125 -4.1269 0.3733 0
M  V30 23 H 1.7686 -5.0566 -0.7982 0
M  V30 24 H 1.5064 -3.3223 -1.0722 0
M  V30 25 H 4.9042 -2.4054 2.1939 0
M  V30 26 H 4.9169 0.2658 3.691 0
M  V30 27 H 1.2453 2.4116 3.1262 0
M  V30 28 H 3.4715 2.2446 4.1031 0
M  V30 29 H -0.0616 2.5422 1.113 0
M  V30 30 H -0.9433 1.951 2.5415 0
M  V30 31 H -2.5304 0.7263 1.089 0
M  V30 32 H -3.246 2.7098 -0.0862 0
M  V30 33 H -0.9366 1.9934 -1.2003 0
M  V30 34 H -1.0895 0.2481 -0.8749 0
M  V30 35 H -3.4387 0.4343 -1.2659 0
M  V30 36 H -1.9005 1.8589 -3.3445 0
M  V30 37 H -2.8258 -1.0682 -3.108 0
M  V30 38 H -1.1483 -0.4992 -3.0288 0
M  V30 39 H -2.0577 -0.3505 -4.5315 0
M  V30 40 H -4.3126 2.4185 -3.4585 0
M  V30 41 H -4.7339 0.6958 -3.4575 0
M  V30 42 H -3.8312 1.3912 -4.8136 0
M  V30 END ATOM
M  V30 BEGIN BOND
M  V30 1 2 1 2
M  V30 2 1 2 3
M  V30 3 1 2 4
M  V30 4 1 3 5
M  V30 5 2 3 6
M  V30 6 1 5 7
M  V30 7 1 6 8
M  V30 8 1 7 9
M  V30 9 1 8 10
M  V30 10 1 9 11
M  V30 11 2 9 12
M  V30 12 2 10 13
M  V30 13 1 11 14
M  V30 14 1 14 15
M  V30 15 1 15 16
M  V30 16 1 15 17
M  V30 17 1 17 18
M  V30 18 1 18 19
M  V30 19 1 19 20
M  V30 20 1 19 21
M  V30 21 2 7 8
M  V30 22 1 12 13
M  V30 23 1 4 22
M  V30 24 1 4 23
M  V30 25 1 4 24
M  V30 26 1 6 25
M  V30 27 1 10 26
M  V30 28 1 12 27
M  V30 29 1 13 28
M  V30 30 1 14 29
M  V30 31 1 14 30
M  V30 32 1 15 31
M  V30 33 1 16 32
M  V30 34 1 17 33
M  V30 35 1 17 34
M  V30 36 1 18 35
M  V30 37 1 19 36
M  V30 38 1 20 37
M  V30 39 1 20 38
M  V30 40 1 20 39
M  V30 41 1 21 40
M  V30 42 1 21 41
M  V30 43 1 21 42
M  V30 END BOND
M  V30 BEGIN COLLECTION
M  V30 MDLV30/STERAC1 ATOMS=(1 15)
M  V30 END COLLECTION
M  V30 END CTAB
M  END
>  <Column 1>
2947

>  <level_0>
5088

>  <index>
5089

>  <Unnamed: 0>
5089

>  <NO.>
5101

>  <Name>
befunolol

>  <IUPAC_name>
1-[7-[2-hydroxy-3-(propan-2-ylamino)propoxy]-1-benzofuran-2-yl]ethanone

>  <SMILES>
CC(=O)c1cc2cccc(OCC(O)CNC(C)C)c2o1

>  <CID>
2309

>  <logBB>


>  <BBB+/BBB->
BBB-

>  <Inchi>
InChI=1S/C16H21NO4/c1-10(2)17-8-13(19)9-20-14-6-4-5-12-7-15(11(3)18)21-16(12)14/h4-7-10-13-17-19H-8-9H2-1-3H3

>  <threshold>


>  <reference>
R14|

>  <group>
C

>  <Class>
1

>  <ABC>
15.98

>  <ABCGG>
13.53

>  <nAcid>
0

>  <nBase>
1

>  <nAromAtom>
9

>  <nAromBond>
10

>  <nAtom>
42

>  <nHeavyAtom>
21

>  <nSpiro>
0

>  <nBridgehead>
0

>  <nHetero>
5

>  <nN>
1

>  <nO>
4

>  <nF>
0

>  <BalabanJ>
1.77

>  <BertzCT>
617.76

>  <nBonds>
43

>  <nBondsO>
22

>  <nBondsS>
32

>  <nBondsD>
1

>  <nBondsT>
0

>  <nBondsA>
10

>  <nBondsM>
11

>  <nBondsKS>
38

>  <nBondsKD>
5

>  <RNCG>
0.23

>  <RPCG>
0.1

>  <FCSP3>
0.44

>  <SZ>
26

>  <Sm>
24.26

>  <Sv>
25.31

>  <Sse>
42.31

>  <Sp>
26.96

>  <Si>
47.49

>  <MZ>
0.62

>  <Mm>
0.58

>  <Mv>
0.6

>  <Mse>
1.01

>  <Mp>
0.64

>  <Mi>
1.13

>  <NsCH3>
3

>  <NdCH2>
0

>  <NssCH2>
2

>  <NtCH>
0

>  <NdsCH>
0

>  <NaaCH>
4

>  <NsssCH>
2

>  <NddC>
0

>  <NtsC>
0

>  <NdssC>
1

>  <NaasC>
2

>  <NaaaC>
2

>  <NssssC>
0

>  <NsNH3>
0

>  <NsNH2>
0

>  <NssNH2>
0

>  <NdNH>
0

>  <NssNH>
1

>  <NaaNH>
0

>  <NtN>
0

>  <NsssNH>
0

>  <NdsN>
0

>  <NaaN>
0

>  <NsssN>
0

>  <NddsN>
0

>  <NaasN>
0

>  <NssssN>
0

>  <NsOH>
1

>  <NdO>
1

>  <NssO>
1

>  <NaaO>
1

>  <NsF>
0

>  <NsSiH3>
0

>  <NssSiH2>
0

>  <NsssSiH>
0

>  <NssssSi>
0

>  <NsPH2>
0

>  <NssPH>
0

>  <NsssP>
0

>  <NdsssP>
0

>  <NsssssP>
0

>  <NsSH>
0

>  <NdS>
0

>  <NssS>
0

>  <NaaS>
0

>  <NdssS>
0

>  <NddssS>
0

>  <NsCl>
0

>  <NsBr>
0

>  <NsI>
0

>  <fragCpx>
64.05

>  <fMF>
0.21

>  <nHBAcc>
5

>  <nHBDon>
2

>  <Kier1>
17.36

>  <Kier2>
8.02

>  <Lipinski>
1

>  <GhoseFilter>
1

>  <FilterItLogS>
-3.91

>  <VMcGowan>
226.54

>  <LabuteASA>
123.45

>  <PEOE_VSA1>
19.58

>  <PEOE_VSA2>
4.79

>  <PEOE_VSA3>
0

>  <PEOE_VSA4>
0

>  <PEOE_VSA5>
0

>  <PEOE_VSA6>
25.98

>  <PEOE_VSA7>
12.13

>  <PEOE_VSA8>
24.9

>  <PEOE_VSA9>
0

>  <PEOE_VSA10>
12.71

>  <PEOE_VSA11>
22.88

>  <PEOE_VSA12>
0

>  <PEOE_VSA13>
0

>  <SMR_VSA1>
19.06

>  <SMR_VSA2>
0

>  <SMR_VSA3>
5.32

>  <SMR_VSA4>
0

>  <SMR_VSA5>
32.92

>  <SMR_VSA6>
13.15

>  <SMR_VSA7>
30.03

>  <SMR_VSA8>
0

>  <SMR_VSA9>
5.75

>  <SlogP_VSA1>
10.05

>  <SlogP_VSA2>
36.19

>  <SlogP_VSA3>
0

>  <SlogP_VSA4>
0

>  <SlogP_VSA5>
31.33

>  <SlogP_VSA6>
28.68

>  <SlogP_VSA7>
0

>  <SlogP_VSA8>
10.97

>  <SlogP_VSA9>
0

>  <SlogP_VSA10>
0

>  <SlogP_VSA11>
5.75

>  <EState_VSA1>
6.1

>  <EState_VSA2>
12.39

>  <EState_VSA3>
29.68

>  <EState_VSA4>
5.39

>  <EState_VSA5>
6.92

>  <EState_VSA6>
12.13

>  <EState_VSA7>
25.98

>  <EState_VSA8>
5.32

>  <EState_VSA9>
9.15

>  <EState_VSA10>
9.9

>  <VSA_EState1>
11.13

>  <VSA_EState2>
11.36

>  <VSA_EState3>
13.8

>  <VSA_EState4>
0.53

>  <VSA_EState5>
0.71

>  <VSA_EState6>
7.45

>  <VSA_EState7>
-0.61

>  <VSA_EState8>
6.11

>  <VSA_EState9>
0

>  <apol>
45.03

>  <bpol>
25.98

>  <nRing>
2

>  <nHRing>
1

>  <naRing>
2

>  <naHRing>
1

>  <nARing 2>
0

>  <nAHRing 2>
0

>  <nFRing>
1

>  <nFHRing>
1

>  <nFaRing>
1

>  <nFaHRing>
1

>  <nFARing 2>
0

>  <nFAHRing 2>
0

>  <nRot>
7

>  <SLogP>
2.37

>  <SMR>
80.86

>  <TopoPSA(NO)>
71.7

>  <TopoPSA>
71.7

>  <JGI1>
0.23

>  <JGI2>
0.08

>  <JGI3>
0.04

>  <JGI4>
0.05

>  <JGI5>
0.03

>  <Diameter>
12

>  <Radius>
6

>  <TMWC10>
115.59

>  <TSRW10>
68.35

>  <MW>
291.15

>  <AMW>
6.93

>  <WPath>
1039

>  <WPol>
28

>  <Zagreb1>
104

>  <Zagreb2>
118

>  <mZagreb2>
4.67

>  <yes>


>  <nAR-cont>
0.336376

>  <nHA-cont>
0.994529749

>  <MWHBN>
0.410241548

>  <MWHBN-cont>
0.435876279

>  <TPSA-cont>
0.499489477

>  <pka_cont>
0.97

>  <yes.1>


>  <BBB_SCORE>
3.468699121

>  <MMFF94 Energy>
78.336

$$$$
Compound 2394
Actelion Java MolfileCreator 2.0

  0  0  0  0  0  0              0 V3000
M  V30 BEGIN CTAB
M  V30 COUNTS 58 61 0 0 0
M  V30 BEGIN ATOM
M  V30 1 S -5.1596 0.0 -2.5773 0
M  V30 2 C -3.5662 -0.6951 -2.9412 0
M  V30 3 C -4.9735 0.5257 -0.8912 0
M  V30 4 C -2.5608 -0.8922 -1.9736 0
M  V30 5 C -3.3658 -1.0622 -4.2879 0
M  V30 6 C -3.8475 0.2253 -0.098 0
M  V30 7 C -6.053 1.2689 -0.3714 0
M  V30 8 N -2.7533 -0.535 -0.6077 0
M  V30 9 C -1.3502 -1.4496 -2.4441 0
M  V30 10 C -2.1612 -1.6198 -4.7169 0
M  V30 11 C -3.8654 0.7346 1.2214 0
M  V30 12 C -6.0371 1.7424 0.9348 0
M  V30 13 C -1.7868 -1.0693 0.3796 0
M  V30 14 C -1.1481 -1.8095 -3.7852 0
M  V30 15 C -2.0074 -1.9848 -6.1561 0
M  V30 16 C -4.9377 1.4774 1.7319 0
M  V30 17 C -0.6134 -0.106 0.6122 0
M  V30 18 O -2.9393 -1.8073 -6.9375 0
M  V30 19 C -0.7008 -2.57 -6.6245 0
M  V30 20 C 0.3951 -0.7203 1.5904 0
M  V30 21 N 1.4634 0.2127 1.979 0
M  V30 22 C 2.2647 -0.3615 3.0816 0
M  V30 23 C 2.3668 0.5398 0.8562 0
M  V30 24 C 3.4388 0.5501 3.5087 0
M  V30 25 C 3.5431 1.4472 1.2868 0
M  V30 26 N 4.3433 0.8596 2.3828 0
M  V30 27 C 5.4119 1.7959 2.777 0
M  V30 28 C 6.4545 1.1856 3.7237 0
M  V30 29 O 7.4937 2.1323 3.963 0
M  V30 30 H -4.165 -0.9056 -5.0129 0
M  V30 31 H -6.919 1.4861 -0.9943 0
M  V30 32 H -0.5055 -1.6112 -1.7819 0
M  V30 33 H -3.0334 0.5863 1.9017 0
M  V30 34 H -6.8743 2.3173 1.3204 0
M  V30 35 H -1.4148 -2.0543 0.0691 0
M  V30 36 H -2.2829 -1.3039 1.3305 0
M  V30 37 H -0.1867 -2.231 -4.0635 0
M  V30 38 H -4.9022 1.8489 2.753 0
M  V30 39 H -0.9748 0.85 1.0074 0
M  V30 40 H -0.128 0.124 -0.3413 0
M  V30 41 H 0.114 -1.8612 -6.4562 0
M  V30 42 H -0.5064 -3.5178 -6.116 0
M  V30 43 H -0.7606 -2.7678 -7.6994 0
M  V30 44 H -0.1567 -1.0132 2.4933 0
M  V30 45 H 0.8164 -1.6395 1.1629 0
M  V30 46 H 1.6215 -0.5144 3.9569 0
M  V30 47 H 2.6631 -1.344 2.7936 0
M  V30 48 H 2.7687 -0.3784 0.4073 0
M  V30 49 H 1.8165 1.0741 0.0743 0
M  V30 50 H 3.0353 1.4734 3.9462 0
M  V30 51 H 3.9888 0.0262 4.298 0
M  V30 52 H 3.1473 2.4287 1.5825 0
M  V30 53 H 4.185 1.6046 0.4114 0
M  V30 54 H 4.999 2.71 3.2249 0
M  V30 55 H 5.9524 2.1278 1.88 0
M  V30 56 H 6.0146 0.9227 4.69 0
M  V30 57 H 6.901 0.2902 3.279 0
M  V30 58 H 8.1529 1.6893 4.5244 0
M  V30 END ATOM
M  V30 BEGIN BOND
M  V30 1 1 1 2
M  V30 2 1 1 3
M  V30 3 2 2 4
M  V30 4 1 2 5
M  V30 5 2 3 6
M  V30 6 1 3 7
M  V30 7 1 4 8
M  V30 8 1 4 9
M  V30 9 2 5 10
M  V30 10 1 6 11
M  V30 11 2 7 12
M  V30 12 1 8 13
M  V30 13 2 9 14
M  V30 14 1 10 15
M  V30 15 2 11 16
M  V30 16 1 13 17
M  V30 17 2 15 18
M  V30 18 1 15 19
M  V30 19 1 17 20
M  V30 20 1 20 21
M  V30 21 1 21 22
M  V30 22 1 21 23
M  V30 23 1 22 24
M  V30 24 1 23 25
M  V30 25 1 24 26
M  V30 26 1 26 27
M  V30 27 1 27 28
M  V30 28 1 28 29
M  V30 29 1 6 8
M  V30 30 1 10 14
M  V30 31 1 12 16
M  V30 32 1 25 26
M  V30 33 1 5 30
M  V30 34 1 7 31
M  V30 35 1 9 32
M  V30 36 1 11 33
M  V30 37 1 12 34
M  V30 38 1 13 35
M  V30 39 1 13 36
M  V30 40 1 14 37
M  V30 41 1 16 38
M  V30 42 1 17 39
M  V30 43 1 17 40
M  V30 44 1 19 41
M  V30 45 1 19 42
M  V30 46 1 19 43
M  V30 47 1 20 44
M  V30 48 1 20 45
M  V30 49 1 22 46
M  V30 50 1 22 47
M  V30 51 1 23 48
M  V30 52 1 23 49
M  V30 53 1 24 50
M  V30 54 1 24 51
M  V30 55 1 25 52
M  V30 56 1 25 53
M  V30 57 1 27 54
M  V30 58 1 27 55
M  V30 59 1 28 56
M  V30 60 1 28 57
M  V30 61 1 29 58
M  V30 END BOND
M  V30 END CTAB
M  END
>  <Column 1>
2948

>  <level_0>
5089

>  <index>
5090

>  <Unnamed: 0>
5090

>  <NO.>
5102

>  <Name>
acetophenazine

>  <IUPAC_name>
1-[10-[3-[4-(2-hydroxyethyl)piperazin-1-yl]propyl]phenothiazin-3-yl]ethanone

>  <SMILES>
CC(=O)c1ccc2c(c1)Sc1ccccc1N2CCCN1CCN(CCO)CC1

>  <CID>
441185

>  <logBB>


>  <BBB+/BBB->
BBB+

>  <Inchi>
InChI=1S/C23H29N3O2S/c1-18(28)19-7-8-21-23(17-19)29-22-6-3-2-5-20(22)26(21)10-4-9-24-11-13-25(14-12-24)15-16-27/h2-3-5-8-17-27H-4-9-16H2-1H3

>  <threshold>


>  <reference>
R14|

>  <group>
C

>  <Class>
-1

>  <ABC>
22.64

>  <ABCGG>
16.2

>  <nAcid>
0

>  <nBase>
2

>  <nAromAtom>
12

>  <nAromBond>
12

>  <nAtom>
58

>  <nHeavyAtom>
29

>  <nSpiro>
0

>  <nBridgehead>
0

>  <nHetero>
6

>  <nN>
3

>  <nO>
2

>  <nF>
0

>  <BalabanJ>
1.31

>  <BertzCT>
864.95

>  <nBonds>
61

>  <nBondsO>
32

>  <nBondsS>
48

>  <nBondsD>
1

>  <nBondsT>
0

>  <nBondsA>
12

>  <nBondsM>
13

>  <nBondsKS>
54

>  <nBondsKD>
7

>  <RNCG>
0.19

>  <RPCG>
0.1

>  <FCSP3>
0.43

>  <SZ>
36.67

>  <Sm>
34.27

>  <Sv>
35.75

>  <Sse>
57.6

>  <Sp>
39.25

>  <Si>
65.23

>  <MZ>
0.63

>  <Mm>
0.59

>  <Mv>
0.62

>  <Mse>
0.99

>  <Mp>
0.68

>  <Mi>
1.12

>  <NsCH3>
1

>  <NdCH2>
0

>  <NssCH2>
9

>  <NtCH>
0

>  <NdsCH>
0

>  <NaaCH>
7

>  <NsssCH>
0

>  <NddC>
0

>  <NtsC>
0

>  <NdssC>
1

>  <NaasC>
5

>  <NaaaC>
0

>  <NssssC>
0

>  <NsNH3>
0

>  <NsNH2>
0

>  <NssNH2>
0

>  <NdNH>
0

>  <NssNH>
0

>  <NaaNH>
0

>  <NtN>
0

>  <NsssNH>
0

>  <NdsN>
0

>  <NaaN>
0

>  <NsssN>
3

>  <NddsN>
0

>  <NaasN>
0

>  <NssssN>
0

>  <NsOH>
1

>  <NdO>
1

>  <NssO>
0

>  <NaaO>
0

>  <NsF>
0

>  <NsSiH3>
0

>  <NssSiH2>
0

>  <NsssSiH>
0

>  <NssssSi>
0

>  <NsPH2>
0

>  <NssPH>
0

>  <NsssP>
0

>  <NdsssP>
0

>  <NsssssP>
0

>  <NsSH>
0

>  <NdS>
0

>  <NssS>
1

>  <NaaS>
0

>  <NdssS>
0

>  <NddssS>
0

>  <NsCl>
0

>  <NsBr>
0

>  <NsI>
0

>  <fragCpx>
212.06

>  <fMF>
0.4

>  <nHBAcc>
6

>  <nHBDon>
1

>  <Kier1>
22.2

>  <Kier2>
10.54

>  <Lipinski>
1

>  <GhoseFilter>
1

>  <FilterItLogS>
-4.77

>  <VMcGowan>
319.42

>  <LabuteASA>
176.85

>  <PEOE_VSA1>
14.91

>  <PEOE_VSA2>
9.69

>  <PEOE_VSA3>
0

>  <PEOE_VSA4>
0

>  <PEOE_VSA5>
0

>  <PEOE_VSA6>
23.89

>  <PEOE_VSA7>
50.22

>  <PEOE_VSA8>
54.62

>  <PEOE_VSA9>
17.98

>  <PEOE_VSA10>
0

>  <PEOE_VSA11>
5.78

>  <PEOE_VSA12>
0

>  <PEOE_VSA13>
0

>  <SMR_VSA1>
9.9

>  <SMR_VSA2>
0

>  <SMR_VSA3>
9.8

>  <SMR_VSA4>
0

>  <SMR_VSA5>
23.14

>  <SMR_VSA6>
57.32

>  <SMR_VSA7>
48.03

>  <SMR_VSA8>
0

>  <SMR_VSA9>
0

>  <SlogP_VSA1>
4.9

>  <SlogP_VSA2>
73.11

>  <SlogP_VSA3>
0

>  <SlogP_VSA4>
0

>  <SlogP_VSA5>
23.7

>  <SlogP_VSA6>
52.26

>  <SlogP_VSA7>
0

>  <SlogP_VSA8>
0

>  <SlogP_VSA9>
0

>  <SlogP_VSA10>
11.37

>  <SlogP_VSA11>
0

>  <EState_VSA1>
0

>  <EState_VSA2>
12.39

>  <EState_VSA3>
0

>  <EState_VSA4>
62.69

>  <EState_VSA5>
16.27

>  <EState_VSA6>
18.69

>  <EState_VSA7>
12.13

>  <EState_VSA8>
45.03

>  <EState_VSA9>
5.11

>  <EState_VSA10>
4.79

>  <VSA_EState1>
0

>  <VSA_EState2>
21.5

>  <VSA_EState3>
9.1

>  <VSA_EState4>
3.23

>  <VSA_EState5>
0.11

>  <VSA_EState6>
14.61

>  <VSA_EState7>
1.09

>  <VSA_EState8>
8.94

>  <VSA_EState9>
0

>  <apol>
65.55

>  <bpol>
37.55

>  <nRing>
4

>  <nHRing>
2

>  <naRing>
2

>  <naHRing>
0

>  <nARing 2>
2

>  <nAHRing 2>
2

>  <nFRing>
1

>  <nFHRing>
1

>  <nFaRing>
0

>  <nFaHRing>
0

>  <nFARing 2>
1

>  <nFAHRing 2>
1

>  <nRot>
7

>  <SLogP>
3.49

>  <SMR>
118.6

>  <TopoPSA(NO)>
47.02

>  <TopoPSA>
72.32

>  <JGI1>
0.16

>  <JGI2>
0.07

>  <JGI3>
0.03

>  <JGI4>
0.04

>  <JGI5>
0.02

>  <Diameter>
16

>  <Radius>
8

>  <TMWC10>
137.83

>  <TSRW10>
64.6

>  <MW>
411.2

>  <AMW>
7.09

>  <WPath>
2446

>  <WPol>
47

>  <Zagreb1>
152

>  <Zagreb2>
179

>  <mZagreb2>
6.47

>  <yes>


>  <nAR-cont>
1

>  <nHA-cont>
0.785905698

>  <MWHBN>
0.345200556

>  <MWHBN-cont>
0.688084008

>  <TPSA-cont>
0.495161492

>  <pka_cont>
0.97

>  <yes.1>


>  <BBB_SCORE>
4.293354694

>  <MMFF94 Energy>
165.79

$$$$
Compound 2395
Actelion Java MolfileCreator 2.0

  0  0  0  0  0  0              0 V3000
M  V30 BEGIN CTAB
M  V30 COUNTS 30 31 0 0 0
M  V30 BEGIN ATOM
M  V30 1 S 0.9751 -0.9751 -1.0564 0
M  V30 2 C 0.3829 0.3237 -0.108 0
M  V30 3 C 0.3831 -2.1584 0.0351 0
M  V30 4 C 0.6053 1.6903 -0.566 0
M  V30 5 C -0.2326 -0.1433 1.0386 0
M  V30 6 C -0.2421 -1.5668 1.1152 0
M  V30 7 C 0.5731 -3.6383 -0.2233 0 CFG=2
M  V30 8 O 1.4684 2.0187 -1.3799 0
M  V30 9 C -0.2418 2.7849 -0.0198 0
M  V30 10 C 2.0469 -4.0075 -0.1066 0
M  V30 11 C -0.0648 -4.0697 -1.5447 0
M  V30 12 C 0.372 3.9887 0.3478 0
M  V30 13 C -1.6324 2.6499 0.0849 0
M  V30 14 O 2.8738 -3.508 0.6412 0
M  V30 15 O 2.4077 -5.0621 -0.8675 0
M  V30 16 C -0.3969 5.0385 0.8516 0
M  V30 17 C -2.3969 3.7036 0.5893 0
M  V30 18 C -1.7788 4.8933 0.9761 0
M  V30 19 H -0.6518 0.4983 1.8048 0
M  V30 20 H -0.6749 -2.1277 1.9355 0
M  V30 21 H 0.0677 -4.1944 0.5782 0
M  V30 22 H -0.0747 -5.1618 -1.6326 0
M  V30 23 H 0.4837 -3.6811 -2.4099 0
M  V30 24 H -1.1018 -3.7229 -1.6161 0
M  V30 25 H 1.4481 4.1098 0.2398 0
M  V30 26 H -2.1318 1.7401 -0.2385 0
M  V30 27 H 3.3607 -5.1757 -0.6651 0
M  V30 28 H 0.0809 5.9717 1.1398 0
M  V30 29 H -3.4766 3.6023 0.6715 0
M  V30 30 H -2.3769 5.7147 1.3642 0
M  V30 END ATOM
M  V30 BEGIN BOND
M  V30 1 1 1 2
M  V30 2 1 1 3
M  V30 3 1 2 4
M  V30 4 2 2 5
M  V30 5 2 3 6
M  V30 6 1 3 7
M  V30 7 2 4 8
M  V30 8 1 4 9
M  V30 9 1 7 10
M  V30 10 1 7 11
M  V30 11 2 9 12
M  V30 12 1 9 13
M  V30 13 2 10 14
M  V30 14 1 10 15
M  V30 15 1 12 16
M  V30 16 2 13 17
M  V30 17 2 16 18
M  V30 18 1 5 6
M  V30 19 1 17 18
M  V30 20 1 5 19
M  V30 21 1 6 20
M  V30 22 1 7 21
M  V30 23 1 11 22
M  V30 24 1 11 23
M  V30 25 1 11 24
M  V30 26 1 12 25
M  V30 27 1 13 26
M  V30 28 1 15 27
M  V30 29 1 16 28
M  V30 30 1 17 29
M  V30 31 1 18 30
M  V30 END BOND
M  V30 BEGIN COLLECTION
M  V30 MDLV30/STERAC1 ATOMS=(1 7)
M  V30 END COLLECTION
M  V30 END CTAB
M  END
>  <Column 1>
2949

>  <level_0>
5090

>  <index>
5091

>  <Unnamed: 0>
5091

>  <NO.>
5103

>  <Name>
tiaprofenic

>  <IUPAC_name>
2-(5-benzoylthiophen-2-yl)propanoic acid

>  <SMILES>
CC(C(=O)O)c1ccc(C(=O)c2ccccc2)s1

>  <CID>
5468

>  <logBB>


>  <BBB+/BBB->
BBB-

>  <Inchi>
InChI=1S/C14H12O3S/c1-9(14(16)17)11-7-8-12(18-11)13(15)10-5-3-2-4-6-10/h2-9H-1H3-(H-16-17)

>  <threshold>


>  <reference>
R14|

>  <group>
C

>  <Class>
-1

>  <ABC>
13.71

>  <ABCGG>
12.27

>  <nAcid>
1

>  <nBase>
0

>  <nAromAtom>
11

>  <nAromBond>
11

>  <nAtom>
30

>  <nHeavyAtom>
18

>  <nSpiro>
0

>  <nBridgehead>
0

>  <nHetero>
4

>  <nN>
0

>  <nO>
3

>  <nF>
0

>  <BalabanJ>
1.84

>  <BertzCT>
571.73

>  <nBonds>
31

>  <nBondsO>
19

>  <nBondsS>
18

>  <nBondsD>
2

>  <nBondsT>
0

>  <nBondsA>
11

>  <nBondsM>
13

>  <nBondsKS>
24

>  <nBondsKD>
7

>  <RNCG>
0.3

>  <RPCG>
0.2

>  <FCSP3>
0.14

>  <SZ>
22.67

>  <Sm>
21.67

>  <Sv>
20.58

>  <Sse>
30.4

>  <Sp>
21.97

>  <Si>
33.04

>  <MZ>
0.76

>  <Mm>
0.72

>  <Mv>
0.69

>  <Mse>
1.01

>  <Mp>
0.73

>  <Mi>
1.1

>  <NsCH3>
1

>  <NdCH2>
0

>  <NssCH2>
0

>  <NtCH>
0

>  <NdsCH>
0

>  <NaaCH>
7

>  <NsssCH>
1

>  <NddC>
0

>  <NtsC>
0

>  <NdssC>
2

>  <NaasC>
3

>  <NaaaC>
0

>  <NssssC>
0

>  <NsNH3>
0

>  <NsNH2>
0

>  <NssNH2>
0

>  <NdNH>
0

>  <NssNH>
0

>  <NaaNH>
0

>  <NtN>
0

>  <NsssNH>
0

>  <NdsN>
0

>  <NaaN>
0

>  <NsssN>
0

>  <NddsN>
0

>  <NaasN>
0

>  <NssssN>
0

>  <NsOH>
1

>  <NdO>
2

>  <NssO>
0

>  <NaaO>
0

>  <NsF>
0

>  <NsSiH3>
0

>  <NssSiH2>
0

>  <NsssSiH>
0

>  <NssssSi>
0

>  <NsPH2>
0

>  <NssPH>
0

>  <NsssP>
0

>  <NdsssP>
0

>  <NsssssP>
0

>  <NsSH>
0

>  <NdS>
0

>  <NssS>
0

>  <NaaS>
1

>  <NdssS>
0

>  <NddssS>
0

>  <NsCl>
0

>  <NsBr>
0

>  <NsI>
0

>  <fragCpx>
55.04

>  <fMF>
0.4

>  <nHBAcc>
3

>  <nHBDon>
1

>  <Kier1>
14.41

>  <Kier2>
6.44

>  <Lipinski>
1

>  <GhoseFilter>
1

>  <FilterItLogS>
-2.89

>  <VMcGowan>
190.26

>  <LabuteASA>
108.71

>  <PEOE_VSA1>
5.11

>  <PEOE_VSA2>
9.59

>  <PEOE_VSA3>
0

>  <PEOE_VSA4>
0

>  <PEOE_VSA5>
11.34

>  <PEOE_VSA6>
30.33

>  <PEOE_VSA7>
19.06

>  <PEOE_VSA8>
10.44

>  <PEOE_VSA9>
10.8

>  <PEOE_VSA10>
0

>  <PEOE_VSA11>
0

>  <PEOE_VSA12>
5.78

>  <PEOE_VSA13>
0

>  <SMR_VSA1>
14.7

>  <SMR_VSA2>
0

>  <SMR_VSA3>
0

>  <SMR_VSA4>
0

>  <SMR_VSA5>
12.84

>  <SMR_VSA6>
0

>  <SMR_VSA7>
57.78

>  <SMR_VSA8>
0

>  <SMR_VSA9>
0

>  <SlogP_VSA1>
0

>  <SlogP_VSA2>
16.86

>  <SlogP_VSA3>
4.79

>  <SlogP_VSA4>
0

>  <SlogP_VSA5>
32.95

>  <SlogP_VSA6>
42.46

>  <SlogP_VSA7>
0

>  <SlogP_VSA8>
0

>  <SlogP_VSA9>
0

>  <SlogP_VSA10>
0

>  <SlogP_VSA11>
0

>  <EState_VSA1>
11.89

>  <EState_VSA2>
5.78

>  <EState_VSA3>
15.32

>  <EState_VSA4>
0

>  <EState_VSA5>
11.34

>  <EState_VSA6>
31.19

>  <EState_VSA7>
18.2

>  <EState_VSA8>
0

>  <EState_VSA9>
5.11

>  <EState_VSA10>
9.59

>  <VSA_EState1>
0

>  <VSA_EState2>
24.26

>  <VSA_EState3>
8.92

>  <VSA_EState4>
0.62

>  <VSA_EState5>
-1.52

>  <VSA_EState6>
12.37

>  <VSA_EState7>
0

>  <VSA_EState8>
1.62

>  <VSA_EState9>
0

>  <apol>
36.69

>  <bpol>
16.23

>  <nRing>
2

>  <nHRing>
1

>  <naRing>
2

>  <naHRing>
1

>  <nARing 2>
0

>  <nAHRing 2>
0

>  <nFRing>
0

>  <nFHRing>
0

>  <nFaRing>
0

>  <nFaHRing>
0

>  <nFARing 2>
0

>  <nFAHRing 2>
0

>  <nRot>
4

>  <SLogP>
3.17

>  <SMR>
70.24

>  <TopoPSA(NO)>
54.37

>  <TopoPSA>
82.61

>  <JGI1>
0.18

>  <JGI2>
0.09

>  <JGI3>
0.05

>  <JGI4>
0.03

>  <JGI5>
0.03

>  <Diameter>
10

>  <Radius>
5

>  <TMWC10>
108.26

>  <TSRW10>
64.31

>  <MW>
260.05

>  <AMW>
8.67

>  <WPath>
638

>  <WPol>
25

>  <Zagreb1>
90

>  <Zagreb2>
104

>  <mZagreb2>
4.03

>  <yes>


>  <nAR-cont>
0.336376

>  <nHA-cont>
0.991161285

>  <MWHBN>
0.24804562

>  <MWHBN-cont>
0.963002038

>  <TPSA-cont>
0.423330902

>  <pka_cont>
0.97

>  <yes.1>


>  <BBB_SCORE>
4.103702146

>  <MMFF94 Energy>
60.595

$$$$
Compound 2396
Actelion Java MolfileCreator 2.0

  0  0  0  0  0  0              0 V3000
M  V30 BEGIN CTAB
M  V30 COUNTS 33 35 0 0 0
M  V30 BEGIN ATOM
M  V30 1 Cl -5.2935 -1.2197 -5.7832 0
M  V30 2 C -4.1677 -0.9429 -4.5128 0
M  V30 3 C -4.603 -0.939 -3.1898 0
M  V30 4 C -2.8257 -0.7237 -4.8116 0
M  V30 5 C -3.6873 -0.7139 -2.1559 0
M  V30 6 C -1.9124 -0.4989 -3.7764 0
M  V30 7 C -2.3296 -0.4907 -2.4353 0
M  V30 8 C -1.3495 -0.2527 -1.3774 0
M  V30 9 O -1.8212 -0.2582 -0.0872 0
M  V30 10 N -0.0511 -0.0286 -1.4858 0
M  V30 11 C -0.7134 -0.0159 0.6696 0
M  V30 12 C 0.3634 0.1229 -0.1873 0
M  V30 13 C -0.6418 0.0797 2.0519 0
M  V30 14 C 1.6313 0.38 0.3515 0
M  V30 15 C 0.6315 0.3377 2.578 0
M  V30 16 C 1.7658 0.4898 1.7527 0
M  V30 17 C 3.1371 0.771 2.3482 0 CFG=2
M  V30 18 C 3.5856 -0.3392 3.2806 0
M  V30 19 C 3.1788 2.1198 3.0695 0
M  V30 20 O 3.3961 -0.4087 4.4847 0
M  V30 21 O 4.2357 -1.3305 2.6365 0
M  V30 22 H -5.6502 -1.1098 -2.9539 0
M  V30 23 H -2.4815 -0.7258 -5.8423 0
M  V30 24 H -4.0473 -0.7148 -1.1287 0
M  V30 25 H -0.8645 -0.3286 -4.021 0
M  V30 26 H -1.5152 -0.0388 2.6806 0
M  V30 27 H 2.4809 0.4877 -0.3146 0
M  V30 28 H 0.7321 0.4164 3.6615 0
M  V30 29 H 3.8817 0.8279 1.5425 0
M  V30 30 H 2.4957 2.1514 3.9258 0
M  V30 31 H 2.903 2.9353 2.3918 0
M  V30 32 H 4.186 2.3214 3.4512 0
M  V30 33 H 4.4324 -1.9853 3.3389 0
M  V30 END ATOM
M  V30 BEGIN BOND
M  V30 1 1 1 2
M  V30 2 2 2 3
M  V30 3 1 2 4
M  V30 4 1 3 5
M  V30 5 2 4 6
M  V30 6 2 5 7
M  V30 7 1 7 8
M  V30 8 1 8 9
M  V30 9 2 8 10
M  V30 10 1 9 11
M  V30 11 1 10 12
M  V30 12 1 11 13
M  V30 13 1 12 14
M  V30 14 2 13 15
M  V30 15 2 14 16
M  V30 16 1 16 17
M  V30 17 1 17 18
M  V30 18 1 17 19
M  V30 19 2 18 20
M  V30 20 1 18 21
M  V30 21 1 6 7
M  V30 22 2 11 12
M  V30 23 1 15 16
M  V30 24 1 3 22
M  V30 25 1 4 23
M  V30 26 1 5 24
M  V30 27 1 6 25
M  V30 28 1 13 26
M  V30 29 1 14 27
M  V30 30 1 15 28
M  V30 31 1 17 29
M  V30 32 1 19 30
M  V30 33 1 19 31
M  V30 34 1 19 32
M  V30 35 1 21 33
M  V30 END BOND
M  V30 BEGIN COLLECTION
M  V30 MDLV30/STERAC1 ATOMS=(1 17)
M  V30 END COLLECTION
M  V30 END CTAB
M  END
>  <Column 1>
2950

>  <level_0>
5091

>  <index>
5092

>  <Unnamed: 0>
5092

>  <NO.>
5104

>  <Name>
benoxaprofen

>  <IUPAC_name>
2-[2-(4-chlorophenyl)-1-3-benzoxazol-5-yl]propanoic acid

>  <SMILES>
CC(C(=O)O)c1ccc2oc(-c3ccc(Cl)cc3)nc2c1

>  <CID>
39941

>  <logBB>


>  <BBB+/BBB->
BBB-

>  <Inchi>
InChI=1S/C16H12ClNO3/c1-9(16(19)20)11-4-7-14-13(8-11)18-15(21-14)10-2-5-12(17)6-3-10/h2-9H-1H3-(H-19-20)

>  <threshold>


>  <reference>
R14|

>  <group>
C

>  <Class>
-1

>  <ABC>
16.54

>  <ABCGG>
13.26

>  <nAcid>
1

>  <nBase>
0

>  <nAromAtom>
15

>  <nAromBond>
16

>  <nAtom>
33

>  <nHeavyAtom>
21

>  <nSpiro>
0

>  <nBridgehead>
0

>  <nHetero>
5

>  <nN>
1

>  <nO>
3

>  <nF>
0

>  <BalabanJ>
1.54

>  <BertzCT>
808.01

>  <nBonds>
35

>  <nBondsO>
23

>  <nBondsS>
18

>  <nBondsD>
1

>  <nBondsT>
0

>  <nBondsA>
16

>  <nBondsM>
17

>  <nBondsKS>
27

>  <nBondsKD>
8

>  <RNCG>
0.26

>  <RPCG>
0.17

>  <FCSP3>
0.13

>  <SZ>
26

>  <Sm>
25.12

>  <Sv>
23.24

>  <Sse>
33.75

>  <Sp>
24.2

>  <Si>
36.56

>  <MZ>
0.79

>  <Mm>
0.76

>  <Mv>
0.7

>  <Mse>
1.02

>  <Mp>
0.73

>  <Mi>
1.11

>  <NsCH3>
1

>  <NdCH2>
0

>  <NssCH2>
0

>  <NtCH>
0

>  <NdsCH>
0

>  <NaaCH>
7

>  <NsssCH>
1

>  <NddC>
0

>  <NtsC>
0

>  <NdssC>
1

>  <NaasC>
4

>  <NaaaC>
2

>  <NssssC>
0

>  <NsNH3>
0

>  <NsNH2>
0

>  <NssNH2>
0

>  <NdNH>
0

>  <NssNH>
0

>  <NaaNH>
0

>  <NtN>
0

>  <NsssNH>
0

>  <NdsN>
0

>  <NaaN>
1

>  <NsssN>
0

>  <NddsN>
0

>  <NaasN>
0

>  <NssssN>
0

>  <NsOH>
1

>  <NdO>
1

>  <NssO>
0

>  <NaaO>
1

>  <NsF>
0

>  <NsSiH3>
0

>  <NssSiH2>
0

>  <NsssSiH>
0

>  <NssssSi>
0

>  <NsPH2>
0

>  <NssPH>
0

>  <NsssP>
0

>  <NdsssP>
0

>  <NsssssP>
0

>  <NsSH>
0

>  <NdS>
0

>  <NssS>
0

>  <NaaS>
0

>  <NdssS>
0

>  <NddssS>
0

>  <NsCl>
1

>  <NsBr>
0

>  <NsI>
0

>  <fragCpx>
109.05

>  <fMF>
0.45

>  <nHBAcc>
3

>  <nHBDon>
1

>  <Kier1>
15.88

>  <Kier2>
6.63

>  <Lipinski>
1

>  <GhoseFilter>
1

>  <FilterItLogS>
-4.79

>  <VMcGowan>
209.15

>  <LabuteASA>
125.54

>  <PEOE_VSA1>
9.52

>  <PEOE_VSA2>
4.79

>  <PEOE_VSA3>
4.98

>  <PEOE_VSA4>
0

>  <PEOE_VSA5>
0

>  <PEOE_VSA6>
17.67

>  <PEOE_VSA7>
48.89

>  <PEOE_VSA8>
10.59

>  <PEOE_VSA9>
5.92

>  <PEOE_VSA10>
5.52

>  <PEOE_VSA11>
5.58

>  <PEOE_VSA12>
5.89

>  <PEOE_VSA13>
0

>  <SMR_VSA1>
14.32

>  <SMR_VSA2>
0

>  <SMR_VSA3>
4.98

>  <SMR_VSA4>
0

>  <SMR_VSA5>
12.84

>  <SMR_VSA6>
0

>  <SMR_VSA7>
53.05

>  <SMR_VSA8>
0

>  <SMR_VSA9>
11.45

>  <SlogP_VSA1>
0

>  <SlogP_VSA2>
16.06

>  <SlogP_VSA3>
4.79

>  <SlogP_VSA4>
0

>  <SlogP_VSA5>
18.41

>  <SlogP_VSA6>
46.88

>  <SlogP_VSA7>
5.02

>  <SlogP_VSA8>
22.55

>  <SlogP_VSA9>
0

>  <SlogP_VSA10>
0

>  <SlogP_VSA11>
0

>  <EState_VSA1>
11.89

>  <EState_VSA2>
0

>  <EState_VSA3>
27.58

>  <EState_VSA4>
5.56

>  <EState_VSA5>
0

>  <EState_VSA6>
37.26

>  <EState_VSA7>
12.13

>  <EState_VSA8>
4.98

>  <EState_VSA9>
21.12

>  <EState_VSA10>
4.79

>  <VSA_EState1>
5.69

>  <VSA_EState2>
15.45

>  <VSA_EState3>
9.71

>  <VSA_EState4>
2.79

>  <VSA_EState5>
-0.96

>  <VSA_EState6>
12.43

>  <VSA_EState7>
0

>  <VSA_EState8>
1.64

>  <VSA_EState9>
0

>  <apol>
40.41

>  <bpol>
16.29

>  <nRing>
3

>  <nHRing>
1

>  <naRing>
3

>  <naHRing>
1

>  <nARing 2>
0

>  <nAHRing 2>
0

>  <nFRing>
1

>  <nFHRing>
1

>  <nFaRing>
1

>  <nFaHRing>
1

>  <nFARing 2>
0

>  <nFAHRing 2>
0

>  <nRot>
3

>  <SLogP>
4.34

>  <SMR>
80.51

>  <TopoPSA(NO)>
63.33

>  <TopoPSA>
63.33

>  <JGI1>
0.22

>  <JGI2>
0.09

>  <JGI3>
0.04

>  <JGI4>
0.04

>  <JGI5>
0.03

>  <Diameter>
12

>  <Radius>
6

>  <TMWC10>
118.06

>  <TSRW10>
68.98

>  <MW>
301.05

>  <AMW>
9.12

>  <WPath>
975

>  <WPol>
32

>  <Zagreb1>
112

>  <Zagreb2>
132

>  <mZagreb2>
4.53

>  <yes>


>  <nAR-cont>
0.336376

>  <nHA-cont>
0.994529749

>  <MWHBN>
0.23053702

>  <MWHBN-cont>
0.986226891

>  <TPSA-cont>
0.557917274

>  <pka_cont>
0.97

>  <yes.1>


>  <BBB_SCORE>
4.411080634

>  <MMFF94 Energy>
43.522

$$$$
Compound 2397
Actelion Java MolfileCreator 2.0

  0  0  0  0  0  0              0 V3000
M  V30 BEGIN CTAB
M  V30 COUNTS 63 66 0 0 0
M  V30 BEGIN ATOM
M  V30 1 O -1.9133 -4.229 -4.6286 0
M  V30 2 C -2.0146 -3.0537 -4.3028 0
M  V30 3 N -2.6387 -2.6651 -3.1543 0
M  V30 4 C -1.4535 -1.9704 -5.139 0
M  V30 5 C -2.9848 -1.2797 -2.8638 0
M  V30 6 C -1.3577 -0.7127 -4.6816 0
M  V30 7 C -1.8536 -0.2915 -3.3008 0
M  V30 8 C -3.3879 -1.121 -1.3953 0
M  V30 9 C -0.6536 -0.3343 -2.2842 0
M  V30 10 C -2.4626 1.1226 -3.4353 0
M  V30 11 C -2.1925 -1.2104 -0.455 0
M  V30 12 C -1.111 -0.181 -0.8121 0
M  V30 13 C 0.4582 0.6874 -2.5988 0
M  V30 14 C 0.0584 -0.2317 0.1992 0
M  V30 15 C 1.6349 0.5654 -1.6314 0
M  V30 16 C 1.2325 0.7103 -0.1396 0
M  V30 17 C 0.7213 -1.6071 0.3772 0
M  V30 18 C 2.3868 0.1709 0.7514 0
M  V30 19 C 0.8864 2.1811 0.1521 0
M  V30 20 C 2.1644 -1.3476 0.819 0
M  V30 21 C 2.5199 0.8229 2.1341 0
M  V30 22 O 3.3814 1.6751 2.338 0
M  V30 23 N 1.6011 0.4345 3.0816 0
M  V30 24 C 1.527 0.9614 4.4533 0
M  V30 25 C 2.8173 0.6565 5.2298 0
M  V30 26 C 1.2528 2.4736 4.4495 0
M  V30 27 C 0.3551 0.2615 5.1671 0
M  V30 28 H -3.0506 -3.4228 -2.6239 0
M  V30 29 H -1.0713 -2.2663 -6.1084 0
M  V30 30 H -3.8798 -1.0913 -3.4739 0
M  V30 31 H -0.8822 0.0353 -5.3114 0
M  V30 32 H -3.8864 -0.1548 -1.2513 0
M  V30 33 H -4.1204 -1.8896 -1.119 0
M  V30 34 H -0.1956 -1.3295 -2.3793 0
M  V30 35 H -2.7895 1.5257 -2.4724 0
M  V30 36 H -1.753 1.8369 -3.8672 0
M  V30 37 H -3.3371 1.1136 -4.0976 0
M  V30 38 H -2.5357 -1.0457 0.5736 0
M  V30 39 H -1.7839 -2.2271 -0.4912 0
M  V30 40 H -1.5658 0.8131 -0.7058 0
M  V30 41 H 0.0673 1.7091 -2.5646 0
M  V30 42 H 0.8379 0.5342 -3.6152 0
M  V30 43 H -0.3586 0.0569 1.1738 0
M  V30 44 H 2.1161 -0.405 -1.8078 0
M  V30 45 H 2.389 1.3211 -1.8868 0
M  V30 46 H 0.7271 -2.1882 -0.5504 0
M  V30 47 H 0.1874 -2.2047 1.1244 0
M  V30 48 H 3.3548 0.3547 0.2641 0
M  V30 49 H 1.762 2.8238 0.0081 0
M  V30 50 H 0.5322 2.3214 1.1786 0
M  V30 51 H 0.092 2.555 -0.5005 0
M  V30 52 H 2.8467 -1.8563 0.1269 0
M  V30 53 H 2.3607 -1.7703 1.8099 0
M  V30 54 H 0.9437 -0.2916 2.8367 0
M  V30 55 H 3.6825 1.178 4.8083 0
M  V30 56 H 2.7304 0.9652 6.2778 0
M  V30 57 H 3.0423 -0.416 5.212 0
M  V30 58 H 1.1062 2.8512 5.4679 0
M  V30 59 H 2.0793 3.0403 4.0095 0
M  V30 60 H 0.3519 2.7081 3.8708 0
M  V30 61 H 0.5027 -0.8244 5.1962 0
M  V30 62 H -0.5914 0.4465 4.6456 0
M  V30 63 H 0.2454 0.6137 6.1989 0
M  V30 END ATOM
M  V30 BEGIN BOND
M  V30 1 2 1 2
M  V30 2 1 2 3
M  V30 3 1 2 4
M  V30 4 1 3 5
M  V30 5 2 4 6
M  V30 6 1 5 7
M  V30 7 1 5 8
M  V30 8 1 7 9
M  V30 9 1 7 10
M  V30 10 1 8 11
M  V30 11 1 9 12
M  V30 12 1 9 13
M  V30 13 1 12 14
M  V30 14 1 13 15
M  V30 15 1 14 16
M  V30 16 1 14 17
M  V30 17 1 16 18
M  V30 18 1 16 19
M  V30 19 1 17 20
M  V30 20 1 18 21
M  V30 21 2 21 22
M  V30 22 1 21 23
M  V30 23 1 23 24
M  V30 24 1 24 25
M  V30 25 1 24 26
M  V30 26 1 24 27
M  V30 27 1 6 7
M  V30 28 1 11 12
M  V30 29 1 15 16
M  V30 30 1 18 20
M  V30 31 1 3 28
M  V30 32 1 4 29
M  V30 33 1 5 30
M  V30 34 1 6 31
M  V30 35 1 8 32
M  V30 36 1 8 33
M  V30 37 1 9 34
M  V30 38 1 10 35
M  V30 39 1 10 36
M  V30 40 1 10 37
M  V30 41 1 11 38
M  V30 42 1 11 39
M  V30 43 1 12 40
M  V30 44 1 13 41
M  V30 45 1 13 42
M  V30 46 1 14 43
M  V30 47 1 15 44
M  V30 48 1 15 45
M  V30 49 1 17 46
M  V30 50 1 17 47
M  V30 51 1 18 48
M  V30 52 1 19 49
M  V30 53 1 19 50
M  V30 54 1 19 51
M  V30 55 1 20 52
M  V30 56 1 20 53
M  V30 57 1 23 54
M  V30 58 1 25 55
M  V30 59 1 25 56
M  V30 60 1 25 57
M  V30 61 1 26 58
M  V30 62 1 26 59
M  V30 63 1 26 60
M  V30 64 1 27 61
M  V30 65 1 27 62
M  V30 66 1 27 63
M  V30 END BOND
M  V30 END CTAB
M  END
>  <Column 1>
2952

>  <level_0>
5093

>  <index>
5094

>  <Unnamed: 0>
5094

>  <NO.>
5106

>  <Name>
finasteride

>  <IUPAC_name>
n-tert-butyl-9a-11a-dimethyl-7-oxo-1-2-3-3a-3b-4-5-5a-6-9b-10-11-dodecahydroindeno[5-4-f]quinoline-1-carboxamide

>  <SMILES>
CC(C)(C)NC(=O)C1CCC2C3CCC4NC(=O)C=CC4(C)C3CCC12C

>  <CID>
3350

>  <logBB>


>  <BBB+/BBB->
BBB-

>  <Inchi>
InChI=1S/C23H36N2O2/c1-21(2-3)25-20(27)17-8-7-15-14-6-9-18-23(5-13-11-19(26)24-18)16(14)10-12-22(15-17)4/h11-13-18H-6-10-12H2-1-5H3-(H-24-26)(H-25-27)

>  <threshold>


>  <reference>
R14|R23|

>  <group>
C

>  <Class>
-1

>  <ABC>
21.86

>  <ABCGG>
17.34

>  <nAcid>
0

>  <nBase>
0

>  <nAromAtom>
0

>  <nAromBond>
0

>  <nAtom>
63

>  <nHeavyAtom>
27

>  <nSpiro>
0

>  <nBridgehead>
0

>  <nHetero>
4

>  <nN>
2

>  <nO>
2

>  <nF>
0

>  <BalabanJ>
1.54

>  <BertzCT>
678.36

>  <nBonds>
66

>  <nBondsO>
30

>  <nBondsS>
63

>  <nBondsD>
3

>  <nBondsT>
0

>  <nBondsA>
0

>  <nBondsM>
3

>  <nBondsKS>
63

>  <nBondsKD>
3

>  <RNCG>
0.18

>  <RPCG>
0.13

>  <FCSP3>
0.83

>  <SZ>
34

>  <Sm>
31.02

>  <Sv>
35.7

>  <Sse>
61.97

>  <Sp>
39.65

>  <Si>
71.48

>  <MZ>
0.54

>  <Mm>
0.49

>  <Mv>
0.57

>  <Mse>
0.98

>  <Mp>
0.63

>  <Mi>
1.13

>  <NsCH3>
5

>  <NdCH2>
0

>  <NssCH2>
6

>  <NtCH>
0

>  <NdsCH>
2

>  <NaaCH>
0

>  <NsssCH>
5

>  <NddC>
0

>  <NtsC>
0

>  <NdssC>
2

>  <NaasC>
0

>  <NaaaC>
0

>  <NssssC>
3

>  <NsNH3>
0

>  <NsNH2>
0

>  <NssNH2>
0

>  <NdNH>
0

>  <NssNH>
2

>  <NaaNH>
0

>  <NtN>
0

>  <NsssNH>
0

>  <NdsN>
0

>  <NaaN>
0

>  <NsssN>
0

>  <NddsN>
0

>  <NaasN>
0

>  <NssssN>
0

>  <NsOH>
0

>  <NdO>
2

>  <NssO>
0

>  <NaaO>
0

>  <NsF>
0

>  <NsSiH3>
0

>  <NssSiH2>
0

>  <NsssSiH>
0

>  <NssssSi>
0

>  <NsPH2>
0

>  <NssPH>
0

>  <NsssP>
0

>  <NdsssP>
0

>  <NsssssP>
0

>  <NsSH>
0

>  <NdS>
0

>  <NssS>
0

>  <NaaS>
0

>  <NdssS>
0

>  <NddssS>
0

>  <NsCl>
0

>  <NsBr>
0

>  <NsI>
0

>  <fragCpx>
198.04

>  <fMF>
0.27

>  <nHBAcc>
2

>  <nHBDon>
2

>  <Kier1>
20.28

>  <Kier2>
6.77

>  <Lipinski>
1

>  <GhoseFilter>
1

>  <FilterItLogS>
-4.54

>  <VMcGowan>
310.29

>  <LabuteASA>
163.48

>  <PEOE_VSA1>
10.63

>  <PEOE_VSA2>
9.59

>  <PEOE_VSA3>
0

>  <PEOE_VSA4>
0

>  <PEOE_VSA5>
0

>  <PEOE_VSA6>
19.92

>  <PEOE_VSA7>
88.54

>  <PEOE_VSA8>
22.91

>  <PEOE_VSA9>
0

>  <PEOE_VSA10>
0

>  <PEOE_VSA11>
0

>  <PEOE_VSA12>
11.81

>  <PEOE_VSA13>
0

>  <SMR_VSA1>
9.59

>  <SMR_VSA2>
0

>  <SMR_VSA3>
10.63

>  <SMR_VSA4>
34.5

>  <SMR_VSA5>
84.72

>  <SMR_VSA6>
0

>  <SMR_VSA7>
12.15

>  <SMR_VSA8>
0

>  <SMR_VSA9>
0

>  <SlogP_VSA1>
10.63

>  <SlogP_VSA2>
23.4

>  <SlogP_VSA3>
9.59

>  <SlogP_VSA4>
34.5

>  <SlogP_VSA5>
73.14

>  <SlogP_VSA6>
12.15

>  <SlogP_VSA7>
0

>  <SlogP_VSA8>
0

>  <SlogP_VSA9>
0

>  <SlogP_VSA10>
0

>  <SlogP_VSA11>
0

>  <EState_VSA1>
0

>  <EState_VSA2>
40.14

>  <EState_VSA3>
17.75

>  <EState_VSA4>
19.26

>  <EState_VSA5>
19.26

>  <EState_VSA6>
6.08

>  <EState_VSA7>
0

>  <EState_VSA8>
51.33

>  <EState_VSA9>
0

>  <EState_VSA10>
9.59

>  <VSA_EState1>
0

>  <VSA_EState2>
24.88

>  <VSA_EState3>
6.48

>  <VSA_EState4>
0.03

>  <VSA_EState5>
2.41

>  <VSA_EState6>
0.28

>  <VSA_EState7>
10.72

>  <VSA_EState8>
10.96

>  <VSA_EState9>
0

>  <apol>
66.22

>  <bpol>
38.99

>  <nRing>
4

>  <nHRing>
1

>  <naRing>
0

>  <naHRing>
0

>  <nARing 2>
4

>  <nAHRing 2>
1

>  <nFRing>
1

>  <nFHRing>
1

>  <nFaRing>
0

>  <nFaHRing>
0

>  <nFARing 2>
1

>  <nFAHRing 2>
1

>  <nRot>
1

>  <SLogP>
3.81

>  <SMR>
106.84

>  <TopoPSA(NO)>
58.2

>  <TopoPSA>
58.2

>  <JGI1>
0.32

>  <JGI2>
0.12

>  <JGI3>
0.07

>  <JGI4>
0.05

>  <JGI5>
0.04

>  <Diameter>
13

>  <Radius>
7

>  <TMWC10>
136.44

>  <TSRW10>
77.76

>  <MW>
372.28

>  <AMW>
5.91

>  <WPath>
1726

>  <WPol>
53

>  <Zagreb1>
158

>  <Zagreb2>
195

>  <mZagreb2>
5.46

>  <yes>


>  <nAR-cont>
0.199399

>  <nHA-cont>
0.860070871

>  <MWHBN>
0.207312333

>  <MWHBN-cont>
0.999806018

>  <TPSA-cont>
0.59372786

>  <pka_cont>
0.97

>  <yes.1>


>  <BBB_SCORE>
4.231634619

>  <MMFF94 Energy>
38.202

$$$$
Compound 2398
Actelion Java MolfileCreator 2.0

  0  0  0  0  0  0              0 V3000
M  V30 BEGIN CTAB
M  V30 COUNTS 59 60 0 0 0
M  V30 BEGIN ATOM
M  V30 1 O 1.8772 -1.5642 -2.8952 0
M  V30 2 C 2.6923 -1.3291 -2.0133 0
M  V30 3 N 2.4772 -0.592 -0.869 0
M  V30 4 N 3.9871 -1.8045 -2.0586 0
M  V30 5 C 1.3062 0.1025 -0.5072 0
M  V30 6 C 4.4682 -2.6286 -3.1618 0
M  V30 7 C 1.2202 0.5815 0.8036 0
M  V30 8 C 0.253 0.359 -1.3857 0
M  V30 9 C 4.9265 -1.759 -4.3408 0
M  V30 10 C 5.5886 -3.5659 -2.6931 0
M  V30 11 C 0.093 1.2928 1.2264 0
M  V30 12 C -0.8777 1.0704 -0.9598 0
M  V30 13 C 6.2351 -1.0246 -4.0523 0
M  V30 14 C 6.9049 -2.8358 -2.4255 0
M  V30 15 C -0.9636 1.538 0.3496 0
M  V30 16 C 7.335 -1.9879 -3.6181 0
M  V30 17 O -2.0002 2.2481 0.8866 0
M  V30 18 C -3.1698 2.4 0.0798 0
M  V30 19 C -4.2577 3.1276 0.8872 0 CFG=1
M  V30 20 O -5.1853 3.7575 -0.0093 0
M  V30 21 C -5.0635 2.1824 1.8108 0
M  V30 22 N -4.2431 1.5002 2.8102 0
M  V30 23 C -4.9591 0.7039 3.8195 0
M  V30 24 C -5.7349 1.6034 4.7961 0
M  V30 25 C -3.8754 -0.0538 4.6101 0
M  V30 26 C -5.9085 -0.3266 3.1879 0
M  V30 27 H 3.2073 -0.628 -0.1764 0
M  V30 28 H 4.6584 -1.4391 -1.4029 0
M  V30 29 H 3.6251 -3.2452 -3.4974 0
M  V30 30 H 2.0198 0.4056 1.5173 0
M  V30 31 H 0.2821 0.022 -2.4177 0
M  V30 32 H 5.07 -2.401 -5.2193 0
M  V30 33 H 4.1528 -1.0291 -4.6066 0
M  V30 34 H 5.7615 -4.3234 -3.4682 0
M  V30 35 H 5.2809 -4.1033 -1.7881 0
M  V30 36 H 0.0356 1.6529 2.2505 0
M  V30 37 H -1.6675 1.2404 -1.6838 0
M  V30 38 H 6.5558 -0.4829 -4.9494 0
M  V30 39 H 6.0744 -0.2735 -3.2694 0
M  V30 40 H 6.8031 -2.1966 -1.5405 0
M  V30 41 H 7.6877 -3.5675 -2.1951 0
M  V30 42 H 8.2393 -1.4243 -3.3626 0
M  V30 43 H 7.5952 -2.6451 -4.4569 0
M  V30 44 H -3.5465 1.4259 -0.2568 0
M  V30 45 H -2.9209 3.0012 -0.8037 0
M  V30 46 H -3.8068 3.9182 1.4997 0
M  V30 47 H -4.7004 4.4591 -0.4776 0
M  V30 48 H -5.8444 2.7832 2.2912 0
M  V30 49 H -5.5827 1.4521 1.1789 0
M  V30 50 H -3.6208 2.1675 3.2659 0
M  V30 51 H -6.5669 2.1198 4.3061 0
M  V30 52 H -6.1602 1.0136 5.6166 0
M  V30 53 H -5.0836 2.3637 5.2426 0
M  V30 54 H -3.1781 0.636 5.1006 0
M  V30 55 H -4.3212 -0.6795 5.3921 0
M  V30 56 H -3.29 -0.7113 3.9561 0
M  V30 57 H -6.7567 0.1516 2.6862 0
M  V30 58 H -5.3869 -0.95 2.4526 0
M  V30 59 H -6.323 -0.9959 3.9508 0
M  V30 END ATOM
M  V30 BEGIN BOND
M  V30 1 2 1 2
M  V30 2 1 2 3
M  V30 3 1 2 4
M  V30 4 1 3 5
M  V30 5 1 4 6
M  V30 6 2 5 7
M  V30 7 1 5 8
M  V30 8 1 6 9
M  V30 9 1 6 10
M  V30 10 1 7 11
M  V30 11 2 8 12
M  V30 12 1 9 13
M  V30 13 1 10 14
M  V30 14 2 11 15
M  V30 15 1 13 16
M  V30 16 1 15 17
M  V30 17 1 17 18
M  V30 18 1 18 19
M  V30 19 1 19 20
M  V30 20 1 19 21
M  V30 21 1 21 22
M  V30 22 1 22 23
M  V30 23 1 23 24
M  V30 24 1 23 25
M  V30 25 1 23 26
M  V30 26 1 12 15
M  V30 27 1 14 16
M  V30 28 1 3 27
M  V30 29 1 4 28
M  V30 30 1 6 29
M  V30 31 1 7 30
M  V30 32 1 8 31
M  V30 33 1 9 32
M  V30 34 1 9 33
M  V30 35 1 10 34
M  V30 36 1 10 35
M  V30 37 1 11 36
M  V30 38 1 12 37
M  V30 39 1 13 38
M  V30 40 1 13 39
M  V30 41 1 14 40
M  V30 42 1 14 41
M  V30 43 1 16 42
M  V30 44 1 16 43
M  V30 45 1 18 44
M  V30 46 1 18 45
M  V30 47 1 19 46
M  V30 48 1 20 47
M  V30 49 1 21 48
M  V30 50 1 21 49
M  V30 51 1 22 50
M  V30 52 1 24 51
M  V30 53 1 24 52
M  V30 54 1 24 53
M  V30 55 1 25 54
M  V30 56 1 25 55
M  V30 57 1 25 56
M  V30 58 1 26 57
M  V30 59 1 26 58
M  V30 60 1 26 59
M  V30 END BOND
M  V30 BEGIN COLLECTION
M  V30 MDLV30/STERAC1 ATOMS=(1 19)
M  V30 END COLLECTION
M  V30 END CTAB
M  END
>  <Column 1>
2953

>  <level_0>
5094

>  <index>
5095

>  <Unnamed: 0>
5095

>  <NO.>
5107

>  <Name>
talinolol

>  <IUPAC_name>
1-[4-[3-(tert-butylamino)-2-hydroxypropoxy]phenyl]-3-cyclohexylurea

>  <SMILES>
CC(C)(C)NCC(O)COc1ccc(NC(=O)NC2CCCCC2)cc1

>  <CID>
68770

>  <logBB>


>  <BBB+/BBB->
BBB-

>  <Inchi>
InChI=1S/C20H33N3O3/c1-20(2-3)21-13-17(24)14-26-18-11-9-16(10-12-18)23-19(25)22-15-7-5-4-6-8-15/h9-12-15-17-21-24H-4-8-13-14H2-1-3H3-(H2-22-23-25)

>  <threshold>


>  <reference>
R14|R34|

>  <group>
C

>  <Class>
-1

>  <ABC>
19.79

>  <ABCGG>
14.99

>  <nAcid>
0

>  <nBase>
1

>  <nAromAtom>
6

>  <nAromBond>
6

>  <nAtom>
59

>  <nHeavyAtom>
26

>  <nSpiro>
0

>  <nBridgehead>
0

>  <nHetero>
6

>  <nN>
3

>  <nO>
3

>  <nF>
0

>  <BalabanJ>
1.55

>  <BertzCT>
548.41

>  <nBonds>
60

>  <nBondsO>
27

>  <nBondsS>
53

>  <nBondsD>
1

>  <nBondsT>
0

>  <nBondsA>
6

>  <nBondsM>
7

>  <nBondsKS>
56

>  <nBondsKD>
4

>  <RNCG>
0.19

>  <RPCG>
0.13

>  <FCSP3>
0.65

>  <SZ>
33

>  <Sm>
30.26

>  <Sv>
33.36

>  <Sse>
58.63

>  <Sp>
36.59

>  <Si>
67.35

>  <MZ>
0.56

>  <Mm>
0.51

>  <Mv>
0.57

>  <Mse>
0.99

>  <Mp>
0.62

>  <Mi>
1.14

>  <NsCH3>
3

>  <NdCH2>
0

>  <NssCH2>
7

>  <NtCH>
0

>  <NdsCH>
0

>  <NaaCH>
4

>  <NsssCH>
2

>  <NddC>
0

>  <NtsC>
0

>  <NdssC>
1

>  <NaasC>
2

>  <NaaaC>
0

>  <NssssC>
1

>  <NsNH3>
0

>  <NsNH2>
0

>  <NssNH2>
0

>  <NdNH>
0

>  <NssNH>
3

>  <NaaNH>
0

>  <NtN>
0

>  <NsssNH>
0

>  <NdsN>
0

>  <NaaN>
0

>  <NsssN>
0

>  <NddsN>
0

>  <NaasN>
0

>  <NssssN>
0

>  <NsOH>
1

>  <NdO>
1

>  <NssO>
1

>  <NaaO>
0

>  <NsF>
0

>  <NsSiH3>
0

>  <NssSiH2>
0

>  <NsssSiH>
0

>  <NssssSi>
0

>  <NsPH2>
0

>  <NssPH>
0

>  <NsssP>
0

>  <NdsssP>
0

>  <NsssssP>
0

>  <NsSH>
0

>  <NdS>
0

>  <NssS>
0

>  <NaaS>
0

>  <NdssS>
0

>  <NddssS>
0

>  <NsCl>
0

>  <NsBr>
0

>  <NsI>
0

>  <fragCpx>
79.06

>  <fMF>
0.25

>  <nHBAcc>
4

>  <nHBDon>
4

>  <Kier1>
22.29

>  <Kier2>
11.11

>  <Lipinski>
1

>  <GhoseFilter>
1

>  <FilterItLogS>
-4.52

>  <VMcGowan>
301.29

>  <LabuteASA>
156.25

>  <PEOE_VSA1>
25.79

>  <PEOE_VSA2>
0

>  <PEOE_VSA3>
4.79

>  <PEOE_VSA4>
0

>  <PEOE_VSA5>
0

>  <PEOE_VSA6>
19.26

>  <PEOE_VSA7>
57.88

>  <PEOE_VSA8>
23.81

>  <PEOE_VSA9>
0

>  <PEOE_VSA10>
18.46

>  <PEOE_VSA11>
0

>  <PEOE_VSA12>
0

>  <PEOE_VSA13>
0

>  <SMR_VSA1>
14.64

>  <SMR_VSA2>
0

>  <SMR_VSA3>
10.63

>  <SMR_VSA4>
0

>  <SMR_VSA5>
70.56

>  <SMR_VSA6>
18.47

>  <SMR_VSA7>
24.27

>  <SMR_VSA8>
0

>  <SMR_VSA9>
5.75

>  <SlogP_VSA1>
20.69

>  <SlogP_VSA2>
41.97

>  <SlogP_VSA3>
0

>  <SlogP_VSA4>
0

>  <SlogP_VSA5>
52.88

>  <SlogP_VSA6>
24.27

>  <SlogP_VSA7>
0

>  <SlogP_VSA8>
0

>  <SlogP_VSA9>
0

>  <SlogP_VSA10>
10.48

>  <SlogP_VSA11>
5.75

>  <EState_VSA1>
6.1

>  <EState_VSA2>
24.22

>  <EState_VSA3>
12.29

>  <EState_VSA4>
18.53

>  <EState_VSA5>
19.26

>  <EState_VSA6>
24.27

>  <EState_VSA7>
0

>  <EState_VSA8>
36.72

>  <EState_VSA9>
4.74

>  <EState_VSA10>
9.9

>  <VSA_EState1>
5.6

>  <VSA_EState2>
12.04

>  <VSA_EState3>
19.07

>  <VSA_EState4>
0.69

>  <VSA_EState5>
0.66

>  <VSA_EState6>
7.31

>  <VSA_EState7>
5.19

>  <VSA_EState8>
6.85

>  <VSA_EState9>
0

>  <apol>
61.11

>  <bpol>
37.42

>  <nRing>
2

>  <nHRing>
0

>  <naRing>
1

>  <naHRing>
0

>  <nARing 2>
1

>  <nAHRing 2>
0

>  <nFRing>
0

>  <nFHRing>
0

>  <nFaRing>
0

>  <nFaHRing>
0

>  <nFARing 2>
0

>  <nFAHRing 2>
0

>  <nRot>
7

>  <SLogP>
3.27

>  <SMR>
104.73

>  <TopoPSA(NO)>
82.62

>  <TopoPSA>
82.62

>  <JGI1>
0.26

>  <JGI2>
0.06

>  <JGI3>
0.03

>  <JGI4>
0.04

>  <JGI5>
0.02

>  <Diameter>
17

>  <Radius>
9

>  <TMWC10>
125.52

>  <TSRW10>
60.05

>  <MW>
363.25

>  <AMW>
6.16

>  <WPath>
2175

>  <WPol>
31

>  <Zagreb1>
126

>  <Zagreb2>
136

>  <mZagreb2>
5.71

>  <yes>


>  <nAR-cont>
0.816016

>  <nHA-cont>
0.892715677

>  <MWHBN>
0.419746589

>  <MWHBN-cont>
0.398941681

>  <TPSA-cont>
0.423261096

>  <pka_cont>
0.97

>  <yes.1>


>  <BBB_SCORE>
3.638666391

>  <MMFF94 Energy>
-11.514

$$$$
Compound 2399
Actelion Java MolfileCreator 2.0

  0  0  0  0  0  0              0 V3000
M  V30 BEGIN CTAB
M  V30 COUNTS 45 46 0 0 0
M  V30 BEGIN ATOM
M  V30 1 S -1.4365 3.9943 3.3544 0
M  V30 2 N -1.87 3.2334 1.9367 0
M  V30 3 N 0.0913 3.3768 3.5764 0
M  V30 4 C -0.8062 2.4906 1.6216 0
M  V30 5 C 0.3356 2.5644 2.5378 0
M  V30 6 O -0.8644 1.696 0.5204 0
M  V30 7 N 1.5275 1.8895 2.3963 0
M  V30 8 C -2.0324 1.8489 -0.2884 0
M  V30 9 C 2.3133 1.5707 3.6021 0
M  V30 10 C 1.8527 1.0788 1.2142 0
M  V30 11 C -1.9079 0.9499 -1.5291 0 CFG=1
M  V30 12 C 3.8045 1.4342 3.2755 0
M  V30 13 C 3.3723 0.941 1.0282 0
M  V30 14 O -0.7986 1.3725 -2.3447 0
M  V30 15 C -1.6953 -0.5298 -1.1446 0
M  V30 16 O 4.0237 0.4873 2.2212 0
M  V30 17 N -1.6768 -1.3557 -2.361 0
M  V30 18 C -1.2698 -2.7602 -2.1845 0
M  V30 19 C 0.2216 -2.8785 -1.8263 0
M  V30 20 C -1.4984 -3.4424 -3.5466 0
M  V30 21 C -2.1219 -3.4832 -1.129 0
M  V30 22 H -2.117 2.892 -0.6189 0
M  V30 23 H -2.9264 1.5587 0.2773 0
M  V30 24 H 1.9428 0.6205 4.0065 0
M  V30 25 H 2.2064 2.3318 4.3831 0
M  V30 26 H 1.469 1.5294 0.2941 0
M  V30 27 H 1.4066 0.0848 1.3368 0
M  V30 28 H -2.8159 1.0512 -2.1359 0
M  V30 29 H 4.3464 1.0799 4.1581 0
M  V30 30 H 4.2351 2.4008 2.9872 0
M  V30 31 H 3.8148 1.8973 0.7232 0
M  V30 32 H 3.5824 0.2149 0.2363 0
M  V30 33 H -0.9549 2.3023 -2.5837 0
M  V30 34 H -0.7431 -0.6244 -0.6137 0
M  V30 35 H -2.5066 -0.8491 -0.4823 0
M  V30 36 H -1.0471 -0.8956 -3.0261 0
M  V30 37 H 0.4389 -2.4804 -0.8297 0
M  V30 38 H 0.5418 -3.9271 -1.8301 0
M  V30 39 H 0.8492 -2.3419 -2.5472 0
M  V30 40 H -0.8986 -2.9746 -4.3367 0
M  V30 41 H -1.2217 -4.5025 -3.5093 0
M  V30 42 H -2.551 -3.3878 -3.8497 0
M  V30 43 H -1.9391 -3.0962 -0.1206 0
M  V30 44 H -3.1922 -3.3802 -1.3424 0
M  V30 45 H -1.8929 -4.5551 -1.1083 0
M  V30 END ATOM
M  V30 BEGIN BOND
M  V30 1 1 1 2
M  V30 2 1 1 3
M  V30 3 2 2 4
M  V30 4 2 3 5
M  V30 5 1 4 6
M  V30 6 1 5 7
M  V30 7 1 6 8
M  V30 8 1 7 9
M  V30 9 1 7 10
M  V30 10 1 8 11
M  V30 11 1 9 12
M  V30 12 1 10 13
M  V30 13 1 11 14
M  V30 14 1 11 15
M  V30 15 1 12 16
M  V30 16 1 15 17
M  V30 17 1 17 18
M  V30 18 1 18 19
M  V30 19 1 18 20
M  V30 20 1 18 21
M  V30 21 1 4 5
M  V30 22 1 13 16
M  V30 23 1 8 22
M  V30 24 1 8 23
M  V30 25 1 9 24
M  V30 26 1 9 25
M  V30 27 1 10 26
M  V30 28 1 10 27
M  V30 29 1 11 28
M  V30 30 1 12 29
M  V30 31 1 12 30
M  V30 32 1 13 31
M  V30 33 1 13 32
M  V30 34 1 14 33
M  V30 35 1 15 34
M  V30 36 1 15 35
M  V30 37 1 17 36
M  V30 38 1 19 37
M  V30 39 1 19 38
M  V30 40 1 19 39
M  V30 41 1 20 40
M  V30 42 1 20 41
M  V30 43 1 20 42
M  V30 44 1 21 43
M  V30 45 1 21 44
M  V30 46 1 21 45
M  V30 END BOND
M  V30 BEGIN COLLECTION
M  V30 MDLV30/STERAC1 ATOMS=(1 11)
M  V30 END COLLECTION
M  V30 END CTAB
M  END
>  <Column 1>
2954

>  <level_0>
5095

>  <index>
5096

>  <Unnamed: 0>
5096

>  <NO.>
5108

>  <Name>
timolol

>  <IUPAC_name>
1-(tert-butylamino)-3-[(4-morpholin-4-yl-1-2-5-thiadiazol-3-yl)oxy]propan-2-ol

>  <SMILES>
CC(C)(C)NCC(O)COc1nsnc1N1CCOCC1

>  <CID>
5478

>  <logBB>


>  <BBB+/BBB->
BBB-

>  <Inchi>
InChI=1S/C13H24N4O3S/c1-13(2-3)14-8-10(18)9-20-12-11(15-21-16-12)17-4-6-19-7-5-17/h10-14-18H-4-9H2-1-3H3

>  <threshold>


>  <reference>
R14|R23|

>  <group>
C

>  <Class>
-1

>  <ABC>
16.06

>  <ABCGG>
13.92

>  <nAcid>
0

>  <nBase>
1

>  <nAromAtom>
5

>  <nAromBond>
5

>  <nAtom>
45

>  <nHeavyAtom>
21

>  <nSpiro>
0

>  <nBridgehead>
0

>  <nHetero>
8

>  <nN>
4

>  <nO>
3

>  <nF>
0

>  <BalabanJ>
1.71

>  <BertzCT>
429.3

>  <nBonds>
46

>  <nBondsO>
22

>  <nBondsS>
41

>  <nBondsD>
0

>  <nBondsT>
0

>  <nBondsA>
5

>  <nBondsM>
5

>  <nBondsKS>
44

>  <nBondsKD>
2

>  <RNCG>
0.2

>  <RPCG>
0.12

>  <FCSP3>
0.85

>  <SZ>
28.33

>  <Sm>
26.34

>  <Sv>
25.87

>  <Sse>
45.38

>  <Sp>
28.39

>  <Si>
51.69

>  <MZ>
0.63

>  <Mm>
0.59

>  <Mv>
0.57

>  <Mse>
1.01

>  <Mp>
0.63

>  <Mi>
1.15

>  <NsCH3>
3

>  <NdCH2>
0

>  <NssCH2>
6

>  <NtCH>
0

>  <NdsCH>
0

>  <NaaCH>
0

>  <NsssCH>
1

>  <NddC>
0

>  <NtsC>
0

>  <NdssC>
0

>  <NaasC>
2

>  <NaaaC>
0

>  <NssssC>
1

>  <NsNH3>
0

>  <NsNH2>
0

>  <NssNH2>
0

>  <NdNH>
0

>  <NssNH>
1

>  <NaaNH>
0

>  <NtN>
0

>  <NsssNH>
0

>  <NdsN>
0

>  <NaaN>
2

>  <NsssN>
1

>  <NddsN>
0

>  <NaasN>
0

>  <NssssN>
0

>  <NsOH>
1

>  <NdO>
0

>  <NssO>
2

>  <NaaO>
0

>  <NsF>
0

>  <NsSiH3>
0

>  <NssSiH2>
0

>  <NsssSiH>
0

>  <NssssSi>
0

>  <NsPH2>
0

>  <NssPH>
0

>  <NsssP>
0

>  <NdsssP>
0

>  <NsssssP>
0

>  <NsSH>
0

>  <NdS>
0

>  <NssS>
0

>  <NaaS>
1

>  <NdssS>
0

>  <NddssS>
0

>  <NsCl>
0

>  <NsBr>
0

>  <NsI>
0

>  <fragCpx>
64.08

>  <fMF>
0.24

>  <nHBAcc>
8

>  <nHBDon>
2

>  <Kier1>
17.36

>  <Kier2>
8.02

>  <Lipinski>
1

>  <GhoseFilter>
1

>  <FilterItLogS>
-2.37

>  <VMcGowan>
237.59

>  <LabuteASA>
129.13

>  <PEOE_VSA1>
24.8

>  <PEOE_VSA2>
0

>  <PEOE_VSA3>
0

>  <PEOE_VSA4>
4.37

>  <PEOE_VSA5>
4.37

>  <PEOE_VSA6>
0

>  <PEOE_VSA7>
20.77

>  <PEOE_VSA8>
25.17

>  <PEOE_VSA9>
24.94

>  <PEOE_VSA10>
12.71

>  <PEOE_VSA11>
0

>  <PEOE_VSA12>
5.82

>  <PEOE_VSA13>
5.88

>  <SMR_VSA1>
14.58

>  <SMR_VSA2>
0

>  <SMR_VSA3>
14.06

>  <SMR_VSA4>
0

>  <SMR_VSA5>
32.41

>  <SMR_VSA6>
44.35

>  <SMR_VSA7>
0

>  <SMR_VSA8>
0

>  <SMR_VSA9>
5.88

>  <SlogP_VSA1>
14.95

>  <SlogP_VSA2>
64.95

>  <SlogP_VSA3>
4.74

>  <SlogP_VSA4>
0

>  <SlogP_VSA5>
20.77

>  <SlogP_VSA6>
0

>  <SlogP_VSA7>
0

>  <SlogP_VSA8>
0

>  <SlogP_VSA9>
0

>  <SlogP_VSA10>
5.82

>  <SlogP_VSA11>
5.88

>  <EState_VSA1>
6.1

>  <EState_VSA2>
12.15

>  <EState_VSA3>
25.64

>  <EState_VSA4>
30.64

>  <EState_VSA5>
0

>  <EState_VSA6>
0

>  <EState_VSA7>
0

>  <EState_VSA8>
39.73

>  <EState_VSA9>
9.47

>  <EState_VSA10>
5.11

>  <VSA_EState1>
19.39

>  <VSA_EState2>
2.1

>  <VSA_EState3>
13.19

>  <VSA_EState4>
-0.03

>  <VSA_EState5>
1.25

>  <VSA_EState6>
0

>  <VSA_EState7>
-0.58

>  <VSA_EState8>
9.81

>  <VSA_EState9>
0

>  <apol>
47.42

>  <bpol>
34.57

>  <nRing>
2

>  <nHRing>
2

>  <naRing>
1

>  <naHRing>
1

>  <nARing 2>
1

>  <nAHRing 2>
1

>  <nFRing>
0

>  <nFHRing>
0

>  <nFaRing>
0

>  <nFaHRing>
0

>  <nFARing 2>
0

>  <nFAHRing 2>
0

>  <nRot>
6

>  <SLogP>
0.5

>  <SMR>
82.2

>  <TopoPSA(NO)>
79.74

>  <TopoPSA>
107.98

>  <JGI1>
0.23

>  <JGI2>
0.07

>  <JGI3>
0.04

>  <JGI4>
0.04

>  <JGI5>
0.02

>  <Diameter>
12

>  <Radius>
6

>  <TMWC10>
114.78

>  <TSRW10>
67.82

>  <MW>
316.16

>  <AMW>
7.03

>  <WPath>
1063

>  <WPol>
25

>  <Zagreb1>
104

>  <Zagreb2>
115

>  <mZagreb2>
4.6

>  <yes>


>  <nAR-cont>
0.816016

>  <nHA-cont>
0.994529749

>  <MWHBN>
0.562401588

>  <MWHBN-cont>
0

>  <TPSA-cont>
0.246232548

>  <pka_cont>
0.97

>  <yes.1>


>  <BBB_SCORE>
2.788010846

>  <MMFF94 Energy>
102.99

$$$$
Compound 2400
Actelion Java MolfileCreator 2.0

  0  0  0  0  0  0              0 V3000
M  V30 BEGIN CTAB
M  V30 COUNTS 29 29 0 0 0
M  V30 BEGIN ATOM
M  V30 1 Br -0.7979 -1.6763 -5.1956 0
M  V30 2 C -1.142 -0.4799 -3.7906 0
M  V30 3 N -0.9538 0.8365 -3.8778 0
M  V30 4 C -1.6213 -0.8767 -2.5352 0
M  V30 5 O -1.3248 1.334 -2.6371 0
M  V30 6 C -1.719 0.3035 -1.8336 0
M  V30 7 C -2.132 0.6781 -0.456 0 CFG=1
M  V30 8 O -2.8651 -0.4216 0.0952 0
M  V30 9 C -0.9171 0.9968 0.4483 0
M  V30 10 N -0.2928 -0.2434 0.9671 0
M  V30 11 C 1.148 -0.1374 1.2794 0
M  V30 12 C 1.9778 0.0052 -0.0076 0
M  V30 13 C 1.5427 -1.463 1.9597 0
M  V30 14 C 1.4541 1.0179 2.2464 0
M  V30 15 H -1.862 -1.8668 -2.1805 0
M  V30 16 H -2.8046 1.5417 -0.4949 0
M  V30 17 H -2.1715 -1.0669 0.3366 0
M  V30 18 H -0.2157 1.6362 -0.0968 0
M  V30 19 H -1.2694 1.5707 1.3146 0
M  V30 20 H -0.7855 -0.493 1.8295 0
M  V30 21 H 1.8083 0.9631 -0.5095 0
M  V30 22 H 3.0503 -0.0556 0.2112 0
M  V30 23 H 1.7434 -0.7926 -0.722 0
M  V30 24 H 1.3436 -2.3223 1.3082 0
M  V30 25 H 2.6109 -1.4777 2.2063 0
M  V30 26 H 0.9887 -1.6165 2.8936 0
M  V30 27 H 1.2564 1.9956 1.7941 0
M  V30 28 H 0.8526 0.9421 3.1597 0
M  V30 29 H 2.5087 1.008 2.5455 0
M  V30 END ATOM
M  V30 BEGIN BOND
M  V30 1 1 1 2
M  V30 2 2 2 3
M  V30 3 1 2 4
M  V30 4 1 3 5
M  V30 5 2 4 6
M  V30 6 1 6 7
M  V30 7 1 7 8
M  V30 8 1 7 9
M  V30 9 1 9 10
M  V30 10 1 10 11
M  V30 11 1 11 12
M  V30 12 1 11 13
M  V30 13 1 11 14
M  V30 14 1 5 6
M  V30 15 1 4 15
M  V30 16 1 7 16
M  V30 17 1 8 17
M  V30 18 1 9 18
M  V30 19 1 9 19
M  V30 20 1 10 20
M  V30 21 1 12 21
M  V30 22 1 12 22
M  V30 23 1 12 23
M  V30 24 1 13 24
M  V30 25 1 13 25
M  V30 26 1 13 26
M  V30 27 1 14 27
M  V30 28 1 14 28
M  V30 29 1 14 29
M  V30 END BOND
M  V30 BEGIN COLLECTION
M  V30 MDLV30/STERAC1 ATOMS=(1 7)
M  V30 END COLLECTION
M  V30 END CTAB
M  END
>  <Column 1>
2955

>  <level_0>
5096

>  <index>
5097

>  <Unnamed: 0>
5097

>  <NO.>
5109

>  <Name>
broxaterol

>  <IUPAC_name>
1-(3-bromo-1-2-oxazol-5-yl)-2-(tert-butylamino)ethanol

>  <SMILES>
CC(C)(C)NCC(O)c1cc(Br)no1

>  <CID>
71149

>  <logBB>


>  <BBB+/BBB->
BBB-

>  <Inchi>
InChI=1S/C9H15BrN2O2/c1-9(2-3)11-5-6(13)7-4-8(10)12-14-7/h4-6-11-13H-5H2-1-3H3

>  <threshold>


>  <reference>
R14|

>  <group>
C

>  <Class>
-1

>  <ABC>
10.55

>  <ABCGG>
10.1

>  <nAcid>
0

>  <nBase>
1

>  <nAromAtom>
5

>  <nAromBond>
5

>  <nAtom>
29

>  <nHeavyAtom>
14

>  <nSpiro>
0

>  <nBridgehead>
0

>  <nHetero>
5

>  <nN>
2

>  <nO>
2

>  <nF>
0

>  <BalabanJ>
2.25

>  <BertzCT>
293.25

>  <nBonds>
29

>  <nBondsO>
14

>  <nBondsS>
24

>  <nBondsD>
0

>  <nBondsT>
0

>  <nBondsA>
5

>  <nBondsM>
5

>  <nBondsKS>
27

>  <nBondsKD>
2

>  <RNCG>
0.3

>  <RPCG>
0.16

>  <FCSP3>
0.67

>  <SZ>
22.33

>  <Sm>
21.91

>  <Sv>
17.3

>  <Sse>
29.32

>  <Sp>
19.09

>  <Si>
33.16

>  <MZ>
0.77

>  <Mm>
0.76

>  <Mv>
0.6

>  <Mse>
1.01

>  <Mp>
0.66

>  <Mi>
1.14

>  <NsCH3>
3

>  <NdCH2>
0

>  <NssCH2>
1

>  <NtCH>
0

>  <NdsCH>
0

>  <NaaCH>
1

>  <NsssCH>
1

>  <NddC>
0

>  <NtsC>
0

>  <NdssC>
0

>  <NaasC>
2

>  <NaaaC>
0

>  <NssssC>
1

>  <NsNH3>
0

>  <NsNH2>
0

>  <NssNH2>
0

>  <NdNH>
0

>  <NssNH>
1

>  <NaaNH>
0

>  <NtN>
0

>  <NsssNH>
0

>  <NdsN>
0

>  <NaaN>
1

>  <NsssN>
0

>  <NddsN>
0

>  <NaasN>
0

>  <NssssN>
0

>  <NsOH>
1

>  <NdO>
0

>  <NssO>
0

>  <NaaO>
1

>  <NsF>
0

>  <NsSiH3>
0

>  <NssSiH2>
0

>  <NsssSiH>
0

>  <NssssSi>
0

>  <NsPH2>
0

>  <NssPH>
0

>  <NsssP>
0

>  <NdsssP>
0

>  <NsssssP>
0

>  <NsSH>
0

>  <NdS>
0

>  <NssS>
0

>  <NaaS>
0

>  <NdssS>
0

>  <NddssS>
0

>  <NsCl>
0

>  <NsBr>
1

>  <NsI>
0

>  <fragCpx>
14.05

>  <fMF>
0.17

>  <nHBAcc>
4

>  <nHBDon>
2

>  <Kier1>
12.07

>  <Kier2>
4.68

>  <Lipinski>
1

>  <GhoseFilter>
1

>  <FilterItLogS>
-3.08

>  <VMcGowan>
167.41

>  <LabuteASA>
91.8

>  <PEOE_VSA1>
14.95

>  <PEOE_VSA2>
0

>  <PEOE_VSA3>
0

>  <PEOE_VSA4>
0

>  <PEOE_VSA5>
0

>  <PEOE_VSA6>
5.16

>  <PEOE_VSA7>
36.7

>  <PEOE_VSA8>
18.15

>  <PEOE_VSA9>
0

>  <PEOE_VSA10>
10.71

>  <PEOE_VSA11>
5.76

>  <PEOE_VSA12>
0

>  <PEOE_VSA13>
0

>  <SMR_VSA1>
9.63

>  <SMR_VSA2>
0

>  <SMR_VSA3>
10.47

>  <SMR_VSA4>
0

>  <SMR_VSA5>
32.41

>  <SMR_VSA6>
6.54

>  <SMR_VSA7>
16.43

>  <SMR_VSA8>
0

>  <SMR_VSA9>
0

>  <SlogP_VSA1>
5.32

>  <SlogP_VSA2>
22.35

>  <SlogP_VSA3>
0

>  <SlogP_VSA4>
0

>  <SlogP_VSA5>
32.64

>  <SlogP_VSA6>
15.19

>  <SlogP_VSA7>
0

>  <SlogP_VSA8>
0

>  <SlogP_VSA9>
0

>  <SlogP_VSA10>
0

>  <SlogP_VSA11>
0

>  <EState_VSA1>
6.1

>  <EState_VSA2>
5.54

>  <EState_VSA3>
16.91

>  <EState_VSA4>
0

>  <EState_VSA5>
0

>  <EState_VSA6>
6.07

>  <EState_VSA7>
20.77

>  <EState_VSA8>
26.4

>  <EState_VSA9>
4.52

>  <EState_VSA10>
5.11

>  <VSA_EState1>
5.5

>  <VSA_EState2>
0

>  <VSA_EState3>
16.49

>  <VSA_EState4>
-0.02

>  <VSA_EState5>
0.47

>  <VSA_EState6>
1.66

>  <VSA_EState7>
-0.66

>  <VSA_EState8>
6.56

>  <VSA_EState9>
0

>  <apol>
31.89

>  <bpol>
18.73

>  <nRing>
1

>  <nHRing>
1

>  <naRing>
1

>  <naHRing>
1

>  <nARing 2>
0

>  <nAHRing 2>
0

>  <nFRing>
0

>  <nFHRing>
0

>  <nFaRing>
0

>  <nFaHRing>
0

>  <nFARing 2>
0

>  <nFAHRing 2>
0

>  <nRot>
3

>  <SLogP>
1.86

>  <SMR>
56.92

>  <TopoPSA(NO)>
58.29

>  <TopoPSA>
58.29

>  <JGI1>
0.36

>  <JGI2>
0.09

>  <JGI3>
0.06

>  <JGI4>
0.06

>  <JGI5>
0.03

>  <Diameter>
8

>  <Radius>
4

>  <TMWC10>
95.41

>  <TSRW10>
58.6

>  <MW>
262.03

>  <AMW>
9.04

>  <WPath>
331

>  <WPol>
14

>  <Zagreb1>
68

>  <Zagreb2>
73

>  <mZagreb2>
2.99

>  <yes>


>  <nAR-cont>
0.336376

>  <nHA-cont>
0.887625254

>  <MWHBN>
0.370660018

>  <MWHBN-cont>
0.591300324

>  <TPSA-cont>
0.593099604

>  <pka_cont>
0.97

>  <yes.1>


>  <BBB_SCORE>
3.782150949

>  <MMFF94 Energy>
32.277

$$$$
Compound 2401
Actelion Java MolfileCreator 2.0

  0  0  0  0  0  0              0 V3000
M  V30 BEGIN CTAB
M  V30 COUNTS 35 35 0 0 0
M  V30 BEGIN ATOM
M  V30 1 Cl -2.637 -0.2395 -3.037 0
M  V30 2 C -2.2087 -1.3013 -1.7357 0
M  V30 3 C -2.7541 -2.5942 -1.6597 0
M  V30 4 C -1.3029 -0.8282 -0.7755 0
M  V30 5 N -3.6769 -3.049 -2.6008 0
M  V30 6 C -2.3645 -3.3929 -0.5724 0
M  V30 7 C -0.9191 -1.6299 0.3059 0
M  V30 8 Cl -2.9884 -4.998 -0.3862 0
M  V30 9 C -1.4605 -2.9239 0.3882 0
M  V30 10 C 0.0605 -1.1879 1.3775 0 CFG=1
M  V30 11 O 1.2622 -1.9546 1.2248 0
M  V30 12 C 0.434 0.3195 1.4459 0
M  V30 13 N 1.3792 0.7072 0.3802 0
M  V30 14 C 1.7161 2.1428 0.3094 0
M  V30 15 C 0.4878 2.9946 -0.051 0
M  V30 16 C 2.7492 2.2828 -0.8257 0
M  V30 17 C 2.3498 2.6589 1.6116 0
M  V30 18 H -0.9001 0.1748 -0.8937 0
M  V30 19 H -3.9014 -2.4732 -3.4029 0
M  V30 20 H -4.0153 -4.0022 -2.5523 0
M  V30 21 H -1.1681 -3.5752 1.2113 0
M  V30 22 H -0.37 -1.4532 2.3515 0
M  V30 23 H 1.492 -1.8864 0.2801 0
M  V30 24 H -0.4818 0.9181 1.4234 0
M  V30 25 H 0.9228 0.4862 2.413 0
M  V30 26 H 2.2399 0.1763 0.5377 0
M  V30 27 H -0.2535 3.0121 0.7545 0
M  V30 28 H 0.7766 4.0351 -0.2416 0
M  V30 29 H -0.0048 2.6213 -0.9561 0
M  V30 30 H 2.3436 1.9299 -1.7815 0
M  V30 31 H 3.0481 3.3288 -0.9617 0
M  V30 32 H 3.6584 1.707 -0.6153 0
M  V30 33 H 1.6331 2.6671 2.4399 0
M  V30 34 H 3.2054 2.0425 1.9104 0
M  V30 35 H 2.712 3.6866 1.4899 0
M  V30 END ATOM
M  V30 BEGIN BOND
M  V30 1 1 1 2
M  V30 2 2 2 3
M  V30 3 1 2 4
M  V30 4 1 3 5
M  V30 5 1 3 6
M  V30 6 2 4 7
M  V30 7 1 6 8
M  V30 8 2 6 9
M  V30 9 1 7 10
M  V30 10 1 10 11
M  V30 11 1 10 12
M  V30 12 1 12 13
M  V30 13 1 13 14
M  V30 14 1 14 15
M  V30 15 1 14 16
M  V30 16 1 14 17
M  V30 17 1 7 9
M  V30 18 1 4 18
M  V30 19 1 5 19
M  V30 20 1 5 20
M  V30 21 1 9 21
M  V30 22 1 10 22
M  V30 23 1 11 23
M  V30 24 1 12 24
M  V30 25 1 12 25
M  V30 26 1 13 26
M  V30 27 1 15 27
M  V30 28 1 15 28
M  V30 29 1 15 29
M  V30 30 1 16 30
M  V30 31 1 16 31
M  V30 32 1 16 32
M  V30 33 1 17 33
M  V30 34 1 17 34
M  V30 35 1 17 35
M  V30 END BOND
M  V30 BEGIN COLLECTION
M  V30 MDLV30/STERAC1 ATOMS=(1 10)
M  V30 END COLLECTION
M  V30 END CTAB
M  END
>  <Column 1>
2956

>  <level_0>
5097

>  <index>
5098

>  <Unnamed: 0>
5098

>  <NO.>
5110

>  <Name>
clenbuterol

>  <IUPAC_name>
1-(4-amino-3-5-dichlorophenyl)-2-(tert-butylamino)ethanol

>  <SMILES>
CC(C)(C)NCC(O)c1cc(Cl)c(N)c(Cl)c1

>  <CID>
2783

>  <logBB>


>  <BBB+/BBB->
BBB-

>  <Inchi>
InChI=1S/C12H18Cl2N2O/c1-12(2-3)16-6-10(17)7-4-8(13)11(15)9(14)5-7/h4-5-10-16-17H-6-15H2-1-3H3

>  <threshold>


>  <reference>
R14|R23|

>  <group>
C

>  <Class>
-1

>  <ABC>
12.81

>  <ABCGG>
11.7

>  <nAcid>
0

>  <nBase>
1

>  <nAromAtom>
6

>  <nAromBond>
6

>  <nAtom>
35

>  <nHeavyAtom>
17

>  <nSpiro>
0

>  <nBridgehead>
0

>  <nHetero>
5

>  <nN>
2

>  <nO>
1

>  <nF>
0

>  <BalabanJ>
2.45

>  <BertzCT>
378.98

>  <nBonds>
35

>  <nBondsO>
17

>  <nBondsS>
29

>  <nBondsD>
0

>  <nBondsT>
0

>  <nBondsA>
6

>  <nBondsM>
6

>  <nBondsKS>
32

>  <nBondsKD>
3

>  <RNCG>
0.27

>  <RPCG>
0.14

>  <FCSP3>
0.5

>  <SZ>
24.33

>  <Sm>
23.08

>  <Sv>
21.29

>  <Sse>
35.18

>  <Sp>
23.6

>  <Si>
39.83

>  <MZ>
0.7

>  <Mm>
0.66

>  <Mv>
0.61

>  <Mse>
1.01

>  <Mp>
0.67

>  <Mi>
1.14

>  <NsCH3>
3

>  <NdCH2>
0

>  <NssCH2>
1

>  <NtCH>
0

>  <NdsCH>
0

>  <NaaCH>
2

>  <NsssCH>
1

>  <NddC>
0

>  <NtsC>
0

>  <NdssC>
0

>  <NaasC>
4

>  <NaaaC>
0

>  <NssssC>
1

>  <NsNH3>
0

>  <NsNH2>
1

>  <NssNH2>
0

>  <NdNH>
0

>  <NssNH>
1

>  <NaaNH>
0

>  <NtN>
0

>  <NsssNH>
0

>  <NdsN>
0

>  <NaaN>
0

>  <NsssN>
0

>  <NddsN>
0

>  <NaasN>
0

>  <NssssN>
0

>  <NsOH>
1

>  <NdO>
0

>  <NssO>
0

>  <NaaO>
0

>  <NsF>
0

>  <NsSiH3>
0

>  <NssSiH2>
0

>  <NsssSiH>
0

>  <NssssSi>
0

>  <NsPH2>
0

>  <NssPH>
0

>  <NsssP>
0

>  <NdsssP>
0

>  <NsssssP>
0

>  <NsSH>
0

>  <NdS>
0

>  <NssS>
0

>  <NaaS>
0

>  <NdssS>
0

>  <NddssS>
0

>  <NsCl>
2

>  <NsBr>
0

>  <NsI>
0

>  <fragCpx>
17.05

>  <fMF>
0.17

>  <nHBAcc>
3

>  <nHBDon>
3

>  <Kier1>
15.06

>  <Kier2>
5.76

>  <Lipinski>
1

>  <GhoseFilter>
1

>  <FilterItLogS>
-4.11

>  <VMcGowan>
206.49

>  <LabuteASA>
111.91

>  <PEOE_VSA1>
16.16

>  <PEOE_VSA2>
0

>  <PEOE_VSA3>
0

>  <PEOE_VSA4>
0

>  <PEOE_VSA5>
0

>  <PEOE_VSA6>
23.2

>  <PEOE_VSA7>
38.47

>  <PEOE_VSA8>
12.08

>  <PEOE_VSA9>
21.84

>  <PEOE_VSA10>
0

>  <PEOE_VSA11>
0

>  <PEOE_VSA12>
0

>  <PEOE_VSA13>
0

>  <SMR_VSA1>
5.11

>  <SMR_VSA2>
0

>  <SMR_VSA3>
5.32

>  <SMR_VSA4>
0

>  <SMR_VSA5>
32.41

>  <SMR_VSA6>
12.28

>  <SMR_VSA7>
27.74

>  <SMR_VSA8>
0

>  <SMR_VSA9>
0

>  <SlogP_VSA1>
11.05

>  <SlogP_VSA2>
17.19

>  <SlogP_VSA3>
0

>  <SlogP_VSA4>
0

>  <SlogP_VSA5>
32.44

>  <SlogP_VSA6>
12.13

>  <SlogP_VSA7>
10.05

>  <SlogP_VSA8>
0

>  <SlogP_VSA9>
0

>  <SlogP_VSA10>
5.69

>  <SlogP_VSA11>
0

>  <EState_VSA1>
6.1

>  <EState_VSA2>
5.54

>  <EState_VSA3>
27.84

>  <EState_VSA4>
0

>  <EState_VSA5>
0

>  <EState_VSA6>
12.13

>  <EState_VSA7>
20.77

>  <EState_VSA8>
5.32

>  <EState_VSA9>
28.94

>  <EState_VSA10>
5.11

>  <VSA_EState1>
0

>  <VSA_EState2>
0

>  <VSA_EState3>
13.94

>  <VSA_EState4>
6.58

>  <VSA_EState5>
0

>  <VSA_EState6>
3.27

>  <VSA_EState7>
-0.66

>  <VSA_EState8>
6.52

>  <VSA_EState9>
0

>  <apol>
39.4

>  <bpol>
19.08

>  <nRing>
1

>  <nHRing>
0

>  <naRing>
1

>  <naHRing>
0

>  <nARing 2>
0

>  <nAHRing 2>
0

>  <nFRing>
0

>  <nFHRing>
0

>  <nFaRing>
0

>  <nFaHRing>
0

>  <nFARing 2>
0

>  <nFAHRing 2>
0

>  <nRot>
3

>  <SLogP>
3

>  <SMR>
73.59

>  <TopoPSA(NO)>
58.28

>  <TopoPSA>
58.28

>  <JGI1>
0.35

>  <JGI2>
0.11

>  <JGI3>
0.05

>  <JGI4>
0.07

>  <JGI5>
0.04

>  <Diameter>
9

>  <Radius>
5

>  <TMWC10>
104.12

>  <TSRW10>
49.49

>  <MW>
276.08

>  <AMW>
7.89

>  <WPath>
548

>  <WPol>
23

>  <Zagreb1>
84

>  <Zagreb2>
93

>  <mZagreb2>
3.63

>  <yes>


>  <nAR-cont>
0.336376

>  <nHA-cont>
0.976740822

>  <MWHBN>
0.361105229

>  <MWHBN-cont>
0.628191459

>  <TPSA-cont>
0.59316941

>  <pka_cont>
0.97

>  <yes.1>


>  <BBB_SCORE>
3.926742831

>  <MMFF94 Energy>
85.008

$$$$
Compound 2402
Actelion Java MolfileCreator 2.0

  0  0  0  0  0  0              0 V3000
M  V30 BEGIN CTAB
M  V30 COUNTS 26 26 0 0 0
M  V30 BEGIN ATOM
M  V30 1 N 1.6291 0.0 1.4739 0
M  V30 2 C 0.5193 -0.9394 1.2435 0
M  V30 3 C 0.1928 -1.1079 -0.2701 0
M  V30 4 C 0.9561 -2.3039 1.8041 0
M  V30 5 C -0.6972 -0.4442 2.04 0
M  V30 6 C -0.178 0.1511 -1.0241 0
M  V30 7 C -1.5151 0.5629 -1.1114 0
M  V30 8 C 0.8094 0.9228 -1.653 0
M  V30 9 C -1.8553 1.727 -1.8027 0
M  V30 10 C 0.4676 2.0864 -2.3441 0
M  V30 11 C -0.8641 2.4891 -2.4174 0
M  V30 12 H 1.355 0.9253 1.138 0
M  V30 13 H 2.4331 -0.2722 0.9108 0
M  V30 14 H -0.623 -1.8348 -0.3878 0
M  V30 15 H 1.0523 -1.5662 -0.7802 0
M  V30 16 H 0.1575 -3.0468 1.6944 0
M  V30 17 H 1.2026 -2.2409 2.8708 0
M  V30 18 H 1.8403 -2.6879 1.2818 0
M  V30 19 H -0.9916 0.5709 1.7524 0
M  V30 20 H -1.561 -1.1007 1.8855 0
M  V30 21 H -0.4877 -0.4252 3.1164 0
M  V30 22 H -2.3025 -0.0201 -0.639 0
M  V30 23 H 1.8532 0.6207 -1.6113 0
M  V30 24 H -2.8949 2.0387 -1.8617 0
M  V30 25 H 1.2407 2.678 -2.8275 0
M  V30 26 H -1.13 3.3948 -2.9559 0
M  V30 END ATOM
M  V30 BEGIN BOND
M  V30 1 1 1 2
M  V30 2 1 2 3
M  V30 3 1 2 4
M  V30 4 1 2 5
M  V30 5 1 3 6
M  V30 6 2 6 7
M  V30 7 1 6 8
M  V30 8 1 7 9
M  V30 9 2 8 10
M  V30 10 2 9 11
M  V30 11 1 10 11
M  V30 12 1 1 12
M  V30 13 1 1 13
M  V30 14 1 3 14
M  V30 15 1 3 15
M  V30 16 1 4 16
M  V30 17 1 4 17
M  V30 18 1 4 18
M  V30 19 1 5 19
M  V30 20 1 5 20
M  V30 21 1 5 21
M  V30 22 1 7 22
M  V30 23 1 8 23
M  V30 24 1 9 24
M  V30 25 1 10 25
M  V30 26 1 11 26
M  V30 END BOND
M  V30 END CTAB
M  END
>  <Column 1>
2959

>  <level_0>
5100

>  <index>
5101

>  <Unnamed: 0>
5101

>  <NO.>
5113

>  <Name>
phentermine

>  <IUPAC_name>
2-methyl-1-phenylpropan-2-amine

>  <SMILES>
CC(C)(N)Cc1ccccc1

>  <CID>
4771

>  <logBB>


>  <BBB+/BBB->
BBB+

>  <Inchi>
InChI=1S/C10H15N/c1-10(2-11)8-9-6-4-3-5-7-9/h3-7H-8-11H2-1-2H3

>  <threshold>


>  <reference>
R14|R23|

>  <group>
C

>  <Class>
-1

>  <ABC>
8.25

>  <ABCGG>
7.63

>  <nAcid>
0

>  <nBase>
1

>  <nAromAtom>
6

>  <nAromBond>
6

>  <nAtom>
26

>  <nHeavyAtom>
11

>  <nSpiro>
0

>  <nBridgehead>
0

>  <nHetero>
1

>  <nN>
1

>  <nO>
0

>  <nF>
0

>  <BalabanJ>
2.24

>  <BertzCT>
208.06

>  <nBonds>
26

>  <nBondsO>
11

>  <nBondsS>
20

>  <nBondsD>
0

>  <nBondsT>
0

>  <nBondsA>
6

>  <nBondsM>
6

>  <nBondsKS>
23

>  <nBondsKD>
3

>  <RNCG>
0.42

>  <RPCG>
0.15

>  <FCSP3>
0.4

>  <SZ>
13.67

>  <Sm>
12.43

>  <Sv>
14.82

>  <Sse>
25.32

>  <Sp>
16.65

>  <Si>
29.41

>  <MZ>
0.53

>  <Mm>
0.48

>  <Mv>
0.57

>  <Mse>
0.97

>  <Mp>
0.64

>  <Mi>
1.13

>  <NsCH3>
2

>  <NdCH2>
0

>  <NssCH2>
1

>  <NtCH>
0

>  <NdsCH>
0

>  <NaaCH>
5

>  <NsssCH>
0

>  <NddC>
0

>  <NtsC>
0

>  <NdssC>
0

>  <NaasC>
1

>  <NaaaC>
0

>  <NssssC>
1

>  <NsNH3>
0

>  <NsNH2>
1

>  <NssNH2>
0

>  <NdNH>
0

>  <NssNH>
0

>  <NaaNH>
0

>  <NtN>
0

>  <NsssNH>
0

>  <NdsN>
0

>  <NaaN>
0

>  <NsssN>
0

>  <NddsN>
0

>  <NaasN>
0

>  <NssssN>
0

>  <NsOH>
0

>  <NdO>
0

>  <NssO>
0

>  <NaaO>
0

>  <NsF>
0

>  <NsSiH3>
0

>  <NssSiH2>
0

>  <NsssSiH>
0

>  <NssssSi>
0

>  <NsPH2>
0

>  <NssPH>
0

>  <NsssP>
0

>  <NdsssP>
0

>  <NsssssP>
0

>  <NsSH>
0

>  <NdS>
0

>  <NssS>
0

>  <NaaS>
0

>  <NdssS>
0

>  <NddssS>
0

>  <NsCl>
0

>  <NsBr>
0

>  <NsI>
0

>  <fragCpx>
11.01

>  <fMF>
0.23

>  <nHBAcc>
1

>  <nHBDon>
1

>  <Kier1>
9.09

>  <Kier2>
3.6

>  <Lipinski>
1

>  <GhoseFilter>
0

>  <FilterItLogS>
-2.49

>  <VMcGowan>
137.98

>  <LabuteASA>
68.23

>  <PEOE_VSA1>
5.73

>  <PEOE_VSA2>
0

>  <PEOE_VSA3>
0

>  <PEOE_VSA4>
0

>  <PEOE_VSA5>
0

>  <PEOE_VSA6>
30.33

>  <PEOE_VSA7>
25.83

>  <PEOE_VSA8>
5.54

>  <PEOE_VSA9>
0

>  <PEOE_VSA10>
0

>  <PEOE_VSA11>
0

>  <PEOE_VSA12>
0

>  <PEOE_VSA13>
0

>  <SMR_VSA1>
0

>  <SMR_VSA2>
0

>  <SMR_VSA3>
0

>  <SMR_VSA4>
5.73

>  <SMR_VSA5>
25.81

>  <SMR_VSA6>
0

>  <SMR_VSA7>
35.9

>  <SMR_VSA8>
0

>  <SMR_VSA9>
0

>  <SlogP_VSA1>
5.73

>  <SlogP_VSA2>
5.54

>  <SlogP_VSA3>
6.42

>  <SlogP_VSA4>
0

>  <SlogP_VSA5>
19.41

>  <SlogP_VSA6>
30.33

>  <SlogP_VSA7>
0

>  <SlogP_VSA8>
0

>  <SlogP_VSA9>
0

>  <SlogP_VSA10>
0

>  <SlogP_VSA11>
0

>  <EState_VSA1>
0

>  <EState_VSA2>
5.54

>  <EState_VSA3>
0

>  <EState_VSA4>
6.42

>  <EState_VSA5>
5.56

>  <EState_VSA6>
0

>  <EState_VSA7>
32.05

>  <EState_VSA8>
12.13

>  <EState_VSA9>
5.73

>  <EState_VSA10>
0

>  <VSA_EState1>
0

>  <VSA_EState2>
0

>  <VSA_EState3>
0

>  <VSA_EState4>
7.08

>  <VSA_EState5>
0

>  <VSA_EState6>
10.32

>  <VSA_EState7>
0.94

>  <VSA_EState8>
4.08

>  <VSA_EState9>
0

>  <apol>
27.8

>  <bpol>
14.48

>  <nRing>
1

>  <nHRing>
0

>  <naRing>
1

>  <naHRing>
0

>  <nARing 2>
0

>  <nAHRing 2>
0

>  <nFRing>
0

>  <nFHRing>
0

>  <nFaRing>
0

>  <nFaHRing>
0

>  <nFARing 2>
0

>  <nFAHRing 2>
0

>  <nRot>
2

>  <SLogP>
1.97

>  <SMR>
48.41

>  <TopoPSA(NO)>
26.02

>  <TopoPSA>
26.02

>  <JGI1>
0.32

>  <JGI2>
0.04

>  <JGI3>
0.07

>  <JGI4>
0.05

>  <JGI5>
0.03

>  <Diameter>
6

>  <Radius>
3

>  <TMWC10>
86.17

>  <TSRW10>
40.72

>  <MW>
149.12

>  <AMW>
5.74

>  <WPath>
160

>  <WPol>
10

>  <Zagreb1>
52

>  <Zagreb2>
54

>  <mZagreb2>
2.38

>  <yes>


>  <nAR-cont>
0.336376

>  <nHA-cont>
0.720786536

>  <MWHBN>
0.163780446

>  <MWHBN-cont>
0.963276661

>  <TPSA-cont>
0.818364243

>  <pka_cont>
0.97

>  <yes.1>


>  <BBB_SCORE>
4.623806012

>  <MMFF94 Energy>
34.89

$$$$
Compound 2403
Actelion Java MolfileCreator 2.0

  0  0  0  0  0  0              0 V3000
M  V30 BEGIN CTAB
M  V30 COUNTS 32 33 0 0 0
M  V30 BEGIN ATOM
M  V30 1 Cl -1.552 3.7605 0.98 0
M  V30 2 C -0.6823 4.4599 -0.3788 0
M  V30 3 Cl -0.2117 6.138 -0.1131 0
M  V30 4 C 0.2066 3.6184 -1.2711 0 CFG=2
M  V30 5 C -1.1482 4.0757 -1.7552 0
M  V30 6 C 0.4884 2.159 -0.9945 0
M  V30 7 C 1.1841 1.7655 0.1625 0
M  V30 8 C 0.014 1.1389 -1.8372 0
M  V30 9 C 1.4051 0.4179 0.4611 0
M  V30 10 C 0.232 -0.2103 -1.544 0
M  V30 11 C 0.8944 -0.5672 -0.3747 0
M  V30 12 O 1.1493 -1.8832 -0.1247 0
M  V30 13 C 0.2068 -2.5833 0.7225 0
M  V30 14 C 0.6714 -4.0515 0.6802 0
M  V30 15 C 0.2852 -2.1028 2.1771 0
M  V30 16 C -1.2309 -2.5311 0.187 0
M  V30 17 O 1.6063 -4.5225 0.0505 0
M  V30 18 O -0.0784 -4.8807 1.4429 0
M  V30 19 H 1.0529 4.1398 -1.7172 0
M  V30 20 H -1.9552 3.3567 -1.8329 0
M  V30 21 H -1.1781 4.8419 -2.5211 0
M  V30 22 H 1.5725 2.5223 0.8422 0
M  V30 23 H -0.5207 1.3946 -2.7495 0
M  V30 24 H 1.9787 0.1491 1.3431 0
M  V30 25 H -0.1157 -0.9766 -2.2308 0
M  V30 26 H -0.0951 -1.0818 2.2845 0
M  V30 27 H 1.3223 -2.1034 2.5317 0
M  V30 28 H -0.3012 -2.737 2.8508 0
M  V30 29 H -1.2707 -2.8642 -0.8563 0
M  V30 30 H -1.9055 -3.1698 0.7677 0
M  V30 31 H -1.6382 -1.5151 0.2216 0
M  V30 32 H 0.3431 -5.7558 1.3054 0
M  V30 END ATOM
M  V30 BEGIN BOND
M  V30 1 1 1 2
M  V30 2 1 2 3
M  V30 3 1 2 4
M  V30 4 1 2 5
M  V30 5 1 4 6
M  V30 6 2 6 7
M  V30 7 1 6 8
M  V30 8 1 7 9
M  V30 9 2 8 10
M  V30 10 2 9 11
M  V30 11 1 11 12
M  V30 12 1 12 13
M  V30 13 1 13 14
M  V30 14 1 13 15
M  V30 15 1 13 16
M  V30 16 2 14 17
M  V30 17 1 14 18
M  V30 18 1 4 5
M  V30 19 1 10 11
M  V30 20 1 4 19
M  V30 21 1 5 20
M  V30 22 1 5 21
M  V30 23 1 7 22
M  V30 24 1 8 23
M  V30 25 1 9 24
M  V30 26 1 10 25
M  V30 27 1 15 26
M  V30 28 1 15 27
M  V30 29 1 15 28
M  V30 30 1 16 29
M  V30 31 1 16 30
M  V30 32 1 16 31
M  V30 33 1 18 32
M  V30 END BOND
M  V30 BEGIN COLLECTION
M  V30 MDLV30/STERAC1 ATOMS=(1 4)
M  V30 END COLLECTION
M  V30 END CTAB
M  END
>  <Column 1>
2960

>  <level_0>
5101

>  <index>
5102

>  <Unnamed: 0>
5102

>  <NO.>
5114

>  <Name>
ciprofibrate

>  <IUPAC_name>
2-[4-(2-2-dichlorocyclopropyl)phenoxy]-2-methylpropanoic acid

>  <SMILES>
CC(C)(Oc1ccc(C2CC2(Cl)Cl)cc1)C(=O)O

>  <CID>
2763

>  <logBB>


>  <BBB+/BBB->
BBB-

>  <Inchi>
InChI=1S/C13H14Cl2O3/c1-12(2-11(16)17)18-9-5-3-8(4-6-9)10-7-13(10-14)15/h3-6-10H-7H2-1-2H3-(H-16-17)

>  <threshold>


>  <reference>
R14|

>  <group>
C

>  <Class>
-1

>  <ABC>
14.13

>  <ABCGG>
12.9

>  <nAcid>
1

>  <nBase>
0

>  <nAromAtom>
6

>  <nAromBond>
6

>  <nAtom>
32

>  <nHeavyAtom>
18

>  <nSpiro>
0

>  <nBridgehead>
0

>  <nHetero>
5

>  <nN>
0

>  <nO>
3

>  <nF>
0

>  <BalabanJ>
1.77

>  <BertzCT>
465.63

>  <nBonds>
33

>  <nBondsO>
19

>  <nBondsS>
26

>  <nBondsD>
1

>  <nBondsT>
0

>  <nBondsA>
6

>  <nBondsM>
7

>  <nBondsKS>
29

>  <nBondsKD>
4

>  <RNCG>
0.29

>  <RPCG>
0.21

>  <FCSP3>
0.46

>  <SZ>
25

>  <Sm>
24.07

>  <Sv>
21.12

>  <Sse>
32.74

>  <Sp>
22.64

>  <Si>
35.84

>  <MZ>
0.78

>  <Mm>
0.75

>  <Mv>
0.66

>  <Mse>
1.02

>  <Mp>
0.71

>  <Mi>
1.12

>  <NsCH3>
2

>  <NdCH2>
0

>  <NssCH2>
1

>  <NtCH>
0

>  <NdsCH>
0

>  <NaaCH>
4

>  <NsssCH>
1

>  <NddC>
0

>  <NtsC>
0

>  <NdssC>
1

>  <NaasC>
2

>  <NaaaC>
0

>  <NssssC>
2

>  <NsNH3>
0

>  <NsNH2>
0

>  <NssNH2>
0

>  <NdNH>
0

>  <NssNH>
0

>  <NaaNH>
0

>  <NtN>
0

>  <NsssNH>
0

>  <NdsN>
0

>  <NaaN>
0

>  <NsssN>
0

>  <NddsN>
0

>  <NaasN>
0

>  <NssssN>
0

>  <NsOH>
1

>  <NdO>
1

>  <NssO>
1

>  <NaaO>
0

>  <NsF>
0

>  <NsSiH3>
0

>  <NssSiH2>
0

>  <NsssSiH>
0

>  <NssssSi>
0

>  <NsPH2>
0

>  <NssPH>
0

>  <NsssP>
0

>  <NdsssP>
0

>  <NsssssP>
0

>  <NsSH>
0

>  <NdS>
0

>  <NssS>
0

>  <NaaS>
0

>  <NdssS>
0

>  <NddssS>
0

>  <NsCl>
2

>  <NsBr>
0

>  <NsI>
0

>  <fragCpx>
55.05

>  <fMF>
0.28

>  <nHBAcc>
2

>  <nHBDon>
1

>  <Kier1>
14.41

>  <Kier2>
4.84

>  <Lipinski>
1

>  <GhoseFilter>
1

>  <FilterItLogS>
-3.54

>  <VMcGowan>
197.2

>  <LabuteASA>
115.66

>  <PEOE_VSA1>
9.84

>  <PEOE_VSA2>
0

>  <PEOE_VSA3>
4.79

>  <PEOE_VSA4>
0

>  <PEOE_VSA5>
23.2

>  <PEOE_VSA6>
12.13

>  <PEOE_VSA7>
37.96

>  <PEOE_VSA8>
5.92

>  <PEOE_VSA9>
0

>  <PEOE_VSA10>
10.08

>  <PEOE_VSA11>
5.6

>  <PEOE_VSA12>
0

>  <PEOE_VSA13>
0

>  <SMR_VSA1>
14.64

>  <SMR_VSA2>
0

>  <SMR_VSA3>
0

>  <SMR_VSA4>
0

>  <SMR_VSA5>
36.12

>  <SMR_VSA6>
0

>  <SMR_VSA7>
29.83

>  <SMR_VSA8>
0

>  <SMR_VSA9>
5.75

>  <SlogP_VSA1>
4.74

>  <SlogP_VSA2>
21.01

>  <SlogP_VSA3>
4.79

>  <SlogP_VSA4>
0

>  <SlogP_VSA5>
31.75

>  <SlogP_VSA6>
24.27

>  <SlogP_VSA7>
0

>  <SlogP_VSA8>
0

>  <SlogP_VSA9>
0

>  <SlogP_VSA10>
0

>  <SlogP_VSA11>
5.75

>  <EState_VSA1>
15.9

>  <EState_VSA2>
5.92

>  <EState_VSA3>
5.75

>  <EState_VSA4>
11.98

>  <EState_VSA5>
13.85

>  <EState_VSA6>
12.13

>  <EState_VSA7>
12.13

>  <EState_VSA8>
0

>  <EState_VSA9>
33.05

>  <EState_VSA10>
4.79

>  <VSA_EState1>
4.75

>  <VSA_EState2>
10.94

>  <VSA_EState3>
8.96

>  <VSA_EState4>
-0.2

>  <VSA_EState5>
-0.33

>  <VSA_EState6>
7.21

>  <VSA_EState7>
0.75

>  <VSA_EState8>
3.01

>  <VSA_EState9>
0

>  <apol>
37.81

>  <bpol>
17.67

>  <nRing>
2

>  <nHRing>
0

>  <naRing>
1

>  <naHRing>
0

>  <nARing 2>
1

>  <nAHRing 2>
0

>  <nFRing>
0

>  <nFHRing>
0

>  <nFaRing>
0

>  <nFaHRing>
0

>  <nFARing 2>
0

>  <nFAHRing 2>
0

>  <nRot>
4

>  <SLogP>
3.59

>  <SMR>
70.58

>  <TopoPSA(NO)>
46.53

>  <TopoPSA>
46.53

>  <JGI1>
0.37

>  <JGI2>
0.14

>  <JGI3>
0.06

>  <JGI4>
0.06

>  <JGI5>
0.03

>  <Diameter>
10

>  <Radius>
5

>  <TMWC10>
110.48

>  <TSRW10>
72.02

>  <MW>
288.03

>  <AMW>
9

>  <WPath>
660

>  <WPol>
24

>  <Zagreb1>
98

>  <Zagreb2>
115

>  <mZagreb2>
3.69

>  <yes>


>  <nAR-cont>
0.816016

>  <nHA-cont>
0.991161285

>  <MWHBN>
0.176767489

>  <MWHBN-cont>
0.983424526

>  <TPSA-cont>
0.675191707

>  <pka_cont>
0.97

>  <yes.1>


>  <BBB_SCORE>
5.117697487

>  <MMFF94 Energy>
34.789

$$$$
Compound 2404
Actelion Java MolfileCreator 2.0

  0  0  0  0  0  0              0 V3000
M  V30 BEGIN CTAB
M  V30 COUNTS 45 46 0 0 0
M  V30 BEGIN ATOM
M  V30 1 Cl -9.6896 -1.7564 -1.1174 0
M  V30 2 C -8.0274 -1.5743 -0.714 0
M  V30 3 C -7.3161 -0.4737 -1.1921 0
M  V30 4 C -7.3987 -2.5303 0.0813 0
M  V30 5 C -5.9641 -0.3211 -0.8669 0
M  V30 6 C -6.0479 -2.3807 0.4067 0
M  V30 7 C -5.3277 -1.2697 -0.0545 0
M  V30 8 C -3.8898 -1.1594 0.3166 0
M  V30 9 O -3.2388 -2.1702 0.5551 0
M  V30 10 N -3.3686 0.1149 0.3966 0
M  V30 11 C -1.9823 0.3412 0.7641 0
M  V30 12 C -1.023 0.0695 -0.3971 0
M  V30 13 C 0.4082 0.3583 -0.0181 0
M  V30 14 C 0.9904 1.5975 -0.3159 0
M  V30 15 C 1.1591 -0.5982 0.6794 0
M  V30 16 C 2.3085 1.8649 0.0586 0
M  V30 17 C 2.4765 -0.3278 1.0542 0
M  V30 18 C 3.0592 0.8879 0.7089 0
M  V30 19 O 4.3259 1.1881 1.1176 0
M  V30 20 C 5.408 0.7772 0.2484 0
M  V30 21 C 6.6579 1.4472 0.8502 0
M  V30 22 C 5.6154 -0.7417 0.2902 0
M  V30 23 C 5.2526 1.2874 -1.1914 0
M  V30 24 O 6.7158 2.1943 1.8154 0
M  V30 25 O 7.8033 1.1491 0.1936 0
M  V30 26 H -7.8057 0.2619 -1.8255 0
M  V30 27 H -7.9486 -3.3934 0.4478 0
M  V30 28 H -5.4203 0.5236 -1.2792 0
M  V30 29 H -5.5566 -3.1319 1.0232 0
M  V30 30 H -3.9704 0.9201 0.2964 0
M  V30 31 H -1.7424 -0.2951 1.6243 0
M  V30 32 H -1.9054 1.3842 1.0918 0
M  V30 33 H -1.1045 -0.9722 -0.7319 0
M  V30 34 H -1.3066 0.6781 -1.2657 0
M  V30 35 H 0.4201 2.3661 -0.8324 0
M  V30 36 H 0.7151 -1.556 0.9459 0
M  V30 37 H 2.746 2.8363 -0.1534 0
M  V30 38 H 3.0348 -1.0642 1.6243 0
M  V30 39 H 4.7882 -1.2735 -0.1906 0
M  V30 40 H 5.674 -1.098 1.3251 0
M  V30 41 H 6.5342 -1.0449 -0.2233 0
M  V30 42 H 5.097 2.3723 -1.2064 0
M  V30 43 H 6.1382 1.0688 -1.7982 0
M  V30 44 H 4.3949 0.827 -1.6931 0
M  V30 45 H 8.4851 1.6454 0.6951 0
M  V30 END ATOM
M  V30 BEGIN BOND
M  V30 1 1 1 2
M  V30 2 2 2 3
M  V30 3 1 2 4
M  V30 4 1 3 5
M  V30 5 2 4 6
M  V30 6 2 5 7
M  V30 7 1 7 8
M  V30 8 2 8 9
M  V30 9 1 8 10
M  V30 10 1 10 11
M  V30 11 1 11 12
M  V30 12 1 12 13
M  V30 13 2 13 14
M  V30 14 1 13 15
M  V30 15 1 14 16
M  V30 16 2 15 17
M  V30 17 2 16 18
M  V30 18 1 18 19
M  V30 19 1 19 20
M  V30 20 1 20 21
M  V30 21 1 20 22
M  V30 22 1 20 23
M  V30 23 2 21 24
M  V30 24 1 21 25
M  V30 25 1 6 7
M  V30 26 1 17 18
M  V30 27 1 3 26
M  V30 28 1 4 27
M  V30 29 1 5 28
M  V30 30 1 6 29
M  V30 31 1 10 30
M  V30 32 1 11 31
M  V30 33 1 11 32
M  V30 34 1 12 33
M  V30 35 1 12 34
M  V30 36 1 14 35
M  V30 37 1 15 36
M  V30 38 1 16 37
M  V30 39 1 17 38
M  V30 40 1 22 39
M  V30 41 1 22 40
M  V30 42 1 22 41
M  V30 43 1 23 42
M  V30 44 1 23 43
M  V30 45 1 23 44
M  V30 46 1 25 45
M  V30 END BOND
M  V30 END CTAB
M  END
>  <Column 1>
2961

>  <level_0>
5102

>  <index>
5103

>  <Unnamed: 0>
5103

>  <NO.>
5115

>  <Name>
bezafibrate

>  <IUPAC_name>
2-[4-[2-[(4-chlorobenzoyl)amino]ethyl]phenoxy]-2-methylpropanoic acid

>  <SMILES>
CC(C)(Oc1ccc(CCNC(=O)c2ccc(Cl)cc2)cc1)C(=O)O

>  <CID>
39042

>  <logBB>


>  <BBB+/BBB->
BBB-

>  <Inchi>
InChI=1S/C19H20ClNO4/c1-19(2-18(23)24)25-16-9-3-13(4-10-16)11-12-21-17(22)14-5-7-15(20)8-6-14/h3-10H-11-12H2-1-2H3-(H-21-22)(H-23-24)

>  <threshold>


>  <reference>
R14|R23|

>  <group>
C

>  <Class>
-1

>  <ABC>
19.04

>  <ABCGG>
14.82

>  <nAcid>
1

>  <nBase>
0

>  <nAromAtom>
12

>  <nAromBond>
12

>  <nAtom>
45

>  <nHeavyAtom>
25

>  <nSpiro>
0

>  <nBridgehead>
0

>  <nHetero>
6

>  <nN>
1

>  <nO>
4

>  <nF>
0

>  <BalabanJ>
1.59

>  <BertzCT>
739.02

>  <nBonds>
46

>  <nBondsO>
26

>  <nBondsS>
32

>  <nBondsD>
2

>  <nBondsT>
0

>  <nBondsA>
12

>  <nBondsM>
14

>  <nBondsKS>
38

>  <nBondsKD>
8

>  <RNCG>
0.21

>  <RPCG>
0.15

>  <FCSP3>
0.26

>  <SZ>
31.67

>  <Sm>
30.12

>  <Sv>
29.13

>  <Sse>
45.63

>  <Sp>
30.87

>  <Si>
50.43

>  <MZ>
0.7

>  <Mm>
0.67

>  <Mv>
0.65

>  <Mse>
1.01

>  <Mp>
0.69

>  <Mi>
1.12

>  <NsCH3>
2

>  <NdCH2>
0

>  <NssCH2>
2

>  <NtCH>
0

>  <NdsCH>
0

>  <NaaCH>
8

>  <NsssCH>
0

>  <NddC>
0

>  <NtsC>
0

>  <NdssC>
2

>  <NaasC>
4

>  <NaaaC>
0

>  <NssssC>
1

>  <NsNH3>
0

>  <NsNH2>
0

>  <NssNH2>
0

>  <NdNH>
0

>  <NssNH>
1

>  <NaaNH>
0

>  <NtN>
0

>  <NsssNH>
0

>  <NdsN>
0

>  <NaaN>
0

>  <NsssN>
0

>  <NddsN>
0

>  <NaasN>
0

>  <NssssN>
0

>  <NsOH>
1

>  <NdO>
2

>  <NssO>
1

>  <NaaO>
0

>  <NsF>
0

>  <NsSiH3>
0

>  <NssSiH2>
0

>  <NsssSiH>
0

>  <NssssSi>
0

>  <NsPH2>
0

>  <NssPH>
0

>  <NsssP>
0

>  <NdsssP>
0

>  <NsssssP>
0

>  <NsSH>
0

>  <NdS>
0

>  <NssS>
0

>  <NaaS>
0

>  <NdssS>
0

>  <NddssS>
0

>  <NsCl>
1

>  <NsBr>
0

>  <NsI>
0

>  <fragCpx>
76.06

>  <fMF>
0.36

>  <nHBAcc>
3

>  <nHBDon>
2

>  <Kier1>
21.3

>  <Kier2>
9.8

>  <Lipinski>
1

>  <GhoseFilter>
1

>  <FilterItLogS>
-5.02

>  <VMcGowan>
268.15

>  <LabuteASA>
151.13

>  <PEOE_VSA1>
15.16

>  <PEOE_VSA2>
4.79

>  <PEOE_VSA3>
4.79

>  <PEOE_VSA4>
0

>  <PEOE_VSA5>
0

>  <PEOE_VSA6>
23.73

>  <PEOE_VSA7>
62.23

>  <PEOE_VSA8>
17.13

>  <PEOE_VSA9>
0

>  <PEOE_VSA10>
5.75

>  <PEOE_VSA11>
5.6

>  <PEOE_VSA12>
0

>  <PEOE_VSA13>
5.91

>  <SMR_VSA1>
19.43

>  <SMR_VSA2>
0

>  <SMR_VSA3>
5.32

>  <SMR_VSA4>
0

>  <SMR_VSA5>
25.87

>  <SMR_VSA6>
6.54

>  <SMR_VSA7>
64.68

>  <SMR_VSA8>
0

>  <SMR_VSA9>
5.75

>  <SlogP_VSA1>
10.05

>  <SlogP_VSA2>
29.13

>  <SlogP_VSA3>
11.22

>  <SlogP_VSA4>
0

>  <SlogP_VSA5>
29.77

>  <SlogP_VSA6>
48.53

>  <SlogP_VSA7>
5.02

>  <SlogP_VSA8>
0

>  <SlogP_VSA9>
0

>  <SlogP_VSA10>
0

>  <SlogP_VSA11>
5.75

>  <EState_VSA1>
11.57

>  <EState_VSA2>
5.91

>  <EState_VSA3>
29.3

>  <EState_VSA4>
5.56

>  <EState_VSA5>
13.85

>  <EState_VSA6>
36.4

>  <EState_VSA7>
12.13

>  <EState_VSA8>
5.32

>  <EState_VSA9>
21.44

>  <EState_VSA10>
9.59

>  <VSA_EState1>
5.45

>  <VSA_EState2>
23.05

>  <VSA_EState3>
12.49

>  <VSA_EState4>
0.29

>  <VSA_EState5>
-0.69

>  <VSA_EState6>
13.84

>  <VSA_EState7>
0.65

>  <VSA_EState8>
3.48

>  <VSA_EState9>
0

>  <apol>
51.55

>  <bpol>
24.62

>  <nRing>
2

>  <nHRing>
0

>  <naRing>
2

>  <naHRing>
0

>  <nARing 2>
0

>  <nAHRing 2>
0

>  <nFRing>
0

>  <nFHRing>
0

>  <nFaRing>
0

>  <nFaHRing>
0

>  <nFARing 2>
0

>  <nFAHRing 2>
0

>  <nRot>
7

>  <SLogP>
3.55

>  <SMR>
96.27

>  <TopoPSA(NO)>
75.63

>  <TopoPSA>
75.63

>  <JGI1>
0.27

>  <JGI2>
0.1

>  <JGI3>
0.04

>  <JGI4>
0.04

>  <JGI5>
0.03

>  <Diameter>
16

>  <Radius>
8

>  <TMWC10>
124.31

>  <TSRW10>
59.3

>  <MW>
361.11

>  <AMW>
8.02

>  <WPath>
1882

>  <WPol>
35

>  <Zagreb1>
124

>  <Zagreb2>
139

>  <mZagreb2>
5.49

>  <yes>


>  <nAR-cont>
0.336376

>  <nHA-cont>
0.921834225

>  <MWHBN>
0.263117811

>  <MWHBN-cont>
0.935080086

>  <TPSA-cont>
0.472055637

>  <pka_cont>
0.97

>  <yes.1>


>  <BBB_SCORE>
4.089941627

>  <MMFF94 Energy>
58.891

$$$$
Compound 2405
Actelion Java MolfileCreator 2.0

  0  0  0  0  0  0              0 V3000
M  V30 BEGIN CTAB
M  V30 COUNTS 20 19 0 0 0
M  V30 BEGIN ATOM
M  V30 1 S -0.9528 1.509 -1.7474 0
M  V30 2 C 0.0892 0.4446 -0.6366 0
M  V30 3 C -0.8452 -0.4153 0.2678 0 CFG=2
M  V30 4 C 0.9496 -0.4265 -1.5649 0
M  V30 5 C 0.999 1.385 0.1708 0
M  V30 6 N -1.7941 0.4092 1.068 0
M  V30 7 C -0.0397 -1.3219 1.2143 0
M  V30 8 O 0.2744 -1.0998 2.3726 0
M  V30 9 O 0.3026 -2.4964 0.6436 0
M  V30 10 H -1.4117 2.3142 -0.7759 0
M  V30 11 H -1.4626 -1.0818 -0.3499 0
M  V30 12 H 1.6828 -1.0091 -0.9967 0
M  V30 13 H 0.338 -1.1333 -2.1378 0
M  V30 14 H 1.5231 0.1791 -2.2773 0
M  V30 15 H 1.621 2.0064 -0.4849 0
M  V30 16 H 1.6853 0.8169 0.8086 0
M  V30 17 H 0.4283 2.0563 0.8224 0
M  V30 18 H -2.5088 0.7756 0.4395 0
M  V30 19 H -2.2783 -0.1921 1.7357 0
M  V30 20 H 0.7816 -2.9703 1.357 0
M  V30 END ATOM
M  V30 BEGIN BOND
M  V30 1 1 1 2
M  V30 2 1 2 3
M  V30 3 1 2 4
M  V30 4 1 2 5
M  V30 5 1 3 6
M  V30 6 1 3 7
M  V30 7 2 7 8
M  V30 8 1 7 9
M  V30 9 1 1 10
M  V30 10 1 3 11
M  V30 11 1 4 12
M  V30 12 1 4 13
M  V30 13 1 4 14
M  V30 14 1 5 15
M  V30 15 1 5 16
M  V30 16 1 5 17
M  V30 17 1 6 18
M  V30 18 1 6 19
M  V30 19 1 9 20
M  V30 END BOND
M  V30 BEGIN COLLECTION
M  V30 MDLV30/STERAC1 ATOMS=(1 3)
M  V30 END COLLECTION
M  V30 END CTAB
M  END
>  <Column 1>
2962

>  <level_0>
5103

>  <index>
5104

>  <Unnamed: 0>
5104

>  <NO.>
5116

>  <Name>
penicillamine

>  <IUPAC_name>
2-amino-3-methyl-3-sulfanylbutanoic acid

>  <SMILES>
CC(C)(S)C(N)C(=O)O

>  <CID>
4727

>  <logBB>


>  <BBB+/BBB->
BBB-

>  <Inchi>
InChI=1S/C5H11NO2S/c1-5(2-9)3(6)4(7)8/h3-9H-6H2-1-2H3-(H-7-8)

>  <threshold>


>  <reference>
R14|R23|

>  <group>
C

>  <Class>
-1

>  <ABC>
6.36

>  <ABCGG>
6.83

>  <nAcid>
1

>  <nBase>
1

>  <nAromAtom>
0

>  <nAromBond>
0

>  <nAtom>
20

>  <nHeavyAtom>
9

>  <nSpiro>
0

>  <nBridgehead>
0

>  <nHetero>
4

>  <nN>
1

>  <nO>
2

>  <nF>
0

>  <BalabanJ>
3.88

>  <BertzCT>
118.62

>  <nBonds>
19

>  <nBondsO>
8

>  <nBondsS>
18

>  <nBondsD>
1

>  <nBondsT>
0

>  <nBondsA>
0

>  <nBondsM>
1

>  <nBondsKS>
18

>  <nBondsKD>
1

>  <RNCG>
0.36

>  <RPCG>
0.24

>  <FCSP3>
0.8

>  <SZ>
13.33

>  <Sm>
12.42

>  <Sv>
11.35

>  <Sse>
20.28

>  <Sp>
12.75

>  <Si>
22.91

>  <MZ>
0.67

>  <Mm>
0.62

>  <Mv>
0.57

>  <Mse>
1.01

>  <Mp>
0.64

>  <Mi>
1.15

>  <NsCH3>
2

>  <NdCH2>
0

>  <NssCH2>
0

>  <NtCH>
0

>  <NdsCH>
0

>  <NaaCH>
0

>  <NsssCH>
1

>  <NddC>
0

>  <NtsC>
0

>  <NdssC>
1

>  <NaasC>
0

>  <NaaaC>
0

>  <NssssC>
1

>  <NsNH3>
0

>  <NsNH2>
1

>  <NssNH2>
0

>  <NdNH>
0

>  <NssNH>
0

>  <NaaNH>
0

>  <NtN>
0

>  <NsssNH>
0

>  <NdsN>
0

>  <NaaN>
0

>  <NsssN>
0

>  <NddsN>
0

>  <NaasN>
0

>  <NssssN>
0

>  <NsOH>
1

>  <NdO>
1

>  <NssO>
0

>  <NaaO>
0

>  <NsF>
0

>  <NsSiH3>
0

>  <NssSiH2>
0

>  <NsssSiH>
0

>  <NssssSi>
0

>  <NsPH2>
0

>  <NssPH>
0

>  <NsssP>
0

>  <NdsssP>
0

>  <NsssssP>
0

>  <NsSH>
1

>  <NdS>
0

>  <NssS>
0

>  <NaaS>
0

>  <NdssS>
0

>  <NddssS>
0

>  <NsCl>
0

>  <NsBr>
0

>  <NsI>
0

>  <fragCpx>
8.04

>  <fMF>
0

>  <nHBAcc>
3

>  <nHBDon>
3

>  <Kier1>
9

>  <Kier2>
2.72

>  <Lipinski>
1

>  <GhoseFilter>
0

>  <FilterItLogS>
0.14

>  <VMcGowan>
115.08

>  <LabuteASA>
59.65

>  <PEOE_VSA1>
10.84

>  <PEOE_VSA2>
4.79

>  <PEOE_VSA3>
0

>  <PEOE_VSA4>
12.63

>  <PEOE_VSA5>
0

>  <PEOE_VSA6>
0

>  <PEOE_VSA7>
13.85

>  <PEOE_VSA8>
4.75

>  <PEOE_VSA9>
0

>  <PEOE_VSA10>
6.04

>  <PEOE_VSA11>
0

>  <PEOE_VSA12>
0

>  <PEOE_VSA13>
0

>  <SMR_VSA1>
9.9

>  <SMR_VSA2>
0

>  <SMR_VSA3>
0

>  <SMR_VSA4>
5.73

>  <SMR_VSA5>
24.64

>  <SMR_VSA6>
0

>  <SMR_VSA7>
0

>  <SMR_VSA8>
0

>  <SMR_VSA9>
0

>  <SlogP_VSA1>
5.73

>  <SlogP_VSA2>
21.86

>  <SlogP_VSA3>
4.79

>  <SlogP_VSA4>
0

>  <SlogP_VSA5>
13.85

>  <SlogP_VSA6>
0

>  <SlogP_VSA7>
0

>  <SlogP_VSA8>
0

>  <SlogP_VSA9>
0

>  <SlogP_VSA10>
0

>  <SlogP_VSA11>
0

>  <EState_VSA1>
16.76

>  <EState_VSA2>
0

>  <EState_VSA3>
0

>  <EState_VSA4>
0

>  <EState_VSA5>
0

>  <EState_VSA6>
13.85

>  <EState_VSA7>
0

>  <EState_VSA8>
12.63

>  <EState_VSA9>
10.84

>  <EState_VSA10>
4.79

>  <VSA_EState1>
-0.65

>  <VSA_EState2>
10.17

>  <VSA_EState3>
8.34

>  <VSA_EState4>
5.22

>  <VSA_EState5>
-1.02

>  <VSA_EState6>
-0.9

>  <VSA_EState7>
0

>  <VSA_EState8>
3.32

>  <VSA_EState9>
0

>  <apol>
21.29

>  <bpol>
13.79

>  <nRing>
0

>  <nHRing>
0

>  <naRing>
0

>  <naHRing>
0

>  <nARing 2>
0

>  <nAHRing 2>
0

>  <nFRing>
0

>  <nFHRing>
0

>  <nFaRing>
0

>  <nFaHRing>
0

>  <nFARing 2>
0

>  <nFAHRing 2>
0

>  <nRot>
2

>  <SLogP>
0.11

>  <SMR>
38.68

>  <TopoPSA(NO)>
63.32

>  <TopoPSA>
102.12

>  <JGI1>
0.5

>  <JGI2>
0.15

>  <JGI3>
0.08

>  <JGI4>
0

>  <JGI5>
0

>  <Diameter>
4

>  <Radius>
2

>  <TMWC10>
79.16

>  <TSRW10>
37.79

>  <MW>
149.05

>  <AMW>
7.45

>  <WPath>
86

>  <WPol>
10

>  <Zagreb1>
40

>  <Zagreb2>
42

>  <mZagreb2>
1.94

>  <yes>


>  <nAR-cont>
0.336376

>  <nHA-cont>
0.56070381

>  <MWHBN>
0.4914567

>  <MWHBN-cont>
0

>  <TPSA-cont>
0.287138987

>  <pka_cont>
0.97

>  <yes.1>


>  <BBB_SCORE>
1.956357785

>  <MMFF94 Energy>
50.079

$$$$
Compound 2406
Actelion Java MolfileCreator 2.0

  0  0  0  0  0  0              0 V3000
M  V30 BEGIN CTAB
M  V30 COUNTS 50 51 0 0 0
M  V30 BEGIN ATOM
M  V30 1 O -0.2364 0.1576 2.6822 0
M  V30 2 C -0.0069 -0.2782 1.5593 0
M  V30 3 N -0.0692 -1.616 1.2607 0
M  V30 4 C 0.3604 0.6007 0.3678 0
M  V30 5 C -0.4111 -2.6297 2.2598 0 CFG=2
M  V30 6 C 0.0946 2.0767 0.6665 0
M  V30 7 C 1.8282 0.3961 -0.0117 0
M  V30 8 C 0.0785 -3.9844 1.7553 0
M  V30 9 C -1.9078 -2.6569 2.6132 0
M  V30 10 C 0.4912 2.9731 -0.504 0
M  V30 11 C 2.2439 1.2883 -1.1798 0
M  V30 12 O 0.5635 -4.2131 0.6559 0
M  V30 13 O -0.0331 -4.9729 2.6655 0
M  V30 14 C -2.8301 -2.8991 1.4377 0
M  V30 15 C 1.963 2.7829 -0.9231 0
M  V30 16 C -3.3164 -1.8206 0.6853 0
M  V30 17 C -3.2034 -4.2007 1.0771 0
M  V30 18 C 2.3296 3.6602 -2.159 0
M  V30 19 C -4.1515 -2.0403 -0.4104 0
M  V30 20 C -4.0387 -4.4184 -0.0196 0
M  V30 21 C 2.0676 5.1516 -1.9117 0
M  V30 22 C 3.7951 3.4888 -2.5794 0
M  V30 23 C -4.5109 -3.3391 -0.7638 0
M  V30 24 H 0.115 -1.9429 0.317 0
M  V30 25 H -0.2753 0.2951 -0.4743 0
M  V30 26 H 0.1685 -2.3953 3.1614 0
M  V30 27 H -0.9681 2.2254 0.894 0
M  V30 28 H 0.6489 2.3889 1.5613 0
M  V30 29 H 2.013 -0.6505 -0.2812 0
M  V30 30 H 2.4697 0.6064 0.8541 0
M  V30 31 H -2.1929 -1.7082 3.0863 0
M  V30 32 H -2.0987 -3.4259 3.3731 0
M  V30 33 H -0.1663 2.7662 -1.3577 0
M  V30 34 H 0.3095 4.0104 -0.2035 0
M  V30 35 H 3.3121 1.1251 -1.357 0
M  V30 36 H 1.7156 0.9646 -2.0856 0
M  V30 37 H 0.344 -5.7567 2.2125 0
M  V30 38 H 2.5935 3.1007 -0.0807 0
M  V30 39 H -3.0492 -0.8002 0.9532 0
M  V30 40 H -2.8516 -5.0556 1.65 0
M  V30 41 H 1.7039 3.3507 -3.0066 0
M  V30 42 H -4.5245 -1.1972 -0.9859 0
M  V30 43 H -4.3237 -5.4311 -0.2924 0
M  V30 44 H 2.417 5.7557 -2.7563 0
M  V30 45 H 0.9993 5.3585 -1.7998 0
M  V30 46 H 2.584 5.5002 -1.0111 0
M  V30 47 H 3.9895 2.4802 -2.9552 0
M  V30 48 H 4.4725 3.6827 -1.7412 0
M  V30 49 H 4.0534 4.1802 -3.3891 0
M  V30 50 H -5.1628 -3.5099 -1.6163 0
M  V30 END ATOM
M  V30 BEGIN BOND
M  V30 1 2 1 2
M  V30 2 1 2 3
M  V30 3 1 2 4
M  V30 4 1 3 5
M  V30 5 1 4 6
M  V30 6 1 4 7
M  V30 7 1 5 8
M  V30 8 1 5 9
M  V30 9 1 6 10
M  V30 10 1 7 11
M  V30 11 2 8 12
M  V30 12 1 8 13
M  V30 13 1 9 14
M  V30 14 1 10 15
M  V30 15 2 14 16
M  V30 16 1 14 17
M  V30 17 1 15 18
M  V30 18 1 16 19
M  V30 19 2 17 20
M  V30 20 1 18 21
M  V30 21 1 18 22
M  V30 22 2 19 23
M  V30 23 1 11 15
M  V30 24 1 20 23
M  V30 25 1 3 24
M  V30 26 1 4 25
M  V30 27 1 5 26
M  V30 28 1 6 27
M  V30 29 1 6 28
M  V30 30 1 7 29
M  V30 31 1 7 30
M  V30 32 1 9 31
M  V30 33 1 9 32
M  V30 34 1 10 33
M  V30 35 1 10 34
M  V30 36 1 11 35
M  V30 37 1 11 36
M  V30 38 1 13 37
M  V30 39 1 15 38
M  V30 40 1 16 39
M  V30 41 1 17 40
M  V30 42 1 18 41
M  V30 43 1 19 42
M  V30 44 1 20 43
M  V30 45 1 21 44
M  V30 46 1 21 45
M  V30 47 1 21 46
M  V30 48 1 22 47
M  V30 49 1 22 48
M  V30 50 1 22 49
M  V30 51 1 23 50
M  V30 END BOND
M  V30 BEGIN COLLECTION
M  V30 MDLV30/STERAC1 ATOMS=(1 5)
M  V30 END COLLECTION
M  V30 END CTAB
M  END
>  <Column 1>
2965

>  <level_0>
5106

>  <index>
5107

>  <Unnamed: 0>
5107

>  <NO.>
5119

>  <Name>
2-{[4-(methylethyl)cyclohexyl]carbonylamino}-3-phenylpropanoic acid

>  <IUPAC_name>
3-phenyl-2-[(4-propan-2-ylcyclohexanecarbonyl)amino]propanoic acid

>  <SMILES>
CC(C)C1CCC(C(=O)NC(Cc2ccccc2)C(=O)O)CC1

>  <CID>
4443

>  <logBB>


>  <BBB+/BBB->
BBB-

>  <Inchi>
InChI=1S/C19H27NO3/c1-13(2)15-8-10-16(11-9-15)18(21)20-17(19(22)23)12-14-6-4-3-5-7-14/h3-7-13-15-17H-8-12H2-1-2H3-(H-20-21)(H-22-23)

>  <threshold>


>  <reference>
R14|

>  <group>
C

>  <Class>
1

>  <ABC>
17.4

>  <ABCGG>
14.43

>  <nAcid>
1

>  <nBase>
0

>  <nAromAtom>
6

>  <nAromBond>
6

>  <nAtom>
50

>  <nHeavyAtom>
23

>  <nSpiro>
0

>  <nBridgehead>
0

>  <nHetero>
4

>  <nN>
1

>  <nO>
3

>  <nF>
0

>  <BalabanJ>
1.79

>  <BertzCT>
518.68

>  <nBonds>
51

>  <nBondsO>
24

>  <nBondsS>
43

>  <nBondsD>
2

>  <nBondsT>
0

>  <nBondsA>
6

>  <nBondsM>
8

>  <nBondsKS>
46

>  <nBondsKD>
5

>  <RNCG>
0.23

>  <RPCG>
0.16

>  <FCSP3>
0.58

>  <SZ>
28.67

>  <Sm>
26.43

>  <Sv>
29.22

>  <Sse>
49.64

>  <Sp>
31.88

>  <Si>
56.53

>  <MZ>
0.57

>  <Mm>
0.53

>  <Mv>
0.58

>  <Mse>
0.99

>  <Mp>
0.64

>  <Mi>
1.13

>  <NsCH3>
2

>  <NdCH2>
0

>  <NssCH2>
5

>  <NtCH>
0

>  <NdsCH>
0

>  <NaaCH>
5

>  <NsssCH>
4

>  <NddC>
0

>  <NtsC>
0

>  <NdssC>
2

>  <NaasC>
1

>  <NaaaC>
0

>  <NssssC>
0

>  <NsNH3>
0

>  <NsNH2>
0

>  <NssNH2>
0

>  <NdNH>
0

>  <NssNH>
1

>  <NaaNH>
0

>  <NtN>
0

>  <NsssNH>
0

>  <NdsN>
0

>  <NaaN>
0

>  <NsssN>
0

>  <NddsN>
0

>  <NaasN>
0

>  <NssssN>
0

>  <NsOH>
1

>  <NdO>
2

>  <NssO>
0

>  <NaaO>
0

>  <NsF>
0

>  <NsSiH3>
0

>  <NssSiH2>
0

>  <NsssSiH>
0

>  <NssssSi>
0

>  <NsPH2>
0

>  <NssPH>
0

>  <NsssP>
0

>  <NdsssP>
0

>  <NsssssP>
0

>  <NsSH>
0

>  <NdS>
0

>  <NssS>
0

>  <NaaS>
0

>  <NdssS>
0

>  <NddssS>
0

>  <NsCl>
0

>  <NsBr>
0

>  <NsI>
0

>  <fragCpx>
70.04

>  <fMF>
0.32

>  <nHBAcc>
2

>  <nHBDon>
2

>  <Kier1>
19.33

>  <Kier2>
9.47

>  <Lipinski>
1

>  <GhoseFilter>
1

>  <FilterItLogS>
-3.48

>  <VMcGowan>
262.94

>  <LabuteASA>
137.84

>  <PEOE_VSA1>
10.42

>  <PEOE_VSA2>
4.79

>  <PEOE_VSA3>
4.79

>  <PEOE_VSA4>
0

>  <PEOE_VSA5>
0

>  <PEOE_VSA6>
44.18

>  <PEOE_VSA7>
43.08

>  <PEOE_VSA8>
12.34

>  <PEOE_VSA9>
0

>  <PEOE_VSA10>
6.04

>  <PEOE_VSA11>
0

>  <PEOE_VSA12>
5.91

>  <PEOE_VSA13>
0

>  <SMR_VSA1>
14.7

>  <SMR_VSA2>
0

>  <SMR_VSA3>
5.32

>  <SMR_VSA4>
17.75

>  <SMR_VSA5>
51.99

>  <SMR_VSA6>
0

>  <SMR_VSA7>
35.9

>  <SMR_VSA8>
0

>  <SMR_VSA9>
0

>  <SlogP_VSA1>
5.32

>  <SlogP_VSA2>
23.02

>  <SlogP_VSA3>
16.01

>  <SlogP_VSA4>
17.75

>  <SlogP_VSA5>
45.09

>  <SlogP_VSA6>
30.33

>  <SlogP_VSA7>
0

>  <SlogP_VSA8>
0

>  <SlogP_VSA9>
0

>  <SlogP_VSA10>
0

>  <SlogP_VSA11>
0

>  <EState_VSA1>
12.01

>  <EState_VSA2>
11.83

>  <EState_VSA3>
18.26

>  <EState_VSA4>
31.25

>  <EState_VSA5>
0

>  <EState_VSA6>
0

>  <EState_VSA7>
30.33

>  <EState_VSA8>
19.16

>  <EState_VSA9>
0

>  <EState_VSA10>
14.7

>  <VSA_EState1>
0

>  <VSA_EState2>
23.85

>  <VSA_EState3>
12.12

>  <VSA_EState4>
0.92

>  <VSA_EState5>
0.23

>  <VSA_EState6>
8.57

>  <VSA_EState7>
4.18

>  <VSA_EState8>
4.46

>  <VSA_EState9>
0

>  <apol>
53.24

>  <bpol>
29.39

>  <nRing>
2

>  <nHRing>
0

>  <naRing>
1

>  <naHRing>
0

>  <nARing 2>
1

>  <nAHRing 2>
0

>  <nFRing>
0

>  <nFHRing>
0

>  <nFaRing>
0

>  <nFaHRing>
0

>  <nFARing 2>
0

>  <nFAHRing 2>
0

>  <nRot>
6

>  <SLogP>
3.26

>  <SMR>
90

>  <TopoPSA(NO)>
66.4

>  <TopoPSA>
66.4

>  <JGI1>
0.21

>  <JGI2>
0.08

>  <JGI3>
0.04

>  <JGI4>
0.04

>  <JGI5>
0.03

>  <Diameter>
13

>  <Radius>
7

>  <TMWC10>
119.39

>  <TSRW10>
56.67

>  <MW>
317.2

>  <AMW>
6.34

>  <WPath>
1320

>  <WPol>
32

>  <Zagreb1>
112

>  <Zagreb2>
126

>  <mZagreb2>
5.17

>  <yes>


>  <nAR-cont>
0.816016

>  <nHA-cont>
0.967789328

>  <MWHBN>
0.224591545

>  <MWHBN-cont>
0.991663148

>  <TPSA-cont>
0.536486768

>  <pka_cont>
0.97

>  <yes.1>


>  <BBB_SCORE>
4.829273586

>  <MMFF94 Energy>
24.811

$$$$
Compound 2407
Actelion Java MolfileCreator 2.0

  0  0  0  0  0  0              0 V3000
M  V30 BEGIN CTAB
M  V30 COUNTS 85 91 0 0 0
M  V30 BEGIN ATOM
M  V30 1 O -4.6599 -3.2923 2.3279 0
M  V30 2 C -3.8732 -2.3532 2.4509 0
M  V30 3 N -4.1671 -1.277 3.2623 0
M  V30 4 C -2.5067 -2.3183 1.69 0
M  V30 5 C -3.26 -0.1539 3.5032 0
M  V30 6 C -5.463 -1.0641 3.8731 0
M  V30 7 N -1.7154 -1.1099 1.9375 0
M  V30 8 C -2.7334 -2.4869 0.1734 0
M  V30 9 C -2.3266 0.1179 2.3075 0
M  V30 10 C -4.2043 0.9774 3.9072 0
M  V30 11 C -5.298 0.2264 4.6695 0
M  V30 12 C -0.3497 -1.0219 1.9404 0
M  V30 13 C -2.8991 -3.9459 -0.2997 0
M  V30 14 O -1.2885 1.0363 2.6484 0
M  V30 15 O -3.0601 0.6056 1.2116 0
M  V30 16 O 0.4465 -1.9021 1.6578 0
M  V30 17 C -0.0285 0.4202 2.3576 0
M  V30 18 C -3.3725 -3.9643 -1.7563 0
M  V30 19 C -1.5971 -4.7415 -0.1788 0
M  V30 20 N 0.641 1.1218 1.2662 0
M  V30 21 C 0.8706 0.439 3.6291 0
M  V30 22 C 0.1066 1.3193 0.016 0
M  V30 23 C 1.1558 1.8711 4.1124 0
M  V30 24 C 0.2775 -0.3427 4.8091 0
M  V30 25 O -0.9986 0.903 -0.3142 0
M  V30 26 C 1.0217 2.0929 -0.9278 0
M  V30 27 C 0.2425 2.559 -2.1672 0
M  V30 28 C 2.2205 1.2289 -1.334 0
M  V30 29 N 1.0569 3.257 -3.1775 0
M  V30 30 C 3.1057 1.966 -2.3484 0
M  V30 31 C 2.2507 2.4742 -3.5813 0
M  V30 32 C 1.4035 4.6145 -2.7598 0
M  V30 33 C 4.2463 1.079 -2.8003 0
M  V30 34 C 1.8417 1.334 -4.5956 0
M  V30 35 C 4.1018 0.4106 -4.0202 0
M  V30 36 C 5.4244 0.843 -2.0833 0
M  V30 37 C 3.0207 0.4768 -4.9218 0
M  V30 38 C 5.0678 -0.4384 -4.5213 0
M  V30 39 C 6.4063 -0.0206 -2.5917 0
M  V30 40 C 3.3345 -0.347 -5.9776 0
M  V30 41 N 4.5765 -0.8965 -5.7249 0
M  V30 42 C 6.2518 -0.6817 -3.8235 0
M  V30 43 H -1.913 -3.1499 2.0825 0
M  V30 44 H -2.664 -0.4416 4.3782 0
M  V30 45 H -6.2025 -0.9534 3.0726 0
M  V30 46 H -5.7404 -1.9197 4.4956 0
M  V30 47 H -3.6235 -1.9114 -0.115 0
M  V30 48 H -1.8963 -2.0418 -0.3815 0
M  V30 49 H -4.6436 1.4699 3.0322 0
M  V30 50 H -3.7105 1.7372 4.5197 0
M  V30 51 H -6.2295 0.7936 4.7485 0
M  V30 52 H -4.9496 -0.0021 5.6841 0
M  V30 53 H -3.6648 -4.4459 0.3029 0
M  V30 54 H -2.4217 0.5825 0.4687 0
M  V30 55 H -4.328 -3.4393 -1.8613 0
M  V30 56 H -2.645 -3.4812 -2.4174 0
M  V30 57 H -3.5184 -4.9919 -2.1056 0
M  V30 58 H -1.2826 -4.8456 0.8632 0
M  V30 59 H -0.7842 -4.259 -0.7321 0
M  V30 60 H -1.7232 -5.7528 -0.5805 0
M  V30 61 H 1.5958 1.4096 1.4237 0
M  V30 62 H 1.8331 -0.0278 3.3789 0
M  V30 63 H 1.8019 1.8572 4.9973 0
M  V30 64 H 1.6699 2.4623 3.3489 0
M  V30 65 H 0.2323 2.3947 4.3818 0
M  V30 66 H -0.6335 0.131 5.186 0
M  V30 67 H 0.0462 -1.3771 4.539 0
M  V30 68 H 0.9926 -0.3792 5.6388 0
M  V30 69 H 1.3819 2.9726 -0.378 0
M  V30 70 H -0.5932 3.2021 -1.8599 0
M  V30 71 H -0.2397 1.6984 -2.6478 0
M  V30 72 H 2.814 0.9633 -0.4499 0
M  V30 73 H 1.8659 0.2756 -1.7496 0
M  V30 74 H 3.5459 2.8457 -1.8598 0
M  V30 75 H 2.9082 3.1378 -4.1652 0
M  V30 76 H 2.0473 4.6423 -1.8754 0
M  V30 77 H 0.4975 5.1905 -2.5397 0
M  V30 78 H 1.9151 5.1454 -3.5703 0
M  V30 79 H 1.4394 1.7853 -5.5104 0
M  V30 80 H 1.0607 0.6936 -4.1706 0
M  V30 81 H 5.5873 1.3291 -1.125 0
M  V30 82 H 7.315 -0.1868 -2.0161 0
M  V30 83 H 2.7957 -0.5976 -6.8813 0
M  V30 84 H 5.0581 -1.5439 -6.3325 0
M  V30 85 H 7.0176 -1.3477 -4.2047 0
M  V30 END ATOM
M  V30 BEGIN BOND
M  V30 1 2 1 2
M  V30 2 1 2 3
M  V30 3 1 2 4
M  V30 4 1 3 5
M  V30 5 1 3 6
M  V30 6 1 4 7
M  V30 7 1 4 8
M  V30 8 1 5 9
M  V30 9 1 5 10
M  V30 10 1 6 11
M  V30 11 1 7 12
M  V30 12 1 8 13
M  V30 13 1 9 14
M  V30 14 1 9 15
M  V30 15 2 12 16
M  V30 16 1 12 17
M  V30 17 1 13 18
M  V30 18 1 13 19
M  V30 19 1 17 20
M  V30 20 1 17 21
M  V30 21 1 20 22
M  V30 22 1 21 23
M  V30 23 1 21 24
M  V30 24 2 22 25
M  V30 25 1 22 26
M  V30 26 1 26 27
M  V30 27 1 26 28
M  V30 28 1 27 29
M  V30 29 1 28 30
M  V30 30 1 29 31
M  V30 31 1 29 32
M  V30 32 1 30 33
M  V30 33 1 31 34
M  V30 34 2 33 35
M  V30 35 1 33 36
M  V30 36 1 34 37
M  V30 37 1 35 38
M  V30 38 2 36 39
M  V30 39 2 37 40
M  V30 40 1 38 41
M  V30 41 2 38 42
M  V30 42 1 7 9
M  V30 43 1 10 11
M  V30 44 1 14 17
M  V30 45 1 30 31
M  V30 46 1 35 37
M  V30 47 1 39 42
M  V30 48 1 40 41
M  V30 49 1 4 43
M  V30 50 1 5 44
M  V30 51 1 6 45
M  V30 52 1 6 46
M  V30 53 1 8 47
M  V30 54 1 8 48
M  V30 55 1 10 49
M  V30 56 1 10 50
M  V30 57 1 11 51
M  V30 58 1 11 52
M  V30 59 1 13 53
M  V30 60 1 15 54
M  V30 61 1 18 55
M  V30 62 1 18 56
M  V30 63 1 18 57
M  V30 64 1 19 58
M  V30 65 1 19 59
M  V30 66 1 19 60
M  V30 67 1 20 61
M  V30 68 1 21 62
M  V30 69 1 23 63
M  V30 70 1 23 64
M  V30 71 1 23 65
M  V30 72 1 24 66
M  V30 73 1 24 67
M  V30 74 1 24 68
M  V30 75 1 26 69
M  V30 76 1 27 70
M  V30 77 1 27 71
M  V30 78 1 28 72
M  V30 79 1 28 73
M  V30 80 1 30 74
M  V30 81 1 31 75
M  V30 82 1 32 76
M  V30 83 1 32 77
M  V30 84 1 32 78
M  V30 85 1 34 79
M  V30 86 1 34 80
M  V30 87 1 36 81
M  V30 88 1 39 82
M  V30 89 1 40 83
M  V30 90 1 41 84
M  V30 91 1 42 85
M  V30 END BOND
M  V30 END CTAB
M  END
>  <Column 1>
2966

>  <level_0>
5107

>  <index>
5108

>  <Unnamed: 0>
5108

>  <NO.>
5120

>  <Name>
ergoloidmesylate

>  <IUPAC_name>
n-[2-hydroxy-7-(2-methylpropyl)-5-8-dioxo-4-propan-2-yl-3-oxa-6-9-diazatricyclo[7.3.0.02-6]dodecan-4-yl]-7-methyl-6-6a-8-9-10-10a-hexahydro-4h-indolo[4-3-fg]quinoline-9-carboxamide

>  <SMILES>
CC(C)CC1C(=O)N2CCCC2C2(O)OC(NC(=O)C3CC4c5cccc6[nH]cc(c56)CC4N(C)C3)(C(C)C)C(=O)N12

>  <CID>
522609

>  <logBB>


>  <BBB+/BBB->
BBB+

>  <Inchi>
InChI=1S/C32H43N5O5/c1-17(2)12-25-29(39)36-11-7-10-26(36)32(41)37(25)30(40)31(42-32-18(3)4)34-28(38)20-13-22-21-8-6-9-23-27(21)19(15-33-23)14-24(22)35(5)16-20/h6-8-9-15-17-18-20-22-24-26-33-41H-7-10-14-16H2-1-5H3-(H-34-38)

>  <threshold>


>  <reference>
R14|

>  <group>
C

>  <Class>
-1

>  <ABC>
34.24

>  <ABCGG>
26.77

>  <nAcid>
0

>  <nBase>
1

>  <nAromAtom>
9

>  <nAromBond>
10

>  <nAtom>
85

>  <nHeavyAtom>
42

>  <nSpiro>
0

>  <nBridgehead>
0

>  <nHetero>
10

>  <nN>
5

>  <nO>
5

>  <nF>
0

>  <BalabanJ>
1.15

>  <BertzCT>
1453.89

>  <nBonds>
91

>  <nBondsO>
48

>  <nBondsS>
78

>  <nBondsD>
3

>  <nBondsT>
0

>  <nBondsA>
10

>  <nBondsM>
13

>  <nBondsKS>
84

>  <nBondsKD>
7

>  <RNCG>
0.1

>  <RPCG>
0.08

>  <FCSP3>
0.66

>  <SZ>
51.67

>  <Sm>
48.1

>  <Sv>
51.01

>  <Sse>
85.06

>  <Sp>
54.86

>  <Si>
96.43

>  <MZ>
0.61

>  <Mm>
0.57

>  <Mv>
0.6

>  <Mse>
1

>  <Mp>
0.65

>  <Mi>
1.13

>  <NsCH3>
5

>  <NdCH2>
0

>  <NssCH2>
7

>  <NtCH>
0

>  <NdsCH>
0

>  <NaaCH>
4

>  <NsssCH>
7

>  <NddC>
0

>  <NtsC>
0

>  <NdssC>
3

>  <NaasC>
2

>  <NaaaC>
2

>  <NssssC>
2

>  <NsNH3>
0

>  <NsNH2>
0

>  <NssNH2>
0

>  <NdNH>
0

>  <NssNH>
1

>  <NaaNH>
1

>  <NtN>
0

>  <NsssNH>
0

>  <NdsN>
0

>  <NaaN>
0

>  <NsssN>
3

>  <NddsN>
0

>  <NaasN>
0

>  <NssssN>
0

>  <NsOH>
1

>  <NdO>
3

>  <NssO>
1

>  <NaaO>
0

>  <NsF>
0

>  <NsSiH3>
0

>  <NssSiH2>
0

>  <NsssSiH>
0

>  <NssssSi>
0

>  <NsPH2>
0

>  <NssPH>
0

>  <NsssP>
0

>  <NdsssP>
0

>  <NsssssP>
0

>  <NsSH>
0

>  <NdS>
0

>  <NssS>
0

>  <NaaS>
0

>  <NdssS>
0

>  <NddssS>
0

>  <NsCl>
0

>  <NsBr>
0

>  <NsI>
0

>  <fragCpx>
582.1

>  <fMF>
0.35

>  <nHBAcc>
6

>  <nHBDon>
3

>  <Kier1>
30.64

>  <Kier2>
11.06

>  <Lipinski>
0

>  <GhoseFilter>
0

>  <FilterItLogS>
-4.77

>  <VMcGowan>
434.87

>  <LabuteASA>
246.27

>  <PEOE_VSA1>
25.21

>  <PEOE_VSA2>
24.02

>  <PEOE_VSA3>
0

>  <PEOE_VSA4>
0

>  <PEOE_VSA5>
0

>  <PEOE_VSA6>
39.83

>  <PEOE_VSA7>
62.26

>  <PEOE_VSA8>
48.07

>  <PEOE_VSA9>
5.92

>  <PEOE_VSA10>
12.08

>  <PEOE_VSA11>
0

>  <PEOE_VSA12>
17.54

>  <PEOE_VSA13>
11.82

>  <SMR_VSA1>
24.23

>  <SMR_VSA2>
0

>  <SMR_VSA3>
25

>  <SMR_VSA4>
17.75

>  <SMR_VSA5>
95.48

>  <SMR_VSA6>
20.14

>  <SMR_VSA7>
35.52

>  <SMR_VSA8>
0

>  <SMR_VSA9>
0

>  <SlogP_VSA1>
5.32

>  <SlogP_VSA2>
92.41

>  <SlogP_VSA3>
25.54

>  <SlogP_VSA4>
17.75

>  <SlogP_VSA5>
70.42

>  <SlogP_VSA6>
24.4

>  <SlogP_VSA7>
0

>  <SlogP_VSA8>
10.9

>  <SlogP_VSA9>
0

>  <SlogP_VSA10>
0

>  <SlogP_VSA11>
0

>  <EState_VSA1>
35.54

>  <EState_VSA2>
35.61

>  <EState_VSA3>
32.35

>  <EState_VSA4>
18.36

>  <EState_VSA5>
21.41

>  <EState_VSA6>
4.9

>  <EState_VSA7>
27.69

>  <EState_VSA8>
46.64

>  <EState_VSA9>
4.74

>  <EState_VSA10>
19.49

>  <VSA_EState1>
6.45

>  <VSA_EState2>
50.85

>  <VSA_EState3>
16.45

>  <VSA_EState4>
1.93

>  <VSA_EState5>
-3.48

>  <VSA_EState6>
5.13

>  <VSA_EState7>
5.36

>  <VSA_EState8>
8.73

>  <VSA_EState9>
2.07

>  <apol>
91.62

>  <bpol>
53.75

>  <nRing>
7

>  <nHRing>
5

>  <naRing>
2

>  <naHRing>
1

>  <nARing 2>
5

>  <nAHRing 2>
4

>  <nFRing>
2

>  <nFHRing>
2

>  <nFaRing>
0

>  <nFaHRing>
0

>  <nFARing 2>
2

>  <nFAHRing 2>
2

>  <nRot>
5

>  <SLogP>
2.52

>  <SMR>
155.84

>  <TopoPSA(NO)>
118.21

>  <TopoPSA>
118.21

>  <JGI1>
0.23

>  <JGI2>
0.1

>  <JGI3>
0.06

>  <JGI4>
0.06

>  <JGI5>
0.03

>  <Diameter>
15

>  <Radius>
8

>  <TMWC10>
174.23

>  <TSRW10>
98.2

>  <MW>
577.33

>  <AMW>
6.79

>  <WPath>
5563

>  <WPol>
89

>  <Zagreb1>
250

>  <Zagreb2>
318

>  <mZagreb2>
8.71

>  <yes>


>  <nAR-cont>
0

>  <nHA-cont>
0.236794392

>  <MWHBN>
0.374567806

>  <MWHBN-cont>
0.57607257

>  <TPSA-cont>
0.174820796

>  <pka_cont>
0.97

>  <yes.1>


>  <BBB_SCORE>
1.935544839

>  <MMFF94 Energy>
65.417

$$$$
Compound 2408
Actelion Java MolfileCreator 2.0

  0  0  0  0  0  0              0 V3000
M  V30 BEGIN CTAB
M  V30 COUNTS 37 38 0 0 0
M  V30 BEGIN ATOM
M  V30 1 Cl -0.4972 -5.0637 0.8288 0
M  V30 2 C -0.8358 -3.3947 0.5393 0
M  V30 3 C -1.9178 -2.7095 1.0918 0
M  V30 4 C 0.0588 -2.7111 -0.3027 0
M  V30 5 S -3.0925 -3.51 2.1364 0
M  V30 6 C -2.1036 -1.3543 0.7973 0
M  V30 7 C -0.0938 -1.3489 -0.5982 0
M  V30 8 O -3.5682 -4.7092 1.4917 0
M  V30 9 O -4.0015 -2.516 2.6609 0
M  V30 10 N -2.1712 -3.9809 3.4572 0
M  V30 11 C -1.1889 -0.6996 -0.0363 0
M  V30 12 N 0.7992 -0.7363 -1.4517 0
M  V30 13 S -1.4645 0.9884 -0.4289 0
M  V30 14 C 0.8671 0.6891 -1.6758 0 CFG=1
M  V30 15 O -1.011 1.7755 0.6938 0
M  V30 16 O -2.8107 1.1023 -0.9459 0
M  V30 17 N -0.4593 1.2451 -1.7321 0
M  V30 18 C 1.8185 1.3558 -0.6719 0
M  V30 19 C 2.3324 2.7519 -1.0869 0
M  V30 20 C 1.239 3.8182 -1.1369 0
M  V30 21 C 3.4321 3.2003 -0.1179 0
M  V30 22 H 0.8951 -3.2593 -0.7339 0
M  V30 23 H -2.952 -0.8029 1.2024 0
M  V30 24 H -2.1466 -5.0002 3.5176 0
M  V30 25 H -2.5205 -3.5269 4.3026 0
M  V30 26 H 1.6039 -1.2689 -1.765 0
M  V30 27 H 1.3054 0.8202 -2.6732 0
M  V30 28 H -0.9556 1.0858 -2.6054 0
M  V30 29 H 2.699 0.7048 -0.5689 0
M  V30 30 H 1.3836 1.4013 0.3316 0
M  V30 31 H 2.782 2.6765 -2.0852 0
M  V30 32 H 0.5232 3.6216 -1.9393 0
M  V30 33 H 0.6939 3.8757 -0.1893 0
M  V30 34 H 1.6701 4.8061 -1.3344 0
M  V30 35 H 4.2558 2.4788 -0.1012 0
M  V30 36 H 3.0459 3.299 0.9024 0
M  V30 37 H 3.8465 4.1684 -0.419 0
M  V30 END ATOM
M  V30 BEGIN BOND
M  V30 1 1 1 2
M  V30 2 2 2 3
M  V30 3 1 2 4
M  V30 4 1 3 5
M  V30 5 1 3 6
M  V30 6 2 4 7
M  V30 7 2 5 8
M  V30 8 2 5 9
M  V30 9 1 5 10
M  V30 10 2 6 11
M  V30 11 1 7 12
M  V30 12 1 11 13
M  V30 13 1 12 14
M  V30 14 2 13 15
M  V30 15 2 13 16
M  V30 16 1 13 17
M  V30 17 1 14 18
M  V30 18 1 18 19
M  V30 19 1 19 20
M  V30 20 1 19 21
M  V30 21 1 7 11
M  V30 22 1 14 17
M  V30 23 1 4 22
M  V30 24 1 6 23
M  V30 25 1 10 24
M  V30 26 1 10 25
M  V30 27 1 12 26
M  V30 28 1 14 27
M  V30 29 1 17 28
M  V30 30 1 18 29
M  V30 31 1 18 30
M  V30 32 1 19 31
M  V30 33 1 20 32
M  V30 34 1 20 33
M  V30 35 1 20 34
M  V30 36 1 21 35
M  V30 37 1 21 36
M  V30 38 1 21 37
M  V30 END BOND
M  V30 BEGIN COLLECTION
M  V30 MDLV30/STERAC1 ATOMS=(1 14)
M  V30 END COLLECTION
M  V30 END CTAB
M  END
>  <Column 1>
2967

>  <level_0>
5108

>  <index>
5109

>  <Unnamed: 0>
5109

>  <NO.>
5121

>  <Name>
buthiazide

>  <IUPAC_name>
6-chloro-3-(2-methylpropyl)-1-1-dioxo-3-4-dihydro-2h-1lambda6-2-4-benzothiadiazine-7-sulfonamide

>  <SMILES>
CC(C)CC1Nc2cc(Cl)c(S(N)(=O)=O)cc2S(=O)(=O)N1

>  <CID>
16274

>  <logBB>


>  <BBB+/BBB->
BBB-

>  <Inchi>
InChI=1S/C11H16ClN3O4S2/c1-6(2)3-11-14-8-4-7(12)9(20(13-16)17)5-10(8)21(18-19)15-11/h4-6-11-14-15H-3H2-1-2H3-(H2-13-16-17)

>  <threshold>


>  <reference>
R14|

>  <group>
C

>  <Class>
-1

>  <ABC>
16.48

>  <ABCGG>
14.12

>  <nAcid>
0

>  <nBase>
0

>  <nAromAtom>
6

>  <nAromBond>
6

>  <nAtom>
37

>  <nHeavyAtom>
21

>  <nSpiro>
0

>  <nBridgehead>
0

>  <nHetero>
10

>  <nN>
3

>  <nO>
4

>  <nF>
0

>  <BalabanJ>
2.14

>  <BertzCT>
774.9

>  <nBonds>
38

>  <nBondsO>
22

>  <nBondsS>
28

>  <nBondsD>
4

>  <nBondsT>
0

>  <nBondsA>
6

>  <nBondsM>
10

>  <nBondsKS>
31

>  <nBondsKD>
7

>  <RNCG>
0.19

>  <RPCG>
0.13

>  <FCSP3>
0.45

>  <SZ>
30.67

>  <Sm>
29.46

>  <Sv>
23.93

>  <Sse>
38.33

>  <Sp>
26.06

>  <Si>
42.02

>  <MZ>
0.83

>  <Mm>
0.8

>  <Mv>
0.65

>  <Mse>
1.04

>  <Mp>
0.7

>  <Mi>
1.14

>  <NsCH3>
2

>  <NdCH2>
0

>  <NssCH2>
1

>  <NtCH>
0

>  <NdsCH>
0

>  <NaaCH>
2

>  <NsssCH>
2

>  <NddC>
0

>  <NtsC>
0

>  <NdssC>
0

>  <NaasC>
4

>  <NaaaC>
0

>  <NssssC>
0

>  <NsNH3>
0

>  <NsNH2>
1

>  <NssNH2>
0

>  <NdNH>
0

>  <NssNH>
2

>  <NaaNH>
0

>  <NtN>
0

>  <NsssNH>
0

>  <NdsN>
0

>  <NaaN>
0

>  <NsssN>
0

>  <NddsN>
0

>  <NaasN>
0

>  <NssssN>
0

>  <NsOH>
0

>  <NdO>
4

>  <NssO>
0

>  <NaaO>
0

>  <NsF>
0

>  <NsSiH3>
0

>  <NssSiH2>
0

>  <NsssSiH>
0

>  <NssssSi>
0

>  <NsPH2>
0

>  <NssPH>
0

>  <NsssP>
0

>  <NdsssP>
0

>  <NsssssP>
0

>  <NsSH>
0

>  <NdS>
0

>  <NssS>
0

>  <NaaS>
0

>  <NdssS>
0

>  <NddssS>
2

>  <NsCl>
1

>  <NsBr>
0

>  <NsI>
0

>  <fragCpx>
64.1

>  <fMF>
0.27

>  <nHBAcc>
5

>  <nHBDon>
3

>  <Kier1>
17.36

>  <Kier2>
5.89

>  <Lipinski>
1

>  <GhoseFilter>
1

>  <FilterItLogS>
-3.53

>  <VMcGowan>
229.59

>  <LabuteASA>
128.51

>  <PEOE_VSA1>
5.32

>  <PEOE_VSA2>
0

>  <PEOE_VSA3>
21.97

>  <PEOE_VSA4>
4.72

>  <PEOE_VSA5>
0

>  <PEOE_VSA6>
25.45

>  <PEOE_VSA7>
24.47

>  <PEOE_VSA8>
0

>  <PEOE_VSA9>
16.88

>  <PEOE_VSA10>
9.79

>  <PEOE_VSA11>
0

>  <PEOE_VSA12>
20.05

>  <PEOE_VSA13>
0

>  <SMR_VSA1>
16.84

>  <SMR_VSA2>
0

>  <SMR_VSA3>
4.72

>  <SMR_VSA4>
11.06

>  <SMR_VSA5>
36.23

>  <SMR_VSA6>
5.32

>  <SMR_VSA7>
17.16

>  <SMR_VSA8>
0

>  <SMR_VSA9>
0

>  <SlogP_VSA1>
15.18

>  <SlogP_VSA2>
23

>  <SlogP_VSA3>
20.05

>  <SlogP_VSA4>
5.92

>  <SlogP_VSA5>
20.27

>  <SlogP_VSA6>
21.92

>  <SlogP_VSA7>
5.02

>  <SlogP_VSA8>
0

>  <SlogP_VSA9>
0

>  <SlogP_VSA10>
5.69

>  <SlogP_VSA11>
0

>  <EState_VSA1>
31.11

>  <EState_VSA2>
21.52

>  <EState_VSA3>
6.42

>  <EState_VSA4>
6.07

>  <EState_VSA5>
6.07

>  <EState_VSA6>
0

>  <EState_VSA7>
13.85

>  <EState_VSA8>
10.04

>  <EState_VSA9>
16.74

>  <EState_VSA10>
16.84

>  <VSA_EState1>
49.75

>  <VSA_EState2>
-0.6

>  <VSA_EState3>
7.9

>  <VSA_EState4>
0.26

>  <VSA_EState5>
0.27

>  <VSA_EState6>
2.23

>  <VSA_EState7>
0.1

>  <VSA_EState8>
3.92

>  <VSA_EState9>
-7.93

>  <apol>
43.53

>  <bpol>
30.44

>  <nRing>
2

>  <nHRing>
1

>  <naRing>
1

>  <naHRing>
0

>  <nARing 2>
1

>  <nAHRing 2>
1

>  <nFRing>
1

>  <nFHRing>
1

>  <nFaRing>
0

>  <nFaHRing>
0

>  <nFARing 2>
1

>  <nFAHRing 2>
1

>  <nRot>
3

>  <SLogP>
1.06

>  <SMR>
80.01

>  <TopoPSA(NO)>
118.36

>  <TopoPSA>
135.12

>  <JGI1>
0.39

>  <JGI2>
0.1

>  <JGI3>
0.08

>  <JGI4>
0.05

>  <JGI5>
0.06

>  <Diameter>
10

>  <Radius>
5

>  <TMWC10>
118.1

>  <TSRW10>
55.53

>  <MW>
353.03

>  <AMW>
9.54

>  <WPath>
874

>  <WPol>
35

>  <Zagreb1>
114

>  <Zagreb2>
133

>  <mZagreb2>
4.26

>  <yes>


>  <nAR-cont>
0.816016

>  <nHA-cont>
0.994529749

>  <MWHBN>
0.425778944

>  <MWHBN-cont>
0.375770418

>  <TPSA-cont>
0

>  <pka_cont>
0.97

>  <yes.1>


>  <BBB_SCORE>
2.859201377

>  <MMFF94 Energy>
-217.54

$$$$
Compound 2409
Actelion Java MolfileCreator 2.0

  0  0  0  0  0  0              0 V3000
M  V30 BEGIN CTAB
M  V30 COUNTS 54 55 0 0 0
M  V30 BEGIN ATOM
M  V30 1 O 2.6748 -0.7861 -2.596 0
M  V30 2 C 1.6161 -1.4001 -2.4685 0
M  V30 3 N 1.3178 -2.3813 -3.3765 0
M  V30 4 C 0.6028 -1.1784 -1.2913 0 CFG=2
M  V30 5 C 0.7604 -2.3307 -0.2584 0
M  V30 6 C -0.8073 -1.0214 -1.9446 0
M  V30 7 C 1.0354 0.1326 -0.5417 0
M  V30 8 N -0.2949 -2.6072 0.5571 0
M  V30 9 C 1.9831 -2.989 -0.0798 0
M  V30 10 C -1.7569 -2.0604 -1.9635 0
M  V30 11 C -1.1404 0.1621 -2.6374 0
M  V30 12 C 0.0925 0.5667 0.5994 0
M  V30 13 C -0.1485 -3.5554 1.5093 0
M  V30 14 C 2.1064 -3.9654 0.9081 0
M  V30 15 C -2.9941 -1.9071 -2.5973 0
M  V30 16 C -2.3766 0.3148 -3.2717 0
M  V30 17 N 0.4867 1.8667 1.1769 0
M  V30 18 C 1.0202 -4.2593 1.7178 0
M  V30 19 C -3.3059 -0.7182 -3.2468 0
M  V30 20 C 0.1772 2.0125 2.6151 0
M  V30 21 C 0.1265 3.0223 0.3281 0
M  V30 22 C -1.1678 1.4403 3.0874 0
M  V30 23 C 1.3187 1.3783 3.4233 0
M  V30 24 C -1.3222 3.5061 0.4401 0
M  V30 25 C 1.0969 4.1857 0.5766 0
M  V30 26 H 1.9615 -2.5346 -4.1406 0
M  V30 27 H 0.4452 -2.8929 -3.3624 0
M  V30 28 H 2.0399 -0.004 -0.1134 0
M  V30 29 H 1.1599 0.9422 -1.2683 0
M  V30 30 H 2.8563 -2.745 -0.6787 0
M  V30 31 H -1.5578 -3.0144 -1.4809 0
M  V30 32 H -0.4362 0.9881 -2.7073 0
M  V30 33 H -0.9538 0.5924 0.2793 0
M  V30 34 H 0.1673 -0.2032 1.3719 0
M  V30 35 H -1.0274 -3.7337 2.1222 0
M  V30 36 H 3.0526 -4.4799 1.0505 0
M  V30 37 H -3.7141 -2.7214 -2.5795 0
M  V30 38 H -2.6086 1.242 -3.7896 0
M  V30 39 H 1.0872 -5.0076 2.4988 0
M  V30 40 H -4.2681 -0.5996 -3.7372 0
M  V30 41 H 0.1841 3.0739 2.8877 0
M  V30 42 H 0.2772 2.752 -0.7226 0
M  V30 43 H -2.0069 1.8313 2.5066 0
M  V30 44 H -1.3435 1.7149 4.1339 0
M  V30 45 H -1.1989 0.3473 3.0347 0
M  V30 46 H 1.175 1.5566 4.4948 0
M  V30 47 H 1.3804 0.2954 3.2723 0
M  V30 48 H 2.2842 1.8156 3.1449 0
M  V30 49 H -2.0305 2.6971 0.2363 0
M  V30 50 H -1.5146 4.2955 -0.2955 0
M  V30 51 H -1.5427 3.9248 1.427 0
M  V30 52 H 0.9361 4.979 -0.162 0
M  V30 53 H 0.9723 4.6324 1.5678 0
M  V30 54 H 2.1367 3.8545 0.4787 0
M  V30 END ATOM
M  V30 BEGIN BOND
M  V30 1 2 1 2
M  V30 2 1 2 3
M  V30 3 1 2 4
M  V30 4 1 4 5
M  V30 5 1 4 6
M  V30 6 1 4 7
M  V30 7 2 5 8
M  V30 8 1 5 9
M  V30 9 2 6 10
M  V30 10 1 6 11
M  V30 11 1 7 12
M  V30 12 1 8 13
M  V30 13 2 9 14
M  V30 14 1 10 15
M  V30 15 2 11 16
M  V30 16 1 12 17
M  V30 17 2 13 18
M  V30 18 2 15 19
M  V30 19 1 17 20
M  V30 20 1 17 21
M  V30 21 1 20 22
M  V30 22 1 20 23
M  V30 23 1 21 24
M  V30 24 1 21 25
M  V30 25 1 14 18
M  V30 26 1 16 19
M  V30 27 1 3 26
M  V30 28 1 3 27
M  V30 29 1 7 28
M  V30 30 1 7 29
M  V30 31 1 9 30
M  V30 32 1 10 31
M  V30 33 1 11 32
M  V30 34 1 12 33
M  V30 35 1 12 34
M  V30 36 1 13 35
M  V30 37 1 14 36
M  V30 38 1 15 37
M  V30 39 1 16 38
M  V30 40 1 18 39
M  V30 41 1 19 40
M  V30 42 1 20 41
M  V30 43 1 21 42
M  V30 44 1 22 43
M  V30 45 1 22 44
M  V30 46 1 22 45
M  V30 47 1 23 46
M  V30 48 1 23 47
M  V30 49 1 23 48
M  V30 50 1 24 49
M  V30 51 1 24 50
M  V30 52 1 24 51
M  V30 53 1 25 52
M  V30 54 1 25 53
M  V30 55 1 25 54
M  V30 END BOND
M  V30 BEGIN COLLECTION
M  V30 MDLV30/STERAC1 ATOMS=(1 4)
M  V30 END COLLECTION
M  V30 END CTAB
M  END
>  <Column 1>
2969

>  <level_0>
5110

>  <index>
5111

>  <Unnamed: 0>
5111

>  <NO.>
5123

>  <Name>
disopyramide

>  <IUPAC_name>
4-[di(propan-2-yl)amino]-2-phenyl-2-pyridin-2-ylbutanamide

>  <SMILES>
CC(C)N(CCC(C(N)=O)(c1ccccc1)c1ccccn1)C(C)C

>  <CID>
3114

>  <logBB>


>  <BBB+/BBB->
BBB-

>  <Inchi>
InChI=1S/C21H29N3O/c1-16(2)24(17(3)4)15-13-21(20(22)25-18-10-6-5-7-11-18)19-12-8-9-14-23-19/h5-12-14-16-17H-13-15H2-1-4H3-(H2-22-25)

>  <threshold>


>  <reference>
R14|R15|

>  <group>
C

>  <Class>
-1

>  <ABC>
18.78

>  <ABCGG>
16.87

>  <nAcid>
0

>  <nBase>
1

>  <nAromAtom>
12

>  <nAromBond>
12

>  <nAtom>
54

>  <nHeavyAtom>
25

>  <nSpiro>
0

>  <nBridgehead>
0

>  <nHetero>
4

>  <nN>
3

>  <nO>
1

>  <nF>
0

>  <BalabanJ>
2.24

>  <BertzCT>
620.56

>  <nBonds>
55

>  <nBondsO>
26

>  <nBondsS>
42

>  <nBondsD>
1

>  <nBondsT>
0

>  <nBondsA>
12

>  <nBondsM>
13

>  <nBondsKS>
48

>  <nBondsKD>
7

>  <RNCG>
0.2

>  <RPCG>
0.12

>  <FCSP3>
0.43

>  <SZ>
30.67

>  <Sm>
28.26

>  <Sv>
31.85

>  <Sse>
53.19

>  <Sp>
35.04

>  <Si>
61.1

>  <MZ>
0.57

>  <Mm>
0.52

>  <Mv>
0.59

>  <Mse>
0.99

>  <Mp>
0.65

>  <Mi>
1.13

>  <NsCH3>
4

>  <NdCH2>
0

>  <NssCH2>
2

>  <NtCH>
0

>  <NdsCH>
0

>  <NaaCH>
9

>  <NsssCH>
2

>  <NddC>
0

>  <NtsC>
0

>  <NdssC>
1

>  <NaasC>
2

>  <NaaaC>
0

>  <NssssC>
1

>  <NsNH3>
0

>  <NsNH2>
1

>  <NssNH2>
0

>  <NdNH>
0

>  <NssNH>
0

>  <NaaNH>
0

>  <NtN>
0

>  <NsssNH>
0

>  <NdsN>
0

>  <NaaN>
1

>  <NsssN>
1

>  <NddsN>
0

>  <NaasN>
0

>  <NssssN>
0

>  <NsOH>
0

>  <NdO>
1

>  <NssO>
0

>  <NaaO>
0

>  <NsF>
0

>  <NsSiH3>
0

>  <NssSiH2>
0

>  <NsssSiH>
0

>  <NssssSi>
0

>  <NsPH2>
0

>  <NssPH>
0

>  <NsssP>
0

>  <NdsssP>
0

>  <NsssssP>
0

>  <NsSH>
0

>  <NdS>
0

>  <NssS>
0

>  <NaaS>
0

>  <NdssS>
0

>  <NddssS>
0

>  <NsCl>
0

>  <NsBr>
0

>  <NsI>
0

>  <fragCpx>
76.04

>  <fMF>
0.24

>  <nHBAcc>
3

>  <nHBDon>
1

>  <Kier1>
21.3

>  <Kier2>
9.8

>  <Lipinski>
1

>  <GhoseFilter>
1

>  <FilterItLogS>
-4.58

>  <VMcGowan>
290.74

>  <LabuteASA>
150.62

>  <PEOE_VSA1>
5.73

>  <PEOE_VSA2>
14.68

>  <PEOE_VSA3>
0

>  <PEOE_VSA4>
0

>  <PEOE_VSA5>
0

>  <PEOE_VSA6>
36.4

>  <PEOE_VSA7>
51.81

>  <PEOE_VSA8>
24.83

>  <PEOE_VSA9>
5.69

>  <PEOE_VSA10>
5.41

>  <PEOE_VSA11>
0

>  <PEOE_VSA12>
5.91

>  <PEOE_VSA13>
0

>  <SMR_VSA1>
4.79

>  <SMR_VSA2>
0

>  <SMR_VSA3>
9.88

>  <SMR_VSA4>
5.73

>  <SMR_VSA5>
51.61

>  <SMR_VSA6>
6.54

>  <SMR_VSA7>
65.99

>  <SMR_VSA8>
0

>  <SMR_VSA9>
0

>  <SlogP_VSA1>
5.73

>  <SlogP_VSA2>
34.42

>  <SlogP_VSA3>
10.21

>  <SlogP_VSA4>
0

>  <SlogP_VSA5>
45.37

>  <SlogP_VSA6>
54.73

>  <SlogP_VSA7>
0

>  <SlogP_VSA8>
0

>  <SlogP_VSA9>
0

>  <SlogP_VSA10>
0

>  <SlogP_VSA11>
0

>  <EState_VSA1>
5.41

>  <EState_VSA2>
5.91

>  <EState_VSA3>
24.2

>  <EState_VSA4>
12.11

>  <EState_VSA5>
0

>  <EState_VSA6>
6.2

>  <EState_VSA7>
48.53

>  <EState_VSA8>
37.58

>  <EState_VSA9>
5.73

>  <EState_VSA10>
4.79

>  <VSA_EState1>
0

>  <VSA_EState2>
19.61

>  <VSA_EState3>
0

>  <VSA_EState4>
6.66

>  <VSA_EState5>
-0.36

>  <VSA_EState6>
16.21

>  <VSA_EState7>
2.32

>  <VSA_EState8>
9.47

>  <VSA_EState9>
0

>  <apol>
58.51

>  <bpol>
32.24

>  <nRing>
2

>  <nHRing>
1

>  <naRing>
2

>  <naHRing>
1

>  <nARing 2>
0

>  <nAHRing 2>
0

>  <nFRing>
0

>  <nFHRing>
0

>  <nFaRing>
0

>  <nFaHRing>
0

>  <nFARing 2>
0

>  <nFAHRing 2>
0

>  <nRot>
8

>  <SLogP>
3.36

>  <SMR>
102.25

>  <TopoPSA(NO)>
59.22

>  <TopoPSA>
59.22

>  <JGI1>
0.21

>  <JGI2>
0.1

>  <JGI3>
0.07

>  <JGI4>
0.02

>  <JGI5>
0.02

>  <Diameter>
9

>  <Radius>
5

>  <TMWC10>
126.28

>  <TSRW10>
59.71

>  <MW>
339.23

>  <AMW>
6.28

>  <WPath>
1372

>  <WPol>
42

>  <Zagreb1>
124

>  <Zagreb2>
146

>  <mZagreb2>
5.68

>  <yes>


>  <nAR-cont>
0.336376

>  <nHA-cont>
0.921834225

>  <MWHBN>
0.217176518

>  <MWHBN-cont>
0.996589137

>  <TPSA-cont>
0.586607627

>  <pka_cont>
0.97

>  <yes.1>


>  <BBB_SCORE>
4.411309183

>  <MMFF94 Energy>
80.442

$$$$
Compound 2410
Actelion Java MolfileCreator 2.0

  0  0  0  0  0  0              0 V3000
M  V30 BEGIN CTAB
M  V30 COUNTS 32 32 0 0 0
M  V30 BEGIN ATOM
M  V30 1 O -2.255 -0.5439 -2.8778 0
M  V30 2 C -2.0296 -1.2516 -1.7329 0
M  V30 3 C -2.5861 -2.51 -1.5427 0
M  V30 4 C -1.2193 -0.6675 -0.7601 0
M  V30 5 C -2.3189 -3.1874 -0.3612 0
M  V30 6 C -0.9539 -1.3403 0.4411 0
M  V30 7 O -2.8689 -4.4253 -0.2006 0
M  V30 8 C -1.5141 -2.6195 0.6248 0
M  V30 9 C -0.0839 -0.7715 1.5466 0 CFG=1
M  V30 10 O 1.0937 -1.585 1.6535 0
M  V30 11 C 0.3476 0.7168 1.4436 0
M  V30 12 N 1.4397 0.9219 0.4687 0
M  V30 13 C 1.8595 2.327 0.3762 0
M  V30 14 C 3.2161 2.3805 -0.3316 0
M  V30 15 C 0.8445 3.1674 -0.4003 0
M  V30 16 H -2.8175 -1.0779 -3.4628 0
M  V30 17 H -3.2167 -2.9735 -2.293 0
M  V30 18 H -0.7978 0.3133 -0.9649 0
M  V30 19 H -2.5768 -4.785 0.6534 0
M  V30 20 H -1.3051 -3.1608 1.5447 0
M  V30 21 H -0.6354 -0.8783 2.4894 0
M  V30 22 H 1.4024 -1.6997 0.7355 0
M  V30 23 H -0.5257 1.3368 1.2174 0
M  V30 24 H 0.7242 1.0202 2.429 0
M  V30 25 H 2.2306 0.3592 0.7906 0
M  V30 26 H 1.9913 2.7495 1.3801 0
M  V30 27 H 3.1581 1.9677 -1.3451 0
M  V30 28 H 3.9726 1.8138 0.2227 0
M  V30 29 H 3.5712 3.414 -0.4093 0
M  V30 30 H -0.1143 3.2326 0.1227 0
M  V30 31 H 0.6596 2.751 -1.3969 0
M  V30 32 H 1.2115 4.1916 -0.5299 0
M  V30 END ATOM
M  V30 BEGIN BOND
M  V30 1 1 1 2
M  V30 2 2 2 3
M  V30 3 1 2 4
M  V30 4 1 3 5
M  V30 5 2 4 6
M  V30 6 1 5 7
M  V30 7 2 5 8
M  V30 8 1 6 9
M  V30 9 1 9 10
M  V30 10 1 9 11
M  V30 11 1 11 12
M  V30 12 1 12 13
M  V30 13 1 13 14
M  V30 14 1 13 15
M  V30 15 1 6 8
M  V30 16 1 1 16
M  V30 17 1 3 17
M  V30 18 1 4 18
M  V30 19 1 7 19
M  V30 20 1 8 20
M  V30 21 1 9 21
M  V30 22 1 10 22
M  V30 23 1 11 23
M  V30 24 1 11 24
M  V30 25 1 12 25
M  V30 26 1 13 26
M  V30 27 1 14 27
M  V30 28 1 14 28
M  V30 29 1 14 29
M  V30 30 1 15 30
M  V30 31 1 15 31
M  V30 32 1 15 32
M  V30 END BOND
M  V30 BEGIN COLLECTION
M  V30 MDLV30/STERAC1 ATOMS=(1 9)
M  V30 END COLLECTION
M  V30 END CTAB
M  END
>  <Column 1>
2970

>  <level_0>
5111

>  <index>
5112

>  <Unnamed: 0>
5112

>  <NO.>
5124

>  <Name>
metaproterenol

>  <IUPAC_name>
5-[1-hydroxy-2-(propan-2-ylamino)ethyl]benzene-1-3-diol

>  <SMILES>
CC(C)NCC(O)c1cc(O)cc(O)c1

>  <CID>
4086

>  <logBB>


>  <BBB+/BBB->
BBB-

>  <Inchi>
InChI=1S/C11H17NO3/c1-7(2)12-6-11(15)8-3-9(13)5-10(14)4-8/h3-5-7-11-15H-6H2-1-2H3

>  <threshold>


>  <reference>
R14|R15|R23|

>  <group>
C

>  <Class>
-1

>  <ABC>
11.11

>  <ABCGG>
10.15

>  <nAcid>
0

>  <nBase>
1

>  <nAromAtom>
6

>  <nAromBond>
6

>  <nAtom>
32

>  <nHeavyAtom>
15

>  <nSpiro>
0

>  <nBridgehead>
0

>  <nHetero>
4

>  <nN>
1

>  <nO>
3

>  <nF>
0

>  <BalabanJ>
2.34

>  <BertzCT>
305.36

>  <nBonds>
32

>  <nBondsO>
15

>  <nBondsS>
26

>  <nBondsD>
0

>  <nBondsT>
0

>  <nBondsA>
6

>  <nBondsM>
6

>  <nBondsKS>
29

>  <nBondsKD>
3

>  <RNCG>
0.27

>  <RPCG>
0.16

>  <FCSP3>
0.45

>  <SZ>
19

>  <Sm>
17.59

>  <Sv>
18.51

>  <Sse>
32.2

>  <Sp>
19.89

>  <Si>
36.45

>  <MZ>
0.59

>  <Mm>
0.55

>  <Mv>
0.58

>  <Mse>
1.01

>  <Mp>
0.62

>  <Mi>
1.14

>  <NsCH3>
2

>  <NdCH2>
0

>  <NssCH2>
1

>  <NtCH>
0

>  <NdsCH>
0

>  <NaaCH>
3

>  <NsssCH>
2

>  <NddC>
0

>  <NtsC>
0

>  <NdssC>
0

>  <NaasC>
3

>  <NaaaC>
0

>  <NssssC>
0

>  <NsNH3>
0

>  <NsNH2>
0

>  <NssNH2>
0

>  <NdNH>
0

>  <NssNH>
1

>  <NaaNH>
0

>  <NtN>
0

>  <NsssNH>
0

>  <NdsN>
0

>  <NaaN>
0

>  <NsssN>
0

>  <NddsN>
0

>  <NaasN>
0

>  <NssssN>
0

>  <NsOH>
3

>  <NdO>
0

>  <NssO>
0

>  <NaaO>
0

>  <NsF>
0

>  <NsSiH3>
0

>  <NssSiH2>
0

>  <NsssSiH>
0

>  <NssssSi>
0

>  <NsPH2>
0

>  <NssPH>
0

>  <NsssP>
0

>  <NdsssP>
0

>  <NsssssP>
0

>  <NsSH>
0

>  <NdS>
0

>  <NssS>
0

>  <NaaS>
0

>  <NdssS>
0

>  <NddssS>
0

>  <NsCl>
0

>  <NsBr>
0

>  <NsI>
0

>  <fragCpx>
15.04

>  <fMF>
0.19

>  <nHBAcc>
4

>  <nHBDon>
4

>  <Kier1>
13.07

>  <Kier2>
5.92

>  <Lipinski>
1

>  <GhoseFilter>
1

>  <FilterItLogS>
-1.55

>  <VMcGowan>
169.68

>  <LabuteASA>
89.19

>  <PEOE_VSA1>
20.64

>  <PEOE_VSA2>
0

>  <PEOE_VSA3>
0

>  <PEOE_VSA4>
0

>  <PEOE_VSA5>
0

>  <PEOE_VSA6>
13.85

>  <PEOE_VSA7>
17.7

>  <PEOE_VSA8>
18.65

>  <PEOE_VSA9>
6.1

>  <PEOE_VSA10>
11.5

>  <PEOE_VSA11>
0

>  <PEOE_VSA12>
0

>  <PEOE_VSA13>
0

>  <SMR_VSA1>
15.32

>  <SMR_VSA2>
0

>  <SMR_VSA3>
5.32

>  <SMR_VSA4>
0

>  <SMR_VSA5>
25.99

>  <SMR_VSA6>
6.54

>  <SMR_VSA7>
23.76

>  <SMR_VSA8>
0

>  <SMR_VSA9>
11.5

>  <SlogP_VSA1>
5.32

>  <SlogP_VSA2>
27.91

>  <SlogP_VSA3>
0

>  <SlogP_VSA4>
0

>  <SlogP_VSA5>
25.51

>  <SlogP_VSA6>
18.2

>  <SlogP_VSA7>
0

>  <SlogP_VSA8>
0

>  <SlogP_VSA9>
0

>  <SlogP_VSA10>
0

>  <SlogP_VSA11>
11.5

>  <EState_VSA1>
6.1

>  <EState_VSA2>
17.54

>  <EState_VSA3>
12.11

>  <EState_VSA4>
0

>  <EState_VSA5>
18.2

>  <EState_VSA6>
0

>  <EState_VSA7>
13.85

>  <EState_VSA8>
5.32

>  <EState_VSA9>
0

>  <EState_VSA10>
15.32

>  <VSA_EState1>
0

>  <VSA_EState2>
0

>  <VSA_EState3>
31.26

>  <VSA_EState4>
0.5

>  <VSA_EState5>
-0.1

>  <VSA_EState6>
4.38

>  <VSA_EState7>
-0.73

>  <VSA_EState8>
4.35

>  <VSA_EState9>
0

>  <apol>
33.21

>  <bpol>
17.62

>  <nRing>
1

>  <nHRing>
0

>  <naRing>
1

>  <naHRing>
0

>  <nARing 2>
0

>  <nAHRing 2>
0

>  <nFRing>
0

>  <nFHRing>
0

>  <nFaRing>
0

>  <nFaHRing>
0

>  <nFARing 2>
0

>  <nFAHRing 2>
0

>  <nRot>
4

>  <SLogP>
1.13

>  <SMR>
57.87

>  <TopoPSA(NO)>
72.72

>  <TopoPSA>
72.72

>  <JGI1>
0.3

>  <JGI2>
0.08

>  <JGI3>
0.06

>  <JGI4>
0.06

>  <JGI5>
0.03

>  <Diameter>
8

>  <Radius>
4

>  <TMWC10>
97.63

>  <TSRW10>
46.23

>  <MW>
211.12

>  <AMW>
6.6

>  <WPath>
394

>  <WPol>
18

>  <Zagreb1>
70

>  <Zagreb2>
76

>  <mZagreb2>
3.36

>  <yes>


>  <nAR-cont>
0.336376

>  <nHA-cont>
0.92539861

>  <MWHBN>
0.55058617

>  <MWHBN-cont>
0

>  <TPSA-cont>
0.492369244

>  <pka_cont>
0.97

>  <yes.1>


>  <BBB_SCORE>
2.731513098

>  <MMFF94 Energy>
26.261

$$$$
Compound 2411
Actelion Java MolfileCreator 2.0

  0  0  0  0  0  0              0 V3000
M  V30 BEGIN CTAB
M  V30 COUNTS 41 42 0 0 0
M  V30 BEGIN ATOM
M  V30 1 O 3.2355 -3.4726 0.0 0
M  V30 2 N 2.3181 -3.7025 -0.8 0 CHG=1
M  V30 3 O 2.2576 -4.687 -1.5495 0 CHG=-1
M  V30 4 C 1.2195 -2.7435 -0.8533 0
M  V30 5 C 0.7005 -2.3025 -2.0832 0
M  V30 6 C 0.7103 -2.2916 0.3758 0
M  V30 7 C -0.3869 -1.4171 -2.0284 0
M  V30 8 C 1.2443 -2.7739 -3.4104 0
M  V30 9 C -0.354 -1.391 0.4119 0
M  V30 10 C -0.9186 -0.974 -0.8021 0
M  V30 11 O 0.8728 -1.8954 -4.4673 0
M  V30 12 N -0.8442 -0.9596 1.6292 0
M  V30 13 C -2.0695 8.0E-4 -0.8094 0
M  V30 14 C -1.9303 0.0171 1.7367 0 CFG=2
M  V30 15 C -2.839 -0.0278 0.5058 0
M  V30 16 C -1.3744 1.427 2.0876 0
M  V30 17 N -0.4396 1.966 1.0967 0
M  V30 18 C 0.2369 3.1904 1.525 0
M  V30 19 C 1.3795 2.9081 2.5023 0
M  V30 20 C 0.7858 3.8776 0.2734 0
M  V30 21 H 1.1435 -2.6469 1.3083 0
M  V30 22 H -0.8325 -1.0549 -2.9552 0
M  V30 23 H 2.3382 -2.7983 -3.3921 0
M  V30 24 H 0.8486 -3.7682 -3.64 0
M  V30 25 H 1.2503 -2.2681 -5.2822 0
M  V30 26 H -0.3618 -1.2202 2.4805 0
M  V30 27 H -2.7634 -0.253 -1.6203 0
M  V30 28 H -1.6883 1.0056 -1.019 0
M  V30 29 H -2.5435 -0.2837 2.5965 0
M  V30 30 H -3.4167 -0.9623 0.5427 0
M  V30 31 H -3.5706 0.788 0.5326 0
M  V30 32 H -0.8794 1.3455 3.0623 0
M  V30 33 H -2.2163 2.1195 2.2057 0
M  V30 34 H 0.2399 1.2386 0.8616 0
M  V30 35 H -0.482 3.8744 1.9926 0
M  V30 36 H 2.1119 2.2147 2.0738 0
M  V30 37 H 1.0138 2.4768 3.4392 0
M  V30 38 H 1.9065 3.8348 2.755 0
M  V30 39 H -0.0198 4.1086 -0.4327 0
M  V30 40 H 1.5198 3.2493 -0.244 0
M  V30 41 H 1.2764 4.8217 0.5345 0
M  V30 END ATOM
M  V30 BEGIN BOND
M  V30 1 2 1 2
M  V30 2 1 2 3
M  V30 3 1 2 4
M  V30 4 2 4 5
M  V30 5 1 4 6
M  V30 6 1 5 7
M  V30 7 1 5 8
M  V30 8 2 6 9
M  V30 9 2 7 10
M  V30 10 1 8 11
M  V30 11 1 9 12
M  V30 12 1 10 13
M  V30 13 1 12 14
M  V30 14 1 13 15
M  V30 15 1 14 16
M  V30 16 1 16 17
M  V30 17 1 17 18
M  V30 18 1 18 19
M  V30 19 1 18 20
M  V30 20 1 9 10
M  V30 21 1 14 15
M  V30 22 1 6 21
M  V30 23 1 7 22
M  V30 24 1 8 23
M  V30 25 1 8 24
M  V30 26 1 11 25
M  V30 27 1 12 26
M  V30 28 1 13 27
M  V30 29 1 13 28
M  V30 30 1 14 29
M  V30 31 1 15 30
M  V30 32 1 15 31
M  V30 33 1 16 32
M  V30 34 1 16 33
M  V30 35 1 17 34
M  V30 36 1 18 35
M  V30 37 1 19 36
M  V30 38 1 19 37
M  V30 39 1 19 38
M  V30 40 1 20 39
M  V30 41 1 20 40
M  V30 42 1 20 41
M  V30 END BOND
M  V30 BEGIN COLLECTION
M  V30 MDLV30/STERAC1 ATOMS=(1 14)
M  V30 END COLLECTION
M  V30 END CTAB
M  END
>  <Column 1>
2971

>  <level_0>
5112

>  <index>
5113

>  <Unnamed: 0>
5113

>  <NO.>
5125

>  <Name>
oxamniquine

>  <IUPAC_name>
[7-nitro-2-[(propan-2-ylamino)methyl]-1-2-3-4-tetrahydroquinolin-6-yl]methanol

>  <SMILES>
CC(C)NCC1CCc2cc(CO)c([N+](=O)[O-])cc2N1

>  <CID>
4612

>  <logBB>


>  <BBB+/BBB->
BBB-

>  <Inchi>
InChI=1S/C14H21N3O3/c1-9(2)15-7-12-4-3-10-5-11(8-18)14(17(19)20)6-13(10)16-12/h5-6-9-12-15-16-18H-3-4-7-8H2-1-2H3

>  <threshold>


>  <reference>
R14|R23|

>  <group>
C

>  <Class>
-1

>  <ABC>
15.17

>  <ABCGG>
12.58

>  <nAcid>
0

>  <nBase>
1

>  <nAromAtom>
6

>  <nAromBond>
6

>  <nAtom>
41

>  <nHeavyAtom>
20

>  <nSpiro>
0

>  <nBridgehead>
0

>  <nHetero>
6

>  <nN>
3

>  <nO>
3

>  <nF>
0

>  <BalabanJ>
1.9

>  <BertzCT>
502.68

>  <nBonds>
42

>  <nBondsO>
21

>  <nBondsS>
35

>  <nBondsD>
1

>  <nBondsT>
0

>  <nBondsA>
6

>  <nBondsM>
7

>  <nBondsKS>
38

>  <nBondsKD>
4

>  <RNCG>
0.21

>  <RPCG>
0.15

>  <FCSP3>
0.57

>  <SZ>
25

>  <Sm>
23.26

>  <Sv>
24.11

>  <Sse>
41.3

>  <Sp>
25.8

>  <Si>
46.86

>  <MZ>
0.61

>  <Mm>
0.57

>  <Mv>
0.59

>  <Mse>
1.01

>  <Mp>
0.63

>  <Mi>
1.14

>  <NsCH3>
2

>  <NdCH2>
0

>  <NssCH2>
4

>  <NtCH>
0

>  <NdsCH>
0

>  <NaaCH>
2

>  <NsssCH>
2

>  <NddC>
0

>  <NtsC>
0

>  <NdssC>
0

>  <NaasC>
4

>  <NaaaC>
0

>  <NssssC>
0

>  <NsNH3>
0

>  <NsNH2>
0

>  <NssNH2>
0

>  <NdNH>
0

>  <NssNH>
2

>  <NaaNH>
0

>  <NtN>
0

>  <NsssNH>
0

>  <NdsN>
0

>  <NaaN>
0

>  <NsssN>
0

>  <NddsN>
1

>  <NaasN>
0

>  <NssssN>
0

>  <NsOH>
1

>  <NdO>
1

>  <NssO>
0

>  <NaaO>
0

>  <NsF>
0

>  <NsSiH3>
0

>  <NssSiH2>
0

>  <NsssSiH>
0

>  <NssssSi>
0

>  <NsPH2>
0

>  <NssPH>
0

>  <NsssP>
0

>  <NdsssP>
0

>  <NsssssP>
0

>  <NsSH>
0

>  <NdS>
0

>  <NssS>
0

>  <NaaS>
0

>  <NdssS>
0

>  <NddssS>
0

>  <NsCl>
0

>  <NsBr>
0

>  <NsI>
0

>  <fragCpx>
61.06

>  <fMF>
0.24

>  <nHBAcc>
5

>  <nHBDon>
3

>  <Kier1>
16.37

>  <Kier2>
7.32

>  <Lipinski>
1

>  <GhoseFilter>
1

>  <FilterItLogS>
-3.86

>  <VMcGowan>
216.75

>  <LabuteASA>
117.89

>  <PEOE_VSA1>
15.74

>  <PEOE_VSA2>
10.11

>  <PEOE_VSA3>
0

>  <PEOE_VSA4>
0

>  <PEOE_VSA5>
0

>  <PEOE_VSA6>
13.85

>  <PEOE_VSA7>
24.47

>  <PEOE_VSA8>
30.38

>  <PEOE_VSA9>
17.09

>  <PEOE_VSA10>
0

>  <PEOE_VSA11>
0

>  <PEOE_VSA12>
0

>  <PEOE_VSA13>
5.69

>  <SMR_VSA1>
10.03

>  <SMR_VSA2>
0

>  <SMR_VSA3>
5.32

>  <SMR_VSA4>
0

>  <SMR_VSA5>
45.38

>  <SMR_VSA6>
11.86

>  <SMR_VSA7>
33.37

>  <SMR_VSA8>
0

>  <SMR_VSA9>
0

>  <SlogP_VSA1>
10.63

>  <SlogP_VSA2>
28.66

>  <SlogP_VSA3>
13.03

>  <SlogP_VSA4>
10.11

>  <SlogP_VSA5>
31.4

>  <SlogP_VSA6>
12.13

>  <SlogP_VSA7>
0

>  <SlogP_VSA8>
0

>  <SlogP_VSA9>
0

>  <SlogP_VSA10>
11.37

>  <SlogP_VSA11>
0

>  <EState_VSA1>
4.92

>  <EState_VSA2>
18.34

>  <EState_VSA3>
11.61

>  <EState_VSA4>
30.64

>  <EState_VSA5>
0

>  <EState_VSA6>
12.13

>  <EState_VSA7>
0

>  <EState_VSA8>
24.48

>  <EState_VSA9>
0

>  <EState_VSA10>
15.22

>  <VSA_EState1>
0

>  <VSA_EState2>
10.58

>  <VSA_EState3>
26.97

>  <VSA_EState4>
2.22

>  <VSA_EState5>
0

>  <VSA_EState6>
3.99

>  <VSA_EState7>
1.85

>  <VSA_EState8>
4.72

>  <VSA_EState9>
0

>  <apol>
43.09

>  <bpol>
23.37

>  <nRing>
2

>  <nHRing>
1

>  <naRing>
1

>  <naHRing>
0

>  <nARing 2>
1

>  <nAHRing 2>
1

>  <nFRing>
1

>  <nFHRing>
1

>  <nFaRing>
0

>  <nFaHRing>
0

>  <nFARing 2>
1

>  <nFAHRing 2>
1

>  <nRot>
5

>  <SLogP>
1.81

>  <SMR>
77.89

>  <TopoPSA(NO)>
87.43

>  <TopoPSA>
87.43

>  <JGI1>
0.24

>  <JGI2>
0.08

>  <JGI3>
0.04

>  <JGI4>
0.06

>  <JGI5>
0.03

>  <Diameter>
11

>  <Radius>
6

>  <TMWC10>
113.58

>  <TSRW10>
53.41

>  <MW>
279.16

>  <AMW>
6.81

>  <WPath>
847

>  <WPol>
30

>  <Zagreb1>
100

>  <Zagreb2>
115

>  <mZagreb2>
4.5

>  <yes>


>  <nAR-cont>
0.816016

>  <nHA-cont>
0.999629945

>  <MWHBN>
0.478810199

>  <MWHBN-cont>
0

>  <TPSA-cont>
0.389684309

>  <pka_cont>
0.97

>  <yes.1>


>  <BBB_SCORE>
3.080014563

>  <MMFF94 Energy>
53.928

$$$$
Compound 2412
Actelion Java MolfileCreator 2.0

  0  0  0  0  0  0              0 V3000
M  V30 BEGIN CTAB
M  V30 COUNTS 47 49 0 0 0
M  V30 BEGIN ATOM
M  V30 1 O -0.2374 2.1385 -3.8836 0
M  V30 2 C -0.8298 1.8671 -2.8404 0
M  V30 3 N -2.1796 2.0956 -2.7993 0
M  V30 4 C -0.164 1.2742 -1.562 0
M  V30 5 C 1.3151 0.9449 -1.8336 0
M  V30 6 C -0.0322 2.3565 -0.4737 0
M  V30 7 C -0.9448 0.0274 -1.0668 0
M  V30 8 C 2.1512 1.7513 -1.0326 0
M  V30 9 C 1.8473 0.0123 -2.7152 0
M  V30 10 C 1.3321 2.6123 -0.2073 0
M  V30 11 C -1.03 3.0287 0.2218 0
M  V30 12 C -0.3382 -0.7044 0.1436 0
M  V30 13 C 3.5296 1.6263 -1.1067 0
M  V30 14 C 3.2356 -0.1113 -2.7888 0
M  V30 15 C 1.7036 3.5525 0.7413 0
M  V30 16 C -0.653 3.9757 1.1771 0
M  V30 17 C -1.2244 -1.8798 0.5713 0
M  V30 18 C 4.0696 0.6878 -1.9912 0
M  V30 19 C 0.7013 4.2375 1.4329 0
M  V30 20 N -0.6105 -2.5675 1.7036 0
M  V30 21 C -1.3634 -3.7425 2.1523 0
M  V30 22 C -0.4482 -4.5627 3.0637 0
M  V30 23 C -2.6403 -3.365 2.9056 0
M  V30 24 H -2.5994 2.4899 -3.6315 0
M  V30 25 H -2.7605 1.9387 -1.991 0
M  V30 26 H -1.0385 -0.688 -1.8954 0
M  V30 27 H -1.9709 0.3132 -0.8023 0
M  V30 28 H 1.207 -0.5964 -3.3452 0
M  V30 29 H -2.0813 2.8364 0.0431 0
M  V30 30 H 0.6613 -1.0801 -0.1035 0
M  V30 31 H -0.228 -0.0107 0.9855 0
M  V30 32 H 4.1847 2.238 -0.496 0
M  V30 33 H 3.6766 -0.8292 -3.4761 0
M  V30 34 H 2.7482 3.7564 0.952 0
M  V30 35 H -1.4159 4.5185 1.7309 0
M  V30 36 H -1.3376 -2.5722 -0.271 0
M  V30 37 H -2.2171 -1.5003 0.8365 0
M  V30 38 H 5.1487 0.5773 -2.066 0
M  V30 39 H 0.974 4.9794 2.18 0
M  V30 40 H -0.4711 -1.9189 2.4782 0
M  V30 41 H -1.6231 -4.3707 1.2913 0
M  V30 42 H -0.1534 -3.9975 3.9554 0
M  V30 43 H 0.4639 -4.8634 2.5361 0
M  V30 44 H -0.9528 -5.4762 3.397 0
M  V30 45 H -3.3548 -2.8504 2.2556 0
M  V30 46 H -2.4249 -2.7114 3.7585 0
M  V30 47 H -3.1392 -4.2614 3.2903 0
M  V30 END ATOM
M  V30 BEGIN BOND
M  V30 1 2 1 2
M  V30 2 1 2 3
M  V30 3 1 2 4
M  V30 4 1 4 5
M  V30 5 1 4 6
M  V30 6 1 4 7
M  V30 7 2 5 8
M  V30 8 1 5 9
M  V30 9 2 6 10
M  V30 10 1 6 11
M  V30 11 1 7 12
M  V30 12 1 8 13
M  V30 13 2 9 14
M  V30 14 1 10 15
M  V30 15 2 11 16
M  V30 16 1 12 17
M  V30 17 2 13 18
M  V30 18 2 15 19
M  V30 19 1 17 20
M  V30 20 1 20 21
M  V30 21 1 21 22
M  V30 22 1 21 23
M  V30 23 1 8 10
M  V30 24 1 14 18
M  V30 25 1 16 19
M  V30 26 1 3 24
M  V30 27 1 3 25
M  V30 28 1 7 26
M  V30 29 1 7 27
M  V30 30 1 9 28
M  V30 31 1 11 29
M  V30 32 1 12 30
M  V30 33 1 12 31
M  V30 34 1 13 32
M  V30 35 1 14 33
M  V30 36 1 15 34
M  V30 37 1 16 35
M  V30 38 1 17 36
M  V30 39 1 17 37
M  V30 40 1 18 38
M  V30 41 1 19 39
M  V30 42 1 20 40
M  V30 43 1 21 41
M  V30 44 1 22 42
M  V30 45 1 22 43
M  V30 46 1 22 44
M  V30 47 1 23 45
M  V30 48 1 23 46
M  V30 49 1 23 47
M  V30 END BOND
M  V30 END CTAB
M  END
>  <Column 1>
2972

>  <level_0>
5113

>  <index>
5114

>  <Unnamed: 0>
5114

>  <NO.>
5126

>  <Name>
indecainide hydrochloride

>  <IUPAC_name>
9-[3-(propan-2-ylamino)propyl]fluorene-9-carboxamide

>  <SMILES>
CC(C)NCCCC1(C(N)=O)c2ccccc2-c2ccccc21

>  <CID>
52195

>  <logBB>


>  <BBB+/BBB->
BBB-

>  <Inchi>
InChI=1S/C20H24N2O/c1-14(2)22-13-7-12-20(19(21)23)17-10-5-3-8-15(17)16-9-4-6-11-18(16)20/h3-6-8-11-14-22H-7-12-13H2-1-2H3-(H2-21-23)

>  <threshold>


>  <reference>
R14|

>  <group>
C

>  <Class>
-1

>  <ABC>
17.81

>  <ABCGG>
15.02

>  <nAcid>
0

>  <nBase>
1

>  <nAromAtom>
12

>  <nAromBond>
12

>  <nAtom>
47

>  <nHeavyAtom>
23

>  <nSpiro>
0

>  <nBridgehead>
0

>  <nHetero>
3

>  <nN>
2

>  <nO>
1

>  <nF>
0

>  <BalabanJ>
1.79

>  <BertzCT>
675.59

>  <nBonds>
49

>  <nBondsO>
25

>  <nBondsS>
36

>  <nBondsD>
1

>  <nBondsT>
0

>  <nBondsA>
12

>  <nBondsM>
13

>  <nBondsKS>
42

>  <nBondsKD>
7

>  <RNCG>
0.22

>  <RPCG>
0.14

>  <FCSP3>
0.35

>  <SZ>
27.67

>  <Sm>
25.68

>  <Sv>
28.73

>  <Sse>
46.31

>  <Sp>
31.38

>  <Si>
52.77

>  <MZ>
0.59

>  <Mm>
0.55

>  <Mv>
0.61

>  <Mse>
0.99

>  <Mp>
0.67

>  <Mi>
1.12

>  <NsCH3>
2

>  <NdCH2>
0

>  <NssCH2>
3

>  <NtCH>
0

>  <NdsCH>
0

>  <NaaCH>
8

>  <NsssCH>
1

>  <NddC>
0

>  <NtsC>
0

>  <NdssC>
1

>  <NaasC>
4

>  <NaaaC>
0

>  <NssssC>
1

>  <NsNH3>
0

>  <NsNH2>
1

>  <NssNH2>
0

>  <NdNH>
0

>  <NssNH>
1

>  <NaaNH>
0

>  <NtN>
0

>  <NsssNH>
0

>  <NdsN>
0

>  <NaaN>
0

>  <NsssN>
0

>  <NddsN>
0

>  <NaasN>
0

>  <NssssN>
0

>  <NsOH>
0

>  <NdO>
1

>  <NssO>
0

>  <NaaO>
0

>  <NsF>
0

>  <NsSiH3>
0

>  <NssSiH2>
0

>  <NsssSiH>
0

>  <NssssSi>
0

>  <NsPH2>
0

>  <NssPH>
0

>  <NsssP>
0

>  <NdsssP>
0

>  <NsssssP>
0

>  <NsSH>
0

>  <NdS>
0

>  <NssS>
0

>  <NaaS>
0

>  <NdssS>
0

>  <NddssS>
0

>  <NsCl>
0

>  <NsBr>
0

>  <NsI>
0

>  <fragCpx>
119.03

>  <fMF>
0.28

>  <nHBAcc>
2

>  <nHBDon>
2

>  <Kier1>
17.81

>  <Kier2>
7.49

>  <Lipinski>
1

>  <GhoseFilter>
1

>  <FilterItLogS>
-5.63

>  <VMcGowan>
255.81

>  <LabuteASA>
137.45

>  <PEOE_VSA1>
11.05

>  <PEOE_VSA2>
4.79

>  <PEOE_VSA3>
0

>  <PEOE_VSA4>
0

>  <PEOE_VSA5>
0

>  <PEOE_VSA6>
62.38

>  <PEOE_VSA7>
41.64

>  <PEOE_VSA8>
6.04

>  <PEOE_VSA9>
5.41

>  <PEOE_VSA10>
0

>  <PEOE_VSA11>
0

>  <PEOE_VSA12>
5.91

>  <PEOE_VSA13>
0

>  <SMR_VSA1>
4.79

>  <SMR_VSA2>
0

>  <SMR_VSA3>
5.32

>  <SMR_VSA4>
5.73

>  <SMR_VSA5>
38.15

>  <SMR_VSA6>
6.54

>  <SMR_VSA7>
59.66

>  <SMR_VSA8>
0

>  <SMR_VSA9>
11.13

>  <SlogP_VSA1>
11.05

>  <SlogP_VSA2>
18.49

>  <SlogP_VSA3>
10.21

>  <SlogP_VSA4>
0

>  <SlogP_VSA5>
37.82

>  <SlogP_VSA6>
48.53

>  <SlogP_VSA7>
0

>  <SlogP_VSA8>
11.13

>  <SlogP_VSA9>
0

>  <SlogP_VSA10>
0

>  <SlogP_VSA11>
0

>  <EState_VSA1>
5.41

>  <EState_VSA2>
5.91

>  <EState_VSA3>
6.04

>  <EState_VSA4>
41.64

>  <EState_VSA5>
0

>  <EState_VSA6>
0

>  <EState_VSA7>
24.27

>  <EState_VSA8>
43.43

>  <EState_VSA9>
5.73

>  <EState_VSA10>
4.79

>  <VSA_EState1>
0

>  <VSA_EState2>
12.58

>  <VSA_EState3>
3.42

>  <VSA_EState4>
9.63

>  <VSA_EState5>
-0.25

>  <VSA_EState6>
16.76

>  <VSA_EState7>
1.64

>  <VSA_EState8>
5.14

>  <VSA_EState9>
0

>  <apol>
52.41

>  <bpol>
24.94

>  <nRing>
3

>  <nHRing>
0

>  <naRing>
2

>  <naHRing>
0

>  <nARing 2>
1

>  <nAHRing 2>
0

>  <nFRing>
1

>  <nFHRing>
0

>  <nFaRing>
0

>  <nFaHRing>
0

>  <nFARing 2>
1

>  <nFAHRing 2>
0

>  <nRot>
6

>  <SLogP>
3.22

>  <SMR>
94.23

>  <TopoPSA(NO)>
55.12

>  <TopoPSA>
55.12

>  <JGI1>
0.18

>  <JGI2>
0.09

>  <JGI3>
0.08

>  <JGI4>
0.04

>  <JGI5>
0.02

>  <Diameter>
10

>  <Radius>
5

>  <TMWC10>
124.78

>  <TSRW10>
72.75

>  <MW>
308.19

>  <AMW>
6.56

>  <WPath>
1107

>  <WPol>
41

>  <Zagreb1>
122

>  <Zagreb2>
149

>  <mZagreb2>
5.13

>  <yes>


>  <nAR-cont>
0.816016

>  <nHA-cont>
0.967789328

>  <MWHBN>
0.227850885

>  <MWHBN-cont>
0.988843347

>  <TPSA-cont>
0.615228173

>  <pka_cont>
0.97

>  <yes.1>


>  <BBB_SCORE>
4.982526693

>  <MMFF94 Energy>
69.16

$$$$
Compound 2413
Actelion Java MolfileCreator 2.0

  0  0  0  0  0  0              0 V3000
M  V30 BEGIN CTAB
M  V30 COUNTS 46 47 0 0 0
M  V30 BEGIN ATOM
M  V30 1 Cl 1.04 -0.4799 -9.0677 0
M  V30 2 C 1.3567 0.103 -7.4807 0
M  V30 3 C 1.4454 1.4752 -7.2517 0
M  V30 4 C 1.5304 -0.8016 -6.4331 0
M  V30 5 C 1.7025 1.9475 -5.9621 0
M  V30 6 C 1.7877 -0.3319 -5.1414 0
M  V30 7 C 1.8578 1.0464 -4.9004 0
M  V30 8 C 2.1455 1.5906 -3.5485 0
M  V30 9 O 2.8007 2.6243 -3.4445 0
M  V30 10 C 1.6613 0.9169 -2.3185 0
M  V30 11 C 0.4033 0.3049 -2.2623 0
M  V30 12 C 2.484 0.9282 -1.1854 0
M  V30 13 C -0.0163 -0.309 -1.0803 0
M  V30 14 C 2.0603 0.3114 -0.0065 0
M  V30 15 C 0.7992 -0.2761 0.051 0
M  V30 16 O 0.3875 -0.9324 1.1728 0
M  V30 17 C -0.2355 -0.1407 2.2144 0
M  V30 18 C -0.9326 -1.1755 3.1293 0
M  V30 19 C 0.8277 0.5977 3.0371 0
M  V30 20 C -1.3151 0.8209 1.6932 0
M  V30 21 O -0.9934 -2.3816 2.9218 0
M  V30 22 O -1.4998 -0.5612 4.213 0
M  V30 23 C -2.196 -1.415 5.1407 0
M  V30 24 C -2.1982 -0.7033 6.4882 0
M  V30 25 C -3.6208 -1.6447 4.6496 0
M  V30 26 H 1.3221 2.181 -8.0692 0
M  V30 27 H 1.476 -1.8717 -6.6171 0
M  V30 28 H 1.7834 3.019 -5.7862 0
M  V30 29 H 1.9492 -1.0521 -4.3429 0
M  V30 30 H -0.2621 0.3038 -3.1215 0
M  V30 31 H 3.4611 1.4061 -1.2239 0
M  V30 32 H -0.9809 -0.8087 -1.0393 0
M  V30 33 H 2.7228 0.2852 0.8533 0
M  V30 34 H 1.3018 1.3949 2.456 0
M  V30 35 H 1.6207 -0.0896 3.3529 0
M  V30 36 H 0.4068 1.0635 3.9347 0
M  V30 37 H -2.0695 0.2812 1.1094 0
M  V30 38 H -1.8329 1.3336 2.5115 0
M  V30 39 H -0.8904 1.5947 1.0449 0
M  V30 40 H -1.6698 -2.3704 5.2542 0
M  V30 41 H -2.7143 -1.295 7.2504 0
M  V30 42 H -1.1713 -0.5214 6.8237 0
M  V30 43 H -2.6829 0.2767 6.4155 0
M  V30 44 H -4.192 -2.25 5.3603 0
M  V30 45 H -3.6228 -2.1568 3.682 0
M  V30 46 H -4.1417 -0.6922 4.5005 0
M  V30 END ATOM
M  V30 BEGIN BOND
M  V30 1 1 1 2
M  V30 2 2 2 3
M  V30 3 1 2 4
M  V30 4 1 3 5
M  V30 5 2 4 6
M  V30 6 2 5 7
M  V30 7 1 7 8
M  V30 8 2 8 9
M  V30 9 1 8 10
M  V30 10 2 10 11
M  V30 11 1 10 12
M  V30 12 1 11 13
M  V30 13 2 12 14
M  V30 14 2 13 15
M  V30 15 1 15 16
M  V30 16 1 16 17
M  V30 17 1 17 18
M  V30 18 1 17 19
M  V30 19 1 17 20
M  V30 20 2 18 21
M  V30 21 1 18 22
M  V30 22 1 22 23
M  V30 23 1 23 24
M  V30 24 1 23 25
M  V30 25 1 6 7
M  V30 26 1 14 15
M  V30 27 1 3 26
M  V30 28 1 4 27
M  V30 29 1 5 28
M  V30 30 1 6 29
M  V30 31 1 11 30
M  V30 32 1 12 31
M  V30 33 1 13 32
M  V30 34 1 14 33
M  V30 35 1 19 34
M  V30 36 1 19 35
M  V30 37 1 19 36
M  V30 38 1 20 37
M  V30 39 1 20 38
M  V30 40 1 20 39
M  V30 41 1 23 40
M  V30 42 1 24 41
M  V30 43 1 24 42
M  V30 44 1 24 43
M  V30 45 1 25 44
M  V30 46 1 25 45
M  V30 47 1 25 46
M  V30 END BOND
M  V30 END CTAB
M  END
>  <Column 1>
2973

>  <level_0>
5114

>  <index>
5115

>  <Unnamed: 0>
5115

>  <NO.>
5127

>  <Name>
fenofibrate

>  <IUPAC_name>
propan-2-yl 2-[4-(4-chlorobenzoyl)phenoxy]-2-methylpropanoate

>  <SMILES>
CC(C)OC(=O)C(C)(C)Oc1ccc(C(=O)c2ccc(Cl)cc2)cc1

>  <CID>
3339

>  <logBB>


>  <BBB+/BBB->
BBB-

>  <Inchi>
InChI=1S/C20H21ClO4/c1-13(2)24-19(23)20(3-4)25-17-11-7-15(8-12-17)18(22)14-5-9-16(21)10-6-14/h5-13H-1-4H3

>  <threshold>


>  <reference>
R14|R15|R23|

>  <group>
C

>  <Class>
-1

>  <ABC>
19.11

>  <ABCGG>
15.48

>  <nAcid>
0

>  <nBase>
0

>  <nAromAtom>
12

>  <nAromBond>
12

>  <nAtom>
46

>  <nHeavyAtom>
25

>  <nSpiro>
0

>  <nBridgehead>
0

>  <nHetero>
5

>  <nN>
0

>  <nO>
4

>  <nF>
0

>  <BalabanJ>
1.77

>  <BertzCT>
746.27

>  <nBonds>
47

>  <nBondsO>
26

>  <nBondsS>
33

>  <nBondsD>
2

>  <nBondsT>
0

>  <nBondsA>
12

>  <nBondsM>
14

>  <nBondsKS>
39

>  <nBondsKD>
8

>  <RNCG>
0.24

>  <RPCG>
0.18

>  <FCSP3>
0.3

>  <SZ>
31.67

>  <Sm>
30.04

>  <Sv>
29.64

>  <Sse>
46.41

>  <Sp>
31.61

>  <Si>
51.35

>  <MZ>
0.69

>  <Mm>
0.65

>  <Mv>
0.64

>  <Mse>
1.01

>  <Mp>
0.69

>  <Mi>
1.12

>  <NsCH3>
4

>  <NdCH2>
0

>  <NssCH2>
0

>  <NtCH>
0

>  <NdsCH>
0

>  <NaaCH>
8

>  <NsssCH>
1

>  <NddC>
0

>  <NtsC>
0

>  <NdssC>
2

>  <NaasC>
4

>  <NaaaC>
0

>  <NssssC>
1

>  <NsNH3>
0

>  <NsNH2>
0

>  <NssNH2>
0

>  <NdNH>
0

>  <NssNH>
0

>  <NaaNH>
0

>  <NtN>
0

>  <NsssNH>
0

>  <NdsN>
0

>  <NaaN>
0

>  <NsssN>
0

>  <NddsN>
0

>  <NaasN>
0

>  <NssssN>
0

>  <NsOH>
0

>  <NdO>
2

>  <NssO>
2

>  <NaaO>
0

>  <NsF>
0

>  <NsSiH3>
0

>  <NssSiH2>
0

>  <NsssSiH>
0

>  <NssssSi>
0

>  <NsPH2>
0

>  <NssPH>
0

>  <NsssP>
0

>  <NdsssP>
0

>  <NsssssP>
0

>  <NsSH>
0

>  <NdS>
0

>  <NssS>
0

>  <NaaS>
0

>  <NdssS>
0

>  <NddssS>
0

>  <NsCl>
1

>  <NsBr>
0

>  <NsI>
0

>  <fragCpx>
76.05

>  <fMF>
0.28

>  <nHBAcc>
4

>  <nHBDon>
0

>  <Kier1>
21.3

>  <Kier2>
9.27

>  <Lipinski>
1

>  <GhoseFilter>
1

>  <FilterItLogS>
-5.3

>  <VMcGowan>
272.26

>  <LabuteASA>
152.26

>  <PEOE_VSA1>
9.47

>  <PEOE_VSA2>
4.79

>  <PEOE_VSA3>
4.79

>  <PEOE_VSA4>
0

>  <PEOE_VSA5>
0

>  <PEOE_VSA6>
11.6

>  <PEOE_VSA7>
76.23

>  <PEOE_VSA8>
16.15

>  <PEOE_VSA9>
6.1

>  <PEOE_VSA10>
5.75

>  <PEOE_VSA11>
11.38

>  <PEOE_VSA12>
0

>  <PEOE_VSA13>
0

>  <SMR_VSA1>
19.06

>  <SMR_VSA2>
0

>  <SMR_VSA3>
0

>  <SMR_VSA4>
0

>  <SMR_VSA5>
39.4

>  <SMR_VSA6>
0

>  <SMR_VSA7>
64.68

>  <SMR_VSA8>
0

>  <SMR_VSA9>
5.75

>  <SlogP_VSA1>
4.74

>  <SlogP_VSA2>
23.46

>  <SlogP_VSA3>
9.53

>  <SlogP_VSA4>
0

>  <SlogP_VSA5>
43.62

>  <SlogP_VSA6>
48.53

>  <SlogP_VSA7>
5.02

>  <SlogP_VSA8>
0

>  <SlogP_VSA9>
0

>  <SlogP_VSA10>
0

>  <SlogP_VSA11>
5.75

>  <EState_VSA1>
11.57

>  <EState_VSA2>
11.89

>  <EState_VSA3>
21.9

>  <EState_VSA4>
0

>  <EState_VSA5>
0

>  <EState_VSA6>
76.23

>  <EState_VSA7>
0

>  <EState_VSA8>
0

>  <EState_VSA9>
21.07

>  <EState_VSA10>
9.59

>  <VSA_EState1>
10.91

>  <VSA_EState2>
24.48

>  <VSA_EState3>
0.58

>  <VSA_EState4>
-0.04

>  <VSA_EState5>
-0.07

>  <VSA_EState6>
13.36

>  <VSA_EState7>
-0.21

>  <VSA_EState8>
6.85

>  <VSA_EState9>
0

>  <apol>
52.79

>  <bpol>
26.79

>  <nRing>
2

>  <nHRing>
0

>  <naRing>
2

>  <naHRing>
0

>  <nARing 2>
0

>  <nAHRing 2>
0

>  <nFRing>
0

>  <nFHRing>
0

>  <nFaRing>
0

>  <nFaHRing>
0

>  <nFARing 2>
0

>  <nFAHRing 2>
0

>  <nRot>
6

>  <SLogP>
4.68

>  <SMR>
97.26

>  <TopoPSA(NO)>
52.6

>  <TopoPSA>
52.6

>  <JGI1>
0.29

>  <JGI2>
0.1

>  <JGI3>
0.05

>  <JGI4>
0.05

>  <JGI5>
0.02

>  <Diameter>
15

>  <Radius>
8

>  <TMWC10>
125.14

>  <TSRW10>
59.51

>  <MW>
360.11

>  <AMW>
7.83

>  <WPath>
1716

>  <WPol>
37

>  <Zagreb1>
126

>  <Zagreb2>
143

>  <mZagreb2>
5.43

>  <yes>


>  <nAR-cont>
0.336376

>  <nHA-cont>
0.921834225

>  <MWHBN>
0.21078631

>  <MWHBN-cont>
0.999118944

>  <TPSA-cont>
0.632819337

>  <pka_cont>
0.97

>  <yes.1>


>  <BBB_SCORE>
4.507527316

>  <MMFF94 Energy>
107.05

$$$$
Compound 2414
Actelion Java MolfileCreator 2.0

  0  0  0  0  0  0              0 V3000
M  V30 BEGIN CTAB
M  V30 COUNTS 37 39 0 0 0
M  V30 BEGIN ATOM
M  V30 1 O -2.2371 0.5589 2.0772 0
M  V30 2 C -1.6474 0.3738 1.0191 0
M  V30 3 C -2.3292 0.4107 -0.3063 0
M  V30 4 C -0.1995 0.0967 1.0077 0
M  V30 5 C -3.771 0.6886 -0.4487 0
M  V30 6 C -1.5625 0.2102 -1.3902 0
M  V30 7 C 0.445 -0.1008 -0.2093 0
M  V30 8 C 0.5251 0.0346 2.1989 0
M  V30 9 C -4.3526 1.7845 0.204 0
M  V30 10 C -4.5917 -0.1347 -1.2361 0
M  V30 11 O -0.2129 -0.0453 -1.412 0
M  V30 12 C 1.8179 -0.3648 -0.2496 0
M  V30 13 C 1.8958 -0.2286 2.1565 0
M  V30 14 C -5.716 2.0575 0.0654 0
M  V30 15 C -5.955 0.139 -1.3748 0
M  V30 16 C 2.5494 -0.4342 0.9362 0
M  V30 17 C -6.5158 1.2363 -0.7256 0
M  V30 18 O 3.8886 -0.6767 1.051 0
M  V30 19 C 4.6389 -1.0457 -0.1105 0
M  V30 20 C 5.1695 0.2048 -0.8052 0
M  V30 21 C 5.8035 -1.9058 0.3754 0
M  V30 22 H -1.9364 0.2377 -2.4071 0
M  V30 23 H 0.0308 0.1896 3.1555 0
M  V30 24 H -3.7494 2.4344 0.8353 0
M  V30 25 H -4.1814 -1.0068 -1.7402 0
M  V30 26 H 2.2821 -0.5001 -1.2198 0
M  V30 27 H 2.4617 -0.2761 3.0848 0
M  V30 28 H -6.152 2.9084 0.5825 0
M  V30 29 H -6.5799 -0.5087 -1.984 0
M  V30 30 H -7.577 1.4472 -0.8287 0
M  V30 31 H 4.0476 -1.6603 -0.7985 0
M  V30 32 H 5.7918 -0.0559 -1.6667 0
M  V30 33 H 4.3515 0.8426 -1.1538 0
M  V30 34 H 5.7646 0.8126 -0.1145 0
M  V30 35 H 6.4352 -2.2282 -0.4578 0
M  V30 36 H 5.4285 -2.7956 0.893 0
M  V30 37 H 6.4229 -1.3607 1.0966 0
M  V30 END ATOM
M  V30 BEGIN BOND
M  V30 1 2 1 2
M  V30 2 1 2 3
M  V30 3 1 2 4
M  V30 4 1 3 5
M  V30 5 2 3 6
M  V30 6 2 4 7
M  V30 7 1 4 8
M  V30 8 2 5 9
M  V30 9 1 5 10
M  V30 10 1 6 11
M  V30 11 1 7 12
M  V30 12 2 8 13
M  V30 13 1 9 14
M  V30 14 2 10 15
M  V30 15 2 12 16
M  V30 16 2 14 17
M  V30 17 1 16 18
M  V30 18 1 18 19
M  V30 19 1 19 20
M  V30 20 1 19 21
M  V30 21 1 7 11
M  V30 22 1 13 16
M  V30 23 1 15 17
M  V30 24 1 6 22
M  V30 25 1 8 23
M  V30 26 1 9 24
M  V30 27 1 10 25
M  V30 28 1 12 26
M  V30 29 1 13 27
M  V30 30 1 14 28
M  V30 31 1 15 29
M  V30 32 1 17 30
M  V30 33 1 19 31
M  V30 34 1 20 32
M  V30 35 1 20 33
M  V30 36 1 20 34
M  V30 37 1 21 35
M  V30 38 1 21 36
M  V30 39 1 21 37
M  V30 END BOND
M  V30 END CTAB
M  END
>  <Column 1>
2974

>  <level_0>
5115

>  <index>
5116

>  <Unnamed: 0>
5116

>  <NO.>
5128

>  <Name>
ipriflavone

>  <IUPAC_name>
3-phenyl-7-propan-2-yloxychromen-4-one

>  <SMILES>
CC(C)Oc1ccc2c(=O)c(-c3ccccc3)coc2c1

>  <CID>
3747

>  <logBB>


>  <BBB+/BBB->
BBB-

>  <Inchi>
InChI=1S/C18H16O3/c1-12(2)21-14-8-9-15-17(10-14)20-11-16(18(15)19)13-6-4-3-5-7-13/h3-12H-1-2H3

>  <threshold>


>  <reference>
R14|

>  <group>
C

>  <Class>
-1

>  <ABC>
16.43

>  <ABCGG>
12.75

>  <nAcid>
0

>  <nBase>
0

>  <nAromAtom>
16

>  <nAromBond>
17

>  <nAtom>
37

>  <nHeavyAtom>
21

>  <nSpiro>
0

>  <nBridgehead>
0

>  <nHetero>
3

>  <nN>
0

>  <nO>
3

>  <nF>
0

>  <BalabanJ>
1.57

>  <BertzCT>
816.74

>  <nBonds>
39

>  <nBondsO>
23

>  <nBondsS>
21

>  <nBondsD>
1

>  <nBondsT>
0

>  <nBondsA>
17

>  <nBondsM>
18

>  <nBondsKS>
31

>  <nBondsKD>
8

>  <RNCG>
0.29

>  <RPCG>
0.12

>  <FCSP3>
0.17

>  <SZ>
24.67

>  <Sm>
23.34

>  <Sv>
24.48

>  <Sse>
37.09

>  <Sp>
25.83

>  <Si>
40.95

>  <MZ>
0.67

>  <Mm>
0.63

>  <Mv>
0.66

>  <Mse>
1

>  <Mp>
0.7

>  <Mi>
1.11

>  <NsCH3>
2

>  <NdCH2>
0

>  <NssCH2>
0

>  <NtCH>
0

>  <NdsCH>
0

>  <NaaCH>
9

>  <NsssCH>
1

>  <NddC>
0

>  <NtsC>
0

>  <NdssC>
0

>  <NaasC>
3

>  <NaaaC>
2

>  <NssssC>
0

>  <NsNH3>
0

>  <NsNH2>
0

>  <NssNH2>
0

>  <NdNH>
0

>  <NssNH>
0

>  <NaaNH>
0

>  <NtN>
0

>  <NsssNH>
0

>  <NdsN>
0

>  <NaaN>
0

>  <NsssN>
0

>  <NddsN>
0

>  <NaasN>
0

>  <NssssN>
0

>  <NsOH>
0

>  <NdO>
1

>  <NssO>
1

>  <NaaO>
1

>  <NsF>
0

>  <NsSiH3>
0

>  <NssSiH2>
0

>  <NsssSiH>
0

>  <NssssSi>
0

>  <NsPH2>
0

>  <NssPH>
0

>  <NsssP>
0

>  <NdsssP>
0

>  <NsssssP>
0

>  <NsSH>
0

>  <NdS>
0

>  <NssS>
0

>  <NaaS>
0

>  <NdssS>
0

>  <NddssS>
0

>  <NsCl>
0

>  <NsBr>
0

>  <NsI>
0

>  <fragCpx>
109.03

>  <fMF>
0.43

>  <nHBAcc>
3

>  <nHBDon>
0

>  <Kier1>
15.88

>  <Kier2>
7.05

>  <Lipinski>
1

>  <GhoseFilter>
1

>  <FilterItLogS>
-5.33

>  <VMcGowan>
215.11

>  <LabuteASA>
122.34

>  <PEOE_VSA1>
9.15

>  <PEOE_VSA2>
4.79

>  <PEOE_VSA3>
0

>  <PEOE_VSA4>
0

>  <PEOE_VSA5>
0

>  <PEOE_VSA6>
30.33

>  <PEOE_VSA7>
31.54

>  <PEOE_VSA8>
6.07

>  <PEOE_VSA9>
17.05

>  <PEOE_VSA10>
17.6

>  <PEOE_VSA11>
5.43

>  <PEOE_VSA12>
0

>  <PEOE_VSA13>
0

>  <SMR_VSA1>
9.15

>  <SMR_VSA2>
0

>  <SMR_VSA3>
0

>  <SMR_VSA4>
0

>  <SMR_VSA5>
19.95

>  <SMR_VSA6>
0

>  <SMR_VSA7>
65.02

>  <SMR_VSA8>
0

>  <SMR_VSA9>
16.88

>  <SlogP_VSA1>
10.17

>  <SlogP_VSA2>
6.1

>  <SlogP_VSA3>
0

>  <SlogP_VSA4>
0

>  <SlogP_VSA5>
13.85

>  <SlogP_VSA6>
64.01

>  <SlogP_VSA7>
0

>  <SlogP_VSA8>
22.1

>  <SlogP_VSA9>
0

>  <SlogP_VSA10>
0

>  <SlogP_VSA11>
5.75

>  <EState_VSA1>
0

>  <EState_VSA2>
11.53

>  <EState_VSA3>
22.28

>  <EState_VSA4>
5.56

>  <EState_VSA5>
6.26

>  <EState_VSA6>
18.2

>  <EState_VSA7>
44.18

>  <EState_VSA8>
0

>  <EState_VSA9>
9.15

>  <EState_VSA10>
4.79

>  <VSA_EState1>
11.24

>  <VSA_EState2>
12.56

>  <VSA_EState3>
0.56

>  <VSA_EState4>
1.94

>  <VSA_EState5>
0.7

>  <VSA_EState6>
14.83

>  <VSA_EState7>
1.59

>  <VSA_EState8>
3.91

>  <VSA_EState9>
0

>  <apol>
43.13

>  <bpol>
20.39

>  <nRing>
3

>  <nHRing>
1

>  <naRing>
3

>  <naHRing>
1

>  <nARing 2>
0

>  <nAHRing 2>
0

>  <nFRing>
1

>  <nFHRing>
1

>  <nFaRing>
1

>  <nFaHRing>
1

>  <nFARing 2>
0

>  <nFAHRing 2>
0

>  <nRot>
3

>  <SLogP>
4.25

>  <SMR>
83.68

>  <TopoPSA(NO)>
39.44

>  <TopoPSA>
39.44

>  <JGI1>
0.17

>  <JGI2>
0.07

>  <JGI3>
0.05

>  <JGI4>
0.04

>  <JGI5>
0.03

>  <Diameter>
12

>  <Radius>
6

>  <TMWC10>
117.84

>  <TSRW10>
55

>  <MW>
280.11

>  <AMW>
7.57

>  <WPath>
956

>  <WPol>
33

>  <Zagreb1>
110

>  <Zagreb2>
129

>  <mZagreb2>
4.61

>  <yes>


>  <nAR-cont>
0.336376

>  <nHA-cont>
0.994529749

>  <MWHBN>
0.179249085

>  <MWHBN-cont>
0.986339472

>  <TPSA-cont>
0.724684309

>  <pka_cont>
0.97

>  <yes.1>


>  <BBB_SCORE>
4.744783576

>  <MMFF94 Energy>
70.936

$$$$
Compound 2415
Actelion Java MolfileCreator 2.0

  0  0  0  0  0  0              0 V3000
M  V30 BEGIN CTAB
M  V30 COUNTS 59 60 0 0 0
M  V30 BEGIN ATOM
M  V30 1 O -1.4952 -1.4952 1.7315 0
M  V30 2 C -2.1487 -1.2459 0.7164 0
M  V30 3 N -3.3483 -1.8666 0.5245 0
M  V30 4 C -1.6396 -0.2717 -0.4029 0
M  V30 5 C -1.0765 -1.0141 -1.6454 0
M  V30 6 C -2.8094 0.6966 -0.7565 0
M  V30 7 C -0.4324 0.5294 0.2346 0
M  V30 8 C -0.9839 -2.4156 -1.7142 0
M  V30 9 C -0.5859 -0.2699 -2.7418 0
M  V30 10 C -3.1466 1.7739 0.0866 0
M  V30 11 C -3.6256 0.4834 -1.8874 0
M  V30 12 C 0.8612 -0.2955 0.3725 0
M  V30 13 C -0.4305 -3.0445 -2.8331 0
M  V30 14 C -0.0355 -0.9021 -3.8578 0
M  V30 15 C -4.218 2.6216 -0.2116 0
M  V30 16 C -4.6948 1.3329 -2.1842 0
M  V30 17 N 1.8861 0.1933 1.4526 0 CHG=1
M  V30 18 C 0.0427 -2.2896 -3.9021 0
M  V30 19 C -4.9875 2.4047 -1.3491 0
M  V30 20 C 3.2076 -0.7304 1.3301 0
M  V30 21 C 2.3267 1.7013 1.2727 0
M  V30 22 C 1.2622 -0.0438 2.8455 0
M  V30 23 C 4.1412 -0.5835 2.5405 0
M  V30 24 C 2.8902 -2.2195 1.1266 0
M  V30 25 C 2.6807 2.044 -0.1787 0
M  V30 26 C 1.3377 2.7245 1.8404 0
M  V30 27 H -3.9548 -1.6693 -0.2626 0
M  V30 28 H -3.6955 -2.4941 1.2395 0
M  V30 29 H -0.7457 0.9009 1.2125 0
M  V30 30 H -0.2281 1.4116 -0.3824 0
M  V30 31 H -1.335 -3.0565 -0.9077 0
M  V30 32 H -0.647 0.8181 -2.7471 0
M  V30 33 H -2.6015 1.973 1.0053 0
M  V30 34 H -3.4499 -0.3513 -2.5645 0
M  V30 35 H 1.4102 -0.3138 -0.5747 0
M  V30 36 H 0.6188 -1.3237 0.6453 0
M  V30 37 H -0.3758 -4.1308 -2.8743 0
M  V30 38 H 0.3206 -0.312 -4.6996 0
M  V30 39 H -4.46 3.4492 0.4519 0
M  V30 40 H -5.303 1.1535 -3.0684 0
M  V30 41 H 0.4622 -2.7847 -4.7752 0
M  V30 42 H -5.8217 3.0636 -1.5789 0
M  V30 43 H 3.73 -0.3814 0.4361 0
M  V30 44 H 3.2358 1.8129 1.8672 0
M  V30 45 H 0.3007 0.4656 2.9117 0
M  V30 46 H 1.9364 0.3642 3.6027 0
M  V30 47 H 1.1142 -1.1152 2.9927 0
M  V30 48 H 5.0814 -1.1131 2.3452 0
M  V30 49 H 4.4109 0.4502 2.7618 0
M  V30 50 H 3.7133 -1.0301 3.444 0
M  V30 51 H 3.8171 -2.8053 1.1335 0
M  V30 52 H 2.2474 -2.6252 1.9124 0
M  V30 53 H 2.425 -2.4091 0.1545 0
M  V30 54 H 3.4276 1.3712 -0.6048 0
M  V30 55 H 1.8087 2.0426 -0.8366 0
M  V30 56 H 3.1073 3.0531 -0.2257 0
M  V30 57 H 1.7778 3.7276 1.7787 0
M  V30 58 H 1.121 2.5553 2.8984 0
M  V30 59 H 0.3979 2.7718 1.2904 0
M  V30 END ATOM
M  V30 BEGIN BOND
M  V30 1 2 1 2
M  V30 2 1 2 3
M  V30 3 1 2 4
M  V30 4 1 4 5
M  V30 5 1 4 6
M  V30 6 1 4 7
M  V30 7 2 5 8
M  V30 8 1 5 9
M  V30 9 2 6 10
M  V30 10 1 6 11
M  V30 11 1 7 12
M  V30 12 1 8 13
M  V30 13 2 9 14
M  V30 14 1 10 15
M  V30 15 2 11 16
M  V30 16 1 12 17
M  V30 17 2 13 18
M  V30 18 2 15 19
M  V30 19 1 17 20
M  V30 20 1 17 21
M  V30 21 1 17 22
M  V30 22 1 20 23
M  V30 23 1 20 24
M  V30 24 1 21 25
M  V30 25 1 21 26
M  V30 26 1 14 18
M  V30 27 1 16 19
M  V30 28 1 3 27
M  V30 29 1 3 28
M  V30 30 1 7 29
M  V30 31 1 7 30
M  V30 32 1 8 31
M  V30 33 1 9 32
M  V30 34 1 10 33
M  V30 35 1 11 34
M  V30 36 1 12 35
M  V30 37 1 12 36
M  V30 38 1 13 37
M  V30 39 1 14 38
M  V30 40 1 15 39
M  V30 41 1 16 40
M  V30 42 1 18 41
M  V30 43 1 19 42
M  V30 44 1 20 43
M  V30 45 1 21 44
M  V30 46 1 22 45
M  V30 47 1 22 46
M  V30 48 1 22 47
M  V30 49 1 23 48
M  V30 50 1 23 49
M  V30 51 1 23 50
M  V30 52 1 24 51
M  V30 53 1 24 52
M  V30 54 1 24 53
M  V30 55 1 25 54
M  V30 56 1 25 55
M  V30 57 1 25 56
M  V30 58 1 26 57
M  V30 59 1 26 58
M  V30 60 1 26 59
M  V30 END BOND
M  V30 END CTAB
M  END
>  <Column 1>
2975

>  <level_0>
5116

>  <index>
5117

>  <Unnamed: 0>
5117

>  <NO.>
5129

>  <Name>
isopropamide iodide

>  <IUPAC_name>
(4-amino-4-oxo-3-3-diphenylbutyl)-methyl-di(propan-2-yl)azanium

>  <SMILES>
CC(C)[N+](C)(CCC(C(N)=O)(c1ccccc1)c1ccccc1)C(C)C

>  <CID>
3775

>  <logBB>


>  <BBB+/BBB->
BBB-

>  <Inchi>
InChI=1S/C23H32N2O/c1-18(2)25(5-19(3)4)17-16-23(22(24)26-20-12-8-6-9-13-20)21-14-10-7-11-15-21/h6-15-18-19H-16-17H2-1-5H3-(H--24-26)/p+1

>  <threshold>


>  <reference>
R14|R23|

>  <group>
C

>  <Class>
-1

>  <ABC>
19.6

>  <ABCGG>
17.79

>  <nAcid>
0

>  <nBase>
1

>  <nAromAtom>
12

>  <nAromBond>
12

>  <nAtom>
59

>  <nHeavyAtom>
26

>  <nSpiro>
0

>  <nBridgehead>
0

>  <nHetero>
3

>  <nN>
2

>  <nO>
1

>  <nF>
0

>  <BalabanJ>
2.31

>  <BertzCT>
660

>  <nBonds>
60

>  <nBondsO>
27

>  <nBondsS>
47

>  <nBondsD>
1

>  <nBondsT>
0

>  <nBondsA>
12

>  <nBondsM>
13

>  <nBondsKS>
53

>  <nBondsKD>
7

>  <RNCG>
0.22

>  <RPCG>
0.09

>  <FCSP3>
0.43

>  <SZ>
32.17

>  <Sm>
29.43

>  <Sv>
34.17

>  <Sse>
57.81

>  <Sp>
37.97

>  <Si>
66.64

>  <MZ>
0.55

>  <Mm>
0.5

>  <Mv>
0.58

>  <Mse>
0.98

>  <Mp>
0.64

>  <Mi>
1.13

>  <NsCH3>
5

>  <NdCH2>
0

>  <NssCH2>
2

>  <NtCH>
0

>  <NdsCH>
0

>  <NaaCH>
10

>  <NsssCH>
2

>  <NddC>
0

>  <NtsC>
0

>  <NdssC>
1

>  <NaasC>
2

>  <NaaaC>
0

>  <NssssC>
1

>  <NsNH3>
0

>  <NsNH2>
1

>  <NssNH2>
0

>  <NdNH>
0

>  <NssNH>
0

>  <NaaNH>
0

>  <NtN>
0

>  <NsssNH>
0

>  <NdsN>
0

>  <NaaN>
0

>  <NsssN>
0

>  <NddsN>
0

>  <NaasN>
0

>  <NssssN>
1

>  <NsOH>
0

>  <NdO>
1

>  <NssO>
0

>  <NaaO>
0

>  <NsF>
0

>  <NsSiH3>
0

>  <NssSiH2>
0

>  <NsssSiH>
0

>  <NssssSi>
0

>  <NsPH2>
0

>  <NssPH>
0

>  <NsssP>
0

>  <NdsssP>
0

>  <NsssssP>
0

>  <NsSH>
0

>  <NdS>
0

>  <NssS>
0

>  <NaaS>
0

>  <NdssS>
0

>  <NddssS>
0

>  <NsCl>
0

>  <NsBr>
0

>  <NsI>
0

>  <fragCpx>
79.03

>  <fMF>
0.22

>  <nHBAcc>
1

>  <nHBDon>
1

>  <Kier1>
22.29

>  <Kier2>
9.47

>  <Lipinski>
1

>  <GhoseFilter>
1

>  <FilterItLogS>
-5.89

>  <VMcGowan>
311.09

>  <LabuteASA>
157.97

>  <PEOE_VSA1>
10.22

>  <PEOE_VSA2>
4.79

>  <PEOE_VSA3>
0

>  <PEOE_VSA4>
0

>  <PEOE_VSA5>
0

>  <PEOE_VSA6>
60.66

>  <PEOE_VSA7>
38.82

>  <PEOE_VSA8>
6.42

>  <PEOE_VSA9>
25.68

>  <PEOE_VSA10>
5.41

>  <PEOE_VSA11>
0

>  <PEOE_VSA12>
5.91

>  <PEOE_VSA13>
0

>  <SMR_VSA1>
9.28

>  <SMR_VSA2>
0

>  <SMR_VSA3>
0

>  <SMR_VSA4>
5.73

>  <SMR_VSA5>
51.61

>  <SMR_VSA6>
13.59

>  <SMR_VSA7>
71.79

>  <SMR_VSA8>
0

>  <SMR_VSA9>
0

>  <SlogP_VSA1>
5.73

>  <SlogP_VSA2>
36.07

>  <SlogP_VSA3>
10.21

>  <SlogP_VSA4>
0

>  <SlogP_VSA5>
45.24

>  <SlogP_VSA6>
60.66

>  <SlogP_VSA7>
0

>  <SlogP_VSA8>
0

>  <SlogP_VSA9>
0

>  <SlogP_VSA10>
0

>  <SlogP_VSA11>
0

>  <EState_VSA1>
5.41

>  <EState_VSA2>
5.91

>  <EState_VSA3>
18.5

>  <EState_VSA4>
22.15

>  <EState_VSA5>
0

>  <EState_VSA6>
0

>  <EState_VSA7>
60.66

>  <EState_VSA8>
34.74

>  <EState_VSA9>
5.73

>  <EState_VSA10>
4.79

>  <VSA_EState1>
0.9

>  <VSA_EState2>
12.89

>  <VSA_EState3>
0

>  <VSA_EState4>
7.2

>  <VSA_EState5>
-0.28

>  <VSA_EState6>
20.89

>  <VSA_EState7>
0.68

>  <VSA_EState8>
9.87

>  <VSA_EState9>
2.27

>  <apol>
63.42

>  <bpol>
35.68

>  <nRing>
2

>  <nHRing>
0

>  <naRing>
2

>  <naHRing>
0

>  <nARing 2>
0

>  <nAHRing 2>
0

>  <nFRing>
0

>  <nFHRing>
0

>  <nFaRing>
0

>  <nFaHRing>
0

>  <nFARing 2>
0

>  <nFAHRing 2>
0

>  <nRot>
8

>  <SLogP>
4.11

>  <SMR>
108.8

>  <TopoPSA(NO)>
43.09

>  <TopoPSA>
43.09

>  <JGI1>
0.26

>  <JGI2>
0.13

>  <JGI3>
0.06

>  <JGI4>
0.03

>  <JGI5>
0.03

>  <Diameter>
9

>  <Radius>
5

>  <TMWC10>
129.27

>  <TSRW10>
61.22

>  <MW>
353.26

>  <AMW>
5.99

>  <WPath>
1493

>  <WPol>
47

>  <Zagreb1>
132

>  <Zagreb2>
158

>  <mZagreb2>
5.83

>  <yes>


>  <nAR-cont>
0.336376

>  <nHA-cont>
0.892715677

>  <MWHBN>
0.106410078

>  <MWHBN-cont>
0.765084051

>  <TPSA-cont>
0.699205043

>  <pka_cont>
0.97

>  <yes.1>


>  <BBB_SCORE>
4.26012784

>  <MMFF94 Energy>
99.841

$$$$
Compound 2416
Actelion Java MolfileCreator 2.0

  0  0  0  0  0  0              0 V3000
M  V30 BEGIN CTAB
M  V30 COUNTS 61 62 0 0 0
M  V30 BEGIN ATOM
M  V30 1 S -0.9594 -0.3996 5.3657 0
M  V30 2 O -0.3366 -1.6147 4.881 0
M  V30 3 O -0.7222 0.0389 6.7293 0
M  V30 4 N -0.5688 0.8758 4.3605 0
M  V30 5 C -2.7295 -0.5783 5.2036 0
M  V30 6 C -0.5239 0.5657 2.9919 0
M  V30 7 C -1.0589 2.2145 4.6886 0
M  V30 8 N -1.6414 0.1105 2.4324 0
M  V30 9 N 0.5318 1.0468 2.334 0
M  V30 10 C -1.6156 -0.0442 1.0884 0
M  V30 11 C 0.5401 0.915 0.9853 0
M  V30 12 C -2.8546 -0.6367 0.551 0
M  V30 13 C -0.5276 0.3384 0.2949 0
M  V30 14 C 1.7875 1.4407 0.2903 0
M  V30 15 C -2.8503 -1.8881 -0.0926 0
M  V30 16 C -4.0844 0.0326 0.6981 0
M  V30 17 C -0.5555 0.178 -1.1655 0
M  V30 18 C 2.0879 2.8839 0.7089 0
M  V30 19 C 2.9834 0.5348 0.5901 0
M  V30 20 C -4.0321 -2.441 -0.5927 0
M  V30 21 C -5.2662 -0.52 0.1985 0
M  V30 22 C 0.1984 -0.7355 -1.7976 0
M  V30 23 C -5.2278 -1.7504 -0.4443 0
M  V30 24 C 0.1771 -0.9579 -3.279 0
M  V30 25 F -6.3605 -2.2796 -0.9245 0
M  V30 26 O 0.0972 -2.3669 -3.4788 0
M  V30 27 C 1.4105 -0.392 -3.9982 0
M  V30 28 C 2.7461 -1.0311 -3.5751 0
M  V30 29 O 2.7516 -2.4119 -3.953 0
M  V30 30 C 3.9449 -0.368 -4.2542 0
M  V30 31 C 4.2759 0.9609 -3.6379 0
M  V30 32 O 3.6728 1.536 -2.7475 0
M  V30 33 O 5.3685 1.518 -4.1957 0
M  V30 34 H -3.2108 0.3836 5.3847 0
M  V30 35 H -3.055 -1.2907 5.9665 0
M  V30 36 H -2.9832 -0.9753 4.2219 0
M  V30 37 H -0.4658 2.9752 4.1687 0
M  V30 38 H -2.1073 2.3364 4.399 0
M  V30 39 H -0.9603 2.4211 5.7583 0
M  V30 40 H 1.6408 1.4614 -0.7938 0
M  V30 41 H -1.9216 -2.4463 -0.2017 0
M  V30 42 H -4.1221 0.9933 1.2085 0
M  V30 43 H -1.2482 0.8185 -1.7058 0
M  V30 44 H 2.3225 2.9611 1.7766 0
M  V30 45 H 2.9458 3.275 0.1512 0
M  V30 46 H 1.2304 3.5356 0.507 0
M  V30 47 H 3.2127 0.5077 1.6616 0
M  V30 48 H 2.7893 -0.4936 0.2672 0
M  V30 49 H 3.8781 0.8874 0.0662 0
M  V30 50 H -4.0246 -3.406 -1.0896 0
M  V30 51 H -6.213 -0.0013 0.3107 0
M  V30 52 H 0.8592 -1.3828 -1.223 0
M  V30 53 H -0.7269 -0.5118 -3.7115 0
M  V30 54 H -0.2076 -2.5022 -4.3949 0
M  V30 55 H 1.2751 -0.5735 -5.0729 0
M  V30 56 H 1.4405 0.6935 -3.8506 0
M  V30 57 H 2.8731 -0.9903 -2.4878 0
M  V30 58 H 1.9522 -2.8154 -3.5528 0
M  V30 59 H 3.7539 -0.2329 -5.3247 0
M  V30 60 H 4.8243 -1.0153 -4.1523 0
M  V30 61 H 5.4933 2.3614 -3.7122 0
M  V30 END ATOM
M  V30 BEGIN BOND
M  V30 1 2 1 2
M  V30 2 2 1 3
M  V30 3 1 1 4
M  V30 4 1 1 5
M  V30 5 1 4 6
M  V30 6 1 4 7
M  V30 7 2 6 8
M  V30 8 1 6 9
M  V30 9 1 8 10
M  V30 10 2 9 11
M  V30 11 1 10 12
M  V30 12 2 10 13
M  V30 13 1 11 14
M  V30 14 2 12 15
M  V30 15 1 12 16
M  V30 16 1 13 17
M  V30 17 1 14 18
M  V30 18 1 14 19
M  V30 19 1 15 20
M  V30 20 2 16 21
M  V30 21 2 17 22
M  V30 22 2 20 23
M  V30 23 1 22 24
M  V30 24 1 23 25
M  V30 25 1 24 26
M  V30 26 1 24 27
M  V30 27 1 27 28
M  V30 28 1 28 29
M  V30 29 1 28 30
M  V30 30 1 30 31
M  V30 31 2 31 32
M  V30 32 1 31 33
M  V30 33 1 11 13
M  V30 34 1 21 23
M  V30 35 1 5 34
M  V30 36 1 5 35
M  V30 37 1 5 36
M  V30 38 1 7 37
M  V30 39 1 7 38
M  V30 40 1 7 39
M  V30 41 1 14 40
M  V30 42 1 15 41
M  V30 43 1 16 42
M  V30 44 1 17 43
M  V30 45 1 18 44
M  V30 46 1 18 45
M  V30 47 1 18 46
M  V30 48 1 19 47
M  V30 49 1 19 48
M  V30 50 1 19 49
M  V30 51 1 20 50
M  V30 52 1 21 51
M  V30 53 1 22 52
M  V30 54 1 24 53
M  V30 55 1 26 54
M  V30 56 1 27 55
M  V30 57 1 27 56
M  V30 58 1 28 57
M  V30 59 1 29 58
M  V30 60 1 30 59
M  V30 61 1 30 60
M  V30 62 1 33 61
M  V30 END BOND
M  V30 END CTAB
M  END
>  <Column 1>
2976

>  <level_0>
5117

>  <index>
5118

>  <Unnamed: 0>
5118

>  <NO.>
5130

>  <Name>
rosuvastatin

>  <IUPAC_name>
7-[4-(4-fluorophenyl)-2-[methyl(methylsulfonyl)amino]-6-propan-2-ylpyrimidin-5-yl]-3-5-dihydroxyhept-6-enoic acid

>  <SMILES>
CC(C)c1nc(N(C)S(C)(=O)=O)nc(-c2ccc(F)cc2)c1C=CC(O)CC(O)CC(=O)O

>  <CID>
4979943

>  <logBB>


>  <BBB+/BBB->
BBB-

>  <Inchi>
InChI=1S/C22H28FN3O6S/c1-13(2)20-18(10-9-16(27)11-17(28)12-19(29)30)21(14-5-7-15(23)8-6-14)25-22(24-20)26(3)33(4-31)32/h5-10-13-16-17-27-28H-11-12H2-1-4H3-(H-29-30)

>  <threshold>


>  <reference>
R14|

>  <group>
C

>  <Class>
-1

>  <ABC>
25.13

>  <ABCGG>
21.07

>  <nAcid>
1

>  <nBase>
0

>  <nAromAtom>
12

>  <nAromBond>
12

>  <nAtom>
61

>  <nHeavyAtom>
33

>  <nSpiro>
0

>  <nBridgehead>
0

>  <nHetero>
11

>  <nN>
3

>  <nO>
6

>  <nF>
1

>  <BalabanJ>
2.16

>  <BertzCT>
1119.7

>  <nBonds>
62

>  <nBondsO>
34

>  <nBondsS>
46

>  <nBondsD>
4

>  <nBondsT>
0

>  <nBondsA>
12

>  <nBondsM>
16

>  <nBondsKS>
52

>  <nBondsKD>
10

>  <RNCG>
0.15

>  <RPCG>
0.1

>  <FCSP3>
0.41

>  <SZ>
42.33

>  <Sm>
40.09

>  <Sv>
37.98

>  <Sse>
62.44

>  <Sp>
40.11

>  <Si>
69.41

>  <MZ>
0.69

>  <Mm>
0.66

>  <Mv>
0.62

>  <Mse>
1.02

>  <Mp>
0.66

>  <Mi>
1.14

>  <NsCH3>
4

>  <NdCH2>
0

>  <NssCH2>
2

>  <NtCH>
0

>  <NdsCH>
2

>  <NaaCH>
4

>  <NsssCH>
3

>  <NddC>
0

>  <NtsC>
0

>  <NdssC>
1

>  <NaasC>
6

>  <NaaaC>
0

>  <NssssC>
0

>  <NsNH3>
0

>  <NsNH2>
0

>  <NssNH2>
0

>  <NdNH>
0

>  <NssNH>
0

>  <NaaNH>
0

>  <NtN>
0

>  <NsssNH>
0

>  <NdsN>
0

>  <NaaN>
2

>  <NsssN>
1

>  <NddsN>
0

>  <NaasN>
0

>  <NssssN>
0

>  <NsOH>
3

>  <NdO>
3

>  <NssO>
0

>  <NaaO>
0

>  <NsF>
1

>  <NsSiH3>
0

>  <NssSiH2>
0

>  <NsssSiH>
0

>  <NssssSi>
0

>  <NsPH2>
0

>  <NssPH>
0

>  <NsssP>
0

>  <NdsssP>
0

>  <NsssssP>
0

>  <NsSH>
0

>  <NdS>
0

>  <NssS>
0

>  <NaaS>
0

>  <NdssS>
0

>  <NddssS>
1

>  <NsCl>
0

>  <NsBr>
0

>  <NsI>
0

>  <fragCpx>
100.11

>  <fMF>
0.2

>  <nHBAcc>
7

>  <nHBDon>
3

>  <Kier1>
29.23

>  <Kier2>
12.81

>  <Lipinski>
1

>  <GhoseFilter>
0

>  <FilterItLogS>
-3.77

>  <VMcGowan>
347.99

>  <LabuteASA>
191.85

>  <PEOE_VSA1>
15.32

>  <PEOE_VSA2>
4.79

>  <PEOE_VSA3>
27.08

>  <PEOE_VSA4>
0

>  <PEOE_VSA5>
0

>  <PEOE_VSA6>
26

>  <PEOE_VSA7>
30.18

>  <PEOE_VSA8>
24.6

>  <PEOE_VSA9>
36.27

>  <PEOE_VSA10>
5.82

>  <PEOE_VSA11>
0

>  <PEOE_VSA12>
15.97

>  <PEOE_VSA13>
0

>  <SMR_VSA1>
32.92

>  <SMR_VSA2>
0

>  <SMR_VSA3>
9.97

>  <SMR_VSA4>
0

>  <SMR_VSA5>
44.81

>  <SMR_VSA6>
17.61

>  <SMR_VSA7>
47.42

>  <SMR_VSA8>
0

>  <SMR_VSA9>
11.26

>  <SlogP_VSA1>
4.31

>  <SlogP_VSA2>
65.19

>  <SlogP_VSA3>
14.82

>  <SlogP_VSA4>
5.82

>  <SlogP_VSA5>
43.86

>  <SlogP_VSA6>
30.34

>  <SlogP_VSA7>
0

>  <SlogP_VSA8>
17.33

>  <SlogP_VSA9>
0

>  <SlogP_VSA10>
10.34

>  <SlogP_VSA11>
0

>  <EState_VSA1>
40.44

>  <EState_VSA2>
18.29

>  <EState_VSA3>
22.51

>  <EState_VSA4>
10.56

>  <EState_VSA5>
43.47

>  <EState_VSA6>
0

>  <EState_VSA7>
13.85

>  <EState_VSA8>
9.97

>  <EState_VSA9>
5.11

>  <EState_VSA10>
27.82

>  <VSA_EState1>
38.58

>  <VSA_EState2>
19.56

>  <VSA_EState3>
28.78

>  <VSA_EState4>
1.8

>  <VSA_EState5>
-1.87

>  <VSA_EState6>
5.49

>  <VSA_EState7>
0.86

>  <VSA_EState8>
3.71

>  <VSA_EState9>
-2.33

>  <apol>
66.98

>  <bpol>
40.72

>  <nRing>
2

>  <nHRing>
1

>  <naRing>
2

>  <naHRing>
1

>  <nARing 2>
0

>  <nAHRing 2>
0

>  <nFRing>
0

>  <nFHRing>
0

>  <nFaRing>
0

>  <nFaHRing>
0

>  <nFARing 2>
0

>  <nFAHRing 2>
0

>  <nRot>
10

>  <SLogP>
2.4

>  <SMR>
122.68

>  <TopoPSA(NO)>
140.92

>  <TopoPSA>
149.3

>  <JGI1>
0.29

>  <JGI2>
0.09

>  <JGI3>
0.05

>  <JGI4>
0.04

>  <JGI5>
0.04

>  <Diameter>
14

>  <Radius>
7

>  <TMWC10>
144.22

>  <TSRW10>
68.93

>  <MW>
481.17

>  <AMW>
7.89

>  <WPath>
3228

>  <WPol>
51

>  <Zagreb1>
166

>  <Zagreb2>
189

>  <mZagreb2>
7.14

>  <yes>


>  <nAR-cont>
0.336376

>  <nHA-cont>
0.61399562

>  <MWHBN>
0.455880199

>  <MWHBN-cont>
0

>  <TPSA-cont>
0

>  <pka_cont>
0.97

>  <yes.1>


>  <BBB_SCORE>
1.43537162

>  <MMFF94 Energy>
-106.1

$$$$
Compound 2417
Actelion Java MolfileCreator 2.0

  0  0  0  0  0  0              0 V3000
M  V30 BEGIN CTAB
M  V30 COUNTS 68 71 0 0 0
M  V30 BEGIN ATOM
M  V30 1 O -4.5497 0.7173 -5.4296 0
M  V30 2 C -3.6469 1.5356 -5.4467 0
M  V30 3 O -3.1675 2.0015 -6.617 0
M  V30 4 C -2.924 2.1318 -4.2681 0
M  V30 5 C -3.5898 1.7435 -2.9472 0
M  V30 6 C -2.9862 2.4336 -1.7044 0
M  V30 7 C -1.4677 2.1754 -1.4709 0
M  V30 8 C -3.911 2.1652 -0.5091 0
M  V30 9 C -0.881 0.7721 -1.1022 0
M  V30 10 C -0.8744 3.1239 -0.4062 0
M  V30 11 C 0.5688 1.168 -0.6976 0
M  V30 12 C -1.5937 0.0749 0.0726 0
M  V30 13 C -0.8363 -0.1707 -2.3195 0
M  V30 14 C 0.4003 2.462 0.1097 0
M  V30 15 C 1.3781 0.0537 0.0145 0
M  V30 16 C -0.7878 -1.0665 0.6963 0
M  V30 17 C 2.7671 0.5526 0.465 0
M  V30 18 C 0.5964 -0.6035 1.1848 0
M  V30 19 O 3.5157 1.0104 -0.6586 0
M  V30 20 C 3.5762 -0.5245 1.1865 0
M  V30 21 C 1.4305 -1.7328 1.9053 0
M  V30 22 C 2.785 -1.1024 2.3615 0
M  V30 23 C 0.6878 -2.2277 3.1811 0
M  V30 24 C 1.645 -2.9472 0.9651 0
M  V30 25 C 3.6437 -2.0622 3.195 0
M  V30 26 C 1.5265 -3.1643 4.0538 0
M  V30 27 C 2.8781 -2.559 4.4205 0
M  V30 28 O 3.6617 -3.5235 5.1147 0
M  V30 29 H -3.7062 1.5408 -7.294 0
M  V30 30 H -2.9355 3.222 -4.3765 0
M  V30 31 H -1.8904 1.7796 -4.307 0
M  V30 32 H -4.6521 2.019 -3.013 0
M  V30 33 H -3.5855 0.6562 -2.8225 0
M  V30 34 H -3.0677 3.5152 -1.8925 0
M  V30 35 H -0.9715 2.4765 -2.4058 0
M  V30 36 H -4.1129 1.1002 -0.3745 0
M  V30 37 H -3.5227 2.5683 0.4282 0
M  V30 38 H -4.8829 2.645 -0.6775 0
M  V30 39 H -0.6561 4.1038 -0.8463 0
M  V30 40 H -1.5499 3.3005 0.4348 0
M  V30 41 H 1.1154 1.437 -1.6145 0
M  V30 42 H -2.5479 -0.3425 -0.2663 0
M  V30 43 H -1.8264 0.7949 0.866 0
M  V30 44 H -1.8325 -0.5192 -2.6004 0
M  V30 45 H -0.3915 0.3227 -3.19 0
M  V30 46 H -0.236 -1.0647 -2.125 0
M  V30 47 H 0.3 2.2715 1.1832 0
M  V30 48 H 1.2641 3.1232 -0.0195 0
M  V30 49 H 1.5496 -0.7115 -0.7533 0
M  V30 50 H -0.6916 -1.8788 -0.0311 0
M  V30 51 H -1.3719 -1.4648 1.5327 0
M  V30 52 H 2.6565 1.4071 1.1422 0
M  V30 53 H 0.4173 0.1751 1.9401 0
M  V30 54 H 3.6227 0.2635 -1.2719 0
M  V30 55 H 3.8816 -1.3105 0.4853 0
M  V30 56 H 4.5145 -0.0797 1.5432 0
M  V30 57 H 2.5458 -0.2556 3.0242 0
M  V30 58 H 0.3894 -1.3626 3.788 0
M  V30 59 H -0.2361 -2.7526 2.9128 0
M  V30 60 H 0.6979 -3.4535 0.7498 0
M  V30 61 H 2.0883 -2.6652 0.0069 0
M  V30 62 H 2.3039 -3.7023 1.4027 0
M  V30 63 H 3.9961 -2.9082 2.5931 0
M  V30 64 H 4.557 -1.5549 3.5327 0
M  V30 65 H 1.6696 -4.1286 3.5512 0
M  V30 66 H 0.9753 -3.403 4.9721 0
M  V30 67 H 2.7195 -1.7202 5.1087 0
M  V30 68 H 3.8102 -4.2767 4.5179 0
M  V30 END ATOM
M  V30 BEGIN BOND
M  V30 1 2 1 2
M  V30 2 1 2 3
M  V30 3 1 2 4
M  V30 4 1 4 5
M  V30 5 1 5 6
M  V30 6 1 6 7
M  V30 7 1 6 8
M  V30 8 1 7 9
M  V30 9 1 7 10
M  V30 10 1 9 11
M  V30 11 1 9 12
M  V30 12 1 9 13
M  V30 13 1 10 14
M  V30 14 1 11 15
M  V30 15 1 12 16
M  V30 16 1 15 17
M  V30 17 1 15 18
M  V30 18 1 17 19
M  V30 19 1 17 20
M  V30 20 1 18 21
M  V30 21 1 20 22
M  V30 22 1 21 23
M  V30 23 1 21 24
M  V30 24 1 22 25
M  V30 25 1 23 26
M  V30 26 1 25 27
M  V30 27 1 27 28
M  V30 28 1 11 14
M  V30 29 1 16 18
M  V30 30 1 21 22
M  V30 31 1 26 27
M  V30 32 1 3 29
M  V30 33 1 4 30
M  V30 34 1 4 31
M  V30 35 1 5 32
M  V30 36 1 5 33
M  V30 37 1 6 34
M  V30 38 1 7 35
M  V30 39 1 8 36
M  V30 40 1 8 37
M  V30 41 1 8 38
M  V30 42 1 10 39
M  V30 43 1 10 40
M  V30 44 1 11 41
M  V30 45 1 12 42
M  V30 46 1 12 43
M  V30 47 1 13 44
M  V30 48 1 13 45
M  V30 49 1 13 46
M  V30 50 1 14 47
M  V30 51 1 14 48
M  V30 52 1 15 49
M  V30 53 1 16 50
M  V30 54 1 16 51
M  V30 55 1 17 52
M  V30 56 1 18 53
M  V30 57 1 19 54
M  V30 58 1 20 55
M  V30 59 1 20 56
M  V30 60 1 22 57
M  V30 61 1 23 58
M  V30 62 1 23 59
M  V30 63 1 24 60
M  V30 64 1 24 61
M  V30 65 1 24 62
M  V30 66 1 25 63
M  V30 67 1 25 64
M  V30 68 1 26 65
M  V30 69 1 26 66
M  V30 70 1 27 67
M  V30 71 1 28 68
M  V30 END BOND
M  V30 END CTAB
M  END
>  <Column 1>
2978

>  <level_0>
5120

>  <index>
5121

>  <Unnamed: 0>
5121

>  <NO.>
5133

>  <Name>
3-7-dihydroxycholan-24-oic acid

>  <IUPAC_name>
4-(3-7-dihydroxy-10-13-dimethyl-2-3-4-5-6-7-8-9-11-12-14-15-16-17-tetradecahydro-1h-cyclopenta[a]phenanthren-17-yl)pentanoic acid

>  <SMILES>
CC(CCC(=O)O)C1CCC2C3C(O)CC4CC(O)CCC4(C)C3CCC12C

>  <CID>
5645

>  <logBB>


>  <BBB+/BBB->
BBB-

>  <Inchi>
InChI=1S/C24H40O4/c1-14(4-7-21(27)28)17-5-6-18-22-19(9-11-24(17-18)3)23(2)10-8-16(25)12-15(23)13-20(22)26/h14-20-22-25-26H-4-13H2-1-3H3-(H-27-28)

>  <threshold>


>  <reference>
R14|

>  <group>
C

>  <Class>
-1

>  <ABC>
22.38

>  <ABCGG>
17.8

>  <nAcid>
1

>  <nBase>
0

>  <nAromAtom>
0

>  <nAromBond>
0

>  <nAtom>
68

>  <nHeavyAtom>
28

>  <nSpiro>
0

>  <nBridgehead>
0

>  <nHetero>
4

>  <nN>
0

>  <nO>
4

>  <nF>
0

>  <BalabanJ>
1.55

>  <BertzCT>
605.41

>  <nBonds>
71

>  <nBondsO>
31

>  <nBondsS>
70

>  <nBondsD>
1

>  <nBondsT>
0

>  <nBondsA>
0

>  <nBondsM>
1

>  <nBondsKS>
70

>  <nBondsKD>
1

>  <RNCG>
0.21

>  <RPCG>
0.13

>  <FCSP3>
0.96

>  <SZ>
36

>  <Sm>
32.69

>  <Sv>
37.7

>  <Sse>
67.08

>  <Sp>
41.89

>  <Si>
77.14

>  <MZ>
0.53

>  <Mm>
0.48

>  <Mv>
0.55

>  <Mse>
0.99

>  <Mp>
0.62

>  <Mi>
1.13

>  <NsCH3>
3

>  <NdCH2>
0

>  <NssCH2>
10

>  <NtCH>
0

>  <NdsCH>
0

>  <NaaCH>
0

>  <NsssCH>
8

>  <NddC>
0

>  <NtsC>
0

>  <NdssC>
1

>  <NaasC>
0

>  <NaaaC>
0

>  <NssssC>
2

>  <NsNH3>
0

>  <NsNH2>
0

>  <NssNH2>
0

>  <NdNH>
0

>  <NssNH>
0

>  <NaaNH>
0

>  <NtN>
0

>  <NsssNH>
0

>  <NdsN>
0

>  <NaaN>
0

>  <NsssN>
0

>  <NddsN>
0

>  <NaasN>
0

>  <NssssN>
0

>  <NsOH>
3

>  <NdO>
1

>  <NssO>
0

>  <NaaO>
0

>  <NsF>
0

>  <NsSiH3>
0

>  <NssSiH2>
0

>  <NsssSiH>
0

>  <NssssSi>
0

>  <NsPH2>
0

>  <NssPH>
0

>  <NsssP>
0

>  <NdsssP>
0

>  <NsssssP>
0

>  <NsSH>
0

>  <NdS>
0

>  <NssS>
0

>  <NaaS>
0

>  <NdssS>
0

>  <NddssS>
0

>  <NsCl>
0

>  <NsBr>
0

>  <NsI>
0

>  <fragCpx>
205.04

>  <fMF>
0.25

>  <nHBAcc>
3

>  <nHBDon>
3

>  <Kier1>
21.24

>  <Kier2>
7.6

>  <Lipinski>
1

>  <GhoseFilter>
1

>  <FilterItLogS>
-3.13

>  <VMcGowan>
324.76

>  <LabuteASA>
169.65

>  <PEOE_VSA1>
15.32

>  <PEOE_VSA2>
4.79

>  <PEOE_VSA3>
0

>  <PEOE_VSA4>
0

>  <PEOE_VSA5>
0

>  <PEOE_VSA6>
20.77

>  <PEOE_VSA7>
104.12

>  <PEOE_VSA8>
6.42

>  <PEOE_VSA9>
12.21

>  <PEOE_VSA10>
0

>  <PEOE_VSA11>
0

>  <PEOE_VSA12>
0

>  <PEOE_VSA13>
0

>  <SMR_VSA1>
20.11

>  <SMR_VSA2>
0

>  <SMR_VSA3>
0

>  <SMR_VSA4>
46.34

>  <SMR_VSA5>
97.19

>  <SMR_VSA6>
0

>  <SMR_VSA7>
0

>  <SMR_VSA8>
0

>  <SMR_VSA9>
0

>  <SlogP_VSA1>
0

>  <SlogP_VSA2>
33.5

>  <SlogP_VSA3>
4.79

>  <SlogP_VSA4>
46.34

>  <SlogP_VSA5>
84.98

>  <SlogP_VSA6>
0

>  <SlogP_VSA7>
0

>  <SlogP_VSA8>
0

>  <SlogP_VSA9>
0

>  <SlogP_VSA10>
0

>  <SlogP_VSA11>
0

>  <EState_VSA1>
5.97

>  <EState_VSA2>
29.46

>  <EState_VSA3>
35.51

>  <EState_VSA4>
32.1

>  <EState_VSA5>
25.68

>  <EState_VSA6>
0

>  <EState_VSA7>
0

>  <EState_VSA8>
20.77

>  <EState_VSA9>
5.11

>  <EState_VSA10>
15.01

>  <VSA_EState1>
0

>  <VSA_EState2>
11.05

>  <VSA_EState3>
30.54

>  <VSA_EState4>
0.52

>  <VSA_EState5>
2.36

>  <VSA_EState6>
0

>  <VSA_EState7>
9.19

>  <VSA_EState8>
7.16

>  <VSA_EState9>
0

>  <apol>
69.96

>  <bpol>
41

>  <nRing>
4

>  <nHRing>
0

>  <naRing>
0

>  <naHRing>
0

>  <nARing 2>
4

>  <nAHRing 2>
0

>  <nFRing>
1

>  <nFHRing>
0

>  <nFaRing>
0

>  <nFaHRing>
0

>  <nFARing 2>
1

>  <nFAHRing 2>
0

>  <nRot>
4

>  <SLogP>
4.48

>  <SMR>
108.65

>  <TopoPSA(NO)>
77.76

>  <TopoPSA>
77.76

>  <JGI1>
0.27

>  <JGI2>
0.12

>  <JGI3>
0.07

>  <JGI4>
0.06

>  <JGI5>
0.03

>  <Diameter>
14

>  <Radius>
7

>  <TMWC10>
138.68

>  <TSRW10>
78.8

>  <MW>
392.29

>  <AMW>
5.77

>  <WPath>
1910

>  <WPol>
56

>  <Zagreb1>
160

>  <Zagreb2>
199

>  <mZagreb2>
5.86

>  <yes>


>  <nAR-cont>
0.199399

>  <nHA-cont>
0.82432561

>  <MWHBN>
0.30293373

>  <MWHBN-cont>
0.831885856

>  <TPSA-cont>
0.457186914

>  <pka_cont>
0.97

>  <yes.1>


>  <BBB_SCORE>
3.670927222

>  <MMFF94 Energy>
65.275

$$$$
Compound 2418
Actelion Java MolfileCreator 2.0

  0  0  0  0  0  0              0 V3000
M  V30 BEGIN CTAB
M  V30 COUNTS 39 39 0 0 0
M  V30 BEGIN ATOM
M  V30 1 Cl -2.1298 -2.4456 6.1624 0
M  V30 2 C -1.5478 -1.7071 4.7217 0
M  V30 3 C -2.4512 -1.2481 3.7657 0
M  V30 4 C -0.1768 -1.5711 4.5183 0
M  V30 5 C -1.9799 -0.6489 2.5951 0
M  V30 6 C 0.2943 -0.972 3.3484 0
M  V30 7 C -0.6023 -0.5091 2.3735 0
M  V30 8 C -0.0852 0.137 1.1027 0
M  V30 9 C 0.2807 -0.8367 -0.0577 0
M  V30 10 O 1.2463 -1.7836 0.4375 0
M  V30 11 C 0.9903 -0.057 -1.2245 0
M  V30 12 C -0.9462 -1.6279 -0.5365 0
M  V30 13 C 0.1029 1.0502 -1.8543 0
M  V30 14 C 1.5238 -1.0036 -2.3179 0
M  V30 15 N 0.7448 1.8209 -2.9377 0
M  V30 16 C 1.8448 2.6535 -2.446 0
M  V30 17 C -0.245 2.6616 -3.6166 0
M  V30 18 H -3.5211 -1.3515 3.9258 0
M  V30 19 H 0.5289 -1.9256 5.2647 0
M  V30 20 H -2.697 -0.2923 1.8585 0
M  V30 21 H 1.3681 -0.8676 3.1992 0
M  V30 22 H 0.8026 0.7243 1.3744 0
M  V30 23 H -0.8355 0.8638 0.7701 0
M  V30 24 H 0.7925 -2.37 1.0687 0
M  V30 25 H 1.8772 0.4127 -0.7778 0
M  V30 26 H -1.7543 -0.97 -0.8693 0
M  V30 27 H -1.3384 -2.2733 0.257 0
M  V30 28 H -0.6896 -2.3085 -1.3543 0
M  V30 29 H -0.2437 1.7467 -1.0829 0
M  V30 30 H -0.7905 0.5651 -2.2662 0
M  V30 31 H 2.1073 -1.8258 -1.8924 0
M  V30 32 H 0.7107 -1.4321 -2.9122 0
M  V30 33 H 2.188 -0.4701 -3.0062 0
M  V30 34 H 2.6586 2.0425 -2.0443 0
M  V30 35 H 1.5175 3.3534 -1.6686 0
M  V30 36 H 2.2828 3.2344 -3.2661 0
M  V30 37 H -0.6978 3.3953 -2.9396 0
M  V30 38 H -1.0445 2.0471 -4.0453 0
M  V30 39 H 0.2144 3.2002 -4.453 0
M  V30 END ATOM
M  V30 BEGIN BOND
M  V30 1 1 1 2
M  V30 2 2 2 3
M  V30 3 1 2 4
M  V30 4 1 3 5
M  V30 5 2 4 6
M  V30 6 2 5 7
M  V30 7 1 7 8
M  V30 8 1 8 9
M  V30 9 1 9 10
M  V30 10 1 9 11
M  V30 11 1 9 12
M  V30 12 1 11 13
M  V30 13 1 11 14
M  V30 14 1 13 15
M  V30 15 1 15 16
M  V30 16 1 15 17
M  V30 17 1 6 7
M  V30 18 1 3 18
M  V30 19 1 4 19
M  V30 20 1 5 20
M  V30 21 1 6 21
M  V30 22 1 8 22
M  V30 23 1 8 23
M  V30 24 1 10 24
M  V30 25 1 11 25
M  V30 26 1 12 26
M  V30 27 1 12 27
M  V30 28 1 12 28
M  V30 29 1 13 29
M  V30 30 1 13 30
M  V30 31 1 14 31
M  V30 32 1 14 32
M  V30 33 1 14 33
M  V30 34 1 16 34
M  V30 35 1 16 35
M  V30 36 1 16 36
M  V30 37 1 17 37
M  V30 38 1 17 38
M  V30 39 1 17 39
M  V30 END BOND
M  V30 END CTAB
M  END
>  <Column 1>
2979

>  <level_0>
5121

>  <index>
5122

>  <Unnamed: 0>
5122

>  <NO.>
5134

>  <Name>
clobutinol

>  <IUPAC_name>
1-(4-chlorophenyl)-4-(dimethylamino)-2-3-dimethylbutan-2-ol

>  <SMILES>
CC(CN(C)C)C(C)(O)Cc1ccc(Cl)cc1

>  <CID>
26937

>  <logBB>


>  <BBB+/BBB->
BBB-

>  <Inchi>
InChI=1S/C14H22ClNO/c1-11(10-16(3)4)14(2-17)9-12-5-7-13(15)8-6-12/h5-8-11-17H-9-10H2-1-4H3

>  <threshold>


>  <reference>
R14|

>  <group>
C

>  <Class>
-1

>  <ABC>
12.71

>  <ABCGG>
11.56

>  <nAcid>
0

>  <nBase>
1

>  <nAromAtom>
6

>  <nAromBond>
6

>  <nAtom>
39

>  <nHeavyAtom>
17

>  <nSpiro>
0

>  <nBridgehead>
0

>  <nHetero>
3

>  <nN>
1

>  <nO>
1

>  <nF>
0

>  <BalabanJ>
2.42

>  <BertzCT>
345.74

>  <nBonds>
39

>  <nBondsO>
17

>  <nBondsS>
33

>  <nBondsD>
0

>  <nBondsT>
0

>  <nBondsA>
6

>  <nBondsM>
6

>  <nBondsKS>
36

>  <nBondsKD>
3

>  <RNCG>
0.34

>  <RPCG>
0.18

>  <FCSP3>
0.57

>  <SZ>
23

>  <Sm>
21.3

>  <Sv>
22.52

>  <Sse>
38.53

>  <Sp>
25.23

>  <Si>
44.22

>  <MZ>
0.59

>  <Mm>
0.55

>  <Mv>
0.58

>  <Mse>
0.99

>  <Mp>
0.65

>  <Mi>
1.13

>  <NsCH3>
4

>  <NdCH2>
0

>  <NssCH2>
2

>  <NtCH>
0

>  <NdsCH>
0

>  <NaaCH>
4

>  <NsssCH>
1

>  <NddC>
0

>  <NtsC>
0

>  <NdssC>
0

>  <NaasC>
2

>  <NaaaC>
0

>  <NssssC>
1

>  <NsNH3>
0

>  <NsNH2>
0

>  <NssNH2>
0

>  <NdNH>
0

>  <NssNH>
0

>  <NaaNH>
0

>  <NtN>
0

>  <NsssNH>
0

>  <NdsN>
0

>  <NaaN>
0

>  <NsssN>
1

>  <NddsN>
0

>  <NaasN>
0

>  <NssssN>
0

>  <NsOH>
1

>  <NdO>
0

>  <NssO>
0

>  <NaaO>
0

>  <NsF>
0

>  <NsSiH3>
0

>  <NssSiH2>
0

>  <NsssSiH>
0

>  <NssssSi>
0

>  <NsPH2>
0

>  <NssPH>
0

>  <NsssP>
0

>  <NdsssP>
0

>  <NsssssP>
0

>  <NsSH>
0

>  <NdS>
0

>  <NssS>
0

>  <NaaS>
0

>  <NdssS>
0

>  <NddssS>
0

>  <NsCl>
1

>  <NsBr>
0

>  <NsI>
0

>  <fragCpx>
17.03

>  <fMF>
0.15

>  <nHBAcc>
2

>  <nHBDon>
1

>  <Kier1>
15.06

>  <Kier2>
6.25

>  <Lipinski>
1

>  <GhoseFilter>
1

>  <FilterItLogS>
-3.63

>  <VMcGowan>
212.45

>  <LabuteASA>
109.21

>  <PEOE_VSA1>
10.01

>  <PEOE_VSA2>
0

>  <PEOE_VSA3>
0

>  <PEOE_VSA4>
0

>  <PEOE_VSA5>
0

>  <PEOE_VSA6>
30.66

>  <PEOE_VSA7>
44.63

>  <PEOE_VSA8>
17.99

>  <PEOE_VSA9>
5.6

>  <PEOE_VSA10>
0

>  <PEOE_VSA11>
0

>  <PEOE_VSA12>
0

>  <PEOE_VSA13>
0

>  <SMR_VSA1>
5.11

>  <SMR_VSA2>
0

>  <SMR_VSA3>
4.9

>  <SMR_VSA4>
5.92

>  <SMR_VSA5>
25.87

>  <SMR_VSA6>
20.64

>  <SMR_VSA7>
34.85

>  <SMR_VSA8>
0

>  <SMR_VSA9>
0

>  <SlogP_VSA1>
0

>  <SlogP_VSA2>
36.25

>  <SlogP_VSA3>
6.42

>  <SlogP_VSA4>
5.92

>  <SlogP_VSA5>
19.41

>  <SlogP_VSA6>
24.27

>  <SlogP_VSA7>
5.02

>  <SlogP_VSA8>
0

>  <SlogP_VSA9>
0

>  <SlogP_VSA10>
0

>  <SlogP_VSA11>
0

>  <EState_VSA1>
5.6

>  <EState_VSA2>
5.92

>  <EState_VSA3>
6.42

>  <EState_VSA4>
17.13

>  <EState_VSA5>
0

>  <EState_VSA6>
0

>  <EState_VSA7>
45.28

>  <EState_VSA8>
11.82

>  <EState_VSA9>
11.6

>  <EState_VSA10>
5.11

>  <VSA_EState1>
0

>  <VSA_EState2>
2.1

>  <VSA_EState3>
11.23

>  <VSA_EState4>
0.42

>  <VSA_EState5>
0.22

>  <VSA_EState6>
7.67

>  <VSA_EState7>
0.65

>  <VSA_EState8>
4.85

>  <VSA_EState9>
4.05

>  <apol>
42.13

>  <bpol>
24.29

>  <nRing>
1

>  <nHRing>
0

>  <naRing>
1

>  <naHRing>
0

>  <nARing 2>
0

>  <nAHRing 2>
0

>  <nFRing>
0

>  <nFHRing>
0

>  <nFaRing>
0

>  <nFaHRing>
0

>  <nFARing 2>
0

>  <nFAHRing 2>
0

>  <nRot>
5

>  <SLogP>
2.83

>  <SMR>
73.5

>  <TopoPSA(NO)>
23.47

>  <TopoPSA>
23.47

>  <JGI1>
0.35

>  <JGI2>
0.1

>  <JGI3>
0.06

>  <JGI4>
0.06

>  <JGI5>
0.02

>  <Diameter>
10

>  <Radius>
5

>  <TMWC10>
103.6

>  <TSRW10>
49.26

>  <MW>
255.14

>  <AMW>
6.54

>  <WPath>
554

>  <WPol>
22

>  <Zagreb1>
82

>  <Zagreb2>
90

>  <mZagreb2>
3.71

>  <yes>


>  <nAR-cont>
0.336376

>  <nHA-cont>
0.976740822

>  <MWHBN>
0.187815737

>  <MWHBN-cont>
0.994181018

>  <TPSA-cont>
0.836164826

>  <pka_cont>
0.97

>  <yes.1>


>  <BBB_SCORE>
4.961718

>  <MMFF94 Energy>
54.703

$$$$
Compound 2419
Actelion Java MolfileCreator 2.0

  0  0  0  0  0  0              0 V3000
M  V30 BEGIN CTAB
M  V30 COUNTS 45 46 0 0 0
M  V30 BEGIN ATOM
M  V30 1 O 2.4374 -1.4147 -1.3361 0
M  V30 2 C 2.6464 -2.1089 -2.4955 0
M  V30 3 C 1.6688 -0.212 -1.4275 0
M  V30 4 C 2.1331 -1.7845 -3.752 0
M  V30 5 C 3.4514 -3.243 -2.3588 0
M  V30 6 C 1.5694 0.4291 -0.0236 0
M  V30 7 C 2.4268 -2.5873 -4.8589 0
M  V30 8 C 3.7455 -4.0447 -3.463 0
M  V30 9 N 0.7043 1.6274 -0.085 0
M  V30 10 C 2.9673 0.8062 0.486 0
M  V30 11 C 3.2324 -3.7156 -4.7149 0
M  V30 12 C -0.3543 1.7006 0.9623 0
M  V30 13 C -1.4771 0.6449 0.7067 0
M  V30 14 C 0.1988 1.6651 2.3885 0
M  V30 15 O -1.8645 0.7213 -0.6736 0
M  V30 16 C -2.7099 0.8475 1.5616 0
M  V30 17 C -2.9735 -0.0161 2.6376 0
M  V30 18 C -3.5978 1.9073 1.3166 0
M  V30 19 C -4.0939 0.1769 3.4505 0
M  V30 20 C -4.7161 2.1018 2.1288 0
M  V30 21 C -4.9551 1.2369 3.1886 0
M  V30 22 O -6.059 1.462 3.9568 0
M  V30 23 H 2.1471 0.4897 -2.1229 0
M  V30 24 H 0.6594 -0.4539 -1.7825 0
M  V30 25 H 1.4988 -0.9182 -3.9065 0
M  V30 26 H 3.8531 -3.5039 -1.383 0
M  V30 27 H 1.1681 -0.3309 0.6563 0
M  V30 28 H 2.0231 -2.3311 -5.8352 0
M  V30 29 H 4.3727 -4.9238 -3.3437 0
M  V30 30 H 1.2851 2.4653 -0.0055 0
M  V30 31 H 3.4624 1.5122 -0.1902 0
M  V30 32 H 3.6059 -0.0793 0.5707 0
M  V30 33 H 2.9201 1.2664 1.4779 0
M  V30 34 H 3.4577 -4.3377 -5.5769 0
M  V30 35 H -0.8038 2.6927 0.8189 0
M  V30 36 H -1.0889 -0.3683 0.8592 0
M  V30 37 H 0.5886 0.6779 2.6549 0
M  V30 38 H 1.0034 2.398 2.5125 0
M  V30 39 H -0.5782 1.9229 3.1156 0
M  V30 40 H -1.0595 1.0329 -1.1318 0
M  V30 41 H -2.3063 -0.849 2.8486 0
M  V30 42 H -3.4258 2.5799 0.4788 0
M  V30 43 H -4.2756 -0.5053 4.2745 0
M  V30 44 H -5.4007 2.921 1.9292 0
M  V30 45 H -6.1183 0.7595 4.6243 0
M  V30 END ATOM
M  V30 BEGIN BOND
M  V30 1 1 1 2
M  V30 2 1 1 3
M  V30 3 2 2 4
M  V30 4 1 2 5
M  V30 5 1 3 6
M  V30 6 1 4 7
M  V30 7 2 5 8
M  V30 8 1 6 9
M  V30 9 1 6 10
M  V30 10 2 7 11
M  V30 11 1 9 12
M  V30 12 1 12 13
M  V30 13 1 12 14
M  V30 14 1 13 15
M  V30 15 1 13 16
M  V30 16 2 16 17
M  V30 17 1 16 18
M  V30 18 1 17 19
M  V30 19 2 18 20
M  V30 20 2 19 21
M  V30 21 1 21 22
M  V30 22 1 8 11
M  V30 23 1 20 21
M  V30 24 1 3 23
M  V30 25 1 3 24
M  V30 26 1 4 25
M  V30 27 1 5 26
M  V30 28 1 6 27
M  V30 29 1 7 28
M  V30 30 1 8 29
M  V30 31 1 9 30
M  V30 32 1 10 31
M  V30 33 1 10 32
M  V30 34 1 10 33
M  V30 35 1 11 34
M  V30 36 1 12 35
M  V30 37 1 13 36
M  V30 38 1 14 37
M  V30 39 1 14 38
M  V30 40 1 14 39
M  V30 41 1 15 40
M  V30 42 1 17 41
M  V30 43 1 18 42
M  V30 44 1 19 43
M  V30 45 1 20 44
M  V30 46 1 22 45
M  V30 END BOND
M  V30 END CTAB
M  END
>  <Column 1>
2980

>  <level_0>
5122

>  <index>
5123

>  <Unnamed: 0>
5123

>  <NO.>
5135

>  <Name>
isoxsuprine

>  <IUPAC_name>
4-[1-hydroxy-2-(1-phenoxypropan-2-ylamino)propyl]phenol

>  <SMILES>
CC(COc1ccccc1)NC(C)C(O)c1ccc(O)cc1

>  <CID>
3783

>  <logBB>


>  <BBB+/BBB->
BBB-

>  <Inchi>
InChI=1S/C18H23NO3/c1-13(12-22-17-6-4-3-5-7-17)19-14(2)18(21)15-8-10-16(20)11-9-15/h3-11-13-14-18-21H-12H2-1-2H3

>  <threshold>


>  <reference>
R14|

>  <group>
C

>  <Class>
-1

>  <ABC>
16.62

>  <ABCGG>
13.6

>  <nAcid>
0

>  <nBase>
1

>  <nAromAtom>
12

>  <nAromBond>
12

>  <nAtom>
45

>  <nHeavyAtom>
22

>  <nSpiro>
0

>  <nBridgehead>
0

>  <nHetero>
4

>  <nN>
1

>  <nO>
3

>  <nF>
0

>  <BalabanJ>
1.65

>  <BertzCT>
556.3

>  <nBonds>
46

>  <nBondsO>
23

>  <nBondsS>
34

>  <nBondsD>
0

>  <nBondsT>
0

>  <nBondsA>
12

>  <nBondsM>
12

>  <nBondsKS>
40

>  <nBondsKD>
6

>  <RNCG>
0.23

>  <RPCG>
0.14

>  <FCSP3>
0.33

>  <SZ>
27

>  <Sm>
25.09

>  <Sv>
27.13

>  <Sse>
44.87

>  <Sp>
29.28

>  <Si>
50.69

>  <MZ>
0.6

>  <Mm>
0.56

>  <Mv>
0.6

>  <Mse>
1

>  <Mp>
0.65

>  <Mi>
1.13

>  <NsCH3>
2

>  <NdCH2>
0

>  <NssCH2>
1

>  <NtCH>
0

>  <NdsCH>
0

>  <NaaCH>
9

>  <NsssCH>
3

>  <NddC>
0

>  <NtsC>
0

>  <NdssC>
0

>  <NaasC>
3

>  <NaaaC>
0

>  <NssssC>
0

>  <NsNH3>
0

>  <NsNH2>
0

>  <NssNH2>
0

>  <NdNH>
0

>  <NssNH>
1

>  <NaaNH>
0

>  <NtN>
0

>  <NsssNH>
0

>  <NdsN>
0

>  <NaaN>
0

>  <NsssN>
0

>  <NddsN>
0

>  <NaasN>
0

>  <NssssN>
0

>  <NsOH>
2

>  <NdO>
0

>  <NssO>
1

>  <NaaO>
0

>  <NsF>
0

>  <NsSiH3>
0

>  <NssSiH2>
0

>  <NsssSiH>
0

>  <NssssSi>
0

>  <NsPH2>
0

>  <NssPH>
0

>  <NsssP>
0

>  <NdsssP>
0

>  <NsssssP>
0

>  <NsSH>
0

>  <NdS>
0

>  <NssS>
0

>  <NaaS>
0

>  <NdssS>
0

>  <NddssS>
0

>  <NsCl>
0

>  <NsBr>
0

>  <NsI>
0

>  <fragCpx>
67.04

>  <fMF>
0.4

>  <nHBAcc>
4

>  <nHBDon>
3

>  <Kier1>
18.34

>  <Kier2>
9.33

>  <Lipinski>
1

>  <GhoseFilter>
1

>  <FilterItLogS>
-3.51

>  <VMcGowan>
244.55

>  <LabuteASA>
130.93

>  <PEOE_VSA1>
20.27

>  <PEOE_VSA2>
0

>  <PEOE_VSA3>
0

>  <PEOE_VSA4>
0

>  <PEOE_VSA5>
0

>  <PEOE_VSA6>
30.33

>  <PEOE_VSA7>
43.68

>  <PEOE_VSA8>
12.08

>  <PEOE_VSA9>
6.1

>  <PEOE_VSA10>
18.11

>  <PEOE_VSA11>
0

>  <PEOE_VSA12>
0

>  <PEOE_VSA13>
0

>  <SMR_VSA1>
14.95

>  <SMR_VSA2>
0

>  <SMR_VSA3>
5.32

>  <SMR_VSA4>
0

>  <SMR_VSA5>
32.04

>  <SMR_VSA6>
6.61

>  <SMR_VSA7>
60.16

>  <SMR_VSA8>
0

>  <SMR_VSA9>
11.5

>  <SlogP_VSA1>
10.05

>  <SlogP_VSA2>
28.9

>  <SlogP_VSA3>
0

>  <SlogP_VSA4>
0

>  <SlogP_VSA5>
25.51

>  <SlogP_VSA6>
54.6

>  <SlogP_VSA7>
0

>  <SlogP_VSA8>
0

>  <SlogP_VSA9>
0

>  <SlogP_VSA10>
0

>  <SlogP_VSA11>
11.5

>  <EState_VSA1>
6.1

>  <EState_VSA2>
17.83

>  <EState_VSA3>
6.61

>  <EState_VSA4>
11.31

>  <EState_VSA5>
0

>  <EState_VSA6>
24.27

>  <EState_VSA7>
44.18

>  <EState_VSA8>
5.32

>  <EState_VSA9>
4.74

>  <EState_VSA10>
10.21

>  <VSA_EState1>
5.69

>  <VSA_EState2>
0

>  <VSA_EState3>
22.94

>  <VSA_EState4>
0.77

>  <VSA_EState5>
1.03

>  <VSA_EState6>
16.23

>  <VSA_EState7>
-0.64

>  <VSA_EState8>
4.47

>  <VSA_EState9>
0

>  <apol>
48.9

>  <bpol>
25.38

>  <nRing>
2

>  <nHRing>
0

>  <naRing>
2

>  <naHRing>
0

>  <nARing 2>
0

>  <nAHRing 2>
0

>  <nFRing>
0

>  <nFHRing>
0

>  <nFaRing>
0

>  <nFaHRing>
0

>  <nFARing 2>
0

>  <nFAHRing 2>
0

>  <nRot>
7

>  <SLogP>
2.87

>  <SMR>
87.06

>  <TopoPSA(NO)>
61.72

>  <TopoPSA>
61.72

>  <JGI1>
0.2

>  <JGI2>
0.08

>  <JGI3>
0.04

>  <JGI4>
0.04

>  <JGI5>
0.03

>  <Diameter>
14

>  <Radius>
7

>  <TMWC10>
116.41

>  <TSRW10>
55.29

>  <MW>
301.17

>  <AMW>
6.69

>  <WPath>
1247

>  <WPol>
29

>  <Zagreb1>
106

>  <Zagreb2>
118

>  <mZagreb2>
4.97

>  <yes>


>  <nAR-cont>
0.336376

>  <nHA-cont>
0.983774276

>  <MWHBN>
0.403359403

>  <MWHBN-cont>
0.462849239

>  <TPSA-cont>
0.569156074

>  <pka_cont>
0.97

>  <yes.1>


>  <BBB_SCORE>
3.637736283

>  <MMFF94 Energy>
81.655

$$$$
Compound 2420
Actelion Java MolfileCreator 2.0

  0  0  0  0  0  0              0 V3000
M  V30 BEGIN CTAB
M  V30 COUNTS 45 47 0 0 0
M  V30 BEGIN ATOM
M  V30 1 O 1.9838 0.6345 -5.5625 0
M  V30 2 C 0.9064 0.5543 -4.7363 0
M  V30 3 C 1.3333 0.8024 -6.8393 0
M  V30 4 C -0.2841 0.6591 -5.4148 0
M  V30 5 C 0.9519 0.3869 -3.3681 0
M  V30 6 O -0.1067 0.8189 -6.7535 0
M  V30 7 C -1.4966 0.6015 -4.7639 0
M  V30 8 C -0.2641 0.3261 -2.6673 0
M  V30 9 C -1.4831 0.4322 -3.3755 0
M  V30 10 C -0.2679 0.1473 -1.1648 0
M  V30 11 C 0.2141 1.3949 -0.3847 0
M  V30 12 N 0.3188 1.1423 1.064 0
M  V30 13 C -0.766 2.5628 -0.5522 0
M  V30 14 C 1.521 0.3765 1.4267 0
M  V30 15 C 1.666 0.1642 2.9547 0
M  V30 16 O 2.907 -0.498 3.2204 0
M  V30 17 C 0.5363 -0.6501 3.5567 0
M  V30 18 C 0.4268 -2.0287 3.3063 0
M  V30 19 C -0.4318 -0.0263 4.36 0
M  V30 20 C -0.6269 -2.7593 3.8537 0
M  V30 21 C -1.4869 -0.762 4.9065 0
M  V30 22 O -0.7354 -4.1001 3.6128 0
M  V30 23 C -1.5805 -2.1277 4.651 0
M  V30 24 O -2.6068 -2.8605 5.1774 0
M  V30 25 H 1.6357 -0.0202 -7.4974 0
M  V30 26 H 1.6688 1.7476 -7.2817 0
M  V30 27 H 1.9066 0.3044 -2.8593 0
M  V30 28 H -2.4286 0.6848 -5.3112 0
M  V30 29 H -2.431 0.3856 -2.8422 0
M  V30 30 H 0.3703 -0.7169 -0.9443 0
M  V30 31 H -1.2735 -0.1373 -0.8273 0
M  V30 32 H 1.1873 1.7299 -0.7653 0
M  V30 33 H -0.5127 0.6459 1.3893 0
M  V30 34 H -1.7763 2.2916 -0.225 0
M  V30 35 H -0.4435 3.4315 0.0337 0
M  V30 36 H -0.8231 2.8858 -1.5967 0
M  V30 37 H 2.4152 0.9067 1.0746 0
M  V30 38 H 1.5292 -0.5996 0.9282 0
M  V30 39 H 1.7267 1.1417 3.449 0
M  V30 40 H 2.8758 -0.7849 4.15 0
M  V30 41 H 1.1712 -2.5184 2.6834 0
M  V30 42 H -0.3738 1.0427 4.5588 0
M  V30 43 H -2.2229 -0.2548 5.5228 0
M  V30 44 H 0.0094 -4.3861 3.0627 0
M  V30 45 H -3.1712 -2.2802 5.7103 0
M  V30 END ATOM
M  V30 BEGIN BOND
M  V30 1 1 1 2
M  V30 2 1 1 3
M  V30 3 2 2 4
M  V30 4 1 2 5
M  V30 5 1 3 6
M  V30 6 1 4 7
M  V30 7 2 5 8
M  V30 8 2 7 9
M  V30 9 1 8 10
M  V30 10 1 10 11
M  V30 11 1 11 12
M  V30 12 1 11 13
M  V30 13 1 12 14
M  V30 14 1 14 15
M  V30 15 1 15 16
M  V30 16 1 15 17
M  V30 17 2 17 18
M  V30 18 1 17 19
M  V30 19 1 18 20
M  V30 20 2 19 21
M  V30 21 1 20 22
M  V30 22 2 20 23
M  V30 23 1 23 24
M  V30 24 1 4 6
M  V30 25 1 8 9
M  V30 26 1 21 23
M  V30 27 1 3 25
M  V30 28 1 3 26
M  V30 29 1 5 27
M  V30 30 1 7 28
M  V30 31 1 9 29
M  V30 32 1 10 30
M  V30 33 1 10 31
M  V30 34 1 11 32
M  V30 35 1 12 33
M  V30 36 1 13 34
M  V30 37 1 13 35
M  V30 38 1 13 36
M  V30 39 1 14 37
M  V30 40 1 14 38
M  V30 41 1 15 39
M  V30 42 1 16 40
M  V30 43 1 18 41
M  V30 44 1 19 42
M  V30 45 1 21 43
M  V30 46 1 22 44
M  V30 47 1 24 45
M  V30 END BOND
M  V30 END CTAB
M  END
>  <Column 1>
2981

>  <level_0>
5123

>  <index>
5124

>  <Unnamed: 0>
5124

>  <NO.>
5136

>  <Name>
protokylol hydrochloride

>  <IUPAC_name>
4-[2-[1-(1-3-benzodioxol-5-yl)propan-2-ylamino]-1-hydroxyethyl]benzene-1-2-diol

>  <SMILES>
CC(Cc1ccc2c(c1)OCO2)NCC(O)c1ccc(O)c(O)c1

>  <CID>
4969

>  <logBB>


>  <BBB+/BBB->
BBB-

>  <Inchi>
InChI=1S/C18H21NO5/c1-11(6-12-2-5-17-18(7-12)24-10-23-17)19-9-16(22)13-3-4-14(20)15(21)8-13/h2-5-7-8-11-16-19-22H-6-9-10H2-1H3

>  <threshold>


>  <reference>
R14|

>  <group>
C

>  <Class>
-1

>  <ABC>
18.7

>  <ABCGG>
14.97

>  <nAcid>
0

>  <nBase>
1

>  <nAromAtom>
12

>  <nAromBond>
12

>  <nAtom>
45

>  <nHeavyAtom>
24

>  <nSpiro>
0

>  <nBridgehead>
0

>  <nHetero>
6

>  <nN>
1

>  <nO>
5

>  <nF>
0

>  <BalabanJ>
1.35

>  <BertzCT>
718.55

>  <nBonds>
47

>  <nBondsO>
26

>  <nBondsS>
35

>  <nBondsD>
0

>  <nBondsT>
0

>  <nBondsA>
12

>  <nBondsM>
12

>  <nBondsKS>
41

>  <nBondsKD>
6

>  <RNCG>
0.17

>  <RPCG>
0.1

>  <FCSP3>
0.33

>  <SZ>
29.33

>  <Sm>
27.59

>  <Sv>
28.02

>  <Sse>
45.64

>  <Sp>
29.44

>  <Si>
50.7

>  <MZ>
0.65

>  <Mm>
0.61

>  <Mv>
0.62

>  <Mse>
1.01

>  <Mp>
0.65

>  <Mi>
1.13

>  <NsCH3>
1

>  <NdCH2>
0

>  <NssCH2>
3

>  <NtCH>
0

>  <NdsCH>
0

>  <NaaCH>
6

>  <NsssCH>
2

>  <NddC>
0

>  <NtsC>
0

>  <NdssC>
0

>  <NaasC>
6

>  <NaaaC>
0

>  <NssssC>
0

>  <NsNH3>
0

>  <NsNH2>
0

>  <NssNH2>
0

>  <NdNH>
0

>  <NssNH>
1

>  <NaaNH>
0

>  <NtN>
0

>  <NsssNH>
0

>  <NdsN>
0

>  <NaaN>
0

>  <NsssN>
0

>  <NddsN>
0

>  <NaasN>
0

>  <NssssN>
0

>  <NsOH>
3

>  <NdO>
0

>  <NssO>
2

>  <NaaO>
0

>  <NsF>
0

>  <NsSiH3>
0

>  <NssSiH2>
0

>  <NsssSiH>
0

>  <NssssSi>
0

>  <NsPH2>
0

>  <NssPH>
0

>  <NsssP>
0

>  <NdsssP>
0

>  <NsssssP>
0

>  <NsSH>
0

>  <NdS>
0

>  <NssS>
0

>  <NaaS>
0

>  <NdssS>
0

>  <NddssS>
0

>  <NsCl>
0

>  <NsBr>
0

>  <NsI>
0

>  <fragCpx>
124.06

>  <fMF>
0.44

>  <nHBAcc>
6

>  <nHBDon>
4

>  <Kier1>
18.78

>  <Kier2>
8.59

>  <Lipinski>
1

>  <GhoseFilter>
1

>  <FilterItLogS>
-3.35

>  <VMcGowan>
245.43

>  <LabuteASA>
139.83

>  <PEOE_VSA1>
30.11

>  <PEOE_VSA2>
0

>  <PEOE_VSA3>
0

>  <PEOE_VSA4>
0

>  <PEOE_VSA5>
0

>  <PEOE_VSA6>
12.13

>  <PEOE_VSA7>
48.74

>  <PEOE_VSA8>
12.59

>  <PEOE_VSA9>
6.1

>  <PEOE_VSA10>
0

>  <PEOE_VSA11>
23

>  <PEOE_VSA12>
6.79

>  <PEOE_VSA13>
0

>  <SMR_VSA1>
24.79

>  <SMR_VSA2>
0

>  <SMR_VSA3>
5.32

>  <SMR_VSA4>
0

>  <SMR_VSA5>
25.49

>  <SMR_VSA6>
13.34

>  <SMR_VSA7>
47.53

>  <SMR_VSA8>
0

>  <SMR_VSA9>
23

>  <SlogP_VSA1>
14.79

>  <SlogP_VSA2>
34.7

>  <SlogP_VSA3>
6.42

>  <SlogP_VSA4>
0

>  <SlogP_VSA5>
24.15

>  <SlogP_VSA6>
36.4

>  <SlogP_VSA7>
0

>  <SlogP_VSA8>
0

>  <SlogP_VSA9>
0

>  <SlogP_VSA10>
0

>  <SlogP_VSA11>
23

>  <EState_VSA1>
6.1

>  <EState_VSA2>
24.33

>  <EState_VSA3>
12.11

>  <EState_VSA4>
23.48

>  <EState_VSA5>
12.13

>  <EState_VSA6>
6.07

>  <EState_VSA7>
25.12

>  <EState_VSA8>
5.32

>  <EState_VSA9>
9.47

>  <EState_VSA10>
15.32

>  <VSA_EState1>
10.67

>  <VSA_EState2>
0

>  <VSA_EState3>
32.25

>  <VSA_EState4>
1.67

>  <VSA_EState5>
1.09

>  <VSA_EState6>
10.33

>  <VSA_EState7>
0.01

>  <VSA_EState8>
2.64

>  <VSA_EState9>
0

>  <apol>
49.17

>  <bpol>
25.11

>  <nRing>
3

>  <nHRing>
1

>  <naRing>
2

>  <naHRing>
0

>  <nARing 2>
1

>  <nAHRing 2>
1

>  <nFRing>
1

>  <nFHRing>
1

>  <nFaRing>
0

>  <nFaHRing>
0

>  <nFARing 2>
1

>  <nFAHRing 2>
1

>  <nRot>
6

>  <SLogP>
2.08

>  <SMR>
88.47

>  <TopoPSA(NO)>
91.18

>  <TopoPSA>
91.18

>  <JGI1>
0.21

>  <JGI2>
0.09

>  <JGI3>
0.04

>  <JGI4>
0.05

>  <JGI5>
0.03

>  <Diameter>
14

>  <Radius>
7

>  <TMWC10>
124.01

>  <TSRW10>
71.91

>  <MW>
331.14

>  <AMW>
7.36

>  <WPath>
1571

>  <WPol>
34

>  <Zagreb1>
124

>  <Zagreb2>
143

>  <mZagreb2>
5.25

>  <yes>


>  <nAR-cont>
0.816016

>  <nHA-cont>
0.94700071

>  <MWHBN>
0.549533507

>  <MWHBN-cont>
0

>  <TPSA-cont>
0.363506981

>  <pka_cont>
0.97

>  <yes.1>


>  <BBB_SCORE>
2.975030671

>  <MMFF94 Energy>
82.096

$$$$
Compound 2421
Actelion Java MolfileCreator 2.0

  0  0  0  0  0  0              0 V3000
M  V30 BEGIN CTAB
M  V30 COUNTS 45 46 0 0 0
M  V30 BEGIN ATOM
M  V30 1 F -1.3575 -1.9168 4.7974 0
M  V30 2 C -1.0266 -3.1603 4.3469 0
M  V30 3 F -1.367 -4.0163 5.3525 0
M  V30 4 F 0.333 -3.1855 4.2829 0
M  V30 5 C -1.6758 -3.5126 3.0323 0
M  V30 6 C -2.0646 -2.5053 2.1339 0
M  V30 7 C -1.8677 -4.854 2.6722 0
M  V30 8 C -2.646 -2.8209 0.8978 0
M  V30 9 C -2.4476 -5.1795 1.4471 0
M  V30 10 C -2.8355 -4.1694 0.5666 0
M  V30 11 C -3.0654 -1.7315 -0.0653 0
M  V30 12 C -1.9266 -1.0028 -0.8309 0 CFG=1
M  V30 13 N -1.1601 -0.1227 0.0726 0
M  V30 14 C -1.0378 -1.9991 -1.5834 0
M  V30 15 C -0.2365 0.7726 -0.6345 0
M  V30 16 C 0.4897 1.7103 0.3413 0
M  V30 17 O 1.1891 2.7468 -0.3703 0
M  V30 18 C 2.4033 2.4026 -0.8659 0
M  V30 19 O 2.9269 1.304 -0.7772 0
M  V30 20 C 3.0329 3.5583 -1.5611 0
M  V30 21 C 4.2861 3.3667 -2.1594 0
M  V30 22 C 2.4208 4.8173 -1.636 0
M  V30 23 C 4.9181 4.4193 -2.8245 0
M  V30 24 C 3.0566 5.8681 -2.3024 0
M  V30 25 C 4.3028 5.6683 -2.8954 0
M  V30 26 H -1.9032 -1.4617 2.4016 0
M  V30 27 H -1.5638 -5.6515 3.3483 0
M  V30 28 H -2.5942 -6.2218 1.175 0
M  V30 29 H -3.2821 -4.4444 -0.3864 0
M  V30 30 H -3.6711 -0.9981 0.4849 0
M  V30 31 H -3.754 -2.1611 -0.806 0
M  V30 32 H -2.4256 -0.3665 -1.5744 0
M  V30 33 H -1.8139 0.441 0.616 0
M  V30 34 H -0.392 -1.492 -2.3072 0
M  V30 35 H -0.3959 -2.5669 -0.9014 0
M  V30 36 H -1.6482 -2.7123 -2.1484 0
M  V30 37 H 0.5152 0.2015 -1.1879 0
M  V30 38 H -0.7813 1.3783 -1.3691 0
M  V30 39 H -0.2371 2.2207 0.9835 0
M  V30 40 H 1.1706 1.161 1.0032 0
M  V30 41 H 4.7754 2.3956 -2.1089 0
M  V30 42 H 1.4507 4.9964 -1.1795 0
M  V30 43 H 5.8902 4.2637 -3.2858 0
M  V30 44 H 2.5794 6.8437 -2.3579 0
M  V30 45 H 4.796 6.4877 -3.4128 0
M  V30 END ATOM
M  V30 BEGIN BOND
M  V30 1 1 1 2
M  V30 2 1 2 3
M  V30 3 1 2 4
M  V30 4 1 2 5
M  V30 5 2 5 6
M  V30 6 1 5 7
M  V30 7 1 6 8
M  V30 8 2 7 9
M  V30 9 2 8 10
M  V30 10 1 8 11
M  V30 11 1 11 12
M  V30 12 1 12 13
M  V30 13 1 12 14
M  V30 14 1 13 15
M  V30 15 1 15 16
M  V30 16 1 16 17
M  V30 17 1 17 18
M  V30 18 2 18 19
M  V30 19 1 18 20
M  V30 20 2 20 21
M  V30 21 1 20 22
M  V30 22 1 21 23
M  V30 23 2 22 24
M  V30 24 2 23 25
M  V30 25 1 9 10
M  V30 26 1 24 25
M  V30 27 1 6 26
M  V30 28 1 7 27
M  V30 29 1 9 28
M  V30 30 1 10 29
M  V30 31 1 11 30
M  V30 32 1 11 31
M  V30 33 1 12 32
M  V30 34 1 13 33
M  V30 35 1 14 34
M  V30 36 1 14 35
M  V30 37 1 14 36
M  V30 38 1 15 37
M  V30 39 1 15 38
M  V30 40 1 16 39
M  V30 41 1 16 40
M  V30 42 1 21 41
M  V30 43 1 22 42
M  V30 44 1 23 43
M  V30 45 1 24 44
M  V30 46 1 25 45
M  V30 END BOND
M  V30 BEGIN COLLECTION
M  V30 MDLV30/STERAC1 ATOMS=(1 12)
M  V30 END COLLECTION
M  V30 END CTAB
M  END
>  <Column 1>
2982

>  <level_0>
5124

>  <index>
5125

>  <Unnamed: 0>
5125

>  <NO.>
5137

>  <Name>
benfluorex

>  <IUPAC_name>
2-[1-[3-(trifluoromethyl)phenyl]propan-2-ylamino]ethyl benzoate

>  <SMILES>
CC(Cc1cccc(C(F)(F)F)c1)NCCOC(=O)c1ccccc1

>  <CID>
2318

>  <logBB>


>  <BBB+/BBB->
BBB-

>  <Inchi>
InChI=1S/C19H20F3NO2/c1-14(12-15-6-5-9-17(13-15)19(20-21)22)23-10-11-25-18(24)16-7-3-2-4-8-16/h2-9-13-14-23H-10-12H2-1H3

>  <threshold>


>  <reference>
R14|

>  <group>
C

>  <Class>
-1

>  <ABC>
18.98

>  <ABCGG>
15.05

>  <nAcid>
0

>  <nBase>
1

>  <nAromAtom>
12

>  <nAromBond>
12

>  <nAtom>
45

>  <nHeavyAtom>
25

>  <nSpiro>
0

>  <nBridgehead>
0

>  <nHetero>
6

>  <nN>
1

>  <nO>
2

>  <nF>
3

>  <BalabanJ>
1.58

>  <BertzCT>
686.57

>  <nBonds>
46

>  <nBondsO>
26

>  <nBondsS>
33

>  <nBondsD>
1

>  <nBondsT>
0

>  <nBondsA>
12

>  <nBondsM>
13

>  <nBondsKS>
39

>  <nBondsKD>
7

>  <RNCG>
0.22

>  <RPCG>
0.2

>  <FCSP3>
0.32

>  <SZ>
30.67

>  <Sm>
29.25

>  <Sv>
28.55

>  <Sse>
46.07

>  <Sp>
29.61

>  <Si>
51.5

>  <MZ>
0.68

>  <Mm>
0.65

>  <Mv>
0.63

>  <Mse>
1.02

>  <Mp>
0.66

>  <Mi>
1.14

>  <NsCH3>
1

>  <NdCH2>
0

>  <NssCH2>
3

>  <NtCH>
0

>  <NdsCH>
0

>  <NaaCH>
9

>  <NsssCH>
1

>  <NddC>
0

>  <NtsC>
0

>  <NdssC>
1

>  <NaasC>
3

>  <NaaaC>
0

>  <NssssC>
1

>  <NsNH3>
0

>  <NsNH2>
0

>  <NssNH2>
0

>  <NdNH>
0

>  <NssNH>
1

>  <NaaNH>
0

>  <NtN>
0

>  <NsssNH>
0

>  <NdsN>
0

>  <NaaN>
0

>  <NsssN>
0

>  <NddsN>
0

>  <NaasN>
0

>  <NssssN>
0

>  <NsOH>
0

>  <NdO>
1

>  <NssO>
1

>  <NaaO>
0

>  <NsF>
3

>  <NsSiH3>
0

>  <NssSiH2>
0

>  <NsssSiH>
0

>  <NssssSi>
0

>  <NsPH2>
0

>  <NssPH>
0

>  <NsssP>
0

>  <NdsssP>
0

>  <NsssssP>
0

>  <NsSH>
0

>  <NdS>
0

>  <NssS>
0

>  <NaaS>
0

>  <NdssS>
0

>  <NddssS>
0

>  <NsCl>
0

>  <NsBr>
0

>  <NsI>
0

>  <fragCpx>
76.06

>  <fMF>
0.42

>  <nHBAcc>
3

>  <nHBDon>
1

>  <Kier1>
21.3

>  <Kier2>
10.36

>  <Lipinski>
1

>  <GhoseFilter>
1

>  <FilterItLogS>
-5.79

>  <VMcGowan>
253.75

>  <LabuteASA>
144.36

>  <PEOE_VSA1>
10.05

>  <PEOE_VSA2>
0

>  <PEOE_VSA3>
4.79

>  <PEOE_VSA4>
13.17

>  <PEOE_VSA5>
0

>  <PEOE_VSA6>
36.4

>  <PEOE_VSA7>
37.11

>  <PEOE_VSA8>
12.59

>  <PEOE_VSA9>
11.13

>  <PEOE_VSA10>
6.61

>  <PEOE_VSA11>
0

>  <PEOE_VSA12>
0

>  <PEOE_VSA13>
0

>  <SMR_VSA1>
22.7

>  <SMR_VSA2>
0

>  <SMR_VSA3>
5.32

>  <SMR_VSA4>
0

>  <SMR_VSA5>
25.56

>  <SMR_VSA6>
13.15

>  <SMR_VSA7>
71.29

>  <SMR_VSA8>
0

>  <SMR_VSA9>
0

>  <SlogP_VSA1>
5.32

>  <SlogP_VSA2>
25.16

>  <SlogP_VSA3>
17.33

>  <SlogP_VSA4>
0

>  <SlogP_VSA5>
28.41

>  <SlogP_VSA6>
54.6

>  <SlogP_VSA7>
0

>  <SlogP_VSA8>
0

>  <SlogP_VSA9>
0

>  <SlogP_VSA10>
13.17

>  <SlogP_VSA11>
0

>  <EState_VSA1>
17.71

>  <EState_VSA2>
12.65

>  <EState_VSA3>
24.09

>  <EState_VSA4>
12.13

>  <EState_VSA5>
6.07

>  <EState_VSA6>
30.33

>  <EState_VSA7>
12.99

>  <EState_VSA8>
5.32

>  <EState_VSA9>
4.74

>  <EState_VSA10>
17.97

>  <VSA_EState1>
43.26

>  <VSA_EState2>
11.76

>  <VSA_EState3>
3.14

>  <VSA_EState4>
0.45

>  <VSA_EState5>
-0.4

>  <VSA_EState6>
13.93

>  <VSA_EState7>
-3.88

>  <VSA_EState8>
2.5

>  <VSA_EState9>
0

>  <apol>
49.44

>  <bpol>
26.58

>  <nRing>
2

>  <nHRing>
0

>  <naRing>
2

>  <naHRing>
0

>  <nARing 2>
0

>  <nAHRing 2>
0

>  <nFRing>
0

>  <nFHRing>
0

>  <nFaRing>
0

>  <nFaHRing>
0

>  <nFARing 2>
0

>  <nFAHRing 2>
0

>  <nRot>
7

>  <SLogP>
4.08

>  <SMR>
89.34

>  <TopoPSA(NO)>
38.33

>  <TopoPSA>
38.33

>  <JGI1>
0.23

>  <JGI2>
0.08

>  <JGI3>
0.05

>  <JGI4>
0.03

>  <JGI5>
0.02

>  <Diameter>
15

>  <Radius>
8

>  <TMWC10>
123.91

>  <TSRW10>
59.11

>  <MW>
351.14

>  <AMW>
7.8

>  <WPath>
1878

>  <WPol>
33

>  <Zagreb1>
122

>  <Zagreb2>
135

>  <mZagreb2>
5.53

>  <yes>


>  <nAR-cont>
0.336376

>  <nHA-cont>
0.921834225

>  <MWHBN>
0.213461639

>  <MWHBN-cont>
0.998257156

>  <TPSA-cont>
0.732432798

>  <pka_cont>
0.97

>  <yes.1>


>  <BBB_SCORE>
4.705461556

>  <MMFF94 Energy>
104.54

$$$$
Compound 2422
Actelion Java MolfileCreator 2.0

  0  0  0  0  0  0              0 V3000
M  V30 BEGIN CTAB
M  V30 COUNTS 37 37 0 0 0
M  V30 BEGIN ATOM
M  V30 1 N -1.4777 3.8923 -1.0886 0
M  V30 2 C -0.5758 3.2248 -0.802 0
M  V30 3 N 0.5227 2.5362 -0.4983 0
M  V30 4 C 0.333 1.2591 0.0621 0
M  V30 5 N -0.8581 0.8054 0.1773 0
M  V30 6 N 1.4917 0.6696 0.4831 0
M  V30 7 C -1.1265 -0.5229 0.7348 0 CFG=2
M  V30 8 C 2.7749 0.6999 -0.094 0
M  V30 9 C -2.323 -1.1646 -0.0462 0
M  V30 10 C -1.3669 -0.3571 2.2382 0
M  V30 11 C 3.004 1.039 -1.4288 0
M  V30 12 C 3.8847 0.4277 0.7109 0
M  V30 13 C -3.6109 -0.3251 0.0564 0
M  V30 14 C -1.9461 -1.3002 -1.5385 0
M  V30 15 C -2.6191 -2.5794 0.4914 0
M  V30 16 C 4.3077 1.0774 -1.898 0
M  V30 17 C 5.1523 0.4968 0.1546 0
M  V30 18 N 5.3864 0.8167 -1.133 0
M  V30 19 H 1.4347 2.9767 -0.4081 0
M  V30 20 H 1.3887 -0.0227 1.2116 0
M  V30 21 H -0.2636 -1.188 0.6004 0
M  V30 22 H -1.5525 -1.3173 2.727 0
M  V30 23 H -0.4892 0.0865 2.7214 0
M  V30 24 H -2.2105 0.3087 2.4452 0
M  V30 25 H 2.1899 1.2417 -2.1172 0
M  V30 26 H 3.7771 0.1765 1.7607 0
M  V30 27 H -3.4616 0.6929 -0.3183 0
M  V30 28 H -3.9686 -0.256 1.0888 0
M  V30 29 H -4.4181 -0.7742 -0.5341 0
M  V30 30 H -1.7915 -0.3228 -2.0083 0
M  V30 31 H -1.0255 -1.8817 -1.6611 0
M  V30 32 H -2.737 -1.8088 -2.1018 0
M  V30 33 H -1.7181 -3.2026 0.481 0
M  V30 34 H -3.0015 -2.5535 1.5168 0
M  V30 35 H -3.377 -3.0832 -0.1197 0
M  V30 36 H 4.5224 1.3239 -2.9343 0
M  V30 37 H 6.0382 0.2944 0.7501 0
M  V30 END ATOM
M  V30 BEGIN BOND
M  V30 1 3 1 2
M  V30 2 1 2 3
M  V30 3 1 3 4
M  V30 4 2 4 5
M  V30 5 1 4 6
M  V30 6 1 5 7
M  V30 7 1 6 8
M  V30 8 1 7 9
M  V30 9 1 7 10
M  V30 10 2 8 11
M  V30 11 1 8 12
M  V30 12 1 9 13
M  V30 13 1 9 14
M  V30 14 1 9 15
M  V30 15 1 11 16
M  V30 16 2 12 17
M  V30 17 2 16 18
M  V30 18 1 17 18
M  V30 19 1 3 19
M  V30 20 1 6 20
M  V30 21 1 7 21
M  V30 22 1 10 22
M  V30 23 1 10 23
M  V30 24 1 10 24
M  V30 25 1 11 25
M  V30 26 1 12 26
M  V30 27 1 13 27
M  V30 28 1 13 28
M  V30 29 1 13 29
M  V30 30 1 14 30
M  V30 31 1 14 31
M  V30 32 1 14 32
M  V30 33 1 15 33
M  V30 34 1 15 34
M  V30 35 1 15 35
M  V30 36 1 16 36
M  V30 37 1 17 37
M  V30 END BOND
M  V30 BEGIN COLLECTION
M  V30 MDLV30/STERAC1 ATOMS=(1 7)
M  V30 END COLLECTION
M  V30 END CTAB
M  END
>  <Column 1>
2984

>  <level_0>
5126

>  <index>
5127

>  <Unnamed: 0>
5127

>  <NO.>
5139

>  <Name>
pinacidil

>  <IUPAC_name>
1-cyano-2-(3-3-dimethylbutan-2-yl)-3-pyridin-4-ylguanidine

>  <SMILES>
CC(N=C(NC#N)Nc1ccncc1)C(C)(C)C

>  <CID>
4826

>  <logBB>


>  <BBB+/BBB->
BBB-

>  <Inchi>
InChI=1S/C13H19N5/c1-10(13(2-3)4)17-12(16-9-14)18-11-5-7-15-8-6-11/h5-8-10H-1-4H3-(H2-15-16-17-18)

>  <threshold>


>  <reference>
R14|R23|

>  <group>
C

>  <Class>
-1

>  <ABC>
13.25

>  <ABCGG>
12.12

>  <nAcid>
0

>  <nBase>
3

>  <nAromAtom>
6

>  <nAromBond>
6

>  <nAtom>
37

>  <nHeavyAtom>
18

>  <nSpiro>
0

>  <nBridgehead>
0

>  <nHetero>
5

>  <nN>
5

>  <nO>
0

>  <nF>
0

>  <BalabanJ>
2.43

>  <BertzCT>
438.69

>  <nBonds>
37

>  <nBondsO>
18

>  <nBondsS>
29

>  <nBondsD>
1

>  <nBondsT>
1

>  <nBondsA>
6

>  <nBondsM>
8

>  <nBondsKS>
32

>  <nBondsKD>
4

>  <RNCG>
0.21

>  <RPCG>
0.14

>  <FCSP3>
0.46

>  <SZ>
22

>  <Sm>
20.43

>  <Sv>
21.94

>  <Sse>
36.75

>  <Sp>
23.88

>  <Si>
42.4

>  <MZ>
0.59

>  <Mm>
0.55

>  <Mv>
0.59

>  <Mse>
0.99

>  <Mp>
0.65

>  <Mi>
1.15

>  <NsCH3>
4

>  <NdCH2>
0

>  <NssCH2>
0

>  <NtCH>
0

>  <NdsCH>
0

>  <NaaCH>
4

>  <NsssCH>
1

>  <NddC>
0

>  <NtsC>
1

>  <NdssC>
1

>  <NaasC>
1

>  <NaaaC>
0

>  <NssssC>
1

>  <NsNH3>
0

>  <NsNH2>
0

>  <NssNH2>
0

>  <NdNH>
0

>  <NssNH>
2

>  <NaaNH>
0

>  <NtN>
1

>  <NsssNH>
0

>  <NdsN>
1

>  <NaaN>
1

>  <NsssN>
0

>  <NddsN>
0

>  <NaasN>
0

>  <NssssN>
0

>  <NsOH>
0

>  <NdO>
0

>  <NssO>
0

>  <NaaO>
0

>  <NsF>
0

>  <NsSiH3>
0

>  <NssSiH2>
0

>  <NsssSiH>
0

>  <NssssSi>
0

>  <NsPH2>
0

>  <NssPH>
0

>  <NsssP>
0

>  <NdsssP>
0

>  <NsssssP>
0

>  <NsSH>
0

>  <NdS>
0

>  <NssS>
0

>  <NaaS>
0

>  <NdssS>
0

>  <NddssS>
0

>  <NsCl>
0

>  <NsBr>
0

>  <NsI>
0

>  <fragCpx>
18.05

>  <fMF>
0.16

>  <nHBAcc>
3

>  <nHBDon>
2

>  <Kier1>
16.06

>  <Kier2>
7.56

>  <Lipinski>
1

>  <GhoseFilter>
1

>  <FilterItLogS>
-3.35

>  <VMcGowan>
207.27

>  <LabuteASA>
107.96

>  <PEOE_VSA1>
5.32

>  <PEOE_VSA2>
10.3

>  <PEOE_VSA3>
4.99

>  <PEOE_VSA4>
5.26

>  <PEOE_VSA5>
0

>  <PEOE_VSA6>
20.77

>  <PEOE_VSA7>
24.47

>  <PEOE_VSA8>
18.08

>  <PEOE_VSA9>
6.04

>  <PEOE_VSA10>
0

>  <PEOE_VSA11>
6.19

>  <PEOE_VSA12>
5.96

>  <PEOE_VSA13>
0

>  <SMR_VSA1>
0

>  <SMR_VSA2>
5.26

>  <SMR_VSA3>
10.3

>  <SMR_VSA4>
10.41

>  <SMR_VSA5>
33.74

>  <SMR_VSA6>
5.32

>  <SMR_VSA7>
24.53

>  <SMR_VSA8>
0

>  <SMR_VSA9>
6.19

>  <SlogP_VSA1>
10.63

>  <SlogP_VSA2>
16.99

>  <SlogP_VSA3>
0

>  <SlogP_VSA4>
16.87

>  <SlogP_VSA5>
27.69

>  <SlogP_VSA6>
29.52

>  <SlogP_VSA7>
0

>  <SlogP_VSA8>
0

>  <SlogP_VSA9>
0

>  <SlogP_VSA10>
5.69

>  <SlogP_VSA11>
0

>  <EState_VSA1>
0

>  <EState_VSA2>
11.46

>  <EState_VSA3>
5.96

>  <EState_VSA4>
5.69

>  <EState_VSA5>
0

>  <EState_VSA6>
12.39

>  <EState_VSA7>
25.25

>  <EState_VSA8>
41.38

>  <EState_VSA9>
5.26

>  <EState_VSA10>
0

>  <VSA_EState1>
0

>  <VSA_EState2>
8.42

>  <VSA_EState3>
14.35

>  <VSA_EState4>
0.88

>  <VSA_EState5>
0.45

>  <VSA_EState6>
3.72

>  <VSA_EState7>
5.25

>  <VSA_EState8>
8.35

>  <VSA_EState9>
0

>  <apol>
39.88

>  <bpol>
23.05

>  <nRing>
1

>  <nHRing>
1

>  <naRing>
1

>  <naHRing>
1

>  <nARing 2>
0

>  <nAHRing 2>
0

>  <nFRing>
0

>  <nFHRing>
0

>  <nFaRing>
0

>  <nFaHRing>
0

>  <nFARing 2>
0

>  <nFAHRing 2>
0

>  <nRot>
2

>  <SLogP>
2.35

>  <SMR>
72.96

>  <TopoPSA(NO)>
73.1

>  <TopoPSA>
73.1

>  <JGI1>
0.28

>  <JGI2>
0.07

>  <JGI3>
0.04

>  <JGI4>
0.04

>  <JGI5>
0.02

>  <Diameter>
9

>  <Radius>
5

>  <TMWC10>
105.14

>  <TSRW10>
50.17

>  <MW>
245.16

>  <AMW>
6.63

>  <WPath>
651

>  <WPol>
22

>  <Zagreb1>
84

>  <Zagreb2>
91

>  <mZagreb2>
4.08

>  <yes>


>  <nAR-cont>
0.336376

>  <nHA-cont>
0.991161285

>  <MWHBN>
0.319334027

>  <MWHBN-cont>
0.779394414

>  <TPSA-cont>
0.489716608

>  <pka_cont>
0.97

>  <yes.1>


>  <BBB_SCORE>
3.961062122

>  <MMFF94 Energy>
-86.492

$$$$
Compound 2423
Actelion Java MolfileCreator 2.0

  0  0  0  0  0  0              0 V3000
M  V30 BEGIN CTAB
M  V30 COUNTS 42 43 0 0 0
M  V30 BEGIN ATOM
M  V30 1 O -3.6168 -4.7984 -4.4044 0
M  V30 2 C -2.9892 -3.8624 -3.6371 0
M  V30 3 C -2.085 -2.9613 -4.1878 0
M  V30 4 C -3.2813 -3.8351 -2.2801 0
M  V30 5 C -1.4644 -2.0192 -3.3629 0
M  V30 6 C -2.6611 -2.8934 -1.4569 0
M  V30 7 C -1.7449 -1.9707 -1.9859 0
M  V30 8 C -1.0365 -0.9521 -1.1068 0
M  V30 9 O -1.8813 -0.6198 -0.0036 0
M  V30 10 C 0.3798 -1.4531 -0.6589 0
M  V30 11 N 1.3938 -0.3894 -0.4566 0
M  V30 12 C 0.3339 -2.389 0.5552 0
M  V30 13 C 1.0851 0.6293 0.545 0
M  V30 14 C 2.3009 1.543 0.761 0
M  V30 15 C 2.0086 2.6202 1.7778 0
M  V30 16 C 1.5051 3.865 1.373 0
M  V30 17 C 2.2079 2.3766 3.1439 0
M  V30 18 C 1.2132 4.8527 2.3168 0
M  V30 19 C 1.9158 3.3632 4.0863 0
M  V30 20 C 1.4219 4.592 3.6669 0
M  V30 21 O 1.1499 5.5266 4.6217 0
M  V30 22 H -3.3279 -4.6882 -5.3245 0
M  V30 23 H -1.8512 -2.9759 -5.2473 0
M  V30 24 H -3.9913 -4.5422 -1.8611 0
M  V30 25 H -0.7572 -1.3195 -3.8027 0
M  V30 26 H -2.9015 -2.8794 -0.3956 0
M  V30 27 H -0.9279 -0.0338 -1.6981 0
M  V30 28 H -1.3636 -0.0856 0.6168 0
M  V30 29 H 0.7947 -2.0478 -1.4839 0
M  V30 30 H 1.5839 0.0647 -1.3506 0
M  V30 31 H -0.0911 -1.9081 1.4414 0
M  V30 32 H 1.3402 -2.7375 0.8142 0
M  V30 33 H -0.267 -3.2776 0.3375 0
M  V30 34 H 0.2374 1.2391 0.2129 0
M  V30 35 H 0.8157 0.1677 1.5009 0
M  V30 36 H 3.1655 0.9543 1.0944 0
M  V30 37 H 2.6002 2.0105 -0.1861 0
M  V30 38 H 1.3385 4.0736 0.3187 0
M  V30 39 H 2.5926 1.4172 3.4827 0
M  V30 40 H 0.8268 5.8098 1.9818 0
M  V30 41 H 2.0732 3.1734 5.1442 0
M  V30 42 H 0.8233 6.3296 4.1845 0
M  V30 END ATOM
M  V30 BEGIN BOND
M  V30 1 1 1 2
M  V30 2 2 2 3
M  V30 3 1 2 4
M  V30 4 1 3 5
M  V30 5 2 4 6
M  V30 6 2 5 7
M  V30 7 1 7 8
M  V30 8 1 8 9
M  V30 9 1 8 10
M  V30 10 1 10 11
M  V30 11 1 10 12
M  V30 12 1 11 13
M  V30 13 1 13 14
M  V30 14 1 14 15
M  V30 15 2 15 16
M  V30 16 1 15 17
M  V30 17 1 16 18
M  V30 18 2 17 19
M  V30 19 2 18 20
M  V30 20 1 20 21
M  V30 21 1 6 7
M  V30 22 1 19 20
M  V30 23 1 1 22
M  V30 24 1 3 23
M  V30 25 1 4 24
M  V30 26 1 5 25
M  V30 27 1 6 26
M  V30 28 1 8 27
M  V30 29 1 9 28
M  V30 30 1 10 29
M  V30 31 1 11 30
M  V30 32 1 12 31
M  V30 33 1 12 32
M  V30 34 1 12 33
M  V30 35 1 13 34
M  V30 36 1 13 35
M  V30 37 1 14 36
M  V30 38 1 14 37
M  V30 39 1 16 38
M  V30 40 1 17 39
M  V30 41 1 18 40
M  V30 42 1 19 41
M  V30 43 1 21 42
M  V30 END BOND
M  V30 END CTAB
M  END
>  <Column 1>
2985

>  <level_0>
5127

>  <index>
5128

>  <Unnamed: 0>
5128

>  <NO.>
5140

>  <Name>
ritodrine hydrochloride

>  <IUPAC_name>
4-[2-[[1-hydroxy-1-(4-hydroxyphenyl)propan-2-yl]amino]ethyl]phenol

>  <SMILES>
CC(NCCc1ccc(O)cc1)C(O)c1ccc(O)cc1

>  <CID>
31729

>  <logBB>


>  <BBB+/BBB->
BBB-

>  <Inchi>
InChI=1S/C17H21NO3/c1-12(17(21)14-4-8-16(20)9-5-14)18-11-10-13-2-6-15(19)7-3-13/h2-9-12-17-21H-10-11H2-1H3

>  <threshold>


>  <reference>
R14|

>  <group>
C

>  <Class>
-1

>  <ABC>
15.91

>  <ABCGG>
12.8

>  <nAcid>
0

>  <nBase>
1

>  <nAromAtom>
12

>  <nAromBond>
12

>  <nAtom>
42

>  <nHeavyAtom>
21

>  <nSpiro>
0

>  <nBridgehead>
0

>  <nHetero>
4

>  <nN>
1

>  <nO>
3

>  <nF>
0

>  <BalabanJ>
1.61

>  <BertzCT>
551.25

>  <nBonds>
43

>  <nBondsO>
22

>  <nBondsS>
31

>  <nBondsD>
0

>  <nBondsT>
0

>  <nBondsA>
12

>  <nBondsM>
12

>  <nBondsKS>
37

>  <nBondsKD>
6

>  <RNCG>
0.24

>  <RPCG>
0.14

>  <FCSP3>
0.29

>  <SZ>
25.67

>  <Sm>
23.92

>  <Sv>
25.59

>  <Sse>
41.98

>  <Sp>
27.48

>  <Si>
47.28

>  <MZ>
0.61

>  <Mm>
0.57

>  <Mv>
0.61

>  <Mse>
1

>  <Mp>
0.65

>  <Mi>
1.13

>  <NsCH3>
1

>  <NdCH2>
0

>  <NssCH2>
2

>  <NtCH>
0

>  <NdsCH>
0

>  <NaaCH>
8

>  <NsssCH>
2

>  <NddC>
0

>  <NtsC>
0

>  <NdssC>
0

>  <NaasC>
4

>  <NaaaC>
0

>  <NssssC>
0

>  <NsNH3>
0

>  <NsNH2>
0

>  <NssNH2>
0

>  <NdNH>
0

>  <NssNH>
1

>  <NaaNH>
0

>  <NtN>
0

>  <NsssNH>
0

>  <NdsN>
0

>  <NaaN>
0

>  <NsssN>
0

>  <NddsN>
0

>  <NaasN>
0

>  <NssssN>
0

>  <NsOH>
3

>  <NdO>
0

>  <NssO>
0

>  <NaaO>
0

>  <NsF>
0

>  <NsSiH3>
0

>  <NssSiH2>
0

>  <NsssSiH>
0

>  <NssssSi>
0

>  <NsPH2>
0

>  <NssPH>
0

>  <NsssP>
0

>  <NdsssP>
0

>  <NsssssP>
0

>  <NsSH>
0

>  <NdS>
0

>  <NssS>
0

>  <NaaS>
0

>  <NdssS>
0

>  <NddssS>
0

>  <NsCl>
0

>  <NsBr>
0

>  <NsI>
0

>  <fragCpx>
64.04

>  <fMF>
0.4

>  <nHBAcc>
4

>  <nHBDon>
4

>  <Kier1>
17.36

>  <Kier2>
8.59

>  <Lipinski>
1

>  <GhoseFilter>
1

>  <FilterItLogS>
-3.32

>  <VMcGowan>
230.46

>  <LabuteASA>
124.25

>  <PEOE_VSA1>
20.64

>  <PEOE_VSA2>
0

>  <PEOE_VSA3>
0

>  <PEOE_VSA4>
0

>  <PEOE_VSA5>
0

>  <PEOE_VSA6>
24.27

>  <PEOE_VSA7>
55.28

>  <PEOE_VSA8>
6.04

>  <PEOE_VSA9>
6.1

>  <PEOE_VSA10>
11.5

>  <PEOE_VSA11>
0

>  <PEOE_VSA12>
0

>  <PEOE_VSA13>
0

>  <SMR_VSA1>
15.32

>  <SMR_VSA2>
0

>  <SMR_VSA3>
5.32

>  <SMR_VSA4>
0

>  <SMR_VSA5>
25.49

>  <SMR_VSA6>
6.54

>  <SMR_VSA7>
59.66

>  <SMR_VSA8>
0

>  <SMR_VSA9>
11.5

>  <SlogP_VSA1>
5.32

>  <SlogP_VSA2>
27.91

>  <SlogP_VSA3>
6.42

>  <SlogP_VSA4>
0

>  <SlogP_VSA5>
24.15

>  <SlogP_VSA6>
48.53

>  <SlogP_VSA7>
0

>  <SlogP_VSA8>
0

>  <SlogP_VSA9>
0

>  <SlogP_VSA10>
0

>  <SlogP_VSA11>
11.5

>  <EState_VSA1>
6.1

>  <EState_VSA2>
17.54

>  <EState_VSA3>
0

>  <EState_VSA4>
24.09

>  <EState_VSA5>
0

>  <EState_VSA6>
36.4

>  <EState_VSA7>
19.06

>  <EState_VSA8>
5.32

>  <EState_VSA9>
0

>  <EState_VSA10>
15.32

>  <VSA_EState1>
0

>  <VSA_EState2>
0

>  <VSA_EState3>
31.99

>  <VSA_EState4>
1.91

>  <VSA_EState5>
0.46

>  <VSA_EState6>
13.61

>  <VSA_EState7>
0.21

>  <VSA_EState8>
2.66

>  <VSA_EState9>
0

>  <apol>
45.9

>  <bpol>
21.64

>  <nRing>
2

>  <nHRing>
0

>  <naRing>
2

>  <naHRing>
0

>  <nARing 2>
0

>  <nAHRing 2>
0

>  <nFRing>
0

>  <nFHRing>
0

>  <nFaRing>
0

>  <nFaHRing>
0

>  <nFARing 2>
0

>  <nFAHRing 2>
0

>  <nRot>
6

>  <SLogP>
2.35

>  <SMR>
82.34

>  <TopoPSA(NO)>
72.72

>  <TopoPSA>
72.72

>  <JGI1>
0.2

>  <JGI2>
0.09

>  <JGI3>
0.04

>  <JGI4>
0.04

>  <JGI5>
0.03

>  <Diameter>
14

>  <Radius>
7

>  <TMWC10>
114.13

>  <TSRW10>
54.15

>  <MW>
287.15

>  <AMW>
6.84

>  <WPath>
1114

>  <WPol>
28

>  <Zagreb1>
102

>  <Zagreb2>
114

>  <mZagreb2>
4.72

>  <yes>


>  <nAR-cont>
0.336376

>  <nHA-cont>
0.994529749

>  <MWHBN>
0.472101713

>  <MWHBN-cont>
0

>  <TPSA-cont>
0.492369244

>  <pka_cont>
0.97

>  <yes.1>


>  <BBB_SCORE>
2.800644237

>  <MMFF94 Energy>
66.316

$$$$
Compound 2424
Actelion Java MolfileCreator 2.0

  0  0  0  0  0  0              0 V3000
M  V30 BEGIN CTAB
M  V30 COUNTS 43 44 0 0 0
M  V30 BEGIN ATOM
M  V30 1 S 1.0698 3.1296 -1.1521 0
M  V30 2 O 2.0506 2.4796 -2.0046 0
M  V30 3 O 1.4861 4.0778 -0.1384 0
M  V30 4 C -0.103 3.9545 -2.2012 0
M  V30 5 C 0.1206 1.8534 -0.3789 0
M  V30 6 C -0.1844 3.6122 -3.5556 0
M  V30 7 C -0.9081 4.9662 -1.6647 0
M  V30 8 C 0.9996 0.7839 0.2723 0 CFG=2
M  V30 9 C -1.1005 4.275 -4.3732 0
M  V30 10 C -1.8209 5.623 -2.4905 0
M  V30 11 O 1.7085 0.0186 -0.7227 0
M  V30 12 C 0.0554 -0.1904 1.0219 0
M  V30 13 C 2.0137 1.3111 1.2876 0
M  V30 14 C -1.9107 5.2708 -3.8342 0
M  V30 15 O -0.9572 0.1998 1.5947 0
M  V30 16 N 0.5236 -1.493 0.9814 0
M  V30 17 F -2.7877 5.9041 -4.6233 0
M  V30 18 C -0.0274 -2.6293 1.5927 0
M  V30 19 C 0.462 -3.8776 1.1909 0
M  V30 20 C -1.0065 -2.5738 2.5828 0
M  V30 21 C -0.0263 -5.0729 1.7571 0
M  V30 22 C -1.5017 -3.7501 3.1551 0
M  V30 23 C -1.0196 -5.0 2.7479 0
M  V30 24 C 0.516 -6.4039 1.2988 0
M  V30 25 C -1.5593 -6.1804 3.3639 0
M  V30 26 F 1.4727 -6.2892 0.335 0
M  V30 27 F 1.094 -7.1065 2.3084 0
M  V30 28 F -0.4458 -7.2042 0.7685 0
M  V30 29 N -1.9961 -7.1316 3.863 0
M  V30 30 H -0.5439 2.3441 0.3401 0
M  V30 31 H -0.4888 1.3953 -1.1666 0
M  V30 32 H 0.4574 2.8446 -3.9825 0
M  V30 33 H -0.8265 5.254 -0.6183 0
M  V30 34 H -1.1848 4.0288 -5.4276 0
M  V30 35 H -2.4573 6.4116 -2.0998 0
M  V30 36 H 2.2349 0.6439 -1.2694 0
M  V30 37 H 2.4981 0.4845 1.8211 0
M  V30 38 H 1.5364 1.9537 2.0349 0
M  V30 39 H 2.8222 1.8668 0.8022 0
M  V30 40 H 1.3133 -1.6184 0.3487 0
M  V30 41 H 1.2317 -3.9315 0.4209 0
M  V30 42 H -1.4026 -1.6266 2.9389 0
M  V30 43 H -2.2689 -3.6773 3.9256 0
M  V30 END ATOM
M  V30 BEGIN BOND
M  V30 1 2 1 2
M  V30 2 2 1 3
M  V30 3 1 1 4
M  V30 4 1 1 5
M  V30 5 2 4 6
M  V30 6 1 4 7
M  V30 7 1 5 8
M  V30 8 1 6 9
M  V30 9 2 7 10
M  V30 10 1 8 11
M  V30 11 1 8 12
M  V30 12 1 8 13
M  V30 13 2 9 14
M  V30 14 2 12 15
M  V30 15 1 12 16
M  V30 16 1 14 17
M  V30 17 1 16 18
M  V30 18 2 18 19
M  V30 19 1 18 20
M  V30 20 1 19 21
M  V30 21 2 20 22
M  V30 22 2 21 23
M  V30 23 1 21 24
M  V30 24 1 23 25
M  V30 25 1 24 26
M  V30 26 1 24 27
M  V30 27 1 24 28
M  V30 28 3 25 29
M  V30 29 1 10 14
M  V30 30 1 22 23
M  V30 31 1 5 30
M  V30 32 1 5 31
M  V30 33 1 6 32
M  V30 34 1 7 33
M  V30 35 1 9 34
M  V30 36 1 10 35
M  V30 37 1 11 36
M  V30 38 1 13 37
M  V30 39 1 13 38
M  V30 40 1 13 39
M  V30 41 1 16 40
M  V30 42 1 19 41
M  V30 43 1 20 42
M  V30 44 1 22 43
M  V30 END BOND
M  V30 BEGIN COLLECTION
M  V30 MDLV30/STERAC1 ATOMS=(1 8)
M  V30 END COLLECTION
M  V30 END CTAB
M  END
>  <Column 1>
2986

>  <level_0>
5128

>  <index>
5129

>  <Unnamed: 0>
5129

>  <NO.>
5141

>  <Name>
bicalutamide

>  <IUPAC_name>
n-[4-cyano-3-(trifluoromethyl)phenyl]-3-(4-fluorophenyl)sulfonyl-2-hydroxy-2-methylpropanamide

>  <SMILES>
CC(O)(CS(=O)(=O)c1ccc(F)cc1)C(=O)Nc1ccc(C#N)c(C(F)(F)F)c1

>  <CID>
2375

>  <logBB>


>  <BBB+/BBB->
BBB-

>  <Inchi>
InChI=1S/C18H14F4N2O4S/c1-17(26-10-29(27-28)14-6-3-12(19)4-7-14)16(25)24-13-5-2-11(9-23)15(8-13)18(20-21)22/h2-8-26H-10H2-1H3-(H-24-25)

>  <threshold>


>  <reference>
R14|R23|

>  <group>
C

>  <Class>
-1

>  <ABC>
22.32

>  <ABCGG>
18.91

>  <nAcid>
0

>  <nBase>
0

>  <nAromAtom>
12

>  <nAromBond>
12

>  <nAtom>
43

>  <nHeavyAtom>
29

>  <nSpiro>
0

>  <nBridgehead>
0

>  <nHetero>
11

>  <nN>
2

>  <nO>
4

>  <nF>
4

>  <BalabanJ>
1.96

>  <BertzCT>
1072.52

>  <nBonds>
44

>  <nBondsO>
30

>  <nBondsS>
28

>  <nBondsD>
3

>  <nBondsT>
1

>  <nBondsA>
12

>  <nBondsM>
16

>  <nBondsKS>
34

>  <nBondsKD>
9

>  <RNCG>
0.15

>  <RPCG>
0.16

>  <FCSP3>
0.22

>  <SZ>
36.67

>  <Sm>
35.83

>  <Sv>
29.94

>  <Sse>
45.77

>  <Sp>
29.9

>  <Si>
49.44

>  <MZ>
0.85

>  <Mm>
0.83

>  <Mv>
0.7

>  <Mse>
1.06

>  <Mp>
0.7

>  <Mi>
1.15

>  <NsCH3>
1

>  <NdCH2>
0

>  <NssCH2>
1

>  <NtCH>
0

>  <NdsCH>
0

>  <NaaCH>
7

>  <NsssCH>
0

>  <NddC>
0

>  <NtsC>
1

>  <NdssC>
1

>  <NaasC>
5

>  <NaaaC>
0

>  <NssssC>
2

>  <NsNH3>
0

>  <NsNH2>
0

>  <NssNH2>
0

>  <NdNH>
0

>  <NssNH>
1

>  <NaaNH>
0

>  <NtN>
1

>  <NsssNH>
0

>  <NdsN>
0

>  <NaaN>
0

>  <NsssN>
0

>  <NddsN>
0

>  <NaasN>
0

>  <NssssN>
0

>  <NsOH>
1

>  <NdO>
3

>  <NssO>
0

>  <NaaO>
0

>  <NsF>
4

>  <NsSiH3>
0

>  <NssSiH2>
0

>  <NsssSiH>
0

>  <NssssSi>
0

>  <NsPH2>
0

>  <NssPH>
0

>  <NsssP>
0

>  <NdsssP>
0

>  <NsssssP>
0

>  <NsSH>
0

>  <NdS>
0

>  <NssS>
0

>  <NaaS>
0

>  <NdssS>
0

>  <NddssS>
1

>  <NsCl>
0

>  <NsBr>
0

>  <NsI>
0

>  <fragCpx>
88.11

>  <fMF>
0.4

>  <nHBAcc>
5

>  <nHBDon>
2

>  <Kier1>
25.26

>  <Kier2>
9.65

>  <Lipinski>
1

>  <GhoseFilter>
1

>  <FilterItLogS>
-5.19

>  <VMcGowan>
270.89

>  <LabuteASA>
162.86

>  <PEOE_VSA1>
10.42

>  <PEOE_VSA2>
4.79

>  <PEOE_VSA3>
12.81

>  <PEOE_VSA4>
18.43

>  <PEOE_VSA5>
0

>  <PEOE_VSA6>
0

>  <PEOE_VSA7>
49.39

>  <PEOE_VSA8>
5.69

>  <PEOE_VSA9>
27.84

>  <PEOE_VSA10>
5.82

>  <PEOE_VSA11>
15.44

>  <PEOE_VSA12>
0

>  <PEOE_VSA13>
5.91

>  <SMR_VSA1>
35.88

>  <SMR_VSA2>
5.26

>  <SMR_VSA3>
0

>  <SMR_VSA4>
0

>  <SMR_VSA5>
23.6

>  <SMR_VSA6>
11.07

>  <SMR_VSA7>
59.41

>  <SMR_VSA8>
0

>  <SMR_VSA9>
6.07

>  <SlogP_VSA1>
5.32

>  <SlogP_VSA2>
30.79

>  <SlogP_VSA3>
20.81

>  <SlogP_VSA4>
17.15

>  <SlogP_VSA5>
18.05

>  <SlogP_VSA6>
47.36

>  <SlogP_VSA7>
0

>  <SlogP_VSA8>
0

>  <SlogP_VSA9>
0

>  <SlogP_VSA10>
23.25

>  <SlogP_VSA11>
0

>  <EState_VSA1>
50.22

>  <EState_VSA2>
10.58

>  <EState_VSA3>
6.07

>  <EState_VSA4>
43.32

>  <EState_VSA5>
6.07

>  <EState_VSA6>
0

>  <EState_VSA7>
5.32

>  <EState_VSA8>
0

>  <EState_VSA9>
5.26

>  <EState_VSA10>
35.88

>  <VSA_EState1>
76.64

>  <VSA_EState2>
11.94

>  <VSA_EState3>
21.06

>  <VSA_EState4>
-4.86

>  <VSA_EState5>
-3.06

>  <VSA_EState6>
7.4

>  <VSA_EState7>
-4.86

>  <VSA_EState8>
0.87

>  <VSA_EState9>
-4.21

>  <apol>
49.93

>  <bpol>
27.16

>  <nRing>
2

>  <nHRing>
0

>  <naRing>
2

>  <naHRing>
0

>  <nARing 2>
0

>  <nAHRing 2>
0

>  <nFRing>
0

>  <nFHRing>
0

>  <nFaRing>
0

>  <nFaHRing>
0

>  <nFARing 2>
0

>  <nFAHRing 2>
0

>  <nRot>
5

>  <SLogP>
2.88

>  <SMR>
93.87

>  <TopoPSA(NO)>
107.26

>  <TopoPSA>
115.64

>  <JGI1>
0.37

>  <JGI2>
0.11

>  <JGI3>
0.07

>  <JGI4>
0.05

>  <JGI5>
0.04

>  <Diameter>
15

>  <Radius>
8

>  <TMWC10>
135.8

>  <TSRW10>
64.76

>  <MW>
430.06

>  <AMW>
10

>  <WPath>
2378

>  <WPol>
47

>  <Zagreb1>
152

>  <Zagreb2>
175

>  <mZagreb2>
6.11

>  <yes>


>  <nAR-cont>
0.336376

>  <nHA-cont>
0.785905698

>  <MWHBN>
0.337546427

>  <MWHBN-cont>
0.716011499

>  <TPSA-cont>
0.192760992

>  <pka_cont>
0.97

>  <yes.1>


>  <BBB_SCORE>
3.066820931

>  <MMFF94 Energy>
59.275

$$$$
Compound 2425
Actelion Java MolfileCreator 2.0

  0  0  0  0  0  0              0 V3000
M  V30 BEGIN CTAB
M  V30 COUNTS 28 29 0 0 0
M  V30 BEGIN ATOM
M  V30 1 Cl 2.0424 2.4513 2.0424 0
M  V30 2 C 0.5698 2.6288 1.157 0
M  V30 3 C -0.1318 1.5196 0.6657 0
M  V30 4 C 0.0817 3.9235 0.954 0
M  V30 5 O 0.3604 0.2582 0.8972 0
M  V30 6 C -1.3652 1.7231 0.0295 0
M  V30 7 C -1.1232 4.1197 0.281 0
M  V30 8 C 0.9277 -0.3326 -0.2853 0 CFG=2
M  V30 9 Cl -2.3578 0.4086 -0.4899 0
M  V30 10 C -1.8501 3.0197 -0.1724 0
M  V30 11 C 0.335 -1.7268 -0.4617 0
M  V30 12 C 2.4342 -0.4721 -0.1029 0
M  V30 13 N 0.3158 -2.3272 -1.6263 0
M  V30 14 N -0.2022 -2.427 0.5796 0
M  V30 15 C -0.3281 -3.6491 -1.3511 0
M  V30 16 C -0.8155 -3.6288 0.1054 0
M  V30 17 H 0.6338 4.7831 1.3272 0
M  V30 18 H -1.5041 5.1267 0.126 0
M  V30 19 H 0.7213 0.2456 -1.1961 0
M  V30 20 H -2.8027 3.1772 -0.6737 0
M  V30 21 H 2.8868 -1.0401 -0.9221 0
M  V30 22 H 2.9117 0.5114 -0.0673 0
M  V30 23 H 2.6717 -0.9797 0.8388 0
M  V30 24 H -0.3792 -2.0103 1.4842 0
M  V30 25 H 0.4108 -4.4429 -1.5054 0
M  V30 26 H -1.1602 -3.8119 -2.0436 0
M  V30 27 H -1.9062 -3.5554 0.1559 0
M  V30 28 H -0.4835 -4.5107 0.6599 0
M  V30 END ATOM
M  V30 BEGIN BOND
M  V30 1 1 1 2
M  V30 2 2 2 3
M  V30 3 1 2 4
M  V30 4 1 3 5
M  V30 5 1 3 6
M  V30 6 2 4 7
M  V30 7 1 5 8
M  V30 8 1 6 9
M  V30 9 2 6 10
M  V30 10 1 8 11
M  V30 11 1 8 12
M  V30 12 2 11 13
M  V30 13 1 11 14
M  V30 14 1 13 15
M  V30 15 1 14 16
M  V30 16 1 7 10
M  V30 17 1 15 16
M  V30 18 1 4 17
M  V30 19 1 7 18
M  V30 20 1 8 19
M  V30 21 1 10 20
M  V30 22 1 12 21
M  V30 23 1 12 22
M  V30 24 1 12 23
M  V30 25 1 14 24
M  V30 26 1 15 25
M  V30 27 1 15 26
M  V30 28 1 16 27
M  V30 29 1 16 28
M  V30 END BOND
M  V30 BEGIN COLLECTION
M  V30 MDLV30/STERAC1 ATOMS=(1 8)
M  V30 END COLLECTION
M  V30 END CTAB
M  END
>  <Column 1>
2989

>  <level_0>
5131

>  <index>
5132

>  <Unnamed: 0>
5132

>  <NO.>
5144

>  <Name>
lofexidine

>  <IUPAC_name>
2-[1-(2-6-dichlorophenoxy)ethyl]-4-5-dihydro-1h-imidazole

>  <SMILES>
CC(Oc1c(Cl)cccc1Cl)C1=NCCN1

>  <CID>
30668

>  <logBB>


>  <BBB+/BBB->
BBB+

>  <Inchi>
InChI=1S/C11H12Cl2N2O/c1-7(11-14-5-6-15-11)16-10-8(12)3-2-4-9(10)13/h2-4-7H-5-6H2-1H3-(H-14-15)

>  <threshold>


>  <reference>
R14|R23|R37|

>  <group>
C

>  <Class>
-1

>  <ABC>
12.23

>  <ABCGG>
11.24

>  <nAcid>
0

>  <nBase>
2

>  <nAromAtom>
6

>  <nAromBond>
6

>  <nAtom>
28

>  <nHeavyAtom>
16

>  <nSpiro>
0

>  <nBridgehead>
0

>  <nHetero>
5

>  <nN>
2

>  <nO>
1

>  <nF>
0

>  <BalabanJ>
1.86

>  <BertzCT>
400.2

>  <nBonds>
29

>  <nBondsO>
17

>  <nBondsS>
22

>  <nBondsD>
1

>  <nBondsT>
0

>  <nBondsA>
6

>  <nBondsM>
7

>  <nBondsKS>
25

>  <nBondsKD>
4

>  <RNCG>
0.33

>  <RPCG>
0.11

>  <FCSP3>
0.36

>  <SZ>
22.33

>  <Sm>
21.57

>  <Sv>
18.66

>  <Sse>
28.51

>  <Sp>
20.2

>  <Si>
31.59

>  <MZ>
0.8

>  <Mm>
0.77

>  <Mv>
0.67

>  <Mse>
1.02

>  <Mp>
0.72

>  <Mi>
1.13

>  <NsCH3>
1

>  <NdCH2>
0

>  <NssCH2>
2

>  <NtCH>
0

>  <NdsCH>
0

>  <NaaCH>
3

>  <NsssCH>
1

>  <NddC>
0

>  <NtsC>
0

>  <NdssC>
1

>  <NaasC>
3

>  <NaaaC>
0

>  <NssssC>
0

>  <NsNH3>
0

>  <NsNH2>
0

>  <NssNH2>
0

>  <NdNH>
0

>  <NssNH>
1

>  <NaaNH>
0

>  <NtN>
0

>  <NsssNH>
0

>  <NdsN>
1

>  <NaaN>
0

>  <NsssN>
0

>  <NddsN>
0

>  <NaasN>
0

>  <NssssN>
0

>  <NsOH>
0

>  <NdO>
0

>  <NssO>
1

>  <NaaO>
0

>  <NsF>
0

>  <NsSiH3>
0

>  <NssSiH2>
0

>  <NsssSiH>
0

>  <NssssSi>
0

>  <NsPH2>
0

>  <NssPH>
0

>  <NsssP>
0

>  <NdsssP>
0

>  <NsssssP>
0

>  <NsSH>
0

>  <NdS>
0

>  <NssS>
0

>  <NaaS>
0

>  <NdssS>
0

>  <NddssS>
0

>  <NsCl>
2

>  <NsBr>
0

>  <NsI>
0

>  <fragCpx>
49.05

>  <fMF>
0.46

>  <nHBAcc>
3

>  <nHBDon>
1

>  <Kier1>
12.46

>  <Kier2>
5.56

>  <Lipinski>
1

>  <GhoseFilter>
1

>  <FilterItLogS>
-4.27

>  <VMcGowan>
177.24

>  <LabuteASA>
104.42

>  <PEOE_VSA1>
10.05

>  <PEOE_VSA2>
4.99

>  <PEOE_VSA3>
0

>  <PEOE_VSA4>
0

>  <PEOE_VSA5>
0

>  <PEOE_VSA6>
29.27

>  <PEOE_VSA7>
19.06

>  <PEOE_VSA8>
6.54

>  <PEOE_VSA9>
16.59

>  <PEOE_VSA10>
5.84

>  <PEOE_VSA11>
11.85

>  <PEOE_VSA12>
0

>  <PEOE_VSA13>
0

>  <SMR_VSA1>
4.74

>  <SMR_VSA2>
0

>  <SMR_VSA3>
5.32

>  <SMR_VSA4>
4.99

>  <SMR_VSA5>
13.03

>  <SMR_VSA6>
13.09

>  <SMR_VSA7>
28.24

>  <SMR_VSA8>
0

>  <SMR_VSA9>
5.75

>  <SlogP_VSA1>
10.05

>  <SlogP_VSA2>
25.03

>  <SlogP_VSA3>
0

>  <SlogP_VSA4>
0

>  <SlogP_VSA5>
6.92

>  <SlogP_VSA6>
23.19

>  <SlogP_VSA7>
10.05

>  <SlogP_VSA8>
0

>  <SlogP_VSA9>
0

>  <SlogP_VSA10>
0

>  <SlogP_VSA11>
5.75

>  <EState_VSA1>
0

>  <EState_VSA2>
6.1

>  <EState_VSA3>
15.79

>  <EState_VSA4>
18.93

>  <EState_VSA5>
0

>  <EState_VSA6>
18.2

>  <EState_VSA7>
6.92

>  <EState_VSA8>
10.31

>  <EState_VSA9>
27.94

>  <EState_VSA10>
0

>  <VSA_EState1>
5.7

>  <VSA_EState2>
4.29

>  <VSA_EState3>
4.18

>  <VSA_EState4>
0

>  <VSA_EState5>
1.35

>  <VSA_EState6>
5.28

>  <VSA_EState7>
-0.17

>  <VSA_EState8>
3.56

>  <VSA_EState9>
0

>  <apol>
33.73

>  <bpol>
16.5

>  <nRing>
2

>  <nHRing>
1

>  <naRing>
1

>  <naHRing>
0

>  <nARing 2>
1

>  <nAHRing 2>
1

>  <nFRing>
0

>  <nFHRing>
0

>  <nFaRing>
0

>  <nFaHRing>
0

>  <nFARing 2>
0

>  <nFAHRing 2>
0

>  <nRot>
3

>  <SLogP>
2.76

>  <SMR>
66.86

>  <TopoPSA(NO)>
33.62

>  <TopoPSA>
33.62

>  <JGI1>
0.18

>  <JGI2>
0.1

>  <JGI3>
0.05

>  <JGI4>
0.05

>  <JGI5>
0.02

>  <Diameter>
8

>  <Radius>
4

>  <TMWC10>
102.92

>  <TSRW10>
61.25

>  <MW>
258.03

>  <AMW>
9.22

>  <WPath>
443

>  <WPol>
21

>  <Zagreb1>
80

>  <Zagreb2>
92

>  <mZagreb2>
3.58

>  <yes>


>  <nAR-cont>
0.816016

>  <nHA-cont>
0.954961865

>  <MWHBN>
0.249014645

>  <MWHBN-cont>
0.961418192

>  <TPSA-cont>
0.765311523

>  <pka_cont>
0.97

>  <yes.1>


>  <BBB_SCORE>
5.2287282

>  <MMFF94 Energy>
77.513

$$$$
Compound 2426
Actelion Java MolfileCreator 2.0

  0  0  0  0  0  0              0 V3000
M  V30 BEGIN CTAB
M  V30 COUNTS 41 43 0 0 0
M  V30 BEGIN ATOM
M  V30 1 Cl 2.164 -4.248 0.499 0
M  V30 2 C 2.0891 -2.6252 -0.0875 0
M  V30 3 C 2.6983 -2.1909 -1.2647 0
M  V30 4 C 1.3543 -1.7118 0.6882 0
M  V30 5 S 3.6543 -3.2767 -2.274 0
M  V30 6 C 2.5774 -0.8526 -1.6555 0
M  V30 7 C 1.198 -0.3719 0.3064 0
M  V30 8 O 4.6314 -3.954 -1.4577 0
M  V30 9 O 4.0249 -2.5791 -3.4843 0
M  V30 10 N 2.5337 -4.4219 -2.7715 0
M  V30 11 C 1.8296 0.0293 -0.8665 0
M  V30 12 N 0.5009 0.4886 1.1281 0
M  V30 13 S 1.7189 1.7121 -1.3521 0
M  V30 14 C 0.0995 1.8288 0.7513 0
M  V30 15 O 0.7026 1.8018 -2.3745 0
M  V30 16 O 3.0644 2.1971 -1.5653 0
M  V30 17 N 1.1765 2.4713 0.0293 0
M  V30 18 C -1.2784 1.8537 0.0298 0
M  V30 19 C -2.3669 1.2195 0.8985 0
M  V30 20 C -1.6822 3.2755 -0.3874 0
M  V30 21 C -2.9037 -0.0253 0.5324 0
M  V30 22 C -2.8277 1.8293 2.0762 0
M  V30 23 C -3.8749 -0.6426 1.322 0
M  V30 24 C -3.7999 1.2095 2.8637 0
M  V30 25 C -4.3223 -0.0255 2.4874 0
M  V30 26 H 0.8917 -2.0588 1.6114 0
M  V30 27 H 3.0608 -0.4867 -2.561 0
M  V30 28 H 2.7812 -5.3372 -2.3915 0
M  V30 29 H 2.4527 -4.4075 -3.7892 0
M  V30 30 H -0.046 0.0815 1.8832 0
M  V30 31 H -0.0064 2.3916 1.6884 0
M  V30 32 H 1.9589 2.7658 0.6091 0
M  V30 33 H -1.2172 1.2602 -0.8899 0
M  V30 34 H -1.6942 3.9641 0.4642 0
M  V30 35 H -0.9876 3.6825 -1.1288 0
M  V30 36 H -2.6819 3.282 -0.8366 0
M  V30 37 H -2.5689 -0.5256 -0.3744 0
M  V30 38 H -2.4412 2.7946 2.3951 0
M  V30 39 H -4.2857 -1.6041 1.0243 0
M  V30 40 H -4.1544 1.6934 3.7707 0
M  V30 41 H -5.0824 -0.5045 3.0993 0
M  V30 END ATOM
M  V30 BEGIN BOND
M  V30 1 1 1 2
M  V30 2 2 2 3
M  V30 3 1 2 4
M  V30 4 1 3 5
M  V30 5 1 3 6
M  V30 6 2 4 7
M  V30 7 2 5 8
M  V30 8 2 5 9
M  V30 9 1 5 10
M  V30 10 2 6 11
M  V30 11 1 7 12
M  V30 12 1 11 13
M  V30 13 1 12 14
M  V30 14 2 13 15
M  V30 15 2 13 16
M  V30 16 1 13 17
M  V30 17 1 14 18
M  V30 18 1 18 19
M  V30 19 1 18 20
M  V30 20 2 19 21
M  V30 21 1 19 22
M  V30 22 1 21 23
M  V30 23 2 22 24
M  V30 24 2 23 25
M  V30 25 1 7 11
M  V30 26 1 14 17
M  V30 27 1 24 25
M  V30 28 1 4 26
M  V30 29 1 6 27
M  V30 30 1 10 28
M  V30 31 1 10 29
M  V30 32 1 12 30
M  V30 33 1 14 31
M  V30 34 1 17 32
M  V30 35 1 18 33
M  V30 36 1 20 34
M  V30 37 1 20 35
M  V30 38 1 20 36
M  V30 39 1 21 37
M  V30 40 1 22 38
M  V30 41 1 23 39
M  V30 42 1 24 40
M  V30 43 1 25 41
M  V30 END BOND
M  V30 END CTAB
M  END
>  <Column 1>
2991

>  <level_0>
5133

>  <index>
5134

>  <Unnamed: 0>
5134

>  <NO.>
5146

>  <Name>
bemetizide

>  <IUPAC_name>
6-chloro-1-1-dioxo-3-(1-phenylethyl)-3-4-dihydro-2h-1lambda6-2-4-benzothiadiazine-7-sulfonamide

>  <SMILES>
CC(c1ccccc1)C1Nc2cc(Cl)c(S(N)(=O)=O)cc2S(=O)(=O)N1

>  <CID>
72070

>  <logBB>


>  <BBB+/BBB->
BBB-

>  <Inchi>
InChI=1S/C15H16ClN3O4S2/c1-9(10-5-3-2-4-6-10)15-18-12-7-11(16)13(24(17-20)21)8-14(12)25(22-23)19-15/h2-9-15-18-19H-1H3-(H2-17-20-21)

>  <threshold>


>  <reference>
R14|

>  <group>
C

>  <Class>
-1

>  <ABC>
19.82

>  <ABCGG>
16.12

>  <nAcid>
0

>  <nBase>
0

>  <nAromAtom>
12

>  <nAromBond>
12

>  <nAtom>
41

>  <nHeavyAtom>
25

>  <nSpiro>
0

>  <nBridgehead>
0

>  <nHetero>
10

>  <nN>
3

>  <nO>
4

>  <nF>
0

>  <BalabanJ>
1.72

>  <BertzCT>
1024.24

>  <nBonds>
43

>  <nBondsO>
27

>  <nBondsS>
27

>  <nBondsD>
4

>  <nBondsT>
0

>  <nBondsA>
12

>  <nBondsM>
16

>  <nBondsKS>
33

>  <nBondsKD>
10

>  <RNCG>
0.17

>  <RPCG>
0.11

>  <FCSP3>
0.2

>  <SZ>
34.67

>  <Sm>
33.46

>  <Sv>
27.93

>  <Sse>
42.33

>  <Sp>
30.06

>  <Si>
46.02

>  <MZ>
0.85

>  <Mm>
0.82

>  <Mv>
0.68

>  <Mse>
1.03

>  <Mp>
0.73

>  <Mi>
1.12

>  <NsCH3>
1

>  <NdCH2>
0

>  <NssCH2>
0

>  <NtCH>
0

>  <NdsCH>
0

>  <NaaCH>
7

>  <NsssCH>
2

>  <NddC>
0

>  <NtsC>
0

>  <NdssC>
0

>  <NaasC>
5

>  <NaaaC>
0

>  <NssssC>
0

>  <NsNH3>
0

>  <NsNH2>
1

>  <NssNH2>
0

>  <NdNH>
0

>  <NssNH>
2

>  <NaaNH>
0

>  <NtN>
0

>  <NsssNH>
0

>  <NdsN>
0

>  <NaaN>
0

>  <NsssN>
0

>  <NddsN>
0

>  <NaasN>
0

>  <NssssN>
0

>  <NsOH>
0

>  <NdO>
4

>  <NssO>
0

>  <NaaO>
0

>  <NsF>
0

>  <NsSiH3>
0

>  <NssSiH2>
0

>  <NsssSiH>
0

>  <NssssSi>
0

>  <NsPH2>
0

>  <NssPH>
0

>  <NsssP>
0

>  <NdsssP>
0

>  <NsssssP>
0

>  <NsSH>
0

>  <NdS>
0

>  <NssS>
0

>  <NaaS>
0

>  <NdssS>
0

>  <NddssS>
2

>  <NsCl>
1

>  <NsBr>
0

>  <NsI>
0

>  <fragCpx>
129.1

>  <fMF>
0.41

>  <nHBAcc>
5

>  <nHBDon>
3

>  <Kier1>
19.75

>  <Kier2>
7.2

>  <Lipinski>
1

>  <GhoseFilter>
1

>  <FilterItLogS>
-4.46

>  <VMcGowan>
262.19

>  <LabuteASA>
150.84

>  <PEOE_VSA1>
5.32

>  <PEOE_VSA2>
0

>  <PEOE_VSA3>
21.97

>  <PEOE_VSA4>
4.72

>  <PEOE_VSA5>
0

>  <PEOE_VSA6>
48.86

>  <PEOE_VSA7>
17.7

>  <PEOE_VSA8>
5.92

>  <PEOE_VSA9>
16.88

>  <PEOE_VSA10>
9.79

>  <PEOE_VSA11>
0

>  <PEOE_VSA12>
20.05

>  <PEOE_VSA13>
0

>  <SMR_VSA1>
16.84

>  <SMR_VSA2>
0

>  <SMR_VSA3>
4.72

>  <SMR_VSA4>
5.14

>  <SMR_VSA5>
28.8

>  <SMR_VSA6>
5.32

>  <SMR_VSA7>
53.05

>  <SMR_VSA8>
0

>  <SMR_VSA9>
0

>  <SlogP_VSA1>
15.18

>  <SlogP_VSA2>
23

>  <SlogP_VSA3>
20.05

>  <SlogP_VSA4>
0

>  <SlogP_VSA5>
18.41

>  <SlogP_VSA6>
52.26

>  <SlogP_VSA7>
5.02

>  <SlogP_VSA8>
0

>  <SlogP_VSA9>
0

>  <SlogP_VSA10>
5.69

>  <SlogP_VSA11>
0

>  <EState_VSA1>
31.11

>  <EState_VSA2>
21.52

>  <EState_VSA3>
0

>  <EState_VSA4>
11.63

>  <EState_VSA5>
6.07

>  <EState_VSA6>
0

>  <EState_VSA7>
37.26

>  <EState_VSA8>
10.04

>  <EState_VSA9>
16.74

>  <EState_VSA10>
16.84

>  <VSA_EState1>
50.82

>  <VSA_EState2>
-0.65

>  <VSA_EState3>
8

>  <VSA_EState4>
1.17

>  <VSA_EState5>
-0.18

>  <VSA_EState6>
11.63

>  <VSA_EState7>
-0.61

>  <VSA_EState8>
1.88

>  <VSA_EState9>
-8.08

>  <apol>
50.21

>  <bpol>
30.44

>  <nRing>
3

>  <nHRing>
1

>  <naRing>
2

>  <naHRing>
0

>  <nARing 2>
1

>  <nAHRing 2>
1

>  <nFRing>
1

>  <nFHRing>
1

>  <nFaRing>
0

>  <nFaHRing>
0

>  <nFARing 2>
1

>  <nFAHRing 2>
1

>  <nRot>
3

>  <SLogP>
1.82

>  <SMR>
95.41

>  <TopoPSA(NO)>
118.36

>  <TopoPSA>
135.12

>  <JGI1>
0.3

>  <JGI2>
0.1

>  <JGI3>
0.07

>  <JGI4>
0.05

>  <JGI5>
0.05

>  <Diameter>
12

>  <Radius>
6

>  <TMWC10>
128.9

>  <TSRW10>
60.48

>  <MW>
401.03

>  <AMW>
9.78

>  <WPath>
1436

>  <WPol>
44

>  <Zagreb1>
138

>  <Zagreb2>
164

>  <mZagreb2>
5.15

>  <yes>


>  <nAR-cont>
0.816016

>  <nHA-cont>
0.921834225

>  <MWHBN>
0.399485992

>  <MWHBN-cont>
0.478084043

>  <TPSA-cont>
0

>  <pka_cont>
0.97

>  <yes.1>


>  <BBB_SCORE>
2.939976289

>  <MMFF94 Energy>
-180.38

$$$$
Compound 2427
Actelion Java MolfileCreator 2.0

  0  0  0  0  0  0              0 V3000
M  V30 BEGIN CTAB
M  V30 COUNTS 39 41 0 0 0
M  V30 BEGIN ATOM
M  V30 1 F -2.2661 0.5661 -2.0231 0
M  V30 2 C -2.1791 -0.717 -1.6549 0
M  V30 3 C -1.7233 -1.1062 -0.4092 0
M  V30 4 C -2.5549 -1.7156 -2.526 0
M  V30 5 N -1.6815 -2.4195 -0.063 0
M  V30 6 C -1.2852 -0.1308 0.6788 0
M  V30 7 N -2.5066 -3.0279 -2.2233 0
M  V30 8 C -2.0661 -3.315 -0.9899 0
M  V30 9 C -0.3098 1.0381 0.2546 0
M  V30 10 C -2.555 0.3699 1.3907 0
M  V30 11 O -1.1264 2.0838 -0.3382 0
M  V30 12 C 0.7915 0.657 -0.744 0
M  V30 13 C 0.3273 1.7511 1.4862 0
M  V30 14 C 1.4929 -0.5568 -0.6431 0
M  V30 15 C 1.1808 1.5428 -1.7696 0
M  V30 16 N 1.1519 0.953 2.3587 0
M  V30 17 F 1.2075 -1.4186 0.341 0
M  V30 18 C 2.5024 -0.905 -1.5346 0
M  V30 19 C 2.1943 1.2006 -2.6692 0
M  V30 20 N 2.4813 0.8673 2.1671 0
M  V30 21 C 0.7882 0.3323 3.5139 0
M  V30 22 C 2.8414 -0.0216 -2.5451 0
M  V30 23 C 2.8513 0.1258 3.2144 0
M  V30 24 N 1.8431 -0.2174 4.0687 0
M  V30 25 F 3.8116 -0.3447 -3.4096 0
M  V30 26 H -2.9179 -1.4756 -3.52 0
M  V30 27 H -0.7498 -0.7474 1.4116 0
M  V30 28 H -2.0167 -4.3626 -0.7124 0
M  V30 29 H -3.1565 -0.473 1.7516 0
M  V30 30 H -3.1932 0.9586 0.7225 0
M  V30 31 H -2.3134 0.9863 2.261 0
M  V30 32 H -1.4604 1.7572 -1.1946 0
M  V30 33 H 0.9416 2.5996 1.1521 0
M  V30 34 H -0.4518 2.2081 2.1092 0
M  V30 35 H 0.7101 2.5194 -1.8729 0
M  V30 36 H 3.0228 -1.8496 -1.4303 0
M  V30 37 H 2.4898 1.8857 -3.4583 0
M  V30 38 H -0.2227 0.3098 3.8958 0
M  V30 39 H 3.883 -0.1652 3.3644 0
M  V30 END ATOM
M  V30 BEGIN BOND
M  V30 1 1 1 2
M  V30 2 2 2 3
M  V30 3 1 2 4
M  V30 4 1 3 5
M  V30 5 1 3 6
M  V30 6 2 4 7
M  V30 7 2 5 8
M  V30 8 1 6 9
M  V30 9 1 6 10
M  V30 10 1 9 11
M  V30 11 1 9 12
M  V30 12 1 9 13
M  V30 13 2 12 14
M  V30 14 1 12 15
M  V30 15 1 13 16
M  V30 16 1 14 17
M  V30 17 1 14 18
M  V30 18 2 15 19
M  V30 19 1 16 20
M  V30 20 1 16 21
M  V30 21 2 18 22
M  V30 22 2 20 23
M  V30 23 2 21 24
M  V30 24 1 22 25
M  V30 25 1 7 8
M  V30 26 1 19 22
M  V30 27 1 23 24
M  V30 28 1 4 26
M  V30 29 1 6 27
M  V30 30 1 8 28
M  V30 31 1 10 29
M  V30 32 1 10 30
M  V30 33 1 10 31
M  V30 34 1 11 32
M  V30 35 1 13 33
M  V30 36 1 13 34
M  V30 37 1 15 35
M  V30 38 1 18 36
M  V30 39 1 19 37
M  V30 40 1 21 38
M  V30 41 1 23 39
M  V30 END BOND
M  V30 END CTAB
M  END
>  <Column 1>
2992

>  <level_0>
5134

>  <index>
5135

>  <Unnamed: 0>
5135

>  <NO.>
5147

>  <Name>
voriconazole

>  <IUPAC_name>
2-(2-4-difluorophenyl)-3-(5-fluoropyrimidin-4-yl)-1-(1-2-4-triazol-1-yl)butan-2-ol

>  <SMILES>
CC(c1ncncc1F)C(O)(Cn1cncn1)c1ccc(F)cc1F

>  <CID>
5231054

>  <logBB>


>  <BBB+/BBB->
BBB-

>  <Inchi>
InChI=1S/C16H14F3N5O/c1-10(15-14(19)5-20-7-22-15)16(25-6-24-9-21-8-23-24)12-3-2-11(17)4-13(12)18/h2-5-7-10-25H-6H2-1H3

>  <threshold>


>  <reference>
R14|

>  <group>
C

>  <Class>
-1

>  <ABC>
19.44

>  <ABCGG>
17.06

>  <nAcid>
0

>  <nBase>
0

>  <nAromAtom>
17

>  <nAromBond>
17

>  <nAtom>
39

>  <nHeavyAtom>
25

>  <nSpiro>
0

>  <nBridgehead>
0

>  <nHetero>
9

>  <nN>
5

>  <nO>
1

>  <nF>
3

>  <BalabanJ>
1.82

>  <BertzCT>
873.97

>  <nBonds>
41

>  <nBondsO>
27

>  <nBondsS>
24

>  <nBondsD>
0

>  <nBondsT>
0

>  <nBondsA>
17

>  <nBondsM>
17

>  <nBondsKS>
33

>  <nBondsKD>
8

>  <RNCG>
0.17

>  <RPCG>
0.09

>  <FCSP3>
0.25

>  <SZ>
30

>  <Sm>
29.08

>  <Sv>
26.24

>  <Sse>
40.73

>  <Sp>
26.36

>  <Si>
45.21

>  <MZ>
0.77

>  <Mm>
0.75

>  <Mv>
0.67

>  <Mse>
1.04

>  <Mp>
0.68

>  <Mi>
1.16

>  <NsCH3>
1

>  <NdCH2>
0

>  <NssCH2>
1

>  <NtCH>
0

>  <NdsCH>
0

>  <NaaCH>
7

>  <NsssCH>
1

>  <NddC>
0

>  <NtsC>
0

>  <NdssC>
0

>  <NaasC>
5

>  <NaaaC>
0

>  <NssssC>
1

>  <NsNH3>
0

>  <NsNH2>
0

>  <NssNH2>
0

>  <NdNH>
0

>  <NssNH>
0

>  <NaaNH>
0

>  <NtN>
0

>  <NsssNH>
0

>  <NdsN>
0

>  <NaaN>
4

>  <NsssN>
0

>  <NddsN>
0

>  <NaasN>
1

>  <NssssN>
0

>  <NsOH>
1

>  <NdO>
0

>  <NssO>
0

>  <NaaO>
0

>  <NsF>
3

>  <NsSiH3>
0

>  <NssSiH2>
0

>  <NsssSiH>
0

>  <NssssSi>
0

>  <NsPH2>
0

>  <NssPH>
0

>  <NsssP>
0

>  <NdsssP>
0

>  <NsssssP>
0

>  <NsSH>
0

>  <NdS>
0

>  <NssS>
0

>  <NaaS>
0

>  <NdssS>
0

>  <NddssS>
0

>  <NsCl>
0

>  <NsBr>
0

>  <NsI>
0

>  <fragCpx>
129.09

>  <fMF>
0.51

>  <nHBAcc>
6

>  <nHBDon>
1

>  <Kier1>
19.75

>  <Kier2>
8.35

>  <Lipinski>
1

>  <GhoseFilter>
1

>  <FilterItLogS>
-4.38

>  <VMcGowan>
230.37

>  <LabuteASA>
140.56

>  <PEOE_VSA1>
5.11

>  <PEOE_VSA2>
0

>  <PEOE_VSA3>
32.8

>  <PEOE_VSA4>
5.1

>  <PEOE_VSA5>
0

>  <PEOE_VSA6>
12.99

>  <PEOE_VSA7>
6.07

>  <PEOE_VSA8>
17.55

>  <PEOE_VSA9>
18.44

>  <PEOE_VSA10>
36.22

>  <PEOE_VSA11>
5.82

>  <PEOE_VSA12>
0

>  <PEOE_VSA13>
0

>  <SMR_VSA1>
18.28

>  <SMR_VSA2>
0

>  <SMR_VSA3>
24.73

>  <SMR_VSA4>
0

>  <SMR_VSA5>
24.99

>  <SMR_VSA6>
0

>  <SMR_VSA7>
72.09

>  <SMR_VSA8>
0

>  <SMR_VSA9>
0

>  <SlogP_VSA1>
0

>  <SlogP_VSA2>
29.84

>  <SlogP_VSA3>
12.15

>  <SlogP_VSA4>
17.45

>  <SlogP_VSA5>
24.1

>  <SlogP_VSA6>
43.38

>  <SlogP_VSA7>
0

>  <SlogP_VSA8>
0

>  <SlogP_VSA9>
0

>  <SlogP_VSA10>
13.17

>  <SlogP_VSA11>
0

>  <EState_VSA1>
28.97

>  <EState_VSA2>
17.8

>  <EState_VSA3>
6.07

>  <EState_VSA4>
24.66

>  <EState_VSA5>
24.26

>  <EState_VSA6>
0

>  <EState_VSA7>
0

>  <EState_VSA8>
20.05

>  <EState_VSA9>
0

>  <EState_VSA10>
18.28

>  <VSA_EState1>
43.03

>  <VSA_EState2>
11.2

>  <VSA_EState3>
15.19

>  <VSA_EState4>
-2.25

>  <VSA_EState5>
-3.47

>  <VSA_EState6>
2.8

>  <VSA_EState7>
4.66

>  <VSA_EState8>
1.26

>  <VSA_EState9>
0

>  <apol>
44.03

>  <bpol>
22.51

>  <nRing>
3

>  <nHRing>
2

>  <naRing>
3

>  <naHRing>
2

>  <nARing 2>
0

>  <nAHRing 2>
0

>  <nFRing>
0

>  <nFHRing>
0

>  <nFaRing>
0

>  <nFaHRing>
0

>  <nFARing 2>
0

>  <nFAHRing 2>
0

>  <nRot>
5

>  <SLogP>
2.18

>  <SMR>
80.68

>  <TopoPSA(NO)>
76.72

>  <TopoPSA>
76.72

>  <JGI1>
0.22

>  <JGI2>
0.1

>  <JGI3>
0.07

>  <JGI4>
0.04

>  <JGI5>
0.03

>  <Diameter>
10

>  <Radius>
5

>  <TMWC10>
128.12

>  <TSRW10>
73.14

>  <MW>
349.12

>  <AMW>
8.95

>  <WPath>
1359

>  <WPol>
41

>  <Zagreb1>
132

>  <Zagreb2>
157

>  <mZagreb2>
5.46

>  <yes>


>  <nAR-cont>
0.336376

>  <nHA-cont>
0.921834225

>  <MWHBN>
0.374637007

>  <MWHBN-cont>
0.575802313

>  <TPSA-cont>
0.46444676

>  <pka_cont>
0.97

>  <yes.1>


>  <BBB_SCORE>
3.535807214

>  <MMFF94 Energy>
56.135

$$$$
Compound 2428
Actelion Java MolfileCreator 2.0

  0  0  0  0  0  0              0 V3000
M  V30 BEGIN CTAB
M  V30 COUNTS 53 56 0 0 0
M  V30 BEGIN ATOM
M  V30 1 F -1.2895 1.0476 -0.1611 0
M  V30 2 C 0.0423 0.7771 0.0577 0
M  V30 3 C 0.845 2.0817 -0.3828 0
M  V30 4 C 0.1934 0.3791 1.5566 0
M  V30 5 C 0.3823 -0.4605 -0.8238 0
M  V30 6 C 0.8012 2.247 -1.9169 0
M  V30 7 C 0.2153 3.3438 0.2861 0
M  V30 8 C 2.3323 1.9925 0.0317 0
M  V30 9 O -0.1676 1.4444 2.4361 0
M  V30 10 C -0.6634 -0.8427 1.9124 0
M  V30 11 C -0.394 -1.7459 -0.4474 0
M  V30 12 C 0.2017 -0.1466 -2.3161 0
M  V30 13 C 0.5476 3.409 -2.5455 0
M  V30 14 C 1.081 1.0165 -2.7422 0
M  V30 15 C 0.6479 4.6683 -0.3278 0
M  V30 16 C -0.3605 -2.0982 1.0551 0
M  V30 17 C -1.8886 -1.7812 -0.8262 0
M  V30 18 C 0.3871 4.6798 -1.8071 0
M  V30 19 C -1.5068 -3.1542 1.1684 0
M  V30 20 C 1.0076 -2.6711 1.4709 0
M  V30 21 C -2.607 -2.5755 0.2672 0
M  V30 22 O 0.1345 5.7108 -2.4253 0
M  V30 23 O -1.9928 -3.2486 2.5038 0
M  V30 24 C -1.1498 -4.5741 0.7057 0
M  V30 25 H 1.2426 0.155 1.7705 0
M  V30 26 H 1.4446 -0.6931 -0.6682 0
M  V30 27 H -0.8794 3.2865 0.2252 0
M  V30 28 H 0.4707 3.3906 1.3491 0
M  V30 29 H 2.4482 2.0346 1.12 0
M  V30 30 H 2.9178 2.8212 -0.3833 0
M  V30 31 H 2.8039 1.0671 -0.3128 0
M  V30 32 H -0.3034 1.0804 3.3278 0
M  V30 33 H -0.5263 -1.0804 2.9763 0
M  V30 34 H -1.7176 -0.5489 1.8303 0
M  V30 35 H 0.0825 -2.5657 -1.0053 0
M  V30 36 H 0.463 -1.027 -2.9159 0
M  V30 37 H -0.8453 0.091 -2.5401 0
M  V30 38 H 0.5026 3.4978 -3.6256 0
M  V30 39 H 2.1378 0.7435 -2.6351 0
M  V30 40 H 0.9202 1.2064 -3.8106 0
M  V30 41 H 0.0747 5.4811 0.1321 0
M  V30 42 H 1.7114 4.8638 -0.1579 0
M  V30 43 H -2.3393 -0.7889 -0.9074 0
M  V30 44 H -2.0166 -2.2668 -1.8005 0
M  V30 45 H 1.3054 -3.5143 0.8391 0
M  V30 46 H 1.8087 -1.931 1.3882 0
M  V30 47 H 0.9859 -3.0207 2.5088 0
M  V30 48 H -3.2745 -1.9147 0.8342 0
M  V30 49 H -3.2504 -3.3509 -0.1636 0
M  V30 50 H -1.3122 -3.6834 3.0447 0
M  V30 51 H -0.405 -5.0322 1.3654 0
M  V30 52 H -0.7734 -4.6011 -0.3206 0
M  V30 53 H -2.0309 -5.2249 0.76 0
M  V30 END ATOM
M  V30 BEGIN BOND
M  V30 1 1 1 2
M  V30 2 1 2 3
M  V30 3 1 2 4
M  V30 4 1 2 5
M  V30 5 1 3 6
M  V30 6 1 3 7
M  V30 7 1 3 8
M  V30 8 1 4 9
M  V30 9 1 4 10
M  V30 10 1 5 11
M  V30 11 1 5 12
M  V30 12 2 6 13
M  V30 13 1 6 14
M  V30 14 1 7 15
M  V30 15 1 10 16
M  V30 16 1 11 17
M  V30 17 1 13 18
M  V30 18 1 16 19
M  V30 19 1 16 20
M  V30 20 1 17 21
M  V30 21 2 18 22
M  V30 22 1 19 23
M  V30 23 1 19 24
M  V30 24 1 11 16
M  V30 25 1 12 14
M  V30 26 1 15 18
M  V30 27 1 19 21
M  V30 28 1 4 25
M  V30 29 1 5 26
M  V30 30 1 7 27
M  V30 31 1 7 28
M  V30 32 1 8 29
M  V30 33 1 8 30
M  V30 34 1 8 31
M  V30 35 1 9 32
M  V30 36 1 10 33
M  V30 37 1 10 34
M  V30 38 1 11 35
M  V30 39 1 12 36
M  V30 40 1 12 37
M  V30 41 1 13 38
M  V30 42 1 14 39
M  V30 43 1 14 40
M  V30 44 1 15 41
M  V30 45 1 15 42
M  V30 46 1 17 43
M  V30 47 1 17 44
M  V30 48 1 20 45
M  V30 49 1 20 46
M  V30 50 1 20 47
M  V30 51 1 21 48
M  V30 52 1 21 49
M  V30 53 1 23 50
M  V30 54 1 24 51
M  V30 55 1 24 52
M  V30 56 1 24 53
M  V30 END BOND
M  V30 END CTAB
M  END
>  <Column 1>
2994

>  <level_0>
5136

>  <index>
5137

>  <Unnamed: 0>
5137

>  <NO.>
5149

>  <Name>
9-fluoro-11-17-dihydroxy-10-13-17-trimethyl-1-2-6-7-8-11-12-14-15-16-decahydrocyclopenta[a]phenanthren-3-one

>  <IUPAC_name>
9-fluoro-11-17-dihydroxy-10-13-17-trimethyl-1-2-6-7-8-11-12-14-15-16-decahydrocyclopenta[a]phenanthren-3-one

>  <SMILES>
CC1(O)CCC2C3CCC4=CC(=O)CCC4(C)C3(F)C(O)CC21C

>  <CID>
3387

>  <logBB>


>  <BBB+/BBB->
BBB-

>  <Inchi>
InChI=1S/C20H29FO3/c1-17-8-6-13(22)10-12(17)4-5-15-14-7-9-19(3-24)18(14-2)11-16(23)20(15-17)21/h10-14-16-23-24H-4-9-11H2-1-3H3

>  <threshold>


>  <reference>
R14|

>  <group>
C

>  <Class>
-1

>  <ABC>
19.63

>  <ABCGG>
16.4

>  <nAcid>
0

>  <nBase>
0

>  <nAromAtom>
0

>  <nAromBond>
0

>  <nAtom>
53

>  <nHeavyAtom>
24

>  <nSpiro>
0

>  <nBridgehead>
0

>  <nHetero>
4

>  <nN>
0

>  <nO>
3

>  <nF>
1

>  <BalabanJ>
1.76

>  <BertzCT>
626.37

>  <nBonds>
56

>  <nBondsO>
27

>  <nBondsS>
54

>  <nBondsD>
2

>  <nBondsT>
0

>  <nBondsA>
0

>  <nBondsM>
2

>  <nBondsKS>
54

>  <nBondsKD>
2

>  <RNCG>
0.22

>  <RPCG>
0.12

>  <FCSP3>
0.85

>  <SZ>
30.33

>  <Sm>
28.01

>  <Sv>
30.65

>  <Sse>
52.82

>  <Sp>
33.35

>  <Si>
60.2

>  <MZ>
0.57

>  <Mm>
0.53

>  <Mv>
0.58

>  <Mse>
1

>  <Mp>
0.63

>  <Mi>
1.14

>  <NsCH3>
3

>  <NdCH2>
0

>  <NssCH2>
7

>  <NtCH>
0

>  <NdsCH>
1

>  <NaaCH>
0

>  <NsssCH>
3

>  <NddC>
0

>  <NtsC>
0

>  <NdssC>
2

>  <NaasC>
0

>  <NaaaC>
0

>  <NssssC>
4

>  <NsNH3>
0

>  <NsNH2>
0

>  <NssNH2>
0

>  <NdNH>
0

>  <NssNH>
0

>  <NaaNH>
0

>  <NtN>
0

>  <NsssNH>
0

>  <NdsN>
0

>  <NaaN>
0

>  <NsssN>
0

>  <NddsN>
0

>  <NaasN>
0

>  <NssssN>
0

>  <NsOH>
2

>  <NdO>
1

>  <NssO>
0

>  <NaaO>
0

>  <NsF>
1

>  <NsSiH3>
0

>  <NssSiH2>
0

>  <NsssSiH>
0

>  <NssssSi>
0

>  <NsPH2>
0

>  <NssPH>
0

>  <NsssP>
0

>  <NdsssP>
0

>  <NsssssP>
0

>  <NsSH>
0

>  <NdS>
0

>  <NssS>
0

>  <NaaS>
0

>  <NdssS>
0

>  <NddssS>
0

>  <NsCl>
0

>  <NsBr>
0

>  <NsI>
0

>  <fragCpx>
177.04

>  <fMF>
0.32

>  <nHBAcc>
3

>  <nHBDon>
2

>  <Kier1>
17.42

>  <Kier2>
5.04

>  <Lipinski>
1

>  <GhoseFilter>
1

>  <FilterItLogS>
-3.76

>  <VMcGowan>
259.99

>  <LabuteASA>
142.88

>  <PEOE_VSA1>
10.21

>  <PEOE_VSA2>
4.79

>  <PEOE_VSA3>
4.39

>  <PEOE_VSA4>
0

>  <PEOE_VSA5>
0

>  <PEOE_VSA6>
19.42

>  <PEOE_VSA7>
57.44

>  <PEOE_VSA8>
23.17

>  <PEOE_VSA9>
11.71

>  <PEOE_VSA10>
5.67

>  <PEOE_VSA11>
5.78

>  <PEOE_VSA12>
0

>  <PEOE_VSA13>
0

>  <SMR_VSA1>
19.4

>  <SMR_VSA2>
0

>  <SMR_VSA3>
0

>  <SMR_VSA4>
22.67

>  <SMR_VSA5>
83.09

>  <SMR_VSA6>
0

>  <SMR_VSA7>
11.65

>  <SMR_VSA8>
0

>  <SMR_VSA9>
0

>  <SlogP_VSA1>
0

>  <SlogP_VSA2>
33.37

>  <SlogP_VSA3>
4.79

>  <SlogP_VSA4>
22.67

>  <SlogP_VSA5>
65.72

>  <SlogP_VSA6>
11.65

>  <SlogP_VSA7>
0

>  <SlogP_VSA8>
0

>  <SlogP_VSA9>
0

>  <SlogP_VSA10>
4.39

>  <SlogP_VSA11>
0

>  <EState_VSA1>
28.2

>  <EState_VSA2>
17.62

>  <EState_VSA3>
32.1

>  <EState_VSA4>
18.41

>  <EState_VSA5>
0

>  <EState_VSA6>
6.08

>  <EState_VSA7>
20.77

>  <EState_VSA8>
0

>  <EState_VSA9>
0

>  <EState_VSA10>
15.01

>  <VSA_EState1>
16.63

>  <VSA_EState2>
11.83

>  <VSA_EState3>
21.86

>  <VSA_EState4>
-2.83

>  <VSA_EState5>
-0.06

>  <VSA_EState6>
0

>  <VSA_EState7>
4.6

>  <VSA_EState8>
5.79

>  <VSA_EState9>
0

>  <apol>
55.7

>  <bpol>
31.07

>  <nRing>
4

>  <nHRing>
0

>  <naRing>
0

>  <naHRing>
0

>  <nARing 2>
4

>  <nAHRing 2>
0

>  <nFRing>
1

>  <nFHRing>
0

>  <nFaRing>
0

>  <nFaHRing>
0

>  <nFARing 2>
1

>  <nFAHRing 2>
0

>  <nRot>
0

>  <SLogP>
3.33

>  <SMR>
89.07

>  <TopoPSA(NO)>
57.53

>  <TopoPSA>
57.53

>  <JGI1>
0.33

>  <JGI2>
0.16

>  <JGI3>
0.08

>  <JGI4>
0.07

>  <JGI5>
0.04

>  <Diameter>
10

>  <Radius>
5

>  <TMWC10>
131.33

>  <TSRW10>
75.16

>  <MW>
336.21

>  <AMW>
6.34

>  <WPath>
1083

>  <WPol>
58

>  <Zagreb1>
148

>  <Zagreb2>
193

>  <mZagreb2>
4.78

>  <yes>


>  <nAR-cont>
0.199399

>  <nHA-cont>
0.94700071

>  <MWHBN>
0.272687161

>  <MWHBN-cont>
0.913912726

>  <TPSA-cont>
0.598404876

>  <pka_cont>
0.97

>  <yes.1>


>  <BBB_SCORE>
4.199078551

>  <MMFF94 Energy>
113.77

$$$$
Compound 2429
Actelion Java MolfileCreator 2.0

  0  0  0  0  0  0              0 V3000
M  V30 BEGIN CTAB
M  V30 COUNTS 57 63 0 0 0
M  V30 BEGIN ATOM
M  V30 1 O -4.0781 0.8961 -5.1405 0
M  V30 2 C -3.1931 0.5411 -4.3655 0
M  V30 3 C -3.5611 0.0396 -3.0246 0
M  V30 4 C -1.7423 0.5285 -4.7607 0
M  V30 5 C -2.6508 -0.3909 -2.1298 0
M  V30 6 C -0.8457 0.6899 -3.5415 0
M  V30 7 C -1.1345 -0.3321 -2.4044 0
M  V30 8 C -3.0893 -0.9311 -0.8257 0
M  V30 9 C -0.3962 0.1427 -1.0958 0
M  V30 10 C -0.6674 -1.7344 -2.8541 0
M  V30 11 C -2.1324 -1.0586 0.3254 0
M  V30 12 C -3.1733 0.0297 0.3378 0
M  V30 13 C -0.6645 -0.8125 0.1084 0
M  V30 14 C 1.1203 0.4299 -1.2657 0
M  V30 15 C 0.006 -0.2208 1.3475 0
M  V30 16 C 1.8034 0.8937 0.0387 0
M  V30 17 C 1.5562 -0.0864 1.1957 0
M  V30 18 C -0.144 -0.9263 2.6714 0
M  V30 19 C 1.9363 0.3773 2.654 0
M  V30 20 C 2.2554 -1.438 0.8764 0
M  V30 21 C 1.0372 -0.5108 3.5193 0
M  V30 22 C -0.3654 -0.1476 3.9378 0
M  V30 23 O 1.5771 1.7532 2.86 0
M  V30 24 C 3.393 0.3217 3.0767 0
M  V30 25 C 2.6946 2.5337 2.832 0
M  V30 26 C 3.918 1.6831 2.6971 0
M  V30 27 O 2.6832 3.7526 2.8751 0
M  V30 28 H -4.6256 0.0116 -2.8172 0
M  V30 29 H -1.5338 -0.4022 -5.2968 0
M  V30 30 H -1.5636 1.3632 -5.4478 0
M  V30 31 H -0.9771 1.7101 -3.1539 0
M  V30 32 H 0.1961 0.6121 -3.8743 0
M  V30 33 H -3.8558 -1.6997 -0.8939 0
M  V30 34 H -0.8348 1.1197 -0.8368 0
M  V30 35 H -1.1988 -2.0685 -3.7523 0
M  V30 36 H -0.8481 -2.499 -2.0921 0
M  V30 37 H 0.4015 -1.7442 -3.0891 0
M  V30 38 H -2.295 -1.8915 1.0038 0
M  V30 39 H -4.0091 -0.0794 1.0211 0
M  V30 40 H -2.8649 1.0597 0.2047 0
M  V30 41 H -0.23 -1.7951 -0.0989 0
M  V30 42 H 1.6337 -0.4533 -1.6578 0
M  V30 43 H 1.2703 1.2242 -2.0052 0
M  V30 44 H -0.4258 0.7842 1.4819 0
M  V30 45 H 1.416 1.8889 0.2883 0
M  V30 46 H 2.8773 1.0123 -0.1431 0
M  V30 47 H -0.3837 -1.9785 2.62 0
M  V30 48 H 3.3271 -1.2867 0.707 0
M  V30 49 H 1.8725 -1.9195 -0.0263 0
M  V30 50 H 2.1492 -2.1647 1.6883 0
M  V30 51 H 1.5598 -1.2898 4.0597 0
M  V30 52 H -0.6813 0.8877 3.8697 0
M  V30 53 H -0.7921 -0.6716 4.7861 0
M  V30 54 H 3.9778 -0.496 2.6521 0
M  V30 55 H 3.462 0.2176 4.1683 0
M  V30 56 H 4.2717 1.7147 1.664 0
M  V30 57 H 4.7025 2.0144 3.3815 0
M  V30 END ATOM
M  V30 BEGIN BOND
M  V30 1 2 1 2
M  V30 2 1 2 3
M  V30 3 1 2 4
M  V30 4 2 3 5
M  V30 5 1 4 6
M  V30 6 1 5 7
M  V30 7 1 5 8
M  V30 8 1 7 9
M  V30 9 1 7 10
M  V30 10 1 8 11
M  V30 11 1 8 12
M  V30 12 1 9 13
M  V30 13 1 9 14
M  V30 14 1 13 15
M  V30 15 1 14 16
M  V30 16 1 15 17
M  V30 17 1 15 18
M  V30 18 1 17 19
M  V30 19 1 17 20
M  V30 20 1 18 21
M  V30 21 1 18 22
M  V30 22 1 19 23
M  V30 23 1 19 24
M  V30 24 1 23 25
M  V30 25 1 24 26
M  V30 26 2 25 27
M  V30 27 1 6 7
M  V30 28 1 11 12
M  V30 29 1 11 13
M  V30 30 1 16 17
M  V30 31 1 19 21
M  V30 32 1 21 22
M  V30 33 1 25 26
M  V30 34 1 3 28
M  V30 35 1 4 29
M  V30 36 1 4 30
M  V30 37 1 6 31
M  V30 38 1 6 32
M  V30 39 1 8 33
M  V30 40 1 9 34
M  V30 41 1 10 35
M  V30 42 1 10 36
M  V30 43 1 10 37
M  V30 44 1 11 38
M  V30 45 1 12 39
M  V30 46 1 12 40
M  V30 47 1 13 41
M  V30 48 1 14 42
M  V30 49 1 14 43
M  V30 50 1 15 44
M  V30 51 1 16 45
M  V30 52 1 16 46
M  V30 53 1 18 47
M  V30 54 1 20 48
M  V30 55 1 20 49
M  V30 56 1 20 50
M  V30 57 1 21 51
M  V30 58 1 22 52
M  V30 59 1 22 53
M  V30 60 1 24 54
M  V30 61 1 24 55
M  V30 62 1 26 56
M  V30 63 1 26 57
M  V30 END BOND
M  V30 END CTAB
M  END
>  <Column 1>
2996

>  <level_0>
5138

>  <index>
5139

>  <Unnamed: 0>
5139

>  <NO.>
5151

>  <Name>
5a-7a-dimethyl-1-1a-5-5a-5b-6-7-7a-8a-9-9a-9b-9c-9d-tetradecahydro-3'h-spiro[cyclopropa[4-5]cyclopenta[1-2-a]cyclopropa[l]phenanthrene-8-2'-furan]-3-5'(4h-4'h)-dione

>  <IUPAC_name>
10-14-dimethylspiro[hexacyclo[9.8.0.02-4.05-10.014-19.016-18]nonadec-5-ene-15-5'-oxolane]-2'-7-dione

>  <SMILES>
CC12CCC(=O)C=C1C1CC1C1C2CCC2(C)C1C1CC1C21CCC(=O)O1

>  <CID>
12803450

>  <logBB>


>  <BBB+/BBB->
BBB-

>  <Inchi>
InChI=1S/C24H30O3/c1-22-6-3-12(25)9-17(22)13-10-14(13)20-16(22)4-7-23(2)21(20)15-11-18(15)24(23)8-5-19(26)27-24/h9-13-16-18-20-21H-3-8-10-11H2-1-2H3

>  <threshold>


>  <reference>
R14|R23|

>  <group>
C

>  <Class>
-1

>  <ABC>
23.25

>  <ABCGG>
19.78

>  <nAcid>
0

>  <nBase>
0

>  <nAromAtom>
0

>  <nAromBond>
0

>  <nAtom>
57

>  <nHeavyAtom>
27

>  <nSpiro>
1

>  <nBridgehead>
0

>  <nHetero>
3

>  <nN>
0

>  <nO>
3

>  <nF>
0

>  <BalabanJ>
1.29

>  <BertzCT>
827.48

>  <nBonds>
63

>  <nBondsO>
33

>  <nBondsS>
60

>  <nBondsD>
3

>  <nBondsT>
0

>  <nBondsA>
0

>  <nBondsM>
3

>  <nBondsKS>
60

>  <nBondsKD>
3

>  <RNCG>
0.29

>  <RPCG>
0.19

>  <FCSP3>
0.83

>  <SZ>
33

>  <Sm>
30.51

>  <Sv>
34.27

>  <Sse>
56.31

>  <Sp>
37.42

>  <Si>
63.86

>  <MZ>
0.58

>  <Mm>
0.54

>  <Mv>
0.6

>  <Mse>
0.99

>  <Mp>
0.66

>  <Mi>
1.12

>  <NsCH3>
2

>  <NdCH2>
0

>  <NssCH2>
8

>  <NtCH>
0

>  <NdsCH>
1

>  <NaaCH>
0

>  <NsssCH>
7

>  <NddC>
0

>  <NtsC>
0

>  <NdssC>
3

>  <NaasC>
0

>  <NaaaC>
0

>  <NssssC>
3

>  <NsNH3>
0

>  <NsNH2>
0

>  <NssNH2>
0

>  <NdNH>
0

>  <NssNH>
0

>  <NaaNH>
0

>  <NtN>
0

>  <NsssNH>
0

>  <NdsN>
0

>  <NaaN>
0

>  <NsssN>
0

>  <NddsN>
0

>  <NaasN>
0

>  <NssssN>
0

>  <NsOH>
0

>  <NdO>
2

>  <NssO>
1

>  <NaaO>
0

>  <NsF>
0

>  <NsSiH3>
0

>  <NssSiH2>
0

>  <NsssSiH>
0

>  <NssssSi>
0

>  <NsPH2>
0

>  <NssPH>
0

>  <NsssP>
0

>  <NdsssP>
0

>  <NsssssP>
0

>  <NsSH>
0

>  <NdS>
0

>  <NssS>
0

>  <NaaS>
0

>  <NdssS>
0

>  <NddssS>
0

>  <NsCl>
0

>  <NsBr>
0

>  <NsI>
0

>  <fragCpx>
387.03

>  <fMF>
0.4

>  <nHBAcc>
3

>  <nHBDon>
0

>  <Kier1>
16.76

>  <Kier2>
4.83

>  <Lipinski>
1

>  <GhoseFilter>
1

>  <FilterItLogS>
-4.31

>  <VMcGowan>
277.71

>  <LabuteASA>
160.84

>  <PEOE_VSA1>
4.74

>  <PEOE_VSA2>
9.59

>  <PEOE_VSA3>
0

>  <PEOE_VSA4>
0

>  <PEOE_VSA5>
0

>  <PEOE_VSA6>
19.42

>  <PEOE_VSA7>
85.52

>  <PEOE_VSA8>
24.17

>  <PEOE_VSA9>
0

>  <PEOE_VSA10>
5.6

>  <PEOE_VSA11>
5.78

>  <PEOE_VSA12>
0

>  <PEOE_VSA13>
0

>  <SMR_VSA1>
14.33

>  <SMR_VSA2>
0

>  <SMR_VSA3>
0

>  <SMR_VSA4>
52.26

>  <SMR_VSA5>
70.82

>  <SMR_VSA6>
0

>  <SMR_VSA7>
11.65

>  <SMR_VSA8>
0

>  <SMR_VSA9>
0

>  <SlogP_VSA1>
0

>  <SlogP_VSA2>
17.35

>  <SlogP_VSA3>
14.33

>  <SlogP_VSA4>
52.26

>  <SlogP_VSA5>
65.21

>  <SlogP_VSA6>
11.65

>  <SlogP_VSA7>
0

>  <SlogP_VSA8>
0

>  <SlogP_VSA9>
0

>  <SlogP_VSA10>
0

>  <SlogP_VSA11>
0

>  <EState_VSA1>
0

>  <EState_VSA2>
22.4

>  <EState_VSA3>
24.04

>  <EState_VSA4>
48.85

>  <EState_VSA5>
31.26

>  <EState_VSA6>
0

>  <EState_VSA7>
0

>  <EState_VSA8>
19.92

>  <EState_VSA9>
4.74

>  <EState_VSA10>
9.59

>  <VSA_EState1>
6.22

>  <VSA_EState2>
24.3

>  <VSA_EState3>
0

>  <VSA_EState4>
1.85

>  <VSA_EState5>
5.65

>  <VSA_EState6>
0

>  <VSA_EState7>
10.58

>  <VSA_EState8>
4.99

>  <VSA_EState9>
0

>  <apol>
62.49

>  <bpol>
33.57

>  <nRing>
7

>  <nHRing>
1

>  <naRing>
0

>  <naHRing>
0

>  <nARing 2>
7

>  <nAHRing 2>
1

>  <nFRing>
1

>  <nFHRing>
0

>  <nFaRing>
0

>  <nFaHRing>
0

>  <nFARing 2>
1

>  <nFAHRing 2>
0

>  <nRot>
0

>  <SLogP>
4.31

>  <SMR>
99.49

>  <TopoPSA(NO)>
43.37

>  <TopoPSA>
43.37

>  <JGI1>
0.24

>  <JGI2>
0.11

>  <JGI3>
0.07

>  <JGI4>
0.05

>  <JGI5>
0.04

>  <Diameter>
12

>  <Radius>
6

>  <TMWC10>
143.32

>  <TSRW10>
88.07

>  <MW>
366.22

>  <AMW>
6.42

>  <WPath>
1533

>  <WPol>
62

>  <Zagreb1>
182

>  <Zagreb2>
245

>  <mZagreb2>
5.26

>  <yes>


>  <nAR-cont>
0

>  <nHA-cont>
0.860070871

>  <MWHBN>
0.156765404

>  <MWHBN-cont>
0.94885939

>  <TPSA-cont>
0.697250469

>  <pka_cont>
0.97

>  <yes.1>


>  <BBB_SCORE>
4.162860894

>  <MMFF94 Energy>
91.985

$$$$
Compound 2430
Actelion Java MolfileCreator 2.0

  0  0  0  0  0  0              0 V3000
M  V30 BEGIN CTAB
M  V30 COUNTS 51 55 0 0 0
M  V30 BEGIN ATOM
M  V30 1 O -1.781 -1.1331 3.5644 0
M  V30 2 C -1.431 -0.5344 2.3133 0
M  V30 3 C -2.0577 -1.9169 2.3844 0
M  V30 4 C 0.0714 -0.4113 2.0379 0
M  V30 5 C -2.2974 0.6137 1.8954 0
M  V30 6 C -1.2249 -3.0604 1.9555 0
M  V30 7 C 0.2361 -0.1268 0.4903 0
M  V30 8 C 0.7978 -1.7321 2.4642 0
M  V30 9 C 0.6706 0.7219 2.9025 0
M  V30 10 C -2.1371 0.846 0.3973 0
M  V30 11 O -1.9193 -4.1802 1.5231 0
M  V30 12 C 0.1254 -2.9979 1.9819 0
M  V30 13 C -0.6609 1.0549 0.0093 0
M  V30 14 C 1.6942 0.1123 0.0519 0
M  V30 15 C 0.9434 -4.0857 1.5696 0
M  V30 16 C -0.5226 1.3454 -1.501 0
M  V30 17 C 1.8133 0.321 -1.4583 0
M  V30 18 N 1.5682 -4.9973 1.2196 0
M  V30 19 C 0.9362 1.4798 -1.9838 0
M  V30 20 C -1.1302 0.2886 -2.4426 0
M  V30 21 C 0.7478 1.4219 -3.5144 0
M  V30 22 C 1.5547 2.8283 -1.5808 0
M  V30 23 C -0.3234 0.357 -3.7407 0
M  V30 24 O 1.9485 1.1087 -4.1947 0
M  V30 25 H -3.105 -2.0171 2.1163 0
M  V30 26 H -3.3526 0.4173 2.1203 0
M  V30 27 H -2.0261 1.518 2.4512 0
M  V30 28 H -0.1114 -1.0261 -0.0357 0
M  V30 29 H 1.8437 -1.7088 2.1392 0
M  V30 30 H 0.8429 -1.7933 3.5616 0
M  V30 31 H 0.2837 1.708 2.632 0
M  V30 32 H 1.7617 0.7578 2.8189 0
M  V30 33 H 0.4315 0.5707 3.962 0
M  V30 34 H -2.73 1.7194 0.1012 0
M  V30 35 H -2.548 -0.0181 -0.1386 0
M  V30 36 H -1.3105 -4.9106 1.3137 0
M  V30 37 H -0.3209 1.9622 0.5259 0
M  V30 38 H 2.1166 0.9784 0.5716 0
M  V30 39 H 2.3199 -0.7458 0.315 0
M  V30 40 H -1.048 2.291 -1.7045 0
M  V30 41 H 2.8661 0.5005 -1.7105 0
M  V30 42 H 1.5445 -0.6213 -1.9518 0
M  V30 43 H -1.0659 -0.7231 -2.0299 0
M  V30 44 H -2.1904 0.4932 -2.6279 0
M  V30 45 H 0.3843 2.3858 -3.8932 0
M  V30 46 H 2.5648 2.9344 -1.9917 0
M  V30 47 H 1.6219 2.9429 -0.4948 0
M  V30 48 H 0.9574 3.6667 -1.9567 0
M  V30 49 H 0.1169 -0.6189 -3.9753 0
M  V30 50 H -0.9607 0.6249 -4.5906 0
M  V30 51 H 1.7353 1.0182 -5.1392 0
M  V30 END ATOM
M  V30 BEGIN BOND
M  V30 1 1 1 2
M  V30 2 1 1 3
M  V30 3 1 2 4
M  V30 4 1 2 5
M  V30 5 1 3 6
M  V30 6 1 4 7
M  V30 7 1 4 8
M  V30 8 1 4 9
M  V30 9 1 5 10
M  V30 10 1 6 11
M  V30 11 2 6 12
M  V30 12 1 7 13
M  V30 13 1 7 14
M  V30 14 1 12 15
M  V30 15 1 13 16
M  V30 16 1 14 17
M  V30 17 3 15 18
M  V30 18 1 16 19
M  V30 19 1 16 20
M  V30 20 1 19 21
M  V30 21 1 19 22
M  V30 22 1 20 23
M  V30 23 1 21 24
M  V30 24 1 2 3
M  V30 25 1 8 12
M  V30 26 1 10 13
M  V30 27 1 17 19
M  V30 28 1 21 23
M  V30 29 1 3 25
M  V30 30 1 5 26
M  V30 31 1 5 27
M  V30 32 1 7 28
M  V30 33 1 8 29
M  V30 34 1 8 30
M  V30 35 1 9 31
M  V30 36 1 9 32
M  V30 37 1 9 33
M  V30 38 1 10 34
M  V30 39 1 10 35
M  V30 40 1 11 36
M  V30 41 1 13 37
M  V30 42 1 14 38
M  V30 43 1 14 39
M  V30 44 1 16 40
M  V30 45 1 17 41
M  V30 46 1 17 42
M  V30 47 1 20 43
M  V30 48 1 20 44
M  V30 49 1 21 45
M  V30 50 1 22 46
M  V30 51 1 22 47
M  V30 52 1 22 48
M  V30 53 1 23 49
M  V30 54 1 23 50
M  V30 55 1 24 51
M  V30 END BOND
M  V30 END CTAB
M  END
>  <Column 1>
2997

>  <level_0>
5140

>  <index>
5141

>  <Unnamed: 0>
5141

>  <NO.>
5153

>  <Name>
modrastane

>  <IUPAC_name>
5-15-dihydroxy-2-16-dimethyl-7-oxapentacyclo[9.7.0.02-8.06-8.012-16]octadec-4-ene-4-carbonitrile

>  <SMILES>
CC12CCC3C(CCC45OC4C(O)=C(C#N)CC35C)C1CCC2O

>  <CID>
535161

>  <logBB>


>  <BBB+/BBB->
BBB-

>  <Inchi>
InChI=1S/C20H27NO3/c1-18-7-6-14-12(13(18)3-4-15(18)22)5-8-20-17(24-20)16(23)11(10-21)9-19(14-20)2/h12-15-17-22-23H-3-9H2-1-2H3

>  <threshold>


>  <reference>
R14|

>  <group>
C

>  <Class>
-1

>  <ABC>
19.83

>  <ABCGG>
16.89

>  <nAcid>
0

>  <nBase>
0

>  <nAromAtom>
0

>  <nAromBond>
0

>  <nAtom>
51

>  <nHeavyAtom>
24

>  <nSpiro>
1

>  <nBridgehead>
0

>  <nHetero>
4

>  <nN>
1

>  <nO>
3

>  <nF>
0

>  <BalabanJ>
1.5

>  <BertzCT>
680.86

>  <nBonds>
55

>  <nBondsO>
28

>  <nBondsS>
53

>  <nBondsD>
1

>  <nBondsT>
1

>  <nBondsA>
0

>  <nBondsM>
2

>  <nBondsKS>
53

>  <nBondsKD>
1

>  <RNCG>
0.27

>  <RPCG>
0.15

>  <FCSP3>
0.85

>  <SZ>
29.67

>  <Sm>
27.43

>  <Sv>
30.22

>  <Sse>
50.64

>  <Sp>
32.88

>  <Si>
57.53

>  <MZ>
0.58

>  <Mm>
0.54

>  <Mv>
0.59

>  <Mse>
0.99

>  <Mp>
0.64

>  <Mi>
1.13

>  <NsCH3>
2

>  <NdCH2>
0

>  <NssCH2>
7

>  <NtCH>
0

>  <NdsCH>
0

>  <NaaCH>
0

>  <NsssCH>
5

>  <NddC>
0

>  <NtsC>
1

>  <NdssC>
2

>  <NaasC>
0

>  <NaaaC>
0

>  <NssssC>
3

>  <NsNH3>
0

>  <NsNH2>
0

>  <NssNH2>
0

>  <NdNH>
0

>  <NssNH>
0

>  <NaaNH>
0

>  <NtN>
1

>  <NsssNH>
0

>  <NdsN>
0

>  <NaaN>
0

>  <NsssN>
0

>  <NddsN>
0

>  <NaasN>
0

>  <NssssN>
0

>  <NsOH>
2

>  <NdO>
0

>  <NssO>
1

>  <NaaO>
0

>  <NsF>
0

>  <NsSiH3>
0

>  <NssSiH2>
0

>  <NsssSiH>
0

>  <NssssSi>
0

>  <NsPH2>
0

>  <NssPH>
0

>  <NsssP>
0

>  <NdsssP>
0

>  <NsssssP>
0

>  <NsSH>
0

>  <NdS>
0

>  <NssS>
0

>  <NaaS>
0

>  <NdssS>
0

>  <NddssS>
0

>  <NsCl>
0

>  <NsBr>
0

>  <NsI>
0

>  <fragCpx>
232.04

>  <fMF>
0.35

>  <nHBAcc>
4

>  <nHBDon>
2

>  <Kier1>
16.19

>  <Kier2>
4.83

>  <Lipinski>
1

>  <GhoseFilter>
1

>  <FilterItLogS>
-2.8

>  <VMcGowan>
253.05

>  <LabuteASA>
143.05

>  <PEOE_VSA1>
14.95

>  <PEOE_VSA2>
0

>  <PEOE_VSA3>
0

>  <PEOE_VSA4>
5.26

>  <PEOE_VSA5>
0

>  <PEOE_VSA6>
13.85

>  <PEOE_VSA7>
68.11

>  <PEOE_VSA8>
5.41

>  <PEOE_VSA9>
17.75

>  <PEOE_VSA10>
17.46

>  <PEOE_VSA11>
0

>  <PEOE_VSA12>
0

>  <PEOE_VSA13>
0

>  <SMR_VSA1>
14.95

>  <SMR_VSA2>
5.26

>  <SMR_VSA3>
0

>  <SMR_VSA4>
28.58

>  <SMR_VSA5>
76.6

>  <SMR_VSA6>
0

>  <SMR_VSA7>
11.33

>  <SMR_VSA8>
0

>  <SMR_VSA9>
6.07

>  <SlogP_VSA1>
0

>  <SlogP_VSA2>
28.02

>  <SlogP_VSA3>
4.74

>  <SlogP_VSA4>
39.91

>  <SlogP_VSA5>
58.79

>  <SlogP_VSA6>
11.33

>  <SlogP_VSA7>
0

>  <SlogP_VSA8>
0

>  <SlogP_VSA9>
0

>  <SlogP_VSA10>
0

>  <SlogP_VSA11>
0

>  <EState_VSA1>
0

>  <EState_VSA2>
34.4

>  <EState_VSA3>
29.75

>  <EState_VSA4>
38.52

>  <EState_VSA5>
0

>  <EState_VSA6>
0

>  <EState_VSA7>
0

>  <EState_VSA8>
19.92

>  <EState_VSA9>
4.74

>  <EState_VSA10>
15.47

>  <VSA_EState1>
6.11

>  <VSA_EState2>
0

>  <VSA_EState3>
30.35

>  <VSA_EState4>
0.34

>  <VSA_EState5>
1.96

>  <VSA_EState6>
2.23

>  <VSA_EState7>
6.65

>  <VSA_EState8>
4.6

>  <VSA_EState9>
0

>  <apol>
54.91

>  <bpol>
29.39

>  <nRing>
5

>  <nHRing>
1

>  <naRing>
0

>  <naHRing>
0

>  <nARing 2>
5

>  <nAHRing 2>
1

>  <nFRing>
1

>  <nFHRing>
1

>  <nFaRing>
0

>  <nFaHRing>
0

>  <nFARing 2>
1

>  <nFAHRing 2>
1

>  <nRot>
0

>  <SLogP>
3.47

>  <SMR>
87.88

>  <TopoPSA(NO)>
76.78

>  <TopoPSA>
76.78

>  <JGI1>
0.27

>  <JGI2>
0.15

>  <JGI3>
0.08

>  <JGI4>
0.06

>  <JGI5>
0.04

>  <Diameter>
10

>  <Radius>
5

>  <TMWC10>
133.06

>  <TSRW10>
82.08

>  <MW>
329.2

>  <AMW>
6.45

>  <WPath>
1130

>  <WPol>
55

>  <Zagreb1>
152

>  <Zagreb2>
202

>  <mZagreb2>
4.92

>  <yes>


>  <nAR-cont>
0

>  <nHA-cont>
0.94700071

>  <MWHBN>
0.330690209

>  <MWHBN-cont>
0.740421478

>  <TPSA-cont>
0.464027922

>  <pka_cont>
0.97

>  <yes.1>


>  <BBB_SCORE>
3.470688772

>  <MMFF94 Energy>
70.773

$$$$
Compound 2431
Actelion Java MolfileCreator 2.0

  0  0  0  0  0  0              0 V3000
M  V30 BEGIN CTAB
M  V30 COUNTS 48 51 0 0 0
M  V30 BEGIN ATOM
M  V30 1 O -3.9554 2.824 3.1472 0
M  V30 2 C -3.1266 2.015 2.7322 0
M  V30 3 C -3.3448 1.2679 1.4437 0
M  V30 4 C -1.8948 1.6921 3.5296 0
M  V30 5 O -4.5846 1.4367 0.8586 0
M  V30 6 C -2.3854 0.4527 0.948 0
M  V30 7 C -0.7251 1.4619 2.593 0
M  V30 8 C -0.9763 0.3209 1.5657 0
M  V30 9 C -2.6186 -0.4522 -0.2446 0
M  V30 10 C 0.1164 0.4437 0.4281 0
M  V30 11 C -0.8862 -1.0345 2.3067 0
M  V30 12 C -1.5713 -0.2302 -1.326 0
M  V30 13 C -0.1484 -0.4716 -0.792 0
M  V30 14 C 1.5483 0.1899 0.9289 0
M  V30 15 C 0.8947 -0.2711 -1.9325 0
M  V30 16 C 2.5711 0.5552 -0.1375 0
M  V30 17 C 2.3698 -0.1748 -1.465 0
M  V30 18 C 0.9096 -1.4859 -2.8834 0
M  V30 19 C 2.7513 -1.6489 -1.4028 0
M  V30 20 C 3.2679 0.4782 -2.5318 0
M  V30 21 C 1.8155 -2.5136 -2.2098 0
M  V30 22 O 3.709 -2.0939 -0.7825 0
M  V30 23 H -1.6698 2.5431 4.1823 0
M  V30 24 H -2.0978 0.8241 4.1641 0
M  V30 25 H -4.5306 1.2402 -0.0867 0
M  V30 26 H -0.5227 2.4007 2.0587 0
M  V30 27 H 0.1627 1.2534 3.2008 0
M  V30 28 H -2.589 -1.4971 0.0876 0
M  V30 29 H -3.6078 -0.3254 -0.6924 0
M  V30 30 H 0.0753 1.4805 0.0589 0
M  V30 31 H -0.8885 -1.8863 1.6201 0
M  V30 32 H -1.7306 -1.176 2.9913 0
M  V30 33 H 0.028 -1.1045 2.9061 0
M  V30 34 H -1.6576 0.7917 -1.7179 0
M  V30 35 H -1.7898 -0.9052 -2.16 0
M  V30 36 H -0.0925 -1.5134 -0.4519 0
M  V30 37 H 1.6777 -0.8603 1.2151 0
M  V30 38 H 1.7674 0.7903 1.8169 0
M  V30 39 H 0.6236 0.6338 -2.4917 0
M  V30 40 H 2.5144 1.6392 -0.3058 0
M  V30 41 H 3.5756 0.359 0.2582 0
M  V30 42 H -0.079 -1.9047 -3.0877 0
M  V30 43 H 1.3327 -1.1972 -3.8531 0
M  V30 44 H 4.3093 0.5204 -2.1909 0
M  V30 45 H 2.9423 1.5024 -2.7446 0
M  V30 46 H 3.2716 -0.0759 -3.4761 0
M  V30 47 H 2.3653 -3.1071 -2.9434 0
M  V30 48 H 1.2538 -3.1624 -1.5323 0
M  V30 END ATOM
M  V30 BEGIN BOND
M  V30 1 2 1 2
M  V30 2 1 2 3
M  V30 3 1 2 4
M  V30 4 1 3 5
M  V30 5 2 3 6
M  V30 6 1 4 7
M  V30 7 1 6 8
M  V30 8 1 6 9
M  V30 9 1 8 10
M  V30 10 1 8 11
M  V30 11 1 9 12
M  V30 12 1 10 13
M  V30 13 1 10 14
M  V30 14 1 13 15
M  V30 15 1 14 16
M  V30 16 1 15 17
M  V30 17 1 15 18
M  V30 18 1 17 19
M  V30 19 1 17 20
M  V30 20 1 18 21
M  V30 21 2 19 22
M  V30 22 1 7 8
M  V30 23 1 12 13
M  V30 24 1 16 17
M  V30 25 1 19 21
M  V30 26 1 4 23
M  V30 27 1 4 24
M  V30 28 1 5 25
M  V30 29 1 7 26
M  V30 30 1 7 27
M  V30 31 1 9 28
M  V30 32 1 9 29
M  V30 33 1 10 30
M  V30 34 1 11 31
M  V30 35 1 11 32
M  V30 36 1 11 33
M  V30 37 1 12 34
M  V30 38 1 12 35
M  V30 39 1 13 36
M  V30 40 1 14 37
M  V30 41 1 14 38
M  V30 42 1 15 39
M  V30 43 1 16 40
M  V30 44 1 16 41
M  V30 45 1 18 42
M  V30 46 1 18 43
M  V30 47 1 20 44
M  V30 48 1 20 45
M  V30 49 1 20 46
M  V30 50 1 21 47
M  V30 51 1 21 48
M  V30 END BOND
M  V30 END CTAB
M  END
>  <Column 1>
2998

>  <level_0>
5141

>  <index>
5142

>  <Unnamed: 0>
5142

>  <NO.>
5154

>  <Name>
formestane

>  <IUPAC_name>
4-hydroxy-10-13-dimethyl-2-6-7-8-9-11-12-14-15-16-decahydro-1h-cyclopenta[a]phenanthrene-3-17-dione

>  <SMILES>
CC12CCC3C(CCC4=C(O)C(=O)CCC43C)C1CCC2=O

>  <CID>
3408

>  <logBB>


>  <BBB+/BBB->
BBB-

>  <Inchi>
InChI=1S/C19H26O3/c1-18-10-8-15(20)17(22)14(18)4-3-11-12-5-6-16(21)19(12-2)9-7-13(11)18/h11-13-22H-3-10H2-1-2H3

>  <threshold>


>  <reference>
R14|R23|

>  <group>
C

>  <Class>
-1

>  <ABC>
17.92

>  <ABCGG>
14.62

>  <nAcid>
0

>  <nBase>
0

>  <nAromAtom>
0

>  <nAromBond>
0

>  <nAtom>
48

>  <nHeavyAtom>
22

>  <nSpiro>
0

>  <nBridgehead>
0

>  <nHetero>
3

>  <nN>
0

>  <nO>
3

>  <nF>
0

>  <BalabanJ>
1.64

>  <BertzCT>
589.49

>  <nBonds>
51

>  <nBondsO>
25

>  <nBondsS>
48

>  <nBondsD>
3

>  <nBondsT>
0

>  <nBondsA>
0

>  <nBondsM>
3

>  <nBondsKS>
48

>  <nBondsKD>
3

>  <RNCG>
0.32

>  <RPCG>
0.19

>  <FCSP3>
0.79

>  <SZ>
27.33

>  <Sm>
25.18

>  <Sv>
28.19

>  <Sse>
47.53

>  <Sp>
30.82

>  <Si>
54.03

>  <MZ>
0.57

>  <Mm>
0.52

>  <Mv>
0.59

>  <Mse>
0.99

>  <Mp>
0.64

>  <Mi>
1.13

>  <NsCH3>
2

>  <NdCH2>
0

>  <NssCH2>
8

>  <NtCH>
0

>  <NdsCH>
0

>  <NaaCH>
0

>  <NsssCH>
3

>  <NddC>
0

>  <NtsC>
0

>  <NdssC>
4

>  <NaasC>
0

>  <NaaaC>
0

>  <NssssC>
2

>  <NsNH3>
0

>  <NsNH2>
0

>  <NssNH2>
0

>  <NdNH>
0

>  <NssNH>
0

>  <NaaNH>
0

>  <NtN>
0

>  <NsssNH>
0

>  <NdsN>
0

>  <NaaN>
0

>  <NsssN>
0

>  <NddsN>
0

>  <NaasN>
0

>  <NssssN>
0

>  <NsOH>
1

>  <NdO>
2

>  <NssO>
0

>  <NaaO>
0

>  <NsF>
0

>  <NsSiH3>
0

>  <NssSiH2>
0

>  <NsssSiH>
0

>  <NssssSi>
0

>  <NsPH2>
0

>  <NssPH>
0

>  <NsssP>
0

>  <NdsssP>
0

>  <NsssssP>
0

>  <NsSH>
0

>  <NdS>
0

>  <NssS>
0

>  <NaaS>
0

>  <NdssS>
0

>  <NddssS>
0

>  <NsCl>
0

>  <NsBr>
0

>  <NsI>
0

>  <fragCpx>
163.03

>  <fMF>
0.35

>  <nHBAcc>
3

>  <nHBDon>
1

>  <Kier1>
15.52

>  <Kier2>
5

>  <Lipinski>
1

>  <GhoseFilter>
1

>  <FilterItLogS>
-3.82

>  <VMcGowan>
239.84

>  <LabuteASA>
131.71

>  <PEOE_VSA1>
5.11

>  <PEOE_VSA2>
9.59

>  <PEOE_VSA3>
0

>  <PEOE_VSA4>
0

>  <PEOE_VSA5>
0

>  <PEOE_VSA6>
13.85

>  <PEOE_VSA7>
67.27

>  <PEOE_VSA8>
18.26

>  <PEOE_VSA9>
0

>  <PEOE_VSA10>
5.78

>  <PEOE_VSA11>
11.54

>  <PEOE_VSA12>
0

>  <PEOE_VSA13>
0

>  <SMR_VSA1>
14.7

>  <SMR_VSA2>
0

>  <SMR_VSA3>
0

>  <SMR_VSA4>
28.58

>  <SMR_VSA5>
65.21

>  <SMR_VSA6>
0

>  <SMR_VSA7>
11.33

>  <SMR_VSA8>
0

>  <SMR_VSA9>
0

>  <SlogP_VSA1>
0

>  <SlogP_VSA2>
16.67

>  <SlogP_VSA3>
9.59

>  <SlogP_VSA4>
28.58

>  <SlogP_VSA5>
65.21

>  <SlogP_VSA6>
11.33

>  <SlogP_VSA7>
0

>  <SlogP_VSA8>
0

>  <SlogP_VSA9>
0

>  <SlogP_VSA10>
0

>  <SlogP_VSA11>
0

>  <EState_VSA1>
0

>  <EState_VSA2>
22.37

>  <EState_VSA3>
29.96

>  <EState_VSA4>
50.52

>  <EState_VSA5>
0

>  <EState_VSA6>
0

>  <EState_VSA7>
0

>  <EState_VSA8>
13.85

>  <EState_VSA9>
0

>  <EState_VSA10>
14.7

>  <VSA_EState1>
0

>  <VSA_EState2>
24.24

>  <VSA_EState3>
10.28

>  <VSA_EState4>
0.91

>  <VSA_EState5>
2.14

>  <VSA_EState6>
0

>  <VSA_EState7>
7.13

>  <VSA_EState8>
4.46

>  <VSA_EState9>
0

>  <apol>
51.47

>  <bpol>
27.82

>  <nRing>
4

>  <nHRing>
0

>  <naRing>
0

>  <naHRing>
0

>  <nARing 2>
4

>  <nAHRing 2>
0

>  <nFRing>
1

>  <nFHRing>
0

>  <nFaRing>
0

>  <nFaHRing>
0

>  <nFARing 2>
1

>  <nFAHRing 2>
0

>  <nRot>
0

>  <SLogP>
3.97

>  <SMR>
83.29

>  <TopoPSA(NO)>
54.37

>  <TopoPSA>
54.37

>  <JGI1>
0.26

>  <JGI2>
0.14

>  <JGI3>
0.07

>  <JGI4>
0.06

>  <JGI5>
0.04

>  <Diameter>
10

>  <Radius>
5

>  <TMWC10>
125.33

>  <TSRW10>
72.01

>  <MW>
302.19

>  <AMW>
6.3

>  <WPath>
904

>  <WPol>
48

>  <Zagreb1>
132

>  <Zagreb2>
169

>  <mZagreb2>
4.53

>  <yes>


>  <nAR-cont>
0.199399

>  <nHA-cont>
0.983774276

>  <MWHBN>
0.230101763

>  <MWHBN-cont>
0.986668604

>  <TPSA-cont>
0.620463638

>  <pka_cont>
0.97

>  <yes.1>


>  <BBB_SCORE>
4.389103459

>  <MMFF94 Energy>
79.512

$$$$
Compound 2432
Actelion Java MolfileCreator 2.0

  0  0  0  0  0  0              0 V3000
M  V30 BEGIN CTAB
M  V30 COUNTS 46 49 0 0 0
M  V30 BEGIN ATOM
M  V30 1 S -5.4039 2.5355 -2.3717 0
M  V30 2 O -5.4101 3.5061 -1.2974 0
M  V30 3 O -4.643 2.7413 -3.5835 0
M  V30 4 O -5.0648 1.0708 -1.7539 0
M  V30 5 O -6.9531 2.3815 -2.7934 0
M  V30 6 C -3.8381 0.7507 -1.2317 0
M  V30 7 C -2.7311 1.597 -1.1747 0
M  V30 8 C -3.7353 -0.5421 -0.7203 0
M  V30 9 C -1.5155 1.1568 -0.6168 0
M  V30 10 C -2.5391 -0.9858 -0.1557 0
M  V30 11 C -1.4165 -0.1452 -0.0966 0
M  V30 12 C -0.3685 2.1328 -0.5352 0
M  V30 13 C -0.1256 -0.6727 0.5116 0
M  V30 14 C 0.9768 1.4647 -0.2637 0
M  V30 15 C 0.856 0.4598 0.8936 0
M  V30 16 C 0.526 -1.703 -0.4272 0
M  V30 17 C 2.2379 -0.0523 1.3533 0
M  V30 18 C 1.7878 -2.3002 0.1843 0
M  V30 19 C 2.8346 -1.2423 0.5611 0
M  V30 20 C 2.203 -0.5637 2.8043 0
M  V30 21 C 3.7678 -1.8484 1.6083 0
M  V30 22 C 3.6528 -0.7915 -0.6503 0
M  V30 23 C 3.5288 -1.2872 2.985 0
M  V30 24 O 4.6202 -2.6954 1.3688 0
M  V30 25 H -7.4939 2.5859 -2.004 0
M  V30 26 H -2.7757 2.6144 -1.5561 0
M  V30 27 H -4.5892 -1.2142 -0.7583 0
M  V30 28 H -2.4875 -1.9987 0.2386 0
M  V30 29 H -0.5869 2.8469 0.2689 0
M  V30 30 H -0.2951 2.7014 -1.4702 0
M  V30 31 H -0.4015 -1.1879 1.4427 0
M  V30 32 H 1.7152 2.24 -0.0271 0
M  V30 33 H 1.3187 0.9716 -1.1784 0
M  V30 34 H 0.418 1.0144 1.7377 0
M  V30 35 H 0.7563 -1.2542 -1.4009 0
M  V30 36 H -0.1737 -2.5223 -0.6351 0
M  V30 37 H 2.9471 0.7887 1.3376 0
M  V30 38 H 1.5007 -2.8854 1.0687 0
M  V30 39 H 2.2204 -3.0269 -0.5153 0
M  V30 40 H 1.3724 -1.2608 2.9646 0
M  V30 41 H 2.0922 0.2536 3.5245 0
M  V30 42 H 4.4129 -0.0554 -0.3644 0
M  V30 43 H 3.0293 -0.3479 -1.4295 0
M  V30 44 H 4.185 -1.637 -1.102 0
M  V30 45 H 4.3356 -0.5906 3.2302 0
M  V30 46 H 3.46 -2.0813 3.7315 0
M  V30 END ATOM
M  V30 BEGIN BOND
M  V30 1 2 1 2
M  V30 2 2 1 3
M  V30 3 1 1 4
M  V30 4 1 1 5
M  V30 5 1 4 6
M  V30 6 2 6 7
M  V30 7 1 6 8
M  V30 8 1 7 9
M  V30 9 2 8 10
M  V30 10 2 9 11
M  V30 11 1 9 12
M  V30 12 1 11 13
M  V30 13 1 12 14
M  V30 14 1 13 15
M  V30 15 1 13 16
M  V30 16 1 15 17
M  V30 17 1 16 18
M  V30 18 1 17 19
M  V30 19 1 17 20
M  V30 20 1 19 21
M  V30 21 1 19 22
M  V30 22 1 20 23
M  V30 23 2 21 24
M  V30 24 1 10 11
M  V30 25 1 14 15
M  V30 26 1 18 19
M  V30 27 1 21 23
M  V30 28 1 5 25
M  V30 29 1 7 26
M  V30 30 1 8 27
M  V30 31 1 10 28
M  V30 32 1 12 29
M  V30 33 1 12 30
M  V30 34 1 13 31
M  V30 35 1 14 32
M  V30 36 1 14 33
M  V30 37 1 15 34
M  V30 38 1 16 35
M  V30 39 1 16 36
M  V30 40 1 17 37
M  V30 41 1 18 38
M  V30 42 1 18 39
M  V30 43 1 20 40
M  V30 44 1 20 41
M  V30 45 1 22 42
M  V30 46 1 22 43
M  V30 47 1 22 44
M  V30 48 1 23 45
M  V30 49 1 23 46
M  V30 END BOND
M  V30 END CTAB
M  END
>  <Column 1>
3000

>  <level_0>
5144

>  <index>
5145

>  <Unnamed: 0>
5145

>  <NO.>
5157

>  <Name>
estropipate

>  <IUPAC_name>
(13-methyl-17-oxo-7-8-9-11-12-14-15-16-octahydro-6h-cyclopenta[a]phenanthren-3-yl) hydrogen sulfate

>  <SMILES>
CC12CCC3c4ccc(OS(=O)(=O)O)cc4CCC3C1CCC2=O

>  <CID>
699

>  <logBB>


>  <BBB+/BBB->
BBB-

>  <Inchi>
InChI=1S/C18H22O5S/c1-18-9-8-14-13-5-3-12(23-24(20-21)22)10-11(13)2-4-15(14)16(18)6-7-17(18)19/h3-5-10-14-16H-2-4-6-9H2-1H3-(H-20-21-22)

>  <threshold>


>  <reference>
R14|R23|

>  <group>
C

>  <Class>
-1

>  <ABC>
19.55

>  <ABCGG>
15.05

>  <nAcid>
1

>  <nBase>
0

>  <nAromAtom>
6

>  <nAromBond>
6

>  <nAtom>
46

>  <nHeavyAtom>
24

>  <nSpiro>
0

>  <nBridgehead>
0

>  <nHetero>
6

>  <nN>
0

>  <nO>
5

>  <nF>
0

>  <BalabanJ>
1.45

>  <BertzCT>
799.63

>  <nBonds>
49

>  <nBondsO>
27

>  <nBondsS>
40

>  <nBondsD>
3

>  <nBondsT>
0

>  <nBondsA>
6

>  <nBondsM>
9

>  <nBondsKS>
43

>  <nBondsKD>
6

>  <RNCG>
0.21

>  <RPCG>
0.26

>  <FCSP3>
0.61

>  <SZ>
31

>  <Sm>
29.18

>  <Sv>
28.72

>  <Sse>
46.5

>  <Sp>
30.92

>  <Si>
51.54

>  <MZ>
0.67

>  <Mm>
0.63

>  <Mv>
0.62

>  <Mse>
1.01

>  <Mp>
0.67

>  <Mi>
1.12

>  <NsCH3>
1

>  <NdCH2>
0

>  <NssCH2>
6

>  <NtCH>
0

>  <NdsCH>
0

>  <NaaCH>
3

>  <NsssCH>
3

>  <NddC>
0

>  <NtsC>
0

>  <NdssC>
1

>  <NaasC>
3

>  <NaaaC>
0

>  <NssssC>
1

>  <NsNH3>
0

>  <NsNH2>
0

>  <NssNH2>
0

>  <NdNH>
0

>  <NssNH>
0

>  <NaaNH>
0

>  <NtN>
0

>  <NsssNH>
0

>  <NdsN>
0

>  <NaaN>
0

>  <NsssN>
0

>  <NddsN>
0

>  <NaasN>
0

>  <NssssN>
0

>  <NsOH>
1

>  <NdO>
3

>  <NssO>
1

>  <NaaO>
0

>  <NsF>
0

>  <NsSiH3>
0

>  <NssSiH2>
0

>  <NsssSiH>
0

>  <NssssSi>
0

>  <NsPH2>
0

>  <NssPH>
0

>  <NsssP>
0

>  <NdsssP>
0

>  <NsssssP>
0

>  <NsSH>
0

>  <NdS>
0

>  <NssS>
0

>  <NaaS>
0

>  <NdssS>
0

>  <NddssS>
1

>  <NsCl>
0

>  <NsBr>
0

>  <NsI>
0

>  <fragCpx>
177.06

>  <fMF>
0.37

>  <nHBAcc>
4

>  <nHBDon>
1

>  <Kier1>
17.42

>  <Kier2>
6.02

>  <Lipinski>
1

>  <GhoseFilter>
1

>  <FilterItLogS>
-3.62

>  <VMcGowan>
249.54

>  <LabuteASA>
141.91

>  <PEOE_VSA1>
4.18

>  <PEOE_VSA2>
9.35

>  <PEOE_VSA3>
0

>  <PEOE_VSA4>
8.42

>  <PEOE_VSA5>
0

>  <PEOE_VSA6>
12.99

>  <PEOE_VSA7>
73.12

>  <PEOE_VSA8>
11.84

>  <PEOE_VSA9>
0

>  <PEOE_VSA10>
11.53

>  <PEOE_VSA11>
0

>  <PEOE_VSA12>
0

>  <PEOE_VSA13>
0

>  <SMR_VSA1>
21.95

>  <SMR_VSA2>
0

>  <SMR_VSA3>
0

>  <SMR_VSA4>
17.25

>  <SMR_VSA5>
51.37

>  <SMR_VSA6>
0

>  <SMR_VSA7>
29.33

>  <SMR_VSA8>
0

>  <SMR_VSA9>
5.75

>  <SlogP_VSA1>
4.18

>  <SlogP_VSA2>
18.75

>  <SlogP_VSA3>
21.61

>  <SlogP_VSA4>
17.25

>  <SlogP_VSA5>
56.07

>  <SlogP_VSA6>
18.2

>  <SlogP_VSA7>
0

>  <SlogP_VSA8>
0

>  <SlogP_VSA9>
0

>  <SlogP_VSA10>
0

>  <SlogP_VSA11>
5.75

>  <EState_VSA1>
10.4

>  <EState_VSA2>
11.16

>  <EState_VSA3>
23.54

>  <EState_VSA4>
44.09

>  <EState_VSA5>
5.56

>  <EState_VSA6>
12.13

>  <EState_VSA7>
6.07

>  <EState_VSA8>
11.11

>  <EState_VSA9>
4.55

>  <EState_VSA10>
13.21

>  <VSA_EState1>
35.2

>  <VSA_EState2>
12.33

>  <VSA_EState3>
0

>  <VSA_EState4>
2.23

>  <VSA_EState5>
2.05

>  <VSA_EState6>
5.28

>  <VSA_EState7>
5.57

>  <VSA_EState8>
2.15

>  <VSA_EState9>
-4.49

>  <apol>
51.64

>  <bpol>
31.33

>  <nRing>
4

>  <nHRing>
0

>  <naRing>
1

>  <naHRing>
0

>  <nARing 2>
3

>  <nAHRing 2>
0

>  <nFRing>
1

>  <nFHRing>
0

>  <nFaRing>
0

>  <nFaHRing>
0

>  <nFARing 2>
1

>  <nFAHRing 2>
0

>  <nRot>
2

>  <SLogP>
3.29

>  <SMR>
88.24

>  <TopoPSA(NO)>
80.67

>  <TopoPSA>
89.05

>  <JGI1>
0.28

>  <JGI2>
0.1

>  <JGI3>
0.06

>  <JGI4>
0.05

>  <JGI5>
0.03

>  <Diameter>
12

>  <Radius>
6

>  <TMWC10>
128.78

>  <TSRW10>
73.97

>  <MW>
350.12

>  <AMW>
7.61

>  <WPath>
1305

>  <WPol>
44

>  <Zagreb1>
140

>  <Zagreb2>
171

>  <mZagreb2>
4.86

>  <yes>


>  <nAR-cont>
0.691115

>  <nHA-cont>
0.94700071

>  <MWHBN>
0.267215437

>  <MWHBN-cont>
0.926327311

>  <TPSA-cont>
0.378375703

>  <pka_cont>
0.97

>  <yes.1>


>  <BBB_SCORE>
4.269358082

>  <MMFF94 Energy>
-7.5527

$$$$
Compound 2433
Actelion Java MolfileCreator 2.0

  0  0  0  0  0  0              0 V3000
M  V30 BEGIN CTAB
M  V30 COUNTS 42 44 0 0 0
M  V30 BEGIN ATOM
M  V30 1 S 5.2997 2.9326 -0.5697 0 CFG=2
M  V30 2 O 5.0722 4.2179 -1.3108 0
M  V30 3 C 3.8441 1.9086 -0.8878 0
M  V30 4 C 4.965 3.2575 1.1807 0
M  V30 5 C 3.82 0.583 -0.44 0
M  V30 6 C 2.7469 2.418 -1.5899 0
M  V30 7 C 2.7007 -0.2193 -0.6778 0
M  V30 8 C 1.6279 1.6158 -1.8281 0
M  V30 9 C 1.5978 0.2972 -1.3651 0
M  V30 10 C 0.4322 -0.5483 -1.6226 0
M  V30 11 C -0.6633 -0.6868 -0.8556 0
M  V30 12 C -1.7714 -1.5799 -1.2343 0
M  V30 13 C -1.0316 -0.0661 0.424 0
M  V30 14 C -2.7261 -1.4668 -0.2096 0
M  V30 15 C -1.9793 -2.4148 -2.3249 0
M  V30 16 C -2.2462 -0.5202 0.811 0
M  V30 17 C -0.1724 0.8983 1.1702 0
M  V30 18 C -3.907 -2.1933 -0.2619 0
M  V30 19 C -3.1679 -3.1463 -2.3805 0
M  V30 20 C -3.0557 -0.174 2.018 0
M  V30 21 C -4.1128 -3.0296 -1.356 0
M  V30 22 C -2.9404 -1.2351 3.0917 0
M  V30 23 F -5.2457 -3.7412 -1.4303 0
M  V30 24 O -2.0281 -2.0216 3.2804 0
M  V30 25 O -3.9958 -1.2139 3.9347 0
M  V30 26 H 5.0372 2.3277 1.7498 0
M  V30 27 H 5.7142 3.962 1.5501 0
M  V30 28 H 3.9703 3.695 1.298 0
M  V30 29 H 4.6684 0.1609 0.0925 0
M  V30 30 H 2.7567 3.4426 -1.957 0
M  V30 31 H 2.6914 -1.2471 -0.321 0
M  V30 32 H 0.7817 2.0282 -2.3732 0
M  V30 33 H 0.5228 -1.1033 -2.5533 0
M  V30 34 H -1.2475 -2.5077 -3.1193 0
M  V30 35 H -0.6182 1.2018 2.1218 0
M  V30 36 H -0.0155 1.8116 0.5893 0
M  V30 37 H 0.7952 0.4513 1.4145 0
M  V30 38 H -4.6617 -2.1316 0.5123 0
M  V30 39 H -3.3684 -3.8107 -3.2157 0
M  V30 40 H -2.7413 0.7774 2.4576 0
M  V30 41 H -4.1089 -0.0588 1.7363 0
M  V30 42 H -3.7897 -1.9207 4.5827 0
M  V30 END ATOM
M  V30 BEGIN BOND
M  V30 1 2 1 2
M  V30 2 1 1 3
M  V30 3 1 1 4
M  V30 4 2 3 5
M  V30 5 1 3 6
M  V30 6 1 5 7
M  V30 7 2 6 8
M  V30 8 2 7 9
M  V30 9 1 9 10
M  V30 10 2 10 11
M  V30 11 1 11 12
M  V30 12 1 11 13
M  V30 13 2 12 14
M  V30 14 1 12 15
M  V30 15 2 13 16
M  V30 16 1 13 17
M  V30 17 1 14 18
M  V30 18 2 15 19
M  V30 19 1 16 20
M  V30 20 2 18 21
M  V30 21 1 20 22
M  V30 22 1 21 23
M  V30 23 2 22 24
M  V30 24 1 22 25
M  V30 25 1 8 9
M  V30 26 1 14 16
M  V30 27 1 19 21
M  V30 28 1 4 26
M  V30 29 1 4 27
M  V30 30 1 4 28
M  V30 31 1 5 29
M  V30 32 1 6 30
M  V30 33 1 7 31
M  V30 34 1 8 32
M  V30 35 1 10 33
M  V30 36 1 15 34
M  V30 37 1 17 35
M  V30 38 1 17 36
M  V30 39 1 17 37
M  V30 40 1 18 38
M  V30 41 1 19 39
M  V30 42 1 20 40
M  V30 43 1 20 41
M  V30 44 1 25 42
M  V30 END BOND
M  V30 BEGIN COLLECTION
M  V30 MDLV30/STERAC1 ATOMS=(1 1)
M  V30 END COLLECTION
M  V30 END CTAB
M  END
>  <Column 1>
3001

>  <level_0>
5148

>  <index>
5149

>  <Unnamed: 0>
5149

>  <NO.>
5161

>  <Name>
38194-50-2

>  <IUPAC_name>
2-[6-fluoro-2-methyl-3-[(4-methylsulfinylphenyl)methylidene]inden-1-yl]acetic acid

>  <SMILES>
CC1=C(CC(=O)O)c2cc(F)ccc2C1=Cc1ccc([S+](C)[O-])cc1

>  <CID>
5352

>  <logBB>


>  <BBB+/BBB->
BBB-

>  <Inchi>
InChI=1S/C20H17FO3S/c1-12-17(9-13-3-6-15(7-4-13)25(2)24)16-8-5-14(21)10-19(16)18(12)11-20(22)23/h3-10H-11H2-1-2H3-(H-22-23)

>  <threshold>


>  <reference>
R14|

>  <group>
C

>  <Class>
-1

>  <ABC>
19.51

>  <ABCGG>
15.77

>  <nAcid>
1

>  <nBase>
0

>  <nAromAtom>
12

>  <nAromBond>
12

>  <nAtom>
42

>  <nHeavyAtom>
25

>  <nSpiro>
0

>  <nBridgehead>
0

>  <nHetero>
5

>  <nN>
0

>  <nO>
3

>  <nF>
1

>  <BalabanJ>
1.64

>  <BertzCT>
895.66

>  <nBonds>
44

>  <nBondsO>
27

>  <nBondsS>
29

>  <nBondsD>
3

>  <nBondsT>
0

>  <nBondsA>
12

>  <nBondsM>
15

>  <nBondsKS>
35

>  <nBondsKD>
9

>  <RNCG>
0.31

>  <RPCG>
0.15

>  <FCSP3>
0.15

>  <SZ>
31

>  <Sm>
29.67

>  <Sv>
28.58

>  <Sse>
42.57

>  <Sp>
30.3

>  <Si>
46.63

>  <MZ>
0.74

>  <Mm>
0.71

>  <Mv>
0.68

>  <Mse>
1.01

>  <Mp>
0.72

>  <Mi>
1.11

>  <NsCH3>
2

>  <NdCH2>
0

>  <NssCH2>
1

>  <NtCH>
0

>  <NdsCH>
1

>  <NaaCH>
7

>  <NsssCH>
0

>  <NddC>
0

>  <NtsC>
0

>  <NdssC>
4

>  <NaasC>
5

>  <NaaaC>
0

>  <NssssC>
0

>  <NsNH3>
0

>  <NsNH2>
0

>  <NssNH2>
0

>  <NdNH>
0

>  <NssNH>
0

>  <NaaNH>
0

>  <NtN>
0

>  <NsssNH>
0

>  <NdsN>
0

>  <NaaN>
0

>  <NsssN>
0

>  <NddsN>
0

>  <NaasN>
0

>  <NssssN>
0

>  <NsOH>
1

>  <NdO>
1

>  <NssO>
0

>  <NaaO>
0

>  <NsF>
1

>  <NsSiH3>
0

>  <NssSiH2>
0

>  <NsssSiH>
0

>  <NssssSi>
0

>  <NsPH2>
0

>  <NssPH>
0

>  <NsssP>
0

>  <NdsssP>
0

>  <NsssssP>
0

>  <NsSH>
0

>  <NdS>
0

>  <NssS>
0

>  <NaaS>
0

>  <NdssS>
0

>  <NddssS>
0

>  <NsCl>
0

>  <NsBr>
0

>  <NsI>
0

>  <fragCpx>
129.05

>  <fMF>
0.38

>  <nHBAcc>
2

>  <nHBDon>
1

>  <Kier1>
19.75

>  <Kier2>
8.35

>  <Lipinski>
1

>  <GhoseFilter>
1

>  <FilterItLogS>
-5.64

>  <VMcGowan>
257.1

>  <LabuteASA>
148.24

>  <PEOE_VSA1>
9.66

>  <PEOE_VSA2>
4.79

>  <PEOE_VSA3>
4.39

>  <PEOE_VSA4>
0

>  <PEOE_VSA5>
0

>  <PEOE_VSA6>
6.07

>  <PEOE_VSA7>
93.98

>  <PEOE_VSA8>
0

>  <PEOE_VSA9>
6.42

>  <PEOE_VSA10>
12.07

>  <PEOE_VSA11>
4.9

>  <PEOE_VSA12>
0

>  <PEOE_VSA13>
0

>  <SMR_VSA1>
18.84

>  <SMR_VSA2>
0

>  <SMR_VSA3>
0

>  <SMR_VSA4>
0

>  <SMR_VSA5>
18.24

>  <SMR_VSA6>
6.26

>  <SMR_VSA7>
70.55

>  <SMR_VSA8>
0

>  <SMR_VSA9>
0

>  <SlogP_VSA1>
0

>  <SlogP_VSA2>
21.88

>  <SlogP_VSA3>
15.97

>  <SlogP_VSA4>
5.82

>  <SlogP_VSA5>
30.03

>  <SlogP_VSA6>
52.93

>  <SlogP_VSA7>
0

>  <SlogP_VSA8>
17.22

>  <SlogP_VSA9>
0

>  <SlogP_VSA10>
4.39

>  <SlogP_VSA11>
0

>  <EState_VSA1>
17.15

>  <EState_VSA2>
12.24

>  <EState_VSA3>
11.14

>  <EState_VSA4>
27.17

>  <EState_VSA5>
12.13

>  <EState_VSA6>
24.45

>  <EState_VSA7>
25.13

>  <EState_VSA8>
0

>  <EState_VSA9>
5.11

>  <EState_VSA10>
13.74

>  <VSA_EState1>
25.15

>  <VSA_EState2>
11.93

>  <VSA_EState3>
9.17

>  <VSA_EState4>
4.74

>  <VSA_EState5>
-1.33

>  <VSA_EState6>
11.81

>  <VSA_EState7>
3.43

>  <VSA_EState8>
1.86

>  <VSA_EState9>
0

>  <apol>
50.6

>  <bpol>
23.59

>  <nRing>
3

>  <nHRing>
0

>  <naRing>
2

>  <naHRing>
0

>  <nARing 2>
1

>  <nAHRing 2>
0

>  <nFRing>
1

>  <nFHRing>
0

>  <nFaRing>
0

>  <nFaHRing>
0

>  <nFARing 2>
1

>  <nFAHRing 2>
0

>  <nRot>
4

>  <SLogP>
4.37

>  <SMR>
97.89

>  <TopoPSA(NO)>
60.36

>  <TopoPSA>
60.36

>  <JGI1>
0.22

>  <JGI2>
0.08

>  <JGI3>
0.06

>  <JGI4>
0.05

>  <JGI5>
0.04

>  <Diameter>
12

>  <Radius>
6

>  <TMWC10>
128.08

>  <TSRW10>
74.46

>  <MW>
356.09

>  <AMW>
8.48

>  <WPath>
1517

>  <WPol>
40

>  <Zagreb1>
132

>  <Zagreb2>
156

>  <mZagreb2>
5.42

>  <yes>


>  <nAR-cont>
0.816016

>  <nHA-cont>
0.921834225

>  <MWHBN>
0.158979588

>  <MWHBN-cont>
0.95368471

>  <TPSA-cont>
0.578649719

>  <pka_cont>
0.97

>  <yes.1>


>  <BBB_SCORE>
4.810676727

>  <MMFF94 Energy>
58.906

$$$$
Compound 2434
Actelion Java MolfileCreator 2.0

  0  0  0  0  0  0              0 V3000
M  V30 BEGIN CTAB
M  V30 COUNTS 44 45 0 0 0
M  V30 BEGIN ATOM
M  V30 1 O 1.1859 -1.7397 -0.3161 0
M  V30 2 C 1.086 -1.215 0.7846 0
M  V30 3 O 0.85 0.1213 0.9915 0
M  V30 4 C 1.2788 -1.9101 2.1498 0
M  V30 5 C 0.6428 0.916 -0.1937 0
M  V30 6 O 0.6449 -1.2145 3.2273 0
M  V30 7 C 0.7991 -3.3477 2.1365 0
M  V30 8 C -0.8134 0.7806 -0.6551 0
M  V30 9 C 0.9602 2.3667 0.1753 0
M  V30 10 C 1.6749 -4.3791 1.7607 0
M  V30 11 C -0.5274 -3.6776 2.457 0
M  V30 12 C -1.1807 1.7303 -1.8155 0
M  V30 13 C 0.6627 3.3302 -0.9776 0
M  V30 14 C 1.2379 -5.7048 1.72 0
M  V30 15 C -0.9621 -5.0037 2.417 0
M  V30 16 C -0.7928 3.1823 -1.4499 0
M  V30 17 C -0.482 1.2912 -3.1167 0
M  V30 18 C -2.7019 1.6649 -2.0515 0
M  V30 19 C 0.9448 4.7726 -0.5563 0
M  V30 20 C -0.0793 -6.0165 2.0494 0
M  V30 21 H 2.3539 -1.8864 2.3649 0
M  V30 22 H 1.3382 0.5955 -0.9787 0
M  V30 23 H 0.7935 -0.267 3.0527 0
M  V30 24 H -1.0181 -0.2598 -0.9379 0
M  V30 25 H -1.4696 0.974 0.2055 0
M  V30 26 H 0.3859 2.6518 1.0677 0
M  V30 27 H 2.0146 2.4417 0.4708 0
M  V30 28 H 2.7042 -4.1565 1.4882 0
M  V30 29 H -1.2296 -2.8989 2.7488 0
M  V30 30 H 1.335 3.0954 -1.8118 0
M  V30 31 H 1.925 -6.4939 1.4264 0
M  V30 32 H -1.9905 -5.2446 2.6731 0
M  V30 33 H -0.9668 3.842 -2.3102 0
M  V30 34 H -1.4582 3.5401 -0.6515 0
M  V30 35 H -0.7571 1.9483 -3.9497 0
M  V30 36 H 0.6082 1.3084 -3.0349 0
M  V30 37 H -0.7722 0.2707 -3.3914 0
M  V30 38 H -3.0186 0.6487 -2.3124 0
M  V30 39 H -3.0046 2.3301 -2.8681 0
M  V30 40 H -3.257 1.9654 -1.1556 0
M  V30 41 H 1.989 4.8894 -0.2477 0
M  V30 42 H 0.3082 5.0758 0.2818 0
M  V30 43 H 0.762 5.4621 -1.3872 0
M  V30 44 H -0.4189 -7.0482 2.0166 0
M  V30 END ATOM
M  V30 BEGIN BOND
M  V30 1 2 1 2
M  V30 2 1 2 3
M  V30 3 1 2 4
M  V30 4 1 3 5
M  V30 5 1 4 6
M  V30 6 1 4 7
M  V30 7 1 5 8
M  V30 8 1 5 9
M  V30 9 2 7 10
M  V30 10 1 7 11
M  V30 11 1 8 12
M  V30 12 1 9 13
M  V30 13 1 10 14
M  V30 14 2 11 15
M  V30 15 1 12 16
M  V30 16 1 12 17
M  V30 17 1 12 18
M  V30 18 1 13 19
M  V30 19 2 14 20
M  V30 20 1 13 16
M  V30 21 1 15 20
M  V30 22 1 4 21
M  V30 23 1 5 22
M  V30 24 1 6 23
M  V30 25 1 8 24
M  V30 26 1 8 25
M  V30 27 1 9 26
M  V30 28 1 9 27
M  V30 29 1 10 28
M  V30 30 1 11 29
M  V30 31 1 13 30
M  V30 32 1 14 31
M  V30 33 1 15 32
M  V30 34 1 16 33
M  V30 35 1 16 34
M  V30 36 1 17 35
M  V30 37 1 17 36
M  V30 38 1 17 37
M  V30 39 1 18 38
M  V30 40 1 18 39
M  V30 41 1 18 40
M  V30 42 1 19 41
M  V30 43 1 19 42
M  V30 44 1 19 43
M  V30 45 1 20 44
M  V30 END BOND
M  V30 END CTAB
M  END
>  <Column 1>
3003

>  <level_0>
5150

>  <index>
5151

>  <Unnamed: 0>
5151

>  <NO.>
5163

>  <Name>
cyclandelate

>  <IUPAC_name>
(3-3-5-trimethylcyclohexyl) 2-hydroxy-2-phenylacetate

>  <SMILES>
CC1CC(OC(=O)C(O)c2ccccc2)CC(C)(C)C1

>  <CID>
2893

>  <logBB>


>  <BBB+/BBB->
BBB-

>  <Inchi>
InChI=1S/C17H24O3/c1-12-9-14(11-17(2-3)10-12)20-16(19)15(18)13-7-5-4-6-8-13/h4-8-12-14-15-18H-9-11H2-1-3H3

>  <threshold>


>  <reference>
R14|R23|

>  <group>
C

>  <Class>
-1

>  <ABC>
15.41

>  <ABCGG>
13.14

>  <nAcid>
0

>  <nBase>
0

>  <nAromAtom>
6

>  <nAromBond>
6

>  <nAtom>
44

>  <nHeavyAtom>
20

>  <nSpiro>
0

>  <nBridgehead>
0

>  <nHetero>
3

>  <nN>
0

>  <nO>
3

>  <nF>
0

>  <BalabanJ>
1.85

>  <BertzCT>
452.56

>  <nBonds>
45

>  <nBondsO>
21

>  <nBondsS>
38

>  <nBondsD>
1

>  <nBondsT>
0

>  <nBondsA>
6

>  <nBondsM>
7

>  <nBondsKS>
41

>  <nBondsKD>
4

>  <RNCG>
0.27

>  <RPCG>
0.2

>  <FCSP3>
0.59

>  <SZ>
25

>  <Sm>
23.01

>  <Sv>
25.65

>  <Sse>
43.65

>  <Sp>
28.02

>  <Si>
49.61

>  <MZ>
0.57

>  <Mm>
0.52

>  <Mv>
0.58

>  <Mse>
0.99

>  <Mp>
0.64

>  <Mi>
1.13

>  <NsCH3>
3

>  <NdCH2>
0

>  <NssCH2>
3

>  <NtCH>
0

>  <NdsCH>
0

>  <NaaCH>
5

>  <NsssCH>
3

>  <NddC>
0

>  <NtsC>
0

>  <NdssC>
1

>  <NaasC>
1

>  <NaaaC>
0

>  <NssssC>
1

>  <NsNH3>
0

>  <NsNH2>
0

>  <NssNH2>
0

>  <NdNH>
0

>  <NssNH>
0

>  <NaaNH>
0

>  <NtN>
0

>  <NsssNH>
0

>  <NdsN>
0

>  <NaaN>
0

>  <NsssN>
0

>  <NddsN>
0

>  <NaasN>
0

>  <NssssN>
0

>  <NsOH>
1

>  <NdO>
1

>  <NssO>
1

>  <NaaO>
0

>  <NsF>
0

>  <NsSiH3>
0

>  <NssSiH2>
0

>  <NsssSiH>
0

>  <NssssSi>
0

>  <NsPH2>
0

>  <NssPH>
0

>  <NsssP>
0

>  <NdsssP>
0

>  <NsssssP>
0

>  <NsSH>
0

>  <NdS>
0

>  <NssS>
0

>  <NaaS>
0

>  <NdssS>
0

>  <NddssS>
0

>  <NsCl>
0

>  <NsBr>
0

>  <NsI>
0

>  <fragCpx>
61.03

>  <fMF>
0.34

>  <nHBAcc>
3

>  <nHBDon>
1

>  <Kier1>
16.37

>  <Kier2>
6.84

>  <Lipinski>
1

>  <GhoseFilter>
1

>  <FilterItLogS>
-3.16

>  <VMcGowan>
229.08

>  <LabuteASA>
120.51

>  <PEOE_VSA1>
9.84

>  <PEOE_VSA2>
0

>  <PEOE_VSA3>
4.79

>  <PEOE_VSA4>
0

>  <PEOE_VSA5>
0

>  <PEOE_VSA6>
51.1

>  <PEOE_VSA7>
36.16

>  <PEOE_VSA8>
0

>  <PEOE_VSA9>
0

>  <PEOE_VSA10>
6.1

>  <PEOE_VSA11>
6.1

>  <PEOE_VSA12>
0

>  <PEOE_VSA13>
0

>  <SMR_VSA1>
14.64

>  <SMR_VSA2>
0

>  <SMR_VSA3>
0

>  <SMR_VSA4>
11.33

>  <SMR_VSA5>
52.24

>  <SMR_VSA6>
0

>  <SMR_VSA7>
35.9

>  <SMR_VSA8>
0

>  <SMR_VSA9>
0

>  <SlogP_VSA1>
0

>  <SlogP_VSA2>
17.18

>  <SlogP_VSA3>
9.53

>  <SlogP_VSA4>
11.33

>  <SlogP_VSA5>
51.7

>  <SlogP_VSA6>
30.33

>  <SlogP_VSA7>
0

>  <SlogP_VSA8>
0

>  <SlogP_VSA9>
0

>  <SlogP_VSA10>
0

>  <SlogP_VSA11>
0

>  <EState_VSA1>
12.07

>  <EState_VSA2>
11.52

>  <EState_VSA3>
11.48

>  <EState_VSA4>
19.26

>  <EState_VSA5>
0

>  <EState_VSA6>
24.27

>  <EState_VSA7>
6.07

>  <EState_VSA8>
20.77

>  <EState_VSA9>
4.74

>  <EState_VSA10>
9.9

>  <VSA_EState1>
5.52

>  <VSA_EState2>
12.06

>  <VSA_EState3>
10.04

>  <VSA_EState4>
0.78

>  <VSA_EState5>
0.01

>  <VSA_EState6>
8.93

>  <VSA_EState7>
1.64

>  <VSA_EState8>
6.6

>  <VSA_EState9>
0

>  <apol>
46.8

>  <bpol>
26.68

>  <nRing>
2

>  <nHRing>
0

>  <naRing>
1

>  <naHRing>
0

>  <nARing 2>
1

>  <nAHRing 2>
0

>  <nFRing>
0

>  <nFHRing>
0

>  <nFaRing>
0

>  <nFaHRing>
0

>  <nFARing 2>
0

>  <nFAHRing 2>
0

>  <nRot>
3

>  <SLogP>
3.48

>  <SMR>
78.08

>  <TopoPSA(NO)>
46.53

>  <TopoPSA>
46.53

>  <JGI1>
0.29

>  <JGI2>
0.07

>  <JGI3>
0.08

>  <JGI4>
0.04

>  <JGI5>
0.03

>  <Diameter>
10

>  <Radius>
5

>  <TMWC10>
113.22

>  <TSRW10>
53.49

>  <MW>
276.17

>  <AMW>
6.28

>  <WPath>
850

>  <WPol>
28

>  <Zagreb1>
102

>  <Zagreb2>
115

>  <mZagreb2>
4.31

>  <yes>


>  <nAR-cont>
0.816016

>  <nHA-cont>
0.999629945

>  <MWHBN>
0.24069759

>  <MWHBN-cont>
0.974016499

>  <TPSA-cont>
0.675191707

>  <pka_cont>
0.97

>  <yes.1>


>  <BBB_SCORE>
5.112054107

>  <MMFF94 Energy>
85.145

$$$$
Compound 2435
Actelion Java MolfileCreator 2.0

  0  0  0  0  0  0              0 V3000
M  V30 BEGIN CTAB
M  V30 COUNTS 55 57 0 0 0
M  V30 BEGIN ATOM
M  V30 1 O -2.4547 -0.1582 1.5831 0
M  V30 2 C -2.038 -1.1696 0.6414 0
M  V30 3 C -3.3319 -1.7236 -4.0E-4 0
M  V30 4 C -1.2483 -2.2737 1.3592 0
M  V30 5 C -1.1411 -0.4479 -0.4055 0
M  V30 6 N -3.5644 -1.4836 -1.3189 0
M  V30 7 C -4.2613 -2.4074 0.791 0
M  V30 8 C -0.9403 -2.1895 2.7281 0
M  V30 9 C -0.8053 -3.4069 0.65 0
M  V30 10 C 0.1127 0.2234 0.1865 0
M  V30 11 C -4.7129 -1.9553 -1.8535 0
M  V30 12 C -5.437 -2.8783 0.213 0
M  V30 13 C -0.2189 -3.2016 3.3653 0
M  V30 14 C -0.0849 -4.4181 1.2888 0
M  V30 15 C 0.8808 0.996 -0.9007 0
M  V30 16 C -5.6689 -2.6517 -1.1362 0
M  V30 17 C 0.2075 -4.315 2.6461 0
M  V30 18 N 2.2077 1.4862 -0.4725 0
M  V30 19 C 3.0286 2.0143 -1.5925 0
M  V30 20 C 2.1366 2.458 0.6454 0
M  V30 21 C 2.5329 3.3766 -2.1074 0
M  V30 22 C 3.1987 1.0327 -2.7598 0
M  V30 23 C 1.652 3.8495 0.2005 0
M  V30 24 C 3.4788 2.5387 1.3909 0
M  V30 25 C 2.4431 4.4001 -0.9808 0
M  V30 26 H -3.1467 0.3558 1.1309 0
M  V30 27 H -1.7291 0.3425 -0.893 0
M  V30 28 H -0.8347 -1.1458 -1.1957 0
M  V30 29 H -4.0705 -2.5725 1.8481 0
M  V30 30 H -1.2555 -1.3255 3.3102 0
M  V30 31 H -1.0226 -3.5098 -0.4119 0
M  V30 32 H -0.1969 0.9001 0.9886 0
M  V30 33 H 0.7728 -0.5343 0.6234 0
M  V30 34 H -4.849 -1.7495 -2.9115 0
M  V30 35 H -6.1638 -3.4173 0.8142 0
M  V30 36 H 0.013 -3.1157 4.4237 0
M  V30 37 H 0.2493 -5.2848 0.7248 0
M  V30 38 H 1.0085 0.292 -1.7293 0
M  V30 39 H 0.2549 1.8137 -1.2762 0
M  V30 40 H -6.5732 -3.0069 -1.617 0
M  V30 41 H 0.7713 -5.1 3.1427 0
M  V30 42 H 4.0464 2.1568 -1.208 0
M  V30 43 H 1.4369 2.0972 1.4058 0
M  V30 44 H 3.2147 3.7556 -2.8785 0
M  V30 45 H 1.551 3.2713 -2.5853 0
M  V30 46 H 3.992 1.3803 -3.4314 0
M  V30 47 H 2.2883 0.9372 -3.3601 0
M  V30 48 H 3.488 0.0397 -2.3992 0
M  V30 49 H 0.5922 3.7937 -0.0781 0
M  V30 50 H 1.7102 4.5555 1.0379 0
M  V30 51 H 3.8094 1.5413 1.7015 0
M  V30 52 H 3.37 3.1438 2.2982 0
M  V30 53 H 4.2768 2.9902 0.7949 0
M  V30 54 H 1.9719 5.3185 -1.3489 0
M  V30 55 H 3.4533 4.6751 -0.6555 0
M  V30 END ATOM
M  V30 BEGIN BOND
M  V30 1 1 1 2
M  V30 2 1 2 3
M  V30 3 1 2 4
M  V30 4 1 2 5
M  V30 5 2 3 6
M  V30 6 1 3 7
M  V30 7 2 4 8
M  V30 8 1 4 9
M  V30 9 1 5 10
M  V30 10 1 6 11
M  V30 11 2 7 12
M  V30 12 1 8 13
M  V30 13 2 9 14
M  V30 14 1 10 15
M  V30 15 2 11 16
M  V30 16 2 13 17
M  V30 17 1 15 18
M  V30 18 1 18 19
M  V30 19 1 18 20
M  V30 20 1 19 21
M  V30 21 1 19 22
M  V30 22 1 20 23
M  V30 23 1 20 24
M  V30 24 1 21 25
M  V30 25 1 12 16
M  V30 26 1 14 17
M  V30 27 1 23 25
M  V30 28 1 1 26
M  V30 29 1 5 27
M  V30 30 1 5 28
M  V30 31 1 7 29
M  V30 32 1 8 30
M  V30 33 1 9 31
M  V30 34 1 10 32
M  V30 35 1 10 33
M  V30 36 1 11 34
M  V30 37 1 12 35
M  V30 38 1 13 36
M  V30 39 1 14 37
M  V30 40 1 15 38
M  V30 41 1 15 39
M  V30 42 1 16 40
M  V30 43 1 17 41
M  V30 44 1 19 42
M  V30 45 1 20 43
M  V30 46 1 21 44
M  V30 47 1 21 45
M  V30 48 1 22 46
M  V30 49 1 22 47
M  V30 50 1 22 48
M  V30 51 1 23 49
M  V30 52 1 23 50
M  V30 53 1 24 51
M  V30 54 1 24 52
M  V30 55 1 24 53
M  V30 56 1 25 54
M  V30 57 1 25 55
M  V30 END BOND
M  V30 END CTAB
M  END
>  <Column 1>
3005

>  <level_0>
5154

>  <index>
5155

>  <Unnamed: 0>
5155

>  <NO.>
5167

>  <Name>
(+/-)-pirmenol

>  <IUPAC_name>
4-(2-6-dimethylpiperidin-1-yl)-1-phenyl-1-pyridin-2-ylbutan-1-ol

>  <SMILES>
CC1CCCC(C)N1CCCC(O)(c1ccccc1)c1ccccn1

>  <CID>
4853

>  <logBB>


>  <BBB+/BBB->
BBB-

>  <Inchi>
InChI=1S/C22H30N2O/c1-18-10-8-11-19(2)24(18)17-9-15-22(25-20-12-4-3-5-13-20)21-14-6-7-16-23-21/h3-7-12-14-16-18-19-25H-8-11-15-17H2-1-2H3

>  <threshold>


>  <reference>
R14|

>  <group>
C

>  <Class>
-1

>  <ABC>
19.27

>  <ABCGG>
15.78

>  <nAcid>
0

>  <nBase>
1

>  <nAromAtom>
12

>  <nAromBond>
12

>  <nAtom>
55

>  <nHeavyAtom>
25

>  <nSpiro>
0

>  <nBridgehead>
0

>  <nHetero>
3

>  <nN>
2

>  <nO>
1

>  <nF>
0

>  <BalabanJ>
1.6

>  <BertzCT>
594.09

>  <nBonds>
57

>  <nBondsO>
27

>  <nBondsS>
45

>  <nBondsD>
0

>  <nBondsT>
0

>  <nBondsA>
12

>  <nBondsM>
12

>  <nBondsKS>
51

>  <nBondsKD>
6

>  <RNCG>
0.23

>  <RPCG>
0.13

>  <FCSP3>
0.5

>  <SZ>
30.67

>  <Sm>
28.18

>  <Sv>
32.36

>  <Sse>
53.97

>  <Sp>
35.78

>  <Si>
62.02

>  <MZ>
0.56

>  <Mm>
0.51

>  <Mv>
0.59

>  <Mse>
0.98

>  <Mp>
0.65

>  <Mi>
1.13

>  <NsCH3>
2

>  <NdCH2>
0

>  <NssCH2>
6

>  <NtCH>
0

>  <NdsCH>
0

>  <NaaCH>
9

>  <NsssCH>
2

>  <NddC>
0

>  <NtsC>
0

>  <NdssC>
0

>  <NaasC>
2

>  <NaaaC>
0

>  <NssssC>
1

>  <NsNH3>
0

>  <NsNH2>
0

>  <NssNH2>
0

>  <NdNH>
0

>  <NssNH>
0

>  <NaaNH>
0

>  <NtN>
0

>  <NsssNH>
0

>  <NdsN>
0

>  <NaaN>
1

>  <NsssN>
1

>  <NddsN>
0

>  <NaasN>
0

>  <NssssN>
0

>  <NsOH>
1

>  <NdO>
0

>  <NssO>
0

>  <NaaO>
0

>  <NsF>
0

>  <NsSiH3>
0

>  <NssSiH2>
0

>  <NsssSiH>
0

>  <NssssSi>
0

>  <NsPH2>
0

>  <NssPH>
0

>  <NsssP>
0

>  <NdsssP>
0

>  <NsssssP>
0

>  <NsSH>
0

>  <NdS>
0

>  <NssS>
0

>  <NaaS>
0

>  <NdssS>
0

>  <NddssS>
0

>  <NsCl>
0

>  <NsBr>
0

>  <NsI>
0

>  <fragCpx>
129.03

>  <fMF>
0.4

>  <nHBAcc>
3

>  <nHBDon>
1

>  <Kier1>
19.75

>  <Kier2>
9.27

>  <Lipinski>
1

>  <GhoseFilter>
1

>  <FilterItLogS>
-4.87

>  <VMcGowan>
288.29

>  <LabuteASA>
151.27

>  <PEOE_VSA1>
5.11

>  <PEOE_VSA2>
9.88

>  <PEOE_VSA3>
0

>  <PEOE_VSA4>
0

>  <PEOE_VSA5>
0

>  <PEOE_VSA6>
42.82

>  <PEOE_VSA7>
63.77

>  <PEOE_VSA8>
18.28

>  <PEOE_VSA9>
5.69

>  <PEOE_VSA10>
5.6

>  <PEOE_VSA11>
0

>  <PEOE_VSA12>
0

>  <PEOE_VSA13>
0

>  <SMR_VSA1>
5.11

>  <SMR_VSA2>
0

>  <SMR_VSA3>
9.88

>  <SMR_VSA4>
0

>  <SMR_VSA5>
63.64

>  <SMR_VSA6>
6.54

>  <SMR_VSA7>
65.99

>  <SMR_VSA8>
0

>  <SMR_VSA9>
0

>  <SlogP_VSA1>
0

>  <SlogP_VSA2>
33.62

>  <SlogP_VSA3>
5.6

>  <SlogP_VSA4>
0

>  <SlogP_VSA5>
57.21

>  <SlogP_VSA6>
54.73

>  <SlogP_VSA7>
0

>  <SlogP_VSA8>
0

>  <SlogP_VSA9>
0

>  <SlogP_VSA10>
0

>  <SlogP_VSA11>
0

>  <EState_VSA1>
5.6

>  <EState_VSA2>
0

>  <EState_VSA3>
18.5

>  <EState_VSA4>
24.22

>  <EState_VSA5>
19.26

>  <EState_VSA6>
6.2

>  <EState_VSA7>
48.53

>  <EState_VSA8>
23.73

>  <EState_VSA9>
0

>  <EState_VSA10>
5.11

>  <VSA_EState1>
0

>  <VSA_EState2>
7.06

>  <VSA_EState3>
11.53

>  <VSA_EState4>
0.64

>  <VSA_EState5>
0

>  <VSA_EState6>
17.01

>  <VSA_EState7>
7.31

>  <VSA_EState8>
5.69

>  <VSA_EState9>
0

>  <apol>
59.75

>  <bpol>
32.95

>  <nRing>
3

>  <nHRing>
2

>  <naRing>
2

>  <naHRing>
1

>  <nARing 2>
1

>  <nAHRing 2>
1

>  <nFRing>
0

>  <nFHRing>
0

>  <nFaRing>
0

>  <nFaHRing>
0

>  <nFARing 2>
0

>  <nFAHRing 2>
0

>  <nRot>
6

>  <SLogP>
4.36

>  <SMR>
102.39

>  <TopoPSA(NO)>
36.36

>  <TopoPSA>
36.36

>  <JGI1>
0.17

>  <JGI2>
0.1

>  <JGI3>
0.06

>  <JGI4>
0.03

>  <JGI5>
0.01

>  <Diameter>
11

>  <Radius>
6

>  <TMWC10>
126.98

>  <TSRW10>
59.78

>  <MW>
338.24

>  <AMW>
6.15

>  <WPath>
1514

>  <WPol>
40

>  <Zagreb1>
128

>  <Zagreb2>
150

>  <mZagreb2>
5.6

>  <yes>


>  <nAR-cont>
0.816016

>  <nHA-cont>
0.921834225

>  <MWHBN>
0.217494114

>  <MWHBN-cont>
0.99642142

>  <TPSA-cont>
0.746184622

>  <pka_cont>
0.97

>  <yes.1>


>  <BBB_SCORE>
5.209851599

>  <MMFF94 Energy>
83.883

$$$$
Compound 2436
Actelion Java MolfileCreator 2.0

  0  0  0  0  0  0              0 V3000
M  V30 BEGIN CTAB
M  V30 COUNTS 31 33 0 0 0
M  V30 BEGIN ATOM
M  V30 1 F 1.2135 -1.7802 4.2927 0
M  V30 2 C 0.8549 -1.3221 3.0867 0
M  V30 3 C -0.1308 -0.3552 2.9863 0
M  V30 4 C 1.476 -1.8294 1.9525 0
M  V30 5 C -0.4937 0.1211 1.7209 0
M  V30 6 C 1.1076 -1.3668 0.6792 0
M  V30 7 C -1.5535 1.1575 1.6195 0
M  V30 8 C 0.1271 -0.3617 0.5498 0
M  V30 9 C 1.7932 -1.941 -0.5302 0
M  V30 10 O -2.0787 1.582 2.643 0
M  V30 11 C -1.9282 1.6427 0.2661 0
M  V30 12 N -0.2547 0.1545 -0.7066 0
M  V30 13 C 0.9543 -1.7251 -1.7801 0
M  V30 14 C -2.9808 2.6565 0.0573 0
M  V30 15 C -1.2546 1.1136 -0.7686 0
M  V30 16 C 0.5002 -0.2705 -1.9027 0 CFG=2
M  V30 17 O -3.708 3.1552 0.896 0
M  V30 18 O -3.1104 3.0376 -1.2316 0
M  V30 19 C 1.6598 0.6959 -2.1614 0
M  V30 20 H -0.6069 0.0213 3.8873 0
M  V30 21 H 2.2417 -2.5913 2.0714 0
M  V30 22 H 2.7781 -1.4724 -0.6384 0
M  V30 23 H 1.9537 -3.0174 -0.3961 0
M  V30 24 H 0.0677 -2.3725 -1.7355 0
M  V30 25 H 1.5227 -2.0288 -2.6669 0
M  V30 26 H -1.4663 1.429 -1.7881 0
M  V30 27 H -0.1652 -0.2213 -2.7755 0
M  V30 28 H -3.8334 3.6999 -1.1873 0
M  V30 29 H 2.2446 0.3771 -3.0303 0
M  V30 30 H 1.2825 1.7045 -2.3642 0
M  V30 31 H 2.3349 0.7725 -1.3028 0
M  V30 END ATOM
M  V30 BEGIN BOND
M  V30 1 1 1 2
M  V30 2 2 2 3
M  V30 3 1 2 4
M  V30 4 1 3 5
M  V30 5 2 4 6
M  V30 6 1 5 7
M  V30 7 2 5 8
M  V30 8 1 6 9
M  V30 9 2 7 10
M  V30 10 1 7 11
M  V30 11 1 8 12
M  V30 12 1 9 13
M  V30 13 1 11 14
M  V30 14 2 11 15
M  V30 15 1 12 16
M  V30 16 2 14 17
M  V30 17 1 14 18
M  V30 18 1 16 19
M  V30 19 1 6 8
M  V30 20 1 12 15
M  V30 21 1 13 16
M  V30 22 1 3 20
M  V30 23 1 4 21
M  V30 24 1 9 22
M  V30 25 1 9 23
M  V30 26 1 13 24
M  V30 27 1 13 25
M  V30 28 1 15 26
M  V30 29 1 16 27
M  V30 30 1 18 28
M  V30 31 1 19 29
M  V30 32 1 19 30
M  V30 33 1 19 31
M  V30 END BOND
M  V30 BEGIN COLLECTION
M  V30 MDLV30/STERAC1 ATOMS=(1 16)
M  V30 END COLLECTION
M  V30 END CTAB
M  END
>  <Column 1>
3006

>  <level_0>
5155

>  <index>
5156

>  <Unnamed: 0>
5156

>  <NO.>
5168

>  <Name>
flumequine

>  <IUPAC_name>
7-fluoro-12-methyl-4-oxo-1-azatricyclo[7.3.1.05-13]trideca-2-5-7-9(13)-tetraene-3-carboxylic acid

>  <SMILES>
CC1CCc2cc(F)cc3c(=O)c(C(=O)O)cn1c23

>  <CID>
3374

>  <logBB>


>  <BBB+/BBB->
BBB-

>  <Inchi>
InChI=1S/C14H12FNO3/c1-7-2-3-8-4-9(15)5-10-12(8)16(7)6-11(13(10)17)14(18)19/h4-7H-2-3H2-1H3-(H-18-19)

>  <threshold>


>  <reference>
R14|

>  <group>
C

>  <Class>
-1

>  <ABC>
15.11

>  <ABCGG>
12.49

>  <nAcid>
1

>  <nBase>
0

>  <nAromAtom>
10

>  <nAromBond>
11

>  <nAtom>
31

>  <nHeavyAtom>
19

>  <nSpiro>
0

>  <nBridgehead>
0

>  <nHetero>
5

>  <nN>
1

>  <nO>
3

>  <nF>
1

>  <BalabanJ>
1.89

>  <BertzCT>
763.36

>  <nBonds>
33

>  <nBondsO>
21

>  <nBondsS>
20

>  <nBondsD>
2

>  <nBondsT>
0

>  <nBondsA>
11

>  <nBondsM>
13

>  <nBondsKS>
27

>  <nBondsKD>
6

>  <RNCG>
0.28

>  <RPCG>
0.2

>  <FCSP3>
0.29

>  <SZ>
22.67

>  <Sm>
21.75

>  <Sv>
20.8

>  <Sse>
31.94

>  <Sp>
21.22

>  <Si>
34.96

>  <MZ>
0.73

>  <Mm>
0.7

>  <Mv>
0.67

>  <Mse>
1.03

>  <Mp>
0.68

>  <Mi>
1.13

>  <NsCH3>
1

>  <NdCH2>
0

>  <NssCH2>
2

>  <NtCH>
0

>  <NdsCH>
0

>  <NaaCH>
3

>  <NsssCH>
1

>  <NddC>
0

>  <NtsC>
0

>  <NdssC>
1

>  <NaasC>
3

>  <NaaaC>
2

>  <NssssC>
0

>  <NsNH3>
0

>  <NsNH2>
0

>  <NssNH2>
0

>  <NdNH>
0

>  <NssNH>
0

>  <NaaNH>
0

>  <NtN>
0

>  <NsssNH>
0

>  <NdsN>
0

>  <NaaN>
0

>  <NsssN>
0

>  <NddsN>
0

>  <NaasN>
1

>  <NssssN>
0

>  <NsOH>
1

>  <NdO>
2

>  <NssO>
0

>  <NaaO>
0

>  <NsF>
1

>  <NsSiH3>
0

>  <NssSiH2>
0

>  <NsssSiH>
0

>  <NssssSi>
0

>  <NsPH2>
0

>  <NssPH>
0

>  <NsssP>
0

>  <NdsssP>
0

>  <NsssssP>
0

>  <NsSH>
0

>  <NdS>
0

>  <NssS>
0

>  <NaaS>
0

>  <NdssS>
0

>  <NddssS>
0

>  <NsCl>
0

>  <NsBr>
0

>  <NsI>
0

>  <fragCpx>
99.05

>  <fMF>
0.42

>  <nHBAcc>
3

>  <nHBDon>
1

>  <Kier1>
13.96

>  <Kier2>
5.08

>  <Lipinski>
1

>  <GhoseFilter>
1

>  <FilterItLogS>
-2.97

>  <VMcGowan>
179.09

>  <LabuteASA>
107.64

>  <PEOE_VSA1>
9.67

>  <PEOE_VSA2>
4.79

>  <PEOE_VSA3>
9.18

>  <PEOE_VSA4>
0

>  <PEOE_VSA5>
0

>  <PEOE_VSA6>
0

>  <PEOE_VSA7>
37.46

>  <PEOE_VSA8>
17.62

>  <PEOE_VSA9>
5.52

>  <PEOE_VSA10>
11.38

>  <PEOE_VSA11>
0

>  <PEOE_VSA12>
5.43

>  <PEOE_VSA13>
0

>  <SMR_VSA1>
14.29

>  <SMR_VSA2>
0

>  <SMR_VSA3>
4.57

>  <SMR_VSA4>
0

>  <SMR_VSA5>
25.81

>  <SMR_VSA6>
0

>  <SMR_VSA7>
45.5

>  <SMR_VSA8>
0

>  <SMR_VSA9>
0

>  <SlogP_VSA1>
5.43

>  <SlogP_VSA2>
15.64

>  <SlogP_VSA3>
6.42

>  <SlogP_VSA4>
5.82

>  <SlogP_VSA5>
35.31

>  <SlogP_VSA6>
23.12

>  <SlogP_VSA7>
0

>  <SlogP_VSA8>
10.9

>  <SlogP_VSA9>
0

>  <SlogP_VSA10>
4.39

>  <SlogP_VSA11>
0

>  <EState_VSA1>
17.22

>  <EState_VSA2>
16.99

>  <EState_VSA3>
11.94

>  <EState_VSA4>
18.05

>  <EState_VSA5>
12.26

>  <EState_VSA6>
4.57

>  <EState_VSA7>
6.92

>  <EState_VSA8>
0

>  <EState_VSA9>
5.11

>  <EState_VSA10>
13.98

>  <VSA_EState1>
15.33

>  <VSA_EState2>
23.23

>  <VSA_EState3>
9.24

>  <VSA_EState4>
0.5

>  <VSA_EState5>
-1.78

>  <VSA_EState6>
2.64

>  <VSA_EState7>
2.87

>  <VSA_EState8>
1.96

>  <VSA_EState9>
0

>  <apol>
35.44

>  <bpol>
16.6

>  <nRing>
3

>  <nHRing>
2

>  <naRing>
2

>  <naHRing>
1

>  <nARing 2>
1

>  <nAHRing 2>
1

>  <nFRing>
1

>  <nFHRing>
1

>  <nFaRing>
0

>  <nFaHRing>
0

>  <nFARing 2>
1

>  <nFAHRing 2>
1

>  <nRot>
1

>  <SLogP>
2.35

>  <SMR>
68.16

>  <TopoPSA(NO)>
59.3

>  <TopoPSA>
59.3

>  <JGI1>
0.21

>  <JGI2>
0.08

>  <JGI3>
0.05

>  <JGI4>
0.06

>  <JGI5>
0.04

>  <Diameter>
7

>  <Radius>
4

>  <TMWC10>
115.17

>  <TSRW10>
53.27

>  <MW>
261.08

>  <AMW>
8.42

>  <WPath>
600

>  <WPol>
36

>  <Zagreb1>
106

>  <Zagreb2>
130

>  <mZagreb2>
4.03

>  <yes>


>  <nAR-cont>
0.816016

>  <nHA-cont>
0.998649058

>  <MWHBN>
0.247555848

>  <MWHBN-cont>
0.963791098

>  <TPSA-cont>
0.586049177

>  <pka_cont>
0.97

>  <yes.1>


>  <BBB_SCORE>
4.917450058

>  <MMFF94 Energy>
10.804

$$$$
Compound 2437
Actelion Java MolfileCreator 2.0

  0  0  0  0  0  0              0 V3000
M  V30 BEGIN CTAB
M  V30 COUNTS 32 33 0 0 0
M  V30 BEGIN ATOM
M  V30 1 S -2.2885 1.8796 1.7978 0
M  V30 2 O -3.6732 1.6752 1.4144 0
M  V30 3 O -1.9661 2.7953 2.8768 0
M  V30 4 C -1.5854 0.2981 2.1701 0
M  V30 5 C -1.3925 2.3855 0.36 0
M  V30 6 C -0.0601 0.3075 2.1298 0 CFG=1
M  V30 7 C 0.0958 2.2286 0.5974 0
M  V30 8 N 0.5039 0.83 0.8578 0
M  V30 9 C 0.5854 0.9604 3.3575 0
M  V30 10 N 0.3213 4.0E-4 -0.2082 0
M  V30 11 C 1.4327 -0.494 -0.6602 0
M  V30 12 C 1.4521 -1.3931 -1.7824 0
M  V30 13 O 0.271 -1.7363 -2.3883 0
M  V30 14 C 2.5044 -2.0286 -2.4205 0
M  V30 15 C 0.5899 -2.5835 -3.401 0
M  V30 16 C 1.945 -2.8014 -3.4713 0
M  V30 17 N -0.4944 -3.082 -4.187 0 CHG=1
M  V30 18 O -1.6395 -2.7143 -3.8985 0
M  V30 19 O -0.1897 -3.8539 -5.1069 0 CHG=-1
M  V30 20 H -1.9831 -0.4027 1.4272 0
M  V30 21 H -1.9613 -0.0057 3.1523 0
M  V30 22 H -1.7405 1.7825 -0.4844 0
M  V30 23 H -1.6495 3.4311 0.1651 0
M  V30 24 H 0.2484 -0.7461 2.1951 0
M  V30 25 H 0.4334 2.8817 1.4094 0
M  V30 26 H 0.6315 2.5818 -0.2929 0
M  V30 27 H 0.2293 0.4797 4.2754 0
M  V30 28 H 1.6742 0.8389 3.3267 0
M  V30 29 H 0.3769 2.029 3.4436 0
M  V30 30 H 2.4074 -0.244 -0.2013 0
M  V30 31 H 3.5509 -1.9438 -2.1582 0
M  V30 32 H 2.4591 -3.4323 -4.1841 0
M  V30 END ATOM
M  V30 BEGIN BOND
M  V30 1 2 1 2
M  V30 2 2 1 3
M  V30 3 1 1 4
M  V30 4 1 1 5
M  V30 5 1 4 6
M  V30 6 1 5 7
M  V30 7 1 6 8
M  V30 8 1 6 9
M  V30 9 1 8 10
M  V30 10 2 10 11
M  V30 11 1 11 12
M  V30 12 1 12 13
M  V30 13 2 12 14
M  V30 14 1 13 15
M  V30 15 1 14 16
M  V30 16 1 15 17
M  V30 17 2 17 18
M  V30 18 1 17 19
M  V30 19 1 7 8
M  V30 20 2 15 16
M  V30 21 1 4 20
M  V30 22 1 4 21
M  V30 23 1 5 22
M  V30 24 1 5 23
M  V30 25 1 6 24
M  V30 26 1 7 25
M  V30 27 1 7 26
M  V30 28 1 9 27
M  V30 29 1 9 28
M  V30 30 1 9 29
M  V30 31 1 11 30
M  V30 32 1 14 31
M  V30 33 1 16 32
M  V30 END BOND
M  V30 BEGIN COLLECTION
M  V30 MDLV30/STERAC1 ATOMS=(1 6)
M  V30 END COLLECTION
M  V30 END CTAB
M  END
>  <Column 1>
3007

>  <level_0>
5156

>  <index>
5157

>  <Unnamed: 0>
5157

>  <NO.>
5169

>  <Name>
n-(3-methyl-1-1-dioxo-1-4-thiazinan-4-yl)-1-(5-nitro-2-furanyl)methanimine

>  <IUPAC_name>
n-(3-methyl-1-1-dioxo-1-4-thiazinan-4-yl)-1-(5-nitrofuran-2-yl)methanimine

>  <SMILES>
CC1CS(=O)(=O)CCN1N=Cc1ccc([N+](=O)[O-])o1

>  <CID>
31772

>  <logBB>


>  <BBB+/BBB->
BBB-

>  <Inchi>
InChI=1S/C10H13N3O5S/c1-8-7-19(16-17)5-4-12(8)11-6-9-2-3-10(18-9)13(14)15/h2-3-6-8H-4-5-7H2-1H3

>  <threshold>


>  <reference>
R14|

>  <group>
C

>  <Class>
-1

>  <ABC>
14.71

>  <ABCGG>
12.57

>  <nAcid>
0

>  <nBase>
0

>  <nAromAtom>
5

>  <nAromBond>
5

>  <nAtom>
32

>  <nHeavyAtom>
19

>  <nSpiro>
0

>  <nBridgehead>
0

>  <nHetero>
9

>  <nN>
3

>  <nO>
5

>  <nF>
0

>  <BalabanJ>
1.72

>  <BertzCT>
606.44

>  <nBonds>
33

>  <nBondsO>
20

>  <nBondsS>
24

>  <nBondsD>
4

>  <nBondsT>
0

>  <nBondsA>
5

>  <nBondsM>
9

>  <nBondsKS>
27

>  <nBondsKD>
6

>  <RNCG>
0.21

>  <RPCG>
0.23

>  <FCSP3>
0.5

>  <SZ>
25

>  <Sm>
23.92

>  <Sv>
20.56

>  <Sse>
33.49

>  <Sp>
21.3

>  <Si>
36.54

>  <MZ>
0.78

>  <Mm>
0.75

>  <Mv>
0.64

>  <Mse>
1.05

>  <Mp>
0.67

>  <Mi>
1.14

>  <NsCH3>
1

>  <NdCH2>
0

>  <NssCH2>
3

>  <NtCH>
0

>  <NdsCH>
1

>  <NaaCH>
2

>  <NsssCH>
1

>  <NddC>
0

>  <NtsC>
0

>  <NdssC>
0

>  <NaasC>
2

>  <NaaaC>
0

>  <NssssC>
0

>  <NsNH3>
0

>  <NsNH2>
0

>  <NssNH2>
0

>  <NdNH>
0

>  <NssNH>
0

>  <NaaNH>
0

>  <NtN>
0

>  <NsssNH>
0

>  <NdsN>
1

>  <NaaN>
0

>  <NsssN>
1

>  <NddsN>
1

>  <NaasN>
0

>  <NssssN>
0

>  <NsOH>
0

>  <NdO>
3

>  <NssO>
0

>  <NaaO>
1

>  <NsF>
0

>  <NsSiH3>
0

>  <NssSiH2>
0

>  <NsssSiH>
0

>  <NssssSi>
0

>  <NsPH2>
0

>  <NssPH>
0

>  <NsssP>
0

>  <NdsssP>
0

>  <NsssssP>
0

>  <NsSH>
0

>  <NdS>
0

>  <NssS>
0

>  <NaaS>
0

>  <NdssS>
0

>  <NddssS>
1

>  <NsCl>
0

>  <NsBr>
0

>  <NsI>
0

>  <fragCpx>
58.09

>  <fMF>
0.41

>  <nHBAcc>
7

>  <nHBDon>
0

>  <Kier1>
15.39

>  <Kier2>
6.19

>  <Lipinski>
1

>  <GhoseFilter>
1

>  <FilterItLogS>
-1.93

>  <VMcGowan>
188.48

>  <LabuteASA>
109.31

>  <PEOE_VSA1>
4.42

>  <PEOE_VSA2>
15.12

>  <PEOE_VSA3>
8.42

>  <PEOE_VSA4>
5.1

>  <PEOE_VSA5>
0

>  <PEOE_VSA6>
0

>  <PEOE_VSA7>
12.99

>  <PEOE_VSA8>
0

>  <PEOE_VSA9>
36.37

>  <PEOE_VSA10>
4.92

>  <PEOE_VSA11>
15.6

>  <PEOE_VSA12>
0

>  <PEOE_VSA13>
0

>  <SMR_VSA1>
17.76

>  <SMR_VSA2>
0

>  <SMR_VSA3>
5.01

>  <SMR_VSA4>
5.1

>  <SMR_VSA5>
12.97

>  <SMR_VSA6>
18.05

>  <SMR_VSA7>
28.01

>  <SMR_VSA8>
0

>  <SMR_VSA9>
0

>  <SlogP_VSA1>
0

>  <SlogP_VSA2>
48.66

>  <SlogP_VSA3>
9.84

>  <SlogP_VSA4>
10.11

>  <SlogP_VSA5>
12.68

>  <SlogP_VSA6>
21.65

>  <SlogP_VSA7>
0

>  <SlogP_VSA8>
0

>  <SlogP_VSA9>
0

>  <SlogP_VSA10>
5.88

>  <SlogP_VSA11>
0

>  <EState_VSA1>
14.76

>  <EState_VSA2>
29.19

>  <EState_VSA3>
6.54

>  <EState_VSA4>
0

>  <EState_VSA5>
18.35

>  <EState_VSA6>
11.93

>  <EState_VSA7>
0

>  <EState_VSA8>
5.1

>  <EState_VSA9>
4.42

>  <EState_VSA10>
18.53

>  <VSA_EState1>
27.69

>  <VSA_EState2>
9.8

>  <VSA_EState3>
16.17

>  <VSA_EState4>
0

>  <VSA_EState5>
0.03

>  <VSA_EState6>
2.46

>  <VSA_EState7>
1.35

>  <VSA_EState8>
2.07

>  <VSA_EState9>
-2.98

>  <apol>
35.58

>  <bpol>
24.31

>  <nRing>
2

>  <nHRing>
2

>  <naRing>
1

>  <naHRing>
1

>  <nARing 2>
1

>  <nAHRing 2>
1

>  <nFRing>
0

>  <nFHRing>
0

>  <nFaRing>
0

>  <nFaHRing>
0

>  <nFARing 2>
0

>  <nFAHRing 2>
0

>  <nRot>
3

>  <SLogP>
0.64

>  <SMR>
67.78

>  <TopoPSA(NO)>
106.02

>  <TopoPSA>
114.4

>  <JGI1>
0.3

>  <JGI2>
0.09

>  <JGI3>
0.05

>  <JGI4>
0.06

>  <JGI5>
0.03

>  <Diameter>
11

>  <Radius>
6

>  <TMWC10>
110.89

>  <TSRW10>
65.8

>  <MW>
287.06

>  <AMW>
8.97

>  <WPath>
789

>  <WPol>
25

>  <Zagreb1>
98

>  <Zagreb2>
111

>  <mZagreb2>
4.06

>  <yes>


>  <nAR-cont>
0.816016

>  <nHA-cont>
0.998649058

>  <MWHBN>
0.413153751

>  <MWHBN-cont>
0.424513892

>  <TPSA-cont>
0.201416962

>  <pka_cont>
0.97

>  <yes.1>


>  <BBB_SCORE>
3.33926982

>  <MMFF94 Energy>
58.942

$$$$
Compound 2438
Actelion Java MolfileCreator 2.0

  0  0  0  0  0  0              0 V3000
M  V30 BEGIN CTAB
M  V30 COUNTS 40 42 0 0 0
M  V30 BEGIN ATOM
M  V30 1 Cl 2.5393 0.4092 -5.6586 0
M  V30 2 C 1.6055 0.3336 -4.2083 0
M  V30 3 C 0.3861 -0.3378 -4.0925 0
M  V30 4 C 2.12 1.017 -3.0982 0
M  V30 5 S -0.3077 -1.2352 -5.4434 0
M  V30 6 C -0.3097 -0.3299 -2.8725 0
M  V30 7 C 1.4313 1.0265 -1.8811 0
M  V30 8 O -1.6176 -1.7163 -5.0672 0
M  V30 9 O 0.6917 -2.1176 -5.9943 0
M  V30 10 N -0.6049 -0.0405 -6.5837 0
M  V30 11 C 0.2167 0.3433 -1.7626 0
M  V30 12 C -0.5616 0.3351 -0.4936 0
M  V30 13 O -1.7856 0.2887 -0.5521 0
M  V30 14 N 0.1945 0.3652 0.664 0
M  V30 15 N -0.4437 0.2962 1.8905 0
M  V30 16 C -0.0018 -0.6759 2.8067 0
M  V30 17 C -0.7354 1.5124 2.6671 0 CFG=2
M  V30 18 C -0.2208 -0.2757 4.1284 0
M  V30 19 C 0.5769 -1.9047 2.5369 0
M  V30 20 C -0.8969 1.0579 4.1431 0
M  V30 21 C -1.9836 2.2132 2.1523 0
M  V30 22 C 0.1305 -1.0777 5.2018 0
M  V30 23 C 0.9448 -2.7238 3.6091 0
M  V30 24 C 0.725 -2.3112 4.9326 0
M  V30 25 H 3.0614 1.5585 -3.1787 0
M  V30 26 H -1.2635 -0.8498 -2.7745 0
M  V30 27 H 1.8421 1.5963 -1.0517 0
M  V30 28 H -1.6055 0.0062 -6.7813 0
M  V30 29 H -0.0271 -0.1982 -7.4107 0
M  V30 30 H 1.2056 0.3116 0.6821 0
M  V30 31 H 0.1215 2.1974 2.602 0
M  V30 32 H 0.7238 -2.2401 1.5164 0
M  V30 33 H -1.9485 0.9385 4.4259 0
M  V30 34 H -0.4089 1.7603 4.8257 0
M  V30 35 H -2.8449 1.5362 2.1373 0
M  V30 36 H -1.8334 2.5803 1.1319 0
M  V30 37 H -2.2339 3.0722 2.7835 0
M  V30 38 H -0.0558 -0.7638 6.2235 0
M  V30 39 H 1.3935 -3.6951 3.4157 0
M  V30 40 H 1.0089 -2.9653 5.7537 0
M  V30 END ATOM
M  V30 BEGIN BOND
M  V30 1 1 1 2
M  V30 2 2 2 3
M  V30 3 1 2 4
M  V30 4 1 3 5
M  V30 5 1 3 6
M  V30 6 2 4 7
M  V30 7 2 5 8
M  V30 8 2 5 9
M  V30 9 1 5 10
M  V30 10 2 6 11
M  V30 11 1 11 12
M  V30 12 2 12 13
M  V30 13 1 12 14
M  V30 14 1 14 15
M  V30 15 1 15 16
M  V30 16 1 15 17
M  V30 17 2 16 18
M  V30 18 1 16 19
M  V30 19 1 17 20
M  V30 20 1 17 21
M  V30 21 1 18 22
M  V30 22 2 19 23
M  V30 23 2 22 24
M  V30 24 1 7 11
M  V30 25 1 18 20
M  V30 26 1 23 24
M  V30 27 1 4 25
M  V30 28 1 6 26
M  V30 29 1 7 27
M  V30 30 1 10 28
M  V30 31 1 10 29
M  V30 32 1 14 30
M  V30 33 1 17 31
M  V30 34 1 19 32
M  V30 35 1 20 33
M  V30 36 1 20 34
M  V30 37 1 21 35
M  V30 38 1 21 36
M  V30 39 1 21 37
M  V30 40 1 22 38
M  V30 41 1 23 39
M  V30 42 1 24 40
M  V30 END BOND
M  V30 BEGIN COLLECTION
M  V30 MDLV30/STERAC1 ATOMS=(1 17)
M  V30 END COLLECTION
M  V30 END CTAB
M  END
>  <Column 1>
3008

>  <level_0>
5157

>  <index>
5158

>  <Unnamed: 0>
5158

>  <NO.>
5170

>  <Name>
indapamide

>  <IUPAC_name>
4-chloro-n-(2-methyl-2-3-dihydroindol-1-yl)-3-sulfamoylbenzamide

>  <SMILES>
CC1Cc2ccccc2N1NC(=O)c1ccc(Cl)c(S(N)(=O)=O)c1

>  <CID>
3702

>  <logBB>


>  <BBB+/BBB->
BBB-

>  <Inchi>
InChI=1S/C16H16ClN3O3S/c1-10-8-11-4-2-3-5-14(11)20(10)19-16(21)12-6-7-13(17)15(9-12)24(18-22)23/h2-7-9-10H-8H2-1H3-(H-19-21)(H2-18-22-23)

>  <threshold>


>  <reference>
R14|R15|R23|

>  <group>
C

>  <Class>
1

>  <ABC>
18.93

>  <ABCGG>
15.9

>  <nAcid>
0

>  <nBase>
0

>  <nAromAtom>
12

>  <nAromBond>
12

>  <nAtom>
40

>  <nHeavyAtom>
24

>  <nSpiro>
0

>  <nBridgehead>
0

>  <nHetero>
8

>  <nN>
3

>  <nO>
3

>  <nF>
0

>  <BalabanJ>
1.61

>  <BertzCT>
914.53

>  <nBonds>
42

>  <nBondsO>
26

>  <nBondsS>
27

>  <nBondsD>
3

>  <nBondsT>
0

>  <nBondsA>
12

>  <nBondsM>
15

>  <nBondsKS>
33

>  <nBondsKD>
9

>  <RNCG>
0.15

>  <RPCG>
0.14

>  <FCSP3>
0.19

>  <SZ>
31.67

>  <Sm>
30.46

>  <Sv>
27.03

>  <Sse>
40.93

>  <Sp>
28.85

>  <Si>
44.89

>  <MZ>
0.79

>  <Mm>
0.76

>  <Mv>
0.68

>  <Mse>
1.02

>  <Mp>
0.72

>  <Mi>
1.12

>  <NsCH3>
1

>  <NdCH2>
0

>  <NssCH2>
1

>  <NtCH>
0

>  <NdsCH>
0

>  <NaaCH>
7

>  <NsssCH>
1

>  <NddC>
0

>  <NtsC>
0

>  <NdssC>
1

>  <NaasC>
5

>  <NaaaC>
0

>  <NssssC>
0

>  <NsNH3>
0

>  <NsNH2>
1

>  <NssNH2>
0

>  <NdNH>
0

>  <NssNH>
1

>  <NaaNH>
0

>  <NtN>
0

>  <NsssNH>
0

>  <NdsN>
0

>  <NaaN>
0

>  <NsssN>
1

>  <NddsN>
0

>  <NaasN>
0

>  <NssssN>
0

>  <NsOH>
0

>  <NdO>
3

>  <NssO>
0

>  <NaaO>
0

>  <NsF>
0

>  <NsSiH3>
0

>  <NssSiH2>
0

>  <NsssSiH>
0

>  <NssssSi>
0

>  <NsPH2>
0

>  <NssPH>
0

>  <NsssP>
0

>  <NdsssP>
0

>  <NsssssP>
0

>  <NsSH>
0

>  <NdS>
0

>  <NssS>
0

>  <NaaS>
0

>  <NdssS>
0

>  <NddssS>
1

>  <NsCl>
1

>  <NsBr>
0

>  <NsI>
0

>  <fragCpx>
124.08

>  <fMF>
0.43

>  <nHBAcc>
4

>  <nHBDon>
2

>  <Kier1>
18.78

>  <Kier2>
7.32

>  <Lipinski>
1

>  <GhoseFilter>
1

>  <FilterItLogS>
-4.03

>  <VMcGowan>
249.76

>  <LabuteASA>
144.79

>  <PEOE_VSA1>
0

>  <PEOE_VSA2>
15.23

>  <PEOE_VSA3>
13.56

>  <PEOE_VSA4>
0

>  <PEOE_VSA5>
0

>  <PEOE_VSA6>
29.8

>  <PEOE_VSA7>
43.17

>  <PEOE_VSA8>
5.56

>  <PEOE_VSA9>
16.75

>  <PEOE_VSA10>
4.9

>  <PEOE_VSA11>
0

>  <PEOE_VSA12>
10.02

>  <PEOE_VSA13>
5.91

>  <SMR_VSA1>
13.21

>  <SMR_VSA2>
0

>  <SMR_VSA3>
5.43

>  <SMR_VSA4>
5.14

>  <SMR_VSA5>
24.28

>  <SMR_VSA6>
5.01

>  <SMR_VSA7>
58.61

>  <SMR_VSA8>
0

>  <SMR_VSA9>
0

>  <SlogP_VSA1>
15.57

>  <SlogP_VSA2>
20.37

>  <SlogP_VSA3>
16.44

>  <SlogP_VSA4>
0

>  <SlogP_VSA5>
22.85

>  <SlogP_VSA6>
47.36

>  <SlogP_VSA7>
5.02

>  <SlogP_VSA8>
0

>  <SlogP_VSA9>
0

>  <SlogP_VSA10>
5.69

>  <SlogP_VSA11>
0

>  <EState_VSA1>
15.93

>  <EState_VSA2>
21.52

>  <EState_VSA3>
0

>  <EState_VSA4>
17.67

>  <EState_VSA5>
18.2

>  <EState_VSA6>
5.01

>  <EState_VSA7>
31.19

>  <EState_VSA8>
5.43

>  <EState_VSA9>
16.74

>  <EState_VSA10>
13.21

>  <VSA_EState1>
23.08

>  <VSA_EState2>
12.24

>  <VSA_EState3>
6.88

>  <VSA_EState4>
5.06

>  <VSA_EState5>
-0.43

>  <VSA_EState6>
11.87

>  <VSA_EState7>
0.82

>  <VSA_EState8>
2

>  <VSA_EState9>
-4

>  <apol>
48.17

>  <bpol>
24.66

>  <nRing>
3

>  <nHRing>
1

>  <naRing>
2

>  <naHRing>
0

>  <nARing 2>
1

>  <nAHRing 2>
1

>  <nFRing>
1

>  <nFHRing>
1

>  <nFaRing>
0

>  <nFaHRing>
0

>  <nFARing 2>
1

>  <nFAHRing 2>
1

>  <nRot>
3

>  <SLogP>
2.08

>  <SMR>
92.38

>  <TopoPSA(NO)>
92.5

>  <TopoPSA>
100.88

>  <JGI1>
0.25

>  <JGI2>
0.1

>  <JGI3>
0.07

>  <JGI4>
0.04

>  <JGI5>
0.04

>  <Diameter>
11

>  <Radius>
6

>  <TMWC10>
125.86

>  <TSRW10>
73.21

>  <MW>
365.06

>  <AMW>
9.13

>  <WPath>
1345

>  <WPol>
39

>  <Zagreb1>
130

>  <Zagreb2>
154

>  <mZagreb2>
5.06

>  <yes>


>  <nAR-cont>
0.816016

>  <nHA-cont>
0.94700071

>  <MWHBN>
0.314028544

>  <MWHBN-cont>
0.79690201

>  <TPSA-cont>
0.295794957

>  <pka_cont>
0.97

>  <yes.1>


>  <BBB_SCORE>
4.034959639

>  <MMFF94 Energy>
-4.9254

$$$$
Compound 2439
Actelion Java MolfileCreator 2.0

  0  0  0  0  0  0              0 V3000
M  V30 BEGIN CTAB
M  V30 COUNTS 50 53 0 0 0
M  V30 BEGIN ATOM
M  V30 1 O -1.0362 0.0 -2.233 0
M  V30 2 C -1.5725 -0.0709 -1.1304 0
M  V30 3 N -2.9404 -0.1459 -0.9657 0
M  V30 4 C -0.7943 -0.1127 0.189 0
M  V30 5 C -3.8774 -0.2262 -2.0882 0
M  V30 6 C 0.4283 0.7604 0.1273 0
M  V30 7 C -0.4341 -1.5766 0.4831 0
M  V30 8 C -5.2656 -0.6511 -1.5678 0
M  V30 9 C -3.9466 1.1083 -2.8523 0
M  V30 10 C 1.603 0.3547 0.6442 0
M  V30 11 N 0.4498 -1.6864 1.6609 0
M  V30 12 O -5.1415 -1.7885 -0.7113 0
M  V30 13 C -4.8128 1.0476 -4.1021 0
M  V30 14 C 2.8158 1.1973 0.5317 0
M  V30 15 C 1.757 -1.0022 1.4029 0
M  V30 16 C 0.6383 -3.1009 1.995 0
M  V30 17 C 3.7851 0.9387 1.5097 0
M  V30 18 C 3.1092 2.1831 -0.4171 0
M  V30 19 C 2.561 -0.858 2.753 0
M  V30 20 C 4.9853 1.6276 1.5509 0
M  V30 21 C 3.76 0.0082 2.5704 0
M  V30 22 C 4.3259 2.8792 -0.3705 0
M  V30 23 N 5.6814 1.1208 2.6271 0
M  V30 24 C 5.2912 2.6186 0.6157 0
M  V30 25 C 4.9468 0.1364 3.2538 0
M  V30 26 H -3.3129 -0.3791 -0.0518 0
M  V30 27 H -1.4376 0.28 0.9878 0
M  V30 28 H -3.4911 -1.0118 -2.7496 0
M  V30 29 H 0.3203 1.7237 -0.3616 0
M  V30 30 H -1.3678 -2.1233 0.672 0
M  V30 31 H 0.0298 -2.0493 -0.3945 0
M  V30 32 H -5.7268 0.1527 -0.9841 0
M  V30 33 H -5.93 -0.918 -2.3948 0
M  V30 34 H -4.3212 1.8986 -2.1897 0
M  V30 35 H -2.9406 1.42 -3.1551 0
M  V30 36 H -6.0446 -2.0806 -0.496 0
M  V30 37 H -4.7419 1.991 -4.6532 0
M  V30 38 H -5.8665 0.8902 -3.8546 0
M  V30 39 H -4.4866 0.2418 -4.7669 0
M  V30 40 H 2.3529 -1.6373 0.7278 0
M  V30 41 H 1.1658 -3.6468 1.2048 0
M  V30 42 H -0.3299 -3.5885 2.1574 0
M  V30 43 H 1.1908 -3.2211 2.9313 0
M  V30 44 H 2.4025 2.4094 -1.2107 0
M  V30 45 H 2.8839 -1.8407 3.1132 0
M  V30 46 H 1.9184 -0.4121 3.523 0
M  V30 47 H 4.529 3.6391 -1.1225 0
M  V30 48 H 6.5989 1.4316 2.9137 0
M  V30 49 H 6.2288 3.1625 0.6407 0
M  V30 50 H 5.3365 -0.3728 4.1247 0
M  V30 END ATOM
M  V30 BEGIN BOND
M  V30 1 2 1 2
M  V30 2 1 2 3
M  V30 3 1 2 4
M  V30 4 1 3 5
M  V30 5 1 4 6
M  V30 6 1 4 7
M  V30 7 1 5 8
M  V30 8 1 5 9
M  V30 9 2 6 10
M  V30 10 1 7 11
M  V30 11 1 8 12
M  V30 12 1 9 13
M  V30 13 1 10 14
M  V30 14 1 10 15
M  V30 15 1 11 16
M  V30 16 2 14 17
M  V30 17 1 14 18
M  V30 18 1 15 19
M  V30 19 1 17 20
M  V30 20 1 17 21
M  V30 21 2 18 22
M  V30 22 1 20 23
M  V30 23 2 20 24
M  V30 24 2 21 25
M  V30 25 1 11 15
M  V30 26 1 19 21
M  V30 27 1 22 24
M  V30 28 1 23 25
M  V30 29 1 3 26
M  V30 30 1 4 27
M  V30 31 1 5 28
M  V30 32 1 6 29
M  V30 33 1 7 30
M  V30 34 1 7 31
M  V30 35 1 8 32
M  V30 36 1 8 33
M  V30 37 1 9 34
M  V30 38 1 9 35
M  V30 39 1 12 36
M  V30 40 1 13 37
M  V30 41 1 13 38
M  V30 42 1 13 39
M  V30 43 1 15 40
M  V30 44 1 16 41
M  V30 45 1 16 42
M  V30 46 1 16 43
M  V30 47 1 18 44
M  V30 48 1 19 45
M  V30 49 1 19 46
M  V30 50 1 22 47
M  V30 51 1 23 48
M  V30 52 1 24 49
M  V30 53 1 25 50
M  V30 END BOND
M  V30 END CTAB
M  END
>  <Column 1>
3012

>  <level_0>
5162

>  <index>
5163

>  <Unnamed: 0>
5163

>  <NO.>
5175

>  <Name>
mls000756415

>  <IUPAC_name>
n-(1-hydroxybutan-2-yl)-7-methyl-6-6a-8-9-tetrahydro-4h-indolo[4-3-fg]quinoline-9-carboxamide

>  <SMILES>
CCC(CO)NC(=O)C1C=C2c3cccc4[nH]cc(c34)CC2N(C)C1

>  <CID>
4140

>  <logBB>


>  <BBB+/BBB->
BBB-

>  <Inchi>
InChI=1S/C20H25N3O2/c1-3-14(11-24)22-20(25)13-7-16-15-5-4-6-17-19(15)12(9-21-17)8-18(16)23(2)10-13/h4-7-9-13-14-18-21-24H-3-8-10-11H2-1-2H3-(H-22-25)

>  <threshold>


>  <reference>
R14|

>  <group>
C

>  <Class>
1

>  <ABC>
19.73

>  <ABCGG>
15.79

>  <nAcid>
0

>  <nBase>
1

>  <nAromAtom>
9

>  <nAromBond>
10

>  <nAtom>
50

>  <nHeavyAtom>
25

>  <nSpiro>
0

>  <nBridgehead>
0

>  <nHetero>
5

>  <nN>
3

>  <nO>
2

>  <nF>
0

>  <BalabanJ>
1.48

>  <BertzCT>
834.58

>  <nBonds>
53

>  <nBondsO>
28

>  <nBondsS>
41

>  <nBondsD>
2

>  <nBondsT>
0

>  <nBondsA>
10

>  <nBondsM>
12

>  <nBondsKS>
47

>  <nBondsKD>
6

>  <RNCG>
0.19

>  <RPCG>
0.11

>  <FCSP3>
0.45

>  <SZ>
30.33

>  <Sm>
28.26

>  <Sv>
30.48

>  <Sse>
49.75

>  <Sp>
32.92

>  <Si>
56.48

>  <MZ>
0.61

>  <Mm>
0.57

>  <Mv>
0.61

>  <Mse>
0.99

>  <Mp>
0.66

>  <Mi>
1.13

>  <NsCH3>
2

>  <NdCH2>
0

>  <NssCH2>
4

>  <NtCH>
0

>  <NdsCH>
1

>  <NaaCH>
4

>  <NsssCH>
3

>  <NddC>
0

>  <NtsC>
0

>  <NdssC>
2

>  <NaasC>
2

>  <NaaaC>
2

>  <NssssC>
0

>  <NsNH3>
0

>  <NsNH2>
0

>  <NssNH2>
0

>  <NdNH>
0

>  <NssNH>
1

>  <NaaNH>
1

>  <NtN>
0

>  <NsssNH>
0

>  <NdsN>
0

>  <NaaN>
0

>  <NsssN>
1

>  <NddsN>
0

>  <NaasN>
0

>  <NssssN>
0

>  <NsOH>
1

>  <NdO>
1

>  <NssO>
0

>  <NaaO>
0

>  <NsF>
0

>  <NsSiH3>
0

>  <NssSiH2>
0

>  <NsssSiH>
0

>  <NssssSi>
0

>  <NsPH2>
0

>  <NssPH>
0

>  <NsssP>
0

>  <NdsssP>
0

>  <NsssssP>
0

>  <NsSH>
0

>  <NdS>
0

>  <NssS>
0

>  <NaaS>
0

>  <NdssS>
0

>  <NddssS>
0

>  <NsCl>
0

>  <NsBr>
0

>  <NsI>
0

>  <fragCpx>
184.05

>  <fMF>
0.32

>  <nHBAcc>
3

>  <nHBDon>
3

>  <Kier1>
18.37

>  <Kier2>
7.55

>  <Lipinski>
1

>  <GhoseFilter>
1

>  <FilterItLogS>
-3.99

>  <VMcGowan>
265.1

>  <LabuteASA>
147.27

>  <PEOE_VSA1>
15.41

>  <PEOE_VSA2>
9.69

>  <PEOE_VSA3>
0

>  <PEOE_VSA4>
0

>  <PEOE_VSA5>
0

>  <PEOE_VSA6>
25.13

>  <PEOE_VSA7>
42.66

>  <PEOE_VSA8>
29.69

>  <PEOE_VSA9>
18.57

>  <PEOE_VSA10>
0

>  <PEOE_VSA11>
0

>  <PEOE_VSA12>
5.91

>  <PEOE_VSA13>
0

>  <SMR_VSA1>
9.9

>  <SMR_VSA2>
0

>  <SMR_VSA3>
15.2

>  <SMR_VSA4>
5.92

>  <SMR_VSA5>
31.85

>  <SMR_VSA6>
20.2

>  <SMR_VSA7>
41.6

>  <SMR_VSA8>
0

>  <SMR_VSA9>
0

>  <SlogP_VSA1>
5.32

>  <SlogP_VSA2>
53.18

>  <SlogP_VSA3>
11.22

>  <SlogP_VSA4>
5.92

>  <SlogP_VSA5>
24.47

>  <SlogP_VSA6>
30.47

>  <SlogP_VSA7>
0

>  <SlogP_VSA8>
16.48

>  <SlogP_VSA9>
0

>  <SlogP_VSA10>
0

>  <SlogP_VSA11>
0

>  <EState_VSA1>
0

>  <EState_VSA2>
24.47

>  <EState_VSA3>
12.59

>  <EState_VSA4>
18.36

>  <EState_VSA5>
22.09

>  <EState_VSA6>
0

>  <EState_VSA7>
6.92

>  <EState_VSA8>
52.72

>  <EState_VSA9>
0

>  <EState_VSA10>
9.9

>  <VSA_EState1>
0

>  <VSA_EState2>
18.34

>  <VSA_EState3>
13.62

>  <VSA_EState4>
5.01

>  <VSA_EState5>
-0.18

>  <VSA_EState6>
6.49

>  <VSA_EState7>
5.97

>  <VSA_EState8>
2.66

>  <VSA_EState9>
2.1

>  <apol>
54.97

>  <bpol>
28.8

>  <nRing>
4

>  <nHRing>
2

>  <naRing>
2

>  <naHRing>
1

>  <nARing 2>
2

>  <nAHRing 2>
1

>  <nFRing>
1

>  <nFHRing>
1

>  <nFaRing>
0

>  <nFaHRing>
0

>  <nFARing 2>
1

>  <nFAHRing 2>
1

>  <nRot>
4

>  <SLogP>
1.92

>  <SMR>
99.2

>  <TopoPSA(NO)>
68.36

>  <TopoPSA>
68.36

>  <JGI1>
0.18

>  <JGI2>
0.08

>  <JGI3>
0.04

>  <JGI4>
0.05

>  <JGI5>
0.02

>  <Diameter>
11

>  <Radius>
6

>  <TMWC10>
130.34

>  <TSRW10>
74.4

>  <MW>
339.19

>  <AMW>
6.78

>  <WPath>
1430

>  <WPol>
45

>  <Zagreb1>
138

>  <Zagreb2>
169

>  <mZagreb2>
5.53

>  <yes>


>  <nAR-cont>
1

>  <nHA-cont>
0.921834225

>  <MWHBN>
0.325783984

>  <MWHBN-cont>
0.757495874

>  <TPSA-cont>
0.522804751

>  <pka_cont>
0.97

>  <yes.1>


>  <BBB_SCORE>
4.588687538

>  <MMFF94 Energy>
94.392

$$$$
Compound 2440
Actelion Java MolfileCreator 2.0

  0  0  0  0  0  0              0 V3000
M  V30 BEGIN CTAB
M  V30 COUNTS 53 56 0 0 0
M  V30 BEGIN ATOM
M  V30 1 O -0.3183 -4.0644 0.9552 0
M  V30 2 C -0.5543 -2.8641 1.077 0
M  V30 3 N -1.4809 -2.1991 0.3081 0
M  V30 4 C 0.2336 -1.9804 2.0512 0
M  V30 5 C -2.2785 -2.8467 -0.7299 0
M  V30 6 C 1.3549 -1.3148 1.3023 0
M  V30 7 C -0.6505 -0.9648 2.7942 0
M  V30 8 C -1.4393 -3.0263 -2.0104 0
M  V30 9 C -3.5637 -2.0261 -0.945 0
M  V30 10 C 1.3711 0.0122 1.0759 0
M  V30 11 N -1.0222 0.1894 1.9426 0
M  V30 12 O -2.078 -3.8889 -2.945 0
M  V30 13 C -4.599 -2.6856 -1.842 0
M  V30 14 C 2.5203 0.6487 0.3888 0
M  V30 15 C 0.1955 0.947 1.5055 0
M  V30 16 C -1.9575 1.0474 2.6798 0
M  V30 17 C 2.2244 1.8828 -0.2065 0
M  V30 18 C 3.8358 0.1828 0.2809 0
M  V30 19 C -0.2057 1.9861 0.3887 0
M  V30 20 C 3.1834 2.6238 -0.8813 0
M  V30 21 C 0.999 2.5799 -0.2514 0
M  V30 22 C 4.8043 0.9301 -0.4023 0
M  V30 23 N 2.5405 3.7614 -1.3274 0
M  V30 24 C 4.5005 2.1641 -0.9977 0
M  V30 25 C 1.2149 3.7446 -0.9509 0
M  V30 26 C 3.1672 4.8193 -2.0873 0
M  V30 27 H -1.5515 -1.19 0.4428 0
M  V30 28 H 0.6674 -2.6506 2.8048 0
M  V30 29 H -2.5616 -3.84 -0.3588 0
M  V30 30 H 2.1541 -1.9672 0.9628 0
M  V30 31 H -0.1259 -0.6118 3.6931 0
M  V30 32 H -1.5593 -1.4782 3.1347 0
M  V30 33 H -0.4658 -3.4671 -1.769 0
M  V30 34 H -1.2563 -2.0601 -2.4936 0
M  V30 35 H -3.3147 -1.0357 -1.3466 0
M  V30 36 H -4.0317 -1.8472 0.0323 0
M  V30 37 H -1.426 -4.0764 -3.6418 0
M  V30 38 H -4.8015 -3.7132 -1.5248 0
M  V30 39 H -4.2784 -2.6951 -2.887 0
M  V30 40 H -5.54 -2.1272 -1.7984 0
M  V30 41 H 0.5817 1.5154 2.3665 0
M  V30 42 H -1.4931 1.5048 3.5606 0
M  V30 43 H -2.8261 0.468 3.0139 0
M  V30 44 H -2.3593 1.8409 2.0432 0
M  V30 45 H 4.1271 -0.7593 0.736 0
M  V30 46 H -0.8043 1.4875 -0.3847 0
M  V30 47 H -0.8142 2.7906 0.8164 0
M  V30 48 H 5.8199 0.5452 -0.4706 0
M  V30 49 H 5.2612 2.7313 -1.5228 0
M  V30 50 H 0.545 4.5523 -1.2158 0
M  V30 51 H 3.5489 4.3955 -3.0195 0
M  V30 52 H 3.9813 5.2379 -1.4901 0
M  V30 53 H 2.4321 5.5974 -2.3079 0
M  V30 END ATOM
M  V30 BEGIN BOND
M  V30 1 2 1 2
M  V30 2 1 2 3
M  V30 3 1 2 4
M  V30 4 1 3 5
M  V30 5 1 4 6
M  V30 6 1 4 7
M  V30 7 1 5 8
M  V30 8 1 5 9
M  V30 9 2 6 10
M  V30 10 1 7 11
M  V30 11 1 8 12
M  V30 12 1 9 13
M  V30 13 1 10 14
M  V30 14 1 10 15
M  V30 15 1 11 16
M  V30 16 2 14 17
M  V30 17 1 14 18
M  V30 18 1 15 19
M  V30 19 1 17 20
M  V30 20 1 17 21
M  V30 21 2 18 22
M  V30 22 1 20 23
M  V30 23 2 20 24
M  V30 24 2 21 25
M  V30 25 1 23 26
M  V30 26 1 11 15
M  V30 27 1 19 21
M  V30 28 1 22 24
M  V30 29 1 23 25
M  V30 30 1 3 27
M  V30 31 1 4 28
M  V30 32 1 5 29
M  V30 33 1 6 30
M  V30 34 1 7 31
M  V30 35 1 7 32
M  V30 36 1 8 33
M  V30 37 1 8 34
M  V30 38 1 9 35
M  V30 39 1 9 36
M  V30 40 1 12 37
M  V30 41 1 13 38
M  V30 42 1 13 39
M  V30 43 1 13 40
M  V30 44 1 15 41
M  V30 45 1 16 42
M  V30 46 1 16 43
M  V30 47 1 16 44
M  V30 48 1 18 45
M  V30 49 1 19 46
M  V30 50 1 19 47
M  V30 51 1 22 48
M  V30 52 1 24 49
M  V30 53 1 25 50
M  V30 54 1 26 51
M  V30 55 1 26 52
M  V30 56 1 26 53
M  V30 END BOND
M  V30 END CTAB
M  END
>  <Column 1>
3013

>  <level_0>
5163

>  <index>
5164

>  <Unnamed: 0>
5164

>  <NO.>
5176

>  <Name>
methysergide

>  <IUPAC_name>
n-(1-hydroxybutan-2-yl)-4-7-dimethyl-6-6a-8-9-tetrahydroindolo[4-3-fg]quinoline-9-carboxamide

>  <SMILES>
CCC(CO)NC(=O)C1C=C2c3cccc4c3c(cn4C)CC2N(C)C1

>  <CID>
4163

>  <logBB>


>  <BBB+/BBB->
BBB+

>  <Inchi>
InChI=1S/C21H27N3O2/c1-4-15(12-25)22-21(26)14-8-17-16-6-5-7-18-20(16)13(10-23(18)2)9-19(17)24(3)11-14/h5-8-10-14-15-19-25H-4-9-11-12H2-1-3H3-(H-22-26)

>  <threshold>


>  <reference>
R14|R23|

>  <group>
C

>  <Class>
-1

>  <ABC>
20.51

>  <ABCGG>
16.31

>  <nAcid>
0

>  <nBase>
1

>  <nAromAtom>
9

>  <nAromBond>
10

>  <nAtom>
53

>  <nHeavyAtom>
26

>  <nSpiro>
0

>  <nBridgehead>
0

>  <nHetero>
5

>  <nN>
3

>  <nO>
2

>  <nF>
0

>  <BalabanJ>
1.49

>  <BertzCT>
878.75

>  <nBonds>
56

>  <nBondsO>
29

>  <nBondsS>
44

>  <nBondsD>
2

>  <nBondsT>
0

>  <nBondsA>
10

>  <nBondsM>
12

>  <nBondsKS>
50

>  <nBondsKD>
6

>  <RNCG>
0.19

>  <RPCG>
0.11

>  <FCSP3>
0.48

>  <SZ>
31.67

>  <Sm>
29.43

>  <Sv>
32.02

>  <Sse>
52.64

>  <Sp>
34.72

>  <Si>
59.9

>  <MZ>
0.6

>  <Mm>
0.56

>  <Mv>
0.6

>  <Mse>
0.99

>  <Mp>
0.66

>  <Mi>
1.13

>  <NsCH3>
3

>  <NdCH2>
0

>  <NssCH2>
4

>  <NtCH>
0

>  <NdsCH>
1

>  <NaaCH>
4

>  <NsssCH>
3

>  <NddC>
0

>  <NtsC>
0

>  <NdssC>
2

>  <NaasC>
2

>  <NaaaC>
2

>  <NssssC>
0

>  <NsNH3>
0

>  <NsNH2>
0

>  <NssNH2>
0

>  <NdNH>
0

>  <NssNH>
1

>  <NaaNH>
0

>  <NtN>
0

>  <NsssNH>
0

>  <NdsN>
0

>  <NaaN>
0

>  <NsssN>
1

>  <NddsN>
0

>  <NaasN>
1

>  <NssssN>
0

>  <NsOH>
1

>  <NdO>
1

>  <NssO>
0

>  <NaaO>
0

>  <NsF>
0

>  <NsSiH3>
0

>  <NssSiH2>
0

>  <NsssSiH>
0

>  <NssssSi>
0

>  <NsPH2>
0

>  <NssPH>
0

>  <NsssP>
0

>  <NdsssP>
0

>  <NsssssP>
0

>  <NsSH>
0

>  <NdS>
0

>  <NssS>
0

>  <NaaS>
0

>  <NdssS>
0

>  <NddssS>
0

>  <NsCl>
0

>  <NsBr>
0

>  <NsI>
0

>  <fragCpx>
191.05

>  <fMF>
0.3

>  <nHBAcc>
4

>  <nHBDon>
2

>  <Kier1>
19.32

>  <Kier2>
7.79

>  <Lipinski>
1

>  <GhoseFilter>
1

>  <FilterItLogS>
-3.54

>  <VMcGowan>
279.19

>  <LabuteASA>
153.84

>  <PEOE_VSA1>
14.99

>  <PEOE_VSA2>
9.69

>  <PEOE_VSA3>
0

>  <PEOE_VSA4>
0

>  <PEOE_VSA5>
0

>  <PEOE_VSA6>
25.13

>  <PEOE_VSA7>
42.66

>  <PEOE_VSA8>
36.73

>  <PEOE_VSA9>
18.57

>  <PEOE_VSA10>
0

>  <PEOE_VSA11>
0

>  <PEOE_VSA12>
5.91

>  <PEOE_VSA13>
0

>  <SMR_VSA1>
9.9

>  <SMR_VSA2>
0

>  <SMR_VSA3>
14.78

>  <SMR_VSA4>
12.97

>  <SMR_VSA5>
31.85

>  <SMR_VSA6>
20.2

>  <SMR_VSA7>
41.6

>  <SMR_VSA8>
0

>  <SMR_VSA9>
0

>  <SlogP_VSA1>
5.32

>  <SlogP_VSA2>
52.76

>  <SlogP_VSA3>
18.26

>  <SlogP_VSA4>
5.92

>  <SlogP_VSA5>
24.47

>  <SlogP_VSA6>
30.47

>  <SlogP_VSA7>
0

>  <SlogP_VSA8>
16.48

>  <SlogP_VSA9>
0

>  <SlogP_VSA10>
0

>  <SlogP_VSA11>
0

>  <EState_VSA1>
0

>  <EState_VSA2>
24.47

>  <EState_VSA3>
12.59

>  <EState_VSA4>
12.84

>  <EState_VSA5>
27.6

>  <EState_VSA6>
0

>  <EState_VSA7>
6.92

>  <EState_VSA8>
59.35

>  <EState_VSA9>
0

>  <EState_VSA10>
9.9

>  <VSA_EState1>
2.2

>  <VSA_EState2>
15.04

>  <VSA_EState3>
13.7

>  <VSA_EState4>
5.16

>  <VSA_EState5>
-0.18

>  <VSA_EState6>
6.6

>  <VSA_EState7>
6.12

>  <VSA_EState8>
2.66

>  <VSA_EState9>
4.2

>  <apol>
57.98

>  <bpol>
31.94

>  <nRing>
4

>  <nHRing>
2

>  <naRing>
2

>  <naHRing>
1

>  <nARing 2>
2

>  <nAHRing 2>
1

>  <nFRing>
1

>  <nFHRing>
1

>  <nFaRing>
0

>  <nFaHRing>
0

>  <nFARing 2>
1

>  <nFAHRing 2>
1

>  <nRot>
4

>  <SLogP>
1.94

>  <SMR>
103.82

>  <TopoPSA(NO)>
57.5

>  <TopoPSA>
57.5

>  <JGI1>
0.19

>  <JGI2>
0.08

>  <JGI3>
0.05

>  <JGI4>
0.05

>  <JGI5>
0.03

>  <Diameter>
12

>  <Radius>
6

>  <TMWC10>
132.92

>  <TSRW10>
75.95

>  <MW>
353.21

>  <AMW>
6.66

>  <WPath>
1586

>  <WPol>
48

>  <Zagreb1>
144

>  <Zagreb2>
177

>  <mZagreb2>
5.72

>  <yes>


>  <nAR-cont>
1

>  <nHA-cont>
0.892715677

>  <MWHBN>
0.319252829

>  <MWHBN-cont>
0.779665899

>  <TPSA-cont>
0.598614295

>  <pka_cont>
0.97

>  <yes.1>


>  <BBB_SCORE>
4.744443114

>  <MMFF94 Energy>
97.842

$$$$
Compound 2441
Actelion Java MolfileCreator 2.0

  0  0  0  0  0  0              0 V3000
M  V30 BEGIN CTAB
M  V30 COUNTS 29 29 0 0 0
M  V30 BEGIN ATOM
M  V30 1 I 0.4234 -0.5082 -3.1368 0
M  V30 2 C -0.9726 0.3598 -1.7365 0
M  V30 3 C -2.3453 0.3029 -2.1014 0
M  V30 4 C -0.5302 0.984 -0.536 0
M  V30 5 N -2.7654 -0.3529 -3.2569 0
M  V30 6 C -3.2817 0.8842 -1.234 0
M  V30 7 C -1.5214 1.5866 0.2733 0
M  V30 8 C 0.9322 1.0079 -0.1166 0
M  V30 9 I -5.3466 0.8459 -1.6468 0
M  V30 10 C -2.878 1.5299 -0.0677 0
M  V30 11 I -1.108 2.6772 2.0434 0
M  V30 12 C 1.3066 -0.0118 0.9817 0 CFG=1
M  V30 13 C 2.6729 0.3751 1.5004 0
M  V30 14 C 1.3316 -1.4663 0.49 0
M  V30 15 O 3.6938 0.4925 0.8438 0
M  V30 16 O 2.6839 0.591 2.8293 0
M  V30 17 C 1.5803 -2.4651 1.6148 0
M  V30 18 H -2.0806 -0.7155 -3.9082 0
M  V30 19 H -3.7408 -0.3297 -3.5264 0
M  V30 20 H 1.1768 2.0252 0.2172 0
M  V30 21 H 1.6027 0.8869 -0.9717 0
M  V30 22 H -3.6231 1.9937 0.5754 0
M  V30 23 H 0.5928 0.0547 1.8103 0
M  V30 24 H 0.3695 -1.7193 0.0321 0
M  V30 25 H 2.1063 -1.5993 -0.2742 0
M  V30 26 H 3.6152 0.8236 3.0286 0
M  V30 27 H 0.8263 -2.3647 2.4022 0
M  V30 28 H 2.5689 -2.3274 2.0631 0
M  V30 29 H 1.5298 -3.4874 1.2265 0
M  V30 END ATOM
M  V30 BEGIN BOND
M  V30 1 1 1 2
M  V30 2 2 2 3
M  V30 3 1 2 4
M  V30 4 1 3 5
M  V30 5 1 3 6
M  V30 6 2 4 7
M  V30 7 1 4 8
M  V30 8 1 6 9
M  V30 9 2 6 10
M  V30 10 1 7 11
M  V30 11 1 8 12
M  V30 12 1 12 13
M  V30 13 1 12 14
M  V30 14 2 13 15
M  V30 15 1 13 16
M  V30 16 1 14 17
M  V30 17 1 7 10
M  V30 18 1 5 18
M  V30 19 1 5 19
M  V30 20 1 8 20
M  V30 21 1 8 21
M  V30 22 1 10 22
M  V30 23 1 12 23
M  V30 24 1 14 24
M  V30 25 1 14 25
M  V30 26 1 16 26
M  V30 27 1 17 27
M  V30 28 1 17 28
M  V30 29 1 17 29
M  V30 END BOND
M  V30 BEGIN COLLECTION
M  V30 MDLV30/STERAC1 ATOMS=(1 12)
M  V30 END COLLECTION
M  V30 END CTAB
M  END
>  <Column 1>
3014

>  <level_0>
5164

>  <index>
5165

>  <Unnamed: 0>
5165

>  <NO.>
5177

>  <Name>
iopanoic acid

>  <IUPAC_name>
2-[(3-amino-2-4-6-triiodophenyl)methyl]butanoic acid

>  <SMILES>
CCC(Cc1c(I)cc(I)c(N)c1I)C(=O)O

>  <CID>
3735

>  <logBB>


>  <BBB+/BBB->
BBB-

>  <Inchi>
InChI=1S/C11H12I3NO2/c1-2-5(11(16)17)3-6-7(12)4-8(13)10(15)9(6)14/h4-5H-2-3-15H2-1H3-(H-16-17)

>  <threshold>


>  <reference>
R14|R23|

>  <group>
C

>  <Class>
-1

>  <ABC>
12.47

>  <ABCGG>
11.98

>  <nAcid>
1

>  <nBase>
0

>  <nAromAtom>
6

>  <nAromBond>
6

>  <nAtom>
29

>  <nHeavyAtom>
17

>  <nSpiro>
0

>  <nBridgehead>
0

>  <nHetero>
6

>  <nN>
1

>  <nO>
2

>  <nF>
0

>  <BalabanJ>
2.68

>  <BertzCT>
448.83

>  <nBonds>
29

>  <nBondsO>
17

>  <nBondsS>
22

>  <nBondsD>
1

>  <nBondsT>
0

>  <nBondsA>
6

>  <nBondsM>
7

>  <nBondsKS>
25

>  <nBondsKD>
4

>  <RNCG>
0.34

>  <RPCG>
0.21

>  <FCSP3>
0.36

>  <SZ>
43.33

>  <Sm>
47.53

>  <Sv>
21.18

>  <Sse>
29.19

>  <Sp>
27.02

>  <Si>
31.99

>  <MZ>
1.49

>  <Mm>
1.64

>  <Mv>
0.73

>  <Mse>
1.01

>  <Mp>
0.93

>  <Mi>
1.1

>  <NsCH3>
1

>  <NdCH2>
0

>  <NssCH2>
2

>  <NtCH>
0

>  <NdsCH>
0

>  <NaaCH>
1

>  <NsssCH>
1

>  <NddC>
0

>  <NtsC>
0

>  <NdssC>
1

>  <NaasC>
5

>  <NaaaC>
0

>  <NssssC>
0

>  <NsNH3>
0

>  <NsNH2>
1

>  <NssNH2>
0

>  <NdNH>
0

>  <NssNH>
0

>  <NaaNH>
0

>  <NtN>
0

>  <NsssNH>
0

>  <NdsN>
0

>  <NaaN>
0

>  <NsssN>
0

>  <NddsN>
0

>  <NaasN>
0

>  <NssssN>
0

>  <NsOH>
1

>  <NdO>
1

>  <NssO>
0

>  <NaaO>
0

>  <NsF>
0

>  <NsSiH3>
0

>  <NssSiH2>
0

>  <NsssSiH>
0

>  <NssssSi>
0

>  <NsPH2>
0

>  <NssPH>
0

>  <NsssP>
0

>  <NdsssP>
0

>  <NsssssP>
0

>  <NsSH>
0

>  <NdS>
0

>  <NssS>
0

>  <NaaS>
0

>  <NdssS>
0

>  <NddssS>
0

>  <NsCl>
0

>  <NsBr>
0

>  <NsI>
3

>  <fragCpx>
17.06

>  <fMF>
0.21

>  <nHBAcc>
2

>  <nHBDon>
2

>  <Kier1>
15.06

>  <Kier2>
6.25

>  <Lipinski>
0

>  <GhoseFilter>
0

>  <FilterItLogS>
-5.09

>  <VMcGowan>
237

>  <LabuteASA>
141.34

>  <PEOE_VSA1>
10.84

>  <PEOE_VSA2>
4.79

>  <PEOE_VSA3>
0

>  <PEOE_VSA4>
0

>  <PEOE_VSA5>
0

>  <PEOE_VSA6>
6.92

>  <PEOE_VSA7>
92.24

>  <PEOE_VSA8>
10.71

>  <PEOE_VSA9>
11.61

>  <PEOE_VSA10>
0

>  <PEOE_VSA11>
0

>  <PEOE_VSA12>
0

>  <PEOE_VSA13>
0

>  <SMR_VSA1>
9.9

>  <SMR_VSA2>
0

>  <SMR_VSA3>
0

>  <SMR_VSA4>
5.92

>  <SMR_VSA5>
19.77

>  <SMR_VSA6>
5.73

>  <SMR_VSA7>
22.34

>  <SMR_VSA8>
0

>  <SMR_VSA9>
0

>  <SlogP_VSA1>
5.73

>  <SlogP_VSA2>
11.08

>  <SlogP_VSA3>
11.22

>  <SlogP_VSA4>
16.63

>  <SlogP_VSA5>
18.91

>  <SlogP_VSA6>
6.07

>  <SlogP_VSA7>
0

>  <SlogP_VSA8>
0

>  <SlogP_VSA9>
0

>  <SlogP_VSA10>
5.69

>  <SlogP_VSA11>
0

>  <EState_VSA1>
5.97

>  <EState_VSA2>
5.92

>  <EState_VSA3>
12.84

>  <EState_VSA4>
21.96

>  <EState_VSA5>
0

>  <EState_VSA6>
0

>  <EState_VSA7>
12.99

>  <EState_VSA8>
67.77

>  <EState_VSA9>
10.84

>  <EState_VSA10>
4.79

>  <VSA_EState1>
3.09

>  <VSA_EState2>
11.07

>  <VSA_EState3>
9.1

>  <VSA_EState4>
7.78

>  <VSA_EState5>
-1.08

>  <VSA_EState6>
2

>  <VSA_EState7>
1.18

>  <VSA_EState8>
1.9

>  <VSA_EState9>
0

>  <apol>
45.13

>  <bpol>
23.38

>  <nRing>
1

>  <nHRing>
0

>  <naRing>
1

>  <naHRing>
0

>  <nARing 2>
0

>  <nAHRing 2>
0

>  <nFRing>
0

>  <nFHRing>
0

>  <nFaRing>
0

>  <nFaHRing>
0

>  <nFARing 2>
0

>  <nFAHRing 2>
0

>  <nRot>
4

>  <SLogP>
3.74

>  <SMR>
94.13

>  <TopoPSA(NO)>
63.32

>  <TopoPSA>
63.32

>  <JGI1>
0.26

>  <JGI2>
0.12

>  <JGI3>
0.06

>  <JGI4>
0.06

>  <JGI5>
0.04

>  <Diameter>
8

>  <Radius>
4

>  <TMWC10>
104.72

>  <TSRW10>
49.51

>  <MW>
570.8

>  <AMW>
19.68

>  <WPath>
506

>  <WPol>
27

>  <Zagreb1>
82

>  <Zagreb2>
95

>  <mZagreb2>
3.89

>  <yes>


>  <nAR-cont>
0.336376

>  <nHA-cont>
0.976740822

>  <MWHBN>
0.167424114

>  <MWHBN-cont>
0.969773461

>  <TPSA-cont>
0.557987081

>  <pka_cont>
0.97

>  <yes.1>


>  <BBB_SCORE>
4.368751174

>  <MMFF94 Energy>
22.326

$$$$
Compound 2442
Actelion Java MolfileCreator 2.0

  0  0  0  0  0  0              0 V3000
M  V30 BEGIN CTAB
M  V30 COUNTS 37 39 0 0 0
M  V30 BEGIN ATOM
M  V30 1 O -0.7202 0.8003 -2.242 0
M  V30 2 C -0.9126 1.0439 -1.0555 0
M  V30 3 O -2.069 1.7092 -0.675 0
M  V30 4 C 0.0638 0.6628 0.0115 0
M  V30 5 C -2.3084 2.0759 0.6542 0
M  V30 6 C -0.1894 1.0124 1.2917 0
M  V30 7 C 1.3084 -0.0998 -0.4508 0 CFG=2
M  V30 8 C -1.3995 1.7562 1.6518 0
M  V30 9 C -3.488 2.7733 0.9171 0
M  V30 10 O 0.619 0.7188 2.3714 0
M  V30 11 C 0.9837 -1.5532 -0.7946 0
M  V30 12 C 2.1498 0.6791 -1.4967 0
M  V30 13 C -1.696 2.1587 2.9612 0
M  V30 14 C -3.7699 3.1668 2.2224 0
M  V30 15 C 0.9402 -2.5124 0.2338 0
M  V30 16 C 0.6922 -1.9738 -2.1006 0
M  V30 17 C 3.5562 0.1107 -1.6666 0
M  V30 18 C -2.8735 2.8601 3.2452 0
M  V30 19 C 0.6346 -3.8475 -0.0398 0
M  V30 20 C 0.3858 -3.3094 -2.3732 0
M  V30 21 C 0.3597 -4.2462 -1.3442 0
M  V30 22 H 1.999 -0.1676 0.3985 0
M  V30 23 H -4.1778 3.007 0.1113 0
M  V30 24 H 1.3358 0.1191 2.1224 0
M  V30 25 H 1.6735 0.7033 -2.4811 0
M  V30 26 H 2.2461 1.7237 -1.1728 0
M  V30 27 H -1.0125 1.9295 3.776 0
M  V30 28 H -4.6847 3.7109 2.443 0
M  V30 29 H 1.1422 -2.2311 1.2643 0
M  V30 30 H 0.6843 -1.267 -2.9277 0
M  V30 31 H 3.5339 -0.9132 -2.0504 0
M  V30 32 H 4.0981 0.1114 -0.7154 0
M  V30 33 H 4.1233 0.7215 -2.3764 0
M  V30 34 H -3.0884 3.1647 4.2667 0
M  V30 35 H 0.6066 -4.5756 0.7666 0
M  V30 36 H 0.1597 -3.6134 -3.3922 0
M  V30 37 H 0.1178 -5.2835 -1.5589 0
M  V30 END ATOM
M  V30 BEGIN BOND
M  V30 1 2 1 2
M  V30 2 1 2 3
M  V30 3 1 2 4
M  V30 4 1 3 5
M  V30 5 2 4 6
M  V30 6 1 4 7
M  V30 7 2 5 8
M  V30 8 1 5 9
M  V30 9 1 6 10
M  V30 10 1 7 11
M  V30 11 1 7 12
M  V30 12 1 8 13
M  V30 13 2 9 14
M  V30 14 2 11 15
M  V30 15 1 11 16
M  V30 16 1 12 17
M  V30 17 2 13 18
M  V30 18 1 15 19
M  V30 19 2 16 20
M  V30 20 2 19 21
M  V30 21 1 6 8
M  V30 22 1 14 18
M  V30 23 1 20 21
M  V30 24 1 7 22
M  V30 25 1 9 23
M  V30 26 1 10 24
M  V30 27 1 12 25
M  V30 28 1 12 26
M  V30 29 1 13 27
M  V30 30 1 14 28
M  V30 31 1 15 29
M  V30 32 1 16 30
M  V30 33 1 17 31
M  V30 34 1 17 32
M  V30 35 1 17 33
M  V30 36 1 18 34
M  V30 37 1 19 35
M  V30 38 1 20 36
M  V30 39 1 21 37
M  V30 END BOND
M  V30 BEGIN COLLECTION
M  V30 MDLV30/STERAC1 ATOMS=(1 7)
M  V30 END COLLECTION
M  V30 END CTAB
M  END
>  <Column 1>
3015

>  <level_0>
5165

>  <index>
5166

>  <Unnamed: 0>
5166

>  <NO.>
5178

>  <Name>
phenprocoumon

>  <IUPAC_name>
4-hydroxy-3-(1-phenylpropyl)chromen-2-one

>  <SMILES>
CCC(c1ccccc1)c1c(O)c2ccccc2oc1=O

>  <CID>
54680692

>  <logBB>


>  <BBB+/BBB->
BBB-

>  <Inchi>
InChI=1S/C18H16O3/c1-2-13(12-8-4-3-5-9-12)16-17(19)14-10-6-7-11-15(14)21-18(16)20/h3-11-13-19H-2H2-1H3

>  <threshold>


>  <reference>
R14|

>  <group>
C

>  <Class>
-1

>  <ABC>
16.24

>  <ABCGG>
13.56

>  <nAcid>
0

>  <nBase>
0

>  <nAromAtom>
16

>  <nAromBond>
17

>  <nAtom>
37

>  <nHeavyAtom>
21

>  <nSpiro>
0

>  <nBridgehead>
0

>  <nHetero>
3

>  <nN>
0

>  <nO>
3

>  <nF>
0

>  <BalabanJ>
1.74

>  <BertzCT>
818.74

>  <nBonds>
39

>  <nBondsO>
23

>  <nBondsS>
21

>  <nBondsD>
1

>  <nBondsT>
0

>  <nBondsA>
17

>  <nBondsM>
18

>  <nBondsKS>
31

>  <nBondsKD>
8

>  <RNCG>
0.28

>  <RPCG>
0.19

>  <FCSP3>
0.17

>  <SZ>
24.67

>  <Sm>
23.34

>  <Sv>
24.48

>  <Sse>
37.09

>  <Sp>
25.83

>  <Si>
40.95

>  <MZ>
0.67

>  <Mm>
0.63

>  <Mv>
0.66

>  <Mse>
1

>  <Mp>
0.7

>  <Mi>
1.11

>  <NsCH3>
1

>  <NdCH2>
0

>  <NssCH2>
1

>  <NtCH>
0

>  <NdsCH>
0

>  <NaaCH>
9

>  <NsssCH>
1

>  <NddC>
0

>  <NtsC>
0

>  <NdssC>
0

>  <NaasC>
3

>  <NaaaC>
2

>  <NssssC>
0

>  <NsNH3>
0

>  <NsNH2>
0

>  <NssNH2>
0

>  <NdNH>
0

>  <NssNH>
0

>  <NaaNH>
0

>  <NtN>
0

>  <NsssNH>
0

>  <NdsN>
0

>  <NaaN>
0

>  <NsssN>
0

>  <NddsN>
0

>  <NaasN>
0

>  <NssssN>
0

>  <NsOH>
1

>  <NdO>
1

>  <NssO>
0

>  <NaaO>
1

>  <NsF>
0

>  <NsSiH3>
0

>  <NssSiH2>
0

>  <NsssSiH>
0

>  <NssssSi>
0

>  <NsPH2>
0

>  <NssPH>
0

>  <NsssP>
0

>  <NdsssP>
0

>  <NsssssP>
0

>  <NsSH>
0

>  <NdS>
0

>  <NssS>
0

>  <NaaS>
0

>  <NdssS>
0

>  <NddssS>
0

>  <NsCl>
0

>  <NsBr>
0

>  <NsI>
0

>  <fragCpx>
109.03

>  <fMF>
0.46

>  <nHBAcc>
3

>  <nHBDon>
1

>  <Kier1>
15.88

>  <Kier2>
7.05

>  <Lipinski>
1

>  <GhoseFilter>
1

>  <FilterItLogS>
-5.03

>  <VMcGowan>
215.11

>  <LabuteASA>
122.03

>  <PEOE_VSA1>
9.52

>  <PEOE_VSA2>
0

>  <PEOE_VSA3>
4.79

>  <PEOE_VSA4>
0

>  <PEOE_VSA5>
0

>  <PEOE_VSA6>
49.39

>  <PEOE_VSA7>
24.12

>  <PEOE_VSA8>
5.92

>  <PEOE_VSA9>
10.95

>  <PEOE_VSA10>
11.33

>  <PEOE_VSA11>
0

>  <PEOE_VSA12>
0

>  <PEOE_VSA13>
0

>  <SMR_VSA1>
9.52

>  <SMR_VSA2>
0

>  <SMR_VSA3>
0

>  <SMR_VSA4>
0

>  <SMR_VSA5>
19.26

>  <SMR_VSA6>
0

>  <SMR_VSA7>
76.14

>  <SMR_VSA8>
0

>  <SMR_VSA9>
5.75

>  <SlogP_VSA1>
5.63

>  <SlogP_VSA2>
5.11

>  <SlogP_VSA3>
0

>  <SlogP_VSA4>
0

>  <SlogP_VSA5>
30.39

>  <SlogP_VSA6>
63.81

>  <SlogP_VSA7>
0

>  <SlogP_VSA8>
10.97

>  <SlogP_VSA9>
0

>  <SlogP_VSA10>
0

>  <SlogP_VSA11>
5.75

>  <EState_VSA1>
5.63

>  <EState_VSA2>
11.67

>  <EState_VSA3>
22.95

>  <EState_VSA4>
5.56

>  <EState_VSA5>
0

>  <EState_VSA6>
18.2

>  <EState_VSA7>
43.32

>  <EState_VSA8>
0

>  <EState_VSA9>
4.42

>  <EState_VSA10>
9.9

>  <VSA_EState1>
5.36

>  <VSA_EState2>
12.3

>  <VSA_EState3>
11.1

>  <VSA_EState4>
1.27

>  <VSA_EState5>
-0.15

>  <VSA_EState6>
16.74

>  <VSA_EState7>
0.71

>  <VSA_EState8>
1.99

>  <VSA_EState9>
0

>  <apol>
43.13

>  <bpol>
18.66

>  <nRing>
3

>  <nHRing>
1

>  <naRing>
3

>  <naHRing>
1

>  <nARing 2>
0

>  <nAHRing 2>
0

>  <nFRing>
1

>  <nFHRing>
1

>  <nFaRing>
1

>  <nFaHRing>
1

>  <nFARing 2>
0

>  <nFAHRing 2>
0

>  <nRot>
3

>  <SLogP>
4.04

>  <SMR>
82.72

>  <TopoPSA(NO)>
50.44

>  <TopoPSA>
50.44

>  <JGI1>
0.13

>  <JGI2>
0.08

>  <JGI3>
0.06

>  <JGI4>
0.05

>  <JGI5>
0.03

>  <Diameter>
10

>  <Radius>
5

>  <TMWC10>
118.44

>  <TSRW10>
55.16

>  <MW>
280.11

>  <AMW>
7.57

>  <WPath>
858

>  <WPol>
36

>  <Zagreb1>
110

>  <Zagreb2>
132

>  <mZagreb2>
4.75

>  <yes>


>  <nAR-cont>
0.336376

>  <nHA-cont>
0.994529749

>  <MWHBN>
0.23899878

>  <MWHBN-cont>
0.97630687

>  <TPSA-cont>
0.647897479

>  <pka_cont>
0.97

>  <yes.1>


>  <BBB_SCORE>
4.576161012

>  <MMFF94 Energy>
56.787

$$$$
Compound 2443
Actelion Java MolfileCreator 2.0

  0  0  0  0  0  0              0 V3000
M  V30 BEGIN CTAB
M  V30 COUNTS 40 41 0 0 0
M  V30 BEGIN ATOM
M  V30 1 O 4.4121 0.9441 -1.6527 0
M  V30 2 C 3.6642 0.6102 -0.5607 0
M  V30 3 C 2.2784 0.4531 -0.6501 0
M  V30 4 C 4.3306 0.4352 0.642 0
M  V30 5 C 1.5181 0.1035 0.4823 0
M  V30 6 C 3.604 0.1019 1.778 0
M  V30 7 C 2.217 -0.0578 1.6991 0
M  V30 8 C -0.0333 -0.0741 0.441 0 CFG=2
M  V30 9 C -0.6011 -0.0122 -1.026 0
M  V30 10 C -0.6143 1.0846 1.3149 0
M  V30 11 C -0.4261 -1.4468 1.0974 0
M  V30 12 N -2.0312 -0.3383 -1.1443 0
M  V30 13 C -2.1297 1.3008 1.3021 0
M  V30 14 C 0.159 -2.6868 0.4251 0
M  V30 15 C -2.9229 0.8236 -1.0892 0
M  V30 16 C -2.3082 -1.112 -2.3572 0
M  V30 17 C -2.6188 1.8741 -0.0217 0
M  V30 18 H 3.8234 1.0264 -2.42 0
M  V30 19 H 1.8076 0.6114 -1.6133 0
M  V30 20 H 5.4076 0.5618 0.694 0
M  V30 21 H 4.1132 -0.0319 2.7286 0
M  V30 22 H 1.6869 -0.3085 2.6155 0
M  V30 23 H -0.3988 0.9654 -1.4842 0
M  V30 24 H -0.0274 -0.7321 -1.6256 0
M  V30 25 H -0.1351 2.0307 1.0235 0
M  V30 26 H -0.3253 0.9285 2.3634 0
M  V30 27 H -1.5168 -1.5594 1.1128 0
M  V30 28 H -0.1295 -1.4665 2.1531 0
M  V30 29 H -2.6734 0.3896 1.5724 0
M  V30 30 H -2.3572 2.0351 2.0861 0
M  V30 31 H -0.1569 -3.5836 0.9688 0
M  V30 32 H -0.1863 -2.7933 -0.6059 0
M  V30 33 H 1.2524 -2.6726 0.4241 0
M  V30 34 H -3.9409 0.4529 -0.9104 0
M  V30 35 H -2.9484 1.3392 -2.0589 0
M  V30 36 H -3.3686 -1.3841 -2.41 0
M  V30 37 H -2.0468 -0.5575 -3.2658 0
M  V30 38 H -1.7489 -2.0536 -2.3541 0
M  V30 39 H -1.8925 2.5997 -0.4085 0
M  V30 40 H -3.5413 2.4407 0.1598 0
M  V30 END ATOM
M  V30 BEGIN BOND
M  V30 1 1 1 2
M  V30 2 2 2 3
M  V30 3 1 2 4
M  V30 4 1 3 5
M  V30 5 2 4 6
M  V30 6 2 5 7
M  V30 7 1 5 8
M  V30 8 1 8 9
M  V30 9 1 8 10
M  V30 10 1 8 11
M  V30 11 1 9 12
M  V30 12 1 10 13
M  V30 13 1 11 14
M  V30 14 1 12 15
M  V30 15 1 12 16
M  V30 16 1 13 17
M  V30 17 1 6 7
M  V30 18 1 15 17
M  V30 19 1 1 18
M  V30 20 1 3 19
M  V30 21 1 4 20
M  V30 22 1 6 21
M  V30 23 1 7 22
M  V30 24 1 9 23
M  V30 25 1 9 24
M  V30 26 1 10 25
M  V30 27 1 10 26
M  V30 28 1 11 27
M  V30 29 1 11 28
M  V30 30 1 13 29
M  V30 31 1 13 30
M  V30 32 1 14 31
M  V30 33 1 14 32
M  V30 34 1 14 33
M  V30 35 1 15 34
M  V30 36 1 15 35
M  V30 37 1 16 36
M  V30 38 1 16 37
M  V30 39 1 16 38
M  V30 40 1 17 39
M  V30 41 1 17 40
M  V30 END BOND
M  V30 BEGIN COLLECTION
M  V30 MDLV30/STERAC1 ATOMS=(1 8)
M  V30 END COLLECTION
M  V30 END CTAB
M  END
>  <Column 1>
3017

>  <level_0>
5168

>  <index>
5169

>  <Unnamed: 0>
5169

>  <NO.>
5181

>  <Name>
meptazinol

>  <IUPAC_name>
3-(3-ethyl-1-methylazepan-3-yl)phenol

>  <SMILES>
CCC1(c2cccc(O)c2)CCCCN(C)C1

>  <CID>
41049

>  <logBB>


>  <BBB+/BBB->
BBB+

>  <Inchi>
InChI=1S/C15H23NO/c1-3-15(9-4-5-10-16(2)12-15)13-7-6-8-14(17)11-13/h6-8-11-17H-3-5-9-10-12H2-1-2H3

>  <threshold>


>  <reference>
R14|R23|

>  <group>
C

>  <Class>
-1

>  <ABC>
12.89

>  <ABCGG>
11.48

>  <nAcid>
0

>  <nBase>
1

>  <nAromAtom>
6

>  <nAromBond>
6

>  <nAtom>
40

>  <nHeavyAtom>
17

>  <nSpiro>
0

>  <nBridgehead>
0

>  <nHetero>
2

>  <nN>
1

>  <nO>
1

>  <nF>
0

>  <BalabanJ>
2.1

>  <BertzCT>
376.94

>  <nBonds>
41

>  <nBondsO>
18

>  <nBondsS>
35

>  <nBondsD>
0

>  <nBondsT>
0

>  <nBondsA>
6

>  <nBondsM>
6

>  <nBondsKS>
38

>  <nBondsKD>
3

>  <RNCG>
0.4

>  <RPCG>
0.23

>  <FCSP3>
0.6

>  <SZ>
21.33

>  <Sm>
19.43

>  <Sv>
22.7

>  <Sse>
39.2

>  <Sp>
25.32

>  <Si>
45.28

>  <MZ>
0.53

>  <Mm>
0.49

>  <Mv>
0.57

>  <Mse>
0.98

>  <Mp>
0.63

>  <Mi>
1.13

>  <NsCH3>
2

>  <NdCH2>
0

>  <NssCH2>
6

>  <NtCH>
0

>  <NdsCH>
0

>  <NaaCH>
4

>  <NsssCH>
0

>  <NddC>
0

>  <NtsC>
0

>  <NdssC>
0

>  <NaasC>
2

>  <NaaaC>
0

>  <NssssC>
1

>  <NsNH3>
0

>  <NsNH2>
0

>  <NssNH2>
0

>  <NdNH>
0

>  <NssNH>
0

>  <NaaNH>
0

>  <NtN>
0

>  <NsssNH>
0

>  <NdsN>
0

>  <NaaN>
0

>  <NsssN>
1

>  <NddsN>
0

>  <NaasN>
0

>  <NssssN>
0

>  <NsOH>
1

>  <NdO>
0

>  <NssO>
0

>  <NaaO>
0

>  <NsF>
0

>  <NsSiH3>
0

>  <NssSiH2>
0

>  <NsssSiH>
0

>  <NssssSi>
0

>  <NsPH2>
0

>  <NssPH>
0

>  <NsssP>
0

>  <NdsssP>
0

>  <NsssssP>
0

>  <NsSH>
0

>  <NdS>
0

>  <NssS>
0

>  <NaaS>
0

>  <NdssS>
0

>  <NddssS>
0

>  <NsCl>
0

>  <NsBr>
0

>  <NsI>
0

>  <fragCpx>
52.02

>  <fMF>
0.33

>  <nHBAcc>
2

>  <nHBDon>
1

>  <Kier1>
13.43

>  <Kier2>
5.76

>  <Lipinski>
1

>  <GhoseFilter>
1

>  <FilterItLogS>
-3.4

>  <VMcGowan>
203.44

>  <LabuteASA>
104.26

>  <PEOE_VSA1>
10.01

>  <PEOE_VSA2>
0

>  <PEOE_VSA3>
0

>  <PEOE_VSA4>
0

>  <PEOE_VSA5>
0

>  <PEOE_VSA6>
25.48

>  <PEOE_VSA7>
50.55

>  <PEOE_VSA8>
11.96

>  <PEOE_VSA9>
0

>  <PEOE_VSA10>
5.75

>  <PEOE_VSA11>
0

>  <PEOE_VSA12>
0

>  <PEOE_VSA13>
0

>  <SMR_VSA1>
5.11

>  <SMR_VSA2>
0

>  <SMR_VSA3>
4.9

>  <SMR_VSA4>
0

>  <SMR_VSA5>
38.02

>  <SMR_VSA6>
20.14

>  <SMR_VSA7>
29.83

>  <SMR_VSA8>
0

>  <SMR_VSA9>
5.75

>  <SlogP_VSA1>
0

>  <SlogP_VSA2>
30.14

>  <SlogP_VSA3>
5.41

>  <SlogP_VSA4>
0

>  <SlogP_VSA5>
38.17

>  <SlogP_VSA6>
24.27

>  <SlogP_VSA7>
0

>  <SlogP_VSA8>
0

>  <SlogP_VSA9>
0

>  <SlogP_VSA10>
0

>  <SlogP_VSA11>
5.75

>  <EState_VSA1>
0

>  <EState_VSA2>
5.41

>  <EState_VSA3>
5.75

>  <EState_VSA4>
12.97

>  <EState_VSA5>
31.37

>  <EState_VSA6>
6.07

>  <EState_VSA7>
12.13

>  <EState_VSA8>
24.94

>  <EState_VSA9>
0

>  <EState_VSA10>
5.11

>  <VSA_EState1>
0

>  <VSA_EState2>
2.43

>  <VSA_EState3>
9.68

>  <VSA_EState4>
1.53

>  <VSA_EState5>
0.39

>  <VSA_EState6>
7.84

>  <VSA_EState7>
4.95

>  <VSA_EState8>
4.57

>  <VSA_EState9>
2.21

>  <apol>
42.29

>  <bpol>
24.78

>  <nRing>
2

>  <nHRing>
1

>  <naRing>
1

>  <naHRing>
0

>  <nARing 2>
1

>  <nAHRing 2>
1

>  <nFRing>
0

>  <nFHRing>
0

>  <nFaRing>
0

>  <nFaHRing>
0

>  <nFARing 2>
0

>  <nFAHRing 2>
0

>  <nRot>
2

>  <SLogP>
3.16

>  <SMR>
71.42

>  <TopoPSA(NO)>
23.47

>  <TopoPSA>
23.47

>  <JGI1>
0.25

>  <JGI2>
0.09

>  <JGI3>
0.05

>  <JGI4>
0.04

>  <JGI5>
0.02

>  <Diameter>
7

>  <Radius>
4

>  <TMWC10>
106.54

>  <TSRW10>
57.65

>  <MW>
233.18

>  <AMW>
5.83

>  <WPath>
474

>  <WPol>
29

>  <Zagreb1>
86

>  <Zagreb2>
100

>  <mZagreb2>
3.88

>  <yes>


>  <nAR-cont>
0.816016

>  <nHA-cont>
0.976740822

>  <MWHBN>
0.196460663

>  <MWHBN-cont>
0.998710909

>  <TPSA-cont>
0.836164826

>  <pka_cont>
0.97

>  <yes.1>


>  <BBB_SCORE>
5.448152838

>  <MMFF94 Energy>
54.03

$$$$
Compound 2444
Actelion Java MolfileCreator 2.0

  0  0  0  0  0  0              0 V3000
M  V30 BEGIN CTAB
M  V30 COUNTS 52 56 0 0 0
M  V30 BEGIN ATOM
M  V30 1 O -0.0805 0.4026 -4.0315 0
M  V30 2 C 0.1771 0.5146 -2.8348 0
M  V30 3 O 1.4221 0.7643 -2.3454 0
M  V30 4 C -0.8786 0.3618 -1.7143 0
M  V30 5 C 2.4406 0.8639 -3.3416 0
M  V30 6 O -2.1786 0.1909 -2.3241 0
M  V30 7 N -0.6438 -0.8343 -0.9041 0
M  V30 8 C -0.9945 1.6835 -0.8946 0
M  V30 9 C -0.4141 -2.133 -1.3416 0
M  V30 10 C -0.6738 -0.8237 0.462 0
M  V30 11 C -0.4772 1.6889 0.5814 0
M  V30 12 C -0.2711 -2.9353 -0.1959 0
M  V30 13 C -0.315 -2.6882 -2.6307 0
M  V30 14 C -0.4384 -2.0939 0.9312 0
M  V30 15 C -0.9381 0.3856 1.2962 0
M  V30 16 C 1.0668 1.7782 0.6334 0
M  V30 17 C -1.1309 2.9067 1.327 0
M  V30 18 C -0.0098 -4.3119 -0.3472 0
M  V30 19 C -0.0589 -4.0582 -2.7511 0
M  V30 20 C -0.3626 -2.3711 2.3946 0
M  V30 21 N -0.3606 0.2017 2.6546 0
M  V30 22 C 1.5919 1.6421 2.0598 0
M  V30 23 C -0.7604 4.2889 0.8006 0
M  V30 24 C 0.0939 -4.861 -1.6272 0
M  V30 25 C -0.7804 -1.115 3.2142 0
M  V30 26 C 1.103 0.3412 2.6935 0
M  V30 27 H 3.3914 1.0517 -2.8354 0
M  V30 28 H 2.5239 -0.074 -3.8993 0
M  V30 29 H 2.2353 1.701 -4.016 0
M  V30 30 H -2.0822 -0.5183 -2.9847 0
M  V30 31 H -0.5083 2.4974 -1.4489 0
M  V30 32 H -2.0576 1.9662 -0.8688 0
M  V30 33 H -0.4279 -2.0942 -3.5314 0
M  V30 34 H -2.0304 0.4435 1.4172 0
M  V30 35 H 1.5148 0.97 0.0477 0
M  V30 36 H 1.4293 2.7103 0.1877 0
M  V30 37 H -0.8936 2.8786 2.3967 0
M  V30 38 H -2.224 2.811 1.2731 0
M  V30 39 H 0.1058 -4.9458 0.5268 0
M  V30 40 H 0.0216 -4.5009 -3.7415 0
M  V30 41 H 0.6662 -2.6501 2.6504 0
M  V30 42 H -1.0115 -3.2132 2.6592 0
M  V30 43 H 1.2902 2.5002 2.6704 0
M  V30 44 H 2.6882 1.6462 2.0438 0
M  V30 45 H -1.0179 4.4053 -0.2553 0
M  V30 46 H -1.3108 5.0545 1.3581 0
M  V30 47 H 0.3048 4.4986 0.9282 0
M  V30 48 H 0.2924 -5.9234 -1.7422 0
M  V30 49 H -1.8759 -1.1043 3.299 0
M  V30 50 H -0.4142 -1.216 4.2436 0
M  V30 51 H 1.6073 -0.4927 2.1909 0
M  V30 52 H 1.4367 0.3245 3.7382 0
M  V30 END ATOM
M  V30 BEGIN BOND
M  V30 1 2 1 2
M  V30 2 1 2 3
M  V30 3 1 2 4
M  V30 4 1 3 5
M  V30 5 1 4 6
M  V30 6 1 4 7
M  V30 7 1 4 8
M  V30 8 1 7 9
M  V30 9 1 7 10
M  V30 10 1 8 11
M  V30 11 2 9 12
M  V30 12 1 9 13
M  V30 13 2 10 14
M  V30 14 1 10 15
M  V30 15 1 11 16
M  V30 16 1 11 17
M  V30 17 1 12 18
M  V30 18 2 13 19
M  V30 19 1 14 20
M  V30 20 1 15 21
M  V30 21 1 16 22
M  V30 22 1 17 23
M  V30 23 2 18 24
M  V30 24 1 20 25
M  V30 25 1 21 26
M  V30 26 1 11 15
M  V30 27 1 12 14
M  V30 28 1 19 24
M  V30 29 1 21 25
M  V30 30 1 22 26
M  V30 31 1 5 27
M  V30 32 1 5 28
M  V30 33 1 5 29
M  V30 34 1 6 30
M  V30 35 1 8 31
M  V30 36 1 8 32
M  V30 37 1 13 33
M  V30 38 1 15 34
M  V30 39 1 16 35
M  V30 40 1 16 36
M  V30 41 1 17 37
M  V30 42 1 17 38
M  V30 43 1 18 39
M  V30 44 1 19 40
M  V30 45 1 20 41
M  V30 46 1 20 42
M  V30 47 1 22 43
M  V30 48 1 22 44
M  V30 49 1 23 45
M  V30 50 1 23 46
M  V30 51 1 23 47
M  V30 52 1 24 48
M  V30 53 1 25 49
M  V30 54 1 25 50
M  V30 55 1 26 51
M  V30 56 1 26 52
M  V30 END BOND
M  V30 END CTAB
M  END
>  <Column 1>
3018

>  <level_0>
5169

>  <index>
5170

>  <Unnamed: 0>
5170

>  <NO.>
5182

>  <Name>
isovincamine

>  <IUPAC_name>
methyl 15-ethyl-17-hydroxy-1-11-diazapentacyclo[9.6.2.02-7.08-18.015-19]nonadeca-2-4-6-8(18)-tetraene-17-carboxylate

>  <SMILES>
CCC12CCCN3CCc4c(n(c5ccccc45)C(O)(C(=O)OC)C1)C32

>  <CID>
5668

>  <logBB>


>  <BBB+/BBB->
BBB-

>  <Inchi>
InChI=1S/C21H26N2O3/c1-3-20-10-6-11-22-12-9-15-14-7-4-5-8-16(14)23(17(15)18(20)22)21(25-13-20)19(24)26-2/h4-5-7-8-18-25H-3-6-9-13H2-1-2H3

>  <threshold>


>  <reference>
R14|

>  <group>
C

>  <Class>
-1

>  <ABC>
21.01

>  <ABCGG>
16.71

>  <nAcid>
0

>  <nBase>
1

>  <nAromAtom>
9

>  <nAromBond>
10

>  <nAtom>
52

>  <nHeavyAtom>
26

>  <nSpiro>
0

>  <nBridgehead>
0

>  <nHetero>
5

>  <nN>
2

>  <nO>
3

>  <nF>
0

>  <BalabanJ>
1.65

>  <BertzCT>
904.04

>  <nBonds>
56

>  <nBondsO>
30

>  <nBondsS>
45

>  <nBondsD>
1

>  <nBondsT>
0

>  <nBondsA>
10

>  <nBondsM>
11

>  <nBondsKS>
51

>  <nBondsKD>
5

>  <RNCG>
0.22

>  <RPCG>
0.17

>  <FCSP3>
0.57

>  <SZ>
31.67

>  <Sm>
29.51

>  <Sv>
31.7

>  <Sse>
51.86

>  <Sp>
34.14

>  <Si>
58.61

>  <MZ>
0.61

>  <Mm>
0.57

>  <Mv>
0.61

>  <Mse>
1

>  <Mp>
0.66

>  <Mi>
1.13

>  <NsCH3>
2

>  <NdCH2>
0

>  <NssCH2>
7

>  <NtCH>
0

>  <NdsCH>
0

>  <NaaCH>
4

>  <NsssCH>
1

>  <NddC>
0

>  <NtsC>
0

>  <NdssC>
1

>  <NaasC>
2

>  <NaaaC>
2

>  <NssssC>
2

>  <NsNH3>
0

>  <NsNH2>
0

>  <NssNH2>
0

>  <NdNH>
0

>  <NssNH>
0

>  <NaaNH>
0

>  <NtN>
0

>  <NsssNH>
0

>  <NdsN>
0

>  <NaaN>
0

>  <NsssN>
1

>  <NddsN>
0

>  <NaasN>
1

>  <NssssN>
0

>  <NsOH>
1

>  <NdO>
1

>  <NssO>
1

>  <NaaO>
0

>  <NsF>
0

>  <NsSiH3>
0

>  <NssSiH2>
0

>  <NsssSiH>
0

>  <NssssSi>
0

>  <NsPH2>
0

>  <NssPH>
0

>  <NsssP>
0

>  <NdsssP>
0

>  <NsssssP>
0

>  <NsSH>
0

>  <NdS>
0

>  <NssS>
0

>  <NaaS>
0

>  <NdssS>
0

>  <NddssS>
0

>  <NsCl>
0

>  <NsBr>
0

>  <NsI>
0

>  <fragCpx>
250.05

>  <fMF>
0.37

>  <nHBAcc>
5

>  <nHBDon>
1

>  <Kier1>
18.06

>  <Kier2>
6.25

>  <Lipinski>
1

>  <GhoseFilter>
1

>  <FilterItLogS>
-3.68

>  <VMcGowan>
268.52

>  <LabuteASA>
153.09

>  <PEOE_VSA1>
14.41

>  <PEOE_VSA2>
4.9

>  <PEOE_VSA3>
4.79

>  <PEOE_VSA4>
0

>  <PEOE_VSA5>
0

>  <PEOE_VSA6>
25.12

>  <PEOE_VSA7>
49.27

>  <PEOE_VSA8>
24.05

>  <PEOE_VSA9>
18.67

>  <PEOE_VSA10>
0

>  <PEOE_VSA11>
0

>  <PEOE_VSA12>
5.72

>  <PEOE_VSA13>
0

>  <SMR_VSA1>
14.64

>  <SMR_VSA2>
0

>  <SMR_VSA3>
9.47

>  <SMR_VSA4>
5.41

>  <SMR_VSA5>
50.79

>  <SMR_VSA6>
20.2

>  <SMR_VSA7>
35.52

>  <SMR_VSA8>
0

>  <SMR_VSA9>
0

>  <SlogP_VSA1>
0

>  <SlogP_VSA2>
40.74

>  <SlogP_VSA3>
21.68

>  <SlogP_VSA4>
5.41

>  <SlogP_VSA5>
49.91

>  <SlogP_VSA6>
24.27

>  <SlogP_VSA7>
0

>  <SlogP_VSA8>
10.9

>  <SlogP_VSA9>
0

>  <SlogP_VSA10>
0

>  <SlogP_VSA11>
0

>  <EState_VSA1>
11.69

>  <EState_VSA2>
11.46

>  <EState_VSA3>
6.42

>  <EState_VSA4>
49.98

>  <EState_VSA5>
18.06

>  <EState_VSA6>
0

>  <EState_VSA7>
22.77

>  <EState_VSA8>
17.89

>  <EState_VSA9>
4.74

>  <EState_VSA10>
9.9

>  <VSA_EState1>
7.01

>  <VSA_EState2>
15.41

>  <VSA_EState3>
12.89

>  <VSA_EState4>
1.69

>  <VSA_EState5>
-0.55

>  <VSA_EState6>
8.45

>  <VSA_EState7>
4.52

>  <VSA_EState8>
4.36

>  <VSA_EState9>
1.37

>  <apol>
57.01

>  <bpol>
32.11

>  <nRing>
5

>  <nHRing>
4

>  <naRing>
2

>  <naHRing>
1

>  <nARing 2>
3

>  <nAHRing 2>
3

>  <nFRing>
1

>  <nFHRing>
1

>  <nFaRing>
0

>  <nFaHRing>
0

>  <nFARing 2>
1

>  <nFAHRing 2>
1

>  <nRot>
2

>  <SLogP>
2.95

>  <SMR>
98.74

>  <TopoPSA(NO)>
54.7

>  <TopoPSA>
54.7

>  <JGI1>
0.2

>  <JGI2>
0.09

>  <JGI3>
0.07

>  <JGI4>
0.05

>  <JGI5>
0.04

>  <Diameter>
8

>  <Radius>
5

>  <TMWC10>
136.69

>  <TSRW10>
77.24

>  <MW>
354.19

>  <AMW>
6.81

>  <WPath>
1287

>  <WPol>
59

>  <Zagreb1>
156

>  <Zagreb2>
202

>  <mZagreb2>
5.61

>  <yes>


>  <nAR-cont>
0.691115

>  <nHA-cont>
0.892715677

>  <MWHBN>
0.318810857

>  <MWHBN-cont>
0.781141743

>  <TPSA-cont>
0.618160033

>  <pka_cont>
0.97

>  <yes.1>


>  <BBB_SCORE>
4.476863358

>  <MMFF94 Energy>
106.26

$$$$
Compound 2445
Actelion Java MolfileCreator 2.0

  0  0  0  0  0  0              0 V3000
M  V30 BEGIN CTAB
M  V30 COUNTS 30 31 0 0 0
M  V30 BEGIN ATOM
M  V30 1 Cl 3.3649 -0.4919 2.6255 0
M  V30 2 C 1.8542 -0.2067 1.8366 0
M  V30 3 C 0.9023 0.7155 2.2796 0
M  V30 4 C 1.5943 -0.9757 0.6906 0
M  V30 5 S 1.179 1.7266 3.6975 0
M  V30 6 C -0.3047 0.8632 1.5848 0
M  V30 7 C 0.4031 -0.8277 -0.0254 0
M  V30 8 O -0.0246 2.4729 3.9867 0
M  V30 9 O 2.4616 2.3764 3.5794 0
M  V30 10 N 1.2959 0.6118 4.9464 0
M  V30 11 C -0.5413 0.089 0.4453 0
M  V30 12 N 0.1587 -1.585 -1.1576 0
M  V30 13 C -1.8352 0.1636 -0.2607 0
M  V30 14 C -0.8535 -1.171 -2.103 0 CFG=1
M  V30 15 O -2.7677 0.8319 0.1678 0
M  V30 16 N -1.955 -0.5857 -1.3962 0
M  V30 17 C -0.2409 -0.2111 -3.1333 0
M  V30 18 C -1.2037 0.1252 -4.2641 0
M  V30 19 H 2.3368 -1.6947 0.351 0
M  V30 20 H -1.0673 1.5636 1.9229 0
M  V30 21 H 0.5522 0.7757 5.6263 0
M  V30 22 H 2.2351 0.6358 5.3466 0
M  V30 23 H 0.8534 -2.2483 -1.4754 0
M  V30 24 H -1.2379 -2.0598 -2.6156 0
M  V30 25 H -2.8663 -0.5612 -1.8312 0
M  V30 26 H 0.6588 -0.6662 -3.5662 0
M  V30 27 H 0.0802 0.7214 -2.6522 0
M  V30 28 H -1.5359 -0.7816 -4.7791 0
M  V30 29 H -2.0865 0.6547 -3.8924 0
M  V30 30 H -0.7109 0.7704 -4.9984 0
M  V30 END ATOM
M  V30 BEGIN BOND
M  V30 1 1 1 2
M  V30 2 2 2 3
M  V30 3 1 2 4
M  V30 4 1 3 5
M  V30 5 1 3 6
M  V30 6 2 4 7
M  V30 7 2 5 8
M  V30 8 2 5 9
M  V30 9 1 5 10
M  V30 10 2 6 11
M  V30 11 1 7 12
M  V30 12 1 11 13
M  V30 13 1 12 14
M  V30 14 2 13 15
M  V30 15 1 13 16
M  V30 16 1 14 17
M  V30 17 1 17 18
M  V30 18 1 7 11
M  V30 19 1 14 16
M  V30 20 1 4 19
M  V30 21 1 6 20
M  V30 22 1 10 21
M  V30 23 1 10 22
M  V30 24 1 12 23
M  V30 25 1 14 24
M  V30 26 1 16 25
M  V30 27 1 17 26
M  V30 28 1 17 27
M  V30 29 1 18 28
M  V30 30 1 18 29
M  V30 31 1 18 30
M  V30 END BOND
M  V30 BEGIN COLLECTION
M  V30 MDLV30/STERAC1 ATOMS=(1 14)
M  V30 END COLLECTION
M  V30 END CTAB
M  END
>  <Column 1>
3019

>  <level_0>
5170

>  <index>
5171

>  <Unnamed: 0>
5171

>  <NO.>
5183

>  <Name>
quinethazone

>  <IUPAC_name>
7-chloro-2-ethyl-4-oxo-2-3-dihydro-1h-quinazoline-6-sulfonamide

>  <SMILES>
CCC1NC(=O)c2cc(S(N)(=O)=O)c(Cl)cc2N1

>  <CID>
6307

>  <logBB>


>  <BBB+/BBB->
BBB-

>  <Inchi>
InChI=1S/C10H12ClN3O3S/c1-2-9-13-7-4-6(11)8(18(12-16)17)3-5(7)10(15)14-9/h3-4-9-13H-2H2-1H3-(H-14-15)(H2-12-16-17)

>  <threshold>


>  <reference>
R14|R23|

>  <group>
C

>  <Class>
-1

>  <ABC>
13.95

>  <ABCGG>
12.13

>  <nAcid>
0

>  <nBase>
0

>  <nAromAtom>
6

>  <nAromBond>
6

>  <nAtom>
30

>  <nHeavyAtom>
18

>  <nSpiro>
0

>  <nBridgehead>
0

>  <nHetero>
8

>  <nN>
3

>  <nO>
3

>  <nF>
0

>  <BalabanJ>
2.09

>  <BertzCT>
615.04

>  <nBonds>
31

>  <nBondsO>
19

>  <nBondsS>
22

>  <nBondsD>
3

>  <nBondsT>
0

>  <nBondsA>
6

>  <nBondsM>
9

>  <nBondsKS>
25

>  <nBondsKD>
6

>  <RNCG>
0.2

>  <RPCG>
0.14

>  <FCSP3>
0.3

>  <SZ>
25

>  <Sm>
24.12

>  <Sv>
19.95

>  <Sse>
31.15

>  <Sp>
21.25

>  <Si>
34.06

>  <MZ>
0.83

>  <Mm>
0.8

>  <Mv>
0.66

>  <Mse>
1.04

>  <Mp>
0.71

>  <Mi>
1.14

>  <NsCH3>
1

>  <NdCH2>
0

>  <NssCH2>
1

>  <NtCH>
0

>  <NdsCH>
0

>  <NaaCH>
2

>  <NsssCH>
1

>  <NddC>
0

>  <NtsC>
0

>  <NdssC>
1

>  <NaasC>
4

>  <NaaaC>
0

>  <NssssC>
0

>  <NsNH3>
0

>  <NsNH2>
1

>  <NssNH2>
0

>  <NdNH>
0

>  <NssNH>
2

>  <NaaNH>
0

>  <NtN>
0

>  <NsssNH>
0

>  <NdsN>
0

>  <NaaN>
0

>  <NsssN>
0

>  <NddsN>
0

>  <NaasN>
0

>  <NssssN>
0

>  <NsOH>
0

>  <NdO>
3

>  <NssO>
0

>  <NaaO>
0

>  <NsF>
0

>  <NsSiH3>
0

>  <NssSiH2>
0

>  <NsssSiH>
0

>  <NssssSi>
0

>  <NsPH2>
0

>  <NssPH>
0

>  <NsssP>
0

>  <NdsssP>
0

>  <NsssssP>
0

>  <NsSH>
0

>  <NdS>
0

>  <NssS>
0

>  <NaaS>
0

>  <NdssS>
0

>  <NddssS>
1

>  <NsCl>
1

>  <NsBr>
0

>  <NsI>
0

>  <fragCpx>
55.08

>  <fMF>
0.33

>  <nHBAcc>
4

>  <nHBDon>
3

>  <Kier1>
14.41

>  <Kier2>
5.17

>  <Lipinski>
1

>  <GhoseFilter>
1

>  <FilterItLogS>
-3.38

>  <VMcGowan>
188.98

>  <LabuteASA>
109.55

>  <PEOE_VSA1>
10.63

>  <PEOE_VSA2>
4.79

>  <PEOE_VSA3>
13.56

>  <PEOE_VSA4>
0

>  <PEOE_VSA5>
0

>  <PEOE_VSA6>
18.52

>  <PEOE_VSA7>
18.55

>  <PEOE_VSA8>
0

>  <PEOE_VSA9>
22.44

>  <PEOE_VSA10>
4.9

>  <PEOE_VSA11>
0

>  <PEOE_VSA12>
10.02

>  <PEOE_VSA13>
5.91

>  <SMR_VSA1>
13.21

>  <SMR_VSA2>
0

>  <SMR_VSA3>
5.32

>  <SMR_VSA4>
5.14

>  <SMR_VSA5>
24.41

>  <SMR_VSA6>
5.32

>  <SMR_VSA7>
22.72

>  <SMR_VSA8>
0

>  <SMR_VSA9>
0

>  <SlogP_VSA1>
15.77

>  <SlogP_VSA2>
20.49

>  <SlogP_VSA3>
10.02

>  <SlogP_VSA4>
0

>  <SlogP_VSA5>
23.7

>  <SlogP_VSA6>
17.03

>  <SlogP_VSA7>
5.02

>  <SlogP_VSA8>
0

>  <SlogP_VSA9>
0

>  <SlogP_VSA10>
5.69

>  <SlogP_VSA11>
0

>  <EState_VSA1>
10.02

>  <EState_VSA2>
27.55

>  <EState_VSA3>
12.11

>  <EState_VSA4>
0

>  <EState_VSA5>
12.13

>  <EState_VSA6>
0

>  <EState_VSA7>
6.92

>  <EState_VSA8>
10.63

>  <EState_VSA9>
16.74

>  <EState_VSA10>
13.21

>  <VSA_EState1>
22.62

>  <VSA_EState2>
11.56

>  <VSA_EState3>
10.76

>  <VSA_EState4>
0.72

>  <VSA_EState5>
-0.35

>  <VSA_EState6>
2.58

>  <VSA_EState7>
0.5

>  <VSA_EState8>
1.91

>  <VSA_EState9>
-3.95

>  <apol>
35.49

>  <bpol>
20.64

>  <nRing>
2

>  <nHRing>
1

>  <naRing>
1

>  <naHRing>
0

>  <nARing 2>
1

>  <nAHRing 2>
1

>  <nFRing>
1

>  <nFHRing>
1

>  <nFaRing>
0

>  <nFaHRing>
0

>  <nFARing 2>
1

>  <nFAHRing 2>
1

>  <nRot>
2

>  <SLogP>
0.88

>  <SMR>
67.99

>  <TopoPSA(NO)>
101.29

>  <TopoPSA>
109.67

>  <JGI1>
0.32

>  <JGI2>
0.09

>  <JGI3>
0.07

>  <JGI4>
0.06

>  <JGI5>
0.05

>  <Diameter>
9

>  <Radius>
5

>  <TMWC10>
110.24

>  <TSRW10>
51.6

>  <MW>
289.03

>  <AMW>
9.63

>  <WPath>
567

>  <WPol>
30

>  <Zagreb1>
96

>  <Zagreb2>
113

>  <mZagreb2>
3.83

>  <yes>


>  <nAR-cont>
0.816016

>  <nHA-cont>
0.991161285

>  <MWHBN>
0.411743336

>  <MWHBN-cont>
0.430012367

>  <TPSA-cont>
0.234435299

>  <pka_cont>
0.97

>  <yes.1>


>  <BBB_SCORE>
3.406066434

>  <MMFF94 Energy>
-138.6

$$$$
Compound 2446
Actelion Java MolfileCreator 2.0

  0  0  0  0  0  0              0 V3000
M  V30 BEGIN CTAB
M  V30 COUNTS 92 94 0 0 0
M  V30 BEGIN ATOM
M  V30 1 O -0.5548 -0.2377 -5.1614 0
M  V30 2 C 0.0499 0.3733 -4.2822 0
M  V30 3 C 1.2998 -0.1755 -3.6895 0
M  V30 4 C -0.5003 1.6766 -3.7062 0
M  V30 5 C 1.6464 -1.4602 -3.8646 0
M  V30 6 C -0.7323 1.5931 -2.1802 0
M  V30 7 C 0.4261 2.8403 -4.0588 0
M  V30 8 C 2.7449 -2.1273 -3.1379 0
M  V30 9 C -1.7618 0.5154 -1.7274 0
M  V30 10 O 2.6146 -3.4543 -2.5937 0
M  V30 11 C 2.4111 -2.3948 -1.6637 0
M  V30 12 C 4.1435 -1.8558 -3.614 0
M  V30 13 C -1.3518 -0.1561 -0.3649 0
M  V30 14 C -3.1818 1.1144 -1.6616 0
M  V30 15 C 3.408 -2.2506 -0.5474 0
M  V30 16 O -1.5266 0.7472 0.7385 0
M  V30 17 C -2.2097 -1.4172 -0.0117 0
M  V30 18 C -3.7383 1.4202 -3.0276 0
M  V30 19 C 3.0151 -3.043 0.738 0
M  V30 20 C 3.5694 -0.7563 -0.2233 0
M  V30 21 C -0.3798 1.5372 1.0859 0
M  V30 22 C -1.789 -2.1026 1.3275 0
M  V30 23 C -2.3052 -2.427 -1.1631 0
M  V30 24 O -4.1537 2.5299 -3.3467 0
M  V30 25 O 1.618 -3.4152 0.7767 0
M  V30 26 C 3.8237 -4.3444 0.9084 0
M  V30 27 O -0.502 2.8564 0.5523 0
M  V30 28 C -0.2003 1.5629 2.6205 0
M  V30 29 O -2.9343 -2.8341 1.8112 0
M  V30 30 C -0.6488 -3.125 1.2719 0
M  V30 31 C 0.7232 -2.5127 1.2604 0
M  V30 32 C 3.6303 -5.3759 -0.1937 0
M  V30 33 C -1.5785 3.5987 1.1181 0
M  V30 34 O 1.0822 2.1149 2.9751 0
M  V30 35 C -1.3111 2.3903 3.324 0
M  V30 36 O 0.9933 -1.3846 1.6401 0
M  V30 37 C -1.4005 3.7644 2.6262 0
M  V30 38 C -1.6135 4.9539 0.4219 0
M  V30 39 N -1.0255 2.5185 4.7942 0
M  V30 40 C -1.0925 1.2122 5.4696 0
M  V30 41 C -1.9565 3.4328 5.4688 0
M  V30 42 H 1.8646 0.4655 -3.0234 0
M  V30 43 H -1.4551 1.8636 -4.2087 0
M  V30 44 H 1.0516 -2.0979 -4.5175 0
M  V30 45 H -1.0629 2.5801 -1.8385 0
M  V30 46 H 0.2313 1.4042 -1.6953 0
M  V30 47 H 0.6318 2.8626 -5.1345 0
M  V30 48 H 1.3874 2.7689 -3.5393 0
M  V30 49 H -0.0331 3.7954 -3.7824 0
M  V30 50 H -1.7511 -0.2687 -2.4904 0
M  V30 51 H 1.3952 -2.1907 -1.3506 0
M  V30 52 H 4.8834 -2.4862 -3.1102 0
M  V30 53 H 4.4162 -0.8096 -3.4417 0
M  V30 54 H 4.2249 -2.0563 -4.6879 0
M  V30 55 H -0.3083 -0.4815 -0.4391 0
M  V30 56 H -3.2005 2.0297 -1.0625 0
M  V30 57 H -3.8908 0.4144 -1.2116 0
M  V30 58 H 4.3985 -2.5913 -0.8718 0
M  V30 59 H -3.2348 -1.0656 0.1676 0
M  V30 60 H -3.7843 0.5717 -3.7321 0
M  V30 61 H 3.2435 -2.4424 1.6292 0
M  V30 62 H 3.9616 -0.2111 -1.0881 0
M  V30 63 H 2.6149 -0.2913 0.0392 0
M  V30 64 H 4.2693 -0.6063 0.6052 0
M  V30 65 H 0.5317 1.1146 0.6505 0
M  V30 66 H -1.5772 -1.3495 2.0934 0
M  V30 67 H -2.7902 -3.3542 -0.8399 0
M  V30 68 H -2.9121 -2.0338 -1.9847 0
M  V30 69 H -1.3157 -2.6739 -1.5613 0
M  V30 70 H 4.8905 -4.1069 0.9958 0
M  V30 71 H 3.522 -4.8137 1.8537 0
M  V30 72 H -0.2197 0.531 2.9827 0
M  V30 73 H -3.6276 -2.1843 2.0243 0
M  V30 74 H -0.7616 -3.7938 0.413 0
M  V30 75 H -0.6933 -3.7665 2.162 0
M  V30 76 H 4.0736 -5.0387 -1.1343 0
M  V30 77 H 2.5718 -5.5958 -0.3613 0
M  V30 78 H 4.1277 -6.3118 0.0815 0
M  V30 79 H -2.524 3.0845 0.9105 0
M  V30 80 H 0.966 2.4315 3.8946 0
M  V30 81 H -2.2746 1.8791 3.1877 0
M  V30 82 H -0.487 4.3385 2.8305 0
M  V30 83 H -2.249 4.3422 3.0095 0
M  V30 84 H -1.7451 4.8244 -0.6577 0
M  V30 85 H -2.4311 5.5755 0.7996 0
M  V30 86 H -0.669 5.4916 0.561 0
M  V30 87 H -0.9236 1.3254 6.5471 0
M  V30 88 H -0.3044 0.5381 5.1225 0
M  V30 89 H -2.0633 0.7248 5.325 0
M  V30 90 H -1.8023 4.4666 5.1446 0
M  V30 91 H -3.0026 3.1551 5.2969 0
M  V30 92 H -1.7786 3.4414 6.5508 0
M  V30 END ATOM
M  V30 BEGIN BOND
M  V30 1 2 1 2
M  V30 2 1 2 3
M  V30 3 1 2 4
M  V30 4 2 3 5
M  V30 5 1 4 6
M  V30 6 1 4 7
M  V30 7 1 5 8
M  V30 8 1 6 9
M  V30 9 1 8 10
M  V30 10 1 8 11
M  V30 11 1 8 12
M  V30 12 1 9 13
M  V30 13 1 9 14
M  V30 14 1 11 15
M  V30 15 1 13 16
M  V30 16 1 13 17
M  V30 17 1 14 18
M  V30 18 1 15 19
M  V30 19 1 15 20
M  V30 20 1 16 21
M  V30 21 1 17 22
M  V30 22 1 17 23
M  V30 23 2 18 24
M  V30 24 1 19 25
M  V30 25 1 19 26
M  V30 26 1 21 27
M  V30 27 1 21 28
M  V30 28 1 22 29
M  V30 29 1 22 30
M  V30 30 1 25 31
M  V30 31 1 26 32
M  V30 32 1 27 33
M  V30 33 1 28 34
M  V30 34 1 28 35
M  V30 35 2 31 36
M  V30 36 1 33 37
M  V30 37 1 33 38
M  V30 38 1 35 39
M  V30 39 1 39 40
M  V30 40 1 39 41
M  V30 41 1 10 11
M  V30 42 1 30 31
M  V30 43 1 35 37
M  V30 44 1 3 42
M  V30 45 1 4 43
M  V30 46 1 5 44
M  V30 47 1 6 45
M  V30 48 1 6 46
M  V30 49 1 7 47
M  V30 50 1 7 48
M  V30 51 1 7 49
M  V30 52 1 9 50
M  V30 53 1 11 51
M  V30 54 1 12 52
M  V30 55 1 12 53
M  V30 56 1 12 54
M  V30 57 1 13 55
M  V30 58 1 14 56
M  V30 59 1 14 57
M  V30 60 1 15 58
M  V30 61 1 17 59
M  V30 62 1 18 60
M  V30 63 1 19 61
M  V30 64 1 20 62
M  V30 65 1 20 63
M  V30 66 1 20 64
M  V30 67 1 21 65
M  V30 68 1 22 66
M  V30 69 1 23 67
M  V30 70 1 23 68
M  V30 71 1 23 69
M  V30 72 1 26 70
M  V30 73 1 26 71
M  V30 74 1 28 72
M  V30 75 1 29 73
M  V30 76 1 30 74
M  V30 77 1 30 75
M  V30 78 1 32 76
M  V30 79 1 32 77
M  V30 80 1 32 78
M  V30 81 1 33 79
M  V30 82 1 34 80
M  V30 83 1 35 81
M  V30 84 1 37 82
M  V30 85 1 37 83
M  V30 86 1 38 84
M  V30 87 1 38 85
M  V30 88 1 38 86
M  V30 89 1 40 87
M  V30 90 1 40 88
M  V30 91 1 40 89
M  V30 92 1 41 90
M  V30 93 1 41 91
M  V30 94 1 41 92
M  V30 END BOND
M  V30 END CTAB
M  END
>  <Column 1>
3020

>  <level_0>
5171

>  <index>
5172

>  <Unnamed: 0>
5172

>  <NO.>
5184

>  <Name>
rosaramicin

>  <IUPAC_name>
2-[9-[4-(dimethylamino)-3-hydroxy-6-methyloxan-2-yl]oxy-3-ethyl-7-hydroxy-2-8-12-16-tetramethyl-5-13-dioxo-4-17-dioxabicyclo[14.1.0]heptadec-14-en-10-yl]acetaldehyde

>  <SMILES>
CCC1OC(=O)CC(O)C(C)C(OC2OC(C)CC(N(C)C)C2O)C(CC=O)CC(C)C(=O)C=CC2(C)OC2C1C

>  <CID>
5096

>  <logBB>


>  <BBB+/BBB->
BBB-

>  <Inchi>
InChI=1S/C31H51NO9/c1-9-25-20(5)29-31(6-41-29)12-10-23(34)17(2)14-21(11-13-33)28(19(4)24(35)16-26(36)39-25)40-30-27(37)22(32(7)8)15-18(3)38-30/h10-12-13-17-22-24-25-27-30-35-37H-9-11-14-16H2-1-8H3

>  <threshold>


>  <reference>
R14|

>  <group>
C

>  <Class>
-1

>  <ABC>
31.23

>  <ABCGG>
25.81

>  <nAcid>
0

>  <nBase>
1

>  <nAromAtom>
0

>  <nAromBond>
0

>  <nAtom>
92

>  <nHeavyAtom>
41

>  <nSpiro>
0

>  <nBridgehead>
0

>  <nHetero>
10

>  <nN>
1

>  <nO>
9

>  <nF>
0

>  <BalabanJ>
1.9

>  <BertzCT>
940.55

>  <nBonds>
94

>  <nBondsO>
43

>  <nBondsS>
90

>  <nBondsD>
4

>  <nBondsT>
0

>  <nBondsA>
0

>  <nBondsM>
4

>  <nBondsKS>
90

>  <nBondsKD>
4

>  <RNCG>
0.12

>  <RPCG>
0.08

>  <FCSP3>
0.84

>  <SZ>
52.67

>  <Sm>
48.43

>  <Sv>
52.01

>  <Sse>
92.28

>  <Sp>
56.34

>  <Si>
104.77

>  <MZ>
0.57

>  <Mm>
0.53

>  <Mv>
0.57

>  <Mse>
1

>  <Mp>
0.61

>  <Mi>
1.14

>  <NsCH3>
8

>  <NdCH2>
0

>  <NssCH2>
5

>  <NtCH>
0

>  <NdsCH>
3

>  <NaaCH>
0

>  <NsssCH>
12

>  <NddC>
0

>  <NtsC>
0

>  <NdssC>
2

>  <NaasC>
0

>  <NaaaC>
0

>  <NssssC>
1

>  <NsNH3>
0

>  <NsNH2>
0

>  <NssNH2>
0

>  <NdNH>
0

>  <NssNH>
0

>  <NaaNH>
0

>  <NtN>
0

>  <NsssNH>
0

>  <NdsN>
0

>  <NaaN>
0

>  <NsssN>
1

>  <NddsN>
0

>  <NaasN>
0

>  <NssssN>
0

>  <NsOH>
2

>  <NdO>
3

>  <NssO>
4

>  <NaaO>
0

>  <NsF>
0

>  <NsSiH3>
0

>  <NssSiH2>
0

>  <NsssSiH>
0

>  <NssssSi>
0

>  <NsPH2>
0

>  <NssPH>
0

>  <NsssP>
0

>  <NdsssP>
0

>  <NsssssP>
0

>  <NsSH>
0

>  <NdS>
0

>  <NssS>
0

>  <NaaS>
0

>  <NdssS>
0

>  <NddssS>
0

>  <NsCl>
0

>  <NsBr>
0

>  <NsI>
0

>  <fragCpx>
209.1

>  <fMF>
0.26

>  <nHBAcc>
10

>  <nHBDon>
2

>  <Kier1>
35.48

>  <Kier2>
15.33

>  <Lipinski>
0

>  <GhoseFilter>
0

>  <FilterItLogS>
-2.7

>  <VMcGowan>
460.68

>  <LabuteASA>
244.27

>  <PEOE_VSA1>
38.85

>  <PEOE_VSA2>
9.59

>  <PEOE_VSA3>
0

>  <PEOE_VSA4>
0

>  <PEOE_VSA5>
0

>  <PEOE_VSA6>
27.69

>  <PEOE_VSA7>
65.28

>  <PEOE_VSA8>
30.22

>  <PEOE_VSA9>
30.84

>  <PEOE_VSA10>
24.1

>  <PEOE_VSA11>
12.07

>  <PEOE_VSA12>
0

>  <PEOE_VSA13>
0

>  <SMR_VSA1>
43.54

>  <SMR_VSA2>
0

>  <SMR_VSA3>
4.9

>  <SMR_VSA4>
23.67

>  <SMR_VSA5>
128.2

>  <SMR_VSA6>
14.1

>  <SMR_VSA7>
12.15

>  <SMR_VSA8>
0

>  <SMR_VSA9>
0

>  <SlogP_VSA1>
0

>  <SlogP_VSA2>
101.8

>  <SlogP_VSA3>
33.33

>  <SlogP_VSA4>
23.67

>  <SlogP_VSA5>
73.65

>  <SlogP_VSA6>
12.15

>  <SlogP_VSA7>
0

>  <SlogP_VSA8>
0

>  <SlogP_VSA9>
0

>  <SlogP_VSA10>
0

>  <SlogP_VSA11>
0

>  <EState_VSA1>
60.03

>  <EState_VSA2>
42.79

>  <EState_VSA3>
19.26

>  <EState_VSA4>
6.29

>  <EState_VSA5>
0

>  <EState_VSA6>
19.08

>  <EState_VSA7>
53.61

>  <EState_VSA8>
0

>  <EState_VSA9>
18.95

>  <EState_VSA10>
24.6

>  <VSA_EState1>
24.22

>  <VSA_EState2>
39.98

>  <VSA_EState3>
22.41

>  <VSA_EState4>
-0.64

>  <VSA_EState5>
-2.32

>  <VSA_EState6>
-0.22

>  <VSA_EState7>
0.63

>  <VSA_EState8>
11.26

>  <VSA_EState9>
3.76

>  <apol>
94.09

>  <bpol>
62.42

>  <nRing>
3

>  <nHRing>
3

>  <naRing>
0

>  <naHRing>
0

>  <nARing 2>
3

>  <nAHRing 2>
3

>  <nFRing>
1

>  <nFHRing>
1

>  <nFaRing>
0

>  <nFaHRing>
0

>  <nFARing 2>
1

>  <nFAHRing 2>
1

>  <nRot>
6

>  <SLogP>
2.67

>  <SMR>
151.81

>  <TopoPSA(NO)>
135.13

>  <TopoPSA>
135.13

>  <JGI1>
0.27

>  <JGI2>
0.11

>  <JGI3>
0.06

>  <JGI4>
0.04

>  <JGI5>
0.03

>  <Diameter>
14

>  <Radius>
8

>  <TMWC10>
164.31

>  <TSRW10>
98.7

>  <MW>
581.36

>  <AMW>
6.32

>  <WPath>
5278

>  <WPol>
70

>  <Zagreb1>
212

>  <Zagreb2>
251

>  <mZagreb2>
9.08

>  <yes>


>  <nAR-cont>
0.691115

>  <nHA-cont>
0.27123661

>  <MWHBN>
0.497689722

>  <MWHBN-cont>
0

>  <TPSA-cont>
0

>  <pka_cont>
0.97

>  <yes.1>


>  <BBB_SCORE>
1.44735161

>  <MMFF94 Energy>
108.96

$$$$
Compound 2447
Actelion Java MolfileCreator 2.0

  0  0  0  0  0  0              0 V3000
M  V30 BEGIN CTAB
M  V30 COUNTS 54 56 0 0 0
M  V30 BEGIN ATOM
M  V30 1 O -0.5512 -4.9693 0.3936 0
M  V30 2 C 0.3883 -4.348 -0.104 0
M  V30 3 N 0.2818 -3.0048 -0.4419 0
M  V30 4 C 1.726 -5.0207 -0.374 0
M  V30 5 C 1.3929 -2.1478 -0.8967 0
M  V30 6 C -0.9767 -2.3154 -0.1653 0
M  V30 7 C 1.7441 -6.4829 0.0691 0
M  V30 8 C 2.0173 -1.3312 0.2494 0
M  V30 9 C -1.1123 -1.8145 1.2737 0
M  V30 10 C 3.0902 -7.1324 -0.2076 0
M  V30 11 N 1.0139 -0.542 0.9601 0
M  V30 12 C 0.1523 -1.2331 1.9092 0
M  V30 13 C 0.649 0.6942 0.4755 0
M  V30 14 N 1.3289 1.2065 -0.5585 0
M  V30 15 N -0.3825 1.3292 1.0477 0
M  V30 16 C 0.9653 2.4094 -1.0215 0
M  V30 17 C -0.7594 2.5163 0.5643 0
M  V30 18 N 1.7209 2.8724 -2.0896 0
M  V30 19 C -0.1157 3.1275 -0.5078 0
M  V30 20 C -1.8389 3.1635 1.1529 0
M  V30 21 C -0.5778 4.3769 -0.9933 0
M  V30 22 C -2.3017 4.4028 0.694 0
M  V30 23 C -1.6669 5.0151 -0.3984 0
M  V30 24 O -3.3619 5.0854 1.2373 0
M  V30 25 O -2.1775 6.2227 -0.7994 0
M  V30 26 C -4.0241 4.5009 2.3503 0
M  V30 27 C -1.6242 6.8237 -1.9613 0
M  V30 28 H 2.5088 -4.4718 0.1608 0
M  V30 29 H 1.9278 -4.9663 -1.4498 0
M  V30 30 H 1.0059 -1.4847 -1.6792 0
M  V30 31 H 2.1737 -2.7534 -1.3632 0
M  V30 32 H -1.8109 -2.9947 -0.3793 0
M  V30 33 H -1.0803 -1.4815 -0.8699 0
M  V30 34 H 1.5234 -6.5514 1.1411 0
M  V30 35 H 0.9589 -7.0423 -0.4532 0
M  V30 36 H 2.4909 -2.0227 0.9581 0
M  V30 37 H 2.8336 -0.7068 -0.1337 0
M  V30 38 H -1.4604 -2.6365 1.9123 0
M  V30 39 H -1.914 -1.0656 1.2976 0
M  V30 40 H 3.0807 -8.1776 0.1169 0
M  V30 41 H 3.3236 -7.1107 -1.2769 0
M  V30 42 H 3.8925 -6.6169 0.33 0
M  V30 43 H 0.7158 -2.0567 2.3674 0
M  V30 44 H -0.1159 -0.5809 2.7504 0
M  V30 45 H 2.4461 2.2173 -2.356 0
M  V30 46 H 1.9774 3.8484 -2.0913 0
M  V30 47 H -2.314 2.6609 1.9895 0
M  V30 48 H -0.0717 4.82 -1.8435 0
M  V30 49 H -4.4807 3.5433 2.0795 0
M  V30 50 H -4.8284 5.1779 2.6541 0
M  V30 51 H -3.344 4.3902 3.2014 0
M  V30 52 H -0.5748 7.0928 -1.8031 0
M  V30 53 H -2.178 7.7472 -2.1564 0
M  V30 54 H -1.7397 6.1755 -2.8363 0
M  V30 END ATOM
M  V30 BEGIN BOND
M  V30 1 2 1 2
M  V30 2 1 2 3
M  V30 3 1 2 4
M  V30 4 1 3 5
M  V30 5 1 3 6
M  V30 6 1 4 7
M  V30 7 1 5 8
M  V30 8 1 6 9
M  V30 9 1 7 10
M  V30 10 1 8 11
M  V30 11 1 9 12
M  V30 12 1 11 13
M  V30 13 1 13 14
M  V30 14 2 13 15
M  V30 15 2 14 16
M  V30 16 1 15 17
M  V30 17 1 16 18
M  V30 18 1 16 19
M  V30 19 2 17 20
M  V30 20 2 19 21
M  V30 21 1 20 22
M  V30 22 1 21 23
M  V30 23 1 22 24
M  V30 24 1 23 25
M  V30 25 1 24 26
M  V30 26 1 25 27
M  V30 27 1 11 12
M  V30 28 1 17 19
M  V30 29 2 22 23
M  V30 30 1 4 28
M  V30 31 1 4 29
M  V30 32 1 5 30
M  V30 33 1 5 31
M  V30 34 1 6 32
M  V30 35 1 6 33
M  V30 36 1 7 34
M  V30 37 1 7 35
M  V30 38 1 8 36
M  V30 39 1 8 37
M  V30 40 1 9 38
M  V30 41 1 9 39
M  V30 42 1 10 40
M  V30 43 1 10 41
M  V30 44 1 10 42
M  V30 45 1 12 43
M  V30 46 1 12 44
M  V30 47 1 18 45
M  V30 48 1 18 46
M  V30 49 1 20 47
M  V30 50 1 21 48
M  V30 51 1 26 49
M  V30 52 1 26 50
M  V30 53 1 26 51
M  V30 54 1 27 52
M  V30 55 1 27 53
M  V30 56 1 27 54
M  V30 END BOND
M  V30 END CTAB
M  END
>  <Column 1>
3021

>  <level_0>
5172

>  <index>
5173

>  <Unnamed: 0>
5173

>  <NO.>
5185

>  <Name>
bunazosin

>  <IUPAC_name>
1-[4-(4-amino-6-7-dimethoxyquinazolin-2-yl)-1-4-diazepan-1-yl]butan-1-one

>  <SMILES>
CCCC(=O)N1CCCN(c2nc(N)c3cc(OC)c(OC)cc3n2)CC1

>  <CID>
2472

>  <logBB>


>  <BBB+/BBB->
BBB-

>  <Inchi>
InChI=1S/C19H27N5O3/c1-4-6-17(25)23-7-5-8-24(10-9-23)19-21-14-12-16(27-3)15(26-2)11-13(14)18(20)22-19/h11-12H-4-10H2-1-3H3-(H2-20-21-22)

>  <threshold>


>  <reference>
R14|

>  <group>
C

>  <Class>
-1

>  <ABC>
20.52

>  <ABCGG>
16.12

>  <nAcid>
0

>  <nBase>
0

>  <nAromAtom>
10

>  <nAromBond>
11

>  <nAtom>
54

>  <nHeavyAtom>
27

>  <nSpiro>
0

>  <nBridgehead>
0

>  <nHetero>
8

>  <nN>
5

>  <nO>
3

>  <nF>
0

>  <BalabanJ>
1.59

>  <BertzCT>
826.59

>  <nBonds>
56

>  <nBondsO>
29

>  <nBondsS>
44

>  <nBondsD>
1

>  <nBondsT>
0

>  <nBondsA>
11

>  <nBondsM>
12

>  <nBondsKS>
50

>  <nBondsKD>
6

>  <RNCG>
0.17

>  <RPCG>
0.08

>  <FCSP3>
0.53

>  <SZ>
33.33

>  <Sm>
31.09

>  <Sv>
32.25

>  <Sse>
54.29

>  <Sp>
34.51

>  <Si>
61.69

>  <MZ>
0.62

>  <Mm>
0.58

>  <Mv>
0.6

>  <Mse>
1.01

>  <Mp>
0.64

>  <Mi>
1.14

>  <NsCH3>
3

>  <NdCH2>
0

>  <NssCH2>
7

>  <NtCH>
0

>  <NdsCH>
0

>  <NaaCH>
2

>  <NsssCH>
0

>  <NddC>
0

>  <NtsC>
0

>  <NdssC>
1

>  <NaasC>
4

>  <NaaaC>
2

>  <NssssC>
0

>  <NsNH3>
0

>  <NsNH2>
1

>  <NssNH2>
0

>  <NdNH>
0

>  <NssNH>
0

>  <NaaNH>
0

>  <NtN>
0

>  <NsssNH>
0

>  <NdsN>
0

>  <NaaN>
2

>  <NsssN>
2

>  <NddsN>
0

>  <NaasN>
0

>  <NssssN>
0

>  <NsOH>
0

>  <NdO>
1

>  <NssO>
2

>  <NaaO>
0

>  <NsF>
0

>  <NsSiH3>
0

>  <NssSiH2>
0

>  <NsssSiH>
0

>  <NssssSi>
0

>  <NsPH2>
0

>  <NssPH>
0

>  <NsssP>
0

>  <NdsssP>
0

>  <NsssssP>
0

>  <NsSH>
0

>  <NdS>
0

>  <NssS>
0

>  <NaaS>
0

>  <NdssS>
0

>  <NddssS>
0

>  <NsCl>
0

>  <NsBr>
0

>  <NsI>
0

>  <fragCpx>
139.08

>  <fMF>
0.31

>  <nHBAcc>
7

>  <nHBDon>
1

>  <Kier1>
21.7

>  <Kier2>
10.16

>  <Lipinski>
1

>  <GhoseFilter>
1

>  <FilterItLogS>
-4.07

>  <VMcGowan>
287.7

>  <LabuteASA>
158.81

>  <PEOE_VSA1>
25.01

>  <PEOE_VSA2>
4.79

>  <PEOE_VSA3>
4.98

>  <PEOE_VSA4>
4.98

>  <PEOE_VSA5>
0

>  <PEOE_VSA6>
6.92

>  <PEOE_VSA7>
18.91

>  <PEOE_VSA8>
44.05

>  <PEOE_VSA9>
19.74

>  <PEOE_VSA10>
5.82

>  <PEOE_VSA11>
11.5

>  <PEOE_VSA12>
11.86

>  <PEOE_VSA13>
0

>  <SMR_VSA1>
14.27

>  <SMR_VSA2>
0

>  <SMR_VSA3>
14.87

>  <SMR_VSA4>
0

>  <SMR_VSA5>
26.19

>  <SMR_VSA6>
51.03

>  <SMR_VSA7>
12.13

>  <SMR_VSA8>
0

>  <SMR_VSA9>
11.5

>  <SlogP_VSA1>
20.11

>  <SlogP_VSA2>
61.17

>  <SlogP_VSA3>
4.79

>  <SlogP_VSA4>
0

>  <SlogP_VSA5>
26.19

>  <SlogP_VSA6>
12.13

>  <SlogP_VSA7>
0

>  <SlogP_VSA8>
10.9

>  <SlogP_VSA9>
0

>  <SlogP_VSA10>
11.77

>  <SlogP_VSA11>
11.5

>  <EState_VSA1>
0

>  <EState_VSA2>
5.91

>  <EState_VSA3>
48.29

>  <EState_VSA4>
31.32

>  <EState_VSA5>
0

>  <EState_VSA6>
20.29

>  <EState_VSA7>
17.89

>  <EState_VSA8>
14.87

>  <EState_VSA9>
15.21

>  <EState_VSA10>
4.79

>  <VSA_EState1>
10.7

>  <VSA_EState2>
25.39

>  <VSA_EState3>
0.73

>  <VSA_EState4>
6.9

>  <VSA_EState5>
2.39

>  <VSA_EState6>
3.6

>  <VSA_EState7>
2.35

>  <VSA_EState8>
4.94

>  <VSA_EState9>
3.17

>  <apol>
57.64

>  <bpol>
36.56

>  <nRing>
3

>  <nHRing>
2

>  <naRing>
2

>  <naHRing>
1

>  <nARing 2>
1

>  <nAHRing 2>
1

>  <nFRing>
1

>  <nFHRing>
1

>  <nFaRing>
1

>  <nFaHRing>
1

>  <nFARing 2>
0

>  <nFAHRing 2>
0

>  <nRot>
5

>  <SLogP>
2.07

>  <SMR>
105.37

>  <TopoPSA(NO)>
93.81

>  <TopoPSA>
93.81

>  <JGI1>
0.19

>  <JGI2>
0.09

>  <JGI3>
0.04

>  <JGI4>
0.04

>  <JGI5>
0.03

>  <Diameter>
15

>  <Radius>
8

>  <TMWC10>
131.95

>  <TSRW10>
69.87

>  <MW>
373.21

>  <AMW>
6.91

>  <WPath>
1937

>  <WPol>
48

>  <Zagreb1>
138

>  <Zagreb2>
163

>  <mZagreb2>
6.22

>  <yes>


>  <nAR-cont>
0.816016

>  <nHA-cont>
0.860070871

>  <MWHBN>
0.414107743

>  <MWHBN-cont>
0.420799852

>  <TPSA-cont>
0.345147947

>  <pka_cont>
0.97

>  <yes.1>


>  <BBB_SCORE>
3.482582545

>  <MMFF94 Energy>
-64.185

$$$$
Compound 2448
Actelion Java MolfileCreator 2.0

  0  0  0  0  0  0              0 V3000
M  V30 BEGIN CTAB
M  V30 COUNTS 40 40 0 0 0
M  V30 BEGIN ATOM
M  V30 1 I -0.8306 0.4983 2.2439 0
M  V30 2 C 0.8044 0.6591 0.8344 0
M  V30 3 C 0.7021 1.6381 -0.1854 0
M  V30 4 C 1.9929 -0.1063 1.0141 0
M  V30 5 N -0.4957 2.3474 -0.4236 0
M  V30 6 C 1.8221 1.9237 -0.9738 0
M  V30 7 C 3.0961 0.219 0.1906 0
M  V30 8 C 2.0667 -1.2246 2.0426 0
M  V30 9 C -1.5867 1.7426 -1.029 0
M  V30 10 I 1.8023 3.4011 -2.4708 0
M  V30 11 C 3.0109 1.2249 -0.7829 0
M  V30 12 I 4.9977 -0.7028 0.3152 0
M  V30 13 C 1.29 -2.5143 1.685 0 CFG=1
M  V30 14 O -1.6293 0.5633 -1.3628 0
M  V30 15 C -2.7288 2.7179 -1.2501 0
M  V30 16 C 1.1422 -3.3311 2.9513 0
M  V30 17 C 1.9571 -3.4012 0.6206 0
M  V30 18 C -3.9582 2.0455 -1.8527 0
M  V30 19 O 1.9394 -3.4076 3.8712 0
M  V30 20 O -0.0035 -4.0392 2.98 0
M  V30 21 C 1.5464 -3.0457 -0.8014 0
M  V30 22 C -5.0919 3.037 -2.0572 0
M  V30 23 H -0.4555 3.3585 -0.3851 0
M  V30 24 H 1.7151 -0.8234 3.0024 0
M  V30 25 H 3.101 -1.4898 2.2785 0
M  V30 26 H 3.8755 1.4576 -1.4017 0
M  V30 27 H 0.2768 -2.2587 1.3558 0
M  V30 28 H -2.3731 3.5149 -1.9138 0
M  V30 29 H -2.9845 3.1717 -0.285 0
M  V30 30 H 3.0473 -3.3657 0.7151 0
M  V30 31 H 1.6804 -4.4513 0.783 0
M  V30 32 H -3.7004 1.5877 -2.8151 0
M  V30 33 H -4.2998 1.2351 -1.1976 0
M  V30 34 H 0.0319 -4.5241 3.831 0
M  V30 35 H 1.8507 -2.0352 -1.0788 0
M  V30 36 H 0.4612 -3.122 -0.9247 0
M  V30 37 H 2.0133 -3.7381 -1.5091 0
M  V30 38 H -5.9622 2.5339 -2.4902 0
M  V30 39 H -5.3972 3.4856 -1.1063 0
M  V30 40 H -4.7918 3.8415 -2.7362 0
M  V30 END ATOM
M  V30 BEGIN BOND
M  V30 1 1 1 2
M  V30 2 2 2 3
M  V30 3 1 2 4
M  V30 4 1 3 5
M  V30 5 1 3 6
M  V30 6 2 4 7
M  V30 7 1 4 8
M  V30 8 1 5 9
M  V30 9 1 6 10
M  V30 10 2 6 11
M  V30 11 1 7 12
M  V30 12 1 8 13
M  V30 13 2 9 14
M  V30 14 1 9 15
M  V30 15 1 13 16
M  V30 16 1 13 17
M  V30 17 1 15 18
M  V30 18 2 16 19
M  V30 19 1 16 20
M  V30 20 1 17 21
M  V30 21 1 18 22
M  V30 22 1 7 11
M  V30 23 1 5 23
M  V30 24 1 8 24
M  V30 25 1 8 25
M  V30 26 1 11 26
M  V30 27 1 13 27
M  V30 28 1 15 28
M  V30 29 1 15 29
M  V30 30 1 17 30
M  V30 31 1 17 31
M  V30 32 1 18 32
M  V30 33 1 18 33
M  V30 34 1 20 34
M  V30 35 1 21 35
M  V30 36 1 21 36
M  V30 37 1 21 37
M  V30 38 1 22 38
M  V30 39 1 22 39
M  V30 40 1 22 40
M  V30 END BOND
M  V30 BEGIN COLLECTION
M  V30 MDLV30/STERAC1 ATOMS=(1 13)
M  V30 END COLLECTION
M  V30 END CTAB
M  END
>  <Column 1>
3022

>  <level_0>
5173

>  <index>
5174

>  <Unnamed: 0>
5174

>  <NO.>
5186

>  <Name>
tyropanoate sodium

>  <IUPAC_name>
2-[[3-(butanoylamino)-2-4-6-triiodophenyl]methyl]butanoic acid

>  <SMILES>
CCCC(=O)Nc1c(I)cc(I)c(CC(CC)C(=O)O)c1I

>  <CID>
5611

>  <logBB>


>  <BBB+/BBB->
BBB-

>  <Inchi>
InChI=1S/C15H18I3NO3/c1-3-5-12(20)19-14-11(17)7-10(16)9(13(14)18)6-8(4-2)15(21)22/h7-8H-3-6H2-1-2H3-(H-19-20)(H-21-22)

>  <threshold>


>  <reference>
R14|

>  <group>
C

>  <Class>
-1

>  <ABC>
16.01

>  <ABCGG>
14.84

>  <nAcid>
1

>  <nBase>
0

>  <nAromAtom>
6

>  <nAromBond>
6

>  <nAtom>
40

>  <nHeavyAtom>
22

>  <nSpiro>
0

>  <nBridgehead>
0

>  <nHetero>
7

>  <nN>
1

>  <nO>
3

>  <nF>
0

>  <BalabanJ>
2.76

>  <BertzCT>
575.64

>  <nBonds>
40

>  <nBondsO>
22

>  <nBondsS>
32

>  <nBondsD>
2

>  <nBondsT>
0

>  <nBondsA>
6

>  <nBondsM>
8

>  <nBondsKS>
35

>  <nBondsKD>
5

>  <RNCG>
0.28

>  <RPCG>
0.18

>  <FCSP3>
0.47

>  <SZ>
49.67

>  <Sm>
53.37

>  <Sv>
27.52

>  <Sse>
40.18

>  <Sp>
33.9

>  <Si>
44.44

>  <MZ>
1.24

>  <Mm>
1.33

>  <Mv>
0.69

>  <Mse>
1

>  <Mp>
0.85

>  <Mi>
1.11

>  <NsCH3>
2

>  <NdCH2>
0

>  <NssCH2>
4

>  <NtCH>
0

>  <NdsCH>
0

>  <NaaCH>
1

>  <NsssCH>
1

>  <NddC>
0

>  <NtsC>
0

>  <NdssC>
2

>  <NaasC>
5

>  <NaaaC>
0

>  <NssssC>
0

>  <NsNH3>
0

>  <NsNH2>
0

>  <NssNH2>
0

>  <NdNH>
0

>  <NssNH>
1

>  <NaaNH>
0

>  <NtN>
0

>  <NsssNH>
0

>  <NdsN>
0

>  <NaaN>
0

>  <NsssN>
0

>  <NddsN>
0

>  <NaasN>
0

>  <NssssN>
0

>  <NsOH>
1

>  <NdO>
2

>  <NssO>
0

>  <NaaO>
0

>  <NsF>
0

>  <NsSiH3>
0

>  <NssSiH2>
0

>  <NsssSiH>
0

>  <NssssSi>
0

>  <NsPH2>
0

>  <NssPH>
0

>  <NsssP>
0

>  <NdsssP>
0

>  <NsssssP>
0

>  <NsSH>
0

>  <NdS>
0

>  <NssS>
0

>  <NaaS>
0

>  <NdssS>
0

>  <NddssS>
0

>  <NsCl>
0

>  <NsBr>
0

>  <NsI>
3

>  <fragCpx>
22.07

>  <fMF>
0.15

>  <nHBAcc>
2

>  <nHBDon>
2

>  <Kier1>
20.05

>  <Kier2>
9.33

>  <Lipinski>
0

>  <GhoseFilter>
0

>  <FilterItLogS>
-6.55

>  <VMcGowan>
294.93

>  <LabuteASA>
171.17

>  <PEOE_VSA1>
10.42

>  <PEOE_VSA2>
9.59

>  <PEOE_VSA3>
0

>  <PEOE_VSA4>
0

>  <PEOE_VSA5>
0

>  <PEOE_VSA6>
13.85

>  <PEOE_VSA7>
98.66

>  <PEOE_VSA8>
17.13

>  <PEOE_VSA9>
11.61

>  <PEOE_VSA10>
0

>  <PEOE_VSA11>
0

>  <PEOE_VSA12>
5.91

>  <PEOE_VSA13>
0

>  <SMR_VSA1>
14.7

>  <SMR_VSA2>
0

>  <SMR_VSA3>
0

>  <SMR_VSA4>
5.92

>  <SMR_VSA5>
39.53

>  <SMR_VSA6>
5.32

>  <SMR_VSA7>
22.34

>  <SMR_VSA8>
0

>  <SMR_VSA9>
0

>  <SlogP_VSA1>
5.32

>  <SlogP_VSA2>
16.98

>  <SlogP_VSA3>
16.01

>  <SlogP_VSA4>
16.63

>  <SlogP_VSA5>
38.67

>  <SlogP_VSA6>
6.07

>  <SlogP_VSA7>
0

>  <SlogP_VSA8>
0

>  <SlogP_VSA9>
0

>  <SlogP_VSA10>
5.69

>  <SlogP_VSA11>
0

>  <EState_VSA1>
11.89

>  <EState_VSA2>
5.91

>  <EState_VSA3>
19.26

>  <EState_VSA4>
28.38

>  <EState_VSA5>
0

>  <EState_VSA6>
0

>  <EState_VSA7>
19.91

>  <EState_VSA8>
73.09

>  <EState_VSA9>
0

>  <EState_VSA10>
14.7

>  <VSA_EState1>
2.96

>  <VSA_EState2>
23.18

>  <VSA_EState3>
12.24

>  <VSA_EState4>
1.8

>  <VSA_EState5>
-1.18

>  <VSA_EState6>
1.99

>  <VSA_EState7>
2.36

>  <VSA_EState8>
3.85

>  <VSA_EState9>
0

>  <apol>
56.61

>  <bpol>
31.4

>  <nRing>
1

>  <nHRing>
0

>  <naRing>
1

>  <naHRing>
0

>  <nARing 2>
0

>  <nAHRing 2>
0

>  <nFRing>
0

>  <nFHRing>
0

>  <nFaRing>
0

>  <nFaHRing>
0

>  <nFARing 2>
0

>  <nFAHRing 2>
0

>  <nRot>
7

>  <SLogP>
4.89

>  <SMR>
113.25

>  <TopoPSA(NO)>
66.4

>  <TopoPSA>
66.4

>  <JGI1>
0.25

>  <JGI2>
0.1

>  <JGI3>
0.06

>  <JGI4>
0.05

>  <JGI5>
0.03

>  <Diameter>
11

>  <Radius>
6

>  <TMWC10>
116.76

>  <TSRW10>
55.55

>  <MW>
640.84

>  <AMW>
16.02

>  <WPath>
1070

>  <WPol>
34

>  <Zagreb1>
104

>  <Zagreb2>
119

>  <mZagreb2>
5.14

>  <yes>


>  <nAR-cont>
0.336376

>  <nHA-cont>
0.983774276

>  <MWHBN>
0.158010223

>  <MWHBN-cont>
0.951603641

>  <TPSA-cont>
0.536486768

>  <pka_cont>
0.97

>  <yes.1>


>  <BBB_SCORE>
4.305529274

>  <MMFF94 Energy>
4.5403

$$$$
Compound 2449
Actelion Java MolfileCreator 2.0

  0  0  0  0  0  0              0 V3000
M  V30 BEGIN CTAB
M  V30 COUNTS 52 53 0 0 0
M  V30 BEGIN ATOM
M  V30 1 O 0.708 -1.4952 -1.4952 0
M  V30 2 C 1.111 -0.9567 -0.4738 0
M  V30 3 O 0.6408 0.2349 0.0015 0
M  V30 4 C 2.1767 -1.5185 0.4506 0
M  V30 5 C -0.3653 0.8726 -0.8067 0
M  V30 6 C 1.6682 -2.8145 1.1029 0
M  V30 7 C 3.459 -1.7263 -0.3752 0
M  V30 8 C -1.7327 0.2017 -0.5867 0
M  V30 9 C -0.3637 2.3695 -0.4579 0
M  V30 10 C 0.472 -2.5757 2.0311 0
M  V30 11 C 4.6955 -1.9919 0.4863 0
M  V30 12 C -2.9102 1.0925 -1.0065 0
M  V30 13 C -1.6524 3.0861 -0.8872 0
M  V30 14 C 0.0331 -3.8623 2.7132 0
M  V30 15 C 5.9519 -2.0953 -0.3651 0
M  V30 16 N -2.8657 2.4148 -0.2142 0 CHG=1
M  V30 17 C -2.7402 1.5613 -2.4614 0
M  V30 18 C -1.924 2.8583 -2.3837 0
M  V30 19 C -4.1538 3.2387 -0.4293 0
M  V30 20 C -2.7552 2.2532 1.303 0
M  V30 21 H 2.3851 -0.7775 1.2335 0
M  V30 22 H -0.0799 0.7828 -1.8635 0
M  V30 23 H 2.4715 -3.2744 1.689 0
M  V30 24 H 1.3852 -3.5388 0.3283 0
M  V30 25 H 3.3182 -2.5541 -1.0823 0
M  V30 26 H 3.6411 -0.8309 -0.9848 0
M  V30 27 H -1.8386 -0.1276 0.4532 0
M  V30 28 H -1.7699 -0.7283 -1.1681 0
M  V30 29 H 0.4959 2.8387 -0.9548 0
M  V30 30 H -0.1688 2.5199 0.6103 0
M  V30 31 H 0.7365 -1.8361 2.7958 0
M  V30 32 H -0.3749 -2.1713 1.466 0
M  V30 33 H 4.8226 -1.1831 1.2151 0
M  V30 34 H 4.5779 -2.9232 1.0496 0
M  V30 35 H -3.8722 0.6029 -0.8219 0
M  V30 36 H -1.6363 4.1453 -0.6096 0
M  V30 37 H -0.8217 -3.6707 3.3694 0
M  V30 38 H -0.2658 -4.6143 1.9761 0
M  V30 39 H 0.8415 -4.2794 3.3222 0
M  V30 40 H 6.8238 -2.2872 0.268 0
M  V30 41 H 5.8695 -2.9136 -1.0875 0
M  V30 42 H 6.1305 -1.1664 -0.916 0
M  V30 43 H -2.252 0.8088 -3.0898 0
M  V30 44 H -3.7161 1.761 -2.919 0
M  V30 45 H -1.0026 2.797 -2.9726 0
M  V30 46 H -2.5034 3.6898 -2.8016 0
M  V30 47 H -4.3285 3.4112 -1.492 0
M  V30 48 H -4.9898 2.675 -0.0042 0
M  V30 49 H -4.0311 4.1967 0.085 0
M  V30 50 H -1.87 1.6797 1.5759 0
M  V30 51 H -3.6499 1.7299 1.6535 0
M  V30 52 H -2.6922 3.2519 1.7456 0
M  V30 END ATOM
M  V30 BEGIN BOND
M  V30 1 2 1 2
M  V30 2 1 2 3
M  V30 3 1 2 4
M  V30 4 1 3 5
M  V30 5 1 4 6
M  V30 6 1 4 7
M  V30 7 1 5 8
M  V30 8 1 5 9
M  V30 9 1 6 10
M  V30 10 1 7 11
M  V30 11 1 8 12
M  V30 12 1 9 13
M  V30 13 1 10 14
M  V30 14 1 11 15
M  V30 15 1 12 16
M  V30 16 1 12 17
M  V30 17 1 13 18
M  V30 18 1 16 19
M  V30 19 1 16 20
M  V30 20 1 13 16
M  V30 21 1 17 18
M  V30 22 1 4 21
M  V30 23 1 5 22
M  V30 24 1 6 23
M  V30 25 1 6 24
M  V30 26 1 7 25
M  V30 27 1 7 26
M  V30 28 1 8 27
M  V30 29 1 8 28
M  V30 30 1 9 29
M  V30 31 1 9 30
M  V30 32 1 10 31
M  V30 33 1 10 32
M  V30 34 1 11 33
M  V30 35 1 11 34
M  V30 36 1 12 35
M  V30 37 1 13 36
M  V30 38 1 14 37
M  V30 39 1 14 38
M  V30 40 1 14 39
M  V30 41 1 15 40
M  V30 42 1 15 41
M  V30 43 1 15 42
M  V30 44 1 17 43
M  V30 45 1 17 44
M  V30 46 1 18 45
M  V30 47 1 18 46
M  V30 48 1 19 47
M  V30 49 1 19 48
M  V30 50 1 19 49
M  V30 51 1 20 50
M  V30 52 1 20 51
M  V30 53 1 20 52
M  V30 END BOND
M  V30 END CTAB
M  END
>  <Column 1>
3023

>  <level_0>
5174

>  <index>
5175

>  <Unnamed: 0>
5175

>  <NO.>
5187

>  <Name>
anisotropine

>  <IUPAC_name>
(8-8-dimethyl-8-azoniabicyclo[3.2.1]octan-3-yl) 2-propylpentanoate

>  <SMILES>
CCCC(CCC)C(=O)OC1CC2CCC(C1)[N+]2(C)C

>  <CID>
4157

>  <logBB>


>  <BBB+/BBB->
BBB-

>  <Inchi>
InChI=1S/C17H32NO2/c1-5-7-13(8-6-2)17(19)20-16-11-14-9-10-15(12-16)18(14-3)4/h13-16H-5-12H2-1-4H3/q+1

>  <threshold>


>  <reference>
R14|

>  <group>
C

>  <Class>
-1

>  <ABC>
15.11

>  <ABCGG>
13.65

>  <nAcid>
0

>  <nBase>
1

>  <nAromAtom>
0

>  <nAromBond>
0

>  <nAtom>
52

>  <nHeavyAtom>
20

>  <nSpiro>
0

>  <nBridgehead>
2

>  <nHetero>
3

>  <nN>
1

>  <nO>
2

>  <nF>
0

>  <BalabanJ>
1.88

>  <BertzCT>
317.88

>  <nBonds>
53

>  <nBondsO>
21

>  <nBondsS>
52

>  <nBondsD>
1

>  <nBondsT>
0

>  <nBondsA>
0

>  <nBondsM>
1

>  <nBondsKS>
52

>  <nBondsKD>
1

>  <RNCG>
0.34

>  <RPCG>
0.13

>  <FCSP3>
0.94

>  <SZ>
26.17

>  <Sm>
23.52

>  <Sv>
27.86

>  <Sse>
51.03

>  <Sp>
31.4

>  <Si>
59.35

>  <MZ>
0.5

>  <Mm>
0.45

>  <Mv>
0.54

>  <Mse>
0.98

>  <Mp>
0.6

>  <Mi>
1.14

>  <NsCH3>
4

>  <NdCH2>
0

>  <NssCH2>
8

>  <NtCH>
0

>  <NdsCH>
0

>  <NaaCH>
0

>  <NsssCH>
4

>  <NddC>
0

>  <NtsC>
0

>  <NdssC>
1

>  <NaasC>
0

>  <NaaaC>
0

>  <NssssC>
0

>  <NsNH3>
0

>  <NsNH2>
0

>  <NssNH2>
0

>  <NdNH>
0

>  <NssNH>
0

>  <NaaNH>
0

>  <NtN>
0

>  <NsssNH>
0

>  <NdsN>
0

>  <NaaN>
0

>  <NsssN>
0

>  <NddsN>
0

>  <NaasN>
0

>  <NssssN>
1

>  <NsOH>
0

>  <NdO>
1

>  <NssO>
1

>  <NaaO>
0

>  <NsF>
0

>  <NsSiH3>
0

>  <NssSiH2>
0

>  <NsssSiH>
0

>  <NssssSi>
0

>  <NsPH2>
0

>  <NssPH>
0

>  <NsssP>
0

>  <NdsssP>
0

>  <NsssssP>
0

>  <NsSH>
0

>  <NdS>
0

>  <NssS>
0

>  <NaaS>
0

>  <NdssS>
0

>  <NddssS>
0

>  <NsCl>
0

>  <NsBr>
0

>  <NsI>
0

>  <fragCpx>
61.03

>  <fMF>
0.15

>  <nHBAcc>
2

>  <nHBDon>
0

>  <Kier1>
16.37

>  <Kier2>
6.84

>  <Lipinski>
1

>  <GhoseFilter>
1

>  <FilterItLogS>
-4.09

>  <VMcGowan>
248.24

>  <LabuteASA>
123.81

>  <PEOE_VSA1>
9.22

>  <PEOE_VSA2>
4.79

>  <PEOE_VSA3>
0

>  <PEOE_VSA4>
0

>  <PEOE_VSA5>
0

>  <PEOE_VSA6>
26.69

>  <PEOE_VSA7>
12.84

>  <PEOE_VSA8>
25.68

>  <PEOE_VSA9>
32.1

>  <PEOE_VSA10>
6.1

>  <PEOE_VSA11>
0

>  <PEOE_VSA12>
0

>  <PEOE_VSA13>
0

>  <SMR_VSA1>
14.01

>  <SMR_VSA2>
0

>  <SMR_VSA3>
0

>  <SMR_VSA4>
5.92

>  <SMR_VSA5>
83.4

>  <SMR_VSA6>
14.1

>  <SMR_VSA7>
0

>  <SMR_VSA8>
0

>  <SMR_VSA9>
0

>  <SlogP_VSA1>
0

>  <SlogP_VSA2>
42.74

>  <SlogP_VSA3>
9.53

>  <SlogP_VSA4>
5.92

>  <SlogP_VSA5>
65.21

>  <SlogP_VSA6>
0

>  <SlogP_VSA7>
0

>  <SlogP_VSA8>
0

>  <SlogP_VSA9>
0

>  <SlogP_VSA10>
0

>  <SlogP_VSA11>
0

>  <EState_VSA1>
0

>  <EState_VSA2>
17.99

>  <EState_VSA3>
12.08

>  <EState_VSA4>
43.01

>  <EState_VSA5>
12.84

>  <EState_VSA6>
0

>  <EState_VSA7>
0

>  <EState_VSA8>
27.94

>  <EState_VSA9>
4.74

>  <EState_VSA10>
4.79

>  <VSA_EState1>
7.02

>  <VSA_EState2>
12.36

>  <VSA_EState3>
0

>  <VSA_EState4>
0

>  <VSA_EState5>
0.21

>  <VSA_EState6>
1.39

>  <VSA_EState7>
9.03

>  <VSA_EState8>
4.3

>  <VSA_EState9>
4.69

>  <apol>
52.43

>  <bpol>
36.99

>  <nRing>
2

>  <nHRing>
2

>  <naRing>
0

>  <naHRing>
0

>  <nARing 2>
2

>  <nAHRing 2>
2

>  <nFRing>
1

>  <nFHRing>
1

>  <nFaRing>
0

>  <nFaHRing>
0

>  <nFARing 2>
1

>  <nFAHRing 2>
1

>  <nRot>
6

>  <SLogP>
3.52

>  <SMR>
81.34

>  <TopoPSA(NO)>
26.3

>  <TopoPSA>
26.3

>  <JGI1>
0.26

>  <JGI2>
0.1

>  <JGI3>
0.06

>  <JGI4>
0.05

>  <JGI5>
0.02

>  <Diameter>
10

>  <Radius>
5

>  <TMWC10>
114.53

>  <TSRW10>
68.22

>  <MW>
282.24

>  <AMW>
5.43

>  <WPath>
849

>  <WPol>
31

>  <Zagreb1>
102

>  <Zagreb2>
120

>  <mZagreb2>
4.53

>  <yes>


>  <nAR-cont>
1

>  <nHA-cont>
0.999629945

>  <MWHBN>
0.119047619

>  <MWHBN-cont>
0.825241345

>  <TPSA-cont>
0.816409669

>  <pka_cont>
0.97

>  <yes.1>


>  <BBB_SCORE>
5.3553113

>  <MMFF94 Energy>
22.694

$$$$
Compound 2450
Actelion Java MolfileCreator 2.0

  0  0  0  0  0  0              0 V3000
M  V30 BEGIN CTAB
M  V30 COUNTS 52 53 0 0 0
M  V30 BEGIN ATOM
M  V30 1 O 2.3722 3.2431 0.7902 0
M  V30 2 C 2.8433 2.1204 0.892 0
M  V30 3 O 4.0235 1.9338 1.5213 0
M  V30 4 C 2.2883 0.8285 0.2947 0
M  V30 5 N 0.8231 0.8613 0.1879 0
M  V30 6 C 2.7854 0.6665 -1.1449 0
M  V30 7 C 0.0584 0.8395 1.3343 0
M  V30 8 C 0.3872 0.7191 -1.2008 0
M  V30 9 C 1.5911 0.0311 -1.8627 0
M  V30 10 O 0.5896 0.7587 2.4474 0
M  V30 11 C -1.4781 0.9291 1.2053 0
M  V30 12 C 0.037 2.0796 -1.8153 0
M  V30 13 C 1.632 0.1303 -3.3841 0
M  V30 14 N -2.1308 0.0492 2.1932 0
M  V30 15 C -1.8858 2.3689 1.518 0
M  V30 16 C -0.022 2.0258 -3.3365 0
M  V30 17 C 1.2906 1.5166 -3.9187 0
M  V30 18 C -2.3556 -1.3454 1.7515 0
M  V30 19 C -3.1758 -2.0574 2.8383 0
M  V30 20 C -1.0711 -2.144 1.4706 0
M  V30 21 O -4.1519 -2.7689 2.6536 0
M  V30 22 O -2.693 -1.8745 4.0881 0
M  V30 23 C -1.3461 -3.5698 0.9778 0
M  V30 24 C -0.0558 -4.2812 0.5985 0
M  V30 25 H 4.2381 2.8217 1.8775 0
M  V30 26 H 2.5624 -0.0232 0.9278 0
M  V30 27 H 3.6767 0.032 -1.1931 0
M  V30 28 H 3.0511 1.6331 -1.5889 0
M  V30 29 H -0.4823 0.0567 -1.2619 0
M  V30 30 H 1.5797 -1.0345 -1.5902 0
M  V30 31 H -1.8294 0.6855 0.2015 0
M  V30 32 H -0.9273 2.4258 -1.4278 0
M  V30 33 H 0.7718 2.8376 -1.5156 0
M  V30 34 H 2.6154 -0.1786 -3.7569 0
M  V30 35 H 0.9051 -0.5826 -3.7947 0
M  V30 36 H -1.5616 0.0389 3.0491 0
M  V30 37 H -1.5977 2.6597 2.5354 0
M  V30 38 H -1.399 3.0719 0.8339 0
M  V30 39 H -2.9693 2.5 1.4215 0
M  V30 40 H -0.8462 1.3744 -3.6517 0
M  V30 41 H -0.2351 3.0259 -3.7308 0
M  V30 42 H 1.2165 1.4777 -5.0116 0
M  V30 43 H 2.098 2.2196 -3.6823 0
M  V30 44 H -2.9872 -1.3204 0.8545 0
M  V30 45 H -0.4468 -2.188 2.3721 0
M  V30 46 H -0.486 -1.6406 0.6955 0
M  V30 47 H -3.3262 -2.3578 4.6573 0
M  V30 48 H -1.8519 -4.1529 1.7549 0
M  V30 49 H -2.0093 -3.5406 0.1055 0
M  V30 50 H -0.2709 -5.297 0.2525 0
M  V30 51 H 0.4628 -3.751 -0.2067 0
M  V30 52 H 0.6205 -4.3499 1.4565 0
M  V30 END ATOM
M  V30 BEGIN BOND
M  V30 1 2 1 2
M  V30 2 1 2 3
M  V30 3 1 2 4
M  V30 4 1 4 5
M  V30 5 1 4 6
M  V30 6 1 5 7
M  V30 7 1 5 8
M  V30 8 1 6 9
M  V30 9 2 7 10
M  V30 10 1 7 11
M  V30 11 1 8 12
M  V30 12 1 9 13
M  V30 13 1 11 14
M  V30 14 1 11 15
M  V30 15 1 12 16
M  V30 16 1 13 17
M  V30 17 1 14 18
M  V30 18 1 18 19
M  V30 19 1 18 20
M  V30 20 2 19 21
M  V30 21 1 19 22
M  V30 22 1 20 23
M  V30 23 1 23 24
M  V30 24 1 8 9
M  V30 25 1 16 17
M  V30 26 1 3 25
M  V30 27 1 4 26
M  V30 28 1 6 27
M  V30 29 1 6 28
M  V30 30 1 8 29
M  V30 31 1 9 30
M  V30 32 1 11 31
M  V30 33 1 12 32
M  V30 34 1 12 33
M  V30 35 1 13 34
M  V30 36 1 13 35
M  V30 37 1 14 36
M  V30 38 1 15 37
M  V30 39 1 15 38
M  V30 40 1 15 39
M  V30 41 1 16 40
M  V30 42 1 16 41
M  V30 43 1 17 42
M  V30 44 1 17 43
M  V30 45 1 18 44
M  V30 46 1 20 45
M  V30 47 1 20 46
M  V30 48 1 22 47
M  V30 49 1 23 48
M  V30 50 1 23 49
M  V30 51 1 24 50
M  V30 52 1 24 51
M  V30 53 1 24 52
M  V30 END BOND
M  V30 END CTAB
M  END
>  <Column 1>
3024

>  <level_0>
5175

>  <index>
5176

>  <Unnamed: 0>
5176

>  <NO.>
5188

>  <Name>
perindoprilat

>  <IUPAC_name>
1-[2-(1-carboxybutylamino)propanoyl]-2-3-3a-4-5-6-7-7a-octahydroindole-2-carboxylic acid

>  <SMILES>
CCCC(NC(C)C(=O)N1C(C(=O)O)CC2CCCCC21)C(=O)O

>  <CID>
4687013

>  <logBB>


>  <BBB+/BBB->
BBB-

>  <Inchi>
InChI=1S/C17H28N2O5/c1-3-6-12(16(21)22)18-10(2)15(20)19-13-8-5-4-7-11(13)9-14(19)17(23)24/h10-14-18H-3-9H2-1-2H3-(H-21-22)(H-23-24)

>  <threshold>


>  <reference>
R14|

>  <group>
C

>  <Class>
-1

>  <ABC>
18.05

>  <ABCGG>
16.4

>  <nAcid>
2

>  <nBase>
1

>  <nAromAtom>
0

>  <nAromBond>
0

>  <nAtom>
52

>  <nHeavyAtom>
24

>  <nSpiro>
0

>  <nBridgehead>
0

>  <nHetero>
7

>  <nN>
2

>  <nO>
5

>  <nF>
0

>  <BalabanJ>
2.07

>  <BertzCT>
495.37

>  <nBonds>
53

>  <nBondsO>
25

>  <nBondsS>
50

>  <nBondsD>
3

>  <nBondsT>
0

>  <nBondsA>
0

>  <nBondsM>
3

>  <nBondsKS>
50

>  <nBondsKD>
3

>  <RNCG>
0.17

>  <RPCG>
0.12

>  <FCSP3>
0.82

>  <SZ>
30.67

>  <Sm>
28.34

>  <Sv>
29.68

>  <Sse>
52.41

>  <Sp>
31.9

>  <Si>
59.44

>  <MZ>
0.59

>  <Mm>
0.55

>  <Mv>
0.57

>  <Mse>
1.01

>  <Mp>
0.61

>  <Mi>
1.14

>  <NsCH3>
2

>  <NdCH2>
0

>  <NssCH2>
7

>  <NtCH>
0

>  <NdsCH>
0

>  <NaaCH>
0

>  <NsssCH>
5

>  <NddC>
0

>  <NtsC>
0

>  <NdssC>
3

>  <NaasC>
0

>  <NaaaC>
0

>  <NssssC>
0

>  <NsNH3>
0

>  <NsNH2>
0

>  <NssNH2>
0

>  <NdNH>
0

>  <NssNH>
1

>  <NaaNH>
0

>  <NtN>
0

>  <NsssNH>
0

>  <NdsN>
0

>  <NaaN>
0

>  <NsssN>
1

>  <NddsN>
0

>  <NaasN>
0

>  <NssssN>
0

>  <NsOH>
2

>  <NdO>
3

>  <NssO>
0

>  <NaaO>
0

>  <NsF>
0

>  <NsSiH3>
0

>  <NssSiH2>
0

>  <NsssSiH>
0

>  <NssssSi>
0

>  <NsPH2>
0

>  <NssPH>
0

>  <NsssP>
0

>  <NdsssP>
0

>  <NsssssP>
0

>  <NsSH>
0

>  <NdS>
0

>  <NssS>
0

>  <NaaS>
0

>  <NdssS>
0

>  <NddssS>
0

>  <NsCl>
0

>  <NsBr>
0

>  <NsI>
0

>  <fragCpx>
73.07

>  <fMF>
0.17

>  <nHBAcc>
4

>  <nHBDon>
3

>  <Kier1>
20.31

>  <Kier2>
9.09

>  <Lipinski>
1

>  <GhoseFilter>
1

>  <FilterItLogS>
-1.14

>  <VMcGowan>
265.08

>  <LabuteASA>
141.95

>  <PEOE_VSA1>
15.11

>  <PEOE_VSA2>
14.91

>  <PEOE_VSA3>
4.79

>  <PEOE_VSA4>
0

>  <PEOE_VSA5>
0

>  <PEOE_VSA6>
26.19

>  <PEOE_VSA7>
38.52

>  <PEOE_VSA8>
6.04

>  <PEOE_VSA9>
6.04

>  <PEOE_VSA10>
12.08

>  <PEOE_VSA11>
0

>  <PEOE_VSA12>
5.91

>  <PEOE_VSA13>
0

>  <SMR_VSA1>
24.6

>  <SMR_VSA2>
0

>  <SMR_VSA3>
10.22

>  <SMR_VSA4>
5.92

>  <SMR_VSA5>
82.96

>  <SMR_VSA6>
0

>  <SMR_VSA7>
0

>  <SMR_VSA8>
0

>  <SMR_VSA9>
0

>  <SlogP_VSA1>
5.32

>  <SlogP_VSA2>
57.13

>  <SlogP_VSA3>
14.38

>  <SlogP_VSA4>
5.92

>  <SlogP_VSA5>
58.79

>  <SlogP_VSA6>
0

>  <SlogP_VSA7>
0

>  <SlogP_VSA8>
0

>  <SlogP_VSA9>
0

>  <SlogP_VSA10>
0

>  <SlogP_VSA11>
0

>  <EState_VSA1>
30.06

>  <EState_VSA2>
17.87

>  <EState_VSA3>
19.26

>  <EState_VSA4>
25.68

>  <EState_VSA5>
4.9

>  <EState_VSA6>
6.92

>  <EState_VSA7>
6.92

>  <EState_VSA8>
5.32

>  <EState_VSA9>
0

>  <EState_VSA10>
24.6

>  <VSA_EState1>
0

>  <VSA_EState2>
37.3

>  <VSA_EState3>
21.62

>  <VSA_EState4>
0

>  <VSA_EState5>
-1.99

>  <VSA_EState6>
-2.31

>  <VSA_EState7>
5.53

>  <VSA_EState8>
3.51

>  <VSA_EState9>
0

>  <apol>
53.27

>  <bpol>
32.97

>  <nRing>
2

>  <nHRing>
1

>  <naRing>
0

>  <naHRing>
0

>  <nARing 2>
2

>  <nAHRing 2>
1

>  <nFRing>
1

>  <nFHRing>
1

>  <nFaRing>
0

>  <nFaHRing>
0

>  <nFARing 2>
1

>  <nFAHRing 2>
1

>  <nRot>
7

>  <SLogP>
1.46

>  <SMR>
87.56

>  <TopoPSA(NO)>
106.94

>  <TopoPSA>
106.94

>  <JGI1>
0.2

>  <JGI2>
0.09

>  <JGI3>
0.06

>  <JGI4>
0.05

>  <JGI5>
0.03

>  <Diameter>
11

>  <Radius>
6

>  <TMWC10>
124

>  <TSRW10>
72.66

>  <MW>
340.2

>  <AMW>
6.54

>  <WPath>
1316

>  <WPol>
38

>  <Zagreb1>
120

>  <Zagreb2>
141

>  <mZagreb2>
5.44

>  <yes>


>  <nAR-cont>
1

>  <nHA-cont>
0.94700071

>  <MWHBN>
0.379516695

>  <MWHBN-cont>
0.55670131

>  <TPSA-cont>
0.253492394

>  <pka_cont>
0.97

>  <yes.1>


>  <BBB_SCORE>
3.774037462

>  <MMFF94 Energy>
72.866

$$$$
Compound 2451
Actelion Java MolfileCreator 2.0

  0  0  0  0  0  0              0 V3000
M  V30 BEGIN CTAB
M  V30 COUNTS 58 59 0 0 0
M  V30 BEGIN ATOM
M  V30 1 O -1.4214 1.9747 3.3192 0
M  V30 2 C -1.2652 1.3011 2.312 0
M  V30 3 O -0.3468 0.3113 2.2756 0
M  V30 4 C -2.1004 1.404 1.0252 0
M  V30 5 N -1.5008 0.6521 -0.0878 0
M  V30 6 C -3.4618 0.7396 1.2321 0
M  V30 7 C -0.3492 1.135 -0.6726 0
M  V30 8 C -2.2553 -0.5746 -0.3767 0
M  V30 9 C -3.1806 -0.72 0.8468 0
M  V30 10 O 0.1084 2.2379 -0.354 0
M  V30 11 C 0.3913 0.25 -1.6948 0
M  V30 12 C -3.0154 -0.4382 -1.7047 0
M  V30 13 C -4.4264 -1.575 0.6397 0
M  V30 14 N 1.84 0.1663 -1.385 0
M  V30 15 C 0.2427 0.8804 -3.0791 0
M  V30 16 C -4.1493 -1.444 -1.8469 0
M  V30 17 C -5.1285 -1.3283 -0.6879 0
M  V30 18 C 2.1326 -0.4617 -0.0638 0
M  V30 19 C 2.4757 0.6023 1.0044 0
M  V30 20 C 3.3299 -1.4045 -0.262 0
M  V30 21 O 2.3047 0.4536 2.2112 0
M  V30 22 O 3.0349 1.7087 0.4308 0
M  V30 23 C 3.5978 -2.291 0.9586 0
M  V30 24 C 3.3028 2.7762 1.3458 0
M  V30 25 C 4.7255 -3.2763 0.6913 0
M  V30 26 C 3.8118 3.9621 0.5504 0
M  V30 27 H 0.2764 0.4683 3.0206 0
M  V30 28 H -2.1802 2.463 0.7575 0
M  V30 29 H -4.2013 1.1864 0.5575 0
M  V30 30 H -3.838 0.8281 2.2564 0
M  V30 31 H -1.5722 -1.4291 -0.4272 0
M  V30 32 H -2.6064 -1.1712 1.6688 0
M  V30 33 H -0.0134 -0.763 -1.7271 0
M  V30 34 H -3.4258 0.5755 -1.8038 0
M  V30 35 H -2.3238 -0.5664 -2.5435 0
M  V30 36 H -5.1311 -1.4228 1.4657 0
M  V30 37 H -4.1283 -2.631 0.6774 0
M  V30 38 H 2.209 1.1259 -1.3534 0
M  V30 39 H -0.8116 1.0039 -3.3457 0
M  V30 40 H 0.7148 0.2574 -3.8465 0
M  V30 41 H 0.7008 1.8759 -3.1215 0
M  V30 42 H -3.7398 -2.4605 -1.8905 0
M  V30 43 H -4.6768 -1.27 -2.7916 0
M  V30 44 H -5.5941 -0.3358 -0.6898 0
M  V30 45 H -5.9367 -2.0576 -0.8149 0
M  V30 46 H 1.2642 -1.0319 0.2865 0
M  V30 47 H 3.1386 -2.0553 -1.1258 0
M  V30 48 H 4.2347 -0.8262 -0.4919 0
M  V30 49 H 3.8676 -1.6774 1.8247 0
M  V30 50 H 2.6904 -2.847 1.2215 0
M  V30 51 H 4.0636 2.4582 2.0671 0
M  V30 52 H 2.3841 3.0537 1.8753 0
M  V30 53 H 4.903 -3.8975 1.5749 0
M  V30 54 H 4.4786 -3.9383 -0.1447 0
M  V30 55 H 5.6559 -2.7516 0.452 0
M  V30 56 H 4.0332 4.8073 1.2081 0
M  V30 57 H 4.7194 3.6955 -0.0011 0
M  V30 58 H 3.0692 4.2755 -0.1909 0
M  V30 END ATOM
M  V30 BEGIN BOND
M  V30 1 2 1 2
M  V30 2 1 2 3
M  V30 3 1 2 4
M  V30 4 1 4 5
M  V30 5 1 4 6
M  V30 6 1 5 7
M  V30 7 1 5 8
M  V30 8 1 6 9
M  V30 9 2 7 10
M  V30 10 1 7 11
M  V30 11 1 8 12
M  V30 12 1 9 13
M  V30 13 1 11 14
M  V30 14 1 11 15
M  V30 15 1 12 16
M  V30 16 1 13 17
M  V30 17 1 14 18
M  V30 18 1 18 19
M  V30 19 1 18 20
M  V30 20 2 19 21
M  V30 21 1 19 22
M  V30 22 1 20 23
M  V30 23 1 22 24
M  V30 24 1 23 25
M  V30 25 1 24 26
M  V30 26 1 8 9
M  V30 27 1 16 17
M  V30 28 1 3 27
M  V30 29 1 4 28
M  V30 30 1 6 29
M  V30 31 1 6 30
M  V30 32 1 8 31
M  V30 33 1 9 32
M  V30 34 1 11 33
M  V30 35 1 12 34
M  V30 36 1 12 35
M  V30 37 1 13 36
M  V30 38 1 13 37
M  V30 39 1 14 38
M  V30 40 1 15 39
M  V30 41 1 15 40
M  V30 42 1 15 41
M  V30 43 1 16 42
M  V30 44 1 16 43
M  V30 45 1 17 44
M  V30 46 1 17 45
M  V30 47 1 18 46
M  V30 48 1 20 47
M  V30 49 1 20 48
M  V30 50 1 23 49
M  V30 51 1 23 50
M  V30 52 1 24 51
M  V30 53 1 24 52
M  V30 54 1 25 53
M  V30 55 1 25 54
M  V30 56 1 25 55
M  V30 57 1 26 56
M  V30 58 1 26 57
M  V30 59 1 26 58
M  V30 END BOND
M  V30 END CTAB
M  END
>  <Column 1>
3025

>  <level_0>
5176

>  <index>
5177

>  <Unnamed: 0>
5177

>  <NO.>
5189

>  <Name>
82978-68-5

>  <IUPAC_name>
1-[2-[(1-ethoxy-1-oxopentan-2-yl)amino]propanoyl]-2-3-3a-4-5-6-7-7a-octahydroindole-2-carboxylic acid

>  <SMILES>
CCCC(NC(C)C(=O)N1C(C(=O)O)CC2CCCCC21)C(=O)OCC

>  <CID>
4169159

>  <logBB>


>  <BBB+/BBB->
BBB-

>  <Inchi>
InChI=1S/C19H32N2O5/c1-4-8-14(19(25)26-5-2)20-12(3)17(22)21-15-10-7-6-9-13(15)11-16(21)18(23)24/h12-16-20H-4-11H2-1-3H3-(H-23-24)

>  <threshold>


>  <reference>
R14|R23|

>  <group>
C

>  <Class>
-1

>  <ABC>
19.36

>  <ABCGG>
17.48

>  <nAcid>
1

>  <nBase>
1

>  <nAromAtom>
0

>  <nAromBond>
0

>  <nAtom>
58

>  <nHeavyAtom>
26

>  <nSpiro>
0

>  <nBridgehead>
0

>  <nHetero>
7

>  <nN>
2

>  <nO>
5

>  <nF>
0

>  <BalabanJ>
2.07

>  <BertzCT>
524.06

>  <nBonds>
59

>  <nBondsO>
27

>  <nBondsS>
56

>  <nBondsD>
3

>  <nBondsT>
0

>  <nBondsA>
0

>  <nBondsM>
3

>  <nBondsKS>
56

>  <nBondsKD>
3

>  <RNCG>
0.17

>  <RPCG>
0.12

>  <FCSP3>
0.84

>  <SZ>
33.33

>  <Sm>
30.68

>  <Sv>
32.76

>  <Sse>
58.19

>  <Sp>
35.5

>  <Si>
66.27

>  <MZ>
0.57

>  <Mm>
0.53

>  <Mv>
0.56

>  <Mse>
1

>  <Mp>
0.61

>  <Mi>
1.14

>  <NsCH3>
3

>  <NdCH2>
0

>  <NssCH2>
8

>  <NtCH>
0

>  <NdsCH>
0

>  <NaaCH>
0

>  <NsssCH>
5

>  <NddC>
0

>  <NtsC>
0

>  <NdssC>
3

>  <NaasC>
0

>  <NaaaC>
0

>  <NssssC>
0

>  <NsNH3>
0

>  <NsNH2>
0

>  <NssNH2>
0

>  <NdNH>
0

>  <NssNH>
1

>  <NaaNH>
0

>  <NtN>
0

>  <NsssNH>
0

>  <NdsN>
0

>  <NaaN>
0

>  <NsssN>
1

>  <NddsN>
0

>  <NaasN>
0

>  <NssssN>
0

>  <NsOH>
1

>  <NdO>
3

>  <NssO>
1

>  <NaaO>
0

>  <NsF>
0

>  <NsSiH3>
0

>  <NssSiH2>
0

>  <NsssSiH>
0

>  <NssssSi>
0

>  <NsPH2>
0

>  <NssPH>
0

>  <NsssP>
0

>  <NdsssP>
0

>  <NsssssP>
0

>  <NsSH>
0

>  <NdS>
0

>  <NssS>
0

>  <NaaS>
0

>  <NdssS>
0

>  <NddssS>
0

>  <NsCl>
0

>  <NsBr>
0

>  <NsI>
0

>  <fragCpx>
79.07

>  <fMF>
0.16

>  <nHBAcc>
5

>  <nHBDon>
2

>  <Kier1>
22.29

>  <Kier2>
10.52

>  <Lipinski>
1

>  <GhoseFilter>
1

>  <FilterItLogS>
-2.23

>  <VMcGowan>
293.26

>  <LabuteASA>
155

>  <PEOE_VSA1>
14.74

>  <PEOE_VSA2>
14.91

>  <PEOE_VSA3>
4.79

>  <PEOE_VSA4>
0

>  <PEOE_VSA5>
0

>  <PEOE_VSA6>
26.19

>  <PEOE_VSA7>
45.45

>  <PEOE_VSA8>
6.04

>  <PEOE_VSA9>
12.65

>  <PEOE_VSA10>
12.08

>  <PEOE_VSA11>
0

>  <PEOE_VSA12>
5.91

>  <PEOE_VSA13>
0

>  <SMR_VSA1>
24.23

>  <SMR_VSA2>
0

>  <SMR_VSA3>
10.22

>  <SMR_VSA4>
5.92

>  <SMR_VSA5>
89.88

>  <SMR_VSA6>
6.61

>  <SMR_VSA7>
0

>  <SMR_VSA8>
0

>  <SMR_VSA9>
0

>  <SlogP_VSA1>
5.32

>  <SlogP_VSA2>
58.63

>  <SlogP_VSA3>
19.12

>  <SlogP_VSA4>
5.92

>  <SlogP_VSA5>
65.72

>  <SlogP_VSA6>
0

>  <SlogP_VSA7>
0

>  <SlogP_VSA8>
0

>  <SlogP_VSA9>
0

>  <SlogP_VSA10>
0

>  <SlogP_VSA11>
0

>  <EState_VSA1>
24.09

>  <EState_VSA2>
23.84

>  <EState_VSA3>
19.45

>  <EState_VSA4>
32.1

>  <EState_VSA5>
0

>  <EState_VSA6>
18.75

>  <EState_VSA7>
6.92

>  <EState_VSA8>
5.32

>  <EState_VSA9>
4.74

>  <EState_VSA10>
19.49

>  <VSA_EState1>
5.09

>  <VSA_EState2>
38.49

>  <VSA_EState3>
12.67

>  <VSA_EState4>
0

>  <VSA_EState5>
-1.24

>  <VSA_EState6>
-1.92

>  <VSA_EState7>
5.87

>  <VSA_EState8>
5.72

>  <VSA_EState9>
0

>  <apol>
59.28

>  <bpol>
38.72

>  <nRing>
2

>  <nHRing>
1

>  <naRing>
0

>  <naHRing>
0

>  <nARing 2>
2

>  <nAHRing 2>
1

>  <nFRing>
1

>  <nFHRing>
1

>  <nFaRing>
0

>  <nFaHRing>
0

>  <nFARing 2>
1

>  <nFAHRing 2>
1

>  <nRot>
8

>  <SLogP>
1.94

>  <SMR>
96.56

>  <TopoPSA(NO)>
95.94

>  <TopoPSA>
95.94

>  <JGI1>
0.19

>  <JGI2>
0.09

>  <JGI3>
0.06

>  <JGI4>
0.05

>  <JGI5>
0.03

>  <Diameter>
12

>  <Radius>
6

>  <TMWC10>
128.47

>  <TSRW10>
74.93

>  <MW>
368.23

>  <AMW>
6.35

>  <WPath>
1665

>  <WPol>
41

>  <Zagreb1>
128

>  <Zagreb2>
150

>  <mZagreb2>
6.03

>  <yes>


>  <nAR-cont>
1

>  <nHA-cont>
0.892715677

>  <MWHBN>
0.364786247

>  <MWHBN-cont>
0.61404427

>  <TPSA-cont>
0.330279225

>  <pka_cont>
0.97

>  <yes.1>


>  <BBB_SCORE>
3.959340533

>  <MMFF94 Energy>
80.396

$$$$
Compound 2452
Actelion Java MolfileCreator 2.0

  0  0  0  0  0  0              0 V3000
M  V30 BEGIN CTAB
M  V30 COUNTS 61 63 0 0 0
M  V30 BEGIN ATOM
M  V30 1 O -0.0793 -1.5877 1.4289 0
M  V30 2 C -0.3888 -1.8285 0.2706 0
M  V30 3 O -1.6943 -1.8892 -0.092 0
M  V30 4 C 0.5401 -2.0217 -0.9442 0 CFG=1
M  V30 5 N 1.4377 -0.8381 -1.0874 0
M  V30 6 C 1.2254 -3.4136 -0.9335 0
M  V30 7 C 2.5517 -0.7128 -0.2598 0
M  V30 8 C 0.9807 0.2178 -2.0088 0
M  V30 9 C 0.1826 -4.5396 -0.9986 0
M  V30 10 C 2.1948 -3.5734 -2.1104 0
M  V30 11 O 2.833 -1.5491 0.5973 0
M  V30 12 C 3.451 0.4981 -0.4758 0
M  V30 13 C -0.3025 0.8637 -1.5353 0
M  V30 14 C 4.6736 0.4915 0.4434 0
M  V30 15 C -1.5233 0.5454 -2.1447 0
M  V30 16 C -0.3091 1.7023 -0.4143 0
M  V30 17 C 5.5586 1.7134 0.2002 0
M  V30 18 C -2.7295 0.9706 -1.5808 0
M  V30 19 C -1.5163 2.1444 0.1336 0
M  V30 20 C 6.7748 1.7107 1.1124 0
M  V30 21 C -2.746 1.738 -0.4065 0
M  V30 22 C -4.0218 2.0536 0.2659 0
M  V30 23 C -4.3337 1.6226 1.5814 0
M  V30 24 C -4.9772 2.8272 -0.4249 0
M  V30 25 C -3.4165 0.8284 2.3921 0
M  V30 26 C -5.5618 1.9925 2.1621 0
M  V30 27 C -6.196 3.1745 0.1613 0
M  V30 28 N -3.1462 1.1494 3.7036 0
M  V30 29 N -2.7284 -0.2525 1.9739 0
M  V30 30 C -6.4875 2.7594 1.4551 0
M  V30 31 N -2.1982 0.321 4.1158 0
M  V30 32 N -1.9326 -0.4456 3.0522 0
M  V30 33 H -2.1998 -1.4155 0.6171 0
M  V30 34 H -0.0982 -2.014 -1.8387 0
M  V30 35 H 1.7822 -3.5603 -0.002 0
M  V30 36 H 1.7307 0.999 -2.1505 0
M  V30 37 H 0.842 -0.2455 -2.9933 0
M  V30 38 H 0.6713 -5.5199 -1.0182 0
M  V30 39 H -0.4757 -4.5232 -0.1244 0
M  V30 40 H -0.4391 -4.4552 -1.8964 0
M  V30 41 H 2.6368 -4.5756 -2.1154 0
M  V30 42 H 3.0198 -2.8572 -2.0544 0
M  V30 43 H 1.6824 -3.4267 -3.0674 0
M  V30 44 H 2.8717 1.4072 -0.2882 0
M  V30 45 H 3.7868 0.4971 -1.519 0
M  V30 46 H 5.2551 -0.424 0.2782 0
M  V30 47 H 4.3479 0.475 1.4911 0
M  V30 48 H -1.5547 -0.1005 -3.0194 0
M  V30 49 H 0.6187 1.9756 0.0812 0
M  V30 50 H 5.8922 1.7297 -0.8437 0
M  V30 51 H 4.9828 2.6304 0.3714 0
M  V30 52 H -3.6644 0.6434 -2.0321 0
M  V30 53 H -1.4899 2.763 1.0294 0
M  V30 54 H 7.3936 2.5931 0.9216 0
M  V30 55 H 6.4755 1.727 2.1653 0
M  V30 56 H 7.3899 0.8213 0.9434 0
M  V30 57 H -4.7644 3.1787 -1.4335 0
M  V30 58 H -5.804 1.6776 3.1764 0
M  V30 59 H -6.9128 3.776 -0.3923 0
M  V30 60 H -7.4327 3.0336 1.9172 0
M  V30 61 H -1.1547 -1.1087 3.036 0
M  V30 END ATOM
M  V30 BEGIN BOND
M  V30 1 2 1 2
M  V30 2 1 2 3
M  V30 3 1 2 4
M  V30 4 1 4 5
M  V30 5 1 4 6
M  V30 6 1 5 7
M  V30 7 1 5 8
M  V30 8 1 6 9
M  V30 9 1 6 10
M  V30 10 2 7 11
M  V30 11 1 7 12
M  V30 12 1 8 13
M  V30 13 1 12 14
M  V30 14 2 13 15
M  V30 15 1 13 16
M  V30 16 1 14 17
M  V30 17 1 15 18
M  V30 18 2 16 19
M  V30 19 1 17 20
M  V30 20 2 18 21
M  V30 21 1 21 22
M  V30 22 2 22 23
M  V30 23 1 22 24
M  V30 24 1 23 25
M  V30 25 1 23 26
M  V30 26 2 24 27
M  V30 27 1 25 28
M  V30 28 2 25 29
M  V30 29 2 26 30
M  V30 30 2 28 31
M  V30 31 1 29 32
M  V30 32 1 19 21
M  V30 33 1 27 30
M  V30 34 1 31 32
M  V30 35 1 3 33
M  V30 36 1 4 34
M  V30 37 1 6 35
M  V30 38 1 8 36
M  V30 39 1 8 37
M  V30 40 1 9 38
M  V30 41 1 9 39
M  V30 42 1 9 40
M  V30 43 1 10 41
M  V30 44 1 10 42
M  V30 45 1 10 43
M  V30 46 1 12 44
M  V30 47 1 12 45
M  V30 48 1 14 46
M  V30 49 1 14 47
M  V30 50 1 15 48
M  V30 51 1 16 49
M  V30 52 1 17 50
M  V30 53 1 17 51
M  V30 54 1 18 52
M  V30 55 1 19 53
M  V30 56 1 20 54
M  V30 57 1 20 55
M  V30 58 1 20 56
M  V30 59 1 24 57
M  V30 60 1 26 58
M  V30 61 1 27 59
M  V30 62 1 30 60
M  V30 63 1 32 61
M  V30 END BOND
M  V30 BEGIN COLLECTION
M  V30 MDLV30/STERAC1 ATOMS=(1 4)
M  V30 END COLLECTION
M  V30 END CTAB
M  END
>  <Column 1>
3027

>  <level_0>
5178

>  <index>
5179

>  <Unnamed: 0>
5179

>  <NO.>
5191

>  <Name>
l-valsartan

>  <IUPAC_name>
3-methyl-2-[pentanoyl-[[4-[2-(2h-tetrazol-5-yl)phenyl]phenyl]methyl]amino]butanoic acid

>  <SMILES>
CCCCC(=O)N(Cc1ccc(-c2ccccc2-c2nn[nH]n2)cc1)C(C(=O)O)C(C)C

>  <CID>
5650

>  <logBB>


>  <BBB+/BBB->
BBB-

>  <Inchi>
InChI=1S/C24H29N5O3/c1-4-5-10-21(30)29(22(16(2)3)24(31)32)15-17-11-13-18(14-12-17)19-8-6-7-9-20(19)23-25-27-28-26-23/h6-9-11-14-16-22H-4-5-10-15H2-1-3H3-(H-31-32)(H-25-26-27-28)

>  <threshold>


>  <reference>
R14|R23|

>  <group>
C

>  <Class>
-1

>  <ABC>
24.31

>  <ABCGG>
20.01

>  <nAcid>
3

>  <nBase>
0

>  <nAromAtom>
17

>  <nAromBond>
17

>  <nAtom>
61

>  <nHeavyAtom>
32

>  <nSpiro>
0

>  <nBridgehead>
0

>  <nHetero>
8

>  <nN>
5

>  <nO>
3

>  <nF>
0

>  <BalabanJ>
1.59

>  <BertzCT>
1032.05

>  <nBonds>
63

>  <nBondsO>
34

>  <nBondsS>
44

>  <nBondsD>
2

>  <nBondsT>
0

>  <nBondsA>
17

>  <nBondsM>
19

>  <nBondsKS>
53

>  <nBondsKD>
10

>  <RNCG>
0.18

>  <RPCG>
0.13

>  <FCSP3>
0.38

>  <SZ>
38.67

>  <Sm>
36.26

>  <Sv>
37.79

>  <Sse>
61.18

>  <Sp>
40.31

>  <Si>
69.1

>  <MZ>
0.63

>  <Mm>
0.59

>  <Mv>
0.62

>  <Mse>
1

>  <Mp>
0.66

>  <Mi>
1.13

>  <NsCH3>
3

>  <NdCH2>
0

>  <NssCH2>
4

>  <NtCH>
0

>  <NdsCH>
0

>  <NaaCH>
8

>  <NsssCH>
2

>  <NddC>
0

>  <NtsC>
0

>  <NdssC>
2

>  <NaasC>
5

>  <NaaaC>
0

>  <NssssC>
0

>  <NsNH3>
0

>  <NsNH2>
0

>  <NssNH2>
0

>  <NdNH>
0

>  <NssNH>
0

>  <NaaNH>
1

>  <NtN>
0

>  <NsssNH>
0

>  <NdsN>
0

>  <NaaN>
3

>  <NsssN>
1

>  <NddsN>
0

>  <NaasN>
0

>  <NssssN>
0

>  <NsOH>
1

>  <NdO>
2

>  <NssO>
0

>  <NaaO>
0

>  <NsF>
0

>  <NsSiH3>
0

>  <NssSiH2>
0

>  <NsssSiH>
0

>  <NssssSi>
0

>  <NsPH2>
0

>  <NssPH>
0

>  <NsssP>
0

>  <NdsssP>
0

>  <NsssssP>
0

>  <NsSH>
0

>  <NdS>
0

>  <NssS>
0

>  <NaaS>
0

>  <NdssS>
0

>  <NddssS>
0

>  <NsCl>
0

>  <NsBr>
0

>  <NsI>
0

>  <fragCpx>
164.08

>  <fMF>
0.28

>  <nHBAcc>
5

>  <nHBDon>
2

>  <Kier1>
26.6

>  <Kier2>
13.19

>  <Lipinski>
1

>  <GhoseFilter>
1

>  <FilterItLogS>
-5.74

>  <VMcGowan>
340.95

>  <LabuteASA>
187.21

>  <PEOE_VSA1>
10.01

>  <PEOE_VSA2>
4.79

>  <PEOE_VSA3>
4.79

>  <PEOE_VSA4>
5.21

>  <PEOE_VSA5>
10.2

>  <PEOE_VSA6>
75.72

>  <PEOE_VSA7>
34.24

>  <PEOE_VSA8>
18.53

>  <PEOE_VSA9>
0

>  <PEOE_VSA10>
6.04

>  <PEOE_VSA11>
0

>  <PEOE_VSA12>
11.73

>  <PEOE_VSA13>
0

>  <SMR_VSA1>
14.7

>  <SMR_VSA2>
0

>  <SMR_VSA3>
25.52

>  <SMR_VSA4>
5.92

>  <SMR_VSA5>
52.62

>  <SMR_VSA6>
0

>  <SMR_VSA7>
54.09

>  <SMR_VSA8>
0

>  <SMR_VSA9>
22.51

>  <SlogP_VSA1>
0

>  <SlogP_VSA2>
48.55

>  <SlogP_VSA3>
16.13

>  <SlogP_VSA4>
5.92

>  <SlogP_VSA5>
45.6

>  <SlogP_VSA6>
48.53

>  <SlogP_VSA7>
0

>  <SlogP_VSA8>
22.51

>  <SlogP_VSA9>
0

>  <SlogP_VSA10>
0

>  <SlogP_VSA11>
0

>  <EState_VSA1>
12.01

>  <EState_VSA2>
18.37

>  <EState_VSA3>
12.25

>  <EState_VSA4>
35.1

>  <EState_VSA5>
4.9

>  <EState_VSA6>
0

>  <EState_VSA7>
69.3

>  <EState_VSA8>
20.62

>  <EState_VSA9>
0

>  <EState_VSA10>
14.7

>  <VSA_EState1>
0

>  <VSA_EState2>
26.29

>  <VSA_EState3>
24.04

>  <VSA_EState4>
3.66

>  <VSA_EState5>
-0.78

>  <VSA_EState6>
14.72

>  <VSA_EState7>
1.97

>  <VSA_EState8>
5.93

>  <VSA_EState9>
0

>  <apol>
67.32

>  <bpol>
33.11

>  <nRing>
3

>  <nHRing>
1

>  <naRing>
3

>  <naHRing>
1

>  <nARing 2>
0

>  <nAHRing 2>
0

>  <nFRing>
0

>  <nFHRing>
0

>  <nFaRing>
0

>  <nFaHRing>
0

>  <nFARing 2>
0

>  <nFAHRing 2>
0

>  <nRot>
10

>  <SLogP>
4.16

>  <SMR>
121.39

>  <TopoPSA(NO)>
112.07

>  <TopoPSA>
112.07

>  <JGI1>
0.16

>  <JGI2>
0.08

>  <JGI3>
0.05

>  <JGI4>
0.03

>  <JGI5>
0.02

>  <Diameter>
15

>  <Radius>
8

>  <TMWC10>
142.9

>  <TSRW10>
80.79

>  <MW>
435.23

>  <AMW>
7.13

>  <WPath>
3122

>  <WPol>
49

>  <Zagreb1>
160

>  <Zagreb2>
186

>  <mZagreb2>
7.28

>  <yes>


>  <nAR-cont>
0.336376

>  <nHA-cont>
0.658856097

>  <MWHBN>
0.335535618

>  <MWHBN-cont>
0.72323337

>  <TPSA-cont>
0.217681809

>  <pka_cont>
0.97

>  <yes.1>


>  <BBB_SCORE>
3.000445769

>  <MMFF94 Energy>
58.414

$$$$
Compound 2453
Actelion Java MolfileCreator 2.0

  0  0  0  0  0  0              0 V3000
M  V30 BEGIN CTAB
M  V30 COUNTS 44 46 0 0 0
M  V30 BEGIN ATOM
M  V30 1 O 1.9866 -0.8737 -1.8276 0
M  V30 2 C 1.2004 -0.7395 -0.9 0
M  V30 3 N -0.169 -0.4718 -0.9536 0
M  V30 4 C 1.5845 -0.7903 0.5605 0 CFG=2
M  V30 5 N -0.7093 -0.3947 0.3403 0
M  V30 6 C -0.8087 -0.0024 -2.1245 0
M  V30 7 C 0.2904 -0.5515 1.3033 0
M  V30 8 C 2.6387 0.2705 0.8827 0
M  V30 9 C -2.0862 -0.4986 0.6463 0
M  V30 10 C -0.6403 -0.6868 -3.336 0
M  V30 11 C -1.6079 1.1482 -2.0972 0
M  V30 12 O 0.1793 -0.5505 2.521 0
M  V30 13 C 3.3885 -0.0302 2.1847 0
M  V30 14 C -2.9219 -1.3598 -0.0763 0
M  V30 15 C -2.6306 0.2631 1.6876 0
M  V30 16 C -1.2679 -0.236 -4.5009 0
M  V30 17 C -2.2381 1.597 -3.26 0
M  V30 18 C 4.4561 1.0277 2.4663 0
M  V30 19 C -4.2825 -1.4453 0.2285 0
M  V30 20 C -3.9907 0.1749 1.9926 0
M  V30 21 C -2.0639 0.9028 -4.4508 0
M  V30 22 C 5.2048 0.7339 3.7567 0
M  V30 23 C -4.8162 -0.6768 1.2614 0
M  V30 24 O -2.6945 1.3788 -5.5611 0
M  V30 25 H 1.9358 -1.8052 0.7771 0
M  V30 26 H 3.3699 0.3314 0.0668 0
M  V30 27 H 2.1686 1.2603 0.953 0
M  V30 28 H -0.0169 -1.577 -3.3851 0
M  V30 29 H -1.7446 1.7134 -1.1792 0
M  V30 30 H 3.8615 -1.0174 2.1149 0
M  V30 31 H 2.6864 -0.0671 3.025 0
M  V30 32 H -2.5264 -1.9783 -0.8773 0
M  V30 33 H -2.0024 0.9319 2.2719 0
M  V30 34 H -1.1206 -0.7818 -5.4274 0
M  V30 35 H -2.8593 2.4882 -3.2362 0
M  V30 36 H 5.1714 1.0657 1.6366 0
M  V30 37 H 3.9896 2.0172 2.5386 0
M  V30 38 H -4.9249 -2.114 -0.3388 0
M  V30 39 H -4.4037 0.7694 2.8039 0
M  V30 40 H 5.9629 1.5022 3.9384 0
M  V30 41 H 4.522 0.7214 4.6124 0
M  V30 42 H 5.7094 -0.236 3.7052 0
M  V30 43 H -5.8747 -0.7455 1.4999 0
M  V30 44 H -2.4592 0.8174 -6.318 0
M  V30 END ATOM
M  V30 BEGIN BOND
M  V30 1 2 1 2
M  V30 2 1 2 3
M  V30 3 1 2 4
M  V30 4 1 3 5
M  V30 5 1 3 6
M  V30 6 1 4 7
M  V30 7 1 4 8
M  V30 8 1 5 9
M  V30 9 2 6 10
M  V30 10 1 6 11
M  V30 11 2 7 12
M  V30 12 1 8 13
M  V30 13 2 9 14
M  V30 14 1 9 15
M  V30 15 1 10 16
M  V30 16 2 11 17
M  V30 17 1 13 18
M  V30 18 1 14 19
M  V30 19 2 15 20
M  V30 20 2 16 21
M  V30 21 1 18 22
M  V30 22 2 19 23
M  V30 23 1 21 24
M  V30 24 1 5 7
M  V30 25 1 17 21
M  V30 26 1 20 23
M  V30 27 1 4 25
M  V30 28 1 8 26
M  V30 29 1 8 27
M  V30 30 1 10 28
M  V30 31 1 11 29
M  V30 32 1 13 30
M  V30 33 1 13 31
M  V30 34 1 14 32
M  V30 35 1 15 33
M  V30 36 1 16 34
M  V30 37 1 17 35
M  V30 38 1 18 36
M  V30 39 1 18 37
M  V30 40 1 19 38
M  V30 41 1 20 39
M  V30 42 1 22 40
M  V30 43 1 22 41
M  V30 44 1 22 42
M  V30 45 1 23 43
M  V30 46 1 24 44
M  V30 END BOND
M  V30 BEGIN COLLECTION
M  V30 MDLV30/STERAC1 ATOMS=(1 4)
M  V30 END COLLECTION
M  V30 END CTAB
M  END
>  <Column 1>
3028

>  <level_0>
5179

>  <index>
5180

>  <Unnamed: 0>
5180

>  <NO.>
5192

>  <Name>
oxyphenbutazone

>  <IUPAC_name>
4-butyl-1-(4-hydroxyphenyl)-2-phenylpyrazolidine-3-5-dione

>  <SMILES>
CCCCC1C(=O)N(c2ccccc2)N(c2ccc(O)cc2)C1=O

>  <CID>
4641

>  <logBB>


>  <BBB+/BBB->
BBB-

>  <Inchi>
InChI=1S/C19H20N2O3/c1-2-3-9-17-18(23)20(14-7-5-4-6-8-14)21(19(17)24)15-10-12-16(22)13-11-15/h4-8-10-13-17-22H-2-3-9H2-1H3

>  <threshold>


>  <reference>
R14|

>  <group>
C

>  <Class>
-1

>  <ABC>
18.43

>  <ABCGG>
15.55

>  <nAcid>
0

>  <nBase>
0

>  <nAromAtom>
12

>  <nAromBond>
12

>  <nAtom>
44

>  <nHeavyAtom>
24

>  <nSpiro>
0

>  <nBridgehead>
0

>  <nHetero>
5

>  <nN>
2

>  <nO>
3

>  <nF>
0

>  <BalabanJ>
1.77

>  <BertzCT>
728.04

>  <nBonds>
46

>  <nBondsO>
26

>  <nBondsS>
32

>  <nBondsD>
2

>  <nBondsT>
0

>  <nBondsA>
12

>  <nBondsM>
14

>  <nBondsKS>
38

>  <nBondsKD>
8

>  <RNCG>
0.25

>  <RPCG>
0.14

>  <FCSP3>
0.26

>  <SZ>
28.67

>  <Sm>
27.01

>  <Sv>
28.08

>  <Sse>
44.2

>  <Sp>
29.74

>  <Si>
49.36

>  <MZ>
0.65

>  <Mm>
0.61

>  <Mv>
0.64

>  <Mse>
1

>  <Mp>
0.68

>  <Mi>
1.12

>  <NsCH3>
1

>  <NdCH2>
0

>  <NssCH2>
3

>  <NtCH>
0

>  <NdsCH>
0

>  <NaaCH>
9

>  <NsssCH>
1

>  <NddC>
0

>  <NtsC>
0

>  <NdssC>
2

>  <NaasC>
3

>  <NaaaC>
0

>  <NssssC>
0

>  <NsNH3>
0

>  <NsNH2>
0

>  <NssNH2>
0

>  <NdNH>
0

>  <NssNH>
0

>  <NaaNH>
0

>  <NtN>
0

>  <NsssNH>
0

>  <NdsN>
0

>  <NaaN>
0

>  <NsssN>
2

>  <NddsN>
0

>  <NaasN>
0

>  <NssssN>
0

>  <NsOH>
1

>  <NdO>
2

>  <NssO>
0

>  <NaaO>
0

>  <NsF>
0

>  <NsSiH3>
0

>  <NssSiH2>
0

>  <NsssSiH>
0

>  <NssssSi>
0

>  <NsPH2>
0

>  <NssPH>
0

>  <NsssP>
0

>  <NdsssP>
0

>  <NsssssP>
0

>  <NsSH>
0

>  <NdS>
0

>  <NssS>
0

>  <NaaS>
0

>  <NdssS>
0

>  <NddssS>
0

>  <NsCl>
0

>  <NsBr>
0

>  <NsI>
0

>  <fragCpx>
124.05

>  <fMF>
0.39

>  <nHBAcc>
3

>  <nHBDon>
1

>  <Kier1>
18.78

>  <Kier2>
8.59

>  <Lipinski>
1

>  <GhoseFilter>
1

>  <FilterItLogS>
-3.61

>  <VMcGowan>
249.16

>  <LabuteASA>
140.64

>  <PEOE_VSA1>
5.11

>  <PEOE_VSA2>
9.59

>  <PEOE_VSA3>
10.02

>  <PEOE_VSA4>
0

>  <PEOE_VSA5>
0

>  <PEOE_VSA6>
37.96

>  <PEOE_VSA7>
42.82

>  <PEOE_VSA8>
0

>  <PEOE_VSA9>
11.37

>  <PEOE_VSA10>
11.67

>  <PEOE_VSA11>
0

>  <PEOE_VSA12>
0

>  <PEOE_VSA13>
11.81

>  <SMR_VSA1>
14.7

>  <SMR_VSA2>
0

>  <SMR_VSA3>
0

>  <SMR_VSA4>
5.92

>  <SMR_VSA5>
26.19

>  <SMR_VSA6>
10.02

>  <SMR_VSA7>
54.6

>  <SMR_VSA8>
0

>  <SMR_VSA9>
5.75

>  <SlogP_VSA1>
10.02

>  <SlogP_VSA2>
16.92

>  <SlogP_VSA3>
9.59

>  <SlogP_VSA4>
5.92

>  <SlogP_VSA5>
26.19

>  <SlogP_VSA6>
54.6

>  <SlogP_VSA7>
0

>  <SlogP_VSA8>
0

>  <SlogP_VSA9>
0

>  <SlogP_VSA10>
11.37

>  <SlogP_VSA11>
5.75

>  <EState_VSA1>
5.92

>  <EState_VSA2>
17.56

>  <EState_VSA3>
17.8

>  <EState_VSA4>
12.84

>  <EState_VSA5>
22.15

>  <EState_VSA6>
24.27

>  <EState_VSA7>
25.12

>  <EState_VSA8>
0

>  <EState_VSA9>
0

>  <EState_VSA10>
14.7

>  <VSA_EState1>
0

>  <VSA_EState2>
25.78

>  <VSA_EState3>
12.34

>  <VSA_EState4>
1.22

>  <VSA_EState5>
-0.96

>  <VSA_EState6>
15.44

>  <VSA_EState7>
2.31

>  <VSA_EState8>
2.04

>  <VSA_EState9>
0

>  <apol>
49.67

>  <bpol>
24.08

>  <nRing>
3

>  <nHRing>
1

>  <naRing>
2

>  <naHRing>
0

>  <nARing 2>
1

>  <nAHRing 2>
1

>  <nFRing>
0

>  <nFHRing>
0

>  <nFaRing>
0

>  <nFaHRing>
0

>  <nFARing 2>
0

>  <nFAHRing 2>
0

>  <nRot>
5

>  <SLogP>
3.49

>  <SMR>
92.54

>  <TopoPSA(NO)>
60.85

>  <TopoPSA>
60.85

>  <JGI1>
0.13

>  <JGI2>
0.07

>  <JGI3>
0.07

>  <JGI4>
0.05

>  <JGI5>
0.03

>  <Diameter>
11

>  <Radius>
6

>  <TMWC10>
125.77

>  <TSRW10>
73.16

>  <MW>
324.15

>  <AMW>
7.37

>  <WPath>
1259

>  <WPol>
39

>  <Zagreb1>
124

>  <Zagreb2>
148

>  <mZagreb2>
5.44

>  <yes>


>  <nAR-cont>
0.816016

>  <nHA-cont>
0.94700071

>  <MWHBN>
0.2221708

>  <MWHBN-cont>
0.9935013

>  <TPSA-cont>
0.575229214

>  <pka_cont>
0.97

>  <yes.1>


>  <BBB_SCORE>
4.888727088

>  <MMFF94 Energy>
39.244

$$$$
Compound 2454
Actelion Java MolfileCreator 2.0

  0  0  0  0  0  0              0 V3000
M  V30 BEGIN CTAB
M  V30 COUNTS 42 41 0 0 0
M  V30 BEGIN ATOM
M  V30 1 P -0.0803 -2.0919 -3.5422 0
M  V30 2 O 0.2745 -2.8442 -4.7843 0
M  V30 3 O -1.6526 -2.2365 -3.2407 0
M  V30 4 O 0.5171 -2.8046 -2.2371 0
M  V30 5 C 0.3032 -0.3186 -3.4928 0
M  V30 6 P 2.0646 0.1282 -3.6579 0
M  V30 7 O -0.3237 0.2317 -4.7027 0
M  V30 8 C -0.3439 0.4359 -2.3211 0
M  V30 9 O 2.5246 1.4642 -3.1727 0
M  V30 10 O 2.3845 -0.042 -5.2257 0
M  V30 11 O 2.9533 -1.0518 -3.0443 0
M  V30 12 C 0.1997 0.0099 -0.9525 0
M  V30 13 N -0.2664 0.8949 0.1354 0
M  V30 14 C -0.1274 0.2032 1.434 0
M  V30 15 C 0.4797 2.1611 0.131 0
M  V30 16 C -0.8014 0.947 2.5965 0
M  V30 17 C -0.7647 0.1119 3.8802 0
M  V30 18 C -1.4297 0.849 5.0427 0
M  V30 19 C -1.3961 0.0226 6.3185 0
M  V30 20 H -2.0153 -3.1008 -3.5072 0
M  V30 21 H 0.5207 -3.7775 -2.3071 0
M  V30 22 H 0.2092 -0.1125 -5.4517 0
M  V30 23 H -0.1928 1.5075 -2.4911 0
M  V30 24 H -1.4318 0.2913 -2.3415 0
M  V30 25 H 3.2262 0.3781 -5.487 0
M  V30 26 H 3.897 -0.8193 -2.956 0
M  V30 27 H -0.1788 -0.9996 -0.7635 0
M  V30 28 H 1.2939 -0.0539 -0.9511 0
M  V30 29 H 0.9305 0.0237 1.6665 0
M  V30 30 H -0.6085 -0.781 1.3627 0
M  V30 31 H 0.0717 2.8624 0.8655 0
M  V30 32 H 1.5435 2.0109 0.3481 0
M  V30 33 H 0.4003 2.6766 -0.8303 0
M  V30 34 H -1.8435 1.1713 2.3367 0
M  V30 35 H -0.2978 1.9013 2.7864 0
M  V30 36 H 0.2761 -0.1185 4.1381 0
M  V30 37 H -1.2757 -0.844 3.7124 0
M  V30 38 H -0.92 1.8035 5.2192 0
M  V30 39 H -2.4715 1.0791 4.7907 0
M  V30 40 H -1.8766 0.5685 7.1366 0
M  V30 41 H -1.9261 -0.9259 6.1857 0
M  V30 42 H -0.3659 -0.1977 6.6162 0
M  V30 END ATOM
M  V30 BEGIN BOND
M  V30 1 2 1 2
M  V30 2 1 1 3
M  V30 3 1 1 4
M  V30 4 1 1 5
M  V30 5 1 5 6
M  V30 6 1 5 7
M  V30 7 1 5 8
M  V30 8 2 6 9
M  V30 9 1 6 10
M  V30 10 1 6 11
M  V30 11 1 8 12
M  V30 12 1 12 13
M  V30 13 1 13 14
M  V30 14 1 13 15
M  V30 15 1 14 16
M  V30 16 1 16 17
M  V30 17 1 17 18
M  V30 18 1 18 19
M  V30 19 1 3 20
M  V30 20 1 4 21
M  V30 21 1 7 22
M  V30 22 1 8 23
M  V30 23 1 8 24
M  V30 24 1 10 25
M  V30 25 1 11 26
M  V30 26 1 12 27
M  V30 27 1 12 28
M  V30 28 1 14 29
M  V30 29 1 14 30
M  V30 30 1 15 31
M  V30 31 1 15 32
M  V30 32 1 15 33
M  V30 33 1 16 34
M  V30 34 1 16 35
M  V30 35 1 17 36
M  V30 36 1 17 37
M  V30 37 1 18 38
M  V30 38 1 18 39
M  V30 39 1 19 40
M  V30 40 1 19 41
M  V30 41 1 19 42
M  V30 END BOND
M  V30 END CTAB
M  END
>  <Column 1>
3033

>  <level_0>
5184

>  <index>
5185

>  <Unnamed: 0>
5185

>  <NO.>
5197

>  <Name>
ibandronate

>  <IUPAC_name>
[1-hydroxy-3-[methyl(pentyl)amino]-1-phosphonopropyl]phosphonic acid

>  <SMILES>
CCCCCN(C)CCC(O)(P(=O)(O)O)P(=O)(O)O

>  <CID>
60852

>  <logBB>


>  <BBB+/BBB->
BBB-

>  <Inchi>
InChI=1S/C9H23NO7P2/c1-3-4-5-7-10(2)8-6-9(11-18(12-13)14)19(15-16)17/h11H-3-8H2-1-2H3-(H2-12-13-14)(H2-15-16-17)

>  <threshold>


>  <reference>
R14|

>  <group>
C

>  <Class>
-1

>  <ABC>
13.76

>  <ABCGG>
13.46

>  <nAcid>
4

>  <nBase>
1

>  <nAromAtom>
0

>  <nAromBond>
0

>  <nAtom>
42

>  <nHeavyAtom>
19

>  <nSpiro>
0

>  <nBridgehead>
0

>  <nHetero>
10

>  <nN>
1

>  <nO>
7

>  <nF>
0

>  <BalabanJ>
4.54

>  <BertzCT>
341.58

>  <nBonds>
41

>  <nBondsO>
18

>  <nBondsS>
39

>  <nBondsD>
2

>  <nBondsT>
0

>  <nBondsA>
0

>  <nBondsM>
2

>  <nBondsKS>
39

>  <nBondsKD>
2

>  <RNCG>
0.14

>  <RPCG>
0.14

>  <FCSP3>
1

>  <SZ>
28.33

>  <Sm>
26.58

>  <Sv>
23.37

>  <Sse>
43.02

>  <Sp>
26.55

>  <Si>
48.39

>  <MZ>
0.67

>  <Mm>
0.63

>  <Mv>
0.56

>  <Mse>
1.02

>  <Mp>
0.63

>  <Mi>
1.15

>  <NsCH3>
2

>  <NdCH2>
0

>  <NssCH2>
6

>  <NtCH>
0

>  <NdsCH>
0

>  <NaaCH>
0

>  <NsssCH>
0

>  <NddC>
0

>  <NtsC>
0

>  <NdssC>
0

>  <NaasC>
0

>  <NaaaC>
0

>  <NssssC>
1

>  <NsNH3>
0

>  <NsNH2>
0

>  <NssNH2>
0

>  <NdNH>
0

>  <NssNH>
0

>  <NaaNH>
0

>  <NtN>
0

>  <NsssNH>
0

>  <NdsN>
0

>  <NaaN>
0

>  <NsssN>
1

>  <NddsN>
0

>  <NaasN>
0

>  <NssssN>
0

>  <NsOH>
5

>  <NdO>
2

>  <NssO>
0

>  <NaaO>
0

>  <NsF>
0

>  <NsSiH3>
0

>  <NssSiH2>
0

>  <NsssSiH>
0

>  <NssssSi>
0

>  <NsPH2>
0

>  <NssPH>
0

>  <NsssP>
0

>  <NdsssP>
2

>  <NsssssP>
0

>  <NsSH>
0

>  <NdS>
0

>  <NssS>
0

>  <NaaS>
0

>  <NdssS>
0

>  <NddssS>
0

>  <NsCl>
0

>  <NsBr>
0

>  <NsI>
0

>  <fragCpx>
18.1

>  <fMF>
0

>  <nHBAcc>
4

>  <nHBDon>
5

>  <Kier1>
19

>  <Kier2>
7.14

>  <Lipinski>
1

>  <GhoseFilter>
1

>  <FilterItLogS>
0.39

>  <VMcGowan>
229.66

>  <LabuteASA>
112.32

>  <PEOE_VSA1>
29.58

>  <PEOE_VSA2>
9.13

>  <PEOE_VSA3>
0

>  <PEOE_VSA4>
0

>  <PEOE_VSA5>
0

>  <PEOE_VSA6>
19.77

>  <PEOE_VSA7>
20.01

>  <PEOE_VSA8>
12.97

>  <PEOE_VSA9>
0

>  <PEOE_VSA10>
0

>  <PEOE_VSA11>
0

>  <PEOE_VSA12>
0

>  <PEOE_VSA13>
5.08

>  <SMR_VSA1>
33.81

>  <SMR_VSA2>
0

>  <SMR_VSA3>
4.9

>  <SMR_VSA4>
0

>  <SMR_VSA5>
37.69

>  <SMR_VSA6>
20.14

>  <SMR_VSA7>
0

>  <SMR_VSA8>
0

>  <SMR_VSA9>
0

>  <SlogP_VSA1>
0

>  <SlogP_VSA2>
54.8

>  <SlogP_VSA3>
9.13

>  <SlogP_VSA4>
0

>  <SlogP_VSA5>
32.61

>  <SlogP_VSA6>
0

>  <SlogP_VSA7>
0

>  <SlogP_VSA8>
0

>  <SlogP_VSA9>
0

>  <SlogP_VSA10>
0

>  <SlogP_VSA11>
0

>  <EState_VSA1>
26.7

>  <EState_VSA2>
6.54

>  <EState_VSA3>
6.54

>  <EState_VSA4>
19.26

>  <EState_VSA5>
0

>  <EState_VSA6>
11.95

>  <EState_VSA7>
6.92

>  <EState_VSA8>
0

>  <EState_VSA9>
19.57

>  <EState_VSA10>
14.24

>  <VSA_EState1>
22.21

>  <VSA_EState2>
37.47

>  <VSA_EState3>
6.35

>  <VSA_EState4>
0

>  <VSA_EState5>
0

>  <VSA_EState6>
0

>  <VSA_EState7>
2.19

>  <VSA_EState8>
2.64

>  <VSA_EState9>
-9

>  <apol>
44.34

>  <bpol>
42.2

>  <nRing>
0

>  <nHRing>
0

>  <naRing>
0

>  <naHRing>
0

>  <nARing 2>
0

>  <nAHRing 2>
0

>  <nFRing>
0

>  <nFHRing>
0

>  <nFaRing>
0

>  <nFaHRing>
0

>  <nFARing 2>
0

>  <nFAHRing 2>
0

>  <nRot>
9

>  <SLogP>
0.5

>  <SMR>
70.68

>  <TopoPSA(NO)>
138.53

>  <TopoPSA>
158.15

>  <JGI1>
0.39

>  <JGI2>
0.15

>  <JGI3>
0.07

>  <JGI4>
0.03

>  <JGI5>
0.05

>  <Diameter>
10

>  <Radius>
5

>  <TMWC10>
108.8

>  <TSRW10>
52.26

>  <MW>
319.09

>  <AMW>
7.6

>  <WPath>
756

>  <WPol>
29

>  <Zagreb1>
90

>  <Zagreb2>
101

>  <mZagreb2>
4.17

>  <yes>


>  <nAR-cont>
0.336376

>  <nHA-cont>
0.998649058

>  <MWHBN>
0.503832191

>  <MWHBN-cont>
0

>  <TPSA-cont>
0

>  <pka_cont>
0.97

>  <yes.1>


>  <BBB_SCORE>
1.820025058

>  <MMFF94 Energy>
-159.92

$$$$
Compound 2455
Actelion Java MolfileCreator 2.0

  0  0  0  0  0  0              0 V3000
M  V30 BEGIN CTAB
M  V30 COUNTS 47 48 0 0 0
M  V30 BEGIN ATOM
M  V30 1 F -1.8218 1.4256 -0.2374 0
M  V30 2 C -0.5244 1.3677 -0.5819 0
M  V30 3 C 0.4617 0.9027 0.4052 0
M  V30 4 C -0.0479 1.7024 -1.7758 0
M  V30 5 N 1.725 0.8121 0.1778 0
M  V30 6 N -0.1085 0.5667 1.6147 0
M  V30 7 N 1.3065 1.6121 -2.0394 0
M  V30 8 C 2.2152 1.1752 -1.057 0
M  V30 9 C 0.5128 0.0917 2.7399 0
M  V30 10 C 1.8776 1.9934 -3.3344 0
M  V30 11 O 3.4157 1.1049 -1.3035 0
M  V30 12 O 1.6964 -0.1507 2.9025 0
M  V30 13 O -0.4399 -0.085 3.6964 0
M  V30 14 O 0.8774 2.6808 -4.1341 0
M  V30 15 C 2.3703 0.7921 -4.1693 0
M  V30 16 C 0.0613 -0.5921 4.9409 0
M  V30 17 C 0.7498 1.977 -5.3802 0
M  V30 18 O 3.5139 1.1479 -4.9663 0
M  V30 19 C 1.1892 0.5464 -5.0919 0
M  V30 20 C -1.1031 -0.7784 5.9114 0
M  V30 21 C -0.682 2.0754 -5.8758 0
M  V30 22 O 1.5831 -0.1789 -6.2511 0
M  V30 23 C -2.2127 -1.7072 5.405 0
M  V30 24 C -1.7427 -3.1438 5.1748 0
M  V30 25 C -2.9012 -4.0506 4.7877 0
M  V30 26 H -0.7103 2.0629 -2.5539 0
M  V30 27 H -1.1061 0.6755 1.7262 0
M  V30 28 H 2.6936 2.704 -3.1547 0
M  V30 29 H 2.6446 -0.0908 -3.5855 0
M  V30 30 H 0.7679 0.1309 5.3655 0
M  V30 31 H 0.5825 -1.5417 4.7773 0
M  V30 32 H 1.4104 2.4535 -6.1153 0
M  V30 33 H 3.526 0.4966 -5.6967 0
M  V30 34 H 0.4102 -0.0129 -4.5598 0
M  V30 35 H -0.7197 -1.1487 6.8693 0
M  V30 36 H -1.5568 0.2021 6.1029 0
M  V30 37 H -1.3817 1.6589 -5.1429 0
M  V30 38 H -0.8128 1.5482 -6.8253 0
M  V30 39 H -0.9644 3.1244 -6.0157 0
M  V30 40 H 0.7976 -0.2858 -6.8167 0
M  V30 41 H -2.6429 -1.306 4.4794 0
M  V30 42 H -3.0202 -1.7083 6.1481 0
M  V30 43 H -0.9928 -3.1756 4.3772 0
M  V30 44 H -1.2704 -3.5322 6.0844 0
M  V30 45 H -2.5442 -5.0722 4.6238 0
M  V30 46 H -3.659 -4.0786 5.5774 0
M  V30 47 H -3.3784 -3.7049 3.8651 0
M  V30 END ATOM
M  V30 BEGIN BOND
M  V30 1 1 1 2
M  V30 2 1 2 3
M  V30 3 2 2 4
M  V30 4 2 3 5
M  V30 5 1 3 6
M  V30 6 1 4 7
M  V30 7 1 5 8
M  V30 8 1 6 9
M  V30 9 1 7 10
M  V30 10 2 8 11
M  V30 11 2 9 12
M  V30 12 1 9 13
M  V30 13 1 10 14
M  V30 14 1 10 15
M  V30 15 1 13 16
M  V30 16 1 14 17
M  V30 17 1 15 18
M  V30 18 1 15 19
M  V30 19 1 16 20
M  V30 20 1 17 21
M  V30 21 1 19 22
M  V30 22 1 20 23
M  V30 23 1 23 24
M  V30 24 1 24 25
M  V30 25 1 7 8
M  V30 26 1 17 19
M  V30 27 1 4 26
M  V30 28 1 6 27
M  V30 29 1 10 28
M  V30 30 1 15 29
M  V30 31 1 16 30
M  V30 32 1 16 31
M  V30 33 1 17 32
M  V30 34 1 18 33
M  V30 35 1 19 34
M  V30 36 1 20 35
M  V30 37 1 20 36
M  V30 38 1 21 37
M  V30 39 1 21 38
M  V30 40 1 21 39
M  V30 41 1 22 40
M  V30 42 1 23 41
M  V30 43 1 23 42
M  V30 44 1 24 43
M  V30 45 1 24 44
M  V30 46 1 25 45
M  V30 47 1 25 46
M  V30 48 1 25 47
M  V30 END BOND
M  V30 END CTAB
M  END
>  <Column 1>
3034

>  <level_0>
5185

>  <index>
5186

>  <Unnamed: 0>
5186

>  <NO.>
5198

>  <Name>
pentyl [1-(3-4-dihydroxy-5-methyl-oxolan-2-yl)-5-fluoro-2-oxo-pyrimidin-4-yl]aminoformate

>  <IUPAC_name>
pentyl n-[1-(3-4-dihydroxy-5-methyloxolan-2-yl)-5-fluoro-2-oxopyrimidin-4-yl]carbamate

>  <SMILES>
CCCCCOC(=O)Nc1nc(=O)n(C2OC(C)C(O)C2O)cc1F

>  <CID>
400633

>  <logBB>


>  <BBB+/BBB->
BBB-

>  <Inchi>
InChI=1S/C15H22FN3O6/c1-3-4-5-6-24-15(23)18-12-9(16)7-19(14(22)17-12)13-11(21)10(20)8(2)25-13/h7-8-10-11-13-20-21H-3-6H2-1-2H3-(H-17-18-22-23)

>  <threshold>


>  <reference>
R14|

>  <group>
C

>  <Class>
-1

>  <ABC>
18.8

>  <ABCGG>
15.94

>  <nAcid>
0

>  <nBase>
0

>  <nAromAtom>
6

>  <nAromBond>
6

>  <nAtom>
47

>  <nHeavyAtom>
25

>  <nSpiro>
0

>  <nBridgehead>
0

>  <nHetero>
10

>  <nN>
3

>  <nO>
6

>  <nF>
1

>  <BalabanJ>
1.83

>  <BertzCT>
667.16

>  <nBonds>
48

>  <nBondsO>
26

>  <nBondsS>
40

>  <nBondsD>
2

>  <nBondsT>
0

>  <nBondsA>
6

>  <nBondsM>
8

>  <nBondsKS>
44

>  <nBondsKD>
4

>  <RNCG>
0.14

>  <RPCG>
0.13

>  <FCSP3>
0.67

>  <SZ>
31.67

>  <Sm>
29.92

>  <Sv>
28.17

>  <Sse>
48.7

>  <Sp>
28.98

>  <Si>
54.24

>  <MZ>
0.67

>  <Mm>
0.64

>  <Mv>
0.6

>  <Mse>
1.04

>  <Mp>
0.62

>  <Mi>
1.15

>  <NsCH3>
2

>  <NdCH2>
0

>  <NssCH2>
4

>  <NtCH>
0

>  <NdsCH>
0

>  <NaaCH>
1

>  <NsssCH>
4

>  <NddC>
0

>  <NtsC>
0

>  <NdssC>
1

>  <NaasC>
2

>  <NaaaC>
0

>  <NssssC>
0

>  <NsNH3>
0

>  <NsNH2>
0

>  <NssNH2>
0

>  <NdNH>
0

>  <NssNH>
1

>  <NaaNH>
0

>  <NtN>
0

>  <NsssNH>
0

>  <NdsN>
0

>  <NaaN>
1

>  <NsssN>
0

>  <NddsN>
0

>  <NaasN>
1

>  <NssssN>
0

>  <NsOH>
2

>  <NdO>
2

>  <NssO>
2

>  <NaaO>
0

>  <NsF>
1

>  <NsSiH3>
0

>  <NssSiH2>
0

>  <NsssSiH>
0

>  <NssssSi>
0

>  <NsPH2>
0

>  <NssPH>
0

>  <NsssP>
0

>  <NdsssP>
0

>  <NsssssP>
0

>  <NsSH>
0

>  <NdS>
0

>  <NssS>
0

>  <NaaS>
0

>  <NdssS>
0

>  <NddssS>
0

>  <NsCl>
0

>  <NsBr>
0

>  <NsI>
0

>  <fragCpx>
76.1

>  <fMF>
0.23

>  <nHBAcc>
8

>  <nHBDon>
3

>  <Kier1>
21.3

>  <Kier2>
9.8

>  <Lipinski>
1

>  <GhoseFilter>
1

>  <FilterItLogS>
-1.73

>  <VMcGowan>
250.21

>  <LabuteASA>
142.94

>  <PEOE_VSA1>
19.69

>  <PEOE_VSA2>
9.88

>  <PEOE_VSA3>
13.98

>  <PEOE_VSA4>
4.98

>  <PEOE_VSA5>
0

>  <PEOE_VSA6>
19.77

>  <PEOE_VSA7>
13.34

>  <PEOE_VSA8>
0

>  <PEOE_VSA9>
18.91

>  <PEOE_VSA10>
12.21

>  <PEOE_VSA11>
17.86

>  <PEOE_VSA12>
0

>  <PEOE_VSA13>
0

>  <SMR_VSA1>
28.87

>  <SMR_VSA2>
0

>  <SMR_VSA3>
9.55

>  <SMR_VSA4>
0

>  <SMR_VSA5>
57.65

>  <SMR_VSA6>
11.92

>  <SMR_VSA7>
22.5

>  <SMR_VSA8>
0

>  <SMR_VSA9>
0

>  <SlogP_VSA1>
11.01

>  <SlogP_VSA2>
50.78

>  <SlogP_VSA3>
9.47

>  <SlogP_VSA4>
5.82

>  <SlogP_VSA5>
39.34

>  <SlogP_VSA6>
10.99

>  <SlogP_VSA7>
0

>  <SlogP_VSA8>
0

>  <SlogP_VSA9>
0

>  <SlogP_VSA10>
15

>  <SlogP_VSA11>
0

>  <EState_VSA1>
47.96

>  <EState_VSA2>
6.61

>  <EState_VSA3>
6.42

>  <EState_VSA4>
23.61

>  <EState_VSA5>
6.92

>  <EState_VSA6>
0

>  <EState_VSA7>
6.92

>  <EState_VSA8>
10.3

>  <EState_VSA9>
9.47

>  <EState_VSA10>
24.19

>  <VSA_EState1>
24.95

>  <VSA_EState2>
27.04

>  <VSA_EState3>
21.61

>  <VSA_EState4>
-0.95

>  <VSA_EState5>
-1.59

>  <VSA_EState6>
0

>  <VSA_EState7>
-2.25

>  <VSA_EState8>
3.68

>  <VSA_EState9>
0

>  <apol>
48.39

>  <bpol>
31.81

>  <nRing>
2

>  <nHRing>
2

>  <naRing>
1

>  <naHRing>
1

>  <nARing 2>
1

>  <nAHRing 2>
1

>  <nFRing>
0

>  <nFHRing>
0

>  <nFaRing>
0

>  <nFaHRing>
0

>  <nFARing 2>
0

>  <nFAHRing 2>
0

>  <nRot>
6

>  <SLogP>
0.76

>  <SMR>
84.55

>  <TopoPSA(NO)>
122.91

>  <TopoPSA>
122.91

>  <JGI1>
0.21

>  <JGI2>
0.09

>  <JGI3>
0.06

>  <JGI4>
0.05

>  <JGI5>
0.03

>  <Diameter>
15

>  <Radius>
8

>  <TMWC10>
125.79

>  <TSRW10>
73.65

>  <MW>
359.15

>  <AMW>
7.64

>  <WPath>
1686

>  <WPol>
38

>  <Zagreb1>
124

>  <Zagreb2>
144

>  <mZagreb2>
5.67

>  <yes>


>  <nAR-cont>
0.816016

>  <nHA-cont>
0.921834225

>  <MWHBN>
0.580436547

>  <MWHBN-cont>
0

>  <TPSA-cont>
0

>  <pka_cont>
0.97

>  <yes.1>


>  <BBB_SCORE>
2.222850225

>  <MMFF94 Energy>
-37.746

$$$$
Compound 2456
Actelion Java MolfileCreator 2.0

  0  0  0  0  0  0              0 V3000
M  V30 BEGIN CTAB
M  V30 COUNTS 54 56 0 0 0
M  V30 BEGIN ATOM
M  V30 1 S 0.881 -0.8009 2.645 0
M  V30 2 C 1.812 0.6372 2.6965 0
M  V30 3 C 2.2706 -1.7831 2.8075 0
M  V30 4 C 3.1581 0.3613 2.8435 0
M  V30 5 C 1.1374 1.9814 2.6059 0
M  V30 6 C 3.4233 -1.0369 2.9005 0
M  V30 7 C 1.3063 2.6946 1.2835 0
M  V30 8 C 2.5836 3.4406 1.1587 0
M  V30 9 C 0.4331 2.7329 0.2567 0
M  V30 10 O 3.3423 3.7096 2.0735 0
M  V30 11 O 2.8885 3.8016 -0.1013 0
M  V30 12 C -0.8062 2.0489 0.2469 0
M  V30 13 N -1.1347 1.1668 -0.769 0
M  V30 14 C -1.9175 2.0648 1.0619 0
M  V30 15 C -2.4237 0.7182 -0.5295 0
M  V30 16 C -0.3132 0.815 -1.9245 0
M  V30 17 N -2.8994 1.2481 0.5794 0
M  V30 18 C -3.1682 -0.2181 -1.4327 0
M  V30 19 C 0.8429 -0.09 -1.5684 0
M  V30 20 C -4.5174 -0.6501 -0.852 0
M  V30 21 C 2.1608 0.3903 -1.6182 0
M  V30 22 C 0.6258 -1.4222 -1.1861 0
M  V30 23 C -5.2432 -1.6129 -1.792 0
M  V30 24 C 3.2341 -0.4347 -1.2725 0
M  V30 25 C 1.6992 -2.2524 -0.8494 0
M  V30 26 C -6.5842 -2.0449 -1.2202 0
M  V30 27 C 3.0069 -1.7584 -0.8832 0
M  V30 28 C 4.1738 -2.591 -0.5058 0
M  V30 29 O 5.3371 -2.232 -0.5051 0
M  V30 30 O 3.8321 -3.8425 -0.1492 0
M  V30 31 H 2.175 -2.8599 2.8229 0
M  V30 32 H 3.921 1.129 2.9084 0
M  V30 33 H 0.0771 1.878 2.8597 0
M  V30 34 H 1.5269 2.6145 3.4154 0
M  V30 35 H 4.4097 -1.4713 3.0065 0
M  V30 36 H 0.6791 3.2931 -0.6429 0
M  V30 37 H 3.7493 4.2604 0.0 0
M  V30 38 H -2.0702 2.6411 1.9652 0
M  V30 39 H -0.9387 0.33 -2.6804 0
M  V30 40 H 0.0321 1.7533 -2.3744 0
M  V30 41 H -2.5597 -1.1099 -1.6166 0
M  V30 42 H -3.3318 0.277 -2.3975 0
M  V30 43 H -5.1466 0.2316 -0.6749 0
M  V30 44 H -4.3653 -1.1333 0.1216 0
M  V30 45 H 2.3659 1.4189 -1.9099 0
M  V30 46 H -0.3816 -1.8269 -1.1274 0
M  V30 47 H -5.4046 -1.1332 -2.7644 0
M  V30 48 H -4.6242 -2.5007 -1.9665 0
M  V30 49 H 4.2469 -0.0377 -1.2987 0
M  V30 50 H 1.5006 -3.2763 -0.5423 0
M  V30 51 H -7.0857 -2.7328 -1.9082 0
M  V30 52 H -6.4552 -2.5572 -0.2614 0
M  V30 53 H -7.2402 -1.1825 -1.0638 0
M  V30 54 H 4.6902 -4.2658 0.0624 0
M  V30 END ATOM
M  V30 BEGIN BOND
M  V30 1 1 1 2
M  V30 2 1 1 3
M  V30 3 2 2 4
M  V30 4 1 2 5
M  V30 5 2 3 6
M  V30 6 1 5 7
M  V30 7 1 7 8
M  V30 8 2 7 9
M  V30 9 2 8 10
M  V30 10 1 8 11
M  V30 11 1 9 12
M  V30 12 1 12 13
M  V30 13 2 12 14
M  V30 14 1 13 15
M  V30 15 1 13 16
M  V30 16 1 14 17
M  V30 17 1 15 18
M  V30 18 1 16 19
M  V30 19 1 18 20
M  V30 20 2 19 21
M  V30 21 1 19 22
M  V30 22 1 20 23
M  V30 23 1 21 24
M  V30 24 2 22 25
M  V30 25 1 23 26
M  V30 26 2 24 27
M  V30 27 1 27 28
M  V30 28 2 28 29
M  V30 29 1 28 30
M  V30 30 1 4 6
M  V30 31 2 15 17
M  V30 32 1 25 27
M  V30 33 1 3 31
M  V30 34 1 4 32
M  V30 35 1 5 33
M  V30 36 1 5 34
M  V30 37 1 6 35
M  V30 38 1 9 36
M  V30 39 1 11 37
M  V30 40 1 14 38
M  V30 41 1 16 39
M  V30 42 1 16 40
M  V30 43 1 18 41
M  V30 44 1 18 42
M  V30 45 1 20 43
M  V30 46 1 20 44
M  V30 47 1 21 45
M  V30 48 1 22 46
M  V30 49 1 23 47
M  V30 50 1 23 48
M  V30 51 1 24 49
M  V30 52 1 25 50
M  V30 53 1 26 51
M  V30 54 1 26 52
M  V30 55 1 26 53
M  V30 56 1 30 54
M  V30 END BOND
M  V30 END CTAB
M  END
>  <Column 1>
3037

>  <level_0>
5188

>  <index>
5189

>  <Unnamed: 0>
5189

>  <NO.>
5201

>  <Name>
4-[[2-butyl-5-(2-carboxy-3-thiophen-2-ylprop-1-enyl)-1-imidazolyl]methyl]benzoic acid

>  <IUPAC_name>
4-[[2-butyl-5-(2-carboxy-3-thiophen-2-ylprop-1-enyl)imidazol-1-yl]methyl]benzoic acid

>  <SMILES>
CCCCc1ncc(C=C(Cc2cccs2)C(=O)O)n1Cc1ccc(C(=O)O)cc1

>  <CID>
60879

>  <logBB>


>  <BBB+/BBB->
BBB-

>  <Inchi>
InChI=1S/C23H24N2O4S/c1-2-3-6-21-24-14-19(12-18(23(28)29)13-20-5-4-11-30-20)25(21)15-16-7-9-17(10-8-16)22(26)27/h4-5-7-12-14H-2-3-6-13-15H2-1H3-(H-26-27)(H-28-29)

>  <threshold>


>  <reference>
R14|

>  <group>
C

>  <Class>
-1

>  <ABC>
22.9

>  <ABCGG>
19.18

>  <nAcid>
2

>  <nBase>
0

>  <nAromAtom>
16

>  <nAromBond>
16

>  <nAtom>
54

>  <nHeavyAtom>
30

>  <nSpiro>
0

>  <nBridgehead>
0

>  <nHetero>
7

>  <nN>
2

>  <nO>
4

>  <nF>
0

>  <BalabanJ>
1.59

>  <BertzCT>
1033.85

>  <nBonds>
56

>  <nBondsO>
32

>  <nBondsS>
37

>  <nBondsD>
3

>  <nBondsT>
0

>  <nBondsA>
16

>  <nBondsM>
19

>  <nBondsKS>
46

>  <nBondsKD>
10

>  <RNCG>
0.18

>  <RPCG>
0.12

>  <FCSP3>
0.26

>  <SZ>
37.33

>  <Sm>
35.34

>  <Sv>
35.06

>  <Sse>
54.38

>  <Sp>
37.56

>  <Si>
60.32

>  <MZ>
0.69

>  <Mm>
0.65

>  <Mv>
0.65

>  <Mse>
1.01

>  <Mp>
0.7

>  <Mi>
1.12

>  <NsCH3>
1

>  <NdCH2>
0

>  <NssCH2>
5

>  <NtCH>
0

>  <NdsCH>
1

>  <NaaCH>
8

>  <NsssCH>
0

>  <NddC>
0

>  <NtsC>
0

>  <NdssC>
3

>  <NaasC>
5

>  <NaaaC>
0

>  <NssssC>
0

>  <NsNH3>
0

>  <NsNH2>
0

>  <NssNH2>
0

>  <NdNH>
0

>  <NssNH>
0

>  <NaaNH>
0

>  <NtN>
0

>  <NsssNH>
0

>  <NdsN>
0

>  <NaaN>
1

>  <NsssN>
0

>  <NddsN>
0

>  <NaasN>
1

>  <NssssN>
0

>  <NsOH>
2

>  <NdO>
2

>  <NssO>
0

>  <NaaO>
0

>  <NsF>
0

>  <NsSiH3>
0

>  <NssSiH2>
0

>  <NsssSiH>
0

>  <NssssSi>
0

>  <NsPH2>
0

>  <NssPH>
0

>  <NsssP>
0

>  <NdsssP>
0

>  <NsssssP>
0

>  <NsSH>
0

>  <NdS>
0

>  <NssS>
0

>  <NaaS>
1

>  <NdssS>
0

>  <NddssS>
0

>  <NsCl>
0

>  <NsBr>
0

>  <NsI>
0

>  <fragCpx>
154.07

>  <fMF>
0.37

>  <nHBAcc>
5

>  <nHBDon>
2

>  <Kier1>
24.64

>  <Kier2>
12.3

>  <Lipinski>
1

>  <GhoseFilter>
1

>  <FilterItLogS>
-4.65

>  <VMcGowan>
319.14

>  <LabuteASA>
178.7

>  <PEOE_VSA1>
14.78

>  <PEOE_VSA2>
0

>  <PEOE_VSA3>
14.57

>  <PEOE_VSA4>
0

>  <PEOE_VSA5>
11.34

>  <PEOE_VSA6>
31.54

>  <PEOE_VSA7>
41.64

>  <PEOE_VSA8>
29.84

>  <PEOE_VSA9>
17.45

>  <PEOE_VSA10>
5.82

>  <PEOE_VSA11>
0

>  <PEOE_VSA12>
0

>  <PEOE_VSA13>
0

>  <SMR_VSA1>
19.8

>  <SMR_VSA2>
0

>  <SMR_VSA3>
9.55

>  <SMR_VSA4>
0

>  <SMR_VSA5>
39.15

>  <SMR_VSA6>
0

>  <SMR_VSA7>
81.07

>  <SMR_VSA8>
0

>  <SMR_VSA9>
0

>  <SlogP_VSA1>
0

>  <SlogP_VSA2>
31.7

>  <SlogP_VSA3>
24.18

>  <SlogP_VSA4>
0

>  <SlogP_VSA5>
52.08

>  <SlogP_VSA6>
53.55

>  <SlogP_VSA7>
0

>  <SlogP_VSA8>
6.08

>  <SlogP_VSA9>
0

>  <SlogP_VSA10>
0

>  <SlogP_VSA11>
0

>  <EState_VSA1>
11.94

>  <EState_VSA2>
5.56

>  <EState_VSA3>
18.54

>  <EState_VSA4>
41.22

>  <EState_VSA5>
11.34

>  <EState_VSA6>
36.54

>  <EState_VSA7>
22.08

>  <EState_VSA8>
11.91

>  <EState_VSA9>
5.11

>  <EState_VSA10>
14.7

>  <VSA_EState1>
2.02

>  <VSA_EState2>
28.45

>  <VSA_EState3>
20.73

>  <VSA_EState4>
2.21

>  <VSA_EState5>
-1.01

>  <VSA_EState6>
10.56

>  <VSA_EState7>
6.58

>  <VSA_EState8>
2.61

>  <VSA_EState9>
0

>  <apol>
62.72

>  <bpol>
31.12

>  <nRing>
3

>  <nHRing>
2

>  <naRing>
3

>  <naHRing>
2

>  <nARing 2>
0

>  <nAHRing 2>
0

>  <nFRing>
0

>  <nFHRing>
0

>  <nFaRing>
0

>  <nFaHRing>
0

>  <nFARing 2>
0

>  <nFAHRing 2>
0

>  <nRot>
10

>  <SLogP>
4.74

>  <SMR>
116.98

>  <TopoPSA(NO)>
92.42

>  <TopoPSA>
120.66

>  <JGI1>
0.19

>  <JGI2>
0.07

>  <JGI3>
0.04

>  <JGI4>
0.04

>  <JGI5>
0.02

>  <Diameter>
14

>  <Radius>
7

>  <TMWC10>
137.85

>  <TSRW10>
80.71

>  <MW>
424.15

>  <AMW>
7.85

>  <WPath>
2615

>  <WPol>
41

>  <Zagreb1>
150

>  <Zagreb2>
172

>  <mZagreb2>
6.78

>  <yes>


>  <nAR-cont>
0.336376

>  <nHA-cont>
0.74523694

>  <MWHBN>
0.339889935

>  <MWHBN-cont>
0.707532377

>  <TPSA-cont>
0

>  <pka_cont>
0.97

>  <yes.1>


>  <BBB_SCORE>
2.627911504

>  <MMFF94 Energy>
12.274

$$$$
Compound 2457
Actelion Java MolfileCreator 2.0

  0  0  0  0  0  0              0 V3000
M  V30 BEGIN CTAB
M  V30 COUNTS 50 50 0 0 0
M  V30 BEGIN ATOM
M  V30 1 O 1.8772 -3.0519 -0.0781 0
M  V30 2 C 2.1462 -2.0811 -0.7772 0
M  V30 3 N 1.3516 -0.9618 -0.8332 0
M  V30 4 C 3.3618 -2.0843 -1.639 0
M  V30 5 C 0.1268 -0.8245 -0.0451 0 CFG=2
M  V30 6 C 3.9875 -0.9024 -2.0578 0
M  V30 7 C 3.9033 -3.321 -2.0142 0
M  V30 8 C -0.718 0.2957 -0.6978 0
M  V30 9 C 0.4329 -0.5255 1.4287 0
M  V30 10 C 5.1285 -0.9625 -2.8624 0
M  V30 11 C 5.043 -3.3765 -2.8185 0
M  V30 12 O -0.1565 1.1038 -1.4515 0
M  V30 13 N -2.0747 0.401 -0.4033 0
M  V30 14 C 1.254 0.7492 1.6424 0
M  V30 15 C 5.6524 -2.1973 -3.2445 0
M  V30 16 C -2.8438 -0.5432 0.4186 0
M  V30 17 C -2.8172 1.4996 -1.0309 0
M  V30 18 C 1.4793 1.0071 3.1067 0
M  V30 19 C -3.4138 0.0938 1.6869 0
M  V30 20 C -2.6012 2.8356 -0.3154 0
M  V30 21 O 0.8357 0.5631 4.042 0
M  V30 22 O 2.4974 1.8631 3.3202 0
M  V30 23 C -4.068 -0.9442 2.5848 0
M  V30 24 C -3.3933 3.9516 -0.9772 0
M  V30 25 H 1.5245 -0.2232 -1.5082 0
M  V30 26 H -0.4039 -1.7769 -0.1369 0
M  V30 27 H 3.6199 0.0722 -1.7509 0
M  V30 28 H 3.4352 -4.2455 -1.6813 0
M  V30 29 H -0.5006 -0.4479 1.995 0
M  V30 30 H 0.9775 -1.3711 1.8682 0
M  V30 31 H 5.6141 -0.0445 -3.1852 0
M  V30 32 H 5.4554 -4.3395 -3.1087 0
M  V30 33 H 2.2309 0.6475 1.1571 0
M  V30 34 H 0.7403 1.6229 1.229 0
M  V30 35 H 6.5415 -2.2408 -3.8688 0
M  V30 36 H -3.6571 -0.9313 -0.2067 0
M  V30 37 H -2.2338 -1.4048 0.6919 0
M  V30 38 H -2.4902 1.5877 -2.0743 0
M  V30 39 H -3.8827 1.2427 -1.055 0
M  V30 40 H -2.6204 0.6054 2.2434 0
M  V30 41 H -4.1596 0.8528 1.4256 0
M  V30 42 H -2.8992 2.7589 0.7355 0
M  V30 43 H -1.5378 3.1009 -0.3172 0
M  V30 44 H 2.533 1.9526 4.2956 0
M  V30 45 H -4.4804 -0.4661 3.4789 0
M  V30 46 H -4.8848 -1.454 2.064 0
M  V30 47 H -3.3418 -1.6972 2.9074 0
M  V30 48 H -3.2253 4.8979 -0.4534 0
M  V30 49 H -3.0897 4.0826 -2.0208 0
M  V30 50 H -4.4666 3.7371 -0.955 0
M  V30 END ATOM
M  V30 BEGIN BOND
M  V30 1 2 1 2
M  V30 2 1 2 3
M  V30 3 1 2 4
M  V30 4 1 3 5
M  V30 5 2 4 6
M  V30 6 1 4 7
M  V30 7 1 5 8
M  V30 8 1 5 9
M  V30 9 1 6 10
M  V30 10 2 7 11
M  V30 11 2 8 12
M  V30 12 1 8 13
M  V30 13 1 9 14
M  V30 14 2 10 15
M  V30 15 1 13 16
M  V30 16 1 13 17
M  V30 17 1 14 18
M  V30 18 1 16 19
M  V30 19 1 17 20
M  V30 20 2 18 21
M  V30 21 1 18 22
M  V30 22 1 19 23
M  V30 23 1 20 24
M  V30 24 1 11 15
M  V30 25 1 3 25
M  V30 26 1 5 26
M  V30 27 1 6 27
M  V30 28 1 7 28
M  V30 29 1 9 29
M  V30 30 1 9 30
M  V30 31 1 10 31
M  V30 32 1 11 32
M  V30 33 1 14 33
M  V30 34 1 14 34
M  V30 35 1 15 35
M  V30 36 1 16 36
M  V30 37 1 16 37
M  V30 38 1 17 38
M  V30 39 1 17 39
M  V30 40 1 19 40
M  V30 41 1 19 41
M  V30 42 1 20 42
M  V30 43 1 20 43
M  V30 44 1 22 44
M  V30 45 1 23 45
M  V30 46 1 23 46
M  V30 47 1 23 47
M  V30 48 1 24 48
M  V30 49 1 24 49
M  V30 50 1 24 50
M  V30 END BOND
M  V30 BEGIN COLLECTION
M  V30 MDLV30/STERAC1 ATOMS=(1 5)
M  V30 END COLLECTION
M  V30 END CTAB
M  END
>  <Column 1>
3038

>  <level_0>
5189

>  <index>
5190

>  <Unnamed: 0>
5190

>  <NO.>
5202

>  <Name>
proglumide

>  <IUPAC_name>
4-benzamido-5-(dipropylamino)-5-oxopentanoic acid

>  <SMILES>
CCCN(CCC)C(=O)C(CCC(=O)O)NC(=O)c1ccccc1

>  <CID>
4922

>  <logBB>


>  <BBB+/BBB->
BBB-

>  <Inchi>
InChI=1S/C18H26N2O4/c1-3-12-20(13-4-2)18(24)15(10-11-16(21)22)19-17(23)14-8-6-5-7-9-14/h5-9-15H-3-4-10-13H2-1-2H3-(H-19-23)(H-21-22)

>  <threshold>


>  <reference>
R14|

>  <group>
C

>  <Class>
-1

>  <ABC>
17.29

>  <ABCGG>
15.71

>  <nAcid>
1

>  <nBase>
0

>  <nAromAtom>
6

>  <nAromBond>
6

>  <nAtom>
50

>  <nHeavyAtom>
24

>  <nSpiro>
0

>  <nBridgehead>
0

>  <nHetero>
6

>  <nN>
2

>  <nO>
4

>  <nF>
0

>  <BalabanJ>
2.68

>  <BertzCT>
539.21

>  <nBonds>
50

>  <nBondsO>
24

>  <nBondsS>
41

>  <nBondsD>
3

>  <nBondsT>
0

>  <nBondsA>
6

>  <nBondsM>
9

>  <nBondsKS>
44

>  <nBondsKD>
6

>  <RNCG>
0.2

>  <RPCG>
0.12

>  <FCSP3>
0.5

>  <SZ>
30

>  <Sm>
27.84

>  <Sv>
29.42

>  <Sse>
50.19

>  <Sp>
31.62

>  <Si>
56.82

>  <MZ>
0.6

>  <Mm>
0.56

>  <Mv>
0.59

>  <Mse>
1

>  <Mp>
0.63

>  <Mi>
1.14

>  <NsCH3>
2

>  <NdCH2>
0

>  <NssCH2>
6

>  <NtCH>
0

>  <NdsCH>
0

>  <NaaCH>
5

>  <NsssCH>
1

>  <NddC>
0

>  <NtsC>
0

>  <NdssC>
3

>  <NaasC>
1

>  <NaaaC>
0

>  <NssssC>
0

>  <NsNH3>
0

>  <NsNH2>
0

>  <NssNH2>
0

>  <NdNH>
0

>  <NssNH>
1

>  <NaaNH>
0

>  <NtN>
0

>  <NsssNH>
0

>  <NdsN>
0

>  <NaaN>
0

>  <NsssN>
1

>  <NddsN>
0

>  <NaasN>
0

>  <NssssN>
0

>  <NsOH>
1

>  <NdO>
3

>  <NssO>
0

>  <NaaO>
0

>  <NsF>
0

>  <NsSiH3>
0

>  <NssSiH2>
0

>  <NsssSiH>
0

>  <NssssSi>
0

>  <NsPH2>
0

>  <NssPH>
0

>  <NsssP>
0

>  <NdsssP>
0

>  <NsssssP>
0

>  <NsSH>
0

>  <NdS>
0

>  <NssS>
0

>  <NaaS>
0

>  <NdssS>
0

>  <NddssS>
0

>  <NsCl>
0

>  <NsBr>
0

>  <NsI>
0

>  <fragCpx>
24.06

>  <fMF>
0.12

>  <nHBAcc>
3

>  <nHBDon>
2

>  <Kier1>
22.04

>  <Kier2>
12.37

>  <Lipinski>
1

>  <GhoseFilter>
1

>  <FilterItLogS>
-3.52

>  <VMcGowan>
271.26

>  <LabuteASA>
142.4

>  <PEOE_VSA1>
15.32

>  <PEOE_VSA2>
14.38

>  <PEOE_VSA3>
0

>  <PEOE_VSA4>
0

>  <PEOE_VSA5>
0

>  <PEOE_VSA6>
32.05

>  <PEOE_VSA7>
31.4

>  <PEOE_VSA8>
25.07

>  <PEOE_VSA9>
0

>  <PEOE_VSA10>
6.04

>  <PEOE_VSA11>
0

>  <PEOE_VSA12>
5.91

>  <PEOE_VSA13>
5.91

>  <SMR_VSA1>
19.49

>  <SMR_VSA2>
0

>  <SMR_VSA3>
10.22

>  <SMR_VSA4>
0

>  <SMR_VSA5>
45.57

>  <SMR_VSA6>
13.09

>  <SMR_VSA7>
35.9

>  <SMR_VSA8>
0

>  <SMR_VSA9>
0

>  <SlogP_VSA1>
5.32

>  <SlogP_VSA2>
46.92

>  <SlogP_VSA3>
9.59

>  <SlogP_VSA4>
0

>  <SlogP_VSA5>
49.89

>  <SlogP_VSA6>
30.33

>  <SlogP_VSA7>
0

>  <SlogP_VSA8>
0

>  <SlogP_VSA9>
0

>  <SlogP_VSA10>
0

>  <SlogP_VSA11>
0

>  <EState_VSA1>
12.01

>  <EState_VSA2>
24.66

>  <EState_VSA3>
18.65

>  <EState_VSA4>
12.84

>  <EState_VSA5>
0

>  <EState_VSA6>
35.23

>  <EState_VSA7>
13.85

>  <EState_VSA8>
5.32

>  <EState_VSA9>
5.11

>  <EState_VSA10>
14.38

>  <VSA_EState1>
0

>  <VSA_EState2>
37.59

>  <VSA_EState3>
11.6

>  <VSA_EState4>
0.45

>  <VSA_EState5>
-1.57

>  <VSA_EState6>
7.77

>  <VSA_EState7>
1.53

>  <VSA_EState8>
5.14

>  <VSA_EState9>
0

>  <apol>
52.8

>  <bpol>
30.97

>  <nRing>
1

>  <nHRing>
0

>  <naRing>
1

>  <naHRing>
0

>  <nARing 2>
0

>  <nAHRing 2>
0

>  <nFRing>
0

>  <nFHRing>
0

>  <nFaRing>
0

>  <nFaHRing>
0

>  <nFARing 2>
0

>  <nFAHRing 2>
0

>  <nRot>
10

>  <SLogP>
2.3

>  <SMR>
91.73

>  <TopoPSA(NO)>
86.71

>  <TopoPSA>
86.71

>  <JGI1>
0.19

>  <JGI2>
0.09

>  <JGI3>
0.05

>  <JGI4>
0.03

>  <JGI5>
0.02

>  <Diameter>
11

>  <Radius>
6

>  <TMWC10>
119.65

>  <TSRW10>
57.28

>  <MW>
334.19

>  <AMW>
6.68

>  <WPath>
1404

>  <WPol>
32

>  <Zagreb1>
108

>  <Zagreb2>
119

>  <mZagreb2>
5.75

>  <yes>


>  <nAR-cont>
0.336376

>  <nHA-cont>
0.94700071

>  <MWHBN>
0.273510044

>  <MWHBN-cont>
0.911975828

>  <TPSA-cont>
0.394710356

>  <pka_cont>
0.97

>  <yes.1>


>  <BBB_SCORE>
3.925761164

>  <MMFF94 Energy>
-4.2471

$$$$
Compound 2458
Actelion Java MolfileCreator 2.0

  0  0  0  0  0  0              0 V3000
M  V30 BEGIN CTAB
M  V30 COUNTS 46 47 0 0 0
M  V30 BEGIN ATOM
M  V30 1 O 2.2771 -0.4708 1.0988 0
M  V30 2 C 1.2984 -0.3513 0.3662 0
M  V30 3 N 0.449 0.7407 0.3195 0
M  V30 4 C 0.9618 -1.4149 -0.7088 0 CFG=1
M  V30 5 C 0.6124 1.9353 1.0394 0
M  V30 6 N -0.5148 -1.4667 -0.9736 0
M  V30 7 C 1.7617 -1.0093 -1.9606 0
M  V30 8 C 0.6509 1.9584 2.4472 0
M  V30 9 C 0.6715 3.1403 0.306 0
M  V30 10 C -0.8053 -2.3285 -2.1391 0
M  V30 11 C -1.2296 -1.9932 0.2173 0
M  V30 12 C 1.4383 -1.8832 -3.1601 0
M  V30 13 C 0.8189 3.1908 3.1009 0
M  V30 14 C 0.5381 0.7235 3.2975 0
M  V30 15 C 0.819 4.3553 0.9911 0
M  V30 16 C 0.6118 3.1554 -1.1975 0
M  V30 17 C -0.0616 -1.8886 -3.3973 0
M  V30 18 C -2.7263 -1.6591 0.1837 0
M  V30 19 C 0.9003 4.3793 2.3799 0
M  V30 20 C -3.4168 -2.0942 1.4685 0
M  V30 21 H -0.2752 0.696 -0.3913 0
M  V30 22 H 1.3086 -2.3918 -0.3469 0
M  V30 23 H 2.8366 -1.0665 -1.7484 0
M  V30 24 H 1.5582 0.0384 -2.2192 0
M  V30 25 H -0.5486 -3.3736 -1.9199 0
M  V30 26 H -1.8753 -2.2994 -2.3706 0
M  V30 27 H -0.8257 -1.549 1.1331 0
M  V30 28 H -1.0806 -3.0763 0.3174 0
M  V30 29 H 1.7925 -2.9055 -2.9816 0
M  V30 30 H 1.959 -1.5104 -4.0488 0
M  V30 31 H 0.8791 3.2289 4.1866 0
M  V30 32 H 1.5246 0.2814 3.4613 0
M  V30 33 H 0.1072 0.9648 4.276 0
M  V30 34 H -0.1281 -0.0162 2.8459 0
M  V30 35 H 0.8816 5.2931 0.4439 0
M  V30 36 H -0.3385 2.7386 -1.546 0
M  V30 37 H 1.4415 2.5772 -1.6162 0
M  V30 38 H 0.6878 4.1737 -1.5936 0
M  V30 39 H -0.3015 -2.5671 -4.2238 0
M  V30 40 H -0.3965 -0.8875 -3.6966 0
M  V30 41 H -2.8642 -0.5789 0.0539 0
M  V30 42 H -3.2206 -2.1552 -0.6576 0
M  V30 43 H 1.0253 5.3241 2.9022 0
M  V30 44 H -4.4831 -1.851 1.4265 0
M  V30 45 H -3.3196 -3.174 1.619 0
M  V30 46 H -2.9872 -1.5852 2.3373 0
M  V30 END ATOM
M  V30 BEGIN BOND
M  V30 1 2 1 2
M  V30 2 1 2 3
M  V30 3 1 2 4
M  V30 4 1 3 5
M  V30 5 1 4 6
M  V30 6 1 4 7
M  V30 7 2 5 8
M  V30 8 1 5 9
M  V30 9 1 6 10
M  V30 10 1 6 11
M  V30 11 1 7 12
M  V30 12 1 8 13
M  V30 13 1 8 14
M  V30 14 2 9 15
M  V30 15 1 9 16
M  V30 16 1 10 17
M  V30 17 1 11 18
M  V30 18 2 13 19
M  V30 19 1 18 20
M  V30 20 1 12 17
M  V30 21 1 15 19
M  V30 22 1 3 21
M  V30 23 1 4 22
M  V30 24 1 7 23
M  V30 25 1 7 24
M  V30 26 1 10 25
M  V30 27 1 10 26
M  V30 28 1 11 27
M  V30 29 1 11 28
M  V30 30 1 12 29
M  V30 31 1 12 30
M  V30 32 1 13 31
M  V30 33 1 14 32
M  V30 34 1 14 33
M  V30 35 1 14 34
M  V30 36 1 15 35
M  V30 37 1 16 36
M  V30 38 1 16 37
M  V30 39 1 16 38
M  V30 40 1 17 39
M  V30 41 1 17 40
M  V30 42 1 18 41
M  V30 43 1 18 42
M  V30 44 1 19 43
M  V30 45 1 20 44
M  V30 46 1 20 45
M  V30 47 1 20 46
M  V30 END BOND
M  V30 BEGIN COLLECTION
M  V30 MDLV30/STERAC1 ATOMS=(1 4)
M  V30 END COLLECTION
M  V30 END CTAB
M  END
>  <Column 1>
3040

>  <level_0>
5191

>  <index>
5192

>  <Unnamed: 0>
5192

>  <NO.>
5204

>  <Name>
1-propyl-2'-6'-pipecoloxylidide

>  <IUPAC_name>
n-(2-6-dimethylphenyl)-1-propylpiperidine-2-carboxamide

>  <SMILES>
CCCN1CCCCC1C(=O)Nc1c(C)cccc1C

>  <CID>
71273

>  <logBB>


>  <BBB+/BBB->
BBB+

>  <Inchi>
InChI=1S/C17H26N2O/c1-4-11-19-12-6-5-10-15(19)17(20)18-16-13(2)8-7-9-14(16)3/h7-9-15H-4-6-10-12H2-1-3H3-(H-18-20)

>  <threshold>


>  <reference>
R14|R23|R37|

>  <group>
C

>  <Class>
1

>  <ABC>
15.02

>  <ABCGG>
13.09

>  <nAcid>
0

>  <nBase>
1

>  <nAromAtom>
6

>  <nAromBond>
6

>  <nAtom>
46

>  <nHeavyAtom>
20

>  <nSpiro>
0

>  <nBridgehead>
0

>  <nHetero>
3

>  <nN>
2

>  <nO>
1

>  <nF>
0

>  <BalabanJ>
1.93

>  <BertzCT>
447.81

>  <nBonds>
47

>  <nBondsO>
21

>  <nBondsS>
40

>  <nBondsD>
1

>  <nBondsT>
0

>  <nBondsA>
6

>  <nBondsM>
7

>  <nBondsKS>
43

>  <nBondsKD>
4

>  <RNCG>
0.23

>  <RPCG>
0.17

>  <FCSP3>
0.59

>  <SZ>
25

>  <Sm>
22.85

>  <Sv>
26.27

>  <Sse>
45.2

>  <Sp>
29.18

>  <Si>
52.19

>  <MZ>
0.54

>  <Mm>
0.5

>  <Mv>
0.57

>  <Mse>
0.98

>  <Mp>
0.63

>  <Mi>
1.13

>  <NsCH3>
3

>  <NdCH2>
0

>  <NssCH2>
6

>  <NtCH>
0

>  <NdsCH>
0

>  <NaaCH>
3

>  <NsssCH>
1

>  <NddC>
0

>  <NtsC>
0

>  <NdssC>
1

>  <NaasC>
3

>  <NaaaC>
0

>  <NssssC>
0

>  <NsNH3>
0

>  <NsNH2>
0

>  <NssNH2>
0

>  <NdNH>
0

>  <NssNH>
1

>  <NaaNH>
0

>  <NtN>
0

>  <NsssNH>
0

>  <NdsN>
0

>  <NaaN>
0

>  <NsssN>
1

>  <NddsN>
0

>  <NaasN>
0

>  <NssssN>
0

>  <NsOH>
0

>  <NdO>
1

>  <NssO>
0

>  <NaaO>
0

>  <NsF>
0

>  <NsSiH3>
0

>  <NssSiH2>
0

>  <NsssSiH>
0

>  <NssssSi>
0

>  <NsPH2>
0

>  <NssPH>
0

>  <NsssP>
0

>  <NdsssP>
0

>  <NsssssP>
0

>  <NsSH>
0

>  <NdS>
0

>  <NssS>
0

>  <NaaS>
0

>  <NdssS>
0

>  <NddssS>
0

>  <NsCl>
0

>  <NsBr>
0

>  <NsI>
0

>  <fragCpx>
61.03

>  <fMF>
0.3

>  <nHBAcc>
2

>  <nHBDon>
1

>  <Kier1>
16.37

>  <Kier2>
7.85

>  <Lipinski>
1

>  <GhoseFilter>
1

>  <FilterItLogS>
-4.41

>  <VMcGowan>
237.3

>  <LabuteASA>
121.91

>  <PEOE_VSA1>
5.32

>  <PEOE_VSA2>
9.69

>  <PEOE_VSA3>
0

>  <PEOE_VSA4>
0

>  <PEOE_VSA5>
0

>  <PEOE_VSA6>
31.54

>  <PEOE_VSA7>
57.33

>  <PEOE_VSA8>
5.69

>  <PEOE_VSA9>
6.04

>  <PEOE_VSA10>
0

>  <PEOE_VSA11>
0

>  <PEOE_VSA12>
5.91

>  <PEOE_VSA13>
0

>  <SMR_VSA1>
4.79

>  <SMR_VSA2>
0

>  <SMR_VSA3>
4.9

>  <SMR_VSA4>
0

>  <SMR_VSA5>
52.5

>  <SMR_VSA6>
18.41

>  <SMR_VSA7>
29.33

>  <SMR_VSA8>
0

>  <SMR_VSA9>
0

>  <SlogP_VSA1>
5.32

>  <SlogP_VSA2>
29.94

>  <SlogP_VSA3>
4.79

>  <SlogP_VSA4>
13.85

>  <SlogP_VSA5>
43.73

>  <SlogP_VSA6>
18.2

>  <SlogP_VSA7>
0

>  <SlogP_VSA8>
0

>  <SlogP_VSA9>
0

>  <SlogP_VSA10>
5.69

>  <SlogP_VSA11>
0

>  <EState_VSA1>
0

>  <EState_VSA2>
11.95

>  <EState_VSA3>
0

>  <EState_VSA4>
49.17

>  <EState_VSA5>
6.42

>  <EState_VSA6>
0

>  <EState_VSA7>
32.05

>  <EState_VSA8>
17.14

>  <EState_VSA9>
0

>  <EState_VSA10>
4.79

>  <VSA_EState1>
0

>  <VSA_EState2>
14.94

>  <VSA_EState3>
3.16

>  <VSA_EState4>
3.26

>  <VSA_EState5>
0.16

>  <VSA_EState6>
6.17

>  <VSA_EState7>
4.46

>  <VSA_EState8>
8.35

>  <VSA_EState9>
0

>  <apol>
48.73

>  <bpol>
29.23

>  <nRing>
2

>  <nHRing>
1

>  <naRing>
1

>  <naHRing>
0

>  <nARing 2>
1

>  <nAHRing 2>
1

>  <nFRing>
0

>  <nFHRing>
0

>  <nFaRing>
0

>  <nFaHRing>
0

>  <nFARing 2>
0

>  <nFAHRing 2>
0

>  <nRot>
4

>  <SLogP>
3.51

>  <SMR>
84.05

>  <TopoPSA(NO)>
32.34

>  <TopoPSA>
32.34

>  <JGI1>
0.17

>  <JGI2>
0.1

>  <JGI3>
0.05

>  <JGI4>
0.04

>  <JGI5>
0.03

>  <Diameter>
10

>  <Radius>
5

>  <TMWC10>
112.99

>  <TSRW10>
53.25

>  <MW>
274.2

>  <AMW>
5.96

>  <WPath>
822

>  <WPol>
30

>  <Zagreb1>
98

>  <Zagreb2>
113

>  <mZagreb2>
4.61

>  <yes>


>  <nAR-cont>
0.816016

>  <nHA-cont>
0.999629945

>  <MWHBN>
0.181170519

>  <MWHBN-cont>
0.988395825

>  <TPSA-cont>
0.774246718

>  <pka_cont>
0.97

>  <yes.1>


>  <BBB_SCORE>
5.331733118

>  <MMFF94 Energy>
49.897

$$$$
Compound 2459
Actelion Java MolfileCreator 2.0

  0  0  0  0  0  0              0 V3000
M  V30 BEGIN CTAB
M  V30 COUNTS 31 32 0 0 0
M  V30 BEGIN ATOM
M  V30 1 S 3.5143 0.5584 1.5164 0
M  V30 2 C 3.7009 -0.8779 2.4499 0
M  V30 3 C 2.0352 -0.037 0.9291 0
M  V30 4 N 2.7296 -1.7533 2.3396 0
M  V30 5 N 4.7702 -1.0663 3.2289 0
M  V30 6 C 1.7779 -1.2805 1.4625 0
M  V30 7 C 1.1645 0.6748 -0.0479 0
M  V30 8 C 0.5454 -2.0564 1.1557 0
M  V30 9 C -0.2683 0.0604 -0.0389 0 CFG=2
M  V30 10 C -0.1885 -1.4884 -0.074 0
M  V30 11 N -1.0274 0.6048 -1.181 0
M  V30 12 C -2.4706 0.3785 -1.0694 0
M  V30 13 C -3.2326 1.0067 -2.2419 0
M  V30 14 C -3.1778 2.5278 -2.2672 0
M  V30 15 H 4.8517 -1.9217 3.7618 0
M  V30 16 H 5.5122 -0.3855 3.3009 0
M  V30 17 H 1.6086 0.5792 -1.0475 0
M  V30 18 H 1.1079 1.7445 0.1881 0
M  V30 19 H -0.1197 -2.0131 2.0266 0
M  V30 20 H 0.7924 -3.1095 0.9833 0
M  V30 21 H -0.7547 0.3682 0.8976 0
M  V30 22 H -1.1847 -1.9417 -0.1106 0
M  V30 23 H 0.3366 -1.8026 -0.9862 0
M  V30 24 H -0.8579 1.6087 -1.2437 0
M  V30 25 H -2.6875 -0.6942 -1.0747 0
M  V30 26 H -2.8516 0.7925 -0.1281 0
M  V30 27 H -2.8519 0.6125 -3.1919 0
M  V30 28 H -4.2835 0.6998 -2.1737 0
M  V30 29 H -3.8227 2.9124 -3.064 0
M  V30 30 H -3.5251 2.9489 -1.3185 0
M  V30 31 H -2.1645 2.8926 -2.4583 0
M  V30 END ATOM
M  V30 BEGIN BOND
M  V30 1 1 1 2
M  V30 2 1 1 3
M  V30 3 2 2 4
M  V30 4 1 2 5
M  V30 5 2 3 6
M  V30 6 1 3 7
M  V30 7 1 6 8
M  V30 8 1 7 9
M  V30 9 1 8 10
M  V30 10 1 9 11
M  V30 11 1 11 12
M  V30 12 1 12 13
M  V30 13 1 13 14
M  V30 14 1 4 6
M  V30 15 1 9 10
M  V30 16 1 5 15
M  V30 17 1 5 16
M  V30 18 1 7 17
M  V30 19 1 7 18
M  V30 20 1 8 19
M  V30 21 1 8 20
M  V30 22 1 9 21
M  V30 23 1 10 22
M  V30 24 1 10 23
M  V30 25 1 11 24
M  V30 26 1 12 25
M  V30 27 1 12 26
M  V30 28 1 13 27
M  V30 29 1 13 28
M  V30 30 1 14 29
M  V30 31 1 14 30
M  V30 32 1 14 31
M  V30 END BOND
M  V30 BEGIN COLLECTION
M  V30 MDLV30/STERAC1 ATOMS=(1 9)
M  V30 END COLLECTION
M  V30 END CTAB
M  END
>  <Column 1>
3041

>  <level_0>
5192

>  <index>
5193

>  <Unnamed: 0>
5193

>  <NO.>
5205

>  <Name>
104617-86-9

>  <IUPAC_name>
6-n-propyl-4-5-6-7-tetrahydro-1-3-benzothiazole-2-6-diamine

>  <SMILES>
CCCNC1CCc2nc(N)sc2C1

>  <CID>
4885

>  <logBB>


>  <BBB+/BBB->
BBB+

>  <Inchi>
InChI=1S/C10H17N3S/c1-2-5-12-7-3-4-8-9(6-7)14-10(11)13-8/h7-12H-2-6H2-1H3-(H2-11-13)

>  <threshold>


>  <reference>
R14|R23|

>  <group>
C

>  <Class>
-1

>  <ABC>
10.68

>  <ABCGG>
9.35

>  <nAcid>
0

>  <nBase>
1

>  <nAromAtom>
5

>  <nAromBond>
5

>  <nAtom>
31

>  <nHeavyAtom>
14

>  <nSpiro>
0

>  <nBridgehead>
0

>  <nHetero>
4

>  <nN>
3

>  <nO>
0

>  <nF>
0

>  <BalabanJ>
1.79

>  <BertzCT>
308.32

>  <nBonds>
32

>  <nBondsO>
15

>  <nBondsS>
27

>  <nBondsD>
0

>  <nBondsT>
0

>  <nBondsA>
5

>  <nBondsM>
5

>  <nBondsKS>
30

>  <nBondsKD>
2

>  <RNCG>
0.32

>  <RPCG>
0.15

>  <FCSP3>
0.7

>  <SZ>
19

>  <Sm>
17.59

>  <Sv>
18.07

>  <Sse>
30.61

>  <Sp>
20.5

>  <Si>
35.32

>  <MZ>
0.61

>  <Mm>
0.57

>  <Mv>
0.58

>  <Mse>
0.99

>  <Mp>
0.66

>  <Mi>
1.14

>  <NsCH3>
1

>  <NdCH2>
0

>  <NssCH2>
5

>  <NtCH>
0

>  <NdsCH>
0

>  <NaaCH>
0

>  <NsssCH>
1

>  <NddC>
0

>  <NtsC>
0

>  <NdssC>
0

>  <NaasC>
3

>  <NaaaC>
0

>  <NssssC>
0

>  <NsNH3>
0

>  <NsNH2>
1

>  <NssNH2>
0

>  <NdNH>
0

>  <NssNH>
1

>  <NaaNH>
0

>  <NtN>
0

>  <NsssNH>
0

>  <NdsN>
0

>  <NaaN>
1

>  <NsssN>
0

>  <NddsN>
0

>  <NaasN>
0

>  <NssssN>
0

>  <NsOH>
0

>  <NdO>
0

>  <NssO>
0

>  <NaaO>
0

>  <NsF>
0

>  <NsSiH3>
0

>  <NssSiH2>
0

>  <NsssSiH>
0

>  <NssssSi>
0

>  <NsPH2>
0

>  <NssPH>
0

>  <NsssP>
0

>  <NdsssP>
0

>  <NsssssP>
0

>  <NsSH>
0

>  <NdS>
0

>  <NssS>
0

>  <NaaS>
1

>  <NdssS>
0

>  <NddssS>
0

>  <NsCl>
0

>  <NsBr>
0

>  <NsI>
0

>  <fragCpx>
43.04

>  <fMF>
0.29

>  <nHBAcc>
4

>  <nHBDon>
2

>  <Kier1>
10.52

>  <Kier2>
4.68

>  <Lipinski>
1

>  <GhoseFilter>
1

>  <FilterItLogS>
-3.07

>  <VMcGowan>
167.73

>  <LabuteASA>
88.73

>  <PEOE_VSA1>
11.05

>  <PEOE_VSA2>
0

>  <PEOE_VSA3>
4.98

>  <PEOE_VSA4>
0

>  <PEOE_VSA5>
11.34

>  <PEOE_VSA6>
6.92

>  <PEOE_VSA7>
32.23

>  <PEOE_VSA8>
10.92

>  <PEOE_VSA9>
5.69

>  <PEOE_VSA10>
0

>  <PEOE_VSA11>
5.13

>  <PEOE_VSA12>
0

>  <PEOE_VSA13>
0

>  <SMR_VSA1>
0

>  <SMR_VSA2>
0

>  <SMR_VSA3>
10.3

>  <SMR_VSA4>
0

>  <SMR_VSA5>
38.65

>  <SMR_VSA6>
12.28

>  <SMR_VSA7>
10.57

>  <SMR_VSA8>
0

>  <SMR_VSA9>
0

>  <SlogP_VSA1>
11.05

>  <SlogP_VSA2>
17.57

>  <SlogP_VSA3>
12.84

>  <SlogP_VSA4>
0

>  <SlogP_VSA5>
30.34

>  <SlogP_VSA6>
0

>  <SlogP_VSA7>
0

>  <SlogP_VSA8>
0

>  <SlogP_VSA9>
0

>  <SlogP_VSA10>
5.13

>  <SlogP_VSA11>
0

>  <EState_VSA1>
0

>  <EState_VSA2>
0

>  <EState_VSA3>
6.04

>  <EState_VSA4>
24.52

>  <EState_VSA5>
23.41

>  <EState_VSA6>
11.34

>  <EState_VSA7>
0

>  <EState_VSA8>
17.22

>  <EState_VSA9>
5.73

>  <EState_VSA10>
0

>  <VSA_EState1>
0

>  <VSA_EState2>
5.73

>  <VSA_EState3>
4.29

>  <VSA_EState4>
6.93

>  <VSA_EState5>
0

>  <VSA_EState6>
0.64

>  <VSA_EState7>
4.61

>  <VSA_EState8>
3.32

>  <VSA_EState9>
0

>  <apol>
34.24

>  <bpol>
20.65

>  <nRing>
2

>  <nHRing>
1

>  <naRing>
1

>  <naHRing>
1

>  <nARing 2>
1

>  <nAHRing 2>
0

>  <nFRing>
1

>  <nFHRing>
1

>  <nFaRing>
0

>  <nFaHRing>
0

>  <nFARing 2>
1

>  <nFAHRing 2>
1

>  <nRot>
3

>  <SLogP>
1.58

>  <SMR>
60.63

>  <TopoPSA(NO)>
50.94

>  <TopoPSA>
79.18

>  <JGI1>
0.2

>  <JGI2>
0.06

>  <JGI3>
0.06

>  <JGI4>
0.04

>  <JGI5>
0.03

>  <Diameter>
9

>  <Radius>
5

>  <TMWC10>
98.04

>  <TSRW10>
59.34

>  <MW>
211.11

>  <AMW>
6.81

>  <WPath>
318

>  <WPol>
17

>  <Zagreb1>
70

>  <Zagreb2>
80

>  <mZagreb2>
3.19

>  <yes>


>  <nAR-cont>
0.816016

>  <nHA-cont>
0.887625254

>  <MWHBN>
0.412949408

>  <MWHBN-cont>
0.425309975

>  <TPSA-cont>
0.447274432

>  <pka_cont>
0.97

>  <yes.1>


>  <BBB_SCORE>
3.721155081

>  <MMFF94 Energy>
-25.337

$$$$
Compound 2460
Actelion Java MolfileCreator 2.0

  0  0  0  0  0  0              0 V3000
M  V30 BEGIN CTAB
M  V30 COUNTS 59 62 0 0 0
M  V30 BEGIN ATOM
M  V30 1 O -2.552 -0.8766 -2.552 0
M  V30 2 C -1.5889 -0.1291 -2.4722 0
M  V30 3 O -0.5888 -0.2405 -3.3732 0
M  V30 4 C -1.3753 0.9291 -1.5243 0
M  V30 5 N -2.078 1.0628 -0.3309 0
M  V30 6 C -0.4722 1.9905 -1.4946 0
M  V30 7 C -1.7714 2.2908 0.2134 0
M  V30 8 C -2.8466 0.006 0.3309 0
M  V30 9 N -0.7859 2.8445 -0.4565 0
M  V30 10 C 0.6975 2.3257 -2.4014 0
M  V30 11 C -2.4365 2.8597 1.429 0
M  V30 12 C -1.9173 -1.103 0.7742 0
M  V30 13 O 1.4788 1.1467 -2.694 0
M  V30 14 C 1.6814 3.2926 -1.7256 0
M  V30 15 C 0.2198 2.9394 -3.7224 0
M  V30 16 C -2.0541 4.32 1.6771 0
M  V30 17 C -0.9219 -0.8557 1.731 0
M  V30 18 C -1.9557 -2.3567 0.1509 0
M  V30 19 C -2.7583 4.8786 2.9038 0
M  V30 20 C 0.0776 -1.7986 1.972 0
M  V30 21 C -0.948 -3.2949 0.3864 0
M  V30 22 C 0.109 -3.0063 1.2606 0
M  V30 23 C 1.2628 -3.9132 1.3709 0
M  V30 24 C 2.551 -3.5735 0.8849 0
M  V30 25 C 1.0885 -5.1602 2.003 0
M  V30 26 C 2.8345 -2.3119 0.2044 0
M  V30 27 C 3.6181 -4.4727 1.0698 0
M  V30 28 C 2.1556 -6.0452 2.1659 0
M  V30 29 N 3.9663 -1.575 0.4757 0
M  V30 30 N 2.0724 -1.7461 -0.7488 0
M  V30 31 C 3.4206 -5.7002 1.7031 0
M  V30 32 N 3.9033 -0.4834 -0.2735 0
M  V30 33 N 2.757 -0.6065 -0.958 0
M  V30 34 H -0.8849 -1.0122 -3.9052 0
M  V30 35 H -3.3648 0.4212 1.2003 0
M  V30 36 H -3.6167 -0.3367 -0.3668 0
M  V30 37 H -2.1607 2.2593 2.3037 0
M  V30 38 H -3.5245 2.7906 1.308 0
M  V30 39 H 0.8596 0.5607 -3.1812 0
M  V30 40 H 2.5564 3.4686 -2.3624 0
M  V30 41 H 1.2197 4.2608 -1.5022 0
M  V30 42 H 2.0621 2.8704 -0.7874 0
M  V30 43 H 1.0671 3.1439 -4.3869 0
M  V30 44 H -0.3276 3.874 -3.557 0
M  V30 45 H -0.4413 2.2578 -4.2682 0
M  V30 46 H -0.9696 4.408 1.8166 0
M  V30 47 H -2.3144 4.9311 0.804 0
M  V30 48 H -0.8656 0.1017 2.244 0
M  V30 49 H -2.7247 -2.5879 -0.5838 0
M  V30 50 H -2.4702 5.9225 3.0638 0
M  V30 51 H -3.8457 4.8412 2.7832 0
M  V30 52 H -2.4918 4.3113 3.8014 0
M  V30 53 H 0.8762 -1.5551 2.6706 0
M  V30 54 H -0.9537 -4.2289 -0.1716 0
M  V30 55 H 0.1088 -5.4408 2.3869 0
M  V30 56 H 4.6145 -4.2189 0.7106 0
M  V30 57 H 1.9982 -7.0 2.6613 0
M  V30 58 H 4.2553 -6.3844 1.8337 0
M  V30 59 H 2.4297 0.121 -1.5975 0
M  V30 END ATOM
M  V30 BEGIN BOND
M  V30 1 2 1 2
M  V30 2 1 2 3
M  V30 3 1 2 4
M  V30 4 1 4 5
M  V30 5 2 4 6
M  V30 6 1 5 7
M  V30 7 1 5 8
M  V30 8 1 6 9
M  V30 9 1 6 10
M  V30 10 1 7 11
M  V30 11 1 8 12
M  V30 12 1 10 13
M  V30 13 1 10 14
M  V30 14 1 10 15
M  V30 15 1 11 16
M  V30 16 2 12 17
M  V30 17 1 12 18
M  V30 18 1 16 19
M  V30 19 1 17 20
M  V30 20 2 18 21
M  V30 21 2 20 22
M  V30 22 1 22 23
M  V30 23 2 23 24
M  V30 24 1 23 25
M  V30 25 1 24 26
M  V30 26 1 24 27
M  V30 27 2 25 28
M  V30 28 1 26 29
M  V30 29 2 26 30
M  V30 30 2 27 31
M  V30 31 2 29 32
M  V30 32 1 30 33
M  V30 33 2 7 9
M  V30 34 1 21 22
M  V30 35 1 28 31
M  V30 36 1 32 33
M  V30 37 1 3 34
M  V30 38 1 8 35
M  V30 39 1 8 36
M  V30 40 1 11 37
M  V30 41 1 11 38
M  V30 42 1 13 39
M  V30 43 1 14 40
M  V30 44 1 14 41
M  V30 45 1 14 42
M  V30 46 1 15 43
M  V30 47 1 15 44
M  V30 48 1 15 45
M  V30 49 1 16 46
M  V30 50 1 16 47
M  V30 51 1 17 48
M  V30 52 1 18 49
M  V30 53 1 19 50
M  V30 54 1 19 51
M  V30 55 1 19 52
M  V30 56 1 20 53
M  V30 57 1 21 54
M  V30 58 1 25 55
M  V30 59 1 27 56
M  V30 60 1 28 57
M  V30 61 1 31 58
M  V30 62 1 33 59
M  V30 END BOND
M  V30 END CTAB
M  END
>  <Column 1>
3042

>  <level_0>
5193

>  <index>
5194

>  <Unnamed: 0>
5194

>  <NO.>
5206

>  <Name>
olmesartan medoxomil

>  <IUPAC_name>
5-(2-hydroxypropan-2-yl)-2-propyl-3-[[4-[2-(2h-tetrazol-5-yl)phenyl]phenyl]methyl]imidazole-4-carboxylic acid

>  <SMILES>
CCCc1nc(C(C)(C)O)c(C(=O)O)n1Cc1ccc(-c2ccccc2-c2nn[nH]n2)cc1

>  <CID>
158781

>  <logBB>


>  <BBB+/BBB->
BBB-

>  <Inchi>
InChI=1S/C24H26N6O3/c1-4-7-19-25-21(24(2-3)33)20(23(31)32)30(19)14-15-10-12-16(13-11-15)17-8-5-6-9-18(17)22-26-28-29-27-22/h5-6-8-13-33H-4-7-14H2-1-3H3-(H-31-32)(H-26-27-28-29)

>  <threshold>


>  <reference>
R14|R23|

>  <group>
C

>  <Class>
-1

>  <ABC>
25.81

>  <ABCGG>
20.78

>  <nAcid>
3

>  <nBase>
0

>  <nAromAtom>
22

>  <nAromBond>
22

>  <nAtom>
59

>  <nHeavyAtom>
33

>  <nSpiro>
0

>  <nBridgehead>
0

>  <nHetero>
9

>  <nN>
6

>  <nO>
3

>  <nF>
0

>  <BalabanJ>
1.37

>  <BertzCT>
1254.6

>  <nBonds>
62

>  <nBondsO>
36

>  <nBondsS>
39

>  <nBondsD>
1

>  <nBondsT>
0

>  <nBondsA>
22

>  <nBondsM>
23

>  <nBondsKS>
51

>  <nBondsKD>
11

>  <RNCG>
0.17

>  <RPCG>
0.13

>  <FCSP3>
0.29

>  <SZ>
39.33

>  <Sm>
37.18

>  <Sv>
37.74

>  <Sse>
59.51

>  <Sp>
39.77

>  <Si>
66.77

>  <MZ>
0.67

>  <Mm>
0.63

>  <Mv>
0.64

>  <Mse>
1.01

>  <Mp>
0.67

>  <Mi>
1.13

>  <NsCH3>
3

>  <NdCH2>
0

>  <NssCH2>
3

>  <NtCH>
0

>  <NdsCH>
0

>  <NaaCH>
8

>  <NsssCH>
0

>  <NddC>
0

>  <NtsC>
0

>  <NdssC>
1

>  <NaasC>
8

>  <NaaaC>
0

>  <NssssC>
1

>  <NsNH3>
0

>  <NsNH2>
0

>  <NssNH2>
0

>  <NdNH>
0

>  <NssNH>
0

>  <NaaNH>
1

>  <NtN>
0

>  <NsssNH>
0

>  <NdsN>
0

>  <NaaN>
4

>  <NsssN>
0

>  <NddsN>
0

>  <NaasN>
1

>  <NssssN>
0

>  <NsOH>
2

>  <NdO>
1

>  <NssO>
0

>  <NaaO>
0

>  <NsF>
0

>  <NsSiH3>
0

>  <NssSiH2>
0

>  <NsssSiH>
0

>  <NssssSi>
0

>  <NsPH2>
0

>  <NssPH>
0

>  <NsssP>
0

>  <NdsssP>
0

>  <NsssssP>
0

>  <NsSH>
0

>  <NdS>
0

>  <NssS>
0

>  <NaaS>
0

>  <NdssS>
0

>  <NddssS>
0

>  <NsCl>
0

>  <NsBr>
0

>  <NsI>
0

>  <fragCpx>
240.09

>  <fMF>
0.39

>  <nHBAcc>
7

>  <nHBDon>
3

>  <Kier1>
26.07

>  <Kier2>
11.37

>  <Lipinski>
1

>  <GhoseFilter>
1

>  <FilterItLogS>
-5.95

>  <VMcGowan>
335.77

>  <LabuteASA>
190.68

>  <PEOE_VSA1>
14.78

>  <PEOE_VSA2>
0

>  <PEOE_VSA3>
9.78

>  <PEOE_VSA4>
5.21

>  <PEOE_VSA5>
10.2

>  <PEOE_VSA6>
55.45

>  <PEOE_VSA7>
42.17

>  <PEOE_VSA8>
18.53

>  <PEOE_VSA9>
0

>  <PEOE_VSA10>
17.12

>  <PEOE_VSA11>
5.69

>  <PEOE_VSA12>
5.82

>  <PEOE_VSA13>
0

>  <SMR_VSA1>
15.01

>  <SMR_VSA2>
0

>  <SMR_VSA3>
30.18

>  <SMR_VSA4>
0

>  <SMR_VSA5>
45.76

>  <SMR_VSA6>
0

>  <SMR_VSA7>
71.31

>  <SMR_VSA8>
0

>  <SMR_VSA9>
22.51

>  <SlogP_VSA1>
0

>  <SlogP_VSA2>
46.36

>  <SlogP_VSA3>
18.57

>  <SlogP_VSA4>
0

>  <SlogP_VSA5>
54.76

>  <SlogP_VSA6>
48.53

>  <SlogP_VSA7>
0

>  <SlogP_VSA8>
22.51

>  <SlogP_VSA9>
0

>  <SlogP_VSA10>
0

>  <SlogP_VSA11>
0

>  <EState_VSA1>
11.57

>  <EState_VSA2>
11.39

>  <EState_VSA3>
24.61

>  <EState_VSA4>
28.67

>  <EState_VSA5>
0

>  <EState_VSA6>
18.41

>  <EState_VSA7>
55.45

>  <EState_VSA8>
25.61

>  <EState_VSA9>
0

>  <EState_VSA10>
15.01

>  <VSA_EState1>
1.7

>  <VSA_EState2>
16.6

>  <VSA_EState3>
34.7

>  <VSA_EState4>
2.59

>  <VSA_EState5>
0.06

>  <VSA_EState6>
15.71

>  <VSA_EState7>
1.43

>  <VSA_EState8>
5.46

>  <VSA_EState9>
0

>  <apol>
66.42

>  <bpol>
30.37

>  <nRing>
4

>  <nHRing>
2

>  <naRing>
4

>  <naHRing>
2

>  <nARing 2>
0

>  <nAHRing 2>
0

>  <nFRing>
0

>  <nFHRing>
0

>  <nFaRing>
0

>  <nFaHRing>
0

>  <nFARing 2>
0

>  <nFAHRing 2>
0

>  <nRot>
8

>  <SLogP>
3.66

>  <SMR>
122.58

>  <TopoPSA(NO)>
129.81

>  <TopoPSA>
129.81

>  <JGI1>
0.19

>  <JGI2>
0.08

>  <JGI3>
0.05

>  <JGI4>
0.05

>  <JGI5>
0.02

>  <Diameter>
14

>  <Radius>
7

>  <TMWC10>
147.78

>  <TSRW10>
85.21

>  <MW>
446.21

>  <AMW>
7.56

>  <WPath>
3324

>  <WPol>
53

>  <Zagreb1>
176

>  <Zagreb2>
209

>  <mZagreb2>
7.19

>  <yes>


>  <nAR-cont>
0.336376

>  <nHA-cont>
0.61399562

>  <MWHBN>
0.473402286

>  <MWHBN-cont>
0

>  <TPSA-cont>
0

>  <pka_cont>
0.97

>  <yes.1>


>  <BBB_SCORE>
1.43537162

>  <MMFF94 Energy>
49.463

$$$$
Compound 2461
Actelion Java MolfileCreator 2.0

  0  0  0  0  0  0              0 V3000
M  V30 BEGIN CTAB
M  V30 COUNTS 71 75 0 0 0
M  V30 BEGIN ATOM
M  V30 1 O 7.8604 -3.4431 2.1609 0
M  V30 2 C 6.7309 -3.2051 2.5695 0
M  V30 3 O 5.614 -3.2169 1.7504 0
M  V30 4 O 6.4556 -2.9064 3.8951 0
M  V30 5 C 4.6098 -2.8886 2.6443 0
M  V30 6 C 5.0868 -2.7196 3.8598 0
M  V30 7 C 3.2185 -2.7907 2.1223 0
M  V30 8 C 4.4121 -2.3519 5.1292 0
M  V30 9 O 3.1422 -1.6096 1.3254 0
M  V30 10 C 1.8834 -1.2878 0.9326 0
M  V30 11 O 0.9049 -2.0044 1.1019 0
M  V30 12 C 1.8889 -0.0342 0.2242 0
M  V30 13 N 1.0921 0.2811 -0.8656 0
M  V30 14 C 2.6187 1.1247 0.4686 0
M  V30 15 C 1.4349 1.5482 -1.2905 0
M  V30 16 C 0.1483 -0.6139 -1.5307 0
M  V30 17 N 2.3484 2.0675 -0.5005 0
M  V30 18 C 3.5849 1.4611 1.5862 0
M  V30 19 C 0.8585 2.2456 -2.4809 0
M  V30 20 C -1.296 -0.2665 -1.2573 0
M  V30 21 O 3.2668 0.729 2.7849 0
M  V30 22 C 3.5011 2.9514 1.9584 0
M  V30 23 C 5.0234 1.1174 1.1814 0
M  V30 24 C 1.7019 1.9993 -3.7316 0
M  V30 25 C -1.7788 -0.0916 0.0465 0
M  V30 26 C -2.2023 -0.1642 -2.3233 0
M  V30 27 C 1.1192 2.7097 -4.9429 0
M  V30 28 C -3.125 0.2108 0.2759 0
M  V30 29 C -3.5479 0.1371 -2.0919 0
M  V30 30 C -4.0279 0.3297 -0.7888 0
M  V30 31 C -5.4406 0.6666 -0.5482 0
M  V30 32 C -6.497 -0.2638 -0.6783 0
M  V30 33 C -5.7592 1.9989 -0.2125 0
M  V30 34 C -6.2755 -1.6691 -0.9886 0
M  V30 35 C -7.8264 0.1655 -0.4993 0
M  V30 36 C -7.0811 2.4062 -0.0244 0
M  V30 37 N -7.0545 -2.3563 -1.8939 0
M  V30 38 N -5.3591 -2.458 -0.4021 0
M  V30 39 C -8.1156 1.4905 -0.1728 0
M  V30 40 N -6.6044 -3.6029 -1.9175 0
M  V30 41 N -5.6035 -3.6141 -1.0302 0
M  V30 42 H 2.9943 -3.6675 1.5038 0
M  V30 43 H 2.4946 -2.7429 2.9433 0
M  V30 44 H 3.3421 -2.1716 4.9933 0
M  V30 45 H 4.5291 -3.1528 5.8658 0
M  V30 46 H 4.8538 -1.4388 5.541 0
M  V30 47 H 0.3697 -0.5549 -2.6027 0
M  V30 48 H 0.349 -1.6473 -1.2367 0
M  V30 49 H 0.8288 3.3221 -2.2694 0
M  V30 50 H -0.1776 1.9433 -2.655 0
M  V30 51 H 3.8932 1.0224 3.4669 0
M  V30 52 H 4.1595 3.1846 2.8034 0
M  V30 53 H 3.7791 3.6016 1.1218 0
M  V30 54 H 2.4846 3.2162 2.2741 0
M  V30 55 H 5.7241 1.3404 1.9943 0
M  V30 56 H 5.3363 1.6746 0.2915 0
M  V30 57 H 5.1342 0.0497 0.9643 0
M  V30 58 H 2.7282 2.3502 -3.5673 0
M  V30 59 H 1.7663 0.9254 -3.9428 0
M  V30 60 H -1.1171 -0.1929 0.9045 0
M  V30 61 H -1.8714 -0.3135 -3.349 0
M  V30 62 H 1.7386 2.5236 -5.8257 0
M  V30 63 H 0.1066 2.3527 -5.157 0
M  V30 64 H 1.0757 3.7914 -4.7802 0
M  V30 65 H -3.4715 0.3384 1.2997 0
M  V30 66 H -4.2262 0.2205 -2.939 0
M  V30 67 H -4.9631 2.7352 -0.1092 0
M  V30 68 H -8.6479 -0.5418 -0.6041 0
M  V30 69 H -7.2994 3.4403 0.2303 0
M  V30 70 H -9.1471 1.8038 -0.0323 0
M  V30 71 H -5.0656 -4.4549 -0.8418 0
M  V30 END ATOM
M  V30 BEGIN BOND
M  V30 1 2 1 2
M  V30 2 1 2 3
M  V30 3 1 2 4
M  V30 4 1 3 5
M  V30 5 1 4 6
M  V30 6 1 5 7
M  V30 7 1 6 8
M  V30 8 1 7 9
M  V30 9 1 9 10
M  V30 10 2 10 11
M  V30 11 1 10 12
M  V30 12 1 12 13
M  V30 13 2 12 14
M  V30 14 1 13 15
M  V30 15 1 13 16
M  V30 16 1 14 17
M  V30 17 1 14 18
M  V30 18 1 15 19
M  V30 19 1 16 20
M  V30 20 1 18 21
M  V30 21 1 18 22
M  V30 22 1 18 23
M  V30 23 1 19 24
M  V30 24 2 20 25
M  V30 25 1 20 26
M  V30 26 1 24 27
M  V30 27 1 25 28
M  V30 28 2 26 29
M  V30 29 2 28 30
M  V30 30 1 30 31
M  V30 31 2 31 32
M  V30 32 1 31 33
M  V30 33 1 32 34
M  V30 34 1 32 35
M  V30 35 2 33 36
M  V30 36 1 34 37
M  V30 37 2 34 38
M  V30 38 2 35 39
M  V30 39 2 37 40
M  V30 40 1 38 41
M  V30 41 2 5 6
M  V30 42 2 15 17
M  V30 43 1 29 30
M  V30 44 1 36 39
M  V30 45 1 40 41
M  V30 46 1 7 42
M  V30 47 1 7 43
M  V30 48 1 8 44
M  V30 49 1 8 45
M  V30 50 1 8 46
M  V30 51 1 16 47
M  V30 52 1 16 48
M  V30 53 1 19 49
M  V30 54 1 19 50
M  V30 55 1 21 51
M  V30 56 1 22 52
M  V30 57 1 22 53
M  V30 58 1 22 54
M  V30 59 1 23 55
M  V30 60 1 23 56
M  V30 61 1 23 57
M  V30 62 1 24 58
M  V30 63 1 24 59
M  V30 64 1 25 60
M  V30 65 1 26 61
M  V30 66 1 27 62
M  V30 67 1 27 63
M  V30 68 1 27 64
M  V30 69 1 28 65
M  V30 70 1 29 66
M  V30 71 1 33 67
M  V30 72 1 35 68
M  V30 73 1 36 69
M  V30 74 1 39 70
M  V30 75 1 41 71
M  V30 END BOND
M  V30 END CTAB
M  END
>  <Column 1>
3043

>  <level_0>
5194

>  <index>
5195

>  <Unnamed: 0>
5195

>  <NO.>
5207

>  <Name>
olmesartan medoxomil

>  <IUPAC_name>
(5-methyl-2-oxo-1-3-dioxol-4-yl)methyl 5-(2-hydroxypropan-2-yl)-2-propyl-3-[[4-[2-(2h-tetrazol-5-yl)phenyl]phenyl]methyl]imidazole-4-carboxylate

>  <SMILES>
CCCc1nc(C(C)(C)O)c(C(=O)OCc2oc(=O)oc2C)n1Cc1ccc(-c2ccccc2-c2nn[nH]n2)cc1

>  <CID>
130881

>  <logBB>


>  <BBB+/BBB->
BBB-

>  <Inchi>
InChI=1S/C29H30N6O6/c1-5-8-23-30-25(29(3-4)38)24(27(36)39-16-22-17(2)40-28(37)41-22)35(23)15-18-11-13-19(14-12-18)20-9-6-7-10-21(20)26-31-33-34-32-26/h6-7-9-14-38H-5-8-15-16H2-1-4H3-(H-31-32-33-34)

>  <threshold>


>  <reference>
R14|R23|

>  <group>
C

>  <Class>
-1

>  <ABC>
32.24

>  <ABCGG>
25.36

>  <nAcid>
2

>  <nBase>
0

>  <nAromAtom>
27

>  <nAromBond>
27

>  <nAtom>
71

>  <nHeavyAtom>
41

>  <nSpiro>
0

>  <nBridgehead>
0

>  <nHetero>
12

>  <nN>
6

>  <nO>
6

>  <nF>
0

>  <BalabanJ>
1.23

>  <BertzCT>
1707.83

>  <nBonds>
75

>  <nBondsO>
45

>  <nBondsS>
46

>  <nBondsD>
2

>  <nBondsT>
0

>  <nBondsA>
27

>  <nBondsM>
29

>  <nBondsKS>
62

>  <nBondsKD>
13

>  <RNCG>
0.12

>  <RPCG>
0.14

>  <FCSP3>
0.31

>  <SZ>
49

>  <Sm>
46.51

>  <Sv>
45.96

>  <Sse>
72.28

>  <Sp>
47.81

>  <Si>
80.23

>  <MZ>
0.69

>  <Mm>
0.66

>  <Mv>
0.65

>  <Mse>
1.02

>  <Mp>
0.67

>  <Mi>
1.13

>  <NsCH3>
4

>  <NdCH2>
0

>  <NssCH2>
4

>  <NtCH>
0

>  <NdsCH>
0

>  <NaaCH>
8

>  <NsssCH>
0

>  <NddC>
0

>  <NtsC>
0

>  <NdssC>
1

>  <NaasC>
10

>  <NaaaC>
0

>  <NssssC>
1

>  <NsNH3>
0

>  <NsNH2>
0

>  <NssNH2>
0

>  <NdNH>
0

>  <NssNH>
0

>  <NaaNH>
1

>  <NtN>
0

>  <NsssNH>
0

>  <NdsN>
0

>  <NaaN>
4

>  <NsssN>
0

>  <NddsN>
0

>  <NaasN>
1

>  <NssssN>
0

>  <NsOH>
1

>  <NdO>
2

>  <NssO>
1

>  <NaaO>
2

>  <NsF>
0

>  <NsSiH3>
0

>  <NssSiH2>
0

>  <NsssSiH>
0

>  <NssssSi>
0

>  <NsPH2>
0

>  <NssPH>
0

>  <NsssP>
0

>  <NdsssP>
0

>  <NsssssP>
0

>  <NsSH>
0

>  <NdS>
0

>  <NssS>
0

>  <NaaS>
0

>  <NdssS>
0

>  <NddssS>
0

>  <NsCl>
0

>  <NsBr>
0

>  <NsI>
0

>  <fragCpx>
385.12

>  <fMF>
0.44

>  <nHBAcc>
11

>  <nHBDon>
2

>  <Kier1>
32.4

>  <Kier2>
14.4

>  <Lipinski>
0

>  <GhoseFilter>
0

>  <FilterItLogS>
-8.2

>  <VMcGowan>
404.37

>  <LabuteASA>
234.55

>  <PEOE_VSA1>
23.24

>  <PEOE_VSA2>
0

>  <PEOE_VSA3>
14.57

>  <PEOE_VSA4>
5.21

>  <PEOE_VSA5>
10.2

>  <PEOE_VSA6>
55.45

>  <PEOE_VSA7>
49.1

>  <PEOE_VSA8>
18.53

>  <PEOE_VSA9>
0

>  <PEOE_VSA10>
17.12

>  <PEOE_VSA11>
23.82

>  <PEOE_VSA12>
5.82

>  <PEOE_VSA13>
0

>  <SMR_VSA1>
23.47

>  <SMR_VSA2>
0

>  <SMR_VSA3>
30.18

>  <SMR_VSA4>
0

>  <SMR_VSA5>
59.29

>  <SMR_VSA6>
0

>  <SMR_VSA7>
93.44

>  <SMR_VSA8>
0

>  <SMR_VSA9>
22.51

>  <SlogP_VSA1>
5.82

>  <SlogP_VSA2>
41.25

>  <SlogP_VSA3>
29.91

>  <SlogP_VSA4>
6.92

>  <SlogP_VSA5>
66.28

>  <SlogP_VSA6>
62.16

>  <SlogP_VSA7>
0

>  <SlogP_VSA8>
22.51

>  <SlogP_VSA9>
0

>  <SlogP_VSA10>
0

>  <SlogP_VSA11>
0

>  <EState_VSA1>
17.39

>  <EState_VSA2>
29.52

>  <EState_VSA3>
24.61

>  <EState_VSA4>
28.67

>  <EState_VSA5>
0

>  <EState_VSA6>
25.34

>  <EState_VSA7>
55.45

>  <EState_VSA8>
25.61

>  <EState_VSA9>
13.57

>  <EState_VSA10>
14.7

>  <VSA_EState1>
17.11

>  <VSA_EState2>
29.53

>  <VSA_EState3>
25.3

>  <VSA_EState4>
2.6

>  <VSA_EState5>
-0.08

>  <VSA_EState6>
15.71

>  <VSA_EState7>
1.37

>  <VSA_EState8>
6.72

>  <VSA_EState9>
0

>  <apol>
79.85

>  <bpol>
40.46

>  <nRing>
5

>  <nHRing>
3

>  <naRing>
5

>  <naHRing>
3

>  <nARing 2>
0

>  <nAHRing 2>
0

>  <nFRing>
0

>  <nFHRing>
0

>  <nFaRing>
0

>  <nFaHRing>
0

>  <nFARing 2>
0

>  <nFAHRing 2>
0

>  <nRot>
10

>  <SLogP>
4.17

>  <SMR>
146.72

>  <TopoPSA(NO)>
162.16

>  <TopoPSA>
162.16

>  <JGI1>
0.2

>  <JGI2>
0.08

>  <JGI3>
0.06

>  <JGI4>
0.04

>  <JGI5>
0.02

>  <Diameter>
18

>  <Radius>
9

>  <TMWC10>
166.66

>  <TSRW10>
95.48

>  <MW>
558.22

>  <AMW>
7.86

>  <WPath>
6025

>  <WPol>
65

>  <Zagreb1>
220

>  <Zagreb2>
261

>  <mZagreb2>
8.89

>  <yes>


>  <nAR-cont>
0.336376

>  <nHA-cont>
0.27123661

>  <MWHBN>
0.550225427

>  <MWHBN-cont>
0

>  <TPSA-cont>
0

>  <pka_cont>
0.97

>  <yes.1>


>  <BBB_SCORE>
1.09261261

>  <MMFF94 Energy>
87.989

$$$$
Compound 2462
Actelion Java MolfileCreator 2.0

  0  0  0  0  0  0              0 V3000
M  V30 BEGIN CTAB
M  V30 COUNTS 37 37 0 0 0
M  V30 BEGIN ATOM
M  V30 1 O 5.294 -3.4742 0.1577 0
M  V30 2 N 4.8362 -2.5758 -0.56 0 CHG=1
M  V30 3 O 5.0415 -2.446 -1.7756 0 CHG=-1
M  V30 4 C 3.9158 -1.6391 0.0439 0
M  V30 5 C 4.3445 -0.7837 1.0482 0
M  V30 6 C 2.593 -1.6135 -0.4208 0
M  V30 7 O 5.6341 -0.7637 1.4931 0
M  V30 8 C 3.4287 0.1051 1.6049 0
M  V30 9 C 1.6736 -0.7203 0.1485 0
M  V30 10 O 3.8807 0.9335 2.5964 0
M  V30 11 C 2.1068 0.1538 1.1595 0
M  V30 12 C 0.3023 -0.6973 -0.3856 0
M  V30 13 C -0.8446 -0.6595 0.3189 0
M  V30 14 C -0.945 -0.6588 1.7324 0
M  V30 15 C -2.0958 -0.7001 -0.4761 0
M  V30 16 N -0.9893 -0.6001 2.8909 0
M  V30 17 O -2.4615 -1.7787 -0.9404 0
M  V30 18 N -2.7695 0.4964 -0.6948 0
M  V30 19 C -2.3318 1.818 -0.2296 0
M  V30 20 C -3.9974 0.4461 -1.4922 0
M  V30 21 C -3.0752 2.2617 1.021 0
M  V30 22 C -3.7124 0.6143 -2.9767 0
M  V30 23 H 2.2872 -2.2927 -1.2157 0
M  V30 24 H 5.6582 -0.0936 2.207 0
M  V30 25 H 3.1221 1.4059 2.9839 0
M  V30 26 H 1.4238 0.8802 1.5913 0
M  V30 27 H 0.244 -0.7575 -1.4736 0
M  V30 28 H -2.4933 2.5391 -1.0385 0
M  V30 29 H -1.258 1.8126 -0.0248 0
M  V30 30 H -4.6831 1.2269 -1.1473 0
M  V30 31 H -4.4981 -0.5151 -1.3306 0
M  V30 32 H -2.949 1.5438 1.8363 0
M  V30 33 H -4.1486 2.3611 0.8323 0
M  V30 34 H -2.7012 3.2331 1.3587 0
M  V30 35 H -3.0435 -0.1717 -3.3416 0
M  V30 36 H -3.2361 1.5783 -3.1813 0
M  V30 37 H -4.6431 0.5651 -3.55 0
M  V30 END ATOM
M  V30 BEGIN BOND
M  V30 1 2 1 2
M  V30 2 1 2 3
M  V30 3 1 2 4
M  V30 4 2 4 5
M  V30 5 1 4 6
M  V30 6 1 5 7
M  V30 7 1 5 8
M  V30 8 2 6 9
M  V30 9 1 8 10
M  V30 10 2 8 11
M  V30 11 1 9 12
M  V30 12 2 12 13
M  V30 13 1 13 14
M  V30 14 1 13 15
M  V30 15 3 14 16
M  V30 16 2 15 17
M  V30 17 1 15 18
M  V30 18 1 18 19
M  V30 19 1 18 20
M  V30 20 1 19 21
M  V30 21 1 20 22
M  V30 22 1 9 11
M  V30 23 1 6 23
M  V30 24 1 7 24
M  V30 25 1 10 25
M  V30 26 1 11 26
M  V30 27 1 12 27
M  V30 28 1 19 28
M  V30 29 1 19 29
M  V30 30 1 20 30
M  V30 31 1 20 31
M  V30 32 1 21 32
M  V30 33 1 21 33
M  V30 34 1 21 34
M  V30 35 1 22 35
M  V30 36 1 22 36
M  V30 37 1 22 37
M  V30 END BOND
M  V30 END CTAB
M  END
>  <Column 1>
3045

>  <level_0>
5196

>  <index>
5197

>  <Unnamed: 0>
5197

>  <NO.>
5209

>  <Name>
entacapone

>  <IUPAC_name>
(e)-2-cyano-3-(3-4-dihydroxy-5-nitrophenyl)-n-n-diethylprop-2-enamide

>  <SMILES>
CCN(CC)C(=O)/C(C#N)=C/c1cc(O)c(O)c([N+](=O)[O-])c1

>  <CID>
5281081

>  <logBB>


>  <BBB+/BBB->
BBB+

>  <Inchi>
InChI=1S/C14H15N3O5/c1-3-16(4-2)14(20)10(8-15)5-9-6-11(17(21)22)13(19)12(18)7-9/h5-7-18-19H-3-4H2-1-2H3/b10-5+

>  <threshold>


>  <reference>
R14|R15|

>  <group>
C

>  <Class>
-1

>  <ABC>
15.9

>  <ABCGG>
14.95

>  <nAcid>
0

>  <nBase>
0

>  <nAromAtom>
6

>  <nAromBond>
6

>  <nAtom>
37

>  <nHeavyAtom>
22

>  <nSpiro>
0

>  <nBridgehead>
0

>  <nHetero>
8

>  <nN>
3

>  <nO>
5

>  <nF>
0

>  <BalabanJ>
2.7

>  <BertzCT>
671.79

>  <nBonds>
37

>  <nBondsO>
22

>  <nBondsS>
27

>  <nBondsD>
3

>  <nBondsT>
1

>  <nBondsA>
6

>  <nBondsM>
10

>  <nBondsKS>
30

>  <nBondsKD>
6

>  <RNCG>
0.2

>  <RPCG>
0.13

>  <FCSP3>
0.29

>  <SZ>
26.67

>  <Sm>
25.42

>  <Sv>
23.91

>  <Sse>
38.3

>  <Sp>
24.37

>  <Si>
42.03

>  <MZ>
0.72

>  <Mm>
0.69

>  <Mv>
0.65

>  <Mse>
1.04

>  <Mp>
0.66

>  <Mi>
1.14

>  <NsCH3>
2

>  <NdCH2>
0

>  <NssCH2>
2

>  <NtCH>
0

>  <NdsCH>
1

>  <NaaCH>
2

>  <NsssCH>
0

>  <NddC>
0

>  <NtsC>
1

>  <NdssC>
2

>  <NaasC>
4

>  <NaaaC>
0

>  <NssssC>
0

>  <NsNH3>
0

>  <NsNH2>
0

>  <NssNH2>
0

>  <NdNH>
0

>  <NssNH>
0

>  <NaaNH>
0

>  <NtN>
1

>  <NsssNH>
0

>  <NdsN>
0

>  <NaaN>
0

>  <NsssN>
1

>  <NddsN>
1

>  <NaasN>
0

>  <NssssN>
0

>  <NsOH>
2

>  <NdO>
2

>  <NssO>
0

>  <NaaO>
0

>  <NsF>
0

>  <NsSiH3>
0

>  <NssSiH2>
0

>  <NsssSiH>
0

>  <NssssSi>
0

>  <NsPH2>
0

>  <NssPH>
0

>  <NsssP>
0

>  <NdsssP>
0

>  <NsssssP>
0

>  <NsSH>
0

>  <NdS>
0

>  <NssS>
0

>  <NaaS>
0

>  <NdssS>
0

>  <NddssS>
0

>  <NsCl>
0

>  <NsBr>
0

>  <NsI>
0

>  <fragCpx>
22.08

>  <fMF>
0.16

>  <nHBAcc>
6

>  <nHBDon>
2

>  <Kier1>
20.05

>  <Kier2>
9.33

>  <Lipinski>
1

>  <GhoseFilter>
1

>  <FilterItLogS>
-1.98

>  <VMcGowan>
222.15

>  <LabuteASA>
126.22

>  <PEOE_VSA1>
15.11

>  <PEOE_VSA2>
14.91

>  <PEOE_VSA3>
0

>  <PEOE_VSA4>
5.26

>  <PEOE_VSA5>
0

>  <PEOE_VSA6>
0

>  <PEOE_VSA7>
31.55

>  <PEOE_VSA8>
19.16

>  <PEOE_VSA9>
4.92

>  <PEOE_VSA10>
11.64

>  <PEOE_VSA11>
5.75

>  <PEOE_VSA12>
5.75

>  <PEOE_VSA13>
5.91

>  <SMR_VSA1>
19.93

>  <SMR_VSA2>
5.26

>  <SMR_VSA3>
4.9

>  <SMR_VSA4>
0

>  <SMR_VSA5>
13.85

>  <SMR_VSA6>
13.09

>  <SMR_VSA7>
33.38

>  <SMR_VSA8>
0

>  <SMR_VSA9>
17.57

>  <SlogP_VSA1>
0

>  <SlogP_VSA2>
39.03

>  <SlogP_VSA3>
4.79

>  <SlogP_VSA4>
21.45

>  <SlogP_VSA5>
19.41

>  <SlogP_VSA6>
17.71

>  <SlogP_VSA7>
0

>  <SlogP_VSA8>
6.08

>  <SlogP_VSA9>
0

>  <SlogP_VSA10>
5.69

>  <SlogP_VSA11>
11.5

>  <EState_VSA1>
28.02

>  <EState_VSA2>
11.14

>  <EState_VSA3>
13.09

>  <EState_VSA4>
18.21

>  <EState_VSA5>
4.9

>  <EState_VSA6>
19.92

>  <EState_VSA7>
0

>  <EState_VSA8>
0

>  <EState_VSA9>
5.26

>  <EState_VSA10>
25.12

>  <VSA_EState1>
0

>  <VSA_EState2>
23.44

>  <VSA_EState3>
38.78

>  <VSA_EState4>
-0.86

>  <VSA_EState5>
-2.08

>  <VSA_EState6>
3.75

>  <VSA_EState7>
1.13

>  <VSA_EState8>
4.34

>  <VSA_EState9>
0

>  <apol>
40.69

>  <bpol>
19.36

>  <nRing>
1

>  <nHRing>
0

>  <naRing>
1

>  <naHRing>
0

>  <nARing 2>
0

>  <nAHRing 2>
0

>  <nFRing>
0

>  <nFHRing>
0

>  <nFaRing>
0

>  <nFaHRing>
0

>  <nFARing 2>
0

>  <nFAHRing 2>
0

>  <nRot>
5

>  <SLogP>
1.78

>  <SMR>
77.94

>  <TopoPSA(NO)>
127.7

>  <TopoPSA>
127.7

>  <JGI1>
0.25

>  <JGI2>
0.1

>  <JGI3>
0.07

>  <JGI4>
0.04

>  <JGI5>
0.03

>  <Diameter>
10

>  <Radius>
5

>  <TMWC10>
116.62

>  <TSRW10>
55.56

>  <MW>
305.1

>  <AMW>
8.25

>  <WPath>
1078

>  <WPol>
35

>  <Zagreb1>
104

>  <Zagreb2>
120

>  <mZagreb2>
5.22

>  <yes>


>  <nAR-cont>
0.336376

>  <nHA-cont>
0.983774276

>  <MWHBN>
0.458003591

>  <MWHBN-cont>
0

>  <TPSA-cont>
0

>  <pka_cont>
0.97

>  <yes.1>


>  <BBB_SCORE>
1.805150276

>  <MMFF94 Energy>
33.638

$$$$
Compound 2463
Actelion Java MolfileCreator 2.0

  0  0  0  0  0  0              0 V3000
M  V30 BEGIN CTAB
M  V30 COUNTS 35 35 0 0 0
M  V30 BEGIN ATOM
M  V30 1 O 0.0 -0.6203 -1.7842 0
M  V30 2 C 0.27 0.0802 -0.8081 0
M  V30 3 N 0.238 -0.4335 0.4724 0
M  V30 4 N 0.6428 1.4128 -0.9354 0
M  V30 5 C -0.6055 0.1793 1.5006 0
M  V30 6 C 0.417 -1.8719 0.6504 0
M  V30 7 C 1.5265 2.0968 0.0161 0
M  V30 8 C 0.3955 2.0633 -2.2212 0
M  V30 9 C -1.9479 -0.5764 1.6382 0
M  V30 10 C -0.9363 -2.5969 0.772 0
M  V30 11 C 2.9473 1.5477 0.0046 0
M  V30 12 C 1.555 1.9463 -3.1969 0
M  V30 13 N -1.7599 -2.0263 1.8646 0
M  V30 14 C -3.0517 -2.7066 1.9368 0
M  V30 15 H -0.0521 0.1541 2.4461 0
M  V30 16 H -0.8351 1.2194 1.2511 0
M  V30 17 H 1.0072 -2.017 1.5633 0
M  V30 18 H 0.9915 -2.2861 -0.1855 0
M  V30 19 H 1.1342 2.0039 1.0301 0
M  V30 20 H 1.5366 3.1672 -0.2176 0
M  V30 21 H 0.1573 3.1166 -2.0355 0
M  V30 22 H -0.4953 1.6158 -2.678 0
M  V30 23 H -2.5024 -0.1416 2.4785 0
M  V30 24 H -2.5424 -0.4106 0.7295 0
M  V30 25 H -0.7439 -3.6573 0.9729 0
M  V30 26 H -1.4728 -2.5313 -0.1836 0
M  V30 27 H 3.4095 1.6403 -0.9812 0
M  V30 28 H 2.9677 0.489 0.2818 0
M  V30 29 H 3.5675 2.0955 0.721 0
M  V30 30 H 1.8569 0.9036 -3.3363 0
M  V30 31 H 2.4251 2.5082 -2.8457 0
M  V30 32 H 1.2698 2.3546 -4.1716 0
M  V30 33 H -2.9116 -3.7745 2.137 0
M  V30 34 H -3.6301 -2.6022 1.0118 0
M  V30 35 H -3.6493 -2.307 2.7637 0
M  V30 END ATOM
M  V30 BEGIN BOND
M  V30 1 2 1 2
M  V30 2 1 2 3
M  V30 3 1 2 4
M  V30 4 1 3 5
M  V30 5 1 3 6
M  V30 6 1 4 7
M  V30 7 1 4 8
M  V30 8 1 5 9
M  V30 9 1 6 10
M  V30 10 1 7 11
M  V30 11 1 8 12
M  V30 12 1 9 13
M  V30 13 1 13 14
M  V30 14 1 10 13
M  V30 15 1 5 15
M  V30 16 1 5 16
M  V30 17 1 6 17
M  V30 18 1 6 18
M  V30 19 1 7 19
M  V30 20 1 7 20
M  V30 21 1 8 21
M  V30 22 1 8 22
M  V30 23 1 9 23
M  V30 24 1 9 24
M  V30 25 1 10 25
M  V30 26 1 10 26
M  V30 27 1 11 27
M  V30 28 1 11 28
M  V30 29 1 11 29
M  V30 30 1 12 30
M  V30 31 1 12 31
M  V30 32 1 12 32
M  V30 33 1 14 33
M  V30 34 1 14 34
M  V30 35 1 14 35
M  V30 END BOND
M  V30 END CTAB
M  END
>  <Column 1>
3046

>  <level_0>
5197

>  <index>
5198

>  <Unnamed: 0>
5198

>  <NO.>
5210

>  <Name>
diethylcarbamazine citrate

>  <IUPAC_name>
n-n-diethyl-4-methylpiperazine-1-carboxamide

>  <SMILES>
CCN(CC)C(=O)N1CCN(C)CC1

>  <CID>
3052

>  <logBB>


>  <BBB+/BBB->
BBB-

>  <Inchi>
InChI=1S/C10H21N3O/c1-4-12(5-2)10(14)13-8-6-11(3)7-9-13/h4-9H2-1-3H3

>  <threshold>


>  <reference>
R14|

>  <group>
C

>  <Class>
-1

>  <ABC>
10.04

>  <ABCGG>
9.55

>  <nAcid>
0

>  <nBase>
1

>  <nAromAtom>
0

>  <nAromBond>
0

>  <nAtom>
35

>  <nHeavyAtom>
14

>  <nSpiro>
0

>  <nBridgehead>
0

>  <nHetero>
4

>  <nN>
3

>  <nO>
1

>  <nF>
0

>  <BalabanJ>
2.39

>  <BertzCT>
183.81

>  <nBonds>
35

>  <nBondsO>
14

>  <nBondsS>
34

>  <nBondsD>
1

>  <nBondsT>
0

>  <nBondsA>
0

>  <nBondsM>
1

>  <nBondsKS>
34

>  <nBondsKD>
1

>  <RNCG>
0.25

>  <RPCG>
0.24

>  <FCSP3>
0.9

>  <SZ>
18.33

>  <Sm>
16.59

>  <Sv>
18.68

>  <Sse>
34.64

>  <Sp>
20.84

>  <Si>
40.44

>  <MZ>
0.52

>  <Mm>
0.47

>  <Mv>
0.53

>  <Mse>
0.99

>  <Mp>
0.6

>  <Mi>
1.16

>  <NsCH3>
3

>  <NdCH2>
0

>  <NssCH2>
6

>  <NtCH>
0

>  <NdsCH>
0

>  <NaaCH>
0

>  <NsssCH>
0

>  <NddC>
0

>  <NtsC>
0

>  <NdssC>
1

>  <NaasC>
0

>  <NaaaC>
0

>  <NssssC>
0

>  <NsNH3>
0

>  <NsNH2>
0

>  <NssNH2>
0

>  <NdNH>
0

>  <NssNH>
0

>  <NaaNH>
0

>  <NtN>
0

>  <NsssNH>
0

>  <NdsN>
0

>  <NaaN>
0

>  <NsssN>
3

>  <NddsN>
0

>  <NaasN>
0

>  <NssssN>
0

>  <NsOH>
0

>  <NdO>
1

>  <NssO>
0

>  <NaaO>
0

>  <NsF>
0

>  <NsSiH3>
0

>  <NssSiH2>
0

>  <NsssSiH>
0

>  <NssssSi>
0

>  <NsPH2>
0

>  <NssPH>
0

>  <NsssP>
0

>  <NdsssP>
0

>  <NsssssP>
0

>  <NsSH>
0

>  <NdS>
0

>  <NssS>
0

>  <NaaS>
0

>  <NdssS>
0

>  <NddssS>
0

>  <NsCl>
0

>  <NsBr>
0

>  <NsI>
0

>  <fragCpx>
14.04

>  <fMF>
0.17

>  <nHBAcc>
2

>  <nHBDon>
0

>  <Kier1>
12.07

>  <Kier2>
5.78

>  <Lipinski>
1

>  <GhoseFilter>
1

>  <FilterItLogS>
-0.92

>  <VMcGowan>
172.41

>  <LabuteASA>
86.46

>  <PEOE_VSA1>
14.7

>  <PEOE_VSA2>
0

>  <PEOE_VSA3>
4.79

>  <PEOE_VSA4>
0

>  <PEOE_VSA5>
0

>  <PEOE_VSA6>
0

>  <PEOE_VSA7>
20.9

>  <PEOE_VSA8>
39.27

>  <PEOE_VSA9>
0

>  <PEOE_VSA10>
0

>  <PEOE_VSA11>
0

>  <PEOE_VSA12>
0

>  <PEOE_VSA13>
0

>  <SMR_VSA1>
4.79

>  <SMR_VSA2>
0

>  <SMR_VSA3>
14.7

>  <SMR_VSA4>
0

>  <SMR_VSA5>
13.85

>  <SMR_VSA6>
46.32

>  <SMR_VSA7>
0

>  <SMR_VSA8>
0

>  <SMR_VSA9>
0

>  <SlogP_VSA1>
0

>  <SlogP_VSA2>
67.05

>  <SlogP_VSA3>
0

>  <SlogP_VSA4>
0

>  <SlogP_VSA5>
13.85

>  <SlogP_VSA6>
0

>  <SlogP_VSA7>
0

>  <SlogP_VSA8>
0

>  <SlogP_VSA9>
0

>  <SlogP_VSA10>
4.79

>  <SlogP_VSA11>
0

>  <EState_VSA1>
0

>  <EState_VSA2>
6.03

>  <EState_VSA3>
0

>  <EState_VSA4>
39.27

>  <EState_VSA5>
0

>  <EState_VSA6>
0

>  <EState_VSA7>
23.65

>  <EState_VSA8>
11.95

>  <EState_VSA9>
0

>  <EState_VSA10>
4.79

>  <VSA_EState1>
0

>  <VSA_EState2>
17.99

>  <VSA_EState3>
0

>  <VSA_EState4>
0

>  <VSA_EState5>
0

>  <VSA_EState6>
0.2

>  <VSA_EState7>
0

>  <VSA_EState8>
9.38

>  <VSA_EState9>
2.1

>  <apol>
34.8

>  <bpol>
27.07

>  <nRing>
1

>  <nHRing>
1

>  <naRing>
0

>  <naHRing>
0

>  <nARing 2>
1

>  <nAHRing 2>
1

>  <nFRing>
0

>  <nFHRing>
0

>  <nFaRing>
0

>  <nFaHRing>
0

>  <nFARing 2>
0

>  <nFAHRing 2>
0

>  <nRot>
2

>  <SLogP>
0.7

>  <SMR>
57.39

>  <TopoPSA(NO)>
26.79

>  <TopoPSA>
26.79

>  <JGI1>
0.21

>  <JGI2>
0.11

>  <JGI3>
0.06

>  <JGI4>
0.04

>  <JGI5>
0.03

>  <Diameter>
8

>  <Radius>
4

>  <TMWC10>
95.16

>  <TSRW10>
44.91

>  <MW>
199.17

>  <AMW>
5.69

>  <WPath>
314

>  <WPol>
19

>  <Zagreb1>
64

>  <Zagreb2>
72

>  <mZagreb2>
3.39

>  <yes>


>  <nAR-cont>
0.816016

>  <nHA-cont>
0.887625254

>  <MWHBN>
0.141715722

>  <MWHBN-cont>
0.909134658

>  <TPSA-cont>
0.812989164

>  <pka_cont>
0.97

>  <yes.1>


>  <BBB_SCORE>
5.17832157

>  <MMFF94 Energy>
-7.4288

$$$$
Compound 2464
Actelion Java MolfileCreator 2.0

  0  0  0  0  0  0              0 V3000
M  V30 BEGIN CTAB
M  V30 COUNTS 38 38 0 0 0
M  V30 BEGIN ATOM
M  V30 1 O 0.9285 3.0202 1.0059 0
M  V30 2 C 0.1316 2.1258 0.743 0
M  V30 3 N 0.5147 0.8314 0.4865 0
M  V30 4 C -1.3314 2.4088 0.7149 0
M  V30 5 C 1.9086 0.4347 0.4228 0
M  V30 6 C -1.8088 3.5014 1.4468 0
M  V30 7 C -2.2319 1.6446 -0.0349 0
M  V30 8 C 2.0596 -1.0909 0.568 0
M  V30 9 C -3.1736 3.8078 1.4503 0
M  V30 10 C -3.5963 1.9596 -0.0254 0
M  V30 11 N 1.1555 -1.8538 -0.3126 0
M  V30 12 C -4.0809 3.0316 0.7274 0
M  V30 13 C 0.9671 -3.2439 0.1164 0
M  V30 14 C 1.3819 -1.684 -1.7531 0
M  V30 15 N -5.4244 3.3534 0.7096 0
M  V30 16 C 2.1736 -4.1691 0.0313 0
M  V30 17 C 2.822 -1.7226 -2.2584 0
M  V30 18 H -0.1574 0.0982 0.2994 0
M  V30 19 H 2.4645 0.9439 1.2178 0
M  V30 20 H 2.3033 0.7867 -0.5356 0
M  V30 21 H -1.1191 4.1197 2.0179 0
M  V30 22 H -1.8951 0.8203 -0.6552 0
M  V30 23 H 3.1081 -1.3766 0.4285 0
M  V30 24 H 1.8094 -1.3298 1.6105 0
M  V30 25 H -3.5189 4.6636 2.0244 0
M  V30 26 H -4.2795 1.3604 -0.6217 0
M  V30 27 H 0.6082 -3.2405 1.1539 0
M  V30 28 H 0.1439 -3.6868 -0.4585 0
M  V30 29 H 0.7922 -2.4236 -2.3093 0
M  V30 30 H 0.9559 -0.7164 -2.0468 0
M  V30 31 H -6.0895 2.761 0.2327 0
M  V30 32 H -5.7795 4.0974 1.2947 0
M  V30 33 H 1.9369 -5.1268 0.5074 0
M  V30 34 H 3.0462 -3.7547 0.5442 0
M  V30 35 H 2.44 -4.3852 -1.0063 0
M  V30 36 H 2.8288 -1.6398 -3.3506 0
M  V30 37 H 3.3323 -2.6515 -1.9979 0
M  V30 38 H 3.4125 -0.8879 -1.8697 0
M  V30 END ATOM
M  V30 BEGIN BOND
M  V30 1 2 1 2
M  V30 2 1 2 3
M  V30 3 1 2 4
M  V30 4 1 3 5
M  V30 5 2 4 6
M  V30 6 1 4 7
M  V30 7 1 5 8
M  V30 8 1 6 9
M  V30 9 2 7 10
M  V30 10 1 8 11
M  V30 11 2 9 12
M  V30 12 1 11 13
M  V30 13 1 11 14
M  V30 14 1 12 15
M  V30 15 1 13 16
M  V30 16 1 14 17
M  V30 17 1 10 12
M  V30 18 1 3 18
M  V30 19 1 5 19
M  V30 20 1 5 20
M  V30 21 1 6 21
M  V30 22 1 7 22
M  V30 23 1 8 23
M  V30 24 1 8 24
M  V30 25 1 9 25
M  V30 26 1 10 26
M  V30 27 1 13 27
M  V30 28 1 13 28
M  V30 29 1 14 29
M  V30 30 1 14 30
M  V30 31 1 15 31
M  V30 32 1 15 32
M  V30 33 1 16 33
M  V30 34 1 16 34
M  V30 35 1 16 35
M  V30 36 1 17 36
M  V30 37 1 17 37
M  V30 38 1 17 38
M  V30 END BOND
M  V30 END CTAB
M  END
>  <Column 1>
3048

>  <level_0>
5199

>  <index>
5200

>  <Unnamed: 0>
5200

>  <NO.>
5212

>  <Name>
procainamide

>  <IUPAC_name>
4-amino-n-[2-(diethylamino)ethyl]benzamide

>  <SMILES>
CCN(CC)CCNC(=O)c1ccc(N)cc1

>  <CID>
4913

>  <logBB>


>  <BBB+/BBB->
BBB-

>  <Inchi>
InChI=1S/C13H21N3O/c1-3-16(4-2)10-9-15-13(17)11-5-7-12(14)8-6-11/h5-8H-3-4-9-10-14H2-1-2H3-(H-15-17)

>  <threshold>


>  <reference>
R14|R15|

>  <group>
C

>  <Class>
-1

>  <ABC>
12.2

>  <ABCGG>
10.87

>  <nAcid>
0

>  <nBase>
1

>  <nAromAtom>
6

>  <nAromBond>
6

>  <nAtom>
38

>  <nHeavyAtom>
17

>  <nSpiro>
0

>  <nBridgehead>
0

>  <nHetero>
4

>  <nN>
3

>  <nO>
1

>  <nF>
0

>  <BalabanJ>
2.14

>  <BertzCT>
344.19

>  <nBonds>
38

>  <nBondsO>
17

>  <nBondsS>
31

>  <nBondsD>
1

>  <nBondsT>
0

>  <nBondsA>
6

>  <nBondsM>
7

>  <nBondsKS>
34

>  <nBondsKD>
4

>  <RNCG>
0.25

>  <RPCG>
0.16

>  <FCSP3>
0.46

>  <SZ>
21.33

>  <Sm>
19.59

>  <Sv>
21.68

>  <Sse>
37.64

>  <Sp>
23.84

>  <Si>
43.44

>  <MZ>
0.56

>  <Mm>
0.52

>  <Mv>
0.57

>  <Mse>
0.99

>  <Mp>
0.63

>  <Mi>
1.14

>  <NsCH3>
2

>  <NdCH2>
0

>  <NssCH2>
4

>  <NtCH>
0

>  <NdsCH>
0

>  <NaaCH>
4

>  <NsssCH>
0

>  <NddC>
0

>  <NtsC>
0

>  <NdssC>
1

>  <NaasC>
2

>  <NaaaC>
0

>  <NssssC>
0

>  <NsNH3>
0

>  <NsNH2>
1

>  <NssNH2>
0

>  <NdNH>
0

>  <NssNH>
1

>  <NaaNH>
0

>  <NtN>
0

>  <NsssNH>
0

>  <NdsN>
0

>  <NaaN>
0

>  <NsssN>
1

>  <NddsN>
0

>  <NaasN>
0

>  <NssssN>
0

>  <NsOH>
0

>  <NdO>
1

>  <NssO>
0

>  <NaaO>
0

>  <NsF>
0

>  <NsSiH3>
0

>  <NssSiH2>
0

>  <NsssSiH>
0

>  <NssssSi>
0

>  <NsPH2>
0

>  <NssPH>
0

>  <NsssP>
0

>  <NdsssP>
0

>  <NsssssP>
0

>  <NsSH>
0

>  <NdS>
0

>  <NssS>
0

>  <NaaS>
0

>  <NdssS>
0

>  <NddssS>
0

>  <NsCl>
0

>  <NsBr>
0

>  <NsI>
0

>  <fragCpx>
17.04

>  <fMF>
0.16

>  <nHBAcc>
3

>  <nHBDon>
2

>  <Kier1>
15.06

>  <Kier2>
8.16

>  <Lipinski>
1

>  <GhoseFilter>
1

>  <FilterItLogS>
-3.17

>  <VMcGowan>
201.78

>  <LabuteASA>
102.8

>  <PEOE_VSA1>
15.95

>  <PEOE_VSA2>
4.79

>  <PEOE_VSA3>
0

>  <PEOE_VSA4>
0

>  <PEOE_VSA5>
0

>  <PEOE_VSA6>
13.85

>  <PEOE_VSA7>
37.35

>  <PEOE_VSA8>
24.34

>  <PEOE_VSA9>
0

>  <PEOE_VSA10>
0

>  <PEOE_VSA11>
0

>  <PEOE_VSA12>
0

>  <PEOE_VSA13>
5.91

>  <SMR_VSA1>
4.79

>  <SMR_VSA2>
0

>  <SMR_VSA3>
10.22

>  <SMR_VSA4>
0

>  <SMR_VSA5>
13.85

>  <SMR_VSA6>
31.91

>  <SMR_VSA7>
29.83

>  <SMR_VSA8>
0

>  <SMR_VSA9>
0

>  <SlogP_VSA1>
11.05

>  <SlogP_VSA2>
36.99

>  <SlogP_VSA3>
0

>  <SlogP_VSA4>
0

>  <SlogP_VSA5>
24.21

>  <SlogP_VSA6>
24.27

>  <SlogP_VSA7>
0

>  <SlogP_VSA8>
0

>  <SlogP_VSA9>
0

>  <SlogP_VSA10>
5.69

>  <SlogP_VSA11>
0

>  <EState_VSA1>
0

>  <EState_VSA2>
5.91

>  <EState_VSA3>
17.8

>  <EState_VSA4>
19.63

>  <EState_VSA5>
0

>  <EState_VSA6>
24.27

>  <EState_VSA7>
0

>  <EState_VSA8>
24.06

>  <EState_VSA9>
5.73

>  <EState_VSA10>
4.79

>  <VSA_EState1>
0

>  <VSA_EState2>
14.01

>  <VSA_EState3>
2.9

>  <VSA_EState4>
6.89

>  <VSA_EState5>
-0.04

>  <VSA_EState6>
6.95

>  <VSA_EState7>
0

>  <VSA_EState8>
7.8

>  <VSA_EState9>
0

>  <apol>
39.81

>  <bpol>
23.65

>  <nRing>
1

>  <nHRing>
0

>  <naRing>
1

>  <naHRing>
0

>  <nARing 2>
0

>  <nAHRing 2>
0

>  <nFRing>
0

>  <nFHRing>
0

>  <nFaRing>
0

>  <nFaHRing>
0

>  <nFARing 2>
0

>  <nFAHRing 2>
0

>  <nRot>
6

>  <SLogP>
1.34

>  <SMR>
70.98

>  <TopoPSA(NO)>
58.36

>  <TopoPSA>
58.36

>  <JGI1>
0.21

>  <JGI2>
0.1

>  <JGI3>
0.04

>  <JGI4>
0.03

>  <JGI5>
0.03

>  <Diameter>
11

>  <Radius>
6

>  <TMWC10>
101.67

>  <TSRW10>
48.45

>  <MW>
235.17

>  <AMW>
6.19

>  <WPath>
618

>  <WPol>
21

>  <Zagreb1>
76

>  <Zagreb2>
83

>  <mZagreb2>
4.11

>  <yes>


>  <nAR-cont>
0.336376

>  <nHA-cont>
0.976740822

>  <MWHBN>
0.326046126

>  <MWHBN-cont>
0.756592391

>  <TPSA-cont>
0.592610961

>  <pka_cont>
0.97

>  <yes.1>


>  <BBB_SCORE>
4.11822733

>  <MMFF94 Energy>
20.852

$$$$
Compound 2465
Actelion Java MolfileCreator 2.0

  0  0  0  0  0  0              0 V3000
M  V30 BEGIN CTAB
M  V30 COUNTS 43 43 0 0 0
M  V30 BEGIN ATOM
M  V30 1 O 0.3109 1.5557 -1.2444 0
M  V30 2 C -0.3235 0.8761 -0.4457 0
M  V30 3 N 0.129 0.5686 0.8192 0
M  V30 4 C -1.638 0.2983 -0.8407 0
M  V30 5 C 1.383 1.0963 1.3323 0
M  V30 6 C -2.6396 0.0095 0.0915 0
M  V30 7 C -1.8805 0.0673 -2.1989 0
M  V30 8 C 2.6093 0.3491 0.7719 0
M  V30 9 C -3.8601 -0.5339 -0.3305 0
M  V30 10 C -3.1006 -0.4747 -2.616 0
M  V30 11 N 3.8718 0.772 1.4224 0
M  V30 12 C -4.0953 -0.7903 -1.6831 0
M  V30 13 C 5.0203 0.5419 0.5252 0
M  V30 14 C 4.0526 0.0603 2.7021 0
M  V30 15 N -5.302 -1.3231 -2.1781 0
M  V30 16 C 5.1279 1.6208 -0.5491 0
M  V30 17 C 5.0123 0.7941 3.6342 0
M  V30 18 C -6.3093 -1.9243 -1.4444 0
M  V30 19 O -6.315 -2.1332 -0.2366 0
M  V30 20 C -7.4611 -2.36 -2.3148 0
M  V30 21 H -0.3841 -0.078 1.4009 0
M  V30 22 H 1.3243 1.0134 2.4216 0
M  V30 23 H 1.4449 2.1611 1.0787 0
M  V30 24 H -2.509 0.2263 1.1476 0
M  V30 25 H -1.1173 0.3073 -2.9369 0
M  V30 26 H 2.4719 -0.7368 0.8649 0
M  V30 27 H 2.6392 0.5475 -0.3051 0
M  V30 28 H -4.618 -0.73 0.4229 0
M  V30 29 H -3.2539 -0.6479 -3.678 0
M  V30 30 H 5.9611 0.5753 1.0854 0
M  V30 31 H 4.9701 -0.4523 0.0637 0
M  V30 32 H 3.0992 -0.0121 3.238 0
M  V30 33 H 4.3944 -0.9694 2.5384 0
M  V30 34 H -5.4221 -1.2971 -3.1831 0
M  V30 35 H 6.0397 1.47 -1.1365 0
M  V30 36 H 5.1823 2.6178 -0.0987 0
M  V30 37 H 4.284 1.6042 -1.2442 0
M  V30 38 H 5.0425 0.2913 4.6067 0
M  V30 39 H 4.6842 1.8255 3.802 0
M  V30 40 H 6.0343 0.817 3.2459 0
M  V30 41 H -7.7543 -1.5516 -2.9909 0
M  V30 42 H -8.3193 -2.6184 -1.6881 0
M  V30 43 H -7.1649 -3.2353 -2.8993 0
M  V30 END ATOM
M  V30 BEGIN BOND
M  V30 1 2 1 2
M  V30 2 1 2 3
M  V30 3 1 2 4
M  V30 4 1 3 5
M  V30 5 2 4 6
M  V30 6 1 4 7
M  V30 7 1 5 8
M  V30 8 1 6 9
M  V30 9 2 7 10
M  V30 10 1 8 11
M  V30 11 2 9 12
M  V30 12 1 11 13
M  V30 13 1 11 14
M  V30 14 1 12 15
M  V30 15 1 13 16
M  V30 16 1 14 17
M  V30 17 1 15 18
M  V30 18 2 18 19
M  V30 19 1 18 20
M  V30 20 1 10 12
M  V30 21 1 3 21
M  V30 22 1 5 22
M  V30 23 1 5 23
M  V30 24 1 6 24
M  V30 25 1 7 25
M  V30 26 1 8 26
M  V30 27 1 8 27
M  V30 28 1 9 28
M  V30 29 1 10 29
M  V30 30 1 13 30
M  V30 31 1 13 31
M  V30 32 1 14 32
M  V30 33 1 14 33
M  V30 34 1 15 34
M  V30 35 1 16 35
M  V30 36 1 16 36
M  V30 37 1 16 37
M  V30 38 1 17 38
M  V30 39 1 17 39
M  V30 40 1 17 40
M  V30 41 1 20 41
M  V30 42 1 20 42
M  V30 43 1 20 43
M  V30 END BOND
M  V30 END CTAB
M  END
>  <Column 1>
3049

>  <level_0>
5200

>  <index>
5201

>  <Unnamed: 0>
5201

>  <NO.>
5213

>  <Name>
n-acetylprocainamide

>  <IUPAC_name>
4-acetamido-n-[2-(diethylamino)ethyl]benzamide

>  <SMILES>
CCN(CC)CCNC(=O)c1ccc(NC(C)=O)cc1

>  <CID>
4342

>  <logBB>


>  <BBB+/BBB->
BBB-

>  <Inchi>
InChI=1S/C15H23N3O2/c1-4-18(5-2)11-10-16-15(20)13-6-8-14(9-7-13)17-12(3)19/h6-9H-4-5-10-11H2-1-3H3-(H-16-20)(H-17-19)

>  <threshold>


>  <reference>
R14|

>  <group>
C

>  <Class>
-1

>  <ABC>
14.43

>  <ABCGG>
12.33

>  <nAcid>
0

>  <nBase>
1

>  <nAromAtom>
6

>  <nAromBond>
6

>  <nAtom>
43

>  <nHeavyAtom>
20

>  <nSpiro>
0

>  <nBridgehead>
0

>  <nHetero>
5

>  <nN>
3

>  <nO>
2

>  <nF>
0

>  <BalabanJ>
2.17

>  <BertzCT>
438.94

>  <nBonds>
43

>  <nBondsO>
20

>  <nBondsS>
35

>  <nBondsD>
2

>  <nBondsT>
0

>  <nBondsA>
6

>  <nBondsM>
8

>  <nBondsKS>
38

>  <nBondsKD>
5

>  <RNCG>
0.19

>  <RPCG>
0.14

>  <FCSP3>
0.47

>  <SZ>
25

>  <Sm>
23.09

>  <Sv>
24.93

>  <Sse>
42.86

>  <Sp>
27.12

>  <Si>
49.07

>  <MZ>
0.58

>  <Mm>
0.54

>  <Mv>
0.58

>  <Mse>
1

>  <Mp>
0.63

>  <Mi>
1.14

>  <NsCH3>
3

>  <NdCH2>
0

>  <NssCH2>
4

>  <NtCH>
0

>  <NdsCH>
0

>  <NaaCH>
4

>  <NsssCH>
0

>  <NddC>
0

>  <NtsC>
0

>  <NdssC>
2

>  <NaasC>
2

>  <NaaaC>
0

>  <NssssC>
0

>  <NsNH3>
0

>  <NsNH2>
0

>  <NssNH2>
0

>  <NdNH>
0

>  <NssNH>
2

>  <NaaNH>
0

>  <NtN>
0

>  <NsssNH>
0

>  <NdsN>
0

>  <NaaN>
0

>  <NsssN>
1

>  <NddsN>
0

>  <NaasN>
0

>  <NssssN>
0

>  <NsOH>
0

>  <NdO>
2

>  <NssO>
0

>  <NaaO>
0

>  <NsF>
0

>  <NsSiH3>
0

>  <NssSiH2>
0

>  <NsssSiH>
0

>  <NssssSi>
0

>  <NsPH2>
0

>  <NssPH>
0

>  <NsssP>
0

>  <NdsssP>
0

>  <NsssssP>
0

>  <NsSH>
0

>  <NdS>
0

>  <NssS>
0

>  <NaaS>
0

>  <NdssS>
0

>  <NddssS>
0

>  <NsCl>
0

>  <NsBr>
0

>  <NsI>
0

>  <fragCpx>
20.05

>  <fMF>
0.14

>  <nHBAcc>
3

>  <nHBDon>
2

>  <Kier1>
18.05

>  <Kier2>
9.85

>  <Lipinski>
1

>  <GhoseFilter>
1

>  <FilterItLogS>
-3.91

>  <VMcGowan>
231.53

>  <LabuteASA>
119.9

>  <PEOE_VSA1>
15.53

>  <PEOE_VSA2>
9.59

>  <PEOE_VSA3>
0

>  <PEOE_VSA4>
0

>  <PEOE_VSA5>
0

>  <PEOE_VSA6>
13.85

>  <PEOE_VSA7>
37.35

>  <PEOE_VSA8>
31.26

>  <PEOE_VSA9>
0

>  <PEOE_VSA10>
0

>  <PEOE_VSA11>
0

>  <PEOE_VSA12>
5.91

>  <PEOE_VSA13>
5.91

>  <SMR_VSA1>
9.59

>  <SMR_VSA2>
0

>  <SMR_VSA3>
10.22

>  <SMR_VSA4>
0

>  <SMR_VSA5>
20.77

>  <SMR_VSA6>
31.5

>  <SMR_VSA7>
29.83

>  <SMR_VSA8>
0

>  <SMR_VSA9>
0

>  <SlogP_VSA1>
10.63

>  <SlogP_VSA2>
42.89

>  <SlogP_VSA3>
4.79

>  <SlogP_VSA4>
0

>  <SlogP_VSA5>
31.13

>  <SlogP_VSA6>
24.27

>  <SlogP_VSA7>
0

>  <SlogP_VSA8>
0

>  <SlogP_VSA9>
0

>  <SlogP_VSA10>
5.69

>  <SlogP_VSA11>
0

>  <EState_VSA1>
0

>  <EState_VSA2>
11.81

>  <EState_VSA3>
17.8

>  <EState_VSA4>
19.63

>  <EState_VSA5>
6.92

>  <EState_VSA6>
24.27

>  <EState_VSA7>
0

>  <EState_VSA8>
29.38

>  <EState_VSA9>
0

>  <EState_VSA10>
9.59

>  <VSA_EState1>
0

>  <VSA_EState2>
25.07

>  <VSA_EState3>
5.56

>  <VSA_EState4>
1.29

>  <VSA_EState5>
-0.21

>  <VSA_EState6>
6.86

>  <VSA_EState7>
0

>  <VSA_EState8>
9.11

>  <VSA_EState9>
0

>  <apol>
45.29

>  <bpol>
27.66

>  <nRing>
1

>  <nHRing>
0

>  <naRing>
1

>  <naHRing>
0

>  <nARing 2>
0

>  <nAHRing 2>
0

>  <nFRing>
0

>  <nFHRing>
0

>  <nFaRing>
0

>  <nFaHRing>
0

>  <nFARing 2>
0

>  <nFAHRing 2>
0

>  <nRot>
7

>  <SLogP>
1.72

>  <SMR>
80.87

>  <TopoPSA(NO)>
61.44

>  <TopoPSA>
61.44

>  <JGI1>
0.23

>  <JGI2>
0.08

>  <JGI3>
0.05

>  <JGI4>
0.03

>  <JGI5>
0.03

>  <Diameter>
13

>  <Radius>
7

>  <TMWC10>
109.36

>  <TSRW10>
52.28

>  <MW>
277.18

>  <AMW>
6.45

>  <WPath>
1001

>  <WPol>
25

>  <Zagreb1>
90

>  <Zagreb2>
98

>  <mZagreb2>
4.78

>  <yes>


>  <nAR-cont>
0.336376

>  <nHA-cont>
0.999629945

>  <MWHBN>
0.300323322

>  <MWHBN-cont>
0.839771661

>  <TPSA-cont>
0.571110648

>  <pka_cont>
0.97

>  <yes.1>


>  <BBB_SCORE>
4.222884733

>  <MMFF94 Energy>
12.187

$$$$
Compound 2466
Actelion Java MolfileCreator 2.0

  0  0  0  0  0  0              0 V3000
M  V30 BEGIN CTAB
M  V30 COUNTS 44 44 0 0 0
M  V30 BEGIN ATOM
M  V30 1 S 1.6637 5.6336 -0.6335 0
M  V30 2 O 1.307 5.0043 -1.8852 0
M  V30 3 O 1.516 7.0613 -0.4434 0
M  V30 4 N 0.8126 4.9195 0.6317 0
M  V30 5 C 3.3527 5.2156 -0.2455 0
M  V30 6 C 0.8911 3.5145 0.8412 0
M  V30 7 C 0.4976 2.6077 -0.1424 0
M  V30 8 C 1.3734 3.0465 2.0642 0
M  V30 9 C 0.597 1.2309 0.0861 0
M  V30 10 C 1.4746 1.6718 2.2955 0
M  V30 11 C 1.0798 0.7556 1.3115 0
M  V30 12 C 1.2165 -0.6984 1.6078 0
M  V30 13 O 2.0083 -1.0788 2.4632 0
M  V30 14 N 0.4031 -1.5484 0.9018 0
M  V30 15 C 0.41 -2.9846 1.1047 0
M  V30 16 C -0.2138 -3.7076 -0.1044 0
M  V30 17 N -1.4651 -3.0571 -0.5822 0
M  V30 18 C -2.5826 -3.3696 0.3322 0
M  V30 19 C -1.7792 -3.4927 -1.958 0
M  V30 20 C -3.7303 -2.3735 0.1934 0
M  V30 21 C -0.9204 -2.7733 -2.9942 0
M  V30 22 H 0.777 5.5172 1.4571 0
M  V30 23 H 3.5815 5.5637 0.7634 0
M  V30 24 H 3.4895 4.1369 -0.3336 0
M  V30 25 H 3.9956 5.7263 -0.9659 0
M  V30 26 H 0.1032 2.9573 -1.0941 0
M  V30 27 H 1.6809 3.7353 2.8461 0
M  V30 28 H 0.3117 0.5519 -0.7123 0
M  V30 29 H 1.8593 1.3131 3.2489 0
M  V30 30 H -0.3376 -1.2071 0.2998 0
M  V30 31 H -0.1459 -3.1875 2.0255 0
M  V30 32 H 1.4399 -3.3243 1.2595 0
M  V30 33 H 0.5419 -3.673 -0.8969 0
M  V30 34 H -0.3752 -4.7677 0.1274 0
M  V30 35 H -2.9455 -4.3938 0.1803 0
M  V30 36 H -2.2535 -3.3076 1.3752 0
M  V30 37 H -1.674 -4.5797 -2.064 0
M  V30 38 H -2.8188 -3.2567 -2.2091 0
M  V30 39 H -4.4884 -2.5716 0.9587 0
M  V30 40 H -4.2241 -2.4386 -0.7797 0
M  V30 41 H -3.3766 -1.3462 0.3326 0
M  V30 42 H -1.2576 -3.036 -4.0024 0
M  V30 43 H 0.1359 -3.0455 -2.9221 0
M  V30 44 H -1.0045 -1.6865 -2.887 0
M  V30 END ATOM
M  V30 BEGIN BOND
M  V30 1 2 1 2
M  V30 2 2 1 3
M  V30 3 1 1 4
M  V30 4 1 1 5
M  V30 5 1 4 6
M  V30 6 2 6 7
M  V30 7 1 6 8
M  V30 8 1 7 9
M  V30 9 2 8 10
M  V30 10 2 9 11
M  V30 11 1 11 12
M  V30 12 2 12 13
M  V30 13 1 12 14
M  V30 14 1 14 15
M  V30 15 1 15 16
M  V30 16 1 16 17
M  V30 17 1 17 18
M  V30 18 1 17 19
M  V30 19 1 18 20
M  V30 20 1 19 21
M  V30 21 1 10 11
M  V30 22 1 4 22
M  V30 23 1 5 23
M  V30 24 1 5 24
M  V30 25 1 5 25
M  V30 26 1 7 26
M  V30 27 1 8 27
M  V30 28 1 9 28
M  V30 29 1 10 29
M  V30 30 1 14 30
M  V30 31 1 15 31
M  V30 32 1 15 32
M  V30 33 1 16 33
M  V30 34 1 16 34
M  V30 35 1 18 35
M  V30 36 1 18 36
M  V30 37 1 19 37
M  V30 38 1 19 38
M  V30 39 1 20 39
M  V30 40 1 20 40
M  V30 41 1 20 41
M  V30 42 1 21 42
M  V30 43 1 21 43
M  V30 44 1 21 44
M  V30 END BOND
M  V30 END CTAB
M  END
>  <Column 1>
3050

>  <level_0>
5201

>  <index>
5202

>  <Unnamed: 0>
5202

>  <NO.>
5214

>  <Name>
sematilide

>  <IUPAC_name>
n-[2-(diethylamino)ethyl]-4-(methanesulfonamido)benzamide

>  <SMILES>
CCN(CC)CCNC(=O)c1ccc(NS(C)(=O)=O)cc1

>  <CID>
58505

>  <logBB>


>  <BBB+/BBB->
BBB-

>  <Inchi>
InChI=1S/C14H23N3O3S/c1-4-17(5-2)11-10-15-14(18)12-6-8-13(9-7-12)16-21(3-19)20/h6-9-16H-4-5-10-11H2-1-3H3-(H-15-18)

>  <threshold>


>  <reference>
R14|

>  <group>
C

>  <Class>
-1

>  <ABC>
15.39

>  <ABCGG>
13.07

>  <nAcid>
0

>  <nBase>
1

>  <nAromAtom>
6

>  <nAromBond>
6

>  <nAtom>
44

>  <nHeavyAtom>
21

>  <nSpiro>
0

>  <nBridgehead>
0

>  <nHetero>
7

>  <nN>
3

>  <nO>
3

>  <nF>
0

>  <BalabanJ>
2.21

>  <BertzCT>
551.33

>  <nBonds>
44

>  <nBondsO>
21

>  <nBondsS>
35

>  <nBondsD>
3

>  <nBondsT>
0

>  <nBondsA>
6

>  <nBondsM>
9

>  <nBondsKS>
38

>  <nBondsKD>
6

>  <RNCG>
0.18

>  <RPCG>
0.13

>  <FCSP3>
0.5

>  <SZ>
28

>  <Sm>
26.09

>  <Sv>
25.84

>  <Sse>
44.27

>  <Sp>
28.34

>  <Si>
50.2

>  <MZ>
0.64

>  <Mm>
0.59

>  <Mv>
0.59

>  <Mse>
1.01

>  <Mp>
0.64

>  <Mi>
1.14

>  <NsCH3>
3

>  <NdCH2>
0

>  <NssCH2>
4

>  <NtCH>
0

>  <NdsCH>
0

>  <NaaCH>
4

>  <NsssCH>
0

>  <NddC>
0

>  <NtsC>
0

>  <NdssC>
1

>  <NaasC>
2

>  <NaaaC>
0

>  <NssssC>
0

>  <NsNH3>
0

>  <NsNH2>
0

>  <NssNH2>
0

>  <NdNH>
0

>  <NssNH>
2

>  <NaaNH>
0

>  <NtN>
0

>  <NsssNH>
0

>  <NdsN>
0

>  <NaaN>
0

>  <NsssN>
1

>  <NddsN>
0

>  <NaasN>
0

>  <NssssN>
0

>  <NsOH>
0

>  <NdO>
3

>  <NssO>
0

>  <NaaO>
0

>  <NsF>
0

>  <NsSiH3>
0

>  <NssSiH2>
0

>  <NsssSiH>
0

>  <NssssSi>
0

>  <NsPH2>
0

>  <NssPH>
0

>  <NsssP>
0

>  <NdsssP>
0

>  <NsssssP>
0

>  <NsSH>
0

>  <NdS>
0

>  <NssS>
0

>  <NaaS>
0

>  <NdssS>
0

>  <NddssS>
1

>  <NsCl>
0

>  <NsBr>
0

>  <NsI>
0

>  <fragCpx>
21.07

>  <fMF>
0.14

>  <nHBAcc>
4

>  <nHBDon>
2

>  <Kier1>
19.05

>  <Kier2>
9.21

>  <Lipinski>
1

>  <GhoseFilter>
1

>  <FilterItLogS>
-3.87

>  <VMcGowan>
243.96

>  <LabuteASA>
126.13

>  <PEOE_VSA1>
10.22

>  <PEOE_VSA2>
9.52

>  <PEOE_VSA3>
8.42

>  <PEOE_VSA4>
0

>  <PEOE_VSA5>
0

>  <PEOE_VSA6>
13.85

>  <PEOE_VSA7>
37.35

>  <PEOE_VSA8>
24.34

>  <PEOE_VSA9>
6.26

>  <PEOE_VSA10>
0

>  <PEOE_VSA11>
0

>  <PEOE_VSA12>
10.02

>  <PEOE_VSA13>
5.91

>  <SMR_VSA1>
13.21

>  <SMR_VSA2>
0

>  <SMR_VSA3>
10.22

>  <SMR_VSA4>
0

>  <SMR_VSA5>
13.85

>  <SMR_VSA6>
37.16

>  <SMR_VSA7>
29.83

>  <SMR_VSA8>
0

>  <SMR_VSA9>
0

>  <SlogP_VSA1>
10.04

>  <SlogP_VSA2>
51.66

>  <SlogP_VSA3>
10.02

>  <SlogP_VSA4>
0

>  <SlogP_VSA5>
24.21

>  <SlogP_VSA6>
24.27

>  <SlogP_VSA7>
0

>  <SlogP_VSA8>
0

>  <SlogP_VSA9>
0

>  <SlogP_VSA10>
5.69

>  <SlogP_VSA11>
0

>  <EState_VSA1>
10.02

>  <EState_VSA2>
5.91

>  <EState_VSA3>
17.8

>  <EState_VSA4>
25.89

>  <EState_VSA5>
0

>  <EState_VSA6>
24.27

>  <EState_VSA7>
0

>  <EState_VSA8>
28.79

>  <EState_VSA9>
0

>  <EState_VSA10>
13.21

>  <VSA_EState1>
24.53

>  <VSA_EState2>
14.15

>  <VSA_EState3>
2.85

>  <VSA_EState4>
0.95

>  <VSA_EState5>
-0.16

>  <VSA_EState6>
6.33

>  <VSA_EState7>
1.08

>  <VSA_EState8>
7.48

>  <VSA_EState9>
-3.3

>  <apol>
47.32

>  <bpol>
33.45

>  <nRing>
1

>  <nHRing>
0

>  <naRing>
1

>  <naHRing>
0

>  <nARing 2>
0

>  <nAHRing 2>
0

>  <nFRing>
0

>  <nFHRing>
0

>  <nFaRing>
0

>  <nFaHRing>
0

>  <nFARing 2>
0

>  <nFAHRing 2>
0

>  <nRot>
8

>  <SLogP>
1.13

>  <SMR>
85.03

>  <TopoPSA(NO)>
78.51

>  <TopoPSA>
86.89

>  <JGI1>
0.29

>  <JGI2>
0.08

>  <JGI3>
0.05

>  <JGI4>
0.03

>  <JGI5>
0.03

>  <Diameter>
13

>  <Radius>
7

>  <TMWC10>
112.47

>  <TSRW10>
53.88

>  <MW>
313.15

>  <AMW>
7.12

>  <WPath>
1138

>  <WPol>
26

>  <Zagreb1>
98

>  <Zagreb2>
106

>  <mZagreb2>
4.82

>  <yes>


>  <nAR-cont>
0.336376

>  <nHA-cont>
0.994529749

>  <MWHBN>
0.339058817

>  <MWHBN-cont>
0.710546988

>  <TPSA-cont>
0.393453845

>  <pka_cont>
0.97

>  <yes.1>


>  <BBB_SCORE>
3.668633921

>  <MMFF94 Energy>
-28.512

$$$$
Compound 2467
Actelion Java MolfileCreator 2.0

  0  0  0  0  0  0              0 V3000
M  V30 BEGIN CTAB
M  V30 COUNTS 55 56 0 0 0
M  V30 BEGIN ATOM
M  V30 1 O 1.3381 0.7082 3.0718 0
M  V30 2 C 0.8648 1.2179 2.0625 0
M  V30 3 O 1.1372 0.8015 0.7936 0
M  V30 4 C -0.0835 2.4334 2.0509 0
M  V30 5 C 1.978 -0.3604 0.7146 0
M  V30 6 C 0.7024 3.6723 1.6134 0
M  V30 7 C -0.7404 2.6144 3.441 0
M  V30 8 C -1.343 2.1343 1.2048 0
M  V30 9 C 2.1041 -0.7711 -0.7486 0
M  V30 10 C 1.5468 4.337 2.5214 0
M  V30 11 C 0.6572 4.1478 0.292 0
M  V30 12 C -1.8722 1.5895 3.5109 0
M  V30 13 C -2.1937 1.2121 2.0708 0
M  V30 14 O 0.8473 -1.2815 -1.2 0
M  V30 15 C 2.2894 5.454 2.1315 0
M  V30 16 C 1.4002 5.2655 -0.097 0
M  V30 17 C 0.8878 -1.6608 -2.578 0
M  V30 18 C 2.2125 5.9209 0.8233 0
M  V30 19 C -0.4672 -2.2665 -2.9903 0
M  V30 20 N -0.6907 -3.6232 -2.4331 0
M  V30 21 C -0.0053 -4.6389 -3.2514 0
M  V30 22 C -2.1307 -3.9135 -2.3174 0
M  V30 23 C 0.2495 -5.9246 -2.4708 0
M  V30 24 C -2.7502 -3.2353 -1.0982 0
M  V30 25 H 1.5269 -1.1737 1.2948 0
M  V30 26 H 2.9668 -0.1109 1.1142 0
M  V30 27 H -0.0478 2.4838 4.2795 0
M  V30 28 H -1.1709 3.6209 3.5337 0
M  V30 29 H -1.1334 1.6721 0.2346 0
M  V30 30 H -1.9069 3.0569 1.0118 0
M  V30 31 H 2.3803 0.0938 -1.362 0
M  V30 32 H 2.8646 -1.5529 -0.8477 0
M  V30 33 H 1.6451 3.9862 3.547 0
M  V30 34 H 0.0502 3.6509 -0.4609 0
M  V30 35 H -1.5592 0.7017 4.0715 0
M  V30 36 H -2.7451 2.0074 4.0233 0
M  V30 37 H -3.2598 1.3182 1.8468 0
M  V30 38 H -1.9235 0.1651 1.8906 0
M  V30 39 H 2.9322 5.9547 2.8508 0
M  V30 40 H 1.3473 5.6202 -1.1231 0
M  V30 41 H 1.7131 -2.3592 -2.7508 0
M  V30 42 H 1.0683 -0.7618 -3.1789 0
M  V30 43 H 2.7911 6.7888 0.5194 0
M  V30 44 H -1.2396 -1.5748 -2.636 0
M  V30 45 H -0.546 -2.292 -4.0847 0
M  V30 46 H -0.5688 -4.8556 -4.1676 0
M  V30 47 H 0.9769 -4.2738 -3.5723 0
M  V30 48 H -2.6679 -3.6239 -3.2292 0
M  V30 49 H -2.3002 -4.9878 -2.1877 0
M  V30 50 H 0.845 -6.6153 -3.0771 0
M  V30 51 H -0.6769 -6.4398 -2.2028 0
M  V30 52 H 0.8086 -5.7208 -1.5513 0
M  V30 53 H -3.795 -3.5455 -0.9916 0
M  V30 54 H -2.7389 -2.1446 -1.1755 0
M  V30 55 H -2.2225 -3.5198 -0.1815 0
M  V30 END ATOM
M  V30 BEGIN BOND
M  V30 1 2 1 2
M  V30 2 1 2 3
M  V30 3 1 2 4
M  V30 4 1 3 5
M  V30 5 1 4 6
M  V30 6 1 4 7
M  V30 7 1 4 8
M  V30 8 1 5 9
M  V30 9 2 6 10
M  V30 10 1 6 11
M  V30 11 1 7 12
M  V30 12 1 8 13
M  V30 13 1 9 14
M  V30 14 1 10 15
M  V30 15 2 11 16
M  V30 16 1 14 17
M  V30 17 2 15 18
M  V30 18 1 17 19
M  V30 19 1 19 20
M  V30 20 1 20 21
M  V30 21 1 20 22
M  V30 22 1 21 23
M  V30 23 1 22 24
M  V30 24 1 12 13
M  V30 25 1 16 18
M  V30 26 1 5 25
M  V30 27 1 5 26
M  V30 28 1 7 27
M  V30 29 1 7 28
M  V30 30 1 8 29
M  V30 31 1 8 30
M  V30 32 1 9 31
M  V30 33 1 9 32
M  V30 34 1 10 33
M  V30 35 1 11 34
M  V30 36 1 12 35
M  V30 37 1 12 36
M  V30 38 1 13 37
M  V30 39 1 13 38
M  V30 40 1 15 39
M  V30 41 1 16 40
M  V30 42 1 17 41
M  V30 43 1 17 42
M  V30 44 1 18 43
M  V30 45 1 19 44
M  V30 46 1 19 45
M  V30 47 1 21 46
M  V30 48 1 21 47
M  V30 49 1 22 48
M  V30 50 1 22 49
M  V30 51 1 23 50
M  V30 52 1 23 51
M  V30 53 1 23 52
M  V30 54 1 24 53
M  V30 55 1 24 54
M  V30 56 1 24 55
M  V30 END BOND
M  V30 END CTAB
M  END
>  <Column 1>
3051

>  <level_0>
5202

>  <index>
5203

>  <Unnamed: 0>
5203

>  <NO.>
5215

>  <Name>
carbetapentane

>  <IUPAC_name>
2-[2-(diethylamino)ethoxy]ethyl 1-phenylcyclopentane-1-carboxylate

>  <SMILES>
CCN(CC)CCOCCOC(=O)C1(c2ccccc2)CCCC1

>  <CID>
2562

>  <logBB>


>  <BBB+/BBB->
BBB-

>  <Inchi>
InChI=1S/C20H31NO3/c1-3-21(4-2)14-15-23-16-17-24-19(22)20(12-8-9-13-20)18-10-6-5-7-11-18/h5-7-10-11H-3-4-8-9-12-17H2-1-2H3

>  <threshold>


>  <reference>
R14|

>  <group>
C

>  <Class>
-1

>  <ABC>
17.66

>  <ABCGG>
15.24

>  <nAcid>
0

>  <nBase>
1

>  <nAromAtom>
6

>  <nAromBond>
6

>  <nAtom>
55

>  <nHeavyAtom>
24

>  <nSpiro>
0

>  <nBridgehead>
0

>  <nHetero>
4

>  <nN>
1

>  <nO>
3

>  <nF>
0

>  <BalabanJ>
1.68

>  <BertzCT>
478.92

>  <nBonds>
56

>  <nBondsO>
25

>  <nBondsS>
49

>  <nBondsD>
1

>  <nBondsT>
0

>  <nBondsA>
6

>  <nBondsM>
7

>  <nBondsKS>
52

>  <nBondsKD>
4

>  <RNCG>
0.23

>  <RPCG>
0.16

>  <FCSP3>
0.65

>  <SZ>
30.33

>  <Sm>
27.76

>  <Sv>
31.3

>  <Sse>
54.42

>  <Sp>
34.48

>  <Si>
62.36

>  <MZ>
0.55

>  <Mm>
0.5

>  <Mv>
0.57

>  <Mse>
0.99

>  <Mp>
0.63

>  <Mi>
1.13

>  <NsCH3>
2

>  <NdCH2>
0

>  <NssCH2>
10

>  <NtCH>
0

>  <NdsCH>
0

>  <NaaCH>
5

>  <NsssCH>
0

>  <NddC>
0

>  <NtsC>
0

>  <NdssC>
1

>  <NaasC>
1

>  <NaaaC>
0

>  <NssssC>
1

>  <NsNH3>
0

>  <NsNH2>
0

>  <NssNH2>
0

>  <NdNH>
0

>  <NssNH>
0

>  <NaaNH>
0

>  <NtN>
0

>  <NsssNH>
0

>  <NdsN>
0

>  <NaaN>
0

>  <NsssN>
1

>  <NddsN>
0

>  <NaasN>
0

>  <NssssN>
0

>  <NsOH>
0

>  <NdO>
1

>  <NssO>
2

>  <NaaO>
0

>  <NsF>
0

>  <NsSiH3>
0

>  <NssSiH2>
0

>  <NsssSiH>
0

>  <NssssSi>
0

>  <NsPH2>
0

>  <NssPH>
0

>  <NsssP>
0

>  <NdsssP>
0

>  <NsssssP>
0

>  <NsSH>
0

>  <NdS>
0

>  <NssS>
0

>  <NaaS>
0

>  <NdssS>
0

>  <NddssS>
0

>  <NsCl>
0

>  <NsBr>
0

>  <NsI>
0

>  <fragCpx>
73.04

>  <fMF>
0.2

>  <nHBAcc>
4

>  <nHBDon>
0

>  <Kier1>
20.31

>  <Kier2>
10.87

>  <Lipinski>
1

>  <GhoseFilter>
1

>  <FilterItLogS>
-4.96

>  <VMcGowan>
281.33

>  <LabuteASA>
145.68

>  <PEOE_VSA1>
14.37

>  <PEOE_VSA2>
4.79

>  <PEOE_VSA3>
0

>  <PEOE_VSA4>
0

>  <PEOE_VSA5>
0

>  <PEOE_VSA6>
57.02

>  <PEOE_VSA7>
31.49

>  <PEOE_VSA8>
6.54

>  <PEOE_VSA9>
18.63

>  <PEOE_VSA10>
6.61

>  <PEOE_VSA11>
0

>  <PEOE_VSA12>
0

>  <PEOE_VSA13>
0

>  <SMR_VSA1>
14.27

>  <SMR_VSA2>
0

>  <SMR_VSA3>
4.9

>  <SMR_VSA4>
0

>  <SMR_VSA5>
44.95

>  <SMR_VSA6>
39.45

>  <SMR_VSA7>
35.9

>  <SMR_VSA8>
0

>  <SMR_VSA9>
0

>  <SlogP_VSA1>
0

>  <SlogP_VSA2>
50.32

>  <SlogP_VSA3>
19.68

>  <SlogP_VSA4>
0

>  <SlogP_VSA5>
45.09

>  <SlogP_VSA6>
30.33

>  <SlogP_VSA7>
0

>  <SlogP_VSA8>
0

>  <SlogP_VSA9>
0

>  <SlogP_VSA10>
0

>  <SlogP_VSA11>
0

>  <EState_VSA1>
5.41

>  <EState_VSA2>
5.97

>  <EState_VSA3>
19.82

>  <EState_VSA4>
50.88

>  <EState_VSA5>
0

>  <EState_VSA6>
0

>  <EState_VSA7>
30.33

>  <EState_VSA8>
18.75

>  <EState_VSA9>
9.47

>  <EState_VSA10>
4.79

>  <VSA_EState1>
11.17

>  <VSA_EState2>
15.03

>  <VSA_EState3>
0

>  <VSA_EState4>
0.65

>  <VSA_EState5>
-0.08

>  <VSA_EState6>
10.08

>  <VSA_EState7>
3.95

>  <VSA_EState8>
8.79

>  <VSA_EState9>
0

>  <apol>
57.58

>  <bpol>
37.15

>  <nRing>
2

>  <nHRing>
0

>  <naRing>
1

>  <naHRing>
0

>  <nARing 2>
1

>  <nAHRing 2>
0

>  <nFRing>
0

>  <nFHRing>
0

>  <nFaRing>
0

>  <nFaHRing>
0

>  <nFARing 2>
0

>  <nFAHRing 2>
0

>  <nRot>
10

>  <SLogP>
3.4

>  <SMR>
96.15

>  <TopoPSA(NO)>
38.77

>  <TopoPSA>
38.77

>  <JGI1>
0.16

>  <JGI2>
0.09

>  <JGI3>
0.04

>  <JGI4>
0.02

>  <JGI5>
0.02

>  <Diameter>
14

>  <Radius>
7

>  <TMWC10>
122.52

>  <TSRW10>
71.56

>  <MW>
333.23

>  <AMW>
6.06

>  <WPath>
1594

>  <WPol>
34

>  <Zagreb1>
114

>  <Zagreb2>
131

>  <mZagreb2>
5.75

>  <yes>


>  <nAR-cont>
0.816016

>  <nHA-cont>
0.94700071

>  <MWHBN>
0.21912299

>  <MWHBN-cont>
0.995499739

>  <TPSA-cont>
0.729361325

>  <pka_cont>
0.97

>  <yes.1>


>  <BBB_SCORE>
5.199988969

>  <MMFF94 Energy>
87.068

$$$$
Compound 2468
Actelion Java MolfileCreator 2.0

  0  0  0  0  0  0              0 V3000
M  V30 BEGIN CTAB
M  V30 COUNTS 50 52 0 0 0
M  V30 BEGIN ATOM
M  V30 1 Cl 0.4818 -0.3212 4.1819 0
M  V30 2 C -0.024 1.3297 4.2088 0
M  V30 3 C -0.1831 2.1082 3.0548 0
M  V30 4 C -0.2371 1.9042 5.468 0
M  V30 5 C -0.0039 1.6018 1.6716 0
M  V30 6 C -0.5191 3.4665 3.1808 0
M  V30 7 C -0.5934 3.249 5.5822 0
M  V30 8 O 0.5436 2.313 0.835 0
M  V30 9 C -0.5668 0.3024 1.2365 0
M  V30 10 C -0.7283 4.0319 4.4391 0
M  V30 11 C 0.1659 -0.5947 0.4443 0
M  V30 12 C -1.8936 -0.0048 1.5712 0
M  V30 13 N 1.508 -0.3426 0.1029 0
M  V30 14 C -0.4007 -1.7989 0.0052 0
M  V30 15 C -2.4581 -1.2111 1.1276 0
M  V30 16 C 1.9972 0.1757 -1.0813 0
M  V30 17 C 2.5914 -0.6823 0.8751 0
M  V30 18 C -1.7175 -2.1087 0.3467 0
M  V30 19 N -3.8467 -1.5329 1.4827 0 CHG=1
M  V30 20 N 3.3212 0.1691 -1.0843 0
M  V30 21 C 1.1155 0.6795 -2.1854 0
M  V30 22 C 3.693 -0.3494 0.126 0
M  V30 23 O -4.3234 -2.5906 1.0499 0
M  V30 24 O -4.4567 -0.725 2.1974 0 CHG=-1
M  V30 25 N 0.5473 -0.4192 -3.0022 0
M  V30 26 C 1.6004 -1.0717 -3.8071 0
M  V30 27 C -0.5404 0.1033 -3.8443 0
M  V30 28 C 1.7782 -2.514 -3.3523 0
M  V30 29 C -1.3937 -1.0143 -4.4368 0
M  V30 30 H -0.115 1.3105 6.3717 0
M  V30 31 H -0.6196 4.0901 2.2932 0
M  V30 32 H -0.7522 3.6884 6.5646 0
M  V30 33 H -0.9912 5.084 4.5255 0
M  V30 34 H -2.4855 0.6962 2.1566 0
M  V30 35 H 0.1723 -2.492 -0.609 0
M  V30 36 H 2.4899 -1.1249 1.8548 0
M  V30 37 H -2.1487 -3.0439 -0.0064 0
M  V30 38 H 0.307 1.2635 -1.7278 0
M  V30 39 H 1.6762 1.3827 -2.8152 0
M  V30 40 H 4.7358 -0.4636 0.3915 0
M  V30 41 H 1.3564 -1.0744 -4.8763 0
M  V30 42 H 2.5642 -0.5521 -3.7396 0
M  V30 43 H -1.2157 0.717 -3.2343 0
M  V30 44 H -0.1535 0.7512 -4.6406 0
M  V30 45 H 2.5318 -3.0115 -3.9712 0
M  V30 46 H 0.844 -3.0778 -3.444 0
M  V30 47 H 2.1129 -2.5697 -2.3119 0
M  V30 48 H -2.2422 -0.5863 -4.9808 0
M  V30 49 H -1.794 -1.6611 -3.6487 0
M  V30 50 H -0.8316 -1.6366 -5.1389 0
M  V30 END ATOM
M  V30 BEGIN BOND
M  V30 1 1 1 2
M  V30 2 2 2 3
M  V30 3 1 2 4
M  V30 4 1 3 5
M  V30 5 1 3 6
M  V30 6 2 4 7
M  V30 7 2 5 8
M  V30 8 1 5 9
M  V30 9 2 6 10
M  V30 10 2 9 11
M  V30 11 1 9 12
M  V30 12 1 11 13
M  V30 13 1 11 14
M  V30 14 2 12 15
M  V30 15 1 13 16
M  V30 16 1 13 17
M  V30 17 2 14 18
M  V30 18 1 15 19
M  V30 19 2 16 20
M  V30 20 1 16 21
M  V30 21 2 17 22
M  V30 22 2 19 23
M  V30 23 1 19 24
M  V30 24 1 21 25
M  V30 25 1 25 26
M  V30 26 1 25 27
M  V30 27 1 26 28
M  V30 28 1 27 29
M  V30 29 1 7 10
M  V30 30 1 15 18
M  V30 31 1 20 22
M  V30 32 1 4 30
M  V30 33 1 6 31
M  V30 34 1 7 32
M  V30 35 1 10 33
M  V30 36 1 12 34
M  V30 37 1 14 35
M  V30 38 1 17 36
M  V30 39 1 18 37
M  V30 40 1 21 38
M  V30 41 1 21 39
M  V30 42 1 22 40
M  V30 43 1 26 41
M  V30 44 1 26 42
M  V30 45 1 27 43
M  V30 46 1 27 44
M  V30 47 1 28 45
M  V30 48 1 28 46
M  V30 49 1 28 47
M  V30 50 1 29 48
M  V30 51 1 29 49
M  V30 52 1 29 50
M  V30 END BOND
M  V30 END CTAB
M  END
>  <Column 1>
3053

>  <level_0>
5204

>  <index>
5205

>  <Unnamed: 0>
5205

>  <NO.>
5217

>  <Name>
nizofenone

>  <IUPAC_name>
(2-chlorophenyl)-[2-[2-(diethylaminomethyl)imidazol-1-yl]-5-nitrophenyl]methanone

>  <SMILES>
CCN(CC)Cc1nccn1-c1ccc([N+](=O)[O-])cc1C(=O)c1ccccc1Cl

>  <CID>
4514

>  <logBB>


>  <BBB+/BBB->
BBB+

>  <Inchi>
InChI=1S/C21H21ClN4O3/c1-3-24(4-2)14-20-23-11-12-25(20)19-10-9-15(26(28)29)13-17(19)21(27)16-7-5-6-8-18(16)22/h5-13H-3-4-14H2-1-2H3

>  <threshold>


>  <reference>
R14|R23|

>  <group>
C

>  <Class>
-1

>  <ABC>
22.07

>  <ABCGG>
19.1

>  <nAcid>
0

>  <nBase>
1

>  <nAromAtom>
17

>  <nAromBond>
17

>  <nAtom>
50

>  <nHeavyAtom>
29

>  <nSpiro>
0

>  <nBridgehead>
0

>  <nHetero>
8

>  <nN>
4

>  <nO>
3

>  <nF>
0

>  <BalabanJ>
1.76

>  <BertzCT>
1043.91

>  <nBonds>
52

>  <nBondsO>
31

>  <nBondsS>
33

>  <nBondsD>
2

>  <nBondsT>
0

>  <nBondsA>
17

>  <nBondsM>
19

>  <nBondsKS>
42

>  <nBondsKD>
10

>  <RNCG>
0.14

>  <RPCG>
0.13

>  <FCSP3>
0.24

>  <SZ>
36

>  <Sm>
34.37

>  <Sv>
32.96

>  <Sse>
50.73

>  <Sp>
34.77

>  <Si>
56.3

>  <MZ>
0.72

>  <Mm>
0.69

>  <Mv>
0.66

>  <Mse>
1.01

>  <Mp>
0.7

>  <Mi>
1.13

>  <NsCH3>
2

>  <NdCH2>
0

>  <NssCH2>
3

>  <NtCH>
0

>  <NdsCH>
0

>  <NaaCH>
9

>  <NsssCH>
0

>  <NddC>
0

>  <NtsC>
0

>  <NdssC>
1

>  <NaasC>
6

>  <NaaaC>
0

>  <NssssC>
0

>  <NsNH3>
0

>  <NsNH2>
0

>  <NssNH2>
0

>  <NdNH>
0

>  <NssNH>
0

>  <NaaNH>
0

>  <NtN>
0

>  <NsssNH>
0

>  <NdsN>
0

>  <NaaN>
1

>  <NsssN>
1

>  <NddsN>
1

>  <NaasN>
1

>  <NssssN>
0

>  <NsOH>
0

>  <NdO>
2

>  <NssO>
0

>  <NaaO>
0

>  <NsF>
0

>  <NsSiH3>
0

>  <NssSiH2>
0

>  <NsssSiH>
0

>  <NssssSi>
0

>  <NsPH2>
0

>  <NssPH>
0

>  <NsssP>
0

>  <NdsssP>
0

>  <NsssssP>
0

>  <NsSH>
0

>  <NdS>
0

>  <NssS>
0

>  <NaaS>
0

>  <NdssS>
0

>  <NddssS>
0

>  <NsCl>
1

>  <NsBr>
0

>  <NsI>
0

>  <fragCpx>
149.08

>  <fMF>
0.36

>  <nHBAcc>
6

>  <nHBDon>
0

>  <Kier1>
23.66

>  <Kier2>
11.04

>  <Lipinski>
1

>  <GhoseFilter>
1

>  <FilterItLogS>
-5.89

>  <VMcGowan>
300.94

>  <LabuteASA>
173.25

>  <PEOE_VSA1>
4.57

>  <PEOE_VSA2>
19.81

>  <PEOE_VSA3>
4.98

>  <PEOE_VSA4>
0

>  <PEOE_VSA5>
0

>  <PEOE_VSA6>
37.58

>  <PEOE_VSA7>
31.29

>  <PEOE_VSA8>
30.09

>  <PEOE_VSA9>
27.74

>  <PEOE_VSA10>
5.82

>  <PEOE_VSA11>
5.78

>  <PEOE_VSA12>
0

>  <PEOE_VSA13>
5.69

>  <SMR_VSA1>
9.72

>  <SMR_VSA2>
0

>  <SMR_VSA3>
14.45

>  <SMR_VSA4>
0

>  <SMR_VSA5>
20.39

>  <SMR_VSA6>
13.09

>  <SMR_VSA7>
86.95

>  <SMR_VSA8>
0

>  <SMR_VSA9>
5.69

>  <SlogP_VSA1>
0

>  <SlogP_VSA2>
38.25

>  <SlogP_VSA3>
6.54

>  <SlogP_VSA4>
10.11

>  <SlogP_VSA5>
35.59

>  <SlogP_VSA6>
54.86

>  <SlogP_VSA7>
5.02

>  <SlogP_VSA8>
5.69

>  <SlogP_VSA9>
0

>  <SlogP_VSA10>
5.69

>  <SlogP_VSA11>
0

>  <EState_VSA1>
4.92

>  <EState_VSA2>
17.03

>  <EState_VSA3>
22.82

>  <EState_VSA4>
18.91

>  <EState_VSA5>
12.13

>  <EState_VSA6>
47.29

>  <EState_VSA7>
0

>  <EState_VSA8>
23.73

>  <EState_VSA9>
11.6

>  <EState_VSA10>
14.91

>  <VSA_EState1>
1.8

>  <VSA_EState2>
30.67

>  <VSA_EState3>
11.6

>  <VSA_EState4>
0.86

>  <VSA_EState5>
0.37

>  <VSA_EState6>
10.93

>  <VSA_EState7>
3.41

>  <VSA_EState8>
6.44

>  <VSA_EState9>
0

>  <apol>
58.06

>  <bpol>
28.17

>  <nRing>
3

>  <nHRing>
1

>  <naRing>
3

>  <naHRing>
1

>  <nARing 2>
0

>  <nAHRing 2>
0

>  <nFRing>
0

>  <nFHRing>
0

>  <nFaRing>
0

>  <nFaHRing>
0

>  <nFARing 2>
0

>  <nFAHRing 2>
0

>  <nRot>
8

>  <SLogP>
4.51

>  <SMR>
111.73

>  <TopoPSA(NO)>
81.27

>  <TopoPSA>
81.27

>  <JGI1>
0.18

>  <JGI2>
0.09

>  <JGI3>
0.05

>  <JGI4>
0.03

>  <JGI5>
0.03

>  <Diameter>
12

>  <Radius>
6

>  <TMWC10>
136.74

>  <TSRW10>
77.98

>  <MW>
412.13

>  <AMW>
8.24

>  <WPath>
2153

>  <WPol>
47

>  <Zagreb1>
148

>  <Zagreb2>
175

>  <mZagreb2>
6.61

>  <yes>


>  <nAR-cont>
0.336376

>  <nHA-cont>
0.785905698

>  <MWHBN>
0.295552159

>  <MWHBN-cont>
0.853820965

>  <TPSA-cont>
0.432684934

>  <pka_cont>
0.97

>  <yes.1>


>  <BBB_SCORE>
3.753383015

>  <MMFF94 Energy>
116.63

$$$$
Compound 2469
Actelion Java MolfileCreator 2.0

  0  0  0  0  0  0              0 V3000
M  V30 BEGIN CTAB
M  V30 COUNTS 66 67 0 0 0
M  V30 BEGIN ATOM
M  V30 1 O 0.3138 -3.7717 -0.5493 0
M  V30 2 C -0.2237 -3.8675 -1.6409 0
M  V30 3 O -0.034 -3.04 -2.6983 0
M  V30 4 C -1.2031 -4.9361 -1.9803 0
M  V30 5 C 0.8999 -1.9678 -2.4926 0
M  V30 6 C -1.5234 -5.8754 -0.9897 0
M  V30 7 C -1.8051 -5.029 -3.2392 0
M  V30 8 C 0.1913 -0.7721 -1.864 0
M  V30 9 C -2.4383 -6.9015 -1.2517 0
M  V30 10 C -2.72 -6.0514 -3.5081 0
M  V30 11 C 1.1368 0.4177 -1.7007 0
M  V30 12 O -2.8082 -7.8605 -0.3409 0
M  V30 13 C -3.0426 -6.9904 -2.5228 0
M  V30 14 C 0.4195 1.6056 -1.0429 0
M  V30 15 C -2.2171 -7.8096 0.95 0
M  V30 16 O -3.9279 -8.0246 -2.6982 0
M  V30 17 N 1.3349 2.7424 -0.8407 0
M  V30 18 C -4.554 -8.1517 -3.9664 0
M  V30 19 C 0.9526 3.6131 0.3066 0 CFG=2
M  V30 20 C 1.5308 3.5071 -2.086 0
M  V30 21 C 1.368 2.9303 1.6388 0
M  V30 22 C -0.5295 4.0262 0.3205 0
M  V30 23 C 2.8487 4.2766 -2.0886 0
M  V30 24 C 1.3422 3.8579 2.8339 0
M  V30 25 C 2.3495 4.8148 3.0121 0
M  V30 26 C 0.3108 3.7811 3.7758 0
M  V30 27 C 2.3264 5.6821 4.1101 0
M  V30 28 C 0.29 4.6487 4.8703 0
M  V30 29 C 1.2947 5.6027 5.0448 0
M  V30 30 O 1.1523 6.3866 6.1566 0
M  V30 31 C 2.161 7.3616 6.3874 0
M  V30 32 H 1.2907 -1.6971 -3.4793 0
M  V30 33 H 1.7538 -2.2996 -1.89 0
M  V30 34 H -1.0441 -5.7839 -0.0195 0
M  V30 35 H -1.5737 -4.3136 -4.0246 0
M  V30 36 H -0.6671 -0.4912 -2.4865 0
M  V30 37 H -0.225 -1.0589 -0.8909 0
M  V30 38 H -3.1634 -6.0862 -4.4977 0
M  V30 39 H 1.9928 0.1205 -1.0818 0
M  V30 40 H 1.5319 0.6928 -2.6844 0
M  V30 41 H -0.4545 1.905 -1.6355 0
M  V30 42 H 0.0359 1.2438 -0.0822 0
M  V30 43 H -1.1315 -7.9399 0.893 0
M  V30 44 H -2.6208 -8.6413 1.5354 0
M  V30 45 H -2.4792 -6.8812 1.4681 0
M  V30 46 H -5.1694 -7.2748 -4.1927 0
M  V30 47 H -5.2173 -9.0211 -3.9263 0
M  V30 48 H -3.8164 -8.3328 -4.7548 0
M  V30 49 H 1.5339 4.5397 0.2429 0
M  V30 50 H 1.5718 2.8326 -2.9482 0
M  V30 51 H 0.6958 4.19 -2.2786 0
M  V30 52 H 0.7342 2.0591 1.8453 0
M  V30 53 H 2.3903 2.5374 1.5492 0
M  V30 54 H -1.1893 3.1829 0.5484 0
M  V30 55 H -0.7088 4.7976 1.077 0
M  V30 56 H -0.8388 4.4508 -0.6394 0
M  V30 57 H 3.0127 4.7275 -3.0731 0
M  V30 58 H 3.6929 3.61 -1.8828 0
M  V30 59 H 2.8608 5.0861 -1.3538 0
M  V30 60 H 3.1643 4.8893 2.2946 0
M  V30 61 H -0.485 3.0484 3.6662 0
M  V30 62 H 3.1294 6.405 4.2038 0
M  V30 63 H -0.517 4.5798 5.5955 0
M  V30 64 H 3.1391 6.8915 6.5332 0
M  V30 65 H 1.907 7.8935 7.3093 0
M  V30 66 H 2.1918 8.0971 5.5769 0
M  V30 END ATOM
M  V30 BEGIN BOND
M  V30 1 2 1 2
M  V30 2 1 2 3
M  V30 3 1 2 4
M  V30 4 1 3 5
M  V30 5 2 4 6
M  V30 6 1 4 7
M  V30 7 1 5 8
M  V30 8 1 6 9
M  V30 9 2 7 10
M  V30 10 1 8 11
M  V30 11 1 9 12
M  V30 12 2 9 13
M  V30 13 1 11 14
M  V30 14 1 12 15
M  V30 15 1 13 16
M  V30 16 1 14 17
M  V30 17 1 16 18
M  V30 18 1 17 19
M  V30 19 1 17 20
M  V30 20 1 19 21
M  V30 21 1 19 22
M  V30 22 1 20 23
M  V30 23 1 21 24
M  V30 24 2 24 25
M  V30 25 1 24 26
M  V30 26 1 25 27
M  V30 27 2 26 28
M  V30 28 2 27 29
M  V30 29 1 29 30
M  V30 30 1 30 31
M  V30 31 1 10 13
M  V30 32 1 28 29
M  V30 33 1 5 32
M  V30 34 1 5 33
M  V30 35 1 6 34
M  V30 36 1 7 35
M  V30 37 1 8 36
M  V30 38 1 8 37
M  V30 39 1 10 38
M  V30 40 1 11 39
M  V30 41 1 11 40
M  V30 42 1 14 41
M  V30 43 1 14 42
M  V30 44 1 15 43
M  V30 45 1 15 44
M  V30 46 1 15 45
M  V30 47 1 18 46
M  V30 48 1 18 47
M  V30 49 1 18 48
M  V30 50 1 19 49
M  V30 51 1 20 50
M  V30 52 1 20 51
M  V30 53 1 21 52
M  V30 54 1 21 53
M  V30 55 1 22 54
M  V30 56 1 22 55
M  V30 57 1 22 56
M  V30 58 1 23 57
M  V30 59 1 23 58
M  V30 60 1 23 59
M  V30 61 1 25 60
M  V30 62 1 26 61
M  V30 63 1 27 62
M  V30 64 1 28 63
M  V30 65 1 31 64
M  V30 66 1 31 65
M  V30 67 1 31 66
M  V30 END BOND
M  V30 BEGIN COLLECTION
M  V30 MDLV30/STERAC1 ATOMS=(1 19)
M  V30 END COLLECTION
M  V30 END CTAB
M  END
>  <Column 1>
3054

>  <level_0>
5205

>  <index>
5206

>  <Unnamed: 0>
5206

>  <NO.>
5218

>  <Name>
mebeverine

>  <IUPAC_name>
4-[ethyl-[1-(4-methoxyphenyl)propan-2-yl]amino]butyl 3-4-dimethoxybenzoate

>  <SMILES>
CCN(CCCCOC(=O)c1ccc(OC)c(OC)c1)C(C)Cc1ccc(OC)cc1

>  <CID>
4031

>  <logBB>


>  <BBB+/BBB->
BBB-

>  <Inchi>
InChI=1S/C25H35NO5/c1-6-26(19(2)17-20-9-12-22(28-3)13-10-20)15-7-8-16-31-25(27)21-11-14-23(29-4)24(18-21)30-5/h9-14-18-19H-6-8-15-17H2-1-5H3

>  <threshold>


>  <reference>
R14|

>  <group>
C

>  <Class>
1

>  <ABC>
22.72

>  <ABCGG>
17.78

>  <nAcid>
0

>  <nBase>
1

>  <nAromAtom>
12

>  <nAromBond>
12

>  <nAtom>
66

>  <nHeavyAtom>
31

>  <nSpiro>
0

>  <nBridgehead>
0

>  <nHetero>
6

>  <nN>
1

>  <nO>
5

>  <nF>
0

>  <BalabanJ>
1.6

>  <BertzCT>
806.06

>  <nBonds>
67

>  <nBondsO>
32

>  <nBondsS>
54

>  <nBondsD>
1

>  <nBondsT>
0

>  <nBondsA>
12

>  <nBondsM>
13

>  <nBondsKS>
60

>  <nBondsKD>
7

>  <RNCG>
0.17

>  <RPCG>
0.12

>  <FCSP3>
0.48

>  <SZ>
38.67

>  <Sm>
35.76

>  <Sv>
38.81

>  <Sse>
65.85

>  <Sp>
42.03

>  <Si>
74.61

>  <MZ>
0.59

>  <Mm>
0.54

>  <Mv>
0.59

>  <Mse>
1

>  <Mp>
0.64

>  <Mi>
1.13

>  <NsCH3>
5

>  <NdCH2>
0

>  <NssCH2>
6

>  <NtCH>
0

>  <NdsCH>
0

>  <NaaCH>
7

>  <NsssCH>
1

>  <NddC>
0

>  <NtsC>
0

>  <NdssC>
1

>  <NaasC>
5

>  <NaaaC>
0

>  <NssssC>
0

>  <NsNH3>
0

>  <NsNH2>
0

>  <NssNH2>
0

>  <NdNH>
0

>  <NssNH>
0

>  <NaaNH>
0

>  <NtN>
0

>  <NsssNH>
0

>  <NdsN>
0

>  <NaaN>
0

>  <NsssN>
1

>  <NddsN>
0

>  <NaasN>
0

>  <NssssN>
0

>  <NsOH>
0

>  <NdO>
1

>  <NssO>
4

>  <NaaO>
0

>  <NsF>
0

>  <NsSiH3>
0

>  <NssSiH2>
0

>  <NsssSiH>
0

>  <NssssSi>
0

>  <NsPH2>
0

>  <NssPH>
0

>  <NsssP>
0

>  <NdsssP>
0

>  <NsssssP>
0

>  <NsSH>
0

>  <NdS>
0

>  <NssS>
0

>  <NaaS>
0

>  <NdssS>
0

>  <NddssS>
0

>  <NsCl>
0

>  <NsBr>
0

>  <NsI>
0

>  <fragCpx>
94.06

>  <fMF>
0.32

>  <nHBAcc>
6

>  <nHBDon>
0

>  <Kier1>
27.25

>  <Kier2>
15.01

>  <Lipinski>
1

>  <GhoseFilter>
1

>  <FilterItLogS>
-6.41

>  <VMcGowan>
350.62

>  <LabuteASA>
185.61

>  <PEOE_VSA1>
23.85

>  <PEOE_VSA2>
0

>  <PEOE_VSA3>
4.79

>  <PEOE_VSA4>
0

>  <PEOE_VSA5>
0

>  <PEOE_VSA6>
19.06

>  <PEOE_VSA7>
75.17

>  <PEOE_VSA8>
6.04

>  <PEOE_VSA9>
33.5

>  <PEOE_VSA10>
5.75

>  <PEOE_VSA11>
11.5

>  <PEOE_VSA12>
0

>  <PEOE_VSA13>
0

>  <SMR_VSA1>
23.74

>  <SMR_VSA2>
0

>  <SMR_VSA3>
4.9

>  <SMR_VSA4>
0

>  <SMR_VSA5>
39.15

>  <SMR_VSA6>
41.03

>  <SMR_VSA7>
53.59

>  <SMR_VSA8>
0

>  <SMR_VSA9>
17.25

>  <SlogP_VSA1>
14.21

>  <SlogP_VSA2>
57.94

>  <SlogP_VSA3>
11.16

>  <SlogP_VSA4>
0

>  <SlogP_VSA5>
42.61

>  <SlogP_VSA6>
42.46

>  <SlogP_VSA7>
0

>  <SlogP_VSA8>
0

>  <SlogP_VSA9>
0

>  <SlogP_VSA10>
0

>  <SlogP_VSA11>
17.25

>  <EState_VSA1>
0

>  <EState_VSA2>
5.97

>  <EState_VSA3>
29.71

>  <EState_VSA4>
38.1

>  <EState_VSA5>
5.56

>  <EState_VSA6>
39.53

>  <EState_VSA7>
12.13

>  <EState_VSA8>
30.88

>  <EState_VSA9>
18.95

>  <EState_VSA10>
4.79

>  <VSA_EState1>
21.09

>  <VSA_EState2>
14.74

>  <VSA_EState3>
0

>  <VSA_EState4>
1.76

>  <VSA_EState5>
1.64

>  <VSA_EState6>
13.72

>  <VSA_EState7>
2.79

>  <VSA_EState8>
6.8

>  <VSA_EState9>
4.79

>  <apol>
70.2

>  <bpol>
44.63

>  <nRing>
2

>  <nHRing>
0

>  <naRing>
2

>  <naHRing>
0

>  <nARing 2>
0

>  <nAHRing 2>
0

>  <nFRing>
0

>  <nFHRing>
0

>  <nFaRing>
0

>  <nFaHRing>
0

>  <nFARing 2>
0

>  <nFAHRing 2>
0

>  <nRot>
13

>  <SLogP>
4.6

>  <SMR>
122.47

>  <TopoPSA(NO)>
57.23

>  <TopoPSA>
57.23

>  <JGI1>
0.19

>  <JGI2>
0.09

>  <JGI3>
0.04

>  <JGI4>
0.04

>  <JGI5>
0.03

>  <Diameter>
20

>  <Radius>
10

>  <TMWC10>
137.68

>  <TSRW10>
65.95

>  <MW>
429.25

>  <AMW>
6.5

>  <WPath>
3498

>  <WPol>
45

>  <Zagreb1>
146

>  <Zagreb2>
165

>  <mZagreb2>
7.42

>  <yes>


>  <nAR-cont>
0.336376

>  <nHA-cont>
0.702745138

>  <MWHBN>
0.28959836

>  <MWHBN-cont>
0.870661318

>  <TPSA-cont>
0.600499062

>  <pka_cont>
0.97

>  <yes.1>


>  <BBB_SCORE>
4.031111239

>  <MMFF94 Energy>
88.818

$$$$
Compound 2470
Actelion Java MolfileCreator 2.0

  0  0  0  0  0  0              0 V3000
M  V30 BEGIN CTAB
M  V30 COUNTS 32 32 0 0 0
M  V30 BEGIN ATOM
M  V30 1 F -0.2372 0.6327 4.5944 0
M  V30 2 C -1.2072 1.4102 4.0355 0
M  V30 3 F -0.6599 2.65 3.9025 0
M  V30 4 F -2.1776 1.5299 4.9846 0
M  V30 5 C -1.7192 0.8658 2.7252 0
M  V30 6 C -0.8622 0.1604 1.8641 0
M  V30 7 C -3.0465 1.0866 2.3303 0
M  V30 8 C -1.3205 -0.3317 0.633 0
M  V30 9 C -3.5111 0.5979 1.1098 0
M  V30 10 C -2.6538 -0.1091 0.2671 0
M  V30 11 C -0.3892 -1.0913 -0.2857 0
M  V30 12 C 0.6879 -0.2094 -0.9682 0 CFG=1
M  V30 13 N 1.653 -1.0976 -1.6483 0
M  V30 14 C 0.0434 0.7654 -1.9614 0
M  V30 15 C 2.8636 -0.4022 -2.0883 0
M  V30 16 C 3.8624 -1.411 -2.638 0
M  V30 17 H 0.1724 -0.0098 2.1613 0
M  V30 18 H -3.7268 1.6397 2.9765 0
M  V30 19 H -4.5431 0.769 0.8127 0
M  V30 20 H -3.0328 -0.4813 -0.6826 0
M  V30 21 H -0.9716 -1.6274 -1.0472 0
M  V30 22 H 0.0937 -1.8718 0.3187 0
M  V30 23 H 1.2128 0.3647 -0.1941 0
M  V30 24 H 1.9236 -1.8488 -1.0127 0
M  V30 25 H 0.7837 1.4325 -2.4136 0
M  V30 26 H -0.4694 0.2305 -2.7684 0
M  V30 27 H -0.69 1.4094 -1.4659 0
M  V30 28 H 3.3263 0.135 -1.2527 0
M  V30 29 H 2.6349 0.3194 -2.8784 0
M  V30 30 H 4.1566 -2.1372 -1.8726 0
M  V30 31 H 3.444 -1.9588 -3.4891 0
M  V30 32 H 4.767 -0.8975 -2.9794 0
M  V30 END ATOM
M  V30 BEGIN BOND
M  V30 1 1 1 2
M  V30 2 1 2 3
M  V30 3 1 2 4
M  V30 4 1 2 5
M  V30 5 2 5 6
M  V30 6 1 5 7
M  V30 7 1 6 8
M  V30 8 2 7 9
M  V30 9 2 8 10
M  V30 10 1 8 11
M  V30 11 1 11 12
M  V30 12 1 12 13
M  V30 13 1 12 14
M  V30 14 1 13 15
M  V30 15 1 15 16
M  V30 16 1 9 10
M  V30 17 1 6 17
M  V30 18 1 7 18
M  V30 19 1 9 19
M  V30 20 1 10 20
M  V30 21 1 11 21
M  V30 22 1 11 22
M  V30 23 1 12 23
M  V30 24 1 13 24
M  V30 25 1 14 25
M  V30 26 1 14 26
M  V30 27 1 14 27
M  V30 28 1 15 28
M  V30 29 1 15 29
M  V30 30 1 16 30
M  V30 31 1 16 31
M  V30 32 1 16 32
M  V30 END BOND
M  V30 BEGIN COLLECTION
M  V30 MDLV30/STERAC1 ATOMS=(1 12)
M  V30 END COLLECTION
M  V30 END CTAB
M  END
>  <Column 1>
3055

>  <level_0>
5206

>  <index>
5207

>  <Unnamed: 0>
5207

>  <NO.>
5219

>  <Name>
fenfluramine

>  <IUPAC_name>
n-ethyl-1-[3-(trifluoromethyl)phenyl]propan-2-amine

>  <SMILES>
CCNC(C)Cc1cccc(C(F)(F)F)c1

>  <CID>
3337

>  <logBB>


>  <BBB+/BBB->
BBB+

>  <Inchi>
InChI=1S/C12H16F3N/c1-3-16-9(2)7-10-5-4-6-11(8-10)12(13-14)15/h4-6-8-9-16H-3-7H2-1-2H3

>  <threshold>


>  <reference>
R14|R23|

>  <group>
C

>  <Class>
-1

>  <ABC>
11.84

>  <ABCGG>
10.75

>  <nAcid>
0

>  <nBase>
1

>  <nAromAtom>
6

>  <nAromBond>
6

>  <nAtom>
32

>  <nHeavyAtom>
16

>  <nSpiro>
0

>  <nBridgehead>
0

>  <nHetero>
4

>  <nN>
1

>  <nO>
0

>  <nF>
3

>  <BalabanJ>
2.39

>  <BertzCT>
333.28

>  <nBonds>
32

>  <nBondsO>
16

>  <nBondsS>
26

>  <nBondsD>
0

>  <nBondsT>
0

>  <nBondsA>
6

>  <nBondsM>
6

>  <nBondsKS>
29

>  <nBondsKD>
3

>  <RNCG>
0.26

>  <RPCG>
0.35

>  <FCSP3>
0.5

>  <SZ>
20.33

>  <Sm>
19.25

>  <Sv>
19.03

>  <Sse>
32.64

>  <Sp>
20.05

>  <Si>
37.25

>  <MZ>
0.64

>  <Mm>
0.6

>  <Mv>
0.59

>  <Mse>
1.02

>  <Mp>
0.63

>  <Mi>
1.16

>  <NsCH3>
2

>  <NdCH2>
0

>  <NssCH2>
2

>  <NtCH>
0

>  <NdsCH>
0

>  <NaaCH>
4

>  <NsssCH>
1

>  <NddC>
0

>  <NtsC>
0

>  <NdssC>
0

>  <NaasC>
2

>  <NaaaC>
0

>  <NssssC>
1

>  <NsNH3>
0

>  <NsNH2>
0

>  <NssNH2>
0

>  <NdNH>
0

>  <NssNH>
1

>  <NaaNH>
0

>  <NtN>
0

>  <NsssNH>
0

>  <NdsN>
0

>  <NaaN>
0

>  <NsssN>
0

>  <NddsN>
0

>  <NaasN>
0

>  <NssssN>
0

>  <NsOH>
0

>  <NdO>
0

>  <NssO>
0

>  <NaaO>
0

>  <NsF>
3

>  <NsSiH3>
0

>  <NssSiH2>
0

>  <NsssSiH>
0

>  <NssssSi>
0

>  <NsPH2>
0

>  <NssPH>
0

>  <NsssP>
0

>  <NdsssP>
0

>  <NsssssP>
0

>  <NsSH>
0

>  <NdS>
0

>  <NssS>
0

>  <NaaS>
0

>  <NdssS>
0

>  <NddssS>
0

>  <NsCl>
0

>  <NsBr>
0

>  <NsI>
0

>  <fragCpx>
16.04

>  <fMF>
0.19

>  <nHBAcc>
1

>  <nHBDon>
1

>  <Kier1>
14.06

>  <Kier2>
6.07

>  <Lipinski>
1

>  <GhoseFilter>
1

>  <FilterItLogS>
-4.37

>  <VMcGowan>
171.44

>  <LabuteASA>
93.67

>  <PEOE_VSA1>
5.32

>  <PEOE_VSA2>
0

>  <PEOE_VSA3>
0

>  <PEOE_VSA4>
13.17

>  <PEOE_VSA5>
0

>  <PEOE_VSA6>
25.12

>  <PEOE_VSA7>
31.52

>  <PEOE_VSA8>
6.04

>  <PEOE_VSA9>
5.56

>  <PEOE_VSA10>
0

>  <PEOE_VSA11>
0

>  <PEOE_VSA12>
0

>  <PEOE_VSA13>
0

>  <SMR_VSA1>
13.17

>  <SMR_VSA2>
0

>  <SMR_VSA3>
5.32

>  <SMR_VSA4>
0

>  <SMR_VSA5>
32.49

>  <SMR_VSA6>
6.54

>  <SMR_VSA7>
35.39

>  <SMR_VSA8>
0

>  <SMR_VSA9>
0

>  <SlogP_VSA1>
5.32

>  <SlogP_VSA2>
12.59

>  <SlogP_VSA3>
12.6

>  <SlogP_VSA4>
0

>  <SlogP_VSA5>
24.97

>  <SlogP_VSA6>
24.27

>  <SlogP_VSA7>
0

>  <SlogP_VSA8>
0

>  <SlogP_VSA9>
0

>  <SlogP_VSA10>
13.17

>  <SlogP_VSA11>
0

>  <EState_VSA1>
11.74

>  <EState_VSA2>
6.04

>  <EState_VSA3>
11.98

>  <EState_VSA4>
12.61

>  <EState_VSA5>
12.13

>  <EState_VSA6>
6.07

>  <EState_VSA7>
13.85

>  <EState_VSA8>
5.32

>  <EState_VSA9>
0

>  <EState_VSA10>
13.17

>  <VSA_EState1>
37.31

>  <VSA_EState2>
0

>  <VSA_EState3>
3.17

>  <VSA_EState4>
0.14

>  <VSA_EState5>
0

>  <VSA_EState6>
5.68

>  <VSA_EState7>
-3.64

>  <VSA_EState8>
4.76

>  <VSA_EState9>
0

>  <apol>
33.48

>  <bpol>
19.96

>  <nRing>
1

>  <nHRing>
0

>  <naRing>
1

>  <naHRing>
0

>  <nARing 2>
0

>  <nAHRing 2>
0

>  <nFRing>
0

>  <nFHRing>
0

>  <nFaRing>
0

>  <nFaHRing>
0

>  <nFARing 2>
0

>  <nFAHRing 2>
0

>  <nRot>
4

>  <SLogP>
3.25

>  <SMR>
58.29

>  <TopoPSA(NO)>
12.03

>  <TopoPSA>
12.03

>  <JGI1>
0.31

>  <JGI2>
0.08

>  <JGI3>
0.06

>  <JGI4>
0.04

>  <JGI5>
0.03

>  <Diameter>
9

>  <Radius>
5

>  <TMWC10>
100.82

>  <TSRW10>
47.84

>  <MW>
231.12

>  <AMW>
7.22

>  <WPath>
470

>  <WPol>
20

>  <Zagreb1>
76

>  <Zagreb2>
83

>  <mZagreb2>
3.58

>  <yes>


>  <nAR-cont>
0.336376

>  <nHA-cont>
0.954961865

>  <MWHBN>
0.131556173

>  <MWHBN-cont>
0.875229321

>  <TPSA-cont>
0.91602313

>  <pka_cont>
0.97

>  <yes.1>


>  <BBB_SCORE>
4.921228107

>  <MMFF94 Energy>
53.363

$$$$
Compound 2471
Actelion Java MolfileCreator 2.0

  0  0  0  0  0  0              0 V3000
M  V30 BEGIN CTAB
M  V30 COUNTS 62 64 0 0 0
M  V30 BEGIN ATOM
M  V30 1 O 1.7466 -4.5303 1.9055 0
M  V30 2 C 2.2242 -3.4202 1.7397 0
M  V30 3 O 3.1292 -2.9311 2.613 0
M  V30 4 C 1.9503 -2.4551 0.586 0
M  V30 5 N 0.5694 -2.5496 0.1036 0
M  V30 6 C 2.8 -2.8355 -0.6247 0
M  V30 7 C -0.5696 -2.0317 0.6786 0
M  V30 8 C 0.4949 -3.3223 -1.1235 0
M  V30 9 C 1.917 -3.8344 -1.3839 0
M  V30 10 O -1.6789 -2.1801 0.1544 0
M  V30 11 C -0.4397 -1.2296 1.9954 0
M  V30 12 C 0.1665 -2.4977 -2.366 0
M  V30 13 C 2.1185 -3.8138 -2.9 0
M  V30 14 N -1.3171 -0.0344 1.9513 0
M  V30 15 C -0.9006 -2.1172 3.1501 0
M  V30 16 C 0.803 -3.3056 -3.4856 0
M  V30 17 C -0.8777 0.9791 0.9597 0
M  V30 18 C 0.4248 1.6574 1.4172 0
M  V30 19 C -1.984 2.0378 0.8057 0
M  V30 20 O 0.5309 2.4561 2.3388 0
M  V30 21 O 1.4645 1.2372 0.6329 0
M  V30 22 C -1.6669 3.0438 -0.3075 0
M  V30 23 C 2.7205 1.842 0.9639 0
M  V30 24 C -2.7842 4.0398 -0.4925 0
M  V30 25 C 3.7636 1.3371 -0.0136 0
M  V30 26 C -3.7828 3.8214 -1.4505 0
M  V30 27 C -2.8522 5.1844 0.3131 0
M  V30 28 C -4.8237 4.7382 -1.6075 0
M  V30 29 C -3.8938 6.0997 0.1545 0
M  V30 30 C -4.8783 5.8773 -0.8063 0
M  V30 31 H 3.2198 -3.6389 3.2873 0
M  V30 32 H 2.1597 -1.435 0.916 0
M  V30 33 H 3.7715 -3.2664 -0.3624 0
M  V30 34 H 2.9827 -1.9405 -1.2326 0
M  V30 35 H -0.2177 -4.1475 -1.0061 0
M  V30 36 H 2.0524 -4.8416 -0.9728 0
M  V30 37 H 0.5867 -0.9212 2.1948 0
M  V30 38 H 0.6156 -1.4981 -2.3133 0
M  V30 39 H -0.9106 -2.3712 -2.5102 0
M  V30 40 H 2.3456 -4.8139 -3.2843 0
M  V30 41 H 2.9494 -3.1612 -3.1901 0
M  V30 42 H -2.2481 -0.3652 1.6765 0
M  V30 43 H -1.9381 -2.4468 3.0192 0
M  V30 44 H -0.8307 -1.5861 4.1058 0
M  V30 45 H -0.2833 -3.0181 3.2217 0
M  V30 46 H 0.956 -2.7123 -4.3918 0
M  V30 47 H 0.1598 -4.1553 -3.7445 0
M  V30 48 H -0.721 0.5142 -0.021 0
M  V30 49 H -2.1359 2.5714 1.7538 0
M  V30 50 H -2.9354 1.54 0.5731 0
M  V30 51 H -0.7405 3.5892 -0.09 0
M  V30 52 H -1.4898 2.5147 -1.2525 0
M  V30 53 H 3.0047 1.5642 1.985 0
M  V30 54 H 2.6403 2.9321 0.8849 0
M  V30 55 H 4.739 1.7873 0.1903 0
M  V30 56 H 3.8586 0.2487 0.0504 0
M  V30 57 H 3.4732 1.5715 -1.0431 0
M  V30 58 H -3.7582 2.9342 -2.0789 0
M  V30 59 H -2.0945 5.3667 1.0725 0
M  V30 60 H -5.5941 4.5617 -2.3534 0
M  V30 61 H -3.9383 6.9846 0.7839 0
M  V30 62 H -5.6901 6.5895 -0.9278 0
M  V30 END ATOM
M  V30 BEGIN BOND
M  V30 1 2 1 2
M  V30 2 1 2 3
M  V30 3 1 2 4
M  V30 4 1 4 5
M  V30 5 1 4 6
M  V30 6 1 5 7
M  V30 7 1 5 8
M  V30 8 1 6 9
M  V30 9 2 7 10
M  V30 10 1 7 11
M  V30 11 1 8 12
M  V30 12 1 9 13
M  V30 13 1 11 14
M  V30 14 1 11 15
M  V30 15 1 12 16
M  V30 16 1 14 17
M  V30 17 1 17 18
M  V30 18 1 17 19
M  V30 19 2 18 20
M  V30 20 1 18 21
M  V30 21 1 19 22
M  V30 22 1 21 23
M  V30 23 1 22 24
M  V30 24 1 23 25
M  V30 25 2 24 26
M  V30 26 1 24 27
M  V30 27 1 26 28
M  V30 28 2 27 29
M  V30 29 2 28 30
M  V30 30 1 8 9
M  V30 31 1 13 16
M  V30 32 1 29 30
M  V30 33 1 3 31
M  V30 34 1 4 32
M  V30 35 1 6 33
M  V30 36 1 6 34
M  V30 37 1 8 35
M  V30 38 1 9 36
M  V30 39 1 11 37
M  V30 40 1 12 38
M  V30 41 1 12 39
M  V30 42 1 13 40
M  V30 43 1 13 41
M  V30 44 1 14 42
M  V30 45 1 15 43
M  V30 46 1 15 44
M  V30 47 1 15 45
M  V30 48 1 16 46
M  V30 49 1 16 47
M  V30 50 1 17 48
M  V30 51 1 19 49
M  V30 52 1 19 50
M  V30 53 1 22 51
M  V30 54 1 22 52
M  V30 55 1 23 53
M  V30 56 1 23 54
M  V30 57 1 25 55
M  V30 58 1 25 56
M  V30 59 1 25 57
M  V30 60 1 26 58
M  V30 61 1 27 59
M  V30 62 1 28 60
M  V30 63 1 29 61
M  V30 64 1 30 62
M  V30 END BOND
M  V30 END CTAB
M  END
>  <Column 1>
3056

>  <level_0>
5207

>  <index>
5208

>  <Unnamed: 0>
5208

>  <NO.>
5220

>  <Name>
ramipril

>  <IUPAC_name>
1-[2-[(1-ethoxy-1-oxo-4-phenylbutan-2-yl)amino]propanoyl]-3-3a-4-5-6-6a-hexahydro-2h-cyclopenta[b]pyrrole-2-carboxylic acid

>  <SMILES>
CCOC(=O)C(CCc1ccccc1)NC(C)C(=O)N1C(C(=O)O)CC2CCCC21

>  <CID>
5038

>  <logBB>


>  <BBB+/BBB->
BBB-

>  <Inchi>
InChI=1S/C23H32N2O5/c1-3-30-23(29)18(13-12-16-8-5-4-6-9-16)24-15(2)21(26)25-19-11-7-10-17(19)14-20(25)22(27)28/h4-6-8-9-15-17-20-24H-3-7-10-14H2-1-2H3-(H-27-28)

>  <threshold>


>  <reference>
R14|R23|

>  <group>
C

>  <Class>
-1

>  <ABC>
22.89

>  <ABCGG>
19.92

>  <nAcid>
1

>  <nBase>
1

>  <nAromAtom>
6

>  <nAromBond>
6

>  <nAtom>
62

>  <nHeavyAtom>
30

>  <nSpiro>
0

>  <nBridgehead>
0

>  <nHetero>
7

>  <nN>
2

>  <nO>
5

>  <nF>
0

>  <BalabanJ>
1.61

>  <BertzCT>
753.22

>  <nBonds>
64

>  <nBondsO>
32

>  <nBondsS>
55

>  <nBondsD>
3

>  <nBondsT>
0

>  <nBondsA>
6

>  <nBondsM>
9

>  <nBondsKS>
58

>  <nBondsKD>
6

>  <RNCG>
0.16

>  <RPCG>
0.11

>  <FCSP3>
0.61

>  <SZ>
37.33

>  <Sm>
34.68

>  <Sv>
36.76

>  <Sse>
62.19

>  <Sp>
39.5

>  <Si>
70.27

>  <MZ>
0.6

>  <Mm>
0.56

>  <Mv>
0.59

>  <Mse>
1

>  <Mp>
0.64

>  <Mi>
1.13

>  <NsCH3>
2

>  <NdCH2>
0

>  <NssCH2>
7

>  <NtCH>
0

>  <NdsCH>
0

>  <NaaCH>
5

>  <NsssCH>
5

>  <NddC>
0

>  <NtsC>
0

>  <NdssC>
3

>  <NaasC>
1

>  <NaaaC>
0

>  <NssssC>
0

>  <NsNH3>
0

>  <NsNH2>
0

>  <NssNH2>
0

>  <NdNH>
0

>  <NssNH>
1

>  <NaaNH>
0

>  <NtN>
0

>  <NsssNH>
0

>  <NdsN>
0

>  <NaaN>
0

>  <NsssN>
1

>  <NddsN>
0

>  <NaasN>
0

>  <NssssN>
0

>  <NsOH>
1

>  <NdO>
3

>  <NssO>
1

>  <NaaO>
0

>  <NsF>
0

>  <NsSiH3>
0

>  <NssSiH2>
0

>  <NsssSiH>
0

>  <NssssSi>
0

>  <NsPH2>
0

>  <NssPH>
0

>  <NsssP>
0

>  <NdsssP>
0

>  <NsssssP>
0

>  <NsSH>
0

>  <NdS>
0

>  <NssS>
0

>  <NaaS>
0

>  <NdssS>
0

>  <NddssS>
0

>  <NsCl>
0

>  <NsBr>
0

>  <NsI>
0

>  <fragCpx>
154.07

>  <fMF>
0.32

>  <nHBAcc>
5

>  <nHBDon>
2

>  <Kier1>
24.64

>  <Kier2>
11.74

>  <Lipinski>
1

>  <GhoseFilter>
1

>  <FilterItLogS>
-3.28

>  <VMcGowan>
325.86

>  <LabuteASA>
177.33

>  <PEOE_VSA1>
14.74

>  <PEOE_VSA2>
14.91

>  <PEOE_VSA3>
4.79

>  <PEOE_VSA4>
0

>  <PEOE_VSA5>
0

>  <PEOE_VSA6>
36.75

>  <PEOE_VSA7>
57.43

>  <PEOE_VSA8>
6.04

>  <PEOE_VSA9>
12.65

>  <PEOE_VSA10>
12.08

>  <PEOE_VSA11>
0

>  <PEOE_VSA12>
5.91

>  <PEOE_VSA13>
0

>  <SMR_VSA1>
24.23

>  <SMR_VSA2>
0

>  <SMR_VSA3>
10.22

>  <SMR_VSA4>
5.92

>  <SMR_VSA5>
76.54

>  <SMR_VSA6>
6.61

>  <SMR_VSA7>
35.9

>  <SMR_VSA8>
0

>  <SMR_VSA9>
0

>  <SlogP_VSA1>
5.32

>  <SlogP_VSA2>
58.63

>  <SlogP_VSA3>
25.54

>  <SlogP_VSA4>
5.92

>  <SlogP_VSA5>
51.52

>  <SlogP_VSA6>
30.33

>  <SlogP_VSA7>
0

>  <SlogP_VSA8>
0

>  <SlogP_VSA9>
0

>  <SlogP_VSA10>
0

>  <SlogP_VSA11>
0

>  <EState_VSA1>
24.09

>  <EState_VSA2>
30.44

>  <EState_VSA3>
19.26

>  <EState_VSA4>
24.83

>  <EState_VSA5>
0

>  <EState_VSA6>
18.75

>  <EState_VSA7>
30.33

>  <EState_VSA8>
5.32

>  <EState_VSA9>
4.74

>  <EState_VSA10>
19.49

>  <VSA_EState1>
5.21

>  <VSA_EState2>
39.06

>  <VSA_EState3>
12.76

>  <VSA_EState4>
1.1

>  <VSA_EState5>
-1.31

>  <VSA_EState6>
7.76

>  <VSA_EState7>
4.54

>  <VSA_EState8>
3.72

>  <VSA_EState9>
0

>  <apol>
65.96

>  <bpol>
38.72

>  <nRing>
3

>  <nHRing>
1

>  <naRing>
1

>  <naHRing>
0

>  <nARing 2>
2

>  <nAHRing 2>
1

>  <nFRing>
1

>  <nFHRing>
1

>  <nFaRing>
0

>  <nFaHRing>
0

>  <nFARing 2>
1

>  <nFAHRing 2>
1

>  <nRot>
9

>  <SLogP>
2.38

>  <SMR>
111.8

>  <TopoPSA(NO)>
95.94

>  <TopoPSA>
95.94

>  <JGI1>
0.17

>  <JGI2>
0.08

>  <JGI3>
0.05

>  <JGI4>
0.05

>  <JGI5>
0.03

>  <Diameter>
13

>  <Radius>
7

>  <TMWC10>
138.81

>  <TSRW10>
81.39

>  <MW>
416.23

>  <AMW>
6.71

>  <WPath>
2546

>  <WPol>
45

>  <Zagreb1>
152

>  <Zagreb2>
178

>  <mZagreb2>
6.78

>  <yes>


>  <nAR-cont>
1

>  <nHA-cont>
0.74523694

>  <MWHBN>
0.3431084

>  <MWHBN-cont>
0.69578318

>  <TPSA-cont>
0.330279225

>  <pka_cont>
0.97

>  <yes.1>


>  <BBB_SCORE>
3.934470159

>  <MMFF94 Energy>
107.54

$$$$
Compound 2472
Actelion Java MolfileCreator 2.0

  0  0  0  0  0  0              0 V3000
M  V30 BEGIN CTAB
M  V30 COUNTS 65 67 0 0 0
M  V30 BEGIN ATOM
M  V30 1 O -1.1899 0.5551 4.7664 0
M  V30 2 C -0.4352 1.0015 3.9154 0
M  V30 3 O -0.0217 2.2799 3.9859 0
M  V30 4 C 0.1248 0.2106 2.7303 0
M  V30 5 N 1.0356 0.9406 1.8278 0
M  V30 6 C 0.976 -0.9439 3.2862 0
M  V30 7 C 0.7201 1.9274 0.9152 0
M  V30 8 C 2.3769 0.366 1.8571 0
M  V30 9 C 2.1169 -1.084 2.2762 0
M  V30 10 O 1.5813 2.4149 0.1746 0
M  V30 11 C -0.7567 2.3642 0.7702 0
M  V30 12 C 3.2852 1.1413 2.8193 0
M  V30 13 C 3.3453 -1.8257 2.7946 0
M  V30 14 N -1.1967 2.2009 -0.6385 0
M  V30 15 C -0.8694 3.8492 1.1183 0
M  V30 16 C 4.5468 0.3598 3.162 0
M  V30 17 C 4.2032 -1.0034 3.7516 0
M  V30 18 C -1.2086 0.7944 -1.1141 0
M  V30 19 C -2.234 -0.0533 -0.3413 0
M  V30 20 C -1.5677 0.7927 -2.6096 0
M  V30 21 O -3.3486 0.3045 0.0144 0
M  V30 22 O -1.7092 -1.2943 -0.1038 0
M  V30 23 C -1.4437 -0.5983 -3.2429 0
M  V30 24 C -2.5912 -2.1819 0.5944 0
M  V30 25 C -1.6811 -0.5545 -4.7319 0
M  V30 26 C -1.8527 -3.4842 0.8328 0
M  V30 27 C -2.9852 -0.5956 -5.2435 0
M  V30 28 C -0.6043 -0.4445 -5.6215 0
M  V30 29 C -3.2066 -0.5391 -6.6203 0
M  V30 30 C -0.828 -0.3883 -6.9981 0
M  V30 31 C -2.1284 -0.4368 -7.4971 0
M  V30 32 H -0.4489 2.6355 4.7939 0
M  V30 33 H -0.7138 -0.1603 2.1374 0
M  V30 34 H 1.3586 -0.713 4.2877 0
M  V30 35 H 0.3915 -1.8666 3.37 0
M  V30 36 H 2.8218 0.3869 0.8545 0
M  V30 37 H 1.7197 -1.6369 1.4125 0
M  V30 38 H -1.4221 1.8102 1.4329 0
M  V30 39 H 2.7509 1.3774 3.7486 0
M  V30 40 H 3.5551 2.1069 2.3748 0
M  V30 41 H 3.9667 -2.1047 1.9337 0
M  V30 42 H 3.0451 -2.7624 3.2784 0
M  V30 43 H -0.5405 2.7315 -1.2194 0
M  V30 44 H -1.9075 4.1914 1.0419 0
M  V30 45 H -0.5271 4.0414 2.1395 0
M  V30 46 H -0.2582 4.4713 0.4538 0
M  V30 47 H 5.1587 0.2312 2.261 0
M  V30 48 H 5.1481 0.9293 3.8797 0
M  V30 49 H 5.1269 -1.5501 3.9736 0
M  V30 50 H 3.6789 -0.8717 4.7055 0
M  V30 51 H -0.2098 0.3609 -0.9856 0
M  V30 52 H -2.5898 1.1698 -2.7528 0
M  V30 53 H -0.9021 1.4849 -3.1436 0
M  V30 54 H -0.4487 -1.0159 -3.044 0
M  V30 55 H -2.1613 -1.2962 -2.795 0
M  V30 56 H -3.4842 -2.3657 -0.0131 0
M  V30 57 H -2.88 -1.7408 1.5551 0
M  V30 58 H -2.4848 -4.1996 1.3662 0
M  V30 59 H -1.5387 -3.9286 -0.1173 0
M  V30 60 H -0.9437 -3.3098 1.4182 0
M  V30 61 H -3.8374 -0.6686 -4.5711 0
M  V30 62 H 0.416 -0.3992 -5.248 0
M  V30 63 H -4.2214 -0.5717 -7.0082 0
M  V30 64 H 0.0128 -0.3037 -7.6813 0
M  V30 65 H -2.3017 -0.3911 -8.5689 0
M  V30 END ATOM
M  V30 BEGIN BOND
M  V30 1 2 1 2
M  V30 2 1 2 3
M  V30 3 1 2 4
M  V30 4 1 4 5
M  V30 5 1 4 6
M  V30 6 1 5 7
M  V30 7 1 5 8
M  V30 8 1 6 9
M  V30 9 2 7 10
M  V30 10 1 7 11
M  V30 11 1 8 12
M  V30 12 1 9 13
M  V30 13 1 11 14
M  V30 14 1 11 15
M  V30 15 1 12 16
M  V30 16 1 13 17
M  V30 17 1 14 18
M  V30 18 1 18 19
M  V30 19 1 18 20
M  V30 20 2 19 21
M  V30 21 1 19 22
M  V30 22 1 20 23
M  V30 23 1 22 24
M  V30 24 1 23 25
M  V30 25 1 24 26
M  V30 26 2 25 27
M  V30 27 1 25 28
M  V30 28 1 27 29
M  V30 29 2 28 30
M  V30 30 2 29 31
M  V30 31 1 8 9
M  V30 32 1 16 17
M  V30 33 1 30 31
M  V30 34 1 3 32
M  V30 35 1 4 33
M  V30 36 1 6 34
M  V30 37 1 6 35
M  V30 38 1 8 36
M  V30 39 1 9 37
M  V30 40 1 11 38
M  V30 41 1 12 39
M  V30 42 1 12 40
M  V30 43 1 13 41
M  V30 44 1 13 42
M  V30 45 1 14 43
M  V30 46 1 15 44
M  V30 47 1 15 45
M  V30 48 1 15 46
M  V30 49 1 16 47
M  V30 50 1 16 48
M  V30 51 1 17 49
M  V30 52 1 17 50
M  V30 53 1 18 51
M  V30 54 1 20 52
M  V30 55 1 20 53
M  V30 56 1 23 54
M  V30 57 1 23 55
M  V30 58 1 24 56
M  V30 59 1 24 57
M  V30 60 1 26 58
M  V30 61 1 26 59
M  V30 62 1 26 60
M  V30 63 1 27 61
M  V30 64 1 28 62
M  V30 65 1 29 63
M  V30 66 1 30 64
M  V30 67 1 31 65
M  V30 END BOND
M  V30 END CTAB
M  END
>  <Column 1>
3057

>  <level_0>
5208

>  <index>
5209

>  <Unnamed: 0>
5209

>  <NO.>
5221

>  <Name>
indolapril

>  <IUPAC_name>
1-[2-[(1-ethoxy-1-oxo-4-phenylbutan-2-yl)amino]propanoyl]-2-3-3a-4-5-6-7-7a-octahydroindole-2-carboxylic acid

>  <SMILES>
CCOC(=O)C(CCc1ccccc1)NC(C)C(=O)N1C(C(=O)O)CC2CCCCC21

>  <CID>
5525

>  <logBB>


>  <BBB+/BBB->
BBB-

>  <Inchi>
InChI=1S/C24H34N2O5/c1-3-31-24(30)19(14-13-17-9-5-4-6-10-17)25-16(2)22(27)26-20-12-8-7-11-18(20)15-21(26)23(28)29/h4-6-9-10-16-18-21-25H-3-7-8-11-15H2-1-2H3-(H-28-29)

>  <threshold>


>  <reference>
R14|R23|

>  <group>
C

>  <Class>
-1

>  <ABC>
23.6

>  <ABCGG>
19.81

>  <nAcid>
1

>  <nBase>
1

>  <nAromAtom>
6

>  <nAromBond>
6

>  <nAtom>
65

>  <nHeavyAtom>
31

>  <nSpiro>
0

>  <nBridgehead>
0

>  <nHetero>
7

>  <nN>
2

>  <nO>
5

>  <nF>
0

>  <BalabanJ>
1.63

>  <BertzCT>
768.49

>  <nBonds>
67

>  <nBondsO>
33

>  <nBondsS>
58

>  <nBondsD>
3

>  <nBondsT>
0

>  <nBondsA>
6

>  <nBondsM>
9

>  <nBondsKS>
61

>  <nBondsKD>
6

>  <RNCG>
0.16

>  <RPCG>
0.11

>  <FCSP3>
0.63

>  <SZ>
38.67

>  <Sm>
35.85

>  <Sv>
38.3

>  <Sse>
65.07

>  <Sp>
41.29

>  <Si>
73.69

>  <MZ>
0.59

>  <Mm>
0.55

>  <Mv>
0.59

>  <Mse>
1

>  <Mp>
0.64

>  <Mi>
1.13

>  <NsCH3>
2

>  <NdCH2>
0

>  <NssCH2>
8

>  <NtCH>
0

>  <NdsCH>
0

>  <NaaCH>
5

>  <NsssCH>
5

>  <NddC>
0

>  <NtsC>
0

>  <NdssC>
3

>  <NaasC>
1

>  <NaaaC>
0

>  <NssssC>
0

>  <NsNH3>
0

>  <NsNH2>
0

>  <NssNH2>
0

>  <NdNH>
0

>  <NssNH>
1

>  <NaaNH>
0

>  <NtN>
0

>  <NsssNH>
0

>  <NdsN>
0

>  <NaaN>
0

>  <NsssN>
1

>  <NddsN>
0

>  <NaasN>
0

>  <NssssN>
0

>  <NsOH>
1

>  <NdO>
3

>  <NssO>
1

>  <NaaO>
0

>  <NsF>
0

>  <NsSiH3>
0

>  <NssSiH2>
0

>  <NsssSiH>
0

>  <NssssSi>
0

>  <NsPH2>
0

>  <NssPH>
0

>  <NsssP>
0

>  <NdsssP>
0

>  <NsssssP>
0

>  <NsSH>
0

>  <NdS>
0

>  <NssS>
0

>  <NaaS>
0

>  <NdssS>
0

>  <NddssS>
0

>  <NsCl>
0

>  <NsBr>
0

>  <NsI>
0

>  <fragCpx>
159.07

>  <fMF>
0.32

>  <nHBAcc>
5

>  <nHBDon>
2

>  <Kier1>
25.62

>  <Kier2>
12.46

>  <Lipinski>
1

>  <GhoseFilter>
1

>  <FilterItLogS>
-3.55

>  <VMcGowan>
339.95

>  <LabuteASA>
183.69

>  <PEOE_VSA1>
14.74

>  <PEOE_VSA2>
14.91

>  <PEOE_VSA3>
4.79

>  <PEOE_VSA4>
0

>  <PEOE_VSA5>
0

>  <PEOE_VSA6>
43.17

>  <PEOE_VSA7>
57.43

>  <PEOE_VSA8>
6.04

>  <PEOE_VSA9>
12.65

>  <PEOE_VSA10>
12.08

>  <PEOE_VSA11>
0

>  <PEOE_VSA12>
5.91

>  <PEOE_VSA13>
0

>  <SMR_VSA1>
24.23

>  <SMR_VSA2>
0

>  <SMR_VSA3>
10.22

>  <SMR_VSA4>
5.92

>  <SMR_VSA5>
82.96

>  <SMR_VSA6>
6.61

>  <SMR_VSA7>
35.9

>  <SMR_VSA8>
0

>  <SMR_VSA9>
0

>  <SlogP_VSA1>
5.32

>  <SlogP_VSA2>
58.63

>  <SlogP_VSA3>
25.54

>  <SlogP_VSA4>
5.92

>  <SlogP_VSA5>
57.94

>  <SlogP_VSA6>
30.33

>  <SlogP_VSA7>
0

>  <SlogP_VSA8>
0

>  <SlogP_VSA9>
0

>  <SlogP_VSA10>
0

>  <SlogP_VSA11>
0

>  <EState_VSA1>
24.09

>  <EState_VSA2>
30.44

>  <EState_VSA3>
19.26

>  <EState_VSA4>
31.25

>  <EState_VSA5>
0

>  <EState_VSA6>
18.75

>  <EState_VSA7>
30.33

>  <EState_VSA8>
5.32

>  <EState_VSA9>
4.74

>  <EState_VSA10>
19.49

>  <VSA_EState1>
5.22

>  <VSA_EState2>
39.35

>  <VSA_EState3>
12.87

>  <VSA_EState4>
1.1

>  <VSA_EState5>
-1.31

>  <VSA_EState6>
7.75

>  <VSA_EState7>
5.62

>  <VSA_EState8>
3.74

>  <VSA_EState9>
0

>  <apol>
68.96

>  <bpol>
40.73

>  <nRing>
3

>  <nHRing>
1

>  <naRing>
1

>  <naHRing>
0

>  <nARing 2>
2

>  <nAHRing 2>
1

>  <nFRing>
1

>  <nFHRing>
1

>  <nFaRing>
0

>  <nFaHRing>
0

>  <nFARing 2>
1

>  <nFAHRing 2>
1

>  <nRot>
9

>  <SLogP>
2.77

>  <SMR>
116.41

>  <TopoPSA(NO)>
95.94

>  <TopoPSA>
95.94

>  <JGI1>
0.17

>  <JGI2>
0.08

>  <JGI3>
0.05

>  <JGI4>
0.05

>  <JGI5>
0.03

>  <Diameter>
14

>  <Radius>
7

>  <TMWC10>
140.92

>  <TSRW10>
80.86

>  <MW>
430.25

>  <AMW>
6.62

>  <WPath>
2772

>  <WPol>
48

>  <Zagreb1>
156

>  <Zagreb2>
182

>  <mZagreb2>
7.03

>  <yes>


>  <nAR-cont>
1

>  <nHA-cont>
0.702745138

>  <MWHBN>
0.337471887

>  <MWHBN-cont>
0.716280103

>  <TPSA-cont>
0.330279225

>  <pka_cont>
0.97

>  <yes.1>


>  <BBB_SCORE>
3.922723742

>  <MMFF94 Energy>
103.44

$$$$
Compound 2473
Actelion Java MolfileCreator 2.0

  0  0  0  0  0  0              0 V3000
M  V30 BEGIN CTAB
M  V30 COUNTS 61 63 0 0 0
M  V30 BEGIN ATOM
M  V30 1 S -1.5421 2.0295 -0.6491 0
M  V30 2 C -1.2777 1.364 -2.3514 0
M  V30 3 C -0.841 3.6823 -0.9194 0
M  V30 4 S -0.4269 2.6323 -3.3411 0
M  V30 5 C -0.513 0.031 -2.3145 0
M  V30 6 C -2.6247 0.9572 -2.9581 0
M  V30 7 C -1.0093 4.0484 -2.3793 0
M  V30 8 N -1.5432 -0.9671 -2.0524 0
M  V30 9 C -2.8706 -0.4569 -2.4115 0
M  V30 10 C -1.4132 -2.1776 -1.4107 0
M  V30 11 C -3.5128 -1.3135 -3.4995 0
M  V30 12 O -2.4097 -2.8202 -1.0674 0
M  V30 13 C 0.0101 -2.7017 -1.1173 0
M  V30 14 O -2.9367 -1.919 -4.3905 0
M  V30 15 O -4.861 -1.2829 -3.4554 0
M  V30 16 N 0.1923 -2.9192 0.3339 0
M  V30 17 C 0.1844 -4.0418 -1.8326 0
M  V30 18 C 0.1808 -1.6706 1.1403 0
M  V30 19 C -0.2397 -2.0141 2.587 0
M  V30 20 C 1.5816 -1.0369 1.1206 0
M  V30 21 O -0.1987 -3.1272 3.0962 0
M  V30 22 O -0.6977 -0.8925 3.2173 0
M  V30 23 C 1.6139 0.3712 1.7263 0
M  V30 24 C -1.1356 -1.111 4.5634 0
M  V30 25 C 2.9039 1.0842 1.4016 0
M  V30 26 C -1.5874 0.2196 5.1328 0
M  V30 27 C 4.0157 0.9609 2.2446 0
M  V30 28 C 3.0155 1.853 0.2348 0
M  V30 29 C 5.2133 1.6059 1.9323 0
M  V30 30 C 4.2139 2.4967 -0.0758 0
M  V30 31 C 5.3119 2.3742 0.7736 0
M  V30 32 H 0.2159 3.6686 -0.6321 0
M  V30 33 H -1.3483 4.4059 -0.2741 0
M  V30 34 H 0.2778 0.0117 -1.5604 0
M  V30 35 H -0.0778 -0.2252 -3.2879 0
M  V30 36 H -3.4517 1.6346 -2.7145 0
M  V30 37 H -2.5599 0.926 -4.0548 0
M  V30 38 H -0.4247 4.9382 -2.6308 0
M  V30 39 H -2.0568 4.2523 -2.6269 0
M  V30 40 H -3.4963 -0.4627 -1.5118 0
M  V30 41 H 0.7805 -2.0328 -1.503 0
M  V30 42 H -5.1335 -1.8939 -4.1723 0
M  V30 43 H -0.5705 -3.5252 0.659 0
M  V30 44 H 1.1895 -4.4459 -1.6692 0
M  V30 45 H 0.0404 -3.9215 -2.9122 0
M  V30 46 H -0.5416 -4.7874 -1.4882 0
M  V30 47 H -0.5777 -0.9827 0.7515 0
M  V30 48 H 2.2939 -1.6767 1.6592 0
M  V30 49 H 1.9444 -0.9788 0.0871 0
M  V30 50 H 0.7741 0.9692 1.3539 0
M  V30 51 H 1.499 0.3269 2.8155 0
M  V30 52 H -0.3085 -1.5075 5.1628 0
M  V30 53 H -1.9711 -1.8198 4.5695 0
M  V30 54 H -1.9326 0.106 6.1643 0
M  V30 55 H -0.768 0.9458 5.1117 0
M  V30 56 H -2.4006 0.64 4.5318 0
M  V30 57 H 3.9563 0.3592 3.1489 0
M  V30 58 H 2.1704 1.9512 -0.4413 0
M  V30 59 H 6.0711 1.5056 2.5923 0
M  V30 60 H 4.2933 3.0905 -0.9825 0
M  V30 61 H 6.2461 2.8736 0.531 0
M  V30 END ATOM
M  V30 BEGIN BOND
M  V30 1 1 1 2
M  V30 2 1 1 3
M  V30 3 1 2 4
M  V30 4 1 2 5
M  V30 5 1 2 6
M  V30 6 1 3 7
M  V30 7 1 5 8
M  V30 8 1 6 9
M  V30 9 1 8 10
M  V30 10 1 9 11
M  V30 11 2 10 12
M  V30 12 1 10 13
M  V30 13 2 11 14
M  V30 14 1 11 15
M  V30 15 1 13 16
M  V30 16 1 13 17
M  V30 17 1 16 18
M  V30 18 1 18 19
M  V30 19 1 18 20
M  V30 20 2 19 21
M  V30 21 1 19 22
M  V30 22 1 20 23
M  V30 23 1 22 24
M  V30 24 1 23 25
M  V30 25 1 24 26
M  V30 26 2 25 27
M  V30 27 1 25 28
M  V30 28 1 27 29
M  V30 29 2 28 30
M  V30 30 2 29 31
M  V30 31 1 4 7
M  V30 32 1 8 9
M  V30 33 1 30 31
M  V30 34 1 3 32
M  V30 35 1 3 33
M  V30 36 1 5 34
M  V30 37 1 5 35
M  V30 38 1 6 36
M  V30 39 1 6 37
M  V30 40 1 7 38
M  V30 41 1 7 39
M  V30 42 1 9 40
M  V30 43 1 13 41
M  V30 44 1 15 42
M  V30 45 1 16 43
M  V30 46 1 17 44
M  V30 47 1 17 45
M  V30 48 1 17 46
M  V30 49 1 18 47
M  V30 50 1 20 48
M  V30 51 1 20 49
M  V30 52 1 23 50
M  V30 53 1 23 51
M  V30 54 1 24 52
M  V30 55 1 24 53
M  V30 56 1 26 54
M  V30 57 1 26 55
M  V30 58 1 26 56
M  V30 59 1 27 57
M  V30 60 1 28 58
M  V30 61 1 29 59
M  V30 62 1 30 60
M  V30 63 1 31 61
M  V30 END BOND
M  V30 END CTAB
M  END
>  <Column 1>
3058

>  <level_0>
5209

>  <index>
5210

>  <Unnamed: 0>
5210

>  <NO.>
5222

>  <Name>
spirapril

>  <IUPAC_name>
7-[2-[(1-ethoxy-1-oxo-4-phenylbutan-2-yl)amino]propanoyl]-1-4-dithia-7-azaspiro[4.4]nonane-8-carboxylic acid

>  <SMILES>
CCOC(=O)C(CCc1ccccc1)NC(C)C(=O)N1CC2(CC1C(=O)O)SCCS2

>  <CID>
9890723

>  <logBB>


>  <BBB+/BBB->
BBB-

>  <Inchi>
InChI=1S/C22H30N2O5S2/c1-3-29-21(28)17(10-9-16-7-5-4-6-8-16)23-15(2)19(25)24-14-22(30-11-12-31-22)13-18(24)20(26)27/h4-8-15-17-18-23H-3-9-14H2-1-2H3-(H-26-27)

>  <threshold>


>  <reference>
R14|R23|

>  <group>
C

>  <Class>
-1

>  <ABC>
23.68

>  <ABCGG>
20.32

>  <nAcid>
1

>  <nBase>
1

>  <nAromAtom>
6

>  <nAromBond>
6

>  <nAtom>
61

>  <nHeavyAtom>
31

>  <nSpiro>
1

>  <nBridgehead>
0

>  <nHetero>
9

>  <nN>
2

>  <nO>
5

>  <nF>
0

>  <BalabanJ>
1.61

>  <BertzCT>
785.37

>  <nBonds>
63

>  <nBondsO>
33

>  <nBondsS>
54

>  <nBondsD>
3

>  <nBondsT>
0

>  <nBondsA>
6

>  <nBondsM>
9

>  <nBondsKS>
57

>  <nBondsKD>
6

>  <RNCG>
0.16

>  <RPCG>
0.11

>  <FCSP3>
0.59

>  <SZ>
41.33

>  <Sm>
38.85

>  <Sv>
37.59

>  <Sse>
61.45

>  <Sp>
41.17

>  <Si>
68.7

>  <MZ>
0.68

>  <Mm>
0.64

>  <Mv>
0.62

>  <Mse>
1.01

>  <Mp>
0.67

>  <Mi>
1.13

>  <NsCH3>
2

>  <NdCH2>
0

>  <NssCH2>
7

>  <NtCH>
0

>  <NdsCH>
0

>  <NaaCH>
5

>  <NsssCH>
3

>  <NddC>
0

>  <NtsC>
0

>  <NdssC>
3

>  <NaasC>
1

>  <NaaaC>
0

>  <NssssC>
1

>  <NsNH3>
0

>  <NsNH2>
0

>  <NssNH2>
0

>  <NdNH>
0

>  <NssNH>
1

>  <NaaNH>
0

>  <NtN>
0

>  <NsssNH>
0

>  <NdsN>
0

>  <NaaN>
0

>  <NsssN>
1

>  <NddsN>
0

>  <NaasN>
0

>  <NssssN>
0

>  <NsOH>
1

>  <NdO>
3

>  <NssO>
1

>  <NaaO>
0

>  <NsF>
0

>  <NsSiH3>
0

>  <NssSiH2>
0

>  <NsssSiH>
0

>  <NssssSi>
0

>  <NsPH2>
0

>  <NssPH>
0

>  <NsssP>
0

>  <NdsssP>
0

>  <NsssssP>
0

>  <NsSH>
0

>  <NdS>
0

>  <NssS>
2

>  <NaaS>
0

>  <NdssS>
0

>  <NddssS>
0

>  <NsCl>
0

>  <NsBr>
0

>  <NsI>
0

>  <fragCpx>
159.09

>  <fMF>
0.34

>  <nHBAcc>
7

>  <nHBDon>
2

>  <Kier1>
25.62

>  <Kier2>
11.92

>  <Lipinski>
1

>  <GhoseFilter>
1

>  <FilterItLogS>
-3.62

>  <VMcGowan>
344.47

>  <LabuteASA>
191.21

>  <PEOE_VSA1>
14.74

>  <PEOE_VSA2>
14.91

>  <PEOE_VSA3>
4.79

>  <PEOE_VSA4>
0

>  <PEOE_VSA5>
23.52

>  <PEOE_VSA6>
30.33

>  <PEOE_VSA7>
32.25

>  <PEOE_VSA8>
24.47

>  <PEOE_VSA9>
16.73

>  <PEOE_VSA10>
12.08

>  <PEOE_VSA11>
0

>  <PEOE_VSA12>
5.91

>  <PEOE_VSA13>
0

>  <SMR_VSA1>
24.23

>  <SMR_VSA2>
0

>  <SMR_VSA3>
10.22

>  <SMR_VSA4>
0

>  <SMR_VSA5>
55.31

>  <SMR_VSA6>
24.66

>  <SMR_VSA7>
35.9

>  <SMR_VSA8>
0

>  <SMR_VSA9>
0

>  <SlogP_VSA1>
5.32

>  <SlogP_VSA2>
74.71

>  <SlogP_VSA3>
25.54

>  <SlogP_VSA4>
0

>  <SlogP_VSA5>
32.25

>  <SlogP_VSA6>
30.33

>  <SlogP_VSA7>
0

>  <SlogP_VSA8>
0

>  <SlogP_VSA9>
0

>  <SlogP_VSA10>
0

>  <SlogP_VSA11>
0

>  <EState_VSA1>
30.06

>  <EState_VSA2>
16.59

>  <EState_VSA3>
25.81

>  <EState_VSA4>
17.07

>  <EState_VSA5>
4.9

>  <EState_VSA6>
37.37

>  <EState_VSA7>
30.33

>  <EState_VSA8>
5.32

>  <EState_VSA9>
4.74

>  <EState_VSA10>
19.49

>  <VSA_EState1>
4.98

>  <VSA_EState2>
39.05

>  <VSA_EState3>
12.82

>  <VSA_EState4>
1.1

>  <VSA_EState5>
0.28

>  <VSA_EState6>
7.65

>  <VSA_EState7>
1.6

>  <VSA_EState8>
4.11

>  <VSA_EState9>
0

>  <apol>
68.75

>  <bpol>
41.64

>  <nRing>
3

>  <nHRing>
2

>  <naRing>
1

>  <naHRing>
0

>  <nARing 2>
2

>  <nAHRing 2>
2

>  <nFRing>
0

>  <nFHRing>
0

>  <nFaRing>
0

>  <nFaHRing>
0

>  <nFARing 2>
0

>  <nFAHRing 2>
0

>  <nRot>
9

>  <SLogP>
2.39

>  <SMR>
123.18

>  <TopoPSA(NO)>
95.94

>  <TopoPSA>
146.54

>  <JGI1>
0.21

>  <JGI2>
0.08

>  <JGI3>
0.05

>  <JGI4>
0.05

>  <JGI5>
0.03

>  <Diameter>
14

>  <Radius>
7

>  <TMWC10>
141.15

>  <TSRW10>
82.64

>  <MW>
466.16

>  <AMW>
7.64

>  <WPath>
2809

>  <WPol>
46

>  <Zagreb1>
158

>  <Zagreb2>
184

>  <mZagreb2>
6.97

>  <yes>


>  <nAR-cont>
1

>  <nHA-cont>
0.702745138

>  <MWHBN>
0.416845394

>  <MWHBN-cont>
0.410166421

>  <TPSA-cont>
0

>  <pka_cont>
0.97

>  <yes.1>


>  <BBB_SCORE>
2.802994769

>  <MMFF94 Energy>
118.72

$$$$
Compound 2474
Actelion Java MolfileCreator 2.0

  0  0  0  0  0  0              0 V3000
M  V30 BEGIN CTAB
M  V30 COUNTS 70 72 0 0 0
M  V30 BEGIN ATOM
M  V30 1 O 5.4809 0.3963 2.0625 0
M  V30 2 C 4.3451 0.7025 1.7259 0
M  V30 3 O 4.0585 0.8461 0.4157 0
M  V30 4 C 3.1732 0.9623 2.6833 0
M  V30 5 N 1.8968 1.2673 2.0131 0
M  V30 6 C 3.0194 -0.201 3.6692 0
M  V30 7 C 1.6025 2.6033 1.7336 0
M  V30 8 C 1.1853 0.1543 1.3887 0
M  V30 9 C 2.3437 -1.3937 3.0427 0
M  V30 10 O 2.3557 3.5106 2.0991 0
M  V30 11 C 0.2644 2.9229 0.9983 0
M  V30 12 C 1.4646 -1.21 1.9701 0
M  V30 13 C 2.5538 -2.6813 3.5589 0
M  V30 14 N 0.3132 2.3526 -0.3623 0
M  V30 15 C 0.0121 4.4314 0.9689 0
M  V30 16 C 0.8251 -2.3261 1.4039 0
M  V30 17 C 1.9158 -3.7929 2.9948 0
M  V30 18 C -1.0102 2.2638 -1.0275 0
M  V30 19 C 1.0451 -3.6138 1.9033 0
M  V30 20 O 2.0719 -5.084 3.4357 0
M  V30 21 C -1.1614 3.4077 -2.0418 0
M  V30 22 C -1.0588 0.8978 -1.726 0
M  V30 23 O 0.4573 -4.7488 1.401 0
M  V30 24 C 2.9977 -5.3142 4.4875 0
M  V30 25 O -0.224 4.0178 -2.5423 0
M  V30 26 O -2.4783 3.6461 -2.2959 0
M  V30 27 C -2.4445 0.5487 -2.2792 0
M  V30 28 C -0.3646 -4.6111 0.25 0
M  V30 29 C -2.7132 4.7023 -3.2352 0
M  V30 30 C -2.5327 -0.9158 -2.6361 0
M  V30 31 C -4.2107 4.8323 -3.4335 0
M  V30 32 C -1.9553 -1.3959 -3.8189 0
M  V30 33 C -3.1641 -1.8207 -1.7715 0
M  V30 34 C -2.0133 -2.7546 -4.1328 0
M  V30 35 C -3.2234 -3.1786 -2.0889 0
M  V30 36 C -2.6473 -3.6453 -3.2685 0
M  V30 37 H 4.9119 0.6809 -0.0347 0
M  V30 38 H 3.4814 1.8445 3.2586 0
M  V30 39 H 2.3995 0.1208 4.5159 0
M  V30 40 H 3.998 -0.492 4.0694 0
M  V30 41 H 0.109 0.3376 1.4619 0
M  V30 42 H 1.4726 0.1346 0.3316 0
M  V30 43 H -0.5303 2.4493 1.5878 0
M  V30 44 H 3.225 -2.7912 4.4048 0
M  V30 45 H 0.9462 2.9141 -0.9455 0
M  V30 46 H 0.7712 4.9549 0.3767 0
M  V30 47 H -0.9713 4.6663 0.5498 0
M  V30 48 H 0.043 4.848 1.9821 0
M  V30 49 H 0.1542 -2.1593 0.5659 0
M  V30 50 H -1.815 2.3361 -0.2861 0
M  V30 51 H -0.7668 0.1216 -1.0051 0
M  V30 52 H -0.3222 0.8586 -2.54 0
M  V30 53 H 4.0088 -5.0074 4.2003 0
M  V30 54 H 3.0207 -6.3906 4.683 0
M  V30 55 H 2.6786 -4.8168 5.4093 0
M  V30 56 H -3.2205 0.7907 -1.5424 0
M  V30 57 H -2.6683 1.1459 -3.1711 0
M  V30 58 H -1.2485 -4.0034 0.4695 0
M  V30 59 H -0.7115 -5.6091 -0.0345 0
M  V30 60 H 0.1991 -4.2023 -0.5948 0
M  V30 61 H -2.2333 4.4621 -4.1904 0
M  V30 62 H -2.308 5.6416 -2.8428 0
M  V30 63 H -4.4424 5.6291 -4.1457 0
M  V30 64 H -4.6331 3.8924 -3.8038 0
M  V30 65 H -4.7079 5.0519 -2.4828 0
M  V30 66 H -1.4544 -0.7141 -4.5027 0
M  V30 67 H -3.6165 -1.4742 -0.845 0
M  V30 68 H -1.564 -3.1181 -5.0534 0
M  V30 69 H -3.7214 -3.8723 -1.4163 0
M  V30 70 H -2.6949 -4.7023 -3.5167 0
M  V30 END ATOM
M  V30 BEGIN BOND
M  V30 1 2 1 2
M  V30 2 1 2 3
M  V30 3 1 2 4
M  V30 4 1 4 5
M  V30 5 1 4 6
M  V30 6 1 5 7
M  V30 7 1 5 8
M  V30 8 1 6 9
M  V30 9 2 7 10
M  V30 10 1 7 11
M  V30 11 1 8 12
M  V30 12 1 9 13
M  V30 13 1 11 14
M  V30 14 1 11 15
M  V30 15 1 12 16
M  V30 16 2 13 17
M  V30 17 1 14 18
M  V30 18 2 16 19
M  V30 19 1 17 20
M  V30 20 1 18 21
M  V30 21 1 18 22
M  V30 22 1 19 23
M  V30 23 1 20 24
M  V30 24 2 21 25
M  V30 25 1 21 26
M  V30 26 1 22 27
M  V30 27 1 23 28
M  V30 28 1 26 29
M  V30 29 1 27 30
M  V30 30 1 29 31
M  V30 31 2 30 32
M  V30 32 1 30 33
M  V30 33 1 32 34
M  V30 34 2 33 35
M  V30 35 2 34 36
M  V30 36 2 9 12
M  V30 37 1 17 19
M  V30 38 1 35 36
M  V30 39 1 3 37
M  V30 40 1 4 38
M  V30 41 1 6 39
M  V30 42 1 6 40
M  V30 43 1 8 41
M  V30 44 1 8 42
M  V30 45 1 11 43
M  V30 46 1 13 44
M  V30 47 1 14 45
M  V30 48 1 15 46
M  V30 49 1 15 47
M  V30 50 1 15 48
M  V30 51 1 16 49
M  V30 52 1 18 50
M  V30 53 1 22 51
M  V30 54 1 22 52
M  V30 55 1 24 53
M  V30 56 1 24 54
M  V30 57 1 24 55
M  V30 58 1 27 56
M  V30 59 1 27 57
M  V30 60 1 28 58
M  V30 61 1 28 59
M  V30 62 1 28 60
M  V30 63 1 29 61
M  V30 64 1 29 62
M  V30 65 1 31 63
M  V30 66 1 31 64
M  V30 67 1 31 65
M  V30 68 1 32 66
M  V30 69 1 33 67
M  V30 70 1 34 68
M  V30 71 1 35 69
M  V30 72 1 36 70
M  V30 END BOND
M  V30 END CTAB
M  END
>  <Column 1>
3059

>  <level_0>
5210

>  <index>
5211

>  <Unnamed: 0>
5211

>  <NO.>
5223

>  <Name>
[3s-[2[r*(r*)]-3r*]]-2-[2-[[1-(ethoxycarbonyl)-3-phenylpropyl]amino]-1-oxopropyl]-1-2-3-4tetrahydro-6-7-dimethoxy-3-isoquinolinecarboxylic acid;monohydrochloride;[3s-[2[r*(r*)]-3r*]]-2-[2-[[1-(ethoxycarbonyl)-3-phenylpropyl]amino]-1-oxopropyl]-1-2-3-4tetrahydro-6-7-dimethoxy-3-isoquinolinecarboxylic acid;monohydrochloride

>  <IUPAC_name>
2-[2-[(1-ethoxy-1-oxo-4-phenylbutan-2-yl)amino]propanoyl]-6-7-dimethoxy-3-4-dihydro-1h-isoquinoline-3-carboxylic acid

>  <SMILES>
CCOC(=O)C(CCc1ccccc1)NC(C)C(=O)N1Cc2cc(OC)c(OC)cc2CC1C(=O)O

>  <CID>
4474936

>  <logBB>


>  <BBB+/BBB->
BBB-

>  <Inchi>
InChI=1S/C27H34N2O7/c1-5-36-27(33)21(12-11-18-9-7-6-8-10-18)28-17(2)25(30)29-16-20-15-24(35-4)23(34-3)14-19(20)13-22(29)26(31)32/h6-10-14-15-17-21-22-28H-5-11-13-16H2-1-4H3-(H-31-32)

>  <threshold>


>  <reference>
R14|R23|

>  <group>
C

>  <Class>
-1

>  <ABC>
27.13

>  <ABCGG>
21.83

>  <nAcid>
1

>  <nBase>
1

>  <nAromAtom>
12

>  <nAromBond>
12

>  <nAtom>
70

>  <nHeavyAtom>
36

>  <nSpiro>
0

>  <nBridgehead>
0

>  <nHetero>
9

>  <nN>
2

>  <nO>
7

>  <nF>
0

>  <BalabanJ>
1.65

>  <BertzCT>
1073.29

>  <nBonds>
72

>  <nBondsO>
38

>  <nBondsS>
57

>  <nBondsD>
3

>  <nBondsT>
0

>  <nBondsA>
12

>  <nBondsM>
15

>  <nBondsKS>
63

>  <nBondsKD>
9

>  <RNCG>
0.13

>  <RPCG>
0.08

>  <FCSP3>
0.44

>  <SZ>
44.33

>  <Sm>
41.51

>  <Sv>
42.73

>  <Sse>
70.73

>  <Sp>
45.25

>  <Si>
79.11

>  <MZ>
0.63

>  <Mm>
0.59

>  <Mv>
0.61

>  <Mse>
1.01

>  <Mp>
0.65

>  <Mi>
1.13

>  <NsCH3>
4

>  <NdCH2>
0

>  <NssCH2>
5

>  <NtCH>
0

>  <NdsCH>
0

>  <NaaCH>
7

>  <NsssCH>
3

>  <NddC>
0

>  <NtsC>
0

>  <NdssC>
3

>  <NaasC>
5

>  <NaaaC>
0

>  <NssssC>
0

>  <NsNH3>
0

>  <NsNH2>
0

>  <NssNH2>
0

>  <NdNH>
0

>  <NssNH>
1

>  <NaaNH>
0

>  <NtN>
0

>  <NsssNH>
0

>  <NdsN>
0

>  <NaaN>
0

>  <NsssN>
1

>  <NddsN>
0

>  <NaasN>
0

>  <NssssN>
0

>  <NsOH>
1

>  <NdO>
3

>  <NssO>
3

>  <NaaO>
0

>  <NsF>
0

>  <NsSiH3>
0

>  <NssSiH2>
0

>  <NsssSiH>
0

>  <NssssSi>
0

>  <NsPH2>
0

>  <NssPH>
0

>  <NsssP>
0

>  <NdsssP>
0

>  <NsssssP>
0

>  <NsSH>
0

>  <NdS>
0

>  <NssS>
0

>  <NaaS>
0

>  <NdssS>
0

>  <NddssS>
0

>  <NsCl>
0

>  <NsBr>
0

>  <NsI>
0

>  <fragCpx>
184.09

>  <fMF>
0.31

>  <nHBAcc>
7

>  <nHBDon>
2

>  <Kier1>
30.54

>  <Kier2>
14.96

>  <Lipinski>
1

>  <GhoseFilter>
0

>  <FilterItLogS>
-5.02

>  <VMcGowan>
381.06

>  <LabuteASA>
210.89

>  <PEOE_VSA1>
24.22

>  <PEOE_VSA2>
14.91

>  <PEOE_VSA3>
4.79

>  <PEOE_VSA4>
0

>  <PEOE_VSA5>
0

>  <PEOE_VSA6>
30.33

>  <PEOE_VSA7>
55.51

>  <PEOE_VSA8>
12.97

>  <PEOE_VSA9>
26.87

>  <PEOE_VSA10>
12.08

>  <PEOE_VSA11>
11.5

>  <PEOE_VSA12>
5.91

>  <PEOE_VSA13>
0

>  <SMR_VSA1>
33.7

>  <SMR_VSA2>
0

>  <SMR_VSA3>
10.22

>  <SMR_VSA4>
0

>  <SMR_VSA5>
57.78

>  <SMR_VSA6>
20.83

>  <SMR_VSA7>
59.15

>  <SMR_VSA8>
0

>  <SMR_VSA9>
11.5

>  <SlogP_VSA1>
14.79

>  <SlogP_VSA2>
66.8

>  <SlogP_VSA3>
38.51

>  <SlogP_VSA4>
0

>  <SlogP_VSA5>
36.96

>  <SlogP_VSA6>
42.46

>  <SlogP_VSA7>
0

>  <SlogP_VSA8>
0

>  <SlogP_VSA9>
0

>  <SlogP_VSA10>
0

>  <SlogP_VSA11>
11.5

>  <EState_VSA1>
35.97

>  <EState_VSA2>
19.57

>  <EState_VSA3>
24.34

>  <EState_VSA4>
16.69

>  <EState_VSA5>
19.12

>  <EState_VSA6>
25.98

>  <EState_VSA7>
30.33

>  <EState_VSA8>
5.32

>  <EState_VSA9>
14.21

>  <EState_VSA10>
19.49

>  <VSA_EState1>
15.95

>  <VSA_EState2>
39.57

>  <VSA_EState3>
12.99

>  <VSA_EState4>
2.64

>  <VSA_EState5>
-0.93

>  <VSA_EState6>
10.7

>  <VSA_EState7>
1.19

>  <VSA_EState8>
3.69

>  <VSA_EState9>
3.04

>  <apol>
75.57

>  <bpol>
44.2

>  <nRing>
3

>  <nHRing>
1

>  <naRing>
2

>  <naHRing>
0

>  <nARing 2>
1

>  <nAHRing 2>
1

>  <nFRing>
1

>  <nFHRing>
1

>  <nFaRing>
0

>  <nFaHRing>
0

>  <nFARing 2>
1

>  <nFAHRing 2>
1

>  <nRot>
11

>  <SLogP>
2.58

>  <SMR>
133.01

>  <TopoPSA(NO)>
114.4

>  <TopoPSA>
114.4

>  <JGI1>
0.2

>  <JGI2>
0.09

>  <JGI3>
0.04

>  <JGI4>
0.05

>  <JGI5>
0.03

>  <Diameter>
17

>  <Radius>
9

>  <TMWC10>
152.09

>  <TSRW10>
72.34

>  <MW>
498.24

>  <AMW>
7.12

>  <WPath>
4226

>  <WPol>
59

>  <Zagreb1>
180

>  <Zagreb2>
210

>  <mZagreb2>
8.28

>  <yes>


>  <nAR-cont>
0.816016

>  <nHA-cont>
0.477843619

>  <MWHBN>
0.403202498

>  <MWHBN-cont>
0.463465772

>  <TPSA-cont>
0.201416962

>  <pka_cont>
0.97

>  <yes.1>


>  <BBB_SCORE>
2.876892201

>  <MMFF94 Energy>
131.05

$$$$
Compound 2475
Actelion Java MolfileCreator 2.0

  0  0  0  0  0  0              0 V3000
M  V30 BEGIN CTAB
M  V30 COUNTS 62 64 0 0 0
M  V30 BEGIN ATOM
M  V30 1 O 3.4189 1.0326 2.4638 0
M  V30 2 C 3.0897 0.7784 3.6122 0
M  V30 3 O 3.9293 1.0819 4.628 0
M  V30 4 C 1.7931 0.1173 4.0947 0
M  V30 5 N 0.7739 0.0868 3.0328 0
M  V30 6 C 2.0515 -1.2746 4.673 0
M  V30 7 C -0.1137 1.1585 2.9485 0
M  V30 8 C 0.9752 -0.8716 1.9446 0
M  V30 9 C 2.2682 -2.3131 3.6047 0
M  V30 10 O -0.0895 2.0698 3.7815 0
M  V30 11 C -1.1636 1.161 1.7967 0
M  V30 12 C 1.7396 -2.1203 2.319 0
M  V30 13 C 2.9564 -3.4967 3.9064 0
M  V30 14 N -0.455 1.3449 0.5141 0
M  V30 15 C -2.2196 2.2394 2.0521 0
M  V30 16 C 1.9412 -3.1093 1.3427 0
M  V30 17 C 3.1439 -4.4727 2.9288 0
M  V30 18 C -1.3034 1.159 -0.6875 0
M  V30 19 C 2.6398 -4.2777 1.6462 0
M  V30 20 C -1.8871 2.5078 -1.1363 0
M  V30 21 C -0.4084 0.5784 -1.7924 0
M  V30 22 O -1.3352 3.5902 -0.978 0
M  V30 23 O -3.0983 2.3241 -1.7336 0
M  V30 24 C -1.1975 0.1721 -3.0424 0
M  V30 25 C -3.7177 3.5341 -2.1861 0
M  V30 26 C -0.3275 -0.5601 -4.0338 0
M  V30 27 C -5.0378 3.1729 -2.8382 0
M  V30 28 C 0.5105 0.1509 -4.9032 0
M  V30 29 C -0.326 -1.9605 -4.0811 0
M  V30 30 C 1.328 -0.5265 -5.8088 0
M  V30 31 C 0.4919 -2.6361 -4.9881 0
M  V30 32 C 1.3179 -1.9193 -5.8518 0
M  V30 33 H 4.6856 1.5114 4.1747 0
M  V30 34 H 1.4292 0.7541 4.911 0
M  V30 35 H 2.9141 -1.2512 5.3498 0
M  V30 36 H 1.179 -1.5875 5.2612 0
M  V30 37 H 4.0E-4 -1.1768 1.5528 0
M  V30 38 H 1.5243 -0.3544 1.1495 0
M  V30 39 H -1.6624 0.1847 1.82 0
M  V30 40 H 3.3531 -3.6629 4.9055 0
M  V30 41 H -0.0425 2.2857 0.486 0
M  V30 42 H -1.7924 3.2462 1.9835 0
M  V30 43 H -3.0492 2.1666 1.3424 0
M  V30 44 H -2.6453 2.1333 3.0565 0
M  V30 45 H 1.555 -2.9695 0.3348 0
M  V30 46 H 3.6847 -5.3845 3.1679 0
M  V30 47 H -2.1184 0.46 -0.4644 0
M  V30 48 H 2.7903 -5.0351 0.8815 0
M  V30 49 H 0.3688 1.3029 -2.0718 0
M  V30 50 H 0.1151 -0.3054 -1.4015 0
M  V30 51 H -2.0473 -0.4631 -2.7627 0
M  V30 52 H -1.6242 1.053 -3.5368 0
M  V30 53 H -3.0689 4.0318 -2.9156 0
M  V30 54 H -3.8949 4.1992 -1.3335 0
M  V30 55 H -5.5511 4.0674 -3.2021 0
M  V30 56 H -4.8779 2.4898 -3.6789 0
M  V30 57 H -5.6902 2.6553 -2.1271 0
M  V30 58 H 0.5334 1.2382 -4.878 0
M  V30 59 H -0.9617 -2.535 -3.4115 0
M  V30 60 H 1.9749 0.033 -6.4793 0
M  V30 61 H 0.4859 -3.7223 -5.02 0
M  V30 62 H 1.9555 -2.4458 -6.5568 0
M  V30 END ATOM
M  V30 BEGIN BOND
M  V30 1 2 1 2
M  V30 2 1 2 3
M  V30 3 1 2 4
M  V30 4 1 4 5
M  V30 5 1 4 6
M  V30 6 1 5 7
M  V30 7 1 5 8
M  V30 8 1 6 9
M  V30 9 2 7 10
M  V30 10 1 7 11
M  V30 11 1 8 12
M  V30 12 1 9 13
M  V30 13 1 11 14
M  V30 14 1 11 15
M  V30 15 1 12 16
M  V30 16 2 13 17
M  V30 17 1 14 18
M  V30 18 2 16 19
M  V30 19 1 18 20
M  V30 20 1 18 21
M  V30 21 2 20 22
M  V30 22 1 20 23
M  V30 23 1 21 24
M  V30 24 1 23 25
M  V30 25 1 24 26
M  V30 26 1 25 27
M  V30 27 2 26 28
M  V30 28 1 26 29
M  V30 29 1 28 30
M  V30 30 2 29 31
M  V30 31 2 30 32
M  V30 32 2 9 12
M  V30 33 1 17 19
M  V30 34 1 31 32
M  V30 35 1 3 33
M  V30 36 1 4 34
M  V30 37 1 6 35
M  V30 38 1 6 36
M  V30 39 1 8 37
M  V30 40 1 8 38
M  V30 41 1 11 39
M  V30 42 1 13 40
M  V30 43 1 14 41
M  V30 44 1 15 42
M  V30 45 1 15 43
M  V30 46 1 15 44
M  V30 47 1 16 45
M  V30 48 1 17 46
M  V30 49 1 18 47
M  V30 50 1 19 48
M  V30 51 1 21 49
M  V30 52 1 21 50
M  V30 53 1 24 51
M  V30 54 1 24 52
M  V30 55 1 25 53
M  V30 56 1 25 54
M  V30 57 1 27 55
M  V30 58 1 27 56
M  V30 59 1 27 57
M  V30 60 1 28 58
M  V30 61 1 29 59
M  V30 62 1 30 60
M  V30 63 1 31 61
M  V30 64 1 32 62
M  V30 END BOND
M  V30 END CTAB
M  END
>  <Column 1>
3060

>  <level_0>
5211

>  <index>
5212

>  <Unnamed: 0>
5212

>  <NO.>
5224

>  <Name>
82768-84-1

>  <IUPAC_name>
2-[2-[(1-ethoxy-1-oxo-4-phenylbutan-2-yl)amino]propanoyl]-3-4-dihydro-1h-isoquinoline-3-carboxylic acid

>  <SMILES>
CCOC(=O)C(CCc1ccccc1)NC(C)C(=O)N1Cc2ccccc2CC1C(=O)O

>  <CID>
5005

>  <logBB>


>  <BBB+/BBB->
BBB-

>  <Inchi>
InChI=1S/C25H30N2O5/c1-3-32-25(31)21(14-13-18-9-5-4-6-10-18)26-17(2)23(28)27-16-20-12-8-7-11-19(20)15-22(27)24(29)30/h4-12-17-21-22-26H-3-13-16H2-1-2H3-(H-29-30)

>  <threshold>


>  <reference>
R14|R23|

>  <group>
C

>  <Class>
-1

>  <ABC>
24.35

>  <ABCGG>
19.6

>  <nAcid>
1

>  <nBase>
1

>  <nAromAtom>
12

>  <nAromBond>
12

>  <nAtom>
62

>  <nHeavyAtom>
32

>  <nSpiro>
0

>  <nBridgehead>
0

>  <nHetero>
7

>  <nN>
2

>  <nO>
5

>  <nF>
0

>  <BalabanJ>
1.61

>  <BertzCT>
946.36

>  <nBonds>
64

>  <nBondsO>
34

>  <nBondsS>
49

>  <nBondsD>
3

>  <nBondsT>
0

>  <nBondsA>
12

>  <nBondsM>
15

>  <nBondsKS>
55

>  <nBondsKD>
9

>  <RNCG>
0.15

>  <RPCG>
0.1

>  <FCSP3>
0.4

>  <SZ>
39

>  <Sm>
36.51

>  <Sv>
38.22

>  <Sse>
62.3

>  <Sp>
40.7

>  <Si>
69.86

>  <MZ>
0.63

>  <Mm>
0.59

>  <Mv>
0.62

>  <Mse>
1

>  <Mp>
0.66

>  <Mi>
1.13

>  <NsCH3>
2

>  <NdCH2>
0

>  <NssCH2>
5

>  <NtCH>
0

>  <NdsCH>
0

>  <NaaCH>
9

>  <NsssCH>
3

>  <NddC>
0

>  <NtsC>
0

>  <NdssC>
3

>  <NaasC>
3

>  <NaaaC>
0

>  <NssssC>
0

>  <NsNH3>
0

>  <NsNH2>
0

>  <NssNH2>
0

>  <NdNH>
0

>  <NssNH>
1

>  <NaaNH>
0

>  <NtN>
0

>  <NsssNH>
0

>  <NdsN>
0

>  <NaaN>
0

>  <NsssN>
1

>  <NddsN>
0

>  <NaasN>
0

>  <NssssN>
0

>  <NsOH>
1

>  <NdO>
3

>  <NssO>
1

>  <NaaO>
0

>  <NsF>
0

>  <NsSiH3>
0

>  <NssSiH2>
0

>  <NsssSiH>
0

>  <NssssSi>
0

>  <NsPH2>
0

>  <NssPH>
0

>  <NsssP>
0

>  <NdsssP>
0

>  <NsssssP>
0

>  <NsSH>
0

>  <NdS>
0

>  <NssS>
0

>  <NaaS>
0

>  <NdssS>
0

>  <NddssS>
0

>  <NsCl>
0

>  <NsBr>
0

>  <NsI>
0

>  <fragCpx>
164.07

>  <fMF>
0.35

>  <nHBAcc>
5

>  <nHBDon>
2

>  <Kier1>
26.6

>  <Kier2>
13.19

>  <Lipinski>
1

>  <GhoseFilter>
1

>  <FilterItLogS>
-4.52

>  <VMcGowan>
341.14

>  <LabuteASA>
187.93

>  <PEOE_VSA1>
14.74

>  <PEOE_VSA2>
14.91

>  <PEOE_VSA3>
4.79

>  <PEOE_VSA4>
0

>  <PEOE_VSA5>
0

>  <PEOE_VSA6>
54.6

>  <PEOE_VSA7>
43.38

>  <PEOE_VSA8>
12.97

>  <PEOE_VSA9>
12.65

>  <PEOE_VSA10>
12.08

>  <PEOE_VSA11>
0

>  <PEOE_VSA12>
5.91

>  <PEOE_VSA13>
0

>  <SMR_VSA1>
24.23

>  <SMR_VSA2>
0

>  <SMR_VSA3>
10.22

>  <SMR_VSA4>
0

>  <SMR_VSA5>
57.78

>  <SMR_VSA6>
6.61

>  <SMR_VSA7>
71.29

>  <SMR_VSA8>
0

>  <SMR_VSA9>
0

>  <SlogP_VSA1>
5.32

>  <SlogP_VSA2>
52.58

>  <SlogP_VSA3>
38.51

>  <SlogP_VSA4>
0

>  <SlogP_VSA5>
36.96

>  <SlogP_VSA6>
54.6

>  <SlogP_VSA7>
0

>  <SlogP_VSA8>
0

>  <SlogP_VSA9>
0

>  <SlogP_VSA10>
0

>  <SlogP_VSA11>
0

>  <EState_VSA1>
30.06

>  <EState_VSA2>
25.48

>  <EState_VSA3>
12.84

>  <EState_VSA4>
16.69

>  <EState_VSA5>
4.9

>  <EState_VSA6>
13.85

>  <EState_VSA7>
54.6

>  <EState_VSA8>
5.32

>  <EState_VSA9>
4.74

>  <EState_VSA10>
19.49

>  <VSA_EState1>
5.2

>  <VSA_EState2>
39.07

>  <VSA_EState3>
12.82

>  <VSA_EState4>
2.97

>  <VSA_EState5>
-1.8

>  <VSA_EState6>
14.99

>  <VSA_EState7>
1.37

>  <VSA_EState8>
3.88

>  <VSA_EState9>
0

>  <apol>
67.96

>  <bpol>
36.72

>  <nRing>
3

>  <nHRing>
1

>  <naRing>
2

>  <naHRing>
0

>  <nARing 2>
1

>  <nAHRing 2>
1

>  <nFRing>
1

>  <nFHRing>
1

>  <nFaRing>
0

>  <nFaHRing>
0

>  <nFARing 2>
1

>  <nFAHRing 2>
1

>  <nRot>
9

>  <SLogP>
2.57

>  <SMR>
119.9

>  <TopoPSA(NO)>
95.94

>  <TopoPSA>
95.94

>  <JGI1>
0.18

>  <JGI2>
0.08

>  <JGI3>
0.04

>  <JGI4>
0.05

>  <JGI5>
0.03

>  <Diameter>
15

>  <Radius>
8

>  <TMWC10>
142.68

>  <TSRW10>
67.68

>  <MW>
438.22

>  <AMW>
7.07

>  <WPath>
3064

>  <WPol>
50

>  <Zagreb1>
160

>  <Zagreb2>
185

>  <mZagreb2>
7.25

>  <yes>


>  <nAR-cont>
0.816016

>  <nHA-cont>
0.658856097

>  <MWHBN>
0.334388969

>  <MWHBN-cont>
0.727328728

>  <TPSA-cont>
0.330279225

>  <pka_cont>
0.97

>  <yes.1>


>  <BBB_SCORE>
3.711423639

>  <MMFF94 Energy>
110.71

$$$$
Compound 2476
Actelion Java MolfileCreator 2.0

  0  0  0  0  0  0              0 V3000
M  V30 BEGIN CTAB
M  V30 COUNTS 61 63 0 0 0
M  V30 BEGIN ATOM
M  V30 1 O 2.0673 0.1589 0.1589 0
M  V30 2 C 1.3338 -0.735 -0.2729 0
M  V30 3 N 1.4697 -1.2152 -1.5818 0
M  V30 4 C 0.2368 -1.4196 0.5877 0
M  V30 5 N 0.6306 -2.2752 -2.0454 0
M  V30 6 C 2.5518 -0.6533 -2.4116 0
M  V30 7 N 0.0251 -0.6733 1.8571 0
M  V30 8 C 0.7053 -2.8469 0.9303 0
M  V30 9 C 1.0584 -3.5831 -1.5341 0
M  V30 10 C 0.4017 -2.261 -3.4915 0
M  V30 11 C 3.9129 -1.2188 -1.9967 0
M  V30 12 C 2.3501 -0.8011 -3.9205 0
M  V30 13 C -0.7213 0.6006 1.637 0
M  V30 14 C 0.4143 -3.8669 -0.175 0
M  V30 15 C 1.6944 -2.1243 -4.2824 0
M  V30 16 O 4.1621 -2.3236 -1.5405 0
M  V30 17 O 4.9279 -0.3604 -2.2504 0
M  V30 18 C -2.2277 0.3302 1.465 0
M  V30 19 C -0.4836 1.5021 2.859 0
M  V30 20 O -2.9682 0.9717 0.7305 0
M  V30 21 O -2.634 -0.6944 2.2763 0
M  V30 22 C -1.1156 2.8974 2.7507 0
M  V30 23 C -4.0319 -1.0124 2.2253 0
M  V30 24 C -0.6049 3.7211 1.595 0
M  V30 25 C -4.8027 -0.1316 3.1907 0
M  V30 26 C 0.73 4.1448 1.5534 0
M  V30 27 C -1.4592 4.0712 0.5408 0
M  V30 28 C 1.201 4.8996 0.4778 0
M  V30 29 C -0.9871 4.8271 -0.5334 0
M  V30 30 C 0.3425 5.2413 -0.5648 0
M  V30 31 H -0.7082 -1.4563 0.0337 0
M  V30 32 H 2.5982 0.4207 -2.1845 0
M  V30 33 H -0.529 -1.2434 2.4986 0
M  V30 34 H 0.1907 -3.2063 1.8312 0
M  V30 35 H 1.7788 -2.8548 1.1597 0
M  V30 36 H 2.146 -3.6715 -1.4702 0
M  V30 37 H 0.7318 -4.3868 -2.2064 0
M  V30 38 H -0.1463 -3.1554 -3.8109 0
M  V30 39 H -0.2597 -1.4171 -3.7274 0
M  V30 40 H 3.2955 -0.6923 -4.4642 0
M  V30 41 H 1.6977 0.012 -4.2657 0
M  V30 42 H -0.3591 1.0921 0.7285 0
M  V30 43 H 0.7514 -4.8533 0.1671 0
M  V30 44 H -0.6734 -3.9457 -0.3037 0
M  V30 45 H 2.372 -2.9606 -4.0747 0
M  V30 46 H 1.4757 -2.1441 -5.356 0
M  V30 47 H 5.7181 -0.8245 -1.9026 0
M  V30 48 H -0.8885 1.021 3.7598 0
M  V30 49 H 0.5965 1.6085 3.0245 0
M  V30 50 H -2.2078 2.81 2.7013 0
M  V30 51 H -0.9111 3.4513 3.6764 0
M  V30 52 H -4.1321 -2.061 2.5237 0
M  V30 53 H -4.423 -0.9299 1.2048 0
M  V30 54 H -5.8616 -0.4046 3.2041 0
M  V30 55 H -4.3998 -0.2283 4.2043 0
M  V30 56 H -4.7174 0.924 2.9143 0
M  V30 57 H 1.4159 3.8826 2.3558 0
M  V30 58 H -2.4986 3.748 0.5427 0
M  V30 59 H 2.2403 5.2157 0.453 0
M  V30 60 H -1.6581 5.0879 -1.3473 0
M  V30 61 H 0.7108 5.8266 -1.4026 0
M  V30 END ATOM
M  V30 BEGIN BOND
M  V30 1 2 1 2
M  V30 2 1 2 3
M  V30 3 1 2 4
M  V30 4 1 3 5
M  V30 5 1 3 6
M  V30 6 1 4 7
M  V30 7 1 4 8
M  V30 8 1 5 9
M  V30 9 1 5 10
M  V30 10 1 6 11
M  V30 11 1 6 12
M  V30 12 1 7 13
M  V30 13 1 8 14
M  V30 14 1 10 15
M  V30 15 2 11 16
M  V30 16 1 11 17
M  V30 17 1 13 18
M  V30 18 1 13 19
M  V30 19 2 18 20
M  V30 20 1 18 21
M  V30 21 1 19 22
M  V30 22 1 21 23
M  V30 23 1 22 24
M  V30 24 1 23 25
M  V30 25 2 24 26
M  V30 26 1 24 27
M  V30 27 1 26 28
M  V30 28 2 27 29
M  V30 29 2 28 30
M  V30 30 1 9 14
M  V30 31 1 12 15
M  V30 32 1 29 30
M  V30 33 1 4 31
M  V30 34 1 6 32
M  V30 35 1 7 33
M  V30 36 1 8 34
M  V30 37 1 8 35
M  V30 38 1 9 36
M  V30 39 1 9 37
M  V30 40 1 10 38
M  V30 41 1 10 39
M  V30 42 1 12 40
M  V30 43 1 12 41
M  V30 44 1 13 42
M  V30 45 1 14 43
M  V30 46 1 14 44
M  V30 47 1 15 45
M  V30 48 1 15 46
M  V30 49 1 17 47
M  V30 50 1 19 48
M  V30 51 1 19 49
M  V30 52 1 22 50
M  V30 53 1 22 51
M  V30 54 1 23 52
M  V30 55 1 23 53
M  V30 56 1 25 54
M  V30 57 1 25 55
M  V30 58 1 25 56
M  V30 59 1 26 57
M  V30 60 1 27 58
M  V30 61 1 28 59
M  V30 62 1 29 60
M  V30 63 1 30 61
M  V30 END BOND
M  V30 END CTAB
M  END
>  <Column 1>
3061

>  <level_0>
5212

>  <index>
5213

>  <Unnamed: 0>
5213

>  <NO.>
5225

>  <Name>
104013-57-2

>  <IUPAC_name>
7-[(1-ethoxy-1-oxo-4-phenylbutan-2-yl)amino]-6-oxo-1-2-3-4-7-8-9-10-octahydropyridazino[1-2-a]diazepine-4-carboxylic acid

>  <SMILES>
CCOC(=O)C(CCc1ccccc1)NC1CCCN2CCCC(C(=O)O)N2C1=O

>  <CID>
2751

>  <logBB>


>  <BBB+/BBB->
BBB-

>  <Inchi>
InChI=1S/C22H31N3O5/c1-2-30-22(29)18(13-12-16-8-4-3-5-9-16)23-17-10-6-14-24-15-7-11-19(21(27)28)25(24)20(17)26/h3-5-8-9-17-19-23H-2-6-7-10-15H2-1H3-(H-27-28)

>  <threshold>


>  <reference>
R14|R23|

>  <group>
C

>  <Class>
-1

>  <ABC>
22.82

>  <ABCGG>
18.57

>  <nAcid>
1

>  <nBase>
1

>  <nAromAtom>
6

>  <nAromBond>
6

>  <nAtom>
61

>  <nHeavyAtom>
30

>  <nSpiro>
0

>  <nBridgehead>
0

>  <nHetero>
8

>  <nN>
3

>  <nO>
5

>  <nF>
0

>  <BalabanJ>
1.66

>  <BertzCT>
741.55

>  <nBonds>
63

>  <nBondsO>
32

>  <nBondsS>
54

>  <nBondsD>
3

>  <nBondsT>
0

>  <nBondsA>
6

>  <nBondsM>
9

>  <nBondsKS>
57

>  <nBondsKD>
6

>  <RNCG>
0.16

>  <RPCG>
0.11

>  <FCSP3>
0.59

>  <SZ>
37.33

>  <Sm>
34.76

>  <Sv>
36.25

>  <Sse>
61.4

>  <Sp>
38.75

>  <Si>
69.36

>  <MZ>
0.61

>  <Mm>
0.57

>  <Mv>
0.59

>  <Mse>
1.01

>  <Mp>
0.64

>  <Mi>
1.14

>  <NsCH3>
1

>  <NdCH2>
0

>  <NssCH2>
9

>  <NtCH>
0

>  <NdsCH>
0

>  <NaaCH>
5

>  <NsssCH>
3

>  <NddC>
0

>  <NtsC>
0

>  <NdssC>
3

>  <NaasC>
1

>  <NaaaC>
0

>  <NssssC>
0

>  <NsNH3>
0

>  <NsNH2>
0

>  <NssNH2>
0

>  <NdNH>
0

>  <NssNH>
1

>  <NaaNH>
0

>  <NtN>
0

>  <NsssNH>
0

>  <NdsN>
0

>  <NaaN>
0

>  <NsssN>
2

>  <NddsN>
0

>  <NaasN>
0

>  <NssssN>
0

>  <NsOH>
1

>  <NdO>
3

>  <NssO>
1

>  <NaaO>
0

>  <NsF>
0

>  <NsSiH3>
0

>  <NssSiH2>
0

>  <NsssSiH>
0

>  <NssssSi>
0

>  <NsPH2>
0

>  <NssPH>
0

>  <NsssP>
0

>  <NdsssP>
0

>  <NsssssP>
0

>  <NsSH>
0

>  <NdS>
0

>  <NssS>
0

>  <NaaS>
0

>  <NdssS>
0

>  <NddssS>
0

>  <NsCl>
0

>  <NsBr>
0

>  <NsI>
0

>  <fragCpx>
154.08

>  <fMF>
0.34

>  <nHBAcc>
6

>  <nHBDon>
2

>  <Kier1>
24.64

>  <Kier2>
12.3

>  <Lipinski>
1

>  <GhoseFilter>
1

>  <FilterItLogS>
-2.91

>  <VMcGowan>
321.75

>  <LabuteASA>
176.69

>  <PEOE_VSA1>
9.84

>  <PEOE_VSA2>
19.91

>  <PEOE_VSA3>
9.8

>  <PEOE_VSA4>
0

>  <PEOE_VSA5>
0

>  <PEOE_VSA6>
30.33

>  <PEOE_VSA7>
51.01

>  <PEOE_VSA8>
13.09

>  <PEOE_VSA9>
12.65

>  <PEOE_VSA10>
12.08

>  <PEOE_VSA11>
0

>  <PEOE_VSA12>
0

>  <PEOE_VSA13>
5.91

>  <SMR_VSA1>
24.23

>  <SMR_VSA2>
0

>  <SMR_VSA3>
15.33

>  <SMR_VSA4>
0

>  <SMR_VSA5>
63.57

>  <SMR_VSA6>
19.7

>  <SMR_VSA7>
35.9

>  <SMR_VSA8>
0

>  <SMR_VSA9>
0

>  <SlogP_VSA1>
5.32

>  <SlogP_VSA2>
70.79

>  <SlogP_VSA3>
25.54

>  <SlogP_VSA4>
0

>  <SlogP_VSA5>
44.59

>  <SlogP_VSA6>
30.33

>  <SlogP_VSA7>
0

>  <SlogP_VSA8>
0

>  <SlogP_VSA9>
0

>  <SlogP_VSA10>
0

>  <SlogP_VSA11>
0

>  <EState_VSA1>
24.09

>  <EState_VSA2>
18.48

>  <EState_VSA3>
38.77

>  <EState_VSA4>
18.41

>  <EState_VSA5>
5.01

>  <EState_VSA6>
6.92

>  <EState_VSA7>
35.34

>  <EState_VSA8>
5.32

>  <EState_VSA9>
4.74

>  <EState_VSA10>
19.49

>  <VSA_EState1>
5.24

>  <VSA_EState2>
37.6

>  <VSA_EState3>
16.09

>  <VSA_EState4>
1.11

>  <VSA_EState5>
-1.64

>  <VSA_EState6>
7.77

>  <VSA_EState7>
3.67

>  <VSA_EState8>
3.34

>  <VSA_EState9>
0

>  <apol>
64.72

>  <bpol>
38.29

>  <nRing>
3

>  <nHRing>
2

>  <naRing>
1

>  <naHRing>
0

>  <nARing 2>
2

>  <nAHRing 2>
2

>  <nFRing>
1

>  <nFHRing>
1

>  <nFaRing>
0

>  <nFaHRing>
0

>  <nFARing 2>
1

>  <nFAHRing 2>
1

>  <nRot>
8

>  <SLogP>
1.6

>  <SMR>
110.42

>  <TopoPSA(NO)>
99.18

>  <TopoPSA>
99.18

>  <JGI1>
0.16

>  <JGI2>
0.08

>  <JGI3>
0.05

>  <JGI4>
0.04

>  <JGI5>
0.02

>  <Diameter>
13

>  <Radius>
7

>  <TMWC10>
138.2

>  <TSRW10>
73.3

>  <MW>
417.23

>  <AMW>
6.84

>  <WPath>
2478

>  <WPol>
50

>  <Zagreb1>
150

>  <Zagreb2>
174

>  <mZagreb2>
6.83

>  <yes>


>  <nAR-cont>
1

>  <nHA-cont>
0.74523694

>  <MWHBN>
0.39165369

>  <MWHBN-cont>
0.508945378

>  <TPSA-cont>
0.307662013

>  <pka_cont>
0.97

>  <yes.1>


>  <BBB_SCORE>
3.608979033

>  <MMFF94 Energy>
144.01

$$$$
Compound 2477
Actelion Java MolfileCreator 2.0

  0  0  0  0  0  0              0 V3000
M  V30 BEGIN CTAB
M  V30 COUNTS 59 61 0 0 0
M  V30 BEGIN ATOM
M  V30 1 O -2.3069 -1.1927 -0.5564 0
M  V30 2 C -1.1976 -1.7043 -0.74 0
M  V30 3 N -0.8228 -2.2431 -1.9703 0
M  V30 4 C -0.1473 -1.7724 0.3931 0
M  V30 5 C 0.3897 -2.9564 -2.1736 0
M  V30 6 C -1.7658 -2.1269 -3.0842 0
M  V30 7 N -0.4695 -0.8201 1.4885 0
M  V30 8 C -0.0971 -3.1931 0.9764 0
M  V30 9 C 0.7838 -3.9649 -1.2705 0
M  V30 10 C 1.2042 -2.654 -3.2715 0
M  V30 11 C -1.7763 -0.7613 -3.7578 0
M  V30 12 C -0.2613 0.6009 1.0995 0
M  V30 13 C -0.0691 -4.3069 -0.0752 0
M  V30 14 C 1.9881 -4.6498 -1.4868 0
M  V30 15 C 2.3994 -3.3446 -3.4756 0
M  V30 16 O -2.5007 -0.4457 -4.6914 0
M  V30 17 O -0.8858 0.1297 -3.2766 0
M  V30 18 C 1.2345 0.8989 0.8952 0
M  V30 19 C -0.8269 1.5057 2.2084 0
M  V30 20 C 2.7898 -4.3411 -2.5852 0
M  V30 21 O 2.0636 1.0491 1.7833 0
M  V30 22 O 1.5082 0.9634 -0.4427 0
M  V30 23 C -0.7865 2.9884 1.8183 0
M  V30 24 C 2.8895 1.1766 -0.7508 0
M  V30 25 C -1.3983 3.8611 2.8857 0
M  V30 26 C 3.0416 1.1605 -2.2592 0
M  V30 27 C -2.7457 4.2381 2.8133 0
M  V30 28 C -0.6308 4.2834 3.9796 0
M  V30 29 C -3.3113 5.0333 3.8115 0
M  V30 30 C -1.1983 5.0782 4.9766 0
M  V30 31 C -2.5377 5.454 4.8918 0
M  V30 32 H 0.841 -1.527 -0.0084 0
M  V30 33 H -2.7775 -2.3083 -2.7037 0
M  V30 34 H -1.5408 -2.8857 -3.8416 0
M  V30 35 H -1.4645 -0.9392 1.7008 0
M  V30 36 H -0.9563 -3.3752 1.6357 0
M  V30 37 H 0.7976 -3.2752 1.6083 0
M  V30 38 H 0.9355 -1.8645 -3.9675 0
M  V30 39 H -0.8022 0.8298 0.1734 0
M  V30 40 H 0.278 -5.2346 0.3964 0
M  V30 41 H -1.088 -4.5253 -0.4215 0
M  V30 42 H 2.3112 -5.4284 -0.7988 0
M  V30 43 H 3.0295 -3.1 -4.3271 0
M  V30 44 H -1.0621 0.9453 -3.7902 0
M  V30 45 H -0.2721 1.354 3.1441 0
M  V30 46 H -1.8682 1.2223 2.4148 0
M  V30 47 H 3.7226 -4.877 -2.7436 0
M  V30 48 H 0.2439 3.3188 1.6402 0
M  V30 49 H -1.3198 3.1424 0.8716 0
M  V30 50 H 3.4968 0.3779 -0.3102 0
M  V30 51 H 3.2096 2.1469 -0.3552 0
M  V30 52 H 4.0837 1.3218 -2.5483 0
M  V30 53 H 2.7046 0.2033 -2.6701 0
M  V30 54 H 2.4222 1.9386 -2.7176 0
M  V30 55 H -3.3641 3.9128 1.98 0
M  V30 56 H 0.4141 3.9912 4.0617 0
M  V30 57 H -4.357 5.3222 3.7475 0
M  V30 58 H -0.5952 5.4011 5.821 0
M  V30 59 H -2.9792 6.0716 5.6693 0
M  V30 END ATOM
M  V30 BEGIN BOND
M  V30 1 2 1 2
M  V30 2 1 2 3
M  V30 3 1 2 4
M  V30 4 1 3 5
M  V30 5 1 3 6
M  V30 6 1 4 7
M  V30 7 1 4 8
M  V30 8 2 5 9
M  V30 9 1 5 10
M  V30 10 1 6 11
M  V30 11 1 7 12
M  V30 12 1 8 13
M  V30 13 1 9 14
M  V30 14 2 10 15
M  V30 15 2 11 16
M  V30 16 1 11 17
M  V30 17 1 12 18
M  V30 18 1 12 19
M  V30 19 2 14 20
M  V30 20 2 18 21
M  V30 21 1 18 22
M  V30 22 1 19 23
M  V30 23 1 22 24
M  V30 24 1 23 25
M  V30 25 1 24 26
M  V30 26 2 25 27
M  V30 27 1 25 28
M  V30 28 1 27 29
M  V30 29 2 28 30
M  V30 30 2 29 31
M  V30 31 1 9 13
M  V30 32 1 15 20
M  V30 33 1 30 31
M  V30 34 1 4 32
M  V30 35 1 6 33
M  V30 36 1 6 34
M  V30 37 1 7 35
M  V30 38 1 8 36
M  V30 39 1 8 37
M  V30 40 1 10 38
M  V30 41 1 12 39
M  V30 42 1 13 40
M  V30 43 1 13 41
M  V30 44 1 14 42
M  V30 45 1 15 43
M  V30 46 1 17 44
M  V30 47 1 19 45
M  V30 48 1 19 46
M  V30 49 1 20 47
M  V30 50 1 23 48
M  V30 51 1 23 49
M  V30 52 1 24 50
M  V30 53 1 24 51
M  V30 54 1 26 52
M  V30 55 1 26 53
M  V30 56 1 26 54
M  V30 57 1 27 55
M  V30 58 1 28 56
M  V30 59 1 29 57
M  V30 60 1 30 58
M  V30 61 1 31 59
M  V30 END BOND
M  V30 END CTAB
M  END
>  <Column 1>
3062

>  <level_0>
5213

>  <index>
5214

>  <Unnamed: 0>
5214

>  <NO.>
5226

>  <Name>
benazepril

>  <IUPAC_name>
2-[3-[(1-ethoxy-1-oxo-4-phenylbutan-2-yl)amino]-2-oxo-4-5-dihydro-3h-1-benzazepin-1-yl]acetic acid

>  <SMILES>
CCOC(=O)C(CCc1ccccc1)NC1CCc2ccccc2N(CC(=O)O)C1=O

>  <CID>
2311

>  <logBB>


>  <BBB+/BBB->
BBB-

>  <Inchi>
InChI=1S/C24H28N2O5/c1-2-31-24(30)20(14-12-17-8-4-3-5-9-17)25-19-15-13-18-10-6-7-11-21(18)26(23(19)29)16-22(27)28/h3-11-19-20-25H-2-12-16H2-1H3-(H-27-28)

>  <threshold>


>  <reference>
R14|R23|

>  <group>
C

>  <Class>
1

>  <ABC>
23.57

>  <ABCGG>
19.07

>  <nAcid>
1

>  <nBase>
1

>  <nAromAtom>
12

>  <nAromBond>
12

>  <nAtom>
59

>  <nHeavyAtom>
31

>  <nSpiro>
0

>  <nBridgehead>
0

>  <nHetero>
7

>  <nN>
2

>  <nO>
5

>  <nF>
0

>  <BalabanJ>
1.68

>  <BertzCT>
915.2

>  <nBonds>
61

>  <nBondsO>
33

>  <nBondsS>
46

>  <nBondsD>
3

>  <nBondsT>
0

>  <nBondsA>
12

>  <nBondsM>
15

>  <nBondsKS>
52

>  <nBondsKD>
9

>  <RNCG>
0.16

>  <RPCG>
0.11

>  <FCSP3>
0.38

>  <SZ>
37.67

>  <Sm>
35.34

>  <Sv>
36.68

>  <Sse>
59.41

>  <Sp>
38.9

>  <Si>
66.44

>  <MZ>
0.64

>  <Mm>
0.6

>  <Mv>
0.62

>  <Mse>
1.01

>  <Mp>
0.66

>  <Mi>
1.13

>  <NsCH3>
1

>  <NdCH2>
0

>  <NssCH2>
6

>  <NtCH>
0

>  <NdsCH>
0

>  <NaaCH>
9

>  <NsssCH>
2

>  <NddC>
0

>  <NtsC>
0

>  <NdssC>
3

>  <NaasC>
3

>  <NaaaC>
0

>  <NssssC>
0

>  <NsNH3>
0

>  <NsNH2>
0

>  <NssNH2>
0

>  <NdNH>
0

>  <NssNH>
1

>  <NaaNH>
0

>  <NtN>
0

>  <NsssNH>
0

>  <NdsN>
0

>  <NaaN>
0

>  <NsssN>
1

>  <NddsN>
0

>  <NaasN>
0

>  <NssssN>
0

>  <NsOH>
1

>  <NdO>
3

>  <NssO>
1

>  <NaaO>
0

>  <NsF>
0

>  <NsSiH3>
0

>  <NssSiH2>
0

>  <NsssSiH>
0

>  <NssssSi>
0

>  <NsPH2>
0

>  <NssPH>
0

>  <NsssP>
0

>  <NdsssP>
0

>  <NsssssP>
0

>  <NsSH>
0

>  <NdS>
0

>  <NssS>
0

>  <NaaS>
0

>  <NdssS>
0

>  <NddssS>
0

>  <NsCl>
0

>  <NsBr>
0

>  <NsI>
0

>  <fragCpx>
159.07

>  <fMF>
0.36

>  <nHBAcc>
5

>  <nHBDon>
2

>  <Kier1>
25.62

>  <Kier2>
13.03

>  <Lipinski>
1

>  <GhoseFilter>
1

>  <FilterItLogS>
-4.73

>  <VMcGowan>
327.05

>  <LabuteASA>
181.56

>  <PEOE_VSA1>
9.84

>  <PEOE_VSA2>
24.6

>  <PEOE_VSA3>
0

>  <PEOE_VSA4>
0

>  <PEOE_VSA5>
0

>  <PEOE_VSA6>
48.53

>  <PEOE_VSA7>
49.8

>  <PEOE_VSA8>
5.69

>  <PEOE_VSA9>
12.65

>  <PEOE_VSA10>
12.59

>  <PEOE_VSA11>
0

>  <PEOE_VSA12>
5.91

>  <PEOE_VSA13>
0

>  <SMR_VSA1>
24.23

>  <SMR_VSA2>
0

>  <SMR_VSA3>
5.32

>  <SMR_VSA4>
0

>  <SMR_VSA5>
44.69

>  <SMR_VSA6>
18.05

>  <SMR_VSA7>
65.72

>  <SMR_VSA8>
0

>  <SMR_VSA9>
0

>  <SlogP_VSA1>
10.22

>  <SlogP_VSA2>
48.19

>  <SlogP_VSA3>
31.96

>  <SlogP_VSA4>
0

>  <SlogP_VSA5>
30.89

>  <SlogP_VSA6>
54.6

>  <SlogP_VSA7>
0

>  <SlogP_VSA8>
0

>  <SlogP_VSA9>
0

>  <SlogP_VSA10>
5.69

>  <SlogP_VSA11>
0

>  <EState_VSA1>
30.57

>  <EState_VSA2>
12.51

>  <EState_VSA3>
31.37

>  <EState_VSA4>
11.13

>  <EState_VSA5>
4.9

>  <EState_VSA6>
19.06

>  <EState_VSA7>
42.46

>  <EState_VSA8>
5.32

>  <EState_VSA9>
4.74

>  <EState_VSA10>
19.49

>  <VSA_EState1>
5.23

>  <VSA_EState2>
38.61

>  <VSA_EState3>
12.53

>  <VSA_EState4>
2.61

>  <VSA_EState5>
-1.84

>  <VSA_EState6>
15.77

>  <VSA_EState7>
2.19

>  <VSA_EState8>
1.56

>  <VSA_EState9>
0

>  <apol>
64.96

>  <bpol>
34.71

>  <nRing>
3

>  <nHRing>
1

>  <naRing>
2

>  <naHRing>
0

>  <nARing 2>
1

>  <nAHRing 2>
1

>  <nFRing>
1

>  <nFHRing>
1

>  <nFaRing>
0

>  <nFaHRing>
0

>  <nFARing 2>
1

>  <nFAHRing 2>
1

>  <nRot>
9

>  <SLogP>
2.57

>  <SMR>
116.86

>  <TopoPSA(NO)>
95.94

>  <TopoPSA>
95.94

>  <JGI1>
0.17

>  <JGI2>
0.08

>  <JGI3>
0.04

>  <JGI4>
0.04

>  <JGI5>
0.02

>  <Diameter>
13

>  <Radius>
7

>  <TMWC10>
140.21

>  <TSRW10>
74.43

>  <MW>
424.2

>  <AMW>
7.19

>  <WPath>
2701

>  <WPol>
50

>  <Zagreb1>
154

>  <Zagreb2>
177

>  <mZagreb2>
7.06

>  <yes>


>  <nAR-cont>
0.816016

>  <nHA-cont>
0.702745138

>  <MWHBN>
0.339869903

>  <MWHBN-cont>
0.707605131

>  <TPSA-cont>
0.330279225

>  <pka_cont>
0.97

>  <yes.1>


>  <BBB_SCORE>
3.725727284

>  <MMFF94 Energy>
107.42

$$$$
Compound 2478
Actelion Java MolfileCreator 2.0

  0  0  0  0  0  0              0 V3000
M  V30 BEGIN CTAB
M  V30 COUNTS 56 58 0 0 0
M  V30 BEGIN ATOM
M  V30 1 O 0.3172 -0.7138 -3.4936 0
M  V30 2 C 1.1599 -0.491 -2.631 0
M  V30 3 O 2.3235 0.185 -2.8603 0
M  V30 4 C 1.0733 -0.9798 -1.1666 0
M  V30 5 C 2.5016 0.6191 -4.213 0
M  V30 6 C 1.9911 -2.2155 -1.0181 0
M  V30 7 C -0.3881 -1.3896 -0.8418 0
M  V30 8 C 1.4332 0.1903 -0.2145 0
M  V30 9 C 3.8293 1.3452 -4.3038 0
M  V30 10 C 1.7582 -3.3571 -1.8125 0
M  V30 11 C 3.0791 -2.256 -0.1304 0
M  V30 12 C -1.3572 -0.2036 -0.8412 0
M  V30 13 C 0.421 1.336 -0.2793 0
M  V30 14 C 2.5695 -4.49 -1.7144 0
M  V30 15 C 3.8906 -3.3911 -0.0325 0
M  V30 16 N -0.9152 0.8525 0.076 0
M  V30 17 C 3.6354 -4.5074 -0.8223 0
M  V30 18 C -1.9093 1.9364 0.1232 0
M  V30 19 C -1.6989 3.0256 1.1919 0
M  V30 20 C -1.6049 2.5733 2.6576 0 CFG=2
M  V30 21 O -0.3387 1.9747 2.932 0
M  V30 22 C -2.7639 1.721 3.137 0
M  V30 23 C -2.7612 0.3254 2.986 0
M  V30 24 C -3.8823 2.3284 3.7286 0
M  V30 25 C -3.8415 -0.4423 3.4237 0
M  V30 26 C -4.962 1.5593 4.1675 0
M  V30 27 C -4.9406 0.1746 4.0162 0
M  V30 28 H 1.6886 1.298 -4.4935 0
M  V30 29 H 2.5075 -0.2483 -4.8821 0
M  V30 30 H -0.4215 -1.8725 0.1454 0
M  V30 31 H -0.7655 -2.1325 -1.5554 0
M  V30 32 H 1.4656 -0.1691 0.8238 0
M  V30 33 H 2.4309 0.5921 -0.4306 0
M  V30 34 H 4.0122 1.6983 -5.3224 0
M  V30 35 H 3.8466 2.203 -3.6233 0
M  V30 36 H 4.6505 0.6854 -4.005 0
M  V30 37 H 0.9386 -3.3761 -2.5296 0
M  V30 38 H 3.3271 -1.4103 0.505 0
M  V30 39 H -1.4859 0.1904 -1.8565 0
M  V30 40 H -2.3373 -0.5805 -0.5227 0
M  V30 41 H 0.4237 1.8009 -1.273 0
M  V30 42 H 0.7576 2.0997 0.4293 0
M  V30 43 H 2.3675 -5.3566 -2.3383 0
M  V30 44 H 4.7256 -3.3992 0.6635 0
M  V30 45 H 4.2679 -5.3872 -0.7444 0
M  V30 46 H -2.9043 1.5041 0.2894 0
M  V30 47 H -1.9627 2.4299 -0.8569 0
M  V30 48 H -2.5439 3.722 1.1035 0
M  V30 49 H -0.8015 3.6041 0.9416 0
M  V30 50 H -1.6011 3.4855 3.2685 0
M  V30 51 H -0.4676 1.3487 3.6636 0
M  V30 52 H -1.9175 -0.1715 2.5093 0
M  V30 53 H -3.9202 3.4085 3.8533 0
M  V30 54 H -3.8253 -1.5214 3.296 0
M  V30 55 H -5.8212 2.0415 4.6265 0
M  V30 56 H -5.782 -0.4232 4.356 0
M  V30 END ATOM
M  V30 BEGIN BOND
M  V30 1 2 1 2
M  V30 2 1 2 3
M  V30 3 1 2 4
M  V30 4 1 3 5
M  V30 5 1 4 6
M  V30 6 1 4 7
M  V30 7 1 4 8
M  V30 8 1 5 9
M  V30 9 2 6 10
M  V30 10 1 6 11
M  V30 11 1 7 12
M  V30 12 1 8 13
M  V30 13 1 10 14
M  V30 14 2 11 15
M  V30 15 1 12 16
M  V30 16 2 14 17
M  V30 17 1 16 18
M  V30 18 1 18 19
M  V30 19 1 19 20
M  V30 20 1 20 21
M  V30 21 1 20 22
M  V30 22 2 22 23
M  V30 23 1 22 24
M  V30 24 1 23 25
M  V30 25 2 24 26
M  V30 26 2 25 27
M  V30 27 1 13 16
M  V30 28 1 15 17
M  V30 29 1 26 27
M  V30 30 1 5 28
M  V30 31 1 5 29
M  V30 32 1 7 30
M  V30 33 1 7 31
M  V30 34 1 8 32
M  V30 35 1 8 33
M  V30 36 1 9 34
M  V30 37 1 9 35
M  V30 38 1 9 36
M  V30 39 1 10 37
M  V30 40 1 11 38
M  V30 41 1 12 39
M  V30 42 1 12 40
M  V30 43 1 13 41
M  V30 44 1 13 42
M  V30 45 1 14 43
M  V30 46 1 15 44
M  V30 47 1 17 45
M  V30 48 1 18 46
M  V30 49 1 18 47
M  V30 50 1 19 48
M  V30 51 1 19 49
M  V30 52 1 20 50
M  V30 53 1 21 51
M  V30 54 1 23 52
M  V30 55 1 24 53
M  V30 56 1 25 54
M  V30 57 1 26 55
M  V30 58 1 27 56
M  V30 END BOND
M  V30 BEGIN COLLECTION
M  V30 MDLV30/STERAC1 ATOMS=(1 20)
M  V30 END COLLECTION
M  V30 END CTAB
M  END
>  <Column 1>
3063

>  <level_0>
5214

>  <index>
5215

>  <Unnamed: 0>
5215

>  <NO.>
5227

>  <Name>
phenoperidine

>  <IUPAC_name>
ethyl 1-(3-hydroxy-3-phenylpropyl)-4-phenylpiperidine-4-carboxylate

>  <SMILES>
CCOC(=O)C1(c2ccccc2)CCN(CCC(O)c2ccccc2)CC1

>  <CID>
11226

>  <logBB>


>  <BBB+/BBB->
BBB+

>  <Inchi>
InChI=1S/C23H29NO3/c1-2-27-22(26)23(20-11-7-4-8-12-20)14-17-24(18-15-23)16-13-21(25)19-9-5-3-6-10-19/h3-12-21-25H-2-13-18H2-1H3

>  <threshold>


>  <reference>
R14|R23|

>  <group>
C

>  <Class>
-1

>  <ABC>
20.56

>  <ABCGG>
16.08

>  <nAcid>
0

>  <nBase>
1

>  <nAromAtom>
12

>  <nAromBond>
12

>  <nAtom>
56

>  <nHeavyAtom>
27

>  <nSpiro>
0

>  <nBridgehead>
0

>  <nHetero>
4

>  <nN>
1

>  <nO>
3

>  <nF>
0

>  <BalabanJ>
1.5

>  <BertzCT>
708.92

>  <nBonds>
58

>  <nBondsO>
29

>  <nBondsS>
45

>  <nBondsD>
1

>  <nBondsT>
0

>  <nBondsA>
12

>  <nBondsM>
13

>  <nBondsKS>
51

>  <nBondsKD>
7

>  <RNCG>
0.22

>  <RPCG>
0.15

>  <FCSP3>
0.43

>  <SZ>
33

>  <Sm>
30.6

>  <Sv>
33.76

>  <Sse>
55.53

>  <Sp>
36.68

>  <Si>
62.94

>  <MZ>
0.59

>  <Mm>
0.55

>  <Mv>
0.6

>  <Mse>
0.99

>  <Mp>
0.65

>  <Mi>
1.12

>  <NsCH3>
1

>  <NdCH2>
0

>  <NssCH2>
7

>  <NtCH>
0

>  <NdsCH>
0

>  <NaaCH>
10

>  <NsssCH>
1

>  <NddC>
0

>  <NtsC>
0

>  <NdssC>
1

>  <NaasC>
2

>  <NaaaC>
0

>  <NssssC>
1

>  <NsNH3>
0

>  <NsNH2>
0

>  <NssNH2>
0

>  <NdNH>
0

>  <NssNH>
0

>  <NaaNH>
0

>  <NtN>
0

>  <NsssNH>
0

>  <NdsN>
0

>  <NaaN>
0

>  <NsssN>
1

>  <NddsN>
0

>  <NaasN>
0

>  <NssssN>
0

>  <NsOH>
1

>  <NdO>
1

>  <NssO>
1

>  <NaaO>
0

>  <NsF>
0

>  <NsSiH3>
0

>  <NssSiH2>
0

>  <NsssSiH>
0

>  <NssssSi>
0

>  <NsPH2>
0

>  <NssPH>
0

>  <NsssP>
0

>  <NdsssP>
0

>  <NsssssP>
0

>  <NsSH>
0

>  <NdS>
0

>  <NssS>
0

>  <NaaS>
0

>  <NdssS>
0

>  <NddssS>
0

>  <NsCl>
0

>  <NsBr>
0

>  <NsI>
0

>  <fragCpx>
139.04

>  <fMF>
0.38

>  <nHBAcc>
4

>  <nHBDon>
1

>  <Kier1>
21.7

>  <Kier2>
10.68

>  <Lipinski>
1

>  <GhoseFilter>
1

>  <FilterItLogS>
-4.83

>  <VMcGowan>
299.84

>  <LabuteASA>
161.33

>  <PEOE_VSA1>
14.74

>  <PEOE_VSA2>
4.79

>  <PEOE_VSA3>
0

>  <PEOE_VSA4>
0

>  <PEOE_VSA5>
0

>  <PEOE_VSA6>
60.66

>  <PEOE_VSA7>
50.4

>  <PEOE_VSA8>
6.54

>  <PEOE_VSA9>
18.13

>  <PEOE_VSA10>
0

>  <PEOE_VSA11>
0

>  <PEOE_VSA12>
0

>  <PEOE_VSA13>
0

>  <SMR_VSA1>
14.64

>  <SMR_VSA2>
0

>  <SMR_VSA3>
4.9

>  <SMR_VSA4>
0

>  <SMR_VSA5>
37.71

>  <SMR_VSA6>
26.24

>  <SMR_VSA7>
71.79

>  <SMR_VSA8>
0

>  <SMR_VSA9>
0

>  <SlogP_VSA1>
0

>  <SlogP_VSA2>
42.22

>  <SlogP_VSA3>
14.95

>  <SlogP_VSA4>
0

>  <SlogP_VSA5>
43.42

>  <SlogP_VSA6>
60.66

>  <SlogP_VSA7>
0

>  <SlogP_VSA8>
0

>  <SlogP_VSA9>
0

>  <SlogP_VSA10>
0

>  <SlogP_VSA11>
0

>  <EState_VSA1>
11.52

>  <EState_VSA2>
5.97

>  <EState_VSA3>
13.03

>  <EState_VSA4>
43.6

>  <EState_VSA5>
0

>  <EState_VSA6>
0

>  <EState_VSA7>
67.59

>  <EState_VSA8>
4.9

>  <EState_VSA9>
4.74

>  <EState_VSA10>
9.9

>  <VSA_EState1>
5.43

>  <VSA_EState2>
15.14

>  <VSA_EState3>
10.39

>  <VSA_EState4>
1.46

>  <VSA_EState5>
-0.11

>  <VSA_EState6>
19.79

>  <VSA_EState7>
1.74

>  <VSA_EState8>
4.74

>  <VSA_EState9>
0

>  <apol>
61.25

>  <bpol>
33.41

>  <nRing>
3

>  <nHRing>
1

>  <naRing>
2

>  <naHRing>
0

>  <nARing 2>
1

>  <nAHRing 2>
1

>  <nFRing>
0

>  <nFHRing>
0

>  <nFaRing>
0

>  <nFaHRing>
0

>  <nFARing 2>
0

>  <nFAHRing 2>
0

>  <nRot>
7

>  <SLogP>
3.71

>  <SMR>
106.45

>  <TopoPSA(NO)>
49.77

>  <TopoPSA>
49.77

>  <JGI1>
0.17

>  <JGI2>
0.1

>  <JGI3>
0.04

>  <JGI4>
0.02

>  <JGI5>
0.03

>  <Diameter>
14

>  <Radius>
7

>  <TMWC10>
131.57

>  <TSRW10>
62.04

>  <MW>
367.21

>  <AMW>
6.56

>  <WPath>
2024

>  <WPol>
43

>  <Zagreb1>
136

>  <Zagreb2>
159

>  <mZagreb2>
6.19

>  <yes>


>  <nAR-cont>
0.816016

>  <nHA-cont>
0.860070871

>  <MWHBN>
0.260923235

>  <MWHBN-cont>
0.939570185

>  <TPSA-cont>
0.652574495

>  <pka_cont>
0.97

>  <yes.1>


>  <BBB_SCORE>
4.875591139

>  <MMFF94 Energy>
54.669

$$$$
Compound 2479
Actelion Java MolfileCreator 2.0

  0  0  0  0  0  0              0 V3000
M  V30 BEGIN CTAB
M  V30 COUNTS 66 67 0 0 0
M  V30 BEGIN ATOM
M  V30 1 O -1.6545 -0.8663 -1.1027 0
M  V30 2 C -2.0584 -1.1839 0.0046 0
M  V30 3 O -2.526 -2.4031 0.3717 0
M  V30 4 C -2.0381 -0.2849 1.1739 0
M  V30 5 C -2.5035 -3.3763 -0.6771 0
M  V30 6 C -3.1478 0.0194 1.8836 0
M  V30 7 C -0.6717 0.3043 1.5167 0
M  V30 8 C -3.0219 -4.6857 -0.1162 0
M  V30 9 N -3.0518 0.893 2.9551 0
M  V30 10 C -4.5313 -0.4905 1.5733 0
M  V30 11 C -0.7431 1.3189 2.6559 0
M  V30 12 C 0.3383 -0.8113 1.8368 0
M  V30 13 C -1.8931 1.5586 3.3262 0
M  V30 14 C 0.5086 2.017 3.013 0
M  V30 15 C 1.5132 -1.0117 1.0823 0
M  V30 16 C 0.0864 -1.6733 2.9265 0
M  V30 17 C -2.0392 2.5503 4.4526 0
M  V30 18 O 0.9664 2.0848 4.1427 0
M  V30 19 O 1.0309 2.5867 1.8992 0
M  V30 20 C 2.3894 -2.0558 1.419 0
M  V30 21 C 1.8784 -0.1707 -0.0589 0
M  V30 22 C 0.9664 -2.7055 3.2509 0
M  V30 23 C 2.2389 3.3214 2.1275 0
M  V30 24 C 2.1172 -2.8979 2.4962 0
M  V30 25 C 1.5682 -0.5158 -1.3161 0
M  V30 26 C 2.639 3.9937 0.8288 0
M  V30 27 C 1.9435 0.3703 -2.4352 0
M  V30 28 O 2.5346 1.4299 -2.3166 0
M  V30 29 O 1.5233 -0.2153 -3.5805 0
M  V30 30 C 1.7278 0.437 -4.8589 0
M  V30 31 C 0.9831 1.775 -4.9258 0
M  V30 32 C 1.111 -0.5204 -5.8895 0
M  V30 33 C 3.22 0.5965 -5.1692 0
M  V30 34 H -1.4774 -3.5089 -1.0381 0
M  V30 35 H -3.1455 -3.0458 -1.5012 0
M  V30 36 H -0.3559 0.8591 0.6246 0
M  V30 37 H -3.0251 -5.465 -0.8833 0
M  V30 38 H -2.4018 -5.0176 0.7229 0
M  V30 39 H -4.0398 -4.5639 0.2688 0
M  V30 40 H -3.901 1.1006 3.4747 0
M  V30 41 H -5.2592 0.3265 1.6336 0
M  V30 42 H -4.8194 -1.259 2.2977 0
M  V30 43 H -4.6204 -0.9109 0.568 0
M  V30 44 H -0.8071 -1.5417 3.5357 0
M  V30 45 H -2.0678 2.0255 5.4129 0
M  V30 46 H -2.9729 3.1139 4.3438 0
M  V30 47 H -1.2361 3.2911 4.484 0
M  V30 48 H 3.2989 -2.2159 0.8431 0
M  V30 49 H 2.4136 0.7471 0.1678 0
M  V30 50 H 0.7528 -3.3552 4.0957 0
M  V30 51 H 3.0285 2.6334 2.4494 0
M  V30 52 H 2.0748 4.0821 2.8991 0
M  V30 53 H 2.8068 -3.6989 2.7482 0
M  V30 54 H 1.0258 -1.4224 -1.5563 0
M  V30 55 H 3.5594 4.5703 0.9558 0
M  V30 56 H 2.7939 3.2514 0.0398 0
M  V30 57 H 1.846 4.6647 0.4824 0
M  V30 58 H 1.4227 2.5212 -4.2571 0
M  V30 59 H 1.0018 2.1912 -5.9388 0
M  V30 60 H -0.0615 1.6543 -4.6178 0
M  V30 61 H 0.0487 -0.6893 -5.6776 0
M  V30 62 H 1.203 -0.1343 -6.9101 0
M  V30 63 H 1.5944 -1.5034 -5.8463 0
M  V30 64 H 3.7001 1.3222 -4.5057 0
M  V30 65 H 3.7493 -0.3528 -5.0315 0
M  V30 66 H 3.3788 0.9381 -6.1977 0
M  V30 END ATOM
M  V30 BEGIN BOND
M  V30 1 2 1 2
M  V30 2 1 2 3
M  V30 3 1 2 4
M  V30 4 1 3 5
M  V30 5 2 4 6
M  V30 6 1 4 7
M  V30 7 1 5 8
M  V30 8 1 6 9
M  V30 9 1 6 10
M  V30 10 1 7 11
M  V30 11 1 7 12
M  V30 12 1 9 13
M  V30 13 1 11 14
M  V30 14 2 12 15
M  V30 15 1 12 16
M  V30 16 1 13 17
M  V30 17 2 14 18
M  V30 18 1 14 19
M  V30 19 1 15 20
M  V30 20 1 15 21
M  V30 21 2 16 22
M  V30 22 1 19 23
M  V30 23 2 20 24
M  V30 24 2 21 25
M  V30 25 1 23 26
M  V30 26 1 25 27
M  V30 27 2 27 28
M  V30 28 1 27 29
M  V30 29 1 29 30
M  V30 30 1 30 31
M  V30 31 1 30 32
M  V30 32 1 30 33
M  V30 33 2 11 13
M  V30 34 1 22 24
M  V30 35 1 5 34
M  V30 36 1 5 35
M  V30 37 1 7 36
M  V30 38 1 8 37
M  V30 39 1 8 38
M  V30 40 1 8 39
M  V30 41 1 9 40
M  V30 42 1 10 41
M  V30 43 1 10 42
M  V30 44 1 10 43
M  V30 45 1 16 44
M  V30 46 1 17 45
M  V30 47 1 17 46
M  V30 48 1 17 47
M  V30 49 1 20 48
M  V30 50 1 21 49
M  V30 51 1 22 50
M  V30 52 1 23 51
M  V30 53 1 23 52
M  V30 54 1 24 53
M  V30 55 1 25 54
M  V30 56 1 26 55
M  V30 57 1 26 56
M  V30 58 1 26 57
M  V30 59 1 31 58
M  V30 60 1 31 59
M  V30 61 1 31 60
M  V30 62 1 32 61
M  V30 63 1 32 62
M  V30 64 1 32 63
M  V30 65 1 33 64
M  V30 66 1 33 65
M  V30 67 1 33 66
M  V30 END BOND
M  V30 END CTAB
M  END
>  <Column 1>
3064

>  <level_0>
5215

>  <index>
5216

>  <Unnamed: 0>
5216

>  <NO.>
5228

>  <Name>
2-6-dimethyl-4-[2-[3-[(2-methylpropan-2-yl)oxy]-3-oxoprop-1-enyl]phenyl]-1-4-dihydropyridine-3-5-dicarboxylic acid diethyl ester

>  <IUPAC_name>
diethyl 2-6-dimethyl-4-[2-[3-[(2-methylpropan-2-yl)oxy]-3-oxoprop-1-enyl]phenyl]-1-4-dihydropyridine-3-5-dicarboxylate

>  <SMILES>
CCOC(=O)C1=C(C)NC(C)=C(C(=O)OCC)C1c1ccccc1C=CC(=O)OC(C)(C)C

>  <CID>
68733

>  <logBB>


>  <BBB+/BBB->
BBB-

>  <Inchi>
InChI=1S/C26H33NO6/c1-8-31-24(29)21-16(3)27-17(4)22(25(30)32-9-2)23(21)19-13-11-10-12-18(19)14-15-20(28)33-26(5-6)7/h10-15-23-27H-8-9H2-1-7H3

>  <threshold>


>  <reference>
R14|

>  <group>
C

>  <Class>
-1

>  <ABC>
24.74

>  <ABCGG>
21.39

>  <nAcid>
0

>  <nBase>
0

>  <nAromAtom>
6

>  <nAromBond>
6

>  <nAtom>
66

>  <nHeavyAtom>
33

>  <nSpiro>
0

>  <nBridgehead>
0

>  <nHetero>
7

>  <nN>
1

>  <nO>
6

>  <nF>
0

>  <BalabanJ>
2.32

>  <BertzCT>
969.85

>  <nBonds>
67

>  <nBondsO>
34

>  <nBondsS>
55

>  <nBondsD>
6

>  <nBondsT>
0

>  <nBondsA>
6

>  <nBondsM>
12

>  <nBondsKS>
58

>  <nBondsKD>
9

>  <RNCG>
0.15

>  <RPCG>
0.11

>  <FCSP3>
0.42

>  <SZ>
40.67

>  <Sm>
37.93

>  <Sv>
39.99

>  <Sse>
66.3

>  <Sp>
42.72

>  <Si>
74.4

>  <MZ>
0.62

>  <Mm>
0.57

>  <Mv>
0.61

>  <Mse>
1

>  <Mp>
0.65

>  <Mi>
1.13

>  <NsCH3>
7

>  <NdCH2>
0

>  <NssCH2>
2

>  <NtCH>
0

>  <NdsCH>
2

>  <NaaCH>
4

>  <NsssCH>
1

>  <NddC>
0

>  <NtsC>
0

>  <NdssC>
7

>  <NaasC>
2

>  <NaaaC>
0

>  <NssssC>
1

>  <NsNH3>
0

>  <NsNH2>
0

>  <NssNH2>
0

>  <NdNH>
0

>  <NssNH>
1

>  <NaaNH>
0

>  <NtN>
0

>  <NsssNH>
0

>  <NdsN>
0

>  <NaaN>
0

>  <NsssN>
0

>  <NddsN>
0

>  <NaasN>
0

>  <NssssN>
0

>  <NsOH>
0

>  <NdO>
3

>  <NssO>
3

>  <NaaO>
0

>  <NsF>
0

>  <NsSiH3>
0

>  <NssSiH2>
0

>  <NsssSiH>
0

>  <NssssSi>
0

>  <NsPH2>
0

>  <NssPH>
0

>  <NsssP>
0

>  <NdsssP>
0

>  <NsssssP>
0

>  <NsSH>
0

>  <NdS>
0

>  <NssS>
0

>  <NaaS>
0

>  <NdssS>
0

>  <NddssS>
0

>  <NsCl>
0

>  <NsBr>
0

>  <NsI>
0

>  <fragCpx>
100.07

>  <fMF>
0.18

>  <nHBAcc>
7

>  <nHBDon>
1

>  <Kier1>
29.23

>  <Kier2>
13.35

>  <Lipinski>
1

>  <GhoseFilter>
1

>  <FilterItLogS>
-5.54

>  <VMcGowan>
361.98

>  <LabuteASA>
195.03

>  <PEOE_VSA1>
19.53

>  <PEOE_VSA2>
0

>  <PEOE_VSA3>
14.38

>  <PEOE_VSA4>
0

>  <PEOE_VSA5>
0

>  <PEOE_VSA6>
24.27

>  <PEOE_VSA7>
65.67

>  <PEOE_VSA8>
17.47

>  <PEOE_VSA9>
30.28

>  <PEOE_VSA10>
5.6

>  <PEOE_VSA11>
0

>  <PEOE_VSA12>
0

>  <PEOE_VSA13>
0

>  <SMR_VSA1>
28.59

>  <SMR_VSA2>
0

>  <SMR_VSA3>
5.32

>  <SMR_VSA4>
0

>  <SMR_VSA5>
59.99

>  <SMR_VSA6>
13.21

>  <SMR_VSA7>
64.01

>  <SMR_VSA8>
0

>  <SMR_VSA9>
0

>  <SlogP_VSA1>
5.32

>  <SlogP_VSA2>
36.72

>  <SlogP_VSA3>
28.59

>  <SlogP_VSA4>
0

>  <SlogP_VSA5>
65.51

>  <SlogP_VSA6>
52.88

>  <SlogP_VSA7>
0

>  <SlogP_VSA8>
6.08

>  <SlogP_VSA9>
0

>  <SlogP_VSA10>
0

>  <SlogP_VSA11>
0

>  <EState_VSA1>
29.43

>  <EState_VSA2>
13.21

>  <EState_VSA3>
33.67

>  <EState_VSA4>
0

>  <EState_VSA5>
6.08

>  <EState_VSA6>
54.54

>  <EState_VSA7>
24.27

>  <EState_VSA8>
5.32

>  <EState_VSA9>
14.21

>  <EState_VSA10>
14.38

>  <VSA_EState1>
15.99

>  <VSA_EState2>
38.2

>  <VSA_EState3>
3.12

>  <VSA_EState4>
2.55

>  <VSA_EState5>
-2.26

>  <VSA_EState6>
7.27

>  <VSA_EState7>
2.97

>  <VSA_EState8>
12.75

>  <VSA_EState9>
0

>  <apol>
71.34

>  <bpol>
41.49

>  <nRing>
2

>  <nHRing>
1

>  <naRing>
1

>  <naHRing>
0

>  <nARing 2>
1

>  <nAHRing 2>
1

>  <nFRing>
0

>  <nFHRing>
0

>  <nFaRing>
0

>  <nFaHRing>
0

>  <nFARing 2>
0

>  <nFAHRing 2>
0

>  <nRot>
7

>  <SLogP>
4.4

>  <SMR>
125.86

>  <TopoPSA(NO)>
90.93

>  <TopoPSA>
90.93

>  <JGI1>
0.24

>  <JGI2>
0.08

>  <JGI3>
0.06

>  <JGI4>
0.04

>  <JGI5>
0.03

>  <Diameter>
13

>  <Radius>
7

>  <TMWC10>
144.73

>  <TSRW10>
68.97

>  <MW>
455.23

>  <AMW>
6.9

>  <WPath>
3032

>  <WPol>
53

>  <Zagreb1>
164

>  <Zagreb2>
189

>  <mZagreb2>
7.43

>  <yes>


>  <nAR-cont>
0.816016

>  <nHA-cont>
0.61399562

>  <MWHBN>
0.374951029

>  <MWHBN-cont>
0.574575711

>  <TPSA-cont>
0.365252136

>  <pka_cont>
0.97

>  <yes.1>


>  <BBB_SCORE>
3.507379458

>  <MMFF94 Energy>
10.908

$$$$
Compound 2480
Actelion Java MolfileCreator 2.0

  0  0  0  0  0  0              0 V3000
M  V30 BEGIN CTAB
M  V30 COUNTS 53 54 0 0 0
M  V30 BEGIN ATOM
M  V30 1 Cl -2.7857 -2.8653 0.4771 0
M  V30 2 C -1.1108 -2.8509 0.902 0
M  V30 3 C -0.3734 -1.6623 1.047 0
M  V30 4 C -0.5013 -4.0958 1.0992 0
M  V30 5 C 0.9912 -1.7698 1.3942 0
M  V30 6 C -0.9818 -0.2672 0.8436 0 CFG=2
M  V30 7 C 0.8469 -4.1772 1.4418 0
M  V30 8 C 1.593 -3.0136 1.5889 0
M  V30 9 C -0.3022 0.4574 -0.3182 0
M  V30 10 C -0.9447 0.538 2.1442 0
M  V30 11 C 0.3326 1.6392 -0.1468 0
M  V30 12 C -0.3096 -0.2164 -1.6333 0
M  V30 13 C -0.2801 1.7122 2.2337 0
M  V30 14 C -1.6298 -0.0462 3.3177 0
M  V30 15 N 0.3572 2.2205 1.1147 0
M  V30 16 C 1.0217 2.4156 -1.253 0
M  V30 17 O 0.6733 -0.3497 -2.345 0
M  V30 18 O -1.5695 -0.6247 -1.9172 0
M  V30 19 C -0.1914 2.5573 3.479 0
M  V30 20 O -1.1397 -0.1417 4.4317 0
M  V30 21 O -2.8757 -0.4393 2.9557 0
M  V30 22 O 2.4271 2.2779 -1.0658 0
M  V30 23 C -1.7309 -1.3268 -3.1578 0
M  V30 24 C -3.6182 -1.0532 4.0088 0
M  V30 25 C 3.2039 2.9074 -2.0855 0
M  V30 26 C -1.9572 -0.3425 -4.2897 0
M  V30 27 C 3.1456 2.186 -3.4434 0
M  V30 28 N 3.355 0.7411 -3.3461 0
M  V30 29 H -1.0757 -5.0122 0.986 0
M  V30 30 H 1.6009 -0.874 1.5147 0
M  V30 31 H -2.0397 -0.3405 0.5678 0
M  V30 32 H 1.3139 -5.1469 1.5928 0
M  V30 33 H 2.6458 -3.0701 1.855 0
M  V30 34 H 0.941 3.0467 1.2287 0
M  V30 35 H 0.715 2.085 -2.2475 0
M  V30 36 H 0.751 3.4762 -1.1747 0
M  V30 37 H 0.7653 2.3862 3.9823 0
M  V30 38 H -1.0017 2.3644 4.1872 0
M  V30 39 H -0.2564 3.6211 3.2229 0
M  V30 40 H -2.6091 -1.9715 -3.0488 0
M  V30 41 H -0.8743 -1.9803 -3.3588 0
M  V30 42 H -4.5927 -1.3471 3.6094 0
M  V30 43 H -3.1057 -1.9518 4.3664 0
M  V30 44 H -3.7782 -0.3451 4.828 0
M  V30 45 H 4.2401 2.9074 -1.7291 0
M  V30 46 H 2.9002 3.9553 -2.1921 0
M  V30 47 H -2.1392 -0.8689 -5.2307 0
M  V30 48 H -2.8158 0.3015 -4.073 0
M  V30 49 H -1.0913 0.3145 -4.4186 0
M  V30 50 H 3.9075 2.6134 -4.1037 0
M  V30 51 H 2.1782 2.3604 -3.9254 0
M  V30 52 H 4.0661 0.5512 -2.6397 0
M  V30 53 H 2.5038 0.3166 -2.9481 0
M  V30 END ATOM
M  V30 BEGIN BOND
M  V30 1 1 1 2
M  V30 2 2 2 3
M  V30 3 1 2 4
M  V30 4 1 3 5
M  V30 5 1 3 6
M  V30 6 2 4 7
M  V30 7 2 5 8
M  V30 8 1 6 9
M  V30 9 1 6 10
M  V30 10 2 9 11
M  V30 11 1 9 12
M  V30 12 2 10 13
M  V30 13 1 10 14
M  V30 14 1 11 15
M  V30 15 1 11 16
M  V30 16 2 12 17
M  V30 17 1 12 18
M  V30 18 1 13 19
M  V30 19 2 14 20
M  V30 20 1 14 21
M  V30 21 1 16 22
M  V30 22 1 18 23
M  V30 23 1 21 24
M  V30 24 1 22 25
M  V30 25 1 23 26
M  V30 26 1 25 27
M  V30 27 1 27 28
M  V30 28 1 7 8
M  V30 29 1 13 15
M  V30 30 1 4 29
M  V30 31 1 5 30
M  V30 32 1 6 31
M  V30 33 1 7 32
M  V30 34 1 8 33
M  V30 35 1 15 34
M  V30 36 1 16 35
M  V30 37 1 16 36
M  V30 38 1 19 37
M  V30 39 1 19 38
M  V30 40 1 19 39
M  V30 41 1 23 40
M  V30 42 1 23 41
M  V30 43 1 24 42
M  V30 44 1 24 43
M  V30 45 1 24 44
M  V30 46 1 25 45
M  V30 47 1 25 46
M  V30 48 1 26 47
M  V30 49 1 26 48
M  V30 50 1 26 49
M  V30 51 1 27 50
M  V30 52 1 27 51
M  V30 53 1 28 52
M  V30 54 1 28 53
M  V30 END BOND
M  V30 BEGIN COLLECTION
M  V30 MDLV30/STERAC1 ATOMS=(1 6)
M  V30 END COLLECTION
M  V30 END CTAB
M  END
>  <Column 1>
3065

>  <level_0>
5216

>  <index>
5217

>  <Unnamed: 0>
5217

>  <NO.>
5229

>  <Name>
amlodipine besylate

>  <IUPAC_name>
3-o-ethyl 5-o-methyl 2-(2-aminoethoxymethyl)-4-(2-chlorophenyl)-6-methyl-1-4-dihydropyridine-3-5-dicarboxylate

>  <SMILES>
CCOC(=O)C1=C(COCCN)NC(C)=C(C(=O)OC)C1c1ccccc1Cl

>  <CID>
2162

>  <logBB>


>  <BBB+/BBB->
BBB-

>  <Inchi>
InChI=1S/C20H25ClN2O5/c1-4-28-20(25)18-15(11-27-10-9-22)23-12(2)16(19(24)26-3)17(18)13-7-5-6-8-14(13)21/h5-8-17-23H-4-9-11-22H2-1-3H3

>  <threshold>


>  <reference>
R14|R15|

>  <group>
C

>  <Class>
-1

>  <ABC>
20.62

>  <ABCGG>
18.29

>  <nAcid>
0

>  <nBase>
1

>  <nAromAtom>
6

>  <nAromBond>
6

>  <nAtom>
53

>  <nHeavyAtom>
28

>  <nSpiro>
0

>  <nBridgehead>
0

>  <nHetero>
8

>  <nN>
2

>  <nO>
5

>  <nF>
0

>  <BalabanJ>
2.38

>  <BertzCT>
803.54

>  <nBonds>
54

>  <nBondsO>
29

>  <nBondsS>
44

>  <nBondsD>
4

>  <nBondsT>
0

>  <nBondsA>
6

>  <nBondsM>
10

>  <nBondsKS>
47

>  <nBondsKD>
7

>  <RNCG>
0.16

>  <RPCG>
0.12

>  <FCSP3>
0.4

>  <SZ>
36

>  <Sm>
34.04

>  <Sv>
32.95

>  <Sse>
53.84

>  <Sp>
35.01

>  <Si>
59.97

>  <MZ>
0.68

>  <Mm>
0.64

>  <Mv>
0.62

>  <Mse>
1.02

>  <Mp>
0.66

>  <Mi>
1.13

>  <NsCH3>
3

>  <NdCH2>
0

>  <NssCH2>
4

>  <NtCH>
0

>  <NdsCH>
0

>  <NaaCH>
4

>  <NsssCH>
1

>  <NddC>
0

>  <NtsC>
0

>  <NdssC>
6

>  <NaasC>
2

>  <NaaaC>
0

>  <NssssC>
0

>  <NsNH3>
0

>  <NsNH2>
1

>  <NssNH2>
0

>  <NdNH>
0

>  <NssNH>
1

>  <NaaNH>
0

>  <NtN>
0

>  <NsssNH>
0

>  <NdsN>
0

>  <NaaN>
0

>  <NsssN>
0

>  <NddsN>
0

>  <NaasN>
0

>  <NssssN>
0

>  <NsOH>
0

>  <NdO>
2

>  <NssO>
3

>  <NaaO>
0

>  <NsF>
0

>  <NsSiH3>
0

>  <NssSiH2>
0

>  <NsssSiH>
0

>  <NssssSi>
0

>  <NsPH2>
0

>  <NssPH>
0

>  <NsssP>
0

>  <NdsssP>
0

>  <NsssssP>
0

>  <NsSH>
0

>  <NdS>
0

>  <NssS>
0

>  <NaaS>
0

>  <NdssS>
0

>  <NddssS>
0

>  <NsCl>
1

>  <NsBr>
0

>  <NsI>
0

>  <fragCpx>
85.08

>  <fMF>
0.23

>  <nHBAcc>
7

>  <nHBDon>
2

>  <Kier1>
24.27

>  <Kier2>
12

>  <Lipinski>
1

>  <GhoseFilter>
1

>  <FilterItLogS>
-5.01

>  <VMcGowan>
302.39

>  <LabuteASA>
169.01

>  <PEOE_VSA1>
25.26

>  <PEOE_VSA2>
0

>  <PEOE_VSA3>
9.59

>  <PEOE_VSA4>
0

>  <PEOE_VSA5>
0

>  <PEOE_VSA6>
29.8

>  <PEOE_VSA7>
25.48

>  <PEOE_VSA8>
17.26

>  <PEOE_VSA9>
49.69

>  <PEOE_VSA10>
0

>  <PEOE_VSA11>
0

>  <PEOE_VSA12>
0

>  <PEOE_VSA13>
0

>  <SMR_VSA1>
23.8

>  <SMR_VSA2>
0

>  <SMR_VSA3>
5.32

>  <SMR_VSA4>
5.73

>  <SMR_VSA5>
19.77

>  <SMR_VSA6>
33.48

>  <SMR_VSA7>
57.39

>  <SMR_VSA8>
0

>  <SMR_VSA9>
0

>  <SlogP_VSA1>
11.05

>  <SlogP_VSA2>
45.41

>  <SlogP_VSA3>
23.8

>  <SlogP_VSA4>
0

>  <SlogP_VSA5>
25.33

>  <SlogP_VSA6>
46.81

>  <SlogP_VSA7>
5.02

>  <SlogP_VSA8>
0

>  <SlogP_VSA9>
0

>  <SlogP_VSA10>
0

>  <SlogP_VSA11>
0

>  <EState_VSA1>
17.86

>  <EState_VSA2>
18.79

>  <EState_VSA3>
40.7

>  <EState_VSA4>
0

>  <EState_VSA5>
7.11

>  <EState_VSA6>
38.11

>  <EState_VSA7>
0

>  <EState_VSA8>
5.32

>  <EState_VSA9>
31.55

>  <EState_VSA10>
9.59

>  <VSA_EState1>
15.78

>  <VSA_EState2>
25.46

>  <VSA_EState3>
3.52

>  <VSA_EState4>
7.7

>  <VSA_EState5>
-1.86

>  <VSA_EState6>
7.05

>  <VSA_EState7>
0

>  <VSA_EState8>
4.42

>  <VSA_EState9>
1.29

>  <apol>
58.46

>  <bpol>
32.53

>  <nRing>
2

>  <nHRing>
1

>  <naRing>
1

>  <naHRing>
0

>  <nARing 2>
1

>  <nAHRing 2>
1

>  <nFRing>
0

>  <nFHRing>
0

>  <nFaRing>
0

>  <nFaHRing>
0

>  <nFARing 2>
0

>  <nFAHRing 2>
0

>  <nRot>
8

>  <SLogP>
2.27

>  <SMR>
105.58

>  <TopoPSA(NO)>
99.88

>  <TopoPSA>
99.88

>  <JGI1>
0.16

>  <JGI2>
0.08

>  <JGI3>
0.06

>  <JGI4>
0.04

>  <JGI5>
0.03

>  <Diameter>
11

>  <Radius>
6

>  <TMWC10>
133.4

>  <TSRW10>
63.08

>  <MW>
408.15

>  <AMW>
7.7

>  <WPath>
1836

>  <WPol>
47

>  <Zagreb1>
136

>  <Zagreb2>
160

>  <mZagreb2>
6.64

>  <yes>


>  <nAR-cont>
0.816016

>  <nHA-cont>
0.82432561

>  <MWHBN>
0.445484511

>  <MWHBN-cont>
0.30219615

>  <TPSA-cont>
0.302775578

>  <pka_cont>
0.97

>  <yes.1>


>  <BBB_SCORE>
3.184186992

>  <MMFF94 Energy>
30.952

$$$$
Compound 2481
Actelion Java MolfileCreator 2.0

  0  0  0  0  0  0              0 V3000
M  V30 BEGIN CTAB
M  V30 COUNTS 50 50 0 0 0
M  V30 BEGIN ATOM
M  V30 1 O 2.1116 1.5638 -3.4429 0
M  V30 2 C 1.4915 0.6921 -2.8511 0
M  V30 3 O 1.0829 -0.4852 -3.3847 0
M  V30 4 C 1.0913 0.8164 -1.4205 0
M  V30 5 C 1.4263 -0.6578 -4.7644 0
M  V30 6 C 0.5255 -0.1973 -0.7399 0
M  V30 7 C 1.36 2.1616 -0.7967 0
M  V30 8 C 0.8973 -2.0045 -5.2174 0
M  V30 9 C 0.1158 -0.1129 0.7051 0
M  V30 10 C 0.6887 2.3872 0.5785 0
M  V30 11 O -1.3123 0.0363 0.6883 0
M  V30 12 C 0.7583 1.0975 1.4474 0
M  V30 13 N -0.689 2.8917 0.4387 0
M  V30 14 C -2.0327 -1.1476 1.0491 0
M  V30 15 N 2.141 0.8234 1.8738 0
M  V30 16 C -2.083 -1.3086 2.5782 0
M  V30 17 C -3.4376 -1.0437 0.4365 0
M  V30 18 C 2.4229 -0.0391 2.9071 0
M  V30 19 C -2.6986 -0.1269 3.3172 0
M  V30 20 C -3.3971 -1.0576 -1.0873 0
M  V30 21 O 1.5693 -0.6782 3.511 0
M  V30 22 C 3.8913 -0.1695 3.2057 0
M  V30 23 H 2.5155 -0.6296 -4.8806 0
M  V30 24 H 0.9699 0.139 -5.3623 0
M  V30 25 H 0.3199 -1.1495 -1.222 0
M  V30 26 H 2.4468 2.2635 -0.6743 0
M  V30 27 H 1.0599 2.964 -1.4834 0
M  V30 28 H 1.1356 -2.1836 -6.2695 0
M  V30 29 H 1.3287 -2.8105 -4.6146 0
M  V30 30 H -0.1886 -2.0558 -5.0867 0
M  V30 31 H 0.4072 -1.0448 1.2028 0
M  V30 32 H 1.2465 3.1839 1.0872 0
M  V30 33 H 0.1892 1.2764 2.3699 0
M  V30 34 H -0.7714 3.5135 -0.3633 0
M  V30 35 H -1.3179 2.0998 0.2558 0
M  V30 36 H -1.538 -2.0273 0.6164 0
M  V30 37 H 2.9066 1.2821 1.3976 0
M  V30 38 H -1.0653 -1.4434 2.9604 0
M  V30 39 H -2.6379 -2.2194 2.8324 0
M  V30 40 H -4.0595 -1.877 0.7827 0
M  V30 41 H -3.9216 -0.1104 0.7465 0
M  V30 42 H -2.1811 0.8079 3.0831 0
M  V30 43 H -3.7574 -0.0079 3.0698 0
M  V30 44 H -2.6291 -0.2864 4.3983 0
M  V30 45 H -2.8408 -0.2003 -1.4792 0
M  V30 46 H -4.4134 -1.0118 -1.4913 0
M  V30 47 H -2.9255 -1.9731 -1.4583 0
M  V30 48 H 4.3275 -0.9215 2.5431 0
M  V30 49 H 4.0256 -0.4778 4.2462 0
M  V30 50 H 4.4049 0.7847 3.058 0
M  V30 END ATOM
M  V30 BEGIN BOND
M  V30 1 2 1 2
M  V30 2 1 2 3
M  V30 3 1 2 4
M  V30 4 1 3 5
M  V30 5 2 4 6
M  V30 6 1 4 7
M  V30 7 1 5 8
M  V30 8 1 6 9
M  V30 9 1 7 10
M  V30 10 1 9 11
M  V30 11 1 9 12
M  V30 12 1 10 13
M  V30 13 1 11 14
M  V30 14 1 12 15
M  V30 15 1 14 16
M  V30 16 1 14 17
M  V30 17 1 15 18
M  V30 18 1 16 19
M  V30 19 1 17 20
M  V30 20 2 18 21
M  V30 21 1 18 22
M  V30 22 1 10 12
M  V30 23 1 5 23
M  V30 24 1 5 24
M  V30 25 1 6 25
M  V30 26 1 7 26
M  V30 27 1 7 27
M  V30 28 1 8 28
M  V30 29 1 8 29
M  V30 30 1 8 30
M  V30 31 1 9 31
M  V30 32 1 10 32
M  V30 33 1 12 33
M  V30 34 1 13 34
M  V30 35 1 13 35
M  V30 36 1 14 36
M  V30 37 1 15 37
M  V30 38 1 16 38
M  V30 39 1 16 39
M  V30 40 1 17 40
M  V30 41 1 17 41
M  V30 42 1 19 42
M  V30 43 1 19 43
M  V30 44 1 19 44
M  V30 45 1 20 45
M  V30 46 1 20 46
M  V30 47 1 20 47
M  V30 48 1 22 48
M  V30 49 1 22 49
M  V30 50 1 22 50
M  V30 END BOND
M  V30 END CTAB
M  END
>  <Column 1>
3066

>  <level_0>
5217

>  <index>
5218

>  <Unnamed: 0>
5218

>  <NO.>
5230

>  <Name>
oseltamivir

>  <IUPAC_name>
ethyl 4-acetamido-5-amino-3-pentan-3-yloxycyclohexene-1-carboxylate

>  <SMILES>
CCOC(=O)C1=CC(OC(CC)CC)C(NC(C)=O)C(N)C1

>  <CID>
4603

>  <logBB>


>  <BBB+/BBB->
BBB-

>  <Inchi>
InChI=1S/C16H28N2O4/c1-5-12(6-2)22-14-9-11(16(20)21-7-3)8-13(17)15(14)18-10(4)19/h9-12-15H-5-8-17H2-1-4H3-(H-18-19)

>  <threshold>


>  <reference>
R14|R23|

>  <group>
C

>  <Class>
-1

>  <ABC>
15.87

>  <ABCGG>
14.61

>  <nAcid>
0

>  <nBase>
1

>  <nAromAtom>
0

>  <nAromBond>
0

>  <nAtom>
50

>  <nHeavyAtom>
22

>  <nSpiro>
0

>  <nBridgehead>
0

>  <nHetero>
6

>  <nN>
2

>  <nO>
4

>  <nF>
0

>  <BalabanJ>
2.8

>  <BertzCT>
418.37

>  <nBonds>
50

>  <nBondsO>
22

>  <nBondsS>
47

>  <nBondsD>
3

>  <nBondsT>
0

>  <nBondsA>
0

>  <nBondsM>
3

>  <nBondsKS>
47

>  <nBondsKD>
3

>  <RNCG>
0.2

>  <RPCG>
0.15

>  <FCSP3>
0.75

>  <SZ>
28.33

>  <Sm>
26.01

>  <Sv>
27.96

>  <Sse>
50.08

>  <Sp>
30.42

>  <Si>
57.23

>  <MZ>
0.57

>  <Mm>
0.52

>  <Mv>
0.56

>  <Mse>
1

>  <Mp>
0.61

>  <Mi>
1.14

>  <NsCH3>
4

>  <NdCH2>
0

>  <NssCH2>
4

>  <NtCH>
0

>  <NdsCH>
1

>  <NaaCH>
0

>  <NsssCH>
4

>  <NddC>
0

>  <NtsC>
0

>  <NdssC>
3

>  <NaasC>
0

>  <NaaaC>
0

>  <NssssC>
0

>  <NsNH3>
0

>  <NsNH2>
1

>  <NssNH2>
0

>  <NdNH>
0

>  <NssNH>
1

>  <NaaNH>
0

>  <NtN>
0

>  <NsssNH>
0

>  <NdsN>
0

>  <NaaN>
0

>  <NsssN>
0

>  <NddsN>
0

>  <NaasN>
0

>  <NssssN>
0

>  <NsOH>
0

>  <NdO>
2

>  <NssO>
2

>  <NaaO>
0

>  <NsF>
0

>  <NsSiH3>
0

>  <NssSiH2>
0

>  <NsssSiH>
0

>  <NssssSi>
0

>  <NsPH2>
0

>  <NssPH>
0

>  <NsssP>
0

>  <NdsssP>
0

>  <NsssssP>
0

>  <NsSH>
0

>  <NdS>
0

>  <NssS>
0

>  <NaaS>
0

>  <NdssS>
0

>  <NddssS>
0

>  <NsCl>
0

>  <NsBr>
0

>  <NsI>
0

>  <fragCpx>
22.06

>  <fMF>
0.12

>  <nHBAcc>
5

>  <nHBDon>
2

>  <Kier1>
20.05

>  <Kier2>
9.99

>  <Lipinski>
1

>  <GhoseFilter>
1

>  <FilterItLogS>
-2.47

>  <VMcGowan>
255.98

>  <LabuteASA>
131.96

>  <PEOE_VSA1>
20.52

>  <PEOE_VSA2>
4.79

>  <PEOE_VSA3>
4.79

>  <PEOE_VSA4>
0

>  <PEOE_VSA5>
0

>  <PEOE_VSA6>
13.85

>  <PEOE_VSA7>
32.26

>  <PEOE_VSA8>
18.54

>  <PEOE_VSA9>
24.86

>  <PEOE_VSA10>
0

>  <PEOE_VSA11>
0

>  <PEOE_VSA12>
5.91

>  <PEOE_VSA13>
0

>  <SMR_VSA1>
19.06

>  <SMR_VSA2>
0

>  <SMR_VSA3>
5.32

>  <SMR_VSA4>
5.73

>  <SMR_VSA5>
71.25

>  <SMR_VSA6>
6.61

>  <SMR_VSA7>
11.65

>  <SMR_VSA8>
0

>  <SMR_VSA9>
0

>  <SlogP_VSA1>
11.05

>  <SlogP_VSA2>
42.77

>  <SlogP_VSA3>
19.06

>  <SlogP_VSA4>
0

>  <SlogP_VSA5>
46.96

>  <SlogP_VSA6>
11.65

>  <SlogP_VSA7>
0

>  <SlogP_VSA8>
0

>  <SlogP_VSA9>
0

>  <SlogP_VSA10>
0

>  <SlogP_VSA11>
0

>  <EState_VSA1>
6.1

>  <EState_VSA2>
30.06

>  <EState_VSA3>
18.6

>  <EState_VSA4>
12.84

>  <EState_VSA5>
6.92

>  <EState_VSA6>
13

>  <EState_VSA7>
13.85

>  <EState_VSA8>
5.32

>  <EState_VSA9>
15.21

>  <EState_VSA10>
9.59

>  <VSA_EState1>
11.1

>  <VSA_EState2>
23.37

>  <VSA_EState3>
2.84

>  <VSA_EState4>
6.68

>  <VSA_EState5>
-0.52

>  <VSA_EState6>
-0.72

>  <VSA_EState7>
3.48

>  <VSA_EState8>
7.62

>  <VSA_EState9>
0

>  <apol>
50.8

>  <bpol>
33.3

>  <nRing>
1

>  <nHRing>
0

>  <naRing>
0

>  <naHRing>
0

>  <nARing 2>
1

>  <nAHRing 2>
0

>  <nFRing>
0

>  <nFHRing>
0

>  <nFaRing>
0

>  <nFaHRing>
0

>  <nFARing 2>
0

>  <nFAHRing 2>
0

>  <nRot>
7

>  <SLogP>
1.29

>  <SMR>
84.16

>  <TopoPSA(NO)>
90.65

>  <TopoPSA>
90.65

>  <JGI1>
0.25

>  <JGI2>
0.08

>  <JGI3>
0.05

>  <JGI4>
0.05

>  <JGI5>
0.03

>  <Diameter>
10

>  <Radius>
5

>  <TMWC10>
116.26

>  <TSRW10>
55.3

>  <MW>
312.2

>  <AMW>
6.24

>  <WPath>
1060

>  <WPol>
32

>  <Zagreb1>
102

>  <Zagreb2>
115

>  <mZagreb2>
5.25

>  <yes>


>  <nAR-cont>
0.816016

>  <nHA-cont>
0.983774276

>  <MWHBN>
0.396170005

>  <MWHBN-cont>
0.491144824

>  <TPSA-cont>
0.36720671

>  <pka_cont>
0.97

>  <yes.1>


>  <BBB_SCORE>
3.755920931

>  <MMFF94 Energy>
26.185

$$$$
Compound 2482
Actelion Java MolfileCreator 2.0

  0  0  0  0  0  0              0 V3000
M  V30 BEGIN CTAB
M  V30 COUNTS 39 40 0 0 0
M  V30 BEGIN ATOM
M  V30 1 S -1.4444 -0.1604 0.401 0
M  V30 2 C -0.5276 -1.6272 0.4539 0
M  V30 3 C -0.4549 0.6656 1.6862 0 CFG=2
M  V30 4 N 0.4986 -1.5453 1.3804 0
M  V30 5 C -0.7576 -2.6968 -0.3219 0
M  V30 6 N 0.0763 1.9723 1.2395 0
M  V30 7 C 0.6129 -0.355 2.1059 0
M  V30 8 C 1.4324 -2.6277 1.632 0
M  V30 9 C -1.849 -2.8369 -1.3094 0
M  V30 10 C 0.4625 2.8103 2.3842 0
M  V30 11 C 1.1707 1.8766 0.2629 0
M  V30 12 O 1.4605 -0.1518 2.9726 0
M  V30 13 O -2.9637 -2.3549 -1.2329 0
M  V30 14 O -1.3821 -3.6355 -2.3049 0
M  V30 15 C 0.8231 4.2259 1.9285 0
M  V30 16 C 1.5535 3.2626 -0.2629 0
M  V30 17 C -2.3068 -3.8956 -3.3718 0
M  V30 18 C 1.924 4.2058 0.8753 0
M  V30 19 C -2.2345 -2.7903 -4.4087 0
M  V30 20 H -1.1332 0.7998 2.537 0
M  V30 21 H -0.1171 -3.5691 -0.2743 0
M  V30 22 H 2.1577 -2.3642 2.4067 0
M  V30 23 H 1.981 -2.8524 0.7121 0
M  V30 24 H 0.8803 -3.5118 1.9656 0
M  V30 25 H -0.3727 2.8901 3.0906 0
M  V30 26 H 1.3109 2.3801 2.9292 0
M  V30 27 H 2.0582 1.4044 0.7026 0
M  V30 28 H 0.8742 1.2695 -0.5992 0
M  V30 29 H 1.1467 4.8209 2.7901 0
M  V30 30 H -0.0676 4.7176 1.5173 0
M  V30 31 H 2.3961 3.1744 -0.9579 0
M  V30 32 H 0.7141 3.6849 -0.83 0
M  V30 33 H -3.3272 -4.0246 -2.9927 0
M  V30 34 H -2.0104 -4.8465 -3.8265 0
M  V30 35 H 2.8637 3.8746 1.334 0
M  V30 36 H 2.0929 5.2163 0.4874 0
M  V30 37 H -2.8917 -3.009 -5.255 0
M  V30 38 H -2.528 -1.8275 -3.9783 0
M  V30 39 H -1.2099 -2.6753 -4.7771 0
M  V30 END ATOM
M  V30 BEGIN BOND
M  V30 1 1 1 2
M  V30 2 1 1 3
M  V30 3 1 2 4
M  V30 4 2 2 5
M  V30 5 1 3 6
M  V30 6 1 3 7
M  V30 7 1 4 8
M  V30 8 1 5 9
M  V30 9 1 6 10
M  V30 10 1 6 11
M  V30 11 2 7 12
M  V30 12 2 9 13
M  V30 13 1 9 14
M  V30 14 1 10 15
M  V30 15 1 11 16
M  V30 16 1 14 17
M  V30 17 1 15 18
M  V30 18 1 17 19
M  V30 19 1 4 7
M  V30 20 1 16 18
M  V30 21 1 3 20
M  V30 22 1 5 21
M  V30 23 1 8 22
M  V30 24 1 8 23
M  V30 25 1 8 24
M  V30 26 1 10 25
M  V30 27 1 10 26
M  V30 28 1 11 27
M  V30 29 1 11 28
M  V30 30 1 15 29
M  V30 31 1 15 30
M  V30 32 1 16 31
M  V30 33 1 16 32
M  V30 34 1 17 33
M  V30 35 1 17 34
M  V30 36 1 18 35
M  V30 37 1 18 36
M  V30 38 1 19 37
M  V30 39 1 19 38
M  V30 40 1 19 39
M  V30 END BOND
M  V30 BEGIN COLLECTION
M  V30 MDLV30/STERAC1 ATOMS=(1 3)
M  V30 END COLLECTION
M  V30 END CTAB
M  END
>  <Column 1>
3068

>  <level_0>
5219

>  <index>
5220

>  <Unnamed: 0>
5220

>  <NO.>
5232

>  <Name>
etozolin

>  <IUPAC_name>
ethyl 2-(3-methyl-4-oxo-5-piperidin-1-yl-1-3-thiazolidin-2-ylidene)acetate

>  <SMILES>
CCOC(=O)C=C1SC(N2CCCCC2)C(=O)N1C

>  <CID>
6304

>  <logBB>


>  <BBB+/BBB->
BBB-

>  <Inchi>
InChI=1S/C13H20N2O3S/c1-3-18-11(16)9-10-14(2)12(17)13(19-10)15-7-5-4-6-8-15/h9-13H-3-8H2-1-2H3

>  <threshold>


>  <reference>
R14|

>  <group>
C

>  <Class>
1

>  <ABC>
14.31

>  <ABCGG>
12.66

>  <nAcid>
0

>  <nBase>
1

>  <nAromAtom>
0

>  <nAromBond>
0

>  <nAtom>
39

>  <nHeavyAtom>
19

>  <nSpiro>
0

>  <nBridgehead>
0

>  <nHetero>
6

>  <nN>
2

>  <nO>
3

>  <nF>
0

>  <BalabanJ>
1.89

>  <BertzCT>
391.35

>  <nBonds>
40

>  <nBondsO>
20

>  <nBondsS>
37

>  <nBondsD>
3

>  <nBondsT>
0

>  <nBondsA>
0

>  <nBondsM>
3

>  <nBondsKS>
37

>  <nBondsKD>
3

>  <RNCG>
0.26

>  <RPCG>
0.18

>  <FCSP3>
0.69

>  <SZ>
25.33

>  <Sm>
23.68

>  <Sv>
23.27

>  <Sse>
39.27

>  <Sp>
25.48

>  <Si>
44.28

>  <MZ>
0.65

>  <Mm>
0.61

>  <Mv>
0.6

>  <Mse>
1.01

>  <Mp>
0.65

>  <Mi>
1.14

>  <NsCH3>
2

>  <NdCH2>
0

>  <NssCH2>
6

>  <NtCH>
0

>  <NdsCH>
1

>  <NaaCH>
0

>  <NsssCH>
1

>  <NddC>
0

>  <NtsC>
0

>  <NdssC>
3

>  <NaasC>
0

>  <NaaaC>
0

>  <NssssC>
0

>  <NsNH3>
0

>  <NsNH2>
0

>  <NssNH2>
0

>  <NdNH>
0

>  <NssNH>
0

>  <NaaNH>
0

>  <NtN>
0

>  <NsssNH>
0

>  <NdsN>
0

>  <NaaN>
0

>  <NsssN>
2

>  <NddsN>
0

>  <NaasN>
0

>  <NssssN>
0

>  <NsOH>
0

>  <NdO>
2

>  <NssO>
1

>  <NaaO>
0

>  <NsF>
0

>  <NsSiH3>
0

>  <NssSiH2>
0

>  <NsssSiH>
0

>  <NssssSi>
0

>  <NsPH2>
0

>  <NssPH>
0

>  <NsssP>
0

>  <NdsssP>
0

>  <NsssssP>
0

>  <NsSH>
0

>  <NdS>
0

>  <NssS>
1

>  <NaaS>
0

>  <NdssS>
0

>  <NddssS>
0

>  <NsCl>
0

>  <NsBr>
0

>  <NsI>
0

>  <fragCpx>
58.06

>  <fMF>
0.28

>  <nHBAcc>
5

>  <nHBDon>
0

>  <Kier1>
15.39

>  <Kier2>
7.14

>  <Lipinski>
1

>  <GhoseFilter>
1

>  <FilterItLogS>
-1.43

>  <VMcGowan>
213.33

>  <LabuteASA>
117.5

>  <PEOE_VSA1>
9.64

>  <PEOE_VSA2>
9.69

>  <PEOE_VSA3>
4.79

>  <PEOE_VSA4>
0

>  <PEOE_VSA5>
0

>  <PEOE_VSA6>
18.18

>  <PEOE_VSA7>
32.85

>  <PEOE_VSA8>
7.05

>  <PEOE_VSA9>
17.71

>  <PEOE_VSA10>
5.37

>  <PEOE_VSA11>
0

>  <PEOE_VSA12>
0

>  <PEOE_VSA13>
5.91

>  <SMR_VSA1>
14.33

>  <SMR_VSA2>
0

>  <SMR_VSA3>
9.8

>  <SMR_VSA4>
0

>  <SMR_VSA5>
31.56

>  <SMR_VSA6>
26.74

>  <SMR_VSA7>
11.11

>  <SMR_VSA8>
0

>  <SMR_VSA9>
0

>  <SlogP_VSA1>
0

>  <SlogP_VSA2>
53.79

>  <SlogP_VSA3>
14.33

>  <SlogP_VSA4>
0

>  <SlogP_VSA5>
26.19

>  <SlogP_VSA6>
11.11

>  <SlogP_VSA7>
0

>  <SlogP_VSA8>
0

>  <SlogP_VSA9>
0

>  <SlogP_VSA10>
0

>  <SlogP_VSA11>
0

>  <EState_VSA1>
0

>  <EState_VSA2>
17.25

>  <EState_VSA3>
11.64

>  <EState_VSA4>
25.93

>  <EState_VSA5>
24.26

>  <EState_VSA6>
18.87

>  <EState_VSA7>
0

>  <EState_VSA8>
4.9

>  <EState_VSA9>
4.74

>  <EState_VSA10>
9.59

>  <VSA_EState1>
4.89

>  <VSA_EState2>
27.46

>  <VSA_EState3>
0.5

>  <VSA_EState4>
0

>  <VSA_EState5>
-0.33

>  <VSA_EState6>
0

>  <VSA_EState7>
4.94

>  <VSA_EState8>
4.04

>  <VSA_EState9>
1.71

>  <apol>
42.55

>  <bpol>
29.42

>  <nRing>
2

>  <nHRing>
2

>  <naRing>
0

>  <naHRing>
0

>  <nARing 2>
2

>  <nAHRing 2>
2

>  <nFRing>
0

>  <nFHRing>
0

>  <nFaRing>
0

>  <nFaHRing>
0

>  <nFARing 2>
0

>  <nFAHRing 2>
0

>  <nRot>
3

>  <SLogP>
1.41

>  <SMR>
74.29

>  <TopoPSA(NO)>
49.85

>  <TopoPSA>
75.15

>  <JGI1>
0.18

>  <JGI2>
0.08

>  <JGI3>
0.07

>  <JGI4>
0.04

>  <JGI5>
0.03

>  <Diameter>
11

>  <Radius>
6

>  <TMWC10>
111.13

>  <TSRW10>
66.21

>  <MW>
284.12

>  <AMW>
7.29

>  <WPath>
732

>  <WPol>
27

>  <Zagreb1>
94

>  <Zagreb2>
109

>  <mZagreb2>
4.36

>  <yes>


>  <nAR-cont>
1

>  <nHA-cont>
0.998649058

>  <MWHBN>
0.296632752

>  <MWHBN-cont>
0.85068116

>  <TPSA-cont>
0.475406335

>  <pka_cont>
0.97

>  <yes.1>


>  <BBB_SCORE>
4.710483467

>  <MMFF94 Energy>
8.9511

$$$$
Compound 2483
Actelion Java MolfileCreator 2.0

  0  0  0  0  0  0              0 V3000
M  V30 BEGIN CTAB
M  V30 COUNTS 39 40 0 0 0
M  V30 BEGIN ATOM
M  V30 1 F 6.453 -0.471 0.157 0
M  V30 2 C 5.3885 0.2882 -0.1334 0
M  V30 3 C 4.7745 1.0215 0.8732 0
M  V30 4 C 4.9174 0.3343 -1.4395 0
M  V30 5 C 3.6662 1.8142 0.5694 0
M  V30 6 C 3.8082 1.1255 -1.745 0
M  V30 7 C 3.16 1.866 -0.741 0
M  V30 8 C 1.9798 2.744 -1.0998 0
M  V30 9 N 0.961 2.7615 -0.08 0
M  V30 10 C 0.0693 1.7737 0.2234 0
M  V30 11 N -0.7714 2.0733 1.2344 0
M  V30 12 C 0.0088 0.5505 -0.4313 0
M  V30 13 C -1.6935 1.1617 1.5981 0
M  V30 14 C -0.9335 -0.3997 -0.0381 0
M  V30 15 N -2.5245 1.5272 2.6529 0
M  V30 16 C -1.8116 -0.0955 0.992 0
M  V30 17 N -2.7442 -1.0111 1.5131 0
M  V30 18 C -3.4508 -1.9956 0.8823 0
M  V30 19 O -4.2161 -2.7203 1.5091 0
M  V30 20 O -3.2534 -2.0613 -0.4592 0
M  V30 21 C -4.0008 -3.0667 -1.1577 0
M  V30 22 C -3.2478 -4.3836 -1.1398 0
M  V30 23 H 5.1589 0.9725 1.8868 0
M  V30 24 H 5.4176 -0.2432 -2.2101 0
M  V30 25 H 3.189 2.3842 1.3645 0
M  V30 26 H 3.4519 1.1591 -2.7724 0
M  V30 27 H 1.5437 2.4423 -2.0597 0
M  V30 28 H 2.3577 3.7642 -1.2382 0
M  V30 29 H 0.8651 3.5807 0.5051 0
M  V30 30 H 0.6961 0.3063 -1.2323 0
M  V30 31 H -0.9374 -1.3683 -0.5258 0
M  V30 32 H -3.5073 1.3282 2.5292 0
M  V30 33 H -2.2936 2.4527 2.9961 0
M  V30 34 H -2.9743 -0.8961 2.4928 0
M  V30 35 H -4.1123 -2.7214 -2.1907 0
M  V30 36 H -5.0103 -3.1748 -0.7449 0
M  V30 37 H -3.7792 -5.1422 -1.7212 0
M  V30 38 H -2.2434 -4.2574 -1.5572 0
M  V30 39 H -3.1233 -4.7512 -0.1164 0
M  V30 END ATOM
M  V30 BEGIN BOND
M  V30 1 1 1 2
M  V30 2 2 2 3
M  V30 3 1 2 4
M  V30 4 1 3 5
M  V30 5 2 4 6
M  V30 6 2 5 7
M  V30 7 1 7 8
M  V30 8 1 8 9
M  V30 9 1 9 10
M  V30 10 2 10 11
M  V30 11 1 10 12
M  V30 12 1 11 13
M  V30 13 2 12 14
M  V30 14 1 13 15
M  V30 15 2 13 16
M  V30 16 1 16 17
M  V30 17 1 17 18
M  V30 18 2 18 19
M  V30 19 1 18 20
M  V30 20 1 20 21
M  V30 21 1 21 22
M  V30 22 1 6 7
M  V30 23 1 14 16
M  V30 24 1 3 23
M  V30 25 1 4 24
M  V30 26 1 5 25
M  V30 27 1 6 26
M  V30 28 1 8 27
M  V30 29 1 8 28
M  V30 30 1 9 29
M  V30 31 1 12 30
M  V30 32 1 14 31
M  V30 33 1 15 32
M  V30 34 1 15 33
M  V30 35 1 17 34
M  V30 36 1 21 35
M  V30 37 1 21 36
M  V30 38 1 22 37
M  V30 39 1 22 38
M  V30 40 1 22 39
M  V30 END BOND
M  V30 END CTAB
M  END
>  <Column 1>
3069

>  <level_0>
5220

>  <index>
5221

>  <Unnamed: 0>
5221

>  <NO.>
5233

>  <Name>
flupirtine

>  <IUPAC_name>
ethyl n-[2-amino-6-[(4-fluorophenyl)methylamino]pyridin-3-yl]carbamate

>  <SMILES>
CCOC(=O)Nc1ccc(NCc2ccc(F)cc2)nc1N

>  <CID>
53276

>  <logBB>


>  <BBB+/BBB->
BBB+

>  <Inchi>
InChI=1S/C15H17FN4O2/c1-2-22-15(21)19-12-7-8-13(20-14(12)17)18-9-10-3-5-11(16)6-4-10/h3-8H-2-9H2-1H3-(H-19-21)(H3-17-18-20)

>  <threshold>


>  <reference>
R14|R23|

>  <group>
C

>  <Class>
-1

>  <ABC>
16.55

>  <ABCGG>
13.04

>  <nAcid>
0

>  <nBase>
0

>  <nAromAtom>
12

>  <nAromBond>
12

>  <nAtom>
39

>  <nHeavyAtom>
22

>  <nSpiro>
0

>  <nBridgehead>
0

>  <nHetero>
7

>  <nN>
4

>  <nO>
2

>  <nF>
1

>  <BalabanJ>
1.64

>  <BertzCT>
646.49

>  <nBonds>
40

>  <nBondsO>
23

>  <nBondsS>
27

>  <nBondsD>
1

>  <nBondsT>
0

>  <nBondsA>
12

>  <nBondsM>
13

>  <nBondsKS>
33

>  <nBondsKD>
7

>  <RNCG>
0.19

>  <RPCG>
0.17

>  <FCSP3>
0.2

>  <SZ>
26.67

>  <Sm>
25.34

>  <Sv>
24.71

>  <Sse>
39.82

>  <Sp>
25.72

>  <Si>
44.66

>  <MZ>
0.68

>  <Mm>
0.65

>  <Mv>
0.63

>  <Mse>
1.02

>  <Mp>
0.66

>  <Mi>
1.15

>  <NsCH3>
1

>  <NdCH2>
0

>  <NssCH2>
2

>  <NtCH>
0

>  <NdsCH>
0

>  <NaaCH>
6

>  <NsssCH>
0

>  <NddC>
0

>  <NtsC>
0

>  <NdssC>
1

>  <NaasC>
5

>  <NaaaC>
0

>  <NssssC>
0

>  <NsNH3>
0

>  <NsNH2>
1

>  <NssNH2>
0

>  <NdNH>
0

>  <NssNH>
2

>  <NaaNH>
0

>  <NtN>
0

>  <NsssNH>
0

>  <NdsN>
0

>  <NaaN>
1

>  <NsssN>
0

>  <NddsN>
0

>  <NaasN>
0

>  <NssssN>
0

>  <NsOH>
0

>  <NdO>
1

>  <NssO>
1

>  <NaaO>
0

>  <NsF>
1

>  <NsSiH3>
0

>  <NssSiH2>
0

>  <NsssSiH>
0

>  <NssssSi>
0

>  <NsPH2>
0

>  <NssPH>
0

>  <NsssP>
0

>  <NdsssP>
0

>  <NsssssP>
0

>  <NsSH>
0

>  <NdS>
0

>  <NssS>
0

>  <NaaS>
0

>  <NdssS>
0

>  <NddssS>
0

>  <NsCl>
0

>  <NsBr>
0

>  <NsI>
0

>  <fragCpx>
67.07

>  <fMF>
0.36

>  <nHBAcc>
5

>  <nHBDon>
3

>  <Kier1>
18.34

>  <Kier2>
9.33

>  <Lipinski>
1

>  <GhoseFilter>
1

>  <FilterItLogS>
-4.53

>  <VMcGowan>
223.81

>  <LabuteASA>
127.05

>  <PEOE_VSA1>
15.79

>  <PEOE_VSA2>
5.32

>  <PEOE_VSA3>
14.17

>  <PEOE_VSA4>
0

>  <PEOE_VSA5>
0

>  <PEOE_VSA6>
12.13

>  <PEOE_VSA7>
36.75

>  <PEOE_VSA8>
6.54

>  <PEOE_VSA9>
12.29

>  <PEOE_VSA10>
17.45

>  <PEOE_VSA11>
0

>  <PEOE_VSA12>
0

>  <PEOE_VSA13>
0

>  <SMR_VSA1>
13.92

>  <SMR_VSA2>
0

>  <SMR_VSA3>
4.98

>  <SMR_VSA4>
0

>  <SMR_VSA5>
13.47

>  <SMR_VSA6>
22.97

>  <SMR_VSA7>
47.78

>  <SMR_VSA8>
0

>  <SMR_VSA9>
0

>  <SlogP_VSA1>
16.37

>  <SlogP_VSA2>
17.68

>  <SlogP_VSA3>
11.28

>  <SlogP_VSA4>
5.82

>  <SlogP_VSA5>
12.49

>  <SlogP_VSA6>
36.4

>  <SlogP_VSA7>
0

>  <SlogP_VSA8>
0

>  <SlogP_VSA9>
0

>  <SlogP_VSA10>
26.51

>  <SlogP_VSA11>
0

>  <EState_VSA1>
6.09

>  <EState_VSA2>
18.24

>  <EState_VSA3>
18.05

>  <EState_VSA4>
5.56

>  <EState_VSA5>
12.13

>  <EState_VSA6>
31.19

>  <EState_VSA7>
0

>  <EState_VSA8>
15.62

>  <EState_VSA9>
10.47

>  <EState_VSA10>
9.18

>  <VSA_EState1>
17.58

>  <VSA_EState2>
15.47

>  <VSA_EState3>
5.57

>  <VSA_EState4>
7.08

>  <VSA_EState5>
0.45

>  <VSA_EState6>
9.47

>  <VSA_EState7>
-0.58

>  <VSA_EState8>
2.47

>  <VSA_EState9>
0

>  <apol>
42.95

>  <bpol>
22.48

>  <nRing>
2

>  <nHRing>
1

>  <naRing>
2

>  <naHRing>
1

>  <nARing 2>
0

>  <nAHRing 2>
0

>  <nFRing>
0

>  <nFHRing>
0

>  <nFaRing>
0

>  <nFaHRing>
0

>  <nFARing 2>
0

>  <nFAHRing 2>
0

>  <nRot>
5

>  <SLogP>
2.98

>  <SMR>
83.02

>  <TopoPSA(NO)>
89.27

>  <TopoPSA>
89.27

>  <JGI1>
0.22

>  <JGI2>
0.07

>  <JGI3>
0.03

>  <JGI4>
0.05

>  <JGI5>
0.02

>  <Diameter>
15

>  <Radius>
8

>  <TMWC10>
116.61

>  <TSRW10>
55.33

>  <MW>
304.13

>  <AMW>
7.8

>  <WPath>
1269

>  <WPol>
29

>  <Zagreb1>
106

>  <Zagreb2>
118

>  <mZagreb2>
5.03

>  <yes>


>  <nAR-cont>
0.336376

>  <nHA-cont>
0.983774276

>  <MWHBN>
0.458733394

>  <MWHBN-cont>
0

>  <TPSA-cont>
0.376839967

>  <pka_cont>
0.97

>  <yes.1>


>  <BBB_SCORE>
2.558830209

>  <MMFF94 Energy>
-76.059

$$$$
Compound 2484
Actelion Java MolfileCreator 2.0

  0  0  0  0  0  0              0 V3000
M  V30 BEGIN CTAB
M  V30 COUNTS 59 61 0 0 0
M  V30 BEGIN ATOM
M  V30 1 S -2.0161 1.4513 2.0968 0
M  V30 2 C -2.441 2.9631 1.0703 0
M  V30 3 C -3.2964 0.4634 1.2508 0
M  V30 4 C -2.7468 2.3847 -0.3399 0
M  V30 5 C -3.695 3.6249 1.6682 0
M  V30 6 C -1.2749 3.9526 1.1573 0
M  V30 7 N -3.3343 1.0781 -0.0677 0
M  V30 8 C -2.9637 -0.8721 0.5395 0
M  V30 9 C -1.466 2.3467 -1.196 0
M  V30 10 C -3.2175 -0.0654 -0.7771 0
M  V30 11 N -1.5905 -1.4213 0.7159 0
M  V30 12 O -1.0789 3.2993 -1.8635 0
M  V30 13 O -0.7687 1.1954 -1.0255 0
M  V30 14 O -3.1605 -0.2541 -1.9683 0
M  V30 15 C -1.327 -2.348 1.7031 0
M  V30 16 C 0.4218 1.0413 -1.8119 0
M  V30 17 O -2.2248 -2.7574 2.4436 0
M  V30 18 C 0.1148 -2.927 1.7291 0
M  V30 19 O 0.7298 -0.3594 -1.796 0
M  V30 20 C 1.56 1.8197 -1.1592 0
M  V30 21 N 0.2849 -3.7906 2.912 0
M  V30 22 C 1.2129 -1.8826 1.7059 0
M  V30 23 C 1.5345 -0.7762 -2.7993 0
M  V30 24 C 2.2694 -1.989 0.7877 0
M  V30 25 C 1.2356 -0.8324 2.6371 0
M  V30 26 O 2.0206 -0.0732 -3.6704 0
M  V30 27 O 1.7187 -2.1129 -2.6572 0
M  V30 28 C 3.3132 -1.0619 0.7922 0
M  V30 29 C 2.2787 0.0947 2.6393 0
M  V30 30 C 2.563 -2.7301 -3.6371 0
M  V30 31 C 3.318 -0.0215 1.7188 0
M  V30 32 C 4.0131 -2.65 -3.1979 0
M  V30 33 H -4.2743 0.479 1.7439 0
M  V30 34 H -3.4912 2.9712 -0.8895 0
M  V30 35 H -3.53 3.9394 2.7054 0
M  V30 36 H -4.5689 2.9649 1.6545 0
M  V30 37 H -3.962 4.5202 1.0945 0
M  V30 38 H -0.3179 3.5047 0.8695 0
M  V30 39 H -1.1539 4.3377 2.1771 0
M  V30 40 H -1.4514 4.8159 0.5057 0
M  V30 41 H -3.7276 -1.6469 0.682 0
M  V30 42 H -0.8226 -1.0702 0.1475 0
M  V30 43 H 0.2285 1.3749 -2.8395 0
M  V30 44 H 0.1847 -3.5582 0.8335 0
M  V30 45 H 2.5242 1.6035 -1.6278 0
M  V30 46 H 1.6386 1.5575 -0.1002 0
M  V30 47 H 1.3861 2.8985 -1.2051 0
M  V30 48 H 1.0627 -4.4248 2.7555 0
M  V30 49 H -0.561 -4.3516 3.0205 0
M  V30 50 H 2.2925 -2.8033 0.0668 0
M  V30 51 H 0.447 -0.7452 3.3834 0
M  V30 52 H 4.1276 -1.1569 0.0788 0
M  V30 53 H 2.2839 0.8995 3.3699 0
M  V30 54 H 2.4186 -2.2857 -4.6285 0
M  V30 55 H 2.2577 -3.7792 -3.7079 0
M  V30 56 H 4.1337 0.6964 1.7279 0
M  V30 57 H 4.6632 -3.1651 -3.9105 0
M  V30 58 H 4.3411 -1.6091 -3.1136 0
M  V30 59 H 4.141 -3.1047 -2.2101 0
M  V30 END ATOM
M  V30 BEGIN BOND
M  V30 1 1 1 2
M  V30 2 1 1 3
M  V30 3 1 2 4
M  V30 4 1 2 5
M  V30 5 1 2 6
M  V30 6 1 3 7
M  V30 7 1 3 8
M  V30 8 1 4 9
M  V30 9 1 7 10
M  V30 10 1 8 11
M  V30 11 2 9 12
M  V30 12 1 9 13
M  V30 13 2 10 14
M  V30 14 1 11 15
M  V30 15 1 13 16
M  V30 16 2 15 17
M  V30 17 1 15 18
M  V30 18 1 16 19
M  V30 19 1 16 20
M  V30 20 1 18 21
M  V30 21 1 18 22
M  V30 22 1 19 23
M  V30 23 2 22 24
M  V30 24 1 22 25
M  V30 25 2 23 26
M  V30 26 1 23 27
M  V30 27 1 24 28
M  V30 28 2 25 29
M  V30 29 1 27 30
M  V30 30 2 28 31
M  V30 31 1 30 32
M  V30 32 1 4 7
M  V30 33 1 8 10
M  V30 34 1 29 31
M  V30 35 1 3 33
M  V30 36 1 4 34
M  V30 37 1 5 35
M  V30 38 1 5 36
M  V30 39 1 5 37
M  V30 40 1 6 38
M  V30 41 1 6 39
M  V30 42 1 6 40
M  V30 43 1 8 41
M  V30 44 1 11 42
M  V30 45 1 16 43
M  V30 46 1 18 44
M  V30 47 1 20 45
M  V30 48 1 20 46
M  V30 49 1 20 47
M  V30 50 1 21 48
M  V30 51 1 21 49
M  V30 52 1 24 50
M  V30 53 1 25 51
M  V30 54 1 28 52
M  V30 55 1 29 53
M  V30 56 1 30 54
M  V30 57 1 30 55
M  V30 58 1 31 56
M  V30 59 1 32 57
M  V30 60 1 32 58
M  V30 61 1 32 59
M  V30 END BOND
M  V30 END CTAB
M  END
>  <Column 1>
3070

>  <level_0>
5221

>  <index>
5222

>  <Unnamed: 0>
5222

>  <NO.>
5234

>  <Name>
bacampicillin hydrochloride

>  <IUPAC_name>
1-ethoxycarbonyloxyethyl 6-[(2-amino-2-phenylacetyl)amino]-3-3-dimethyl-7-oxo-4-thia-1-azabicyclo[3.2.0]heptane-2-carboxylate

>  <SMILES>
CCOC(=O)OC(C)OC(=O)C1N2C(=O)C(NC(=O)C(N)c3ccccc3)C2SC1(C)C

>  <CID>
2282

>  <logBB>


>  <BBB+/BBB->
BBB-

>  <Inchi>
InChI=1S/C21H27N3O7S/c1-5-29-20(28)31-11(2)30-19(27)15-21(3-4)32-18-14(17(26)24(15)18)23-16(25)13(22)12-9-7-6-8-10-12/h6-11-13-15-18H-5-22H2-1-4H3-(H-23-25)

>  <threshold>


>  <reference>
R14|R23|

>  <group>
C

>  <Class>
-1

>  <ABC>
24.63

>  <ABCGG>
20.46

>  <nAcid>
0

>  <nBase>
1

>  <nAromAtom>
6

>  <nAromBond>
6

>  <nAtom>
59

>  <nHeavyAtom>
32

>  <nSpiro>
0

>  <nBridgehead>
0

>  <nHetero>
11

>  <nN>
3

>  <nO>
7

>  <nF>
0

>  <BalabanJ>
1.57

>  <BertzCT>
894.64

>  <nBonds>
61

>  <nBondsO>
34

>  <nBondsS>
51

>  <nBondsD>
4

>  <nBondsT>
0

>  <nBondsA>
6

>  <nBondsM>
10

>  <nBondsKS>
54

>  <nBondsKD>
7

>  <RNCG>
0.11

>  <RPCG>
0.13

>  <FCSP3>
0.52

>  <SZ>
41

>  <Sm>
38.76

>  <Sv>
36.78

>  <Sse>
60.37

>  <Sp>
38.85

>  <Si>
66.86

>  <MZ>
0.69

>  <Mm>
0.66

>  <Mv>
0.62

>  <Mse>
1.02

>  <Mp>
0.66

>  <Mi>
1.13

>  <NsCH3>
4

>  <NdCH2>
0

>  <NssCH2>
1

>  <NtCH>
0

>  <NdsCH>
0

>  <NaaCH>
5

>  <NsssCH>
5

>  <NddC>
0

>  <NtsC>
0

>  <NdssC>
4

>  <NaasC>
1

>  <NaaaC>
0

>  <NssssC>
1

>  <NsNH3>
0

>  <NsNH2>
1

>  <NssNH2>
0

>  <NdNH>
0

>  <NssNH>
1

>  <NaaNH>
0

>  <NtN>
0

>  <NsssNH>
0

>  <NdsN>
0

>  <NaaN>
0

>  <NsssN>
1

>  <NddsN>
0

>  <NaasN>
0

>  <NssssN>
0

>  <NsOH>
0

>  <NdO>
4

>  <NssO>
3

>  <NaaO>
0

>  <NsF>
0

>  <NsSiH3>
0

>  <NssSiH2>
0

>  <NsssSiH>
0

>  <NssssSi>
0

>  <NsPH2>
0

>  <NssPH>
0

>  <NsssP>
0

>  <NdsssP>
0

>  <NsssssP>
0

>  <NsSH>
0

>  <NdS>
0

>  <NssS>
1

>  <NaaS>
0

>  <NdssS>
0

>  <NddssS>
0

>  <NsCl>
0

>  <NsBr>
0

>  <NsI>
0

>  <fragCpx>
164.11

>  <fMF>
0.27

>  <nHBAcc>
9

>  <nHBDon>
2

>  <Kier1>
26.6

>  <Kier2>
11.16

>  <Lipinski>
1

>  <GhoseFilter>
1

>  <FilterItLogS>
-2.33

>  <VMcGowan>
331.45

>  <LabuteASA>
189.65

>  <PEOE_VSA1>
30.16

>  <PEOE_VSA2>
9.59

>  <PEOE_VSA3>
9.59

>  <PEOE_VSA4>
0

>  <PEOE_VSA5>
11.76

>  <PEOE_VSA6>
30.33

>  <PEOE_VSA7>
26.33

>  <PEOE_VSA8>
11.67

>  <PEOE_VSA9>
6.61

>  <PEOE_VSA10>
23.5

>  <PEOE_VSA11>
0

>  <PEOE_VSA12>
18.1

>  <PEOE_VSA13>
0

>  <SMR_VSA1>
33.39

>  <SMR_VSA2>
0

>  <SMR_VSA3>
10.22

>  <SMR_VSA4>
5.73

>  <SMR_VSA5>
62.23

>  <SMR_VSA6>
6.61

>  <SMR_VSA7>
35.9

>  <SMR_VSA8>
0

>  <SMR_VSA9>
0

>  <SlogP_VSA1>
11.05

>  <SlogP_VSA2>
63.94

>  <SlogP_VSA3>
28.59

>  <SlogP_VSA4>
0

>  <SlogP_VSA5>
39.3

>  <SlogP_VSA6>
30.33

>  <SlogP_VSA7>
0

>  <SlogP_VSA8>
0

>  <SlogP_VSA9>
0

>  <SlogP_VSA10>
4.79

>  <SlogP_VSA11>
0

>  <EState_VSA1>
58.48

>  <EState_VSA2>
6.61

>  <EState_VSA3>
5.56

>  <EState_VSA4>
0

>  <EState_VSA5>
23.59

>  <EState_VSA6>
45.04

>  <EState_VSA7>
6.07

>  <EState_VSA8>
10.05

>  <EState_VSA9>
15.21

>  <EState_VSA10>
19.18

>  <VSA_EState1>
14.04

>  <VSA_EState2>
51.03

>  <VSA_EState3>
2.26

>  <VSA_EState4>
6.65

>  <VSA_EState5>
-1.58

>  <VSA_EState6>
6.21

>  <VSA_EState7>
-2.14

>  <VSA_EState8>
6.74

>  <VSA_EState9>
0

>  <apol>
64.89

>  <bpol>
39.94

>  <nRing>
3

>  <nHRing>
2

>  <naRing>
1

>  <naHRing>
0

>  <nARing 2>
2

>  <nAHRing 2>
2

>  <nFRing>
1

>  <nFHRing>
1

>  <nFaRing>
0

>  <nFaHRing>
0

>  <nFARing 2>
1

>  <nFAHRing 2>
1

>  <nRot>
7

>  <SLogP>
1.3

>  <SMR>
115.05

>  <TopoPSA(NO)>
137.26

>  <TopoPSA>
162.56

>  <JGI1>
0.24

>  <JGI2>
0.09

>  <JGI3>
0.09

>  <JGI4>
0.05

>  <JGI5>
0.03

>  <Diameter>
18

>  <Radius>
9

>  <TMWC10>
144.89

>  <TSRW10>
83.44

>  <MW>
465.16

>  <AMW>
7.88

>  <WPath>
3224

>  <WPol>
50

>  <Zagreb1>
168

>  <Zagreb2>
200

>  <mZagreb2>
7.01

>  <yes>


>  <nAR-cont>
1

>  <nHA-cont>
0.658856097

>  <MWHBN>
0.510025047

>  <MWHBN-cont>
0

>  <TPSA-cont>
0

>  <pka_cont>
0.97

>  <yes.1>


>  <BBB_SCORE>
2.143856097

>  <MMFF94 Energy>
47.81

$$$$
Compound 2485
Actelion Java MolfileCreator 2.0

  0  0  0  0  0  0              0 V3000
M  V30 BEGIN CTAB
M  V30 COUNTS 36 38 0 0 0
M  V30 BEGIN ATOM
M  V30 1 I -2.1217 1.5502 4.656 0
M  V30 2 C -2.7781 0.9623 2.7402 0
M  V30 3 C -1.949 0.9062 1.6042 0
M  V30 4 C -4.1146 0.5401 2.6642 0
M  V30 5 C -0.5707 1.4791 1.6476 0
M  V30 6 C -2.4865 0.3813 0.4063 0
M  V30 7 C -4.6367 0.0527 1.4679 0
M  V30 8 O -0.435 2.631 2.0513 0
M  V30 9 N 0.493 0.7109 1.1827 0
M  V30 10 N -1.6772 0.1908 -0.7382 0
M  V30 11 C -3.8251 -0.0389 0.3411 0
M  V30 12 C 0.3087 -0.5728 0.5354 0
M  V30 13 C 1.8341 1.2718 1.181 0
M  V30 14 C -0.3819 -0.2885 -0.7421 0
M  V30 15 C -2.0416 0.3654 -2.0469 0
M  V30 16 C -0.0084 -0.3594 -2.0797 0
M  V30 17 N -1.0793 0.03 -2.8724 0
M  V30 18 C 1.2793 -0.7563 -2.6653 0
M  V30 19 O 1.4695 -0.8861 -3.8695 0
M  V30 20 O 2.2509 -0.9597 -1.7251 0
M  V30 21 C 3.5281 -1.3181 -2.2647 0
M  V30 22 C 4.4967 -1.4744 -1.1086 0
M  V30 23 H -4.7628 0.5798 3.538 0
M  V30 24 H -5.6733 -0.2752 1.4226 0
M  V30 25 H -4.2477 -0.4641 -0.5675 0
M  V30 26 H -0.3062 -1.2151 1.1769 0
M  V30 27 H 1.2696 -1.0773 0.4209 0
M  V30 28 H 2.1346 1.4622 0.1466 0
M  V30 29 H 2.5203 0.551 1.6351 0
M  V30 30 H 1.8863 2.2082 1.7423 0
M  V30 31 H -3.0114 0.7443 -2.3427 0
M  V30 32 H 3.8819 -0.5298 -2.9385 0
M  V30 33 H 3.4465 -2.2646 -2.8103 0
M  V30 34 H 5.4923 -1.7491 -1.4678 0
M  V30 35 H 4.5704 -0.5419 -0.539 0
M  V30 36 H 4.1459 -2.2443 -0.4134 0
M  V30 END ATOM
M  V30 BEGIN BOND
M  V30 1 1 1 2
M  V30 2 2 2 3
M  V30 3 1 2 4
M  V30 4 1 3 5
M  V30 5 1 3 6
M  V30 6 2 4 7
M  V30 7 2 5 8
M  V30 8 1 5 9
M  V30 9 1 6 10
M  V30 10 2 6 11
M  V30 11 1 9 12
M  V30 12 1 9 13
M  V30 13 1 10 14
M  V30 14 1 10 15
M  V30 15 2 14 16
M  V30 16 2 15 17
M  V30 17 1 16 18
M  V30 18 2 18 19
M  V30 19 1 18 20
M  V30 20 1 20 21
M  V30 21 1 21 22
M  V30 22 1 7 11
M  V30 23 1 12 14
M  V30 24 1 16 17
M  V30 25 1 4 23
M  V30 26 1 7 24
M  V30 27 1 11 25
M  V30 28 1 12 26
M  V30 29 1 12 27
M  V30 30 1 13 28
M  V30 31 1 13 29
M  V30 32 1 13 30
M  V30 33 1 15 31
M  V30 34 1 21 32
M  V30 35 1 21 33
M  V30 36 1 22 34
M  V30 37 1 22 35
M  V30 38 1 22 36
M  V30 END BOND
M  V30 END CTAB
M  END
>  <Column 1>
3072

>  <level_0>
5223

>  <index>
5224

>  <Unnamed: 0>
5224

>  <NO.>
5236

>  <Name>
iomazenil

>  <IUPAC_name>
ethyl 7-iodo-5-methyl-6-oxo-4h-imidazo[1-5-a][1-4]benzodiazepine-3-carboxylate

>  <SMILES>
CCOC(=O)c1ncn2c1CN(C)C(=O)c1c(I)cccc1-2

>  <CID>
10251042

>  <logBB>


>  <BBB+/BBB->
BBB+

>  <Inchi>
InChI=1S/C15H14IN3O3/c1-3-22-15(21)13-11-7-18(2)14(20)12-9(16)5-4-6-10(12)19(11)8-17-13/h4-6-8H-3-7H2-1-2H3

>  <threshold>


>  <reference>
R14|R23|

>  <group>
C

>  <Class>
-1

>  <ABC>
17.08

>  <ABCGG>
14.8

>  <nAcid>
0

>  <nBase>
0

>  <nAromAtom>
11

>  <nAromBond>
11

>  <nAtom>
36

>  <nHeavyAtom>
22

>  <nSpiro>
0

>  <nBridgehead>
0

>  <nHetero>
7

>  <nN>
3

>  <nO>
3

>  <nF>
0

>  <BalabanJ>
1.84

>  <BertzCT>
769.39

>  <nBonds>
38

>  <nBondsO>
24

>  <nBondsS>
25

>  <nBondsD>
2

>  <nBondsT>
0

>  <nBondsA>
11

>  <nBondsM>
13

>  <nBondsKS>
31

>  <nBondsKD>
7

>  <RNCG>
0.22

>  <RPCG>
0.17

>  <FCSP3>
0.27

>  <SZ>
33.67

>  <Sm>
34.24

>  <Sv>
24.79

>  <Sse>
36.71

>  <Sp>
27.21

>  <Si>
40.34

>  <MZ>
0.94

>  <Mm>
0.95

>  <Mv>
0.69

>  <Mse>
1.02

>  <Mp>
0.76

>  <Mi>
1.12

>  <NsCH3>
2

>  <NdCH2>
0

>  <NssCH2>
2

>  <NtCH>
0

>  <NdsCH>
0

>  <NaaCH>
4

>  <NsssCH>
0

>  <NddC>
0

>  <NtsC>
0

>  <NdssC>
2

>  <NaasC>
5

>  <NaaaC>
0

>  <NssssC>
0

>  <NsNH3>
0

>  <NsNH2>
0

>  <NssNH2>
0

>  <NdNH>
0

>  <NssNH>
0

>  <NaaNH>
0

>  <NtN>
0

>  <NsssNH>
0

>  <NdsN>
0

>  <NaaN>
1

>  <NsssN>
1

>  <NddsN>
0

>  <NaasN>
1

>  <NssssN>
0

>  <NsOH>
0

>  <NdO>
2

>  <NssO>
1

>  <NaaO>
0

>  <NsF>
0

>  <NsSiH3>
0

>  <NssSiH2>
0

>  <NsssSiH>
0

>  <NssssSi>
0

>  <NsPH2>
0

>  <NssPH>
0

>  <NsssP>
0

>  <NdsssP>
0

>  <NsssssP>
0

>  <NsSH>
0

>  <NdS>
0

>  <NssS>
0

>  <NaaS>
0

>  <NdssS>
0

>  <NddssS>
0

>  <NsCl>
0

>  <NsBr>
0

>  <NsI>
1

>  <fragCpx>
114.07

>  <fMF>
0.39

>  <nHBAcc>
5

>  <nHBDon>
0

>  <Kier1>
16.84

>  <Kier2>
6.86

>  <Lipinski>
1

>  <GhoseFilter>
1

>  <FilterItLogS>
-3.83

>  <VMcGowan>
232.91

>  <LabuteASA>
140.77

>  <PEOE_VSA1>
9.64

>  <PEOE_VSA2>
9.36

>  <PEOE_VSA3>
9.78

>  <PEOE_VSA4>
0

>  <PEOE_VSA5>
0

>  <PEOE_VSA6>
6.07

>  <PEOE_VSA7>
41.65

>  <PEOE_VSA8>
10.62

>  <PEOE_VSA9>
30.1

>  <PEOE_VSA10>
6.33

>  <PEOE_VSA11>
5.69

>  <PEOE_VSA12>
0

>  <PEOE_VSA13>
5.91

>  <SMR_VSA1>
14.33

>  <SMR_VSA2>
0

>  <SMR_VSA3>
14.45

>  <SMR_VSA4>
0

>  <SMR_VSA5>
13.47

>  <SMR_VSA6>
13.65

>  <SMR_VSA7>
45.05

>  <SMR_VSA8>
0

>  <SMR_VSA9>
5.69

>  <SlogP_VSA1>
0

>  <SlogP_VSA2>
39.98

>  <SlogP_VSA3>
11.28

>  <SlogP_VSA4>
3.57

>  <SlogP_VSA5>
33.46

>  <SlogP_VSA6>
24.53

>  <SlogP_VSA7>
0

>  <SlogP_VSA8>
5.69

>  <SlogP_VSA9>
0

>  <SlogP_VSA10>
0

>  <SlogP_VSA11>
0

>  <EState_VSA1>
5.97

>  <EState_VSA2>
18.21

>  <EState_VSA3>
17.8

>  <EState_VSA4>
9.26

>  <EState_VSA5>
0

>  <EState_VSA6>
29.77

>  <EState_VSA7>
18.2

>  <EState_VSA8>
27.57

>  <EState_VSA9>
4.74

>  <EState_VSA10>
9.59

>  <VSA_EState1>
7.71

>  <VSA_EState2>
30.44

>  <VSA_EState3>
0

>  <VSA_EState4>
2.28

>  <VSA_EState5>
-0.54

>  <VSA_EState6>
5.63

>  <VSA_EState7>
1.57

>  <VSA_EState8>
2.34

>  <VSA_EState9>
1.72

>  <apol>
45.44

>  <bpol>
25.76

>  <nRing>
3

>  <nHRing>
2

>  <naRing>
2

>  <naHRing>
1

>  <nARing 2>
1

>  <nAHRing 2>
1

>  <nFRing>
1

>  <nFHRing>
1

>  <nFaRing>
0

>  <nFaHRing>
0

>  <nFARing 2>
1

>  <nFAHRing 2>
1

>  <nRot>
2

>  <SLogP>
2.24

>  <SMR>
88.04

>  <TopoPSA(NO)>
64.43

>  <TopoPSA>
64.43

>  <JGI1>
0.17

>  <JGI2>
0.1

>  <JGI3>
0.05

>  <JGI4>
0.04

>  <JGI5>
0.03

>  <Diameter>
10

>  <Radius>
5

>  <TMWC10>
121.82

>  <TSRW10>
70.79

>  <MW>
411.01

>  <AMW>
11.42

>  <WPath>
941

>  <WPol>
42

>  <Zagreb1>
118

>  <Zagreb2>
144

>  <mZagreb2>
4.89

>  <yes>


>  <nAR-cont>
0.816016

>  <nHA-cont>
0.983774276

>  <MWHBN>
0.246628812

>  <MWHBN-cont>
0.965263441

>  <TPSA-cont>
0.550238591

>  <pka_cont>
0.97

>  <yes.1>


>  <BBB_SCORE>
4.83316262

>  <MMFF94 Energy>
49.472

$$$$
Compound 2486
Actelion Java MolfileCreator 2.0

  0  0  0  0  0  0              0 V3000
M  V30 BEGIN CTAB
M  V30 COUNTS 51 54 0 0 0
M  V30 BEGIN ATOM
M  V30 1 S -3.1695 -1.2994 -2.1935 0
M  V30 2 C -3.1153 -3.1195 -1.77 0
M  V30 3 C -1.4766 -1.0494 -1.5263 0
M  V30 4 C -2.3399 -3.1577 -0.4374 0
M  V30 5 C -4.5498 -3.6255 -1.6075 0
M  V30 6 C -2.4246 -3.85 -2.9291 0
M  V30 7 N -1.412 -2.04 -0.4567 0
M  V30 8 C -1.3174 0.0372 -0.4493 0
M  V30 9 C -1.6109 -4.4666 -0.1754 0
M  V30 10 C -1.2741 -1.1351 0.5397 0
M  V30 11 C -9.0E-4 0.8148 -0.3893 0
M  V30 12 O -0.4583 -4.7434 -0.4653 0
M  V30 13 O -2.4055 -5.397 0.3948 0
M  V30 14 O -1.2687 -1.2551 1.7425 0
M  V30 15 O 0.6964 1.0033 -1.3916 0
M  V30 16 N 0.3299 1.2805 0.8745 0
M  V30 17 C 1.4778 2.0615 1.1327 0
M  V30 18 C 1.6045 3.3331 0.5462 0
M  V30 19 C 2.4643 1.574 2.0302 0
M  V30 20 O 0.5731 3.8138 -0.224 0
M  V30 21 C 2.7065 4.131 0.8443 0
M  V30 22 C 3.5857 2.394 2.3094 0
M  V30 23 C 2.4 0.3061 2.6563 0
M  V30 24 C 1.0111 4.2338 -1.5208 0
M  V30 25 C 3.6925 3.6592 1.7109 0
M  V30 26 C 4.5828 1.9402 3.1888 0
M  V30 27 C 3.4 -0.1295 3.528 0
M  V30 28 C -0.2061 4.3039 -2.4254 0
M  V30 29 C 4.4904 0.6879 3.7947 0
M  V30 30 H -0.6658 -1.1586 -2.252 0
M  V30 31 H -3.0131 -2.9866 0.4145 0
M  V30 32 H -5.0863 -3.0861 -0.8183 0
M  V30 33 H -4.5584 -4.6879 -1.3397 0
M  V30 34 H -5.1231 -3.5195 -2.5359 0
M  V30 35 H -2.4132 -4.9325 -2.7583 0
M  V30 36 H -1.3855 -3.5296 -3.0623 0
M  V30 37 H -2.9505 -3.6855 -3.8771 0
M  V30 38 H -2.1887 0.6866 -0.3035 0
M  V30 39 H -1.8136 -6.1698 0.5214 0
M  V30 40 H -0.2043 0.9802 1.6839 0
M  V30 41 H 2.7966 5.1318 0.4341 0
M  V30 42 H 1.5677 -0.3672 2.4619 0
M  V30 43 H 1.7386 3.5298 -1.943 0
M  V30 44 H 1.4641 5.2291 -1.4548 0
M  V30 45 H 4.5446 4.2998 1.9293 0
M  V30 46 H 5.4467 2.5636 3.4096 0
M  V30 47 H 3.325 -1.1095 3.9922 0
M  V30 48 H 0.0739 4.6301 -3.4308 0
M  V30 49 H -0.6943 3.3264 -2.4942 0
M  V30 50 H -0.947 5.0016 -2.0209 0
M  V30 51 H 5.2716 0.3516 4.4711 0
M  V30 END ATOM
M  V30 BEGIN BOND
M  V30 1 1 1 2
M  V30 2 1 1 3
M  V30 3 1 2 4
M  V30 4 1 2 5
M  V30 5 1 2 6
M  V30 6 1 3 7
M  V30 7 1 3 8
M  V30 8 1 4 9
M  V30 9 1 7 10
M  V30 10 1 8 11
M  V30 11 2 9 12
M  V30 12 1 9 13
M  V30 13 2 10 14
M  V30 14 2 11 15
M  V30 15 1 11 16
M  V30 16 1 16 17
M  V30 17 2 17 18
M  V30 18 1 17 19
M  V30 19 1 18 20
M  V30 20 1 18 21
M  V30 21 1 19 22
M  V30 22 2 19 23
M  V30 23 1 20 24
M  V30 24 2 21 25
M  V30 25 2 22 26
M  V30 26 1 23 27
M  V30 27 1 24 28
M  V30 28 1 26 29
M  V30 29 1 4 7
M  V30 30 1 8 10
M  V30 31 1 22 25
M  V30 32 2 27 29
M  V30 33 1 3 30
M  V30 34 1 4 31
M  V30 35 1 5 32
M  V30 36 1 5 33
M  V30 37 1 5 34
M  V30 38 1 6 35
M  V30 39 1 6 36
M  V30 40 1 6 37
M  V30 41 1 8 38
M  V30 42 1 13 39
M  V30 43 1 16 40
M  V30 44 1 21 41
M  V30 45 1 23 42
M  V30 46 1 24 43
M  V30 47 1 24 44
M  V30 48 1 25 45
M  V30 49 1 26 46
M  V30 50 1 27 47
M  V30 51 1 28 48
M  V30 52 1 28 49
M  V30 53 1 28 50
M  V30 54 1 29 51
M  V30 END BOND
M  V30 END CTAB
M  END
>  <Column 1>
3074

>  <level_0>
5225

>  <index>
5226

>  <Unnamed: 0>
5226

>  <NO.>
5238

>  <Name>
nafcillin sodium

>  <IUPAC_name>
6-[(2-ethoxynaphthalen-1-yl)carbamoyl]-3-3-dimethyl-7-oxo-4-thia-1-azabicyclo[3.2.0]heptane-2-carboxylic acid

>  <SMILES>
CCOc1ccc2ccccc2c1NC(=O)C1C(=O)N2C1SC(C)(C)C2C(=O)O

>  <CID>
4415

>  <logBB>


>  <BBB+/BBB->
BBB-

>  <Inchi>
InChI=1S/C21H22N2O5S/c1-4-28-13-10-9-11-7-5-6-8-12(11)15(13)22-17(24)14-18(25)23-16(20(26)27)21(2-3)29-19(14)23/h5-10-14-16-19H-4H2-1-3H3-(H-22-24)(H-26-27)

>  <threshold>


>  <reference>
R14|

>  <group>
C

>  <Class>
-1

>  <ABC>
22.92

>  <ABCGG>
18.87

>  <nAcid>
1

>  <nBase>
0

>  <nAromAtom>
10

>  <nAromBond>
11

>  <nAtom>
51

>  <nHeavyAtom>
29

>  <nSpiro>
0

>  <nBridgehead>
0

>  <nHetero>
8

>  <nN>
2

>  <nO>
5

>  <nF>
0

>  <BalabanJ>
1.47

>  <BertzCT>
1021.3

>  <nBonds>
54

>  <nBondsO>
32

>  <nBondsS>
40

>  <nBondsD>
3

>  <nBondsT>
0

>  <nBondsA>
11

>  <nBondsM>
14

>  <nBondsKS>
46

>  <nBondsKD>
8

>  <RNCG>
0.17

>  <RPCG>
0.11

>  <FCSP3>
0.38

>  <SZ>
36.33

>  <Sm>
34.51

>  <Sv>
33.24

>  <Sse>
51.82

>  <Sp>
35.24

>  <Si>
57.12

>  <MZ>
0.71

>  <Mm>
0.68

>  <Mv>
0.65

>  <Mse>
1.02

>  <Mp>
0.69

>  <Mi>
1.12

>  <NsCH3>
3

>  <NdCH2>
0

>  <NssCH2>
1

>  <NtCH>
0

>  <NdsCH>
0

>  <NaaCH>
6

>  <NsssCH>
3

>  <NddC>
0

>  <NtsC>
0

>  <NdssC>
3

>  <NaasC>
2

>  <NaaaC>
2

>  <NssssC>
1

>  <NsNH3>
0

>  <NsNH2>
0

>  <NssNH2>
0

>  <NdNH>
0

>  <NssNH>
1

>  <NaaNH>
0

>  <NtN>
0

>  <NsssNH>
0

>  <NdsN>
0

>  <NaaN>
0

>  <NsssN>
1

>  <NddsN>
0

>  <NaasN>
0

>  <NssssN>
0

>  <NsOH>
1

>  <NdO>
3

>  <NssO>
1

>  <NaaO>
0

>  <NsF>
0

>  <NsSiH3>
0

>  <NssSiH2>
0

>  <NsssSiH>
0

>  <NssssSi>
0

>  <NsPH2>
0

>  <NssPH>
0

>  <NsssP>
0

>  <NdsssP>
0

>  <NsssssP>
0

>  <NsSH>
0

>  <NdS>
0

>  <NssS>
1

>  <NaaS>
0

>  <NdssS>
0

>  <NddssS>
0

>  <NsCl>
0

>  <NsBr>
0

>  <NsI>
0

>  <fragCpx>
212.08

>  <fMF>
0.37

>  <nHBAcc>
5

>  <nHBDon>
2

>  <Kier1>
22.2

>  <Kier2>
8.5

>  <Lipinski>
1

>  <GhoseFilter>
1

>  <FilterItLogS>
-3.77

>  <VMcGowan>
294.57

>  <LabuteASA>
171.94

>  <PEOE_VSA1>
20.06

>  <PEOE_VSA2>
9.59

>  <PEOE_VSA3>
4.79

>  <PEOE_VSA4>
0

>  <PEOE_VSA5>
11.76

>  <PEOE_VSA6>
30.33

>  <PEOE_VSA7>
32.22

>  <PEOE_VSA8>
10.13

>  <PEOE_VSA9>
17.67

>  <PEOE_VSA10>
17.71

>  <PEOE_VSA11>
0

>  <PEOE_VSA12>
11.81

>  <PEOE_VSA13>
0

>  <SMR_VSA1>
24.23

>  <SMR_VSA2>
0

>  <SMR_VSA3>
4.9

>  <SMR_VSA4>
5.92

>  <SMR_VSA5>
36.93

>  <SMR_VSA6>
11.92

>  <SMR_VSA7>
36.4

>  <SMR_VSA8>
0

>  <SMR_VSA9>
5.75

>  <SlogP_VSA1>
10.05

>  <SlogP_VSA2>
50.56

>  <SlogP_VSA3>
14.38

>  <SlogP_VSA4>
5.92

>  <SlogP_VSA5>
20.77

>  <SlogP_VSA6>
36.4

>  <SlogP_VSA7>
0

>  <SlogP_VSA8>
10.77

>  <SlogP_VSA9>
0

>  <SlogP_VSA10>
5.69

>  <SlogP_VSA11>
5.75

>  <EState_VSA1>
39.86

>  <EState_VSA2>
0

>  <EState_VSA3>
18.04

>  <EState_VSA4>
10.77

>  <EState_VSA5>
16.66

>  <EState_VSA6>
19.91

>  <EState_VSA7>
37.26

>  <EState_VSA8>
5.32

>  <EState_VSA9>
4.74

>  <EState_VSA10>
19.49

>  <VSA_EState1>
5.01

>  <VSA_EState2>
38.75

>  <VSA_EState3>
13.7

>  <VSA_EState4>
0.53

>  <VSA_EState5>
-2.33

>  <VSA_EState6>
10.37

>  <VSA_EState7>
0

>  <VSA_EState8>
5.87

>  <VSA_EState9>
0

>  <apol>
58.85

>  <bpol>
31.15

>  <nRing>
4

>  <nHRing>
2

>  <naRing>
2

>  <naHRing>
0

>  <nARing 2>
2

>  <nAHRing 2>
2

>  <nFRing>
2

>  <nFHRing>
1

>  <nFaRing>
1

>  <nFaHRing>
0

>  <nFARing 2>
1

>  <nFAHRing 2>
1

>  <nRot>
5

>  <SLogP>
2.94

>  <SMR>
110.96

>  <TopoPSA(NO)>
95.94

>  <TopoPSA>
121.24

>  <JGI1>
0.2

>  <JGI2>
0.09

>  <JGI3>
0.08

>  <JGI4>
0.05

>  <JGI5>
0.03

>  <Diameter>
12

>  <Radius>
6

>  <TMWC10>
140.49

>  <TSRW10>
80.54

>  <MW>
414.12

>  <AMW>
8.12

>  <WPath>
2173

>  <WPol>
51

>  <Zagreb1>
162

>  <Zagreb2>
200

>  <mZagreb2>
6.24

>  <yes>


>  <nAR-cont>
1

>  <nHA-cont>
0.785905698

>  <MWHBN>
0.343981382

>  <MWHBN-cont>
0.692576333

>  <TPSA-cont>
0

>  <pka_cont>
0.97

>  <yes.1>


>  <BBB_SCORE>
3.309770197

>  <MMFF94 Energy>
16.86

$$$$
Compound 2487
Actelion Java MolfileCreator 2.0

  0  0  0  0  0  0              0 V3000
M  V30 BEGIN CTAB
M  V30 COUNTS 56 57 0 0 0
M  V30 BEGIN ATOM
M  V30 1 S -6.2962 -0.7953 -1.5115 0
M  V30 2 O -6.7456 -0.7523 -2.8832 0
M  V30 3 O -6.2043 0.4083 -0.7121 0
M  V30 4 N -7.3661 -1.7785 -0.6687 0
M  V30 5 C -4.7631 -1.6706 -1.4056 0
M  V30 6 C -4.6193 -2.9348 -1.9914 0
M  V30 7 C -3.6886 -1.0533 -0.7455 0
M  V30 8 O -5.7119 -3.4805 -2.6069 0
M  V30 9 C -3.3802 -3.5764 -1.8876 0
M  V30 10 C -2.4494 -1.6966 -0.6546 0
M  V30 11 C -5.5024 -4.6217 -3.4293 0
M  V30 12 C -2.3077 -2.964 -1.2278 0
M  V30 13 C -1.2872 -1.0342 0.0511 0
M  V30 14 C -0.6827 0.1702 -0.7149 0 CFG=1
M  V30 15 N 0.2704 0.8527 0.1789 0
M  V30 16 C 0.0 -0.2937 -2.0076 0
M  V30 17 C 0.7758 2.1263 -0.3574 0
M  V30 18 C 1.5277 2.9538 0.7025 0
M  V30 19 O 2.7576 2.3102 1.0291 0
M  V30 20 C 3.5825 2.924 1.9391 0
M  V30 21 C 4.807 2.2749 2.2006 0
M  V30 22 C 3.2804 4.1192 2.6022 0
M  V30 23 O 5.0314 1.1108 1.5084 0
M  V30 24 C 5.7038 2.8356 3.1173 0
M  V30 25 C 4.1828 4.6682 3.5154 0
M  V30 26 C 6.2298 0.3927 1.7823 0
M  V30 27 C 5.3912 4.0284 3.7721 0
M  V30 28 C 6.2265 -0.864 0.9306 0
M  V30 29 H -8.0483 -2.172 -1.3163 0
M  V30 30 H -7.7646 -1.2674 0.1172 0
M  V30 31 H -3.816 -0.0679 -0.2999 0
M  V30 32 H -3.2126 -4.5648 -2.3039 0
M  V30 33 H -4.7389 -4.4311 -4.1908 0
M  V30 34 H -6.4423 -4.8367 -3.9468 0
M  V30 35 H -5.2489 -5.4975 -2.8236 0
M  V30 36 H -1.3558 -3.489 -1.1673 0
M  V30 37 H -0.5046 -1.7765 0.259 0
M  V30 38 H -1.6518 -0.7074 1.0352 0
M  V30 39 H -1.4915 0.8664 -0.9709 0
M  V30 40 H -0.1584 1.0166 1.0889 0
M  V30 41 H 0.3794 0.5515 -2.5902 0
M  V30 42 H 0.8393 -0.9653 -1.7957 0
M  V30 43 H -0.7012 -0.8267 -2.6575 0
M  V30 44 H 1.4595 1.9276 -1.1891 0
M  V30 45 H -0.0618 2.7309 -0.724 0
M  V30 46 H 1.7342 3.9432 0.2762 0
M  V30 47 H 0.901 3.0638 1.5962 0
M  V30 48 H 2.3497 4.6488 2.4319 0
M  V30 49 H 6.6565 2.3692 3.3427 0
M  V30 50 H 3.9406 5.5968 4.0263 0
M  V30 51 H 6.2712 0.107 2.8397 0
M  V30 52 H 7.1045 0.9988 1.5202 0
M  V30 53 H 6.0933 4.4573 4.4826 0
M  V30 54 H 7.1306 -1.4544 1.1033 0
M  V30 55 H 5.3514 -1.4817 1.1585 0
M  V30 56 H 6.1682 -0.6089 -0.1326 0
M  V30 END ATOM
M  V30 BEGIN BOND
M  V30 1 2 1 2
M  V30 2 2 1 3
M  V30 3 1 1 4
M  V30 4 1 1 5
M  V30 5 2 5 6
M  V30 6 1 5 7
M  V30 7 1 6 8
M  V30 8 1 6 9
M  V30 9 2 7 10
M  V30 10 1 8 11
M  V30 11 2 9 12
M  V30 12 1 10 13
M  V30 13 1 13 14
M  V30 14 1 14 15
M  V30 15 1 14 16
M  V30 16 1 15 17
M  V30 17 1 17 18
M  V30 18 1 18 19
M  V30 19 1 19 20
M  V30 20 2 20 21
M  V30 21 1 20 22
M  V30 22 1 21 23
M  V30 23 1 21 24
M  V30 24 2 22 25
M  V30 25 1 23 26
M  V30 26 2 24 27
M  V30 27 1 26 28
M  V30 28 1 10 12
M  V30 29 1 25 27
M  V30 30 1 4 29
M  V30 31 1 4 30
M  V30 32 1 7 31
M  V30 33 1 9 32
M  V30 34 1 11 33
M  V30 35 1 11 34
M  V30 36 1 11 35
M  V30 37 1 12 36
M  V30 38 1 13 37
M  V30 39 1 13 38
M  V30 40 1 14 39
M  V30 41 1 15 40
M  V30 42 1 16 41
M  V30 43 1 16 42
M  V30 44 1 16 43
M  V30 45 1 17 44
M  V30 46 1 17 45
M  V30 47 1 18 46
M  V30 48 1 18 47
M  V30 49 1 22 48
M  V30 50 1 24 49
M  V30 51 1 25 50
M  V30 52 1 26 51
M  V30 53 1 26 52
M  V30 54 1 27 53
M  V30 55 1 28 54
M  V30 56 1 28 55
M  V30 57 1 28 56
M  V30 END BOND
M  V30 BEGIN COLLECTION
M  V30 MDLV30/STERAC1 ATOMS=(1 14)
M  V30 END COLLECTION
M  V30 END CTAB
M  END
>  <Column 1>
3075

>  <level_0>
5226

>  <index>
5227

>  <Unnamed: 0>
5227

>  <NO.>
5239

>  <Name>
racemic tamsulosin

>  <IUPAC_name>
5-[2-[2-(2-ethoxyphenoxy)ethylamino]propyl]-2-methoxybenzenesulfonamide

>  <SMILES>
CCOc1ccccc1OCCNC(C)Cc1ccc(OC)c(S(N)(=O)=O)c1

>  <CID>
121829

>  <logBB>


>  <BBB+/BBB->
BBB-

>  <Inchi>
InChI=1S/C20H28N2O5S/c1-4-26-17-7-5-6-8-18(17)27-12-11-22-15(2)13-16-9-10-19(25-3)20(14-16)28(21-23)24/h5-10-14-15-22H-4-11-13H2-1-3H3-(H2-21-23-24)

>  <threshold>


>  <reference>
R14|

>  <group>
C

>  <Class>
-1

>  <ABC>
20.95

>  <ABCGG>
16.77

>  <nAcid>
0

>  <nBase>
1

>  <nAromAtom>
12

>  <nAromBond>
12

>  <nAtom>
56

>  <nHeavyAtom>
28

>  <nSpiro>
0

>  <nBridgehead>
0

>  <nHetero>
8

>  <nN>
2

>  <nO>
5

>  <nF>
0

>  <BalabanJ>
1.67

>  <BertzCT>
870.65

>  <nBonds>
57

>  <nBondsO>
29

>  <nBondsS>
43

>  <nBondsD>
2

>  <nBondsT>
0

>  <nBondsA>
12

>  <nBondsM>
14

>  <nBondsKS>
49

>  <nBondsKD>
8

>  <RNCG>
0.18

>  <RPCG>
0.09

>  <FCSP3>
0.4

>  <SZ>
36.33

>  <Sm>
34.01

>  <Sv>
33.86

>  <Sse>
56.49

>  <Sp>
36.63

>  <Si>
63.36

>  <MZ>
0.65

>  <Mm>
0.61

>  <Mv>
0.6

>  <Mse>
1.01

>  <Mp>
0.65

>  <Mi>
1.13

>  <NsCH3>
3

>  <NdCH2>
0

>  <NssCH2>
4

>  <NtCH>
0

>  <NdsCH>
0

>  <NaaCH>
7

>  <NsssCH>
1

>  <NddC>
0

>  <NtsC>
0

>  <NdssC>
0

>  <NaasC>
5

>  <NaaaC>
0

>  <NssssC>
0

>  <NsNH3>
0

>  <NsNH2>
1

>  <NssNH2>
0

>  <NdNH>
0

>  <NssNH>
1

>  <NaaNH>
0

>  <NtN>
0

>  <NsssNH>
0

>  <NdsN>
0

>  <NaaN>
0

>  <NsssN>
0

>  <NddsN>
0

>  <NaasN>
0

>  <NssssN>
0

>  <NsOH>
0

>  <NdO>
2

>  <NssO>
3

>  <NaaO>
0

>  <NsF>
0

>  <NsSiH3>
0

>  <NssSiH2>
0

>  <NsssSiH>
0

>  <NssssSi>
0

>  <NsPH2>
0

>  <NssPH>
0

>  <NsssP>
0

>  <NdsssP>
0

>  <NsssssP>
0

>  <NsSH>
0

>  <NdS>
0

>  <NssS>
0

>  <NaaS>
0

>  <NdssS>
0

>  <NddssS>
1

>  <NsCl>
0

>  <NsBr>
0

>  <NsI>
0

>  <fragCpx>
85.08

>  <fMF>
0.32

>  <nHBAcc>
6

>  <nHBDon>
2

>  <Kier1>
24.27

>  <Kier2>
12

>  <Lipinski>
1

>  <GhoseFilter>
1

>  <FilterItLogS>
-5.44

>  <VMcGowan>
310.8

>  <LabuteASA>
166.4

>  <PEOE_VSA1>
19.53

>  <PEOE_VSA2>
0

>  <PEOE_VSA3>
13.56

>  <PEOE_VSA4>
0

>  <PEOE_VSA5>
0

>  <PEOE_VSA6>
18.2

>  <PEOE_VSA7>
50.1

>  <PEOE_VSA8>
12.59

>  <PEOE_VSA9>
13.72

>  <PEOE_VSA10>
17.25

>  <PEOE_VSA11>
11.5

>  <PEOE_VSA12>
10.02

>  <PEOE_VSA13>
0

>  <SMR_VSA1>
22.63

>  <SMR_VSA2>
0

>  <SMR_VSA3>
5.32

>  <SMR_VSA4>
5.14

>  <SMR_VSA5>
31.21

>  <SMR_VSA6>
26.87

>  <SMR_VSA7>
48.03

>  <SMR_VSA8>
0

>  <SMR_VSA9>
17.25

>  <SlogP_VSA1>
24.67

>  <SlogP_VSA2>
41.33

>  <SlogP_VSA3>
16.44

>  <SlogP_VSA4>
0

>  <SlogP_VSA5>
19.41

>  <SlogP_VSA6>
47.36

>  <SlogP_VSA7>
0

>  <SlogP_VSA8>
0

>  <SlogP_VSA9>
0

>  <SlogP_VSA10>
0

>  <SlogP_VSA11>
17.25

>  <EState_VSA1>
10.02

>  <EState_VSA2>
16.69

>  <EState_VSA3>
31.93

>  <EState_VSA4>
11.31

>  <EState_VSA5>
7.11

>  <EState_VSA6>
12.13

>  <EState_VSA7>
44.18

>  <EState_VSA8>
5.32

>  <EState_VSA9>
19.35

>  <EState_VSA10>
8.42

>  <VSA_EState1>
39.85

>  <VSA_EState2>
0

>  <VSA_EState3>
8.63

>  <VSA_EState4>
0.85

>  <VSA_EState5>
1.69

>  <VSA_EState6>
12.69

>  <VSA_EState7>
0.64

>  <VSA_EState8>
5.66

>  <VSA_EState9>
-2.43

>  <apol>
61.18

>  <bpol>
39.95

>  <nRing>
2

>  <nHRing>
0

>  <naRing>
2

>  <naHRing>
0

>  <nARing 2>
0

>  <nAHRing 2>
0

>  <nFRing>
0

>  <nFHRing>
0

>  <nFaRing>
0

>  <nFaHRing>
0

>  <nFARing 2>
0

>  <nFAHRing 2>
0

>  <nRot>
11

>  <SLogP>
2.34

>  <SMR>
108.64

>  <TopoPSA(NO)>
99.88

>  <TopoPSA>
108.26

>  <JGI1>
0.22

>  <JGI2>
0.08

>  <JGI3>
0.05

>  <JGI4>
0.04

>  <JGI5>
0.02

>  <Diameter>
16

>  <Radius>
8

>  <TMWC10>
131.58

>  <TSRW10>
62.78

>  <MW>
408.17

>  <AMW>
7.29

>  <WPath>
2488

>  <WPol>
40

>  <Zagreb1>
136

>  <Zagreb2>
153

>  <mZagreb2>
6.39

>  <yes>


>  <nAR-cont>
0.336376

>  <nHA-cont>
0.82432561

>  <MWHBN>
0.395976531

>  <MWHBN-cont>
0.491907205

>  <TPSA-cont>
0.244277975

>  <pka_cont>
0.97

>  <yes.1>


>  <BBB_SCORE>
2.872118367

>  <MMFF94 Energy>
19.737

$$$$
Compound 2488
Actelion Java MolfileCreator 2.0

  0  0  0  0  0  0              0 V3000
M  V30 BEGIN CTAB
M  V30 COUNTS 59 60 0 0 0
M  V30 BEGIN ATOM
M  V30 1 O 1.2603 1.0239 1.1815 0
M  V30 2 C 0.8045 -0.0595 0.8367 0
M  V30 3 O 1.3044 -0.7748 -0.2196 0
M  V30 4 C -0.4513 -0.7638 1.4499 0 CFG=2
M  V30 5 C 2.413 -0.1733 -0.9028 0
M  V30 6 O -0.4335 -2.163 1.1268 0
M  V30 7 C -1.6874 -0.1304 0.7812 0
M  V30 8 C -0.4684 -0.5986 3.0062 0
M  V30 9 C 2.0082 1.0168 -1.7949 0
M  V30 10 C -2.5841 -0.8968 0.0142 0
M  V30 11 C -1.9477 1.248 0.9114 0
M  V30 12 C -1.7122 -1.2544 3.6494 0
M  V30 13 C 0.8008 -1.1685 3.6827 0
M  V30 14 N 1.1425 0.67 -3.0611 0 CHG=1
M  V30 15 C -3.6891 -0.3082 -0.6054 0
M  V30 16 C -3.0528 1.8347 0.2903 0
M  V30 17 C -1.7387 -1.0653 5.1656 0
M  V30 18 C 0.776 -0.9647 5.197 0
M  V30 19 C 0.9796 2.007 -3.8362 0
M  V30 20 C 1.761 -0.4461 -3.9189 0
M  V30 21 C -0.2502 0.1979 -2.6061 0
M  V30 22 C -3.9213 1.0571 -0.4697 0
M  V30 23 C -0.4667 -1.5846 5.8237 0
M  V30 24 C 0.2337 1.8878 -5.1559 0
M  V30 25 C 3.1479 -0.1121 -4.4418 0
M  V30 26 H 2.9067 -0.9585 -1.4809 0
M  V30 27 H 3.1541 0.1575 -0.164 0
M  V30 28 H 0.3819 -2.5492 1.4865 0
M  V30 29 H -0.4993 0.474 3.2435 0
M  V30 30 H 1.4263 1.7556 -1.2341 0
M  V30 31 H 2.9135 1.5083 -2.167 0
M  V30 32 H -2.4448 -1.9719 -0.092 0
M  V30 33 H -1.2981 1.8853 1.5108 0
M  V30 34 H -2.6314 -0.8247 3.2368 0
M  V30 35 H -1.7319 -2.3275 3.422 0
M  V30 36 H 1.6993 -0.6862 3.2834 0
M  V30 37 H 0.8965 -2.2412 3.4787 0
M  V30 38 H -4.3835 -0.9231 -1.1741 0
M  V30 39 H -3.248 2.8974 0.4182 0
M  V30 40 H -2.6078 -1.5843 5.5854 0
M  V30 41 H -1.8615 0.0 5.3969 0
M  V30 42 H 0.8059 0.1083 5.4226 0
M  V30 43 H 1.6728 -1.4097 5.6425 0
M  V30 44 H 1.9839 2.4076 -4.0101 0
M  V30 45 H 0.4516 2.6976 -3.1679 0
M  V30 46 H 1.79 -1.3542 -3.3081 0
M  V30 47 H 1.0748 -0.644 -4.7489 0
M  V30 48 H -0.149 -0.7571 -2.0897 0
M  V30 49 H -0.8774 0.0448 -3.4869 0
M  V30 50 H -0.6785 0.9656 -1.9583 0
M  V30 51 H -4.7945 1.5102 -0.9338 0
M  V30 52 H -0.489 -1.3648 6.897 0
M  V30 53 H -0.422 -2.6757 5.7215 0
M  V30 54 H 0.7531 1.2429 -5.8691 0
M  V30 55 H 0.1607 2.8783 -5.6183 0
M  V30 56 H -0.7875 1.5211 -5.0286 0
M  V30 57 H 3.8661 0.0492 -3.6336 0
M  V30 58 H 3.521 -0.9487 -5.0422 0
M  V30 59 H 3.145 0.7706 -5.0863 0
M  V30 END ATOM
M  V30 BEGIN BOND
M  V30 1 2 1 2
M  V30 2 1 2 3
M  V30 3 1 2 4
M  V30 4 1 3 5
M  V30 5 1 4 6
M  V30 6 1 4 7
M  V30 7 1 4 8
M  V30 8 1 5 9
M  V30 9 2 7 10
M  V30 10 1 7 11
M  V30 11 1 8 12
M  V30 12 1 8 13
M  V30 13 1 9 14
M  V30 14 1 10 15
M  V30 15 2 11 16
M  V30 16 1 12 17
M  V30 17 1 13 18
M  V30 18 1 14 19
M  V30 19 1 14 20
M  V30 20 1 14 21
M  V30 21 2 15 22
M  V30 22 1 17 23
M  V30 23 1 19 24
M  V30 24 1 20 25
M  V30 25 1 16 22
M  V30 26 1 18 23
M  V30 27 1 5 26
M  V30 28 1 5 27
M  V30 29 1 6 28
M  V30 30 1 8 29
M  V30 31 1 9 30
M  V30 32 1 9 31
M  V30 33 1 10 32
M  V30 34 1 11 33
M  V30 35 1 12 34
M  V30 36 1 12 35
M  V30 37 1 13 36
M  V30 38 1 13 37
M  V30 39 1 15 38
M  V30 40 1 16 39
M  V30 41 1 17 40
M  V30 42 1 17 41
M  V30 43 1 18 42
M  V30 44 1 18 43
M  V30 45 1 19 44
M  V30 46 1 19 45
M  V30 47 1 20 46
M  V30 48 1 20 47
M  V30 49 1 21 48
M  V30 50 1 21 49
M  V30 51 1 21 50
M  V30 52 1 22 51
M  V30 53 1 23 52
M  V30 54 1 23 53
M  V30 55 1 24 54
M  V30 56 1 24 55
M  V30 57 1 24 56
M  V30 58 1 25 57
M  V30 59 1 25 58
M  V30 60 1 25 59
M  V30 END BOND
M  V30 BEGIN COLLECTION
M  V30 MDLV30/STERAC1 ATOMS=(1 4)
M  V30 END COLLECTION
M  V30 END CTAB
M  END
>  <Column 1>
3078

>  <level_0>
5229

>  <index>
5230

>  <Unnamed: 0>
5230

>  <NO.>
5242

>  <Name>
oxyphenonium

>  <IUPAC_name>
2-(2-cyclohexyl-2-hydroxy-2-phenylacetyl)oxyethyl-diethyl-methylazanium

>  <SMILES>
CC[N+](C)(CC)CCOC(=O)C(O)(c1ccccc1)C1CCCCC1

>  <CID>
5749

>  <logBB>


>  <BBB+/BBB->
BBB-

>  <Inchi>
InChI=1S/C21H34NO3/c1-4-22(3-5-2)16-17-25-20(23)21(24-18-12-8-6-9-13-18)19-14-10-7-11-15-19/h6-8-9-12-13-19-24H-4-5-7-10-11-14-17H2-1-3H3/q+1

>  <threshold>


>  <reference>
R14|

>  <group>
C

>  <Class>
-1

>  <ABC>
18.63

>  <ABCGG>
16.36

>  <nAcid>
0

>  <nBase>
1

>  <nAromAtom>
6

>  <nAromBond>
6

>  <nAtom>
59

>  <nHeavyAtom>
25

>  <nSpiro>
0

>  <nBridgehead>
0

>  <nHetero>
4

>  <nN>
1

>  <nO>
3

>  <nF>
0

>  <BalabanJ>
2.02

>  <BertzCT>
535.33

>  <nBonds>
60

>  <nBondsO>
26

>  <nBondsS>
53

>  <nBondsD>
1

>  <nBondsT>
0

>  <nBondsA>
6

>  <nBondsM>
7

>  <nBondsKS>
56

>  <nBondsKD>
4

>  <RNCG>
0.23

>  <RPCG>
0.11

>  <FCSP3>
0.67

>  <SZ>
31.83

>  <Sm>
29.02

>  <Sv>
33.11

>  <Sse>
58.25

>  <Sp>
36.67

>  <Si>
66.98

>  <MZ>
0.54

>  <Mm>
0.49

>  <Mv>
0.56

>  <Mse>
0.99

>  <Mp>
0.62

>  <Mi>
1.14

>  <NsCH3>
3

>  <NdCH2>
0

>  <NssCH2>
9

>  <NtCH>
0

>  <NdsCH>
0

>  <NaaCH>
5

>  <NsssCH>
1

>  <NddC>
0

>  <NtsC>
0

>  <NdssC>
1

>  <NaasC>
1

>  <NaaaC>
0

>  <NssssC>
1

>  <NsNH3>
0

>  <NsNH2>
0

>  <NssNH2>
0

>  <NdNH>
0

>  <NssNH>
0

>  <NaaNH>
0

>  <NtN>
0

>  <NsssNH>
0

>  <NdsN>
0

>  <NaaN>
0

>  <NsssN>
0

>  <NddsN>
0

>  <NaasN>
0

>  <NssssN>
1

>  <NsOH>
1

>  <NdO>
1

>  <NssO>
1

>  <NaaO>
0

>  <NsF>
0

>  <NsSiH3>
0

>  <NssSiH2>
0

>  <NsssSiH>
0

>  <NssssSi>
0

>  <NsPH2>
0

>  <NssPH>
0

>  <NsssP>
0

>  <NdsssP>
0

>  <NsssssP>
0

>  <NsSH>
0

>  <NdS>
0

>  <NssS>
0

>  <NaaS>
0

>  <NdssS>
0

>  <NddssS>
0

>  <NsCl>
0

>  <NsBr>
0

>  <NsI>
0

>  <fragCpx>
76.04

>  <fMF>
0.22

>  <nHBAcc>
3

>  <nHBDon>
1

>  <Kier1>
21.3

>  <Kier2>
9.8

>  <Lipinski>
1

>  <GhoseFilter>
1

>  <FilterItLogS>
-5.04

>  <VMcGowan>
297.57

>  <LabuteASA>
151.94

>  <PEOE_VSA1>
14.33

>  <PEOE_VSA2>
0

>  <PEOE_VSA3>
4.79

>  <PEOE_VSA4>
0

>  <PEOE_VSA5>
0

>  <PEOE_VSA6>
49.59

>  <PEOE_VSA7>
32.25

>  <PEOE_VSA8>
5.92

>  <PEOE_VSA9>
20.14

>  <PEOE_VSA10>
13.15

>  <PEOE_VSA11>
5.6

>  <PEOE_VSA12>
0

>  <PEOE_VSA13>
0

>  <SMR_VSA1>
19.12

>  <SMR_VSA2>
0

>  <SMR_VSA3>
0

>  <SMR_VSA4>
5.92

>  <SMR_VSA5>
51.55

>  <SMR_VSA6>
33.29

>  <SMR_VSA7>
35.9

>  <SMR_VSA8>
0

>  <SMR_VSA9>
0

>  <SlogP_VSA1>
0

>  <SlogP_VSA2>
48.85

>  <SlogP_VSA3>
15.13

>  <SlogP_VSA4>
5.92

>  <SlogP_VSA5>
51.52

>  <SlogP_VSA6>
30.33

>  <SlogP_VSA7>
0

>  <SlogP_VSA8>
0

>  <SlogP_VSA9>
0

>  <SlogP_VSA10>
0

>  <SlogP_VSA11>
0

>  <EState_VSA1>
11.57

>  <EState_VSA2>
5.92

>  <EState_VSA3>
12.17

>  <EState_VSA4>
49.8

>  <EState_VSA5>
6.42

>  <EState_VSA6>
0

>  <EState_VSA7>
30.33

>  <EState_VSA8>
20.9

>  <EState_VSA9>
4.74

>  <EState_VSA10>
9.9

>  <VSA_EState1>
6.47

>  <VSA_EState2>
12.95

>  <VSA_EState3>
11.44

>  <VSA_EState4>
-0.86

>  <VSA_EState5>
-0.54

>  <VSA_EState6>
9.33

>  <VSA_EState7>
5.05

>  <VSA_EState8>
7.41

>  <VSA_EState9>
2.17

>  <apol>
61.25

>  <bpol>
38.99

>  <nRing>
2

>  <nHRing>
0

>  <naRing>
1

>  <naHRing>
0

>  <nARing 2>
1

>  <nAHRing 2>
0

>  <nFRing>
0

>  <nFHRing>
0

>  <nFaRing>
0

>  <nFaHRing>
0

>  <nFARing 2>
0

>  <nFAHRing 2>
0

>  <nRot>
8

>  <SLogP>
3.48

>  <SMR>
100.01

>  <TopoPSA(NO)>
46.53

>  <TopoPSA>
46.53

>  <JGI1>
0.23

>  <JGI2>
0.11

>  <JGI3>
0.06

>  <JGI4>
0.03

>  <JGI5>
0.02

>  <Diameter>
11

>  <Radius>
6

>  <TMWC10>
125.88

>  <TSRW10>
59.7

>  <MW>
348.25

>  <AMW>
5.9

>  <WPath>
1510

>  <WPol>
41

>  <Zagreb1>
124

>  <Zagreb2>
145

>  <mZagreb2>
5.79

>  <yes>


>  <nAR-cont>
0.816016

>  <nHA-cont>
0.921834225

>  <MWHBN>
0.214345529

>  <MWHBN-cont>
0.997909637

>  <TPSA-cont>
0.675191707

>  <pka_cont>
0.97

>  <yes.1>


>  <BBB_SCORE>
5.070098093

>  <MMFF94 Energy>
111.21

$$$$
Compound 2489
Actelion Java MolfileCreator 2.0

  0  0  0  0  0  0              0 V3000
M  V30 BEGIN CTAB
M  V30 COUNTS 59 60 0 0 0
M  V30 BEGIN ATOM
M  V30 1 O -0.9413 0.9413 -1.6478 0
M  V30 2 C -0.6884 -0.2977 -0.9736 0 CFG=2
M  V30 3 C 0.4055 -1.0905 -1.7019 0
M  V30 4 C -2.0385 -1.1065 -0.8688 0
M  V30 5 C -0.1582 0.1135 0.4325 0
M  V30 6 C 1.0878 -0.5591 -2.8116 0
M  V30 7 C 0.7825 -2.3699 -1.25 0
M  V30 8 C -3.17 -0.3077 -0.1792 0
M  V30 9 C -2.548 -1.601 -2.2466 0
M  V30 10 C 1.1354 0.9376 0.3491 0
M  V30 11 C 2.1006 -1.2816 -3.447 0
M  V30 12 C 1.7951 -3.0902 -1.8874 0
M  V30 13 C -4.4682 -1.1085 -0.0756 0
M  V30 14 C -3.8376 -2.4113 -2.1272 0
M  V30 15 N 1.6483 1.4791 1.7303 0 CHG=1
M  V30 16 C 2.4534 -2.5457 -2.9851 0
M  V30 17 C -4.9339 -1.6153 -1.4331 0
M  V30 18 C 0.5983 2.4121 2.3949 0
M  V30 19 C 2.9626 2.2498 1.4141 0
M  V30 20 C 1.8996 0.3201 2.7301 0
M  V30 21 C 0.1857 3.6036 1.547 0
M  V30 22 C 3.6366 2.8667 2.6284 0
M  V30 23 C 2.9093 -0.7123 2.2571 0
M  V30 24 H -1.3531 0.7327 -2.5063 0
M  V30 25 H -1.8557 -1.9977 -0.2524 0
M  V30 26 H -0.0092 -0.7801 1.0471 0
M  V30 27 H -0.9154 0.7294 0.9224 0
M  V30 28 H 0.8458 0.4268 -3.2031 0
M  V30 29 H 0.2855 -2.8335 -0.4003 0
M  V30 30 H -2.8792 -0.0247 0.837 0
M  V30 31 H -3.3653 0.6208 -0.7292 0
M  V30 32 H -1.7974 -2.2315 -2.7343 0
M  V30 33 H -2.7318 -0.7511 -2.914 0
M  V30 34 H 1.0128 1.811 -0.299 0
M  V30 35 H 1.9575 0.3464 -0.0643 0
M  V30 36 H 2.6103 -0.8601 -4.3109 0
M  V30 37 H 2.0635 -4.0838 -1.5349 0
M  V30 38 H -5.2498 -0.4836 0.3712 0
M  V30 39 H -4.3166 -1.9595 0.5999 0
M  V30 40 H -3.64 -3.3335 -1.5671 0
M  V30 41 H -4.177 -2.7105 -3.1253 0
M  V30 42 H 3.2347 -3.111 -3.4882 0
M  V30 43 H -5.8247 -2.2412 -1.3093 0
M  V30 44 H -5.2248 -0.7649 -2.062 0
M  V30 45 H 1.0204 2.7518 3.3463 0
M  V30 46 H -0.276 1.8007 2.6403 0
M  V30 47 H 3.6428 1.548 0.9207 0
M  V30 48 H 2.719 3.026 0.6815 0
M  V30 49 H 0.9339 -0.1577 2.9253 0
M  V30 50 H 2.2287 0.7678 3.6736 0
M  V30 51 H -0.5407 4.2068 2.1027 0
M  V30 52 H 1.0279 4.2584 1.3106 0
M  V30 53 H -0.3003 3.3019 0.6158 0
M  V30 54 H 3.0087 3.6169 3.1158 0
M  V30 55 H 3.9298 2.1169 3.3674 0
M  V30 56 H 4.5528 3.3769 2.3114 0
M  V30 57 H 3.9012 -0.2815 2.0996 0
M  V30 58 H 3.0172 -1.488 3.0232 0
M  V30 59 H 2.5928 -1.2144 1.3397 0
M  V30 END ATOM
M  V30 BEGIN BOND
M  V30 1 1 1 2
M  V30 2 1 2 3
M  V30 3 1 2 4
M  V30 4 1 2 5
M  V30 5 2 3 6
M  V30 6 1 3 7
M  V30 7 1 4 8
M  V30 8 1 4 9
M  V30 9 1 5 10
M  V30 10 1 6 11
M  V30 11 2 7 12
M  V30 12 1 8 13
M  V30 13 1 9 14
M  V30 14 1 10 15
M  V30 15 2 11 16
M  V30 16 1 13 17
M  V30 17 1 15 18
M  V30 18 1 15 19
M  V30 19 1 15 20
M  V30 20 1 18 21
M  V30 21 1 19 22
M  V30 22 1 20 23
M  V30 23 1 12 16
M  V30 24 1 14 17
M  V30 25 1 1 24
M  V30 26 1 4 25
M  V30 27 1 5 26
M  V30 28 1 5 27
M  V30 29 1 6 28
M  V30 30 1 7 29
M  V30 31 1 8 30
M  V30 32 1 8 31
M  V30 33 1 9 32
M  V30 34 1 9 33
M  V30 35 1 10 34
M  V30 36 1 10 35
M  V30 37 1 11 36
M  V30 38 1 12 37
M  V30 39 1 13 38
M  V30 40 1 13 39
M  V30 41 1 14 40
M  V30 42 1 14 41
M  V30 43 1 16 42
M  V30 44 1 17 43
M  V30 45 1 17 44
M  V30 46 1 18 45
M  V30 47 1 18 46
M  V30 48 1 19 47
M  V30 49 1 19 48
M  V30 50 1 20 49
M  V30 51 1 20 50
M  V30 52 1 21 51
M  V30 53 1 21 52
M  V30 54 1 21 53
M  V30 55 1 22 54
M  V30 56 1 22 55
M  V30 57 1 22 56
M  V30 58 1 23 57
M  V30 59 1 23 58
M  V30 60 1 23 59
M  V30 END BOND
M  V30 BEGIN COLLECTION
M  V30 MDLV30/STERAC1 ATOMS=(1 2)
M  V30 END COLLECTION
M  V30 END CTAB
M  END
>  <Column 1>
3079

>  <level_0>
5230

>  <index>
5231

>  <Unnamed: 0>
5231

>  <NO.>
5243

>  <Name>
tridihexethyl chloride

>  <IUPAC_name>
(3-cyclohexyl-3-hydroxy-3-phenylpropyl)-triethylazanium

>  <SMILES>
CC[N+](CC)(CC)CCC(O)(c1ccccc1)C1CCCCC1

>  <CID>
20299

>  <logBB>


>  <BBB+/BBB->
BBB-

>  <Inchi>
InChI=1S/C21H36NO/c1-4-22(5-2-6-3)18-17-21(23-19-13-9-7-10-14-19)20-15-11-8-12-16-20/h7-9-10-13-14-20-23H-4-6-8-11-12-15-18H2-1-3H3/q+1

>  <threshold>


>  <reference>
R14|

>  <group>
C

>  <Class>
-1

>  <ABC>
17.01

>  <ABCGG>
15.3

>  <nAcid>
0

>  <nBase>
1

>  <nAromAtom>
6

>  <nAromBond>
6

>  <nAtom>
59

>  <nHeavyAtom>
23

>  <nSpiro>
0

>  <nBridgehead>
0

>  <nHetero>
2

>  <nN>
1

>  <nO>
1

>  <nF>
0

>  <BalabanJ>
2.11

>  <BertzCT>
439.9

>  <nBonds>
60

>  <nBondsO>
24

>  <nBondsS>
54

>  <nBondsD>
0

>  <nBondsT>
0

>  <nBondsA>
6

>  <nBondsM>
6

>  <nBondsKS>
57

>  <nBondsKD>
3

>  <RNCG>
0.29

>  <RPCG>
0.09

>  <FCSP3>
0.71

>  <SZ>
29.5

>  <Sm>
26.52

>  <Sv>
32.23

>  <Sse>
57.47

>  <Sp>
36.51

>  <Si>
66.98

>  <MZ>
0.5

>  <Mm>
0.45

>  <Mv>
0.55

>  <Mse>
0.97

>  <Mp>
0.62

>  <Mi>
1.14

>  <NsCH3>
3

>  <NdCH2>
0

>  <NssCH2>
10

>  <NtCH>
0

>  <NdsCH>
0

>  <NaaCH>
5

>  <NsssCH>
1

>  <NddC>
0

>  <NtsC>
0

>  <NdssC>
0

>  <NaasC>
1

>  <NaaaC>
0

>  <NssssC>
1

>  <NsNH3>
0

>  <NsNH2>
0

>  <NssNH2>
0

>  <NdNH>
0

>  <NssNH>
0

>  <NaaNH>
0

>  <NtN>
0

>  <NsssNH>
0

>  <NdsN>
0

>  <NaaN>
0

>  <NsssN>
0

>  <NddsN>
0

>  <NaasN>
0

>  <NssssN>
1

>  <NsOH>
1

>  <NdO>
0

>  <NssO>
0

>  <NaaO>
0

>  <NsF>
0

>  <NsSiH3>
0

>  <NssSiH2>
0

>  <NsssSiH>
0

>  <NssssSi>
0

>  <NsPH2>
0

>  <NssPH>
0

>  <NsssP>
0

>  <NdsssP>
0

>  <NsssssP>
0

>  <NsSH>
0

>  <NdS>
0

>  <NssS>
0

>  <NaaS>
0

>  <NdssS>
0

>  <NddssS>
0

>  <NsCl>
0

>  <NsBr>
0

>  <NsI>
0

>  <fragCpx>
70.02

>  <fMF>
0.22

>  <nHBAcc>
1

>  <nHBDon>
1

>  <Kier1>
19.33

>  <Kier2>
8.91

>  <Lipinski>
1

>  <GhoseFilter>
1

>  <FilterItLogS>
-5.77

>  <VMcGowan>
290.13

>  <LabuteASA>
142.66

>  <PEOE_VSA1>
9.59

>  <PEOE_VSA2>
0

>  <PEOE_VSA3>
0

>  <PEOE_VSA4>
0

>  <PEOE_VSA5>
0

>  <PEOE_VSA6>
49.59

>  <PEOE_VSA7>
45.09

>  <PEOE_VSA8>
6.42

>  <PEOE_VSA9>
31.78

>  <PEOE_VSA10>
0

>  <PEOE_VSA11>
0

>  <PEOE_VSA12>
0

>  <PEOE_VSA13>
0

>  <SMR_VSA1>
9.59

>  <SMR_VSA2>
0

>  <SMR_VSA3>
0

>  <SMR_VSA4>
5.92

>  <SMR_VSA5>
64.9

>  <SMR_VSA6>
26.18

>  <SMR_VSA7>
35.9

>  <SMR_VSA8>
0

>  <SMR_VSA9>
0

>  <SlogP_VSA1>
0

>  <SlogP_VSA2>
35.77

>  <SlogP_VSA3>
5.6

>  <SlogP_VSA4>
5.92

>  <SlogP_VSA5>
64.86

>  <SlogP_VSA6>
30.33

>  <SlogP_VSA7>
0

>  <SlogP_VSA8>
0

>  <SlogP_VSA9>
0

>  <SlogP_VSA10>
0

>  <SlogP_VSA11>
0

>  <EState_VSA1>
5.6

>  <EState_VSA2>
0

>  <EState_VSA3>
5.92

>  <EState_VSA4>
42.65

>  <EState_VSA5>
32.1

>  <EState_VSA6>
0

>  <EState_VSA7>
0

>  <EState_VSA8>
51.1

>  <EState_VSA9>
0

>  <EState_VSA10>
5.11

>  <VSA_EState1>
1.11

>  <VSA_EState2>
0

>  <VSA_EState3>
11.75

>  <VSA_EState4>
0.48

>  <VSA_EState5>
0.42

>  <VSA_EState6>
10.46

>  <VSA_EState7>
7.12

>  <VSA_EState8>
11.4

>  <VSA_EState9>
0

>  <apol>
60.98

>  <bpol>
38.4

>  <nRing>
2

>  <nHRing>
0

>  <naRing>
1

>  <naHRing>
0

>  <nARing 2>
1

>  <nAHRing 2>
0

>  <nFRing>
0

>  <nFHRing>
0

>  <nFaRing>
0

>  <nFaHRing>
0

>  <nFARing 2>
0

>  <nFAHRing 2>
0

>  <nRot>
8

>  <SLogP>
4.72

>  <SMR>
98.28

>  <TopoPSA(NO)>
20.23

>  <TopoPSA>
20.23

>  <JGI1>
0.23

>  <JGI2>
0.11

>  <JGI3>
0.05

>  <JGI4>
0.03

>  <JGI5>
0.03

>  <Diameter>
9

>  <Radius>
5

>  <TMWC10>
121.17

>  <TSRW10>
57.3

>  <MW>
318.28

>  <AMW>
5.39

>  <WPath>
1136

>  <WPol>
38

>  <Zagreb1>
114

>  <Zagreb2>
134

>  <mZagreb2>
5.46

>  <yes>


>  <nAR-cont>
0.816016

>  <nHA-cont>
0.967789328

>  <MWHBN>
0.112105087

>  <MWHBN-cont>
0.793423019

>  <TPSA-cont>
0.858782038

>  <pka_cont>
0.97

>  <yes.1>


>  <BBB_SCORE>
5.176503932

>  <MMFF94 Energy>
55.345

$$$$
Compound 2490
Actelion Java MolfileCreator 2.0

  0  0  0  0  0  0              0 V3000
M  V30 BEGIN CTAB
M  V30 COUNTS 45 47 0 0 0
M  V30 BEGIN ATOM
M  V30 1 S -5.8127 -3.0646 -2.3381 0
M  V30 2 C -6.948 -1.7841 -2.6593 0
M  V30 3 C -4.4034 -1.916 -2.1202 0 CFG=2
M  V30 4 O -8.1351 -1.9619 -2.8682 0
M  V30 5 N -6.3216 -0.5871 -2.653 0
M  V30 6 C -4.9814 -0.5429 -2.414 0
M  V30 7 C -3.2619 -2.2742 -3.0741 0
M  V30 8 O -4.3483 0.5043 -2.4394 0
M  V30 9 C -1.9141 -1.8421 -2.5406 0
M  V30 10 C -1.2044 -2.669 -1.6627 0
M  V30 11 C -1.3624 -0.606 -2.8951 0
M  V30 12 C 0.0331 -2.2633 -1.1582 0
M  V30 13 C -0.1223 -0.2024 -2.386 0
M  V30 14 C 0.5831 -1.0305 -1.5158 0
M  V30 15 O 1.7917 -0.7639 -0.9384 0
M  V30 16 C 2.4699 0.4522 -1.2704 0
M  V30 17 C 1.985 1.6267 -0.421 0
M  V30 18 C 2.4938 1.5391 0.9952 0
M  V30 19 N 3.6237 2.2287 1.2825 0
M  V30 20 C 1.8288 0.7659 1.9426 0
M  V30 21 C 4.0953 2.1473 2.5476 0
M  V30 22 C 2.3385 0.7003 3.2367 0
M  V30 23 C 3.5018 1.3997 3.5583 0
M  V30 24 C 4.0757 1.3708 4.946 0
M  V30 25 C 3.5014 2.4753 5.82 0
M  V30 26 H -4.1046 -1.9498 -1.0671 0
M  V30 27 H -6.8394 0.2555 -2.8448 0
M  V30 28 H -3.2085 -3.3588 -3.2398 0
M  V30 29 H -3.4182 -1.828 -4.0653 0
M  V30 30 H -1.6031 -3.6366 -1.366 0
M  V30 31 H -1.8972 0.0648 -3.5656 0
M  V30 32 H 0.577 -2.9165 -0.4797 0
M  V30 33 H 0.2517 0.7694 -2.6882 0
M  V30 34 H 2.3861 0.6691 -2.3415 0
M  V30 35 H 3.537 0.2745 -1.0895 0
M  V30 36 H 0.8916 1.6928 -0.4036 0
M  V30 37 H 2.3544 2.5603 -0.8624 0
M  V30 38 H 0.9304 0.2165 1.6789 0
M  V30 39 H 4.9985 2.7234 2.7303 0
M  V30 40 H 1.826 0.1019 3.9853 0
M  V30 41 H 5.167 1.4678 4.8968 0
M  V30 42 H 3.8786 0.395 5.4062 0
M  V30 43 H 3.937 2.4292 6.8231 0
M  V30 44 H 2.4145 2.3804 5.9175 0
M  V30 45 H 3.7158 3.4648 5.4021 0
M  V30 END ATOM
M  V30 BEGIN BOND
M  V30 1 1 1 2
M  V30 2 1 1 3
M  V30 3 2 2 4
M  V30 4 1 2 5
M  V30 5 1 3 6
M  V30 6 1 3 7
M  V30 7 2 6 8
M  V30 8 1 7 9
M  V30 9 2 9 10
M  V30 10 1 9 11
M  V30 11 1 10 12
M  V30 12 2 11 13
M  V30 13 2 12 14
M  V30 14 1 14 15
M  V30 15 1 15 16
M  V30 16 1 16 17
M  V30 17 1 17 18
M  V30 18 2 18 19
M  V30 19 1 18 20
M  V30 20 1 19 21
M  V30 21 2 20 22
M  V30 22 2 21 23
M  V30 23 1 23 24
M  V30 24 1 24 25
M  V30 25 1 5 6
M  V30 26 1 13 14
M  V30 27 1 22 23
M  V30 28 1 3 26
M  V30 29 1 5 27
M  V30 30 1 7 28
M  V30 31 1 7 29
M  V30 32 1 10 30
M  V30 33 1 11 31
M  V30 34 1 12 32
M  V30 35 1 13 33
M  V30 36 1 16 34
M  V30 37 1 16 35
M  V30 38 1 17 36
M  V30 39 1 17 37
M  V30 40 1 20 38
M  V30 41 1 21 39
M  V30 42 1 22 40
M  V30 43 1 24 41
M  V30 44 1 24 42
M  V30 45 1 25 43
M  V30 46 1 25 44
M  V30 47 1 25 45
M  V30 END BOND
M  V30 BEGIN COLLECTION
M  V30 MDLV30/STERAC1 ATOMS=(1 3)
M  V30 END COLLECTION
M  V30 END CTAB
M  END
>  <Column 1>
3081

>  <level_0>
5232

>  <index>
5233

>  <Unnamed: 0>
5233

>  <NO.>
5245

>  <Name>
pioglitazone

>  <IUPAC_name>
5-[[4-[2-(5-ethylpyridin-2-yl)ethoxy]phenyl]methyl]-1-3-thiazolidine-2-4-dione

>  <SMILES>
CCc1ccc(CCOc2ccc(CC3SC(=O)NC3=O)cc2)nc1

>  <CID>
4829

>  <logBB>


>  <BBB+/BBB->
BBB-

>  <Inchi>
InChI=1S/C19H20N2O3S/c1-2-13-3-6-15(20-12-13)9-10-24-16-7-4-14(5-8-16)11-17-18(22)21-19(23)25-17/h3-8-12-17H-2-9-11H2-1H3-(H-21-22-23)

>  <threshold>


>  <reference>
R14|R15|R23|

>  <group>
C

>  <Class>
-1

>  <ABC>
19.27

>  <ABCGG>
14.3

>  <nAcid>
0

>  <nBase>
0

>  <nAromAtom>
12

>  <nAromBond>
12

>  <nAtom>
45

>  <nHeavyAtom>
25

>  <nSpiro>
0

>  <nBridgehead>
0

>  <nHetero>
6

>  <nN>
2

>  <nO>
3

>  <nF>
0

>  <BalabanJ>
1.26

>  <BertzCT>
744.27

>  <nBonds>
47

>  <nBondsO>
27

>  <nBondsS>
33

>  <nBondsD>
2

>  <nBondsT>
0

>  <nBondsA>
12

>  <nBondsM>
14

>  <nBondsKS>
39

>  <nBondsKD>
8

>  <RNCG>
0.24

>  <RPCG>
0.14

>  <FCSP3>
0.32

>  <SZ>
31.33

>  <Sm>
29.68

>  <Sv>
29.27

>  <Sse>
45.27

>  <Sp>
31.48

>  <Si>
50.28

>  <MZ>
0.7

>  <Mm>
0.66

>  <Mv>
0.65

>  <Mse>
1.01

>  <Mp>
0.7

>  <Mi>
1.12

>  <NsCH3>
1

>  <NdCH2>
0

>  <NssCH2>
4

>  <NtCH>
0

>  <NdsCH>
0

>  <NaaCH>
7

>  <NsssCH>
1

>  <NddC>
0

>  <NtsC>
0

>  <NdssC>
2

>  <NaasC>
4

>  <NaaaC>
0

>  <NssssC>
0

>  <NsNH3>
0

>  <NsNH2>
0

>  <NssNH2>
0

>  <NdNH>
0

>  <NssNH>
1

>  <NaaNH>
0

>  <NtN>
0

>  <NsssNH>
0

>  <NdsN>
0

>  <NaaN>
1

>  <NsssN>
0

>  <NddsN>
0

>  <NaasN>
0

>  <NssssN>
0

>  <NsOH>
0

>  <NdO>
2

>  <NssO>
1

>  <NaaO>
0

>  <NsF>
0

>  <NsSiH3>
0

>  <NssSiH2>
0

>  <NsssSiH>
0

>  <NssssSi>
0

>  <NsPH2>
0

>  <NssPH>
0

>  <NsssP>
0

>  <NdsssP>
0

>  <NsssssP>
0

>  <NsSH>
0

>  <NdS>
0

>  <NssS>
1

>  <NaaS>
0

>  <NdssS>
0

>  <NddssS>
0

>  <NsCl>
0

>  <NsBr>
0

>  <NsI>
0

>  <fragCpx>
129.06

>  <fMF>
0.47

>  <nHBAcc>
5

>  <nHBDon>
1

>  <Kier1>
19.75

>  <Kier2>
9.8

>  <Lipinski>
1

>  <GhoseFilter>
1

>  <FilterItLogS>
-5.72

>  <VMcGowan>
265.51

>  <LabuteASA>
150.73

>  <PEOE_VSA1>
4.74

>  <PEOE_VSA2>
19.89

>  <PEOE_VSA3>
0

>  <PEOE_VSA4>
0

>  <PEOE_VSA5>
0

>  <PEOE_VSA6>
36.88

>  <PEOE_VSA7>
42.17

>  <PEOE_VSA8>
18.31

>  <PEOE_VSA9>
11.86

>  <PEOE_VSA10>
5.75

>  <PEOE_VSA11>
0

>  <PEOE_VSA12>
5.91

>  <PEOE_VSA13>
5.24

>  <SMR_VSA1>
14.33

>  <SMR_VSA2>
0

>  <SMR_VSA3>
10.3

>  <SMR_VSA4>
0

>  <SMR_VSA5>
31.44

>  <SMR_VSA6>
6.61

>  <SMR_VSA7>
59.42

>  <SMR_VSA8>
0

>  <SMR_VSA9>
5.75

>  <SlogP_VSA1>
10.05

>  <SlogP_VSA2>
27.99

>  <SlogP_VSA3>
24.06

>  <SlogP_VSA4>
0

>  <SlogP_VSA5>
23.74

>  <SlogP_VSA6>
42.6

>  <SlogP_VSA7>
0

>  <SlogP_VSA8>
0

>  <SlogP_VSA9>
0

>  <SlogP_VSA10>
4.79

>  <SlogP_VSA11>
5.75

>  <EState_VSA1>
0

>  <EState_VSA2>
16.4

>  <EState_VSA3>
13.03

>  <EState_VSA4>
41.61

>  <EState_VSA5>
5.56

>  <EState_VSA6>
0

>  <EState_VSA7>
36.53

>  <EState_VSA8>
23.29

>  <EState_VSA9>
4.74

>  <EState_VSA10>
9.59

>  <VSA_EState1>
5.75

>  <VSA_EState2>
27.19

>  <VSA_EState3>
1.7

>  <VSA_EState4>
3.25

>  <VSA_EState5>
0.57

>  <VSA_EState6>
11.78

>  <VSA_EState7>
4.19

>  <VSA_EState8>
2.67

>  <VSA_EState9>
0

>  <apol>
52.57

>  <bpol>
27.71

>  <nRing>
3

>  <nHRing>
2

>  <naRing>
2

>  <naHRing>
1

>  <nARing 2>
1

>  <nAHRing 2>
1

>  <nFRing>
0

>  <nFHRing>
0

>  <nFaRing>
0

>  <nFaHRing>
0

>  <nFARing 2>
0

>  <nFAHRing 2>
0

>  <nRot>
7

>  <SLogP>
3.16

>  <SMR>
97.88

>  <TopoPSA(NO)>
68.29

>  <TopoPSA>
93.59

>  <JGI1>
0.2

>  <JGI2>
0.06

>  <JGI3>
0.04

>  <JGI4>
0.03

>  <JGI5>
0.03

>  <Diameter>
17

>  <Radius>
9

>  <TMWC10>
125.59

>  <TSRW10>
73.1

>  <MW>
356.12

>  <AMW>
7.91

>  <WPath>
1917

>  <WPol>
33

>  <Zagreb1>
126

>  <Zagreb2>
143

>  <mZagreb2>
5.61

>  <yes>


>  <nAR-cont>
0.816016

>  <nHA-cont>
0.921834225

>  <MWHBN>
0.317945782

>  <MWHBN-cont>
0.784021127

>  <TPSA-cont>
0.346683684

>  <pka_cont>
0.97

>  <yes.1>


>  <BBB_SCORE>
4.092249284

>  <MMFF94 Energy>
-14.106

$$$$
Compound 2491
Actelion Java MolfileCreator 2.0

  0  0  0  0  0  0              0 V3000
M  V30 BEGIN CTAB
M  V30 COUNTS 30 32 0 0 0
M  V30 BEGIN ATOM
M  V30 1 O 0.0805 2.6619 -2.0161 0
M  V30 2 C 0.1142 1.9607 -1.0105 0
M  V30 3 C 0.1445 2.533 0.3566 0
M  V30 4 C 0.1369 0.4807 -1.149 0
M  V30 5 C 0.0602 3.9856 0.6038 0
M  V30 6 C 0.2391 1.6589 1.3709 0
M  V30 7 C 0.2336 -0.3388 0.0126 0
M  V30 8 C 0.0625 -0.0632 -2.4438 0
M  V30 9 O -0.205 4.8607 -0.1991 0
M  V30 10 O 0.311 4.326 1.8864 0
M  V30 11 N 0.3095 0.2744 1.2847 0
M  V30 12 C 0.2483 -1.7334 -0.1755 0
M  V30 13 C 0.0829 -1.4308 -2.5616 0
M  V30 14 C 0.4135 -0.5511 2.5017 0
M  V30 15 C 0.1725 -2.2414 -1.4592 0
M  V30 16 O 0.019 -2.1345 -3.7217 0
M  V30 17 C -0.9613 -0.9932 2.9829 0
M  V30 18 O 0.1753 -3.5624 -1.7863 0
M  V30 19 C 0.0788 -3.4871 -3.2248 0
M  V30 20 H 0.2613 2.0133 2.3996 0
M  V30 21 H -0.0095 0.5689 -3.3231 0
M  V30 22 H 0.2238 5.3034 1.8697 0
M  V30 23 H 0.3111 -2.4373 0.6445 0
M  V30 24 H 0.8865 0.0326 3.3026 0
M  V30 25 H 1.0777 -1.4102 2.3571 0
M  V30 26 H -1.4741 -1.6082 2.2374 0
M  V30 27 H -1.5988 -0.1284 3.196 0
M  V30 28 H -0.8689 -1.5809 3.9016 0
M  V30 29 H 0.953 -3.9836 -3.6614 0
M  V30 30 H -0.8248 -4.019 -3.5439 0
M  V30 END ATOM
M  V30 BEGIN BOND
M  V30 1 2 1 2
M  V30 2 1 2 3
M  V30 3 1 2 4
M  V30 4 1 3 5
M  V30 5 2 3 6
M  V30 6 2 4 7
M  V30 7 1 4 8
M  V30 8 2 5 9
M  V30 9 1 5 10
M  V30 10 1 6 11
M  V30 11 1 7 12
M  V30 12 2 8 13
M  V30 13 1 11 14
M  V30 14 2 12 15
M  V30 15 1 13 16
M  V30 16 1 14 17
M  V30 17 1 15 18
M  V30 18 1 16 19
M  V30 19 1 7 11
M  V30 20 1 13 15
M  V30 21 1 18 19
M  V30 22 1 6 20
M  V30 23 1 8 21
M  V30 24 1 10 22
M  V30 25 1 12 23
M  V30 26 1 14 24
M  V30 27 1 14 25
M  V30 28 1 17 26
M  V30 29 1 17 27
M  V30 30 1 17 28
M  V30 31 1 19 29
M  V30 32 1 19 30
M  V30 END BOND
M  V30 END CTAB
M  END
>  <Column 1>
3082

>  <level_0>
5233

>  <index>
5234

>  <Unnamed: 0>
5234

>  <NO.>
5246

>  <Name>
oxolinic

>  <IUPAC_name>
5-ethyl-8-oxo-[1-3]dioxolo[4-5-g]quinoline-7-carboxylic acid

>  <SMILES>
CCn1cc(C(=O)O)c(=O)c2cc3c(cc21)OCO3

>  <CID>
4628

>  <logBB>


>  <BBB+/BBB->
BBB-

>  <Inchi>
InChI=1S/C13H11NO5/c1-2-14-5-8(13(16)17)12(15)7-3-10-11(4-9(7)14)19-6-18-10/h3-5H-2-6H2-1H3-(H-16-17)

>  <threshold>


>  <reference>
R14|

>  <group>
C

>  <Class>
-1

>  <ABC>
14.93

>  <ABCGG>
13.01

>  <nAcid>
1

>  <nBase>
0

>  <nAromAtom>
10

>  <nAromBond>
11

>  <nAtom>
30

>  <nHeavyAtom>
19

>  <nSpiro>
0

>  <nBridgehead>
0

>  <nHetero>
6

>  <nN>
1

>  <nO>
5

>  <nF>
0

>  <BalabanJ>
1.8

>  <BertzCT>
746.76

>  <nBonds>
32

>  <nBondsO>
21

>  <nBondsS>
19

>  <nBondsD>
2

>  <nBondsT>
0

>  <nBondsA>
11

>  <nBondsM>
13

>  <nBondsKS>
26

>  <nBondsKD>
6

>  <RNCG>
0.21

>  <RPCG>
0.15

>  <FCSP3>
0.23

>  <SZ>
22.67

>  <Sm>
21.75

>  <Sv>
20.31

>  <Sse>
31.2

>  <Sp>
20.45

>  <Si>
33.62

>  <MZ>
0.76

>  <Mm>
0.72

>  <Mv>
0.68

>  <Mse>
1.04

>  <Mp>
0.68

>  <Mi>
1.12

>  <NsCH3>
1

>  <NdCH2>
0

>  <NssCH2>
2

>  <NtCH>
0

>  <NdsCH>
0

>  <NaaCH>
3

>  <NsssCH>
0

>  <NddC>
0

>  <NtsC>
0

>  <NdssC>
1

>  <NaasC>
3

>  <NaaaC>
2

>  <NssssC>
0

>  <NsNH3>
0

>  <NsNH2>
0

>  <NssNH2>
0

>  <NdNH>
0

>  <NssNH>
0

>  <NaaNH>
0

>  <NtN>
0

>  <NsssNH>
0

>  <NdsN>
0

>  <NaaN>
0

>  <NsssN>
0

>  <NddsN>
0

>  <NaasN>
1

>  <NssssN>
0

>  <NsOH>
1

>  <NdO>
2

>  <NssO>
2

>  <NaaO>
0

>  <NsF>
0

>  <NsSiH3>
0

>  <NssSiH2>
0

>  <NsssSiH>
0

>  <NssssSi>
0

>  <NsPH2>
0

>  <NssPH>
0

>  <NsssP>
0

>  <NdsssP>
0

>  <NsssssP>
0

>  <NsSH>
0

>  <NdS>
0

>  <NssS>
0

>  <NaaS>
0

>  <NdssS>
0

>  <NddssS>
0

>  <NsCl>
0

>  <NsBr>
0

>  <NsI>
0

>  <fragCpx>
99.06

>  <fMF>
0.43

>  <nHBAcc>
5

>  <nHBDon>
1

>  <Kier1>
13.96

>  <Kier2>
5.41

>  <Lipinski>
1

>  <GhoseFilter>
1

>  <FilterItLogS>
-2.25

>  <VMcGowan>
174.98

>  <LabuteASA>
107.34

>  <PEOE_VSA1>
19.15

>  <PEOE_VSA2>
4.79

>  <PEOE_VSA3>
4.79

>  <PEOE_VSA4>
0

>  <PEOE_VSA5>
0

>  <PEOE_VSA6>
0

>  <PEOE_VSA7>
12.99

>  <PEOE_VSA8>
18.81

>  <PEOE_VSA9>
10.9

>  <PEOE_VSA10>
5.56

>  <PEOE_VSA11>
11.5

>  <PEOE_VSA12>
12.22

>  <PEOE_VSA13>
0

>  <SMR_VSA1>
19.37

>  <SMR_VSA2>
0

>  <SMR_VSA3>
4.57

>  <SMR_VSA4>
0

>  <SMR_VSA5>
13.47

>  <SMR_VSA6>
6.79

>  <SMR_VSA7>
34.12

>  <SMR_VSA8>
0

>  <SMR_VSA9>
11.5

>  <SlogP_VSA1>
14.9

>  <SlogP_VSA2>
22.44

>  <SlogP_VSA3>
6.54

>  <SlogP_VSA4>
0

>  <SlogP_VSA5>
17.28

>  <SlogP_VSA6>
23.12

>  <SlogP_VSA7>
0

>  <SlogP_VSA8>
10.9

>  <SlogP_VSA9>
0

>  <SlogP_VSA10>
0

>  <SlogP_VSA11>
11.5

>  <EState_VSA1>
11.4

>  <EState_VSA2>
12.36

>  <EState_VSA3>
28.95

>  <EState_VSA4>
0

>  <EState_VSA5>
6.2

>  <EState_VSA6>
16.7

>  <EState_VSA7>
6.92

>  <EState_VSA8>
0

>  <EState_VSA9>
14.58

>  <EState_VSA10>
9.59

>  <VSA_EState1>
12.2

>  <VSA_EState2>
23.25

>  <VSA_EState3>
9.39

>  <VSA_EState4>
-0.11

>  <VSA_EState5>
-0.2

>  <VSA_EState6>
3.24

>  <VSA_EState7>
1.36

>  <VSA_EState8>
2.54

>  <VSA_EState9>
0

>  <apol>
34.15

>  <bpol>
17.95

>  <nRing>
3

>  <nHRing>
2

>  <naRing>
2

>  <naHRing>
1

>  <nARing 2>
1

>  <nAHRing 2>
1

>  <nFRing>
1

>  <nFHRing>
1

>  <nFaRing>
0

>  <nFaHRing>
0

>  <nFARing 2>
1

>  <nFAHRing 2>
1

>  <nRot>
2

>  <SLogP>
1.45

>  <SMR>
66.96

>  <TopoPSA(NO)>
77.76

>  <TopoPSA>
77.76

>  <JGI1>
0.19

>  <JGI2>
0.09

>  <JGI3>
0.05

>  <JGI4>
0.06

>  <JGI5>
0.03

>  <Diameter>
8

>  <Radius>
4

>  <TMWC10>
114.6

>  <TSRW10>
66.57

>  <MW>
261.06

>  <AMW>
8.7

>  <WPath>
629

>  <WPol>
33

>  <Zagreb1>
104

>  <Zagreb2>
127

>  <mZagreb2>
4.17

>  <yes>


>  <nAR-cont>
0.816016

>  <nHA-cont>
0.998649058

>  <MWHBN>
0.371347995

>  <MWHBN-cont>
0.588624478

>  <TPSA-cont>
0.457186914

>  <pka_cont>
0.97

>  <yes.1>


>  <BBB_SCORE>
4.096975603

>  <MMFF94 Energy>
21.242

$$$$
Compound 2492
Actelion Java MolfileCreator 2.0

  0  0  0  0  0  0              0 V3000
M  V30 BEGIN CTAB
M  V30 COUNTS 36 38 0 0 0
M  V30 BEGIN ATOM
M  V30 1 O 2.404 -2.9656 1.522 0
M  V30 2 C 1.3665 -2.6258 0.9627 0
M  V30 3 C 0.4162 -3.598 0.3805 0
M  V30 4 C 1.0466 -1.1808 0.8129 0
M  V30 5 C 0.5331 -5.0584 0.4739 0
M  V30 6 C -0.6313 -3.1013 -0.2936 0
M  V30 7 C -0.0936 -0.7797 0.0857 0
M  V30 8 C 1.9113 -0.2427 1.3946 0
M  V30 9 O 0.0396 -5.8611 -0.3024 0
M  V30 10 O 1.197 -5.4787 1.5601 0
M  V30 11 N -0.9422 -1.7604 -0.4774 0
M  V30 12 C -0.3176 0.6052 -0.0311 0
M  V30 13 C 1.6559 1.1199 1.2623 0
M  V30 14 C -2.1214 -1.3644 -1.268 0
M  V30 15 C 0.54 1.5665 0.5456 0
M  V30 16 C -1.738 -1.0659 -2.7104 0
M  V30 17 C 0.2672 3.0042 0.3958 0
M  V30 18 C 0.1421 3.5888 -0.8698 0
M  V30 19 C 0.1239 3.8337 1.514 0
M  V30 20 C -0.1161 4.9477 -0.9603 0
M  V30 21 C -0.137 5.1815 1.3224 0
M  V30 22 N -0.2614 5.7566 0.1088 0
M  V30 23 H -1.3502 -3.7763 -0.7562 0
M  V30 24 H 2.7887 -0.5728 1.9476 0
M  V30 25 H 1.2116 -6.4539 1.4883 0
M  V30 26 H -1.1812 0.9786 -0.574 0
M  V30 27 H 2.3459 1.8319 1.7115 0
M  V30 28 H -2.6517 -0.5196 -0.8149 0
M  V30 29 H -2.8553 -2.1813 -1.2712 0
M  V30 30 H -1.27 -1.9378 -3.1795 0
M  V30 31 H -1.0324 -0.2326 -2.7795 0
M  V30 32 H -2.628 -0.8047 -3.2913 0
M  V30 33 H 0.2567 3.0024 -1.7756 0
M  V30 34 H 0.2024 3.4398 2.5223 0
M  V30 35 H -0.2136 5.4352 -1.9261 0
M  V30 36 H -0.258 5.8531 2.1678 0
M  V30 END ATOM
M  V30 BEGIN BOND
M  V30 1 2 1 2
M  V30 2 1 2 3
M  V30 3 1 2 4
M  V30 4 1 3 5
M  V30 5 2 3 6
M  V30 6 2 4 7
M  V30 7 1 4 8
M  V30 8 2 5 9
M  V30 9 1 5 10
M  V30 10 1 6 11
M  V30 11 1 7 12
M  V30 12 2 8 13
M  V30 13 1 11 14
M  V30 14 2 12 15
M  V30 15 1 14 16
M  V30 16 1 15 17
M  V30 17 2 17 18
M  V30 18 1 17 19
M  V30 19 1 18 20
M  V30 20 2 19 21
M  V30 21 2 20 22
M  V30 22 1 7 11
M  V30 23 1 13 15
M  V30 24 1 21 22
M  V30 25 1 6 23
M  V30 26 1 8 24
M  V30 27 1 10 25
M  V30 28 1 12 26
M  V30 29 1 13 27
M  V30 30 1 14 28
M  V30 31 1 14 29
M  V30 32 1 16 30
M  V30 33 1 16 31
M  V30 34 1 16 32
M  V30 35 1 18 33
M  V30 36 1 19 34
M  V30 37 1 20 35
M  V30 38 1 21 36
M  V30 END BOND
M  V30 END CTAB
M  END
>  <Column 1>
3083

>  <level_0>
5234

>  <index>
5235

>  <Unnamed: 0>
5235

>  <NO.>
5247

>  <Name>
rosoxacin

>  <IUPAC_name>
1-ethyl-4-oxo-7-pyridin-4-ylquinoline-3-carboxylic acid

>  <SMILES>
CCn1cc(C(=O)O)c(=O)c2ccc(-c3ccncc3)cc21

>  <CID>
287180

>  <logBB>


>  <BBB+/BBB->
BBB-

>  <Inchi>
InChI=1S/C17H14N2O3/c1-2-19-10-14(17(21)22)16(20)13-4-3-12(9-15(13)19)11-5-7-18-8-6-11/h3-10H-2H2-1H3-(H-21-22)

>  <threshold>


>  <reference>
R14|R23|

>  <group>
C

>  <Class>
-1

>  <ABC>
17.06

>  <ABCGG>
13.83

>  <nAcid>
1

>  <nBase>
0

>  <nAromAtom>
16

>  <nAromBond>
17

>  <nAtom>
36

>  <nHeavyAtom>
22

>  <nSpiro>
0

>  <nBridgehead>
0

>  <nHetero>
5

>  <nN>
2

>  <nO>
3

>  <nF>
0

>  <BalabanJ>
1.69

>  <BertzCT>
914.33

>  <nBonds>
38

>  <nBondsO>
24

>  <nBondsS>
19

>  <nBondsD>
2

>  <nBondsT>
0

>  <nBondsA>
17

>  <nBondsM>
19

>  <nBondsKS>
29

>  <nBondsKD>
9

>  <RNCG>
0.25

>  <RPCG>
0.18

>  <FCSP3>
0.12

>  <SZ>
25.67

>  <Sm>
24.5

>  <Sv>
24.45

>  <Sse>
36.53

>  <Sp>
25.35

>  <Si>
40.12

>  <MZ>
0.71

>  <Mm>
0.68

>  <Mv>
0.68

>  <Mse>
1.01

>  <Mp>
0.7

>  <Mi>
1.11

>  <NsCH3>
1

>  <NdCH2>
0

>  <NssCH2>
1

>  <NtCH>
0

>  <NdsCH>
0

>  <NaaCH>
8

>  <NsssCH>
0

>  <NddC>
0

>  <NtsC>
0

>  <NdssC>
1

>  <NaasC>
3

>  <NaaaC>
2

>  <NssssC>
0

>  <NsNH3>
0

>  <NsNH2>
0

>  <NssNH2>
0

>  <NdNH>
0

>  <NssNH>
0

>  <NaaNH>
0

>  <NtN>
0

>  <NsssNH>
0

>  <NdsN>
0

>  <NaaN>
1

>  <NsssN>
0

>  <NddsN>
0

>  <NaasN>
1

>  <NssssN>
0

>  <NsOH>
1

>  <NdO>
2

>  <NssO>
0

>  <NaaO>
0

>  <NsF>
0

>  <NsSiH3>
0

>  <NssSiH2>
0

>  <NsssSiH>
0

>  <NssssSi>
0

>  <NsPH2>
0

>  <NssPH>
0

>  <NsssP>
0

>  <NdsssP>
0

>  <NsssssP>
0

>  <NsSH>
0

>  <NdS>
0

>  <NssS>
0

>  <NaaS>
0

>  <NdssS>
0

>  <NddssS>
0

>  <NsCl>
0

>  <NsBr>
0

>  <NsI>
0

>  <fragCpx>
114.05

>  <fMF>
0.44

>  <nHBAcc>
4

>  <nHBDon>
1

>  <Kier1>
16.84

>  <Kier2>
7.27

>  <Lipinski>
1

>  <GhoseFilter>
1

>  <FilterItLogS>
-3.87

>  <VMcGowan>
216.68

>  <LabuteASA>
126.03

>  <PEOE_VSA1>
9.67

>  <PEOE_VSA2>
9.78

>  <PEOE_VSA3>
4.79

>  <PEOE_VSA4>
0

>  <PEOE_VSA5>
0

>  <PEOE_VSA6>
6.07

>  <PEOE_VSA7>
42.32

>  <PEOE_VSA8>
30.52

>  <PEOE_VSA9>
5.52

>  <PEOE_VSA10>
5.56

>  <PEOE_VSA11>
0

>  <PEOE_VSA12>
5.43

>  <PEOE_VSA13>
0

>  <SMR_VSA1>
9.9

>  <SMR_VSA2>
0

>  <SMR_VSA3>
9.55

>  <SMR_VSA4>
0

>  <SMR_VSA5>
13.47

>  <SMR_VSA6>
0

>  <SMR_VSA7>
64.71

>  <SMR_VSA8>
0

>  <SMR_VSA9>
11.13

>  <SlogP_VSA1>
5.43

>  <SlogP_VSA2>
20.63

>  <SlogP_VSA3>
6.54

>  <SlogP_VSA4>
0

>  <SlogP_VSA5>
17.28

>  <SlogP_VSA6>
53.72

>  <SlogP_VSA7>
0

>  <SlogP_VSA8>
22.03

>  <SlogP_VSA9>
0

>  <SlogP_VSA10>
0

>  <SlogP_VSA11>
0

>  <EState_VSA1>
11.4

>  <EState_VSA2>
5.56

>  <EState_VSA3>
11.93

>  <EState_VSA4>
16.64

>  <EState_VSA5>
6.2

>  <EState_VSA6>
23.03

>  <EState_VSA7>
31.19

>  <EState_VSA8>
4.98

>  <EState_VSA9>
5.11

>  <EState_VSA10>
9.59

>  <VSA_EState1>
1.78

>  <VSA_EState2>
27.48

>  <VSA_EState3>
9.57

>  <VSA_EState4>
2.03

>  <VSA_EState5>
-1.2

>  <VSA_EState6>
9.19

>  <VSA_EState7>
4.82

>  <VSA_EState8>
2.49

>  <VSA_EState9>
0

>  <apol>
42.33

>  <bpol>
18.63

>  <nRing>
3

>  <nHRing>
2

>  <naRing>
3

>  <naHRing>
2

>  <nARing 2>
0

>  <nAHRing 2>
0

>  <nFRing>
1

>  <nFHRing>
1

>  <nFaRing>
1

>  <nFaHRing>
1

>  <nFARing 2>
0

>  <nFAHRing 2>
0

>  <nRot>
3

>  <SLogP>
2.78

>  <SMR>
84.07

>  <TopoPSA(NO)>
72.19

>  <TopoPSA>
72.19

>  <JGI1>
0.17

>  <JGI2>
0.08

>  <JGI3>
0.04

>  <JGI4>
0.05

>  <JGI5>
0.04

>  <Diameter>
11

>  <Radius>
6

>  <TMWC10>
120.93

>  <TSRW10>
56.43

>  <MW>
294.1

>  <AMW>
8.17

>  <WPath>
1016

>  <WPol>
38

>  <Zagreb1>
116

>  <Zagreb2>
139

>  <mZagreb2>
4.92

>  <yes>


>  <nAR-cont>
0.336376

>  <nHA-cont>
0.983774276

>  <MWHBN>
0.291556342

>  <MWHBN-cont>
0.865210405

>  <TPSA-cont>
0.496068973

>  <pka_cont>
0.97

>  <yes.1>


>  <BBB_SCORE>
4.095103828

>  <MMFF94 Energy>
40.003

$$$$
Compound 2493
Actelion Java MolfileCreator 2.0

  0  0  0  0  0  0              0 V3000
M  V30 BEGIN CTAB
M  V30 COUNTS 34 35 0 0 0
M  V30 BEGIN ATOM
M  V30 1 S -2.7328 -0.1605 -1.446 0
M  V30 2 O -4.1325 0.177 -1.3139 0
M  V30 3 O -2.2018 -0.7366 -2.6622 0
M  V30 4 N -1.8709 1.2138 -1.0971 0
M  V30 5 C -2.3246 -1.233 -0.0918 0
M  V30 6 C -0.5007 1.4138 -0.9081 0
M  V30 7 C -1.7287 -2.4714 -0.3339 0
M  V30 8 C -2.5958 -0.8184 1.2137 0
M  V30 9 N -0.19 2.5016 -0.3028 0
M  V30 10 C 0.4359 0.4067 -1.4133 0
M  V30 11 C -1.3943 -3.2939 0.7451 0
M  V30 12 C -2.2541 -1.6508 2.2826 0
M  V30 13 C 1.1372 2.7653 -0.0678 0
M  V30 14 C 1.716 0.6779 -1.1623 0
M  V30 15 C -1.6659 -2.8994 2.059 0
M  V30 16 O 1.4768 3.801 0.4985 0
M  V30 17 N 2.083 1.8212 -0.4888 0
M  V30 18 N -1.2905 -3.6983 3.1229 0
M  V30 19 C 3.5005 2.0879 -0.2482 0
M  V30 20 C 4.136 2.8522 -1.4 0
M  V30 21 H -2.4644 1.9745 -0.7714 0
M  V30 22 H -1.5217 -2.8068 -1.3475 0
M  V30 23 H -3.0674 0.1415 1.4096 0
M  V30 24 H 0.1289 -0.4662 -1.9651 0
M  V30 25 H -0.9218 -4.2538 0.5514 0
M  V30 26 H -2.4565 -1.3171 3.2976 0
M  V30 27 H 2.5088 0.0124 -1.4911 0
M  V30 28 H -1.5601 -3.4503 4.0656 0
M  V30 29 H -0.9499 -4.6365 2.962 0
M  V30 30 H 4.0235 1.1373 -0.0893 0
M  V30 31 H 3.6108 2.6691 0.6745 0
M  V30 32 H 3.6375 3.8143 -1.5575 0
M  V30 33 H 4.0691 2.2846 -2.3339 0
M  V30 34 H 5.193 3.044 -1.1915 0
M  V30 END ATOM
M  V30 BEGIN BOND
M  V30 1 2 1 2
M  V30 2 2 1 3
M  V30 3 1 1 4
M  V30 4 1 1 5
M  V30 5 1 4 6
M  V30 6 2 5 7
M  V30 7 1 5 8
M  V30 8 2 6 9
M  V30 9 1 6 10
M  V30 10 1 7 11
M  V30 11 2 8 12
M  V30 12 1 9 13
M  V30 13 2 10 14
M  V30 14 2 11 15
M  V30 15 2 13 16
M  V30 16 1 13 17
M  V30 17 1 15 18
M  V30 18 1 17 19
M  V30 19 1 19 20
M  V30 20 1 12 15
M  V30 21 1 14 17
M  V30 22 1 4 21
M  V30 23 1 7 22
M  V30 24 1 8 23
M  V30 25 1 10 24
M  V30 26 1 11 25
M  V30 27 1 12 26
M  V30 28 1 14 27
M  V30 29 1 18 28
M  V30 30 1 18 29
M  V30 31 1 19 30
M  V30 32 1 19 31
M  V30 33 1 20 32
M  V30 34 1 20 33
M  V30 35 1 20 34
M  V30 END BOND
M  V30 END CTAB
M  END
>  <Column 1>
3085

>  <level_0>
5236

>  <index>
5237

>  <Unnamed: 0>
5237

>  <NO.>
5249

>  <Name>
sulfacytine

>  <IUPAC_name>
4-amino-n-(1-ethyl-2-oxopyrimidin-4-yl)benzenesulfonamide

>  <SMILES>
CCn1ccc(NS(=O)(=O)c2ccc(N)cc2)nc1=O

>  <CID>
5322

>  <logBB>


>  <BBB+/BBB->
BBB-

>  <Inchi>
InChI=1S/C12H14N4O3S/c1-2-16-8-7-11(14-12(16)17)15-20(18-19)10-5-3-9(13)4-6-10/h3-8H-2-13H2-1H3-(H-14-15-17)

>  <threshold>


>  <reference>
R14|R23|

>  <group>
C

>  <Class>
-1

>  <ABC>
15.28

>  <ABCGG>
12.88

>  <nAcid>
0

>  <nBase>
0

>  <nAromAtom>
12

>  <nAromBond>
12

>  <nAtom>
34

>  <nHeavyAtom>
20

>  <nSpiro>
0

>  <nBridgehead>
0

>  <nHetero>
8

>  <nN>
4

>  <nO>
3

>  <nF>
0

>  <BalabanJ>
1.85

>  <BertzCT>
766.03

>  <nBonds>
35

>  <nBondsO>
21

>  <nBondsS>
20

>  <nBondsD>
3

>  <nBondsT>
0

>  <nBondsA>
12

>  <nBondsM>
15

>  <nBondsKS>
27

>  <nBondsKD>
8

>  <RNCG>
0.2

>  <RPCG>
0.18

>  <FCSP3>
0.17

>  <SZ>
25.67

>  <Sm>
24.5

>  <Sv>
22.16

>  <Sse>
34.94

>  <Sp>
23.4

>  <Si>
38.62

>  <MZ>
0.75

>  <Mm>
0.72

>  <Mv>
0.65

>  <Mse>
1.03

>  <Mp>
0.69

>  <Mi>
1.14

>  <NsCH3>
1

>  <NdCH2>
0

>  <NssCH2>
1

>  <NtCH>
0

>  <NdsCH>
0

>  <NaaCH>
6

>  <NsssCH>
0

>  <NddC>
0

>  <NtsC>
0

>  <NdssC>
0

>  <NaasC>
3

>  <NaaaC>
0

>  <NssssC>
0

>  <NsNH3>
0

>  <NsNH2>
1

>  <NssNH2>
0

>  <NdNH>
0

>  <NssNH>
1

>  <NaaNH>
0

>  <NtN>
0

>  <NsssNH>
0

>  <NdsN>
0

>  <NaaN>
1

>  <NsssN>
0

>  <NddsN>
0

>  <NaasN>
1

>  <NssssN>
0

>  <NsOH>
0

>  <NdO>
3

>  <NssO>
0

>  <NaaO>
0

>  <NsF>
0

>  <NsSiH3>
0

>  <NssSiH2>
0

>  <NsssSiH>
0

>  <NssssSi>
0

>  <NsPH2>
0

>  <NssPH>
0

>  <NsssP>
0

>  <NdsssP>
0

>  <NsssssP>
0

>  <NsSH>
0

>  <NdS>
0

>  <NssS>
0

>  <NaaS>
0

>  <NdssS>
0

>  <NddssS>
1

>  <NsCl>
0

>  <NsBr>
0

>  <NsI>
0

>  <fragCpx>
61.08

>  <fMF>
0.41

>  <nHBAcc>
6

>  <nHBDon>
2

>  <Kier1>
16.37

>  <Kier2>
6.84

>  <Lipinski>
1

>  <GhoseFilter>
1

>  <FilterItLogS>
-2.75

>  <VMcGowan>
206.3

>  <LabuteASA>
115.68

>  <PEOE_VSA1>
5.73

>  <PEOE_VSA2>
9.29

>  <PEOE_VSA3>
13.21

>  <PEOE_VSA4>
4.98

>  <PEOE_VSA5>
0

>  <PEOE_VSA6>
0

>  <PEOE_VSA7>
37.26

>  <PEOE_VSA8>
18.43

>  <PEOE_VSA9>
4.9

>  <PEOE_VSA10>
5.82

>  <PEOE_VSA11>
0

>  <PEOE_VSA12>
0

>  <PEOE_VSA13>
10.02

>  <SMR_VSA1>
8.42

>  <SMR_VSA2>
0

>  <SMR_VSA3>
9.55

>  <SMR_VSA4>
0

>  <SMR_VSA5>
18.36

>  <SMR_VSA6>
10.46

>  <SMR_VSA7>
47.01

>  <SMR_VSA8>
0

>  <SMR_VSA9>
0

>  <SlogP_VSA1>
16.15

>  <SlogP_VSA2>
17.97

>  <SlogP_VSA3>
16.57

>  <SlogP_VSA4>
0

>  <SlogP_VSA5>
6.92

>  <SlogP_VSA6>
46.22

>  <SlogP_VSA7>
0

>  <SlogP_VSA8>
0

>  <SlogP_VSA9>
0

>  <SlogP_VSA10>
11.51

>  <SlogP_VSA11>
0

>  <EState_VSA1>
15.71

>  <EState_VSA2>
10.71

>  <EState_VSA3>
12.23

>  <EState_VSA4>
0

>  <EState_VSA5>
41.1

>  <EState_VSA6>
6.92

>  <EState_VSA7>
0

>  <EState_VSA8>
9.71

>  <EState_VSA9>
5.73

>  <EState_VSA10>
13.21

>  <VSA_EState1>
27.77

>  <VSA_EState2>
15.25

>  <VSA_EState3>
0

>  <VSA_EState4>
5.46

>  <VSA_EState5>
-0.02

>  <VSA_EState6>
7.16

>  <VSA_EState7>
1.48

>  <VSA_EState8>
2.26

>  <VSA_EState9>
-3.78

>  <apol>
39.08

>  <bpol>
24.42

>  <nRing>
2

>  <nHRing>
1

>  <naRing>
2

>  <naHRing>
1

>  <nARing 2>
0

>  <nAHRing 2>
0

>  <nFRing>
0

>  <nFHRing>
0

>  <nFaRing>
0

>  <nFaHRing>
0

>  <nFARing 2>
0

>  <nFAHRing 2>
0

>  <nRot>
4

>  <SLogP>
0.65

>  <SMR>
75.83

>  <TopoPSA(NO)>
107.08

>  <TopoPSA>
115.46

>  <JGI1>
0.29

>  <JGI2>
0.1

>  <JGI3>
0.06

>  <JGI4>
0.05

>  <JGI5>
0.04

>  <Diameter>
12

>  <Radius>
6

>  <TMWC10>
113.54

>  <TSRW10>
53.59

>  <MW>
294.08

>  <AMW>
8.65

>  <WPath>
856

>  <WPol>
30

>  <Zagreb1>
102

>  <Zagreb2>
117

>  <mZagreb2>
4.4

>  <yes>


>  <nAR-cont>
0.336376

>  <nHA-cont>
0.999629945

>  <MWHBN>
0.466506009

>  <MWHBN-cont>
0

>  <TPSA-cont>
0.194017504

>  <pka_cont>
0.97

>  <yes.1>


>  <BBB_SCORE>
2.209040952

>  <MMFF94 Energy>
-144.35

$$$$
Compound 2494
Actelion Java MolfileCreator 2.0

  0  0  0  0  0  0              0 V3000
M  V30 BEGIN CTAB
M  V30 COUNTS 32 32 0 0 0
M  V30 BEGIN ATOM
M  V30 1 I 1.0096 -0.1682 1.9358 0
M  V30 2 C 0.3288 0.3929 -0.0329 0
M  V30 3 C -0.9305 -0.1134 -0.4529 0
M  V30 4 C 1.1121 1.2506 -0.8564 0
M  V30 5 N -1.6979 -0.9608 0.3769 0
M  V30 6 C -1.4228 0.2927 -1.7035 0
M  V30 7 C 0.5698 1.6126 -2.1093 0
M  V30 8 C 2.46 1.7855 -0.4042 0
M  V30 9 C -1.523 -2.232 0.2115 0
M  V30 10 I -3.3046 -0.321 -2.4257 0
M  V30 11 C -0.681 1.1414 -2.5247 0
M  V30 12 I 1.5344 2.8959 -3.4875 0
M  V30 13 C 2.3406 3.1132 0.345 0
M  V30 14 N -2.1644 -3.2287 0.9044 0
M  V30 15 C 3.6912 3.6077 0.7792 0
M  V30 16 C -3.2129 -2.8972 1.8557 0
M  V30 17 C -2.0101 -4.6247 0.5443 0
M  V30 18 O 4.7728 3.0834 0.5792 0
M  V30 19 O 3.6074 4.7694 1.457 0
M  V30 20 H 3.1358 1.8928 -1.26 0
M  V30 21 H 2.9863 1.0444 0.2066 0
M  V30 22 H -0.8112 -2.6253 -0.5394 0
M  V30 23 H -1.0837 1.4417 -3.4899 0
M  V30 24 H 1.8876 3.8782 -0.2944 0
M  V30 25 H 1.716 2.9997 1.2372 0
M  V30 26 H -3.4868 -3.7603 2.4718 0
M  V30 27 H -4.11 -2.5591 1.327 0
M  V30 28 H -2.8863 -2.104 2.537 0
M  V30 29 H -2.1369 -5.2757 1.4157 0
M  V30 30 H -2.7532 -4.9036 -0.2094 0
M  V30 31 H -1.013 -4.8216 0.1362 0
M  V30 32 H 4.5366 4.9839 1.6838 0
M  V30 END ATOM
M  V30 BEGIN BOND
M  V30 1 1 1 2
M  V30 2 2 2 3
M  V30 3 1 2 4
M  V30 4 1 3 5
M  V30 5 1 3 6
M  V30 6 2 4 7
M  V30 7 1 4 8
M  V30 8 2 5 9
M  V30 9 1 6 10
M  V30 10 2 6 11
M  V30 11 1 7 12
M  V30 12 1 8 13
M  V30 13 1 9 14
M  V30 14 1 13 15
M  V30 15 1 14 16
M  V30 16 1 14 17
M  V30 17 2 15 18
M  V30 18 1 15 19
M  V30 19 1 7 11
M  V30 20 1 8 20
M  V30 21 1 8 21
M  V30 22 1 9 22
M  V30 23 1 11 23
M  V30 24 1 13 24
M  V30 25 1 13 25
M  V30 26 1 16 26
M  V30 27 1 16 27
M  V30 28 1 16 28
M  V30 29 1 17 29
M  V30 30 1 17 30
M  V30 31 1 17 31
M  V30 32 1 19 32
M  V30 END BOND
M  V30 END CTAB
M  END
>  <Column 1>
3086

>  <level_0>
5237

>  <index>
5238

>  <Unnamed: 0>
5238

>  <NO.>
5250

>  <Name>
ipodate

>  <IUPAC_name>
3-[3-(dimethylaminomethylideneamino)-2-4-6-triiodophenyl]propanoic acid

>  <SMILES>
CN(C)C=Nc1c(I)cc(I)c(CCC(=O)O)c1I

>  <CID>
5241

>  <logBB>


>  <BBB+/BBB->
BBB-

>  <Inchi>
InChI=1S/C12H13I3N2O2/c1-17(2)6-16-12-9(14)5-8(13)7(11(12)15)3-4-10(18)19/h5-6H-3-4H2-1-2H3-(H-18-19)

>  <threshold>


>  <reference>
R14|

>  <group>
C

>  <Class>
1

>  <ABC>
14.04

>  <ABCGG>
12.77

>  <nAcid>
1

>  <nBase>
2

>  <nAromAtom>
6

>  <nAromBond>
6

>  <nAtom>
32

>  <nHeavyAtom>
19

>  <nSpiro>
0

>  <nBridgehead>
0

>  <nHetero>
7

>  <nN>
2

>  <nO>
2

>  <nF>
0

>  <BalabanJ>
2.6

>  <BertzCT>
516.19

>  <nBonds>
32

>  <nBondsO>
19

>  <nBondsS>
24

>  <nBondsD>
2

>  <nBondsT>
0

>  <nBondsA>
6

>  <nBondsM>
8

>  <nBondsKS>
27

>  <nBondsKD>
5

>  <RNCG>
0.31

>  <RPCG>
0.2

>  <FCSP3>
0.33

>  <SZ>
45.67

>  <Sm>
49.78

>  <Sv>
23.21

>  <Sse>
32.29

>  <Sp>
29.08

>  <Si>
35.48

>  <MZ>
1.43

>  <Mm>
1.56

>  <Mv>
0.73

>  <Mse>
1.01

>  <Mp>
0.91

>  <Mi>
1.11

>  <NsCH3>
2

>  <NdCH2>
0

>  <NssCH2>
2

>  <NtCH>
0

>  <NdsCH>
1

>  <NaaCH>
1

>  <NsssCH>
0

>  <NddC>
0

>  <NtsC>
0

>  <NdssC>
1

>  <NaasC>
5

>  <NaaaC>
0

>  <NssssC>
0

>  <NsNH3>
0

>  <NsNH2>
0

>  <NssNH2>
0

>  <NdNH>
0

>  <NssNH>
0

>  <NaaNH>
0

>  <NtN>
0

>  <NsssNH>
0

>  <NdsN>
1

>  <NaaN>
0

>  <NsssN>
1

>  <NddsN>
0

>  <NaasN>
0

>  <NssssN>
0

>  <NsOH>
1

>  <NdO>
1

>  <NssO>
0

>  <NaaO>
0

>  <NsF>
0

>  <NsSiH3>
0

>  <NssSiH2>
0

>  <NsssSiH>
0

>  <NssssSi>
0

>  <NsPH2>
0

>  <NssPH>
0

>  <NsssP>
0

>  <NdsssP>
0

>  <NsssssP>
0

>  <NsSH>
0

>  <NdS>
0

>  <NssS>
0

>  <NaaS>
0

>  <NdssS>
0

>  <NddssS>
0

>  <NsCl>
0

>  <NsBr>
0

>  <NsI>
3

>  <fragCpx>
19.07

>  <fMF>
0.19

>  <nHBAcc>
2

>  <nHBDon>
1

>  <Kier1>
17.05

>  <Kier2>
7.7

>  <Lipinski>
0

>  <GhoseFilter>
0

>  <FilterItLogS>
-5.18

>  <VMcGowan>
256.77

>  <LabuteASA>
153.02

>  <PEOE_VSA1>
10.01

>  <PEOE_VSA2>
4.79

>  <PEOE_VSA3>
4.99

>  <PEOE_VSA4>
0

>  <PEOE_VSA5>
0

>  <PEOE_VSA6>
0

>  <PEOE_VSA7>
85.82

>  <PEOE_VSA8>
31.23

>  <PEOE_VSA9>
12.03

>  <PEOE_VSA10>
0

>  <PEOE_VSA11>
0

>  <PEOE_VSA12>
0

>  <PEOE_VSA13>
0

>  <SMR_VSA1>
9.9

>  <SMR_VSA2>
0

>  <SMR_VSA3>
4.9

>  <SMR_VSA4>
4.99

>  <SMR_VSA5>
12.84

>  <SMR_VSA6>
14.1

>  <SMR_VSA7>
22.34

>  <SMR_VSA8>
0

>  <SMR_VSA9>
0

>  <SlogP_VSA1>
0

>  <SlogP_VSA2>
36.41

>  <SlogP_VSA3>
11.22

>  <SlogP_VSA4>
10.71

>  <SlogP_VSA5>
11.98

>  <SlogP_VSA6>
11.06

>  <SlogP_VSA7>
0

>  <SlogP_VSA8>
0

>  <SlogP_VSA9>
0

>  <SlogP_VSA10>
5.69

>  <SlogP_VSA11>
0

>  <EState_VSA1>
5.97

>  <EState_VSA2>
6.42

>  <EState_VSA3>
6.42

>  <EState_VSA4>
21.96

>  <EState_VSA5>
0

>  <EState_VSA6>
6.34

>  <EState_VSA7>
25.06

>  <EState_VSA8>
72.77

>  <EState_VSA9>
5.11

>  <EState_VSA10>
4.79

>  <VSA_EState1>
3.2

>  <VSA_EState2>
17.06

>  <VSA_EState3>
8.81

>  <VSA_EState4>
1.98

>  <VSA_EState5>
-0.77

>  <VSA_EState6>
2.04

>  <VSA_EState7>
2.43

>  <VSA_EState8>
0

>  <VSA_EState9>
3.84

>  <apol>
48.56

>  <bpol>
27.8

>  <nRing>
1

>  <nHRing>
0

>  <naRing>
1

>  <naHRing>
0

>  <nARing 2>
0

>  <nAHRing 2>
0

>  <nFRing>
0

>  <nFHRing>
0

>  <nFaRing>
0

>  <nFaHRing>
0

>  <nFARing 2>
0

>  <nFAHRing 2>
0

>  <nRot>
5

>  <SLogP>
3.74

>  <SMR>
102.39

>  <TopoPSA(NO)>
52.9

>  <TopoPSA>
52.9

>  <JGI1>
0.26

>  <JGI2>
0.1

>  <JGI3>
0.06

>  <JGI4>
0.05

>  <JGI5>
0.04

>  <Diameter>
10

>  <Radius>
5

>  <TMWC10>
109.09

>  <TSRW10>
51.76

>  <MW>
597.81

>  <AMW>
18.68

>  <WPath>
732

>  <WPol>
27

>  <Zagreb1>
90

>  <Zagreb2>
101

>  <mZagreb2>
4.28

>  <yes>


>  <nAR-cont>
0.336376

>  <nHA-cont>
0.998649058

>  <MWHBN>
0.122698617

>  <MWHBN-cont>
0.840794762

>  <TPSA-cont>
0.630725151

>  <pka_cont>
0.97

>  <yes.1>


>  <BBB_SCORE>
4.342667503

>  <MMFF94 Energy>
-10.587

$$$$
Compound 2495
Actelion Java MolfileCreator 2.0

  0  0  0  0  0  0              0 V3000
M  V30 BEGIN CTAB
M  V30 COUNTS 38 39 0 0 0
M  V30 BEGIN ATOM
M  V30 1 Br -3.1196 -2.7993 -4.0809 0
M  V30 2 C -2.3283 -1.8184 -2.6718 0
M  V30 3 C -2.5457 -0.4455 -2.578 0
M  V30 4 C -1.5334 -2.473 -1.7348 0
M  V30 5 C -1.9616 0.2802 -1.5369 0
M  V30 6 C -0.9492 -1.7469 -0.6949 0
M  V30 7 C -1.1547 -0.3615 -0.5832 0
M  V30 8 C -0.5143 0.4428 0.5448 0 CFG=1
M  V30 9 C -1.0022 -0.0231 1.9171 0
M  V30 10 C 1.0318 0.4618 0.4549 0
M  V30 11 N -0.2479 -0.9233 2.5996 0
M  V30 12 C -2.2214 0.4438 2.4118 0
M  V30 13 C 1.5346 1.1229 -0.839 0
M  V30 14 C -0.7066 -1.344 3.7988 0
M  V30 15 C -2.6689 -0.0098 3.6497 0
M  V30 16 N 2.987 1.3807 -0.8337 0
M  V30 17 C -1.8977 -0.9198 4.3606 0
M  V30 18 C 3.3566 2.178 -2.0067 0
M  V30 19 C 3.7655 0.14 -0.8173 0
M  V30 20 H -3.1663 0.0677 -3.3077 0
M  V30 21 H -1.3634 -3.5443 -1.7999 0
M  V30 22 H -2.1401 1.3519 -1.4792 0
M  V30 23 H -0.3357 -2.2701 0.0377 0
M  V30 24 H -0.8367 1.4901 0.4491 0
M  V30 25 H 1.4294 1.0183 1.3149 0
M  V30 26 H 1.427 -0.5584 0.5305 0
M  V30 27 H -2.8207 1.1465 1.8418 0
M  V30 28 H 1.2617 0.5125 -1.709 0
M  V30 29 H 1.014 2.0837 -0.945 0
M  V30 30 H -0.0687 -2.0571 4.3128 0
M  V30 31 H -3.6142 0.3419 4.0531 0
M  V30 32 H -2.2182 -1.2926 5.3267 0
M  V30 33 H 2.8237 3.1356 -2.006 0
M  V30 34 H 3.1341 1.6592 -2.9462 0
M  V30 35 H 4.4257 2.418 -1.9888 0
M  V30 36 H 3.517 -0.5149 -1.6601 0
M  V30 37 H 3.6106 -0.4137 0.1137 0
M  V30 38 H 4.8388 0.3593 -0.8596 0
M  V30 END ATOM
M  V30 BEGIN BOND
M  V30 1 1 1 2
M  V30 2 2 2 3
M  V30 3 1 2 4
M  V30 4 1 3 5
M  V30 5 2 4 6
M  V30 6 2 5 7
M  V30 7 1 7 8
M  V30 8 1 8 9
M  V30 9 1 8 10
M  V30 10 2 9 11
M  V30 11 1 9 12
M  V30 12 1 10 13
M  V30 13 1 11 14
M  V30 14 2 12 15
M  V30 15 1 13 16
M  V30 16 2 14 17
M  V30 17 1 16 18
M  V30 18 1 16 19
M  V30 19 1 6 7
M  V30 20 1 15 17
M  V30 21 1 3 20
M  V30 22 1 4 21
M  V30 23 1 5 22
M  V30 24 1 6 23
M  V30 25 1 8 24
M  V30 26 1 10 25
M  V30 27 1 10 26
M  V30 28 1 12 27
M  V30 29 1 13 28
M  V30 30 1 13 29
M  V30 31 1 14 30
M  V30 32 1 15 31
M  V30 33 1 17 32
M  V30 34 1 18 33
M  V30 35 1 18 34
M  V30 36 1 18 35
M  V30 37 1 19 36
M  V30 38 1 19 37
M  V30 39 1 19 38
M  V30 END BOND
M  V30 BEGIN COLLECTION
M  V30 MDLV30/STERAC1 ATOMS=(1 8)
M  V30 END COLLECTION
M  V30 END CTAB
M  END
>  <Column 1>
3087

>  <level_0>
5239

>  <index>
5240

>  <Unnamed: 0>
5240

>  <NO.>
5252

>  <Name>
brompheniramine

>  <IUPAC_name>
3-(4-bromophenyl)-n-n-dimethyl-3-pyridin-2-ylpropan-1-amine

>  <SMILES>
CN(C)CCC(c1ccc(Br)cc1)c1ccccn1

>  <CID>
6834

>  <logBB>


>  <BBB+/BBB->
BBB+

>  <Inchi>
InChI=1S/C16H19BrN2/c1-19(2)12-10-15(16-5-3-4-11-18-16)13-6-8-14(17)9-7-13/h3-9-11-15H-10-12H2-1-2H3

>  <threshold>


>  <reference>
R14|R23|

>  <group>
C

>  <Class>
-1

>  <ABC>
14.39

>  <ABCGG>
12.22

>  <nAcid>
0

>  <nBase>
1

>  <nAromAtom>
12

>  <nAromBond>
12

>  <nAtom>
38

>  <nHeavyAtom>
19

>  <nSpiro>
0

>  <nBridgehead>
0

>  <nHetero>
3

>  <nN>
2

>  <nO>
0

>  <nF>
0

>  <BalabanJ>
1.92

>  <BertzCT>
493.92

>  <nBonds>
39

>  <nBondsO>
20

>  <nBondsS>
27

>  <nBondsD>
0

>  <nBondsT>
0

>  <nBondsA>
12

>  <nBondsM>
12

>  <nBondsKS>
33

>  <nBondsKD>
6

>  <RNCG>
0.29

>  <RPCG>
0.08

>  <FCSP3>
0.31

>  <SZ>
27.33

>  <Sm>
26.58

>  <Sv>
23.95

>  <Sse>
37.43

>  <Sp>
26.73

>  <Si>
42.58

>  <MZ>
0.72

>  <Mm>
0.7

>  <Mv>
0.63

>  <Mse>
0.99

>  <Mp>
0.7

>  <Mi>
1.12

>  <NsCH3>
2

>  <NdCH2>
0

>  <NssCH2>
2

>  <NtCH>
0

>  <NdsCH>
0

>  <NaaCH>
8

>  <NsssCH>
1

>  <NddC>
0

>  <NtsC>
0

>  <NdssC>
0

>  <NaasC>
3

>  <NaaaC>
0

>  <NssssC>
0

>  <NsNH3>
0

>  <NsNH2>
0

>  <NssNH2>
0

>  <NdNH>
0

>  <NssNH>
0

>  <NaaNH>
0

>  <NtN>
0

>  <NsssNH>
0

>  <NdsN>
0

>  <NaaN>
1

>  <NsssN>
1

>  <NddsN>
0

>  <NaasN>
0

>  <NssssN>
0

>  <NsOH>
0

>  <NdO>
0

>  <NssO>
0

>  <NaaO>
0

>  <NsF>
0

>  <NsSiH3>
0

>  <NssSiH2>
0

>  <NsssSiH>
0

>  <NssssSi>
0

>  <NsPH2>
0

>  <NssPH>
0

>  <NsssP>
0

>  <NdsssP>
0

>  <NsssssP>
0

>  <NsSH>
0

>  <NdS>
0

>  <NssS>
0

>  <NaaS>
0

>  <NdssS>
0

>  <NddssS>
0

>  <NsCl>
0

>  <NsBr>
1

>  <NsI>
0

>  <fragCpx>
58.03

>  <fMF>
0.34

>  <nHBAcc>
2

>  <nHBDon>
0

>  <Kier1>
15.39

>  <Kier2>
7.7

>  <Lipinski>
1

>  <GhoseFilter>
1

>  <FilterItLogS>
-5.13

>  <VMcGowan>
226.24

>  <LabuteASA>
123.16

>  <PEOE_VSA1>
4.9

>  <PEOE_VSA2>
4.98

>  <PEOE_VSA3>
0

>  <PEOE_VSA4>
0

>  <PEOE_VSA5>
0

>  <PEOE_VSA6>
34.13

>  <PEOE_VSA7>
56.89

>  <PEOE_VSA8>
22.28

>  <PEOE_VSA9>
0

>  <PEOE_VSA10>
0

>  <PEOE_VSA11>
0

>  <PEOE_VSA12>
0

>  <PEOE_VSA13>
0

>  <SMR_VSA1>
0

>  <SMR_VSA2>
0

>  <SMR_VSA3>
9.88

>  <SMR_VSA4>
0

>  <SMR_VSA5>
12.34

>  <SMR_VSA6>
20.64

>  <SMR_VSA7>
64.39

>  <SMR_VSA8>
0

>  <SMR_VSA9>
0

>  <SlogP_VSA1>
0

>  <SlogP_VSA2>
30.52

>  <SlogP_VSA3>
0

>  <SlogP_VSA4>
0

>  <SlogP_VSA5>
23.6

>  <SlogP_VSA6>
53.13

>  <SlogP_VSA7>
0

>  <SlogP_VSA8>
0

>  <SlogP_VSA9>
0

>  <SlogP_VSA10>
0

>  <SlogP_VSA11>
0

>  <EState_VSA1>
0

>  <EState_VSA2>
0

>  <EState_VSA3>
5.92

>  <EState_VSA4>
23.13

>  <EState_VSA5>
5.56

>  <EState_VSA6>
0

>  <EState_VSA7>
12.26

>  <EState_VSA8>
76.31

>  <EState_VSA9>
0

>  <EState_VSA10>
0

>  <VSA_EState1>
1.11

>  <VSA_EState2>
6.74

>  <VSA_EState3>
0

>  <VSA_EState4>
2.47

>  <VSA_EState5>
0.36

>  <VSA_EState6>
14.69

>  <VSA_EState7>
2.95

>  <VSA_EState8>
1.05

>  <VSA_EState9>
4.22

>  <apol>
44.64

>  <bpol>
23.29

>  <nRing>
2

>  <nHRing>
1

>  <naRing>
2

>  <naHRing>
1

>  <nARing 2>
0

>  <nAHRing 2>
0

>  <nFRing>
0

>  <nFHRing>
0

>  <nFaRing>
0

>  <nFaHRing>
0

>  <nFARing 2>
0

>  <nFAHRing 2>
0

>  <nRot>
5

>  <SLogP>
3.93

>  <SMR>
83.39

>  <TopoPSA(NO)>
16.13

>  <TopoPSA>
16.13

>  <JGI1>
0.18

>  <JGI2>
0.08

>  <JGI3>
0.04

>  <JGI4>
0.02

>  <JGI5>
0.02

>  <Diameter>
9

>  <Radius>
5

>  <TMWC10>
109.75

>  <TSRW10>
51.68

>  <MW>
318.07

>  <AMW>
8.37

>  <WPath>
718

>  <WPol>
25

>  <Zagreb1>
92

>  <Zagreb2>
103

>  <mZagreb2>
4.31

>  <yes>


>  <nAR-cont>
0.336376

>  <nHA-cont>
0.998649058

>  <MWHBN>
0.112142089

>  <MWHBN-cont>
0.793600492

>  <TPSA-cont>
0.887402584

>  <pka_cont>
0.97

>  <yes.1>


>  <BBB_SCORE>
4.785230964

>  <MMFF94 Energy>
58.911

$$$$
Compound 2496
Actelion Java MolfileCreator 2.0

  0  0  0  0  0  0              0 V3000
M  V30 BEGIN CTAB
M  V30 COUNTS 42 44 0 0 0
M  V30 BEGIN ATOM
M  V30 1 N 0.7136 -3.7313 -1.9834 0
M  V30 2 C 1.2475 -2.4145 -1.5802 0
M  V30 3 C 1.2425 -4.0986 -3.3004 0
M  V30 4 C -0.7481 -3.7551 -2.0168 0
M  V30 5 C 0.9439 -2.0014 -0.1259 0
M  V30 6 C -0.265 -1.1069 0.007 0
M  V30 7 C -0.2801 0.2402 0.1134 0
M  V30 8 C -1.5909 0.9176 0.2629 0
M  V30 9 C 0.9486 1.0119 0.0563 0
M  V30 10 C -1.8091 1.8798 1.264 0
M  V30 11 C -2.6313 0.6198 -0.6416 0
M  V30 12 C 1.3271 1.9598 0.9354 0
M  V30 13 C -0.8003 2.2999 2.2563 0
M  V30 14 C -3.0809 2.4778 1.3643 0
M  V30 15 C -3.8803 1.2311 -0.5344 0
M  V30 16 C 0.5405 2.3756 2.124 0
M  V30 17 C 2.6618 2.5547 0.7682 0
M  V30 18 C -4.1073 2.157 0.4744 0
M  V30 19 C 1.2956 2.9772 3.2376 0
M  V30 20 C 3.2362 3.2255 1.782 0
M  V30 21 C 2.5685 3.3737 3.0618 0
M  V30 22 H 0.9316 -1.6309 -2.2821 0
M  V30 23 H 2.3421 -2.4702 -1.6546 0
M  V30 24 H 2.3372 -4.1415 -3.2795 0
M  V30 25 H 0.9385 -3.3903 -4.0797 0
M  V30 26 H 0.8991 -5.0984 -3.589 0
M  V30 27 H -1.1624 -2.961 -2.6482 0
M  V30 28 H -1.1646 -3.6624 -1.0099 0
M  V30 29 H -1.1107 -4.717 -2.3977 0
M  V30 30 H 0.8073 -2.8856 0.5093 0
M  V30 31 H 1.8282 -1.4974 0.2834 0
M  V30 32 H -1.2068 -1.6486 0.0733 0
M  V30 33 H 1.6239 0.7314 -0.7491 0
M  V30 34 H -2.4683 -0.093 -1.447 0
M  V30 35 H -1.2426 2.654 3.1867 0
M  V30 36 H -3.2802 3.2192 2.1359 0
M  V30 37 H -4.6697 0.9852 -1.2394 0
M  V30 38 H 3.1827 2.4363 -0.176 0
M  V30 39 H -5.0772 2.6386 0.5665 0
M  V30 40 H 0.8111 3.1096 4.1995 0
M  V30 41 H 4.224 3.661 1.6719 0
M  V30 42 H 3.127 3.8254 3.8754 0
M  V30 END ATOM
M  V30 BEGIN BOND
M  V30 1 1 1 2
M  V30 2 1 1 3
M  V30 3 1 1 4
M  V30 4 1 2 5
M  V30 5 1 5 6
M  V30 6 2 6 7
M  V30 7 1 7 8
M  V30 8 1 7 9
M  V30 9 2 8 10
M  V30 10 1 8 11
M  V30 11 2 9 12
M  V30 12 1 10 13
M  V30 13 1 10 14
M  V30 14 2 11 15
M  V30 15 1 12 16
M  V30 16 1 12 17
M  V30 17 2 14 18
M  V30 18 1 16 19
M  V30 19 2 17 20
M  V30 20 2 19 21
M  V30 21 2 13 16
M  V30 22 1 15 18
M  V30 23 1 20 21
M  V30 24 1 2 22
M  V30 25 1 2 23
M  V30 26 1 3 24
M  V30 27 1 3 25
M  V30 28 1 3 26
M  V30 29 1 4 27
M  V30 30 1 4 28
M  V30 31 1 4 29
M  V30 32 1 5 30
M  V30 33 1 5 31
M  V30 34 1 6 32
M  V30 35 1 9 33
M  V30 36 1 11 34
M  V30 37 1 13 35
M  V30 38 1 14 36
M  V30 39 1 15 37
M  V30 40 1 17 38
M  V30 41 1 18 39
M  V30 42 1 19 40
M  V30 43 1 20 41
M  V30 44 1 21 42
M  V30 END BOND
M  V30 END CTAB
M  END
>  <Column 1>
3088

>  <level_0>
5240

>  <index>
5241

>  <Unnamed: 0>
5241

>  <NO.>
5253

>  <Name>
cyclobenzaprine hydrochloride

>  <IUPAC_name>
n-n-dimethyl-3-(9-tricyclo[9.4.0.03-8]pentadeca-1-3-5-7-10-12-14-heptaenylidene)propan-1-amine

>  <SMILES>
CN(C)CCC=C1C=c2ccccc2=Cc2ccccc21

>  <CID>
51548331

>  <logBB>


>  <BBB+/BBB->
BBB-

>  <Inchi>
InChI=1S/C20H21N/c1-21(2)13-7-11-19-15-17-9-4-3-8-16(17)14-18-10-5-6-12-20(18)19/h3-6-8-12-14-15H-7-13H2-1-2H3

>  <threshold>


>  <reference>
R14|

>  <group>
C

>  <Class>
1

>  <ABC>
16.36

>  <ABCGG>
12.88

>  <nAcid>
0

>  <nBase>
1

>  <nAromAtom>
12

>  <nAromBond>
12

>  <nAtom>
42

>  <nHeavyAtom>
21

>  <nSpiro>
0

>  <nBridgehead>
0

>  <nHetero>
1

>  <nN>
1

>  <nO>
0

>  <nF>
0

>  <BalabanJ>
1.66

>  <BertzCT>
781.48

>  <nBonds>
44

>  <nBondsO>
23

>  <nBondsS>
29

>  <nBondsD>
3

>  <nBondsT>
0

>  <nBondsA>
12

>  <nBondsM>
15

>  <nBondsKS>
36

>  <nBondsKD>
8

>  <RNCG>
0.29

>  <RPCG>
0.06

>  <FCSP3>
0.2

>  <SZ>
24.67

>  <Sm>
22.93

>  <Sv>
26.45

>  <Sse>
40.99

>  <Sp>
29.04

>  <Si>
46.65

>  <MZ>
0.59

>  <Mm>
0.55

>  <Mv>
0.63

>  <Mse>
0.98

>  <Mp>
0.69

>  <Mi>
1.11

>  <NsCH3>
2

>  <NdCH2>
0

>  <NssCH2>
2

>  <NtCH>
0

>  <NdsCH>
3

>  <NaaCH>
8

>  <NsssCH>
0

>  <NddC>
0

>  <NtsC>
0

>  <NdssC>
1

>  <NaasC>
2

>  <NaaaC>
0

>  <NssssC>
0

>  <NsNH3>
0

>  <NsNH2>
0

>  <NssNH2>
0

>  <NdNH>
0

>  <NssNH>
0

>  <NaaNH>
0

>  <NtN>
0

>  <NsssNH>
0

>  <NdsN>
0

>  <NaaN>
0

>  <NsssN>
1

>  <NddsN>
0

>  <NaasN>
0

>  <NssssN>
0

>  <NsOH>
0

>  <NdO>
0

>  <NssO>
0

>  <NaaO>
0

>  <NsF>
0

>  <NsSiH3>
0

>  <NssSiH2>
0

>  <NsssSiH>
0

>  <NssssSi>
0

>  <NsPH2>
0

>  <NssPH>
0

>  <NsssP>
0

>  <NdsssP>
0

>  <NsssssP>
0

>  <NsSH>
0

>  <NdS>
0

>  <NssS>
0

>  <NaaS>
0

>  <NdssS>
0

>  <NddssS>
0

>  <NsCl>
0

>  <NsBr>
0

>  <NsI>
0

>  <fragCpx>
109.01

>  <fMF>
0.36

>  <nHBAcc>
1

>  <nHBDon>
0

>  <Kier1>
15.88

>  <Kier2>
7.51

>  <Lipinski>
1

>  <GhoseFilter>
1

>  <FilterItLogS>
-5.01

>  <VMcGowan>
235.66

>  <LabuteASA>
126.09

>  <PEOE_VSA1>
4.9

>  <PEOE_VSA2>
0

>  <PEOE_VSA3>
0

>  <PEOE_VSA4>
0

>  <PEOE_VSA5>
0

>  <PEOE_VSA6>
54.61

>  <PEOE_VSA7>
59.81

>  <PEOE_VSA8>
6.54

>  <PEOE_VSA9>
0

>  <PEOE_VSA10>
0

>  <PEOE_VSA11>
0

>  <PEOE_VSA12>
0

>  <PEOE_VSA13>
0

>  <SMR_VSA1>
0

>  <SMR_VSA2>
0

>  <SMR_VSA3>
4.9

>  <SMR_VSA4>
0

>  <SMR_VSA5>
6.42

>  <SMR_VSA6>
20.64

>  <SMR_VSA7>
76.17

>  <SMR_VSA8>
0

>  <SMR_VSA9>
0

>  <SlogP_VSA1>
10.44

>  <SlogP_VSA2>
25.54

>  <SlogP_VSA3>
0

>  <SlogP_VSA4>
0

>  <SlogP_VSA5>
17.55

>  <SlogP_VSA6>
54.61

>  <SlogP_VSA7>
0

>  <SlogP_VSA8>
17.73

>  <SlogP_VSA9>
0

>  <SlogP_VSA10>
0

>  <SlogP_VSA11>
0

>  <EState_VSA1>
0

>  <EState_VSA2>
0

>  <EState_VSA3>
0

>  <EState_VSA4>
12.97

>  <EState_VSA5>
27.14

>  <EState_VSA6>
0

>  <EState_VSA7>
0

>  <EState_VSA8>
85.75

>  <EState_VSA9>
0

>  <EState_VSA10>
0

>  <VSA_EState1>
0

>  <VSA_EState2>
2.22

>  <VSA_EState3>
2.59

>  <VSA_EState4>
3.95

>  <VSA_EState5>
0

>  <VSA_EState6>
17.24

>  <VSA_EState7>
8.02

>  <VSA_EState8>
1.07

>  <VSA_EState9>
4.23

>  <apol>
48.5

>  <bpol>
22.78

>  <nRing>
3

>  <nHRing>
0

>  <naRing>
2

>  <naHRing>
0

>  <nARing 2>
1

>  <nAHRing 2>
0

>  <nFRing>
1

>  <nFHRing>
0

>  <nFaRing>
0

>  <nFaHRing>
0

>  <nFARing 2>
1

>  <nFAHRing 2>
0

>  <nRot>
3

>  <SLogP>
2.64

>  <SMR>
91.31

>  <TopoPSA(NO)>
3.24

>  <TopoPSA>
3.24

>  <JGI1>
0.15

>  <JGI2>
0.06

>  <JGI3>
0.03

>  <JGI4>
0.04

>  <JGI5>
0.02

>  <Diameter>
10

>  <Radius>
5

>  <TMWC10>
117.29

>  <TSRW10>
62.74

>  <MW>
275.17

>  <AMW>
6.55

>  <WPath>
906

>  <WPol>
34

>  <Zagreb1>
108

>  <Zagreb2>
125

>  <mZagreb2>
4.67

>  <yes>


>  <nAR-cont>
0.816016

>  <nHA-cont>
0.994529749

>  <MWHBN>
0.060283639

>  <MWHBN-cont>
0.456022013

>  <TPSA-cont>
0.977382788

>  <pka_cont>
0.97

>  <yes.1>


>  <BBB_SCORE>
4.934344345

>  <MMFF94 Energy>
89.06

$$$$
Compound 2497
Actelion Java MolfileCreator 2.0

  0  0  0  0  0  0              0 V3000
M  V30 BEGIN CTAB
M  V30 COUNTS 40 41 0 0 0
M  V30 BEGIN ATOM
M  V30 1 N 0.1566 -2.7433 -1.3317 0
M  V30 2 C 0.0071 -1.4892 -1.8172 0
M  V30 3 C -0.4734 -3.7749 -1.9371 0
M  V30 4 N 0.6689 -0.4635 -1.1708 0
M  V30 5 C -0.8114 -1.2855 -2.9293 0
M  V30 6 C -1.2862 -3.6363 -3.0411 0
M  V30 7 C 0.8498 0.8738 -1.7236 0
M  V30 8 C 1.3625 -0.7685 0.0945 0
M  V30 9 C -1.4594 -2.36 -3.5449 0
M  V30 10 C 0.1135 1.9217 -0.9152 0
M  V30 11 C 0.3715 -0.9373 1.2717 0
M  V30 12 C -1.2847 1.897 -0.8059 0
M  V30 13 C 0.8216 2.9443 -0.2652 0
M  V30 14 N 1.0123 -0.8917 2.6095 0
M  V30 15 C -1.9574 2.867 -0.0609 0
M  V30 16 C 0.1472 3.9144 0.4787 0
M  V30 17 C 0.1013 -1.4559 3.6096 0
M  V30 18 C 1.3491 0.4857 2.982 0
M  V30 19 C -1.2415 3.8753 0.5804 0
M  V30 20 H -0.2961 -4.7473 -1.488 0
M  V30 21 H -0.985 -0.2969 -3.3348 0
M  V30 22 H -1.7708 -4.4943 -3.4904 0
M  V30 23 H 1.9238 1.1032 -1.7333 0
M  V30 24 H 0.5501 0.9657 -2.7726 0
M  V30 25 H 2.0629 0.0445 0.3143 0
M  V30 26 H 1.9944 -1.6609 -0.0041 0
M  V30 27 H -2.0955 -2.1906 -4.4085 0
M  V30 28 H -0.4308 -0.1912 1.2138 0
M  V30 29 H -0.1165 -1.9121 1.1474 0
M  V30 30 H -1.8568 1.1078 -1.2874 0
M  V30 31 H 1.9064 2.9891 -0.3295 0
M  V30 32 H -3.0405 2.8314 0.0224 0
M  V30 33 H 0.7062 4.7002 0.98 0
M  V30 34 H -0.1195 -2.5046 3.3817 0
M  V30 35 H -0.8455 -0.9065 3.6649 0
M  V30 36 H 0.5651 -1.4458 4.6023 0
M  V30 37 H 0.4691 1.1392 2.9963 0
M  V30 38 H 2.0873 0.9167 2.2995 0
M  V30 39 H 1.8075 0.51 3.9774 0
M  V30 40 H -1.7662 4.6291 1.1614 0
M  V30 END ATOM
M  V30 BEGIN BOND
M  V30 1 2 1 2
M  V30 2 1 1 3
M  V30 3 1 2 4
M  V30 4 1 2 5
M  V30 5 2 3 6
M  V30 6 1 4 7
M  V30 7 1 4 8
M  V30 8 2 5 9
M  V30 9 1 7 10
M  V30 10 1 8 11
M  V30 11 2 10 12
M  V30 12 1 10 13
M  V30 13 1 11 14
M  V30 14 1 12 15
M  V30 15 2 13 16
M  V30 16 1 14 17
M  V30 17 1 14 18
M  V30 18 2 15 19
M  V30 19 1 6 9
M  V30 20 1 16 19
M  V30 21 1 3 20
M  V30 22 1 5 21
M  V30 23 1 6 22
M  V30 24 1 7 23
M  V30 25 1 7 24
M  V30 26 1 8 25
M  V30 27 1 8 26
M  V30 28 1 9 27
M  V30 29 1 11 28
M  V30 30 1 11 29
M  V30 31 1 12 30
M  V30 32 1 13 31
M  V30 33 1 15 32
M  V30 34 1 16 33
M  V30 35 1 17 34
M  V30 36 1 17 35
M  V30 37 1 17 36
M  V30 38 1 18 37
M  V30 39 1 18 38
M  V30 40 1 18 39
M  V30 41 1 19 40
M  V30 END BOND
M  V30 END CTAB
M  END
>  <Column 1>
3089

>  <level_0>
5241

>  <index>
5242

>  <Unnamed: 0>
5242

>  <NO.>
5254

>  <Name>
tripelennamine

>  <IUPAC_name>
n'-benzyl-n-n-dimethyl-n'-pyridin-2-ylethane-1-2-diamine

>  <SMILES>
CN(C)CCN(Cc1ccccc1)c1ccccn1

>  <CID>
5587

>  <logBB>


>  <BBB+/BBB->
BBB+

>  <Inchi>
InChI=1S/C16H21N3/c1-18(2)12-13-19(16-10-6-7-11-17-16)14-15-8-4-3-5-9-15/h3-11H-12-14H2-1-2H3

>  <threshold>


>  <reference>
R14|R23|

>  <group>
C

>  <Class>
1

>  <ABC>
14.32

>  <ABCGG>
12.09

>  <nAcid>
0

>  <nBase>
1

>  <nAromAtom>
12

>  <nAromBond>
12

>  <nAtom>
40

>  <nHeavyAtom>
19

>  <nSpiro>
0

>  <nBridgehead>
0

>  <nHetero>
3

>  <nN>
3

>  <nO>
0

>  <nF>
0

>  <BalabanJ>
1.84

>  <BertzCT>
467.87

>  <nBonds>
41

>  <nBondsO>
20

>  <nBondsS>
29

>  <nBondsD>
0

>  <nBondsT>
0

>  <nBondsA>
12

>  <nBondsM>
12

>  <nBondsKS>
35

>  <nBondsKD>
6

>  <RNCG>
0.26

>  <RPCG>
0.09

>  <FCSP3>
0.31

>  <SZ>
23

>  <Sm>
21.26

>  <Sv>
23.96

>  <Sse>
39.31

>  <Sp>
26.36

>  <Si>
45.23

>  <MZ>
0.58

>  <Mm>
0.53

>  <Mv>
0.6

>  <Mse>
0.98

>  <Mp>
0.66

>  <Mi>
1.13

>  <NsCH3>
2

>  <NdCH2>
0

>  <NssCH2>
3

>  <NtCH>
0

>  <NdsCH>
0

>  <NaaCH>
9

>  <NsssCH>
0

>  <NddC>
0

>  <NtsC>
0

>  <NdssC>
0

>  <NaasC>
2

>  <NaaaC>
0

>  <NssssC>
0

>  <NsNH3>
0

>  <NsNH2>
0

>  <NssNH2>
0

>  <NdNH>
0

>  <NssNH>
0

>  <NaaNH>
0

>  <NtN>
0

>  <NsssNH>
0

>  <NdsN>
0

>  <NaaN>
1

>  <NsssN>
2

>  <NddsN>
0

>  <NaasN>
0

>  <NssssN>
0

>  <NsOH>
0

>  <NdO>
0

>  <NssO>
0

>  <NaaO>
0

>  <NsF>
0

>  <NsSiH3>
0

>  <NssSiH2>
0

>  <NsssSiH>
0

>  <NssssSi>
0

>  <NsPH2>
0

>  <NssPH>
0

>  <NsssP>
0

>  <NdsssP>
0

>  <NsssssP>
0

>  <NsSH>
0

>  <NdS>
0

>  <NssS>
0

>  <NaaS>
0

>  <NdssS>
0

>  <NddssS>
0

>  <NsCl>
0

>  <NsBr>
0

>  <NsI>
0

>  <fragCpx>
58.03

>  <fMF>
0.35

>  <nHBAcc>
3

>  <nHBDon>
0

>  <Kier1>
15.39

>  <Kier2>
8.32

>  <Lipinski>
1

>  <GhoseFilter>
1

>  <FilterItLogS>
-3.85

>  <VMcGowan>
218.72

>  <LabuteASA>
115.05

>  <PEOE_VSA1>
9.8

>  <PEOE_VSA2>
0

>  <PEOE_VSA3>
4.98

>  <PEOE_VSA4>
0

>  <PEOE_VSA5>
0

>  <PEOE_VSA6>
36.4

>  <PEOE_VSA7>
31.79

>  <PEOE_VSA8>
25.83

>  <PEOE_VSA9>
0

>  <PEOE_VSA10>
5.82

>  <PEOE_VSA11>
0

>  <PEOE_VSA12>
0

>  <PEOE_VSA13>
0

>  <SMR_VSA1>
0

>  <SMR_VSA2>
0

>  <SMR_VSA3>
9.88

>  <SMR_VSA4>
0

>  <SMR_VSA5>
6.54

>  <SMR_VSA6>
32.08

>  <SMR_VSA7>
60.29

>  <SMR_VSA8>
0

>  <SMR_VSA9>
0

>  <SlogP_VSA1>
4.9

>  <SlogP_VSA2>
37.07

>  <SlogP_VSA3>
6.54

>  <SlogP_VSA4>
0

>  <SlogP_VSA5>
5.56

>  <SlogP_VSA6>
54.73

>  <SlogP_VSA7>
0

>  <SlogP_VSA8>
0

>  <SlogP_VSA9>
0

>  <SlogP_VSA10>
5.82

>  <SlogP_VSA11>
0

>  <EState_VSA1>
0

>  <EState_VSA2>
0

>  <EState_VSA3>
0

>  <EState_VSA4>
25.45

>  <EState_VSA5>
5.56

>  <EState_VSA6>
0

>  <EState_VSA7>
18.33

>  <EState_VSA8>
65.28

>  <EState_VSA9>
0

>  <EState_VSA10>
0

>  <VSA_EState1>
0

>  <VSA_EState2>
8.97

>  <VSA_EState3>
0

>  <VSA_EState4>
1.31

>  <VSA_EState5>
1.04

>  <VSA_EState6>
16.59

>  <VSA_EState7>
1.85

>  <VSA_EState8>
2.88

>  <VSA_EState9>
4.19

>  <apol>
44.02

>  <bpol>
25.63

>  <nRing>
2

>  <nHRing>
1

>  <naRing>
2

>  <naHRing>
1

>  <nARing 2>
0

>  <nAHRing 2>
0

>  <nFRing>
0

>  <nFHRing>
0

>  <nFaRing>
0

>  <nFaHRing>
0

>  <nFARing 2>
0

>  <nFAHRing 2>
0

>  <nRot>
6

>  <SLogP>
2.65

>  <SMR>
80.28

>  <TopoPSA(NO)>
19.37

>  <TopoPSA>
19.37

>  <JGI1>
0.15

>  <JGI2>
0.05

>  <JGI3>
0.03

>  <JGI4>
0.03

>  <JGI5>
0.02

>  <Diameter>
9

>  <Radius>
5

>  <TMWC10>
108.81

>  <TSRW10>
51.36

>  <MW>
255.17

>  <AMW>
6.38

>  <WPath>
742

>  <WPol>
23

>  <Zagreb1>
90

>  <Zagreb2>
99

>  <mZagreb2>
4.36

>  <yes>


>  <nAR-cont>
0.336376

>  <nHA-cont>
0.998649058

>  <MWHBN>
0.187804696

>  <MWHBN-cont>
0.994173089

>  <TPSA-cont>
0.864785372

>  <pka_cont>
0.97

>  <yes.1>


>  <BBB_SCORE>
5.040855436

>  <MMFF94 Energy>
37.161

$$$$
Compound 2498
Actelion Java MolfileCreator 2.0

  0  0  0  0  0  0              0 V3000
M  V30 BEGIN CTAB
M  V30 COUNTS 40 42 0 0 0
M  V30 BEGIN ATOM
M  V30 1 Cl 2.6134 5.2319 0.4896 0
M  V30 2 C 1.6205 4.0631 1.2692 0
M  V30 3 C 1.5897 2.7528 0.7937 0
M  V30 4 C 0.8638 4.4278 2.3766 0
M  V30 5 C 0.7805 1.7851 1.4144 0
M  V30 6 C 0.0638 3.4739 3.0075 0
M  V30 7 C 0.0073 2.1545 2.5296 0
M  V30 8 C 0.8862 0.4026 0.9139 0
M  V30 9 S -1.0637 1.02 3.401 0
M  V30 10 C -0.1123 -0.4718 0.6788 0
M  V30 11 C -2.0705 0.4482 2.0358 0
M  V30 12 O 0.0537 -1.7597 0.203 0
M  V30 13 C -1.5489 -0.1475 0.8723 0
M  V30 14 C -3.4593 0.625 2.1677 0
M  V30 15 C 1.3582 -2.3185 0.0316 0
M  V30 16 C -2.4491 -0.5294 -0.1429 0
M  V30 17 C -4.3309 0.2406 1.1493 0
M  V30 18 C 1.9849 -1.94 -1.3253 0
M  V30 19 C -3.8249 -0.3326 -0.0099 0
M  V30 20 N 1.6023 -2.8197 -2.452 0
M  V30 21 C 2.3603 -2.4542 -3.6515 0
M  V30 22 C 0.1666 -2.7536 -2.7336 0
M  V30 23 H 2.2014 2.4849 -0.065 0
M  V30 24 H 0.89 5.4463 2.7548 0
M  V30 25 H -0.5252 3.7708 3.8733 0
M  V30 26 H 1.9152 0.1157 0.7227 0
M  V30 27 H -3.8728 1.0754 3.0678 0
M  V30 28 H 1.2536 -3.4082 0.0975 0
M  V30 29 H 2.0136 -2.0414 0.8659 0
M  V30 30 H -2.0755 -0.999 -1.0507 0
M  V30 31 H -5.4016 0.3886 1.2641 0
M  V30 32 H 1.7632 -0.8951 -1.5742 0
M  V30 33 H 3.0716 -2.0251 -1.198 0
M  V30 34 H -4.497 -0.6391 -0.8071 0
M  V30 35 H 3.437 -2.5463 -3.4705 0
M  V30 36 H 2.1507 -1.4286 -3.9768 0
M  V30 37 H 2.1248 -3.1338 -4.4782 0
M  V30 38 H -0.1697 -1.7292 -2.9298 0
M  V30 39 H -0.4178 -3.1646 -1.9048 0
M  V30 40 H -0.0825 -3.3676 -3.6069 0
M  V30 END ATOM
M  V30 BEGIN BOND
M  V30 1 1 1 2
M  V30 2 2 2 3
M  V30 3 1 2 4
M  V30 4 1 3 5
M  V30 5 2 4 6
M  V30 6 2 5 7
M  V30 7 1 5 8
M  V30 8 1 7 9
M  V30 9 2 8 10
M  V30 10 1 9 11
M  V30 11 1 10 12
M  V30 12 1 10 13
M  V30 13 1 11 14
M  V30 14 1 12 15
M  V30 15 1 13 16
M  V30 16 2 14 17
M  V30 17 1 15 18
M  V30 18 2 16 19
M  V30 19 1 18 20
M  V30 20 1 20 21
M  V30 21 1 20 22
M  V30 22 1 6 7
M  V30 23 2 11 13
M  V30 24 1 17 19
M  V30 25 1 3 23
M  V30 26 1 4 24
M  V30 27 1 6 25
M  V30 28 1 8 26
M  V30 29 1 14 27
M  V30 30 1 15 28
M  V30 31 1 15 29
M  V30 32 1 16 30
M  V30 33 1 17 31
M  V30 34 1 18 32
M  V30 35 1 18 33
M  V30 36 1 19 34
M  V30 37 1 21 35
M  V30 38 1 21 36
M  V30 39 1 21 37
M  V30 40 1 22 38
M  V30 41 1 22 39
M  V30 42 1 22 40
M  V30 END BOND
M  V30 END CTAB
M  END
>  <Column 1>
3090

>  <level_0>
5242

>  <index>
5243

>  <Unnamed: 0>
5243

>  <NO.>
5255

>  <Name>
zotepine

>  <IUPAC_name>
2-(3-chlorobenzo[b][1]benzothiepin-6-yl)oxy-n-n-dimethylethanamine

>  <SMILES>
CN(C)CCOC1=Cc2cc(Cl)ccc2Sc2ccccc21

>  <CID>
73896916

>  <logBB>


>  <BBB+/BBB->
BBB+

>  <Inchi>
InChI=1S/C18H18ClNOS/c1-20(2)9-10-21-16-12-13-11-14(19)7-8-17(13)22-18-6-4-3-5-15(16)18/h3-8-11-12H-9-10H2-1-2H3

>  <threshold>


>  <reference>
R14|

>  <group>
C

>  <Class>
1

>  <ABC>
17.18

>  <ABCGG>
13.5

>  <nAcid>
0

>  <nBase>
1

>  <nAromAtom>
12

>  <nAromBond>
12

>  <nAtom>
40

>  <nHeavyAtom>
22

>  <nSpiro>
0

>  <nBridgehead>
0

>  <nHetero>
4

>  <nN>
1

>  <nO>
1

>  <nF>
0

>  <BalabanJ>
1.67

>  <BertzCT>
711.98

>  <nBonds>
42

>  <nBondsO>
24

>  <nBondsS>
29

>  <nBondsD>
1

>  <nBondsT>
0

>  <nBondsA>
12

>  <nBondsM>
13

>  <nBondsKS>
35

>  <nBondsKD>
7

>  <RNCG>
0.36

>  <RPCG>
0.09

>  <FCSP3>
0.22

>  <SZ>
29

>  <Sm>
27.63

>  <Sv>
26.63

>  <Sse>
39.83

>  <Sp>
29.37

>  <Si>
44.31

>  <MZ>
0.73

>  <Mm>
0.69

>  <Mv>
0.67

>  <Mse>
1

>  <Mp>
0.73

>  <Mi>
1.11

>  <NsCH3>
2

>  <NdCH2>
0

>  <NssCH2>
2

>  <NtCH>
0

>  <NdsCH>
1

>  <NaaCH>
7

>  <NsssCH>
0

>  <NddC>
0

>  <NtsC>
0

>  <NdssC>
1

>  <NaasC>
5

>  <NaaaC>
0

>  <NssssC>
0

>  <NsNH3>
0

>  <NsNH2>
0

>  <NssNH2>
0

>  <NdNH>
0

>  <NssNH>
0

>  <NaaNH>
0

>  <NtN>
0

>  <NsssNH>
0

>  <NdsN>
0

>  <NaaN>
0

>  <NsssN>
1

>  <NddsN>
0

>  <NaasN>
0

>  <NssssN>
0

>  <NsOH>
0

>  <NdO>
0

>  <NssO>
1

>  <NaaO>
0

>  <NsF>
0

>  <NsSiH3>
0

>  <NssSiH2>
0

>  <NsssSiH>
0

>  <NssssSi>
0

>  <NsPH2>
0

>  <NssPH>
0

>  <NsssP>
0

>  <NdsssP>
0

>  <NsssssP>
0

>  <NsSH>
0

>  <NdS>
0

>  <NssS>
1

>  <NaaS>
0

>  <NdssS>
0

>  <NddssS>
0

>  <NsCl>
1

>  <NsBr>
0

>  <NsI>
0

>  <fragCpx>
114.04

>  <fMF>
0.38

>  <nHBAcc>
3

>  <nHBDon>
0

>  <Kier1>
16.84

>  <Kier2>
7.71

>  <Lipinski>
1

>  <GhoseFilter>
1

>  <FilterItLogS>
-5.52

>  <VMcGowan>
246.24

>  <LabuteASA>
140.28

>  <PEOE_VSA1>
9.64

>  <PEOE_VSA2>
0

>  <PEOE_VSA3>
0

>  <PEOE_VSA4>
0

>  <PEOE_VSA5>
0

>  <PEOE_VSA6>
41.56

>  <PEOE_VSA7>
50

>  <PEOE_VSA8>
26.92

>  <PEOE_VSA9>
0

>  <PEOE_VSA10>
12.37

>  <PEOE_VSA11>
0

>  <PEOE_VSA12>
0

>  <PEOE_VSA13>
0

>  <SMR_VSA1>
4.74

>  <SMR_VSA2>
0

>  <SMR_VSA3>
4.9

>  <SMR_VSA4>
0

>  <SMR_VSA5>
9.79

>  <SMR_VSA6>
27.25

>  <SMR_VSA7>
58.61

>  <SMR_VSA8>
0

>  <SMR_VSA9>
0

>  <SlogP_VSA1>
0

>  <SlogP_VSA2>
32.15

>  <SlogP_VSA3>
4.74

>  <SlogP_VSA4>
0

>  <SlogP_VSA5>
11.13

>  <SlogP_VSA6>
52.26

>  <SlogP_VSA7>
5.02

>  <SlogP_VSA8>
11.84

>  <SlogP_VSA9>
0

>  <SlogP_VSA10>
0

>  <SlogP_VSA11>
0

>  <EState_VSA1>
0

>  <EState_VSA2>
0

>  <EState_VSA3>
6.61

>  <EState_VSA4>
28.45

>  <EState_VSA5>
9.79

>  <EState_VSA6>
11.76

>  <EState_VSA7>
32.29

>  <EState_VSA8>
35.24

>  <EState_VSA9>
16.34

>  <EState_VSA10>
0

>  <VSA_EState1>
6.06

>  <VSA_EState2>
4.52

>  <VSA_EState3>
0.74

>  <VSA_EState4>
2.24

>  <VSA_EState5>
0.91

>  <VSA_EState6>
14.34

>  <VSA_EState7>
2.09

>  <VSA_EState8>
1.54

>  <VSA_EState9>
4.09

>  <apol>
49.04

>  <bpol>
24.47

>  <nRing>
3

>  <nHRing>
1

>  <naRing>
2

>  <naHRing>
0

>  <nARing 2>
1

>  <nAHRing 2>
1

>  <nFRing>
1

>  <nFHRing>
1

>  <nFaRing>
0

>  <nFaHRing>
0

>  <nFARing 2>
1

>  <nFAHRing 2>
1

>  <nRot>
4

>  <SLogP>
4.88

>  <SMR>
94.39

>  <TopoPSA(NO)>
12.47

>  <TopoPSA>
37.77

>  <JGI1>
0.19

>  <JGI2>
0.07

>  <JGI3>
0.04

>  <JGI4>
0.04

>  <JGI5>
0.02

>  <Diameter>
10

>  <Radius>
5

>  <TMWC10>
119.9

>  <TSRW10>
64.05

>  <MW>
331.08

>  <AMW>
8.28

>  <WPath>
1027

>  <WPol>
36

>  <Zagreb1>
114

>  <Zagreb2>
132

>  <mZagreb2>
4.83

>  <yes>


>  <nAR-cont>
0.816016

>  <nHA-cont>
0.983774276

>  <MWHBN>
0.16487499

>  <MWHBN-cont>
0.96529868

>  <TPSA-cont>
0.736341946

>  <pka_cont>
0.97

>  <yes.1>


>  <BBB_SCORE>
5.205422188

>  <MMFF94 Energy>
91.606

$$$$
Compound 2499
Actelion Java MolfileCreator 2.0

  0  0  0  0  0  0              0 V3000
M  V30 BEGIN CTAB
M  V30 COUNTS 48 50 0 0 0
M  V30 BEGIN ATOM
M  V30 1 S -1.6038 3.3704 1.2829 0
M  V30 2 O -1.8665 4.1213 0.0722 0
M  V30 3 O -2.1358 3.8456 2.5477 0
M  V30 4 N -2.2047 1.8016 1.0719 0
M  V30 5 C 0.1672 3.1565 1.5309 0
M  V30 6 C -1.9981 1.1347 -0.2457 0
M  V30 7 C -3.6301 1.6171 1.4586 0
M  V30 8 C 0.8655 2.5746 0.3313 0
M  V30 9 C -3.378 0.6554 -0.6789 0
M  V30 10 C -4.0888 0.4235 0.6373 0
M  V30 11 C 1.3362 1.2488 0.3727 0
M  V30 12 C 1.0817 3.3435 -0.8191 0
M  V30 13 C 1.9848 0.6917 -0.749 0
M  V30 14 C 1.7311 2.8174 -1.9408 0
M  V30 15 C 2.1657 1.4901 -1.8762 0
M  V30 16 C 2.5382 -0.5964 -1.0393 0
M  V30 17 N 2.8176 0.7243 -2.8137 0
M  V30 18 C 3.0423 -0.5339 -2.3238 0
M  V30 19 C 2.5618 -1.7869 -0.1278 0
M  V30 20 C 1.2333 -2.5644 -0.1618 0
M  V30 21 N 1.1539 -3.6508 0.8358 0
M  V30 22 C 2.0859 -4.7393 0.5345 0
M  V30 23 C -0.2136 -4.1748 0.8936 0
M  V30 24 H 0.2946 2.5321 2.4217 0
M  V30 25 H 0.5787 4.1454 1.7618 0
M  V30 26 H -1.3337 0.278 -0.0946 0
M  V30 27 H -1.5663 1.7866 -1.0077 0
M  V30 28 H -3.7195 1.4228 2.5309 0
M  V30 29 H -4.2216 2.5017 1.1955 0
M  V30 30 H -3.3312 -0.2418 -1.3021 0
M  V30 31 H -3.8875 1.4419 -1.2487 0
M  V30 32 H -5.1763 0.3797 0.5324 0
M  V30 33 H -3.7454 -0.5117 1.0952 0
M  V30 34 H 1.1889 0.6375 1.2601 0
M  V30 35 H 0.7317 4.3752 -0.8615 0
M  V30 36 H 1.8841 3.4244 -2.8273 0
M  V30 37 H 3.0872 1.05 -3.7315 0
M  V30 38 H 3.544 -1.2776 -2.9286 0
M  V30 39 H 2.7717 -1.4523 0.8959 0
M  V30 40 H 3.3936 -2.4373 -0.4227 0
M  V30 41 H 0.4241 -1.8495 0.0403 0
M  V30 42 H 1.0544 -2.9532 -1.1737 0
M  V30 43 H 3.1247 -4.4022 0.6033 0
M  V30 44 H 1.9205 -5.161 -0.4633 0
M  V30 45 H 1.983 -5.5471 1.2684 0
M  V30 46 H -0.5347 -4.5991 -0.0645 0
M  V30 47 H -0.9184 -3.3843 1.1753 0
M  V30 48 H -0.2966 -4.9523 1.6613 0
M  V30 END ATOM
M  V30 BEGIN BOND
M  V30 1 2 1 2
M  V30 2 2 1 3
M  V30 3 1 1 4
M  V30 4 1 1 5
M  V30 5 1 4 6
M  V30 6 1 4 7
M  V30 7 1 5 8
M  V30 8 1 6 9
M  V30 9 1 7 10
M  V30 10 2 8 11
M  V30 11 1 8 12
M  V30 12 1 11 13
M  V30 13 2 12 14
M  V30 14 2 13 15
M  V30 15 1 13 16
M  V30 16 1 15 17
M  V30 17 2 16 18
M  V30 18 1 16 19
M  V30 19 1 19 20
M  V30 20 1 20 21
M  V30 21 1 21 22
M  V30 22 1 21 23
M  V30 23 1 9 10
M  V30 24 1 14 15
M  V30 25 1 17 18
M  V30 26 1 5 24
M  V30 27 1 5 25
M  V30 28 1 6 26
M  V30 29 1 6 27
M  V30 30 1 7 28
M  V30 31 1 7 29
M  V30 32 1 9 30
M  V30 33 1 9 31
M  V30 34 1 10 32
M  V30 35 1 10 33
M  V30 36 1 11 34
M  V30 37 1 12 35
M  V30 38 1 14 36
M  V30 39 1 17 37
M  V30 40 1 18 38
M  V30 41 1 19 39
M  V30 42 1 19 40
M  V30 43 1 20 41
M  V30 44 1 20 42
M  V30 45 1 22 43
M  V30 46 1 22 44
M  V30 47 1 22 45
M  V30 48 1 23 46
M  V30 49 1 23 47
M  V30 50 1 23 48
M  V30 END BOND
M  V30 END CTAB
M  END
>  <Column 1>
3091

>  <level_0>
5243

>  <index>
5244

>  <Unnamed: 0>
5244

>  <NO.>
5256

>  <Name>
almotriptan

>  <IUPAC_name>
n-n-dimethyl-2-[5-(pyrrolidin-1-ylsulfonylmethyl)-1h-indol-3-yl]ethanamine

>  <SMILES>
CN(C)CCc1c[nH]c2ccc(CS(=O)(=O)N3CCCC3)cc12

>  <CID>
123606

>  <logBB>


>  <BBB+/BBB->
BBB+

>  <Inchi>
InChI=1S/C17H25N3O2S/c1-19(2)10-7-15-12-18-17-6-5-14(11-16(15)17)13-23(21-22)20-8-3-4-9-20/h5-6-11-12-18H-3-4-7-10-13H2-1-2H3

>  <threshold>


>  <reference>
R14|R26|R27|

>  <group>
C

>  <Class>
1

>  <ABC>
18.07

>  <ABCGG>
15.42

>  <nAcid>
0

>  <nBase>
1

>  <nAromAtom>
9

>  <nAromBond>
10

>  <nAtom>
48

>  <nHeavyAtom>
23

>  <nSpiro>
0

>  <nBridgehead>
0

>  <nHetero>
6

>  <nN>
3

>  <nO>
2

>  <nF>
0

>  <BalabanJ>
1.54

>  <BertzCT>
774.23

>  <nBonds>
50

>  <nBondsO>
25

>  <nBondsS>
38

>  <nBondsD>
2

>  <nBondsT>
0

>  <nBondsA>
10

>  <nBondsM>
12

>  <nBondsKS>
44

>  <nBondsKD>
6

>  <RNCG>
0.22

>  <RPCG>
0.14

>  <FCSP3>
0.53

>  <SZ>
30

>  <Sm>
27.93

>  <Sv>
28.66

>  <Sse>
47.83

>  <Sp>
31.65

>  <Si>
54.4

>  <MZ>
0.63

>  <Mm>
0.58

>  <Mv>
0.6

>  <Mse>
1

>  <Mp>
0.66

>  <Mi>
1.13

>  <NsCH3>
2

>  <NdCH2>
0

>  <NssCH2>
7

>  <NtCH>
0

>  <NdsCH>
0

>  <NaaCH>
4

>  <NsssCH>
0

>  <NddC>
0

>  <NtsC>
0

>  <NdssC>
0

>  <NaasC>
2

>  <NaaaC>
2

>  <NssssC>
0

>  <NsNH3>
0

>  <NsNH2>
0

>  <NssNH2>
0

>  <NdNH>
0

>  <NssNH>
0

>  <NaaNH>
1

>  <NtN>
0

>  <NsssNH>
0

>  <NdsN>
0

>  <NaaN>
0

>  <NsssN>
2

>  <NddsN>
0

>  <NaasN>
0

>  <NssssN>
0

>  <NsOH>
0

>  <NdO>
2

>  <NssO>
0

>  <NaaO>
0

>  <NsF>
0

>  <NsSiH3>
0

>  <NssSiH2>
0

>  <NsssSiH>
0

>  <NssssSi>
0

>  <NsPH2>
0

>  <NssPH>
0

>  <NsssP>
0

>  <NdsssP>
0

>  <NsssssP>
0

>  <NsSH>
0

>  <NdS>
0

>  <NssS>
0

>  <NaaS>
0

>  <NdssS>
0

>  <NddssS>
1

>  <NsCl>
0

>  <NsBr>
0

>  <NsI>
0

>  <fragCpx>
119.06

>  <fMF>
0.33

>  <nHBAcc>
3

>  <nHBDon>
1

>  <Kier1>
17.81

>  <Kier2>
7.49

>  <Lipinski>
1

>  <GhoseFilter>
1

>  <FilterItLogS>
-4.34

>  <VMcGowan>
258.64

>  <LabuteASA>
137.88

>  <PEOE_VSA1>
9.88

>  <PEOE_VSA2>
0

>  <PEOE_VSA3>
12.72

>  <PEOE_VSA4>
0

>  <PEOE_VSA5>
0

>  <PEOE_VSA6>
6.07

>  <PEOE_VSA7>
56.62

>  <PEOE_VSA8>
36.73

>  <PEOE_VSA9>
5.75

>  <PEOE_VSA10>
0

>  <PEOE_VSA11>
0

>  <PEOE_VSA12>
10.02

>  <PEOE_VSA13>
0

>  <SMR_VSA1>
8.42

>  <SMR_VSA2>
0

>  <SMR_VSA3>
14.19

>  <SMR_VSA4>
0

>  <SMR_VSA5>
25.02

>  <SMR_VSA6>
33.73

>  <SMR_VSA7>
35.52

>  <SMR_VSA8>
0

>  <SMR_VSA9>
0

>  <SlogP_VSA1>
0

>  <SlogP_VSA2>
56.34

>  <SlogP_VSA3>
22.2

>  <SlogP_VSA4>
0

>  <SlogP_VSA5>
23.97

>  <SlogP_VSA6>
24.4

>  <SlogP_VSA7>
0

>  <SlogP_VSA8>
10.9

>  <SlogP_VSA9>
0

>  <SlogP_VSA10>
0

>  <SlogP_VSA11>
0

>  <EState_VSA1>
10.02

>  <EState_VSA2>
5.75

>  <EState_VSA3>
13.09

>  <EState_VSA4>
42.27

>  <EState_VSA5>
5.56

>  <EState_VSA6>
4.31

>  <EState_VSA7>
24.4

>  <EState_VSA8>
23.98

>  <EState_VSA9>
0

>  <EState_VSA10>
8.42

>  <VSA_EState1>
26.6

>  <VSA_EState2>
5.43

>  <VSA_EState3>
1.14

>  <VSA_EState4>
3.19

>  <VSA_EState5>
0.1

>  <VSA_EState6>
5.94

>  <VSA_EState7>
4.94

>  <VSA_EState8>
2.31

>  <VSA_EState9>
0.93

>  <apol>
52.86

>  <bpol>
35.73

>  <nRing>
3

>  <nHRing>
2

>  <naRing>
2

>  <naHRing>
1

>  <nARing 2>
1

>  <nAHRing 2>
1

>  <nFRing>
1

>  <nFHRing>
1

>  <nFaRing>
1

>  <nFaHRing>
1

>  <nFARing 2>
0

>  <nFAHRing 2>
0

>  <nRot>
6

>  <SLogP>
2.2

>  <SMR>
93.99

>  <TopoPSA(NO)>
56.41

>  <TopoPSA>
64.79

>  <JGI1>
0.24

>  <JGI2>
0.09

>  <JGI3>
0.05

>  <JGI4>
0.04

>  <JGI5>
0.02

>  <Diameter>
12

>  <Radius>
6

>  <TMWC10>
122.77

>  <TSRW10>
73.03

>  <MW>
335.17

>  <AMW>
6.98

>  <WPath>
1257

>  <WPol>
32

>  <Zagreb1>
122

>  <Zagreb2>
142

>  <mZagreb2>
4.93

>  <yes>


>  <nAR-cont>
0.816016

>  <nHA-cont>
0.967789328

>  <MWHBN>
0.218487916

>  <MWHBN-cont>
0.995871301

>  <TPSA-cont>
0.547725568

>  <pka_cont>
0.97

>  <yes.1>


>  <BBB_SCORE>
4.858063415

>  <MMFF94 Energy>
19.068

$$$$
Compound 2500
Actelion Java MolfileCreator 2.0

  0  0  0  0  0  0              0 V3000
M  V30 BEGIN CTAB
M  V30 COUNTS 39 41 0 0 0
M  V30 BEGIN ATOM
M  V30 1 N -0.7105 -2.8445 3.0818 0
M  V30 2 N -1.4481 -1.7173 3.0115 0
M  V30 3 C -1.5357 -3.732 2.5207 0
M  V30 4 C -2.6623 -1.9664 2.4478 0
M  V30 5 C -0.9599 -0.4663 3.5641 0
M  V30 6 N -2.7456 -3.2368 2.1253 0
M  V30 7 C -0.9546 0.6432 2.5412 0
M  V30 8 C -0.0732 0.5842 1.4448 0
M  V30 9 C -1.8223 1.7353 2.6715 0
M  V30 10 C -0.0752 1.6134 0.4806 0
M  V30 11 C -1.8397 2.7698 1.7298 0
M  V30 12 C -0.9582 2.6787 0.6477 0
M  V30 13 C 0.661 1.8483 -0.7248 0
M  V30 14 N -0.764 3.534 -0.4115 0
M  V30 15 C 0.2052 3.0444 -1.2444 0
M  V30 16 C 1.7231 0.968 -1.3141 0
M  V30 17 C 1.1268 -0.215 -2.0974 0
M  V30 18 N 2.1438 -1.1609 -2.6015 0
M  V30 19 C 2.9445 -0.578 -3.6797 0
M  V30 20 C 1.4909 -2.3838 -3.0782 0
M  V30 21 H -1.2509 -4.7693 2.4003 0
M  V30 22 H -3.421 -1.211 2.2985 0
M  V30 23 H -1.6041 -0.227 4.418 0
M  V30 24 H 0.0545 -0.6256 3.9475 0
M  V30 25 H 0.608 -0.2567 1.3296 0
M  V30 26 H -2.5047 1.7979 3.5178 0
M  V30 27 H -2.5163 3.6113 1.8402 0
M  V30 28 H -1.2686 4.3983 -0.5504 0
M  V30 29 H 0.4909 3.5876 -2.1354 0
M  V30 30 H 2.3676 0.594 -0.5086 0
M  V30 31 H 2.3587 1.5784 -1.9662 0
M  V30 32 H 0.4535 -0.7556 -1.4182 0
M  V30 33 H 0.5 0.1556 -2.9201 0
M  V30 34 H 3.5332 0.2722 -3.3222 0
M  V30 35 H 2.326 -0.2448 -4.5209 0
M  V30 36 H 3.6697 -1.3082 -4.057 0
M  V30 37 H 0.7965 -2.187 -3.9032 0
M  V30 38 H 0.9359 -2.8669 -2.2662 0
M  V30 39 H 2.2363 -3.1108 -3.4196 0
M  V30 END ATOM
M  V30 BEGIN BOND
M  V30 1 1 1 2
M  V30 2 2 1 3
M  V30 3 1 2 4
M  V30 4 1 2 5
M  V30 5 1 3 6
M  V30 6 1 5 7
M  V30 7 2 7 8
M  V30 8 1 7 9
M  V30 9 1 8 10
M  V30 10 2 9 11
M  V30 11 2 10 12
M  V30 12 1 10 13
M  V30 13 1 12 14
M  V30 14 2 13 15
M  V30 15 1 13 16
M  V30 16 1 16 17
M  V30 17 1 17 18
M  V30 18 1 18 19
M  V30 19 1 18 20
M  V30 20 2 4 6
M  V30 21 1 11 12
M  V30 22 1 14 15
M  V30 23 1 3 21
M  V30 24 1 4 22
M  V30 25 1 5 23
M  V30 26 1 5 24
M  V30 27 1 8 25
M  V30 28 1 9 26
M  V30 29 1 11 27
M  V30 30 1 14 28
M  V30 31 1 15 29
M  V30 32 1 16 30
M  V30 33 1 16 31
M  V30 34 1 17 32
M  V30 35 1 17 33
M  V30 36 1 19 34
M  V30 37 1 19 35
M  V30 38 1 19 36
M  V30 39 1 20 37
M  V30 40 1 20 38
M  V30 41 1 20 39
M  V30 END BOND
M  V30 END CTAB
M  END
>  <Column 1>
3092

>  <level_0>
5244

>  <index>
5245

>  <Unnamed: 0>
5245

>  <NO.>
5257

>  <Name>
rizatriptan

>  <IUPAC_name>
n-n-dimethyl-2-[5-(1-2-4-triazol-1-ylmethyl)-1h-indol-3-yl]ethanamine

>  <SMILES>
CN(C)CCc1c[nH]c2ccc(Cn3cncn3)cc12

>  <CID>
5078

>  <logBB>


>  <BBB+/BBB->
BBB+

>  <Inchi>
InChI=1S/C15H19N5/c1-19(2)6-5-13-8-17-15-4-3-12(7-14(13)15)9-20-11-16-10-18-20/h3-4-7-8-10-11-17H-5-6-9H2-1-2H3

>  <threshold>


>  <reference>
R14|R15|R27|R34|

>  <group>
C

>  <Class>
-1

>  <ABC>
15.69

>  <ABCGG>
13.25

>  <nAcid>
0

>  <nBase>
1

>  <nAromAtom>
14

>  <nAromBond>
15

>  <nAtom>
39

>  <nHeavyAtom>
20

>  <nSpiro>
0

>  <nBridgehead>
0

>  <nHetero>
5

>  <nN>
5

>  <nO>
0

>  <nF>
0

>  <BalabanJ>
1.5

>  <BertzCT>
681.43

>  <nBonds>
41

>  <nBondsO>
22

>  <nBondsS>
26

>  <nBondsD>
0

>  <nBondsT>
0

>  <nBondsA>
15

>  <nBondsM>
15

>  <nBondsKS>
35

>  <nBondsKD>
6

>  <RNCG>
0.24

>  <RPCG>
0.11

>  <FCSP3>
0.33

>  <SZ>
24

>  <Sm>
22.43

>  <Sv>
23.94

>  <Sse>
38.75

>  <Sp>
25.88

>  <Si>
44.4

>  <MZ>
0.62

>  <Mm>
0.58

>  <Mv>
0.61

>  <Mse>
0.99

>  <Mp>
0.66

>  <Mi>
1.14

>  <NsCH3>
2

>  <NdCH2>
0

>  <NssCH2>
3

>  <NtCH>
0

>  <NdsCH>
0

>  <NaaCH>
6

>  <NsssCH>
0

>  <NddC>
0

>  <NtsC>
0

>  <NdssC>
0

>  <NaasC>
2

>  <NaaaC>
2

>  <NssssC>
0

>  <NsNH3>
0

>  <NsNH2>
0

>  <NssNH2>
0

>  <NdNH>
0

>  <NssNH>
0

>  <NaaNH>
1

>  <NtN>
0

>  <NsssNH>
0

>  <NdsN>
0

>  <NaaN>
2

>  <NsssN>
1

>  <NddsN>
0

>  <NaasN>
1

>  <NssssN>
0

>  <NsOH>
0

>  <NdO>
0

>  <NssO>
0

>  <NaaO>
0

>  <NsF>
0

>  <NsSiH3>
0

>  <NssSiH2>
0

>  <NsssSiH>
0

>  <NssssSi>
0

>  <NsPH2>
0

>  <NssPH>
0

>  <NsssP>
0

>  <NdsssP>
0

>  <NsssssP>
0

>  <NsSH>
0

>  <NdS>
0

>  <NssS>
0

>  <NaaS>
0

>  <NdssS>
0

>  <NddssS>
0

>  <NsCl>
0

>  <NsBr>
0

>  <NsI>
0

>  <fragCpx>
104.05

>  <fMF>
0.38

>  <nHBAcc>
4

>  <nHBDon>
1

>  <Kier1>
14.92

>  <Kier2>
6.84

>  <Lipinski>
1

>  <GhoseFilter>
1

>  <FilterItLogS>
-3.86

>  <VMcGowan>
213.73

>  <LabuteASA>
117.79

>  <PEOE_VSA1>
9.88

>  <PEOE_VSA2>
0

>  <PEOE_VSA3>
9.67

>  <PEOE_VSA4>
5.1

>  <PEOE_VSA5>
0

>  <PEOE_VSA6>
6.07

>  <PEOE_VSA7>
43.78

>  <PEOE_VSA8>
23.64

>  <PEOE_VSA9>
6.54

>  <PEOE_VSA10>
12.65

>  <PEOE_VSA11>
0

>  <PEOE_VSA12>
0

>  <PEOE_VSA13>
0

>  <SMR_VSA1>
0

>  <SMR_VSA2>
0

>  <SMR_VSA3>
24.65

>  <SMR_VSA4>
0

>  <SMR_VSA5>
12.97

>  <SMR_VSA6>
20.64

>  <SMR_VSA7>
48.18

>  <SMR_VSA8>
0

>  <SMR_VSA9>
0

>  <SlogP_VSA1>
0

>  <SlogP_VSA2>
45.29

>  <SlogP_VSA3>
12.97

>  <SlogP_VSA4>
0

>  <SlogP_VSA5>
11.13

>  <SlogP_VSA6>
37.05

>  <SlogP_VSA7>
0

>  <SlogP_VSA8>
10.9

>  <SlogP_VSA9>
0

>  <SlogP_VSA10>
0

>  <SlogP_VSA11>
0

>  <EState_VSA1>
0

>  <EState_VSA2>
0

>  <EState_VSA3>
0

>  <EState_VSA4>
19.51

>  <EState_VSA5>
22.03

>  <EState_VSA6>
12.65

>  <EState_VSA7>
4.68

>  <EState_VSA8>
58.46

>  <EState_VSA9>
0

>  <EState_VSA10>
0

>  <VSA_EState1>
1.84

>  <VSA_EState2>
9.53

>  <VSA_EState3>
5.46

>  <VSA_EState4>
3.81

>  <VSA_EState5>
0

>  <VSA_EState6>
6.52

>  <VSA_EState7>
6.48

>  <VSA_EState8>
1.81

>  <VSA_EState9>
4.2

>  <apol>
43.22

>  <bpol>
24.19

>  <nRing>
3

>  <nHRing>
2

>  <naRing>
3

>  <naHRing>
2

>  <nARing 2>
0

>  <nAHRing 2>
0

>  <nFRing>
1

>  <nFHRing>
1

>  <nFaRing>
1

>  <nFaHRing>
1

>  <nFARing 2>
0

>  <nFAHRing 2>
0

>  <nRot>
5

>  <SLogP>
1.91

>  <SMR>
79.68

>  <TopoPSA(NO)>
49.74

>  <TopoPSA>
49.74

>  <JGI1>
0.18

>  <JGI2>
0.06

>  <JGI3>
0.04

>  <JGI4>
0.03

>  <JGI5>
0.02

>  <Diameter>
11

>  <Radius>
6

>  <TMWC10>
114.82

>  <TSRW10>
68.96

>  <MW>
269.16

>  <AMW>
6.9

>  <WPath>
871

>  <WPol>
25

>  <Zagreb1>
104

>  <Zagreb2>
120

>  <mZagreb2>
4.39

>  <yes>


>  <nAR-cont>
0.336376

>  <nHA-cont>
0.999629945

>  <MWHBN>
0.304764758

>  <MWHBN-cont>
0.826273217

>  <TPSA-cont>
0.652783913

>  <pka_cont>
0.97

>  <yes.1>


>  <BBB_SCORE>
4.365983597

>  <MMFF94 Energy>
61.417

$$$$
Compound 2501
Actelion Java MolfileCreator 2.0

  0  0  0  0  0  0              0 V3000
M  V30 BEGIN CTAB
M  V30 COUNTS 33 33 0 0 0
M  V30 BEGIN ATOM
M  V30 1 N 0.8443 0.9211 -0.4604 0
M  V30 2 C -0.2792 0.6429 -1.1092 0
M  V30 3 C 1.132 0.1778 0.6004 0
M  V30 4 N -1.103 -0.3283 -0.7366 0
M  V30 5 N -0.6054 1.3978 -2.223 0
M  V30 6 N 0.348 -0.8057 1.023 0
M  V30 7 N 2.2977 0.4435 1.2996 0
M  V30 8 C -0.7618 -1.0357 0.3329 0
M  V30 9 C -1.918 1.2311 -2.8059 0
M  V30 10 C 0.1687 2.5881 -2.4963 0
M  V30 11 C 2.7201 -0.5019 2.3092 0
M  V30 12 C 3.2541 1.356 0.7131 0
M  V30 13 N -1.5987 -2.0583 0.746 0
M  V30 14 C -1.3447 -2.678 2.0275 0
M  V30 15 C -2.8977 -2.1776 0.1223 0
M  V30 16 H -2.1129 0.1845 -3.0663 0
M  V30 17 H -2.6981 1.5785 -2.1193 0
M  V30 18 H -2.0138 1.8065 -3.7334 0
M  V30 19 H 1.2387 2.3637 -2.5728 0
M  V30 20 H 0.0178 3.3411 -1.7147 0
M  V30 21 H -0.1245 3.0391 -3.4506 0
M  V30 22 H 1.9363 -0.6705 3.0566 0
M  V30 23 H 2.9934 -1.4616 1.8568 0
M  V30 24 H 3.5956 -0.1314 2.8538 0
M  V30 25 H 2.7974 2.3255 0.4829 0
M  V30 26 H 3.6829 0.9375 -0.2041 0
M  V30 27 H 4.0809 1.5571 1.4033 0
M  V30 28 H -0.3217 -3.066 2.0914 0
M  V30 29 H -1.5077 -1.967 2.8452 0
M  V30 30 H -2.0127 -3.5305 2.1928 0
M  V30 31 H -2.8151 -2.2586 -0.9674 0
M  V30 32 H -3.5305 -1.3176 0.3685 0
M  V30 33 H -3.4179 -3.0793 0.4638 0
M  V30 END ATOM
M  V30 BEGIN BOND
M  V30 1 2 1 2
M  V30 2 1 1 3
M  V30 3 1 2 4
M  V30 4 1 2 5
M  V30 5 2 3 6
M  V30 6 1 3 7
M  V30 7 2 4 8
M  V30 8 1 5 9
M  V30 9 1 5 10
M  V30 10 1 7 11
M  V30 11 1 7 12
M  V30 12 1 8 13
M  V30 13 1 13 14
M  V30 14 1 13 15
M  V30 15 1 6 8
M  V30 16 1 9 16
M  V30 17 1 9 17
M  V30 18 1 9 18
M  V30 19 1 10 19
M  V30 20 1 10 20
M  V30 21 1 10 21
M  V30 22 1 11 22
M  V30 23 1 11 23
M  V30 24 1 11 24
M  V30 25 1 12 25
M  V30 26 1 12 26
M  V30 27 1 12 27
M  V30 28 1 14 28
M  V30 29 1 14 29
M  V30 30 1 14 30
M  V30 31 1 15 31
M  V30 32 1 15 32
M  V30 33 1 15 33
M  V30 END BOND
M  V30 END CTAB
M  END
>  <Column 1>
3093

>  <level_0>
5245

>  <index>
5246

>  <Unnamed: 0>
5246

>  <NO.>
5258

>  <Name>
altretamine

>  <IUPAC_name>
2-n-2-n-4-n-4-n-6-n-6-n-hexamethyl-1-3-5-triazine-2-4-6-triamine

>  <SMILES>
CN(C)c1nc(N(C)C)nc(N(C)C)n1

>  <CID>
2123

>  <logBB>


>  <BBB+/BBB->
BBB-

>  <Inchi>
InChI=1S/C9H18N6/c1-13(2)7-10-8(14(3)4)12-9(11-7)15(5)6/h1-6H3

>  <threshold>


>  <reference>
R14|R15|

>  <group>
C

>  <Class>
-1

>  <ABC>
11.14

>  <ABCGG>
10.53

>  <nAcid>
0

>  <nBase>
0

>  <nAromAtom>
6

>  <nAromBond>
6

>  <nAtom>
33

>  <nHeavyAtom>
15

>  <nSpiro>
0

>  <nBridgehead>
0

>  <nHetero>
6

>  <nN>
6

>  <nO>
0

>  <nF>
0

>  <BalabanJ>
2.64

>  <BertzCT>
268.63

>  <nBonds>
33

>  <nBondsO>
15

>  <nBondsS>
27

>  <nBondsD>
0

>  <nBondsT>
0

>  <nBondsA>
6

>  <nBondsM>
6

>  <nBondsKS>
30

>  <nBondsKD>
3

>  <RNCG>
0.22

>  <RPCG>
0.15

>  <FCSP3>
0.67

>  <SZ>
19

>  <Sm>
17.51

>  <Sv>
18.42

>  <Sse>
32.97

>  <Sp>
20.14

>  <Si>
38.48

>  <MZ>
0.58

>  <Mm>
0.53

>  <Mv>
0.56

>  <Mse>
1

>  <Mp>
0.61

>  <Mi>
1.17

>  <NsCH3>
6

>  <NdCH2>
0

>  <NssCH2>
0

>  <NtCH>
0

>  <NdsCH>
0

>  <NaaCH>
0

>  <NsssCH>
0

>  <NddC>
0

>  <NtsC>
0

>  <NdssC>
0

>  <NaasC>
3

>  <NaaaC>
0

>  <NssssC>
0

>  <NsNH3>
0

>  <NsNH2>
0

>  <NssNH2>
0

>  <NdNH>
0

>  <NssNH>
0

>  <NaaNH>
0

>  <NtN>
0

>  <NsssNH>
0

>  <NdsN>
0

>  <NaaN>
3

>  <NsssN>
3

>  <NddsN>
0

>  <NaasN>
0

>  <NssssN>
0

>  <NsOH>
0

>  <NdO>
0

>  <NssO>
0

>  <NaaO>
0

>  <NsF>
0

>  <NsSiH3>
0

>  <NssSiH2>
0

>  <NsssSiH>
0

>  <NssssSi>
0

>  <NsPH2>
0

>  <NssPH>
0

>  <NsssP>
0

>  <NdsssP>
0

>  <NsssssP>
0

>  <NsSH>
0

>  <NdS>
0

>  <NssS>
0

>  <NaaS>
0

>  <NdssS>
0

>  <NddssS>
0

>  <NsCl>
0

>  <NsBr>
0

>  <NsI>
0

>  <fragCpx>
15.06

>  <fMF>
0.18

>  <nHBAcc>
6

>  <nHBDon>
0

>  <Kier1>
13.07

>  <Kier2>
5.37

>  <Lipinski>
1

>  <GhoseFilter>
1

>  <FilterItLogS>
-1.62

>  <VMcGowan>
173.79

>  <LabuteASA>
90.56

>  <PEOE_VSA1>
14.7

>  <PEOE_VSA2>
0

>  <PEOE_VSA3>
0

>  <PEOE_VSA4>
14.95

>  <PEOE_VSA5>
0

>  <PEOE_VSA6>
0

>  <PEOE_VSA7>
0

>  <PEOE_VSA8>
42.29

>  <PEOE_VSA9>
0

>  <PEOE_VSA10>
0

>  <PEOE_VSA11>
0

>  <PEOE_VSA12>
17.85

>  <PEOE_VSA13>
0

>  <SMR_VSA1>
0

>  <SMR_VSA2>
0

>  <SMR_VSA3>
14.95

>  <SMR_VSA4>
0

>  <SMR_VSA5>
0

>  <SMR_VSA6>
56.99

>  <SMR_VSA7>
0

>  <SMR_VSA8>
0

>  <SMR_VSA9>
0

>  <SlogP_VSA1>
14.7

>  <SlogP_VSA2>
57.24

>  <SlogP_VSA3>
0

>  <SlogP_VSA4>
0

>  <SlogP_VSA5>
0

>  <SlogP_VSA6>
0

>  <SlogP_VSA7>
0

>  <SlogP_VSA8>
0

>  <SlogP_VSA9>
0

>  <SlogP_VSA10>
17.85

>  <SlogP_VSA11>
0

>  <EState_VSA1>
0

>  <EState_VSA2>
0

>  <EState_VSA3>
17.85

>  <EState_VSA4>
0

>  <EState_VSA5>
0

>  <EState_VSA6>
0

>  <EState_VSA7>
56.99

>  <EState_VSA8>
14.95

>  <EState_VSA9>
0

>  <EState_VSA10>
0

>  <VSA_EState1>
0

>  <VSA_EState2>
18.54

>  <VSA_EState3>
0

>  <VSA_EState4>
0

>  <VSA_EState5>
1.99

>  <VSA_EState6>
0

>  <VSA_EState7>
0

>  <VSA_EState8>
0

>  <VSA_EState9>
11.47

>  <apol>
33.63

>  <bpol>
26.61

>  <nRing>
1

>  <nHRing>
1

>  <naRing>
1

>  <naHRing>
1

>  <nARing 2>
0

>  <nAHRing 2>
0

>  <nFRing>
0

>  <nFHRing>
0

>  <nFaRing>
0

>  <nFaHRing>
0

>  <nFARing 2>
0

>  <nFAHRing 2>
0

>  <nRot>
3

>  <SLogP>
0.07

>  <SMR>
62.81

>  <TopoPSA(NO)>
48.39

>  <TopoPSA>
48.39

>  <JGI1>
0.3

>  <JGI2>
0.1

>  <JGI3>
0.04

>  <JGI4>
0.06

>  <JGI5>
0.06

>  <Diameter>
6

>  <Radius>
4

>  <TMWC10>
98.98

>  <TSRW10>
46.66

>  <MW>
210.16

>  <AMW>
6.37

>  <WPath>
354

>  <WPol>
21

>  <Zagreb1>
72

>  <Zagreb2>
81

>  <mZagreb2>
3.33

>  <yes>


>  <nAR-cont>
0.336376

>  <nHA-cont>
0.92539861

>  <MWHBN>
0.413881696

>  <MWHBN-cont>
0.421679503

>  <TPSA-cont>
0.662207752

>  <pka_cont>
0.97

>  <yes.1>


>  <BBB_SCORE>
3.703709368

>  <MMFF94 Energy>
-240.97

$$$$
Compound 2502
Actelion Java MolfileCreator 2.0

  0  0  0  0  0  0              0 V3000
M  V30 BEGIN CTAB
M  V30 COUNTS 62 63 0 0 0
M  V30 BEGIN ATOM
M  V30 1 O -3.0516 -0.5471 -3.7568 0
M  V30 2 C -3.9274 0.2196 -3.3669 0
M  V30 3 O -4.8539 0.8104 -4.2311 0
M  V30 4 N -4.1096 0.5886 -2.0452 0
M  V30 5 C -4.84 0.4668 -5.5938 0
M  V30 6 C -3.2717 -0.0116 -1.0093 0
M  V30 7 C -5.1248 1.5378 -1.6067 0
M  V30 8 C -3.672 0.3386 -6.3411 0
M  V30 9 C -6.0754 0.3035 -6.2064 0
M  V30 10 C -2.0511 0.8514 -0.6812 0
M  V30 11 N -3.7378 0.0183 -7.6558 0 CHG=1
M  V30 12 C -6.1195 -0.024 -7.5562 0
M  V30 13 C -1.278 0.2877 0.5139 0
M  V30 14 C -4.931 -0.1701 -8.2657 0
M  V30 15 C -2.4868 -0.1496 -8.4133 0
M  V30 16 C -0.065 1.1549 0.8583 0
M  V30 17 C 0.6225 0.6767 2.1399 0
M  V30 18 C 1.8244 1.5584 2.4868 0
M  V30 19 N 2.4028 1.217 3.7847 0
M  V30 20 C 3.4707 0.3385 3.8441 0
M  V30 21 C 1.8227 1.86 4.9569 0
M  V30 22 O 3.9444 -0.2414 2.8715 0
M  V30 23 O 3.9704 0.1737 5.1394 0
M  V30 24 C 5.1057 -0.6294 5.3416 0
M  V30 25 C 5.2977 -1.8585 4.7158 0
M  V30 26 C 6.0402 -0.1656 6.258 0
M  V30 27 N 6.4123 -2.5849 4.9716 0 CHG=1
M  V30 28 C 7.1758 -0.9272 6.5057 0
M  V30 29 C 7.3474 -2.1386 5.842 0
M  V30 30 C 6.6094 -3.8623 4.2669 0
M  V30 31 H -3.8915 -0.1661 -0.1181 0
M  V30 32 H -2.9358 -1.0007 -1.342 0
M  V30 33 H -5.6495 2.0067 -2.4414 0
M  V30 34 H -5.853 1.0049 -0.988 0
M  V30 35 H -4.6487 2.3219 -1.0115 0
M  V30 36 H -2.6831 0.4838 -5.9191 0
M  V30 37 H -6.9964 0.42 -5.638 0
M  V30 38 H -2.3685 1.8765 -0.4556 0
M  V30 39 H -1.3958 0.9119 -1.5586 0
M  V30 40 H -7.0768 -0.1687 -8.0533 0
M  V30 41 H -0.948 -0.7346 0.2943 0
M  V30 42 H -1.9463 0.2322 1.382 0
M  V30 43 H -4.9265 -0.4351 -9.3194 0
M  V30 44 H -2.6971 -0.1208 -9.4851 0
M  V30 45 H -1.8114 0.6696 -8.153 0
M  V30 46 H -2.0595 -1.1153 -8.1318 0
M  V30 47 H -0.3846 2.1963 0.9876 0
M  V30 48 H 0.6476 1.1368 0.0251 0
M  V30 49 H -0.1002 0.6895 2.9645 0
M  V30 50 H 0.9494 -0.3639 2.0256 0
M  V30 51 H 1.5385 2.6167 2.51 0
M  V30 52 H 2.5888 1.4495 1.7086 0
M  V30 53 H 2.2479 1.4903 5.892 0
M  V30 54 H 2.0063 2.9363 4.8881 0
M  V30 55 H 0.7448 1.6765 4.9694 0
M  V30 56 H 4.5859 -2.2805 4.0141 0
M  V30 57 H 5.8926 0.7843 6.7686 0
M  V30 58 H 7.9269 -0.5766 7.211 0
M  V30 59 H 8.227 -2.7559 6.0031 0
M  V30 60 H 7.3803 -4.4483 4.7729 0
M  V30 61 H 5.6657 -4.4141 4.2798 0
M  V30 62 H 6.9141 -3.6293 3.2436 0
M  V30 END ATOM
M  V30 BEGIN BOND
M  V30 1 2 1 2
M  V30 2 1 2 3
M  V30 3 1 2 4
M  V30 4 1 3 5
M  V30 5 1 4 6
M  V30 6 1 4 7
M  V30 7 2 5 8
M  V30 8 1 5 9
M  V30 9 1 6 10
M  V30 10 1 8 11
M  V30 11 2 9 12
M  V30 12 1 10 13
M  V30 13 2 11 14
M  V30 14 1 11 15
M  V30 15 1 13 16
M  V30 16 1 16 17
M  V30 17 1 17 18
M  V30 18 1 18 19
M  V30 19 1 19 20
M  V30 20 1 19 21
M  V30 21 2 20 22
M  V30 22 1 20 23
M  V30 23 1 23 24
M  V30 24 2 24 25
M  V30 25 1 24 26
M  V30 26 1 25 27
M  V30 27 2 26 28
M  V30 28 2 27 29
M  V30 29 1 27 30
M  V30 30 1 12 14
M  V30 31 1 28 29
M  V30 32 1 6 31
M  V30 33 1 6 32
M  V30 34 1 7 33
M  V30 35 1 7 34
M  V30 36 1 7 35
M  V30 37 1 8 36
M  V30 38 1 9 37
M  V30 39 1 10 38
M  V30 40 1 10 39
M  V30 41 1 12 40
M  V30 42 1 13 41
M  V30 43 1 13 42
M  V30 44 1 14 43
M  V30 45 1 15 44
M  V30 46 1 15 45
M  V30 47 1 15 46
M  V30 48 1 16 47
M  V30 49 1 16 48
M  V30 50 1 17 49
M  V30 51 1 17 50
M  V30 52 1 18 51
M  V30 53 1 18 52
M  V30 54 1 21 53
M  V30 55 1 21 54
M  V30 56 1 21 55
M  V30 57 1 25 56
M  V30 58 1 26 57
M  V30 59 1 28 58
M  V30 60 1 29 59
M  V30 61 1 30 60
M  V30 62 1 30 61
M  V30 63 1 30 62
M  V30 END BOND
M  V30 END CTAB
M  END
>  <Column 1>
3094

>  <level_0>
5246

>  <index>
5247

>  <Unnamed: 0>
5247

>  <NO.>
5259

>  <Name>
distigmine

>  <IUPAC_name>
(1-methylpyridin-1-ium-3-yl) n-methyl-n-[6-[methyl-(1-methylpyridin-1-ium-3-yl)oxycarbonylamino]hexyl]carbamate

>  <SMILES>
CN(CCCCCCN(C)C(=O)Oc1ccc[n+](C)c1)C(=O)Oc1ccc[n+](C)c1

>  <CID>
3116

>  <logBB>


>  <BBB+/BBB->
BBB-

>  <Inchi>
InChI=1S/C22H32N4O4/c1-23-13-9-11-19(17-23)29-21(27)25(3)15-7-5-6-8-16-26(4)22(28)30-20-12-10-14-24(2)18-20/h9-14-17-18H-5-8-15-16H2-1-4H3/q+2

>  <threshold>


>  <reference>
R14|

>  <group>
C

>  <Class>
-1

>  <ABC>
22.5

>  <ABCGG>
17.27

>  <nAcid>
0

>  <nBase>
2

>  <nAromAtom>
12

>  <nAromBond>
12

>  <nAtom>
62

>  <nHeavyAtom>
30

>  <nSpiro>
0

>  <nBridgehead>
0

>  <nHetero>
8

>  <nN>
4

>  <nO>
4

>  <nF>
0

>  <BalabanJ>
1.49

>  <BertzCT>
773.89

>  <nBonds>
63

>  <nBondsO>
31

>  <nBondsS>
49

>  <nBondsD>
2

>  <nBondsT>
0

>  <nBondsA>
12

>  <nBondsM>
14

>  <nBondsKS>
55

>  <nBondsKD>
8

>  <RNCG>
0.16

>  <RPCG>
0.09

>  <FCSP3>
0.45

>  <SZ>
37.33

>  <Sm>
34.68

>  <Sv>
36.56

>  <Sse>
62.18

>  <Sp>
39.33

>  <Si>
70.65

>  <MZ>
0.6

>  <Mm>
0.56

>  <Mv>
0.59

>  <Mse>
1

>  <Mp>
0.63

>  <Mi>
1.14

>  <NsCH3>
4

>  <NdCH2>
0

>  <NssCH2>
6

>  <NtCH>
0

>  <NdsCH>
0

>  <NaaCH>
8

>  <NsssCH>
0

>  <NddC>
0

>  <NtsC>
0

>  <NdssC>
2

>  <NaasC>
2

>  <NaaaC>
0

>  <NssssC>
0

>  <NsNH3>
0

>  <NsNH2>
0

>  <NssNH2>
0

>  <NdNH>
0

>  <NssNH>
0

>  <NaaNH>
0

>  <NtN>
0

>  <NsssNH>
0

>  <NdsN>
0

>  <NaaN>
0

>  <NsssN>
2

>  <NddsN>
0

>  <NaasN>
2

>  <NssssN>
0

>  <NsOH>
0

>  <NdO>
2

>  <NssO>
2

>  <NaaO>
0

>  <NsF>
0

>  <NsSiH3>
0

>  <NssSiH2>
0

>  <NsssSiH>
0

>  <NssssSi>
0

>  <NsPH2>
0

>  <NssPH>
0

>  <NsssP>
0

>  <NdsssP>
0

>  <NsssssP>
0

>  <NsSH>
0

>  <NdS>
0

>  <NssS>
0

>  <NaaS>
0

>  <NdssS>
0

>  <NddssS>
0

>  <NsCl>
0

>  <NsBr>
0

>  <NsI>
0

>  <fragCpx>
91.08

>  <fMF>
0.39

>  <nHBAcc>
4

>  <nHBDon>
0

>  <Kier1>
26.25

>  <Kier2>
14.21

>  <Lipinski>
1

>  <GhoseFilter>
1

>  <FilterItLogS>
-3.25

>  <VMcGowan>
332.42

>  <LabuteASA>
177.8

>  <PEOE_VSA1>
19.27

>  <PEOE_VSA2>
0

>  <PEOE_VSA3>
18.72

>  <PEOE_VSA4>
0

>  <PEOE_VSA5>
0

>  <PEOE_VSA6>
12.84

>  <PEOE_VSA7>
24.97

>  <PEOE_VSA8>
39.32

>  <PEOE_VSA9>
0

>  <PEOE_VSA10>
14.1

>  <PEOE_VSA11>
23.89

>  <PEOE_VSA12>
12.39

>  <PEOE_VSA13>
0

>  <SMR_VSA1>
28.2

>  <SMR_VSA2>
0

>  <SMR_VSA3>
9.8

>  <SMR_VSA4>
14.1

>  <SMR_VSA5>
25.68

>  <SMR_VSA6>
27.18

>  <SMR_VSA7>
49.05

>  <SMR_VSA8>
0

>  <SMR_VSA9>
11.5

>  <SlogP_VSA1>
18.61

>  <SlogP_VSA2>
49.17

>  <SlogP_VSA3>
14.1

>  <SlogP_VSA4>
0

>  <SlogP_VSA5>
25.68

>  <SlogP_VSA6>
49.05

>  <SlogP_VSA7>
0

>  <SlogP_VSA8>
0

>  <SlogP_VSA9>
0

>  <SlogP_VSA10>
9.59

>  <SlogP_VSA11>
11.5

>  <EState_VSA1>
0

>  <EState_VSA2>
12.19

>  <EState_VSA3>
24.59

>  <EState_VSA4>
25.68

>  <EState_VSA5>
0

>  <EState_VSA6>
48.42

>  <EState_VSA7>
47.76

>  <EState_VSA8>
0

>  <EState_VSA9>
9.47

>  <EState_VSA10>
9.59

>  <VSA_EState1>
14.37

>  <VSA_EState2>
27.39

>  <VSA_EState3>
0

>  <VSA_EState4>
0

>  <VSA_EState5>
1.05

>  <VSA_EState6>
7.17

>  <VSA_EState7>
10.22

>  <VSA_EState8>
1.25

>  <VSA_EState9>
7.22

>  <apol>
65.69

>  <bpol>
44.15

>  <nRing>
2

>  <nHRing>
2

>  <naRing>
2

>  <naHRing>
2

>  <nARing 2>
0

>  <nAHRing 2>
0

>  <nFRing>
0

>  <nFHRing>
0

>  <nFaRing>
0

>  <nFaHRing>
0

>  <nFARing 2>
0

>  <nFAHRing 2>
0

>  <nRot>
9

>  <SLogP>
2.46

>  <SMR>
111.01

>  <TopoPSA(NO)>
66.84

>  <TopoPSA>
66.84

>  <JGI1>
0.21

>  <JGI2>
0.07

>  <JGI3>
0.05

>  <JGI4>
0.04

>  <JGI5>
0.02

>  <Diameter>
19

>  <Radius>
10

>  <TMWC10>
134.67

>  <TSRW10>
64.62

>  <MW>
416.24

>  <AMW>
6.71

>  <WPath>
3373

>  <WPol>
39

>  <Zagreb1>
142

>  <Zagreb2>
156

>  <mZagreb2>
6.81

>  <yes>


>  <nAR-cont>
0.336376

>  <nHA-cont>
0.74523694

>  <MWHBN>
0.196059588

>  <MWHBN-cont>
0.998573874

>  <TPSA-cont>
0.533415295

>  <pka_cont>
0.97

>  <yes.1>


>  <BBB_SCORE>
4.13130434

>  <MMFF94 Energy>
53.944

$$$$
Compound 2503
Actelion Java MolfileCreator 2.0

  0  0  0  0  0  0              0 V3000
M  V30 BEGIN CTAB
M  V30 COUNTS 44 46 0 0 0
M  V30 BEGIN ATOM
M  V30 1 S -3.7073 -0.4829 -3.2231 0
M  V30 2 C -5.1528 -0.985 -4.0554 0
M  V30 3 C -4.1999 -1.2845 -1.6544 0 CFG=2
M  V30 4 O -5.392 -0.7292 -5.2226 0
M  V30 5 N -5.9609 -1.6787 -3.2224 0
M  V30 6 C -5.5674 -1.8724 -1.9338 0
M  V30 7 C -4.2739 -0.3096 -0.4767 0
M  V30 8 O -6.2558 -2.4622 -1.1105 0
M  V30 9 C -2.9173 0.1072 0.04 0
M  V30 10 C -2.3507 1.3308 -0.337 0
M  V30 11 C -2.1972 -0.7352 0.895 0
M  V30 12 C -1.0851 1.706 0.1283 0
M  V30 13 C -0.9359 -0.3562 1.3596 0
M  V30 14 C -0.3708 0.8612 0.9763 0
M  V30 15 O 0.8641 1.1092 1.5058 0
M  V30 16 C 1.5775 2.2384 0.9951 0
M  V30 17 C 2.9872 2.2804 1.6071 0
M  V30 18 N 3.9331 1.4128 0.9004 0
M  V30 19 C 4.0119 0.0418 1.0862 0
M  V30 20 C 4.6061 1.9438 -0.2779 0
M  V30 21 N 4.7202 -0.6791 0.1833 0
M  V30 22 C 3.417 -0.6103 2.1669 0
M  V30 23 C 4.8233 -2.0183 0.3392 0
M  V30 24 C 3.5329 -1.9948 2.3146 0
M  V30 25 C 4.251 -2.7187 1.3799 0
M  V30 26 H -3.5123 -2.1144 -1.4579 0
M  V30 27 H -6.8465 -2.0281 -3.5519 0
M  V30 28 H -4.8685 0.5769 -0.7366 0
M  V30 29 H -4.8187 -0.7719 0.3581 0
M  V30 30 H -2.8866 2.0046 -1.0027 0
M  V30 31 H -2.6094 -1.6913 1.2099 0
M  V30 32 H -0.6897 2.6645 -0.1902 0
M  V30 33 H -0.3837 -1.0192 2.0213 0
M  V30 34 H 1.0487 3.1501 1.2988 0
M  V30 35 H 1.641 2.1954 -0.0989 0
M  V30 36 H 3.3529 3.3129 1.54 0
M  V30 37 H 2.9596 2.0514 2.678 0
M  V30 38 H 4.1354 1.5768 -1.1972 0
M  V30 39 H 5.6696 1.678 -0.2844 0
M  V30 40 H 4.5587 3.0383 -0.304 0
M  V30 41 H 2.8519 -0.0663 2.9134 0
M  V30 42 H 5.4018 -2.5256 -0.4267 0
M  V30 43 H 3.0625 -2.493 3.1568 0
M  V30 44 H 4.3633 -3.7929 1.4599 0
M  V30 END ATOM
M  V30 BEGIN BOND
M  V30 1 1 1 2
M  V30 2 1 1 3
M  V30 3 2 2 4
M  V30 4 1 2 5
M  V30 5 1 3 6
M  V30 6 1 3 7
M  V30 7 2 6 8
M  V30 8 1 7 9
M  V30 9 2 9 10
M  V30 10 1 9 11
M  V30 11 1 10 12
M  V30 12 2 11 13
M  V30 13 2 12 14
M  V30 14 1 14 15
M  V30 15 1 15 16
M  V30 16 1 16 17
M  V30 17 1 17 18
M  V30 18 1 18 19
M  V30 19 1 18 20
M  V30 20 2 19 21
M  V30 21 1 19 22
M  V30 22 1 21 23
M  V30 23 2 22 24
M  V30 24 2 23 25
M  V30 25 1 5 6
M  V30 26 1 13 14
M  V30 27 1 24 25
M  V30 28 1 3 26
M  V30 29 1 5 27
M  V30 30 1 7 28
M  V30 31 1 7 29
M  V30 32 1 10 30
M  V30 33 1 11 31
M  V30 34 1 12 32
M  V30 35 1 13 33
M  V30 36 1 16 34
M  V30 37 1 16 35
M  V30 38 1 17 36
M  V30 39 1 17 37
M  V30 40 1 20 38
M  V30 41 1 20 39
M  V30 42 1 20 40
M  V30 43 1 22 41
M  V30 44 1 23 42
M  V30 45 1 24 43
M  V30 46 1 25 44
M  V30 END BOND
M  V30 BEGIN COLLECTION
M  V30 MDLV30/STERAC1 ATOMS=(1 3)
M  V30 END COLLECTION
M  V30 END CTAB
M  END
>  <Column 1>
3095

>  <level_0>
5247

>  <index>
5248

>  <Unnamed: 0>
5248

>  <NO.>
5260

>  <Name>
rosiglitazone

>  <IUPAC_name>
5-[[4-[2-[methyl(pyridin-2-yl)amino]ethoxy]phenyl]methyl]-1-3-thiazolidine-2-4-dione

>  <SMILES>
CN(CCOc1ccc(CC2SC(=O)NC2=O)cc1)c1ccccn1

>  <CID>
77999

>  <logBB>


>  <BBB+/BBB->
BBB-

>  <Inchi>
InChI=1S/C18H19N3O3S/c1-21(16-4-2-3-9-19-16)10-11-24-14-7-5-13(6-8-14)12-15-17(22)20-18(23)25-15/h2-9-15H-10-12H2-1H3-(H-20-22-23)

>  <threshold>


>  <reference>
R14|R15|

>  <group>
C

>  <Class>
1

>  <ABC>
19.34

>  <ABCGG>
14.71

>  <nAcid>
0

>  <nBase>
0

>  <nAromAtom>
12

>  <nAromBond>
12

>  <nAtom>
44

>  <nHeavyAtom>
25

>  <nSpiro>
0

>  <nBridgehead>
0

>  <nHetero>
7

>  <nN>
3

>  <nO>
3

>  <nF>
0

>  <BalabanJ>
1.27

>  <BertzCT>
736.99

>  <nBonds>
46

>  <nBondsO>
27

>  <nBondsS>
32

>  <nBondsD>
2

>  <nBondsT>
0

>  <nBondsA>
12

>  <nBondsM>
14

>  <nBondsKS>
38

>  <nBondsKD>
8

>  <RNCG>
0.22

>  <RPCG>
0.13

>  <FCSP3>
0.28

>  <SZ>
31.33

>  <Sm>
29.76

>  <Sv>
28.75

>  <Sse>
44.49

>  <Sp>
30.74

>  <Si>
49.37

>  <MZ>
0.71

>  <Mm>
0.68

>  <Mv>
0.65

>  <Mse>
1.01

>  <Mp>
0.7

>  <Mi>
1.12

>  <NsCH3>
1

>  <NdCH2>
0

>  <NssCH2>
3

>  <NtCH>
0

>  <NdsCH>
0

>  <NaaCH>
8

>  <NsssCH>
1

>  <NddC>
0

>  <NtsC>
0

>  <NdssC>
2

>  <NaasC>
3

>  <NaaaC>
0

>  <NssssC>
0

>  <NsNH3>
0

>  <NsNH2>
0

>  <NssNH2>
0

>  <NdNH>
0

>  <NssNH>
1

>  <NaaNH>
0

>  <NtN>
0

>  <NsssNH>
0

>  <NdsN>
0

>  <NaaN>
1

>  <NsssN>
1

>  <NddsN>
0

>  <NaasN>
0

>  <NssssN>
0

>  <NsOH>
0

>  <NdO>
2

>  <NssO>
1

>  <NaaO>
0

>  <NsF>
0

>  <NsSiH3>
0

>  <NssSiH2>
0

>  <NsssSiH>
0

>  <NssssSi>
0

>  <NsPH2>
0

>  <NssPH>
0

>  <NsssP>
0

>  <NdsssP>
0

>  <NsssssP>
0

>  <NsSH>
0

>  <NdS>
0

>  <NssS>
1

>  <NaaS>
0

>  <NdssS>
0

>  <NddssS>
0

>  <NsCl>
0

>  <NsBr>
0

>  <NsI>
0

>  <fragCpx>
129.07

>  <fMF>
0.5

>  <nHBAcc>
6

>  <nHBDon>
1

>  <Kier1>
19.75

>  <Kier2>
9.8

>  <Lipinski>
1

>  <GhoseFilter>
1

>  <FilterItLogS>
-4.5

>  <VMcGowan>
261.4

>  <LabuteASA>
150.13

>  <PEOE_VSA1>
9.64

>  <PEOE_VSA2>
14.91

>  <PEOE_VSA3>
4.98

>  <PEOE_VSA4>
0

>  <PEOE_VSA5>
0

>  <PEOE_VSA6>
29.96

>  <PEOE_VSA7>
36.25

>  <PEOE_VSA8>
13.24

>  <PEOE_VSA9>
11.79

>  <PEOE_VSA10>
18.17

>  <PEOE_VSA11>
0

>  <PEOE_VSA12>
5.91

>  <PEOE_VSA13>
5.24

>  <SMR_VSA1>
14.33

>  <SMR_VSA2>
0

>  <SMR_VSA3>
10.3

>  <SMR_VSA4>
0

>  <SMR_VSA5>
11.67

>  <SMR_VSA6>
25.1

>  <SMR_VSA7>
54.22

>  <SMR_VSA8>
0

>  <SMR_VSA9>
5.75

>  <SlogP_VSA1>
14.95

>  <SlogP_VSA2>
41.58

>  <SlogP_VSA3>
11.22

>  <SlogP_VSA4>
0

>  <SlogP_VSA5>
5.56

>  <SlogP_VSA6>
48.66

>  <SlogP_VSA7>
0

>  <SlogP_VSA8>
0

>  <SlogP_VSA9>
0

>  <SlogP_VSA10>
10.61

>  <SlogP_VSA11>
5.75

>  <EState_VSA1>
0

>  <EState_VSA2>
16.4

>  <EState_VSA3>
13.03

>  <EState_VSA4>
35.44

>  <EState_VSA5>
0

>  <EState_VSA6>
6.2

>  <EState_VSA7>
54.41

>  <EState_VSA8>
10.3

>  <EState_VSA9>
4.74

>  <EState_VSA10>
9.59

>  <VSA_EState1>
5.75

>  <VSA_EState2>
29.09

>  <VSA_EState3>
1.69

>  <VSA_EState4>
1

>  <VSA_EState5>
1.47

>  <VSA_EState6>
13.42

>  <VSA_EState7>
2.3

>  <VSA_EState8>
1.27

>  <VSA_EState9>
1.97

>  <apol>
51.34

>  <bpol>
28.41

>  <nRing>
3

>  <nHRing>
2

>  <naRing>
2

>  <naHRing>
1

>  <nARing 2>
1

>  <nAHRing 2>
1

>  <nFRing>
0

>  <nFHRing>
0

>  <nFaRing>
0

>  <nFaHRing>
0

>  <nFARing 2>
0

>  <nFAHRing 2>
0

>  <nRot>
7

>  <SLogP>
2.49

>  <SMR>
98.07

>  <TopoPSA(NO)>
71.53

>  <TopoPSA>
96.83

>  <JGI1>
0.19

>  <JGI2>
0.07

>  <JGI3>
0.05

>  <JGI4>
0.03

>  <JGI5>
0.02

>  <Diameter>
16

>  <Radius>
8

>  <TMWC10>
125.59

>  <TSRW10>
73.1

>  <MW>
357.11

>  <AMW>
8.12

>  <WPath>
1883

>  <WPol>
33

>  <Zagreb1>
126

>  <Zagreb2>
143

>  <mZagreb2>
5.56

>  <yes>


>  <nAR-cont>
0.816016

>  <nHA-cont>
0.921834225

>  <MWHBN>
0.370422223

>  <MWHBN-cont>
0.592224675

>  <TPSA-cont>
0.324066472

>  <pka_cont>
0.97

>  <yes.1>


>  <BBB_SCORE>
3.759320182

>  <MMFF94 Energy>
-32.504

$$$$
Compound 2504
Actelion Java MolfileCreator 2.0

  0  0  0  0  0  0              0 V3000
M  V30 BEGIN CTAB
M  V30 COUNTS 39 41 0 0 0
M  V30 BEGIN ATOM
M  V30 1 Cl -1.3701 -2.7417 3.4684 0
M  V30 2 C -1.2664 -2.3666 1.7927 0
M  V30 3 C -0.799 -1.1158 1.3915 0
M  V30 4 C -1.6541 -3.3125 0.849 0
M  V30 5 C -0.6931 -0.7974 0.0249 0
M  V30 6 C -1.5886 -3.0021 -0.5098 0
M  V30 7 C -1.1232 -1.7479 -0.9278 0
M  V30 8 C -0.1859 0.5583 -0.4605 0 CFG=1
M  V30 9 N -1.1237 -1.4233 -2.3115 0
M  V30 10 N -1.3103 1.4073 -0.8786 0
M  V30 11 C 0.7711 1.2612 0.5123 0
M  V30 12 C -1.6203 -0.2093 -2.8051 0
M  V30 13 C -0.5615 -2.3868 -3.2449 0
M  V30 14 C -2.2704 0.7351 -1.7813 0
M  V30 15 C 0.5014 2.3978 1.1904 0
M  V30 16 C 2.1373 0.604 0.6352 0
M  V30 17 O -1.5847 0.084 -4.0022 0
M  V30 18 C 1.476 3.103 2.0898 0
M  V30 19 C 2.9618 1.0977 1.8257 0
M  V30 20 C 2.9133 2.615 1.9307 0
M  V30 21 H -0.512 -0.3912 2.1503 0
M  V30 22 H -2.0232 -4.2852 1.1635 0
M  V30 23 H -1.9308 -3.7388 -1.2319 0
M  V30 24 H 0.4404 0.3922 -1.3489 0
M  V30 25 H -1.8258 1.6927 -0.0497 0
M  V30 26 H -0.2075 -1.8916 -4.1538 0
M  V30 27 H -1.3398 -3.1036 -3.5239 0
M  V30 28 H 0.2837 -2.9103 -2.7871 0
M  V30 29 H -2.817 1.508 -2.3331 0
M  V30 30 H -3.0214 0.1798 -1.2063 0
M  V30 31 H -0.465 2.8848 1.0985 0
M  V30 32 H 2.692 0.7957 -0.292 0
M  V30 33 H 2.036 -0.4832 0.7238 0
M  V30 34 H 1.1494 2.9613 3.127 0
M  V30 35 H 1.4417 4.1798 1.8884 0
M  V30 36 H 3.999 0.7607 1.7199 0
M  V30 37 H 2.5745 0.6533 2.7515 0
M  V30 38 H 3.5162 2.9557 2.7799 0
M  V30 39 H 3.3551 3.0572 1.0288 0
M  V30 END ATOM
M  V30 BEGIN BOND
M  V30 1 1 1 2
M  V30 2 2 2 3
M  V30 3 1 2 4
M  V30 4 1 3 5
M  V30 5 2 4 6
M  V30 6 2 5 7
M  V30 7 1 5 8
M  V30 8 1 7 9
M  V30 9 1 8 10
M  V30 10 1 8 11
M  V30 11 1 9 12
M  V30 12 1 9 13
M  V30 13 1 10 14
M  V30 14 2 11 15
M  V30 15 1 11 16
M  V30 16 2 12 17
M  V30 17 1 15 18
M  V30 18 1 16 19
M  V30 19 1 18 20
M  V30 20 1 6 7
M  V30 21 1 12 14
M  V30 22 1 19 20
M  V30 23 1 3 21
M  V30 24 1 4 22
M  V30 25 1 6 23
M  V30 26 1 8 24
M  V30 27 1 10 25
M  V30 28 1 13 26
M  V30 29 1 13 27
M  V30 30 1 13 28
M  V30 31 1 14 29
M  V30 32 1 14 30
M  V30 33 1 15 31
M  V30 34 1 16 32
M  V30 35 1 16 33
M  V30 36 1 18 34
M  V30 37 1 18 35
M  V30 38 1 19 36
M  V30 39 1 19 37
M  V30 40 1 20 38
M  V30 41 1 20 39
M  V30 END BOND
M  V30 BEGIN COLLECTION
M  V30 MDLV30/STERAC1 ATOMS=(1 8)
M  V30 END COLLECTION
M  V30 END CTAB
M  END
>  <Column 1>
3097

>  <level_0>
5249

>  <index>
5250

>  <Unnamed: 0>
5250

>  <NO.>
5262

>  <Name>
tetrazepam

>  <IUPAC_name>
7-chloro-5-(cyclohexen-1-yl)-1-methyl-4-5-dihydro-3h-1-4-benzodiazepin-2-one

>  <SMILES>
CN1C(=O)CNC(C2=CCCCC2)c2cc(Cl)ccc21

>  <CID>
15818028

>  <logBB>


>  <BBB+/BBB->
BBB+

>  <Inchi>
InChI=1S/C16H19ClN2O/c1-19-14-8-7-12(17)9-13(14)16(18-10-15(19)20)11-5-3-2-4-6-11/h5-7-9-16-18H-2-4-6-10H2-1H3

>  <threshold>


>  <reference>
R14|

>  <group>
C

>  <Class>
-1

>  <ABC>
15.68

>  <ABCGG>
12.96

>  <nAcid>
0

>  <nBase>
1

>  <nAromAtom>
6

>  <nAromBond>
6

>  <nAtom>
39

>  <nHeavyAtom>
20

>  <nSpiro>
0

>  <nBridgehead>
0

>  <nHetero>
4

>  <nN>
2

>  <nO>
1

>  <nF>
0

>  <BalabanJ>
1.79

>  <BertzCT>
567.6

>  <nBonds>
41

>  <nBondsO>
22

>  <nBondsS>
33

>  <nBondsD>
2

>  <nBondsT>
0

>  <nBondsA>
6

>  <nBondsM>
8

>  <nBondsKS>
36

>  <nBondsKD>
5

>  <RNCG>
0.23

>  <RPCG>
0.17

>  <FCSP3>
0.44

>  <SZ>
25.67

>  <Sm>
24.21

>  <Sv>
24.47

>  <Sse>
38.86

>  <Sp>
26.69

>  <Si>
43.89

>  <MZ>
0.66

>  <Mm>
0.62

>  <Mv>
0.63

>  <Mse>
1

>  <Mp>
0.68

>  <Mi>
1.13

>  <NsCH3>
1

>  <NdCH2>
0

>  <NssCH2>
5

>  <NtCH>
0

>  <NdsCH>
1

>  <NaaCH>
3

>  <NsssCH>
1

>  <NddC>
0

>  <NtsC>
0

>  <NdssC>
2

>  <NaasC>
3

>  <NaaaC>
0

>  <NssssC>
0

>  <NsNH3>
0

>  <NsNH2>
0

>  <NssNH2>
0

>  <NdNH>
0

>  <NssNH>
1

>  <NaaNH>
0

>  <NtN>
0

>  <NsssNH>
0

>  <NdsN>
0

>  <NaaN>
0

>  <NsssN>
1

>  <NddsN>
0

>  <NaasN>
0

>  <NssssN>
0

>  <NsOH>
0

>  <NdO>
1

>  <NssO>
0

>  <NaaO>
0

>  <NsF>
0

>  <NsSiH3>
0

>  <NssSiH2>
0

>  <NsssSiH>
0

>  <NssssSi>
0

>  <NsPH2>
0

>  <NssPH>
0

>  <NsssP>
0

>  <NdsssP>
0

>  <NsssssP>
0

>  <NsSH>
0

>  <NdS>
0

>  <NssS>
0

>  <NaaS>
0

>  <NdssS>
0

>  <NddssS>
0

>  <NsCl>
1

>  <NsBr>
0

>  <NsI>
0

>  <fragCpx>
104.04

>  <fMF>
0.44

>  <nHBAcc>
2

>  <nHBDon>
1

>  <Kier1>
14.92

>  <Kier2>
6.41

>  <Lipinski>
1

>  <GhoseFilter>
1

>  <FilterItLogS>
-4.23

>  <VMcGowan>
220.29

>  <LabuteASA>
124.15

>  <PEOE_VSA1>
4.9

>  <PEOE_VSA2>
10.11

>  <PEOE_VSA3>
0

>  <PEOE_VSA4>
0

>  <PEOE_VSA5>
0

>  <PEOE_VSA6>
23.25

>  <PEOE_VSA7>
49.45

>  <PEOE_VSA8>
17.76

>  <PEOE_VSA9>
12.59

>  <PEOE_VSA10>
0

>  <PEOE_VSA11>
0

>  <PEOE_VSA12>
5.91

>  <PEOE_VSA13>
0

>  <SMR_VSA1>
4.79

>  <SMR_VSA2>
0

>  <SMR_VSA3>
5.32

>  <SMR_VSA4>
0

>  <SMR_VSA5>
31.73

>  <SMR_VSA6>
18.49

>  <SMR_VSA7>
40.43

>  <SMR_VSA8>
0

>  <SMR_VSA9>
0

>  <SlogP_VSA1>
10.22

>  <SlogP_VSA2>
19.5

>  <SlogP_VSA3>
4.79

>  <SlogP_VSA4>
0

>  <SlogP_VSA5>
37.29

>  <SlogP_VSA6>
29.85

>  <SlogP_VSA7>
5.02

>  <SlogP_VSA8>
0

>  <SlogP_VSA9>
0

>  <SlogP_VSA10>
5.69

>  <SlogP_VSA11>
0

>  <EState_VSA1>
0

>  <EState_VSA2>
11.95

>  <EState_VSA3>
6.54

>  <EState_VSA4>
29.12

>  <EState_VSA5>
18.41

>  <EState_VSA6>
4.9

>  <EState_VSA7>
25.25

>  <EState_VSA8>
11.39

>  <EState_VSA9>
11.6

>  <EState_VSA10>
4.79

>  <VSA_EState1>
0

>  <VSA_EState2>
13.83

>  <VSA_EState3>
4.11

>  <VSA_EState4>
3.46

>  <VSA_EState5>
0.09

>  <VSA_EState6>
5.89

>  <VSA_EState7>
7.04

>  <VSA_EState8>
0.37

>  <VSA_EState9>
1.83

>  <apol>
44.57

>  <bpol>
22.72

>  <nRing>
3

>  <nHRing>
1

>  <naRing>
1

>  <naHRing>
0

>  <nARing 2>
2

>  <nAHRing 2>
1

>  <nFRing>
1

>  <nFHRing>
1

>  <nFaRing>
0

>  <nFaHRing>
0

>  <nFARing 2>
1

>  <nFAHRing 2>
1

>  <nRot>
1

>  <SLogP>
3.45

>  <SMR>
82.16

>  <TopoPSA(NO)>
32.34

>  <TopoPSA>
32.34

>  <JGI1>
0.16

>  <JGI2>
0.09

>  <JGI3>
0.05

>  <JGI4>
0.04

>  <JGI5>
0.03

>  <Diameter>
8

>  <Radius>
4

>  <TMWC10>
115.85

>  <TSRW10>
61.88

>  <MW>
290.12

>  <AMW>
7.44

>  <WPath>
726

>  <WPol>
36

>  <Zagreb1>
106

>  <Zagreb2>
126

>  <mZagreb2>
4.39

>  <yes>


>  <nAR-cont>
1

>  <nHA-cont>
0.999629945

>  <MWHBN>
0.176129629

>  <MWHBN-cont>
0.982627725

>  <TPSA-cont>
0.774246718

>  <pka_cont>
0.97

>  <yes.1>


>  <BBB_SCORE>
5.507064969

>  <MMFF94 Energy>
50.049

$$$$
Compound 2505
Actelion Java MolfileCreator 2.0

  0  0  0  0  0  0              0 V3000
M  V30 BEGIN CTAB
M  V30 COUNTS 50 52 0 0 0
M  V30 BEGIN ATOM
M  V30 1 S -1.6175 -1.3747 3.399 0
M  V30 2 O -1.4051 -1.8547 4.7504 0
M  V30 3 O -2.8957 -0.8437 2.983 0
M  V30 4 N -0.3998 -0.2303 3.0718 0
M  V30 5 C -1.1924 -2.6889 2.3137 0
M  V30 6 C -0.193 0.0464 1.6671 0
M  V30 7 C -0.3923 0.8992 4.0298 0
M  V30 8 C -0.5279 -2.371 1.13 0
M  V30 9 C -1.47 -4.0097 2.683 0
M  V30 10 C -0.2572 -0.9633 0.7728 0
M  V30 11 C 0.1811 1.4372 1.23 0
M  V30 12 C -0.1541 -3.4329 0.2911 0
M  V30 13 C -1.0918 -5.0471 1.8362 0
M  V30 14 O -0.0053 -0.7481 -0.6006 0
M  V30 15 O -0.5264 2.3934 1.5249 0
M  V30 16 N 1.3774 1.4866 0.558 0
M  V30 17 C -0.4348 -4.7588 0.6414 0
M  V30 18 C -1.1355 -0.4047 -1.3115 0
M  V30 19 C 2.0131 2.5955 0.0029 0
M  V30 20 O -2.2569 -0.2925 -0.8343 0
M  V30 21 C -0.7952 -0.2004 -2.7915 0
M  V30 22 N 3.168 2.2811 -0.6235 0
M  V30 23 C 1.5222 3.8919 0.0594 0
M  V30 24 C -2.0588 0.2395 -3.5485 0
M  V30 25 C 0.274 0.8899 -2.9357 0
M  V30 26 C -0.2926 -1.5236 -3.3828 0
M  V30 27 C 3.8563 3.2898 -1.2039 0
M  V30 28 C 2.2517 4.9121 -0.5499 0
M  V30 29 C 3.443 4.6093 -1.1947 0
M  V30 30 H 0.5182 1.4956 3.9116 0
M  V30 31 H -0.3813 0.5286 5.0597 0
M  V30 32 H -1.2688 1.5396 3.8934 0
M  V30 33 H -1.9759 -4.228 3.6213 0
M  V30 34 H 0.369 -3.2492 -0.6445 0
M  V30 35 H -1.3056 -6.0782 2.1076 0
M  V30 36 H 1.9073 0.6374 0.4147 0
M  V30 37 H -0.137 -5.569 -0.0206 0
M  V30 38 H 0.5932 4.1398 0.5587 0
M  V30 39 H -2.4573 1.1773 -3.1439 0
M  V30 40 H -1.8511 0.3957 -4.613 0
M  V30 41 H -2.8518 -0.5133 -3.4702 0
M  V30 42 H -0.0452 1.8207 -2.4533 0
M  V30 43 H 1.2209 0.5893 -2.474 0
M  V30 44 H 0.4784 1.1084 -3.9898 0
M  V30 45 H -1.025 -2.3254 -3.2338 0
M  V30 46 H 0.642 -1.8465 -2.9107 0
M  V30 47 H -0.1048 -1.4318 -4.4584 0
M  V30 48 H 4.7812 2.9979 -1.6934 0
M  V30 49 H 1.8871 5.9354 -0.5174 0
M  V30 50 H 4.0328 5.3813 -1.676 0
M  V30 END ATOM
M  V30 BEGIN BOND
M  V30 1 2 1 2
M  V30 2 2 1 3
M  V30 3 1 1 4
M  V30 4 1 1 5
M  V30 5 1 4 6
M  V30 6 1 4 7
M  V30 7 2 5 8
M  V30 8 1 5 9
M  V30 9 2 6 10
M  V30 10 1 6 11
M  V30 11 1 8 12
M  V30 12 2 9 13
M  V30 13 1 10 14
M  V30 14 2 11 15
M  V30 15 1 11 16
M  V30 16 2 12 17
M  V30 17 1 14 18
M  V30 18 1 16 19
M  V30 19 2 18 20
M  V30 20 1 18 21
M  V30 21 2 19 22
M  V30 22 1 19 23
M  V30 23 1 21 24
M  V30 24 1 21 25
M  V30 25 1 21 26
M  V30 26 1 22 27
M  V30 27 2 23 28
M  V30 28 2 27 29
M  V30 29 1 8 10
M  V30 30 1 13 17
M  V30 31 1 28 29
M  V30 32 1 7 30
M  V30 33 1 7 31
M  V30 34 1 7 32
M  V30 35 1 9 33
M  V30 36 1 12 34
M  V30 37 1 13 35
M  V30 38 1 16 36
M  V30 39 1 17 37
M  V30 40 1 23 38
M  V30 41 1 24 39
M  V30 42 1 24 40
M  V30 43 1 24 41
M  V30 44 1 25 42
M  V30 45 1 25 43
M  V30 46 1 25 44
M  V30 47 1 26 45
M  V30 48 1 26 46
M  V30 49 1 26 47
M  V30 50 1 27 48
M  V30 51 1 28 49
M  V30 52 1 29 50
M  V30 END BOND
M  V30 END CTAB
M  END
>  <Column 1>
3098

>  <level_0>
5250

>  <index>
5251

>  <Unnamed: 0>
5251

>  <NO.>
5263

>  <Name>
piroxicam

>  <IUPAC_name>
[2-methyl-1-1-dioxo-3-(pyridin-2-ylcarbamoyl)-1lambda6-2-benzothiazin-4-yl] 2-2-dimethylpropanoate

>  <SMILES>
CN1C(C(=O)Nc2ccccn2)=C(OC(=O)C(C)(C)C)c2ccccc2S1(=O)=O

>  <CID>
135836

>  <logBB>


>  <BBB+/BBB->
BBB-

>  <Inchi>
InChI=1S/C20H21N3O5S/c1-20(2-3)19(25)28-17-13-9-5-6-10-14(13)29(26-27)23(4)16(17)18(24)22-15-11-7-8-12-21-15/h5-12H-1-4H3-(H-21-22-24)

>  <threshold>


>  <reference>
R14|

>  <group>
C

>  <Class>
1

>  <ABC>
22.66

>  <ABCGG>
19.06

>  <nAcid>
0

>  <nBase>
0

>  <nAromAtom>
12

>  <nAromBond>
12

>  <nAtom>
50

>  <nHeavyAtom>
29

>  <nSpiro>
0

>  <nBridgehead>
0

>  <nHetero>
9

>  <nN>
3

>  <nO>
5

>  <nF>
0

>  <BalabanJ>
1.87

>  <BertzCT>
1102.44

>  <nBonds>
52

>  <nBondsO>
31

>  <nBondsS>
35

>  <nBondsD>
5

>  <nBondsT>
0

>  <nBondsA>
12

>  <nBondsM>
17

>  <nBondsKS>
41

>  <nBondsKD>
11

>  <RNCG>
0.16

>  <RPCG>
0.12

>  <FCSP3>
0.25

>  <SZ>
36.33

>  <Sm>
34.59

>  <Sv>
32.72

>  <Sse>
51.04

>  <Sp>
34.5

>  <Si>
56.2

>  <MZ>
0.73

>  <Mm>
0.69

>  <Mv>
0.65

>  <Mse>
1.02

>  <Mp>
0.69

>  <Mi>
1.12

>  <NsCH3>
4

>  <NdCH2>
0

>  <NssCH2>
0

>  <NtCH>
0

>  <NdsCH>
0

>  <NaaCH>
8

>  <NsssCH>
0

>  <NddC>
0

>  <NtsC>
0

>  <NdssC>
4

>  <NaasC>
3

>  <NaaaC>
0

>  <NssssC>
1

>  <NsNH3>
0

>  <NsNH2>
0

>  <NssNH2>
0

>  <NdNH>
0

>  <NssNH>
1

>  <NaaNH>
0

>  <NtN>
0

>  <NsssNH>
0

>  <NdsN>
0

>  <NaaN>
1

>  <NsssN>
1

>  <NddsN>
0

>  <NaasN>
0

>  <NssssN>
0

>  <NsOH>
0

>  <NdO>
4

>  <NssO>
1

>  <NaaO>
0

>  <NsF>
0

>  <NsSiH3>
0

>  <NssSiH2>
0

>  <NsssSiH>
0

>  <NssssSi>
0

>  <NsPH2>
0

>  <NssPH>
0

>  <NsssP>
0

>  <NdsssP>
0

>  <NsssssP>
0

>  <NsSH>
0

>  <NdS>
0

>  <NssS>
0

>  <NaaS>
0

>  <NdssS>
0

>  <NddssS>
1

>  <NsCl>
0

>  <NsBr>
0

>  <NsI>
0

>  <fragCpx>
149.09

>  <fMF>
0.36

>  <nHBAcc>
6

>  <nHBDon>
1

>  <Kier1>
23.66

>  <Kier2>
9.24

>  <Lipinski>
1

>  <GhoseFilter>
1

>  <FilterItLogS>
-4.31

>  <VMcGowan>
297.02

>  <LabuteASA>
168.8

>  <PEOE_VSA1>
10.05

>  <PEOE_VSA2>
13.89

>  <PEOE_VSA3>
13.4

>  <PEOE_VSA4>
0

>  <PEOE_VSA5>
0

>  <PEOE_VSA6>
18.2

>  <PEOE_VSA7>
45.04

>  <PEOE_VSA8>
18.81

>  <PEOE_VSA9>
10.31

>  <PEOE_VSA10>
5.82

>  <PEOE_VSA11>
11.46

>  <PEOE_VSA12>
0

>  <PEOE_VSA13>
15.93

>  <SMR_VSA1>
22.74

>  <SMR_VSA2>
0

>  <SMR_VSA3>
9.29

>  <SMR_VSA4>
5.41

>  <SMR_VSA5>
25.67

>  <SMR_VSA6>
12.36

>  <SMR_VSA7>
59.92

>  <SMR_VSA8>
0

>  <SMR_VSA9>
0

>  <SlogP_VSA1>
5.32

>  <SlogP_VSA2>
36.63

>  <SlogP_VSA3>
24.35

>  <SlogP_VSA4>
5.41

>  <SlogP_VSA5>
26.33

>  <SlogP_VSA6>
59.25

>  <SlogP_VSA7>
0

>  <SlogP_VSA8>
5.76

>  <SlogP_VSA9>
0

>  <SlogP_VSA10>
5.82

>  <SlogP_VSA11>
0

>  <EState_VSA1>
27.31

>  <EState_VSA2>
27.73

>  <EState_VSA3>
0

>  <EState_VSA4>
4.31

>  <EState_VSA5>
25.38

>  <EState_VSA6>
51.1

>  <EState_VSA7>
0

>  <EState_VSA8>
10.3

>  <EState_VSA9>
4.74

>  <EState_VSA10>
18.01

>  <VSA_EState1>
32.3

>  <VSA_EState2>
29.55

>  <VSA_EState3>
2.55

>  <VSA_EState4>
-1.01

>  <VSA_EState5>
-1.25

>  <VSA_EState6>
10.99

>  <VSA_EState7>
1.49

>  <VSA_EState8>
5

>  <VSA_EState9>
-2.77

>  <apol>
57.61

>  <bpol>
34.62

>  <nRing>
3

>  <nHRing>
2

>  <naRing>
2

>  <naHRing>
1

>  <nARing 2>
1

>  <nAHRing 2>
1

>  <nFRing>
1

>  <nFHRing>
1

>  <nFaRing>
0

>  <nFaHRing>
0

>  <nFARing 2>
1

>  <nFAHRing 2>
1

>  <nRot>
3

>  <SLogP>
2.61

>  <SMR>
106.72

>  <TopoPSA(NO)>
105.67

>  <TopoPSA>
114.05

>  <JGI1>
0.26

>  <JGI2>
0.1

>  <JGI3>
0.06

>  <JGI4>
0.05

>  <JGI5>
0.04

>  <Diameter>
11

>  <Radius>
6

>  <TMWC10>
138.08

>  <TSRW10>
65.08

>  <MW>
415.12

>  <AMW>
8.3

>  <WPath>
2036

>  <WPol>
52

>  <Zagreb1>
156

>  <Zagreb2>
186

>  <mZagreb2>
6.14

>  <yes>


>  <nAR-cont>
0.816016

>  <nHA-cont>
0.785905698

>  <MWHBN>
0.343566817

>  <MWHBN-cont>
0.69410025

>  <TPSA-cont>
0.203860179

>  <pka_cont>
0.97

>  <yes.1>


>  <BBB_SCORE>
3.535792432

>  <MMFF94 Energy>
4.7959

$$$$
Compound 2506
Actelion Java MolfileCreator 2.0

  0  0  0  0  0  0              0 V3000
M  V30 BEGIN CTAB
M  V30 COUNTS 41 44 0 0 0
M  V30 BEGIN ATOM
M  V30 1 O 0.0801 1.2825 1.4429 0
M  V30 2 C -0.4758 0.2075 1.2484 0
M  V30 3 O -0.1546 -0.6464 0.2308 0
M  V30 4 C -1.5572 -0.3057 2.0826 0
M  V30 5 C 0.8917 -0.2127 -0.6574 0
M  V30 6 C -2.1416 0.3139 3.238 0
M  V30 7 C -2.2261 -1.5064 1.9021 0
M  V30 8 C 1.4806 -1.4553 -1.3438 0
M  V30 9 C 0.348 0.7923 -1.6863 0
M  V30 10 C -3.1424 -0.5366 3.7129 0
M  V30 11 C -1.9131 1.5239 3.9286 0
M  V30 12 N -3.1712 -1.6317 2.8828 0
M  V30 13 C 2.3075 -1.097 -2.5914 0
M  V30 14 C 1.2787 0.9414 -2.9031 0
M  V30 15 C -3.922 -0.2396 4.8378 0
M  V30 16 C -2.6831 1.8365 5.0548 0
M  V30 17 N 1.3859 -0.3996 -3.5061 0
M  V30 18 C 3.3969 -0.0633 -2.2849 0
M  V30 19 C 2.7131 1.2911 -2.4908 0
M  V30 20 C -3.6729 0.9651 5.5009 0
M  V30 21 C 1.8732 -0.3633 -4.8833 0
M  V30 22 H 1.691 0.2538 -0.0668 0
M  V30 23 H -2.1044 -2.2781 1.1529 0
M  V30 24 H 0.6711 -2.1451 -1.62 0
M  V30 25 H 2.1 -2.0036 -0.6228 0
M  V30 26 H 0.2052 1.7683 -1.2066 0
M  V30 27 H -0.6511 0.4774 -2.0171 0
M  V30 28 H -1.1434 2.2132 3.5901 0
M  V30 29 H -3.8038 -2.4132 2.9881 0
M  V30 30 H 2.7206 -2.0162 -3.0216 0
M  V30 31 H 0.8539 1.6837 -3.5882 0
M  V30 32 H -4.6948 -0.9159 5.1884 0
M  V30 33 H -2.5038 2.7696 5.5834 0
M  V30 34 H 3.806 -0.1651 -1.2745 0
M  V30 35 H 4.2315 -0.161 -2.9892 0
M  V30 36 H 2.7559 1.9114 -1.5895 0
M  V30 37 H 3.223 1.839 -3.2921 0
M  V30 38 H -4.2613 1.2252 6.3779 0
M  V30 39 H 1.9456 -1.3812 -5.282 0
M  V30 40 H 1.1599 0.1725 -5.5192 0
M  V30 41 H 2.8519 0.1143 -4.9956 0
M  V30 END ATOM
M  V30 BEGIN BOND
M  V30 1 2 1 2
M  V30 2 1 2 3
M  V30 3 1 2 4
M  V30 4 1 3 5
M  V30 5 1 4 6
M  V30 6 2 4 7
M  V30 7 1 5 8
M  V30 8 1 5 9
M  V30 9 2 6 10
M  V30 10 1 6 11
M  V30 11 1 7 12
M  V30 12 1 8 13
M  V30 13 1 9 14
M  V30 14 1 10 15
M  V30 15 2 11 16
M  V30 16 1 13 17
M  V30 17 1 13 18
M  V30 18 1 14 19
M  V30 19 2 15 20
M  V30 20 1 17 21
M  V30 21 1 10 12
M  V30 22 1 14 17
M  V30 23 1 16 20
M  V30 24 1 18 19
M  V30 25 1 5 22
M  V30 26 1 7 23
M  V30 27 1 8 24
M  V30 28 1 8 25
M  V30 29 1 9 26
M  V30 30 1 9 27
M  V30 31 1 11 28
M  V30 32 1 12 29
M  V30 33 1 13 30
M  V30 34 1 14 31
M  V30 35 1 15 32
M  V30 36 1 16 33
M  V30 37 1 18 34
M  V30 38 1 18 35
M  V30 39 1 19 36
M  V30 40 1 19 37
M  V30 41 1 20 38
M  V30 42 1 21 39
M  V30 43 1 21 40
M  V30 44 1 21 41
M  V30 END BOND
M  V30 END CTAB
M  END
>  <Column 1>
3099

>  <level_0>
5251

>  <index>
5252

>  <Unnamed: 0>
5252

>  <NO.>
5264

>  <Name>
chembl8197

>  <IUPAC_name>
(8-methyl-8-azabicyclo[3.2.1]octan-3-yl) 1h-indole-3-carboxylate

>  <SMILES>
CN1C2CCC1CC(OC(=O)c1c[nH]c3ccccc13)C2

>  <CID>
5595

>  <logBB>


>  <BBB+/BBB->
BBB+

>  <Inchi>
InChI=1S/C17H20N2O2/c1-19-11-6-7-12(19)9-13(8-11)21-17(20)15-10-18-16-5-3-2-4-14(15)16/h2-5-10-13-18H-6-9H2-1H3

>  <threshold>


>  <reference>
R14|R23|R37|

>  <group>
C

>  <Class>
-1

>  <ABC>
16.99

>  <ABCGG>
14.09

>  <nAcid>
0

>  <nBase>
1

>  <nAromAtom>
9

>  <nAromBond>
10

>  <nAtom>
41

>  <nHeavyAtom>
21

>  <nSpiro>
0

>  <nBridgehead>
2

>  <nHetero>
4

>  <nN>
2

>  <nO>
2

>  <nF>
0

>  <BalabanJ>
1.35

>  <BertzCT>
664.23

>  <nBonds>
44

>  <nBondsO>
24

>  <nBondsS>
33

>  <nBondsD>
1

>  <nBondsT>
0

>  <nBondsA>
10

>  <nBondsM>
11

>  <nBondsKS>
39

>  <nBondsKD>
5

>  <RNCG>
0.28

>  <RPCG>
0.2

>  <FCSP3>
0.47

>  <SZ>
25.33

>  <Sm>
23.67

>  <Sv>
25.36

>  <Sse>
40.87

>  <Sp>
27.26

>  <Si>
46.15

>  <MZ>
0.62

>  <Mm>
0.58

>  <Mv>
0.62

>  <Mse>
1

>  <Mp>
0.66

>  <Mi>
1.13

>  <NsCH3>
1

>  <NdCH2>
0

>  <NssCH2>
4

>  <NtCH>
0

>  <NdsCH>
0

>  <NaaCH>
5

>  <NsssCH>
3

>  <NddC>
0

>  <NtsC>
0

>  <NdssC>
1

>  <NaasC>
1

>  <NaaaC>
2

>  <NssssC>
0

>  <NsNH3>
0

>  <NsNH2>
0

>  <NssNH2>
0

>  <NdNH>
0

>  <NssNH>
0

>  <NaaNH>
1

>  <NtN>
0

>  <NsssNH>
0

>  <NdsN>
0

>  <NaaN>
0

>  <NsssN>
1

>  <NddsN>
0

>  <NaasN>
0

>  <NssssN>
0

>  <NsOH>
0

>  <NdO>
1

>  <NssO>
1

>  <NaaO>
0

>  <NsF>
0

>  <NsSiH3>
0

>  <NssSiH2>
0

>  <NsssSiH>
0

>  <NssssSi>
0

>  <NsPH2>
0

>  <NssPH>
0

>  <NsssP>
0

>  <NdsssP>
0

>  <NsssssP>
0

>  <NsSH>
0

>  <NdS>
0

>  <NssS>
0

>  <NaaS>
0

>  <NdssS>
0

>  <NddssS>
0

>  <NsCl>
0

>  <NsBr>
0

>  <NsI>
0

>  <fragCpx>
156.04

>  <fMF>
0.46

>  <nHBAcc>
3

>  <nHBDon>
1

>  <Kier1>
14.58

>  <Kier2>
5.89

>  <Lipinski>
1

>  <GhoseFilter>
1

>  <FilterItLogS>
-3.18

>  <VMcGowan>
217.15

>  <LabuteASA>
123.63

>  <PEOE_VSA1>
14.62

>  <PEOE_VSA2>
0

>  <PEOE_VSA3>
4.79

>  <PEOE_VSA4>
0

>  <PEOE_VSA5>
0

>  <PEOE_VSA6>
18.2

>  <PEOE_VSA7>
25.96

>  <PEOE_VSA8>
42.03

>  <PEOE_VSA9>
5.56

>  <PEOE_VSA10>
6.1

>  <PEOE_VSA11>
0

>  <PEOE_VSA12>
0

>  <PEOE_VSA13>
0

>  <SMR_VSA1>
9.53

>  <SMR_VSA2>
0

>  <SMR_VSA3>
9.88

>  <SMR_VSA4>
0

>  <SMR_VSA5>
43.87

>  <SMR_VSA6>
7.05

>  <SMR_VSA7>
36.03

>  <SMR_VSA8>
0

>  <SMR_VSA9>
0

>  <SlogP_VSA1>
0

>  <SlogP_VSA2>
41.09

>  <SlogP_VSA3>
4.74

>  <SlogP_VSA4>
0

>  <SlogP_VSA5>
36.04

>  <SlogP_VSA6>
30.46

>  <SlogP_VSA7>
0

>  <SlogP_VSA8>
10.9

>  <SlogP_VSA9>
0

>  <SlogP_VSA10>
0

>  <SlogP_VSA11>
0

>  <EState_VSA1>
0

>  <EState_VSA2>
12.07

>  <EState_VSA3>
17.65

>  <EState_VSA4>
23.74

>  <EState_VSA5>
12.84

>  <EState_VSA6>
6.2

>  <EState_VSA7>
24.27

>  <EState_VSA8>
16.93

>  <EState_VSA9>
4.74

>  <EState_VSA10>
4.79

>  <VSA_EState1>
5.79

>  <VSA_EState2>
18.04

>  <VSA_EState3>
0.94

>  <VSA_EState4>
1.63

>  <VSA_EState5>
-0.19

>  <VSA_EState6>
9.02

>  <VSA_EState7>
6.25

>  <VSA_EState8>
0

>  <VSA_EState9>
2.19

>  <apol>
45.53

>  <bpol>
24.95

>  <nRing>
4

>  <nHRing>
3

>  <naRing>
2

>  <naHRing>
1

>  <nARing 2>
2

>  <nAHRing 2>
2

>  <nFRing>
2

>  <nFHRing>
2

>  <nFaRing>
1

>  <nFaHRing>
1

>  <nFARing 2>
1

>  <nFAHRing 2>
1

>  <nRot>
2

>  <SLogP>
2.95

>  <SMR>
81.31

>  <TopoPSA(NO)>
45.33

>  <TopoPSA>
45.33

>  <JGI1>
0.17

>  <JGI2>
0.08

>  <JGI3>
0.06

>  <JGI4>
0.04

>  <JGI5>
0.02

>  <Diameter>
11

>  <Radius>
6

>  <TMWC10>
120.17

>  <TSRW10>
71.54

>  <MW>
284.15

>  <AMW>
6.93

>  <WPath>
944

>  <WPol>
33

>  <Zagreb1>
118

>  <Zagreb2>
143

>  <mZagreb2>
4.47

>  <yes>


>  <nAR-cont>
1

>  <nHA-cont>
0.994529749

>  <MWHBN>
0.237293674

>  <MWHBN-cont>
0.97850671

>  <TPSA-cont>
0.683568452

>  <pka_cont>
0.97

>  <yes.1>


>  <BBB_SCORE>
5.314426718

>  <MMFF94 Energy>
36.67

$$$$
Compound 2507
Actelion Java MolfileCreator 2.0

  0  0  0  0  0  0              0 V3000
M  V30 BEGIN CTAB
M  V30 COUNTS 29 30 0 0 0
M  V30 BEGIN ATOM
M  V30 1 O -2.5261 -2.6051 -4.0283 0
M  V30 2 C -2.9682 -1.8143 -3.1993 0
M  V30 3 N -2.2818 -1.1665 -2.2009 0
M  V30 4 N -4.287 -1.4752 -3.23 0
M  V30 5 N -1.211 -1.7466 -1.9155 0
M  V30 6 C -0.5451 -1.0476 -0.8921 0
M  V30 7 C -0.7659 -1.3444 0.4711 0
M  V30 8 C 0.3903 -0.0632 -1.2299 0
M  V30 9 O -1.677 -2.3179 0.7984 0
M  V30 10 C -0.0857 -0.667 1.491 0
M  V30 11 C 1.0645 0.5934 -0.2103 0
M  V30 12 C 0.8356 0.3041 1.1412 0
M  V30 13 C 2.0679 1.6997 -0.3258 0 CFG=1
M  V30 14 N 1.6041 1.103 1.9747 0
M  V30 15 O 1.4018 2.9184 -0.641 0
M  V30 16 C 2.6273 1.7302 1.1227 0
M  V30 17 C 1.8419 0.8344 3.3711 0
M  V30 18 H -4.6599 -0.8327 -2.5498 0
M  V30 19 H -4.8745 -1.8995 -3.9304 0
M  V30 20 H 0.5762 0.1826 -2.2706 0
M  V30 21 H -1.6755 -2.4425 1.7607 0
M  V30 22 H -0.2747 -0.8916 2.5332 0
M  V30 23 H 2.8537 1.5053 -1.0607 0
M  V30 24 H 0.6051 2.9409 -0.0792 0
M  V30 25 H 2.8438 2.7498 1.4585 0
M  V30 26 H 3.547 1.1336 1.177 0
M  V30 27 H 2.4155 1.6495 3.8245 0
M  V30 28 H 0.9 0.7518 3.923 0
M  V30 29 H 2.4092 -0.0932 3.4989 0
M  V30 END ATOM
M  V30 BEGIN BOND
M  V30 1 2 1 2
M  V30 2 1 2 3
M  V30 3 1 2 4
M  V30 4 2 3 5
M  V30 5 1 5 6
M  V30 6 2 6 7
M  V30 7 1 6 8
M  V30 8 1 7 9
M  V30 9 1 7 10
M  V30 10 2 8 11
M  V30 11 2 10 12
M  V30 12 1 11 13
M  V30 13 1 12 14
M  V30 14 1 13 15
M  V30 15 1 13 16
M  V30 16 1 14 17
M  V30 17 1 11 12
M  V30 18 1 14 16
M  V30 19 1 4 18
M  V30 20 1 4 19
M  V30 21 1 8 20
M  V30 22 1 9 21
M  V30 23 1 10 22
M  V30 24 1 13 23
M  V30 25 1 15 24
M  V30 26 1 16 25
M  V30 27 1 16 26
M  V30 28 1 17 27
M  V30 29 1 17 28
M  V30 30 1 17 29
M  V30 END BOND
M  V30 BEGIN COLLECTION
M  V30 MDLV30/STERAC1 ATOMS=(1 13)
M  V30 END COLLECTION
M  V30 END CTAB
M  END
>  <Column 1>
3100

>  <level_0>
5252

>  <index>
5253

>  <Unnamed: 0>
5253

>  <NO.>
5265

>  <Name>
carbazochrome

>  <IUPAC_name>
(3-6-dihydroxy-1-methyl-2-3-dihydroindol-5-yl)iminourea

>  <SMILES>
CN1CC(O)c2cc(N=NC(N)=O)c(O)cc21

>  <CID>
2557

>  <logBB>


>  <BBB+/BBB->
BBB-

>  <Inchi>
InChI=1S/C10H12N4O3/c1-14-4-9(16)5-2-6(12-13-10(11)17)8(15)3-7(5)14/h2-3-9-15-16H-4H2-1H3-(H2-11-17)

>  <threshold>


>  <reference>
R14|

>  <group>
C

>  <Class>
1

>  <ABC>
13.11

>  <ABCGG>
11.7

>  <nAcid>
0

>  <nBase>
0

>  <nAromAtom>
6

>  <nAromBond>
6

>  <nAtom>
29

>  <nHeavyAtom>
17

>  <nSpiro>
0

>  <nBridgehead>
0

>  <nHetero>
7

>  <nN>
4

>  <nO>
3

>  <nF>
0

>  <BalabanJ>
1.94

>  <BertzCT>
500.57

>  <nBonds>
30

>  <nBondsO>
18

>  <nBondsS>
22

>  <nBondsD>
2

>  <nBondsT>
0

>  <nBondsA>
6

>  <nBondsM>
8

>  <nBondsKS>
25

>  <nBondsKD>
5

>  <RNCG>
0.24

>  <RPCG>
0.17

>  <FCSP3>
0.3

>  <SZ>
20.67

>  <Sm>
19.67

>  <Sv>
18.43

>  <Sse>
29.97

>  <Sp>
18.87

>  <Si>
33.28

>  <MZ>
0.71

>  <Mm>
0.68

>  <Mv>
0.64

>  <Mse>
1.03

>  <Mp>
0.65

>  <Mi>
1.15

>  <NsCH3>
1

>  <NdCH2>
0

>  <NssCH2>
1

>  <NtCH>
0

>  <NdsCH>
0

>  <NaaCH>
2

>  <NsssCH>
1

>  <NddC>
0

>  <NtsC>
0

>  <NdssC>
1

>  <NaasC>
4

>  <NaaaC>
0

>  <NssssC>
0

>  <NsNH3>
0

>  <NsNH2>
1

>  <NssNH2>
0

>  <NdNH>
0

>  <NssNH>
0

>  <NaaNH>
0

>  <NtN>
0

>  <NsssNH>
0

>  <NdsN>
2

>  <NaaN>
0

>  <NsssN>
1

>  <NddsN>
0

>  <NaasN>
0

>  <NssssN>
0

>  <NsOH>
2

>  <NdO>
1

>  <NssO>
0

>  <NaaO>
0

>  <NsF>
0

>  <NsSiH3>
0

>  <NssSiH2>
0

>  <NsssSiH>
0

>  <NssssSi>
0

>  <NsPH2>
0

>  <NssPH>
0

>  <NsssP>
0

>  <NdsssP>
0

>  <NsssssP>
0

>  <NsSH>
0

>  <NdS>
0

>  <NssS>
0

>  <NaaS>
0

>  <NdssS>
0

>  <NddssS>
0

>  <NsCl>
0

>  <NsBr>
0

>  <NsI>
0

>  <fragCpx>
52.07

>  <fMF>
0.31

>  <nHBAcc>
5

>  <nHBDon>
3

>  <Kier1>
13.43

>  <Kier2>
5.33

>  <Lipinski>
1

>  <GhoseFilter>
1

>  <FilterItLogS>
-0.68

>  <VMcGowan>
166.07

>  <LabuteASA>
97.18

>  <PEOE_VSA1>
20.85

>  <PEOE_VSA2>
0

>  <PEOE_VSA3>
4.79

>  <PEOE_VSA4>
0

>  <PEOE_VSA5>
5.11

>  <PEOE_VSA6>
5.11

>  <PEOE_VSA7>
6.07

>  <PEOE_VSA8>
30.91

>  <PEOE_VSA9>
6.1

>  <PEOE_VSA10>
11.44

>  <PEOE_VSA11>
0

>  <PEOE_VSA12>
0

>  <PEOE_VSA13>
0

>  <SMR_VSA1>
15.01

>  <SMR_VSA2>
0

>  <SMR_VSA3>
0

>  <SMR_VSA4>
15.96

>  <SMR_VSA5>
6.1

>  <SMR_VSA6>
18.49

>  <SMR_VSA7>
17.7

>  <SMR_VSA8>
0

>  <SMR_VSA9>
5.75

>  <SlogP_VSA1>
10.63

>  <SlogP_VSA2>
29.84

>  <SlogP_VSA3>
0

>  <SlogP_VSA4>
0

>  <SlogP_VSA5>
11.67

>  <SlogP_VSA6>
22.36

>  <SlogP_VSA7>
0

>  <SlogP_VSA8>
0

>  <SlogP_VSA9>
0

>  <SlogP_VSA10>
16.17

>  <SlogP_VSA11>
5.75

>  <EState_VSA1>
12.14

>  <EState_VSA2>
11.44

>  <EState_VSA3>
12.11

>  <EState_VSA4>
5.69

>  <EState_VSA5>
12.13

>  <EState_VSA6>
7.05

>  <EState_VSA7>
4.9

>  <EState_VSA8>
10.23

>  <EState_VSA9>
5.73

>  <EState_VSA10>
15.01

>  <VSA_EState1>
0

>  <VSA_EState2>
12.27

>  <VSA_EState3>
26.08

>  <VSA_EState4>
6.29

>  <VSA_EState5>
-0.12

>  <VSA_EState6>
2.02

>  <VSA_EState7>
-0.64

>  <VSA_EState8>
0.45

>  <VSA_EState9>
1.8

>  <apol>
31.51

>  <bpol>
15.19

>  <nRing>
2

>  <nHRing>
1

>  <naRing>
1

>  <naHRing>
0

>  <nARing 2>
1

>  <nAHRing 2>
1

>  <nFRing>
1

>  <nFHRing>
1

>  <nFaRing>
0

>  <nFaHRing>
0

>  <nFARing 2>
1

>  <nFAHRing 2>
1

>  <nRot>
1

>  <SLogP>
1.04

>  <SMR>
60.44

>  <TopoPSA(NO)>
111.51

>  <TopoPSA>
111.51

>  <JGI1>
0.25

>  <JGI2>
0.09

>  <JGI3>
0.07

>  <JGI4>
0.05

>  <JGI5>
0.04

>  <Diameter>
9

>  <Radius>
5

>  <TMWC10>
107.09

>  <TSRW10>
64.09

>  <MW>
236.09

>  <AMW>
8.14

>  <WPath>
518

>  <WPol>
25

>  <Zagreb1>
88

>  <Zagreb2>
103

>  <mZagreb2>
3.69

>  <yes>


>  <nAR-cont>
0.816016

>  <nHA-cont>
0.976740822

>  <MWHBN>
0.520656376

>  <MWHBN-cont>
0

>  <TPSA-cont>
0.221590956

>  <pka_cont>
0.97

>  <yes.1>


>  <BBB_SCORE>
2.720938735

>  <MMFF94 Energy>
23.206

$$$$
Compound 2508
Actelion Java MolfileCreator 2.0

  0  0  0  0  0  0              0 V3000
M  V30 BEGIN CTAB
M  V30 COUNTS 43 46 0 0 0
M  V30 BEGIN ATOM
M  V30 1 N -0.5602 2.8038 -2.2426 0
M  V30 2 C 0.437 2.8021 -1.1575 0
M  V30 3 C -1.0576 1.4356 -2.4713 0
M  V30 4 C 0.018 3.3503 -3.469 0
M  V30 5 C -0.1375 2.2411 0.1545 0
M  V30 6 C -1.6826 0.8285 -1.2035 0
M  V30 7 C -0.7034 0.8395 -0.0364 0
M  V30 8 C -0.3402 -0.2532 0.6871 0
M  V30 9 C 0.7062 -0.1639 1.7373 0
M  V30 10 C -0.8663 -1.6018 0.355 0
M  V30 11 C 1.9368 -0.8292 1.5666 0
M  V30 12 C 0.4484 0.535 2.9284 0
M  V30 13 C 0.0022 -2.5982 -0.1338 0
M  V30 14 C -2.2191 -1.904 0.5836 0
M  V30 15 C 2.2735 -1.6076 0.3583 0
M  V30 16 C 2.9102 -0.7199 2.5722 0
M  V30 17 C 1.4211 0.6197 3.9237 0
M  V30 18 C 1.4408 -2.3691 -0.3736 0
M  V30 19 C -0.5248 -3.8609 -0.4473 0
M  V30 20 C -2.7223 -3.1688 0.2815 0
M  V30 21 C 2.6537 -0.0011 3.7425 0
M  V30 22 C -1.8772 -4.1441 -0.2402 0
M  V30 23 H 0.7699 3.8303 -0.9687 0
M  V30 24 H 1.3239 2.2209 -1.4452 0
M  V30 25 H -1.8279 1.4551 -3.2522 0
M  V30 26 H -0.2494 0.7825 -2.8282 0
M  V30 27 H 0.8703 2.7608 -3.8256 0
M  V30 28 H 0.3544 4.3807 -3.3088 0
M  V30 29 H -0.7337 3.3859 -4.2652 0
M  V30 30 H 0.6562 2.2858 0.9042 0
M  V30 31 H -0.9424 2.8953 0.5146 0
M  V30 32 H -2.5716 1.4057 -0.9173 0
M  V30 33 H -2.034 -0.1738 -1.4604 0
M  V30 34 H -0.514 1.0186 3.0785 0
M  V30 35 H -2.8838 -1.1482 0.9954 0
M  V30 36 H 3.3194 -1.5646 0.0616 0
M  V30 37 H 3.8742 -1.211 2.4597 0
M  V30 38 H 1.2155 1.1685 4.839 0
M  V30 39 H 1.8546 -2.9039 -1.2259 0
M  V30 40 H 0.1201 -4.6436 -0.8401 0
M  V30 41 H -3.7717 -3.3916 0.4551 0
M  V30 42 H 3.4143 0.064 4.5163 0
M  V30 43 H -2.2669 -5.1306 -0.4776 0
M  V30 END ATOM
M  V30 BEGIN BOND
M  V30 1 1 1 2
M  V30 2 1 1 3
M  V30 3 1 1 4
M  V30 4 1 2 5
M  V30 5 1 3 6
M  V30 6 1 5 7
M  V30 7 2 7 8
M  V30 8 1 8 9
M  V30 9 1 8 10
M  V30 10 2 9 11
M  V30 11 1 9 12
M  V30 12 2 10 13
M  V30 13 1 10 14
M  V30 14 1 11 15
M  V30 15 1 11 16
M  V30 16 2 12 17
M  V30 17 1 13 18
M  V30 18 1 13 19
M  V30 19 2 14 20
M  V30 20 2 16 21
M  V30 21 2 19 22
M  V30 22 1 6 7
M  V30 23 2 15 18
M  V30 24 1 17 21
M  V30 25 1 20 22
M  V30 26 1 2 23
M  V30 27 1 2 24
M  V30 28 1 3 25
M  V30 29 1 3 26
M  V30 30 1 4 27
M  V30 31 1 4 28
M  V30 32 1 4 29
M  V30 33 1 5 30
M  V30 34 1 5 31
M  V30 35 1 6 32
M  V30 36 1 6 33
M  V30 37 1 12 34
M  V30 38 1 14 35
M  V30 39 1 15 36
M  V30 40 1 16 37
M  V30 41 1 17 38
M  V30 42 1 18 39
M  V30 43 1 19 40
M  V30 44 1 20 41
M  V30 45 1 21 42
M  V30 46 1 22 43
M  V30 END BOND
M  V30 END CTAB
M  END
>  <Column 1>
3101

>  <level_0>
5253

>  <index>
5254

>  <Unnamed: 0>
5254

>  <NO.>
5266

>  <Name>
cyproheptadine

>  <IUPAC_name>
1-methyl-4-(2-tricyclo[9.4.0.03-8]pentadeca-1(15)-3-5-7-9-11-13-heptaenylidene)piperidine

>  <SMILES>
CN1CCC(=C2c3ccccc3C=Cc3ccccc32)CC1

>  <CID>
2913

>  <logBB>


>  <BBB+/BBB->
BBB+

>  <Inchi>
InChI=1S/C21H21N/c1-22-14-12-18(13-15-22)21-19-8-4-2-6-16(19)10-11-17-7-3-5-9-20(17)21/h2-11H-12-15H2-1H3

>  <threshold>


>  <reference>
R14|R15|R23|R27|R50|

>  <group>
C

>  <Class>
1

>  <ABC>
17.58

>  <ABCGG>
13.65

>  <nAcid>
0

>  <nBase>
1

>  <nAromAtom>
12

>  <nAromBond>
12

>  <nAtom>
43

>  <nHeavyAtom>
22

>  <nSpiro>
0

>  <nBridgehead>
0

>  <nHetero>
1

>  <nN>
1

>  <nO>
0

>  <nF>
0

>  <BalabanJ>
1.59

>  <BertzCT>
705.48

>  <nBonds>
46

>  <nBondsO>
25

>  <nBondsS>
32

>  <nBondsD>
2

>  <nBondsT>
0

>  <nBondsA>
12

>  <nBondsM>
14

>  <nBondsKS>
38

>  <nBondsKD>
8

>  <RNCG>
0.29

>  <RPCG>
0.06

>  <FCSP3>
0.24

>  <SZ>
25.67

>  <Sm>
23.93

>  <Sv>
27.45

>  <Sse>
41.99

>  <Sp>
30.04

>  <Si>
47.65

>  <MZ>
0.6

>  <Mm>
0.56

>  <Mv>
0.64

>  <Mse>
0.98

>  <Mp>
0.7

>  <Mi>
1.11

>  <NsCH3>
1

>  <NdCH2>
0

>  <NssCH2>
4

>  <NtCH>
0

>  <NdsCH>
2

>  <NaaCH>
8

>  <NsssCH>
0

>  <NddC>
0

>  <NtsC>
0

>  <NdssC>
2

>  <NaasC>
4

>  <NaaaC>
0

>  <NssssC>
0

>  <NsNH3>
0

>  <NsNH2>
0

>  <NssNH2>
0

>  <NdNH>
0

>  <NssNH>
0

>  <NaaNH>
0

>  <NtN>
0

>  <NsssNH>
0

>  <NdsN>
0

>  <NaaN>
0

>  <NsssN>
1

>  <NddsN>
0

>  <NaasN>
0

>  <NssssN>
0

>  <NsOH>
0

>  <NdO>
0

>  <NssO>
0

>  <NaaO>
0

>  <NsF>
0

>  <NsSiH3>
0

>  <NssSiH2>
0

>  <NsssSiH>
0

>  <NssssSi>
0

>  <NsPH2>
0

>  <NssPH>
0

>  <NsssP>
0

>  <NdsssP>
0

>  <NsssssP>
0

>  <NsSH>
0

>  <NdS>
0

>  <NssS>
0

>  <NaaS>
0

>  <NdssS>
0

>  <NddssS>
0

>  <NsCl>
0

>  <NsBr>
0

>  <NsI>
0

>  <fragCpx>
163.01

>  <fMF>
0.49

>  <nHBAcc>
1

>  <nHBDon>
0

>  <Kier1>
15.52

>  <Kier2>
6.86

>  <Lipinski>
1

>  <GhoseFilter>
1

>  <FilterItLogS>
-5.14

>  <VMcGowan>
238.89

>  <LabuteASA>
132.14

>  <PEOE_VSA1>
4.9

>  <PEOE_VSA2>
0

>  <PEOE_VSA3>
0

>  <PEOE_VSA4>
0

>  <PEOE_VSA5>
0

>  <PEOE_VSA6>
66.26

>  <PEOE_VSA7>
47.72

>  <PEOE_VSA8>
13.09

>  <PEOE_VSA9>
0

>  <PEOE_VSA10>
0

>  <PEOE_VSA11>
0

>  <PEOE_VSA12>
0

>  <PEOE_VSA13>
0

>  <SMR_VSA1>
0

>  <SMR_VSA2>
0

>  <SMR_VSA3>
4.9

>  <SMR_VSA4>
0

>  <SMR_VSA5>
12.84

>  <SMR_VSA6>
20.14

>  <SMR_VSA7>
76.36

>  <SMR_VSA8>
0

>  <SMR_VSA9>
0

>  <SlogP_VSA1>
0

>  <SlogP_VSA2>
25.04

>  <SlogP_VSA3>
0

>  <SlogP_VSA4>
0

>  <SlogP_VSA5>
35.1

>  <SlogP_VSA6>
54.1

>  <SlogP_VSA7>
0

>  <SlogP_VSA8>
17.73

>  <SlogP_VSA9>
0

>  <SlogP_VSA10>
0

>  <SlogP_VSA11>
0

>  <EState_VSA1>
0

>  <EState_VSA2>
0

>  <EState_VSA3>
0

>  <EState_VSA4>
13.09

>  <EState_VSA5>
40.67

>  <EState_VSA6>
5.57

>  <EState_VSA7>
0

>  <EState_VSA8>
72.63

>  <EState_VSA9>
0

>  <EState_VSA10>
0

>  <VSA_EState1>
0

>  <VSA_EState2>
2.43

>  <VSA_EState3>
0

>  <VSA_EState4>
8.54

>  <VSA_EState5>
0

>  <VSA_EState6>
17.61

>  <VSA_EState7>
6.87

>  <VSA_EState8>
2.33

>  <VSA_EState9>
2.22

>  <apol>
50.17

>  <bpol>
22.78

>  <nRing>
4

>  <nHRing>
1

>  <naRing>
2

>  <naHRing>
0

>  <nARing 2>
2

>  <nAHRing 2>
1

>  <nFRing>
1

>  <nFHRing>
0

>  <nFaRing>
0

>  <nFaHRing>
0

>  <nFARing 2>
1

>  <nFAHRing 2>
0

>  <nRot>
0

>  <SLogP>
4.7

>  <SMR>
94.57

>  <TopoPSA(NO)>
3.24

>  <TopoPSA>
3.24

>  <JGI1>
0.12

>  <JGI2>
0.07

>  <JGI3>
0.04

>  <JGI4>
0.04

>  <JGI5>
0.01

>  <Diameter>
9

>  <Radius>
5

>  <TMWC10>
122.29

>  <TSRW10>
64.56

>  <MW>
287.17

>  <AMW>
6.68

>  <WPath>
928

>  <WPol>
40

>  <Zagreb1>
120

>  <Zagreb2>
144

>  <mZagreb2>
4.81

>  <yes>


>  <nAR-cont>
1

>  <nHA-cont>
0.983774276

>  <MWHBN>
0.059010659

>  <MWHBN-cont>
0.445366517

>  <TPSA-cont>
0.977382788

>  <pka_cont>
0.97

>  <yes.1>


>  <BBB_SCORE>
5.091589628

>  <MMFF94 Energy>
109.6

$$$$
Compound 2509
Actelion Java MolfileCreator 2.0

  0  0  0  0  0  0              0 V3000
M  V30 BEGIN CTAB
M  V30 COUNTS 44 47 0 0 0
M  V30 BEGIN ATOM
M  V30 1 N -0.16 1.7611 2.4021 0
M  V30 2 C -0.4171 0.5595 1.8153 0
M  V30 3 C -0.9345 2.1406 3.4371 0
M  V30 4 C 0.5046 0.202 0.7027 0
M  V30 5 C -1.4333 -0.2988 2.26 0
M  V30 6 C -1.9672 1.3763 3.938 0
M  V30 7 C 1.1982 -1.1074 0.7436 0
M  V30 8 C 0.6481 1.0027 -0.3893 0
M  V30 9 C -2.2127 0.1444 3.344 0
M  V30 10 C -1.7445 -1.6796 1.7173 0
M  V30 11 C 0.4355 -2.2785 0.5966 0
M  V30 12 C 2.5786 -1.1927 0.9635 0
M  V30 13 C 1.5246 0.6895 -1.5959 0
M  V30 14 C -0.0806 2.323 -0.6074 0
M  V30 15 C -1.0605 -2.1718 0.4355 0
M  V30 16 C 1.0745 -3.5242 0.6362 0
M  V30 17 C 3.2047 -2.438 1.0028 0
M  V30 18 C 0.7238 0.7512 -2.9071 0
M  V30 19 C -0.8232 2.3437 -1.9554 0
M  V30 20 C 2.4542 -3.6008 0.8343 0
M  V30 21 N 0.068 2.0567 -3.0928 0
M  V30 22 C -0.6761 2.0855 -4.35 0
M  V30 23 H -0.6908 3.1076 3.8667 0
M  V30 24 H -2.5602 1.7241 4.7759 0
M  V30 25 H -3.0114 -0.4815 3.7365 0
M  V30 26 H -1.53 -2.3987 2.5201 0
M  V30 27 H -2.8269 -1.722 1.5348 0
M  V30 28 H 3.1651 -0.2875 1.1026 0
M  V30 29 H 1.9941 -0.2958 -1.5442 0
M  V30 30 H 2.3433 1.4202 -1.6294 0
M  V30 31 H 0.6549 3.1371 -0.5783 0
M  V30 32 H -0.8201 2.5409 0.1664 0
M  V30 33 H -1.4711 -3.1563 0.1774 0
M  V30 34 H -1.3008 -1.5203 -0.4141 0
M  V30 35 H 0.5031 -4.4422 0.5234 0
M  V30 36 H 4.2769 -2.5 1.1681 0
M  V30 37 H -0.0157 -0.0611 -2.9214 0
M  V30 38 H 1.4185 0.5724 -3.7369 0
M  V30 39 H -1.6521 1.6232 -1.9228 0
M  V30 40 H -1.2651 3.3397 -2.0828 0
M  V30 41 H 2.9443 -4.5706 0.8672 0
M  V30 42 H -0.0044 1.9125 -5.198 0
M  V30 43 H -1.4706 1.3311 -4.3802 0
M  V30 44 H -1.1302 3.0705 -4.5052 0
M  V30 END ATOM
M  V30 BEGIN BOND
M  V30 1 2 1 2
M  V30 2 1 1 3
M  V30 3 1 2 4
M  V30 4 1 2 5
M  V30 5 2 3 6
M  V30 6 1 4 7
M  V30 7 2 4 8
M  V30 8 2 5 9
M  V30 9 1 5 10
M  V30 10 2 7 11
M  V30 11 1 7 12
M  V30 12 1 8 13
M  V30 13 1 8 14
M  V30 14 1 10 15
M  V30 15 1 11 16
M  V30 16 2 12 17
M  V30 17 1 13 18
M  V30 18 1 14 19
M  V30 19 2 16 20
M  V30 20 1 18 21
M  V30 21 1 21 22
M  V30 22 1 6 9
M  V30 23 1 11 15
M  V30 24 1 17 20
M  V30 25 1 19 21
M  V30 26 1 3 23
M  V30 27 1 6 24
M  V30 28 1 9 25
M  V30 29 1 10 26
M  V30 30 1 10 27
M  V30 31 1 12 28
M  V30 32 1 13 29
M  V30 33 1 13 30
M  V30 34 1 14 31
M  V30 35 1 14 32
M  V30 36 1 15 33
M  V30 37 1 15 34
M  V30 38 1 16 35
M  V30 39 1 17 36
M  V30 40 1 18 37
M  V30 41 1 18 38
M  V30 42 1 19 39
M  V30 43 1 19 40
M  V30 44 1 20 41
M  V30 45 1 22 42
M  V30 46 1 22 43
M  V30 47 1 22 44
M  V30 END BOND
M  V30 END CTAB
M  END
>  <Column 1>
3102

>  <level_0>
5254

>  <index>
5255

>  <Unnamed: 0>
5255

>  <NO.>
5267

>  <Name>
azatadine

>  <IUPAC_name>
2-(1-methylpiperidin-4-ylidene)-4-azatricyclo[9.4.0.03-8]pentadeca-1(15)-3(8)-4-6-11-13-hexaene

>  <SMILES>
CN1CCC(=C2c3ccccc3CCc3cccnc32)CC1

>  <CID>
19861

>  <logBB>


>  <BBB+/BBB->
BBB+

>  <Inchi>
InChI=1S/C20H22N2/c1-22-13-10-16(11-14-22)19-18-7-3-2-5-15(18)8-9-17-6-4-12-21-20(17)19/h2-7-12H-8-11-13-14H2-1H3

>  <threshold>


>  <reference>
R14|R23|R27|

>  <group>
C

>  <Class>
1

>  <ABC>
17.58

>  <ABCGG>
13.65

>  <nAcid>
0

>  <nBase>
1

>  <nAromAtom>
12

>  <nAromBond>
12

>  <nAtom>
44

>  <nHeavyAtom>
22

>  <nSpiro>
0

>  <nBridgehead>
0

>  <nHetero>
2

>  <nN>
2

>  <nO>
0

>  <nF>
0

>  <BalabanJ>
1.59

>  <BertzCT>
670.49

>  <nBonds>
47

>  <nBondsO>
25

>  <nBondsS>
34

>  <nBondsD>
1

>  <nBondsT>
0

>  <nBondsA>
12

>  <nBondsM>
13

>  <nBondsKS>
40

>  <nBondsKD>
7

>  <RNCG>
0.27

>  <RPCG>
0.07

>  <FCSP3>
0.35

>  <SZ>
26

>  <Sm>
24.18

>  <Sv>
27.48

>  <Sse>
43.09

>  <Sp>
30.1

>  <Si>
49.15

>  <MZ>
0.59

>  <Mm>
0.55

>  <Mv>
0.62

>  <Mse>
0.98

>  <Mp>
0.68

>  <Mi>
1.12

>  <NsCH3>
1

>  <NdCH2>
0

>  <NssCH2>
6

>  <NtCH>
0

>  <NdsCH>
0

>  <NaaCH>
7

>  <NsssCH>
0

>  <NddC>
0

>  <NtsC>
0

>  <NdssC>
2

>  <NaasC>
4

>  <NaaaC>
0

>  <NssssC>
0

>  <NsNH3>
0

>  <NsNH2>
0

>  <NssNH2>
0

>  <NdNH>
0

>  <NssNH>
0

>  <NaaNH>
0

>  <NtN>
0

>  <NsssNH>
0

>  <NdsN>
0

>  <NaaN>
1

>  <NsssN>
1

>  <NddsN>
0

>  <NaasN>
0

>  <NssssN>
0

>  <NsOH>
0

>  <NdO>
0

>  <NssO>
0

>  <NaaO>
0

>  <NsF>
0

>  <NsSiH3>
0

>  <NssSiH2>
0

>  <NsssSiH>
0

>  <NssssSi>
0

>  <NsPH2>
0

>  <NssPH>
0

>  <NsssP>
0

>  <NdsssP>
0

>  <NsssssP>
0

>  <NsSH>
0

>  <NdS>
0

>  <NssS>
0

>  <NaaS>
0

>  <NdssS>
0

>  <NddssS>
0

>  <NsCl>
0

>  <NsBr>
0

>  <NsI>
0

>  <fragCpx>
163.02

>  <fMF>
0.48

>  <nHBAcc>
2

>  <nHBDon>
0

>  <Kier1>
15.52

>  <Kier2>
6.86

>  <Lipinski>
1

>  <GhoseFilter>
1

>  <FilterItLogS>
-5.39

>  <VMcGowan>
239.08

>  <LabuteASA>
132.05

>  <PEOE_VSA1>
4.9

>  <PEOE_VSA2>
4.98

>  <PEOE_VSA3>
0

>  <PEOE_VSA4>
0

>  <PEOE_VSA5>
0

>  <PEOE_VSA6>
35.9

>  <PEOE_VSA7>
55.49

>  <PEOE_VSA8>
24.86

>  <PEOE_VSA9>
5.69

>  <PEOE_VSA10>
0

>  <PEOE_VSA11>
0

>  <PEOE_VSA12>
0

>  <PEOE_VSA13>
0

>  <SMR_VSA1>
0

>  <SMR_VSA2>
0

>  <SMR_VSA3>
9.88

>  <SMR_VSA4>
0

>  <SMR_VSA5>
25.68

>  <SMR_VSA6>
20.14

>  <SMR_VSA7>
70.55

>  <SMR_VSA8>
0

>  <SMR_VSA9>
0

>  <SlogP_VSA1>
0

>  <SlogP_VSA2>
30.02

>  <SlogP_VSA3>
12.84

>  <SlogP_VSA4>
0

>  <SlogP_VSA5>
35.23

>  <SlogP_VSA6>
48.17

>  <SlogP_VSA7>
0

>  <SlogP_VSA8>
5.57

>  <SlogP_VSA9>
0

>  <SlogP_VSA10>
0

>  <SlogP_VSA11>
0

>  <EState_VSA1>
0

>  <EState_VSA2>
0

>  <EState_VSA3>
0

>  <EState_VSA4>
38.77

>  <EState_VSA5>
27.96

>  <EState_VSA6>
5.57

>  <EState_VSA7>
6.2

>  <EState_VSA8>
48.35

>  <EState_VSA9>
4.98

>  <EState_VSA10>
0

>  <VSA_EState1>
0

>  <VSA_EState2>
7.2

>  <VSA_EState3>
0

>  <VSA_EState4>
8.54

>  <VSA_EState5>
0

>  <VSA_EState6>
13.24

>  <VSA_EState7>
6.48

>  <VSA_EState8>
2.31

>  <VSA_EState9>
2.22

>  <apol>
50.27

>  <bpol>
24.92

>  <nRing>
4

>  <nHRing>
2

>  <naRing>
2

>  <naHRing>
1

>  <nARing 2>
2

>  <nAHRing 2>
1

>  <nFRing>
1

>  <nFHRing>
1

>  <nFaRing>
0

>  <nFaHRing>
0

>  <nFARing 2>
1

>  <nFAHRing 2>
1

>  <nRot>
0

>  <SLogP>
3.71

>  <SMR>
90.84

>  <TopoPSA(NO)>
16.13

>  <TopoPSA>
16.13

>  <JGI1>
0.12

>  <JGI2>
0.07

>  <JGI3>
0.04

>  <JGI4>
0.04

>  <JGI5>
0.01

>  <Diameter>
9

>  <Radius>
5

>  <TMWC10>
122.29

>  <TSRW10>
64.56

>  <MW>
290.18

>  <AMW>
6.59

>  <WPath>
928

>  <WPol>
40

>  <Zagreb1>
120

>  <Zagreb2>
144

>  <mZagreb2>
4.81

>  <yes>


>  <nAR-cont>
1

>  <nHA-cont>
0.983774276

>  <MWHBN>
0.117407613

>  <MWHBN-cont>
0.817991927

>  <TPSA-cont>
0.887402584

>  <pka_cont>
0.97

>  <yes.1>


>  <BBB_SCORE>
5.470567334

>  <MMFF94 Energy>
103.47

$$$$
Compound 2510
Actelion Java MolfileCreator 2.0

  0  0  0  0  0  0              0 V3000
M  V30 BEGIN CTAB
M  V30 COUNTS 41 44 0 0 0
M  V30 BEGIN ATOM
M  V30 1 S -0.5672 0.5672 -3.2449 0
M  V30 2 C -1.3435 -0.8423 -2.4805 0
M  V30 3 C 1.0694 0.5057 -2.5446 0
M  V30 4 C -0.803 -1.4978 -1.3563 0
M  V30 5 C -2.5628 -1.2655 -3.0386 0
M  V30 6 C 1.3916 -0.2812 -1.4213 0
M  V30 7 C 2.0468 1.3034 -3.1657 0
M  V30 8 N 0.4136 -1.0684 -0.7611 0
M  V30 9 C -1.5113 -2.6113 -0.8588 0
M  V30 10 C -3.2493 -2.3554 -2.5117 0
M  V30 11 C 2.7396 -0.2865 -1.0082 0
M  V30 12 C 3.3615 1.3059 -2.7092 0
M  V30 13 C 0.4982 -1.1516 0.7196 0
M  V30 14 C -2.7187 -3.0336 -1.4243 0
M  V30 15 C 3.7105 0.5006 -1.6356 0
M  V30 16 C -0.5011 -0.2102 1.4105 0 CFG=2
M  V30 17 C -0.1166 1.2735 1.328 0
M  V30 18 C -0.6034 -0.4946 2.9132 0
M  V30 19 N 0.0668 1.6948 2.7236 0
M  V30 20 C -0.8421 0.8749 3.519 0
M  V30 21 C -0.157 3.121 2.9073 0
M  V30 22 H -2.982 -0.7459 -3.8977 0
M  V30 23 H 1.7867 1.9226 -4.0214 0
M  V30 24 H -1.1233 -3.1955 -0.0305 0
M  V30 25 H -4.1869 -2.6773 -2.9563 0
M  V30 26 H 3.0728 -0.9351 -0.2033 0
M  V30 27 H 4.1098 1.9207 -3.2014 0
M  V30 28 H 0.3283 -2.1838 1.0458 0
M  V30 29 H 1.4977 -0.9232 1.1031 0
M  V30 30 H -3.2361 -3.8977 -1.0154 0
M  V30 31 H 4.7393 0.4727 -1.286 0
M  V30 32 H -1.5045 -0.3284 0.9826 0
M  V30 33 H -0.9315 1.8246 0.8409 0
M  V30 34 H 0.7997 1.4572 0.7612 0
M  V30 35 H 0.3297 -0.9226 3.3009 0
M  V30 36 H -1.4144 -1.1933 3.1415 0
M  V30 37 H -0.5929 0.8936 4.5843 0
M  V30 38 H -1.8896 1.1753 3.3906 0
M  V30 39 H 0.0139 3.4022 3.9521 0
M  V30 40 H -1.1743 3.4231 2.6335 0
M  V30 41 H 0.5484 3.6994 2.3012 0
M  V30 END ATOM
M  V30 BEGIN BOND
M  V30 1 1 1 2
M  V30 2 1 1 3
M  V30 3 2 2 4
M  V30 4 1 2 5
M  V30 5 2 3 6
M  V30 6 1 3 7
M  V30 7 1 4 8
M  V30 8 1 4 9
M  V30 9 2 5 10
M  V30 10 1 6 11
M  V30 11 2 7 12
M  V30 12 1 8 13
M  V30 13 2 9 14
M  V30 14 2 11 15
M  V30 15 1 13 16
M  V30 16 1 16 17
M  V30 17 1 16 18
M  V30 18 1 17 19
M  V30 19 1 18 20
M  V30 20 1 19 21
M  V30 21 1 6 8
M  V30 22 1 10 14
M  V30 23 1 12 15
M  V30 24 1 19 20
M  V30 25 1 5 22
M  V30 26 1 7 23
M  V30 27 1 9 24
M  V30 28 1 10 25
M  V30 29 1 11 26
M  V30 30 1 12 27
M  V30 31 1 13 28
M  V30 32 1 13 29
M  V30 33 1 14 30
M  V30 34 1 15 31
M  V30 35 1 16 32
M  V30 36 1 17 33
M  V30 37 1 17 34
M  V30 38 1 18 35
M  V30 39 1 18 36
M  V30 40 1 20 37
M  V30 41 1 20 38
M  V30 42 1 21 39
M  V30 43 1 21 40
M  V30 44 1 21 41
M  V30 END BOND
M  V30 BEGIN COLLECTION
M  V30 MDLV30/STERAC1 ATOMS=(1 16)
M  V30 END COLLECTION
M  V30 END CTAB
M  END
>  <Column 1>
3103

>  <level_0>
5255

>  <index>
5256

>  <Unnamed: 0>
5256

>  <NO.>
5268

>  <Name>
methdilazine

>  <IUPAC_name>
10-[(1-methylpyrrolidin-3-yl)methyl]phenothiazine

>  <SMILES>
CN1CCC(CN2c3ccccc3Sc3ccccc32)C1

>  <CID>
14677

>  <logBB>


>  <BBB+/BBB->
BBB+

>  <Inchi>
InChI=1S/C18H20N2S/c1-19-11-10-14(12-19)13-20-15-6-2-4-8-17(15)21-18-9-5-3-7-16(18)20/h2-9-14H-10-13H2-1H3

>  <threshold>


>  <reference>
R14|R23|

>  <group>
C

>  <Class>
1

>  <ABC>
16.92

>  <ABCGG>
13.34

>  <nAcid>
0

>  <nBase>
1

>  <nAromAtom>
12

>  <nAromBond>
12

>  <nAtom>
41

>  <nHeavyAtom>
21

>  <nSpiro>
0

>  <nBridgehead>
0

>  <nHetero>
3

>  <nN>
2

>  <nO>
0

>  <nF>
0

>  <BalabanJ>
1.5

>  <BertzCT>
609.67

>  <nBonds>
44

>  <nBondsO>
24

>  <nBondsS>
32

>  <nBondsD>
0

>  <nBondsT>
0

>  <nBondsA>
12

>  <nBondsM>
12

>  <nBondsKS>
38

>  <nBondsKD>
6

>  <RNCG>
0.28

>  <RPCG>
0.05

>  <FCSP3>
0.33

>  <SZ>
26.33

>  <Sm>
24.68

>  <Sv>
26.12

>  <Sse>
40.28

>  <Sp>
29.04

>  <Si>
45.65

>  <MZ>
0.64

>  <Mm>
0.6

>  <Mv>
0.64

>  <Mse>
0.98

>  <Mp>
0.71

>  <Mi>
1.11

>  <NsCH3>
1

>  <NdCH2>
0

>  <NssCH2>
4

>  <NtCH>
0

>  <NdsCH>
0

>  <NaaCH>
8

>  <NsssCH>
1

>  <NddC>
0

>  <NtsC>
0

>  <NdssC>
0

>  <NaasC>
4

>  <NaaaC>
0

>  <NssssC>
0

>  <NsNH3>
0

>  <NsNH2>
0

>  <NssNH2>
0

>  <NdNH>
0

>  <NssNH>
0

>  <NaaNH>
0

>  <NtN>
0

>  <NsssNH>
0

>  <NdsN>
0

>  <NaaN>
0

>  <NsssN>
2

>  <NddsN>
0

>  <NaasN>
0

>  <NssssN>
0

>  <NsOH>
0

>  <NdO>
0

>  <NssO>
0

>  <NaaO>
0

>  <NsF>
0

>  <NsSiH3>
0

>  <NssSiH2>
0

>  <NsssSiH>
0

>  <NssssSi>
0

>  <NsPH2>
0

>  <NssPH>
0

>  <NsssP>
0

>  <NdsssP>
0

>  <NsssssP>
0

>  <NsSH>
0

>  <NdS>
0

>  <NssS>
1

>  <NaaS>
0

>  <NdssS>
0

>  <NddssS>
0

>  <NsCl>
0

>  <NsBr>
0

>  <NsI>
0

>  <fragCpx>
156.03

>  <fMF>
0.49

>  <nHBAcc>
3

>  <nHBDon>
0

>  <Kier1>
14.58

>  <Kier2>
6.25

>  <Lipinski>
1

>  <GhoseFilter>
1

>  <FilterItLogS>
-4.14

>  <VMcGowan>
231.55

>  <LabuteASA>
130.31

>  <PEOE_VSA1>
9.8

>  <PEOE_VSA2>
0

>  <PEOE_VSA3>
0

>  <PEOE_VSA4>
0

>  <PEOE_VSA5>
0

>  <PEOE_VSA6>
36.03

>  <PEOE_VSA7>
50.2

>  <PEOE_VSA8>
22.88

>  <PEOE_VSA9>
11.37

>  <PEOE_VSA10>
0

>  <PEOE_VSA11>
0

>  <PEOE_VSA12>
0

>  <PEOE_VSA13>
0

>  <SMR_VSA1>
0

>  <SMR_VSA2>
0

>  <SMR_VSA3>
4.9

>  <SMR_VSA4>
5.92

>  <SMR_VSA5>
16.21

>  <SMR_VSA6>
31.58

>  <SMR_VSA7>
48.53

>  <SMR_VSA8>
0

>  <SMR_VSA9>
0

>  <SlogP_VSA1>
4.9

>  <SlogP_VSA2>
31.58

>  <SlogP_VSA3>
0

>  <SlogP_VSA4>
5.92

>  <SlogP_VSA5>
6.42

>  <SlogP_VSA6>
58.32

>  <SlogP_VSA7>
0

>  <SlogP_VSA8>
0

>  <SlogP_VSA9>
0

>  <SlogP_VSA10>
11.37

>  <SlogP_VSA11>
0

>  <EState_VSA1>
0

>  <EState_VSA2>
0

>  <EState_VSA3>
0

>  <EState_VSA4>
12.46

>  <EState_VSA5>
40.68

>  <EState_VSA6>
0

>  <EState_VSA7>
11.76

>  <EState_VSA8>
65.38

>  <EState_VSA9>
0

>  <EState_VSA10>
0

>  <VSA_EState1>
0

>  <VSA_EState2>
7.73

>  <VSA_EState3>
0

>  <VSA_EState4>
2.74

>  <VSA_EState5>
0.76

>  <VSA_EState6>
17.59

>  <VSA_EState7>
1.31

>  <VSA_EState8>
3.57

>  <VSA_EState9>
2.23

>  <apol>
48.5

>  <bpol>
25.94

>  <nRing>
4

>  <nHRing>
2

>  <naRing>
2

>  <naHRing>
0

>  <nARing 2>
2

>  <nAHRing 2>
2

>  <nFRing>
1

>  <nFHRing>
1

>  <nFaRing>
0

>  <nFaHRing>
0

>  <nFARing 2>
1

>  <nFAHRing 2>
1

>  <nRot>
2

>  <SLogP>
4.24

>  <SMR>
89.62

>  <TopoPSA(NO)>
6.48

>  <TopoPSA>
31.78

>  <JGI1>
0.15

>  <JGI2>
0.06

>  <JGI3>
0.05

>  <JGI4>
0.04

>  <JGI5>
0.02

>  <Diameter>
9

>  <Radius>
5

>  <TMWC10>
119.96

>  <TSRW10>
68.87

>  <MW>
296.13

>  <AMW>
7.22

>  <WPath>
859

>  <WPol>
33

>  <Zagreb1>
116

>  <Zagreb2>
139

>  <mZagreb2>
4.53

>  <yes>


>  <nAR-cont>
1

>  <nHA-cont>
0.994529749

>  <MWHBN>
0.17433318

>  <MWHBN-cont>
0.98027833

>  <TPSA-cont>
0.778155866

>  <pka_cont>
0.97

>  <yes.1>


>  <BBB_SCORE>
5.506258977

>  <MMFF94 Energy>
76.637

$$$$
Compound 2511
Actelion Java MolfileCreator 2.0

  0  0  0  0  0  0              0 V3000
M  V30 BEGIN CTAB
M  V30 COUNTS 44 46 0 0 0
M  V30 BEGIN ATOM
M  V30 1 O 0.3963 0.1585 -0.1585 0
M  V30 2 C 0.8249 1.3494 -0.8292 0
M  V30 3 C -0.9042 -0.3045 -0.5559 0
M  V30 4 C 0.2542 2.5912 -0.1407 0
M  V30 5 C 2.3522 1.3849 -0.7865 0
M  V30 6 C -0.7411 -1.3513 -1.6466 0
M  V30 7 C -1.6616 -0.8317 0.657 0
M  V30 8 C 0.8466 2.7807 1.2567 0
M  V30 9 C 2.8726 1.6214 0.6316 0
M  V30 10 C -1.5079 -1.2785 -2.8207 0
M  V30 11 C 0.1665 -2.4129 -1.5012 0
M  V30 12 C -1.0038 -1.2029 1.841 0
M  V30 13 C -3.0594 -0.9697 0.5997 0
M  V30 14 N 2.3134 2.8587 1.1971 0
M  V30 15 C -1.3663 -2.2405 -3.8228 0
M  V30 16 C 0.3065 -3.3733 -2.5038 0
M  V30 17 C -1.7215 -1.6874 2.9365 0
M  V30 18 C -3.7759 -1.4551 1.6956 0
M  V30 19 C 2.8627 3.0986 2.5322 0
M  V30 20 C -0.4596 -3.2865 -3.664 0
M  V30 21 C -3.1068 -1.8123 2.8637 0
M  V30 22 H 0.5068 1.3148 -1.8784 0
M  V30 23 H -1.4819 0.5444 -0.9451 0
M  V30 24 H -0.8349 2.5216 -0.0494 0
M  V30 25 H 0.4719 3.4768 -0.7511 0
M  V30 26 H 2.7188 2.1807 -1.447 0
M  V30 27 H 2.7583 0.4362 -1.1569 0
M  V30 28 H 0.5201 1.9668 1.9173 0
M  V30 29 H 0.4448 3.7136 1.6711 0
M  V30 30 H 3.9656 1.6997 0.5828 0
M  V30 31 H 2.639 0.7569 1.267 0
M  V30 32 H -2.2224 -0.4712 -2.9633 0
M  V30 33 H 0.7702 -2.4901 -0.5991 0
M  V30 34 H 0.0782 -1.1164 1.9162 0
M  V30 35 H -3.5997 -0.7037 -0.3059 0
M  V30 36 H -1.9648 -2.1747 -4.7276 0
M  V30 37 H 1.013 -4.189 -2.3771 0
M  V30 38 H -1.1967 -1.9694 3.8453 0
M  V30 39 H -4.8561 -1.5583 1.6356 0
M  V30 40 H 2.6174 2.2926 3.2333 0
M  V30 41 H 3.9529 3.197 2.4871 0
M  V30 42 H 2.4801 4.0402 2.9416 0
M  V30 43 H -0.3507 -4.0353 -4.4438 0
M  V30 44 H -3.664 -2.192 3.7159 0
M  V30 END ATOM
M  V30 BEGIN BOND
M  V30 1 1 1 2
M  V30 2 1 1 3
M  V30 3 1 2 4
M  V30 4 1 2 5
M  V30 5 1 3 6
M  V30 6 1 3 7
M  V30 7 1 4 8
M  V30 8 1 5 9
M  V30 9 2 6 10
M  V30 10 1 6 11
M  V30 11 2 7 12
M  V30 12 1 7 13
M  V30 13 1 8 14
M  V30 14 1 10 15
M  V30 15 2 11 16
M  V30 16 1 12 17
M  V30 17 2 13 18
M  V30 18 1 14 19
M  V30 19 2 15 20
M  V30 20 2 17 21
M  V30 21 1 9 14
M  V30 22 1 16 20
M  V30 23 1 18 21
M  V30 24 1 2 22
M  V30 25 1 3 23
M  V30 26 1 4 24
M  V30 27 1 4 25
M  V30 28 1 5 26
M  V30 29 1 5 27
M  V30 30 1 8 28
M  V30 31 1 8 29
M  V30 32 1 9 30
M  V30 33 1 9 31
M  V30 34 1 10 32
M  V30 35 1 11 33
M  V30 36 1 12 34
M  V30 37 1 13 35
M  V30 38 1 15 36
M  V30 39 1 16 37
M  V30 40 1 17 38
M  V30 41 1 18 39
M  V30 42 1 19 40
M  V30 43 1 19 41
M  V30 44 1 19 42
M  V30 45 1 20 43
M  V30 46 1 21 44
M  V30 END BOND
M  V30 END CTAB
M  END
>  <Column 1>
3104

>  <level_0>
5256

>  <index>
5257

>  <Unnamed: 0>
5257

>  <NO.>
5269

>  <Name>
diphenylpyraline

>  <IUPAC_name>
4-benzhydryloxy-1-methylpiperidine

>  <SMILES>
CN1CCC(OC(c2ccccc2)c2ccccc2)CC1

>  <CID>
3103

>  <logBB>


>  <BBB+/BBB->
BBB+

>  <Inchi>
InChI=1S/C19H23NO/c1-20-14-12-18(13-15-20)21-19(16-8-4-2-5-9-16)17-10-6-3-7-11-17/h2-11-18-19H-12-15H2-1H3

>  <threshold>


>  <reference>
R14|R23|

>  <group>
C

>  <Class>
1

>  <ABC>
16.29

>  <ABCGG>
13.05

>  <nAcid>
0

>  <nBase>
1

>  <nAromAtom>
12

>  <nAromBond>
12

>  <nAtom>
44

>  <nHeavyAtom>
21

>  <nSpiro>
0

>  <nBridgehead>
0

>  <nHetero>
2

>  <nN>
1

>  <nO>
1

>  <nF>
0

>  <BalabanJ>
1.6

>  <BertzCT>
492.51

>  <nBonds>
46

>  <nBondsO>
23

>  <nBondsS>
34

>  <nBondsD>
0

>  <nBondsT>
0

>  <nBondsA>
12

>  <nBondsM>
12

>  <nBondsKS>
40

>  <nBondsKD>
6

>  <RNCG>
0.27

>  <RPCG>
0.08

>  <FCSP3>
0.37

>  <SZ>
25.33

>  <Sm>
23.43

>  <Sv>
26.7

>  <Sse>
43.2

>  <Sp>
29.32

>  <Si>
49.28

>  <MZ>
0.58

>  <Mm>
0.53

>  <Mv>
0.61

>  <Mse>
0.98

>  <Mp>
0.67

>  <Mi>
1.12

>  <NsCH3>
1

>  <NdCH2>
0

>  <NssCH2>
4

>  <NtCH>
0

>  <NdsCH>
0

>  <NaaCH>
10

>  <NsssCH>
2

>  <NddC>
0

>  <NtsC>
0

>  <NdssC>
0

>  <NaasC>
2

>  <NaaaC>
0

>  <NssssC>
0

>  <NsNH3>
0

>  <NsNH2>
0

>  <NssNH2>
0

>  <NdNH>
0

>  <NssNH>
0

>  <NaaNH>
0

>  <NtN>
0

>  <NsssNH>
0

>  <NdsN>
0

>  <NaaN>
0

>  <NsssN>
1

>  <NddsN>
0

>  <NaasN>
0

>  <NssssN>
0

>  <NsOH>
0

>  <NdO>
0

>  <NssO>
1

>  <NaaO>
0

>  <NsF>
0

>  <NsSiH3>
0

>  <NssSiH2>
0

>  <NsssSiH>
0

>  <NssssSi>
0

>  <NsPH2>
0

>  <NssPH>
0

>  <NsssP>
0

>  <NdsssP>
0

>  <NsssssP>
0

>  <NsSH>
0

>  <NdS>
0

>  <NssS>
0

>  <NaaS>
0

>  <NdssS>
0

>  <NddssS>
0

>  <NsCl>
0

>  <NsBr>
0

>  <NsI>
0

>  <fragCpx>
109.02

>  <fMF>
0.45

>  <nHBAcc>
2

>  <nHBDon>
0

>  <Kier1>
15.88

>  <Kier2>
8.02

>  <Lipinski>
1

>  <GhoseFilter>
1

>  <FilterItLogS>
-4.07

>  <VMcGowan>
236.04

>  <LabuteASA>
126.91

>  <PEOE_VSA1>
9.64

>  <PEOE_VSA2>
0

>  <PEOE_VSA3>
0

>  <PEOE_VSA4>
0

>  <PEOE_VSA5>
0

>  <PEOE_VSA6>
60.66

>  <PEOE_VSA7>
31.02

>  <PEOE_VSA8>
13.09

>  <PEOE_VSA9>
6.1

>  <PEOE_VSA10>
6.1

>  <PEOE_VSA11>
0

>  <PEOE_VSA12>
0

>  <PEOE_VSA13>
0

>  <SMR_VSA1>
4.74

>  <SMR_VSA2>
0

>  <SMR_VSA3>
4.9

>  <SMR_VSA4>
0

>  <SMR_VSA5>
25.05

>  <SMR_VSA6>
20.14

>  <SMR_VSA7>
71.79

>  <SMR_VSA8>
0

>  <SMR_VSA9>
0

>  <SlogP_VSA1>
0

>  <SlogP_VSA2>
31.14

>  <SlogP_VSA3>
4.74

>  <SlogP_VSA4>
0

>  <SlogP_VSA5>
30.07

>  <SlogP_VSA6>
60.66

>  <SlogP_VSA7>
0

>  <SlogP_VSA8>
0

>  <SlogP_VSA9>
0

>  <SlogP_VSA10>
0

>  <SlogP_VSA11>
0

>  <EState_VSA1>
0

>  <EState_VSA2>
6.1

>  <EState_VSA3>
6.1

>  <EState_VSA4>
25.93

>  <EState_VSA5>
11.13

>  <EState_VSA6>
0

>  <EState_VSA7>
0

>  <EState_VSA8>
72.61

>  <EState_VSA9>
4.74

>  <EState_VSA10>
0

>  <VSA_EState1>
6.49

>  <VSA_EState2>
2.37

>  <VSA_EState3>
0

>  <VSA_EState4>
2.48

>  <VSA_EState5>
0

>  <VSA_EState6>
21.1

>  <VSA_EState7>
2.63

>  <VSA_EState8>
2.25

>  <VSA_EState9>
2.18

>  <apol>
48.97

>  <bpol>
26.52

>  <nRing>
3

>  <nHRing>
1

>  <naRing>
2

>  <naHRing>
0

>  <nARing 2>
1

>  <nAHRing 2>
1

>  <nFRing>
0

>  <nFHRing>
0

>  <nFaRing>
0

>  <nFaHRing>
0

>  <nFARing 2>
0

>  <nFAHRing 2>
0

>  <nRot>
4

>  <SLogP>
3.89

>  <SMR>
86.33

>  <TopoPSA(NO)>
12.47

>  <TopoPSA>
12.47

>  <JGI1>
0.13

>  <JGI2>
0.06

>  <JGI3>
0.03

>  <JGI4>
0.03

>  <JGI5>
0.01

>  <Diameter>
10

>  <Radius>
5

>  <TMWC10>
116.37

>  <TSRW10>
54.48

>  <MW>
281.18

>  <AMW>
6.39

>  <WPath>
930

>  <WPol>
29

>  <Zagreb1>
106

>  <Zagreb2>
121

>  <mZagreb2>
4.72

>  <yes>


>  <nAR-cont>
0.816016

>  <nHA-cont>
0.994529749

>  <MWHBN>
0.119271802

>  <MWHBN-cont>
0.826219601

>  <TPSA-cont>
0.912951657

>  <pka_cont>
0.97

>  <yes.1>


>  <BBB_SCORE>
5.360778464

>  <MMFF94 Energy>
58.458

$$$$
Compound 2512
Actelion Java MolfileCreator 2.0

  0  0  0  0  0  0              0 V3000
M  V30 BEGIN CTAB
M  V30 COUNTS 39 42 0 0 0
M  V30 BEGIN ATOM
M  V30 1 N 2.885 0.7206 0.9609 0
M  V30 2 C 1.8923 -0.3434 0.6894 0
M  V30 3 C 2.6301 1.9175 0.1341 0
M  V30 4 C 4.2396 0.2173 0.75 0
M  V30 5 C 0.4985 0.1887 0.6471 0
M  V30 6 C 1.252 2.5513 0.4345 0
M  V30 7 C 0.2123 1.4984 0.5476 0
M  V30 8 C -0.7392 -0.6812 0.725 0 CFG=2
M  V30 9 C -1.2311 1.6528 0.55 0
M  V30 10 C -0.8083 -1.7429 -0.3553 0
M  V30 11 C -1.819 0.3787 0.6445 0
M  V30 12 C -2.0124 2.792 0.4743 0
M  V30 13 C -0.877 -1.4094 -1.7185 0
M  V30 14 C -0.7833 -3.1007 0.001 0
M  V30 15 C -3.1969 0.2238 0.671 0
M  V30 16 C -3.4027 2.6441 0.496 0
M  V30 17 C -0.9259 -2.4055 -2.6951 0
M  V30 18 C -0.8319 -4.0956 -0.9774 0
M  V30 19 C -3.9895 1.3709 0.5933 0
M  V30 20 C -0.9036 -3.7478 -2.3243 0
M  V30 21 H 1.964 -1.0939 1.4853 0
M  V30 22 H 2.1071 -0.8413 -0.2646 0
M  V30 23 H 3.3977 2.6773 0.3264 0
M  V30 24 H 2.6914 1.6621 -0.9328 0
M  V30 25 H 4.4148 -0.0789 -0.2904 0
M  V30 26 H 4.4329 -0.6485 1.3929 0
M  V30 27 H 4.9789 0.9797 1.0195 0
M  V30 28 H 1.0044 3.2591 -0.3644 0
M  V30 29 H 1.3004 3.1122 1.3756 0
M  V30 30 H -0.7857 -1.1395 1.7217 0
M  V30 31 H -1.5648 3.7771 0.4023 0
M  V30 32 H -0.8945 -0.3656 -2.0269 0
M  V30 33 H -0.7258 -3.3941 1.0471 0
M  V30 34 H -3.6489 -0.7599 0.744 0
M  V30 35 H -4.0386 3.5244 0.4382 0
M  V30 36 H -0.9821 -2.1314 -3.7452 0
M  V30 37 H -0.8139 -5.143 -0.6877 0
M  V30 38 H -5.0731 1.2791 0.6083 0
M  V30 39 H -0.9424 -4.5225 -3.0852 0
M  V30 END ATOM
M  V30 BEGIN BOND
M  V30 1 1 1 2
M  V30 2 1 1 3
M  V30 3 1 1 4
M  V30 4 1 2 5
M  V30 5 1 3 6
M  V30 6 2 5 7
M  V30 7 1 5 8
M  V30 8 1 7 9
M  V30 9 1 8 10
M  V30 10 1 8 11
M  V30 11 1 9 12
M  V30 12 2 10 13
M  V30 13 1 10 14
M  V30 14 1 11 15
M  V30 15 2 12 16
M  V30 16 1 13 17
M  V30 17 2 14 18
M  V30 18 2 15 19
M  V30 19 2 17 20
M  V30 20 1 6 7
M  V30 21 2 9 11
M  V30 22 1 16 19
M  V30 23 1 18 20
M  V30 24 1 2 21
M  V30 25 1 2 22
M  V30 26 1 3 23
M  V30 27 1 3 24
M  V30 28 1 4 25
M  V30 29 1 4 26
M  V30 30 1 4 27
M  V30 31 1 6 28
M  V30 32 1 6 29
M  V30 33 1 8 30
M  V30 34 1 12 31
M  V30 35 1 13 32
M  V30 36 1 14 33
M  V30 37 1 15 34
M  V30 38 1 16 35
M  V30 39 1 17 36
M  V30 40 1 18 37
M  V30 41 1 19 38
M  V30 42 1 20 39
M  V30 END BOND
M  V30 BEGIN COLLECTION
M  V30 MDLV30/STERAC1 ATOMS=(1 8)
M  V30 END COLLECTION
M  V30 END CTAB
M  END
>  <Column 1>
3105

>  <level_0>
5257

>  <index>
5258

>  <Unnamed: 0>
5258

>  <NO.>
5270

>  <Name>
phenindamine

>  <IUPAC_name>
2-methyl-9-phenyl-1-3-4-9-tetrahydroindeno[2-1-c]pyridine

>  <SMILES>
CN1CCC2=C(C1)C(c1ccccc1)c1ccccc12

>  <CID>
11291

>  <logBB>


>  <BBB+/BBB->
BBB+

>  <Inchi>
InChI=1S/C19H19N/c1-20-12-11-16-15-9-5-6-10-17(15)19(18(16)13-20)14-7-3-2-4-8-14/h2-10-19H-11-13H2-1H3

>  <threshold>


>  <reference>
R14|R23|

>  <group>
C

>  <Class>
1

>  <ABC>
16.13

>  <ABCGG>
12.87

>  <nAcid>
0

>  <nBase>
1

>  <nAromAtom>
12

>  <nAromBond>
12

>  <nAtom>
39

>  <nHeavyAtom>
20

>  <nSpiro>
0

>  <nBridgehead>
0

>  <nHetero>
1

>  <nN>
1

>  <nO>
0

>  <nF>
0

>  <BalabanJ>
1.59

>  <BertzCT>
669.18

>  <nBonds>
42

>  <nBondsO>
23

>  <nBondsS>
29

>  <nBondsD>
1

>  <nBondsT>
0

>  <nBondsA>
12

>  <nBondsM>
13

>  <nBondsKS>
35

>  <nBondsKD>
7

>  <RNCG>
0.29

>  <RPCG>
0.06

>  <FCSP3>
0.26

>  <SZ>
23.33

>  <Sm>
21.76

>  <Sv>
24.91

>  <Sse>
38.1

>  <Sp>
27.24

>  <Si>
43.24

>  <MZ>
0.6

>  <Mm>
0.56

>  <Mv>
0.64

>  <Mse>
0.98

>  <Mp>
0.7

>  <Mi>
1.11

>  <NsCH3>
1

>  <NdCH2>
0

>  <NssCH2>
3

>  <NtCH>
0

>  <NdsCH>
0

>  <NaaCH>
9

>  <NsssCH>
1

>  <NddC>
0

>  <NtsC>
0

>  <NdssC>
2

>  <NaasC>
3

>  <NaaaC>
0

>  <NssssC>
0

>  <NsNH3>
0

>  <NsNH2>
0

>  <NssNH2>
0

>  <NdNH>
0

>  <NssNH>
0

>  <NaaNH>
0

>  <NtN>
0

>  <NsssNH>
0

>  <NdsN>
0

>  <NaaN>
0

>  <NsssN>
1

>  <NddsN>
0

>  <NaasN>
0

>  <NssssN>
0

>  <NsOH>
0

>  <NdO>
0

>  <NssO>
0

>  <NaaO>
0

>  <NsF>
0

>  <NsSiH3>
0

>  <NssSiH2>
0

>  <NsssSiH>
0

>  <NssssSi>
0

>  <NsPH2>
0

>  <NssPH>
0

>  <NsssP>
0

>  <NdsssP>
0

>  <NsssssP>
0

>  <NsSH>
0

>  <NdS>
0

>  <NssS>
0

>  <NaaS>
0

>  <NdssS>
0

>  <NddssS>
0

>  <NsCl>
0

>  <NsBr>
0

>  <NsI>
0

>  <fragCpx>
149.01

>  <fMF>
0.49

>  <nHBAcc>
1

>  <nHBDon>
0

>  <Kier1>
13.65

>  <Kier2>
5.65

>  <Lipinski>
1

>  <GhoseFilter>
1

>  <FilterItLogS>
-4.68

>  <VMcGowan>
215.01

>  <LabuteASA>
120.1

>  <PEOE_VSA1>
4.9

>  <PEOE_VSA2>
0

>  <PEOE_VSA3>
0

>  <PEOE_VSA4>
0

>  <PEOE_VSA5>
0

>  <PEOE_VSA6>
54.6

>  <PEOE_VSA7>
41.31

>  <PEOE_VSA8>
19.01

>  <PEOE_VSA9>
0

>  <PEOE_VSA10>
0

>  <PEOE_VSA11>
0

>  <PEOE_VSA12>
0

>  <PEOE_VSA13>
0

>  <SMR_VSA1>
0

>  <SMR_VSA2>
0

>  <SMR_VSA3>
4.9

>  <SMR_VSA4>
0

>  <SMR_VSA5>
12.34

>  <SMR_VSA6>
20.14

>  <SMR_VSA7>
76.86

>  <SMR_VSA8>
0

>  <SMR_VSA9>
0

>  <SlogP_VSA1>
0

>  <SlogP_VSA2>
25.04

>  <SlogP_VSA3>
0

>  <SlogP_VSA4>
0

>  <SlogP_VSA5>
29.03

>  <SlogP_VSA6>
60.17

>  <SlogP_VSA7>
0

>  <SlogP_VSA8>
5.57

>  <SlogP_VSA9>
0

>  <SlogP_VSA10>
0

>  <SlogP_VSA11>
0

>  <EState_VSA1>
0

>  <EState_VSA2>
0

>  <EState_VSA3>
5.92

>  <EState_VSA4>
6.54

>  <EState_VSA5>
29.66

>  <EState_VSA6>
11.15

>  <EState_VSA7>
0

>  <EState_VSA8>
66.54

>  <EState_VSA9>
0

>  <EState_VSA10>
0

>  <VSA_EState1>
0

>  <VSA_EState2>
2.45

>  <VSA_EState3>
0

>  <VSA_EState4>
7.64

>  <VSA_EState5>
0.46

>  <VSA_EState6>
19.92

>  <VSA_EState7>
1.19

>  <VSA_EState8>
2.28

>  <VSA_EState9>
2.23

>  <apol>
45.5

>  <bpol>
20.77

>  <nRing>
4

>  <nHRing>
1

>  <naRing>
2

>  <naHRing>
0

>  <nARing 2>
2

>  <nAHRing 2>
1

>  <nFRing>
1

>  <nFHRing>
1

>  <nFaRing>
0

>  <nFaHRing>
0

>  <nFARing 2>
1

>  <nFAHRing 2>
1

>  <nRot>
1

>  <SLogP>
3.92

>  <SMR>
83.76

>  <TopoPSA(NO)>
3.24

>  <TopoPSA>
3.24

>  <JGI1>
0.11

>  <JGI2>
0.06

>  <JGI3>
0.06

>  <JGI4>
0.03

>  <JGI5>
0.02

>  <Diameter>
8

>  <Radius>
4

>  <TMWC10>
118.56

>  <TSRW10>
68.91

>  <MW>
261.15

>  <AMW>
6.7

>  <WPath>
715

>  <WPol>
34

>  <Zagreb1>
112

>  <Zagreb2>
137

>  <mZagreb2>
4.33

>  <yes>


>  <nAR-cont>
1

>  <nHA-cont>
0.999629945

>  <MWHBN>
0.061880667

>  <MWHBN-cont>
0.469220905

>  <TPSA-cont>
0.977382788

>  <pka_cont>
0.97

>  <yes.1>


>  <BBB_SCORE>
5.143226879

>  <MMFF94 Energy>
64.942

$$$$
Compound 2513
Actelion Java MolfileCreator 2.0

  0  0  0  0  0  0              0 V3000
M  V30 BEGIN CTAB
M  V30 COUNTS 28 29 0 0 0
M  V30 BEGIN ATOM
M  V30 1 S -2.9739 -1.0441 -2.2499 0
M  V30 2 C -1.544 -1.699 -1.5415 0
M  V30 3 C -3.3541 -2.5042 -3.0462 0
M  V30 4 C -1.3817 -3.0171 -1.9436 0
M  V30 5 C -0.6662 -0.9535 -0.6966 0
M  V30 6 C -2.4202 -3.4817 -2.8014 0
M  V30 7 C -0.982 0.2172 -0.1247 0
M  V30 8 C -0.0194 0.9097 0.7863 0
M  V30 9 N -0.5742 1.3169 1.8883 0
M  V30 10 N 1.3236 1.0898 0.4779 0
M  V30 11 C 0.2677 2.0011 2.8656 0
M  V30 12 C 2.2482 1.6119 1.4757 0
M  V30 13 C 1.8586 0.9724 -0.8702 0
M  V30 14 C 1.6736 1.4374 2.866 0
M  V30 15 H -4.2437 -2.5747 -3.6567 0
M  V30 16 H -0.5474 -3.6312 -1.6257 0
M  V30 17 H 0.3004 -1.4006 -0.4807 0
M  V30 18 H -2.4773 -4.4808 -3.2153 0
M  V30 19 H -1.9583 0.6818 -0.1948 0
M  V30 20 H 0.2696 3.0781 2.6607 0
M  V30 21 H -0.1726 1.8642 3.8592 0
M  V30 22 H 3.2111 1.092 1.4111 0
M  V30 23 H 2.432 2.6748 1.2767 0
M  V30 24 H 1.1246 1.278 -1.6229 0
M  V30 25 H 2.7354 1.6158 -1.0056 0
M  V30 26 H 2.1706 -0.0572 -1.0681 0
M  V30 27 H 1.6506 0.3734 3.133 0
M  V30 28 H 2.2969 1.9512 3.6052 0
M  V30 END ATOM
M  V30 BEGIN BOND
M  V30 1 1 1 2
M  V30 2 1 1 3
M  V30 3 2 2 4
M  V30 4 1 2 5
M  V30 5 2 3 6
M  V30 6 2 5 7
M  V30 7 1 7 8
M  V30 8 2 8 9
M  V30 9 1 8 10
M  V30 10 1 9 11
M  V30 11 1 10 12
M  V30 12 1 10 13
M  V30 13 1 11 14
M  V30 14 1 4 6
M  V30 15 1 12 14
M  V30 16 1 3 15
M  V30 17 1 4 16
M  V30 18 1 5 17
M  V30 19 1 6 18
M  V30 20 1 7 19
M  V30 21 1 11 20
M  V30 22 1 11 21
M  V30 23 1 12 22
M  V30 24 1 12 23
M  V30 25 1 13 24
M  V30 26 1 13 25
M  V30 27 1 13 26
M  V30 28 1 14 27
M  V30 29 1 14 28
M  V30 END BOND
M  V30 END CTAB
M  END
>  <Column 1>
3108

>  <level_0>
5260

>  <index>
5261

>  <Unnamed: 0>
5261

>  <NO.>
5273

>  <Name>
pyrantel

>  <IUPAC_name>
1-methyl-2-(2-thiophen-2-ylethenyl)-5-6-dihydro-4h-pyrimidine

>  <SMILES>
CN1CCCN=C1C=Cc1cccs1

>  <CID>
4989

>  <logBB>


>  <BBB+/BBB->
BBB-

>  <Inchi>
InChI=1S/C11H14N2S/c1-13-8-3-7-12-11(13)6-5-10-4-2-9-14-10/h2-4-6-9H-3-7-8H2-1H3

>  <threshold>


>  <reference>
R14|

>  <group>
C

>  <Class>
-1

>  <ABC>
10.68

>  <ABCGG>
9.52

>  <nAcid>
0

>  <nBase>
2

>  <nAromAtom>
5

>  <nAromBond>
5

>  <nAtom>
28

>  <nHeavyAtom>
14

>  <nSpiro>
0

>  <nBridgehead>
0

>  <nHetero>
3

>  <nN>
2

>  <nO>
0

>  <nF>
0

>  <BalabanJ>
1.67

>  <BertzCT>
338.18

>  <nBonds>
29

>  <nBondsO>
15

>  <nBondsS>
22

>  <nBondsD>
2

>  <nBondsT>
0

>  <nBondsA>
5

>  <nBondsM>
7

>  <nBondsKS>
25

>  <nBondsKD>
4

>  <RNCG>
0.38

>  <RPCG>
0.13

>  <FCSP3>
0.36

>  <SZ>
18.33

>  <Sm>
17.18

>  <Sv>
17.5

>  <Sse>
27.62

>  <Sp>
19.64

>  <Si>
31.41

>  <MZ>
0.65

>  <Mm>
0.61

>  <Mv>
0.62

>  <Mse>
0.99

>  <Mp>
0.7

>  <Mi>
1.12

>  <NsCH3>
1

>  <NdCH2>
0

>  <NssCH2>
3

>  <NtCH>
0

>  <NdsCH>
2

>  <NaaCH>
3

>  <NsssCH>
0

>  <NddC>
0

>  <NtsC>
0

>  <NdssC>
1

>  <NaasC>
1

>  <NaaaC>
0

>  <NssssC>
0

>  <NsNH3>
0

>  <NsNH2>
0

>  <NssNH2>
0

>  <NdNH>
0

>  <NssNH>
0

>  <NaaNH>
0

>  <NtN>
0

>  <NsssNH>
0

>  <NdsN>
1

>  <NaaN>
0

>  <NsssN>
1

>  <NddsN>
0

>  <NaasN>
0

>  <NssssN>
0

>  <NsOH>
0

>  <NdO>
0

>  <NssO>
0

>  <NaaO>
0

>  <NsF>
0

>  <NsSiH3>
0

>  <NssSiH2>
0

>  <NsssSiH>
0

>  <NssssSi>
0

>  <NsPH2>
0

>  <NssPH>
0

>  <NsssP>
0

>  <NdsssP>
0

>  <NsssssP>
0

>  <NsSH>
0

>  <NdS>
0

>  <NssS>
0

>  <NaaS>
1

>  <NdssS>
0

>  <NddssS>
0

>  <NsCl>
0

>  <NsBr>
0

>  <NsI>
0

>  <fragCpx>
43.03

>  <fMF>
0.46

>  <nHBAcc>
3

>  <nHBDon>
0

>  <Kier1>
10.52

>  <Kier2>
5.19

>  <Lipinski>
1

>  <GhoseFilter>
1

>  <FilterItLogS>
-2.17

>  <VMcGowan>
163.24

>  <LabuteASA>
88.59

>  <PEOE_VSA1>
4.9

>  <PEOE_VSA2>
4.99

>  <PEOE_VSA3>
0

>  <PEOE_VSA4>
0

>  <PEOE_VSA5>
11.34

>  <PEOE_VSA6>
6.07

>  <PEOE_VSA7>
30.02

>  <PEOE_VSA8>
25.01

>  <PEOE_VSA9>
0

>  <PEOE_VSA10>
5.84

>  <PEOE_VSA11>
0

>  <PEOE_VSA12>
0

>  <PEOE_VSA13>
0

>  <SMR_VSA1>
0

>  <SMR_VSA2>
0

>  <SMR_VSA3>
4.9

>  <SMR_VSA4>
4.99

>  <SMR_VSA5>
6.42

>  <SMR_VSA6>
20.14

>  <SMR_VSA7>
28.47

>  <SMR_VSA8>
0

>  <SMR_VSA9>
0

>  <SlogP_VSA1>
0

>  <SlogP_VSA2>
30.87

>  <SlogP_VSA3>
0

>  <SlogP_VSA4>
0

>  <SlogP_VSA5>
11.3

>  <SlogP_VSA6>
28.58

>  <SlogP_VSA7>
0

>  <SlogP_VSA8>
6.08

>  <SlogP_VSA9>
0

>  <SlogP_VSA10>
0

>  <SlogP_VSA11>
0

>  <EState_VSA1>
0

>  <EState_VSA2>
0

>  <EState_VSA3>
0

>  <EState_VSA4>
18.93

>  <EState_VSA5>
11.3

>  <EState_VSA6>
11.34

>  <EState_VSA7>
0

>  <EState_VSA8>
46.6

>  <EState_VSA9>
0

>  <EState_VSA10>
0

>  <VSA_EState1>
0

>  <VSA_EState2>
7.96

>  <VSA_EState3>
2.09

>  <VSA_EState4>
0

>  <VSA_EState5>
1.1

>  <VSA_EState6>
4.18

>  <VSA_EState7>
5.41

>  <VSA_EState8>
2.09

>  <VSA_EState9>
2.09

>  <apol>
32.81

>  <bpol>
19.35

>  <nRing>
2

>  <nHRing>
2

>  <naRing>
1

>  <naHRing>
1

>  <nARing 2>
1

>  <nAHRing 2>
1

>  <nFRing>
0

>  <nFHRing>
0

>  <nFaRing>
0

>  <nFaHRing>
0

>  <nFARing 2>
0

>  <nFAHRing 2>
0

>  <nRot>
2

>  <SLogP>
2.5

>  <SMR>
62.9

>  <TopoPSA(NO)>
15.6

>  <TopoPSA>
43.84

>  <JGI1>
0.13

>  <JGI2>
0.07

>  <JGI3>
0.03

>  <JGI4>
0.04

>  <JGI5>
0.02

>  <Diameter>
8

>  <Radius>
4

>  <TMWC10>
96.26

>  <TSRW10>
58.07

>  <MW>
206.09

>  <AMW>
7.36

>  <WPath>
330

>  <WPol>
15

>  <Zagreb1>
68

>  <Zagreb2>
76

>  <mZagreb2>
3.19

>  <yes>


>  <nAR-cont>
0.816016

>  <nHA-cont>
0.887625254

>  <MWHBN>
0.20897426

>  <MWHBN-cont>
0.999538723

>  <TPSA-cont>
0.693969577

>  <pka_cont>
0.97

>  <yes.1>


>  <BBB_SCORE>
5.075888493

>  <MMFF94 Energy>
-32.414

$$$$
Compound 2514
Actelion Java MolfileCreator 2.0

  0  0  0  0  0  0              0 V3000
M  V30 BEGIN CTAB
M  V30 COUNTS 53 55 0 0 0
M  V30 BEGIN ATOM
M  V30 1 O 2.1457 -0.5559 -0.9532 0
M  V30 2 C 1.0528 -0.2411 -0.4989 0
M  V30 3 O 0.3694 0.8909 -0.8426 0
M  V30 4 C 0.2065 -1.076 0.52 0 CFG=2
M  V30 5 C 1.0676 1.7467 -1.7499 0
M  V30 6 O -1.0427 -0.4173 0.8075 0
M  V30 7 C 1.0017 -1.201 1.8313 0
M  V30 8 C -0.1338 -2.4645 -0.1185 0
M  V30 9 C 0.3477 3.1051 -1.7616 0
M  V30 10 C 0.5351 -0.6327 3.0308 0
M  V30 11 C 2.2333 -1.8824 1.8675 0
M  V30 12 C -0.9304 -3.3742 0.8457 0
M  V30 13 C -0.929 -2.3151 -1.4379 0
M  V30 14 N -0.2098 3.4253 -2.884 0
M  V30 15 N 0.3188 3.8826 -0.6071 0
M  V30 16 C 1.2658 -0.7451 4.2167 0
M  V30 17 C 2.9641 -1.9928 3.0532 0
M  V30 18 C -1.2617 -4.7264 0.2166 0
M  V30 19 C -1.2574 -3.6686 -2.0654 0
M  V30 20 C -0.8993 4.7118 -2.9624 0
M  V30 21 C -0.4216 5.1361 -0.5883 0
M  V30 22 C 0.9985 3.5167 0.6258 0
M  V30 23 C 2.4798 -1.4249 4.2275 0
M  V30 24 C -2.0159 -4.5673 -1.0972 0
M  V30 25 C -1.5179 5.0989 -1.6342 0
M  V30 26 H 2.1071 1.9024 -1.4415 0
M  V30 27 H 1.0435 1.3047 -2.752 0
M  V30 28 H -1.2258 0.1662 0.0463 0
M  V30 29 H 0.8046 -2.9801 -0.3657 0
M  V30 30 H -0.4145 -0.1014 3.0583 0
M  V30 31 H 2.6464 -2.3314 0.9655 0
M  V30 32 H -0.36 -3.5561 1.7631 0
M  V30 33 H -1.8642 -2.8815 1.1444 0
M  V30 34 H -0.3563 -1.7295 -2.1656 0
M  V30 35 H -1.8647 -1.7717 -1.2574 0
M  V30 36 H 0.8813 -0.3038 5.1327 0
M  V30 37 H 3.9134 -2.5225 3.0565 0
M  V30 38 H -1.8625 -5.3194 0.9155 0
M  V30 39 H -0.3333 -5.2839 0.0414 0
M  V30 40 H -0.328 -4.1629 -2.3739 0
M  V30 41 H -1.8547 -3.5182 -2.9718 0
M  V30 42 H -1.6905 4.636 -3.7163 0
M  V30 43 H -0.1983 5.4799 -3.3096 0
M  V30 44 H -0.8729 5.3082 0.396 0
M  V30 45 H 0.2684 5.965 -0.7854 0
M  V30 46 H 2.0282 3.2019 0.432 0
M  V30 47 H 1.0522 4.3623 1.3207 0
M  V30 48 H 0.464 2.7056 1.1297 0
M  V30 49 H 3.0472 -1.5132 5.1501 0
M  V30 50 H -2.1764 -5.5506 -1.5532 0
M  V30 51 H -3.0069 -4.1399 -0.9008 0
M  V30 52 H -2.0094 6.0748 -1.708 0
M  V30 53 H -2.2815 4.3638 -1.3505 0
M  V30 END ATOM
M  V30 BEGIN BOND
M  V30 1 2 1 2
M  V30 2 1 2 3
M  V30 3 1 2 4
M  V30 4 1 3 5
M  V30 5 1 4 6
M  V30 6 1 4 7
M  V30 7 1 4 8
M  V30 8 1 5 9
M  V30 9 2 7 10
M  V30 10 1 7 11
M  V30 11 1 8 12
M  V30 12 1 8 13
M  V30 13 2 9 14
M  V30 14 1 9 15
M  V30 15 1 10 16
M  V30 16 2 11 17
M  V30 17 1 12 18
M  V30 18 1 13 19
M  V30 19 1 14 20
M  V30 20 1 15 21
M  V30 21 1 15 22
M  V30 22 2 16 23
M  V30 23 1 18 24
M  V30 24 1 20 25
M  V30 25 1 17 23
M  V30 26 1 19 24
M  V30 27 1 21 25
M  V30 28 1 5 26
M  V30 29 1 5 27
M  V30 30 1 6 28
M  V30 31 1 8 29
M  V30 32 1 10 30
M  V30 33 1 11 31
M  V30 34 1 12 32
M  V30 35 1 12 33
M  V30 36 1 13 34
M  V30 37 1 13 35
M  V30 38 1 16 36
M  V30 39 1 17 37
M  V30 40 1 18 38
M  V30 41 1 18 39
M  V30 42 1 19 40
M  V30 43 1 19 41
M  V30 44 1 20 42
M  V30 45 1 20 43
M  V30 46 1 21 44
M  V30 47 1 21 45
M  V30 48 1 22 46
M  V30 49 1 22 47
M  V30 50 1 22 48
M  V30 51 1 23 49
M  V30 52 1 24 50
M  V30 53 1 24 51
M  V30 54 1 25 52
M  V30 55 1 25 53
M  V30 END BOND
M  V30 BEGIN COLLECTION
M  V30 MDLV30/STERAC1 ATOMS=(1 4)
M  V30 END COLLECTION
M  V30 END CTAB
M  END
>  <Column 1>
3109

>  <level_0>
5261

>  <index>
5262

>  <Unnamed: 0>
5262

>  <NO.>
5274

>  <Name>
oxyphencyclimine

>  <IUPAC_name>
(1-methyl-5-6-dihydro-4h-pyrimidin-2-yl)methyl 2-cyclohexyl-2-hydroxy-2-phenylacetate

>  <SMILES>
CN1CCCN=C1COC(=O)C(O)(c1ccccc1)C1CCCCC1

>  <CID>
4642

>  <logBB>


>  <BBB+/BBB->
BBB-

>  <Inchi>
InChI=1S/C20H28N2O3/c1-22-14-8-13-21-18(22)15-25-19(23)20(24-16-9-4-2-5-10-16)17-11-6-3-7-12-17/h2-4-5-9-10-17-24H-3-6-8-11-15H2-1H3

>  <threshold>


>  <reference>
R14|

>  <group>
C

>  <Class>
1

>  <ABC>
19.24

>  <ABCGG>
15.95

>  <nAcid>
0

>  <nBase>
2

>  <nAromAtom>
6

>  <nAromBond>
6

>  <nAtom>
53

>  <nHeavyAtom>
25

>  <nSpiro>
0

>  <nBridgehead>
0

>  <nHetero>
5

>  <nN>
2

>  <nO>
3

>  <nF>
0

>  <BalabanJ>
1.66

>  <BertzCT>
610.63

>  <nBonds>
55

>  <nBondsO>
27

>  <nBondsS>
47

>  <nBondsD>
2

>  <nBondsT>
0

>  <nBondsA>
6

>  <nBondsM>
8

>  <nBondsKS>
50

>  <nBondsKD>
5

>  <RNCG>
0.2

>  <RPCG>
0.15

>  <FCSP3>
0.6

>  <SZ>
31

>  <Sm>
28.68

>  <Sv>
31.25

>  <Sse>
52.75

>  <Sp>
33.94

>  <Si>
60.02

>  <MZ>
0.58

>  <Mm>
0.54

>  <Mv>
0.59

>  <Mse>
1

>  <Mp>
0.64

>  <Mi>
1.13

>  <NsCH3>
1

>  <NdCH2>
0

>  <NssCH2>
9

>  <NtCH>
0

>  <NdsCH>
0

>  <NaaCH>
5

>  <NsssCH>
1

>  <NddC>
0

>  <NtsC>
0

>  <NdssC>
2

>  <NaasC>
1

>  <NaaaC>
0

>  <NssssC>
1

>  <NsNH3>
0

>  <NsNH2>
0

>  <NssNH2>
0

>  <NdNH>
0

>  <NssNH>
0

>  <NaaNH>
0

>  <NtN>
0

>  <NsssNH>
0

>  <NdsN>
1

>  <NaaN>
0

>  <NsssN>
1

>  <NddsN>
0

>  <NaasN>
0

>  <NssssN>
0

>  <NsOH>
1

>  <NdO>
1

>  <NssO>
1

>  <NaaO>
0

>  <NsF>
0

>  <NsSiH3>
0

>  <NssSiH2>
0

>  <NsssSiH>
0

>  <NssssSi>
0

>  <NsPH2>
0

>  <NssPH>
0

>  <NsssP>
0

>  <NdsssP>
0

>  <NsssssP>
0

>  <NsSH>
0

>  <NdS>
0

>  <NssS>
0

>  <NaaS>
0

>  <NdssS>
0

>  <NddssS>
0

>  <NsCl>
0

>  <NsBr>
0

>  <NsI>
0

>  <fragCpx>
129.05

>  <fMF>
0.42

>  <nHBAcc>
5

>  <nHBDon>
1

>  <Kier1>
19.75

>  <Kier2>
9.27

>  <Lipinski>
1

>  <GhoseFilter>
1

>  <FilterItLogS>
-3.47

>  <VMcGowan>
276.15

>  <LabuteASA>
149.25

>  <PEOE_VSA1>
14.74

>  <PEOE_VSA2>
4.99

>  <PEOE_VSA3>
4.79

>  <PEOE_VSA4>
0

>  <PEOE_VSA5>
0

>  <PEOE_VSA6>
49.59

>  <PEOE_VSA7>
24.83

>  <PEOE_VSA8>
26.06

>  <PEOE_VSA9>
0

>  <PEOE_VSA10>
12.44

>  <PEOE_VSA11>
5.6

>  <PEOE_VSA12>
0

>  <PEOE_VSA13>
0

>  <SMR_VSA1>
14.64

>  <SMR_VSA2>
0

>  <SMR_VSA3>
4.9

>  <SMR_VSA4>
10.91

>  <SMR_VSA5>
44.13

>  <SMR_VSA6>
26.74

>  <SMR_VSA7>
35.9

>  <SMR_VSA8>
0

>  <SMR_VSA9>
0

>  <SlogP_VSA1>
0

>  <SlogP_VSA2>
48.56

>  <SlogP_VSA3>
15.13

>  <SlogP_VSA4>
5.92

>  <SlogP_VSA5>
44.09

>  <SlogP_VSA6>
35.32

>  <SlogP_VSA7>
0

>  <SlogP_VSA8>
0

>  <SlogP_VSA9>
0

>  <SlogP_VSA10>
0

>  <SlogP_VSA11>
0

>  <EState_VSA1>
11.57

>  <EState_VSA2>
12.52

>  <EState_VSA3>
5.56

>  <EState_VSA4>
57.45

>  <EState_VSA5>
0

>  <EState_VSA6>
0

>  <EState_VSA7>
42.28

>  <EState_VSA8>
4.99

>  <EState_VSA9>
4.74

>  <EState_VSA10>
9.9

>  <VSA_EState1>
5.56

>  <VSA_EState2>
19.41

>  <VSA_EState3>
11.44

>  <VSA_EState4>
-0.94

>  <VSA_EState5>
0.13

>  <VSA_EState6>
9.24

>  <VSA_EState7>
5.97

>  <VSA_EState8>
1.81

>  <VSA_EState9>
1.95

>  <apol>
56.68

>  <bpol>
33.54

>  <nRing>
3

>  <nHRing>
1

>  <naRing>
1

>  <naHRing>
0

>  <nARing 2>
2

>  <nAHRing 2>
1

>  <nFRing>
0

>  <nFHRing>
0

>  <nFaRing>
0

>  <nFaHRing>
0

>  <nFARing 2>
0

>  <nFAHRing 2>
0

>  <nRot>
5

>  <SLogP>
2.73

>  <SMR>
97.42

>  <TopoPSA(NO)>
62.13

>  <TopoPSA>
62.13

>  <JGI1>
0.17

>  <JGI2>
0.1

>  <JGI3>
0.06

>  <JGI4>
0.03

>  <JGI5>
0.02

>  <Diameter>
11

>  <Radius>
6

>  <TMWC10>
127.26

>  <TSRW10>
59.83

>  <MW>
344.21

>  <AMW>
6.49

>  <WPath>
1472

>  <WPol>
41

>  <Zagreb1>
128

>  <Zagreb2>
151

>  <mZagreb2>
5.61

>  <yes>


>  <nAR-cont>
1

>  <nHA-cont>
0.921834225

>  <MWHBN>
0.323399623

>  <MWHBN-cont>
0.765666304

>  <TPSA-cont>
0.56629402

>  <pka_cont>
0.97

>  <yes.1>


>  <BBB_SCORE>
4.68792172

>  <MMFF94 Energy>
69.939

$$$$
Compound 2515
Actelion Java MolfileCreator 2.0

  0  0  0  0  0  0              0 V3000
M  V30 BEGIN CTAB
M  V30 COUNTS 42 44 0 0 0
M  V30 BEGIN ATOM
M  V30 1 N 0.1586 -0.4761 -0.5555 0
M  V30 2 C 0.1302 0.7929 0.2351 0
M  V30 3 C -0.4749 -0.2886 -1.8867 0
M  V30 4 C 1.5553 -0.9279 -0.7875 0
M  V30 5 C -1.2842 1.3538 0.4442 0
M  V30 6 C 0.8387 0.6853 1.5935 0
M  V30 7 C -0.4001 -1.5579 -2.7662 0
M  V30 8 C 1.6324 -2.1979 -1.6657 0
M  V30 9 C -1.5323 2.7217 0.2366 0
M  V30 10 C -2.3478 0.5394 0.8706 0
M  V30 11 C 0.603 -0.3897 2.4681 0
M  V30 12 C 1.7273 1.6954 2.0012 0
M  V30 13 N 0.9878 -2.005 -2.9768 0
M  V30 14 C -2.8076 3.2542 0.4375 0
M  V30 15 C -3.622 1.0736 1.0705 0
M  V30 16 C 1.2454 -0.459 3.7055 0
M  V30 17 C 2.3686 1.6243 3.2398 0
M  V30 18 C 1.0223 -3.2385 -3.7579 0
M  V30 19 C -3.8513 2.4302 0.8532 0
M  V30 20 C 2.1282 0.5474 4.0903 0
M  V30 21 H 0.6852 1.5357 -0.3579 0
M  V30 22 H -1.5366 -0.0435 -1.7779 0
M  V30 23 H -0.0015 0.5454 -2.4229 0
M  V30 24 H 2.045 -1.1713 0.1611 0
M  V30 25 H 2.1429 -0.1298 -1.2619 0
M  V30 26 H -0.9984 -2.3523 -2.2992 0
M  V30 27 H -0.8601 -1.3298 -3.7354 0
M  V30 28 H 1.171 -3.0354 -1.1247 0
M  V30 29 H 2.6901 -2.4478 -1.8134 0
M  V30 30 H -0.7299 3.3837 -0.0803 0
M  V30 31 H -2.1845 -0.5223 1.0398 0
M  V30 32 H -0.0801 -1.185 2.179 0
M  V30 33 H 1.9228 2.5484 1.3558 0
M  V30 34 H -2.9854 4.3138 0.2736 0
M  V30 35 H -4.4337 0.4296 1.3977 0
M  V30 36 H 1.0539 -1.2983 4.3686 0
M  V30 37 H 3.0529 2.4124 3.5426 0
M  V30 38 H 2.0573 -3.5508 -3.9355 0
M  V30 39 H 0.4947 -4.0614 -3.2621 0
M  V30 40 H 0.5673 -3.0815 -4.7421 0
M  V30 41 H -4.8428 2.8458 1.0116 0
M  V30 42 H 2.6257 0.4942 5.0548 0
M  V30 END ATOM
M  V30 BEGIN BOND
M  V30 1 1 1 2
M  V30 2 1 1 3
M  V30 3 1 1 4
M  V30 4 1 2 5
M  V30 5 1 2 6
M  V30 6 1 3 7
M  V30 7 1 4 8
M  V30 8 2 5 9
M  V30 9 1 5 10
M  V30 10 2 6 11
M  V30 11 1 6 12
M  V30 12 1 7 13
M  V30 13 1 9 14
M  V30 14 2 10 15
M  V30 15 1 11 16
M  V30 16 2 12 17
M  V30 17 1 13 18
M  V30 18 2 14 19
M  V30 19 2 16 20
M  V30 20 1 8 13
M  V30 21 1 15 19
M  V30 22 1 17 20
M  V30 23 1 2 21
M  V30 24 1 3 22
M  V30 25 1 3 23
M  V30 26 1 4 24
M  V30 27 1 4 25
M  V30 28 1 7 26
M  V30 29 1 7 27
M  V30 30 1 8 28
M  V30 31 1 8 29
M  V30 32 1 9 30
M  V30 33 1 10 31
M  V30 34 1 11 32
M  V30 35 1 12 33
M  V30 36 1 14 34
M  V30 37 1 15 35
M  V30 38 1 16 36
M  V30 39 1 17 37
M  V30 40 1 18 38
M  V30 41 1 18 39
M  V30 42 1 18 40
M  V30 43 1 19 41
M  V30 44 1 20 42
M  V30 END BOND
M  V30 END CTAB
M  END
>  <Column 1>
3110

>  <level_0>
5262

>  <index>
5263

>  <Unnamed: 0>
5263

>  <NO.>
5275

>  <Name>
cyclizine

>  <IUPAC_name>
1-benzhydryl-4-methylpiperazine

>  <SMILES>
CN1CCN(C(c2ccccc2)c2ccccc2)CC1

>  <CID>
6726

>  <logBB>


>  <BBB+/BBB->
BBB+

>  <Inchi>
InChI=1S/C18H22N2/c1-19-12-14-20(15-13-19)18(16-8-4-2-5-9-16)17-10-6-3-7-11-17/h2-11-18H-12-15H2-1H3

>  <threshold>


>  <reference>
R14|R23|

>  <group>
C

>  <Class>
-1

>  <ABC>
15.54

>  <ABCGG>
12.65

>  <nAcid>
0

>  <nBase>
2

>  <nAromAtom>
12

>  <nAromBond>
12

>  <nAtom>
42

>  <nHeavyAtom>
20

>  <nSpiro>
0

>  <nBridgehead>
0

>  <nHetero>
2

>  <nN>
2

>  <nO>
0

>  <nF>
0

>  <BalabanJ>
1.68

>  <BertzCT>
476.13

>  <nBonds>
44

>  <nBondsO>
22

>  <nBondsS>
32

>  <nBondsD>
0

>  <nBondsT>
0

>  <nBondsA>
12

>  <nBondsM>
12

>  <nBondsKS>
38

>  <nBondsKD>
6

>  <RNCG>
0.24

>  <RPCG>
0.05

>  <FCSP3>
0.33

>  <SZ>
24

>  <Sm>
22.18

>  <Sv>
25.48

>  <Sse>
41.09

>  <Sp>
28.1

>  <Si>
47.15

>  <MZ>
0.57

>  <Mm>
0.53

>  <Mv>
0.61

>  <Mse>
0.98

>  <Mp>
0.67

>  <Mi>
1.12

>  <NsCH3>
1

>  <NdCH2>
0

>  <NssCH2>
4

>  <NtCH>
0

>  <NdsCH>
0

>  <NaaCH>
10

>  <NsssCH>
1

>  <NddC>
0

>  <NtsC>
0

>  <NdssC>
0

>  <NaasC>
2

>  <NaaaC>
0

>  <NssssC>
0

>  <NsNH3>
0

>  <NsNH2>
0

>  <NssNH2>
0

>  <NdNH>
0

>  <NssNH>
0

>  <NaaNH>
0

>  <NtN>
0

>  <NsssNH>
0

>  <NdsN>
0

>  <NaaN>
0

>  <NsssN>
2

>  <NddsN>
0

>  <NaasN>
0

>  <NssssN>
0

>  <NsOH>
0

>  <NdO>
0

>  <NssO>
0

>  <NaaO>
0

>  <NsF>
0

>  <NsSiH3>
0

>  <NssSiH2>
0

>  <NsssSiH>
0

>  <NssssSi>
0

>  <NsPH2>
0

>  <NssPH>
0

>  <NsssP>
0

>  <NdsssP>
0

>  <NsssssP>
0

>  <NsSH>
0

>  <NdS>
0

>  <NssS>
0

>  <NaaS>
0

>  <NdssS>
0

>  <NddssS>
0

>  <NsCl>
0

>  <NsBr>
0

>  <NsI>
0

>  <fragCpx>
104.02

>  <fMF>
0.45

>  <nHBAcc>
2

>  <nHBDon>
0

>  <Kier1>
14.92

>  <Kier2>
7.32

>  <Lipinski>
1

>  <GhoseFilter>
1

>  <FilterItLogS>
-3.62

>  <VMcGowan>
226.06

>  <LabuteASA>
121.19

>  <PEOE_VSA1>
4.9

>  <PEOE_VSA2>
4.9

>  <PEOE_VSA3>
0

>  <PEOE_VSA4>
0

>  <PEOE_VSA5>
0

>  <PEOE_VSA6>
60.66

>  <PEOE_VSA7>
18.17

>  <PEOE_VSA8>
26.18

>  <PEOE_VSA9>
6.04

>  <PEOE_VSA10>
0

>  <PEOE_VSA11>
0

>  <PEOE_VSA12>
0

>  <PEOE_VSA13>
0

>  <SMR_VSA1>
0

>  <SMR_VSA2>
0

>  <SMR_VSA3>
9.8

>  <SMR_VSA4>
0

>  <SMR_VSA5>
6.04

>  <SMR_VSA6>
33.23

>  <SMR_VSA7>
71.79

>  <SMR_VSA8>
0

>  <SMR_VSA9>
0

>  <SlogP_VSA1>
0

>  <SlogP_VSA2>
43.03

>  <SlogP_VSA3>
0

>  <SlogP_VSA4>
0

>  <SlogP_VSA5>
17.17

>  <SlogP_VSA6>
60.66

>  <SlogP_VSA7>
0

>  <SlogP_VSA8>
0

>  <SlogP_VSA9>
0

>  <SlogP_VSA10>
0

>  <SlogP_VSA11>
0

>  <EState_VSA1>
0

>  <EState_VSA2>
0

>  <EState_VSA3>
6.04

>  <EState_VSA4>
26.18

>  <EState_VSA5>
11.13

>  <EState_VSA6>
0

>  <EState_VSA7>
0

>  <EState_VSA8>
77.51

>  <EState_VSA9>
0

>  <EState_VSA10>
0

>  <VSA_EState1>
0

>  <VSA_EState2>
5.01

>  <VSA_EState3>
0

>  <VSA_EState4>
2.78

>  <VSA_EState5>
0

>  <VSA_EState6>
22.11

>  <VSA_EState7>
0

>  <VSA_EState8>
4.56

>  <VSA_EState9>
2.21

>  <apol>
46.93

>  <bpol>
25.49

>  <nRing>
3

>  <nHRing>
1

>  <naRing>
2

>  <naHRing>
0

>  <nARing 2>
1

>  <nAHRing 2>
1

>  <nFRing>
0

>  <nFHRing>
0

>  <nFaRing>
0

>  <nFaHRing>
0

>  <nFARing 2>
0

>  <nFAHRing 2>
0

>  <nRot>
3

>  <SLogP>
3.02

>  <SMR>
83.8

>  <TopoPSA(NO)>
6.48

>  <TopoPSA>
6.48

>  <JGI1>
0.11

>  <JGI2>
0.06

>  <JGI3>
0.05

>  <JGI4>
0.03

>  <JGI5>
0

>  <Diameter>
9

>  <Radius>
5

>  <TMWC10>
114.58

>  <TSRW10>
53.42

>  <MW>
266.18

>  <AMW>
6.34

>  <WPath>
776

>  <WPol>
29

>  <Zagreb1>
102

>  <Zagreb2>
118

>  <mZagreb2>
4.5

>  <yes>


>  <nAR-cont>
0.816016

>  <nHA-cont>
0.999629945

>  <MWHBN>
0.122586398

>  <MWHBN-cont>
0.840328662

>  <TPSA-cont>
0.954765576

>  <pka_cont>
0.97

>  <yes.1>


>  <BBB_SCORE>
5.47067009

>  <MMFF94 Energy>
115.57

$$$$
Compound 2516
Actelion Java MolfileCreator 2.0

  0  0  0  0  0  0              0 V3000
M  V30 BEGIN CTAB
M  V30 COUNTS 28 28 0 0 0
M  V30 BEGIN ATOM
M  V30 1 N 1.462 1.231 -2.0781 0
M  V30 2 C 0.8939 1.473 -0.946 0
M  V30 3 C 2.1274 2.3073 -2.79 0
M  V30 4 N 0.2702 0.4711 -0.2757 0
M  V30 5 N 0.8506 2.6832 -0.3213 0
M  V30 6 C 0.1998 -0.886 -0.7622 0
M  V30 7 C 0.2398 3.0278 0.9342 0
M  V30 8 C -0.5633 -1.7331 0.2291 0
M  V30 9 C 0.1059 -2.3698 1.2845 0
M  V30 10 C -1.9579 -1.8519 0.1383 0
M  V30 11 C -0.6037 -3.1277 2.2173 0
M  V30 12 C -2.6655 -2.6103 1.0722 0
M  V30 13 C -1.9882 -3.2491 2.1096 0
M  V30 14 H 1.4275 3.1051 -3.0592 0
M  V30 15 H 2.9582 2.721 -2.2091 0
M  V30 16 H 2.546 1.9135 -3.7216 0
M  V30 17 H -0.1755 0.6503 0.6077 0
M  V30 18 H 1.3072 3.4483 -0.7976 0
M  V30 19 H -0.3009 -0.9219 -1.7373 0
M  V30 20 H 1.206 -1.3001 -0.9004 0
M  V30 21 H 0.6862 2.4598 1.7562 0
M  V30 22 H -0.8384 2.8424 0.9093 0
M  V30 23 H 0.3914 4.0916 1.1418 0
M  V30 24 H 1.1855 -2.2751 1.3828 0
M  V30 25 H -2.4977 -1.3508 -0.6628 0
M  V30 26 H -0.0761 -3.6225 3.0286 0
M  V30 27 H -3.7455 -2.7017 0.9907 0
M  V30 28 H -2.5399 -3.8405 2.8357 0
M  V30 END ATOM
M  V30 BEGIN BOND
M  V30 1 2 1 2
M  V30 2 1 1 3
M  V30 3 1 2 4
M  V30 4 1 2 5
M  V30 5 1 4 6
M  V30 6 1 5 7
M  V30 7 1 6 8
M  V30 8 2 8 9
M  V30 9 1 8 10
M  V30 10 1 9 11
M  V30 11 2 10 12
M  V30 12 2 11 13
M  V30 13 1 12 13
M  V30 14 1 3 14
M  V30 15 1 3 15
M  V30 16 1 3 16
M  V30 17 1 4 17
M  V30 18 1 5 18
M  V30 19 1 6 19
M  V30 20 1 6 20
M  V30 21 1 7 21
M  V30 22 1 7 22
M  V30 23 1 7 23
M  V30 24 1 9 24
M  V30 25 1 10 25
M  V30 26 1 11 26
M  V30 27 1 12 27
M  V30 28 1 13 28
M  V30 END BOND
M  V30 END CTAB
M  END
>  <Column 1>
3111

>  <level_0>
5263

>  <index>
5264

>  <Unnamed: 0>
5264

>  <NO.>
5276

>  <Name>
bethanidine sulfate

>  <IUPAC_name>
1-benzyl-2-3-dimethylguanidine

>  <SMILES>
CN=C(NC)NCc1ccccc1

>  <CID>
2368

>  <logBB>


>  <BBB+/BBB->
BBB-

>  <Inchi>
InChI=1S/C10H15N3/c1-11-10(12-2)13-8-9-6-4-3-5-7-9/h3-7H-8H2-1-2H3-(H2-11-12-13)

>  <threshold>


>  <reference>
R14|R23|

>  <group>
C

>  <Class>
-1

>  <ABC>
9.19

>  <ABCGG>
8.51

>  <nAcid>
0

>  <nBase>
3

>  <nAromAtom>
6

>  <nAromBond>
6

>  <nAtom>
28

>  <nHeavyAtom>
13

>  <nSpiro>
0

>  <nBridgehead>
0

>  <nHetero>
3

>  <nN>
3

>  <nO>
0

>  <nF>
0

>  <BalabanJ>
2.09

>  <BertzCT>
266.76

>  <nBonds>
28

>  <nBondsO>
13

>  <nBondsS>
21

>  <nBondsD>
1

>  <nBondsT>
0

>  <nBondsA>
6

>  <nBondsM>
7

>  <nBondsKS>
24

>  <nBondsKD>
4

>  <RNCG>
0.28

>  <RPCG>
0.15

>  <FCSP3>
0.3

>  <SZ>
16

>  <Sm>
14.76

>  <Sv>
16.34

>  <Sse>
27.65

>  <Sp>
17.97

>  <Si>
31.99

>  <MZ>
0.57

>  <Mm>
0.53

>  <Mv>
0.58

>  <Mse>
0.99

>  <Mp>
0.64

>  <Mi>
1.14

>  <NsCH3>
2

>  <NdCH2>
0

>  <NssCH2>
1

>  <NtCH>
0

>  <NdsCH>
0

>  <NaaCH>
5

>  <NsssCH>
0

>  <NddC>
0

>  <NtsC>
0

>  <NdssC>
1

>  <NaasC>
1

>  <NaaaC>
0

>  <NssssC>
0

>  <NsNH3>
0

>  <NsNH2>
0

>  <NssNH2>
0

>  <NdNH>
0

>  <NssNH>
2

>  <NaaNH>
0

>  <NtN>
0

>  <NsssNH>
0

>  <NdsN>
1

>  <NaaN>
0

>  <NsssN>
0

>  <NddsN>
0

>  <NaasN>
0

>  <NssssN>
0

>  <NsOH>
0

>  <NdO>
0

>  <NssO>
0

>  <NaaO>
0

>  <NsF>
0

>  <NsSiH3>
0

>  <NssSiH2>
0

>  <NsssSiH>
0

>  <NssssSi>
0

>  <NsPH2>
0

>  <NssPH>
0

>  <NsssP>
0

>  <NdsssP>
0

>  <NsssssP>
0

>  <NsSH>
0

>  <NdS>
0

>  <NssS>
0

>  <NaaS>
0

>  <NdssS>
0

>  <NddssS>
0

>  <NsCl>
0

>  <NsBr>
0

>  <NsI>
0

>  <fragCpx>
13.03

>  <fMF>
0.21

>  <nHBAcc>
1

>  <nHBDon>
2

>  <Kier1>
11.08

>  <Kier2>
6.45

>  <Lipinski>
1

>  <GhoseFilter>
1

>  <FilterItLogS>
-3.01

>  <VMcGowan>
153.64

>  <LabuteASA>
78.89

>  <PEOE_VSA1>
10.63

>  <PEOE_VSA2>
4.99

>  <PEOE_VSA3>
0

>  <PEOE_VSA4>
0

>  <PEOE_VSA5>
0

>  <PEOE_VSA6>
30.33

>  <PEOE_VSA7>
5.56

>  <PEOE_VSA8>
20.64

>  <PEOE_VSA9>
0

>  <PEOE_VSA10>
0

>  <PEOE_VSA11>
5.96

>  <PEOE_VSA12>
0

>  <PEOE_VSA13>
0

>  <SMR_VSA1>
0

>  <SMR_VSA2>
0

>  <SMR_VSA3>
10.63

>  <SMR_VSA4>
4.99

>  <SMR_VSA5>
6.54

>  <SMR_VSA6>
14.1

>  <SMR_VSA7>
35.9

>  <SMR_VSA8>
0

>  <SMR_VSA9>
0

>  <SlogP_VSA1>
10.63

>  <SlogP_VSA2>
20.05

>  <SlogP_VSA3>
6.54

>  <SlogP_VSA4>
0

>  <SlogP_VSA5>
5.56

>  <SlogP_VSA6>
35.32

>  <SlogP_VSA7>
0

>  <SlogP_VSA8>
0

>  <SlogP_VSA9>
0

>  <SlogP_VSA10>
0

>  <SlogP_VSA11>
0

>  <EState_VSA1>
0

>  <EState_VSA2>
0

>  <EState_VSA3>
0

>  <EState_VSA4>
12.5

>  <EState_VSA5>
5.56

>  <EState_VSA6>
7.05

>  <EState_VSA7>
25.25

>  <EState_VSA8>
27.76

>  <EState_VSA9>
0

>  <EState_VSA10>
0

>  <VSA_EState1>
0

>  <VSA_EState2>
4.02

>  <VSA_EState3>
6.14

>  <VSA_EState4>
1.25

>  <VSA_EState5>
0.81

>  <VSA_EState6>
10.22

>  <VSA_EState7>
0

>  <VSA_EState8>
0.8

>  <VSA_EState9>
3.6

>  <apol>
30

>  <bpol>
17.33

>  <nRing>
1

>  <nHRing>
0

>  <naRing>
1

>  <naHRing>
0

>  <nARing 2>
0

>  <nAHRing 2>
0

>  <nFRing>
0

>  <nFHRing>
0

>  <nFaRing>
0

>  <nFaHRing>
0

>  <nFARing 2>
0

>  <nFAHRing 2>
0

>  <nRot>
2

>  <SLogP>
0.98

>  <SMR>
55.7

>  <TopoPSA(NO)>
36.42

>  <TopoPSA>
36.42

>  <JGI1>
0.15

>  <JGI2>
0.06

>  <JGI3>
0.02

>  <JGI4>
0.03

>  <JGI5>
0.02

>  <Diameter>
8

>  <Radius>
4

>  <TMWC10>
90.04

>  <TSRW10>
42.69

>  <MW>
177.13

>  <AMW>
6.33

>  <WPath>
282

>  <WPol>
14

>  <Zagreb1>
56

>  <Zagreb2>
60

>  <mZagreb2>
3.25

>  <yes>


>  <nAR-cont>
0.336376

>  <nHA-cont>
0.841215992

>  <MWHBN>
0.225411046

>  <MWHBN-cont>
0.990991168

>  <TPSA-cont>
0.745765785

>  <pka_cont>
0.97

>  <yes.1>


>  <BBB_SCORE>
4.640610313

>  <MMFF94 Energy>
-98.574

$$$$
Compound 2517
Actelion Java MolfileCreator 2.0

  0  0  0  0  0  0              0 V3000
M  V30 BEGIN CTAB
M  V30 COUNTS 42 42 0 0 0
M  V30 BEGIN ATOM
M  V30 1 S 4.256 -0.3207 0.7217 0
M  V30 2 C 2.8388 0.6468 0.5898 0
M  V30 3 C 3.8498 -1.0984 -0.7475 0
M  V30 4 N 2.0956 0.4142 -0.4757 0
M  V30 5 C 2.5082 1.6661 1.6546 0
M  V30 6 C 2.666 -0.5892 -1.2488 0
M  V30 7 N 3.2971 2.9146 1.5498 0
M  V30 8 C 1.9765 -1.0102 -2.5041 0
M  V30 9 C 3.0537 3.7541 2.724 0
M  V30 10 C 2.9561 3.654 0.3309 0
M  V30 11 S 1.0072 -2.5386 -2.2825 0
M  V30 12 C -0.255 -1.9109 -1.1192 0
M  V30 13 C -1.3201 -2.9792 -0.8567 0
M  V30 14 N -2.3339 -2.4853 0.0601 0
M  V30 15 C -3.3845 -1.6173 -0.1544 0
M  V30 16 N -3.634 -1.2386 -1.4608 0
M  V30 17 C -4.1676 -1.1378 0.837 0
M  V30 18 C -4.6337 -0.334 -1.9765 0
M  V30 19 N -3.9906 -1.4622 2.2311 0 CHG=1
M  V30 20 O -4.8004 -0.9343 3.0062 0
M  V30 21 O -3.0735 -2.2187 2.5826 0 CHG=-1
M  V30 22 H 4.4739 -1.8776 -1.1611 0
M  V30 23 H 2.6905 1.1988 2.6319 0
M  V30 24 H 1.4326 1.8853 1.614 0
M  V30 25 H 2.7195 -1.1942 -3.2876 0
M  V30 26 H 1.3167 -0.2163 -2.8699 0
M  V30 27 H 3.3505 3.2311 3.6401 0
M  V30 28 H 2.0002 4.0428 2.8167 0
M  V30 29 H 3.6586 4.6666 2.6773 0
M  V30 30 H 1.8907 3.9079 0.2846 0
M  V30 31 H 3.2174 3.0844 -0.5668 0
M  V30 32 H 3.5315 4.5854 0.2762 0
M  V30 33 H 0.2226 -1.6363 -0.1733 0
M  V30 34 H -0.712 -1.0124 -1.5463 0
M  V30 35 H -1.7836 -3.3262 -1.7875 0
M  V30 36 H -0.8515 -3.8579 -0.3967 0
M  V30 37 H -2.1905 -2.7572 1.0388 0
M  V30 38 H -3.0647 -1.706 -2.1548 0
M  V30 39 H -5.0002 -0.4644 0.7179 0
M  V30 40 H -4.5357 -0.2546 -3.0635 0
M  V30 41 H -4.5096 0.6676 -1.5533 0
M  V30 42 H -5.6417 -0.6976 -1.7542 0
M  V30 END ATOM
M  V30 BEGIN BOND
M  V30 1 1 1 2
M  V30 2 1 1 3
M  V30 3 2 2 4
M  V30 4 1 2 5
M  V30 5 2 3 6
M  V30 6 1 5 7
M  V30 7 1 6 8
M  V30 8 1 7 9
M  V30 9 1 7 10
M  V30 10 1 8 11
M  V30 11 1 11 12
M  V30 12 1 12 13
M  V30 13 1 13 14
M  V30 14 1 14 15
M  V30 15 1 15 16
M  V30 16 2 15 17
M  V30 17 1 16 18
M  V30 18 1 17 19
M  V30 19 2 19 20
M  V30 20 1 19 21
M  V30 21 1 4 6
M  V30 22 1 3 22
M  V30 23 1 5 23
M  V30 24 1 5 24
M  V30 25 1 8 25
M  V30 26 1 8 26
M  V30 27 1 9 27
M  V30 28 1 9 28
M  V30 29 1 9 29
M  V30 30 1 10 30
M  V30 31 1 10 31
M  V30 32 1 10 32
M  V30 33 1 12 33
M  V30 34 1 12 34
M  V30 35 1 13 35
M  V30 36 1 13 36
M  V30 37 1 14 37
M  V30 38 1 16 38
M  V30 39 1 17 39
M  V30 40 1 18 40
M  V30 41 1 18 41
M  V30 42 1 18 42
M  V30 END BOND
M  V30 END CTAB
M  END
>  <Column 1>
3112

>  <level_0>
5264

>  <index>
5265

>  <Unnamed: 0>
5265

>  <NO.>
5277

>  <Name>
unii-p41pml4ghr

>  <IUPAC_name>
1-n'-[2-[[2-[(dimethylamino)methyl]-1-3-thiazol-4-yl]methylsulfanyl]ethyl]-1-n-methyl-2-nitroethene-1-1-diamine

>  <SMILES>
CNC(=C[N+](=O)[O-])NCCSCc1csc(CN(C)C)n1

>  <CID>
4513

>  <logBB>


>  <BBB+/BBB->
BBB-

>  <Inchi>
InChI=1S/C12H21N5O2S2/c1-13-11(6-17(18)19)14-4-5-20-8-10-9-21-12(15-10)7-16(2)3/h6-9-13-14H-4-5-7-8H2-1-3H3

>  <threshold>


>  <reference>
R14|

>  <group>
C

>  <Class>
-1

>  <ABC>
15.29

>  <ABCGG>
13.16

>  <nAcid>
0

>  <nBase>
1

>  <nAromAtom>
5

>  <nAromBond>
5

>  <nAtom>
42

>  <nHeavyAtom>
21

>  <nSpiro>
0

>  <nBridgehead>
0

>  <nHetero>
9

>  <nN>
5

>  <nO>
2

>  <nF>
0

>  <BalabanJ>
2.02

>  <BertzCT>
475.97

>  <nBonds>
42

>  <nBondsO>
21

>  <nBondsS>
35

>  <nBondsD>
2

>  <nBondsT>
0

>  <nBondsA>
5

>  <nBondsM>
7

>  <nBondsKS>
38

>  <nBondsKD>
4

>  <RNCG>
0.18

>  <RPCG>
0.13

>  <FCSP3>
0.58

>  <SZ>
29.33

>  <Sm>
27.6

>  <Sv>
25.28

>  <Sse>
42.45

>  <Sp>
28.11

>  <Si>
48.07

>  <MZ>
0.7

>  <Mm>
0.66

>  <Mv>
0.6

>  <Mse>
1.01

>  <Mp>
0.67

>  <Mi>
1.14

>  <NsCH3>
3

>  <NdCH2>
0

>  <NssCH2>
4

>  <NtCH>
0

>  <NdsCH>
1

>  <NaaCH>
1

>  <NsssCH>
0

>  <NddC>
0

>  <NtsC>
0

>  <NdssC>
1

>  <NaasC>
2

>  <NaaaC>
0

>  <NssssC>
0

>  <NsNH3>
0

>  <NsNH2>
0

>  <NssNH2>
0

>  <NdNH>
0

>  <NssNH>
2

>  <NaaNH>
0

>  <NtN>
0

>  <NsssNH>
0

>  <NdsN>
0

>  <NaaN>
1

>  <NsssN>
1

>  <NddsN>
1

>  <NaasN>
0

>  <NssssN>
0

>  <NsOH>
0

>  <NdO>
1

>  <NssO>
0

>  <NaaO>
0

>  <NsF>
0

>  <NsSiH3>
0

>  <NssSiH2>
0

>  <NsssSiH>
0

>  <NssssSi>
0

>  <NsPH2>
0

>  <NssPH>
0

>  <NsssP>
0

>  <NdsssP>
0

>  <NsssssP>
0

>  <NsSH>
0

>  <NdS>
0

>  <NssS>
1

>  <NaaS>
1

>  <NdssS>
0

>  <NddssS>
0

>  <NsCl>
0

>  <NsBr>
0

>  <NsI>
0

>  <fragCpx>
21.09

>  <fMF>
0.12

>  <nHBAcc>
8

>  <nHBDon>
2

>  <Kier1>
19.05

>  <Kier2>
10.68

>  <Lipinski>
1

>  <GhoseFilter>
1

>  <FilterItLogS>
-3.54

>  <VMcGowan>
246.22

>  <LabuteASA>
132.52

>  <PEOE_VSA1>
15.53

>  <PEOE_VSA2>
10.11

>  <PEOE_VSA3>
4.98

>  <PEOE_VSA4>
11.76

>  <PEOE_VSA5>
11.34

>  <PEOE_VSA6>
0

>  <PEOE_VSA7>
14.1

>  <PEOE_VSA8>
37.02

>  <PEOE_VSA9>
10.62

>  <PEOE_VSA10>
5.01

>  <PEOE_VSA11>
5.82

>  <PEOE_VSA12>
0

>  <PEOE_VSA13>
6.2

>  <SMR_VSA1>
4.92

>  <SMR_VSA2>
0

>  <SMR_VSA3>
20.52

>  <SMR_VSA4>
0

>  <SMR_VSA5>
12.3

>  <SMR_VSA6>
33.44

>  <SMR_VSA7>
38.22

>  <SMR_VSA8>
0

>  <SMR_VSA9>
0

>  <SlogP_VSA1>
10.63

>  <SlogP_VSA2>
48.25

>  <SlogP_VSA3>
12.3

>  <SlogP_VSA4>
10.11

>  <SlogP_VSA5>
10.7

>  <SlogP_VSA6>
17.4

>  <SlogP_VSA7>
0

>  <SlogP_VSA8>
0

>  <SlogP_VSA9>
0

>  <SlogP_VSA10>
0

>  <SlogP_VSA11>
0

>  <EState_VSA1>
4.92

>  <EState_VSA2>
0

>  <EState_VSA3>
12.37

>  <EState_VSA4>
34.95

>  <EState_VSA5>
0

>  <EState_VSA6>
30.15

>  <EState_VSA7>
14.1

>  <EState_VSA8>
25.9

>  <EState_VSA9>
0

>  <EState_VSA10>
10.11

>  <VSA_EState1>
0

>  <VSA_EState2>
16.54

>  <VSA_EState3>
19.3

>  <VSA_EState4>
1.09

>  <VSA_EState5>
2.14

>  <VSA_EState6>
0

>  <VSA_EState7>
0.93

>  <VSA_EState8>
1.54

>  <VSA_EState9>
5.7

>  <apol>
46.95

>  <bpol>
31.14

>  <nRing>
1

>  <nHRing>
1

>  <naRing>
1

>  <naHRing>
1

>  <nARing 2>
0

>  <nAHRing 2>
0

>  <nFRing>
0

>  <nFHRing>
0

>  <nFaRing>
0

>  <nFaHRing>
0

>  <nFARing 2>
0

>  <nFAHRing 2>
0

>  <nRot>
10

>  <SLogP>
1.32

>  <SMR>
87.81

>  <TopoPSA(NO)>
83.33

>  <TopoPSA>
136.87

>  <JGI1>
0.24

>  <JGI2>
0.04

>  <JGI3>
0.06

>  <JGI4>
0.03

>  <JGI5>
0.02

>  <Diameter>
14

>  <Radius>
7

>  <TMWC10>
111.35

>  <TSRW10>
66.73

>  <MW>
331.11

>  <AMW>
7.88

>  <WPath>
1227

>  <WPol>
22

>  <Zagreb1>
94

>  <Zagreb2>
100

>  <mZagreb2>
4.92

>  <yes>


>  <nAR-cont>
0.336376

>  <nHA-cont>
0.994529749

>  <MWHBN>
0.549558401

>  <MWHBN-cont>
0

>  <TPSA-cont>
0

>  <pka_cont>
0.97

>  <yes.1>


>  <BBB_SCORE>
1.815905749

>  <MMFF94 Energy>
42.978

$$$$
Compound 2518
Actelion Java MolfileCreator 2.0

  0  0  0  0  0  0              0 V3000
M  V30 BEGIN CTAB
M  V30 COUNTS 37 39 0 0 0
M  V30 BEGIN ATOM
M  V30 1 Cl -2.2224 -0.0822 -2.964 0
M  V30 2 C -0.9187 0.9776 -2.5627 0
M  V30 3 C -0.4066 1.0805 -1.259 0
M  V30 4 C -0.3776 1.743 -3.6024 0
M  V30 5 C 0.6514 1.9862 -1.0315 0
M  V30 6 C -0.9748 0.2885 -0.0807 0 CFG=1
M  V30 7 C 0.674 2.6247 -3.3572 0
M  V30 8 C 1.1878 2.7471 -2.0707 0
M  V30 9 N 0.0883 -0.4287 0.7061 0
M  V30 10 C -1.7783 1.282 0.8015 0
M  V30 11 C 0.807 -1.3908 -0.1736 0
M  V30 12 C -0.4929 -1.1492 1.8714 0
M  V30 13 O -1.3334 1.9534 1.7257 0
M  V30 14 O -3.0799 1.3242 0.3779 0
M  V30 15 C 1.7671 -2.2279 0.6257 0
M  V30 16 C 0.5982 -1.7177 2.8066 0
M  V30 17 C -3.8968 2.2434 1.103 0
M  V30 18 C 1.6469 -2.3925 1.99 0
M  V30 19 C 2.8784 -2.971 0.12 0
M  V30 20 S 2.834 -3.4057 2.6541 0
M  V30 21 C 3.5445 -3.6543 1.1158 0
M  V30 22 H -0.7751 1.6582 -4.611 0
M  V30 23 H 1.0651 2.0975 -0.0282 0
M  V30 24 H -1.6816 -0.4793 -0.415 0
M  V30 25 H 1.0893 3.2173 -4.1684 0
M  V30 26 H 2.0054 3.4358 -1.8713 0
M  V30 27 H 1.3829 -0.8566 -0.9372 0
M  V30 28 H 0.1009 -2.0602 -0.6823 0
M  V30 29 H -1.1163 -0.4904 2.4844 0
M  V30 30 H -1.1434 -1.9627 1.5211 0
M  V30 31 H 0.1421 -2.4136 3.5195 0
M  V30 32 H 1.0555 -0.8992 3.3759 0
M  V30 33 H -4.9059 2.2032 0.6837 0
M  V30 34 H -3.9491 1.9594 2.1587 0
M  V30 35 H -3.5168 3.2638 0.9929 0
M  V30 36 H 3.1759 -3.0036 -0.9208 0
M  V30 37 H 4.4148 -4.2879 1.0172 0
M  V30 END ATOM
M  V30 BEGIN BOND
M  V30 1 1 1 2
M  V30 2 2 2 3
M  V30 3 1 2 4
M  V30 4 1 3 5
M  V30 5 1 3 6
M  V30 6 2 4 7
M  V30 7 2 5 8
M  V30 8 1 6 9
M  V30 9 1 6 10
M  V30 10 1 9 11
M  V30 11 1 9 12
M  V30 12 2 10 13
M  V30 13 1 10 14
M  V30 14 1 11 15
M  V30 15 1 12 16
M  V30 16 1 14 17
M  V30 17 2 15 18
M  V30 18 1 15 19
M  V30 19 1 18 20
M  V30 20 2 19 21
M  V30 21 1 7 8
M  V30 22 1 16 18
M  V30 23 1 20 21
M  V30 24 1 4 22
M  V30 25 1 5 23
M  V30 26 1 6 24
M  V30 27 1 7 25
M  V30 28 1 8 26
M  V30 29 1 11 27
M  V30 30 1 11 28
M  V30 31 1 12 29
M  V30 32 1 12 30
M  V30 33 1 16 31
M  V30 34 1 16 32
M  V30 35 1 17 33
M  V30 36 1 17 34
M  V30 37 1 17 35
M  V30 38 1 19 36
M  V30 39 1 21 37
M  V30 END BOND
M  V30 BEGIN COLLECTION
M  V30 MDLV30/STERAC1 ATOMS=(1 6)
M  V30 END COLLECTION
M  V30 END CTAB
M  END
>  <Column 1>
3117

>  <level_0>
5270

>  <index>
5271

>  <Unnamed: 0>
5271

>  <NO.>
5283

>  <Name>
clopidogrel bisulfate

>  <IUPAC_name>
methyl 2-(2-chlorophenyl)-2-(6-7-dihydro-4h-thieno[3-2-c]pyridin-5-yl)acetate

>  <SMILES>
COC(=O)C(c1ccccc1Cl)N1CCc2sccc2C1

>  <CID>
2806

>  <logBB>


>  <BBB+/BBB->
BBB-

>  <Inchi>
InChI=1S/C16H16ClNO2S/c1-20-16(19)15(12-4-2-3-5-13(12)17)18-8-6-14-11(10-18)7-9-21-14/h2-5-7-9-15H-6-8-10H2-1H3

>  <threshold>


>  <reference>
R14|R23|

>  <group>
C

>  <Class>
-1

>  <ABC>
16.28

>  <ABCGG>
14.18

>  <nAcid>
0

>  <nBase>
1

>  <nAromAtom>
11

>  <nAromBond>
11

>  <nAtom>
37

>  <nHeavyAtom>
21

>  <nSpiro>
0

>  <nBridgehead>
0

>  <nHetero>
5

>  <nN>
1

>  <nO>
2

>  <nF>
0

>  <BalabanJ>
1.72

>  <BertzCT>
655.23

>  <nBonds>
39

>  <nBondsO>
23

>  <nBondsS>
27

>  <nBondsD>
1

>  <nBondsT>
0

>  <nBondsA>
11

>  <nBondsM>
12

>  <nBondsKS>
33

>  <nBondsKD>
6

>  <RNCG>
0.3

>  <RPCG>
0.21

>  <FCSP3>
0.31

>  <SZ>
28

>  <Sm>
26.79

>  <Sv>
24.8

>  <Sse>
37.27

>  <Sp>
27.05

>  <Si>
41.1

>  <MZ>
0.76

>  <Mm>
0.72

>  <Mv>
0.67

>  <Mse>
1.01

>  <Mp>
0.73

>  <Mi>
1.11

>  <NsCH3>
1

>  <NdCH2>
0

>  <NssCH2>
3

>  <NtCH>
0

>  <NdsCH>
0

>  <NaaCH>
6

>  <NsssCH>
1

>  <NddC>
0

>  <NtsC>
0

>  <NdssC>
1

>  <NaasC>
4

>  <NaaaC>
0

>  <NssssC>
0

>  <NsNH3>
0

>  <NsNH2>
0

>  <NssNH2>
0

>  <NdNH>
0

>  <NssNH>
0

>  <NaaNH>
0

>  <NtN>
0

>  <NsssNH>
0

>  <NdsN>
0

>  <NaaN>
0

>  <NsssN>
1

>  <NddsN>
0

>  <NaasN>
0

>  <NssssN>
0

>  <NsOH>
0

>  <NdO>
1

>  <NssO>
1

>  <NaaO>
0

>  <NsF>
0

>  <NsSiH3>
0

>  <NssSiH2>
0

>  <NsssSiH>
0

>  <NssssSi>
0

>  <NsPH2>
0

>  <NssPH>
0

>  <NsssP>
0

>  <NdsssP>
0

>  <NsssssP>
0

>  <NsSH>
0

>  <NdS>
0

>  <NssS>
0

>  <NaaS>
1

>  <NdssS>
0

>  <NddssS>
0

>  <NsCl>
1

>  <NsBr>
0

>  <NsI>
0

>  <fragCpx>
109.05

>  <fMF>
0.43

>  <nHBAcc>
4

>  <nHBDon>
0

>  <Kier1>
15.88

>  <Kier2>
7.05

>  <Lipinski>
1

>  <GhoseFilter>
1

>  <FilterItLogS>
-4.16

>  <VMcGowan>
228.23

>  <LabuteASA>
132.65

>  <PEOE_VSA1>
4.74

>  <PEOE_VSA2>
4.9

>  <PEOE_VSA3>
4.79

>  <PEOE_VSA4>
0

>  <PEOE_VSA5>
11.34

>  <PEOE_VSA6>
29.8

>  <PEOE_VSA7>
35.06

>  <PEOE_VSA8>
22.99

>  <PEOE_VSA9>
7.11

>  <PEOE_VSA10>
6.04

>  <PEOE_VSA11>
0

>  <PEOE_VSA12>
0

>  <PEOE_VSA13>
0

>  <SMR_VSA1>
9.53

>  <SMR_VSA2>
0

>  <SMR_VSA3>
4.9

>  <SMR_VSA4>
0

>  <SMR_VSA5>
19.01

>  <SMR_VSA6>
13.65

>  <SMR_VSA7>
56.74

>  <SMR_VSA8>
0

>  <SMR_VSA9>
0

>  <SlogP_VSA1>
0

>  <SlogP_VSA2>
24.52

>  <SlogP_VSA3>
22.5

>  <SlogP_VSA4>
0

>  <SlogP_VSA5>
22.05

>  <SlogP_VSA6>
35.71

>  <SlogP_VSA7>
5.02

>  <SlogP_VSA8>
0

>  <SlogP_VSA9>
0

>  <SlogP_VSA10>
0

>  <SlogP_VSA11>
0

>  <EState_VSA1>
6.04

>  <EState_VSA2>
5.97

>  <EState_VSA3>
5.02

>  <EState_VSA4>
25.07

>  <EState_VSA5>
17.55

>  <EState_VSA6>
11.34

>  <EState_VSA7>
24.27

>  <EState_VSA8>
16.35

>  <EState_VSA9>
16.34

>  <EState_VSA10>
4.79

>  <VSA_EState1>
5.01

>  <VSA_EState2>
15.85

>  <VSA_EState3>
2.71

>  <VSA_EState4>
2.11

>  <VSA_EState5>
-0.26

>  <VSA_EState6>
9.16

>  <VSA_EState7>
0.96

>  <VSA_EState8>
1.59

>  <VSA_EState9>
1.42

>  <apol>
45.17

>  <bpol>
23.34

>  <nRing>
3

>  <nHRing>
2

>  <naRing>
2

>  <naHRing>
1

>  <nARing 2>
1

>  <nAHRing 2>
1

>  <nFRing>
1

>  <nFHRing>
1

>  <nFaRing>
0

>  <nFaHRing>
0

>  <nFARing 2>
1

>  <nFAHRing 2>
1

>  <nRot>
3

>  <SLogP>
3.67

>  <SMR>
84.64

>  <TopoPSA(NO)>
29.54

>  <TopoPSA>
57.78

>  <JGI1>
0.15

>  <JGI2>
0.08

>  <JGI3>
0.05

>  <JGI4>
0.04

>  <JGI5>
0.02

>  <Diameter>
9

>  <Radius>
5

>  <TMWC10>
118.13

>  <TSRW10>
68.56

>  <MW>
321.06

>  <AMW>
8.68

>  <WPath>
867

>  <WPol>
33

>  <Zagreb1>
110

>  <Zagreb2>
131

>  <mZagreb2>
4.72

>  <yes>


>  <nAR-cont>
0.816016

>  <nHA-cont>
0.994529749

>  <MWHBN>
0.223237367

>  <MWHBN-cont>
0.992718572

>  <TPSA-cont>
0.596659721

>  <pka_cont>
0.97

>  <yes.1>


>  <BBB_SCORE>
4.977943049

>  <MMFF94 Energy>
90.65

$$$$
Compound 2519
Actelion Java MolfileCreator 2.0

  0  0  0  0  0  0              0 V3000
M  V30 BEGIN CTAB
M  V30 COUNTS 46 48 0 0 0
M  V30 BEGIN ATOM
M  V30 1 I -6.5045 1.0548 1.8668 0
M  V30 2 C -4.4528 0.8864 1.5865 0
M  V30 3 C -3.5958 1.8277 2.1514 0
M  V30 4 C -3.9402 -0.1652 0.8305 0
M  V30 5 C -2.2166 1.7129 1.9607 0
M  V30 6 C -2.5602 -0.2769 0.6408 0
M  V30 7 C -1.6795 0.657 1.208 0
M  V30 8 C -0.1715 0.5679 1.0059 0
M  V30 9 C 0.2372 0.8089 -0.4678 0
M  V30 10 C 0.4012 -0.7629 1.5533 0
M  V30 11 C 0.0575 2.2634 -0.866 0
M  V30 12 C 1.6994 0.391 -0.7416 0
M  V30 13 C 1.8366 -1.0422 1.0678 0
M  V30 14 O 0.139 3.2201 -0.1074 0
M  V30 15 O -0.1809 2.3518 -2.206 0
M  V30 16 N 1.9446 -1.021 -0.3957 0
M  V30 17 C 2.708 1.0518 0.2129 0
M  V30 18 C 2.783 0.1106 1.4197 0
M  V30 19 C -0.3663 3.6872 -2.6774 0
M  V30 20 C 1.1605 -1.9971 -1.1491 0
M  V30 21 C 1.6786 -3.4228 -0.9376 0
M  V30 22 C 0.8741 -4.4207 -1.7519 0
M  V30 23 F 0.9795 -4.1178 -3.0721 0
M  V30 24 H -3.982 2.6576 2.7375 0
M  V30 25 H -4.5996 -0.9031 0.381 0
M  V30 26 H -1.5628 2.4659 2.3985 0
M  V30 27 H -2.1837 -1.102 0.041 0
M  V30 28 H 0.2792 1.3621 1.6179 0
M  V30 29 H -0.4297 0.229 -1.1195 0
M  V30 30 H 0.3876 -0.7288 2.6511 0
M  V30 31 H -0.2353 -1.6129 1.282 0
M  V30 32 H 1.9777 0.6034 -1.7805 0
M  V30 33 H 2.2069 -1.9754 1.5041 0
M  V30 34 H 3.6965 1.1069 -0.2606 0
M  V30 35 H 2.4363 2.0683 0.5104 0
M  V30 36 H 3.8115 -0.2543 1.5304 0
M  V30 37 H 2.5104 0.6169 2.3516 0
M  V30 38 H -0.5641 3.6427 -3.7518 0
M  V30 39 H -1.2269 4.1518 -2.1857 0
M  V30 40 H 0.5399 4.279 -2.5159 0
M  V30 41 H 1.2474 -1.7616 -2.2175 0
M  V30 42 H 0.0935 -1.9557 -0.9078 0
M  V30 43 H 1.6209 -3.7071 0.1184 0
M  V30 44 H 2.7301 -3.4754 -1.2436 0
M  V30 45 H -0.186 -4.4007 -1.4821 0
M  V30 46 H 1.2542 -5.436 -1.6086 0
M  V30 END ATOM
M  V30 BEGIN BOND
M  V30 1 1 1 2
M  V30 2 2 2 3
M  V30 3 1 2 4
M  V30 4 1 3 5
M  V30 5 2 4 6
M  V30 6 2 5 7
M  V30 7 1 7 8
M  V30 8 1 8 9
M  V30 9 1 8 10
M  V30 10 1 9 11
M  V30 11 1 9 12
M  V30 12 1 10 13
M  V30 13 2 11 14
M  V30 14 1 11 15
M  V30 15 1 12 16
M  V30 16 1 12 17
M  V30 17 1 13 18
M  V30 18 1 15 19
M  V30 19 1 16 20
M  V30 20 1 20 21
M  V30 21 1 21 22
M  V30 22 1 22 23
M  V30 23 1 6 7
M  V30 24 1 13 16
M  V30 25 1 17 18
M  V30 26 1 3 24
M  V30 27 1 4 25
M  V30 28 1 5 26
M  V30 29 1 6 27
M  V30 30 1 8 28
M  V30 31 1 9 29
M  V30 32 1 10 30
M  V30 33 1 10 31
M  V30 34 1 12 32
M  V30 35 1 13 33
M  V30 36 1 17 34
M  V30 37 1 17 35
M  V30 38 1 18 36
M  V30 39 1 18 37
M  V30 40 1 19 38
M  V30 41 1 19 39
M  V30 42 1 19 40
M  V30 43 1 20 41
M  V30 44 1 20 42
M  V30 45 1 21 43
M  V30 46 1 21 44
M  V30 47 1 22 45
M  V30 48 1 22 46
M  V30 END BOND
M  V30 END CTAB
M  END
>  <Column 1>
3119

>  <level_0>
5272

>  <index>
5273

>  <Unnamed: 0>
5273

>  <NO.>
5285

>  <Name>
ioflupane

>  <IUPAC_name>
methyl 8-(3-fluoropropyl)-3-(4-iodophenyl)-8-azabicyclo[3.2.1]octane-2-carboxylate

>  <SMILES>
COC(=O)C1C(c2ccc(I)cc2)CC2CCC1N2CCCF

>  <CID>
22896913

>  <logBB>


>  <BBB+/BBB->
BBB+

>  <Inchi>
InChI=1S/C18H23FINO2/c1-23-18(22)17-15(12-3-5-13(20)6-4-12)11-14-7-8-16(17)21(14)10-2-9-19/h3-6-14-17H-2-7-11H2-1H3

>  <threshold>


>  <reference>
R14|R23|

>  <group>
C

>  <Class>
-1

>  <ABC>
17.65

>  <ABCGG>
15.07

>  <nAcid>
0

>  <nBase>
1

>  <nAromAtom>
6

>  <nAromBond>
6

>  <nAtom>
46

>  <nHeavyAtom>
23

>  <nSpiro>
0

>  <nBridgehead>
2

>  <nHetero>
5

>  <nN>
1

>  <nO>
2

>  <nF>
1

>  <BalabanJ>
1.75

>  <BertzCT>
550.46

>  <nBonds>
48

>  <nBondsO>
25

>  <nBondsS>
41

>  <nBondsD>
1

>  <nBondsT>
0

>  <nBondsA>
6

>  <nBondsM>
7

>  <nBondsKS>
44

>  <nBondsKD>
4

>  <RNCG>
0.28

>  <RPCG>
0.18

>  <FCSP3>
0.61

>  <SZ>
36

>  <Sm>
35.91

>  <Sv>
28.65

>  <Sse>
46

>  <Sp>
32.34

>  <Si>
51.96

>  <MZ>
0.78

>  <Mm>
0.78

>  <Mv>
0.62

>  <Mse>
1

>  <Mp>
0.7

>  <Mi>
1.13

>  <NsCH3>
1

>  <NdCH2>
0

>  <NssCH2>
6

>  <NtCH>
0

>  <NdsCH>
0

>  <NaaCH>
4

>  <NsssCH>
4

>  <NddC>
0

>  <NtsC>
0

>  <NdssC>
1

>  <NaasC>
2

>  <NaaaC>
0

>  <NssssC>
0

>  <NsNH3>
0

>  <NsNH2>
0

>  <NssNH2>
0

>  <NdNH>
0

>  <NssNH>
0

>  <NaaNH>
0

>  <NtN>
0

>  <NsssNH>
0

>  <NdsN>
0

>  <NaaN>
0

>  <NsssN>
1

>  <NddsN>
0

>  <NaasN>
0

>  <NssssN>
0

>  <NsOH>
0

>  <NdO>
1

>  <NssO>
1

>  <NaaO>
0

>  <NsF>
1

>  <NsSiH3>
0

>  <NssSiH2>
0

>  <NsssSiH>
0

>  <NssssSi>
0

>  <NsPH2>
0

>  <NssPH>
0

>  <NsssP>
0

>  <NdsssP>
0

>  <NsssssP>
0

>  <NsSH>
0

>  <NdS>
0

>  <NssS>
0

>  <NaaS>
0

>  <NdssS>
0

>  <NddssS>
0

>  <NsCl>
0

>  <NsBr>
0

>  <NsI>
1

>  <fragCpx>
119.05

>  <fMF>
0.3

>  <nHBAcc>
3

>  <nHBDon>
0

>  <Kier1>
17.81

>  <Kier2>
7.92

>  <Lipinski>
1

>  <GhoseFilter>
1

>  <FilterItLogS>
-4.56

>  <VMcGowan>
264.01

>  <LabuteASA>
150.26

>  <PEOE_VSA1>
4.74

>  <PEOE_VSA2>
14.08

>  <PEOE_VSA3>
0

>  <PEOE_VSA4>
0

>  <PEOE_VSA5>
0

>  <PEOE_VSA6>
12.13

>  <PEOE_VSA7>
65.97

>  <PEOE_VSA8>
28.12

>  <PEOE_VSA9>
19.7

>  <PEOE_VSA10>
0

>  <PEOE_VSA11>
0

>  <PEOE_VSA12>
0

>  <PEOE_VSA13>
0

>  <SMR_VSA1>
13.92

>  <SMR_VSA2>
0

>  <SMR_VSA3>
4.9

>  <SMR_VSA4>
5.92

>  <SMR_VSA5>
43.68

>  <SMR_VSA6>
20.33

>  <SMR_VSA7>
33.4

>  <SMR_VSA8>
0

>  <SMR_VSA9>
0

>  <SlogP_VSA1>
0

>  <SlogP_VSA2>
43.28

>  <SlogP_VSA3>
9.53

>  <SlogP_VSA4>
9.49

>  <SlogP_VSA5>
37.16

>  <SlogP_VSA6>
24.27

>  <SlogP_VSA7>
0

>  <SlogP_VSA8>
0

>  <SlogP_VSA9>
0

>  <SlogP_VSA10>
4.39

>  <SlogP_VSA11>
0

>  <EState_VSA1>
0

>  <EState_VSA2>
30.52

>  <EState_VSA3>
12.46

>  <EState_VSA4>
25.81

>  <EState_VSA5>
16.24

>  <EState_VSA6>
0

>  <EState_VSA7>
0

>  <EState_VSA8>
51.76

>  <EState_VSA9>
4.74

>  <EState_VSA10>
9.18

>  <VSA_EState1>
18.93

>  <VSA_EState2>
14.87

>  <VSA_EState3>
0

>  <VSA_EState4>
1.22

>  <VSA_EState5>
-0.05

>  <VSA_EState6>
9.13

>  <VSA_EState7>
3.63

>  <VSA_EState8>
0.46

>  <VSA_EState9>
1.47

>  <apol>
54.01

>  <bpol>
32.18

>  <nRing>
3

>  <nHRing>
2

>  <naRing>
1

>  <naHRing>
0

>  <nARing 2>
2

>  <nAHRing 2>
2

>  <nFRing>
1

>  <nFHRing>
1

>  <nFaRing>
0

>  <nFaHRing>
0

>  <nFARing 2>
1

>  <nFAHRing 2>
1

>  <nRot>
5

>  <SLogP>
3.76

>  <SMR>
96.13

>  <TopoPSA(NO)>
29.54

>  <TopoPSA>
29.54

>  <JGI1>
0.16

>  <JGI2>
0.08

>  <JGI3>
0.05

>  <JGI4>
0.05

>  <JGI5>
0.03

>  <Diameter>
12

>  <Radius>
6

>  <TMWC10>
123.62

>  <TSRW10>
71.79

>  <MW>
431.08

>  <AMW>
9.37

>  <WPath>
1135

>  <WPol>
38

>  <Zagreb1>
120

>  <Zagreb2>
144

>  <mZagreb2>
5.25

>  <yes>


>  <nAR-cont>
1

>  <nHA-cont>
0.967789328

>  <MWHBN>
0.144491506

>  <MWHBN-cont>
0.917388183

>  <TPSA-cont>
0.793792457

>  <pka_cont>
0.97

>  <yes.1>


>  <BBB_SCORE>
5.416456516

>  <MMFF94 Energy>
24.323

$$$$
Compound 2520
Actelion Java MolfileCreator 2.0

  0  0  0  0  0  0              0 V3000
M  V30 BEGIN CTAB
M  V30 COUNTS 60 65 0 0 0
M  V30 BEGIN ATOM
M  V30 1 O -2.8504 2.1983 5.1351 0
M  V30 2 C -1.9325 1.7663 4.4427 0
M  V30 3 C -1.425 2.5841 3.3171 0
M  V30 4 C -1.2558 0.4523 4.7324 0
M  V30 5 C -0.4275 2.1549 2.5239 0
M  V30 6 C -0.7091 -0.1697 3.4547 0
M  V30 7 C 0.2337 0.7706 2.6524 0
M  V30 8 C 0.0853 3.0319 1.3987 0
M  V30 9 C 0.4637 0.1452 1.2557 0
M  V30 10 C 1.5632 0.9527 3.4171 0
M  V30 11 C 0.1678 2.3224 0.0254 0
M  V30 12 O 1.8174 -0.2261 0.9616 0
M  V30 13 C -0.2519 0.8357 0.1017 0
M  V30 14 C 0.9062 -1.3208 1.1039 0
M  V30 15 C 1.5597 2.5302 -0.5621 0
M  V30 16 C -0.1031 0.0435 -1.2089 0
M  V30 17 C 0.7044 -2.0935 -0.1728 0
M  V30 18 O 2.6003 2.5889 0.077 0
M  V30 19 O 1.4761 2.6691 -1.9168 0
M  V30 20 C -0.401 -1.4717 -1.049 0
M  V30 21 C -1.0081 0.4744 -2.3653 0
M  V30 22 C 2.7409 2.8175 -2.5641 0
M  V30 23 C -0.3884 -1.9078 -2.5385 0
M  V30 24 C -1.7811 -1.7651 -0.407 0
M  V30 25 C -1.1528 -0.7711 -3.2586 0
M  V30 26 O 0.9525 -1.9292 -3.0618 0
M  V30 27 C -0.907 -3.2987 -2.8482 0
M  V30 28 C 1.0483 -2.868 -4.0498 0
M  V30 29 C -0.241 -3.6211 -4.1655 0
M  V30 30 O 2.0348 -3.0374 -4.746 0
M  V30 31 H -1.8931 3.5561 3.2027 0
M  V30 32 H -0.4665 0.6199 5.4717 0
M  V30 33 H -1.9947 -0.2269 5.172 0
M  V30 34 H -1.5596 -0.4558 2.8203 0
M  V30 35 H -0.1953 -1.1035 3.7128 0
M  V30 36 H 1.0527 3.4438 1.7097 0
M  V30 37 H -0.5672 3.9084 1.2825 0
M  V30 38 H 1.4201 1.4624 4.3764 0
M  V30 39 H 2.2809 1.548 2.8408 0
M  V30 40 H 2.036 -0.0137 3.6262 0
M  V30 41 H -0.5329 2.8438 -0.6423 0
M  V30 42 H -1.3229 0.8315 0.3508 0
M  V30 43 H 1.0522 -1.9571 1.9652 0
M  V30 44 H 0.9366 0.1402 -1.5533 0
M  V30 45 H 0.4505 -3.1324 0.0699 0
M  V30 46 H 1.6621 -2.1328 -0.7049 0
M  V30 47 H -0.5812 1.3115 -2.9257 0
M  V30 48 H -1.9938 0.7936 -2.0075 0
M  V30 49 H 2.5635 2.8847 -3.6409 0
M  V30 50 H 3.2329 3.7381 -2.2351 0
M  V30 51 H 3.3752 1.9464 -2.3718 0
M  V30 52 H -1.8465 -1.4014 0.6219 0
M  V30 53 H -1.9705 -2.8435 -0.3658 0
M  V30 54 H -2.607 -1.3107 -0.9627 0
M  V30 55 H -2.2171 -1.0083 -3.3694 0
M  V30 56 H -0.7485 -0.5664 -4.2562 0
M  V30 57 H -0.5591 -4.0147 -2.0932 0
M  V30 58 H -1.9975 -3.3685 -2.8995 0
M  V30 59 H -0.8087 -3.2351 -5.0168 0
M  V30 60 H -0.0632 -4.6935 -4.2728 0
M  V30 END ATOM
M  V30 BEGIN BOND
M  V30 1 2 1 2
M  V30 2 1 2 3
M  V30 3 1 2 4
M  V30 4 2 3 5
M  V30 5 1 4 6
M  V30 6 1 5 7
M  V30 7 1 5 8
M  V30 8 1 7 9
M  V30 9 1 7 10
M  V30 10 1 8 11
M  V30 11 1 9 12
M  V30 12 1 9 13
M  V30 13 1 9 14
M  V30 14 1 11 15
M  V30 15 1 13 16
M  V30 16 1 14 17
M  V30 17 2 15 18
M  V30 18 1 15 19
M  V30 19 1 16 20
M  V30 20 1 16 21
M  V30 21 1 19 22
M  V30 22 1 20 23
M  V30 23 1 20 24
M  V30 24 1 21 25
M  V30 25 1 23 26
M  V30 26 1 23 27
M  V30 27 1 26 28
M  V30 28 1 27 29
M  V30 29 2 28 30
M  V30 30 1 6 7
M  V30 31 1 11 13
M  V30 32 1 12 14
M  V30 33 1 17 20
M  V30 34 1 23 25
M  V30 35 1 28 29
M  V30 36 1 3 31
M  V30 37 1 4 32
M  V30 38 1 4 33
M  V30 39 1 6 34
M  V30 40 1 6 35
M  V30 41 1 8 36
M  V30 42 1 8 37
M  V30 43 1 10 38
M  V30 44 1 10 39
M  V30 45 1 10 40
M  V30 46 1 11 41
M  V30 47 1 13 42
M  V30 48 1 14 43
M  V30 49 1 16 44
M  V30 50 1 17 45
M  V30 51 1 17 46
M  V30 52 1 21 47
M  V30 53 1 21 48
M  V30 54 1 22 49
M  V30 55 1 22 50
M  V30 56 1 22 51
M  V30 57 1 24 52
M  V30 58 1 24 53
M  V30 59 1 24 54
M  V30 60 1 25 55
M  V30 61 1 25 56
M  V30 62 1 27 57
M  V30 63 1 27 58
M  V30 64 1 29 59
M  V30 65 1 29 60
M  V30 END BOND
M  V30 END CTAB
M  END
>  <Column 1>
3120

>  <level_0>
5274

>  <index>
5275

>  <Unnamed: 0>
5275

>  <NO.>
5287

>  <Name>
eplerenone

>  <IUPAC_name>
methyl 2-15-dimethyl-5-5'-dioxospiro[18-oxapentacyclo[8.8.0.01-17.02-7.011-15]octadec-6-ene-14-2'-oxolane]-9-carboxylate

>  <SMILES>
COC(=O)C1CC2=CC(=O)CCC2(C)C23OC2CC2(C)C(CCC24CCC(=O)O4)C13

>  <CID>
21865526

>  <logBB>


>  <BBB+/BBB->
BBB-

>  <Inchi>
InChI=1S/C24H30O6/c1-21-7-4-14(25)10-13(21)11-15(20(27)28-3)19-16-5-8-23(9-6-18(26)30-23)22(16-2)12-17-24(19-21)29-17/h10-15-17-19H-4-9-11-12H2-1-3H3

>  <threshold>


>  <reference>
R14|R23|

>  <group>
C

>  <Class>
-1

>  <ABC>
24.84

>  <ABCGG>
21.01

>  <nAcid>
0

>  <nBase>
0

>  <nAromAtom>
0

>  <nAromBond>
0

>  <nAtom>
60

>  <nHeavyAtom>
30

>  <nSpiro>
2

>  <nBridgehead>
0

>  <nHetero>
6

>  <nN>
0

>  <nO>
6

>  <nF>
0

>  <BalabanJ>
1.44

>  <BertzCT>
907.37

>  <nBonds>
65

>  <nBondsO>
35

>  <nBondsS>
61

>  <nBondsD>
4

>  <nBondsT>
0

>  <nBondsA>
0

>  <nBondsM>
4

>  <nBondsKS>
61

>  <nBondsKD>
4

>  <RNCG>
0.19

>  <RPCG>
0.13

>  <FCSP3>
0.79

>  <SZ>
37

>  <Sm>
34.51

>  <Sv>
36.42

>  <Sse>
60.3

>  <Sp>
38.86

>  <Si>
67.49

>  <MZ>
0.62

>  <Mm>
0.58

>  <Mv>
0.61

>  <Mse>
1.01

>  <Mp>
0.65

>  <Mi>
1.12

>  <NsCH3>
3

>  <NdCH2>
0

>  <NssCH2>
8

>  <NtCH>
0

>  <NdsCH>
1

>  <NaaCH>
0

>  <NsssCH>
4

>  <NddC>
0

>  <NtsC>
0

>  <NdssC>
4

>  <NaasC>
0

>  <NaaaC>
0

>  <NssssC>
4

>  <NsNH3>
0

>  <NsNH2>
0

>  <NssNH2>
0

>  <NdNH>
0

>  <NssNH>
0

>  <NaaNH>
0

>  <NtN>
0

>  <NsssNH>
0

>  <NdsN>
0

>  <NaaN>
0

>  <NsssN>
0

>  <NddsN>
0

>  <NaasN>
0

>  <NssssN>
0

>  <NsOH>
0

>  <NdO>
3

>  <NssO>
3

>  <NaaO>
0

>  <NsF>
0

>  <NsSiH3>
0

>  <NssSiH2>
0

>  <NsssSiH>
0

>  <NssssSi>
0

>  <NsPH2>
0

>  <NssPH>
0

>  <NsssP>
0

>  <NdsssP>
0

>  <NsssssP>
0

>  <NsSH>
0

>  <NdS>
0

>  <NssS>
0

>  <NaaS>
0

>  <NdssS>
0

>  <NddssS>
0

>  <NsCl>
0

>  <NsBr>
0

>  <NsI>
0

>  <fragCpx>
355.06

>  <fMF>
0.37

>  <nHBAcc>
6

>  <nHBDon>
0

>  <Kier1>
20.6

>  <Kier2>
6.32

>  <Lipinski>
1

>  <GhoseFilter>
1

>  <FilterItLogS>
-4.22

>  <VMcGowan>
301.88

>  <LabuteASA>
176.23

>  <PEOE_VSA1>
14.21

>  <PEOE_VSA2>
14.38

>  <PEOE_VSA3>
0

>  <PEOE_VSA4>
0

>  <PEOE_VSA5>
0

>  <PEOE_VSA6>
19.42

>  <PEOE_VSA7>
50.52

>  <PEOE_VSA8>
29.59

>  <PEOE_VSA9>
19.13

>  <PEOE_VSA10>
11.2

>  <PEOE_VSA11>
5.78

>  <PEOE_VSA12>
0

>  <PEOE_VSA13>
0

>  <SMR_VSA1>
28.59

>  <SMR_VSA2>
0

>  <SMR_VSA3>
0

>  <SMR_VSA4>
28.58

>  <SMR_VSA5>
82.52

>  <SMR_VSA6>
7.11

>  <SMR_VSA7>
11.65

>  <SMR_VSA8>
0

>  <SMR_VSA9>
0

>  <SlogP_VSA1>
0

>  <SlogP_VSA2>
42.14

>  <SlogP_VSA3>
28.59

>  <SlogP_VSA4>
28.58

>  <SlogP_VSA5>
65.21

>  <SlogP_VSA6>
11.65

>  <SlogP_VSA7>
0

>  <SlogP_VSA8>
0

>  <SlogP_VSA9>
0

>  <SlogP_VSA10>
0

>  <SlogP_VSA11>
0

>  <EState_VSA1>
11.2

>  <EState_VSA2>
52.41

>  <EState_VSA3>
19.26

>  <EState_VSA4>
37.68

>  <EState_VSA5>
7.11

>  <EState_VSA6>
6.08

>  <EState_VSA7>
0

>  <EState_VSA8>
13.85

>  <EState_VSA9>
14.21

>  <EState_VSA10>
14.38

>  <VSA_EState1>
17.93

>  <VSA_EState2>
37.38

>  <VSA_EState3>
0

>  <VSA_EState4>
-0.17

>  <VSA_EState5>
-0.2

>  <VSA_EState6>
0

>  <VSA_EState7>
7.61

>  <VSA_EState8>
4.51

>  <VSA_EState9>
1.45

>  <apol>
64.9

>  <bpol>
37.91

>  <nRing>
6

>  <nHRing>
2

>  <naRing>
0

>  <naHRing>
0

>  <nARing 2>
6

>  <nAHRing 2>
2

>  <nFRing>
1

>  <nFHRing>
1

>  <nFaRing>
0

>  <nFaHRing>
0

>  <nFARing 2>
1

>  <nFAHRing 2>
1

>  <nRot>
1

>  <SLogP>
3.12

>  <SMR>
105.15

>  <TopoPSA(NO)>
82.2

>  <TopoPSA>
82.2

>  <JGI1>
0.29

>  <JGI2>
0.13

>  <JGI3>
0.07

>  <JGI4>
0.06

>  <JGI5>
0.04

>  <Diameter>
12

>  <Radius>
6

>  <TMWC10>
148.49

>  <TSRW10>
89.69

>  <MW>
414.2

>  <AMW>
6.9

>  <WPath>
1996

>  <WPol>
69

>  <Zagreb1>
190

>  <Zagreb2>
252

>  <mZagreb2>
6.13

>  <yes>


>  <nAR-cont>
0

>  <nHA-cont>
0.74523694

>  <MWHBN>
0.29481271

>  <MWHBN-cont>
0.855955033

>  <TPSA-cont>
0.426192957

>  <pka_cont>
0.97

>  <yes.1>


>  <BBB_SCORE>
3.366555403

>  <MMFF94 Energy>
65.126

$$$$
Compound 2521
Actelion Java MolfileCreator 2.0

  0  0  0  0  0  0              0 V3000
M  V30 BEGIN CTAB
M  V30 COUNTS 103 105 0 0 0
M  V30 BEGIN ATOM
M  V30 1 O -0.1574 -3.3893 -0.3149 0
M  V30 2 C -0.8 -3.0084 -1.2849 0
M  V30 3 O -2.1242 -3.1873 -1.4848 0
M  V30 4 N -0.2789 -2.2874 -2.3122 0
M  V30 5 C -2.7823 -3.8904 -0.4301 0
M  V30 6 C 1.1273 -1.8911 -2.3609 0 CFG=2
M  V30 7 C 1.2943 -0.678 -1.4076 0
M  V30 8 C 1.647 -1.6802 -3.817 0
M  V30 9 O 1.2851 0.4899 -1.7863 0
M  V30 10 N 1.3532 -1.0732 -0.0672 0
M  V30 11 C 1.5496 -3.021 -4.5812 0
M  V30 12 C 0.8555 -0.6253 -4.6142 0
M  V30 13 C 3.1343 -1.2704 -3.7865 0
M  V30 14 N 1.6574 -0.1404 0.9447 0
M  V30 15 C 2.3845 -0.7274 2.0801 0
M  V30 16 C 0.516 0.7136 1.3356 0
M  V30 17 C 3.6785 -1.4011 1.6653 0
M  V30 18 C -0.5851 0.0585 2.2087 0 CFG=2
M  V30 19 C 3.9236 -2.7402 1.989 0
M  V30 20 C 4.6587 -0.6927 0.9612 0
M  V30 21 O -1.1485 -1.099 1.5719 0
M  V30 22 C -1.7314 1.0539 2.5213 0 CFG=1
M  V30 23 C 5.1189 -3.3599 1.6018 0
M  V30 24 C 5.8499 -1.3173 0.5767 0
M  V30 25 N -2.493 1.3352 1.3003 0
M  V30 26 C -2.6747 0.4767 3.6017 0
M  V30 27 C 6.1066 -2.6665 0.8793 0
M  V30 28 C -2.472 2.5515 0.6619 0
M  V30 29 C -3.6404 1.5074 4.1458 0
M  V30 30 C 7.3706 -3.307 0.4552 0
M  V30 31 O -1.7584 3.4843 1.0285 0
M  V30 32 C -3.4059 2.6455 -0.5671 0 CFG=1
M  V30 33 C -3.3003 2.2765 5.2671 0
M  V30 34 C -4.8715 1.7361 3.5158 0
M  V30 35 N 8.4503 -2.4862 0.3746 0
M  V30 36 C 7.4674 -4.6637 0.1408 0
M  V30 37 N -3.984 3.9806 -0.5161 0
M  V30 38 C -2.703 2.3318 -1.9217 0
M  V30 39 C -4.1771 3.2499 5.7501 0
M  V30 40 C -5.7434 2.7143 3.9959 0
M  V30 41 C 9.6307 -3.0225 -0.0055 0
M  V30 42 C 8.6971 -5.191 -0.2512 0
M  V30 43 C -5.2222 4.224 -0.0124 0
M  V30 44 C -3.6862 2.5848 -3.0856 0
M  V30 45 C -1.4482 3.1941 -2.1491 0
M  V30 46 C -2.2966 0.845 -1.9763 0
M  V30 47 C -5.3976 3.4693 5.1142 0
M  V30 48 C 9.8032 -4.3566 -0.3242 0
M  V30 49 O -6.0416 3.3711 0.296 0
M  V30 50 O -5.4018 5.562 0.0968 0
M  V30 51 C -6.6627 5.933 0.6526 0
M  V30 52 H -0.9404 -1.9392 -2.9921 0
M  V30 53 H -2.3586 -4.8928 -0.3137 0
M  V30 54 H -2.7136 -3.3288 0.5065 0
M  V30 55 H -3.8382 -3.9898 -0.6968 0
M  V30 56 H 1.7089 -2.7146 -1.9214 0
M  V30 57 H 1.3465 -2.075 0.142 0
M  V30 58 H 1.9657 -2.9323 -5.5914 0
M  V30 59 H 0.5103 -3.3517 -4.6843 0
M  V30 60 H 2.1041 -3.8124 -4.0643 0
M  V30 61 H 1.2469 -0.5385 -5.635 0
M  V30 62 H 0.9199 0.37 -4.1674 0
M  V30 63 H -0.2035 -0.887 -4.701 0
M  V30 64 H 3.732 -1.995 -3.2219 0
M  V30 65 H 3.5498 -1.2168 -4.7995 0
M  V30 66 H 3.2778 -0.2873 -3.3269 0
M  V30 67 H 2.6413 0.0539 2.8066 0
M  V30 68 H 1.7499 -1.4549 2.6012 0
M  V30 69 H 0.9165 1.5822 1.8741 0
M  V30 70 H 0.0674 1.1197 0.4236 0
M  V30 71 H -0.1402 -0.2737 3.1533 0
M  V30 72 H 3.1907 -3.3164 2.5497 0
M  V30 73 H 4.4956 0.3506 0.6958 0
M  V30 74 H -0.4218 -1.5087 1.0659 0
M  V30 75 H -1.292 1.986 2.898 0
M  V30 76 H 5.2751 -4.3956 1.8949 0
M  V30 77 H 6.5897 -0.7368 0.0265 0
M  V30 78 H -3.0174 0.5635 0.907 0
M  V30 79 H -2.0855 0.0813 4.4393 0
M  V30 80 H -3.2448 -0.3747 3.2072 0
M  V30 81 H -4.2191 1.9221 -0.4216 0
M  V30 82 H -2.3473 2.1288 5.7691 0
M  V30 83 H -5.1571 1.1674 2.6341 0
M  V30 84 H 6.5993 -5.3126 0.1794 0
M  V30 85 H -3.3704 4.7826 -0.5787 0
M  V30 86 H -3.9037 3.8438 6.6183 0
M  V30 87 H -6.6873 2.8914 3.4863 0
M  V30 88 H 10.4616 -2.3241 -0.0483 0
M  V30 89 H 8.7864 -6.2443 -0.5008 0
M  V30 90 H -3.2462 2.2926 -4.0461 0
M  V30 91 H -3.9584 3.6431 -3.1633 0
M  V30 92 H -4.6089 2.0081 -2.9546 0
M  V30 93 H -1.0039 2.9874 -3.1299 0
M  V30 94 H -0.6763 2.992 -1.3994 0
M  V30 95 H -1.6821 4.2633 -2.1153 0
M  V30 96 H -3.1622 0.1911 -1.8216 0
M  V30 97 H -1.8595 0.5902 -2.9486 0
M  V30 98 H -1.5526 0.5993 -1.2144 0
M  V30 99 H -6.0756 4.233 5.485 0
M  V30 100 H 10.7737 -4.7338 -0.6252 0
M  V30 101 H -7.4804 5.5944 0.0086 0
M  V30 102 H -6.7716 5.5283 1.6639 0
M  V30 103 H -6.699 7.0244 0.712 0
M  V30 END ATOM
M  V30 BEGIN BOND
M  V30 1 2 1 2
M  V30 2 1 2 3
M  V30 3 1 2 4
M  V30 4 1 3 5
M  V30 5 1 4 6
M  V30 6 1 6 7
M  V30 7 1 6 8
M  V30 8 2 7 9
M  V30 9 1 7 10
M  V30 10 1 8 11
M  V30 11 1 8 12
M  V30 12 1 8 13
M  V30 13 1 10 14
M  V30 14 1 14 15
M  V30 15 1 14 16
M  V30 16 1 15 17
M  V30 17 1 16 18
M  V30 18 2 17 19
M  V30 19 1 17 20
M  V30 20 1 18 21
M  V30 21 1 18 22
M  V30 22 1 19 23
M  V30 23 2 20 24
M  V30 24 1 22 25
M  V30 25 1 22 26
M  V30 26 2 23 27
M  V30 27 1 25 28
M  V30 28 1 26 29
M  V30 29 1 27 30
M  V30 30 2 28 31
M  V30 31 1 28 32
M  V30 32 2 29 33
M  V30 33 1 29 34
M  V30 34 2 30 35
M  V30 35 1 30 36
M  V30 36 1 32 37
M  V30 37 1 32 38
M  V30 38 1 33 39
M  V30 39 2 34 40
M  V30 40 1 35 41
M  V30 41 2 36 42
M  V30 42 1 37 43
M  V30 43 1 38 44
M  V30 44 1 38 45
M  V30 45 1 38 46
M  V30 46 2 39 47
M  V30 47 2 41 48
M  V30 48 2 43 49
M  V30 49 1 43 50
M  V30 50 1 50 51
M  V30 51 1 24 27
M  V30 52 1 40 47
M  V30 53 1 42 48
M  V30 54 1 4 52
M  V30 55 1 5 53
M  V30 56 1 5 54
M  V30 57 1 5 55
M  V30 58 1 6 56
M  V30 59 1 10 57
M  V30 60 1 11 58
M  V30 61 1 11 59
M  V30 62 1 11 60
M  V30 63 1 12 61
M  V30 64 1 12 62
M  V30 65 1 12 63
M  V30 66 1 13 64
M  V30 67 1 13 65
M  V30 68 1 13 66
M  V30 69 1 15 67
M  V30 70 1 15 68
M  V30 71 1 16 69
M  V30 72 1 16 70
M  V30 73 1 18 71
M  V30 74 1 19 72
M  V30 75 1 20 73
M  V30 76 1 21 74
M  V30 77 1 22 75
M  V30 78 1 23 76
M  V30 79 1 24 77
M  V30 80 1 25 78
M  V30 81 1 26 79
M  V30 82 1 26 80
M  V30 83 1 32 81
M  V30 84 1 33 82
M  V30 85 1 34 83
M  V30 86 1 36 84
M  V30 87 1 37 85
M  V30 88 1 39 86
M  V30 89 1 40 87
M  V30 90 1 41 88
M  V30 91 1 42 89
M  V30 92 1 44 90
M  V30 93 1 44 91
M  V30 94 1 44 92
M  V30 95 1 45 93
M  V30 96 1 45 94
M  V30 97 1 45 95
M  V30 98 1 46 96
M  V30 99 1 46 97
M  V30 100 1 46 98
M  V30 101 1 47 99
M  V30 102 1 48 100
M  V30 103 1 51 101
M  V30 104 1 51 102
M  V30 105 1 51 103
M  V30 END BOND
M  V30 BEGIN COLLECTION
M  V30 MDLV30/STEABS ATOMS=(4 6 18 22 32)
M  V30 END COLLECTION
M  V30 END CTAB
M  END
>  <Column 1>
3121

>  <level_0>
5275

>  <index>
5276

>  <Unnamed: 0>
5276

>  <NO.>
5288

>  <Name>
atazanavir

>  <IUPAC_name>
methyl n-[(2s)-1-[2-[(2s-3s)-2-hydroxy-3-[[(2s)-2-(methoxycarbonylamino)-3-3-dimethylbutanoyl]amino]-4-phenylbutyl]-2-[(4-pyridin-2-ylphenyl)methyl]hydrazinyl]-3-3-dimethyl-1-oxobutan-2-yl]carbamate

>  <SMILES>
COC(=O)N[C@H](C(=O)N[C@@H](Cc1ccccc1)[C@@H](O)CN(Cc1ccc(-c2ccccn2)cc1)NC(=O)[C@@H](NC(=O)OC)C(C)(C)C)C(C)(C)C

>  <CID>
148192

>  <logBB>


>  <BBB+/BBB->
BBB-

>  <Inchi>
InChI=1S/C38H52N6O7/c1-37(2-3)31(41-35(48)50-7)33(46)40-29(22-25-14-10-9-11-15-25)30(45)24-44(43-34(47)32(38(4-5)6)42-36(49)51-8)23-26-17-19-27(20-18-26)28-16-12-13-21-39-28/h9-21-29-32-45H-22-24H2-1-8H3-(H-40-46)(H-41-48)(H-42-49)(H-43-47)/t29--30--31+-32+/m0/s1

>  <threshold>


>  <reference>
R14|

>  <group>
C

>  <Class>
1

>  <ABC>
38.69

>  <ABCGG>
31.1

>  <nAcid>
0

>  <nBase>
0

>  <nAromAtom>
18

>  <nAromBond>
18

>  <nAtom>
103

>  <nHeavyAtom>
51

>  <nSpiro>
0

>  <nBridgehead>
0

>  <nHetero>
13

>  <nN>
6

>  <nO>
7

>  <nF>
0

>  <BalabanJ>
1.82

>  <BertzCT>
1574.23

>  <nBonds>
105

>  <nBondsO>
53

>  <nBondsS>
83

>  <nBondsD>
4

>  <nBondsT>
0

>  <nBondsA>
18

>  <nBondsM>
22

>  <nBondsKS>
92

>  <nBondsKD>
13

>  <RNCG>
0.09

>  <RPCG>
0.08

>  <FCSP3>
0.45

>  <SZ>
63

>  <Sm>
58.69

>  <Sv>
61.64

>  <Sse>
103.38

>  <Sp>
66.08

>  <Si>
117.01

>  <MZ>
0.61

>  <Mm>
0.57

>  <Mv>
0.6

>  <Mse>
1

>  <Mp>
0.64

>  <Mi>
1.14

>  <NsCH3>
8

>  <NdCH2>
0

>  <NssCH2>
3

>  <NtCH>
0

>  <NdsCH>
0

>  <NaaCH>
13

>  <NsssCH>
4

>  <NddC>
0

>  <NtsC>
0

>  <NdssC>
4

>  <NaasC>
4

>  <NaaaC>
0

>  <NssssC>
2

>  <NsNH3>
0

>  <NsNH2>
0

>  <NssNH2>
0

>  <NdNH>
0

>  <NssNH>
4

>  <NaaNH>
0

>  <NtN>
0

>  <NsssNH>
0

>  <NdsN>
0

>  <NaaN>
1

>  <NsssN>
1

>  <NddsN>
0

>  <NaasN>
0

>  <NssssN>
0

>  <NsOH>
1

>  <NdO>
4

>  <NssO>
2

>  <NaaO>
0

>  <NsF>
0

>  <NsSiH3>
0

>  <NssSiH2>
0

>  <NsssSiH>
0

>  <NssssSi>
0

>  <NsPH2>
0

>  <NssPH>
0

>  <NsssP>
0

>  <NdsssP>
0

>  <NsssssP>
0

>  <NsSH>
0

>  <NdS>
0

>  <NssS>
0

>  <NaaS>
0

>  <NdssS>
0

>  <NddssS>
0

>  <NsCl>
0

>  <NsBr>
0

>  <NsI>
0

>  <fragCpx>
259.13

>  <fMF>
0.23

>  <nHBAcc>
9

>  <nHBDon>
5

>  <Kier1>
45.39

>  <Kier2>
21.92

>  <Lipinski>
0

>  <GhoseFilter>
0

>  <FilterItLogS>
-7.49

>  <VMcGowan>
558.77

>  <LabuteASA>
300.03

>  <PEOE_VSA1>
30.53

>  <PEOE_VSA2>
20

>  <PEOE_VSA3>
14.6

>  <PEOE_VSA4>
0

>  <PEOE_VSA5>
0

>  <PEOE_VSA6>
102.21

>  <PEOE_VSA7>
40.51

>  <PEOE_VSA8>
24.85

>  <PEOE_VSA9>
32.06

>  <PEOE_VSA10>
12.08

>  <PEOE_VSA11>
0

>  <PEOE_VSA12>
5.91

>  <PEOE_VSA13>
5.91

>  <SMR_VSA1>
33.76

>  <SMR_VSA2>
0

>  <SMR_VSA3>
31.37

>  <SMR_VSA4>
10.83

>  <SMR_VSA5>
78.74

>  <SMR_VSA6>
20.76

>  <SMR_VSA7>
90.12

>  <SMR_VSA8>
0

>  <SMR_VSA9>
11.26

>  <SlogP_VSA1>
21.38

>  <SlogP_VSA2>
84.09

>  <SlogP_VSA3>
32.03

>  <SlogP_VSA4>
10.83

>  <SlogP_VSA5>
52.67

>  <SlogP_VSA6>
78.99

>  <SlogP_VSA7>
0

>  <SlogP_VSA8>
11.26

>  <SlogP_VSA9>
0

>  <SlogP_VSA10>
9.59

>  <SlogP_VSA11>
0

>  <EState_VSA1>
59.06

>  <EState_VSA2>
19.51

>  <EState_VSA3>
0

>  <EState_VSA4>
22.38

>  <EState_VSA5>
14.22

>  <EState_VSA6>
31.98

>  <EState_VSA7>
93.57

>  <EState_VSA8>
26.36

>  <EState_VSA9>
9.47

>  <EState_VSA10>
24.28

>  <VSA_EState1>
9.54

>  <VSA_EState2>
56.33

>  <VSA_EState3>
21.57

>  <VSA_EState4>
4.88

>  <VSA_EState5>
-1.03

>  <VSA_EState6>
19.84

>  <VSA_EState7>
-0.78

>  <VSA_EState8>
10.89

>  <VSA_EState9>
2.44

>  <apol>
110.35

>  <bpol>
63.1

>  <nRing>
3

>  <nHRing>
1

>  <naRing>
3

>  <naHRing>
1

>  <nARing 2>
0

>  <nAHRing 2>
0

>  <nFRing>
0

>  <nFHRing>
0

>  <nFaRing>
0

>  <nFaHRing>
0

>  <nFARing 2>
0

>  <nFAHRing 2>
0

>  <nRot>
14

>  <SLogP>
4.21

>  <SMR>
193.88

>  <TopoPSA(NO)>
171.22

>  <TopoPSA>
171.22

>  <JGI1>
0.26

>  <JGI2>
0.08

>  <JGI3>
0.05

>  <JGI4>
0.04

>  <JGI5>
0.02

>  <Diameter>
19

>  <Radius>
10

>  <TMWC10>
184.43

>  <TSRW10>
88.91

>  <MW>
704.39

>  <AMW>
6.84

>  <WPath>
10532

>  <WPol>
77

>  <Zagreb1>
254

>  <Zagreb2>
287

>  <mZagreb2>
11.28

>  <yes>


>  <nAR-cont>
0.336376

>  <nHA-cont>
0

>  <MWHBN>
0.527498762

>  <MWHBN-cont>
0

>  <TPSA-cont>
0

>  <pka_cont>
0.97

>  <yes.1>


>  <BBB_SCORE>
0.821376

>  <MMFF94 Energy>
82.85

$$$$
Compound 2522
Actelion Java MolfileCreator 2.0

  0  0  0  0  0  0              0 V3000
M  V30 BEGIN CTAB
M  V30 COUNTS 57 61 0 0 0
M  V30 BEGIN ATOM
M  V30 1 Br -3.6536 -5.8506 -0.6488 0
M  V30 2 C -2.6606 -5.4971 -2.2119 0
M  V30 3 C -2.6585 -6.3963 -3.2681 0
M  V30 4 C -1.916 -4.3266 -2.3251 0
M  V30 5 N -1.9669 -6.2006 -4.4157 0
M  V30 6 C -1.1911 -4.0947 -3.4985 0
M  V30 7 C -1.248 -5.0529 -4.5044 0
M  V30 8 C -0.3678 -2.8881 -3.7253 0
M  V30 9 O 0.2819 -2.6941 -4.7387 0
M  V30 10 O -0.4498 -2.0564 -2.6588 0
M  V30 11 C 0.3243 -0.8542 -2.7779 0
M  V30 12 C 0.1869 -0.0123 -1.5016 0
M  V30 13 C -1.2689 0.4144 -1.2817 0
M  V30 14 C 0.6913 -0.7812 -0.2746 0
M  V30 15 N -1.4065 1.2819 -0.1034 0
M  V30 16 C 0.5736 0.0403 1.0284 0
M  V30 17 C -0.9471 0.585 1.1429 0
M  V30 18 C -2.785 1.7652 -0.0094 0
M  V30 19 O 0.7221 -0.8656 2.154 0
M  V30 20 C 1.5535 1.2138 1.129 0
M  V30 21 C -1.1207 1.4428 2.462 0
M  V30 22 C 2.0202 -1.3857 2.3946 0
M  V30 23 C 1.145 2.3249 1.8825 0
M  V30 24 C 2.8404 1.2896 0.5707 0
M  V30 25 C -0.0897 2.5158 2.5356 0
M  V30 26 C 1.9363 3.4441 2.0716 0
M  V30 27 C 3.6481 2.4208 0.7596 0
M  V30 28 C -0.0427 3.7514 3.1377 0
M  V30 29 N 1.1868 4.3058 2.8484 0
M  V30 30 C 3.2154 3.5226 1.5131 0
M  V30 31 C 1.6259 5.6092 3.2916 0
M  V30 32 H -3.2236 -7.3235 -3.2278 0
M  V30 33 H -1.9024 -3.6095 -1.5092 0
M  V30 34 H -0.7046 -4.9279 -5.4389 0
M  V30 35 H 1.3781 -1.1154 -2.9344 0
M  V30 36 H -0.0302 -0.2802 -3.6425 0
M  V30 37 H 0.8 0.8873 -1.6425 0
M  V30 38 H -1.5987 0.9615 -2.1744 0
M  V30 39 H -1.9206 -0.4642 -1.1849 0
M  V30 40 H 0.1131 -1.7082 -0.1527 0
M  V30 41 H 1.7205 -1.1136 -0.4495 0
M  V30 42 H -1.5931 -0.2955 1.2836 0
M  V30 43 H -3.4828 0.9685 0.2708 0
M  V30 44 H -2.8724 2.5858 0.7083 0
M  V30 45 H -3.1164 2.1851 -0.9666 0
M  V30 46 H -0.9915 0.7813 3.3288 0
M  V30 47 H -2.1283 1.8577 2.554 0
M  V30 48 H 2.6929 -0.6074 2.7641 0
M  V30 49 H 2.4383 -1.8673 1.5079 0
M  V30 50 H 1.9351 -2.1439 3.1786 0
M  V30 51 H 3.2379 0.4661 -0.0151 0
M  V30 52 H 4.6392 2.4458 0.3109 0
M  V30 53 H -0.7721 4.2816 3.7353 0
M  V30 54 H 3.8494 4.3912 1.6497 0
M  V30 55 H 2.5279 5.483 3.8958 0
M  V30 56 H 1.8327 6.2222 2.4108 0
M  V30 57 H 0.841 6.0765 3.8918 0
M  V30 END ATOM
M  V30 BEGIN BOND
M  V30 1 1 1 2
M  V30 2 2 2 3
M  V30 3 1 2 4
M  V30 4 1 3 5
M  V30 5 2 4 6
M  V30 6 2 5 7
M  V30 7 1 6 8
M  V30 8 2 8 9
M  V30 9 1 8 10
M  V30 10 1 10 11
M  V30 11 1 11 12
M  V30 12 1 12 13
M  V30 13 1 12 14
M  V30 14 1 13 15
M  V30 15 1 14 16
M  V30 16 1 15 17
M  V30 17 1 15 18
M  V30 18 1 16 19
M  V30 19 1 16 20
M  V30 20 1 17 21
M  V30 21 1 19 22
M  V30 22 2 20 23
M  V30 23 1 20 24
M  V30 24 1 21 25
M  V30 25 1 23 26
M  V30 26 2 24 27
M  V30 27 2 25 28
M  V30 28 1 26 29
M  V30 29 2 26 30
M  V30 30 1 29 31
M  V30 31 1 6 7
M  V30 32 1 16 17
M  V30 33 1 23 25
M  V30 34 1 27 30
M  V30 35 1 28 29
M  V30 36 1 3 32
M  V30 37 1 4 33
M  V30 38 1 7 34
M  V30 39 1 11 35
M  V30 40 1 11 36
M  V30 41 1 12 37
M  V30 42 1 13 38
M  V30 43 1 13 39
M  V30 44 1 14 40
M  V30 45 1 14 41
M  V30 46 1 17 42
M  V30 47 1 18 43
M  V30 48 1 18 44
M  V30 49 1 18 45
M  V30 50 1 21 46
M  V30 51 1 21 47
M  V30 52 1 22 48
M  V30 53 1 22 49
M  V30 54 1 22 50
M  V30 55 1 24 51
M  V30 56 1 27 52
M  V30 57 1 28 53
M  V30 58 1 30 54
M  V30 59 1 31 55
M  V30 60 1 31 56
M  V30 61 1 31 57
M  V30 END BOND
M  V30 END CTAB
M  END
>  <Column 1>
3122

>  <level_0>
5276

>  <index>
5277

>  <Unnamed: 0>
5277

>  <NO.>
5289

>  <Name>
sermion

>  <IUPAC_name>
(10a-methoxy-4-7-dimethyl-6a-8-9-10-tetrahydro-6h-indolo[4-3-fg]quinolin-9-yl)methyl 5-bromopyridine-3-carboxylate

>  <SMILES>
COC12CC(COC(=O)c3cncc(Br)c3)CN(C)C1Cc1cn(C)c3cccc2c13

>  <CID>
4475

>  <logBB>


>  <BBB+/BBB->
BBB+

>  <Inchi>
InChI=1S/C24H26BrN3O3/c1-27-13-17-8-21-24(30-3-19-5-4-6-20(27)22(17)19)9-15(12-28(21)2)14-31-23(29)16-7-18(25)11-26-10-16/h4-7-10-11-13-15-21H-8-9-12-14H2-1-3H3

>  <threshold>


>  <reference>
R14|R23|

>  <group>
C

>  <Class>
1

>  <ABC>
24.82

>  <ABCGG>
18.82

>  <nAcid>
0

>  <nBase>
1

>  <nAromAtom>
15

>  <nAromBond>
16

>  <nAtom>
57

>  <nHeavyAtom>
31

>  <nSpiro>
0

>  <nBridgehead>
0

>  <nHetero>
7

>  <nN>
3

>  <nO>
3

>  <nF>
0

>  <BalabanJ>
1.29

>  <BertzCT>
1160.18

>  <nBonds>
61

>  <nBondsO>
35

>  <nBondsS>
44

>  <nBondsD>
1

>  <nBondsT>
0

>  <nBondsA>
16

>  <nBondsM>
17

>  <nBondsKS>
53

>  <nBondsKD>
8

>  <RNCG>
0.2

>  <RPCG>
0.15

>  <FCSP3>
0.42

>  <SZ>
41.67

>  <Sm>
40.33

>  <Sv>
36.75

>  <Sse>
57.2

>  <Sp>
39.62

>  <Si>
63.95

>  <MZ>
0.73

>  <Mm>
0.71

>  <Mv>
0.64

>  <Mse>
1

>  <Mp>
0.7

>  <Mi>
1.12

>  <NsCH3>
3

>  <NdCH2>
0

>  <NssCH2>
4

>  <NtCH>
0

>  <NdsCH>
0

>  <NaaCH>
7

>  <NsssCH>
2

>  <NddC>
0

>  <NtsC>
0

>  <NdssC>
1

>  <NaasC>
4

>  <NaaaC>
2

>  <NssssC>
1

>  <NsNH3>
0

>  <NsNH2>
0

>  <NssNH2>
0

>  <NdNH>
0

>  <NssNH>
0

>  <NaaNH>
0

>  <NtN>
0

>  <NsssNH>
0

>  <NdsN>
0

>  <NaaN>
1

>  <NsssN>
1

>  <NddsN>
0

>  <NaasN>
1

>  <NssssN>
0

>  <NsOH>
0

>  <NdO>
1

>  <NssO>
2

>  <NaaO>
0

>  <NsF>
0

>  <NsSiH3>
0

>  <NssSiH2>
0

>  <NsssSiH>
0

>  <NssssSi>
0

>  <NsPH2>
0

>  <NssPH>
0

>  <NsssP>
0

>  <NdsssP>
0

>  <NsssssP>
0

>  <NsSH>
0

>  <NdS>
0

>  <NssS>
0

>  <NaaS>
0

>  <NdssS>
0

>  <NddssS>
0

>  <NsCl>
0

>  <NsBr>
1

>  <NsI>
0

>  <fragCpx>
295.07

>  <fMF>
0.44

>  <nHBAcc>
6

>  <nHBDon>
0

>  <Kier1>
22.78

>  <Kier2>
8.98

>  <Lipinski>
1

>  <GhoseFilter>
0

>  <FilterItLogS>
-5.75

>  <VMcGowan>
325.37

>  <LabuteASA>
189.83

>  <PEOE_VSA1>
14.04

>  <PEOE_VSA2>
9.88

>  <PEOE_VSA3>
4.79

>  <PEOE_VSA4>
0

>  <PEOE_VSA5>
0

>  <PEOE_VSA6>
12.13

>  <PEOE_VSA7>
59.08

>  <PEOE_VSA8>
66.63

>  <PEOE_VSA9>
12.17

>  <PEOE_VSA10>
5.6

>  <PEOE_VSA11>
0

>  <PEOE_VSA12>
0

>  <PEOE_VSA13>
0

>  <SMR_VSA1>
14.27

>  <SMR_VSA2>
0

>  <SMR_VSA3>
14.45

>  <SMR_VSA4>
12.97

>  <SMR_VSA5>
24.48

>  <SMR_VSA6>
27.31

>  <SMR_VSA7>
64.02

>  <SMR_VSA8>
0

>  <SMR_VSA9>
0

>  <SlogP_VSA1>
0

>  <SlogP_VSA2>
53.77

>  <SlogP_VSA3>
28.54

>  <SlogP_VSA4>
5.92

>  <SlogP_VSA5>
27.91

>  <SlogP_VSA6>
47.33

>  <SlogP_VSA7>
0

>  <SlogP_VSA8>
10.9

>  <SlogP_VSA9>
0

>  <SlogP_VSA10>
0

>  <SlogP_VSA11>
0

>  <EState_VSA1>
5.6

>  <EState_VSA2>
17.93

>  <EState_VSA3>
12.17

>  <EState_VSA4>
23.86

>  <EState_VSA5>
28.23

>  <EState_VSA6>
12.26

>  <EState_VSA7>
7.11

>  <EState_VSA8>
68.87

>  <EState_VSA9>
9.47

>  <EState_VSA10>
4.79

>  <VSA_EState1>
15.01

>  <VSA_EState2>
18.98

>  <VSA_EState3>
1.31

>  <VSA_EState4>
3.9

>  <VSA_EState5>
-0.17

>  <VSA_EState6>
8.47

>  <VSA_EState7>
7.2

>  <VSA_EState8>
1.21

>  <VSA_EState9>
6.07

>  <apol>
66.17

>  <bpol>
36.36

>  <nRing>
5

>  <nHRing>
3

>  <naRing>
3

>  <naHRing>
2

>  <nARing 2>
2

>  <nAHRing 2>
1

>  <nFRing>
1

>  <nFHRing>
1

>  <nFaRing>
0

>  <nFaHRing>
0

>  <nFARing 2>
1

>  <nFAHRing 2>
1

>  <nRot>
4

>  <SLogP>
3.91

>  <SMR>
122.05

>  <TopoPSA(NO)>
56.59

>  <TopoPSA>
56.59

>  <JGI1>
0.21

>  <JGI2>
0.09

>  <JGI3>
0.06

>  <JGI4>
0.05

>  <JGI5>
0.03

>  <Diameter>
14

>  <Radius>
7

>  <TMWC10>
146.12

>  <TSRW10>
82.1

>  <MW>
483.12

>  <AMW>
8.48

>  <WPath>
2625

>  <WPol>
60

>  <Zagreb1>
176

>  <Zagreb2>
218

>  <mZagreb2>
6.67

>  <yes>


>  <nAR-cont>
1

>  <nHA-cont>
0.702745138

>  <MWHBN>
0.272975545

>  <MWHBN-cont>
0.913235976

>  <TPSA-cont>
0.60496666

>  <pka_cont>
0.97

>  <yes.1>


>  <BBB_SCORE>
4.767532421

>  <MMFF94 Energy>
123.54

$$$$
Compound 2523
Actelion Java MolfileCreator 2.0

  0  0  0  0  0  0              0 V3000
M  V30 BEGIN CTAB
M  V30 COUNTS 54 54 0 0 0
M  V30 BEGIN ATOM
M  V30 1 O -1.2545 -0.1567 -3.4529 0
M  V30 2 C -2.3835 0.0061 -2.9983 0
M  V30 3 C -3.4983 -0.9323 -3.3248 0
M  V30 4 C -2.6628 1.1549 -2.086 0
M  V30 5 O -3.2767 -2.0211 -4.1664 0
M  V30 6 C -4.7369 -0.7165 -2.858 0
M  V30 7 C -3.9045 1.365 -1.6132 0
M  V30 8 C -1.4699 2.0403 -1.7932 0
M  V30 9 C -2.1523 -2.8191 -3.8079 0
M  V30 10 O -5.7586 -1.5879 -3.2314 0
M  V30 11 C -5.0316 0.4672 -1.9982 0
M  V30 12 C -4.3005 2.4704 -0.6718 0
M  V30 13 C -0.6436 1.5093 -0.6168 0
M  V30 14 C -6.5687 -2.0406 -2.1506 0
M  V30 15 O -6.1687 0.7117 -1.6039 0
M  V30 16 C 0.5641 2.408 -0.3404 0
M  V30 17 C 1.3604 1.9934 0.9001 0
M  V30 18 C 2.0403 0.6297 0.7598 0
M  V30 19 C 2.9163 0.3195 1.977 0
M  V30 20 C 3.5916 -1.0466 1.839 0
M  V30 21 C 4.3906 -1.46 3.0787 0
M  V30 22 C 5.6154 -0.5759 3.3355 0
M  V30 23 C 6.4342 -1.0607 4.5269 0
M  V30 24 O 6.9785 -2.3434 4.2526 0
M  V30 25 H -1.7905 3.0682 -1.5883 0
M  V30 26 H -0.8365 2.1285 -2.685 0
M  V30 27 H -1.2468 -2.445 -4.293 0
M  V30 28 H -2.3309 -3.832 -4.1814 0
M  V30 29 H -2.0176 -2.8797 -2.7223 0
M  V30 30 H -4.8588 2.0674 0.1807 0
M  V30 31 H -3.4475 3.0064 -0.2491 0
M  V30 32 H -4.9336 3.1994 -1.1882 0
M  V30 33 H -0.3068 0.4903 -0.8379 0
M  V30 34 H -1.2709 1.4537 0.2814 0
M  V30 35 H -5.9899 -2.1808 -1.231 0
M  V30 36 H -6.9894 -3.0103 -2.4337 0
M  V30 37 H -7.4048 -1.3557 -1.985 0
M  V30 38 H 0.2176 3.4386 -0.1941 0
M  V30 39 H 1.2255 2.4185 -1.2152 0
M  V30 40 H 0.7005 1.9898 1.7762 0
M  V30 41 H 2.1255 2.7578 1.085 0
M  V30 42 H 2.6558 0.6166 -0.1475 0
M  V30 43 H 1.285 -0.1567 0.6531 0
M  V30 44 H 2.3013 0.336 2.8849 0
M  V30 45 H 3.6735 1.1042 2.0819 0
M  V30 46 H 4.2479 -1.049 0.9603 0
M  V30 47 H 2.8225 -1.8084 1.6602 0
M  V30 48 H 4.7142 -2.4986 2.9402 0
M  V30 49 H 3.7359 -1.4488 3.9586 0
M  V30 50 H 5.3028 0.4558 3.5262 0
M  V30 51 H 6.2469 -0.5754 2.439 0
M  V30 52 H 7.2619 -0.3701 4.7172 0
M  V30 53 H 5.8155 -1.1243 5.4278 0
M  V30 54 H 7.4982 -2.6055 5.0315 0
M  V30 END ATOM
M  V30 BEGIN BOND
M  V30 1 2 1 2
M  V30 2 1 2 3
M  V30 3 1 2 4
M  V30 4 1 3 5
M  V30 5 2 3 6
M  V30 6 2 4 7
M  V30 7 1 4 8
M  V30 8 1 5 9
M  V30 9 1 6 10
M  V30 10 1 6 11
M  V30 11 1 7 12
M  V30 12 1 8 13
M  V30 13 1 10 14
M  V30 14 2 11 15
M  V30 15 1 13 16
M  V30 16 1 16 17
M  V30 17 1 17 18
M  V30 18 1 18 19
M  V30 19 1 19 20
M  V30 20 1 20 21
M  V30 21 1 21 22
M  V30 22 1 22 23
M  V30 23 1 23 24
M  V30 24 1 7 11
M  V30 25 1 8 25
M  V30 26 1 8 26
M  V30 27 1 9 27
M  V30 28 1 9 28
M  V30 29 1 9 29
M  V30 30 1 12 30
M  V30 31 1 12 31
M  V30 32 1 12 32
M  V30 33 1 13 33
M  V30 34 1 13 34
M  V30 35 1 14 35
M  V30 36 1 14 36
M  V30 37 1 14 37
M  V30 38 1 16 38
M  V30 39 1 16 39
M  V30 40 1 17 40
M  V30 41 1 17 41
M  V30 42 1 18 42
M  V30 43 1 18 43
M  V30 44 1 19 44
M  V30 45 1 19 45
M  V30 46 1 20 46
M  V30 47 1 20 47
M  V30 48 1 21 48
M  V30 49 1 21 49
M  V30 50 1 22 50
M  V30 51 1 22 51
M  V30 52 1 23 52
M  V30 53 1 23 53
M  V30 54 1 24 54
M  V30 END BOND
M  V30 END CTAB
M  END
>  <Column 1>
3123

>  <level_0>
5277

>  <index>
5278

>  <Unnamed: 0>
5278

>  <NO.>
5290

>  <Name>
idebenone

>  <IUPAC_name>
2-(10-hydroxydecyl)-5-6-dimethoxy-3-methylcyclohexa-2-5-diene-1-4-dione

>  <SMILES>
COC1=C(OC)C(=O)C(CCCCCCCCCCO)=C(C)C1=O

>  <CID>
3686

>  <logBB>


>  <BBB+/BBB->
BBB+

>  <Inchi>
InChI=1S/C19H30O5/c1-14-15(12-10-8-6-4-5-7-9-11-13-20)17(22)19(24-3)18(23-2)16(14)21/h20H-4-13H2-1-3H3

>  <threshold>


>  <reference>
R14|R23|

>  <group>
C

>  <Class>
-1

>  <ABC>
17.06

>  <ABCGG>
14.59

>  <nAcid>
0

>  <nBase>
0

>  <nAromAtom>
0

>  <nAromBond>
0

>  <nAtom>
54

>  <nHeavyAtom>
24

>  <nSpiro>
0

>  <nBridgehead>
0

>  <nHetero>
5

>  <nN>
0

>  <nO>
5

>  <nF>
0

>  <BalabanJ>
2.28

>  <BertzCT>
501.89

>  <nBonds>
54

>  <nBondsO>
24

>  <nBondsS>
50

>  <nBondsD>
4

>  <nBondsT>
0

>  <nBondsA>
0

>  <nBondsM>
4

>  <nBondsKS>
50

>  <nBondsKD>
4

>  <RNCG>
0.2

>  <RPCG>
0.09

>  <FCSP3>
0.68

>  <SZ>
30.67

>  <Sm>
28.18

>  <Sv>
30.7

>  <Sse>
53.97

>  <Sp>
33.38

>  <Si>
61.28

>  <MZ>
0.57

>  <Mm>
0.52

>  <Mv>
0.57

>  <Mse>
1

>  <Mp>
0.62

>  <Mi>
1.13

>  <NsCH3>
3

>  <NdCH2>
0

>  <NssCH2>
10

>  <NtCH>
0

>  <NdsCH>
0

>  <NaaCH>
0

>  <NsssCH>
0

>  <NddC>
0

>  <NtsC>
0

>  <NdssC>
6

>  <NaasC>
0

>  <NaaaC>
0

>  <NssssC>
0

>  <NsNH3>
0

>  <NsNH2>
0

>  <NssNH2>
0

>  <NdNH>
0

>  <NssNH>
0

>  <NaaNH>
0

>  <NtN>
0

>  <NsssNH>
0

>  <NdsN>
0

>  <NaaN>
0

>  <NsssN>
0

>  <NddsN>
0

>  <NaasN>
0

>  <NssssN>
0

>  <NsOH>
1

>  <NdO>
2

>  <NssO>
2

>  <NaaO>
0

>  <NsF>
0

>  <NsSiH3>
0

>  <NssSiH2>
0

>  <NsssSiH>
0

>  <NssssSi>
0

>  <NsPH2>
0

>  <NssPH>
0

>  <NsssP>
0

>  <NdsssP>
0

>  <NsssssP>
0

>  <NsSH>
0

>  <NdS>
0

>  <NssS>
0

>  <NaaS>
0

>  <NdssS>
0

>  <NddssS>
0

>  <NsCl>
0

>  <NsBr>
0

>  <NsI>
0

>  <fragCpx>
24.05

>  <fMF>
0.11

>  <nHBAcc>
5

>  <nHBDon>
1

>  <Kier1>
22.04

>  <Kier2>
12.37

>  <Lipinski>
1

>  <GhoseFilter>
1

>  <FilterItLogS>
-5.35

>  <VMcGowan>
279.86

>  <LabuteASA>
144.27

>  <PEOE_VSA1>
14.58

>  <PEOE_VSA2>
9.59

>  <PEOE_VSA3>
0

>  <PEOE_VSA4>
0

>  <PEOE_VSA5>
0

>  <PEOE_VSA6>
38.52

>  <PEOE_VSA7>
26.19

>  <PEOE_VSA8>
17.75

>  <PEOE_VSA9>
14.22

>  <PEOE_VSA10>
0

>  <PEOE_VSA11>
0

>  <PEOE_VSA12>
23.08

>  <PEOE_VSA13>
0

>  <SMR_VSA1>
24.17

>  <SMR_VSA2>
0

>  <SMR_VSA3>
0

>  <SMR_VSA4>
0

>  <SMR_VSA5>
64.71

>  <SMR_VSA6>
20.83

>  <SMR_VSA7>
22.66

>  <SMR_VSA8>
0

>  <SMR_VSA9>
0

>  <SlogP_VSA1>
0

>  <SlogP_VSA2>
37.5

>  <SlogP_VSA3>
19.06

>  <SlogP_VSA4>
0

>  <SlogP_VSA5>
64.71

>  <SlogP_VSA6>
22.66

>  <SlogP_VSA7>
0

>  <SlogP_VSA8>
0

>  <SlogP_VSA9>
0

>  <SlogP_VSA10>
0

>  <SlogP_VSA11>
0

>  <EState_VSA1>
0

>  <EState_VSA2>
29.69

>  <EState_VSA3>
17.57

>  <EState_VSA4>
32.1

>  <EState_VSA5>
33.48

>  <EState_VSA6>
6.92

>  <EState_VSA7>
0

>  <EState_VSA8>
0

>  <EState_VSA9>
14.58

>  <EState_VSA10>
9.59

>  <VSA_EState1>
10.11

>  <VSA_EState2>
24.71

>  <VSA_EState3>
8.72

>  <VSA_EState4>
1.03

>  <VSA_EState5>
-0.46

>  <VSA_EState6>
0

>  <VSA_EState7>
9.17

>  <VSA_EState8>
1.96

>  <VSA_EState9>
2.76

>  <apol>
55.74

>  <bpol>
35.3

>  <nRing>
1

>  <nHRing>
0

>  <naRing>
0

>  <naHRing>
0

>  <nARing 2>
1

>  <nAHRing 2>
0

>  <nFRing>
0

>  <nFHRing>
0

>  <nFaRing>
0

>  <nFaHRing>
0

>  <nFARing 2>
0

>  <nFAHRing 2>
0

>  <nRot>
12

>  <SLogP>
3.46

>  <SMR>
92.4

>  <TopoPSA(NO)>
72.83

>  <TopoPSA>
72.83

>  <JGI1>
0.13

>  <JGI2>
0.09

>  <JGI3>
0.06

>  <JGI4>
0.05

>  <JGI5>
0.02

>  <Diameter>
16

>  <Radius>
8

>  <TMWC10>
120.8

>  <TSRW10>
57.64

>  <MW>
338.21

>  <AMW>
6.26

>  <WPath>
1656

>  <WPol>
36

>  <Zagreb1>
108

>  <Zagreb2>
123

>  <mZagreb2>
5.92

>  <yes>


>  <nAR-cont>
0.816016

>  <nHA-cont>
0.94700071

>  <MWHBN>
0.32625564

>  <MWHBN-cont>
0.755869562

>  <TPSA-cont>
0.491601375

>  <pka_cont>
0.97

>  <yes.1>


>  <BBB_SCORE>
4.365023804

>  <MMFF94 Energy>
63.005

$$$$
Compound 2524
Actelion Java MolfileCreator 2.0

  0  0  0  0  0  0              0 V3000
M  V30 BEGIN CTAB
M  V30 COUNTS 48 51 0 0 0
M  V30 BEGIN ATOM
M  V30 1 F -0.6425 1.8482 2.7331 0
M  V30 2 C 0.2307 1.0497 2.1003 0
M  V30 3 C -0.1311 0.3375 0.9496 0
M  V30 4 C 1.5126 0.947 2.6208 0
M  V30 5 N 0.7787 -0.4617 0.337 0
M  V30 6 N -1.3829 0.3932 0.3918 0
M  V30 7 C 2.4298 0.1221 1.9779 0
M  V30 8 C 2.0397 -0.5701 0.832 0
M  V30 9 C -2.4198 1.3379 0.7755 0
M  V30 10 C -1.682 -0.2959 -0.8568 0
M  V30 11 C 3.806 -0.0217 2.5038 0
M  V30 12 N 2.9908 -1.4025 0.1808 0
M  V30 13 C -3.5186 1.0359 -0.2204 0
M  V30 14 C -3.1988 -0.1786 -1.0615 0 CFG=1
M  V30 15 O 4.1485 0.6548 3.4666 0
M  V30 16 C 4.7196 -0.9816 1.8293 0
M  V30 17 C 4.2415 -1.5921 0.7324 0
M  V30 18 C 2.5911 -2.1808 -1.003 0
M  V30 19 N -4.6384 1.6826 -0.3479 0
M  V30 20 C -3.5565 -0.0241 -2.5357 0
M  V30 21 C 6.0723 -1.2733 2.3394 0
M  V30 22 C 2.1823 -1.5069 -2.2892 0
M  V30 23 C 3.458 -2.2881 -2.2339 0
M  V30 24 O -4.6951 2.7453 0.5646 0
M  V30 25 N -4.993 -0.1832 -2.7613 0
M  V30 26 O 6.536 -0.9606 3.4198 0
M  V30 27 O 6.8302 -1.971 1.4685 0
M  V30 28 C -5.9518 3.3977 0.4199 0
M  V30 29 H 1.7788 1.5033 3.5143 0
M  V30 30 H -2.0903 2.3746 0.6564 0
M  V30 31 H -2.789 1.1488 1.7879 0
M  V30 32 H -1.1317 0.179 -1.6791 0
M  V30 33 H -1.3974 -1.3544 -0.8213 0
M  V30 34 H -3.6997 -1.044 -0.6096 0
M  V30 35 H 4.8418 -2.3165 0.1875 0
M  V30 36 H 2.0237 -3.0663 -0.7239 0
M  V30 37 H -3.0345 -0.7815 -3.1303 0
M  V30 38 H -3.2472 0.9605 -2.9056 0
M  V30 39 H 2.2455 -0.4262 -2.3409 0
M  V30 40 H 1.3417 -1.9279 -2.8272 0
M  V30 41 H 3.4916 -3.2432 -2.7445 0
M  V30 42 H 4.3847 -1.7284 -2.276 0
M  V30 43 H -5.2211 0.0908 -3.7161 0
M  V30 44 H -5.4892 0.4795 -2.1552 0
M  V30 45 H 7.6814 -2.0706 1.9471 0
M  V30 46 H -6.7672 2.7014 0.6386 0
M  V30 47 H -6.0567 3.7962 -0.5938 0
M  V30 48 H -5.995 4.2265 1.1313 0
M  V30 END ATOM
M  V30 BEGIN BOND
M  V30 1 1 1 2
M  V30 2 2 2 3
M  V30 3 1 2 4
M  V30 4 1 3 5
M  V30 5 1 3 6
M  V30 6 2 4 7
M  V30 7 2 5 8
M  V30 8 1 6 9
M  V30 9 1 6 10
M  V30 10 1 7 11
M  V30 11 1 8 12
M  V30 12 1 9 13
M  V30 13 1 10 14
M  V30 14 2 11 15
M  V30 15 1 11 16
M  V30 16 1 12 17
M  V30 17 1 12 18
M  V30 18 2 13 19
M  V30 19 1 14 20
M  V30 20 1 16 21
M  V30 21 1 18 22
M  V30 22 1 18 23
M  V30 23 1 19 24
M  V30 24 1 20 25
M  V30 25 2 21 26
M  V30 26 1 21 27
M  V30 27 1 24 28
M  V30 28 1 7 8
M  V30 29 1 13 14
M  V30 30 2 16 17
M  V30 31 1 22 23
M  V30 32 1 4 29
M  V30 33 1 9 30
M  V30 34 1 9 31
M  V30 35 1 10 32
M  V30 36 1 10 33
M  V30 37 1 14 34
M  V30 38 1 17 35
M  V30 39 1 18 36
M  V30 40 1 20 37
M  V30 41 1 20 38
M  V30 42 1 22 39
M  V30 43 1 22 40
M  V30 44 1 23 41
M  V30 45 1 23 42
M  V30 46 1 25 43
M  V30 47 1 25 44
M  V30 48 1 27 45
M  V30 49 1 28 46
M  V30 50 1 28 47
M  V30 51 1 28 48
M  V30 END BOND
M  V30 BEGIN COLLECTION
M  V30 MDLV30/STERAC1 ATOMS=(1 14)
M  V30 END COLLECTION
M  V30 END CTAB
M  END
>  <Column 1>
3127

>  <level_0>
5281

>  <index>
5282

>  <Unnamed: 0>
5282

>  <NO.>
5294

>  <Name>
gemifloxacin

>  <IUPAC_name>
7-[3-(aminomethyl)-4-methoxyiminopyrrolidin-1-yl]-1-cyclopropyl-6-fluoro-4-oxo-1-8-naphthyridine-3-carboxylic acid

>  <SMILES>
CON=C1CN(c2nc3c(cc2F)c(=O)c(C(=O)O)cn3C2CC2)CC1CN

>  <CID>
72938

>  <logBB>


>  <BBB+/BBB->
BBB-

>  <Inchi>
InChI=1S/C18H20FN5O4/c1-28-22-14-8-23(6-9(14)5-20)17-13(19)4-11-15(25)12(18(26)27)7-24(10-2-3-10)16(11)21-17/h4-7-9-10H-2-3-5-6-8-20H2-1H3-(H-26-27)

>  <threshold>


>  <reference>
R14|

>  <group>
C

>  <Class>
-1

>  <ABC>
21.99

>  <ABCGG>
18.07

>  <nAcid>
1

>  <nBase>
1

>  <nAromAtom>
10

>  <nAromBond>
11

>  <nAtom>
48

>  <nHeavyAtom>
28

>  <nSpiro>
0

>  <nBridgehead>
0

>  <nHetero>
10

>  <nN>
5

>  <nO>
4

>  <nF>
1

>  <BalabanJ>
1.5

>  <BertzCT>
1046.43

>  <nBonds>
51

>  <nBondsO>
31

>  <nBondsS>
37

>  <nBondsD>
3

>  <nBondsT>
0

>  <nBondsA>
11

>  <nBondsM>
14

>  <nBondsKS>
44

>  <nBondsKD>
7

>  <RNCG>
0.16

>  <RPCG>
0.11

>  <FCSP3>
0.44

>  <SZ>
34

>  <Sm>
32.42

>  <Sv>
30.71

>  <Sse>
49.47

>  <Sp>
31.53

>  <Si>
54.99

>  <MZ>
0.71

>  <Mm>
0.68

>  <Mv>
0.64

>  <Mse>
1.03

>  <Mp>
0.66

>  <Mi>
1.15

>  <NsCH3>
1

>  <NdCH2>
0

>  <NssCH2>
5

>  <NtCH>
0

>  <NdsCH>
0

>  <NaaCH>
2

>  <NsssCH>
2

>  <NddC>
0

>  <NtsC>
0

>  <NdssC>
2

>  <NaasC>
3

>  <NaaaC>
2

>  <NssssC>
0

>  <NsNH3>
0

>  <NsNH2>
1

>  <NssNH2>
0

>  <NdNH>
0

>  <NssNH>
0

>  <NaaNH>
0

>  <NtN>
0

>  <NsssNH>
0

>  <NdsN>
1

>  <NaaN>
1

>  <NsssN>
1

>  <NddsN>
0

>  <NaasN>
1

>  <NssssN>
0

>  <NsOH>
1

>  <NdO>
2

>  <NssO>
1

>  <NaaO>
0

>  <NsF>
1

>  <NsSiH3>
0

>  <NssSiH2>
0

>  <NsssSiH>
0

>  <NssssSi>
0

>  <NsPH2>
0

>  <NssPH>
0

>  <NsssP>
0

>  <NdsssP>
0

>  <NsssssP>
0

>  <NsSH>
0

>  <NdS>
0

>  <NssS>
0

>  <NaaS>
0

>  <NdssS>
0

>  <NddssS>
0

>  <NsCl>
0

>  <NsBr>
0

>  <NsI>
0

>  <fragCpx>
205.1

>  <fMF>
0.38

>  <nHBAcc>
8

>  <nHBDon>
2

>  <Kier1>
21.24

>  <Kier2>
8.63

>  <Lipinski>
1

>  <GhoseFilter>
1

>  <FilterItLogS>
-2.71

>  <VMcGowan>
266.08

>  <LabuteASA>
158.75

>  <PEOE_VSA1>
25.14

>  <PEOE_VSA2>
4.79

>  <PEOE_VSA3>
14.17

>  <PEOE_VSA4>
0

>  <PEOE_VSA5>
0

>  <PEOE_VSA6>
5.16

>  <PEOE_VSA7>
18.91

>  <PEOE_VSA8>
31.25

>  <PEOE_VSA9>
17.64

>  <PEOE_VSA10>
18.32

>  <PEOE_VSA11>
11.64

>  <PEOE_VSA12>
5.43

>  <PEOE_VSA13>
0

>  <SMR_VSA1>
19.13

>  <SMR_VSA2>
0

>  <SMR_VSA3>
9.55

>  <SMR_VSA4>
16.81

>  <SMR_VSA5>
18.88

>  <SMR_VSA6>
31.64

>  <SMR_VSA7>
33.87

>  <SMR_VSA8>
0

>  <SMR_VSA9>
0

>  <SlogP_VSA1>
16.06

>  <SlogP_VSA2>
53.08

>  <SlogP_VSA3>
4.84

>  <SlogP_VSA4>
11.74

>  <SlogP_VSA5>
29.24

>  <SlogP_VSA6>
22.21

>  <SlogP_VSA7>
0

>  <SlogP_VSA8>
11.03

>  <SlogP_VSA9>
0

>  <SlogP_VSA10>
10.21

>  <SlogP_VSA11>
0

>  <EState_VSA1>
17.22

>  <EState_VSA2>
34.37

>  <EState_VSA3>
25.35

>  <EState_VSA4>
18.91

>  <EState_VSA5>
13.31

>  <EState_VSA6>
9.47

>  <EState_VSA7>
0

>  <EState_VSA8>
10.14

>  <EState_VSA9>
10.57

>  <EState_VSA10>
19.09

>  <VSA_EState1>
16.54

>  <VSA_EState2>
34.91

>  <VSA_EState3>
13.25

>  <VSA_EState4>
5.65

>  <VSA_EState5>
-2.03

>  <VSA_EState6>
1.14

>  <VSA_EState7>
3.02

>  <VSA_EState8>
1.07

>  <VSA_EState9>
1.44

>  <apol>
52.66

>  <bpol>
28.64

>  <nRing>
4

>  <nHRing>
3

>  <naRing>
2

>  <naHRing>
2

>  <nARing 2>
2

>  <nAHRing 2>
1

>  <nFRing>
1

>  <nFHRing>
1

>  <nFaRing>
1

>  <nFaHRing>
1

>  <nFARing 2>
0

>  <nFAHRing 2>
0

>  <nRot>
5

>  <SLogP>
0.97

>  <SMR>
100.39

>  <TopoPSA(NO)>
123.04

>  <TopoPSA>
123.04

>  <JGI1>
0.19

>  <JGI2>
0.08

>  <JGI3>
0.05

>  <JGI4>
0.05

>  <JGI5>
0.03

>  <Diameter>
13

>  <Radius>
7

>  <TMWC10>
137.4

>  <TSRW10>
83.43

>  <MW>
389.15

>  <AMW>
8.11

>  <WPath>
1953

>  <WPol>
50

>  <Zagreb1>
154

>  <Zagreb2>
189

>  <mZagreb2>
6.17

>  <yes>


>  <nAR-cont>
1

>  <nHA-cont>
0.82432561

>  <MWHBN>
0.5069224

>  <MWHBN-cont>
0

>  <TPSA-cont>
0

>  <pka_cont>
0.97

>  <yes.1>


>  <BBB_SCORE>
2.30932561

>  <MMFF94 Energy>
39.016

$$$$
Compound 2525
Actelion Java MolfileCreator 2.0

  0  0  0  0  0  0              0 V3000
M  V30 BEGIN CTAB
M  V30 COUNTS 43 44 0 0 0
M  V30 BEGIN ATOM
M  V30 1 O 1.8991 -3.0083 -3.9597 0
M  V30 2 C 1.165 -3.4623 -3.1029 0
M  V30 3 O 0.4571 -4.6257 -3.1387 0
M  V30 4 C 0.8872 -2.8312 -1.827 0
M  V30 5 C -0.295 -4.8276 -1.9225 0
M  V30 6 C 1.3881 -1.6365 -1.3419 0
M  V30 7 C 0.0174 -3.629 -1.114 0
M  V30 8 O 2.2602 -0.8799 -2.0721 0
M  V30 9 C 0.9813 -1.2081 -0.0717 0
M  V30 10 C -0.4094 -3.2515 0.1535 0
M  V30 11 C 0.0477 -2.0065 0.6421 0
M  V30 12 C 1.5237 0.0812 0.512 0
M  V30 13 C -1.3455 -4.123 0.9374 0
M  V30 14 O -0.3641 -1.5816 1.8834 0
M  V30 15 C 0.7548 1.296 0.0591 0
M  V30 16 C -1.6252 -0.914 1.7912 0
M  V30 17 C 0.1666 2.2506 0.8093 0
M  V30 18 C -0.5633 3.3991 0.1356 0
M  V30 19 C 0.1437 2.2754 2.3141 0
M  V30 20 C 0.219 4.7093 0.2038 0
M  V30 21 C -0.5114 5.8109 -0.5112 0
M  V30 22 O -1.6272 5.7686 -0.9997 0
M  V30 23 O 0.2141 6.9457 -0.5612 0
M  V30 24 H -1.3571 -4.892 -2.1741 0
M  V30 25 H 0.0507 -5.7504 -1.4489 0
M  V30 26 H 2.4352 -1.3283 -2.9274 0
M  V30 27 H 2.5699 0.2034 0.2031 0
M  V30 28 H 1.5748 -0.0048 1.6006 0
M  V30 29 H -1.1691 -5.1821 0.7232 0
M  V30 30 H -2.3825 -3.8831 0.6843 0
M  V30 31 H -1.2023 -3.9971 2.0153 0
M  V30 32 H 0.7107 1.396 -1.0263 0
M  V30 33 H -1.6995 -0.2695 0.9087 0
M  V30 34 H -1.738 -0.2884 2.6815 0
M  V30 35 H -2.4415 -1.6422 1.7878 0
M  V30 36 H -1.5499 3.5207 0.6017 0
M  V30 37 H -0.7686 3.1551 -0.9152 0
M  V30 38 H -0.8874 2.3616 2.6728 0
M  V30 39 H 0.5643 1.3787 2.7723 0
M  V30 40 H 0.7116 3.132 2.6899 0
M  V30 41 H 0.3622 5.0206 1.244 0
M  V30 42 H 1.1995 4.5832 -0.2692 0
M  V30 43 H -0.3612 7.5767 -1.0422 0
M  V30 END ATOM
M  V30 BEGIN BOND
M  V30 1 2 1 2
M  V30 2 1 2 3
M  V30 3 1 2 4
M  V30 4 1 3 5
M  V30 5 2 4 6
M  V30 6 1 4 7
M  V30 7 1 6 8
M  V30 8 1 6 9
M  V30 9 2 7 10
M  V30 10 2 9 11
M  V30 11 1 9 12
M  V30 12 1 10 13
M  V30 13 1 11 14
M  V30 14 1 12 15
M  V30 15 1 14 16
M  V30 16 2 15 17
M  V30 17 1 17 18
M  V30 18 1 17 19
M  V30 19 1 18 20
M  V30 20 1 20 21
M  V30 21 2 21 22
M  V30 22 1 21 23
M  V30 23 1 5 7
M  V30 24 1 10 11
M  V30 25 1 5 24
M  V30 26 1 5 25
M  V30 27 1 8 26
M  V30 28 1 12 27
M  V30 29 1 12 28
M  V30 30 1 13 29
M  V30 31 1 13 30
M  V30 32 1 13 31
M  V30 33 1 15 32
M  V30 34 1 16 33
M  V30 35 1 16 34
M  V30 36 1 16 35
M  V30 37 1 18 36
M  V30 38 1 18 37
M  V30 39 1 19 38
M  V30 40 1 19 39
M  V30 41 1 19 40
M  V30 42 1 20 41
M  V30 43 1 20 42
M  V30 44 1 23 43
M  V30 END BOND
M  V30 END CTAB
M  END
>  <Column 1>
3129

>  <level_0>
5283

>  <index>
5284

>  <Unnamed: 0>
5284

>  <NO.>
5296

>  <Name>
mycophenolic acid (unspecified stereochemistry)

>  <IUPAC_name>
6-(4-hydroxy-6-methoxy-7-methyl-3-oxo-1h-2-benzofuran-5-yl)-4-methylhex-4-enoic acid

>  <SMILES>
COc1c(C)c2c(c(O)c1CC=C(C)CCC(=O)O)C(=O)OC2

>  <CID>
4272

>  <logBB>


>  <BBB+/BBB->
BBB-

>  <Inchi>
InChI=1S/C17H20O6/c1-9(5-7-13(18)19)4-6-11-15(20)14-12(8-23-17(14)21)10(2)16(11)22-3/h4-20H-5-8H2-1-3H3-(H-18-19)

>  <threshold>


>  <reference>
R14|

>  <group>
C

>  <Class>
-1

>  <ABC>
17.34

>  <ABCGG>
15.58

>  <nAcid>
1

>  <nBase>
0

>  <nAromAtom>
6

>  <nAromBond>
6

>  <nAtom>
43

>  <nHeavyAtom>
23

>  <nSpiro>
0

>  <nBridgehead>
0

>  <nHetero>
6

>  <nN>
0

>  <nO>
6

>  <nF>
0

>  <BalabanJ>
1.97

>  <BertzCT>
687.06

>  <nBonds>
44

>  <nBondsO>
24

>  <nBondsS>
35

>  <nBondsD>
3

>  <nBondsT>
0

>  <nBondsA>
6

>  <nBondsM>
9

>  <nBondsKS>
38

>  <nBondsKD>
6

>  <RNCG>
0.19

>  <RPCG>
0.13

>  <FCSP3>
0.41

>  <SZ>
28.33

>  <Sm>
26.67

>  <Sv>
26.71

>  <Sse>
43.86

>  <Sp>
27.87

>  <Si>
48.41

>  <MZ>
0.66

>  <Mm>
0.62

>  <Mv>
0.62

>  <Mse>
1.02

>  <Mp>
0.65

>  <Mi>
1.13

>  <NsCH3>
3

>  <NdCH2>
0

>  <NssCH2>
4

>  <NtCH>
0

>  <NdsCH>
1

>  <NaaCH>
0

>  <NsssCH>
0

>  <NddC>
0

>  <NtsC>
0

>  <NdssC>
3

>  <NaasC>
6

>  <NaaaC>
0

>  <NssssC>
0

>  <NsNH3>
0

>  <NsNH2>
0

>  <NssNH2>
0

>  <NdNH>
0

>  <NssNH>
0

>  <NaaNH>
0

>  <NtN>
0

>  <NsssNH>
0

>  <NdsN>
0

>  <NaaN>
0

>  <NsssN>
0

>  <NddsN>
0

>  <NaasN>
0

>  <NssssN>
0

>  <NsOH>
2

>  <NdO>
2

>  <NssO>
2

>  <NaaO>
0

>  <NsF>
0

>  <NsSiH3>
0

>  <NssSiH2>
0

>  <NsssSiH>
0

>  <NssssSi>
0

>  <NsPH2>
0

>  <NssPH>
0

>  <NsssP>
0

>  <NdsssP>
0

>  <NsssssP>
0

>  <NsSH>
0

>  <NdS>
0

>  <NssS>
0

>  <NaaS>
0

>  <NdssS>
0

>  <NddssS>
0

>  <NsCl>
0

>  <NsBr>
0

>  <NsI>
0

>  <fragCpx>
70.06

>  <fMF>
0.21

>  <nHBAcc>
5

>  <nHBDon>
2

>  <Kier1>
19.33

>  <Kier2>
8.39

>  <Lipinski>
1

>  <GhoseFilter>
1

>  <FilterItLogS>
-3.56

>  <VMcGowan>
238.09

>  <LabuteASA>
133.89

>  <PEOE_VSA1>
19.69

>  <PEOE_VSA2>
4.79

>  <PEOE_VSA3>
4.79

>  <PEOE_VSA4>
0

>  <PEOE_VSA5>
0

>  <PEOE_VSA6>
11.65

>  <PEOE_VSA7>
32.25

>  <PEOE_VSA8>
17.55

>  <PEOE_VSA9>
7.11

>  <PEOE_VSA10>
23.67

>  <PEOE_VSA11>
0

>  <PEOE_VSA12>
0

>  <PEOE_VSA13>
0

>  <SMR_VSA1>
29.28

>  <SMR_VSA2>
0

>  <SMR_VSA3>
0

>  <SMR_VSA4>
0

>  <SMR_VSA5>
39.72

>  <SMR_VSA6>
7.11

>  <SMR_VSA7>
33.9

>  <SMR_VSA8>
0

>  <SMR_VSA9>
11.5

>  <SlogP_VSA1>
4.74

>  <SlogP_VSA2>
29.26

>  <SlogP_VSA3>
22.56

>  <SlogP_VSA4>
6.92

>  <SlogP_VSA5>
46.81

>  <SlogP_VSA6>
11.65

>  <SlogP_VSA7>
0

>  <SlogP_VSA8>
0

>  <SlogP_VSA9>
0

>  <SlogP_VSA10>
0

>  <SlogP_VSA11>
11.5

>  <EState_VSA1>
11.94

>  <EState_VSA2>
24.34

>  <EState_VSA3>
29.72

>  <EState_VSA4>
11.14

>  <EState_VSA5>
7.11

>  <EState_VSA6>
0

>  <EState_VSA7>
19.92

>  <EState_VSA8>
0

>  <EState_VSA9>
14.58

>  <EState_VSA10>
14.7

>  <VSA_EState1>
10.39

>  <VSA_EState2>
22.4

>  <VSA_EState3>
19.15

>  <VSA_EState4>
3.04

>  <VSA_EState5>
-0.97

>  <VSA_EState6>
0

>  <VSA_EState7>
2.68

>  <VSA_EState8>
3.79

>  <VSA_EState9>
1.51

>  <apol>
46.54

>  <bpol>
25.27

>  <nRing>
2

>  <nHRing>
1

>  <naRing>
1

>  <naHRing>
0

>  <nARing 2>
1

>  <nAHRing 2>
1

>  <nFRing>
1

>  <nFHRing>
1

>  <nFaRing>
0

>  <nFaHRing>
0

>  <nFARing 2>
1

>  <nFAHRing 2>
1

>  <nRot>
6

>  <SLogP>
2.73

>  <SMR>
82.85

>  <TopoPSA(NO)>
93.06

>  <TopoPSA>
93.06

>  <JGI1>
0.21

>  <JGI2>
0.1

>  <JGI3>
0.06

>  <JGI4>
0.06

>  <JGI5>
0.03

>  <Diameter>
11

>  <Radius>
6

>  <TMWC10>
121.86

>  <TSRW10>
71.26

>  <MW>
320.13

>  <AMW>
7.44

>  <WPath>
1225

>  <WPol>
37

>  <Zagreb1>
116

>  <Zagreb2>
137

>  <mZagreb2>
5.19

>  <yes>


>  <nAR-cont>
0.816016

>  <nHA-cont>
0.967789328

>  <MWHBN>
0.391232435

>  <MWHBN-cont>
0.510605781

>  <TPSA-cont>
0.350383413

>  <pka_cont>
0.97

>  <yes.1>


>  <BBB_SCORE>
3.735480826

>  <MMFF94 Energy>
20.027

$$$$
Compound 2526
Actelion Java MolfileCreator 2.0

  0  0  0  0  0  0              0 V3000
M  V30 BEGIN CTAB
M  V30 COUNTS 62 64 0 0 0
M  V30 BEGIN ATOM
M  V30 1 O -5.4841 -3.9717 0.2379 0
M  V30 2 C -5.451 -2.9534 0.9022 0
M  V30 3 O -6.4117 -1.9935 1.0103 0
M  V30 4 C -4.3419 -2.5456 1.743 0
M  V30 5 C -5.9985 -0.9245 1.889 0
M  V30 6 C -3.1402 -3.201 1.943 0
M  V30 7 C -4.6523 -1.3411 2.3384 0
M  V30 8 O -2.8582 -4.3806 1.3142 0
M  V30 9 C -2.2009 -2.6261 2.809 0
M  V30 10 C -3.7471 -0.7217 3.1916 0
M  V30 11 C -2.5364 -1.4033 3.4509 0
M  V30 12 C -0.8437 -3.2707 3.0001 0
M  V30 13 C -4.073 0.5952 3.8322 0
M  V30 14 O -1.6222 -0.8243 4.2999 0
M  V30 15 C 0.1349 -2.8606 1.9306 0
M  V30 16 C -1.8737 -1.2219 5.65 0
M  V30 17 C 1.2168 -2.063 2.0404 0
M  V30 18 C 2.079 -1.7849 0.8225 0
M  V30 19 C 1.6759 -1.4024 3.3124 0
M  V30 20 C 1.8421 -0.3867 0.2548 0
M  V30 21 C 2.6658 -0.1529 -0.9868 0
M  V30 22 O 3.5295 -0.9015 -1.4198 0
M  V30 23 O 2.3095 1.037 -1.5495 0
M  V30 24 C 3.0475 1.3717 -2.7371 0
M  V30 25 C 2.5113 2.7053 -3.2771 0
M  V30 26 N 3.2689 3.2445 -4.4196 0
M  V30 27 C 3.1184 2.4109 -5.6329 0
M  V30 28 C 2.8085 4.6171 -4.7316 0
M  V30 29 C 3.8306 3.0398 -6.8427 0
M  V30 30 C 3.5345 5.1918 -5.9575 0
M  V30 31 O 3.3396 4.3598 -7.1078 0
M  V30 32 H -5.9762 0.0069 1.3167 0
M  V30 33 H -6.7092 -0.857 2.7173 0
M  V30 34 H -3.6202 -4.634 0.7499 0
M  V30 35 H -0.9483 -4.3631 2.9734 0
M  V30 36 H -0.4643 -3.0723 4.0052 0
M  V30 37 H -4.6064 0.4327 4.7737 0
M  V30 38 H -4.7001 1.2075 3.176 0
M  V30 39 H -3.1689 1.1793 4.0308 0
M  V30 40 H -0.0943 -3.2897 0.9543 0
M  V30 41 H -2.7864 -0.7544 6.0325 0
M  V30 42 H -1.0348 -0.8753 6.2607 0
M  V30 43 H -1.9395 -2.3107 5.7512 0
M  V30 44 H 1.8845 -2.531 0.0404 0
M  V30 45 H 3.1356 -1.9142 1.0904 0
M  V30 46 H 1.5896 -0.3146 3.2298 0
M  V30 47 H 1.1083 -1.7079 4.193 0
M  V30 48 H 2.7242 -1.6515 3.5079 0
M  V30 49 H 0.7841 -0.2679 -0.0071 0
M  V30 50 H 2.1154 0.3797 0.988 0
M  V30 51 H 2.9133 0.5742 -3.4757 0
M  V30 52 H 4.11 1.4686 -2.4845 0
M  V30 53 H 1.4459 2.5966 -3.5211 0
M  V30 54 H 2.55 3.426 -2.4489 0
M  V30 55 H 3.5459 1.4165 -5.4694 0
M  V30 56 H 2.0537 2.2901 -5.8718 0
M  V30 57 H 1.7285 4.6115 -4.9297 0
M  V30 58 H 2.9929 5.2759 -3.8753 0
M  V30 59 H 3.6467 2.4337 -7.7355 0
M  V30 60 H 4.9155 3.0814 -6.687 0
M  V30 61 H 3.1333 6.1823 -6.1945 0
M  V30 62 H 4.6088 5.3044 -5.7682 0
M  V30 END ATOM
M  V30 BEGIN BOND
M  V30 1 2 1 2
M  V30 2 1 2 3
M  V30 3 1 2 4
M  V30 4 1 3 5
M  V30 5 2 4 6
M  V30 6 1 4 7
M  V30 7 1 6 8
M  V30 8 1 6 9
M  V30 9 2 7 10
M  V30 10 2 9 11
M  V30 11 1 9 12
M  V30 12 1 10 13
M  V30 13 1 11 14
M  V30 14 1 12 15
M  V30 15 1 14 16
M  V30 16 2 15 17
M  V30 17 1 17 18
M  V30 18 1 17 19
M  V30 19 1 18 20
M  V30 20 1 20 21
M  V30 21 2 21 22
M  V30 22 1 21 23
M  V30 23 1 23 24
M  V30 24 1 24 25
M  V30 25 1 25 26
M  V30 26 1 26 27
M  V30 27 1 26 28
M  V30 28 1 27 29
M  V30 29 1 28 30
M  V30 30 1 29 31
M  V30 31 1 5 7
M  V30 32 1 10 11
M  V30 33 1 30 31
M  V30 34 1 5 32
M  V30 35 1 5 33
M  V30 36 1 8 34
M  V30 37 1 12 35
M  V30 38 1 12 36
M  V30 39 1 13 37
M  V30 40 1 13 38
M  V30 41 1 13 39
M  V30 42 1 15 40
M  V30 43 1 16 41
M  V30 44 1 16 42
M  V30 45 1 16 43
M  V30 46 1 18 44
M  V30 47 1 18 45
M  V30 48 1 19 46
M  V30 49 1 19 47
M  V30 50 1 19 48
M  V30 51 1 20 49
M  V30 52 1 20 50
M  V30 53 1 24 51
M  V30 54 1 24 52
M  V30 55 1 25 53
M  V30 56 1 25 54
M  V30 57 1 27 55
M  V30 58 1 27 56
M  V30 59 1 28 57
M  V30 60 1 28 58
M  V30 61 1 29 59
M  V30 62 1 29 60
M  V30 63 1 30 61
M  V30 64 1 30 62
M  V30 END BOND
M  V30 END CTAB
M  END
>  <Column 1>
3130

>  <level_0>
5284

>  <index>
5285

>  <Unnamed: 0>
5285

>  <NO.>
5297

>  <Name>
mycophenolate mofetil

>  <IUPAC_name>
2-morpholin-4-ylethyl 6-(4-hydroxy-6-methoxy-7-methyl-3-oxo-1h-2-benzofuran-5-yl)-4-methylhex-4-enoate

>  <SMILES>
COc1c(C)c2c(c(O)c1CC=C(C)CCC(=O)OCCN1CCOCC1)C(=O)OC2

>  <CID>
4271

>  <logBB>


>  <BBB+/BBB->
BBB-

>  <Inchi>
InChI=1S/C23H31NO7/c1-15(5-7-19(25)30-13-10-24-8-11-29-12-9-24)4-6-17-21(26)20-18(14-31-23(20)27)16(2)22(17)28-3/h4-26H-5-14H2-1-3H3

>  <threshold>


>  <reference>
R14|

>  <group>
C

>  <Class>
-1

>  <ABC>
23.6

>  <ABCGG>
18.92

>  <nAcid>
0

>  <nBase>
1

>  <nAromAtom>
6

>  <nAromBond>
6

>  <nAtom>
62

>  <nHeavyAtom>
31

>  <nSpiro>
0

>  <nBridgehead>
0

>  <nHetero>
8

>  <nN>
1

>  <nO>
7

>  <nF>
0

>  <BalabanJ>
1.37

>  <BertzCT>
856.22

>  <nBonds>
64

>  <nBondsO>
33

>  <nBondsS>
55

>  <nBondsD>
3

>  <nBondsT>
0

>  <nBondsA>
6

>  <nBondsM>
9

>  <nBondsKS>
58

>  <nBondsKD>
6

>  <RNCG>
0.15

>  <RPCG>
0.1

>  <FCSP3>
0.57

>  <SZ>
38.67

>  <Sm>
36.09

>  <Sv>
37.16

>  <Sse>
62.74

>  <Sp>
39.4

>  <Si>
70.19

>  <MZ>
0.62

>  <Mm>
0.58

>  <Mv>
0.6

>  <Mse>
1.01

>  <Mp>
0.64

>  <Mi>
1.13

>  <NsCH3>
3

>  <NdCH2>
0

>  <NssCH2>
10

>  <NtCH>
0

>  <NdsCH>
1

>  <NaaCH>
0

>  <NsssCH>
0

>  <NddC>
0

>  <NtsC>
0

>  <NdssC>
3

>  <NaasC>
6

>  <NaaaC>
0

>  <NssssC>
0

>  <NsNH3>
0

>  <NsNH2>
0

>  <NssNH2>
0

>  <NdNH>
0

>  <NssNH>
0

>  <NaaNH>
0

>  <NtN>
0

>  <NsssNH>
0

>  <NdsN>
0

>  <NaaN>
0

>  <NsssN>
1

>  <NddsN>
0

>  <NaasN>
0

>  <NssssN>
0

>  <NsOH>
1

>  <NdO>
2

>  <NssO>
4

>  <NaaO>
0

>  <NsF>
0

>  <NsSiH3>
0

>  <NssSiH2>
0

>  <NsssSiH>
0

>  <NssssSi>
0

>  <NsPH2>
0

>  <NssPH>
0

>  <NsssP>
0

>  <NdsssP>
0

>  <NsssssP>
0

>  <NsSH>
0

>  <NdS>
0

>  <NssS>
0

>  <NaaS>
0

>  <NdssS>
0

>  <NddssS>
0

>  <NsCl>
0

>  <NsBr>
0

>  <NsI>
0

>  <fragCpx>
159.08

>  <fMF>
0.39

>  <nHBAcc>
8

>  <nHBDon>
1

>  <Kier1>
25.62

>  <Kier2>
12.46

>  <Lipinski>
1

>  <GhoseFilter>
1

>  <FilterItLogS>
-4.79

>  <VMcGowan>
327.62

>  <LabuteASA>
182.27

>  <PEOE_VSA1>
24.05

>  <PEOE_VSA2>
9.69

>  <PEOE_VSA3>
4.79

>  <PEOE_VSA4>
0

>  <PEOE_VSA5>
0

>  <PEOE_VSA6>
11.65

>  <PEOE_VSA7>
32.25

>  <PEOE_VSA8>
37.18

>  <PEOE_VSA9>
20.32

>  <PEOE_VSA10>
30.28

>  <PEOE_VSA11>
0

>  <PEOE_VSA12>
0

>  <PEOE_VSA13>
0

>  <SMR_VSA1>
33.64

>  <SMR_VSA2>
0

>  <SMR_VSA3>
4.9

>  <SMR_VSA4>
0

>  <SMR_VSA5>
39.72

>  <SMR_VSA6>
46.56

>  <SMR_VSA7>
33.9

>  <SMR_VSA8>
0

>  <SMR_VSA9>
11.5

>  <SlogP_VSA1>
4.74

>  <SlogP_VSA2>
68.51

>  <SlogP_VSA3>
32.03

>  <SlogP_VSA4>
6.92

>  <SlogP_VSA5>
46.81

>  <SlogP_VSA6>
11.65

>  <SlogP_VSA7>
0

>  <SlogP_VSA8>
0

>  <SlogP_VSA9>
0

>  <SlogP_VSA10>
0

>  <SlogP_VSA11>
11.5

>  <EState_VSA1>
5.97

>  <EState_VSA2>
23.89

>  <EState_VSA3>
42.75

>  <EState_VSA4>
43.98

>  <EState_VSA5>
0

>  <EState_VSA6>
7.11

>  <EState_VSA7>
19.92

>  <EState_VSA8>
4.9

>  <EState_VSA9>
18.95

>  <EState_VSA10>
14.7

>  <VSA_EState1>
21.2

>  <VSA_EState2>
26.24

>  <VSA_EState3>
10.66

>  <VSA_EState4>
3.23

>  <VSA_EState5>
-0.27

>  <VSA_EState6>
0

>  <VSA_EState7>
3.18

>  <VSA_EState8>
8.23

>  <VSA_EState9>
1.54

>  <apol>
65.79

>  <bpol>
41.49

>  <nRing>
3

>  <nHRing>
2

>  <naRing>
1

>  <naHRing>
0

>  <nARing 2>
2

>  <nAHRing 2>
2

>  <nFRing>
1

>  <nFHRing>
1

>  <nFaRing>
0

>  <nFaHRing>
0

>  <nFARing 2>
1

>  <nFAHRing 2>
1

>  <nRot>
9

>  <SLogP>
2.52

>  <SMR>
113.43

>  <TopoPSA(NO)>
94.53

>  <TopoPSA>
94.53

>  <JGI1>
0.17

>  <JGI2>
0.08

>  <JGI3>
0.05

>  <JGI4>
0.05

>  <JGI5>
0.03

>  <Diameter>
17

>  <Radius>
9

>  <TMWC10>
140.85

>  <TSRW10>
80.56

>  <MW>
433.21

>  <AMW>
6.99

>  <WPath>
3259

>  <WPol>
48

>  <Zagreb1>
156

>  <Zagreb2>
182

>  <mZagreb2>
7.03

>  <yes>


>  <nAR-cont>
1

>  <nHA-cont>
0.702745138

>  <MWHBN>
0.432407555

>  <MWHBN-cont>
0.350618716

>  <TPSA-cont>
0.3401219

>  <pka_cont>
0.97

>  <yes.1>


>  <BBB_SCORE>
3.393917013

>  <MMFF94 Energy>
110.57

$$$$
Compound 2527
Actelion Java MolfileCreator 2.0

  0  0  0  0  0  0              0 V3000
M  V30 BEGIN CTAB
M  V30 COUNTS 53 57 0 0 0
M  V30 BEGIN ATOM
M  V30 1 F -1.1282 -0.0805 3.0646 0
M  V30 2 C -0.1803 0.2232 2.1635 0
M  V30 3 C -0.4899 0.3105 0.7906 0
M  V30 4 C 1.099 0.4342 2.6659 0
M  V30 5 N -1.7663 0.0543 0.3136 0
M  V30 6 C 0.5968 0.6826 -0.0543 0
M  V30 7 C 2.1483 0.7184 1.7945 0
M  V30 8 C -2.9522 -0.0793 1.1725 0
M  V30 9 C -2.0613 -0.3657 -1.0613 0
M  V30 10 O 0.3262 0.9959 -1.3748 0
M  V30 11 C 1.936 0.8097 0.4071 0
M  V30 12 C 3.5044 0.9338 2.3638 0
M  V30 13 C -4.1121 -0.2572 0.1647 0
M  V30 14 C -3.4455 -1.0284 -0.9805 0
M  V30 15 C -0.0233 2.3814 -1.4686 0
M  V30 16 N 3.0703 1.0325 -0.4347 0
M  V30 17 O 3.706 0.7211 3.5544 0
M  V30 18 C 4.5703 1.3818 1.4416 0
M  V30 19 N -5.3572 -0.8589 0.6584 0
M  V30 20 C -3.3455 -2.5319 -0.693 0
M  V30 21 C 4.2836 1.3769 0.1325 0
M  V30 22 C 3.0315 0.8578 -1.8998 0
M  V30 23 C 5.9174 1.7966 1.8463 0
M  V30 24 C -5.2213 -2.2852 0.9609 0
M  V30 25 C -4.6915 -3.0776 -0.2315 0
M  V30 26 C 4.0725 0.0472 -2.6395 0
M  V30 27 C 2.6734 -0.466 -2.5311 0
M  V30 28 O 6.9184 1.7406 1.1506 0
M  V30 29 O 5.9621 2.3363 3.0729 0
M  V30 30 H 1.263 0.3571 3.7377 0
M  V30 31 H -2.8531 -0.9584 1.8173 0
M  V30 32 H -3.1141 0.81 1.7912 0
M  V30 33 H -2.1271 0.5114 -1.7135 0
M  V30 34 H -1.3146 -1.0615 -1.4596 0
M  V30 35 H -4.3697 0.7455 -0.2051 0
M  V30 36 H -3.996 -0.8886 -1.919 0
M  V30 37 H -0.9323 2.6077 -0.9009 0
M  V30 38 H -0.2191 2.6028 -2.5219 0
M  V30 39 H 0.7988 3.0241 -1.1352 0
M  V30 40 H -6.0708 -0.7547 -0.064 0
M  V30 41 H -2.5923 -2.734 0.0787 0
M  V30 42 H -3.0163 -3.0616 -1.5944 0
M  V30 43 H 5.0395 1.6606 -0.5976 0
M  V30 44 H 2.6916 1.7584 -2.4052 0
M  V30 45 H -4.575 -2.4291 1.8338 0
M  V30 46 H -6.2054 -2.6754 1.244 0
M  V30 47 H -4.587 -4.1331 0.0433 0
M  V30 48 H -5.4114 -3.0318 -1.0583 0
M  V30 49 H 4.8367 -0.4731 -2.0746 0
M  V30 50 H 4.4062 0.4143 -3.6028 0
M  V30 51 H 2.0443 -0.4436 -3.4127 0
M  V30 52 H 2.4902 -1.3114 -1.8783 0
M  V30 53 H 6.9051 2.5489 3.2234 0
M  V30 END ATOM
M  V30 BEGIN BOND
M  V30 1 1 1 2
M  V30 2 2 2 3
M  V30 3 1 2 4
M  V30 4 1 3 5
M  V30 5 1 3 6
M  V30 6 2 4 7
M  V30 7 1 5 8
M  V30 8 1 5 9
M  V30 9 1 6 10
M  V30 10 2 6 11
M  V30 11 1 7 12
M  V30 12 1 8 13
M  V30 13 1 9 14
M  V30 14 1 10 15
M  V30 15 1 11 16
M  V30 16 2 12 17
M  V30 17 1 12 18
M  V30 18 1 13 19
M  V30 19 1 14 20
M  V30 20 1 16 21
M  V30 21 1 16 22
M  V30 22 1 18 23
M  V30 23 1 19 24
M  V30 24 1 20 25
M  V30 25 1 22 26
M  V30 26 1 22 27
M  V30 27 2 23 28
M  V30 28 1 23 29
M  V30 29 1 7 11
M  V30 30 1 13 14
M  V30 31 2 18 21
M  V30 32 1 24 25
M  V30 33 1 26 27
M  V30 34 1 4 30
M  V30 35 1 8 31
M  V30 36 1 8 32
M  V30 37 1 9 33
M  V30 38 1 9 34
M  V30 39 1 13 35
M  V30 40 1 14 36
M  V30 41 1 15 37
M  V30 42 1 15 38
M  V30 43 1 15 39
M  V30 44 1 19 40
M  V30 45 1 20 41
M  V30 46 1 20 42
M  V30 47 1 21 43
M  V30 48 1 22 44
M  V30 49 1 24 45
M  V30 50 1 24 46
M  V30 51 1 25 47
M  V30 52 1 25 48
M  V30 53 1 26 49
M  V30 54 1 26 50
M  V30 55 1 27 51
M  V30 56 1 27 52
M  V30 57 1 29 53
M  V30 END BOND
M  V30 END CTAB
M  END
>  <Column 1>
3131

>  <level_0>
5285

>  <index>
5286

>  <Unnamed: 0>
5286

>  <NO.>
5298

>  <Name>
354812-41-2

>  <IUPAC_name>
7-(1-2-3-4-4a-5-7-7a-octahydropyrrolo[3-4-b]pyridin-6-yl)-1-cyclopropyl-6-fluoro-8-methoxy-4-oxoquinoline-3-carboxylic acid

>  <SMILES>
COc1c(N2CC3CCCNC3C2)c(F)cc2c(=O)c(C(=O)O)cn(C3CC3)c12

>  <CID>
4259

>  <logBB>


>  <BBB+/BBB->
BBB-

>  <Inchi>
InChI=1S/C21H24FN3O4/c1-29-20-17-13(19(26)14(21(27)28)9-25(17)12-4-5-12)7-15(22)18(20)24-8-11-3-2-6-23-16(11)10-24/h7-9-11-12-16-23H-2-6-8-10H2-1H3-(H-27-28)

>  <threshold>


>  <reference>
R14|R23|

>  <group>
C

>  <Class>
-1

>  <ABC>
23.33

>  <ABCGG>
18.83

>  <nAcid>
1

>  <nBase>
1

>  <nAromAtom>
10

>  <nAromBond>
11

>  <nAtom>
53

>  <nHeavyAtom>
29

>  <nSpiro>
0

>  <nBridgehead>
0

>  <nHetero>
8

>  <nN>
3

>  <nO>
4

>  <nF>
1

>  <BalabanJ>
1.41

>  <BertzCT>
1048.3

>  <nBonds>
57

>  <nBondsO>
33

>  <nBondsS>
44

>  <nBondsD>
2

>  <nBondsT>
0

>  <nBondsA>
11

>  <nBondsM>
13

>  <nBondsKS>
51

>  <nBondsKD>
6

>  <RNCG>
0.17

>  <RPCG>
0.12

>  <FCSP3>
0.52

>  <SZ>
35.33

>  <Sm>
33.42

>  <Sv>
33.28

>  <Sse>
53.92

>  <Sp>
34.81

>  <Si>
60.24

>  <MZ>
0.67

>  <Mm>
0.63

>  <Mv>
0.63

>  <Mse>
1.02

>  <Mp>
0.66

>  <Mi>
1.14

>  <NsCH3>
1

>  <NdCH2>
0

>  <NssCH2>
7

>  <NtCH>
0

>  <NdsCH>
0

>  <NaaCH>
2

>  <NsssCH>
3

>  <NddC>
0

>  <NtsC>
0

>  <NdssC>
1

>  <NaasC>
4

>  <NaaaC>
2

>  <NssssC>
0

>  <NsNH3>
0

>  <NsNH2>
0

>  <NssNH2>
0

>  <NdNH>
0

>  <NssNH>
1

>  <NaaNH>
0

>  <NtN>
0

>  <NsssNH>
0

>  <NdsN>
0

>  <NaaN>
0

>  <NsssN>
1

>  <NddsN>
0

>  <NaasN>
1

>  <NssssN>
0

>  <NsOH>
1

>  <NdO>
2

>  <NssO>
1

>  <NaaO>
0

>  <NsF>
1

>  <NsSiH3>
0

>  <NssSiH2>
0

>  <NsssSiH>
0

>  <NssssSi>
0

>  <NsPH2>
0

>  <NssPH>
0

>  <NsssP>
0

>  <NdsssP>
0

>  <NsssssP>
0

>  <NsSH>
0

>  <NdS>
0

>  <NssS>
0

>  <NaaS>
0

>  <NdssS>
0

>  <NddssS>
0

>  <NsCl>
0

>  <NsBr>
0

>  <NsI>
0

>  <fragCpx>
277.08

>  <fMF>
0.42

>  <nHBAcc>
6

>  <nHBDon>
2

>  <Kier1>
20.88

>  <Kier2>
8.16

>  <Lipinski>
1

>  <GhoseFilter>
1

>  <FilterItLogS>
-3.65

>  <VMcGowan>
281.83

>  <LabuteASA>
166.61

>  <PEOE_VSA1>
24.63

>  <PEOE_VSA2>
4.79

>  <PEOE_VSA3>
9.18

>  <PEOE_VSA4>
0

>  <PEOE_VSA5>
0

>  <PEOE_VSA6>
0

>  <PEOE_VSA7>
44.21

>  <PEOE_VSA8>
31.37

>  <PEOE_VSA9>
18.01

>  <PEOE_VSA10>
11.25

>  <PEOE_VSA11>
11.57

>  <PEOE_VSA12>
5.43

>  <PEOE_VSA13>
0

>  <SMR_VSA1>
19.03

>  <SMR_VSA2>
0

>  <SMR_VSA3>
9.88

>  <SMR_VSA4>
5.92

>  <SMR_VSA5>
37.77

>  <SMR_VSA6>
31.64

>  <SMR_VSA7>
33.87

>  <SMR_VSA8>
0

>  <SMR_VSA9>
5.75

>  <SlogP_VSA1>
20.38

>  <SlogP_VSA2>
48.43

>  <SlogP_VSA3>
0

>  <SlogP_VSA4>
11.74

>  <SlogP_VSA5>
42.08

>  <SlogP_VSA6>
17.06

>  <SlogP_VSA7>
0

>  <SlogP_VSA8>
10.9

>  <SlogP_VSA9>
0

>  <SlogP_VSA10>
10.08

>  <SlogP_VSA11>
5.75

>  <EState_VSA1>
17.22

>  <EState_VSA2>
16.99

>  <EState_VSA3>
35.46

>  <EState_VSA4>
38.77

>  <EState_VSA5>
19.37

>  <EState_VSA6>
4.57

>  <EState_VSA7>
4.9

>  <EState_VSA8>
5.32

>  <EState_VSA9>
4.74

>  <EState_VSA10>
14.7

>  <VSA_EState1>
22.79

>  <VSA_EState2>
26.36

>  <VSA_EState3>
13.02

>  <VSA_EState4>
-0.16

>  <VSA_EState5>
-1.07

>  <VSA_EState6>
1.62

>  <VSA_EState7>
5.4

>  <VSA_EState8>
2.4

>  <VSA_EState9>
1.48

>  <apol>
58.14

>  <bpol>
32.65

>  <nRing>
5

>  <nHRing>
3

>  <naRing>
2

>  <naHRing>
1

>  <nARing 2>
3

>  <nAHRing 2>
2

>  <nFRing>
2

>  <nFHRing>
2

>  <nFaRing>
1

>  <nFaHRing>
1

>  <nFARing 2>
1

>  <nFAHRing 2>
1

>  <nRot>
4

>  <SLogP>
2.37

>  <SMR>
106.68

>  <TopoPSA(NO)>
83.8

>  <TopoPSA>
83.8

>  <JGI1>
0.17

>  <JGI2>
0.07

>  <JGI3>
0.05

>  <JGI4>
0.04

>  <JGI5>
0.03

>  <Diameter>
12

>  <Radius>
6

>  <TMWC10>
141.59

>  <TSRW10>
84.95

>  <MW>
401.18

>  <AMW>
7.57

>  <WPath>
2006

>  <WPol>
55

>  <Zagreb1>
166

>  <Zagreb2>
207

>  <mZagreb2>
6.22

>  <yes>


>  <nAR-cont>
0.691115

>  <nHA-cont>
0.785905698

>  <MWHBN>
0.399411302

>  <MWHBN-cont>
0.478378076

>  <TPSA-cont>
0.415023963

>  <pka_cont>
0.97

>  <yes.1>


>  <BBB_SCORE>
3.509635739

>  <MMFF94 Energy>
96.153

$$$$
Compound 2528
Actelion Java MolfileCreator 2.0

  0  0  0  0  0  0              0 V3000
M  V30 BEGIN CTAB
M  V30 COUNTS 49 52 0 0 0
M  V30 BEGIN ATOM
M  V30 1 F -1.7666 -1.6862 2.4096 0
M  V30 2 C -1.0061 -0.7844 1.7688 0
M  V30 3 C -0.3389 -1.1239 0.5801 0
M  V30 4 C -0.9608 0.4927 2.305 0
M  V30 5 N -0.4677 -2.3846 0.0045 0
M  V30 6 C 0.4566 -0.0983 -0.0198 0
M  V30 7 C -0.2509 1.4977 1.6447 0
M  V30 8 C -0.8669 -2.5094 -1.4093 0
M  V30 9 C -0.6407 -3.6121 0.7925 0
M  V30 10 O 1.2261 -0.4207 -1.1236 0
M  V30 11 C 0.4747 1.2402 0.4614 0
M  V30 12 C -0.2909 2.8629 2.2276 0
M  V30 13 C -2.2967 -3.1137 -1.5435 0 CFG=1
M  V30 14 C -2.0749 -4.1639 0.6515 0
M  V30 15 C 2.3148 -1.2719 -0.747 0
M  V30 16 N 1.148 2.3424 -0.1642 0
M  V30 17 O -0.78 3.036 3.3384 0
M  V30 18 C 0.2739 3.9712 1.4309 0
M  V30 19 N -2.5009 -4.3491 -0.7505 0
M  V30 20 C -3.3783 -2.0692 -1.2418 0
M  V30 21 C 0.9329 3.6254 0.316 0
M  V30 22 C 1.9307 2.2078 -1.4133 0
M  V30 23 C 0.1019 5.3834 1.8123 0
M  V30 24 C 3.0726 3.1322 -1.7874 0
M  V30 25 C 3.3605 1.7217 -1.3972 0
M  V30 26 O -0.7215 5.8431 2.5814 0
M  V30 27 O 0.9762 6.2098 1.2014 0
M  V30 28 H -1.5135 0.7004 3.2179 0
M  V30 29 H -0.8308 -1.5566 -1.9494 0
M  V30 30 H -0.1535 -3.181 -1.9036 0
M  V30 31 H 0.0627 -4.3614 0.4067 0
M  V30 32 H -0.3773 -3.4745 1.8471 0
M  V30 33 H -2.4228 -3.3973 -2.596 0
M  V30 34 H -2.785 -3.5051 1.1631 0
M  V30 35 H -2.1295 -5.1345 1.1568 0
M  V30 36 H 2.8113 -0.9197 0.1645 0
M  V30 37 H 3.0471 -1.2526 -1.5596 0
M  V30 38 H 1.9975 -2.3109 -0.6285 0
M  V30 39 H -3.4875 -4.6038 -0.7645 0
M  V30 40 H -4.3784 -2.4859 -1.405 0
M  V30 41 H -3.2713 -1.2053 -1.9069 0
M  V30 42 H -3.3308 -1.7029 -0.2121 0
M  V30 43 H 1.3481 4.4001 -0.3223 0
M  V30 44 H 1.3025 1.8926 -2.2448 0
M  V30 45 H 3.4074 3.9003 -1.1013 0
M  V30 46 H 3.1758 3.4021 -2.8323 0
M  V30 47 H 3.6729 1.0404 -2.179 0
M  V30 48 H 3.8272 1.5469 -0.4353 0
M  V30 49 H 0.7408 7.0888 1.5691 0
M  V30 END ATOM
M  V30 BEGIN BOND
M  V30 1 1 1 2
M  V30 2 2 2 3
M  V30 3 1 2 4
M  V30 4 1 3 5
M  V30 5 1 3 6
M  V30 6 2 4 7
M  V30 7 1 5 8
M  V30 8 1 5 9
M  V30 9 1 6 10
M  V30 10 2 6 11
M  V30 11 1 7 12
M  V30 12 1 8 13
M  V30 13 1 9 14
M  V30 14 1 10 15
M  V30 15 1 11 16
M  V30 16 2 12 17
M  V30 17 1 12 18
M  V30 18 1 13 19
M  V30 19 1 13 20
M  V30 20 1 16 21
M  V30 21 1 16 22
M  V30 22 1 18 23
M  V30 23 1 22 24
M  V30 24 1 22 25
M  V30 25 2 23 26
M  V30 26 1 23 27
M  V30 27 1 7 11
M  V30 28 1 14 19
M  V30 29 2 18 21
M  V30 30 1 24 25
M  V30 31 1 4 28
M  V30 32 1 8 29
M  V30 33 1 8 30
M  V30 34 1 9 31
M  V30 35 1 9 32
M  V30 36 1 13 33
M  V30 37 1 14 34
M  V30 38 1 14 35
M  V30 39 1 15 36
M  V30 40 1 15 37
M  V30 41 1 15 38
M  V30 42 1 19 39
M  V30 43 1 20 40
M  V30 44 1 20 41
M  V30 45 1 20 42
M  V30 46 1 21 43
M  V30 47 1 22 44
M  V30 48 1 24 45
M  V30 49 1 24 46
M  V30 50 1 25 47
M  V30 51 1 25 48
M  V30 52 1 27 49
M  V30 END BOND
M  V30 BEGIN COLLECTION
M  V30 MDLV30/STERAC1 ATOMS=(1 13)
M  V30 END COLLECTION
M  V30 END CTAB
M  END
>  <Column 1>
3132

>  <level_0>
5286

>  <index>
5287

>  <Unnamed: 0>
5287

>  <NO.>
5299

>  <Name>
gatifloxacin

>  <IUPAC_name>
1-cyclopropyl-6-fluoro-8-methoxy-7-(3-methylpiperazin-1-yl)-4-oxoquinoline-3-carboxylic acid

>  <SMILES>
COc1c(N2CCNC(C)C2)c(F)cc2c(=O)c(C(=O)O)cn(C3CC3)c12

>  <CID>
5379

>  <logBB>


>  <BBB+/BBB->
BBB-

>  <Inchi>
InChI=1S/C19H22FN3O4/c1-10-8-22(6-5-21-10)16-14(20)7-12-15(18(16)27-2)23(11-3-4-11)9-13(17(12)24)19(25)26/h7-9-11-21H-3-6-8H2-1-2H3-(H-25-26)

>  <threshold>


>  <reference>
R14|R15|R23|

>  <group>
C

>  <Class>
-1

>  <ABC>
21.36

>  <ABCGG>
17.69

>  <nAcid>
1

>  <nBase>
1

>  <nAromAtom>
10

>  <nAromBond>
11

>  <nAtom>
49

>  <nHeavyAtom>
27

>  <nSpiro>
0

>  <nBridgehead>
0

>  <nHetero>
8

>  <nN>
3

>  <nO>
4

>  <nF>
1

>  <BalabanJ>
1.63

>  <BertzCT>
983.3

>  <nBonds>
52

>  <nBondsO>
30

>  <nBondsS>
39

>  <nBondsD>
2

>  <nBondsT>
0

>  <nBondsA>
11

>  <nBondsM>
13

>  <nBondsKS>
46

>  <nBondsKD>
6

>  <RNCG>
0.17

>  <RPCG>
0.12

>  <FCSP3>
0.47

>  <SZ>
33

>  <Sm>
31.25

>  <Sv>
30.74

>  <Sse>
50.03

>  <Sp>
32.01

>  <Si>
55.83

>  <MZ>
0.67

>  <Mm>
0.64

>  <Mv>
0.63

>  <Mse>
1.02

>  <Mp>
0.65

>  <Mi>
1.14

>  <NsCH3>
2

>  <NdCH2>
0

>  <NssCH2>
5

>  <NtCH>
0

>  <NdsCH>
0

>  <NaaCH>
2

>  <NsssCH>
2

>  <NddC>
0

>  <NtsC>
0

>  <NdssC>
1

>  <NaasC>
4

>  <NaaaC>
2

>  <NssssC>
0

>  <NsNH3>
0

>  <NsNH2>
0

>  <NssNH2>
0

>  <NdNH>
0

>  <NssNH>
1

>  <NaaNH>
0

>  <NtN>
0

>  <NsssNH>
0

>  <NdsN>
0

>  <NaaN>
0

>  <NsssN>
1

>  <NddsN>
0

>  <NaasN>
1

>  <NssssN>
0

>  <NsOH>
1

>  <NdO>
2

>  <NssO>
1

>  <NaaO>
0

>  <NsF>
1

>  <NsSiH3>
0

>  <NssSiH2>
0

>  <NsssSiH>
0

>  <NssssSi>
0

>  <NsPH2>
0

>  <NssPH>
0

>  <NsssP>
0

>  <NdsssP>
0

>  <NsssssP>
0

>  <NsSH>
0

>  <NdS>
0

>  <NssS>
0

>  <NaaS>
0

>  <NdssS>
0

>  <NddssS>
0

>  <NsCl>
0

>  <NsBr>
0

>  <NsI>
0

>  <fragCpx>
198.08

>  <fMF>
0.39

>  <nHBAcc>
6

>  <nHBDon>
2

>  <Kier1>
20.28

>  <Kier2>
8.02

>  <Lipinski>
1

>  <GhoseFilter>
1

>  <FilterItLogS>
-3.46

>  <VMcGowan>
264.51

>  <LabuteASA>
154.89

>  <PEOE_VSA1>
24.63

>  <PEOE_VSA2>
4.79

>  <PEOE_VSA3>
9.18

>  <PEOE_VSA4>
0

>  <PEOE_VSA5>
0

>  <PEOE_VSA6>
0

>  <PEOE_VSA7>
25.83

>  <PEOE_VSA8>
37.91

>  <PEOE_VSA9>
18.01

>  <PEOE_VSA10>
11.25

>  <PEOE_VSA11>
11.57

>  <PEOE_VSA12>
5.43

>  <PEOE_VSA13>
0

>  <SMR_VSA1>
19.03

>  <SMR_VSA2>
0

>  <SMR_VSA3>
9.88

>  <SMR_VSA4>
0

>  <SMR_VSA5>
31.85

>  <SMR_VSA6>
31.64

>  <SMR_VSA7>
33.87

>  <SMR_VSA8>
0

>  <SMR_VSA9>
5.75

>  <SlogP_VSA1>
20.38

>  <SlogP_VSA2>
48.43

>  <SlogP_VSA3>
0

>  <SlogP_VSA4>
5.82

>  <SlogP_VSA5>
36.17

>  <SlogP_VSA6>
17.06

>  <SlogP_VSA7>
0

>  <SlogP_VSA8>
10.9

>  <SlogP_VSA9>
0

>  <SlogP_VSA10>
10.08

>  <SlogP_VSA11>
5.75

>  <EState_VSA1>
17.22

>  <EState_VSA2>
23.03

>  <EState_VSA3>
30.04

>  <EState_VSA4>
25.45

>  <EState_VSA5>
13.31

>  <EState_VSA6>
4.57

>  <EState_VSA7>
11.82

>  <EState_VSA8>
5.32

>  <EState_VSA9>
4.74

>  <EState_VSA10>
14.7

>  <VSA_EState1>
22.47

>  <VSA_EState2>
26.1

>  <VSA_EState3>
12.75

>  <VSA_EState4>
-0.24

>  <VSA_EState5>
-1.59

>  <VSA_EState6>
1.45

>  <VSA_EState7>
3.14

>  <VSA_EState8>
3.97

>  <VSA_EState9>
1.45

>  <apol>
53.46

>  <bpol>
30.65

>  <nRing>
4

>  <nHRing>
2

>  <naRing>
2

>  <naHRing>
1

>  <nARing 2>
2

>  <nAHRing 2>
1

>  <nFRing>
1

>  <nFHRing>
1

>  <nFaRing>
1

>  <nFaHRing>
1

>  <nFARing 2>
0

>  <nFAHRing 2>
0

>  <nRot>
4

>  <SLogP>
1.98

>  <SMR>
99.63

>  <TopoPSA(NO)>
83.8

>  <TopoPSA>
83.8

>  <JGI1>
0.18

>  <JGI2>
0.08

>  <JGI3>
0.05

>  <JGI4>
0.05

>  <JGI5>
0.03

>  <Diameter>
11

>  <Radius>
6

>  <TMWC10>
135.47

>  <TSRW10>
81.32

>  <MW>
375.16

>  <AMW>
7.66

>  <WPath>
1627

>  <WPol>
51

>  <Zagreb1>
150

>  <Zagreb2>
185

>  <mZagreb2>
5.86

>  <yes>


>  <nAR-cont>
1

>  <nHA-cont>
0.860070871

>  <MWHBN>
0.41303012

>  <MWHBN-cont>
0.424995513

>  <TPSA-cont>
0.415023963

>  <pka_cont>
0.97

>  <yes.1>


>  <BBB_SCORE>
3.812612067

>  <MMFF94 Energy>
144.03

$$$$
Compound 2529
Actelion Java MolfileCreator 2.0

  0  0  0  0  0  0              0 V3000
M  V30 BEGIN CTAB
M  V30 COUNTS 24 26 0 0 0
M  V30 BEGIN ATOM
M  V30 1 O -1.379 4.4669 0.2432 0
M  V30 2 C -0.714 3.4694 -0.0102 0
M  V30 3 O -1.0953 2.1948 0.3756 0
M  V30 4 C 0.551 3.5818 -0.7544 0
M  V30 5 C -0.3146 1.0471 0.0749 0
M  V30 6 C 1.3053 2.5198 -1.051 0
M  V30 7 C -0.8021 -0.196 0.5179 0
M  V30 8 C 0.8811 1.1914 -0.6333 0
M  V30 9 O -2.0012 -0.1842 1.2079 0
M  V30 10 C 0.003 -1.2991 0.1973 0
M  V30 11 C 1.6539 0.0619 -0.9318 0
M  V30 12 C -2.4902 -1.4414 1.6536 0
M  V30 13 O -0.2333 -2.6107 0.5044 0
M  V30 14 C 1.2043 -1.2036 -0.5077 0
M  V30 15 C 0.7939 -3.3425 0.0074 0
M  V30 16 C 1.7037 -2.5292 -0.623 0
M  V30 17 H 0.8348 4.585 -1.0486 0
M  V30 18 H 2.2335 2.6318 -1.6008 0
M  V30 19 H 2.587 0.1487 -1.4812 0
M  V30 20 H -2.7027 -2.1055 0.8098 0
M  V30 21 H -3.4356 -1.263 2.1755 0
M  V30 22 H -1.803 -1.9023 2.3702 0
M  V30 23 H 0.7349 -4.4083 0.1802 0
M  V30 24 H 2.6153 -2.8499 -1.1069 0
M  V30 END ATOM
M  V30 BEGIN BOND
M  V30 1 2 1 2
M  V30 2 1 2 3
M  V30 3 1 2 4
M  V30 4 1 3 5
M  V30 5 2 4 6
M  V30 6 2 5 7
M  V30 7 1 5 8
M  V30 8 1 7 9
M  V30 9 1 7 10
M  V30 10 2 8 11
M  V30 11 1 9 12
M  V30 12 1 10 13
M  V30 13 2 10 14
M  V30 14 1 13 15
M  V30 15 1 14 16
M  V30 16 1 6 8
M  V30 17 1 11 14
M  V30 18 2 15 16
M  V30 19 1 4 17
M  V30 20 1 6 18
M  V30 21 1 11 19
M  V30 22 1 12 20
M  V30 23 1 12 21
M  V30 24 1 12 22
M  V30 25 1 15 23
M  V30 26 1 16 24
M  V30 END BOND
M  V30 END CTAB
M  END
>  <Column 1>
3133

>  <level_0>
5287

>  <index>
5288

>  <Unnamed: 0>
5288

>  <NO.>
5300

>  <Name>
methoxsalen

>  <IUPAC_name>
9-methoxyfuro[3-2-g]chromen-7-one

>  <SMILES>
COc1c2occc2cc2ccc(=O)oc12

>  <CID>
4114

>  <logBB>


>  <BBB+/BBB->
BBB-

>  <Inchi>
InChI=1S/C12H8O4/c1-14-12-10-8(4-5-15-10)6-7-2-3-9(13)16-11(7)12/h2-6H-1H3

>  <threshold>


>  <reference>
R14|R23|

>  <group>
C

>  <Class>
-1

>  <ABC>
12.68

>  <ABCGG>
11

>  <nAcid>
0

>  <nBase>
0

>  <nAromAtom>
13

>  <nAromBond>
15

>  <nAtom>
24

>  <nHeavyAtom>
16

>  <nSpiro>
0

>  <nBridgehead>
0

>  <nHetero>
4

>  <nN>
0

>  <nO>
4

>  <nF>
0

>  <BalabanJ>
1.8

>  <BertzCT>
720.54

>  <nBonds>
26

>  <nBondsO>
18

>  <nBondsS>
10

>  <nBondsD>
1

>  <nBondsT>
0

>  <nBondsA>
15

>  <nBondsM>
16

>  <nBondsKS>
20

>  <nBondsKD>
6

>  <RNCG>
0.29

>  <RPCG>
0.2

>  <FCSP3>
0.08

>  <SZ>
18.67

>  <Sm>
18

>  <Sv>
17.03

>  <Sse>
24.87

>  <Sp>
17.12

>  <Si>
26.5

>  <MZ>
0.78

>  <Mm>
0.75

>  <Mv>
0.71

>  <Mse>
1.04

>  <Mp>
0.71

>  <Mi>
1.1

>  <NsCH3>
1

>  <NdCH2>
0

>  <NssCH2>
0

>  <NtCH>
0

>  <NdsCH>
0

>  <NaaCH>
5

>  <NsssCH>
0

>  <NddC>
0

>  <NtsC>
0

>  <NdssC>
0

>  <NaasC>
1

>  <NaaaC>
4

>  <NssssC>
0

>  <NsNH3>
0

>  <NsNH2>
0

>  <NssNH2>
0

>  <NdNH>
0

>  <NssNH>
0

>  <NaaNH>
0

>  <NtN>
0

>  <NsssNH>
0

>  <NdsN>
0

>  <NaaN>
0

>  <NsssN>
0

>  <NddsN>
0

>  <NaasN>
0

>  <NssssN>
0

>  <NsOH>
0

>  <NdO>
1

>  <NssO>
1

>  <NaaO>
2

>  <NsF>
0

>  <NsSiH3>
0

>  <NssSiH2>
0

>  <NsssSiH>
0

>  <NssssSi>
0

>  <NsPH2>
0

>  <NssPH>
0

>  <NsssP>
0

>  <NdsssP>
0

>  <NsssssP>
0

>  <NsSH>
0

>  <NdS>
0

>  <NssS>
0

>  <NaaS>
0

>  <NdssS>
0

>  <NddssS>
0

>  <NsCl>
0

>  <NsBr>
0

>  <NsI>
0

>  <fragCpx>
84.04

>  <fMF>
0.54

>  <nHBAcc>
4

>  <nHBDon>
0

>  <Kier1>
11.11

>  <Kier2>
4.35

>  <Lipinski>
1

>  <GhoseFilter>
1

>  <FilterItLogS>
-3.88

>  <VMcGowan>
145.04

>  <LabuteASA>
90.03

>  <PEOE_VSA1>
13.57

>  <PEOE_VSA2>
0

>  <PEOE_VSA3>
4.79

>  <PEOE_VSA4>
0

>  <PEOE_VSA5>
0

>  <PEOE_VSA6>
0

>  <PEOE_VSA7>
18.2

>  <PEOE_VSA8>
16.84

>  <PEOE_VSA9>
13.37

>  <PEOE_VSA10>
0

>  <PEOE_VSA11>
11.17

>  <PEOE_VSA12>
5.75

>  <PEOE_VSA13>
0

>  <SMR_VSA1>
13.57

>  <SMR_VSA2>
0

>  <SMR_VSA3>
0

>  <SMR_VSA4>
0

>  <SMR_VSA5>
0

>  <SMR_VSA6>
7.11

>  <SMR_VSA7>
40.95

>  <SMR_VSA8>
0

>  <SMR_VSA9>
5.75

>  <SlogP_VSA1>
10.36

>  <SlogP_VSA2>
7.11

>  <SlogP_VSA3>
0

>  <SlogP_VSA4>
0

>  <SlogP_VSA5>
0

>  <SlogP_VSA6>
44.16

>  <SlogP_VSA7>
0

>  <SlogP_VSA8>
21.94

>  <SlogP_VSA9>
0

>  <SlogP_VSA10>
0

>  <SlogP_VSA11>
5.75

>  <EState_VSA1>
5.63

>  <EState_VSA2>
0

>  <EState_VSA3>
16.92

>  <EState_VSA4>
10.77

>  <EState_VSA5>
13.18

>  <EState_VSA6>
12.33

>  <EState_VSA7>
12.13

>  <EState_VSA8>
0

>  <EState_VSA9>
13.57

>  <EState_VSA10>
4.79

>  <VSA_EState1>
15.65

>  <VSA_EState2>
11.17

>  <VSA_EState3>
1.73

>  <VSA_EState4>
0.6

>  <VSA_EState5>
0.45

>  <VSA_EState6>
6.81

>  <VSA_EState7>
1.57

>  <VSA_EState8>
0

>  <VSA_EState9>
1.52

>  <apol>
28.58

>  <bpol>
14.1

>  <nRing>
3

>  <nHRing>
2

>  <naRing>
3

>  <naHRing>
2

>  <nARing 2>
0

>  <nAHRing 2>
0

>  <nFRing>
1

>  <nFHRing>
1

>  <nFaRing>
1

>  <nFaHRing>
1

>  <nFARing 2>
0

>  <nFAHRing 2>
0

>  <nRot>
1

>  <SLogP>
2.55

>  <SMR>
58.81

>  <TopoPSA(NO)>
52.58

>  <TopoPSA>
52.58

>  <JGI1>
0.17

>  <JGI2>
0.08

>  <JGI3>
0.04

>  <JGI4>
0.06

>  <JGI5>
0.03

>  <Diameter>
7

>  <Radius>
4

>  <TMWC10>
106.9

>  <TSRW10>
62.71

>  <MW>
216.04

>  <AMW>
9

>  <WPath>
387

>  <WPol>
26

>  <Zagreb1>
88

>  <Zagreb2>
107

>  <mZagreb2>
3.53

>  <yes>


>  <nAR-cont>
0.336376

>  <nHA-cont>
0.954961865

>  <MWHBN>
0.27214033

>  <MWHBN-cont>
0.915189886

>  <TPSA-cont>
0.63295895

>  <pka_cont>
0.97

>  <yes.1>


>  <BBB_SCORE>
4.415040594

>  <MMFF94 Energy>
52.337

$$$$
Compound 2530
Actelion Java MolfileCreator 2.0

  0  0  0  0  0  0              0 V3000
M  V30 BEGIN CTAB
M  V30 COUNTS 53 56 0 0 0
M  V30 BEGIN ATOM
M  V30 1 O -1.0335 3.0233 -4.6971 0
M  V30 2 C -0.9952 3.2044 -3.477 0
M  V30 3 N -0.4041 2.2746 -2.6279 0
M  V30 4 C -1.6461 4.4572 -2.8356 0 CFG=1
M  V30 5 C -0.2351 2.4459 -1.1785 0
M  V30 6 C 0.1089 1.0222 -3.1938 0
M  V30 7 O -1.8071 5.5348 -3.769 0
M  V30 8 C -3.045 4.131 -2.3337 0
M  V30 9 C 0.6907 1.4031 -0.5206 0
M  V30 10 C -0.1566 -0.1885 -2.282 0
M  V30 11 C -3.1843 5.6169 -4.1559 0
M  V30 12 C -3.8972 4.4325 -3.5425 0
M  V30 13 N 0.3182 0.0533 -0.9211 0
M  V30 14 C 0.513 -1.01 -0.0746 0
M  V30 15 N 0.1247 -2.2274 -0.4743 0
M  V30 16 N 1.0768 -0.7863 1.1202 0
M  V30 17 C 0.3086 -3.2576 0.3606 0
M  V30 18 C 1.283 -1.8222 1.9395 0
M  V30 19 N -0.1185 -4.4837 -0.1285 0
M  V30 20 C 0.9201 -3.1248 1.6079 0
M  V30 21 C 1.8847 -1.5902 3.1703 0
M  V30 22 C 1.1852 -4.1866 2.509 0
M  V30 23 C 2.1442 -2.6249 4.0774 0
M  V30 24 C 1.7954 -3.9423 3.7398 0
M  V30 25 O 2.7341 -2.4519 5.3049 0
M  V30 26 O 2.0844 -4.9056 4.6716 0
M  V30 27 C 3.1197 -1.1352 5.6739 0
M  V30 28 C 1.8494 -6.261 4.318 0
M  V30 29 H -1.0088 4.8293 -2.0312 0
M  V30 30 H 0.1559 3.4473 -0.9768 0
M  V30 31 H -1.2343 2.3803 -0.733 0
M  V30 32 H 1.1887 1.16 -3.3298 0
M  V30 33 H -0.322 0.8342 -4.1826 0
M  V30 34 H -3.3143 4.8149 -1.5197 0
M  V30 35 H -3.1737 3.1057 -1.9769 0
M  V30 36 H 1.7295 1.5892 -0.8194 0
M  V30 37 H 0.6284 1.5505 0.5641 0
M  V30 38 H 0.342 -1.0573 -2.7288 0
M  V30 39 H -1.2342 -0.3915 -2.2523 0
M  V30 40 H -3.5819 6.5606 -3.7679 0
M  V30 41 H -3.2606 5.6318 -5.2469 0
M  V30 42 H -4.9423 4.6437 -3.3005 0
M  V30 43 H -3.8774 3.5836 -4.2359 0
M  V30 44 H -0.5052 -4.4056 -1.062 0
M  V30 45 H -0.6026 -5.0997 0.507 0
M  V30 46 H 2.1504 -0.5631 3.3995 0
M  V30 47 H 0.9114 -5.1936 2.2154 0
M  V30 48 H 3.8722 -0.7364 4.9858 0
M  V30 49 H 3.5731 -1.186 6.6686 0
M  V30 50 H 2.2502 -0.4728 5.7388 0
M  V30 51 H 0.7812 -6.4487 4.1686 0
M  V30 52 H 2.1831 -6.8868 5.1513 0
M  V30 53 H 2.4295 -6.5467 3.4343 0
M  V30 END ATOM
M  V30 BEGIN BOND
M  V30 1 2 1 2
M  V30 2 1 2 3
M  V30 3 1 2 4
M  V30 4 1 3 5
M  V30 5 1 3 6
M  V30 6 1 4 7
M  V30 7 1 4 8
M  V30 8 1 5 9
M  V30 9 1 6 10
M  V30 10 1 7 11
M  V30 11 1 8 12
M  V30 12 1 9 13
M  V30 13 1 13 14
M  V30 14 1 14 15
M  V30 15 2 14 16
M  V30 16 2 15 17
M  V30 17 1 16 18
M  V30 18 1 17 19
M  V30 19 1 17 20
M  V30 20 2 18 21
M  V30 21 2 20 22
M  V30 22 1 21 23
M  V30 23 1 22 24
M  V30 24 1 23 25
M  V30 25 1 24 26
M  V30 26 1 25 27
M  V30 27 1 26 28
M  V30 28 1 10 13
M  V30 29 1 11 12
M  V30 30 1 18 20
M  V30 31 2 23 24
M  V30 32 1 4 29
M  V30 33 1 5 30
M  V30 34 1 5 31
M  V30 35 1 6 32
M  V30 36 1 6 33
M  V30 37 1 8 34
M  V30 38 1 8 35
M  V30 39 1 9 36
M  V30 40 1 9 37
M  V30 41 1 10 38
M  V30 42 1 10 39
M  V30 43 1 11 40
M  V30 44 1 11 41
M  V30 45 1 12 42
M  V30 46 1 12 43
M  V30 47 1 19 44
M  V30 48 1 19 45
M  V30 49 1 21 46
M  V30 50 1 22 47
M  V30 51 1 27 48
M  V30 52 1 27 49
M  V30 53 1 27 50
M  V30 54 1 28 51
M  V30 55 1 28 52
M  V30 56 1 28 53
M  V30 END BOND
M  V30 BEGIN COLLECTION
M  V30 MDLV30/STERAC1 ATOMS=(1 4)
M  V30 END COLLECTION
M  V30 END CTAB
M  END
>  <Column 1>
3137

>  <level_0>
5291

>  <index>
5292

>  <Unnamed: 0>
5292

>  <NO.>
5304

>  <Name>
terazosin

>  <IUPAC_name>
[4-(4-amino-6-7-dimethoxyquinazolin-2-yl)piperazin-1-yl]-(oxolan-2-yl)methanone

>  <SMILES>
COc1cc2nc(N3CCN(C(=O)C4CCCO4)CC3)nc(N)c2cc1OC

>  <CID>
5401

>  <logBB>


>  <BBB+/BBB->
BBB-

>  <Inchi>
InChI=1S/C19H25N5O4/c1-26-15-10-12-13(11-16(15)27-2)21-19(22-17(12)20)24-7-5-23(6-8-24)18(25)14-4-3-9-28-14/h10-11-14H-3-9H2-1-2H3-(H2-20-21-22)

>  <threshold>


>  <reference>
R14|R15|R23|

>  <group>
C

>  <Class>
-1

>  <ABC>
21.9

>  <ABCGG>
16.79

>  <nAcid>
0

>  <nBase>
0

>  <nAromAtom>
10

>  <nAromBond>
11

>  <nAtom>
53

>  <nHeavyAtom>
28

>  <nSpiro>
0

>  <nBridgehead>
0

>  <nHetero>
9

>  <nN>
5

>  <nO>
4

>  <nF>
0

>  <BalabanJ>
1.31

>  <BertzCT>
876.24

>  <nBonds>
56

>  <nBondsO>
31

>  <nBondsS>
44

>  <nBondsD>
1

>  <nBondsT>
0

>  <nBondsA>
11

>  <nBondsM>
12

>  <nBondsKS>
50

>  <nBondsKD>
6

>  <RNCG>
0.16

>  <RPCG>
0.08

>  <FCSP3>
0.53

>  <SZ>
34.33

>  <Sm>
32.26

>  <Sv>
32.42

>  <Sse>
53.74

>  <Sp>
34.2

>  <Si>
60.48

>  <MZ>
0.65

>  <Mm>
0.61

>  <Mv>
0.61

>  <Mse>
1.01

>  <Mp>
0.65

>  <Mi>
1.14

>  <NsCH3>
2

>  <NdCH2>
0

>  <NssCH2>
7

>  <NtCH>
0

>  <NdsCH>
0

>  <NaaCH>
2

>  <NsssCH>
1

>  <NddC>
0

>  <NtsC>
0

>  <NdssC>
1

>  <NaasC>
4

>  <NaaaC>
2

>  <NssssC>
0

>  <NsNH3>
0

>  <NsNH2>
1

>  <NssNH2>
0

>  <NdNH>
0

>  <NssNH>
0

>  <NaaNH>
0

>  <NtN>
0

>  <NsssNH>
0

>  <NdsN>
0

>  <NaaN>
2

>  <NsssN>
2

>  <NddsN>
0

>  <NaasN>
0

>  <NssssN>
0

>  <NsOH>
0

>  <NdO>
1

>  <NssO>
3

>  <NaaO>
0

>  <NsF>
0

>  <NsSiH3>
0

>  <NssSiH2>
0

>  <NsssSiH>
0

>  <NssssSi>
0

>  <NsPH2>
0

>  <NssPH>
0

>  <NsssP>
0

>  <NdsssP>
0

>  <NsssssP>
0

>  <NsSH>
0

>  <NdS>
0

>  <NssS>
0

>  <NaaS>
0

>  <NdssS>
0

>  <NddssS>
0

>  <NsCl>
0

>  <NsBr>
0

>  <NsI>
0

>  <fragCpx>
205.09

>  <fMF>
0.42

>  <nHBAcc>
8

>  <nHBDon>
1

>  <Kier1>
21.24

>  <Kier2>
9.43

>  <Lipinski>
1

>  <GhoseFilter>
1

>  <FilterItLogS>
-3.2

>  <VMcGowan>
282.71

>  <LabuteASA>
162.92

>  <PEOE_VSA1>
29.74

>  <PEOE_VSA2>
4.79

>  <PEOE_VSA3>
4.98

>  <PEOE_VSA4>
4.98

>  <PEOE_VSA5>
0

>  <PEOE_VSA6>
0

>  <PEOE_VSA7>
18.91

>  <PEOE_VSA8>
44.24

>  <PEOE_VSA9>
19.74

>  <PEOE_VSA10>
11.92

>  <PEOE_VSA11>
11.5

>  <PEOE_VSA12>
5.95

>  <PEOE_VSA13>
5.91

>  <SMR_VSA1>
19.01

>  <SMR_VSA2>
0

>  <SMR_VSA3>
14.87

>  <SMR_VSA4>
0

>  <SMR_VSA5>
18.95

>  <SMR_VSA6>
57.64

>  <SMR_VSA7>
12.13

>  <SMR_VSA8>
0

>  <SMR_VSA9>
11.5

>  <SlogP_VSA1>
20.11

>  <SlogP_VSA2>
73.88

>  <SlogP_VSA3>
9.53

>  <SlogP_VSA4>
0

>  <SlogP_VSA5>
12.84

>  <SlogP_VSA6>
12.13

>  <SlogP_VSA7>
0

>  <SlogP_VSA8>
10.9

>  <SlogP_VSA9>
0

>  <SlogP_VSA10>
11.77

>  <SlogP_VSA11>
11.5

>  <EState_VSA1>
0

>  <EState_VSA2>
12.01

>  <EState_VSA3>
66.95

>  <EState_VSA4>
12.84

>  <EState_VSA5>
0

>  <EState_VSA6>
26.35

>  <EState_VSA7>
9.8

>  <EState_VSA8>
9.97

>  <EState_VSA9>
19.94

>  <EState_VSA10>
4.79

>  <VSA_EState1>
16.21

>  <VSA_EState2>
25.56

>  <VSA_EState3>
0.72

>  <VSA_EState4>
6.87

>  <VSA_EState5>
2.21

>  <VSA_EState6>
3.58

>  <VSA_EState7>
1.49

>  <VSA_EState8>
3.21

>  <VSA_EState9>
3.16

>  <apol>
57.11

>  <bpol>
36.29

>  <nRing>
4

>  <nHRing>
3

>  <naRing>
2

>  <naHRing>
1

>  <nARing 2>
2

>  <nAHRing 2>
2

>  <nFRing>
1

>  <nFHRing>
1

>  <nFaRing>
1

>  <nFaHRing>
1

>  <nFARing 2>
0

>  <nFAHRing 2>
0

>  <nRot>
4

>  <SLogP>
1.06

>  <SMR>
104.82

>  <TopoPSA(NO)>
103.04

>  <TopoPSA>
103.04

>  <JGI1>
0.18

>  <JGI2>
0.09

>  <JGI3>
0.04

>  <JGI4>
0.05

>  <JGI5>
0.03

>  <Diameter>
15

>  <Radius>
8

>  <TMWC10>
136.04

>  <TSRW10>
76.74

>  <MW>
387.19

>  <AMW>
7.31

>  <WPath>
2195

>  <WPol>
47

>  <Zagreb1>
150

>  <Zagreb2>
180

>  <mZagreb2>
6.25

>  <yes>


>  <nAR-cont>
1

>  <nHA-cont>
0.82432561

>  <MWHBN>
0.457383447

>  <MWHBN-cont>
0

>  <TPSA-cont>
0.280716816

>  <pka_cont>
0.97

>  <yes.1>


>  <BBB_SCORE>
2.870759242

>  <MMFF94 Energy>
13.982

$$$$
Compound 2531
Actelion Java MolfileCreator 2.0

  0  0  0  0  0  0              0 V3000
M  V30 BEGIN CTAB
M  V30 COUNTS 44 45 0 0 0
M  V30 BEGIN ATOM
M  V30 1 O -3.569 -1.3471 3.8073 0
M  V30 2 C -2.8054 -0.4159 3.9927 0
M  V30 3 O -2.4513 -0.0538 5.241 0
M  V30 4 C -2.1678 0.4616 2.9526 0
M  V30 5 C -2.4308 -0.0801 1.5474 0
M  V30 6 C -1.7631 0.764 0.4713 0
M  V30 7 C -2.4541 1.9791 0.1395 0
M  V30 8 C -0.6149 0.4198 -0.1719 0
M  V30 9 N -3.0388 2.9546 -0.0889 0
M  V30 10 C 0.0954 -0.8266 0.1992 0
M  V30 11 C -0.0654 1.2953 -1.238 0
M  V30 12 C -0.1195 -2.0033 -0.5276 0
M  V30 13 C 0.9913 -0.8412 1.2732 0
M  V30 14 C -0.5474 1.2057 -2.5479 0
M  V30 15 C 0.9488 2.214 -0.9441 0
M  V30 16 C 0.5434 -3.1855 -0.1778 0
M  V30 17 C 1.6502 -2.0232 1.6191 0
M  V30 18 C -0.0206 2.0297 -3.5455 0
M  V30 19 C 1.473 3.0382 -1.947 0
M  V30 20 C 1.4301 -3.2001 0.8991 0
M  V30 21 C 0.9889 2.9497 -3.2524 0
M  V30 22 O 2.1375 -4.2818 1.3451 0
M  V30 23 O 1.4133 3.691 -4.3204 0
M  V30 24 C 1.955 -5.5042 0.6416 0
M  V30 25 C 2.4017 4.6805 -4.0637 0
M  V30 26 H -2.9311 -0.6824 5.821 0
M  V30 27 H -1.0903 0.4962 3.1472 0
M  V30 28 H -2.5802 1.4709 3.0611 0
M  V30 29 H -2.1198 -1.1295 1.4924 0
M  V30 30 H -3.5134 -0.1058 1.3582 0
M  V30 31 H -0.8056 -2.0107 -1.3716 0
M  V30 32 H 1.1872 0.0617 1.8458 0
M  V30 33 H -1.334 0.5007 -2.8043 0
M  V30 34 H 1.3401 2.2983 0.0668 0
M  V30 35 H 0.3448 -4.074 -0.7678 0
M  V30 36 H 2.345 -2.0278 2.4557 0
M  V30 37 H -0.4028 1.9571 -4.5609 0
M  V30 38 H 2.2575 3.736 -1.6741 0
M  V30 39 H 0.9169 -5.8464 0.7076 0
M  V30 40 H 2.5858 -6.2611 1.1176 0
M  V30 41 H 2.2759 -5.4111 -0.4012 0
M  V30 42 H 2.0386 5.4267 -3.349 0
M  V30 43 H 2.6106 5.1964 -5.0059 0
M  V30 44 H 3.3358 4.2243 -3.7198 0
M  V30 END ATOM
M  V30 BEGIN BOND
M  V30 1 2 1 2
M  V30 2 1 2 3
M  V30 3 1 2 4
M  V30 4 1 4 5
M  V30 5 1 5 6
M  V30 6 1 6 7
M  V30 7 2 6 8
M  V30 8 3 7 9
M  V30 9 1 8 10
M  V30 10 1 8 11
M  V30 11 2 10 12
M  V30 12 1 10 13
M  V30 13 2 11 14
M  V30 14 1 11 15
M  V30 15 1 12 16
M  V30 16 2 13 17
M  V30 17 1 14 18
M  V30 18 2 15 19
M  V30 19 2 16 20
M  V30 20 2 18 21
M  V30 21 1 20 22
M  V30 22 1 21 23
M  V30 23 1 22 24
M  V30 24 1 23 25
M  V30 25 1 17 20
M  V30 26 1 19 21
M  V30 27 1 3 26
M  V30 28 1 4 27
M  V30 29 1 4 28
M  V30 30 1 5 29
M  V30 31 1 5 30
M  V30 32 1 12 31
M  V30 33 1 13 32
M  V30 34 1 14 33
M  V30 35 1 15 34
M  V30 36 1 16 35
M  V30 37 1 17 36
M  V30 38 1 18 37
M  V30 39 1 19 38
M  V30 40 1 24 39
M  V30 41 1 24 40
M  V30 42 1 24 41
M  V30 43 1 25 42
M  V30 44 1 25 43
M  V30 45 1 25 44
M  V30 END BOND
M  V30 END CTAB
M  END
>  <Column 1>
3138

>  <level_0>
5292

>  <index>
5293

>  <Unnamed: 0>
5293

>  <NO.>
5305

>  <Name>
satigrel

>  <IUPAC_name>
4-cyano-5-5-bis(4-methoxyphenyl)pent-4-enoic acid

>  <SMILES>
COc1ccc(C(=C(C#N)CCC(=O)O)c2ccc(OC)cc2)cc1

>  <CID>
65913

>  <logBB>


>  <BBB+/BBB->
BBB-

>  <Inchi>
InChI=1S/C20H19NO4/c1-24-17-8-3-14(4-9-17)20(16(13-21)7-12-19(22)23)15-5-10-18(25-2)11-6-15/h3-6-8-11H-7-12H2-1-2H3-(H-22-23)

>  <threshold>


>  <reference>
R14|

>  <group>
C

>  <Class>
-1

>  <ABC>
18.48

>  <ABCGG>
15.6

>  <nAcid>
1

>  <nBase>
0

>  <nAromAtom>
12

>  <nAromBond>
12

>  <nAtom>
44

>  <nHeavyAtom>
25

>  <nSpiro>
0

>  <nBridgehead>
0

>  <nHetero>
5

>  <nN>
1

>  <nO>
4

>  <nF>
0

>  <BalabanJ>
2.04

>  <BertzCT>
749.58

>  <nBonds>
45

>  <nBondsO>
26

>  <nBondsS>
30

>  <nBondsD>
2

>  <nBondsT>
1

>  <nBondsA>
12

>  <nBondsM>
15

>  <nBondsKS>
36

>  <nBondsKD>
8

>  <RNCG>
0.22

>  <RPCG>
0.14

>  <FCSP3>
0.2

>  <SZ>
29.67

>  <Sm>
28.09

>  <Sv>
28.76

>  <Sse>
44.42

>  <Sp>
30.17

>  <Si>
49.07

>  <MZ>
0.67

>  <Mm>
0.64

>  <Mv>
0.65

>  <Mse>
1.01

>  <Mp>
0.69

>  <Mi>
1.12

>  <NsCH3>
2

>  <NdCH2>
0

>  <NssCH2>
2

>  <NtCH>
0

>  <NdsCH>
0

>  <NaaCH>
8

>  <NsssCH>
0

>  <NddC>
0

>  <NtsC>
1

>  <NdssC>
3

>  <NaasC>
4

>  <NaaaC>
0

>  <NssssC>
0

>  <NsNH3>
0

>  <NsNH2>
0

>  <NssNH2>
0

>  <NdNH>
0

>  <NssNH>
0

>  <NaaNH>
0

>  <NtN>
1

>  <NsssNH>
0

>  <NdsN>
0

>  <NaaN>
0

>  <NsssN>
0

>  <NddsN>
0

>  <NaasN>
0

>  <NssssN>
0

>  <NsOH>
1

>  <NdO>
1

>  <NssO>
2

>  <NaaO>
0

>  <NsF>
0

>  <NsSiH3>
0

>  <NssSiH2>
0

>  <NsssSiH>
0

>  <NssssSi>
0

>  <NsPH2>
0

>  <NssPH>
0

>  <NsssP>
0

>  <NdsssP>
0

>  <NsssssP>
0

>  <NsSH>
0

>  <NdS>
0

>  <NssS>
0

>  <NaaS>
0

>  <NdssS>
0

>  <NddssS>
0

>  <NsCl>
0

>  <NsBr>
0

>  <NsI>
0

>  <fragCpx>
76.05

>  <fMF>
0.3

>  <nHBAcc>
4

>  <nHBDon>
1

>  <Kier1>
21.3

>  <Kier2>
10.98

>  <Lipinski>
1

>  <GhoseFilter>
1

>  <FilterItLogS>
-4.29

>  <VMcGowan>
261.4

>  <LabuteASA>
146.29

>  <PEOE_VSA1>
14.58

>  <PEOE_VSA2>
4.79

>  <PEOE_VSA3>
0

>  <PEOE_VSA4>
5.26

>  <PEOE_VSA5>
0

>  <PEOE_VSA6>
24.27

>  <PEOE_VSA7>
41.81

>  <PEOE_VSA8>
11.15

>  <PEOE_VSA9>
26.71

>  <PEOE_VSA10>
11.5

>  <PEOE_VSA11>
0

>  <PEOE_VSA12>
0

>  <PEOE_VSA13>
0

>  <SMR_VSA1>
19.37

>  <SMR_VSA2>
5.26

>  <SMR_VSA3>
0

>  <SMR_VSA4>
0

>  <SMR_VSA5>
12.84

>  <SMR_VSA6>
14.22

>  <SMR_VSA7>
65.23

>  <SMR_VSA8>
0

>  <SMR_VSA9>
17.57

>  <SlogP_VSA1>
9.47

>  <SlogP_VSA2>
25.3

>  <SlogP_VSA3>
4.79

>  <SlogP_VSA4>
11.33

>  <SlogP_VSA5>
23.97

>  <SlogP_VSA6>
54.1

>  <SlogP_VSA7>
0

>  <SlogP_VSA8>
5.57

>  <SlogP_VSA9>
0

>  <SlogP_VSA10>
0

>  <SlogP_VSA11>
11.5

>  <EState_VSA1>
5.97

>  <EState_VSA2>
12.84

>  <EState_VSA3>
22.65

>  <EState_VSA4>
11.13

>  <EState_VSA5>
0

>  <EState_VSA6>
14.22

>  <EState_VSA7>
48.53

>  <EState_VSA8>
6.07

>  <EState_VSA9>
14.58

>  <EState_VSA10>
10.06

>  <VSA_EState1>
10.35

>  <VSA_EState2>
10.92

>  <VSA_EState3>
18.54

>  <VSA_EState4>
2.8

>  <VSA_EState5>
0.49

>  <VSA_EState6>
16.84

>  <VSA_EState7>
0.07

>  <VSA_EState8>
0

>  <VSA_EState9>
3.17

>  <apol>
50.38

>  <bpol>
23.97

>  <nRing>
2

>  <nHRing>
0

>  <naRing>
2

>  <naHRing>
0

>  <nARing 2>
0

>  <nAHRing 2>
0

>  <nFRing>
0

>  <nFHRing>
0

>  <nFaRing>
0

>  <nFaHRing>
0

>  <nFARing 2>
0

>  <nFAHRing 2>
0

>  <nRot>
7

>  <SLogP>
3.89

>  <SMR>
94.49

>  <TopoPSA(NO)>
79.55

>  <TopoPSA>
79.55

>  <JGI1>
0.19

>  <JGI2>
0.08

>  <JGI3>
0.04

>  <JGI4>
0.04

>  <JGI5>
0.02

>  <Diameter>
12

>  <Radius>
6

>  <TMWC10>
124.77

>  <TSRW10>
59.12

>  <MW>
337.13

>  <AMW>
7.66

>  <WPath>
1516

>  <WPol>
37

>  <Zagreb1>
120

>  <Zagreb2>
137

>  <mZagreb2>
5.92

>  <yes>


>  <nAR-cont>
0.336376

>  <nHA-cont>
0.921834225

>  <MWHBN>
0.272314837

>  <MWHBN-cont>
0.914783182

>  <TPSA-cont>
0.444691602

>  <pka_cont>
0.97

>  <yes.1>


>  <BBB_SCORE>
4.004768203

>  <MMFF94 Energy>
27.825

$$$$
Compound 2532
Actelion Java MolfileCreator 2.0

  0  0  0  0  0  0              0 V3000
M  V30 BEGIN CTAB
M  V30 COUNTS 54 56 0 0 0
M  V30 BEGIN ATOM
M  V30 1 O 3.5607 -1.1858 -0.079 0
M  V30 2 C 2.4772 -0.64 -0.2568 0
M  V30 3 N 1.237 -1.1476 0.0718 0
M  V30 4 C 2.4603 0.7172 -0.8717 0
M  V30 5 C 0.9617 -2.4011 0.6573 0
M  V30 6 C 3.5194 1.5896 -0.5955 0
M  V30 7 C 1.439 1.1267 -1.7348 0
M  V30 8 C -0.3024 -2.9977 0.4314 0
M  V30 9 C 1.8782 -3.0051 1.5265 0
M  V30 10 C 3.5444 2.8739 -1.1518 0
M  V30 11 C 1.4685 2.4104 -2.2873 0
M  V30 12 C -0.6116 -4.1798 1.1328 0
M  V30 13 C -1.305 -2.3884 -0.5551 0 CFG=2
M  V30 14 C 1.5574 -4.1897 2.1875 0
M  V30 15 C 2.5155 3.2904 -1.9975 0
M  V30 16 C 0.3107 -4.7717 1.9975 0
M  V30 17 C -2.2134 -1.3133 0.1001 0
M  V30 18 C -2.1837 -3.4389 -1.2576 0
M  V30 19 O 2.4164 4.5125 -2.6032 0
M  V30 20 N -1.4653 -0.0726 0.4082 0
M  V30 21 C 3.4736 5.4342 -2.3667 0
M  V30 22 C -1.3623 0.1677 1.8618 0
M  V30 23 C -2.0231 1.1093 -0.2708 0
M  V30 24 C -2.6626 0.6405 2.5185 0
M  V30 25 C -3.352 1.599 0.3086 0
M  V30 26 C -3.2343 1.8596 1.8053 0
M  V30 27 H 0.4145 -0.5583 -0.0603 0
M  V30 28 H 4.3294 1.27 0.0577 0
M  V30 29 H 0.6286 0.4562 -2.0056 0
M  V30 30 H 2.8461 -2.5517 1.7218 0
M  V30 31 H 4.3822 3.5178 -0.9058 0
M  V30 32 H 0.6732 2.726 -2.9587 0
M  V30 33 H -1.5756 -4.6669 1.015 0
M  V30 34 H -0.7376 -1.9216 -1.3724 0
M  V30 35 H 2.2793 -4.646 2.8591 0
M  V30 36 H 0.0547 -5.6897 2.5203 0
M  V30 37 H -2.6927 -1.7363 0.9922 0
M  V30 38 H -3.0331 -1.0933 -0.5961 0
M  V30 39 H -2.9173 -3.8842 -0.5772 0
M  V30 40 H -2.7442 -2.9772 -2.0785 0
M  V30 41 H -1.575 -4.2431 -1.6852 0
M  V30 42 H 3.5365 5.6986 -1.3059 0
M  V30 43 H 3.2506 6.3488 -2.9247 0
M  V30 44 H 4.4281 5.0438 -2.735 0
M  V30 45 H -0.5871 0.928 2.0247 0
M  V30 46 H -0.9997 -0.7314 2.3737 0
M  V30 47 H -2.1338 0.9088 -1.3437 0
M  V30 48 H -1.2881 1.9218 -0.2015 0
M  V30 49 H -2.4731 0.8869 3.5696 0
M  V30 50 H -3.405 -0.1662 2.5138 0
M  V30 51 H -4.1416 0.8604 0.1257 0
M  V30 52 H -3.657 2.5203 -0.2006 0
M  V30 53 H -4.2152 2.1138 2.2218 0
M  V30 54 H -2.5793 2.723 1.9756 0
M  V30 END ATOM
M  V30 BEGIN BOND
M  V30 1 2 1 2
M  V30 2 1 2 3
M  V30 3 1 2 4
M  V30 4 1 3 5
M  V30 5 2 4 6
M  V30 6 1 4 7
M  V30 7 2 5 8
M  V30 8 1 5 9
M  V30 9 1 6 10
M  V30 10 2 7 11
M  V30 11 1 8 12
M  V30 12 1 8 13
M  V30 13 2 9 14
M  V30 14 2 10 15
M  V30 15 2 12 16
M  V30 16 1 13 17
M  V30 17 1 13 18
M  V30 18 1 15 19
M  V30 19 1 17 20
M  V30 20 1 19 21
M  V30 21 1 20 22
M  V30 22 1 20 23
M  V30 23 1 22 24
M  V30 24 1 23 25
M  V30 25 1 24 26
M  V30 26 1 11 15
M  V30 27 1 14 16
M  V30 28 1 25 26
M  V30 29 1 3 27
M  V30 30 1 6 28
M  V30 31 1 7 29
M  V30 32 1 9 30
M  V30 33 1 10 31
M  V30 34 1 11 32
M  V30 35 1 12 33
M  V30 36 1 13 34
M  V30 37 1 14 35
M  V30 38 1 16 36
M  V30 39 1 17 37
M  V30 40 1 17 38
M  V30 41 1 18 39
M  V30 42 1 18 40
M  V30 43 1 18 41
M  V30 44 1 21 42
M  V30 45 1 21 43
M  V30 46 1 21 44
M  V30 47 1 22 45
M  V30 48 1 22 46
M  V30 49 1 23 47
M  V30 50 1 23 48
M  V30 51 1 24 49
M  V30 52 1 24 50
M  V30 53 1 25 51
M  V30 54 1 25 52
M  V30 55 1 26 53
M  V30 56 1 26 54
M  V30 END BOND
M  V30 BEGIN COLLECTION
M  V30 MDLV30/STERAC1 ATOMS=(1 13)
M  V30 END COLLECTION
M  V30 END CTAB
M  END
>  <Column 1>
3139

>  <level_0>
5293

>  <index>
5294

>  <Unnamed: 0>
5294

>  <NO.>
5306

>  <Name>
encainide

>  <IUPAC_name>
4-methoxy-n-[2-(1-piperidin-1-ylpropan-2-yl)phenyl]benzamide

>  <SMILES>
COc1ccc(C(=O)Nc2ccccc2C(C)CN2CCCCC2)cc1

>  <CID>
48033

>  <logBB>


>  <BBB+/BBB->
BBB-

>  <Inchi>
InChI=1S/C22H28N2O2/c1-17(16-24-14-6-3-7-15-24)20-8-4-5-9-21(20)23-22(25)18-10-12-19(26-2)13-11-18/h4-5-8-13-17H-3-6-7-14-16H2-1-2H3-(H-23-25)

>  <threshold>


>  <reference>
R14|

>  <group>
C

>  <Class>
-1

>  <ABC>
19.9

>  <ABCGG>
15.61

>  <nAcid>
0

>  <nBase>
1

>  <nAromAtom>
12

>  <nAromBond>
12

>  <nAtom>
54

>  <nHeavyAtom>
26

>  <nSpiro>
0

>  <nBridgehead>
0

>  <nHetero>
4

>  <nN>
2

>  <nO>
2

>  <nF>
0

>  <BalabanJ>
1.49

>  <BertzCT>
721.18

>  <nBonds>
56

>  <nBondsO>
28

>  <nBondsS>
43

>  <nBondsD>
1

>  <nBondsT>
0

>  <nBondsA>
12

>  <nBondsM>
13

>  <nBondsKS>
49

>  <nBondsKD>
7

>  <RNCG>
0.25

>  <RPCG>
0.13

>  <FCSP3>
0.41

>  <SZ>
31.67

>  <Sm>
29.35

>  <Sv>
32.53

>  <Sse>
53.42

>  <Sp>
35.46

>  <Si>
60.81

>  <MZ>
0.59

>  <Mm>
0.54

>  <Mv>
0.6

>  <Mse>
0.99

>  <Mp>
0.66

>  <Mi>
1.13

>  <NsCH3>
2

>  <NdCH2>
0

>  <NssCH2>
6

>  <NtCH>
0

>  <NdsCH>
0

>  <NaaCH>
8

>  <NsssCH>
1

>  <NddC>
0

>  <NtsC>
0

>  <NdssC>
1

>  <NaasC>
4

>  <NaaaC>
0

>  <NssssC>
0

>  <NsNH3>
0

>  <NsNH2>
0

>  <NssNH2>
0

>  <NdNH>
0

>  <NssNH>
1

>  <NaaNH>
0

>  <NtN>
0

>  <NsssNH>
0

>  <NdsN>
0

>  <NaaN>
0

>  <NsssN>
1

>  <NddsN>
0

>  <NaasN>
0

>  <NssssN>
0

>  <NsOH>
0

>  <NdO>
1

>  <NssO>
1

>  <NaaO>
0

>  <NsF>
0

>  <NsSiH3>
0

>  <NssSiH2>
0

>  <NsssSiH>
0

>  <NssssSi>
0

>  <NsPH2>
0

>  <NssPH>
0

>  <NsssP>
0

>  <NdsssP>
0

>  <NsssssP>
0

>  <NsSH>
0

>  <NdS>
0

>  <NssS>
0

>  <NaaS>
0

>  <NdssS>
0

>  <NddssS>
0

>  <NsCl>
0

>  <NsBr>
0

>  <NsI>
0

>  <fragCpx>
134.04

>  <fMF>
0.41

>  <nHBAcc>
3

>  <nHBDon>
1

>  <Kier1>
20.73

>  <Kier2>
10.52

>  <Lipinski>
1

>  <GhoseFilter>
1

>  <FilterItLogS>
-5.36

>  <VMcGowan>
289.86

>  <LabuteASA>
155.72

>  <PEOE_VSA1>
14.95

>  <PEOE_VSA2>
4.79

>  <PEOE_VSA3>
0

>  <PEOE_VSA4>
0

>  <PEOE_VSA5>
0

>  <PEOE_VSA6>
31.54

>  <PEOE_VSA7>
67.74

>  <PEOE_VSA8>
17.8

>  <PEOE_VSA9>
7.11

>  <PEOE_VSA10>
5.75

>  <PEOE_VSA11>
0

>  <PEOE_VSA12>
0

>  <PEOE_VSA13>
5.91

>  <SMR_VSA1>
9.53

>  <SMR_VSA2>
0

>  <SMR_VSA3>
4.9

>  <SMR_VSA4>
0

>  <SMR_VSA5>
32.1

>  <SMR_VSA6>
32.06

>  <SMR_VSA7>
59.66

>  <SMR_VSA8>
0

>  <SMR_VSA9>
5.75

>  <SlogP_VSA1>
10.05

>  <SlogP_VSA2>
37.55

>  <SlogP_VSA3>
0

>  <SlogP_VSA4>
0

>  <SlogP_VSA5>
48.03

>  <SlogP_VSA6>
48.53

>  <SlogP_VSA7>
0

>  <SlogP_VSA8>
0

>  <SlogP_VSA9>
0

>  <SlogP_VSA10>
5.69

>  <SlogP_VSA11>
5.75

>  <EState_VSA1>
0

>  <EState_VSA2>
5.91

>  <EState_VSA3>
11.48

>  <EState_VSA4>
17.98

>  <EState_VSA5>
37.92

>  <EState_VSA6>
31.38

>  <EState_VSA7>
18.2

>  <EState_VSA8>
23.21

>  <EState_VSA9>
4.74

>  <EState_VSA10>
4.79

>  <VSA_EState1>
5.15

>  <VSA_EState2>
15.15

>  <VSA_EState3>
3.08

>  <VSA_EState4>
2.72

>  <VSA_EState5>
1.03

>  <VSA_EState6>
15.31

>  <VSA_EState7>
3.94

>  <VSA_EState8>
5.65

>  <VSA_EState9>
1.62

>  <apol>
59.21

>  <bpol>
32.97

>  <nRing>
3

>  <nHRing>
1

>  <naRing>
2

>  <naHRing>
0

>  <nARing 2>
1

>  <nAHRing 2>
1

>  <nFRing>
0

>  <nFHRing>
0

>  <nFaRing>
0

>  <nFaHRing>
0

>  <nFARing 2>
0

>  <nFAHRing 2>
0

>  <nRot>
6

>  <SLogP>
4.54

>  <SMR>
106.1

>  <TopoPSA(NO)>
41.57

>  <TopoPSA>
41.57

>  <JGI1>
0.16

>  <JGI2>
0.07

>  <JGI3>
0.04

>  <JGI4>
0.04

>  <JGI5>
0.03

>  <Diameter>
15

>  <Radius>
8

>  <TMWC10>
128.21

>  <TSRW10>
60.52

>  <MW>
352.22

>  <AMW>
6.52

>  <WPath>
1826

>  <WPol>
38

>  <Zagreb1>
130

>  <Zagreb2>
149

>  <mZagreb2>
5.92

>  <yes>


>  <nAR-cont>
0.816016

>  <nHA-cont>
0.892715677

>  <MWHBN>
0.213134122

>  <MWHBN-cont>
0.998378041

>  <TPSA-cont>
0.709815587

>  <pka_cont>
0.97

>  <yes.1>


>  <BBB_SCORE>
5.110929911

>  <MMFF94 Energy>
59.894

$$$$
Compound 2533
Actelion Java MolfileCreator 2.0

  0  0  0  0  0  0              0 V3000
M  V30 BEGIN CTAB
M  V30 COUNTS 31 33 0 0 0
M  V30 BEGIN ATOM
M  V30 1 O -0.967 2.0961 -1.612 0
M  V30 2 C -0.0597 1.8754 -0.83 0
M  V30 3 C 0.2984 2.7789 0.2631 0
M  V30 4 C 0.8875 0.6859 -0.8044 0
M  V30 5 C 1.374 2.2612 0.9702 0
M  V30 6 C -0.2908 3.9801 0.6132 0
M  V30 7 C 0.1828 -0.6474 -0.7086 0
M  V30 8 C 1.7875 0.9863 0.3843 0
M  V30 9 C 1.9114 2.9201 2.061 0
M  V30 10 C 0.2381 4.6625 1.7129 0
M  V30 11 C -0.6693 -0.9578 0.3604 0
M  V30 12 C 0.3762 -1.6112 -1.7088 0
M  V30 13 O 2.7164 0.3232 0.8094 0
M  V30 14 C 1.3303 4.1368 2.4309 0
M  V30 15 C -1.3068 -2.2001 0.4205 0
M  V30 16 C -0.2644 -2.8546 -1.6447 0
M  V30 17 C -1.1098 -3.1545 -0.5782 0
M  V30 18 O -1.7935 -4.3246 -0.3949 0
M  V30 19 C -1.6245 -5.3285 -1.3875 0
M  V30 20 H 1.5109 0.751 -1.7051 0
M  V30 21 H -1.1336 4.3758 0.0539 0
M  V30 22 H 2.7526 2.5052 2.6085 0
M  V30 23 H -0.1987 5.6115 2.0201 0
M  V30 24 H -0.8528 -0.2454 1.1612 0
M  V30 25 H 1.0307 -1.4053 -2.5537 0
M  V30 26 H 1.7249 4.6856 3.2847 0
M  V30 27 H -1.9652 -2.427 1.2559 0
M  V30 28 H -0.0796 -3.5634 -2.4447 0
M  V30 29 H -1.9827 -4.9836 -2.3631 0
M  V30 30 H -2.2312 -6.1915 -1.0966 0
M  V30 31 H -0.5817 -5.6581 -1.4422 0
M  V30 END ATOM
M  V30 BEGIN BOND
M  V30 1 2 1 2
M  V30 2 1 2 3
M  V30 3 1 2 4
M  V30 4 2 3 5
M  V30 5 1 3 6
M  V30 6 1 4 7
M  V30 7 1 4 8
M  V30 8 1 5 9
M  V30 9 2 6 10
M  V30 10 2 7 11
M  V30 11 1 7 12
M  V30 12 2 8 13
M  V30 13 2 9 14
M  V30 14 1 11 15
M  V30 15 2 12 16
M  V30 16 2 15 17
M  V30 17 1 17 18
M  V30 18 1 18 19
M  V30 19 1 5 8
M  V30 20 1 10 14
M  V30 21 1 16 17
M  V30 22 1 4 20
M  V30 23 1 6 21
M  V30 24 1 9 22
M  V30 25 1 10 23
M  V30 26 1 11 24
M  V30 27 1 12 25
M  V30 28 1 14 26
M  V30 29 1 15 27
M  V30 30 1 16 28
M  V30 31 1 19 29
M  V30 32 1 19 30
M  V30 33 1 19 31
M  V30 END BOND
M  V30 END CTAB
M  END
>  <Column 1>
3141

>  <level_0>
5295

>  <index>
5296

>  <Unnamed: 0>
5296

>  <NO.>
5308

>  <Name>
anisindione

>  <IUPAC_name>
2-(4-methoxyphenyl)indene-1-3-dione

>  <SMILES>
COc1ccc(C2C(=O)c3ccccc3C2=O)cc1

>  <CID>
2197

>  <logBB>


>  <BBB+/BBB->
BBB-

>  <Inchi>
InChI=1S/C16H12O3/c1-19-11-8-6-10(7-9-11)14-15(17)12-4-2-3-5-13(12)16(14)18/h2-9-14H-1H3

>  <threshold>


>  <reference>
R14|

>  <group>
C

>  <Class>
-1

>  <ABC>
14.83

>  <ABCGG>
12.49

>  <nAcid>
0

>  <nBase>
0

>  <nAromAtom>
12

>  <nAromBond>
12

>  <nAtom>
31

>  <nHeavyAtom>
19

>  <nSpiro>
0

>  <nBridgehead>
0

>  <nHetero>
3

>  <nN>
0

>  <nO>
3

>  <nF>
0

>  <BalabanJ>
1.67

>  <BertzCT>
620.95

>  <nBonds>
33

>  <nBondsO>
21

>  <nBondsS>
19

>  <nBondsD>
2

>  <nBondsT>
0

>  <nBondsA>
12

>  <nBondsM>
14

>  <nBondsKS>
25

>  <nBondsKD>
8

>  <RNCG>
0.33

>  <RPCG>
0.12

>  <FCSP3>
0.13

>  <SZ>
22

>  <Sm>
21

>  <Sv>
21.4

>  <Sse>
31.32

>  <Sp>
22.23

>  <Si>
34.12

>  <MZ>
0.71

>  <Mm>
0.68

>  <Mv>
0.69

>  <Mse>
1.01

>  <Mp>
0.72

>  <Mi>
1.1

>  <NsCH3>
1

>  <NdCH2>
0

>  <NssCH2>
0

>  <NtCH>
0

>  <NdsCH>
0

>  <NaaCH>
8

>  <NsssCH>
1

>  <NddC>
0

>  <NtsC>
0

>  <NdssC>
2

>  <NaasC>
4

>  <NaaaC>
0

>  <NssssC>
0

>  <NsNH3>
0

>  <NsNH2>
0

>  <NssNH2>
0

>  <NdNH>
0

>  <NssNH>
0

>  <NaaNH>
0

>  <NtN>
0

>  <NsssNH>
0

>  <NdsN>
0

>  <NaaN>
0

>  <NsssN>
0

>  <NddsN>
0

>  <NaasN>
0

>  <NssssN>
0

>  <NsOH>
0

>  <NdO>
2

>  <NssO>
1

>  <NaaO>
0

>  <NsF>
0

>  <NsSiH3>
0

>  <NssSiH2>
0

>  <NsssSiH>
0

>  <NssssSi>
0

>  <NsPH2>
0

>  <NssPH>
0

>  <NsssP>
0

>  <NdsssP>
0

>  <NsssssP>
0

>  <NsSH>
0

>  <NdS>
0

>  <NssS>
0

>  <NaaS>
0

>  <NdssS>
0

>  <NddssS>
0

>  <NsCl>
0

>  <NsBr>
0

>  <NsI>
0

>  <fragCpx>
99.03

>  <fMF>
0.48

>  <nHBAcc>
3

>  <nHBDon>
0

>  <Kier1>
13.96

>  <Kier2>
5.78

>  <Lipinski>
1

>  <GhoseFilter>
1

>  <FilterItLogS>
-4.21

>  <VMcGowan>
186.93

>  <LabuteASA>
110.38

>  <PEOE_VSA1>
4.74

>  <PEOE_VSA2>
9.59

>  <PEOE_VSA3>
0

>  <PEOE_VSA4>
0

>  <PEOE_VSA5>
0

>  <PEOE_VSA6>
36.4

>  <PEOE_VSA7>
17.7

>  <PEOE_VSA8>
11.13

>  <PEOE_VSA9>
7.11

>  <PEOE_VSA10>
11.67

>  <PEOE_VSA11>
11.57

>  <PEOE_VSA12>
0

>  <PEOE_VSA13>
0

>  <SMR_VSA1>
14.33

>  <SMR_VSA2>
0

>  <SMR_VSA3>
0

>  <SMR_VSA4>
0

>  <SMR_VSA5>
5.92

>  <SMR_VSA6>
7.11

>  <SMR_VSA7>
65.22

>  <SMR_VSA8>
0

>  <SMR_VSA9>
5.75

>  <SlogP_VSA1>
4.74

>  <SlogP_VSA2>
18.68

>  <SlogP_VSA3>
0

>  <SlogP_VSA4>
0

>  <SlogP_VSA5>
32.2

>  <SlogP_VSA6>
48.53

>  <SlogP_VSA7>
0

>  <SlogP_VSA8>
0

>  <SlogP_VSA9>
0

>  <SlogP_VSA10>
0

>  <SlogP_VSA11>
5.75

>  <EState_VSA1>
5.92

>  <EState_VSA2>
11.57

>  <EState_VSA3>
22.44

>  <EState_VSA4>
0

>  <EState_VSA5>
0

>  <EState_VSA6>
55.64

>  <EState_VSA7>
0

>  <EState_VSA8>
0

>  <EState_VSA9>
4.74

>  <EState_VSA10>
9.59

>  <VSA_EState1>
5.08

>  <VSA_EState2>
24.62

>  <VSA_EState3>
0

>  <VSA_EState4>
1.76

>  <VSA_EState5>
-0.24

>  <VSA_EState6>
14.03

>  <VSA_EState7>
0

>  <VSA_EState8>
0

>  <VSA_EState9>
1.58

>  <apol>
37.13

>  <bpol>
15.51

>  <nRing>
3

>  <nHRing>
0

>  <naRing>
2

>  <naHRing>
0

>  <nARing 2>
1

>  <nAHRing 2>
0

>  <nFRing>
1

>  <nFHRing>
0

>  <nFaRing>
0

>  <nFaHRing>
0

>  <nFARing 2>
1

>  <nFAHRing 2>
0

>  <nRot>
2

>  <SLogP>
2.86

>  <SMR>
70.84

>  <TopoPSA(NO)>
43.37

>  <TopoPSA>
43.37

>  <JGI1>
0.14

>  <JGI2>
0.08

>  <JGI3>
0.07

>  <JGI4>
0.04

>  <JGI5>
0.03

>  <Diameter>
10

>  <Radius>
5

>  <TMWC10>
114.18

>  <TSRW10>
67.32

>  <MW>
252.08

>  <AMW>
8.13

>  <WPath>
679

>  <WPol>
32

>  <Zagreb1>
102

>  <Zagreb2>
124

>  <mZagreb2>
4.25

>  <yes>


>  <nAR-cont>
0.816016

>  <nHA-cont>
0.998649058

>  <MWHBN>
0.188952246

>  <MWHBN-cont>
0.994967514

>  <TPSA-cont>
0.697250469

>  <pka_cont>
0.97

>  <yes.1>


>  <BBB_SCORE>
5.186617266

>  <MMFF94 Energy>
74.813

$$$$
Compound 2534
Actelion Java MolfileCreator 2.0

  0  0  0  0  0  0              0 V3000
M  V30 BEGIN CTAB
M  V30 COUNTS 49 50 0 0 0
M  V30 BEGIN ATOM
M  V30 1 O 0.707 -5.3521 -2.4371 0
M  V30 2 C 1.8227 -5.719 -2.0987 0
M  V30 3 N 2.8627 -4.9754 -1.6039 0
M  V30 4 C 2.8988 -3.5859 -1.3806 0
M  V30 5 C 3.9861 -3.0867 -0.6508 0
M  V30 6 C 1.9354 -2.6951 -1.8534 0
M  V30 7 O 4.937 -3.9735 -0.21 0
M  V30 8 C 4.1057 -1.7277 -0.3738 0
M  V30 9 C 2.0338 -1.3174 -1.5813 0
M  V30 10 C 3.1267 -0.847 -0.836 0
M  V30 11 C 0.9722 -0.3515 -2.0694 0
M  V30 12 O 0.8797 -0.4795 -3.4898 0
M  V30 13 C -0.4184 -0.5901 -1.4215 0
M  V30 14 N -0.4237 -0.3338 0.0281 0
M  V30 15 C -1.7265 -0.6367 0.6521 0
M  V30 16 C -2.8491 0.3864 0.3388 0
M  V30 17 C -1.5197 -0.7924 2.1641 0
M  V30 18 C -2.6805 1.7734 0.9186 0
M  V30 19 C -1.7425 2.6673 0.3891 0
M  V30 20 C -3.4705 2.1927 1.9958 0
M  V30 21 C -1.5908 3.9517 0.9248 0
M  V30 22 C -3.3184 3.4753 2.5287 0
M  V30 23 C -2.3796 4.3616 1.9985 0
M  V30 24 O -2.3334 5.5825 2.6134 0
M  V30 25 C -1.388 6.5176 2.1106 0
M  V30 26 H 2.1053 -6.7842 -2.155 0
M  V30 27 H 3.6996 -5.4643 -1.3022 0
M  V30 28 H 1.1009 -3.0479 -2.4537 0
M  V30 29 H 5.6185 -3.4721 0.2687 0
M  V30 30 H 4.9436 -1.3369 0.1941 0
M  V30 31 H 3.2211 0.2142 -0.6144 0
M  V30 32 H 1.2896 0.6794 -1.8692 0
M  V30 33 H 0.2541 0.1966 -3.7975 0
M  V30 34 H -1.1341 0.0726 -1.921 0
M  V30 35 H -0.7511 -1.6143 -1.6318 0
M  V30 36 H 0.2879 -0.9327 0.4536 0
M  V30 37 H -2.0647 -1.6154 0.2855 0
M  V30 38 H -3.7973 -0.0325 0.7033 0
M  V30 39 H -2.9912 0.4811 -0.7447 0
M  V30 40 H -2.4687 -1.0124 2.6649 0
M  V30 41 H -0.8362 -1.6216 2.3796 0
M  V30 42 H -1.0964 0.1109 2.6164 0
M  V30 43 H -1.1135 2.3654 -0.4444 0
M  V30 44 H -4.2098 1.5258 2.4325 0
M  V30 45 H -0.8463 4.6023 0.4798 0
M  V30 46 H -3.9379 3.7863 3.3662 0
M  V30 47 H -0.3648 6.1443 2.2231 0
M  V30 48 H -1.475 7.4328 2.7043 0
M  V30 49 H -1.6034 6.7756 1.0685 0
M  V30 END ATOM
M  V30 BEGIN BOND
M  V30 1 2 1 2
M  V30 2 1 2 3
M  V30 3 1 3 4
M  V30 4 2 4 5
M  V30 5 1 4 6
M  V30 6 1 5 7
M  V30 7 1 5 8
M  V30 8 2 6 9
M  V30 9 2 8 10
M  V30 10 1 9 11
M  V30 11 1 11 12
M  V30 12 1 11 13
M  V30 13 1 13 14
M  V30 14 1 14 15
M  V30 15 1 15 16
M  V30 16 1 15 17
M  V30 17 1 16 18
M  V30 18 2 18 19
M  V30 19 1 18 20
M  V30 20 1 19 21
M  V30 21 2 20 22
M  V30 22 2 21 23
M  V30 23 1 23 24
M  V30 24 1 24 25
M  V30 25 1 9 10
M  V30 26 1 22 23
M  V30 27 1 2 26
M  V30 28 1 3 27
M  V30 29 1 6 28
M  V30 30 1 7 29
M  V30 31 1 8 30
M  V30 32 1 10 31
M  V30 33 1 11 32
M  V30 34 1 12 33
M  V30 35 1 13 34
M  V30 36 1 13 35
M  V30 37 1 14 36
M  V30 38 1 15 37
M  V30 39 1 16 38
M  V30 40 1 16 39
M  V30 41 1 17 40
M  V30 42 1 17 41
M  V30 43 1 17 42
M  V30 44 1 19 43
M  V30 45 1 20 44
M  V30 46 1 21 45
M  V30 47 1 22 46
M  V30 48 1 25 47
M  V30 49 1 25 48
M  V30 50 1 25 49
M  V30 END BOND
M  V30 END CTAB
M  END
>  <Column 1>
3142

>  <level_0>
5296

>  <index>
5297

>  <Unnamed: 0>
5297

>  <NO.>
5309

>  <Name>
formoterol

>  <IUPAC_name>
n-[2-hydroxy-5-[1-hydroxy-2-[1-(4-methoxyphenyl)propan-2-ylamino]ethyl]phenyl]formamide

>  <SMILES>
COc1ccc(CC(C)NCC(O)c2ccc(O)c(NC=O)c2)cc1

>  <CID>
3410

>  <logBB>


>  <BBB+/BBB->
BBB-

>  <Inchi>
InChI=1S/C19H24N2O4/c1-13(9-14-3-6-16(25-2)7-4-14)20-11-19(24)15-5-8-18(23)17(10-15)21-12-22/h3-8-10-12-13-19-20-23-24H-9-11H2-1-2H3-(H-21-22)

>  <threshold>


>  <reference>
R14|R23|

>  <group>
C

>  <Class>
-1

>  <ABC>
18.63

>  <ABCGG>
14.89

>  <nAcid>
0

>  <nBase>
1

>  <nAromAtom>
12

>  <nAromBond>
12

>  <nAtom>
49

>  <nHeavyAtom>
25

>  <nSpiro>
0

>  <nBridgehead>
0

>  <nHetero>
6

>  <nN>
2

>  <nO>
4

>  <nF>
0

>  <BalabanJ>
1.66

>  <BertzCT>
688.32

>  <nBonds>
50

>  <nBondsO>
26

>  <nBondsS>
37

>  <nBondsD>
1

>  <nBondsT>
0

>  <nBondsA>
12

>  <nBondsM>
13

>  <nBondsKS>
43

>  <nBondsKD>
7

>  <RNCG>
0.19

>  <RPCG>
0.11

>  <FCSP3>
0.32

>  <SZ>
30.67

>  <Sm>
28.67

>  <Sv>
29.88

>  <Sse>
49.3

>  <Sp>
31.82

>  <Si>
55.4

>  <MZ>
0.63

>  <Mm>
0.59

>  <Mv>
0.61

>  <Mse>
1.01

>  <Mp>
0.65

>  <Mi>
1.13

>  <NsCH3>
2

>  <NdCH2>
0

>  <NssCH2>
2

>  <NtCH>
0

>  <NdsCH>
1

>  <NaaCH>
7

>  <NsssCH>
2

>  <NddC>
0

>  <NtsC>
0

>  <NdssC>
0

>  <NaasC>
5

>  <NaaaC>
0

>  <NssssC>
0

>  <NsNH3>
0

>  <NsNH2>
0

>  <NssNH2>
0

>  <NdNH>
0

>  <NssNH>
2

>  <NaaNH>
0

>  <NtN>
0

>  <NsssNH>
0

>  <NdsN>
0

>  <NaaN>
0

>  <NsssN>
0

>  <NddsN>
0

>  <NaasN>
0

>  <NssssN>
0

>  <NsOH>
2

>  <NdO>
1

>  <NssO>
1

>  <NaaO>
0

>  <NsF>
0

>  <NsSiH3>
0

>  <NssSiH2>
0

>  <NsssSiH>
0

>  <NssssSi>
0

>  <NsPH2>
0

>  <NssPH>
0

>  <NsssP>
0

>  <NdsssP>
0

>  <NsssssP>
0

>  <NsSH>
0

>  <NdS>
0

>  <NssS>
0

>  <NaaS>
0

>  <NdssS>
0

>  <NddssS>
0

>  <NsCl>
0

>  <NsBr>
0

>  <NsI>
0

>  <fragCpx>
76.06

>  <fMF>
0.35

>  <nHBAcc>
5

>  <nHBDon>
4

>  <Kier1>
21.3

>  <Kier2>
10.98

>  <Lipinski>
1

>  <GhoseFilter>
1

>  <FilterItLogS>
-4.14

>  <VMcGowan>
270.19

>  <LabuteASA>
147.01

>  <PEOE_VSA1>
25.58

>  <PEOE_VSA2>
4.79

>  <PEOE_VSA3>
0

>  <PEOE_VSA4>
0

>  <PEOE_VSA5>
0

>  <PEOE_VSA6>
18.2

>  <PEOE_VSA7>
48.74

>  <PEOE_VSA8>
12.59

>  <PEOE_VSA9>
18.9

>  <PEOE_VSA10>
11.5

>  <PEOE_VSA11>
0

>  <PEOE_VSA12>
6.41

>  <PEOE_VSA13>
0

>  <SMR_VSA1>
19.74

>  <SMR_VSA2>
0

>  <SMR_VSA3>
5.32

>  <SMR_VSA4>
0

>  <SMR_VSA5>
25.49

>  <SMR_VSA6>
18.97

>  <SMR_VSA7>
53.59

>  <SMR_VSA8>
0

>  <SMR_VSA9>
11.5

>  <SlogP_VSA1>
15.37

>  <SlogP_VSA2>
36.32

>  <SlogP_VSA3>
11.22

>  <SlogP_VSA4>
0

>  <SlogP_VSA5>
24.15

>  <SlogP_VSA6>
42.46

>  <SlogP_VSA7>
0

>  <SlogP_VSA8>
0

>  <SlogP_VSA9>
0

>  <SlogP_VSA10>
5.69

>  <SlogP_VSA11>
11.5

>  <EState_VSA1>
6.1

>  <EState_VSA2>
17.48

>  <EState_VSA3>
18.52

>  <EState_VSA4>
12.17

>  <EState_VSA5>
11.63

>  <EState_VSA6>
19.24

>  <EState_VSA7>
31.19

>  <EState_VSA8>
10.63

>  <EState_VSA9>
4.74

>  <EState_VSA10>
15.01

>  <VSA_EState1>
5.14

>  <VSA_EState2>
10.53

>  <VSA_EState3>
25.65

>  <VSA_EState4>
2.07

>  <VSA_EState5>
0.79

>  <VSA_EState6>
12.7

>  <VSA_EState7>
0.57

>  <VSA_EState8>
2.41

>  <VSA_EState9>
1.64

>  <apol>
53.14

>  <bpol>
27.82

>  <nRing>
2

>  <nHRing>
0

>  <naRing>
2

>  <naHRing>
0

>  <nARing 2>
0

>  <nAHRing 2>
0

>  <nFRing>
0

>  <nFHRing>
0

>  <nFaRing>
0

>  <nFaHRing>
0

>  <nFARing 2>
0

>  <nFAHRing 2>
0

>  <nRot>
9

>  <SLogP>
2.22

>  <SMR>
96.92

>  <TopoPSA(NO)>
90.82

>  <TopoPSA>
90.82

>  <JGI1>
0.21

>  <JGI2>
0.08

>  <JGI3>
0.04

>  <JGI4>
0.05

>  <JGI5>
0.03

>  <Diameter>
16

>  <Radius>
8

>  <TMWC10>
123.96

>  <TSRW10>
59

>  <MW>
344.17

>  <AMW>
7.02

>  <WPath>
1810

>  <WPol>
35

>  <Zagreb1>
120

>  <Zagreb2>
135

>  <mZagreb2>
5.81

>  <yes>


>  <nAR-cont>
0.336376

>  <nHA-cont>
0.921834225

>  <MWHBN>
0.485127623

>  <MWHBN-cont>
0

>  <TPSA-cont>
0.366020004

>  <pka_cont>
0.97

>  <yes.1>


>  <BBB_SCORE>
2.475250233

>  <MMFF94 Energy>
69.721

$$$$
Compound 2535
Actelion Java MolfileCreator 2.0

  0  0  0  0  0  0              0 V3000
M  V30 BEGIN CTAB
M  V30 COUNTS 52 53 0 0 0
M  V30 BEGIN ATOM
M  V30 1 O -2.434 -2.3554 -0.9416 0
M  V30 2 C -2.0625 -2.977 -2.1014 0
M  V30 3 C -3.8225 -2.0416 -0.7806 0
M  V30 4 C -0.6893 -3.216 -2.2197 0
M  V30 5 C -2.9159 -3.3715 -3.1307 0
M  V30 6 C -4.0538 -1.2952 0.5458 0 CFG=1
M  V30 7 C -0.1605 -3.8481 -3.353 0
M  V30 8 C -2.3968 -3.989 -4.2716 0
M  V30 9 O -3.8276 -2.1862 1.6478 0
M  V30 10 C -3.1574 -0.0498 0.7244 0
M  V30 11 C -1.0259 -4.2204 -4.3858 0
M  V30 12 C 1.3173 -4.0688 -3.4791 0
M  V30 13 N -1.7633 -0.4357 1.013 0
M  V30 14 C -0.8955 0.7447 1.0771 0
M  V30 15 C 0.5535 0.3241 1.3549 0
M  V30 16 C 1.4781 1.5165 1.4163 0
M  V30 17 C 1.6685 2.2053 2.6239 0
M  V30 18 C 2.1312 1.9673 0.2658 0
M  V30 19 C 2.5077 3.3251 2.687 0
M  V30 20 C 2.9699 3.0834 0.3181 0
M  V30 21 O 2.7464 4.0524 3.8276 0
M  V30 22 C 3.1652 3.7683 1.522 0
M  V30 23 C 2.1322 3.6133 5.0303 0
M  V30 24 O 3.9683 4.8732 1.6649 0
M  V30 25 C 4.6664 5.3329 0.5172 0
M  V30 26 H -4.402 -2.9725 -0.7687 0
M  V30 27 H -4.1531 -1.3986 -1.6052 0
M  V30 28 H -0.0271 -2.9085 -1.4132 0
M  V30 29 H -3.9881 -3.2163 -3.0795 0
M  V30 30 H -5.1057 -0.9925 0.5939 0
M  V30 31 H -3.0644 -4.2917 -5.0745 0
M  V30 32 H -2.8686 -2.104 1.8343 0
M  V30 33 H -3.2206 0.5805 -0.1701 0
M  V30 34 H -3.5335 0.5249 1.5792 0
M  V30 35 H -0.6388 -4.6978 -5.2831 0
M  V30 36 H 1.7879 -3.1954 -3.9409 0
M  V30 37 H 1.7717 -4.2387 -2.4973 0
M  V30 38 H 1.53 -4.951 -4.092 0
M  V30 39 H -1.4424 -1.0513 0.2562 0
M  V30 40 H -0.9429 1.2985 0.131 0
M  V30 41 H -1.2419 1.4162 1.8725 0
M  V30 42 H 0.6144 -0.231 2.3002 0
M  V30 43 H 0.9049 -0.3666 0.5771 0
M  V30 44 H 1.1463 1.8466 3.5054 0
M  V30 45 H 1.9925 1.4527 -0.6826 0
M  V30 46 H 3.4554 3.3939 -0.6006 0
M  V30 47 H 1.0409 3.6669 4.9587 0
M  V30 48 H 2.4451 4.2896 5.8318 0
M  V30 49 H 2.4635 2.6049 5.2992 0
M  V30 50 H 5.3577 4.5708 0.1428 0
M  V30 51 H 5.2607 6.2028 0.8133 0
M  V30 52 H 3.9714 5.6567 -0.2644 0
M  V30 END ATOM
M  V30 BEGIN BOND
M  V30 1 1 1 2
M  V30 2 1 1 3
M  V30 3 2 2 4
M  V30 4 1 2 5
M  V30 5 1 3 6
M  V30 6 1 4 7
M  V30 7 2 5 8
M  V30 8 1 6 9
M  V30 9 1 6 10
M  V30 10 2 7 11
M  V30 11 1 7 12
M  V30 12 1 10 13
M  V30 13 1 13 14
M  V30 14 1 14 15
M  V30 15 1 15 16
M  V30 16 2 16 17
M  V30 17 1 16 18
M  V30 18 1 17 19
M  V30 19 2 18 20
M  V30 20 1 19 21
M  V30 21 2 19 22
M  V30 22 1 21 23
M  V30 23 1 22 24
M  V30 24 1 24 25
M  V30 25 1 8 11
M  V30 26 1 20 22
M  V30 27 1 3 26
M  V30 28 1 3 27
M  V30 29 1 4 28
M  V30 30 1 5 29
M  V30 31 1 6 30
M  V30 32 1 8 31
M  V30 33 1 9 32
M  V30 34 1 10 33
M  V30 35 1 10 34
M  V30 36 1 11 35
M  V30 37 1 12 36
M  V30 38 1 12 37
M  V30 39 1 12 38
M  V30 40 1 13 39
M  V30 41 1 14 40
M  V30 42 1 14 41
M  V30 43 1 15 42
M  V30 44 1 15 43
M  V30 45 1 17 44
M  V30 46 1 18 45
M  V30 47 1 20 46
M  V30 48 1 23 47
M  V30 49 1 23 48
M  V30 50 1 23 49
M  V30 51 1 25 50
M  V30 52 1 25 51
M  V30 53 1 25 52
M  V30 END BOND
M  V30 BEGIN COLLECTION
M  V30 MDLV30/STERAC1 ATOMS=(1 6)
M  V30 END COLLECTION
M  V30 END CTAB
M  END
>  <Column 1>
3143

>  <level_0>
5297

>  <index>
5298

>  <Unnamed: 0>
5298

>  <NO.>
5310

>  <Name>
bevantolol

>  <IUPAC_name>
1-[2-(3-4-dimethoxyphenyl)ethylamino]-3-(3-methylphenoxy)propan-2-ol

>  <SMILES>
COc1ccc(CCNCC(O)COc2cccc(C)c2)cc1OC

>  <CID>
2372

>  <logBB>


>  <BBB+/BBB->
BBB-

>  <Inchi>
InChI=1S/C20H27NO4/c1-15-5-4-6-18(11-15)25-14-17(22)13-21-10-9-16-7-8-19(23-2)20(12-16)24-3/h4-8-11-12-17-21-22H-9-10-13-14H2-1-3H3

>  <threshold>


>  <reference>
R14|

>  <group>
C

>  <Class>
-1

>  <ABC>
18.56

>  <ABCGG>
14.44

>  <nAcid>
0

>  <nBase>
1

>  <nAromAtom>
12

>  <nAromBond>
12

>  <nAtom>
52

>  <nHeavyAtom>
25

>  <nSpiro>
0

>  <nBridgehead>
0

>  <nHetero>
5

>  <nN>
1

>  <nO>
4

>  <nF>
0

>  <BalabanJ>
1.52

>  <BertzCT>
659.89

>  <nBonds>
53

>  <nBondsO>
26

>  <nBondsS>
41

>  <nBondsD>
0

>  <nBondsT>
0

>  <nBondsA>
12

>  <nBondsM>
12

>  <nBondsKS>
47

>  <nBondsKD>
6

>  <RNCG>
0.19

>  <RPCG>
0.08

>  <FCSP3>
0.4

>  <SZ>
31

>  <Sm>
28.76

>  <Sv>
30.93

>  <Sse>
51.97

>  <Sp>
33.36

>  <Si>
58.73

>  <MZ>
0.6

>  <Mm>
0.55

>  <Mv>
0.59

>  <Mse>
1

>  <Mp>
0.64

>  <Mi>
1.13

>  <NsCH3>
3

>  <NdCH2>
0

>  <NssCH2>
4

>  <NtCH>
0

>  <NdsCH>
0

>  <NaaCH>
7

>  <NsssCH>
1

>  <NddC>
0

>  <NtsC>
0

>  <NdssC>
0

>  <NaasC>
5

>  <NaaaC>
0

>  <NssssC>
0

>  <NsNH3>
0

>  <NsNH2>
0

>  <NssNH2>
0

>  <NdNH>
0

>  <NssNH>
1

>  <NaaNH>
0

>  <NtN>
0

>  <NsssNH>
0

>  <NdsN>
0

>  <NaaN>
0

>  <NsssN>
0

>  <NddsN>
0

>  <NaasN>
0

>  <NssssN>
0

>  <NsOH>
1

>  <NdO>
0

>  <NssO>
3

>  <NaaO>
0

>  <NsF>
0

>  <NsSiH3>
0

>  <NssSiH2>
0

>  <NsssSiH>
0

>  <NssssSi>
0

>  <NsPH2>
0

>  <NssPH>
0

>  <NsssP>
0

>  <NdsssP>
0

>  <NsssssP>
0

>  <NsSH>
0

>  <NdS>
0

>  <NssS>
0

>  <NaaS>
0

>  <NdssS>
0

>  <NddssS>
0

>  <NsCl>
0

>  <NsBr>
0

>  <NsI>
0

>  <fragCpx>
76.05

>  <fMF>
0.37

>  <nHBAcc>
5

>  <nHBDon>
2

>  <Kier1>
21.3

>  <Kier2>
11.66

>  <Lipinski>
1

>  <GhoseFilter>
1

>  <FilterItLogS>
-5.35

>  <VMcGowan>
278.6

>  <LabuteASA>
149.09

>  <PEOE_VSA1>
24.63

>  <PEOE_VSA2>
0

>  <PEOE_VSA3>
0

>  <PEOE_VSA4>
0

>  <PEOE_VSA5>
0

>  <PEOE_VSA6>
18.2

>  <PEOE_VSA7>
55.28

>  <PEOE_VSA8>
6.54

>  <PEOE_VSA9>
14.22

>  <PEOE_VSA10>
18.46

>  <PEOE_VSA11>
11.5

>  <PEOE_VSA12>
0

>  <PEOE_VSA13>
0

>  <SMR_VSA1>
19.32

>  <SMR_VSA2>
0

>  <SMR_VSA3>
5.32

>  <SMR_VSA4>
0

>  <SMR_VSA5>
19.45

>  <SMR_VSA6>
33.92

>  <SMR_VSA7>
53.59

>  <SMR_VSA8>
0

>  <SMR_VSA9>
17.25

>  <SlogP_VSA1>
19.53

>  <SlogP_VSA2>
45.13

>  <SlogP_VSA3>
6.42

>  <SlogP_VSA4>
6.92

>  <SlogP_VSA5>
11.13

>  <SlogP_VSA6>
42.46

>  <SlogP_VSA7>
0

>  <SlogP_VSA8>
0

>  <SlogP_VSA9>
0

>  <SlogP_VSA10>
0

>  <SlogP_VSA11>
17.25

>  <EState_VSA1>
6.1

>  <EState_VSA2>
6.61

>  <EState_VSA3>
6.54

>  <EState_VSA4>
41.34

>  <EState_VSA5>
0

>  <EState_VSA6>
14.22

>  <EState_VSA7>
49.39

>  <EState_VSA8>
5.32

>  <EState_VSA9>
14.21

>  <EState_VSA10>
5.11

>  <VSA_EState1>
16.13

>  <VSA_EState2>
0

>  <VSA_EState3>
13.25

>  <VSA_EState4>
2.29

>  <VSA_EState5>
2.24

>  <VSA_EState6>
13.69

>  <VSA_EState7>
0.29

>  <VSA_EState8>
3.53

>  <VSA_EState9>
3.25

>  <apol>
55.71

>  <bpol>
32.86

>  <nRing>
2

>  <nHRing>
0

>  <naRing>
2

>  <naHRing>
0

>  <nARing 2>
0

>  <nAHRing 2>
0

>  <nFRing>
0

>  <nFHRing>
0

>  <nFaRing>
0

>  <nFaHRing>
0

>  <nFARing 2>
0

>  <nFAHRing 2>
0

>  <nRot>
10

>  <SLogP>
2.58

>  <SMR>
98.8

>  <TopoPSA(NO)>
59.95

>  <TopoPSA>
59.95

>  <JGI1>
0.19

>  <JGI2>
0.07

>  <JGI3>
0.04

>  <JGI4>
0.04

>  <JGI5>
0.02

>  <Diameter>
16

>  <Radius>
8

>  <TMWC10>
123.28

>  <TSRW10>
58.78

>  <MW>
345.19

>  <AMW>
6.64

>  <WPath>
1950

>  <WPol>
33

>  <Zagreb1>
118

>  <Zagreb2>
131

>  <mZagreb2>
5.86

>  <yes>


>  <nAR-cont>
0.336376

>  <nHA-cont>
0.921834225

>  <MWHBN>
0.376763599

>  <MWHBN-cont>
0.567488229

>  <TPSA-cont>
0.581511773

>  <pka_cont>
0.97

>  <yes.1>


>  <BBB_SCORE>
3.757466115

>  <MMFF94 Energy>
109.22

$$$$
Compound 2536
Actelion Java MolfileCreator 2.0

  0  0  0  0  0  0              0 V3000
M  V30 BEGIN CTAB
M  V30 COUNTS 43 45 0 0 0
M  V30 BEGIN ATOM
M  V30 1 O 3.471 -1.6554 -0.1575 0
M  V30 2 C 2.3279 -2.2422 -0.6331 0
M  V30 3 C 4.6871 -1.938 -0.839 0
M  V30 4 C 1.1315 -1.8917 0.0226 0
M  V30 5 C 2.2867 -3.1411 -1.7015 0
M  V30 6 C -0.0878 -2.443 -0.4228 0
M  V30 7 C 1.1195 -0.9185 1.1879 0
M  V30 8 C 1.0695 -3.6816 -2.1245 0
M  V30 9 C -0.123 -3.3331 -1.495 0
M  V30 10 C 0.6095 0.4601 0.8291 0
M  V30 11 O -1.2392 -3.9281 -2.0131 0
M  V30 12 C -0.6175 1.0152 1.236 0
M  V30 13 C 1.4165 1.2582 0.0321 0
M  V30 14 C -2.4927 -3.5209 -1.4791 0
M  V30 15 C -0.9276 2.3823 0.8629 0
M  V30 16 C -1.593 0.2074 2.0541 0
M  V30 17 N 1.1091 2.5069 -0.3673 0
M  V30 18 C -0.031 3.0595 0.0289 0
M  V30 19 C -2.0389 3.1734 1.2214 0
M  V30 20 N -0.2356 4.2853 -0.4228 0
M  V30 21 N -2.2649 4.4024 0.7433 0
M  V30 22 N -3.0202 2.7626 2.1104 0
M  V30 23 C -1.3476 4.9064 -0.0688 0
M  V30 24 N -1.5587 6.1593 -0.5641 0
M  V30 25 H 4.9431 -2.9997 -0.7634 0
M  V30 26 H 5.4831 -1.3686 -0.3497 0
M  V30 27 H 4.64 -1.6131 -1.8835 0
M  V30 28 H 3.1819 -3.4449 -2.2331 0
M  V30 29 H -1.0015 -2.1578 0.0864 0
M  V30 30 H 2.1244 -0.8055 1.6156 0
M  V30 31 H 0.5559 -1.3665 2.0125 0
M  V30 32 H 1.0522 -4.3779 -2.9596 0
M  V30 33 H 2.3786 0.902 -0.3307 0
M  V30 34 H -2.5813 -3.8038 -0.4251 0
M  V30 35 H -3.2778 -4.0461 -2.0315 0
M  V30 36 H -2.6518 -2.446 -1.6153 0
M  V30 37 H -2.6131 0.3314 1.6785 0
M  V30 38 H -1.5356 0.4981 3.107 0
M  V30 39 H -1.4161 -0.8674 1.996 0
M  V30 40 H -3.7547 3.4574 2.1939 0
M  V30 41 H -2.7084 2.3581 2.9805 0
M  V30 42 H -2.4042 6.6378 -0.3113 0
M  V30 43 H -0.8648 6.5373 -1.1856 0
M  V30 END ATOM
M  V30 BEGIN BOND
M  V30 1 1 1 2
M  V30 2 1 1 3
M  V30 3 2 2 4
M  V30 4 1 2 5
M  V30 5 1 4 6
M  V30 6 1 4 7
M  V30 7 2 5 8
M  V30 8 2 6 9
M  V30 9 1 7 10
M  V30 10 1 9 11
M  V30 11 2 10 12
M  V30 12 1 10 13
M  V30 13 1 11 14
M  V30 14 1 12 15
M  V30 15 1 12 16
M  V30 16 2 13 17
M  V30 17 1 15 18
M  V30 18 2 15 19
M  V30 19 2 18 20
M  V30 20 1 19 21
M  V30 21 1 19 22
M  V30 22 1 20 23
M  V30 23 1 23 24
M  V30 24 1 8 9
M  V30 25 1 17 18
M  V30 26 2 21 23
M  V30 27 1 3 25
M  V30 28 1 3 26
M  V30 29 1 3 27
M  V30 30 1 5 28
M  V30 31 1 6 29
M  V30 32 1 7 30
M  V30 33 1 7 31
M  V30 34 1 8 32
M  V30 35 1 13 33
M  V30 36 1 14 34
M  V30 37 1 14 35
M  V30 38 1 14 36
M  V30 39 1 16 37
M  V30 40 1 16 38
M  V30 41 1 16 39
M  V30 42 1 22 40
M  V30 43 1 22 41
M  V30 44 1 24 42
M  V30 45 1 24 43
M  V30 END BOND
M  V30 END CTAB
M  END
>  <Column 1>
3145

>  <level_0>
5299

>  <index>
5300

>  <Unnamed: 0>
5300

>  <NO.>
5312

>  <Name>
piritrexim

>  <IUPAC_name>
6-[(2-5-dimethoxyphenyl)methyl]-5-methylpyrido[2-3-d]pyrimidine-2-4-diamine

>  <SMILES>
COc1ccc(OC)c(Cc2cnc3nc(N)nc(N)c3c2C)c1

>  <CID>
54369

>  <logBB>


>  <BBB+/BBB->
BBB-

>  <Inchi>
InChI=1S/C17H19N5O2/c1-9-11(6-10-7-12(23-2)4-5-13(10)24-3)8-20-16-14(9)15(18)21-17(19)22-16/h4-5-7-8H-6H2-1-3H3-(H4-18-19-20-21-22)

>  <threshold>


>  <reference>
R14|

>  <group>
C

>  <Class>
-1

>  <ABC>
18.51

>  <ABCGG>
14.95

>  <nAcid>
0

>  <nBase>
0

>  <nAromAtom>
16

>  <nAromBond>
17

>  <nAtom>
43

>  <nHeavyAtom>
24

>  <nSpiro>
0

>  <nBridgehead>
0

>  <nHetero>
7

>  <nN>
5

>  <nO>
2

>  <nF>
0

>  <BalabanJ>
1.64

>  <BertzCT>
911.11

>  <nBonds>
45

>  <nBondsO>
26

>  <nBondsS>
28

>  <nBondsD>
0

>  <nBondsT>
0

>  <nBondsA>
17

>  <nBondsM>
17

>  <nBondsKS>
37

>  <nBondsKD>
8

>  <RNCG>
0.2

>  <RPCG>
0.09

>  <FCSP3>
0.24

>  <SZ>
28.67

>  <Sm>
27.09

>  <Sv>
27.37

>  <Sse>
43.41

>  <Sp>
28.84

>  <Si>
48.82

>  <MZ>
0.67

>  <Mm>
0.63

>  <Mv>
0.64

>  <Mse>
1.01

>  <Mp>
0.67

>  <Mi>
1.14

>  <NsCH3>
3

>  <NdCH2>
0

>  <NssCH2>
1

>  <NtCH>
0

>  <NdsCH>
0

>  <NaaCH>
4

>  <NsssCH>
0

>  <NddC>
0

>  <NtsC>
0

>  <NdssC>
0

>  <NaasC>
7

>  <NaaaC>
2

>  <NssssC>
0

>  <NsNH3>
0

>  <NsNH2>
2

>  <NssNH2>
0

>  <NdNH>
0

>  <NssNH>
0

>  <NaaNH>
0

>  <NtN>
0

>  <NsssNH>
0

>  <NdsN>
0

>  <NaaN>
3

>  <NsssN>
0

>  <NddsN>
0

>  <NaasN>
0

>  <NssssN>
0

>  <NsOH>
0

>  <NdO>
0

>  <NssO>
2

>  <NaaO>
0

>  <NsF>
0

>  <NsSiH3>
0

>  <NssSiH2>
0

>  <NsssSiH>
0

>  <NssssSi>
0

>  <NsPH2>
0

>  <NssPH>
0

>  <NsssP>
0

>  <NdsssP>
0

>  <NsssssP>
0

>  <NsSH>
0

>  <NdS>
0

>  <NssS>
0

>  <NaaS>
0

>  <NdssS>
0

>  <NddssS>
0

>  <NsCl>
0

>  <NsBr>
0

>  <NsI>
0

>  <fragCpx>
124.07

>  <fMF>
0.4

>  <nHBAcc>
7

>  <nHBDon>
2

>  <Kier1>
18.78

>  <Kier2>
8.13

>  <Lipinski>
1

>  <GhoseFilter>
1

>  <FilterItLogS>
-5.17

>  <VMcGowan>
245.05

>  <LabuteASA>
139.2

>  <PEOE_VSA1>
20.94

>  <PEOE_VSA2>
0

>  <PEOE_VSA3>
4.98

>  <PEOE_VSA4>
9.97

>  <PEOE_VSA5>
0

>  <PEOE_VSA6>
0

>  <PEOE_VSA7>
36.25

>  <PEOE_VSA8>
18.18

>  <PEOE_VSA9>
19.61

>  <PEOE_VSA10>
17.32

>  <PEOE_VSA11>
5.65

>  <PEOE_VSA12>
5.95

>  <PEOE_VSA13>
0

>  <SMR_VSA1>
9.47

>  <SMR_VSA2>
0

>  <SMR_VSA3>
14.95

>  <SMR_VSA4>
0

>  <SMR_VSA5>
13.34

>  <SMR_VSA6>
25.69

>  <SMR_VSA7>
41.09

>  <SMR_VSA8>
0

>  <SMR_VSA9>
11.5

>  <SlogP_VSA1>
20.94

>  <SlogP_VSA2>
29.17

>  <SlogP_VSA3>
6.42

>  <SlogP_VSA4>
6.92

>  <SlogP_VSA5>
16.69

>  <SlogP_VSA6>
24.4

>  <SlogP_VSA7>
0

>  <SlogP_VSA8>
11.03

>  <SlogP_VSA9>
0

>  <SlogP_VSA10>
11.77

>  <SlogP_VSA11>
11.5

>  <EState_VSA1>
0

>  <EState_VSA2>
5.95

>  <EState_VSA3>
17.89

>  <EState_VSA4>
33.58

>  <EState_VSA5>
0

>  <EState_VSA6>
20.42

>  <EState_VSA7>
25.12

>  <EState_VSA8>
14.95

>  <EState_VSA9>
20.94

>  <EState_VSA10>
0

>  <VSA_EState1>
10.74

>  <VSA_EState2>
12.54

>  <VSA_EState3>
0.73

>  <VSA_EState4>
15.12

>  <VSA_EState5>
2.01

>  <VSA_EState6>
5.7

>  <VSA_EState7>
2.4

>  <VSA_EState8>
1.97

>  <VSA_EState9>
3.28

>  <apol>
48.16

>  <bpol>
24.81

>  <nRing>
3

>  <nHRing>
2

>  <naRing>
3

>  <naHRing>
2

>  <nARing 2>
0

>  <nAHRing 2>
0

>  <nFRing>
1

>  <nFHRing>
1

>  <nFaRing>
1

>  <nFaHRing>
1

>  <nFARing 2>
0

>  <nFAHRing 2>
0

>  <nRot>
4

>  <SLogP>
2.11

>  <SMR>
93.25

>  <TopoPSA(NO)>
109.17

>  <TopoPSA>
109.17

>  <JGI1>
0.21

>  <JGI2>
0.08

>  <JGI3>
0.05

>  <JGI4>
0.05

>  <JGI5>
0.03

>  <Diameter>
12

>  <Radius>
6

>  <TMWC10>
125.43

>  <TSRW10>
58.8

>  <MW>
325.15

>  <AMW>
7.56

>  <WPath>
1329

>  <WPol>
41

>  <Zagreb1>
126

>  <Zagreb2>
150

>  <mZagreb2>
5.39

>  <yes>


>  <nAR-cont>
0.336376

>  <nHA-cont>
0.94700071

>  <MWHBN>
0.49911501

>  <MWHBN-cont>
0

>  <TPSA-cont>
0.23792561

>  <pka_cont>
0.97

>  <yes.1>


>  <BBB_SCORE>
2.244227929

>  <MMFF94 Energy>
-76.042

$$$$
Compound 2537
Actelion Java MolfileCreator 2.0

  0  0  0  0  0  0              0 V3000
M  V30 BEGIN CTAB
M  V30 COUNTS 47 49 0 0 0
M  V30 BEGIN ATOM
M  V30 1 Cl 4.3597 2.9856 -4.6023 0
M  V30 2 C 3.2074 1.8613 -3.9967 0
M  V30 3 C 3.0312 1.7245 -2.6202 0
M  V30 4 C 2.4607 1.0882 -4.8859 0
M  V30 5 C 2.0958 0.812 -2.1256 0
M  V30 6 C 1.5219 0.1772 -4.395 0
M  V30 7 C 1.3231 0.0541 -3.0141 0
M  V30 8 C 0.3408 -0.9369 -2.5101 0
M  V30 9 O 0.2782 -2.0151 -3.0989 0
M  V30 10 N -0.4981 -0.7415 -1.3812 0
M  V30 11 C -0.9306 -1.7558 -0.5194 0
M  V30 12 C -1.0231 0.468 -0.9153 0
M  V30 13 C -1.55 -1.1537 0.5763 0
M  V30 14 C -0.7606 -3.1514 -0.576 0
M  V30 15 C -1.582 0.2506 0.3367 0
M  V30 16 C -0.9908 1.745 -1.6906 0
M  V30 17 C -2.007 -1.9625 1.6452 0
M  V30 18 C -1.2326 -3.928 0.4871 0
M  V30 19 C -2.1499 1.2809 1.2674 0
M  V30 20 C -1.8466 -3.3497 1.5932 0
M  V30 21 C -1.1836 1.6225 2.3799 0
M  V30 22 O -2.2445 -4.2386 2.5552 0
M  V30 23 O -1.4585 1.5634 3.5721 0
M  V30 24 O 0.0122 2.0386 1.8818 0
M  V30 25 C -2.8651 -3.6981 3.7148 0
M  V30 26 C 0.9975 2.3261 2.875 0
M  V30 27 C 2.3409 2.5362 2.2065 0
M  V30 28 O 2.6065 2.4371 1.0187 0
M  V30 29 O 3.3055 2.8636 3.0928 0
M  V30 30 H 3.6181 2.319 -1.9235 0
M  V30 31 H 2.6085 1.1848 -5.9585 0
M  V30 32 H 1.9858 0.7053 -1.0478 0
M  V30 33 H 0.9498 -0.436 -5.0888 0
M  V30 34 H -0.2702 -3.6331 -1.4174 0
M  V30 35 H -0.1466 2.3667 -1.38 0
M  V30 36 H -1.9064 2.3201 -1.5153 0
M  V30 37 H -0.943 1.5735 -2.7692 0
M  V30 38 H -2.4825 -1.48 2.4913 0
M  V30 39 H -1.1072 -5.0081 0.4481 0
M  V30 40 H -2.4117 2.2078 0.7475 0
M  V30 41 H -3.0746 0.902 1.7183 0
M  V30 42 H -2.1827 -3.0333 4.2548 0
M  V30 43 H -3.1134 -4.5309 4.3798 0
M  V30 44 H -3.7988 -3.1858 3.4604 0
M  V30 45 H 1.0941 1.4843 3.5693 0
M  V30 46 H 0.7211 3.247 3.3986 0
M  V30 47 H 4.1146 2.9651 2.5481 0
M  V30 END ATOM
M  V30 BEGIN BOND
M  V30 1 1 1 2
M  V30 2 2 2 3
M  V30 3 1 2 4
M  V30 4 1 3 5
M  V30 5 2 4 6
M  V30 6 2 5 7
M  V30 7 1 7 8
M  V30 8 2 8 9
M  V30 9 1 8 10
M  V30 10 1 10 11
M  V30 11 1 10 12
M  V30 12 2 11 13
M  V30 13 1 11 14
M  V30 14 2 12 15
M  V30 15 1 12 16
M  V30 16 1 13 17
M  V30 17 2 14 18
M  V30 18 1 15 19
M  V30 19 2 17 20
M  V30 20 1 19 21
M  V30 21 1 20 22
M  V30 22 2 21 23
M  V30 23 1 21 24
M  V30 24 1 22 25
M  V30 25 1 24 26
M  V30 26 1 26 27
M  V30 27 2 27 28
M  V30 28 1 27 29
M  V30 29 1 6 7
M  V30 30 1 13 15
M  V30 31 1 18 20
M  V30 32 1 3 30
M  V30 33 1 4 31
M  V30 34 1 5 32
M  V30 35 1 6 33
M  V30 36 1 14 34
M  V30 37 1 16 35
M  V30 38 1 16 36
M  V30 39 1 16 37
M  V30 40 1 17 38
M  V30 41 1 18 39
M  V30 42 1 19 40
M  V30 43 1 19 41
M  V30 44 1 25 42
M  V30 45 1 25 43
M  V30 46 1 25 44
M  V30 47 1 26 45
M  V30 48 1 26 46
M  V30 49 1 29 47
M  V30 END BOND
M  V30 END CTAB
M  END
>  <Column 1>
3146

>  <level_0>
5300

>  <index>
5301

>  <Unnamed: 0>
5301

>  <NO.>
5313

>  <Name>
acemetacin

>  <IUPAC_name>
2-[2-[1-(4-chlorobenzoyl)-5-methoxy-2-methylindol-3-yl]acetyl]oxyacetic acid

>  <SMILES>
COc1ccc2c(c1)c(CC(=O)OCC(=O)O)c(C)n2C(=O)c1ccc(Cl)cc1

>  <CID>
1981

>  <logBB>


>  <BBB+/BBB->
BBB-

>  <Inchi>
InChI=1S/C21H18ClNO6/c1-12-16(10-20(26)29-11-19(24)25)17-9-15(28-2)7-8-18(17)23(12)21(27)13-3-5-14(22)6-4-13/h3-9H-10-11H2-1-2H3-(H-24-25)

>  <threshold>


>  <reference>
R14|

>  <group>
C

>  <Class>
-1

>  <ABC>
22.29

>  <ABCGG>
18.19

>  <nAcid>
1

>  <nBase>
0

>  <nAromAtom>
15

>  <nAromBond>
16

>  <nAtom>
47

>  <nHeavyAtom>
29

>  <nSpiro>
0

>  <nBridgehead>
0

>  <nHetero>
8

>  <nN>
1

>  <nO>
6

>  <nF>
0

>  <BalabanJ>
1.71

>  <BertzCT>
1100.55

>  <nBonds>
49

>  <nBondsO>
31

>  <nBondsS>
30

>  <nBondsD>
3

>  <nBondsT>
0

>  <nBondsA>
16

>  <nBondsM>
19

>  <nBondsKS>
39

>  <nBondsKD>
10

>  <RNCG>
0.18

>  <RPCG>
0.12

>  <FCSP3>
0.19

>  <SZ>
36

>  <Sm>
34.62

>  <Sv>
32.01

>  <Sse>
48.4

>  <Sp>
33.03

>  <Si>
52.44

>  <MZ>
0.77

>  <Mm>
0.74

>  <Mv>
0.68

>  <Mse>
1.03

>  <Mp>
0.7

>  <Mi>
1.12

>  <NsCH3>
2

>  <NdCH2>
0

>  <NssCH2>
2

>  <NtCH>
0

>  <NdsCH>
0

>  <NaaCH>
7

>  <NsssCH>
0

>  <NddC>
0

>  <NtsC>
0

>  <NdssC>
3

>  <NaasC>
5

>  <NaaaC>
2

>  <NssssC>
0

>  <NsNH3>
0

>  <NsNH2>
0

>  <NssNH2>
0

>  <NdNH>
0

>  <NssNH>
0

>  <NaaNH>
0

>  <NtN>
0

>  <NsssNH>
0

>  <NdsN>
0

>  <NaaN>
0

>  <NsssN>
0

>  <NddsN>
0

>  <NaasN>
1

>  <NssssN>
0

>  <NsOH>
1

>  <NdO>
3

>  <NssO>
2

>  <NaaO>
0

>  <NsF>
0

>  <NsSiH3>
0

>  <NssSiH2>
0

>  <NsssSiH>
0

>  <NssssSi>
0

>  <NsPH2>
0

>  <NssPH>
0

>  <NsssP>
0

>  <NdsssP>
0

>  <NsssssP>
0

>  <NsSH>
0

>  <NdS>
0

>  <NssS>
0

>  <NaaS>
0

>  <NdssS>
0

>  <NddssS>
0

>  <NsCl>
1

>  <NsBr>
0

>  <NsI>
0

>  <fragCpx>
149.08

>  <fMF>
0.34

>  <nHBAcc>
6

>  <nHBDon>
1

>  <Kier1>
23.66

>  <Kier2>
10.54

>  <Lipinski>
1

>  <GhoseFilter>
1

>  <FilterItLogS>
-4.78

>  <VMcGowan>
288.61

>  <LabuteASA>
170.95

>  <PEOE_VSA1>
14.58

>  <PEOE_VSA2>
14.16

>  <PEOE_VSA3>
4.79

>  <PEOE_VSA4>
0

>  <PEOE_VSA5>
0

>  <PEOE_VSA6>
11.6

>  <PEOE_VSA7>
54.95

>  <PEOE_VSA8>
21.67

>  <PEOE_VSA9>
19.05

>  <PEOE_VSA10>
5.75

>  <PEOE_VSA11>
6.61

>  <PEOE_VSA12>
0

>  <PEOE_VSA13>
5.91

>  <SMR_VSA1>
28.96

>  <SMR_VSA2>
0

>  <SMR_VSA3>
4.57

>  <SMR_VSA4>
0

>  <SMR_VSA5>
13.34

>  <SMR_VSA6>
13.72

>  <SMR_VSA7>
64.31

>  <SMR_VSA8>
0

>  <SMR_VSA9>
5.75

>  <SlogP_VSA1>
4.74

>  <SlogP_VSA2>
41.24

>  <SlogP_VSA3>
20.75

>  <SlogP_VSA4>
6.92

>  <SlogP_VSA5>
21.62

>  <SlogP_VSA6>
42.46

>  <SlogP_VSA7>
5.02

>  <SlogP_VSA8>
10.9

>  <SlogP_VSA9>
0

>  <SlogP_VSA10>
0

>  <SlogP_VSA11>
5.75

>  <EState_VSA1>
18.55

>  <EState_VSA2>
12.33

>  <EState_VSA3>
38.5

>  <EState_VSA4>
0

>  <EState_VSA5>
11.68

>  <EState_VSA6>
49.39

>  <EState_VSA7>
0

>  <EState_VSA8>
0

>  <EState_VSA9>
26.18

>  <EState_VSA10>
14.38

>  <VSA_EState1>
11.53

>  <VSA_EState2>
35.93

>  <VSA_EState3>
9.86

>  <VSA_EState4>
2.16

>  <VSA_EState5>
-1.65

>  <VSA_EState6>
11.7

>  <VSA_EState7>
-0.18

>  <VSA_EState8>
1

>  <VSA_EState9>
1.52

>  <apol>
55.16

>  <bpol>
26.35

>  <nRing>
3

>  <nHRing>
1

>  <naRing>
3

>  <naHRing>
1

>  <nARing 2>
0

>  <nAHRing 2>
0

>  <nFRing>
1

>  <nFHRing>
1

>  <nFaRing>
1

>  <nFaHRing>
1

>  <nFARing 2>
0

>  <nFAHRing 2>
0

>  <nRot>
6

>  <SLogP>
3.47

>  <SMR>
106.71

>  <TopoPSA(NO)>
94.83

>  <TopoPSA>
94.83

>  <JGI1>
0.21

>  <JGI2>
0.08

>  <JGI3>
0.06

>  <JGI4>
0.05

>  <JGI5>
0.03

>  <Diameter>
14

>  <Radius>
7

>  <TMWC10>
137.26

>  <TSRW10>
79.08

>  <MW>
415.08

>  <AMW>
8.83

>  <WPath>
2238

>  <WPol>
47

>  <Zagreb1>
150

>  <Zagreb2>
177

>  <mZagreb2>
6.44

>  <yes>


>  <nAR-cont>
0.336376

>  <nHA-cont>
0.785905698

>  <MWHBN>
0.343583371

>  <MWHBN-cont>
0.694039435

>  <TPSA-cont>
0.338027714

>  <pka_cont>
0.97

>  <yes.1>


>  <BBB_SCORE>
3.324396279

>  <MMFF94 Energy>
102.25

$$$$
Compound 2538
Actelion Java MolfileCreator 2.0

  0  0  0  0  0  0              0 V3000
M  V30 BEGIN CTAB
M  V30 COUNTS 55 57 0 0 0
M  V30 BEGIN ATOM
M  V30 1 O -1.9852 1.9852 -2.2237 0
M  V30 2 C -1.7372 0.8704 -2.6803 0
M  V30 3 C -0.9699 0.8138 -3.9559 0
M  V30 4 C -2.164 -0.3674 -2.0377 0
M  V30 5 C -1.2249 1.7789 -4.9368 0
M  V30 6 C 0.0237 -0.1478 -4.1719 0
M  V30 7 N -2.426 -0.5057 -0.6804 0
M  V30 8 C -2.4275 -1.6003 -2.6158 0
M  V30 9 C -0.512 1.7638 -6.1378 0
M  V30 10 C 0.7349 -0.1601 -5.3747 0
M  V30 11 C -2.7979 -1.8074 -0.4012 0
M  V30 12 C -2.2827 0.5746 0.2785 0
M  V30 13 C -2.8111 -2.496 -1.5982 0
M  V30 14 C 0.4786 0.7998 -6.3619 0
M  V30 15 C -3.1235 -2.3333 0.965 0
M  V30 16 C 1.2215 0.7648 -7.6651 0
M  V30 17 C -1.8536 -2.573 1.7737 0
M  V30 18 O -0.9089 -3.2484 1.374 0
M  V30 19 N -1.8455 -1.9602 3.0095 0
M  V30 20 C -0.6447 -1.9548 3.8305 0
M  V30 21 C 0.2166 -0.7518 3.4679 0
M  V30 22 O -0.2329 0.3141 3.0553 0
M  V30 23 O 1.5447 -1.0574 3.733 0
M  V30 24 C 2.3894 0.0374 3.5319 0
M  V30 25 C 2.5744 0.9769 4.5559 0
M  V30 26 C 3.0744 0.1211 2.3192 0
M  V30 27 O 1.8681 0.7601 5.7095 0
M  V30 28 C 3.454 2.0366 4.3272 0
M  V30 29 C 3.9462 1.1846 2.106 0
M  V30 30 C 1.9642 1.758 6.7177 0
M  V30 31 C 4.1335 2.1401 3.1062 0
M  V30 32 H -1.9814 2.5426 -4.7681 0
M  V30 33 H 0.2619 -0.8848 -3.4086 0
M  V30 34 H -2.353 -1.8349 -3.6704 0
M  V30 35 H -0.7316 2.5139 -6.8946 0
M  V30 36 H 1.4975 -0.92 -5.5326 0
M  V30 37 H -1.2646 0.9664 0.2112 0
M  V30 38 H -2.4638 0.2159 1.2907 0
M  V30 39 H -3.0215 1.344 0.041 0
M  V30 40 H -3.067 -3.5411 -1.7206 0
M  V30 41 H -3.6439 -3.2954 0.8879 0
M  V30 42 H -3.8043 -1.6501 1.4839 0
M  V30 43 H 0.6888 0.1329 -8.3821 0
M  V30 44 H 1.3211 1.7712 -8.0852 0
M  V30 45 H 2.2333 0.3694 -7.5273 0
M  V30 46 H -2.5939 -1.329 3.2649 0
M  V30 47 H -0.0854 -2.8812 3.6698 0
M  V30 48 H -0.9439 -1.8751 4.8789 0
M  V30 49 H 2.9232 -0.6288 1.5487 0
M  V30 50 H 3.6393 2.7994 5.0758 0
M  V30 51 H 4.479 1.2711 1.1626 0
M  V30 52 H 2.9848 1.8257 7.1084 0
M  V30 53 H 1.3113 1.4614 7.5442 0
M  V30 54 H 1.6149 2.7286 6.35 0
M  V30 55 H 4.8146 2.9709 2.9367 0
M  V30 END ATOM
M  V30 BEGIN BOND
M  V30 1 2 1 2
M  V30 2 1 2 3
M  V30 3 1 2 4
M  V30 4 2 3 5
M  V30 5 1 3 6
M  V30 6 1 4 7
M  V30 7 2 4 8
M  V30 8 1 5 9
M  V30 9 2 6 10
M  V30 10 1 7 11
M  V30 11 1 7 12
M  V30 12 1 8 13
M  V30 13 2 9 14
M  V30 14 1 11 15
M  V30 15 1 14 16
M  V30 16 1 15 17
M  V30 17 2 17 18
M  V30 18 1 17 19
M  V30 19 1 19 20
M  V30 20 1 20 21
M  V30 21 2 21 22
M  V30 22 1 21 23
M  V30 23 1 23 24
M  V30 24 2 24 25
M  V30 25 1 24 26
M  V30 26 1 25 27
M  V30 27 1 25 28
M  V30 28 2 26 29
M  V30 29 1 27 30
M  V30 30 2 28 31
M  V30 31 1 10 14
M  V30 32 2 11 13
M  V30 33 1 29 31
M  V30 34 1 5 32
M  V30 35 1 6 33
M  V30 36 1 8 34
M  V30 37 1 9 35
M  V30 38 1 10 36
M  V30 39 1 12 37
M  V30 40 1 12 38
M  V30 41 1 12 39
M  V30 42 1 13 40
M  V30 43 1 15 41
M  V30 44 1 15 42
M  V30 45 1 16 43
M  V30 46 1 16 44
M  V30 47 1 16 45
M  V30 48 1 19 46
M  V30 49 1 20 47
M  V30 50 1 20 48
M  V30 51 1 26 49
M  V30 52 1 28 50
M  V30 53 1 29 51
M  V30 54 1 30 52
M  V30 55 1 30 53
M  V30 56 1 30 54
M  V30 57 1 31 55
M  V30 END BOND
M  V30 END CTAB
M  END
>  <Column 1>
3148

>  <level_0>
5302

>  <index>
5303

>  <Unnamed: 0>
5303

>  <NO.>
5315

>  <Name>
amtolmetin

>  <IUPAC_name>
(2-methoxyphenyl) 2-[[2-[1-methyl-5-(4-methylbenzoyl)pyrrol-2-yl]acetyl]amino]acetate

>  <SMILES>
COc1ccccc1OC(=O)CNC(=O)Cc1ccc(C(=O)c2ccc(C)cc2)n1C

>  <CID>
65655

>  <logBB>


>  <BBB+/BBB->
BBB-

>  <Inchi>
InChI=1S/C24H24N2O5/c1-16-8-10-17(11-9-16)24(29)19-13-12-18(26(19)2)14-22(27)25-15-23(28)31-21-7-5-4-6-20(21)30-3/h4-13H-14-15H2-1-3H3-(H-25-27)

>  <threshold>


>  <reference>
R14|

>  <group>
C

>  <Class>
-1

>  <ABC>
23.68

>  <ABCGG>
18.86

>  <nAcid>
0

>  <nBase>
0

>  <nAromAtom>
17

>  <nAromBond>
17

>  <nAtom>
55

>  <nHeavyAtom>
31

>  <nSpiro>
0

>  <nBridgehead>
0

>  <nHetero>
7

>  <nN>
2

>  <nO>
5

>  <nF>
0

>  <BalabanJ>
1.37

>  <BertzCT>
1099.41

>  <nBonds>
57

>  <nBondsO>
33

>  <nBondsS>
37

>  <nBondsD>
3

>  <nBondsT>
0

>  <nBondsA>
17

>  <nBondsM>
20

>  <nBondsKS>
46

>  <nBondsKD>
11

>  <RNCG>
0.17

>  <RPCG>
0.11

>  <FCSP3>
0.21

>  <SZ>
37

>  <Sm>
35.01

>  <Sv>
35.59

>  <Sse>
55.63

>  <Sp>
37.3

>  <Si>
61.61

>  <MZ>
0.67

>  <Mm>
0.64

>  <Mv>
0.65

>  <Mse>
1.01

>  <Mp>
0.68

>  <Mi>
1.12

>  <NsCH3>
3

>  <NdCH2>
0

>  <NssCH2>
2

>  <NtCH>
0

>  <NdsCH>
0

>  <NaaCH>
10

>  <NsssCH>
0

>  <NddC>
0

>  <NtsC>
0

>  <NdssC>
3

>  <NaasC>
6

>  <NaaaC>
0

>  <NssssC>
0

>  <NsNH3>
0

>  <NsNH2>
0

>  <NssNH2>
0

>  <NdNH>
0

>  <NssNH>
1

>  <NaaNH>
0

>  <NtN>
0

>  <NsssNH>
0

>  <NdsN>
0

>  <NaaN>
0

>  <NsssN>
0

>  <NddsN>
0

>  <NaasN>
1

>  <NssssN>
0

>  <NsOH>
0

>  <NdO>
3

>  <NssO>
2

>  <NaaO>
0

>  <NsF>
0

>  <NsSiH3>
0

>  <NssSiH2>
0

>  <NsssSiH>
0

>  <NssssSi>
0

>  <NsPH2>
0

>  <NssPH>
0

>  <NsssP>
0

>  <NdsssP>
0

>  <NsssssP>
0

>  <NsSH>
0

>  <NdS>
0

>  <NssS>
0

>  <NaaS>
0

>  <NdssS>
0

>  <NddssS>
0

>  <NsCl>
0

>  <NsBr>
0

>  <NsI>
0

>  <fragCpx>
159.07

>  <fMF>
0.44

>  <nHBAcc>
6

>  <nHBDon>
1

>  <Kier1>
25.62

>  <Kier2>
12.46

>  <Lipinski>
1

>  <GhoseFilter>
1

>  <FilterItLogS>
-5.56

>  <VMcGowan>
318.45

>  <LabuteASA>
180.15

>  <PEOE_VSA1>
19.36

>  <PEOE_VSA2>
9.59

>  <PEOE_VSA3>
4.79

>  <PEOE_VSA4>
0

>  <PEOE_VSA5>
0

>  <PEOE_VSA6>
41.96

>  <PEOE_VSA7>
31.19

>  <PEOE_VSA8>
18.31

>  <PEOE_VSA9>
19.22

>  <PEOE_VSA10>
6.54

>  <PEOE_VSA11>
11.5

>  <PEOE_VSA12>
11.69

>  <PEOE_VSA13>
0

>  <SMR_VSA1>
23.86

>  <SMR_VSA2>
0

>  <SMR_VSA3>
9.88

>  <SMR_VSA4>
7.05

>  <SMR_VSA5>
13.34

>  <SMR_VSA6>
13.65

>  <SMR_VSA7>
83.18

>  <SMR_VSA8>
0

>  <SMR_VSA9>
11.5

>  <SlogP_VSA1>
14.79

>  <SlogP_VSA2>
35.88

>  <SlogP_VSA3>
23.06

>  <SlogP_VSA4>
6.92

>  <SlogP_VSA5>
27.31

>  <SlogP_VSA6>
60.66

>  <SlogP_VSA7>
0

>  <SlogP_VSA8>
0

>  <SlogP_VSA9>
0

>  <SlogP_VSA10>
0

>  <SlogP_VSA11>
11.5

>  <EState_VSA1>
5.97

>  <EState_VSA2>
30.41

>  <EState_VSA3>
22.7

>  <EState_VSA4>
5.56

>  <EState_VSA5>
7.11

>  <EState_VSA6>
60.15

>  <EState_VSA7>
19.06

>  <EState_VSA8>
5.32

>  <EState_VSA9>
9.47

>  <EState_VSA10>
14.38

>  <VSA_EState1>
12.04

>  <VSA_EState2>
37.05

>  <VSA_EState3>
2.54

>  <VSA_EState4>
2.81

>  <VSA_EState5>
-0.37

>  <VSA_EState6>
17.51

>  <VSA_EState7>
0.03

>  <VSA_EState8>
1.68

>  <VSA_EState9>
3.21

>  <apol>
62.29

>  <bpol>
32.43

>  <nRing>
3

>  <nHRing>
1

>  <naRing>
3

>  <naHRing>
1

>  <nARing 2>
0

>  <nAHRing 2>
0

>  <nFRing>
0

>  <nFHRing>
0

>  <nFaRing>
0

>  <nFaHRing>
0

>  <nFARing 2>
0

>  <nFAHRing 2>
0

>  <nRot>
8

>  <SLogP>
2.84

>  <SMR>
115.37

>  <TopoPSA(NO)>
86.63

>  <TopoPSA>
86.63

>  <JGI1>
0.2

>  <JGI2>
0.09

>  <JGI3>
0.05

>  <JGI4>
0.05

>  <JGI5>
0.02

>  <Diameter>
18

>  <Radius>
9

>  <TMWC10>
140.21

>  <TSRW10>
80.38

>  <MW>
420.17

>  <AMW>
7.64

>  <WPath>
3254

>  <WPol>
46

>  <Zagreb1>
156

>  <Zagreb2>
180

>  <mZagreb2>
6.97

>  <yes>


>  <nAR-cont>
0.336376

>  <nHA-cont>
0.702745138

>  <MWHBN>
0.34149592

>  <MWHBN-cont>
0.701684352

>  <TPSA-cont>
0.395268806

>  <pka_cont>
0.97

>  <yes.1>


>  <BBB_SCORE>
3.367185278

>  <MMFF94 Energy>
125.38

$$$$
Compound 2539
Actelion Java MolfileCreator 2.0

  0  0  0  0  0  0              0 V3000
M  V30 BEGIN CTAB
M  V30 COUNTS 56 59 0 0 0
M  V30 BEGIN ATOM
M  V30 1 O 1.4287 1.1111 1.9053 0
M  V30 2 C 1.5105 1.7218 3.1294 0
M  V30 3 C 0.2178 1.2867 1.1565 0
M  V30 4 C 2.7603 1.6696 3.7988 0
M  V30 5 C 0.4439 2.3788 3.7651 0
M  V30 6 C 0.4194 0.5791 -0.1889 0 CFG=1
M  V30 7 C 2.8821 2.2704 5.0532 0
M  V30 8 C 4.044 1.1057 3.479 0
M  V30 9 C 0.6017 2.9706 5.0193 0
M  V30 10 O 0.6285 -0.8281 0.0154 0
M  V30 11 C -0.7416 0.8191 -1.1742 0
M  V30 12 N 4.1758 2.0759 5.4761 0
M  V30 13 C 1.8245 2.928 5.6881 0
M  V30 14 C 4.9017 1.3745 4.5448 0
M  V30 15 C 4.5561 0.39 2.3753 0
M  V30 16 N -2.1087 0.6278 -0.6596 0
M  V30 17 C 6.2402 0.964 4.5673 0
M  V30 18 C 5.8916 -0.0284 2.3793 0
M  V30 19 C -2.4086 -0.7561 -0.2446 0
M  V30 20 C 6.7194 0.2555 3.462 0
M  V30 21 C -2.35 -1.8043 -1.3676 0
M  V30 22 O -3.2249 -1.384 -2.4177 0
M  V30 23 C -3.1951 -2.0929 -3.5921 0
M  V30 24 C -3.8721 -1.5114 -4.6835 0
M  V30 25 C -2.5657 -3.3326 -3.7487 0
M  V30 26 O -4.4635 -0.2942 -4.4469 0
M  V30 27 C -3.8949 -2.1773 -5.9141 0
M  V30 28 C -2.5964 -3.9878 -4.9809 0
M  V30 29 C -5.2124 0.2872 -5.504 0
M  V30 30 C -3.258 -3.4112 -6.0608 0
M  V30 31 H 0.0265 2.3535 0.9925 0
M  V30 32 H -0.6064 0.8197 1.7065 0
M  V30 33 H -0.5369 2.4418 3.3037 0
M  V30 34 H 1.3441 0.9475 -0.6498 0
M  V30 35 H -0.2447 3.4713 5.4848 0
M  V30 36 H 1.2442 -0.8906 0.7712 0
M  V30 37 H -0.6825 1.8644 -1.5018 0
M  V30 38 H -0.5932 0.2091 -2.0725 0
M  V30 39 H 4.5446 2.4059 6.3553 0
M  V30 40 H 1.9422 3.388 6.664 0
M  V30 41 H 3.9186 0.1669 1.5254 0
M  V30 42 H -2.753 0.8337 -1.4314 0
M  V30 43 H 6.8886 1.1849 5.4088 0
M  V30 44 H 6.2829 -0.5791 1.5277 0
M  V30 45 H -1.782 -1.0619 0.5981 0
M  V30 46 H -3.4358 -0.7365 0.1407 0
M  V30 47 H 7.7546 -0.0773 3.4478 0
M  V30 48 H -1.323 -1.9118 -1.7339 0
M  V30 49 H -2.6955 -2.764 -0.9657 0
M  V30 50 H -2.0489 -3.818 -2.9278 0
M  V30 51 H -4.3981 -1.7615 -6.7801 0
M  V30 52 H -2.1045 -4.9503 -5.0953 0
M  V30 53 H -4.569 0.5293 -6.356 0
M  V30 54 H -5.6398 1.2246 -5.1347 0
M  V30 55 H -6.0428 -0.36 -5.8048 0
M  V30 56 H -3.2804 -3.9226 -7.0198 0
M  V30 END ATOM
M  V30 BEGIN BOND
M  V30 1 1 1 2
M  V30 2 1 1 3
M  V30 3 2 2 4
M  V30 4 1 2 5
M  V30 5 1 3 6
M  V30 6 1 4 7
M  V30 7 1 4 8
M  V30 8 2 5 9
M  V30 9 1 6 10
M  V30 10 1 6 11
M  V30 11 1 7 12
M  V30 12 2 7 13
M  V30 13 2 8 14
M  V30 14 1 8 15
M  V30 15 1 11 16
M  V30 16 1 14 17
M  V30 17 2 15 18
M  V30 18 1 16 19
M  V30 19 2 17 20
M  V30 20 1 19 21
M  V30 21 1 21 22
M  V30 22 1 22 23
M  V30 23 2 23 24
M  V30 24 1 23 25
M  V30 25 1 24 26
M  V30 26 1 24 27
M  V30 27 2 25 28
M  V30 28 1 26 29
M  V30 29 2 27 30
M  V30 30 1 9 13
M  V30 31 1 12 14
M  V30 32 1 18 20
M  V30 33 1 28 30
M  V30 34 1 3 31
M  V30 35 1 3 32
M  V30 36 1 5 33
M  V30 37 1 6 34
M  V30 38 1 9 35
M  V30 39 1 10 36
M  V30 40 1 11 37
M  V30 41 1 11 38
M  V30 42 1 12 39
M  V30 43 1 13 40
M  V30 44 1 15 41
M  V30 45 1 16 42
M  V30 46 1 17 43
M  V30 47 1 18 44
M  V30 48 1 19 45
M  V30 49 1 19 46
M  V30 50 1 20 47
M  V30 51 1 21 48
M  V30 52 1 21 49
M  V30 53 1 25 50
M  V30 54 1 27 51
M  V30 55 1 28 52
M  V30 56 1 29 53
M  V30 57 1 29 54
M  V30 58 1 29 55
M  V30 59 1 30 56
M  V30 END BOND
M  V30 BEGIN COLLECTION
M  V30 MDLV30/STERAC1 ATOMS=(1 6)
M  V30 END COLLECTION
M  V30 END CTAB
M  END
>  <Column 1>
3149

>  <level_0>
5303

>  <index>
5304

>  <Unnamed: 0>
5304

>  <NO.>
5316

>  <Name>
carvedilol

>  <IUPAC_name>
1-(9h-carbazol-4-yloxy)-3-[2-(2-methoxyphenoxy)ethylamino]propan-2-ol

>  <SMILES>
COc1ccccc1OCCNCC(O)COc1cccc2[nH]c3ccccc3c12

>  <CID>
2585

>  <logBB>


>  <BBB+/BBB->
BBB-

>  <Inchi>
InChI=1S/C24H26N2O4/c1-28-21-10-4-5-11-22(21)29-14-13-25-15-17(27)16-30-23-12-6-9-20-24(23)18-7-2-3-8-19(18)26-20/h2-12-17-25-27H-13-16H2-1H3

>  <threshold>


>  <reference>
R14|

>  <group>
C

>  <Class>
-1

>  <ABC>
23.24

>  <ABCGG>
17.17

>  <nAcid>
0

>  <nBase>
1

>  <nAromAtom>
19

>  <nAromBond>
21

>  <nAtom>
56

>  <nHeavyAtom>
30

>  <nSpiro>
0

>  <nBridgehead>
0

>  <nHetero>
6

>  <nN>
2

>  <nO>
4

>  <nF>
0

>  <BalabanJ>
1.11

>  <BertzCT>
1108.72

>  <nBonds>
59

>  <nBondsO>
33

>  <nBondsS>
38

>  <nBondsD>
0

>  <nBondsT>
0

>  <nBondsA>
21

>  <nBondsM>
21

>  <nBondsKS>
50

>  <nBondsKD>
9

>  <RNCG>
0.16

>  <RPCG>
0.07

>  <FCSP3>
0.25

>  <SZ>
36

>  <Sm>
33.84

>  <Sv>
35.42

>  <Sse>
56.19

>  <Sp>
37.62

>  <Si>
62.82

>  <MZ>
0.64

>  <Mm>
0.6

>  <Mv>
0.63

>  <Mse>
1

>  <Mp>
0.67

>  <Mi>
1.12

>  <NsCH3>
1

>  <NdCH2>
0

>  <NssCH2>
4

>  <NtCH>
0

>  <NdsCH>
0

>  <NaaCH>
11

>  <NsssCH>
1

>  <NddC>
0

>  <NtsC>
0

>  <NdssC>
0

>  <NaasC>
3

>  <NaaaC>
4

>  <NssssC>
0

>  <NsNH3>
0

>  <NsNH2>
0

>  <NssNH2>
0

>  <NdNH>
0

>  <NssNH>
1

>  <NaaNH>
1

>  <NtN>
0

>  <NsssNH>
0

>  <NdsN>
0

>  <NaaN>
0

>  <NsssN>
0

>  <NddsN>
0

>  <NaasN>
0

>  <NssssN>
0

>  <NsOH>
1

>  <NdO>
0

>  <NssO>
3

>  <NaaO>
0

>  <NsF>
0

>  <NsSiH3>
0

>  <NssSiH2>
0

>  <NsssSiH>
0

>  <NssssSi>
0

>  <NsPH2>
0

>  <NssPH>
0

>  <NsssP>
0

>  <NdsssP>
0

>  <NsssssP>
0

>  <NsSH>
0

>  <NdS>
0

>  <NssS>
0

>  <NaaS>
0

>  <NdssS>
0

>  <NddssS>
0

>  <NsCl>
0

>  <NsBr>
0

>  <NsI>
0

>  <fragCpx>
219.06

>  <fMF>
0.48

>  <nHBAcc>
5

>  <nHBDon>
3

>  <Kier1>
23.17

>  <Kier2>
11.74

>  <Lipinski>
1

>  <GhoseFilter>
1

>  <FilterItLogS>
-6.48

>  <VMcGowan>
310.32

>  <LabuteASA>
174.94

>  <PEOE_VSA1>
29.62

>  <PEOE_VSA2>
0

>  <PEOE_VSA3>
0

>  <PEOE_VSA4>
0

>  <PEOE_VSA5>
0

>  <PEOE_VSA6>
36.4

>  <PEOE_VSA7>
30.33

>  <PEOE_VSA8>
29.38

>  <PEOE_VSA9>
12.63

>  <PEOE_VSA10>
25.07

>  <PEOE_VSA11>
11.5

>  <PEOE_VSA12>
0

>  <PEOE_VSA13>
0

>  <SMR_VSA1>
19.32

>  <SMR_VSA2>
0

>  <SMR_VSA3>
10.3

>  <SMR_VSA4>
0

>  <SMR_VSA5>
6.1

>  <SMR_VSA6>
33.41

>  <SMR_VSA7>
66.73

>  <SMR_VSA8>
0

>  <SMR_VSA9>
17.25

>  <SlogP_VSA1>
19.53

>  <SlogP_VSA2>
49.61

>  <SlogP_VSA3>
0

>  <SlogP_VSA4>
0

>  <SlogP_VSA5>
0

>  <SlogP_VSA6>
66.73

>  <SlogP_VSA7>
0

>  <SlogP_VSA8>
21.81

>  <SlogP_VSA9>
0

>  <SlogP_VSA10>
0

>  <SlogP_VSA11>
17.25

>  <EState_VSA1>
6.1

>  <EState_VSA2>
6.61

>  <EState_VSA3>
31.2

>  <EState_VSA4>
27.56

>  <EState_VSA5>
0

>  <EState_VSA6>
7.11

>  <EState_VSA7>
60.66

>  <EState_VSA8>
16.37

>  <EState_VSA9>
14.21

>  <EState_VSA10>
5.11

>  <VSA_EState1>
16.92

>  <VSA_EState2>
3.4

>  <VSA_EState3>
15.63

>  <VSA_EState4>
2.09

>  <VSA_EState5>
2.18

>  <VSA_EState6>
21.58

>  <VSA_EState7>
-0.63

>  <VSA_EState8>
1.7

>  <VSA_EState9>
1.62

>  <apol>
62.82

>  <bpol>
32.43

>  <nRing>
4

>  <nHRing>
1

>  <naRing>
4

>  <naHRing>
1

>  <nARing 2>
0

>  <nAHRing 2>
0

>  <nFRing>
1

>  <nFHRing>
1

>  <nFaRing>
1

>  <nFaHRing>
1

>  <nFARing 2>
0

>  <nFAHRing 2>
0

>  <nRot>
10

>  <SLogP>
3.74

>  <SMR>
118.67

>  <TopoPSA(NO)>
75.74

>  <TopoPSA>
75.74

>  <JGI1>
0.12

>  <JGI2>
0.07

>  <JGI3>
0.04

>  <JGI4>
0.03

>  <JGI5>
0.02

>  <Diameter>
17

>  <Radius>
9

>  <TMWC10>
139.66

>  <TSRW10>
79.8

>  <MW>
406.19

>  <AMW>
7.25

>  <WPath>
3062

>  <WPol>
45

>  <Zagreb1>
154

>  <Zagreb2>
180

>  <mZagreb2>
6.81

>  <yes>


>  <nAR-cont>
0.336376

>  <nHA-cont>
0.74523694

>  <MWHBN>
0.396940464

>  <MWHBN-cont>
0.488109142

>  <TPSA-cont>
0.471287768

>  <pka_cont>
0.97

>  <yes.1>


>  <BBB_SCORE>
3.241352189

>  <MMFF94 Energy>
133.69

$$$$
Compound 2540
Actelion Java MolfileCreator 2.0

  0  0  0  0  0  0              0 V3000
M  V30 BEGIN CTAB
M  V30 COUNTS 68 71 0 0 0
M  V30 BEGIN ATOM
M  V30 1 S 0.7236 0.2411 3.3802 0
M  V30 2 O 1.9219 -0.2258 4.0507 0
M  V30 3 O -0.3656 0.8106 4.1423 0
M  V30 4 N 1.2423 1.3186 2.1958 0
M  V30 5 C 0.0856 -1.1273 2.4401 0
M  V30 6 C 0.3666 1.5553 1.1029 0
M  V30 7 C -1.2887 -1.2649 2.2599 0
M  V30 8 C 0.9694 -2.0496 1.8825 0
M  V30 9 N -0.7897 2.1449 1.4258 0
M  V30 10 C 0.6904 1.1346 -0.1713 0
M  V30 11 C -1.7757 -2.3183 1.4834 0
M  V30 12 C 0.4715 -3.1015 1.1073 0
M  V30 13 C -1.6901 2.3131 0.4336 0
M  V30 14 O 1.8506 0.4709 -0.4657 0
M  V30 15 C -0.3043 1.3147 -1.1053 0
M  V30 16 C -0.9088 -3.2563 0.884 0
M  V30 17 N -1.4853 1.8986 -0.8367 0
M  V30 18 C -2.9935 2.9672 0.7576 0
M  V30 19 C 2.9451 1.2803 -0.7051 0
M  V30 20 O -0.0796 0.8254 -2.3768 0
M  V30 21 C -1.4862 -4.3925 0.0202 0
M  V30 22 N -3.2096 3.3753 2.0296 0
M  V30 23 N -3.9023 3.117 -0.238 0
M  V30 24 C 4.0233 1.24 0.1955 0
M  V30 25 C 3.0159 2.0534 -1.8674 0
M  V30 26 C -1.025 1.2953 -3.3454 0
M  V30 27 C -2.4467 -5.2547 0.8672 0
M  V30 28 C -2.26 -3.7906 -1.1729 0
M  V30 29 C -0.4146 -5.3412 -0.5625 0
M  V30 30 C -4.3925 3.9566 2.2952 0
M  V30 31 C -5.0676 3.707 0.0864 0
M  V30 32 O 3.8518 0.4376 1.2954 0
M  V30 33 C 5.151 2.0227 -0.0609 0
M  V30 34 C 4.1477 2.8274 -2.1143 0
M  V30 35 C -0.5585 0.8372 -4.7245 0
M  V30 36 C -5.3698 4.1506 1.3507 0
M  V30 37 C 4.9646 0.2901 2.1727 0
M  V30 38 C 5.2096 2.8156 -1.2115 0
M  V30 39 O 0.6077 1.5626 -5.1156 0
M  V30 40 H 2.2028 1.0913 1.9331 0
M  V30 41 H -1.9826 -0.552 2.7019 0
M  V30 42 H 2.0426 -1.9519 2.031 0
M  V30 43 H -2.853 -2.3941 1.3474 0
M  V30 44 H 1.1956 -3.7907 0.681 0
M  V30 45 H 2.2078 2.0495 -2.5941 0
M  V30 46 H -1.074 2.3911 -3.3252 0
M  V30 47 H -2.0094 0.8603 -3.1374 0
M  V30 48 H -3.3072 -4.6824 1.2307 0
M  V30 49 H -2.8441 -6.0931 0.2833 0
M  V30 50 H -1.9347 -5.6708 1.7429 0
M  V30 51 H -1.612 -3.1456 -1.7783 0
M  V30 52 H -2.6525 -4.5778 -1.827 0
M  V30 53 H -3.1152 -3.1866 -0.8502 0
M  V30 54 H 0.1597 -5.8358 0.2292 0
M  V30 55 H 0.2881 -4.8061 -1.2117 0
M  V30 56 H -0.8742 -6.1314 -1.1684 0
M  V30 57 H -4.5318 4.2706 3.3258 0
M  V30 58 H -5.7751 3.8151 -0.7305 0
M  V30 59 H 6.001 2.0439 0.6131 0
M  V30 60 H 4.2028 3.4339 -3.0152 0
M  V30 61 H -0.3065 -0.2279 -4.7148 0
M  V30 62 H -1.3367 1.0237 -5.4703 0
M  V30 63 H -6.3135 4.6213 1.5872 0
M  V30 64 H 5.8364 -0.1081 1.6436 0
M  V30 65 H 4.6861 -0.4317 2.9461 0
M  V30 66 H 5.1985 1.2377 2.6684 0
M  V30 67 H 6.0909 3.4224 -1.4064 0
M  V30 68 H 0.9111 1.1764 -5.955 0
M  V30 END ATOM
M  V30 BEGIN BOND
M  V30 1 2 1 2
M  V30 2 2 1 3
M  V30 3 1 1 4
M  V30 4 1 1 5
M  V30 5 1 4 6
M  V30 6 2 5 7
M  V30 7 1 5 8
M  V30 8 2 6 9
M  V30 9 1 6 10
M  V30 10 1 7 11
M  V30 11 2 8 12
M  V30 12 1 9 13
M  V30 13 1 10 14
M  V30 14 2 10 15
M  V30 15 2 11 16
M  V30 16 2 13 17
M  V30 17 1 13 18
M  V30 18 1 14 19
M  V30 19 1 15 20
M  V30 20 1 16 21
M  V30 21 2 18 22
M  V30 22 1 18 23
M  V30 23 2 19 24
M  V30 24 1 19 25
M  V30 25 1 20 26
M  V30 26 1 21 27
M  V30 27 1 21 28
M  V30 28 1 21 29
M  V30 29 1 22 30
M  V30 30 2 23 31
M  V30 31 1 24 32
M  V30 32 1 24 33
M  V30 33 2 25 34
M  V30 34 1 26 35
M  V30 35 2 30 36
M  V30 36 1 32 37
M  V30 37 2 33 38
M  V30 38 1 35 39
M  V30 39 1 12 16
M  V30 40 1 15 17
M  V30 41 1 31 36
M  V30 42 1 34 38
M  V30 43 1 4 40
M  V30 44 1 7 41
M  V30 45 1 8 42
M  V30 46 1 11 43
M  V30 47 1 12 44
M  V30 48 1 25 45
M  V30 49 1 26 46
M  V30 50 1 26 47
M  V30 51 1 27 48
M  V30 52 1 27 49
M  V30 53 1 27 50
M  V30 54 1 28 51
M  V30 55 1 28 52
M  V30 56 1 28 53
M  V30 57 1 29 54
M  V30 58 1 29 55
M  V30 59 1 29 56
M  V30 60 1 30 57
M  V30 61 1 31 58
M  V30 62 1 33 59
M  V30 63 1 34 60
M  V30 64 1 35 61
M  V30 65 1 35 62
M  V30 66 1 36 63
M  V30 67 1 37 64
M  V30 68 1 37 65
M  V30 69 1 37 66
M  V30 70 1 38 67
M  V30 71 1 39 68
M  V30 END BOND
M  V30 END CTAB
M  END
>  <Column 1>
3150

>  <level_0>
5304

>  <index>
5305

>  <Unnamed: 0>
5305

>  <NO.>
5317

>  <Name>
bosentan

>  <IUPAC_name>
4-tert-butyl-n-[6-(2-hydroxyethoxy)-5-(2-methoxyphenoxy)-2-pyrimidin-2-ylpyrimidin-4-yl]benzenesulfonamide

>  <SMILES>
COc1ccccc1Oc1c(NS(=O)(=O)c2ccc(C(C)(C)C)cc2)nc(-c2ncccn2)nc1OCCO

>  <CID>
104865

>  <logBB>


>  <BBB+/BBB->
BBB-

>  <Inchi>
InChI=1S/C27H29N5O6S/c1-27(2-3)18-10-12-19(13-11-18)39(34-35)32-23-22(38-21-9-6-5-8-20(21)36-4)26(37-17-16-33)31-25(30-23)24-28-14-7-15-29-24/h5-15-33H-16-17H2-1-4H3-(H-30-31-32)

>  <threshold>


>  <reference>
R14|R23|

>  <group>
C

>  <Class>
-1

>  <ABC>
30.21

>  <ABCGG>
23.4

>  <nAcid>
0

>  <nBase>
0

>  <nAromAtom>
24

>  <nAromBond>
24

>  <nAtom>
68

>  <nHeavyAtom>
39

>  <nSpiro>
0

>  <nBridgehead>
0

>  <nHetero>
12

>  <nN>
5

>  <nO>
6

>  <nF>
0

>  <BalabanJ>
1.53

>  <BertzCT>
1525.05

>  <nBonds>
71

>  <nBondsO>
42

>  <nBondsS>
45

>  <nBondsD>
2

>  <nBondsT>
0

>  <nBondsA>
24

>  <nBondsM>
26

>  <nBondsKS>
57

>  <nBondsKD>
14

>  <RNCG>
0.13

>  <RPCG>
0.07

>  <FCSP3>
0.26

>  <SZ>
48.33

>  <Sm>
45.93

>  <Sv>
44.12

>  <Sse>
69.25

>  <Sp>
46.49

>  <Si>
76.65

>  <MZ>
0.71

>  <Mm>
0.68

>  <Mv>
0.65

>  <Mse>
1.02

>  <Mp>
0.68

>  <Mi>
1.13

>  <NsCH3>
4

>  <NdCH2>
0

>  <NssCH2>
2

>  <NtCH>
0

>  <NdsCH>
0

>  <NaaCH>
11

>  <NsssCH>
0

>  <NddC>
0

>  <NtsC>
0

>  <NdssC>
0

>  <NaasC>
9

>  <NaaaC>
0

>  <NssssC>
1

>  <NsNH3>
0

>  <NsNH2>
0

>  <NssNH2>
0

>  <NdNH>
0

>  <NssNH>
1

>  <NaaNH>
0

>  <NtN>
0

>  <NsssNH>
0

>  <NdsN>
0

>  <NaaN>
4

>  <NsssN>
0

>  <NddsN>
0

>  <NaasN>
0

>  <NssssN>
0

>  <NsOH>
1

>  <NdO>
2

>  <NssO>
3

>  <NaaO>
0

>  <NsF>
0

>  <NsSiH3>
0

>  <NssSiH2>
0

>  <NsssSiH>
0

>  <NssssSi>
0

>  <NsPH2>
0

>  <NssPH>
0

>  <NsssP>
0

>  <NdsssP>
0

>  <NsssssP>
0

>  <NsSH>
0

>  <NdS>
0

>  <NssS>
0

>  <NaaS>
0

>  <NdssS>
0

>  <NddssS>
1

>  <NsCl>
0

>  <NsBr>
0

>  <NsI>
0

>  <fragCpx>
282.12

>  <fMF>
0.4

>  <nHBAcc>
10

>  <nHBDon>
2

>  <Kier1>
31.93

>  <Kier2>
14.45

>  <Lipinski>
0

>  <GhoseFilter>
0

>  <FilterItLogS>
-7.58

>  <VMcGowan>
397.72

>  <LabuteASA>
226.48

>  <PEOE_VSA1>
19.32

>  <PEOE_VSA2>
4.72

>  <PEOE_VSA3>
23.37

>  <PEOE_VSA4>
4.98

>  <PEOE_VSA5>
0

>  <PEOE_VSA6>
45.04

>  <PEOE_VSA7>
41.31

>  <PEOE_VSA8>
12.39

>  <PEOE_VSA9>
18.61

>  <PEOE_VSA10>
6.61

>  <PEOE_VSA11>
23.14

>  <PEOE_VSA12>
11.57

>  <PEOE_VSA13>
15.9

>  <SMR_VSA1>
27.73

>  <SMR_VSA2>
0

>  <SMR_VSA3>
19.94

>  <SMR_VSA4>
0

>  <SMR_VSA5>
31.08

>  <SMR_VSA6>
25.05

>  <SMR_VSA7>
72.55

>  <SMR_VSA8>
0

>  <SMR_VSA9>
34.78

>  <SlogP_VSA1>
18.93

>  <SlogP_VSA2>
53.78

>  <SlogP_VSA3>
15.44

>  <SlogP_VSA4>
0

>  <SlogP_VSA5>
26.33

>  <SlogP_VSA6>
71.89

>  <SlogP_VSA7>
0

>  <SlogP_VSA8>
11.65

>  <SlogP_VSA9>
0

>  <SlogP_VSA10>
5.82

>  <SlogP_VSA11>
23.13

>  <EState_VSA1>
10.02

>  <EState_VSA2>
58.37

>  <EState_VSA3>
5.75

>  <EState_VSA4>
5.56

>  <EState_VSA5>
31.64

>  <EState_VSA6>
42.46

>  <EState_VSA7>
20.77

>  <EState_VSA8>
24.66

>  <EState_VSA9>
14.21

>  <EState_VSA10>
13.52

>  <VSA_EState1>
46.6

>  <VSA_EState2>
17.1

>  <VSA_EState3>
9.4

>  <VSA_EState4>
0.83

>  <VSA_EState5>
0.27

>  <VSA_EState6>
14.98

>  <VSA_EState7>
3

>  <VSA_EState8>
5.65

>  <VSA_EState9>
-2.66

>  <apol>
77.64

>  <bpol>
46.09

>  <nRing>
4

>  <nHRing>
2

>  <naRing>
4

>  <naHRing>
2

>  <nARing 2>
0

>  <nAHRing 2>
0

>  <nFRing>
0

>  <nFHRing>
0

>  <nFaRing>
0

>  <nFaHRing>
0

>  <nFARing 2>
0

>  <nFAHRing 2>
0

>  <nRot>
10

>  <SLogP>
4.2

>  <SMR>
144.66

>  <TopoPSA(NO)>
145.65

>  <TopoPSA>
154.03

>  <JGI1>
0.23

>  <JGI2>
0.09

>  <JGI3>
0.04

>  <JGI4>
0.04

>  <JGI5>
0.03

>  <Diameter>
14

>  <Radius>
7

>  <TMWC10>
160.49

>  <TSRW10>
76.11

>  <MW>
551.18

>  <AMW>
8.11

>  <WPath>
4854

>  <WPol>
64

>  <Zagreb1>
204

>  <Zagreb2>
238

>  <mZagreb2>
8.57

>  <yes>


>  <nAR-cont>
0.336376

>  <nHA-cont>
0.348277641

>  <MWHBN>
0.511133706

>  <MWHBN-cont>
0

>  <TPSA-cont>
0

>  <pka_cont>
0.97

>  <yes.1>


>  <BBB_SCORE>
1.169653641

>  <MMFF94 Energy>
64.691

$$$$
Compound 2541
Actelion Java MolfileCreator 2.0

  0  0  0  0  0  0              0 V3000
M  V30 BEGIN CTAB
M  V30 COUNTS 31 32 0 0 0
M  V30 BEGIN ATOM
M  V30 1 S -1.1281 -2.4186 0.5639 0
M  V30 2 O -1.0689 -3.8657 0.4878 0
M  V30 3 O -2.3414 -1.766 1.0097 0
M  V30 4 N 0.1498 -1.9623 1.5198 0
M  V30 5 C -0.691 -1.8154 -1.0476 0
M  V30 6 C 0.1616 -0.6601 1.9997 0
M  V30 7 C -1.4178 -0.7754 -1.6284 0
M  V30 8 C 0.3591 -2.4196 -1.7419 0
M  V30 9 N -0.1106 0.3449 1.1668 0
M  V30 10 N 0.6866 -0.5531 3.2228 0
M  V30 11 C -1.0769 -0.3299 -2.9086 0
M  V30 12 C 0.6893 -1.9643 -3.0212 0
M  V30 13 C 0.0778 1.5867 1.6654 0
M  V30 14 C 0.8547 0.7119 3.6672 0
M  V30 15 C -0.0336 -0.9287 -3.6216 0
M  V30 16 C 0.5611 1.8425 2.931 0
M  V30 17 N 0.3232 -0.4568 -4.8717 0
M  V30 18 O 0.7851 3.047 3.5171 0
M  V30 19 C 0.4554 4.1982 2.7466 0
M  V30 20 H 0.4059 -2.6509 2.2172 0
M  V30 21 H -2.2366 -0.3019 -1.092 0
M  V30 22 H 0.9204 -3.2375 -1.297 0
M  V30 23 H -1.6383 0.4906 -3.3474 0
M  V30 24 H 1.516 -2.4313 -3.55 0
M  V30 25 H -0.1807 2.378 0.9699 0
M  V30 26 H 1.2547 0.7964 4.6742 0
M  V30 27 H 1.0215 -0.9425 -5.4176 0
M  V30 28 H -0.2519 0.2305 -5.3388 0
M  V30 29 H 1.0671 4.2527 1.84 0
M  V30 30 H 0.6764 5.0817 3.3533 0
M  V30 31 H -0.6121 4.2172 2.5034 0
M  V30 END ATOM
M  V30 BEGIN BOND
M  V30 1 2 1 2
M  V30 2 2 1 3
M  V30 3 1 1 4
M  V30 4 1 1 5
M  V30 5 1 4 6
M  V30 6 2 5 7
M  V30 7 1 5 8
M  V30 8 2 6 9
M  V30 9 1 6 10
M  V30 10 1 7 11
M  V30 11 2 8 12
M  V30 12 1 9 13
M  V30 13 2 10 14
M  V30 14 2 11 15
M  V30 15 2 13 16
M  V30 16 1 15 17
M  V30 17 1 16 18
M  V30 18 1 18 19
M  V30 19 1 12 15
M  V30 20 1 14 16
M  V30 21 1 4 20
M  V30 22 1 7 21
M  V30 23 1 8 22
M  V30 24 1 11 23
M  V30 25 1 12 24
M  V30 26 1 13 25
M  V30 27 1 14 26
M  V30 28 1 17 27
M  V30 29 1 17 28
M  V30 30 1 19 29
M  V30 31 1 19 30
M  V30 32 1 19 31
M  V30 END BOND
M  V30 END CTAB
M  END
>  <Column 1>
3151

>  <level_0>
5305

>  <index>
5306

>  <Unnamed: 0>
5306

>  <NO.>
5318

>  <Name>
sulfameter

>  <IUPAC_name>
4-amino-n-(5-methoxypyrimidin-2-yl)benzenesulfonamide

>  <SMILES>
COc1cnc(NS(=O)(=O)c2ccc(N)cc2)nc1

>  <CID>
5326

>  <logBB>


>  <BBB+/BBB->
BBB-

>  <Inchi>
InChI=1S/C11H12N4O3S/c1-18-9-6-13-11(14-7-9)15-19(16-17)10-4-2-8(12)3-5-10/h2-7H-12H2-1H3-(H-13-14-15)

>  <threshold>


>  <reference>
R14|R23|

>  <group>
C

>  <Class>
-1

>  <ABC>
14.51

>  <ABCGG>
12.07

>  <nAcid>
0

>  <nBase>
0

>  <nAromAtom>
12

>  <nAromBond>
12

>  <nAtom>
31

>  <nHeavyAtom>
19

>  <nSpiro>
0

>  <nBridgehead>
0

>  <nHetero>
8

>  <nN>
4

>  <nO>
3

>  <nF>
0

>  <BalabanJ>
1.8

>  <BertzCT>
653.34

>  <nBonds>
32

>  <nBondsO>
20

>  <nBondsS>
18

>  <nBondsD>
2

>  <nBondsT>
0

>  <nBondsA>
12

>  <nBondsM>
14

>  <nBondsKS>
24

>  <nBondsKD>
8

>  <RNCG>
0.23

>  <RPCG>
0.12

>  <FCSP3>
0.09

>  <SZ>
24.33

>  <Sm>
23.34

>  <Sv>
20.61

>  <Sse>
32.05

>  <Sp>
21.6

>  <Si>
35.2

>  <MZ>
0.78

>  <Mm>
0.75

>  <Mv>
0.66

>  <Mse>
1.03

>  <Mp>
0.7

>  <Mi>
1.14

>  <NsCH3>
1

>  <NdCH2>
0

>  <NssCH2>
0

>  <NtCH>
0

>  <NdsCH>
0

>  <NaaCH>
6

>  <NsssCH>
0

>  <NddC>
0

>  <NtsC>
0

>  <NdssC>
0

>  <NaasC>
4

>  <NaaaC>
0

>  <NssssC>
0

>  <NsNH3>
0

>  <NsNH2>
1

>  <NssNH2>
0

>  <NdNH>
0

>  <NssNH>
1

>  <NaaNH>
0

>  <NtN>
0

>  <NsssNH>
0

>  <NdsN>
0

>  <NaaN>
2

>  <NsssN>
0

>  <NddsN>
0

>  <NaasN>
0

>  <NssssN>
0

>  <NsOH>
0

>  <NdO>
2

>  <NssO>
1

>  <NaaO>
0

>  <NsF>
0

>  <NsSiH3>
0

>  <NssSiH2>
0

>  <NsssSiH>
0

>  <NssssSi>
0

>  <NsPH2>
0

>  <NssPH>
0

>  <NsssP>
0

>  <NdsssP>
0

>  <NsssssP>
0

>  <NsSH>
0

>  <NdS>
0

>  <NssS>
0

>  <NaaS>
0

>  <NdssS>
0

>  <NddssS>
1

>  <NsCl>
0

>  <NsBr>
0

>  <NsI>
0

>  <fragCpx>
58.08

>  <fMF>
0.45

>  <nHBAcc>
6

>  <nHBDon>
2

>  <Kier1>
15.39

>  <Kier2>
6.64

>  <Lipinski>
1

>  <GhoseFilter>
1

>  <FilterItLogS>
-3

>  <VMcGowan>
192.21

>  <LabuteASA>
110.06

>  <PEOE_VSA1>
10.47

>  <PEOE_VSA2>
0

>  <PEOE_VSA3>
23.11

>  <PEOE_VSA4>
0

>  <PEOE_VSA5>
0

>  <PEOE_VSA6>
0

>  <PEOE_VSA7>
24.27

>  <PEOE_VSA8>
5.69

>  <PEOE_VSA9>
24.4

>  <PEOE_VSA10>
0

>  <PEOE_VSA11>
5.75

>  <PEOE_VSA12>
5.95

>  <PEOE_VSA13>
10.02

>  <SMR_VSA1>
13.15

>  <SMR_VSA2>
0

>  <SMR_VSA3>
9.97

>  <SMR_VSA4>
0

>  <SMR_VSA5>
4.9

>  <SMR_VSA6>
17.57

>  <SMR_VSA7>
36.66

>  <SMR_VSA8>
0

>  <SMR_VSA9>
5.75

>  <SlogP_VSA1>
15.19

>  <SlogP_VSA2>
25.5

>  <SlogP_VSA3>
10.02

>  <SlogP_VSA4>
0

>  <SlogP_VSA5>
0

>  <SlogP_VSA6>
41.55

>  <SlogP_VSA7>
0

>  <SlogP_VSA8>
0

>  <SlogP_VSA9>
0

>  <SlogP_VSA10>
11.64

>  <SlogP_VSA11>
5.75

>  <EState_VSA1>
10.02

>  <EState_VSA2>
10.84

>  <EState_VSA3>
11.44

>  <EState_VSA4>
0

>  <EState_VSA5>
43.77

>  <EState_VSA6>
0

>  <EState_VSA7>
0

>  <EState_VSA8>
14.69

>  <EState_VSA9>
10.47

>  <EState_VSA10>
8.42

>  <VSA_EState1>
31.15

>  <VSA_EState2>
7.74

>  <VSA_EState3>
0

>  <VSA_EState4>
5.99

>  <VSA_EState5>
0.41

>  <VSA_EState6>
5.81

>  <VSA_EState7>
2.74

>  <VSA_EState8>
0

>  <VSA_EState9>
-2.25

>  <apol>
36.08

>  <bpol>
22.71

>  <nRing>
2

>  <nHRing>
1

>  <naRing>
2

>  <naHRing>
1

>  <nARing 2>
0

>  <nAHRing 2>
0

>  <nFRing>
0

>  <nFHRing>
0

>  <nFaRing>
0

>  <nFaHRing>
0

>  <nFARing 2>
0

>  <nFAHRing 2>
0

>  <nRot>
4

>  <SLogP>
0.87

>  <SMR>
70.25

>  <TopoPSA(NO)>
107.2

>  <TopoPSA>
115.58

>  <JGI1>
0.28

>  <JGI2>
0.1

>  <JGI3>
0.05

>  <JGI4>
0.05

>  <JGI5>
0.03

>  <Diameter>
12

>  <Radius>
6

>  <TMWC10>
110.67

>  <TSRW10>
52.19

>  <MW>
280.06

>  <AMW>
9.03

>  <WPath>
758

>  <WPol>
27

>  <Zagreb1>
96

>  <Zagreb2>
109

>  <mZagreb2>
4.21

>  <yes>


>  <nAR-cont>
0.336376

>  <nHA-cont>
0.998649058

>  <MWHBN>
0.478040228

>  <MWHBN-cont>
0

>  <TPSA-cont>
0.193179829

>  <pka_cont>
0.97

>  <yes.1>


>  <BBB_SCORE>
2.206384716

>  <MMFF94 Energy>
-107.06

$$$$
Compound 2542
Actelion Java MolfileCreator 2.0

  0  0  0  0  0  0              0 V3000
M  V30 BEGIN CTAB
M  V30 COUNTS 33 34 0 0 0
M  V30 BEGIN ATOM
M  V30 1 S -0.6512 -3.4224 -0.4883 0
M  V30 2 O -0.8011 -4.7312 0.1131 0
M  V30 3 O -1.6892 -2.8507 -1.3164 0
M  V30 4 N -0.2908 -2.3881 0.8067 0
M  V30 5 C 0.8849 -3.4141 -1.3864 0
M  V30 6 C -1.0256 -1.1601 0.8559 0
M  V30 7 C -0.66 -0.0596 0.065 0
M  V30 8 C -2.1741 -1.0959 1.6506 0
M  V30 9 O 0.4483 -0.1669 -0.7467 0
M  V30 10 C -1.4427 1.1007 0.0585 0
M  V30 11 C -2.9515 0.0661 1.6666 0
M  V30 12 C 1.4061 0.8129 -0.6189 0
M  V30 13 C -2.5835 1.1589 0.8679 0
M  V30 14 C 1.8928 1.3814 -1.7961 0
M  V30 15 C 1.9347 1.1902 0.618 0
M  V30 16 N -3.4079 2.3743 0.8753 0 CHG=1
M  V30 17 C 2.8847 2.3602 -1.7353 0
M  V30 18 C 2.9274 2.1693 0.6752 0
M  V30 19 O -3.08 3.2987 0.1187 0
M  V30 20 O -4.3786 2.4055 1.645 0 CHG=-1
M  V30 21 C 3.3985 2.7562 -0.4999 0
M  V30 22 H -0.3113 -2.9385 1.6677 0
M  V30 23 H 1.0492 -2.4286 -1.821 0
M  V30 24 H 1.6948 -3.6872 -0.7074 0
M  V30 25 H 0.8079 -4.1565 -2.1841 0
M  V30 26 H -2.4856 -1.951 2.2459 0
M  V30 27 H -1.1635 1.936 -0.5797 0
M  V30 28 H -3.845 0.0963 2.2882 0
M  V30 29 H 1.4953 1.0695 -2.758 0
M  V30 30 H 1.5905 0.724 1.5363 0
M  V30 31 H 3.2586 2.8129 -2.6501 0
M  V30 32 H 3.3389 2.4713 1.6351 0
M  V30 33 H 4.1724 3.5188 -0.4535 0
M  V30 END ATOM
M  V30 BEGIN BOND
M  V30 1 2 1 2
M  V30 2 2 1 3
M  V30 3 1 1 4
M  V30 4 1 1 5
M  V30 5 1 4 6
M  V30 6 2 6 7
M  V30 7 1 6 8
M  V30 8 1 7 9
M  V30 9 1 7 10
M  V30 10 2 8 11
M  V30 11 1 9 12
M  V30 12 2 10 13
M  V30 13 2 12 14
M  V30 14 1 12 15
M  V30 15 1 13 16
M  V30 16 1 14 17
M  V30 17 2 15 18
M  V30 18 2 16 19
M  V30 19 1 16 20
M  V30 20 2 17 21
M  V30 21 1 11 13
M  V30 22 1 18 21
M  V30 23 1 4 22
M  V30 24 1 5 23
M  V30 25 1 5 24
M  V30 26 1 5 25
M  V30 27 1 8 26
M  V30 28 1 10 27
M  V30 29 1 11 28
M  V30 30 1 14 29
M  V30 31 1 15 30
M  V30 32 1 17 31
M  V30 33 1 18 32
M  V30 34 1 21 33
M  V30 END BOND
M  V30 END CTAB
M  END
>  <Column 1>
3152

>  <level_0>
5306

>  <index>
5307

>  <Unnamed: 0>
5307

>  <NO.>
5319

>  <Name>
nimesulide

>  <IUPAC_name>
n-(4-nitro-2-phenoxyphenyl)methanesulfonamide

>  <SMILES>
CS(=O)(=O)Nc1ccc([N+](=O)[O-])cc1Oc1ccccc1

>  <CID>
4495

>  <logBB>


>  <BBB+/BBB->
BBB-

>  <Inchi>
InChI=1S/C13H12N2O5S/c1-21(18-19)14-12-8-7-10(15(16)17)9-13(12)20-11-5-3-2-4-6-11/h2-9-14H-1H3

>  <threshold>


>  <reference>
R14|R23|

>  <group>
C

>  <Class>
-1

>  <ABC>
16.17

>  <ABCGG>
13.63

>  <nAcid>
0

>  <nBase>
0

>  <nAromAtom>
12

>  <nAromBond>
12

>  <nAtom>
33

>  <nHeavyAtom>
21

>  <nSpiro>
0

>  <nBridgehead>
0

>  <nHetero>
8

>  <nN>
2

>  <nO>
5

>  <nF>
0

>  <BalabanJ>
1.97

>  <BertzCT>
759.39

>  <nBonds>
34

>  <nBondsO>
22

>  <nBondsS>
19

>  <nBondsD>
3

>  <nBondsT>
0

>  <nBondsA>
12

>  <nBondsM>
15

>  <nBondsKS>
25

>  <nBondsKD>
9

>  <RNCG>
0.24

>  <RPCG>
0.14

>  <FCSP3>
0.08

>  <SZ>
26.67

>  <Sm>
25.67

>  <Sv>
22.53

>  <Sse>
34.38

>  <Sp>
23.25

>  <Si>
37.04

>  <MZ>
0.81

>  <Mm>
0.78

>  <Mv>
0.68

>  <Mse>
1.04

>  <Mp>
0.7

>  <Mi>
1.12

>  <NsCH3>
1

>  <NdCH2>
0

>  <NssCH2>
0

>  <NtCH>
0

>  <NdsCH>
0

>  <NaaCH>
8

>  <NsssCH>
0

>  <NddC>
0

>  <NtsC>
0

>  <NdssC>
0

>  <NaasC>
4

>  <NaaaC>
0

>  <NssssC>
0

>  <NsNH3>
0

>  <NsNH2>
0

>  <NssNH2>
0

>  <NdNH>
0

>  <NssNH>
1

>  <NaaNH>
0

>  <NtN>
0

>  <NsssNH>
0

>  <NdsN>
0

>  <NaaN>
0

>  <NsssN>
0

>  <NddsN>
1

>  <NaasN>
0

>  <NssssN>
0

>  <NsOH>
0

>  <NdO>
3

>  <NssO>
1

>  <NaaO>
0

>  <NsF>
0

>  <NsSiH3>
0

>  <NssSiH2>
0

>  <NsssSiH>
0

>  <NssssSi>
0

>  <NsPH2>
0

>  <NssPH>
0

>  <NsssP>
0

>  <NdsssP>
0

>  <NsssssP>
0

>  <NsSH>
0

>  <NdS>
0

>  <NssS>
0

>  <NaaS>
0

>  <NdssS>
0

>  <NddssS>
1

>  <NsCl>
0

>  <NsBr>
0

>  <NsI>
0

>  <fragCpx>
64.08

>  <fMF>
0.39

>  <nHBAcc>
5

>  <nHBDon>
1

>  <Kier1>
17.36

>  <Kier2>
7.51

>  <Lipinski>
1

>  <GhoseFilter>
1

>  <FilterItLogS>
-3.8

>  <VMcGowan>
207.87

>  <LabuteASA>
120.93

>  <PEOE_VSA1>
4.74

>  <PEOE_VSA2>
14.84

>  <PEOE_VSA3>
8.42

>  <PEOE_VSA4>
0

>  <PEOE_VSA5>
0

>  <PEOE_VSA6>
18.2

>  <PEOE_VSA7>
18.2

>  <PEOE_VSA8>
6.07

>  <PEOE_VSA9>
22.93

>  <PEOE_VSA10>
5.75

>  <PEOE_VSA11>
5.75

>  <PEOE_VSA12>
10.02

>  <PEOE_VSA13>
5.69

>  <SMR_VSA1>
18.08

>  <SMR_VSA2>
0

>  <SMR_VSA3>
0

>  <SMR_VSA4>
0

>  <SMR_VSA5>
0

>  <SMR_VSA6>
10.98

>  <SMR_VSA7>
58.65

>  <SMR_VSA8>
0

>  <SMR_VSA9>
11.5

>  <SlogP_VSA1>
9.46

>  <SlogP_VSA2>
19.6

>  <SlogP_VSA3>
10.02

>  <SlogP_VSA4>
10.11

>  <SlogP_VSA5>
0

>  <SlogP_VSA6>
48.53

>  <SlogP_VSA7>
0

>  <SlogP_VSA8>
0

>  <SlogP_VSA9>
0

>  <SlogP_VSA10>
11.37

>  <SlogP_VSA11>
11.5

>  <EState_VSA1>
14.95

>  <EState_VSA2>
17.12

>  <EState_VSA3>
5.75

>  <EState_VSA4>
6.26

>  <EState_VSA5>
18.2

>  <EState_VSA6>
30.33

>  <EState_VSA7>
0

>  <EState_VSA8>
4.72

>  <EState_VSA9>
4.74

>  <EState_VSA10>
18.53

>  <VSA_EState1>
30.42

>  <VSA_EState2>
10.23

>  <VSA_EState3>
10.81

>  <VSA_EState4>
-0.06

>  <VSA_EState5>
0.5

>  <VSA_EState6>
12.22

>  <VSA_EState7>
0.99

>  <VSA_EState8>
0

>  <VSA_EState9>
-3.52

>  <apol>
38.82

>  <bpol>
22.17

>  <nRing>
2

>  <nHRing>
0

>  <naRing>
2

>  <naHRing>
0

>  <nARing 2>
0

>  <nAHRing 2>
0

>  <nFRing>
0

>  <nFHRing>
0

>  <nFaRing>
0

>  <nFaHRing>
0

>  <nFARing 2>
0

>  <nFAHRing 2>
0

>  <nRot>
5

>  <SLogP>
2.76

>  <SMR>
78.08

>  <TopoPSA(NO)>
98.54

>  <TopoPSA>
106.92

>  <JGI1>
0.27

>  <JGI2>
0.06

>  <JGI3>
0.04

>  <JGI4>
0.05

>  <JGI5>
0.02

>  <Diameter>
9

>  <Radius>
5

>  <TMWC10>
115.41

>  <TSRW10>
54.56

>  <MW>
308.05

>  <AMW>
9.33

>  <WPath>
936

>  <WPol>
28

>  <Zagreb1>
106

>  <Zagreb2>
118

>  <mZagreb2>
4.51

>  <yes>


>  <nAR-cont>
0.336376

>  <nHA-cont>
0.994529749

>  <MWHBN>
0.341853983

>  <MWHBN-cont>
0.700376476

>  <TPSA-cont>
0.253632007

>  <pka_cont>
0.97

>  <yes.1>


>  <BBB_SCORE>
3.373734477

>  <MMFF94 Energy>
23.679

$$$$
Compound 2543
Actelion Java MolfileCreator 2.0

  0  0  0  0  0  0              0 V3000
M  V30 BEGIN CTAB
M  V30 COUNTS 45 47 0 0 0
M  V30 BEGIN ATOM
M  V30 1 O -1.994 0.0 2.3932 0
M  V30 2 C -0.7887 0.222 2.3286 0
M  V30 3 O -0.0905 0.2998 1.1572 0
M  V30 4 C 0.0937 0.5081 3.5548 0
M  V30 5 C -0.8092 -0.0752 -0.0307 0
M  V30 6 O -0.5732 0.1645 4.7685 0
M  V30 7 C 1.4161 -0.2278 3.503 0
M  V30 8 C -1.6423 1.1098 -0.5449 0
M  V30 9 C 0.219 -0.5845 -1.0529 0
M  V30 10 C 2.599 0.4564 3.1815 0
M  V30 11 C 1.4802 -1.6098 3.7433 0
M  V30 12 C -2.0309 0.9677 -2.0238 0
M  V30 13 C -0.3193 -0.5903 -2.4907 0
M  V30 14 C 3.8141 -0.2264 3.1015 0
M  V30 15 C 2.6961 -2.2897 3.6625 0
M  V30 16 N -0.7574 0.8351 -2.8828 0 CHG=1
M  V30 17 C -2.7464 -0.3718 -2.2672 0
M  V30 18 C -1.634 -1.3841 -2.572 0
M  V30 19 C 3.8616 -1.5984 3.3399 0
M  V30 20 C -1.0866 0.9251 -4.389 0
M  V30 21 C 0.2955 1.9198 -2.649 0
M  V30 22 H 0.2585 1.5913 3.5848 0
M  V30 23 H -1.4775 -0.9143 0.2048 0
M  V30 24 H -1.5182 0.3698 4.6419 0
M  V30 25 H -1.1213 2.0568 -0.3631 0
M  V30 26 H -2.5569 1.1863 0.0572 0
M  V30 27 H 1.1515 -0.0122 -0.9852 0
M  V30 28 H 0.511 -1.6047 -0.7695 0
M  V30 29 H 2.5876 1.5292 3.0033 0
M  V30 30 H 0.582 -2.1607 4.0178 0
M  V30 31 H -2.6047 1.8318 -2.3747 0
M  V30 32 H 0.4367 -0.9359 -3.2033 0
M  V30 33 H 4.7284 0.3132 2.8674 0
M  V30 34 H 2.7364 -3.3567 3.8678 0
M  V30 35 H -3.3576 -0.6818 -1.4127 0
M  V30 36 H -3.427 -0.2958 -3.1231 0
M  V30 37 H -1.6544 -2.2336 -1.8811 0
M  V30 38 H -1.7723 -1.7994 -3.5769 0
M  V30 39 H 4.8105 -2.127 3.2914 0
M  V30 40 H -0.1639 0.7409 -4.9472 0
M  V30 41 H -1.4678 1.9306 -4.5912 0
M  V30 42 H -1.8381 0.1842 -4.6644 0
M  V30 43 H 0.6059 1.9503 -1.6052 0
M  V30 44 H -0.1439 2.8828 -2.9257 0
M  V30 45 H 1.1603 1.693 -3.2796 0
M  V30 END ATOM
M  V30 BEGIN BOND
M  V30 1 2 1 2
M  V30 2 1 2 3
M  V30 3 1 2 4
M  V30 4 1 3 5
M  V30 5 1 4 6
M  V30 6 1 4 7
M  V30 7 1 5 8
M  V30 8 1 5 9
M  V30 9 2 7 10
M  V30 10 1 7 11
M  V30 11 1 8 12
M  V30 12 1 9 13
M  V30 13 1 10 14
M  V30 14 2 11 15
M  V30 15 1 12 16
M  V30 16 1 12 17
M  V30 17 1 13 18
M  V30 18 2 14 19
M  V30 19 1 16 20
M  V30 20 1 16 21
M  V30 21 1 13 16
M  V30 22 1 15 19
M  V30 23 1 17 18
M  V30 24 1 4 22
M  V30 25 1 5 23
M  V30 26 1 6 24
M  V30 27 1 8 25
M  V30 28 1 8 26
M  V30 29 1 9 27
M  V30 30 1 9 28
M  V30 31 1 10 29
M  V30 32 1 11 30
M  V30 33 1 12 31
M  V30 34 1 13 32
M  V30 35 1 14 33
M  V30 36 1 15 34
M  V30 37 1 17 35
M  V30 38 1 17 36
M  V30 39 1 18 37
M  V30 40 1 18 38
M  V30 41 1 19 39
M  V30 42 1 20 40
M  V30 43 1 20 41
M  V30 44 1 20 42
M  V30 45 1 21 43
M  V30 46 1 21 44
M  V30 47 1 21 45
M  V30 END BOND
M  V30 END CTAB
M  END
>  <Column 1>
3155

>  <level_0>
5310

>  <index>
5311

>  <Unnamed: 0>
5311

>  <NO.>
5323

>  <Name>
homatropine methylbromide

>  <IUPAC_name>
(8-8-dimethyl-8-azoniabicyclo[3.2.1]octan-3-yl) 2-hydroxy-2-phenylacetate;bromide

>  <SMILES>
C[N+]1(C)C2CCC1CC(OC(=O)C(O)c1ccccc1)C2

>  <CID>
3622

>  <logBB>


>  <BBB+/BBB->
BBB-

>  <Inchi>
InChI=1S/C17H24NO3/c1-18(2)13-8-9-14(18)11-15(10-13)21-17(20)16(19)12-6-4-3-5-7-12/h3-7-13-16-19H-8-11H2-1-2H3/q+1

>  <threshold>


>  <reference>
R14|

>  <group>
C

>  <Class>
-1

>  <ABC>
16.6

>  <ABCGG>
14.04

>  <nAcid>
0

>  <nBase>
1

>  <nAromAtom>
6

>  <nAromBond>
6

>  <nAtom>
45

>  <nHeavyAtom>
21

>  <nSpiro>
0

>  <nBridgehead>
2

>  <nHetero>
4

>  <nN>
1

>  <nO>
3

>  <nF>
0

>  <BalabanJ>
1.52

>  <BertzCT>
498.03

>  <nBonds>
47

>  <nBondsO>
23

>  <nBondsS>
40

>  <nBondsD>
1

>  <nBondsT>
0

>  <nBondsA>
6

>  <nBondsM>
7

>  <nBondsKS>
43

>  <nBondsKD>
4

>  <RNCG>
0.27

>  <RPCG>
0.13

>  <FCSP3>
0.59

>  <SZ>
26.17

>  <Sm>
24.18

>  <Sv>
26.4

>  <Sse>
44.81

>  <Sp>
28.68

>  <Si>
50.9

>  <MZ>
0.58

>  <Mm>
0.54

>  <Mv>
0.59

>  <Mse>
1

>  <Mp>
0.64

>  <Mi>
1.13

>  <NsCH3>
2

>  <NdCH2>
0

>  <NssCH2>
4

>  <NtCH>
0

>  <NdsCH>
0

>  <NaaCH>
5

>  <NsssCH>
4

>  <NddC>
0

>  <NtsC>
0

>  <NdssC>
1

>  <NaasC>
1

>  <NaaaC>
0

>  <NssssC>
0

>  <NsNH3>
0

>  <NsNH2>
0

>  <NssNH2>
0

>  <NdNH>
0

>  <NssNH>
0

>  <NaaNH>
0

>  <NtN>
0

>  <NsssNH>
0

>  <NdsN>
0

>  <NaaN>
0

>  <NsssN>
0

>  <NddsN>
0

>  <NaasN>
0

>  <NssssN>
1

>  <NsOH>
1

>  <NdO>
1

>  <NssO>
1

>  <NaaO>
0

>  <NsF>
0

>  <NsSiH3>
0

>  <NssSiH2>
0

>  <NsssSiH>
0

>  <NssssSi>
0

>  <NsPH2>
0

>  <NssPH>
0

>  <NsssP>
0

>  <NdsssP>
0

>  <NsssssP>
0

>  <NsSH>
0

>  <NdS>
0

>  <NssS>
0

>  <NaaS>
0

>  <NdssS>
0

>  <NddssS>
0

>  <NsCl>
0

>  <NsBr>
0

>  <NsI>
0

>  <fragCpx>
109.04

>  <fMF>
0.38

>  <nHBAcc>
3

>  <nHBDon>
1

>  <Kier1>
15.88

>  <Kier2>
6.25

>  <Lipinski>
1

>  <GhoseFilter>
1

>  <FilterItLogS>
-2.87

>  <VMcGowan>
230.35

>  <LabuteASA>
125.47

>  <PEOE_VSA1>
14.33

>  <PEOE_VSA2>
0

>  <PEOE_VSA3>
4.79

>  <PEOE_VSA4>
0

>  <PEOE_VSA5>
0

>  <PEOE_VSA6>
30.33

>  <PEOE_VSA7>
5.56

>  <PEOE_VSA8>
25.68

>  <PEOE_VSA9>
26.18

>  <PEOE_VSA10>
6.1

>  <PEOE_VSA11>
6.1

>  <PEOE_VSA12>
0

>  <PEOE_VSA13>
0

>  <SMR_VSA1>
19.12

>  <SMR_VSA2>
0

>  <SMR_VSA3>
0

>  <SMR_VSA4>
0

>  <SMR_VSA5>
49.97

>  <SMR_VSA6>
14.1

>  <SMR_VSA7>
35.9

>  <SMR_VSA8>
0

>  <SMR_VSA9>
0

>  <SlogP_VSA1>
0

>  <SlogP_VSA2>
47.84

>  <SlogP_VSA3>
9.53

>  <SlogP_VSA4>
0

>  <SlogP_VSA5>
37.35

>  <SlogP_VSA6>
30.33

>  <SlogP_VSA7>
0

>  <SlogP_VSA8>
0

>  <SlogP_VSA9>
0

>  <SlogP_VSA10>
0

>  <SlogP_VSA11>
0

>  <EState_VSA1>
12.07

>  <EState_VSA2>
6.1

>  <EState_VSA3>
17.65

>  <EState_VSA4>
17.32

>  <EState_VSA5>
12.84

>  <EState_VSA6>
12.13

>  <EState_VSA7>
18.2

>  <EState_VSA8>
14.1

>  <EState_VSA9>
4.74

>  <EState_VSA10>
9.9

>  <VSA_EState1>
6.63

>  <VSA_EState2>
12.13

>  <VSA_EState3>
10.09

>  <VSA_EState4>
0.59

>  <VSA_EState5>
-0.52

>  <VSA_EState6>
10.14

>  <VSA_EState7>
3.04

>  <VSA_EState8>
0

>  <VSA_EState9>
4.55

>  <apol>
47.9

>  <bpol>
28.96

>  <nRing>
3

>  <nHRing>
2

>  <naRing>
1

>  <naHRing>
0

>  <nARing 2>
2

>  <nAHRing 2>
2

>  <nFRing>
1

>  <nFHRing>
1

>  <nFaRing>
0

>  <nFaHRing>
0

>  <nFARing 2>
1

>  <nFAHRing 2>
1

>  <nRot>
3

>  <SLogP>
2.03

>  <SMR>
79.43

>  <TopoPSA(NO)>
46.53

>  <TopoPSA>
46.53

>  <JGI1>
0.24

>  <JGI2>
0.1

>  <JGI3>
0.06

>  <JGI4>
0.05

>  <JGI5>
0.03

>  <Diameter>
11

>  <Radius>
6

>  <TMWC10>
118.67

>  <TSRW10>
69.85

>  <MW>
290.18

>  <AMW>
6.45

>  <WPath>
967

>  <WPol>
34

>  <Zagreb1>
114

>  <Zagreb2>
136

>  <mZagreb2>
4.47

>  <yes>


>  <nAR-cont>
1

>  <nHA-cont>
0.994529749

>  <MWHBN>
0.234815225

>  <MWHBN-cont>
0.981525123

>  <TPSA-cont>
0.675191707

>  <pka_cont>
0.97

>  <yes.1>


>  <BBB_SCORE>
5.302200847

>  <MMFF94 Energy>
93.182

$$$$
Compound 2544
Actelion Java MolfileCreator 2.0

  0  0  0  0  0  0              0 V3000
M  V30 BEGIN CTAB
M  V30 COUNTS 45 47 0 0 0
M  V30 BEGIN ATOM
M  V30 1 N -0.3958 3.1705 -0.3167 0 CHG=1
M  V30 2 C 0.9055 2.4963 0.1659 0
M  V30 3 C -1.3447 2.1155 -0.923 0
M  V30 4 C -1.0734 3.9359 0.8157 0
M  V30 5 C -0.037 4.1781 -1.4107 0
M  V30 6 C 0.6367 1.3182 1.1083 0
M  V30 7 C -1.5943 0.9406 0.0286 0
M  V30 8 C -0.2867 0.2977 0.4624 0
M  V30 9 C 0.0232 -1.0127 0.2802 0
M  V30 10 C 1.3328 -1.5329 0.737 0
M  V30 11 C -0.9519 -1.9196 -0.3686 0
M  V30 12 C 2.4209 -1.5852 -0.1438 0
M  V30 13 C 1.4933 -1.9747 2.0568 0
M  V30 14 C -1.9387 -2.5555 0.3959 0
M  V30 15 C -0.8979 -2.1469 -1.7499 0
M  V30 16 C 3.6562 -2.0653 0.2943 0
M  V30 17 C 2.7301 -2.4534 2.4916 0
M  V30 18 C -2.8657 -3.4005 -0.2163 0
M  V30 19 C -1.8262 -2.9933 -2.3588 0
M  V30 20 C 3.8103 -2.4965 1.6114 0
M  V30 21 C -2.81 -3.617 -1.5924 0
M  V30 22 H 1.5085 3.2666 0.6598 0
M  V30 23 H 1.4376 2.152 -0.7295 0
M  V30 24 H -0.8767 1.7602 -1.8495 0
M  V30 25 H -2.2818 2.625 -1.1745 0
M  V30 26 H -0.3727 4.6884 1.1898 0
M  V30 27 H -1.9709 4.4179 0.4164 0
M  V30 28 H -1.3444 3.2465 1.6167 0
M  V30 29 H -0.9594 4.6522 -1.7593 0
M  V30 30 H 0.6415 4.9231 -0.9846 0
M  V30 31 H 0.4505 3.6442 -2.2316 0
M  V30 32 H 0.1813 1.6669 2.0425 0
M  V30 33 H 1.6049 0.8978 1.3943 0
M  V30 34 H -2.266 0.2426 -0.4789 0
M  V30 35 H -2.138 1.2743 0.9201 0
M  V30 36 H 2.3131 -1.267 -1.1769 0
M  V30 37 H 0.6565 -1.9569 2.7509 0
M  V30 38 H -1.9871 -2.4043 1.4716 0
M  V30 39 H -0.1285 -1.6802 -2.3586 0
M  V30 40 H 4.4973 -2.1165 -0.3928 0
M  V30 41 H 2.8497 -2.8035 3.5143 0
M  V30 42 H -3.6255 -3.8994 0.3807 0
M  V30 43 H -1.7767 -3.1784 -3.4291 0
M  V30 44 H 4.7706 -2.8798 1.9493 0
M  V30 45 H -3.5268 -4.2842 -2.0661 0
M  V30 END ATOM
M  V30 BEGIN BOND
M  V30 1 1 1 2
M  V30 2 1 1 3
M  V30 3 1 1 4
M  V30 4 1 1 5
M  V30 5 1 2 6
M  V30 6 1 3 7
M  V30 7 1 6 8
M  V30 8 2 8 9
M  V30 9 1 9 10
M  V30 10 1 9 11
M  V30 11 2 10 12
M  V30 12 1 10 13
M  V30 13 2 11 14
M  V30 14 1 11 15
M  V30 15 1 12 16
M  V30 16 2 13 17
M  V30 17 1 14 18
M  V30 18 2 15 19
M  V30 19 2 16 20
M  V30 20 2 18 21
M  V30 21 1 7 8
M  V30 22 1 17 20
M  V30 23 1 19 21
M  V30 24 1 2 22
M  V30 25 1 2 23
M  V30 26 1 3 24
M  V30 27 1 3 25
M  V30 28 1 4 26
M  V30 29 1 4 27
M  V30 30 1 4 28
M  V30 31 1 5 29
M  V30 32 1 5 30
M  V30 33 1 5 31
M  V30 34 1 6 32
M  V30 35 1 6 33
M  V30 36 1 7 34
M  V30 37 1 7 35
M  V30 38 1 12 36
M  V30 39 1 13 37
M  V30 40 1 14 38
M  V30 41 1 15 39
M  V30 42 1 16 40
M  V30 43 1 17 41
M  V30 44 1 18 42
M  V30 45 1 19 43
M  V30 46 1 20 44
M  V30 47 1 21 45
M  V30 END BOND
M  V30 END CTAB
M  END
>  <Column 1>
3156

>  <level_0>
5311

>  <index>
5312

>  <Unnamed: 0>
5312

>  <NO.>
5324

>  <Name>
diphemanil

>  <IUPAC_name>
4-benzhydrylidene-1-1-dimethylpiperidin-1-ium

>  <SMILES>
C[N+]1(C)CCC(=C(c2ccccc2)c2ccccc2)CC1

>  <CID>
6127

>  <logBB>


>  <BBB+/BBB->
BBB-

>  <Inchi>
InChI=1S/C20H24N/c1-21(2)15-13-19(14-16-21)20(17-9-5-3-6-10-17)18-11-7-4-8-12-18/h3-12H-13-16H2-1-2H3/q+1

>  <threshold>


>  <reference>
R14|R23|R27|

>  <group>
C

>  <Class>
-1

>  <ABC>
16.46

>  <ABCGG>
13.34

>  <nAcid>
0

>  <nBase>
1

>  <nAromAtom>
12

>  <nAromBond>
12

>  <nAtom>
45

>  <nHeavyAtom>
21

>  <nSpiro>
0

>  <nBridgehead>
0

>  <nHetero>
1

>  <nN>
1

>  <nO>
0

>  <nF>
0

>  <BalabanJ>
1.68

>  <BertzCT>
569.9

>  <nBonds>
47

>  <nBondsO>
23

>  <nBondsS>
34

>  <nBondsD>
1

>  <nBondsT>
0

>  <nBondsA>
12

>  <nBondsM>
13

>  <nBondsKS>
40

>  <nBondsKD>
7

>  <RNCG>
0.32

>  <RPCG>
0.05

>  <FCSP3>
0.3

>  <SZ>
25.17

>  <Sm>
23.18

>  <Sv>
27.26

>  <Sse>
43.82

>  <Sp>
30.24

>  <Si>
50.27

>  <MZ>
0.56

>  <Mm>
0.52

>  <Mv>
0.61

>  <Mse>
0.97

>  <Mp>
0.67

>  <Mi>
1.12

>  <NsCH3>
2

>  <NdCH2>
0

>  <NssCH2>
4

>  <NtCH>
0

>  <NdsCH>
0

>  <NaaCH>
10

>  <NsssCH>
0

>  <NddC>
0

>  <NtsC>
0

>  <NdssC>
2

>  <NaasC>
2

>  <NaaaC>
0

>  <NssssC>
0

>  <NsNH3>
0

>  <NsNH2>
0

>  <NssNH2>
0

>  <NdNH>
0

>  <NssNH>
0

>  <NaaNH>
0

>  <NtN>
0

>  <NsssNH>
0

>  <NdsN>
0

>  <NaaN>
0

>  <NsssN>
0

>  <NddsN>
0

>  <NaasN>
0

>  <NssssN>
1

>  <NsOH>
0

>  <NdO>
0

>  <NssO>
0

>  <NaaO>
0

>  <NsF>
0

>  <NsSiH3>
0

>  <NssSiH2>
0

>  <NsssSiH>
0

>  <NssssSi>
0

>  <NsPH2>
0

>  <NssPH>
0

>  <NsssP>
0

>  <NdsssP>
0

>  <NsssssP>
0

>  <NsSH>
0

>  <NdS>
0

>  <NssS>
0

>  <NaaS>
0

>  <NdssS>
0

>  <NddssS>
0

>  <NsCl>
0

>  <NsBr>
0

>  <NsI>
0

>  <fragCpx>
109.01

>  <fMF>
0.42

>  <nHBAcc>
0

>  <nHBDon>
0

>  <Kier1>
15.88

>  <Kier2>
7.05

>  <Lipinski>
1

>  <GhoseFilter>
1

>  <FilterItLogS>
-5.65

>  <VMcGowan>
242.11

>  <LabuteASA>
127.68

>  <PEOE_VSA1>
4.48

>  <PEOE_VSA2>
0

>  <PEOE_VSA3>
0

>  <PEOE_VSA4>
0

>  <PEOE_VSA5>
0

>  <PEOE_VSA6>
66.24

>  <PEOE_VSA7>
16.7

>  <PEOE_VSA8>
12.84

>  <PEOE_VSA9>
27.18

>  <PEOE_VSA10>
0

>  <PEOE_VSA11>
0

>  <PEOE_VSA12>
0

>  <PEOE_VSA13>
0

>  <SMR_VSA1>
4.48

>  <SMR_VSA2>
0

>  <SMR_VSA3>
0

>  <SMR_VSA4>
0

>  <SMR_VSA5>
12.84

>  <SMR_VSA6>
27.18

>  <SMR_VSA7>
77.36

>  <SMR_VSA8>
0

>  <SMR_VSA9>
0

>  <SlogP_VSA1>
0

>  <SlogP_VSA2>
31.67

>  <SlogP_VSA3>
0

>  <SlogP_VSA4>
0

>  <SlogP_VSA5>
23.97

>  <SlogP_VSA6>
66.24

>  <SlogP_VSA7>
0

>  <SlogP_VSA8>
5.57

>  <SlogP_VSA9>
0

>  <SlogP_VSA10>
0

>  <SlogP_VSA11>
0

>  <EState_VSA1>
0

>  <EState_VSA2>
0

>  <EState_VSA3>
0

>  <EState_VSA4>
4.48

>  <EState_VSA5>
42.63

>  <EState_VSA6>
5.57

>  <EState_VSA7>
0

>  <EState_VSA8>
74.76

>  <EState_VSA9>
0

>  <EState_VSA10>
0

>  <VSA_EState1>
1.14

>  <VSA_EState2>
0

>  <VSA_EState3>
0

>  <VSA_EState4>
5.78

>  <VSA_EState5>
0

>  <VSA_EState6>
21.71

>  <VSA_EState7>
2.4

>  <VSA_EState8>
2.47

>  <VSA_EState9>
4.67

>  <apol>
50.5

>  <bpol>
26.36

>  <nRing>
3

>  <nHRing>
1

>  <naRing>
2

>  <naHRing>
0

>  <nARing 2>
1

>  <nAHRing 2>
1

>  <nFRing>
0

>  <nFHRing>
0

>  <nFaRing>
0

>  <nFaHRing>
0

>  <nFARing 2>
0

>  <nFAHRing 2>
0

>  <nRot>
2

>  <SLogP>
4.36

>  <SMR>
89.98

>  <TopoPSA(NO)>
0

>  <TopoPSA>
0

>  <JGI1>
0.17

>  <JGI2>
0.07

>  <JGI3>
0.05

>  <JGI4>
0.03

>  <JGI5>
0.01

>  <Diameter>
9

>  <Radius>
5

>  <TMWC10>
117.54

>  <TSRW10>
54.95

>  <MW>
278.19

>  <AMW>
6.18

>  <WPath>
888

>  <WPol>
31

>  <Zagreb1>
110

>  <Zagreb2>
127

>  <mZagreb2>
4.58

>  <yes>


>  <nAR-cont>
0.816016

>  <nHA-cont>
0.994529749

>  <MWHBN>
0

>  <MWHBN-cont>
0

>  <TPSA-cont>
0

>  <pka_cont>
0.97

>  <yes.1>


>  <BBB_SCORE>
2.295545749

>  <MMFF94 Energy>
102.57

$$$$
Compound 2545
Actelion Java MolfileCreator 2.0

  0  0  0  0  0  0              0 V3000
M  V30 BEGIN CTAB
M  V30 COUNTS 56 58 0 0 0
M  V30 BEGIN ATOM
M  V30 1 O 1.3452 -0.1581 1.5036 0
M  V30 2 C 0.8357 -1.0391 0.4859 0 CFG=2
M  V30 3 C 0.9566 -2.4945 1.0007 0
M  V30 4 C 1.6643 -0.7828 -0.8342 0
M  V30 5 C -0.7205 -0.792 0.3332 0
M  V30 6 C 1.054 -2.7701 2.379 0
M  V30 7 C 0.8973 -3.5915 0.1205 0
M  V30 8 C 1.591 0.6715 -1.3536 0
M  V30 9 C 3.1624 -1.1545 -0.6592 0
M  V30 10 N -1.2603 0.5496 -0.0228 0
M  V30 11 C 1.1334 -4.0827 2.8512 0
M  V30 12 C 0.9774 -4.9037 0.5946 0
M  V30 13 C 2.413 0.886 -2.6258 0
M  V30 14 C 3.9647 -0.96 -1.9437 0
M  V30 15 C -2.711 0.4496 -0.2799 0
M  V30 16 C -0.9803 1.5588 1.0161 0
M  V30 17 C 1.1004 -5.1486 1.9584 0
M  V30 18 C 3.8654 0.4724 -2.4459 0
M  V30 19 C -3.36 1.8015 -0.6445 0
M  V30 20 C -1.5862 2.9445 0.6999 0
M  V30 21 N -3.1025 2.8789 0.4272 0 CHG=1
M  V30 22 C -3.875 2.5857 1.7044 0
M  V30 23 C -3.5612 4.2286 -0.1131 0
M  V30 24 H 2.2263 -0.4937 1.7487 0
M  V30 25 H 1.2532 -1.419 -1.6289 0
M  V30 26 H -1.0727 -1.4952 -0.4347 0
M  V30 27 H -1.2068 -1.0955 1.2726 0
M  V30 28 H 1.0585 -1.9645 3.1107 0
M  V30 29 H 0.7884 -3.4484 -0.9515 0
M  V30 30 H 0.5628 0.9421 -1.6005 0
M  V30 31 H 1.9386 1.3674 -0.5808 0
M  V30 32 H 3.2749 -2.1978 -0.3488 0
M  V30 33 H 3.6142 -0.5402 0.1291 0
M  V30 34 H 1.2175 -4.273 3.9186 0
M  V30 35 H 0.9428 -5.7372 -0.1032 0
M  V30 36 H 2.365 1.9411 -2.919 0
M  V30 37 H 1.9679 0.3085 -3.4455 0
M  V30 38 H 3.5976 -1.6494 -2.7136 0
M  V30 39 H 5.0155 -1.213 -1.7625 0
M  V30 40 H -3.2284 0.0135 0.5834 0
M  V30 41 H -2.88 -0.2297 -1.1245 0
M  V30 42 H 0.0955 1.7292 1.0959 0
M  V30 43 H -1.33 1.2154 1.9971 0
M  V30 44 H 1.1645 -6.17 2.3255 0
M  V30 45 H 4.4001 0.5706 -3.3971 0
M  V30 46 H 4.3539 1.1474 -1.7324 0
M  V30 47 H -2.9387 2.1774 -1.5849 0
M  V30 48 H -4.4453 1.7012 -0.7568 0
M  V30 49 H -1.1177 3.3575 -0.2019 0
M  V30 50 H -1.4303 3.6422 1.5304 0
M  V30 51 H -3.5573 1.6267 2.117 0
M  V30 52 H -4.9415 2.5551 1.4621 0
M  V30 53 H -3.6722 3.3869 2.4215 0
M  V30 54 H -4.634 4.171 -0.3197 0
M  V30 55 H -3.3558 4.9917 0.6435 0
M  V30 56 H -3.0085 4.4462 -1.0319 0
M  V30 END ATOM
M  V30 BEGIN BOND
M  V30 1 1 1 2
M  V30 2 1 2 3
M  V30 3 1 2 4
M  V30 4 1 2 5
M  V30 5 2 3 6
M  V30 6 1 3 7
M  V30 7 1 4 8
M  V30 8 1 4 9
M  V30 9 1 5 10
M  V30 10 1 6 11
M  V30 11 2 7 12
M  V30 12 1 8 13
M  V30 13 1 9 14
M  V30 14 1 10 15
M  V30 15 1 10 16
M  V30 16 2 11 17
M  V30 17 1 13 18
M  V30 18 1 15 19
M  V30 19 1 16 20
M  V30 20 1 19 21
M  V30 21 1 21 22
M  V30 22 1 21 23
M  V30 23 1 12 17
M  V30 24 1 14 18
M  V30 25 1 20 21
M  V30 26 1 1 24
M  V30 27 1 4 25
M  V30 28 1 5 26
M  V30 29 1 5 27
M  V30 30 1 6 28
M  V30 31 1 7 29
M  V30 32 1 8 30
M  V30 33 1 8 31
M  V30 34 1 9 32
M  V30 35 1 9 33
M  V30 36 1 11 34
M  V30 37 1 12 35
M  V30 38 1 13 36
M  V30 39 1 13 37
M  V30 40 1 14 38
M  V30 41 1 14 39
M  V30 42 1 15 40
M  V30 43 1 15 41
M  V30 44 1 16 42
M  V30 45 1 16 43
M  V30 46 1 17 44
M  V30 47 1 18 45
M  V30 48 1 18 46
M  V30 49 1 19 47
M  V30 50 1 19 48
M  V30 51 1 20 49
M  V30 52 1 20 50
M  V30 53 1 22 51
M  V30 54 1 22 52
M  V30 55 1 22 53
M  V30 56 1 23 54
M  V30 57 1 23 55
M  V30 58 1 23 56
M  V30 END BOND
M  V30 BEGIN COLLECTION
M  V30 MDLV30/STERAC1 ATOMS=(1 2)
M  V30 END COLLECTION
M  V30 END CTAB
M  END
>  <Column 1>
3157

>  <level_0>
5312

>  <index>
5313

>  <Unnamed: 0>
5313

>  <NO.>
5325

>  <Name>
hexocyclium

>  <IUPAC_name>
1-cyclohexyl-2-(4-4-dimethylpiperazin-4-ium-1-yl)-1-phenylethanol

>  <SMILES>
C[N+]1(C)CCN(CC(O)(c2ccccc2)C2CCCCC2)CC1

>  <CID>
24199

>  <logBB>


>  <BBB+/BBB->
BBB-

>  <Inchi>
InChI=1S/C20H33N2O/c1-22(2)15-13-21(14-16-22)17-20(23-18-9-5-3-6-10-18)19-11-7-4-8-12-19/h3-5-6-9-10-19-23H-4-7-8-11-17H2-1-2H3/q+1

>  <threshold>


>  <reference>
R14|

>  <group>
C

>  <Class>
-1

>  <ABC>
18.03

>  <ABCGG>
14.66

>  <nAcid>
0

>  <nBase>
2

>  <nAromAtom>
6

>  <nAromBond>
6

>  <nAtom>
56

>  <nHeavyAtom>
23

>  <nSpiro>
0

>  <nBridgehead>
0

>  <nHetero>
3

>  <nN>
2

>  <nO>
1

>  <nF>
0

>  <BalabanJ>
1.69

>  <BertzCT>
485.62

>  <nBonds>
58

>  <nBondsO>
25

>  <nBondsS>
52

>  <nBondsD>
0

>  <nBondsT>
0

>  <nBondsA>
6

>  <nBondsM>
6

>  <nBondsKS>
55

>  <nBondsKD>
3

>  <RNCG>
0.24

>  <RPCG>
0.08

>  <FCSP3>
0.7

>  <SZ>
29.17

>  <Sm>
26.43

>  <Sv>
31.17

>  <Sse>
54.81

>  <Sp>
34.97

>  <Si>
63.64

>  <MZ>
0.52

>  <Mm>
0.47

>  <Mv>
0.56

>  <Mse>
0.98

>  <Mp>
0.62

>  <Mi>
1.14

>  <NsCH3>
2

>  <NdCH2>
0

>  <NssCH2>
10

>  <NtCH>
0

>  <NdsCH>
0

>  <NaaCH>
5

>  <NsssCH>
1

>  <NddC>
0

>  <NtsC>
0

>  <NdssC>
0

>  <NaasC>
1

>  <NaaaC>
0

>  <NssssC>
1

>  <NsNH3>
0

>  <NsNH2>
0

>  <NssNH2>
0

>  <NdNH>
0

>  <NssNH>
0

>  <NaaNH>
0

>  <NtN>
0

>  <NsssNH>
0

>  <NdsN>
0

>  <NaaN>
0

>  <NsssN>
1

>  <NddsN>
0

>  <NaasN>
0

>  <NssssN>
1

>  <NsOH>
1

>  <NdO>
0

>  <NssO>
0

>  <NaaO>
0

>  <NsF>
0

>  <NsSiH3>
0

>  <NssSiH2>
0

>  <NsssSiH>
0

>  <NssssSi>
0

>  <NsPH2>
0

>  <NssPH>
0

>  <NsssP>
0

>  <NdsssP>
0

>  <NsssssP>
0

>  <NsSH>
0

>  <NdS>
0

>  <NssS>
0

>  <NaaS>
0

>  <NdssS>
0

>  <NddssS>
0

>  <NsCl>
0

>  <NsBr>
0

>  <NsI>
0

>  <fragCpx>
119.03

>  <fMF>
0.36

>  <nHBAcc>
2

>  <nHBDon>
1

>  <Kier1>
17.81

>  <Kier2>
7.49

>  <Lipinski>
1

>  <GhoseFilter>
1

>  <FilterItLogS>
-4.21

>  <VMcGowan>
275.16

>  <LabuteASA>
141.05

>  <PEOE_VSA1>
9.59

>  <PEOE_VSA2>
4.9

>  <PEOE_VSA3>
0

>  <PEOE_VSA4>
0

>  <PEOE_VSA5>
0

>  <PEOE_VSA6>
49.59

>  <PEOE_VSA7>
24.32

>  <PEOE_VSA8>
19.63

>  <PEOE_VSA9>
27.18

>  <PEOE_VSA10>
5.6

>  <PEOE_VSA11>
0

>  <PEOE_VSA12>
0

>  <PEOE_VSA13>
0

>  <SMR_VSA1>
9.59

>  <SMR_VSA2>
0

>  <SMR_VSA3>
4.9

>  <SMR_VSA4>
5.92

>  <SMR_VSA5>
37.71

>  <SMR_VSA6>
46.82

>  <SMR_VSA7>
35.9

>  <SMR_VSA8>
0

>  <SMR_VSA9>
0

>  <SlogP_VSA1>
0

>  <SlogP_VSA2>
61.31

>  <SlogP_VSA3>
5.6

>  <SlogP_VSA4>
5.92

>  <SlogP_VSA5>
37.67

>  <SlogP_VSA6>
30.33

>  <SlogP_VSA7>
0

>  <SlogP_VSA8>
0

>  <SlogP_VSA9>
0

>  <SlogP_VSA10>
0

>  <SlogP_VSA11>
0

>  <EState_VSA1>
5.6

>  <EState_VSA2>
0

>  <EState_VSA3>
5.92

>  <EState_VSA4>
29.68

>  <EState_VSA5>
45.19

>  <EState_VSA6>
0

>  <EState_VSA7>
6.07

>  <EState_VSA8>
43.26

>  <EState_VSA9>
0

>  <EState_VSA10>
5.11

>  <VSA_EState1>
1.1

>  <VSA_EState2>
2.49

>  <VSA_EState3>
11.74

>  <VSA_EState4>
0.43

>  <VSA_EState5>
0.41

>  <VSA_EState6>
10.43

>  <VSA_EState7>
6.2

>  <VSA_EState8>
5.33

>  <VSA_EState9>
4.61

>  <apol>
58.41

>  <bpol>
37.1

>  <nRing>
3

>  <nHRing>
1

>  <naRing>
1

>  <naHRing>
0

>  <nARing 2>
2

>  <nAHRing 2>
1

>  <nFRing>
0

>  <nFHRing>
0

>  <nFaRing>
0

>  <nFaHRing>
0

>  <nFARing 2>
0

>  <nFAHRing 2>
0

>  <nRot>
4

>  <SLogP>
2.85

>  <SMR>
95.2

>  <TopoPSA(NO)>
23.47

>  <TopoPSA>
23.47

>  <JGI1>
0.24

>  <JGI2>
0.09

>  <JGI3>
0.05

>  <JGI4>
0.04

>  <JGI5>
0.02

>  <Diameter>
10

>  <Radius>
5

>  <TMWC10>
122.89

>  <TSRW10>
57.65

>  <MW>
317.26

>  <AMW>
5.67

>  <WPath>
1146

>  <WPol>
36

>  <Zagreb1>
122

>  <Zagreb2>
142

>  <mZagreb2>
4.96

>  <yes>


>  <nAR-cont>
1

>  <nHA-cont>
0.967789328

>  <MWHBN>
0.16842773

>  <MWHBN-cont>
0.971445867

>  <TPSA-cont>
0.836164826

>  <pka_cont>
0.97

>  <yes.1>


>  <BBB_SCORE>
5.582287781

>  <MMFF94 Energy>
169.29

$$$$
Compound 2546
Actelion Java MolfileCreator 2.0

  0  0  0  0  0  0              0 V3000
M  V30 BEGIN CTAB
M  V30 COUNTS 54 57 0 0 0
M  V30 BEGIN ATOM
M  V30 1 O -6.1714 0.7998 0.3198 0
M  V30 2 C -5.0015 0.9636 -0.0068 0
M  V30 3 C -3.9078 0.4418 0.8262 0
M  V30 4 C -4.6273 1.6885 -1.2483 0
M  V30 5 C -2.5934 0.6375 0.4142 0
M  V30 6 C -4.1927 -0.2387 2.017 0
M  V30 7 C -3.3164 1.7718 -1.5473 0
M  V30 8 C -5.7735 2.2707 -2.0207 0
M  V30 9 O -2.2935 1.2667 -0.7637 0
M  V30 10 C -1.5472 0.1539 1.21 0
M  V30 11 C -3.1521 -0.7271 2.8048 0
M  V30 12 C -2.8048 2.432 -2.7615 0
M  V30 13 C -0.1395 0.3957 0.818 0
M  V30 14 C -1.8303 -0.5292 2.4051 0
M  V30 15 C -1.9438 3.5316 -2.6465 0
M  V30 16 C -3.1304 1.9539 -4.0388 0
M  V30 17 O 0.2756 1.4333 0.3327 0
M  V30 18 O 0.5888 -0.7174 1.0842 0
M  V30 19 C -1.4387 4.1577 -3.788 0
M  V30 20 C -2.6253 2.582 -5.1795 0
M  V30 21 C 1.9739 -0.6147 0.7086 0
M  V30 22 C -1.7826 3.685 -5.0532 0
M  V30 23 C 2.6736 -1.9269 1.0935 0
M  V30 24 N 4.0676 -2.0314 0.6307 0
M  V30 25 C 4.5895 -3.3998 0.781 0
M  V30 26 C 4.9817 -1.0646 1.2574 0
M  V30 27 C 4.8882 -3.7959 2.2296 0
M  V30 28 C 5.2928 -1.3642 2.726 0
M  V30 29 C 5.8144 -2.7868 2.9003 0
M  V30 30 H -5.2251 -0.3871 2.33 0
M  V30 31 H -6.358 1.4729 -2.4903 0
M  V30 32 H -5.4557 2.9639 -2.8041 0
M  V30 33 H -6.4349 2.8385 -1.3567 0
M  V30 34 H -3.3712 -1.2542 3.7308 0
M  V30 35 H -1.0232 -0.9 3.0337 0
M  V30 36 H -1.6546 3.9023 -1.665 0
M  V30 37 H -3.7746 1.0855 -4.1548 0
M  V30 38 H -0.7706 5.0092 -3.6873 0
M  V30 39 H -2.8842 2.2063 -6.1659 0
M  V30 40 H 2.4212 0.2332 1.238 0
M  V30 41 H 2.0416 -0.4548 -0.3739 0
M  V30 42 H -1.3856 4.171 -5.9408 0
M  V30 43 H 2.5841 -2.0741 2.1767 0
M  V30 44 H 2.0867 -2.7397 0.6442 0
M  V30 45 H 5.513 -3.4825 0.1928 0
M  V30 46 H 3.8967 -4.1235 0.3342 0
M  V30 47 H 4.6037 -0.0416 1.1593 0
M  V30 48 H 5.9229 -1.0706 0.6914 0
M  V30 49 H 5.3529 -4.7883 2.2499 0
M  V30 50 H 3.9549 -3.8747 2.7998 0
M  V30 51 H 4.396 -1.221 3.3402 0
M  V30 52 H 6.0419 -0.6537 3.0942 0
M  V30 53 H 5.919 -3.0215 3.9654 0
M  V30 54 H 6.8147 -2.8626 2.4561 0
M  V30 END ATOM
M  V30 BEGIN BOND
M  V30 1 2 1 2
M  V30 2 1 2 3
M  V30 3 1 2 4
M  V30 4 2 3 5
M  V30 5 1 3 6
M  V30 6 2 4 7
M  V30 7 1 4 8
M  V30 8 1 5 9
M  V30 9 1 5 10
M  V30 10 2 6 11
M  V30 11 1 7 12
M  V30 12 1 10 13
M  V30 13 2 10 14
M  V30 14 2 12 15
M  V30 15 1 12 16
M  V30 16 2 13 17
M  V30 17 1 13 18
M  V30 18 1 15 19
M  V30 19 2 16 20
M  V30 20 1 18 21
M  V30 21 2 19 22
M  V30 22 1 21 23
M  V30 23 1 23 24
M  V30 24 1 24 25
M  V30 25 1 24 26
M  V30 26 1 25 27
M  V30 27 1 26 28
M  V30 28 1 27 29
M  V30 29 1 7 9
M  V30 30 1 11 14
M  V30 31 1 20 22
M  V30 32 1 28 29
M  V30 33 1 6 30
M  V30 34 1 8 31
M  V30 35 1 8 32
M  V30 36 1 8 33
M  V30 37 1 11 34
M  V30 38 1 14 35
M  V30 39 1 15 36
M  V30 40 1 16 37
M  V30 41 1 19 38
M  V30 42 1 20 39
M  V30 43 1 21 40
M  V30 44 1 21 41
M  V30 45 1 22 42
M  V30 46 1 23 43
M  V30 47 1 23 44
M  V30 48 1 25 45
M  V30 49 1 25 46
M  V30 50 1 26 47
M  V30 51 1 26 48
M  V30 52 1 27 49
M  V30 53 1 27 50
M  V30 54 1 28 51
M  V30 55 1 28 52
M  V30 56 1 29 53
M  V30 57 1 29 54
M  V30 END BOND
M  V30 END CTAB
M  END
>  <Column 1>
3159

>  <level_0>
5314

>  <index>
5315

>  <Unnamed: 0>
5315

>  <NO.>
5327

>  <Name>
flavoxate

>  <IUPAC_name>
2-piperidin-1-ylethyl 3-methyl-4-oxo-2-phenylchromene-8-carboxylate

>  <SMILES>
Cc1c(-c2ccccc2)oc2c(C(=O)OCCN3CCCCC3)cccc2c1=O

>  <CID>
3354

>  <logBB>


>  <BBB+/BBB->
BBB-

>  <Inchi>
InChI=1S/C24H25NO4/c1-17-21(26)19-11-8-12-20(23(19)29-22(17)18-9-4-2-5-10-18)24(27)28-16-15-25-13-6-3-7-14-25/h2-4-5-8-12H-3-6-7-13-16H2-1H3

>  <threshold>


>  <reference>
R14|R15|R23|

>  <group>
C

>  <Class>
-1

>  <ABC>
22.67

>  <ABCGG>
17.11

>  <nAcid>
0

>  <nBase>
1

>  <nAromAtom>
16

>  <nAromBond>
17

>  <nAtom>
54

>  <nHeavyAtom>
29

>  <nSpiro>
0

>  <nBridgehead>
0

>  <nHetero>
5

>  <nN>
1

>  <nO>
4

>  <nF>
0

>  <BalabanJ>
1.35

>  <BertzCT>
1065.43

>  <nBonds>
57

>  <nBondsO>
32

>  <nBondsS>
38

>  <nBondsD>
2

>  <nBondsT>
0

>  <nBondsA>
17

>  <nBondsM>
19

>  <nBondsKS>
48

>  <nBondsKD>
9

>  <RNCG>
0.2

>  <RPCG>
0.14

>  <FCSP3>
0.33

>  <SZ>
34.67

>  <Sm>
32.59

>  <Sv>
34.39

>  <Sse>
54.08

>  <Sp>
36.56

>  <Si>
60.32

>  <MZ>
0.64

>  <Mm>
0.6

>  <Mv>
0.64

>  <Mse>
1

>  <Mp>
0.68

>  <Mi>
1.12

>  <NsCH3>
1

>  <NdCH2>
0

>  <NssCH2>
7

>  <NtCH>
0

>  <NdsCH>
0

>  <NaaCH>
8

>  <NsssCH>
0

>  <NddC>
0

>  <NtsC>
0

>  <NdssC>
1

>  <NaasC>
4

>  <NaaaC>
2

>  <NssssC>
0

>  <NsNH3>
0

>  <NsNH2>
0

>  <NssNH2>
0

>  <NdNH>
0

>  <NssNH>
0

>  <NaaNH>
0

>  <NtN>
0

>  <NsssNH>
0

>  <NdsN>
0

>  <NaaN>
0

>  <NsssN>
1

>  <NddsN>
0

>  <NaasN>
0

>  <NssssN>
0

>  <NsOH>
0

>  <NdO>
2

>  <NssO>
1

>  <NaaO>
1

>  <NsF>
0

>  <NsSiH3>
0

>  <NssSiH2>
0

>  <NsssSiH>
0

>  <NssssSi>
0

>  <NsPH2>
0

>  <NssPH>
0

>  <NsssP>
0

>  <NdsssP>
0

>  <NsssssP>
0

>  <NsSH>
0

>  <NdS>
0

>  <NssS>
0

>  <NaaS>
0

>  <NdssS>
0

>  <NddssS>
0

>  <NsCl>
0

>  <NsBr>
0

>  <NsI>
0

>  <fragCpx>
212.05

>  <fMF>
0.48

>  <nHBAcc>
5

>  <nHBDon>
0

>  <Kier1>
22.2

>  <Kier2>
10.54

>  <Lipinski>
1

>  <GhoseFilter>
1

>  <FilterItLogS>
-6.46

>  <VMcGowan>
300.34

>  <LabuteASA>
169.45

>  <PEOE_VSA1>
9.15

>  <PEOE_VSA2>
9.69

>  <PEOE_VSA3>
4.79

>  <PEOE_VSA4>
0

>  <PEOE_VSA5>
0

>  <PEOE_VSA6>
42.82

>  <PEOE_VSA7>
44.99

>  <PEOE_VSA8>
17.67

>  <PEOE_VSA9>
5.39

>  <PEOE_VSA10>
17.93

>  <PEOE_VSA11>
11.01

>  <PEOE_VSA12>
0

>  <PEOE_VSA13>
0

>  <SMR_VSA1>
13.95

>  <SMR_VSA2>
0

>  <SMR_VSA3>
4.9

>  <SMR_VSA4>
0

>  <SMR_VSA5>
26.19

>  <SMR_VSA6>
26.24

>  <SMR_VSA7>
69.88

>  <SMR_VSA8>
0

>  <SMR_VSA9>
11.32

>  <SlogP_VSA1>
5.43

>  <SlogP_VSA2>
37.11

>  <SlogP_VSA3>
4.74

>  <SlogP_VSA4>
6.92

>  <SlogP_VSA5>
35.18

>  <SlogP_VSA6>
57.74

>  <SlogP_VSA7>
0

>  <SlogP_VSA8>
22.29

>  <SlogP_VSA9>
0

>  <SlogP_VSA10>
0

>  <SlogP_VSA11>
0

>  <EState_VSA1>
5.97

>  <EState_VSA2>
16.58

>  <EState_VSA3>
23.32

>  <EState_VSA4>
25.2

>  <EState_VSA5>
19.26

>  <EState_VSA6>
25.12

>  <EState_VSA7>
30.33

>  <EState_VSA8>
4.9

>  <EState_VSA9>
9.15

>  <EState_VSA10>
9.59

>  <VSA_EState1>
11.61

>  <VSA_EState2>
27.96

>  <VSA_EState3>
0.4

>  <VSA_EState4>
1.77

>  <VSA_EState5>
0.02

>  <VSA_EState6>
14.49

>  <VSA_EState7>
3.67

>  <VSA_EState8>
4.92

>  <VSA_EState9>
0

>  <apol>
61.06

>  <bpol>
32

>  <nRing>
4

>  <nHRing>
2

>  <naRing>
3

>  <naHRing>
1

>  <nARing 2>
1

>  <nAHRing 2>
1

>  <nFRing>
1

>  <nFHRing>
1

>  <nFaRing>
1

>  <nFaHRing>
1

>  <nFARing 2>
0

>  <nFAHRing 2>
0

>  <nRot>
5

>  <SLogP>
4.41

>  <SMR>
113.23

>  <TopoPSA(NO)>
59.75

>  <TopoPSA>
59.75

>  <JGI1>
0.13

>  <JGI2>
0.08

>  <JGI3>
0.04

>  <JGI4>
0.04

>  <JGI5>
0.03

>  <Diameter>
15

>  <Radius>
8

>  <TMWC10>
137.92

>  <TSRW10>
64.63

>  <MW>
391.18

>  <AMW>
7.24

>  <WPath>
2358

>  <WPol>
48

>  <Zagreb1>
152

>  <Zagreb2>
180

>  <mZagreb2>
6.44

>  <yes>


>  <nAR-cont>
0.816016

>  <nHA-cont>
0.785905698

>  <MWHBN>
0.252802686

>  <MWHBN-cont>
0.954941229

>  <TPSA-cont>
0.582907897

>  <pka_cont>
0.97

>  <yes.1>


>  <BBB_SCORE>
4.685149336

>  <MMFF94 Energy>
79.751

$$$$
Compound 2547
Actelion Java MolfileCreator 2.0

  0  0  0  0  0  0              0 V3000
M  V30 BEGIN CTAB
M  V30 COUNTS 35 36 0 0 0
M  V30 BEGIN ATOM
M  V30 1 O -1.2567 -0.9424 -1.3353 0
M  V30 2 C -0.6495 -0.4578 -0.3937 0
M  V30 3 N 0.7008 -0.1233 -0.2911 0
M  V30 4 C -1.2838 -0.0591 0.9023 0
M  V30 5 N 0.937 0.4406 0.9708 0
M  V30 6 C 1.5847 0.0156 -1.3755 0
M  V30 7 C -0.2833 0.4591 1.6431 0
M  V30 8 C -2.7373 -0.2553 1.1999 0
M  V30 9 C 2.2187 0.1945 1.6182 0
M  V30 10 C 2.3255 1.1903 -1.5557 0
M  V30 11 C 1.7145 -1.0223 -2.3041 0
M  V30 12 C -0.3766 0.9932 3.0358 0
M  V30 13 C -3.625 0.5712 0.2677 0
M  V30 14 C -3.1333 -1.7328 1.1653 0
M  V30 15 C 3.1983 1.3165 -2.6385 0
M  V30 16 C 2.5875 -0.8959 -3.3869 0
M  V30 17 C 3.331 0.2717 -3.5516 0
M  V30 18 H -2.9421 0.0954 2.2179 0
M  V30 19 H 2.3557 0.8673 2.4713 0
M  V30 20 H 3.0649 0.3611 0.9463 0
M  V30 21 H 2.27 -0.8375 1.9812 0
M  V30 22 H 2.2127 2.0197 -0.8624 0
M  V30 23 H 1.1332 -1.9346 -2.1921 0
M  V30 24 H 0.0547 1.9987 3.0848 0
M  V30 25 H -1.4069 1.0673 3.3922 0
M  V30 26 H 0.1698 0.3478 3.7308 0
M  V30 27 H -3.5589 0.2323 -0.7712 0
M  V30 28 H -4.6748 0.496 0.5724 0
M  V30 29 H -3.3462 1.6305 0.2967 0
M  V30 30 H -3.056 -2.1567 0.1588 0
M  V30 31 H -2.4979 -2.3255 1.8326 0
M  V30 32 H -4.1703 -1.8586 1.4961 0
M  V30 33 H 3.7666 2.2329 -2.7737 0
M  V30 34 H 2.6797 -1.707 -4.1043 0
M  V30 35 H 4.0058 0.3709 -4.3979 0
M  V30 END ATOM
M  V30 BEGIN BOND
M  V30 1 2 1 2
M  V30 2 1 2 3
M  V30 3 1 2 4
M  V30 4 1 3 5
M  V30 5 1 3 6
M  V30 6 2 4 7
M  V30 7 1 4 8
M  V30 8 1 5 9
M  V30 9 2 6 10
M  V30 10 1 6 11
M  V30 11 1 7 12
M  V30 12 1 8 13
M  V30 13 1 8 14
M  V30 14 1 10 15
M  V30 15 2 11 16
M  V30 16 2 15 17
M  V30 17 1 5 7
M  V30 18 1 16 17
M  V30 19 1 8 18
M  V30 20 1 9 19
M  V30 21 1 9 20
M  V30 22 1 9 21
M  V30 23 1 10 22
M  V30 24 1 11 23
M  V30 25 1 12 24
M  V30 26 1 12 25
M  V30 27 1 12 26
M  V30 28 1 13 27
M  V30 29 1 13 28
M  V30 30 1 13 29
M  V30 31 1 14 30
M  V30 32 1 14 31
M  V30 33 1 14 32
M  V30 34 1 15 33
M  V30 35 1 16 34
M  V30 36 1 17 35
M  V30 END BOND
M  V30 END CTAB
M  END
>  <Column 1>
3160

>  <level_0>
5315

>  <index>
5316

>  <Unnamed: 0>
5316

>  <NO.>
5328

>  <Name>
propyphenazone

>  <IUPAC_name>
1-5-dimethyl-2-phenyl-4-propan-2-ylpyrazol-3-one

>  <SMILES>
Cc1c(C(C)C)c(=O)n(-c2ccccc2)n1C

>  <CID>
3778

>  <logBB>


>  <BBB+/BBB->
BBB-

>  <Inchi>
InChI=1S/C14H18N2O/c1-10(2)13-11(3)15(4)16(14(13)17)12-8-6-5-7-9-12/h5-10H-1-4H3

>  <threshold>


>  <reference>
R14|

>  <group>
C

>  <Class>
-1

>  <ABC>
12.99

>  <ABCGG>
12.1

>  <nAcid>
0

>  <nBase>
0

>  <nAromAtom>
11

>  <nAromBond>
11

>  <nAtom>
35

>  <nHeavyAtom>
17

>  <nSpiro>
0

>  <nBridgehead>
0

>  <nHetero>
3

>  <nN>
2

>  <nO>
1

>  <nF>
0

>  <BalabanJ>
2.11

>  <BertzCT>
576.26

>  <nBonds>
36

>  <nBondsO>
18

>  <nBondsS>
24

>  <nBondsD>
1

>  <nBondsT>
0

>  <nBondsA>
11

>  <nBondsM>
12

>  <nBondsKS>
31

>  <nBondsKD>
5

>  <RNCG>
0.24

>  <RPCG>
0.23

>  <FCSP3>
0.36

>  <SZ>
20.67

>  <Sm>
19.18

>  <Sv>
21.11

>  <Sse>
34.65

>  <Sp>
22.98

>  <Si>
39.53

>  <MZ>
0.59

>  <Mm>
0.55

>  <Mv>
0.6

>  <Mse>
0.99

>  <Mp>
0.66

>  <Mi>
1.13

>  <NsCH3>
4

>  <NdCH2>
0

>  <NssCH2>
0

>  <NtCH>
0

>  <NdsCH>
0

>  <NaaCH>
5

>  <NsssCH>
1

>  <NddC>
0

>  <NtsC>
0

>  <NdssC>
0

>  <NaasC>
3

>  <NaaaC>
0

>  <NssssC>
0

>  <NsNH3>
0

>  <NsNH2>
0

>  <NssNH2>
0

>  <NdNH>
0

>  <NssNH>
0

>  <NaaNH>
0

>  <NtN>
0

>  <NsssNH>
0

>  <NdsN>
0

>  <NaaN>
0

>  <NsssN>
0

>  <NddsN>
0

>  <NaasN>
2

>  <NssssN>
0

>  <NsOH>
0

>  <NdO>
1

>  <NssO>
0

>  <NaaO>
0

>  <NsF>
0

>  <NsSiH3>
0

>  <NssSiH2>
0

>  <NsssSiH>
0

>  <NssssSi>
0

>  <NsPH2>
0

>  <NssPH>
0

>  <NsssP>
0

>  <NdsssP>
0

>  <NsssssP>
0

>  <NsSH>
0

>  <NdS>
0

>  <NssS>
0

>  <NaaS>
0

>  <NdssS>
0

>  <NddssS>
0

>  <NsCl>
0

>  <NsBr>
0

>  <NsI>
0

>  <fragCpx>
52.03

>  <fMF>
0.31

>  <nHBAcc>
3

>  <nHBDon>
0

>  <Kier1>
13.43

>  <Kier2>
5.33

>  <Lipinski>
1

>  <GhoseFilter>
1

>  <FilterItLogS>
-2.86

>  <VMcGowan>
190.73

>  <LabuteASA>
101.29

>  <PEOE_VSA1>
0

>  <PEOE_VSA2>
9.48

>  <PEOE_VSA3>
4.68

>  <PEOE_VSA4>
0

>  <PEOE_VSA5>
0

>  <PEOE_VSA6>
32.05

>  <PEOE_VSA7>
24.97

>  <PEOE_VSA8>
18.31

>  <PEOE_VSA9>
5.69

>  <PEOE_VSA10>
0

>  <PEOE_VSA11>
0

>  <PEOE_VSA12>
0

>  <PEOE_VSA13>
5.56

>  <SMR_VSA1>
0

>  <SMR_VSA2>
0

>  <SMR_VSA3>
9.36

>  <SMR_VSA4>
7.05

>  <SMR_VSA5>
26.69

>  <SMR_VSA6>
0

>  <SMR_VSA7>
51.94

>  <SMR_VSA8>
0

>  <SMR_VSA9>
5.69

>  <SlogP_VSA1>
5.56

>  <SlogP_VSA2>
9.36

>  <SlogP_VSA3>
7.05

>  <SlogP_VSA4>
6.92

>  <SlogP_VSA5>
31.02

>  <SlogP_VSA6>
35.13

>  <SlogP_VSA7>
0

>  <SlogP_VSA8>
5.69

>  <SlogP_VSA9>
0

>  <SlogP_VSA10>
0

>  <SlogP_VSA11>
0

>  <EState_VSA1>
0

>  <EState_VSA2>
11.48

>  <EState_VSA3>
0

>  <EState_VSA4>
16.94

>  <EState_VSA5>
0

>  <EState_VSA6>
4.68

>  <EState_VSA7>
48.99

>  <EState_VSA8>
13.85

>  <EState_VSA9>
0

>  <EState_VSA10>
4.79

>  <VSA_EState1>
3.65

>  <VSA_EState2>
12.39

>  <VSA_EState3>
0

>  <VSA_EState4>
2.94

>  <VSA_EState5>
0.25

>  <VSA_EState6>
9.74

>  <VSA_EState7>
0

>  <VSA_EState8>
6.11

>  <VSA_EState9>
1.93

>  <apol>
38.38

>  <bpol>
21.21

>  <nRing>
2

>  <nHRing>
1

>  <naRing>
2

>  <naHRing>
1

>  <nARing 2>
0

>  <nAHRing 2>
0

>  <nFRing>
0

>  <nFHRing>
0

>  <nFaRing>
0

>  <nFaHRing>
0

>  <nFARing 2>
0

>  <nFAHRing 2>
0

>  <nRot>
2

>  <SLogP>
2.61

>  <SMR>
69.84

>  <TopoPSA(NO)>
26.93

>  <TopoPSA>
26.93

>  <JGI1>
0.17

>  <JGI2>
0.09

>  <JGI3>
0.1

>  <JGI4>
0.05

>  <JGI5>
0.03

>  <Diameter>
8

>  <Radius>
4

>  <TMWC10>
107.76

>  <TSRW10>
64.54

>  <MW>
230.14

>  <AMW>
6.58

>  <WPath>
478

>  <WPol>
28

>  <Zagreb1>
88

>  <Zagreb2>
106

>  <mZagreb2>
3.78

>  <yes>


>  <nAR-cont>
0.336376

>  <nHA-cont>
0.976740822

>  <MWHBN>
0.197753965

>  <MWHBN-cont>
0.999105133

>  <TPSA-cont>
0.812011877

>  <pka_cont>
0.97

>  <yes.1>


>  <BBB_SCORE>
4.920798276

>  <MMFF94 Energy>
65.82

$$$$
Compound 2548
Actelion Java MolfileCreator 2.0

  0  0  0  0  0  0              0 V3000
M  V30 BEGIN CTAB
M  V30 COUNTS 29 30 0 0 0
M  V30 BEGIN ATOM
M  V30 1 Cl -2.0126 -4.4318 1.7709 0
M  V30 2 C -1.1325 -2.9409 1.8135 0
M  V30 3 C -0.9902 -2.1138 0.6786 0
M  V30 4 C -0.5537 -2.5937 3.0361 0
M  V30 5 C -0.2024 -0.9355 0.7812 0
M  V30 6 C -1.6307 -2.4826 -0.6372 0
M  V30 7 C 0.1847 -1.4242 3.1458 0
M  V30 8 N -0.0065 -0.1087 -0.344 0
M  V30 9 C 0.3569 -0.6089 2.028 0
M  V30 10 C 0.3671 1.2433 -0.4796 0
M  V30 11 N 0.3282 2.048 0.6143 0
M  V30 12 C 0.8034 1.7478 -1.7166 0
M  V30 13 C 0.7148 3.3376 0.4994 0
M  V30 14 C 0.875 0.9575 -2.9674 0
M  V30 15 C 1.2095 3.0894 -1.8022 0
M  V30 16 C 1.1631 3.9003 -0.6769 0
M  V30 17 O 1.4642 1.2935 -3.9795 0
M  V30 18 O 0.1734 -0.1929 -2.9408 0
M  V30 19 H -0.6752 -3.2336 3.9064 0
M  V30 20 H -2.4378 -3.2121 -0.5348 0
M  V30 21 H -0.8773 -2.8965 -1.3146 0
M  V30 22 H -2.094 -1.6053 -1.1017 0
M  V30 23 H 0.6366 -1.1462 4.0941 0
M  V30 24 H -0.2445 -0.5233 -1.2415 0
M  V30 25 H 0.9625 0.2865 2.1411 0
M  V30 26 H 0.6529 3.9205 1.4143 0
M  V30 27 H 1.5581 3.5018 -2.747 0
M  V30 28 H 1.4673 4.9401 -0.7181 0
M  V30 29 H 0.3136 -0.5586 -3.8432 0
M  V30 END ATOM
M  V30 BEGIN BOND
M  V30 1 1 1 2
M  V30 2 2 2 3
M  V30 3 1 2 4
M  V30 4 1 3 5
M  V30 5 1 3 6
M  V30 6 2 4 7
M  V30 7 1 5 8
M  V30 8 2 5 9
M  V30 9 1 8 10
M  V30 10 2 10 11
M  V30 11 1 10 12
M  V30 12 1 11 13
M  V30 13 1 12 14
M  V30 14 2 12 15
M  V30 15 2 13 16
M  V30 16 2 14 17
M  V30 17 1 14 18
M  V30 18 1 7 9
M  V30 19 1 15 16
M  V30 20 1 4 19
M  V30 21 1 6 20
M  V30 22 1 6 21
M  V30 23 1 6 22
M  V30 24 1 7 23
M  V30 25 1 8 24
M  V30 26 1 9 25
M  V30 27 1 13 26
M  V30 28 1 15 27
M  V30 29 1 16 28
M  V30 30 1 18 29
M  V30 END BOND
M  V30 END CTAB
M  END
>  <Column 1>
3161

>  <level_0>
5316

>  <index>
5317

>  <Unnamed: 0>
5317

>  <NO.>
5329

>  <Name>
clonixin

>  <IUPAC_name>
2-(3-chloro-2-methylanilino)pyridine-3-carboxylic acid

>  <SMILES>
Cc1c(Cl)cccc1Nc1ncccc1C(=O)O

>  <CID>
28718

>  <logBB>


>  <BBB+/BBB->
BBB-

>  <Inchi>
InChI=1S/C13H11ClN2O2/c1-8-10(14)5-2-6-11(8)16-12-9(13(17)18)4-3-7-15-12/h2-7H-1H3-(H-15-16)(H-17-18)

>  <threshold>


>  <reference>
R14|

>  <group>
C

>  <Class>
-1

>  <ABC>
13.71

>  <ABCGG>
11.95

>  <nAcid>
1

>  <nBase>
0

>  <nAromAtom>
12

>  <nAromBond>
12

>  <nAtom>
29

>  <nHeavyAtom>
18

>  <nSpiro>
0

>  <nBridgehead>
0

>  <nHetero>
5

>  <nN>
2

>  <nO>
2

>  <nF>
0

>  <BalabanJ>
1.93

>  <BertzCT>
599.3

>  <nBonds>
30

>  <nBondsO>
19

>  <nBondsS>
17

>  <nBondsD>
1

>  <nBondsT>
0

>  <nBondsA>
12

>  <nBondsM>
13

>  <nBondsKS>
23

>  <nBondsKD>
7

>  <RNCG>
0.29

>  <RPCG>
0.2

>  <FCSP3>
0.08

>  <SZ>
22.67

>  <Sm>
21.87

>  <Sv>
20.02

>  <Sse>
29.64

>  <Sp>
20.98

>  <Si>
32.44

>  <MZ>
0.78

>  <Mm>
0.75

>  <Mv>
0.69

>  <Mse>
1.02

>  <Mp>
0.72

>  <Mi>
1.12

>  <NsCH3>
1

>  <NdCH2>
0

>  <NssCH2>
0

>  <NtCH>
0

>  <NdsCH>
0

>  <NaaCH>
6

>  <NsssCH>
0

>  <NddC>
0

>  <NtsC>
0

>  <NdssC>
1

>  <NaasC>
5

>  <NaaaC>
0

>  <NssssC>
0

>  <NsNH3>
0

>  <NsNH2>
0

>  <NssNH2>
0

>  <NdNH>
0

>  <NssNH>
1

>  <NaaNH>
0

>  <NtN>
0

>  <NsssNH>
0

>  <NdsN>
0

>  <NaaN>
1

>  <NsssN>
0

>  <NddsN>
0

>  <NaasN>
0

>  <NssssN>
0

>  <NsOH>
1

>  <NdO>
1

>  <NssO>
0

>  <NaaO>
0

>  <NsF>
0

>  <NsSiH3>
0

>  <NssSiH2>
0

>  <NsssSiH>
0

>  <NssssSi>
0

>  <NsPH2>
0

>  <NssPH>
0

>  <NsssP>
0

>  <NdsssP>
0

>  <NsssssP>
0

>  <NsSH>
0

>  <NdS>
0

>  <NssS>
0

>  <NaaS>
0

>  <NdssS>
0

>  <NddssS>
0

>  <NsCl>
1

>  <NsBr>
0

>  <NsI>
0

>  <fragCpx>
55.05

>  <fMF>
0.45

>  <nHBAcc>
3

>  <nHBDon>
2

>  <Kier1>
14.41

>  <Kier2>
6.44

>  <Lipinski>
1

>  <GhoseFilter>
1

>  <FilterItLogS>
-4.07

>  <VMcGowan>
186.15

>  <LabuteASA>
109.25

>  <PEOE_VSA1>
10.42

>  <PEOE_VSA2>
0

>  <PEOE_VSA3>
9.78

>  <PEOE_VSA4>
0

>  <PEOE_VSA5>
0

>  <PEOE_VSA6>
17.67

>  <PEOE_VSA7>
36.75

>  <PEOE_VSA8>
16.91

>  <PEOE_VSA9>
0

>  <PEOE_VSA10>
11.38

>  <PEOE_VSA11>
0

>  <PEOE_VSA12>
0

>  <PEOE_VSA13>
0

>  <SMR_VSA1>
9.9

>  <SMR_VSA2>
0

>  <SMR_VSA3>
4.98

>  <SMR_VSA4>
0

>  <SMR_VSA5>
6.92

>  <SMR_VSA6>
5.32

>  <SMR_VSA7>
52.68

>  <SMR_VSA8>
0

>  <SMR_VSA9>
0

>  <SlogP_VSA1>
5.32

>  <SlogP_VSA2>
16.06

>  <SlogP_VSA3>
0

>  <SlogP_VSA4>
6.92

>  <SlogP_VSA5>
15.92

>  <SlogP_VSA6>
36.53

>  <SlogP_VSA7>
5.02

>  <SlogP_VSA8>
0

>  <SlogP_VSA9>
0

>  <SlogP_VSA10>
11.51

>  <SlogP_VSA11>
0

>  <EState_VSA1>
5.97

>  <EState_VSA2>
5.56

>  <EState_VSA3>
10.84

>  <EState_VSA4>
11.25

>  <EState_VSA5>
12.26

>  <EState_VSA6>
18.2

>  <EState_VSA7>
12.99

>  <EState_VSA8>
10.3

>  <EState_VSA9>
16.71

>  <EState_VSA10>
4.79

>  <VSA_EState1>
0

>  <VSA_EState2>
15.09

>  <VSA_EState3>
12.67

>  <VSA_EState4>
1.71

>  <VSA_EState5>
-0.72

>  <VSA_EState6>
8.47

>  <VSA_EState7>
1.54

>  <VSA_EState8>
1.86

>  <VSA_EState9>
0

>  <apol>
35.03

>  <bpol>
14.12

>  <nRing>
2

>  <nHRing>
1

>  <naRing>
2

>  <naHRing>
1

>  <nARing 2>
0

>  <nAHRing 2>
0

>  <nFRing>
0

>  <nFHRing>
0

>  <nFaRing>
0

>  <nFaHRing>
0

>  <nFARing 2>
0

>  <nFAHRing 2>
0

>  <nRot>
3

>  <SLogP>
3.49

>  <SMR>
70.67

>  <TopoPSA(NO)>
62.22

>  <TopoPSA>
62.22

>  <JGI1>
0.18

>  <JGI2>
0.09

>  <JGI3>
0.05

>  <JGI4>
0.04

>  <JGI5>
0.03

>  <Diameter>
8

>  <Radius>
4

>  <TMWC10>
108.25

>  <TSRW10>
50.87

>  <MW>
262.05

>  <AMW>
9.04

>  <WPath>
602

>  <WPol>
27

>  <Zagreb1>
90

>  <Zagreb2>
104

>  <mZagreb2>
4.03

>  <yes>


>  <nAR-cont>
0.336376

>  <nHA-cont>
0.991161285

>  <MWHBN>
0.308871561

>  <MWHBN-cont>
0.813448684

>  <TPSA-cont>
0.565665764

>  <pka_cont>
0.97

>  <yes.1>


>  <BBB_SCORE>
4.164041839

>  <MMFF94 Energy>
17.699

$$$$
Compound 2549
Actelion Java MolfileCreator 2.0

  0  0  0  0  0  0              0 V3000
M  V30 BEGIN CTAB
M  V30 COUNTS 38 39 0 0 0
M  V30 BEGIN ATOM
M  V30 1 S -1.1262 3.4624 0.9653 0
M  V30 2 O 0.0898 3.153 0.2441 0
M  V30 3 O -1.41 4.8023 1.4345 0
M  V30 4 O -2.3621 2.9888 0.0314 0
M  V30 5 C -1.3412 2.2793 2.3602 0
M  V30 6 N -1.6578 0.8544 2.0529 0
M  V30 7 C -0.7446 0.1097 1.3242 0
M  V30 8 C -3.0845 0.5432 1.9794 0
M  V30 9 C -0.8278 -0.0232 -0.1804 0
M  V30 10 C 0.3677 -0.5642 1.6667 0
M  V30 11 O -1.6539 0.5868 -0.8507 0
M  V30 12 N 0.2354 -0.836 -0.5676 0
M  V30 13 N 0.9931 -1.1573 0.5719 0
M  V30 14 C 0.8916 -0.7301 3.0536 0
M  V30 15 C 0.7602 -0.8791 -1.8704 0
M  V30 16 C 1.7019 -2.4269 0.6128 0
M  V30 17 C 2.092 -0.531 -2.1249 0
M  V30 18 C -0.0671 -1.2536 -2.9343 0
M  V30 19 C 2.5947 -0.575 -3.4267 0
M  V30 20 C 0.4369 -1.2982 -4.2358 0
M  V30 21 C 1.7678 -0.9617 -4.4806 0
M  V30 22 H -2.0872 2.1882 -0.4914 0
M  V30 23 H -2.128 2.7081 2.9919 0
M  V30 24 H -0.4061 2.3303 2.9302 0
M  V30 25 H -3.2411 -0.5412 1.9704 0
M  V30 26 H -3.5458 0.9635 1.0817 0
M  V30 27 H -3.6096 0.9378 2.8558 0
M  V30 28 H 1.9234 -0.3694 3.1154 0
M  V30 29 H 0.8727 -1.7836 3.3501 0
M  V30 30 H 0.3006 -0.1702 3.7855 0
M  V30 31 H 2.247 -2.6293 -0.3133 0
M  V30 32 H 2.4389 -2.431 1.4228 0
M  V30 33 H 0.999 -3.2498 0.7813 0
M  V30 34 H 2.7377 -0.2041 -1.3138 0
M  V30 35 H -1.1087 -1.5096 -2.7566 0
M  V30 36 H 3.6276 -0.2966 -3.619 0
M  V30 37 H -0.2114 -1.5879 -5.0587 0
M  V30 38 H 2.1575 -0.9897 -5.495 0
M  V30 END ATOM
M  V30 BEGIN BOND
M  V30 1 2 1 2
M  V30 2 2 1 3
M  V30 3 1 1 4
M  V30 4 1 1 5
M  V30 5 1 5 6
M  V30 6 1 6 7
M  V30 7 1 6 8
M  V30 8 1 7 9
M  V30 9 2 7 10
M  V30 10 2 9 11
M  V30 11 1 9 12
M  V30 12 1 10 13
M  V30 13 1 10 14
M  V30 14 1 12 15
M  V30 15 1 13 16
M  V30 16 2 15 17
M  V30 17 1 15 18
M  V30 18 1 17 19
M  V30 19 2 18 20
M  V30 20 2 19 21
M  V30 21 1 12 13
M  V30 22 1 20 21
M  V30 23 1 4 22
M  V30 24 1 5 23
M  V30 25 1 5 24
M  V30 26 1 8 25
M  V30 27 1 8 26
M  V30 28 1 8 27
M  V30 29 1 14 28
M  V30 30 1 14 29
M  V30 31 1 14 30
M  V30 32 1 16 31
M  V30 33 1 16 32
M  V30 34 1 16 33
M  V30 35 1 17 34
M  V30 36 1 18 35
M  V30 37 1 19 36
M  V30 38 1 20 37
M  V30 39 1 21 38
M  V30 END BOND
M  V30 END CTAB
M  END
>  <Column 1>
3162

>  <level_0>
5317

>  <index>
5318

>  <Unnamed: 0>
5318

>  <NO.>
5330

>  <Name>
dipyrone

>  <IUPAC_name>
[(1-5-dimethyl-3-oxo-2-phenylpyrazol-4-yl)-methylamino]methanesulfonic acid

>  <SMILES>
Cc1c(N(C)CS(=O)(=O)O)c(=O)n(-c2ccccc2)n1C

>  <CID>
3111

>  <logBB>


>  <BBB+/BBB->
BBB-

>  <Inchi>
InChI=1S/C13H17N3O4S/c1-10-12(14(2)9-21(18-19)20)13(17)16(15(10)3)11-7-5-4-6-8-11/h4-8H-9H2-1-3H3-(H-18-19-20)

>  <threshold>


>  <reference>
R14|

>  <group>
C

>  <Class>
-1

>  <ABC>
16.19

>  <ABCGG>
14.7

>  <nAcid>
1

>  <nBase>
0

>  <nAromAtom>
11

>  <nAromBond>
11

>  <nAtom>
38

>  <nHeavyAtom>
21

>  <nSpiro>
0

>  <nBridgehead>
0

>  <nHetero>
8

>  <nN>
3

>  <nO>
4

>  <nF>
0

>  <BalabanJ>
2.09

>  <BertzCT>
805.93

>  <nBonds>
39

>  <nBondsO>
22

>  <nBondsS>
25

>  <nBondsD>
3

>  <nBondsT>
0

>  <nBondsA>
11

>  <nBondsM>
14

>  <nBondsKS>
32

>  <nBondsKD>
7

>  <RNCG>
0.17

>  <RPCG>
0.14

>  <FCSP3>
0.31

>  <SZ>
27.33

>  <Sm>
25.92

>  <Sv>
23.93

>  <Sse>
38.94

>  <Sp>
25.42

>  <Si>
43.16

>  <MZ>
0.72

>  <Mm>
0.68

>  <Mv>
0.63

>  <Mse>
1.02

>  <Mp>
0.67

>  <Mi>
1.14

>  <NsCH3>
3

>  <NdCH2>
0

>  <NssCH2>
1

>  <NtCH>
0

>  <NdsCH>
0

>  <NaaCH>
5

>  <NsssCH>
0

>  <NddC>
0

>  <NtsC>
0

>  <NdssC>
0

>  <NaasC>
3

>  <NaaaC>
0

>  <NssssC>
0

>  <NsNH3>
0

>  <NsNH2>
0

>  <NssNH2>
0

>  <NdNH>
0

>  <NssNH>
0

>  <NaaNH>
0

>  <NtN>
0

>  <NsssNH>
0

>  <NdsN>
0

>  <NaaN>
0

>  <NsssN>
1

>  <NddsN>
0

>  <NaasN>
2

>  <NssssN>
0

>  <NsOH>
1

>  <NdO>
3

>  <NssO>
0

>  <NaaO>
0

>  <NsF>
0

>  <NsSiH3>
0

>  <NssSiH2>
0

>  <NsssSiH>
0

>  <NssssSi>
0

>  <NsPH2>
0

>  <NssPH>
0

>  <NsssP>
0

>  <NdsssP>
0

>  <NsssssP>
0

>  <NsSH>
0

>  <NdS>
0

>  <NssS>
0

>  <NaaS>
0

>  <NdssS>
0

>  <NddssS>
1

>  <NsCl>
0

>  <NsBr>
0

>  <NsI>
0

>  <fragCpx>
64.08

>  <fMF>
0.29

>  <nHBAcc>
6

>  <nHBDon>
1

>  <Kier1>
17.36

>  <Kier2>
6.63

>  <Lipinski>
1

>  <GhoseFilter>
1

>  <FilterItLogS>
-1.49

>  <VMcGowan>
220.58

>  <LabuteASA>
122.32

>  <PEOE_VSA1>
4.9

>  <PEOE_VSA2>
14.03

>  <PEOE_VSA3>
4.68

>  <PEOE_VSA4>
8.42

>  <PEOE_VSA5>
0

>  <PEOE_VSA6>
18.2

>  <PEOE_VSA7>
19.06

>  <PEOE_VSA8>
14.1

>  <PEOE_VSA9>
11.38

>  <PEOE_VSA10>
11.56

>  <PEOE_VSA11>
0

>  <PEOE_VSA12>
0

>  <PEOE_VSA13>
15.68

>  <SMR_VSA1>
12.97

>  <SMR_VSA2>
0

>  <SMR_VSA3>
9.36

>  <SMR_VSA4>
7.05

>  <SMR_VSA5>
6.92

>  <SMR_VSA6>
17.82

>  <SMR_VSA7>
46.38

>  <SMR_VSA8>
0

>  <SMR_VSA9>
5.69

>  <SlogP_VSA1>
10.46

>  <SlogP_VSA2>
35.26

>  <SlogP_VSA3>
17.17

>  <SlogP_VSA4>
6.92

>  <SlogP_VSA5>
5.69

>  <SlogP_VSA6>
35.13

>  <SlogP_VSA7>
0

>  <SlogP_VSA8>
5.69

>  <SlogP_VSA9>
0

>  <SlogP_VSA10>
5.69

>  <SlogP_VSA11>
0

>  <EState_VSA1>
15.99

>  <EState_VSA2>
11.25

>  <EState_VSA3>
11.38

>  <EState_VSA4>
0

>  <EState_VSA5>
16.63

>  <EState_VSA6>
30.79

>  <EState_VSA7>
18.2

>  <EState_VSA8>
0

>  <EState_VSA9>
4.55

>  <EState_VSA10>
13.21

>  <VSA_EState1>
34.03

>  <VSA_EState2>
13.79

>  <VSA_EState3>
0

>  <VSA_EState4>
1.18

>  <VSA_EState5>
-0.64

>  <VSA_EState6>
9.04

>  <VSA_EState7>
0

>  <VSA_EState8>
1.72

>  <VSA_EState9>
-1.04

>  <apol>
42.45

>  <bpol>
28.57

>  <nRing>
2

>  <nHRing>
1

>  <naRing>
2

>  <naHRing>
1

>  <nARing 2>
0

>  <nAHRing 2>
0

>  <nFRing>
0

>  <nFHRing>
0

>  <nFaRing>
0

>  <nFaHRing>
0

>  <nFARing 2>
0

>  <nFAHRing 2>
0

>  <nRot>
4

>  <SLogP>
0.77

>  <SMR>
80.57

>  <TopoPSA(NO)>
84.54

>  <TopoPSA>
92.92

>  <JGI1>
0.25

>  <JGI2>
0.08

>  <JGI3>
0.1

>  <JGI4>
0.04

>  <JGI5>
0.04

>  <Diameter>
10

>  <Radius>
5

>  <TMWC10>
117.53

>  <TSRW10>
69.62

>  <MW>
311.09

>  <AMW>
8.19

>  <WPath>
890

>  <WPol>
33

>  <Zagreb1>
110

>  <Zagreb2>
129

>  <mZagreb2>
4.49

>  <yes>


>  <nAR-cont>
0.336376

>  <nHA-cont>
0.994529749

>  <MWHBN>
0.396876162

>  <MWHBN-cont>
0.488362478

>  <TPSA-cont>
0.3513607

>  <pka_cont>
0.97

>  <yes.1>


>  <BBB_SCORE>
3.251170866

>  <MMFF94 Energy>
146.36

$$$$
Compound 2550
Actelion Java MolfileCreator 2.0

  0  0  0  0  0  0              0 V3000
M  V30 BEGIN CTAB
M  V30 COUNTS 39 41 0 0 0
M  V30 BEGIN ATOM
M  V30 1 S 0.8205 -3.0384 0.4922 0 CFG=2
M  V30 2 O -0.5514 -2.881 1.0866 0
M  V30 3 C 1.8345 -1.754 1.2393 0
M  V30 4 C 0.8235 -2.3831 -1.2056 0
M  V30 5 N 3.1323 -1.6269 1.0707 0
M  V30 6 N 1.3319 -0.7954 2.0748 0
M  V30 7 C 0.1006 -1.0683 -1.369 0
M  V30 8 C 3.4757 -0.521 1.8119 0
M  V30 9 C 2.3648 0.0193 2.4543 0
M  V30 10 N 0.913 0.0213 -1.3853 0
M  V30 11 C -1.2922 -0.9547 -1.4927 0
M  V30 12 C 4.728 0.0847 1.9886 0
M  V30 13 C 2.4249 1.1462 3.2762 0
M  V30 14 C 0.3548 1.2389 -1.5076 0
M  V30 15 C -1.8402 0.3391 -1.6144 0
M  V30 16 C -2.2221 -2.1392 -1.4699 0
M  V30 17 C 4.8175 1.2174 2.8083 0
M  V30 18 C 3.6838 1.7362 3.4396 0
M  V30 19 C -1.0034 1.4496 -1.6224 0
M  V30 20 O -3.2072 0.3965 -1.7162 0
M  V30 21 C -3.8174 1.6843 -1.8538 0
M  V30 22 C -5.3288 1.5487 -1.9628 0
M  V30 23 F -5.692 0.817 -3.0385 0
M  V30 24 F -5.8636 0.9756 -0.8628 0
M  V30 25 F -5.8978 2.7714 -2.0966 0
M  V30 26 H 1.8701 -2.2755 -1.5151 0
M  V30 27 H 0.3988 -3.1447 -1.866 0
M  V30 28 H 0.3589 -0.7168 2.3343 0
M  V30 29 H 5.6035 -0.3225 1.4962 0
M  V30 30 H 1.5454 1.5482 3.767 0
M  V30 31 H 1.0556 2.0693 -1.5085 0
M  V30 32 H -2.8236 -2.1235 -0.555 0
M  V30 33 H -2.8904 -2.1122 -2.3377 0
M  V30 34 H -1.7044 -3.0991 -1.5106 0
M  V30 35 H 5.7829 1.6962 2.9538 0
M  V30 36 H 3.7815 2.6164 4.0723 0
M  V30 37 H -1.3621 2.4658 -1.7138 0
M  V30 38 H -3.4464 2.1757 -2.7606 0
M  V30 39 H -3.5856 2.3001 -0.9771 0
M  V30 END ATOM
M  V30 BEGIN BOND
M  V30 1 2 1 2
M  V30 2 1 1 3
M  V30 3 1 1 4
M  V30 4 2 3 5
M  V30 5 1 3 6
M  V30 6 1 4 7
M  V30 7 1 5 8
M  V30 8 1 6 9
M  V30 9 2 7 10
M  V30 10 1 7 11
M  V30 11 1 8 12
M  V30 12 1 9 13
M  V30 13 1 10 14
M  V30 14 2 11 15
M  V30 15 1 11 16
M  V30 16 2 12 17
M  V30 17 2 13 18
M  V30 18 2 14 19
M  V30 19 1 15 20
M  V30 20 1 20 21
M  V30 21 1 21 22
M  V30 22 1 22 23
M  V30 23 1 22 24
M  V30 24 1 22 25
M  V30 25 2 8 9
M  V30 26 1 15 19
M  V30 27 1 17 18
M  V30 28 1 4 26
M  V30 29 1 4 27
M  V30 30 1 6 28
M  V30 31 1 12 29
M  V30 32 1 13 30
M  V30 33 1 14 31
M  V30 34 1 16 32
M  V30 35 1 16 33
M  V30 36 1 16 34
M  V30 37 1 17 35
M  V30 38 1 18 36
M  V30 39 1 19 37
M  V30 40 1 21 38
M  V30 41 1 21 39
M  V30 END BOND
M  V30 BEGIN COLLECTION
M  V30 MDLV30/STERAC1 ATOMS=(1 1)
M  V30 END COLLECTION
M  V30 END CTAB
M  END
>  <Column 1>
3163

>  <level_0>
5318

>  <index>
5319

>  <Unnamed: 0>
5319

>  <NO.>
5331

>  <Name>
lansoprazole

>  <IUPAC_name>
2-[[3-methyl-4-(2-2-2-trifluoroethoxy)pyridin-2-yl]methylsulfinyl]-1h-benzimidazole

>  <SMILES>
Cc1c(OCC(F)(F)F)ccnc1C[S+]([O-])c1nc2ccccc2[nH]1

>  <CID>
3883

>  <logBB>


>  <BBB+/BBB->
BBB-

>  <Inchi>
InChI=1S/C16H14F3N3O2S/c1-10-13(20-7-6-14(10)24-9-16(17-18)19)8-25(23)15-21-11-4-2-3-5-12(11)22-15/h2-7H-8-9H2-1H3-(H-21-22)

>  <threshold>


>  <reference>
R14|R15|R23|

>  <group>
C

>  <Class>
-1

>  <ABC>
19.63

>  <ABCGG>
15.82

>  <nAcid>
0

>  <nBase>
0

>  <nAromAtom>
15

>  <nAromBond>
16

>  <nAtom>
39

>  <nHeavyAtom>
25

>  <nSpiro>
0

>  <nBridgehead>
0

>  <nHetero>
9

>  <nN>
3

>  <nO>
2

>  <nF>
3

>  <BalabanJ>
1.49

>  <BertzCT>
849.43

>  <nBonds>
41

>  <nBondsO>
27

>  <nBondsS>
25

>  <nBondsD>
0

>  <nBondsT>
0

>  <nBondsA>
16

>  <nBondsM>
16

>  <nBondsKS>
34

>  <nBondsKD>
7

>  <RNCG>
0.24

>  <RPCG>
0.17

>  <FCSP3>
0.25

>  <SZ>
31.67

>  <Sm>
30.75

>  <Sv>
26.62

>  <Sse>
40.81

>  <Sp>
27.26

>  <Si>
44.76

>  <MZ>
0.81

>  <Mm>
0.79

>  <Mv>
0.68

>  <Mse>
1.05

>  <Mp>
0.7

>  <Mi>
1.15

>  <NsCH3>
1

>  <NdCH2>
0

>  <NssCH2>
2

>  <NtCH>
0

>  <NdsCH>
0

>  <NaaCH>
6

>  <NsssCH>
0

>  <NddC>
0

>  <NtsC>
0

>  <NdssC>
0

>  <NaasC>
4

>  <NaaaC>
2

>  <NssssC>
1

>  <NsNH3>
0

>  <NsNH2>
0

>  <NssNH2>
0

>  <NdNH>
0

>  <NssNH>
0

>  <NaaNH>
1

>  <NtN>
0

>  <NsssNH>
0

>  <NdsN>
0

>  <NaaN>
2

>  <NsssN>
0

>  <NddsN>
0

>  <NaasN>
0

>  <NssssN>
0

>  <NsOH>
0

>  <NdO>
0

>  <NssO>
1

>  <NaaO>
0

>  <NsF>
3

>  <NsSiH3>
0

>  <NssSiH2>
0

>  <NsssSiH>
0

>  <NssssSi>
0

>  <NsPH2>
0

>  <NssPH>
0

>  <NsssP>
0

>  <NdsssP>
0

>  <NsssssP>
0

>  <NsSH>
0

>  <NdS>
0

>  <NssS>
0

>  <NaaS>
0

>  <NdssS>
0

>  <NddssS>
0

>  <NsCl>
0

>  <NsBr>
0

>  <NsI>
0

>  <fragCpx>
129.09

>  <fMF>
0.44

>  <nHBAcc>
4

>  <nHBDon>
1

>  <Kier1>
19.75

>  <Kier2>
8.35

>  <Lipinski>
1

>  <GhoseFilter>
1

>  <FilterItLogS>
-6.08

>  <VMcGowan>
236.93

>  <LabuteASA>
143.98

>  <PEOE_VSA1>
9.29

>  <PEOE_VSA2>
9.97

>  <PEOE_VSA3>
0

>  <PEOE_VSA4>
18.16

>  <PEOE_VSA5>
0

>  <PEOE_VSA6>
12.13

>  <PEOE_VSA7>
25.12

>  <PEOE_VSA8>
22.94

>  <PEOE_VSA9>
16.73

>  <PEOE_VSA10>
5.75

>  <PEOE_VSA11>
12.36

>  <PEOE_VSA12>
0

>  <PEOE_VSA13>
0

>  <SMR_VSA1>
22.46

>  <SMR_VSA2>
0

>  <SMR_VSA3>
14.95

>  <SMR_VSA4>
0

>  <SMR_VSA5>
24.01

>  <SMR_VSA6>
6.61

>  <SMR_VSA7>
47.79

>  <SMR_VSA8>
0

>  <SMR_VSA9>
5.75

>  <SlogP_VSA1>
4.74

>  <SlogP_VSA2>
32.29

>  <SlogP_VSA3>
16.93

>  <SlogP_VSA4>
6.92

>  <SlogP_VSA5>
11.26

>  <SlogP_VSA6>
41.69

>  <SlogP_VSA7>
0

>  <SlogP_VSA8>
11.03

>  <SlogP_VSA9>
0

>  <SlogP_VSA10>
13.17

>  <SlogP_VSA11>
5.75

>  <EState_VSA1>
23.96

>  <EState_VSA2>
11.5

>  <EState_VSA3>
21.93

>  <EState_VSA4>
5.52

>  <EState_VSA5>
12.26

>  <EState_VSA6>
12.99

>  <EState_VSA7>
18.2

>  <EState_VSA8>
14.95

>  <EState_VSA9>
4.74

>  <EState_VSA10>
17.72

>  <VSA_EState1>
54.22

>  <VSA_EState2>
11.35

>  <VSA_EState3>
0.3

>  <VSA_EState4>
2.28

>  <VSA_EState5>
0.1

>  <VSA_EState6>
8.62

>  <VSA_EState7>
-3.09

>  <VSA_EState8>
0.2

>  <VSA_EState9>
0

>  <apol>
45.53

>  <bpol>
26.53

>  <nRing>
3

>  <nHRing>
2

>  <naRing>
3

>  <naHRing>
2

>  <nARing 2>
0

>  <nAHRing 2>
0

>  <nFRing>
1

>  <nFHRing>
1

>  <nFaRing>
1

>  <nFaHRing>
1

>  <nFARing 2>
0

>  <nFAHRing 2>
0

>  <nRot>
5

>  <SLogP>
3.52

>  <SMR>
86.73

>  <TopoPSA(NO)>
73.86

>  <TopoPSA>
73.86

>  <JGI1>
0.24

>  <JGI2>
0.08

>  <JGI3>
0.05

>  <JGI4>
0.05

>  <JGI5>
0.03

>  <Diameter>
13

>  <Radius>
7

>  <TMWC10>
127.08

>  <TSRW10>
73.74

>  <MW>
369.08

>  <AMW>
9.46

>  <WPath>
1631

>  <WPol>
36

>  <Zagreb1>
132

>  <Zagreb2>
152

>  <mZagreb2>
5.32

>  <yes>


>  <nAR-cont>
0.336376

>  <nHA-cont>
0.921834225

>  <MWHBN>
0.260261392

>  <MWHBN-cont>
0.94089677

>  <TPSA-cont>
0.484411336

>  <pka_cont>
0.97

>  <yes.1>


>  <BBB_SCORE>
4.123378052

>  <MMFF94 Energy>
71.384

$$$$
Compound 2551
Actelion Java MolfileCreator 2.0

  0  0  0  0  0  0              0 V3000
M  V30 BEGIN CTAB
M  V30 COUNTS 56 58 0 0 0
M  V30 BEGIN ATOM
M  V30 1 S -1.6855 -1.2037 -0.4011 0
M  V30 2 O -2.5977 -0.0822 -0.3936 0
M  V30 3 O -2.1466 -2.5282 -0.0322 0
M  V30 4 N -1.0359 -1.3859 -1.9189 0
M  V30 5 C -0.279 -0.8286 0.612 0
M  V30 6 C -0.4116 -0.387 -2.6421 0
M  V30 7 C 0.4718 -1.8696 1.1641 0
M  V30 8 C 0.0298 0.5009 0.9037 0
M  V30 9 O -0.2331 0.7443 -2.224 0
M  V30 10 N -0.0089 -0.82 -3.8721 0
M  V30 11 C 1.5558 -1.5737 1.9928 0
M  V30 12 C 1.1151 0.7911 1.7317 0
M  V30 13 C 0.6467 0.0626 -4.8293 0
M  V30 14 C 1.8877 -0.2421 2.2829 0
M  V30 15 C 1.5807 -0.7303 -5.7526 0
M  V30 16 C -0.3847 0.8638 -5.6359 0
M  V30 17 C 3.0413 0.0781 3.2056 0
M  V30 18 C 0.8273 -1.58 -6.7764 0
M  V30 19 C -1.1398 -0.0022 -6.6434 0
M  V30 20 C 2.7621 -0.2353 4.6809 0
M  V30 21 C -0.1837 -0.7534 -7.5645 0
M  V30 22 N 1.6585 0.5367 5.2101 0
M  V30 23 C 0.4016 0.0054 5.4161 0
M  V30 24 O 0.133 -1.1833 5.2712 0
M  V30 25 C -0.599 0.9919 5.8285 0
M  V30 26 N -0.2849 2.2865 6.0264 0
M  V30 27 C -1.9785 0.7686 6.0659 0
M  V30 28 O -1.465 2.9099 6.3925 0
M  V30 29 C -2.474 1.9996 6.4125 0
M  V30 30 C -3.8077 2.5066 6.7786 0
M  V30 31 H -1.1053 -2.3325 -2.2627 0
M  V30 32 H 0.2134 -2.9079 0.9708 0
M  V30 33 H -0.5626 1.3129 0.4854 0
M  V30 34 H -0.2641 -1.75 -4.1616 0
M  V30 35 H 2.1269 -2.3901 2.4301 0
M  V30 36 H 1.3452 1.8317 1.9518 0
M  V30 37 H 1.2556 0.7703 -4.2527 0
M  V30 38 H 2.2255 -0.0246 -6.2919 0
M  V30 39 H 2.2419 -1.3752 -5.1613 0
M  V30 40 H 0.1343 1.6638 -6.1792 0
M  V30 41 H -1.1037 1.3518 -4.9671 0
M  V30 42 H 3.308 1.1381 3.1043 0
M  V30 43 H 3.9211 -0.4873 2.8741 0
M  V30 44 H 1.5435 -2.0388 -7.4676 0
M  V30 45 H 0.3099 -2.4029 -6.269 0
M  V30 46 H -1.7775 -0.7192 -6.1121 0
M  V30 47 H -1.8052 0.6297 -7.2428 0
M  V30 48 H 2.568 -1.3044 4.82 0
M  V30 49 H 3.6424 0.0237 5.2788 0
M  V30 50 H -0.7539 -1.4082 -8.2331 0
M  V30 51 H 0.3493 -0.0352 -8.1997 0
M  V30 52 H 1.7632 1.5323 5.3807 0
M  V30 53 H -2.5176 -0.1636 5.9824 0
M  V30 54 H -3.7904 2.9422 7.7824 0
M  V30 55 H -4.1321 3.2775 6.0729 0
M  V30 56 H -4.5499 1.7024 6.7693 0
M  V30 END ATOM
M  V30 BEGIN BOND
M  V30 1 2 1 2
M  V30 2 2 1 3
M  V30 3 1 1 4
M  V30 4 1 1 5
M  V30 5 1 4 6
M  V30 6 2 5 7
M  V30 7 1 5 8
M  V30 8 2 6 9
M  V30 9 1 6 10
M  V30 10 1 7 11
M  V30 11 2 8 12
M  V30 12 1 10 13
M  V30 13 2 11 14
M  V30 14 1 13 15
M  V30 15 1 13 16
M  V30 16 1 14 17
M  V30 17 1 15 18
M  V30 18 1 16 19
M  V30 19 1 17 20
M  V30 20 1 18 21
M  V30 21 1 20 22
M  V30 22 1 22 23
M  V30 23 2 23 24
M  V30 24 1 23 25
M  V30 25 2 25 26
M  V30 26 1 25 27
M  V30 27 1 26 28
M  V30 28 2 27 29
M  V30 29 1 29 30
M  V30 30 1 12 14
M  V30 31 1 19 21
M  V30 32 1 28 29
M  V30 33 1 4 31
M  V30 34 1 7 32
M  V30 35 1 8 33
M  V30 36 1 10 34
M  V30 37 1 11 35
M  V30 38 1 12 36
M  V30 39 1 13 37
M  V30 40 1 15 38
M  V30 41 1 15 39
M  V30 42 1 16 40
M  V30 43 1 16 41
M  V30 44 1 17 42
M  V30 45 1 17 43
M  V30 46 1 18 44
M  V30 47 1 18 45
M  V30 48 1 19 46
M  V30 49 1 19 47
M  V30 50 1 20 48
M  V30 51 1 20 49
M  V30 52 1 21 50
M  V30 53 1 21 51
M  V30 54 1 22 52
M  V30 55 1 27 53
M  V30 56 1 30 54
M  V30 57 1 30 55
M  V30 58 1 30 56
M  V30 END BOND
M  V30 END CTAB
M  END
>  <Column 1>
3164

>  <level_0>
5319

>  <index>
5320

>  <Unnamed: 0>
5320

>  <NO.>
5332

>  <Name>
glisolamide

>  <IUPAC_name>
n-[2-[4-(cyclohexylcarbamoylsulfamoyl)phenyl]ethyl]-5-methyl-1-2-oxazole-3-carboxamide

>  <SMILES>
Cc1cc(C(=O)NCCc2ccc(S(=O)(=O)NC(=O)NC3CCCCC3)cc2)no1

>  <CID>
65713

>  <logBB>


>  <BBB+/BBB->
BBB-

>  <Inchi>
InChI=1S/C20H26N4O5S/c1-14-13-18(23-29-14)19(25)21-12-11-15-7-9-17(10-8-15)30(27-28)24-20(26)22-16-5-3-2-4-6-16/h7-10-13-16H-2-6-11-12H2-1H3-(H-21-25)(H2-22-24-26)

>  <threshold>


>  <reference>
R14|

>  <group>
C

>  <Class>
-1

>  <ABC>
23.17

>  <ABCGG>
17.68

>  <nAcid>
0

>  <nBase>
0

>  <nAromAtom>
11

>  <nAromBond>
11

>  <nAtom>
56

>  <nHeavyAtom>
30

>  <nSpiro>
0

>  <nBridgehead>
0

>  <nHetero>
10

>  <nN>
4

>  <nO>
5

>  <nF>
0

>  <BalabanJ>
1.31

>  <BertzCT>
978.88

>  <nBonds>
58

>  <nBondsO>
32

>  <nBondsS>
43

>  <nBondsD>
4

>  <nBondsT>
0

>  <nBondsA>
11

>  <nBondsM>
15

>  <nBondsKS>
49

>  <nBondsKD>
9

>  <RNCG>
0.13

>  <RPCG>
0.12

>  <FCSP3>
0.45

>  <SZ>
38.33

>  <Sm>
36.18

>  <Sv>
34.84

>  <Sse>
56.92

>  <Sp>
37.15

>  <Si>
63.53

>  <MZ>
0.68

>  <Mm>
0.65

>  <Mv>
0.62

>  <Mse>
1.02

>  <Mp>
0.66

>  <Mi>
1.13

>  <NsCH3>
1

>  <NdCH2>
0

>  <NssCH2>
7

>  <NtCH>
0

>  <NdsCH>
0

>  <NaaCH>
5

>  <NsssCH>
1

>  <NddC>
0

>  <NtsC>
0

>  <NdssC>
2

>  <NaasC>
4

>  <NaaaC>
0

>  <NssssC>
0

>  <NsNH3>
0

>  <NsNH2>
0

>  <NssNH2>
0

>  <NdNH>
0

>  <NssNH>
3

>  <NaaNH>
0

>  <NtN>
0

>  <NsssNH>
0

>  <NdsN>
0

>  <NaaN>
1

>  <NsssN>
0

>  <NddsN>
0

>  <NaasN>
0

>  <NssssN>
0

>  <NsOH>
0

>  <NdO>
4

>  <NssO>
0

>  <NaaO>
1

>  <NsF>
0

>  <NsSiH3>
0

>  <NssSiH2>
0

>  <NsssSiH>
0

>  <NssssSi>
0

>  <NsPH2>
0

>  <NssPH>
0

>  <NsssP>
0

>  <NdsssP>
0

>  <NsssssP>
0

>  <NsSH>
0

>  <NdS>
0

>  <NssS>
0

>  <NaaS>
0

>  <NdssS>
0

>  <NddssS>
1

>  <NsCl>
0

>  <NsBr>
0

>  <NsI>
0

>  <fragCpx>
154.1

>  <fMF>
0.45

>  <nHBAcc>
6

>  <nHBDon>
3

>  <Kier1>
24.64

>  <Kier2>
11.74

>  <Lipinski>
1

>  <GhoseFilter>
1

>  <FilterItLogS>
-5.5

>  <VMcGowan>
315.6

>  <LabuteASA>
175.2

>  <PEOE_VSA1>
15.16

>  <PEOE_VSA2>
4.79

>  <PEOE_VSA3>
17.93

>  <PEOE_VSA4>
0

>  <PEOE_VSA5>
0

>  <PEOE_VSA6>
36.55

>  <PEOE_VSA7>
43.88

>  <PEOE_VSA8>
18.65

>  <PEOE_VSA9>
4.9

>  <PEOE_VSA10>
5.76

>  <PEOE_VSA11>
5.69

>  <PEOE_VSA12>
0

>  <PEOE_VSA13>
15.93

>  <SMR_VSA1>
22.53

>  <SMR_VSA2>
0

>  <SMR_VSA3>
20.51

>  <SMR_VSA4>
0

>  <SMR_VSA5>
56.39

>  <SMR_VSA6>
6.54

>  <SMR_VSA7>
47.35

>  <SMR_VSA8>
0

>  <SMR_VSA9>
0

>  <SlogP_VSA1>
15.36

>  <SlogP_VSA2>
38.1

>  <SlogP_VSA3>
16.44

>  <SlogP_VSA4>
6.92

>  <SlogP_VSA5>
53.92

>  <SlogP_VSA6>
39.75

>  <SlogP_VSA7>
0

>  <SlogP_VSA8>
0

>  <SlogP_VSA9>
0

>  <SlogP_VSA10>
4.79

>  <SlogP_VSA11>
0

>  <EState_VSA1>
16.05

>  <EState_VSA2>
22.54

>  <EState_VSA3>
18.73

>  <EState_VSA4>
37.67

>  <EState_VSA5>
12.13

>  <EState_VSA6>
25.12

>  <EState_VSA7>
0

>  <EState_VSA8>
20.51

>  <EState_VSA9>
4.52

>  <EState_VSA10>
18.01

>  <VSA_EState1>
31.76

>  <VSA_EState2>
23.96

>  <VSA_EState3>
9.1

>  <VSA_EState4>
1.06

>  <VSA_EState5>
0.22

>  <VSA_EState6>
7.05

>  <VSA_EState7>
5.48

>  <VSA_EState8>
2.06

>  <VSA_EState9>
-3.95

>  <apol>
62.05

>  <bpol>
37.92

>  <nRing>
3

>  <nHRing>
1

>  <naRing>
2

>  <naHRing>
1

>  <nARing 2>
1

>  <nAHRing 2>
0

>  <nFRing>
0

>  <nFHRing>
0

>  <nFaRing>
0

>  <nFaHRing>
0

>  <nFARing 2>
0

>  <nFAHRing 2>
0

>  <nRot>
7

>  <SLogP>
2.28

>  <SMR>
109.45

>  <TopoPSA(NO)>
130.4

>  <TopoPSA>
138.78

>  <JGI1>
0.23

>  <JGI2>
0.08

>  <JGI3>
0.05

>  <JGI4>
0.03

>  <JGI5>
0.03

>  <Diameter>
19

>  <Radius>
10

>  <TMWC10>
137.52

>  <TSRW10>
78.82

>  <MW>
434.16

>  <AMW>
7.75

>  <WPath>
3106

>  <WPol>
41

>  <Zagreb1>
152

>  <Zagreb2>
172

>  <mZagreb2>
6.57

>  <yes>


>  <nAR-cont>
0.816016

>  <nHA-cont>
0.74523694

>  <MWHBN>
0.431934213

>  <MWHBN-cont>
0.3524027

>  <TPSA-cont>
0

>  <pka_cont>
0.97

>  <yes.1>


>  <BBB_SCORE>
2.57485699

>  <MMFF94 Energy>
-149.81

$$$$
Compound 2552
Actelion Java MolfileCreator 2.0

  0  0  0  0  0  0              0 V3000
M  V30 BEGIN CTAB
M  V30 COUNTS 58 60 0 0 0
M  V30 BEGIN ATOM
M  V30 1 S -1.443 0.1602 -4.0928 0
M  V30 2 O -0.37 -0.4288 -4.8602 0
M  V30 3 O -2.3604 1.0965 -4.714 0
M  V30 4 N -2.4154 -1.0337 -3.4754 0
M  V30 5 C -0.7777 0.9541 -2.6528 0
M  V30 6 C -1.9695 -2.1198 -2.7334 0
M  V30 7 C 0.4717 0.57 -2.1634 0
M  V30 8 C -1.4809 2.0055 -2.0572 0
M  V30 9 O -0.7999 -2.271 -2.4179 0
M  V30 10 N -2.9998 -2.9756 -2.3953 0
M  V30 11 C 1.006 1.2202 -1.0502 0
M  V30 12 C -0.9402 2.6554 -0.9461 0
M  V30 13 N -2.7524 -4.1237 -1.6188 0
M  V30 14 C 0.3031 2.2635 -0.43 0
M  V30 15 C -2.8609 -5.3503 -2.4102 0
M  V30 16 C -3.5196 -4.0994 -0.372 0
M  V30 17 C 0.899 2.9772 0.7583 0
M  V30 18 C -2.1675 -6.5812 -1.7961 0
M  V30 19 C -3.4539 -5.3665 0.4823 0
M  V30 20 C 1.857 4.0905 0.3296 0
M  V30 21 C -1.278 -6.283 -0.5882 0
M  V30 22 C -2.049 -5.9307 0.6893 0
M  V30 23 N 2.3879 4.8183 1.4615 0
M  V30 24 C 3.4292 4.3437 2.2307 0
M  V30 25 O 3.9768 3.2638 2.0307 0
M  V30 26 C 3.8265 5.2387 3.3191 0
M  V30 27 N 3.2067 6.4136 3.5383 0
M  V30 28 C 4.8612 5.0337 4.2662 0
M  V30 29 O 3.8403 6.9775 4.6314 0
M  V30 30 C 4.828 6.1497 5.0626 0
M  V30 31 C 5.6049 6.6072 6.2274 0
M  V30 32 H -3.3935 -0.8863 -3.6762 0
M  V30 33 H 1.0267 -0.2406 -2.6328 0
M  V30 34 H -2.4402 2.3298 -2.4534 0
M  V30 35 H -3.9374 -2.7949 -2.7259 0
M  V30 36 H 1.9764 0.9065 -0.6684 0
M  V30 37 H -1.4926 3.4732 -0.4878 0
M  V30 38 H -2.3848 -5.1805 -3.3859 0
M  V30 39 H -3.9107 -5.583 -2.6313 0
M  V30 40 H -4.5776 -3.8938 -0.5837 0
M  V30 41 H -3.1553 -3.2608 0.2354 0
M  V30 42 H 1.4149 2.2495 1.3976 0
M  V30 43 H 0.0959 3.3935 1.3803 0
M  V30 44 H -2.9179 -7.3334 -1.5243 0
M  V30 45 H -1.5463 -7.0454 -2.5727 0
M  V30 46 H -3.8867 -5.1428 1.4658 0
M  V30 47 H -4.1024 -6.1374 0.0486 0
M  V30 48 H 2.6954 3.6792 -0.2446 0
M  V30 49 H 1.3434 4.8198 -0.3065 0
M  V30 50 H -0.6511 -7.1591 -0.3801 0
M  V30 51 H -0.5784 -5.4742 -0.8339 0
M  V30 52 H -1.4504 -5.2318 1.2861 0
M  V30 53 H -2.1435 -6.8402 1.2964 0
M  V30 54 H 2.0078 5.726 1.7133 0
M  V30 55 H 5.5265 4.1861 4.3404 0
M  V30 56 H 6.101 7.5576 6.0085 0
M  V30 57 H 4.9506 6.7501 7.0928 0
M  V30 58 H 6.3731 5.8767 6.4987 0
M  V30 END ATOM
M  V30 BEGIN BOND
M  V30 1 2 1 2
M  V30 2 2 1 3
M  V30 3 1 1 4
M  V30 4 1 1 5
M  V30 5 1 4 6
M  V30 6 2 5 7
M  V30 7 1 5 8
M  V30 8 2 6 9
M  V30 9 1 6 10
M  V30 10 1 7 11
M  V30 11 2 8 12
M  V30 12 1 10 13
M  V30 13 2 11 14
M  V30 14 1 13 15
M  V30 15 1 13 16
M  V30 16 1 14 17
M  V30 17 1 15 18
M  V30 18 1 16 19
M  V30 19 1 17 20
M  V30 20 1 18 21
M  V30 21 1 19 22
M  V30 22 1 20 23
M  V30 23 1 23 24
M  V30 24 2 24 25
M  V30 25 1 24 26
M  V30 26 2 26 27
M  V30 27 1 26 28
M  V30 28 1 27 29
M  V30 29 2 28 30
M  V30 30 1 30 31
M  V30 31 1 12 14
M  V30 32 1 21 22
M  V30 33 1 29 30
M  V30 34 1 4 32
M  V30 35 1 7 33
M  V30 36 1 8 34
M  V30 37 1 10 35
M  V30 38 1 11 36
M  V30 39 1 12 37
M  V30 40 1 15 38
M  V30 41 1 15 39
M  V30 42 1 16 40
M  V30 43 1 16 41
M  V30 44 1 17 42
M  V30 45 1 17 43
M  V30 46 1 18 44
M  V30 47 1 18 45
M  V30 48 1 19 46
M  V30 49 1 19 47
M  V30 50 1 20 48
M  V30 51 1 20 49
M  V30 52 1 21 50
M  V30 53 1 21 51
M  V30 54 1 22 52
M  V30 55 1 22 53
M  V30 56 1 23 54
M  V30 57 1 28 55
M  V30 58 1 31 56
M  V30 59 1 31 57
M  V30 60 1 31 58
M  V30 END BOND
M  V30 END CTAB
M  END
>  <Column 1>
3165

>  <level_0>
5320

>  <index>
5321

>  <Unnamed: 0>
5321

>  <NO.>
5333

>  <Name>
glisoxepide

>  <IUPAC_name>
n-[2-[4-(azepan-1-ylcarbamoylsulfamoyl)phenyl]ethyl]-5-methyl-1-2-oxazole-3-carboxamide

>  <SMILES>
Cc1cc(C(=O)NCCc2ccc(S(=O)(=O)NC(=O)NN3CCCCCC3)cc2)no1

>  <CID>
32778

>  <logBB>


>  <BBB+/BBB->
BBB-

>  <Inchi>
InChI=1S/C20H27N5O5S/c1-15-14-18(23-30-15)19(26)21-11-10-16-6-8-17(9-7-16)31(28-29)24-20(27)22-25-12-4-2-3-5-13-25/h6-9-14H-2-5-10-13H2-1H3-(H-21-26)(H2-22-24-27)

>  <threshold>


>  <reference>
R14|R23|

>  <group>
C

>  <Class>
-1

>  <ABC>
23.88

>  <ABCGG>
18.23

>  <nAcid>
0

>  <nBase>
0

>  <nAromAtom>
11

>  <nAromBond>
11

>  <nAtom>
58

>  <nHeavyAtom>
31

>  <nSpiro>
0

>  <nBridgehead>
0

>  <nHetero>
11

>  <nN>
5

>  <nO>
5

>  <nF>
0

>  <BalabanJ>
1.32

>  <BertzCT>
995.22

>  <nBonds>
60

>  <nBondsO>
33

>  <nBondsS>
45

>  <nBondsD>
4

>  <nBondsT>
0

>  <nBondsA>
11

>  <nBondsM>
15

>  <nBondsKS>
51

>  <nBondsKD>
9

>  <RNCG>
0.13

>  <RPCG>
0.12

>  <FCSP3>
0.45

>  <SZ>
39.67

>  <Sm>
37.43

>  <Sv>
35.87

>  <Sse>
59.03

>  <Sp>
38.21

>  <Si>
66.03

>  <MZ>
0.68

>  <Mm>
0.65

>  <Mv>
0.62

>  <Mse>
1.02

>  <Mp>
0.66

>  <Mi>
1.14

>  <NsCH3>
1

>  <NdCH2>
0

>  <NssCH2>
8

>  <NtCH>
0

>  <NdsCH>
0

>  <NaaCH>
5

>  <NsssCH>
0

>  <NddC>
0

>  <NtsC>
0

>  <NdssC>
2

>  <NaasC>
4

>  <NaaaC>
0

>  <NssssC>
0

>  <NsNH3>
0

>  <NsNH2>
0

>  <NssNH2>
0

>  <NdNH>
0

>  <NssNH>
3

>  <NaaNH>
0

>  <NtN>
0

>  <NsssNH>
0

>  <NdsN>
0

>  <NaaN>
1

>  <NsssN>
1

>  <NddsN>
0

>  <NaasN>
0

>  <NssssN>
0

>  <NsOH>
0

>  <NdO>
4

>  <NssO>
0

>  <NaaO>
1

>  <NsF>
0

>  <NsSiH3>
0

>  <NssSiH2>
0

>  <NsssSiH>
0

>  <NssssSi>
0

>  <NsPH2>
0

>  <NssPH>
0

>  <NsssP>
0

>  <NdsssP>
0

>  <NsssssP>
0

>  <NsSH>
0

>  <NdS>
0

>  <NssS>
0

>  <NaaS>
0

>  <NdssS>
0

>  <NddssS>
1

>  <NsCl>
0

>  <NsBr>
0

>  <NsI>
0

>  <fragCpx>
159.11

>  <fMF>
0.45

>  <nHBAcc>
7

>  <nHBDon>
3

>  <Kier1>
25.62

>  <Kier2>
12.46

>  <Lipinski>
1

>  <GhoseFilter>
1

>  <FilterItLogS>
-5.05

>  <VMcGowan>
325.58

>  <LabuteASA>
180.93

>  <PEOE_VSA1>
9.84

>  <PEOE_VSA2>
10.22

>  <PEOE_VSA3>
22.94

>  <PEOE_VSA4>
0

>  <PEOE_VSA5>
0

>  <PEOE_VSA6>
30.13

>  <PEOE_VSA7>
43.88

>  <PEOE_VSA8>
25.7

>  <PEOE_VSA9>
4.9

>  <PEOE_VSA10>
5.76

>  <PEOE_VSA11>
5.69

>  <PEOE_VSA12>
0

>  <PEOE_VSA13>
15.93

>  <SMR_VSA1>
22.53

>  <SMR_VSA2>
0

>  <SMR_VSA3>
25.63

>  <SMR_VSA4>
0

>  <SMR_VSA5>
43.92

>  <SMR_VSA6>
19.63

>  <SMR_VSA7>
47.35

>  <SMR_VSA8>
0

>  <SMR_VSA9>
0

>  <SlogP_VSA1>
15.46

>  <SlogP_VSA2>
50.16

>  <SlogP_VSA3>
16.44

>  <SlogP_VSA4>
6.92

>  <SlogP_VSA5>
47.5

>  <SlogP_VSA6>
39.75

>  <SlogP_VSA7>
0

>  <SlogP_VSA8>
0

>  <SlogP_VSA9>
0

>  <SlogP_VSA10>
4.79

>  <SlogP_VSA11>
0

>  <EState_VSA1>
16.05

>  <EState_VSA2>
16.5

>  <EState_VSA3>
31.82

>  <EState_VSA4>
31.25

>  <EState_VSA5>
12.13

>  <EState_VSA6>
30.13

>  <EState_VSA7>
4.72

>  <EState_VSA8>
15.9

>  <EState_VSA9>
4.52

>  <EState_VSA10>
18.01

>  <VSA_EState1>
31.84

>  <VSA_EState2>
24.03

>  <VSA_EState3>
8.12

>  <VSA_EState4>
3.65

>  <VSA_EState5>
0.21

>  <VSA_EState6>
6.93

>  <VSA_EState7>
4.65

>  <VSA_EState8>
3.46

>  <VSA_EState9>
-3.98

>  <apol>
63.81

>  <bpol>
39.49

>  <nRing>
3

>  <nHRing>
2

>  <naRing>
2

>  <naHRing>
1

>  <nARing 2>
1

>  <nAHRing 2>
1

>  <nFRing>
0

>  <nFHRing>
0

>  <nFaRing>
0

>  <nFaHRing>
0

>  <nFARing 2>
0

>  <nFAHRing 2>
0

>  <nRot>
7

>  <SLogP>
1.73

>  <SMR>
112.61

>  <TopoPSA(NO)>
133.64

>  <TopoPSA>
142.02

>  <JGI1>
0.23

>  <JGI2>
0.08

>  <JGI3>
0.05

>  <JGI4>
0.03

>  <JGI5>
0.03

>  <Diameter>
19

>  <Radius>
10

>  <TMWC10>
139.66

>  <TSRW10>
80.17

>  <MW>
449.17

>  <AMW>
7.74

>  <WPath>
3397

>  <WPol>
45

>  <Zagreb1>
156

>  <Zagreb2>
176

>  <mZagreb2>
6.82

>  <yes>


>  <nAR-cont>
0.816016

>  <nHA-cont>
0.702745138

>  <MWHBN>
0.471839863

>  <MWHBN-cont>
0

>  <TPSA-cont>
0

>  <pka_cont>
0.97

>  <yes.1>


>  <BBB_SCORE>
2.003761138

>  <MMFF94 Energy>
-67.614

$$$$
Compound 2553
Actelion Java MolfileCreator 2.0

  0  0  0  0  0  0              0 V3000
M  V30 BEGIN CTAB
M  V30 COUNTS 23 24 0 0 0
M  V30 BEGIN ATOM
M  V30 1 O -0.3952 -2.0566 -1.5025 0
M  V30 2 C 0.1062 -1.0051 -0.772 0
M  V30 3 C -0.8223 -0.2073 -0.0598 0
M  V30 4 C 1.486 -0.7436 -0.7416 0
M  V30 5 C -0.3452 0.8836 0.7033 0
M  V30 6 C -2.2119 -0.4581 -0.0808 0
M  V30 7 C 1.9413 0.3404 0.0189 0
M  V30 8 C 2.4835 -1.5797 -1.4909 0
M  V30 9 C 1.039 1.1368 0.7269 0
M  V30 10 C -1.2699 1.6791 1.4134 0
M  V30 11 C -3.11 0.3409 0.6285 0
M  V30 12 O 1.5128 2.1929 1.4642 0
M  V30 13 C -2.6384 1.411 1.3767 0
M  V30 14 H 0.3267 -2.527 -1.9435 0
M  V30 15 H -2.602 -1.2921 -0.6612 0
M  V30 16 H 3.0047 0.5599 0.0558 0
M  V30 17 H 3.5071 -1.2193 -1.3432 0
M  V30 18 H 2.2752 -1.5463 -2.565 0
M  V30 19 H 2.4467 -2.6167 -1.1422 0
M  V30 20 H -0.9167 2.5219 2.0048 0
M  V30 21 H -4.1739 0.1239 0.5936 0
M  V30 22 H 2.4783 2.2318 1.3771 0
M  V30 23 H -3.3299 2.0384 1.9321 0
M  V30 END ATOM
M  V30 BEGIN BOND
M  V30 1 1 1 2
M  V30 2 1 2 3
M  V30 3 2 2 4
M  V30 4 1 3 5
M  V30 5 2 3 6
M  V30 6 1 4 7
M  V30 7 1 4 8
M  V30 8 1 5 9
M  V30 9 2 5 10
M  V30 10 1 6 11
M  V30 11 1 9 12
M  V30 12 1 10 13
M  V30 13 2 7 9
M  V30 14 2 11 13
M  V30 15 1 1 14
M  V30 16 1 6 15
M  V30 17 1 7 16
M  V30 18 1 8 17
M  V30 19 1 8 18
M  V30 20 1 8 19
M  V30 21 1 10 20
M  V30 22 1 11 21
M  V30 23 1 12 22
M  V30 24 1 13 23
M  V30 END BOND
M  V30 END CTAB
M  END
>  <Column 1>
3167

>  <level_0>
5322

>  <index>
5323

>  <Unnamed: 0>
5323

>  <NO.>
5335

>  <Name>
menadiol

>  <IUPAC_name>
2-methylnaphthalene-1-4-diol

>  <SMILES>
Cc1cc(O)c2ccccc2c1O

>  <CID>
10209

>  <logBB>


>  <BBB+/BBB->
BBB-

>  <Inchi>
InChI=1S/C11H10O2/c1-7-6-10(12)8-4-2-3-5-9(8)11(7)13/h2-6-12-13H-1H3

>  <threshold>


>  <reference>
R14|

>  <group>
C

>  <Class>
-1

>  <ABC>
10.07

>  <ABCGG>
8.93

>  <nAcid>
0

>  <nBase>
0

>  <nAromAtom>
10

>  <nAromBond>
11

>  <nAtom>
23

>  <nHeavyAtom>
13

>  <nSpiro>
0

>  <nBridgehead>
0

>  <nHetero>
2

>  <nN>
0

>  <nO>
2

>  <nF>
0

>  <BalabanJ>
2.1

>  <BertzCT>
460.84

>  <nBonds>
24

>  <nBondsO>
14

>  <nBondsS>
13

>  <nBondsD>
0

>  <nBondsT>
0

>  <nBondsA>
11

>  <nBondsM>
11

>  <nBondsKS>
19

>  <nBondsKD>
5

>  <RNCG>
0.39

>  <RPCG>
0.23

>  <FCSP3>
0.09

>  <SZ>
15.33

>  <Sm>
14.5

>  <Sv>
15.14

>  <Sse>
23.1

>  <Sp>
15.95

>  <Si>
25.5

>  <MZ>
0.67

>  <Mm>
0.63

>  <Mv>
0.66

>  <Mse>
1

>  <Mp>
0.69

>  <Mi>
1.11

>  <NsCH3>
1

>  <NdCH2>
0

>  <NssCH2>
0

>  <NtCH>
0

>  <NdsCH>
0

>  <NaaCH>
5

>  <NsssCH>
0

>  <NddC>
0

>  <NtsC>
0

>  <NdssC>
0

>  <NaasC>
3

>  <NaaaC>
2

>  <NssssC>
0

>  <NsNH3>
0

>  <NsNH2>
0

>  <NssNH2>
0

>  <NdNH>
0

>  <NssNH>
0

>  <NaaNH>
0

>  <NtN>
0

>  <NsssNH>
0

>  <NdsN>
0

>  <NaaN>
0

>  <NsssN>
0

>  <NddsN>
0

>  <NaasN>
0

>  <NssssN>
0

>  <NsOH>
2

>  <NdO>
0

>  <NssO>
0

>  <NaaO>
0

>  <NsF>
0

>  <NsSiH3>
0

>  <NssSiH2>
0

>  <NsssSiH>
0

>  <NssssSi>
0

>  <NsPH2>
0

>  <NssPH>
0

>  <NsssP>
0

>  <NdsssP>
0

>  <NsssssP>
0

>  <NsSH>
0

>  <NdS>
0

>  <NssS>
0

>  <NaaS>
0

>  <NdssS>
0

>  <NddssS>
0

>  <NsCl>
0

>  <NsBr>
0

>  <NsI>
0

>  <fragCpx>
40.02

>  <fMF>
0.43

>  <nHBAcc>
2

>  <nHBDon>
2

>  <Kier1>
9.55

>  <Kier2>
3.63

>  <Lipinski>
1

>  <GhoseFilter>
1

>  <FilterItLogS>
-2.55

>  <VMcGowan>
134.37

>  <LabuteASA>
76.07

>  <PEOE_VSA1>
10.21

>  <PEOE_VSA2>
0

>  <PEOE_VSA3>
0

>  <PEOE_VSA4>
0

>  <PEOE_VSA5>
0

>  <PEOE_VSA6>
24.27

>  <PEOE_VSA7>
18.55

>  <PEOE_VSA8>
10.77

>  <PEOE_VSA9>
0

>  <PEOE_VSA10>
11.5

>  <PEOE_VSA11>
0

>  <PEOE_VSA12>
0

>  <PEOE_VSA13>
0

>  <SMR_VSA1>
10.21

>  <SMR_VSA2>
0

>  <SMR_VSA3>
0

>  <SMR_VSA4>
0

>  <SMR_VSA5>
6.92

>  <SMR_VSA6>
0

>  <SMR_VSA7>
35.9

>  <SMR_VSA8>
0

>  <SMR_VSA9>
11.5

>  <SlogP_VSA1>
0

>  <SlogP_VSA2>
10.21

>  <SlogP_VSA3>
0

>  <SlogP_VSA4>
6.92

>  <SlogP_VSA5>
5.56

>  <SlogP_VSA6>
30.33

>  <SlogP_VSA7>
0

>  <SlogP_VSA8>
10.77

>  <SlogP_VSA9>
0

>  <SlogP_VSA10>
0

>  <SlogP_VSA11>
11.5

>  <EState_VSA1>
0

>  <EState_VSA2>
11.5

>  <EState_VSA3>
16.34

>  <EState_VSA4>
0

>  <EState_VSA5>
0

>  <EState_VSA6>
25.12

>  <EState_VSA7>
12.13

>  <EState_VSA8>
0

>  <EState_VSA9>
0

>  <EState_VSA10>
10.21

>  <VSA_EState1>
0

>  <VSA_EState2>
0

>  <VSA_EState3>
20.62

>  <VSA_EState4>
0.69

>  <VSA_EState5>
0.46

>  <VSA_EState6>
8.8

>  <VSA_EState7>
0

>  <VSA_EState8>
1.77

>  <VSA_EState9>
0

>  <apol>
26.64

>  <bpol>
10.03

>  <nRing>
2

>  <nHRing>
0

>  <naRing>
2

>  <naHRing>
0

>  <nARing 2>
0

>  <nAHRing 2>
0

>  <nFRing>
1

>  <nFHRing>
0

>  <nFaRing>
1

>  <nFaHRing>
0

>  <nFARing 2>
0

>  <nFAHRing 2>
0

>  <nRot>
0

>  <SLogP>
2.56

>  <SMR>
52.01

>  <TopoPSA(NO)>
40.46

>  <TopoPSA>
40.46

>  <JGI1>
0.18

>  <JGI2>
0.1

>  <JGI3>
0.06

>  <JGI4>
0.06

>  <JGI5>
0.03

>  <Diameter>
6

>  <Radius>
3

>  <TMWC10>
96.74

>  <TSRW10>
44.83

>  <MW>
174.07

>  <AMW>
7.57

>  <WPath>
218

>  <WPol>
21

>  <Zagreb1>
68

>  <Zagreb2>
81

>  <mZagreb2>
2.86

>  <yes>


>  <nAR-cont>
0.336376

>  <nHA-cont>
0.841215992

>  <MWHBN>
0.303178239

>  <MWHBN-cont>
0.831140197

>  <TPSA-cont>
0.717564076

>  <pka_cont>
0.97

>  <yes.1>


>  <BBB_SCORE>
4.344430439

>  <MMFF94 Energy>
33.082

$$$$
Compound 2554
Actelion Java MolfileCreator 2.0

  0  0  0  0  0  0              0 V3000
M  V30 BEGIN CTAB
M  V30 COUNTS 29 31 0 0 0
M  V30 BEGIN ATOM
M  V30 1 O 2.8129 3.1348 2.4911 0
M  V30 2 C 1.9814 2.5793 1.7832 0
M  V30 3 O 1.9283 1.2066 1.6337 0
M  V30 4 C 0.9804 3.3593 1.0439 0
M  V30 5 C 0.9612 0.5734 0.8113 0
M  V30 6 C 0.0472 2.8079 0.255 0
M  V30 7 C 0.0159 1.3424 0.1158 0
M  V30 8 C 1.03 -0.8346 0.7565 0
M  V30 9 C -0.95 3.6591 -0.4757 0
M  V30 10 C -0.9265 0.6797 -0.6892 0
M  V30 11 C 0.0641 -1.425 -0.0615 0
M  V30 12 C 2.0581 -1.6097 1.518 0
M  V30 13 C -0.8998 -0.7257 -0.7775 0
M  V30 14 O -0.0774 -2.7642 -0.2791 0
M  V30 15 C -1.6646 -1.7058 -1.4652 0
M  V30 16 C -1.1267 -2.9295 -1.1307 0
M  V30 17 C -1.4526 -4.3205 -1.4997 0
M  V30 18 H 1.0529 4.4319 1.1856 0
M  V30 19 H -0.8607 3.5207 -1.5584 0
M  V30 20 H -0.8014 4.7258 -0.2735 0
M  V30 21 H -1.9719 3.4122 -0.1683 0
M  V30 22 H -1.6808 1.2217 -1.2498 0
M  V30 23 H 3.0643 -1.3171 1.2013 0
M  V30 24 H 1.9551 -2.6864 1.3516 0
M  V30 25 H 1.9525 -1.4257 2.5919 0
M  V30 26 H -2.505 -1.5392 -2.124 0
M  V30 27 H -2.3056 -4.3557 -2.1843 0
M  V30 28 H -0.5993 -4.7955 -1.9934 0
M  V30 29 H -1.7059 -4.9035 -0.609 0
M  V30 END ATOM
M  V30 BEGIN BOND
M  V30 1 2 1 2
M  V30 2 1 2 3
M  V30 3 1 2 4
M  V30 4 1 3 5
M  V30 5 2 4 6
M  V30 6 2 5 7
M  V30 7 1 5 8
M  V30 8 1 6 9
M  V30 9 1 7 10
M  V30 10 2 8 11
M  V30 11 1 8 12
M  V30 12 2 10 13
M  V30 13 1 11 14
M  V30 14 1 13 15
M  V30 15 1 14 16
M  V30 16 1 16 17
M  V30 17 1 6 7
M  V30 18 1 11 13
M  V30 19 2 15 16
M  V30 20 1 4 18
M  V30 21 1 9 19
M  V30 22 1 9 20
M  V30 23 1 9 21
M  V30 24 1 10 22
M  V30 25 1 12 23
M  V30 26 1 12 24
M  V30 27 1 12 25
M  V30 28 1 15 26
M  V30 29 1 17 27
M  V30 30 1 17 28
M  V30 31 1 17 29
M  V30 END BOND
M  V30 END CTAB
M  END
>  <Column 1>
3168

>  <level_0>
5323

>  <index>
5324

>  <Unnamed: 0>
5324

>  <NO.>
5336

>  <Name>
trioxsalen

>  <IUPAC_name>
2-5-9-trimethylfuro[3-2-g]chromen-7-one

>  <SMILES>
Cc1cc2cc3c(C)cc(=O)oc3c(C)c2o1

>  <CID>
5585

>  <logBB>


>  <BBB+/BBB->
BBB-

>  <Inchi>
InChI=1S/C14H12O3/c1-7-4-12(15)17-14-9(3)13-10(6-11(7)14)5-8(2)16-13/h4-6H-1-3H3

>  <threshold>


>  <reference>
R14|R23|

>  <group>
C

>  <Class>
-1

>  <ABC>
13.67

>  <ABCGG>
11.66

>  <nAcid>
0

>  <nBase>
0

>  <nAromAtom>
13

>  <nAromBond>
15

>  <nAtom>
29

>  <nHeavyAtom>
17

>  <nSpiro>
0

>  <nBridgehead>
0

>  <nHetero>
3

>  <nN>
0

>  <nO>
3

>  <nF>
0

>  <BalabanJ>
1.81

>  <BertzCT>
790.42

>  <nBonds>
31

>  <nBondsO>
19

>  <nBondsS>
15

>  <nBondsD>
1

>  <nBondsT>
0

>  <nBondsA>
15

>  <nBondsM>
16

>  <nBondsKS>
25

>  <nBondsKD>
6

>  <RNCG>
0.36

>  <RPCG>
0.26

>  <FCSP3>
0.21

>  <SZ>
20

>  <Sm>
19

>  <Sv>
19.4

>  <Sse>
29.32

>  <Sp>
20.23

>  <Si>
32.12

>  <MZ>
0.69

>  <Mm>
0.66

>  <Mv>
0.67

>  <Mse>
1.01

>  <Mp>
0.7

>  <Mi>
1.11

>  <NsCH3>
3

>  <NdCH2>
0

>  <NssCH2>
0

>  <NtCH>
0

>  <NdsCH>
0

>  <NaaCH>
3

>  <NsssCH>
0

>  <NddC>
0

>  <NtsC>
0

>  <NdssC>
0

>  <NaasC>
3

>  <NaaaC>
4

>  <NssssC>
0

>  <NsNH3>
0

>  <NsNH2>
0

>  <NssNH2>
0

>  <NdNH>
0

>  <NssNH>
0

>  <NaaNH>
0

>  <NtN>
0

>  <NsssNH>
0

>  <NdsN>
0

>  <NaaN>
0

>  <NsssN>
0

>  <NddsN>
0

>  <NaasN>
0

>  <NssssN>
0

>  <NsOH>
0

>  <NdO>
1

>  <NssO>
0

>  <NaaO>
2

>  <NsF>
0

>  <NsSiH3>
0

>  <NssSiH2>
0

>  <NsssSiH>
0

>  <NssssSi>
0

>  <NsPH2>
0

>  <NssPH>
0

>  <NsssP>
0

>  <NdsssP>
0

>  <NsssssP>
0

>  <NsSH>
0

>  <NdS>
0

>  <NssS>
0

>  <NaaS>
0

>  <NdssS>
0

>  <NddssS>
0

>  <NsCl>
0

>  <NsBr>
0

>  <NsI>
0

>  <fragCpx>
89.03

>  <fMF>
0.45

>  <nHBAcc>
3

>  <nHBDon>
0

>  <Kier1>
12.06

>  <Kier2>
4.28

>  <Lipinski>
1

>  <GhoseFilter>
1

>  <FilterItLogS>
-5.22

>  <VMcGowan>
167.35

>  <LabuteASA>
97.65

>  <PEOE_VSA1>
8.83

>  <PEOE_VSA2>
0

>  <PEOE_VSA3>
4.79

>  <PEOE_VSA4>
0

>  <PEOE_VSA5>
0

>  <PEOE_VSA6>
0

>  <PEOE_VSA7>
38.47

>  <PEOE_VSA8>
22.4

>  <PEOE_VSA9>
0

>  <PEOE_VSA10>
16.93

>  <PEOE_VSA11>
0

>  <PEOE_VSA12>
0

>  <PEOE_VSA13>
0

>  <SMR_VSA1>
8.83

>  <SMR_VSA2>
0

>  <SMR_VSA3>
0

>  <SMR_VSA4>
0

>  <SMR_VSA5>
20.77

>  <SMR_VSA6>
0

>  <SMR_VSA7>
45.51

>  <SMR_VSA8>
0

>  <SMR_VSA9>
0

>  <SlogP_VSA1>
5.63

>  <SlogP_VSA2>
0

>  <SlogP_VSA3>
0

>  <SlogP_VSA4>
20.77

>  <SlogP_VSA5>
16.89

>  <SlogP_VSA6>
31.83

>  <SlogP_VSA7>
0

>  <SlogP_VSA8>
21.94

>  <SlogP_VSA9>
0

>  <SlogP_VSA10>
0

>  <SlogP_VSA11>
0

>  <EState_VSA1>
0

>  <EState_VSA2>
5.63

>  <EState_VSA3>
5.58

>  <EState_VSA4>
33.24

>  <EState_VSA5>
6.07

>  <EState_VSA6>
0

>  <EState_VSA7>
32.9

>  <EState_VSA8>
0

>  <EState_VSA9>
8.83

>  <EState_VSA10>
4.79

>  <VSA_EState1>
10.9

>  <VSA_EState2>
11.4

>  <VSA_EState3>
2.01

>  <VSA_EState4>
2.91

>  <VSA_EState5>
0.86

>  <VSA_EState6>
5.51

>  <VSA_EState7>
0

>  <VSA_EState8>
5.74

>  <VSA_EState9>
0

>  <apol>
33.79

>  <bpol>
16.38

>  <nRing>
3

>  <nHRing>
2

>  <naRing>
3

>  <naHRing>
2

>  <nARing 2>
0

>  <nAHRing 2>
0

>  <nFRing>
1

>  <nFHRing>
1

>  <nFaRing>
1

>  <nFaHRing>
1

>  <nFARing 2>
0

>  <nFAHRing 2>
0

>  <nRot>
0

>  <SLogP>
3.46

>  <SMR>
66.47

>  <TopoPSA(NO)>
43.35

>  <TopoPSA>
43.35

>  <JGI1>
0.24

>  <JGI2>
0.08

>  <JGI3>
0.06

>  <JGI4>
0.07

>  <JGI5>
0.03

>  <Diameter>
8

>  <Radius>
4

>  <TMWC10>
109.99

>  <TSRW10>
64.58

>  <MW>
228.08

>  <AMW>
7.86

>  <WPath>
457

>  <WPol>
29

>  <Zagreb1>
96

>  <Zagreb2>
117

>  <mZagreb2>
3.56

>  <yes>


>  <nAR-cont>
0.336376

>  <nHA-cont>
0.976740822

>  <MWHBN>
0.198645007

>  <MWHBN-cont>
0.999334595

>  <TPSA-cont>
0.697390081

>  <pka_cont>
0.97

>  <yes.1>


>  <BBB_SCORE>
4.691898877

>  <MMFF94 Energy>
34.549

$$$$
Compound 2555
Actelion Java MolfileCreator 2.0

  0  0  0  0  0  0              0 V3000
M  V30 BEGIN CTAB
M  V30 COUNTS 39 41 0 0 0
M  V30 BEGIN ATOM
M  V30 1 Cl -2.7992 -1.6459 5.1914 0
M  V30 2 C -1.9395 -1.7529 3.7111 0
M  V30 3 C -1.4532 -2.9617 3.2554 0
M  V30 4 C -1.7054 -0.6188 2.9438 0
M  V30 5 N -0.7668 -3.1036 2.0981 0
M  V30 6 C -0.9959 -0.7103 1.7307 0
M  V30 7 C -0.5543 -1.9919 1.3358 0
M  V30 8 C -0.7262 0.5235 0.9721 0
M  V30 9 C 0.1709 -2.2739 0.0866 0
M  V30 10 C 0.5897 0.9787 0.7754 0
M  V30 11 C -1.783 1.2799 0.4337 0
M  V30 12 C -0.301 -1.8793 -1.1634 0
M  V30 13 C 1.3747 -2.9893 0.0888 0
M  V30 14 C 0.8464 2.1497 0.0575 0
M  V30 15 C -1.5354 2.4528 -0.2843 0
M  V30 16 N 0.3298 -2.1119 -2.342 0
M  V30 17 C 2.0476 -3.248 -1.1053 0
M  V30 18 C -0.2205 2.887 -0.457 0
M  V30 19 C 1.4977 -2.7908 -2.2971 0
M  V30 20 S 0.1013 4.3725 -1.3785 0
M  V30 21 C 2.1947 -3.05 -3.5985 0
M  V30 22 O 1.4445 4.2735 -1.9164 0
M  V30 23 O -1.0363 4.6039 -2.2479 0
M  V30 24 C 0.1012 5.6305 -0.128 0
M  V30 25 H -1.6013 -3.8799 3.8165 0
M  V30 26 H -2.0608 0.3477 3.2952 0
M  V30 27 H 1.4317 0.4149 1.1749 0
M  V30 28 H -2.8133 0.948 0.5561 0
M  V30 29 H -1.2441 -1.3492 -1.2693 0
M  V30 30 H 1.7899 -3.3527 1.0265 0
M  V30 31 H 1.8749 2.4679 -0.1007 0
M  V30 32 H -2.3685 3.0088 -0.7101 0
M  V30 33 H 2.9808 -3.8014 -1.0985 0
M  V30 34 H 2.2853 -4.127 -3.7707 0
M  V30 35 H 1.6347 -2.6169 -4.4337 0
M  V30 36 H 3.1929 -2.6014 -3.5888 0
M  V30 37 H 0.8909 5.4159 0.5945 0
M  V30 38 H -0.8757 5.6502 0.3586 0
M  V30 39 H 0.2932 6.5901 -0.613 0
M  V30 END ATOM
M  V30 BEGIN BOND
M  V30 1 1 1 2
M  V30 2 2 2 3
M  V30 3 1 2 4
M  V30 4 1 3 5
M  V30 5 2 4 6
M  V30 6 2 5 7
M  V30 7 1 6 8
M  V30 8 1 7 9
M  V30 9 2 8 10
M  V30 10 1 8 11
M  V30 11 2 9 12
M  V30 12 1 9 13
M  V30 13 1 10 14
M  V30 14 2 11 15
M  V30 15 1 12 16
M  V30 16 2 13 17
M  V30 17 2 14 18
M  V30 18 2 16 19
M  V30 19 1 18 20
M  V30 20 1 19 21
M  V30 21 2 20 22
M  V30 22 2 20 23
M  V30 23 1 20 24
M  V30 24 1 6 7
M  V30 25 1 15 18
M  V30 26 1 17 19
M  V30 27 1 3 25
M  V30 28 1 4 26
M  V30 29 1 10 27
M  V30 30 1 11 28
M  V30 31 1 12 29
M  V30 32 1 13 30
M  V30 33 1 14 31
M  V30 34 1 15 32
M  V30 35 1 17 33
M  V30 36 1 21 34
M  V30 37 1 21 35
M  V30 38 1 21 36
M  V30 39 1 24 37
M  V30 40 1 24 38
M  V30 41 1 24 39
M  V30 END BOND
M  V30 END CTAB
M  END
>  <Column 1>
3170

>  <level_0>
5325

>  <index>
5326

>  <Unnamed: 0>
5326

>  <NO.>
5338

>  <Name>
etoricoxib

>  <IUPAC_name>
5-chloro-2-(6-methylpyridin-3-yl)-3-(4-methylsulfonylphenyl)pyridine

>  <SMILES>
Cc1ccc(-c2ncc(Cl)cc2-c2ccc(S(C)(=O)=O)cc2)cn1

>  <CID>
123619

>  <logBB>


>  <BBB+/BBB->
BBB-

>  <Inchi>
InChI=1S/C18H15ClN2O2S/c1-12-3-4-14(10-20-12)18-17(9-15(19)11-21-18)13-5-7-16(8-6-13)24(2-22)23/h3-11H-1-2H3

>  <threshold>


>  <reference>
R14|R23|

>  <group>
C

>  <Class>
-1

>  <ABC>
18.9

>  <ABCGG>
14.86

>  <nAcid>
0

>  <nBase>
0

>  <nAromAtom>
18

>  <nAromBond>
18

>  <nAtom>
39

>  <nHeavyAtom>
24

>  <nSpiro>
0

>  <nBridgehead>
0

>  <nHetero>
6

>  <nN>
2

>  <nO>
2

>  <nF>
0

>  <BalabanJ>
1.62

>  <BertzCT>
982.53

>  <nBonds>
41

>  <nBondsO>
26

>  <nBondsS>
21

>  <nBondsD>
2

>  <nBondsT>
0

>  <nBondsA>
18

>  <nBondsM>
20

>  <nBondsKS>
30

>  <nBondsKD>
11

>  <RNCG>
0.19

>  <RPCG>
0.13

>  <FCSP3>
0.11

>  <SZ>
31

>  <Sm>
29.88

>  <Sv>
27.29

>  <Sse>
39.49

>  <Sp>
29.31

>  <Si>
43.19

>  <MZ>
0.79

>  <Mm>
0.77

>  <Mv>
0.7

>  <Mse>
1.01

>  <Mp>
0.75

>  <Mi>
1.11

>  <NsCH3>
2

>  <NdCH2>
0

>  <NssCH2>
0

>  <NtCH>
0

>  <NdsCH>
0

>  <NaaCH>
9

>  <NsssCH>
0

>  <NddC>
0

>  <NtsC>
0

>  <NdssC>
0

>  <NaasC>
7

>  <NaaaC>
0

>  <NssssC>
0

>  <NsNH3>
0

>  <NsNH2>
0

>  <NssNH2>
0

>  <NdNH>
0

>  <NssNH>
0

>  <NaaNH>
0

>  <NtN>
0

>  <NsssNH>
0

>  <NdsN>
0

>  <NaaN>
2

>  <NsssN>
0

>  <NddsN>
0

>  <NaasN>
0

>  <NssssN>
0

>  <NsOH>
0

>  <NdO>
2

>  <NssO>
0

>  <NaaO>
0

>  <NsF>
0

>  <NsSiH3>
0

>  <NssSiH2>
0

>  <NsssSiH>
0

>  <NssssSi>
0

>  <NsPH2>
0

>  <NssPH>
0

>  <NsssP>
0

>  <NdsssP>
0

>  <NsssssP>
0

>  <NsSH>
0

>  <NdS>
0

>  <NssS>
0

>  <NaaS>
0

>  <NdssS>
0

>  <NddssS>
1

>  <NsCl>
1

>  <NsBr>
0

>  <NsI>
0

>  <fragCpx>
124.06

>  <fMF>
0.46

>  <nHBAcc>
4

>  <nHBDon>
0

>  <Kier1>
18.78

>  <Kier2>
7.71

>  <Lipinski>
1

>  <GhoseFilter>
1

>  <FilterItLogS>
-6.59

>  <VMcGowan>
253.49

>  <LabuteASA>
145.64

>  <PEOE_VSA1>
0

>  <PEOE_VSA2>
9.97

>  <PEOE_VSA3>
8.42

>  <PEOE_VSA4>
0

>  <PEOE_VSA5>
0

>  <PEOE_VSA6>
23.73

>  <PEOE_VSA7>
42.82

>  <PEOE_VSA8>
35.47

>  <PEOE_VSA9>
15.61

>  <PEOE_VSA10>
0

>  <PEOE_VSA11>
9.84

>  <PEOE_VSA12>
0

>  <PEOE_VSA13>
0

>  <SMR_VSA1>
8.42

>  <SMR_VSA2>
0

>  <SMR_VSA3>
9.97

>  <SMR_VSA4>
0

>  <SMR_VSA5>
11.82

>  <SMR_VSA6>
6.26

>  <SMR_VSA7>
65.57

>  <SMR_VSA8>
0

>  <SMR_VSA9>
22.38

>  <SlogP_VSA1>
0

>  <SlogP_VSA2>
24.64

>  <SlogP_VSA3>
9.84

>  <SlogP_VSA4>
6.92

>  <SlogP_VSA5>
5.69

>  <SlogP_VSA6>
59.75

>  <SlogP_VSA7>
5.02

>  <SlogP_VSA8>
22.38

>  <SlogP_VSA9>
0

>  <SlogP_VSA10>
0

>  <SlogP_VSA11>
0

>  <EState_VSA1>
9.84

>  <EState_VSA2>
4.9

>  <EState_VSA3>
5.02

>  <EState_VSA4>
28.08

>  <EState_VSA5>
6.26

>  <EState_VSA6>
36.66

>  <EState_VSA7>
25.12

>  <EState_VSA8>
9.97

>  <EState_VSA9>
11.6

>  <EState_VSA10>
8.42

>  <VSA_EState1>
23.23

>  <VSA_EState2>
9.02

>  <VSA_EState3>
0.51

>  <VSA_EState4>
4.21

>  <VSA_EState5>
0

>  <VSA_EState6>
12.38

>  <VSA_EState7>
4.54

>  <VSA_EState8>
1.92

>  <VSA_EState9>
-3.23

>  <apol>
48.95

>  <bpol>
24.49

>  <nRing>
3

>  <nHRing>
2

>  <naRing>
3

>  <naHRing>
2

>  <nARing 2>
0

>  <nAHRing 2>
0

>  <nFRing>
0

>  <nFHRing>
0

>  <nFaRing>
0

>  <nFaHRing>
0

>  <nFARing 2>
0

>  <nFAHRing 2>
0

>  <nRot>
3

>  <SLogP>
4.18

>  <SMR>
95.76

>  <TopoPSA(NO)>
59.92

>  <TopoPSA>
68.3

>  <JGI1>
0.25

>  <JGI2>
0.09

>  <JGI3>
0.04

>  <JGI4>
0.04

>  <JGI5>
0.03

>  <Diameter>
12

>  <Radius>
6

>  <TMWC10>
125.16

>  <TSRW10>
58.8

>  <MW>
358.05

>  <AMW>
9.18

>  <WPath>
1351

>  <WPol>
38

>  <Zagreb1>
128

>  <Zagreb2>
149

>  <mZagreb2>
5.08

>  <yes>


>  <nAR-cont>
0.336376

>  <nHA-cont>
0.94700071

>  <MWHBN>
0.211391808

>  <MWHBN-cont>
0.998949053

>  <TPSA-cont>
0.523223588

>  <pka_cont>
0.97

>  <yes.1>


>  <BBB_SCORE>
4.313247465

>  <MMFF94 Energy>
113.6

$$$$
Compound 2556
Actelion Java MolfileCreator 2.0

  0  0  0  0  0  0              0 V3000
M  V30 BEGIN CTAB
M  V30 COUNTS 39 41 0 0 0
M  V30 BEGIN ATOM
M  V30 1 O 1.4315 3.1037 0.3975 0
M  V30 2 C 0.8403 2.0381 0.2423 0
M  V30 3 N -0.0941 1.9265 -0.7525 0
M  V30 4 N 1.068 0.9435 1.0903 0
M  V30 5 C -0.6487 0.7947 -1.0385 0
M  V30 6 C 0.623 -0.3557 0.6982 0
M  V30 7 C 1.8573 1.1371 2.3235 0
M  V30 8 C -0.2567 -0.4668 -0.381 0
M  V30 9 C -1.7061 0.8122 -2.0793 0
M  V30 10 C 1.0752 -1.5406 1.304 0
M  V30 11 C 3.3532 1.2603 2.031 0
M  V30 12 C 1.36 2.3033 3.1912 0
M  V30 13 C -0.6734 -1.7219 -0.8478 0
M  V30 14 C -3.0028 0.3789 -1.782 0
M  V30 15 C -1.4015 1.319 -3.3457 0
M  V30 16 C 0.6338 -2.8025 0.8709 0
M  V30 17 C -0.2351 -2.8839 -0.2167 0
M  V30 18 C -3.9859 0.4175 -2.7714 0
M  V30 19 C -2.3887 1.355 -4.3305 0
M  V30 20 C 1.1569 -4.0513 1.5198 0
M  V30 21 C -3.6771 0.9 -4.0445 0
M  V30 22 H 1.7141 0.2669 2.9699 0
M  V30 23 H 1.8047 -1.5238 2.1075 0
M  V30 24 H 3.5843 2.1578 1.449 0
M  V30 25 H 3.926 1.3104 2.9631 0
M  V30 26 H 3.711 0.396 1.4618 0
M  V30 27 H 1.6008 3.282 2.7676 0
M  V30 28 H 0.2748 2.2493 3.3295 0
M  V30 29 H 1.8276 2.2625 4.1815 0
M  V30 30 H -1.3189 -1.8214 -1.7158 0
M  V30 31 H -3.2559 0.027 -0.7856 0
M  V30 32 H -0.4027 1.6908 -3.5616 0
M  V30 33 H -0.5614 -3.8518 -0.5921 0
M  V30 34 H -4.9963 0.0838 -2.5482 0
M  V30 35 H -2.1562 1.7482 -5.3169 0
M  V30 36 H 1.3353 -3.8893 2.588 0
M  V30 37 H 2.0946 -4.3549 1.0447 0
M  V30 38 H 0.4348 -4.8699 1.4323 0
M  V30 39 H -4.4465 0.9365 -4.8122 0
M  V30 END ATOM
M  V30 BEGIN BOND
M  V30 1 2 1 2
M  V30 2 1 2 3
M  V30 3 1 2 4
M  V30 4 2 3 5
M  V30 5 1 4 6
M  V30 6 1 4 7
M  V30 7 1 5 8
M  V30 8 1 5 9
M  V30 9 1 6 10
M  V30 10 1 7 11
M  V30 11 1 7 12
M  V30 12 1 8 13
M  V30 13 2 9 14
M  V30 14 1 9 15
M  V30 15 2 10 16
M  V30 16 2 13 17
M  V30 17 1 14 18
M  V30 18 2 15 19
M  V30 19 1 16 20
M  V30 20 2 18 21
M  V30 21 2 6 8
M  V30 22 1 16 17
M  V30 23 1 19 21
M  V30 24 1 7 22
M  V30 25 1 10 23
M  V30 26 1 11 24
M  V30 27 1 11 25
M  V30 28 1 11 26
M  V30 29 1 12 27
M  V30 30 1 12 28
M  V30 31 1 12 29
M  V30 32 1 13 30
M  V30 33 1 14 31
M  V30 34 1 15 32
M  V30 35 1 17 33
M  V30 36 1 18 34
M  V30 37 1 19 35
M  V30 38 1 20 36
M  V30 39 1 20 37
M  V30 40 1 20 38
M  V30 41 1 21 39
M  V30 END BOND
M  V30 END CTAB
M  END
>  <Column 1>
3171

>  <level_0>
5326

>  <index>
5327

>  <Unnamed: 0>
5327

>  <NO.>
5339

>  <Name>
proquazone

>  <IUPAC_name>
7-methyl-4-phenyl-1-propan-2-ylquinazolin-2-one

>  <SMILES>
Cc1ccc2c(-c3ccccc3)nc(=O)n(C(C)C)c2c1

>  <CID>
31508

>  <logBB>


>  <BBB+/BBB->
BBB-

>  <Inchi>
InChI=1S/C18H18N2O/c1-12(2)20-16-11-13(3)9-10-15(16)17(19-18(20)21)14-7-5-4-6-8-14/h4-12H-1-3H3

>  <threshold>


>  <reference>
R14|

>  <group>
C

>  <Class>
1

>  <ABC>
16.46

>  <ABCGG>
13.58

>  <nAcid>
0

>  <nBase>
0

>  <nAromAtom>
16

>  <nAromBond>
17

>  <nAtom>
39

>  <nHeavyAtom>
21

>  <nSpiro>
0

>  <nBridgehead>
0

>  <nHetero>
3

>  <nN>
2

>  <nO>
1

>  <nF>
0

>  <BalabanJ>
1.8

>  <BertzCT>
848.22

>  <nBonds>
41

>  <nBondsO>
23

>  <nBondsS>
23

>  <nBondsD>
1

>  <nBondsT>
0

>  <nBondsA>
17

>  <nBondsM>
18

>  <nBondsKS>
33

>  <nBondsKD>
8

>  <RNCG>
0.22

>  <RPCG>
0.26

>  <FCSP3>
0.22

>  <SZ>
24.67

>  <Sm>
23.18

>  <Sv>
25.11

>  <Sse>
38.65

>  <Sp>
26.98

>  <Si>
43.53

>  <MZ>
0.63

>  <Mm>
0.59

>  <Mv>
0.64

>  <Mse>
0.99

>  <Mp>
0.69

>  <Mi>
1.12

>  <NsCH3>
3

>  <NdCH2>
0

>  <NssCH2>
0

>  <NtCH>
0

>  <NdsCH>
0

>  <NaaCH>
8

>  <NsssCH>
1

>  <NddC>
0

>  <NtsC>
0

>  <NdssC>
0

>  <NaasC>
3

>  <NaaaC>
2

>  <NssssC>
0

>  <NsNH3>
0

>  <NsNH2>
0

>  <NssNH2>
0

>  <NdNH>
0

>  <NssNH>
0

>  <NaaNH>
0

>  <NtN>
0

>  <NsssNH>
0

>  <NdsN>
0

>  <NaaN>
1

>  <NsssN>
0

>  <NddsN>
0

>  <NaasN>
1

>  <NssssN>
0

>  <NsOH>
0

>  <NdO>
1

>  <NssO>
0

>  <NaaO>
0

>  <NsF>
0

>  <NsSiH3>
0

>  <NssSiH2>
0

>  <NsssSiH>
0

>  <NssssSi>
0

>  <NsPH2>
0

>  <NssPH>
0

>  <NsssP>
0

>  <NdsssP>
0

>  <NsssssP>
0

>  <NsSH>
0

>  <NdS>
0

>  <NssS>
0

>  <NaaS>
0

>  <NdssS>
0

>  <NddssS>
0

>  <NsCl>
0

>  <NsBr>
0

>  <NsI>
0

>  <fragCpx>
109.03

>  <fMF>
0.41

>  <nHBAcc>
3

>  <nHBDon>
0

>  <Kier1>
15.88

>  <Kier2>
6.63

>  <Lipinski>
1

>  <GhoseFilter>
1

>  <FilterItLogS>
-4.92

>  <VMcGowan>
223.33

>  <LabuteASA>
123.44

>  <PEOE_VSA1>
0

>  <PEOE_VSA2>
4.57

>  <PEOE_VSA3>
4.79

>  <PEOE_VSA4>
4.98

>  <PEOE_VSA5>
0

>  <PEOE_VSA6>
42.46

>  <PEOE_VSA7>
32.4

>  <PEOE_VSA8>
16.99

>  <PEOE_VSA9>
11.21

>  <PEOE_VSA10>
0

>  <PEOE_VSA11>
0

>  <PEOE_VSA12>
0

>  <PEOE_VSA13>
0

>  <SMR_VSA1>
0

>  <SMR_VSA2>
0

>  <SMR_VSA3>
9.55

>  <SMR_VSA4>
0

>  <SMR_VSA5>
26.81

>  <SMR_VSA6>
0

>  <SMR_VSA7>
64.58

>  <SMR_VSA8>
0

>  <SMR_VSA9>
11.26

>  <SlogP_VSA1>
5.69

>  <SlogP_VSA2>
9.55

>  <SlogP_VSA3>
0

>  <SlogP_VSA4>
6.92

>  <SlogP_VSA5>
25.45

>  <SlogP_VSA6>
53.33

>  <SlogP_VSA7>
0

>  <SlogP_VSA8>
22.16

>  <SlogP_VSA9>
0

>  <SlogP_VSA10>
0

>  <SlogP_VSA11>
0

>  <EState_VSA1>
0

>  <EState_VSA2>
11.73

>  <EState_VSA3>
0

>  <EState_VSA4>
27.72

>  <EState_VSA5>
0

>  <EState_VSA6>
4.57

>  <EState_VSA7>
51.1

>  <EState_VSA8>
23.18

>  <EState_VSA9>
0

>  <EState_VSA10>
4.79

>  <VSA_EState1>
1.76

>  <VSA_EState2>
16.76

>  <VSA_EState3>
1.01

>  <VSA_EState4>
3.62

>  <VSA_EState5>
0

>  <VSA_EState6>
16.12

>  <VSA_EState7>
0

>  <VSA_EState8>
6.05

>  <VSA_EState9>
0

>  <apol>
45.06

>  <bpol>
21.78

>  <nRing>
3

>  <nHRing>
1

>  <naRing>
3

>  <naHRing>
1

>  <nARing 2>
0

>  <nAHRing 2>
0

>  <nFRing>
1

>  <nFHRing>
1

>  <nFaRing>
1

>  <nFaHRing>
1

>  <nFARing 2>
0

>  <nFAHRing 2>
0

>  <nRot>
2

>  <SLogP>
3.95

>  <SMR>
86.56

>  <TopoPSA(NO)>
34.89

>  <TopoPSA>
34.89

>  <JGI1>
0.17

>  <JGI2>
0.07

>  <JGI3>
0.05

>  <JGI4>
0.05

>  <JGI5>
0.03

>  <Diameter>
9

>  <Radius>
5

>  <TMWC10>
118.85

>  <TSRW10>
55.29

>  <MW>
278.14

>  <AMW>
7.13

>  <WPath>
840

>  <WPol>
36

>  <Zagreb1>
112

>  <Zagreb2>
134

>  <mZagreb2>
4.58

>  <yes>


>  <nAR-cont>
0.336376

>  <nHA-cont>
0.994529749

>  <MWHBN>
0.179882755

>  <MWHBN-cont>
0.987036892

>  <TPSA-cont>
0.756446135

>  <pka_cont>
0.97

>  <yes.1>


>  <BBB_SCORE>
4.809353357

>  <MMFF94 Energy>
37.972

$$$$
Compound 2557
Actelion Java MolfileCreator 2.0

  0  0  0  0  0  0              0 V3000
M  V30 BEGIN CTAB
M  V30 COUNTS 31 32 0 0 0
M  V30 BEGIN ATOM
M  V30 1 N -1.6504 -1.8864 3.0668 0
M  V30 2 C -0.469 -1.9639 3.6313 0
M  V30 3 C -1.4036 -1.6005 1.7487 0
M  V30 4 N 0.5319 -1.7439 2.7299 0
M  V30 5 C -0.0479 -1.5117 1.505 0
M  V30 6 C 0.7531 -1.2443 0.2639 0 CFG=1
M  V30 7 C 0.0937 -0.202 -0.6463 0
M  V30 8 C 1.0871 -2.5712 -0.4382 0
M  V30 9 C 0.342 1.1909 -0.4882 0
M  V30 10 C -0.8075 -0.6172 -1.6463 0
M  V30 11 C -0.2591 2.1147 -1.3804 0
M  V30 12 C 1.2738 1.6821 0.5951 0
M  V30 13 C -1.4176 0.2992 -2.4972 0
M  V30 14 C -1.1399 1.6537 -2.3695 0
M  V30 15 C -0.0053 3.5971 -1.2928 0
M  V30 16 H -0.2777 -2.1741 4.6751 0
M  V30 17 H -2.2155 -1.4735 1.0435 0
M  V30 18 H 1.5213 -1.7553 2.9342 0
M  V30 19 H 1.7302 -0.8431 0.564 0
M  V30 20 H 0.1909 -3.1542 -0.6785 0
M  V30 21 H 1.7085 -3.2018 0.2088 0
M  V30 22 H 1.6428 -2.3974 -1.3662 0
M  V30 23 H -1.0567 -1.6677 -1.772 0
M  V30 24 H 1.1467 2.7461 0.8116 0
M  V30 25 H 2.3132 1.5168 0.2948 0
M  V30 26 H 1.0813 1.1694 1.5421 0
M  V30 27 H -2.1099 -0.0446 -3.261 0
M  V30 28 H -1.622 2.3542 -3.048 0
M  V30 29 H -0.4434 4.1318 -2.1426 0
M  V30 30 H 1.0696 3.8038 -1.3062 0
M  V30 31 H -0.4505 4.0039 -0.3793 0
M  V30 END ATOM
M  V30 BEGIN BOND
M  V30 1 2 1 2
M  V30 2 1 1 3
M  V30 3 1 2 4
M  V30 4 2 3 5
M  V30 5 1 5 6
M  V30 6 1 6 7
M  V30 7 1 6 8
M  V30 8 2 7 9
M  V30 9 1 7 10
M  V30 10 1 9 11
M  V30 11 1 9 12
M  V30 12 2 10 13
M  V30 13 2 11 14
M  V30 14 1 11 15
M  V30 15 1 4 5
M  V30 16 1 13 14
M  V30 17 1 2 16
M  V30 18 1 3 17
M  V30 19 1 4 18
M  V30 20 1 6 19
M  V30 21 1 8 20
M  V30 22 1 8 21
M  V30 23 1 8 22
M  V30 24 1 10 23
M  V30 25 1 12 24
M  V30 26 1 12 25
M  V30 27 1 12 26
M  V30 28 1 13 27
M  V30 29 1 14 28
M  V30 30 1 15 29
M  V30 31 1 15 30
M  V30 32 1 15 31
M  V30 END BOND
M  V30 BEGIN COLLECTION
M  V30 MDLV30/STERAC1 ATOMS=(1 6)
M  V30 END COLLECTION
M  V30 END CTAB
M  END
>  <Column 1>
3172

>  <level_0>
5327

>  <index>
5328

>  <Unnamed: 0>
5328

>  <NO.>
5340

>  <Name>
medetomidine

>  <IUPAC_name>
5-[1-(2-3-dimethylphenyl)ethyl]-1h-imidazole

>  <SMILES>
Cc1cccc(C(C)c2cnc[nH]2)c1C

>  <CID>
68602

>  <logBB>


>  <BBB+/BBB->
BBB+

>  <Inchi>
InChI=1S/C13H16N2/c1-9-5-4-6-12(10(9)2)11(3)13-7-14-8-15-13/h4-8-11H-1-3H3-(H-14-15)

>  <threshold>


>  <reference>
R14|R23|

>  <group>
C

>  <Class>
-1

>  <ABC>
11.48

>  <ABCGG>
10.73

>  <nAcid>
0

>  <nBase>
0

>  <nAromAtom>
11

>  <nAromBond>
11

>  <nAtom>
31

>  <nHeavyAtom>
15

>  <nSpiro>
0

>  <nBridgehead>
0

>  <nHetero>
2

>  <nN>
2

>  <nO>
0

>  <nF>
0

>  <BalabanJ>
1.95

>  <BertzCT>
443.56

>  <nBonds>
32

>  <nBondsO>
16

>  <nBondsS>
21

>  <nBondsD>
0

>  <nBondsT>
0

>  <nBondsA>
11

>  <nBondsM>
11

>  <nBondsKS>
27

>  <nBondsKD>
5

>  <RNCG>
0.34

>  <RPCG>
0.16

>  <FCSP3>
0.31

>  <SZ>
18

>  <Sm>
16.68

>  <Sv>
18.85

>  <Sse>
30.43

>  <Sp>
20.71

>  <Si>
34.9

>  <MZ>
0.58

>  <Mm>
0.54

>  <Mv>
0.61

>  <Mse>
0.98

>  <Mp>
0.67

>  <Mi>
1.13

>  <NsCH3>
3

>  <NdCH2>
0

>  <NssCH2>
0

>  <NtCH>
0

>  <NdsCH>
0

>  <NaaCH>
5

>  <NsssCH>
1

>  <NddC>
0

>  <NtsC>
0

>  <NdssC>
0

>  <NaasC>
4

>  <NaaaC>
0

>  <NssssC>
0

>  <NsNH3>
0

>  <NsNH2>
0

>  <NssNH2>
0

>  <NdNH>
0

>  <NssNH>
0

>  <NaaNH>
1

>  <NtN>
0

>  <NsssNH>
0

>  <NdsN>
0

>  <NaaN>
1

>  <NsssN>
0

>  <NddsN>
0

>  <NaasN>
0

>  <NssssN>
0

>  <NsOH>
0

>  <NdO>
0

>  <NssO>
0

>  <NaaO>
0

>  <NsF>
0

>  <NsSiH3>
0

>  <NssSiH2>
0

>  <NsssSiH>
0

>  <NssssSi>
0

>  <NsPH2>
0

>  <NssPH>
0

>  <NsssP>
0

>  <NdsssP>
0

>  <NsssssP>
0

>  <NsSH>
0

>  <NdS>
0

>  <NssS>
0

>  <NaaS>
0

>  <NdssS>
0

>  <NddssS>
0

>  <NsCl>
0

>  <NsBr>
0

>  <NsI>
0

>  <fragCpx>
46.02

>  <fMF>
0.39

>  <nHBAcc>
1

>  <nHBDon>
1

>  <Kier1>
11.48

>  <Kier2>
4.89

>  <Lipinski>
1

>  <GhoseFilter>
1

>  <FilterItLogS>
-4.21

>  <VMcGowan>
170.77

>  <LabuteASA>
90.38

>  <PEOE_VSA1>
4.98

>  <PEOE_VSA2>
0

>  <PEOE_VSA3>
4.98

>  <PEOE_VSA4>
0

>  <PEOE_VSA5>
0

>  <PEOE_VSA6>
25.12

>  <PEOE_VSA7>
30.54

>  <PEOE_VSA8>
17.81

>  <PEOE_VSA9>
6.33

>  <PEOE_VSA10>
0

>  <PEOE_VSA11>
0

>  <PEOE_VSA12>
0

>  <PEOE_VSA13>
0

>  <SMR_VSA1>
0

>  <SMR_VSA2>
0

>  <SMR_VSA3>
9.97

>  <SMR_VSA4>
0

>  <SMR_VSA5>
26.69

>  <SMR_VSA6>
0

>  <SMR_VSA7>
53.11

>  <SMR_VSA8>
0

>  <SMR_VSA9>
0

>  <SlogP_VSA1>
0

>  <SlogP_VSA2>
9.97

>  <SlogP_VSA3>
0

>  <SlogP_VSA4>
13.85

>  <SlogP_VSA5>
35.23

>  <SlogP_VSA6>
30.72

>  <SlogP_VSA7>
0

>  <SlogP_VSA8>
0

>  <SlogP_VSA9>
0

>  <SlogP_VSA10>
0

>  <SlogP_VSA11>
0

>  <EState_VSA1>
0

>  <EState_VSA2>
0

>  <EState_VSA3>
5.92

>  <EState_VSA4>
0

>  <EState_VSA5>
22.38

>  <EState_VSA6>
6.33

>  <EState_VSA7>
6.2

>  <EState_VSA8>
48.94

>  <EState_VSA9>
0

>  <EState_VSA10>
0

>  <VSA_EState1>
0

>  <VSA_EState2>
7.24

>  <VSA_EState3>
0

>  <VSA_EState4>
5.27

>  <VSA_EState5>
0.38

>  <VSA_EState6>
6.46

>  <VSA_EState7>
3.63

>  <VSA_EState8>
6.53

>  <VSA_EState9>
0

>  <apol>
34.58

>  <bpol>
17.76

>  <nRing>
2

>  <nHRing>
1

>  <naRing>
2

>  <naHRing>
1

>  <nARing 2>
0

>  <nAHRing 2>
0

>  <nFRing>
0

>  <nFHRing>
0

>  <nFaRing>
0

>  <nFaHRing>
0

>  <nFARing 2>
0

>  <nFAHRing 2>
0

>  <nRot>
2

>  <SLogP>
3.18

>  <SMR>
62.02

>  <TopoPSA(NO)>
28.68

>  <TopoPSA>
28.68

>  <JGI1>
0.16

>  <JGI2>
0.1

>  <JGI3>
0.06

>  <JGI4>
0.05

>  <JGI5>
0.02

>  <Diameter>
7

>  <Radius>
4

>  <TMWC10>
100.99

>  <TSRW10>
60.15

>  <MW>
200.13

>  <AMW>
6.46

>  <WPath>
353

>  <WPol>
21

>  <Zagreb1>
76

>  <Zagreb2>
89

>  <mZagreb2>
3.36

>  <yes>


>  <nAR-cont>
0.336376

>  <nHA-cont>
0.92539861

>  <MWHBN>
0.141375417

>  <MWHBN-cont>
0.908093348

>  <TPSA-cont>
0.799795791

>  <pka_cont>
0.97

>  <yes.1>


>  <BBB_SCORE>
4.708506214

>  <MMFF94 Energy>
36.315

$$$$
Compound 2558
Actelion Java MolfileCreator 2.0

  0  0  0  0  0  0              0 V3000
M  V30 BEGIN CTAB
M  V30 COUNTS 40 42 0 0 0
M  V30 BEGIN ATOM
M  V30 1 Cl 2.3728 -2.1272 -4.6679 0
M  V30 2 C 1.4864 -1.6782 -3.2546 0
M  V30 3 C 0.7453 -2.5713 -2.4791 0
M  V30 4 C 1.5466 -0.3261 -2.8829 0
M  V30 5 S 0.6118 -4.2779 -2.9009 0
M  V30 6 C 0.0591 -2.1107 -1.3479 0
M  V30 7 C 0.8859 0.1445 -1.7434 0
M  V30 8 O 0.2077 -4.4022 -4.2799 0
M  V30 9 O -0.0788 -4.974 -1.8393 0
M  V30 10 N 2.1967 -4.8222 -2.7951 0
M  V30 11 C 0.1349 -0.7589 -0.9892 0
M  V30 12 N 0.967 1.4759 -1.3858 0
M  V30 13 C -0.6528 -0.2422 0.1547 0
M  V30 14 C 0.665 1.8701 -0.0232 0 CFG=1
M  V30 15 O -1.4592 -0.9961 0.6944 0
M  V30 16 N -0.4457 1.0879 0.4997 0
M  V30 17 C 1.9273 1.7409 0.8314 0
M  V30 18 C -1.2639 1.7046 1.4832 0
M  V30 19 C -1.2077 1.3525 2.8443 0
M  V30 20 C -2.1423 2.7121 1.0555 0
M  V30 21 C -2.0518 2.0227 3.7474 0
M  V30 22 C -0.343 0.2435 3.3752 0
M  V30 23 C -2.9618 3.3745 1.968 0
M  V30 24 C -2.9153 3.0302 3.3146 0
M  V30 25 H 2.1259 0.3672 -3.4893 0
M  V30 26 H -0.5489 -2.7889 -0.7499 0
M  V30 27 H 2.5216 -5.1161 -3.7177 0
M  V30 28 H 2.2609 -5.5521 -2.0843 0
M  V30 29 H 1.5006 2.1217 -1.9529 0
M  V30 30 H 0.3786 2.9284 -0.0482 0
M  V30 31 H 2.2545 0.6988 0.9176 0
M  V30 32 H 2.7531 2.313 0.3946 0
M  V30 33 H 1.7553 2.1204 1.8439 0
M  V30 34 H -2.2054 2.9717 0.0016 0
M  V30 35 H -2.0469 1.7517 4.8015 0
M  V30 36 H 0.5648 0.1076 2.783 0
M  V30 37 H -0.9036 -0.6959 3.3862 0
M  V30 38 H -0.0169 0.465 4.3975 0
M  V30 39 H -3.6454 4.1467 1.6259 0
M  V30 40 H -3.5624 3.5336 4.0285 0
M  V30 END ATOM
M  V30 BEGIN BOND
M  V30 1 1 1 2
M  V30 2 2 2 3
M  V30 3 1 2 4
M  V30 4 1 3 5
M  V30 5 1 3 6
M  V30 6 2 4 7
M  V30 7 2 5 8
M  V30 8 2 5 9
M  V30 9 1 5 10
M  V30 10 2 6 11
M  V30 11 1 7 12
M  V30 12 1 11 13
M  V30 13 1 12 14
M  V30 14 2 13 15
M  V30 15 1 13 16
M  V30 16 1 14 17
M  V30 17 1 16 18
M  V30 18 2 18 19
M  V30 19 1 18 20
M  V30 20 1 19 21
M  V30 21 1 19 22
M  V30 22 2 20 23
M  V30 23 2 21 24
M  V30 24 1 7 11
M  V30 25 1 14 16
M  V30 26 1 23 24
M  V30 27 1 4 25
M  V30 28 1 6 26
M  V30 29 1 10 27
M  V30 30 1 10 28
M  V30 31 1 12 29
M  V30 32 1 14 30
M  V30 33 1 17 31
M  V30 34 1 17 32
M  V30 35 1 17 33
M  V30 36 1 20 34
M  V30 37 1 21 35
M  V30 38 1 22 36
M  V30 39 1 22 37
M  V30 40 1 22 38
M  V30 41 1 23 39
M  V30 42 1 24 40
M  V30 END BOND
M  V30 BEGIN COLLECTION
M  V30 MDLV30/STERAC1 ATOMS=(1 14)
M  V30 END COLLECTION
M  V30 END CTAB
M  END
>  <Column 1>
3175

>  <level_0>
5330

>  <index>
5331

>  <Unnamed: 0>
5331

>  <NO.>
5343

>  <Name>
metolazone

>  <IUPAC_name>
7-chloro-2-methyl-3-(2-methylphenyl)-4-oxo-1-2-dihydroquinazoline-6-sulfonamide

>  <SMILES>
Cc1ccccc1N1C(=O)c2cc(S(N)(=O)=O)c(Cl)cc2NC1C

>  <CID>
4170

>  <logBB>


>  <BBB+/BBB->
BBB-

>  <Inchi>
InChI=1S/C16H16ClN3O3S/c1-9-5-3-4-6-14(9)20-10(2)19-13-8-12(17)15(24(18-22)23)7-11(13)16(20)21/h3-8-10-19H-1-2H3-(H2-18-22-23)

>  <threshold>


>  <reference>
R14|R15|R23|

>  <group>
C

>  <Class>
-1

>  <ABC>
18.95

>  <ABCGG>
15.73

>  <nAcid>
0

>  <nBase>
0

>  <nAromAtom>
12

>  <nAromBond>
12

>  <nAtom>
40

>  <nHeavyAtom>
24

>  <nSpiro>
0

>  <nBridgehead>
0

>  <nHetero>
8

>  <nN>
3

>  <nO>
3

>  <nF>
0

>  <BalabanJ>
1.79

>  <BertzCT>
943.58

>  <nBonds>
42

>  <nBondsO>
26

>  <nBondsS>
27

>  <nBondsD>
3

>  <nBondsT>
0

>  <nBondsA>
12

>  <nBondsM>
15

>  <nBondsKS>
33

>  <nBondsKD>
9

>  <RNCG>
0.18

>  <RPCG>
0.13

>  <FCSP3>
0.19

>  <SZ>
31.67

>  <Sm>
30.46

>  <Sv>
27.03

>  <Sse>
40.93

>  <Sp>
28.85

>  <Si>
44.89

>  <MZ>
0.79

>  <Mm>
0.76

>  <Mv>
0.68

>  <Mse>
1.02

>  <Mp>
0.72

>  <Mi>
1.12

>  <NsCH3>
2

>  <NdCH2>
0

>  <NssCH2>
0

>  <NtCH>
0

>  <NdsCH>
0

>  <NaaCH>
6

>  <NsssCH>
1

>  <NddC>
0

>  <NtsC>
0

>  <NdssC>
1

>  <NaasC>
6

>  <NaaaC>
0

>  <NssssC>
0

>  <NsNH3>
0

>  <NsNH2>
1

>  <NssNH2>
0

>  <NdNH>
0

>  <NssNH>
1

>  <NaaNH>
0

>  <NtN>
0

>  <NsssNH>
0

>  <NdsN>
0

>  <NaaN>
0

>  <NsssN>
1

>  <NddsN>
0

>  <NaasN>
0

>  <NssssN>
0

>  <NsOH>
0

>  <NdO>
3

>  <NssO>
0

>  <NaaO>
0

>  <NsF>
0

>  <NsSiH3>
0

>  <NssSiH2>
0

>  <NsssSiH>
0

>  <NssssSi>
0

>  <NsPH2>
0

>  <NssPH>
0

>  <NsssP>
0

>  <NdsssP>
0

>  <NsssssP>
0

>  <NsSH>
0

>  <NdS>
0

>  <NssS>
0

>  <NaaS>
0

>  <NdssS>
0

>  <NddssS>
1

>  <NsCl>
1

>  <NsBr>
0

>  <NsI>
0

>  <fragCpx>
124.08

>  <fMF>
0.4

>  <nHBAcc>
4

>  <nHBDon>
2

>  <Kier1>
18.78

>  <Kier2>
6.96

>  <Lipinski>
1

>  <GhoseFilter>
1

>  <FilterItLogS>
-4.51

>  <VMcGowan>
249.76

>  <LabuteASA>
144.82

>  <PEOE_VSA1>
5.32

>  <PEOE_VSA2>
9.69

>  <PEOE_VSA3>
13.56

>  <PEOE_VSA4>
0

>  <PEOE_VSA5>
0

>  <PEOE_VSA6>
29.8

>  <PEOE_VSA7>
37.61

>  <PEOE_VSA8>
5.69

>  <PEOE_VSA9>
16.27

>  <PEOE_VSA10>
11.06

>  <PEOE_VSA11>
0

>  <PEOE_VSA12>
10.02

>  <PEOE_VSA13>
5.91

>  <SMR_VSA1>
13.21

>  <SMR_VSA2>
0

>  <SMR_VSA3>
0

>  <SMR_VSA4>
5.14

>  <SMR_VSA5>
24.91

>  <SMR_VSA6>
10.22

>  <SMR_VSA7>
52.55

>  <SMR_VSA8>
0

>  <SMR_VSA9>
0

>  <SlogP_VSA1>
15.36

>  <SlogP_VSA2>
20.49

>  <SlogP_VSA3>
10.02

>  <SlogP_VSA4>
6.92

>  <SlogP_VSA5>
22.85

>  <SlogP_VSA6>
41.29

>  <SlogP_VSA7>
5.02

>  <SlogP_VSA8>
0

>  <SlogP_VSA9>
0

>  <SlogP_VSA10>
11.37

>  <SlogP_VSA11>
0

>  <EState_VSA1>
10.02

>  <EState_VSA2>
27.55

>  <EState_VSA3>
5.69

>  <EState_VSA4>
11.25

>  <EState_VSA5>
12.13

>  <EState_VSA6>
4.9

>  <EState_VSA7>
38.11

>  <EState_VSA8>
5.32

>  <EState_VSA9>
16.74

>  <EState_VSA10>
13.21

>  <VSA_EState1>
23.33

>  <VSA_EState2>
14.29

>  <VSA_EState3>
8.33

>  <VSA_EState4>
2.38

>  <VSA_EState5>
-0.31

>  <VSA_EState6>
10.11

>  <VSA_EState7>
-0.32

>  <VSA_EState8>
3.75

>  <VSA_EState9>
-4.02

>  <apol>
48.17

>  <bpol>
25.8

>  <nRing>
3

>  <nHRing>
1

>  <naRing>
2

>  <naHRing>
0

>  <nARing 2>
1

>  <nAHRing 2>
1

>  <nFRing>
1

>  <nFHRing>
1

>  <nFaRing>
0

>  <nFaHRing>
0

>  <nFARing 2>
1

>  <nFAHRing 2>
1

>  <nRot>
2

>  <SLogP>
2.71

>  <SMR>
93.9

>  <TopoPSA(NO)>
92.5

>  <TopoPSA>
100.88

>  <JGI1>
0.25

>  <JGI2>
0.09

>  <JGI3>
0.07

>  <JGI4>
0.05

>  <JGI5>
0.04

>  <Diameter>
10

>  <Radius>
5

>  <TMWC10>
126.69

>  <TSRW10>
59.28

>  <MW>
365.06

>  <AMW>
9.13

>  <WPath>
1228

>  <WPol>
44

>  <Zagreb1>
132

>  <Zagreb2>
159

>  <mZagreb2>
5.03

>  <yes>


>  <nAR-cont>
0.816016

>  <nHA-cont>
0.94700071

>  <MWHBN>
0.314028544

>  <MWHBN-cont>
0.79690201

>  <TPSA-cont>
0.295794957

>  <pka_cont>
0.97

>  <yes.1>


>  <BBB_SCORE>
4.034959639

>  <MMFF94 Energy>
-75.171

$$$$
Compound 2559
Actelion Java MolfileCreator 2.0

  0  0  0  0  0  0              0 V3000
M  V30 BEGIN CTAB
M  V30 COUNTS 30 32 0 0 0
M  V30 BEGIN ATOM
M  V30 1 Cl 3.4148 3.1706 3.9849 0
M  V30 2 C 2.2519 2.1665 3.2108 0
M  V30 3 C 1.4585 2.6849 2.1909 0
M  V30 4 C 2.1104 0.8389 3.6077 0
M  V30 5 C 0.5147 1.8684 1.5632 0
M  V30 6 C 1.1663 0.022 2.9797 0
M  V30 7 C 0.3531 0.5276 1.9517 0
M  V30 8 C -0.6463 -0.3755 1.2644 0 CFG=1
M  V30 9 O -1.9067 0.3265 1.0924 0
M  V30 10 C -0.2731 -0.7877 -0.1136 0
M  V30 11 C -2.4432 0.0517 -0.2202 0
M  V30 12 C -1.3233 -0.5452 -0.9837 0
M  V30 13 C 0.8795 -1.3686 -0.5848 0
M  V30 14 C -1.2105 -0.8832 -2.3168 0
M  V30 15 N 1.0289 -1.7141 -1.8823 0
M  V30 16 O -2.2119 -0.6719 -3.2141 0
M  V30 17 C -0.0113 -1.4682 -2.7327 0
M  V30 18 C 0.1882 -1.8633 -4.1667 0
M  V30 19 H 1.5677 3.7201 1.879 0
M  V30 20 H 2.7301 0.4346 4.4037 0
M  V30 21 H -0.1004 2.2842 0.7672 0
M  V30 22 H 1.0691 -1.0128 3.3023 0
M  V30 23 H -0.8619 -1.26 1.8759 0
M  V30 24 H -3.278 -0.6475 -0.116 0
M  V30 25 H -2.7874 0.9942 -0.6543 0
M  V30 26 H 1.7277 -1.5814 0.0574 0
M  V30 27 H -2.9528 -0.2182 -2.7824 0
M  V30 28 H 1.1807 -2.3013 -4.3143 0
M  V30 29 H 0.1051 -0.9873 -4.8174 0
M  V30 30 H -0.5573 -2.6076 -4.463 0
M  V30 END ATOM
M  V30 BEGIN BOND
M  V30 1 1 1 2
M  V30 2 2 2 3
M  V30 3 1 2 4
M  V30 4 1 3 5
M  V30 5 2 4 6
M  V30 6 2 5 7
M  V30 7 1 7 8
M  V30 8 1 8 9
M  V30 9 1 8 10
M  V30 10 1 9 11
M  V30 11 2 10 12
M  V30 12 1 10 13
M  V30 13 1 12 14
M  V30 14 2 13 15
M  V30 15 1 14 16
M  V30 16 2 14 17
M  V30 17 1 17 18
M  V30 18 1 6 7
M  V30 19 1 11 12
M  V30 20 1 15 17
M  V30 21 1 3 19
M  V30 22 1 4 20
M  V30 23 1 5 21
M  V30 24 1 6 22
M  V30 25 1 8 23
M  V30 26 1 11 24
M  V30 27 1 11 25
M  V30 28 1 13 26
M  V30 29 1 16 27
M  V30 30 1 18 28
M  V30 31 1 18 29
M  V30 32 1 18 30
M  V30 END BOND
M  V30 BEGIN COLLECTION
M  V30 MDLV30/STERAC1 ATOMS=(1 8)
M  V30 END COLLECTION
M  V30 END CTAB
M  END
>  <Column 1>
3176

>  <level_0>
5331

>  <index>
5332

>  <Unnamed: 0>
5332

>  <NO.>
5344

>  <Name>
cicletanine

>  <IUPAC_name>
3-(4-chlorophenyl)-6-methyl-1-3-dihydrofuro[3-4-c]pyridin-7-ol

>  <SMILES>
Cc1ncc2c(c1O)COC2c1ccc(Cl)cc1

>  <CID>
54910

>  <logBB>


>  <BBB+/BBB->
BBB-

>  <Inchi>
InChI=1S/C14H12ClNO2/c1-8-13(17)12-7-18-14(11(12)6-16-8)9-2-4-10(15)5-3-9/h2-6-14-17H-7H2-1H3

>  <threshold>


>  <reference>
R14|R23|

>  <group>
C

>  <Class>
-1

>  <ABC>
14.27

>  <ABCGG>
11.95

>  <nAcid>
0

>  <nBase>
0

>  <nAromAtom>
12

>  <nAromBond>
12

>  <nAtom>
30

>  <nHeavyAtom>
18

>  <nSpiro>
0

>  <nBridgehead>
0

>  <nHetero>
4

>  <nN>
1

>  <nO>
2

>  <nF>
0

>  <BalabanJ>
1.65

>  <BertzCT>
595.49

>  <nBonds>
32

>  <nBondsO>
20

>  <nBondsS>
20

>  <nBondsD>
0

>  <nBondsT>
0

>  <nBondsA>
12

>  <nBondsM>
12

>  <nBondsKS>
26

>  <nBondsKD>
6

>  <RNCG>
0.35

>  <RPCG>
0.2

>  <FCSP3>
0.21

>  <SZ>
22.67

>  <Sm>
21.79

>  <Sv>
20.53

>  <Sse>
30.42

>  <Sp>
21.72

>  <Si>
33.35

>  <MZ>
0.76

>  <Mm>
0.73

>  <Mv>
0.68

>  <Mse>
1.01

>  <Mp>
0.72

>  <Mi>
1.11

>  <NsCH3>
1

>  <NdCH2>
0

>  <NssCH2>
1

>  <NtCH>
0

>  <NdsCH>
0

>  <NaaCH>
5

>  <NsssCH>
1

>  <NddC>
0

>  <NtsC>
0

>  <NdssC>
0

>  <NaasC>
6

>  <NaaaC>
0

>  <NssssC>
0

>  <NsNH3>
0

>  <NsNH2>
0

>  <NssNH2>
0

>  <NdNH>
0

>  <NssNH>
0

>  <NaaNH>
0

>  <NtN>
0

>  <NsssNH>
0

>  <NdsN>
0

>  <NaaN>
1

>  <NsssN>
0

>  <NddsN>
0

>  <NaasN>
0

>  <NssssN>
0

>  <NsOH>
1

>  <NdO>
0

>  <NssO>
1

>  <NaaO>
0

>  <NsF>
0

>  <NsSiH3>
0

>  <NssSiH2>
0

>  <NsssSiH>
0

>  <NssssSi>
0

>  <NsPH2>
0

>  <NssPH>
0

>  <NsssP>
0

>  <NdsssP>
0

>  <NsssssP>
0

>  <NsSH>
0

>  <NdS>
0

>  <NssS>
0

>  <NaaS>
0

>  <NdssS>
0

>  <NddssS>
0

>  <NsCl>
1

>  <NsBr>
0

>  <NsI>
0

>  <fragCpx>
94.04

>  <fMF>
0.5

>  <nHBAcc>
3

>  <nHBDon>
1

>  <Kier1>
13.01

>  <Kier2>
5.17

>  <Lipinski>
1

>  <GhoseFilter>
1

>  <FilterItLogS>
-4.28

>  <VMcGowan>
183.7

>  <LabuteASA>
110.01

>  <PEOE_VSA1>
9.84

>  <PEOE_VSA2>
4.98

>  <PEOE_VSA3>
0

>  <PEOE_VSA4>
0

>  <PEOE_VSA5>
0

>  <PEOE_VSA6>
23.73

>  <PEOE_VSA7>
24.62

>  <PEOE_VSA8>
22.35

>  <PEOE_VSA9>
12.3

>  <PEOE_VSA10>
11.85

>  <PEOE_VSA11>
0

>  <PEOE_VSA12>
0

>  <PEOE_VSA13>
0

>  <SMR_VSA1>
9.84

>  <SMR_VSA2>
0

>  <SMR_VSA3>
4.98

>  <SMR_VSA4>
0

>  <SMR_VSA5>
19.63

>  <SMR_VSA6>
0

>  <SMR_VSA7>
57.87

>  <SMR_VSA8>
0

>  <SMR_VSA9>
5.75

>  <SlogP_VSA1>
0

>  <SlogP_VSA2>
10.09

>  <SlogP_VSA3>
11.34

>  <SlogP_VSA4>
6.92

>  <SlogP_VSA5>
28.49

>  <SlogP_VSA6>
30.46

>  <SlogP_VSA7>
5.02

>  <SlogP_VSA8>
0

>  <SlogP_VSA9>
0

>  <SlogP_VSA10>
0

>  <SlogP_VSA11>
5.75

>  <EState_VSA1>
0

>  <EState_VSA2>
11.85

>  <EState_VSA3>
17.32

>  <EState_VSA4>
16.69

>  <EState_VSA5>
0

>  <EState_VSA6>
13.12

>  <EState_VSA7>
24.27

>  <EState_VSA8>
4.98

>  <EState_VSA9>
16.34

>  <EState_VSA10>
5.11

>  <VSA_EState1>
5.74

>  <VSA_EState2>
4.19

>  <VSA_EState3>
10.66

>  <VSA_EState4>
3.42

>  <VSA_EState5>
0.24

>  <VSA_EState6>
7.53

>  <VSA_EState7>
1.6

>  <VSA_EState8>
2.2

>  <VSA_EState9>
0

>  <apol>
36.27

>  <bpol>
15.42

>  <nRing>
3

>  <nHRing>
2

>  <naRing>
2

>  <naHRing>
1

>  <nARing 2>
1

>  <nAHRing 2>
1

>  <nFRing>
1

>  <nFHRing>
1

>  <nFaRing>
0

>  <nFaHRing>
0

>  <nFARing 2>
1

>  <nFAHRing 2>
1

>  <nRot>
1

>  <SLogP>
3.37

>  <SMR>
68.72

>  <TopoPSA(NO)>
42.35

>  <TopoPSA>
42.35

>  <JGI1>
0.18

>  <JGI2>
0.1

>  <JGI3>
0.05

>  <JGI4>
0.05

>  <JGI5>
0.03

>  <Diameter>
10

>  <Radius>
5

>  <TMWC10>
111.46

>  <TSRW10>
65.52

>  <MW>
261.06

>  <AMW>
8.7

>  <WPath>
588

>  <WPol>
29

>  <Zagreb1>
98

>  <Zagreb2>
118

>  <mZagreb2>
3.89

>  <yes>


>  <nAR-cont>
0.816016

>  <nHA-cont>
0.991161285

>  <MWHBN>
0.24756533

>  <MWHBN-cont>
0.963775894

>  <TPSA-cont>
0.704370702

>  <pka_cont>
0.97

>  <yes.1>


>  <BBB_SCORE>
5.14658253

>  <MMFF94 Energy>
60.888

$$$$
Compound 2560
Actelion Java MolfileCreator 2.0

  0  0  0  0  0  0              0 V3000
M  V30 BEGIN CTAB
M  V30 COUNTS 28 29 0 0 0
M  V30 BEGIN ATOM
M  V30 1 F -3.7271 -2.1864 -3.8894 0
M  V30 2 C -4.0102 -1.2524 -2.9402 0
M  V30 3 F -4.961 -1.8077 -2.1385 0
M  V30 4 F -4.628 -0.2296 -3.5951 0
M  V30 5 C -2.779 -0.8109 -2.187 0
M  V30 6 C -2.3835 -1.4671 -1.0137 0
M  V30 7 C -1.9845 0.2382 -2.6683 0
M  V30 8 C -1.2304 -1.0714 -0.3254 0
M  V30 9 C -0.8326 0.632 -1.9793 0
M  V30 10 C -0.4525 -0.0129 -0.7965 0
M  V30 11 N 0.7307 0.4288 -0.1682 0
M  V30 12 C 1.1198 0.1739 1.1363 0
M  V30 13 O 0.451 -0.4361 1.9629 0
M  V30 14 C 2.4186 0.7227 1.4924 0
M  V30 15 C 2.946 0.7767 2.7688 0
M  V30 16 C 3.4446 1.2927 0.7047 0
M  V30 17 O 4.1786 1.3503 2.7336 0
M  V30 18 C 2.4601 0.3592 4.0997 0
M  V30 19 N 4.4956 1.6803 1.4288 0
M  V30 20 H -2.9727 -2.2965 -0.6232 0
M  V30 21 H -2.2622 0.758 -3.5846 0
M  V30 22 H -0.9615 -1.621 0.5725 0
M  V30 23 H -0.2461 1.4553 -2.3797 0
M  V30 24 H 1.3076 1.0474 -0.7187 0
M  V30 25 H 3.489 1.4432 -0.3639 0
M  V30 26 H 3.166 0.6404 4.8877 0
M  V30 27 H 2.3291 -0.7264 4.136 0
M  V30 28 H 1.4997 0.8332 4.3245 0
M  V30 END ATOM
M  V30 BEGIN BOND
M  V30 1 1 1 2
M  V30 2 1 2 3
M  V30 3 1 2 4
M  V30 4 1 2 5
M  V30 5 2 5 6
M  V30 6 1 5 7
M  V30 7 1 6 8
M  V30 8 2 7 9
M  V30 9 2 8 10
M  V30 10 1 10 11
M  V30 11 1 11 12
M  V30 12 2 12 13
M  V30 13 1 12 14
M  V30 14 2 14 15
M  V30 15 1 14 16
M  V30 16 1 15 17
M  V30 17 1 15 18
M  V30 18 2 16 19
M  V30 19 1 9 10
M  V30 20 1 17 19
M  V30 21 1 6 20
M  V30 22 1 7 21
M  V30 23 1 8 22
M  V30 24 1 9 23
M  V30 25 1 11 24
M  V30 26 1 16 25
M  V30 27 1 18 26
M  V30 28 1 18 27
M  V30 29 1 18 28
M  V30 END BOND
M  V30 END CTAB
M  END
>  <Column 1>
3177

>  <level_0>
5332

>  <index>
5333

>  <Unnamed: 0>
5333

>  <NO.>
5345

>  <Name>
leflunomide

>  <IUPAC_name>
5-methyl-n-[4-(trifluoromethyl)phenyl]-1-2-oxazole-4-carboxamide

>  <SMILES>
Cc1oncc1C(=O)Nc1ccc(C(F)(F)F)cc1

>  <CID>
3899

>  <logBB>


>  <BBB+/BBB->
BBB-

>  <Inchi>
InChI=1S/C12H9F3N2O2/c1-7-10(6-16-19-7)11(18)17-9-4-2-8(3-5-9)12(13-14)15/h2-6H-1H3-(H-17-18)

>  <threshold>


>  <reference>
R14|R15|R23|

>  <group>
C

>  <Class>
1

>  <ABC>
14.7

>  <ABCGG>
12.86

>  <nAcid>
0

>  <nBase>
0

>  <nAromAtom>
11

>  <nAromBond>
11

>  <nAtom>
28

>  <nHeavyAtom>
19

>  <nSpiro>
0

>  <nBridgehead>
0

>  <nHetero>
7

>  <nN>
2

>  <nO>
2

>  <nF>
3

>  <BalabanJ>
1.76

>  <BertzCT>
587.77

>  <nBonds>
29

>  <nBondsO>
20

>  <nBondsS>
17

>  <nBondsD>
1

>  <nBondsT>
0

>  <nBondsA>
11

>  <nBondsM>
12

>  <nBondsKS>
23

>  <nBondsKD>
6

>  <RNCG>
0.21

>  <RPCG>
0.24

>  <FCSP3>
0.17

>  <SZ>
23

>  <Sm>
22.5

>  <Sv>
19.32

>  <Sse>
29.85

>  <Sp>
18.87

>  <Si>
32.51

>  <MZ>
0.82

>  <Mm>
0.8

>  <Mv>
0.69

>  <Mse>
1.07

>  <Mp>
0.67

>  <Mi>
1.16

>  <NsCH3>
1

>  <NdCH2>
0

>  <NssCH2>
0

>  <NtCH>
0

>  <NdsCH>
0

>  <NaaCH>
5

>  <NsssCH>
0

>  <NddC>
0

>  <NtsC>
0

>  <NdssC>
1

>  <NaasC>
4

>  <NaaaC>
0

>  <NssssC>
1

>  <NsNH3>
0

>  <NsNH2>
0

>  <NssNH2>
0

>  <NdNH>
0

>  <NssNH>
1

>  <NaaNH>
0

>  <NtN>
0

>  <NsssNH>
0

>  <NdsN>
0

>  <NaaN>
1

>  <NsssN>
0

>  <NddsN>
0

>  <NaasN>
0

>  <NssssN>
0

>  <NsOH>
0

>  <NdO>
1

>  <NssO>
0

>  <NaaO>
1

>  <NsF>
3

>  <NsSiH3>
0

>  <NssSiH2>
0

>  <NsssSiH>
0

>  <NssssSi>
0

>  <NsPH2>
0

>  <NssPH>
0

>  <NsssP>
0

>  <NdsssP>
0

>  <NsssssP>
0

>  <NsSH>
0

>  <NdS>
0

>  <NssS>
0

>  <NaaS>
0

>  <NdssS>
0

>  <NddssS>
0

>  <NsCl>
0

>  <NsBr>
0

>  <NsI>
0

>  <fragCpx>
58.07

>  <fMF>
0.46

>  <nHBAcc>
3

>  <nHBDon>
1

>  <Kier1>
15.39

>  <Kier2>
6.19

>  <Lipinski>
1

>  <GhoseFilter>
1

>  <FilterItLogS>
-4.27

>  <VMcGowan>
169.4

>  <LabuteASA>
105.76

>  <PEOE_VSA1>
9.84

>  <PEOE_VSA2>
4.79

>  <PEOE_VSA3>
0

>  <PEOE_VSA4>
13.17

>  <PEOE_VSA5>
0

>  <PEOE_VSA6>
5.16

>  <PEOE_VSA7>
31.19

>  <PEOE_VSA8>
5.69

>  <PEOE_VSA9>
11.76

>  <PEOE_VSA10>
11.32

>  <PEOE_VSA11>
0

>  <PEOE_VSA12>
0

>  <PEOE_VSA13>
5.91

>  <SMR_VSA1>
22.49

>  <SMR_VSA2>
0

>  <SMR_VSA3>
5.16

>  <SMR_VSA4>
0

>  <SMR_VSA5>
13.1

>  <SMR_VSA6>
5.32

>  <SMR_VSA7>
47.35

>  <SMR_VSA8>
0

>  <SMR_VSA9>
0

>  <SlogP_VSA1>
5.32

>  <SlogP_VSA2>
11.06

>  <SlogP_VSA3>
6.18

>  <SlogP_VSA4>
6.92

>  <SlogP_VSA5>
21.68

>  <SlogP_VSA6>
34.99

>  <SlogP_VSA7>
0

>  <SlogP_VSA8>
0

>  <SlogP_VSA9>
0

>  <SlogP_VSA10>
18.86

>  <SlogP_VSA11>
0

>  <EState_VSA1>
17.65

>  <EState_VSA2>
11.25

>  <EState_VSA3>
5.76

>  <EState_VSA4>
12.13

>  <EState_VSA5>
18.33

>  <EState_VSA6>
6.92

>  <EState_VSA7>
0

>  <EState_VSA8>
10.47

>  <EState_VSA9>
4.52

>  <EState_VSA10>
17.97

>  <VSA_EState1>
41.78

>  <VSA_EState2>
11.74

>  <VSA_EState3>
5.9

>  <VSA_EState4>
-0.27

>  <VSA_EState5>
-0.15

>  <VSA_EState6>
4.17

>  <VSA_EState7>
-3.15

>  <VSA_EState8>
1.56

>  <VSA_EState9>
0

>  <apol>
31.52

>  <bpol>
15.54

>  <nRing>
2

>  <nHRing>
1

>  <naRing>
2

>  <naHRing>
1

>  <nARing 2>
0

>  <nAHRing 2>
0

>  <nFRing>
0

>  <nFHRing>
0

>  <nFaRing>
0

>  <nFaHRing>
0

>  <nFARing 2>
0

>  <nFAHRing 2>
0

>  <nRot>
2

>  <SLogP>
3.25

>  <SMR>
60.64

>  <TopoPSA(NO)>
55.13

>  <TopoPSA>
55.13

>  <JGI1>
0.28

>  <JGI2>
0.1

>  <JGI3>
0.06

>  <JGI4>
0.04

>  <JGI5>
0.04

>  <Diameter>
10

>  <Radius>
5

>  <TMWC10>
111

>  <TSRW10>
65.82

>  <MW>
270.06

>  <AMW>
9.65

>  <WPath>
770

>  <WPol>
26

>  <Zagreb1>
98

>  <Zagreb2>
112

>  <mZagreb2>
4.06

>  <yes>


>  <nAR-cont>
0.336376

>  <nHA-cont>
0.998649058

>  <MWHBN>
0.243405204

>  <MWHBN-cont>
0.970165184

>  <TPSA-cont>
0.615158366

>  <pka_cont>
0.97

>  <yes.1>


>  <BBB_SCORE>
4.505589566

>  <MMFF94 Energy>
18.934

$$$$
Compound 2561
Actelion Java MolfileCreator 2.0

  0  0  0  0  0  0              0 V3000
M  V30 BEGIN CTAB
M  V30 COUNTS 14 14 0 0 0
M  V30 BEGIN ATOM
M  V30 1 Cl 0.0 -2.8662 -0.1684 0
M  V30 2 C 0.5312 -1.6715 1.042 0
M  V30 3 C 1.1396 -0.4294 0.3961 0
M  V30 4 C 0.1218 0.446 -0.2669 0
M  V30 5 S -0.0238 0.5164 -1.9763 0
M  V30 6 C -0.7996 1.3027 0.3051 0
M  V30 7 C -1.2979 1.6507 -1.8057 0
M  V30 8 N -1.6117 1.9893 -0.5747 0
M  V30 9 H 1.2782 -2.1688 1.6682 0
M  V30 10 H -0.3312 -1.4254 1.6696 0
M  V30 11 H 1.6292 0.1618 1.1811 0
M  V30 12 H 1.9332 -0.7159 -0.305 0
M  V30 13 H -0.9254 1.4673 1.3689 0
M  V30 14 H -1.8077 2.063 -2.6666 0
M  V30 END ATOM
M  V30 BEGIN BOND
M  V30 1 1 1 2
M  V30 2 1 2 3
M  V30 3 1 3 4
M  V30 4 1 4 5
M  V30 5 2 4 6
M  V30 6 1 5 7
M  V30 7 1 6 8
M  V30 8 2 7 8
M  V30 9 1 2 9
M  V30 10 1 2 10
M  V30 11 1 3 11
M  V30 12 1 3 12
M  V30 13 1 6 13
M  V30 14 1 7 14
M  V30 END BOND
M  V30 END CTAB
M  END
>  <Column 1>
3178

>  <level_0>
5333

>  <index>
5334

>  <Unnamed: 0>
5334

>  <NO.>
5346

>  <Name>
chlormethiazole

>  <IUPAC_name>
5-(2-chloroethyl)-1-3-thiazole

>  <SMILES>
ClCCc1cncs1

>  <CID>
205483

>  <logBB>


>  <BBB+/BBB->
BBB+

>  <Inchi>
InChI=1S/C5H6ClNS/c6-2-1-5-3-7-4-8-5/h3-4H-1-2H2

>  <threshold>


>  <reference>
R14|

>  <group>
C

>  <Class>
-1

>  <ABC>
5.66

>  <ABCGG>
5.8

>  <nAcid>
0

>  <nBase>
0

>  <nAromAtom>
5

>  <nAromBond>
5

>  <nAtom>
14

>  <nHeavyAtom>
8

>  <nSpiro>
0

>  <nBridgehead>
0

>  <nHetero>
3

>  <nN>
1

>  <nO>
0

>  <nF>
0

>  <BalabanJ>
2.06

>  <BertzCT>
138.15

>  <nBonds>
14

>  <nBondsO>
8

>  <nBondsS>
9

>  <nBondsD>
0

>  <nBondsT>
0

>  <nBondsA>
5

>  <nBondsM>
5

>  <nBondsKS>
12

>  <nBondsKD>
2

>  <RNCG>
0.5

>  <RPCG>
0.19

>  <FCSP3>
0.4

>  <SZ>
12.67

>  <Sm>
12.29

>  <Sv>
9.66

>  <Sse>
14.17

>  <Sp>
11.1

>  <Si>
15.61

>  <MZ>
0.9

>  <Mm>
0.88

>  <Mv>
0.69

>  <Mse>
1.01

>  <Mp>
0.79

>  <Mi>
1.11

>  <NsCH3>
0

>  <NdCH2>
0

>  <NssCH2>
2

>  <NtCH>
0

>  <NdsCH>
0

>  <NaaCH>
2

>  <NsssCH>
0

>  <NddC>
0

>  <NtsC>
0

>  <NdssC>
0

>  <NaasC>
1

>  <NaaaC>
0

>  <NssssC>
0

>  <NsNH3>
0

>  <NsNH2>
0

>  <NssNH2>
0

>  <NdNH>
0

>  <NssNH>
0

>  <NaaNH>
0

>  <NtN>
0

>  <NsssNH>
0

>  <NdsN>
0

>  <NaaN>
1

>  <NsssN>
0

>  <NddsN>
0

>  <NaasN>
0

>  <NssssN>
0

>  <NsOH>
0

>  <NdO>
0

>  <NssO>
0

>  <NaaO>
0

>  <NsF>
0

>  <NsSiH3>
0

>  <NssSiH2>
0

>  <NsssSiH>
0

>  <NssssSi>
0

>  <NsPH2>
0

>  <NssPH>
0

>  <NsssP>
0

>  <NdsssP>
0

>  <NsssssP>
0

>  <NsSH>
0

>  <NdS>
0

>  <NssS>
0

>  <NaaS>
1

>  <NdssS>
0

>  <NddssS>
0

>  <NsCl>
1

>  <NsBr>
0

>  <NsI>
0

>  <fragCpx>
8.03

>  <fMF>
0.36

>  <nHBAcc>
2

>  <nHBDon>
0

>  <Kier1>
6.13

>  <Kier2>
3.11

>  <Lipinski>
1

>  <GhoseFilter>
0

>  <FilterItLogS>
-2.4

>  <VMcGowan>
100.42

>  <LabuteASA>
57.32

>  <PEOE_VSA1>
0

>  <PEOE_VSA2>
4.98

>  <PEOE_VSA3>
0

>  <PEOE_VSA4>
0

>  <PEOE_VSA5>
22.94

>  <PEOE_VSA6>
0

>  <PEOE_VSA7>
6.42

>  <PEOE_VSA8>
16.95

>  <PEOE_VSA9>
5.51

>  <PEOE_VSA10>
0

>  <PEOE_VSA11>
0

>  <PEOE_VSA12>
0

>  <PEOE_VSA13>
0

>  <SMR_VSA1>
0

>  <SMR_VSA2>
0

>  <SMR_VSA3>
4.98

>  <SMR_VSA4>
0

>  <SMR_VSA5>
6.42

>  <SMR_VSA6>
5.88

>  <SMR_VSA7>
16.58

>  <SMR_VSA8>
0

>  <SMR_VSA9>
0

>  <SlogP_VSA1>
0

>  <SlogP_VSA2>
10.86

>  <SlogP_VSA3>
6.42

>  <SlogP_VSA4>
0

>  <SlogP_VSA5>
4.88

>  <SlogP_VSA6>
11.71

>  <SlogP_VSA7>
0

>  <SlogP_VSA8>
0

>  <SlogP_VSA9>
0

>  <SlogP_VSA10>
0

>  <SlogP_VSA11>
0

>  <EState_VSA1>
0

>  <EState_VSA2>
0

>  <EState_VSA3>
5.88

>  <EState_VSA4>
6.42

>  <EState_VSA5>
4.88

>  <EState_VSA6>
11.34

>  <EState_VSA7>
11.71

>  <EState_VSA8>
4.98

>  <EState_VSA9>
11.6

>  <EState_VSA10>
0

>  <VSA_EState1>
0

>  <VSA_EState2>
5.16

>  <VSA_EState3>
0

>  <VSA_EState4>
1.82

>  <VSA_EState5>
0.7

>  <VSA_EState6>
0

>  <VSA_EState7>
2.8

>  <VSA_EState8>
0

>  <VSA_EState9>
0

>  <apol>
18.53

>  <bpol>
10.13

>  <nRing>
1

>  <nHRing>
1

>  <naRing>
1

>  <naHRing>
1

>  <nARing 2>
0

>  <nAHRing 2>
0

>  <nFRing>
0

>  <nFHRing>
0

>  <nFaRing>
0

>  <nFaHRing>
0

>  <nFARing 2>
0

>  <nFAHRing 2>
0

>  <nRot>
2

>  <SLogP>
1.92

>  <SMR>
36.54

>  <TopoPSA(NO)>
12.89

>  <TopoPSA>
41.13

>  <JGI1>
0.13

>  <JGI2>
0.05

>  <JGI3>
0.04

>  <JGI4>
0.03

>  <JGI5>
0.04

>  <Diameter>
5

>  <Radius>
3

>  <TMWC10>
75.36

>  <TSRW10>
47.99

>  <MW>
146.99

>  <AMW>
10.5

>  <WPath>
67

>  <WPol>
5

>  <Zagreb1>
34

>  <Zagreb2>
36

>  <mZagreb2>
2

>  <yes>


>  <nAR-cont>
0.336376

>  <nHA-cont>
0.464727961

>  <MWHBN>
0.164962831

>  <MWHBN-cont>
0.965458324

>  <TPSA-cont>
0.71288706

>  <pka_cont>
0.97

>  <yes.1>


>  <BBB_SCORE>
4.160065567

>  <MMFF94 Energy>
10.021

$$$$
Compound 2562
Actelion Java MolfileCreator 2.0

  0  0  0  0  0  0              0 V3000
M  V30 BEGIN CTAB
M  V30 COUNTS 28 29 0 0 0
M  V30 BEGIN ATOM
M  V30 1 O 1.9724 -4.0269 4.0269 0
M  V30 2 N 2.023 -2.8412 3.6825 0 CHG=1
M  V30 3 O 2.6002 -1.9337 4.2915 0 CHG=-1
M  V30 4 C 1.3734 -2.5069 2.4651 0
M  V30 5 N 0.9694 -1.2473 2.0934 0
M  V30 6 C 1.0239 -3.3458 1.4421 0
M  V30 7 C 0.479 -1.3583 0.7979 0
M  V30 8 C 0.9869 -0.0543 2.9124 0
M  V30 9 N 0.4696 -2.6269 0.4184 0
M  V30 10 C 0.0739 -0.2158 0.0577 0
M  V30 11 C -0.5525 -0.3699 -1.1207 0
M  V30 12 C -0.9989 0.7488 -1.9622 0
M  V30 13 N -0.787 1.9982 -1.4989 0
M  V30 14 C -1.6102 0.4975 -3.1711 0
M  V30 15 C -1.1985 3.0068 -2.2714 0
M  V30 16 C -1.9934 1.6062 -3.8833 0
M  V30 17 N -1.7991 2.8652 -3.4554 0
M  V30 18 N -0.9911 4.2762 -1.8209 0
M  V30 19 H 1.1559 -4.4186 1.375 0
M  V30 20 H 1.9732 0.4071 2.8259 0
M  V30 21 H 0.7638 -0.3191 3.9486 0
M  V30 22 H 0.21 0.6402 2.5872 0
M  V30 23 H 0.2857 0.7836 0.4229 0
M  V30 24 H -0.7541 -1.3687 -1.5013 0
M  V30 25 H -1.7823 -0.5014 -3.5466 0
M  V30 26 H -2.4827 1.5141 -4.8482 0
M  V30 27 H -1.2947 5.0341 -2.4063 0
M  V30 28 H -0.5326 4.4001 -0.9372 0
M  V30 END ATOM
M  V30 BEGIN BOND
M  V30 1 2 1 2
M  V30 2 1 2 3
M  V30 3 1 2 4
M  V30 4 1 4 5
M  V30 5 2 4 6
M  V30 6 1 5 7
M  V30 7 1 5 8
M  V30 8 1 6 9
M  V30 9 1 7 10
M  V30 10 2 10 11
M  V30 11 1 11 12
M  V30 12 2 12 13
M  V30 13 1 12 14
M  V30 14 1 13 15
M  V30 15 2 14 16
M  V30 16 2 15 17
M  V30 17 1 15 18
M  V30 18 2 7 9
M  V30 19 1 16 17
M  V30 20 1 6 19
M  V30 21 1 8 20
M  V30 22 1 8 21
M  V30 23 1 8 22
M  V30 24 1 10 23
M  V30 25 1 11 24
M  V30 26 1 14 25
M  V30 27 1 16 26
M  V30 28 1 18 27
M  V30 29 1 18 28
M  V30 END BOND
M  V30 END CTAB
M  END
>  <Column 1>
3182

>  <level_0>
5337

>  <index>
5338

>  <Unnamed: 0>
5338

>  <NO.>
5350

>  <Name>
azanidazole

>  <IUPAC_name>
4-[2-(1-methyl-5-nitroimidazol-2-yl)ethenyl]pyrimidin-2-amine

>  <SMILES>
Cn1c([N+](=O)[O-])cnc1C=Cc1ccnc(N)n1

>  <CID>
72105

>  <logBB>


>  <BBB+/BBB->
BBB-

>  <Inchi>
InChI=1S/C10H10N6O2/c1-15-8(13-6-9(15)16(17)18)3-2-7-4-5-12-10(11)14-7/h2-6H-1H3-(H2-11-12-14)

>  <threshold>


>  <reference>
R14|

>  <group>
C

>  <Class>
-1

>  <ABC>
13.75

>  <ABCGG>
12.05

>  <nAcid>
0

>  <nBase>
0

>  <nAromAtom>
11

>  <nAromBond>
11

>  <nAtom>
28

>  <nHeavyAtom>
18

>  <nSpiro>
0

>  <nBridgehead>
0

>  <nHetero>
8

>  <nN>
6

>  <nO>
2

>  <nF>
0

>  <BalabanJ>
1.74

>  <BertzCT>
618.58

>  <nBonds>
29

>  <nBondsO>
19

>  <nBondsS>
16

>  <nBondsD>
2

>  <nBondsT>
0

>  <nBondsA>
11

>  <nBondsM>
13

>  <nBondsKS>
22

>  <nBondsKD>
7

>  <RNCG>
0.18

>  <RPCG>
0.17

>  <FCSP3>
0.1

>  <SZ>
21.33

>  <Sm>
20.5

>  <Sv>
18.69

>  <Sse>
29.08

>  <Sp>
18.91

>  <Si>
32.24

>  <MZ>
0.76

>  <Mm>
0.73

>  <Mv>
0.67

>  <Mse>
1.04

>  <Mp>
0.68

>  <Mi>
1.15

>  <NsCH3>
1

>  <NdCH2>
0

>  <NssCH2>
0

>  <NtCH>
0

>  <NdsCH>
2

>  <NaaCH>
3

>  <NsssCH>
0

>  <NddC>
0

>  <NtsC>
0

>  <NdssC>
0

>  <NaasC>
4

>  <NaaaC>
0

>  <NssssC>
0

>  <NsNH3>
0

>  <NsNH2>
1

>  <NssNH2>
0

>  <NdNH>
0

>  <NssNH>
0

>  <NaaNH>
0

>  <NtN>
0

>  <NsssNH>
0

>  <NdsN>
0

>  <NaaN>
3

>  <NsssN>
0

>  <NddsN>
1

>  <NaasN>
1

>  <NssssN>
0

>  <NsOH>
0

>  <NdO>
1

>  <NssO>
0

>  <NaaO>
0

>  <NsF>
0

>  <NsSiH3>
0

>  <NssSiH2>
0

>  <NsssSiH>
0

>  <NssssSi>
0

>  <NsPH2>
0

>  <NssPH>
0

>  <NsssP>
0

>  <NdsssP>
0

>  <NsssssP>
0

>  <NsSH>
0

>  <NdS>
0

>  <NssS>
0

>  <NaaS>
0

>  <NdssS>
0

>  <NddssS>
0

>  <NsCl>
0

>  <NsBr>
0

>  <NsI>
0

>  <fragCpx>
55.08

>  <fMF>
0.46

>  <nHBAcc>
7

>  <nHBDon>
1

>  <Kier1>
14.41

>  <Kier2>
6.44

>  <Lipinski>
1

>  <GhoseFilter>
1

>  <FilterItLogS>
-1.86

>  <VMcGowan>
171.56

>  <LabuteASA>
101.96

>  <PEOE_VSA1>
15.85

>  <PEOE_VSA2>
0

>  <PEOE_VSA3>
19.52

>  <PEOE_VSA4>
0

>  <PEOE_VSA5>
0

>  <PEOE_VSA6>
0

>  <PEOE_VSA7>
17.07

>  <PEOE_VSA8>
12.27

>  <PEOE_VSA9>
12.74

>  <PEOE_VSA10>
6.2

>  <PEOE_VSA11>
0

>  <PEOE_VSA12>
11.77

>  <PEOE_VSA13>
0

>  <SMR_VSA1>
4.92

>  <SMR_VSA2>
0

>  <SMR_VSA3>
19.52

>  <SMR_VSA4>
7.05

>  <SMR_VSA5>
0

>  <SMR_VSA6>
5.73

>  <SMR_VSA7>
40.09

>  <SMR_VSA8>
0

>  <SMR_VSA9>
0

>  <SlogP_VSA1>
5.73

>  <SlogP_VSA2>
24.44

>  <SlogP_VSA3>
7.05

>  <SlogP_VSA4>
10.11

>  <SlogP_VSA5>
11.52

>  <SlogP_VSA6>
18.46

>  <SlogP_VSA7>
0

>  <SlogP_VSA8>
12.15

>  <SlogP_VSA9>
0

>  <SlogP_VSA10>
11.77

>  <SlogP_VSA11>
0

>  <EState_VSA1>
4.92

>  <EState_VSA2>
11.77

>  <EState_VSA3>
11.52

>  <EState_VSA4>
0

>  <EState_VSA5>
16.96

>  <EState_VSA6>
25.27

>  <EState_VSA7>
0

>  <EState_VSA8>
14.95

>  <EState_VSA9>
5.73

>  <EState_VSA10>
10.11

>  <VSA_EState1>
1.38

>  <VSA_EState2>
21.81

>  <VSA_EState3>
10.64

>  <VSA_EState4>
6.04

>  <VSA_EState5>
0.55

>  <VSA_EState6>
1.67

>  <VSA_EState7>
6.01

>  <VSA_EState8>
0

>  <VSA_EState9>
1.57

>  <apol>
31.57

>  <bpol>
15.76

>  <nRing>
2

>  <nHRing>
2

>  <naRing>
2

>  <naHRing>
2

>  <nARing 2>
0

>  <nAHRing 2>
0

>  <nFRing>
0

>  <nFHRing>
0

>  <nFaRing>
0

>  <nFaHRing>
0

>  <nFARing 2>
0

>  <nFAHRing 2>
0

>  <nRot>
3

>  <SLogP>
0.87

>  <SMR>
65.23

>  <TopoPSA(NO)>
112.76

>  <TopoPSA>
112.76

>  <JGI1>
0.21

>  <JGI2>
0.09

>  <JGI3>
0.06

>  <JGI4>
0.05

>  <JGI5>
0.02

>  <Diameter>
10

>  <Radius>
5

>  <TMWC10>
107.99

>  <TSRW10>
64.59

>  <MW>
246.09

>  <AMW>
8.79

>  <WPath>
667

>  <WPol>
24

>  <Zagreb1>
90

>  <Zagreb2>
103

>  <mZagreb2>
4

>  <yes>


>  <nAR-cont>
0.336376

>  <nHA-cont>
0.991161285

>  <MWHBN>
0.509968092

>  <MWHBN-cont>
0

>  <TPSA-cont>
0.21286518

>  <pka_cont>
0.97

>  <yes.1>


>  <BBB_SCORE>
2.238267645

>  <MMFF94 Energy>
-107.04

$$$$
Compound 2563
Actelion Java MolfileCreator 2.0

  0  0  0  0  0  0              0 V3000
M  V30 BEGIN CTAB
M  V30 COUNTS 26 28 0 0 0
M  V30 BEGIN ATOM
M  V30 1 S 0.1643 1.3151 0.493 0
M  V30 2 C 0.7591 0.1226 -0.6726 0
M  V30 3 C -1.07 0.3813 1.2832 0
M  V30 4 N 0.0482 -0.9869 -0.9705 0
M  V30 5 C 1.9546 0.3118 -1.332 0
M  V30 6 N -2.3989 0.7265 1.2094 0
M  V30 7 C -1.0526 -0.7685 2.0525 0
M  V30 8 C 0.5533 -1.8388 -1.8861 0
M  V30 9 N 2.9404 1.26 -1.307 0
M  V30 10 C 2.3838 -0.6144 -2.2633 0
M  V30 11 C -3.1128 -0.2018 1.9205 0
M  V30 12 C -2.9865 1.8407 0.5036 0
M  V30 13 N 0.0774 -1.5685 2.4674 0 CHG=1
M  V30 14 N -2.3338 -1.1171 2.4498 0
M  V30 15 N 1.6927 -1.7233 -2.5768 0
M  V30 16 C 3.8957 0.8847 -2.2111 0
M  V30 17 N 3.5818 -0.2422 -2.8103 0
M  V30 18 O -0.1497 -2.7248 2.8498 0
M  V30 19 O 1.1982 -1.0378 2.4257 0 CHG=-1
M  V30 20 H -0.0398 -2.7256 -2.0902 0
M  V30 21 H 2.9662 2.0802 -0.7167 0
M  V30 22 H -4.1912 -0.165 2.0188 0
M  V30 23 H -4.0711 1.8297 0.6411 0
M  V30 24 H -2.7533 1.7437 -0.5595 0
M  V30 25 H -2.5777 2.7684 0.9119 0
M  V30 26 H 4.7916 1.4665 -2.3865 0
M  V30 END ATOM
M  V30 BEGIN BOND
M  V30 1 1 1 2
M  V30 2 1 1 3
M  V30 3 2 2 4
M  V30 4 1 2 5
M  V30 5 1 3 6
M  V30 6 2 3 7
M  V30 7 1 4 8
M  V30 8 1 5 9
M  V30 9 2 5 10
M  V30 10 1 6 11
M  V30 11 1 6 12
M  V30 12 1 7 13
M  V30 13 1 7 14
M  V30 14 2 8 15
M  V30 15 1 9 16
M  V30 16 1 10 17
M  V30 17 2 13 18
M  V30 18 1 13 19
M  V30 19 1 10 15
M  V30 20 2 11 14
M  V30 21 2 16 17
M  V30 22 1 8 20
M  V30 23 1 9 21
M  V30 24 1 11 22
M  V30 25 1 12 23
M  V30 26 1 12 24
M  V30 27 1 12 25
M  V30 28 1 16 26
M  V30 END BOND
M  V30 END CTAB
M  END
>  <Column 1>
3183

>  <level_0>
5338

>  <index>
5339

>  <Unnamed: 0>
5339

>  <NO.>
5351

>  <Name>
azathioprine

>  <IUPAC_name>
6-(3-methyl-5-nitroimidazol-4-yl)sulfanyl-7h-purine

>  <SMILES>
Cn1cnc([N+](=O)[O-])c1Sc1ncnc2nc[nH]c12

>  <CID>
2265

>  <logBB>


>  <BBB+/BBB->
BBB-

>  <Inchi>
InChI=1S/C9H7N7O2S/c1-15-4-14-7(16(17)18)9(15)19-8-5-6(11-2-10-5)12-3-13-8/h2-4H-1H3-(H-10-11-12-13)

>  <threshold>


>  <reference>
R14|R15|R23|

>  <group>
C

>  <Class>
-1

>  <ABC>
14.98

>  <ABCGG>
13.54

>  <nAcid>
0

>  <nBase>
0

>  <nAromAtom>
14

>  <nAromBond>
15

>  <nAtom>
26

>  <nHeavyAtom>
19

>  <nSpiro>
0

>  <nBridgehead>
0

>  <nHetero>
10

>  <nN>
7

>  <nO>
2

>  <nF>
0

>  <BalabanJ>
1.65

>  <BertzCT>
764.86

>  <nBonds>
28

>  <nBondsO>
21

>  <nBondsS>
12

>  <nBondsD>
1

>  <nBondsT>
0

>  <nBondsA>
15

>  <nBondsM>
16

>  <nBondsKS>
21

>  <nBondsKD>
7

>  <RNCG>
0.17

>  <RPCG>
0.19

>  <FCSP3>
0.11

>  <SZ>
23.67

>  <Sm>
23.08

>  <Sv>
18.82

>  <Sse>
27.49

>  <Sp>
19.1

>  <Si>
29.83

>  <MZ>
0.91

>  <Mm>
0.89

>  <Mv>
0.72

>  <Mse>
1.06

>  <Mp>
0.73

>  <Mi>
1.15

>  <NsCH3>
1

>  <NdCH2>
0

>  <NssCH2>
0

>  <NtCH>
0

>  <NdsCH>
0

>  <NaaCH>
3

>  <NsssCH>
0

>  <NddC>
0

>  <NtsC>
0

>  <NdssC>
0

>  <NaasC>
3

>  <NaaaC>
2

>  <NssssC>
0

>  <NsNH3>
0

>  <NsNH2>
0

>  <NssNH2>
0

>  <NdNH>
0

>  <NssNH>
0

>  <NaaNH>
1

>  <NtN>
0

>  <NsssNH>
0

>  <NdsN>
0

>  <NaaN>
4

>  <NsssN>
0

>  <NddsN>
1

>  <NaasN>
1

>  <NssssN>
0

>  <NsOH>
0

>  <NdO>
1

>  <NssO>
0

>  <NaaO>
0

>  <NsF>
0

>  <NsSiH3>
0

>  <NssSiH2>
0

>  <NsssSiH>
0

>  <NssssSi>
0

>  <NsPH2>
0

>  <NssPH>
0

>  <NsssP>
0

>  <NdsssP>
0

>  <NsssssP>
0

>  <NsSH>
0

>  <NdS>
0

>  <NssS>
1

>  <NaaS>
0

>  <NdssS>
0

>  <NddssS>
0

>  <NsCl>
0

>  <NsBr>
0

>  <NsI>
0

>  <fragCpx>
99.1

>  <fMF>
0.58

>  <nHBAcc>
8

>  <nHBDon>
1

>  <Kier1>
13.96

>  <Kier2>
5.78

>  <Lipinski>
1

>  <GhoseFilter>
1

>  <FilterItLogS>
-2.75

>  <VMcGowan>
172.94

>  <LabuteASA>
109.82

>  <PEOE_VSA1>
19.67

>  <PEOE_VSA2>
0

>  <PEOE_VSA3>
14.95

>  <PEOE_VSA4>
0

>  <PEOE_VSA5>
0

>  <PEOE_VSA6>
0

>  <PEOE_VSA7>
21.67

>  <PEOE_VSA8>
7.05

>  <PEOE_VSA9>
6.33

>  <PEOE_VSA10>
16.87

>  <PEOE_VSA11>
10.67

>  <PEOE_VSA12>
6.33

>  <PEOE_VSA13>
0

>  <SMR_VSA1>
4.92

>  <SMR_VSA2>
0

>  <SMR_VSA3>
29.49

>  <SMR_VSA4>
7.05

>  <SMR_VSA5>
10.05

>  <SMR_VSA6>
0

>  <SMR_VSA7>
29.1

>  <SMR_VSA8>
0

>  <SMR_VSA9>
0

>  <SlogP_VSA1>
0

>  <SlogP_VSA2>
34.41

>  <SlogP_VSA3>
7.05

>  <SlogP_VSA4>
10.11

>  <SlogP_VSA5>
0

>  <SlogP_VSA6>
29.03

>  <SlogP_VSA7>
0

>  <SlogP_VSA8>
11.16

>  <SlogP_VSA9>
0

>  <SlogP_VSA10>
5.82

>  <SlogP_VSA11>
0

>  <EState_VSA1>
4.92

>  <EState_VSA2>
5.82

>  <EState_VSA3>
21.22

>  <EState_VSA4>
11.76

>  <EState_VSA5>
18.98

>  <EState_VSA6>
11.61

>  <EState_VSA7>
0

>  <EState_VSA8>
24.92

>  <EState_VSA9>
0

>  <EState_VSA10>
10.11

>  <VSA_EState1>
1.58

>  <VSA_EState2>
29.16

>  <VSA_EState3>
11.87

>  <VSA_EState4>
1.16

>  <VSA_EState5>
-0.2

>  <VSA_EState6>
0

>  <VSA_EState7>
4.26

>  <VSA_EState8>
0

>  <VSA_EState9>
1.69

>  <apol>
31.9

>  <bpol>
17.49

>  <nRing>
3

>  <nHRing>
3

>  <naRing>
3

>  <naHRing>
3

>  <nARing 2>
0

>  <nAHRing 2>
0

>  <nFRing>
1

>  <nFHRing>
1

>  <nFaRing>
1

>  <nFaHRing>
1

>  <nFARing 2>
0

>  <nFAHRing 2>
0

>  <nRot>
3

>  <SLogP>
1.15

>  <SMR>
65.67

>  <TopoPSA(NO)>
115.42

>  <TopoPSA>
140.72

>  <JGI1>
0.17

>  <JGI2>
0.09

>  <JGI3>
0.05

>  <JGI4>
0.04

>  <JGI5>
0.02

>  <Diameter>
8

>  <Radius>
4

>  <TMWC10>
113.56

>  <TSRW10>
68.37

>  <MW>
277.04

>  <AMW>
10.66

>  <WPath>
676

>  <WPol>
28

>  <Zagreb1>
102

>  <Zagreb2>
122

>  <mZagreb2>
4.14

>  <yes>


>  <nAR-cont>
0.336376

>  <nHA-cont>
0.998649058

>  <MWHBN>
0.540718552

>  <MWHBN-cont>
0

>  <TPSA-cont>
0

>  <pka_cont>
0.97

>  <yes.1>


>  <BBB_SCORE>
1.820025058

>  <MMFF94 Energy>
25.632

$$$$
Compound 2564
Actelion Java MolfileCreator 2.0

  0  0  0  0  0  0              0 V3000
M  V30 BEGIN CTAB
M  V30 COUNTS 35 36 0 0 0
M  V30 BEGIN ATOM
M  V30 1 I -0.086 -2.4123 2.2398 0
M  V30 2 C -0.045 -1.1162 0.5915 0
M  V30 3 C 1.0252 -0.2428 0.3508 0
M  V30 4 C -1.1332 -1.158 -0.2881 0
M  V30 5 O 2.1048 -0.2185 1.2009 0
M  V30 6 C 1.0209 0.5448 -0.8092 0
M  V30 7 C -1.1548 -0.3473 -1.4312 0
M  V30 8 C 2.0908 0.6746 2.2555 0
M  V30 9 I 2.6175 1.8074 -1.3131 0
M  V30 10 C -0.0679 0.4999 -1.6876 0
M  V30 11 C -2.3199 -0.4085 -2.3946 0
M  V30 12 C 1.065 1.5795 2.5426 0
M  V30 13 C 3.2237 0.6272 3.0734 0
M  V30 14 C -2.0136 -1.1921 -3.6803 0 CFG=2
M  V30 15 C 1.1793 2.4307 3.6464 0
M  V30 16 C 3.3355 1.4791 4.1761 0
M  V30 17 N -3.125 -1.0124 -4.65 0
M  V30 18 C -1.8582 -2.6818 -3.3645 0
M  V30 19 I -0.3863 3.7661 4.0303 0
M  V30 20 C 2.3122 2.3853 4.4672 0
M  V30 21 I 5.063 1.3439 5.349 0
M  V30 22 O -2.7672 -3.4923 -3.2612 0
M  V30 23 O -0.5769 -3.0621 -3.2032 0
M  V30 24 O 2.4336 3.2146 5.5505 0
M  V30 25 H -1.9666 -1.8315 -0.093 0
M  V30 26 H -0.0744 1.1197 -2.5832 0
M  V30 27 H -2.602 0.6239 -2.6428 0
M  V30 28 H -3.192 -0.8393 -1.8836 0
M  V30 29 H 0.1776 1.6321 1.9194 0
M  V30 30 H 4.0146 -0.0814 2.8382 0
M  V30 31 H -1.0971 -0.8318 -4.1608 0
M  V30 32 H -3.9527 -1.4839 -4.2729 0
M  V30 33 H -2.901 -1.5324 -5.5001 0
M  V30 34 H -0.625 -4.0215 -3.0077 0
M  V30 35 H 1.6359 3.7711 5.5964 0
M  V30 END ATOM
M  V30 BEGIN BOND
M  V30 1 1 1 2
M  V30 2 2 2 3
M  V30 3 1 2 4
M  V30 4 1 3 5
M  V30 5 1 3 6
M  V30 6 2 4 7
M  V30 7 1 5 8
M  V30 8 1 6 9
M  V30 9 2 6 10
M  V30 10 1 7 11
M  V30 11 2 8 12
M  V30 12 1 8 13
M  V30 13 1 11 14
M  V30 14 1 12 15
M  V30 15 2 13 16
M  V30 16 1 14 17
M  V30 17 1 14 18
M  V30 18 1 15 19
M  V30 19 2 15 20
M  V30 20 1 16 21
M  V30 21 2 18 22
M  V30 22 1 18 23
M  V30 23 1 20 24
M  V30 24 1 7 10
M  V30 25 1 16 20
M  V30 26 1 4 25
M  V30 27 1 10 26
M  V30 28 1 11 27
M  V30 29 1 11 28
M  V30 30 1 12 29
M  V30 31 1 13 30
M  V30 32 1 14 31
M  V30 33 1 17 32
M  V30 34 1 17 33
M  V30 35 1 23 34
M  V30 36 1 24 35
M  V30 END BOND
M  V30 BEGIN COLLECTION
M  V30 MDLV30/STERAC1 ATOMS=(1 14)
M  V30 END COLLECTION
M  V30 END CTAB
M  END
>  <Column 1>
3191

>  <level_0>
5346

>  <index>
5347

>  <Unnamed: 0>
5347

>  <NO.>
5359

>  <Name>
dl-thyroxine

>  <IUPAC_name>
2-amino-3-[4-(4-hydroxy-3-5-diiodophenoxy)-3-5-diiodophenyl]propanoic acid

>  <SMILES>
NC(Cc1cc(I)c(Oc2cc(I)c(O)c(I)c2)c(I)c1)C(=O)O

>  <CID>
853

>  <logBB>


>  <BBB+/BBB->
BBB-

>  <Inchi>
InChI=1S/C15H11I4NO4/c16-8-4-7(5-9(17)13(8)21)24-14-10(18)1-6(2-11(14)19)3-12(20)15(22)23/h1-2-4-5-12-21H-3-20H2-(H-22-23)

>  <threshold>


>  <reference>
R14|

>  <group>
C

>  <Class>
-1

>  <ABC>
18.35

>  <ABCGG>
15.37

>  <nAcid>
1

>  <nBase>
1

>  <nAromAtom>
12

>  <nAromBond>
12

>  <nAtom>
35

>  <nHeavyAtom>
24

>  <nSpiro>
0

>  <nBridgehead>
0

>  <nHetero>
9

>  <nN>
1

>  <nO>
4

>  <nF>
0

>  <BalabanJ>
1.89

>  <BertzCT>
751.03

>  <nBonds>
36

>  <nBondsO>
25

>  <nBondsS>
23

>  <nBondsD>
1

>  <nBondsT>
0

>  <nBondsA>
12

>  <nBondsM>
13

>  <nBondsKS>
29

>  <nBondsKD>
7

>  <RNCG>
0.22

>  <RPCG>
0.14

>  <FCSP3>
0.13

>  <SZ>
58.67

>  <Sm>
64.68

>  <Sv>
27.92

>  <Sse>
35.92

>  <Sp>
34.79

>  <Si>
38.12

>  <MZ>
1.68

>  <Mm>
1.85

>  <Mv>
0.8

>  <Mse>
1.03

>  <Mp>
0.99

>  <Mi>
1.09

>  <NsCH3>
0

>  <NdCH2>
0

>  <NssCH2>
1

>  <NtCH>
0

>  <NdsCH>
0

>  <NaaCH>
4

>  <NsssCH>
1

>  <NddC>
0

>  <NtsC>
0

>  <NdssC>
1

>  <NaasC>
8

>  <NaaaC>
0

>  <NssssC>
0

>  <NsNH3>
0

>  <NsNH2>
1

>  <NssNH2>
0

>  <NdNH>
0

>  <NssNH>
0

>  <NaaNH>
0

>  <NtN>
0

>  <NsssNH>
0

>  <NdsN>
0

>  <NaaN>
0

>  <NsssN>
0

>  <NddsN>
0

>  <NaasN>
0

>  <NssssN>
0

>  <NsOH>
2

>  <NdO>
1

>  <NssO>
1

>  <NaaO>
0

>  <NsF>
0

>  <NsSiH3>
0

>  <NssSiH2>
0

>  <NsssSiH>
0

>  <NssssSi>
0

>  <NsPH2>
0

>  <NssPH>
0

>  <NsssP>
0

>  <NdsssP>
0

>  <NsssssP>
0

>  <NsSH>
0

>  <NdS>
0

>  <NssS>
0

>  <NaaS>
0

>  <NdssS>
0

>  <NddssS>
0

>  <NsCl>
0

>  <NsBr>
0

>  <NsI>
4

>  <fragCpx>
73.09

>  <fMF>
0.37

>  <nHBAcc>
4

>  <nHBDon>
3

>  <Kier1>
20.31

>  <Kier2>
8.59

>  <Lipinski>
0

>  <GhoseFilter>
0

>  <FilterItLogS>
-6.18

>  <VMcGowan>
307.17

>  <LabuteASA>
192.83

>  <PEOE_VSA1>
20.68

>  <PEOE_VSA2>
4.79

>  <PEOE_VSA3>
0

>  <PEOE_VSA4>
0

>  <PEOE_VSA5>
0

>  <PEOE_VSA6>
0

>  <PEOE_VSA7>
126.61

>  <PEOE_VSA8>
0

>  <PEOE_VSA9>
14.28

>  <PEOE_VSA10>
17.54

>  <PEOE_VSA11>
5.75

>  <PEOE_VSA12>
0

>  <PEOE_VSA13>
0

>  <SMR_VSA1>
19.74

>  <SMR_VSA2>
0

>  <SMR_VSA3>
0

>  <SMR_VSA4>
5.73

>  <SMR_VSA5>
12.46

>  <SMR_VSA6>
0

>  <SMR_VSA7>
44.11

>  <SMR_VSA8>
0

>  <SMR_VSA9>
17.25

>  <SlogP_VSA1>
10.47

>  <SlogP_VSA2>
22.22

>  <SlogP_VSA3>
11.22

>  <SlogP_VSA4>
14.28

>  <SlogP_VSA5>
5.56

>  <SlogP_VSA6>
24.27

>  <SlogP_VSA7>
0

>  <SlogP_VSA8>
0

>  <SlogP_VSA9>
0

>  <SlogP_VSA10>
0

>  <SlogP_VSA11>
17.25

>  <EState_VSA1>
12.01

>  <EState_VSA2>
12.17

>  <EState_VSA3>
18.64

>  <EState_VSA4>
12.7

>  <EState_VSA5>
0

>  <EState_VSA6>
12.13

>  <EState_VSA7>
12.13

>  <EState_VSA8>
90.36

>  <EState_VSA9>
15.58

>  <EState_VSA10>
9.9

>  <VSA_EState1>
9.14

>  <VSA_EState2>
10.9

>  <VSA_EState3>
18.77

>  <VSA_EState4>
6.44

>  <VSA_EState5>
0.55

>  <VSA_EState6>
6.34

>  <VSA_EState7>
0.26

>  <VSA_EState8>
0

>  <VSA_EState9>
0

>  <apol>
58.09

>  <bpol>
27.79

>  <nRing>
2

>  <nHRing>
0

>  <naRing>
2

>  <naHRing>
0

>  <nARing 2>
0

>  <nAHRing 2>
0

>  <nFRing>
0

>  <nFHRing>
0

>  <nFaRing>
0

>  <nFaHRing>
0

>  <nFARing 2>
0

>  <nFAHRing 2>
0

>  <nRot>
5

>  <SLogP>
4.56

>  <SMR>
124.81

>  <TopoPSA(NO)>
92.78

>  <TopoPSA>
92.78

>  <JGI1>
0.28

>  <JGI2>
0.09

>  <JGI3>
0.06

>  <JGI4>
0.06

>  <JGI5>
0.02

>  <Diameter>
13

>  <Radius>
7

>  <TMWC10>
123.26

>  <TSRW10>
58.44

>  <MW>
776.69

>  <AMW>
22.19

>  <WPath>
1438

>  <WPol>
38

>  <Zagreb1>
122

>  <Zagreb2>
141

>  <mZagreb2>
5.22

>  <yes>


>  <nAR-cont>
0.336376

>  <nHA-cont>
0.94700071

>  <MWHBN>
0.251173712

>  <MWHBN-cont>
0.957781842

>  <TPSA-cont>
0.352337987

>  <pka_cont>
0.97

>  <yes.1>


>  <BBB_SCORE>
3.909725446

>  <MMFF94 Energy>
92.634

$$$$
Compound 2565
Actelion Java MolfileCreator 2.0

  0  0  0  0  0  0              0 V3000
M  V30 BEGIN CTAB
M  V30 COUNTS 35 36 0 0 0
M  V30 BEGIN ATOM
M  V30 1 I 0.8433 -3.2075 1.5184 0
M  V30 2 C -0.0813 -1.3387 1.2896 0
M  V30 3 C 0.5372 -0.142 1.6796 0
M  V30 4 C -1.366 -1.3199 0.7337 0
M  V30 5 O 1.7923 -0.1594 2.2392 0
M  V30 6 C -0.1668 1.0648 1.5622 0
M  V30 7 C -2.0587 -0.1105 0.5848 0
M  V30 8 C 2.8841 -0.044 1.4 0
M  V30 9 I 0.6296 2.895 2.2055 0
M  V30 10 C -1.4509 1.0795 1.0061 0
M  V30 11 C -3.4381 -0.0914 -0.0357 0
M  V30 12 C 2.8326 0.1308 0.0138 0
M  V30 13 C 4.1238 -0.1127 2.0428 0
M  V30 14 C -3.4128 0.1321 -1.5568 0 CFG=2
M  V30 15 C 4.0199 0.2321 -0.7197 0
M  V30 16 C 5.3091 -0.0111 1.3123 0
M  V30 17 N -3.1196 1.5499 -1.8929 0
M  V30 18 C -4.7664 -0.266 -2.151 0
M  V30 19 I 3.8765 0.4901 -2.7914 0
M  V30 20 C 5.2553 0.1608 -0.0698 0
M  V30 21 O -5.597 0.4897 -2.6324 0
M  V30 22 O -4.989 -1.5945 -2.1204 0
M  V30 23 O 6.4182 0.2588 -0.781 0
M  V30 24 H -1.838 -2.2484 0.4175 0
M  V30 25 H -1.9871 2.02 0.8892 0
M  V30 26 H -4.0514 0.6758 0.4569 0
M  V30 27 H -3.9372 -1.0393 0.2053 0
M  V30 28 H 1.8817 0.1914 -0.5059 0
M  V30 29 H 4.1648 -0.2471 3.1214 0
M  V30 30 H -2.6459 -0.4872 -2.0366 0
M  V30 31 H 6.2573 -0.0686 1.8376 0
M  V30 32 H -3.9257 2.1157 -1.6141 0
M  V30 33 H -3.0979 1.638 -2.911 0
M  V30 34 H -5.866 -1.7025 -2.5467 0
M  V30 35 H 7.1728 0.1961 -0.1737 0
M  V30 END ATOM
M  V30 BEGIN BOND
M  V30 1 1 1 2
M  V30 2 2 2 3
M  V30 3 1 2 4
M  V30 4 1 3 5
M  V30 5 1 3 6
M  V30 6 2 4 7
M  V30 7 1 5 8
M  V30 8 1 6 9
M  V30 9 2 6 10
M  V30 10 1 7 11
M  V30 11 2 8 12
M  V30 12 1 8 13
M  V30 13 1 11 14
M  V30 14 1 12 15
M  V30 15 2 13 16
M  V30 16 1 14 17
M  V30 17 1 14 18
M  V30 18 1 15 19
M  V30 19 2 15 20
M  V30 20 2 18 21
M  V30 21 1 18 22
M  V30 22 1 20 23
M  V30 23 1 7 10
M  V30 24 1 16 20
M  V30 25 1 4 24
M  V30 26 1 10 25
M  V30 27 1 11 26
M  V30 28 1 11 27
M  V30 29 1 12 28
M  V30 30 1 13 29
M  V30 31 1 14 30
M  V30 32 1 16 31
M  V30 33 1 17 32
M  V30 34 1 17 33
M  V30 35 1 22 34
M  V30 36 1 23 35
M  V30 END BOND
M  V30 BEGIN COLLECTION
M  V30 MDLV30/STERAC1 ATOMS=(1 14)
M  V30 END COLLECTION
M  V30 END CTAB
M  END
>  <Column 1>
3192

>  <level_0>
5347

>  <index>
5348

>  <Unnamed: 0>
5348

>  <NO.>
5360

>  <Name>
liothyronine

>  <IUPAC_name>
2-amino-3-[4-(4-hydroxy-3-iodophenoxy)-3-5-diiodophenyl]propanoic acid

>  <SMILES>
NC(Cc1cc(I)c(Oc2ccc(O)c(I)c2)c(I)c1)C(=O)O

>  <CID>
861

>  <logBB>


>  <BBB+/BBB->
BBB-

>  <Inchi>
InChI=1S/C15H12I3NO4/c16-9-6-8(1-2-13(9)20)23-14-10(17)3-7(4-11(14)18)5-12(19)15(21)22/h1-4-6-12-20H-5-19H2-(H-21-22)

>  <threshold>


>  <reference>
R14|

>  <group>
C

>  <Class>
-1

>  <ABC>
17.57

>  <ABCGG>
14.6

>  <nAcid>
1

>  <nBase>
1

>  <nAromAtom>
12

>  <nAromBond>
12

>  <nAtom>
35

>  <nHeavyAtom>
23

>  <nSpiro>
0

>  <nBridgehead>
0

>  <nHetero>
8

>  <nN>
1

>  <nO>
4

>  <nF>
0

>  <BalabanJ>
1.85

>  <BertzCT>
728.49

>  <nBonds>
36

>  <nBondsO>
24

>  <nBondsS>
23

>  <nBondsD>
1

>  <nBondsT>
0

>  <nBondsA>
12

>  <nBondsM>
13

>  <nBondsKS>
29

>  <nBondsKD>
7

>  <RNCG>
0.22

>  <RPCG>
0.14

>  <FCSP3>
0.13

>  <SZ>
50

>  <Sm>
54.2

>  <Sv>
26.61

>  <Sse>
35.85

>  <Sp>
31.98

>  <Si>
38.4

>  <MZ>
1.43

>  <Mm>
1.55

>  <Mv>
0.76

>  <Mse>
1.02

>  <Mp>
0.91

>  <Mi>
1.1

>  <NsCH3>
0

>  <NdCH2>
0

>  <NssCH2>
1

>  <NtCH>
0

>  <NdsCH>
0

>  <NaaCH>
5

>  <NsssCH>
1

>  <NddC>
0

>  <NtsC>
0

>  <NdssC>
1

>  <NaasC>
7

>  <NaaaC>
0

>  <NssssC>
0

>  <NsNH3>
0

>  <NsNH2>
1

>  <NssNH2>
0

>  <NdNH>
0

>  <NssNH>
0

>  <NaaNH>
0

>  <NtN>
0

>  <NsssNH>
0

>  <NdsN>
0

>  <NaaN>
0

>  <NsssN>
0

>  <NddsN>
0

>  <NaasN>
0

>  <NssssN>
0

>  <NsOH>
2

>  <NdO>
1

>  <NssO>
1

>  <NaaO>
0

>  <NsF>
0

>  <NsSiH3>
0

>  <NssSiH2>
0

>  <NsssSiH>
0

>  <NssssSi>
0

>  <NsPH2>
0

>  <NssPH>
0

>  <NsssP>
0

>  <NdsssP>
0

>  <NsssssP>
0

>  <NsSH>
0

>  <NdS>
0

>  <NssS>
0

>  <NaaS>
0

>  <NdssS>
0

>  <NddssS>
0

>  <NsCl>
0

>  <NsBr>
0

>  <NsI>
3

>  <fragCpx>
70.08

>  <fMF>
0.37

>  <nHBAcc>
4

>  <nHBDon>
3

>  <Kier1>
19.33

>  <Kier2>
8.39

>  <Lipinski>
0

>  <GhoseFilter>
0

>  <FilterItLogS>
-5.27

>  <VMcGowan>
281.34

>  <LabuteASA>
173.57

>  <PEOE_VSA1>
20.68

>  <PEOE_VSA2>
4.79

>  <PEOE_VSA3>
0

>  <PEOE_VSA4>
0

>  <PEOE_VSA5>
0

>  <PEOE_VSA6>
0

>  <PEOE_VSA7>
110.09

>  <PEOE_VSA8>
0

>  <PEOE_VSA9>
10.71

>  <PEOE_VSA10>
17.54

>  <PEOE_VSA11>
5.75

>  <PEOE_VSA12>
0

>  <PEOE_VSA13>
0

>  <SMR_VSA1>
19.74

>  <SMR_VSA2>
0

>  <SMR_VSA3>
0

>  <SMR_VSA4>
5.73

>  <SMR_VSA5>
12.46

>  <SMR_VSA6>
0

>  <SMR_VSA7>
46.61

>  <SMR_VSA8>
0

>  <SMR_VSA9>
17.25

>  <SlogP_VSA1>
10.47

>  <SlogP_VSA2>
22.22

>  <SlogP_VSA3>
11.22

>  <SlogP_VSA4>
10.71

>  <SlogP_VSA5>
5.56

>  <SlogP_VSA6>
30.33

>  <SlogP_VSA7>
0

>  <SlogP_VSA8>
0

>  <SlogP_VSA9>
0

>  <SlogP_VSA10>
0

>  <SlogP_VSA11>
17.25

>  <EState_VSA1>
12.01

>  <EState_VSA2>
12.17

>  <EState_VSA3>
15.07

>  <EState_VSA4>
12.7

>  <EState_VSA5>
0

>  <EState_VSA6>
18.2

>  <EState_VSA7>
34.72

>  <EState_VSA8>
45.18

>  <EState_VSA9>
15.58

>  <EState_VSA10>
9.9

>  <VSA_EState1>
8.34

>  <VSA_EState2>
10.87

>  <VSA_EState3>
18.46

>  <VSA_EState4>
6.43

>  <VSA_EState5>
0.51

>  <VSA_EState6>
7.83

>  <VSA_EState7>
0.26

>  <VSA_EState8>
0

>  <VSA_EState9>
0

>  <apol>
53.41

>  <bpol>
25.11

>  <nRing>
2

>  <nHRing>
0

>  <naRing>
2

>  <naHRing>
0

>  <nARing 2>
0

>  <nAHRing 2>
0

>  <nFRing>
0

>  <nFHRing>
0

>  <nFaRing>
0

>  <nFaHRing>
0

>  <nFARing 2>
0

>  <nFAHRing 2>
0

>  <nRot>
5

>  <SLogP>
3.95

>  <SMR>
112.09

>  <TopoPSA(NO)>
92.78

>  <TopoPSA>
92.78

>  <JGI1>
0.27

>  <JGI2>
0.09

>  <JGI3>
0.05

>  <JGI4>
0.06

>  <JGI5>
0.02

>  <Diameter>
13

>  <Radius>
7

>  <TMWC10>
120.54

>  <TSRW10>
57.11

>  <MW>
650.79

>  <AMW>
18.59

>  <WPath>
1294

>  <WPol>
35

>  <Zagreb1>
116

>  <Zagreb2>
133

>  <mZagreb2>
5.03

>  <yes>


>  <nAR-cont>
0.336376

>  <nHA-cont>
0.967789328

>  <MWHBN>
0.274395892

>  <MWHBN-cont>
0.909870699

>  <TPSA-cont>
0.352337987

>  <pka_cont>
0.97

>  <yes.1>


>  <BBB_SCORE>
3.858647351

>  <MMFF94 Energy>
89.212

$$$$
Compound 2566
Actelion Java MolfileCreator 2.0

  0  0  0  0  0  0              0 V3000
M  V30 BEGIN CTAB
M  V30 COUNTS 60 61 0 0 0
M  V30 BEGIN ATOM
M  V30 1 O -0.6302 1.9705 -4.2602 0
M  V30 2 C -0.844 1.6616 -3.0961 0
M  V30 3 O -1.4071 2.5604 -2.2613 0
M  V30 4 C -0.591 0.2784 -2.4862 0
M  V30 5 N -0.855 0.1968 -1.0487 0
M  V30 6 C -1.5556 -0.7453 -3.0837 0
M  V30 7 C 0.0621 0.6749 -0.1421 0
M  V30 8 C -2.1067 -0.4871 -0.7725 0
M  V30 9 C -2.751 -0.6851 -2.1367 0
M  V30 10 O 1.1106 1.2125 -0.5123 0
M  V30 11 C -0.227 0.4622 1.365 0
M  V30 12 N 0.8689 -0.3574 1.9477 0
M  V30 13 C -0.2336 1.8202 2.0894 0
M  V30 14 C 0.8009 -1.787 1.5565 0
M  V30 15 C -1.4019 2.7104 1.6466 0
M  V30 16 C -0.3877 -2.4969 2.2297 0
M  V30 17 C 2.0959 -2.5147 1.9708 0
M  V30 18 C -1.4327 4.0191 2.4424 0
M  V30 19 O -1.1311 -2.0754 3.1013 0
M  V30 20 O -0.6051 -3.7307 1.72 0
M  V30 21 C 3.3407 -2.1226 1.1643 0
M  V30 22 C -2.4826 5.0133 1.9421 0
M  V30 23 C 3.2351 -2.4427 -0.307 0
M  V30 24 N -3.8434 4.5159 2.1052 0
M  V30 25 C 3.175 -3.7717 -0.7483 0
M  V30 26 C 3.1933 -1.4128 -1.256 0
M  V30 27 C 3.0665 -4.0628 -2.1093 0
M  V30 28 C 3.087 -1.7057 -2.6167 0
M  V30 29 C 3.0214 -3.0299 -3.0432 0
M  V30 30 H -1.4581 3.3768 -2.7999 0
M  V30 31 H 0.456 0.0256 -2.6824 0
M  V30 32 H -1.8393 -0.5395 -4.1199 0
M  V30 33 H -1.1084 -1.7461 -3.0414 0
M  V30 34 H -2.7318 0.1054 -0.0988 0
M  V30 35 H -1.8744 -1.4465 -0.2993 0
M  V30 36 H -3.3794 0.1788 -2.3845 0
M  V30 37 H -3.375 -1.582 -2.1799 0
M  V30 38 H -1.1912 -0.0186 1.5356 0
M  V30 39 H 1.7439 0.0493 1.6096 0
M  V30 40 H 0.7101 2.3538 1.916 0
M  V30 41 H -0.3096 1.6517 3.1719 0
M  V30 42 H 0.6517 -1.8717 0.4748 0
M  V30 43 H -2.3424 2.1652 1.7854 0
M  V30 44 H -1.3116 2.9401 0.5793 0
M  V30 45 H 2.2948 -2.3247 3.0346 0
M  V30 46 H 1.9522 -3.6002 1.8951 0
M  V30 47 H -1.606 3.8004 3.5037 0
M  V30 48 H -0.4495 4.502 2.3782 0
M  V30 49 H -1.365 -4.0605 2.2447 0
M  V30 50 H 3.569 -1.06 1.307 0
M  V30 51 H 4.2082 -2.6622 1.566 0
M  V30 52 H -2.3043 5.2515 0.8876 0
M  V30 53 H -2.3834 5.9464 2.5074 0
M  V30 54 H -4.5013 5.2249 1.784 0
M  V30 55 H -3.9888 3.7043 1.5076 0
M  V30 56 H 3.2157 -4.5907 -0.0338 0
M  V30 57 H 3.2393 -0.3705 -0.9447 0
M  V30 58 H 3.0222 -5.0969 -2.4406 0
M  V30 59 H 3.0581 -0.8962 -3.3417 0
M  V30 60 H 2.9422 -3.2566 -4.1029 0
M  V30 END ATOM
M  V30 BEGIN BOND
M  V30 1 2 1 2
M  V30 2 1 2 3
M  V30 3 1 2 4
M  V30 4 1 4 5
M  V30 5 1 4 6
M  V30 6 1 5 7
M  V30 7 1 5 8
M  V30 8 1 6 9
M  V30 9 2 7 10
M  V30 10 1 7 11
M  V30 11 1 11 12
M  V30 12 1 11 13
M  V30 13 1 12 14
M  V30 14 1 13 15
M  V30 15 1 14 16
M  V30 16 1 14 17
M  V30 17 1 15 18
M  V30 18 2 16 19
M  V30 19 1 16 20
M  V30 20 1 17 21
M  V30 21 1 18 22
M  V30 22 1 21 23
M  V30 23 1 22 24
M  V30 24 2 23 25
M  V30 25 1 23 26
M  V30 26 1 25 27
M  V30 27 2 26 28
M  V30 28 2 27 29
M  V30 29 1 8 9
M  V30 30 1 28 29
M  V30 31 1 3 30
M  V30 32 1 4 31
M  V30 33 1 6 32
M  V30 34 1 6 33
M  V30 35 1 8 34
M  V30 36 1 8 35
M  V30 37 1 9 36
M  V30 38 1 9 37
M  V30 39 1 11 38
M  V30 40 1 12 39
M  V30 41 1 13 40
M  V30 42 1 13 41
M  V30 43 1 14 42
M  V30 44 1 15 43
M  V30 45 1 15 44
M  V30 46 1 17 45
M  V30 47 1 17 46
M  V30 48 1 18 47
M  V30 49 1 18 48
M  V30 50 1 20 49
M  V30 51 1 21 50
M  V30 52 1 21 51
M  V30 53 1 22 52
M  V30 54 1 22 53
M  V30 55 1 24 54
M  V30 56 1 24 55
M  V30 57 1 25 56
M  V30 58 1 26 57
M  V30 59 1 27 58
M  V30 60 1 28 59
M  V30 61 1 29 60
M  V30 END BOND
M  V30 END CTAB
M  END
>  <Column 1>
3197

>  <level_0>
5353

>  <index>
5354

>  <Unnamed: 0>
5354

>  <NO.>
5366

>  <Name>
lisinopril

>  <IUPAC_name>
1-[6-amino-2-[(1-carboxy-3-phenylpropyl)amino]hexanoyl]pyrrolidine-2-carboxylic acid

>  <SMILES>
NCCCCC(NC(CCc1ccccc1)C(=O)O)C(=O)N1CCCC1C(=O)O

>  <CID>
3937

>  <logBB>


>  <BBB+/BBB->
BBB-

>  <Inchi>
InChI=1S/C21H31N3O5/c22-13-5-4-9-16(19(25)24-14-6-10-18(24)21(28)29)23-17(20(26)27)12-11-15-7-2-1-3-8-15/h1-3-7-8-16-18-23H-4-6-9-14-22H2-(H-26-27)(H-28-29)

>  <threshold>


>  <reference>
R14|

>  <group>
C

>  <Class>
-1

>  <ABC>
21.56

>  <ABCGG>
18.96

>  <nAcid>
2

>  <nBase>
2

>  <nAromAtom>
6

>  <nAromBond>
6

>  <nAtom>
60

>  <nHeavyAtom>
29

>  <nSpiro>
0

>  <nBridgehead>
0

>  <nHetero>
8

>  <nN>
3

>  <nO>
5

>  <nF>
0

>  <BalabanJ>
1.99

>  <BertzCT>
682.15

>  <nBonds>
61

>  <nBondsO>
30

>  <nBondsS>
52

>  <nBondsD>
3

>  <nBondsT>
0

>  <nBondsA>
6

>  <nBondsM>
9

>  <nBondsKS>
55

>  <nBondsKD>
6

>  <RNCG>
0.15

>  <RPCG>
0.1

>  <FCSP3>
0.57

>  <SZ>
36.33

>  <Sm>
33.76

>  <Sv>
35.25

>  <Sse>
60.4

>  <Sp>
37.75

>  <Si>
68.36

>  <MZ>
0.61

>  <Mm>
0.56

>  <Mv>
0.59

>  <Mse>
1.01

>  <Mp>
0.63

>  <Mi>
1.14

>  <NsCH3>
0

>  <NdCH2>
0

>  <NssCH2>
9

>  <NtCH>
0

>  <NdsCH>
0

>  <NaaCH>
5

>  <NsssCH>
3

>  <NddC>
0

>  <NtsC>
0

>  <NdssC>
3

>  <NaasC>
1

>  <NaaaC>
0

>  <NssssC>
0

>  <NsNH3>
0

>  <NsNH2>
1

>  <NssNH2>
0

>  <NdNH>
0

>  <NssNH>
1

>  <NaaNH>
0

>  <NtN>
0

>  <NsssNH>
0

>  <NdsN>
0

>  <NaaN>
0

>  <NsssN>
1

>  <NddsN>
0

>  <NaasN>
0

>  <NssssN>
0

>  <NsOH>
2

>  <NdO>
3

>  <NssO>
0

>  <NaaO>
0

>  <NsF>
0

>  <NsSiH3>
0

>  <NssSiH2>
0

>  <NsssSiH>
0

>  <NssssSi>
0

>  <NsPH2>
0

>  <NssPH>
0

>  <NsssP>
0

>  <NdsssP>
0

>  <NsssssP>
0

>  <NsSH>
0

>  <NdS>
0

>  <NssS>
0

>  <NaaS>
0

>  <NdssS>
0

>  <NddssS>
0

>  <NsCl>
0

>  <NsBr>
0

>  <NsI>
0

>  <fragCpx>
88.08

>  <fMF>
0.28

>  <nHBAcc>
5

>  <nHBDon>
4

>  <Kier1>
25.26

>  <Kier2>
13.42

>  <Lipinski>
1

>  <GhoseFilter>
1

>  <FilterItLogS>
-2.69

>  <VMcGowan>
318.52

>  <LabuteASA>
170.62

>  <PEOE_VSA1>
20.85

>  <PEOE_VSA2>
14.91

>  <PEOE_VSA3>
4.79

>  <PEOE_VSA4>
0

>  <PEOE_VSA5>
0

>  <PEOE_VSA6>
36.75

>  <PEOE_VSA7>
50.63

>  <PEOE_VSA8>
6.54

>  <PEOE_VSA9>
6.04

>  <PEOE_VSA10>
12.08

>  <PEOE_VSA11>
0

>  <PEOE_VSA12>
5.91

>  <PEOE_VSA13>
0

>  <SMR_VSA1>
24.6

>  <SMR_VSA2>
0

>  <SMR_VSA3>
10.22

>  <SMR_VSA4>
5.73

>  <SMR_VSA5>
63.07

>  <SMR_VSA6>
13.09

>  <SMR_VSA7>
35.9

>  <SMR_VSA8>
0

>  <SMR_VSA9>
0

>  <SlogP_VSA1>
11.05

>  <SlogP_VSA2>
64.17

>  <SlogP_VSA3>
20.8

>  <SlogP_VSA4>
0

>  <SlogP_VSA5>
44.09

>  <SlogP_VSA6>
30.33

>  <SlogP_VSA7>
0

>  <SlogP_VSA8>
0

>  <SlogP_VSA9>
0

>  <SlogP_VSA10>
0

>  <SlogP_VSA11>
0

>  <EState_VSA1>
30.06

>  <EState_VSA2>
5.91

>  <EState_VSA3>
51.61

>  <EState_VSA4>
11.98

>  <EState_VSA5>
4.9

>  <EState_VSA6>
0

>  <EState_VSA7>
30.33

>  <EState_VSA8>
5.32

>  <EState_VSA9>
5.73

>  <EState_VSA10>
24.6

>  <VSA_EState1>
0

>  <VSA_EState2>
37.7

>  <VSA_EState3>
22.04

>  <VSA_EState4>
6.57

>  <VSA_EState5>
-2.37

>  <VSA_EState6>
7.1

>  <VSA_EState7>
3.76

>  <VSA_EState8>
0.87

>  <VSA_EState9>
0

>  <apol>
63.05

>  <bpol>
35.41

>  <nRing>
2

>  <nHRing>
1

>  <naRing>
1

>  <naHRing>
0

>  <nARing 2>
1

>  <nAHRing 2>
1

>  <nFRing>
0

>  <nFHRing>
0

>  <nFaRing>
0

>  <nFaHRing>
0

>  <nFARing 2>
0

>  <nFAHRing 2>
0

>  <nRot>
12

>  <SLogP>
1.24

>  <SMR>
108.39

>  <TopoPSA(NO)>
132.96

>  <TopoPSA>
132.96

>  <JGI1>
0.17

>  <JGI2>
0.08

>  <JGI3>
0.04

>  <JGI4>
0.04

>  <JGI5>
0.02

>  <Diameter>
13

>  <Radius>
7

>  <TMWC10>
133.63

>  <TSRW10>
77.23

>  <MW>
405.23

>  <AMW>
6.75

>  <WPath>
2362

>  <WPol>
40

>  <Zagreb1>
138

>  <Zagreb2>
156

>  <mZagreb2>
6.72

>  <yes>


>  <nAR-cont>
0.816016

>  <nHA-cont>
0.785905698

>  <MWHBN>
0.447086663

>  <MWHBN-cont>
0.296391325

>  <TPSA-cont>
0

>  <pka_cont>
0.97

>  <yes.1>


>  <BBB_SCORE>
2.531508686

>  <MMFF94 Energy>
74.165

$$$$
Compound 2567
Actelion Java MolfileCreator 2.0

  0  0  0  0  0  0              0 V3000
M  V30 BEGIN CTAB
M  V30 COUNTS 22 21 0 0 0
M  V30 BEGIN ATOM
M  V30 1 O -2.2897 -2.7482 -2.4425 0
M  V30 2 C -2.1582 -2.1671 -1.3786 0
M  V30 3 O -3.1907 -2.0527 -0.5226 0
M  V30 4 C -0.9069 -1.5083 -0.8741 0
M  V30 5 C -1.0038 0.0076 -1.0072 0
M  V30 6 C 0.3082 0.7303 -0.693 0
M  V30 7 C 0.7479 0.5809 0.7655 0
M  V30 8 C 2.0021 1.407 1.0495 0
M  V30 9 N 2.4136 1.2379 2.4378 0
M  V30 10 H -3.9259 -2.5179 -0.9739 0
M  V30 11 H -0.0644 -1.8959 -1.4583 0
M  V30 12 H -0.7462 -1.8205 0.163 0
M  V30 13 H -1.8001 0.389 -0.3559 0
M  V30 14 H -1.3016 0.2614 -2.0326 0
M  V30 15 H 0.1753 1.7954 -0.9203 0
M  V30 16 H 1.0987 0.3619 -1.3579 0
M  V30 17 H -0.0664 0.9017 1.4272 0
M  V30 18 H 0.9509 -0.4731 0.9879 0
M  V30 19 H 1.8108 2.4679 0.8541 0
M  V30 20 H 2.8192 1.0884 0.3936 0
M  V30 21 H 3.2232 1.8282 2.6248 0
M  V30 22 H 1.6738 1.5647 3.0584 0
M  V30 END ATOM
M  V30 BEGIN BOND
M  V30 1 2 1 2
M  V30 2 1 2 3
M  V30 3 1 2 4
M  V30 4 1 4 5
M  V30 5 1 5 6
M  V30 6 1 6 7
M  V30 7 1 7 8
M  V30 8 1 8 9
M  V30 9 1 3 10
M  V30 10 1 4 11
M  V30 11 1 4 12
M  V30 12 1 5 13
M  V30 13 1 5 14
M  V30 14 1 6 15
M  V30 15 1 6 16
M  V30 16 1 7 17
M  V30 17 1 7 18
M  V30 18 1 8 19
M  V30 19 1 8 20
M  V30 20 1 9 21
M  V30 21 1 9 22
M  V30 END BOND
M  V30 END CTAB
M  END
>  <Column 1>
3198

>  <level_0>
5354

>  <index>
5355

>  <Unnamed: 0>
5355

>  <NO.>
5367

>  <Name>
aminocaproic acid

>  <IUPAC_name>
6-aminohexanoic acid

>  <SMILES>
NCCCCCC(=O)O

>  <CID>
564

>  <logBB>


>  <BBB+/BBB->
BBB-

>  <Inchi>
InChI=1S/C6H13NO2/c7-5-3-1-2-4-6(8)9/h1-5-7H2-(H-8-9)

>  <threshold>


>  <reference>
R14|

>  <group>
C

>  <Class>
-1

>  <ABC>
5.88

>  <ABCGG>
5.94

>  <nAcid>
1

>  <nBase>
1

>  <nAromAtom>
0

>  <nAromBond>
0

>  <nAtom>
22

>  <nHeavyAtom>
9

>  <nSpiro>
0

>  <nBridgehead>
0

>  <nHetero>
3

>  <nN>
1

>  <nO>
2

>  <nF>
0

>  <BalabanJ>
2.75

>  <BertzCT>
83.13

>  <nBonds>
21

>  <nBondsO>
8

>  <nBondsS>
20

>  <nBondsD>
1

>  <nBondsT>
0

>  <nBondsA>
0

>  <nBondsM>
1

>  <nBondsKS>
20

>  <nBondsKD>
1

>  <RNCG>
0.4

>  <RPCG>
0.25

>  <FCSP3>
0.83

>  <SZ>
12

>  <Sm>
10.92

>  <Sv>
11.71

>  <Sse>
22.1

>  <Sp>
12.81

>  <Si>
25.41

>  <MZ>
0.55

>  <Mm>
0.5

>  <Mv>
0.53

>  <Mse>
1

>  <Mp>
0.58

>  <Mi>
1.15

>  <NsCH3>
0

>  <NdCH2>
0

>  <NssCH2>
5

>  <NtCH>
0

>  <NdsCH>
0

>  <NaaCH>
0

>  <NsssCH>
0

>  <NddC>
0

>  <NtsC>
0

>  <NdssC>
1

>  <NaasC>
0

>  <NaaaC>
0

>  <NssssC>
0

>  <NsNH3>
0

>  <NsNH2>
1

>  <NssNH2>
0

>  <NdNH>
0

>  <NssNH>
0

>  <NaaNH>
0

>  <NtN>
0

>  <NsssNH>
0

>  <NdsN>
0

>  <NaaN>
0

>  <NsssN>
0

>  <NddsN>
0

>  <NaasN>
0

>  <NssssN>
0

>  <NsOH>
1

>  <NdO>
1

>  <NssO>
0

>  <NaaO>
0

>  <NsF>
0

>  <NsSiH3>
0

>  <NssSiH2>
0

>  <NsssSiH>
0

>  <NssssSi>
0

>  <NsPH2>
0

>  <NssPH>
0

>  <NsssP>
0

>  <NdsssP>
0

>  <NsssssP>
0

>  <NsSH>
0

>  <NdS>
0

>  <NssS>
0

>  <NaaS>
0

>  <NdssS>
0

>  <NddssS>
0

>  <NsCl>
0

>  <NsBr>
0

>  <NsI>
0

>  <fragCpx>
8.03

>  <fMF>
0

>  <nHBAcc>
2

>  <nHBDon>
2

>  <Kier1>
9

>  <Kier2>
6.13

>  <Lipinski>
1

>  <GhoseFilter>
0

>  <FilterItLogS>
-0.88

>  <VMcGowan>
112.82

>  <LabuteASA>
54.86

>  <PEOE_VSA1>
10.84

>  <PEOE_VSA2>
4.79

>  <PEOE_VSA3>
0

>  <PEOE_VSA4>
0

>  <PEOE_VSA5>
0

>  <PEOE_VSA6>
6.42

>  <PEOE_VSA7>
19.39

>  <PEOE_VSA8>
6.42

>  <PEOE_VSA9>
0

>  <PEOE_VSA10>
0

>  <PEOE_VSA11>
0

>  <PEOE_VSA12>
0

>  <PEOE_VSA13>
0

>  <SMR_VSA1>
9.9

>  <SMR_VSA2>
0

>  <SMR_VSA3>
0

>  <SMR_VSA4>
5.73

>  <SMR_VSA5>
25.68

>  <SMR_VSA6>
6.54

>  <SMR_VSA7>
0

>  <SMR_VSA8>
0

>  <SMR_VSA9>
0

>  <SlogP_VSA1>
5.73

>  <SlogP_VSA2>
17.62

>  <SlogP_VSA3>
4.79

>  <SlogP_VSA4>
0

>  <SlogP_VSA5>
25.68

>  <SlogP_VSA6>
0

>  <SlogP_VSA7>
0

>  <SlogP_VSA8>
0

>  <SlogP_VSA9>
0

>  <SlogP_VSA10>
0

>  <SlogP_VSA11>
0

>  <EState_VSA1>
5.97

>  <EState_VSA2>
6.42

>  <EState_VSA3>
6.54

>  <EState_VSA4>
19.26

>  <EState_VSA5>
0

>  <EState_VSA6>
0

>  <EState_VSA7>
0

>  <EState_VSA8>
0

>  <EState_VSA9>
10.84

>  <EState_VSA10>
4.79

>  <VSA_EState1>
0

>  <VSA_EState2>
9.93

>  <VSA_EState3>
8.18

>  <VSA_EState4>
5.2

>  <VSA_EState5>
-0.72

>  <VSA_EState6>
0

>  <VSA_EState7>
2.91

>  <VSA_EState8>
0.67

>  <VSA_EState9>
0

>  <apol>
21.39

>  <bpol>
13.34

>  <nRing>
0

>  <nHRing>
0

>  <naRing>
0

>  <naHRing>
0

>  <nARing 2>
0

>  <nAHRing 2>
0

>  <nFRing>
0

>  <nFHRing>
0

>  <nFaRing>
0

>  <nFaHRing>
0

>  <nFARing 2>
0

>  <nFAHRing 2>
0

>  <nRot>
5

>  <SLogP>
0.59

>  <SMR>
35.16

>  <TopoPSA(NO)>
63.32

>  <TopoPSA>
63.32

>  <JGI1>
0.19

>  <JGI2>
0.06

>  <JGI3>
0.04

>  <JGI4>
0.03

>  <JGI5>
0.03

>  <Diameter>
7

>  <Radius>
4

>  <TMWC10>
72.12

>  <TSRW10>
34.75

>  <MW>
131.09

>  <AMW>
5.96

>  <WPath>
114

>  <WPol>
6

>  <Zagreb1>
32

>  <Zagreb2>
30

>  <mZagreb2>
2.33

>  <yes>


>  <nAR-cont>
0.336376

>  <nHA-cont>
0.56070381

>  <MWHBN>
0.349361634

>  <MWHBN-cont>
0.672635956

>  <TPSA-cont>
0.557987081

>  <pka_cont>
0.97

>  <yes.1>


>  <BBB_SCORE>
3.507007905

>  <MMFF94 Energy>
-28.384

$$$$
Compound 2568
Actelion Java MolfileCreator 2.0

  0  0  0  0  0  0              0 V3000
M  V30 BEGIN CTAB
M  V30 COUNTS 22 22 0 0 0
M  V30 BEGIN ATOM
M  V30 1 Cl 2.715 2.2768 -0.175 0
M  V30 2 C 1.6457 0.9396 0.1064 0
M  V30 3 C 2.1851 -0.3487 0.2877 0
M  V30 4 C 0.2524 1.0949 0.1534 0
M  V30 5 Cl 3.8894 -0.6575 0.245 0
M  V30 6 C 1.3556 -1.453 0.511 0
M  V30 7 S -0.5162 2.673 -0.0533 0
M  V30 8 C -0.5842 -0.0098 0.3839 0
M  V30 9 C -0.0255 -1.2774 0.5509 0
M  V30 10 O 0.0649 3.6116 0.8737 0
M  V30 11 O -1.9459 2.4793 -0.1471 0
M  V30 12 N -0.0523 3.128 -1.599 0
M  V30 13 S -1.0862 -2.6606 0.8563 0
M  V30 14 O -2.1677 -2.2288 1.7073 0
M  V30 15 O -0.2775 -3.8207 1.1432 0
M  V30 16 N -1.7459 -2.9225 -0.6629 0
M  V30 17 H 1.7902 -2.4411 0.6534 0
M  V30 18 H -1.6664 0.1123 0.4356 0
M  V30 19 H 0.5519 3.9512 -1.5534 0
M  V30 20 H -0.8768 3.2588 -2.1869 0
M  V30 21 H -2.7582 -2.7872 -0.6305 0
M  V30 22 H -1.4746 -3.8464 -1.0038 0
M  V30 END ATOM
M  V30 BEGIN BOND
M  V30 1 1 1 2
M  V30 2 2 2 3
M  V30 3 1 2 4
M  V30 4 1 3 5
M  V30 5 1 3 6
M  V30 6 1 4 7
M  V30 7 2 4 8
M  V30 8 2 6 9
M  V30 9 2 7 10
M  V30 10 2 7 11
M  V30 11 1 7 12
M  V30 12 1 9 13
M  V30 13 2 13 14
M  V30 14 2 13 15
M  V30 15 1 13 16
M  V30 16 1 8 9
M  V30 17 1 6 17
M  V30 18 1 8 18
M  V30 19 1 12 19
M  V30 20 1 12 20
M  V30 21 1 16 21
M  V30 22 1 16 22
M  V30 END BOND
M  V30 END CTAB
M  END
>  <Column 1>
3201

>  <level_0>
5358

>  <index>
5359

>  <Unnamed: 0>
5359

>  <NO.>
5371

>  <Name>
dichlorphenamide

>  <IUPAC_name>
4-5-dichlorobenzene-1-3-disulfonamide

>  <SMILES>
NS(=O)(=O)c1cc(Cl)c(Cl)c(S(N)(=O)=O)c1

>  <CID>
3038

>  <logBB>


>  <BBB+/BBB->
BBB-

>  <Inchi>
InChI=1S/C6H6Cl2N2O4S2/c7-4-1-3(15(9-11)12)2-5(6(4)8)16(10-13)14/h1-2H-(H2-9-11-12)(H2-10-13-14)

>  <threshold>


>  <reference>
R14|R23|

>  <group>
C

>  <Class>
-1

>  <ABC>
12.28

>  <ABCGG>
11.7

>  <nAcid>
0

>  <nBase>
0

>  <nAromAtom>
6

>  <nAromBond>
6

>  <nAtom>
22

>  <nHeavyAtom>
16

>  <nSpiro>
0

>  <nBridgehead>
0

>  <nHetero>
10

>  <nN>
2

>  <nO>
4

>  <nF>
0

>  <BalabanJ>
2.86

>  <BertzCT>
638.74

>  <nBonds>
22

>  <nBondsO>
16

>  <nBondsS>
12

>  <nBondsD>
4

>  <nBondsT>
0

>  <nBondsA>
6

>  <nBondsM>
10

>  <nBondsKS>
15

>  <nBondsKD>
7

>  <RNCG>
0.15

>  <RPCG>
0.16

>  <FCSP3>
0

>  <SZ>
25.67

>  <Sm>
25.41

>  <Sv>
16.56

>  <Sse>
24

>  <Sp>
17.72

>  <Si>
24.81

>  <MZ>
1.17

>  <Mm>
1.15

>  <Mv>
0.75

>  <Mse>
1.09

>  <Mp>
0.81

>  <Mi>
1.13

>  <NsCH3>
0

>  <NdCH2>
0

>  <NssCH2>
0

>  <NtCH>
0

>  <NdsCH>
0

>  <NaaCH>
2

>  <NsssCH>
0

>  <NddC>
0

>  <NtsC>
0

>  <NdssC>
0

>  <NaasC>
4

>  <NaaaC>
0

>  <NssssC>
0

>  <NsNH3>
0

>  <NsNH2>
2

>  <NssNH2>
0

>  <NdNH>
0

>  <NssNH>
0

>  <NaaNH>
0

>  <NtN>
0

>  <NsssNH>
0

>  <NdsN>
0

>  <NaaN>
0

>  <NsssN>
0

>  <NddsN>
0

>  <NaasN>
0

>  <NssssN>
0

>  <NsOH>
0

>  <NdO>
4

>  <NssO>
0

>  <NaaO>
0

>  <NsF>
0

>  <NsSiH3>
0

>  <NssSiH2>
0

>  <NsssSiH>
0

>  <NssssSi>
0

>  <NsPH2>
0

>  <NssPH>
0

>  <NsssP>
0

>  <NdsssP>
0

>  <NsssssP>
0

>  <NsSH>
0

>  <NdS>
0

>  <NssS>
0

>  <NaaS>
0

>  <NdssS>
0

>  <NddssS>
2

>  <NsCl>
2

>  <NsBr>
0

>  <NsI>
0

>  <fragCpx>
16.1

>  <fMF>
0.27

>  <nHBAcc>
4

>  <nHBDon>
2

>  <Kier1>
14.06

>  <Kier2>
4.35

>  <Lipinski>
1

>  <GhoseFilter>
1

>  <FilterItLogS>
-2.45

>  <VMcGowan>
172.26

>  <LabuteASA>
102.24

>  <PEOE_VSA1>
0

>  <PEOE_VSA2>
0

>  <PEOE_VSA3>
27.11

>  <PEOE_VSA4>
0

>  <PEOE_VSA5>
0

>  <PEOE_VSA6>
23.2

>  <PEOE_VSA7>
12.13

>  <PEOE_VSA8>
0

>  <PEOE_VSA9>
14.94

>  <PEOE_VSA10>
4.9

>  <PEOE_VSA11>
0

>  <PEOE_VSA12>
20.05

>  <PEOE_VSA13>
0

>  <SMR_VSA1>
16.84

>  <SMR_VSA2>
0

>  <SMR_VSA3>
0

>  <SMR_VSA4>
10.28

>  <SMR_VSA5>
9.79

>  <SMR_VSA6>
0

>  <SMR_VSA7>
22.18

>  <SMR_VSA8>
0

>  <SMR_VSA9>
0

>  <SlogP_VSA1>
10.28

>  <SlogP_VSA2>
16.84

>  <SlogP_VSA3>
20.05

>  <SlogP_VSA4>
0

>  <SlogP_VSA5>
0

>  <SlogP_VSA6>
21.92

>  <SlogP_VSA7>
10.05

>  <SlogP_VSA8>
0

>  <SlogP_VSA9>
0

>  <SlogP_VSA10>
0

>  <SlogP_VSA11>
0

>  <EState_VSA1>
29.84

>  <EState_VSA2>
10.05

>  <EState_VSA3>
0

>  <EState_VSA4>
12.13

>  <EState_VSA5>
0

>  <EState_VSA6>
0

>  <EState_VSA7>
0

>  <EState_VSA8>
0

>  <EState_VSA9>
33.48

>  <EState_VSA10>
16.84

>  <VSA_EState1>
44.2

>  <VSA_EState2>
-1.07

>  <VSA_EState3>
9.04

>  <VSA_EState4>
0

>  <VSA_EState5>
0

>  <VSA_EState6>
1.69

>  <VSA_EState7>
0

>  <VSA_EState8>
0

>  <VSA_EState9>
-8.26

>  <apol>
29.59

>  <bpol>
19.21

>  <nRing>
1

>  <nHRing>
0

>  <naRing>
1

>  <naHRing>
0

>  <nARing 2>
0

>  <nAHRing 2>
0

>  <nFRing>
0

>  <nFHRing>
0

>  <nFaRing>
0

>  <nFaHRing>
0

>  <nFARing 2>
0

>  <nFAHRing 2>
0

>  <nRot>
2

>  <SLogP>
0.29

>  <SMR>
59.21

>  <TopoPSA(NO)>
120.32

>  <TopoPSA>
137.08

>  <JGI1>
0.44

>  <JGI2>
0.12

>  <JGI3>
0.08

>  <JGI4>
0.07

>  <JGI5>
0.05

>  <Diameter>
6

>  <Radius>
4

>  <TMWC10>
103.69

>  <TSRW10>
48.95

>  <MW>
303.91

>  <AMW>
13.81

>  <WPath>
398

>  <WPol>
25

>  <Zagreb1>
84

>  <Zagreb2>
96

>  <mZagreb2>
3.22

>  <yes>


>  <nAR-cont>
0.336376

>  <nHA-cont>
0.954961865

>  <MWHBN>
0.344174551

>  <MWHBN-cont>
0.691865618

>  <TPSA-cont>
0

>  <pka_cont>
0.97

>  <yes.1>


>  <BBB_SCORE>
2.814136292

>  <MMFF94 Energy>
-167.76

$$$$
Compound 2569
Actelion Java MolfileCreator 2.0

  0  0  0  0  0  0              0 V3000
M  V30 BEGIN CTAB
M  V30 COUNTS 41 43 0 0 0
M  V30 BEGIN ATOM
M  V30 1 S 0.9176 0.0 -1.6689 0
M  V30 2 O 0.4882 -0.0524 -3.0486 0
M  V30 3 O 2.3091 -0.0377 -1.2837 0
M  V30 4 N 0.2068 1.3604 -1.0079 0
M  V30 5 C 0.0963 -1.2945 -0.805 0
M  V30 6 C 0.2177 1.3528 0.4402 0 CFG=2
M  V30 7 C -0.6041 -0.9798 0.3577 0
M  V30 8 C 0.1236 -2.5864 -1.3376 0
M  V30 9 N -0.6809 0.3014 0.8775 0
M  V30 10 C -0.2783 2.7143 0.977 0
M  V30 11 C -1.3201 -2.0162 0.9721 0
M  V30 12 C -0.5834 -3.6093 -0.695 0
M  V30 13 C 0.7485 3.8174 0.8602 0
M  V30 14 C -1.3265 -3.3397 0.4688 0
M  V30 15 S -0.4856 -5.2444 -1.3849 0
M  V30 16 C 1.6187 4.0919 1.925 0
M  V30 17 C 0.8611 4.5662 -0.3187 0
M  V30 18 C -2.1117 -4.3908 1.2234 0
M  V30 19 O -0.4215 -6.1992 -0.3085 0
M  V30 20 O 0.468 -5.2404 -2.4681 0
M  V30 21 N -1.9882 -5.3929 -2.1061 0
M  V30 22 C 2.5773 5.1003 1.8129 0
M  V30 23 C 1.8213 5.573 -0.4285 0
M  V30 24 F -3.0417 -3.8331 2.0567 0
M  V30 25 F -2.8255 -5.2349 0.4321 0
M  V30 26 F -1.33 -5.1542 2.0289 0
M  V30 27 C 2.6781 5.8406 0.637 0
M  V30 28 H -0.6988 1.5438 -1.4301 0
M  V30 29 H 1.227 1.1659 0.8278 0
M  V30 30 H 0.6891 -2.78 -2.2488 0
M  V30 31 H -1.0934 0.4116 1.7983 0
M  V30 32 H -1.2007 3.0213 0.4649 0
M  V30 33 H -0.556 2.6169 2.0357 0
M  V30 34 H -1.8942 -1.7953 1.8737 0
M  V30 35 H 1.56 3.5243 2.8509 0
M  V30 36 H 0.2087 4.366 -1.1657 0
M  V30 37 H -2.541 -6.1107 -1.6313 0
M  V30 38 H -1.8857 -5.5455 -3.1105 0
M  V30 39 H 3.2492 5.3068 2.6421 0
M  V30 40 H 1.9049 6.1449 -1.3492 0
M  V30 41 H 3.4277 6.6226 0.5484 0
M  V30 END ATOM
M  V30 BEGIN BOND
M  V30 1 2 1 2
M  V30 2 2 1 3
M  V30 3 1 1 4
M  V30 4 1 1 5
M  V30 5 1 4 6
M  V30 6 2 5 7
M  V30 7 1 5 8
M  V30 8 1 6 9
M  V30 9 1 6 10
M  V30 10 1 7 11
M  V30 11 2 8 12
M  V30 12 1 10 13
M  V30 13 2 11 14
M  V30 14 1 12 15
M  V30 15 2 13 16
M  V30 16 1 13 17
M  V30 17 1 14 18
M  V30 18 2 15 19
M  V30 19 2 15 20
M  V30 20 1 15 21
M  V30 21 1 16 22
M  V30 22 2 17 23
M  V30 23 1 18 24
M  V30 24 1 18 25
M  V30 25 1 18 26
M  V30 26 2 22 27
M  V30 27 1 7 9
M  V30 28 1 12 14
M  V30 29 1 23 27
M  V30 30 1 4 28
M  V30 31 1 6 29
M  V30 32 1 8 30
M  V30 33 1 9 31
M  V30 34 1 10 32
M  V30 35 1 10 33
M  V30 36 1 11 34
M  V30 37 1 16 35
M  V30 38 1 17 36
M  V30 39 1 21 37
M  V30 40 1 21 38
M  V30 41 1 22 39
M  V30 42 1 23 40
M  V30 43 1 27 41
M  V30 END BOND
M  V30 BEGIN COLLECTION
M  V30 MDLV30/STERAC1 ATOMS=(1 6)
M  V30 END COLLECTION
M  V30 END CTAB
M  END
>  <Column 1>
3202

>  <level_0>
5359

>  <index>
5360

>  <Unnamed: 0>
5360

>  <NO.>
5372

>  <Name>
bendroflumethiazide

>  <IUPAC_name>
3-benzyl-1-1-dioxo-6-(trifluoromethyl)-3-4-dihydro-2h-1lambda6-2-4-benzothiadiazine-7-sulfonamide

>  <SMILES>
NS(=O)(=O)c1cc2c(cc1C(F)(F)F)NC(Cc1ccccc1)NS2(=O)=O

>  <CID>
2315

>  <logBB>


>  <BBB+/BBB->
BBB-

>  <Inchi>
InChI=1S/C15H14F3N3O4S2/c16-15(17-18)10-7-11-13(8-12(10)26(19-22)23)27(24-25)21-14(20-11)6-9-4-2-1-3-5-9/h1-5-7-8-14-20-21H-6H2-(H2-19-22-23)

>  <threshold>


>  <reference>
R14|R23|

>  <group>
C

>  <Class>
-1

>  <ABC>
21.51

>  <ABCGG>
17.44

>  <nAcid>
0

>  <nBase>
0

>  <nAromAtom>
12

>  <nAromBond>
12

>  <nAtom>
41

>  <nHeavyAtom>
27

>  <nSpiro>
0

>  <nBridgehead>
0

>  <nHetero>
12

>  <nN>
3

>  <nO>
4

>  <nF>
3

>  <BalabanJ>
1.76

>  <BertzCT>
1085.28

>  <nBonds>
43

>  <nBondsO>
29

>  <nBondsS>
27

>  <nBondsD>
4

>  <nBondsT>
0

>  <nBondsA>
12

>  <nBondsM>
16

>  <nBondsKS>
33

>  <nBondsKD>
10

>  <RNCG>
0.15

>  <RPCG>
0.17

>  <FCSP3>
0.2

>  <SZ>
36

>  <Sm>
35.09

>  <Sv>
28.24

>  <Sse>
43.55

>  <Sp>
28.96

>  <Si>
47.1

>  <MZ>
0.88

>  <Mm>
0.86

>  <Mv>
0.69

>  <Mse>
1.06

>  <Mp>
0.71

>  <Mi>
1.15

>  <NsCH3>
0

>  <NdCH2>
0

>  <NssCH2>
1

>  <NtCH>
0

>  <NdsCH>
0

>  <NaaCH>
7

>  <NsssCH>
1

>  <NddC>
0

>  <NtsC>
0

>  <NdssC>
0

>  <NaasC>
5

>  <NaaaC>
0

>  <NssssC>
1

>  <NsNH3>
0

>  <NsNH2>
1

>  <NssNH2>
0

>  <NdNH>
0

>  <NssNH>
2

>  <NaaNH>
0

>  <NtN>
0

>  <NsssNH>
0

>  <NdsN>
0

>  <NaaN>
0

>  <NsssN>
0

>  <NddsN>
0

>  <NaasN>
0

>  <NssssN>
0

>  <NsOH>
0

>  <NdO>
4

>  <NssO>
0

>  <NaaO>
0

>  <NsF>
3

>  <NsSiH3>
0

>  <NssSiH2>
0

>  <NsssSiH>
0

>  <NssssSi>
0

>  <NsPH2>
0

>  <NssPH>
0

>  <NsssP>
0

>  <NdsssP>
0

>  <NsssssP>
0

>  <NsSH>
0

>  <NdS>
0

>  <NssS>
0

>  <NaaS>
0

>  <NdssS>
0

>  <NddssS>
2

>  <NsCl>
0

>  <NsBr>
0

>  <NsI>
0

>  <fragCpx>
139.12

>  <fMF>
0.41

>  <nHBAcc>
5

>  <nHBDon>
3

>  <Kier1>
21.7

>  <Kier2>
7.68

>  <Lipinski>
1

>  <GhoseFilter>
1

>  <FilterItLogS>
-4.69

>  <VMcGowan>
255.23

>  <LabuteASA>
153.04

>  <PEOE_VSA1>
5.32

>  <PEOE_VSA2>
0

>  <PEOE_VSA3>
21.97

>  <PEOE_VSA4>
17.89

>  <PEOE_VSA5>
0

>  <PEOE_VSA6>
30.33

>  <PEOE_VSA7>
17.7

>  <PEOE_VSA8>
6.42

>  <PEOE_VSA9>
22.31

>  <PEOE_VSA10>
4.9

>  <PEOE_VSA11>
0

>  <PEOE_VSA12>
20.05

>  <PEOE_VSA13>
0

>  <SMR_VSA1>
30.01

>  <SMR_VSA2>
0

>  <SMR_VSA3>
4.72

>  <SMR_VSA4>
5.14

>  <SMR_VSA5>
28.55

>  <SMR_VSA6>
5.32

>  <SMR_VSA7>
53.59

>  <SMR_VSA8>
0

>  <SMR_VSA9>
0

>  <SlogP_VSA1>
15.18

>  <SlogP_VSA2>
23

>  <SlogP_VSA3>
32.64

>  <SlogP_VSA4>
0

>  <SlogP_VSA5>
11.13

>  <SlogP_VSA6>
52.26

>  <SlogP_VSA7>
0

>  <SlogP_VSA8>
0

>  <SlogP_VSA9>
0

>  <SlogP_VSA10>
18.86

>  <SlogP_VSA11>
0

>  <EState_VSA1>
47.74

>  <EState_VSA2>
12.11

>  <EState_VSA3>
12.13

>  <EState_VSA4>
5.56

>  <EState_VSA5>
0

>  <EState_VSA6>
30.33

>  <EState_VSA7>
0

>  <EState_VSA8>
10.04

>  <EState_VSA9>
5.14

>  <EState_VSA10>
30.01

>  <VSA_EState1>
90.08

>  <VSA_EState2>
-1.92

>  <VSA_EState3>
7.51

>  <VSA_EState4>
-1.14

>  <VSA_EState5>
0

>  <VSA_EState6>
9.57

>  <VSA_EState7>
-5.79

>  <VSA_EState8>
0

>  <VSA_EState9>
-9.06

>  <apol>
48.36

>  <bpol>
31.27

>  <nRing>
3

>  <nHRing>
1

>  <naRing>
2

>  <naHRing>
0

>  <nARing 2>
1

>  <nAHRing 2>
1

>  <nFRing>
1

>  <nFHRing>
1

>  <nFaRing>
0

>  <nFaHRing>
0

>  <nFARing 2>
1

>  <nFAHRing 2>
1

>  <nRot>
3

>  <SLogP>
1.63

>  <SMR>
90.7

>  <TopoPSA(NO)>
118.36

>  <TopoPSA>
135.12

>  <JGI1>
0.34

>  <JGI2>
0.09

>  <JGI3>
0.07

>  <JGI4>
0.06

>  <JGI5>
0.04

>  <Diameter>
12

>  <Radius>
6

>  <TMWC10>
133.7

>  <TSRW10>
62.9

>  <MW>
421.04

>  <AMW>
10.27

>  <WPath>
1752

>  <WPol>
46

>  <Zagreb1>
150

>  <Zagreb2>
176

>  <mZagreb2>
5.43

>  <yes>


>  <nAR-cont>
0.816016

>  <nHA-cont>
0.860070871

>  <MWHBN>
0.389877622

>  <MWHBN-cont>
0.515945378

>  <TPSA-cont>
0

>  <pka_cont>
0.97

>  <yes.1>


>  <BBB_SCORE>
2.935004938

>  <MMFF94 Energy>
-185.08

$$$$
Compound 2570
Actelion Java MolfileCreator 2.0

  0  0  0  0  0  0              0 V3000
M  V30 BEGIN CTAB
M  V30 COUNTS 40 43 0 0 0
M  V30 BEGIN ATOM
M  V30 1 Cl 0.5045 -4.3785 2.6085 0
M  V30 2 C 0.4864 -3.3563 1.2161 0
M  V30 3 C 1.3443 -3.5052 0.1264 0
M  V30 4 C -0.4566 -2.3133 1.2175 0
M  V30 5 S 2.5336 -4.8057 0.048 0
M  V30 6 C 1.2531 -2.6206 -0.9539 0
M  V30 7 C -0.5566 -1.4034 0.1559 0
M  V30 8 O 3.3577 -4.6116 -1.1232 0
M  V30 9 O 1.8849 -6.0648 0.3202 0
M  V30 10 N 3.5491 -4.4733 1.3414 0
M  V30 11 C 0.3107 -1.5859 -0.918 0
M  V30 12 N -1.5108 -0.4075 0.203 0
M  V30 13 S 0.1787 -0.5174 -2.3056 0
M  V30 14 C -1.549 0.7147 -0.7051 0
M  V30 15 O -0.0219 -1.3438 -3.4755 0
M  V30 16 O 1.2551 0.4417 -2.2235 0
M  V30 17 N -1.2738 0.2589 -2.0467 0
M  V30 18 C -0.6411 1.8601 -0.2303 0
M  V30 19 C -1.1367 2.5177 1.0926 0
M  V30 20 C -0.6322 3.0868 -1.2067 0
M  V30 21 C -0.0264 3.4216 1.5842 0
M  V30 22 C -2.099 3.5975 0.5837 0
M  V30 23 C -1.0412 4.265 -0.2972 0
M  V30 24 C 0.0366 4.4634 0.741 0
M  V30 25 H -1.1235 -2.2109 2.0723 0
M  V30 26 H 1.9 -2.7288 -1.8241 0
M  V30 27 H 4.4965 -4.3003 1.0024 0
M  V30 28 H 3.4896 -5.2237 2.0318 0
M  V30 29 H -2.0859 -0.3317 1.0353 0
M  V30 30 H -2.5847 1.0746 -0.7151 0
M  V30 31 H -2.0351 -0.2468 -2.4931 0
M  V30 32 H 0.3836 1.4943 -0.087 0
M  V30 33 H -1.5456 1.8548 1.856 0
M  V30 34 H -1.3617 2.966 -2.0154 0
M  V30 35 H 0.357 3.2326 -1.654 0
M  V30 36 H 0.6348 3.2233 2.4143 0
M  V30 37 H -2.4795 4.2514 1.3793 0
M  V30 38 H -2.949 3.2039 0.0171 0
M  V30 39 H -1.3642 5.1737 -0.806 0
M  V30 40 H 0.7548 5.2694 0.7613 0
M  V30 END ATOM
M  V30 BEGIN BOND
M  V30 1 1 1 2
M  V30 2 2 2 3
M  V30 3 1 2 4
M  V30 4 1 3 5
M  V30 5 1 3 6
M  V30 6 2 4 7
M  V30 7 2 5 8
M  V30 8 2 5 9
M  V30 9 1 5 10
M  V30 10 2 6 11
M  V30 11 1 7 12
M  V30 12 1 11 13
M  V30 13 1 12 14
M  V30 14 2 13 15
M  V30 15 2 13 16
M  V30 16 1 13 17
M  V30 17 1 14 18
M  V30 18 1 18 19
M  V30 19 1 18 20
M  V30 20 1 19 21
M  V30 21 1 19 22
M  V30 22 1 20 23
M  V30 23 2 21 24
M  V30 24 1 7 11
M  V30 25 1 14 17
M  V30 26 1 22 23
M  V30 27 1 23 24
M  V30 28 1 4 25
M  V30 29 1 6 26
M  V30 30 1 10 27
M  V30 31 1 10 28
M  V30 32 1 12 29
M  V30 33 1 14 30
M  V30 34 1 17 31
M  V30 35 1 18 32
M  V30 36 1 19 33
M  V30 37 1 20 34
M  V30 38 1 20 35
M  V30 39 1 21 36
M  V30 40 1 22 37
M  V30 41 1 22 38
M  V30 42 1 23 39
M  V30 43 1 24 40
M  V30 END BOND
M  V30 END CTAB
M  END
>  <Column 1>
3203

>  <level_0>
5360

>  <index>
5361

>  <Unnamed: 0>
5361

>  <NO.>
5373

>  <Name>
cyclothiazide

>  <IUPAC_name>
3-(2-bicyclo[2.2.1]hept-5-enyl)-6-chloro-1-1-dioxo-3-4-dihydro-2h-1lambda6-2-4-benzothiadiazine-7-sulfonamide

>  <SMILES>
NS(=O)(=O)c1cc2c(cc1Cl)NC(C1CC3C=CC1C3)NS2(=O)=O

>  <CID>
2910

>  <logBB>


>  <BBB+/BBB->
BBB-

>  <Inchi>
InChI=1S/C14H16ClN3O4S2/c15-10-5-11-13(6-12(10)23(16-19)20)24(21-22)18-14(17-11)9-4-7-1-2-8(9)3-7/h1-2-5-9-14-17-18H-3-4H2-(H2-16-19-20)

>  <threshold>


>  <reference>
R14|R23|

>  <group>
C

>  <Class>
-1

>  <ABC>
19.71

>  <ABCGG>
16.3

>  <nAcid>
0

>  <nBase>
0

>  <nAromAtom>
6

>  <nAromBond>
6

>  <nAtom>
40

>  <nHeavyAtom>
24

>  <nSpiro>
0

>  <nBridgehead>
2

>  <nHetero>
10

>  <nN>
3

>  <nO>
4

>  <nF>
0

>  <BalabanJ>
1.51

>  <BertzCT>
958.48

>  <nBonds>
43

>  <nBondsO>
27

>  <nBondsS>
32

>  <nBondsD>
5

>  <nBondsT>
0

>  <nBondsA>
6

>  <nBondsM>
11

>  <nBondsKS>
35

>  <nBondsKD>
8

>  <RNCG>
0.18

>  <RPCG>
0.12

>  <FCSP3>
0.43

>  <SZ>
33.67

>  <Sm>
32.46

>  <Sv>
26.93

>  <Sse>
41.33

>  <Sp>
29.06

>  <Si>
45.02

>  <MZ>
0.84

>  <Mm>
0.81

>  <Mv>
0.67

>  <Mse>
1.03

>  <Mp>
0.73

>  <Mi>
1.13

>  <NsCH3>
0

>  <NdCH2>
0

>  <NssCH2>
2

>  <NtCH>
0

>  <NdsCH>
2

>  <NaaCH>
2

>  <NsssCH>
4

>  <NddC>
0

>  <NtsC>
0

>  <NdssC>
0

>  <NaasC>
4

>  <NaaaC>
0

>  <NssssC>
0

>  <NsNH3>
0

>  <NsNH2>
1

>  <NssNH2>
0

>  <NdNH>
0

>  <NssNH>
2

>  <NaaNH>
0

>  <NtN>
0

>  <NsssNH>
0

>  <NdsN>
0

>  <NaaN>
0

>  <NsssN>
0

>  <NddsN>
0

>  <NaasN>
0

>  <NssssN>
0

>  <NsOH>
0

>  <NdO>
4

>  <NssO>
0

>  <NaaO>
0

>  <NsF>
0

>  <NsSiH3>
0

>  <NssSiH2>
0

>  <NsssSiH>
0

>  <NssssSi>
0

>  <NsPH2>
0

>  <NssPH>
0

>  <NsssP>
0

>  <NdsssP>
0

>  <NsssssP>
0

>  <NsSH>
0

>  <NdS>
0

>  <NssS>
0

>  <NaaS>
0

>  <NdssS>
0

>  <NddssS>
2

>  <NsCl>
1

>  <NsBr>
0

>  <NsI>
0

>  <fragCpx>
177.1

>  <fMF>
0.43

>  <nHBAcc>
5

>  <nHBDon>
3

>  <Kier1>
17.42

>  <Kier2>
5.75

>  <Lipinski>
1

>  <GhoseFilter>
1

>  <FilterItLogS>
-3.06

>  <VMcGowan>
245.84

>  <LabuteASA>
144.91

>  <PEOE_VSA1>
5.32

>  <PEOE_VSA2>
0

>  <PEOE_VSA3>
21.97

>  <PEOE_VSA4>
4.72

>  <PEOE_VSA5>
0

>  <PEOE_VSA6>
23.75

>  <PEOE_VSA7>
36.81

>  <PEOE_VSA8>
5.92

>  <PEOE_VSA9>
16.88

>  <PEOE_VSA10>
9.79

>  <PEOE_VSA11>
0

>  <PEOE_VSA12>
20.05

>  <PEOE_VSA13>
0

>  <SMR_VSA1>
16.84

>  <SMR_VSA2>
0

>  <SMR_VSA3>
4.72

>  <SMR_VSA4>
22.89

>  <SMR_VSA5>
28.8

>  <SMR_VSA6>
5.32

>  <SMR_VSA7>
29.31

>  <SMR_VSA8>
0

>  <SMR_VSA9>
0

>  <SlogP_VSA1>
15.18

>  <SlogP_VSA2>
23

>  <SlogP_VSA3>
20.05

>  <SlogP_VSA4>
17.75

>  <SlogP_VSA5>
12.84

>  <SlogP_VSA6>
34.08

>  <SlogP_VSA7>
5.02

>  <SlogP_VSA8>
0

>  <SlogP_VSA9>
0

>  <SlogP_VSA10>
5.69

>  <SlogP_VSA11>
0

>  <EState_VSA1>
31.11

>  <EState_VSA2>
15.84

>  <EState_VSA3>
17.52

>  <EState_VSA4>
18.91

>  <EState_VSA5>
6.07

>  <EState_VSA6>
0

>  <EState_VSA7>
0

>  <EState_VSA8>
22.19

>  <EState_VSA9>
16.74

>  <EState_VSA10>
16.84

>  <VSA_EState1>
50.92

>  <VSA_EState2>
-0.57

>  <VSA_EState3>
8.14

>  <VSA_EState4>
0.29

>  <VSA_EState5>
1

>  <VSA_EState6>
2.31

>  <VSA_EState7>
5.84

>  <VSA_EState8>
0

>  <VSA_EState9>
-7.97

>  <apol>
48.54

>  <bpol>
30.44

>  <nRing>
4

>  <nHRing>
1

>  <naRing>
1

>  <naHRing>
0

>  <nARing 2>
3

>  <nAHRing 2>
1

>  <nFRing>
2

>  <nFHRing>
1

>  <nFaRing>
0

>  <nFaHRing>
0

>  <nFARing 2>
2

>  <nFAHRing 2>
1

>  <nRot>
2

>  <SLogP>
1.23

>  <SMR>
89.4

>  <TopoPSA(NO)>
118.36

>  <TopoPSA>
135.12

>  <JGI1>
0.31

>  <JGI2>
0.09

>  <JGI3>
0.07

>  <JGI4>
0.05

>  <JGI5>
0.05

>  <Diameter>
11

>  <Radius>
6

>  <TMWC10>
128.89

>  <TSRW10>
75.55

>  <MW>
389.03

>  <AMW>
9.73

>  <WPath>
1243

>  <WPol>
40

>  <Zagreb1>
142

>  <Zagreb2>
173

>  <mZagreb2>
4.74

>  <yes>


>  <nAR-cont>
0.691115

>  <nHA-cont>
0.94700071

>  <MWHBN>
0.405600461

>  <MWHBN-cont>
0.454050131

>  <TPSA-cont>
0

>  <pka_cont>
0.97

>  <yes.1>


>  <BBB_SCORE>
2.804190906

>  <MMFF94 Energy>
-184.31

$$$$
Compound 2571
Actelion Java MolfileCreator 2.0

  0  0  0  0  0  0              0 V3000
M  V30 BEGIN CTAB
M  V30 COUNTS 40 42 0 0 0
M  V30 BEGIN ATOM
M  V30 1 Cl -0.4234 -4.0703 3.3062 0
M  V30 2 C 0.4745 -3.1692 2.1383 0
M  V30 3 C 1.8572 -2.9778 2.1922 0
M  V30 4 C -0.2609 -2.6215 1.0723 0
M  V30 5 S 2.8348 -3.6185 3.5154 0
M  V30 6 C 2.4978 -2.2431 1.187 0
M  V30 7 C 0.364 -1.8817 0.0616 0
M  V30 8 O 2.2435 -3.2349 4.7736 0
M  V30 9 O 4.2284 -3.3742 3.2219 0
M  V30 10 N 2.6492 -5.278 3.3558 0
M  V30 11 C 1.7385 -1.7129 0.1383 0
M  V30 12 N -0.3707 -1.3596 -0.9984 0
M  V30 13 S 2.541 -0.7876 -1.1323 0
M  V30 14 C 0.1819 -0.6419 -2.0336 0
M  V30 15 O 3.4419 -1.7237 -1.7746 0
M  V30 16 O 3.0467 0.4012 -0.4751 0
M  V30 17 N 1.4221 -0.3365 -2.2051 0
M  V30 18 C -0.7848 -0.1446 -3.1081 0
M  V30 19 S -2.0603 0.9084 -2.3509 0
M  V30 20 C -1.032 2.3727 -1.9864 0
M  V30 21 C -1.8257 3.4249 -1.255 0
M  V30 22 C -2.6408 4.3231 -1.9602 0
M  V30 23 C -1.7767 3.5101 0.1443 0
M  V30 24 C -3.3815 5.2917 -1.2807 0
M  V30 25 C -2.5178 4.4803 0.8215 0
M  V30 26 C -3.3187 5.3709 0.1091 0
M  V30 27 H -1.3379 -2.7804 1.0375 0
M  V30 28 H 3.5747 -2.0768 1.2093 0
M  V30 29 H 2.1692 -5.6542 4.1755 0
M  V30 30 H 3.5563 -5.7121 3.178 0
M  V30 31 H -1.3841 -1.443 -0.9634 0
M  V30 32 H -0.2573 0.4014 -3.8958 0
M  V30 33 H -1.272 -1.0146 -3.5596 0
M  V30 34 H -0.6455 2.7871 -2.9241 0
M  V30 35 H -0.1691 2.0781 -1.3798 0
M  V30 36 H -2.7062 4.2694 -3.0447 0
M  V30 37 H -1.1588 2.822 0.7169 0
M  V30 38 H -4.0098 5.9832 -1.8361 0
M  V30 39 H -2.4707 4.541 1.9058 0
M  V30 40 H -3.8958 6.1254 0.6373 0
M  V30 END ATOM
M  V30 BEGIN BOND
M  V30 1 1 1 2
M  V30 2 2 2 3
M  V30 3 1 2 4
M  V30 4 1 3 5
M  V30 5 1 3 6
M  V30 6 2 4 7
M  V30 7 2 5 8
M  V30 8 2 5 9
M  V30 9 1 5 10
M  V30 10 2 6 11
M  V30 11 1 7 12
M  V30 12 1 11 13
M  V30 13 1 12 14
M  V30 14 2 13 15
M  V30 15 2 13 16
M  V30 16 1 13 17
M  V30 17 1 14 18
M  V30 18 1 18 19
M  V30 19 1 19 20
M  V30 20 1 20 21
M  V30 21 2 21 22
M  V30 22 1 21 23
M  V30 23 1 22 24
M  V30 24 2 23 25
M  V30 25 2 24 26
M  V30 26 1 7 11
M  V30 27 2 14 17
M  V30 28 1 25 26
M  V30 29 1 4 27
M  V30 30 1 6 28
M  V30 31 1 10 29
M  V30 32 1 10 30
M  V30 33 1 12 31
M  V30 34 1 18 32
M  V30 35 1 18 33
M  V30 36 1 20 34
M  V30 37 1 20 35
M  V30 38 1 22 36
M  V30 39 1 23 37
M  V30 40 1 24 38
M  V30 41 1 25 39
M  V30 42 1 26 40
M  V30 END BOND
M  V30 END CTAB
M  END
>  <Column 1>
3204

>  <level_0>
5361

>  <index>
5362

>  <Unnamed: 0>
5362

>  <NO.>
5374

>  <Name>
benzthiazide

>  <IUPAC_name>
3-(benzylsulfanylmethyl)-6-chloro-1-1-dioxo-4h-1lambda6-2-4-benzothiadiazine-7-sulfonamide

>  <SMILES>
NS(=O)(=O)c1cc2c(cc1Cl)NC(CSCc1ccccc1)=NS2(=O)=O

>  <CID>
2343

>  <logBB>


>  <BBB+/BBB->
BBB-

>  <Inchi>
InChI=1S/C15H14ClN3O4S3/c16-11-6-12-14(7-13(11)25(17-20)21)26(22-23)19-15(18-12)9-24-8-10-4-2-1-3-5-10/h1-7H-8-9H2-(H-18-19)(H2-17-20-21)

>  <threshold>


>  <reference>
R14|R23|

>  <group>
C

>  <Class>
-1

>  <ABC>
20.5

>  <ABCGG>
15.9

>  <nAcid>
0

>  <nBase>
2

>  <nAromAtom>
12

>  <nAromBond>
12

>  <nAtom>
40

>  <nHeavyAtom>
26

>  <nSpiro>
0

>  <nBridgehead>
0

>  <nHetero>
11

>  <nN>
3

>  <nO>
4

>  <nF>
0

>  <BalabanJ>
1.54

>  <BertzCT>
1084.62

>  <nBonds>
42

>  <nBondsO>
28

>  <nBondsS>
25

>  <nBondsD>
5

>  <nBondsT>
0

>  <nBondsA>
12

>  <nBondsM>
17

>  <nBondsKS>
31

>  <nBondsKD>
11

>  <RNCG>
0.16

>  <RPCG>
0.13

>  <FCSP3>
0.13

>  <SZ>
37

>  <Sm>
35.96

>  <Sv>
28.58

>  <Sse>
41.52

>  <Sp>
31

>  <Si>
44.53

>  <MZ>
0.93

>  <Mm>
0.9

>  <Mv>
0.71

>  <Mse>
1.04

>  <Mp>
0.78

>  <Mi>
1.11

>  <NsCH3>
0

>  <NdCH2>
0

>  <NssCH2>
2

>  <NtCH>
0

>  <NdsCH>
0

>  <NaaCH>
7

>  <NsssCH>
0

>  <NddC>
0

>  <NtsC>
0

>  <NdssC>
1

>  <NaasC>
5

>  <NaaaC>
0

>  <NssssC>
0

>  <NsNH3>
0

>  <NsNH2>
1

>  <NssNH2>
0

>  <NdNH>
0

>  <NssNH>
1

>  <NaaNH>
0

>  <NtN>
0

>  <NsssNH>
0

>  <NdsN>
1

>  <NaaN>
0

>  <NsssN>
0

>  <NddsN>
0

>  <NaasN>
0

>  <NssssN>
0

>  <NsOH>
0

>  <NdO>
4

>  <NssO>
0

>  <NaaO>
0

>  <NsF>
0

>  <NsSiH3>
0

>  <NssSiH2>
0

>  <NsssSiH>
0

>  <NssssSi>
0

>  <NsPH2>
0

>  <NssPH>
0

>  <NsssP>
0

>  <NdsssP>
0

>  <NsssssP>
0

>  <NsSH>
0

>  <NdS>
0

>  <NssS>
1

>  <NaaS>
0

>  <NdssS>
0

>  <NddssS>
2

>  <NsCl>
1

>  <NsBr>
0

>  <NsI>
0

>  <fragCpx>
134.11

>  <fMF>
0.48

>  <nHBAcc>
6

>  <nHBDon>
2

>  <Kier1>
20.73

>  <Kier2>
8.16

>  <Lipinski>
1

>  <GhoseFilter>
1

>  <FilterItLogS>
-5.13

>  <VMcGowan>
274.24

>  <LabuteASA>
160.31

>  <PEOE_VSA1>
5.32

>  <PEOE_VSA2>
0

>  <PEOE_VSA3>
13.56

>  <PEOE_VSA4>
8.42

>  <PEOE_VSA5>
16.16

>  <PEOE_VSA6>
41.93

>  <PEOE_VSA7>
17.7

>  <PEOE_VSA8>
5.75

>  <PEOE_VSA9>
16.46

>  <PEOE_VSA10>
15.63

>  <PEOE_VSA11>
0

>  <PEOE_VSA12>
10.02

>  <PEOE_VSA13>
10.02

>  <SMR_VSA1>
16.84

>  <SMR_VSA2>
0

>  <SMR_VSA3>
0

>  <SMR_VSA4>
9.54

>  <SMR_VSA5>
15.54

>  <SMR_VSA6>
11.07

>  <SMR_VSA7>
53.05

>  <SMR_VSA8>
0

>  <SMR_VSA9>
0

>  <SlogP_VSA1>
10.46

>  <SlogP_VSA2>
28.42

>  <SlogP_VSA3>
25.8

>  <SlogP_VSA4>
0

>  <SlogP_VSA5>
5.56

>  <SlogP_VSA6>
56.65

>  <SlogP_VSA7>
5.02

>  <SlogP_VSA8>
0

>  <SlogP_VSA9>
0

>  <SlogP_VSA10>
5.69

>  <SlogP_VSA11>
0

>  <EState_VSA1>
24.94

>  <EState_VSA2>
21.44

>  <EState_VSA3>
11.51

>  <EState_VSA4>
11.63

>  <EState_VSA5>
17.83

>  <EState_VSA6>
0

>  <EState_VSA7>
30.33

>  <EState_VSA8>
9.71

>  <EState_VSA9>
16.74

>  <EState_VSA10>
16.84

>  <VSA_EState1>
51.56

>  <VSA_EState2>
-0.73

>  <VSA_EState3>
7.79

>  <VSA_EState4>
1.28

>  <VSA_EState5>
1.28

>  <VSA_EState6>
11.88

>  <VSA_EState7>
0

>  <VSA_EState8>
0

>  <VSA_EState9>
-8.2

>  <apol>
51.77

>  <bpol>
31.47

>  <nRing>
3

>  <nHRing>
1

>  <naRing>
2

>  <naHRing>
0

>  <nARing 2>
1

>  <nAHRing 2>
1

>  <nFRing>
1

>  <nFHRing>
1

>  <nFaRing>
0

>  <nFaHRing>
0

>  <nFARing 2>
1

>  <nFAHRing 2>
1

>  <nRot>
5

>  <SLogP>
2.43

>  <SMR>
103.67

>  <TopoPSA(NO)>
118.69

>  <TopoPSA>
160.75

>  <JGI1>
0.29

>  <JGI2>
0.08

>  <JGI3>
0.06

>  <JGI4>
0.05

>  <JGI5>
0.05

>  <Diameter>
14

>  <Radius>
7

>  <TMWC10>
130.42

>  <TSRW10>
61.4

>  <MW>
430.98

>  <AMW>
10.77

>  <WPath>
1784

>  <WPol>
42

>  <Zagreb1>
140

>  <Zagreb2>
163

>  <mZagreb2>
5.43

>  <yes>


>  <nAR-cont>
0.816016

>  <nHA-cont>
0.892715677

>  <MWHBN>
0.385355382

>  <MWHBN-cont>
0.533756986

>  <TPSA-cont>
0

>  <pka_cont>
0.97

>  <yes.1>


>  <BBB_SCORE>
2.994367156

>  <MMFF94 Energy>
-83.463

$$$$
Compound 2572
Actelion Java MolfileCreator 2.0

  0  0  0  0  0  0              0 V3000
M  V30 BEGIN CTAB
M  V30 COUNTS 34 36 0 0 0
M  V30 BEGIN ATOM
M  V30 1 Cl 3.5473 2.7215 -1.8962 0
M  V30 2 C 2.3651 1.4687 -1.7611 0
M  V30 3 C 2.1288 0.5069 -2.7469 0
M  V30 4 C 1.6046 1.4535 -0.5805 0
M  V30 5 S 3.0647 0.4599 -4.2406 0
M  V30 6 C 1.1465 -0.4718 -2.5488 0
M  V30 7 C 0.6056 0.498 -0.3764 0
M  V30 8 O 2.4958 -0.5348 -5.1213 0
M  V30 9 O 4.4724 0.4806 -3.927 0
M  V30 10 N 2.6941 1.926 -4.97 0
M  V30 11 C 0.3977 -0.4657 -1.3687 0
M  V30 12 N -0.1415 0.4908 0.7866 0
M  V30 13 C -0.5902 -1.5311 -1.0965 0
M  V30 14 C -1.4046 -0.2058 0.8114 0 CFG=1
M  V30 15 O -0.7395 -2.4801 -1.8554 0
M  V30 16 N -1.2997 -1.4213 0.0646 0
M  V30 17 C -1.8247 -0.4699 2.2399 0
M  V30 18 C -3.0057 0.0915 2.7513 0
M  V30 19 C -1.0428 -1.2767 3.0855 0
M  V30 20 C -3.394 -0.1501 4.0709 0
M  V30 21 C -1.433 -1.5167 4.4036 0
M  V30 22 C -2.6084 -0.9535 4.8952 0
M  V30 23 H 1.7924 2.2028 0.1858 0
M  V30 24 H 0.9675 -1.2477 -3.292 0
M  V30 25 H 2.2476 1.757 -5.8723 0
M  V30 26 H 3.5342 2.5041 -5.0279 0
M  V30 27 H 0.0229 1.1773 1.5108 0
M  V30 28 H -2.1595 0.4087 0.3046 0
M  V30 29 H -1.9514 -2.1686 0.255 0
M  V30 30 H -3.6352 0.7217 2.1263 0
M  V30 31 H -0.1211 -1.7207 2.7117 0
M  V30 32 H -4.3112 0.2878 4.4572 0
M  V30 33 H -0.8194 -2.1437 5.0457 0
M  V30 34 H -2.9126 -1.1414 5.9219 0
M  V30 END ATOM
M  V30 BEGIN BOND
M  V30 1 1 1 2
M  V30 2 2 2 3
M  V30 3 1 2 4
M  V30 4 1 3 5
M  V30 5 1 3 6
M  V30 6 2 4 7
M  V30 7 2 5 8
M  V30 8 2 5 9
M  V30 9 1 5 10
M  V30 10 2 6 11
M  V30 11 1 7 12
M  V30 12 1 11 13
M  V30 13 1 12 14
M  V30 14 2 13 15
M  V30 15 1 13 16
M  V30 16 1 14 17
M  V30 17 2 17 18
M  V30 18 1 17 19
M  V30 19 1 18 20
M  V30 20 2 19 21
M  V30 21 2 20 22
M  V30 22 1 7 11
M  V30 23 1 14 16
M  V30 24 1 21 22
M  V30 25 1 4 23
M  V30 26 1 6 24
M  V30 27 1 10 25
M  V30 28 1 10 26
M  V30 29 1 12 27
M  V30 30 1 14 28
M  V30 31 1 16 29
M  V30 32 1 18 30
M  V30 33 1 19 31
M  V30 34 1 20 32
M  V30 35 1 21 33
M  V30 36 1 22 34
M  V30 END BOND
M  V30 BEGIN COLLECTION
M  V30 MDLV30/STERAC1 ATOMS=(1 14)
M  V30 END COLLECTION
M  V30 END CTAB
M  END
>  <Column 1>
3205

>  <level_0>
5362

>  <index>
5363

>  <Unnamed: 0>
5363

>  <NO.>
5375

>  <Name>
fenquizone

>  <IUPAC_name>
7-chloro-4-oxo-2-phenyl-2-3-dihydro-1h-quinazoline-6-sulfonamide

>  <SMILES>
NS(=O)(=O)c1cc2c(cc1Cl)NC(c1ccccc1)NC2=O

>  <CID>
68548

>  <logBB>


>  <BBB+/BBB->
BBB-

>  <Inchi>
InChI=1S/C14H12ClN3O3S/c15-10-7-11-9(6-12(10)22(16-20)21)14(19)18-13(17-11)8-4-2-1-3-5-8/h1-7-13-17H-(H-18-19)(H2-16-20-21)

>  <threshold>


>  <reference>
R14|

>  <group>
C

>  <Class>
-1

>  <ABC>
17.44

>  <ABCGG>
13.98

>  <nAcid>
0

>  <nBase>
0

>  <nAromAtom>
12

>  <nAromBond>
12

>  <nAtom>
34

>  <nHeavyAtom>
22

>  <nSpiro>
0

>  <nBridgehead>
0

>  <nHetero>
8

>  <nN>
3

>  <nO>
3

>  <nF>
0

>  <BalabanJ>
1.67

>  <BertzCT>
853.14

>  <nBonds>
36

>  <nBondsO>
24

>  <nBondsS>
21

>  <nBondsD>
3

>  <nBondsT>
0

>  <nBondsA>
12

>  <nBondsM>
15

>  <nBondsKS>
27

>  <nBondsKD>
9

>  <RNCG>
0.18

>  <RPCG>
0.13

>  <FCSP3>
0.07

>  <SZ>
29

>  <Sm>
28.12

>  <Sv>
23.95

>  <Sse>
35.15

>  <Sp>
25.25

>  <Si>
38.06

>  <MZ>
0.85

>  <Mm>
0.83

>  <Mv>
0.7

>  <Mse>
1.03

>  <Mp>
0.74

>  <Mi>
1.12

>  <NsCH3>
0

>  <NdCH2>
0

>  <NssCH2>
0

>  <NtCH>
0

>  <NdsCH>
0

>  <NaaCH>
7

>  <NsssCH>
1

>  <NddC>
0

>  <NtsC>
0

>  <NdssC>
1

>  <NaasC>
5

>  <NaaaC>
0

>  <NssssC>
0

>  <NsNH3>
0

>  <NsNH2>
1

>  <NssNH2>
0

>  <NdNH>
0

>  <NssNH>
2

>  <NaaNH>
0

>  <NtN>
0

>  <NsssNH>
0

>  <NdsN>
0

>  <NaaN>
0

>  <NsssN>
0

>  <NddsN>
0

>  <NaasN>
0

>  <NssssN>
0

>  <NsOH>
0

>  <NdO>
3

>  <NssO>
0

>  <NaaO>
0

>  <NsF>
0

>  <NsSiH3>
0

>  <NssSiH2>
0

>  <NsssSiH>
0

>  <NssssSi>
0

>  <NsPH2>
0

>  <NssPH>
0

>  <NsssP>
0

>  <NdsssP>
0

>  <NsssssP>
0

>  <NsSH>
0

>  <NdS>
0

>  <NssS>
0

>  <NaaS>
0

>  <NdssS>
0

>  <NddssS>
1

>  <NsCl>
1

>  <NsBr>
0

>  <NsI>
0

>  <fragCpx>
114.08

>  <fMF>
0.47

>  <nHBAcc>
4

>  <nHBDon>
3

>  <Kier1>
16.84

>  <Kier2>
6.48

>  <Lipinski>
1

>  <GhoseFilter>
1

>  <FilterItLogS>
-4.32

>  <VMcGowan>
221.58

>  <LabuteASA>
131.88

>  <PEOE_VSA1>
10.63

>  <PEOE_VSA2>
4.79

>  <PEOE_VSA3>
13.56

>  <PEOE_VSA4>
0

>  <PEOE_VSA5>
0

>  <PEOE_VSA6>
41.93

>  <PEOE_VSA7>
17.7

>  <PEOE_VSA8>
0

>  <PEOE_VSA9>
16.27

>  <PEOE_VSA10>
11.06

>  <PEOE_VSA11>
0

>  <PEOE_VSA12>
10.02

>  <PEOE_VSA13>
5.91

>  <SMR_VSA1>
13.21

>  <SMR_VSA2>
0

>  <SMR_VSA3>
5.32

>  <SMR_VSA4>
5.14

>  <SMR_VSA5>
11.06

>  <SMR_VSA6>
5.32

>  <SMR_VSA7>
58.61

>  <SMR_VSA8>
0

>  <SMR_VSA9>
0

>  <SlogP_VSA1>
15.77

>  <SlogP_VSA2>
14.32

>  <SlogP_VSA3>
10.02

>  <SlogP_VSA4>
0

>  <SlogP_VSA5>
22.09

>  <SlogP_VSA6>
47.36

>  <SlogP_VSA7>
5.02

>  <SlogP_VSA8>
0

>  <SlogP_VSA9>
0

>  <SlogP_VSA10>
5.69

>  <SlogP_VSA11>
0

>  <EState_VSA1>
22.1

>  <EState_VSA2>
15.48

>  <EState_VSA3>
5.69

>  <EState_VSA4>
5.56

>  <EState_VSA5>
12.13

>  <EState_VSA6>
0

>  <EState_VSA7>
30.33

>  <EState_VSA8>
10.63

>  <EState_VSA9>
16.74

>  <EState_VSA10>
13.21

>  <VSA_EState1>
22.95

>  <VSA_EState2>
11.95

>  <VSA_EState3>
10.93

>  <VSA_EState4>
1.5

>  <VSA_EState5>
-0.4

>  <VSA_EState6>
11.89

>  <VSA_EState7>
-0.42

>  <VSA_EState8>
0

>  <VSA_EState9>
-4

>  <apol>
42.17

>  <bpol>
20.64

>  <nRing>
3

>  <nHRing>
1

>  <naRing>
2

>  <naHRing>
0

>  <nARing 2>
1

>  <nAHRing 2>
1

>  <nFRing>
1

>  <nFHRing>
1

>  <nFaRing>
0

>  <nFaHRing>
0

>  <nFARing 2>
1

>  <nFAHRing 2>
1

>  <nRot>
2

>  <SLogP>
1.84

>  <SMR>
83.1

>  <TopoPSA(NO)>
101.29

>  <TopoPSA>
109.67

>  <JGI1>
0.25

>  <JGI2>
0.09

>  <JGI3>
0.05

>  <JGI4>
0.05

>  <JGI5>
0.04

>  <Diameter>
11

>  <Radius>
6

>  <TMWC10>
121.24

>  <TSRW10>
56.66

>  <MW>
337.03

>  <AMW>
9.91

>  <WPath>
1025

>  <WPol>
37

>  <Zagreb1>
120

>  <Zagreb2>
142

>  <mZagreb2>
4.61

>  <yes>


>  <nAR-cont>
0.816016

>  <nHA-cont>
0.983774276

>  <MWHBN>
0.381297326

>  <MWHBN-cont>
0.549712497

>  <TPSA-cont>
0.234435299

>  <pka_cont>
0.97

>  <yes.1>


>  <BBB_SCORE>
3.578229619

>  <MMFF94 Energy>
-124.75

$$$$
Compound 2573
Actelion Java MolfileCreator 2.0

  0  0  0  0  0  0              0 V3000
M  V30 BEGIN CTAB
M  V30 COUNTS 36 37 0 0 0
M  V30 BEGIN ATOM
M  V30 1 Br 0.568 1.4612 5.4473 0
M  V30 2 C 1.4063 0.9381 3.8205 0
M  V30 3 C 0.7371 0.1148 2.8934 0
M  V30 4 C 2.694 1.4163 3.5712 0
M  V30 5 N -0.528 -0.4069 3.1711 0
M  V30 6 C 1.4177 -0.281 1.7204 0
M  V30 7 C 3.3385 1.0513 2.3959 0
M  V30 8 C 2.7164 0.2059 1.4792 0
M  V30 9 C 0.8124 -1.2521 0.7248 0
M  V30 10 Br 5.0824 1.6916 2.0443 0
M  V30 11 N -0.5124 -0.8717 0.2169 0
M  V30 12 C -0.5404 0.3796 -0.5566 0
M  V30 13 C 0.1899 0.2965 -1.9094 0
M  V30 14 C -2.0129 0.7692 -0.7936 0
M  V30 15 C -0.5023 -0.6318 -2.9043 0
M  V30 16 C -2.7237 -0.1484 -1.7877 0
M  V30 17 C -1.966 -0.2446 -3.1098 0
M  V30 18 O -2.6029 -1.2196 -3.9275 0
M  V30 19 H 3.1879 2.0638 4.2901 0
M  V30 20 H -1.0494 -0.0197 3.9476 0
M  V30 21 H -1.0583 -0.7397 2.3659 0
M  V30 22 H 3.2449 -0.0868 0.5745 0
M  V30 23 H 0.7144 -2.218 1.237 0
M  V30 24 H 1.4981 -1.4392 -0.1089 0
M  V30 25 H -0.8704 -1.6405 -0.3489 0
M  V30 26 H -0.0909 1.1847 0.0367 0
M  V30 27 H 0.2316 1.3044 -2.344 0
M  V30 28 H 1.2322 -0.013 -1.7795 0
M  V30 29 H -2.5628 0.778 0.156 0
M  V30 30 H -2.0481 1.798 -1.1762 0
M  V30 31 H -0.4327 -1.6747 -2.5707 0
M  V30 32 H 0.0222 -0.5998 -3.8671 0
M  V30 33 H -3.739 0.223 -1.9747 0
M  V30 34 H -2.8579 -1.1495 -1.359 0
M  V30 35 H -2.0249 0.719 -3.6302 0
M  V30 36 H -2.1471 -1.2268 -4.7866 0
M  V30 END ATOM
M  V30 BEGIN BOND
M  V30 1 1 1 2
M  V30 2 2 2 3
M  V30 3 1 2 4
M  V30 4 1 3 5
M  V30 5 1 3 6
M  V30 6 2 4 7
M  V30 7 2 6 8
M  V30 8 1 6 9
M  V30 9 1 7 10
M  V30 10 1 9 11
M  V30 11 1 11 12
M  V30 12 1 12 13
M  V30 13 1 12 14
M  V30 14 1 13 15
M  V30 15 1 14 16
M  V30 16 1 15 17
M  V30 17 1 17 18
M  V30 18 1 7 8
M  V30 19 1 16 17
M  V30 20 1 4 19
M  V30 21 1 5 20
M  V30 22 1 5 21
M  V30 23 1 8 22
M  V30 24 1 9 23
M  V30 25 1 9 24
M  V30 26 1 11 25
M  V30 27 1 12 26
M  V30 28 1 13 27
M  V30 29 1 13 28
M  V30 30 1 14 29
M  V30 31 1 14 30
M  V30 32 1 15 31
M  V30 33 1 15 32
M  V30 34 1 16 33
M  V30 35 1 16 34
M  V30 36 1 17 35
M  V30 37 1 18 36
M  V30 END BOND
M  V30 END CTAB
M  END
>  <Column 1>
3206

>  <level_0>
5363

>  <index>
5364

>  <Unnamed: 0>
5364

>  <NO.>
5376

>  <Name>
ambroxol

>  <IUPAC_name>
4-[(2-amino-3-5-dibromophenyl)methylamino]cyclohexan-1-ol

>  <SMILES>
Nc1c(Br)cc(Br)cc1CNC1CCC(O)CC1

>  <CID>
2132

>  <logBB>


>  <BBB+/BBB->
BBB-

>  <Inchi>
InChI=1S/C13H18Br2N2O/c14-9-5-8(13(16)12(15)6-9)7-17-10-1-3-11(18)4-2-10/h5-6-10-11-17-18H-1-4-7-16H2

>  <threshold>


>  <reference>
R14|

>  <group>
C

>  <Class>
-1

>  <ABC>
13.79

>  <ABCGG>
11.49

>  <nAcid>
0

>  <nBase>
1

>  <nAromAtom>
6

>  <nAromBond>
6

>  <nAtom>
36

>  <nHeavyAtom>
18

>  <nSpiro>
0

>  <nBridgehead>
0

>  <nHetero>
5

>  <nN>
2

>  <nO>
1

>  <nF>
0

>  <BalabanJ>
1.75

>  <BertzCT>
417.7

>  <nBonds>
37

>  <nBondsO>
19

>  <nBondsS>
31

>  <nBondsD>
0

>  <nBondsT>
0

>  <nBondsA>
6

>  <nBondsM>
6

>  <nBondsKS>
34

>  <nBondsKD>
3

>  <RNCG>
0.28

>  <RPCG>
0.15

>  <FCSP3>
0.54

>  <SZ>
31.33

>  <Sm>
31.48

>  <Sv>
22.68

>  <Sse>
35.99

>  <Sp>
25.64

>  <Si>
40.63

>  <MZ>
0.87

>  <Mm>
0.87

>  <Mv>
0.63

>  <Mse>
1

>  <Mp>
0.71

>  <Mi>
1.13

>  <NsCH3>
0

>  <NdCH2>
0

>  <NssCH2>
5

>  <NtCH>
0

>  <NdsCH>
0

>  <NaaCH>
2

>  <NsssCH>
2

>  <NddC>
0

>  <NtsC>
0

>  <NdssC>
0

>  <NaasC>
4

>  <NaaaC>
0

>  <NssssC>
0

>  <NsNH3>
0

>  <NsNH2>
1

>  <NssNH2>
0

>  <NdNH>
0

>  <NssNH>
1

>  <NaaNH>
0

>  <NtN>
0

>  <NsssNH>
0

>  <NdsN>
0

>  <NaaN>
0

>  <NsssN>
0

>  <NddsN>
0

>  <NaasN>
0

>  <NssssN>
0

>  <NsOH>
1

>  <NdO>
0

>  <NssO>
0

>  <NaaO>
0

>  <NsF>
0

>  <NsSiH3>
0

>  <NssSiH2>
0

>  <NsssSiH>
0

>  <NssssSi>
0

>  <NsPH2>
0

>  <NssPH>
0

>  <NsssP>
0

>  <NdsssP>
0

>  <NsssssP>
0

>  <NsSH>
0

>  <NdS>
0

>  <NssS>
0

>  <NaaS>
0

>  <NdssS>
0

>  <NddssS>
0

>  <NsCl>
0

>  <NsBr>
2

>  <NsI>
0

>  <fragCpx>
55.05

>  <fMF>
0.39

>  <nHBAcc>
3

>  <nHBDon>
3

>  <Kier1>
14.41

>  <Kier2>
6.44

>  <Lipinski>
1

>  <GhoseFilter>
1

>  <FilterItLogS>
-4.47

>  <VMcGowan>
220.24

>  <LabuteASA>
124.4

>  <PEOE_VSA1>
16.16

>  <PEOE_VSA2>
0

>  <PEOE_VSA3>
0

>  <PEOE_VSA4>
0

>  <PEOE_VSA5>
0

>  <PEOE_VSA6>
15.93

>  <PEOE_VSA7>
59.31

>  <PEOE_VSA8>
21.53

>  <PEOE_VSA9>
11.79

>  <PEOE_VSA10>
0

>  <PEOE_VSA11>
0

>  <PEOE_VSA12>
0

>  <PEOE_VSA13>
0

>  <SMR_VSA1>
5.11

>  <SMR_VSA2>
0

>  <SMR_VSA3>
5.32

>  <SMR_VSA4>
0

>  <SMR_VSA5>
44.37

>  <SMR_VSA6>
5.73

>  <SMR_VSA7>
26.64

>  <SMR_VSA8>
0

>  <SMR_VSA9>
0

>  <SlogP_VSA1>
11.05

>  <SlogP_VSA2>
17.25

>  <SlogP_VSA3>
6.54

>  <SlogP_VSA4>
0

>  <SlogP_VSA5>
31.25

>  <SlogP_VSA6>
21.08

>  <SlogP_VSA7>
0

>  <SlogP_VSA8>
0

>  <SlogP_VSA9>
0

>  <SlogP_VSA10>
5.69

>  <SlogP_VSA11>
0

>  <EState_VSA1>
0

>  <EState_VSA2>
6.1

>  <EState_VSA3>
6.04

>  <EState_VSA4>
52.42

>  <EState_VSA5>
0

>  <EState_VSA6>
0

>  <EState_VSA7>
12.13

>  <EState_VSA8>
37.18

>  <EState_VSA9>
5.73

>  <EState_VSA10>
5.11

>  <VSA_EState1>
1.95

>  <VSA_EState2>
0

>  <VSA_EState3>
12.99

>  <VSA_EState4>
7.93

>  <VSA_EState5>
0

>  <VSA_EState6>
4.49

>  <VSA_EState7>
3.77

>  <VSA_EState8>
0.77

>  <VSA_EState9>
0

>  <apol>
42.81

>  <bpol>
20.82

>  <nRing>
2

>  <nHRing>
0

>  <naRing>
1

>  <naHRing>
0

>  <nARing 2>
1

>  <nAHRing 2>
0

>  <nFRing>
0

>  <nFHRing>
0

>  <nFaRing>
0

>  <nFaHRing>
0

>  <nFARing 2>
0

>  <nFAHRing 2>
0

>  <nRot>
3

>  <SLogP>
3.19

>  <SMR>
81.36

>  <TopoPSA(NO)>
58.28

>  <TopoPSA>
58.28

>  <JGI1>
0.24

>  <JGI2>
0.09

>  <JGI3>
0.05

>  <JGI4>
0.06

>  <JGI5>
0.02

>  <Diameter>
10

>  <Radius>
5

>  <TMWC10>
107.66

>  <TSRW10>
50.74

>  <MW>
375.98

>  <AMW>
10.44

>  <WPath>
660

>  <WPol>
25

>  <Zagreb1>
90

>  <Zagreb2>
102

>  <mZagreb2>
3.97

>  <yes>


>  <nAR-cont>
0.816016

>  <nHA-cont>
0.991161285

>  <MWHBN>
0.309434604

>  <MWHBN-cont>
0.811665628

>  <TPSA-cont>
0.59316941

>  <pka_cont>
0.97

>  <yes.1>


>  <BBB_SCORE>
4.696014548

>  <MMFF94 Energy>
28.436

$$$$
Compound 2574
Actelion Java MolfileCreator 2.0

  0  0  0  0  0  0              0 V3000
M  V30 BEGIN CTAB
M  V30 COUNTS 32 33 0 0 0
M  V30 BEGIN ATOM
M  V30 1 Br 0.4852 -4.6167 3.8867 0
M  V30 2 C -0.1732 -3.0695 3.0236 0
M  V30 3 C 0.0226 -2.9057 1.6531 0
M  V30 4 C -0.8535 -2.1024 3.761 0
M  V30 5 C -0.4628 -1.7616 1.0117 0
M  V30 6 C -1.3382 -0.9587 3.1209 0
M  V30 7 C -1.139 -0.7768 1.7447 0
M  V30 8 C -1.6826 0.459 1.1107 0
M  V30 9 O -2.5 1.1547 1.7078 0
M  V30 10 C -1.2783 0.8576 -0.254 0
M  V30 11 C 0.0526 1.2076 -0.5701 0
M  V30 12 C -2.2931 0.8733 -1.2199 0
M  V30 13 N 1.0579 1.2007 0.3942 0
M  V30 14 C 0.3569 1.478 -1.9224 0
M  V30 15 C -1.9851 1.1776 -2.5393 0
M  V30 16 C -0.6678 1.4643 -2.89 0
M  V30 17 C 1.7635 1.7982 -2.3738 0
M  V30 18 C 2.6926 0.6187 -2.255 0
M  V30 19 O 2.6439 -0.42 -2.8933 0
M  V30 20 O 3.6498 0.8017 -1.3194 0
M  V30 21 H 0.548 -3.661 1.0737 0
M  V30 22 H -1.0155 -2.2276 4.8286 0
M  V30 23 H -0.3039 -1.6615 -0.0591 0
M  V30 24 H -1.875 -0.2088 3.7 0
M  V30 25 H -3.318 0.6379 -0.9411 0
M  V30 26 H 2.0 1.5045 0.1769 0
M  V30 27 H 0.8074 1.219 1.3766 0
M  V30 28 H -2.766 1.182 -3.2957 0
M  V30 29 H -0.4416 1.681 -3.933 0
M  V30 30 H 1.7865 2.1245 -3.4207 0
M  V30 31 H 2.1504 2.6479 -1.798 0
M  V30 32 H 4.1581 -0.0375 -1.346 0
M  V30 END ATOM
M  V30 BEGIN BOND
M  V30 1 1 1 2
M  V30 2 2 2 3
M  V30 3 1 2 4
M  V30 4 1 3 5
M  V30 5 2 4 6
M  V30 6 2 5 7
M  V30 7 1 7 8
M  V30 8 2 8 9
M  V30 9 1 8 10
M  V30 10 2 10 11
M  V30 11 1 10 12
M  V30 12 1 11 13
M  V30 13 1 11 14
M  V30 14 2 12 15
M  V30 15 2 14 16
M  V30 16 1 14 17
M  V30 17 1 17 18
M  V30 18 2 18 19
M  V30 19 1 18 20
M  V30 20 1 6 7
M  V30 21 1 15 16
M  V30 22 1 3 21
M  V30 23 1 4 22
M  V30 24 1 5 23
M  V30 25 1 6 24
M  V30 26 1 12 25
M  V30 27 1 13 26
M  V30 28 1 13 27
M  V30 29 1 15 28
M  V30 30 1 16 29
M  V30 31 1 17 30
M  V30 32 1 17 31
M  V30 33 1 20 32
M  V30 END BOND
M  V30 END CTAB
M  END
>  <Column 1>
3207

>  <level_0>
5364

>  <index>
5365

>  <Unnamed: 0>
5365

>  <NO.>
5377

>  <Name>
bromfenac

>  <IUPAC_name>
2-[2-amino-3-(4-bromobenzoyl)phenyl]acetic acid

>  <SMILES>
Nc1c(CC(=O)O)cccc1C(=O)c1ccc(Br)cc1

>  <CID>
60726

>  <logBB>


>  <BBB+/BBB->
BBB-

>  <Inchi>
InChI=1S/C15H12BrNO3/c16-11-6-4-9(5-7-11)15(20)12-3-1-2-10(14(12)17)8-13(18)19/h1-7H-8-17H2-(H-18-19)

>  <threshold>


>  <reference>
R14|

>  <group>
C

>  <Class>
-1

>  <ABC>
15.23

>  <ABCGG>
12.99

>  <nAcid>
1

>  <nBase>
0

>  <nAromAtom>
12

>  <nAromBond>
12

>  <nAtom>
32

>  <nHeavyAtom>
20

>  <nSpiro>
0

>  <nBridgehead>
0

>  <nHetero>
5

>  <nN>
1

>  <nO>
3

>  <nF>
0

>  <BalabanJ>
1.92

>  <BertzCT>
665.32

>  <nBonds>
33

>  <nBondsO>
21

>  <nBondsS>
19

>  <nBondsD>
2

>  <nBondsT>
0

>  <nBondsA>
12

>  <nBondsM>
14

>  <nBondsKS>
25

>  <nBondsKD>
8

>  <RNCG>
0.26

>  <RPCG>
0.17

>  <FCSP3>
0.07

>  <SZ>
28

>  <Sm>
27.82

>  <Sv>
22.44

>  <Sse>
32.65

>  <Sp>
23.72

>  <Si>
35.46

>  <MZ>
0.88

>  <Mm>
0.87

>  <Mv>
0.7

>  <Mse>
1.02

>  <Mp>
0.74

>  <Mi>
1.11

>  <NsCH3>
0

>  <NdCH2>
0

>  <NssCH2>
1

>  <NtCH>
0

>  <NdsCH>
0

>  <NaaCH>
7

>  <NsssCH>
0

>  <NddC>
0

>  <NtsC>
0

>  <NdssC>
2

>  <NaasC>
5

>  <NaaaC>
0

>  <NssssC>
0

>  <NsNH3>
0

>  <NsNH2>
1

>  <NssNH2>
0

>  <NdNH>
0

>  <NssNH>
0

>  <NaaNH>
0

>  <NtN>
0

>  <NsssNH>
0

>  <NdsN>
0

>  <NaaN>
0

>  <NsssN>
0

>  <NddsN>
0

>  <NaasN>
0

>  <NssssN>
0

>  <NsOH>
1

>  <NdO>
2

>  <NssO>
0

>  <NaaO>
0

>  <NsF>
0

>  <NsSiH3>
0

>  <NssSiH2>
0

>  <NsssSiH>
0

>  <NssssSi>
0

>  <NsPH2>
0

>  <NssPH>
0

>  <NsssP>
0

>  <NdsssP>
0

>  <NsssssP>
0

>  <NsSH>
0

>  <NdS>
0

>  <NssS>
0

>  <NaaS>
0

>  <NdssS>
0

>  <NddssS>
0

>  <NsCl>
0

>  <NsBr>
1

>  <NsI>
0

>  <fragCpx>
61.05

>  <fMF>
0.41

>  <nHBAcc>
3

>  <nHBDon>
2

>  <Kier1>
16.37

>  <Kier2>
7.32

>  <Lipinski>
1

>  <GhoseFilter>
1

>  <FilterItLogS>
-4.05

>  <VMcGowan>
211.18

>  <LabuteASA>
123.91

>  <PEOE_VSA1>
10.84

>  <PEOE_VSA2>
9.59

>  <PEOE_VSA3>
0

>  <PEOE_VSA4>
0

>  <PEOE_VSA5>
0

>  <PEOE_VSA6>
28.06

>  <PEOE_VSA7>
35.9

>  <PEOE_VSA8>
21.29

>  <PEOE_VSA9>
6.42

>  <PEOE_VSA10>
0

>  <PEOE_VSA11>
5.78

>  <PEOE_VSA12>
0

>  <PEOE_VSA13>
0

>  <SMR_VSA1>
14.7

>  <SMR_VSA2>
0

>  <SMR_VSA3>
0

>  <SMR_VSA4>
0

>  <SMR_VSA5>
6.42

>  <SMR_VSA6>
5.73

>  <SMR_VSA7>
63.63

>  <SMR_VSA8>
0

>  <SMR_VSA9>
0

>  <SlogP_VSA1>
5.73

>  <SlogP_VSA2>
16.86

>  <SlogP_VSA3>
11.22

>  <SlogP_VSA4>
0

>  <SlogP_VSA5>
21.48

>  <SlogP_VSA6>
46.94

>  <SlogP_VSA7>
0

>  <SlogP_VSA8>
0

>  <SlogP_VSA9>
0

>  <SlogP_VSA10>
5.69

>  <SlogP_VSA11>
0

>  <EState_VSA1>
5.97

>  <EState_VSA2>
17.89

>  <EState_VSA3>
16.69

>  <EState_VSA4>
4.47

>  <EState_VSA5>
0

>  <EState_VSA6>
42.46

>  <EState_VSA7>
0

>  <EState_VSA8>
15.93

>  <EState_VSA9>
10.84

>  <EState_VSA10>
9.59

>  <VSA_EState1>
0.88

>  <VSA_EState2>
23.14

>  <VSA_EState3>
8.82

>  <VSA_EState4>
7.41

>  <VSA_EState5>
-1.2

>  <VSA_EState6>
11.77

>  <VSA_EState7>
-0.2

>  <VSA_EState8>
0

>  <VSA_EState9>
0

>  <apol>
39.61

>  <bpol>
14.58

>  <nRing>
2

>  <nHRing>
0

>  <naRing>
2

>  <naHRing>
0

>  <nARing 2>
0

>  <nAHRing 2>
0

>  <nFRing>
0

>  <nFHRing>
0

>  <nFaRing>
0

>  <nFaHRing>
0

>  <nFARing 2>
0

>  <nFAHRing 2>
0

>  <nRot>
4

>  <SLogP>
2.89

>  <SMR>
79.77

>  <TopoPSA(NO)>
80.39

>  <TopoPSA>
80.39

>  <JGI1>
0.21

>  <JGI2>
0.09

>  <JGI3>
0.06

>  <JGI4>
0.05

>  <JGI5>
0.03

>  <Diameter>
11

>  <Radius>
6

>  <TMWC10>
113.32

>  <TSRW10>
53.37

>  <MW>
333

>  <AMW>
10.41

>  <WPath>
830

>  <WPol>
30

>  <Zagreb1>
100

>  <Zagreb2>
115

>  <mZagreb2>
4.44

>  <yes>


>  <nAR-cont>
0.336376

>  <nHA-cont>
0.999629945

>  <MWHBN>
0.273998312

>  <MWHBN-cont>
0.910818065

>  <TPSA-cont>
0.438827881

>  <pka_cont>
0.97

>  <yes.1>


>  <BBB_SCORE>
4.064888804

>  <MMFF94 Energy>
75.897

$$$$
Compound 2575
Actelion Java MolfileCreator 2.0

  0  0  0  0  0  0              0 V3000
M  V30 BEGIN CTAB
M  V30 COUNTS 28 29 0 0 0
M  V30 BEGIN ATOM
M  V30 1 O 1.3452 -1.0286 0.5537 0
M  V30 2 C 0.4214 -0.32 0.1726 0
M  V30 3 O 0.4694 1.0137 -0.1759 0
M  V30 4 C -0.96 -0.8493 0.0289 0
M  V30 5 C 1.7473 1.5612 -0.0582 0
M  V30 6 C -1.2179 -2.1928 0.3344 0
M  V30 7 C -2.022 -0.0423 -0.4023 0
M  V30 8 C 2.5934 1.558 -1.1654 0
M  V30 9 C 2.1199 2.1693 1.139 0
M  V30 10 O -0.2562 -3.0692 0.768 0
M  V30 11 C -2.5065 -2.7175 0.2088 0
M  V30 12 C -3.3106 -0.5766 -0.5255 0
M  V30 13 C 3.8515 2.1491 -1.0596 0
M  V30 14 C 3.3795 2.7585 1.2376 0
M  V30 15 C -3.5628 -1.9174 -0.2295 0
M  V30 16 C 4.2445 2.7464 0.1406 0
M  V30 17 N -4.8405 -2.432 -0.3348 0
M  V30 18 H -1.8738 1.0064 -0.647 0
M  V30 19 H 2.2821 1.0973 -2.0974 0
M  V30 20 H 1.4427 2.1809 1.9872 0
M  V30 21 H 0.6043 -2.5968 0.8208 0
M  V30 22 H -2.6753 -3.7617 0.4578 0
M  V30 23 H -4.1201 0.0692 -0.8571 0
M  V30 24 H 4.5272 2.1453 -1.9108 0
M  V30 25 H 3.689 3.2274 2.168 0
M  V30 26 H 5.2272 3.2047 0.221 0
M  V30 27 H -5.0137 -3.4116 -0.1522 0
M  V30 28 H -5.601 -1.869 -0.6891 0
M  V30 END ATOM
M  V30 BEGIN BOND
M  V30 1 2 1 2
M  V30 2 1 2 3
M  V30 3 1 2 4
M  V30 4 1 3 5
M  V30 5 2 4 6
M  V30 6 1 4 7
M  V30 7 2 5 8
M  V30 8 1 5 9
M  V30 9 1 6 10
M  V30 10 1 6 11
M  V30 11 2 7 12
M  V30 12 1 8 13
M  V30 13 2 9 14
M  V30 14 2 11 15
M  V30 15 2 13 16
M  V30 16 1 15 17
M  V30 17 1 12 15
M  V30 18 1 14 16
M  V30 19 1 7 18
M  V30 20 1 8 19
M  V30 21 1 9 20
M  V30 22 1 10 21
M  V30 23 1 11 22
M  V30 24 1 12 23
M  V30 25 1 13 24
M  V30 26 1 14 25
M  V30 27 1 16 26
M  V30 28 1 17 27
M  V30 29 1 17 28
M  V30 END BOND
M  V30 END CTAB
M  END
>  <Column 1>
3208

>  <level_0>
5365

>  <index>
5366

>  <Unnamed: 0>
5366

>  <NO.>
5378

>  <Name>
phenyl 4-aminosalicylate

>  <IUPAC_name>
phenyl 4-amino-2-hydroxybenzoate

>  <SMILES>
Nc1ccc(C(=O)Oc2ccccc2)c(O)c1

>  <CID>
8609

>  <logBB>


>  <BBB+/BBB->
BBB-

>  <Inchi>
InChI=1S/C13H11NO3/c14-9-6-7-11(12(15)8-9)13(16)17-10-4-2-1-3-5-10/h1-8-15H-14H2

>  <threshold>


>  <reference>
R14|

>  <group>
C

>  <Class>
-1

>  <ABC>
12.98

>  <ABCGG>
11.03

>  <nAcid>
0

>  <nBase>
0

>  <nAromAtom>
12

>  <nAromBond>
12

>  <nAtom>
28

>  <nHeavyAtom>
17

>  <nSpiro>
0

>  <nBridgehead>
0

>  <nHetero>
4

>  <nN>
1

>  <nO>
3

>  <nF>
0

>  <BalabanJ>
1.8

>  <BertzCT>
537.62

>  <nBonds>
29

>  <nBondsO>
18

>  <nBondsS>
16

>  <nBondsD>
1

>  <nBondsT>
0

>  <nBondsA>
12

>  <nBondsM>
13

>  <nBondsKS>
22

>  <nBondsKD>
7

>  <RNCG>
0.27

>  <RPCG>
0.19

>  <FCSP3>
0

>  <SZ>
20

>  <Sm>
19.09

>  <Sv>
18.88

>  <Sse>
28.54

>  <Sp>
19.49

>  <Si>
31.2

>  <MZ>
0.71

>  <Mm>
0.68

>  <Mv>
0.67

>  <Mse>
1.02

>  <Mp>
0.7

>  <Mi>
1.11

>  <NsCH3>
0

>  <NdCH2>
0

>  <NssCH2>
0

>  <NtCH>
0

>  <NdsCH>
0

>  <NaaCH>
8

>  <NsssCH>
0

>  <NddC>
0

>  <NtsC>
0

>  <NdssC>
1

>  <NaasC>
4

>  <NaaaC>
0

>  <NssssC>
0

>  <NsNH3>
0

>  <NsNH2>
1

>  <NssNH2>
0

>  <NdNH>
0

>  <NssNH>
0

>  <NaaNH>
0

>  <NtN>
0

>  <NsssNH>
0

>  <NdsN>
0

>  <NaaN>
0

>  <NsssN>
0

>  <NddsN>
0

>  <NaasN>
0

>  <NssssN>
0

>  <NsOH>
1

>  <NdO>
1

>  <NssO>
1

>  <NaaO>
0

>  <NsF>
0

>  <NsSiH3>
0

>  <NssSiH2>
0

>  <NsssSiH>
0

>  <NssssSi>
0

>  <NsPH2>
0

>  <NssPH>
0

>  <NsssP>
0

>  <NdsssP>
0

>  <NsssssP>
0

>  <NsSH>
0

>  <NdS>
0

>  <NssS>
0

>  <NaaS>
0

>  <NdssS>
0

>  <NddssS>
0

>  <NsCl>
0

>  <NsBr>
0

>  <NsI>
0

>  <fragCpx>
52.04

>  <fMF>
0.5

>  <nHBAcc>
4

>  <nHBDon>
2

>  <Kier1>
13.43

>  <Kier2>
6.25

>  <Lipinski>
1

>  <GhoseFilter>
1

>  <FilterItLogS>
-2.47

>  <VMcGowan>
169.8

>  <LabuteASA>
98.26

>  <PEOE_VSA1>
15.58

>  <PEOE_VSA2>
0

>  <PEOE_VSA3>
4.79

>  <PEOE_VSA4>
0

>  <PEOE_VSA5>
0

>  <PEOE_VSA6>
18.2

>  <PEOE_VSA7>
24.27

>  <PEOE_VSA8>
11.75

>  <PEOE_VSA9>
0

>  <PEOE_VSA10>
17.06

>  <PEOE_VSA11>
0

>  <PEOE_VSA12>
0

>  <PEOE_VSA13>
0

>  <SMR_VSA1>
14.64

>  <SMR_VSA2>
0

>  <SMR_VSA3>
0

>  <SMR_VSA4>
0

>  <SMR_VSA5>
0

>  <SMR_VSA6>
5.73

>  <SMR_VSA7>
54.09

>  <SMR_VSA8>
0

>  <SMR_VSA9>
11.5

>  <SlogP_VSA1>
10.47

>  <SlogP_VSA2>
11.08

>  <SlogP_VSA3>
0

>  <SlogP_VSA4>
0

>  <SlogP_VSA5>
10.36

>  <SlogP_VSA6>
48.53

>  <SlogP_VSA7>
0

>  <SlogP_VSA8>
0

>  <SlogP_VSA9>
0

>  <SlogP_VSA10>
5.69

>  <SlogP_VSA11>
11.5

>  <EState_VSA1>
5.97

>  <EState_VSA2>
11.31

>  <EState_VSA3>
11.44

>  <EState_VSA4>
0

>  <EState_VSA5>
18.2

>  <EState_VSA6>
24.27

>  <EState_VSA7>
6.07

>  <EState_VSA8>
0

>  <EState_VSA9>
10.47

>  <EState_VSA10>
9.9

>  <VSA_EState1>
5.08

>  <VSA_EState2>
11.72

>  <VSA_EState3>
9.56

>  <VSA_EState4>
5.94

>  <VSA_EState5>
-0.38

>  <VSA_EState6>
12.91

>  <VSA_EState7>
0

>  <VSA_EState8>
0

>  <VSA_EState9>
0

>  <apol>
32.55

>  <bpol>
13.07

>  <nRing>
2

>  <nHRing>
0

>  <naRing>
2

>  <naHRing>
0

>  <nARing 2>
0

>  <nAHRing 2>
0

>  <nFRing>
0

>  <nFHRing>
0

>  <nFaRing>
0

>  <nFaHRing>
0

>  <nFARing 2>
0

>  <nFAHRing 2>
0

>  <nRot>
2

>  <SLogP>
2.19

>  <SMR>
63.92

>  <TopoPSA(NO)>
72.55

>  <TopoPSA>
72.55

>  <JGI1>
0.19

>  <JGI2>
0.07

>  <JGI3>
0.05

>  <JGI4>
0.04

>  <JGI5>
0.03

>  <Diameter>
10

>  <Radius>
5

>  <TMWC10>
104.98

>  <TSRW10>
49.34

>  <MW>
229.07

>  <AMW>
8.18

>  <WPath>
546

>  <WPol>
23

>  <Zagreb1>
84

>  <Zagreb2>
95

>  <mZagreb2>
3.81

>  <yes>


>  <nAR-cont>
0.336376

>  <nHA-cont>
0.976740822

>  <MWHBN>
0.396430575

>  <MWHBN-cont>
0.490118097

>  <TPSA-cont>
0.493555949

>  <pka_cont>
0.97

>  <yes.1>


>  <BBB_SCORE>
3.520405865

>  <MMFF94 Energy>
51.774

$$$$
Compound 2576
Actelion Java MolfileCreator 2.0

  0  0  0  0  0  0              0 V3000
M  V30 BEGIN CTAB
M  V30 COUNTS 28 29 0 0 0
M  V30 BEGIN ATOM
M  V30 1 S -0.4042 -0.4851 -2.4273 0
M  V30 2 O 0.4117 -1.0208 -3.4972 0
M  V30 3 O -1.5084 0.4075 -2.7141 0
M  V30 4 N -0.9722 -1.8027 -1.5496 0
M  V30 5 C 0.691 0.3389 -1.293 0
M  V30 6 C -1.5702 -1.5254 -0.3075 0
M  V30 7 C 0.2682 1.4888 -0.6236 0
M  V30 8 C 1.9847 -0.1526 -1.1097 0
M  V30 9 N -0.8436 -2.0038 0.7167 0
M  V30 10 C -2.7606 -0.8327 -0.1732 0
M  V30 11 C 1.1443 2.134 0.2533 0
M  V30 12 C 2.8499 0.5032 -0.2298 0
M  V30 13 C -1.3269 -1.7592 1.9545 0
M  V30 14 C -3.2336 -0.5997 1.1139 0
M  V30 15 C 2.4441 1.6571 0.4479 0
M  V30 16 C -2.5034 -1.0679 2.2016 0
M  V30 17 N 3.2925 2.2787 1.3454 0
M  V30 18 H -0.2527 -2.5151 -1.4501 0
M  V30 19 H -0.7333 1.8856 -0.7703 0
M  V30 20 H 2.3264 -1.0378 -1.6401 0
M  V30 21 H -3.3119 -0.4851 -1.0398 0
M  V30 22 H 0.8032 3.0203 0.7823 0
M  V30 23 H 3.8511 0.1069 -0.0811 0
M  V30 24 H -0.7241 -2.145 2.7722 0
M  V30 25 H -4.1635 -0.0587 1.2659 0
M  V30 26 H -2.8443 -0.9014 3.2178 0
M  V30 27 H 4.2546 1.9798 1.4277 0
M  V30 28 H 3.0292 3.1562 1.7725 0
M  V30 END ATOM
M  V30 BEGIN BOND
M  V30 1 2 1 2
M  V30 2 2 1 3
M  V30 3 1 1 4
M  V30 4 1 1 5
M  V30 5 1 4 6
M  V30 6 2 5 7
M  V30 7 1 5 8
M  V30 8 2 6 9
M  V30 9 1 6 10
M  V30 10 1 7 11
M  V30 11 2 8 12
M  V30 12 1 9 13
M  V30 13 2 10 14
M  V30 14 2 11 15
M  V30 15 2 13 16
M  V30 16 1 15 17
M  V30 17 1 12 15
M  V30 18 1 14 16
M  V30 19 1 4 18
M  V30 20 1 7 19
M  V30 21 1 8 20
M  V30 22 1 10 21
M  V30 23 1 11 22
M  V30 24 1 12 23
M  V30 25 1 13 24
M  V30 26 1 14 25
M  V30 27 1 16 26
M  V30 28 1 17 27
M  V30 29 1 17 28
M  V30 END BOND
M  V30 END CTAB
M  END
>  <Column 1>
3209

>  <level_0>
5366

>  <index>
5367

>  <Unnamed: 0>
5367

>  <NO.>
5379

>  <Name>
sulfapyridine

>  <IUPAC_name>
4-amino-n-pyridin-2-ylbenzenesulfonamide

>  <SMILES>
Nc1ccc(S(=O)(=O)Nc2ccccn2)cc1

>  <CID>
5336

>  <logBB>


>  <BBB+/BBB->
BBB-

>  <Inchi>
InChI=1S/C11H11N3O2S/c12-9-4-6-10(7-5-9)17(15-16)14-11-3-1-2-8-13-11/h1-8H-12H2-(H-13-14)

>  <threshold>


>  <reference>
R14|

>  <group>
C

>  <Class>
-1

>  <ABC>
13.09

>  <ABCGG>
11.12

>  <nAcid>
0

>  <nBase>
0

>  <nAromAtom>
12

>  <nAromBond>
12

>  <nAtom>
28

>  <nHeavyAtom>
17

>  <nSpiro>
0

>  <nBridgehead>
0

>  <nHetero>
6

>  <nN>
3

>  <nO>
2

>  <nF>
0

>  <BalabanJ>
1.84

>  <BertzCT>
594.37

>  <nBonds>
29

>  <nBondsO>
18

>  <nBondsS>
15

>  <nBondsD>
2

>  <nBondsT>
0

>  <nBondsA>
12

>  <nBondsM>
14

>  <nBondsKS>
21

>  <nBondsKD>
8

>  <RNCG>
0.25

>  <RPCG>
0.17

>  <FCSP3>
0

>  <SZ>
21.67

>  <Sm>
20.75

>  <Sv>
18.87

>  <Sse>
28.61

>  <Sp>
20.07

>  <Si>
31.5

>  <MZ>
0.77

>  <Mm>
0.74

>  <Mv>
0.67

>  <Mse>
1.02

>  <Mp>
0.72

>  <Mi>
1.12

>  <NsCH3>
0

>  <NdCH2>
0

>  <NssCH2>
0

>  <NtCH>
0

>  <NdsCH>
0

>  <NaaCH>
8

>  <NsssCH>
0

>  <NddC>
0

>  <NtsC>
0

>  <NdssC>
0

>  <NaasC>
3

>  <NaaaC>
0

>  <NssssC>
0

>  <NsNH3>
0

>  <NsNH2>
1

>  <NssNH2>
0

>  <NdNH>
0

>  <NssNH>
1

>  <NaaNH>
0

>  <NtN>
0

>  <NsssNH>
0

>  <NdsN>
0

>  <NaaN>
1

>  <NsssN>
0

>  <NddsN>
0

>  <NaasN>
0

>  <NssssN>
0

>  <NsOH>
0

>  <NdO>
2

>  <NssO>
0

>  <NaaO>
0

>  <NsF>
0

>  <NsSiH3>
0

>  <NssSiH2>
0

>  <NsssSiH>
0

>  <NssssSi>
0

>  <NsPH2>
0

>  <NssPH>
0

>  <NsssP>
0

>  <NdsssP>
0

>  <NsssssP>
0

>  <NsSH>
0

>  <NdS>
0

>  <NssS>
0

>  <NaaS>
0

>  <NdssS>
0

>  <NddssS>
1

>  <NsCl>
0

>  <NsBr>
0

>  <NsI>
0

>  <fragCpx>
52.06

>  <fMF>
0.5

>  <nHBAcc>
4

>  <nHBDon>
2

>  <Kier1>
13.43

>  <Kier2>
5.76

>  <Lipinski>
1

>  <GhoseFilter>
1

>  <FilterItLogS>
-2.95

>  <VMcGowan>
176.36

>  <LabuteASA>
99.36

>  <PEOE_VSA1>
5.73

>  <PEOE_VSA2>
4.72

>  <PEOE_VSA3>
13.4

>  <PEOE_VSA4>
0

>  <PEOE_VSA5>
0

>  <PEOE_VSA6>
6.07

>  <PEOE_VSA7>
36.4

>  <PEOE_VSA8>
11.88

>  <PEOE_VSA9>
4.9

>  <PEOE_VSA10>
5.82

>  <PEOE_VSA11>
0

>  <PEOE_VSA12>
0

>  <PEOE_VSA13>
10.02

>  <SMR_VSA1>
8.42

>  <SMR_VSA2>
0

>  <SMR_VSA3>
4.98

>  <SMR_VSA4>
0

>  <SMR_VSA5>
4.9

>  <SMR_VSA6>
10.46

>  <SMR_VSA7>
48.66

>  <SMR_VSA8>
0

>  <SMR_VSA9>
0

>  <SlogP_VSA1>
10.46

>  <SlogP_VSA2>
13.4

>  <SlogP_VSA3>
10.02

>  <SlogP_VSA4>
0

>  <SlogP_VSA5>
0

>  <SlogP_VSA6>
53.56

>  <SlogP_VSA7>
0

>  <SlogP_VSA8>
0

>  <SlogP_VSA9>
0

>  <SlogP_VSA10>
11.51

>  <SlogP_VSA11>
0

>  <EState_VSA1>
10.02

>  <EState_VSA2>
10.71

>  <EState_VSA3>
5.69

>  <EState_VSA4>
0

>  <EState_VSA5>
30.46

>  <EState_VSA6>
18.2

>  <EState_VSA7>
0

>  <EState_VSA8>
9.71

>  <EState_VSA9>
5.73

>  <EState_VSA10>
8.42

>  <VSA_EState1>
26.22

>  <VSA_EState2>
4.04

>  <VSA_EState3>
0

>  <VSA_EState4>
6.01

>  <VSA_EState5>
0.28

>  <VSA_EState6>
10.95

>  <VSA_EState7>
1.51

>  <VSA_EState8>
0

>  <VSA_EState9>
-3.6

>  <apol>
33.51

>  <bpol>
18.83

>  <nRing>
2

>  <nHRing>
1

>  <naRing>
2

>  <naHRing>
1

>  <nARing 2>
0

>  <nAHRing 2>
0

>  <nFRing>
0

>  <nFHRing>
0

>  <nFaRing>
0

>  <nFaHRing>
0

>  <nFARing 2>
0

>  <nFAHRing 2>
0

>  <nRot>
3

>  <SLogP>
1.46

>  <SMR>
65.9

>  <TopoPSA(NO)>
85.08

>  <TopoPSA>
93.46

>  <JGI1>
0.25

>  <JGI2>
0.09

>  <JGI3>
0.05

>  <JGI4>
0.05

>  <JGI5>
0.03

>  <Diameter>
10

>  <Radius>
5

>  <TMWC10>
105.55

>  <TSRW10>
49.62

>  <MW>
249.06

>  <AMW>
8.89

>  <WPath>
536

>  <WPol>
23

>  <Zagreb1>
86

>  <Zagreb2>
97

>  <mZagreb2>
3.71

>  <yes>


>  <nAR-cont>
0.336376

>  <nHA-cont>
0.976740822

>  <MWHBN>
0.380188747

>  <MWHBN-cont>
0.55406459

>  <TPSA-cont>
0.347591165

>  <pka_cont>
0.97

>  <yes.1>


>  <BBB_SCORE>
3.324396037

>  <MMFF94 Energy>
-67.927

$$$$
Compound 2577
Actelion Java MolfileCreator 2.0

  0  0  0  0  0  0              0 V3000
M  V30 BEGIN CTAB
M  V30 COUNTS 36 38 0 0 0
M  V30 BEGIN ATOM
M  V30 1 S -0.5672 -0.5672 -0.243 0
M  V30 2 O 0.0267 -1.4545 0.732 0
M  V30 3 O -1.9613 -0.1821 -0.1819 0
M  V30 4 N 0.3078 0.9018 -0.3363 0
M  V30 5 C -0.2474 -1.2382 -1.854 0
M  V30 6 C 1.2653 1.0815 0.7762 0
M  V30 7 C -1.2155 -1.155 -2.8552 0
M  V30 8 C 0.9723 -1.8726 -2.0964 0
M  V30 9 N 1.0345 1.2622 2.1327 0
M  V30 10 C 2.6272 1.0402 0.6062 0
M  V30 11 C -0.948 -1.701 -4.1137 0
M  V30 12 C 1.2258 -2.4139 -3.3591 0
M  V30 13 N 2.1989 1.3072 2.8321 0
M  V30 14 C -0.2025 1.412 2.7929 0
M  V30 15 C 3.1476 1.1769 1.9033 0
M  V30 16 C 0.2652 -2.3461 -4.3729 0
M  V30 17 C -0.4452 0.6671 3.9525 0
M  V30 18 C -1.1632 2.3046 2.3055 0
M  V30 19 N 0.5372 -2.8489 -5.6315 0
M  V30 20 C -1.668 0.7969 4.6102 0
M  V30 21 C -2.3837 2.4275 2.9711 0
M  V30 22 C -2.6366 1.6724 4.1177 0
M  V30 23 H -0.3983 1.6399 -0.3821 0
M  V30 24 H -2.1723 -0.6721 -2.6724 0
M  V30 25 H 1.7239 -1.9484 -1.3141 0
M  V30 26 H 3.1679 0.9065 -0.3188 0
M  V30 27 H -1.7016 -1.623 -4.8934 0
M  V30 28 H 2.1817 -2.8969 -3.5442 0
M  V30 29 H 4.1849 1.1827 2.2139 0
M  V30 30 H 0.3051 -0.0193 4.3395 0
M  V30 31 H -0.9748 2.9256 1.4357 0
M  V30 32 H 1.3786 -3.3842 -5.7959 0
M  V30 33 H -0.1843 -2.8708 -6.3391 0
M  V30 34 H -1.8662 0.2136 5.5057 0
M  V30 35 H -3.1396 3.1155 2.6008 0
M  V30 36 H -3.5895 1.7696 4.6321 0
M  V30 END ATOM
M  V30 BEGIN BOND
M  V30 1 2 1 2
M  V30 2 2 1 3
M  V30 3 1 1 4
M  V30 4 1 1 5
M  V30 5 1 4 6
M  V30 6 2 5 7
M  V30 7 1 5 8
M  V30 8 1 6 9
M  V30 9 2 6 10
M  V30 10 1 7 11
M  V30 11 2 8 12
M  V30 12 1 9 13
M  V30 13 1 9 14
M  V30 14 1 10 15
M  V30 15 2 11 16
M  V30 16 2 14 17
M  V30 17 1 14 18
M  V30 18 1 16 19
M  V30 19 1 17 20
M  V30 20 2 18 21
M  V30 21 2 20 22
M  V30 22 1 12 16
M  V30 23 2 13 15
M  V30 24 1 21 22
M  V30 25 1 4 23
M  V30 26 1 7 24
M  V30 27 1 8 25
M  V30 28 1 10 26
M  V30 29 1 11 27
M  V30 30 1 12 28
M  V30 31 1 15 29
M  V30 32 1 17 30
M  V30 33 1 18 31
M  V30 34 1 19 32
M  V30 35 1 19 33
M  V30 36 1 20 34
M  V30 37 1 21 35
M  V30 38 1 22 36
M  V30 END BOND
M  V30 END CTAB
M  END
>  <Column 1>
3210

>  <level_0>
5367

>  <index>
5368

>  <Unnamed: 0>
5368

>  <NO.>
5380

>  <Name>
sulfaphenazole

>  <IUPAC_name>
4-amino-n-(2-phenylpyrazol-3-yl)benzenesulfonamide

>  <SMILES>
Nc1ccc(S(=O)(=O)Nc2ccnn2-c2ccccc2)cc1

>  <CID>
5335

>  <logBB>


>  <BBB+/BBB->
BBB-

>  <Inchi>
InChI=1S/C15H14N4O2S/c16-12-6-8-14(9-7-12)22(20-21)18-15-10-11-17-19(15)13-4-2-1-3-5-13/h1-11-18H-16H2

>  <threshold>


>  <reference>
R14|R23|

>  <group>
C

>  <Class>
-1

>  <ABC>
17.26

>  <ABCGG>
14.61

>  <nAcid>
0

>  <nBase>
0

>  <nAromAtom>
17

>  <nAromBond>
17

>  <nAtom>
36

>  <nHeavyAtom>
22

>  <nSpiro>
0

>  <nBridgehead>
0

>  <nHetero>
7

>  <nN>
4

>  <nO>
2

>  <nF>
0

>  <BalabanJ>
1.58

>  <BertzCT>
871.42

>  <nBonds>
38

>  <nBondsO>
24

>  <nBondsS>
19

>  <nBondsD>
2

>  <nBondsT>
0

>  <nBondsA>
17

>  <nBondsM>
19

>  <nBondsKS>
28

>  <nBondsKD>
10

>  <RNCG>
0.21

>  <RPCG>
0.14

>  <FCSP3>
0

>  <SZ>
27.33

>  <Sm>
26.17

>  <Sv>
24.44

>  <Sse>
36.61

>  <Sp>
25.92

>  <Si>
40.41

>  <MZ>
0.76

>  <Mm>
0.73

>  <Mv>
0.68

>  <Mse>
1.02

>  <Mp>
0.72

>  <Mi>
1.12

>  <NsCH3>
0

>  <NdCH2>
0

>  <NssCH2>
0

>  <NtCH>
0

>  <NdsCH>
0

>  <NaaCH>
11

>  <NsssCH>
0

>  <NddC>
0

>  <NtsC>
0

>  <NdssC>
0

>  <NaasC>
4

>  <NaaaC>
0

>  <NssssC>
0

>  <NsNH3>
0

>  <NsNH2>
1

>  <NssNH2>
0

>  <NdNH>
0

>  <NssNH>
1

>  <NaaNH>
0

>  <NtN>
0

>  <NsssNH>
0

>  <NdsN>
0

>  <NaaN>
1

>  <NsssN>
0

>  <NddsN>
0

>  <NaasN>
1

>  <NssssN>
0

>  <NsOH>
0

>  <NdO>
2

>  <NssO>
0

>  <NaaO>
0

>  <NsF>
0

>  <NsSiH3>
0

>  <NssSiH2>
0

>  <NsssSiH>
0

>  <NssssSi>
0

>  <NsPH2>
0

>  <NssPH>
0

>  <NsssP>
0

>  <NdsssP>
0

>  <NsssssP>
0

>  <NsSH>
0

>  <NdS>
0

>  <NssS>
0

>  <NaaS>
0

>  <NdssS>
0

>  <NddssS>
1

>  <NsCl>
0

>  <NsBr>
0

>  <NsI>
0

>  <fragCpx>
114.07

>  <fMF>
0.53

>  <nHBAcc>
5

>  <nHBDon>
2

>  <Kier1>
16.84

>  <Kier2>
7.27

>  <Lipinski>
1

>  <GhoseFilter>
1

>  <FilterItLogS>
-3.38

>  <VMcGowan>
223.24

>  <LabuteASA>
127.8

>  <PEOE_VSA1>
5.73

>  <PEOE_VSA2>
4.72

>  <PEOE_VSA3>
13.1

>  <PEOE_VSA4>
5.1

>  <PEOE_VSA5>
0

>  <PEOE_VSA6>
18.2

>  <PEOE_VSA7>
36.4

>  <PEOE_VSA8>
11.75

>  <PEOE_VSA9>
16.78

>  <PEOE_VSA10>
5.82

>  <PEOE_VSA11>
0

>  <PEOE_VSA12>
0

>  <PEOE_VSA13>
10.02

>  <SMR_VSA1>
8.42

>  <SMR_VSA2>
0

>  <SMR_VSA3>
9.78

>  <SMR_VSA4>
0

>  <SMR_VSA5>
4.9

>  <SMR_VSA6>
10.46

>  <SMR_VSA7>
66.86

>  <SMR_VSA8>
0

>  <SMR_VSA9>
5.69

>  <SlogP_VSA1>
10.46

>  <SlogP_VSA2>
18.2

>  <SlogP_VSA3>
10.02

>  <SlogP_VSA4>
0

>  <SlogP_VSA5>
0

>  <SlogP_VSA6>
71.76

>  <SlogP_VSA7>
0

>  <SlogP_VSA8>
5.69

>  <SlogP_VSA9>
0

>  <SlogP_VSA10>
11.51

>  <SlogP_VSA11>
0

>  <EState_VSA1>
10.02

>  <EState_VSA2>
4.9

>  <EState_VSA3>
11.51

>  <EState_VSA4>
5.69

>  <EState_VSA5>
23.01

>  <EState_VSA6>
18.2

>  <EState_VSA7>
30.33

>  <EState_VSA8>
9.82

>  <EState_VSA9>
5.73

>  <EState_VSA10>
8.42

>  <VSA_EState1>
28.86

>  <VSA_EState2>
0.14

>  <VSA_EState3>
4.15

>  <VSA_EState4>
6.85

>  <VSA_EState5>
0.36

>  <VSA_EState6>
16.88

>  <VSA_EState7>
1.54

>  <VSA_EState8>
0

>  <VSA_EState9>
-3.7

>  <apol>
43.29

>  <bpol>
22.41

>  <nRing>
3

>  <nHRing>
1

>  <naRing>
3

>  <naHRing>
1

>  <nARing 2>
0

>  <nAHRing 2>
0

>  <nFRing>
0

>  <nFHRing>
0

>  <nFaRing>
0

>  <nFaHRing>
0

>  <nFARing 2>
0

>  <nFAHRing 2>
0

>  <nRot>
4

>  <SLogP>
2.26

>  <SMR>
85.23

>  <TopoPSA(NO)>
90.01

>  <TopoPSA>
98.39

>  <JGI1>
0.21

>  <JGI2>
0.09

>  <JGI3>
0.05

>  <JGI4>
0.04

>  <JGI5>
0.03

>  <Diameter>
12

>  <Radius>
6

>  <TMWC10>
120.13

>  <TSRW10>
69.76

>  <MW>
314.08

>  <AMW>
8.72

>  <WPath>
1075

>  <WPol>
32

>  <Zagreb1>
116

>  <Zagreb2>
135

>  <mZagreb2>
4.76

>  <yes>


>  <nAR-cont>
0.336376

>  <nHA-cont>
0.983774276

>  <MWHBN>
0.394982541

>  <MWHBN-cont>
0.495824399

>  <TPSA-cont>
0.313176703

>  <pka_cont>
0.97

>  <yes.1>


>  <BBB_SCORE>
3.175240282

>  <MMFF94 Energy>
50.209

$$$$
Compound 2578
Actelion Java MolfileCreator 2.0

  0  0  0  0  0  0              0 V3000
M  V30 BEGIN CTAB
M  V30 COUNTS 32 32 0 0 0
M  V30 BEGIN ATOM
M  V30 1 Br -3.586 3.2596 3.6676 0
M  V30 2 C -2.8337 3.872 1.9731 0
M  V30 3 C -2.3017 2.6983 1.1708 0
M  V30 4 C -0.9057 2.2727 1.5992 0
M  V30 5 O -0.2968 2.8645 2.4896 0
M  V30 6 N -0.3389 1.2063 0.9121 0
M  V30 7 C 1.0371 0.8138 1.2405 0
M  V30 8 C -0.9997 0.448 -0.1563 0
M  V30 9 C 1.7826 0.2254 0.0377 0
M  V30 10 C -0.3846 -0.9417 -0.3819 0
M  V30 11 N 1.0688 -0.8996 -0.5777 0
M  V30 12 C 1.8047 -1.8474 -1.2742 0
M  V30 13 O 3.0186 -1.7345 -1.4426 0
M  V30 14 C 1.0415 -3.035 -1.8275 0
M  V30 15 C 1.9884 -4.0697 -2.4031 0
M  V30 16 Br 0.9626 -5.5833 -3.0795 0
M  V30 17 H -2.0789 4.6268 2.2082 0
M  V30 18 H -3.6674 4.3501 1.4507 0
M  V30 19 H -2.2343 2.998 0.1181 0
M  V30 20 H -2.9847 1.8462 1.2426 0
M  V30 21 H 0.9652 0.0659 2.0396 0
M  V30 22 H 1.5937 1.6691 1.638 0
M  V30 23 H -2.0656 0.3406 0.0592 0
M  V30 24 H -0.9038 1.0495 -1.0682 0
M  V30 25 H 1.8944 0.9878 -0.7429 0
M  V30 26 H 2.7876 -0.0886 0.3395 0
M  V30 27 H -0.561 -1.5735 0.4969 0
M  V30 28 H -0.8705 -1.42 -1.2365 0
M  V30 29 H 0.4422 -3.4787 -1.024 0
M  V30 30 H 0.3614 -2.6764 -2.6088 0
M  V30 31 H 2.5649 -3.681 -3.2476 0
M  V30 32 H 2.6749 -4.4671 -1.6499 0
M  V30 END ATOM
M  V30 BEGIN BOND
M  V30 1 1 1 2
M  V30 2 1 2 3
M  V30 3 1 3 4
M  V30 4 2 4 5
M  V30 5 1 4 6
M  V30 6 1 6 7
M  V30 7 1 6 8
M  V30 8 1 7 9
M  V30 9 1 8 10
M  V30 10 1 9 11
M  V30 11 1 11 12
M  V30 12 2 12 13
M  V30 13 1 12 14
M  V30 14 1 14 15
M  V30 15 1 15 16
M  V30 16 1 10 11
M  V30 17 1 2 17
M  V30 18 1 2 18
M  V30 19 1 3 19
M  V30 20 1 3 20
M  V30 21 1 7 21
M  V30 22 1 7 22
M  V30 23 1 8 23
M  V30 24 1 8 24
M  V30 25 1 9 25
M  V30 26 1 9 26
M  V30 27 1 10 27
M  V30 28 1 10 28
M  V30 29 1 14 29
M  V30 30 1 14 30
M  V30 31 1 15 31
M  V30 32 1 15 32
M  V30 END BOND
M  V30 END CTAB
M  END
>  <Column 1>
3215

>  <level_0>
5373

>  <index>
5374

>  <Unnamed: 0>
5374

>  <NO.>
5386

>  <Name>
pipobroman

>  <IUPAC_name>
3-bromo-1-[4-(3-bromopropanoyl)piperazin-1-yl]propan-1-one

>  <SMILES>
O=C(CCBr)N1CCN(C(=O)CCBr)CC1

>  <CID>
4842

>  <logBB>


>  <BBB+/BBB->
BBB-

>  <Inchi>
InChI=1S/C10H16Br2N2O2/c11-3-1-9(15)13-5-7-14(8-6-13)10(16)2-4-12/h1-8H2

>  <threshold>


>  <reference>
R14|R23|

>  <group>
C

>  <Class>
-1

>  <ABC>
11.45

>  <ABCGG>
10.29

>  <nAcid>
0

>  <nBase>
0

>  <nAromAtom>
0

>  <nAromBond>
0

>  <nAtom>
32

>  <nHeavyAtom>
16

>  <nSpiro>
0

>  <nBridgehead>
0

>  <nHetero>
6

>  <nN>
2

>  <nO>
2

>  <nF>
0

>  <BalabanJ>
2.27

>  <BertzCT>
227.2

>  <nBonds>
32

>  <nBondsO>
16

>  <nBondsS>
30

>  <nBondsD>
2

>  <nBondsT>
0

>  <nBondsA>
0

>  <nBondsM>
2

>  <nBondsKS>
30

>  <nBondsKD>
2

>  <RNCG>
0.24

>  <RPCG>
0.16

>  <FCSP3>
0.8

>  <SZ>
29.33

>  <Sm>
29.64

>  <Sv>
19.86

>  <Sse>
32.43

>  <Sp>
22.32

>  <Si>
36.42

>  <MZ>
0.92

>  <Mm>
0.93

>  <Mv>
0.62

>  <Mse>
1.01

>  <Mp>
0.7

>  <Mi>
1.14

>  <NsCH3>
0

>  <NdCH2>
0

>  <NssCH2>
8

>  <NtCH>
0

>  <NdsCH>
0

>  <NaaCH>
0

>  <NsssCH>
0

>  <NddC>
0

>  <NtsC>
0

>  <NdssC>
2

>  <NaasC>
0

>  <NaaaC>
0

>  <NssssC>
0

>  <NsNH3>
0

>  <NsNH2>
0

>  <NssNH2>
0

>  <NdNH>
0

>  <NssNH>
0

>  <NaaNH>
0

>  <NtN>
0

>  <NsssNH>
0

>  <NdsN>
0

>  <NaaN>
0

>  <NsssN>
2

>  <NddsN>
0

>  <NaasN>
0

>  <NssssN>
0

>  <NsOH>
0

>  <NdO>
2

>  <NssO>
0

>  <NaaO>
0

>  <NsF>
0

>  <NsSiH3>
0

>  <NssSiH2>
0

>  <NsssSiH>
0

>  <NssssSi>
0

>  <NsPH2>
0

>  <NssPH>
0

>  <NsssP>
0

>  <NdsssP>
0

>  <NsssssP>
0

>  <NsSH>
0

>  <NdS>
0

>  <NssS>
0

>  <NaaS>
0

>  <NdssS>
0

>  <NddssS>
0

>  <NsCl>
0

>  <NsBr>
2

>  <NsI>
0

>  <fragCpx>
16.06

>  <fMF>
0.19

>  <nHBAcc>
2

>  <nHBDon>
0

>  <Kier1>
14.06

>  <Kier2>
7.35

>  <Lipinski>
1

>  <GhoseFilter>
1

>  <FilterItLogS>
-2.84

>  <VMcGowan>
199

>  <LabuteASA>
112.6

>  <PEOE_VSA1>
9.8

>  <PEOE_VSA2>
9.59

>  <PEOE_VSA3>
0

>  <PEOE_VSA4>
0

>  <PEOE_VSA5>
0

>  <PEOE_VSA6>
31.86

>  <PEOE_VSA7>
0

>  <PEOE_VSA8>
49.68

>  <PEOE_VSA9>
0

>  <PEOE_VSA10>
0

>  <PEOE_VSA11>
0

>  <PEOE_VSA12>
11.81

>  <PEOE_VSA13>
0

>  <SMR_VSA1>
9.59

>  <SMR_VSA2>
0

>  <SMR_VSA3>
9.8

>  <SMR_VSA4>
0

>  <SMR_VSA5>
12.84

>  <SMR_VSA6>
36.84

>  <SMR_VSA7>
0

>  <SMR_VSA8>
0

>  <SMR_VSA9>
0

>  <SlogP_VSA1>
0

>  <SlogP_VSA2>
58.45

>  <SlogP_VSA3>
9.59

>  <SlogP_VSA4>
0

>  <SlogP_VSA5>
12.84

>  <SlogP_VSA6>
0

>  <SlogP_VSA7>
0

>  <SlogP_VSA8>
0

>  <SlogP_VSA9>
0

>  <SlogP_VSA10>
0

>  <SlogP_VSA11>
0

>  <EState_VSA1>
0

>  <EState_VSA2>
11.81

>  <EState_VSA3>
49.68

>  <EState_VSA4>
0

>  <EState_VSA5>
0

>  <EState_VSA6>
0

>  <EState_VSA7>
9.8

>  <EState_VSA8>
31.86

>  <EState_VSA9>
0

>  <EState_VSA10>
9.59

>  <VSA_EState1>
0

>  <VSA_EState2>
26.84

>  <VSA_EState3>
1.41

>  <VSA_EState4>
0

>  <VSA_EState5>
0.34

>  <VSA_EState6>
0

>  <VSA_EState7>
1.07

>  <VSA_EState8>
2.67

>  <VSA_EState9>
0

>  <apol>
37.27

>  <bpol>
23.97

>  <nRing>
1

>  <nHRing>
1

>  <naRing>
0

>  <naHRing>
0

>  <nARing 2>
1

>  <nAHRing 2>
1

>  <nFRing>
0

>  <nFHRing>
0

>  <nFaRing>
0

>  <nFaHRing>
0

>  <nFARing 2>
0

>  <nFAHRing 2>
0

>  <nRot>
4

>  <SLogP>
1.23

>  <SMR>
69.98

>  <TopoPSA(NO)>
40.62

>  <TopoPSA>
40.62

>  <JGI1>
0.19

>  <JGI2>
0.11

>  <JGI3>
0.05

>  <JGI4>
0.03

>  <JGI5>
0.03

>  <Diameter>
11

>  <Radius>
6

>  <TMWC10>
99.99

>  <TSRW10>
47.37

>  <MW>
353.96

>  <AMW>
11.06

>  <WPath>
496

>  <WPol>
21

>  <Zagreb1>
72

>  <Zagreb2>
80

>  <mZagreb2>
3.89

>  <yes>


>  <nAR-cont>
0.816016

>  <nHA-cont>
0.954961865

>  <MWHBN>
0.106304807

>  <MWHBN-cont>
0.764540932

>  <TPSA-cont>
0.716447176

>  <pka_cont>
0.97

>  <yes.1>


>  <BBB_SCORE>
4.835683616

>  <MMFF94 Energy>
5.8227

$$$$
Compound 2579
Actelion Java MolfileCreator 2.0

  0  0  0  0  0  0              0 V3000
M  V30 BEGIN CTAB
M  V30 COUNTS 31 32 0 0 0
M  V30 BEGIN ATOM
M  V30 1 O 2.0649 -0.7144 1.747 0
M  V30 2 N 2.9696 -1.5398 1.5443 0 CHG=1
M  V30 3 O 3.8953 -1.7879 2.3253 0 CHG=-1
M  V30 4 C 2.9303 -2.2673 0.3036 0
M  V30 5 N 3.9994 -2.8285 -0.229 0
M  V30 6 N 1.8102 -2.4638 -0.4622 0
M  V30 7 C 3.5602 -3.3987 -1.3944 0
M  V30 8 C 2.2111 -3.1906 -1.5608 0
M  V30 9 C 0.4328 -2.0887 -0.2017 0
M  V30 10 C 0.0675 -0.7913 -0.8916 0
M  V30 11 O -0.3615 -0.772 -2.0425 0
M  V30 12 N 0.2651 0.3394 -0.1369 0
M  V30 13 C -0.0888 1.6594 -0.6061 0
M  V30 14 C -1.3831 2.1083 0.0186 0
M  V30 15 C -2.6085 1.75 -0.5617 0
M  V30 16 C -1.386 2.8505 1.2081 0
M  V30 17 C -3.812 2.1421 0.0257 0
M  V30 18 C -2.5912 3.2417 1.7941 0
M  V30 19 C -3.8029 2.8891 1.2021 0
M  V30 20 H 4.2366 -3.9305 -2.0526 0
M  V30 21 H 1.5243 -3.484 -2.345 0
M  V30 22 H -0.2104 -2.8854 -0.5938 0
M  V30 23 H 0.2532 -2.0466 0.875 0
M  V30 24 H 0.6461 0.2647 0.8034 0
M  V30 25 H 0.726 2.3366 -0.3274 0
M  V30 26 H -0.1648 1.6778 -1.699 0
M  V30 27 H -2.627 1.1594 -1.4764 0
M  V30 28 H -0.4496 3.1297 1.6859 0
M  V30 29 H -4.7563 1.863 -0.4344 0
M  V30 30 H -2.5853 3.8212 2.7138 0
M  V30 31 H -4.7406 3.1947 1.659 0
M  V30 END ATOM
M  V30 BEGIN BOND
M  V30 1 2 1 2
M  V30 2 1 2 3
M  V30 3 1 2 4
M  V30 4 2 4 5
M  V30 5 1 4 6
M  V30 6 1 5 7
M  V30 7 1 6 8
M  V30 8 1 6 9
M  V30 9 1 9 10
M  V30 10 2 10 11
M  V30 11 1 10 12
M  V30 12 1 12 13
M  V30 13 1 13 14
M  V30 14 2 14 15
M  V30 15 1 14 16
M  V30 16 1 15 17
M  V30 17 2 16 18
M  V30 18 2 17 19
M  V30 19 2 7 8
M  V30 20 1 18 19
M  V30 21 1 7 20
M  V30 22 1 8 21
M  V30 23 1 9 22
M  V30 24 1 9 23
M  V30 25 1 12 24
M  V30 26 1 13 25
M  V30 27 1 13 26
M  V30 28 1 15 27
M  V30 29 1 16 28
M  V30 30 1 17 29
M  V30 31 1 18 30
M  V30 32 1 19 31
M  V30 END BOND
M  V30 END CTAB
M  END
>  <Column 1>
3217

>  <level_0>
5375

>  <index>
5376

>  <Unnamed: 0>
5376

>  <NO.>
5388

>  <Name>
benznidazole

>  <IUPAC_name>
n-benzyl-2-(2-nitroimidazol-1-yl)acetamide

>  <SMILES>
O=C(Cn1ccnc1[N+](=O)[O-])NCc1ccccc1

>  <CID>
31593

>  <logBB>


>  <BBB+/BBB->
BBB-

>  <Inchi>
InChI=1S/C12H12N4O3/c17-11(14-8-10-4-2-1-3-5-10)9-15-7-6-13-12(15)16(18)19/h1-7H-8-9H2-(H-14-17)

>  <threshold>


>  <reference>
R14|

>  <group>
C

>  <Class>
-1

>  <ABC>
14.39

>  <ABCGG>
12.64

>  <nAcid>
0

>  <nBase>
0

>  <nAromAtom>
11

>  <nAromBond>
11

>  <nAtom>
31

>  <nHeavyAtom>
19

>  <nSpiro>
0

>  <nBridgehead>
0

>  <nHetero>
7

>  <nN>
4

>  <nO>
3

>  <nF>
0

>  <BalabanJ>
1.67

>  <BertzCT>
579.67

>  <nBonds>
32

>  <nBondsO>
20

>  <nBondsS>
19

>  <nBondsD>
2

>  <nBondsT>
0

>  <nBondsA>
11

>  <nBondsM>
13

>  <nBondsKS>
25

>  <nBondsKD>
7

>  <RNCG>
0.19

>  <RPCG>
0.21

>  <FCSP3>
0.17

>  <SZ>
22.67

>  <Sm>
21.67

>  <Sv>
20.43

>  <Sse>
31.97

>  <Sp>
20.87

>  <Si>
35.28

>  <MZ>
0.73

>  <Mm>
0.7

>  <Mv>
0.66

>  <Mse>
1.03

>  <Mp>
0.67

>  <Mi>
1.14

>  <NsCH3>
0

>  <NdCH2>
0

>  <NssCH2>
2

>  <NtCH>
0

>  <NdsCH>
0

>  <NaaCH>
7

>  <NsssCH>
0

>  <NddC>
0

>  <NtsC>
0

>  <NdssC>
1

>  <NaasC>
2

>  <NaaaC>
0

>  <NssssC>
0

>  <NsNH3>
0

>  <NsNH2>
0

>  <NssNH2>
0

>  <NdNH>
0

>  <NssNH>
1

>  <NaaNH>
0

>  <NtN>
0

>  <NsssNH>
0

>  <NdsN>
0

>  <NaaN>
1

>  <NsssN>
0

>  <NddsN>
1

>  <NaasN>
1

>  <NssssN>
0

>  <NsOH>
0

>  <NdO>
2

>  <NssO>
0

>  <NaaO>
0

>  <NsF>
0

>  <NsSiH3>
0

>  <NssSiH2>
0

>  <NsssSiH>
0

>  <NssssSi>
0

>  <NsPH2>
0

>  <NssPH>
0

>  <NsssP>
0

>  <NdsssP>
0

>  <NsssssP>
0

>  <NsSH>
0

>  <NdS>
0

>  <NssS>
0

>  <NaaS>
0

>  <NdssS>
0

>  <NddssS>
0

>  <NsCl>
0

>  <NsBr>
0

>  <NsI>
0

>  <fragCpx>
58.07

>  <fMF>
0.48

>  <nHBAcc>
5

>  <nHBDon>
1

>  <Kier1>
15.39

>  <Kier2>
7.7

>  <Lipinski>
1

>  <GhoseFilter>
1

>  <FilterItLogS>
-2.69

>  <VMcGowan>
185.65

>  <LabuteASA>
108.59

>  <PEOE_VSA1>
15.43

>  <PEOE_VSA2>
4.79

>  <PEOE_VSA3>
4.57

>  <PEOE_VSA4>
0

>  <PEOE_VSA5>
0

>  <PEOE_VSA6>
35.32

>  <PEOE_VSA7>
10.49

>  <PEOE_VSA8>
6.54

>  <PEOE_VSA9>
0

>  <PEOE_VSA10>
12.39

>  <PEOE_VSA11>
6.54

>  <PEOE_VSA12>
0

>  <PEOE_VSA13>
5.91

>  <SMR_VSA1>
9.72

>  <SMR_VSA2>
0

>  <SMR_VSA3>
14.87

>  <SMR_VSA4>
0

>  <SMR_VSA5>
13.09

>  <SMR_VSA6>
0

>  <SMR_VSA7>
58.4

>  <SMR_VSA8>
0

>  <SMR_VSA9>
0

>  <SlogP_VSA1>
5.32

>  <SlogP_VSA2>
20.38

>  <SlogP_VSA3>
17.88

>  <SlogP_VSA4>
10.11

>  <SlogP_VSA5>
5.56

>  <SlogP_VSA6>
42.73

>  <SlogP_VSA7>
0

>  <SlogP_VSA8>
0

>  <SlogP_VSA9>
0

>  <SlogP_VSA10>
5.95

>  <SlogP_VSA11>
0

>  <EState_VSA1>
4.92

>  <EState_VSA2>
18.4

>  <EState_VSA3>
6.54

>  <EState_VSA4>
5.56

>  <EState_VSA5>
16.96

>  <EState_VSA6>
0

>  <EState_VSA7>
30.33

>  <EState_VSA8>
10.3

>  <EState_VSA9>
0

>  <EState_VSA10>
14.91

>  <VSA_EState1>
1.19

>  <VSA_EState2>
25.26

>  <VSA_EState3>
13.33

>  <VSA_EState4>
0.97

>  <VSA_EState5>
-0.64

>  <VSA_EState6>
9.42

>  <VSA_EState7>
2.7

>  <VSA_EState8>
0.27

>  <VSA_EState9>
0

>  <apol>
34.85

>  <bpol>
17.49

>  <nRing>
2

>  <nHRing>
1

>  <naRing>
2

>  <naHRing>
1

>  <nARing 2>
0

>  <nAHRing 2>
0

>  <nFRing>
0

>  <nFHRing>
0

>  <nFaRing>
0

>  <nFaHRing>
0

>  <nFARing 2>
0

>  <nFAHRing 2>
0

>  <nRot>
5

>  <SLogP>
1.11

>  <SMR>
67.17

>  <TopoPSA(NO)>
90.06

>  <TopoPSA>
90.06

>  <JGI1>
0.18

>  <JGI2>
0.07

>  <JGI3>
0.04

>  <JGI4>
0.04

>  <JGI5>
0.03

>  <Diameter>
11

>  <Radius>
6

>  <TMWC10>
109.45

>  <TSRW10>
65.1

>  <MW>
260.09

>  <AMW>
8.39

>  <WPath>
806

>  <WPol>
23

>  <Zagreb1>
92

>  <Zagreb2>
103

>  <mZagreb2>
4.31

>  <yes>


>  <nAR-cont>
0.336376

>  <nHA-cont>
0.998649058

>  <MWHBN>
0.372039818

>  <MWHBN-cont>
0.585931413

>  <TPSA-cont>
0.371325276

>  <pka_cont>
0.97

>  <yes.1>


>  <BBB_SCORE>
3.44157273

>  <MMFF94 Energy>
51.973

$$$$
Compound 2580
Actelion Java MolfileCreator 2.0

  0  0  0  0  0  0              0 V3000
M  V30 BEGIN CTAB
M  V30 COUNTS 41 43 0 0 0
M  V30 BEGIN ATOM
M  V30 1 Cl -4.2897 0.0 -4.8573 0
M  V30 2 C -3.2668 -0.566 -3.5958 0
M  V30 3 C -2.8442 -1.894 -3.5901 0
M  V30 4 C -2.8587 0.3104 -2.5907 0
M  V30 5 C -2.0098 -2.3514 -2.5669 0
M  V30 6 C -2.0256 -0.1451 -1.5643 0
M  V30 7 C -1.6078 -1.483 -1.5432 0
M  V30 8 C -0.705 -2.0099 -0.4842 0
M  V30 9 O 0.0545 -2.9412 -0.7238 0
M  V30 10 N -0.7804 -1.4041 0.7443 0
M  V30 11 C 0.0596 -1.8099 1.871 0 CFG=2
M  V30 12 C -0.5952 -1.4114 3.1967 0
M  V30 13 C 1.497 -1.2479 1.7982 0
M  V30 14 O -0.1614 -1.64 4.3148 0
M  V30 15 O -1.7492 -0.7176 3.0487 0
M  V30 16 C 1.5901 0.2669 1.7192 0
M  V30 17 C 1.6523 0.9803 0.4183 0
M  V30 18 C 1.64 0.9972 2.8499 0
M  V30 19 C 1.6537 2.388 0.4182 0
M  V30 20 C 1.7214 0.3332 -0.8225 0
M  V30 21 C 1.6684 2.4763 2.8498 0
M  V30 22 N 1.6495 3.0857 1.6311 0
M  V30 23 C 1.6803 3.1197 -0.7727 0
M  V30 24 C 1.7477 1.0611 -2.0175 0
M  V30 25 O 1.6849 3.106 3.9011 0
M  V30 26 C 1.7207 2.452 -1.9932 0
M  V30 27 H -3.1546 -2.5759 -4.3775 0
M  V30 28 H -3.1761 1.3501 -2.606 0
M  V30 29 H -1.674 -3.3869 -2.5684 0
M  V30 30 H -1.6877 0.5632 -0.8126 0
M  V30 31 H -1.4986 -0.7181 0.9503 0
M  V30 32 H 0.1001 -2.9062 1.8656 0
M  V30 33 H 2.0379 -1.7137 0.9679 0
M  V30 34 H 2.0434 -1.5828 2.6919 0
M  V30 35 H -2.0284 -0.5317 3.9718 0
M  V30 36 H 1.6297 0.5472 3.8372 0
M  V30 37 H 1.7619 -0.7494 -0.8991 0
M  V30 38 H 1.6673 4.0961 1.6428 0
M  V30 39 H 1.6794 4.206 -0.7604 0
M  V30 40 H 1.7952 0.5338 -2.9679 0
M  V30 41 H 1.7459 3.0138 -2.9235 0
M  V30 END ATOM
M  V30 BEGIN BOND
M  V30 1 1 1 2
M  V30 2 2 2 3
M  V30 3 1 2 4
M  V30 4 1 3 5
M  V30 5 2 4 6
M  V30 6 2 5 7
M  V30 7 1 7 8
M  V30 8 2 8 9
M  V30 9 1 8 10
M  V30 10 1 10 11
M  V30 11 1 11 12
M  V30 12 1 11 13
M  V30 13 2 12 14
M  V30 14 1 12 15
M  V30 15 1 13 16
M  V30 16 1 16 17
M  V30 17 2 16 18
M  V30 18 2 17 19
M  V30 19 1 17 20
M  V30 20 1 18 21
M  V30 21 1 19 22
M  V30 22 1 19 23
M  V30 23 2 20 24
M  V30 24 2 21 25
M  V30 25 2 23 26
M  V30 26 1 6 7
M  V30 27 1 21 22
M  V30 28 1 24 26
M  V30 29 1 3 27
M  V30 30 1 4 28
M  V30 31 1 5 29
M  V30 32 1 6 30
M  V30 33 1 10 31
M  V30 34 1 11 32
M  V30 35 1 13 33
M  V30 36 1 13 34
M  V30 37 1 15 35
M  V30 38 1 18 36
M  V30 39 1 20 37
M  V30 40 1 22 38
M  V30 41 1 23 39
M  V30 42 1 24 40
M  V30 43 1 26 41
M  V30 END BOND
M  V30 BEGIN COLLECTION
M  V30 MDLV30/STERAC1 ATOMS=(1 11)
M  V30 END COLLECTION
M  V30 END CTAB
M  END
>  <Column 1>
3218

>  <level_0>
5376

>  <index>
5377

>  <Unnamed: 0>
5377

>  <NO.>
5389

>  <Name>
rebamipide

>  <IUPAC_name>
2-[(4-chlorobenzoyl)amino]-3-(2-oxo-1h-quinolin-4-yl)propanoic acid

>  <SMILES>
O=C(NC(Cc1cc(=O)[nH]c2ccccc12)C(=O)O)c1ccc(Cl)cc1

>  <CID>
5042

>  <logBB>


>  <BBB+/BBB->
BBB-

>  <Inchi>
InChI=1S/C19H15ClN2O4/c20-13-7-5-11(6-8-13)18(24)22-16(19(25)26)9-12-10-17(23)21-15-4-2-1-3-14(12)15/h1-8-10-16H-9H2-(H-21-23)(H-22-24)(H-25-26)

>  <threshold>


>  <reference>
R14|

>  <group>
C

>  <Class>
-1

>  <ABC>
20.18

>  <ABCGG>
16.18

>  <nAcid>
1

>  <nBase>
0

>  <nAromAtom>
16

>  <nAromBond>
17

>  <nAtom>
41

>  <nHeavyAtom>
26

>  <nSpiro>
0

>  <nBridgehead>
0

>  <nHetero>
7

>  <nN>
2

>  <nO>
4

>  <nF>
0

>  <BalabanJ>
1.58

>  <BertzCT>
1027.64

>  <nBonds>
43

>  <nBondsO>
28

>  <nBondsS>
23

>  <nBondsD>
3

>  <nBondsT>
0

>  <nBondsA>
17

>  <nBondsM>
20

>  <nBondsKS>
33

>  <nBondsKD>
10

>  <RNCG>
0.2

>  <RPCG>
0.13

>  <FCSP3>
0.11

>  <SZ>
32

>  <Sm>
30.87

>  <Sv>
28.53

>  <Sse>
42.07

>  <Sp>
29.53

>  <Si>
45.69

>  <MZ>
0.78

>  <Mm>
0.75

>  <Mv>
0.7

>  <Mse>
1.03

>  <Mp>
0.72

>  <Mi>
1.11

>  <NsCH3>
0

>  <NdCH2>
0

>  <NssCH2>
1

>  <NtCH>
0

>  <NdsCH>
0

>  <NaaCH>
9

>  <NsssCH>
1

>  <NddC>
0

>  <NtsC>
0

>  <NdssC>
2

>  <NaasC>
3

>  <NaaaC>
2

>  <NssssC>
0

>  <NsNH3>
0

>  <NsNH2>
0

>  <NssNH2>
0

>  <NdNH>
0

>  <NssNH>
1

>  <NaaNH>
1

>  <NtN>
0

>  <NsssNH>
0

>  <NdsN>
0

>  <NaaN>
0

>  <NsssN>
0

>  <NddsN>
0

>  <NaasN>
0

>  <NssssN>
0

>  <NsOH>
1

>  <NdO>
3

>  <NssO>
0

>  <NaaO>
0

>  <NsF>
0

>  <NsSiH3>
0

>  <NssSiH2>
0

>  <NsssSiH>
0

>  <NssssSi>
0

>  <NsPH2>
0

>  <NssPH>
0

>  <NsssP>
0

>  <NdsssP>
0

>  <NsssssP>
0

>  <NsSH>
0

>  <NdS>
0

>  <NssS>
0

>  <NaaS>
0

>  <NdssS>
0

>  <NddssS>
0

>  <NsCl>
1

>  <NsBr>
0

>  <NsI>
0

>  <fragCpx>
134.07

>  <fMF>
0.49

>  <nHBAcc>
3

>  <nHBDon>
3

>  <Kier1>
20.73

>  <Kier2>
9.47

>  <Lipinski>
1

>  <GhoseFilter>
1

>  <FilterItLogS>
-5.15

>  <VMcGowan>
258.67

>  <LabuteASA>
152.98

>  <PEOE_VSA1>
15.41

>  <PEOE_VSA2>
9.59

>  <PEOE_VSA3>
4.79

>  <PEOE_VSA4>
0

>  <PEOE_VSA5>
0

>  <PEOE_VSA6>
29.8

>  <PEOE_VSA7>
35.9

>  <PEOE_VSA8>
33.98

>  <PEOE_VSA9>
0

>  <PEOE_VSA10>
6.04

>  <PEOE_VSA11>
0

>  <PEOE_VSA12>
5.56

>  <PEOE_VSA13>
5.91

>  <SMR_VSA1>
14.7

>  <SMR_VSA2>
0

>  <SMR_VSA3>
10.3

>  <SMR_VSA4>
0

>  <SMR_VSA5>
12.46

>  <SMR_VSA6>
0

>  <SMR_VSA7>
81.1

>  <SMR_VSA8>
0

>  <SMR_VSA9>
0

>  <SlogP_VSA1>
10.88

>  <SlogP_VSA2>
28.01

>  <SlogP_VSA3>
11.22

>  <SlogP_VSA4>
0

>  <SlogP_VSA5>
15.92

>  <SlogP_VSA6>
59.39

>  <SlogP_VSA7>
5.02

>  <SlogP_VSA8>
10.9

>  <SlogP_VSA9>
0

>  <SlogP_VSA10>
0

>  <SlogP_VSA11>
0

>  <EState_VSA1>
17.92

>  <EState_VSA2>
11.98

>  <EState_VSA3>
21.67

>  <EState_VSA4>
5.39

>  <EState_VSA5>
18.2

>  <EState_VSA6>
36.4

>  <EState_VSA7>
0

>  <EState_VSA8>
10.3

>  <EState_VSA9>
11.6

>  <EState_VSA10>
19.49

>  <VSA_EState1>
0

>  <VSA_EState2>
38.46

>  <VSA_EState3>
13.2

>  <VSA_EState4>
1.14

>  <VSA_EState5>
-1.71

>  <VSA_EState6>
13.41

>  <VSA_EState7>
-0.01

>  <VSA_EState8>
0

>  <VSA_EState9>
0

>  <apol>
49.32

>  <bpol>
19.3

>  <nRing>
3

>  <nHRing>
1

>  <naRing>
3

>  <naHRing>
1

>  <nARing 2>
0

>  <nAHRing 2>
0

>  <nFRing>
1

>  <nFHRing>
1

>  <nFaRing>
1

>  <nFaHRing>
1

>  <nFARing 2>
0

>  <nFAHRing 2>
0

>  <nRot>
5

>  <SLogP>
2.61

>  <SMR>
98.61

>  <TopoPSA(NO)>
99.26

>  <TopoPSA>
99.26

>  <JGI1>
0.21

>  <JGI2>
0.08

>  <JGI3>
0.04

>  <JGI4>
0.04

>  <JGI5>
0.03

>  <Diameter>
13

>  <Radius>
7

>  <TMWC10>
129.12

>  <TSRW10>
60.85

>  <MW>
370.07

>  <AMW>
9.03

>  <WPath>
1716

>  <WPol>
40

>  <Zagreb1>
134

>  <Zagreb2>
155

>  <mZagreb2>
5.69

>  <yes>


>  <nAR-cont>
0.336376

>  <nHA-cont>
0.892715677

>  <MWHBN>
0.311895645

>  <MWHBN-cont>
0.803803689

>  <TPSA-cont>
0.307103563

>  <pka_cont>
0.97

>  <yes.1>


>  <BBB_SCORE>
3.534004337

>  <MMFF94 Energy>
21.431

$$$$
Compound 2581
Actelion Java MolfileCreator 2.0

  0  0  0  0  0  0              0 V3000
M  V30 BEGIN CTAB
M  V30 COUNTS 48 49 0 0 0
M  V30 BEGIN ATOM
M  V30 1 F -2.8988 -3.1406 -3.9471 0
M  V30 2 C -1.584 -3.074 -3.6422 0
M  V30 3 F -1.0819 -1.9543 -4.2093 0
M  V30 4 F -0.9778 -4.1342 -4.2235 0
M  V30 5 C -1.3599 -3.0857 -2.138 0
M  V30 6 O -1.9668 -1.923 -1.5332 0
M  V30 7 C -1.6917 -1.8903 -0.1901 0
M  V30 8 C -0.597 -1.1852 0.3296 0
M  V30 9 C -2.576 -2.5489 0.6651 0
M  V30 10 C 0.3696 -0.4175 -0.5093 0
M  V30 11 C -0.3649 -1.2051 1.7174 0
M  V30 12 C -2.34 -2.5484 2.04 0
M  V30 13 O 1.496 -0.1969 -0.078 0
M  V30 14 N -0.0875 0.0335 -1.7238 0
M  V30 15 C -1.2313 -1.8867 2.5729 0
M  V30 16 C 0.7302 0.7301 -2.7082 0
M  V30 17 O -1.1159 -1.9757 3.9317 0
M  V30 18 C 1.2039 2.157 -2.3189 0 CFG=2
M  V30 19 C 0.0254 -1.3545 4.5375 0
M  V30 20 N 2.4031 2.0916 -1.47 0
M  V30 21 C 0.0725 2.9798 -1.6774 0
M  V30 22 C 0.0156 -1.5775 6.0423 0
M  V30 23 C 2.8687 3.4003 -1.0284 0
M  V30 24 C 0.5587 4.3561 -1.236 0
M  V30 25 F -1.084 -1.0469 6.6212 0
M  V30 26 F 0.0621 -2.891 6.3556 0
M  V30 27 F 1.0944 -0.9887 6.6121 0
M  V30 28 C 1.7803 4.2139 -0.3365 0
M  V30 29 H -1.804 -3.9962 -1.718 0
M  V30 30 H -0.281 -3.0923 -1.9406 0
M  V30 31 H -3.4473 -3.0638 0.2685 0
M  V30 32 H 0.4988 -0.668 2.0993 0
M  V30 33 H -3.0272 -3.0697 2.7038 0
M  V30 34 H -1.0485 -0.1666 -1.979 0
M  V30 35 H 0.1164 0.7973 -3.6142 0
M  V30 36 H 1.5888 0.0909 -2.9467 0
M  V30 37 H 1.507 2.6504 -3.2523 0
M  V30 38 H 0.0046 -0.2755 4.3453 0
M  V30 39 H 0.9453 -1.7868 4.1271 0
M  V30 40 H 2.2072 1.4769 -0.6682 0
M  V30 41 H -0.3325 2.4635 -0.7984 0
M  V30 42 H -0.7536 3.0952 -2.3889 0
M  V30 43 H 3.7132 3.2639 -0.3438 0
M  V30 44 H 3.257 3.9558 -1.8907 0
M  V30 45 H -0.2404 4.8834 -0.7034 0
M  V30 46 H 0.8136 4.9585 -2.1164 0
M  V30 47 H 1.4925 3.7255 0.6031 0
M  V30 48 H 2.1668 5.2061 -0.0778 0
M  V30 END ATOM
M  V30 BEGIN BOND
M  V30 1 1 1 2
M  V30 2 1 2 3
M  V30 3 1 2 4
M  V30 4 1 2 5
M  V30 5 1 5 6
M  V30 6 1 6 7
M  V30 7 2 7 8
M  V30 8 1 7 9
M  V30 9 1 8 10
M  V30 10 1 8 11
M  V30 11 2 9 12
M  V30 12 2 10 13
M  V30 13 1 10 14
M  V30 14 2 11 15
M  V30 15 1 14 16
M  V30 16 1 15 17
M  V30 17 1 16 18
M  V30 18 1 17 19
M  V30 19 1 18 20
M  V30 20 1 18 21
M  V30 21 1 19 22
M  V30 22 1 20 23
M  V30 23 1 21 24
M  V30 24 1 22 25
M  V30 25 1 22 26
M  V30 26 1 22 27
M  V30 27 1 23 28
M  V30 28 1 12 15
M  V30 29 1 24 28
M  V30 30 1 5 29
M  V30 31 1 5 30
M  V30 32 1 9 31
M  V30 33 1 11 32
M  V30 34 1 12 33
M  V30 35 1 14 34
M  V30 36 1 16 35
M  V30 37 1 16 36
M  V30 38 1 18 37
M  V30 39 1 19 38
M  V30 40 1 19 39
M  V30 41 1 20 40
M  V30 42 1 21 41
M  V30 43 1 21 42
M  V30 44 1 23 43
M  V30 45 1 23 44
M  V30 46 1 24 45
M  V30 47 1 24 46
M  V30 48 1 28 47
M  V30 49 1 28 48
M  V30 END BOND
M  V30 BEGIN COLLECTION
M  V30 MDLV30/STERAC1 ATOMS=(1 18)
M  V30 END COLLECTION
M  V30 END CTAB
M  END
>  <Column 1>
3219

>  <level_0>
5377

>  <index>
5378

>  <Unnamed: 0>
5378

>  <NO.>
5390

>  <Name>
flecainide acetate

>  <IUPAC_name>
n-(piperidin-2-ylmethyl)-2-5-bis(2-2-2-trifluoroethoxy)benzamide

>  <SMILES>
O=C(NCC1CCCCN1)c1cc(OCC(F)(F)F)ccc1OCC(F)(F)F

>  <CID>
3356

>  <logBB>


>  <BBB+/BBB->
BBB-

>  <Inchi>
InChI=1S/C17H20F6N2O3/c18-16(19-20)9-27-12-4-5-14(28-10-17(21-22)23)13(7-12)15(26)25-8-11-3-1-2-6-24-11/h4-5-7-11-24H-1-3-6-8-10H2-(H-25-26)

>  <threshold>


>  <reference>
R14|R15|R23|

>  <group>
C

>  <Class>
-1

>  <ABC>
21.49

>  <ABCGG>
17.27

>  <nAcid>
0

>  <nBase>
1

>  <nAromAtom>
6

>  <nAromBond>
6

>  <nAtom>
48

>  <nHeavyAtom>
28

>  <nSpiro>
0

>  <nBridgehead>
0

>  <nHetero>
11

>  <nN>
2

>  <nO>
3

>  <nF>
6

>  <BalabanJ>
1.91

>  <BertzCT>
657.27

>  <nBonds>
49

>  <nBondsO>
29

>  <nBondsS>
42

>  <nBondsD>
1

>  <nBondsT>
0

>  <nBondsA>
6

>  <nBondsM>
7

>  <nBondsKS>
45

>  <nBondsKD>
4

>  <RNCG>
0.16

>  <RPCG>
0.14

>  <FCSP3>
0.59

>  <SZ>
35.67

>  <Sm>
34.5

>  <Sv>
29.96

>  <Sse>
50.94

>  <Sp>
29.74

>  <Si>
56.65

>  <MZ>
0.74

>  <Mm>
0.72

>  <Mv>
0.62

>  <Mse>
1.06

>  <Mp>
0.62

>  <Mi>
1.18

>  <NsCH3>
0

>  <NdCH2>
0

>  <NssCH2>
7

>  <NtCH>
0

>  <NdsCH>
0

>  <NaaCH>
3

>  <NsssCH>
1

>  <NddC>
0

>  <NtsC>
0

>  <NdssC>
1

>  <NaasC>
3

>  <NaaaC>
0

>  <NssssC>
2

>  <NsNH3>
0

>  <NsNH2>
0

>  <NssNH2>
0

>  <NdNH>
0

>  <NssNH>
2

>  <NaaNH>
0

>  <NtN>
0

>  <NsssNH>
0

>  <NdsN>
0

>  <NaaN>
0

>  <NsssN>
0

>  <NddsN>
0

>  <NaasN>
0

>  <NssssN>
0

>  <NsOH>
0

>  <NdO>
1

>  <NssO>
2

>  <NaaO>
0

>  <NsF>
6

>  <NsSiH3>
0

>  <NssSiH2>
0

>  <NsssSiH>
0

>  <NssssSi>
0

>  <NsPH2>
0

>  <NssPH>
0

>  <NsssP>
0

>  <NdsssP>
0

>  <NsssssP>
0

>  <NsSH>
0

>  <NdS>
0

>  <NssS>
0

>  <NaaS>
0

>  <NdssS>
0

>  <NddssS>
0

>  <NsCl>
0

>  <NsBr>
0

>  <NsI>
0

>  <fragCpx>
85.11

>  <fMF>
0.31

>  <nHBAcc>
4

>  <nHBDon>
2

>  <Kier1>
24.27

>  <Kier2>
10.86

>  <Lipinski>
1

>  <GhoseFilter>
1

>  <FilterItLogS>
-5.53

>  <VMcGowan>
259.6

>  <LabuteASA>
156.92

>  <PEOE_VSA1>
20.11

>  <PEOE_VSA2>
4.79

>  <PEOE_VSA3>
0

>  <PEOE_VSA4>
26.34

>  <PEOE_VSA5>
0

>  <PEOE_VSA6>
6.42

>  <PEOE_VSA7>
37.59

>  <PEOE_VSA8>
12.59

>  <PEOE_VSA9>
5.56

>  <PEOE_VSA10>
11.5

>  <PEOE_VSA11>
13.21

>  <PEOE_VSA12>
0

>  <PEOE_VSA13>
5.91

>  <SMR_VSA1>
40.61

>  <SMR_VSA2>
0

>  <SMR_VSA3>
10.63

>  <SMR_VSA4>
0

>  <SMR_VSA5>
37.66

>  <SMR_VSA6>
26.3

>  <SMR_VSA7>
23.76

>  <SMR_VSA8>
0

>  <SMR_VSA9>
11.5

>  <SlogP_VSA1>
20.11

>  <SlogP_VSA2>
50.6

>  <SlogP_VSA3>
0

>  <SlogP_VSA4>
0

>  <SlogP_VSA5>
29.62

>  <SlogP_VSA6>
18.2

>  <SlogP_VSA7>
0

>  <SlogP_VSA8>
0

>  <SlogP_VSA9>
0

>  <SlogP_VSA10>
26.34

>  <SlogP_VSA11>
11.5

>  <EState_VSA1>
37.22

>  <EState_VSA2>
23.9

>  <EState_VSA3>
0

>  <EState_VSA4>
44.01

>  <EState_VSA5>
0

>  <EState_VSA6>
0

>  <EState_VSA7>
0

>  <EState_VSA8>
20.11

>  <EState_VSA9>
0

>  <EState_VSA10>
31.14

>  <VSA_EState1>
83.33

>  <VSA_EState2>
12.41

>  <VSA_EState3>
5.75

>  <VSA_EState4>
-0.33

>  <VSA_EState5>
-1.47

>  <VSA_EState6>
2.94

>  <VSA_EState7>
-6.41

>  <VSA_EState8>
-2.21

>  <VSA_EState9>
0

>  <apol>
49.67

>  <bpol>
32.22

>  <nRing>
2

>  <nHRing>
1

>  <naRing>
1

>  <naHRing>
0

>  <nARing 2>
1

>  <nAHRing 2>
1

>  <nFRing>
0

>  <nFHRing>
0

>  <nFaRing>
0

>  <nFaHRing>
0

>  <nFARing 2>
0

>  <nFAHRing 2>
0

>  <nRot>
7

>  <SLogP>
3.44

>  <SMR>
87.52

>  <TopoPSA(NO)>
59.59

>  <TopoPSA>
59.59

>  <JGI1>
0.29

>  <JGI2>
0.07

>  <JGI3>
0.03

>  <JGI4>
0.05

>  <JGI5>
0.03

>  <Diameter>
13

>  <Radius>
7

>  <TMWC10>
131.41

>  <TSRW10>
62.84

>  <MW>
414.14

>  <AMW>
8.63

>  <WPath>
2232

>  <WPol>
36

>  <Zagreb1>
140

>  <Zagreb2>
153

>  <mZagreb2>
5.97

>  <yes>


>  <nAR-cont>
0.816016

>  <nHA-cont>
0.82432561

>  <MWHBN>
0.294834065

>  <MWHBN-cont>
0.855893568

>  <TPSA-cont>
0.584024797

>  <pka_cont>
0.97

>  <yes.1>


>  <BBB_SCORE>
4.577231556

>  <MMFF94 Energy>
96.418

$$$$
Compound 2582
Actelion Java MolfileCreator 2.0

  0  0  0  0  0  0              0 V3000
M  V30 BEGIN CTAB
M  V30 COUNTS 29 30 0 0 0
M  V30 BEGIN ATOM
M  V30 1 Cl -2.7259 -0.8254 -1.4036 0
M  V30 2 C -1.6881 -1.8696 -0.4901 0
M  V30 3 C -0.502 -1.3848 0.0992 0
M  V30 4 C -2.0705 -3.2079 -0.3605 0
M  V30 5 N -0.1726 -0.0195 -0.0677 0
M  V30 6 C 0.2917 -2.2783 0.8275 0
M  V30 7 C -1.2592 -4.0805 0.3699 0
M  V30 8 C 0.9465 0.6565 0.3722 0
M  V30 9 C -0.0798 -3.6216 0.9651 0
M  V30 10 N -1.6497 -5.488 0.5137 0 CHG=1
M  V30 11 O 1.8726 0.1557 1.0027 0
M  V30 12 C 1.0197 2.1209 0.0402 0
M  V30 13 O -0.906 -6.229 1.1709 0
M  V30 14 O -2.7016 -5.8504 -0.0315 0 CHG=-1
M  V30 15 C 0.0393 2.8279 -0.6776 0
M  V30 16 C 2.156 2.8188 0.4866 0
M  V30 17 O -1.086 2.1947 -1.1347 0
M  V30 18 C 0.1893 4.1933 -0.9423 0
M  V30 19 C 2.3013 4.1792 0.2207 0
M  V30 20 C 1.3235 4.8686 -0.4911 0
M  V30 21 Cl 3.6982 5.0163 0.7749 0
M  V30 22 H -2.9904 -3.5538 -0.8268 0
M  V30 23 H -0.8509 0.5343 -0.5922 0
M  V30 24 H 1.2132 -1.9611 1.3078 0
M  V30 25 H 0.5634 -4.2872 1.5388 0
M  V30 26 H 2.9322 2.2981 1.0451 0
M  V30 27 H -1.648 2.8346 -1.6091 0
M  V30 28 H -0.5631 4.7482 -1.4963 0
M  V30 29 H 1.4397 5.93 -0.697 0
M  V30 END ATOM
M  V30 BEGIN BOND
M  V30 1 1 1 2
M  V30 2 2 2 3
M  V30 3 1 2 4
M  V30 4 1 3 5
M  V30 5 1 3 6
M  V30 6 2 4 7
M  V30 7 1 5 8
M  V30 8 2 6 9
M  V30 9 1 7 10
M  V30 10 2 8 11
M  V30 11 1 8 12
M  V30 12 2 10 13
M  V30 13 1 10 14
M  V30 14 2 12 15
M  V30 15 1 12 16
M  V30 16 1 15 17
M  V30 17 1 15 18
M  V30 18 2 16 19
M  V30 19 2 18 20
M  V30 20 1 19 21
M  V30 21 1 7 9
M  V30 22 1 19 20
M  V30 23 1 4 22
M  V30 24 1 5 23
M  V30 25 1 6 24
M  V30 26 1 9 25
M  V30 27 1 16 26
M  V30 28 1 17 27
M  V30 29 1 18 28
M  V30 30 1 20 29
M  V30 END BOND
M  V30 END CTAB
M  END
>  <Column 1>
3220

>  <level_0>
5378

>  <index>
5379

>  <Unnamed: 0>
5379

>  <NO.>
5391

>  <Name>
niclosamide

>  <IUPAC_name>
5-chloro-n-(2-chloro-4-nitrophenyl)-2-hydroxybenzamide

>  <SMILES>
O=C(Nc1ccc([N+](=O)[O-])cc1Cl)c1cc(Cl)ccc1O

>  <CID>
4477

>  <logBB>


>  <BBB+/BBB->
BBB-

>  <Inchi>
InChI=1S/C13H8Cl2N2O4/c14-7-1-4-12(18)9(5-7)13(19)16-11-3-2-8(17(20)21)6-10(11)15/h1-6-18H-(H-16-19)

>  <threshold>


>  <reference>
R14|

>  <group>
C

>  <Class>
-1

>  <ABC>
16.05

>  <ABCGG>
13.59

>  <nAcid>
0

>  <nBase>
0

>  <nAromAtom>
12

>  <nAromBond>
12

>  <nAtom>
29

>  <nHeavyAtom>
21

>  <nSpiro>
0

>  <nBridgehead>
0

>  <nHetero>
8

>  <nN>
2

>  <nO>
4

>  <nF>
0

>  <BalabanJ>
1.86

>  <BertzCT>
734.11

>  <nBonds>
30

>  <nBondsO>
22

>  <nBondsS>
16

>  <nBondsD>
2

>  <nBondsT>
0

>  <nBondsA>
12

>  <nBondsM>
14

>  <nBondsKS>
22

>  <nBondsKD>
8

>  <RNCG>
0.27

>  <RPCG>
0.15

>  <FCSP3>
0

>  <SZ>
27.67

>  <Sm>
27.23

>  <Sv>
21.72

>  <Sse>
30.73

>  <Sp>
22.04

>  <Si>
32.38

>  <MZ>
0.95

>  <Mm>
0.94

>  <Mv>
0.75

>  <Mse>
1.06

>  <Mp>
0.76

>  <Mi>
1.12

>  <NsCH3>
0

>  <NdCH2>
0

>  <NssCH2>
0

>  <NtCH>
0

>  <NdsCH>
0

>  <NaaCH>
6

>  <NsssCH>
0

>  <NddC>
0

>  <NtsC>
0

>  <NdssC>
1

>  <NaasC>
6

>  <NaaaC>
0

>  <NssssC>
0

>  <NsNH3>
0

>  <NsNH2>
0

>  <NssNH2>
0

>  <NdNH>
0

>  <NssNH>
1

>  <NaaNH>
0

>  <NtN>
0

>  <NsssNH>
0

>  <NdsN>
0

>  <NaaN>
0

>  <NsssN>
0

>  <NddsN>
1

>  <NaasN>
0

>  <NssssN>
0

>  <NsOH>
1

>  <NdO>
2

>  <NssO>
0

>  <NaaO>
0

>  <NsF>
0

>  <NsSiH3>
0

>  <NssSiH2>
0

>  <NsssSiH>
0

>  <NssssSi>
0

>  <NsPH2>
0

>  <NssPH>
0

>  <NsssP>
0

>  <NdsssP>
0

>  <NsssssP>
0

>  <NsSH>
0

>  <NdS>
0

>  <NssS>
0

>  <NaaS>
0

>  <NdssS>
0

>  <NddssS>
0

>  <NsCl>
2

>  <NsBr>
0

>  <NsI>
0

>  <fragCpx>
64.08

>  <fMF>
0.48

>  <nHBAcc>
4

>  <nHBDon>
2

>  <Kier1>
17.36

>  <Kier2>
7.51

>  <Lipinski>
1

>  <GhoseFilter>
1

>  <FilterItLogS>
-4.65

>  <VMcGowan>
205.83

>  <LabuteASA>
128.62

>  <PEOE_VSA1>
10.42

>  <PEOE_VSA2>
14.91

>  <PEOE_VSA3>
0

>  <PEOE_VSA4>
0

>  <PEOE_VSA5>
0

>  <PEOE_VSA6>
23.2

>  <PEOE_VSA7>
24.27

>  <PEOE_VSA8>
17.16

>  <PEOE_VSA9>
21.2

>  <PEOE_VSA10>
5.75

>  <PEOE_VSA11>
0

>  <PEOE_VSA12>
0

>  <PEOE_VSA13>
11.59

>  <SMR_VSA1>
14.82

>  <SMR_VSA2>
0

>  <SMR_VSA3>
0

>  <SMR_VSA4>
0

>  <SMR_VSA5>
0

>  <SMR_VSA6>
5.32

>  <SMR_VSA7>
62.12

>  <SMR_VSA8>
0

>  <SMR_VSA9>
5.75

>  <SlogP_VSA1>
5.32

>  <SlogP_VSA2>
15.94

>  <SlogP_VSA3>
0

>  <SlogP_VSA4>
10.11

>  <SlogP_VSA5>
10.36

>  <SlogP_VSA6>
36.4

>  <SlogP_VSA7>
10.05

>  <SlogP_VSA8>
0

>  <SlogP_VSA9>
0

>  <SlogP_VSA10>
11.37

>  <SlogP_VSA11>
5.75

>  <EState_VSA1>
10.83

>  <EState_VSA2>
32.73

>  <EState_VSA3>
0

>  <EState_VSA4>
6.07

>  <EState_VSA5>
30.33

>  <EState_VSA6>
0

>  <EState_VSA7>
0

>  <EState_VSA8>
5.32

>  <EState_VSA9>
23.2

>  <EState_VSA10>
20.02

>  <VSA_EState1>
0

>  <VSA_EState2>
22.04

>  <VSA_EState3>
22.98

>  <VSA_EState4>
-0.04

>  <VSA_EState5>
-0.87

>  <VSA_EState6>
7.65

>  <VSA_EState7>
0

>  <VSA_EState8>
0

>  <VSA_EState9>
0

>  <apol>
36.81

>  <bpol>
11.65

>  <nRing>
2

>  <nHRing>
0

>  <naRing>
2

>  <naHRing>
0

>  <nARing 2>
0

>  <nAHRing 2>
0

>  <nFRing>
0

>  <nFHRing>
0

>  <nFaRing>
0

>  <nFaHRing>
0

>  <nFARing 2>
0

>  <nFAHRing 2>
0

>  <nRot>
3

>  <SLogP>
3.86

>  <SMR>
79.18

>  <TopoPSA(NO)>
92.47

>  <TopoPSA>
92.47

>  <JGI1>
0.25

>  <JGI2>
0.1

>  <JGI3>
0.05

>  <JGI4>
0.06

>  <JGI5>
0.03

>  <Diameter>
11

>  <Radius>
6

>  <TMWC10>
115.76

>  <TSRW10>
54.68

>  <MW>
325.99

>  <AMW>
11.24

>  <WPath>
980

>  <WPol>
32

>  <Zagreb1>
106

>  <Zagreb2>
122

>  <mZagreb2>
4.61

>  <yes>


>  <nAR-cont>
0.336376

>  <nHA-cont>
0.994529749

>  <MWHBN>
0.332314362

>  <MWHBN-cont>
0.734694885

>  <TPSA-cont>
0.35450198

>  <pka_cont>
0.97

>  <yes.1>


>  <BBB_SCORE>
3.626952037

>  <MMFF94 Energy>
52.83

$$$$
Compound 2583
Actelion Java MolfileCreator 2.0

  0  0  0  0  0  0              0 V3000
M  V30 BEGIN CTAB
M  V30 COUNTS 33 35 0 0 0
M  V30 BEGIN ATOM
M  V30 1 Cl -4.1661 -2.449 -0.0815 0
M  V30 2 C -2.5129 -2.2137 0.3286 0
M  V30 3 C -1.8442 -1.0769 -0.1193 0
M  V30 4 C -1.8552 -3.1562 1.114 0
M  V30 5 C -0.4977 -0.8742 0.2233 0
M  V30 6 C -0.5093 -2.9721 1.4373 0
M  V30 7 C 0.1624 0.3957 -0.2047 0
M  V30 8 C 0.1832 -1.8467 0.9742 0
M  V30 9 N 1.3471 0.467 -0.7118 0
M  V30 10 C -0.5844 1.6852 -0.0417 0
M  V30 11 N 1.5407 -1.7601 1.3087 0
M  V30 12 C 2.1529 -0.7597 -0.87 0 CFG=2
M  V30 13 C -0.4054 2.6971 -0.9929 0
M  V30 14 C -1.4253 1.9078 1.0566 0
M  V30 15 C 2.5475 -1.2625 0.5127 0
M  V30 16 C 3.3712 -0.4523 -1.7261 0
M  V30 17 C -1.0868 3.9085 -0.8647 0
M  V30 18 C -2.1056 3.1215 1.1803 0
M  V30 19 O 3.7015 -1.2894 0.9411 0
M  V30 20 O 3.8195 0.6357 -2.0538 0
M  V30 21 O 3.9732 -1.5765 -2.186 0
M  V30 22 C -1.9398 4.1178 0.2183 0
M  V30 23 H -2.3755 -0.3506 -0.7308 0
M  V30 24 H -2.3794 -4.0409 1.4679 0
M  V30 25 H -0.0035 -3.7296 2.0326 0
M  V30 26 H 1.8683 -2.1653 2.1776 0
M  V30 27 H 1.5788 -1.5219 -1.412 0
M  V30 28 H 0.2688 2.5475 -1.8339 0
M  V30 29 H -1.5474 1.1585 1.8336 0
M  V30 30 H -0.9441 4.6909 -1.606 0
M  V30 31 H -2.7574 3.2956 2.033 0
M  V30 32 H 4.7485 -1.2236 -2.6721 0
M  V30 33 H -2.4653 5.0644 0.3193 0
M  V30 END ATOM
M  V30 BEGIN BOND
M  V30 1 1 1 2
M  V30 2 2 2 3
M  V30 3 1 2 4
M  V30 4 1 3 5
M  V30 5 2 4 6
M  V30 6 1 5 7
M  V30 7 2 5 8
M  V30 8 2 7 9
M  V30 9 1 7 10
M  V30 10 1 8 11
M  V30 11 1 9 12
M  V30 12 2 10 13
M  V30 13 1 10 14
M  V30 14 1 11 15
M  V30 15 1 12 16
M  V30 16 1 13 17
M  V30 17 2 14 18
M  V30 18 2 15 19
M  V30 19 2 16 20
M  V30 20 1 16 21
M  V30 21 2 17 22
M  V30 22 1 6 8
M  V30 23 1 12 15
M  V30 24 1 18 22
M  V30 25 1 3 23
M  V30 26 1 4 24
M  V30 27 1 6 25
M  V30 28 1 11 26
M  V30 29 1 12 27
M  V30 30 1 13 28
M  V30 31 1 14 29
M  V30 32 1 17 30
M  V30 33 1 18 31
M  V30 34 1 21 32
M  V30 35 1 22 33
M  V30 END BOND
M  V30 BEGIN COLLECTION
M  V30 MDLV30/STERAC1 ATOMS=(1 12)
M  V30 END COLLECTION
M  V30 END CTAB
M  END
>  <Column 1>
3222

>  <level_0>
5380

>  <index>
5381

>  <Unnamed: 0>
5381

>  <NO.>
5393

>  <Name>
chlorazepate

>  <IUPAC_name>
7-chloro-2-oxo-5-phenyl-1-3-dihydro-1-4-benzodiazepine-3-carboxylic acid

>  <SMILES>
O=C(O)C1N=C(c2ccccc2)c2cc(Cl)ccc2NC1=O

>  <CID>
2809

>  <logBB>


>  <BBB+/BBB->
BBB+

>  <Inchi>
InChI=1S/C16H11ClN2O3/c17-10-6-7-12-11(8-10)13(9-4-2-1-3-5-9)19-14(16(21)22)15(20)18-12/h1-8-14H-(H-18-20)(H-21-22)

>  <threshold>


>  <reference>
R14|R15|R23|R26|R50|

>  <group>
C

>  <Class>
-1

>  <ABC>
17.21

>  <ABCGG>
14.27

>  <nAcid>
1

>  <nBase>
0

>  <nAromAtom>
12

>  <nAromBond>
12

>  <nAtom>
33

>  <nHeavyAtom>
22

>  <nSpiro>
0

>  <nBridgehead>
0

>  <nHetero>
6

>  <nN>
2

>  <nO>
3

>  <nF>
0

>  <BalabanJ>
1.83

>  <BertzCT>
787.23

>  <nBonds>
35

>  <nBondsO>
24

>  <nBondsS>
20

>  <nBondsD>
3

>  <nBondsT>
0

>  <nBondsA>
12

>  <nBondsM>
15

>  <nBondsKS>
26

>  <nBondsKD>
9

>  <RNCG>
0.23

>  <RPCG>
0.16

>  <FCSP3>
0.06

>  <SZ>
27

>  <Sm>
26.2

>  <Sv>
23.73

>  <Sse>
33.97

>  <Sp>
24.46

>  <Si>
36.65

>  <MZ>
0.82

>  <Mm>
0.79

>  <Mv>
0.72

>  <Mse>
1.03

>  <Mp>
0.74

>  <Mi>
1.11

>  <NsCH3>
0

>  <NdCH2>
0

>  <NssCH2>
0

>  <NtCH>
0

>  <NdsCH>
0

>  <NaaCH>
8

>  <NsssCH>
1

>  <NddC>
0

>  <NtsC>
0

>  <NdssC>
3

>  <NaasC>
4

>  <NaaaC>
0

>  <NssssC>
0

>  <NsNH3>
0

>  <NsNH2>
0

>  <NssNH2>
0

>  <NdNH>
0

>  <NssNH>
1

>  <NaaNH>
0

>  <NtN>
0

>  <NsssNH>
0

>  <NdsN>
1

>  <NaaN>
0

>  <NsssN>
0

>  <NddsN>
0

>  <NaasN>
0

>  <NssssN>
0

>  <NsOH>
1

>  <NdO>
2

>  <NssO>
0

>  <NaaO>
0

>  <NsF>
0

>  <NsSiH3>
0

>  <NssSiH2>
0

>  <NsssSiH>
0

>  <NssssSi>
0

>  <NsPH2>
0

>  <NssPH>
0

>  <NsssP>
0

>  <NdsssP>
0

>  <NsssssP>
0

>  <NsSH>
0

>  <NdS>
0

>  <NssS>
0

>  <NaaS>
0

>  <NdssS>
0

>  <NddssS>
0

>  <NsCl>
1

>  <NsBr>
0

>  <NsI>
0

>  <fragCpx>
114.06

>  <fMF>
0.52

>  <nHBAcc>
3

>  <nHBDon>
2

>  <Kier1>
16.84

>  <Kier2>
7.27

>  <Lipinski>
1

>  <GhoseFilter>
1

>  <FilterItLogS>
-4.25

>  <VMcGowan>
214.83

>  <LabuteASA>
130.81

>  <PEOE_VSA1>
10.42

>  <PEOE_VSA2>
9.79

>  <PEOE_VSA3>
4.79

>  <PEOE_VSA4>
0

>  <PEOE_VSA5>
0

>  <PEOE_VSA6>
41.93

>  <PEOE_VSA7>
18.2

>  <PEOE_VSA8>
16.15

>  <PEOE_VSA9>
11.4

>  <PEOE_VSA10>
0

>  <PEOE_VSA11>
0

>  <PEOE_VSA12>
6.04

>  <PEOE_VSA13>
5.91

>  <SMR_VSA1>
14.7

>  <SMR_VSA2>
0

>  <SMR_VSA3>
0

>  <SMR_VSA4>
4.99

>  <SMR_VSA5>
6.04

>  <SMR_VSA6>
5.32

>  <SMR_VSA7>
64.68

>  <SMR_VSA8>
0

>  <SMR_VSA9>
0

>  <SlogP_VSA1>
5.32

>  <SlogP_VSA2>
28.74

>  <SlogP_VSA3>
9.59

>  <SlogP_VSA4>
0

>  <SlogP_VSA5>
11.13

>  <SlogP_VSA6>
53.52

>  <SlogP_VSA7>
5.02

>  <SlogP_VSA8>
0

>  <SlogP_VSA9>
0

>  <SlogP_VSA10>
5.69

>  <SlogP_VSA11>
0

>  <EState_VSA1>
17.92

>  <EState_VSA2>
0

>  <EState_VSA3>
27.55

>  <EState_VSA4>
0

>  <EState_VSA5>
0

>  <EState_VSA6>
30.33

>  <EState_VSA7>
18.2

>  <EState_VSA8>
10.31

>  <EState_VSA9>
11.6

>  <EState_VSA10>
14.7

>  <VSA_EState1>
0

>  <VSA_EState2>
27.52

>  <VSA_EState3>
12.3

>  <VSA_EState4>
2.22

>  <VSA_EState5>
-1.98

>  <VSA_EState6>
12.52

>  <VSA_EState7>
0

>  <VSA_EState8>
0

>  <VSA_EState9>
0

>  <apol>
40.84

>  <bpol>
14.99

>  <nRing>
3

>  <nHRing>
1

>  <naRing>
2

>  <naHRing>
0

>  <nARing 2>
1

>  <nAHRing 2>
1

>  <nFRing>
1

>  <nFHRing>
1

>  <nFaRing>
0

>  <nFaHRing>
0

>  <nFARing 2>
1

>  <nFAHRing 2>
1

>  <nRot>
2

>  <SLogP>
2.58

>  <SMR>
83.59

>  <TopoPSA(NO)>
78.76

>  <TopoPSA>
78.76

>  <JGI1>
0.19

>  <JGI2>
0.08

>  <JGI3>
0.04

>  <JGI4>
0.04

>  <JGI5>
0.03

>  <Diameter>
8

>  <Radius>
4

>  <TMWC10>
120.63

>  <TSRW10>
64.3

>  <MW>
314.05

>  <AMW>
9.52

>  <WPath>
937

>  <WPol>
39

>  <Zagreb1>
116

>  <Zagreb2>
137

>  <mZagreb2>
4.81

>  <yes>


>  <nAR-cont>
0.816016

>  <nHA-cont>
0.983774276

>  <MWHBN>
0.282143861

>  <MWHBN-cont>
0.890596968

>  <TPSA-cont>
0.450206293

>  <pka_cont>
0.97

>  <yes.1>


>  <BBB_SCORE>
4.521098314

>  <MMFF94 Energy>
110.32

$$$$
Compound 2584
Actelion Java MolfileCreator 2.0

  0  0  0  0  0  0              0 V3000
M  V30 BEGIN CTAB
M  V30 COUNTS 33 34 0 0 0
M  V30 BEGIN ATOM
M  V30 1 O -2.5461 1.5907 -5.0174 0
M  V30 2 C -1.7187 2.4076 -4.6522 0
M  V30 3 O -1.0454 3.153 -5.5485 0
M  V30 4 C -1.2889 2.6949 -3.2434 0
M  V30 5 C -2.234 2.0496 -2.2415 0
M  V30 6 C -1.7396 2.2899 -0.8335 0
M  V30 7 O -1.9542 3.364 -0.2725 0
M  V30 8 C -0.9665 1.2292 -0.1197 0
M  V30 9 C -0.7635 1.3743 1.2577 0
M  V30 10 C -0.4279 0.1163 -0.7715 0
M  V30 11 C -0.044 0.4129 1.9756 0
M  V30 12 C 0.2927 -0.8425 -0.0475 0
M  V30 13 C 0.4952 -0.713 1.336 0
M  V30 14 C 1.2515 -1.7254 2.0908 0
M  V30 15 C 2.5458 -2.1051 1.6977 0
M  V30 16 C 0.7008 -2.3418 3.2269 0
M  V30 17 C 3.2639 -3.0664 2.4141 0
M  V30 18 C 1.4173 -3.3041 3.9437 0
M  V30 19 C 2.6987 -3.6656 3.5367 0
M  V30 20 H -1.4084 2.8787 -6.4168 0
M  V30 21 H -1.2776 3.7806 -3.0929 0
M  V30 22 H -0.269 2.3175 -3.1129 0
M  V30 23 H -2.377 0.9818 -2.4324 0
M  V30 24 H -3.2364 2.4896 -2.3216 0
M  V30 25 H -1.1636 2.2394 1.7843 0
M  V30 26 H -0.5408 -0.0345 -1.8404 0
M  V30 27 H 0.1038 0.5589 3.0443 0
M  V30 28 H 0.692 -1.7075 -0.5752 0
M  V30 29 H 3.0122 -1.641 0.8311 0
M  V30 30 H -0.303 -2.0823 3.5572 0
M  V30 31 H 4.2656 -3.3433 2.0962 0
M  V30 32 H 0.972 -3.7713 4.8182 0
M  V30 33 H 3.2566 -4.4131 4.0944 0
M  V30 END ATOM
M  V30 BEGIN BOND
M  V30 1 2 1 2
M  V30 2 1 2 3
M  V30 3 1 2 4
M  V30 4 1 4 5
M  V30 5 1 5 6
M  V30 6 2 6 7
M  V30 7 1 6 8
M  V30 8 2 8 9
M  V30 9 1 8 10
M  V30 10 1 9 11
M  V30 11 2 10 12
M  V30 12 2 11 13
M  V30 13 1 13 14
M  V30 14 2 14 15
M  V30 15 1 14 16
M  V30 16 1 15 17
M  V30 17 2 16 18
M  V30 18 2 17 19
M  V30 19 1 12 13
M  V30 20 1 18 19
M  V30 21 1 3 20
M  V30 22 1 4 21
M  V30 23 1 4 22
M  V30 24 1 5 23
M  V30 25 1 5 24
M  V30 26 1 9 25
M  V30 27 1 10 26
M  V30 28 1 11 27
M  V30 29 1 12 28
M  V30 30 1 15 29
M  V30 31 1 16 30
M  V30 32 1 17 31
M  V30 33 1 18 32
M  V30 34 1 19 33
M  V30 END BOND
M  V30 END CTAB
M  END
>  <Column 1>
3223

>  <level_0>
5381

>  <index>
5382

>  <Unnamed: 0>
5382

>  <NO.>
5394

>  <Name>
fenbufen

>  <IUPAC_name>
4-oxo-4-(4-phenylphenyl)butanoic acid

>  <SMILES>
O=C(O)CCC(=O)c1ccc(-c2ccccc2)cc1

>  <CID>
3335

>  <logBB>


>  <BBB+/BBB->
BBB-

>  <Inchi>
InChI=1S/C16H14O3/c17-15(10-11-16(18)19)14-8-6-13(7-9-14)12-4-2-1-3-5-12/h1-9H-10-11H2-(H-18-19)

>  <threshold>


>  <reference>
R14|

>  <group>
C

>  <Class>
-1

>  <ABC>
14.39

>  <ABCGG>
11.63

>  <nAcid>
1

>  <nBase>
0

>  <nAromAtom>
12

>  <nAromBond>
12

>  <nAtom>
33

>  <nHeavyAtom>
19

>  <nSpiro>
0

>  <nBridgehead>
0

>  <nHetero>
3

>  <nN>
0

>  <nO>
3

>  <nF>
0

>  <BalabanJ>
1.69

>  <BertzCT>
570.7

>  <nBonds>
34

>  <nBondsO>
20

>  <nBondsS>
20

>  <nBondsD>
2

>  <nBondsT>
0

>  <nBondsA>
12

>  <nBondsM>
14

>  <nBondsKS>
26

>  <nBondsKD>
8

>  <RNCG>
0.31

>  <RPCG>
0.19

>  <FCSP3>
0.13

>  <SZ>
22.33

>  <Sm>
21.17

>  <Sv>
21.94

>  <Sse>
33.21

>  <Sp>
23.03

>  <Si>
36.54

>  <MZ>
0.68

>  <Mm>
0.64

>  <Mv>
0.66

>  <Mse>
1.01

>  <Mp>
0.7

>  <Mi>
1.11

>  <NsCH3>
0

>  <NdCH2>
0

>  <NssCH2>
2

>  <NtCH>
0

>  <NdsCH>
0

>  <NaaCH>
9

>  <NsssCH>
0

>  <NddC>
0

>  <NtsC>
0

>  <NdssC>
2

>  <NaasC>
3

>  <NaaaC>
0

>  <NssssC>
0

>  <NsNH3>
0

>  <NsNH2>
0

>  <NssNH2>
0

>  <NdNH>
0

>  <NssNH>
0

>  <NaaNH>
0

>  <NtN>
0

>  <NsssNH>
0

>  <NdsN>
0

>  <NaaN>
0

>  <NsssN>
0

>  <NddsN>
0

>  <NaasN>
0

>  <NssssN>
0

>  <NsOH>
1

>  <NdO>
2

>  <NssO>
0

>  <NaaO>
0

>  <NsF>
0

>  <NsSiH3>
0

>  <NssSiH2>
0

>  <NsssSiH>
0

>  <NssssSi>
0

>  <NsPH2>
0

>  <NssPH>
0

>  <NsssP>
0

>  <NdsssP>
0

>  <NsssssP>
0

>  <NsSH>
0

>  <NdS>
0

>  <NssS>
0

>  <NaaS>
0

>  <NdssS>
0

>  <NddssS>
0

>  <NsCl>
0

>  <NsBr>
0

>  <NsI>
0

>  <fragCpx>
58.03

>  <fMF>
0.36

>  <nHBAcc>
2

>  <nHBDon>
1

>  <Kier1>
15.39

>  <Kier2>
7.7

>  <Lipinski>
1

>  <GhoseFilter>
1

>  <FilterItLogS>
-3.69

>  <VMcGowan>
197.79

>  <LabuteASA>
111.07

>  <PEOE_VSA1>
5.11

>  <PEOE_VSA2>
9.59

>  <PEOE_VSA3>
0

>  <PEOE_VSA4>
0

>  <PEOE_VSA5>
0

>  <PEOE_VSA6>
54.6

>  <PEOE_VSA7>
11.13

>  <PEOE_VSA8>
11.98

>  <PEOE_VSA9>
6.42

>  <PEOE_VSA10>
0

>  <PEOE_VSA11>
5.78

>  <PEOE_VSA12>
0

>  <PEOE_VSA13>
0

>  <SMR_VSA1>
14.7

>  <SMR_VSA2>
0

>  <SMR_VSA3>
0

>  <SMR_VSA4>
0

>  <SMR_VSA5>
12.84

>  <SMR_VSA6>
0

>  <SMR_VSA7>
60.16

>  <SMR_VSA8>
0

>  <SMR_VSA9>
11.13

>  <SlogP_VSA1>
0

>  <SlogP_VSA2>
16.86

>  <SlogP_VSA3>
4.79

>  <SlogP_VSA4>
0

>  <SlogP_VSA5>
23.2

>  <SlogP_VSA6>
54.6

>  <SlogP_VSA7>
0

>  <SlogP_VSA8>
11.13

>  <SlogP_VSA9>
0

>  <SlogP_VSA10>
0

>  <SlogP_VSA11>
0

>  <EState_VSA1>
5.97

>  <EState_VSA2>
18.62

>  <EState_VSA3>
5.56

>  <EState_VSA4>
11.13

>  <EState_VSA5>
0

>  <EState_VSA6>
12.13

>  <EState_VSA7>
42.46

>  <EState_VSA8>
0

>  <EState_VSA9>
5.11

>  <EState_VSA10>
9.59

>  <VSA_EState1>
0

>  <VSA_EState2>
22.16

>  <VSA_EState3>
8.55

>  <VSA_EState4>
2.68

>  <VSA_EState5>
-1.09

>  <VSA_EState6>
17.12

>  <VSA_EState7>
-0.08

>  <VSA_EState8>
0

>  <VSA_EState9>
0

>  <apol>
38.46

>  <bpol>
15.78

>  <nRing>
2

>  <nHRing>
0

>  <naRing>
2

>  <naHRing>
0

>  <nARing 2>
0

>  <nAHRing 2>
0

>  <nFRing>
0

>  <nFHRing>
0

>  <nFaRing>
0

>  <nFaHRing>
0

>  <nFARing 2>
0

>  <nFAHRing 2>
0

>  <nRot>
5

>  <SLogP>
3.4

>  <SMR>
73.08

>  <TopoPSA(NO)>
54.37

>  <TopoPSA>
54.37

>  <JGI1>
0.18

>  <JGI2>
0.09

>  <JGI3>
0.03

>  <JGI4>
0.02

>  <JGI5>
0.03

>  <Diameter>
12

>  <Radius>
6

>  <TMWC10>
109.49

>  <TSRW10>
51.66

>  <MW>
254.09

>  <AMW>
7.7

>  <WPath>
808

>  <WPol>
25

>  <Zagreb1>
92

>  <Zagreb2>
103

>  <mZagreb2>
4.31

>  <yes>


>  <nAR-cont>
0.336376

>  <nHA-cont>
0.998649058

>  <MWHBN>
0.188203401

>  <MWHBN-cont>
0.994455877

>  <TPSA-cont>
0.620463638

>  <pka_cont>
0.97

>  <yes.1>


>  <BBB_SCORE>
4.55263615

>  <MMFF94 Energy>
23.356

$$$$
Compound 2585
Actelion Java MolfileCreator 2.0

  0  0  0  0  0  0              0 V3000
M  V30 BEGIN CTAB
M  V30 COUNTS 52 54 0 0 0
M  V30 BEGIN ATOM
M  V30 1 Cl 5.4561 2.7252 5.6974 0
M  V30 2 C 4.1719 2.1283 4.7201 0
M  V30 3 C 3.8723 2.7544 3.5129 0
M  V30 4 C 3.4368 1.0238 5.1421 0
M  V30 5 C 2.8288 2.271 2.7188 0
M  V30 6 C 2.3944 0.5402 4.3478 0
M  V30 7 C 2.0773 1.1545 3.1225 0
M  V30 8 C 0.9244 0.6038 2.2849 0 CFG=2
M  V30 9 O 0.9902 1.136 0.9492 0
M  V30 10 C -0.4347 0.9122 2.9053 0
M  V30 11 C 0.8938 0.1513 -0.0842 0
M  V30 12 N -1.074 -0.1076 3.5431 0
M  V30 13 C -0.982 2.1934 2.8214 0
M  V30 14 C -0.5203 -0.4103 -0.2129 0
M  V30 15 C 1.2911 0.8286 -1.3929 0
M  V30 16 C -2.2756 0.1636 4.0986 0
M  V30 17 C -2.2216 2.4389 3.4042 0
M  V30 18 C -0.649 -1.316 -1.4369 0
M  V30 19 C 1.1228 -0.1184 -2.5756 0
M  V30 20 C -2.8834 1.4065 4.056 0
M  V30 21 N -0.2586 -0.6188 -2.6721 0
M  V30 22 C -0.3991 -1.4746 -3.8634 0
M  V30 23 C -1.8601 -1.7764 -4.2142 0
M  V30 24 C -1.9584 -2.5315 -5.5346 0
M  V30 25 C -3.3895 -2.8567 -5.8438 0
M  V30 26 O -3.9973 -3.8486 -5.4785 0
M  V30 27 O -3.9971 -1.9013 -6.5705 0
M  V30 28 H 4.4432 3.6181 3.1834 0
M  V30 29 H 3.6649 0.5373 6.0864 0
M  V30 30 H 2.6058 2.7741 1.7797 0
M  V30 31 H 1.8188 -0.3181 4.6928 0
M  V30 32 H 1.0558 -0.4864 2.2493 0
M  V30 33 H 1.6089 -0.6567 0.1189 0
M  V30 34 H -0.4507 2.9865 2.304 0
M  V30 35 H -0.7879 -0.9809 0.6831 0
M  V30 36 H -1.2444 0.413 -0.2724 0
M  V30 37 H 2.3312 1.1715 -1.3307 0
M  V30 38 H 0.6889 1.7348 -1.5438 0
M  V30 39 H -2.7546 -0.6741 4.597 0
M  V30 40 H -2.6657 3.4286 3.348 0
M  V30 41 H -0.0395 -2.2175 -1.2919 0
M  V30 42 H -1.6947 -1.6359 -1.4904 0
M  V30 43 H 1.382 0.434 -3.4871 0
M  V30 44 H 1.8326 -0.9514 -2.4872 0
M  V30 45 H -3.8502 1.5663 4.5197 0
M  V30 46 H 0.1602 -2.4108 -3.738 0
M  V30 47 H 0.0411 -0.9557 -4.7251 0
M  V30 48 H -2.4292 -0.8405 -4.2835 0
M  V30 49 H -2.3334 -2.3763 -3.4285 0
M  V30 50 H -1.5347 -1.9497 -6.3612 0
M  V30 51 H -1.399 -3.4731 -5.495 0
M  V30 52 H -4.9158 -2.2267 -6.6744 0
M  V30 END ATOM
M  V30 BEGIN BOND
M  V30 1 1 1 2
M  V30 2 2 2 3
M  V30 3 1 2 4
M  V30 4 1 3 5
M  V30 5 2 4 6
M  V30 6 2 5 7
M  V30 7 1 7 8
M  V30 8 1 8 9
M  V30 9 1 8 10
M  V30 10 1 9 11
M  V30 11 2 10 12
M  V30 12 1 10 13
M  V30 13 1 11 14
M  V30 14 1 11 15
M  V30 15 1 12 16
M  V30 16 2 13 17
M  V30 17 1 14 18
M  V30 18 1 15 19
M  V30 19 2 16 20
M  V30 20 1 18 21
M  V30 21 1 21 22
M  V30 22 1 22 23
M  V30 23 1 23 24
M  V30 24 1 24 25
M  V30 25 2 25 26
M  V30 26 1 25 27
M  V30 27 1 6 7
M  V30 28 1 17 20
M  V30 29 1 19 21
M  V30 30 1 3 28
M  V30 31 1 4 29
M  V30 32 1 5 30
M  V30 33 1 6 31
M  V30 34 1 8 32
M  V30 35 1 11 33
M  V30 36 1 13 34
M  V30 37 1 14 35
M  V30 38 1 14 36
M  V30 39 1 15 37
M  V30 40 1 15 38
M  V30 41 1 16 39
M  V30 42 1 17 40
M  V30 43 1 18 41
M  V30 44 1 18 42
M  V30 45 1 19 43
M  V30 46 1 19 44
M  V30 47 1 20 45
M  V30 48 1 22 46
M  V30 49 1 22 47
M  V30 50 1 23 48
M  V30 51 1 23 49
M  V30 52 1 24 50
M  V30 53 1 24 51
M  V30 54 1 27 52
M  V30 END BOND
M  V30 BEGIN COLLECTION
M  V30 MDLV30/STERAC1 ATOMS=(1 8)
M  V30 END COLLECTION
M  V30 END CTAB
M  END
>  <Column 1>
3224

>  <level_0>
5382

>  <index>
5383

>  <Unnamed: 0>
5383

>  <NO.>
5395

>  <Name>
4-(4-((4-chlorophenyl)(pyridin-2-yl)methoxy)piperidin-1-yl)butanoic acid

>  <IUPAC_name>
4-[4-[(4-chlorophenyl)-pyridin-2-ylmethoxy]piperidin-1-yl]butanoic acid

>  <SMILES>
O=C(O)CCCN1CCC(OC(c2ccc(Cl)cc2)c2ccccn2)CC1

>  <CID>
2350

>  <logBB>


>  <BBB+/BBB->
BBB-

>  <Inchi>
InChI=1S/C21H25ClN2O3/c22-17-8-6-16(7-9-17)21(19-4-1-2-12-23-19)27-18-10-14-24(15-11-18)13-3-5-20(25)26/h1-2-4-6-9-12-18-21H-3-5-10-11-13-15H2-(H-25-26)

>  <threshold>


>  <reference>
R14|

>  <group>
C

>  <Class>
-1

>  <ABC>
20.75

>  <ABCGG>
15.61

>  <nAcid>
1

>  <nBase>
1

>  <nAromAtom>
12

>  <nAromBond>
12

>  <nAtom>
52

>  <nHeavyAtom>
27

>  <nSpiro>
0

>  <nBridgehead>
0

>  <nHetero>
6

>  <nN>
2

>  <nO>
3

>  <nF>
0

>  <BalabanJ>
1.47

>  <BertzCT>
715.97

>  <nBonds>
54

>  <nBondsO>
29

>  <nBondsS>
41

>  <nBondsD>
1

>  <nBondsT>
0

>  <nBondsA>
12

>  <nBondsM>
13

>  <nBondsKS>
47

>  <nBondsKD>
7

>  <RNCG>
0.22

>  <RPCG>
0.14

>  <FCSP3>
0.43

>  <SZ>
34.33

>  <Sm>
32.38

>  <Sv>
32.52

>  <Sse>
52.18

>  <Sp>
35.05

>  <Si>
58.55

>  <MZ>
0.66

>  <Mm>
0.62

>  <Mv>
0.63

>  <Mse>
1

>  <Mp>
0.67

>  <Mi>
1.13

>  <NsCH3>
0

>  <NdCH2>
0

>  <NssCH2>
7

>  <NtCH>
0

>  <NdsCH>
0

>  <NaaCH>
8

>  <NsssCH>
2

>  <NddC>
0

>  <NtsC>
0

>  <NdssC>
1

>  <NaasC>
3

>  <NaaaC>
0

>  <NssssC>
0

>  <NsNH3>
0

>  <NsNH2>
0

>  <NssNH2>
0

>  <NdNH>
0

>  <NssNH>
0

>  <NaaNH>
0

>  <NtN>
0

>  <NsssNH>
0

>  <NdsN>
0

>  <NaaN>
1

>  <NsssN>
1

>  <NddsN>
0

>  <NaasN>
0

>  <NssssN>
0

>  <NsOH>
1

>  <NdO>
1

>  <NssO>
1

>  <NaaO>
0

>  <NsF>
0

>  <NsSiH3>
0

>  <NssSiH2>
0

>  <NsssSiH>
0

>  <NssssSi>
0

>  <NsPH2>
0

>  <NssPH>
0

>  <NsssP>
0

>  <NdsssP>
0

>  <NsssssP>
0

>  <NsSH>
0

>  <NdS>
0

>  <NssS>
0

>  <NaaS>
0

>  <NdssS>
0

>  <NddssS>
0

>  <NsCl>
1

>  <NsBr>
0

>  <NsI>
0

>  <fragCpx>
139.06

>  <fMF>
0.38

>  <nHBAcc>
4

>  <nHBDon>
1

>  <Kier1>
21.7

>  <Kier2>
11.25

>  <Lipinski>
1

>  <GhoseFilter>
1

>  <FilterItLogS>
-4.75

>  <VMcGowan>
293.88

>  <LabuteASA>
164.48

>  <PEOE_VSA1>
14.74

>  <PEOE_VSA2>
9.78

>  <PEOE_VSA3>
0

>  <PEOE_VSA4>
0

>  <PEOE_VSA5>
0

>  <PEOE_VSA6>
29.8

>  <PEOE_VSA7>
55.64

>  <PEOE_VSA8>
30.73

>  <PEOE_VSA9>
11.8

>  <PEOE_VSA10>
6.1

>  <PEOE_VSA11>
0

>  <PEOE_VSA12>
0

>  <PEOE_VSA13>
0

>  <SMR_VSA1>
14.64

>  <SMR_VSA2>
0

>  <SMR_VSA3>
9.88

>  <SMR_VSA4>
0

>  <SMR_VSA5>
37.89

>  <SMR_VSA6>
19.63

>  <SMR_VSA7>
64.94

>  <SMR_VSA8>
0

>  <SMR_VSA9>
0

>  <SlogP_VSA1>
0

>  <SlogP_VSA2>
46.7

>  <SlogP_VSA3>
9.53

>  <SlogP_VSA4>
0

>  <SlogP_VSA5>
43.04

>  <SlogP_VSA6>
48.66

>  <SlogP_VSA7>
5.02

>  <SlogP_VSA8>
0

>  <SlogP_VSA9>
0

>  <SlogP_VSA10>
0

>  <SlogP_VSA11>
0

>  <EState_VSA1>
5.97

>  <EState_VSA2>
18.63

>  <EState_VSA3>
11.44

>  <EState_VSA4>
43.73

>  <EState_VSA5>
0

>  <EState_VSA6>
6.2

>  <EState_VSA7>
42.46

>  <EState_VSA8>
9.88

>  <EState_VSA9>
21.44

>  <EState_VSA10>
4.79

>  <VSA_EState1>
6.47

>  <VSA_EState2>
17.46

>  <VSA_EState3>
9.47

>  <VSA_EState4>
1.94

>  <VSA_EState5>
-0.73

>  <VSA_EState6>
13.59

>  <VSA_EState7>
4.52

>  <VSA_EState8>
2.69

>  <VSA_EState9>
0

>  <apol>
58.53

>  <bpol>
31.04

>  <nRing>
3

>  <nHRing>
2

>  <naRing>
2

>  <naHRing>
1

>  <nARing 2>
1

>  <nAHRing 2>
1

>  <nFRing>
0

>  <nFHRing>
0

>  <nFaRing>
0

>  <nFaHRing>
0

>  <nFARing 2>
0

>  <nFAHRing 2>
0

>  <nRot>
8

>  <SLogP>
4.17

>  <SMR>
104.95

>  <TopoPSA(NO)>
62.66

>  <TopoPSA>
62.66

>  <JGI1>
0.17

>  <JGI2>
0.06

>  <JGI3>
0.03

>  <JGI4>
0.03

>  <JGI5>
0.02

>  <Diameter>
15

>  <Radius>
8

>  <TMWC10>
130.24

>  <TSRW10>
61.56

>  <MW>
388.16

>  <AMW>
7.46

>  <WPath>
2084

>  <WPol>
37

>  <Zagreb1>
134

>  <Zagreb2>
151

>  <mZagreb2>
6.06

>  <yes>


>  <nAR-cont>
0.816016

>  <nHA-cont>
0.860070871

>  <MWHBN>
0.25378422

>  <MWHBN-cont>
0.953189774

>  <TPSA-cont>
0.56259429

>  <pka_cont>
0.97

>  <yes.1>


>  <BBB_SCORE>
4.716060113

>  <MMFF94 Energy>
45.452

$$$$
Compound 2586
Actelion Java MolfileCreator 2.0

  0  0  0  0  0  0              0 V3000
M  V30 BEGIN CTAB
M  V30 COUNTS 24 24 0 0 0
M  V30 BEGIN ATOM
M  V30 1 O -3.8361 -0.5473 1.0948 0
M  V30 2 C -2.9009 -1.31 0.9248 0
M  V30 3 O -2.919 -2.5454 1.4632 0
M  V30 4 C -1.6386 -1.0561 0.1469 0
M  V30 5 C -1.6577 0.3217 -0.5164 0
M  V30 6 C -0.4377 0.5727 -1.4074 0
M  V30 7 C 0.8636 0.6418 -0.6474 0
M  V30 8 C 1.1473 1.7381 0.1787 0
M  V30 9 C 1.8049 -0.3909 -0.751 0
M  V30 10 C 2.3472 1.7981 0.8889 0
M  V30 11 C 3.0045 -0.3292 -0.0398 0
M  V30 12 C 3.2751 0.7644 0.78 0
M  V30 13 H -3.7731 -2.5822 1.9427 0
M  V30 14 H -1.5475 -1.8343 -0.6188 0
M  V30 15 H -0.7963 -1.1348 0.8419 0
M  V30 16 H -1.7379 1.1005 0.2525 0
M  V30 17 H -2.5594 0.4096 -1.1362 0
M  V30 18 H -0.3821 -0.2015 -2.1828 0
M  V30 19 H -0.5724 1.5211 -1.9433 0
M  V30 20 H 0.4338 2.5538 0.2729 0
M  V30 21 H 1.6101 -1.2526 -1.3852 0
M  V30 22 H 2.5578 2.6524 1.5269 0
M  V30 23 H 3.7283 -1.1353 -0.1259 0
M  V30 24 H 4.2094 0.8119 1.333 0
M  V30 END ATOM
M  V30 BEGIN BOND
M  V30 1 2 1 2
M  V30 2 1 2 3
M  V30 3 1 2 4
M  V30 4 1 4 5
M  V30 5 1 5 6
M  V30 6 1 6 7
M  V30 7 2 7 8
M  V30 8 1 7 9
M  V30 9 1 8 10
M  V30 10 2 9 11
M  V30 11 2 10 12
M  V30 12 1 11 12
M  V30 13 1 3 13
M  V30 14 1 4 14
M  V30 15 1 4 15
M  V30 16 1 5 16
M  V30 17 1 5 17
M  V30 18 1 6 18
M  V30 19 1 6 19
M  V30 20 1 8 20
M  V30 21 1 9 21
M  V30 22 1 10 22
M  V30 23 1 11 23
M  V30 24 1 12 24
M  V30 END BOND
M  V30 END CTAB
M  END
>  <Column 1>
3225

>  <level_0>
5383

>  <index>
5384

>  <Unnamed: 0>
5384

>  <NO.>
5396

>  <Name>
4-phenylbutyric acid

>  <IUPAC_name>
4-phenylbutanoic acid

>  <SMILES>
O=C(O)CCCc1ccccc1

>  <CID>
4775

>  <logBB>


>  <BBB+/BBB->
BBB-

>  <Inchi>
InChI=1S/C10H12O2/c11-10(12)8-4-7-9-5-2-1-3-6-9/h1-3-5-6H-4-7-8H2-(H-11-12)

>  <threshold>


>  <reference>
R14|

>  <group>
C

>  <Class>
-1

>  <ABC>
8.7

>  <ABCGG>
7.79

>  <nAcid>
1

>  <nBase>
0

>  <nAromAtom>
6

>  <nAromBond>
6

>  <nAtom>
24

>  <nHeavyAtom>
12

>  <nSpiro>
0

>  <nBridgehead>
0

>  <nHetero>
2

>  <nN>
0

>  <nO>
2

>  <nF>
0

>  <BalabanJ>
1.98

>  <BertzCT>
241.28

>  <nBonds>
24

>  <nBondsO>
12

>  <nBondsS>
17

>  <nBondsD>
1

>  <nBondsT>
0

>  <nBondsA>
6

>  <nBondsM>
7

>  <nBondsKS>
20

>  <nBondsKD>
4

>  <RNCG>
0.42

>  <RPCG>
0.26

>  <FCSP3>
0.3

>  <SZ>
14.67

>  <Sm>
13.67

>  <Sv>
14.68

>  <Sse>
23.99

>  <Sp>
15.75

>  <Si>
26.91

>  <MZ>
0.61

>  <Mm>
0.57

>  <Mv>
0.61

>  <Mse>
1

>  <Mp>
0.66

>  <Mi>
1.12

>  <NsCH3>
0

>  <NdCH2>
0

>  <NssCH2>
3

>  <NtCH>
0

>  <NdsCH>
0

>  <NaaCH>
5

>  <NsssCH>
0

>  <NddC>
0

>  <NtsC>
0

>  <NdssC>
1

>  <NaasC>
1

>  <NaaaC>
0

>  <NssssC>
0

>  <NsNH3>
0

>  <NsNH2>
0

>  <NssNH2>
0

>  <NdNH>
0

>  <NssNH>
0

>  <NaaNH>
0

>  <NtN>
0

>  <NsssNH>
0

>  <NdsN>
0

>  <NaaN>
0

>  <NsssN>
0

>  <NddsN>
0

>  <NaasN>
0

>  <NssssN>
0

>  <NsOH>
1

>  <NdO>
1

>  <NssO>
0

>  <NaaO>
0

>  <NsF>
0

>  <NsSiH3>
0

>  <NssSiH2>
0

>  <NsssSiH>
0

>  <NssssSi>
0

>  <NsPH2>
0

>  <NssPH>
0

>  <NsssP>
0

>  <NdsssP>
0

>  <NsssssP>
0

>  <NsSH>
0

>  <NdS>
0

>  <NssS>
0

>  <NaaS>
0

>  <NdssS>
0

>  <NddssS>
0

>  <NsCl>
0

>  <NsBr>
0

>  <NsI>
0

>  <fragCpx>
12.02

>  <fMF>
0.25

>  <nHBAcc>
1

>  <nHBDon>
1

>  <Kier1>
10.08

>  <Kier2>
5.61

>  <Lipinski>
1

>  <GhoseFilter>
1

>  <FilterItLogS>
-2.22

>  <VMcGowan>
135.44

>  <LabuteASA>
71.85

>  <PEOE_VSA1>
5.11

>  <PEOE_VSA2>
4.79

>  <PEOE_VSA3>
0

>  <PEOE_VSA4>
0

>  <PEOE_VSA5>
0

>  <PEOE_VSA6>
30.33

>  <PEOE_VSA7>
18.41

>  <PEOE_VSA8>
6.42

>  <PEOE_VSA9>
0

>  <PEOE_VSA10>
0

>  <PEOE_VSA11>
0

>  <PEOE_VSA12>
0

>  <PEOE_VSA13>
0

>  <SMR_VSA1>
9.9

>  <SMR_VSA2>
0

>  <SMR_VSA3>
0

>  <SMR_VSA4>
0

>  <SMR_VSA5>
19.26

>  <SMR_VSA6>
0

>  <SMR_VSA7>
35.9

>  <SMR_VSA8>
0

>  <SMR_VSA9>
0

>  <SlogP_VSA1>
0

>  <SlogP_VSA2>
11.08

>  <SlogP_VSA3>
11.22

>  <SlogP_VSA4>
0

>  <SlogP_VSA5>
18.41

>  <SlogP_VSA6>
30.33

>  <SlogP_VSA7>
0

>  <SlogP_VSA8>
0

>  <SlogP_VSA9>
0

>  <SlogP_VSA10>
0

>  <SlogP_VSA11>
0

>  <EState_VSA1>
5.97

>  <EState_VSA2>
6.42

>  <EState_VSA3>
0

>  <EState_VSA4>
12.84

>  <EState_VSA5>
5.56

>  <EState_VSA6>
0

>  <EState_VSA7>
30.33

>  <EState_VSA8>
0

>  <EState_VSA9>
5.11

>  <EState_VSA10>
4.79

>  <VSA_EState1>
0

>  <VSA_EState2>
10.19

>  <VSA_EState3>
8.39

>  <VSA_EState4>
1.21

>  <VSA_EState5>
-0.72

>  <VSA_EState6>
9.93

>  <VSA_EState7>
1.83

>  <VSA_EState8>
0

>  <VSA_EState9>
0

>  <apol>
26.31

>  <bpol>
12.91

>  <nRing>
1

>  <nHRing>
0

>  <naRing>
1

>  <naHRing>
0

>  <nARing 2>
0

>  <nAHRing 2>
0

>  <nFRing>
0

>  <nFHRing>
0

>  <nFaRing>
0

>  <nFaHRing>
0

>  <nFARing 2>
0

>  <nFAHRing 2>
0

>  <nRot>
4

>  <SLogP>
2.09

>  <SMR>
47.02

>  <TopoPSA(NO)>
37.3

>  <TopoPSA>
37.3

>  <JGI1>
0.17

>  <JGI2>
0.05

>  <JGI3>
0.03

>  <JGI4>
0.02

>  <JGI5>
0.03

>  <Diameter>
8

>  <Radius>
4

>  <TMWC10>
86.8

>  <TSRW10>
41.17

>  <MW>
164.08

>  <AMW>
6.84

>  <WPath>
233

>  <WPol>
11

>  <Zagreb1>
52

>  <Zagreb2>
54

>  <mZagreb2>
2.83

>  <yes>


>  <nAR-cont>
0.336376

>  <nHA-cont>
0.785745021

>  <MWHBN>
0.156135685

>  <MWHBN-cont>
0.947440264

>  <TPSA-cont>
0.739622838

>  <pka_cont>
0.97

>  <yes.1>


>  <BBB_SCORE>
4.507527094

>  <MMFF94 Energy>
-8.5335

$$$$
Compound 2587
Actelion Java MolfileCreator 2.0

  0  0  0  0  0  0              0 V3000
M  V30 BEGIN CTAB
M  V30 COUNTS 41 42 0 0 0
M  V30 BEGIN ATOM
M  V30 1 O -2.2247 5.3298 -6.0474 0
M  V30 2 C -2.1583 4.658 -5.0314 0
M  V30 3 O -2.7119 5.061 -3.8766 0
M  V30 4 C -1.4791 3.3479 -4.944 0
M  V30 5 C -0.869 2.8091 -6.0852 0
M  V30 6 C -1.4367 2.6327 -3.7392 0
M  V30 7 O -0.8585 3.4333 -7.3041 0
M  V30 8 C -0.2298 1.5733 -6.026 0
M  V30 9 C -0.7832 1.3947 -3.6684 0
M  V30 10 C -0.1924 0.8681 -4.8219 0
M  V30 11 N -0.7512 0.6483 -2.4771 0
M  V30 12 N -0.0814 1.246 -1.6057 0
M  V30 13 C -0.0433 0.4955 -0.4175 0
M  V30 14 C -1.1898 0.2966 0.3617 0
M  V30 15 C 1.1755 -0.0311 0.0241 0
M  V30 16 C -1.1213 -0.4292 1.5547 0
M  V30 17 C 1.2518 -0.7581 1.2179 0
M  V30 18 C 0.102 -0.9501 1.994 0
M  V30 19 C 0.1232 -1.718 3.2697 0
M  V30 20 O -0.8862 -2.2957 3.6567 0
M  V30 21 N 1.3082 -1.7124 3.976 0
M  V30 22 C 1.436 -2.4076 5.2453 0
M  V30 23 C 1.5876 -3.9118 5.0656 0
M  V30 24 C 1.775 -4.581 6.3947 0
M  V30 25 O 1.9345 -4.0441 7.4776 0
M  V30 26 O 1.7828 -5.9245 6.2889 0
M  V30 27 H -3.1191 5.929 -4.0823 0
M  V30 28 H -1.908 3.028 -2.8426 0
M  V30 29 H -1.3346 4.2891 -7.2295 0
M  V30 30 H 0.2365 1.1594 -6.9164 0
M  V30 31 H 0.3032 -0.0986 -4.7788 0
M  V30 32 H -2.1425 0.7051 0.0339 0
M  V30 33 H 2.0695 0.1174 -0.5769 0
M  V30 34 H -2.0245 -0.5841 2.1425 0
M  V30 35 H 2.2068 -1.1862 1.5067 0
M  V30 36 H 2.0763 -1.1294 3.674 0
M  V30 37 H 0.5572 -2.178 5.8597 0
M  V30 38 H 2.3126 -1.9869 5.7508 0
M  V30 39 H 0.696 -4.33 4.5861 0
M  V30 40 H 2.458 -4.1317 4.4379 0
M  V30 41 H 1.9012 -6.2403 7.2092 0
M  V30 END ATOM
M  V30 BEGIN BOND
M  V30 1 2 1 2
M  V30 2 1 2 3
M  V30 3 1 2 4
M  V30 4 2 4 5
M  V30 5 1 4 6
M  V30 6 1 5 7
M  V30 7 1 5 8
M  V30 8 2 6 9
M  V30 9 2 8 10
M  V30 10 1 9 11
M  V30 11 2 11 12
M  V30 12 1 12 13
M  V30 13 2 13 14
M  V30 14 1 13 15
M  V30 15 1 14 16
M  V30 16 2 15 17
M  V30 17 2 16 18
M  V30 18 1 18 19
M  V30 19 2 19 20
M  V30 20 1 19 21
M  V30 21 1 21 22
M  V30 22 1 22 23
M  V30 23 1 23 24
M  V30 24 2 24 25
M  V30 25 1 24 26
M  V30 26 1 9 10
M  V30 27 1 17 18
M  V30 28 1 3 27
M  V30 29 1 6 28
M  V30 30 1 7 29
M  V30 31 1 8 30
M  V30 32 1 10 31
M  V30 33 1 14 32
M  V30 34 1 15 33
M  V30 35 1 16 34
M  V30 36 1 17 35
M  V30 37 1 21 36
M  V30 38 1 22 37
M  V30 39 1 22 38
M  V30 40 1 23 39
M  V30 41 1 23 40
M  V30 42 1 26 41
M  V30 END BOND
M  V30 END CTAB
M  END
>  <Column 1>
3226

>  <level_0>
5384

>  <index>
5385

>  <Unnamed: 0>
5385

>  <NO.>
5397

>  <Name>
balsalazide

>  <IUPAC_name>
5-[[4-(2-carboxyethylcarbamoyl)phenyl]diazenyl]-2-hydroxybenzoic acid

>  <SMILES>
O=C(O)CCNC(=O)c1ccc(N=Nc2ccc(O)c(C(=O)O)c2)cc1

>  <CID>
54585

>  <logBB>


>  <BBB+/BBB->
BBB-

>  <Inchi>
InChI=1S/C17H15N3O6/c21-14-6-5-12(9-13(14)17(25)26)20-19-11-3-1-10(2-4-11)16(24)18-8-7-15(22)23/h1-6-9-21H-7-8H2-(H-18-24)(H-22-23)(H-25-26)

>  <threshold>


>  <reference>
R14|R15|R23|

>  <group>
C

>  <Class>
-1

>  <ABC>
19.63

>  <ABCGG>
15.09

>  <nAcid>
2

>  <nBase>
0

>  <nAromAtom>
12

>  <nAromBond>
12

>  <nAtom>
41

>  <nHeavyAtom>
26

>  <nSpiro>
0

>  <nBridgehead>
0

>  <nHetero>
9

>  <nN>
3

>  <nO>
6

>  <nF>
0

>  <BalabanJ>
1.63

>  <BertzCT>
861.3

>  <nBonds>
42

>  <nBondsO>
27

>  <nBondsS>
26

>  <nBondsD>
4

>  <nBondsT>
0

>  <nBondsA>
12

>  <nBondsM>
16

>  <nBondsKS>
32

>  <nBondsKD>
10

>  <RNCG>
0.16

>  <RPCG>
0.11

>  <FCSP3>
0.12

>  <SZ>
31

>  <Sm>
29.75

>  <Sv>
27.63

>  <Sse>
42.63

>  <Sp>
27.85

>  <Si>
46.24

>  <MZ>
0.76

>  <Mm>
0.73

>  <Mv>
0.67

>  <Mse>
1.04

>  <Mp>
0.68

>  <Mi>
1.13

>  <NsCH3>
0

>  <NdCH2>
0

>  <NssCH2>
2

>  <NtCH>
0

>  <NdsCH>
0

>  <NaaCH>
7

>  <NsssCH>
0

>  <NddC>
0

>  <NtsC>
0

>  <NdssC>
3

>  <NaasC>
5

>  <NaaaC>
0

>  <NssssC>
0

>  <NsNH3>
0

>  <NsNH2>
0

>  <NssNH2>
0

>  <NdNH>
0

>  <NssNH>
1

>  <NaaNH>
0

>  <NtN>
0

>  <NsssNH>
0

>  <NdsN>
2

>  <NaaN>
0

>  <NsssN>
0

>  <NddsN>
0

>  <NaasN>
0

>  <NssssN>
0

>  <NsOH>
3

>  <NdO>
3

>  <NssO>
0

>  <NaaO>
0

>  <NsF>
0

>  <NsSiH3>
0

>  <NssSiH2>
0

>  <NsssSiH>
0

>  <NssssSi>
0

>  <NsPH2>
0

>  <NssPH>
0

>  <NsssP>
0

>  <NdsssP>
0

>  <NsssssP>
0

>  <NsSH>
0

>  <NdS>
0

>  <NssS>
0

>  <NaaS>
0

>  <NdssS>
0

>  <NddssS>
0

>  <NsCl>
0

>  <NsBr>
0

>  <NsI>
0

>  <fragCpx>
79.09

>  <fMF>
0.34

>  <nHBAcc>
6

>  <nHBDon>
4

>  <Kier1>
22.29

>  <Kier2>
11.11

>  <Lipinski>
1

>  <GhoseFilter>
1

>  <FilterItLogS>
-2.89

>  <VMcGowan>
250.83

>  <LabuteASA>
147.18

>  <PEOE_VSA1>
20.64

>  <PEOE_VSA2>
9.59

>  <PEOE_VSA3>
4.79

>  <PEOE_VSA4>
10.23

>  <PEOE_VSA5>
0

>  <PEOE_VSA6>
0

>  <PEOE_VSA7>
42.46

>  <PEOE_VSA8>
12.11

>  <PEOE_VSA9>
17.8

>  <PEOE_VSA10>
11.31

>  <PEOE_VSA11>
0

>  <PEOE_VSA12>
0

>  <PEOE_VSA13>
5.91

>  <SMR_VSA1>
29.7

>  <SMR_VSA2>
0

>  <SMR_VSA3>
5.32

>  <SMR_VSA4>
10.23

>  <SMR_VSA5>
6.42

>  <SMR_VSA6>
6.54

>  <SMR_VSA7>
53.59

>  <SMR_VSA8>
0

>  <SMR_VSA9>
5.75

>  <SlogP_VSA1>
5.32

>  <SlogP_VSA2>
39.71

>  <SlogP_VSA3>
4.79

>  <SlogP_VSA4>
0

>  <SlogP_VSA5>
27.14

>  <SlogP_VSA6>
52.69

>  <SlogP_VSA7>
0

>  <SlogP_VSA8>
0

>  <SlogP_VSA9>
0

>  <SlogP_VSA10>
11.37

>  <SlogP_VSA11>
5.75

>  <EState_VSA1>
17.85

>  <EState_VSA2>
29.97

>  <EState_VSA3>
11.25

>  <EState_VSA4>
0

>  <EState_VSA5>
42.46

>  <EState_VSA6>
0

>  <EState_VSA7>
0

>  <EState_VSA8>
15.55

>  <EState_VSA9>
10.21

>  <EState_VSA10>
19.49

>  <VSA_EState1>
0

>  <VSA_EState2>
33.18

>  <VSA_EState3>
37.22

>  <VSA_EState4>
0.73

>  <VSA_EState5>
-3.05

>  <VSA_EState6>
9.89

>  <VSA_EState7>
-0.16

>  <VSA_EState8>
0.03

>  <VSA_EState9>
0

>  <apol>
46.5

>  <bpol>
19.36

>  <nRing>
2

>  <nHRing>
0

>  <naRing>
2

>  <naHRing>
0

>  <nARing 2>
0

>  <nAHRing 2>
0

>  <nFRing>
0

>  <nFHRing>
0

>  <nFaRing>
0

>  <nFaHRing>
0

>  <nFARing 2>
0

>  <nFAHRing 2>
0

>  <nRot>
7

>  <SLogP>
2.71

>  <SMR>
90.27

>  <TopoPSA(NO)>
148.65

>  <TopoPSA>
148.65

>  <JGI1>
0.22

>  <JGI2>
0.09

>  <JGI3>
0.04

>  <JGI4>
0.04

>  <JGI5>
0.03

>  <Diameter>
16

>  <Radius>
8

>  <TMWC10>
126.37

>  <TSRW10>
60.24

>  <MW>
357.1

>  <AMW>
8.71

>  <WPath>
2087

>  <WPol>
36

>  <Zagreb1>
126

>  <Zagreb2>
141

>  <mZagreb2>
5.83

>  <yes>


>  <nAR-cont>
0.336376

>  <nHA-cont>
0.892715677

>  <MWHBN>
0.529182014

>  <MWHBN-cont>
0

>  <TPSA-cont>
0

>  <pka_cont>
0.97

>  <yes.1>


>  <BBB_SCORE>
1.714091677

>  <MMFF94 Energy>
-16.413

$$$$
Compound 2588
Actelion Java MolfileCreator 2.0

  0  0  0  0  0  0              0 V3000
M  V30 BEGIN CTAB
M  V30 COUNTS 36 37 0 0 0
M  V30 BEGIN ATOM
M  V30 1 Cl 0.3258 -0.9777 3.6702 0
M  V30 2 C 1.3 -1.7137 2.4404 0
M  V30 3 C 1.3173 -1.2695 1.1018 0
M  V30 4 C 2.1545 -2.7401 2.8737 0
M  V30 5 N 0.4548 -0.2764 0.5759 0
M  V30 6 C 2.268 -1.8692 0.2437 0
M  V30 7 C 3.0554 -3.3341 1.9943 0
M  V30 8 C -0.8933 0.0187 0.8608 0
M  V30 9 Cl 2.429 -1.3474 -1.4016 0
M  V30 10 C 3.1197 -2.8904 0.679 0
M  V30 11 C -1.3416 1.3551 0.8549 0
M  V30 12 C -1.8232 -1.0088 1.0756 0
M  V30 13 C -2.7043 1.6296 1.0681 0
M  V30 14 C -0.3913 2.5079 0.621 0
M  V30 15 C -3.1713 -0.7235 1.2963 0
M  V30 16 C -3.6117 0.5954 1.2918 0
M  V30 17 C -0.2662 2.9039 -0.8296 0
M  V30 18 O -0.4155 4.0492 -1.2387 0
M  V30 19 O 0.0802 1.8465 -1.6117 0
M  V30 20 C 0.1699 2.1472 -3.007 0
M  V30 21 C 0.08 0.8673 -3.8099 0
M  V30 22 O -0.1492 -0.2562 -3.3941 0
M  V30 23 O 0.2769 1.0738 -5.1294 0
M  V30 24 H 2.1294 -3.0689 3.9107 0
M  V30 25 H 0.7129 0.0261 -0.3651 0
M  V30 26 H 3.7154 -4.1259 2.3393 0
M  V30 27 H 3.835 -3.3392 -0.0057 0
M  V30 28 H -1.5024 -2.0469 1.0573 0
M  V30 29 H -3.0662 2.656 1.0661 0
M  V30 30 H -0.7446 3.3829 1.1817 0
M  V30 31 H 0.6085 2.2938 1.0147 0
M  V30 32 H -3.8756 -1.5337 1.4636 0
M  V30 33 H -4.6618 0.8191 1.4604 0
M  V30 34 H 1.1394 2.6163 -3.2011 0
M  V30 35 H -0.6553 2.7938 -3.3251 0
M  V30 36 H 0.1886 0.179 -5.5215 0
M  V30 END ATOM
M  V30 BEGIN BOND
M  V30 1 1 1 2
M  V30 2 2 2 3
M  V30 3 1 2 4
M  V30 4 1 3 5
M  V30 5 1 3 6
M  V30 6 2 4 7
M  V30 7 1 5 8
M  V30 8 1 6 9
M  V30 9 2 6 10
M  V30 10 2 8 11
M  V30 11 1 8 12
M  V30 12 1 11 13
M  V30 13 1 11 14
M  V30 14 2 12 15
M  V30 15 2 13 16
M  V30 16 1 14 17
M  V30 17 2 17 18
M  V30 18 1 17 19
M  V30 19 1 19 20
M  V30 20 1 20 21
M  V30 21 2 21 22
M  V30 22 1 21 23
M  V30 23 1 7 10
M  V30 24 1 15 16
M  V30 25 1 4 24
M  V30 26 1 5 25
M  V30 27 1 7 26
M  V30 28 1 10 27
M  V30 29 1 12 28
M  V30 30 1 13 29
M  V30 31 1 14 30
M  V30 32 1 14 31
M  V30 33 1 15 32
M  V30 34 1 16 33
M  V30 35 1 20 34
M  V30 36 1 20 35
M  V30 37 1 23 36
M  V30 END BOND
M  V30 END CTAB
M  END
>  <Column 1>
3228

>  <level_0>
5386

>  <index>
5387

>  <Unnamed: 0>
5387

>  <NO.>
5399

>  <Name>
aceclofenac

>  <IUPAC_name>
2-[2-[2-(2-6-dichloroanilino)phenyl]acetyl]oxyacetic acid

>  <SMILES>
O=C(O)COC(=O)Cc1ccccc1Nc1c(Cl)cccc1Cl

>  <CID>
71771

>  <logBB>


>  <BBB+/BBB->
BBB-

>  <Inchi>
InChI=1S/C16H13Cl2NO4/c17-11-5-3-6-12(18)16(11)19-13-7-2-1-4-10(13)8-15(22)23-9-14(20)21/h1-7-19H-8-9H2-(H-20-21)

>  <threshold>


>  <reference>
R14|

>  <group>
C

>  <Class>
-1

>  <ABC>
17.4

>  <ABCGG>
14.61

>  <nAcid>
1

>  <nBase>
0

>  <nAromAtom>
12

>  <nAromBond>
12

>  <nAtom>
36

>  <nHeavyAtom>
23

>  <nSpiro>
0

>  <nBridgehead>
0

>  <nHetero>
7

>  <nN>
1

>  <nO>
4

>  <nF>
0

>  <BalabanJ>
1.87

>  <BertzCT>
713.52

>  <nBonds>
37

>  <nBondsO>
24

>  <nBondsS>
23

>  <nBondsD>
2

>  <nBondsT>
0

>  <nBondsA>
12

>  <nBondsM>
14

>  <nBondsKS>
29

>  <nBondsKD>
8

>  <RNCG>
0.21

>  <RPCG>
0.15

>  <FCSP3>
0.13

>  <SZ>
30.33

>  <Sm>
29.49

>  <Sv>
25.32

>  <Sse>
37.29

>  <Sp>
26.38

>  <Si>
40.13

>  <MZ>
0.84

>  <Mm>
0.82

>  <Mv>
0.7

>  <Mse>
1.04

>  <Mp>
0.73

>  <Mi>
1.11

>  <NsCH3>
0

>  <NdCH2>
0

>  <NssCH2>
2

>  <NtCH>
0

>  <NdsCH>
0

>  <NaaCH>
7

>  <NsssCH>
0

>  <NddC>
0

>  <NtsC>
0

>  <NdssC>
2

>  <NaasC>
5

>  <NaaaC>
0

>  <NssssC>
0

>  <NsNH3>
0

>  <NsNH2>
0

>  <NssNH2>
0

>  <NdNH>
0

>  <NssNH>
1

>  <NaaNH>
0

>  <NtN>
0

>  <NsssNH>
0

>  <NdsN>
0

>  <NaaN>
0

>  <NsssN>
0

>  <NddsN>
0

>  <NaasN>
0

>  <NssssN>
0

>  <NsOH>
1

>  <NdO>
2

>  <NssO>
1

>  <NaaO>
0

>  <NsF>
0

>  <NsSiH3>
0

>  <NssSiH2>
0

>  <NsssSiH>
0

>  <NssssSi>
0

>  <NsPH2>
0

>  <NssPH>
0

>  <NsssP>
0

>  <NdsssP>
0

>  <NsssssP>
0

>  <NsSH>
0

>  <NdS>
0

>  <NssS>
0

>  <NaaS>
0

>  <NdssS>
0

>  <NddssS>
0

>  <NsCl>
2

>  <NsBr>
0

>  <NsI>
0

>  <fragCpx>
70.07

>  <fMF>
0.36

>  <nHBAcc>
4

>  <nHBDon>
2

>  <Kier1>
19.33

>  <Kier2>
9.47

>  <Lipinski>
1

>  <GhoseFilter>
1

>  <FilterItLogS>
-4.97

>  <VMcGowan>
238.12

>  <LabuteASA>
142.34

>  <PEOE_VSA1>
15.16

>  <PEOE_VSA2>
4.79

>  <PEOE_VSA3>
4.79

>  <PEOE_VSA4>
0

>  <PEOE_VSA5>
0

>  <PEOE_VSA6>
47.47

>  <PEOE_VSA7>
23.76

>  <PEOE_VSA8>
5.69

>  <PEOE_VSA9>
22.15

>  <PEOE_VSA10>
0

>  <PEOE_VSA11>
6.61

>  <PEOE_VSA12>
0

>  <PEOE_VSA13>
0

>  <SMR_VSA1>
19.43

>  <SMR_VSA2>
0

>  <SMR_VSA3>
0

>  <SMR_VSA4>
0

>  <SMR_VSA5>
6.42

>  <SMR_VSA6>
11.92

>  <SMR_VSA7>
58.07

>  <SMR_VSA8>
0

>  <SMR_VSA9>
0

>  <SlogP_VSA1>
5.32

>  <SlogP_VSA2>
23.65

>  <SlogP_VSA3>
20.75

>  <SlogP_VSA4>
0

>  <SlogP_VSA5>
5.56

>  <SlogP_VSA6>
42.46

>  <SlogP_VSA7>
10.05

>  <SlogP_VSA8>
0

>  <SlogP_VSA9>
0

>  <SlogP_VSA10>
11.37

>  <SlogP_VSA11>
0

>  <EState_VSA1>
18.55

>  <EState_VSA2>
6.42

>  <EState_VSA3>
26.98

>  <EState_VSA4>
0

>  <EState_VSA5>
0

>  <EState_VSA6>
42.46

>  <EState_VSA7>
0

>  <EState_VSA8>
10.05

>  <EState_VSA9>
28.31

>  <EState_VSA10>
9.59

>  <VSA_EState1>
4.64

>  <VSA_EState2>
22.11

>  <VSA_EState3>
12.5

>  <VSA_EState4>
1.8

>  <VSA_EState5>
-1.83

>  <VSA_EState6>
12.16

>  <VSA_EState7>
-0.07

>  <VSA_EState8>
-0.66

>  <VSA_EState9>
0

>  <apol>
44.06

>  <bpol>
18.1

>  <nRing>
2

>  <nHRing>
0

>  <naRing>
2

>  <naHRing>
0

>  <nARing 2>
0

>  <nAHRing 2>
0

>  <nFRing>
0

>  <nFHRing>
0

>  <nFaRing>
0

>  <nFaHRing>
0

>  <nFARing 2>
0

>  <nFAHRing 2>
0

>  <nRot>
6

>  <SLogP>
3.91

>  <SMR>
88.49

>  <TopoPSA(NO)>
75.63

>  <TopoPSA>
75.63

>  <JGI1>
0.21

>  <JGI2>
0.08

>  <JGI3>
0.04

>  <JGI4>
0.05

>  <JGI5>
0.02

>  <Diameter>
12

>  <Radius>
6

>  <TMWC10>
119.68

>  <TSRW10>
56.73

>  <MW>
353.02

>  <AMW>
9.81

>  <WPath>
1278

>  <WPol>
32

>  <Zagreb1>
112

>  <Zagreb2>
126

>  <mZagreb2>
5.17

>  <yes>


>  <nAR-cont>
0.336376

>  <nHA-cont>
0.967789328

>  <MWHBN>
0.319338731

>  <MWHBN-cont>
0.779378684

>  <TPSA-cont>
0.472055637

>  <pka_cont>
0.97

>  <yes.1>


>  <BBB_SCORE>
3.902344627

>  <MMFF94 Energy>
63.803

$$$$
Compound 2589
Actelion Java MolfileCreator 2.0

  0  0  0  0  0  0              0 V3000
M  V30 BEGIN CTAB
M  V30 COUNTS 28 29 0 0 0
M  V30 BEGIN ATOM
M  V30 1 Cl 0.0 1.3505 -3.1252 0
M  V30 2 C 0.2962 0.8763 -1.4767 0
M  V30 3 C -0.4079 1.4832 -0.4207 0
M  V30 4 C 1.2566 -0.1279 -1.2181 0
M  V30 5 Cl -1.5527 2.7529 -0.7229 0
M  V30 6 C -0.1564 1.0611 0.8899 0
M  V30 7 O 1.8905 -0.6694 -2.3073 0
M  V30 8 C 1.5063 -0.5155 0.1022 0
M  V30 9 C -0.8477 1.6451 2.0581 0
M  V30 10 C 0.8066 0.079 1.1525 0
M  V30 11 C 2.9433 -1.5987 -2.0822 0
M  V30 12 O -0.1494 2.3361 2.7989 0
M  V30 13 C -2.2487 1.3137 2.2799 0
M  V30 14 C 3.5578 -2.035 -3.3999 0
M  V30 15 S -3.0962 2.1009 3.5487 0
M  V30 16 C -3.0689 0.4142 1.6198 0
M  V30 17 O 3.2431 -1.6972 -4.528 0
M  V30 18 O 4.5721 -2.9103 -3.2163 0
M  V30 19 C -4.5424 1.2603 3.2037 0
M  V30 20 C -4.3927 0.3879 2.1508 0
M  V30 21 H 2.2395 -1.2766 0.3528 0
M  V30 22 H 1.0168 -0.2194 2.1793 0
M  V30 23 H 2.5499 -2.4966 -1.5927 0
M  V30 24 H 3.7368 -1.1304 -1.4889 0
M  V30 25 H -2.752 -0.2033 0.7882 0
M  V30 26 H 4.8757 -3.1047 -4.1293 0
M  V30 27 H -5.4318 1.4465 3.7905 0
M  V30 28 H -5.1943 -0.2387 1.7783 0
M  V30 END ATOM
M  V30 BEGIN BOND
M  V30 1 1 1 2
M  V30 2 2 2 3
M  V30 3 1 2 4
M  V30 4 1 3 5
M  V30 5 1 3 6
M  V30 6 1 4 7
M  V30 7 2 4 8
M  V30 8 1 6 9
M  V30 9 2 6 10
M  V30 10 1 7 11
M  V30 11 2 9 12
M  V30 12 1 9 13
M  V30 13 1 11 14
M  V30 14 1 13 15
M  V30 15 2 13 16
M  V30 16 2 14 17
M  V30 17 1 14 18
M  V30 18 1 15 19
M  V30 19 1 16 20
M  V30 20 1 8 10
M  V30 21 2 19 20
M  V30 22 1 8 21
M  V30 23 1 10 22
M  V30 24 1 11 23
M  V30 25 1 11 24
M  V30 26 1 16 25
M  V30 27 1 18 26
M  V30 28 1 19 27
M  V30 29 1 20 28
M  V30 END BOND
M  V30 END CTAB
M  END
>  <Column 1>
3229

>  <level_0>
5387

>  <index>
5388

>  <Unnamed: 0>
5388

>  <NO.>
5400

>  <Name>
ticrynafen

>  <IUPAC_name>
2-[2-3-dichloro-4-(thiophene-2-carbonyl)phenoxy]acetic acid

>  <SMILES>
O=C(O)COc1ccc(C(=O)c2cccs2)c(Cl)c1Cl

>  <CID>
38409

>  <logBB>


>  <BBB+/BBB->
BBB-

>  <Inchi>
InChI=1S/C13H8Cl2O4S/c14-11-7(13(18)9-2-1-5-20-9)3-4-8(12(11)15)19-6-10(16)17/h1-5H-6H2-(H-16-17)

>  <threshold>


>  <reference>
R14|

>  <group>
C

>  <Class>
-1

>  <ABC>
15.19

>  <ABCGG>
13.52

>  <nAcid>
1

>  <nBase>
0

>  <nAromAtom>
11

>  <nAromBond>
11

>  <nAtom>
28

>  <nHeavyAtom>
20

>  <nSpiro>
0

>  <nBridgehead>
0

>  <nHetero>
7

>  <nN>
0

>  <nO>
4

>  <nF>
0

>  <BalabanJ>
1.88

>  <BertzCT>
652.64

>  <nBonds>
29

>  <nBondsO>
21

>  <nBondsS>
16

>  <nBondsD>
2

>  <nBondsT>
0

>  <nBondsA>
11

>  <nBondsM>
13

>  <nBondsKS>
22

>  <nBondsKD>
7

>  <RNCG>
0.25

>  <RPCG>
0.17

>  <FCSP3>
0.08

>  <SZ>
28

>  <Sm>
27.57

>  <Sv>
21.4

>  <Sse>
29.48

>  <Sp>
22.46

>  <Si>
30.72

>  <MZ>
1

>  <Mm>
0.98

>  <Mv>
0.76

>  <Mse>
1.05

>  <Mp>
0.8

>  <Mi>
1.1

>  <NsCH3>
0

>  <NdCH2>
0

>  <NssCH2>
1

>  <NtCH>
0

>  <NdsCH>
0

>  <NaaCH>
5

>  <NsssCH>
0

>  <NddC>
0

>  <NtsC>
0

>  <NdssC>
2

>  <NaasC>
5

>  <NaaaC>
0

>  <NssssC>
0

>  <NsNH3>
0

>  <NsNH2>
0

>  <NssNH2>
0

>  <NdNH>
0

>  <NssNH>
0

>  <NaaNH>
0

>  <NtN>
0

>  <NsssNH>
0

>  <NdsN>
0

>  <NaaN>
0

>  <NsssN>
0

>  <NddsN>
0

>  <NaasN>
0

>  <NssssN>
0

>  <NsOH>
1

>  <NdO>
2

>  <NssO>
1

>  <NaaO>
0

>  <NsF>
0

>  <NsSiH3>
0

>  <NssSiH2>
0

>  <NsssSiH>
0

>  <NssssSi>
0

>  <NsPH2>
0

>  <NssPH>
0

>  <NsssP>
0

>  <NdsssP>
0

>  <NsssssP>
0

>  <NsSH>
0

>  <NdS>
0

>  <NssS>
0

>  <NaaS>
1

>  <NdssS>
0

>  <NddssS>
0

>  <NsCl>
2

>  <NsBr>
0

>  <NsI>
0

>  <fragCpx>
61.07

>  <fMF>
0.43

>  <nHBAcc>
4

>  <nHBDon>
1

>  <Kier1>
16.37

>  <Kier2>
7.32

>  <Lipinski>
1

>  <GhoseFilter>
1

>  <FilterItLogS>
-4.1

>  <VMcGowan>
206.52

>  <LabuteASA>
128.06

>  <PEOE_VSA1>
9.84

>  <PEOE_VSA2>
4.79

>  <PEOE_VSA3>
4.79

>  <PEOE_VSA4>
0

>  <PEOE_VSA5>
11.34

>  <PEOE_VSA6>
29.27

>  <PEOE_VSA7>
23.58

>  <PEOE_VSA8>
5.56

>  <PEOE_VSA9>
9.9

>  <PEOE_VSA10>
10.77

>  <PEOE_VSA11>
6.61

>  <PEOE_VSA12>
5.78

>  <PEOE_VSA13>
0

>  <SMR_VSA1>
19.43

>  <SMR_VSA2>
0

>  <SMR_VSA3>
0

>  <SMR_VSA4>
0

>  <SMR_VSA5>
0

>  <SMR_VSA6>
6.61

>  <SMR_VSA7>
50.13

>  <SMR_VSA8>
0

>  <SMR_VSA9>
5.75

>  <SlogP_VSA1>
4.74

>  <SlogP_VSA2>
23.47

>  <SlogP_VSA3>
4.79

>  <SlogP_VSA4>
0

>  <SlogP_VSA5>
15.24

>  <SlogP_VSA6>
29.65

>  <SlogP_VSA7>
10.05

>  <SlogP_VSA8>
0

>  <SlogP_VSA9>
0

>  <SlogP_VSA10>
0

>  <SlogP_VSA11>
5.75

>  <EState_VSA1>
12.58

>  <EState_VSA2>
27.14

>  <EState_VSA3>
4.88

>  <EState_VSA4>
0

>  <EState_VSA5>
23.47

>  <EState_VSA6>
17.51

>  <EState_VSA7>
0

>  <EState_VSA8>
0

>  <EState_VSA9>
33.05

>  <EState_VSA10>
9.59

>  <VSA_EState1>
4.98

>  <VSA_EState2>
23.18

>  <VSA_EState3>
10.41

>  <VSA_EState4>
0.25

>  <VSA_EState5>
-1.24

>  <VSA_EState6>
6.34

>  <VSA_EState7>
0

>  <VSA_EState8>
-0.53

>  <VSA_EState9>
0

>  <apol>
37.51

>  <bpol>
14.98

>  <nRing>
2

>  <nHRing>
1

>  <naRing>
2

>  <naHRing>
1

>  <nARing 2>
0

>  <nAHRing 2>
0

>  <nFRing>
0

>  <nFHRing>
0

>  <nFaRing>
0

>  <nFaHRing>
0

>  <nFARing 2>
0

>  <nFAHRing 2>
0

>  <nRot>
5

>  <SLogP>
3.75

>  <SMR>
77.34

>  <TopoPSA(NO)>
63.6

>  <TopoPSA>
91.84

>  <JGI1>
0.19

>  <JGI2>
0.1

>  <JGI3>
0.05

>  <JGI4>
0.05

>  <JGI5>
0.03

>  <Diameter>
11

>  <Radius>
6

>  <TMWC10>
113.5

>  <TSRW10>
66.48

>  <MW>
329.95

>  <AMW>
11.78

>  <WPath>
851

>  <WPol>
29

>  <Zagreb1>
100

>  <Zagreb2>
116

>  <mZagreb2>
4.47

>  <yes>


>  <nAR-cont>
0.336376

>  <nHA-cont>
0.999629945

>  <MWHBN>
0.275261795

>  <MWHBN-cont>
0.907793046

>  <TPSA-cont>
0.358899771

>  <pka_cont>
0.97

>  <yes.1>


>  <BBB_SCORE>
3.900495056

>  <MMFF94 Energy>
74.426

$$$$
Compound 2590
Actelion Java MolfileCreator 2.0

  0  0  0  0  0  0              0 V3000
M  V30 BEGIN CTAB
M  V30 COUNTS 28 29 0 0 0
M  V30 BEGIN ATOM
M  V30 1 O 5.0075 -0.1586 -0.3173 0
M  V30 2 C 4.4421 -0.2449 0.7612 0
M  V30 3 O 4.7058 0.6405 1.7438 0
M  V30 4 C 3.4078 -1.2667 1.1489 0
M  V30 5 C 2.0193 -0.8805 0.7126 0
M  V30 6 C 1.1491 -0.2343 1.5973 0
M  V30 7 C 1.5893 -1.1325 -0.5948 0
M  V30 8 C -0.1339 0.1385 1.1842 0
M  V30 9 C 0.3051 -0.7585 -1.0034 0
M  V30 10 C -0.5797 -0.1183 -0.1217 0
M  V30 11 C -1.9309 0.2749 -0.5544 0
M  V30 12 C -2.8078 -0.66 -1.1295 0
M  V30 13 C -2.3835 1.5966 -0.4052 0
M  V30 14 C -4.091 -0.288 -1.54 0
M  V30 15 C -3.6659 1.9707 -0.8161 0
M  V30 16 C -4.5191 1.0276 -1.383 0
M  V30 17 H 5.3518 1.2556 1.3374 0
M  V30 18 H 3.4454 -1.4277 2.2334 0
M  V30 19 H 3.6943 -2.2288 0.7069 0
M  V30 20 H 1.461 -0.0146 2.6164 0
M  V30 21 H 2.253 -1.6147 -1.3101 0
M  V30 22 H -0.7937 0.6272 1.8987 0
M  V30 23 H 0.0028 -0.958 -2.0298 0
M  V30 24 H -2.4972 -1.6958 -1.2511 0
M  V30 25 H -1.7286 2.352 0.0244 0
M  V30 26 H -4.7549 -1.0277 -1.9796 0
M  V30 27 H -3.9951 2.9995 -0.6952 0
M  V30 28 H -5.5165 1.3177 -1.7027 0
M  V30 END ATOM
M  V30 BEGIN BOND
M  V30 1 2 1 2
M  V30 2 1 2 3
M  V30 3 1 2 4
M  V30 4 1 4 5
M  V30 5 2 5 6
M  V30 6 1 5 7
M  V30 7 1 6 8
M  V30 8 2 7 9
M  V30 9 2 8 10
M  V30 10 1 10 11
M  V30 11 2 11 12
M  V30 12 1 11 13
M  V30 13 1 12 14
M  V30 14 2 13 15
M  V30 15 2 14 16
M  V30 16 1 9 10
M  V30 17 1 15 16
M  V30 18 1 3 17
M  V30 19 1 4 18
M  V30 20 1 4 19
M  V30 21 1 6 20
M  V30 22 1 7 21
M  V30 23 1 8 22
M  V30 24 1 9 23
M  V30 25 1 12 24
M  V30 26 1 13 25
M  V30 27 1 14 26
M  V30 28 1 15 27
M  V30 29 1 16 28
M  V30 END BOND
M  V30 END CTAB
M  END
>  <Column 1>
3230

>  <level_0>
5388

>  <index>
5389

>  <Unnamed: 0>
5389

>  <NO.>
5401

>  <Name>
felbinac

>  <IUPAC_name>
2-(4-phenylphenyl)acetic acid

>  <SMILES>
O=C(O)Cc1ccc(-c2ccccc2)cc1

>  <CID>
3332

>  <logBB>


>  <BBB+/BBB->
BBB-

>  <Inchi>
InChI=1S/C14H12O2/c15-14(16)10-11-6-8-13(9-7-11)12-4-2-1-3-5-12/h1-9H-10H2-(H-15-16)

>  <threshold>


>  <reference>
R14|

>  <group>
C

>  <Class>
-1

>  <ABC>
12.2

>  <ABCGG>
9.98

>  <nAcid>
1

>  <nBase>
0

>  <nAromAtom>
12

>  <nAromBond>
12

>  <nAtom>
28

>  <nHeavyAtom>
16

>  <nSpiro>
0

>  <nBridgehead>
0

>  <nHetero>
2

>  <nN>
0

>  <nO>
2

>  <nF>
0

>  <BalabanJ>
1.71

>  <BertzCT>
471.85

>  <nBonds>
29

>  <nBondsO>
17

>  <nBondsS>
16

>  <nBondsD>
1

>  <nBondsT>
0

>  <nBondsA>
12

>  <nBondsM>
13

>  <nBondsKS>
22

>  <nBondsKD>
7

>  <RNCG>
0.36

>  <RPCG>
0.23

>  <FCSP3>
0.07

>  <SZ>
18.67

>  <Sm>
17.67

>  <Sv>
18.68

>  <Sse>
27.99

>  <Sp>
19.75

>  <Si>
30.91

>  <MZ>
0.67

>  <Mm>
0.63

>  <Mv>
0.67

>  <Mse>
1

>  <Mp>
0.71

>  <Mi>
1.1

>  <NsCH3>
0

>  <NdCH2>
0

>  <NssCH2>
1

>  <NtCH>
0

>  <NdsCH>
0

>  <NaaCH>
9

>  <NsssCH>
0

>  <NddC>
0

>  <NtsC>
0

>  <NdssC>
1

>  <NaasC>
3

>  <NaaaC>
0

>  <NssssC>
0

>  <NsNH3>
0

>  <NsNH2>
0

>  <NssNH2>
0

>  <NdNH>
0

>  <NssNH>
0

>  <NaaNH>
0

>  <NtN>
0

>  <NsssNH>
0

>  <NdsN>
0

>  <NaaN>
0

>  <NsssN>
0

>  <NddsN>
0

>  <NaasN>
0

>  <NssssN>
0

>  <NsOH>
1

>  <NdO>
1

>  <NssO>
0

>  <NaaO>
0

>  <NsF>
0

>  <NsSiH3>
0

>  <NssSiH2>
0

>  <NsssSiH>
0

>  <NssssSi>
0

>  <NsPH2>
0

>  <NssPH>
0

>  <NsssP>
0

>  <NdsssP>
0

>  <NsssssP>
0

>  <NsSH>
0

>  <NdS>
0

>  <NssS>
0

>  <NaaS>
0

>  <NdssS>
0

>  <NddssS>
0

>  <NsCl>
0

>  <NsBr>
0

>  <NsI>
0

>  <fragCpx>
49.02

>  <fMF>
0.43

>  <nHBAcc>
1

>  <nHBDon>
1

>  <Kier1>
12.46

>  <Kier2>
6.07

>  <Lipinski>
1

>  <GhoseFilter>
1

>  <FilterItLogS>
-3.34

>  <VMcGowan>
168.04

>  <LabuteASA>
94.17

>  <PEOE_VSA1>
5.11

>  <PEOE_VSA2>
4.79

>  <PEOE_VSA3>
0

>  <PEOE_VSA4>
0

>  <PEOE_VSA5>
0

>  <PEOE_VSA6>
54.6

>  <PEOE_VSA7>
16.69

>  <PEOE_VSA8>
0

>  <PEOE_VSA9>
6.42

>  <PEOE_VSA10>
0

>  <PEOE_VSA11>
0

>  <PEOE_VSA12>
0

>  <PEOE_VSA13>
0

>  <SMR_VSA1>
9.9

>  <SMR_VSA2>
0

>  <SMR_VSA3>
0

>  <SMR_VSA4>
0

>  <SMR_VSA5>
6.42

>  <SMR_VSA6>
0

>  <SMR_VSA7>
60.16

>  <SMR_VSA8>
0

>  <SMR_VSA9>
11.13

>  <SlogP_VSA1>
0

>  <SlogP_VSA2>
11.08

>  <SlogP_VSA3>
11.22

>  <SlogP_VSA4>
0

>  <SlogP_VSA5>
5.56

>  <SlogP_VSA6>
54.6

>  <SlogP_VSA7>
0

>  <SlogP_VSA8>
11.13

>  <SlogP_VSA9>
0

>  <SlogP_VSA10>
0

>  <SlogP_VSA11>
0

>  <EState_VSA1>
5.97

>  <EState_VSA2>
6.42

>  <EState_VSA3>
0

>  <EState_VSA4>
16.69

>  <EState_VSA5>
0

>  <EState_VSA6>
0

>  <EState_VSA7>
54.6

>  <EState_VSA8>
0

>  <EState_VSA9>
5.11

>  <EState_VSA10>
4.79

>  <VSA_EState1>
0

>  <VSA_EState2>
10.52

>  <VSA_EState3>
8.65

>  <VSA_EState4>
3.08

>  <VSA_EState5>
-0.8

>  <VSA_EState6>
17.63

>  <VSA_EState7>
0.08

>  <VSA_EState8>
0

>  <VSA_EState9>
0

>  <apol>
32.99

>  <bpol>
12.91

>  <nRing>
2

>  <nHRing>
0

>  <naRing>
2

>  <naHRing>
0

>  <nARing 2>
0

>  <nAHRing 2>
0

>  <nFRing>
0

>  <nFHRing>
0

>  <nFaRing>
0

>  <nFaHRing>
0

>  <nFARing 2>
0

>  <nFAHRing 2>
0

>  <nRot>
3

>  <SLogP>
2.98

>  <SMR>
63.22

>  <TopoPSA(NO)>
37.3

>  <TopoPSA>
37.3

>  <JGI1>
0.18

>  <JGI2>
0.06

>  <JGI3>
0.03

>  <JGI4>
0.03

>  <JGI5>
0.03

>  <Diameter>
10

>  <Radius>
5

>  <TMWC10>
101.94

>  <TSRW10>
47.83

>  <MW>
212.08

>  <AMW>
7.57

>  <WPath>
483

>  <WPol>
20

>  <Zagreb1>
78

>  <Zagreb2>
87

>  <mZagreb2>
3.61

>  <yes>


>  <nAR-cont>
0.336376

>  <nHA-cont>
0.954961865

>  <MWHBN>
0.137334654

>  <MWHBN-cont>
0.895232641

>  <TPSA-cont>
0.739622838

>  <pka_cont>
0.97

>  <yes.1>


>  <BBB_SCORE>
4.598432503

>  <MMFF94 Energy>
37.137

$$$$
Compound 2591
Actelion Java MolfileCreator 2.0

  0  0  0  0  0  0              0 V3000
M  V30 BEGIN CTAB
M  V30 COUNTS 35 37 0 0 0
M  V30 BEGIN ATOM
M  V30 1 Cl 4.7186 0.1624 4.6371 0
M  V30 2 C 3.5034 0.0589 3.4239 0
M  V30 3 C 3.4543 -1.0552 2.5875 0
M  V30 4 C 2.5742 1.0883 3.285 0
M  V30 5 C 2.4664 -1.1415 1.603 0
M  V30 6 C 1.5873 1.0036 2.2997 0
M  V30 7 C 1.5301 -0.1113 1.4549 0
M  V30 8 C 0.5024 -0.2064 0.4435 0
M  V30 9 C -0.582 -1.1041 0.296 0
M  V30 10 C 0.3934 0.6552 -0.6239 0
M  V30 11 N -1.2855 -0.8446 -0.8142 0
M  V30 12 C -0.9734 -2.2392 1.1802 0
M  V30 13 N -0.6898 0.2439 -1.367 0
M  V30 14 C -1.4541 -1.7784 2.5325 0
M  V30 15 C -1.1915 0.8157 -2.5697 0
M  V30 16 O -1.6335 -0.641 2.9346 0
M  V30 17 O -1.702 -2.8228 3.3565 0
M  V30 18 C -0.4393 1.7522 -3.2957 0
M  V30 19 C -2.4593 0.4301 -3.0385 0
M  V30 20 C -0.9578 2.2983 -4.4736 0
M  V30 21 C -2.97 0.9809 -4.2157 0
M  V30 22 C -2.2155 1.9097 -4.9211 0
M  V30 23 F -2.7048 2.4372 -6.0506 0
M  V30 24 H 4.1807 -1.8563 2.6949 0
M  V30 25 H 2.6072 1.9543 3.9407 0
M  V30 26 H 2.4416 -2.0105 0.9493 0
M  V30 27 H 0.8543 1.8027 2.2078 0
M  V30 28 H 0.9882 1.5118 -0.9015 0
M  V30 29 H -0.1107 -2.899 1.3237 0
M  V30 30 H -1.7785 -2.8219 0.7178 0
M  V30 31 H -2.0118 -2.3973 4.1843 0
M  V30 32 H 0.5515 2.0658 -2.9815 0
M  V30 33 H -3.0605 -0.2958 -2.4935 0
M  V30 34 H -0.3871 3.0222 -5.0472 0
M  V30 35 H -3.9487 0.69 -4.5837 0
M  V30 END ATOM
M  V30 BEGIN BOND
M  V30 1 1 1 2
M  V30 2 2 2 3
M  V30 3 1 2 4
M  V30 4 1 3 5
M  V30 5 2 4 6
M  V30 6 2 5 7
M  V30 7 1 7 8
M  V30 8 1 8 9
M  V30 9 2 8 10
M  V30 10 2 9 11
M  V30 11 1 9 12
M  V30 12 1 10 13
M  V30 13 1 12 14
M  V30 14 1 13 15
M  V30 15 2 14 16
M  V30 16 1 14 17
M  V30 17 2 15 18
M  V30 18 1 15 19
M  V30 19 1 18 20
M  V30 20 2 19 21
M  V30 21 2 20 22
M  V30 22 1 22 23
M  V30 23 1 6 7
M  V30 24 1 11 13
M  V30 25 1 21 22
M  V30 26 1 3 24
M  V30 27 1 4 25
M  V30 28 1 5 26
M  V30 29 1 6 27
M  V30 30 1 10 28
M  V30 31 1 12 29
M  V30 32 1 12 30
M  V30 33 1 17 31
M  V30 34 1 18 32
M  V30 35 1 19 33
M  V30 36 1 20 34
M  V30 37 1 21 35
M  V30 END BOND
M  V30 END CTAB
M  END
>  <Column 1>
3231

>  <level_0>
5389

>  <index>
5390

>  <Unnamed: 0>
5390

>  <NO.>
5402

>  <Name>
pirazolac

>  <IUPAC_name>
2-[4-(4-chlorophenyl)-1-(4-fluorophenyl)pyrazol-3-yl]acetic acid

>  <SMILES>
O=C(O)Cc1nn(-c2ccc(F)cc2)cc1-c1ccc(Cl)cc1

>  <CID>
51222

>  <logBB>


>  <BBB+/BBB->
BBB-

>  <Inchi>
InChI=1S/C17H12ClFN2O2/c18-12-3-1-11(2-4-12)15-10-21(20-16(15)9-17(22)23)14-7-5-13(19)6-8-14/h1-8-10H-9H2-(H-22-23)

>  <threshold>


>  <reference>
R14|

>  <group>
C

>  <Class>
-1

>  <ABC>
17.99

>  <ABCGG>
14.45

>  <nAcid>
1

>  <nBase>
0

>  <nAromAtom>
17

>  <nAromBond>
17

>  <nAtom>
35

>  <nHeavyAtom>
23

>  <nSpiro>
0

>  <nBridgehead>
0

>  <nHetero>
6

>  <nN>
2

>  <nO>
2

>  <nF>
1

>  <BalabanJ>
1.62

>  <BertzCT>
842.03

>  <nBonds>
37

>  <nBondsO>
25

>  <nBondsS>
19

>  <nBondsD>
1

>  <nBondsT>
0

>  <nBondsA>
17

>  <nBondsM>
18

>  <nBondsKS>
28

>  <nBondsKD>
9

>  <RNCG>
0.27

>  <RPCG>
0.18

>  <FCSP3>
0.06

>  <SZ>
28.33

>  <Sm>
27.54

>  <Sv>
24.93

>  <Sse>
36.04

>  <Sp>
25.71

>  <Si>
39.19

>  <MZ>
0.81

>  <Mm>
0.79

>  <Mv>
0.71

>  <Mse>
1.03

>  <Mp>
0.73

>  <Mi>
1.12

>  <NsCH3>
0

>  <NdCH2>
0

>  <NssCH2>
1

>  <NtCH>
0

>  <NdsCH>
0

>  <NaaCH>
9

>  <NsssCH>
0

>  <NddC>
0

>  <NtsC>
0

>  <NdssC>
1

>  <NaasC>
6

>  <NaaaC>
0

>  <NssssC>
0

>  <NsNH3>
0

>  <NsNH2>
0

>  <NssNH2>
0

>  <NdNH>
0

>  <NssNH>
0

>  <NaaNH>
0

>  <NtN>
0

>  <NsssNH>
0

>  <NdsN>
0

>  <NaaN>
1

>  <NsssN>
0

>  <NddsN>
0

>  <NaasN>
1

>  <NssssN>
0

>  <NsOH>
1

>  <NdO>
1

>  <NssO>
0

>  <NaaO>
0

>  <NsF>
1

>  <NsSiH3>
0

>  <NssSiH2>
0

>  <NsssSiH>
0

>  <NssssSi>
0

>  <NsPH2>
0

>  <NssPH>
0

>  <NsssP>
0

>  <NdsssP>
0

>  <NsssssP>
0

>  <NsSH>
0

>  <NdS>
0

>  <NssS>
0

>  <NaaS>
0

>  <NdssS>
0

>  <NddssS>
0

>  <NsCl>
1

>  <NsBr>
0

>  <NsI>
0

>  <fragCpx>
119.06

>  <fMF>
0.49

>  <nHBAcc>
3

>  <nHBDon>
1

>  <Kier1>
17.81

>  <Kier2>
7.92

>  <Lipinski>
1

>  <GhoseFilter>
1

>  <FilterItLogS>
-4.73

>  <VMcGowan>
224.81

>  <LabuteASA>
136.31

>  <PEOE_VSA1>
5.11

>  <PEOE_VSA2>
4.79

>  <PEOE_VSA3>
9.07

>  <PEOE_VSA4>
5.1

>  <PEOE_VSA5>
0

>  <PEOE_VSA6>
23.73

>  <PEOE_VSA7>
41.96

>  <PEOE_VSA8>
16.78

>  <PEOE_VSA9>
17.8

>  <PEOE_VSA10>
5.82

>  <PEOE_VSA11>
0

>  <PEOE_VSA12>
0

>  <PEOE_VSA13>
0

>  <SMR_VSA1>
14.29

>  <SMR_VSA2>
0

>  <SMR_VSA3>
9.78

>  <SMR_VSA4>
0

>  <SMR_VSA5>
6.42

>  <SMR_VSA6>
0

>  <SMR_VSA7>
71.26

>  <SMR_VSA8>
0

>  <SMR_VSA9>
16.81

>  <SlogP_VSA1>
0

>  <SlogP_VSA2>
20.86

>  <SlogP_VSA3>
11.22

>  <SlogP_VSA4>
5.82

>  <SlogP_VSA5>
5.69

>  <SlogP_VSA6>
54.73

>  <SlogP_VSA7>
5.02

>  <SlogP_VSA8>
16.81

>  <SlogP_VSA9>
0

>  <SlogP_VSA10>
4.39

>  <SlogP_VSA11>
0

>  <EState_VSA1>
5.97

>  <EState_VSA2>
12.24

>  <EState_VSA3>
21.97

>  <EState_VSA4>
5.56

>  <EState_VSA5>
12.13

>  <EState_VSA6>
47.28

>  <EState_VSA7>
0

>  <EState_VSA8>
5.1

>  <EState_VSA9>
16.71

>  <EState_VSA10>
9.18

>  <VSA_EState1>
14.59

>  <VSA_EState2>
11.08

>  <VSA_EState3>
14

>  <VSA_EState4>
2.61

>  <VSA_EState5>
-1.31

>  <VSA_EState6>
12.9

>  <VSA_EState7>
1.53

>  <VSA_EState8>
0

>  <VSA_EState9>
0

>  <apol>
42.93

>  <bpol>
16.24

>  <nRing>
3

>  <nHRing>
1

>  <naRing>
3

>  <naHRing>
1

>  <nARing 2>
0

>  <nAHRing 2>
0

>  <nFRing>
0

>  <nFHRing>
0

>  <nFaRing>
0

>  <nFaHRing>
0

>  <nFARing 2>
0

>  <nFAHRing 2>
0

>  <nRot>
4

>  <SLogP>
3.96

>  <SMR>
85.31

>  <TopoPSA(NO)>
55.12

>  <TopoPSA>
55.12

>  <JGI1>
0.22

>  <JGI2>
0.08

>  <JGI3>
0.04

>  <JGI4>
0.04

>  <JGI5>
0.04

>  <Diameter>
12

>  <Radius>
6

>  <TMWC10>
122.43

>  <TSRW10>
71.19

>  <MW>
330.06

>  <AMW>
9.43

>  <WPath>
1209

>  <WPol>
33

>  <Zagreb1>
120

>  <Zagreb2>
139

>  <mZagreb2>
5

>  <yes>


>  <nAR-cont>
0.336376

>  <nHA-cont>
0.967789328

>  <MWHBN>
0.220172738

>  <MWHBN-cont>
0.994851515

>  <TPSA-cont>
0.615228173

>  <pka_cont>
0.97

>  <yes.1>


>  <BBB_SCORE>
4.511898945

>  <MMFF94 Energy>
45.995

$$$$
Compound 2592
Actelion Java MolfileCreator 2.0

  0  0  0  0  0  0              0 V3000
M  V30 BEGIN CTAB
M  V30 COUNTS 50 52 0 0 0
M  V30 BEGIN ATOM
M  V30 1 O -4.6211 3.8232 -4.8606 0
M  V30 2 C -4.1802 2.692 -4.9447 0
M  V30 3 O -4.2235 2.0125 -6.1046 0
M  V30 4 C -3.5558 1.9164 -3.846 0
M  V30 5 C -3.0631 0.6216 -4.0358 0
M  V30 6 C -3.4578 2.5107 -2.5834 0
M  V30 7 C -2.4812 -0.0691 -2.9674 0
M  V30 8 C -2.8749 1.8157 -1.5169 0
M  V30 9 C -2.3906 0.5195 -1.7 0
M  V30 10 N -1.7769 -0.2346 -0.6849 0
M  V30 11 C -1.779 0.0153 0.6791 0
M  V30 12 O -2.4516 0.8838 1.2304 0
M  V30 13 C -0.9761 -1.0429 1.4851 0 CFG=1
M  V30 14 N 0.372 -1.2678 0.9377 0
M  V30 15 C -0.9502 -0.7548 3.0027 0
M  V30 16 C 0.627 -2.0945 -0.1284 0
M  V30 17 C 0.1336 0.1981 3.4659 0
M  V30 18 O -0.2744 -2.654 -0.7456 0
M  V30 19 C 2.0483 -2.2664 -0.5326 0
M  V30 20 C 1.2977 -0.3004 4.0746 0
M  V30 21 C 0.008 1.5805 3.2787 0
M  V30 22 C 2.4085 -3.4557 -1.1792 0
M  V30 23 C 3.0166 -1.2777 -0.3126 0
M  V30 24 C 2.3185 0.5638 4.4771 0
M  V30 25 C 1.0298 2.4441 3.6776 0
M  V30 26 C 3.7289 -3.666 -1.5798 0
M  V30 27 C 4.3368 -1.4925 -0.7168 0
M  V30 28 C 2.1754 1.9311 4.2722 0
M  V30 29 C 4.6922 -2.6859 -1.3451 0
M  V30 30 O 3.1463 2.8114 4.647 0
M  V30 31 H -4.656 2.6377 -6.7233 0
M  V30 32 H -3.1255 0.1394 -5.0081 0
M  V30 33 H -3.8329 3.5194 -2.4198 0
M  V30 34 H -2.1046 -1.0756 -3.138 0
M  V30 35 H -2.8075 2.317 -0.5558 0
M  V30 36 H -1.34 -1.1112 -0.9722 0
M  V30 37 H -1.5411 -1.9762 1.3483 0
M  V30 38 H 1.1337 -0.7766 1.3866 0
M  V30 39 H -0.8024 -1.7109 3.5237 0
M  V30 40 H -1.9229 -0.3871 3.3529 0
M  V30 41 H 1.4169 -1.3696 4.2402 0
M  V30 42 H -0.8878 2.0032 2.8278 0
M  V30 43 H 1.6613 -4.2237 -1.3699 0
M  V30 44 H 2.7642 -0.3241 0.1416 0
M  V30 45 H 3.2078 0.1549 4.9459 0
M  V30 46 H 0.926 3.5156 3.53 0
M  V30 47 H 4.0041 -4.5922 -2.0783 0
M  V30 48 H 5.0877 -0.7232 -0.5513 0
M  V30 49 H 5.7198 -2.8483 -1.6616 0
M  V30 50 H 3.8461 2.3243 5.1114 0
M  V30 END ATOM
M  V30 BEGIN BOND
M  V30 1 2 1 2
M  V30 2 1 2 3
M  V30 3 1 2 4
M  V30 4 2 4 5
M  V30 5 1 4 6
M  V30 6 1 5 7
M  V30 7 2 6 8
M  V30 8 2 7 9
M  V30 9 1 9 10
M  V30 10 1 10 11
M  V30 11 2 11 12
M  V30 12 1 11 13
M  V30 13 1 13 14
M  V30 14 1 13 15
M  V30 15 1 14 16
M  V30 16 1 15 17
M  V30 17 2 16 18
M  V30 18 1 16 19
M  V30 19 2 17 20
M  V30 20 1 17 21
M  V30 21 2 19 22
M  V30 22 1 19 23
M  V30 23 1 20 24
M  V30 24 2 21 25
M  V30 25 1 22 26
M  V30 26 2 23 27
M  V30 27 2 24 28
M  V30 28 2 26 29
M  V30 29 1 28 30
M  V30 30 1 8 9
M  V30 31 1 25 28
M  V30 32 1 27 29
M  V30 33 1 3 31
M  V30 34 1 5 32
M  V30 35 1 6 33
M  V30 36 1 7 34
M  V30 37 1 8 35
M  V30 38 1 10 36
M  V30 39 1 13 37
M  V30 40 1 14 38
M  V30 41 1 15 39
M  V30 42 1 15 40
M  V30 43 1 20 41
M  V30 44 1 21 42
M  V30 45 1 22 43
M  V30 46 1 23 44
M  V30 47 1 24 45
M  V30 48 1 25 46
M  V30 49 1 26 47
M  V30 50 1 27 48
M  V30 51 1 29 49
M  V30 52 1 30 50
M  V30 END BOND
M  V30 BEGIN COLLECTION
M  V30 MDLV30/STERAC1 ATOMS=(1 13)
M  V30 END COLLECTION
M  V30 END CTAB
M  END
>  <Column 1>
3232

>  <level_0>
5390

>  <index>
5391

>  <Unnamed: 0>
5391

>  <NO.>
5403

>  <Name>
bentiromide

>  <IUPAC_name>
4-[[2-benzamido-3-(4-hydroxyphenyl)propanoyl]amino]benzoic acid

>  <SMILES>
O=C(O)c1ccc(NC(=O)C(Cc2ccc(O)cc2)NC(=O)c2ccccc2)cc1

>  <CID>
2329

>  <logBB>


>  <BBB+/BBB->
BBB-

>  <Inchi>
InChI=1S/C23H20N2O5/c26-19-12-6-15(7-13-19)14-20(25-21(27)16-4-2-1-3-5-16)22(28)24-18-10-8-17(9-11-18)23(29)30/h1-13-20-26H-14H2-(H-24-28)(H-25-27)(H-29-30)

>  <threshold>


>  <reference>
R14|

>  <group>
C

>  <Class>
-1

>  <ABC>
23.05

>  <ABCGG>
17.95

>  <nAcid>
1

>  <nBase>
0

>  <nAromAtom>
18

>  <nAromBond>
18

>  <nAtom>
50

>  <nHeavyAtom>
30

>  <nSpiro>
0

>  <nBridgehead>
0

>  <nHetero>
7

>  <nN>
2

>  <nO>
5

>  <nF>
0

>  <BalabanJ>
1.54

>  <BertzCT>
1031.45

>  <nBonds>
52

>  <nBondsO>
32

>  <nBondsS>
31

>  <nBondsD>
3

>  <nBondsT>
0

>  <nBondsA>
18

>  <nBondsM>
21

>  <nBondsKS>
40

>  <nBondsKD>
12

>  <RNCG>
0.16

>  <RPCG>
0.11

>  <FCSP3>
0.09

>  <SZ>
35.33

>  <Sm>
33.67

>  <Sv>
33.51

>  <Sse>
50.86

>  <Sp>
34.7

>  <Si>
55.78

>  <MZ>
0.71

>  <Mm>
0.67

>  <Mv>
0.67

>  <Mse>
1.02

>  <Mp>
0.69

>  <Mi>
1.12

>  <NsCH3>
0

>  <NdCH2>
0

>  <NssCH2>
1

>  <NtCH>
0

>  <NdsCH>
0

>  <NaaCH>
13

>  <NsssCH>
1

>  <NddC>
0

>  <NtsC>
0

>  <NdssC>
3

>  <NaasC>
5

>  <NaaaC>
0

>  <NssssC>
0

>  <NsNH3>
0

>  <NsNH2>
0

>  <NssNH2>
0

>  <NdNH>
0

>  <NssNH>
2

>  <NaaNH>
0

>  <NtN>
0

>  <NsssNH>
0

>  <NdsN>
0

>  <NaaN>
0

>  <NsssN>
0

>  <NddsN>
0

>  <NaasN>
0

>  <NssssN>
0

>  <NsOH>
2

>  <NdO>
3

>  <NssO>
0

>  <NaaO>
0

>  <NsF>
0

>  <NsSiH3>
0

>  <NssSiH2>
0

>  <NsssSiH>
0

>  <NssssSi>
0

>  <NsPH2>
0

>  <NssPH>
0

>  <NsssP>
0

>  <NdsssP>
0

>  <NsssssP>
0

>  <NsSH>
0

>  <NdS>
0

>  <NssS>
0

>  <NaaS>
0

>  <NdssS>
0

>  <NddssS>
0

>  <NsCl>
0

>  <NsBr>
0

>  <NsI>
0

>  <fragCpx>
154.07

>  <fMF>
0.48

>  <nHBAcc>
4

>  <nHBDon>
4

>  <Kier1>
24.64

>  <Kier2>
12.3

>  <Lipinski>
1

>  <GhoseFilter>
1

>  <FilterItLogS>
-4.63

>  <VMcGowan>
300.06

>  <LabuteASA>
172.54

>  <PEOE_VSA1>
20.85

>  <PEOE_VSA2>
9.59

>  <PEOE_VSA3>
4.79

>  <PEOE_VSA4>
0

>  <PEOE_VSA5>
0

>  <PEOE_VSA6>
30.33

>  <PEOE_VSA7>
54.09

>  <PEOE_VSA8>
17.67

>  <PEOE_VSA9>
5.56

>  <PEOE_VSA10>
11.79

>  <PEOE_VSA11>
0

>  <PEOE_VSA12>
5.91

>  <PEOE_VSA13>
5.91

>  <SMR_VSA1>
24.6

>  <SMR_VSA2>
0

>  <SMR_VSA3>
5.32

>  <SMR_VSA4>
0

>  <SMR_VSA5>
12.46

>  <SMR_VSA6>
5.32

>  <SMR_VSA7>
95.55

>  <SMR_VSA8>
0

>  <SMR_VSA9>
5.75

>  <SlogP_VSA1>
10.63

>  <SlogP_VSA2>
34.04

>  <SlogP_VSA3>
11.22

>  <SlogP_VSA4>
0

>  <SlogP_VSA5>
26.28

>  <SlogP_VSA6>
78.86

>  <SlogP_VSA7>
0

>  <SlogP_VSA8>
0

>  <SlogP_VSA9>
0

>  <SlogP_VSA10>
5.69

>  <SlogP_VSA11>
5.75

>  <EState_VSA1>
23.83

>  <EState_VSA2>
17.73

>  <EState_VSA3>
11.25

>  <EState_VSA4>
5.56

>  <EState_VSA5>
36.4

>  <EState_VSA6>
42.46

>  <EState_VSA7>
0

>  <EState_VSA8>
10.63

>  <EState_VSA9>
5.11

>  <EState_VSA10>
19.49

>  <VSA_EState1>
0

>  <VSA_EState2>
36.43

>  <VSA_EState3>
23.88

>  <VSA_EState4>
1.69

>  <VSA_EState5>
-1.8

>  <VSA_EState6>
19.76

>  <VSA_EState7>
0.21

>  <VSA_EState8>
0

>  <VSA_EState9>
0

>  <apol>
57.96

>  <bpol>
23.81

>  <nRing>
3

>  <nHRing>
0

>  <naRing>
3

>  <naHRing>
0

>  <nARing 2>
0

>  <nAHRing 2>
0

>  <nFRing>
0

>  <nFHRing>
0

>  <nFaRing>
0

>  <nFaHRing>
0

>  <nFARing 2>
0

>  <nFAHRing 2>
0

>  <nRot>
7

>  <SLogP>
3.07

>  <SMR>
111.54

>  <TopoPSA(NO)>
115.73

>  <TopoPSA>
115.73

>  <JGI1>
0.2

>  <JGI2>
0.08

>  <JGI3>
0.04

>  <JGI4>
0.04

>  <JGI5>
0.02

>  <Diameter>
14

>  <Radius>
7

>  <TMWC10>
137.21

>  <TSRW10>
65.16

>  <MW>
404.14

>  <AMW>
8.08

>  <WPath>
2664

>  <WPol>
43

>  <Zagreb1>
150

>  <Zagreb2>
170

>  <mZagreb2>
6.67

>  <yes>


>  <nAR-cont>
0.336376

>  <nHA-cont>
0.74523694

>  <MWHBN>
0.397945931

>  <MWHBN-cont>
0.484148364

>  <TPSA-cont>
0.192132736

>  <pka_cont>
0.97

>  <yes.1>


>  <BBB_SCORE>
2.677100957

>  <MMFF94 Energy>
46.893

$$$$
Compound 2593
Actelion Java MolfileCreator 2.0

  0  0  0  0  0  0              0 V3000
M  V30 BEGIN CTAB
M  V30 COUNTS 30 31 0 0 0
M  V30 BEGIN ATOM
M  V30 1 F 0.1612 3.9554 -3.5512 0
M  V30 2 C 0.5443 4.1626 -2.2611 0
M  V30 3 F -0.5217 4.7443 -1.6431 0
M  V30 4 F 1.5113 5.122 -2.3091 0
M  V30 5 C 1.0009 2.8942 -1.5873 0
M  V30 6 C 0.0708 2.0535 -0.9505 0
M  V30 7 C 2.3479 2.5117 -1.619 0
M  V30 8 C 0.4632 0.8555 -0.3352 0
M  V30 9 C 2.7535 1.3248 -1.0133 0
M  V30 10 N -0.5231 0.0483 0.2544 0
M  V30 11 C 1.8158 0.5051 -0.3796 0
M  V30 12 C -0.6069 -1.3384 0.5114 0
M  V30 13 C -1.4297 -1.8417 1.5481 0
M  V30 14 C 0.1453 -2.2629 -0.2319 0
M  V30 15 C -2.2803 -0.9113 2.3385 0
M  V30 16 C -1.4663 -3.2208 1.823 0
M  V30 17 C 0.1019 -3.6326 0.0445 0
M  V30 18 O -2.4983 0.2582 2.0708 0
M  V30 19 O -2.8213 -1.4818 3.4308 0
M  V30 20 C -0.6987 -4.1112 1.0749 0
M  V30 21 H -0.9817 2.3363 -0.9429 0
M  V30 22 H 3.0872 3.1405 -2.1129 0
M  V30 23 H 3.8015 1.0355 -1.0281 0
M  V30 24 H -1.308 0.5782 0.6457 0
M  V30 25 H 2.1662 -0.3987 0.111 0
M  V30 26 H 0.7568 -1.9275 -1.0658 0
M  V30 27 H -2.0977 -3.6123 2.6175 0
M  V30 28 H 0.6918 -4.3232 -0.5532 0
M  V30 29 H -3.3358 -0.7596 3.8487 0
M  V30 30 H -0.7338 -5.1762 1.2902 0
M  V30 END ATOM
M  V30 BEGIN BOND
M  V30 1 1 1 2
M  V30 2 1 2 3
M  V30 3 1 2 4
M  V30 4 1 2 5
M  V30 5 2 5 6
M  V30 6 1 5 7
M  V30 7 1 6 8
M  V30 8 2 7 9
M  V30 9 1 8 10
M  V30 10 2 8 11
M  V30 11 1 10 12
M  V30 12 2 12 13
M  V30 13 1 12 14
M  V30 14 1 13 15
M  V30 15 1 13 16
M  V30 16 2 14 17
M  V30 17 2 15 18
M  V30 18 1 15 19
M  V30 19 2 16 20
M  V30 20 1 9 11
M  V30 21 1 17 20
M  V30 22 1 6 21
M  V30 23 1 7 22
M  V30 24 1 9 23
M  V30 25 1 10 24
M  V30 26 1 11 25
M  V30 27 1 14 26
M  V30 28 1 16 27
M  V30 29 1 17 28
M  V30 30 1 19 29
M  V30 31 1 20 30
M  V30 END BOND
M  V30 END CTAB
M  END
>  <Column 1>
3233

>  <level_0>
5391

>  <index>
5392

>  <Unnamed: 0>
5392

>  <NO.>
5404

>  <Name>
flufenamic

>  <IUPAC_name>
2-[3-(trifluoromethyl)anilino]benzoic acid

>  <SMILES>
O=C(O)c1ccccc1Nc1cccc(C(F)(F)F)c1

>  <CID>
3371

>  <logBB>


>  <BBB+/BBB->
BBB-

>  <Inchi>
InChI=1S/C14H10F3NO2/c15-14(16-17)9-4-3-5-10(8-9)18-12-7-2-1-6-11(12)13(19)20/h1-8-18H-(H-19-20)

>  <threshold>


>  <reference>
R14|

>  <group>
C

>  <Class>
-1

>  <ABC>
15.4

>  <ABCGG>
13.11

>  <nAcid>
1

>  <nBase>
0

>  <nAromAtom>
12

>  <nAromBond>
12

>  <nAtom>
30

>  <nHeavyAtom>
20

>  <nSpiro>
0

>  <nBridgehead>
0

>  <nHetero>
6

>  <nN>
1

>  <nO>
2

>  <nF>
3

>  <BalabanJ>
1.91

>  <BertzCT>
638.31

>  <nBonds>
31

>  <nBondsO>
21

>  <nBondsS>
18

>  <nBondsD>
1

>  <nBondsT>
0

>  <nBondsA>
12

>  <nBondsM>
13

>  <nBondsKS>
24

>  <nBondsKD>
7

>  <RNCG>
0.24

>  <RPCG>
0.21

>  <FCSP3>
0.07

>  <SZ>
24

>  <Sm>
23.41

>  <Sv>
20.84

>  <Sse>
31.63

>  <Sp>
20.61

>  <Si>
34.43

>  <MZ>
0.8

>  <Mm>
0.78

>  <Mv>
0.69

>  <Mse>
1.05

>  <Mp>
0.69

>  <Mi>
1.15

>  <NsCH3>
0

>  <NdCH2>
0

>  <NssCH2>
0

>  <NtCH>
0

>  <NdsCH>
0

>  <NaaCH>
8

>  <NsssCH>
0

>  <NddC>
0

>  <NtsC>
0

>  <NdssC>
1

>  <NaasC>
4

>  <NaaaC>
0

>  <NssssC>
1

>  <NsNH3>
0

>  <NsNH2>
0

>  <NssNH2>
0

>  <NdNH>
0

>  <NssNH>
1

>  <NaaNH>
0

>  <NtN>
0

>  <NsssNH>
0

>  <NdsN>
0

>  <NaaN>
0

>  <NsssN>
0

>  <NddsN>
0

>  <NaasN>
0

>  <NssssN>
0

>  <NsOH>
1

>  <NdO>
1

>  <NssO>
0

>  <NaaO>
0

>  <NsF>
3

>  <NsSiH3>
0

>  <NssSiH2>
0

>  <NsssSiH>
0

>  <NssssSi>
0

>  <NsPH2>
0

>  <NssPH>
0

>  <NsssP>
0

>  <NdsssP>
0

>  <NsssssP>
0

>  <NsSH>
0

>  <NdS>
0

>  <NssS>
0

>  <NaaS>
0

>  <NdssS>
0

>  <NddssS>
0

>  <NsCl>
0

>  <NsBr>
0

>  <NsI>
0

>  <fragCpx>
61.06

>  <fMF>
0.43

>  <nHBAcc>
2

>  <nHBDon>
2

>  <Kier1>
16.37

>  <Kier2>
6.84

>  <Lipinski>
1

>  <GhoseFilter>
1

>  <FilterItLogS>
-4.01

>  <VMcGowan>
183.3

>  <LabuteASA>
112.22

>  <PEOE_VSA1>
10.42

>  <PEOE_VSA2>
0

>  <PEOE_VSA3>
4.79

>  <PEOE_VSA4>
13.17

>  <PEOE_VSA5>
0

>  <PEOE_VSA6>
18.2

>  <PEOE_VSA7>
30.33

>  <PEOE_VSA8>
5.69

>  <PEOE_VSA9>
16.81

>  <PEOE_VSA10>
0

>  <PEOE_VSA11>
0

>  <PEOE_VSA12>
0

>  <PEOE_VSA13>
0

>  <SMR_VSA1>
23.07

>  <SMR_VSA2>
0

>  <SMR_VSA3>
0

>  <SMR_VSA4>
0

>  <SMR_VSA5>
6.18

>  <SMR_VSA6>
5.32

>  <SMR_VSA7>
59.66

>  <SMR_VSA8>
0

>  <SMR_VSA9>
0

>  <SlogP_VSA1>
5.32

>  <SlogP_VSA2>
11.08

>  <SlogP_VSA3>
6.18

>  <SlogP_VSA4>
0

>  <SlogP_VSA5>
15.92

>  <SlogP_VSA6>
48.53

>  <SlogP_VSA7>
0

>  <SlogP_VSA8>
0

>  <SlogP_VSA9>
0

>  <SlogP_VSA10>
24.55

>  <SlogP_VSA11>
0

>  <EState_VSA1>
17.71

>  <EState_VSA2>
16.94

>  <EState_VSA3>
0

>  <EState_VSA4>
12.13

>  <EState_VSA5>
24.27

>  <EState_VSA6>
12.13

>  <EState_VSA7>
0

>  <EState_VSA8>
5.32

>  <EState_VSA9>
5.11

>  <EState_VSA10>
17.97

>  <VSA_EState1>
37.78

>  <VSA_EState2>
11.02

>  <VSA_EState3>
11.69

>  <VSA_EState4>
-0.4

>  <VSA_EState5>
-1.15

>  <VSA_EState6>
10.58

>  <VSA_EState7>
-4.44

>  <VSA_EState8>
0

>  <VSA_EState9>
0

>  <apol>
34.42

>  <bpol>
14.81

>  <nRing>
2

>  <nHRing>
0

>  <naRing>
2

>  <naHRing>
0

>  <nARing 2>
0

>  <nAHRing 2>
0

>  <nFRing>
0

>  <nFHRing>
0

>  <nFaRing>
0

>  <nFaHRing>
0

>  <nFARing 2>
0

>  <nFAHRing 2>
0

>  <nRot>
3

>  <SLogP>
4.15

>  <SMR>
68.13

>  <TopoPSA(NO)>
49.33

>  <TopoPSA>
49.33

>  <JGI1>
0.26

>  <JGI2>
0.08

>  <JGI3>
0.06

>  <JGI4>
0.04

>  <JGI5>
0.03

>  <Diameter>
9

>  <Radius>
5

>  <TMWC10>
113.4

>  <TSRW10>
53.54

>  <MW>
281.07

>  <AMW>
9.37

>  <WPath>
828

>  <WPol>
29

>  <Zagreb1>
102

>  <Zagreb2>
116

>  <mZagreb2>
4.31

>  <yes>


>  <nAR-cont>
0.336376

>  <nHA-cont>
0.999629945

>  <MWHBN>
0.238590279

>  <MWHBN-cont>
0.976842976

>  <TPSA-cont>
0.655645968

>  <pka_cont>
0.97

>  <yes.1>


>  <BBB_SCORE>
4.597562344

>  <MMFF94 Energy>
56.244

$$$$
Compound 2594
Actelion Java MolfileCreator 2.0

  0  0  0  0  0  0              0 V3000
M  V30 BEGIN CTAB
M  V30 COUNTS 29 30 0 0 0
M  V30 BEGIN ATOM
M  V30 1 F 0.2422 4.2857 -2.9905 0
M  V30 2 C 0.8094 4.2021 -1.7555 0
M  V30 3 F -0.082 4.7737 -0.8969 0
M  V30 4 F 1.885 5.0384 -1.7806 0
M  V30 5 C 1.1646 2.7867 -1.3808 0
M  V30 6 C 0.2145 1.9566 -0.7576 0
M  V30 7 C 2.4277 2.2635 -1.6784 0
M  V30 8 C 0.5029 0.6245 -0.4162 0
M  V30 9 C 2.7337 0.9476 -1.3429 0
M  V30 10 N -0.4951 -0.1364 0.2116 0
M  V30 11 C 1.7788 0.1407 -0.7159 0
M  V30 12 C -0.6197 -1.5111 0.4952 0
M  V30 13 N 0.259 -2.3827 -0.0632 0
M  V30 14 C -1.6133 -1.9736 1.3759 0
M  V30 15 C 0.1671 -3.6972 0.2358 0
M  V30 16 C -2.6218 -1.1098 2.0329 0
M  V30 17 C -1.6776 -3.3441 1.6754 0
M  V30 18 C -0.7744 -4.2228 1.095 0
M  V30 19 O -3.3344 -1.4422 2.9636 0
M  V30 20 O -2.7506 0.1144 1.484 0
M  V30 21 H -0.7721 2.3633 -0.5385 0
M  V30 22 H 3.1791 2.8793 -2.1698 0
M  V30 23 H 3.7166 0.5406 -1.567 0
M  V30 24 H -1.3568 0.3681 0.4131 0
M  V30 25 H 2.0601 -0.8764 -0.46 0
M  V30 26 H 0.901 -4.333 -0.2513 0
M  V30 27 H -2.4337 -3.7253 2.3591 0
M  V30 28 H -0.8052 -5.2854 1.3075 0
M  V30 29 H -3.4676 0.5227 2.0199 0
M  V30 END ATOM
M  V30 BEGIN BOND
M  V30 1 1 1 2
M  V30 2 1 2 3
M  V30 3 1 2 4
M  V30 4 1 2 5
M  V30 5 2 5 6
M  V30 6 1 5 7
M  V30 7 1 6 8
M  V30 8 2 7 9
M  V30 9 1 8 10
M  V30 10 2 8 11
M  V30 11 1 10 12
M  V30 12 2 12 13
M  V30 13 1 12 14
M  V30 14 1 13 15
M  V30 15 1 14 16
M  V30 16 2 14 17
M  V30 17 2 15 18
M  V30 18 2 16 19
M  V30 19 1 16 20
M  V30 20 1 9 11
M  V30 21 1 17 18
M  V30 22 1 6 21
M  V30 23 1 7 22
M  V30 24 1 9 23
M  V30 25 1 10 24
M  V30 26 1 11 25
M  V30 27 1 15 26
M  V30 28 1 17 27
M  V30 29 1 18 28
M  V30 30 1 20 29
M  V30 END BOND
M  V30 END CTAB
M  END
>  <Column 1>
3234

>  <level_0>
5392

>  <index>
5393

>  <Unnamed: 0>
5393

>  <NO.>
5405

>  <Name>
niflumic acid

>  <IUPAC_name>
2-[3-(trifluoromethyl)anilino]pyridine-3-carboxylic acid

>  <SMILES>
O=C(O)c1cccnc1Nc1cccc(C(F)(F)F)c1

>  <CID>
4488

>  <logBB>


>  <BBB+/BBB->
BBB-

>  <Inchi>
InChI=1S/C13H9F3N2O2/c14-13(15-16)8-3-1-4-9(7-8)18-11-10(12(19)20)5-2-6-17-11/h1-7H-(H-17-18)(H-19-20)

>  <threshold>


>  <reference>
R14|R23|

>  <group>
C

>  <Class>
1

>  <ABC>
15.4

>  <ABCGG>
13.11

>  <nAcid>
1

>  <nBase>
0

>  <nAromAtom>
12

>  <nAromBond>
12

>  <nAtom>
29

>  <nHeavyAtom>
20

>  <nSpiro>
0

>  <nBridgehead>
0

>  <nHetero>
7

>  <nN>
2

>  <nO>
2

>  <nF>
3

>  <BalabanJ>
1.91

>  <BertzCT>
641.51

>  <nBonds>
30

>  <nBondsO>
21

>  <nBondsS>
17

>  <nBondsD>
1

>  <nBondsT>
0

>  <nBondsA>
12

>  <nBondsM>
13

>  <nBondsKS>
23

>  <nBondsKD>
7

>  <RNCG>
0.23

>  <RPCG>
0.2

>  <FCSP3>
0.08

>  <SZ>
24

>  <Sm>
23.5

>  <Sv>
20.32

>  <Sse>
30.85

>  <Sp>
19.87

>  <Si>
33.51

>  <MZ>
0.83

>  <Mm>
0.81

>  <Mv>
0.7

>  <Mse>
1.06

>  <Mp>
0.69

>  <Mi>
1.16

>  <NsCH3>
0

>  <NdCH2>
0

>  <NssCH2>
0

>  <NtCH>
0

>  <NdsCH>
0

>  <NaaCH>
7

>  <NsssCH>
0

>  <NddC>
0

>  <NtsC>
0

>  <NdssC>
1

>  <NaasC>
4

>  <NaaaC>
0

>  <NssssC>
1

>  <NsNH3>
0

>  <NsNH2>
0

>  <NssNH2>
0

>  <NdNH>
0

>  <NssNH>
1

>  <NaaNH>
0

>  <NtN>
0

>  <NsssNH>
0

>  <NdsN>
0

>  <NaaN>
1

>  <NsssN>
0

>  <NddsN>
0

>  <NaasN>
0

>  <NssssN>
0

>  <NsOH>
1

>  <NdO>
1

>  <NssO>
0

>  <NaaO>
0

>  <NsF>
3

>  <NsSiH3>
0

>  <NssSiH2>
0

>  <NsssSiH>
0

>  <NssssSi>
0

>  <NsPH2>
0

>  <NssPH>
0

>  <NsssP>
0

>  <NdsssP>
0

>  <NsssssP>
0

>  <NsSH>
0

>  <NdS>
0

>  <NssS>
0

>  <NaaS>
0

>  <NdssS>
0

>  <NddssS>
0

>  <NsCl>
0

>  <NsBr>
0

>  <NsI>
0

>  <fragCpx>
61.07

>  <fMF>
0.45

>  <nHBAcc>
3

>  <nHBDon>
2

>  <Kier1>
16.37

>  <Kier2>
6.84

>  <Lipinski>
1

>  <GhoseFilter>
1

>  <FilterItLogS>
-3.79

>  <VMcGowan>
179.19

>  <LabuteASA>
111.44

>  <PEOE_VSA1>
10.42

>  <PEOE_VSA2>
0

>  <PEOE_VSA3>
9.78

>  <PEOE_VSA4>
13.17

>  <PEOE_VSA5>
0

>  <PEOE_VSA6>
6.07

>  <PEOE_VSA7>
30.33

>  <PEOE_VSA8>
11.88

>  <PEOE_VSA9>
5.56

>  <PEOE_VSA10>
11.38

>  <PEOE_VSA11>
0

>  <PEOE_VSA12>
0

>  <PEOE_VSA13>
0

>  <SMR_VSA1>
23.07

>  <SMR_VSA2>
0

>  <SMR_VSA3>
4.98

>  <SMR_VSA4>
0

>  <SMR_VSA5>
6.18

>  <SMR_VSA6>
5.32

>  <SMR_VSA7>
53.72

>  <SMR_VSA8>
0

>  <SMR_VSA9>
0

>  <SlogP_VSA1>
5.32

>  <SlogP_VSA2>
16.06

>  <SlogP_VSA3>
6.18

>  <SlogP_VSA4>
0

>  <SlogP_VSA5>
15.92

>  <SlogP_VSA6>
42.6

>  <SlogP_VSA7>
0

>  <SlogP_VSA8>
0

>  <SlogP_VSA9>
0

>  <SlogP_VSA10>
24.68

>  <SlogP_VSA11>
0

>  <EState_VSA1>
17.71

>  <EState_VSA2>
17.07

>  <EState_VSA3>
0

>  <EState_VSA4>
12.13

>  <EState_VSA5>
30.46

>  <EState_VSA6>
0

>  <EState_VSA7>
0

>  <EState_VSA8>
10.3

>  <EState_VSA9>
5.11

>  <EState_VSA10>
17.97

>  <VSA_EState1>
37.73

>  <VSA_EState2>
14.79

>  <VSA_EState3>
11.54

>  <VSA_EState4>
-0.83

>  <VSA_EState5>
-1.23

>  <VSA_EState6>
7.19

>  <VSA_EState7>
-3.11

>  <VSA_EState8>
0

>  <VSA_EState9>
0

>  <apol>
33.19

>  <bpol>
14.95

>  <nRing>
2

>  <nHRing>
1

>  <naRing>
2

>  <naHRing>
1

>  <nARing 2>
0

>  <nAHRing 2>
0

>  <nFRing>
0

>  <nFHRing>
0

>  <nFaRing>
0

>  <nFaHRing>
0

>  <nFARing 2>
0

>  <nFAHRing 2>
0

>  <nRot>
3

>  <SLogP>
3.54

>  <SMR>
65.92

>  <TopoPSA(NO)>
62.22

>  <TopoPSA>
62.22

>  <JGI1>
0.26

>  <JGI2>
0.08

>  <JGI3>
0.06

>  <JGI4>
0.04

>  <JGI5>
0.03

>  <Diameter>
9

>  <Radius>
5

>  <TMWC10>
113.4

>  <TSRW10>
53.54

>  <MW>
282.06

>  <AMW>
9.73

>  <WPath>
828

>  <WPol>
29

>  <Zagreb1>
102

>  <Zagreb2>
116

>  <mZagreb2>
4.31

>  <yes>


>  <nAR-cont>
0.336376

>  <nHA-cont>
0.999629945

>  <MWHBN>
0.297713997

>  <MWHBN-cont>
0.847514537

>  <TPSA-cont>
0.565665764

>  <pka_cont>
0.97

>  <yes.1>


>  <BBB_SCORE>
4.223609277

>  <MMFF94 Energy>
34.448

$$$$
Compound 2595
Actelion Java MolfileCreator 2.0

  0  0  0  0  0  0              0 V3000
M  V30 BEGIN CTAB
M  V30 COUNTS 44 48 0 0 0
M  V30 BEGIN ATOM
M  V30 1 O 1.0545 6.0142 2.0287 0
M  V30 2 C 0.7443 4.9078 1.599 0
M  V30 3 C 1.6481 3.6955 1.7032 0
M  V30 4 C -0.5811 4.6125 0.9066 0
M  V30 5 C 1.8777 3.2249 0.2618 0
M  V30 6 C 0.8469 2.6445 2.4811 0
M  V30 7 N -0.6078 3.1727 0.5182 0
M  V30 8 C 0.5197 2.8842 -0.4046 0
M  V30 9 C -0.4737 2.3276 1.733 0
M  V30 10 C 0.4326 1.4258 -0.8743 0
M  V30 11 C -0.5983 0.8486 1.3431 0
M  V30 12 C 0.4321 0.4344 0.2904 0
M  V30 13 O 0.1072 -0.8639 -0.2399 0
M  V30 14 C 0.5 -1.9364 0.5057 0
M  V30 15 O 1.1065 -1.844 1.568 0
M  V30 16 C 0.1278 -3.2152 -0.0902 0
M  V30 17 C -0.5913 -3.4997 -1.3023 0
M  V30 18 C 0.4399 -4.4415 0.4759 0
M  V30 19 C -0.6811 -4.8901 -1.4187 0
M  V30 20 C -1.1806 -2.7147 -2.319 0
M  V30 21 N -0.0475 -5.4332 -0.3267 0
M  V30 22 C -1.3216 -5.5268 -2.4894 0
M  V30 23 C -1.825 -3.3351 -3.3962 0
M  V30 24 C -1.8927 -4.7221 -3.4779 0
M  V30 25 H 2.5838 3.9554 2.2059 0
M  V30 26 H -0.6755 5.246 0.0187 0
M  V30 27 H -1.4059 4.8359 1.5911 0
M  V30 28 H 2.3599 4.0297 -0.3082 0
M  V30 29 H 2.5647 2.3717 0.2501 0
M  V30 30 H 0.6042 3.039 3.4766 0
M  V30 31 H 1.4552 1.7464 2.6345 0
M  V30 32 H 0.4087 3.5089 -1.3011 0
M  V30 33 H -1.3136 2.5455 2.4067 0
M  V30 34 H 1.2605 1.1917 -1.5554 0
M  V30 35 H -0.4806 1.2864 -1.4698 0
M  V30 36 H -0.5039 0.2155 2.2337 0
M  V30 37 H -1.608 0.6543 0.9553 0
M  V30 38 H 1.4388 0.4054 0.7239 0
M  V30 39 H 0.9723 -4.6782 1.3886 0
M  V30 40 H -1.1427 -1.6298 -2.277 0
M  V30 41 H 0.0401 -6.4246 -0.1494 0
M  V30 42 H -1.377 -6.6087 -2.5554 0
M  V30 43 H -2.2767 -2.7244 -4.1743 0
M  V30 44 H -2.3977 -5.187 -4.3216 0
M  V30 END ATOM
M  V30 BEGIN BOND
M  V30 1 2 1 2
M  V30 2 1 2 3
M  V30 3 1 2 4
M  V30 4 1 3 5
M  V30 5 1 3 6
M  V30 6 1 4 7
M  V30 7 1 5 8
M  V30 8 1 6 9
M  V30 9 1 8 10
M  V30 10 1 9 11
M  V30 11 1 10 12
M  V30 12 1 12 13
M  V30 13 1 13 14
M  V30 14 2 14 15
M  V30 15 1 14 16
M  V30 16 1 16 17
M  V30 17 2 16 18
M  V30 18 2 17 19
M  V30 19 1 17 20
M  V30 20 1 18 21
M  V30 21 1 19 22
M  V30 22 2 20 23
M  V30 23 2 22 24
M  V30 24 1 7 8
M  V30 25 1 7 9
M  V30 26 1 11 12
M  V30 27 1 19 21
M  V30 28 1 23 24
M  V30 29 1 3 25
M  V30 30 1 4 26
M  V30 31 1 4 27
M  V30 32 1 5 28
M  V30 33 1 5 29
M  V30 34 1 6 30
M  V30 35 1 6 31
M  V30 36 1 8 32
M  V30 37 1 9 33
M  V30 38 1 10 34
M  V30 39 1 10 35
M  V30 40 1 11 36
M  V30 41 1 11 37
M  V30 42 1 12 38
M  V30 43 1 18 39
M  V30 44 1 20 40
M  V30 45 1 21 41
M  V30 46 1 22 42
M  V30 47 1 23 43
M  V30 48 1 24 44
M  V30 END BOND
M  V30 END CTAB
M  END
>  <Column 1>
3235

>  <level_0>
5393

>  <index>
5394

>  <Unnamed: 0>
5394

>  <NO.>
5406

>  <Name>
dolasetron

>  <IUPAC_name>
(10-oxo-8-azatricyclo[5.3.1.03-8]undecan-5-yl) 1h-indole-3-carboxylate

>  <SMILES>
O=C(OC1CC2CC3CC(C1)N2CC3=O)c1c[nH]c2ccccc12

>  <CID>
3148

>  <logBB>


>  <BBB+/BBB->
BBB+

>  <Inchi>
InChI=1S/C19H20N2O3/c22-18-10-21-12-5-11(18)6-13(21)8-14(7-12)24-19(23)16-9-20-17-4-2-1-3-15(16)17/h1-4-9-11-14-20H-5-8-10H2

>  <threshold>


>  <reference>
R14|R23|

>  <group>
C

>  <Class>
-1

>  <ABC>
19.78

>  <ABCGG>
14.8

>  <nAcid>
0

>  <nBase>
1

>  <nAromAtom>
9

>  <nAromBond>
10

>  <nAtom>
44

>  <nHeavyAtom>
24

>  <nSpiro>
0

>  <nBridgehead>
4

>  <nHetero>
5

>  <nN>
2

>  <nO>
3

>  <nF>
0

>  <BalabanJ>
1.2

>  <BertzCT>
810.88

>  <nBonds>
48

>  <nBondsO>
28

>  <nBondsS>
36

>  <nBondsD>
2

>  <nBondsT>
0

>  <nBondsA>
10

>  <nBondsM>
12

>  <nBondsKS>
42

>  <nBondsKD>
6

>  <RNCG>
0.24

>  <RPCG>
0.18

>  <FCSP3>
0.47

>  <SZ>
28.67

>  <Sm>
27.01

>  <Sv>
28.08

>  <Sse>
44.2

>  <Sp>
29.74

>  <Si>
49.36

>  <MZ>
0.65

>  <Mm>
0.61

>  <Mv>
0.64

>  <Mse>
1

>  <Mp>
0.68

>  <Mi>
1.12

>  <NsCH3>
0

>  <NdCH2>
0

>  <NssCH2>
5

>  <NtCH>
0

>  <NdsCH>
0

>  <NaaCH>
5

>  <NsssCH>
4

>  <NddC>
0

>  <NtsC>
0

>  <NdssC>
2

>  <NaasC>
1

>  <NaaaC>
2

>  <NssssC>
0

>  <NsNH3>
0

>  <NsNH2>
0

>  <NssNH2>
0

>  <NdNH>
0

>  <NssNH>
0

>  <NaaNH>
1

>  <NtN>
0

>  <NsssNH>
0

>  <NdsN>
0

>  <NaaN>
0

>  <NsssN>
1

>  <NddsN>
0

>  <NaasN>
0

>  <NssssN>
0

>  <NsOH>
0

>  <NdO>
2

>  <NssO>
1

>  <NaaO>
0

>  <NsF>
0

>  <NsSiH3>
0

>  <NssSiH2>
0

>  <NsssSiH>
0

>  <NssssSi>
0

>  <NsPH2>
0

>  <NssPH>
0

>  <NsssP>
0

>  <NdsssP>
0

>  <NsssssP>
0

>  <NsSH>
0

>  <NdS>
0

>  <NssS>
0

>  <NaaS>
0

>  <NdssS>
0

>  <NddssS>
0

>  <NsCl>
0

>  <NsBr>
0

>  <NsI>
0

>  <fragCpx>
232.05

>  <fMF>
0.5

>  <nHBAcc>
4

>  <nHBDon>
1

>  <Kier1>
16.19

>  <Kier2>
6.31

>  <Lipinski>
1

>  <GhoseFilter>
1

>  <FilterItLogS>
-3.26

>  <VMcGowan>
236.04

>  <LabuteASA>
139.52

>  <PEOE_VSA1>
9.72

>  <PEOE_VSA2>
9.69

>  <PEOE_VSA3>
4.79

>  <PEOE_VSA4>
0

>  <PEOE_VSA5>
0

>  <PEOE_VSA6>
18.2

>  <PEOE_VSA7>
18.91

>  <PEOE_VSA8>
47.94

>  <PEOE_VSA9>
12.11

>  <PEOE_VSA10>
11.89

>  <PEOE_VSA11>
0

>  <PEOE_VSA12>
0

>  <PEOE_VSA13>
0

>  <SMR_VSA1>
14.33

>  <SMR_VSA2>
0

>  <SMR_VSA3>
9.88

>  <SMR_VSA4>
5.92

>  <SMR_VSA5>
43.87

>  <SMR_VSA6>
6.54

>  <SMR_VSA7>
36.03

>  <SMR_VSA8>
0

>  <SMR_VSA9>
0

>  <SlogP_VSA1>
0

>  <SlogP_VSA2>
46.37

>  <SlogP_VSA3>
9.53

>  <SlogP_VSA4>
5.92

>  <SlogP_VSA5>
36.04

>  <SlogP_VSA6>
30.46

>  <SlogP_VSA7>
0

>  <SlogP_VSA8>
10.9

>  <SlogP_VSA9>
0

>  <SlogP_VSA10>
0

>  <SlogP_VSA11>
0

>  <EState_VSA1>
0

>  <EState_VSA2>
17.99

>  <EState_VSA3>
29.98

>  <EState_VSA4>
36.59

>  <EState_VSA5>
0

>  <EState_VSA6>
6.2

>  <EState_VSA7>
24.27

>  <EState_VSA8>
9.88

>  <EState_VSA9>
4.74

>  <EState_VSA10>
9.59

>  <VSA_EState1>
5.84

>  <VSA_EState2>
29.98

>  <VSA_EState3>
0.91

>  <VSA_EState4>
1.56

>  <VSA_EState5>
0.4

>  <VSA_EState6>
8.58

>  <VSA_EState7>
5.29

>  <VSA_EState8>
0.6

>  <VSA_EState9>
0

>  <apol>
49.67

>  <bpol>
25.82

>  <nRing>
6

>  <nHRing>
5

>  <naRing>
2

>  <naHRing>
1

>  <nARing 2>
4

>  <nAHRing 2>
4

>  <nFRing>
2

>  <nFHRing>
2

>  <nFaRing>
1

>  <nFaHRing>
1

>  <nFARing 2>
1

>  <nFAHRing 2>
1

>  <nRot>
2

>  <SLogP>
2.52

>  <SMR>
88.75

>  <TopoPSA(NO)>
62.4

>  <TopoPSA>
62.4

>  <JGI1>
0.18

>  <JGI2>
0.07

>  <JGI3>
0.05

>  <JGI4>
0.04

>  <JGI5>
0.02

>  <Diameter>
13

>  <Radius>
7

>  <TMWC10>
129.31

>  <TSRW10>
73.57

>  <MW>
324.15

>  <AMW>
7.37

>  <WPath>
1368

>  <WPol>
41

>  <Zagreb1>
140

>  <Zagreb2>
172

>  <mZagreb2>
5

>  <yes>


>  <nAR-cont>
0.199399

>  <nHA-cont>
0.94700071

>  <MWHBN>
0.2777135

>  <MWHBN-cont>
0.901804864

>  <TPSA-cont>
0.564409252

>  <pka_cont>
0.97

>  <yes.1>


>  <BBB_SCORE>
4.112925509

>  <MMFF94 Energy>
69.834

$$$$
Compound 2596
Actelion Java MolfileCreator 2.0

  0  0  0  0  0  0              0 V3000
M  V30 BEGIN CTAB
M  V30 COUNTS 46 48 0 0 0
M  V30 BEGIN ATOM
M  V30 1 F -2.8201 1.2884 7.1022 0
M  V30 2 C -3.2841 1.1043 5.8259 0
M  V30 3 F -3.9803 2.2422 5.5458 0
M  V30 4 F -4.1997 0.1005 5.9346 0
M  V30 5 C -2.1752 0.8134 4.8508 0
M  V30 6 C -2.4877 0.6074 3.5071 0
M  V30 7 C -0.8427 0.7494 5.301 0
M  V30 8 N -3.7719 0.6654 3.1179 0
M  V30 9 C -1.4415 0.3381 2.5895 0
M  V30 10 C 0.1854 0.4752 4.4131 0
M  V30 11 C -4.0697 0.4611 1.8207 0
M  V30 12 C -1.7846 0.1362 1.2237 0
M  V30 13 C -0.1119 0.2691 3.0703 0
M  V30 14 C -3.1273 0.1934 0.8532 0
M  V30 15 N -0.7852 -0.1384 0.2632 0
M  V30 16 C -0.7758 -0.9141 -0.9182 0
M  V30 17 C 0.1638 -0.6663 -1.9496 0
M  V30 18 C -1.711 -1.945 -1.1129 0
M  V30 19 C 1.2051 0.3898 -1.7678 0
M  V30 20 C 0.1327 -1.4307 -3.1315 0
M  V30 21 C -1.7331 -2.6984 -2.2894 0
M  V30 22 O 1.451 0.9095 -0.6882 0
M  V30 23 O 1.7959 0.6854 -2.9505 0
M  V30 24 C -0.8154 -2.4387 -3.3 0
M  V30 25 C 2.8713 1.6387 -2.9217 0
M  V30 26 C 4.2375 0.9527 -3.0758 0 CFG=1
M  V30 27 O 4.4645 0.0721 -1.9651 0
M  V30 28 C 4.3679 0.1332 -4.3667 0
M  V30 29 O 3.588 -1.0592 -4.3099 0
M  V30 30 H -0.6087 0.9107 6.3526 0
M  V30 31 H 1.2142 0.4187 4.7604 0
M  V30 32 H -5.125 0.5283 1.5715 0
M  V30 33 H 0.7121 0.0425 2.3968 0
M  V30 34 H -3.4383 0.0709 -0.1775 0
M  V30 35 H 0.0719 0.4093 0.3907 0
M  V30 36 H -2.4216 -2.1967 -0.3292 0
M  V30 37 H 0.8504 -1.2573 -3.9311 0
M  V30 38 H -2.4647 -3.4941 -2.4087 0
M  V30 39 H -0.8281 -3.0262 -4.2149 0
M  V30 40 H 2.8533 2.2342 -2.0017 0
M  V30 41 H 2.7078 2.3293 -3.7561 0
M  V30 42 H 5.012 1.7281 -3.0569 0
M  V30 43 H 5.4012 -0.1931 -1.987 0
M  V30 44 H 5.4084 -0.1822 -4.4962 0
M  V30 45 H 4.0712 0.7122 -5.2462 0
M  V30 46 H 3.5213 -1.2877 -3.3609 0
M  V30 END ATOM
M  V30 BEGIN BOND
M  V30 1 1 1 2
M  V30 2 1 2 3
M  V30 3 1 2 4
M  V30 4 1 2 5
M  V30 5 1 5 6
M  V30 6 2 5 7
M  V30 7 2 6 8
M  V30 8 1 6 9
M  V30 9 1 7 10
M  V30 10 1 8 11
M  V30 11 2 9 12
M  V30 12 1 9 13
M  V30 13 2 11 14
M  V30 14 1 12 15
M  V30 15 1 15 16
M  V30 16 2 16 17
M  V30 17 1 16 18
M  V30 18 1 17 19
M  V30 19 1 17 20
M  V30 20 2 18 21
M  V30 21 2 19 22
M  V30 22 1 19 23
M  V30 23 2 20 24
M  V30 24 1 23 25
M  V30 25 1 25 26
M  V30 26 1 26 27
M  V30 27 1 26 28
M  V30 28 1 28 29
M  V30 29 2 10 13
M  V30 30 1 12 14
M  V30 31 1 21 24
M  V30 32 1 7 30
M  V30 33 1 10 31
M  V30 34 1 11 32
M  V30 35 1 13 33
M  V30 36 1 14 34
M  V30 37 1 15 35
M  V30 38 1 18 36
M  V30 39 1 20 37
M  V30 40 1 21 38
M  V30 41 1 24 39
M  V30 42 1 25 40
M  V30 43 1 25 41
M  V30 44 1 26 42
M  V30 45 1 27 43
M  V30 46 1 28 44
M  V30 47 1 28 45
M  V30 48 1 29 46
M  V30 END BOND
M  V30 BEGIN COLLECTION
M  V30 MDLV30/STERAC1 ATOMS=(1 26)
M  V30 END COLLECTION
M  V30 END CTAB
M  END
>  <Column 1>
3236

>  <level_0>
5394

>  <index>
5395

>  <Unnamed: 0>
5395

>  <NO.>
5407

>  <Name>
floctafenine

>  <IUPAC_name>
2-3-dihydroxypropyl 2-[[8-(trifluoromethyl)quinolin-4-yl]amino]benzoate

>  <SMILES>
O=C(OCC(O)CO)c1ccccc1Nc1ccnc2c(C(F)(F)F)cccc12

>  <CID>
3360

>  <logBB>


>  <BBB+/BBB->
BBB-

>  <Inchi>
InChI=1S/C20H17F3N2O4/c21-20(22-23)15-6-3-5-13-17(8-9-24-18(13)15)25-16-7-2-1-4-14(16)19(28)29-11-12(27)10-26/h1-9-12-26-27H-10-11H2-(H-24-25)

>  <threshold>


>  <reference>
R14|

>  <group>
C

>  <Class>
-1

>  <ABC>
22.35

>  <ABCGG>
17.86

>  <nAcid>
0

>  <nBase>
0

>  <nAromAtom>
16

>  <nAromBond>
17

>  <nAtom>
46

>  <nHeavyAtom>
29

>  <nSpiro>
0

>  <nBridgehead>
0

>  <nHetero>
9

>  <nN>
2

>  <nO>
4

>  <nF>
3

>  <BalabanJ>
1.63

>  <BertzCT>
1024.02

>  <nBonds>
48

>  <nBondsO>
31

>  <nBondsS>
30

>  <nBondsD>
1

>  <nBondsT>
0

>  <nBondsA>
17

>  <nBondsM>
18

>  <nBondsKS>
39

>  <nBondsKD>
9

>  <RNCG>
0.15

>  <RPCG>
0.14

>  <FCSP3>
0.2

>  <SZ>
35

>  <Sm>
33.83

>  <Sv>
30.92

>  <Sse>
48.07

>  <Sp>
31.03

>  <Si>
52.59

>  <MZ>
0.76

>  <Mm>
0.74

>  <Mv>
0.67

>  <Mse>
1.04

>  <Mp>
0.67

>  <Mi>
1.14

>  <NsCH3>
0

>  <NdCH2>
0

>  <NssCH2>
2

>  <NtCH>
0

>  <NdsCH>
0

>  <NaaCH>
9

>  <NsssCH>
1

>  <NddC>
0

>  <NtsC>
0

>  <NdssC>
1

>  <NaasC>
4

>  <NaaaC>
2

>  <NssssC>
1

>  <NsNH3>
0

>  <NsNH2>
0

>  <NssNH2>
0

>  <NdNH>
0

>  <NssNH>
1

>  <NaaNH>
0

>  <NtN>
0

>  <NsssNH>
0

>  <NdsN>
0

>  <NaaN>
1

>  <NsssN>
0

>  <NddsN>
0

>  <NaasN>
0

>  <NssssN>
0

>  <NsOH>
2

>  <NdO>
1

>  <NssO>
1

>  <NaaO>
0

>  <NsF>
3

>  <NsSiH3>
0

>  <NssSiH2>
0

>  <NsssSiH>
0

>  <NssssSi>
0

>  <NsPH2>
0

>  <NssPH>
0

>  <NsssP>
0

>  <NdsssP>
0

>  <NsssssP>
0

>  <NsSH>
0

>  <NdS>
0

>  <NssS>
0

>  <NaaS>
0

>  <NdssS>
0

>  <NddssS>
0

>  <NsCl>
0

>  <NsBr>
0

>  <NsI>
0

>  <fragCpx>
149.09

>  <fMF>
0.37

>  <nHBAcc>
6

>  <nHBDon>
3

>  <Kier1>
23.66

>  <Kier2>
10.54

>  <Lipinski>
1

>  <GhoseFilter>
1

>  <FilterItLogS>
-5.11

>  <VMcGowan>
270.1

>  <LabuteASA>
163.12

>  <PEOE_VSA1>
20.27

>  <PEOE_VSA2>
4.98

>  <PEOE_VSA3>
4.79

>  <PEOE_VSA4>
13.17

>  <PEOE_VSA5>
0

>  <PEOE_VSA6>
24.27

>  <PEOE_VSA7>
24.27

>  <PEOE_VSA8>
17.27

>  <PEOE_VSA9>
28.94

>  <PEOE_VSA10>
12.71

>  <PEOE_VSA11>
0

>  <PEOE_VSA12>
0

>  <PEOE_VSA13>
0

>  <SMR_VSA1>
32.92

>  <SMR_VSA2>
0

>  <SMR_VSA3>
4.98

>  <SMR_VSA4>
0

>  <SMR_VSA5>
12.28

>  <SMR_VSA6>
18.53

>  <SMR_VSA7>
65.85

>  <SMR_VSA8>
0

>  <SMR_VSA9>
0

>  <SlogP_VSA1>
5.32

>  <SlogP_VSA2>
40.48

>  <SlogP_VSA3>
10.91

>  <SlogP_VSA4>
0

>  <SlogP_VSA5>
15.92

>  <SlogP_VSA6>
54.73

>  <SlogP_VSA7>
0

>  <SlogP_VSA8>
10.9

>  <SlogP_VSA9>
0

>  <SlogP_VSA10>
24.55

>  <SlogP_VSA11>
0

>  <EState_VSA1>
37.03

>  <EState_VSA2>
16.47

>  <EState_VSA3>
11.37

>  <EState_VSA4>
6.07

>  <EState_VSA5>
30.46

>  <EState_VSA6>
18.2

>  <EState_VSA7>
0

>  <EState_VSA8>
10.3

>  <EState_VSA9>
9.84

>  <EState_VSA10>
23.07

>  <VSA_EState1>
44.76

>  <VSA_EState2>
16.17

>  <VSA_EState3>
21.33

>  <VSA_EState4>
-0.31

>  <VSA_EState5>
-0.75

>  <VSA_EState6>
11.52

>  <VSA_EState7>
-4.51

>  <VSA_EState8>
-0.95

>  <VSA_EState9>
0

>  <apol>
51.81

>  <bpol>
24.71

>  <nRing>
3

>  <nHRing>
1

>  <naRing>
3

>  <naHRing>
1

>  <nARing 2>
0

>  <nAHRing 2>
0

>  <nFRing>
1

>  <nFHRing>
1

>  <nFaRing>
1

>  <nFaHRing>
1

>  <nFARing 2>
0

>  <nFAHRing 2>
0

>  <nRot>
6

>  <SLogP>
3.51

>  <SMR>
99.84

>  <TopoPSA(NO)>
91.68

>  <TopoPSA>
91.68

>  <JGI1>
0.21

>  <JGI2>
0.09

>  <JGI3>
0.05

>  <JGI4>
0.04

>  <JGI5>
0.03

>  <Diameter>
14

>  <Radius>
7

>  <TMWC10>
136.7

>  <TSRW10>
64.58

>  <MW>
406.11

>  <AMW>
8.83

>  <WPath>
2310

>  <WPol>
47

>  <Zagreb1>
150

>  <Zagreb2>
175

>  <mZagreb2>
6.39

>  <yes>


>  <nAR-cont>
0.336376

>  <nHA-cont>
0.785905698

>  <MWHBN>
0.446602004

>  <MWHBN-cont>
0.298144087

>  <TPSA-cont>
0.36001667

>  <pka_cont>
0.97

>  <yes.1>


>  <BBB_SCORE>
2.774531169

>  <MMFF94 Energy>
111.44

$$$$
Compound 2597
Actelion Java MolfileCreator 2.0

  0  0  0  0  0  0              0 V3000
M  V30 BEGIN CTAB
M  V30 COUNTS 48 50 0 0 0
M  V30 BEGIN ATOM
M  V30 1 F -1.4472 -6.2022 0.9646 0
M  V30 2 C -1.6384 -5.5495 -0.2151 0
M  V30 3 F -2.9716 -5.2739 -0.2799 0
M  V30 4 F -1.4096 -6.4755 -1.1905 0
M  V30 5 C -0.77 -4.3253 -0.3476 0
M  V30 6 C -1.1693 -3.1121 0.243 0
M  V30 7 C 0.4554 -4.3819 -1.0231 0
M  V30 8 C -0.3846 -1.9572 0.154 0
M  V30 9 C 1.256 -3.2469 -1.1132 0
M  V30 10 N -0.7342 -0.7344 0.7536 0
M  V30 11 C 0.8376 -2.0507 -0.5258 0
M  V30 12 C -1.6204 -0.4371 1.8071 0
M  V30 13 N -2.104 -1.4654 2.554 0
M  V30 14 C -1.9926 0.8819 2.1119 0
M  V30 15 C -2.9265 -1.2049 3.5943 0
M  V30 16 C -1.5174 2.072 1.3778 0
M  V30 17 C -2.8389 1.1257 3.2066 0
M  V30 18 C -3.3183 0.0647 3.9601 0
M  V30 19 O -1.3418 3.1593 1.9059 0
M  V30 20 O -1.3601 1.7948 0.0634 0
M  V30 21 C -0.8555 2.874 -0.7418 0
M  V30 22 C 0.6721 2.998 -0.5952 0
M  V30 23 N 1.3922 1.7381 -0.8877 0
M  V30 24 C 1.4074 1.4105 -2.3346 0
M  V30 25 C 2.7999 1.8113 -0.4252 0
M  V30 26 C 2.3405 2.2976 -3.1781 0
M  V30 27 C 3.7029 2.7015 -1.2955 0
M  V30 28 O 3.6775 2.2836 -2.6653 0
M  V30 29 H -2.1237 -3.0791 0.7648 0
M  V30 30 H 0.7915 -5.3124 -1.4773 0
M  V30 31 H 2.2111 -3.2914 -1.6302 0
M  V30 32 H -0.229 0.0682 0.3834 0
M  V30 33 H 1.4909 -1.1847 -0.5873 0
M  V30 34 H -3.2664 -2.079 4.1429 0
M  V30 35 H -3.1216 2.1434 3.4683 0
M  V30 36 H -3.9748 0.2247 4.8078 0
M  V30 37 H -1.3472 3.8169 -0.4722 0
M  V30 38 H -1.1383 2.6653 -1.7779 0
M  V30 39 H 1.0266 3.8296 -1.2135 0
M  V30 40 H 0.8774 3.2714 0.4469 0
M  V30 41 H 1.7568 0.3744 -2.4271 0
M  V30 42 H 0.397 1.4194 -2.7549 0
M  V30 43 H 3.2013 0.7898 -0.4442 0
M  V30 44 H 2.8451 2.1338 0.6216 0
M  V30 45 H 1.9839 3.3323 -3.2284 0
M  V30 46 H 2.3796 1.9159 -4.2035 0
M  V30 47 H 4.7383 2.6245 -0.9483 0
M  V30 48 H 3.4136 3.7568 -1.2341 0
M  V30 END ATOM
M  V30 BEGIN BOND
M  V30 1 1 1 2
M  V30 2 1 2 3
M  V30 3 1 2 4
M  V30 4 1 2 5
M  V30 5 2 5 6
M  V30 6 1 5 7
M  V30 7 1 6 8
M  V30 8 2 7 9
M  V30 9 1 8 10
M  V30 10 2 8 11
M  V30 11 1 10 12
M  V30 12 2 12 13
M  V30 13 1 12 14
M  V30 14 1 13 15
M  V30 15 1 14 16
M  V30 16 2 14 17
M  V30 17 2 15 18
M  V30 18 2 16 19
M  V30 19 1 16 20
M  V30 20 1 20 21
M  V30 21 1 21 22
M  V30 22 1 22 23
M  V30 23 1 23 24
M  V30 24 1 23 25
M  V30 25 1 24 26
M  V30 26 1 25 27
M  V30 27 1 26 28
M  V30 28 1 9 11
M  V30 29 1 17 18
M  V30 30 1 27 28
M  V30 31 1 6 29
M  V30 32 1 7 30
M  V30 33 1 9 31
M  V30 34 1 10 32
M  V30 35 1 11 33
M  V30 36 1 15 34
M  V30 37 1 17 35
M  V30 38 1 18 36
M  V30 39 1 21 37
M  V30 40 1 21 38
M  V30 41 1 22 39
M  V30 42 1 22 40
M  V30 43 1 24 41
M  V30 44 1 24 42
M  V30 45 1 25 43
M  V30 46 1 25 44
M  V30 47 1 26 45
M  V30 48 1 26 46
M  V30 49 1 27 47
M  V30 50 1 27 48
M  V30 END BOND
M  V30 END CTAB
M  END
>  <Column 1>
3237

>  <level_0>
5395

>  <index>
5396

>  <Unnamed: 0>
5396

>  <NO.>
5408

>  <Name>
morniflumate

>  <IUPAC_name>
2-morpholin-4-ylethyl 2-[3-(trifluoromethyl)anilino]pyridine-3-carboxylate

>  <SMILES>
O=C(OCCN1CCOCC1)c1cccnc1Nc1cccc(C(F)(F)F)c1

>  <CID>
72106

>  <logBB>


>  <BBB+/BBB->
BBB-

>  <Inchi>
InChI=1S/C19H20F3N3O3/c20-19(21-22)14-3-1-4-15(13-14)24-17-16(5-2-6-23-17)18(26)28-12-9-25-7-10-27-11-8-25/h1-6-13H-7-12H2-(H-23-24)

>  <threshold>


>  <reference>
R14|

>  <group>
C

>  <Class>
-1

>  <ABC>
21.66

>  <ABCGG>
16.7

>  <nAcid>
0

>  <nBase>
1

>  <nAromAtom>
12

>  <nAromBond>
12

>  <nAtom>
48

>  <nHeavyAtom>
28

>  <nSpiro>
0

>  <nBridgehead>
0

>  <nHetero>
9

>  <nN>
3

>  <nO>
3

>  <nF>
3

>  <BalabanJ>
1.46

>  <BertzCT>
808.25

>  <nBonds>
50

>  <nBondsO>
30

>  <nBondsS>
37

>  <nBondsD>
1

>  <nBondsT>
0

>  <nBondsA>
12

>  <nBondsM>
13

>  <nBondsKS>
43

>  <nBondsKD>
7

>  <RNCG>
0.17

>  <RPCG>
0.15

>  <FCSP3>
0.37

>  <SZ>
34.33

>  <Sm>
32.92

>  <Sv>
30.78

>  <Sse>
49.73

>  <Sp>
31.4

>  <Si>
55.3

>  <MZ>
0.72

>  <Mm>
0.69

>  <Mv>
0.64

>  <Mse>
1.04

>  <Mp>
0.65

>  <Mi>
1.15

>  <NsCH3>
0

>  <NdCH2>
0

>  <NssCH2>
6

>  <NtCH>
0

>  <NdsCH>
0

>  <NaaCH>
7

>  <NsssCH>
0

>  <NddC>
0

>  <NtsC>
0

>  <NdssC>
1

>  <NaasC>
4

>  <NaaaC>
0

>  <NssssC>
1

>  <NsNH3>
0

>  <NsNH2>
0

>  <NssNH2>
0

>  <NdNH>
0

>  <NssNH>
1

>  <NaaNH>
0

>  <NtN>
0

>  <NsssNH>
0

>  <NdsN>
0

>  <NaaN>
1

>  <NsssN>
1

>  <NddsN>
0

>  <NaasN>
0

>  <NssssN>
0

>  <NsOH>
0

>  <NdO>
1

>  <NssO>
2

>  <NaaO>
0

>  <NsF>
3

>  <NsSiH3>
0

>  <NssSiH2>
0

>  <NsssSiH>
0

>  <NssssSi>
0

>  <NsPH2>
0

>  <NssPH>
0

>  <NsssP>
0

>  <NdsssP>
0

>  <NsssssP>
0

>  <NsSH>
0

>  <NdS>
0

>  <NssS>
0

>  <NaaS>
0

>  <NdssS>
0

>  <NddssS>
0

>  <NsCl>
0

>  <NsBr>
0

>  <NsI>
0

>  <fragCpx>
144.09

>  <fMF>
0.48

>  <nHBAcc>
6

>  <nHBDon>
1

>  <Kier1>
22.68

>  <Kier2>
10.86

>  <Lipinski>
1

>  <GhoseFilter>
1

>  <FilterItLogS>
-5.03

>  <VMcGowan>
268.72

>  <LabuteASA>
159.82

>  <PEOE_VSA1>
14.79

>  <PEOE_VSA2>
4.9

>  <PEOE_VSA3>
9.78

>  <PEOE_VSA4>
13.17

>  <PEOE_VSA5>
0

>  <PEOE_VSA6>
6.07

>  <PEOE_VSA7>
30.33

>  <PEOE_VSA8>
31.52

>  <PEOE_VSA9>
18.78

>  <PEOE_VSA10>
17.99

>  <PEOE_VSA11>
0

>  <PEOE_VSA12>
0

>  <PEOE_VSA13>
0

>  <SMR_VSA1>
27.44

>  <SMR_VSA2>
0

>  <SMR_VSA3>
9.88

>  <SMR_VSA4>
0

>  <SMR_VSA5>
6.18

>  <SMR_VSA6>
44.77

>  <SMR_VSA7>
53.72

>  <SMR_VSA8>
0

>  <SMR_VSA9>
0

>  <SlogP_VSA1>
5.32

>  <SlogP_VSA2>
55.31

>  <SlogP_VSA3>
15.65

>  <SlogP_VSA4>
0

>  <SlogP_VSA5>
15.92

>  <SlogP_VSA6>
42.6

>  <SlogP_VSA7>
0

>  <SlogP_VSA8>
0

>  <SlogP_VSA9>
0

>  <SlogP_VSA10>
24.68

>  <SlogP_VSA11>
0

>  <EState_VSA1>
17.71

>  <EState_VSA2>
23.68

>  <EState_VSA3>
19.76

>  <EState_VSA4>
25.22

>  <EState_VSA5>
24.4

>  <EState_VSA6>
6.07

>  <EState_VSA7>
0

>  <EState_VSA8>
15.2

>  <EState_VSA9>
9.47

>  <EState_VSA10>
17.97

>  <VSA_EState1>
49.2

>  <VSA_EState2>
18.59

>  <VSA_EState3>
2.77

>  <VSA_EState4>
-0.46

>  <VSA_EState5>
-0.45

>  <VSA_EState6>
7.77

>  <VSA_EState7>
-3.01

>  <VSA_EState8>
3.67

>  <VSA_EState9>
0

>  <apol>
52.44

>  <bpol>
31.16

>  <nRing>
3

>  <nHRing>
2

>  <naRing>
2

>  <naHRing>
1

>  <nARing 2>
1

>  <nAHRing 2>
1

>  <nFRing>
0

>  <nFHRing>
0

>  <nFaRing>
0

>  <nFaHRing>
0

>  <nFARing 2>
0

>  <nFAHRing 2>
0

>  <nRot>
6

>  <SLogP>
3.33

>  <SMR>
96.51

>  <TopoPSA(NO)>
63.69

>  <TopoPSA>
63.69

>  <JGI1>
0.2

>  <JGI2>
0.07

>  <JGI3>
0.05

>  <JGI4>
0.03

>  <JGI5>
0.02

>  <Diameter>
15

>  <Radius>
8

>  <TMWC10>
133

>  <TSRW10>
63.03

>  <MW>
395.15

>  <AMW>
8.23

>  <WPath>
2308

>  <WPol>
40

>  <Zagreb1>
142

>  <Zagreb2>
161

>  <mZagreb2>
6.14

>  <yes>


>  <nAR-cont>
0.816016

>  <nHA-cont>
0.82432561

>  <MWHBN>
0.352141368

>  <MWHBN-cont>
0.662222343

>  <TPSA-cont>
0.555404251

>  <pka_cont>
0.97

>  <yes.1>


>  <BBB_SCORE>
4.229483627

>  <MMFF94 Energy>
124.87

$$$$
Compound 2598
Actelion Java MolfileCreator 2.0

  0  0  0  0  0  0              0 V3000
M  V30 BEGIN CTAB
M  V30 COUNTS 33 34 0 0 0
M  V30 BEGIN ATOM
M  V30 1 F -1.3135 -1.8885 5.4265 0
M  V30 2 C -0.1738 -2.1179 4.7202 0
M  V30 3 F 0.0752 -3.4509 4.8308 0
M  V30 4 F 0.8239 -1.488 5.3955 0
M  V30 5 C -0.27 -1.6518 3.2838 0
M  V30 6 C -1.0418 -0.5275 2.949 0
M  V30 7 C 0.4392 -2.3147 2.2675 0
M  V30 8 C -1.103 -0.0933 1.6152 0
M  V30 9 C 0.3692 -1.8805 0.938 0
M  V30 10 N -1.8767 1.1037 1.322 0 CHG=1
M  V30 11 C -0.3998 -0.7589 0.6055 0
M  V30 12 O -3.004 1.1836 1.8268 0
M  V30 13 O -1.3286 1.9793 0.6387 0 CHG=-1
M  V30 14 C -0.5198 -0.363 -0.815 0
M  V30 15 O -1.6467 -0.2466 -1.287 0
M  V30 16 C 0.7396 -0.0681 -1.5899 0
M  V30 17 C 0.5607 -0.3213 -3.0655 0
M  V30 18 C 1.2287 1.3259 -1.2935 0
M  V30 19 O 0.7736 -1.4371 -3.5433 0
M  V30 20 C 0.0234 0.8073 -3.915 0
M  V30 21 O 1.9391 1.5397 -0.3092 0
M  V30 22 C 0.7106 2.4565 -2.1534 0
M  V30 23 C 0.8006 2.0821 -3.6248 0
M  V30 24 H -1.5877 0.0071 3.7278 0
M  V30 25 H 1.0448 -3.1899 2.5086 0
M  V30 26 H 0.9005 -2.4466 0.1745 0
M  V30 27 H 1.5412 -0.7487 -1.2779 0
M  V30 28 H -1.0434 0.9329 -3.7054 0
M  V30 29 H 0.1344 0.539 -4.9709 0
M  V30 30 H -0.3231 2.6717 -1.8655 0
M  V30 31 H 1.3133 3.3505 -1.9622 0
M  V30 32 H 0.4095 2.9009 -4.2386 0
M  V30 33 H 1.853 1.9395 -3.9012 0
M  V30 END ATOM
M  V30 BEGIN BOND
M  V30 1 1 1 2
M  V30 2 1 2 3
M  V30 3 1 2 4
M  V30 4 1 2 5
M  V30 5 2 5 6
M  V30 6 1 5 7
M  V30 7 1 6 8
M  V30 8 2 7 9
M  V30 9 1 8 10
M  V30 10 2 8 11
M  V30 11 2 10 12
M  V30 12 1 10 13
M  V30 13 1 11 14
M  V30 14 2 14 15
M  V30 15 1 14 16
M  V30 16 1 16 17
M  V30 17 1 16 18
M  V30 18 2 17 19
M  V30 19 1 17 20
M  V30 20 2 18 21
M  V30 21 1 18 22
M  V30 22 1 20 23
M  V30 23 1 9 11
M  V30 24 1 22 23
M  V30 25 1 6 24
M  V30 26 1 7 25
M  V30 27 1 9 26
M  V30 28 1 16 27
M  V30 29 1 20 28
M  V30 30 1 20 29
M  V30 31 1 22 30
M  V30 32 1 22 31
M  V30 33 1 23 32
M  V30 34 1 23 33
M  V30 END BOND
M  V30 END CTAB
M  END
>  <Column 1>
3239

>  <level_0>
5397

>  <index>
5398

>  <Unnamed: 0>
5398

>  <NO.>
5410

>  <Name>
nitisinone

>  <IUPAC_name>
2-[2-nitro-4-(trifluoromethyl)benzoyl]cyclohexane-1-3-dione

>  <SMILES>
O=C1CCCC(=O)C1C(=O)c1ccc(C(F)(F)F)cc1[N+](=O)[O-]

>  <CID>
115355

>  <logBB>


>  <BBB+/BBB->
BBB-

>  <Inchi>
InChI=1S/C14H10F3NO5/c15-14(16-17)7-4-5-8(9(6-7)18(22)23)13(21)12-10(19)2-1-3-11(12)20/h4-6-12H-1-3H2

>  <threshold>


>  <reference>
R14|R23|

>  <group>
C

>  <Class>
-1

>  <ABC>
17.69

>  <ABCGG>
15.58

>  <nAcid>
0

>  <nBase>
0

>  <nAromAtom>
6

>  <nAromBond>
6

>  <nAtom>
33

>  <nHeavyAtom>
23

>  <nSpiro>
0

>  <nBridgehead>
0

>  <nHetero>
9

>  <nN>
1

>  <nO>
5

>  <nF>
3

>  <BalabanJ>
2.13

>  <BertzCT>
694.85

>  <nBonds>
34

>  <nBondsO>
24

>  <nBondsS>
24

>  <nBondsD>
4

>  <nBondsT>
0

>  <nBondsA>
6

>  <nBondsM>
10

>  <nBondsKS>
27

>  <nBondsKD>
7

>  <RNCG>
0.15

>  <RPCG>
0.2

>  <FCSP3>
0.36

>  <SZ>
28

>  <Sm>
27.41

>  <Sv>
22.98

>  <Sse>
35.63

>  <Sp>
22.05

>  <Si>
38.06

>  <MZ>
0.85

>  <Mm>
0.83

>  <Mv>
0.7

>  <Mse>
1.08

>  <Mp>
0.67

>  <Mi>
1.15

>  <NsCH3>
0

>  <NdCH2>
0

>  <NssCH2>
3

>  <NtCH>
0

>  <NdsCH>
0

>  <NaaCH>
3

>  <NsssCH>
1

>  <NddC>
0

>  <NtsC>
0

>  <NdssC>
3

>  <NaasC>
3

>  <NaaaC>
0

>  <NssssC>
1

>  <NsNH3>
0

>  <NsNH2>
0

>  <NssNH2>
0

>  <NdNH>
0

>  <NssNH>
0

>  <NaaNH>
0

>  <NtN>
0

>  <NsssNH>
0

>  <NdsN>
0

>  <NaaN>
0

>  <NsssN>
0

>  <NddsN>
1

>  <NaasN>
0

>  <NssssN>
0

>  <NsOH>
0

>  <NdO>
4

>  <NssO>
0

>  <NaaO>
0

>  <NsF>
3

>  <NsSiH3>
0

>  <NssSiH2>
0

>  <NsssSiH>
0

>  <NssssSi>
0

>  <NsPH2>
0

>  <NssPH>
0

>  <NsssP>
0

>  <NdsssP>
0

>  <NsssssP>
0

>  <NsSH>
0

>  <NdS>
0

>  <NssS>
0

>  <NaaS>
0

>  <NdssS>
0

>  <NddssS>
0

>  <NsCl>
0

>  <NsBr>
0

>  <NsI>
0

>  <fragCpx>
70.09

>  <fMF>
0.39

>  <nHBAcc>
5

>  <nHBDon>
0

>  <Kier1>
19.33

>  <Kier2>
7.49

>  <Lipinski>
1

>  <GhoseFilter>
1

>  <FilterItLogS>
-3.97

>  <VMcGowan>
200.91

>  <LabuteASA>
126.98

>  <PEOE_VSA1>
0

>  <PEOE_VSA2>
24.5

>  <PEOE_VSA3>
0

>  <PEOE_VSA4>
13.17

>  <PEOE_VSA5>
0

>  <PEOE_VSA6>
0

>  <PEOE_VSA7>
18.55

>  <PEOE_VSA8>
18.91

>  <PEOE_VSA9>
16.05

>  <PEOE_VSA10>
5.92

>  <PEOE_VSA11>
17.35

>  <PEOE_VSA12>
0

>  <PEOE_VSA13>
5.69

>  <SMR_VSA1>
32.48

>  <SMR_VSA2>
0

>  <SMR_VSA3>
0

>  <SMR_VSA4>
5.92

>  <SMR_VSA5>
25.44

>  <SMR_VSA6>
0

>  <SMR_VSA7>
39.44

>  <SMR_VSA8>
0

>  <SMR_VSA9>
0

>  <SlogP_VSA1>
0

>  <SlogP_VSA2>
22.27

>  <SlogP_VSA3>
15.77

>  <SlogP_VSA4>
16.03

>  <SlogP_VSA5>
35.18

>  <SlogP_VSA6>
18.2

>  <SlogP_VSA7>
0

>  <SlogP_VSA8>
0

>  <SlogP_VSA9>
0

>  <SlogP_VSA10>
18.86

>  <SlogP_VSA11>
0

>  <EState_VSA1>
51.18

>  <EState_VSA2>
25.33

>  <EState_VSA3>
12.13

>  <EState_VSA4>
0

>  <EState_VSA5>
0

>  <EState_VSA6>
0

>  <EState_VSA7>
0

>  <EState_VSA8>
0

>  <EState_VSA9>
0

>  <EState_VSA10>
37.67

>  <VSA_EState1>
37.88

>  <VSA_EState2>
45.58

>  <VSA_EState3>
10.97

>  <VSA_EState4>
-3.03

>  <VSA_EState5>
-4.12

>  <VSA_EState6>
1.38

>  <VSA_EState7>
-4.56

>  <VSA_EState8>
0

>  <VSA_EState9>
0

>  <apol>
36.83

>  <bpol>
17.14

>  <nRing>
2

>  <nHRing>
0

>  <naRing>
1

>  <naHRing>
0

>  <nARing 2>
1

>  <nAHRing 2>
0

>  <nFRing>
0

>  <nFHRing>
0

>  <nFaRing>
0

>  <nFaHRing>
0

>  <nFARing 2>
0

>  <nFAHRing 2>
0

>  <nRot>
3

>  <SLogP>
2.73

>  <SMR>
69.78

>  <TopoPSA(NO)>
94.35

>  <TopoPSA>
94.35

>  <JGI1>
0.27

>  <JGI2>
0.1

>  <JGI3>
0.07

>  <JGI4>
0.05

>  <JGI5>
0.04

>  <Diameter>
10

>  <Radius>
5

>  <TMWC10>
122.01

>  <TSRW10>
57.61

>  <MW>
329.05

>  <AMW>
9.97

>  <WPath>
1128

>  <WPol>
39

>  <Zagreb1>
120

>  <Zagreb2>
141

>  <mZagreb2>
4.92

>  <yes>


>  <nAR-cont>
0.816016

>  <nHA-cont>
0.967789328

>  <MWHBN>
0.275637979

>  <MWHBN-cont>
0.90688433

>  <TPSA-cont>
0.341378412

>  <pka_cont>
0.97

>  <yes.1>


>  <BBB_SCORE>
4.311888648

>  <MMFF94 Energy>
38.211

$$$$
Compound 2599
Actelion Java MolfileCreator 2.0

  0  0  0  0  0  0              0 V3000
M  V30 BEGIN CTAB
M  V30 COUNTS 54 57 0 0 0
M  V30 BEGIN ATOM
M  V30 1 O -5.907 3.8285 -5.4271 0
M  V30 2 C -5.2707 3.4198 -4.4586 0
M  V30 3 N -5.0951 2.0777 -4.2461 0
M  V30 4 C -4.561 4.351 -3.5022 0
M  V30 5 C -4.4191 1.5451 -3.1454 0
M  V30 6 C -4.5586 3.805 -2.0824 0
M  V30 7 C -4.1106 2.3709 -2.0621 0
M  V30 8 C -4.0808 0.1942 -3.1251 0
M  V30 9 C -3.4618 1.8241 -0.9495 0
M  V30 10 C -3.4181 -0.341 -2.0152 0
M  V30 11 C -3.1047 0.4721 -0.9244 0
M  V30 12 O -2.4707 0.0739 0.2193 0
M  V30 13 C -2.0004 -1.2707 0.272 0
M  V30 14 C -1.2742 -1.4851 1.6003 0
M  V30 15 C -0.046 -0.5804 1.7441 0
M  V30 16 C 0.6845 -0.8439 3.062 0
M  V30 17 C 1.8568 0.0535 3.2293 0
M  V30 18 N 1.8944 1.1668 3.9339 0
M  V30 19 N 3.0993 -0.1328 2.6796 0
M  V30 20 N 3.1676 1.6609 3.8116 0
M  V30 21 N 3.9101 0.8744 3.0485 0
M  V30 22 C 3.5855 -1.1956 1.8182 0
M  V30 23 C 4.0031 -0.6639 0.4386 0
M  V30 24 C 4.7234 -1.989 2.4782 0
M  V30 25 C 4.5064 -1.7885 -0.4633 0
M  V30 26 C 5.2247 -3.1076 1.5674 0
M  V30 27 C 5.634 -2.5773 0.1963 0
M  V30 28 H -5.503 1.4648 -4.9399 0
M  V30 29 H -3.5348 4.4773 -3.868 0
M  V30 30 H -5.052 5.3297 -3.5242 0
M  V30 31 H -5.5682 3.8566 -1.6564 0
M  V30 32 H -3.9006 4.4229 -1.4607 0
M  V30 33 H -4.3223 -0.4523 -3.9639 0
M  V30 34 H -3.2315 2.4491 -0.0891 0
M  V30 35 H -3.1692 -1.3966 -2.0317 0
M  V30 36 H -1.3096 -1.468 -0.5566 0
M  V30 37 H -2.8481 -1.9642 0.2206 0
M  V30 38 H -1.9653 -1.2762 2.4262 0
M  V30 39 H -0.9718 -2.5358 1.6769 0
M  V30 40 H -0.3497 0.473 1.6985 0
M  V30 41 H 0.6311 -0.7485 0.8978 0
M  V30 42 H -0.0051 -0.6777 3.8991 0
M  V30 43 H 0.9961 -1.8927 3.1253 0
M  V30 44 H 2.7474 -1.8859 1.6658 0
M  V30 45 H 4.7933 0.0905 0.5442 0
M  V30 46 H 3.1553 -0.1612 -0.043 0
M  V30 47 H 4.381 -2.4174 3.4283 0
M  V30 48 H 5.5616 -1.3231 2.7209 0
M  V30 49 H 4.8565 -1.3696 -1.4134 0
M  V30 50 H 3.6763 -2.4656 -0.6992 0
M  V30 51 H 4.436 -3.8605 1.447 0
M  V30 52 H 6.0771 -3.6109 2.0375 0
M  V30 53 H 5.9255 -3.4129 -0.4496 0
M  V30 54 H 6.5154 -1.933 0.3032 0
M  V30 END ATOM
M  V30 BEGIN BOND
M  V30 1 2 1 2
M  V30 2 1 2 3
M  V30 3 1 2 4
M  V30 4 1 3 5
M  V30 5 1 4 6
M  V30 6 2 5 7
M  V30 7 1 5 8
M  V30 8 1 7 9
M  V30 9 2 8 10
M  V30 10 2 9 11
M  V30 11 1 11 12
M  V30 12 1 12 13
M  V30 13 1 13 14
M  V30 14 1 14 15
M  V30 15 1 15 16
M  V30 16 1 16 17
M  V30 17 2 17 18
M  V30 18 1 17 19
M  V30 19 1 18 20
M  V30 20 1 19 21
M  V30 21 1 19 22
M  V30 22 1 22 23
M  V30 23 1 22 24
M  V30 24 1 23 25
M  V30 25 1 24 26
M  V30 26 1 25 27
M  V30 27 1 6 7
M  V30 28 1 10 11
M  V30 29 2 20 21
M  V30 30 1 26 27
M  V30 31 1 3 28
M  V30 32 1 4 29
M  V30 33 1 4 30
M  V30 34 1 6 31
M  V30 35 1 6 32
M  V30 36 1 8 33
M  V30 37 1 9 34
M  V30 38 1 10 35
M  V30 39 1 13 36
M  V30 40 1 13 37
M  V30 41 1 14 38
M  V30 42 1 14 39
M  V30 43 1 15 40
M  V30 44 1 15 41
M  V30 45 1 16 42
M  V30 46 1 16 43
M  V30 47 1 22 44
M  V30 48 1 23 45
M  V30 49 1 23 46
M  V30 50 1 24 47
M  V30 51 1 24 48
M  V30 52 1 25 49
M  V30 53 1 25 50
M  V30 54 1 26 51
M  V30 55 1 26 52
M  V30 56 1 27 53
M  V30 57 1 27 54
M  V30 END BOND
M  V30 END CTAB
M  END
>  <Column 1>
3240

>  <level_0>
5398

>  <index>
5399

>  <Unnamed: 0>
5399

>  <NO.>
5411

>  <Name>
cilostazol

>  <IUPAC_name>
6-[4-(1-cyclohexyltetrazol-5-yl)butoxy]-3-4-dihydro-1h-quinolin-2-one

>  <SMILES>
O=C1CCc2cc(OCCCCc3nnnn3C3CCCCC3)ccc2N1

>  <CID>
2754

>  <logBB>


>  <BBB+/BBB->
BBB-

>  <Inchi>
InChI=1S/C20H27N5O2/c26-20-12-9-15-14-17(10-11-18(15)21-20)27-13-5-4-8-19-22-23-24-25(19)16-6-2-1-3-7-16/h10-11-14-16H-1-9-12-13H2-(H-21-26)

>  <threshold>


>  <reference>
R14|R23|

>  <group>
C

>  <Class>
-1

>  <ABC>
21.2

>  <ABCGG>
15.48

>  <nAcid>
2

>  <nBase>
0

>  <nAromAtom>
11

>  <nAromBond>
11

>  <nAtom>
54

>  <nHeavyAtom>
27

>  <nSpiro>
0

>  <nBridgehead>
0

>  <nHetero>
7

>  <nN>
5

>  <nO>
2

>  <nF>
0

>  <BalabanJ>
1.1

>  <BertzCT>
782.43

>  <nBonds>
57

>  <nBondsO>
30

>  <nBondsS>
45

>  <nBondsD>
1

>  <nBondsT>
0

>  <nBondsA>
11

>  <nBondsM>
12

>  <nBondsKS>
51

>  <nBondsKD>
6

>  <RNCG>
0.26

>  <RPCG>
0.12

>  <FCSP3>
0.6

>  <SZ>
33

>  <Sm>
30.76

>  <Sv>
32.53

>  <Sse>
53.96

>  <Sp>
35.03

>  <Si>
61.48

>  <MZ>
0.61

>  <Mm>
0.57

>  <Mv>
0.6

>  <Mse>
1

>  <Mp>
0.65

>  <Mi>
1.14

>  <NsCH3>
0

>  <NdCH2>
0

>  <NssCH2>
11

>  <NtCH>
0

>  <NdsCH>
0

>  <NaaCH>
3

>  <NsssCH>
1

>  <NddC>
0

>  <NtsC>
0

>  <NdssC>
1

>  <NaasC>
4

>  <NaaaC>
0

>  <NssssC>
0

>  <NsNH3>
0

>  <NsNH2>
0

>  <NssNH2>
0

>  <NdNH>
0

>  <NssNH>
1

>  <NaaNH>
0

>  <NtN>
0

>  <NsssNH>
0

>  <NdsN>
0

>  <NaaN>
3

>  <NsssN>
0

>  <NddsN>
0

>  <NaasN>
1

>  <NssssN>
0

>  <NsOH>
0

>  <NdO>
1

>  <NssO>
1

>  <NaaO>
0

>  <NsF>
0

>  <NsSiH3>
0

>  <NssSiH2>
0

>  <NsssSiH>
0

>  <NssssSi>
0

>  <NsPH2>
0

>  <NssPH>
0

>  <NsssP>
0

>  <NdsssP>
0

>  <NsssssP>
0

>  <NsSH>
0

>  <NdS>
0

>  <NssS>
0

>  <NaaS>
0

>  <NdssS>
0

>  <NddssS>
0

>  <NsCl>
0

>  <NsBr>
0

>  <NsI>
0

>  <fragCpx>
198.07

>  <fMF>
0.48

>  <nHBAcc>
6

>  <nHBDon>
1

>  <Kier1>
20.28

>  <Kier2>
10.16

>  <Lipinski>
1

>  <GhoseFilter>
1

>  <FilterItLogS>
-5.24

>  <VMcGowan>
285.06

>  <LabuteASA>
159.03

>  <PEOE_VSA1>
10.05

>  <PEOE_VSA2>
4.79

>  <PEOE_VSA3>
4.68

>  <PEOE_VSA4>
0

>  <PEOE_VSA5>
5.1

>  <PEOE_VSA6>
19.26

>  <PEOE_VSA7>
66.29

>  <PEOE_VSA8>
18.53

>  <PEOE_VSA9>
12.65

>  <PEOE_VSA10>
5.75

>  <PEOE_VSA11>
5.82

>  <PEOE_VSA12>
5.91

>  <PEOE_VSA13>
0

>  <SMR_VSA1>
9.53

>  <SMR_VSA2>
0

>  <SMR_VSA3>
20.21

>  <SMR_VSA4>
0

>  <SMR_VSA5>
70.25

>  <SMR_VSA6>
11.92

>  <SMR_VSA7>
29.59

>  <SMR_VSA8>
0

>  <SMR_VSA9>
5.75

>  <SlogP_VSA1>
10.05

>  <SlogP_VSA2>
32.72

>  <SlogP_VSA3>
17.64

>  <SlogP_VSA4>
0

>  <SlogP_VSA5>
68.8

>  <SlogP_VSA6>
18.2

>  <SlogP_VSA7>
0

>  <SlogP_VSA8>
0

>  <SlogP_VSA9>
0

>  <SlogP_VSA10>
5.69

>  <SlogP_VSA11>
5.75

>  <EState_VSA1>
0

>  <EState_VSA2>
5.91

>  <EState_VSA3>
19.07

>  <EState_VSA4>
48.51

>  <EState_VSA5>
32.1

>  <EState_VSA6>
0

>  <EState_VSA7>
18.2

>  <EState_VSA8>
25.52

>  <EState_VSA9>
4.74

>  <EState_VSA10>
4.79

>  <VSA_EState1>
7.95

>  <VSA_EState2>
11.42

>  <VSA_EState3>
15.24

>  <VSA_EState4>
2.06

>  <VSA_EState5>
1.97

>  <VSA_EState6>
6.38

>  <VSA_EState7>
10.47

>  <VSA_EState8>
0.68

>  <VSA_EState9>
0

>  <apol>
58.51

>  <bpol>
31.97

>  <nRing>
4

>  <nHRing>
2

>  <naRing>
2

>  <naHRing>
1

>  <nARing 2>
2

>  <nAHRing 2>
1

>  <nFRing>
1

>  <nFHRing>
1

>  <nFaRing>
0

>  <nFaHRing>
0

>  <nFARing 2>
1

>  <nFAHRing 2>
1

>  <nRot>
7

>  <SLogP>
3.46

>  <SMR>
101.76

>  <TopoPSA(NO)>
81.93

>  <TopoPSA>
81.93

>  <JGI1>
0.13

>  <JGI2>
0.06

>  <JGI3>
0.03

>  <JGI4>
0.04

>  <JGI5>
0.01

>  <Diameter>
17

>  <Radius>
9

>  <TMWC10>
132.22

>  <TSRW10>
75.5

>  <MW>
369.22

>  <AMW>
6.84

>  <WPath>
2301

>  <WPol>
38

>  <Zagreb1>
140

>  <Zagreb2>
162

>  <mZagreb2>
6

>  <yes>


>  <nAR-cont>
1

>  <nHA-cont>
0.860070871

>  <MWHBN>
0.364296863

>  <MWHBN-cont>
0.615930193

>  <TPSA-cont>
0.428077725

>  <pka_cont>
0.97

>  <yes.1>


>  <BBB_SCORE>
4.12512161

>  <MMFF94 Energy>
-10.439

$$$$
Compound 2600
Actelion Java MolfileCreator 2.0

  0  0  0  0  0  0              0 V3000
M  V30 BEGIN CTAB
M  V30 COUNTS 26 28 0 0 0
M  V30 BEGIN ATOM
M  V30 1 F -2.2679 2.2679 2.6733 0
M  V30 2 C -2.0671 1.3765 1.6944 0
M  V30 3 C -0.7758 1.1618 1.2205 0
M  V30 4 C -3.1487 0.6873 1.1644 0
M  V30 5 C -0.5439 0.2345 0.1887 0
M  V30 6 C -2.9335 -0.2392 0.1467 0
M  V30 7 C -1.6391 -0.4745 -0.3262 0
M  V30 8 C 0.8388 -0.0124 -0.3629 0 CFG=1
M  V30 9 O -1.5383 -1.396 -1.3333 0
M  V30 10 N 1.579 1.2183 -0.5664 0
M  V30 11 C 1.7776 -0.6892 0.663 0
M  V30 12 C 0.8064 -0.8293 -1.6533 0
M  V30 13 C -0.2278 -1.9327 -1.5195 0
M  V30 14 C 2.7379 1.2679 0.1656 0
M  V30 15 O 1.6253 -1.7841 1.1849 0
M  V30 16 N 2.8421 0.1301 0.8879 0
M  V30 17 O 3.5274 2.194 0.1632 0
M  V30 18 H 0.0355 1.7326 1.6643 0
M  V30 19 H -4.1477 0.8731 1.5452 0
M  V30 20 H -3.7726 -0.7868 -0.2753 0
M  V30 21 H 1.2907 1.9888 -1.1552 0
M  V30 22 H 1.7892 -1.2557 -1.8873 0
M  V30 23 H 0.5245 -0.18 -2.4935 0
M  V30 24 H -3.0E-4 -2.6286 -0.7038 0
M  V30 25 H -0.251 -2.5218 -2.4427 0
M  V30 26 H 3.6029 -0.0734 1.5132 0
M  V30 END ATOM
M  V30 BEGIN BOND
M  V30 1 1 1 2
M  V30 2 2 2 3
M  V30 3 1 2 4
M  V30 4 1 3 5
M  V30 5 2 4 6
M  V30 6 2 5 7
M  V30 7 1 5 8
M  V30 8 1 7 9
M  V30 9 1 8 10
M  V30 10 1 8 11
M  V30 11 1 8 12
M  V30 12 1 9 13
M  V30 13 1 10 14
M  V30 14 2 11 15
M  V30 15 1 11 16
M  V30 16 2 14 17
M  V30 17 1 6 7
M  V30 18 1 12 13
M  V30 19 1 14 16
M  V30 20 1 3 18
M  V30 21 1 4 19
M  V30 22 1 6 20
M  V30 23 1 10 21
M  V30 24 1 12 22
M  V30 25 1 12 23
M  V30 26 1 13 24
M  V30 27 1 13 25
M  V30 28 1 16 26
M  V30 END BOND
M  V30 BEGIN COLLECTION
M  V30 MDLV30/STERAC1 ATOMS=(1 8)
M  V30 END COLLECTION
M  V30 END CTAB
M  END
>  <Column 1>
3241

>  <level_0>
5400

>  <index>
5401

>  <Unnamed: 0>
5401

>  <NO.>
5413

>  <Name>
sorbinil

>  <IUPAC_name>
6-fluorospiro[2-3-dihydrochromene-4-5'-imidazolidine]-2'-4'-dione

>  <SMILES>
O=C1NC(=O)C2(CCOc3ccc(F)cc32)N1

>  <CID>
5252

>  <logBB>


>  <BBB+/BBB->
BBB-

>  <Inchi>
InChI=1S/C11H9FN2O3/c12-6-1-2-8-7(5-6)11(3-4-17-8)9(15)13-10(16)14-11/h1-2-5H-3-4H2-(H2-13-14-15-16)

>  <threshold>


>  <reference>
R14|

>  <group>
C

>  <Class>
-1

>  <ABC>
13.6

>  <ABCGG>
11.73

>  <nAcid>
0

>  <nBase>
0

>  <nAromAtom>
6

>  <nAromBond>
6

>  <nAtom>
26

>  <nHeavyAtom>
17

>  <nSpiro>
1

>  <nBridgehead>
0

>  <nHetero>
6

>  <nN>
2

>  <nO>
3

>  <nF>
1

>  <BalabanJ>
1.87

>  <BertzCT>
531.45

>  <nBonds>
28

>  <nBondsO>
19

>  <nBondsS>
20

>  <nBondsD>
2

>  <nBondsT>
0

>  <nBondsA>
6

>  <nBondsM>
8

>  <nBondsKS>
23

>  <nBondsKD>
5

>  <RNCG>
0.26

>  <RPCG>
0.17

>  <FCSP3>
0.27

>  <SZ>
20.33

>  <Sm>
19.67

>  <Sv>
17.75

>  <Sse>
27.27

>  <Sp>
17.69

>  <Si>
29.63

>  <MZ>
0.78

>  <Mm>
0.76

>  <Mv>
0.68

>  <Mse>
1.05

>  <Mp>
0.68

>  <Mi>
1.14

>  <NsCH3>
0

>  <NdCH2>
0

>  <NssCH2>
2

>  <NtCH>
0

>  <NdsCH>
0

>  <NaaCH>
3

>  <NsssCH>
0

>  <NddC>
0

>  <NtsC>
0

>  <NdssC>
2

>  <NaasC>
3

>  <NaaaC>
0

>  <NssssC>
1

>  <NsNH3>
0

>  <NsNH2>
0

>  <NssNH2>
0

>  <NdNH>
0

>  <NssNH>
2

>  <NaaNH>
0

>  <NtN>
0

>  <NsssNH>
0

>  <NdsN>
0

>  <NaaN>
0

>  <NsssN>
0

>  <NddsN>
0

>  <NaasN>
0

>  <NssssN>
0

>  <NsOH>
0

>  <NdO>
2

>  <NssO>
1

>  <NaaO>
0

>  <NsF>
1

>  <NsSiH3>
0

>  <NssSiH2>
0

>  <NsssSiH>
0

>  <NssssSi>
0

>  <NsPH2>
0

>  <NssPH>
0

>  <NsssP>
0

>  <NdsssP>
0

>  <NsssssP>
0

>  <NsSH>
0

>  <NdS>
0

>  <NssS>
0

>  <NaaS>
0

>  <NdssS>
0

>  <NddssS>
0

>  <NsCl>
0

>  <NsBr>
0

>  <NsI>
0

>  <fragCpx>
89.06

>  <fMF>
0.54

>  <nHBAcc>
3

>  <nHBDon>
2

>  <Kier1>
12.06

>  <Kier2>
4.28

>  <Lipinski>
1

>  <GhoseFilter>
1

>  <FilterItLogS>
-3.22

>  <VMcGowan>
151.1

>  <LabuteASA>
95.95

>  <PEOE_VSA1>
10.05

>  <PEOE_VSA2>
10.11

>  <PEOE_VSA3>
9.18

>  <PEOE_VSA4>
0

>  <PEOE_VSA5>
0

>  <PEOE_VSA6>
0

>  <PEOE_VSA7>
18.2

>  <PEOE_VSA8>
11.98

>  <PEOE_VSA9>
6.61

>  <PEOE_VSA10>
11.57

>  <PEOE_VSA11>
5.54

>  <PEOE_VSA12>
0

>  <PEOE_VSA13>
5.91

>  <SMR_VSA1>
18.72

>  <SMR_VSA2>
0

>  <SMR_VSA3>
10.63

>  <SMR_VSA4>
0

>  <SMR_VSA5>
11.96

>  <SMR_VSA6>
6.61

>  <SMR_VSA7>
29.58

>  <SMR_VSA8>
0

>  <SMR_VSA9>
5.75

>  <SlogP_VSA1>
15.37

>  <SlogP_VSA2>
18.55

>  <SlogP_VSA3>
10.33

>  <SlogP_VSA4>
5.82

>  <SlogP_VSA5>
11.98

>  <SlogP_VSA6>
18.2

>  <SlogP_VSA7>
0

>  <SlogP_VSA8>
0

>  <SlogP_VSA9>
0

>  <SlogP_VSA10>
9.18

>  <SlogP_VSA11>
5.75

>  <EState_VSA1>
23.29

>  <EState_VSA2>
0

>  <EState_VSA3>
24.34

>  <EState_VSA4>
0

>  <EState_VSA5>
18.2

>  <EState_VSA6>
0

>  <EState_VSA7>
0

>  <EState_VSA8>
10.63

>  <EState_VSA9>
4.74

>  <EState_VSA10>
13.98

>  <VSA_EState1>
18.61

>  <VSA_EState2>
23.11

>  <VSA_EState3>
4.73

>  <VSA_EState4>
-0.82

>  <VSA_EState5>
-0.5

>  <VSA_EState6>
3.38

>  <VSA_EState7>
0.29

>  <VSA_EState8>
0.3

>  <VSA_EState9>
0

>  <apol>
29.53

>  <bpol>
14.75

>  <nRing>
3

>  <nHRing>
2

>  <naRing>
1

>  <naHRing>
0

>  <nARing 2>
2

>  <nAHRing 2>
2

>  <nFRing>
1

>  <nFHRing>
1

>  <nFaRing>
0

>  <nFaHRing>
0

>  <nFARing 2>
1

>  <nFAHRing 2>
1

>  <nRot>
0

>  <SLogP>
0.64

>  <SMR>
54.86

>  <TopoPSA(NO)>
67.43

>  <TopoPSA>
67.43

>  <JGI1>
0.26

>  <JGI2>
0.1

>  <JGI3>
0.07

>  <JGI4>
0.05

>  <JGI5>
0.03

>  <Diameter>
7

>  <Radius>
4

>  <TMWC10>
110.45

>  <TSRW10>
65.06

>  <MW>
236.06

>  <AMW>
9.08

>  <WPath>
445

>  <WPol>
30

>  <Zagreb1>
96

>  <Zagreb2>
118

>  <mZagreb2>
3.61

>  <yes>


>  <nAR-cont>
1

>  <nHA-cont>
0.976740822

>  <MWHBN>
0.325430912

>  <MWHBN-cont>
0.758711139

>  <TPSA-cont>
0.529296728

>  <pka_cont>
0.97

>  <yes.1>


>  <BBB_SCORE>
4.658400987

>  <MMFF94 Energy>
-61.797

$$$$
Compound 2601
Actelion Java MolfileCreator 2.0

  0  0  0  0  0  0              0 V3000
M  V30 BEGIN CTAB
M  V30 COUNTS 23 24 0 0 0
M  V30 BEGIN ATOM
M  V30 1 O -0.2414 -2.5779 -5.08 0
M  V30 2 N 0.3289 -1.9988 -4.1444 0 CHG=1
M  V30 3 O 1.5339 -1.7291 -4.0875 0 CHG=-1
M  V30 4 C -0.5012 -1.6217 -3.0435 0
M  V30 5 O 0.1017 -0.9757 -2.012 0
M  V30 6 C -1.8458 -1.7934 -2.8157 0
M  V30 7 C -0.8772 -0.7194 -1.0869 0
M  V30 8 C -2.0894 -1.209 -1.5457 0
M  V30 9 C -0.5381 -0.0351 0.1339 0
M  V30 10 N 0.667 0.3663 0.3687 0
M  V30 11 N 0.9472 1.0039 1.5457 0
M  V30 12 C 2.1884 1.5889 1.7732 0
M  V30 13 C 0.0623 1.2878 2.6257 0
M  V30 14 O 3.1548 1.6233 1.0285 0
M  V30 15 O 2.1892 2.1816 3.013 0
M  V30 16 C 1.0041 1.7739 3.6989 0
M  V30 17 H -2.553 -2.2756 -3.4773 0
M  V30 18 H -3.0373 -1.1504 -1.0268 0
M  V30 19 H -1.3691 0.125 0.8408 0
M  V30 20 H -0.6271 2.0784 2.3122 0
M  V30 21 H -0.4989 0.4052 2.944 0
M  V30 22 H 0.588 2.6136 4.2632 0
M  V30 23 H 1.2718 0.977 4.4012 0
M  V30 END ATOM
M  V30 BEGIN BOND
M  V30 1 2 1 2
M  V30 2 1 2 3
M  V30 3 1 2 4
M  V30 4 1 4 5
M  V30 5 2 4 6
M  V30 6 1 5 7
M  V30 7 1 6 8
M  V30 8 1 7 9
M  V30 9 2 9 10
M  V30 10 1 10 11
M  V30 11 1 11 12
M  V30 12 1 11 13
M  V30 13 2 12 14
M  V30 14 1 12 15
M  V30 15 1 13 16
M  V30 16 2 7 8
M  V30 17 1 15 16
M  V30 18 1 6 17
M  V30 19 1 8 18
M  V30 20 1 9 19
M  V30 21 1 13 20
M  V30 22 1 13 21
M  V30 23 1 16 22
M  V30 24 1 16 23
M  V30 END BOND
M  V30 END CTAB
M  END
>  <Column 1>
3242

>  <level_0>
5401

>  <index>
5402

>  <Unnamed: 0>
5402

>  <NO.>
5414

>  <Name>
furazolidone

>  <IUPAC_name>
3-[(5-nitrofuran-2-yl)methylideneamino]-1-3-oxazolidin-2-one

>  <SMILES>
O=C1OCCN1N=Cc1ccc([N+](=O)[O-])o1

>  <CID>
3435

>  <logBB>


>  <BBB+/BBB->
BBB-

>  <Inchi>
InChI=1S/C8H7N3O5/c12-8-10(3-4-15-8)9-5-6-1-2-7(16-6)11(13)14/h1-2-5H-3-4H2

>  <threshold>


>  <reference>
R14|

>  <group>
C

>  <Class>
1

>  <ABC>
12.27

>  <ABCGG>
11.29

>  <nAcid>
0

>  <nBase>
0

>  <nAromAtom>
5

>  <nAromBond>
5

>  <nAtom>
23

>  <nHeavyAtom>
16

>  <nSpiro>
0

>  <nBridgehead>
0

>  <nHetero>
8

>  <nN>
3

>  <nO>
5

>  <nF>
0

>  <BalabanJ>
1.67

>  <BertzCT>
452.28

>  <nBonds>
24

>  <nBondsO>
17

>  <nBondsS>
16

>  <nBondsD>
3

>  <nBondsT>
0

>  <nBondsA>
5

>  <nBondsM>
8

>  <nBondsKS>
19

>  <nBondsKD>
5

>  <RNCG>
0.23

>  <RPCG>
0.22

>  <FCSP3>
0.25

>  <SZ>
19.33

>  <Sm>
18.75

>  <Sv>
15.74

>  <Sse>
24.75

>  <Sp>
15.17

>  <Si>
26.37

>  <MZ>
0.84

>  <Mm>
0.82

>  <Mv>
0.68

>  <Mse>
1.08

>  <Mp>
0.66

>  <Mi>
1.15

>  <NsCH3>
0

>  <NdCH2>
0

>  <NssCH2>
2

>  <NtCH>
0

>  <NdsCH>
1

>  <NaaCH>
2

>  <NsssCH>
0

>  <NddC>
0

>  <NtsC>
0

>  <NdssC>
1

>  <NaasC>
2

>  <NaaaC>
0

>  <NssssC>
0

>  <NsNH3>
0

>  <NsNH2>
0

>  <NssNH2>
0

>  <NdNH>
0

>  <NssNH>
0

>  <NaaNH>
0

>  <NtN>
0

>  <NsssNH>
0

>  <NdsN>
1

>  <NaaN>
0

>  <NsssN>
1

>  <NddsN>
1

>  <NaasN>
0

>  <NssssN>
0

>  <NsOH>
0

>  <NdO>
2

>  <NssO>
1

>  <NaaO>
1

>  <NsF>
0

>  <NsSiH3>
0

>  <NssSiH2>
0

>  <NsssSiH>
0

>  <NssssSi>
0

>  <NsPH2>
0

>  <NssPH>
0

>  <NsssP>
0

>  <NdsssP>
0

>  <NsssssP>
0

>  <NsSH>
0

>  <NdS>
0

>  <NssS>
0

>  <NaaS>
0

>  <NdssS>
0

>  <NddssS>
0

>  <NsCl>
0

>  <NsBr>
0

>  <NsI>
0

>  <fragCpx>
49.08

>  <fMF>
0.52

>  <nHBAcc>
6

>  <nHBDon>
0

>  <Kier1>
12.46

>  <Kier2>
5.56

>  <Lipinski>
1

>  <GhoseFilter>
1

>  <FilterItLogS>
-1.21

>  <VMcGowan>
139.65

>  <LabuteASA>
89.23

>  <PEOE_VSA1>
9.15

>  <PEOE_VSA2>
10.11

>  <PEOE_VSA3>
4.79

>  <PEOE_VSA4>
10.11

>  <PEOE_VSA5>
0

>  <PEOE_VSA6>
0

>  <PEOE_VSA7>
6.07

>  <PEOE_VSA8>
0

>  <PEOE_VSA9>
18.83

>  <PEOE_VSA10>
11.53

>  <PEOE_VSA11>
5.76

>  <PEOE_VSA12>
0

>  <PEOE_VSA13>
0

>  <SMR_VSA1>
18.87

>  <SMR_VSA2>
0

>  <SMR_VSA3>
5.01

>  <SMR_VSA4>
5.1

>  <SMR_VSA5>
0

>  <SMR_VSA6>
13.15

>  <SMR_VSA7>
28.01

>  <SMR_VSA8>
0

>  <SMR_VSA9>
0

>  <SlogP_VSA1>
0

>  <SlogP_VSA2>
35.39

>  <SlogP_VSA3>
4.74

>  <SlogP_VSA4>
10.11

>  <SlogP_VSA5>
5.76

>  <SlogP_VSA6>
21.65

>  <SlogP_VSA7>
0

>  <SlogP_VSA8>
0

>  <SlogP_VSA9>
0

>  <SlogP_VSA10>
10.68

>  <SlogP_VSA11>
0

>  <EState_VSA1>
11.02

>  <EState_VSA2>
18.25

>  <EState_VSA3>
6.54

>  <EState_VSA4>
5.01

>  <EState_VSA5>
18.35

>  <EState_VSA6>
0

>  <EState_VSA7>
0

>  <EState_VSA8>
9.84

>  <EState_VSA9>
4.42

>  <EState_VSA10>
14.91

>  <VSA_EState1>
9.44

>  <VSA_EState2>
20.62

>  <VSA_EState3>
15.18

>  <VSA_EState4>
0

>  <VSA_EState5>
-0.17

>  <VSA_EState6>
2.6

>  <VSA_EState7>
0.68

>  <VSA_EState8>
0.65

>  <VSA_EState9>
0

>  <apol>
25.34

>  <bpol>
14.24

>  <nRing>
2

>  <nHRing>
2

>  <naRing>
1

>  <naHRing>
1

>  <nARing 2>
1

>  <nAHRing 2>
1

>  <nFRing>
0

>  <nFHRing>
0

>  <nFaRing>
0

>  <nFaHRing>
0

>  <nFARing 2>
0

>  <nFAHRing 2>
0

>  <nRot>
3

>  <SLogP>
0.97

>  <SMR>
51.01

>  <TopoPSA(NO)>
98.18

>  <TopoPSA>
98.18

>  <JGI1>
0.21

>  <JGI2>
0.09

>  <JGI3>
0.05

>  <JGI4>
0.05

>  <JGI5>
0.02

>  <Diameter>
9

>  <Radius>
5

>  <TMWC10>
102.57

>  <TSRW10>
63.42

>  <MW>
225.04

>  <AMW>
9.78

>  <WPath>
491

>  <WPol>
18

>  <Zagreb1>
80

>  <Zagreb2>
91

>  <mZagreb2>
3.56

>  <yes>


>  <nAR-cont>
0.816016

>  <nHA-cont>
0.954961865

>  <MWHBN>
0.399964449

>  <MWHBN-cont>
0.476200706

>  <TPSA-cont>
0.314642634

>  <pka_cont>
0.97

>  <yes.1>


>  <BBB_SCORE>
3.599564191

>  <MMFF94 Energy>
100.61

$$$$
Compound 2602
Actelion Java MolfileCreator 2.0

  0  0  0  0  0  0              0 V3000
M  V30 BEGIN CTAB
M  V30 COUNTS 46 50 0 0 0
M  V30 BEGIN ATOM
M  V30 1 O 1.131 -1.2118 1.616 0
M  V30 2 C 0.8388 -0.7791 0.5065 0
M  V30 3 N -0.4581 -0.4543 0.1024 0
M  V30 4 C 1.9349 -0.5859 -0.4892 0
M  V30 5 C -1.6317 -0.597 0.9843 0
M  V30 6 C -0.7064 -0.0183 -1.273 0
M  V30 7 C 1.731 0.2017 -1.634 0
M  V30 8 C 3.1774 -1.1889 -0.2653 0
M  V30 9 C -1.8488 0.6173 1.9223 0
M  V30 10 C -1.7509 -1.9034 1.8207 0
M  V30 11 C 0.4017 0.8934 -1.801 0
M  V30 12 C 2.7763 0.3803 -2.5592 0
M  V30 13 C 4.211 -1.0209 -1.1849 0
M  V30 14 C -3.297 0.5138 2.4426 0
M  V30 15 C -0.9482 0.5187 3.1636 0
M  V30 16 N -2.2384 -1.6276 3.2004 0
M  V30 17 C 0.1368 1.3058 -3.253 0
M  V30 18 C 4.009 -0.2469 -2.3278 0
M  V30 19 C 2.5796 1.1727 -3.8286 0
M  V30 20 C -3.4923 -0.8473 3.1349 0
M  V30 21 C -1.2021 -0.8168 3.8839 0
M  V30 22 C 1.3392 2.0653 -3.8049 0
M  V30 23 H -2.493 -0.6239 0.3005 0
M  V30 24 H -0.8052 -0.9257 -1.882 0
M  V30 25 H -1.6588 0.5233 -1.3136 0
M  V30 26 H 3.3403 -1.7929 0.625 0
M  V30 27 H -1.6943 1.5669 1.3991 0
M  V30 28 H -2.4647 -2.5761 1.3262 0
M  V30 29 H -0.8234 -2.4809 1.8653 0
M  V30 30 H 0.4369 1.8023 -1.1828 0
M  V30 31 H 5.1733 -1.4959 -1.0111 0
M  V30 32 H -4.0084 0.6187 1.6148 0
M  V30 33 H -3.5035 1.3272 3.1489 0
M  V30 34 H 0.1059 0.6221 2.8932 0
M  V30 35 H -1.1703 1.3483 3.847 0
M  V30 36 H -0.7566 1.9392 -3.3023 0
M  V30 37 H -0.0579 0.4248 -3.8784 0
M  V30 38 H 4.8234 -0.1336 -3.0409 0
M  V30 39 H 2.493 0.4611 -4.6595 0
M  V30 40 H 3.4605 1.7976 -4.0185 0
M  V30 41 H -3.8855 -0.6948 4.1479 0
M  V30 42 H -4.2591 -1.4279 2.6068 0
M  V30 43 H -0.2702 -1.3899 3.9614 0
M  V30 44 H -1.5122 -0.6267 4.9193 0
M  V30 45 H 1.5298 2.9496 -3.1832 0
M  V30 46 H 1.1268 2.4265 -4.8174 0
M  V30 END ATOM
M  V30 BEGIN BOND
M  V30 1 2 1 2
M  V30 2 1 2 3
M  V30 3 1 2 4
M  V30 4 1 3 5
M  V30 5 1 3 6
M  V30 6 2 4 7
M  V30 7 1 4 8
M  V30 8 1 5 9
M  V30 9 1 5 10
M  V30 10 1 6 11
M  V30 11 1 7 12
M  V30 12 2 8 13
M  V30 13 1 9 14
M  V30 14 1 9 15
M  V30 15 1 10 16
M  V30 16 1 11 17
M  V30 17 2 12 18
M  V30 18 1 12 19
M  V30 19 1 14 20
M  V30 20 1 15 21
M  V30 21 1 17 22
M  V30 22 1 7 11
M  V30 23 1 13 18
M  V30 24 1 16 20
M  V30 25 1 16 21
M  V30 26 1 19 22
M  V30 27 1 5 23
M  V30 28 1 6 24
M  V30 29 1 6 25
M  V30 30 1 8 26
M  V30 31 1 9 27
M  V30 32 1 10 28
M  V30 33 1 10 29
M  V30 34 1 11 30
M  V30 35 1 13 31
M  V30 36 1 14 32
M  V30 37 1 14 33
M  V30 38 1 15 34
M  V30 39 1 15 35
M  V30 40 1 17 36
M  V30 41 1 17 37
M  V30 42 1 18 38
M  V30 43 1 19 39
M  V30 44 1 19 40
M  V30 45 1 20 41
M  V30 46 1 20 42
M  V30 47 1 21 43
M  V30 48 1 21 44
M  V30 49 1 22 45
M  V30 50 1 22 46
M  V30 END BOND
M  V30 END CTAB
M  END
>  <Column 1>
3243

>  <level_0>
5402

>  <index>
5403

>  <Unnamed: 0>
5403

>  <NO.>
5415

>  <Name>
135729-75-8

>  <IUPAC_name>
2-(1-azabicyclo[2.2.2]octan-3-yl)-3a-4-5-6-tetrahydro-3h-benzo[de]isoquinolin-1-one

>  <SMILES>
O=C1c2cccc3c2C(CCC3)CN1C1CN2CCC1CC2

>  <CID>
9882672

>  <logBB>


>  <BBB+/BBB->
BBB+

>  <Inchi>
InChI=1S/C19H24N2O/c22-19-16-6-2-4-14-3-1-5-15(18(14)16)11-21(19)17-12-20-9-7-13(17)8-10-20/h2-4-6-13-15-17H-1-3-5-7-12H2

>  <threshold>


>  <reference>
R14|R23|

>  <group>
C

>  <Class>
-1

>  <ABC>
18.21

>  <ABCGG>
13.47

>  <nAcid>
0

>  <nBase>
1

>  <nAromAtom>
6

>  <nAromBond>
6

>  <nAtom>
46

>  <nHeavyAtom>
22

>  <nSpiro>
0

>  <nBridgehead>
2

>  <nHetero>
3

>  <nN>
2

>  <nO>
1

>  <nF>
0

>  <BalabanJ>
1.4

>  <BertzCT>
617.86

>  <nBonds>
50

>  <nBondsO>
26

>  <nBondsS>
43

>  <nBondsD>
1

>  <nBondsT>
0

>  <nBondsA>
6

>  <nBondsM>
7

>  <nBondsKS>
46

>  <nBondsKD>
4

>  <RNCG>
0.25

>  <RPCG>
0.19

>  <FCSP3>
0.63

>  <SZ>
26.67

>  <Sm>
24.68

>  <Sv>
27.73

>  <Sse>
45.31

>  <Sp>
30.38

>  <Si>
51.77

>  <MZ>
0.58

>  <Mm>
0.54

>  <Mv>
0.6

>  <Mse>
0.99

>  <Mp>
0.66

>  <Mi>
1.13

>  <NsCH3>
0

>  <NdCH2>
0

>  <NssCH2>
9

>  <NtCH>
0

>  <NdsCH>
0

>  <NaaCH>
3

>  <NsssCH>
3

>  <NddC>
0

>  <NtsC>
0

>  <NdssC>
1

>  <NaasC>
3

>  <NaaaC>
0

>  <NssssC>
0

>  <NsNH3>
0

>  <NsNH2>
0

>  <NssNH2>
0

>  <NdNH>
0

>  <NssNH>
0

>  <NaaNH>
0

>  <NtN>
0

>  <NsssNH>
0

>  <NdsN>
0

>  <NaaN>
0

>  <NsssN>
2

>  <NddsN>
0

>  <NaasN>
0

>  <NssssN>
0

>  <NsOH>
0

>  <NdO>
1

>  <NssO>
0

>  <NaaO>
0

>  <NsF>
0

>  <NsSiH3>
0

>  <NssSiH2>
0

>  <NsssSiH>
0

>  <NssssSi>
0

>  <NsPH2>
0

>  <NssPH>
0

>  <NsssP>
0

>  <NdsssP>
0

>  <NsssssP>
0

>  <NsSH>
0

>  <NdS>
0

>  <NssS>
0

>  <NaaS>
0

>  <NdssS>
0

>  <NddssS>
0

>  <NsCl>
0

>  <NsBr>
0

>  <NsI>
0

>  <fragCpx>
214.03

>  <fMF>
0.46

>  <nHBAcc>
2

>  <nHBDon>
0

>  <Kier1>
14.35

>  <Kier2>
5.52

>  <Lipinski>
1

>  <GhoseFilter>
1

>  <FilterItLogS>
-3.4

>  <VMcGowan>
232.9

>  <LabuteASA>
131.83

>  <PEOE_VSA1>
9.8

>  <PEOE_VSA2>
4.79

>  <PEOE_VSA3>
0

>  <PEOE_VSA4>
0

>  <PEOE_VSA5>
0

>  <PEOE_VSA6>
12.13

>  <PEOE_VSA7>
68.3

>  <PEOE_VSA8>
30.61

>  <PEOE_VSA9>
0

>  <PEOE_VSA10>
0

>  <PEOE_VSA11>
0

>  <PEOE_VSA12>
0

>  <PEOE_VSA13>
5.91

>  <SMR_VSA1>
4.79

>  <SMR_VSA2>
0

>  <SMR_VSA3>
9.8

>  <SMR_VSA4>
5.92

>  <SMR_VSA5>
44.06

>  <SMR_VSA6>
26.18

>  <SMR_VSA7>
34.89

>  <SMR_VSA8>
0

>  <SMR_VSA9>
0

>  <SlogP_VSA1>
0

>  <SlogP_VSA2>
47.93

>  <SlogP_VSA3>
6.42

>  <SlogP_VSA4>
5.92

>  <SlogP_VSA5>
53.09

>  <SlogP_VSA6>
18.2

>  <SlogP_VSA7>
0

>  <SlogP_VSA8>
0

>  <SlogP_VSA9>
0

>  <SlogP_VSA10>
0

>  <SlogP_VSA11>
0

>  <EState_VSA1>
0

>  <EState_VSA2>
0

>  <EState_VSA3>
17.87

>  <EState_VSA4>
30.99

>  <EState_VSA5>
49.9

>  <EState_VSA6>
0

>  <EState_VSA7>
0

>  <EState_VSA8>
28

>  <EState_VSA9>
0

>  <EState_VSA10>
4.79

>  <VSA_EState1>
0

>  <VSA_EState2>
17.96

>  <VSA_EState3>
0

>  <VSA_EState4>
3.86

>  <VSA_EState5>
1.64

>  <VSA_EState6>
6.87

>  <VSA_EState7>
6.27

>  <VSA_EState8>
4.57

>  <VSA_EState9>
0

>  <apol>
50.74

>  <bpol>
28.36

>  <nRing>
6

>  <nHRing>
4

>  <naRing>
1

>  <naHRing>
0

>  <nARing 2>
5

>  <nAHRing 2>
4

>  <nFRing>
2

>  <nFHRing>
2

>  <nFaRing>
0

>  <nFaHRing>
0

>  <nFARing 2>
2

>  <nFAHRing 2>
2

>  <nRot>
1

>  <SLogP>
2.66

>  <SMR>
86.11

>  <TopoPSA(NO)>
23.55

>  <TopoPSA>
23.55

>  <JGI1>
0.13

>  <JGI2>
0.07

>  <JGI3>
0.04

>  <JGI4>
0.04

>  <JGI5>
0.02

>  <Diameter>
9

>  <Radius>
5

>  <TMWC10>
125.08

>  <TSRW10>
57.38

>  <MW>
296.19

>  <AMW>
6.44

>  <WPath>
931

>  <WPol>
41

>  <Zagreb1>
130

>  <Zagreb2>
162

>  <mZagreb2>
4.61

>  <yes>


>  <nAR-cont>
0

>  <nHA-cont>
0.983774276

>  <MWHBN>
0.116210347

>  <MWHBN-cont>
0.812595843

>  <TPSA-cont>
0.835606376

>  <pka_cont>
0.97

>  <yes.1>


>  <BBB_SCORE>
4.358880792

>  <MMFF94 Energy>
80.766

$$$$
Compound 2603
Actelion Java MolfileCreator 2.0

  0  0  0  0  0  0              0 V3000
M  V30 BEGIN CTAB
M  V30 COUNTS 49 52 0 0 0
M  V30 BEGIN ATOM
M  V30 1 O 2.5956 -2.6768 1.7027 0
M  V30 2 C 1.7946 -3.6025 1.6542 0
M  V30 3 C 0.3285 -3.4254 1.6935 0
M  V30 4 C 2.2898 -4.9823 1.5238 0
M  V30 5 C -0.4698 -4.5575 1.5274 0
M  V30 6 C -0.2765 -2.1738 1.861 0
M  V30 7 C 1.4155 -5.9885 1.3889 0
M  V30 8 O 0.0404 -5.8207 1.3645 0
M  V30 9 C -1.8622 -4.4469 1.5227 0
M  V30 10 O 0.4945 -1.0698 2.0999 0
M  V30 11 C -1.6714 -2.0649 1.8712 0
M  V30 12 C 1.8964 -7.3851 1.245 0
M  V30 13 C -2.4627 -3.2 1.6935 0
M  V30 14 C 0.328 -0.0523 1.0958 0
M  V30 15 O 1.1833 -8.3646 1.1092 0
M  V30 16 O 3.2352 -7.512 1.2765 0
M  V30 17 C 1.6669 0.684 0.9616 0 CFG=1
M  V30 18 O 2.671 -0.2079 0.457 0
M  V30 19 C 1.5629 1.8803 0.0138 0
M  V30 20 O 0.6374 2.8396 0.5438 0
M  V30 21 C 0.4464 3.8642 -0.3437 0
M  V30 22 C -0.619 3.8806 -1.2528 0
M  V30 23 C 1.3141 4.9583 -0.2538 0
M  V30 24 C -1.5888 2.7703 -1.3816 0
M  V30 25 C -0.7833 4.9913 -2.0864 0
M  V30 26 C 1.1456 6.0579 -1.0938 0
M  V30 27 O -1.5297 1.731 -0.7387 0
M  V30 28 C -2.6714 2.9503 -2.3625 0
M  V30 29 O -1.7966 5.1004 -3.0081 0
M  V30 30 C 0.0977 6.0739 -2.0126 0
M  V30 31 C -2.7085 4.0689 -3.0947 0
M  V30 32 C -3.8055 4.2292 -4.0844 0
M  V30 33 O -4.6851 3.397 -4.2687 0
M  V30 34 H 3.3652 -5.1094 1.533 0
M  V30 35 H -2.4796 -5.3325 1.3906 0
M  V30 36 H -2.1464 -1.0993 2.029 0
M  V30 37 H -3.5468 -3.1123 1.6979 0
M  V30 38 H -0.4608 0.6281 1.4318 0
M  V30 39 H 0.0563 -0.4967 0.1291 0
M  V30 40 H 3.3798 -8.4761 1.1703 0
M  V30 41 H 1.9965 1.0191 1.9522 0
M  V30 42 H 2.6522 -1.0091 1.0322 0
M  V30 43 H 2.5555 2.3377 -0.0939 0
M  V30 44 H 1.252 1.5381 -0.9826 0
M  V30 45 H 2.1198 4.953 0.477 0
M  V30 46 H 1.8258 6.9038 -1.025 0
M  V30 47 H -3.3972 2.1503 -2.4513 0
M  V30 48 H -0.0358 6.9346 -2.6639 0
M  V30 49 H -3.7726 5.1723 -4.6555 0
M  V30 END ATOM
M  V30 BEGIN BOND
M  V30 1 2 1 2
M  V30 2 1 2 3
M  V30 3 1 2 4
M  V30 4 2 3 5
M  V30 5 1 3 6
M  V30 6 2 4 7
M  V30 7 1 5 8
M  V30 8 1 5 9
M  V30 9 1 6 10
M  V30 10 2 6 11
M  V30 11 1 7 12
M  V30 12 2 9 13
M  V30 13 1 10 14
M  V30 14 2 12 15
M  V30 15 1 12 16
M  V30 16 1 14 17
M  V30 17 1 17 18
M  V30 18 1 17 19
M  V30 19 1 19 20
M  V30 20 1 20 21
M  V30 21 2 21 22
M  V30 22 1 21 23
M  V30 23 1 22 24
M  V30 24 1 22 25
M  V30 25 2 23 26
M  V30 26 2 24 27
M  V30 27 1 24 28
M  V30 28 1 25 29
M  V30 29 2 25 30
M  V30 30 2 28 31
M  V30 31 1 31 32
M  V30 32 2 32 33
M  V30 33 1 7 8
M  V30 34 1 11 13
M  V30 35 1 26 30
M  V30 36 1 29 31
M  V30 37 1 4 34
M  V30 38 1 9 35
M  V30 39 1 11 36
M  V30 40 1 13 37
M  V30 41 1 14 38
M  V30 42 1 14 39
M  V30 43 1 16 40
M  V30 44 1 17 41
M  V30 45 1 18 42
M  V30 46 1 19 43
M  V30 47 1 19 44
M  V30 48 1 23 45
M  V30 49 1 26 46
M  V30 50 1 28 47
M  V30 51 1 30 48
M  V30 52 1 32 49
M  V30 END BOND
M  V30 BEGIN COLLECTION
M  V30 MDLV30/STERAC1 ATOMS=(1 17)
M  V30 END COLLECTION
M  V30 END CTAB
M  END
>  <Column 1>
3245

>  <level_0>
5404

>  <index>
5405

>  <Unnamed: 0>
5405

>  <NO.>
5417

>  <Name>
schembl5951410

>  <IUPAC_name>
5-[3-(2-formyl-4-oxochromen-5-yl)oxy-2-hydroxypropoxy]-4-oxochromene-2-carboxylic acid

>  <SMILES>
O=Cc1cc(=O)c2c(OCC(O)COc3cccc4oc(C(=O)O)cc(=O)c34)cccc2o1

>  <CID>
58133462

>  <logBB>


>  <BBB+/BBB->
BBB-

>  <Inchi>
InChI=1S/C23H16O10/c24-9-13-7-14(26)21-16(3-1-5-18(21)32-13)30-10-12(25)11-31-17-4-2-6-19-22(17)15(27)8-20(33-19)23(28)29/h1-9-12-25H-10-11H2-(H-28-29)

>  <threshold>


>  <reference>
R14|

>  <group>
C

>  <Class>
-1

>  <ABC>
25.72

>  <ABCGG>
18.98

>  <nAcid>
1

>  <nBase>
0

>  <nAromAtom>
20

>  <nAromBond>
22

>  <nAtom>
49

>  <nHeavyAtom>
33

>  <nSpiro>
0

>  <nBridgehead>
0

>  <nHetero>
10

>  <nN>
0

>  <nO>
10

>  <nF>
0

>  <BalabanJ>
1.24

>  <BertzCT>
1480.63

>  <nBonds>
52

>  <nBondsO>
36

>  <nBondsS>
26

>  <nBondsD>
4

>  <nBondsT>
0

>  <nBondsA>
22

>  <nBondsM>
26

>  <nBondsKS>
40

>  <nBondsKD>
12

>  <RNCG>
0.12

>  <RPCG>
0.09

>  <FCSP3>
0.13

>  <SZ>
39

>  <Sm>
37.66

>  <Sv>
34.48

>  <Sse>
51.41

>  <Sp>
34.19

>  <Si>
54.42

>  <MZ>
0.8

>  <Mm>
0.77

>  <Mv>
0.7

>  <Mse>
1.05

>  <Mp>
0.7

>  <Mi>
1.11

>  <NsCH3>
0

>  <NdCH2>
0

>  <NssCH2>
2

>  <NtCH>
0

>  <NdsCH>
1

>  <NaaCH>
8

>  <NsssCH>
1

>  <NddC>
0

>  <NtsC>
0

>  <NdssC>
1

>  <NaasC>
4

>  <NaaaC>
4

>  <NssssC>
0

>  <NsNH3>
0

>  <NsNH2>
0

>  <NssNH2>
0

>  <NdNH>
0

>  <NssNH>
0

>  <NaaNH>
0

>  <NtN>
0

>  <NsssNH>
0

>  <NdsN>
0

>  <NaaN>
0

>  <NsssN>
0

>  <NddsN>
0

>  <NaasN>
0

>  <NssssN>
0

>  <NsOH>
2

>  <NdO>
4

>  <NssO>
2

>  <NaaO>
2

>  <NsF>
0

>  <NsSiH3>
0

>  <NssSiH2>
0

>  <NsssSiH>
0

>  <NssssSi>
0

>  <NsPH2>
0

>  <NssPH>
0

>  <NsssP>
0

>  <NdsssP>
0

>  <NsssssP>
0

>  <NsSH>
0

>  <NdS>
0

>  <NssS>
0

>  <NaaS>
0

>  <NdssS>
0

>  <NddssS>
0

>  <NsCl>
0

>  <NsBr>
0

>  <NsI>
0

>  <fragCpx>
240.1

>  <fMF>
0.51

>  <nHBAcc>
9

>  <nHBDon>
2

>  <Kier1>
26.07

>  <Kier2>
11.82

>  <Lipinski>
1

>  <GhoseFilter>
1

>  <FilterItLogS>
-5.09

>  <VMcGowan>
298.59

>  <LabuteASA>
183.75

>  <PEOE_VSA1>
28.52

>  <PEOE_VSA2>
14.38

>  <PEOE_VSA3>
4.79

>  <PEOE_VSA4>
0

>  <PEOE_VSA5>
0

>  <PEOE_VSA6>
12.13

>  <PEOE_VSA7>
24.27

>  <PEOE_VSA8>
12.13

>  <PEOE_VSA9>
0

>  <PEOE_VSA10>
52.76

>  <PEOE_VSA11>
22.9

>  <PEOE_VSA12>
5.76

>  <PEOE_VSA13>
0

>  <SMR_VSA1>
38.11

>  <SMR_VSA2>
0

>  <SMR_VSA3>
0

>  <SMR_VSA4>
0

>  <SMR_VSA5>
6.1

>  <SMR_VSA6>
13.21

>  <SMR_VSA7>
80.5

>  <SMR_VSA8>
0

>  <SMR_VSA9>
11.5

>  <SlogP_VSA1>
20.33

>  <SlogP_VSA2>
41.79

>  <SlogP_VSA3>
0

>  <SlogP_VSA4>
0

>  <SlogP_VSA5>
21.11

>  <SlogP_VSA6>
66.95

>  <SlogP_VSA7>
0

>  <SlogP_VSA8>
21.94

>  <SlogP_VSA9>
0

>  <SlogP_VSA10>
0

>  <SlogP_VSA11>
11.5

>  <EState_VSA1>
28.69

>  <EState_VSA2>
52.41

>  <EState_VSA3>
6.29

>  <EState_VSA4>
12.13

>  <EState_VSA5>
30.33

>  <EState_VSA6>
6.07

>  <EState_VSA7>
0

>  <EState_VSA8>
0

>  <EState_VSA9>
23.41

>  <EState_VSA10>
24.28

>  <VSA_EState1>
21.6

>  <VSA_EState2>
46.57

>  <VSA_EState3>
19.46

>  <VSA_EState4>
-0.88

>  <VSA_EState5>
-1.74

>  <VSA_EState6>
10.91

>  <VSA_EState7>
-0.73

>  <VSA_EState8>
-0.52

>  <VSA_EState9>
0

>  <apol>
57.1

>  <bpol>
26.47

>  <nRing>
4

>  <nHRing>
2

>  <naRing>
4

>  <naHRing>
2

>  <nARing 2>
0

>  <nAHRing 2>
0

>  <nFRing>
2

>  <nFHRing>
2

>  <nFaRing>
2

>  <nFaHRing>
2

>  <nFARing 2>
0

>  <nFAHRing 2>
0

>  <nRot>
8

>  <SLogP>
2.23

>  <SMR>
114.31

>  <TopoPSA(NO)>
153.48

>  <TopoPSA>
153.48

>  <JGI1>
0.19

>  <JGI2>
0.07

>  <JGI3>
0.05

>  <JGI4>
0.05

>  <JGI5>
0.03

>  <Diameter>
18

>  <Radius>
9

>  <TMWC10>
147.23

>  <TSRW10>
69.35

>  <MW>
452.07

>  <AMW>
9.23

>  <WPath>
3628

>  <WPol>
56

>  <Zagreb1>
174

>  <Zagreb2>
206

>  <mZagreb2>
7.28

>  <yes>


>  <nAR-cont>
0.336376

>  <nHA-cont>
0.61399562

>  <MWHBN>
0.517356418

>  <MWHBN-cont>
0

>  <TPSA-cont>
0

>  <pka_cont>
0.97

>  <yes.1>


>  <BBB_SCORE>
1.43537162

>  <MMFF94 Energy>
90.037

$$$$
Compound 2604
Actelion Java MolfileCreator 2.0

  0  0  0  0  0  0              0 V3000
M  V30 BEGIN CTAB
M  V30 COUNTS 26 26 0 0 0
M  V30 BEGIN ATOM
M  V30 1 Cl 0.4332 -0.6933 -5.4689 0
M  V30 2 C 0.1509 -0.8363 -3.7781 0
M  V30 3 C -1.1286 -0.6236 -3.269 0
M  V30 4 C 1.2031 -1.1651 -2.9257 0
M  V30 5 C -1.3569 -0.739 -1.8952 0
M  V30 6 C 0.9735 -1.2799 -1.552 0
M  V30 7 C -0.3061 -1.0609 -1.0317 0
M  V30 8 S -0.6054 -1.2088 0.7153 0
M  V30 9 C 0.0245 0.4271 1.267 0
M  V30 10 P -1.3673 1.4312 1.7529 0
M  V30 11 P 1.3119 0.1034 2.4565 0
M  V30 12 O -1.0988 2.7904 2.3114 0
M  V30 13 O -2.313 0.5869 2.7344 0
M  V30 14 O -2.3343 1.5581 0.4716 0
M  V30 15 O 0.9851 -0.5023 3.7808 0
M  V30 16 O 2.1174 1.479 2.6449 0
M  V30 17 O 2.4536 -0.7515 1.7082 0
M  V30 18 H -1.9514 -0.3698 -3.9318 0
M  V30 19 H 2.2006 -1.3362 -3.3213 0
M  V30 20 H -2.359 -0.5713 -1.5053 0
M  V30 21 H 1.8001 -1.5446 -0.8958 0
M  V30 22 H 0.5015 0.9365 0.4235 0
M  V30 23 H -2.9729 1.1275 3.206 0
M  V30 24 H -3.0062 2.2569 0.5797 0
M  V30 25 H 2.7074 1.4743 3.4221 0
M  V30 26 H 3.0852 -1.1506 2.3359 0
M  V30 END ATOM
M  V30 BEGIN BOND
M  V30 1 1 1 2
M  V30 2 2 2 3
M  V30 3 1 2 4
M  V30 4 1 3 5
M  V30 5 2 4 6
M  V30 6 2 5 7
M  V30 7 1 7 8
M  V30 8 1 8 9
M  V30 9 1 9 10
M  V30 10 1 9 11
M  V30 11 2 10 12
M  V30 12 1 10 13
M  V30 13 1 10 14
M  V30 14 2 11 15
M  V30 15 1 11 16
M  V30 16 1 11 17
M  V30 17 1 6 7
M  V30 18 1 3 18
M  V30 19 1 4 19
M  V30 20 1 5 20
M  V30 21 1 6 21
M  V30 22 1 9 22
M  V30 23 1 13 23
M  V30 24 1 14 24
M  V30 25 1 16 25
M  V30 26 1 17 26
M  V30 END BOND
M  V30 END CTAB
M  END
>  <Column 1>
3246

>  <level_0>
5405

>  <index>
5406

>  <Unnamed: 0>
5406

>  <NO.>
5418

>  <Name>
tiludronate disodium

>  <IUPAC_name>
[(4-chlorophenyl)sulfanyl-phosphonomethyl]phosphonic acid

>  <SMILES>
O=P(O)(O)C(Sc1ccc(Cl)cc1)P(=O)(O)O

>  <CID>
60937

>  <logBB>


>  <BBB+/BBB->
BBB-

>  <Inchi>
InChI=1S/C7H9ClO6P2S/c8-5-1-3-6(4-2-5)17-7(15(9-10)11)16(12-13)14/h1-4-7H-(H2-9-10-11)(H2-12-13-14)

>  <threshold>


>  <reference>
R14|

>  <group>
C

>  <Class>
-1

>  <ABC>
12.96

>  <ABCGG>
11.99

>  <nAcid>
4

>  <nBase>
0

>  <nAromAtom>
6

>  <nAromBond>
6

>  <nAtom>
26

>  <nHeavyAtom>
17

>  <nSpiro>
0

>  <nBridgehead>
0

>  <nHetero>
10

>  <nN>
0

>  <nO>
6

>  <nF>
0

>  <BalabanJ>
2.62

>  <BertzCT>
457.64

>  <nBonds>
26

>  <nBondsO>
17

>  <nBondsS>
18

>  <nBondsD>
2

>  <nBondsT>
0

>  <nBondsA>
6

>  <nBondsM>
8

>  <nBondsKS>
21

>  <nBondsKD>
5

>  <RNCG>
0.15

>  <RPCG>
0.16

>  <FCSP3>
0.14

>  <SZ>
27

>  <Sm>
26.53

>  <Sv>
18.38

>  <Sse>
27.65

>  <Sp>
20.86

>  <Si>
29.06

>  <MZ>
1.04

>  <Mm>
1.02

>  <Mv>
0.71

>  <Mse>
1.06

>  <Mp>
0.8

>  <Mi>
1.12

>  <NsCH3>
0

>  <NdCH2>
0

>  <NssCH2>
0

>  <NtCH>
0

>  <NdsCH>
0

>  <NaaCH>
4

>  <NsssCH>
1

>  <NddC>
0

>  <NtsC>
0

>  <NdssC>
0

>  <NaasC>
2

>  <NaaaC>
0

>  <NssssC>
0

>  <NsNH3>
0

>  <NsNH2>
0

>  <NssNH2>
0

>  <NdNH>
0

>  <NssNH>
0

>  <NaaNH>
0

>  <NtN>
0

>  <NsssNH>
0

>  <NdsN>
0

>  <NaaN>
0

>  <NsssN>
0

>  <NddsN>
0

>  <NaasN>
0

>  <NssssN>
0

>  <NsOH>
4

>  <NdO>
2

>  <NssO>
0

>  <NaaO>
0

>  <NsF>
0

>  <NsSiH3>
0

>  <NssSiH2>
0

>  <NsssSiH>
0

>  <NssssSi>
0

>  <NsPH2>
0

>  <NssPH>
0

>  <NsssP>
0

>  <NdsssP>
2

>  <NsssssP>
0

>  <NsSH>
0

>  <NdS>
0

>  <NssS>
1

>  <NaaS>
0

>  <NdssS>
0

>  <NddssS>
0

>  <NsCl>
1

>  <NsBr>
0

>  <NsI>
0

>  <fragCpx>
17.1

>  <fMF>
0.23

>  <nHBAcc>
3

>  <nHBDon>
4

>  <Kier1>
15.06

>  <Kier2>
5.33

>  <Lipinski>
1

>  <GhoseFilter>
1

>  <FilterItLogS>
-0.28

>  <VMcGowan>
190.46

>  <LabuteASA>
106.33

>  <PEOE_VSA1>
19.57

>  <PEOE_VSA2>
9.13

>  <PEOE_VSA3>
0

>  <PEOE_VSA4>
0

>  <PEOE_VSA5>
0

>  <PEOE_VSA6>
23.36

>  <PEOE_VSA7>
24.27

>  <PEOE_VSA8>
9.92

>  <PEOE_VSA9>
0

>  <PEOE_VSA10>
0

>  <PEOE_VSA11>
0

>  <PEOE_VSA12>
4.73

>  <PEOE_VSA13>
0

>  <SMR_VSA1>
28.7

>  <SMR_VSA2>
0

>  <SMR_VSA3>
0

>  <SMR_VSA4>
0

>  <SMR_VSA5>
9.63

>  <SMR_VSA6>
0

>  <SMR_VSA7>
29.29

>  <SMR_VSA8>
0

>  <SMR_VSA9>
0

>  <SlogP_VSA1>
0

>  <SlogP_VSA2>
24.31

>  <SlogP_VSA3>
9.13

>  <SlogP_VSA4>
0

>  <SlogP_VSA5>
0

>  <SlogP_VSA6>
29.16

>  <SlogP_VSA7>
5.02

>  <SlogP_VSA8>
0

>  <SlogP_VSA9>
0

>  <SlogP_VSA10>
0

>  <SlogP_VSA11>
0

>  <EState_VSA1>
19.92

>  <EState_VSA2>
0

>  <EState_VSA3>
21.68

>  <EState_VSA4>
0

>  <EState_VSA5>
24.27

>  <EState_VSA6>
0

>  <EState_VSA7>
0

>  <EState_VSA8>
0

>  <EState_VSA9>
31.17

>  <EState_VSA10>
9.13

>  <VSA_EState1>
19.91

>  <VSA_EState2>
35.91

>  <VSA_EState3>
0.42

>  <VSA_EState4>
0

>  <VSA_EState5>
0

>  <VSA_EState6>
5.76

>  <VSA_EState7>
0

>  <VSA_EState8>
0

>  <VSA_EState9>
-9.82

>  <apol>
34.84

>  <bpol>
29.41

>  <nRing>
1

>  <nHRing>
0

>  <naRing>
1

>  <naHRing>
0

>  <nARing 2>
0

>  <nAHRing 2>
0

>  <nFRing>
0

>  <nFHRing>
0

>  <nFaRing>
0

>  <nFaHRing>
0

>  <nFARing 2>
0

>  <nFAHRing 2>
0

>  <nRot>
4

>  <SLogP>
2.07

>  <SMR>
65.19

>  <TopoPSA(NO)>
115.06

>  <TopoPSA>
159.98

>  <JGI1>
0.41

>  <JGI2>
0.09

>  <JGI3>
0.08

>  <JGI4>
0.05

>  <JGI5>
0.03

>  <Diameter>
8

>  <Radius>
4

>  <TMWC10>
104.86

>  <TSRW10>
49.78

>  <MW>
317.93

>  <AMW>
12.23

>  <WPath>
514

>  <WPol>
23

>  <Zagreb1>
86

>  <Zagreb2>
95

>  <mZagreb2>
3.5

>  <yes>


>  <nAR-cont>
0.336376

>  <nHA-cont>
0.976740822

>  <MWHBN>
0.392583719

>  <MWHBN-cont>
0.505279492

>  <TPSA-cont>
0

>  <pka_cont>
0.97

>  <yes.1>


>  <BBB_SCORE>
2.55603606

>  <MMFF94 Energy>
-192.95

$$$$
Compound 2605
Actelion Java MolfileCreator 2.0

  0  0  0  0  0  0              0 V3000
M  V30 BEGIN CTAB
M  V30 COUNTS 29 29 0 0 0
M  V30 BEGIN ATOM
M  V30 1 Cl -4.2103 -1.3194 0.907 0
M  V30 2 C -2.9262 -0.1279 0.5776 0
M  V30 3 C -1.7334 -0.8002 -0.1092 0
M  V30 4 N -0.545 0.0659 -0.2827 0
M  V30 5 P 0.8595 -0.7662 -0.5657 0 CFG=2
M  V30 6 C -0.8229 1.2237 -1.1554 0
M  V30 7 O 0.8582 -1.5053 -1.867 0
M  V30 8 O 1.0504 -1.7663 0.6866 0
M  V30 9 N 2.0829 0.2981 -0.3961 0
M  V30 10 C -1.0575 0.9152 -2.64 0
M  V30 11 C 1.298 -1.1956 1.9607 0
M  V30 12 C 2.365 0.8332 0.9198 0
M  V30 13 Cl -1.4274 2.4244 -3.5189 0
M  V30 14 C 2.53 -0.3013 1.9267 0
M  V30 15 H -3.3736 0.6495 -0.0463 0
M  V30 16 H -2.632 0.3119 1.5355 0
M  V30 17 H -1.4448 -1.653 0.5172 0
M  V30 18 H -2.0374 -1.2293 -1.0711 0
M  V30 19 H 0.0207 1.9202 -1.075 0
M  V30 20 H -1.6695 1.7932 -0.7554 0
M  V30 21 H 2.1159 1.0189 -1.1041 0
M  V30 22 H -1.9051 0.2422 -2.79 0
M  V30 23 H -0.1707 0.4847 -3.1099 0
M  V30 24 H 0.4137 -0.6399 2.2906 0
M  V30 25 H 1.4543 -2.0151 2.6692 0
M  V30 26 H 1.5606 1.5071 1.2352 0
M  V30 27 H 3.2879 1.4217 0.884 0
M  V30 28 H 2.7162 0.1126 2.9237 0
M  V30 29 H 3.4057 -0.9015 1.6489 0
M  V30 END ATOM
M  V30 BEGIN BOND
M  V30 1 1 1 2
M  V30 2 1 2 3
M  V30 3 1 3 4
M  V30 4 1 4 5
M  V30 5 1 4 6
M  V30 6 2 5 7
M  V30 7 1 5 8
M  V30 8 1 5 9
M  V30 9 1 6 10
M  V30 10 1 8 11
M  V30 11 1 9 12
M  V30 12 1 10 13
M  V30 13 1 11 14
M  V30 14 1 12 14
M  V30 15 1 2 15
M  V30 16 1 2 16
M  V30 17 1 3 17
M  V30 18 1 3 18
M  V30 19 1 6 19
M  V30 20 1 6 20
M  V30 21 1 9 21
M  V30 22 1 10 22
M  V30 23 1 10 23
M  V30 24 1 11 24
M  V30 25 1 11 25
M  V30 26 1 12 26
M  V30 27 1 12 27
M  V30 28 1 14 28
M  V30 29 1 14 29
M  V30 END BOND
M  V30 BEGIN COLLECTION
M  V30 MDLV30/STERAC1 ATOMS=(1 5)
M  V30 END COLLECTION
M  V30 END CTAB
M  END
>  <Column 1>
3247

>  <level_0>
5406

>  <index>
5407

>  <Unnamed: 0>
5407

>  <NO.>
5419

>  <Name>
cyclophosphamide

>  <IUPAC_name>
n-n-bis(2-chloroethyl)-2-oxo-1-3-2lambda5-oxazaphosphinan-2-amine

>  <SMILES>
O=P1(N(CCCl)CCCl)NCCCO1

>  <CID>
2907

>  <logBB>


>  <BBB+/BBB->
BBB-

>  <Inchi>
InChI=1S/C7H15Cl2N2O2P/c8-2-5-11(6-3-9)14(12)10-4-1-7-13-14/h1-7H2-(H-10-12)

>  <threshold>


>  <reference>
R14|R15|R23|

>  <group>
C

>  <Class>
-1

>  <ABC>
10

>  <ABCGG>
9.62

>  <nAcid>
0

>  <nBase>
0

>  <nAromAtom>
0

>  <nAromBond>
0

>  <nAtom>
29

>  <nHeavyAtom>
14

>  <nSpiro>
0

>  <nBridgehead>
0

>  <nHetero>
7

>  <nN>
2

>  <nO>
2

>  <nF>
0

>  <BalabanJ>
2.53

>  <BertzCT>
201.87

>  <nBonds>
29

>  <nBondsO>
14

>  <nBondsS>
28

>  <nBondsD>
1

>  <nBondsT>
0

>  <nBondsA>
0

>  <nBondsM>
1

>  <nBondsKS>
28

>  <nBondsKD>
1

>  <RNCG>
0.24

>  <RPCG>
0.27

>  <FCSP3>
1

>  <SZ>
22.67

>  <Sm>
21.74

>  <Sv>
17.38

>  <Sse>
29.59

>  <Sp>
20.05

>  <Si>
33.35

>  <MZ>
0.78

>  <Mm>
0.75

>  <Mv>
0.6

>  <Mse>
1.02

>  <Mp>
0.69

>  <Mi>
1.15

>  <NsCH3>
0

>  <NdCH2>
0

>  <NssCH2>
7

>  <NtCH>
0

>  <NdsCH>
0

>  <NaaCH>
0

>  <NsssCH>
0

>  <NddC>
0

>  <NtsC>
0

>  <NdssC>
0

>  <NaasC>
0

>  <NaaaC>
0

>  <NssssC>
0

>  <NsNH3>
0

>  <NsNH2>
0

>  <NssNH2>
0

>  <NdNH>
0

>  <NssNH>
1

>  <NaaNH>
0

>  <NtN>
0

>  <NsssNH>
0

>  <NdsN>
0

>  <NaaN>
0

>  <NsssN>
1

>  <NddsN>
0

>  <NaasN>
0

>  <NssssN>
0

>  <NsOH>
0

>  <NdO>
1

>  <NssO>
1

>  <NaaO>
0

>  <NsF>
0

>  <NsSiH3>
0

>  <NssSiH2>
0

>  <NsssSiH>
0

>  <NssssSi>
0

>  <NsPH2>
0

>  <NssPH>
0

>  <NsssP>
0

>  <NdsssP>
1

>  <NsssssP>
0

>  <NsSH>
0

>  <NdS>
0

>  <NssS>
0

>  <NaaS>
0

>  <NdssS>
0

>  <NddssS>
0

>  <NsCl>
2

>  <NsBr>
0

>  <NsI>
0

>  <fragCpx>
14.07

>  <fMF>
0.21

>  <nHBAcc>
2

>  <nHBDon>
1

>  <Kier1>
12.07

>  <Kier2>
5.78

>  <Lipinski>
1

>  <GhoseFilter>
1

>  <FilterItLogS>
-2.71

>  <VMcGowan>
175.27

>  <LabuteASA>
94.44

>  <PEOE_VSA1>
4.52

>  <PEOE_VSA2>
4.57

>  <PEOE_VSA3>
9.76

>  <PEOE_VSA4>
0

>  <PEOE_VSA5>
23.2

>  <PEOE_VSA6>
0

>  <PEOE_VSA7>
6.42

>  <PEOE_VSA8>
31.39

>  <PEOE_VSA9>
6.61

>  <PEOE_VSA10>
0

>  <PEOE_VSA11>
0

>  <PEOE_VSA12>
0

>  <PEOE_VSA13>
0

>  <SMR_VSA1>
9.09

>  <SMR_VSA2>
0

>  <SMR_VSA3>
9.76

>  <SMR_VSA4>
0

>  <SMR_VSA5>
6.42

>  <SMR_VSA6>
38

>  <SMR_VSA7>
0

>  <SMR_VSA8>
0

>  <SMR_VSA9>
0

>  <SlogP_VSA1>
5.09

>  <SlogP_VSA2>
42.67

>  <SlogP_VSA3>
9.09

>  <SlogP_VSA4>
0

>  <SlogP_VSA5>
6.42

>  <SlogP_VSA6>
0

>  <SlogP_VSA7>
0

>  <SlogP_VSA8>
0

>  <SlogP_VSA9>
0

>  <SlogP_VSA10>
0

>  <SlogP_VSA11>
0

>  <EState_VSA1>
7.67

>  <EState_VSA2>
0

>  <EState_VSA3>
31.46

>  <EState_VSA4>
12.97

>  <EState_VSA5>
0

>  <EState_VSA6>
4.67

>  <EState_VSA7>
0

>  <EState_VSA8>
5.09

>  <EState_VSA9>
27.73

>  <EState_VSA10>
4.57

>  <VSA_EState1>
19.17

>  <VSA_EState2>
0

>  <VSA_EState3>
2.91

>  <VSA_EState4>
0

>  <VSA_EState5>
0.85

>  <VSA_EState6>
0

>  <VSA_EState7>
0.89

>  <VSA_EState8>
2.31

>  <VSA_EState9>
-2.84

>  <apol>
33.49

>  <bpol>
28.79

>  <nRing>
1

>  <nHRing>
1

>  <naRing>
0

>  <naHRing>
0

>  <nARing 2>
1

>  <nAHRing 2>
1

>  <nFRing>
0

>  <nFHRing>
0

>  <nFaRing>
0

>  <nFaHRing>
0

>  <nFARing 2>
0

>  <nFAHRing 2>
0

>  <nRot>
5

>  <SLogP>
1.88

>  <SMR>
59.19

>  <TopoPSA(NO)>
41.57

>  <TopoPSA>
51.38

>  <JGI1>
0.21

>  <JGI2>
0.11

>  <JGI3>
0.05

>  <JGI4>
0.03

>  <JGI5>
0.02

>  <Diameter>
7

>  <Radius>
4

>  <TMWC10>
95.91

>  <TSRW10>
45.19

>  <MW>
260.02

>  <AMW>
8.97

>  <WPath>
301

>  <WPol>
19

>  <Zagreb1>
64

>  <Zagreb2>
72

>  <mZagreb2>
3.42

>  <yes>


>  <nAR-cont>
0.816016

>  <nHA-cont>
0.887625254

>  <MWHBN>
0.186044946

>  <MWHBN-cont>
0.992838383

>  <TPSA-cont>
0.641335695

>  <pka_cont>
0.97

>  <yes.1>


>  <BBB_SCORE>
4.960570219

>  <MMFF94 Energy>
-163.59

$$$$
Compound 2606
Actelion Java MolfileCreator 2.0

  0  0  0  0  0  0              0 V3000
M  V30 BEGIN CTAB
M  V30 COUNTS 35 35 0 0 0
M  V30 BEGIN ATOM
M  V30 1 Cl 2.9865 -4.3159 0.0 0
M  V30 2 C 1.5788 -3.2498 0.2512 0
M  V30 3 C 1.5193 -2.1819 -0.8432 0
M  V30 4 N 0.4204 -1.2204 -0.7173 0
M  V30 5 P 0.4274 -0.172 0.5426 0 CFG=2
M  V30 6 C -0.8624 -1.7092 -1.2069 0
M  V30 7 O 1.7424 -0.0485 1.2525 0
M  V30 8 O -0.7046 -0.7539 1.5371 0
M  V30 9 N -0.1444 1.269 -0.0237 0
M  V30 10 C -1.7809 -2.1856 -0.0828 0
M  V30 11 C -1.9577 -1.1109 0.9777 0
M  V30 12 C 0.6647 1.9055 -1.0804 0
M  V30 13 C -0.6103 2.2363 0.9884 0
M  V30 14 C -0.0616 2.9143 -1.9805 0
M  V30 15 C 0.4527 2.7364 1.9749 0
M  V30 16 Cl -1.4908 2.1978 -2.7682 0
M  V30 17 Cl -0.2386 4.0001 3.0291 0
M  V30 18 H 0.6949 -3.8908 0.233 0
M  V30 19 H 1.6737 -2.8091 1.2473 0
M  V30 20 H 2.4597 -1.6158 -0.8387 0
M  V30 21 H 1.4849 -2.6593 -1.831 0
M  V30 22 H -1.3594 -0.8877 -1.7366 0
M  V30 23 H -0.7432 -2.5061 -1.9504 0
M  V30 24 H -2.7581 -2.456 -0.4981 0
M  V30 25 H -1.3654 -3.0862 0.38 0
M  V30 26 H -2.5904 -1.4879 1.7874 0
M  V30 27 H -2.448 -0.2236 0.5642 0
M  V30 28 H 1.0553 1.1248 -1.7448 0
M  V30 29 H 1.5509 2.3809 -0.6448 0
M  V30 30 H -1.4162 1.7653 1.5644 0
M  V30 31 H -1.0949 3.0873 0.4974 0
M  V30 32 H 0.6107 3.2493 -2.7765 0
M  V30 33 H -0.3868 3.8006 -1.4293 0
M  V30 34 H 1.3089 3.1826 1.4633 0
M  V30 35 H 0.8055 1.935 2.6282 0
M  V30 END ATOM
M  V30 BEGIN BOND
M  V30 1 1 1 2
M  V30 2 1 2 3
M  V30 3 1 3 4
M  V30 4 1 4 5
M  V30 5 1 4 6
M  V30 6 2 5 7
M  V30 7 1 5 8
M  V30 8 1 5 9
M  V30 9 1 6 10
M  V30 10 1 8 11
M  V30 11 1 9 12
M  V30 12 1 9 13
M  V30 13 1 12 14
M  V30 14 1 13 15
M  V30 15 1 14 16
M  V30 16 1 15 17
M  V30 17 1 10 11
M  V30 18 1 2 18
M  V30 19 1 2 19
M  V30 20 1 3 20
M  V30 21 1 3 21
M  V30 22 1 6 22
M  V30 23 1 6 23
M  V30 24 1 10 24
M  V30 25 1 10 25
M  V30 26 1 11 26
M  V30 27 1 11 27
M  V30 28 1 12 28
M  V30 29 1 12 29
M  V30 30 1 13 30
M  V30 31 1 13 31
M  V30 32 1 14 32
M  V30 33 1 14 33
M  V30 34 1 15 34
M  V30 35 1 15 35
M  V30 END BOND
M  V30 BEGIN COLLECTION
M  V30 MDLV30/STERAC1 ATOMS=(1 5)
M  V30 END COLLECTION
M  V30 END CTAB
M  END
>  <Column 1>
3248

>  <level_0>
5407

>  <index>
5408

>  <Unnamed: 0>
5408

>  <NO.>
5420

>  <Name>
trofosfamide

>  <IUPAC_name>
n-n-3-tris(2-chloroethyl)-2-oxo-1-3-2lambda5-oxazaphosphinan-2-amine

>  <SMILES>
O=P1(N(CCCl)CCCl)OCCCN1CCCl

>  <CID>
65702

>  <logBB>


>  <BBB+/BBB->
BBB-

>  <Inchi>
InChI=1S/C9H18Cl3N2O2P/c10-2-6-13-5-1-9-16-17(13-15)14(7-3-11)8-4-12/h1-9H2

>  <threshold>


>  <reference>
R14|

>  <group>
C

>  <Class>
-1

>  <ABC>
12.06

>  <ABCGG>
11.59

>  <nAcid>
0

>  <nBase>
0

>  <nAromAtom>
0

>  <nAromBond>
0

>  <nAtom>
35

>  <nHeavyAtom>
17

>  <nSpiro>
0

>  <nBridgehead>
0

>  <nHetero>
8

>  <nN>
2

>  <nO>
2

>  <nF>
0

>  <BalabanJ>
2.75

>  <BertzCT>
262.63

>  <nBonds>
35

>  <nBondsO>
17

>  <nBondsS>
34

>  <nBondsD>
1

>  <nBondsT>
0

>  <nBondsA>
0

>  <nBondsM>
1

>  <nBondsKS>
34

>  <nBondsKD>
1

>  <RNCG>
0.22

>  <RPCG>
0.25

>  <FCSP3>
1

>  <SZ>
28

>  <Sm>
26.94

>  <Sv>
21.28

>  <Sse>
35.69

>  <Sp>
24.55

>  <Si>
40.12

>  <MZ>
0.8

>  <Mm>
0.77

>  <Mv>
0.61

>  <Mse>
1.02

>  <Mp>
0.7

>  <Mi>
1.15

>  <NsCH3>
0

>  <NdCH2>
0

>  <NssCH2>
9

>  <NtCH>
0

>  <NdsCH>
0

>  <NaaCH>
0

>  <NsssCH>
0

>  <NddC>
0

>  <NtsC>
0

>  <NdssC>
0

>  <NaasC>
0

>  <NaaaC>
0

>  <NssssC>
0

>  <NsNH3>
0

>  <NsNH2>
0

>  <NssNH2>
0

>  <NdNH>
0

>  <NssNH>
0

>  <NaaNH>
0

>  <NtN>
0

>  <NsssNH>
0

>  <NdsN>
0

>  <NaaN>
0

>  <NsssN>
2

>  <NddsN>
0

>  <NaasN>
0

>  <NssssN>
0

>  <NsOH>
0

>  <NdO>
1

>  <NssO>
1

>  <NaaO>
0

>  <NsF>
0

>  <NsSiH3>
0

>  <NssSiH2>
0

>  <NsssSiH>
0

>  <NssssSi>
0

>  <NsPH2>
0

>  <NssPH>
0

>  <NsssP>
0

>  <NdsssP>
1

>  <NsssssP>
0

>  <NsSH>
0

>  <NdS>
0

>  <NssS>
0

>  <NaaS>
0

>  <NdssS>
0

>  <NddssS>
0

>  <NsCl>
3

>  <NsBr>
0

>  <NsI>
0

>  <fragCpx>
17.08

>  <fMF>
0.17

>  <nHBAcc>
2

>  <nHBDon>
0

>  <Kier1>
15.06

>  <Kier2>
7.44

>  <Lipinski>
1

>  <GhoseFilter>
1

>  <FilterItLogS>
-3.4

>  <VMcGowan>
215.69

>  <LabuteASA>
117.68

>  <PEOE_VSA1>
4.52

>  <PEOE_VSA2>
4.57

>  <PEOE_VSA3>
9.34

>  <PEOE_VSA4>
0

>  <PEOE_VSA5>
34.8

>  <PEOE_VSA6>
0

>  <PEOE_VSA7>
6.42

>  <PEOE_VSA8>
43.82

>  <PEOE_VSA9>
6.61

>  <PEOE_VSA10>
0

>  <PEOE_VSA11>
0

>  <PEOE_VSA12>
0

>  <PEOE_VSA13>
0

>  <SMR_VSA1>
9.09

>  <SMR_VSA2>
0

>  <SMR_VSA3>
9.34

>  <SMR_VSA4>
0

>  <SMR_VSA5>
6.42

>  <SMR_VSA6>
50.43

>  <SMR_VSA7>
0

>  <SMR_VSA8>
0

>  <SMR_VSA9>
0

>  <SlogP_VSA1>
0

>  <SlogP_VSA2>
59.77

>  <SlogP_VSA3>
9.09

>  <SlogP_VSA4>
0

>  <SlogP_VSA5>
6.42

>  <SlogP_VSA6>
0

>  <SlogP_VSA7>
0

>  <SlogP_VSA8>
0

>  <SlogP_VSA9>
0

>  <SlogP_VSA10>
0

>  <SlogP_VSA11>
0

>  <EState_VSA1>
7.67

>  <EState_VSA2>
0

>  <EState_VSA3>
43.88

>  <EState_VSA4>
12.97

>  <EState_VSA5>
0

>  <EState_VSA6>
4.67

>  <EState_VSA7>
4.67

>  <EState_VSA8>
0

>  <EState_VSA9>
39.33

>  <EState_VSA10>
4.57

>  <VSA_EState1>
21.99

>  <VSA_EState2>
0

>  <VSA_EState3>
0

>  <VSA_EState4>
0

>  <VSA_EState5>
1.24

>  <VSA_EState6>
0

>  <VSA_EState7>
0.87

>  <VSA_EState8>
2.82

>  <VSA_EState9>
-2.97

>  <apol>
41.01

>  <bpol>
33.45

>  <nRing>
1

>  <nHRing>
1

>  <naRing>
0

>  <naHRing>
0

>  <nARing 2>
1

>  <nAHRing 2>
1

>  <nFRing>
0

>  <nFHRing>
0

>  <nFaRing>
0

>  <nFaHRing>
0

>  <nFARing 2>
0

>  <nFAHRing 2>
0

>  <nRot>
7

>  <SLogP>
2.84

>  <SMR>
73.48

>  <TopoPSA(NO)>
32.78

>  <TopoPSA>
42.59

>  <JGI1>
0.21

>  <JGI2>
0.12

>  <JGI3>
0.06

>  <JGI4>
0.04

>  <JGI5>
0.02

>  <Diameter>
8

>  <Radius>
4

>  <TMWC10>
104.59

>  <TSRW10>
49.33

>  <MW>
322.02

>  <AMW>
9.2

>  <WPath>
500

>  <WPol>
26

>  <Zagreb1>
78

>  <Zagreb2>
90

>  <mZagreb2>
4.21

>  <yes>


>  <nAR-cont>
0.816016

>  <nHA-cont>
0.976740822

>  <MWHBN>
0.111452181

>  <MWHBN-cont>
0.79027739

>  <TPSA-cont>
0.702695353

>  <pka_cont>
0.97

>  <yes.1>


>  <BBB_SCORE>
4.868563614

>  <MMFF94 Energy>
-134.64

$$$$
Compound 2607
Actelion Java MolfileCreator 2.0

  0  0  0  0  0  0              0 V3000
M  V30 BEGIN CTAB
M  V30 COUNTS 41 42 0 0 0
M  V30 BEGIN ATOM
M  V30 1 S -2.0977 1.6779 -0.7548 0
M  V30 2 O -1.9875 2.563 -1.9004 0
M  V30 3 O -3.3168 1.6394 0.0328 0
M  V30 4 C -1.8004 0.0176 -1.3136 0
M  V30 5 C -0.7542 2.0865 0.3342 0
M  V30 6 C -1.9475 -1.0404 -0.4176 0
M  V30 7 C -1.4354 -0.2232 -2.6355 0
M  V30 8 C 0.5167 2.2969 -0.1997 0
M  V30 9 C -0.9737 2.2091 1.7043 0
M  V30 10 C -1.7108 -2.3502 -0.8505 0
M  V30 11 C -1.2032 -1.5378 -3.0513 0
M  V30 12 C 1.5788 2.6168 0.6532 0
M  V30 13 C 0.0986 2.5296 2.5425 0
M  V30 14 C -1.3449 -2.6255 -2.1743 0
M  V30 15 C 1.3894 2.7452 2.0355 0
M  V30 16 N -1.0769 -3.8947 -2.6483 0
M  V30 17 N 2.4097 3.0386 2.9181 0
M  V30 18 C -1.2815 -5.1256 -1.9061 0
M  V30 19 C 3.7776 3.3076 2.5155 0
M  V30 20 S -3.0474 -5.7316 -1.8808 0
M  V30 21 S 4.9304 3.5979 3.96 0
M  V30 22 O -3.0409 -7.2281 -1.1712 0
M  V30 23 O -3.5002 -6.0355 -3.446 0
M  V30 24 O 6.3016 4.3116 3.37 0
M  V30 25 O 4.2401 4.7598 4.9193 0
M  V30 26 H -2.2473 -0.862 0.6127 0
M  V30 27 H -1.3291 0.5916 -3.3479 0
M  V30 28 H 0.6922 2.2214 -1.2704 0
M  V30 29 H -1.9628 2.0612 2.1317 0
M  V30 30 H -1.8242 -3.1474 -0.1218 0
M  V30 31 H -0.9115 -1.709 -4.0856 0
M  V30 32 H 2.5579 2.7714 0.2085 0
M  V30 33 H -0.086 2.6149 3.6115 0
M  V30 34 H -0.9306 -3.9978 -3.6464 0
M  V30 35 H 2.1682 3.2154 3.8881 0
M  V30 36 H -0.9323 -5.0596 -0.8713 0
M  V30 37 H -0.7138 -5.9262 -2.3913 0
M  V30 38 H 3.8266 4.218 1.9098 0
M  V30 39 H 4.2091 2.4687 1.9611 0
M  V30 40 H -3.2968 -6.9831 -3.6246 0
M  V30 41 H 4.4826 5.6356 4.5358 0
M  V30 END ATOM
M  V30 BEGIN BOND
M  V30 1 2 1 2
M  V30 2 2 1 3
M  V30 3 1 1 4
M  V30 4 1 1 5
M  V30 5 2 4 6
M  V30 6 1 4 7
M  V30 7 2 5 8
M  V30 8 1 5 9
M  V30 9 1 6 10
M  V30 10 2 7 11
M  V30 11 1 8 12
M  V30 12 2 9 13
M  V30 13 2 10 14
M  V30 14 2 12 15
M  V30 15 1 14 16
M  V30 16 1 15 17
M  V30 17 1 16 18
M  V30 18 1 17 19
M  V30 19 1 18 20
M  V30 20 1 19 21
M  V30 21 2 20 22
M  V30 22 1 20 23
M  V30 23 2 21 24
M  V30 24 1 21 25
M  V30 25 1 11 14
M  V30 26 1 13 15
M  V30 27 1 6 26
M  V30 28 1 7 27
M  V30 29 1 8 28
M  V30 30 1 9 29
M  V30 31 1 10 30
M  V30 32 1 11 31
M  V30 33 1 12 32
M  V30 34 1 13 33
M  V30 35 1 16 34
M  V30 36 1 17 35
M  V30 37 1 18 36
M  V30 38 1 18 37
M  V30 39 1 19 38
M  V30 40 1 19 39
M  V30 41 1 23 40
M  V30 42 1 25 41
M  V30 END BOND
M  V30 END CTAB
M  END
>  <Column 1>
3250

>  <level_0>
5409

>  <index>
5410

>  <Unnamed: 0>
5410

>  <NO.>
5422

>  <Name>
sulfoxone

>  <IUPAC_name>
[4-[4-(sulfinomethylamino)phenyl]sulfonylanilino]methanesulfinic acid

>  <SMILES>
O=S(O)CNc1ccc(S(=O)(=O)c2ccc(NCS(=O)O)cc2)cc1

>  <CID>
5351

>  <logBB>


>  <BBB+/BBB->
BBB-

>  <Inchi>
InChI=1S/C14H16N2O6S3/c17-23(18)9-15-11-1-5-13(6-2-11)25(21-22)14-7-3-12(4-8-14)16-10-24(19)20/h1-8-15-16H-9-10H2-(H-17-18)(H-19-20)

>  <threshold>


>  <reference>
R14|R23|

>  <group>
C

>  <Class>
-1

>  <ABC>
19.02

>  <ABCGG>
14.77

>  <nAcid>
2

>  <nBase>
0

>  <nAromAtom>
12

>  <nAromBond>
12

>  <nAtom>
41

>  <nHeavyAtom>
25

>  <nSpiro>
0

>  <nBridgehead>
0

>  <nHetero>
11

>  <nN>
2

>  <nO>
6

>  <nF>
0

>  <BalabanJ>
1.75

>  <BertzCT>
798.95

>  <nBonds>
42

>  <nBondsO>
26

>  <nBondsS>
26

>  <nBondsD>
4

>  <nBondsT>
0

>  <nBondsA>
12

>  <nBondsM>
16

>  <nBondsKS>
32

>  <nBondsKD>
10

>  <RNCG>
0.15

>  <RPCG>
0.09

>  <FCSP3>
0.14

>  <SZ>
35

>  <Sm>
33.67

>  <Sv>
27.7

>  <Sse>
42.64

>  <Sp>
29.8

>  <Si>
45.92

>  <MZ>
0.85

>  <Mm>
0.82

>  <Mv>
0.68

>  <Mse>
1.04

>  <Mp>
0.73

>  <Mi>
1.12

>  <NsCH3>
0

>  <NdCH2>
0

>  <NssCH2>
2

>  <NtCH>
0

>  <NdsCH>
0

>  <NaaCH>
8

>  <NsssCH>
0

>  <NddC>
0

>  <NtsC>
0

>  <NdssC>
0

>  <NaasC>
4

>  <NaaaC>
0

>  <NssssC>
0

>  <NsNH3>
0

>  <NsNH2>
0

>  <NssNH2>
0

>  <NdNH>
0

>  <NssNH>
2

>  <NaaNH>
0

>  <NtN>
0

>  <NsssNH>
0

>  <NdsN>
0

>  <NaaN>
0

>  <NsssN>
0

>  <NddsN>
0

>  <NaasN>
0

>  <NssssN>
0

>  <NsOH>
2

>  <NdO>
4

>  <NssO>
0

>  <NaaO>
0

>  <NsF>
0

>  <NsSiH3>
0

>  <NssSiH2>
0

>  <NsssSiH>
0

>  <NssssSi>
0

>  <NsPH2>
0

>  <NssPH>
0

>  <NsssP>
0

>  <NdsssP>
0

>  <NsssssP>
0

>  <NsSH>
0

>  <NdS>
0

>  <NssS>
0

>  <NaaS>
0

>  <NdssS>
2

>  <NddssS>
1

>  <NsCl>
0

>  <NsBr>
0

>  <NsI>
0

>  <fragCpx>
76.11

>  <fMF>
0.32

>  <nHBAcc>
6

>  <nHBDon>
4

>  <Kier1>
21.3

>  <Kier2>
9.8

>  <Lipinski>
1

>  <GhoseFilter>
1

>  <FilterItLogS>
-3.35

>  <VMcGowan>
264.83

>  <LabuteASA>
149.7

>  <PEOE_VSA1>
19.74

>  <PEOE_VSA2>
0

>  <PEOE_VSA3>
16.84

>  <PEOE_VSA4>
0

>  <PEOE_VSA5>
0

>  <PEOE_VSA6>
0

>  <PEOE_VSA7>
48.53

>  <PEOE_VSA8>
11.37

>  <PEOE_VSA9>
9.79

>  <PEOE_VSA10>
11.75

>  <PEOE_VSA11>
22.16

>  <PEOE_VSA12>
9.84

>  <PEOE_VSA13>
0

>  <SMR_VSA1>
25.94

>  <SMR_VSA2>
0

>  <SMR_VSA3>
0

>  <SMR_VSA4>
0

>  <SMR_VSA5>
9.79

>  <SMR_VSA6>
22.39

>  <SMR_VSA7>
48.53

>  <SMR_VSA8>
0

>  <SMR_VSA9>
0

>  <SlogP_VSA1>
10.63

>  <SlogP_VSA2>
37.69

>  <SlogP_VSA3>
32

>  <SlogP_VSA4>
0

>  <SlogP_VSA5>
0

>  <SlogP_VSA6>
58.32

>  <SlogP_VSA7>
0

>  <SlogP_VSA8>
0

>  <SlogP_VSA9>
0

>  <SlogP_VSA10>
11.37

>  <SlogP_VSA11>
0

>  <EState_VSA1>
32

>  <EState_VSA2>
21.54

>  <EState_VSA3>
11.37

>  <EState_VSA4>
0

>  <EState_VSA5>
48.53

>  <EState_VSA6>
0

>  <EState_VSA7>
0

>  <EState_VSA8>
10.63

>  <EState_VSA9>
9.11

>  <EState_VSA10>
16.84

>  <VSA_EState1>
63.8

>  <VSA_EState2>
0.17

>  <VSA_EState3>
5.39

>  <VSA_EState4>
1.05

>  <VSA_EState5>
-0.31

>  <VSA_EState6>
11.63

>  <VSA_EState7>
0

>  <VSA_EState8>
0

>  <VSA_EState9>
-3.71

>  <apol>
49.76

>  <bpol>
32.96

>  <nRing>
2

>  <nHRing>
0

>  <naRing>
2

>  <naHRing>
0

>  <nARing 2>
0

>  <nAHRing 2>
0

>  <nFRing>
0

>  <nFHRing>
0

>  <nFaRing>
0

>  <nFaHRing>
0

>  <nFARing 2>
0

>  <nFAHRing 2>
0

>  <nRot>
8

>  <SLogP>
1.7

>  <SMR>
96.86

>  <TopoPSA(NO)>
132.8

>  <TopoPSA>
179.6

>  <JGI1>
0.27

>  <JGI2>
0.1

>  <JGI3>
0.04

>  <JGI4>
0.04

>  <JGI5>
0.03

>  <Diameter>
16

>  <Radius>
8

>  <TMWC10>
125

>  <TSRW10>
59.4

>  <MW>
404.02

>  <AMW>
9.85

>  <WPath>
1768

>  <WPol>
36

>  <Zagreb1>
124

>  <Zagreb2>
140

>  <mZagreb2>
5.5

>  <yes>


>  <nAR-cont>
0.336376

>  <nHA-cont>
0.921834225

>  <MWHBN>
0.497506281

>  <MWHBN-cont>
0

>  <TPSA-cont>
0

>  <pka_cont>
0.97

>  <yes.1>


>  <BBB_SCORE>
1.743210225

>  <MMFF94 Energy>
88.632

$$$$
Compound 2608
Actelion Java MolfileCreator 2.0

  0  0  0  0  0  0              0 V3000
M  V30 BEGIN CTAB
M  V30 COUNTS 26 26 0 0 0
M  V30 BEGIN ATOM
M  V30 1 Cl 0.2428 2.025 3.9719 0
M  V30 2 C 0.673 1.4336 2.3471 0
M  V30 3 C -0.2135 0.2547 1.9418 0
M  V30 4 N 0.2224 -0.3372 0.6486 0
M  V30 5 C -0.1624 0.1788 -0.6155 0
M  V30 6 C 1.1027 -1.5209 0.8048 0
M  V30 7 C -1.0601 1.4149 -0.7391 0
M  V30 8 C 0.2135 -0.3387 -1.8019 0
M  V30 9 C 0.3686 -2.8514 0.6009 0
M  V30 10 O -1.4527 2.0683 0.2246 0
M  V30 11 N -1.4162 1.8108 -1.9996 0
M  V30 12 N -0.1775 0.1614 -3.0119 0
M  V30 13 Cl -0.7301 -3.2411 1.9479 0
M  V30 14 C -0.9997 1.2367 -3.1583 0
M  V30 15 O -1.3313 1.6551 -4.2614 0
M  V30 16 H 0.5942 2.2734 1.6526 0
M  V30 17 H 1.7245 1.1308 2.3812 0
M  V30 18 H -1.2747 0.5226 1.9144 0
M  V30 19 H -0.1511 -0.5057 2.7302 0
M  V30 20 H 1.9277 -1.4509 0.0856 0
M  V30 21 H 1.5906 -1.5124 1.7883 0
M  V30 22 H 0.8584 -1.2052 -1.8766 0
M  V30 23 H 1.0952 -3.6673 0.5422 0
M  V30 24 H -0.225 -2.8561 -0.3169 0
M  V30 25 H -2.0149 2.6176 -2.0731 0
M  V30 26 H 0.1352 -0.2681 -3.8751 0
M  V30 END ATOM
M  V30 BEGIN BOND
M  V30 1 1 1 2
M  V30 2 1 2 3
M  V30 3 1 3 4
M  V30 4 1 4 5
M  V30 5 1 4 6
M  V30 6 1 5 7
M  V30 7 2 5 8
M  V30 8 1 6 9
M  V30 9 2 7 10
M  V30 10 1 7 11
M  V30 11 1 8 12
M  V30 12 1 9 13
M  V30 13 1 11 14
M  V30 14 2 14 15
M  V30 15 1 12 14
M  V30 16 1 2 16
M  V30 17 1 2 17
M  V30 18 1 3 18
M  V30 19 1 3 19
M  V30 20 1 6 20
M  V30 21 1 6 21
M  V30 22 1 8 22
M  V30 23 1 9 23
M  V30 24 1 9 24
M  V30 25 1 11 25
M  V30 26 1 12 26
M  V30 END BOND
M  V30 END CTAB
M  END
>  <Column 1>
3258

>  <level_0>
5417

>  <index>
5418

>  <Unnamed: 0>
5418

>  <NO.>
5430

>  <Name>
uramustine

>  <IUPAC_name>
5-[bis(2-chloroethyl)amino]-1h-pyrimidine-2-4-dione

>  <SMILES>
O=c1[nH]cc(N(CCCl)CCCl)c(=O)[nH]1

>  <CID>
6194

>  <logBB>


>  <BBB+/BBB->
BBB-

>  <Inchi>
InChI=1S/C8H11Cl2N3O2/c9-1-3-13(4-2-10)6-5-11-8(15)12-7(6)14/h5H-1-4H2-(H2-11-12-14-15)

>  <threshold>


>  <reference>
R14|R23|

>  <group>
C

>  <Class>
-1

>  <ABC>
10.74

>  <ABCGG>
10.15

>  <nAcid>
0

>  <nBase>
0

>  <nAromAtom>
6

>  <nAromBond>
6

>  <nAtom>
26

>  <nHeavyAtom>
15

>  <nSpiro>
0

>  <nBridgehead>
0

>  <nHetero>
7

>  <nN>
3

>  <nO>
2

>  <nF>
0

>  <BalabanJ>
2.5

>  <BertzCT>
408.84

>  <nBonds>
26

>  <nBondsO>
15

>  <nBondsS>
18

>  <nBondsD>
2

>  <nBondsT>
0

>  <nBondsA>
6

>  <nBondsM>
8

>  <nBondsKS>
23

>  <nBondsKD>
3

>  <RNCG>
0.21

>  <RPCG>
0.19

>  <FCSP3>
0.5

>  <SZ>
21.67

>  <Sm>
20.99

>  <Sv>
16.87

>  <Sse>
27.06

>  <Sp>
17.94

>  <Si>
29.88

>  <MZ>
0.83

>  <Mm>
0.81

>  <Mv>
0.65

>  <Mse>
1.04

>  <Mp>
0.69

>  <Mi>
1.15

>  <NsCH3>
0

>  <NdCH2>
0

>  <NssCH2>
4

>  <NtCH>
0

>  <NdsCH>
0

>  <NaaCH>
1

>  <NsssCH>
0

>  <NddC>
0

>  <NtsC>
0

>  <NdssC>
0

>  <NaasC>
1

>  <NaaaC>
0

>  <NssssC>
0

>  <NsNH3>
0

>  <NsNH2>
0

>  <NssNH2>
0

>  <NdNH>
0

>  <NssNH>
0

>  <NaaNH>
2

>  <NtN>
0

>  <NsssNH>
0

>  <NdsN>
0

>  <NaaN>
0

>  <NsssN>
1

>  <NddsN>
0

>  <NaasN>
0

>  <NssssN>
0

>  <NsOH>
0

>  <NdO>
2

>  <NssO>
0

>  <NaaO>
0

>  <NsF>
0

>  <NsSiH3>
0

>  <NssSiH2>
0

>  <NsssSiH>
0

>  <NssssSi>
0

>  <NsPH2>
0

>  <NssPH>
0

>  <NsssP>
0

>  <NdsssP>
0

>  <NsssssP>
0

>  <NsSH>
0

>  <NdS>
0

>  <NssS>
0

>  <NaaS>
0

>  <NdssS>
0

>  <NddssS>
0

>  <NsCl>
2

>  <NsBr>
0

>  <NsI>
0

>  <fragCpx>
15.07

>  <fMF>
0.23

>  <nHBAcc>
3

>  <nHBDon>
2

>  <Kier1>
13.07

>  <Kier2>
6.55

>  <Lipinski>
1

>  <GhoseFilter>
1

>  <FilterItLogS>
-3.51

>  <VMcGowan>
165.98

>  <LabuteASA>
96.02

>  <PEOE_VSA1>
9.88

>  <PEOE_VSA2>
9.78

>  <PEOE_VSA3>
4.79

>  <PEOE_VSA4>
0

>  <PEOE_VSA5>
23.2

>  <PEOE_VSA6>
0

>  <PEOE_VSA7>
0

>  <PEOE_VSA8>
31.05

>  <PEOE_VSA9>
0

>  <PEOE_VSA10>
5.69

>  <PEOE_VSA11>
0

>  <PEOE_VSA12>
0

>  <PEOE_VSA13>
5.56

>  <SMR_VSA1>
0

>  <SMR_VSA2>
0

>  <SMR_VSA3>
9.97

>  <SMR_VSA4>
0

>  <SMR_VSA5>
0

>  <SMR_VSA6>
29.75

>  <SMR_VSA7>
27.03

>  <SMR_VSA8>
0

>  <SMR_VSA9>
0

>  <SlogP_VSA1>
16.15

>  <SlogP_VSA2>
34.82

>  <SlogP_VSA3>
0

>  <SlogP_VSA4>
0

>  <SlogP_VSA5>
0

>  <SlogP_VSA6>
15.79

>  <SlogP_VSA7>
0

>  <SlogP_VSA8>
0

>  <SlogP_VSA9>
0

>  <SlogP_VSA10>
5.69

>  <SlogP_VSA11>
0

>  <EState_VSA1>
11.25

>  <EState_VSA2>
0

>  <EState_VSA3>
30.54

>  <EState_VSA4>
0

>  <EState_VSA5>
6.2

>  <EState_VSA6>
4.9

>  <EState_VSA7>
0

>  <EState_VSA8>
9.97

>  <EState_VSA9>
23.2

>  <EState_VSA10>
9.59

>  <VSA_EState1>
0

>  <VSA_EState2>
28.48

>  <VSA_EState3>
0

>  <VSA_EState4>
-0.59

>  <VSA_EState5>
0.77

>  <VSA_EState6>
0

>  <VSA_EState7>
1.36

>  <VSA_EState8>
1.01

>  <VSA_EState9>
0

>  <apol>
29.96

>  <bpol>
16.64

>  <nRing>
1

>  <nHRing>
1

>  <naRing>
1

>  <naHRing>
1

>  <nARing 2>
0

>  <nAHRing 2>
0

>  <nFRing>
0

>  <nFHRing>
0

>  <nFaRing>
0

>  <nFaHRing>
0

>  <nFARing 2>
0

>  <nFAHRing 2>
0

>  <nRot>
5

>  <SLogP>
0.35

>  <SMR>
61.34

>  <TopoPSA(NO)>
68.96

>  <TopoPSA>
68.96

>  <JGI1>
0.2

>  <JGI2>
0.09

>  <JGI3>
0.06

>  <JGI4>
0.04

>  <JGI5>
0.03

>  <Diameter>
8

>  <Radius>
4

>  <TMWC10>
98.02

>  <TSRW10>
46.22

>  <MW>
251.02

>  <AMW>
9.65

>  <WPath>
374

>  <WPol>
20

>  <Zagreb1>
68

>  <Zagreb2>
76

>  <mZagreb2>
3.64

>  <yes>


>  <nAR-cont>
0.336376

>  <nHA-cont>
0.92539861

>  <MWHBN>
0.315584629

>  <MWHBN-cont>
0.791816547

>  <TPSA-cont>
0.518616378

>  <pka_cont>
0.97

>  <yes.1>


>  <BBB_SCORE>
3.971732187

>  <MMFF94 Energy>
-6.8569

$$$$
Compound 2609
Actelion Java MolfileCreator 2.0

  0  0  0  0  0  0              0 V3000
M  V30 BEGIN CTAB
M  V30 COUNTS 37 38 0 0 0
M  V30 BEGIN ATOM
M  V30 1 O -1.8109 0.7083 3.7033 0
M  V30 2 C -0.4162 1.0067 3.823 0 CFG=2
M  V30 3 C -0.1405 2.4952 3.5667 0
M  V30 4 C 0.4276 0.0627 2.9276 0
M  V30 5 O 1.1622 2.8748 3.9991 0
M  V30 6 N 0.3872 0.3059 1.4678 0
M  V30 7 C 1.3952 -0.5459 0.7929 0
M  V30 8 C -0.9416 0.0041 0.888 0
M  V30 9 C 1.413 -0.381 -0.7429 0
M  V30 10 C -0.9948 0.167 -0.6504 0
M  V30 11 N 0.0717 -0.6 -1.313 0
M  V30 12 C -0.0202 -0.9094 -2.6664 0
M  V30 13 C -0.8738 -0.2237 -3.5444 0
M  V30 14 C 0.7363 -1.9586 -3.2136 0
M  V30 15 C -0.955 -0.5541 -4.9029 0
M  V30 16 C 0.6604 -2.2976 -4.5695 0
M  V30 17 C -0.1851 -1.5913 -5.4163 0
M  V30 18 H -2.294 1.3012 4.3034 0
M  V30 19 H -0.1441 0.7786 4.8614 0
M  V30 20 H -0.8685 3.1161 4.1013 0
M  V30 21 H -0.2452 2.746 2.5065 0
M  V30 22 H 0.1303 -0.9739 3.1353 0
M  V30 23 H 1.4691 0.169 3.259 0
M  V30 24 H 1.1916 2.7922 4.967 0
M  V30 25 H 2.3945 -0.2935 1.1683 0
M  V30 26 H 1.214 -1.6031 1.0307 0
M  V30 27 H -1.2418 -1.0205 1.1447 0
M  V30 28 H -1.6943 0.6847 1.2972 0
M  V30 29 H 1.7516 0.6306 -1.0018 0
M  V30 30 H 2.1545 -1.0815 -1.1412 0
M  V30 31 H -1.9818 -0.177 -0.9837 0
M  V30 32 H -0.8984 1.2298 -0.907 0
M  V30 33 H -1.4818 0.6037 -3.1909 0
M  V30 34 H 1.3801 -2.5555 -2.5733 0
M  V30 35 H -1.6206 0.0045 -5.5552 0
M  V30 36 H 1.2573 -3.1193 -4.955 0
M  V30 37 H -0.248 -1.8509 -6.4691 0
M  V30 END ATOM
M  V30 BEGIN BOND
M  V30 1 1 1 2
M  V30 2 1 2 3
M  V30 3 1 2 4
M  V30 4 1 3 5
M  V30 5 1 4 6
M  V30 6 1 6 7
M  V30 7 1 6 8
M  V30 8 1 7 9
M  V30 9 1 8 10
M  V30 10 1 9 11
M  V30 11 1 11 12
M  V30 12 2 12 13
M  V30 13 1 12 14
M  V30 14 1 13 15
M  V30 15 2 14 16
M  V30 16 2 15 17
M  V30 17 1 10 11
M  V30 18 1 16 17
M  V30 19 1 1 18
M  V30 20 1 2 19
M  V30 21 1 3 20
M  V30 22 1 3 21
M  V30 23 1 4 22
M  V30 24 1 4 23
M  V30 25 1 5 24
M  V30 26 1 7 25
M  V30 27 1 7 26
M  V30 28 1 8 27
M  V30 29 1 8 28
M  V30 30 1 9 29
M  V30 31 1 9 30
M  V30 32 1 10 31
M  V30 33 1 10 32
M  V30 34 1 13 33
M  V30 35 1 14 34
M  V30 36 1 15 35
M  V30 37 1 16 36
M  V30 38 1 17 37
M  V30 END BOND
M  V30 BEGIN COLLECTION
M  V30 MDLV30/STERAC1 ATOMS=(1 2)
M  V30 END COLLECTION
M  V30 END CTAB
M  END
>  <Column 1>
3262

>  <level_0>
5421

>  <index>
5422

>  <Unnamed: 0>
5422

>  <NO.>
5434

>  <Name>
dropropizine

>  <IUPAC_name>
3-(4-phenylpiperazin-1-yl)propane-1-2-diol

>  <SMILES>
OCC(O)CN1CCN(c2ccccc2)CC1

>  <CID>
3169

>  <logBB>


>  <BBB+/BBB->
BBB-

>  <Inchi>
InChI=1S/C13H20N2O2/c16-11-13(17)10-14-6-8-15(9-7-14)12-4-2-1-3-5-12/h1-5-13-16-17H-6-11H2

>  <threshold>


>  <reference>
R14|

>  <group>
C

>  <Class>
1

>  <ABC>
12.8

>  <ABCGG>
10.48

>  <nAcid>
0

>  <nBase>
1

>  <nAromAtom>
6

>  <nAromBond>
6

>  <nAtom>
37

>  <nHeavyAtom>
17

>  <nSpiro>
0

>  <nBridgehead>
0

>  <nHetero>
4

>  <nN>
2

>  <nO>
2

>  <nF>
0

>  <BalabanJ>
1.7

>  <BertzCT>
323.45

>  <nBonds>
38

>  <nBondsO>
18

>  <nBondsS>
32

>  <nBondsD>
0

>  <nBondsT>
0

>  <nBondsA>
6

>  <nBondsM>
6

>  <nBondsKS>
35

>  <nBondsKD>
3

>  <RNCG>
0.23

>  <RPCG>
0.12

>  <FCSP3>
0.54

>  <SZ>
21.33

>  <Sm>
19.67

>  <Sv>
21.36

>  <Sse>
36.87

>  <Sp>
23.26

>  <Si>
42.15

>  <MZ>
0.58

>  <Mm>
0.53

>  <Mv>
0.58

>  <Mse>
1

>  <Mp>
0.63

>  <Mi>
1.14

>  <NsCH3>
0

>  <NdCH2>
0

>  <NssCH2>
6

>  <NtCH>
0

>  <NdsCH>
0

>  <NaaCH>
5

>  <NsssCH>
1

>  <NddC>
0

>  <NtsC>
0

>  <NdssC>
0

>  <NaasC>
1

>  <NaaaC>
0

>  <NssssC>
0

>  <NsNH3>
0

>  <NsNH2>
0

>  <NssNH2>
0

>  <NdNH>
0

>  <NssNH>
0

>  <NaaNH>
0

>  <NtN>
0

>  <NsssNH>
0

>  <NdsN>
0

>  <NaaN>
0

>  <NsssN>
2

>  <NddsN>
0

>  <NaasN>
0

>  <NssssN>
0

>  <NsOH>
2

>  <NdO>
0

>  <NssO>
0

>  <NaaO>
0

>  <NsF>
0

>  <NsSiH3>
0

>  <NssSiH2>
0

>  <NsssSiH>
0

>  <NssssSi>
0

>  <NsPH2>
0

>  <NssPH>
0

>  <NsssP>
0

>  <NdsssP>
0

>  <NsssssP>
0

>  <NsSH>
0

>  <NdS>
0

>  <NssS>
0

>  <NaaS>
0

>  <NdssS>
0

>  <NddssS>
0

>  <NsCl>
0

>  <NsBr>
0

>  <NsI>
0

>  <fragCpx>
52.04

>  <fMF>
0.32

>  <nHBAcc>
4

>  <nHBDon>
2

>  <Kier1>
13.43

>  <Kier2>
6.81

>  <Lipinski>
1

>  <GhoseFilter>
1

>  <FilterItLogS>
-1.14

>  <VMcGowan>
191.11

>  <LabuteASA>
102.09

>  <PEOE_VSA1>
15.11

>  <PEOE_VSA2>
4.9

>  <PEOE_VSA3>
0

>  <PEOE_VSA4>
0

>  <PEOE_VSA5>
0

>  <PEOE_VSA6>
18.2

>  <PEOE_VSA7>
12.13

>  <PEOE_VSA8>
38.41

>  <PEOE_VSA9>
12.71

>  <PEOE_VSA10>
0

>  <PEOE_VSA11>
0

>  <PEOE_VSA12>
0

>  <PEOE_VSA13>
0

>  <SMR_VSA1>
10.21

>  <SMR_VSA2>
0

>  <SMR_VSA3>
4.9

>  <SMR_VSA4>
0

>  <SMR_VSA5>
6.1

>  <SMR_VSA6>
44.23

>  <SMR_VSA7>
30.33

>  <SMR_VSA8>
0

>  <SMR_VSA9>
0

>  <SlogP_VSA1>
4.9

>  <SlogP_VSA2>
60.55

>  <SlogP_VSA3>
0

>  <SlogP_VSA4>
0

>  <SlogP_VSA5>
0

>  <SlogP_VSA6>
30.33

>  <SlogP_VSA7>
0

>  <SlogP_VSA8>
0

>  <SlogP_VSA9>
0

>  <SlogP_VSA10>
5.69

>  <SlogP_VSA11>
0

>  <EState_VSA1>
6.1

>  <EState_VSA2>
6.61

>  <EState_VSA3>
6.54

>  <EState_VSA4>
26.18

>  <EState_VSA5>
5.69

>  <EState_VSA6>
0

>  <EState_VSA7>
6.07

>  <EState_VSA8>
34.07

>  <EState_VSA9>
5.11

>  <EState_VSA10>
5.11

>  <VSA_EState1>
0

>  <VSA_EState2>
4.54

>  <VSA_EState3>
18.2

>  <VSA_EState4>
1.26

>  <VSA_EState5>
0

>  <VSA_EState6>
10.38

>  <VSA_EState7>
-0.61

>  <VSA_EState8>
4.24

>  <VSA_EState9>
0

>  <apol>
38.85

>  <bpol>
23.48

>  <nRing>
2

>  <nHRing>
1

>  <naRing>
1

>  <naHRing>
0

>  <nARing 2>
1

>  <nAHRing 2>
1

>  <nFRing>
0

>  <nFHRing>
0

>  <nFaRing>
0

>  <nFaHRing>
0

>  <nFARing 2>
0

>  <nFAHRing 2>
0

>  <nRot>
4

>  <SLogP>
0.16

>  <SMR>
68.19

>  <TopoPSA(NO)>
46.94

>  <TopoPSA>
46.94

>  <JGI1>
0.17

>  <JGI2>
0.07

>  <JGI3>
0.03

>  <JGI4>
0.03

>  <JGI5>
0.02

>  <Diameter>
11

>  <Radius>
6

>  <TMWC10>
104.39

>  <TSRW10>
49.08

>  <MW>
236.15

>  <AMW>
6.38

>  <WPath>
582

>  <WPol>
22

>  <Zagreb1>
82

>  <Zagreb2>
92

>  <mZagreb2>
3.94

>  <yes>


>  <nAR-cont>
0.816016

>  <nHA-cont>
0.976740822

>  <MWHBN>
0.390442671

>  <MWHBN-cont>
0.513718511

>  <TPSA-cont>
0.672329652

>  <pka_cont>
0.97

>  <yes.1>


>  <BBB_SCORE>
4.392993893

>  <MMFF94 Energy>
142.89

$$$$
Compound 2610
Actelion Java MolfileCreator 2.0

  0  0  0  0  0  0              0 V3000
M  V30 BEGIN CTAB
M  V30 COUNTS 24 24 0 0 0
M  V30 BEGIN ATOM
M  V30 1 Cl 4.0701 -1.5946 3.5906 0
M  V30 2 C 2.8146 -1.2654 2.4619 0
M  V30 3 C 1.971 -0.1746 2.6615 0
M  V30 4 C 2.6451 -2.0897 1.3536 0
M  V30 5 C 0.9477 0.0961 1.7458 0
M  V30 6 C 1.6231 -1.8169 0.4414 0
M  V30 7 C 0.7699 -0.725 0.6309 0
M  V30 8 O -0.1859 -0.5756 -0.3346 0
M  V30 9 C -1.0759 0.5339 -0.2044 0
M  V30 10 C -2.0575 0.5258 -1.3822 0 CFG=1
M  V30 11 O -3.0572 1.5342 -1.1678 0
M  V30 12 C -1.364 0.8105 -2.7196 0
M  V30 13 O -0.8698 2.1495 -2.7518 0
M  V30 14 H 2.1029 0.4704 3.5262 0
M  V30 15 H 3.3 -2.941 1.1916 0
M  V30 16 H 0.3111 0.9546 1.9337 0
M  V30 17 H 1.4914 -2.4598 -0.4255 0
M  V30 18 H -0.5214 1.4805 -0.185 0
M  V30 19 H -1.6478 0.4499 0.7286 0
M  V30 20 H -2.5529 -0.4507 -1.4333 0
M  V30 21 H -3.7666 1.3765 -1.8168 0
M  V30 22 H -2.0836 0.72 -3.5398 0
M  V30 23 H -0.5349 0.123 -2.9092 0
M  V30 24 H -1.5433 2.6987 -2.3051 0
M  V30 END ATOM
M  V30 BEGIN BOND
M  V30 1 1 1 2
M  V30 2 2 2 3
M  V30 3 1 2 4
M  V30 4 1 3 5
M  V30 5 2 4 6
M  V30 6 2 5 7
M  V30 7 1 7 8
M  V30 8 1 8 9
M  V30 9 1 9 10
M  V30 10 1 10 11
M  V30 11 1 10 12
M  V30 12 1 12 13
M  V30 13 1 6 7
M  V30 14 1 3 14
M  V30 15 1 4 15
M  V30 16 1 5 16
M  V30 17 1 6 17
M  V30 18 1 9 18
M  V30 19 1 9 19
M  V30 20 1 10 20
M  V30 21 1 11 21
M  V30 22 1 12 22
M  V30 23 1 12 23
M  V30 24 1 13 24
M  V30 END BOND
M  V30 BEGIN COLLECTION
M  V30 MDLV30/STERAC1 ATOMS=(1 10)
M  V30 END COLLECTION
M  V30 END CTAB
M  END
>  <Column 1>
3263

>  <level_0>
5422

>  <index>
5423

>  <Unnamed: 0>
5423

>  <NO.>
5435

>  <Name>
chlorphenesin

>  <IUPAC_name>
3-(4-chlorophenoxy)propane-1-2-diol

>  <SMILES>
OCC(O)COc1ccc(Cl)cc1

>  <CID>
7697

>  <logBB>


>  <BBB+/BBB->
BBB+

>  <Inchi>
InChI=1S/C9H11ClO3/c10-7-1-3-9(4-2-7)13-6-8(12)5-11/h1-4-8-11-12H-5-6H2

>  <threshold>


>  <reference>
R14|R23|

>  <group>
C

>  <Class>
-1

>  <ABC>
9.41

>  <ABCGG>
8.48

>  <nAcid>
0

>  <nBase>
0

>  <nAromAtom>
6

>  <nAromBond>
6

>  <nAtom>
24

>  <nHeavyAtom>
13

>  <nSpiro>
0

>  <nBridgehead>
0

>  <nHetero>
4

>  <nN>
0

>  <nO>
3

>  <nF>
0

>  <BalabanJ>
2.08

>  <BertzCT>
247.54

>  <nBonds>
24

>  <nBondsO>
13

>  <nBondsS>
18

>  <nBondsD>
0

>  <nBondsT>
0

>  <nBondsA>
6

>  <nBondsM>
6

>  <nBondsKS>
21

>  <nBondsKD>
3

>  <RNCG>
0.33

>  <RPCG>
0.14

>  <FCSP3>
0.33

>  <SZ>
17.67

>  <Sm>
16.87

>  <Sv>
15.22

>  <Sse>
24.64

>  <Sp>
16.14

>  <Si>
27.06

>  <MZ>
0.74

>  <Mm>
0.7

>  <Mv>
0.63

>  <Mse>
1.03

>  <Mp>
0.67

>  <Mi>
1.13

>  <NsCH3>
0

>  <NdCH2>
0

>  <NssCH2>
2

>  <NtCH>
0

>  <NdsCH>
0

>  <NaaCH>
4

>  <NsssCH>
1

>  <NddC>
0

>  <NtsC>
0

>  <NdssC>
0

>  <NaasC>
2

>  <NaaaC>
0

>  <NssssC>
0

>  <NsNH3>
0

>  <NsNH2>
0

>  <NssNH2>
0

>  <NdNH>
0

>  <NssNH>
0

>  <NaaNH>
0

>  <NtN>
0

>  <NsssNH>
0

>  <NdsN>
0

>  <NaaN>
0

>  <NsssN>
0

>  <NddsN>
0

>  <NaasN>
0

>  <NssssN>
0

>  <NsOH>
2

>  <NdO>
0

>  <NssO>
1

>  <NaaO>
0

>  <NsF>
0

>  <NsSiH3>
0

>  <NssSiH2>
0

>  <NsssSiH>
0

>  <NssssSi>
0

>  <NsPH2>
0

>  <NssPH>
0

>  <NsssP>
0

>  <NdsssP>
0

>  <NsssssP>
0

>  <NsSH>
0

>  <NdS>
0

>  <NssS>
0

>  <NaaS>
0

>  <NdssS>
0

>  <NddssS>
0

>  <NsCl>
1

>  <NsBr>
0

>  <NsI>
0

>  <fragCpx>
13.04

>  <fMF>
0.25

>  <nHBAcc>
3

>  <nHBDon>
2

>  <Kier1>
11.08

>  <Kier2>
5.67

>  <Lipinski>
1

>  <GhoseFilter>
1

>  <FilterItLogS>
-1.86

>  <VMcGowan>
143.76

>  <LabuteASA>
81.53

>  <PEOE_VSA1>
14.95

>  <PEOE_VSA2>
0

>  <PEOE_VSA3>
0

>  <PEOE_VSA4>
0

>  <PEOE_VSA5>
0

>  <PEOE_VSA6>
11.6

>  <PEOE_VSA7>
24.27

>  <PEOE_VSA8>
5.02

>  <PEOE_VSA9>
6.61

>  <PEOE_VSA10>
18.46

>  <PEOE_VSA11>
0

>  <PEOE_VSA12>
0

>  <PEOE_VSA13>
0

>  <SMR_VSA1>
14.95

>  <SMR_VSA2>
0

>  <SMR_VSA3>
0

>  <SMR_VSA4>
0

>  <SMR_VSA5>
6.1

>  <SMR_VSA6>
13.21

>  <SMR_VSA7>
29.29

>  <SMR_VSA8>
0

>  <SMR_VSA9>
5.75

>  <SlogP_VSA1>
4.74

>  <SlogP_VSA2>
29.53

>  <SlogP_VSA3>
0

>  <SlogP_VSA4>
0

>  <SlogP_VSA5>
0

>  <SlogP_VSA6>
24.27

>  <SlogP_VSA7>
5.02

>  <SlogP_VSA8>
0

>  <SlogP_VSA9>
0

>  <SlogP_VSA10>
0

>  <SlogP_VSA11>
5.75

>  <EState_VSA1>
6.1

>  <EState_VSA2>
13.21

>  <EState_VSA3>
10.77

>  <EState_VSA4>
0

>  <EState_VSA5>
0

>  <EState_VSA6>
24.27

>  <EState_VSA7>
0

>  <EState_VSA8>
0

>  <EState_VSA9>
26.55

>  <EState_VSA10>
0

>  <VSA_EState1>
5.15

>  <VSA_EState2>
0

>  <VSA_EState3>
18.11

>  <VSA_EState4>
0

>  <VSA_EState5>
0.62

>  <VSA_EState6>
6.79

>  <VSA_EState7>
-0.84

>  <VSA_EState8>
-0.22

>  <VSA_EState9>
0

>  <apol>
26.95

>  <bpol>
13.28

>  <nRing>
1

>  <nHRing>
0

>  <naRing>
1

>  <naHRing>
0

>  <nARing 2>
0

>  <nAHRing 2>
0

>  <nFRing>
0

>  <nFHRing>
0

>  <nFaRing>
0

>  <nFaHRing>
0

>  <nFARing 2>
0

>  <nFAHRing 2>
0

>  <nRot>
4

>  <SLogP>
1.07

>  <SMR>
50.04

>  <TopoPSA(NO)>
49.69

>  <TopoPSA>
49.69

>  <JGI1>
0.23

>  <JGI2>
0.08

>  <JGI3>
0.02

>  <JGI4>
0.06

>  <JGI5>
0.03

>  <Diameter>
9

>  <Radius>
5

>  <TMWC10>
90.71

>  <TSRW10>
43

>  <MW>
202.04

>  <AMW>
8.42

>  <WPath>
284

>  <WPol>
14

>  <Zagreb1>
58

>  <Zagreb2>
62

>  <mZagreb2>
3.08

>  <yes>


>  <nAR-cont>
0.336376

>  <nHA-cont>
0.841215992

>  <MWHBN>
0.351763946

>  <MWHBN-cont>
0.663640453

>  <TPSA-cont>
0.653132944

>  <pka_cont>
0.97

>  <yes.1>


>  <BBB_SCORE>
3.96431856

>  <MMFF94 Energy>
52.335

$$$$
Compound 2611
Actelion Java MolfileCreator 2.0

  0  0  0  0  0  0              0 V3000
M  V30 BEGIN CTAB
M  V30 COUNTS 18 19 0 0 0
M  V30 BEGIN ATOM
M  V30 1 I 1.984 3.2794 1.984 0
M  V30 2 C 0.8343 1.8453 0.9865 0
M  V30 3 C 1.284 0.5317 0.8203 0
M  V30 4 C -0.4026 2.2239 0.4838 0
M  V30 5 O 2.5137 0.1539 1.3199 0
M  V30 6 C 0.5177 -0.4354 0.1522 0
M  V30 7 C -1.1875 1.2814 -0.1862 0
M  V30 8 N 0.9962 -1.6934 0.0168 0
M  V30 9 C -0.7463 -0.0588 -0.3646 0
M  V30 10 I -3.0463 1.99 -0.9003 0
M  V30 11 C 0.2576 -2.6183 -0.6249 0
M  V30 12 C -1.4824 -1.0689 -1.0305 0
M  V30 13 C -0.9797 -2.3574 -1.1629 0
M  V30 14 H -0.7557 3.2446 0.6112 0
M  V30 15 H 2.9194 0.9248 1.7506 0
M  V30 16 H 0.7081 -3.604 -0.6934 0
M  V30 17 H -2.4609 -0.8688 -1.4576 0
M  V30 18 H -1.5414 -3.1318 -1.6721 0
M  V30 END ATOM
M  V30 BEGIN BOND
M  V30 1 1 1 2
M  V30 2 2 2 3
M  V30 3 1 2 4
M  V30 4 1 3 5
M  V30 5 1 3 6
M  V30 6 2 4 7
M  V30 7 2 6 8
M  V30 8 1 6 9
M  V30 9 1 7 10
M  V30 10 1 8 11
M  V30 11 2 9 12
M  V30 12 2 11 13
M  V30 13 1 7 9
M  V30 14 1 12 13
M  V30 15 1 4 14
M  V30 16 1 5 15
M  V30 17 1 11 16
M  V30 18 1 12 17
M  V30 19 1 13 18
M  V30 END BOND
M  V30 END CTAB
M  END
>  <Column 1>
3265

>  <level_0>
5426

>  <index>
5427

>  <Unnamed: 0>
5427

>  <NO.>
5439

>  <Name>
iodoquinol

>  <IUPAC_name>
5-7-diiodoquinolin-8-ol

>  <SMILES>
Oc1c(I)cc(I)c2cccnc12

>  <CID>
3728

>  <logBB>


>  <BBB+/BBB->
BBB-

>  <Inchi>
InChI=1S/C9H5I2NO/c10-6-4-7(11)9(13)8-5(6)2-1-3-12-8/h1-4-13H

>  <threshold>


>  <reference>
R14|

>  <group>
C

>  <Class>
-1

>  <ABC>
10.07

>  <ABCGG>
8.93

>  <nAcid>
0

>  <nBase>
0

>  <nAromAtom>
10

>  <nAromBond>
11

>  <nAtom>
18

>  <nHeavyAtom>
13

>  <nSpiro>
0

>  <nBridgehead>
0

>  <nHetero>
4

>  <nN>
1

>  <nO>
1

>  <nF>
0

>  <BalabanJ>
2.1

>  <BertzCT>
470.37

>  <nBonds>
19

>  <nBondsO>
14

>  <nBondsS>
8

>  <nBondsD>
0

>  <nBondsT>
0

>  <nBondsA>
11

>  <nBondsM>
11

>  <nBondsKS>
14

>  <nBondsKD>
5

>  <RNCG>
0.52

>  <RPCG>
0.3

>  <FCSP3>
0

>  <SZ>
30

>  <Sm>
33.05

>  <Sv>
14.99

>  <Sse>
18.24

>  <Sp>
18.54

>  <Si>
19.39

>  <MZ>
1.67

>  <Mm>
1.84

>  <Mv>
0.83

>  <Mse>
1.01

>  <Mp>
1.03

>  <Mi>
1.08

>  <NsCH3>
0

>  <NdCH2>
0

>  <NssCH2>
0

>  <NtCH>
0

>  <NdsCH>
0

>  <NaaCH>
4

>  <NsssCH>
0

>  <NddC>
0

>  <NtsC>
0

>  <NdssC>
0

>  <NaasC>
3

>  <NaaaC>
2

>  <NssssC>
0

>  <NsNH3>
0

>  <NsNH2>
0

>  <NssNH2>
0

>  <NdNH>
0

>  <NssNH>
0

>  <NaaNH>
0

>  <NtN>
0

>  <NsssNH>
0

>  <NdsN>
0

>  <NaaN>
1

>  <NsssN>
0

>  <NddsN>
0

>  <NaasN>
0

>  <NssssN>
0

>  <NsOH>
1

>  <NdO>
0

>  <NssO>
0

>  <NaaO>
0

>  <NsF>
0

>  <NsSiH3>
0

>  <NssSiH2>
0

>  <NsssSiH>
0

>  <NssssSi>
0

>  <NsPH2>
0

>  <NssPH>
0

>  <NsssP>
0

>  <NdsssP>
0

>  <NsssssP>
0

>  <NsSH>
0

>  <NdS>
0

>  <NssS>
0

>  <NaaS>
0

>  <NdssS>
0

>  <NddssS>
0

>  <NsCl>
0

>  <NsBr>
0

>  <NsI>
2

>  <fragCpx>
40.04

>  <fMF>
0.56

>  <nHBAcc>
2

>  <nHBDon>
1

>  <Kier1>
9.55

>  <Kier2>
3.63

>  <Lipinski>
1

>  <GhoseFilter>
0

>  <FilterItLogS>
-4.34

>  <VMcGowan>
161.96

>  <LabuteASA>
102.65

>  <PEOE_VSA1>
5.11

>  <PEOE_VSA2>
4.98

>  <PEOE_VSA3>
0

>  <PEOE_VSA4>
0

>  <PEOE_VSA5>
0

>  <PEOE_VSA6>
6.07

>  <PEOE_VSA7>
57.31

>  <PEOE_VSA8>
15.15

>  <PEOE_VSA9>
3.57

>  <PEOE_VSA10>
5.52

>  <PEOE_VSA11>
5.75

>  <PEOE_VSA12>
0

>  <PEOE_VSA13>
0

>  <SMR_VSA1>
5.11

>  <SMR_VSA2>
0

>  <SMR_VSA3>
4.98

>  <SMR_VSA4>
0

>  <SMR_VSA5>
0

>  <SMR_VSA6>
0

>  <SMR_VSA7>
31.54

>  <SMR_VSA8>
0

>  <SMR_VSA9>
5.75

>  <SlogP_VSA1>
0

>  <SlogP_VSA2>
10.09

>  <SlogP_VSA3>
0

>  <SlogP_VSA4>
7.14

>  <SlogP_VSA5>
0

>  <SlogP_VSA6>
24.4

>  <SlogP_VSA7>
0

>  <SlogP_VSA8>
10.9

>  <SlogP_VSA9>
0

>  <SlogP_VSA10>
0

>  <SlogP_VSA11>
5.75

>  <EState_VSA1>
0

>  <EState_VSA2>
5.75

>  <EState_VSA3>
5.52

>  <EState_VSA4>
12.53

>  <EState_VSA5>
0

>  <EState_VSA6>
6.2

>  <EState_VSA7>
18.2

>  <EState_VSA8>
50.17

>  <EState_VSA9>
0

>  <EState_VSA10>
5.11

>  <VSA_EState1>
1.95

>  <VSA_EState2>
4.14

>  <VSA_EState3>
10.71

>  <VSA_EState4>
0.68

>  <VSA_EState5>
0.27

>  <VSA_EState6>
5.77

>  <VSA_EState7>
1.69

>  <VSA_EState8>
0

>  <VSA_EState9>
0

>  <apol>
30.97

>  <bpol>
13.52

>  <nRing>
2

>  <nHRing>
1

>  <naRing>
2

>  <naHRing>
1

>  <nARing 2>
0

>  <nAHRing 2>
0

>  <nFRing>
1

>  <nFHRing>
1

>  <nFaRing>
1

>  <nFaHRing>
1

>  <nFARing 2>
0

>  <nFAHRing 2>
0

>  <nRot>
0

>  <SLogP>
3.15

>  <SMR>
68.84

>  <TopoPSA(NO)>
33.12

>  <TopoPSA>
33.12

>  <JGI1>
0.18

>  <JGI2>
0.1

>  <JGI3>
0.06

>  <JGI4>
0.06

>  <JGI5>
0.03

>  <Diameter>
6

>  <Radius>
3

>  <TMWC10>
96.74

>  <TSRW10>
44.83

>  <MW>
396.85

>  <AMW>
22.05

>  <WPath>
218

>  <WPol>
21

>  <Zagreb1>
68

>  <Zagreb2>
81

>  <mZagreb2>
2.86

>  <yes>


>  <nAR-cont>
0.336376

>  <nHA-cont>
0.841215992

>  <MWHBN>
0.150594136

>  <MWHBN-cont>
0.934047738

>  <TPSA-cont>
0.768801834

>  <pka_cont>
0.97

>  <yes.1>


>  <BBB_SCORE>
4.601267267

>  <MMFF94 Energy>
57.985

$$$$
Compound 2612
Actelion Java MolfileCreator 2.0

  0  0  0  0  0  0              0 V3000
M  V30 BEGIN CTAB
M  V30 COUNTS 27 29 0 0 0
M  V30 BEGIN ATOM
M  V30 1 Br 0.488 3.0939 -0.8135 0
M  V30 2 C -0.6366 1.5772 -0.4515 0
M  V30 3 C -2.0304 1.7347 -0.5681 0
M  V30 4 C -0.0264 0.3555 -0.0807 0
M  V30 5 N -2.6063 2.9142 -0.9268 0
M  V30 6 C -2.8469 0.6119 -0.2967 0
M  V30 7 N 1.377 0.2698 0.0223 0
M  V30 8 C -0.8721 -0.7202 0.1804 0
M  V30 9 C -3.9528 2.9518 -1.008 0
M  V30 10 N -4.1911 0.666 -0.3814 0
M  V30 11 C -2.2583 -0.586 0.0703 0
M  V30 12 C 2.1686 -0.7951 0.3011 0
M  V30 13 C -4.7299 1.8488 -0.7404 0
M  V30 14 N 1.8532 -2.0434 0.4922 0
M  V30 15 N 3.4898 -0.5011 0.3927 0
M  V30 16 C 3.1464 -2.7428 0.7329 0
M  V30 17 C 4.2359 -1.6668 0.7723 0
M  V30 18 H 1.8508 1.132 -0.2088 0
M  V30 19 H -0.4787 -1.6889 0.4768 0
M  V30 20 H -4.3879 3.9016 -1.2962 0
M  V30 21 H -2.8925 -1.4452 0.279 0
M  V30 22 H -5.8111 1.8817 -0.8064 0
M  V30 23 H 3.8636 0.4277 0.5019 0
M  V30 24 H 3.3275 -3.4564 -0.0779 0
M  V30 25 H 3.1032 -3.2965 1.6764 0
M  V30 26 H 4.6494 -1.5559 1.7793 0
M  V30 27 H 5.0454 -1.88 0.0688 0
M  V30 END ATOM
M  V30 BEGIN BOND
M  V30 1 1 1 2
M  V30 2 1 2 3
M  V30 3 2 2 4
M  V30 4 2 3 5
M  V30 5 1 3 6
M  V30 6 1 4 7
M  V30 7 1 4 8
M  V30 8 1 5 9
M  V30 9 2 6 10
M  V30 10 1 6 11
M  V30 11 1 7 12
M  V30 12 2 9 13
M  V30 13 2 12 14
M  V30 14 1 12 15
M  V30 15 1 14 16
M  V30 16 1 15 17
M  V30 17 2 8 11
M  V30 18 1 10 13
M  V30 19 1 16 17
M  V30 20 1 7 18
M  V30 21 1 8 19
M  V30 22 1 9 20
M  V30 23 1 11 21
M  V30 24 1 13 22
M  V30 25 1 15 23
M  V30 26 1 16 24
M  V30 27 1 16 25
M  V30 28 1 17 26
M  V30 29 1 17 27
M  V30 END BOND
M  V30 END CTAB
M  END
>  <Column 1>
3267

>  <level_0>
5428

>  <index>
5429

>  <Unnamed: 0>
5429

>  <NO.>
5441

>  <Name>
brimonidine

>  <IUPAC_name>
5-bromo-n-(4-5-dihydro-1h-imidazol-2-yl)quinoxalin-6-amine

>  <SMILES>
Brc1c(NC2=NCCN2)ccc2nccnc12

>  <CID>
2435

>  <logBB>


>  <BBB+/BBB->
BBB+

>  <Inchi>
InChI=1S/C11H10BrN5/c12-9-7(17-11-15-5-6-16-11)1-2-8-10(9)14-4-3-13-8/h1-4H-5-6H2-(H2-15-16-17)

>  <threshold>


>  <reference>
R15|

>  <group>
C

>  <Class>
-1

>  <ABC>
13.42

>  <ABCGG>
11.21

>  <nAcid>
0

>  <nBase>
3

>  <nAromAtom>
10

>  <nAromBond>
11

>  <nAtom>
27

>  <nHeavyAtom>
17

>  <nSpiro>
0

>  <nBridgehead>
0

>  <nHetero>
6

>  <nN>
5

>  <nO>
0

>  <nF>
0

>  <BalabanJ>
1.58

>  <BertzCT>
595.43

>  <nBonds>
29

>  <nBondsO>
19

>  <nBondsS>
17

>  <nBondsD>
1

>  <nBondsT>
0

>  <nBondsA>
11

>  <nBondsM>
12

>  <nBondsKS>
23

>  <nBondsKD>
6

>  <RNCG>
0.23

>  <RPCG>
0.13

>  <FCSP3>
0.18

>  <SZ>
24.33

>  <Sm>
24.32

>  <Sv>
18.79

>  <Sse>
27.43

>  <Sp>
20.11

>  <Si>
30.58

>  <MZ>
0.9

>  <Mm>
0.9

>  <Mv>
0.7

>  <Mse>
1.02

>  <Mp>
0.74

>  <Mi>
1.13

>  <NsCH3>
0

>  <NdCH2>
0

>  <NssCH2>
2

>  <NtCH>
0

>  <NdsCH>
0

>  <NaaCH>
4

>  <NsssCH>
0

>  <NddC>
0

>  <NtsC>
0

>  <NdssC>
1

>  <NaasC>
2

>  <NaaaC>
2

>  <NssssC>
0

>  <NsNH3>
0

>  <NsNH2>
0

>  <NssNH2>
0

>  <NdNH>
0

>  <NssNH>
2

>  <NaaNH>
0

>  <NtN>
0

>  <NsssNH>
0

>  <NdsN>
1

>  <NaaN>
2

>  <NsssN>
0

>  <NddsN>
0

>  <NaasN>
0

>  <NssssN>
0

>  <NsOH>
0

>  <NdO>
0

>  <NssO>
0

>  <NaaO>
0

>  <NsF>
0

>  <NsSiH3>
0

>  <NssSiH2>
0

>  <NsssSiH>
0

>  <NssssSi>
0

>  <NsPH2>
0

>  <NssPH>
0

>  <NsssP>
0

>  <NdsssP>
0

>  <NsssssP>
0

>  <NsSH>
0

>  <NdS>
0

>  <NssS>
0

>  <NaaS>
0

>  <NdssS>
0

>  <NddssS>
0

>  <NsCl>
0

>  <NsBr>
1

>  <NsI>
0

>  <fragCpx>
89.06

>  <fMF>
0.59

>  <nHBAcc>
5

>  <nHBDon>
2

>  <Kier1>
12.06

>  <Kier2>
5.33

>  <Lipinski>
1

>  <GhoseFilter>
1

>  <FilterItLogS>
-4.53

>  <VMcGowan>
174.87

>  <LabuteASA>
106.5

>  <PEOE_VSA1>
10.63

>  <PEOE_VSA2>
14.96

>  <PEOE_VSA3>
0

>  <PEOE_VSA4>
0

>  <PEOE_VSA5>
0

>  <PEOE_VSA6>
0

>  <PEOE_VSA7>
28.06

>  <PEOE_VSA8>
18.94

>  <PEOE_VSA9>
22.22

>  <PEOE_VSA10>
5.52

>  <PEOE_VSA11>
5.96

>  <PEOE_VSA12>
0

>  <PEOE_VSA13>
0

>  <SMR_VSA1>
0

>  <SMR_VSA2>
0

>  <SMR_VSA3>
15.28

>  <SMR_VSA4>
4.99

>  <SMR_VSA5>
0

>  <SMR_VSA6>
18.41

>  <SMR_VSA7>
29

>  <SMR_VSA8>
0

>  <SMR_VSA9>
0

>  <SlogP_VSA1>
10.63

>  <SlogP_VSA2>
29.02

>  <SlogP_VSA3>
0

>  <SlogP_VSA4>
0

>  <SlogP_VSA5>
0

>  <SlogP_VSA6>
33.99

>  <SlogP_VSA7>
0

>  <SlogP_VSA8>
11.03

>  <SlogP_VSA9>
0

>  <SlogP_VSA10>
5.69

>  <SlogP_VSA11>
0

>  <EState_VSA1>
0

>  <EState_VSA2>
0

>  <EState_VSA3>
0

>  <EState_VSA4>
40.24

>  <EState_VSA5>
0

>  <EState_VSA6>
12.39

>  <EState_VSA7>
12.13

>  <EState_VSA8>
41.52

>  <EState_VSA9>
0

>  <EState_VSA10>
0

>  <VSA_EState1>
0.9

>  <VSA_EState2>
12.84

>  <VSA_EState3>
6.39

>  <VSA_EState4>
2.65

>  <VSA_EState5>
0.8

>  <VSA_EState6>
3.9

>  <VSA_EState7>
3.37

>  <VSA_EState8>
1.7

>  <VSA_EState9>
0

>  <apol>
33.59

>  <bpol>
15.97

>  <nRing>
3

>  <nHRing>
2

>  <naRing>
2

>  <naHRing>
1

>  <nARing 2>
1

>  <nAHRing 2>
1

>  <nFRing>
1

>  <nFHRing>
1

>  <nFaRing>
1

>  <nFaHRing>
1

>  <nFARing 2>
0

>  <nFAHRing 2>
0

>  <nRot>
1

>  <SLogP>
1.76

>  <SMR>
71.17

>  <TopoPSA(NO)>
62.2

>  <TopoPSA>
62.2

>  <JGI1>
0.13

>  <JGI2>
0.07

>  <JGI3>
0.05

>  <JGI4>
0.04

>  <JGI5>
0.02

>  <Diameter>
9

>  <Radius>
5

>  <TMWC10>
107.77

>  <TSRW10>
63.01

>  <MW>
291.01

>  <AMW>
10.78

>  <WPath>
515

>  <WPol>
24

>  <Zagreb1>
90

>  <Zagreb2>
106

>  <mZagreb2>
3.75

>  <yes>


>  <nAR-cont>
0.816016

>  <nHA-cont>
0.976740822

>  <MWHBN>
0.410340217

>  <MWHBN-cont>
0.435490739

>  <TPSA-cont>
0.565805376

>  <pka_cont>
0.97

>  <yes.1>


>  <BBB_SCORE>
4.062603682

>  <MMFF94 Energy>
35.733

$$$$
Compound 2613
Actelion Java MolfileCreator 2.0

  0  0  0  0  0  0              0 V3000
M  V30 BEGIN CTAB
M  V30 COUNTS 79 80 0 0 0
M  V30 BEGIN ATOM
M  V30 1 O 4.0203 1.8115 0.7873 0
M  V30 2 C 2.8118 1.7224 0.64 0
M  V30 3 O 2.161 1.1399 -0.3979 0
M  V30 4 C 1.8502 2.1542 1.6737 0
M  V30 5 C 3.0028 0.554 -1.4028 0
M  V30 6 C 0.701 2.8328 1.4821 0
M  V30 7 C 3.3157 1.5625 -2.5052 0
M  V30 8 C -0.1995 3.1456 2.6685 0
M  V30 9 C 0.2457 3.3807 0.1572 0
M  V30 10 C 2.0698 1.9322 -3.317 0
M  V30 11 C -1.0492 1.9659 3.1906 0 CFG=2
M  V30 12 C 2.4035 2.9522 -4.408 0
M  V30 13 O -0.176 0.9969 3.7975 0
M  V30 14 C -1.9219 1.3104 2.1038 0 CFG=2
M  V30 15 C 1.1739 3.4478 -5.1746 0
M  V30 16 C -0.9047 -0.0492 4.4424 0
M  V30 17 O -2.8957 2.2405 1.6119 0
M  V30 18 C -2.656 0.0828 2.6721 0 CFG=1
M  V30 19 C 0.4885 2.3549 -5.9984 0
M  V30 20 C -1.711 -0.8646 3.424 0 CFG=1
M  V30 21 O -3.6835 0.5203 3.5741 0
M  V30 22 C -0.6587 2.932 -6.8352 0
M  V30 23 C -0.8017 -1.6168 2.4317 0
M  V30 24 C -1.387 1.8609 -7.6465 0
M  V30 25 C -0.0209 -2.7116 3.0912 0 CFG=2
M  V30 26 C -0.5788 1.3564 -8.8124 0
M  V30 27 O 0.1618 -3.8782 2.2772 0
M  V30 28 C -0.665 -4.0336 3.4378 0 CFG=1
M  V30 29 O 0.4333 1.8444 -9.2835 0
M  V30 30 O -1.1211 0.2486 -9.3558 0
M  V30 31 C -0.0852 -4.8973 4.5279 0 CFG=2
M  V30 32 C -0.3721 -6.4002 4.3123 0 CFG=1
M  V30 33 C -0.6352 -4.4289 5.8804 0
M  V30 34 O -1.7759 -6.6626 4.3262 0
M  V30 35 C 0.2405 -6.9659 3.0357 0
M  V30 36 H 2.1592 1.8695 2.6759 0
M  V30 37 H 2.4641 -0.3063 -1.8147 0
M  V30 38 H 3.9276 0.162 -0.9632 0
M  V30 39 H 3.7404 2.4717 -2.0638 0
M  V30 40 H 4.0696 1.1344 -3.1759 0
M  V30 41 H 0.4334 3.5097 3.4897 0
M  V30 42 H -0.8637 3.981 2.414 0
M  V30 43 H -0.5665 2.7749 -0.2538 0
M  V30 44 H -0.1149 4.4087 0.2724 0
M  V30 45 H 1.0539 3.4262 -0.5767 0
M  V30 46 H 1.2986 2.3432 -2.6571 0
M  V30 47 H 1.6574 1.0227 -3.7678 0
M  V30 48 H -1.6936 2.382 3.9776 0
M  V30 49 H 3.1259 2.5199 -5.1109 0
M  V30 50 H 2.8912 3.8211 -3.9487 0
M  V30 51 H -1.2993 0.9844 1.2639 0
M  V30 52 H 1.4934 4.2547 -5.8459 0
M  V30 53 H 0.4556 3.8877 -4.4721 0
M  V30 54 H -0.1815 -0.681 4.967 0
M  V30 55 H -1.5549 0.384 5.2123 0
M  V30 56 H -3.2498 1.8725 0.782 0
M  V30 57 H -3.1772 -0.4427 1.8639 0
M  V30 58 H 0.0901 1.5799 -5.3342 0
M  V30 59 H 1.2263 1.8754 -6.6514 0
M  V30 60 H -2.3099 -1.5944 3.9845 0
M  V30 61 H -4.0532 1.3393 3.1866 0
M  V30 62 H -0.2761 3.7153 -7.5008 0
M  V30 63 H -1.3821 3.4092 -6.1626 0
M  V30 64 H -0.0964 -0.9341 1.9443 0
M  V30 65 H -1.4222 -2.0436 1.6331 0
M  V30 66 H -1.6469 1.0157 -6.9997 0
M  V30 67 H -2.3118 2.2858 -8.0526 0
M  V30 68 H 0.8317 -2.3605 3.6573 0
M  V30 69 H -1.7332 -4.1428 3.3031 0
M  V30 70 H -0.5222 0.0338 -10.1016 0
M  V30 71 H 1.0048 -4.7646 4.5518 0
M  V30 72 H 0.0516 -6.9534 5.159 0
M  V30 73 H -0.2243 -5.0291 6.6987 0
M  V30 74 H -0.3687 -3.3823 6.0647 0
M  V30 75 H -1.7279 -4.4986 5.9179 0
M  V30 76 H -2.124 -6.4773 3.4372 0
M  V30 77 H 1.3169 -6.7754 2.9926 0
M  V30 78 H -0.2311 -6.5482 2.1405 0
M  V30 79 H 0.0776 -8.0484 2.9897 0
M  V30 END ATOM
M  V30 BEGIN BOND
M  V30 1 2 1 2
M  V30 2 1 2 3
M  V30 3 1 2 4
M  V30 4 1 3 5
M  V30 5 2 4 6
M  V30 6 1 5 7
M  V30 7 1 6 8
M  V30 8 1 6 9
M  V30 9 1 7 10
M  V30 10 1 8 11
M  V30 11 1 10 12
M  V30 12 1 11 13
M  V30 13 1 11 14
M  V30 14 1 12 15
M  V30 15 1 13 16
M  V30 16 1 14 17
M  V30 17 1 14 18
M  V30 18 1 15 19
M  V30 19 1 16 20
M  V30 20 1 18 21
M  V30 21 1 19 22
M  V30 22 1 20 23
M  V30 23 1 22 24
M  V30 24 1 23 25
M  V30 25 1 24 26
M  V30 26 1 25 27
M  V30 27 1 25 28
M  V30 28 2 26 29
M  V30 29 1 26 30
M  V30 30 1 28 31
M  V30 31 1 31 32
M  V30 32 1 31 33
M  V30 33 1 32 34
M  V30 34 1 32 35
M  V30 35 1 18 20
M  V30 36 1 27 28
M  V30 37 1 4 36
M  V30 38 1 5 37
M  V30 39 1 5 38
M  V30 40 1 7 39
M  V30 41 1 7 40
M  V30 42 1 8 41
M  V30 43 1 8 42
M  V30 44 1 9 43
M  V30 45 1 9 44
M  V30 46 1 9 45
M  V30 47 1 10 46
M  V30 48 1 10 47
M  V30 49 1 11 48
M  V30 50 1 12 49
M  V30 51 1 12 50
M  V30 52 1 14 51
M  V30 53 1 15 52
M  V30 54 1 15 53
M  V30 55 1 16 54
M  V30 56 1 16 55
M  V30 57 1 17 56
M  V30 58 1 18 57
M  V30 59 1 19 58
M  V30 60 1 19 59
M  V30 61 1 20 60
M  V30 62 1 21 61
M  V30 63 1 22 62
M  V30 64 1 22 63
M  V30 65 1 23 64
M  V30 66 1 23 65
M  V30 67 1 24 66
M  V30 68 1 24 67
M  V30 69 1 25 68
M  V30 70 1 28 69
M  V30 71 1 30 70
M  V30 72 1 31 71
M  V30 73 1 32 72
M  V30 74 1 33 73
M  V30 75 1 33 74
M  V30 76 1 33 75
M  V30 77 1 34 76
M  V30 78 1 35 77
M  V30 79 1 35 78
M  V30 80 1 35 79
M  V30 END BOND
M  V30 BEGIN COLLECTION
M  V30 MDLV30/STEABS ATOMS=(8 11 14 18 20 25 28 31 32)
M  V30 END COLLECTION
M  V30 END CTAB
M  END
>  <Column 1>
3268

>  <level_0>
5430

>  <index>
5431

>  <Unnamed: 0>
5431

>  <NO.>
5443

>  <Name>
mupirocin

>  <IUPAC_name>
9-[(e)-4-[(2s-3r-4r-5s)-3-4-dihydroxy-5-[[(2s-3s)-3-[(2s-3s)-3-hydroxybutan-2-yl]oxiran-2-yl]methyl]oxan-2-yl]-3-methylbut-2-enoyl]oxynonanoic acid

>  <SMILES>
C/C(=C\C(=O)OCCCCCCCCC(=O)O)C[C@@H]1OC[C@H](C[C@@H]2O[C@H]2[C@@H](C)[C@H](C)O)[C@@H](O)[C@H]1O

>  <CID>
446596

>  <logBB>


>  <BBB+/BBB->
BBB-

>  <Inchi>
InChI=1S/C26H44O9/c1-16(13-23(30)33-11-9-7-5-4-6-8-10-22(28)29)12-20-25(32)24(31)19(15-34-20)14-21-26(35-21)17(2)18(3)27/h13-17-21-24-27-31-32H-4-12-14-15H2-1-3H3-(H-28-29)/b16-13+/t17--18--19--20--21--24+-25--26-/m0/s1

>  <threshold>


>  <reference>
R15|

>  <group>
C

>  <Class>
-1

>  <ABC>
26.2

>  <ABCGG>
20.63

>  <nAcid>
1

>  <nBase>
0

>  <nAromAtom>
0

>  <nAromBond>
0

>  <nAtom>
79

>  <nHeavyAtom>
35

>  <nSpiro>
0

>  <nBridgehead>
0

>  <nHetero>
9

>  <nN>
0

>  <nO>
9

>  <nF>
0

>  <BalabanJ>
1.56

>  <BertzCT>
692.31

>  <nBonds>
80

>  <nBondsO>
36

>  <nBondsS>
77

>  <nBondsD>
3

>  <nBondsT>
0

>  <nBondsA>
0

>  <nBondsM>
3

>  <nBondsKS>
77

>  <nBondsKD>
3

>  <RNCG>
0.12

>  <RPCG>
0.09

>  <FCSP3>
0.85

>  <SZ>
45.33

>  <Sm>
41.68

>  <Sv>
44.35

>  <Sse>
79.51

>  <Sp>
47.89

>  <Si>
90.02

>  <MZ>
0.57

>  <Mm>
0.53

>  <Mv>
0.56

>  <Mse>
1.01

>  <Mp>
0.61

>  <Mi>
1.14

>  <NsCH3>
3

>  <NdCH2>
0

>  <NssCH2>
11

>  <NtCH>
0

>  <NdsCH>
1

>  <NaaCH>
0

>  <NsssCH>
8

>  <NddC>
0

>  <NtsC>
0

>  <NdssC>
3

>  <NaasC>
0

>  <NaaaC>
0

>  <NssssC>
0

>  <NsNH3>
0

>  <NsNH2>
0

>  <NssNH2>
0

>  <NdNH>
0

>  <NssNH>
0

>  <NaaNH>
0

>  <NtN>
0

>  <NsssNH>
0

>  <NdsN>
0

>  <NaaN>
0

>  <NsssN>
0

>  <NddsN>
0

>  <NaasN>
0

>  <NssssN>
0

>  <NsOH>
4

>  <NdO>
2

>  <NssO>
3

>  <NaaO>
0

>  <NsF>
0

>  <NsSiH3>
0

>  <NssSiH2>
0

>  <NsssSiH>
0

>  <NssssSi>
0

>  <NsPH2>
0

>  <NssPH>
0

>  <NsssP>
0

>  <NdsssP>
0

>  <NsssssP>
0

>  <NsSH>
0

>  <NdS>
0

>  <NssS>
0

>  <NaaS>
0

>  <NdssS>
0

>  <NddssS>
0

>  <NsCl>
0

>  <NsBr>
0

>  <NsI>
0

>  <fragCpx>
106.09

>  <fMF>
0.13

>  <nHBAcc>
8

>  <nHBDon>
4

>  <Kier1>
31.22

>  <Kier2>
16.07

>  <Lipinski>
0

>  <GhoseFilter>
0

>  <FilterItLogS>
-2.47

>  <VMcGowan>
395.41

>  <LabuteASA>
208

>  <PEOE_VSA1>
34.64

>  <PEOE_VSA2>
4.79

>  <PEOE_VSA3>
4.79

>  <PEOE_VSA4>
0

>  <PEOE_VSA5>
0

>  <PEOE_VSA6>
38.18

>  <PEOE_VSA7>
39.53

>  <PEOE_VSA8>
24.33

>  <PEOE_VSA9>
43.73

>  <PEOE_VSA10>
6.1

>  <PEOE_VSA11>
0

>  <PEOE_VSA12>
0

>  <PEOE_VSA13>
0

>  <SMR_VSA1>
44.23

>  <SMR_VSA2>
0

>  <SMR_VSA3>
0

>  <SMR_VSA4>
11.84

>  <SMR_VSA5>
115.18

>  <SMR_VSA6>
13.21

>  <SMR_VSA7>
11.65

>  <SMR_VSA8>
0

>  <SMR_VSA9>
0

>  <SlogP_VSA1>
0

>  <SlogP_VSA2>
82.2

>  <SlogP_VSA3>
23.8

>  <SlogP_VSA4>
11.84

>  <SlogP_VSA5>
78.56

>  <SlogP_VSA6>
11.65

>  <SlogP_VSA7>
0

>  <SlogP_VSA8>
0

>  <SlogP_VSA9>
0

>  <SlogP_VSA10>
0

>  <SlogP_VSA11>
0

>  <EState_VSA1>
36.35

>  <EState_VSA2>
30.46

>  <EState_VSA3>
38.05

>  <EState_VSA4>
32.1

>  <EState_VSA5>
6.08

>  <EState_VSA6>
13.85

>  <EState_VSA7>
6.92

>  <EState_VSA8>
0

>  <EState_VSA9>
19.32

>  <EState_VSA10>
24.91

>  <VSA_EState1>
16.72

>  <VSA_EState2>
22.51

>  <VSA_EState3>
39.47

>  <VSA_EState4>
0.71

>  <VSA_EState5>
-1.42

>  <VSA_EState6>
0

>  <VSA_EState7>
4.61

>  <VSA_EState8>
6.07

>  <VSA_EState9>
0

>  <apol>
79.98

>  <bpol>
51.09

>  <nRing>
2

>  <nHRing>
2

>  <naRing>
0

>  <naHRing>
0

>  <nARing 2>
2

>  <nAHRing 2>
2

>  <nFRing>
0

>  <nFHRing>
0

>  <nFaRing>
0

>  <nFaHRing>
0

>  <nFARing 2>
0

>  <nFAHRing 2>
0

>  <nRot>
16

>  <SLogP>
2.59

>  <SMR>
128.65

>  <TopoPSA(NO)>
146.05

>  <TopoPSA>
146.05

>  <JGI1>
0.21

>  <JGI2>
0.09

>  <JGI3>
0.05

>  <JGI4>
0.04

>  <JGI5>
0.02

>  <Diameter>
24

>  <Radius>
12

>  <TMWC10>
147.57

>  <TSRW10>
90.2

>  <MW>
500.3

>  <AMW>
6.33

>  <WPath>
5246

>  <WPol>
47

>  <Zagreb1>
168

>  <Zagreb2>
189

>  <mZagreb2>
7.92

>  <yes>


>  <nAR-cont>
1

>  <nHA-cont>
0.523063577

>  <MWHBN>
0.53649539

>  <MWHBN-cont>
0

>  <TPSA-cont>
0

>  <pka_cont>
0.97

>  <yes.1>


>  <BBB_SCORE>
2.008063577

>  <MMFF94 Energy>
55.585

$$$$
Compound 2614
Actelion Java MolfileCreator 2.0

  0  0  0  0  0  0              0 V3000
M  V30 BEGIN CTAB
M  V30 COUNTS 24 24 0 0 0
M  V30 BEGIN ATOM
M  V30 1 S -0.6435 0.1608 -2.0121 0
M  V30 2 O 0.3826 -0.1545 -2.979 0
M  V30 3 O -1.7305 1.0571 -2.3534 0
M  V30 4 N -1.3836 -1.2387 -1.5109 0
M  V30 5 C 0.1099 0.7789 -0.531 0
M  V30 6 C -0.7246 -2.392 -1.0727 0
M  V30 7 C -0.6181 1.6129 0.3204 0
M  V30 8 C 1.4413 0.4721 -0.2486 0
M  V30 9 O 0.4863 -2.469 -0.9328 0
M  V30 10 C -1.646 -3.5364 -0.7574 0
M  V30 11 C -0.0104 2.1203 1.4726 0
M  V30 12 C 2.0358 0.9834 0.9082 0
M  V30 13 C 1.3225 1.8217 1.7702 0
M  V30 14 N 1.9051 2.2937 2.9318 0
M  V30 15 H -2.3948 -1.1993 -1.581 0
M  V30 16 H -1.6494 1.8761 0.0987 0
M  V30 17 H 2.0161 -0.1727 -0.9107 0
M  V30 18 H -2.2386 -3.7888 -1.6409 0
M  V30 19 H -2.3097 -3.2588 0.0659 0
M  V30 20 H -1.0603 -4.4116 -0.4631 0
M  V30 21 H -0.5867 2.7601 2.1361 0
M  V30 22 H 3.0675 0.7212 1.1283 0
M  V30 23 H 2.8883 2.1358 3.107 0
M  V30 24 H 1.4208 2.9649 3.5117 0
M  V30 END ATOM
M  V30 BEGIN BOND
M  V30 1 2 1 2
M  V30 2 2 1 3
M  V30 3 1 1 4
M  V30 4 1 1 5
M  V30 5 1 4 6
M  V30 6 2 5 7
M  V30 7 1 5 8
M  V30 8 2 6 9
M  V30 9 1 6 10
M  V30 10 1 7 11
M  V30 11 2 8 12
M  V30 12 2 11 13
M  V30 13 1 13 14
M  V30 14 1 12 13
M  V30 15 1 4 15
M  V30 16 1 7 16
M  V30 17 1 8 17
M  V30 18 1 10 18
M  V30 19 1 10 19
M  V30 20 1 10 20
M  V30 21 1 11 21
M  V30 22 1 12 22
M  V30 23 1 14 23
M  V30 24 1 14 24
M  V30 END BOND
M  V30 END CTAB
M  END
>  <Column 1>
3269

>  <level_0>
5434

>  <index>
5435

>  <Unnamed: 0>
5435

>  <NO.>
5447

>  <Name>
sulfacetamide

>  <IUPAC_name>
n-(4-aminophenyl)sulfonylacetamide

>  <SMILES>
CC(=O)NS(=O)(=O)c1ccc(N)cc1

>  <CID>
5320

>  <logBB>


>  <BBB+/BBB->
BBB-

>  <Inchi>
InChI=1S/C8H10N2O3S/c1-6(11)10-14(12-13)8-4-2-7(9)3-5-8/h2-5H-9H2-1H3-(H-10-11)

>  <threshold>


>  <reference>
R15|R23|

>  <group>
C

>  <Class>
-1

>  <ABC>
10.48

>  <ABCGG>
9.74

>  <nAcid>
0

>  <nBase>
0

>  <nAromAtom>
6

>  <nAromBond>
6

>  <nAtom>
24

>  <nHeavyAtom>
14

>  <nSpiro>
0

>  <nBridgehead>
0

>  <nHetero>
6

>  <nN>
2

>  <nO>
3

>  <nF>
0

>  <BalabanJ>
2.46

>  <BertzCT>
436.16

>  <nBonds>
24

>  <nBondsO>
14

>  <nBondsS>
15

>  <nBondsD>
3

>  <nBondsT>
0

>  <nBondsA>
6

>  <nBondsM>
9

>  <nBondsKS>
18

>  <nBondsKD>
6

>  <RNCG>
0.27

>  <RPCG>
0.18

>  <FCSP3>
0.13

>  <SZ>
18.67

>  <Sm>
17.84

>  <Sv>
15.56

>  <Sse>
24.83

>  <Sp>
16.49

>  <Si>
27.21

>  <MZ>
0.78

>  <Mm>
0.74

>  <Mv>
0.65

>  <Mse>
1.03

>  <Mp>
0.69

>  <Mi>
1.13

>  <NsCH3>
1

>  <NdCH2>
0

>  <NssCH2>
0

>  <NtCH>
0

>  <NdsCH>
0

>  <NaaCH>
4

>  <NsssCH>
0

>  <NddC>
0

>  <NtsC>
0

>  <NdssC>
1

>  <NaasC>
2

>  <NaaaC>
0

>  <NssssC>
0

>  <NsNH3>
0

>  <NsNH2>
1

>  <NssNH2>
0

>  <NdNH>
0

>  <NssNH>
1

>  <NaaNH>
0

>  <NtN>
0

>  <NsssNH>
0

>  <NdsN>
0

>  <NaaN>
0

>  <NsssN>
0

>  <NddsN>
0

>  <NaasN>
0

>  <NssssN>
0

>  <NsOH>
0

>  <NdO>
3

>  <NssO>
0

>  <NaaO>
0

>  <NsF>
0

>  <NsSiH3>
0

>  <NssSiH2>
0

>  <NsssSiH>
0

>  <NssssSi>
0

>  <NsPH2>
0

>  <NssPH>
0

>  <NsssP>
0

>  <NdsssP>
0

>  <NsssssP>
0

>  <NsSH>
0

>  <NdS>
0

>  <NssS>
0

>  <NaaS>
0

>  <NdssS>
0

>  <NddssS>
1

>  <NsCl>
0

>  <NsBr>
0

>  <NsI>
0

>  <fragCpx>
14.06

>  <fMF>
0.25

>  <nHBAcc>
4

>  <nHBDon>
2

>  <Kier1>
12.07

>  <Kier2>
4.68

>  <Lipinski>
1

>  <GhoseFilter>
1

>  <FilterItLogS>
-1.75

>  <VMcGowan>
149.44

>  <LabuteASA>
81.97

>  <PEOE_VSA1>
5.73

>  <PEOE_VSA2>
4.79

>  <PEOE_VSA3>
13.14

>  <PEOE_VSA4>
0

>  <PEOE_VSA5>
0

>  <PEOE_VSA6>
0

>  <PEOE_VSA7>
24.27

>  <PEOE_VSA8>
12.61

>  <PEOE_VSA9>
4.9

>  <PEOE_VSA10>
0

>  <PEOE_VSA11>
0

>  <PEOE_VSA12>
5.91

>  <PEOE_VSA13>
10.02

>  <SMR_VSA1>
13.21

>  <SMR_VSA2>
0

>  <SMR_VSA3>
4.72

>  <SMR_VSA4>
0

>  <SMR_VSA5>
11.82

>  <SMR_VSA6>
5.73

>  <SMR_VSA7>
24.27

>  <SMR_VSA8>
0

>  <SMR_VSA9>
0

>  <SlogP_VSA1>
10.46

>  <SlogP_VSA2>
14.32

>  <SlogP_VSA3>
14.82

>  <SlogP_VSA4>
0

>  <SlogP_VSA5>
6.92

>  <SlogP_VSA6>
29.16

>  <SlogP_VSA7>
0

>  <SlogP_VSA8>
0

>  <SlogP_VSA9>
0

>  <SlogP_VSA10>
5.69

>  <SlogP_VSA11>
0

>  <EState_VSA1>
15.93

>  <EState_VSA2>
4.9

>  <EState_VSA3>
5.69

>  <EState_VSA4>
6.92

>  <EState_VSA5>
24.27

>  <EState_VSA6>
0

>  <EState_VSA7>
4.72

>  <EState_VSA8>
0

>  <EState_VSA9>
5.73

>  <EState_VSA10>
13.21

>  <VSA_EState1>
24.61

>  <VSA_EState2>
10.6

>  <VSA_EState3>
0

>  <VSA_EState4>
5.85

>  <VSA_EState5>
-0.62

>  <VSA_EState6>
5.57

>  <VSA_EState7>
0

>  <VSA_EState8>
1.13

>  <VSA_EState9>
-3.73

>  <apol>
27.53

>  <bpol>
17.56

>  <nRing>
1

>  <nHRing>
0

>  <naRing>
1

>  <naHRing>
0

>  <nARing 2>
0

>  <nAHRing 2>
0

>  <nFRing>
0

>  <nFHRing>
0

>  <nFaRing>
0

>  <nFaHRing>
0

>  <nFARing 2>
0

>  <nFAHRing 2>
0

>  <nRot>
2

>  <SLogP>
0.09

>  <SMR>
51.86

>  <TopoPSA(NO)>
89.26

>  <TopoPSA>
97.64

>  <JGI1>
0.36

>  <JGI2>
0.11

>  <JGI3>
0.07

>  <JGI4>
0.04

>  <JGI5>
0.05

>  <Diameter>
8

>  <Radius>
4

>  <TMWC10>
96.25

>  <TSRW10>
45.46

>  <MW>
214.04

>  <AMW>
8.92

>  <WPath>
307

>  <WPol>
18

>  <Zagreb1>
68

>  <Zagreb2>
75

>  <mZagreb2>
3.04

>  <yes>


>  <nAR-cont>
0.336376

>  <nHA-cont>
0.887625254

>  <MWHBN>
0.41011323

>  <MWHBN-cont>
0.436377733

>  <TPSA-cont>
0.318412169

>  <pka_cont>
0.97

>  <yes.1>


>  <BBB_SCORE>
3.000392192

>  <MMFF94 Energy>
-98.456

$$$$
Compound 2615
Actelion Java MolfileCreator 2.0

  0  0  0  0  0  0              0 V3000
M  V30 BEGIN CTAB
M  V30 COUNTS 105 110 0 0 0
M  V30 BEGIN ATOM
M  V30 1 O 5.0348 -2.6349 4.5545 0
M  V30 2 C 3.8581 -2.3995 4.7953 0
M  V30 3 O 2.852 -2.4373 3.8755 0
M  V30 4 C 3.3197 -2.0098 6.1369 0
M  V30 5 C 3.2461 -2.8507 2.5432 0 CFG=2
M  V30 6 C 3.9353 -1.6606 1.792 0 CFG=1
M  V30 7 C 1.9951 -3.3609 1.8169 0
M  V30 8 N 4.7384 -2.0392 0.576 0
M  V30 9 C 2.8519 -0.567 1.5203 0
M  V30 10 C 0.9757 -2.2353 1.5947 0 CFG=1
M  V30 11 C 5.5064 -0.8738 0.0668 0
M  V30 12 C 5.6663 -3.161 0.8674 0
M  V30 13 C 1.5616 -1.0414 0.7814 0 CFG=1
M  V30 14 C -0.3351 -2.76 1.0008 0
M  V30 15 C 6.4694 -1.188 -1.101 0
M  V30 16 C 6.6385 -3.5247 -0.2779 0
M  V30 17 C 0.4689 0.0979 0.7903 0 CFG=2
M  V30 18 C 1.9094 -1.4361 -0.6736 0
M  V30 19 C -1.3935 -1.6586 0.9821 0
M  V30 20 N 7.4516 -2.3168 -0.7609 0 CHG=1
M  V30 21 C -0.9165 -0.3957 0.2514 0 CFG=1
M  V30 22 C 0.9069 1.4138 0.0969 0
M  V30 23 C 8.4663 -1.8786 0.2887 0
M  V30 24 C 8.214 -2.7079 -2.0236 0
M  V30 25 C -1.9212 0.7549 0.3984 0 CFG=1
M  V30 26 C -0.1774 2.5079 0.1212 0
M  V30 27 C -1.5261 2.0039 -0.4209 0 CFG=2
M  V30 28 C -3.3815 0.534 0.0122 0
M  V30 29 C -2.7317 2.9429 -0.1242 0 CFG=2
M  V30 30 C -1.3936 1.7544 -1.9441 0
M  V30 31 C -3.9596 1.9698 0.1004 0 CFG=1
M  V30 32 O -2.9758 3.9011 -1.1631 0
M  V30 33 N -5.2279 2.2452 -0.6027 0
M  V30 34 C -2.342 5.0991 -1.0267 0
M  V30 35 C -6.3757 1.5763 0.038 0
M  V30 36 C -5.2176 1.9829 -2.0496 0
M  V30 37 O -1.5894 5.406 -0.115 0
M  V30 38 C -2.695 5.9959 -2.1731 0
M  V30 39 C -7.7286 2.0118 -0.5701 0
M  V30 40 C -6.5267 2.4443 -2.7335 0
M  V30 41 N -7.779 1.8008 -2.0983 0 CHG=1
M  V30 42 C -7.8769 0.3231 -2.4452 0
M  V30 43 C -9.0196 2.503 -2.6463 0
M  V30 44 H 2.9017 -1.0012 6.0888 0
M  V30 45 H 2.5588 -2.7274 6.4538 0
M  V30 46 H 4.1317 -2.0188 6.8695 0
M  V30 47 H 3.9174 -3.7048 2.6707 0
M  V30 48 H 4.6416 -1.1975 2.4944 0
M  V30 49 H 2.2718 -3.8355 0.8698 0
M  V30 50 H 1.5258 -4.1379 2.4343 0
M  V30 51 H 2.5537 -0.1591 2.4975 0
M  V30 52 H 3.2968 0.2855 1.0008 0
M  V30 53 H 0.7186 -1.8542 2.5954 0
M  V30 54 H 6.0715 -0.4031 0.8806 0
M  V30 55 H 4.8165 -0.1175 -0.3193 0
M  V30 56 H 5.0862 -4.0724 1.0443 0
M  V30 57 H 6.2402 -2.955 1.7789 0
M  V30 58 H -0.1794 -3.1533 -0.0099 0
M  V30 59 H -0.7108 -3.5951 1.6046 0
M  V30 60 H 5.8965 -1.5118 -1.9787 0
M  V30 61 H 7.0603 -0.3052 -1.3702 0
M  V30 62 H 6.0723 -3.8973 -1.1406 0
M  V30 63 H 7.3477 -4.2975 0.0394 0
M  V30 64 H 0.3122 0.3633 1.8482 0
M  V30 65 H 2.5145 -2.3435 -0.7304 0
M  V30 66 H 2.4742 -0.6427 -1.1743 0
M  V30 67 H 1.022 -1.6291 -1.2815 0
M  V30 68 H -1.6657 -1.4074 2.0156 0
M  V30 69 H -2.3002 -2.0486 0.505 0
M  V30 70 H -0.8283 -0.6564 -0.8078 0
M  V30 71 H 1.197 1.2193 -0.9401 0
M  V30 72 H 1.7939 1.8219 0.5933 0
M  V30 73 H 9.1443 -2.7153 0.4815 0
M  V30 74 H 7.9498 -1.5968 1.2078 0
M  V30 75 H 9.0211 -1.0227 -0.107 0
M  V30 76 H 7.4945 -3.0254 -2.7842 0
M  V30 77 H 8.8934 -3.529 -1.7764 0
M  V30 78 H 8.7749 -1.8354 -2.3717 0
M  V30 79 H -1.9272 1.028 1.4674 0
M  V30 80 H 0.1734 3.3718 -0.4551 0
M  V30 81 H -0.2968 2.8537 1.1563 0
M  V30 82 H -3.4583 0.1011 -0.9885 0
M  V30 83 H -3.8945 -0.14 0.7063 0
M  V30 84 H -2.5827 3.4693 0.8295 0
M  V30 85 H -0.64 1.001 -2.1872 0
M  V30 86 H -1.0949 2.6727 -2.463 0
M  V30 87 H -2.3305 1.4193 -2.3957 0
M  V30 88 H -4.186 2.1164 1.1689 0
M  V30 89 H -6.2728 0.4863 -0.0191 0
M  V30 90 H -6.4068 1.8364 1.1033 0
M  V30 91 H -4.4031 2.5247 -2.5372 0
M  V30 92 H -5.0575 0.92 -2.2588 0
M  V30 93 H -2.3495 5.5517 -3.1099 0
M  V30 94 H -3.7758 6.1568 -2.1988 0
M  V30 95 H -2.2025 6.9636 -2.0416 0
M  V30 96 H -7.89 3.0818 -0.39 0
M  V30 97 H -8.5598 1.4487 -0.1312 0
M  V30 98 H -6.6382 3.5309 -2.6317 0
M  V30 99 H -6.5284 2.1852 -3.7981 0
M  V30 100 H -7.9209 0.2268 -3.5341 0
M  V30 101 H -7.0034 -0.2039 -2.0574 0
M  V30 102 H -8.7882 -0.078 -1.9916 0
M  V30 103 H -8.9577 3.5676 -2.4017 0
M  V30 104 H -9.0439 2.3627 -3.731 0
M  V30 105 H -9.9029 2.0563 -2.1801 0
M  V30 END ATOM
M  V30 BEGIN BOND
M  V30 1 2 1 2
M  V30 2 1 2 3
M  V30 3 1 2 4
M  V30 4 1 3 5
M  V30 5 1 5 6
M  V30 6 1 5 7
M  V30 7 1 6 8
M  V30 8 1 6 9
M  V30 9 1 7 10
M  V30 10 1 8 11
M  V30 11 1 8 12
M  V30 12 1 9 13
M  V30 13 1 10 14
M  V30 14 1 11 15
M  V30 15 1 12 16
M  V30 16 1 13 17
M  V30 17 1 13 18
M  V30 18 1 14 19
M  V30 19 1 15 20
M  V30 20 1 17 21
M  V30 21 1 17 22
M  V30 22 1 20 23
M  V30 23 1 20 24
M  V30 24 1 21 25
M  V30 25 1 22 26
M  V30 26 1 25 27
M  V30 27 1 25 28
M  V30 28 1 27 29
M  V30 29 1 27 30
M  V30 30 1 28 31
M  V30 31 1 29 32
M  V30 32 1 31 33
M  V30 33 1 32 34
M  V30 34 1 33 35
M  V30 35 1 33 36
M  V30 36 2 34 37
M  V30 37 1 34 38
M  V30 38 1 35 39
M  V30 39 1 36 40
M  V30 40 1 39 41
M  V30 41 1 41 42
M  V30 42 1 41 43
M  V30 43 1 10 13
M  V30 44 1 16 20
M  V30 45 1 19 21
M  V30 46 1 26 27
M  V30 47 1 29 31
M  V30 48 1 40 41
M  V30 49 1 4 44
M  V30 50 1 4 45
M  V30 51 1 4 46
M  V30 52 1 5 47
M  V30 53 1 6 48
M  V30 54 1 7 49
M  V30 55 1 7 50
M  V30 56 1 9 51
M  V30 57 1 9 52
M  V30 58 1 10 53
M  V30 59 1 11 54
M  V30 60 1 11 55
M  V30 61 1 12 56
M  V30 62 1 12 57
M  V30 63 1 14 58
M  V30 64 1 14 59
M  V30 65 1 15 60
M  V30 66 1 15 61
M  V30 67 1 16 62
M  V30 68 1 16 63
M  V30 69 1 17 64
M  V30 70 1 18 65
M  V30 71 1 18 66
M  V30 72 1 18 67
M  V30 73 1 19 68
M  V30 74 1 19 69
M  V30 75 1 21 70
M  V30 76 1 22 71
M  V30 77 1 22 72
M  V30 78 1 23 73
M  V30 79 1 23 74
M  V30 80 1 23 75
M  V30 81 1 24 76
M  V30 82 1 24 77
M  V30 83 1 24 78
M  V30 84 1 25 79
M  V30 85 1 26 80
M  V30 86 1 26 81
M  V30 87 1 28 82
M  V30 88 1 28 83
M  V30 89 1 29 84
M  V30 90 1 30 85
M  V30 91 1 30 86
M  V30 92 1 30 87
M  V30 93 1 31 88
M  V30 94 1 35 89
M  V30 95 1 35 90
M  V30 96 1 36 91
M  V30 97 1 36 92
M  V30 98 1 38 93
M  V30 99 1 38 94
M  V30 100 1 38 95
M  V30 101 1 39 96
M  V30 102 1 39 97
M  V30 103 1 40 98
M  V30 104 1 40 99
M  V30 105 1 42 100
M  V30 106 1 42 101
M  V30 107 1 42 102
M  V30 108 1 43 103
M  V30 109 1 43 104
M  V30 110 1 43 105
M  V30 END BOND
M  V30 BEGIN COLLECTION
M  V30 MDLV30/STEABS ATOMS=(10 5 6 10 13 17 21 25 27 29 31)
M  V30 END COLLECTION
M  V30 END CTAB
M  END
>  <Column 1>
3271

>  <level_0>
5437

>  <index>
5438

>  <Unnamed: 0>
5438

>  <NO.>
5450

>  <Name>
pipecuronium bromide

>  <IUPAC_name>
[(2s-3s-5s-8r-9s-10s-13s-14s-16s-17r)-17-acetyloxy-2-16-bis(4-4-dimethylpiperazin-4-ium-1-yl)-10-13-dimethyl-2-3-4-5-6-7-8-9-11-12-14-15-16-17-tetradecahydro-1h-cyclopenta[a]phenanthren-3-yl] acetate;dibromide

>  <SMILES>
CC(=O)O[C@H]1C[C@@H]2CC[C@@H]3[C@H](CC[C@@]4(C)[C@H]3C[C@H](N3CC[N+](C)(C)CC3)[C@@H]4OC(C)=O)[C@@]2(C)C[C@@H]1N1CC[N+](C)(C)CC1

>  <CID>
50192

>  <logBB>


>  <BBB+/BBB->
BBB-

>  <Inchi>
InChI=1S/C35H62N4O4/c1-24(40)42-32-21-26-9-10-27-28(35(26-4)23-31(32)37-15-19-39(7-8)20-16-37)11-12-34(3)29(27)22-30(33(34)43-25(2)41)36-13-17-38(5-6)18-14-36/h26-33H-9-23H2-1-8H3/q+2/t26--27+-28--29--30--31--32--33--34--35-/m0/s1

>  <threshold>


>  <reference>
R15|

>  <group>
C

>  <Class>
-1

>  <ABC>
34.84

>  <ABCGG>
25.04

>  <nAcid>
0

>  <nBase>
4

>  <nAromAtom>
0

>  <nAromBond>
0

>  <nAtom>
105

>  <nHeavyAtom>
43

>  <nSpiro>
0

>  <nBridgehead>
0

>  <nHetero>
8

>  <nN>
4

>  <nO>
4

>  <nF>
0

>  <BalabanJ>
1.25

>  <BertzCT>
1060.06

>  <nBonds>
110

>  <nBondsO>
48

>  <nBondsS>
108

>  <nBondsD>
2

>  <nBondsT>
0

>  <nBondsA>
0

>  <nBondsM>
2

>  <nBondsKS>
108

>  <nBondsKD>
2

>  <RNCG>
0.15

>  <RPCG>
0.06

>  <FCSP3>
0.94

>  <SZ>
55.33

>  <Sm>
50.2

>  <Sv>
57.69

>  <Sse>
103.5

>  <Sp>
64.31

>  <Si>
119.87

>  <MZ>
0.53

>  <Mm>
0.48

>  <Mv>
0.55

>  <Mse>
0.99

>  <Mp>
0.61

>  <Mi>
1.14

>  <NsCH3>
8

>  <NdCH2>
0

>  <NssCH2>
15

>  <NtCH>
0

>  <NdsCH>
0

>  <NaaCH>
0

>  <NsssCH>
8

>  <NddC>
0

>  <NtsC>
0

>  <NdssC>
2

>  <NaasC>
0

>  <NaaaC>
0

>  <NssssC>
2

>  <NsNH3>
0

>  <NsNH2>
0

>  <NssNH2>
0

>  <NdNH>
0

>  <NssNH>
0

>  <NaaNH>
0

>  <NtN>
0

>  <NsssNH>
0

>  <NdsN>
0

>  <NaaN>
0

>  <NsssN>
2

>  <NddsN>
0

>  <NaasN>
0

>  <NssssN>
2

>  <NsOH>
0

>  <NdO>
2

>  <NssO>
2

>  <NaaO>
0

>  <NsF>
0

>  <NsSiH3>
0

>  <NssSiH2>
0

>  <NsssSiH>
0

>  <NssssSi>
0

>  <NsPH2>
0

>  <NssPH>
0

>  <NsssP>
0

>  <NdsssP>
0

>  <NsssssP>
0

>  <NsSH>
0

>  <NdS>
0

>  <NssS>
0

>  <NaaS>
0

>  <NdssS>
0

>  <NddssS>
0

>  <NsCl>
0

>  <NsBr>
0

>  <NsI>
0

>  <fragCpx>
498.08

>  <fMF>
0.28

>  <nHBAcc>
6

>  <nHBDon>
0

>  <Kier1>
32.92

>  <Kier2>
11.91

>  <Lipinski>
0

>  <GhoseFilter>
0

>  <FilterItLogS>
-5.9

>  <VMcGowan>
497.95

>  <LabuteASA>
261.12

>  <PEOE_VSA1>
18.44

>  <PEOE_VSA2>
19.39

>  <PEOE_VSA3>
0

>  <PEOE_VSA4>
0

>  <PEOE_VSA5>
0

>  <PEOE_VSA6>
13.85

>  <PEOE_VSA7>
74.03

>  <PEOE_VSA8>
57.53

>  <PEOE_VSA9>
54.37

>  <PEOE_VSA10>
12.21

>  <PEOE_VSA11>
0

>  <PEOE_VSA12>
0

>  <PEOE_VSA13>
0

>  <SMR_VSA1>
28.03

>  <SMR_VSA2>
0

>  <SMR_VSA3>
9.8

>  <SMR_VSA4>
34.5

>  <SMR_VSA5>
96.93

>  <SMR_VSA6>
80.55

>  <SMR_VSA7>
0

>  <SMR_VSA8>
0

>  <SMR_VSA9>
0

>  <SlogP_VSA1>
0

>  <SlogP_VSA2>
135.54

>  <SlogP_VSA3>
19.06

>  <SlogP_VSA4>
34.5

>  <SlogP_VSA5>
72.64

>  <SlogP_VSA6>
0

>  <SlogP_VSA7>
0

>  <SlogP_VSA8>
0

>  <SlogP_VSA9>
0

>  <SlogP_VSA10>
0

>  <SlogP_VSA11>
0

>  <EState_VSA1>
0

>  <EState_VSA2>
34.98

>  <EState_VSA3>
35.76

>  <EState_VSA4>
80.59

>  <EState_VSA5>
25.68

>  <EState_VSA6>
13.85

>  <EState_VSA7>
0

>  <EState_VSA8>
51.84

>  <EState_VSA9>
9.47

>  <EState_VSA10>
9.59

>  <VSA_EState1>
14.62

>  <VSA_EState2>
30.19

>  <VSA_EState3>
0

>  <VSA_EState4>
0.31

>  <VSA_EState5>
2.35

>  <VSA_EState6>
0.66

>  <VSA_EState7>
8.22

>  <VSA_EState8>
17.3

>  <VSA_EState9>
9.36

>  <apol>
107.4

>  <bpol>
75.39

>  <nRing>
6

>  <nHRing>
2

>  <naRing>
0

>  <naHRing>
0

>  <nARing 2>
6

>  <nAHRing 2>
2

>  <nFRing>
1

>  <nFHRing>
0

>  <nFaRing>
0

>  <nFaHRing>
0

>  <nFARing 2>
1

>  <nFAHRing 2>
0

>  <nRot>
4

>  <SLogP>
3.63

>  <SMR>
168.01

>  <TopoPSA(NO)>
59.08

>  <TopoPSA>
59.08

>  <JGI1>
0.3

>  <JGI2>
0.1

>  <JGI3>
0.06

>  <JGI4>
0.06

>  <JGI5>
0.03

>  <Diameter>
17

>  <Radius>
9

>  <TMWC10>
174.42

>  <TSRW10>
96.22

>  <MW>
602.48

>  <AMW>
5.74

>  <WPath>
6152

>  <WPol>
84

>  <Zagreb1>
250

>  <Zagreb2>
306

>  <mZagreb2>
8.75

>  <yes>


>  <nAR-cont>
0

>  <nHA-cont>
0.205638778

>  <MWHBN>
0.24444431

>  <MWHBN-cont>
0.968622401

>  <TPSA-cont>
0.587584914

>  <pka_cont>
0.97

>  <yes.1>


>  <BBB_SCORE>
3.318742206

>  <MMFF94 Energy>
322.05

$$$$
Compound 2616
Actelion Java MolfileCreator 2.0

  0  0  0  0  0  0              0 V3000
M  V30 BEGIN CTAB
M  V30 COUNTS 60 63 0 0 0
M  V30 BEGIN ATOM
M  V30 1 O 1.2866 -4.9122 4.4282 0
M  V30 2 C 1.0136 -4.2416 3.4347 0
M  V30 3 C -0.0789 -3.245 3.5137 0
M  V30 4 C 1.7184 -4.443 2.1223 0
M  V30 5 C -0.4715 -2.5039 2.4592 0
M  V30 6 C 1.6619 -3.1832 1.2715 0
M  V30 7 C -1.5776 -1.5352 2.5761 0
M  V30 8 C 0.2246 -2.6207 1.0842 0 CFG=2
M  V30 9 C -1.8564 -0.6605 1.5908 0
M  V30 10 C -2.4482 -1.548 3.8108 0
M  V30 11 C 0.3182 -1.1907 0.4474 0 CFG=2
M  V30 12 C -0.584 -3.5963 0.1964 0
M  V30 13 C -1.0871 -0.5428 0.3036 0 CFG=2
M  V30 14 C 1.111 -1.0966 -0.8779 0
M  V30 15 C -0.8923 0.9074 -0.1644 0 CFG=1
M  V30 16 C 1.1964 0.3475 -1.4116 0
M  V30 17 C -0.1913 1.0054 -1.5477 0 CFG=2
M  V30 18 C -2.1171 1.7977 -0.3328 0
M  V30 19 C -0.2114 2.565 -1.7553 0 CFG=1
M  V30 20 C -0.979 0.2894 -2.6823 0
M  V30 21 C -1.6391 2.9447 -1.2449 0
M  V30 22 O 0.7667 3.1378 -0.8531 0
M  V30 23 C 0.0193 2.9537 -3.2417 0
M  V30 24 C 0.9556 4.4843 -0.8656 0
M  V30 25 O -0.9124 3.1997 -4.0121 0
M  V30 26 C 1.4299 2.8951 -3.7759 0
M  V30 27 O 0.415 5.267 -1.6299 0
M  V30 28 C 1.948 4.8713 0.1867 0
M  V30 29 H -0.5344 -3.1824 4.495 0
M  V30 30 H 1.2656 -5.2975 1.6103 0
M  V30 31 H 2.7665 -4.6877 2.327 0
M  V30 32 H 2.2933 -2.4182 1.7449 0
M  V30 33 H 2.1188 -3.4102 0.3011 0
M  V30 34 H -2.718 -0.0046 1.6994 0
M  V30 35 H -1.8716 -1.2574 4.6954 0
M  V30 36 H -3.2875 -0.8478 3.7317 0
M  V30 37 H -2.8778 -2.5425 3.9733 0
M  V30 38 H 0.8845 -0.5736 1.166 0
M  V30 39 H -0.6904 -4.5796 0.668 0
M  V30 40 H -1.601 -3.2426 0.0013 0
M  V30 41 H -0.0958 -3.7525 -0.7709 0
M  V30 42 H -1.6782 -1.0759 -0.448 0
M  V30 43 H 2.1376 -1.4486 -0.7311 0
M  V30 44 H 0.6665 -1.7477 -1.6371 0
M  V30 45 H -0.2598 1.3981 0.5932 0
M  V30 46 H 1.7167 0.3396 -2.3754 0
M  V30 47 H 1.8297 0.9222 -0.7248 0
M  V30 48 H -2.9478 1.2577 -0.8007 0
M  V30 49 H -2.4764 2.1853 0.6261 0
M  V30 50 H -1.1472 -0.7712 -2.4815 0
M  V30 51 H -0.4265 0.3372 -3.6273 0
M  V30 52 H -1.962 0.7364 -2.8596 0
M  V30 53 H -1.6355 3.8789 -0.6734 0
M  V30 54 H -2.3616 3.0707 -2.058 0
M  V30 55 H 1.5476 3.6491 -4.5593 0
M  V30 56 H 2.1628 3.105 -2.9952 0
M  V30 57 H 1.6182 1.9038 -4.1934 0
M  V30 58 H 1.593 4.5468 1.1681 0
M  V30 59 H 2.9192 4.4243 -0.0387 0
M  V30 60 H 2.0561 5.9596 0.2002 0
M  V30 END ATOM
M  V30 BEGIN BOND
M  V30 1 2 1 2
M  V30 2 1 2 3
M  V30 3 1 2 4
M  V30 4 2 3 5
M  V30 5 1 4 6
M  V30 6 1 5 7
M  V30 7 1 5 8
M  V30 8 2 7 9
M  V30 9 1 7 10
M  V30 10 1 8 11
M  V30 11 1 8 12
M  V30 12 1 9 13
M  V30 13 1 11 14
M  V30 14 1 13 15
M  V30 15 1 14 16
M  V30 16 1 15 17
M  V30 17 1 15 18
M  V30 18 1 17 19
M  V30 19 1 17 20
M  V30 20 1 18 21
M  V30 21 1 19 22
M  V30 22 1 19 23
M  V30 23 1 22 24
M  V30 24 2 23 25
M  V30 25 1 23 26
M  V30 26 2 24 27
M  V30 27 1 24 28
M  V30 28 1 6 8
M  V30 29 1 11 13
M  V30 30 1 16 17
M  V30 31 1 19 21
M  V30 32 1 3 29
M  V30 33 1 4 30
M  V30 34 1 4 31
M  V30 35 1 6 32
M  V30 36 1 6 33
M  V30 37 1 9 34
M  V30 38 1 10 35
M  V30 39 1 10 36
M  V30 40 1 10 37
M  V30 41 1 11 38
M  V30 42 1 12 39
M  V30 43 1 12 40
M  V30 44 1 12 41
M  V30 45 1 13 42
M  V30 46 1 14 43
M  V30 47 1 14 44
M  V30 48 1 15 45
M  V30 49 1 16 46
M  V30 50 1 16 47
M  V30 51 1 18 48
M  V30 52 1 18 49
M  V30 53 1 20 50
M  V30 54 1 20 51
M  V30 55 1 20 52
M  V30 56 1 21 53
M  V30 57 1 21 54
M  V30 58 1 26 55
M  V30 59 1 26 56
M  V30 60 1 26 57
M  V30 61 1 28 58
M  V30 62 1 28 59
M  V30 63 1 28 60
M  V30 END BOND
M  V30 BEGIN COLLECTION
M  V30 MDLV30/STEABS ATOMS=(6 8 11 13 15 17 19)
M  V30 END COLLECTION
M  V30 END CTAB
M  END
>  <Column 1>
3273

>  <level_0>
5440

>  <index>
5441

>  <Unnamed: 0>
5441

>  <NO.>
5453

>  <Name>
megestrolacetate

>  <IUPAC_name>
[(8r-9s-10r-13s-14s-17r)-17-acetyl-6-10-13-trimethyl-3-oxo-2-8-9-11-12-14-15-16-octahydro-1h-cyclopenta[a]phenanthren-17-yl] acetate

>  <SMILES>
CC(=O)O[C@]1(C(C)=O)CC[C@H]2[C@@H]3C=C(C)C4=CC(=O)CC[C@]4(C)[C@H]3CC[C@@]21C

>  <CID>
11683

>  <logBB>


>  <BBB+/BBB->
BBB-

>  <Inchi>
InChI=1S/C24H32O4/c1-14-12-18-19(22(4)9-6-17(27)13-21(14)22)7-10-23(5)20(18)8-11-24(23-15(2)25)28-16(3)26/h12-13-18-20H-6-11H2-1-5H3/t18--19+-20+-22--23+-24+/m1/s1

>  <threshold>


>  <reference>
R15|

>  <group>
C

>  <Class>
-1

>  <ABC>
22.43

>  <ABCGG>
18.46

>  <nAcid>
0

>  <nBase>
0

>  <nAromAtom>
0

>  <nAromBond>
0

>  <nAtom>
60

>  <nHeavyAtom>
28

>  <nSpiro>
0

>  <nBridgehead>
0

>  <nHetero>
4

>  <nN>
0

>  <nO>
4

>  <nF>
0

>  <BalabanJ>
1.67

>  <BertzCT>
820.46

>  <nBonds>
63

>  <nBondsO>
31

>  <nBondsS>
58

>  <nBondsD>
5

>  <nBondsT>
0

>  <nBondsA>
0

>  <nBondsM>
5

>  <nBondsKS>
58

>  <nBondsKD>
5

>  <RNCG>
0.24

>  <RPCG>
0.16

>  <FCSP3>
0.71

>  <SZ>
34.67

>  <Sm>
32.01

>  <Sv>
35.53

>  <Sse>
59.53

>  <Sp>
38.7

>  <Si>
67.48

>  <MZ>
0.58

>  <Mm>
0.53

>  <Mv>
0.59

>  <Mse>
0.99

>  <Mp>
0.64

>  <Mi>
1.12

>  <NsCH3>
5

>  <NdCH2>
0

>  <NssCH2>
6

>  <NtCH>
0

>  <NdsCH>
2

>  <NaaCH>
0

>  <NsssCH>
3

>  <NddC>
0

>  <NtsC>
0

>  <NdssC>
5

>  <NaasC>
0

>  <NaaaC>
0

>  <NssssC>
3

>  <NsNH3>
0

>  <NsNH2>
0

>  <NssNH2>
0

>  <NdNH>
0

>  <NssNH>
0

>  <NaaNH>
0

>  <NtN>
0

>  <NsssNH>
0

>  <NdsN>
0

>  <NaaN>
0

>  <NsssN>
0

>  <NddsN>
0

>  <NaasN>
0

>  <NssssN>
0

>  <NsOH>
0

>  <NdO>
3

>  <NssO>
1

>  <NaaO>
0

>  <NsF>
0

>  <NsSiH3>
0

>  <NssSiH2>
0

>  <NsssSiH>
0

>  <NssssSi>
0

>  <NsPH2>
0

>  <NssPH>
0

>  <NsssP>
0

>  <NdsssP>
0

>  <NsssssP>
0

>  <NsSH>
0

>  <NdS>
0

>  <NssS>
0

>  <NaaS>
0

>  <NdssS>
0

>  <NddssS>
0

>  <NsCl>
0

>  <NsBr>
0

>  <NsI>
0

>  <fragCpx>
205.04

>  <fMF>
0.28

>  <nHBAcc>
4

>  <nHBDon>
0

>  <Kier1>
21.24

>  <Kier2>
7.02

>  <Lipinski>
1

>  <GhoseFilter>
1

>  <FilterItLogS>
-4.77

>  <VMcGowan>
307.56

>  <LabuteASA>
167.33

>  <PEOE_VSA1>
4.74

>  <PEOE_VSA2>
14.38

>  <PEOE_VSA3>
0

>  <PEOE_VSA4>
0

>  <PEOE_VSA5>
0

>  <PEOE_VSA6>
25.5

>  <PEOE_VSA7>
80.77

>  <PEOE_VSA8>
18.76

>  <PEOE_VSA9>
0

>  <PEOE_VSA10>
0

>  <PEOE_VSA11>
17.17

>  <PEOE_VSA12>
0

>  <PEOE_VSA13>
0

>  <SMR_VSA1>
19.12

>  <SMR_VSA2>
0

>  <SMR_VSA3>
0

>  <SMR_VSA4>
28.58

>  <SMR_VSA5>
78.74

>  <SMR_VSA6>
0

>  <SMR_VSA7>
23.3

>  <SMR_VSA8>
0

>  <SMR_VSA9>
0

>  <SlogP_VSA1>
0

>  <SlogP_VSA2>
23.14

>  <SlogP_VSA3>
19.12

>  <SlogP_VSA4>
28.58

>  <SlogP_VSA5>
73.14

>  <SlogP_VSA6>
23.3

>  <SlogP_VSA7>
0

>  <SlogP_VSA8>
0

>  <SlogP_VSA9>
0

>  <SlogP_VSA10>
0

>  <SlogP_VSA11>
0

>  <EState_VSA1>
5.6

>  <EState_VSA2>
28.37

>  <EState_VSA3>
30.6

>  <EState_VSA4>
25.68

>  <EState_VSA5>
18.07

>  <EState_VSA6>
6.92

>  <EState_VSA7>
6.08

>  <EState_VSA8>
26.85

>  <EState_VSA9>
4.74

>  <EState_VSA10>
14.38

>  <VSA_EState1>
5.82

>  <VSA_EState2>
36.75

>  <VSA_EState3>
0

>  <VSA_EState4>
1.15

>  <VSA_EState5>
1.03

>  <VSA_EState6>
0

>  <VSA_EState7>
9.2

>  <VSA_EState8>
9.63

>  <VSA_EState9>
0

>  <apol>
64.63

>  <bpol>
36.44

>  <nRing>
4

>  <nHRing>
0

>  <naRing>
0

>  <naHRing>
0

>  <nARing 2>
4

>  <nAHRing 2>
0

>  <nFRing>
1

>  <nFHRing>
0

>  <nFaRing>
0

>  <nFaHRing>
0

>  <nFARing 2>
1

>  <nFAHRing 2>
0

>  <nRot>
2

>  <SLogP>
4.58

>  <SMR>
106.41

>  <TopoPSA(NO)>
60.44

>  <TopoPSA>
60.44

>  <JGI1>
0.31

>  <JGI2>
0.14

>  <JGI3>
0.07

>  <JGI4>
0.06

>  <JGI5>
0.03

>  <Diameter>
12

>  <Radius>
6

>  <TMWC10>
139.66

>  <TSRW10>
79.46

>  <MW>
384.23

>  <AMW>
6.4

>  <WPath>
1759

>  <WPol>
62

>  <Zagreb1>
164

>  <Zagreb2>
209

>  <mZagreb2>
5.81

>  <yes>


>  <nAR-cont>
0.199399

>  <nHA-cont>
0.82432561

>  <MWHBN>
0.204063042

>  <MWHBN-cont>
0.999999307

>  <TPSA-cont>
0.578091269

>  <pka_cont>
0.97

>  <yes.1>


>  <BBB_SCORE>
4.164906109

>  <MMFF94 Energy>
78.758

$$$$
Compound 2617
Actelion Java MolfileCreator 2.0

  0  0  0  0  0  0              0 V3000
M  V30 BEGIN CTAB
M  V30 COUNTS 46 47 0 0 0
M  V30 BEGIN ATOM
M  V30 1 O -4.814 -0.6303 5.2885 0
M  V30 2 C -4.4533 -0.5144 4.1199 0
M  V30 3 C -3.0137 -0.3262 3.7903 0
M  V30 4 C -5.4362 -0.6247 2.9787 0
M  V30 5 C -2.5869 -0.2237 2.4534 0
M  V30 6 C -2.0892 -0.2701 4.8388 0
M  V30 7 C -4.9713 0.1619 1.7669 0
M  V30 8 C -1.2088 -0.1041 2.1829 0
M  V30 9 C -3.5877 -0.2971 1.3246 0
M  V30 10 C -0.7334 -0.1257 4.5628 0
M  V30 11 O -0.8662 -0.0496 0.8569 0
M  V30 12 C -0.2943 -0.0472 3.2404 0
M  V30 13 C 0.5284 0.0025 0.529 0
M  V30 14 C 0.6399 0.0168 -1.0 0 CFG=1
M  V30 15 O 0.0167 1.211 -1.5081 0
M  V30 16 C 2.1133 -0.007 -1.4479 0
M  V30 17 N 2.1833 -0.0395 -2.9138 0
M  V30 18 C 3.5137 0.1665 -3.5092 0
M  V30 19 C 4.0024 1.6122 -3.3175 0
M  V30 20 C 3.3492 -0.0952 -5.0182 0
M  V30 21 C 4.556 -0.8177 -2.9551 0
M  V30 22 H -6.4009 -0.2284 3.3143 0
M  V30 23 H -5.564 -1.6852 2.7359 0
M  V30 24 H -2.4231 -0.3444 5.8722 0
M  V30 25 H -5.6847 0.0369 0.9446 0
M  V30 26 H -4.9439 1.2319 2.0114 0
M  V30 27 H -3.2751 0.3409 0.49 0
M  V30 28 H -3.63 -1.3305 0.9601 0
M  V30 29 H -0.0164 -0.0819 5.3792 0
M  V30 30 H 0.7725 0.058 3.0726 0
M  V30 31 H 1.0418 -0.8788 0.9301 0
M  V30 32 H 0.96 0.9246 0.9364 0
M  V30 33 H 0.0925 -0.8344 -1.4227 0
M  V30 34 H -0.8787 1.2244 -1.1208 0
M  V30 35 H 2.6069 0.8907 -1.0619 0
M  V30 36 H 2.6039 -0.8905 -1.0266 0
M  V30 37 H 1.5326 0.6714 -3.2641 0
M  V30 38 H 4.2113 1.8403 -2.2672 0
M  V30 39 H 4.9297 1.788 -3.8752 0
M  V30 40 H 3.2616 2.3355 -3.6778 0
M  V30 41 H 2.6255 0.594 -5.4697 0
M  V30 42 H 4.3 0.0346 -5.548 0
M  V30 43 H 3.0021 -1.1174 -5.2113 0
M  V30 44 H 4.7774 -0.6273 -1.8992 0
M  V30 45 H 4.2132 -1.8547 -3.0475 0
M  V30 46 H 5.5024 -0.7347 -3.5021 0
M  V30 END ATOM
M  V30 BEGIN BOND
M  V30 1 2 1 2
M  V30 2 1 2 3
M  V30 3 1 2 4
M  V30 4 2 3 5
M  V30 5 1 3 6
M  V30 6 1 4 7
M  V30 7 1 5 8
M  V30 8 1 5 9
M  V30 9 2 6 10
M  V30 10 1 8 11
M  V30 11 2 8 12
M  V30 12 1 11 13
M  V30 13 1 13 14
M  V30 14 1 14 15
M  V30 15 1 14 16
M  V30 16 1 16 17
M  V30 17 1 17 18
M  V30 18 1 18 19
M  V30 19 1 18 20
M  V30 20 1 18 21
M  V30 21 1 7 9
M  V30 22 1 10 12
M  V30 23 1 4 22
M  V30 24 1 4 23
M  V30 25 1 6 24
M  V30 26 1 7 25
M  V30 27 1 7 26
M  V30 28 1 9 27
M  V30 29 1 9 28
M  V30 30 1 10 29
M  V30 31 1 12 30
M  V30 32 1 13 31
M  V30 33 1 13 32
M  V30 34 1 14 33
M  V30 35 1 15 34
M  V30 36 1 16 35
M  V30 37 1 16 36
M  V30 38 1 17 37
M  V30 39 1 19 38
M  V30 40 1 19 39
M  V30 41 1 19 40
M  V30 42 1 20 41
M  V30 43 1 20 42
M  V30 44 1 20 43
M  V30 45 1 21 44
M  V30 46 1 21 45
M  V30 47 1 21 46
M  V30 END BOND
M  V30 BEGIN COLLECTION
M  V30 MDLV30/STEABS ATOMS=(1 14)
M  V30 END COLLECTION
M  V30 END CTAB
M  END
>  <Column 1>
3274

>  <level_0>
5442

>  <index>
5443

>  <Unnamed: 0>
5443

>  <NO.>
5455

>  <Name>
levobunolol

>  <IUPAC_name>
5-[(2s)-3-(tert-butylamino)-2-hydroxypropoxy]-3-4-dihydro-2h-naphthalen-1-one

>  <SMILES>
CC(C)(C)NC[C@H](O)COc1cccc2c1CCCC2=O

>  <CID>
39468

>  <logBB>


>  <BBB+/BBB->
BBB+

>  <Inchi>
InChI=1S/C17H25NO3/c1-17(2-3)18-10-12(19)11-21-16-9-5-6-13-14(16)7-4-8-15(13)20/h5-6-9-12-18-19H-4-7-8-10-11H2-1-3H3/t12-/m0/s1

>  <threshold>


>  <reference>
R15|R27|

>  <group>
C

>  <Class>
1

>  <ABC>
16.13

>  <ABCGG>
13.27

>  <nAcid>
0

>  <nBase>
1

>  <nAromAtom>
6

>  <nAromBond>
6

>  <nAtom>
46

>  <nHeavyAtom>
21

>  <nSpiro>
0

>  <nBridgehead>
0

>  <nHetero>
4

>  <nN>
1

>  <nO>
3

>  <nF>
0

>  <BalabanJ>
1.76

>  <BertzCT>
505.25

>  <nBonds>
47

>  <nBondsO>
22

>  <nBondsS>
40

>  <nBondsD>
1

>  <nBondsT>
0

>  <nBondsA>
6

>  <nBondsM>
7

>  <nBondsKS>
43

>  <nBondsKD>
4

>  <RNCG>
0.27

>  <RPCG>
0.12

>  <FCSP3>
0.59

>  <SZ>
26.33

>  <Sm>
24.26

>  <Sv>
26.68

>  <Sse>
45.75

>  <Sp>
29.08

>  <Si>
52.11

>  <MZ>
0.57

>  <Mm>
0.53

>  <Mv>
0.58

>  <Mse>
0.99

>  <Mp>
0.63

>  <Mi>
1.13

>  <NsCH3>
3

>  <NdCH2>
0

>  <NssCH2>
5

>  <NtCH>
0

>  <NdsCH>
0

>  <NaaCH>
3

>  <NsssCH>
1

>  <NddC>
0

>  <NtsC>
0

>  <NdssC>
1

>  <NaasC>
3

>  <NaaaC>
0

>  <NssssC>
1

>  <NsNH3>
0

>  <NsNH2>
0

>  <NssNH2>
0

>  <NdNH>
0

>  <NssNH>
1

>  <NaaNH>
0

>  <NtN>
0

>  <NsssNH>
0

>  <NdsN>
0

>  <NaaN>
0

>  <NsssN>
0

>  <NddsN>
0

>  <NaasN>
0

>  <NssssN>
0

>  <NsOH>
1

>  <NdO>
1

>  <NssO>
1

>  <NaaO>
0

>  <NsF>
0

>  <NsSiH3>
0

>  <NssSiH2>
0

>  <NsssSiH>
0

>  <NssssSi>
0

>  <NsPH2>
0

>  <NssPH>
0

>  <NsssP>
0

>  <NdsssP>
0

>  <NsssssP>
0

>  <NsSH>
0

>  <NdS>
0

>  <NssS>
0

>  <NaaS>
0

>  <NdssS>
0

>  <NddssS>
0

>  <NsCl>
0

>  <NsBr>
0

>  <NsI>
0

>  <fragCpx>
64.04

>  <fMF>
0.22

>  <nHBAcc>
4

>  <nHBDon>
2

>  <Kier1>
17.36

>  <Kier2>
7.51

>  <Lipinski>
1

>  <GhoseFilter>
1

>  <FilterItLogS>
-4.22

>  <VMcGowan>
239.06

>  <LabuteASA>
126.06

>  <PEOE_VSA1>
15.16

>  <PEOE_VSA2>
4.79

>  <PEOE_VSA3>
0

>  <PEOE_VSA4>
0

>  <PEOE_VSA5>
0

>  <PEOE_VSA6>
12.13

>  <PEOE_VSA7>
39.68

>  <PEOE_VSA8>
29.63

>  <PEOE_VSA9>
0

>  <PEOE_VSA10>
18.46

>  <PEOE_VSA11>
5.78

>  <PEOE_VSA12>
0

>  <PEOE_VSA13>
0

>  <SMR_VSA1>
14.64

>  <SMR_VSA2>
0

>  <SMR_VSA3>
5.32

>  <SMR_VSA4>
0

>  <SMR_VSA5>
51.68

>  <SMR_VSA6>
13.15

>  <SMR_VSA7>
29.33

>  <SMR_VSA8>
0

>  <SMR_VSA9>
5.75

>  <SlogP_VSA1>
10.05

>  <SlogP_VSA2>
35.68

>  <SlogP_VSA3>
6.42

>  <SlogP_VSA4>
0

>  <SlogP_VSA5>
49.53

>  <SlogP_VSA6>
18.2

>  <SlogP_VSA7>
0

>  <SlogP_VSA8>
0

>  <SlogP_VSA9>
0

>  <SlogP_VSA10>
0

>  <SlogP_VSA11>
5.75

>  <EState_VSA1>
6.1

>  <EState_VSA2>
17.93

>  <EState_VSA3>
12.97

>  <EState_VSA4>
29.72

>  <EState_VSA5>
0

>  <EState_VSA6>
0

>  <EState_VSA7>
18.2

>  <EState_VSA8>
26.09

>  <EState_VSA9>
4.74

>  <EState_VSA10>
9.9

>  <VSA_EState1>
5.74

>  <VSA_EState2>
11.87

>  <VSA_EState3>
13.22

>  <VSA_EState4>
1.74

>  <VSA_EState5>
0.92

>  <VSA_EState6>
5.58

>  <VSA_EState7>
1.79

>  <VSA_EState8>
6.88

>  <VSA_EState9>
0

>  <apol>
48.57

>  <bpol>
28.25

>  <nRing>
2

>  <nHRing>
0

>  <naRing>
1

>  <naHRing>
0

>  <nARing 2>
1

>  <nAHRing 2>
0

>  <nFRing>
1

>  <nFHRing>
0

>  <nFaRing>
0

>  <nFaHRing>
0

>  <nFARing 2>
1

>  <nFAHRing 2>
0

>  <nRot>
5

>  <SLogP>
2.33

>  <SMR>
82.97

>  <TopoPSA(NO)>
58.56

>  <TopoPSA>
58.56

>  <JGI1>
0.25

>  <JGI2>
0.09

>  <JGI3>
0.04

>  <JGI4>
0.05

>  <JGI5>
0.02

>  <Diameter>
11

>  <Radius>
6

>  <TMWC10>
115.51

>  <TSRW10>
54.64

>  <MW>
291.18

>  <AMW>
6.33

>  <WPath>
1030

>  <WPol>
29

>  <Zagreb1>
106

>  <Zagreb2>
119

>  <mZagreb2>
4.54

>  <yes>


>  <nAR-cont>
0.816016

>  <nHA-cont>
0.994529749

>  <MWHBN>
0.351617498

>  <MWHBN-cont>
0.664190362

>  <TPSA-cont>
0.591214836

>  <pka_cont>
0.97

>  <yes.1>


>  <BBB_SCORE>
4.474260965

>  <MMFF94 Energy>
72.141

$$$$
Compound 2618
Actelion Java MolfileCreator 2.0

  0  0  0  0  0  0              0 V3000
M  V30 BEGIN CTAB
M  V30 COUNTS 34 36 0 0 0
M  V30 BEGIN ATOM
M  V30 1 N 1.027 -1.1851 3.0836 0
M  V30 2 C 0.2565 -0.1026 3.3161 0
M  V30 3 C 1.3881 -1.5077 1.8346 0
M  V30 4 N -0.087 0.1746 4.6195 0
M  V30 5 C -0.1643 0.6994 2.2348 0
M  V30 6 C 1.0195 -0.7767 0.6754 0
M  V30 7 C 2.1743 -2.6387 1.6757 0
M  V30 8 N -0.9465 1.8368 2.2703 0
M  V30 9 C 0.2145 0.375 0.9248 0
M  V30 10 C 1.4506 -1.2237 -0.5955 0
M  V30 11 C 2.6037 -3.075 0.4205 0
M  V30 12 C -1.0452 2.2156 1.0233 0
M  V30 13 N -0.3686 1.3763 0.1731 0
M  V30 14 C 2.2393 -2.3673 -0.7158 0
M  V30 15 C -0.2986 1.6388 -1.2513 0
M  V30 16 C -1.5626 1.2276 -2.0278 0
M  V30 17 C -1.4749 1.739 -3.4674 0
M  V30 18 C -1.796 -0.283 -2.0307 0
M  V30 19 H 0.2497 -0.4413 5.3399 0
M  V30 20 H -0.663 0.9822 4.8063 0
M  V30 21 H 2.4621 -3.2031 2.5603 0
M  V30 22 H 1.1826 -0.7116 -1.5078 0
M  V30 23 H 3.2179 -3.9678 0.339 0
M  V30 24 H -1.5872 3.086 0.6751 0
M  V30 25 H 2.5661 -2.7053 -1.6959 0
M  V30 26 H 0.6063 1.1926 -1.6619 0
M  V30 27 H -0.1518 2.7234 -1.3496 0
M  V30 28 H -2.4364 1.6985 -1.5588 0
M  V30 29 H -0.6191 1.3015 -3.9926 0
M  V30 30 H -1.3647 2.8284 -3.4875 0
M  V30 31 H -2.3818 1.4861 -4.0267 0
M  V30 32 H -0.9743 -0.8133 -2.5215 0
M  V30 33 H -1.9028 -0.6739 -1.0145 0
M  V30 34 H -2.7169 -0.5276 -2.5715 0
M  V30 END ATOM
M  V30 BEGIN BOND
M  V30 1 2 1 2
M  V30 2 1 1 3
M  V30 3 1 2 4
M  V30 4 1 2 5
M  V30 5 1 3 6
M  V30 6 2 3 7
M  V30 7 1 5 8
M  V30 8 2 5 9
M  V30 9 2 6 10
M  V30 10 1 7 11
M  V30 11 2 8 12
M  V30 12 1 9 13
M  V30 13 1 10 14
M  V30 14 1 13 15
M  V30 15 1 15 16
M  V30 16 1 16 17
M  V30 17 1 16 18
M  V30 18 1 6 9
M  V30 19 2 11 14
M  V30 20 1 12 13
M  V30 21 1 4 19
M  V30 22 1 4 20
M  V30 23 1 7 21
M  V30 24 1 10 22
M  V30 25 1 11 23
M  V30 26 1 12 24
M  V30 27 1 14 25
M  V30 28 1 15 26
M  V30 29 1 15 27
M  V30 30 1 16 28
M  V30 31 1 17 29
M  V30 32 1 17 30
M  V30 33 1 17 31
M  V30 34 1 18 32
M  V30 35 1 18 33
M  V30 36 1 18 34
M  V30 END BOND
M  V30 END CTAB
M  END
>  <Column 1>
3277

>  <level_0>
5448

>  <index>
5449

>  <Unnamed: 0>
5449

>  <NO.>
5461

>  <Name>
imiquimod

>  <IUPAC_name>
1-(2-methylpropyl)imidazo[4-5-c]quinolin-4-amine

>  <SMILES>
CC(C)Cn1cnc2c(N)nc3ccccc3c21

>  <CID>
57469

>  <logBB>


>  <BBB+/BBB->
BBB-

>  <Inchi>
InChI=1S/C14H16N4/c1-9(2)7-18-8-16-12-13(18)10-5-3-4-6-11(10)17-14(12)15/h3-6-8-9H-7H2-1-2H3-(H2-15-17)

>  <threshold>


>  <reference>
R15|R23|

>  <group>
C

>  <Class>
-1

>  <ABC>
14.27

>  <ABCGG>
12.19

>  <nAcid>
0

>  <nBase>
0

>  <nAromAtom>
13

>  <nAromBond>
15

>  <nAtom>
34

>  <nHeavyAtom>
18

>  <nSpiro>
0

>  <nBridgehead>
0

>  <nHetero>
4

>  <nN>
4

>  <nO>
0

>  <nF>
0

>  <BalabanJ>
1.78

>  <BertzCT>
712.21

>  <nBonds>
36

>  <nBondsO>
20

>  <nBondsS>
21

>  <nBondsD>
0

>  <nBondsT>
0

>  <nBondsA>
15

>  <nBondsM>
15

>  <nBondsKS>
30

>  <nBondsKD>
6

>  <RNCG>
0.25

>  <RPCG>
0.1

>  <FCSP3>
0.29

>  <SZ>
21.33

>  <Sm>
20.01

>  <Sv>
21.37

>  <Sse>
33.76

>  <Sp>
23.02

>  <Si>
38.49

>  <MZ>
0.63

>  <Mm>
0.59

>  <Mv>
0.63

>  <Mse>
0.99

>  <Mp>
0.68

>  <Mi>
1.13

>  <NsCH3>
2

>  <NdCH2>
0

>  <NssCH2>
1

>  <NtCH>
0

>  <NdsCH>
0

>  <NaaCH>
5

>  <NsssCH>
1

>  <NddC>
0

>  <NtsC>
0

>  <NdssC>
0

>  <NaasC>
1

>  <NaaaC>
4

>  <NssssC>
0

>  <NsNH3>
0

>  <NsNH2>
1

>  <NssNH2>
0

>  <NdNH>
0

>  <NssNH>
0

>  <NaaNH>
0

>  <NtN>
0

>  <NsssNH>
0

>  <NdsN>
0

>  <NaaN>
2

>  <NsssN>
0

>  <NddsN>
0

>  <NaasN>
1

>  <NssssN>
0

>  <NsOH>
0

>  <NdO>
0

>  <NssO>
0

>  <NaaO>
0

>  <NsF>
0

>  <NsSiH3>
0

>  <NssSiH2>
0

>  <NsssSiH>
0

>  <NssssSi>
0

>  <NsPH2>
0

>  <NssPH>
0

>  <NsssP>
0

>  <NdsssP>
0

>  <NsssssP>
0

>  <NsSH>
0

>  <NdS>
0

>  <NssS>
0

>  <NaaS>
0

>  <NdssS>
0

>  <NddssS>
0

>  <NsCl>
0

>  <NsBr>
0

>  <NsI>
0

>  <fragCpx>
94.04

>  <fMF>
0.38

>  <nHBAcc>
4

>  <nHBDon>
1

>  <Kier1>
13.01

>  <Kier2>
5.17

>  <Lipinski>
1

>  <GhoseFilter>
1

>  <FilterItLogS>
-3.51

>  <VMcGowan>
189.66

>  <LabuteASA>
105.45

>  <PEOE_VSA1>
10.3

>  <PEOE_VSA2>
0

>  <PEOE_VSA3>
9.97

>  <PEOE_VSA4>
0

>  <PEOE_VSA5>
0

>  <PEOE_VSA6>
32.05

>  <PEOE_VSA7>
11.98

>  <PEOE_VSA8>
11.93

>  <PEOE_VSA9>
17.36

>  <PEOE_VSA10>
5.52

>  <PEOE_VSA11>
5.82

>  <PEOE_VSA12>
0

>  <PEOE_VSA13>
0

>  <SMR_VSA1>
0

>  <SMR_VSA2>
0

>  <SMR_VSA3>
14.54

>  <SMR_VSA4>
5.92

>  <SMR_VSA5>
20.39

>  <SMR_VSA6>
5.73

>  <SMR_VSA7>
30.59

>  <SMR_VSA8>
0

>  <SMR_VSA9>
0

>  <SlogP_VSA1>
5.73

>  <SlogP_VSA2>
14.54

>  <SlogP_VSA3>
6.54

>  <SlogP_VSA4>
5.92

>  <SlogP_VSA5>
13.85

>  <SlogP_VSA6>
30.59

>  <SlogP_VSA7>
0

>  <SlogP_VSA8>
21.94

>  <SlogP_VSA9>
0

>  <SlogP_VSA10>
5.82

>  <SlogP_VSA11>
0

>  <EState_VSA1>
0

>  <EState_VSA2>
0

>  <EState_VSA3>
11.74

>  <EState_VSA4>
28.48

>  <EState_VSA5>
0

>  <EState_VSA6>
0

>  <EState_VSA7>
24.53

>  <EState_VSA8>
34.45

>  <EState_VSA9>
5.73

>  <EState_VSA10>
0

>  <VSA_EState1>
2.17

>  <VSA_EState2>
8.8

>  <VSA_EState3>
1.11

>  <VSA_EState4>
8.79

>  <VSA_EState5>
1.07

>  <VSA_EState6>
8.05

>  <VSA_EState7>
1.86

>  <VSA_EState8>
5.32

>  <VSA_EState9>
0

>  <apol>
38.45

>  <bpol>
19.47

>  <nRing>
3

>  <nHRing>
2

>  <naRing>
3

>  <naHRing>
2

>  <nARing 2>
0

>  <nAHRing 2>
0

>  <nFRing>
1

>  <nFHRing>
1

>  <nFaRing>
1

>  <nFaHRing>
1

>  <nFARing 2>
0

>  <nFAHRing 2>
0

>  <nRot>
2

>  <SLogP>
2.82

>  <SMR>
74.28

>  <TopoPSA(NO)>
56.73

>  <TopoPSA>
56.73

>  <JGI1>
0.18

>  <JGI2>
0.07

>  <JGI3>
0.05

>  <JGI4>
0.05

>  <JGI5>
0.03

>  <Diameter>
8

>  <Radius>
4

>  <TMWC10>
111.95

>  <TSRW10>
65.59

>  <MW>
240.14

>  <AMW>
7.06

>  <WPath>
550

>  <WPol>
29

>  <Zagreb1>
98

>  <Zagreb2>
118

>  <mZagreb2>
3.89

>  <yes>


>  <nAR-cont>
0.336376

>  <nHA-cont>
0.991161285

>  <MWHBN>
0.322654518

>  <MWHBN-cont>
0.768201737

>  <TPSA-cont>
0.603989373

>  <pka_cont>
0.97

>  <yes.1>


>  <BBB_SCORE>
4.172818636

>  <MMFF94 Energy>
35.295

$$$$
Compound 2619
Actelion Java MolfileCreator 2.0

  0  0  0  0  0  0              0 V3000
M  V30 BEGIN CTAB
M  V30 COUNTS 28 29 0 0 0
M  V30 BEGIN ATOM
M  V30 1 S -0.4024 1.8521 0.0804 0
M  V30 2 C 0.3999 1.8425 -1.4408 0
M  V30 3 C 0.2237 0.3215 0.5231 0
M  V30 4 C 1.1441 0.6752 -1.616 0
M  V30 5 C 0.3565 2.8443 -2.43 0
M  V30 6 C 1.0302 -0.188 -0.476 0
M  V30 7 C -0.1522 -0.2809 1.8585 0 CFG=1
M  V30 8 C 1.8641 0.5145 -2.8241 0
M  V30 9 C 1.0771 2.6588 -3.6119 0
M  V30 10 N -1.3111 -1.1672 1.69 0
M  V30 11 C 1.0089 -1.0208 2.5236 0
M  V30 12 C 1.8241 1.506 -3.809 0
M  V30 13 O -1.1866 -2.1757 0.7064 0
M  V30 14 C -2.3305 -1.2627 2.5989 0
M  V30 15 O -2.4887 -0.5181 3.5592 0
M  V30 16 N -3.2007 -2.2771 2.3545 0
M  V30 17 H -0.2272 3.7477 -2.2774 0
M  V30 18 H 1.5232 -1.1505 -0.4048 0
M  V30 19 H -0.4456 0.5219 2.5475 0
M  V30 20 H 2.4539 -0.3835 -2.9893 0
M  V30 21 H 1.0514 3.4263 -4.382 0
M  V30 22 H 1.329 -1.8908 1.9397 0
M  V30 23 H 1.8747 -0.3617 2.6494 0
M  V30 24 H 0.7146 -1.3871 3.5134 0
M  V30 25 H 2.3824 1.3717 -4.7322 0
M  V30 26 H -1.516 -1.7 -0.081 0
M  V30 27 H -2.9754 -2.945 1.6322 0
M  V30 28 H -3.9762 -2.4244 2.982 0
M  V30 END ATOM
M  V30 BEGIN BOND
M  V30 1 1 1 2
M  V30 2 1 1 3
M  V30 3 2 2 4
M  V30 4 1 2 5
M  V30 5 2 3 6
M  V30 6 1 3 7
M  V30 7 1 4 8
M  V30 8 2 5 9
M  V30 9 1 7 10
M  V30 10 1 7 11
M  V30 11 2 8 12
M  V30 12 1 10 13
M  V30 13 1 10 14
M  V30 14 2 14 15
M  V30 15 1 14 16
M  V30 16 1 4 6
M  V30 17 1 9 12
M  V30 18 1 5 17
M  V30 19 1 6 18
M  V30 20 1 7 19
M  V30 21 1 8 20
M  V30 22 1 9 21
M  V30 23 1 11 22
M  V30 24 1 11 23
M  V30 25 1 11 24
M  V30 26 1 12 25
M  V30 27 1 13 26
M  V30 28 1 16 27
M  V30 29 1 16 28
M  V30 END BOND
M  V30 BEGIN COLLECTION
M  V30 MDLV30/STERAC1 ATOMS=(1 7)
M  V30 END COLLECTION
M  V30 END CTAB
M  END
>  <Column 1>
3279

>  <level_0>
5450

>  <index>
5451

>  <Unnamed: 0>
5451

>  <NO.>
5463

>  <Name>
zileuton

>  <IUPAC_name>
1-[1-(1-benzothiophen-2-yl)ethyl]-1-hydroxyurea

>  <SMILES>
CC(c1cc2ccccc2s1)N(O)C(N)=O

>  <CID>
60490

>  <logBB>


>  <BBB+/BBB->
BBB-

>  <Inchi>
InChI=1S/C11H12N2O2S/c1-7(13(15)11(12)14)10-6-8-4-2-3-5-9(8)16-10/h2-7-15H-1H3-(H2-12-14)

>  <threshold>


>  <reference>
R15|R23|

>  <group>
C

>  <Class>
-1

>  <ABC>
12.3

>  <ABCGG>
11.15

>  <nAcid>
0

>  <nBase>
0

>  <nAromAtom>
9

>  <nAromBond>
10

>  <nAtom>
28

>  <nHeavyAtom>
16

>  <nSpiro>
0

>  <nBridgehead>
0

>  <nHetero>
5

>  <nN>
2

>  <nO>
2

>  <nF>
0

>  <BalabanJ>
1.91

>  <BertzCT>
490.43

>  <nBonds>
29

>  <nBondsO>
17

>  <nBondsS>
18

>  <nBondsD>
1

>  <nBondsT>
0

>  <nBondsA>
10

>  <nBondsM>
11

>  <nBondsKS>
24

>  <nBondsKD>
5

>  <RNCG>
0.23

>  <RPCG>
0.22

>  <FCSP3>
0.18

>  <SZ>
20.67

>  <Sm>
19.67

>  <Sv>
18.38

>  <Sse>
28.39

>  <Sp>
19.81

>  <Si>
31.41

>  <MZ>
0.74

>  <Mm>
0.7

>  <Mv>
0.66

>  <Mse>
1.01

>  <Mp>
0.71

>  <Mi>
1.12

>  <NsCH3>
1

>  <NdCH2>
0

>  <NssCH2>
0

>  <NtCH>
0

>  <NdsCH>
0

>  <NaaCH>
5

>  <NsssCH>
1

>  <NddC>
0

>  <NtsC>
0

>  <NdssC>
1

>  <NaasC>
1

>  <NaaaC>
2

>  <NssssC>
0

>  <NsNH3>
0

>  <NsNH2>
1

>  <NssNH2>
0

>  <NdNH>
0

>  <NssNH>
0

>  <NaaNH>
0

>  <NtN>
0

>  <NsssNH>
0

>  <NdsN>
0

>  <NaaN>
0

>  <NsssN>
1

>  <NddsN>
0

>  <NaasN>
0

>  <NssssN>
0

>  <NsOH>
1

>  <NdO>
1

>  <NssO>
0

>  <NaaO>
0

>  <NsF>
0

>  <NsSiH3>
0

>  <NssSiH2>
0

>  <NsssSiH>
0

>  <NssssSi>
0

>  <NsPH2>
0

>  <NssPH>
0

>  <NsssP>
0

>  <NdsssP>
0

>  <NsssssP>
0

>  <NsSH>
0

>  <NdS>
0

>  <NssS>
0

>  <NaaS>
1

>  <NdssS>
0

>  <NddssS>
0

>  <NsCl>
0

>  <NsBr>
0

>  <NsI>
0

>  <fragCpx>
49.05

>  <fMF>
0.32

>  <nHBAcc>
3

>  <nHBDon>
2

>  <Kier1>
12.46

>  <Kier2>
5.1

>  <Lipinski>
1

>  <GhoseFilter>
1

>  <FilterItLogS>
-1.38

>  <VMcGowan>
170.68

>  <LabuteASA>
96.86

>  <PEOE_VSA1>
5.73

>  <PEOE_VSA2>
5.21

>  <PEOE_VSA3>
4.79

>  <PEOE_VSA4>
5.06

>  <PEOE_VSA5>
11.34

>  <PEOE_VSA6>
18.2

>  <PEOE_VSA7>
24.44

>  <PEOE_VSA8>
9.58

>  <PEOE_VSA9>
6.04

>  <PEOE_VSA10>
0

>  <PEOE_VSA11>
0

>  <PEOE_VSA12>
0

>  <PEOE_VSA13>
0

>  <SMR_VSA1>
10

>  <SMR_VSA2>
0

>  <SMR_VSA3>
5.06

>  <SMR_VSA4>
5.73

>  <SMR_VSA5>
12.97

>  <SMR_VSA6>
0

>  <SMR_VSA7>
35.21

>  <SMR_VSA8>
0

>  <SMR_VSA9>
0

>  <SlogP_VSA1>
5.73

>  <SlogP_VSA2>
16.3

>  <SlogP_VSA3>
0

>  <SlogP_VSA4>
0

>  <SlogP_VSA5>
17.84

>  <SlogP_VSA6>
30.33

>  <SlogP_VSA7>
0

>  <SlogP_VSA8>
10.09

>  <SlogP_VSA9>
0

>  <SlogP_VSA10>
4.79

>  <SlogP_VSA11>
0

>  <EState_VSA1>
12.07

>  <EState_VSA2>
0

>  <EState_VSA3>
5.06

>  <EState_VSA4>
14.96

>  <EState_VSA5>
0

>  <EState_VSA6>
18.26

>  <EState_VSA7>
30.33

>  <EState_VSA8>
0

>  <EState_VSA9>
5.73

>  <EState_VSA10>
10

>  <VSA_EState1>
1.13

>  <VSA_EState2>
11.74

>  <VSA_EState3>
11.09

>  <VSA_EState4>
5.01

>  <VSA_EState5>
0

>  <VSA_EState6>
8.6

>  <VSA_EState7>
0

>  <VSA_EState8>
1.73

>  <VSA_EState9>
0

>  <apol>
33.08

>  <bpol>
15.37

>  <nRing>
2

>  <nHRing>
1

>  <naRing>
2

>  <naHRing>
1

>  <nARing 2>
0

>  <nAHRing 2>
0

>  <nFRing>
1

>  <nFHRing>
1

>  <nFaRing>
1

>  <nFaHRing>
1

>  <nFARing 2>
0

>  <nFAHRing 2>
0

>  <nRot>
2

>  <SLogP>
2.73

>  <SMR>
63.45

>  <TopoPSA(NO)>
66.56

>  <TopoPSA>
94.8

>  <JGI1>
0.21

>  <JGI2>
0.09

>  <JGI3>
0.06

>  <JGI4>
0.05

>  <JGI5>
0.03

>  <Diameter>
8

>  <Radius>
4

>  <TMWC10>
103.98

>  <TSRW10>
62.36

>  <MW>
236.06

>  <AMW>
8.43

>  <WPath>
436

>  <WPol>
23

>  <Zagreb1>
82

>  <Zagreb2>
96

>  <mZagreb2>
3.53

>  <yes>


>  <nAR-cont>
0.336376

>  <nHA-cont>
0.954961865

>  <MWHBN>
0.325430912

>  <MWHBN-cont>
0.758711139

>  <TPSA-cont>
0.338237133

>  <pka_cont>
0.97

>  <yes.1>


>  <BBB_SCORE>
3.590878839

>  <MMFF94 Energy>
-12.129

$$$$
Compound 2620
Actelion Java MolfileCreator 2.0

  0  0  0  0  0  0              0 V3000
M  V30 BEGIN CTAB
M  V30 COUNTS 38 38 0 0 0
M  V30 BEGIN ATOM
M  V30 1 O 4.4387 0.9331 0.4665 0
M  V30 2 C 3.1735 1.0004 0.9777 0
M  V30 3 C 2.7542 2.1512 1.639 0
M  V30 4 C 2.3204 -0.0835 0.8256 0
M  V30 5 O 3.6462 3.1824 1.7515 0
M  V30 6 C 1.4684 2.2341 2.1569 0
M  V30 7 C 1.0163 -0.0253 1.3448 0
M  V30 8 C 0.6022 1.1464 2.0063 0
M  V30 9 C 0.0463 -1.1813 1.1637 0
M  V30 10 O 0.7717 -2.3987 1.3368 0
M  V30 11 C -0.6975 -1.1084 -0.2166 0
M  V30 12 N -1.7592 -0.0691 -0.1309 0
M  V30 13 C -1.3543 -2.4487 -0.6287 0
M  V30 14 C -1.9579 0.6593 -1.3916 0
M  V30 15 C -0.3926 -3.4187 -1.306 0
M  V30 16 C -3.3358 1.3264 -1.3608 0
M  V30 17 C -0.8786 1.7271 -1.5817 0
M  V30 18 H 4.8387 1.7937 0.7006 0
M  V30 19 H 2.6695 -0.9724 0.3071 0
M  V30 20 H 3.2082 3.9031 2.2356 0
M  V30 21 H 1.1185 3.1243 2.6684 0
M  V30 22 H -0.412 1.2188 2.3942 0
M  V30 23 H -0.6873 -1.1538 1.9809 0
M  V30 24 H 0.1361 -3.067 1.6399 0
M  V30 25 H 0.0378 -0.843 -0.9861 0
M  V30 26 H -2.6339 -0.5055 0.1595 0
M  V30 27 H -2.1634 -2.2635 -1.3473 0
M  V30 28 H -1.8197 -2.9294 0.2402 0
M  V30 29 H -1.9434 -0.0313 -2.2432 0
M  V30 30 H -0.9348 -4.3128 -1.6309 0
M  V30 31 H 0.411 -3.7462 -0.6441 0
M  V30 32 H 0.059 -2.962 -2.1924 0
M  V30 33 H -3.4237 2.0321 -0.5268 0
M  V30 34 H -4.1319 0.5802 -1.259 0
M  V30 35 H -3.5188 1.8786 -2.289 0
M  V30 36 H 0.1203 1.2884 -1.6649 0
M  V30 37 H -0.8666 2.4368 -0.7466 0
M  V30 38 H -1.0602 2.2971 -2.4995 0
M  V30 END ATOM
M  V30 BEGIN BOND
M  V30 1 1 1 2
M  V30 2 2 2 3
M  V30 3 1 2 4
M  V30 4 1 3 5
M  V30 5 1 3 6
M  V30 6 2 4 7
M  V30 7 2 6 8
M  V30 8 1 7 9
M  V30 9 1 9 10
M  V30 10 1 9 11
M  V30 11 1 11 12
M  V30 12 1 11 13
M  V30 13 1 12 14
M  V30 14 1 13 15
M  V30 15 1 14 16
M  V30 16 1 14 17
M  V30 17 1 7 8
M  V30 18 1 1 18
M  V30 19 1 4 19
M  V30 20 1 5 20
M  V30 21 1 6 21
M  V30 22 1 8 22
M  V30 23 1 9 23
M  V30 24 1 10 24
M  V30 25 1 11 25
M  V30 26 1 12 26
M  V30 27 1 13 27
M  V30 28 1 13 28
M  V30 29 1 14 29
M  V30 30 1 15 30
M  V30 31 1 15 31
M  V30 32 1 15 32
M  V30 33 1 16 33
M  V30 34 1 16 34
M  V30 35 1 16 35
M  V30 36 1 17 36
M  V30 37 1 17 37
M  V30 38 1 17 38
M  V30 END BOND
M  V30 END CTAB
M  END
>  <Column 1>
3282

>  <level_0>
5454

>  <index>
5455

>  <Unnamed: 0>
5455

>  <NO.>
5467

>  <Name>
isoetharine

>  <IUPAC_name>
4-[1-hydroxy-2-(propan-2-ylamino)butyl]benzene-1-2-diol

>  <SMILES>
CCC(NC(C)C)C(O)c1ccc(O)c(O)c1

>  <CID>
3762

>  <logBB>


>  <BBB+/BBB->
BBB-

>  <Inchi>
InChI=1S/C13H21NO3/c1-4-10(14-8(2)3)13(17)9-5-6-11(15)12(16)7-9/h5-8-10-13-17H-4H2-1-3H3

>  <threshold>


>  <reference>
R15|

>  <group>
C

>  <Class>
-1

>  <ABC>
12.45

>  <ABCGG>
11.64

>  <nAcid>
0

>  <nBase>
1

>  <nAromAtom>
6

>  <nAromBond>
6

>  <nAtom>
38

>  <nHeavyAtom>
17

>  <nSpiro>
0

>  <nBridgehead>
0

>  <nHetero>
4

>  <nN>
1

>  <nO>
3

>  <nF>
0

>  <BalabanJ>
2.52

>  <BertzCT>
365.68

>  <nBonds>
38

>  <nBondsO>
17

>  <nBondsS>
32

>  <nBondsD>
0

>  <nBondsT>
0

>  <nBondsA>
6

>  <nBondsM>
6

>  <nBondsKS>
35

>  <nBondsKD>
3

>  <RNCG>
0.25

>  <RPCG>
0.15

>  <FCSP3>
0.54

>  <SZ>
21.67

>  <Sm>
19.92

>  <Sv>
21.59

>  <Sse>
37.98

>  <Sp>
23.48

>  <Si>
43.28

>  <MZ>
0.57

>  <Mm>
0.52

>  <Mv>
0.57

>  <Mse>
1

>  <Mp>
0.62

>  <Mi>
1.14

>  <NsCH3>
3

>  <NdCH2>
0

>  <NssCH2>
1

>  <NtCH>
0

>  <NdsCH>
0

>  <NaaCH>
3

>  <NsssCH>
3

>  <NddC>
0

>  <NtsC>
0

>  <NdssC>
0

>  <NaasC>
3

>  <NaaaC>
0

>  <NssssC>
0

>  <NsNH3>
0

>  <NsNH2>
0

>  <NssNH2>
0

>  <NdNH>
0

>  <NssNH>
1

>  <NaaNH>
0

>  <NtN>
0

>  <NsssNH>
0

>  <NdsN>
0

>  <NaaN>
0

>  <NsssN>
0

>  <NddsN>
0

>  <NaasN>
0

>  <NssssN>
0

>  <NsOH>
3

>  <NdO>
0

>  <NssO>
0

>  <NaaO>
0

>  <NsF>
0

>  <NsSiH3>
0

>  <NssSiH2>
0

>  <NsssSiH>
0

>  <NssssSi>
0

>  <NsPH2>
0

>  <NssPH>
0

>  <NsssP>
0

>  <NdsssP>
0

>  <NsssssP>
0

>  <NsSH>
0

>  <NdS>
0

>  <NssS>
0

>  <NaaS>
0

>  <NdssS>
0

>  <NddssS>
0

>  <NsCl>
0

>  <NsBr>
0

>  <NsI>
0

>  <fragCpx>
17.04

>  <fMF>
0.16

>  <nHBAcc>
4

>  <nHBDon>
4

>  <Kier1>
15.06

>  <Kier2>
6.81

>  <Lipinski>
1

>  <GhoseFilter>
1

>  <FilterItLogS>
-1.99

>  <VMcGowan>
197.86

>  <LabuteASA>
101.92

>  <PEOE_VSA1>
20.64

>  <PEOE_VSA2>
0

>  <PEOE_VSA3>
0

>  <PEOE_VSA4>
0

>  <PEOE_VSA5>
0

>  <PEOE_VSA6>
26.84

>  <PEOE_VSA7>
24.12

>  <PEOE_VSA8>
12.08

>  <PEOE_VSA9>
6.1

>  <PEOE_VSA10>
0

>  <PEOE_VSA11>
11.5

>  <PEOE_VSA12>
0

>  <PEOE_VSA13>
0

>  <SMR_VSA1>
15.32

>  <SMR_VSA2>
0

>  <SMR_VSA3>
5.32

>  <SMR_VSA4>
0

>  <SMR_VSA5>
45.38

>  <SMR_VSA6>
0

>  <SMR_VSA7>
23.76

>  <SMR_VSA8>
0

>  <SMR_VSA9>
11.5

>  <SlogP_VSA1>
5.32

>  <SlogP_VSA2>
27.4

>  <SlogP_VSA3>
0

>  <SlogP_VSA4>
0

>  <SlogP_VSA5>
38.86

>  <SlogP_VSA6>
18.2

>  <SlogP_VSA7>
0

>  <SlogP_VSA8>
0

>  <SlogP_VSA9>
0

>  <SlogP_VSA10>
0

>  <SlogP_VSA11>
11.5

>  <EState_VSA1>
6.1

>  <EState_VSA2>
23.58

>  <EState_VSA3>
5.56

>  <EState_VSA4>
6.42

>  <EState_VSA5>
12.13

>  <EState_VSA6>
6.07

>  <EState_VSA7>
20.77

>  <EState_VSA8>
5.32

>  <EState_VSA9>
0

>  <EState_VSA10>
15.32

>  <VSA_EState1>
0

>  <VSA_EState2>
0

>  <VSA_EState3>
32.08

>  <VSA_EState4>
0.6

>  <VSA_EState5>
-0.38

>  <VSA_EState6>
4.6

>  <VSA_EState7>
0.08

>  <VSA_EState8>
6.02

>  <VSA_EState9>
0

>  <apol>
39.22

>  <bpol>
21.64

>  <nRing>
1

>  <nHRing>
0

>  <naRing>
1

>  <naHRing>
0

>  <nARing 2>
0

>  <nAHRing 2>
0

>  <nFRing>
0

>  <nFHRing>
0

>  <nFaRing>
0

>  <nFaHRing>
0

>  <nFARing 2>
0

>  <nFAHRing 2>
0

>  <nRot>
5

>  <SLogP>
1.91

>  <SMR>
67.08

>  <TopoPSA(NO)>
72.72

>  <TopoPSA>
72.72

>  <JGI1>
0.26

>  <JGI2>
0.11

>  <JGI3>
0.06

>  <JGI4>
0.05

>  <JGI5>
0.03

>  <Diameter>
9

>  <Radius>
5

>  <TMWC10>
103.62

>  <TSRW10>
49.11

>  <MW>
239.15

>  <AMW>
6.29

>  <WPath>
534

>  <WPol>
24

>  <Zagreb1>
80

>  <Zagreb2>
90

>  <mZagreb2>
3.92

>  <yes>


>  <nAR-cont>
0.336376

>  <nHA-cont>
0.976740822

>  <MWHBN>
0.51731467

>  <MWHBN-cont>
0

>  <TPSA-cont>
0.492369244

>  <pka_cont>
0.97

>  <yes.1>


>  <BBB_SCORE>
2.782855309

>  <MMFF94 Energy>
46.932

$$$$
Compound 2621
Actelion Java MolfileCreator 2.0

  0  0  0  0  0  0              0 V3000
M  V30 BEGIN CTAB
M  V30 COUNTS 111 119 0 0 0
M  V30 BEGIN ATOM
M  V30 1 O -0.6452 3.3908 -4.3612 0
M  V30 2 C -0.3202 2.4744 -3.6113 0
M  V30 3 O 0.0829 1.2387 -4.0594 0
M  V30 4 C -0.2362 2.5667 -2.0427 0 CFG=1
M  V30 5 C 0.0252 1.0929 -5.4774 0
M  V30 6 C -0.8686 1.2966 -1.3855 0
M  V30 7 C 1.2828 2.738 -1.7632 0
M  V30 8 C -1.0584 3.8247 -1.624 0
M  V30 9 C -2.1458 0.813 -1.7875 0
M  V30 10 C -0.199 0.5963 -0.3637 0
M  V30 11 N 2.1601 1.7294 -2.1219 0
M  V30 12 C 2.0581 3.7542 -1.1917 0
M  V30 13 C -1.2456 4.1357 -0.1195 0 CFG=2
M  V30 14 O -2.7717 1.5256 -2.7793 0
M  V30 15 C -2.7037 -0.3354 -1.1963 0
M  V30 16 C -0.7797 -0.528 0.213 0
M  V30 17 C 3.4439 2.0222 -1.7473 0
M  V30 18 C 3.4179 3.2826 -1.1611 0
M  V30 19 C 1.6135 5.1041 -0.6928 0
M  V30 20 C -1.7742 5.5549 0.0014 0
M  V30 21 C -0.0172 3.9876 0.8007 0
M  V30 22 C -4.0592 1.1003 -3.2059 0
M  V30 23 C -2.0185 -1.0025 -0.1954 0
M  V30 24 C -0.1942 -1.4716 1.2525 0 CFG=1
M  V30 25 C 4.6141 1.2659 -1.8833 0
M  V30 26 C 4.6339 3.819 -0.6847 0
M  V30 27 N 0.997 5.0364 0.639 0
M  V30 28 C -1.0245 6.5586 0.5022 0
M  V30 29 N -2.3809 -2.1605 0.494 0
M  V30 30 C -1.5001 -2.1947 1.7051 0 CFG=1
M  V30 31 C 0.8848 -2.3587 0.5592 0 CFG=1
M  V30 32 C 0.5128 -0.7264 2.3945 0
M  V30 33 C 5.8034 1.8204 -1.4038 0
M  V30 34 C 5.8162 3.08 -0.8119 0
M  V30 35 C 0.3983 6.337 0.9953 0
M  V30 36 C -1.5766 7.956 0.6464 0
M  V30 37 C -3.748 -2.6425 0.4766 0
M  V30 38 C -1.1877 -3.5899 2.2835 0 CFG=1
M  V30 39 N 2.1533 -1.7468 1.0444 0
M  V30 40 C 0.7486 -3.9592 0.5993 0 CFG=2
M  V30 41 C 1.9224 -1.2843 2.4122 0
M  V30 42 C -1.0419 8.9055 -0.4162 0
M  V30 43 O -0.1643 -3.4745 3.3104 0
M  V30 44 C -2.3888 -4.1373 3.0836 0
M  V30 45 C -0.6532 -4.4653 1.1362 0 CFG=1
M  V30 46 C 3.3326 -2.592 0.9413 0
M  V30 47 C 1.9264 -4.5869 1.3613 0
M  V30 48 C 0.9132 -4.4459 -0.8959 0
M  V30 49 O -3.5019 -3.6352 3.1652 0
M  V30 50 O -2.01 -5.2415 3.8102 0
M  V30 51 O -0.5117 -5.8556 1.5546 0
M  V30 52 C 3.1101 -3.9686 1.4751 0
M  V30 53 C 0.856 -5.9456 -1.1682 0
M  V30 54 C -3.0505 -5.782 4.6276 0
M  V30 55 C -1.5638 -6.687 1.318 0
M  V30 56 O -2.6398 -6.345 0.8515 0
M  V30 57 C -1.2203 -8.0826 1.7368 0
M  V30 58 H 0.3349 0.0739 -5.7252 0
M  V30 59 H -0.9976 1.24 -5.8383 0
M  V30 60 H 0.7142 1.7913 -5.9624 0
M  V30 61 H -0.6615 4.702 -2.1492 0
M  V30 62 H -2.072 3.7466 -2.0441 0
M  V30 63 H 0.7838 0.8993 -0.0125 0
M  V30 64 H 1.8802 0.8636 -2.5657 0
M  V30 65 H -2.0198 3.4629 0.2728 0
M  V30 66 H -3.6656 -0.714 -1.5138 0
M  V30 67 H 0.9804 5.5913 -1.439 0
M  V30 68 H 2.4948 5.7546 -0.6203 0
M  V30 69 H -2.7895 5.736 -0.3422 0
M  V30 70 H 0.4346 2.9982 0.7365 0
M  V30 71 H -0.366 4.0215 1.8447 0
M  V30 72 H -4.0162 0.1015 -3.6521 0
M  V30 73 H -4.3994 1.7948 -3.9801 0
M  V30 74 H -4.7814 1.1398 -2.3839 0
M  V30 75 H 4.6023 0.282 -2.3401 0
M  V30 76 H 4.6564 4.7956 -0.2106 0
M  V30 77 H -1.9885 -1.5817 2.4791 0
M  V30 78 H 0.8827 -2.1019 -0.5095 0
M  V30 79 H 0.0335 -0.8802 3.3676 0
M  V30 80 H 0.544 0.3575 2.2369 0
M  V30 81 H 6.7297 1.2583 -1.4921 0
M  V30 82 H 6.7495 3.4946 -0.4401 0
M  V30 83 H 1.0511 7.1504 0.6564 0
M  V30 84 H 0.3834 6.4107 2.091 0
M  V30 85 H -1.3375 8.3421 1.6445 0
M  V30 86 H -2.6718 7.9408 0.5815 0
M  V30 87 H -4.3848 -2.0421 1.1339 0
M  V30 88 H -4.1711 -2.6219 -0.533 0
M  V30 89 H -3.7955 -3.6904 0.7805 0
M  V30 90 H 2.6439 -0.5117 2.6991 0
M  V30 91 H 1.9931 -2.0927 3.1483 0
M  V30 92 H -1.4984 9.894 -0.3005 0
M  V30 93 H -1.2734 8.5425 -1.4232 0
M  V30 94 H 0.0427 9.0287 -0.3389 0
M  V30 95 H 0.0221 -4.3861 3.6108 0
M  V30 96 H -1.3598 -4.4419 0.2983 0
M  V30 97 H 4.1716 -2.1248 1.4719 0
M  V30 98 H 3.6487 -2.6624 -0.1063 0
M  V30 99 H 1.8396 -5.6011 1.74 0
M  V30 100 H 1.8695 -4.0786 -1.2935 0
M  V30 101 H 0.1342 -3.9723 -1.5093 0
M  V30 102 H 3.9491 -4.4692 1.9484 0
M  V30 103 H 1.118 -6.1371 -2.2145 0
M  V30 104 H 1.5567 -6.5091 -0.5468 0
M  V30 105 H -0.1508 -6.3415 -1.0188 0
M  V30 106 H -2.6552 -6.6661 5.1353 0
M  V30 107 H -3.3576 -5.055 5.3858 0
M  V30 108 H -3.9021 -6.0889 4.0125 0
M  V30 109 H -0.3378 -8.4263 1.1914 0
M  V30 110 H -1.0429 -8.1125 2.8147 0
M  V30 111 H -2.0553 -8.7478 1.4994 0
M  V30 END ATOM
M  V30 BEGIN BOND
M  V30 1 2 1 2
M  V30 2 1 2 3
M  V30 3 1 2 4
M  V30 4 1 3 5
M  V30 5 1 4 6
M  V30 6 1 4 7
M  V30 7 1 4 8
M  V30 8 2 6 9
M  V30 9 1 6 10
M  V30 10 1 7 11
M  V30 11 2 7 12
M  V30 12 1 8 13
M  V30 13 1 9 14
M  V30 14 1 9 15
M  V30 15 2 10 16
M  V30 16 1 11 17
M  V30 17 1 12 18
M  V30 18 1 12 19
M  V30 19 1 13 20
M  V30 20 1 13 21
M  V30 21 1 14 22
M  V30 22 2 15 23
M  V30 23 1 16 24
M  V30 24 1 17 25
M  V30 25 1 18 26
M  V30 26 1 19 27
M  V30 27 2 20 28
M  V30 28 1 23 29
M  V30 29 1 24 30
M  V30 30 1 24 31
M  V30 31 1 24 32
M  V30 32 2 25 33
M  V30 33 2 26 34
M  V30 34 1 27 35
M  V30 35 1 28 36
M  V30 36 1 29 37
M  V30 37 1 30 38
M  V30 38 1 31 39
M  V30 39 1 31 40
M  V30 40 1 32 41
M  V30 41 1 36 42
M  V30 42 1 38 43
M  V30 43 1 38 44
M  V30 44 1 38 45
M  V30 45 1 39 46
M  V30 46 1 40 47
M  V30 47 1 40 48
M  V30 48 2 44 49
M  V30 49 1 44 50
M  V30 50 1 45 51
M  V30 51 1 46 52
M  V30 52 1 48 53
M  V30 53 1 50 54
M  V30 54 1 51 55
M  V30 55 2 55 56
M  V30 56 1 55 57
M  V30 57 1 16 23
M  V30 58 2 17 18
M  V30 59 1 21 27
M  V30 60 1 28 35
M  V30 61 1 29 30
M  V30 62 1 33 34
M  V30 63 1 39 41
M  V30 64 1 40 45
M  V30 65 2 47 52
M  V30 66 1 5 58
M  V30 67 1 5 59
M  V30 68 1 5 60
M  V30 69 1 8 61
M  V30 70 1 8 62
M  V30 71 1 10 63
M  V30 72 1 11 64
M  V30 73 1 13 65
M  V30 74 1 15 66
M  V30 75 1 19 67
M  V30 76 1 19 68
M  V30 77 1 20 69
M  V30 78 1 21 70
M  V30 79 1 21 71
M  V30 80 1 22 72
M  V30 81 1 22 73
M  V30 82 1 22 74
M  V30 83 1 25 75
M  V30 84 1 26 76
M  V30 85 1 30 77
M  V30 86 1 31 78
M  V30 87 1 32 79
M  V30 88 1 32 80
M  V30 89 1 33 81
M  V30 90 1 34 82
M  V30 91 1 35 83
M  V30 92 1 35 84
M  V30 93 1 36 85
M  V30 94 1 36 86
M  V30 95 1 37 87
M  V30 96 1 37 88
M  V30 97 1 37 89
M  V30 98 1 41 90
M  V30 99 1 41 91
M  V30 100 1 42 92
M  V30 101 1 42 93
M  V30 102 1 42 94
M  V30 103 1 43 95
M  V30 104 1 45 96
M  V30 105 1 46 97
M  V30 106 1 46 98
M  V30 107 1 47 99
M  V30 108 1 48 100
M  V30 109 1 48 101
M  V30 110 1 52 102
M  V30 111 1 53 103
M  V30 112 1 53 104
M  V30 113 1 53 105
M  V30 114 1 54 106
M  V30 115 1 54 107
M  V30 116 1 54 108
M  V30 117 1 57 109
M  V30 118 1 57 110
M  V30 119 1 57 111
M  V30 END BOND
M  V30 BEGIN COLLECTION
M  V30 MDLV30/STEABS ATOMS=(8 4 13 24 30 31 38 40 45)
M  V30 END COLLECTION
M  V30 END CTAB
M  END
>  <Column 1>
3283

>  <level_0>
5455

>  <index>
5456

>  <Unnamed: 0>
5456

>  <NO.>
5468

>  <Name>
vinorelbine

>  <IUPAC_name>
methyl (1r-9r-10s-11r-12r-19r)-11-acetyloxy-12-ethyl-4-[(12s-14r)-16-ethyl-12-methoxycarbonyl-1-10-diazatetracyclo[12.3.1.03-11.04-9]octadeca-3(11)-4-6-8-15-pentaen-12-yl]-10-hydroxy-5-methoxy-8-methyl-8-16-diazapentacyclo[10.6.1.01-9.02-7.016-19]nonadeca-2-4-6-13-tetraene-10-carboxylate

>  <SMILES>
CCC1=C[C@@H]2CN(C1)Cc1c([nH]c3ccccc13)[C@@](C(=O)OC)(c1cc3c(cc1OC)N(C)[C@H]1[C@@](O)(C(=O)OC)[C@H](OC(C)=O)[C@]4(CC)C=CCN5CC[C@]31[C@@H]54)C2

>  <CID>
5311497

>  <logBB>


>  <BBB+/BBB->
BBB-

>  <Inchi>
InChI=1S/C45H54N4O8/c1-8-27-19-28-22-44(40(51)55-6-36-30(25-48(23-27)24-28)29-13-10-11-14-33(29)46-36)32-20-31-34(21-35(32)54-5)47(4)38-43(31)16-18-49-17-12-15-42(9-2-37(43)49)39(57-26(3)50)45(38-53)41(52)56-7/h10-15-19-21-28-37-39-46-53H-8-9-16-18-22-25H2-1-7H3/t28--37--38+-39+-42+-43+-44--45-/m0/s1

>  <threshold>


>  <reference>
R15|

>  <group>
C

>  <Class>
-1

>  <ABC>
45.67

>  <ABCGG>
34.97

>  <nAcid>
0

>  <nBase>
2

>  <nAromAtom>
15

>  <nAromBond>
16

>  <nAtom>
111

>  <nHeavyAtom>
57

>  <nSpiro>
1

>  <nBridgehead>
2

>  <nHetero>
12

>  <nN>
4

>  <nO>
8

>  <nF>
0

>  <BalabanJ>
1.21

>  <BertzCT>
2247.97

>  <nBonds>
119

>  <nBondsO>
65

>  <nBondsS>
98

>  <nBondsD>
5

>  <nBondsT>
0

>  <nBondsA>
16

>  <nBondsM>
21

>  <nBondsKS>
107

>  <nBondsKD>
12

>  <RNCG>
0.1

>  <RPCG>
0.07

>  <FCSP3>
0.53

>  <SZ>
69.33

>  <Sm>
64.85

>  <Sv>
68.38

>  <Sse>
111.27

>  <Sp>
73.04

>  <Si>
125.05

>  <MZ>
0.62

>  <Mm>
0.58

>  <Mv>
0.62

>  <Mse>
1

>  <Mp>
0.66

>  <Mi>
1.13

>  <NsCH3>
7

>  <NdCH2>
0

>  <NssCH2>
9

>  <NtCH>
0

>  <NdsCH>
3

>  <NaaCH>
6

>  <NsssCH>
4

>  <NddC>
0

>  <NtsC>
0

>  <NdssC>
4

>  <NaasC>
6

>  <NaaaC>
2

>  <NssssC>
4

>  <NsNH3>
0

>  <NsNH2>
0

>  <NssNH2>
0

>  <NdNH>
0

>  <NssNH>
0

>  <NaaNH>
1

>  <NtN>
0

>  <NsssNH>
0

>  <NdsN>
0

>  <NaaN>
0

>  <NsssN>
3

>  <NddsN>
0

>  <NaasN>
0

>  <NssssN>
0

>  <NsOH>
1

>  <NdO>
3

>  <NssO>
4

>  <NaaO>
0

>  <NsF>
0

>  <NsSiH3>
0

>  <NssSiH2>
0

>  <NsssSiH>
0

>  <NssssSi>
0

>  <NsPH2>
0

>  <NssPH>
0

>  <NsssP>
0

>  <NdsssP>
0

>  <NsssssP>
0

>  <NsSH>
0

>  <NdS>
0

>  <NssS>
0

>  <NaaS>
0

>  <NdssS>
0

>  <NddssS>
0

>  <NsCl>
0

>  <NsBr>
0

>  <NsI>
0

>  <fragCpx>
1033.12

>  <fMF>
0.33

>  <nHBAcc>
11

>  <nHBDon>
2

>  <Kier1>
42.31

>  <Kier2>
15.66

>  <Lipinski>
0

>  <GhoseFilter>
0

>  <FilterItLogS>
-7.66

>  <VMcGowan>
582.45

>  <LabuteASA>
333.29

>  <PEOE_VSA1>
33.94

>  <PEOE_VSA2>
19.39

>  <PEOE_VSA3>
4.79

>  <PEOE_VSA4>
0

>  <PEOE_VSA5>
0

>  <PEOE_VSA6>
55.85

>  <PEOE_VSA7>
61.41

>  <PEOE_VSA8>
90.94

>  <PEOE_VSA9>
27.37

>  <PEOE_VSA10>
11.16

>  <PEOE_VSA11>
6.1

>  <PEOE_VSA12>
5.6

>  <PEOE_VSA13>
0

>  <SMR_VSA1>
38.44

>  <SMR_VSA2>
0

>  <SMR_VSA3>
14.78

>  <SMR_VSA4>
11.33

>  <SMR_VSA5>
87.62

>  <SMR_VSA6>
59.46

>  <SMR_VSA7>
82.58

>  <SMR_VSA8>
0

>  <SMR_VSA9>
5.75

>  <SlogP_VSA1>
9.64

>  <SlogP_VSA2>
116.14

>  <SlogP_VSA3>
45.97

>  <SlogP_VSA4>
11.33

>  <SlogP_VSA5>
68.84

>  <SlogP_VSA6>
60.2

>  <SlogP_VSA7>
0

>  <SlogP_VSA8>
10.9

>  <SlogP_VSA9>
0

>  <SlogP_VSA10>
5.69

>  <SlogP_VSA11>
5.75

>  <EState_VSA1>
45.93

>  <EState_VSA2>
17.93

>  <EState_VSA3>
50.21

>  <EState_VSA4>
52.92

>  <EState_VSA5>
26.72

>  <EState_VSA6>
7.11

>  <EState_VSA7>
37.07

>  <EState_VSA8>
58.13

>  <EState_VSA9>
18.95

>  <EState_VSA10>
14.7

>  <VSA_EState1>
23.89

>  <VSA_EState2>
53.12

>  <VSA_EState3>
14.35

>  <VSA_EState4>
1.05

>  <VSA_EState5>
-1.31

>  <VSA_EState6>
11.15

>  <VSA_EState7>
7.67

>  <VSA_EState8>
9.19

>  <VSA_EState9>
6.22

>  <apol>
121.97

>  <bpol>
69.42

>  <nRing>
9

>  <nHRing>
6

>  <naRing>
3

>  <naHRing>
1

>  <nARing 2>
6

>  <nAHRing 2>
5

>  <nFRing>
2

>  <nFHRing>
2

>  <nFaRing>
0

>  <nFaHRing>
0

>  <nFARing 2>
2

>  <nFAHRing 2>
2

>  <nRot>
7

>  <SLogP>
4.75

>  <SMR>
214.08

>  <TopoPSA(NO)>
133.87

>  <TopoPSA>
133.87

>  <JGI1>
0.24

>  <JGI2>
0.09

>  <JGI3>
0.07

>  <JGI4>
0.05

>  <JGI5>
0.03

>  <Diameter>
16

>  <Radius>
8

>  <TMWC10>
209.97

>  <TSRW10>
115.19

>  <MW>
778.39

>  <AMW>
7.01

>  <WPath>
10686

>  <WPol>
136

>  <Zagreb1>
338

>  <Zagreb2>
439

>  <mZagreb2>
12.39

>  <yes>


>  <nAR-cont>
0

>  <nHA-cont>
0

>  <MWHBN>
0.465955807

>  <MWHBN-cont>
0

>  <TPSA-cont>
0

>  <pka_cont>
0.97

>  <yes.1>


>  <BBB_SCORE>
0.485

>  <MMFF94 Energy>
256.62

$$$$
Compound 2622
Actelion Java MolfileCreator 2.0

  0  0  0  0  0  0              0 V3000
M  V30 BEGIN CTAB
M  V30 COUNTS 62 62 0 0 0
M  V30 BEGIN ATOM
M  V30 1 S -0.551 -2.8362 -6.2322 0
M  V30 2 O 0.646 -2.5615 -6.9989 0
M  V30 3 O -0.6424 -3.986 -5.3614 0
M  V30 4 N -0.872 -1.4095 -5.3758 0
M  V30 5 C -1.9192 -2.863 -7.3682 0
M  V30 6 C -1.3788 -1.5529 -4.0507 0
M  V30 7 C -0.4996 -1.5448 -2.97 0
M  V30 8 C -2.7392 -1.7704 -3.8461 0
M  V30 9 C -0.9888 -1.7334 -1.6755 0
M  V30 10 C -3.2278 -1.9569 -2.5504 0
M  V30 11 C -2.3583 -1.9463 -1.4487 0
M  V30 12 C -2.9089 -2.1501 -0.0512 0 CFG=1
M  V30 13 O -1.9915 -2.8767 0.7646 0
M  V30 14 C -3.3179 -0.8509 0.6565 0
M  V30 15 C -2.152 0.0994 0.9624 0
M  V30 16 C -2.6219 1.2965 1.8025 0
M  V30 17 N -1.5646 2.3052 2.008 0
M  V30 18 C -0.4544 1.7846 2.828 0
M  V30 19 C -2.1423 3.5329 2.5806 0
M  V30 20 C 0.8075 1.6684 1.9667 0
M  V30 21 C -1.1984 4.7263 2.4614 0
M  V30 22 C 1.9815 1.1143 2.7767 0
M  V30 23 C 3.2413 0.9937 1.9178 0
M  V30 24 C 4.4146 0.4381 2.7263 0
M  V30 25 C 5.6731 0.3168 1.8676 0
M  V30 26 C 6.842 -0.2353 2.6675 0
M  V30 27 H -0.0593 -0.7945 -5.4564 0
M  V30 28 H -2.8478 -2.9853 -6.809 0
M  V30 29 H -1.9238 -1.9343 -7.9416 0
M  V30 30 H -1.7797 -3.712 -8.0409 0
M  V30 31 H 0.5665 -1.4021 -3.1197 0
M  V30 32 H -3.4289 -1.7843 -4.6839 0
M  V30 33 H -0.2919 -1.711 -0.839 0
M  V30 34 H -4.2947 -2.1157 -2.4071 0
M  V30 35 H -3.7994 -2.787 -0.1265 0
M  V30 36 H -1.6252 -3.5879 0.2102 0
M  V30 37 H -4.0707 -0.3227 0.0582 0
M  V30 38 H -3.7923 -1.12 1.6093 0
M  V30 39 H -1.3657 -0.4502 1.4904 0
M  V30 40 H -1.7231 0.4704 0.0246 0
M  V30 41 H -3.4569 1.7613 1.2621 0
M  V30 42 H -3.0198 0.9515 2.7658 0
M  V30 43 H -0.6967 0.8118 3.2744 0
M  V30 44 H -0.2383 2.4361 3.6839 0
M  V30 45 H -3.0533 3.8026 2.0313 0
M  V30 46 H -2.4355 3.3826 3.6271 0
M  V30 47 H 1.0747 2.6548 1.5671 0
M  V30 48 H 0.6214 1.0139 1.107 0
M  V30 49 H -1.6994 5.6335 2.8152 0
M  V30 50 H -0.9052 4.8913 1.4192 0
M  V30 51 H -0.2899 4.5982 3.057 0
M  V30 52 H 1.7165 0.1294 3.18 0
M  V30 53 H 2.1809 1.7717 3.6318 0
M  V30 54 H 3.5065 1.9785 1.5145 0
M  V30 55 H 3.041 0.3371 1.0625 0
M  V30 56 H 4.1491 -0.5463 3.1302 0
M  V30 57 H 4.6153 1.0947 3.5816 0
M  V30 58 H 5.4789 -0.3418 1.0133 0
M  V30 59 H 5.9453 1.2993 1.4648 0
M  V30 60 H 7.7312 -0.3137 2.0342 0
M  V30 61 H 7.083 0.418 3.5121 0
M  V30 62 H 6.6141 -1.2322 3.0581 0
M  V30 END ATOM
M  V30 BEGIN BOND
M  V30 1 2 1 2
M  V30 2 2 1 3
M  V30 3 1 1 4
M  V30 4 1 1 5
M  V30 5 1 4 6
M  V30 6 2 6 7
M  V30 7 1 6 8
M  V30 8 1 7 9
M  V30 9 2 8 10
M  V30 10 2 9 11
M  V30 11 1 11 12
M  V30 12 1 12 13
M  V30 13 1 12 14
M  V30 14 1 14 15
M  V30 15 1 15 16
M  V30 16 1 16 17
M  V30 17 1 17 18
M  V30 18 1 17 19
M  V30 19 1 18 20
M  V30 20 1 19 21
M  V30 21 1 20 22
M  V30 22 1 22 23
M  V30 23 1 23 24
M  V30 24 1 24 25
M  V30 25 1 25 26
M  V30 26 1 10 11
M  V30 27 1 4 27
M  V30 28 1 5 28
M  V30 29 1 5 29
M  V30 30 1 5 30
M  V30 31 1 7 31
M  V30 32 1 8 32
M  V30 33 1 9 33
M  V30 34 1 10 34
M  V30 35 1 12 35
M  V30 36 1 13 36
M  V30 37 1 14 37
M  V30 38 1 14 38
M  V30 39 1 15 39
M  V30 40 1 15 40
M  V30 41 1 16 41
M  V30 42 1 16 42
M  V30 43 1 18 43
M  V30 44 1 18 44
M  V30 45 1 19 45
M  V30 46 1 19 46
M  V30 47 1 20 47
M  V30 48 1 20 48
M  V30 49 1 21 49
M  V30 50 1 21 50
M  V30 51 1 21 51
M  V30 52 1 22 52
M  V30 53 1 22 53
M  V30 54 1 23 54
M  V30 55 1 23 55
M  V30 56 1 24 56
M  V30 57 1 24 57
M  V30 58 1 25 58
M  V30 59 1 25 59
M  V30 60 1 26 60
M  V30 61 1 26 61
M  V30 62 1 26 62
M  V30 END BOND
M  V30 BEGIN COLLECTION
M  V30 MDLV30/STERAC1 ATOMS=(1 12)
M  V30 END COLLECTION
M  V30 END CTAB
M  END
>  <Column 1>
3284

>  <level_0>
5456

>  <index>
5457

>  <Unnamed: 0>
5457

>  <NO.>
5469

>  <Name>
ibutilide

>  <IUPAC_name>
n-[4-[4-[ethyl(heptyl)amino]-1-hydroxybutyl]phenyl]methanesulfonamide

>  <SMILES>
CCCCCCCN(CC)CCCC(O)c1ccc(NS(C)(=O)=O)cc1

>  <CID>
60753

>  <logBB>


>  <BBB+/BBB->
BBB-

>  <Inchi>
InChI=1S/C20H36N2O3S/c1-4-6-7-8-9-16-22(5-2)17-10-11-20(23)18-12-14-19(15-13-18)21-26(3-24)25/h12-15-20-21-23H-4-11-16-17H2-1-3H3

>  <threshold>


>  <reference>
R15|

>  <group>
C

>  <Class>
-1

>  <ABC>
18.93

>  <ABCGG>
15.11

>  <nAcid>
0

>  <nBase>
1

>  <nAromAtom>
6

>  <nAromBond>
6

>  <nAtom>
62

>  <nHeavyAtom>
26

>  <nSpiro>
0

>  <nBridgehead>
0

>  <nHetero>
6

>  <nN>
2

>  <nO>
3

>  <nF>
0

>  <BalabanJ>
2.14

>  <BertzCT>
587.58

>  <nBonds>
62

>  <nBondsO>
26

>  <nBondsS>
54

>  <nBondsD>
2

>  <nBondsT>
0

>  <nBondsA>
6

>  <nBondsM>
8

>  <nBondsKS>
57

>  <nBondsKD>
5

>  <RNCG>
0.19

>  <RPCG>
0.11

>  <FCSP3>
0.7

>  <SZ>
35

>  <Sm>
32.02

>  <Sv>
34.6

>  <Sse>
61.38

>  <Sp>
38.87

>  <Si>
70.6

>  <MZ>
0.56

>  <Mm>
0.52

>  <Mv>
0.56

>  <Mse>
0.99

>  <Mp>
0.63

>  <Mi>
1.14

>  <NsCH3>
3

>  <NdCH2>
0

>  <NssCH2>
10

>  <NtCH>
0

>  <NdsCH>
0

>  <NaaCH>
4

>  <NsssCH>
1

>  <NddC>
0

>  <NtsC>
0

>  <NdssC>
0

>  <NaasC>
2

>  <NaaaC>
0

>  <NssssC>
0

>  <NsNH3>
0

>  <NsNH2>
0

>  <NssNH2>
0

>  <NdNH>
0

>  <NssNH>
1

>  <NaaNH>
0

>  <NtN>
0

>  <NsssNH>
0

>  <NdsN>
0

>  <NaaN>
0

>  <NsssN>
1

>  <NddsN>
0

>  <NaasN>
0

>  <NssssN>
0

>  <NsOH>
1

>  <NdO>
2

>  <NssO>
0

>  <NaaO>
0

>  <NsF>
0

>  <NsSiH3>
0

>  <NssSiH2>
0

>  <NsssSiH>
0

>  <NssssSi>
0

>  <NsPH2>
0

>  <NssPH>
0

>  <NsssP>
0

>  <NdsssP>
0

>  <NsssssP>
0

>  <NsSH>
0

>  <NdS>
0

>  <NssS>
0

>  <NaaS>
0

>  <NdssS>
0

>  <NddssS>
1

>  <NsCl>
0

>  <NsBr>
0

>  <NsI>
0

>  <fragCpx>
26.06

>  <fMF>
0.1

>  <nHBAcc>
4

>  <nHBDon>
2

>  <Kier1>
24.04

>  <Kier2>
13.22

>  <Lipinski>
1

>  <GhoseFilter>
1

>  <FilterItLogS>
-5.72

>  <VMcGowan>
322.82

>  <LabuteASA>
159.41

>  <PEOE_VSA1>
10.01

>  <PEOE_VSA2>
4.72

>  <PEOE_VSA3>
8.42

>  <PEOE_VSA4>
0

>  <PEOE_VSA5>
0

>  <PEOE_VSA6>
51.66

>  <PEOE_VSA7>
56.59

>  <PEOE_VSA8>
5.69

>  <PEOE_VSA9>
12.36

>  <PEOE_VSA10>
0

>  <PEOE_VSA11>
0

>  <PEOE_VSA12>
10.02

>  <PEOE_VSA13>
0

>  <SMR_VSA1>
13.52

>  <SMR_VSA2>
0

>  <SMR_VSA3>
4.9

>  <SMR_VSA4>
0

>  <SMR_VSA5>
64.9

>  <SMR_VSA6>
30.61

>  <SMR_VSA7>
29.83

>  <SMR_VSA8>
0

>  <SMR_VSA9>
0

>  <SlogP_VSA1>
4.72

>  <SlogP_VSA2>
44.31

>  <SlogP_VSA3>
10.02

>  <SlogP_VSA4>
0

>  <SlogP_VSA5>
70.46

>  <SlogP_VSA6>
24.27

>  <SlogP_VSA7>
0

>  <SlogP_VSA8>
0

>  <SlogP_VSA9>
0

>  <SlogP_VSA10>
5.69

>  <SlogP_VSA11>
0

>  <EState_VSA1>
16.13

>  <EState_VSA2>
0

>  <EState_VSA3>
12.11

>  <EState_VSA4>
37.87

>  <EState_VSA5>
32.1

>  <EState_VSA6>
24.27

>  <EState_VSA7>
0

>  <EState_VSA8>
23.47

>  <EState_VSA9>
0

>  <EState_VSA10>
13.52

>  <VSA_EState1>
24.86

>  <VSA_EState2>
2.46

>  <VSA_EState3>
10.35

>  <VSA_EState4>
1.34

>  <VSA_EState5>
0

>  <VSA_EState6>
6.94

>  <VSA_EState7>
8.78

>  <VSA_EState8>
7.63

>  <VSA_EState9>
-3.27

>  <apol>
64.91

>  <bpol>
45.05

>  <nRing>
1

>  <nHRing>
0

>  <naRing>
1

>  <naHRing>
0

>  <nARing 2>
0

>  <nAHRing 2>
0

>  <nFRing>
0

>  <nFHRing>
0

>  <nFaRing>
0

>  <nFaHRing>
0

>  <nFARing 2>
0

>  <nFAHRing 2>
0

>  <nRot>
14

>  <SLogP>
4.16

>  <SMR>
109.98

>  <TopoPSA(NO)>
69.64

>  <TopoPSA>
78.02

>  <JGI1>
0.23

>  <JGI2>
0.07

>  <JGI3>
0.04

>  <JGI4>
0.03

>  <JGI5>
0.02

>  <Diameter>
18

>  <Radius>
9

>  <TMWC10>
123.69

>  <TSRW10>
59.61

>  <MW>
384.24

>  <AMW>
6.2

>  <WPath>
2213

>  <WPol>
31

>  <Zagreb1>
118

>  <Zagreb2>
126

>  <mZagreb2>
6.07

>  <yes>


>  <nAR-cont>
0.336376

>  <nHA-cont>
0.892715677

>  <MWHBN>
0.306090579

>  <MWHBN-cont>
0.822168251

>  <TPSA-cont>
0.455371952

>  <pka_cont>
0.97

>  <yes.1>


>  <BBB_SCORE>
3.858087959

>  <MMFF94 Energy>
-28.589

$$$$
Compound 2623
Actelion Java MolfileCreator 2.0

  0  0  0  0  0  0              0 V3000
M  V30 BEGIN CTAB
M  V30 COUNTS 57 57 0 0 0
M  V30 BEGIN ATOM
M  V30 1 O 1.0963 -5.0197 -2.1937 0
M  V30 2 C 1.6541 -3.9661 -1.9103 0
M  V30 3 C 1.0608 -2.8833 -1.0279 0 CFG=1
M  V30 4 C 3.0362 -3.6253 -2.3965 0
M  V30 5 C 1.9761 -1.6994 -1.3888 0 CFG=2
M  V30 6 C -0.415 -2.6024 -1.3173 0
M  V30 7 C 3.3487 -2.3576 -1.6148 0 CFG=2
M  V30 8 C 2.0145 -0.6456 -0.3073 0
M  V30 9 C -1.3137 -3.6114 -0.6514 0
M  V30 10 O 4.1924 -1.5015 -2.3729 0
M  V30 11 C 1.7505 0.6532 -0.5257 0
M  V30 12 C -2.1417 -3.4001 0.3847 0
M  V30 13 C 1.8138 1.7168 0.5325 0 CFG=1
M  V30 14 C -2.3833 -2.1015 1.0988 0
M  V30 15 O 2.7402 2.7062 0.0997 0
M  V30 16 C 0.4602 2.3753 0.8256 0
M  V30 17 C -1.2808 -1.7862 2.1088 0
M  V30 18 C -0.1512 3.1419 -0.3541 0
M  V30 19 C -1.6155 -0.5384 2.9224 0
M  V30 20 C -1.4757 3.7983 0.0448 0
M  V30 21 C -0.4337 -0.0719 3.7284 0
M  V30 22 C -2.0951 4.5584 -1.1276 0
M  V30 23 O 0.74 -0.3496 3.5501 0
M  V30 24 O -0.797 0.7766 4.7095 0
M  V30 25 C -3.4112 5.2108 -0.7353 0
M  V30 26 H 1.217 -3.1857 0.0162 0
M  V30 27 H 3.7419 -4.4244 -2.1565 0
M  V30 28 H 3.0172 -3.4531 -3.4766 0
M  V30 29 H 1.6453 -1.2411 -2.3329 0
M  V30 30 H -0.672 -1.5902 -0.9881 0
M  V30 31 H -0.6081 -2.6335 -2.3969 0
M  V30 32 H 3.8423 -2.5923 -0.6633 0
M  V30 33 H 2.2794 -0.973 0.6981 0
M  V30 34 H -1.2641 -4.6217 -1.061 0
M  V30 35 H 5.0554 -1.9409 -2.4693 0
M  V30 36 H 1.5013 0.988 -1.5306 0
M  V30 37 H -2.7106 -4.2516 0.7576 0
M  V30 38 H 2.2028 1.3004 1.4693 0
M  V30 39 H -3.3503 -2.169 1.6129 0
M  V30 40 H -2.4843 -1.2829 0.3764 0
M  V30 41 H 3.5452 2.2325 -0.1728 0
M  V30 42 H -0.2478 1.6125 1.1672 0
M  V30 43 H 0.597 3.0824 1.6542 0
M  V30 44 H -0.3311 -1.6438 1.5801 0
M  V30 45 H -1.1313 -2.6335 2.7904 0
M  V30 46 H -0.3297 2.4609 -1.1937 0
M  V30 47 H 0.5463 3.9129 -0.7016 0
M  V30 48 H -1.9177 0.2834 2.265 0
M  V30 49 H -2.4433 -0.7635 3.6043 0
M  V30 50 H -1.3074 4.4875 0.8814 0
M  V30 51 H -2.1755 3.0296 0.3951 0
M  V30 52 H -1.4013 5.331 -1.4788 0
M  V30 53 H -2.2693 3.8733 -1.9654 0
M  V30 54 H 0.0467 1.0245 5.1424 0
M  V30 55 H -3.8367 5.7487 -1.5883 0
M  V30 56 H -4.139 4.4609 -0.4092 0
M  V30 57 H -3.2666 5.9269 0.0799 0
M  V30 END ATOM
M  V30 BEGIN BOND
M  V30 1 2 1 2
M  V30 2 1 2 3
M  V30 3 1 2 4
M  V30 4 1 3 5
M  V30 5 1 3 6
M  V30 6 1 4 7
M  V30 7 1 5 8
M  V30 8 1 6 9
M  V30 9 1 7 10
M  V30 10 2 8 11
M  V30 11 2 9 12
M  V30 12 1 11 13
M  V30 13 1 12 14
M  V30 14 1 13 15
M  V30 15 1 13 16
M  V30 16 1 14 17
M  V30 17 1 16 18
M  V30 18 1 17 19
M  V30 19 1 18 20
M  V30 20 1 19 21
M  V30 21 1 20 22
M  V30 22 2 21 23
M  V30 23 1 21 24
M  V30 24 1 22 25
M  V30 25 1 5 7
M  V30 26 1 3 26
M  V30 27 1 4 27
M  V30 28 1 4 28
M  V30 29 1 5 29
M  V30 30 1 6 30
M  V30 31 1 6 31
M  V30 32 1 7 32
M  V30 33 1 8 33
M  V30 34 1 9 34
M  V30 35 1 10 35
M  V30 36 1 11 36
M  V30 37 1 12 37
M  V30 38 1 13 38
M  V30 39 1 14 39
M  V30 40 1 14 40
M  V30 41 1 15 41
M  V30 42 1 16 42
M  V30 43 1 16 43
M  V30 44 1 17 44
M  V30 45 1 17 45
M  V30 46 1 18 46
M  V30 47 1 18 47
M  V30 48 1 19 48
M  V30 49 1 19 49
M  V30 50 1 20 50
M  V30 51 1 20 51
M  V30 52 1 22 52
M  V30 53 1 22 53
M  V30 54 1 24 54
M  V30 55 1 25 55
M  V30 56 1 25 56
M  V30 57 1 25 57
M  V30 END BOND
M  V30 BEGIN COLLECTION
M  V30 MDLV30/STEABS ATOMS=(4 3 5 7 13)
M  V30 END COLLECTION
M  V30 END CTAB
M  END
>  <Column 1>
3285

>  <level_0>
5457

>  <index>
5458

>  <Unnamed: 0>
5458

>  <NO.>
5470

>  <Name>
dinoprostone

>  <IUPAC_name>
(z)-7-[(1r-2r-3r)-3-hydroxy-2-[(e-3s)-3-hydroxyoct-1-enyl]-5-oxocyclopentyl]hept-5-enoic acid

>  <SMILES>
CCCCC[C@H](O)/C=C/[C@H]1[C@H](O)CC(=O)[C@@H]1C/C=C\CCCC(=O)O

>  <CID>
5280360

>  <logBB>


>  <BBB+/BBB->
BBB-

>  <Inchi>
InChI=1S/C20H32O5/c1-2-3-6-9-15(21)12-13-17-16(18(22)14-19(17)23)10-7-4-5-8-11-20(24)25/h4-7-12-13-15-17-19-21-23H-2-3-5-6-8-11-14H2-1H3-(H-24-25)/b7-4--13-12+/t15--16+-17+-19+/m0/s1

>  <threshold>


>  <reference>
R15|

>  <group>
C

>  <Class>
-1

>  <ABC>
18.1

>  <ABCGG>
15.47

>  <nAcid>
1

>  <nBase>
0

>  <nAromAtom>
0

>  <nAromBond>
0

>  <nAtom>
57

>  <nHeavyAtom>
25

>  <nSpiro>
0

>  <nBridgehead>
0

>  <nHetero>
5

>  <nN>
0

>  <nO>
5

>  <nF>
0

>  <BalabanJ>
2.27

>  <BertzCT>
468.71

>  <nBonds>
57

>  <nBondsO>
25

>  <nBondsS>
53

>  <nBondsD>
4

>  <nBondsT>
0

>  <nBondsA>
0

>  <nBondsM>
4

>  <nBondsKS>
53

>  <nBondsKD>
4

>  <RNCG>
0.19

>  <RPCG>
0.12

>  <FCSP3>
0.7

>  <SZ>
32

>  <Sm>
29.35

>  <Sv>
32.24

>  <Sse>
56.86

>  <Sp>
35.18

>  <Si>
64.69

>  <MZ>
0.56

>  <Mm>
0.51

>  <Mv>
0.57

>  <Mse>
1

>  <Mp>
0.62

>  <Mi>
1.13

>  <NsCH3>
1

>  <NdCH2>
0

>  <NssCH2>
9

>  <NtCH>
0

>  <NdsCH>
4

>  <NaaCH>
0

>  <NsssCH>
4

>  <NddC>
0

>  <NtsC>
0

>  <NdssC>
2

>  <NaasC>
0

>  <NaaaC>
0

>  <NssssC>
0

>  <NsNH3>
0

>  <NsNH2>
0

>  <NssNH2>
0

>  <NdNH>
0

>  <NssNH>
0

>  <NaaNH>
0

>  <NtN>
0

>  <NsssNH>
0

>  <NdsN>
0

>  <NaaN>
0

>  <NsssN>
0

>  <NddsN>
0

>  <NaasN>
0

>  <NssssN>
0

>  <NsOH>
3

>  <NdO>
2

>  <NssO>
0

>  <NaaO>
0

>  <NsF>
0

>  <NsSiH3>
0

>  <NssSiH2>
0

>  <NsssSiH>
0

>  <NssssSi>
0

>  <NsPH2>
0

>  <NssPH>
0

>  <NsssP>
0

>  <NdsssP>
0

>  <NsssssP>
0

>  <NsSH>
0

>  <NdS>
0

>  <NssS>
0

>  <NaaS>
0

>  <NdssS>
0

>  <NddssS>
0

>  <NsCl>
0

>  <NsBr>
0

>  <NsI>
0

>  <fragCpx>
25.05

>  <fMF>
0.09

>  <nHBAcc>
4

>  <nHBDon>
3

>  <Kier1>
23.04

>  <Kier2>
13.21

>  <Lipinski>
1

>  <GhoseFilter>
1

>  <FilterItLogS>
-2.5

>  <VMcGowan>
293.95

>  <LabuteASA>
149.99

>  <PEOE_VSA1>
15.32

>  <PEOE_VSA2>
9.59

>  <PEOE_VSA3>
0

>  <PEOE_VSA4>
0

>  <PEOE_VSA5>
0

>  <PEOE_VSA6>
50.49

>  <PEOE_VSA7>
25.68

>  <PEOE_VSA8>
24.68

>  <PEOE_VSA9>
12.21

>  <PEOE_VSA10>
5.78

>  <PEOE_VSA11>
0

>  <PEOE_VSA12>
0

>  <PEOE_VSA13>
0

>  <SMR_VSA1>
24.91

>  <SMR_VSA2>
0

>  <SMR_VSA3>
0

>  <SMR_VSA4>
11.84

>  <SMR_VSA5>
76.92

>  <SMR_VSA6>
0

>  <SMR_VSA7>
24.3

>  <SMR_VSA8>
0

>  <SMR_VSA9>
0

>  <SlogP_VSA1>
0

>  <SlogP_VSA2>
39.28

>  <SlogP_VSA3>
9.59

>  <SlogP_VSA4>
11.84

>  <SlogP_VSA5>
64.71

>  <SlogP_VSA6>
24.3

>  <SlogP_VSA7>
0

>  <SlogP_VSA8>
0

>  <SlogP_VSA9>
0

>  <SlogP_VSA10>
0

>  <SlogP_VSA11>
0

>  <EState_VSA1>
18.18

>  <EState_VSA2>
30.46

>  <EState_VSA3>
25.68

>  <EState_VSA4>
19.26

>  <EState_VSA5>
0

>  <EState_VSA6>
12.15

>  <EState_VSA7>
12.15

>  <EState_VSA8>
6.92

>  <EState_VSA9>
5.11

>  <EState_VSA10>
19.8

>  <VSA_EState1>
0

>  <VSA_EState2>
22.54

>  <VSA_EState3>
28.68

>  <VSA_EState4>
0

>  <VSA_EState5>
-1.26

>  <VSA_EState6>
0

>  <VSA_EState7>
12.09

>  <VSA_EState8>
2.11

>  <VSA_EState9>
0

>  <apol>
58.75

>  <bpol>
33.84

>  <nRing>
1

>  <nHRing>
0

>  <naRing>
0

>  <naHRing>
0

>  <nARing 2>
1

>  <nAHRing 2>
0

>  <nFRing>
0

>  <nFHRing>
0

>  <nFaRing>
0

>  <nFaHRing>
0

>  <nFARing 2>
0

>  <nFAHRing 2>
0

>  <nRot>
12

>  <SLogP>
3.25

>  <SMR>
97.14

>  <TopoPSA(NO)>
94.83

>  <TopoPSA>
94.83

>  <JGI1>
0.18

>  <JGI2>
0.08

>  <JGI3>
0.06

>  <JGI4>
0.03

>  <JGI5>
0.03

>  <Diameter>
17

>  <Radius>
9

>  <TMWC10>
121.93

>  <TSRW10>
72.51

>  <MW>
352.22

>  <AMW>
6.18

>  <WPath>
1888

>  <WPol>
30

>  <Zagreb1>
112

>  <Zagreb2>
122

>  <mZagreb2>
5.92

>  <yes>


>  <nAR-cont>
0.816016

>  <nHA-cont>
0.921834225

>  <MWHBN>
0.372984714

>  <MWHBN-cont>
0.582249673

>  <TPSA-cont>
0.338027714

>  <pka_cont>
0.97

>  <yes.1>


>  <BBB_SCORE>
3.772280163

>  <MMFF94 Energy>
-4.7211

$$$$
Compound 2624
Actelion Java MolfileCreator 2.0

  0  0  0  0  0  0              0 V3000
M  V30 BEGIN CTAB
M  V30 COUNTS 57 58 0 0 0
M  V30 BEGIN ATOM
M  V30 1 O -2.5193 2.9923 8.1268 0
M  V30 2 C -3.3804 2.2705 7.6553 0
M  V30 3 O -4.632 2.282 8.156 0
M  V30 4 C -3.2395 1.2875 6.5256 0
M  V30 5 C -1.8555 1.3605 5.8844 0
M  V30 6 C -1.7192 0.3466 4.7483 0
M  V30 7 C -0.3615 0.427 4.111 0
M  V30 8 C -0.1289 0.7731 2.8379 0
M  V30 9 O -1.1548 1.0804 1.9602 0
M  V30 10 C 1.2206 0.8296 2.2013 0
M  V30 11 C -0.5591 1.1629 0.6671 0 CFG=2
M  V30 12 C 0.8632 0.6151 0.7412 0 CFG=1
M  V30 13 C -0.4007 2.5967 0.1894 0
M  V30 14 C 1.6989 1.461 -0.2441 0 CFG=2
M  V30 15 C 0.6911 2.4611 -0.8587 0 CFG=2
M  V30 16 C 2.4594 0.7353 -1.3343 0
M  V30 17 O 1.2866 3.7224 -1.1158 0
M  V30 18 C 2.2208 -0.4932 -1.8227 0
M  V30 19 C 3.0368 -1.1425 -2.9056 0 CFG=1
M  V30 20 O 3.4892 -2.3965 -2.4111 0
M  V30 21 C 2.2676 -1.3534 -4.2168 0
M  V30 22 C 1.0563 -2.2889 -4.1058 0
M  V30 23 C 0.3919 -2.4953 -5.4695 0
M  V30 24 C -0.8188 -3.4222 -5.3633 0
M  V30 25 C -1.4816 -3.6298 -6.7157 0
M  V30 26 H -4.5929 2.9494 8.8728 0
M  V30 27 H -4.0058 1.5141 5.7759 0
M  V30 28 H -3.4157 0.2826 6.9244 0
M  V30 29 H -1.0858 1.1755 6.6449 0
M  V30 30 H -1.6805 2.3755 5.504 0
M  V30 31 H -1.8572 -0.6686 5.1391 0
M  V30 32 H -2.5149 0.5102 4.0124 0
M  V30 33 H 0.4827 0.1793 4.7506 0
M  V30 34 H 1.6699 1.8116 2.3856 0
M  V30 35 H 1.9023 0.0551 2.5654 0
M  V30 36 H -1.1641 0.5867 -0.0433 0
M  V30 37 H 0.8677 -0.4597 0.535 0
M  V30 38 H -0.1097 3.2768 0.9996 0
M  V30 39 H -1.3298 2.9973 -0.229 0
M  V30 40 H 2.4632 2.0162 0.317 0
M  V30 41 H 0.2607 2.0818 -1.7944 0
M  V30 42 H 3.2883 1.305 -1.7564 0
M  V30 43 H 1.9394 3.5968 -1.8256 0
M  V30 44 H 1.3965 -1.091 -1.4438 0
M  V30 45 H 3.9279 -0.5424 -3.1254 0
M  V30 46 H 3.9513 -2.2198 -1.5739 0
M  V30 47 H 1.9448 -0.3818 -4.6114 0
M  V30 48 H 2.9605 -1.7844 -4.9512 0
M  V30 49 H 0.3202 -1.8699 -3.4104 0
M  V30 50 H 1.3688 -3.2598 -3.7039 0
M  V30 51 H 1.1188 -2.92 -6.1722 0
M  V30 52 H 0.0778 -1.5259 -5.8754 0
M  V30 53 H -0.5097 -4.3941 -4.9614 0
M  V30 54 H -1.5511 -3.0003 -4.6651 0
M  V30 55 H -2.3447 -4.2955 -6.6166 0
M  V30 56 H -1.8317 -2.6794 -7.131 0
M  V30 57 H -0.7847 -4.081 -7.429 0
M  V30 END ATOM
M  V30 BEGIN BOND
M  V30 1 2 1 2
M  V30 2 1 2 3
M  V30 3 1 2 4
M  V30 4 1 4 5
M  V30 5 1 5 6
M  V30 6 1 6 7
M  V30 7 2 7 8
M  V30 8 1 8 9
M  V30 9 1 8 10
M  V30 10 1 9 11
M  V30 11 1 10 12
M  V30 12 1 11 13
M  V30 13 1 12 14
M  V30 14 1 13 15
M  V30 15 1 14 16
M  V30 16 1 15 17
M  V30 17 2 16 18
M  V30 18 1 18 19
M  V30 19 1 19 20
M  V30 20 1 19 21
M  V30 21 1 21 22
M  V30 22 1 22 23
M  V30 23 1 23 24
M  V30 24 1 24 25
M  V30 25 1 11 12
M  V30 26 1 14 15
M  V30 27 1 3 26
M  V30 28 1 4 27
M  V30 29 1 4 28
M  V30 30 1 5 29
M  V30 31 1 5 30
M  V30 32 1 6 31
M  V30 33 1 6 32
M  V30 34 1 7 33
M  V30 35 1 10 34
M  V30 36 1 10 35
M  V30 37 1 11 36
M  V30 38 1 12 37
M  V30 39 1 13 38
M  V30 40 1 13 39
M  V30 41 1 14 40
M  V30 42 1 15 41
M  V30 43 1 16 42
M  V30 44 1 17 43
M  V30 45 1 18 44
M  V30 46 1 19 45
M  V30 47 1 20 46
M  V30 48 1 21 47
M  V30 49 1 21 48
M  V30 50 1 22 49
M  V30 51 1 22 50
M  V30 52 1 23 51
M  V30 53 1 23 52
M  V30 54 1 24 53
M  V30 55 1 24 54
M  V30 56 1 25 55
M  V30 57 1 25 56
M  V30 58 1 25 57
M  V30 END BOND
M  V30 BEGIN COLLECTION
M  V30 MDLV30/STEABS ATOMS=(5 11 12 14 15 19)
M  V30 END COLLECTION
M  V30 END CTAB
M  END
>  <Column 1>
3286

>  <level_0>
5458

>  <index>
5459

>  <Unnamed: 0>
5459

>  <NO.>
5471

>  <Name>
epoprostenol

>  <IUPAC_name>
(5z)-5-[(3ar-4r-5r-6as)-5-hydroxy-4-[(e-3s)-3-hydroxyoct-1-enyl]-3-3a-4-5-6-6a-hexahydrocyclopenta[b]furan-2-ylidene]pentanoic acid

>  <SMILES>
CCCCC[C@H](O)/C=C/[C@H]1[C@H](O)C[C@@H]2O/C(=C\CCCC(=O)O)C[C@@H]21

>  <CID>
5282411

>  <logBB>


>  <BBB+/BBB->
BBB-

>  <Inchi>
InChI=1S/C20H32O5/c1-2-3-4-7-14(21)10-11-16-17-12-15(8-5-6-9-20(23)24)25-19(17)13-18(16)22/h8-10-11-14-16-19-21-22H-2-7-9-12-13H2-1H3-(H-23-24)/b11-10+-15-8-/t14--16+-17+-18+-19-/m0/s1

>  <threshold>


>  <reference>
R15|

>  <group>
C

>  <Class>
-1

>  <ABC>
18.7

>  <ABCGG>
15.22

>  <nAcid>
1

>  <nBase>
0

>  <nAromAtom>
0

>  <nAromBond>
0

>  <nAtom>
57

>  <nHeavyAtom>
25

>  <nSpiro>
0

>  <nBridgehead>
0

>  <nHetero>
5

>  <nN>
0

>  <nO>
5

>  <nF>
0

>  <BalabanJ>
1.68

>  <BertzCT>
484.48

>  <nBonds>
58

>  <nBondsO>
26

>  <nBondsS>
55

>  <nBondsD>
3

>  <nBondsT>
0

>  <nBondsA>
0

>  <nBondsM>
3

>  <nBondsKS>
55

>  <nBondsKD>
3

>  <RNCG>
0.2

>  <RPCG>
0.12

>  <FCSP3>
0.75

>  <SZ>
32

>  <Sm>
29.35

>  <Sv>
32.24

>  <Sse>
56.86

>  <Sp>
35.18

>  <Si>
64.69

>  <MZ>
0.56

>  <Mm>
0.51

>  <Mv>
0.57

>  <Mse>
1

>  <Mp>
0.62

>  <Mi>
1.13

>  <NsCH3>
1

>  <NdCH2>
0

>  <NssCH2>
9

>  <NtCH>
0

>  <NdsCH>
3

>  <NaaCH>
0

>  <NsssCH>
5

>  <NddC>
0

>  <NtsC>
0

>  <NdssC>
2

>  <NaasC>
0

>  <NaaaC>
0

>  <NssssC>
0

>  <NsNH3>
0

>  <NsNH2>
0

>  <NssNH2>
0

>  <NdNH>
0

>  <NssNH>
0

>  <NaaNH>
0

>  <NtN>
0

>  <NsssNH>
0

>  <NdsN>
0

>  <NaaN>
0

>  <NsssN>
0

>  <NddsN>
0

>  <NaasN>
0

>  <NssssN>
0

>  <NsOH>
3

>  <NdO>
1

>  <NssO>
1

>  <NaaO>
0

>  <NsF>
0

>  <NsSiH3>
0

>  <NssSiH2>
0

>  <NsssSiH>
0

>  <NssssSi>
0

>  <NsPH2>
0

>  <NssPH>
0

>  <NsssP>
0

>  <NdsssP>
0

>  <NsssssP>
0

>  <NsSH>
0

>  <NdS>
0

>  <NssS>
0

>  <NaaS>
0

>  <NdssS>
0

>  <NddssS>
0

>  <NsCl>
0

>  <NsBr>
0

>  <NsI>
0

>  <fragCpx>
76.05

>  <fMF>
0.14

>  <nHBAcc>
4

>  <nHBDon>
3

>  <Kier1>
21.3

>  <Kier2>
10.98

>  <Lipinski>
1

>  <GhoseFilter>
1

>  <FilterItLogS>
-2.21

>  <VMcGowan>
287.39

>  <LabuteASA>
149.94

>  <PEOE_VSA1>
20.06

>  <PEOE_VSA2>
4.79

>  <PEOE_VSA3>
0

>  <PEOE_VSA4>
0

>  <PEOE_VSA5>
0

>  <PEOE_VSA6>
38.34

>  <PEOE_VSA7>
25.34

>  <PEOE_VSA8>
31.1

>  <PEOE_VSA9>
17.97

>  <PEOE_VSA10>
6.1

>  <PEOE_VSA11>
0

>  <PEOE_VSA12>
0

>  <PEOE_VSA13>
0

>  <SMR_VSA1>
24.85

>  <SMR_VSA2>
0

>  <SMR_VSA3>
0

>  <SMR_VSA4>
11.84

>  <SMR_VSA5>
83.02

>  <SMR_VSA6>
0

>  <SMR_VSA7>
23.99

>  <SMR_VSA8>
0

>  <SMR_VSA9>
0

>  <SlogP_VSA1>
0

>  <SlogP_VSA2>
39.6

>  <SlogP_VSA3>
9.53

>  <SlogP_VSA4>
11.84

>  <SlogP_VSA5>
64.71

>  <SlogP_VSA6>
23.99

>  <SlogP_VSA7>
0

>  <SlogP_VSA8>
0

>  <SlogP_VSA9>
0

>  <SlogP_VSA10>
0

>  <SlogP_VSA11>
0

>  <EState_VSA1>
18.18

>  <EState_VSA2>
24.36

>  <EState_VSA3>
19.26

>  <EState_VSA4>
37.86

>  <EState_VSA5>
0

>  <EState_VSA6>
0

>  <EState_VSA7>
18.23

>  <EState_VSA8>
6.92

>  <EState_VSA9>
9.84

>  <EState_VSA10>
15.01

>  <VSA_EState1>
5.94

>  <VSA_EState2>
10.54

>  <VSA_EState3>
28.99

>  <VSA_EState4>
0

>  <VSA_EState5>
0.43

>  <VSA_EState6>
0

>  <VSA_EState7>
11.96

>  <VSA_EState8>
2.14

>  <VSA_EState9>
0

>  <apol>
58.75

>  <bpol>
34.71

>  <nRing>
2

>  <nHRing>
1

>  <naRing>
0

>  <naHRing>
0

>  <nARing 2>
2

>  <nAHRing 2>
1

>  <nFRing>
1

>  <nFHRing>
1

>  <nFaRing>
0

>  <nFaHRing>
0

>  <nFARing 2>
1

>  <nFAHRing 2>
1

>  <nRot>
10

>  <SLogP>
3.41

>  <SMR>
95.95

>  <TopoPSA(NO)>
86.99

>  <TopoPSA>
86.99

>  <JGI1>
0.19

>  <JGI2>
0.07

>  <JGI3>
0.06

>  <JGI4>
0.03

>  <JGI5>
0.03

>  <Diameter>
17

>  <Radius>
9

>  <TMWC10>
124.81

>  <TSRW10>
75

>  <MW>
352.22

>  <AMW>
6.18

>  <WPath>
1847

>  <WPol>
31

>  <Zagreb1>
120

>  <Zagreb2>
135

>  <mZagreb2>
5.75

>  <yes>


>  <nAR-cont>
1

>  <nHA-cont>
0.921834225

>  <MWHBN>
0.372984714

>  <MWHBN-cont>
0.582249673

>  <TPSA-cont>
0.392755782

>  <pka_cont>
0.97

>  <yes.1>


>  <BBB_SCORE>
4.065720299

>  <MMFF94 Energy>
0.87005

$$$$
Compound 2625
Actelion Java MolfileCreator 2.0

  0  0  0  0  0  0              0 V3000
M  V30 BEGIN CTAB
M  V30 COUNTS 49 50 0 0 0
M  V30 BEGIN ATOM
M  V30 1 O 0.4703 1.49 -0.9409 0
M  V30 2 C 0.6704 0.3002 -0.7076 0
M  V30 3 N 1.3668 -0.1788 0.3955 0
M  V30 4 C 0.1852 -0.8326 -1.6428 0 CFG=1
M  V30 5 C 1.9839 0.6466 1.3576 0
M  V30 6 N -1.3006 -0.9364 -1.6902 0
M  V30 7 C 0.7686 -0.5349 -3.0364 0
M  V30 8 C 2.9957 1.5611 1.0008 0
M  V30 9 C 1.6221 0.4798 2.7115 0
M  V30 10 C -1.7181 -1.963 -2.6618 0
M  V30 11 C -1.9151 -1.2077 -0.378 0
M  V30 12 C 0.3314 -1.569 -4.063 0
M  V30 13 C 3.5801 2.3527 2.0034 0
M  V30 14 C 3.4758 1.7517 -0.4121 0
M  V30 15 C 2.2403 1.2727 3.69 0
M  V30 16 C 0.5665 -0.5025 3.1368 0
M  V30 17 C -1.1844 -1.6864 -4.0659 0
M  V30 18 C -2.4618 0.076 0.2578 0
M  V30 19 C 3.207 2.2091 3.3369 0
M  V30 20 C -3.278 -0.2342 1.515 0
M  V30 21 C -3.7617 1.0377 2.1928 0
M  V30 22 H 1.3046 -1.1627 0.6161 0
M  V30 23 H 0.5996 -1.7896 -1.297 0
M  V30 24 H 1.8643 -0.5118 -2.9854 0
M  V30 25 H 0.4549 0.4615 -3.3757 0
M  V30 26 H -1.3897 -2.958 -2.3332 0
M  V30 27 H -2.8132 -1.986 -2.7262 0
M  V30 28 H -1.218 -1.7156 0.3001 0
M  V30 29 H -2.7651 -1.8944 -0.4903 0
M  V30 30 H 0.7784 -2.5411 -3.8222 0
M  V30 31 H 0.6894 -1.2861 -5.0588 0
M  V30 32 H 4.3408 3.0867 1.7455 0
M  V30 33 H 2.8719 2.5081 -0.9214 0
M  V30 34 H 4.5199 2.0843 -0.4248 0
M  V30 35 H 3.4466 0.8152 -0.9773 0
M  V30 36 H 1.9634 1.1732 4.7372 0
M  V30 37 H 0.8642 -1.5222 2.8734 0
M  V30 38 H -0.3848 -0.262 2.6555 0
M  V30 39 H 0.4026 -0.4774 4.2194 0
M  V30 40 H -1.4912 -2.4914 -4.7431 0
M  V30 41 H -1.6254 -0.7585 -4.4516 0
M  V30 42 H -3.101 0.6029 -0.4619 0
M  V30 43 H -1.6458 0.7556 0.5204 0
M  V30 44 H 3.6716 2.8274 4.1005 0
M  V30 45 H -4.1445 -0.8519 1.2514 0
M  V30 46 H -2.6745 -0.8125 2.2232 0
M  V30 47 H -4.3486 0.793 3.0836 0
M  V30 48 H -2.9174 1.6615 2.5035 0
M  V30 49 H -4.3942 1.625 1.5195 0
M  V30 END ATOM
M  V30 BEGIN BOND
M  V30 1 2 1 2
M  V30 2 1 2 3
M  V30 3 1 2 4
M  V30 4 1 3 5
M  V30 5 1 4 6
M  V30 6 1 4 7
M  V30 7 2 5 8
M  V30 8 1 5 9
M  V30 9 1 6 10
M  V30 10 1 6 11
M  V30 11 1 7 12
M  V30 12 1 8 13
M  V30 13 1 8 14
M  V30 14 2 9 15
M  V30 15 1 9 16
M  V30 16 1 10 17
M  V30 17 1 11 18
M  V30 18 2 13 19
M  V30 19 1 18 20
M  V30 20 1 20 21
M  V30 21 1 12 17
M  V30 22 1 15 19
M  V30 23 1 3 22
M  V30 24 1 4 23
M  V30 25 1 7 24
M  V30 26 1 7 25
M  V30 27 1 10 26
M  V30 28 1 10 27
M  V30 29 1 11 28
M  V30 30 1 11 29
M  V30 31 1 12 30
M  V30 32 1 12 31
M  V30 33 1 13 32
M  V30 34 1 14 33
M  V30 35 1 14 34
M  V30 36 1 14 35
M  V30 37 1 15 36
M  V30 38 1 16 37
M  V30 39 1 16 38
M  V30 40 1 16 39
M  V30 41 1 17 40
M  V30 42 1 17 41
M  V30 43 1 18 42
M  V30 44 1 18 43
M  V30 45 1 19 44
M  V30 46 1 20 45
M  V30 47 1 20 46
M  V30 48 1 21 47
M  V30 49 1 21 48
M  V30 50 1 21 49
M  V30 END BOND
M  V30 BEGIN COLLECTION
M  V30 MDLV30/STERAC1 ATOMS=(1 4)
M  V30 END COLLECTION
M  V30 END CTAB
M  END
>  <Column 1>
3287

>  <level_0>
5459

>  <index>
5460

>  <Unnamed: 0>
5460

>  <NO.>
5472

>  <Name>
bupivacaine

>  <IUPAC_name>
1-butyl-n-(2-6-dimethylphenyl)piperidine-2-carboxamide

>  <SMILES>
CCCCN1CCCCC1C(=O)Nc1c(C)cccc1C

>  <CID>
2474

>  <logBB>


>  <BBB+/BBB->
BBB-

>  <Inchi>
InChI=1S/C18H28N2O/c1-4-5-12-20-13-7-6-11-16(20)18(21)19-17-14(2)9-8-10-15(17)3/h8-10-16H-4-7-11-13H2-1-3H3-(H-19-21)

>  <threshold>


>  <reference>
R15|

>  <group>
C

>  <Class>
-1

>  <ABC>
15.72

>  <ABCGG>
13.54

>  <nAcid>
0

>  <nBase>
1

>  <nAromAtom>
6

>  <nAromBond>
6

>  <nAtom>
49

>  <nHeavyAtom>
21

>  <nSpiro>
0

>  <nBridgehead>
0

>  <nHetero>
3

>  <nN>
2

>  <nO>
1

>  <nF>
0

>  <BalabanJ>
1.91

>  <BertzCT>
463.86

>  <nBonds>
50

>  <nBondsO>
22

>  <nBondsS>
43

>  <nBondsD>
1

>  <nBondsT>
0

>  <nBondsA>
6

>  <nBondsM>
7

>  <nBondsKS>
46

>  <nBondsKD>
4

>  <RNCG>
0.22

>  <RPCG>
0.16

>  <FCSP3>
0.61

>  <SZ>
26.33

>  <Sm>
24.01

>  <Sv>
27.82

>  <Sse>
48.09

>  <Sp>
30.98

>  <Si>
55.6

>  <MZ>
0.54

>  <Mm>
0.49

>  <Mv>
0.57

>  <Mse>
0.98

>  <Mp>
0.63

>  <Mi>
1.13

>  <NsCH3>
3

>  <NdCH2>
0

>  <NssCH2>
7

>  <NtCH>
0

>  <NdsCH>
0

>  <NaaCH>
3

>  <NsssCH>
1

>  <NddC>
0

>  <NtsC>
0

>  <NdssC>
1

>  <NaasC>
3

>  <NaaaC>
0

>  <NssssC>
0

>  <NsNH3>
0

>  <NsNH2>
0

>  <NssNH2>
0

>  <NdNH>
0

>  <NssNH>
1

>  <NaaNH>
0

>  <NtN>
0

>  <NsssNH>
0

>  <NdsN>
0

>  <NaaN>
0

>  <NsssN>
1

>  <NddsN>
0

>  <NaasN>
0

>  <NssssN>
0

>  <NsOH>
0

>  <NdO>
1

>  <NssO>
0

>  <NaaO>
0

>  <NsF>
0

>  <NsSiH3>
0

>  <NssSiH2>
0

>  <NsssSiH>
0

>  <NssssSi>
0

>  <NsPH2>
0

>  <NssPH>
0

>  <NsssP>
0

>  <NdsssP>
0

>  <NsssssP>
0

>  <NsSH>
0

>  <NdS>
0

>  <NssS>
0

>  <NaaS>
0

>  <NdssS>
0

>  <NddssS>
0

>  <NsCl>
0

>  <NsBr>
0

>  <NsI>
0

>  <fragCpx>
64.03

>  <fMF>
0.29

>  <nHBAcc>
2

>  <nHBDon>
1

>  <Kier1>
17.36

>  <Kier2>
8.59

>  <Lipinski>
1

>  <GhoseFilter>
1

>  <FilterItLogS>
-4.81

>  <VMcGowan>
251.39

>  <LabuteASA>
128.28

>  <PEOE_VSA1>
5.32

>  <PEOE_VSA2>
9.69

>  <PEOE_VSA3>
0

>  <PEOE_VSA4>
0

>  <PEOE_VSA5>
0

>  <PEOE_VSA6>
37.96

>  <PEOE_VSA7>
57.33

>  <PEOE_VSA8>
5.69

>  <PEOE_VSA9>
6.04

>  <PEOE_VSA10>
0

>  <PEOE_VSA11>
0

>  <PEOE_VSA12>
5.91

>  <PEOE_VSA13>
0

>  <SMR_VSA1>
4.79

>  <SMR_VSA2>
0

>  <SMR_VSA3>
4.9

>  <SMR_VSA4>
0

>  <SMR_VSA5>
58.92

>  <SMR_VSA6>
18.41

>  <SMR_VSA7>
29.33

>  <SMR_VSA8>
0

>  <SMR_VSA9>
0

>  <SlogP_VSA1>
5.32

>  <SlogP_VSA2>
29.94

>  <SlogP_VSA3>
4.79

>  <SlogP_VSA4>
13.85

>  <SlogP_VSA5>
50.15

>  <SlogP_VSA6>
18.2

>  <SlogP_VSA7>
0

>  <SlogP_VSA8>
0

>  <SlogP_VSA9>
0

>  <SlogP_VSA10>
5.69

>  <SlogP_VSA11>
0

>  <EState_VSA1>
0

>  <EState_VSA2>
11.95

>  <EState_VSA3>
0

>  <EState_VSA4>
42.75

>  <EState_VSA5>
19.26

>  <EState_VSA6>
0

>  <EState_VSA7>
6.07

>  <EState_VSA8>
43.12

>  <EState_VSA9>
0

>  <EState_VSA10>
4.79

>  <VSA_EState1>
0

>  <VSA_EState2>
15.06

>  <VSA_EState3>
3.17

>  <VSA_EState4>
3.27

>  <VSA_EState5>
0.17

>  <VSA_EState6>
6.19

>  <VSA_EState7>
5.72

>  <VSA_EState8>
8.42

>  <VSA_EState9>
0

>  <apol>
51.73

>  <bpol>
31.24

>  <nRing>
2

>  <nHRing>
1

>  <naRing>
1

>  <naHRing>
0

>  <nARing 2>
1

>  <nAHRing 2>
1

>  <nFRing>
0

>  <nFHRing>
0

>  <nFaRing>
0

>  <nFaHRing>
0

>  <nFARing 2>
0

>  <nFAHRing 2>
0

>  <nRot>
5

>  <SLogP>
3.9

>  <SMR>
88.67

>  <TopoPSA(NO)>
32.34

>  <TopoPSA>
32.34

>  <JGI1>
0.16

>  <JGI2>
0.09

>  <JGI3>
0.05

>  <JGI4>
0.04

>  <JGI5>
0.02

>  <Diameter>
11

>  <Radius>
6

>  <TMWC10>
115.23

>  <TSRW10>
54.4

>  <MW>
288.22

>  <AMW>
5.88

>  <WPath>
958

>  <WPol>
31

>  <Zagreb1>
102

>  <Zagreb2>
117

>  <mZagreb2>
4.86

>  <yes>


>  <nAR-cont>
0.816016

>  <nHA-cont>
0.994529749

>  <MWHBN>
0.176709215

>  <MWHBN-cont>
0.983352542

>  <TPSA-cont>
0.774246718

>  <pka_cont>
0.97

>  <yes.1>


>  <BBB_SCORE>
5.319067998

>  <MMFF94 Energy>
59.002

$$$$
Compound 2626
Actelion Java MolfileCreator 2.0

  0  0  0  0  0  0              0 V3000
M  V30 BEGIN CTAB
M  V30 COUNTS 54 55 0 0 0
M  V30 BEGIN ATOM
M  V30 1 O 0.2347 -2.4281 -2.4281 0
M  V30 2 C 0.4162 -1.4147 -1.7671 0
M  V30 3 N 0.7346 -0.1888 -2.3051 0
M  V30 4 C 0.2733 -1.429 -0.2924 0
M  V30 5 C 0.8649 0.0057 -3.7344 0
M  V30 6 C -0.8901 -1.9349 0.332 0
M  V30 7 C 1.3318 -0.9272 0.4615 0
M  V30 8 C -0.4749 0.1658 -4.4837 0
M  V30 9 C -0.9104 -1.8854 1.7406 0
M  V30 10 C -2.0181 -2.459 -0.3494 0
M  V30 11 C 1.1961 -0.9363 1.8296 0
M  V30 12 N -1.1972 1.4162 -4.1329 0
M  V30 13 N 0.1041 -1.3946 2.4713 0
M  V30 14 C -2.0312 -2.3568 2.4117 0
M  V30 15 C -3.1303 -2.926 0.3483 0
M  V30 16 O 2.2587 -0.4291 2.5498 0
M  V30 17 C -2.0465 1.2264 -2.9409 0
M  V30 18 C -1.9876 1.8671 -5.2968 0
M  V30 19 C -3.1369 -2.8749 1.7341 0
M  V30 20 C 2.0691 -0.5005 3.9656 0
M  V30 21 C -1.815 2.3495 -1.9373 0
M  V30 22 C -2.6203 3.2434 -5.1191 0
M  V30 23 C 3.3178 0.073 4.6315 0
M  V30 24 C 3.2109 0.0407 6.1535 0
M  V30 25 C 4.4561 0.6127 6.8115 0
M  V30 26 H 0.7869 0.6322 -1.7168 0
M  V30 27 H 1.4051 -0.853 -4.1492 0
M  V30 28 H 1.4902 0.8929 -3.8842 0
M  V30 29 H 2.2408 -0.5579 0.0018 0
M  V30 30 H -0.2072 0.1836 -5.5485 0
M  V30 31 H -1.1162 -0.7142 -4.347 0
M  V30 32 H -2.0335 -2.515 -1.4366 0
M  V30 33 H -2.0453 -2.3201 3.499 0
M  V30 34 H -3.9825 -3.331 -0.1912 0
M  V30 35 H -3.1114 1.1709 -3.1995 0
M  V30 36 H -1.835 0.2809 -2.4308 0
M  V30 37 H -1.3248 1.945 -6.1681 0
M  V30 38 H -2.7636 1.1337 -5.5508 0
M  V30 39 H -3.9958 -3.2375 2.2928 0
M  V30 40 H 1.936 -1.5439 4.2778 0
M  V30 41 H 1.1941 0.0923 4.2601 0
M  V30 42 H -2.4224 2.1807 -1.0421 0
M  V30 43 H -2.0882 3.3269 -2.3445 0
M  V30 44 H -0.7667 2.3937 -1.6251 0
M  V30 45 H -3.0761 3.567 -6.0609 0
M  V30 46 H -1.8696 3.9895 -4.8387 0
M  V30 47 H -3.4087 3.2371 -4.3608 0
M  V30 48 H 4.1976 -0.4926 4.3003 0
M  V30 49 H 3.4742 1.1018 4.2834 0
M  V30 50 H 2.3362 0.6164 6.4778 0
M  V30 51 H 3.0652 -0.9905 6.4948 0
M  V30 52 H 4.3582 0.5799 7.9011 0
M  V30 53 H 5.3457 0.039 6.533 0
M  V30 54 H 4.6126 1.655 6.5158 0
M  V30 END ATOM
M  V30 BEGIN BOND
M  V30 1 2 1 2
M  V30 2 1 2 3
M  V30 3 1 2 4
M  V30 4 1 3 5
M  V30 5 1 4 6
M  V30 6 2 4 7
M  V30 7 1 5 8
M  V30 8 1 6 9
M  V30 9 2 6 10
M  V30 10 1 7 11
M  V30 11 1 8 12
M  V30 12 1 9 13
M  V30 13 2 9 14
M  V30 14 1 10 15
M  V30 15 1 11 16
M  V30 16 1 12 17
M  V30 17 1 12 18
M  V30 18 1 14 19
M  V30 19 1 16 20
M  V30 20 1 17 21
M  V30 21 1 18 22
M  V30 22 1 20 23
M  V30 23 1 23 24
M  V30 24 1 24 25
M  V30 25 2 11 13
M  V30 26 2 15 19
M  V30 27 1 3 26
M  V30 28 1 5 27
M  V30 29 1 5 28
M  V30 30 1 7 29
M  V30 31 1 8 30
M  V30 32 1 8 31
M  V30 33 1 10 32
M  V30 34 1 14 33
M  V30 35 1 15 34
M  V30 36 1 17 35
M  V30 37 1 17 36
M  V30 38 1 18 37
M  V30 39 1 18 38
M  V30 40 1 19 39
M  V30 41 1 20 40
M  V30 42 1 20 41
M  V30 43 1 21 42
M  V30 44 1 21 43
M  V30 45 1 21 44
M  V30 46 1 22 45
M  V30 47 1 22 46
M  V30 48 1 22 47
M  V30 49 1 23 48
M  V30 50 1 23 49
M  V30 51 1 24 50
M  V30 52 1 24 51
M  V30 53 1 25 52
M  V30 54 1 25 53
M  V30 55 1 25 54
M  V30 END BOND
M  V30 END CTAB
M  END
>  <Column 1>
3288

>  <level_0>
5460

>  <index>
5461

>  <Unnamed: 0>
5461

>  <NO.>
5473

>  <Name>
dibucaine

>  <IUPAC_name>
2-butoxy-n-[2-(diethylamino)ethyl]quinoline-4-carboxamide

>  <SMILES>
CCCCOc1cc(C(=O)NCCN(CC)CC)c2ccccc2n1

>  <CID>
3025

>  <logBB>


>  <BBB+/BBB->
BBB-

>  <Inchi>
InChI=1S/C20H29N3O2/c1-4-7-14-25-19-15-17(16-10-8-9-11-18(16)22-19)20(24)21-12-13-23(5-2)6-3/h8-11-15H-4-7-12-14H2-1-3H3-(H-21-24)

>  <threshold>


>  <reference>
R15|R23|

>  <group>
C

>  <Class>
-1

>  <ABC>
18.37

>  <ABCGG>
15

>  <nAcid>
0

>  <nBase>
1

>  <nAromAtom>
10

>  <nAromBond>
11

>  <nAtom>
54

>  <nHeavyAtom>
25

>  <nSpiro>
0

>  <nBridgehead>
0

>  <nHetero>
5

>  <nN>
3

>  <nO>
2

>  <nF>
0

>  <BalabanJ>
1.87

>  <BertzCT>
683.7

>  <nBonds>
55

>  <nBondsO>
26

>  <nBondsS>
43

>  <nBondsD>
1

>  <nBondsT>
0

>  <nBondsA>
11

>  <nBondsM>
12

>  <nBondsKS>
49

>  <nBondsKD>
6

>  <RNCG>
0.23

>  <RPCG>
0.12

>  <FCSP3>
0.5

>  <SZ>
31

>  <Sm>
28.6

>  <Sv>
31.56

>  <Sse>
53.52

>  <Sp>
34.52

>  <Si>
61.31

>  <MZ>
0.57

>  <Mm>
0.53

>  <Mv>
0.58

>  <Mse>
0.99

>  <Mp>
0.64

>  <Mi>
1.14

>  <NsCH3>
3

>  <NdCH2>
0

>  <NssCH2>
7

>  <NtCH>
0

>  <NdsCH>
0

>  <NaaCH>
5

>  <NsssCH>
0

>  <NddC>
0

>  <NtsC>
0

>  <NdssC>
1

>  <NaasC>
2

>  <NaaaC>
2

>  <NssssC>
0

>  <NsNH3>
0

>  <NsNH2>
0

>  <NssNH2>
0

>  <NdNH>
0

>  <NssNH>
1

>  <NaaNH>
0

>  <NtN>
0

>  <NsssNH>
0

>  <NdsN>
0

>  <NaaN>
1

>  <NsssN>
1

>  <NddsN>
0

>  <NaasN>
0

>  <NssssN>
0

>  <NsOH>
0

>  <NdO>
1

>  <NssO>
1

>  <NaaO>
0

>  <NsF>
0

>  <NsSiH3>
0

>  <NssSiH2>
0

>  <NsssSiH>
0

>  <NssssSi>
0

>  <NsPH2>
0

>  <NssPH>
0

>  <NsssP>
0

>  <NdsssP>
0

>  <NsssssP>
0

>  <NsSH>
0

>  <NdS>
0

>  <NssS>
0

>  <NaaS>
0

>  <NdssS>
0

>  <NddssS>
0

>  <NsCl>
0

>  <NsBr>
0

>  <NsI>
0

>  <fragCpx>
76.05

>  <fMF>
0.19

>  <nHBAcc>
4

>  <nHBDon>
1

>  <Kier1>
21.3

>  <Kier2>
11.66

>  <Lipinski>
1

>  <GhoseFilter>
1

>  <FilterItLogS>
-5.98

>  <VMcGowan>
286.82

>  <LabuteASA>
149.93

>  <PEOE_VSA1>
14.95

>  <PEOE_VSA2>
4.79

>  <PEOE_VSA3>
4.98

>  <PEOE_VSA4>
0

>  <PEOE_VSA5>
0

>  <PEOE_VSA6>
45.39

>  <PEOE_VSA7>
25.58

>  <PEOE_VSA8>
24.54

>  <PEOE_VSA9>
17.69

>  <PEOE_VSA10>
0

>  <PEOE_VSA11>
0

>  <PEOE_VSA12>
5.88

>  <PEOE_VSA13>
5.91

>  <SMR_VSA1>
9.53

>  <SMR_VSA2>
0

>  <SMR_VSA3>
15.2

>  <SMR_VSA4>
0

>  <SMR_VSA5>
33.61

>  <SMR_VSA6>
32.79

>  <SMR_VSA7>
35.9

>  <SMR_VSA8>
0

>  <SMR_VSA9>
5.88

>  <SlogP_VSA1>
10.05

>  <SlogP_VSA2>
48.58

>  <SlogP_VSA3>
0

>  <SlogP_VSA4>
0

>  <SlogP_VSA5>
43.97

>  <SlogP_VSA6>
30.33

>  <SlogP_VSA7>
0

>  <SlogP_VSA8>
10.9

>  <SlogP_VSA9>
0

>  <SlogP_VSA10>
0

>  <SlogP_VSA11>
5.88

>  <EState_VSA1>
0

>  <EState_VSA2>
5.91

>  <EState_VSA3>
24.6

>  <EState_VSA4>
43.38

>  <EState_VSA5>
0

>  <EState_VSA6>
6.07

>  <EState_VSA7>
24.27

>  <EState_VSA8>
35.97

>  <EState_VSA9>
4.74

>  <EState_VSA10>
4.79

>  <VSA_EState1>
5.72

>  <VSA_EState2>
19.48

>  <VSA_EState3>
3.87

>  <VSA_EState4>
1.4

>  <VSA_EState5>
0.44

>  <VSA_EState6>
9.44

>  <VSA_EState7>
2.03

>  <VSA_EState8>
10.44

>  <VSA_EState9>
0

>  <apol>
57.64

>  <bpol>
35.12

>  <nRing>
2

>  <nHRing>
1

>  <naRing>
2

>  <naHRing>
1

>  <nARing 2>
0

>  <nAHRing 2>
0

>  <nFRing>
1

>  <nFHRing>
1

>  <nFaRing>
1

>  <nFaHRing>
1

>  <nFARing 2>
0

>  <nFAHRing 2>
0

>  <nRot>
10

>  <SLogP>
3.49

>  <SMR>
102.27

>  <TopoPSA(NO)>
54.46

>  <TopoPSA>
54.46

>  <JGI1>
0.15

>  <JGI2>
0.07

>  <JGI3>
0.04

>  <JGI4>
0.04

>  <JGI5>
0.02

>  <Diameter>
14

>  <Radius>
7

>  <TMWC10>
124.48

>  <TSRW10>
59

>  <MW>
343.23

>  <AMW>
6.36

>  <WPath>
1654

>  <WPol>
36

>  <Zagreb1>
118

>  <Zagreb2>
134

>  <mZagreb2>
6

>  <yes>


>  <nAR-cont>
0.336376

>  <nHA-cont>
0.921834225

>  <MWHBN>
0.269884153

>  <MWHBN-cont>
0.920374305

>  <TPSA-cont>
0.619835382

>  <pka_cont>
0.97

>  <yes.1>


>  <BBB_SCORE>
4.363442446

>  <MMFF94 Energy>
7.0757

$$$$
Compound 2627
Actelion Java MolfileCreator 2.0

  0  0  0  0  0  0              0 V3000
M  V30 BEGIN CTAB
M  V30 COUNTS 44 46 0 0 0
M  V30 BEGIN ATOM
M  V30 1 O 3.7796 -1.7678 -2.5722 0
M  V30 2 C 3.3948 -1.363 -1.4843 0
M  V30 3 C 2.009 -0.9302 -1.2514 0
M  V30 4 C 4.313 -1.289 -0.3414 0
M  V30 5 C 1.6428 -0.4794 0.0154 0
M  V30 6 C 1.0901 -0.9168 -2.2942 0
M  V30 7 C 3.8546 -0.835 0.8325 0
M  V30 8 O 2.5493 -0.4245 1.0501 0
M  V30 9 C 0.3221 -0.0413 0.281 0
M  V30 10 C -0.2221 -0.5141 -2.034 0
M  V30 11 C 4.7585 -0.7435 2.0059 0
M  V30 12 C -0.6592 -0.1701 -0.7342 0
M  V30 13 C 0.0567 0.6889 1.5912 0
M  V30 14 C -1.169 -0.3845 -3.1639 0
M  V30 15 O 4.4345 -0.3441 3.1112 0
M  V30 16 O 6.0175 -1.1482 1.7632 0
M  V30 17 N -2.0483 0.0587 -0.5351 0
M  V30 18 C 0.6857 2.0892 1.6043 0
M  V30 19 O -0.89 -0.7713 -4.2918 0
M  V30 20 C -2.453 0.2894 -2.9025 0
M  V30 21 C -2.8333 0.4732 -1.6282 0
M  V30 22 C -2.6605 -0.6573 0.614 0
M  V30 23 C 0.4002 2.8121 2.9118 0
M  V30 24 C -4.1662 1.1206 -1.3791 0
M  V30 25 C -3.4578 -1.8779 0.16 0
M  V30 26 O -4.6453 1.3819 -0.2884 0
M  V30 27 O -4.8504 1.415 -2.5004 0
M  V30 28 H 5.3321 -1.6099 -0.5163 0
M  V30 29 H 1.3908 -1.2044 -3.3003 0
M  V30 30 H 0.4355 0.085 2.4251 0
M  V30 31 H -1.0106 0.818 1.7785 0
M  V30 32 H 6.4737 -1.0251 2.6227 0
M  V30 33 H 1.7706 2.0352 1.4627 0
M  V30 34 H 0.2881 2.6823 0.7716 0
M  V30 35 H -3.0407 0.5583 -3.7703 0
M  V30 36 H -3.3002 0.0205 1.1879 0
M  V30 37 H -1.9106 -1.0349 1.317 0
M  V30 38 H 0.8537 3.8081 2.9009 0
M  V30 39 H -0.6766 2.9317 3.0678 0
M  V30 40 H 0.8124 2.26 3.7623 0
M  V30 41 H -2.8321 -2.5595 -0.4255 0
M  V30 42 H -4.3203 -1.5998 -0.4527 0
M  V30 43 H -3.834 -2.4247 1.0307 0
M  V30 44 H -5.674 1.8292 -2.1672 0
M  V30 END ATOM
M  V30 BEGIN BOND
M  V30 1 2 1 2
M  V30 2 1 2 3
M  V30 3 1 2 4
M  V30 4 2 3 5
M  V30 5 1 3 6
M  V30 6 2 4 7
M  V30 7 1 5 8
M  V30 8 1 5 9
M  V30 9 2 6 10
M  V30 10 1 7 11
M  V30 11 2 9 12
M  V30 12 1 9 13
M  V30 13 1 10 14
M  V30 14 2 11 15
M  V30 15 1 11 16
M  V30 16 1 12 17
M  V30 17 1 13 18
M  V30 18 2 14 19
M  V30 19 1 14 20
M  V30 20 1 17 21
M  V30 21 1 17 22
M  V30 22 1 18 23
M  V30 23 1 21 24
M  V30 24 1 22 25
M  V30 25 2 24 26
M  V30 26 1 24 27
M  V30 27 1 7 8
M  V30 28 1 10 12
M  V30 29 2 20 21
M  V30 30 1 4 28
M  V30 31 1 6 29
M  V30 32 1 13 30
M  V30 33 1 13 31
M  V30 34 1 16 32
M  V30 35 1 18 33
M  V30 36 1 18 34
M  V30 37 1 20 35
M  V30 38 1 22 36
M  V30 39 1 22 37
M  V30 40 1 23 38
M  V30 41 1 23 39
M  V30 42 1 23 40
M  V30 43 1 25 41
M  V30 44 1 25 42
M  V30 45 1 25 43
M  V30 46 1 27 44
M  V30 END BOND
M  V30 END CTAB
M  END
>  <Column 1>
3289

>  <level_0>
5465

>  <index>
5466

>  <Unnamed: 0>
5466

>  <NO.>
5478

>  <Name>
nedocromil

>  <IUPAC_name>
9-ethyl-4-6-dioxo-10-propylpyrano[3-2-g]quinoline-2-8-dicarboxylic acid

>  <SMILES>
CCCc1c2oc(C(=O)O)cc(=O)c2cc2c(=O)cc(C(=O)O)n(CC)c12

>  <CID>
50294

>  <logBB>


>  <BBB+/BBB->
BBB-

>  <Inchi>
InChI=1S/C19H17NO7/c1-3-5-9-16-10(13(21)7-12(18(23)24)20(16)4-2)6-11-14(22)8-15(19(25)26)27-17(9)11/h6-8H-3-5H2-1-2H3-(H-23-24)(H-25-26)

>  <threshold>


>  <reference>
R15|R23|R27|

>  <group>
C

>  <Class>
-1

>  <ABC>
20.76

>  <ABCGG>
17.49

>  <nAcid>
2

>  <nBase>
0

>  <nAromAtom>
14

>  <nAromBond>
16

>  <nAtom>
44

>  <nHeavyAtom>
27

>  <nSpiro>
0

>  <nBridgehead>
0

>  <nHetero>
8

>  <nN>
1

>  <nO>
7

>  <nF>
0

>  <BalabanJ>
1.95

>  <BertzCT>
1216.9

>  <nBonds>
46

>  <nBondsO>
29

>  <nBondsS>
26

>  <nBondsD>
4

>  <nBondsT>
0

>  <nBondsA>
16

>  <nBondsM>
20

>  <nBondsKS>
37

>  <nBondsKD>
9

>  <RNCG>
0.16

>  <RPCG>
0.12

>  <FCSP3>
0.26

>  <SZ>
32.33

>  <Sm>
30.92

>  <Sv>
29.37

>  <Sse>
45.52

>  <Sp>
29.81

>  <Si>
49.29

>  <MZ>
0.73

>  <Mm>
0.7

>  <Mv>
0.67

>  <Mse>
1.03

>  <Mp>
0.68

>  <Mi>
1.12

>  <NsCH3>
2

>  <NdCH2>
0

>  <NssCH2>
3

>  <NtCH>
0

>  <NdsCH>
0

>  <NaaCH>
3

>  <NsssCH>
0

>  <NddC>
0

>  <NtsC>
0

>  <NdssC>
2

>  <NaasC>
3

>  <NaaaC>
4

>  <NssssC>
0

>  <NsNH3>
0

>  <NsNH2>
0

>  <NssNH2>
0

>  <NdNH>
0

>  <NssNH>
0

>  <NaaNH>
0

>  <NtN>
0

>  <NsssNH>
0

>  <NdsN>
0

>  <NaaN>
0

>  <NsssN>
0

>  <NddsN>
0

>  <NaasN>
1

>  <NssssN>
0

>  <NsOH>
2

>  <NdO>
4

>  <NssO>
0

>  <NaaO>
1

>  <NsF>
0

>  <NsSiH3>
0

>  <NssSiH2>
0

>  <NsssSiH>
0

>  <NssssSi>
0

>  <NsPH2>
0

>  <NssPH>
0

>  <NsssP>
0

>  <NdsssP>
0

>  <NsssssP>
0

>  <NsSH>
0

>  <NdS>
0

>  <NssS>
0

>  <NaaS>
0

>  <NdssS>
0

>  <NddssS>
0

>  <NsCl>
0

>  <NsBr>
0

>  <NsI>
0

>  <fragCpx>
139.08

>  <fMF>
0.32

>  <nHBAcc>
6

>  <nHBDon>
2

>  <Kier1>
21.7

>  <Kier2>
8.79

>  <Lipinski>
1

>  <GhoseFilter>
1

>  <FilterItLogS>
-4.22

>  <VMcGowan>
258.36

>  <LabuteASA>
151.82

>  <PEOE_VSA1>
19.2

>  <PEOE_VSA2>
9.59

>  <PEOE_VSA3>
9.59

>  <PEOE_VSA4>
0

>  <PEOE_VSA5>
0

>  <PEOE_VSA6>
13.34

>  <PEOE_VSA7>
19.41

>  <PEOE_VSA8>
29.63

>  <PEOE_VSA9>
10.9

>  <PEOE_VSA10>
11.28

>  <PEOE_VSA11>
10.86

>  <PEOE_VSA12>
5.76

>  <PEOE_VSA13>
0

>  <SMR_VSA1>
24.22

>  <SMR_VSA2>
0

>  <SMR_VSA3>
4.57

>  <SMR_VSA4>
0

>  <SMR_VSA5>
33.23

>  <SMR_VSA6>
0

>  <SMR_VSA7>
55.66

>  <SMR_VSA8>
0

>  <SMR_VSA9>
0

>  <SlogP_VSA1>
10.86

>  <SlogP_VSA2>
26.72

>  <SlogP_VSA3>
12.97

>  <SlogP_VSA4>
0

>  <SlogP_VSA5>
46.88

>  <SlogP_VSA6>
32.21

>  <SlogP_VSA7>
0

>  <SlogP_VSA8>
21.87

>  <SlogP_VSA9>
0

>  <SlogP_VSA10>
0

>  <SlogP_VSA11>
0

>  <EState_VSA1>
28.56

>  <EState_VSA2>
28.59

>  <EState_VSA3>
23.92

>  <EState_VSA4>
12.13

>  <EState_VSA5>
10.63

>  <EState_VSA6>
6.92

>  <EState_VSA7>
6.92

>  <EState_VSA8>
0

>  <EState_VSA9>
4.42

>  <EState_VSA10>
29.39

>  <VSA_EState1>
6.94

>  <VSA_EState2>
47.85

>  <VSA_EState3>
18.96

>  <VSA_EState4>
-0.4

>  <VSA_EState5>
-3.15

>  <VSA_EState6>
3.25

>  <VSA_EState7>
0.99

>  <VSA_EState8>
3.88

>  <VSA_EState9>
0

>  <apol>
49.78

>  <bpol>
23.97

>  <nRing>
3

>  <nHRing>
2

>  <naRing>
3

>  <naHRing>
2

>  <nARing 2>
0

>  <nAHRing 2>
0

>  <nFRing>
1

>  <nFHRing>
1

>  <nFaRing>
1

>  <nFaHRing>
1

>  <nFARing 2>
0

>  <nFAHRing 2>
0

>  <nRot>
5

>  <SLogP>
2.48

>  <SMR>
97.84

>  <TopoPSA(NO)>
126.81

>  <TopoPSA>
126.81

>  <JGI1>
0.21

>  <JGI2>
0.09

>  <JGI3>
0.05

>  <JGI4>
0.06

>  <JGI5>
0.03

>  <Diameter>
10

>  <Radius>
5

>  <TMWC10>
134

>  <TSRW10>
62.73

>  <MW>
371.1

>  <AMW>
8.43

>  <WPath>
1602

>  <WPol>
52

>  <Zagreb1>
144

>  <Zagreb2>
176

>  <mZagreb2>
6.03

>  <yes>


>  <nAR-cont>
0.336376

>  <nHA-cont>
0.860070871

>  <MWHBN>
0.415283341

>  <MWHBN-cont>
0.416229033

>  <TPSA-cont>
0

>  <pka_cont>
0.97

>  <yes.1>


>  <BBB_SCORE>
2.305790421

>  <MMFF94 Energy>
36.403

$$$$
Compound 2628
Actelion Java MolfileCreator 2.0

  0  0  0  0  0  0              0 V3000
M  V30 BEGIN CTAB
M  V30 COUNTS 44 45 0 0 0
M  V30 BEGIN ATOM
M  V30 1 S -1.9033 0.3308 0.0826 0
M  V30 2 O -2.7604 1.4611 0.3457 0
M  V30 3 O -2.367 -0.8981 -0.5222 0
M  V30 4 N -0.5223 0.8665 -0.795 0
M  V30 5 C -1.1832 -0.1607 1.6223 0
M  V30 6 C 0.6443 -0.0736 -0.6433 0
M  V30 7 C -0.8191 1.228 -2.2092 0
M  V30 8 S -2.1891 -0.5017 2.9395 0
M  V30 9 C 0.1627 -0.3371 1.8837 0
M  V30 10 C 1.2165 -0.0615 0.8222 0 CFG=1
M  V30 11 C -0.0046 2.4624 -2.5959 0
M  V30 12 C -0.8429 -0.8743 3.9331 0
M  V30 13 C 0.3514 -0.7341 3.2479 0
M  V30 14 N 2.3756 -0.9386 1.0425 0
M  V30 15 C -0.1379 2.7914 -4.0783 0
M  V30 16 S -1.2049 -1.3474 5.6077 0
M  V30 17 C 2.1872 -2.3332 0.6465 0
M  V30 18 O -1.5095 3.0035 -4.3963 0
M  V30 19 O -1.5857 -0.1264 6.2751 0
M  V30 20 O -0.0783 -2.1552 6.0117 0
M  V30 21 N -2.5462 -2.3553 5.5804 0
M  V30 22 C 3.3861 -3.1511 1.1043 0
M  V30 23 C -1.6875 3.3615 -5.7607 0
M  V30 24 H 0.325 -1.0785 -0.9451 0
M  V30 25 H 1.4449 0.2292 -1.3285 0
M  V30 26 H -0.5859 0.3818 -2.866 0
M  V30 27 H -1.8856 1.4506 -2.328 0
M  V30 28 H 1.5589 0.9648 1.0178 0
M  V30 29 H 1.0552 2.3206 -2.3567 0
M  V30 30 H -0.3568 3.3134 -1.9991 0
M  V30 31 H 1.3168 -0.9186 3.7082 0
M  V30 32 H 3.1871 -0.5572 0.5568 0
M  V30 33 H 0.4361 3.6978 -4.3026 0
M  V30 34 H 0.2558 1.9673 -4.6845 0
M  V30 35 H 2.1008 -2.4195 -0.4416 0
M  V30 36 H 1.2833 -2.7582 1.0957 0
M  V30 37 H -3.3869 -1.8672 5.2755 0
M  V30 38 H -2.3589 -3.2395 5.1124 0
M  V30 39 H 4.3134 -2.787 0.649 0
M  V30 40 H 3.4991 -3.1122 2.1932 0
M  V30 41 H 3.259 -4.1995 0.816 0
M  V30 42 H -2.7561 3.5044 -5.9425 0
M  V30 43 H -1.3244 2.5641 -6.4159 0
M  V30 44 H -1.1667 4.2982 -5.9816 0
M  V30 END ATOM
M  V30 BEGIN BOND
M  V30 1 2 1 2
M  V30 2 2 1 3
M  V30 3 1 1 4
M  V30 4 1 1 5
M  V30 5 1 4 6
M  V30 6 1 4 7
M  V30 7 1 5 8
M  V30 8 2 5 9
M  V30 9 1 6 10
M  V30 10 1 7 11
M  V30 11 1 8 12
M  V30 12 1 9 13
M  V30 13 1 10 14
M  V30 14 1 11 15
M  V30 15 1 12 16
M  V30 16 1 14 17
M  V30 17 1 15 18
M  V30 18 2 16 19
M  V30 19 2 16 20
M  V30 20 1 16 21
M  V30 21 1 17 22
M  V30 22 1 18 23
M  V30 23 1 9 10
M  V30 24 2 12 13
M  V30 25 1 6 24
M  V30 26 1 6 25
M  V30 27 1 7 26
M  V30 28 1 7 27
M  V30 29 1 10 28
M  V30 30 1 11 29
M  V30 31 1 11 30
M  V30 32 1 13 31
M  V30 33 1 14 32
M  V30 34 1 15 33
M  V30 35 1 15 34
M  V30 36 1 17 35
M  V30 37 1 17 36
M  V30 38 1 21 37
M  V30 39 1 21 38
M  V30 40 1 22 39
M  V30 41 1 22 40
M  V30 42 1 22 41
M  V30 43 1 23 42
M  V30 44 1 23 43
M  V30 45 1 23 44
M  V30 END BOND
M  V30 BEGIN COLLECTION
M  V30 MDLV30/STEABS ATOMS=(1 10)
M  V30 END COLLECTION
M  V30 END CTAB
M  END
>  <Column 1>
3291

>  <level_0>
5467

>  <index>
5468

>  <Unnamed: 0>
5468

>  <NO.>
5480

>  <Name>
brinzolamide

>  <IUPAC_name>
(4r)-4-(ethylamino)-2-(3-methoxypropyl)-1-1-dioxo-3-4-dihydrothieno[3-2-e]thiazine-6-sulfonamide

>  <SMILES>
CCN[C@H]1CN(CCCOC)S(=O)(=O)c2sc(S(N)(=O)=O)cc21

>  <CID>
68844

>  <logBB>


>  <BBB+/BBB->
BBB-

>  <Inchi>
InChI=1S/C12H21N3O5S3/c1-3-14-10-8-15(5-4-6-20-2)23(18-19)12-9(10)7-11(21-12)22(13-16)17/h7-10-14H-3-6-8H2-1-2H3-(H2-13-16-17)/t10-/m0/s1

>  <threshold>


>  <reference>
R15|

>  <group>
C

>  <Class>
-1

>  <ABC>
17.5

>  <ABCGG>
15.39

>  <nAcid>
0

>  <nBase>
1

>  <nAromAtom>
5

>  <nAromBond>
5

>  <nAtom>
44

>  <nHeavyAtom>
23

>  <nSpiro>
0

>  <nBridgehead>
0

>  <nHetero>
11

>  <nN>
3

>  <nO>
5

>  <nF>
0

>  <BalabanJ>
2.16

>  <BertzCT>
756.9

>  <nBonds>
45

>  <nBondsO>
24

>  <nBondsS>
36

>  <nBondsD>
4

>  <nBondsT>
0

>  <nBondsA>
5

>  <nBondsM>
9

>  <nBondsKS>
39

>  <nBondsKD>
6

>  <RNCG>
0.18

>  <RPCG>
0.12

>  <FCSP3>
0.67

>  <SZ>
33.67

>  <Sm>
31.93

>  <Sv>
27.1

>  <Sse>
45.2

>  <Sp>
29.97

>  <Si>
50.04

>  <MZ>
0.77

>  <Mm>
0.73

>  <Mv>
0.62

>  <Mse>
1.03

>  <Mp>
0.68

>  <Mi>
1.14

>  <NsCH3>
2

>  <NdCH2>
0

>  <NssCH2>
5

>  <NtCH>
0

>  <NdsCH>
0

>  <NaaCH>
1

>  <NsssCH>
1

>  <NddC>
0

>  <NtsC>
0

>  <NdssC>
0

>  <NaasC>
3

>  <NaaaC>
0

>  <NssssC>
0

>  <NsNH3>
0

>  <NsNH2>
1

>  <NssNH2>
0

>  <NdNH>
0

>  <NssNH>
1

>  <NaaNH>
0

>  <NtN>
0

>  <NsssNH>
0

>  <NdsN>
0

>  <NaaN>
0

>  <NsssN>
1

>  <NddsN>
0

>  <NaasN>
0

>  <NssssN>
0

>  <NsOH>
0

>  <NdO>
4

>  <NssO>
1

>  <NaaO>
0

>  <NsF>
0

>  <NsSiH3>
0

>  <NssSiH2>
0

>  <NsssSiH>
0

>  <NssssSi>
0

>  <NsPH2>
0

>  <NssPH>
0

>  <NsssP>
0

>  <NdsssP>
0

>  <NsssssP>
0

>  <NsSH>
0

>  <NdS>
0

>  <NssS>
0

>  <NaaS>
1

>  <NdssS>
0

>  <NddssS>
2

>  <NsCl>
0

>  <NsBr>
0

>  <NsI>
0

>  <fragCpx>
70.11

>  <fMF>
0.2

>  <nHBAcc>
7

>  <nHBDon>
2

>  <Kier1>
19.33

>  <Kier2>
7.49

>  <Lipinski>
1

>  <GhoseFilter>
1

>  <FilterItLogS>
-2.79

>  <VMcGowan>
257.96

>  <LabuteASA>
140.27

>  <PEOE_VSA1>
10.05

>  <PEOE_VSA2>
0

>  <PEOE_VSA3>
21.97

>  <PEOE_VSA4>
4.31

>  <PEOE_VSA5>
11.34

>  <PEOE_VSA6>
6.92

>  <PEOE_VSA7>
19.03

>  <PEOE_VSA8>
38.41

>  <PEOE_VSA9>
0

>  <PEOE_VSA10>
8.42

>  <PEOE_VSA11>
0

>  <PEOE_VSA12>
10.02

>  <PEOE_VSA13>
10.02

>  <SMR_VSA1>
21.57

>  <SMR_VSA2>
0

>  <SMR_VSA3>
9.62

>  <SMR_VSA4>
5.14

>  <SMR_VSA5>
27.8

>  <SMR_VSA6>
33.35

>  <SMR_VSA7>
11.63

>  <SMR_VSA8>
0

>  <SMR_VSA9>
0

>  <SlogP_VSA1>
10.46

>  <SlogP_VSA2>
54.49

>  <SlogP_VSA3>
24.78

>  <SlogP_VSA4>
0

>  <SlogP_VSA5>
24.95

>  <SlogP_VSA6>
14.48

>  <SlogP_VSA7>
0

>  <SlogP_VSA8>
0

>  <SlogP_VSA9>
0

>  <SlogP_VSA10>
0

>  <SlogP_VSA11>
0

>  <EState_VSA1>
20.05

>  <EState_VSA2>
21

>  <EState_VSA3>
43.02

>  <EState_VSA4>
0

>  <EState_VSA5>
10.37

>  <EState_VSA6>
7.11

>  <EState_VSA7>
6.92

>  <EState_VSA8>
5.32

>  <EState_VSA9>
9.88

>  <EState_VSA10>
16.84

>  <VSA_EState1>
54.81

>  <VSA_EState2>
0

>  <VSA_EState3>
8.34

>  <VSA_EState4>
0.48

>  <VSA_EState5>
0

>  <VSA_EState6>
1.11

>  <VSA_EState7>
0.57

>  <VSA_EState8>
3.58

>  <VSA_EState9>
-6.1

>  <apol>
50.05

>  <bpol>
40.29

>  <nRing>
2

>  <nHRing>
2

>  <naRing>
1

>  <naHRing>
1

>  <nARing 2>
1

>  <nAHRing 2>
1

>  <nFRing>
1

>  <nFHRing>
1

>  <nFaRing>
0

>  <nFaHRing>
0

>  <nFARing 2>
1

>  <nFAHRing 2>
1

>  <nRot>
7

>  <SLogP>
0.09

>  <SMR>
87.36

>  <TopoPSA(NO)>
118.8

>  <TopoPSA>
163.8

>  <JGI1>
0.29

>  <JGI2>
0.1

>  <JGI3>
0.05

>  <JGI4>
0.06

>  <JGI5>
0.04

>  <Diameter>
11

>  <Radius>
6

>  <TMWC10>
122.9

>  <TSRW10>
71.76

>  <MW>
383.06

>  <AMW>
8.71

>  <WPath>
1142

>  <WPol>
38

>  <Zagreb1>
120

>  <Zagreb2>
142

>  <mZagreb2>
5.06

>  <yes>


>  <nAR-cont>
0.816016

>  <nHA-cont>
0.967789328

>  <MWHBN>
0.4598425

>  <MWHBN-cont>
0

>  <TPSA-cont>
0

>  <pka_cont>
0.97

>  <yes.1>


>  <BBB_SCORE>
2.268805328

>  <MMFF94 Energy>
-55.55

$$$$
Compound 2629
Actelion Java MolfileCreator 2.0

  0  0  0  0  0  0              0 V3000
M  V30 BEGIN CTAB
M  V30 COUNTS 35 36 0 0 0
M  V30 BEGIN ATOM
M  V30 1 S -1.4259 -2.4333 0.3353 0
M  V30 2 O -1.4228 -2.8192 1.7301 0
M  V30 3 O -2.4524 -2.8499 -0.5955 0
M  V30 4 C -1.4623 -0.6626 0.3421 0
M  V30 5 C 0.2116 -2.7225 -0.3637 0 CFG=2
M  V30 6 S -2.9376 0.0988 0.698 0
M  V30 7 C -0.4266 0.2209 0.105 0
M  V30 8 C 1.2305 -1.7073 0.1956 0
M  V30 9 C 0.1783 -2.7471 -1.8887 0
M  V30 10 C -2.2504 1.6511 0.4904 0
M  V30 11 C -0.9075 1.5722 0.1708 0
M  V30 12 C 0.9811 -0.2329 -0.2182 0 CFG=2
M  V30 13 S -3.3397 3.036 0.7218 0
M  V30 14 N 1.8879 0.6793 0.4765 0
M  V30 15 O -2.7592 4.0936 -0.0714 0
M  V30 16 O -3.5376 3.1304 2.1477 0
M  V30 17 N -4.8165 2.6542 0.0234 0
M  V30 18 C 3.2625 0.6314 -0.0097 0
M  V30 19 C 4.0884 1.6962 0.6966 0
M  V30 20 H 0.4954 -3.7225 -0.0126 0
M  V30 21 H 1.2306 -1.785 1.292 0
M  V30 22 H 2.23 -2.0148 -0.1349 0
M  V30 23 H 1.1847 -2.882 -2.2976 0
M  V30 24 H -0.243 -1.8277 -2.3069 0
M  V30 25 H -0.4385 -3.5782 -2.2471 0
M  V30 26 H -0.2931 2.452 0.0065 0
M  V30 27 H 1.1104 -0.1251 -1.3027 0
M  V30 28 H 1.8609 0.5171 1.4833 0
M  V30 29 H -4.7592 2.5743 -0.9895 0
M  V30 30 H -5.2788 1.8805 0.4984 0
M  V30 31 H 3.2927 0.8202 -1.0886 0
M  V30 32 H 3.7154 -0.3469 0.1792 0
M  V30 33 H 3.6842 2.6976 0.5132 0
M  V30 34 H 4.1118 1.5281 1.7787 0
M  V30 35 H 5.1199 1.6772 0.3306 0
M  V30 END ATOM
M  V30 BEGIN BOND
M  V30 1 2 1 2
M  V30 2 2 1 3
M  V30 3 1 1 4
M  V30 4 1 1 5
M  V30 5 1 4 6
M  V30 6 2 4 7
M  V30 7 1 5 8
M  V30 8 1 5 9
M  V30 9 1 6 10
M  V30 10 1 7 11
M  V30 11 1 7 12
M  V30 12 1 10 13
M  V30 13 1 12 14
M  V30 14 2 13 15
M  V30 15 2 13 16
M  V30 16 1 13 17
M  V30 17 1 14 18
M  V30 18 1 18 19
M  V30 19 1 8 12
M  V30 20 2 10 11
M  V30 21 1 5 20
M  V30 22 1 8 21
M  V30 23 1 8 22
M  V30 24 1 9 23
M  V30 25 1 9 24
M  V30 26 1 9 25
M  V30 27 1 11 26
M  V30 28 1 12 27
M  V30 29 1 14 28
M  V30 30 1 17 29
M  V30 31 1 17 30
M  V30 32 1 18 31
M  V30 33 1 18 32
M  V30 34 1 19 33
M  V30 35 1 19 34
M  V30 36 1 19 35
M  V30 END BOND
M  V30 BEGIN COLLECTION
M  V30 MDLV30/STEABS ATOMS=(2 5 12)
M  V30 END COLLECTION
M  V30 END CTAB
M  END
>  <Column 1>
3292

>  <level_0>
5468

>  <index>
5469

>  <Unnamed: 0>
5469

>  <NO.>
5481

>  <Name>
dorzolamide

>  <IUPAC_name>
(4s-6s)-4-(ethylamino)-6-methyl-7-7-dioxo-5-6-dihydro-4h-thieno[2-3-b]thiopyran-2-sulfonamide

>  <SMILES>
CCN[C@H]1C[C@H](C)S(=O)(=O)c2sc(S(N)(=O)=O)cc21

>  <CID>
5284549

>  <logBB>


>  <BBB+/BBB->
BBB-

>  <Inchi>
InChI=1S/C10H16N2O4S3/c1-3-12-8-4-6(2)18(13-14)10-7(8)5-9(17-10)19(11-15)16/h5-6-8-12H-3-4H2-1-2H3-(H2-11-15-16)/t6--8-/m0/s1

>  <threshold>


>  <reference>
R15|

>  <group>
C

>  <Class>
-1

>  <ABC>
14.78

>  <ABCGG>
13.43

>  <nAcid>
0

>  <nBase>
1

>  <nAromAtom>
5

>  <nAromBond>
5

>  <nAtom>
35

>  <nHeavyAtom>
19

>  <nSpiro>
0

>  <nBridgehead>
0

>  <nHetero>
9

>  <nN>
2

>  <nO>
4

>  <nF>
0

>  <BalabanJ>
2.22

>  <BertzCT>
690.36

>  <nBonds>
36

>  <nBondsO>
20

>  <nBondsS>
27

>  <nBondsD>
4

>  <nBondsT>
0

>  <nBondsA>
5

>  <nBondsM>
9

>  <nBondsKS>
30

>  <nBondsKD>
6

>  <RNCG>
0.19

>  <RPCG>
0.15

>  <FCSP3>
0.6

>  <SZ>
28.33

>  <Sm>
27.01

>  <Sv>
22.27

>  <Sse>
35.98

>  <Sp>
24.84

>  <Si>
39.5

>  <MZ>
0.81

>  <Mm>
0.77

>  <Mv>
0.64

>  <Mse>
1.03

>  <Mp>
0.71

>  <Mi>
1.13

>  <NsCH3>
2

>  <NdCH2>
0

>  <NssCH2>
2

>  <NtCH>
0

>  <NdsCH>
0

>  <NaaCH>
1

>  <NsssCH>
2

>  <NddC>
0

>  <NtsC>
0

>  <NdssC>
0

>  <NaasC>
3

>  <NaaaC>
0

>  <NssssC>
0

>  <NsNH3>
0

>  <NsNH2>
1

>  <NssNH2>
0

>  <NdNH>
0

>  <NssNH>
1

>  <NaaNH>
0

>  <NtN>
0

>  <NsssNH>
0

>  <NdsN>
0

>  <NaaN>
0

>  <NsssN>
0

>  <NddsN>
0

>  <NaasN>
0

>  <NssssN>
0

>  <NsOH>
0

>  <NdO>
4

>  <NssO>
0

>  <NaaO>
0

>  <NsF>
0

>  <NsSiH3>
0

>  <NssSiH2>
0

>  <NsssSiH>
0

>  <NssssSi>
0

>  <NsPH2>
0

>  <NssPH>
0

>  <NsssP>
0

>  <NdsssP>
0

>  <NsssssP>
0

>  <NsSH>
0

>  <NdS>
0

>  <NssS>
0

>  <NaaS>
1

>  <NdssS>
0

>  <NddssS>
2

>  <NsCl>
0

>  <NsBr>
0

>  <NsI>
0

>  <fragCpx>
58.09

>  <fMF>
0.26

>  <nHBAcc>
6

>  <nHBDon>
2

>  <Kier1>
15.39

>  <Kier2>
5.08

>  <Lipinski>
1

>  <GhoseFilter>
1

>  <FilterItLogS>
-2.58

>  <VMcGowan>
213.93

>  <LabuteASA>
116.53

>  <PEOE_VSA1>
5.32

>  <PEOE_VSA2>
0

>  <PEOE_VSA3>
21.97

>  <PEOE_VSA4>
0

>  <PEOE_VSA5>
11.34

>  <PEOE_VSA6>
6.92

>  <PEOE_VSA7>
25.96

>  <PEOE_VSA8>
11.61

>  <PEOE_VSA9>
5.25

>  <PEOE_VSA10>
8.42

>  <PEOE_VSA11>
9.84

>  <PEOE_VSA12>
10.02

>  <PEOE_VSA13>
0

>  <SMR_VSA1>
16.84

>  <SMR_VSA2>
0

>  <SMR_VSA3>
5.32

>  <SMR_VSA4>
5.14

>  <SMR_VSA5>
39.98

>  <SMR_VSA6>
6.54

>  <SMR_VSA7>
11.63

>  <SMR_VSA8>
0

>  <SMR_VSA9>
0

>  <SlogP_VSA1>
10.46

>  <SlogP_VSA2>
28.63

>  <SlogP_VSA3>
19.86

>  <SlogP_VSA4>
0

>  <SlogP_VSA5>
31.87

>  <SlogP_VSA6>
14.48

>  <SlogP_VSA7>
0

>  <SlogP_VSA8>
0

>  <SlogP_VSA9>
0

>  <SlogP_VSA10>
0

>  <SlogP_VSA11>
0

>  <EState_VSA1>
25.11

>  <EState_VSA2>
14.46

>  <EState_VSA3>
18.53

>  <EState_VSA4>
11.34

>  <EState_VSA5>
6.07

>  <EState_VSA6>
6.92

>  <EState_VSA7>
6.92

>  <EState_VSA8>
5.32

>  <EState_VSA9>
5.14

>  <EState_VSA10>
16.84

>  <VSA_EState1>
47.27

>  <VSA_EState2>
0

>  <VSA_EState3>
7.73

>  <VSA_EState4>
0.52

>  <VSA_EState5>
0

>  <VSA_EState6>
1.23

>  <VSA_EState7>
0.43

>  <VSA_EState8>
4.23

>  <VSA_EState9>
-7.33

>  <apol>
41.48

>  <bpol>
31.82

>  <nRing>
2

>  <nHRing>
2

>  <naRing>
1

>  <naHRing>
1

>  <nARing 2>
1

>  <nAHRing 2>
1

>  <nFRing>
1

>  <nFHRing>
1

>  <nFaRing>
0

>  <nFaHRing>
0

>  <nFARing 2>
1

>  <nFAHRing 2>
1

>  <nRot>
3

>  <SLogP>
0.61

>  <SMR>
73.37

>  <TopoPSA(NO)>
106.33

>  <TopoPSA>
151.33

>  <JGI1>
0.35

>  <JGI2>
0.12

>  <JGI3>
0.05

>  <JGI4>
0.07

>  <JGI5>
0.05

>  <Diameter>
8

>  <Radius>
4

>  <TMWC10>
113.94

>  <TSRW10>
67.21

>  <MW>
324.03

>  <AMW>
9.26

>  <WPath>
634

>  <WPol>
33

>  <Zagreb1>
104

>  <Zagreb2>
125

>  <mZagreb2>
3.97

>  <yes>


>  <nAR-cont>
0.816016

>  <nHA-cont>
0.998649058

>  <MWHBN>
0.44442387

>  <MWHBN-cont>
0.306055606

>  <TPSA-cont>
0

>  <pka_cont>
0.97

>  <yes.1>


>  <BBB_SCORE>
2.758748467

>  <MMFF94 Energy>
-46.499

$$$$
Compound 2630
Actelion Java MolfileCreator 2.0

  0  0  0  0  0  0              0 V3000
M  V30 BEGIN CTAB
M  V30 COUNTS 46 48 0 0 0
M  V30 BEGIN ATOM
M  V30 1 S 5.8256 -1.6156 -2.5859 0
M  V30 2 C 4.2723 -1.1086 -1.865 0
M  V30 3 C 5.3738 -3.2256 -3.2647 0
M  V30 4 C 3.0217 -1.6971 -2.1374 0
M  V30 5 C 4.3596 -0.0294 -0.9659 0
M  V30 6 C 4.0636 -3.1169 -4.0188 0
M  V30 7 C 1.8952 -1.1913 -1.4443 0
M  V30 8 C 2.8338 -2.8711 -3.1087 0
M  V30 9 C 3.2308 0.4627 -0.3118 0
M  V30 10 C 1.9952 -0.1237 -0.5469 0
M  V30 11 C 2.529 -4.146 -2.2894 0
M  V30 12 C 1.6429 -2.6177 -4.0683 0
M  V30 13 C 0.8284 0.3572 0.1251 0
M  V30 14 C -0.1594 0.7521 0.6836 0
M  V30 15 C -1.3362 1.2163 1.3434 0
M  V30 16 N -2.4286 0.4405 1.1722 0
M  V30 17 C -1.3274 2.3816 2.0967 0
M  V30 18 C -3.5681 0.8504 1.7851 0
M  V30 19 C -2.5133 2.7793 2.7157 0
M  V30 20 C -3.6636 2.0002 2.5603 0
M  V30 21 C -4.969 2.3305 3.1719 0
M  V30 22 O -5.97 1.647 3.0326 0
M  V30 23 O -4.8797 3.4774 3.8894 0
M  V30 24 C -6.105 3.8733 4.5192 0
M  V30 25 C -5.8514 5.1612 5.2782 0
M  V30 26 H 6.1703 -3.5346 -3.9493 0
M  V30 27 H 5.3319 -3.9683 -2.4632 0
M  V30 28 H 5.3221 0.4367 -0.7612 0
M  V30 29 H 3.915 -4.0469 -4.5844 0
M  V30 30 H 4.1417 -2.3223 -4.775 0
M  V30 31 H 0.9138 -1.6382 -1.5944 0
M  V30 32 H 3.3305 1.2944 0.3803 0
M  V30 33 H 2.4534 -5.0253 -2.9392 0
M  V30 34 H 3.303 -4.3463 -1.5407 0
M  V30 35 H 1.579 -4.0613 -1.7484 0
M  V30 36 H 1.5677 -3.4132 -4.8194 0
M  V30 37 H 1.7595 -1.666 -4.6001 0
M  V30 38 H 0.68 -2.5894 -3.5476 0
M  V30 39 H -0.4227 2.9709 2.2035 0
M  V30 40 H -4.4269 0.2018 1.6256 0
M  V30 41 H -2.5257 3.6892 3.3098 0
M  V30 42 H -6.4326 3.0922 5.2144 0
M  V30 43 H -6.8757 4.0378 3.7578 0
M  V30 44 H -6.7611 5.5053 5.7783 0
M  V30 45 H -5.0673 5.018 6.0291 0
M  V30 46 H -5.5023 5.9463 4.5993 0
M  V30 END ATOM
M  V30 BEGIN BOND
M  V30 1 1 1 2
M  V30 2 1 1 3
M  V30 3 2 2 4
M  V30 4 1 2 5
M  V30 5 1 3 6
M  V30 6 1 4 7
M  V30 7 1 4 8
M  V30 8 2 5 9
M  V30 9 2 7 10
M  V30 10 1 8 11
M  V30 11 1 8 12
M  V30 12 1 10 13
M  V30 13 3 13 14
M  V30 14 1 14 15
M  V30 15 2 15 16
M  V30 16 1 15 17
M  V30 17 1 16 18
M  V30 18 2 17 19
M  V30 19 2 18 20
M  V30 20 1 20 21
M  V30 21 2 21 22
M  V30 22 1 21 23
M  V30 23 1 23 24
M  V30 24 1 24 25
M  V30 25 1 6 8
M  V30 26 1 9 10
M  V30 27 1 19 20
M  V30 28 1 3 26
M  V30 29 1 3 27
M  V30 30 1 5 28
M  V30 31 1 6 29
M  V30 32 1 6 30
M  V30 33 1 7 31
M  V30 34 1 9 32
M  V30 35 1 11 33
M  V30 36 1 11 34
M  V30 37 1 11 35
M  V30 38 1 12 36
M  V30 39 1 12 37
M  V30 40 1 12 38
M  V30 41 1 17 39
M  V30 42 1 18 40
M  V30 43 1 19 41
M  V30 44 1 24 42
M  V30 45 1 24 43
M  V30 46 1 25 44
M  V30 47 1 25 45
M  V30 48 1 25 46
M  V30 END BOND
M  V30 END CTAB
M  END
>  <Column 1>
3293

>  <level_0>
5475

>  <index>
5476

>  <Unnamed: 0>
5476

>  <NO.>
5488

>  <Name>
tazarotene

>  <IUPAC_name>
ethyl 6-[2-(4-4-dimethyl-2-3-dihydrothiochromen-6-yl)ethynyl]pyridine-3-carboxylate

>  <SMILES>
CCOC(=O)c1ccc(C#Cc2ccc3c(c2)C(C)(C)CCS3)nc1

>  <CID>
5381

>  <logBB>


>  <BBB+/BBB->
BBB-

>  <Inchi>
InChI=1S/C21H21NO2S/c1-4-24-20(23)16-7-9-17(22-14-16)8-5-15-6-10-19-18(13-15)21(2-3)11-12-25-19/h6-7-9-10-13-14H-4-11-12H2-1-3H3

>  <threshold>


>  <reference>
R15|R23|

>  <group>
C

>  <Class>
-1

>  <ABC>
19.38

>  <ABCGG>
14.49

>  <nAcid>
0

>  <nBase>
0

>  <nAromAtom>
12

>  <nAromBond>
12

>  <nAtom>
46

>  <nHeavyAtom>
25

>  <nSpiro>
0

>  <nBridgehead>
0

>  <nHetero>
4

>  <nN>
1

>  <nO>
2

>  <nF>
0

>  <BalabanJ>
1.4

>  <BertzCT>
844.44

>  <nBonds>
48

>  <nBondsO>
27

>  <nBondsS>
34

>  <nBondsD>
1

>  <nBondsT>
1

>  <nBondsA>
12

>  <nBondsM>
14

>  <nBondsKS>
40

>  <nBondsKD>
7

>  <RNCG>
0.29

>  <RPCG>
0.21

>  <FCSP3>
0.33

>  <SZ>
31

>  <Sm>
29.26

>  <Sv>
30.06

>  <Sse>
45.72

>  <Sp>
32.74

>  <Si>
50.99

>  <MZ>
0.67

>  <Mm>
0.64

>  <Mv>
0.65

>  <Mse>
0.99

>  <Mp>
0.71

>  <Mi>
1.11

>  <NsCH3>
3

>  <NdCH2>
0

>  <NssCH2>
3

>  <NtCH>
0

>  <NdsCH>
0

>  <NaaCH>
6

>  <NsssCH>
0

>  <NddC>
0

>  <NtsC>
2

>  <NdssC>
1

>  <NaasC>
5

>  <NaaaC>
0

>  <NssssC>
1

>  <NsNH3>
0

>  <NsNH2>
0

>  <NssNH2>
0

>  <NdNH>
0

>  <NssNH>
0

>  <NaaNH>
0

>  <NtN>
0

>  <NsssNH>
0

>  <NdsN>
0

>  <NaaN>
1

>  <NsssN>
0

>  <NddsN>
0

>  <NaasN>
0

>  <NssssN>
0

>  <NsOH>
0

>  <NdO>
1

>  <NssO>
1

>  <NaaO>
0

>  <NsF>
0

>  <NsSiH3>
0

>  <NssSiH2>
0

>  <NsssSiH>
0

>  <NssssSi>
0

>  <NsPH2>
0

>  <NssPH>
0

>  <NsssP>
0

>  <NdsssP>
0

>  <NsssssP>
0

>  <NsSH>
0

>  <NdS>
0

>  <NssS>
1

>  <NaaS>
0

>  <NdssS>
0

>  <NddssS>
0

>  <NsCl>
0

>  <NsBr>
0

>  <NsI>
0

>  <fragCpx>
129.04

>  <fMF>
0.39

>  <nHBAcc>
4

>  <nHBDon>
0

>  <Kier1>
19.75

>  <Kier2>
8.79

>  <Lipinski>
1

>  <GhoseFilter>
1

>  <FilterItLogS>
-5.86

>  <VMcGowan>
273.54

>  <LabuteASA>
152.75

>  <PEOE_VSA1>
4.74

>  <PEOE_VSA2>
0

>  <PEOE_VSA3>
9.78

>  <PEOE_VSA4>
0

>  <PEOE_VSA5>
11.76

>  <PEOE_VSA6>
19.77

>  <PEOE_VSA7>
66.33

>  <PEOE_VSA8>
16.66

>  <PEOE_VSA9>
12.17

>  <PEOE_VSA10>
5.69

>  <PEOE_VSA11>
0

>  <PEOE_VSA12>
0

>  <PEOE_VSA13>
0

>  <SMR_VSA1>
9.53

>  <SMR_VSA2>
0

>  <SMR_VSA3>
4.98

>  <SMR_VSA4>
0

>  <SMR_VSA5>
37.5

>  <SMR_VSA6>
12.36

>  <SMR_VSA7>
58.91

>  <SMR_VSA8>
0

>  <SMR_VSA9>
11.84

>  <SlogP_VSA1>
0

>  <SlogP_VSA2>
23.31

>  <SlogP_VSA3>
10.15

>  <SlogP_VSA4>
11.84

>  <SlogP_VSA5>
54.37

>  <SlogP_VSA6>
41.42

>  <SlogP_VSA7>
0

>  <SlogP_VSA8>
0

>  <SlogP_VSA9>
0

>  <SlogP_VSA10>
0

>  <SlogP_VSA11>
0

>  <EState_VSA1>
0

>  <EState_VSA2>
11.38

>  <EState_VSA3>
17.86

>  <EState_VSA4>
5.56

>  <EState_VSA5>
28.83

>  <EState_VSA6>
19.06

>  <EState_VSA7>
11.76

>  <EState_VSA8>
48.87

>  <EState_VSA9>
4.74

>  <EState_VSA10>
4.79

>  <VSA_EState1>
4.95

>  <VSA_EState2>
17.23

>  <VSA_EState3>
0

>  <VSA_EState4>
3.64

>  <VSA_EState5>
7.07

>  <VSA_EState6>
9.87

>  <VSA_EState7>
2.69

>  <VSA_EState8>
6.72

>  <VSA_EState9>
0

>  <apol>
54.68

>  <bpol>
27.27

>  <nRing>
3

>  <nHRing>
2

>  <naRing>
2

>  <naHRing>
1

>  <nARing 2>
1

>  <nAHRing 2>
1

>  <nFRing>
1

>  <nFHRing>
1

>  <nFaRing>
0

>  <nFaHRing>
0

>  <nFARing 2>
1

>  <nFAHRing 2>
1

>  <nRot>
2

>  <SLogP>
4.43

>  <SMR>
100.98

>  <TopoPSA(NO)>
39.19

>  <TopoPSA>
64.49

>  <JGI1>
0.22

>  <JGI2>
0.09

>  <JGI3>
0.04

>  <JGI4>
0.05

>  <JGI5>
0.03

>  <Diameter>
15

>  <Radius>
8

>  <TMWC10>
127.02

>  <TSRW10>
59.84

>  <MW>
351.13

>  <AMW>
7.63

>  <WPath>
1736

>  <WPol>
39

>  <Zagreb1>
130

>  <Zagreb2>
151

>  <mZagreb2>
5.51

>  <yes>


>  <nAR-cont>
0.816016

>  <nHA-cont>
0.921834225

>  <MWHBN>
0.213464678

>  <MWHBN-cont>
0.998256014

>  <TPSA-cont>
0.549819754

>  <pka_cont>
0.97

>  <yes.1>


>  <BBB_SCORE>
4.819873754

>  <MMFF94 Energy>
50.414

$$$$
Compound 2631
Actelion Java MolfileCreator 2.0

  0  0  0  0  0  0              0 V3000
M  V30 BEGIN CTAB
M  V30 COUNTS 53 57 0 0 0
M  V30 BEGIN ATOM
M  V30 1 O 3.3766 1.446 -2.0893 0
M  V30 2 C 3.5303 2.6284 -1.8619 0
M  V30 3 O 4.6184 3.2857 -2.3041 0
M  V30 4 C 2.6237 3.5224 -1.1176 0
M  V30 5 C 1.8699 3.1315 0.0121 0
M  V30 6 C 2.4588 4.8422 -1.5942 0
M  V30 7 N 1.7414 2.0003 0.8 0
M  V30 8 C 0.993 4.0407 0.6247 0
M  V30 9 C 1.5859 5.7392 -0.9875 0
M  V30 10 C 0.8476 2.2865 1.8088 0
M  V30 11 C 2.4484 0.7306 0.737 0
M  V30 12 N 0.368 3.4996 1.7134 0
M  V30 13 C 0.8448 5.3444 0.1228 0
M  V30 14 O 0.559 1.409 2.7679 0
M  V30 15 C 1.554 -0.4084 0.3031 0
M  V30 16 C -0.5507 1.7445 3.6001 0
M  V30 17 C 0.9721 -0.4376 -0.9703 0
M  V30 18 C 1.2881 -1.4684 1.1824 0
M  V30 19 C -1.8551 1.3102 2.9543 0
M  V30 20 C 0.1438 -1.4969 -1.3536 0
M  V30 21 C 0.4591 -2.527 0.7982 0
M  V30 22 C -0.127 -2.5542 -0.474 0
M  V30 23 C -0.9845 -3.6764 -0.8879 0
M  V30 24 C -2.3879 -3.577 -1.0274 0
M  V30 25 C -0.3634 -4.9031 -1.204 0
M  V30 26 C -3.1272 -2.3659 -0.6886 0
M  V30 27 C -3.1152 -4.6887 -1.4981 0
M  V30 28 C -1.1006 -5.9984 -1.6562 0
M  V30 29 N -2.8435 -1.5816 0.4058 0
M  V30 30 N -4.2026 -1.9226 -1.3688 0
M  V30 31 C -2.4771 -5.8898 -1.8081 0
M  V30 32 N -3.7332 -0.5995 0.4175 0
M  V30 33 N -4.5 -0.8303 -0.6506 0
M  V30 34 H 5.1365 2.602 -2.7783 0
M  V30 35 H 3.018 5.1746 -2.4682 0
M  V30 36 H 1.4787 6.7477 -1.3789 0
M  V30 37 H 3.3263 0.8144 0.1 0
M  V30 38 H 2.8456 0.5468 1.7441 0
M  V30 39 H 0.1614 6.0315 0.6116 0
M  V30 40 H -0.5633 2.8078 3.8687 0
M  V30 41 H -0.4207 1.1897 4.5361 0
M  V30 42 H 1.1531 0.3649 -1.6811 0
M  V30 43 H 1.7107 -1.4726 2.1851 0
M  V30 44 H -2.7001 1.4984 3.6226 0
M  V30 45 H -2.0283 1.844 2.0145 0
M  V30 46 H -1.8251 0.2422 2.7153 0
M  V30 47 H -0.2909 -1.4908 -2.3511 0
M  V30 48 H 0.2602 -3.3282 1.5069 0
M  V30 49 H 0.7174 -5.0005 -1.1105 0
M  V30 50 H -4.1957 -4.6215 -1.6173 0
M  V30 51 H -0.5961 -6.9304 -1.8972 0
M  V30 52 H -3.0566 -6.7368 -2.1659 0
M  V30 53 H -5.2689 -0.2134 -0.8959 0
M  V30 END ATOM
M  V30 BEGIN BOND
M  V30 1 2 1 2
M  V30 2 1 2 3
M  V30 3 1 2 4
M  V30 4 2 4 5
M  V30 5 1 4 6
M  V30 6 1 5 7
M  V30 7 1 5 8
M  V30 8 2 6 9
M  V30 9 1 7 10
M  V30 10 1 7 11
M  V30 11 1 8 12
M  V30 12 2 8 13
M  V30 13 1 10 14
M  V30 14 1 11 15
M  V30 15 1 14 16
M  V30 16 2 15 17
M  V30 17 1 15 18
M  V30 18 1 16 19
M  V30 19 1 17 20
M  V30 20 2 18 21
M  V30 21 2 20 22
M  V30 22 1 22 23
M  V30 23 2 23 24
M  V30 24 1 23 25
M  V30 25 1 24 26
M  V30 26 1 24 27
M  V30 27 2 25 28
M  V30 28 1 26 29
M  V30 29 2 26 30
M  V30 30 2 27 31
M  V30 31 2 29 32
M  V30 32 1 30 33
M  V30 33 1 9 13
M  V30 34 2 10 12
M  V30 35 1 21 22
M  V30 36 1 28 31
M  V30 37 1 32 33
M  V30 38 1 3 34
M  V30 39 1 6 35
M  V30 40 1 9 36
M  V30 41 1 11 37
M  V30 42 1 11 38
M  V30 43 1 13 39
M  V30 44 1 16 40
M  V30 45 1 16 41
M  V30 46 1 17 42
M  V30 47 1 18 43
M  V30 48 1 19 44
M  V30 49 1 19 45
M  V30 50 1 19 46
M  V30 51 1 20 47
M  V30 52 1 21 48
M  V30 53 1 25 49
M  V30 54 1 27 50
M  V30 55 1 28 51
M  V30 56 1 31 52
M  V30 57 1 33 53
M  V30 END BOND
M  V30 END CTAB
M  END
>  <Column 1>
3294

>  <level_0>
5478

>  <index>
5479

>  <Unnamed: 0>
5479

>  <NO.>
5491

>  <Name>
candesartan

>  <IUPAC_name>
2-ethoxy-3-[[4-[2-(2h-tetrazol-5-yl)phenyl]phenyl]methyl]benzimidazole-4-carboxylic acid

>  <SMILES>
CCOc1nc2cccc(C(=O)O)c2n1Cc1ccc(-c2ccccc2-c2nn[nH]n2)cc1

>  <CID>
2541

>  <logBB>


>  <BBB+/BBB->
BBB-

>  <Inchi>
InChI=1S/C24H20N6O3/c1-2-33-24-25-20-9-5-8-19(23(31)32)21(20)30(24)14-15-10-12-16(13-11-15)17-6-3-4-7-18(17)22-26-28-29-27-22/h3-13H-2-14H2-1H3-(H-31-32)(H-26-27-28-29)

>  <threshold>


>  <reference>
R15|

>  <group>
C

>  <Class>
-1

>  <ABC>
26.06

>  <ABCGG>
20.04

>  <nAcid>
3

>  <nBase>
0

>  <nAromAtom>
26

>  <nAromBond>
27

>  <nAtom>
53

>  <nHeavyAtom>
33

>  <nSpiro>
0

>  <nBridgehead>
0

>  <nHetero>
9

>  <nN>
6

>  <nO>
3

>  <nF>
0

>  <BalabanJ>
1.2

>  <BertzCT>
1424.91

>  <nBonds>
57

>  <nBondsO>
37

>  <nBondsS>
29

>  <nBondsD>
1

>  <nBondsT>
0

>  <nBondsA>
27

>  <nBondsM>
28

>  <nBondsKS>
44

>  <nBondsKD>
13

>  <RNCG>
0.17

>  <RPCG>
0.12

>  <FCSP3>
0.13

>  <SZ>
38.33

>  <Sm>
36.67

>  <Sv>
36.11

>  <Sse>
53.85

>  <Sp>
37.38

>  <Si>
59.53

>  <MZ>
0.72

>  <Mm>
0.69

>  <Mv>
0.68

>  <Mse>
1.02

>  <Mp>
0.71

>  <Mi>
1.12

>  <NsCH3>
1

>  <NdCH2>
0

>  <NssCH2>
2

>  <NtCH>
0

>  <NdsCH>
0

>  <NaaCH>
11

>  <NsssCH>
0

>  <NddC>
0

>  <NtsC>
0

>  <NdssC>
1

>  <NaasC>
7

>  <NaaaC>
2

>  <NssssC>
0

>  <NsNH3>
0

>  <NsNH2>
0

>  <NssNH2>
0

>  <NdNH>
0

>  <NssNH>
0

>  <NaaNH>
1

>  <NtN>
0

>  <NsssNH>
0

>  <NdsN>
0

>  <NaaN>
4

>  <NsssN>
0

>  <NddsN>
0

>  <NaasN>
1

>  <NssssN>
0

>  <NsOH>
1

>  <NdO>
1

>  <NssO>
1

>  <NaaO>
0

>  <NsF>
0

>  <NsSiH3>
0

>  <NssSiH2>
0

>  <NsssSiH>
0

>  <NssssSi>
0

>  <NsPH2>
0

>  <NssPH>
0

>  <NsssP>
0

>  <NdsssP>
0

>  <NsssssP>
0

>  <NsSH>
0

>  <NdS>
0

>  <NssS>
0

>  <NaaS>
0

>  <NdssS>
0

>  <NddssS>
0

>  <NsCl>
0

>  <NsBr>
0

>  <NsI>
0

>  <fragCpx>
313.09

>  <fMF>
0.51

>  <nHBAcc>
7

>  <nHBDon>
2

>  <Kier1>
24.68

>  <Kier2>
11.37

>  <Lipinski>
1

>  <GhoseFilter>
1

>  <FilterItLogS>
-6.26

>  <VMcGowan>
316.31

>  <LabuteASA>
188.23

>  <PEOE_VSA1>
9.84

>  <PEOE_VSA2>
4.57

>  <PEOE_VSA3>
4.79

>  <PEOE_VSA4>
10.2

>  <PEOE_VSA5>
10.2

>  <PEOE_VSA6>
54.6

>  <PEOE_VSA7>
40.96

>  <PEOE_VSA8>
5.56

>  <PEOE_VSA9>
29.75

>  <PEOE_VSA10>
0

>  <PEOE_VSA11>
0

>  <PEOE_VSA12>
5.82

>  <PEOE_VSA13>
6.01

>  <SMR_VSA1>
14.64

>  <SMR_VSA2>
0

>  <SMR_VSA3>
30.18

>  <SMR_VSA4>
0

>  <SMR_VSA5>
13.47

>  <SMR_VSA6>
6.61

>  <SMR_VSA7>
77.86

>  <SMR_VSA8>
0

>  <SMR_VSA9>
28.53

>  <SlogP_VSA1>
4.74

>  <SlogP_VSA2>
47.86

>  <SlogP_VSA3>
6.54

>  <SlogP_VSA4>
0

>  <SlogP_VSA5>
22.85

>  <SlogP_VSA6>
66.73

>  <SlogP_VSA7>
0

>  <SlogP_VSA8>
33.55

>  <SlogP_VSA9>
0

>  <SlogP_VSA10>
0

>  <SlogP_VSA11>
6.01

>  <EState_VSA1>
5.97

>  <EState_VSA2>
5.56

>  <EState_VSA3>
36.02

>  <EState_VSA4>
22.25

>  <EState_VSA5>
0

>  <EState_VSA6>
18.2

>  <EState_VSA7>
60.02

>  <EState_VSA8>
25.61

>  <EState_VSA9>
4.74

>  <EState_VSA10>
9.9

>  <VSA_EState1>
7.53

>  <VSA_EState2>
16.32

>  <VSA_EState3>
24.03

>  <VSA_EState4>
5.17

>  <VSA_EState5>
-0.47

>  <VSA_EState6>
21.37

>  <VSA_EState7>
0

>  <VSA_EState8>
2.72

>  <VSA_EState9>
0

>  <apol>
62.42

>  <bpol>
26.09

>  <nRing>
5

>  <nHRing>
2

>  <naRing>
5

>  <naHRing>
2

>  <nARing 2>
0

>  <nAHRing 2>
0

>  <nFRing>
1

>  <nFHRing>
1

>  <nFaRing>
1

>  <nFaHRing>
1

>  <nFARing 2>
0

>  <nFAHRing 2>
0

>  <nRot>
7

>  <SLogP>
4.03

>  <SMR>
122.01

>  <TopoPSA(NO)>
118.81

>  <TopoPSA>
118.81

>  <JGI1>
0.14

>  <JGI2>
0.07

>  <JGI3>
0.05

>  <JGI4>
0.03

>  <JGI5>
0.03

>  <Diameter>
14

>  <Radius>
7

>  <TMWC10>
148.94

>  <TSRW10>
85.24

>  <MW>
440.16

>  <AMW>
8.3

>  <WPath>
3326

>  <WPol>
54

>  <Zagreb1>
178

>  <Zagreb2>
214

>  <mZagreb2>
7.31

>  <yes>


>  <nAR-cont>
0.336376

>  <nHA-cont>
0.61399562

>  <MWHBN>
0.428980176

>  <MWHBN-cont>
0.363579356

>  <TPSA-cont>
0.170632423

>  <pka_cont>
0.97

>  <yes.1>


>  <BBB_SCORE>
2.3220055

>  <MMFF94 Energy>
68.836

$$$$
Compound 2632
Actelion Java MolfileCreator 2.0

  0  0  0  0  0  0              0 V3000
M  V30 BEGIN CTAB
M  V30 COUNTS 28 28 0 0 0
M  V30 BEGIN ATOM
M  V30 1 O -0.2327 -3.9625 -0.3103 0
M  V30 2 C -0.0034 -2.6827 -0.7181 0
M  V30 3 C -0.3983 -1.5843 0.0467 0
M  V30 4 C 0.6427 -2.5169 -1.9354 0
M  V30 5 C -0.1395 -0.2838 -0.4126 0
M  V30 6 C 0.9027 -1.2356 -2.4051 0
M  V30 7 N -0.5488 0.957 0.3732 0 CHG=1
M  V30 8 C 0.5135 -0.1265 -1.6499 0
M  V30 9 C 0.6789 1.8468 0.6545 0
M  V30 10 C -1.5593 1.7349 -0.4832 0
M  V30 11 C -1.2531 0.6209 1.6862 0
M  V30 12 C 1.7726 1.1473 1.4495 0
M  V30 13 H -0.6768 -3.9858 0.5527 0
M  V30 14 H -0.9003 -1.7797 0.9851 0
M  V30 15 H 0.9422 -3.387 -2.5166 0
M  V30 16 H 1.4085 -1.1033 -3.3599 0
M  V30 17 H 0.7377 0.8537 -2.0606 0
M  V30 18 H 1.069 2.2074 -0.3032 0
M  V30 19 H 0.3146 2.7206 1.2083 0
M  V30 20 H -1.916 2.5878 0.1034 0
M  V30 21 H -2.3939 1.0709 -0.7312 0
M  V30 22 H -1.0682 2.1008 -1.3892 0
M  V30 23 H -2.1865 0.0926 1.4655 0
M  V30 24 H -1.4822 1.5598 2.2014 0
M  V30 25 H -0.5977 0.0118 2.3141 0
M  V30 26 H 2.616 1.8328 1.5859 0
M  V30 27 H 2.1563 0.2595 0.9395 0
M  V30 28 H 1.433 0.8563 2.4472 0
M  V30 END ATOM
M  V30 BEGIN BOND
M  V30 1 1 1 2
M  V30 2 2 2 3
M  V30 3 1 2 4
M  V30 4 1 3 5
M  V30 5 2 4 6
M  V30 6 1 5 7
M  V30 7 2 5 8
M  V30 8 1 7 9
M  V30 9 1 7 10
M  V30 10 1 7 11
M  V30 11 1 9 12
M  V30 12 1 6 8
M  V30 13 1 1 13
M  V30 14 1 3 14
M  V30 15 1 4 15
M  V30 16 1 6 16
M  V30 17 1 8 17
M  V30 18 1 9 18
M  V30 19 1 9 19
M  V30 20 1 10 20
M  V30 21 1 10 21
M  V30 22 1 10 22
M  V30 23 1 11 23
M  V30 24 1 11 24
M  V30 25 1 11 25
M  V30 26 1 12 26
M  V30 27 1 12 27
M  V30 28 1 12 28
M  V30 END BOND
M  V30 END CTAB
M  END
>  <Column 1>
3296

>  <level_0>
5481

>  <index>
5482

>  <Unnamed: 0>
5482

>  <NO.>
5494

>  <Name>
edrophoniumchloride

>  <IUPAC_name>
ethyl-(3-hydroxyphenyl)-dimethylazanium;chloride

>  <SMILES>
CC[N+](C)(C)c1cccc(O)c1

>  <CID>
3202

>  <logBB>


>  <BBB+/BBB->
BBB-

>  <Inchi>
InChI=1S/C10H15NO/c1-4-11(2-3)9-6-5-7-10(12)8-9/h5-8H-4H2-1-3H3/p+1

>  <threshold>


>  <reference>
R15|R23|R27|

>  <group>
C

>  <Class>
-1

>  <ABC>
8.85

>  <ABCGG>
8.51

>  <nAcid>
0

>  <nBase>
1

>  <nAromAtom>
6

>  <nAromBond>
6

>  <nAtom>
28

>  <nHeavyAtom>
12

>  <nSpiro>
0

>  <nBridgehead>
0

>  <nHetero>
2

>  <nN>
1

>  <nO>
1

>  <nF>
0

>  <BalabanJ>
2.5

>  <BertzCT>
268.3

>  <nBonds>
28

>  <nBondsO>
12

>  <nBondsS>
22

>  <nBondsD>
0

>  <nBondsT>
0

>  <nBondsA>
6

>  <nBondsM>
6

>  <nBondsKS>
25

>  <nBondsKD>
3

>  <RNCG>
0.57

>  <RPCG>
0.15

>  <FCSP3>
0.4

>  <SZ>
15.17

>  <Sm>
13.84

>  <Sv>
15.81

>  <Sse>
27.6

>  <Sp>
17.53

>  <Si>
31.82

>  <MZ>
0.54

>  <Mm>
0.49

>  <Mv>
0.56

>  <Mse>
0.99

>  <Mp>
0.63

>  <Mi>
1.14

>  <NsCH3>
3

>  <NdCH2>
0

>  <NssCH2>
1

>  <NtCH>
0

>  <NdsCH>
0

>  <NaaCH>
4

>  <NsssCH>
0

>  <NddC>
0

>  <NtsC>
0

>  <NdssC>
0

>  <NaasC>
2

>  <NaaaC>
0

>  <NssssC>
0

>  <NsNH3>
0

>  <NsNH2>
0

>  <NssNH2>
0

>  <NdNH>
0

>  <NssNH>
0

>  <NaaNH>
0

>  <NtN>
0

>  <NsssNH>
0

>  <NdsN>
0

>  <NaaN>
0

>  <NsssN>
0

>  <NddsN>
0

>  <NaasN>
0

>  <NssssN>
1

>  <NsOH>
1

>  <NdO>
0

>  <NssO>
0

>  <NaaO>
0

>  <NsF>
0

>  <NsSiH3>
0

>  <NssSiH2>
0

>  <NsssSiH>
0

>  <NssssSi>
0

>  <NsPH2>
0

>  <NssPH>
0

>  <NsssP>
0

>  <NdsssP>
0

>  <NsssssP>
0

>  <NsSH>
0

>  <NdS>
0

>  <NssS>
0

>  <NaaS>
0

>  <NdssS>
0

>  <NddssS>
0

>  <NsCl>
0

>  <NsBr>
0

>  <NsI>
0

>  <fragCpx>
12.02

>  <fMF>
0.21

>  <nHBAcc>
1

>  <nHBDon>
1

>  <Kier1>
10.08

>  <Kier2>
3.81

>  <Lipinski>
1

>  <GhoseFilter>
1

>  <FilterItLogS>
-2.83

>  <VMcGowan>
146

>  <LabuteASA>
73.66

>  <PEOE_VSA1>
5.11

>  <PEOE_VSA2>
4.48

>  <PEOE_VSA3>
0

>  <PEOE_VSA4>
0

>  <PEOE_VSA5>
0

>  <PEOE_VSA6>
6.07

>  <PEOE_VSA7>
19.06

>  <PEOE_VSA8>
6.07

>  <PEOE_VSA9>
20.64

>  <PEOE_VSA10>
11.44

>  <PEOE_VSA11>
0

>  <PEOE_VSA12>
0

>  <PEOE_VSA13>
0

>  <SMR_VSA1>
5.11

>  <SMR_VSA2>
0

>  <SMR_VSA3>
4.48

>  <SMR_VSA4>
0

>  <SMR_VSA5>
6.92

>  <SMR_VSA6>
20.64

>  <SMR_VSA7>
24.27

>  <SMR_VSA8>
0

>  <SMR_VSA9>
5.75

>  <SlogP_VSA1>
4.48

>  <SlogP_VSA2>
25.75

>  <SlogP_VSA3>
0

>  <SlogP_VSA4>
0

>  <SlogP_VSA5>
6.92

>  <SlogP_VSA6>
24.27

>  <SlogP_VSA7>
0

>  <SlogP_VSA8>
0

>  <SlogP_VSA9>
0

>  <SlogP_VSA10>
5.69

>  <SlogP_VSA11>
5.75

>  <EState_VSA1>
0

>  <EState_VSA2>
0

>  <EState_VSA3>
5.75

>  <EState_VSA4>
16.72

>  <EState_VSA5>
0

>  <EState_VSA6>
6.07

>  <EState_VSA7>
18.2

>  <EState_VSA8>
21.02

>  <EState_VSA9>
0

>  <EState_VSA10>
5.11

>  <VSA_EState1>
0.8

>  <VSA_EState2>
0

>  <VSA_EState3>
9.26

>  <VSA_EState4>
1.14

>  <VSA_EState5>
0.34

>  <VSA_EState6>
7.41

>  <VSA_EState7>
0

>  <VSA_EState8>
3.15

>  <VSA_EState9>
4.24

>  <apol>
29.27

>  <bpol>
18.33

>  <nRing>
1

>  <nHRing>
0

>  <naRing>
1

>  <naHRing>
0

>  <nARing 2>
0

>  <nAHRing 2>
0

>  <nFRing>
0

>  <nFHRing>
0

>  <nFaRing>
0

>  <nFaHRing>
0

>  <nFARing 2>
0

>  <nFAHRing 2>
0

>  <nRot>
2

>  <SLogP>
1.98

>  <SMR>
52.29

>  <TopoPSA(NO)>
20.23

>  <TopoPSA>
20.23

>  <JGI1>
0.33

>  <JGI2>
0.12

>  <JGI3>
0.05

>  <JGI4>
0.05

>  <JGI5>
0.03

>  <Diameter>
6

>  <Radius>
3

>  <TMWC10>
90.87

>  <TSRW10>
42.77

>  <MW>
166.12

>  <AMW>
5.93

>  <WPath>
190

>  <WPol>
16

>  <Zagreb1>
58

>  <Zagreb2>
65

>  <mZagreb2>
2.71

>  <yes>


>  <nAR-cont>
0.336376

>  <nHA-cont>
0.785745021

>  <MWHBN>
0.155174028

>  <MWHBN-cont>
0.945232888

>  <TPSA-cont>
0.858782038

>  <pka_cont>
0.97

>  <yes.1>


>  <BBB_SCORE>
4.742534428

>  <MMFF94 Energy>
23.688

$$$$
Compound 2633
Actelion Java MolfileCreator 2.0

  0  0  0  0  0  0              0 V3000
M  V30 BEGIN CTAB
M  V30 COUNTS 81 87 0 0 0
M  V30 BEGIN ATOM
M  V30 1 O 4.7519 -6.609 1.7699 0
M  V30 2 C 3.5953 -6.3424 2.0775 0
M  V30 3 N 2.992 -5.1372 1.8282 0
M  V30 4 C 2.723 -7.3507 2.761 0
M  V30 5 C 1.6853 -4.8421 2.1603 0
M  V30 6 C 3.6457 -3.9974 1.1801 0
M  V30 7 C 1.4432 -7.0609 3.0651 0
M  V30 8 C 3.3434 -8.6661 3.0733 0
M  V30 9 C 1.4075 -3.4739 1.7405 0
M  V30 10 C 0.9025 -5.7423 2.7611 0
M  V30 11 C 2.5605 -2.9601 1.1587 0
M  V30 12 C 0.5744 -8.1145 3.7034 0 CFG=2
M  V30 13 O 2.6631 -9.4057 4.1108 0
M  V30 14 N 0.2429 -2.8344 1.8798 0
M  V30 15 C 2.5504 -1.6618 0.6679 0
M  V30 16 O -0.3734 -7.4832 4.5772 0
M  V30 17 C 1.4336 -9.0722 4.5605 0
M  V30 18 C -0.1992 -8.9836 2.6874 0
M  V30 19 C 0.2095 -1.5813 1.4015 0
M  V30 20 C 1.3287 -0.9371 0.7834 0
M  V30 21 C 3.7891 -1.0979 0.0143 0
M  V30 22 O 0.9818 -9.5679 5.5942 0
M  V30 23 C -1.2016 -8.2281 1.8226 0
M  V30 24 C -0.9879 -0.8895 1.5244 0
M  V30 25 C 1.1628 0.3861 0.3166 0
M  V30 26 C 3.7627 -1.262 -1.4982 0
M  V30 27 C -1.139 0.4152 1.0556 0
M  V30 28 C -0.0651 1.035 0.4378 0
M  V30 29 O -0.2366 2.3631 0.0237 0
M  V30 30 C -0.0055 2.6455 -1.3217 0
M  V30 31 O 0.3222 1.806 -2.154 0
M  V30 32 N -0.1866 3.9891 -1.6204 0
M  V30 33 C -0.5339 5.0053 -0.6326 0
M  V30 34 C 0.0478 4.4665 -2.977 0
M  V30 35 C -1.731 5.8347 -1.0953 0
M  V30 36 C -1.1373 5.2843 -3.4843 0
M  V30 37 C -1.478 6.4205 -2.4981 0
M  V30 38 N -2.552 7.2835 -3.036 0
M  V30 39 C -2.5812 8.6007 -2.3808 0
M  V30 40 C -3.8893 6.6735 -3.0456 0
M  V30 41 C -3.5435 9.552 -3.0947 0
M  V30 42 C -4.8915 7.5621 -3.787 0
M  V30 43 C -4.9444 8.9607 -3.1851 0
M  V30 44 H 4.5059 -3.6919 1.7834 0
M  V30 45 H 3.9632 -4.2922 0.1754 0
M  V30 46 H 4.3688 -8.5324 3.4332 0
M  V30 47 H 3.3803 -9.2988 2.1805 0
M  V30 48 H -0.1235 -5.502 3.0264 0
M  V30 49 H -0.584 -8.1402 5.2717 0
M  V30 50 H -0.7602 -9.7529 3.2352 0
M  V30 51 H 0.4998 -9.5205 2.0336 0
M  V30 52 H 4.6817 -1.5952 0.4125 0
M  V30 53 H 3.9165 -0.0432 0.2821 0
M  V30 54 H -1.7668 -8.9347 1.206 0
M  V30 55 H -1.9184 -7.6703 2.4326 0
M  V30 56 H -0.7011 -7.5313 1.1444 0
M  V30 57 H -1.8322 -1.3834 2.0007 0
M  V30 58 H 1.9813 0.9181 -0.158 0
M  V30 59 H 4.6785 -0.8544 -1.9377 0
M  V30 60 H 2.9116 -0.7391 -1.9461 0
M  V30 61 H 3.6926 -2.3179 -1.7804 0
M  V30 62 H -2.0872 0.9309 1.1708 0
M  V30 63 H 0.3464 5.6462 -0.5038 0
M  V30 64 H -0.7556 4.5631 0.3422 0
M  V30 65 H 0.9549 5.0822 -2.9535 0
M  V30 66 H 0.239 3.6342 -3.6616 0
M  V30 67 H -1.9144 6.6313 -0.3664 0
M  V30 68 H -2.6169 5.1883 -1.106 0
M  V30 69 H -0.8973 5.696 -4.4718 0
M  V30 70 H -1.9931 4.6108 -3.6102 0
M  V30 71 H -0.5704 7.0386 -2.438 0
M  V30 72 H -2.8724 8.5107 -1.327 0
M  V30 73 H -1.584 9.0561 -2.4056 0
M  V30 74 H -4.2528 6.5017 -2.0249 0
M  V30 75 H -3.8735 5.7046 -3.5541 0
M  V30 76 H -3.5801 10.5094 -2.5626 0
M  V30 77 H -3.1695 9.7621 -4.1048 0
M  V30 78 H -5.8876 7.1068 -3.7491 0
M  V30 79 H -4.6105 7.6289 -4.8456 0
M  V30 80 H -5.387 8.9119 -2.1826 0
M  V30 81 H -5.5883 9.6077 -3.7907 0
M  V30 END ATOM
M  V30 BEGIN BOND
M  V30 1 2 1 2
M  V30 2 1 2 3
M  V30 3 1 2 4
M  V30 4 1 3 5
M  V30 5 1 3 6
M  V30 6 2 4 7
M  V30 7 1 4 8
M  V30 8 1 5 9
M  V30 9 2 5 10
M  V30 10 1 6 11
M  V30 11 1 7 12
M  V30 12 1 8 13
M  V30 13 2 9 14
M  V30 14 2 11 15
M  V30 15 1 12 16
M  V30 16 1 12 17
M  V30 17 1 12 18
M  V30 18 1 14 19
M  V30 19 1 15 20
M  V30 20 1 15 21
M  V30 21 2 17 22
M  V30 22 1 18 23
M  V30 23 2 19 24
M  V30 24 2 20 25
M  V30 25 1 21 26
M  V30 26 1 24 27
M  V30 27 1 25 28
M  V30 28 1 28 29
M  V30 29 1 29 30
M  V30 30 2 30 31
M  V30 31 1 30 32
M  V30 32 1 32 33
M  V30 33 1 32 34
M  V30 34 1 33 35
M  V30 35 1 34 36
M  V30 36 1 35 37
M  V30 37 1 37 38
M  V30 38 1 38 39
M  V30 39 1 38 40
M  V30 40 1 39 41
M  V30 41 1 40 42
M  V30 42 1 41 43
M  V30 43 1 7 10
M  V30 44 1 9 11
M  V30 45 1 13 17
M  V30 46 1 19 20
M  V30 47 2 27 28
M  V30 48 1 36 37
M  V30 49 1 42 43
M  V30 50 1 6 44
M  V30 51 1 6 45
M  V30 52 1 8 46
M  V30 53 1 8 47
M  V30 54 1 10 48
M  V30 55 1 16 49
M  V30 56 1 18 50
M  V30 57 1 18 51
M  V30 58 1 21 52
M  V30 59 1 21 53
M  V30 60 1 23 54
M  V30 61 1 23 55
M  V30 62 1 23 56
M  V30 63 1 24 57
M  V30 64 1 25 58
M  V30 65 1 26 59
M  V30 66 1 26 60
M  V30 67 1 26 61
M  V30 68 1 27 62
M  V30 69 1 33 63
M  V30 70 1 33 64
M  V30 71 1 34 65
M  V30 72 1 34 66
M  V30 73 1 35 67
M  V30 74 1 35 68
M  V30 75 1 36 69
M  V30 76 1 36 70
M  V30 77 1 37 71
M  V30 78 1 39 72
M  V30 79 1 39 73
M  V30 80 1 40 74
M  V30 81 1 40 75
M  V30 82 1 41 76
M  V30 83 1 41 77
M  V30 84 1 42 78
M  V30 85 1 42 79
M  V30 86 1 43 80
M  V30 87 1 43 81
M  V30 END BOND
M  V30 BEGIN COLLECTION
M  V30 MDLV30/STEABS ATOMS=(1 12)
M  V30 END COLLECTION
M  V30 END CTAB
M  END
>  <Column 1>
3297

>  <level_0>
5482

>  <index>
5483

>  <Unnamed: 0>
5483

>  <NO.>
5495

>  <Name>
irinotecan

>  <IUPAC_name>
[(19s)-10-19-diethyl-19-hydroxy-14-18-dioxo-17-oxa-3-13-diazapentacyclo[11.8.0.02-11.04-9.015-20]henicosa-1(21)-2-4(9)-5-7-10-15(20)-heptaen-7-yl] 4-piperidin-1-ylpiperidine-1-carboxylate

>  <SMILES>
CCc1c2c(nc3ccc(OC(=O)N4CCC(N5CCCCC5)CC4)cc13)-c1cc3c(c(=O)n1C2)COC(=O)[C@]3(O)CC

>  <CID>
60838

>  <logBB>


>  <BBB+/BBB->
BBB-

>  <Inchi>
InChI=1S/C33H38N4O6/c1-3-22-23-16-21(43-32(40)36-14-10-20(11-15-36)35-12-6-5-7-13-35)8-9-27(23)34-29-24(22)18-37-28(29)17-26-25(30(37)38)19-42-31(39)33(26-41)4-2/h8-9-16-17-20-41H-3-7-10-15-18-19H2-1-2H3/t33-/m0/s1

>  <threshold>


>  <reference>
R15|

>  <group>
C

>  <Class>
-1

>  <ABC>
34.57

>  <ABCGG>
23.38

>  <nAcid>
0

>  <nBase>
1

>  <nAromAtom>
16

>  <nAromBond>
17

>  <nAtom>
81

>  <nHeavyAtom>
43

>  <nSpiro>
0

>  <nBridgehead>
0

>  <nHetero>
10

>  <nN>
4

>  <nO>
6

>  <nF>
0

>  <BalabanJ>
0.98

>  <BertzCT>
1685.12

>  <nBonds>
87

>  <nBondsO>
49

>  <nBondsS>
67

>  <nBondsD>
3

>  <nBondsT>
0

>  <nBondsA>
17

>  <nBondsM>
20

>  <nBondsKS>
77

>  <nBondsKD>
10

>  <RNCG>
0.13

>  <RPCG>
0.12

>  <FCSP3>
0.52

>  <SZ>
52

>  <Sm>
48.85

>  <Sv>
50.62

>  <Sse>
81.51

>  <Sp>
53.69

>  <Si>
91.31

>  <MZ>
0.64

>  <Mm>
0.6

>  <Mv>
0.62

>  <Mse>
1.01

>  <Mp>
0.66

>  <Mi>
1.13

>  <NsCH3>
2

>  <NdCH2>
0

>  <NssCH2>
13

>  <NtCH>
0

>  <NdsCH>
0

>  <NaaCH>
4

>  <NsssCH>
1

>  <NddC>
0

>  <NtsC>
0

>  <NdssC>
2

>  <NaasC>
7

>  <NaaaC>
2

>  <NssssC>
1

>  <NsNH3>
0

>  <NsNH2>
0

>  <NssNH2>
0

>  <NdNH>
0

>  <NssNH>
0

>  <NaaNH>
0

>  <NtN>
0

>  <NsssNH>
0

>  <NdsN>
0

>  <NaaN>
1

>  <NsssN>
2

>  <NddsN>
0

>  <NaasN>
1

>  <NssssN>
0

>  <NsOH>
1

>  <NdO>
3

>  <NssO>
2

>  <NaaO>
0

>  <NsF>
0

>  <NsSiH3>
0

>  <NssSiH2>
0

>  <NsssSiH>
0

>  <NssssSi>
0

>  <NsPH2>
0

>  <NssPH>
0

>  <NsssP>
0

>  <NdsssP>
0

>  <NsssssP>
0

>  <NsSH>
0

>  <NdS>
0

>  <NssS>
0

>  <NaaS>
0

>  <NdssS>
0

>  <NddssS>
0

>  <NsCl>
0

>  <NsBr>
0

>  <NsI>
0

>  <fragCpx>
595.1

>  <fMF>
0.43

>  <nHBAcc>
9

>  <nHBDon>
1

>  <Kier1>
31.59

>  <Kier2>
12.89

>  <Lipinski>
0

>  <GhoseFilter>
0

>  <FilterItLogS>
-6.67

>  <VMcGowan>
431.95

>  <LabuteASA>
249.76

>  <PEOE_VSA1>
28.95

>  <PEOE_VSA2>
4.79

>  <PEOE_VSA3>
14.57

>  <PEOE_VSA4>
0

>  <PEOE_VSA5>
0

>  <PEOE_VSA6>
20.27

>  <PEOE_VSA7>
81.44

>  <PEOE_VSA8>
35.64

>  <PEOE_VSA9>
29.01

>  <PEOE_VSA10>
12.36

>  <PEOE_VSA11>
5.6

>  <PEOE_VSA12>
0

>  <PEOE_VSA13>
5.56

>  <SMR_VSA1>
24.17

>  <SMR_VSA2>
0

>  <SMR_VSA3>
19.35

>  <SMR_VSA4>
0

>  <SMR_VSA5>
83.59

>  <SMR_VSA6>
26.18

>  <SMR_VSA7>
56.87

>  <SMR_VSA8>
0

>  <SMR_VSA9>
17.14

>  <SlogP_VSA1>
10.3

>  <SlogP_VSA2>
68.74

>  <SlogP_VSA3>
34.7

>  <SlogP_VSA4>
0

>  <SlogP_VSA5>
74.63

>  <SlogP_VSA6>
29.06

>  <SlogP_VSA7>
0

>  <SlogP_VSA8>
22.29

>  <SlogP_VSA9>
0

>  <SlogP_VSA10>
4.79

>  <SlogP_VSA11>
5.75

>  <EState_VSA1>
11.57

>  <EState_VSA2>
24.68

>  <EState_VSA3>
60.36

>  <EState_VSA4>
34.87

>  <EState_VSA5>
32.35

>  <EState_VSA6>
23.62

>  <EState_VSA7>
17.03

>  <EState_VSA8>
11.82

>  <EState_VSA9>
14.46

>  <EState_VSA10>
19.49

>  <VSA_EState1>
12.72

>  <VSA_EState2>
48.53

>  <VSA_EState3>
12.04

>  <VSA_EState4>
2.38

>  <VSA_EState5>
-0.27

>  <VSA_EState6>
7.77

>  <VSA_EState7>
6.26

>  <VSA_EState8>
7.65

>  <VSA_EState9>
0

>  <apol>
89.66

>  <bpol>
50.47

>  <nRing>
7

>  <nHRing>
6

>  <naRing>
3

>  <naHRing>
2

>  <nARing 2>
4

>  <nAHRing 2>
4

>  <nFRing>
1

>  <nFHRing>
1

>  <nFaRing>
0

>  <nFaHRing>
0

>  <nFARing 2>
1

>  <nFAHRing 2>
1

>  <nRot>
4

>  <SLogP>
4.09

>  <SMR>
159.95

>  <TopoPSA(NO)>
114.2

>  <TopoPSA>
114.2

>  <JGI1>
0.18

>  <JGI2>
0.09

>  <JGI3>
0.05

>  <JGI4>
0.05

>  <JGI5>
0.03

>  <Diameter>
21

>  <Radius>
11

>  <TMWC10>
174.93

>  <TSRW10>
95.76

>  <MW>
586.28

>  <AMW>
7.24

>  <WPath>
7049

>  <WPol>
86

>  <Zagreb1>
246

>  <Zagreb2>
306

>  <mZagreb2>
9.26

>  <yes>


>  <nAR-cont>
0.199399

>  <nHA-cont>
0.205638778

>  <MWHBN>
0.412997536

>  <MWHBN-cont>
0.42512246

>  <TPSA-cont>
0.202813086

>  <pka_cont>
0.97

>  <yes.1>


>  <BBB_SCORE>
1.93334764

>  <MMFF94 Energy>
52.647

$$$$
Compound 2634
Actelion Java MolfileCreator 2.0

  0  0  0  0  0  0              0 V3000
M  V30 BEGIN CTAB
M  V30 COUNTS 48 50 0 0 0
M  V30 BEGIN ATOM
M  V30 1 O -1.9073 3.1008 -3.26 0
M  V30 2 C -1.8198 2.0069 -3.7907 0
M  V30 3 O -1.5687 1.9231 -5.1161 0
M  V30 4 C -1.9934 0.6436 -3.1681 0
M  V30 5 C -2.0433 0.6603 -1.6593 0
M  V30 6 C -0.891 0.3739 -0.9095 0
M  V30 7 C -3.2353 0.9751 -0.9879 0
M  V30 8 C -0.9295 0.3868 0.4891 0
M  V30 9 C -3.2733 1.0162 0.4065 0
M  V30 10 C 0.2527 0.0516 1.3061 0
M  V30 11 C -2.1151 0.751 1.1313 0
M  V30 12 C 0.8609 1.0436 2.2374 0
M  V30 13 C 0.7147 -1.2198 1.3431 0
M  V30 14 O -2.1591 0.8296 2.4998 0
M  V30 15 C 0.0686 1.9144 3.0159 0
M  V30 16 C 2.2644 1.146 2.3178 0
M  V30 17 C 0.1918 -2.4452 0.6299 0
M  V30 18 C -1.4489 1.9956 2.9417 0
M  V30 19 C 0.7106 2.8395 3.8678 0
M  V30 20 C 2.8788 2.0617 3.1724 0
M  V30 21 C 1.2611 -3.137 -0.2401 0
M  V30 22 C 2.1006 2.9055 3.9528 0
M  V30 23 N 1.5491 -2.4336 -1.5054 0
M  V30 24 C 0.5164 -2.7081 -2.5088 0
M  V30 25 C 2.8556 -2.8416 -2.0267 0
M  V30 26 H -1.4824 2.8601 -5.3924 0
M  V30 27 H -1.1632 0.0065 -3.4956 0
M  V30 28 H -2.9185 0.2017 -3.5563 0
M  V30 29 H 0.0446 0.1297 -1.4093 0
M  V30 30 H -4.1388 1.2059 -1.5482 0
M  V30 31 H -4.1931 1.2725 0.9231 0
M  V30 32 H 1.5376 -1.4527 2.0183 0
M  V30 33 H 2.895 0.5134 1.6962 0
M  V30 34 H -0.7172 -2.2491 0.0562 0
M  V30 35 H -0.1087 -3.1563 1.411 0
M  V30 36 H -1.8252 2.184 3.955 0
M  V30 37 H -1.7345 2.871 2.3405 0
M  V30 38 H 0.119 3.5284 4.4686 0
M  V30 39 H 3.9627 2.1186 3.2186 0
M  V30 40 H 2.1783 -3.2112 0.3602 0
M  V30 41 H 0.95 -4.1705 -0.4428 0
M  V30 42 H 2.5726 3.6257 4.6157 0
M  V30 43 H -0.4737 -2.3968 -2.1639 0
M  V30 44 H 0.4662 -3.7714 -2.7703 0
M  V30 45 H 0.7159 -2.1399 -3.4245 0
M  V30 46 H 2.9051 -3.9187 -2.223 0
M  V30 47 H 3.6504 -2.5817 -1.3186 0
M  V30 48 H 3.083 -2.3092 -2.957 0
M  V30 END ATOM
M  V30 BEGIN BOND
M  V30 1 2 1 2
M  V30 2 1 2 3
M  V30 3 1 2 4
M  V30 4 1 4 5
M  V30 5 2 5 6
M  V30 6 1 5 7
M  V30 7 1 6 8
M  V30 8 2 7 9
M  V30 9 1 8 10
M  V30 10 2 8 11
M  V30 11 1 10 12
M  V30 12 2 10 13
M  V30 13 1 11 14
M  V30 14 2 12 15
M  V30 15 1 12 16
M  V30 16 1 13 17
M  V30 17 1 14 18
M  V30 18 1 15 19
M  V30 19 2 16 20
M  V30 20 1 17 21
M  V30 21 2 19 22
M  V30 22 1 21 23
M  V30 23 1 23 24
M  V30 24 1 23 25
M  V30 25 1 9 11
M  V30 26 1 15 18
M  V30 27 1 20 22
M  V30 28 1 3 26
M  V30 29 1 4 27
M  V30 30 1 4 28
M  V30 31 1 6 29
M  V30 32 1 7 30
M  V30 33 1 9 31
M  V30 34 1 13 32
M  V30 35 1 16 33
M  V30 36 1 17 34
M  V30 37 1 17 35
M  V30 38 1 18 36
M  V30 39 1 18 37
M  V30 40 1 19 38
M  V30 41 1 20 39
M  V30 42 1 21 40
M  V30 43 1 21 41
M  V30 44 1 22 42
M  V30 45 1 24 43
M  V30 46 1 24 44
M  V30 47 1 24 45
M  V30 48 1 25 46
M  V30 49 1 25 47
M  V30 50 1 25 48
M  V30 END BOND
M  V30 END CTAB
M  END
>  <Column 1>
3299

>  <level_0>
5484

>  <index>
5485

>  <Unnamed: 0>
5485

>  <NO.>
5497

>  <Name>
olopatadine

>  <IUPAC_name>
2-[(11z)-11-[3-(dimethylamino)propylidene]-6h-benzo[c][1]benzoxepin-2-yl]acetic acid

>  <SMILES>
CN(C)CC/C=C1/c2ccccc2COc2ccc(CC(=O)O)cc21

>  <CID>
5281071

>  <logBB>


>  <BBB+/BBB->
BBB-

>  <Inchi>
InChI=1S/C21H23NO3/c1-22(2)11-5-8-18-17-7-4-3-6-16(17)14-25-20-10-9-15(12-19(18)20)13-21(23)24/h3-4-6-10-12H-5-11-13-14H2-1-2H3-(H-23-24)/b18-8-

>  <threshold>


>  <reference>
R15|

>  <group>
C

>  <Class>
-1

>  <ABC>
19.37

>  <ABCGG>
15.34

>  <nAcid>
1

>  <nBase>
1

>  <nAromAtom>
12

>  <nAromBond>
12

>  <nAtom>
48

>  <nHeavyAtom>
25

>  <nSpiro>
0

>  <nBridgehead>
0

>  <nHetero>
4

>  <nN>
1

>  <nO>
3

>  <nF>
0

>  <BalabanJ>
1.72

>  <BertzCT>
808.54

>  <nBonds>
50

>  <nBondsO>
27

>  <nBondsS>
36

>  <nBondsD>
2

>  <nBondsT>
0

>  <nBondsA>
12

>  <nBondsM>
14

>  <nBondsKS>
42

>  <nBondsKD>
8

>  <RNCG>
0.24

>  <RPCG>
0.15

>  <FCSP3>
0.29

>  <SZ>
30

>  <Sm>
28.09

>  <Sv>
30.13

>  <Sse>
47.87

>  <Sp>
32.28

>  <Si>
53.69

>  <MZ>
0.63

>  <Mm>
0.59

>  <Mv>
0.63

>  <Mse>
1

>  <Mp>
0.67

>  <Mi>
1.12

>  <NsCH3>
2

>  <NdCH2>
0

>  <NssCH2>
4

>  <NtCH>
0

>  <NdsCH>
1

>  <NaaCH>
7

>  <NsssCH>
0

>  <NddC>
0

>  <NtsC>
0

>  <NdssC>
2

>  <NaasC>
5

>  <NaaaC>
0

>  <NssssC>
0

>  <NsNH3>
0

>  <NsNH2>
0

>  <NssNH2>
0

>  <NdNH>
0

>  <NssNH>
0

>  <NaaNH>
0

>  <NtN>
0

>  <NsssNH>
0

>  <NdsN>
0

>  <NaaN>
0

>  <NsssN>
1

>  <NddsN>
0

>  <NaasN>
0

>  <NssssN>
0

>  <NsOH>
1

>  <NdO>
1

>  <NssO>
1

>  <NaaO>
0

>  <NsF>
0

>  <NsSiH3>
0

>  <NssSiH2>
0

>  <NsssSiH>
0

>  <NssssSi>
0

>  <NsPH2>
0

>  <NssPH>
0

>  <NsssP>
0

>  <NdsssP>
0

>  <NsssssP>
0

>  <NsSH>
0

>  <NdS>
0

>  <NssS>
0

>  <NaaS>
0

>  <NdssS>
0

>  <NddssS>
0

>  <NsCl>
0

>  <NsBr>
0

>  <NsI>
0

>  <fragCpx>
129.04

>  <fMF>
0.31

>  <nHBAcc>
3

>  <nHBDon>
1

>  <Kier1>
19.75

>  <Kier2>
9.27

>  <Lipinski>
1

>  <GhoseFilter>
1

>  <FilterItLogS>
-4.84

>  <VMcGowan>
267.36

>  <LabuteASA>
147.91

>  <PEOE_VSA1>
14.74

>  <PEOE_VSA2>
4.79

>  <PEOE_VSA3>
0

>  <PEOE_VSA4>
0

>  <PEOE_VSA5>
0

>  <PEOE_VSA6>
36.41

>  <PEOE_VSA7>
54.91

>  <PEOE_VSA8>
12.11

>  <PEOE_VSA9>
6.42

>  <PEOE_VSA10>
12.36

>  <PEOE_VSA11>
0

>  <PEOE_VSA12>
0

>  <PEOE_VSA13>
0

>  <SMR_VSA1>
14.64

>  <SMR_VSA2>
0

>  <SMR_VSA3>
4.9

>  <SMR_VSA4>
0

>  <SMR_VSA5>
19.45

>  <SMR_VSA6>
20.64

>  <SMR_VSA7>
70.79

>  <SMR_VSA8>
0

>  <SMR_VSA9>
5.75

>  <SlogP_VSA1>
4.74

>  <SlogP_VSA2>
36.62

>  <SlogP_VSA3>
17.82

>  <SlogP_VSA4>
0

>  <SlogP_VSA5>
28.67

>  <SlogP_VSA6>
48.54

>  <SlogP_VSA7>
0

>  <SlogP_VSA8>
5.57

>  <SlogP_VSA9>
0

>  <SlogP_VSA10>
0

>  <SlogP_VSA11>
5.75

>  <EState_VSA1>
5.97

>  <EState_VSA2>
6.42

>  <EState_VSA3>
6.61

>  <EState_VSA4>
46.54

>  <EState_VSA5>
0

>  <EState_VSA6>
0

>  <EState_VSA7>
30.33

>  <EState_VSA8>
37.2

>  <EState_VSA9>
9.84

>  <EState_VSA10>
4.79

>  <VSA_EState1>
5.99

>  <VSA_EState2>
13.23

>  <VSA_EState3>
9.1

>  <VSA_EState4>
5.19

>  <VSA_EState5>
-0.02

>  <VSA_EState6>
13.92

>  <VSA_EState7>
3.16

>  <VSA_EState8>
1.48

>  <VSA_EState9>
4.11

>  <apol>
53.91

>  <bpol>
27.39

>  <nRing>
3

>  <nHRing>
1

>  <naRing>
2

>  <naHRing>
0

>  <nARing 2>
1

>  <nAHRing 2>
1

>  <nFRing>
1

>  <nFHRing>
1

>  <nFaRing>
0

>  <nFaHRing>
0

>  <nFARing 2>
1

>  <nFAHRing 2>
1

>  <nRot>
5

>  <SLogP>
3.59

>  <SMR>
98.81

>  <TopoPSA(NO)>
49.77

>  <TopoPSA>
49.77

>  <JGI1>
0.19

>  <JGI2>
0.07

>  <JGI3>
0.04

>  <JGI4>
0.03

>  <JGI5>
0.02

>  <Diameter>
11

>  <Radius>
6

>  <TMWC10>
127.08

>  <TSRW10>
67.64

>  <MW>
337.17

>  <AMW>
7.02

>  <WPath>
1448

>  <WPol>
41

>  <Zagreb1>
128

>  <Zagreb2>
148

>  <mZagreb2>
5.53

>  <yes>


>  <nAR-cont>
0.816016

>  <nHA-cont>
0.921834225

>  <MWHBN>
0.217838947

>  <MWHBN-cont>
0.996234879

>  <TPSA-cont>
0.652574495

>  <pka_cont>
0.97

>  <yes.1>


>  <BBB_SCORE>
5.022351533

>  <MMFF94 Energy>
90.476

$$$$
Compound 2635
Actelion Java MolfileCreator 2.0

  0  0  0  0  0  0              0 V3000
M  V30 BEGIN CTAB
M  V30 COUNTS 46 47 0 0 0
M  V30 BEGIN ATOM
M  V30 1 O -0.1577 0.7098 2.6048 0
M  V30 2 C -0.1494 0.2313 1.4736 0
M  V30 3 O -1.27 -0.0308 0.7488 0
M  V30 4 C 1.1349 -0.1923 0.7654 0 CFG=1
M  V30 5 C -2.5151 0.2677 1.4073 0
M  V30 6 C 1.4715 -1.656 1.0254 0
M  V30 7 C 1.2388 0.2961 -0.703 0
M  V30 8 C -2.8373 1.7752 1.4195 0
M  V30 9 C 2.7374 -1.9982 1.5313 0
M  V30 10 C 0.5523 -2.688 0.7819 0
M  V30 11 O 0.9311 1.7035 -0.7506 0
M  V30 12 C 0.3748 -0.4066 -1.7553 0
M  V30 13 C 2.643 0.1147 -1.3083 0
M  V30 14 N -3.5651 2.2571 0.2237 0
M  V30 15 C 3.0745 -3.3305 1.7771 0
M  V30 16 C 0.8913 -4.0202 1.0282 0
M  V30 17 C 0.9882 0.006 -3.0956 0
M  V30 18 C 2.4485 0.3459 -2.8063 0
M  V30 19 C -2.7596 2.1252 -0.992 0
M  V30 20 C -3.9484 3.6596 0.4102 0
M  V30 21 C 2.1516 -4.3413 1.5244 0
M  V30 22 H 1.893 0.402 1.3026 0
M  V30 23 H -2.4853 -0.1225 2.4326 0
M  V30 24 H -3.3031 -0.294 0.8929 0
M  V30 25 H -3.488 1.9443 2.287 0
M  V30 26 H -1.9271 2.3677 1.5703 0
M  V30 27 H 3.4763 -1.2274 1.7423 0
M  V30 28 H -0.4421 -2.4732 0.3958 0
M  V30 29 H 1.6466 2.1919 -0.306 0
M  V30 30 H -0.6761 -0.1122 -1.7245 0
M  V30 31 H 0.4334 -1.4955 -1.6709 0
M  V30 32 H 3.0197 -0.9025 -1.1571 0
M  V30 33 H 3.3763 0.8184 -0.9008 0
M  V30 34 H 4.0573 -3.5787 2.1696 0
M  V30 35 H 0.1678 -4.8082 0.8339 0
M  V30 36 H 0.8955 -0.7943 -3.8367 0
M  V30 37 H 0.4732 0.886 -3.4985 0
M  V30 38 H 3.1351 -0.2698 -3.3958 0
M  V30 39 H 2.6457 1.3933 -3.0621 0
M  V30 40 H -2.5976 1.0721 -1.2356 0
M  V30 41 H -1.7895 2.6263 -0.9047 0
M  V30 42 H -3.2879 2.5517 -1.8527 0
M  V30 43 H -3.0779 4.3144 0.532 0
M  V30 44 H -4.5905 3.7704 1.2913 0
M  V30 45 H -4.532 4.0165 -0.4458 0
M  V30 46 H 2.4128 -5.3783 1.7175 0
M  V30 END ATOM
M  V30 BEGIN BOND
M  V30 1 2 1 2
M  V30 2 1 2 3
M  V30 3 1 2 4
M  V30 4 1 3 5
M  V30 5 1 4 6
M  V30 6 1 4 7
M  V30 7 1 5 8
M  V30 8 2 6 9
M  V30 9 1 6 10
M  V30 10 1 7 11
M  V30 11 1 7 12
M  V30 12 1 7 13
M  V30 13 1 8 14
M  V30 14 1 9 15
M  V30 15 2 10 16
M  V30 16 1 12 17
M  V30 17 1 13 18
M  V30 18 1 14 19
M  V30 19 1 14 20
M  V30 20 2 15 21
M  V30 21 1 16 21
M  V30 22 1 17 18
M  V30 23 1 4 22
M  V30 24 1 5 23
M  V30 25 1 5 24
M  V30 26 1 8 25
M  V30 27 1 8 26
M  V30 28 1 9 27
M  V30 29 1 10 28
M  V30 30 1 11 29
M  V30 31 1 12 30
M  V30 32 1 12 31
M  V30 33 1 13 32
M  V30 34 1 13 33
M  V30 35 1 15 34
M  V30 36 1 16 35
M  V30 37 1 17 36
M  V30 38 1 17 37
M  V30 39 1 18 38
M  V30 40 1 18 39
M  V30 41 1 19 40
M  V30 42 1 19 41
M  V30 43 1 19 42
M  V30 44 1 20 43
M  V30 45 1 20 44
M  V30 46 1 20 45
M  V30 47 1 21 46
M  V30 END BOND
M  V30 BEGIN COLLECTION
M  V30 MDLV30/STERAC1 ATOMS=(1 4)
M  V30 END COLLECTION
M  V30 END CTAB
M  END
>  <Column 1>
3300

>  <level_0>
5485

>  <index>
5486

>  <Unnamed: 0>
5486

>  <NO.>
5498

>  <Name>
cyclopentolate

>  <IUPAC_name>
2-(dimethylamino)ethyl 2-(1-hydroxycyclopentyl)-2-phenylacetate

>  <SMILES>
CN(C)CCOC(=O)C(c1ccccc1)C1(O)CCCC1

>  <CID>
2905

>  <logBB>


>  <BBB+/BBB->
BBB-

>  <Inchi>
InChI=1S/C17H25NO3/c1-18(2)12-13-21-16(19)15(14-8-4-3-5-9-14)17(20)10-6-7-11-17/h3-5-8-9-15-20H-6-7-10-13H2-1-2H3

>  <threshold>


>  <reference>
R15|

>  <group>
C

>  <Class>
-1

>  <ABC>
15.9

>  <ABCGG>
14.41

>  <nAcid>
0

>  <nBase>
1

>  <nAromAtom>
6

>  <nAromBond>
6

>  <nAtom>
46

>  <nHeavyAtom>
21

>  <nSpiro>
0

>  <nBridgehead>
0

>  <nHetero>
4

>  <nN>
1

>  <nO>
3

>  <nF>
0

>  <BalabanJ>
2

>  <BertzCT>
452.36

>  <nBonds>
47

>  <nBondsO>
22

>  <nBondsS>
40

>  <nBondsD>
1

>  <nBondsT>
0

>  <nBondsA>
6

>  <nBondsM>
7

>  <nBondsKS>
43

>  <nBondsKD>
4

>  <RNCG>
0.24

>  <RPCG>
0.16

>  <FCSP3>
0.59

>  <SZ>
26.33

>  <Sm>
24.26

>  <Sv>
26.68

>  <Sse>
45.75

>  <Sp>
29.08

>  <Si>
52.11

>  <MZ>
0.57

>  <Mm>
0.53

>  <Mv>
0.58

>  <Mse>
0.99

>  <Mp>
0.63

>  <Mi>
1.13

>  <NsCH3>
2

>  <NdCH2>
0

>  <NssCH2>
6

>  <NtCH>
0

>  <NdsCH>
0

>  <NaaCH>
5

>  <NsssCH>
1

>  <NddC>
0

>  <NtsC>
0

>  <NdssC>
1

>  <NaasC>
1

>  <NaaaC>
0

>  <NssssC>
1

>  <NsNH3>
0

>  <NsNH2>
0

>  <NssNH2>
0

>  <NdNH>
0

>  <NssNH>
0

>  <NaaNH>
0

>  <NtN>
0

>  <NsssNH>
0

>  <NdsN>
0

>  <NaaN>
0

>  <NsssN>
1

>  <NddsN>
0

>  <NaasN>
0

>  <NssssN>
0

>  <NsOH>
1

>  <NdO>
1

>  <NssO>
1

>  <NaaO>
0

>  <NsF>
0

>  <NsSiH3>
0

>  <NssSiH2>
0

>  <NsssSiH>
0

>  <NssssSi>
0

>  <NsPH2>
0

>  <NssPH>
0

>  <NsssP>
0

>  <NdsssP>
0

>  <NsssssP>
0

>  <NsSH>
0

>  <NdS>
0

>  <NssS>
0

>  <NaaS>
0

>  <NdssS>
0

>  <NddssS>
0

>  <NsCl>
0

>  <NsBr>
0

>  <NsI>
0

>  <fragCpx>
64.04

>  <fMF>
0.26

>  <nHBAcc>
4

>  <nHBDon>
1

>  <Kier1>
17.36

>  <Kier2>
8.02

>  <Lipinski>
1

>  <GhoseFilter>
1

>  <FilterItLogS>
-3.09

>  <VMcGowan>
239.06

>  <LabuteASA>
126.27

>  <PEOE_VSA1>
14.74

>  <PEOE_VSA2>
4.79

>  <PEOE_VSA3>
0

>  <PEOE_VSA4>
0

>  <PEOE_VSA5>
0

>  <PEOE_VSA6>
43.17

>  <PEOE_VSA7>
32.5

>  <PEOE_VSA8>
6.54

>  <PEOE_VSA9>
5.6

>  <PEOE_VSA10>
12.52

>  <PEOE_VSA11>
0

>  <PEOE_VSA12>
0

>  <PEOE_VSA13>
0

>  <SMR_VSA1>
14.64

>  <SMR_VSA2>
0

>  <SMR_VSA3>
4.9

>  <SMR_VSA4>
0

>  <SMR_VSA5>
37.2

>  <SMR_VSA6>
27.25

>  <SMR_VSA7>
35.9

>  <SMR_VSA8>
0

>  <SMR_VSA9>
0

>  <SlogP_VSA1>
0

>  <SlogP_VSA2>
48.82

>  <SlogP_VSA3>
9.53

>  <SlogP_VSA4>
0

>  <SlogP_VSA5>
37.16

>  <SlogP_VSA6>
30.33

>  <SlogP_VSA7>
0

>  <SlogP_VSA8>
0

>  <SlogP_VSA9>
0

>  <SlogP_VSA10>
0

>  <SlogP_VSA11>
0

>  <EState_VSA1>
11.52

>  <EState_VSA2>
5.97

>  <EState_VSA3>
25.99

>  <EState_VSA4>
18.41

>  <EState_VSA5>
0

>  <EState_VSA6>
0

>  <EState_VSA7>
49.33

>  <EState_VSA8>
0

>  <EState_VSA9>
4.74

>  <EState_VSA10>
9.9

>  <VSA_EState1>
5.41

>  <VSA_EState2>
14.48

>  <VSA_EState3>
10.87

>  <VSA_EState4>
-0.12

>  <VSA_EState5>
-0.89

>  <VSA_EState6>
9.5

>  <VSA_EState7>
3.25

>  <VSA_EState8>
1.04

>  <VSA_EState9>
3.88

>  <apol>
48.57

>  <bpol>
29.39

>  <nRing>
2

>  <nHRing>
0

>  <naRing>
1

>  <naHRing>
0

>  <nARing 2>
1

>  <nAHRing 2>
0

>  <nFRing>
0

>  <nFHRing>
0

>  <nFaRing>
0

>  <nFaHRing>
0

>  <nFARing 2>
0

>  <nFAHRing 2>
0

>  <nRot>
6

>  <SLogP>
2.18

>  <SMR>
82.11

>  <TopoPSA(NO)>
49.77

>  <TopoPSA>
49.77

>  <JGI1>
0.2

>  <JGI2>
0.09

>  <JGI3>
0.08

>  <JGI4>
0.03

>  <JGI5>
0.02

>  <Diameter>
10

>  <Radius>
5

>  <TMWC10>
116.06

>  <TSRW10>
68.13

>  <MW>
291.18

>  <AMW>
6.33

>  <WPath>
929

>  <WPol>
29

>  <Zagreb1>
104

>  <Zagreb2>
119

>  <mZagreb2>
4.72

>  <yes>


>  <nAR-cont>
0.816016

>  <nHA-cont>
0.994529749

>  <MWHBN>
0.293014582

>  <MWHBN-cont>
0.861094721

>  <TPSA-cont>
0.652574495

>  <pka_cont>
0.97

>  <yes.1>


>  <BBB_SCORE>
4.892336821

>  <MMFF94 Energy>
81.651

$$$$
Compound 2636
Actelion Java MolfileCreator 2.0

  0  0  0  0  0  0              0 V3000
M  V30 BEGIN CTAB
M  V30 COUNTS 43 45 0 0 0
M  V30 BEGIN ATOM
M  V30 1 N 1.5041 1.1873 0.7914 0
M  V30 2 C 1.6126 0.4436 -0.4812 0
M  V30 3 C 1.7076 0.2926 1.9407 0
M  V30 4 C 2.4742 2.285 0.8455 0
M  V30 5 C 1.2376 1.2568 -1.713 0
M  V30 6 C 0.5314 -0.6171 2.148 0
M  V30 7 C -0.1009 1.6616 -1.9856 0
M  V30 8 C 2.2649 1.6001 -2.6129 0
M  V30 9 C 0.6145 -1.9564 2.2026 0
M  V30 10 C -0.3643 2.4003 -3.1677 0
M  V30 11 C -1.1977 1.3688 -1.1429 0
M  V30 12 C 1.9909 2.3283 -3.7652 0
M  V30 13 C -0.5424 -2.8393 2.3984 0
M  V30 14 C 0.6852 2.7236 -4.0398 0
M  V30 15 C -1.6757 2.8081 -3.4657 0
M  V30 16 C -2.4962 1.7815 -1.4516 0
M  V30 17 C -1.7739 -2.6013 1.7737 0
M  V30 18 C -0.3959 -3.9878 3.1866 0
M  V30 19 C -2.7353 2.5004 -2.6144 0
M  V30 20 C -2.8445 -3.4804 1.9555 0
M  V30 21 C -1.467 -4.8664 3.3692 0
M  V30 22 C -2.6915 -4.6109 2.7554 0
M  V30 23 H 2.6285 0.0402 -0.5952 0
M  V30 24 H 0.956 -0.4358 -0.4811 0
M  V30 25 H 1.7941 0.8876 2.8595 0
M  V30 26 H 2.6443 -0.2713 1.8425 0
M  V30 27 H 2.3875 2.8289 1.7934 0
M  V30 28 H 3.5063 1.929 0.7491 0
M  V30 29 H 2.2855 3.0253 0.0612 0
M  V30 30 H -0.4269 -0.1181 2.2732 0
M  V30 31 H 3.2911 1.299 -2.4144 0
M  V30 32 H 1.5782 -2.451 2.1094 0
M  V30 33 H -1.0484 0.818 -0.2177 0
M  V30 34 H 2.7931 2.5875 -4.4507 0
M  V30 35 H 0.4908 3.2913 -4.9471 0
M  V30 36 H -1.8822 3.3747 -4.3711 0
M  V30 37 H -3.3145 1.5427 -0.7779 0
M  V30 38 H -1.909 -1.7355 1.1299 0
M  V30 39 H 0.552 -4.2041 3.6736 0
M  V30 40 H -3.7429 2.8253 -2.8586 0
M  V30 41 H -3.7954 -3.2838 1.4673 0
M  V30 42 H -1.3438 -5.7501 3.9897 0
M  V30 43 H -3.5244 -5.2947 2.8961 0
M  V30 END ATOM
M  V30 BEGIN BOND
M  V30 1 1 1 2
M  V30 2 1 1 3
M  V30 3 1 1 4
M  V30 4 1 2 5
M  V30 5 1 3 6
M  V30 6 1 5 7
M  V30 7 2 5 8
M  V30 8 2 6 9
M  V30 9 1 7 10
M  V30 10 2 7 11
M  V30 11 1 8 12
M  V30 12 1 9 13
M  V30 13 1 10 14
M  V30 14 2 10 15
M  V30 15 1 11 16
M  V30 16 2 13 17
M  V30 17 1 13 18
M  V30 18 1 15 19
M  V30 19 1 17 20
M  V30 20 2 18 21
M  V30 21 2 20 22
M  V30 22 2 12 14
M  V30 23 2 16 19
M  V30 24 1 21 22
M  V30 25 1 2 23
M  V30 26 1 2 24
M  V30 27 1 3 25
M  V30 28 1 3 26
M  V30 29 1 4 27
M  V30 30 1 4 28
M  V30 31 1 4 29
M  V30 32 1 6 30
M  V30 33 1 8 31
M  V30 34 1 9 32
M  V30 35 1 11 33
M  V30 36 1 12 34
M  V30 37 1 14 35
M  V30 38 1 15 36
M  V30 39 1 16 37
M  V30 40 1 17 38
M  V30 41 1 18 39
M  V30 42 1 19 40
M  V30 43 1 20 41
M  V30 44 1 21 42
M  V30 45 1 22 43
M  V30 END BOND
M  V30 END CTAB
M  END
>  <Column 1>
3301

>  <level_0>
5486

>  <index>
5487

>  <Unnamed: 0>
5487

>  <NO.>
5499

>  <Name>
naftifine

>  <IUPAC_name>
(e)-n-methyl-n-(naphthalen-1-ylmethyl)-3-phenylprop-2-en-1-amine

>  <SMILES>
CN(C/C=C/c1ccccc1)Cc1cccc2ccccc12

>  <CID>
47641

>  <logBB>


>  <BBB+/BBB->
BBB-

>  <Inchi>
InChI=1S/C21H21N/c1-22(16-8-11-18-9-3-2-4-10-18)17-20-14-7-13-19-12-5-6-15-21(19)20/h2-15H-16-17H2-1H3/b11-8+

>  <threshold>


>  <reference>
R15|

>  <group>
C

>  <Class>
-1

>  <ABC>
17

>  <ABCGG>
12.96

>  <nAcid>
0

>  <nBase>
1

>  <nAromAtom>
16

>  <nAromBond>
17

>  <nAtom>
43

>  <nHeavyAtom>
22

>  <nSpiro>
0

>  <nBridgehead>
0

>  <nHetero>
1

>  <nN>
1

>  <nO>
0

>  <nF>
0

>  <BalabanJ>
1.36

>  <BertzCT>
753.72

>  <nBonds>
45

>  <nBondsO>
24

>  <nBondsS>
27

>  <nBondsD>
1

>  <nBondsT>
0

>  <nBondsA>
17

>  <nBondsM>
18

>  <nBondsKS>
36

>  <nBondsKD>
9

>  <RNCG>
0.24

>  <RPCG>
0.05

>  <FCSP3>
0.14

>  <SZ>
25.67

>  <Sm>
23.93

>  <Sv>
27.45

>  <Sse>
41.99

>  <Sp>
30.04

>  <Si>
47.65

>  <MZ>
0.6

>  <Mm>
0.56

>  <Mv>
0.64

>  <Mse>
0.98

>  <Mp>
0.7

>  <Mi>
1.11

>  <NsCH3>
1

>  <NdCH2>
0

>  <NssCH2>
2

>  <NtCH>
0

>  <NdsCH>
2

>  <NaaCH>
12

>  <NsssCH>
0

>  <NddC>
0

>  <NtsC>
0

>  <NdssC>
0

>  <NaasC>
2

>  <NaaaC>
2

>  <NssssC>
0

>  <NsNH3>
0

>  <NsNH2>
0

>  <NssNH2>
0

>  <NdNH>
0

>  <NssNH>
0

>  <NaaNH>
0

>  <NtN>
0

>  <NsssNH>
0

>  <NdsN>
0

>  <NaaN>
0

>  <NsssN>
1

>  <NddsN>
0

>  <NaasN>
0

>  <NssssN>
0

>  <NsOH>
0

>  <NdO>
0

>  <NssO>
0

>  <NaaO>
0

>  <NsF>
0

>  <NsSiH3>
0

>  <NssSiH2>
0

>  <NsssSiH>
0

>  <NssssSi>
0

>  <NsPH2>
0

>  <NssPH>
0

>  <NsssP>
0

>  <NdsssP>
0

>  <NsssssP>
0

>  <NsSH>
0

>  <NdS>
0

>  <NssS>
0

>  <NaaS>
0

>  <NdssS>
0

>  <NddssS>
0

>  <NsCl>
0

>  <NsBr>
0

>  <NsI>
0

>  <fragCpx>
114.01

>  <fMF>
0.49

>  <nHBAcc>
1

>  <nHBDon>
0

>  <Kier1>
16.84

>  <Kier2>
8.74

>  <Lipinski>
1

>  <GhoseFilter>
1

>  <FilterItLogS>
-5.39

>  <VMcGowan>
245.45

>  <LabuteASA>
132.07

>  <PEOE_VSA1>
0

>  <PEOE_VSA2>
4.9

>  <PEOE_VSA3>
0

>  <PEOE_VSA4>
0

>  <PEOE_VSA5>
0

>  <PEOE_VSA6>
84.95

>  <PEOE_VSA7>
28.95

>  <PEOE_VSA8>
13.09

>  <PEOE_VSA9>
0

>  <PEOE_VSA10>
0

>  <PEOE_VSA11>
0

>  <PEOE_VSA12>
0

>  <PEOE_VSA13>
0

>  <SMR_VSA1>
0

>  <SMR_VSA2>
0

>  <SMR_VSA3>
4.9

>  <SMR_VSA4>
0

>  <SMR_VSA5>
6.54

>  <SMR_VSA6>
13.59

>  <SMR_VSA7>
90

>  <SMR_VSA8>
0

>  <SMR_VSA9>
0

>  <SlogP_VSA1>
0

>  <SlogP_VSA2>
18.49

>  <SlogP_VSA3>
6.54

>  <SlogP_VSA4>
0

>  <SlogP_VSA5>
11.13

>  <SlogP_VSA6>
78.87

>  <SlogP_VSA7>
0

>  <SlogP_VSA8>
16.85

>  <SlogP_VSA9>
0

>  <SlogP_VSA10>
0

>  <SlogP_VSA11>
0

>  <EState_VSA1>
0

>  <EState_VSA2>
0

>  <EState_VSA3>
0

>  <EState_VSA4>
13.09

>  <EState_VSA5>
21.9

>  <EState_VSA6>
0

>  <EState_VSA7>
6.07

>  <EState_VSA8>
90.83

>  <EState_VSA9>
0

>  <EState_VSA10>
0

>  <VSA_EState1>
0

>  <VSA_EState2>
2.33

>  <VSA_EState3>
2.66

>  <VSA_EState4>
2.63

>  <VSA_EState5>
0

>  <VSA_EState6>
25.57

>  <VSA_EState7>
4.4

>  <VSA_EState8>
1.9

>  <VSA_EState9>
2.16

>  <apol>
50.17

>  <bpol>
22.78

>  <nRing>
3

>  <nHRing>
0

>  <naRing>
3

>  <naHRing>
0

>  <nARing 2>
0

>  <nAHRing 2>
0

>  <nFRing>
1

>  <nFHRing>
0

>  <nFaRing>
1

>  <nFaHRing>
0

>  <nFARing 2>
0

>  <nFAHRing 2>
0

>  <nRot>
5

>  <SLogP>
4.99

>  <SMR>
95.76

>  <TopoPSA(NO)>
3.24

>  <TopoPSA>
3.24

>  <JGI1>
0.13

>  <JGI2>
0.06

>  <JGI3>
0.03

>  <JGI4>
0.03

>  <JGI5>
0.02

>  <Diameter>
13

>  <Radius>
7

>  <TMWC10>
118.46

>  <TSRW10>
55.65

>  <MW>
287.17

>  <AMW>
6.68

>  <WPath>
1224

>  <WPol>
30

>  <Zagreb1>
110

>  <Zagreb2>
125

>  <mZagreb2>
4.97

>  <yes>


>  <nAR-cont>
0.336376

>  <nHA-cont>
0.983774276

>  <MWHBN>
0.059010659

>  <MWHBN-cont>
0.445366517

>  <TPSA-cont>
0.977382788

>  <pka_cont>
0.97

>  <yes.1>


>  <BBB_SCORE>
4.427965628

>  <MMFF94 Energy>
52.106

$$$$
Compound 2637
Actelion Java MolfileCreator 2.0

  0  0  0  0  0  0              0 V3000
M  V30 BEGIN CTAB
M  V30 COUNTS 19 18 0 0 0
M  V30 BEGIN ATOM
M  V30 1 Cl -1.8469 0.8027 -2.49 0
M  V30 2 C -0.1134 0.4262 -2.3431 0
M  V30 3 C 0.2168 -0.3124 -1.0346 0
M  V30 4 N -0.0862 0.4085 0.2193 0
M  V30 5 C 0.1328 -0.4365 1.4136 0
M  V30 6 C 0.6892 1.6459 0.3386 0
M  V30 7 C -0.8461 -1.6069 1.6007 0
M  V30 8 Cl -2.5301 -1.0583 1.7844 0
M  V30 9 H 0.4487 1.3584 -2.4448 0
M  V30 10 H 0.1479 -0.2086 -3.1958 0
M  V30 11 H -0.3436 -1.2536 -1.0604 0
M  V30 12 H 1.2802 -0.5854 -1.0544 0
M  V30 13 H 0.0522 0.1878 2.3141 0
M  V30 14 H 1.1571 -0.832 1.406 0
M  V30 15 H 0.4498 2.1649 1.2741 0
M  V30 16 H 1.7684 1.4569 0.318 0
M  V30 17 H 0.4415 2.3509 -0.4605 0
M  V30 18 H -0.809 -2.317 0.7708 0
M  V30 19 H -0.5889 -2.1546 2.513 0
M  V30 END ATOM
M  V30 BEGIN BOND
M  V30 1 1 1 2
M  V30 2 1 2 3
M  V30 3 1 3 4
M  V30 4 1 4 5
M  V30 5 1 4 6
M  V30 6 1 5 7
M  V30 7 1 7 8
M  V30 8 1 2 9
M  V30 9 1 2 10
M  V30 10 1 3 11
M  V30 11 1 3 12
M  V30 12 1 5 13
M  V30 13 1 5 14
M  V30 14 1 6 15
M  V30 15 1 6 16
M  V30 16 1 6 17
M  V30 17 1 7 18
M  V30 18 1 7 19
M  V30 END BOND
M  V30 END CTAB
M  END
>  <Column 1>
3302

>  <level_0>
5487

>  <index>
5488

>  <Unnamed: 0>
5488

>  <NO.>
5500

>  <Name>
mechlorethamine

>  <IUPAC_name>
2-chloro-n-(2-chloroethyl)-n-methylethanamine

>  <SMILES>
CN(CCCl)CCCl

>  <CID>
4033

>  <logBB>


>  <BBB+/BBB->
BBB-

>  <Inchi>
InChI=1S/C5H11Cl2N/c1-8(4-2-6)5-3-7/h2-5H2-1H3

>  <threshold>


>  <reference>
R15|R23|

>  <group>
C

>  <Class>
1

>  <ABC>
5.06

>  <ABCGG>
5.46

>  <nAcid>
0

>  <nBase>
1

>  <nAromAtom>
0

>  <nAromBond>
0

>  <nAtom>
19

>  <nHeavyAtom>
8

>  <nSpiro>
0

>  <nBridgehead>
0

>  <nHetero>
3

>  <nN>
1

>  <nO>
0

>  <nF>
0

>  <BalabanJ>
2.92

>  <BertzCT>
43.69

>  <nBonds>
18

>  <nBondsO>
7

>  <nBondsS>
18

>  <nBondsD>
0

>  <nBondsT>
0

>  <nBondsA>
0

>  <nBondsM>
0

>  <nBondsKS>
18

>  <nBondsKD>
0

>  <RNCG>
0.54

>  <RPCG>
0.08

>  <FCSP3>
1

>  <SZ>
13.67

>  <Sm>
12.99

>  <Sv>
10.92

>  <Sse>
19.08

>  <Sp>
12.66

>  <Si>
21.88

>  <MZ>
0.72

>  <Mm>
0.68

>  <Mv>
0.57

>  <Mse>
1

>  <Mp>
0.67

>  <Mi>
1.15

>  <NsCH3>
1

>  <NdCH2>
0

>  <NssCH2>
4

>  <NtCH>
0

>  <NdsCH>
0

>  <NaaCH>
0

>  <NsssCH>
0

>  <NddC>
0

>  <NtsC>
0

>  <NdssC>
0

>  <NaasC>
0

>  <NaaaC>
0

>  <NssssC>
0

>  <NsNH3>
0

>  <NsNH2>
0

>  <NssNH2>
0

>  <NdNH>
0

>  <NssNH>
0

>  <NaaNH>
0

>  <NtN>
0

>  <NsssNH>
0

>  <NdsN>
0

>  <NaaN>
0

>  <NsssN>
1

>  <NddsN>
0

>  <NaasN>
0

>  <NssssN>
0

>  <NsOH>
0

>  <NdO>
0

>  <NssO>
0

>  <NaaO>
0

>  <NsF>
0

>  <NsSiH3>
0

>  <NssSiH2>
0

>  <NsssSiH>
0

>  <NssssSi>
0

>  <NsPH2>
0

>  <NssPH>
0

>  <NsssP>
0

>  <NdsssP>
0

>  <NsssssP>
0

>  <NsSH>
0

>  <NdS>
0

>  <NssS>
0

>  <NaaS>
0

>  <NdssS>
0

>  <NddssS>
0

>  <NsCl>
2

>  <NsBr>
0

>  <NsI>
0

>  <fragCpx>
7.03

>  <fMF>
0

>  <nHBAcc>
1

>  <nHBDon>
0

>  <Kier1>
8

>  <Kier2>
5.14

>  <Lipinski>
1

>  <GhoseFilter>
0

>  <FilterItLogS>
-2.44

>  <VMcGowan>
115.77

>  <LabuteASA>
60.57

>  <PEOE_VSA1>
4.9

>  <PEOE_VSA2>
0

>  <PEOE_VSA3>
0

>  <PEOE_VSA4>
0

>  <PEOE_VSA5>
23.2

>  <PEOE_VSA6>
0

>  <PEOE_VSA7>
7.05

>  <PEOE_VSA8>
24.85

>  <PEOE_VSA9>
0

>  <PEOE_VSA10>
0

>  <PEOE_VSA11>
0

>  <PEOE_VSA12>
0

>  <PEOE_VSA13>
0

>  <SMR_VSA1>
0

>  <SMR_VSA2>
0

>  <SMR_VSA3>
4.9

>  <SMR_VSA4>
0

>  <SMR_VSA5>
0

>  <SMR_VSA6>
31.9

>  <SMR_VSA7>
0

>  <SMR_VSA8>
0

>  <SMR_VSA9>
0

>  <SlogP_VSA1>
0

>  <SlogP_VSA2>
36.8

>  <SlogP_VSA3>
0

>  <SlogP_VSA4>
0

>  <SlogP_VSA5>
0

>  <SlogP_VSA6>
0

>  <SlogP_VSA7>
0

>  <SlogP_VSA8>
0

>  <SlogP_VSA9>
0

>  <SlogP_VSA10>
0

>  <SlogP_VSA11>
0

>  <EState_VSA1>
0

>  <EState_VSA2>
0

>  <EState_VSA3>
11.76

>  <EState_VSA4>
13.09

>  <EState_VSA5>
0

>  <EState_VSA6>
0

>  <EState_VSA7>
7.05

>  <EState_VSA8>
4.9

>  <EState_VSA9>
23.2

>  <EState_VSA10>
0

>  <VSA_EState1>
0

>  <VSA_EState2>
2.1

>  <VSA_EState3>
0

>  <VSA_EState4>
0

>  <VSA_EState5>
1.38

>  <VSA_EState6>
0

>  <VSA_EState7>
0

>  <VSA_EState8>
1.85

>  <VSA_EState9>
2

>  <apol>
21.14

>  <bpol>
13.77

>  <nRing>
0

>  <nHRing>
0

>  <naRing>
0

>  <naHRing>
0

>  <nARing 2>
0

>  <nAHRing 2>
0

>  <nFRing>
0

>  <nFHRing>
0

>  <nFaRing>
0

>  <nFaHRing>
0

>  <nFARing 2>
0

>  <nFAHRing 2>
0

>  <nRot>
4

>  <SLogP>
1.4

>  <SMR>
38.94

>  <TopoPSA(NO)>
3.24

>  <TopoPSA>
3.24

>  <JGI1>
0.21

>  <JGI2>
0.1

>  <JGI3>
0.06

>  <JGI4>
0.02

>  <JGI5>
0.03

>  <Diameter>
6

>  <Radius>
3

>  <TMWC10>
69.75

>  <TSRW10>
33.42

>  <MW>
155.03

>  <AMW>
8.16

>  <WPath>
75

>  <WPol>
6

>  <Zagreb1>
28

>  <Zagreb2>
27

>  <mZagreb2>
2.17

>  <yes>


>  <nAR-cont>
0.336376

>  <nHA-cont>
0.464727961

>  <MWHBN>
0.080314161

>  <MWHBN-cont>
0.608239679

>  <TPSA-cont>
0.977382788

>  <pka_cont>
0.97

>  <yes.1>


>  <BBB_SCORE>
4.153229056

>  <MMFF94 Energy>
44.453

$$$$
Compound 2638
Actelion Java MolfileCreator 2.0

  0  0  0  0  0  0              0 V3000
M  V30 BEGIN CTAB
M  V30 COUNTS 25 25 0 0 0
M  V30 BEGIN ATOM
M  V30 1 O -0.3883 -3.9671 0.6214 0
M  V30 2 C -0.6094 -2.7635 0.019 0
M  V30 3 C 0.4067 -1.8146 0.0801 0
M  V30 4 C -1.8059 -2.4891 -0.6331 0
M  V30 5 C 0.241 -0.5559 -0.5198 0
M  V30 6 C -1.9841 -1.244 -1.2338 0
M  V30 7 C -0.9691 -0.2851 -1.1775 0
M  V30 8 C 1.3526 0.4717 -0.4265 0 CFG=1
M  V30 9 O 1.1909 1.4954 -1.4134 0
M  V30 10 C 1.5049 1.0869 0.996 0
M  V30 11 N 0.3152 1.6974 1.6151 0
M  V30 12 C -0.1007 2.9309 0.9646 0
M  V30 13 H -1.1737 -4.524 0.4933 0
M  V30 14 H 1.3289 -2.0644 0.5991 0
M  V30 15 H -2.6026 -3.2238 -0.6856 0
M  V30 16 H -2.913 -1.0157 -1.7503 0
M  V30 17 H -1.1264 0.6804 -1.655 0
M  V30 18 H 2.2924 -0.0342 -0.6818 0
M  V30 19 H 1.91 2.1342 -1.2773 0
M  V30 20 H 1.8334 0.2928 1.6778 0
M  V30 21 H 2.313 1.829 0.9834 0
M  V30 22 H -0.456 1.0278 1.5696 0
M  V30 23 H -0.5054 2.7552 -0.0353 0
M  V30 24 H 0.723 3.649 0.9015 0
M  V30 25 H -0.8942 3.3973 1.5573 0
M  V30 END ATOM
M  V30 BEGIN BOND
M  V30 1 1 1 2
M  V30 2 2 2 3
M  V30 3 1 2 4
M  V30 4 1 3 5
M  V30 5 2 4 6
M  V30 6 2 5 7
M  V30 7 1 5 8
M  V30 8 1 8 9
M  V30 9 1 8 10
M  V30 10 1 10 11
M  V30 11 1 11 12
M  V30 12 1 6 7
M  V30 13 1 1 13
M  V30 14 1 3 14
M  V30 15 1 4 15
M  V30 16 1 6 16
M  V30 17 1 7 17
M  V30 18 1 8 18
M  V30 19 1 9 19
M  V30 20 1 10 20
M  V30 21 1 10 21
M  V30 22 1 11 22
M  V30 23 1 12 23
M  V30 24 1 12 24
M  V30 25 1 12 25
M  V30 END BOND
M  V30 BEGIN COLLECTION
M  V30 MDLV30/STEABS ATOMS=(1 8)
M  V30 END COLLECTION
M  V30 END CTAB
M  END
>  <Column 1>
3303

>  <level_0>
5489

>  <index>
5490

>  <Unnamed: 0>
5490

>  <NO.>
5502

>  <Name>
phenylephrine

>  <IUPAC_name>
3-[(1r)-1-hydroxy-2-(methylamino)ethyl]phenol

>  <SMILES>
CNC[C@H](O)c1cccc(O)c1

>  <CID>
6041

>  <logBB>


>  <BBB+/BBB->
BBB+

>  <Inchi>
InChI=1S/C9H13NO2/c1-10-6-9(12)7-3-2-4-8(11)5-7/h2-5-9-12H-6H2-1H3/t9-/m0/s1

>  <threshold>


>  <reference>
R15|

>  <group>
C

>  <Class>
-1

>  <ABC>
8.66

>  <ABCGG>
8.16

>  <nAcid>
0

>  <nBase>
1

>  <nAromAtom>
6

>  <nAromBond>
6

>  <nAtom>
25

>  <nHeavyAtom>
12

>  <nSpiro>
0

>  <nBridgehead>
0

>  <nHetero>
3

>  <nN>
1

>  <nO>
2

>  <nF>
0

>  <BalabanJ>
2.29

>  <BertzCT>
250.04

>  <nBonds>
25

>  <nBondsO>
12

>  <nBondsS>
19

>  <nBondsD>
0

>  <nBondsT>
0

>  <nBondsA>
6

>  <nBondsM>
6

>  <nBondsKS>
22

>  <nBondsKD>
3

>  <RNCG>
0.36

>  <RPCG>
0.21

>  <FCSP3>
0.33

>  <SZ>
15

>  <Sm>
13.92

>  <Sv>
14.71

>  <Sse>
25.1

>  <Sp>
15.81

>  <Si>
28.41

>  <MZ>
0.6

>  <Mm>
0.56

>  <Mv>
0.59

>  <Mse>
1

>  <Mp>
0.63

>  <Mi>
1.14

>  <NsCH3>
1

>  <NdCH2>
0

>  <NssCH2>
1

>  <NtCH>
0

>  <NdsCH>
0

>  <NaaCH>
4

>  <NsssCH>
1

>  <NddC>
0

>  <NtsC>
0

>  <NdssC>
0

>  <NaasC>
2

>  <NaaaC>
0

>  <NssssC>
0

>  <NsNH3>
0

>  <NsNH2>
0

>  <NssNH2>
0

>  <NdNH>
0

>  <NssNH>
1

>  <NaaNH>
0

>  <NtN>
0

>  <NsssNH>
0

>  <NdsN>
0

>  <NaaN>
0

>  <NsssN>
0

>  <NddsN>
0

>  <NaasN>
0

>  <NssssN>
0

>  <NsOH>
2

>  <NdO>
0

>  <NssO>
0

>  <NaaO>
0

>  <NsF>
0

>  <NsSiH3>
0

>  <NssSiH2>
0

>  <NsssSiH>
0

>  <NssssSi>
0

>  <NsPH2>
0

>  <NssPH>
0

>  <NsssP>
0

>  <NdsssP>
0

>  <NsssssP>
0

>  <NsSH>
0

>  <NdS>
0

>  <NssS>
0

>  <NaaS>
0

>  <NdssS>
0

>  <NddssS>
0

>  <NsCl>
0

>  <NsBr>
0

>  <NsI>
0

>  <fragCpx>
12.03

>  <fMF>
0.24

>  <nHBAcc>
3

>  <nHBDon>
3

>  <Kier1>
10.08

>  <Kier2>
4.89

>  <Lipinski>
1

>  <GhoseFilter>
1

>  <FilterItLogS>
-1.53

>  <VMcGowan>
135.63

>  <LabuteASA>
71.66

>  <PEOE_VSA1>
15.53

>  <PEOE_VSA2>
0

>  <PEOE_VSA3>
0

>  <PEOE_VSA4>
0

>  <PEOE_VSA5>
0

>  <PEOE_VSA6>
12.13

>  <PEOE_VSA7>
24.74

>  <PEOE_VSA8>
6.54

>  <PEOE_VSA9>
6.1

>  <PEOE_VSA10>
5.75

>  <PEOE_VSA11>
0

>  <PEOE_VSA12>
0

>  <PEOE_VSA13>
0

>  <SMR_VSA1>
10.21

>  <SMR_VSA2>
0

>  <SMR_VSA3>
5.32

>  <SMR_VSA4>
0

>  <SMR_VSA5>
6.1

>  <SMR_VSA6>
13.59

>  <SMR_VSA7>
29.83

>  <SMR_VSA8>
0

>  <SMR_VSA9>
5.75

>  <SlogP_VSA1>
5.32

>  <SlogP_VSA2>
23.81

>  <SlogP_VSA3>
0

>  <SlogP_VSA4>
0

>  <SlogP_VSA5>
11.67

>  <SlogP_VSA6>
24.27

>  <SlogP_VSA7>
0

>  <SlogP_VSA8>
0

>  <SlogP_VSA9>
0

>  <SlogP_VSA10>
0

>  <SlogP_VSA11>
5.75

>  <EState_VSA1>
6.1

>  <EState_VSA2>
5.75

>  <EState_VSA3>
6.54

>  <EState_VSA4>
5.56

>  <EState_VSA5>
0

>  <EState_VSA6>
31.31

>  <EState_VSA7>
0

>  <EState_VSA8>
5.32

>  <EState_VSA9>
5.11

>  <EState_VSA10>
5.11

>  <VSA_EState1>
0

>  <VSA_EState2>
0

>  <VSA_EState3>
21.42

>  <VSA_EState4>
0.73

>  <VSA_EState5>
0.18

>  <VSA_EState6>
6.63

>  <VSA_EState7>
-0.55

>  <VSA_EState8>
0.49

>  <VSA_EState9>
1.77

>  <apol>
26.4

>  <bpol>
13.61

>  <nRing>
1

>  <nHRing>
0

>  <naRing>
1

>  <naHRing>
0

>  <nARing 2>
0

>  <nAHRing 2>
0

>  <nFRing>
0

>  <nFHRing>
0

>  <nFaRing>
0

>  <nFaHRing>
0

>  <nFARing 2>
0

>  <nFAHRing 2>
0

>  <nRot>
3

>  <SLogP>
0.65

>  <SMR>
46.99

>  <TopoPSA(NO)>
52.49

>  <TopoPSA>
52.49

>  <JGI1>
0.21

>  <JGI2>
0.09

>  <JGI3>
0.05

>  <JGI4>
0.04

>  <JGI5>
0.03

>  <Diameter>
7

>  <Radius>
4

>  <TMWC10>
88.97

>  <TSRW10>
41.89

>  <MW>
167.09

>  <AMW>
6.68

>  <WPath>
206

>  <WPol>
14

>  <Zagreb1>
54

>  <Zagreb2>
59

>  <mZagreb2>
2.86

>  <yes>


>  <nAR-cont>
0.336376

>  <nHA-cont>
0.785745021

>  <MWHBN>
0.464168881

>  <MWHBN-cont>
0

>  <TPSA-cont>
0.633587206

>  <pka_cont>
0.97

>  <yes.1>


>  <BBB_SCORE>
2.874295432

>  <MMFF94 Energy>
43.771

$$$$
Compound 2639
Actelion Java MolfileCreator 2.0

  0  0  0  0  0  0              0 V3000
M  V30 BEGIN CTAB
M  V30 COUNTS 52 53 0 0 0
M  V30 BEGIN ATOM
M  V30 1 O 2.6969 2.2206 -0.5547 0
M  V30 2 N 1.4879 2.3349 -0.3091 0 CHG=1
M  V30 3 O 1.0079 2.965 0.6415 0 CHG=-1
M  V30 4 C 0.5577 1.7044 -1.2354 0
M  V30 5 C -0.4363 0.8041 -0.7968 0
M  V30 6 C 0.7114 2.0387 -2.5919 0
M  V30 7 C -1.2869 0.2664 -1.7877 0
M  V30 8 C -0.6374 0.381 0.6705 0 CFG=2
M  V30 9 C -0.142 1.483 -3.5406 0
M  V30 10 C -1.1408 0.6012 -3.1378 0
M  V30 11 C -0.5022 -1.1443 0.8405 0
M  V30 12 C -1.9744 0.9046 1.1785 0
M  V30 13 C -1.586 -1.8983 1.1578 0
M  V30 14 C 0.8592 -1.7493 0.7429 0
M  V30 15 C -2.9961 0.0818 1.493 0
M  V30 16 C -2.108 2.363 1.3172 0
M  V30 17 N -2.8073 -1.2866 1.4064 0
M  V30 18 C -1.5795 -3.4031 1.2793 0
M  V30 19 O 1.147 -2.8885 1.0749 0
M  V30 20 O 1.7446 -0.8407 0.2638 0
M  V30 21 C -4.3514 0.5372 1.9676 0
M  V30 22 O -2.6811 3.0792 0.5131 0
M  V30 23 O -1.5176 2.7383 2.4767 0
M  V30 24 C 3.1112 -1.2779 0.1636 0
M  V30 25 C -1.5495 4.1464 2.7075 0
M  V30 26 C 3.3593 -2.062 -1.1325 0
M  V30 27 C 3.0011 -1.2338 -2.3671 0
M  V30 28 C 4.8149 -2.5197 -1.2014 0
M  V30 29 H 1.489 2.7298 -2.9119 0
M  V30 30 H -2.0846 -0.4241 -1.5136 0
M  V30 31 H 0.1322 0.8151 1.3181 0
M  V30 32 H -0.0329 1.7393 -4.5918 0
M  V30 33 H -1.8143 0.1707 -3.876 0
M  V30 34 H -3.5915 -1.8834 1.6596 0
M  V30 35 H -1.0148 -3.8726 0.468 0
M  V30 36 H -1.1657 -3.7086 2.2454 0
M  V30 37 H -2.5956 -3.8089 1.2112 0
M  V30 38 H -5.1234 0.2113 1.2622 0
M  V30 39 H -4.5734 0.0976 2.9462 0
M  V30 40 H -4.4362 1.6221 2.0721 0
M  V30 41 H 3.3878 -1.8662 1.0475 0
M  V30 42 H 3.7328 -0.3756 0.1852 0
M  V30 43 H -0.9875 4.353 3.6226 0
M  V30 44 H -1.0765 4.6874 1.8819 0
M  V30 45 H -2.581 4.4838 2.8497 0
M  V30 46 H 2.7172 -2.9511 -1.1403 0
M  V30 47 H 3.5658 -0.2959 -2.3952 0
M  V30 48 H 1.9343 -0.9913 -2.3797 0
M  V30 49 H 3.221 -1.7893 -3.2849 0
M  V30 50 H 5.5004 -1.6654 -1.213 0
M  V30 51 H 5.0666 -3.1454 -0.3386 0
M  V30 52 H 4.9948 -3.1104 -2.1058 0
M  V30 END ATOM
M  V30 BEGIN BOND
M  V30 1 2 1 2
M  V30 2 1 2 3
M  V30 3 1 2 4
M  V30 4 2 4 5
M  V30 5 1 4 6
M  V30 6 1 5 7
M  V30 7 1 5 8
M  V30 8 2 6 9
M  V30 9 2 7 10
M  V30 10 1 8 11
M  V30 11 1 8 12
M  V30 12 2 11 13
M  V30 13 1 11 14
M  V30 14 2 12 15
M  V30 15 1 12 16
M  V30 16 1 13 17
M  V30 17 1 13 18
M  V30 18 2 14 19
M  V30 19 1 14 20
M  V30 20 1 15 21
M  V30 21 2 16 22
M  V30 22 1 16 23
M  V30 23 1 20 24
M  V30 24 1 23 25
M  V30 25 1 24 26
M  V30 26 1 26 27
M  V30 27 1 26 28
M  V30 28 1 9 10
M  V30 29 1 15 17
M  V30 30 1 6 29
M  V30 31 1 7 30
M  V30 32 1 8 31
M  V30 33 1 9 32
M  V30 34 1 10 33
M  V30 35 1 17 34
M  V30 36 1 18 35
M  V30 37 1 18 36
M  V30 38 1 18 37
M  V30 39 1 21 38
M  V30 40 1 21 39
M  V30 41 1 21 40
M  V30 42 1 24 41
M  V30 43 1 24 42
M  V30 44 1 25 43
M  V30 45 1 25 44
M  V30 46 1 25 45
M  V30 47 1 26 46
M  V30 48 1 27 47
M  V30 49 1 27 48
M  V30 50 1 27 49
M  V30 51 1 28 50
M  V30 52 1 28 51
M  V30 53 1 28 52
M  V30 END BOND
M  V30 BEGIN COLLECTION
M  V30 MDLV30/STERAC1 ATOMS=(1 8)
M  V30 END COLLECTION
M  V30 END CTAB
M  END
>  <Column 1>
3304

>  <level_0>
5493

>  <index>
5494

>  <Unnamed: 0>
5494

>  <NO.>
5506

>  <Name>
nisoldipine

>  <IUPAC_name>
3-o-methyl 5-o-(2-methylpropyl) 2-6-dimethyl-4-(2-nitrophenyl)-1-4-dihydropyridine-3-5-dicarboxylate

>  <SMILES>
COC(=O)C1=C(C)NC(C)=C(C(=O)OCC(C)C)C1c1ccccc1[N+](=O)[O-]

>  <CID>
4499

>  <logBB>


>  <BBB+/BBB->
BBB-

>  <Inchi>
InChI=1S/C20H24N2O6/c1-11(2)10-28-20(24)17-13(4)21-12(3)16(19(23)27-5)18(17)14-8-6-7-9-15(14)22(25)26/h6-9-11-18-21H-10H2-1-5H3

>  <threshold>


>  <reference>
R15|

>  <group>
C

>  <Class>
-1

>  <ABC>
21.02

>  <ABCGG>
18.79

>  <nAcid>
0

>  <nBase>
0

>  <nAromAtom>
6

>  <nAromBond>
6

>  <nAtom>
52

>  <nHeavyAtom>
28

>  <nSpiro>
0

>  <nBridgehead>
0

>  <nHetero>
8

>  <nN>
2

>  <nO>
6

>  <nF>
0

>  <BalabanJ>
2.4

>  <BertzCT>
869.2

>  <nBonds>
53

>  <nBondsO>
29

>  <nBondsS>
42

>  <nBondsD>
5

>  <nBondsT>
0

>  <nBondsA>
6

>  <nBondsM>
11

>  <nBondsKS>
45

>  <nBondsKD>
8

>  <RNCG>
0.18

>  <RPCG>
0.13

>  <FCSP3>
0.4

>  <SZ>
34.33

>  <Sm>
32.34

>  <Sv>
32.31

>  <Sse>
52.96

>  <Sp>
33.78

>  <Si>
58.82

>  <MZ>
0.66

>  <Mm>
0.62

>  <Mv>
0.62

>  <Mse>
1.02

>  <Mp>
0.65

>  <Mi>
1.13

>  <NsCH3>
5

>  <NdCH2>
0

>  <NssCH2>
1

>  <NtCH>
0

>  <NdsCH>
0

>  <NaaCH>
4

>  <NsssCH>
2

>  <NddC>
0

>  <NtsC>
0

>  <NdssC>
6

>  <NaasC>
2

>  <NaaaC>
0

>  <NssssC>
0

>  <NsNH3>
0

>  <NsNH2>
0

>  <NssNH2>
0

>  <NdNH>
0

>  <NssNH>
1

>  <NaaNH>
0

>  <NtN>
0

>  <NsssNH>
0

>  <NdsN>
0

>  <NaaN>
0

>  <NsssN>
0

>  <NddsN>
1

>  <NaasN>
0

>  <NssssN>
0

>  <NsOH>
0

>  <NdO>
3

>  <NssO>
2

>  <NaaO>
0

>  <NsF>
0

>  <NsSiH3>
0

>  <NssSiH2>
0

>  <NsssSiH>
0

>  <NssssSi>
0

>  <NsPH2>
0

>  <NssPH>
0

>  <NsssP>
0

>  <NdsssP>
0

>  <NsssssP>
0

>  <NsSH>
0

>  <NdS>
0

>  <NssS>
0

>  <NaaS>
0

>  <NdssS>
0

>  <NddssS>
0

>  <NsCl>
0

>  <NsBr>
0

>  <NsI>
0

>  <fragCpx>
85.08

>  <fMF>
0.23

>  <nHBAcc>
7

>  <nHBDon>
1

>  <Kier1>
24.27

>  <Kier2>
10.86

>  <Lipinski>
1

>  <GhoseFilter>
1

>  <FilterItLogS>
-4.65

>  <VMcGowan>
291.72

>  <LabuteASA>
162.91

>  <PEOE_VSA1>
14.79

>  <PEOE_VSA2>
10.11

>  <PEOE_VSA3>
9.59

>  <PEOE_VSA4>
0

>  <PEOE_VSA5>
0

>  <PEOE_VSA6>
32.05

>  <PEOE_VSA7>
19.77

>  <PEOE_VSA8>
23.02

>  <PEOE_VSA9>
35.7

>  <PEOE_VSA10>
0

>  <PEOE_VSA11>
0

>  <PEOE_VSA12>
0

>  <PEOE_VSA13>
5.69

>  <SMR_VSA1>
23.99

>  <SMR_VSA2>
0

>  <SMR_VSA3>
5.32

>  <SMR_VSA4>
5.92

>  <SMR_VSA5>
33.61

>  <SMR_VSA6>
13.72

>  <SMR_VSA7>
62.48

>  <SMR_VSA8>
0

>  <SMR_VSA9>
0

>  <SlogP_VSA1>
5.32

>  <SlogP_VSA2>
30.58

>  <SlogP_VSA3>
19.06

>  <SlogP_VSA4>
16.03

>  <SlogP_VSA5>
39.18

>  <SlogP_VSA6>
46.81

>  <SlogP_VSA7>
0

>  <SlogP_VSA8>
0

>  <SlogP_VSA9>
0

>  <SlogP_VSA10>
5.69

>  <SlogP_VSA11>
0

>  <EState_VSA1>
22.78

>  <EState_VSA2>
34.92

>  <EState_VSA3>
11.39

>  <EState_VSA4>
0

>  <EState_VSA5>
25.31

>  <EState_VSA6>
19.91

>  <EState_VSA7>
13.85

>  <EState_VSA8>
5.32

>  <EState_VSA9>
9.47

>  <EState_VSA10>
19.7

>  <VSA_EState1>
10.27

>  <VSA_EState2>
36.45

>  <VSA_EState3>
14.59

>  <VSA_EState4>
1.27

>  <VSA_EState5>
-2.16

>  <VSA_EState6>
6.03

>  <VSA_EState7>
0

>  <VSA_EState8>
7.32

>  <VSA_EState9>
1.22

>  <apol>
56.42

>  <bpol>
31.02

>  <nRing>
2

>  <nHRing>
1

>  <naRing>
1

>  <naHRing>
0

>  <nARing 2>
1

>  <nAHRing 2>
1

>  <nFRing>
0

>  <nFHRing>
0

>  <nFaRing>
0

>  <nFaHRing>
0

>  <nFARing 2>
0

>  <nFAHRing 2>
0

>  <nRot>
6

>  <SLogP>
3.2

>  <SMR>
102.19

>  <TopoPSA(NO)>
107.77

>  <TopoPSA>
107.77

>  <JGI1>
0.21

>  <JGI2>
0.09

>  <JGI3>
0.06

>  <JGI4>
0.04

>  <JGI5>
0.03

>  <Diameter>
10

>  <Radius>
5

>  <TMWC10>
133.76

>  <TSRW10>
63.28

>  <MW>
388.16

>  <AMW>
7.46

>  <WPath>
1814

>  <WPol>
48

>  <Zagreb1>
140

>  <Zagreb2>
165

>  <mZagreb2>
6.33

>  <yes>


>  <nAR-cont>
0.816016

>  <nHA-cont>
0.82432561

>  <MWHBN>
0.406054752

>  <MWHBN-cont>
0.452268112

>  <TPSA-cont>
0.247698479

>  <pka_cont>
0.97

>  <yes.1>


>  <BBB_SCORE>
3.299140737

>  <MMFF94 Energy>
42.187

$$$$
Compound 2640
Actelion Java MolfileCreator 2.0

  0  0  0  0  0  0              0 V3000
M  V30 BEGIN CTAB
M  V30 COUNTS 56 57 0 0 0
M  V30 BEGIN ATOM
M  V30 1 O 2.4326 1.5689 -3.2183 0
M  V30 2 C 1.9994 1.65 -2.0749 0
M  V30 3 N 1.416 0.5971 -1.4101 0
M  V30 4 C 2.1219 2.9257 -1.3178 0
M  V30 5 C 1.2544 -0.6863 -2.0513 0
M  V30 6 C 1.1853 3.2927 -0.3403 0
M  V30 7 C 3.1953 3.7729 -1.6294 0
M  V30 8 C 0.3693 -1.5794 -1.2251 0
M  V30 9 C 1.3333 4.4968 0.3498 0
M  V30 10 C 3.3571 4.981 -0.952 0
M  V30 11 C 0.9135 -2.4 -0.2305 0
M  V30 12 C -1.0207 -1.5622 -1.4012 0
M  V30 13 O 0.4808 4.95 1.3232 0
M  V30 14 C 2.4131 5.3389 0.0269 0
M  V30 15 O 4.3759 5.8716 -1.1694 0
M  V30 16 C 0.0809 -3.1987 0.5565 0
M  V30 17 C -1.8517 -2.3656 -0.6121 0
M  V30 18 C -0.5144 4.0536 1.7971 0
M  V30 19 O 2.5868 6.5069 0.7377 0
M  V30 20 C 5.3743 5.5078 -2.1134 0
M  V30 21 C -1.3026 -3.1909 0.3683 0
M  V30 22 C 1.9347 7.5839 0.0667 0
M  V30 23 O -1.9964 -4.0156 1.2085 0
M  V30 24 C -3.3953 -4.1707 0.9639 0
M  V30 25 C -3.9828 -5.1973 1.9531 0
M  V30 26 N -3.4546 -6.5729 1.8366 0
M  V30 27 C -3.7833 -7.1899 0.5526 0
M  V30 28 C -3.9587 -7.4002 2.9345 0
M  V30 29 H 1.1927 0.6636 -0.4271 0
M  V30 30 H 0.8351 -0.5418 -3.054 0
M  V30 31 H 2.247 -1.1331 -2.1812 0
M  V30 32 H 0.335 2.6482 -0.152 0
M  V30 33 H 3.8898 3.4582 -2.4027 0
M  V30 34 H 1.9877 -2.4256 -0.0615 0
M  V30 35 H -1.4666 -0.9192 -2.1578 0
M  V30 36 H 0.5132 -3.8384 1.3226 0
M  V30 37 H -2.9211 -2.3182 -0.7861 0
M  V30 38 H -1.2562 3.8464 1.0193 0
M  V30 39 H -1.0327 4.5387 2.6299 0
M  V30 40 H -0.0689 3.1277 2.1759 0
M  V30 41 H 5.8872 4.5883 -1.8128 0
M  V30 42 H 6.118 6.3101 -2.1389 0
M  V30 43 H 4.9505 5.4156 -3.1187 0
M  V30 44 H 2.3684 7.7602 -0.9234 0
M  V30 45 H 2.0819 8.4883 0.6646 0
M  V30 46 H 0.8567 7.4078 -0.0182 0
M  V30 47 H -3.5797 -4.4823 -0.0699 0
M  V30 48 H -3.8986 -3.2117 1.1394 0
M  V30 49 H -3.7541 -4.8308 2.9625 0
M  V30 50 H -5.0754 -5.2032 1.8476 0
M  V30 51 H -3.2971 -6.6653 -0.2754 0
M  V30 52 H -4.8634 -7.2098 0.3687 0
M  V30 53 H -3.4111 -8.2201 0.5136 0
M  V30 54 H -5.0508 -7.4912 2.915 0
M  V30 55 H -3.6641 -6.9797 3.9026 0
M  V30 56 H -3.5274 -8.4065 2.8892 0
M  V30 END ATOM
M  V30 BEGIN BOND
M  V30 1 2 1 2
M  V30 2 1 2 3
M  V30 3 1 2 4
M  V30 4 1 3 5
M  V30 5 2 4 6
M  V30 6 1 4 7
M  V30 7 1 5 8
M  V30 8 1 6 9
M  V30 9 2 7 10
M  V30 10 2 8 11
M  V30 11 1 8 12
M  V30 12 1 9 13
M  V30 13 2 9 14
M  V30 14 1 10 15
M  V30 15 1 11 16
M  V30 16 2 12 17
M  V30 17 1 13 18
M  V30 18 1 14 19
M  V30 19 1 15 20
M  V30 20 2 16 21
M  V30 21 1 19 22
M  V30 22 1 21 23
M  V30 23 1 23 24
M  V30 24 1 24 25
M  V30 25 1 25 26
M  V30 26 1 26 27
M  V30 27 1 26 28
M  V30 28 1 10 14
M  V30 29 1 17 21
M  V30 30 1 3 29
M  V30 31 1 5 30
M  V30 32 1 5 31
M  V30 33 1 6 32
M  V30 34 1 7 33
M  V30 35 1 11 34
M  V30 36 1 12 35
M  V30 37 1 16 36
M  V30 38 1 17 37
M  V30 39 1 18 38
M  V30 40 1 18 39
M  V30 41 1 18 40
M  V30 42 1 20 41
M  V30 43 1 20 42
M  V30 44 1 20 43
M  V30 45 1 22 44
M  V30 46 1 22 45
M  V30 47 1 22 46
M  V30 48 1 24 47
M  V30 49 1 24 48
M  V30 50 1 25 49
M  V30 51 1 25 50
M  V30 52 1 27 51
M  V30 53 1 27 52
M  V30 54 1 27 53
M  V30 55 1 28 54
M  V30 56 1 28 55
M  V30 57 1 28 56
M  V30 END BOND
M  V30 END CTAB
M  END
>  <Column 1>
3305

>  <level_0>
5502

>  <index>
5503

>  <Unnamed: 0>
5503

>  <NO.>
5515

>  <Name>
trimethobenzamide

>  <IUPAC_name>
n-[[4-[2-(dimethylamino)ethoxy]phenyl]methyl]-3-4-5-trimethoxybenzamide

>  <SMILES>
COc1cc(C(=O)NCc2ccc(OCCN(C)C)cc2)cc(OC)c1OC

>  <CID>
5577

>  <logBB>


>  <BBB+/BBB->
BBB+

>  <Inchi>
InChI=1S/C21H28N2O5/c1-23(2)10-11-28-17-8-6-15(7-9-17)14-22-21(24)16-12-18(25-3)20(27-5)19(13-16)26-4/h6-9-12-13H-10-11-14H2-1-5H3-(H-22-24)

>  <threshold>


>  <reference>
R15|R23|

>  <group>
C

>  <Class>
-1

>  <ABC>
20.71

>  <ABCGG>
16.3

>  <nAcid>
0

>  <nBase>
1

>  <nAromAtom>
12

>  <nAromBond>
12

>  <nAtom>
56

>  <nHeavyAtom>
28

>  <nSpiro>
0

>  <nBridgehead>
0

>  <nHetero>
7

>  <nN>
2

>  <nO>
5

>  <nF>
0

>  <BalabanJ>
1.7

>  <BertzCT>
749.86

>  <nBonds>
57

>  <nBondsO>
29

>  <nBondsS>
44

>  <nBondsD>
1

>  <nBondsT>
0

>  <nBondsA>
12

>  <nBondsM>
13

>  <nBondsKS>
50

>  <nBondsKD>
7

>  <RNCG>
0.16

>  <RPCG>
0.08

>  <FCSP3>
0.38

>  <SZ>
34.67

>  <Sm>
32.34

>  <Sv>
33.68

>  <Sse>
56.41

>  <Sp>
35.9

>  <Si>
63.44

>  <MZ>
0.62

>  <Mm>
0.58

>  <Mv>
0.6

>  <Mse>
1.01

>  <Mp>
0.64

>  <Mi>
1.13

>  <NsCH3>
5

>  <NdCH2>
0

>  <NssCH2>
3

>  <NtCH>
0

>  <NdsCH>
0

>  <NaaCH>
6

>  <NsssCH>
0

>  <NddC>
0

>  <NtsC>
0

>  <NdssC>
1

>  <NaasC>
6

>  <NaaaC>
0

>  <NssssC>
0

>  <NsNH3>
0

>  <NsNH2>
0

>  <NssNH2>
0

>  <NdNH>
0

>  <NssNH>
1

>  <NaaNH>
0

>  <NtN>
0

>  <NsssNH>
0

>  <NdsN>
0

>  <NaaN>
0

>  <NsssN>
1

>  <NddsN>
0

>  <NaasN>
0

>  <NssssN>
0

>  <NsOH>
0

>  <NdO>
1

>  <NssO>
4

>  <NaaO>
0

>  <NsF>
0

>  <NsSiH3>
0

>  <NssSiH2>
0

>  <NsssSiH>
0

>  <NssssSi>
0

>  <NsPH2>
0

>  <NssPH>
0

>  <NsssP>
0

>  <NdsssP>
0

>  <NsssssP>
0

>  <NsSH>
0

>  <NdS>
0

>  <NssS>
0

>  <NaaS>
0

>  <NdssS>
0

>  <NddssS>
0

>  <NsCl>
0

>  <NsBr>
0

>  <NsI>
0

>  <fragCpx>
85.07

>  <fMF>
0.27

>  <nHBAcc>
6

>  <nHBDon>
1

>  <Kier1>
24.27

>  <Kier2>
12.64

>  <Lipinski>
1

>  <GhoseFilter>
1

>  <FilterItLogS>
-5.39

>  <VMcGowan>
304.24

>  <LabuteASA>
165.7

>  <PEOE_VSA1>
29.16

>  <PEOE_VSA2>
4.79

>  <PEOE_VSA3>
0

>  <PEOE_VSA4>
0

>  <PEOE_VSA5>
0

>  <PEOE_VSA6>
12.13

>  <PEOE_VSA7>
43.92

>  <PEOE_VSA8>
18.65

>  <PEOE_VSA9>
21.33

>  <PEOE_VSA10>
12.36

>  <PEOE_VSA11>
11.5

>  <PEOE_VSA12>
5.75

>  <PEOE_VSA13>
5.91

>  <SMR_VSA1>
23.74

>  <SMR_VSA2>
0

>  <SMR_VSA3>
10.22

>  <SMR_VSA4>
0

>  <SMR_VSA5>
6.54

>  <SMR_VSA6>
48.58

>  <SMR_VSA7>
47.53

>  <SMR_VSA8>
0

>  <SMR_VSA9>
23

>  <SlogP_VSA1>
24.26

>  <SlogP_VSA2>
59.38

>  <SlogP_VSA3>
6.54

>  <SlogP_VSA4>
0

>  <SlogP_VSA5>
15.92

>  <SlogP_VSA6>
36.4

>  <SlogP_VSA7>
0

>  <SlogP_VSA8>
0

>  <SlogP_VSA9>
0

>  <SlogP_VSA10>
0

>  <SlogP_VSA11>
23

>  <EState_VSA1>
0

>  <EState_VSA2>
5.91

>  <EState_VSA3>
35.96

>  <EState_VSA4>
17.86

>  <EState_VSA5>
21.33

>  <EState_VSA6>
12.13

>  <EState_VSA7>
38.36

>  <EState_VSA8>
10.22

>  <EState_VSA9>
18.95

>  <EState_VSA10>
4.79

>  <VSA_EState1>
21.53

>  <VSA_EState2>
14.6

>  <VSA_EState3>
2.89

>  <VSA_EState4>
1.4

>  <VSA_EState5>
1.9

>  <VSA_EState6>
10.91

>  <VSA_EState7>
0

>  <VSA_EState8>
1.88

>  <VSA_EState9>
8.56

>  <apol>
59.95

>  <bpol>
38.18

>  <nRing>
2

>  <nHRing>
0

>  <naRing>
2

>  <naHRing>
0

>  <nARing 2>
0

>  <nAHRing 2>
0

>  <nFRing>
0

>  <nFHRing>
0

>  <nFaRing>
0

>  <nFaHRing>
0

>  <nFARing 2>
0

>  <nFAHRing 2>
0

>  <nRot>
10

>  <SLogP>
2.58

>  <SMR>
107.76

>  <TopoPSA(NO)>
69.26

>  <TopoPSA>
69.26

>  <JGI1>
0.21

>  <JGI2>
0.08

>  <JGI3>
0.04

>  <JGI4>
0.04

>  <JGI5>
0.03

>  <Diameter>
17

>  <Radius>
9

>  <TMWC10>
131.4

>  <TSRW10>
62.63

>  <MW>
388.2

>  <AMW>
6.93

>  <WPath>
2489

>  <WPol>
41

>  <Zagreb1>
134

>  <Zagreb2>
152

>  <mZagreb2>
6.58

>  <yes>


>  <nAR-cont>
0.336376

>  <nHA-cont>
0.82432561

>  <MWHBN>
0.355279603

>  <MWHBN-cont>
0.650382315

>  <TPSA-cont>
0.516522192

>  <pka_cont>
0.97

>  <yes.1>


>  <BBB_SCORE>
3.654319467

>  <MMFF94 Energy>
80.536

$$$$
Compound 2641
Actelion Java MolfileCreator 2.0

  0  0  0  0  0  0              0 V3000
M  V30 BEGIN CTAB
M  V30 COUNTS 49 49 0 0 0
M  V30 BEGIN ATOM
M  V30 1 O 0.3112 1.4789 -3.0374 0
M  V30 2 C -0.0748 1.2669 -1.8937 0
M  V30 3 N -1.2954 1.6911 -1.4222 0
M  V30 4 C 0.7273 0.506 -0.8545 0
M  V30 5 C -2.2007 2.4311 -2.2675 0
M  V30 6 C 2.1097 0.1078 -1.3682 0
M  V30 7 C -3.4741 2.7524 -1.5315 0
M  V30 8 C 2.9922 -0.545 -0.2991 0
M  V30 9 C -4.5312 1.8247 -1.5071 0
M  V30 10 C -3.5987 3.9532 -0.8205 0
M  V30 11 C 2.4742 -1.9126 0.161 0
M  V30 12 C -5.7063 2.0957 -0.7987 0
M  V30 13 C -4.7653 4.2339 -0.1098 0
M  V30 14 C 3.3252 -2.6615 1.156 0
M  V30 15 O -6.7865 1.2572 -0.717 0
M  V30 16 C -5.8083 3.308 -0.1025 0
M  V30 17 C 4.4755 -2.2516 1.7169 0
M  V30 18 C -6.7478 0.0611 -1.4813 0
M  V30 19 O -6.9537 3.5825 0.5974 0
M  V30 20 C 5.3274 -3.0041 2.7192 0
M  V30 21 C 4.7276 -4.3085 3.2509 0
M  V30 22 C 6.7079 -3.2751 2.1163 0
M  V30 23 H -1.5686 1.4933 -0.4681 0
M  V30 24 H 0.1491 -0.3816 -0.5756 0
M  V30 25 H 0.8258 1.1406 0.0341 0
M  V30 26 H -1.6994 3.3477 -2.6005 0
M  V30 27 H -2.4103 1.8389 -3.1663 0
M  V30 28 H 2.6265 1.0025 -1.7383 0
M  V30 29 H 2.0079 -0.5663 -2.2277 0
M  V30 30 H 3.0813 0.1326 0.559 0
M  V30 31 H 3.9981 -0.6625 -0.7214 0
M  V30 32 H -4.4073 0.8924 -2.0499 0
M  V30 33 H -2.785 4.676 -0.817 0
M  V30 34 H 1.4822 -1.7953 0.6123 0
M  V30 35 H 2.3473 -2.5569 -0.7178 0
M  V30 36 H -4.8431 5.1714 0.4318 0
M  V30 37 H 2.9259 -3.6397 1.4178 0
M  V30 38 H 4.8715 -1.2718 1.4539 0
M  V30 39 H -6.6482 0.2763 -2.5504 0
M  V30 40 H -7.6986 -0.4606 -1.3348 0
M  V30 41 H -5.9484 -0.6018 -1.1345 0
M  V30 42 H -6.8804 4.4636 0.9946 0
M  V30 43 H 5.4625 -2.3365 3.5805 0
M  V30 44 H 4.6029 -5.0511 2.4551 0
M  V30 45 H 3.7513 -4.1336 3.716 0
M  V30 46 H 5.3798 -4.7478 4.0141 0
M  V30 47 H 7.3673 -3.7481 2.8521 0
M  V30 48 H 6.6406 -3.9392 1.2471 0
M  V30 49 H 7.188 -2.3447 1.7927 0
M  V30 END ATOM
M  V30 BEGIN BOND
M  V30 1 2 1 2
M  V30 2 1 2 3
M  V30 3 1 2 4
M  V30 4 1 3 5
M  V30 5 1 4 6
M  V30 6 1 5 7
M  V30 7 1 6 8
M  V30 8 2 7 9
M  V30 9 1 7 10
M  V30 10 1 8 11
M  V30 11 1 9 12
M  V30 12 2 10 13
M  V30 13 1 11 14
M  V30 14 1 12 15
M  V30 15 2 12 16
M  V30 16 2 14 17
M  V30 17 1 15 18
M  V30 18 1 16 19
M  V30 19 1 17 20
M  V30 20 1 20 21
M  V30 21 1 20 22
M  V30 22 1 13 16
M  V30 23 1 3 23
M  V30 24 1 4 24
M  V30 25 1 4 25
M  V30 26 1 5 26
M  V30 27 1 5 27
M  V30 28 1 6 28
M  V30 29 1 6 29
M  V30 30 1 8 30
M  V30 31 1 8 31
M  V30 32 1 9 32
M  V30 33 1 10 33
M  V30 34 1 11 34
M  V30 35 1 11 35
M  V30 36 1 13 36
M  V30 37 1 14 37
M  V30 38 1 17 38
M  V30 39 1 18 39
M  V30 40 1 18 40
M  V30 41 1 18 41
M  V30 42 1 19 42
M  V30 43 1 20 43
M  V30 44 1 21 44
M  V30 45 1 21 45
M  V30 46 1 21 46
M  V30 47 1 22 47
M  V30 48 1 22 48
M  V30 49 1 22 49
M  V30 END BOND
M  V30 END CTAB
M  END
>  <Column 1>
3306

>  <level_0>
5503

>  <index>
5504

>  <Unnamed: 0>
5504

>  <NO.>
5516

>  <Name>
capsaicine

>  <IUPAC_name>
(e)-n-[(4-hydroxy-3-methoxyphenyl)methyl]-8-methylnon-6-enamide

>  <SMILES>
COc1cc(CNC(=O)CCCC/C=C/C(C)C)ccc1O

>  <CID>
1548943

>  <logBB>


>  <BBB+/BBB->
BBB-

>  <Inchi>
InChI=1S/C18H27NO3/c1-14(2)8-6-4-5-7-9-18(21)19-13-15-10-11-16(20)17(12-15)22-3/h6-8-10-12-14-20H-4-5-7-9-13H2-1-3H3-(H-19-21)/b8-6+

>  <threshold>


>  <reference>
R15|

>  <group>
C

>  <Class>
1

>  <ABC>
15.95

>  <ABCGG>
13.03

>  <nAcid>
0

>  <nBase>
0

>  <nAromAtom>
6

>  <nAromBond>
6

>  <nAtom>
49

>  <nHeavyAtom>
22

>  <nSpiro>
0

>  <nBridgehead>
0

>  <nHetero>
4

>  <nN>
1

>  <nO>
3

>  <nF>
0

>  <BalabanJ>
2.02

>  <BertzCT>
495.11

>  <nBonds>
49

>  <nBondsO>
22

>  <nBondsS>
41

>  <nBondsD>
2

>  <nBondsT>
0

>  <nBondsA>
6

>  <nBondsM>
8

>  <nBondsKS>
44

>  <nBondsKD>
5

>  <RNCG>
0.23

>  <RPCG>
0.13

>  <FCSP3>
0.5

>  <SZ>
27.67

>  <Sm>
25.43

>  <Sv>
28.22

>  <Sse>
48.64

>  <Sp>
30.88

>  <Si>
55.53

>  <MZ>
0.56

>  <Mm>
0.52

>  <Mv>
0.58

>  <Mse>
0.99

>  <Mp>
0.63

>  <Mi>
1.13

>  <NsCH3>
3

>  <NdCH2>
0

>  <NssCH2>
5

>  <NtCH>
0

>  <NdsCH>
2

>  <NaaCH>
3

>  <NsssCH>
1

>  <NddC>
0

>  <NtsC>
0

>  <NdssC>
1

>  <NaasC>
3

>  <NaaaC>
0

>  <NssssC>
0

>  <NsNH3>
0

>  <NsNH2>
0

>  <NssNH2>
0

>  <NdNH>
0

>  <NssNH>
1

>  <NaaNH>
0

>  <NtN>
0

>  <NsssNH>
0

>  <NdsN>
0

>  <NaaN>
0

>  <NsssN>
0

>  <NddsN>
0

>  <NaasN>
0

>  <NssssN>
0

>  <NsOH>
1

>  <NdO>
1

>  <NssO>
1

>  <NaaO>
0

>  <NsF>
0

>  <NsSiH3>
0

>  <NssSiH2>
0

>  <NsssSiH>
0

>  <NssssSi>
0

>  <NsPH2>
0

>  <NssPH>
0

>  <NsssP>
0

>  <NdsssP>
0

>  <NsssssP>
0

>  <NsSH>
0

>  <NdS>
0

>  <NssS>
0

>  <NaaS>
0

>  <NdssS>
0

>  <NddssS>
0

>  <NsCl>
0

>  <NsBr>
0

>  <NsI>
0

>  <fragCpx>
22.04

>  <fMF>
0.12

>  <nHBAcc>
3

>  <nHBDon>
2

>  <Kier1>
20.05

>  <Kier2>
11.52

>  <Lipinski>
1

>  <GhoseFilter>
1

>  <FilterItLogS>
-4.42

>  <VMcGowan>
259.71

>  <LabuteASA>
132.74

>  <PEOE_VSA1>
15.16

>  <PEOE_VSA2>
4.79

>  <PEOE_VSA3>
0

>  <PEOE_VSA4>
0

>  <PEOE_VSA5>
0

>  <PEOE_VSA6>
32.07

>  <PEOE_VSA7>
42.88

>  <PEOE_VSA8>
12.97

>  <PEOE_VSA9>
7.11

>  <PEOE_VSA10>
0

>  <PEOE_VSA11>
11.5

>  <PEOE_VSA12>
5.91

>  <PEOE_VSA13>
0

>  <SMR_VSA1>
14.64

>  <SMR_VSA2>
0

>  <SMR_VSA3>
5.32

>  <SMR_VSA4>
5.92

>  <SMR_VSA5>
46.08

>  <SMR_VSA6>
7.11

>  <SMR_VSA7>
35.91

>  <SMR_VSA8>
0

>  <SMR_VSA9>
11.5

>  <SlogP_VSA1>
10.05

>  <SlogP_VSA2>
18.12

>  <SlogP_VSA3>
11.34

>  <SlogP_VSA4>
5.92

>  <SlogP_VSA5>
45.09

>  <SlogP_VSA6>
30.35

>  <SlogP_VSA7>
0

>  <SlogP_VSA8>
0

>  <SlogP_VSA9>
0

>  <SlogP_VSA10>
0

>  <SlogP_VSA11>
11.5

>  <EState_VSA1>
0

>  <EState_VSA2>
11.66

>  <EState_VSA3>
24.63

>  <EState_VSA4>
24.83

>  <EState_VSA5>
7.11

>  <EState_VSA6>
18.2

>  <EState_VSA7>
0

>  <EState_VSA8>
31.32

>  <EState_VSA9>
4.74

>  <EState_VSA10>
9.9

>  <VSA_EState1>
5.04

>  <VSA_EState2>
11.77

>  <VSA_EState3>
12.4

>  <VSA_EState4>
0.91

>  <VSA_EState5>
1.17

>  <VSA_EState6>
5.07

>  <VSA_EState7>
7.88

>  <VSA_EState8>
4.76

>  <VSA_EState9>
1.51

>  <apol>
51.57

>  <bpol>
30.26

>  <nRing>
1

>  <nHRing>
0

>  <naRing>
1

>  <naHRing>
0

>  <nARing 2>
0

>  <nAHRing 2>
0

>  <nFRing>
0

>  <nFHRing>
0

>  <nFaRing>
0

>  <nFaHRing>
0

>  <nFARing 2>
0

>  <nFAHRing 2>
0

>  <nRot>
9

>  <SLogP>
3.79

>  <SMR>
88.95

>  <TopoPSA(NO)>
58.56

>  <TopoPSA>
58.56

>  <JGI1>
0.2

>  <JGI2>
0.07

>  <JGI3>
0.04

>  <JGI4>
0.04

>  <JGI5>
0.02

>  <Diameter>
15

>  <Radius>
8

>  <TMWC10>
113.71

>  <TSRW10>
54.58

>  <MW>
305.2

>  <AMW>
6.23

>  <WPath>
1411

>  <WPol>
26

>  <Zagreb1>
98

>  <Zagreb2>
105

>  <mZagreb2>
5.19

>  <yes>


>  <nAR-cont>
0.336376

>  <nHA-cont>
0.983774276

>  <MWHBN>
0.286205345

>  <MWHBN-cont>
0.87989854

>  <TPSA-cont>
0.591214836

>  <pka_cont>
0.97

>  <yes.1>


>  <BBB_SCORE>
4.307427758

>  <MMFF94 Energy>
8.1524

$$$$
Compound 2642
Actelion Java MolfileCreator 2.0

  0  0  0  0  0  0              0 V3000
M  V30 BEGIN CTAB
M  V30 COUNTS 27 27 0 0 0
M  V30 BEGIN ATOM
M  V30 1 O 1.8779 -0.2345 1.9562 0
M  V30 2 C 0.7135 -0.5687 2.1034 0
M  V30 3 O 0.0247 -0.1319 3.1883 0
M  V30 4 C -0.142 -1.4572 1.1759 0 CFG=1
M  V30 5 N -0.8586 -2.4583 2.0233 0
M  V30 6 C -1.1848 -0.5876 0.4273 0
M  V30 7 C 0.7617 -2.2527 0.2293 0
M  V30 8 C -0.6316 0.4234 -0.5524 0
M  V30 9 C -0.241 1.6998 -0.121 0
M  V30 10 C -0.5037 0.0984 -1.911 0
M  V30 11 C 0.277 2.629 -1.0265 0
M  V30 12 C 0.0115 1.0275 -2.8158 0
M  V30 13 C 0.3997 2.2831 -2.3675 0
M  V30 14 O 0.9008 3.1587 -3.2846 0
M  V30 15 H 0.7055 0.3543 3.6993 0
M  V30 16 H -1.5702 -2.9315 1.4696 0
M  V30 17 H -1.3515 -1.9472 2.7601 0
M  V30 18 H -1.8825 -1.2401 -0.117 0
M  V30 19 H -1.8122 -0.0473 1.1507 0
M  V30 20 H 1.4006 -1.5951 -0.3699 0
M  V30 21 H 0.1761 -2.8745 -0.4574 0
M  V30 22 H 1.4366 -2.9134 0.7876 0
M  V30 23 H -0.3373 1.9828 0.9249 0
M  V30 24 H -0.8013 -0.8816 -2.2766 0
M  V30 25 H 0.5764 3.6087 -0.6682 0
M  V30 26 H 0.1122 0.7712 -3.8665 0
M  V30 27 H 1.1599 3.9729 -2.8234 0
M  V30 END ATOM
M  V30 BEGIN BOND
M  V30 1 2 1 2
M  V30 2 1 2 3
M  V30 3 1 2 4
M  V30 4 1 4 5
M  V30 5 1 4 6
M  V30 6 1 4 7
M  V30 7 1 6 8
M  V30 8 2 8 9
M  V30 9 1 8 10
M  V30 10 1 9 11
M  V30 11 2 10 12
M  V30 12 2 11 13
M  V30 13 1 13 14
M  V30 14 1 12 13
M  V30 15 1 3 15
M  V30 16 1 5 16
M  V30 17 1 5 17
M  V30 18 1 6 18
M  V30 19 1 6 19
M  V30 20 1 7 20
M  V30 21 1 7 21
M  V30 22 1 7 22
M  V30 23 1 9 23
M  V30 24 1 10 24
M  V30 25 1 11 25
M  V30 26 1 12 26
M  V30 27 1 14 27
M  V30 END BOND
M  V30 BEGIN COLLECTION
M  V30 MDLV30/STEABS ATOMS=(1 4)
M  V30 END COLLECTION
M  V30 END CTAB
M  END
>  <Column 1>
3307

>  <level_0>
5511

>  <index>
5512

>  <Unnamed: 0>
5512

>  <NO.>
5524

>  <Name>
metyrosine

>  <IUPAC_name>
(2s)-2-amino-3-(4-hydroxyphenyl)-2-methylpropanoic acid

>  <SMILES>
C[C@](N)(Cc1ccc(O)cc1)C(=O)O

>  <CID>
441350

>  <logBB>


>  <BBB+/BBB->
BBB-

>  <Inchi>
InChI=1S/C10H13NO3/c1-10(11-9(13)14)6-7-2-4-8(12)5-3-7/h2-5-12H-6-11H2-1H3-(H-13-14)/t10-/m0/s1

>  <threshold>


>  <reference>
R15|

>  <group>
C

>  <Class>
-1

>  <ABC>
10.48

>  <ABCGG>
9.69

>  <nAcid>
1

>  <nBase>
1

>  <nAromAtom>
6

>  <nAromBond>
6

>  <nAtom>
27

>  <nHeavyAtom>
14

>  <nSpiro>
0

>  <nBridgehead>
0

>  <nHetero>
4

>  <nN>
1

>  <nO>
3

>  <nF>
0

>  <BalabanJ>
2.37

>  <BertzCT>
329.73

>  <nBonds>
27

>  <nBondsO>
14

>  <nBondsS>
20

>  <nBondsD>
1

>  <nBondsT>
0

>  <nBondsA>
6

>  <nBondsM>
7

>  <nBondsKS>
23

>  <nBondsKD>
4

>  <RNCG>
0.28

>  <RPCG>
0.18

>  <FCSP3>
0.3

>  <SZ>
17.33

>  <Sm>
16.25

>  <Sv>
16.42

>  <Sse>
27.43

>  <Sp>
17.29

>  <Si>
30.62

>  <MZ>
0.64

>  <Mm>
0.6

>  <Mv>
0.61

>  <Mse>
1.02

>  <Mp>
0.64

>  <Mi>
1.13

>  <NsCH3>
1

>  <NdCH2>
0

>  <NssCH2>
1

>  <NtCH>
0

>  <NdsCH>
0

>  <NaaCH>
4

>  <NsssCH>
0

>  <NddC>
0

>  <NtsC>
0

>  <NdssC>
1

>  <NaasC>
2

>  <NaaaC>
0

>  <NssssC>
1

>  <NsNH3>
0

>  <NsNH2>
1

>  <NssNH2>
0

>  <NdNH>
0

>  <NssNH>
0

>  <NaaNH>
0

>  <NtN>
0

>  <NsssNH>
0

>  <NdsN>
0

>  <NaaN>
0

>  <NsssN>
0

>  <NddsN>
0

>  <NaasN>
0

>  <NssssN>
0

>  <NsOH>
2

>  <NdO>
1

>  <NssO>
0

>  <NaaO>
0

>  <NsF>
0

>  <NsSiH3>
0

>  <NssSiH2>
0

>  <NsssSiH>
0

>  <NssssSi>
0

>  <NsPH2>
0

>  <NssPH>
0

>  <NsssP>
0

>  <NdsssP>
0

>  <NsssssP>
0

>  <NsSH>
0

>  <NdS>
0

>  <NssS>
0

>  <NaaS>
0

>  <NdssS>
0

>  <NddssS>
0

>  <NsCl>
0

>  <NsBr>
0

>  <NsI>
0

>  <fragCpx>
14.04

>  <fMF>
0.22

>  <nHBAcc>
3

>  <nHBDon>
3

>  <Kier1>
12.07

>  <Kier2>
4.68

>  <Lipinski>
1

>  <GhoseFilter>
1

>  <FilterItLogS>
-1.08

>  <VMcGowan>
151.29

>  <LabuteASA>
81.98

>  <PEOE_VSA1>
15.95

>  <PEOE_VSA2>
4.79

>  <PEOE_VSA3>
0

>  <PEOE_VSA4>
0

>  <PEOE_VSA5>
0

>  <PEOE_VSA6>
12.13

>  <PEOE_VSA7>
24.62

>  <PEOE_VSA8>
6.42

>  <PEOE_VSA9>
0

>  <PEOE_VSA10>
11.29

>  <PEOE_VSA11>
0

>  <PEOE_VSA12>
0

>  <PEOE_VSA13>
0

>  <SMR_VSA1>
15.01

>  <SMR_VSA2>
0

>  <SMR_VSA3>
0

>  <SMR_VSA4>
5.73

>  <SMR_VSA5>
18.88

>  <SMR_VSA6>
0

>  <SMR_VSA7>
29.83

>  <SMR_VSA8>
0

>  <SMR_VSA9>
5.75

>  <SlogP_VSA1>
5.73

>  <SlogP_VSA2>
21.72

>  <SlogP_VSA3>
11.22

>  <SlogP_VSA4>
0

>  <SlogP_VSA5>
12.49

>  <SlogP_VSA6>
24.27

>  <SlogP_VSA7>
0

>  <SlogP_VSA8>
0

>  <SlogP_VSA9>
0

>  <SlogP_VSA10>
0

>  <SlogP_VSA11>
5.75

>  <EState_VSA1>
11.51

>  <EState_VSA2>
12.17

>  <EState_VSA3>
0

>  <EState_VSA4>
5.56

>  <EState_VSA5>
19.06

>  <EState_VSA6>
12.13

>  <EState_VSA7>
0

>  <EState_VSA8>
0

>  <EState_VSA9>
15.95

>  <EState_VSA10>
4.79

>  <VSA_EState1>
0

>  <VSA_EState2>
10.72

>  <VSA_EState3>
17.8

>  <VSA_EState4>
5.09

>  <VSA_EState5>
-0.88

>  <VSA_EState6>
6.33

>  <VSA_EState7>
0.24

>  <VSA_EState8>
1.46

>  <VSA_EState9>
0

>  <apol>
28.87

>  <bpol>
13.34

>  <nRing>
1

>  <nHRing>
0

>  <naRing>
1

>  <naHRing>
0

>  <nARing 2>
0

>  <nAHRing 2>
0

>  <nFRing>
0

>  <nFHRing>
0

>  <nFaRing>
0

>  <nFaHRing>
0

>  <nFARing 2>
0

>  <nFAHRing 2>
0

>  <nRot>
3

>  <SLogP>
0.74

>  <SMR>
52.04

>  <TopoPSA(NO)>
83.55

>  <TopoPSA>
83.55

>  <JGI1>
0.36

>  <JGI2>
0.11

>  <JGI3>
0.04

>  <JGI4>
0.07

>  <JGI5>
0.03

>  <Diameter>
8

>  <Radius>
4

>  <TMWC10>
95.83

>  <TSRW10>
45.41

>  <MW>
195.09

>  <AMW>
7.23

>  <WPath>
315

>  <WPol>
18

>  <Zagreb1>
68

>  <Zagreb2>
75

>  <mZagreb2>
3.04

>  <yes>


>  <nAR-cont>
0.336376

>  <nHA-cont>
0.887625254

>  <MWHBN>
0.429569804

>  <MWHBN-cont>
0.36134269

>  <TPSA-cont>
0.416769119

>  <pka_cont>
0.97

>  <yes.1>


>  <BBB_SCORE>
3.084553526

>  <MMFF94 Energy>
46.21

$$$$
Compound 2643
Actelion Java MolfileCreator 2.0

  0  0  0  0  0  0              0 V3000
M  V30 BEGIN CTAB
M  V30 COUNTS 50 49 0 0 0
M  V30 BEGIN ATOM
M  V30 1 O 0.5427 -0.6203 1.0857 0
M  V30 2 C 0.8076 -1.1947 0.0396 0
M  V30 3 O 2.0668 -1.5453 -0.3572 0
M  V30 4 C -0.2084 -1.6518 -0.9792 0
M  V30 5 C 3.1017 -1.0996 0.5356 0
M  V30 6 C -1.5667 -0.9938 -0.7461 0
M  V30 7 C 4.4865 -1.3481 -0.0833 0
M  V30 8 C -1.5226 0.4845 -1.0497 0
M  V30 9 N 4.9638 -2.8237 -0.0742 0 CHG=1
M  V30 10 O -0.5518 1.0853 -1.4858 0
M  V30 11 O -2.7332 1.0578 -0.7805 0
M  V30 12 C 5.1646 -3.3389 1.3467 0
M  V30 13 C 6.3188 -2.876 -0.7939 0
M  V30 14 C 3.999 -3.7379 -0.8179 0
M  V30 15 C -2.7933 2.459 -1.0986 0
M  V30 16 C -4.2168 2.9961 -0.8803 0
M  V30 17 N -4.6236 3.2131 0.6006 0 CHG=1
M  V30 18 C -4.5116 1.9309 1.4151 0
M  V30 19 C -6.0915 3.6614 0.6164 0
M  V30 20 C -3.7887 4.3086 1.2546 0
M  V30 21 H -0.3063 -2.7387 -0.8879 0
M  V30 22 H 0.1621 -1.4128 -1.9823 0
M  V30 23 H 2.9933 -1.595 1.5048 0
M  V30 24 H 2.9925 -0.0176 0.6815 0
M  V30 25 H -2.3052 -1.4509 -1.4137 0
M  V30 26 H -1.8919 -1.1302 0.291 0
M  V30 27 H 4.4904 -1.0312 -1.1328 0
M  V30 28 H 5.2456 -0.7804 0.4667 0
M  V30 29 H 5.6118 -4.3361 1.2927 0
M  V30 30 H 5.8296 -2.6492 1.8743 0
M  V30 31 H 4.1936 -3.397 1.8439 0
M  V30 32 H 7.0169 -2.2237 -0.2608 0
M  V30 33 H 6.6784 -3.9092 -0.7847 0
M  V30 34 H 6.1762 -2.5305 -1.8221 0
M  V30 35 H 4.4644 -4.7234 -0.9172 0
M  V30 36 H 3.0783 -3.8294 -0.2366 0
M  V30 37 H 3.8035 -3.3081 -1.8044 0
M  V30 38 H -2.5496 2.5805 -2.1612 0
M  V30 39 H -2.0561 3.0086 -0.5059 0
M  V30 40 H -4.9496 2.2973 -1.3002 0
M  V30 41 H -4.3259 3.9701 -1.3707 0
M  V30 42 H -4.9596 2.1063 2.3982 0
M  V30 43 H -5.0486 1.1369 0.8886 0
M  V30 44 H -3.4552 1.6803 1.5383 0
M  V30 45 H -6.699 2.8678 0.1713 0
M  V30 46 H -6.3917 3.8351 1.6542 0
M  V30 47 H -6.1758 4.5843 0.0348 0
M  V30 48 H -4.1923 4.5008 2.2535 0
M  V30 49 H -2.7542 3.967 1.3347 0
M  V30 50 H -3.853 5.2087 0.6365 0
M  V30 END ATOM
M  V30 BEGIN BOND
M  V30 1 2 1 2
M  V30 2 1 2 3
M  V30 3 1 2 4
M  V30 4 1 3 5
M  V30 5 1 4 6
M  V30 6 1 5 7
M  V30 7 1 6 8
M  V30 8 1 7 9
M  V30 9 2 8 10
M  V30 10 1 8 11
M  V30 11 1 9 12
M  V30 12 1 9 13
M  V30 13 1 9 14
M  V30 14 1 11 15
M  V30 15 1 15 16
M  V30 16 1 16 17
M  V30 17 1 17 18
M  V30 18 1 17 19
M  V30 19 1 17 20
M  V30 20 1 4 21
M  V30 21 1 4 22
M  V30 22 1 5 23
M  V30 23 1 5 24
M  V30 24 1 6 25
M  V30 25 1 6 26
M  V30 26 1 7 27
M  V30 27 1 7 28
M  V30 28 1 12 29
M  V30 29 1 12 30
M  V30 30 1 12 31
M  V30 31 1 13 32
M  V30 32 1 13 33
M  V30 33 1 13 34
M  V30 34 1 14 35
M  V30 35 1 14 36
M  V30 36 1 14 37
M  V30 37 1 15 38
M  V30 38 1 15 39
M  V30 39 1 16 40
M  V30 40 1 16 41
M  V30 41 1 18 42
M  V30 42 1 18 43
M  V30 43 1 18 44
M  V30 44 1 19 45
M  V30 45 1 19 46
M  V30 46 1 19 47
M  V30 47 1 20 48
M  V30 48 1 20 49
M  V30 49 1 20 50
M  V30 END BOND
M  V30 END CTAB
M  END
>  <Column 1>
3308

>  <level_0>
5514

>  <index>
5515

>  <Unnamed: 0>
5515

>  <NO.>
5527

>  <Name>
succinylcholine

>  <IUPAC_name>
trimethyl-[2-[4-oxo-4-[2-(trimethylazaniumyl)ethoxy]butanoyl]oxyethyl]azanium;dichloride

>  <SMILES>
C[N+](C)(C)CCOC(=O)CCC(=O)OCC[N+](C)(C)C

>  <CID>
5314

>  <logBB>


>  <BBB+/BBB->
BBB-

>  <Inchi>
InChI=1S/C14H30N2O4/c1-15(2-3)9-11-19-13(17)7-8-14(18)20-12-10-16(4-5)6/h7-12H2-1-6H3/q+2

>  <threshold>


>  <reference>
R15|R23|

>  <group>
C

>  <Class>
-1

>  <ABC>
14.61

>  <ABCGG>
12.92

>  <nAcid>
0

>  <nBase>
2

>  <nAromAtom>
0

>  <nAromBond>
0

>  <nAtom>
50

>  <nHeavyAtom>
20

>  <nSpiro>
0

>  <nBridgehead>
0

>  <nHetero>
6

>  <nN>
2

>  <nO>
4

>  <nF>
0

>  <BalabanJ>
3.6

>  <BertzCT>
284.12

>  <nBonds>
49

>  <nBondsO>
19

>  <nBondsS>
47

>  <nBondsD>
2

>  <nBondsT>
0

>  <nBondsA>
0

>  <nBondsM>
2

>  <nBondsKS>
47

>  <nBondsKD>
2

>  <RNCG>
0.22

>  <RPCG>
0.08

>  <FCSP3>
0.86

>  <SZ>
26.67

>  <Sm>
24.18

>  <Sv>
26.5

>  <Sse>
49.97

>  <Sp>
29.22

>  <Si>
57.65

>  <MZ>
0.53

>  <Mm>
0.48

>  <Mv>
0.53

>  <Mse>
1

>  <Mp>
0.58

>  <Mi>
1.15

>  <NsCH3>
6

>  <NdCH2>
0

>  <NssCH2>
6

>  <NtCH>
0

>  <NdsCH>
0

>  <NaaCH>
0

>  <NsssCH>
0

>  <NddC>
0

>  <NtsC>
0

>  <NdssC>
2

>  <NaasC>
0

>  <NaaaC>
0

>  <NssssC>
0

>  <NsNH3>
0

>  <NsNH2>
0

>  <NssNH2>
0

>  <NdNH>
0

>  <NssNH>
0

>  <NaaNH>
0

>  <NtN>
0

>  <NsssNH>
0

>  <NdsN>
0

>  <NaaN>
0

>  <NsssN>
0

>  <NddsN>
0

>  <NaasN>
0

>  <NssssN>
2

>  <NsOH>
0

>  <NdO>
2

>  <NssO>
2

>  <NaaO>
0

>  <NsF>
0

>  <NsSiH3>
0

>  <NssSiH2>
0

>  <NsssSiH>
0

>  <NssssSi>
0

>  <NsPH2>
0

>  <NssPH>
0

>  <NsssP>
0

>  <NdsssP>
0

>  <NsssssP>
0

>  <NsSH>
0

>  <NdS>
0

>  <NssS>
0

>  <NaaS>
0

>  <NdssS>
0

>  <NddssS>
0

>  <NsCl>
0

>  <NsBr>
0

>  <NsI>
0

>  <fragCpx>
19.06

>  <fMF>
0

>  <nHBAcc>
4

>  <nHBDon>
0

>  <Kier1>
20

>  <Kier2>
9.11

>  <Lipinski>
1

>  <GhoseFilter>
1

>  <FilterItLogS>
-4.12

>  <VMcGowan>
247.26

>  <LabuteASA>
121.97

>  <PEOE_VSA1>
18.44

>  <PEOE_VSA2>
9.59

>  <PEOE_VSA3>
0

>  <PEOE_VSA4>
0

>  <PEOE_VSA5>
0

>  <PEOE_VSA6>
0

>  <PEOE_VSA7>
0

>  <PEOE_VSA8>
0

>  <PEOE_VSA9>
55.13

>  <PEOE_VSA10>
26.3

>  <PEOE_VSA11>
0

>  <PEOE_VSA12>
0

>  <PEOE_VSA13>
0

>  <SMR_VSA1>
28.03

>  <SMR_VSA2>
0

>  <SMR_VSA3>
0

>  <SMR_VSA4>
0

>  <SMR_VSA5>
12.84

>  <SMR_VSA6>
68.59

>  <SMR_VSA7>
0

>  <SMR_VSA8>
0

>  <SMR_VSA9>
0

>  <SlogP_VSA1>
0

>  <SlogP_VSA2>
89.49

>  <SlogP_VSA3>
19.06

>  <SlogP_VSA4>
0

>  <SlogP_VSA5>
12.84

>  <SlogP_VSA6>
0

>  <SlogP_VSA7>
0

>  <SlogP_VSA8>
0

>  <SlogP_VSA9>
0

>  <SlogP_VSA10>
0

>  <SlogP_VSA11>
0

>  <EState_VSA1>
0

>  <EState_VSA2>
24.78

>  <EState_VSA3>
13.21

>  <EState_VSA4>
22.06

>  <EState_VSA5>
0

>  <EState_VSA6>
0

>  <EState_VSA7>
42.29

>  <EState_VSA8>
0

>  <EState_VSA9>
9.47

>  <EState_VSA10>
9.59

>  <VSA_EState1>
11.6

>  <VSA_EState2>
22.85

>  <VSA_EState3>
0

>  <VSA_EState4>
0

>  <VSA_EState5>
-0.69

>  <VSA_EState6>
0

>  <VSA_EState7>
0.17

>  <VSA_EState8>
2.25

>  <VSA_EState9>
12.16

>  <apol>
48.79

>  <bpol>
39.86

>  <nRing>
0

>  <nHRing>
0

>  <naRing>
0

>  <naHRing>
0

>  <nARing 2>
0

>  <nAHRing 2>
0

>  <nFRing>
0

>  <nFHRing>
0

>  <nFaRing>
0

>  <nFaHRing>
0

>  <nFARing 2>
0

>  <nFAHRing 2>
0

>  <nRot>
9

>  <SLogP>
0.27

>  <SMR>
76.95

>  <TopoPSA(NO)>
52.6

>  <TopoPSA>
52.6

>  <JGI1>
0.39

>  <JGI2>
0.08

>  <JGI3>
0.05

>  <JGI4>
0.04

>  <JGI5>
0.04

>  <Diameter>
13

>  <Radius>
7

>  <TMWC10>
106.96

>  <TSRW10>
52.11

>  <MW>
290.22

>  <AMW>
5.8

>  <WPath>
1078

>  <WPol>
19

>  <Zagreb1>
90

>  <Zagreb2>
90

>  <mZagreb2>
4.33

>  <yes>


>  <nAR-cont>
0.336376

>  <nHA-cont>
0.999629945

>  <MWHBN>
0.234799043

>  <MWHBN-cont>
0.981544127

>  <TPSA-cont>
0.632819337

>  <pka_cont>
0.97

>  <yes.1>


>  <BBB_SCORE>
4.55896081

>  <MMFF94 Energy>
58.538

$$$$
Compound 2644
Actelion Java MolfileCreator 2.0

  0  0  0  0  0  0              0 V3000
M  V30 BEGIN CTAB
M  V30 COUNTS 30 30 0 0 0
M  V30 BEGIN ATOM
M  V30 1 Br 3.4224 3.3427 -3.9007 0
M  V30 2 C 2.4109 2.3566 -2.654 0
M  V30 3 C 1.0475 2.1964 -2.8117 0
M  V30 4 C 3.0183 1.7758 -1.5478 0
M  V30 5 N 0.2707 1.5085 -1.9448 0
M  V30 6 C 2.2457 1.0393 -0.6374 0
M  V30 7 C 0.8726 0.9218 -0.8897 0
M  V30 8 C 2.9026 0.4062 0.5534 0
M  V30 9 N 0.0659 0.2499 0.0346 0
M  V30 10 C -0.9529 -0.6089 -0.3291 0
M  V30 11 O -1.1622 -0.9975 -1.4756 0
M  V30 12 C -1.8016 -1.1124 0.8609 0
M  V30 13 C -2.416 0.0767 1.6157 0
M  V30 14 C -2.9442 -2.0009 0.3367 0
M  V30 15 C -0.9273 -1.9461 1.8099 0
M  V30 16 H 0.5151 2.6262 -3.655 0
M  V30 17 H 4.0886 1.8879 -1.3947 0
M  V30 18 H 2.5729 0.8983 1.4738 0
M  V30 19 H 3.9934 0.489 0.5015 0
M  V30 20 H 2.6605 -0.6603 0.6039 0
M  V30 21 H 0.278 0.3889 1.0089 0
M  V30 22 H -2.982 0.7229 0.9349 0
M  V30 23 H -3.098 -0.2638 2.403 0
M  V30 24 H -1.652 0.6987 2.0944 0
M  V30 25 H -3.5896 -1.4489 -0.3563 0
M  V30 26 H -2.5554 -2.8733 -0.201 0
M  V30 27 H -3.5718 -2.3684 1.1565 0
M  V30 28 H -0.1455 -1.3433 2.2843 0
M  V30 29 H -0.4278 -2.7588 1.2702 0
M  V30 30 H -1.5271 -2.3917 2.6115 0
M  V30 END ATOM
M  V30 BEGIN BOND
M  V30 1 1 1 2
M  V30 2 2 2 3
M  V30 3 1 2 4
M  V30 4 1 3 5
M  V30 5 2 4 6
M  V30 6 2 5 7
M  V30 7 1 6 8
M  V30 8 1 7 9
M  V30 9 1 9 10
M  V30 10 2 10 11
M  V30 11 1 10 12
M  V30 12 1 12 13
M  V30 13 1 12 14
M  V30 14 1 12 15
M  V30 15 1 6 7
M  V30 16 1 3 16
M  V30 17 1 4 17
M  V30 18 1 8 18
M  V30 19 1 8 19
M  V30 20 1 8 20
M  V30 21 1 9 21
M  V30 22 1 13 22
M  V30 23 1 13 23
M  V30 24 1 13 24
M  V30 25 1 14 25
M  V30 26 1 14 26
M  V30 27 1 14 27
M  V30 28 1 15 28
M  V30 29 1 15 29
M  V30 30 1 15 30
M  V30 END BOND
M  V30 END CTAB
M  END
>  <Column 1>
3309

>  <level_0>
5515

>  <index>
5516

>  <Unnamed: 0>
5516

>  <NO.>
5528

>  <Name>
mivacuriumchloride

>  <IUPAC_name>
n-(5-bromo-3-methylpyridin-2-yl)-2-2-dimethylpropanamide

>  <SMILES>
Cc1cc(Br)cnc1NC(=O)C(C)(C)C

>  <CID>
42553022

>  <logBB>


>  <BBB+/BBB->
BBB-

>  <Inchi>
InChI=1S/C11H15BrN2O/c1-7-5-8(12)6-13-9(7)14-10(15)11(2-3)4/h5-6H-1-4H3-(H-13-14-15)

>  <threshold>


>  <reference>
R15|

>  <group>
C

>  <Class>
-1

>  <ABC>
11.31

>  <ABCGG>
10.49

>  <nAcid>
0

>  <nBase>
0

>  <nAromAtom>
6

>  <nAromBond>
6

>  <nAtom>
30

>  <nHeavyAtom>
15

>  <nSpiro>
0

>  <nBridgehead>
0

>  <nHetero>
4

>  <nN>
2

>  <nO>
1

>  <nF>
0

>  <BalabanJ>
2.45

>  <BertzCT>
382.66

>  <nBonds>
30

>  <nBondsO>
15

>  <nBondsS>
23

>  <nBondsD>
1

>  <nBondsT>
0

>  <nBondsA>
6

>  <nBondsM>
7

>  <nBondsKS>
26

>  <nBondsKD>
4

>  <RNCG>
0.28

>  <RPCG>
0.21

>  <FCSP3>
0.45

>  <SZ>
23

>  <Sm>
22.58

>  <Sv>
18.58

>  <Sse>
29.99

>  <Sp>
20.61

>  <Si>
33.95

>  <MZ>
0.77

>  <Mm>
0.75

>  <Mv>
0.62

>  <Mse>
1

>  <Mp>
0.69

>  <Mi>
1.13

>  <NsCH3>
4

>  <NdCH2>
0

>  <NssCH2>
0

>  <NtCH>
0

>  <NdsCH>
0

>  <NaaCH>
2

>  <NsssCH>
0

>  <NddC>
0

>  <NtsC>
0

>  <NdssC>
1

>  <NaasC>
3

>  <NaaaC>
0

>  <NssssC>
1

>  <NsNH3>
0

>  <NsNH2>
0

>  <NssNH2>
0

>  <NdNH>
0

>  <NssNH>
1

>  <NaaNH>
0

>  <NtN>
0

>  <NsssNH>
0

>  <NdsN>
0

>  <NaaN>
1

>  <NsssN>
0

>  <NddsN>
0

>  <NaasN>
0

>  <NssssN>
0

>  <NsOH>
0

>  <NdO>
1

>  <NssO>
0

>  <NaaO>
0

>  <NsF>
0

>  <NsSiH3>
0

>  <NssSiH2>
0

>  <NsssSiH>
0

>  <NssssSi>
0

>  <NsPH2>
0

>  <NssPH>
0

>  <NsssP>
0

>  <NdsssP>
0

>  <NsssssP>
0

>  <NsSH>
0

>  <NdS>
0

>  <NssS>
0

>  <NaaS>
0

>  <NdssS>
0

>  <NddssS>
0

>  <NsCl>
0

>  <NsBr>
1

>  <NsI>
0

>  <fragCpx>
15.04

>  <fMF>
0.2

>  <nHBAcc>
2

>  <nHBDon>
1

>  <Kier1>
13.07

>  <Kier2>
4.89

>  <Lipinski>
1

>  <GhoseFilter>
1

>  <FilterItLogS>
-4.17

>  <VMcGowan>
181.12

>  <LabuteASA>
98.42

>  <PEOE_VSA1>
5.32

>  <PEOE_VSA2>
4.79

>  <PEOE_VSA3>
4.98

>  <PEOE_VSA4>
0

>  <PEOE_VSA5>
0

>  <PEOE_VSA6>
20.77

>  <PEOE_VSA7>
34.48

>  <PEOE_VSA8>
16.08

>  <PEOE_VSA9>
0

>  <PEOE_VSA10>
5.82

>  <PEOE_VSA11>
0

>  <PEOE_VSA12>
5.91

>  <PEOE_VSA13>
0

>  <SMR_VSA1>
4.79

>  <SMR_VSA2>
0

>  <SMR_VSA3>
4.98

>  <SMR_VSA4>
5.41

>  <SMR_VSA5>
27.69

>  <SMR_VSA6>
5.32

>  <SMR_VSA7>
22.3

>  <SMR_VSA8>
0

>  <SMR_VSA9>
0

>  <SlogP_VSA1>
5.32

>  <SlogP_VSA2>
10.89

>  <SlogP_VSA3>
4.79

>  <SlogP_VSA4>
12.34

>  <SlogP_VSA5>
26.33

>  <SlogP_VSA6>
16.74

>  <SlogP_VSA7>
0

>  <SlogP_VSA8>
0

>  <SlogP_VSA9>
0

>  <SlogP_VSA10>
5.82

>  <SlogP_VSA11>
0

>  <EState_VSA1>
5.41

>  <EState_VSA2>
5.91

>  <EState_VSA3>
5.82

>  <EState_VSA4>
10.04

>  <EState_VSA5>
0

>  <EState_VSA6>
6.2

>  <EState_VSA7>
33.76

>  <EState_VSA8>
26.23

>  <EState_VSA9>
0

>  <EState_VSA10>
4.79

>  <VSA_EState1>
0.91

>  <VSA_EState2>
15.86

>  <VSA_EState3>
2.81

>  <VSA_EState4>
0.54

>  <VSA_EState5>
0.6

>  <VSA_EState6>
1.92

>  <VSA_EState7>
1.67

>  <VSA_EState8>
7.53

>  <VSA_EState9>
0

>  <apol>
34.42

>  <bpol>
19.01

>  <nRing>
1

>  <nHRing>
1

>  <naRing>
1

>  <naHRing>
1

>  <nARing 2>
0

>  <nAHRing 2>
0

>  <nFRing>
0

>  <nFHRing>
0

>  <nFaRing>
0

>  <nFaHRing>
0

>  <nFARing 2>
0

>  <nFAHRing 2>
0

>  <nRot>
1

>  <SLogP>
3.14

>  <SMR>
64.76

>  <TopoPSA(NO)>
41.99

>  <TopoPSA>
41.99

>  <JGI1>
0.37

>  <JGI2>
0.11

>  <JGI3>
0.05

>  <JGI4>
0.07

>  <JGI5>
0.04

>  <Diameter>
8

>  <Radius>
4

>  <TMWC10>
98.86

>  <TSRW10>
46.88

>  <MW>
270.04

>  <AMW>
9

>  <WPath>
376

>  <WPol>
20

>  <Zagreb1>
74

>  <Zagreb2>
82

>  <mZagreb2>
3.19

>  <yes>


>  <nAR-cont>
0.336376

>  <nHA-cont>
0.92539861

>  <MWHBN>
0.182560663

>  <MWHBN-cont>
0.989775404

>  <TPSA-cont>
0.706883726

>  <pka_cont>
0.97

>  <yes.1>


>  <BBB_SCORE>
4.645205168

>  <MMFF94 Energy>
0.22775

$$$$
Compound 2645
Actelion Java MolfileCreator 2.0

  0  0  0  0  0  0              0 V3000
M  V30 BEGIN CTAB
M  V30 COUNTS 32 33 0 0 0
M  V30 BEGIN ATOM
M  V30 1 O -2.1367 1.1866 3.6425 0
M  V30 2 C -1.6288 0.4084 2.838 0
M  V30 3 N -1.1554 0.7903 1.6003 0
M  V30 4 C -1.4872 -1.0342 3.1513 0
M  V30 5 O -1.2822 2.1597 1.2772 0
M  V30 6 C -0.5743 -0.0373 0.6575 0
M  V30 7 C -0.9304 -1.8607 2.2505 0
M  V30 8 C -0.4662 -1.3447 0.9714 0
M  V30 9 C -0.1199 0.5746 -0.6654 0
M  V30 10 C -0.7566 -3.3284 2.4999 0
M  V30 11 C 1.2498 1.2616 -0.5026 0
M  V30 12 C -0.0683 -0.4111 -1.8527 0
M  V30 13 C 1.6949 1.9493 -1.7929 0
M  V30 14 C 0.3566 0.2901 -3.1425 0
M  V30 15 C 1.7021 0.989 -2.9775 0
M  V30 16 H -1.8512 -1.3566 4.1179 0
M  V30 17 H -1.7074 2.5096 2.0882 0
M  V30 18 H -0.0207 -2.0587 0.2865 0
M  V30 19 H -0.8571 1.3378 -0.9532 0
M  V30 20 H -1.2992 -3.9133 1.7494 0
M  V30 21 H -1.1348 -3.6216 3.4854 0
M  V30 22 H 0.3025 -3.6036 2.4562 0
M  V30 23 H 2.0056 0.5206 -0.2101 0
M  V30 24 H 1.2172 2.0081 0.2997 0
M  V30 25 H -1.0518 -0.8733 -2.0011 0
M  V30 26 H 0.6444 -1.2207 -1.6535 0
M  V30 27 H 2.6965 2.3728 -1.6569 0
M  V30 28 H 1.0211 2.7879 -2.0078 0
M  V30 29 H 0.4196 -0.4417 -3.9556 0
M  V30 30 H -0.4063 1.0237 -3.4305 0
M  V30 31 H 1.9493 1.5357 -3.8944 0
M  V30 32 H 2.4878 0.2375 -2.8318 0
M  V30 END ATOM
M  V30 BEGIN BOND
M  V30 1 2 1 2
M  V30 2 1 2 3
M  V30 3 1 2 4
M  V30 4 1 3 5
M  V30 5 1 3 6
M  V30 6 2 4 7
M  V30 7 2 6 8
M  V30 8 1 6 9
M  V30 9 1 7 10
M  V30 10 1 9 11
M  V30 11 1 9 12
M  V30 12 1 11 13
M  V30 13 1 12 14
M  V30 14 1 13 15
M  V30 15 1 7 8
M  V30 16 1 14 15
M  V30 17 1 4 16
M  V30 18 1 5 17
M  V30 19 1 8 18
M  V30 20 1 9 19
M  V30 21 1 10 20
M  V30 22 1 10 21
M  V30 23 1 10 22
M  V30 24 1 11 23
M  V30 25 1 11 24
M  V30 26 1 12 25
M  V30 27 1 12 26
M  V30 28 1 13 27
M  V30 29 1 13 28
M  V30 30 1 14 29
M  V30 31 1 14 30
M  V30 32 1 15 31
M  V30 33 1 15 32
M  V30 END BOND
M  V30 END CTAB
M  END
>  <Column 1>
3311

>  <level_0>
5517

>  <index>
5518

>  <Unnamed: 0>
5518

>  <NO.>
5530

>  <Name>
ciclopirox

>  <IUPAC_name>
6-cyclohexyl-1-hydroxy-4-methylpyridin-2-one

>  <SMILES>
Cc1cc(C2CCCCC2)n(O)c(=O)c1

>  <CID>
2749

>  <logBB>


>  <BBB+/BBB->
BBB-

>  <Inchi>
InChI=1S/C12H17NO2/c1-9-7-11(13(15)12(14)8-9)10-5-3-2-4-6-10/h7-8-10-15H-2-6H2-1H3

>  <threshold>


>  <reference>
R15|

>  <group>
C

>  <Class>
-1

>  <ABC>
11.52

>  <ABCGG>
10.11

>  <nAcid>
0

>  <nBase>
0

>  <nAromAtom>
6

>  <nAromBond>
6

>  <nAtom>
32

>  <nHeavyAtom>
15

>  <nSpiro>
0

>  <nBridgehead>
0

>  <nHetero>
3

>  <nN>
1

>  <nO>
2

>  <nF>
0

>  <BalabanJ>
1.98

>  <BertzCT>
402.57

>  <nBonds>
33

>  <nBondsO>
16

>  <nBondsS>
26

>  <nBondsD>
1

>  <nBondsT>
0

>  <nBondsA>
6

>  <nBondsM>
7

>  <nBondsKS>
30

>  <nBondsKD>
3

>  <RNCG>
0.35

>  <RPCG>
0.27

>  <FCSP3>
0.58

>  <SZ>
18.67

>  <Sm>
17.26

>  <Sv>
18.79

>  <Sse>
31.87

>  <Sp>
20.41

>  <Si>
36.24

>  <MZ>
0.58

>  <Mm>
0.54

>  <Mv>
0.59

>  <Mse>
1

>  <Mp>
0.64

>  <Mi>
1.13

>  <NsCH3>
1

>  <NdCH2>
0

>  <NssCH2>
5

>  <NtCH>
0

>  <NdsCH>
0

>  <NaaCH>
2

>  <NsssCH>
1

>  <NddC>
0

>  <NtsC>
0

>  <NdssC>
0

>  <NaasC>
2

>  <NaaaC>
0

>  <NssssC>
0

>  <NsNH3>
0

>  <NsNH2>
0

>  <NssNH2>
0

>  <NdNH>
0

>  <NssNH>
0

>  <NaaNH>
0

>  <NtN>
0

>  <NsssNH>
0

>  <NdsN>
0

>  <NaaN>
0

>  <NsssN>
0

>  <NddsN>
0

>  <NaasN>
1

>  <NssssN>
0

>  <NsOH>
1

>  <NdO>
1

>  <NssO>
0

>  <NaaO>
0

>  <NsF>
0

>  <NsSiH3>
0

>  <NssSiH2>
0

>  <NsssSiH>
0

>  <NssssSi>
0

>  <NsPH2>
0

>  <NssPH>
0

>  <NsssP>
0

>  <NdsssP>
0

>  <NsssssP>
0

>  <NsSH>
0

>  <NdS>
0

>  <NssS>
0

>  <NaaS>
0

>  <NdssS>
0

>  <NddssS>
0

>  <NsCl>
0

>  <NsBr>
0

>  <NsI>
0

>  <fragCpx>
46.03

>  <fMF>
0.38

>  <nHBAcc>
3

>  <nHBDon>
1

>  <Kier1>
11.48

>  <Kier2>
4.89

>  <Lipinski>
1

>  <GhoseFilter>
1

>  <FilterItLogS>
-2.06

>  <VMcGowan>
167.04

>  <LabuteASA>
89.32

>  <PEOE_VSA1>
5.21

>  <PEOE_VSA2>
4.79

>  <PEOE_VSA3>
0

>  <PEOE_VSA4>
4.73

>  <PEOE_VSA5>
0

>  <PEOE_VSA6>
19.26

>  <PEOE_VSA7>
31.4

>  <PEOE_VSA8>
11.98

>  <PEOE_VSA9>
5.69

>  <PEOE_VSA10>
0

>  <PEOE_VSA11>
0

>  <PEOE_VSA12>
0

>  <PEOE_VSA13>
5.56

>  <SMR_VSA1>
5.21

>  <SMR_VSA2>
0

>  <SMR_VSA3>
4.73

>  <SMR_VSA4>
0

>  <SMR_VSA5>
44.95

>  <SMR_VSA6>
0

>  <SMR_VSA7>
33.74

>  <SMR_VSA8>
0

>  <SMR_VSA9>
0

>  <SlogP_VSA1>
5.56

>  <SlogP_VSA2>
9.94

>  <SlogP_VSA3>
0

>  <SlogP_VSA4>
6.92

>  <SlogP_VSA5>
49.28

>  <SlogP_VSA6>
16.93

>  <SlogP_VSA7>
0

>  <SlogP_VSA8>
0

>  <SlogP_VSA9>
0

>  <SlogP_VSA10>
0

>  <SlogP_VSA11>
0

>  <EState_VSA1>
0

>  <EState_VSA2>
5.56

>  <EState_VSA3>
5.92

>  <EState_VSA4>
28.83

>  <EState_VSA5>
25.33

>  <EState_VSA6>
0

>  <EState_VSA7>
12.99

>  <EState_VSA8>
0

>  <EState_VSA9>
0

>  <EState_VSA10>
10

>  <VSA_EState1>
0.82

>  <VSA_EState2>
11.42

>  <VSA_EState3>
9.68

>  <VSA_EState4>
1.42

>  <VSA_EState5>
0.36

>  <VSA_EState6>
3.39

>  <VSA_EState7>
5.85

>  <VSA_EState8>
1.9

>  <VSA_EState9>
0

>  <apol>
34.08

>  <bpol>
18.49

>  <nRing>
2

>  <nHRing>
1

>  <naRing>
1

>  <naHRing>
1

>  <nARing 2>
1

>  <nAHRing 2>
0

>  <nFRing>
0

>  <nFHRing>
0

>  <nFaRing>
0

>  <nFaHRing>
0

>  <nFARing 2>
0

>  <nFAHRing 2>
0

>  <nRot>
1

>  <SLogP>
2.44

>  <SMR>
58.45

>  <TopoPSA(NO)>
42.23

>  <TopoPSA>
42.23

>  <JGI1>
0.19

>  <JGI2>
0.08

>  <JGI3>
0.05

>  <JGI4>
0.05

>  <JGI5>
0.03

>  <Diameter>
7

>  <Radius>
4

>  <TMWC10>
100.96

>  <TSRW10>
47.09

>  <MW>
207.13

>  <AMW>
6.47

>  <WPath>
348

>  <WPol>
22

>  <Zagreb1>
76

>  <Zagreb2>
88

>  <mZagreb2>
3.33

>  <yes>


>  <nAR-cont>
0.816016

>  <nHA-cont>
0.92539861

>  <MWHBN>
0.277931959

>  <MWHBN-cont>
0.901263792

>  <TPSA-cont>
0.705208377

>  <pka_cont>
0.97

>  <yes.1>


>  <BBB_SCORE>
4.988727053

>  <MMFF94 Energy>
39.171

$$$$
Compound 2646
Actelion Java MolfileCreator 2.0

  0  0  0  0  0  0              0 V3000
M  V30 BEGIN CTAB
M  V30 COUNTS 94 97 0 0 0
M  V30 BEGIN ATOM
M  V30 1 O -0.3157 -3.6362 3.9528 0
M  V30 2 C 0.6591 -4.0931 3.3666 0
M  V30 3 N 0.6941 -4.3798 2.0197 0
M  V30 4 N 1.8015 -4.319 4.0691 0
M  V30 5 C -0.5363 -4.2741 1.1958 0 CFG=2
M  V30 6 C 1.9099 -4.8403 1.355 0
M  V30 7 C 3.0558 -4.748 3.5103 0
M  V30 8 C -1.2114 -2.8742 1.208 0
M  V30 9 C -1.4786 -5.4966 1.359 0
M  V30 10 C 2.8227 -5.607 2.2918 0
M  V30 11 O -2.3718 -2.6786 0.8461 0
M  V30 12 N -0.3424 -1.8255 1.4138 0
M  V30 13 C -2.367 -5.4675 2.6031 0
M  V30 14 C -2.3466 -5.71 0.111 0
M  V30 15 C -0.7338 -0.419 1.3834 0 CFG=1
M  V30 16 C -0.0867 0.3459 2.5646 0
M  V30 17 C -0.4194 0.2323 0.0188 0
M  V30 18 C 1.4176 0.2277 2.6926 0
M  V30 19 C -1.4933 -0.017 -1.057 0 CFG=2
M  V30 20 C 1.9693 -0.6083 3.6744 0
M  V30 21 C 2.2828 0.9414 1.854 0
M  V30 22 O -1.4837 -1.3929 -1.4482 0
M  V30 23 C -1.2986 0.847 -2.3366 0 CFG=1
M  V30 24 C 3.3526 -0.7304 3.8105 0
M  V30 25 C 3.6668 0.8151 1.9876 0
M  V30 26 N -1.5444 2.2747 -2.1135 0
M  V30 27 C 0.0863 0.6226 -2.9922 0
M  V30 28 C 4.2015 -0.0206 2.9653 0
M  V30 29 C -2.8066 2.7944 -1.9224 0
M  V30 30 C 0.267 1.3836 -4.29 0
M  V30 31 O -3.7957 2.0981 -1.7125 0
M  V30 32 C -2.8889 4.3225 -2.0633 0
M  V30 33 C -0.4437 1.009 -5.4378 0
M  V30 34 C 1.1362 2.4825 -4.3562 0
M  V30 35 O -2.5502 5.1329 -0.9462 0
M  V30 36 C -0.2938 1.7241 -6.6266 0
M  V30 37 C 1.2844 3.196 -5.5464 0
M  V30 38 C -1.2392 5.0326 -0.5624 0
M  V30 39 C 0.5685 2.8175 -6.6804 0
M  V30 40 C -0.9761 4.3962 0.6636 0
M  V30 41 C -0.2013 5.6218 -1.305 0
M  V30 42 C 0.3508 4.2695 1.0927 0
M  V30 43 C -2.0869 3.8216 1.4985 0
M  V30 44 C 1.1196 5.459 -0.861 0
M  V30 45 C -0.4421 6.4206 -2.5542 0
M  V30 46 C 1.394 4.785 0.3274 0
M  V30 47 H 1.7377 -4.0811 5.0508 0
M  V30 48 H -0.163 -4.3173 0.1606 0
M  V30 49 H 2.413 -3.955 0.9491 0
M  V30 50 H 1.6395 -5.4921 0.5168 0
M  V30 51 H 3.6312 -3.8511 3.2588 0
M  V30 52 H 3.6007 -5.2987 4.2829 0
M  V30 53 H -0.8452 -6.391 1.4414 0
M  V30 54 H 2.3424 -6.5487 2.5857 0
M  V30 55 H 3.7687 -5.854 1.7997 0
M  V30 56 H 0.6173 -2.0596 1.6416 0
M  V30 57 H -2.9537 -4.5468 2.6698 0
M  V30 58 H -3.071 -6.3073 2.5941 0
M  V30 59 H -1.775 -5.5708 3.5156 0
M  V30 60 H -1.731 -5.7502 -0.7935 0
M  V30 61 H -2.8882 -6.66 0.1799 0
M  V30 62 H -3.0899 -4.9177 -0.0147 0
M  V30 63 H -1.8183 -0.3638 1.5431 0
M  V30 64 H -0.5419 -0.0193 3.4957 0
M  V30 65 H -0.3539 1.4083 2.5156 0
M  V30 66 H 0.5492 -0.1425 -0.3319 0
M  V30 67 H -0.3344 1.3152 0.1567 0
M  V30 68 H -2.4827 0.1955 -0.6361 0
M  V30 69 H 1.3183 -1.1702 4.3432 0
M  V30 70 H 1.8903 1.6059 1.0894 0
M  V30 71 H -2.0598 -1.8557 -0.8002 0
M  V30 72 H -2.0628 0.519 -3.0552 0
M  V30 73 H 3.7652 -1.3764 4.5806 0
M  V30 74 H 4.3283 1.3743 1.3311 0
M  V30 75 H -0.7688 2.9185 -2.215 0
M  V30 76 H 0.247 -0.4436 -3.1939 0
M  V30 77 H 0.8816 0.9277 -2.3012 0
M  V30 78 H 5.2789 -0.1124 3.0729 0
M  V30 79 H -2.3276 4.6182 -2.9562 0
M  V30 80 H -3.936 4.5503 -2.2988 0
M  V30 81 H -1.1213 0.1577 -5.4112 0
M  V30 82 H 1.7052 2.7904 -3.4819 0
M  V30 83 H -0.8507 1.4263 -7.5113 0
M  V30 84 H 1.9611 4.0451 -5.5909 0
M  V30 85 H 0.6851 3.3715 -7.6082 0
M  V30 86 H 0.5787 3.7766 2.0356 0
M  V30 87 H -1.756 3.6423 2.5271 0
M  V30 88 H -2.4232 2.87 1.0763 0
M  V30 89 H -2.9334 4.5138 1.5528 0
M  V30 90 H 1.9443 5.8878 -1.427 0
M  V30 91 H 0.2881 7.2329 -2.6401 0
M  V30 92 H -1.4311 6.8895 -2.5459 0
M  V30 93 H -0.3523 5.7789 -3.4357 0
M  V30 94 H 2.4201 4.6868 0.6732 0
M  V30 END ATOM
M  V30 BEGIN BOND
M  V30 1 2 1 2
M  V30 2 1 2 3
M  V30 3 1 2 4
M  V30 4 1 3 5
M  V30 5 1 3 6
M  V30 6 1 4 7
M  V30 7 1 5 8
M  V30 8 1 5 9
M  V30 9 1 6 10
M  V30 10 2 8 11
M  V30 11 1 8 12
M  V30 12 1 9 13
M  V30 13 1 9 14
M  V30 14 1 12 15
M  V30 15 1 15 16
M  V30 16 1 15 17
M  V30 17 1 16 18
M  V30 18 1 17 19
M  V30 19 2 18 20
M  V30 20 1 18 21
M  V30 21 1 19 22
M  V30 22 1 19 23
M  V30 23 1 20 24
M  V30 24 2 21 25
M  V30 25 1 23 26
M  V30 26 1 23 27
M  V30 27 2 24 28
M  V30 28 1 26 29
M  V30 29 1 27 30
M  V30 30 2 29 31
M  V30 31 1 29 32
M  V30 32 2 30 33
M  V30 33 1 30 34
M  V30 34 1 32 35
M  V30 35 1 33 36
M  V30 36 2 34 37
M  V30 37 1 35 38
M  V30 38 2 36 39
M  V30 39 2 38 40
M  V30 40 1 38 41
M  V30 41 1 40 42
M  V30 42 1 40 43
M  V30 43 2 41 44
M  V30 44 1 41 45
M  V30 45 2 42 46
M  V30 46 1 7 10
M  V30 47 1 25 28
M  V30 48 1 37 39
M  V30 49 1 44 46
M  V30 50 1 4 47
M  V30 51 1 5 48
M  V30 52 1 6 49
M  V30 53 1 6 50
M  V30 54 1 7 51
M  V30 55 1 7 52
M  V30 56 1 9 53
M  V30 57 1 10 54
M  V30 58 1 10 55
M  V30 59 1 12 56
M  V30 60 1 13 57
M  V30 61 1 13 58
M  V30 62 1 13 59
M  V30 63 1 14 60
M  V30 64 1 14 61
M  V30 65 1 14 62
M  V30 66 1 15 63
M  V30 67 1 16 64
M  V30 68 1 16 65
M  V30 69 1 17 66
M  V30 70 1 17 67
M  V30 71 1 19 68
M  V30 72 1 20 69
M  V30 73 1 21 70
M  V30 74 1 22 71
M  V30 75 1 23 72
M  V30 76 1 24 73
M  V30 77 1 25 74
M  V30 78 1 26 75
M  V30 79 1 27 76
M  V30 80 1 27 77
M  V30 81 1 28 78
M  V30 82 1 32 79
M  V30 83 1 32 80
M  V30 84 1 33 81
M  V30 85 1 34 82
M  V30 86 1 36 83
M  V30 87 1 37 84
M  V30 88 1 39 85
M  V30 89 1 42 86
M  V30 90 1 43 87
M  V30 91 1 43 88
M  V30 92 1 43 89
M  V30 93 1 44 90
M  V30 94 1 45 91
M  V30 95 1 45 92
M  V30 96 1 45 93
M  V30 97 1 46 94
M  V30 END BOND
M  V30 BEGIN COLLECTION
M  V30 MDLV30/STEABS ATOMS=(4 5 15 19 23)
M  V30 END COLLECTION
M  V30 END CTAB
M  END
>  <Column 1>
3313

>  <level_0>
5519

>  <index>
5520

>  <Unnamed: 0>
5520

>  <NO.>
5532

>  <Name>
lopinavir

>  <IUPAC_name>
(2s)-n-[(2s-4s-5s)-5-[[2-(2-6-dimethylphenoxy)acetyl]amino]-4-hydroxy-1-6-diphenylhexan-2-yl]-3-methyl-2-(2-oxo-1-3-diazinan-1-yl)butanamide

>  <SMILES>
Cc1cccc(C)c1OCC(=O)N[C@@H](Cc1ccccc1)[C@@H](O)C[C@H](Cc1ccccc1)NC(=O)[C@H](C(C)C)N1CCCNC1=O

>  <CID>
92727

>  <logBB>


>  <BBB+/BBB->
BBB-

>  <Inchi>
InChI=1S/C37H48N4O5/c1-25(2)34(41-20-12-19-38-37(41)45)36(44)39-30(21-28-15-7-5-8-16-28)23-32(42)31(22-29-17-9-6-10-18-29)40-33(43)24-46-35-26(3)13-11-14-27(35)4/h5-11-13-18-25-30-32-34-42H-12-19-24H2-1-4H3-(H-38-45)(H-39-44)(H-40-43)/t30--31--32--34-/m0/s1

>  <threshold>


>  <reference>
R15|R23|

>  <group>
C

>  <Class>
1

>  <ABC>
35.24

>  <ABCGG>
27.72

>  <nAcid>
0

>  <nBase>
0

>  <nAromAtom>
18

>  <nAromBond>
18

>  <nAtom>
94

>  <nHeavyAtom>
46

>  <nSpiro>
0

>  <nBridgehead>
0

>  <nHetero>
9

>  <nN>
4

>  <nO>
5

>  <nF>
0

>  <BalabanJ>
1.44

>  <BertzCT>
1411.94

>  <nBonds>
97

>  <nBondsO>
49

>  <nBondsS>
76

>  <nBondsD>
3

>  <nBondsT>
0

>  <nBondsA>
18

>  <nBondsM>
21

>  <nBondsKS>
85

>  <nBondsKD>
12

>  <RNCG>
0.12

>  <RPCG>
0.08

>  <FCSP3>
0.43

>  <SZ>
56.33

>  <Sm>
52.35

>  <Sv>
56.61

>  <Sse>
93.61

>  <Sp>
61.2

>  <Si>
106.18

>  <MZ>
0.6

>  <Mm>
0.56

>  <Mv>
0.6

>  <Mse>
1

>  <Mp>
0.65

>  <Mi>
1.13

>  <NsCH3>
4

>  <NdCH2>
0

>  <NssCH2>
7

>  <NtCH>
0

>  <NdsCH>
0

>  <NaaCH>
13

>  <NsssCH>
5

>  <NddC>
0

>  <NtsC>
0

>  <NdssC>
3

>  <NaasC>
5

>  <NaaaC>
0

>  <NssssC>
0

>  <NsNH3>
0

>  <NsNH2>
0

>  <NssNH2>
0

>  <NdNH>
0

>  <NssNH>
3

>  <NaaNH>
0

>  <NtN>
0

>  <NsssNH>
0

>  <NdsN>
0

>  <NaaN>
0

>  <NsssN>
1

>  <NddsN>
0

>  <NaasN>
0

>  <NssssN>
0

>  <NsOH>
1

>  <NdO>
3

>  <NssO>
1

>  <NaaO>
0

>  <NsF>
0

>  <NsSiH3>
0

>  <NssSiH2>
0

>  <NsssSiH>
0

>  <NssssSi>
0

>  <NsPH2>
0

>  <NssPH>
0

>  <NsssP>
0

>  <NdsssP>
0

>  <NsssssP>
0

>  <NsSH>
0

>  <NdS>
0

>  <NssS>
0

>  <NaaS>
0

>  <NdssS>
0

>  <NddssS>
0

>  <NsCl>
0

>  <NsBr>
0

>  <NsI>
0

>  <fragCpx>
331.09

>  <fMF>
0.39

>  <nHBAcc>
5

>  <nHBDon>
4

>  <Kier1>
38.8

>  <Kier2>
20

>  <Lipinski>
0

>  <GhoseFilter>
0

>  <FilterItLogS>
-8.09

>  <VMcGowan>
506.42

>  <LabuteASA>
272.28

>  <PEOE_VSA1>
30.69

>  <PEOE_VSA2>
9.59

>  <PEOE_VSA3>
4.79

>  <PEOE_VSA4>
0

>  <PEOE_VSA5>
0

>  <PEOE_VSA6>
92.71

>  <PEOE_VSA7>
67.7

>  <PEOE_VSA8>
19.13

>  <PEOE_VSA9>
12.15

>  <PEOE_VSA10>
11.79

>  <PEOE_VSA11>
6.61

>  <PEOE_VSA12>
5.91

>  <PEOE_VSA13>
5.91

>  <SMR_VSA1>
24.23

>  <SMR_VSA2>
0

>  <SMR_VSA3>
20.85

>  <SMR_VSA4>
5.92

>  <SMR_VSA5>
77.61

>  <SMR_VSA6>
19.7

>  <SMR_VSA7>
101.12

>  <SMR_VSA8>
0

>  <SMR_VSA9>
5.75

>  <SlogP_VSA1>
20.69

>  <SlogP_VSA2>
71.78

>  <SlogP_VSA3>
22.43

>  <SlogP_VSA4>
19.77

>  <SlogP_VSA5>
48.94

>  <SlogP_VSA6>
78.86

>  <SlogP_VSA7>
0

>  <SlogP_VSA8>
0

>  <SlogP_VSA9>
0

>  <SlogP_VSA10>
4.79

>  <SlogP_VSA11>
5.75

>  <EState_VSA1>
24.23

>  <EState_VSA2>
36.79

>  <EState_VSA3>
31.68

>  <EState_VSA4>
28.67

>  <EState_VSA5>
0

>  <EState_VSA6>
4.9

>  <EState_VSA7>
106.56

>  <EState_VSA8>
15.95

>  <EState_VSA9>
4.74

>  <EState_VSA10>
19.49

>  <VSA_EState1>
5.9

>  <VSA_EState2>
41.33

>  <VSA_EState3>
20.74

>  <VSA_EState4>
3.84

>  <VSA_EState5>
-0.05

>  <VSA_EState6>
23.28

>  <VSA_EState7>
0.83

>  <VSA_EState8>
8.63

>  <VSA_EState9>
0

>  <apol>
102.21

>  <bpol>
55.91

>  <nRing>
4

>  <nHRing>
1

>  <naRing>
3

>  <naHRing>
0

>  <nARing 2>
1

>  <nAHRing 2>
1

>  <nFRing>
0

>  <nFHRing>
0

>  <nFaRing>
0

>  <nFaHRing>
0

>  <nFARing 2>
0

>  <nFAHRing 2>
0

>  <nRot>
15

>  <SLogP>
4.33

>  <SMR>
179.54

>  <TopoPSA(NO)>
120

>  <TopoPSA>
120

>  <JGI1>
0.18

>  <JGI2>
0.07

>  <JGI3>
0.05

>  <JGI4>
0.04

>  <JGI5>
0.02

>  <Diameter>
18

>  <Radius>
9

>  <TMWC10>
174.46

>  <TSRW10>
83.36

>  <MW>
628.36

>  <AMW>
6.68

>  <WPath>
8131

>  <WPol>
70

>  <Zagreb1>
230

>  <Zagreb2>
263

>  <mZagreb2>
10.28

>  <yes>


>  <nAR-cont>
0.816016

>  <nHA-cont>
0

>  <MWHBN>
0.359036204

>  <MWHBN-cont>
0.63610228

>  <TPSA-cont>
0.162325484

>  <pka_cont>
0.97

>  <yes.1>


>  <BBB_SCORE>
2.57982039

>  <MMFF94 Energy>
34.148

$$$$
Compound 2647
Actelion Java MolfileCreator 2.0

  0  0  0  0  0  0              0 V3000
M  V30 BEGIN CTAB
M  V30 COUNTS 65 68 0 0 0
M  V30 BEGIN ATOM
M  V30 1 F 3.9161 -0.6385 -9.7722 0
M  V30 2 C 3.0614 -0.3893 -8.7721 0
M  V30 3 C 2.0398 0.5331 -8.9565 0
M  V30 4 C 3.2102 -1.0581 -7.5622 0
M  V30 5 C 1.15 0.7909 -7.9113 0
M  V30 6 C 2.3214 -0.8028 -6.513 0
M  V30 7 C 1.2829 0.1246 -6.6818 0
M  V30 8 C 0.3033 0.4383 -5.5947 0
M  V30 9 O -0.5509 1.2992 -5.7936 0
M  V30 10 C 0.4084 -0.3169 -4.2799 0
M  V30 11 C -0.7077 0.0608 -3.302 0
M  V30 12 C -0.5521 -0.6948 -1.9754 0
M  V30 13 N -1.6892 -0.4951 -1.067 0
M  V30 14 C -1.7977 0.861 -0.5198 0
M  V30 15 C -1.72 -1.471 0.026 0
M  V30 16 C -0.7485 1.1949 0.5494 0
M  V30 17 C -0.6098 -1.2577 1.0595 0
M  V30 18 C -0.6512 0.152 1.7116 0
M  V30 19 C 0.6106 0.5328 2.5261 0
M  V30 20 C -1.9252 0.2491 2.6204 0
M  V30 21 C 0.6315 1.7541 3.2351 0
M  V30 22 C 1.7554 -0.277 2.5954 0
M  V30 23 O -2.8684 0.9821 2.3003 0
M  V30 24 N -2.0246 -0.5016 3.7776 0
M  V30 25 C 1.7476 2.1568 3.9823 0
M  V30 26 C 2.8663 0.1106 3.3496 0
M  V30 27 C -3.2579 -0.4716 4.5529 0
M  V30 28 C -1.0014 -1.2649 4.4816 0
M  V30 29 C 2.861 1.3177 4.0441 0
M  V30 30 C 1.7184 3.4442 4.7518 0
M  V30 31 C -2.9054 -1.1096 5.8887 0
M  V30 32 C -1.7755 -2.06 5.5232 0
M  V30 33 H 1.9399 1.0458 -9.9081 0
M  V30 34 H 4.0182 -1.7738 -7.4439 0
M  V30 35 H 0.3503 1.5152 -8.0599 0
M  V30 36 H 2.4641 -1.3383 -5.5793 0
M  V30 37 H 0.3508 -1.3909 -4.4892 0
M  V30 38 H 1.3789 -0.0863 -3.8263 0
M  V30 39 H -0.6807 1.1434 -3.1341 0
M  V30 40 H -1.6815 -0.1699 -3.7523 0
M  V30 41 H -0.4816 -1.7633 -2.2176 0
M  V30 42 H 0.3992 -0.4181 -1.5067 0
M  V30 43 H -2.8063 0.9792 -0.108 0
M  V30 44 H -1.7495 1.6122 -1.3154 0
M  V30 45 H -2.7002 -1.4298 0.518 0
M  V30 46 H -1.6491 -2.4879 -0.3799 0
M  V30 47 H 0.2301 1.2873 0.0582 0
M  V30 48 H -0.9785 2.1942 0.9422 0
M  V30 49 H 0.3491 -1.4182 0.5532 0
M  V30 50 H -0.691 -2.0551 1.8018 0
M  V30 51 H -0.2414 2.4074 3.2113 0
M  V30 52 H 1.8135 -1.23 2.0791 0
M  V30 53 H 3.7405 -0.5341 3.3959 0
M  V30 54 H -3.6326 0.5504 4.667 0
M  V30 55 H -4.0049 -1.063 4.0117 0
M  V30 56 H -0.4209 -1.909 3.824 0
M  V30 57 H -0.3294 -0.5533 4.9727 0
M  V30 58 H 3.7321 1.6006 4.6304 0
M  V30 59 H 2.7284 3.8478 4.8794 0
M  V30 60 H 1.2768 3.2795 5.7395 0
M  V30 61 H 1.1313 4.2016 4.2218 0
M  V30 62 H -3.7573 -1.6132 6.3535 0
M  V30 63 H -2.537 -0.3454 6.5838 0
M  V30 64 H -1.1599 -2.3429 6.3813 0
M  V30 65 H -2.1864 -2.9722 5.0742 0
M  V30 END ATOM
M  V30 BEGIN BOND
M  V30 1 1 1 2
M  V30 2 2 2 3
M  V30 3 1 2 4
M  V30 4 1 3 5
M  V30 5 2 4 6
M  V30 6 2 5 7
M  V30 7 1 7 8
M  V30 8 2 8 9
M  V30 9 1 8 10
M  V30 10 1 10 11
M  V30 11 1 11 12
M  V30 12 1 12 13
M  V30 13 1 13 14
M  V30 14 1 13 15
M  V30 15 1 14 16
M  V30 16 1 15 17
M  V30 17 1 16 18
M  V30 18 1 18 19
M  V30 19 1 18 20
M  V30 20 2 19 21
M  V30 21 1 19 22
M  V30 22 2 20 23
M  V30 23 1 20 24
M  V30 24 1 21 25
M  V30 25 2 22 26
M  V30 26 1 24 27
M  V30 27 1 24 28
M  V30 28 2 25 29
M  V30 29 1 25 30
M  V30 30 1 27 31
M  V30 31 1 28 32
M  V30 32 1 6 7
M  V30 33 1 17 18
M  V30 34 1 26 29
M  V30 35 1 31 32
M  V30 36 1 3 33
M  V30 37 1 4 34
M  V30 38 1 5 35
M  V30 39 1 6 36
M  V30 40 1 10 37
M  V30 41 1 10 38
M  V30 42 1 11 39
M  V30 43 1 11 40
M  V30 44 1 12 41
M  V30 45 1 12 42
M  V30 46 1 14 43
M  V30 47 1 14 44
M  V30 48 1 15 45
M  V30 49 1 15 46
M  V30 50 1 16 47
M  V30 51 1 16 48
M  V30 52 1 17 49
M  V30 53 1 17 50
M  V30 54 1 21 51
M  V30 55 1 22 52
M  V30 56 1 26 53
M  V30 57 1 27 54
M  V30 58 1 27 55
M  V30 59 1 28 56
M  V30 60 1 28 57
M  V30 61 1 29 58
M  V30 62 1 30 59
M  V30 63 1 30 60
M  V30 64 1 30 61
M  V30 65 1 31 62
M  V30 66 1 31 63
M  V30 67 1 32 64
M  V30 68 1 32 65
M  V30 END BOND
M  V30 END CTAB
M  END
>  <Column 1>
3314

>  <level_0>
5520

>  <index>
5521

>  <Unnamed: 0>
5521

>  <NO.>
5533

>  <Name>
meperidide

>  <IUPAC_name>
1-(4-fluorophenyl)-4-[4-(3-methylphenyl)-4-(pyrrolidine-1-carbonyl)piperidin-1-yl]butan-1-one

>  <SMILES>
Cc1cccc(C2(C(=O)N3CCCC3)CCN(CCCC(=O)c3ccc(F)cc3)CC2)c1

>  <CID>
3034126

>  <logBB>


>  <BBB+/BBB->
BBB+

>  <Inchi>
InChI=1S/C27H33FN2O2/c1-21-6-4-7-23(20-21)27(26(32)30-16-2-3-17-30)13-18-29(19-14-27)15-5-8-25(31)22-9-11-24(28)12-10-22/h4-6-7-9-12-20H-2-3-5-8-13-19H2-1H3

>  <threshold>


>  <reference>
R15|

>  <group>
C

>  <Class>
-1

>  <ABC>
24.98

>  <ABCGG>
19.06

>  <nAcid>
0

>  <nBase>
1

>  <nAromAtom>
12

>  <nAromBond>
12

>  <nAtom>
65

>  <nHeavyAtom>
32

>  <nSpiro>
0

>  <nBridgehead>
0

>  <nHetero>
5

>  <nN>
2

>  <nO>
2

>  <nF>
1

>  <BalabanJ>
1.28

>  <BertzCT>
942.38

>  <nBonds>
68

>  <nBondsO>
35

>  <nBondsS>
54

>  <nBondsD>
2

>  <nBondsT>
0

>  <nBondsA>
12

>  <nBondsM>
14

>  <nBondsKS>
60

>  <nBondsKD>
8

>  <RNCG>
0.17

>  <RPCG>
0.11

>  <FCSP3>
0.48

>  <SZ>
39

>  <Sm>
36.35

>  <Sv>
39.53

>  <Sse>
64.59

>  <Sp>
42.79

>  <Si>
73.4

>  <MZ>
0.6

>  <Mm>
0.56

>  <Mv>
0.61

>  <Mse>
0.99

>  <Mp>
0.66

>  <Mi>
1.13

>  <NsCH3>
1

>  <NdCH2>
0

>  <NssCH2>
11

>  <NtCH>
0

>  <NdsCH>
0

>  <NaaCH>
8

>  <NsssCH>
0

>  <NddC>
0

>  <NtsC>
0

>  <NdssC>
2

>  <NaasC>
4

>  <NaaaC>
0

>  <NssssC>
1

>  <NsNH3>
0

>  <NsNH2>
0

>  <NssNH2>
0

>  <NdNH>
0

>  <NssNH>
0

>  <NaaNH>
0

>  <NtN>
0

>  <NsssNH>
0

>  <NdsN>
0

>  <NaaN>
0

>  <NsssN>
2

>  <NddsN>
0

>  <NaasN>
0

>  <NssssN>
0

>  <NsOH>
0

>  <NdO>
2

>  <NssO>
0

>  <NaaO>
0

>  <NsF>
1

>  <NsSiH3>
0

>  <NssSiH2>
0

>  <NsssSiH>
0

>  <NssssSi>
0

>  <NsPH2>
0

>  <NssPH>
0

>  <NsssP>
0

>  <NdsssP>
0

>  <NsssssP>
0

>  <NsSH>
0

>  <NdS>
0

>  <NssS>
0

>  <NaaS>
0

>  <NdssS>
0

>  <NddssS>
0

>  <NsCl>
0

>  <NsBr>
0

>  <NsI>
0

>  <fragCpx>
233.05

>  <fMF>
0.43

>  <nHBAcc>
3

>  <nHBDon>
0

>  <Kier1>
25.1

>  <Kier2>
11.62

>  <Lipinski>
1

>  <GhoseFilter>
1

>  <FilterItLogS>
-6.53

>  <VMcGowan>
346.91

>  <LabuteASA>
189.96

>  <PEOE_VSA1>
9.8

>  <PEOE_VSA2>
9.59

>  <PEOE_VSA3>
4.39

>  <PEOE_VSA4>
0

>  <PEOE_VSA5>
0

>  <PEOE_VSA6>
29.83

>  <PEOE_VSA7>
88.49

>  <PEOE_VSA8>
25.07

>  <PEOE_VSA9>
5.41

>  <PEOE_VSA10>
5.82

>  <PEOE_VSA11>
5.78

>  <PEOE_VSA12>
5.91

>  <PEOE_VSA13>
0

>  <SMR_VSA1>
13.98

>  <SMR_VSA2>
0

>  <SMR_VSA3>
9.8

>  <SMR_VSA4>
0

>  <SMR_VSA5>
50.86

>  <SMR_VSA6>
32.72

>  <SMR_VSA7>
71.04

>  <SMR_VSA8>
0

>  <SMR_VSA9>
0

>  <SlogP_VSA1>
0

>  <SlogP_VSA2>
54.21

>  <SlogP_VSA3>
10.21

>  <SlogP_VSA4>
12.74

>  <SlogP_VSA5>
60.01

>  <SlogP_VSA6>
48.53

>  <SlogP_VSA7>
0

>  <SlogP_VSA8>
0

>  <SlogP_VSA9>
0

>  <SlogP_VSA10>
4.39

>  <SlogP_VSA11>
0

>  <EState_VSA1>
5.41

>  <EState_VSA2>
11.6

>  <EState_VSA3>
17.89

>  <EState_VSA4>
70.39

>  <EState_VSA5>
17.7

>  <EState_VSA6>
12.13

>  <EState_VSA7>
0

>  <EState_VSA8>
40.99

>  <EState_VSA9>
0

>  <EState_VSA10>
13.98

>  <VSA_EState1>
13.06

>  <VSA_EState2>
30.47

>  <VSA_EState3>
0

>  <VSA_EState4>
2.48

>  <VSA_EState5>
0.03

>  <VSA_EState6>
14.24

>  <VSA_EState7>
5.06

>  <VSA_EState8>
6.4

>  <VSA_EState9>
0

>  <apol>
71.46

>  <bpol>
39.37

>  <nRing>
4

>  <nHRing>
2

>  <naRing>
2

>  <naHRing>
0

>  <nARing 2>
2

>  <nAHRing 2>
2

>  <nFRing>
0

>  <nFHRing>
0

>  <nFaRing>
0

>  <nFaHRing>
0

>  <nFARing 2>
0

>  <nFAHRing 2>
0

>  <nRot>
7

>  <SLogP>
4.75

>  <SMR>
124.31

>  <TopoPSA(NO)>
40.62

>  <TopoPSA>
40.62

>  <JGI1>
0.2

>  <JGI2>
0.1

>  <JGI3>
0.05

>  <JGI4>
0.03

>  <JGI5>
0.02

>  <Diameter>
16

>  <Radius>
8

>  <TMWC10>
144.79

>  <TSRW10>
81.24

>  <MW>
436.25

>  <AMW>
6.71

>  <WPath>
3271

>  <WPol>
51

>  <Zagreb1>
168

>  <Zagreb2>
198

>  <mZagreb2>
7.06

>  <yes>


>  <nAR-cont>
1

>  <nHA-cont>
0.658856097

>  <MWHBN>
0.14363277

>  <MWHBN-cont>
0.914880388

>  <TPSA-cont>
0.716447176

>  <pka_cont>
0.97

>  <yes.1>


>  <BBB_SCORE>
4.949071032

>  <MMFF94 Energy>
72.955

$$$$
Compound 2648
Actelion Java MolfileCreator 2.0

  0  0  0  0  0  0              0 V3000
M  V30 BEGIN CTAB
M  V30 COUNTS 39 41 0 0 0
M  V30 BEGIN ATOM
M  V30 1 S 2.0054 -0.3206 -2.5674 0
M  V30 2 C 1.5218 0.5651 -1.2262 0
M  V30 3 O 0.7538 -0.0224 -0.2021 0
M  V30 4 N 1.8311 1.9067 -0.9811 0
M  V30 5 C 0.2659 -1.3492 -0.2016 0
M  V30 6 C 1.3954 2.5507 0.2031 0
M  V30 7 C 2.658 2.7127 -1.8772 0
M  V30 8 C -0.9623 -1.6206 -0.7991 0
M  V30 9 C 0.9929 -2.3277 0.4644 0
M  V30 10 C 0.0472 2.8894 0.3572 0
M  V30 11 C 2.3183 2.8666 1.2021 0
M  V30 12 C -1.4732 -2.9256 -0.7634 0
M  V30 13 C 0.4909 -3.6277 0.5041 0
M  V30 14 C -0.3904 3.5313 1.5228 0
M  V30 15 C 1.8908 3.5198 2.3573 0
M  V30 16 C -0.7373 -3.9429 -0.1055 0
M  V30 17 C -2.7006 -3.245 -1.3655 0
M  V30 18 C 0.5442 3.855 2.5147 0
M  V30 19 C -1.8311 3.9178 1.6801 0
M  V30 20 C -1.2534 -5.248 -0.0731 0
M  V30 21 C -3.1976 -4.5485 -1.3229 0
M  V30 22 C -2.4752 -5.5482 -0.678 0
M  V30 23 H 3.6923 2.3603 -1.8148 0
M  V30 24 H 2.3048 2.6044 -2.907 0
M  V30 25 H 2.6164 3.7737 -1.6097 0
M  V30 26 H -1.5093 -0.8207 -1.2887 0
M  V30 27 H 1.9362 -2.0855 0.9429 0
M  V30 28 H -0.6626 2.6491 -0.4302 0
M  V30 29 H 3.3658 2.6026 1.0899 0
M  V30 30 H 1.0632 -4.3971 1.017 0
M  V30 31 H 2.6058 3.7677 3.1375 0
M  V30 32 H -3.2789 -2.478 -1.8758 0
M  V30 33 H 0.227 4.368 3.4203 0
M  V30 34 H -1.9995 4.9136 1.2589 0
M  V30 35 H -2.4849 3.2021 1.1708 0
M  V30 36 H -2.1205 3.9265 2.7362 0
M  V30 37 H -0.7046 -6.0437 0.4254 0
M  V30 38 H -4.1483 -4.7822 -1.7947 0
M  V30 39 H -2.8615 -6.5635 -0.6454 0
M  V30 END ATOM
M  V30 BEGIN BOND
M  V30 1 2 1 2
M  V30 2 1 2 3
M  V30 3 1 2 4
M  V30 4 1 3 5
M  V30 5 1 4 6
M  V30 6 1 4 7
M  V30 7 2 5 8
M  V30 8 1 5 9
M  V30 9 2 6 10
M  V30 10 1 6 11
M  V30 11 1 8 12
M  V30 12 2 9 13
M  V30 13 1 10 14
M  V30 14 2 11 15
M  V30 15 1 12 16
M  V30 16 2 12 17
M  V30 17 2 14 18
M  V30 18 1 14 19
M  V30 19 2 16 20
M  V30 20 1 17 21
M  V30 21 1 20 22
M  V30 22 1 13 16
M  V30 23 1 15 18
M  V30 24 2 21 22
M  V30 25 1 7 23
M  V30 26 1 7 24
M  V30 27 1 7 25
M  V30 28 1 8 26
M  V30 29 1 9 27
M  V30 30 1 10 28
M  V30 31 1 11 29
M  V30 32 1 13 30
M  V30 33 1 15 31
M  V30 34 1 17 32
M  V30 35 1 18 33
M  V30 36 1 19 34
M  V30 37 1 19 35
M  V30 38 1 19 36
M  V30 39 1 20 37
M  V30 40 1 21 38
M  V30 41 1 22 39
M  V30 END BOND
M  V30 END CTAB
M  END
>  <Column 1>
3315

>  <level_0>
5521

>  <index>
5522

>  <Unnamed: 0>
5522

>  <NO.>
5534

>  <Name>
tolnaftate

>  <IUPAC_name>
o-naphthalen-2-yl n-methyl-n-(3-methylphenyl)carbamothioate

>  <SMILES>
Cc1cccc(N(C)C(=S)Oc2ccc3ccccc3c2)c1

>  <CID>
5510

>  <logBB>


>  <BBB+/BBB->
BBB-

>  <Inchi>
InChI=1S/C19H17NOS/c1-14-6-5-9-17(12-14)20(2)19(22)21-18-11-10-15-7-3-4-8-16(15)13-18/h3-13H-1-2H3

>  <threshold>


>  <reference>
R15|

>  <group>
C

>  <Class>
-1

>  <ABC>
17.18

>  <ABCGG>
13.46

>  <nAcid>
0

>  <nBase>
0

>  <nAromAtom>
16

>  <nAromBond>
17

>  <nAtom>
39

>  <nHeavyAtom>
22

>  <nSpiro>
0

>  <nBridgehead>
0

>  <nHetero>
3

>  <nN>
1

>  <nO>
1

>  <nF>
0

>  <BalabanJ>
1.47

>  <BertzCT>
828.29

>  <nBonds>
41

>  <nBondsO>
24

>  <nBondsS>
23

>  <nBondsD>
1

>  <nBondsT>
0

>  <nBondsA>
17

>  <nBondsM>
18

>  <nBondsKS>
32

>  <nBondsKD>
9

>  <RNCG>
0.31

>  <RPCG>
0.19

>  <FCSP3>
0.11

>  <SZ>
27

>  <Sm>
25.59

>  <Sv>
26.27

>  <Sse>
38.62

>  <Sp>
28.66

>  <Si>
42.95

>  <MZ>
0.69

>  <Mm>
0.66

>  <Mv>
0.67

>  <Mse>
0.99

>  <Mp>
0.73

>  <Mi>
1.1

>  <NsCH3>
2

>  <NdCH2>
0

>  <NssCH2>
0

>  <NtCH>
0

>  <NdsCH>
0

>  <NaaCH>
11

>  <NsssCH>
0

>  <NddC>
0

>  <NtsC>
0

>  <NdssC>
1

>  <NaasC>
3

>  <NaaaC>
2

>  <NssssC>
0

>  <NsNH3>
0

>  <NsNH2>
0

>  <NssNH2>
0

>  <NdNH>
0

>  <NssNH>
0

>  <NaaNH>
0

>  <NtN>
0

>  <NsssNH>
0

>  <NdsN>
0

>  <NaaN>
0

>  <NsssN>
1

>  <NddsN>
0

>  <NaasN>
0

>  <NssssN>
0

>  <NsOH>
0

>  <NdO>
0

>  <NssO>
1

>  <NaaO>
0

>  <NsF>
0

>  <NsSiH3>
0

>  <NssSiH2>
0

>  <NsssSiH>
0

>  <NssssSi>
0

>  <NsPH2>
0

>  <NssPH>
0

>  <NsssP>
0

>  <NdsssP>
0

>  <NsssssP>
0

>  <NsSH>
0

>  <NdS>
1

>  <NssS>
0

>  <NaaS>
0

>  <NdssS>
0

>  <NddssS>
0

>  <NsCl>
0

>  <NsBr>
0

>  <NsI>
0

>  <fragCpx>
114.03

>  <fMF>
0.49

>  <nHBAcc>
2

>  <nHBDon>
0

>  <Kier1>
16.84

>  <Kier2>
7.71

>  <Lipinski>
1

>  <GhoseFilter>
1

>  <FilterItLogS>
-4.91

>  <VMcGowan>
239.49

>  <LabuteASA>
135.5

>  <PEOE_VSA1>
9.64

>  <PEOE_VSA2>
0

>  <PEOE_VSA3>
0

>  <PEOE_VSA4>
0

>  <PEOE_VSA5>
0

>  <PEOE_VSA6>
42.46

>  <PEOE_VSA7>
59.74

>  <PEOE_VSA8>
12.74

>  <PEOE_VSA9>
0

>  <PEOE_VSA10>
5.75

>  <PEOE_VSA11>
0

>  <PEOE_VSA12>
0

>  <PEOE_VSA13>
5.17

>  <SMR_VSA1>
4.74

>  <SMR_VSA2>
0

>  <SMR_VSA3>
0

>  <SMR_VSA4>
0

>  <SMR_VSA5>
6.92

>  <SMR_VSA6>
11.95

>  <SMR_VSA7>
72.29

>  <SMR_VSA8>
0

>  <SMR_VSA9>
5.75

>  <SlogP_VSA1>
9.64

>  <SlogP_VSA2>
12.22

>  <SlogP_VSA3>
0

>  <SlogP_VSA4>
6.92

>  <SlogP_VSA5>
5.56

>  <SlogP_VSA6>
66.73

>  <SlogP_VSA7>
0

>  <SlogP_VSA8>
10.77

>  <SlogP_VSA9>
0

>  <SlogP_VSA10>
5.69

>  <SlogP_VSA11>
5.75

>  <EState_VSA1>
0

>  <EState_VSA2>
0

>  <EState_VSA3>
5.17

>  <EState_VSA4>
16.82

>  <EState_VSA5>
10.95

>  <EState_VSA6>
0

>  <EState_VSA7>
54.41

>  <EState_VSA8>
31.19

>  <EState_VSA9>
16.95

>  <EState_VSA10>
0

>  <VSA_EState1>
5.84

>  <VSA_EState2>
1.87

>  <VSA_EState3>
2.76

>  <VSA_EState4>
2.21

>  <VSA_EState5>
0.75

>  <VSA_EState6>
22.35

>  <VSA_EState7>
0

>  <VSA_EState8>
2.06

>  <VSA_EState9>
1.91

>  <apol>
47.87

>  <bpol>
21.73

>  <nRing>
3

>  <nHRing>
0

>  <naRing>
3

>  <naHRing>
0

>  <nARing 2>
0

>  <nAHRing 2>
0

>  <nFRing>
1

>  <nFHRing>
0

>  <nFaRing>
1

>  <nFaHRing>
0

>  <nFARing 2>
0

>  <nFAHRing 2>
0

>  <nRot>
2

>  <SLogP>
4.95

>  <SMR>
96.76

>  <TopoPSA(NO)>
12.47

>  <TopoPSA>
44.56

>  <JGI1>
0.19

>  <JGI2>
0.07

>  <JGI3>
0.04

>  <JGI4>
0.05

>  <JGI5>
0.03

>  <Diameter>
12

>  <Radius>
6

>  <TMWC10>
119.4

>  <TSRW10>
56.03

>  <MW>
307.1

>  <AMW>
7.87

>  <WPath>
1136

>  <WPol>
33

>  <Zagreb1>
114

>  <Zagreb2>
132

>  <mZagreb2>
4.83

>  <yes>


>  <nAR-cont>
0.336376

>  <nHA-cont>
0.983774276

>  <MWHBN>
0.114127443

>  <MWHBN-cont>
0.802998277

>  <TPSA-cont>
0.68894353

>  <pka_cont>
0.97

>  <yes.1>


>  <BBB_SCORE>
4.387534751

>  <MMFF94 Energy>
60.66

$$$$
Compound 2649
Actelion Java MolfileCreator 2.0

  0  0  0  0  0  0              0 V3000
M  V30 BEGIN CTAB
M  V30 COUNTS 25 27 0 0 0
M  V30 BEGIN ATOM
M  V30 1 O 0.1612 -0.3225 2.5826 0
M  V30 2 C -0.0441 -0.1396 1.3817 0
M  V30 3 N 0.9639 -0.2657 0.4202 0
M  V30 4 C -1.3971 0.2322 0.8715 0
M  V30 5 C 0.6909 -0.0506 -0.9271 0
M  V30 6 C 2.2455 -0.6107 0.8398 0
M  V30 7 C -2.5152 0.3932 1.7509 0
M  V30 8 C -1.4898 0.4032 -0.4562 0
M  V30 9 N -0.4844 0.2724 -1.3705 0
M  V30 10 C 1.8318 -0.2067 -1.8958 0
M  V30 11 C 3.2596 -0.7496 -0.0199 0
M  V30 12 N -2.4078 0.2156 3.1088 0
M  V30 13 N -3.7709 0.7262 1.3851 0
M  V30 14 C 3.0427 -0.5412 -1.4242 0
M  V30 15 C 1.5474 0.0225 -3.3467 0
M  V30 16 N -3.6066 0.4358 3.629 0
M  V30 17 N -4.3769 0.7325 2.5815 0
M  V30 18 H 2.3941 -0.7651 1.906 0
M  V30 19 H -2.4492 0.6756 -0.8951 0
M  V30 20 H 4.2533 -1.0191 0.3231 0
M  V30 21 H 3.8931 -0.6641 -2.0882 0
M  V30 22 H 0.7879 -0.6794 -3.7062 0
M  V30 23 H 1.1884 1.0436 -3.5123 0
M  V30 24 H 2.4425 -0.1161 -3.9626 0
M  V30 25 H -5.3639 0.9497 2.6901 0
M  V30 END ATOM
M  V30 BEGIN BOND
M  V30 1 2 1 2
M  V30 2 1 2 3
M  V30 3 1 2 4
M  V30 4 1 3 5
M  V30 5 1 3 6
M  V30 6 1 4 7
M  V30 7 2 4 8
M  V30 8 2 5 9
M  V30 9 1 5 10
M  V30 10 2 6 11
M  V30 11 1 7 12
M  V30 12 2 7 13
M  V30 13 2 10 14
M  V30 14 1 10 15
M  V30 15 2 12 16
M  V30 16 1 13 17
M  V30 17 1 8 9
M  V30 18 1 11 14
M  V30 19 1 16 17
M  V30 20 1 6 18
M  V30 21 1 8 19
M  V30 22 1 11 20
M  V30 23 1 14 21
M  V30 24 1 15 22
M  V30 25 1 15 23
M  V30 26 1 15 24
M  V30 27 1 17 25
M  V30 END BOND
M  V30 END CTAB
M  END
>  <Column 1>
3316

>  <level_0>
5522

>  <index>
5523

>  <Unnamed: 0>
5523

>  <NO.>
5535

>  <Name>
pemirolast

>  <IUPAC_name>
9-methyl-3-(2h-tetrazol-5-yl)pyrido[1-2-a]pyrimidin-4-one

>  <SMILES>
Cc1cccn2c(=O)c(-c3nn[nH]n3)cnc12

>  <CID>
57697

>  <logBB>


>  <BBB+/BBB->
BBB-

>  <Inchi>
InChI=1S/C10H8N6O/c1-6-3-2-4-16-9(6)11-5-7(10(16)17)8-12-14-15-13-8/h2-5H-1H3-(H-12-13-14-15)

>  <threshold>


>  <reference>
R15|R23|

>  <group>
C

>  <Class>
-1

>  <ABC>
13.45

>  <ABCGG>
11.5

>  <nAcid>
2

>  <nBase>
0

>  <nAromAtom>
15

>  <nAromBond>
16

>  <nAtom>
25

>  <nHeavyAtom>
17

>  <nSpiro>
0

>  <nBridgehead>
0

>  <nHetero>
7

>  <nN>
6

>  <nO>
1

>  <nF>
0

>  <BalabanJ>
1.7

>  <BertzCT>
730.14

>  <nBonds>
27

>  <nBondsO>
19

>  <nBondsS>
10

>  <nBondsD>
1

>  <nBondsT>
0

>  <nBondsA>
16

>  <nBondsM>
17

>  <nBondsKS>
20

>  <nBondsKD>
7

>  <RNCG>
0.19

>  <RPCG>
0.19

>  <FCSP3>
0.1

>  <SZ>
19.67

>  <Sm>
19

>  <Sv>
17.43

>  <Sse>
25.86

>  <Sp>
17.63

>  <Si>
28.61

>  <MZ>
0.79

>  <Mm>
0.76

>  <Mv>
0.7

>  <Mse>
1.03

>  <Mp>
0.71

>  <Mi>
1.14

>  <NsCH3>
1

>  <NdCH2>
0

>  <NssCH2>
0

>  <NtCH>
0

>  <NdsCH>
0

>  <NaaCH>
4

>  <NsssCH>
0

>  <NddC>
0

>  <NtsC>
0

>  <NdssC>
0

>  <NaasC>
3

>  <NaaaC>
1

>  <NssssC>
0

>  <NsNH3>
0

>  <NsNH2>
0

>  <NssNH2>
0

>  <NdNH>
0

>  <NssNH>
0

>  <NaaNH>
1

>  <NtN>
0

>  <NsssNH>
0

>  <NdsN>
0

>  <NaaN>
4

>  <NsssN>
0

>  <NddsN>
0

>  <NaasN>
1

>  <NssssN>
0

>  <NsOH>
0

>  <NdO>
1

>  <NssO>
0

>  <NaaO>
0

>  <NsF>
0

>  <NsSiH3>
0

>  <NssSiH2>
0

>  <NsssSiH>
0

>  <NssssSi>
0

>  <NsPH2>
0

>  <NssPH>
0

>  <NsssP>
0

>  <NdsssP>
0

>  <NsssssP>
0

>  <NsSH>
0

>  <NdS>
0

>  <NssS>
0

>  <NaaS>
0

>  <NdssS>
0

>  <NddssS>
0

>  <NsCl>
0

>  <NsBr>
0

>  <NsI>
0

>  <fragCpx>
89.07

>  <fMF>
0.6

>  <nHBAcc>
6

>  <nHBDon>
1

>  <Kier1>
12.06

>  <Kier2>
4.94

>  <Lipinski>
1

>  <GhoseFilter>
1

>  <FilterItLogS>
-2.81

>  <VMcGowan>
154.83

>  <LabuteASA>
95.14

>  <PEOE_VSA1>
0

>  <PEOE_VSA2>
9.2

>  <PEOE_VSA3>
4.98

>  <PEOE_VSA4>
5.21

>  <PEOE_VSA5>
10.2

>  <PEOE_VSA6>
6.07

>  <PEOE_VSA7>
23.77

>  <PEOE_VSA8>
12.39

>  <PEOE_VSA9>
0

>  <PEOE_VSA10>
11.21

>  <PEOE_VSA11>
0

>  <PEOE_VSA12>
5.82

>  <PEOE_VSA13>
5.56

>  <SMR_VSA1>
0

>  <SMR_VSA2>
0

>  <SMR_VSA3>
30.01

>  <SMR_VSA4>
0

>  <SMR_VSA5>
6.92

>  <SMR_VSA6>
0

>  <SMR_VSA7>
40.44

>  <SMR_VSA8>
0

>  <SMR_VSA9>
11.39

>  <SlogP_VSA1>
5.56

>  <SlogP_VSA2>
30.01

>  <SlogP_VSA3>
0

>  <SlogP_VSA4>
6.92

>  <SlogP_VSA5>
5.56

>  <SlogP_VSA6>
29.32

>  <SlogP_VSA7>
0

>  <SlogP_VSA8>
17.04

>  <SlogP_VSA9>
0

>  <SlogP_VSA10>
0

>  <SlogP_VSA11>
0

>  <EState_VSA1>
0

>  <EState_VSA2>
11.38

>  <EState_VSA3>
11.21

>  <EState_VSA4>
5.56

>  <EState_VSA5>
10.6

>  <EState_VSA6>
12.26

>  <EState_VSA7>
12.99

>  <EState_VSA8>
25.61

>  <EState_VSA9>
0

>  <EState_VSA10>
4.79

>  <VSA_EState1>
1.47

>  <VSA_EState2>
16.42

>  <VSA_EState3>
13.29

>  <VSA_EState4>
1.68

>  <VSA_EState5>
0.25

>  <VSA_EState6>
3.7

>  <VSA_EState7>
3.14

>  <VSA_EState8>
1.9

>  <VSA_EState9>
0

>  <apol>
29.44

>  <bpol>
12.31

>  <nRing>
3

>  <nHRing>
3

>  <naRing>
3

>  <naHRing>
3

>  <nARing 2>
0

>  <nAHRing 2>
0

>  <nFRing>
1

>  <nFHRing>
1

>  <nFaRing>
1

>  <nFaHRing>
1

>  <nFARing 2>
0

>  <nFAHRing 2>
0

>  <nRot>
1

>  <SLogP>
0.18

>  <SMR>
59.37

>  <TopoPSA(NO)>
88.83

>  <TopoPSA>
88.83

>  <JGI1>
0.13

>  <JGI2>
0.09

>  <JGI3>
0.05

>  <JGI4>
0.05

>  <JGI5>
0.03

>  <Diameter>
8

>  <Radius>
4

>  <TMWC10>
108.79

>  <TSRW10>
63.38

>  <MW>
228.08

>  <AMW>
9.12

>  <WPath>
483

>  <WPol>
27

>  <Zagreb1>
92

>  <Zagreb2>
111

>  <mZagreb2>
3.72

>  <yes>


>  <nAR-cont>
0.336376

>  <nHA-cont>
0.976740822

>  <MWHBN>
0.463505015

>  <MWHBN-cont>
0

>  <TPSA-cont>
0.37991144

>  <pka_cont>
0.97

>  <yes.1>


>  <BBB_SCORE>
2.557939702

>  <MMFF94 Energy>
20.692

$$$$
Compound 2650
Actelion Java MolfileCreator 2.0

  0  0  0  0  0  0              0 V3000
M  V30 BEGIN CTAB
M  V30 COUNTS 23 23 0 0 0
M  V30 BEGIN ATOM
M  V30 1 O 0.9373 -2.1881 -0.781 0
M  V30 2 C 0.3388 -0.9572 -0.7379 0
M  V30 3 C 0.1989 -0.2408 0.4633 0
M  V30 4 C -0.1355 -0.4162 -1.9347 0
M  V30 5 C -0.4394 1.022 0.4077 0
M  V30 6 C 0.674 -0.7726 1.7973 0
M  V30 7 N -0.7354 0.7945 -1.9972 0
M  V30 8 C 0.005 -1.1653 -3.2267 0
M  V30 9 C -0.8703 1.4767 -0.8386 0
M  V30 10 C -0.6237 1.8739 1.6382 0
M  V30 11 O 1.4134 -1.9868 1.6764 0
M  V30 12 O -1.4543 3.0008 1.3976 0
M  V30 13 H 1.2615 -2.3791 0.126 0
M  V30 14 H 1.3306 -0.0401 2.2774 0
M  V30 15 H -0.1893 -0.9737 2.4396 0
M  V30 16 H -0.4235 -0.5934 -4.0562 0
M  V30 17 H 1.0613 -1.3437 -3.4502 0
M  V30 18 H -0.5211 -2.1233 -3.1706 0
M  V30 19 H -1.3581 2.4428 -0.9495 0
M  V30 20 H -1.0947 1.2873 2.4331 0
M  V30 21 H 0.3506 2.2386 1.9788 0
M  V30 22 H 1.6875 -2.2299 2.58 0
M  V30 23 H -1.5161 3.4944 2.2328 0
M  V30 END ATOM
M  V30 BEGIN BOND
M  V30 1 1 1 2
M  V30 2 2 2 3
M  V30 3 1 2 4
M  V30 4 1 3 5
M  V30 5 1 3 6
M  V30 6 2 4 7
M  V30 7 1 4 8
M  V30 8 2 5 9
M  V30 9 1 5 10
M  V30 10 1 6 11
M  V30 11 1 10 12
M  V30 12 1 7 9
M  V30 13 1 1 13
M  V30 14 1 6 14
M  V30 15 1 6 15
M  V30 16 1 8 16
M  V30 17 1 8 17
M  V30 18 1 8 18
M  V30 19 1 9 19
M  V30 20 1 10 20
M  V30 21 1 10 21
M  V30 22 1 11 22
M  V30 23 1 12 23
M  V30 END BOND
M  V30 END CTAB
M  END
>  <Column 1>
3317

>  <level_0>
5523

>  <index>
5524

>  <Unnamed: 0>
5524

>  <NO.>
5536

>  <Name>
pyridoxine

>  <IUPAC_name>
4-5-bis(hydroxymethyl)-2-methylpyridin-3-ol

>  <SMILES>
Cc1ncc(CO)c(CO)c1O

>  <CID>
1054

>  <logBB>


>  <BBB+/BBB->
BBB-

>  <Inchi>
InChI=1S/C8H11NO3/c1-5-8(12)7(4-11)6(3-10)2-9-5/h2-10-12H-3-4H2-1H3

>  <threshold>


>  <reference>
R15|R23|

>  <group>
C

>  <Class>
-1

>  <ABC>
8.58

>  <ABCGG>
8.48

>  <nAcid>
0

>  <nBase>
0

>  <nAromAtom>
6

>  <nAromBond>
6

>  <nAtom>
23

>  <nHeavyAtom>
12

>  <nSpiro>
0

>  <nBridgehead>
0

>  <nHetero>
4

>  <nN>
1

>  <nO>
3

>  <nF>
0

>  <BalabanJ>
2.58

>  <BertzCT>
285.88

>  <nBonds>
23

>  <nBondsO>
12

>  <nBondsS>
17

>  <nBondsD>
0

>  <nBondsT>
0

>  <nBondsA>
6

>  <nBondsM>
6

>  <nBondsKS>
20

>  <nBondsKD>
3

>  <RNCG>
0.32

>  <RPCG>
0.19

>  <FCSP3>
0.38

>  <SZ>
15

>  <Sm>
14.09

>  <Sv>
13.88

>  <Sse>
23.54

>  <Sp>
14.49

>  <Si>
26.2

>  <MZ>
0.65

>  <Mm>
0.61

>  <Mv>
0.6

>  <Mse>
1.02

>  <Mp>
0.63

>  <Mi>
1.14

>  <NsCH3>
1

>  <NdCH2>
0

>  <NssCH2>
2

>  <NtCH>
0

>  <NdsCH>
0

>  <NaaCH>
1

>  <NsssCH>
0

>  <NddC>
0

>  <NtsC>
0

>  <NdssC>
0

>  <NaasC>
4

>  <NaaaC>
0

>  <NssssC>
0

>  <NsNH3>
0

>  <NsNH2>
0

>  <NssNH2>
0

>  <NdNH>
0

>  <NssNH>
0

>  <NaaNH>
0

>  <NtN>
0

>  <NsssNH>
0

>  <NdsN>
0

>  <NaaN>
1

>  <NsssN>
0

>  <NddsN>
0

>  <NaasN>
0

>  <NssssN>
0

>  <NsOH>
3

>  <NdO>
0

>  <NssO>
0

>  <NaaO>
0

>  <NsF>
0

>  <NsSiH3>
0

>  <NssSiH2>
0

>  <NsssSiH>
0

>  <NssssSi>
0

>  <NsPH2>
0

>  <NssPH>
0

>  <NsssP>
0

>  <NdsssP>
0

>  <NsssssP>
0

>  <NsSH>
0

>  <NdS>
0

>  <NssS>
0

>  <NaaS>
0

>  <NdssS>
0

>  <NddssS>
0

>  <NsCl>
0

>  <NsBr>
0

>  <NsI>
0

>  <fragCpx>
12.04

>  <fMF>
0.26

>  <nHBAcc>
4

>  <nHBDon>
3

>  <Kier1>
10.08

>  <Kier2>
4.3

>  <Lipinski>
1

>  <GhoseFilter>
1

>  <FilterItLogS>
-1.34

>  <VMcGowan>
127.41

>  <LabuteASA>
70.13

>  <PEOE_VSA1>
15.32

>  <PEOE_VSA2>
4.98

>  <PEOE_VSA3>
0

>  <PEOE_VSA4>
0

>  <PEOE_VSA5>
0

>  <PEOE_VSA6>
0

>  <PEOE_VSA7>
6.92

>  <PEOE_VSA8>
17.32

>  <PEOE_VSA9>
18.91

>  <PEOE_VSA10>
5.75

>  <PEOE_VSA11>
0

>  <PEOE_VSA12>
0

>  <PEOE_VSA13>
0

>  <SMR_VSA1>
15.32

>  <SMR_VSA2>
0

>  <SMR_VSA3>
4.98

>  <SMR_VSA4>
0

>  <SMR_VSA5>
20.14

>  <SMR_VSA6>
0

>  <SMR_VSA7>
23.02

>  <SMR_VSA8>
0

>  <SMR_VSA9>
5.75

>  <SlogP_VSA1>
0

>  <SlogP_VSA2>
20.3

>  <SlogP_VSA3>
13.21

>  <SlogP_VSA4>
6.92

>  <SlogP_VSA5>
16.82

>  <SlogP_VSA6>
6.2

>  <SlogP_VSA7>
0

>  <SlogP_VSA8>
0

>  <SlogP_VSA9>
0

>  <SlogP_VSA10>
0

>  <SlogP_VSA11>
5.75

>  <EState_VSA1>
0

>  <EState_VSA2>
18.96

>  <EState_VSA3>
16.82

>  <EState_VSA4>
0

>  <EState_VSA5>
6.2

>  <EState_VSA6>
6.92

>  <EState_VSA7>
0

>  <EState_VSA8>
4.98

>  <EState_VSA9>
10.21

>  <EState_VSA10>
5.11

>  <VSA_EState1>
0

>  <VSA_EState2>
3.84

>  <VSA_EState3>
27.03

>  <VSA_EState4>
1.27

>  <VSA_EState5>
-0.04

>  <VSA_EState6>
0

>  <VSA_EState7>
1.45

>  <VSA_EState8>
1.12

>  <VSA_EState9>
0

>  <apol>
24.2

>  <bpol>
12.18

>  <nRing>
1

>  <nHRing>
1

>  <naRing>
1

>  <naHRing>
1

>  <nARing 2>
0

>  <nAHRing 2>
0

>  <nFRing>
0

>  <nFHRing>
0

>  <nFaRing>
0

>  <nFaHRing>
0

>  <nFARing 2>
0

>  <nFAHRing 2>
0

>  <nRot>
2

>  <SLogP>
0.08

>  <SMR>
42.48

>  <TopoPSA(NO)>
73.58

>  <TopoPSA>
73.58

>  <JGI1>
0.21

>  <JGI2>
0.13

>  <JGI3>
0.06

>  <JGI4>
0.06

>  <JGI5>
0.03

>  <Diameter>
6

>  <Radius>
3

>  <TMWC10>
90.94

>  <TSRW10>
42.61

>  <MW>
169.07

>  <AMW>
7.35

>  <WPath>
186

>  <WPol>
18

>  <Zagreb1>
56

>  <Zagreb2>
65

>  <mZagreb2>
2.92

>  <yes>


>  <nAR-cont>
0.336376

>  <nHA-cont>
0.785745021

>  <MWHBN>
0.538350057

>  <MWHBN-cont>
0

>  <TPSA-cont>
0.48636591

>  <pka_cont>
0.97

>  <yes.1>


>  <BBB_SCORE>
2.57985284

>  <MMFF94 Energy>
21.574

$$$$
Compound 2651
Actelion Java MolfileCreator 2.0

  0  0  0  0  0  0              0 V3000
M  V30 BEGIN CTAB
M  V30 COUNTS 35 36 0 0 0
M  V30 BEGIN ATOM
M  V30 1 S 1.9082 1.9082 -1.5104 0
M  V30 2 C 1.8881 2.0605 0.1989 0
M  V30 3 C 0.2649 1.4472 -1.5445 0
M  V30 4 C 0.6245 1.7786 0.6896 0
M  V30 5 C 3.1403 2.4401 0.9427 0
M  V30 6 N -0.2524 1.4002 -0.3254 0 CHG=1
M  V30 7 C 0.1586 1.8294 2.099 0
M  V30 8 C 3.8667 1.21 1.4885 0
M  V30 9 C -1.6535 0.9918 -0.1253 0
M  V30 10 O 3.0398 0.5415 2.4395 0
M  V30 11 C -1.814 -0.4647 -0.4152 0
M  V30 12 C -2.2441 -0.951 -1.6335 0
M  V30 13 C -1.4461 -1.4271 0.504 0
M  V30 14 N -2.2611 -2.2541 -1.9262 0
M  V30 15 N -2.644 -0.1192 -2.6653 0
M  V30 16 N -1.4792 -2.7449 0.2574 0
M  V30 17 C -1.896 -3.1176 -0.9622 0
M  V30 18 C -1.9066 -4.5784 -1.2867 0
M  V30 19 H -0.2635 1.213 -2.4609 0
M  V30 20 H 3.8185 3.003 0.2906 0
M  V30 21 H 2.8706 3.1067 1.7707 0
M  V30 22 H -0.7027 2.4974 2.1972 0
M  V30 23 H -0.1195 0.8331 2.4531 0
M  V30 24 H 0.9316 2.2138 2.7703 0
M  V30 25 H 4.1162 0.5038 0.69 0
M  V30 26 H 4.7893 1.5165 1.9916 0
M  V30 27 H -2.2876 1.6164 -0.7661 0
M  V30 28 H -1.9875 1.1985 0.8956 0
M  V30 29 H 3.5923 -0.152 2.8484 0
M  V30 30 H -1.0872 -1.1763 1.4987 0
M  V30 31 H -2.8233 -0.6791 -3.5016 0
M  V30 32 H -3.4007 0.5288 -2.4817 0
M  V30 33 H -0.9375 -4.8705 -1.7009 0
M  V30 34 H -2.0998 -5.1709 -0.3873 0
M  V30 35 H -2.6869 -4.8038 -2.0199 0
M  V30 END ATOM
M  V30 BEGIN BOND
M  V30 1 1 1 2
M  V30 2 1 1 3
M  V30 3 2 2 4
M  V30 4 1 2 5
M  V30 5 2 3 6
M  V30 6 1 4 7
M  V30 7 1 5 8
M  V30 8 1 6 9
M  V30 9 1 8 10
M  V30 10 1 9 11
M  V30 11 2 11 12
M  V30 12 1 11 13
M  V30 13 1 12 14
M  V30 14 1 12 15
M  V30 15 2 13 16
M  V30 16 2 14 17
M  V30 17 1 17 18
M  V30 18 1 4 6
M  V30 19 1 16 17
M  V30 20 1 3 19
M  V30 21 1 5 20
M  V30 22 1 5 21
M  V30 23 1 7 22
M  V30 24 1 7 23
M  V30 25 1 7 24
M  V30 26 1 8 25
M  V30 27 1 8 26
M  V30 28 1 9 27
M  V30 29 1 9 28
M  V30 30 1 10 29
M  V30 31 1 13 30
M  V30 32 1 15 31
M  V30 33 1 15 32
M  V30 34 1 18 33
M  V30 35 1 18 34
M  V30 36 1 18 35
M  V30 END BOND
M  V30 END CTAB
M  END
>  <Column 1>
3318

>  <level_0>
5524

>  <index>
5525

>  <Unnamed: 0>
5525

>  <NO.>
5537

>  <Name>
thiamine

>  <IUPAC_name>
2-[3-[(4-amino-2-methylpyrimidin-5-yl)methyl]-4-methyl-1-3-thiazol-3-ium-5-yl]ethanol

>  <SMILES>
Cc1ncc(C[n+]2csc(CCO)c2C)c(N)n1

>  <CID>
1130

>  <logBB>


>  <BBB+/BBB->
BBB-

>  <Inchi>
InChI=1S/C12H17N4OS/c1-8-11(3-4-17)18-7-16(8)6-10-5-14-9(2)15-12(10)13/h5-7-17H-3-4-6H2-1-2H3-(H2-13-14-15)/q+1

>  <threshold>


>  <reference>
R15|

>  <group>
C

>  <Class>
-1

>  <ABC>
13.64

>  <ABCGG>
12.1

>  <nAcid>
0

>  <nBase>
1

>  <nAromAtom>
11

>  <nAromBond>
11

>  <nAtom>
35

>  <nHeavyAtom>
18

>  <nSpiro>
0

>  <nBridgehead>
0

>  <nHetero>
6

>  <nN>
4

>  <nO>
1

>  <nF>
0

>  <BalabanJ>
1.83

>  <BertzCT>
553.01

>  <nBonds>
36

>  <nBondsO>
19

>  <nBondsS>
25

>  <nBondsD>
0

>  <nBondsT>
0

>  <nBondsA>
11

>  <nBondsM>
11

>  <nBondsKS>
31

>  <nBondsKD>
5

>  <RNCG>
0.26

>  <RPCG>
0.09

>  <FCSP3>
0.42

>  <SZ>
23.5

>  <Sm>
22.09

>  <Sv>
21.54

>  <Sse>
35.11

>  <Sp>
23.64

>  <Si>
39.82

>  <MZ>
0.67

>  <Mm>
0.63

>  <Mv>
0.62

>  <Mse>
1

>  <Mp>
0.68

>  <Mi>
1.14

>  <NsCH3>
2

>  <NdCH2>
0

>  <NssCH2>
3

>  <NtCH>
0

>  <NdsCH>
0

>  <NaaCH>
2

>  <NsssCH>
0

>  <NddC>
0

>  <NtsC>
0

>  <NdssC>
0

>  <NaasC>
5

>  <NaaaC>
0

>  <NssssC>
0

>  <NsNH3>
0

>  <NsNH2>
1

>  <NssNH2>
0

>  <NdNH>
0

>  <NssNH>
0

>  <NaaNH>
0

>  <NtN>
0

>  <NsssNH>
0

>  <NdsN>
0

>  <NaaN>
2

>  <NsssN>
0

>  <NddsN>
0

>  <NaasN>
1

>  <NssssN>
0

>  <NsOH>
1

>  <NdO>
0

>  <NssO>
0

>  <NaaO>
0

>  <NsF>
0

>  <NsSiH3>
0

>  <NssSiH2>
0

>  <NsssSiH>
0

>  <NssssSi>
0

>  <NsPH2>
0

>  <NssPH>
0

>  <NsssP>
0

>  <NdsssP>
0

>  <NsssssP>
0

>  <NsSH>
0

>  <NdS>
0

>  <NssS>
0

>  <NaaS>
1

>  <NdssS>
0

>  <NddssS>
0

>  <NsCl>
0

>  <NsBr>
0

>  <NsI>
0

>  <fragCpx>
55.06

>  <fMF>
0.34

>  <nHBAcc>
5

>  <nHBDon>
2

>  <Kier1>
14.41

>  <Kier2>
6.44

>  <Lipinski>
1

>  <GhoseFilter>
1

>  <FilterItLogS>
-3

>  <VMcGowan>
201.01

>  <LabuteASA>
109.96

>  <PEOE_VSA1>
10.84

>  <PEOE_VSA2>
0

>  <PEOE_VSA3>
9.97

>  <PEOE_VSA4>
4.57

>  <PEOE_VSA5>
0

>  <PEOE_VSA6>
11.34

>  <PEOE_VSA7>
6.92

>  <PEOE_VSA8>
26.15

>  <PEOE_VSA9>
10.44

>  <PEOE_VSA10>
11.64

>  <PEOE_VSA11>
12.24

>  <PEOE_VSA12>
5.51

>  <PEOE_VSA13>
0

>  <SMR_VSA1>
9.67

>  <SMR_VSA2>
0

>  <SMR_VSA3>
9.97

>  <SMR_VSA4>
0

>  <SMR_VSA5>
26.81

>  <SMR_VSA6>
12.34

>  <SMR_VSA7>
33.67

>  <SMR_VSA8>
0

>  <SMR_VSA9>
0

>  <SlogP_VSA1>
10.3

>  <SlogP_VSA2>
21.68

>  <SlogP_VSA3>
12.97

>  <SlogP_VSA4>
13.85

>  <SlogP_VSA5>
21.96

>  <SlogP_VSA6>
11.71

>  <SlogP_VSA7>
0

>  <SlogP_VSA8>
0

>  <SlogP_VSA9>
0

>  <SlogP_VSA10>
5.82

>  <SlogP_VSA11>
0

>  <EState_VSA1>
0

>  <EState_VSA2>
6.61

>  <EState_VSA3>
24.61

>  <EState_VSA4>
11.26

>  <EState_VSA5>
4.88

>  <EState_VSA6>
17.53

>  <EState_VSA7>
19.36

>  <EState_VSA8>
14.54

>  <EState_VSA9>
10.84

>  <EState_VSA10>
0

>  <VSA_EState1>
2.11

>  <VSA_EState2>
9.53

>  <VSA_EState3>
8.98

>  <VSA_EState4>
10

>  <VSA_EState5>
1.22

>  <VSA_EState6>
0

>  <VSA_EState7>
2.47

>  <VSA_EState8>
4.71

>  <VSA_EState9>
0

>  <apol>
39.48

>  <bpol>
22.93

>  <nRing>
2

>  <nHRing>
2

>  <naRing>
2

>  <naHRing>
2

>  <nARing 2>
0

>  <nAHRing 2>
0

>  <nFRing>
0

>  <nFHRing>
0

>  <nFaRing>
0

>  <nFaHRing>
0

>  <nFARing 2>
0

>  <nFAHRing 2>
0

>  <nRot>
4

>  <SLogP>
0.61

>  <SMR>
70.32

>  <TopoPSA(NO)>
75.91

>  <TopoPSA>
104.15

>  <JGI1>
0.21

>  <JGI2>
0.09

>  <JGI3>
0.06

>  <JGI4>
0.05

>  <JGI5>
0.03

>  <Diameter>
11

>  <Radius>
6

>  <TMWC10>
108.37

>  <TSRW10>
64.65

>  <MW>
265.11

>  <AMW>
7.57

>  <WPath>
642

>  <WPol>
25

>  <Zagreb1>
90

>  <Zagreb2>
104

>  <mZagreb2>
4.08

>  <yes>


>  <nAR-cont>
0.336376

>  <nHA-cont>
0.991161285

>  <MWHBN>
0.429917363

>  <MWHBN-cont>
0.360025609

>  <TPSA-cont>
0.272968327

>  <pka_cont>
0.97

>  <yes.1>


>  <BBB_SCORE>
2.898512352

>  <MMFF94 Energy>
-26.95

$$$$
Compound 2652
Actelion Java MolfileCreator 2.0

  0  0  0  0  0  0              0 V3000
M  V30 BEGIN CTAB
M  V30 COUNTS 18 18 0 0 0
M  V30 BEGIN ATOM
M  V30 1 Cl 2.8711 1.2033 0.7404 0
M  V30 2 C 1.1911 0.8704 0.1905 0
M  V30 3 C 1.145 -0.1911 -0.9236 0
M  V30 4 C 0.3044 0.4888 1.3866 0
M  V30 5 Cl 2.0832 0.3912 -2.3565 0
M  V30 6 C -0.305 -0.4957 -1.3582 0
M  V30 7 Cl 0.8957 -1.0165 2.1866 0
M  V30 8 C -1.1459 0.3309 0.903 0
M  V30 9 Cl -0.3175 -1.9154 -2.4746 0
M  V30 10 C -1.2765 -0.7501 -0.1853 0
M  V30 11 Cl -2.2389 0.0237 2.2983 0
M  V30 12 Cl -2.9722 -0.7758 -0.8153 0
M  V30 13 H 0.832 1.8267 -0.2104 0
M  V30 14 H 1.6433 -1.1104 -0.5959 0
M  V30 15 H 0.3546 1.2764 2.148 0
M  V30 16 H -0.6803 0.3507 -1.9482 0
M  V30 17 H -1.477 1.2937 0.4935 0
M  V30 18 H -1.1032 -1.7444 0.2414 0
M  V30 END ATOM
M  V30 BEGIN BOND
M  V30 1 1 1 2
M  V30 2 1 2 3
M  V30 3 1 2 4
M  V30 4 1 3 5
M  V30 5 1 3 6
M  V30 6 1 4 7
M  V30 7 1 4 8
M  V30 8 1 6 9
M  V30 9 1 6 10
M  V30 10 1 8 11
M  V30 11 1 10 12
M  V30 12 1 8 10
M  V30 13 1 2 13
M  V30 14 1 3 14
M  V30 15 1 4 15
M  V30 16 1 6 16
M  V30 17 1 8 17
M  V30 18 1 10 18
M  V30 END BOND
M  V30 END CTAB
M  END
>  <Column 1>
3319

>  <level_0>
5525

>  <index>
5526

>  <Unnamed: 0>
5526

>  <NO.>
5538

>  <Name>
lindane

>  <IUPAC_name>
1-2-3-4-5-6-hexachlorocyclohexane

>  <SMILES>
ClC1C(Cl)C(Cl)C(Cl)C(Cl)C1Cl

>  <CID>
727

>  <logBB>


>  <BBB+/BBB->
BBB-

>  <Inchi>
InChI=1S/C6H6Cl6/c7-1-2(8)4(10)6(12)5(11)3(1)9/h1-6H

>  <threshold>


>  <reference>
R15|R23|

>  <group>
C

>  <Class>
-1

>  <ABC>
8.9

>  <ABCGG>
8.88

>  <nAcid>
0

>  <nBase>
0

>  <nAromAtom>
0

>  <nAromBond>
0

>  <nAtom>
18

>  <nHeavyAtom>
12

>  <nSpiro>
0

>  <nBridgehead>
0

>  <nHetero>
6

>  <nN>
0

>  <nO>
0

>  <nF>
0

>  <BalabanJ>
2.76

>  <BertzCT>
103.59

>  <nBonds>
18

>  <nBondsO>
12

>  <nBondsS>
18

>  <nBondsD>
0

>  <nBondsT>
0

>  <nBondsA>
0

>  <nBondsM>
0

>  <nBondsKS>
18

>  <nBondsKD>
0

>  <RNCG>
0.17

>  <RPCG>
0.1

>  <FCSP3>
1

>  <SZ>
24

>  <Sm>
24.21

>  <Sv>
14.17

>  <Sse>
19.26

>  <Sp>
16.23

>  <Si>
20.16

>  <MZ>
1.33

>  <Mm>
1.35

>  <Mv>
0.79

>  <Mse>
1.07

>  <Mp>
0.9

>  <Mi>
1.12

>  <NsCH3>
0

>  <NdCH2>
0

>  <NssCH2>
0

>  <NtCH>
0

>  <NdsCH>
0

>  <NaaCH>
0

>  <NsssCH>
6

>  <NddC>
0

>  <NtsC>
0

>  <NdssC>
0

>  <NaasC>
0

>  <NaaaC>
0

>  <NssssC>
0

>  <NsNH3>
0

>  <NsNH2>
0

>  <NssNH2>
0

>  <NdNH>
0

>  <NssNH>
0

>  <NaaNH>
0

>  <NtN>
0

>  <NsssNH>
0

>  <NdsN>
0

>  <NaaN>
0

>  <NsssN>
0

>  <NddsN>
0

>  <NaasN>
0

>  <NssssN>
0

>  <NsOH>
0

>  <NdO>
0

>  <NssO>
0

>  <NaaO>
0

>  <NsF>
0

>  <NsSiH3>
0

>  <NssSiH2>
0

>  <NsssSiH>
0

>  <NssssSi>
0

>  <NsPH2>
0

>  <NssPH>
0

>  <NsssP>
0

>  <NdsssP>
0

>  <NsssssP>
0

>  <NsSH>
0

>  <NdS>
0

>  <NssS>
0

>  <NaaS>
0

>  <NdssS>
0

>  <NddssS>
0

>  <NsCl>
6

>  <NsBr>
0

>  <NsI>
0

>  <fragCpx>
12.06

>  <fMF>
0.33

>  <nHBAcc>
0

>  <nHBDon>
0

>  <Kier1>
10.08

>  <Kier2>
3.4

>  <Lipinski>
1

>  <GhoseFilter>
0

>  <FilterItLogS>
-3.85

>  <VMcGowan>
157.98

>  <LabuteASA>
101.38

>  <PEOE_VSA1>
0

>  <PEOE_VSA2>
0

>  <PEOE_VSA3>
0

>  <PEOE_VSA4>
0

>  <PEOE_VSA5>
69.61

>  <PEOE_VSA6>
0

>  <PEOE_VSA7>
0

>  <PEOE_VSA8>
0

>  <PEOE_VSA9>
32.26

>  <PEOE_VSA10>
0

>  <PEOE_VSA11>
0

>  <PEOE_VSA12>
0

>  <PEOE_VSA13>
0

>  <SMR_VSA1>
0

>  <SMR_VSA2>
0

>  <SMR_VSA3>
0

>  <SMR_VSA4>
0

>  <SMR_VSA5>
32.26

>  <SMR_VSA6>
0

>  <SMR_VSA7>
0

>  <SMR_VSA8>
0

>  <SMR_VSA9>
0

>  <SlogP_VSA1>
0

>  <SlogP_VSA2>
32.26

>  <SlogP_VSA3>
0

>  <SlogP_VSA4>
0

>  <SlogP_VSA5>
0

>  <SlogP_VSA6>
0

>  <SlogP_VSA7>
0

>  <SlogP_VSA8>
0

>  <SlogP_VSA9>
0

>  <SlogP_VSA10>
0

>  <SlogP_VSA11>
0

>  <EState_VSA1>
32.26

>  <EState_VSA2>
0

>  <EState_VSA3>
0

>  <EState_VSA4>
0

>  <EState_VSA5>
0

>  <EState_VSA6>
0

>  <EState_VSA7>
0

>  <EState_VSA8>
0

>  <EState_VSA9>
69.61

>  <EState_VSA10>
0

>  <VSA_EState1>
0

>  <VSA_EState2>
0

>  <VSA_EState3>
-2.62

>  <VSA_EState4>
0

>  <VSA_EState5>
0

>  <VSA_EState6>
0

>  <VSA_EState7>
0

>  <VSA_EState8>
0

>  <VSA_EState9>
0

>  <apol>
27.1

>  <bpol>
9.08

>  <nRing>
1

>  <nHRing>
0

>  <naRing>
0

>  <naHRing>
0

>  <nARing 2>
1

>  <nAHRing 2>
0

>  <nFRing>
0

>  <nFHRing>
0

>  <nFaRing>
0

>  <nFaHRing>
0

>  <nFARing 2>
0

>  <nFAHRing 2>
0

>  <nRot>
0

>  <SLogP>
3.64

>  <SMR>
57.85

>  <TopoPSA(NO)>
0

>  <TopoPSA>
0

>  <JGI1>
0.25

>  <JGI2>
0.15

>  <JGI3>
0.07

>  <JGI4>
0.08

>  <JGI5>
0

>  <Diameter>
5

>  <Radius>
4

>  <TMWC10>
92.57

>  <TSRW10>
43.31

>  <MW>
287.86

>  <AMW>
15.99

>  <WPath>
174

>  <WPol>
21

>  <Zagreb1>
60

>  <Zagreb2>
72

>  <mZagreb2>
2.67

>  <yes>


>  <nAR-cont>
0.816016

>  <nHA-cont>
0.785745021

>  <MWHBN>
0

>  <MWHBN-cont>
0

>  <TPSA-cont>
0

>  <pka_cont>
0.97

>  <yes.1>


>  <BBB_SCORE>
2.086761021

>  <MMFF94 Energy>
30.838

$$$$
Compound 2653
Actelion Java MolfileCreator 2.0

  0  0  0  0  0  0              0 V3000
M  V30 BEGIN CTAB
M  V30 COUNTS 27 27 0 0 0
M  V30 BEGIN ATOM
M  V30 1 Cl 0.8959 -1.9555 -0.8144 0
M  V30 2 C 0.1857 -0.4846 -0.2032 0
M  V30 3 C -1.1672 -0.4863 0.2004 0
M  V30 4 C 0.9756 0.6826 -0.1224 0
M  V30 5 N -1.9033 -1.6884 0.0941 0
M  V30 6 C -1.7223 0.6993 0.6879 0
M  V30 7 N 2.3237 0.6173 -0.5428 0
M  V30 8 C 0.393 1.8532 0.3691 0
M  V30 9 C -3.2257 -1.9181 0.4269 0
M  V30 10 C -0.9483 1.8637 0.7726 0
M  V30 11 C 3.2703 1.6253 -0.5519 0
M  V30 12 O -4.0319 -1.1244 0.883 0
M  V30 13 C -3.6281 -3.3908 0.1476 0
M  V30 14 C -1.5328 3.0743 1.2757 0
M  V30 15 O 3.1336 2.7843 -0.1966 0
M  V30 16 C 4.6306 1.1142 -1.0969 0
M  V30 17 O -2.8448 -4.2059 -0.3074 0
M  V30 18 O -4.8943 -3.6857 0.4458 0
M  V30 19 N -2.0054 4.0529 1.6824 0
M  V30 20 O 4.7969 -0.0373 -1.4589 0
M  V30 21 O 5.5942 2.0357 -1.1349 0
M  V30 22 H -1.4018 -2.4976 -0.2751 0
M  V30 23 H -2.7596 0.7487 1.0111 0
M  V30 24 H 2.6498 -0.2873 -0.8857 0
M  V30 25 H 0.96 2.7777 0.4506 0
M  V30 26 H -5.0077 -4.6312 0.2232 0
M  V30 27 H 6.3829 1.5823 -1.4934 0
M  V30 END ATOM
M  V30 BEGIN BOND
M  V30 1 1 1 2
M  V30 2 2 2 3
M  V30 3 1 2 4
M  V30 4 1 3 5
M  V30 5 1 3 6
M  V30 6 1 4 7
M  V30 7 2 4 8
M  V30 8 1 5 9
M  V30 9 2 6 10
M  V30 10 1 7 11
M  V30 11 2 9 12
M  V30 12 1 9 13
M  V30 13 1 10 14
M  V30 14 2 11 15
M  V30 15 1 11 16
M  V30 16 2 13 17
M  V30 17 1 13 18
M  V30 18 3 14 19
M  V30 19 2 16 20
M  V30 20 1 16 21
M  V30 21 1 8 10
M  V30 22 1 5 22
M  V30 23 1 6 23
M  V30 24 1 7 24
M  V30 25 1 8 25
M  V30 26 1 18 26
M  V30 27 1 21 27
M  V30 END BOND
M  V30 END CTAB
M  END
>  <Column 1>
3322

>  <level_0>
5528

>  <index>
5529

>  <Unnamed: 0>
5529

>  <NO.>
5541

>  <Name>
lodoxamide

>  <IUPAC_name>
2-[2-chloro-5-cyano-3-(oxaloamino)anilino]-2-oxoacetic acid

>  <SMILES>
N#Cc1cc(NC(=O)C(=O)O)c(Cl)c(NC(=O)C(=O)O)c1

>  <CID>
44564

>  <logBB>


>  <BBB+/BBB->
BBB-

>  <Inchi>
InChI=1S/C11H6ClN3O6/c12-7-5(14-8(16)10(18)19)1-4(3-13)2-6(7)15-9(17)11(20)21/h1-2H-(H-14-16)(H-15-17)(H-18-19)(H-20-21)

>  <threshold>


>  <reference>
R15|

>  <group>
C

>  <Class>
-1

>  <ABC>
15.45

>  <ABCGG>
14.22

>  <nAcid>
2

>  <nBase>
0

>  <nAromAtom>
6

>  <nAromBond>
6

>  <nAtom>
27

>  <nHeavyAtom>
21

>  <nSpiro>
0

>  <nBridgehead>
0

>  <nHetero>
10

>  <nN>
3

>  <nO>
6

>  <nF>
0

>  <BalabanJ>
2.71

>  <BertzCT>
644.68

>  <nBonds>
27

>  <nBondsO>
21

>  <nBondsS>
16

>  <nBondsD>
4

>  <nBondsT>
1

>  <nBondsA>
6

>  <nBondsM>
11

>  <nBondsKS>
19

>  <nBondsKD>
7

>  <RNCG>
0.16

>  <RPCG>
0.14

>  <FCSP3>
0

>  <SZ>
26.33

>  <Sm>
25.95

>  <Sv>
20.28

>  <Sse>
29.4

>  <Sp>
19.56

>  <Si>
30.53

>  <MZ>
0.98

>  <Mm>
0.96

>  <Mv>
0.75

>  <Mse>
1.09

>  <Mp>
0.72

>  <Mi>
1.13

>  <NsCH3>
0

>  <NdCH2>
0

>  <NssCH2>
0

>  <NtCH>
0

>  <NdsCH>
0

>  <NaaCH>
2

>  <NsssCH>
0

>  <NddC>
0

>  <NtsC>
1

>  <NdssC>
4

>  <NaasC>
4

>  <NaaaC>
0

>  <NssssC>
0

>  <NsNH3>
0

>  <NsNH2>
0

>  <NssNH2>
0

>  <NdNH>
0

>  <NssNH>
2

>  <NaaNH>
0

>  <NtN>
1

>  <NsssNH>
0

>  <NdsN>
0

>  <NaaN>
0

>  <NsssN>
0

>  <NddsN>
0

>  <NaasN>
0

>  <NssssN>
0

>  <NsOH>
2

>  <NdO>
4

>  <NssO>
0

>  <NaaO>
0

>  <NsF>
0

>  <NsSiH3>
0

>  <NssSiH2>
0

>  <NsssSiH>
0

>  <NssssSi>
0

>  <NsPH2>
0

>  <NssPH>
0

>  <NsssP>
0

>  <NdsssP>
0

>  <NsssssP>
0

>  <NsSH>
0

>  <NdS>
0

>  <NssS>
0

>  <NaaS>
0

>  <NdssS>
0

>  <NddssS>
0

>  <NsCl>
1

>  <NsBr>
0

>  <NsI>
0

>  <fragCpx>
21.1

>  <fMF>
0.22

>  <nHBAcc>
5

>  <nHBDon>
4

>  <Kier1>
19.05

>  <Kier2>
8.59

>  <Lipinski>
1

>  <GhoseFilter>
1

>  <FilterItLogS>
-1.53

>  <VMcGowan>
193.69

>  <LabuteASA>
121.29

>  <PEOE_VSA1>
20.85

>  <PEOE_VSA2>
9.59

>  <PEOE_VSA3>
9.59

>  <PEOE_VSA4>
5.26

>  <PEOE_VSA5>
0

>  <PEOE_VSA6>
11.6

>  <PEOE_VSA7>
12.13

>  <PEOE_VSA8>
0

>  <PEOE_VSA9>
28.03

>  <PEOE_VSA10>
0

>  <PEOE_VSA11>
0

>  <PEOE_VSA12>
0

>  <PEOE_VSA13>
0

>  <SMR_VSA1>
29.39

>  <SMR_VSA2>
5.26

>  <SMR_VSA3>
0

>  <SMR_VSA4>
0

>  <SMR_VSA5>
0

>  <SMR_VSA6>
10.63

>  <SMR_VSA7>
22.72

>  <SMR_VSA8>
0

>  <SMR_VSA9>
6.07

>  <SlogP_VSA1>
10.63

>  <SlogP_VSA2>
33.97

>  <SlogP_VSA3>
19.18

>  <SlogP_VSA4>
11.33

>  <SlogP_VSA5>
5.56

>  <SlogP_VSA6>
12.13

>  <SlogP_VSA7>
5.02

>  <SlogP_VSA8>
0

>  <SlogP_VSA9>
0

>  <SlogP_VSA10>
11.37

>  <SlogP_VSA11>
0

>  <EState_VSA1>
23.75

>  <EState_VSA2>
21.96

>  <EState_VSA3>
0

>  <EState_VSA4>
12.13

>  <EState_VSA5>
0

>  <EState_VSA6>
6.07

>  <EState_VSA7>
10.63

>  <EState_VSA8>
0

>  <EState_VSA9>
27.08

>  <EState_VSA10>
19.18

>  <VSA_EState1>
0

>  <VSA_EState2>
43.05

>  <VSA_EState3>
29.27

>  <VSA_EState4>
-0.6

>  <VSA_EState5>
-6.4

>  <VSA_EState6>
3.82

>  <VSA_EState7>
0

>  <VSA_EState8>
0

>  <VSA_EState9>
0

>  <apol>
32.66

>  <bpol>
11.71

>  <nRing>
1

>  <nHRing>
0

>  <naRing>
1

>  <naHRing>
0

>  <nARing 2>
0

>  <nAHRing 2>
0

>  <nFRing>
0

>  <nFHRing>
0

>  <nFaRing>
0

>  <nFaHRing>
0

>  <nFARing 2>
0

>  <nFAHRing 2>
0

>  <nRot>
2

>  <SLogP>
0.26

>  <SMR>
68.7

>  <TopoPSA(NO)>
156.59

>  <TopoPSA>
156.59

>  <JGI1>
0.29

>  <JGI2>
0.1

>  <JGI3>
0.05

>  <JGI4>
0.05

>  <JGI5>
0.03

>  <Diameter>
10

>  <Radius>
5

>  <TMWC10>
113.94

>  <TSRW10>
54.25

>  <MW>
310.99

>  <AMW>
11.52

>  <WPath>
946

>  <WPol>
31

>  <Zagreb1>
100

>  <Zagreb2>
113

>  <mZagreb2>
4.78

>  <yes>


>  <nAR-cont>
0.336376

>  <nHA-cont>
0.994529749

>  <MWHBN>
0.510351384

>  <MWHBN-cont>
0

>  <TPSA-cont>
0

>  <pka_cont>
0.97

>  <yes.1>


>  <BBB_SCORE>
1.815905749

>  <MMFF94 Energy>
101.88

$$$$
Compound 2654
Actelion Java MolfileCreator 2.0

  0  0  0  0  0  0              0 V3000
M  V30 BEGIN CTAB
M  V30 COUNTS 49 50 0 0 0
M  V30 BEGIN ATOM
M  V30 1 O -3.2851 0.3906 -1.3286 0
M  V30 2 C -3.2095 -0.8939 -1.7908 0
M  V30 3 C -2.071 0.9961 -0.8811 0
M  V30 4 C -4.4215 -1.4179 -2.2513 0
M  V30 5 C -2.0611 -1.6867 -1.8309 0
M  V30 6 C -2.3991 2.4224 -0.4426 0
M  V30 7 C -4.4924 -2.7205 -2.7509 0
M  V30 8 C -2.1249 -2.9921 -2.3325 0
M  V30 9 C -1.1722 3.2506 -0.0589 0
M  V30 10 C -3.3399 -3.5076 -2.7942 0
M  V30 11 C -0.4261 2.7042 1.1571 0
M  V30 12 C -3.4095 -4.8956 -3.3201 0
M  V30 13 C 0.7027 3.6402 1.5889 0
M  V30 14 N -2.475 -5.4001 -4.0613 0
M  V30 15 N -4.4709 -5.6852 -3.0283 0
M  V30 16 O 1.3776 3.1163 2.7325 0
M  V30 17 C 2.4258 2.2593 2.5503 0
M  V30 18 C 3.0554 1.8606 3.7342 0
M  V30 19 C 2.8912 1.7651 1.3309 0
M  V30 20 C 4.1399 0.9802 3.7077 0
M  V30 21 C 3.9799 0.8852 1.2964 0
M  V30 22 C 4.6018 0.4912 2.4847 0
M  V30 23 C 5.7567 -0.4424 2.4416 0
M  V30 24 N 5.9117 -1.3887 3.3117 0
M  V30 25 N 6.6971 -0.3232 1.4739 0
M  V30 26 H -1.3416 1.0239 -1.6994 0
M  V30 27 H -1.6684 0.4294 -0.0343 0
M  V30 28 H -5.3178 -0.8019 -2.2247 0
M  V30 29 H -1.1025 -1.3253 -1.4738 0
M  V30 30 H -2.9291 2.9313 -1.258 0
M  V30 31 H -3.1096 2.3917 0.3932 0
M  V30 32 H -5.4398 -3.101 -3.1222 0
M  V30 33 H -1.2284 -3.6071 -2.3353 0
M  V30 34 H -1.5037 4.275 0.1518 0
M  V30 35 H -0.4882 3.3101 -0.9143 0
M  V30 36 H -0.0192 1.7111 0.9392 0
M  V30 37 H -1.1181 2.5667 1.9974 0
M  V30 38 H 1.3927 3.8822 0.7727 0
M  V30 39 H 0.2669 4.5964 1.9024 0
M  V30 40 H -1.743 -4.7099 -4.2509 0
M  V30 41 H -5.1947 -5.4269 -2.3743 0
M  V30 42 H -4.459 -6.627 -3.3985 0
M  V30 43 H 2.6992 2.2449 4.6877 0
M  V30 44 H 2.4274 2.0324 0.3878 0
M  V30 45 H 4.6273 0.7031 4.6387 0
M  V30 46 H 4.32 0.4929 0.3417 0
M  V30 47 H 5.1304 -1.4122 3.9737 0
M  V30 48 H 6.7365 0.4498 0.8269 0
M  V30 49 H 7.4719 -0.9738 1.506 0
M  V30 END ATOM
M  V30 BEGIN BOND
M  V30 1 1 1 2
M  V30 2 1 1 3
M  V30 3 2 2 4
M  V30 4 1 2 5
M  V30 5 1 3 6
M  V30 6 1 4 7
M  V30 7 2 5 8
M  V30 8 1 6 9
M  V30 9 2 7 10
M  V30 10 1 9 11
M  V30 11 1 10 12
M  V30 12 1 11 13
M  V30 13 2 12 14
M  V30 14 1 12 15
M  V30 15 1 13 16
M  V30 16 1 16 17
M  V30 17 2 17 18
M  V30 18 1 17 19
M  V30 19 1 18 20
M  V30 20 2 19 21
M  V30 21 2 20 22
M  V30 22 1 22 23
M  V30 23 2 23 24
M  V30 24 1 23 25
M  V30 25 1 8 10
M  V30 26 1 21 22
M  V30 27 1 3 26
M  V30 28 1 3 27
M  V30 29 1 4 28
M  V30 30 1 5 29
M  V30 31 1 6 30
M  V30 32 1 6 31
M  V30 33 1 7 32
M  V30 34 1 8 33
M  V30 35 1 9 34
M  V30 36 1 9 35
M  V30 37 1 11 36
M  V30 38 1 11 37
M  V30 39 1 13 38
M  V30 40 1 13 39
M  V30 41 1 14 40
M  V30 42 1 15 41
M  V30 43 1 15 42
M  V30 44 1 18 43
M  V30 45 1 19 44
M  V30 46 1 20 45
M  V30 47 1 21 46
M  V30 48 1 24 47
M  V30 49 1 25 48
M  V30 50 1 25 49
M  V30 END BOND
M  V30 END CTAB
M  END
>  <Column 1>
3323

>  <level_0>
5529

>  <index>
5530

>  <Unnamed: 0>
5530

>  <NO.>
5542

>  <Name>
pentamidine

>  <IUPAC_name>
4-[5-(4-carbamimidoylphenoxy)pentoxy]benzenecarboximidamide

>  <SMILES>
N=C(N)c1ccc(OCCCCCOc2ccc(C(=N)N)cc2)cc1

>  <CID>
4735

>  <logBB>


>  <BBB+/BBB->
BBB-

>  <Inchi>
InChI=1S/C19H24N4O2/c20-18(21)14-4-8-16(9-5-14)24-12-2-1-3-13-25-17-10-6-15(7-11-17)19(22)23/h4-11H-1-3-12-13H2-(H3-20-21)(H3-22-23)

>  <threshold>


>  <reference>
R15|R27|

>  <group>
C

>  <Class>
-1

>  <ABC>
18.74

>  <ABCGG>
13.61

>  <nAcid>
0

>  <nBase>
4

>  <nAromAtom>
12

>  <nAromBond>
12

>  <nAtom>
49

>  <nHeavyAtom>
25

>  <nSpiro>
0

>  <nBridgehead>
0

>  <nHetero>
6

>  <nN>
4

>  <nO>
2

>  <nF>
0

>  <BalabanJ>
1.39

>  <BertzCT>
634.87

>  <nBonds>
50

>  <nBondsO>
26

>  <nBondsS>
36

>  <nBondsD>
2

>  <nBondsT>
0

>  <nBondsA>
12

>  <nBondsM>
14

>  <nBondsKS>
42

>  <nBondsKD>
8

>  <RNCG>
0.18

>  <RPCG>
0.07

>  <FCSP3>
0.26

>  <SZ>
30.33

>  <Sm>
28.34

>  <Sv>
29.96

>  <Sse>
48.97

>  <Sp>
32.18

>  <Si>
55.57

>  <MZ>
0.62

>  <Mm>
0.58

>  <Mv>
0.61

>  <Mse>
1

>  <Mp>
0.66

>  <Mi>
1.13

>  <NsCH3>
0

>  <NdCH2>
0

>  <NssCH2>
5

>  <NtCH>
0

>  <NdsCH>
0

>  <NaaCH>
8

>  <NsssCH>
0

>  <NddC>
0

>  <NtsC>
0

>  <NdssC>
2

>  <NaasC>
4

>  <NaaaC>
0

>  <NssssC>
0

>  <NsNH3>
0

>  <NsNH2>
2

>  <NssNH2>
0

>  <NdNH>
2

>  <NssNH>
0

>  <NaaNH>
0

>  <NtN>
0

>  <NsssNH>
0

>  <NdsN>
0

>  <NaaN>
0

>  <NsssN>
0

>  <NddsN>
0

>  <NaasN>
0

>  <NssssN>
0

>  <NsOH>
0

>  <NdO>
0

>  <NssO>
2

>  <NaaO>
0

>  <NsF>
0

>  <NsSiH3>
0

>  <NssSiH2>
0

>  <NsssSiH>
0

>  <NssssSi>
0

>  <NsPH2>
0

>  <NssPH>
0

>  <NsssP>
0

>  <NdsssP>
0

>  <NsssssP>
0

>  <NsSH>
0

>  <NdS>
0

>  <NssS>
0

>  <NaaS>
0

>  <NdssS>
0

>  <NddssS>
0

>  <NsCl>
0

>  <NsBr>
0

>  <NsI>
0

>  <fragCpx>
76.06

>  <fMF>
0.39

>  <nHBAcc>
4

>  <nHBDon>
4

>  <Kier1>
21.3

>  <Kier2>
11.66

>  <Lipinski>
1

>  <GhoseFilter>
1

>  <FilterItLogS>
-4.64

>  <VMcGowan>
274.11

>  <LabuteASA>
147.32

>  <PEOE_VSA1>
20.94

>  <PEOE_VSA2>
10.82

>  <PEOE_VSA3>
0

>  <PEOE_VSA4>
0

>  <PEOE_VSA5>
0

>  <PEOE_VSA6>
0

>  <PEOE_VSA7>
67.79

>  <PEOE_VSA8>
11.13

>  <PEOE_VSA9>
13.21

>  <PEOE_VSA10>
23.17

>  <PEOE_VSA11>
0

>  <PEOE_VSA12>
0

>  <PEOE_VSA13>
0

>  <SMR_VSA1>
9.47

>  <SMR_VSA2>
10.82

>  <SMR_VSA3>
0

>  <SMR_VSA4>
11.47

>  <SMR_VSA5>
19.26

>  <SMR_VSA6>
13.21

>  <SMR_VSA7>
59.66

>  <SMR_VSA8>
0

>  <SMR_VSA9>
11.5

>  <SlogP_VSA1>
20.94

>  <SlogP_VSA2>
24.89

>  <SlogP_VSA3>
0

>  <SlogP_VSA4>
10.82

>  <SlogP_VSA5>
30.39

>  <SlogP_VSA6>
48.53

>  <SlogP_VSA7>
0

>  <SlogP_VSA8>
0

>  <SlogP_VSA9>
0

>  <SlogP_VSA10>
0

>  <SlogP_VSA11>
11.5

>  <EState_VSA1>
0

>  <EState_VSA2>
11.67

>  <EState_VSA3>
24.34

>  <EState_VSA4>
30.76

>  <EState_VSA5>
0

>  <EState_VSA6>
24.27

>  <EState_VSA7>
24.27

>  <EState_VSA8>
0

>  <EState_VSA9>
31.76

>  <EState_VSA10>
0

>  <VSA_EState1>
11.31

>  <VSA_EState2>
0

>  <VSA_EState3>
14.68

>  <VSA_EState4>
12.21

>  <VSA_EState5>
1.68

>  <VSA_EState6>
14.42

>  <VSA_EState7>
2.9

>  <VSA_EState8>
1.29

>  <VSA_EState9>
0

>  <apol>
53.74

>  <bpol>
26.41

>  <nRing>
2

>  <nHRing>
0

>  <naRing>
2

>  <naHRing>
0

>  <nARing 2>
0

>  <nAHRing 2>
0

>  <nFRing>
0

>  <nFHRing>
0

>  <nFaRing>
0

>  <nFaHRing>
0

>  <nFARing 2>
0

>  <nFAHRing 2>
0

>  <nRot>
10

>  <SLogP>
2.88

>  <SMR>
99.76

>  <TopoPSA(NO)>
118.2

>  <TopoPSA>
118.2

>  <JGI1>
0.17

>  <JGI2>
0.07

>  <JGI3>
0.03

>  <JGI4>
0.03

>  <JGI5>
0.03

>  <Diameter>
18

>  <Radius>
9

>  <TMWC10>
122.96

>  <TSRW10>
58.71

>  <MW>
340.19

>  <AMW>
6.94

>  <WPath>
2120

>  <WPol>
32

>  <Zagreb1>
118

>  <Zagreb2>
130

>  <mZagreb2>
5.72

>  <yes>


>  <nAR-cont>
0.336376

>  <nHA-cont>
0.921834225

>  <MWHBN>
0.433739741

>  <MWHBN-cont>
0.345608497

>  <TPSA-cont>
0.174890602

>  <pka_cont>
0.97

>  <yes.1>


>  <BBB_SCORE>
2.611404175

>  <MMFF94 Energy>
-19.067

$$$$
Compound 2655
Actelion Java MolfileCreator 2.0

  0  0  0  0  0  0              0 V3000
M  V30 BEGIN CTAB
M  V30 COUNTS 19 19 0 0 0
M  V30 BEGIN ATOM
M  V30 1 Br 2.0415 -2.2867 -1.8781 0
M  V30 2 C 0.8127 -1.089 -1.0611 0
M  V30 3 C 1.0584 -0.4269 0.1443 0
M  V30 4 C -0.4158 -0.8989 -1.7065 0
M  V30 5 N 2.2906 -0.6708 0.8523 0 CHG=1
M  V30 6 C 0.0917 0.4088 0.7103 0
M  V30 7 C -1.4025 -0.0798 -1.1502 0
M  V30 8 O 3.3237 -0.1788 0.3803 0
M  V30 9 O 2.2151 -1.3696 1.8722 0 CHG=-1
M  V30 10 C 0.2694 1.1434 1.9768 0
M  V30 11 C -1.1402 0.5697 0.0576 0
M  V30 12 N -2.6073 0.1064 -1.7976 0
M  V30 13 O -0.6092 1.39 2.7794 0
M  V30 14 O 1.5162 1.612 2.1134 0
M  V30 15 H -0.6153 -1.4061 -2.6487 0
M  V30 16 H -1.8998 1.2142 0.4991 0
M  V30 17 H -2.821 -0.3815 -2.658 0
M  V30 18 H -3.3417 0.6664 -1.3825 0
M  V30 19 H 1.5202 2.0942 2.9689 0
M  V30 END ATOM
M  V30 BEGIN BOND
M  V30 1 1 1 2
M  V30 2 2 2 3
M  V30 3 1 2 4
M  V30 4 1 3 5
M  V30 5 1 3 6
M  V30 6 2 4 7
M  V30 7 2 5 8
M  V30 8 1 5 9
M  V30 9 1 6 10
M  V30 10 2 6 11
M  V30 11 1 7 12
M  V30 12 2 10 13
M  V30 13 1 10 14
M  V30 14 1 7 11
M  V30 15 1 4 15
M  V30 16 1 11 16
M  V30 17 1 12 17
M  V30 18 1 12 18
M  V30 19 1 14 19
M  V30 END BOND
M  V30 END CTAB
M  END
>  <Column 1>
3324

>  <level_0>
5535

>  <index>
5536

>  <Unnamed: 0>
5536

>  <NO.>
5548

>  <Name>
fludarabinephosphate

>  <IUPAC_name>
5-amino-3-bromo-2-nitrobenzoic acid

>  <SMILES>
Nc1cc(Br)c([N+](=O)[O-])c(C(=O)O)c1

>  <CID>
5300213

>  <logBB>


>  <BBB+/BBB->
BBB-

>  <Inchi>
InChI=1S/C7H5BrN2O4/c8-5-2-3(9)1-4(7(11)12)6(5)10(13)14/h1-2H-9H2-(H-11-12)

>  <threshold>


>  <reference>
R15|

>  <group>
C

>  <Class>
-1

>  <ABC>
10.39

>  <ABCGG>
10.09

>  <nAcid>
1

>  <nBase>
0

>  <nAromAtom>
6

>  <nAromBond>
6

>  <nAtom>
19

>  <nHeavyAtom>
14

>  <nSpiro>
0

>  <nBridgehead>
0

>  <nHetero>
7

>  <nN>
2

>  <nO>
4

>  <nF>
0

>  <BalabanJ>
2.75

>  <BertzCT>
418.4

>  <nBonds>
19

>  <nBondsO>
14

>  <nBondsS>
11

>  <nBondsD>
2

>  <nBondsT>
0

>  <nBondsA>
6

>  <nBondsM>
8

>  <nBondsKS>
14

>  <nBondsKD>
5

>  <RNCG>
0.28

>  <RPCG>
0.2

>  <FCSP3>
0

>  <SZ>
21.33

>  <Sm>
21.73

>  <Sv>
14.02

>  <Sse>
20.54

>  <Sp>
14.06

>  <Si>
21.51

>  <MZ>
1.12

>  <Mm>
1.14

>  <Mv>
0.74

>  <Mse>
1.08

>  <Mp>
0.74

>  <Mi>
1.13

>  <NsCH3>
0

>  <NdCH2>
0

>  <NssCH2>
0

>  <NtCH>
0

>  <NdsCH>
0

>  <NaaCH>
2

>  <NsssCH>
0

>  <NddC>
0

>  <NtsC>
0

>  <NdssC>
1

>  <NaasC>
4

>  <NaaaC>
0

>  <NssssC>
0

>  <NsNH3>
0

>  <NsNH2>
1

>  <NssNH2>
0

>  <NdNH>
0

>  <NssNH>
0

>  <NaaNH>
0

>  <NtN>
0

>  <NsssNH>
0

>  <NdsN>
0

>  <NaaN>
0

>  <NsssN>
0

>  <NddsN>
1

>  <NaasN>
0

>  <NssssN>
0

>  <NsOH>
1

>  <NdO>
2

>  <NssO>
0

>  <NaaO>
0

>  <NsF>
0

>  <NsSiH3>
0

>  <NssSiH2>
0

>  <NsssSiH>
0

>  <NssssSi>
0

>  <NsPH2>
0

>  <NssPH>
0

>  <NsssP>
0

>  <NdsssP>
0

>  <NsssssP>
0

>  <NsSH>
0

>  <NdS>
0

>  <NssS>
0

>  <NaaS>
0

>  <NdssS>
0

>  <NddssS>
0

>  <NsCl>
0

>  <NsBr>
1

>  <NsI>
0

>  <fragCpx>
14.07

>  <fMF>
0.32

>  <nHBAcc>
4

>  <nHBDon>
2

>  <Kier1>
12.07

>  <Kier2>
4.68

>  <Lipinski>
1

>  <GhoseFilter>
0

>  <FilterItLogS>
-1.97

>  <VMcGowan>
138.07

>  <LabuteASA>
86.61

>  <PEOE_VSA1>
10.84

>  <PEOE_VSA2>
10.11

>  <PEOE_VSA3>
4.79

>  <PEOE_VSA4>
0

>  <PEOE_VSA5>
0

>  <PEOE_VSA6>
0

>  <PEOE_VSA7>
28.06

>  <PEOE_VSA8>
5.69

>  <PEOE_VSA9>
9.4

>  <PEOE_VSA10>
5.56

>  <PEOE_VSA11>
0

>  <PEOE_VSA12>
0

>  <PEOE_VSA13>
5.69

>  <SMR_VSA1>
14.82

>  <SMR_VSA2>
0

>  <SMR_VSA3>
0

>  <SMR_VSA4>
0

>  <SMR_VSA5>
0

>  <SMR_VSA6>
5.73

>  <SMR_VSA7>
32.28

>  <SMR_VSA8>
0

>  <SMR_VSA9>
0

>  <SlogP_VSA1>
5.73

>  <SlogP_VSA2>
16

>  <SlogP_VSA3>
0

>  <SlogP_VSA4>
10.11

>  <SlogP_VSA5>
10.36

>  <SlogP_VSA6>
16.61

>  <SlogP_VSA7>
0

>  <SlogP_VSA8>
0

>  <SlogP_VSA9>
0

>  <SlogP_VSA10>
11.37

>  <SlogP_VSA11>
0

>  <EState_VSA1>
22.14

>  <EState_VSA2>
10.16

>  <EState_VSA3>
0

>  <EState_VSA4>
6.07

>  <EState_VSA5>
6.07

>  <EState_VSA6>
0

>  <EState_VSA7>
0

>  <EState_VSA8>
15.93

>  <EState_VSA9>
10.84

>  <EState_VSA10>
14.91

>  <VSA_EState1>
0.06

>  <VSA_EState2>
20.41

>  <VSA_EState3>
19.21

>  <VSA_EState4>
4.58

>  <VSA_EState5>
-1.38

>  <VSA_EState6>
2.33

>  <VSA_EState7>
0

>  <VSA_EState8>
0

>  <VSA_EState9>
0

>  <apol>
23.48

>  <bpol>
7.86

>  <nRing>
1

>  <nHRing>
0

>  <naRing>
1

>  <naHRing>
0

>  <nARing 2>
0

>  <nAHRing 2>
0

>  <nFRing>
0

>  <nFHRing>
0

>  <nFaRing>
0

>  <nFaHRing>
0

>  <nFARing 2>
0

>  <nFAHRing 2>
0

>  <nRot>
2

>  <SLogP>
1.64

>  <SMR>
52.17

>  <TopoPSA(NO)>
106.46

>  <TopoPSA>
106.46

>  <JGI1>
0.29

>  <JGI2>
0.09

>  <JGI3>
0.08

>  <JGI4>
0.06

>  <JGI5>
0.03

>  <Diameter>
6

>  <Radius>
3

>  <TMWC10>
97.19

>  <TSRW10>
45.61

>  <MW>
259.94

>  <AMW>
13.68

>  <WPath>
278

>  <WPol>
21

>  <Zagreb1>
68

>  <Zagreb2>
78

>  <mZagreb2>
3.11

>  <yes>


>  <nAR-cont>
0.336376

>  <nHA-cont>
0.887625254

>  <MWHBN>
0.372147146

>  <MWHBN-cont>
0.585513416

>  <TPSA-cont>
0.256843092

>  <pka_cont>
0.97

>  <yes.1>


>  <BBB_SCORE>
3.100957563

>  <MMFF94 Energy>
-19.265

$$$$
Compound 2656
Actelion Java MolfileCreator 2.0

  0  0  0  0  0  0              0 V3000
M  V30 BEGIN CTAB
M  V30 COUNTS 33 35 0 0 0
M  V30 BEGIN ATOM
M  V30 1 O -4.6039 1.775 -5.3323 0
M  V30 2 N -4.483 1.8156 -4.0994 0 CHG=1
M  V30 3 O -5.3272 2.2893 -3.3257 0 CHG=-1
M  V30 4 C -3.254 1.2637 -3.5161 0
M  V30 5 C -2.2723 0.7181 -4.3507 0
M  V30 6 C -3.0709 1.2862 -2.13 0
M  V30 7 C -1.1018 0.193 -3.7896 0
M  V30 8 C -1.8963 0.758 -1.5824 0
M  V30 9 C -0.8959 0.2047 -2.4002 0
M  V30 10 C 0.3298 -0.3462 -1.8254 0
M  V30 11 O 0.4364 -0.2885 -0.4643 0
M  V30 12 C 1.4637 -0.9405 -2.3443 0
M  V30 13 C 1.6332 -0.8431 -0.1102 0
M  V30 14 C 2.2995 -1.2592 -1.2447 0
M  V30 15 C 1.9996 -0.9096 1.2808 0
M  V30 16 N 1.2092 -0.4506 2.1971 0
M  V30 17 N 1.5665 -0.5185 3.5148 0
M  V30 18 C 2.7298 -1.0384 4.0989 0
M  V30 19 C 0.6595 0.0036 4.5109 0
M  V30 20 O 3.6967 -1.5529 3.5602 0
M  V30 21 N 2.6197 -0.8762 5.4458 0
M  V30 22 C 1.4461 -0.2779 5.7727 0
M  V30 23 O 1.0907 -0.013 6.9113 0
M  V30 24 H -2.3989 0.6927 -5.4312 0
M  V30 25 H -3.822 1.706 -1.4639 0
M  V30 26 H -0.3522 -0.226 -4.4573 0
M  V30 27 H -1.7681 0.7828 -0.5005 0
M  V30 28 H 1.67 -1.1252 -3.3889 0
M  V30 29 H 3.2702 -1.7346 -1.2756 0
M  V30 30 H 2.9775 -1.3701 1.4795 0
M  V30 31 H -0.278 -0.5558 4.4988 0
M  V30 32 H 0.5175 1.0768 4.3673 0
M  V30 33 H 3.3207 -1.1646 6.1061 0
M  V30 END ATOM
M  V30 BEGIN BOND
M  V30 1 2 1 2
M  V30 2 1 2 3
M  V30 3 1 2 4
M  V30 4 2 4 5
M  V30 5 1 4 6
M  V30 6 1 5 7
M  V30 7 2 6 8
M  V30 8 2 7 9
M  V30 9 1 9 10
M  V30 10 1 10 11
M  V30 11 2 10 12
M  V30 12 1 11 13
M  V30 13 1 12 14
M  V30 14 1 13 15
M  V30 15 2 15 16
M  V30 16 1 16 17
M  V30 17 1 17 18
M  V30 18 1 17 19
M  V30 19 2 18 20
M  V30 20 1 18 21
M  V30 21 1 19 22
M  V30 22 2 22 23
M  V30 23 1 8 9
M  V30 24 2 13 14
M  V30 25 1 21 22
M  V30 26 1 5 24
M  V30 27 1 6 25
M  V30 28 1 7 26
M  V30 29 1 8 27
M  V30 30 1 12 28
M  V30 31 1 14 29
M  V30 32 1 15 30
M  V30 33 1 19 31
M  V30 34 1 19 32
M  V30 35 1 21 33
M  V30 END BOND
M  V30 END CTAB
M  END
>  <Column 1>
3327

>  <level_0>
5540

>  <index>
5541

>  <Unnamed: 0>
5541

>  <NO.>
5553

>  <Name>
dantrolene

>  <IUPAC_name>
1-[(e)-[5-(4-nitrophenyl)furan-2-yl]methylideneamino]imidazolidine-2-4-dione

>  <SMILES>
O=C1CN(/N=C/c2ccc(-c3ccc([N+](=O)[O-])cc3)o2)C(=O)N1

>  <CID>
5378825

>  <logBB>


>  <BBB+/BBB->
BBB-

>  <Inchi>
InChI=1S/C14H10N4O5/c19-13-8-17(14(20)16-13)15-7-11-5-6-12(23-11)9-1-3-10(4-2-9)18(21)22/h1-7H-8H2-(H-16-19-20)/b15-7+

>  <threshold>


>  <reference>
R15|

>  <group>
C

>  <Class>
-1

>  <ABC>
17.99

>  <ABCGG>
14.56

>  <nAcid>
0

>  <nBase>
0

>  <nAromAtom>
11

>  <nAromBond>
11

>  <nAtom>
33

>  <nHeavyAtom>
23

>  <nSpiro>
0

>  <nBridgehead>
0

>  <nHetero>
9

>  <nN>
4

>  <nO>
5

>  <nF>
0

>  <BalabanJ>
1.37

>  <BertzCT>
808.83

>  <nBonds>
35

>  <nBondsO>
25

>  <nBondsS>
20

>  <nBondsD>
4

>  <nBondsT>
0

>  <nBondsA>
11

>  <nBondsM>
15

>  <nBondsKS>
26

>  <nBondsKD>
9

>  <RNCG>
0.2

>  <RPCG>
0.15

>  <FCSP3>
0.07

>  <SZ>
27

>  <Sm>
26.16

>  <Sv>
23.31

>  <Sse>
34.75

>  <Sp>
23.03

>  <Si>
37.29

>  <MZ>
0.82

>  <Mm>
0.79

>  <Mv>
0.71

>  <Mse>
1.05

>  <Mp>
0.7

>  <Mi>
1.13

>  <NsCH3>
0

>  <NdCH2>
0

>  <NssCH2>
1

>  <NtCH>
0

>  <NdsCH>
1

>  <NaaCH>
6

>  <NsssCH>
0

>  <NddC>
0

>  <NtsC>
0

>  <NdssC>
2

>  <NaasC>
4

>  <NaaaC>
0

>  <NssssC>
0

>  <NsNH3>
0

>  <NsNH2>
0

>  <NssNH2>
0

>  <NdNH>
0

>  <NssNH>
1

>  <NaaNH>
0

>  <NtN>
0

>  <NsssNH>
0

>  <NdsN>
1

>  <NaaN>
0

>  <NsssN>
1

>  <NddsN>
1

>  <NaasN>
0

>  <NssssN>
0

>  <NsOH>
0

>  <NdO>
3

>  <NssO>
0

>  <NaaO>
1

>  <NsF>
0

>  <NsSiH3>
0

>  <NssSiH2>
0

>  <NsssSiH>
0

>  <NssssSi>
0

>  <NsPH2>
0

>  <NssPH>
0

>  <NsssP>
0

>  <NdsssP>
0

>  <NsssssP>
0

>  <NsSH>
0

>  <NdS>
0

>  <NssS>
0

>  <NaaS>
0

>  <NdssS>
0

>  <NddssS>
0

>  <NsCl>
0

>  <NsBr>
0

>  <NsI>
0

>  <fragCpx>
119.09

>  <fMF>
0.55

>  <nHBAcc>
6

>  <nHBDon>
1

>  <Kier1>
17.81

>  <Kier2>
7.92

>  <Lipinski>
1

>  <GhoseFilter>
1

>  <FilterItLogS>
-3.3

>  <VMcGowan>
206.11

>  <LabuteASA>
128.89

>  <PEOE_VSA1>
4.42

>  <PEOE_VSA2>
20.23

>  <PEOE_VSA3>
9.8

>  <PEOE_VSA4>
5.1

>  <PEOE_VSA5>
0

>  <PEOE_VSA6>
0

>  <PEOE_VSA7>
24.27

>  <PEOE_VSA8>
17.7

>  <PEOE_VSA9>
11.14

>  <PEOE_VSA10>
18.07

>  <PEOE_VSA11>
0

>  <PEOE_VSA12>
5.91

>  <PEOE_VSA13>
5.69

>  <SMR_VSA1>
18.93

>  <SMR_VSA2>
0

>  <SMR_VSA3>
10.33

>  <SMR_VSA4>
5.1

>  <SMR_VSA5>
0

>  <SMR_VSA6>
6.54

>  <SMR_VSA7>
52.27

>  <SMR_VSA8>
0

>  <SMR_VSA9>
11.32

>  <SlogP_VSA1>
5.32

>  <SlogP_VSA2>
34.63

>  <SlogP_VSA3>
4.79

>  <SlogP_VSA4>
10.11

>  <SlogP_VSA5>
5.76

>  <SlogP_VSA6>
45.92

>  <SlogP_VSA7>
0

>  <SlogP_VSA8>
11.32

>  <SlogP_VSA9>
0

>  <SlogP_VSA10>
10.48

>  <SlogP_VSA11>
0

>  <EState_VSA1>
16.86

>  <EState_VSA2>
12.23

>  <EState_VSA3>
17.08

>  <EState_VSA4>
5.01

>  <EState_VSA5>
18.35

>  <EState_VSA6>
24.27

>  <EState_VSA7>
0

>  <EState_VSA8>
10.42

>  <EState_VSA9>
4.42

>  <EState_VSA10>
19.7

>  <VSA_EState1>
5.53

>  <VSA_EState2>
32.47

>  <VSA_EState3>
17.56

>  <VSA_EState4>
0.66

>  <VSA_EState5>
0.46

>  <VSA_EState6>
8.63

>  <VSA_EState7>
1.31

>  <VSA_EState8>
-0.13

>  <VSA_EState9>
0

>  <apol>
38.46

>  <bpol>
16.95

>  <nRing>
3

>  <nHRing>
2

>  <naRing>
2

>  <naHRing>
1

>  <nARing 2>
1

>  <nAHRing 2>
1

>  <nFRing>
0

>  <nFHRing>
0

>  <nFaRing>
0

>  <nFaHRing>
0

>  <nFARing 2>
0

>  <nFAHRing 2>
0

>  <nRot>
4

>  <SLogP>
1.74

>  <SMR>
78.64

>  <TopoPSA(NO)>
118.05

>  <TopoPSA>
118.05

>  <JGI1>
0.22

>  <JGI2>
0.08

>  <JGI3>
0.05

>  <JGI4>
0.03

>  <JGI5>
0.03

>  <Diameter>
14

>  <Radius>
7

>  <TMWC10>
121.93

>  <TSRW10>
72.86

>  <MW>
314.07

>  <AMW>
9.52

>  <WPath>
1396

>  <WPol>
31

>  <Zagreb1>
120

>  <Zagreb2>
139

>  <mZagreb2>
5

>  <yes>


>  <nAR-cont>
0.816016

>  <nHA-cont>
0.967789328

>  <MWHBN>
0.394988829

>  <MWHBN-cont>
0.495799617

>  <TPSA-cont>
0.175937695

>  <pka_cont>
0.97

>  <yes.1>


>  <BBB_SCORE>
3.364380144

>  <MMFF94 Energy>
60.344

$$$$
Compound 2657
Actelion Java MolfileCreator 2.0

  0  0  0  0  0  0              0 V3000
M  V30 BEGIN CTAB
M  V30 COUNTS 27 29 0 0 0
M  V30 BEGIN ATOM
M  V30 1 O -1.8549 0.7255 1.5321 0
M  V30 2 C -0.9752 0.3219 0.7826 0
M  V30 3 C 0.267 -0.3042 1.3148 0
M  V30 4 C -1.0616 0.5237 -0.6905 0
M  V30 5 C 0.2854 -1.0278 2.5145 0
M  V30 6 C 1.4554 -0.1406 0.5813 0
M  V30 7 C -2.2869 0.5754 -1.368 0
M  V30 8 C 0.138 0.6802 -1.4071 0
M  V30 9 O -0.866 -1.2585 3.211 0
M  V30 10 C 1.4813 -1.5636 2.9971 0
M  V30 11 C 2.654 -0.6728 1.0817 0
M  V30 12 C 1.4655 0.6587 -0.6954 0
M  V30 13 O -3.4622 0.3598 -0.7074 0
M  V30 14 C -2.3229 0.8072 -2.7447 0
M  V30 15 C 0.0899 0.9248 -2.7883 0
M  V30 16 C 2.6645 -1.3814 2.2826 0
M  V30 17 C -1.1349 0.9861 -3.4519 0
M  V30 18 H -0.6571 -1.5943 4.0958 0
M  V30 19 H 1.5052 -2.1336 3.9214 0
M  V30 20 H 3.5869 -0.5364 0.5381 0
M  V30 21 H 2.2167 0.2289 -1.3704 0
M  V30 22 H 1.7622 1.6896 -0.4663 0
M  V30 23 H -4.2098 0.6208 -1.2662 0
M  V30 24 H -3.2668 0.8405 -3.2811 0
M  V30 25 H 1.0078 1.0703 -3.3546 0
M  V30 26 H 3.596 -1.7964 2.6604 0
M  V30 27 H -1.1636 1.1694 -4.5235 0
M  V30 END ATOM
M  V30 BEGIN BOND
M  V30 1 2 1 2
M  V30 2 1 2 3
M  V30 3 1 2 4
M  V30 4 2 3 5
M  V30 5 1 3 6
M  V30 6 2 4 7
M  V30 7 1 4 8
M  V30 8 1 5 9
M  V30 9 1 5 10
M  V30 10 2 6 11
M  V30 11 1 6 12
M  V30 12 1 7 13
M  V30 13 1 7 14
M  V30 14 2 8 15
M  V30 15 2 10 16
M  V30 16 2 14 17
M  V30 17 1 8 12
M  V30 18 1 11 16
M  V30 19 1 15 17
M  V30 20 1 9 18
M  V30 21 1 10 19
M  V30 22 1 11 20
M  V30 23 1 12 21
M  V30 24 1 12 22
M  V30 25 1 13 23
M  V30 26 1 14 24
M  V30 27 1 15 25
M  V30 28 1 16 26
M  V30 29 1 17 27
M  V30 END BOND
M  V30 END CTAB
M  END
>  <Column 1>
3328

>  <level_0>
5541

>  <index>
5542

>  <Unnamed: 0>
5542

>  <NO.>
5554

>  <Name>
anthralin

>  <IUPAC_name>
1-8-dihydroxy-10h-anthracen-9-one

>  <SMILES>
O=C1c2c(O)cccc2Cc2cccc(O)c21

>  <CID>
2202

>  <logBB>


>  <BBB+/BBB->
BBB-

>  <Inchi>
InChI=1S/C14H10O3/c15-10-5-1-3-8-7-9-4-2-6-11(16)13(9)14(17)12(8)10/h1-6-15-16H-7H2

>  <threshold>


>  <reference>
R15|

>  <group>
C

>  <Class>
-1

>  <ABC>
13.52

>  <ABCGG>
11.12

>  <nAcid>
0

>  <nBase>
0

>  <nAromAtom>
12

>  <nAromBond>
12

>  <nAtom>
27

>  <nHeavyAtom>
17

>  <nSpiro>
0

>  <nBridgehead>
0

>  <nHetero>
3

>  <nN>
0

>  <nO>
3

>  <nF>
0

>  <BalabanJ>
1.83

>  <BertzCT>
575.86

>  <nBonds>
29

>  <nBondsO>
19

>  <nBondsS>
16

>  <nBondsD>
1

>  <nBondsT>
0

>  <nBondsA>
12

>  <nBondsM>
13

>  <nBondsKS>
22

>  <nBondsKD>
7

>  <RNCG>
0.31

>  <RPCG>
0.18

>  <FCSP3>
0.07

>  <SZ>
19.67

>  <Sm>
18.84

>  <Sv>
18.85

>  <Sse>
27.43

>  <Sp>
19.43

>  <Si>
29.7

>  <MZ>
0.73

>  <Mm>
0.7

>  <Mv>
0.7

>  <Mse>
1.02

>  <Mp>
0.72

>  <Mi>
1.1

>  <NsCH3>
0

>  <NdCH2>
0

>  <NssCH2>
1

>  <NtCH>
0

>  <NdsCH>
0

>  <NaaCH>
6

>  <NsssCH>
0

>  <NddC>
0

>  <NtsC>
0

>  <NdssC>
1

>  <NaasC>
6

>  <NaaaC>
0

>  <NssssC>
0

>  <NsNH3>
0

>  <NsNH2>
0

>  <NssNH2>
0

>  <NdNH>
0

>  <NssNH>
0

>  <NaaNH>
0

>  <NtN>
0

>  <NsssNH>
0

>  <NdsN>
0

>  <NaaN>
0

>  <NsssN>
0

>  <NddsN>
0

>  <NaasN>
0

>  <NssssN>
0

>  <NsOH>
2

>  <NdO>
1

>  <NssO>
0

>  <NaaO>
0

>  <NsF>
0

>  <NsSiH3>
0

>  <NssSiH2>
0

>  <NsssSiH>
0

>  <NssssSi>
0

>  <NsPH2>
0

>  <NssPH>
0

>  <NsssP>
0

>  <NdsssP>
0

>  <NsssssP>
0

>  <NsSH>
0

>  <NdS>
0

>  <NssS>
0

>  <NaaS>
0

>  <NdssS>
0

>  <NddssS>
0

>  <NsCl>
0

>  <NsBr>
0

>  <NsI>
0

>  <fragCpx>
89.03

>  <fMF>
0.52

>  <nHBAcc>
3

>  <nHBDon>
2

>  <Kier1>
12.06

>  <Kier2>
4.59

>  <Lipinski>
1

>  <GhoseFilter>
1

>  <FilterItLogS>
-3.3

>  <VMcGowan>
163.05

>  <LabuteASA>
97.96

>  <PEOE_VSA1>
10.21

>  <PEOE_VSA2>
4.79

>  <PEOE_VSA3>
0

>  <PEOE_VSA4>
0

>  <PEOE_VSA5>
0

>  <PEOE_VSA6>
24.27

>  <PEOE_VSA7>
29.68

>  <PEOE_VSA8>
0

>  <PEOE_VSA9>
11.13

>  <PEOE_VSA10>
11.5

>  <PEOE_VSA11>
0

>  <PEOE_VSA12>
5.78

>  <PEOE_VSA13>
0

>  <SMR_VSA1>
15.01

>  <SMR_VSA2>
0

>  <SMR_VSA3>
0

>  <SMR_VSA4>
0

>  <SMR_VSA5>
6.42

>  <SMR_VSA6>
0

>  <SMR_VSA7>
58.65

>  <SMR_VSA8>
0

>  <SMR_VSA9>
11.5

>  <SlogP_VSA1>
0

>  <SlogP_VSA2>
16

>  <SlogP_VSA3>
6.42

>  <SlogP_VSA4>
0

>  <SlogP_VSA5>
27.05

>  <SlogP_VSA6>
36.4

>  <SlogP_VSA7>
0

>  <SlogP_VSA8>
0

>  <SlogP_VSA9>
0

>  <SlogP_VSA10>
0

>  <SlogP_VSA11>
11.5

>  <EState_VSA1>
0

>  <EState_VSA2>
17.28

>  <EState_VSA3>
17.55

>  <EState_VSA4>
11.13

>  <EState_VSA5>
12.13

>  <EState_VSA6>
12.13

>  <EState_VSA7>
12.13

>  <EState_VSA8>
0

>  <EState_VSA9>
0

>  <EState_VSA10>
15.01

>  <VSA_EState1>
0

>  <VSA_EState2>
12.23

>  <VSA_EState3>
19.48

>  <VSA_EState4>
2.21

>  <VSA_EState5>
-0.36

>  <VSA_EState6>
10.05

>  <VSA_EState7>
0.55

>  <VSA_EState8>
0

>  <VSA_EState9>
0

>  <apol>
32.45

>  <bpol>
10.9

>  <nRing>
3

>  <nHRing>
0

>  <naRing>
2

>  <naHRing>
0

>  <nARing 2>
1

>  <nAHRing 2>
0

>  <nFRing>
1

>  <nFHRing>
0

>  <nFaRing>
0

>  <nFaHRing>
0

>  <nFARing 2>
1

>  <nFAHRing 2>
0

>  <nRot>
0

>  <SLogP>
2.23

>  <SMR>
62.45

>  <TopoPSA(NO)>
57.53

>  <TopoPSA>
57.53

>  <JGI1>
0.16

>  <JGI2>
0.08

>  <JGI3>
0.07

>  <JGI4>
0.05

>  <JGI5>
0.04

>  <Diameter>
7

>  <Radius>
4

>  <TMWC10>
109.67

>  <TSRW10>
50.62

>  <MW>
226.06

>  <AMW>
8.37

>  <WPath>
450

>  <WPol>
31

>  <Zagreb1>
94

>  <Zagreb2>
115

>  <mZagreb2>
3.67

>  <yes>


>  <nAR-cont>
0.816016

>  <nHA-cont>
0.976740822

>  <MWHBN>
0.332550912

>  <MWHBN-cont>
0.733857864

>  <TPSA-cont>
0.598404876

>  <pka_cont>
0.97

>  <yes.1>


>  <BBB_SCORE>
4.57535337

>  <MMFF94 Energy>
84.479

$$$$
Compound 2658
Actelion Java MolfileCreator 2.0

  0  0  0  0  0  0              0 V3000
M  V30 BEGIN CTAB
M  V30 COUNTS 29 29 0 0 0
M  V30 BEGIN ATOM
M  V30 1 Cl -4.2098 -2.8876 -0.6595 0
M  V30 2 C -2.5659 -2.374 -0.183 0
M  V30 3 C -2.1588 -1.1202 -0.9661 0
M  V30 4 N -0.7479 -0.7418 -0.7542 0
M  V30 5 P -0.3781 -0.0583 0.7006 0 CFG=2
M  V30 6 C -0.2093 -0.06 -1.9352 0
M  V30 7 O -1.2082 -0.5028 1.8646 0
M  V30 8 O -0.5464 1.529 0.4657 0
M  V30 9 N 1.2227 -0.3129 0.9057 0
M  V30 10 C -0.5581 1.4258 -1.9515 0
M  V30 11 C -0.021 2.1178 -0.7081 0
M  V30 12 C 1.8189 0.1477 2.1577 0
M  V30 13 C 3.3326 -0.064 2.1888 0
M  V30 14 Cl 4.1333 0.8488 0.8782 0
M  V30 15 H -2.5881 -2.2136 0.8951 0
M  V30 16 H -1.8912 -3.2079 -0.3998 0
M  V30 17 H -2.3318 -1.3367 -2.0283 0
M  V30 18 H -2.8148 -0.28 -0.7063 0
M  V30 19 H -0.5402 -0.5368 -2.8657 0
M  V30 20 H 0.8818 -0.1699 -1.9361 0
M  V30 21 H 1.7903 0.0128 0.1336 0
M  V30 22 H -1.6467 1.5478 -2.0014 0
M  V30 23 H -0.1336 1.8952 -2.8457 0
M  V30 24 H -0.3148 3.1722 -0.7153 0
M  V30 25 H 1.0728 2.0839 -0.6746 0
M  V30 26 H 1.598 1.2117 2.3026 0
M  V30 27 H 1.3699 -0.398 2.9946 0
M  V30 28 H 3.589 -1.1206 2.0645 0
M  V30 29 H 3.7489 0.2864 3.1378 0
M  V30 END ATOM
M  V30 BEGIN BOND
M  V30 1 1 1 2
M  V30 2 1 2 3
M  V30 3 1 3 4
M  V30 4 1 4 5
M  V30 5 1 4 6
M  V30 6 2 5 7
M  V30 7 1 5 8
M  V30 8 1 5 9
M  V30 9 1 6 10
M  V30 10 1 8 11
M  V30 11 1 9 12
M  V30 12 1 12 13
M  V30 13 1 13 14
M  V30 14 1 10 11
M  V30 15 1 2 15
M  V30 16 1 2 16
M  V30 17 1 3 17
M  V30 18 1 3 18
M  V30 19 1 6 19
M  V30 20 1 6 20
M  V30 21 1 9 21
M  V30 22 1 10 22
M  V30 23 1 10 23
M  V30 24 1 11 24
M  V30 25 1 11 25
M  V30 26 1 12 26
M  V30 27 1 12 27
M  V30 28 1 13 28
M  V30 29 1 13 29
M  V30 END BOND
M  V30 BEGIN COLLECTION
M  V30 MDLV30/STERAC1 ATOMS=(1 5)
M  V30 END COLLECTION
M  V30 END CTAB
M  END
>  <Column 1>
3329

>  <level_0>
5542

>  <index>
5543

>  <Unnamed: 0>
5543

>  <NO.>
5555

>  <Name>
ifosfamide

>  <IUPAC_name>
n-3-bis(2-chloroethyl)-2-oxo-1-3-2lambda5-oxazaphosphinan-2-amine

>  <SMILES>
O=P1(NCCCl)OCCCN1CCCl

>  <CID>
3690

>  <logBB>


>  <BBB+/BBB->
BBB-

>  <Inchi>
InChI=1S/C7H15Cl2N2O2P/c8-2-4-10-14(12)11(6-3-9)5-1-7-13-14/h1-7H2-(H-10-12)

>  <threshold>


>  <reference>
R15|R23|

>  <group>
C

>  <Class>
-1

>  <ABC>
10

>  <ABCGG>
9.46

>  <nAcid>
0

>  <nBase>
0

>  <nAromAtom>
0

>  <nAromBond>
0

>  <nAtom>
29

>  <nHeavyAtom>
14

>  <nSpiro>
0

>  <nBridgehead>
0

>  <nHetero>
7

>  <nN>
2

>  <nO>
2

>  <nF>
0

>  <BalabanJ>
2.49

>  <BertzCT>
215.87

>  <nBonds>
29

>  <nBondsO>
14

>  <nBondsS>
28

>  <nBondsD>
1

>  <nBondsT>
0

>  <nBondsA>
0

>  <nBondsM>
1

>  <nBondsKS>
28

>  <nBondsKD>
1

>  <RNCG>
0.24

>  <RPCG>
0.27

>  <FCSP3>
1

>  <SZ>
22.67

>  <Sm>
21.74

>  <Sv>
17.38

>  <Sse>
29.59

>  <Sp>
20.05

>  <Si>
33.35

>  <MZ>
0.78

>  <Mm>
0.75

>  <Mv>
0.6

>  <Mse>
1.02

>  <Mp>
0.69

>  <Mi>
1.15

>  <NsCH3>
0

>  <NdCH2>
0

>  <NssCH2>
7

>  <NtCH>
0

>  <NdsCH>
0

>  <NaaCH>
0

>  <NsssCH>
0

>  <NddC>
0

>  <NtsC>
0

>  <NdssC>
0

>  <NaasC>
0

>  <NaaaC>
0

>  <NssssC>
0

>  <NsNH3>
0

>  <NsNH2>
0

>  <NssNH2>
0

>  <NdNH>
0

>  <NssNH>
1

>  <NaaNH>
0

>  <NtN>
0

>  <NsssNH>
0

>  <NdsN>
0

>  <NaaN>
0

>  <NsssN>
1

>  <NddsN>
0

>  <NaasN>
0

>  <NssssN>
0

>  <NsOH>
0

>  <NdO>
1

>  <NssO>
1

>  <NaaO>
0

>  <NsF>
0

>  <NsSiH3>
0

>  <NssSiH2>
0

>  <NsssSiH>
0

>  <NssssSi>
0

>  <NsPH2>
0

>  <NssPH>
0

>  <NsssP>
0

>  <NdsssP>
1

>  <NsssssP>
0

>  <NsSH>
0

>  <NdS>
0

>  <NssS>
0

>  <NaaS>
0

>  <NdssS>
0

>  <NddssS>
0

>  <NsCl>
2

>  <NsBr>
0

>  <NsI>
0

>  <fragCpx>
14.07

>  <fMF>
0.21

>  <nHBAcc>
2

>  <nHBDon>
1

>  <Kier1>
12.07

>  <Kier2>
5.78

>  <Lipinski>
1

>  <GhoseFilter>
1

>  <FilterItLogS>
-2.71

>  <VMcGowan>
175.27

>  <LabuteASA>
94.44

>  <PEOE_VSA1>
4.52

>  <PEOE_VSA2>
4.57

>  <PEOE_VSA3>
9.76

>  <PEOE_VSA4>
0

>  <PEOE_VSA5>
23.2

>  <PEOE_VSA6>
0

>  <PEOE_VSA7>
6.42

>  <PEOE_VSA8>
31.39

>  <PEOE_VSA9>
6.61

>  <PEOE_VSA10>
0

>  <PEOE_VSA11>
0

>  <PEOE_VSA12>
0

>  <PEOE_VSA13>
0

>  <SMR_VSA1>
9.09

>  <SMR_VSA2>
0

>  <SMR_VSA3>
9.76

>  <SMR_VSA4>
0

>  <SMR_VSA5>
6.42

>  <SMR_VSA6>
38

>  <SMR_VSA7>
0

>  <SMR_VSA8>
0

>  <SMR_VSA9>
0

>  <SlogP_VSA1>
5.09

>  <SlogP_VSA2>
42.67

>  <SlogP_VSA3>
9.09

>  <SlogP_VSA4>
0

>  <SlogP_VSA5>
6.42

>  <SlogP_VSA6>
0

>  <SlogP_VSA7>
0

>  <SlogP_VSA8>
0

>  <SlogP_VSA9>
0

>  <SlogP_VSA10>
0

>  <SlogP_VSA11>
0

>  <EState_VSA1>
7.67

>  <EState_VSA2>
0

>  <EState_VSA3>
31.46

>  <EState_VSA4>
12.97

>  <EState_VSA5>
0

>  <EState_VSA6>
4.67

>  <EState_VSA7>
0

>  <EState_VSA8>
5.09

>  <EState_VSA9>
27.73

>  <EState_VSA10>
4.57

>  <VSA_EState1>
19.25

>  <VSA_EState2>
0

>  <VSA_EState3>
2.85

>  <VSA_EState4>
0

>  <VSA_EState5>
0.87

>  <VSA_EState6>
0

>  <VSA_EState7>
0.89

>  <VSA_EState8>
2.36

>  <VSA_EState9>
-2.84

>  <apol>
33.49

>  <bpol>
28.79

>  <nRing>
1

>  <nHRing>
1

>  <naRing>
0

>  <naHRing>
0

>  <nARing 2>
1

>  <nAHRing 2>
1

>  <nFRing>
0

>  <nFHRing>
0

>  <nFaRing>
0

>  <nFaHRing>
0

>  <nFARing 2>
0

>  <nFAHRing 2>
0

>  <nRot>
5

>  <SLogP>
1.88

>  <SMR>
59.19

>  <TopoPSA(NO)>
41.57

>  <TopoPSA>
51.38

>  <JGI1>
0.21

>  <JGI2>
0.11

>  <JGI3>
0.05

>  <JGI4>
0.04

>  <JGI5>
0.02

>  <Diameter>
8

>  <Radius>
4

>  <TMWC10>
95.97

>  <TSRW10>
45.21

>  <MW>
260.02

>  <AMW>
8.97

>  <WPath>
307

>  <WPol>
19

>  <Zagreb1>
64

>  <Zagreb2>
72

>  <mZagreb2>
3.42

>  <yes>


>  <nAR-cont>
0.816016

>  <nHA-cont>
0.887625254

>  <MWHBN>
0.186044946

>  <MWHBN-cont>
0.992838383

>  <TPSA-cont>
0.641335695

>  <pka_cont>
0.97

>  <yes.1>


>  <BBB_SCORE>
4.960570219

>  <MMFF94 Energy>
-163.35

$$$$
Compound 2659
Actelion Java MolfileCreator 2.0

  0  0  0  0  0  0              0 V3000
M  V30 BEGIN CTAB
M  V30 COUNTS 67 68 0 0 0
M  V30 BEGIN ATOM
M  V30 1 O -3.2927 0.5482 -2.5864 0
M  V30 2 C -2.8252 -0.0635 -3.7873 0
M  V30 3 C -2.8533 -0.1188 -1.404 0
M  V30 4 C -3.397 0.7145 -4.9672 0
M  V30 5 C -1.4374 0.3078 -1.0232 0
M  V30 6 C -2.948 0.1249 -6.3019 0
M  V30 7 C -1.0067 -0.3049 0.3085 0
M  V30 8 C -3.5274 0.9123 -7.4787 0
M  V30 9 C 0.4103 0.1279 0.6878 0
M  V30 10 C -3.0874 0.3365 -8.8013 0
M  V30 11 C 0.8406 -0.4839 2.0226 0
M  V30 12 C -1.9063 0.7793 -9.4114 0
M  V30 13 C -3.8386 -0.6693 -9.4234 0
M  V30 14 C 2.2574 -0.0473 2.4008 0
M  V30 15 C -1.4907 0.2333 -10.6267 0
M  V30 16 C -3.4213 -1.2141 -10.6387 0
M  V30 17 N 2.6249 -0.6424 3.6843 0
M  V30 18 C -2.2484 -0.7623 -11.2404 0
M  V30 19 C 3.9925 -0.2494 4.0819 0
M  V30 20 C 4.4944 -1.0024 5.344 0 CFG=2
M  V30 21 O 4.2451 -2.406 5.1678 0
M  V30 22 C 3.9564 -0.5578 6.6929 0
M  V30 23 C 2.7555 0.1525 6.8516 0
M  V30 24 C 4.6759 -0.9081 7.8469 0
M  V30 25 C 2.2755 0.5305 8.1224 0
M  V30 26 C 4.2179 -0.5436 9.1121 0
M  V30 27 C 3.0308 0.1693 9.2423 0
M  V30 28 C 0.9718 1.2865 8.182 0
M  V30 29 O 2.6501 0.4884 10.5153 0
M  V30 30 O 0.6185 1.6539 9.5157 0
M  V30 31 H -3.1636 -1.1052 -3.8237 0
M  V30 32 H -1.7314 -0.0411 -3.8202 0
M  V30 33 H -2.9305 -1.2059 -1.5229 0
M  V30 34 H -3.5454 0.1704 -0.6056 0
M  V30 35 H -4.4923 0.7183 -4.9028 0
M  V30 36 H -3.0881 1.7647 -4.8928 0
M  V30 37 H -0.7324 0.0143 -1.809 0
M  V30 38 H -1.3917 1.4026 -0.9705 0
M  V30 39 H -3.2633 -0.9242 -6.3639 0
M  V30 40 H -1.8519 0.1286 -6.3542 0
M  V30 41 H -1.0515 -1.3986 0.2406 0
M  V30 42 H -1.7064 -7.0E-4 1.0965 0
M  V30 43 H -4.6237 0.9155 -7.4297 0
M  V30 44 H -3.2199 1.9641 -7.4191 0
M  V30 45 H 0.4547 1.2218 0.7539 0
M  V30 46 H 1.1107 -0.1773 -0.0989 0
M  V30 47 H 0.1368 -0.1792 2.8077 0
M  V30 48 H 0.794 -1.5781 1.9538 0
M  V30 49 H -1.3033 1.5534 -8.9425 0
M  V30 50 H -4.7544 -1.034 -8.9639 0
M  V30 51 H 2.2943 1.046 2.4727 0
M  V30 52 H 2.9585 -0.3612 1.6185 0
M  V30 53 H -0.5749 0.5848 -11.0943 0
M  V30 54 H -4.0117 -1.9919 -11.1156 0
M  V30 55 H 2.6173 -1.6635 3.6083 0
M  V30 56 H -1.9243 -1.1867 -12.1866 0
M  V30 57 H 4.0524 0.8339 4.2382 0
M  V30 58 H 4.6705 -0.51 3.2589 0
M  V30 59 H 5.5846 -0.8766 5.3659 0
M  V30 60 H 3.5655 -2.6519 5.8203 0
M  V30 61 H 2.1646 0.4197 5.977 0
M  V30 62 H 5.6024 -1.4735 7.7652 0
M  V30 63 H 4.7835 -0.8165 9.9988 0
M  V30 64 H 1.0519 2.2055 7.5919 0
M  V30 65 H 0.1668 0.6618 7.781 0
M  V30 66 H 1.8141 0.9986 10.4329 0
M  V30 67 H -0.2234 2.1394 9.444 0
M  V30 END ATOM
M  V30 BEGIN BOND
M  V30 1 1 1 2
M  V30 2 1 1 3
M  V30 3 1 2 4
M  V30 4 1 3 5
M  V30 5 1 4 6
M  V30 6 1 5 7
M  V30 7 1 6 8
M  V30 8 1 7 9
M  V30 9 1 8 10
M  V30 10 1 9 11
M  V30 11 2 10 12
M  V30 12 1 10 13
M  V30 13 1 11 14
M  V30 14 1 12 15
M  V30 15 2 13 16
M  V30 16 1 14 17
M  V30 17 2 15 18
M  V30 18 1 17 19
M  V30 19 1 19 20
M  V30 20 1 20 21
M  V30 21 1 20 22
M  V30 22 2 22 23
M  V30 23 1 22 24
M  V30 24 1 23 25
M  V30 25 2 24 26
M  V30 26 2 25 27
M  V30 27 1 25 28
M  V30 28 1 27 29
M  V30 29 1 28 30
M  V30 30 1 16 18
M  V30 31 1 26 27
M  V30 32 1 2 31
M  V30 33 1 2 32
M  V30 34 1 3 33
M  V30 35 1 3 34
M  V30 36 1 4 35
M  V30 37 1 4 36
M  V30 38 1 5 37
M  V30 39 1 5 38
M  V30 40 1 6 39
M  V30 41 1 6 40
M  V30 42 1 7 41
M  V30 43 1 7 42
M  V30 44 1 8 43
M  V30 45 1 8 44
M  V30 46 1 9 45
M  V30 47 1 9 46
M  V30 48 1 11 47
M  V30 49 1 11 48
M  V30 50 1 12 49
M  V30 51 1 13 50
M  V30 52 1 14 51
M  V30 53 1 14 52
M  V30 54 1 15 53
M  V30 55 1 16 54
M  V30 56 1 17 55
M  V30 57 1 18 56
M  V30 58 1 19 57
M  V30 59 1 19 58
M  V30 60 1 20 59
M  V30 61 1 21 60
M  V30 62 1 23 61
M  V30 63 1 24 62
M  V30 64 1 26 63
M  V30 65 1 28 64
M  V30 66 1 28 65
M  V30 67 1 29 66
M  V30 68 1 30 67
M  V30 END BOND
M  V30 BEGIN COLLECTION
M  V30 MDLV30/STERAC1 ATOMS=(1 20)
M  V30 END COLLECTION
M  V30 END CTAB
M  END
>  <Column 1>
3331

>  <level_0>
5545

>  <index>
5546

>  <Unnamed: 0>
5546

>  <NO.>
5558

>  <Name>
salmeterol

>  <IUPAC_name>
2-(hydroxymethyl)-4-[1-hydroxy-2-[6-(4-phenylbutoxy)hexylamino]ethyl]phenol

>  <SMILES>
OCc1cc(C(O)CNCCCCCCOCCCCc2ccccc2)ccc1O

>  <CID>
5152

>  <logBB>


>  <BBB+/BBB->
BBB-

>  <Inchi>
InChI=1S/C25H37NO4/c27-20-23-18-22(13-14-24(23)28)25(29)19-26-15-7-1-2-8-16-30-17-9-6-12-21-10-4-3-5-11-21/h3-5-10-11-13-14-18-25-29H-1-2-6-9-12-15-17-19-20H2

>  <threshold>


>  <reference>
R15|R23|

>  <group>
C

>  <Class>
-1

>  <ABC>
22.06

>  <ABCGG>
15.61

>  <nAcid>
0

>  <nBase>
1

>  <nAromAtom>
12

>  <nAromBond>
12

>  <nAtom>
67

>  <nHeavyAtom>
30

>  <nSpiro>
0

>  <nBridgehead>
0

>  <nHetero>
5

>  <nN>
1

>  <nO>
4

>  <nF>
0

>  <BalabanJ>
1.31

>  <BertzCT>
692.8

>  <nBonds>
68

>  <nBondsO>
31

>  <nBondsS>
56

>  <nBondsD>
0

>  <nBondsT>
0

>  <nBondsA>
12

>  <nBondsM>
12

>  <nBondsKS>
62

>  <nBondsKD>
6

>  <RNCG>
0.18

>  <RPCG>
0.11

>  <FCSP3>
0.52

>  <SZ>
37.67

>  <Sm>
34.6

>  <Sv>
38.64

>  <Sse>
66.41

>  <Sp>
42.35

>  <Si>
75.81

>  <MZ>
0.56

>  <Mm>
0.52

>  <Mv>
0.58

>  <Mse>
0.99

>  <Mp>
0.63

>  <Mi>
1.13

>  <NsCH3>
0

>  <NdCH2>
0

>  <NssCH2>
12

>  <NtCH>
0

>  <NdsCH>
0

>  <NaaCH>
8

>  <NsssCH>
1

>  <NddC>
0

>  <NtsC>
0

>  <NdssC>
0

>  <NaasC>
4

>  <NaaaC>
0

>  <NssssC>
0

>  <NsNH3>
0

>  <NsNH2>
0

>  <NssNH2>
0

>  <NdNH>
0

>  <NssNH>
1

>  <NaaNH>
0

>  <NtN>
0

>  <NsssNH>
0

>  <NdsN>
0

>  <NaaN>
0

>  <NsssN>
0

>  <NddsN>
0

>  <NaasN>
0

>  <NssssN>
0

>  <NsOH>
3

>  <NdO>
0

>  <NssO>
1

>  <NaaO>
0

>  <NsF>
0

>  <NsSiH3>
0

>  <NssSiH2>
0

>  <NsssSiH>
0

>  <NssssSi>
0

>  <NsPH2>
0

>  <NssPH>
0

>  <NsssP>
0

>  <NdsssP>
0

>  <NsssssP>
0

>  <NsSH>
0

>  <NdS>
0

>  <NssS>
0

>  <NaaS>
0

>  <NdssS>
0

>  <NddssS>
0

>  <NsCl>
0

>  <NsBr>
0

>  <NsI>
0

>  <fragCpx>
91.05

>  <fMF>
0.39

>  <nHBAcc>
5

>  <nHBDon>
4

>  <Kier1>
26.25

>  <Kier2>
16.61

>  <Lipinski>
1

>  <GhoseFilter>
1

>  <FilterItLogS>
-6.58

>  <VMcGowan>
349.05

>  <LabuteASA>
180.28

>  <PEOE_VSA1>
25.37

>  <PEOE_VSA2>
0

>  <PEOE_VSA3>
0

>  <PEOE_VSA4>
0

>  <PEOE_VSA5>
0

>  <PEOE_VSA6>
49.24

>  <PEOE_VSA7>
61.91

>  <PEOE_VSA8>
25.32

>  <PEOE_VSA9>
12.71

>  <PEOE_VSA10>
5.75

>  <PEOE_VSA11>
0

>  <PEOE_VSA12>
0

>  <PEOE_VSA13>
0

>  <SMR_VSA1>
20.06

>  <SMR_VSA2>
0

>  <SMR_VSA3>
5.32

>  <SMR_VSA4>
0

>  <SMR_VSA5>
57.66

>  <SMR_VSA6>
26.3

>  <SMR_VSA7>
65.22

>  <SMR_VSA8>
0

>  <SMR_VSA9>
5.75

>  <SlogP_VSA1>
5.32

>  <SlogP_VSA2>
41.62

>  <SlogP_VSA3>
17.76

>  <SlogP_VSA4>
0

>  <SlogP_VSA5>
61.32

>  <SlogP_VSA6>
48.53

>  <SlogP_VSA7>
0

>  <SlogP_VSA8>
0

>  <SlogP_VSA9>
0

>  <SlogP_VSA10>
0

>  <SlogP_VSA11>
5.75

>  <EState_VSA1>
6.1

>  <EState_VSA2>
12.36

>  <EState_VSA3>
17.67

>  <EState_VSA4>
58.28

>  <EState_VSA5>
18.05

>  <EState_VSA6>
12.13

>  <EState_VSA7>
0

>  <EState_VSA8>
35.65

>  <EState_VSA9>
4.74

>  <EState_VSA10>
15.32

>  <VSA_EState1>
5.72

>  <VSA_EState2>
0

>  <VSA_EState3>
32.26

>  <VSA_EState4>
2.53

>  <VSA_EState5>
0.05

>  <VSA_EState6>
15.42

>  <VSA_EState7>
7.24

>  <VSA_EState8>
2.77

>  <VSA_EState9>
0

>  <apol>
70.73

>  <bpol>
39.42

>  <nRing>
2

>  <nHRing>
0

>  <naRing>
2

>  <naHRing>
0

>  <nARing 2>
0

>  <nAHRing 2>
0

>  <nFRing>
0

>  <nFHRing>
0

>  <nFaRing>
0

>  <nFaHRing>
0

>  <nFARing 2>
0

>  <nFAHRing 2>
0

>  <nRot>
16

>  <SLogP>
4.11

>  <SMR>
120.53

>  <TopoPSA(NO)>
81.95

>  <TopoPSA>
81.95

>  <JGI1>
0.11

>  <JGI2>
0.06

>  <JGI3>
0.03

>  <JGI4>
0.03

>  <JGI5>
0.02

>  <Diameter>
22

>  <Radius>
11

>  <TMWC10>
133.8

>  <TSRW10>
64.23

>  <MW>
415.27

>  <AMW>
6.2

>  <WPath>
3802

>  <WPol>
37

>  <Zagreb1>
136

>  <Zagreb2>
148

>  <mZagreb2>
7.14

>  <yes>


>  <nAR-cont>
0.336376

>  <nHA-cont>
0.74523694

>  <MWHBN>
0.441648979

>  <MWHBN-cont>
0.316213275

>  <TPSA-cont>
0.427938112

>  <pka_cont>
0.97

>  <yes.1>


>  <BBB_SCORE>
2.896809077

>  <MMFF94 Energy>
65.403

$$$$
Compound 2660
Actelion Java MolfileCreator 2.0

  0  0  0  0  0  0              0 V3000
M  V30 BEGIN CTAB
M  V30 COUNTS 37 39 0 0 0
M  V30 BEGIN ATOM
M  V30 1 Cl 1.291 -4.524 -1.4524 0
M  V30 2 C 0.624 -2.9198 -1.4279 0
M  V30 3 C 0.0917 -2.4293 -2.6265 0
M  V30 4 C 0.6255 -2.1249 -0.2576 0
M  V30 5 O 0.0815 -3.1911 -3.768 0
M  V30 6 C -0.4411 -1.1492 -2.6748 0
M  V30 7 C 0.0998 -0.8038 -0.3153 0
M  V30 8 C 1.182 -2.6495 1.052 0
M  V30 9 O -0.9668 -0.6819 -3.847 0
M  V30 10 C -0.4355 -0.344 -1.5382 0
M  V30 11 C 0.126 0.0982 0.9344 0 CFG=2
M  V30 12 C 2.4585 -1.92 1.4784 0
M  V30 13 C -0.6752 1.4017 0.8013 0
M  V30 14 C 1.5843 0.3754 1.4122 0
M  V30 15 N 2.2053 -0.6848 2.2209 0
M  V30 16 C -2.0277 1.4179 1.1866 0
M  V30 17 C -0.1163 2.5793 0.2705 0
M  V30 18 C -2.792 2.579 1.0589 0
M  V30 19 C -0.8824 3.7418 0.145 0
M  V30 20 C -2.2143 3.7309 0.5424 0
M  V30 21 O -2.9975 4.8415 0.4354 0
M  V30 22 H 0.4794 -4.0512 -3.5459 0
M  V30 23 H 1.4118 -3.7171 0.9924 0
M  V30 24 H 0.4092 -2.5905 1.8296 0
M  V30 25 H -1.3742 0.1846 -3.6928 0
M  V30 26 H -0.8565 0.654 -1.6158 0
M  V30 27 H -0.3777 -0.4578 1.7386 0
M  V30 28 H 3.1238 -1.7345 0.6262 0
M  V30 29 H 3.0051 -2.5831 2.1601 0
M  V30 30 H 1.5781 1.2578 2.0651 0
M  V30 31 H 2.2346 0.6254 0.5636 0
M  V30 32 H 3.0947 -0.3358 2.5806 0
M  V30 33 H -2.4973 0.5219 1.5881 0
M  V30 34 H 0.9188 2.6023 -0.0621 0
M  V30 35 H -3.8353 2.583 1.3622 0
M  V30 36 H -0.4258 4.6368 -0.2659 0
M  V30 37 H -2.4573 5.572 0.0929 0
M  V30 END ATOM
M  V30 BEGIN BOND
M  V30 1 1 1 2
M  V30 2 2 2 3
M  V30 3 1 2 4
M  V30 4 1 3 5
M  V30 5 1 3 6
M  V30 6 2 4 7
M  V30 7 1 4 8
M  V30 8 1 6 9
M  V30 9 2 6 10
M  V30 10 1 7 11
M  V30 11 1 8 12
M  V30 12 1 11 13
M  V30 13 1 11 14
M  V30 14 1 12 15
M  V30 15 2 13 16
M  V30 16 1 13 17
M  V30 17 1 16 18
M  V30 18 2 17 19
M  V30 19 2 18 20
M  V30 20 1 20 21
M  V30 21 1 7 10
M  V30 22 1 14 15
M  V30 23 1 19 20
M  V30 24 1 5 22
M  V30 25 1 8 23
M  V30 26 1 8 24
M  V30 27 1 9 25
M  V30 28 1 10 26
M  V30 29 1 11 27
M  V30 30 1 12 28
M  V30 31 1 12 29
M  V30 32 1 14 30
M  V30 33 1 14 31
M  V30 34 1 15 32
M  V30 35 1 16 33
M  V30 36 1 17 34
M  V30 37 1 18 35
M  V30 38 1 19 36
M  V30 39 1 21 37
M  V30 END BOND
M  V30 BEGIN COLLECTION
M  V30 MDLV30/STERAC1 ATOMS=(1 11)
M  V30 END COLLECTION
M  V30 END CTAB
M  END
>  <Column 1>
3332

>  <level_0>
5546

>  <index>
5547

>  <Unnamed: 0>
5547

>  <NO.>
5559

>  <Name>
fenoldopam

>  <IUPAC_name>
9-chloro-5-(4-hydroxyphenyl)-2-3-4-5-tetrahydro-1h-3-benzazepine-7-8-diol

>  <SMILES>
Oc1ccc(C2CNCCc3c2cc(O)c(O)c3Cl)cc1

>  <CID>
3341

>  <logBB>


>  <BBB+/BBB->
BBB-

>  <Inchi>
InChI=1S/C16H16ClNO3/c17-15-11-5-6-18-8-13(9-1-3-10(19)4-2-9)12(11)7-14(20)16(15)21/h1-4-7-13-18-21H-5-6-8H2

>  <threshold>


>  <reference>
R15|R23|

>  <group>
C

>  <Class>
-1

>  <ABC>
16.46

>  <ABCGG>
13.57

>  <nAcid>
0

>  <nBase>
1

>  <nAromAtom>
12

>  <nAromBond>
12

>  <nAtom>
37

>  <nHeavyAtom>
21

>  <nSpiro>
0

>  <nBridgehead>
0

>  <nHetero>
5

>  <nN>
1

>  <nO>
3

>  <nF>
0

>  <BalabanJ>
1.76

>  <BertzCT>
670.21

>  <nBonds>
39

>  <nBondsO>
23

>  <nBondsS>
27

>  <nBondsD>
0

>  <nBondsT>
0

>  <nBondsA>
12

>  <nBondsM>
12

>  <nBondsKS>
33

>  <nBondsKD>
6

>  <RNCG>
0.23

>  <RPCG>
0.13

>  <FCSP3>
0.25

>  <SZ>
26.67

>  <Sm>
25.46

>  <Sv>
24.33

>  <Sse>
37.52

>  <Sp>
25.79

>  <Si>
41.39

>  <MZ>
0.72

>  <Mm>
0.69

>  <Mv>
0.66

>  <Mse>
1.01

>  <Mp>
0.7

>  <Mi>
1.12

>  <NsCH3>
0

>  <NdCH2>
0

>  <NssCH2>
3

>  <NtCH>
0

>  <NdsCH>
0

>  <NaaCH>
5

>  <NsssCH>
1

>  <NddC>
0

>  <NtsC>
0

>  <NdssC>
0

>  <NaasC>
7

>  <NaaaC>
0

>  <NssssC>
0

>  <NsNH3>
0

>  <NsNH2>
0

>  <NssNH2>
0

>  <NdNH>
0

>  <NssNH>
1

>  <NaaNH>
0

>  <NtN>
0

>  <NsssNH>
0

>  <NdsN>
0

>  <NaaN>
0

>  <NsssN>
0

>  <NddsN>
0

>  <NaasN>
0

>  <NssssN>
0

>  <NsOH>
3

>  <NdO>
0

>  <NssO>
0

>  <NaaO>
0

>  <NsF>
0

>  <NsSiH3>
0

>  <NssSiH2>
0

>  <NsssSiH>
0

>  <NssssSi>
0

>  <NsPH2>
0

>  <NssPH>
0

>  <NsssP>
0

>  <NdsssP>
0

>  <NsssssP>
0

>  <NsSH>
0

>  <NdS>
0

>  <NssS>
0

>  <NaaS>
0

>  <NdssS>
0

>  <NddssS>
0

>  <NsCl>
1

>  <NsBr>
0

>  <NsI>
0

>  <fragCpx>
109.05

>  <fMF>
0.46

>  <nHBAcc>
4

>  <nHBDon>
4

>  <Kier1>
15.88

>  <Kier2>
6.63

>  <Lipinski>
1

>  <GhoseFilter>
1

>  <FilterItLogS>
-3.97

>  <VMcGowan>
217.75

>  <LabuteASA>
127.18

>  <PEOE_VSA1>
20.64

>  <PEOE_VSA2>
0

>  <PEOE_VSA3>
0

>  <PEOE_VSA4>
0

>  <PEOE_VSA5>
0

>  <PEOE_VSA6>
23.73

>  <PEOE_VSA7>
47.86

>  <PEOE_VSA8>
12.46

>  <PEOE_VSA9>
5.02

>  <PEOE_VSA10>
5.75

>  <PEOE_VSA11>
11.5

>  <PEOE_VSA12>
0

>  <PEOE_VSA13>
0

>  <SMR_VSA1>
15.32

>  <SMR_VSA2>
0

>  <SMR_VSA3>
5.32

>  <SMR_VSA4>
0

>  <SMR_VSA5>
12.34

>  <SMR_VSA6>
13.09

>  <SMR_VSA7>
52.04

>  <SMR_VSA8>
0

>  <SMR_VSA9>
17.25

>  <SlogP_VSA1>
5.32

>  <SlogP_VSA2>
28.41

>  <SlogP_VSA3>
6.42

>  <SlogP_VSA4>
0

>  <SlogP_VSA5>
22.61

>  <SlogP_VSA6>
30.33

>  <SlogP_VSA7>
5.02

>  <SlogP_VSA8>
0

>  <SlogP_VSA9>
0

>  <SlogP_VSA10>
0

>  <SlogP_VSA11>
17.25

>  <EState_VSA1>
0

>  <EState_VSA2>
28.19

>  <EState_VSA3>
12.97

>  <EState_VSA4>
23.24

>  <EState_VSA5>
0

>  <EState_VSA6>
18.2

>  <EState_VSA7>
12.13

>  <EState_VSA8>
5.32

>  <EState_VSA9>
11.6

>  <EState_VSA10>
15.32

>  <VSA_EState1>
0

>  <VSA_EState2>
0

>  <VSA_EState3>
32.65

>  <VSA_EState4>
2.78

>  <VSA_EState5>
-0.24

>  <VSA_EState6>
8.58

>  <VSA_EState7>
0.69

>  <VSA_EState8>
1.46

>  <VSA_EState9>
0

>  <apol>
43.07

>  <bpol>
17.13

>  <nRing>
3

>  <nHRing>
1

>  <naRing>
2

>  <naHRing>
0

>  <nARing 2>
1

>  <nAHRing 2>
1

>  <nFRing>
1

>  <nFHRing>
1

>  <nFaRing>
0

>  <nFaHRing>
0

>  <nFARing 2>
1

>  <nFAHRing 2>
1

>  <nRot>
1

>  <SLogP>
2.73

>  <SMR>
81.31

>  <TopoPSA(NO)>
72.72

>  <TopoPSA>
72.72

>  <JGI1>
0.17

>  <JGI2>
0.09

>  <JGI3>
0.05

>  <JGI4>
0.04

>  <JGI5>
0.03

>  <Diameter>
10

>  <Radius>
5

>  <TMWC10>
118.52

>  <TSRW10>
63.07

>  <MW>
305.08

>  <AMW>
8.25

>  <WPath>
851

>  <WPol>
39

>  <Zagreb1>
112

>  <Zagreb2>
134

>  <mZagreb2>
4.58

>  <yes>


>  <nAR-cont>
0.816016

>  <nHA-cont>
0.994529749

>  <MWHBN>
0.458018603

>  <MWHBN-cont>
0

>  <TPSA-cont>
0.492369244

>  <pka_cont>
0.97

>  <yes.1>


>  <BBB_SCORE>
3.280284237

>  <MMFF94 Energy>
91.903

$$$$
Compound 2661
Actelion Java MolfileCreator 2.0

  0  0  0  0  0  0              0 V3000
M  V30 BEGIN CTAB
M  V30 COUNTS 19 20 0 0 0
M  V30 BEGIN ATOM
M  V30 1 Br 4.1211 -2.4025 0.8575 0
M  V30 2 C 2.4938 -1.516 0.4874 0
M  V30 3 C 2.5092 -0.2808 -0.1553 0
M  V30 4 C 1.2863 -2.1018 0.8594 0
M  V30 5 C 1.3044 0.3744 -0.4279 0
M  V30 6 C 0.0826 -1.4455 0.5846 0
M  V30 7 C 0.0777 -0.2013 -0.0636 0
M  V30 8 C -1.1807 0.4949 -0.3432 0
M  V30 9 N -1.3219 1.8364 -0.0804 0
M  V30 10 C -2.2839 -0.0553 -0.871 0
M  V30 11 C -2.5429 2.3895 -0.3886 0
M  V30 12 S -3.5613 1.1154 -1.0559 0
M  V30 13 S -2.9399 3.9767 -0.1538 0
M  V30 14 H 3.4488 0.1787 -0.4511 0
M  V30 15 H 1.2692 -3.0639 1.3651 0
M  V30 16 H 1.3347 1.3318 -0.9442 0
M  V30 17 H -0.8499 -1.9125 0.8951 0
M  V30 18 H -0.5882 2.3949 0.3348 0
M  V30 19 H -2.4021 -1.0878 -1.1693 0
M  V30 END ATOM
M  V30 BEGIN BOND
M  V30 1 1 1 2
M  V30 2 2 2 3
M  V30 3 1 2 4
M  V30 4 1 3 5
M  V30 5 2 4 6
M  V30 6 2 5 7
M  V30 7 1 7 8
M  V30 8 1 8 9
M  V30 9 2 8 10
M  V30 10 1 9 11
M  V30 11 1 10 12
M  V30 12 2 11 13
M  V30 13 1 6 7
M  V30 14 1 11 12
M  V30 15 1 3 14
M  V30 16 1 4 15
M  V30 17 1 5 16
M  V30 18 1 6 17
M  V30 19 1 9 18
M  V30 20 1 10 19
M  V30 END BOND
M  V30 END CTAB
M  END
>  <Column 1>
3333

>  <level_0>
5547

>  <index>
5548

>  <Unnamed: 0>
5548

>  <NO.>
5560

>  <Name>
zoledronicacid

>  <IUPAC_name>
4-(4-bromophenyl)-3h-1-3-thiazole-2-thione

>  <SMILES>
S=c1[nH]c(-c2ccc(Br)cc2)cs1

>  <CID>
12474093

>  <logBB>


>  <BBB+/BBB->
BBB-

>  <Inchi>
InChI=1S/C9H6BrNS2/c10-7-3-1-6(2-4-7)8-5-13-9(12)11-8/h1-5H-(H-11-12)

>  <threshold>


>  <reference>
R15|

>  <group>
C

>  <Class>
1

>  <ABC>
10.08

>  <ABCGG>
8.98

>  <nAcid>
0

>  <nBase>
0

>  <nAromAtom>
11

>  <nAromBond>
11

>  <nAtom>
19

>  <nHeavyAtom>
13

>  <nSpiro>
0

>  <nBridgehead>
0

>  <nHetero>
4

>  <nN>
1

>  <nO>
0

>  <nF>
0

>  <BalabanJ>
1.81

>  <BertzCT>
454.97

>  <nBonds>
20

>  <nBondsO>
14

>  <nBondsS>
8

>  <nBondsD>
1

>  <nBondsT>
0

>  <nBondsA>
11

>  <nBondsM>
12

>  <nBondsKS>
15

>  <nBondsKD>
5

>  <RNCG>
0.45

>  <RPCG>
0.22

>  <FCSP3>
0

>  <SZ>
22.33

>  <Sm>
22.66

>  <Sv>
15.05

>  <Sse>
19.15

>  <Sp>
17.35

>  <Si>
20.43

>  <MZ>
1.18

>  <Mm>
1.19

>  <Mv>
0.79

>  <Mse>
1.01

>  <Mp>
0.91

>  <Mi>
1.08

>  <NsCH3>
0

>  <NdCH2>
0

>  <NssCH2>
0

>  <NtCH>
0

>  <NdsCH>
0

>  <NaaCH>
5

>  <NsssCH>
0

>  <NddC>
0

>  <NtsC>
0

>  <NdssC>
0

>  <NaasC>
3

>  <NaaaC>
0

>  <NssssC>
0

>  <NsNH3>
0

>  <NsNH2>
0

>  <NssNH2>
0

>  <NdNH>
0

>  <NssNH>
0

>  <NaaNH>
1

>  <NtN>
0

>  <NsssNH>
0

>  <NdsN>
0

>  <NaaN>
0

>  <NsssN>
0

>  <NddsN>
0

>  <NaasN>
0

>  <NssssN>
0

>  <NsOH>
0

>  <NdO>
0

>  <NssO>
0

>  <NaaO>
0

>  <NsF>
0

>  <NsSiH3>
0

>  <NssSiH2>
0

>  <NsssSiH>
0

>  <NssssSi>
0

>  <NsPH2>
0

>  <NssPH>
0

>  <NsssP>
0

>  <NdsssP>
0

>  <NsssssP>
0

>  <NsSH>
0

>  <NdS>
1

>  <NssS>
0

>  <NaaS>
1

>  <NdssS>
0

>  <NddssS>
0

>  <NsCl>
0

>  <NsBr>
1

>  <NsI>
0

>  <fragCpx>
40.04

>  <fMF>
0.58

>  <nHBAcc>
2

>  <nHBDon>
1

>  <Kier1>
9.55

>  <Kier2>
4.02

>  <Lipinski>
1

>  <GhoseFilter>
0

>  <FilterItLogS>
-4.02

>  <VMcGowan>
154.63

>  <LabuteASA>
93.57

>  <PEOE_VSA1>
4.98

>  <PEOE_VSA2>
0

>  <PEOE_VSA3>
0

>  <PEOE_VSA4>
0

>  <PEOE_VSA5>
11.34

>  <PEOE_VSA6>
28.06

>  <PEOE_VSA7>
29.91

>  <PEOE_VSA8>
9.85

>  <PEOE_VSA9>
5.69

>  <PEOE_VSA10>
0

>  <PEOE_VSA11>
3.95

>  <PEOE_VSA12>
0

>  <PEOE_VSA13>
0

>  <SMR_VSA1>
0

>  <SMR_VSA2>
0

>  <SMR_VSA3>
4.98

>  <SMR_VSA4>
0

>  <SMR_VSA5>
0

>  <SMR_VSA6>
0

>  <SMR_VSA7>
38.07

>  <SMR_VSA8>
0

>  <SMR_VSA9>
11.26

>  <SlogP_VSA1>
0

>  <SlogP_VSA2>
4.98

>  <SlogP_VSA3>
0

>  <SlogP_VSA4>
3.95

>  <SlogP_VSA5>
0

>  <SlogP_VSA6>
34.12

>  <SlogP_VSA7>
0

>  <SlogP_VSA8>
11.26

>  <SlogP_VSA9>
0

>  <SlogP_VSA10>
0

>  <SlogP_VSA11>
0

>  <EState_VSA1>
0

>  <EState_VSA2>
0

>  <EState_VSA3>
0

>  <EState_VSA4>
19.68

>  <EState_VSA5>
0

>  <EState_VSA6>
11.34

>  <EState_VSA7>
17.51

>  <EState_VSA8>
33.05

>  <EState_VSA9>
12.22

>  <EState_VSA10>
0

>  <VSA_EState1>
1.91

>  <VSA_EState2>
3.13

>  <VSA_EState3>
2.03

>  <VSA_EState4>
2.25

>  <VSA_EState5>
0

>  <VSA_EState6>
8.14

>  <VSA_EState7>
0

>  <VSA_EState8>
0

>  <VSA_EState9>
0

>  <apol>
28.98

>  <bpol>
11.66

>  <nRing>
2

>  <nHRing>
1

>  <naRing>
2

>  <naHRing>
1

>  <nARing 2>
0

>  <nAHRing 2>
0

>  <nFRing>
0

>  <nFHRing>
0

>  <nFaRing>
0

>  <nFaHRing>
0

>  <nFARing 2>
0

>  <nFAHRing 2>
0

>  <nRot>
1

>  <SLogP>
4.24

>  <SMR>
62.64

>  <TopoPSA(NO)>
15.79

>  <TopoPSA>
76.12

>  <JGI1>
0.21

>  <JGI2>
0.08

>  <JGI3>
0.04

>  <JGI4>
0.04

>  <JGI5>
0.04

>  <Diameter>
8

>  <Radius>
4

>  <TMWC10>
95.01

>  <TSRW10>
57.6

>  <MW>
270.91

>  <AMW>
14.26

>  <WPath>
251

>  <WPol>
15

>  <Zagreb1>
66

>  <Zagreb2>
75

>  <mZagreb2>
2.86

>  <yes>


>  <nAR-cont>
0.336376

>  <nHA-cont>
0.841215992

>  <MWHBN>
0.18226729

>  <MWHBN-cont>
0.989491785

>  <TPSA-cont>
0.468635132

>  <pka_cont>
0.97

>  <yes.1>


>  <BBB_SCORE>
4.084099935

>  <MMFF94 Energy>
11.033

$$$$
Compound 2662
Actelion Java MolfileCreator 2.0

  0  0  0  0  0  0              0 V3000
M  V30 BEGIN CTAB
M  V30 COUNTS 24 25 0 0 0
M  V30 BEGIN ATOM
M  V30 1 N -2.2108 -1.3418 -0.947 0
M  V30 2 C -1.417 -0.3446 -0.6479 0
M  V30 3 C -3.2128 -1.3695 0.1618 0
M  V30 4 N -1.7072 0.3233 0.5056 0
M  V30 5 C -0.2636 0.043 -1.5432 0
M  V30 6 C -2.7736 -0.3297 1.2028 0
M  V30 7 C 1.0155 0.2989 -0.7827 0
M  V30 8 C 1.53 1.5971 -0.6623 0
M  V30 9 C 1.6983 -0.7631 -0.1735 0
M  V30 10 C 2.7053 1.8271 0.0546 0
M  V30 11 C 2.8727 -0.5306 0.5429 0
M  V30 12 C 3.3756 0.764 0.6572 0
M  V30 13 H -4.2005 -1.1244 -0.2435 0
M  V30 14 H -3.2584 -2.3716 0.5999 0
M  V30 15 H -1.09 1.0017 0.9309 0
M  V30 16 H -0.5653 0.9386 -2.0995 0
M  V30 17 H -0.0933 -0.7466 -2.2844 0
M  V30 18 H -3.5831 0.3597 1.4574 0
M  V30 19 H -2.4064 -0.8123 2.1135 0
M  V30 20 H 1.0207 2.4373 -1.1288 0
M  V30 21 H 1.314 -1.7783 -0.2551 0
M  V30 22 H 3.1005 2.836 0.1402 0
M  V30 23 H 3.3957 -1.3608 1.0103 0
M  V30 24 H 4.292 0.9437 1.2129 0
M  V30 END ATOM
M  V30 BEGIN BOND
M  V30 1 2 1 2
M  V30 2 1 1 3
M  V30 3 1 2 4
M  V30 4 1 2 5
M  V30 5 1 3 6
M  V30 6 1 5 7
M  V30 7 2 7 8
M  V30 8 1 7 9
M  V30 9 1 8 10
M  V30 10 2 9 11
M  V30 11 2 10 12
M  V30 12 1 4 6
M  V30 13 1 11 12
M  V30 14 1 3 13
M  V30 15 1 3 14
M  V30 16 1 4 15
M  V30 17 1 5 16
M  V30 18 1 5 17
M  V30 19 1 6 18
M  V30 20 1 6 19
M  V30 21 1 8 20
M  V30 22 1 9 21
M  V30 23 1 10 22
M  V30 24 1 11 23
M  V30 25 1 12 24
M  V30 END BOND
M  V30 END CTAB
M  END
>  <Column 1>
3334

>  <level_0>
5548

>  <index>
5549

>  <Unnamed: 0>
5549

>  <NO.>
5561

>  <Name>
tolazoline

>  <IUPAC_name>
2-benzyl-4-5-dihydro-1h-imidazole

>  <SMILES>
c1ccc(CC2=NCCN2)cc1

>  <CID>
5504

>  <logBB>


>  <BBB+/BBB->
BBB+

>  <Inchi>
InChI=1S/C10H12N2/c1-2-4-9(5-3-1)8-10-11-6-7-12-10/h1-5H-6-8H2-(H-11-12)

>  <threshold>


>  <reference>
R15|R27|

>  <group>
C

>  <Class>
-1

>  <ABC>
9.19

>  <ABCGG>
8.25

>  <nAcid>
0

>  <nBase>
2

>  <nAromAtom>
6

>  <nAromBond>
6

>  <nAtom>
24

>  <nHeavyAtom>
12

>  <nSpiro>
0

>  <nBridgehead>
0

>  <nHetero>
2

>  <nN>
2

>  <nO>
0

>  <nF>
0

>  <BalabanJ>
1.69

>  <BertzCT>
277.15

>  <nBonds>
25

>  <nBondsO>
13

>  <nBondsS>
18

>  <nBondsD>
1

>  <nBondsT>
0

>  <nBondsA>
6

>  <nBondsM>
7

>  <nBondsKS>
21

>  <nBondsKD>
4

>  <RNCG>
0.38

>  <RPCG>
0.16

>  <FCSP3>
0.3

>  <SZ>
14.33

>  <Sm>
13.34

>  <Sv>
14.77

>  <Sse>
23.65

>  <Sp>
16.11

>  <Si>
27.07

>  <MZ>
0.6

>  <Mm>
0.56

>  <Mv>
0.62

>  <Mse>
0.99

>  <Mp>
0.67

>  <Mi>
1.13

>  <NsCH3>
0

>  <NdCH2>
0

>  <NssCH2>
3

>  <NtCH>
0

>  <NdsCH>
0

>  <NaaCH>
5

>  <NsssCH>
0

>  <NddC>
0

>  <NtsC>
0

>  <NdssC>
1

>  <NaasC>
1

>  <NaaaC>
0

>  <NssssC>
0

>  <NsNH3>
0

>  <NsNH2>
0

>  <NssNH2>
0

>  <NdNH>
0

>  <NssNH>
1

>  <NaaNH>
0

>  <NtN>
0

>  <NsssNH>
0

>  <NdsN>
1

>  <NaaN>
0

>  <NsssN>
0

>  <NddsN>
0

>  <NaasN>
0

>  <NssssN>
0

>  <NsOH>
0

>  <NdO>
0

>  <NssO>
0

>  <NaaO>
0

>  <NsF>
0

>  <NsSiH3>
0

>  <NssSiH2>
0

>  <NsssSiH>
0

>  <NssssSi>
0

>  <NsPH2>
0

>  <NssPH>
0

>  <NsssP>
0

>  <NdsssP>
0

>  <NsssssP>
0

>  <NsSH>
0

>  <NdS>
0

>  <NssS>
0

>  <NaaS>
0

>  <NdssS>
0

>  <NddssS>
0

>  <NsCl>
0

>  <NsBr>
0

>  <NsI>
0

>  <fragCpx>
37.02

>  <fMF>
0.5

>  <nHBAcc>
2

>  <nHBDon>
1

>  <Kier1>
8.59

>  <Kier2>
4.3

>  <Lipinski>
1

>  <GhoseFilter>
1

>  <FilterItLogS>
-2.95

>  <VMcGowan>
132.8

>  <LabuteASA>
72.33

>  <PEOE_VSA1>
5.32

>  <PEOE_VSA2>
4.99

>  <PEOE_VSA3>
0

>  <PEOE_VSA4>
0

>  <PEOE_VSA5>
0

>  <PEOE_VSA6>
30.33

>  <PEOE_VSA7>
5.56

>  <PEOE_VSA8>
12.97

>  <PEOE_VSA9>
6.54

>  <PEOE_VSA10>
5.84

>  <PEOE_VSA11>
0

>  <PEOE_VSA12>
0

>  <PEOE_VSA13>
0

>  <SMR_VSA1>
0

>  <SMR_VSA2>
0

>  <SMR_VSA3>
5.32

>  <SMR_VSA4>
4.99

>  <SMR_VSA5>
6.42

>  <SMR_VSA6>
13.09

>  <SMR_VSA7>
35.9

>  <SMR_VSA8>
0

>  <SMR_VSA9>
0

>  <SlogP_VSA1>
5.32

>  <SlogP_VSA2>
18.93

>  <SlogP_VSA3>
6.42

>  <SlogP_VSA4>
0

>  <SlogP_VSA5>
5.56

>  <SlogP_VSA6>
35.32

>  <SlogP_VSA7>
0

>  <SlogP_VSA8>
0

>  <SlogP_VSA9>
0

>  <SlogP_VSA10>
0

>  <SlogP_VSA11>
0

>  <EState_VSA1>
0

>  <EState_VSA2>
0

>  <EState_VSA3>
0

>  <EState_VSA4>
25.35

>  <EState_VSA5>
5.56

>  <EState_VSA6>
0

>  <EState_VSA7>
6.07

>  <EState_VSA8>
34.57

>  <EState_VSA9>
0

>  <EState_VSA10>
0

>  <VSA_EState1>
0

>  <VSA_EState2>
4.34

>  <VSA_EState3>
3.26

>  <VSA_EState4>
1.32

>  <VSA_EState5>
1.13

>  <VSA_EState6>
10.41

>  <VSA_EState7>
0.95

>  <VSA_EState8>
1.93

>  <VSA_EState9>
0

>  <apol>
26.9

>  <bpol>
13.75

>  <nRing>
2

>  <nHRing>
1

>  <naRing>
1

>  <naHRing>
0

>  <nARing 2>
1

>  <nAHRing 2>
1

>  <nFRing>
0

>  <nFHRing>
0

>  <nFaRing>
0

>  <nFaHRing>
0

>  <nFARing 2>
0

>  <nFAHRing 2>
0

>  <nRot>
2

>  <SLogP>
1.23

>  <SMR>
50.45

>  <TopoPSA(NO)>
24.39

>  <TopoPSA>
24.39

>  <JGI1>
0.12

>  <JGI2>
0.03

>  <JGI3>
0.04

>  <JGI4>
0.02

>  <JGI5>
0.01

>  <Diameter>
7

>  <Radius>
4

>  <TMWC10>
90.51

>  <TSRW10>
55.11

>  <MW>
160.1

>  <AMW>
6.67

>  <WPath>
209

>  <WPol>
11

>  <Zagreb1>
58

>  <Zagreb2>
64

>  <mZagreb2>
2.75

>  <yes>


>  <nAR-cont>
0.816016

>  <nHA-cont>
0.785745021

>  <MWHBN>
0.237096743

>  <MWHBN-cont>
0.97875434

>  <TPSA-cont>
0.829742655

>  <pka_cont>
0.97

>  <yes.1>


>  <BBB_SCORE>
5.21437784

>  <MMFF94 Energy>
45.131

$$$$
Compound 2663
Actelion Java MolfileCreator 2.0

  0  0  0  0  0  0              0 V3000
M  V30 BEGIN CTAB
M  V30 COUNTS 30 32 0 0 0
M  V30 BEGIN ATOM
M  V30 1 N -1.4347 -1.8335 -2.0729 0
M  V30 2 C -1.5141 -0.9156 -1.1423 0
M  V30 3 C -1.5711 -1.0782 -3.3557 0
M  V30 4 N -1.6787 0.3657 -1.5806 0
M  V30 5 C -1.441 -1.2753 0.3236 0
M  V30 6 C -1.576 0.4169 -3.0079 0
M  V30 7 C -0.6302 -0.2916 1.1454 0
M  V30 8 C 0.7854 -0.1948 1.0329 0
M  V30 9 C -1.3212 0.5587 2.0276 0
M  V30 10 C 1.4675 0.7678 1.8201 0
M  V30 11 C 1.5622 -1.0072 0.1752 0
M  V30 12 C -0.6376 1.4958 2.7938 0
M  V30 13 C 0.7462 1.5992 2.6893 0
M  V30 14 C 2.8642 0.8887 1.7294 0
M  V30 15 C 2.9505 -0.8743 0.0957 0
M  V30 16 C 3.6015 0.0736 0.8728 0
M  V30 17 H -0.7417 -1.3251 -4.0259 0
M  V30 18 H -2.5079 -1.3701 -3.8425 0
M  V30 19 H -1.581 1.1768 -0.9846 0
M  V30 20 H -1.0309 -2.2849 0.4416 0
M  V30 21 H -2.4729 -1.3244 0.693 0
M  V30 22 H -0.6413 0.8967 -3.3134 0
M  V30 23 H -2.4203 0.9402 -3.4648 0
M  V30 24 H -2.4033 0.4918 2.1223 0
M  V30 25 H 1.094 -1.7645 -0.4503 0
M  V30 26 H -1.1815 2.145 3.475 0
M  V30 27 H 1.2626 2.3379 3.2987 0
M  V30 28 H 3.3926 1.6244 2.332 0
M  V30 29 H 3.5173 -1.5156 -0.5738 0
M  V30 30 H 4.6813 0.1788 0.8152 0
M  V30 END ATOM
M  V30 BEGIN BOND
M  V30 1 2 1 2
M  V30 2 1 1 3
M  V30 3 1 2 4
M  V30 4 1 2 5
M  V30 5 1 3 6
M  V30 6 1 5 7
M  V30 7 1 7 8
M  V30 8 2 7 9
M  V30 9 1 8 10
M  V30 10 2 8 11
M  V30 11 1 9 12
M  V30 12 1 10 13
M  V30 13 2 10 14
M  V30 14 1 11 15
M  V30 15 1 14 16
M  V30 16 1 4 6
M  V30 17 2 12 13
M  V30 18 2 15 16
M  V30 19 1 3 17
M  V30 20 1 3 18
M  V30 21 1 4 19
M  V30 22 1 5 20
M  V30 23 1 5 21
M  V30 24 1 6 22
M  V30 25 1 6 23
M  V30 26 1 9 24
M  V30 27 1 11 25
M  V30 28 1 12 26
M  V30 29 1 13 27
M  V30 30 1 14 28
M  V30 31 1 15 29
M  V30 32 1 16 30
M  V30 END BOND
M  V30 END CTAB
M  END
>  <Column 1>
3335

>  <level_0>
5549

>  <index>
5550

>  <Unnamed: 0>
5550

>  <NO.>
5562

>  <Name>
naphazoline

>  <IUPAC_name>
2-(naphthalen-1-ylmethyl)-4-5-dihydro-1h-imidazole

>  <SMILES>
c1ccc2c(CC3=NCCN3)cccc2c1

>  <CID>
4436

>  <logBB>


>  <BBB+/BBB->
BBB-

>  <Inchi>
InChI=1S/C14H14N2/c1-2-7-13-11(4-1)5-3-6-12(13)10-14-15-8-9-16-14/h1-7H-8-10H2-(H-15-16)

>  <threshold>


>  <reference>
R15|R23|

>  <group>
C

>  <Class>
-1

>  <ABC>
12.65

>  <ABCGG>
10.57

>  <nAcid>
0

>  <nBase>
2

>  <nAromAtom>
10

>  <nAromBond>
11

>  <nAtom>
30

>  <nHeavyAtom>
16

>  <nSpiro>
0

>  <nBridgehead>
0

>  <nHetero>
2

>  <nN>
2

>  <nO>
0

>  <nF>
0

>  <BalabanJ>
1.59

>  <BertzCT>
537.93

>  <nBonds>
32

>  <nBondsO>
18

>  <nBondsS>
20

>  <nBondsD>
1

>  <nBondsT>
0

>  <nBondsA>
11

>  <nBondsM>
12

>  <nBondsKS>
26

>  <nBondsKD>
6

>  <RNCG>
0.33

>  <RPCG>
0.14

>  <FCSP3>
0.21

>  <SZ>
18.67

>  <Sm>
17.51

>  <Sv>
19.31

>  <Sse>
29.54

>  <Sp>
20.91

>  <Si>
33.49

>  <MZ>
0.62

>  <Mm>
0.58

>  <Mv>
0.64

>  <Mse>
0.98

>  <Mp>
0.7

>  <Mi>
1.12

>  <NsCH3>
0

>  <NdCH2>
0

>  <NssCH2>
3

>  <NtCH>
0

>  <NdsCH>
0

>  <NaaCH>
7

>  <NsssCH>
0

>  <NddC>
0

>  <NtsC>
0

>  <NdssC>
1

>  <NaasC>
1

>  <NaaaC>
2

>  <NssssC>
0

>  <NsNH3>
0

>  <NsNH2>
0

>  <NssNH2>
0

>  <NdNH>
0

>  <NssNH>
1

>  <NaaNH>
0

>  <NtN>
0

>  <NsssNH>
0

>  <NdsN>
1

>  <NaaN>
0

>  <NsssN>
0

>  <NddsN>
0

>  <NaasN>
0

>  <NssssN>
0

>  <NsOH>
0

>  <NdO>
0

>  <NssO>
0

>  <NaaO>
0

>  <NsF>
0

>  <NsSiH3>
0

>  <NssSiH2>
0

>  <NsssSiH>
0

>  <NssssSi>
0

>  <NsPH2>
0

>  <NssPH>
0

>  <NsssP>
0

>  <NdsssP>
0

>  <NsssssP>
0

>  <NsSH>
0

>  <NdS>
0

>  <NssS>
0

>  <NaaS>
0

>  <NdssS>
0

>  <NddssS>
0

>  <NsCl>
0

>  <NsBr>
0

>  <NsI>
0

>  <fragCpx>
84.02

>  <fMF>
0.53

>  <nHBAcc>
2

>  <nHBDon>
1

>  <Kier1>
11.11

>  <Kier2>
5.1

>  <Lipinski>
1

>  <GhoseFilter>
1

>  <FilterItLogS>
-4.34

>  <VMcGowan>
169.7

>  <LabuteASA>
95.01

>  <PEOE_VSA1>
5.32

>  <PEOE_VSA2>
4.99

>  <PEOE_VSA3>
0

>  <PEOE_VSA4>
0

>  <PEOE_VSA5>
0

>  <PEOE_VSA6>
42.46

>  <PEOE_VSA7>
16.34

>  <PEOE_VSA8>
12.97

>  <PEOE_VSA9>
6.54

>  <PEOE_VSA10>
5.84

>  <PEOE_VSA11>
0

>  <PEOE_VSA12>
0

>  <PEOE_VSA13>
0

>  <SMR_VSA1>
0

>  <SMR_VSA2>
0

>  <SMR_VSA3>
5.32

>  <SMR_VSA4>
4.99

>  <SMR_VSA5>
6.42

>  <SMR_VSA6>
13.09

>  <SMR_VSA7>
48.03

>  <SMR_VSA8>
0

>  <SMR_VSA9>
0

>  <SlogP_VSA1>
5.32

>  <SlogP_VSA2>
18.93

>  <SlogP_VSA3>
6.42

>  <SlogP_VSA4>
0

>  <SlogP_VSA5>
5.56

>  <SlogP_VSA6>
47.46

>  <SlogP_VSA7>
0

>  <SlogP_VSA8>
10.77

>  <SlogP_VSA9>
0

>  <SlogP_VSA10>
0

>  <SlogP_VSA11>
0

>  <EState_VSA1>
0

>  <EState_VSA2>
0

>  <EState_VSA3>
0

>  <EState_VSA4>
25.35

>  <EState_VSA5>
16.34

>  <EState_VSA6>
0

>  <EState_VSA7>
0

>  <EState_VSA8>
52.77

>  <EState_VSA9>
0

>  <EState_VSA10>
0

>  <VSA_EState1>
0

>  <VSA_EState2>
4.44

>  <VSA_EState3>
5.96

>  <VSA_EState4>
1.35

>  <VSA_EState5>
1.12

>  <VSA_EState6>
14.97

>  <VSA_EState7>
0.92

>  <VSA_EState8>
1.9

>  <VSA_EState9>
0

>  <apol>
34.92

>  <bpol>
15.75

>  <nRing>
3

>  <nHRing>
1

>  <naRing>
2

>  <naHRing>
0

>  <nARing 2>
1

>  <nAHRing 2>
1

>  <nFRing>
1

>  <nFHRing>
0

>  <nFaRing>
1

>  <nFaHRing>
0

>  <nFARing 2>
0

>  <nFAHRing 2>
0

>  <nRot>
2

>  <SLogP>
2.38

>  <SMR>
67.96

>  <TopoPSA(NO)>
24.39

>  <TopoPSA>
24.39

>  <JGI1>
0.11

>  <JGI2>
0.06

>  <JGI3>
0.04

>  <JGI4>
0.03

>  <JGI5>
0.01

>  <Diameter>
8

>  <Radius>
4

>  <TMWC10>
104.84

>  <TSRW10>
61.56

>  <MW>
210.12

>  <AMW>
7

>  <WPath>
431

>  <WPol>
21

>  <Zagreb1>
84

>  <Zagreb2>
98

>  <mZagreb2>
3.56

>  <yes>


>  <nAR-cont>
0.816016

>  <nHA-cont>
0.954961865

>  <MWHBN>
0.206960545

>  <MWHBN-cont>
0.999848055

>  <TPSA-cont>
0.829742655

>  <pka_cont>
0.97

>  <yes.1>


>  <BBB_SCORE>
5.415235258

>  <MMFF94 Energy>
59.675

$$$$
Compound 2664
Actelion Java MolfileCreator 2.0

  0  0  0  0  0  0              0 V3000
M  V30 BEGIN CTAB
M  V30 COUNTS 49 52 0 0 0
M  V30 BEGIN ATOM
M  V30 1 O -4.4359 -3.3053 -2.4177 0
M  V30 2 C -3.5528 -2.6717 -1.8461 0
M  V30 3 C -2.8195 -1.6136 -2.5784 0
M  V30 4 C -3.2435 -2.851 -0.3829 0
M  V30 5 C -1.7977 -0.9523 -2.0074 0
M  V30 6 C -1.7562 -2.6649 -0.1326 0
M  V30 7 C -1.2306 -1.3038 -0.637 0
M  V30 8 C -1.1814 0.2327 -2.7105 0
M  V30 9 C 0.3279 -1.3059 -0.6659 0
M  V30 10 C 0.343 0.206 -2.6745 0
M  V30 11 C 0.9079 -0.0068 -1.2573 0
M  V30 12 C 0.9936 -1.5635 0.6921 0
M  V30 13 C 0.6833 1.2131 -0.3265 0
M  V30 14 C 0.7608 -0.44 1.6966 0
M  V30 15 C 1.6118 2.3445 -0.7004 0
M  V30 16 C 1.0411 0.9964 1.1863 0
M  V30 17 C 2.653 2.4184 0.1397 0
M  V30 18 C 2.5751 1.3722 1.2138 0
M  V30 19 C 0.2296 2.0129 2.0909 0
M  V30 20 O 3.4073 0.2969 0.8067 0
M  V30 21 C 3.0778 1.8859 2.4971 0
M  V30 22 C -1.2945 1.9906 1.9827 0
M  V30 23 C 3.5066 2.2964 3.5422 0
M  V30 24 H -3.2095 -1.3693 -3.5602 0
M  V30 25 H -3.8363 -2.1305 0.1908 0
M  V30 26 H -3.5401 -3.8615 -0.0819 0
M  V30 27 H -1.5699 -2.7653 0.9426 0
M  V30 28 H -1.2108 -3.479 -0.6289 0
M  V30 29 H -1.5845 -0.5293 0.055 0
M  V30 30 H -1.5045 0.2805 -3.758 0
M  V30 31 H -1.5512 1.1498 -2.2371 0
M  V30 32 H 0.6392 -2.1299 -1.326 0
M  V30 33 H 0.6972 -0.6093 -3.3196 0
M  V30 34 H 0.7351 1.1309 -3.1125 0
M  V30 35 H 1.9898 -0.1578 -1.3822 0
M  V30 36 H 2.0686 -1.7083 0.5382 0
M  V30 37 H 0.6459 -2.5092 1.1222 0
M  V30 38 H -0.3456 1.5598 -0.4257 0
M  V30 39 H -0.2775 -0.5294 2.0299 0
M  V30 40 H 1.3625 -0.6345 2.5937 0
M  V30 41 H 1.4705 2.9811 -1.5632 0
M  V30 42 H 3.464 3.1265 0.0446 0
M  V30 43 H 0.5495 3.0429 1.8885 0
M  V30 44 H 0.4758 1.8168 3.1428 0
M  V30 45 H 4.3161 0.6394 0.7967 0
M  V30 46 H -1.7207 2.6607 2.7379 0
M  V30 47 H -1.6426 2.3507 1.0115 0
M  V30 48 H -1.7157 0.9986 2.158 0
M  V30 49 H 3.8838 2.6578 4.4711 0
M  V30 END ATOM
M  V30 BEGIN BOND
M  V30 1 2 1 2
M  V30 2 1 2 3
M  V30 3 1 2 4
M  V30 4 2 3 5
M  V30 5 1 4 6
M  V30 6 1 5 7
M  V30 7 1 5 8
M  V30 8 1 7 9
M  V30 9 1 8 10
M  V30 10 1 9 11
M  V30 11 1 9 12
M  V30 12 1 11 13
M  V30 13 1 12 14
M  V30 14 1 13 15
M  V30 15 1 13 16
M  V30 16 2 15 17
M  V30 17 1 16 18
M  V30 18 1 16 19
M  V30 19 1 18 20
M  V30 20 1 18 21
M  V30 21 1 19 22
M  V30 22 3 21 23
M  V30 23 1 6 7
M  V30 24 1 10 11
M  V30 25 1 14 16
M  V30 26 1 17 18
M  V30 27 1 3 24
M  V30 28 1 4 25
M  V30 29 1 4 26
M  V30 30 1 6 27
M  V30 31 1 6 28
M  V30 32 1 7 29
M  V30 33 1 8 30
M  V30 34 1 8 31
M  V30 35 1 9 32
M  V30 36 1 10 33
M  V30 37 1 10 34
M  V30 38 1 11 35
M  V30 39 1 12 36
M  V30 40 1 12 37
M  V30 41 1 13 38
M  V30 42 1 14 39
M  V30 43 1 14 40
M  V30 44 1 15 41
M  V30 45 1 17 42
M  V30 46 1 19 43
M  V30 47 1 19 44
M  V30 48 1 20 45
M  V30 49 1 22 46
M  V30 50 1 22 47
M  V30 51 1 22 48
M  V30 52 1 23 49
M  V30 END BOND
M  V30 END CTAB
M  END
>  <Column 1>
3336

>  <level_0>
5550

>  <index>
5551

>  <Unnamed: 0>
5551

>  <NO.>
5563

>  <Name>
smr000539419

>  <IUPAC_name>
13-ethyl-17-ethynyl-17-hydroxy-1-2-6-7-8-9-10-11-12-14-decahydrocyclopenta[a]phenanthren-3-one

>  <SMILES>
C#CC1(O)C=CC2C3CCC4=CC(=O)CCC4C3CCC21CC

>  <CID>
2999

>  <logBB>


>  <BBB+/BBB->
BBB-

>  <Inchi>
InChI=1S/C21H26O2/c1-3-20-11-9-17-16-8-6-15(22)13-14(16)5-7-18(17)19(20)10-12-21(20-23)4-2/h2-10-12-13-16-19-23H-3-5-9-11H2-1H3

>  <threshold>


>  <reference>
R23|

>  <group>
C

>  <Class>
-1

>  <ABC>
18.33

>  <ABCGG>
14.85

>  <nAcid>
0

>  <nBase>
0

>  <nAromAtom>
0

>  <nAromBond>
0

>  <nAtom>
49

>  <nHeavyAtom>
23

>  <nSpiro>
0

>  <nBridgehead>
0

>  <nHetero>
2

>  <nN>
0

>  <nO>
2

>  <nF>
0

>  <BalabanJ>
1.6

>  <BertzCT>
636.72

>  <nBonds>
52

>  <nBondsO>
26

>  <nBondsS>
48

>  <nBondsD>
3

>  <nBondsT>
1

>  <nBondsA>
0

>  <nBondsM>
4

>  <nBondsKS>
48

>  <nBondsKD>
3

>  <RNCG>
0.25

>  <RPCG>
0.15

>  <FCSP3>
0.67

>  <SZ>
28

>  <Sm>
25.85

>  <Sv>
29.47

>  <Sse>
48.2

>  <Sp>
32.34

>  <Si>
54.82

>  <MZ>
0.57

>  <Mm>
0.53

>  <Mv>
0.6

>  <Mse>
0.98

>  <Mp>
0.66

>  <Mi>
1.12

>  <NsCH3>
1

>  <NdCH2>
0

>  <NssCH2>
7

>  <NtCH>
1

>  <NdsCH>
3

>  <NaaCH>
0

>  <NsssCH>
4

>  <NddC>
0

>  <NtsC>
1

>  <NdssC>
2

>  <NaasC>
0

>  <NaaaC>
0

>  <NssssC>
2

>  <NsNH3>
0

>  <NsNH2>
0

>  <NssNH2>
0

>  <NdNH>
0

>  <NssNH>
0

>  <NaaNH>
0

>  <NtN>
0

>  <NsssNH>
0

>  <NdsN>
0

>  <NaaN>
0

>  <NsssN>
0

>  <NddsN>
0

>  <NaasN>
0

>  <NssssN>
0

>  <NsOH>
1

>  <NdO>
1

>  <NssO>
0

>  <NaaO>
0

>  <NsF>
0

>  <NsSiH3>
0

>  <NssSiH2>
0

>  <NsssSiH>
0

>  <NssssSi>
0

>  <NsPH2>
0

>  <NssPH>
0

>  <NsssP>
0

>  <NdsssP>
0

>  <NsssssP>
0

>  <NsSH>
0

>  <NdS>
0

>  <NssS>
0

>  <NaaS>
0

>  <NdssS>
0

>  <NddssS>
0

>  <NsCl>
0

>  <NsBr>
0

>  <NsI>
0

>  <fragCpx>
170.02

>  <fMF>
0.35

>  <nHBAcc>
2

>  <nHBDon>
1

>  <Kier1>
16.47

>  <Kier2>
5.77

>  <Lipinski>
1

>  <GhoseFilter>
1

>  <FilterItLogS>
-3.11

>  <VMcGowan>
253.55

>  <LabuteASA>
138.59

>  <PEOE_VSA1>
5.11

>  <PEOE_VSA2>
4.79

>  <PEOE_VSA3>
0

>  <PEOE_VSA4>
0

>  <PEOE_VSA5>
6.42

>  <PEOE_VSA6>
24.49

>  <PEOE_VSA7>
74.35

>  <PEOE_VSA8>
11.84

>  <PEOE_VSA9>
0

>  <PEOE_VSA10>
5.6

>  <PEOE_VSA11>
5.78

>  <PEOE_VSA12>
0

>  <PEOE_VSA13>
0

>  <SMR_VSA1>
9.9

>  <SMR_VSA2>
0

>  <SMR_VSA3>
0

>  <SMR_VSA4>
29.09

>  <SMR_VSA5>
57.47

>  <SMR_VSA6>
0

>  <SMR_VSA7>
23.8

>  <SMR_VSA8>
0

>  <SMR_VSA9>
12.34

>  <SlogP_VSA1>
0

>  <SlogP_VSA2>
16.49

>  <SlogP_VSA3>
4.79

>  <SlogP_VSA4>
41.43

>  <SlogP_VSA5>
51.87

>  <SlogP_VSA6>
23.8

>  <SlogP_VSA7>
0

>  <SlogP_VSA8>
0

>  <SlogP_VSA9>
0

>  <SlogP_VSA10>
0

>  <SlogP_VSA11>
0

>  <EState_VSA1>
5.6

>  <EState_VSA2>
5.41

>  <EState_VSA3>
35.88

>  <EState_VSA4>
38.52

>  <EState_VSA5>
5.57

>  <EState_VSA6>
0

>  <EState_VSA7>
12.15

>  <EState_VSA8>
18.92

>  <EState_VSA9>
6.42

>  <EState_VSA10>
9.9

>  <VSA_EState1>
0

>  <VSA_EState2>
11.74

>  <VSA_EState3>
11.02

>  <VSA_EState4>
0.16

>  <VSA_EState5>
5.28

>  <VSA_EState6>
0

>  <VSA_EState7>
18.79

>  <VSA_EState8>
2.18

>  <VSA_EState9>
0

>  <apol>
54.01

>  <bpol>
26.95

>  <nRing>
4

>  <nHRing>
0

>  <naRing>
0

>  <naHRing>
0

>  <nARing 2>
4

>  <nAHRing 2>
0

>  <nFRing>
1

>  <nFHRing>
0

>  <nFaRing>
0

>  <nFaHRing>
0

>  <nFARing 2>
1

>  <nFAHRing 2>
0

>  <nRot>
1

>  <SLogP>
3.66

>  <SMR>
90.4

>  <TopoPSA(NO)>
37.3

>  <TopoPSA>
37.3

>  <JGI1>
0.23

>  <JGI2>
0.12

>  <JGI3>
0.06

>  <JGI4>
0.05

>  <JGI5>
0.03

>  <Diameter>
11

>  <Radius>
6

>  <TMWC10>
127.4

>  <TSRW10>
73.34

>  <MW>
310.19

>  <AMW>
6.33

>  <WPath>
1053

>  <WPol>
49

>  <Zagreb1>
134

>  <Zagreb2>
171

>  <mZagreb2>
5.01

>  <yes>


>  <nAR-cont>
0.199399

>  <nHA-cont>
0.967789328

>  <MWHBN>
0.170336358

>  <MWHBN-cont>
0.974488191

>  <TPSA-cont>
0.739622838

>  <pka_cont>
0.97

>  <yes.1>


>  <BBB_SCORE>
4.59316629

>  <MMFF94 Energy>
57.52

$$$$
Compound 2665
Actelion Java MolfileCreator 2.0

  0  0  0  0  0  0              0 V3000
M  V30 BEGIN CTAB
M  V30 COUNTS 53 56 0 0 0
M  V30 BEGIN ATOM
M  V30 1 O 0.321 -2.3292 6.2742 0
M  V30 2 N -0.4735 -2.8247 5.2341 0
M  V30 3 C -0.0873 -2.3896 4.0733 0
M  V30 4 C 1.0358 -1.4387 3.8228 0
M  V30 5 C -0.8849 -2.8413 2.8639 0
M  V30 6 C 1.4263 -1.1559 2.5686 0
M  V30 7 C 0.0449 -3.0705 1.6854 0
M  V30 8 C 0.8554 -1.815 1.325 0
M  V30 9 C 2.4244 -0.0678 2.2773 0
M  V30 10 C 0.1004 -0.7217 0.5164 0
M  V30 11 C 1.7494 1.0158 1.4337 0
M  V30 12 C 1.0839 0.4334 0.1684 0
M  V30 13 C -0.5479 -1.2639 -0.7655 0
M  V30 14 C 0.4456 1.5367 -0.7 0
M  V30 15 C -1.2304 -0.1599 -1.5745 0
M  V30 16 C -0.2877 1.0103 -1.9712 0
M  V30 17 C -0.5961 2.4108 0.0135 0
M  V30 18 C -1.0807 2.2895 -2.3936 0
M  V30 19 C 0.7743 0.5554 -3.0193 0
M  V30 20 C -1.5555 2.9124 -1.069 0
M  V30 21 O -0.1943 3.2252 -3.0131 0
M  V30 22 C -2.2157 2.0473 -3.3006 0
M  V30 23 C 0.2418 0.1584 -4.3898 0
M  V30 24 C -3.1433 1.8625 -4.0415 0
M  V30 25 H -0.0791 -2.7498 7.0578 0
M  V30 26 H 1.4661 -0.9443 4.6855 0
M  V30 27 H -1.4103 -3.7725 3.1043 0
M  V30 28 H -1.6399 -2.0803 2.6383 0
M  V30 29 H -0.5156 -3.4544 0.8289 0
M  V30 30 H 0.7521 -3.8678 1.9555 0
M  V30 31 H 1.6967 -2.1663 0.71 0
M  V30 32 H 3.281 -0.4904 1.739 0
M  V30 33 H 2.8162 0.3798 3.198 0
M  V30 34 H -0.7028 -0.321 1.1498 0
M  V30 35 H 2.497 1.7656 1.1482 0
M  V30 36 H 1.0021 1.5309 2.0503 0
M  V30 37 H 1.8962 -0.0059 -0.4284 0
M  V30 38 H 0.1963 -1.7829 -1.3795 0
M  V30 39 H -1.3158 -2.0034 -0.5145 0
M  V30 40 H 1.2575 2.2093 -1.0153 0
M  V30 41 H -2.0722 0.2133 -0.9771 0
M  V30 42 H -1.6848 -0.6098 -2.4638 0
M  V30 43 H -0.1151 3.25 0.5282 0
M  V30 44 H -1.1601 1.8543 0.7689 0
M  V30 45 H 1.5148 1.3518 -3.1674 0
M  V30 46 H 1.3445 -0.2946 -2.6287 0
M  V30 47 H -2.5752 2.6016 -0.8093 0
M  V30 48 H -1.5497 4.0082 -1.1045 0
M  V30 49 H -0.7442 3.9485 -3.3596 0
M  V30 50 H -0.2079 1.008 -4.9095 0
M  V30 51 H -0.4918 -0.6489 -4.3279 0
M  V30 52 H 1.0676 -0.1985 -5.0147 0
M  V30 53 H -3.9626 1.6942 -4.7019 0
M  V30 END ATOM
M  V30 BEGIN BOND
M  V30 1 1 1 2
M  V30 2 2 2 3
M  V30 3 1 3 4
M  V30 4 1 3 5
M  V30 5 2 4 6
M  V30 6 1 5 7
M  V30 7 1 6 8
M  V30 8 1 6 9
M  V30 9 1 8 10
M  V30 10 1 9 11
M  V30 11 1 10 12
M  V30 12 1 10 13
M  V30 13 1 12 14
M  V30 14 1 13 15
M  V30 15 1 14 16
M  V30 16 1 14 17
M  V30 17 1 16 18
M  V30 18 1 16 19
M  V30 19 1 17 20
M  V30 20 1 18 21
M  V30 21 1 18 22
M  V30 22 1 19 23
M  V30 23 3 22 24
M  V30 24 1 7 8
M  V30 25 1 11 12
M  V30 26 1 15 16
M  V30 27 1 18 20
M  V30 28 1 1 25
M  V30 29 1 4 26
M  V30 30 1 5 27
M  V30 31 1 5 28
M  V30 32 1 7 29
M  V30 33 1 7 30
M  V30 34 1 8 31
M  V30 35 1 9 32
M  V30 36 1 9 33
M  V30 37 1 10 34
M  V30 38 1 11 35
M  V30 39 1 11 36
M  V30 40 1 12 37
M  V30 41 1 13 38
M  V30 42 1 13 39
M  V30 43 1 14 40
M  V30 44 1 15 41
M  V30 45 1 15 42
M  V30 46 1 17 43
M  V30 47 1 17 44
M  V30 48 1 19 45
M  V30 49 1 19 46
M  V30 50 1 20 47
M  V30 51 1 20 48
M  V30 52 1 21 49
M  V30 53 1 23 50
M  V30 54 1 23 51
M  V30 55 1 23 52
M  V30 56 1 24 53
M  V30 END BOND
M  V30 END CTAB
M  END
>  <Column 1>
3337

>  <level_0>
5551

>  <index>
5552

>  <Unnamed: 0>
5552

>  <NO.>
5564

>  <Name>
norelgestromin

>  <IUPAC_name>
(3z)-13-ethyl-17-ethynyl-3-hydroxyimino-1-2-6-7-8-9-10-11-12-14-15-16-dodecahydrocyclopenta[a]phenanthren-17-ol

>  <SMILES>
C#CC1(O)CCC2C3CCC4=C/C(=N\O)CCC4C3CCC21CC

>  <CID>


>  <logBB>


>  <BBB+/BBB->
BBB-

>  <Inchi>
InChI=1S/C21H29NO2/c1-3-20-11-9-17-16-8-6-15(22-24)13-14(16)5-7-18(17)19(20)10-12-21(20-23)4-2/h2-13-16-19-23-24H-3-5-12H2-1H3/b22-15-

>  <threshold>


>  <reference>
R23|

>  <group>
C

>  <Class>
-1

>  <ABC>
18.93

>  <ABCGG>
15.22

>  <nAcid>
0

>  <nBase>
0

>  <nAromAtom>
0

>  <nAromBond>
0

>  <nAtom>
53

>  <nHeavyAtom>
24

>  <nSpiro>
0

>  <nBridgehead>
0

>  <nHetero>
3

>  <nN>
1

>  <nO>
2

>  <nF>
0

>  <BalabanJ>
1.57

>  <BertzCT>
630.24

>  <nBonds>
56

>  <nBondsO>
27

>  <nBondsS>
53

>  <nBondsD>
2

>  <nBondsT>
1

>  <nBondsA>
0

>  <nBondsM>
3

>  <nBondsKS>
53

>  <nBondsKD>
2

>  <RNCG>
0.25

>  <RPCG>
0.2

>  <FCSP3>
0.76

>  <SZ>
29.67

>  <Sm>
27.26

>  <Sv>
31.04

>  <Sse>
52.2

>  <Sp>
34.2

>  <Si>
59.73

>  <MZ>
0.56

>  <Mm>
0.51

>  <Mv>
0.59

>  <Mse>
0.98

>  <Mp>
0.65

>  <Mi>
1.13

>  <NsCH3>
1

>  <NdCH2>
0

>  <NssCH2>
9

>  <NtCH>
1

>  <NdsCH>
1

>  <NaaCH>
0

>  <NsssCH>
4

>  <NddC>
0

>  <NtsC>
1

>  <NdssC>
2

>  <NaasC>
0

>  <NaaaC>
0

>  <NssssC>
2

>  <NsNH3>
0

>  <NsNH2>
0

>  <NssNH2>
0

>  <NdNH>
0

>  <NssNH>
0

>  <NaaNH>
0

>  <NtN>
0

>  <NsssNH>
0

>  <NdsN>
1

>  <NaaN>
0

>  <NsssN>
0

>  <NddsN>
0

>  <NaasN>
0

>  <NssssN>
0

>  <NsOH>
2

>  <NdO>
0

>  <NssO>
0

>  <NaaO>
0

>  <NsF>
0

>  <NsSiH3>
0

>  <NssSiH2>
0

>  <NsssSiH>
0

>  <NssssSi>
0

>  <NsPH2>
0

>  <NssPH>
0

>  <NsssP>
0

>  <NdsssP>
0

>  <NsssssP>
0

>  <NsSH>
0

>  <NdS>
0

>  <NssS>
0

>  <NaaS>
0

>  <NdssS>
0

>  <NddssS>
0

>  <NsCl>
0

>  <NsBr>
0

>  <NsI>
0

>  <fragCpx>
177.03

>  <fMF>
0.32

>  <nHBAcc>
3

>  <nHBDon>
2

>  <Kier1>
17.42

>  <Kier2>
6.31

>  <Lipinski>
1

>  <GhoseFilter>
1

>  <FilterItLogS>
-3.13

>  <VMcGowan>
267.83

>  <LabuteASA>
144.76

>  <PEOE_VSA1>
10.31

>  <PEOE_VSA2>
0

>  <PEOE_VSA3>
0

>  <PEOE_VSA4>
0

>  <PEOE_VSA5>
6.42

>  <PEOE_VSA6>
23.57

>  <PEOE_VSA7>
87.54

>  <PEOE_VSA8>
5.41

>  <PEOE_VSA9>
5.71

>  <PEOE_VSA10>
5.6

>  <PEOE_VSA11>
0

>  <PEOE_VSA12>
0

>  <PEOE_VSA13>
0

>  <SMR_VSA1>
10.31

>  <SMR_VSA2>
0

>  <SMR_VSA3>
0

>  <SMR_VSA4>
34.24

>  <SMR_VSA5>
70.31

>  <SMR_VSA6>
0

>  <SMR_VSA7>
11.65

>  <SMR_VSA8>
0

>  <SMR_VSA9>
12.34

>  <SlogP_VSA1>
0

>  <SlogP_VSA2>
21.63

>  <SlogP_VSA3>
0

>  <SlogP_VSA4>
41.43

>  <SlogP_VSA5>
64.71

>  <SlogP_VSA6>
16.8

>  <SlogP_VSA7>
0

>  <SlogP_VSA8>
0

>  <SlogP_VSA9>
0

>  <SlogP_VSA10>
0

>  <SlogP_VSA11>
0

>  <EState_VSA1>
5.6

>  <EState_VSA2>
5.41

>  <EState_VSA3>
17.75

>  <EState_VSA4>
56.58

>  <EState_VSA5>
18.41

>  <EState_VSA6>
0

>  <EState_VSA7>
0

>  <EState_VSA8>
24.08

>  <EState_VSA9>
11.63

>  <EState_VSA10>
5.11

>  <VSA_EState1>
0

>  <VSA_EState2>
0

>  <VSA_EState3>
23.66

>  <VSA_EState4>
1.4

>  <VSA_EState5>
5.47

>  <VSA_EState6>
0

>  <VSA_EState7>
17.41

>  <VSA_EState8>
2.22

>  <VSA_EState9>
0

>  <apol>
57.11

>  <bpol>
29.09

>  <nRing>
4

>  <nHRing>
0

>  <naRing>
0

>  <naHRing>
0

>  <nARing 2>
4

>  <nAHRing 2>
0

>  <nFRing>
1

>  <nFHRing>
0

>  <nFaRing>
0

>  <nFaHRing>
0

>  <nFARing 2>
1

>  <nFAHRing 2>
0

>  <nRot>
1

>  <SLogP>
4.14

>  <SMR>
94.71

>  <TopoPSA(NO)>
52.82

>  <TopoPSA>
52.82

>  <JGI1>
0.22

>  <JGI2>
0.12

>  <JGI3>
0.06

>  <JGI4>
0.05

>  <JGI5>
0.03

>  <Diameter>
12

>  <Radius>
6

>  <TMWC10>
129.6

>  <TSRW10>
74.46

>  <MW>
327.22

>  <AMW>
6.17

>  <WPath>
1215

>  <WPol>
51

>  <Zagreb1>
138

>  <Zagreb2>
176

>  <mZagreb2>
5.34

>  <yes>


>  <nAR-cont>
0.199399

>  <nHA-cont>
0.94700071

>  <MWHBN>
0.276407666

>  <MWHBN-cont>
0.905013612

>  <TPSA-cont>
0.631283601

>  <pka_cont>
0.97

>  <yes.1>


>  <BBB_SCORE>
4.251487329

>  <MMFF94 Energy>
77.67

$$$$
Compound 2666
Actelion Java MolfileCreator 2.0

  0  0  0  0  0  0              0 V3000
M  V30 BEGIN CTAB
M  V30 COUNTS 47 50 0 0 0
M  V30 BEGIN ATOM
M  V30 1 O 4.2768 0.0 -4.5193 0
M  V30 2 C 3.3313 -0.1418 -3.7472 0
M  V30 3 C 2.2993 0.9154 -3.6572 0
M  V30 4 C 3.219 -1.3217 -2.8183 0
M  V30 5 C 1.2351 0.7814 -2.8488 0
M  V30 6 C 1.758 -1.6474 -2.5416 0
M  V30 7 C 0.9839 -0.4337 -2.0634 0
M  V30 8 C 0.231 1.8977 -2.7094 0
M  V30 9 C 0.1046 -0.4233 -1.0326 0
M  V30 10 C -0.0745 2.1291 -1.236 0
M  V30 11 C -0.2731 -1.6079 -0.2772 0
M  V30 12 C -0.6308 0.8427 -0.5979 0
M  V30 13 C -0.9312 -1.5642 0.8914 0
M  V30 14 C -0.7189 0.9666 0.9415 0
M  V30 15 C -1.3321 -0.2922 1.6397 0
M  V30 16 C 0.6652 1.1842 1.6111 0
M  V30 17 C -0.6677 -0.2017 3.0639 0
M  V30 18 C -2.8836 -0.2316 1.772 0
M  V30 19 C 0.7765 0.1827 2.7577 0
M  V30 20 O -1.2473 0.8672 3.8218 0
M  V30 21 C -0.752 -1.433 3.8699 0
M  V30 22 C -3.6916 -0.2198 0.4807 0
M  V30 23 C -0.8218 -2.4276 4.5403 0
M  V30 24 H 2.4806 1.8032 -4.2516 0
M  V30 25 H 3.7014 -2.1857 -3.288 0
M  V30 26 H 3.755 -1.0845 -1.8924 0
M  V30 27 H 1.7368 -2.4704 -1.8219 0
M  V30 28 H 1.284 -2.0178 -3.4606 0
M  V30 29 H -0.687 1.6344 -3.2499 0
M  V30 30 H 0.6053 2.8294 -3.1502 0
M  V30 31 H -0.8091 2.9372 -1.1329 0
M  V30 32 H 0.8367 2.4695 -0.73 0
M  V30 33 H -0.0346 -2.5859 -0.6851 0
M  V30 34 H -1.6491 0.738 -0.9918 0
M  V30 35 H -1.2017 -2.5101 1.3589 0
M  V30 36 H -1.3397 1.8428 1.1778 0
M  V30 37 H 0.7189 2.2085 1.9998 0
M  V30 38 H 1.5118 1.0592 0.9285 0
M  V30 39 H -3.2215 -1.0924 2.3647 0
M  V30 40 H -3.1782 0.6587 2.3411 0
M  V30 41 H 1.3667 -0.684 2.435 0
M  V30 42 H 1.29 0.6332 3.6148 0
M  V30 43 H -0.8579 0.8233 4.7121 0
M  V30 44 H -3.581 0.7314 -0.046 0
M  V30 45 H -4.7566 -0.3307 0.7129 0
M  V30 46 H -3.4151 -1.0372 -0.1902 0
M  V30 47 H -0.8877 -3.3099 5.1347 0
M  V30 END ATOM
M  V30 BEGIN BOND
M  V30 1 2 1 2
M  V30 2 1 2 3
M  V30 3 1 2 4
M  V30 4 2 3 5
M  V30 5 1 4 6
M  V30 6 1 5 7
M  V30 7 1 5 8
M  V30 8 2 7 9
M  V30 9 1 8 10
M  V30 10 1 9 11
M  V30 11 1 9 12
M  V30 12 2 11 13
M  V30 13 1 12 14
M  V30 14 1 13 15
M  V30 15 1 14 16
M  V30 16 1 15 17
M  V30 17 1 15 18
M  V30 18 1 16 19
M  V30 19 1 17 20
M  V30 20 1 17 21
M  V30 21 1 18 22
M  V30 22 3 21 23
M  V30 23 1 6 7
M  V30 24 1 10 12
M  V30 25 1 14 15
M  V30 26 1 17 19
M  V30 27 1 3 24
M  V30 28 1 4 25
M  V30 29 1 4 26
M  V30 30 1 6 27
M  V30 31 1 6 28
M  V30 32 1 8 29
M  V30 33 1 8 30
M  V30 34 1 10 31
M  V30 35 1 10 32
M  V30 36 1 11 33
M  V30 37 1 12 34
M  V30 38 1 13 35
M  V30 39 1 14 36
M  V30 40 1 16 37
M  V30 41 1 16 38
M  V30 42 1 18 39
M  V30 43 1 18 40
M  V30 44 1 19 41
M  V30 45 1 19 42
M  V30 46 1 20 43
M  V30 47 1 22 44
M  V30 48 1 22 45
M  V30 49 1 22 46
M  V30 50 1 23 47
M  V30 END BOND
M  V30 END CTAB
M  END
>  <Column 1>
3338

>  <level_0>
5552

>  <index>
5553

>  <Unnamed: 0>
5553

>  <NO.>
5565

>  <Name>
gestrinone

>  <IUPAC_name>
13-ethyl-17-ethynyl-17-hydroxy-1-2-6-7-8-14-15-16-octahydrocyclopenta[a]phenanthren-3-one

>  <SMILES>
C#CC1(O)CCC2C3CCC4=CC(=O)CCC4=C3C=CC21CC

>  <CID>
628035

>  <logBB>


>  <BBB+/BBB->
BBB-

>  <Inchi>
InChI=1S/C21H24O2/c1-3-20-11-9-17-16-8-6-15(22)13-14(16)5-7-18(17)19(20)10-12-21(20-23)4-2/h2-9-11-13-18-19-23H-3-5-8-10-12H2-1H3

>  <threshold>


>  <reference>
R23|

>  <group>
C

>  <Class>
-1

>  <ABC>
18.33

>  <ABCGG>
14.85

>  <nAcid>
0

>  <nBase>
0

>  <nAromAtom>
0

>  <nAromBond>
0

>  <nAtom>
47

>  <nHeavyAtom>
23

>  <nSpiro>
0

>  <nBridgehead>
0

>  <nHetero>
2

>  <nN>
0

>  <nO>
2

>  <nF>
0

>  <BalabanJ>
1.6

>  <BertzCT>
701.84

>  <nBonds>
50

>  <nBondsO>
26

>  <nBondsS>
45

>  <nBondsD>
4

>  <nBondsT>
1

>  <nBondsA>
0

>  <nBondsM>
5

>  <nBondsKS>
45

>  <nBondsKD>
4

>  <RNCG>
0.27

>  <RPCG>
0.15

>  <FCSP3>
0.57

>  <SZ>
27.67

>  <Sm>
25.68

>  <Sv>
28.93

>  <Sse>
46.32

>  <Sp>
31.54

>  <Si>
52.4

>  <MZ>
0.59

>  <Mm>
0.55

>  <Mv>
0.62

>  <Mse>
0.99

>  <Mp>
0.67

>  <Mi>
1.11

>  <NsCH3>
1

>  <NdCH2>
0

>  <NssCH2>
7

>  <NtCH>
1

>  <NdsCH>
3

>  <NaaCH>
0

>  <NsssCH>
2

>  <NddC>
0

>  <NtsC>
1

>  <NdssC>
4

>  <NaasC>
0

>  <NaaaC>
0

>  <NssssC>
2

>  <NsNH3>
0

>  <NsNH2>
0

>  <NssNH2>
0

>  <NdNH>
0

>  <NssNH>
0

>  <NaaNH>
0

>  <NtN>
0

>  <NsssNH>
0

>  <NdsN>
0

>  <NaaN>
0

>  <NsssN>
0

>  <NddsN>
0

>  <NaasN>
0

>  <NssssN>
0

>  <NsOH>
1

>  <NdO>
1

>  <NssO>
0

>  <NaaO>
0

>  <NsF>
0

>  <NsSiH3>
0

>  <NssSiH2>
0

>  <NsssSiH>
0

>  <NssssSi>
0

>  <NsPH2>
0

>  <NssPH>
0

>  <NsssP>
0

>  <NdsssP>
0

>  <NsssssP>
0

>  <NsSH>
0

>  <NdS>
0

>  <NssS>
0

>  <NaaS>
0

>  <NdssS>
0

>  <NddssS>
0

>  <NsCl>
0

>  <NsBr>
0

>  <NsI>
0

>  <fragCpx>
170.02

>  <fMF>
0.36

>  <nHBAcc>
2

>  <nHBDon>
1

>  <Kier1>
16.47

>  <Kier2>
5.77

>  <Lipinski>
1

>  <GhoseFilter>
1

>  <FilterItLogS>
-3.54

>  <VMcGowan>
249.25

>  <LabuteASA>
137.9

>  <PEOE_VSA1>
5.11

>  <PEOE_VSA2>
4.79

>  <PEOE_VSA3>
0

>  <PEOE_VSA4>
0

>  <PEOE_VSA5>
6.42

>  <PEOE_VSA6>
25

>  <PEOE_VSA7>
73.16

>  <PEOE_VSA8>
11.84

>  <PEOE_VSA9>
0

>  <PEOE_VSA10>
5.6

>  <PEOE_VSA11>
5.78

>  <PEOE_VSA12>
0

>  <PEOE_VSA13>
0

>  <SMR_VSA1>
9.9

>  <SMR_VSA2>
0

>  <SMR_VSA3>
0

>  <SMR_VSA4>
17.25

>  <SMR_VSA5>
57.47

>  <SMR_VSA6>
0

>  <SMR_VSA7>
34.95

>  <SMR_VSA8>
0

>  <SMR_VSA9>
12.34

>  <SlogP_VSA1>
0

>  <SlogP_VSA2>
16.49

>  <SlogP_VSA3>
4.79

>  <SlogP_VSA4>
29.59

>  <SlogP_VSA5>
51.87

>  <SlogP_VSA6>
34.95

>  <SlogP_VSA7>
0

>  <SlogP_VSA8>
0

>  <SlogP_VSA9>
0

>  <SlogP_VSA10>
0

>  <SlogP_VSA11>
0

>  <EState_VSA1>
5.6

>  <EState_VSA2>
11.2

>  <EState_VSA3>
24.68

>  <EState_VSA4>
32.1

>  <EState_VSA5>
16.72

>  <EState_VSA6>
0

>  <EState_VSA7>
6.08

>  <EState_VSA8>
25

>  <EState_VSA9>
6.42

>  <EState_VSA10>
9.9

>  <VSA_EState1>
0

>  <VSA_EState2>
11.71

>  <VSA_EState3>
11.04

>  <VSA_EState4>
2.8

>  <VSA_EState5>
3.91

>  <VSA_EState6>
0

>  <VSA_EState7>
18.22

>  <VSA_EState8>
2.15

>  <VSA_EState9>
0

>  <apol>
52.68

>  <bpol>
24.94

>  <nRing>
4

>  <nHRing>
0

>  <naRing>
0

>  <naHRing>
0

>  <nARing 2>
4

>  <nAHRing 2>
0

>  <nFRing>
1

>  <nFHRing>
0

>  <nFaRing>
0

>  <nFaHRing>
0

>  <nFARing 2>
1

>  <nFAHRing 2>
0

>  <nRot>
1

>  <SLogP>
3.72

>  <SMR>
90.44

>  <TopoPSA(NO)>
37.3

>  <TopoPSA>
37.3

>  <JGI1>
0.23

>  <JGI2>
0.12

>  <JGI3>
0.06

>  <JGI4>
0.05

>  <JGI5>
0.03

>  <Diameter>
11

>  <Radius>
6

>  <TMWC10>
127.4

>  <TSRW10>
73.34

>  <MW>
308.18

>  <AMW>
6.56

>  <WPath>
1053

>  <WPol>
49

>  <Zagreb1>
134

>  <Zagreb2>
171

>  <mZagreb2>
5.01

>  <yes>


>  <nAR-cont>
0.199399

>  <nHA-cont>
0.967789328

>  <MWHBN>
0.170890936

>  <MWHBN-cont>
0.975338395

>  <TPSA-cont>
0.739622838

>  <pka_cont>
0.97

>  <yes.1>


>  <BBB_SCORE>
4.594441597

>  <MMFF94 Energy>
53.9

$$$$
Compound 2667
Actelion Java MolfileCreator 2.0

  0  0  0  0  0  0              0 V3000
M  V30 BEGIN CTAB
M  V30 COUNTS 52 55 0 0 0
M  V30 BEGIN ATOM
M  V30 1 O -5.9669 -1.7711 -1.4489 0
M  V30 2 C -4.8361 -1.4657 -1.0768 0
M  V30 3 C -4.5329 -0.048 -0.7677 0
M  V30 4 C -3.7214 -2.4783 -0.9775 0
M  V30 5 C -3.2965 0.3376 -0.4098 0
M  V30 6 C -2.6626 -2.0481 0.031 0
M  V30 7 C -2.1309 -0.6395 -0.2843 0
M  V30 8 C -3.0058 1.7838 -0.0868 0
M  V30 9 C -1.1119 -0.1054 0.7662 0
M  V30 10 C -1.5698 2.1409 -0.4492 0
M  V30 11 C -0.021 -1.106 1.1512 0
M  V30 12 C -0.5274 1.2757 0.3002 0
M  V30 13 C -0.1128 -1.8427 2.2723 0
M  V30 14 C 1.187 -1.2114 0.2367 0
M  V30 15 C 0.7163 1.0754 -0.5842 0
M  V30 16 C 1.8303 0.1749 0.0362 0
M  V30 17 C 1.4695 2.3159 -1.0555 0
M  V30 18 C 2.8716 0.2766 -1.1256 0
M  V30 19 C 2.3793 0.7787 1.3846 0
M  V30 20 C 2.8354 1.7761 -1.5217 0
M  V30 21 O 2.4133 -0.4766 -2.2551 0
M  V30 22 C 4.2377 -0.1717 -0.8275 0
M  V30 23 C 3.1964 -0.1493 2.2809 0
M  V30 24 C 5.3664 -0.5384 -0.6396 0
M  V30 25 H -5.3654 0.6413 -0.8524 0
M  V30 26 H -4.1488 -3.4369 -0.6642 0
M  V30 27 H -3.2824 -2.6022 -1.9733 0
M  V30 28 H -3.0922 -2.0674 1.0415 0
M  V30 29 H -1.8499 -2.7824 0.0091 0
M  V30 30 H -1.6305 -0.6821 -1.2619 0
M  V30 31 H -3.1679 1.9555 0.9843 0
M  V30 32 H -3.6895 2.4482 -0.6288 0
M  V30 33 H -1.6855 0.1046 1.6834 0
M  V30 34 H -1.3856 3.1993 -0.227 0
M  V30 35 H -1.4514 2.0337 -1.5357 0
M  V30 36 H -0.2473 1.8343 1.2017 0
M  V30 37 H -0.9668 -1.7648 2.9386 0
M  V30 38 H 0.6611 -2.551 2.5525 0
M  V30 39 H 0.8412 -1.6308 -0.7164 0
M  V30 40 H 1.9257 -1.9239 0.6216 0
M  V30 41 H 0.3493 0.5826 -1.4991 0
M  V30 42 H 1.6012 3.0384 -0.2422 0
M  V30 43 H 0.9484 2.828 -1.8707 0
M  V30 44 H 1.5533 1.1414 2.0041 0
M  V30 45 H 2.9931 1.6637 1.1803 0
M  V30 46 H 2.9431 1.91 -2.6046 0
M  V30 47 H 3.6318 2.3545 -1.0379 0
M  V30 48 H 3.1171 -0.4384 -2.9256 0
M  V30 49 H 3.6003 0.4213 3.1245 0
M  V30 50 H 2.5836 -0.9477 2.7046 0
M  V30 51 H 4.0391 -0.6085 1.7663 0
M  V30 52 H 6.3654 -0.8681 -0.4685 0
M  V30 END ATOM
M  V30 BEGIN BOND
M  V30 1 2 1 2
M  V30 2 1 2 3
M  V30 3 1 2 4
M  V30 4 2 3 5
M  V30 5 1 4 6
M  V30 6 1 5 7
M  V30 7 1 5 8
M  V30 8 1 7 9
M  V30 9 1 8 10
M  V30 10 1 9 11
M  V30 11 1 9 12
M  V30 12 2 11 13
M  V30 13 1 11 14
M  V30 14 1 12 15
M  V30 15 1 14 16
M  V30 16 1 15 17
M  V30 17 1 16 18
M  V30 18 1 16 19
M  V30 19 1 17 20
M  V30 20 1 18 21
M  V30 21 1 18 22
M  V30 22 1 19 23
M  V30 23 3 22 24
M  V30 24 1 6 7
M  V30 25 1 10 12
M  V30 26 1 15 16
M  V30 27 1 18 20
M  V30 28 1 3 25
M  V30 29 1 4 26
M  V30 30 1 4 27
M  V30 31 1 6 28
M  V30 32 1 6 29
M  V30 33 1 7 30
M  V30 34 1 8 31
M  V30 35 1 8 32
M  V30 36 1 9 33
M  V30 37 1 10 34
M  V30 38 1 10 35
M  V30 39 1 12 36
M  V30 40 1 13 37
M  V30 41 1 13 38
M  V30 42 1 14 39
M  V30 43 1 14 40
M  V30 44 1 15 41
M  V30 45 1 17 42
M  V30 46 1 17 43
M  V30 47 1 19 44
M  V30 48 1 19 45
M  V30 49 1 20 46
M  V30 50 1 20 47
M  V30 51 1 21 48
M  V30 52 1 23 49
M  V30 53 1 23 50
M  V30 54 1 23 51
M  V30 55 1 24 52
M  V30 END BOND
M  V30 END CTAB
M  END
>  <Column 1>
3339

>  <level_0>
5553

>  <index>
5554

>  <Unnamed: 0>
5554

>  <NO.>
5566

>  <Name>
etonogestrel

>  <IUPAC_name>
13-ethyl-17-ethynyl-17-hydroxy-11-methylidene-2-6-7-8-9-10-12-14-15-16-decahydro-1h-cyclopenta[a]phenanthren-3-one

>  <SMILES>
C#CC1(O)CCC2C3CCC4=CC(=O)CCC4C3C(=C)CC21CC

>  <CID>
14883207

>  <logBB>


>  <BBB+/BBB->
BBB-

>  <Inchi>
InChI=1S/C22H28O2/c1-4-21-13-14(3)20-17-9-7-16(23)12-15(17)6-8-18(20)19(21)10-11-22(21-24)5-2/h2-12-17-20-24H-3-4-6-11-13H2-1H3

>  <threshold>


>  <reference>
R23|

>  <group>
C

>  <Class>
-1

>  <ABC>
19.11

>  <ABCGG>
15.74

>  <nAcid>
0

>  <nBase>
0

>  <nAromAtom>
0

>  <nAromBond>
0

>  <nAtom>
52

>  <nHeavyAtom>
24

>  <nSpiro>
0

>  <nBridgehead>
0

>  <nHetero>
2

>  <nN>
0

>  <nO>
2

>  <nF>
0

>  <BalabanJ>
1.66

>  <BertzCT>
665.95

>  <nBonds>
55

>  <nBondsO>
27

>  <nBondsS>
51

>  <nBondsD>
3

>  <nBondsT>
1

>  <nBondsA>
0

>  <nBondsM>
4

>  <nBondsKS>
51

>  <nBondsKD>
3

>  <RNCG>
0.25

>  <RPCG>
0.14

>  <FCSP3>
0.68

>  <SZ>
29.33

>  <Sm>
27.01

>  <Sv>
31.02

>  <Sse>
51.09

>  <Sp>
34.14

>  <Si>
58.23

>  <MZ>
0.56

>  <Mm>
0.52

>  <Mv>
0.6

>  <Mse>
0.98

>  <Mp>
0.66

>  <Mi>
1.12

>  <NsCH3>
1

>  <NdCH2>
1

>  <NssCH2>
8

>  <NtCH>
1

>  <NdsCH>
1

>  <NaaCH>
0

>  <NsssCH>
4

>  <NddC>
0

>  <NtsC>
1

>  <NdssC>
3

>  <NaasC>
0

>  <NaaaC>
0

>  <NssssC>
2

>  <NsNH3>
0

>  <NsNH2>
0

>  <NssNH2>
0

>  <NdNH>
0

>  <NssNH>
0

>  <NaaNH>
0

>  <NtN>
0

>  <NsssNH>
0

>  <NdsN>
0

>  <NaaN>
0

>  <NsssN>
0

>  <NddsN>
0

>  <NaasN>
0

>  <NssssN>
0

>  <NsOH>
1

>  <NdO>
1

>  <NssO>
0

>  <NaaO>
0

>  <NsF>
0

>  <NsSiH3>
0

>  <NssSiH2>
0

>  <NsssSiH>
0

>  <NssssSi>
0

>  <NsPH2>
0

>  <NssPH>
0

>  <NsssP>
0

>  <NdsssP>
0

>  <NsssssP>
0

>  <NsSH>
0

>  <NdS>
0

>  <NssS>
0

>  <NaaS>
0

>  <NdssS>
0

>  <NddssS>
0

>  <NsCl>
0

>  <NsBr>
0

>  <NsI>
0

>  <fragCpx>
177.02

>  <fMF>
0.33

>  <nHBAcc>
2

>  <nHBDon>
1

>  <Kier1>
17.42

>  <Kier2>
6.02

>  <Lipinski>
1

>  <GhoseFilter>
1

>  <FilterItLogS>
-3.95

>  <VMcGowan>
267.64

>  <LabuteASA>
144.96

>  <PEOE_VSA1>
5.11

>  <PEOE_VSA2>
4.79

>  <PEOE_VSA3>
0

>  <PEOE_VSA4>
0

>  <PEOE_VSA5>
6.42

>  <PEOE_VSA6>
30.57

>  <PEOE_VSA7>
74.69

>  <PEOE_VSA8>
11.84

>  <PEOE_VSA9>
0

>  <PEOE_VSA10>
5.6

>  <PEOE_VSA11>
5.78

>  <PEOE_VSA12>
0

>  <PEOE_VSA13>
0

>  <SMR_VSA1>
9.9

>  <SMR_VSA2>
0

>  <SMR_VSA3>
0

>  <SMR_VSA4>
29.09

>  <SMR_VSA5>
63.89

>  <SMR_VSA6>
0

>  <SMR_VSA7>
23.8

>  <SMR_VSA8>
0

>  <SMR_VSA9>
12.34

>  <SlogP_VSA1>
0

>  <SlogP_VSA2>
16.49

>  <SlogP_VSA3>
4.79

>  <SlogP_VSA4>
41.43

>  <SlogP_VSA5>
58.29

>  <SlogP_VSA6>
23.8

>  <SlogP_VSA7>
0

>  <SlogP_VSA8>
0

>  <SlogP_VSA9>
0

>  <SlogP_VSA10>
0

>  <SlogP_VSA11>
0

>  <EState_VSA1>
5.6

>  <EState_VSA2>
5.41

>  <EState_VSA3>
35.88

>  <EState_VSA4>
44.95

>  <EState_VSA5>
11.15

>  <EState_VSA6>
0

>  <EState_VSA7>
6.08

>  <EState_VSA8>
19.42

>  <EState_VSA9>
6.42

>  <EState_VSA10>
9.9

>  <VSA_EState1>
0

>  <VSA_EState2>
11.81

>  <VSA_EState3>
11.19

>  <VSA_EState4>
1.48

>  <VSA_EState5>
5.13

>  <VSA_EState6>
0

>  <VSA_EState7>
15.08

>  <VSA_EState8>
6.65

>  <VSA_EState9>
0

>  <apol>
57.01

>  <bpol>
28.96

>  <nRing>
4

>  <nHRing>
0

>  <naRing>
0

>  <naHRing>
0

>  <nARing 2>
4

>  <nAHRing 2>
0

>  <nFRing>
1

>  <nFHRing>
0

>  <nFaRing>
0

>  <nFaHRing>
0

>  <nFARing 2>
1

>  <nFAHRing 2>
0

>  <nRot>
1

>  <SLogP>
4.05

>  <SMR>
95.02

>  <TopoPSA(NO)>
37.3

>  <TopoPSA>
37.3

>  <JGI1>
0.24

>  <JGI2>
0.12

>  <JGI3>
0.06

>  <JGI4>
0.06

>  <JGI5>
0.03

>  <Diameter>
11

>  <Radius>
6

>  <TMWC10>
130

>  <TSRW10>
74.59

>  <MW>
324.21

>  <AMW>
6.23

>  <WPath>
1150

>  <WPol>
52

>  <Zagreb1>
140

>  <Zagreb2>
179

>  <mZagreb2>
5.2

>  <yes>


>  <nAR-cont>
0.199399

>  <nHA-cont>
0.94700071

>  <MWHBN>
0.166612681

>  <MWHBN-cont>
0.968384488

>  <TPSA-cont>
0.739622838

>  <pka_cont>
0.97

>  <yes.1>


>  <BBB_SCORE>
4.563222117

>  <MMFF94 Energy>
83.291

$$$$
Compound 2668
Actelion Java MolfileCreator 2.0

  0  0  0  0  0  0              0 V3000
M  V30 BEGIN CTAB
M  V30 COUNTS 53 56 0 0 0
M  V30 BEGIN ATOM
M  V30 1 O 3.1286 -3.1286 -0.4808 0
M  V30 2 C 2.7125 -1.9277 -1.1402 0
M  V30 3 C 3.8592 -1.3912 -1.8931 0
M  V30 4 C 2.0872 -0.9246 -0.1029 0
M  V30 5 C 1.5508 -2.3005 -2.0589 0
M  V30 6 C 4.7991 -0.9622 -2.5061 0
M  V30 7 C 0.7124 -1.6147 0.1737 0
M  V30 8 C 1.8767 0.4831 -0.7359 0
M  V30 9 C 3.0019 -0.8898 1.1672 0
M  V30 10 C 0.3117 -2.2776 -1.167 0
M  V30 11 C -0.3919 -0.7027 0.7702 0
M  V30 12 C 0.7862 1.3071 -0.0771 0
M  V30 13 C 2.761 0.167 2.2322 0
M  V30 14 C -0.578 0.6116 -0.0348 0
M  V30 15 C -1.7121 -1.4756 0.9341 0
M  V30 16 C 1.0683 2.5277 0.4108 0
M  V30 17 C -1.7924 1.4704 0.4654 0
M  V30 18 C -2.7715 -0.6128 1.6008 0
M  V30 19 C -3.0214 0.6255 0.786 0
M  V30 20 C -2.1297 2.572 -0.5747 0
M  V30 21 C -4.2662 0.9621 0.4007 0
M  V30 22 C -3.4683 3.2422 -0.2857 0
M  V30 23 C -4.6022 2.2241 -0.3325 0
M  V30 24 H 3.6044 -3.6631 -1.1392 0
M  V30 25 H 1.6753 -3.2884 -2.5174 0
M  V30 26 H 1.4249 -1.579 -2.8753 0
M  V30 27 H 5.6352 -0.5794 -3.0447 0
M  V30 28 H 0.8734 -2.4336 0.8902 0
M  V30 29 H 2.8308 1.0265 -0.731 0
M  V30 30 H 1.5983 0.3985 -1.7936 0
M  V30 31 H 4.0438 -0.7676 0.8429 0
M  V30 32 H 2.9614 -1.8655 1.6684 0
M  V30 33 H -0.0437 -3.2982 -0.9809 0
M  V30 34 H -0.4954 -1.7537 -1.6874 0
M  V30 35 H -0.0782 -0.4276 1.7843 0
M  V30 36 H 3.4306 -0.014 3.0807 0
M  V30 37 H 1.7436 0.1497 2.6218 0
M  V30 38 H 2.9948 1.1673 1.8622 0
M  V30 39 H -0.8167 0.3377 -1.0722 0
M  V30 40 H -2.0893 -1.8208 -0.0357 0
M  V30 41 H -1.5422 -2.3696 1.5462 0
M  V30 42 H 2.0674 2.9481 0.3338 0
M  V30 43 H 0.3387 3.1481 0.9177 0
M  V30 44 H -1.5177 1.9581 1.411 0
M  V30 45 H -3.6875 -1.2023 1.7266 0
M  V30 46 H -2.4433 -0.3216 2.6062 0
M  V30 47 H -1.3534 3.3424 -0.5935 0
M  V30 48 H -2.1624 2.1401 -1.5838 0
M  V30 49 H -5.1064 0.3153 0.6441 0
M  V30 50 H -3.6573 4.0368 -1.0164 0
M  V30 51 H -3.4336 3.7189 0.7021 0
M  V30 52 H -4.8396 1.9718 -1.3726 0
M  V30 53 H -5.5022 2.6717 0.1043 0
M  V30 END ATOM
M  V30 BEGIN BOND
M  V30 1 1 1 2
M  V30 2 1 2 3
M  V30 3 1 2 4
M  V30 4 1 2 5
M  V30 5 3 3 6
M  V30 6 1 4 7
M  V30 7 1 4 8
M  V30 8 1 4 9
M  V30 9 1 5 10
M  V30 10 1 7 11
M  V30 11 1 8 12
M  V30 12 1 9 13
M  V30 13 1 11 14
M  V30 14 1 11 15
M  V30 15 2 12 16
M  V30 16 1 14 17
M  V30 17 1 15 18
M  V30 18 1 17 19
M  V30 19 1 17 20
M  V30 20 2 19 21
M  V30 21 1 20 22
M  V30 22 1 21 23
M  V30 23 1 7 10
M  V30 24 1 12 14
M  V30 25 1 18 19
M  V30 26 1 22 23
M  V30 27 1 1 24
M  V30 28 1 5 25
M  V30 29 1 5 26
M  V30 30 1 6 27
M  V30 31 1 7 28
M  V30 32 1 8 29
M  V30 33 1 8 30
M  V30 34 1 9 31
M  V30 35 1 9 32
M  V30 36 1 10 33
M  V30 37 1 10 34
M  V30 38 1 11 35
M  V30 39 1 13 36
M  V30 40 1 13 37
M  V30 41 1 13 38
M  V30 42 1 14 39
M  V30 43 1 15 40
M  V30 44 1 15 41
M  V30 45 1 16 42
M  V30 46 1 16 43
M  V30 47 1 17 44
M  V30 48 1 18 45
M  V30 49 1 18 46
M  V30 50 1 20 47
M  V30 51 1 20 48
M  V30 52 1 21 49
M  V30 53 1 22 50
M  V30 54 1 22 51
M  V30 55 1 23 52
M  V30 56 1 23 53
M  V30 END BOND
M  V30 END CTAB
M  END
>  <Column 1>
3340

>  <level_0>
5554

>  <index>
5555

>  <Unnamed: 0>
5555

>  <NO.>
5567

>  <Name>
chembl3560261

>  <IUPAC_name>
13-ethyl-17-ethynyl-11-methylidene-1-2-3-6-7-8-9-10-12-14-15-16-dodecahydrocyclopenta[a]phenanthren-17-ol

>  <SMILES>
C#CC1(O)CCC2C3CCC4=CCCCC4C3C(=C)CC21CC

>  <CID>
4659180

>  <logBB>


>  <BBB+/BBB->
BBB-

>  <Inchi>
InChI=1S/C22H30O/c1-4-21-14-15(3)20-17-9-7-6-8-16(17)10-11-18(20)19(21)12-13-22(21-23)5-2/h2-8-17-20-23H-3-4-6-7-9-14H2-1H3

>  <threshold>


>  <reference>
R23|

>  <group>
C

>  <Class>
-1

>  <ABC>
18.29

>  <ABCGG>
15.22

>  <nAcid>
0

>  <nBase>
0

>  <nAromAtom>
0

>  <nAromBond>
0

>  <nAtom>
53

>  <nHeavyAtom>
23

>  <nSpiro>
0

>  <nBridgehead>
0

>  <nHetero>
1

>  <nN>
0

>  <nO>
1

>  <nF>
0

>  <BalabanJ>
1.68

>  <BertzCT>
593.58

>  <nBonds>
56

>  <nBondsO>
26

>  <nBondsS>
53

>  <nBondsD>
2

>  <nBondsT>
1

>  <nBondsA>
0

>  <nBondsM>
3

>  <nBondsKS>
53

>  <nBondsKD>
2

>  <RNCG>
0.27

>  <RPCG>
0.15

>  <FCSP3>
0.73

>  <SZ>
28.33

>  <Sm>
25.85

>  <Sv>
30.84

>  <Sse>
51.65

>  <Sp>
34.46

>  <Si>
59.44

>  <MZ>
0.53

>  <Mm>
0.49

>  <Mv>
0.58

>  <Mse>
0.97

>  <Mp>
0.65

>  <Mi>
1.12

>  <NsCH3>
1

>  <NdCH2>
1

>  <NssCH2>
9

>  <NtCH>
1

>  <NdsCH>
1

>  <NaaCH>
0

>  <NsssCH>
4

>  <NddC>
0

>  <NtsC>
1

>  <NdssC>
2

>  <NaasC>
0

>  <NaaaC>
0

>  <NssssC>
2

>  <NsNH3>
0

>  <NsNH2>
0

>  <NssNH2>
0

>  <NdNH>
0

>  <NssNH>
0

>  <NaaNH>
0

>  <NtN>
0

>  <NsssNH>
0

>  <NdsN>
0

>  <NaaN>
0

>  <NsssN>
0

>  <NddsN>
0

>  <NaasN>
0

>  <NssssN>
0

>  <NsOH>
1

>  <NdO>
0

>  <NssO>
0

>  <NaaO>
0

>  <NsF>
0

>  <NsSiH3>
0

>  <NssSiH2>
0

>  <NsssSiH>
0

>  <NssssSi>
0

>  <NsPH2>
0

>  <NssPH>
0

>  <NsssP>
0

>  <NdsssP>
0

>  <NsssssP>
0

>  <NsSH>
0

>  <NdS>
0

>  <NssS>
0

>  <NaaS>
0

>  <NdssS>
0

>  <NddssS>
0

>  <NsCl>
0

>  <NsBr>
0

>  <NsI>
0

>  <fragCpx>
170.01

>  <fMF>
0.32

>  <nHBAcc>
1

>  <nHBDon>
1

>  <Kier1>
16.47

>  <Kier2>
5.77

>  <Lipinski>
1

>  <GhoseFilter>
1

>  <FilterItLogS>
-4.07

>  <VMcGowan>
266.07

>  <LabuteASA>
140.79

>  <PEOE_VSA1>
5.11

>  <PEOE_VSA2>
0

>  <PEOE_VSA3>
0

>  <PEOE_VSA4>
0

>  <PEOE_VSA5>
6.42

>  <PEOE_VSA6>
36.65

>  <PEOE_VSA7>
81.46

>  <PEOE_VSA8>
5.41

>  <PEOE_VSA9>
0

>  <PEOE_VSA10>
5.6

>  <PEOE_VSA11>
0

>  <PEOE_VSA12>
0

>  <PEOE_VSA13>
0

>  <SMR_VSA1>
5.11

>  <SMR_VSA2>
0

>  <SMR_VSA3>
0

>  <SMR_VSA4>
29.09

>  <SMR_VSA5>
70.31

>  <SMR_VSA6>
0

>  <SMR_VSA7>
23.8

>  <SMR_VSA8>
0

>  <SMR_VSA9>
12.34

>  <SlogP_VSA1>
0

>  <SlogP_VSA2>
10.71

>  <SlogP_VSA3>
0

>  <SlogP_VSA4>
41.43

>  <SlogP_VSA5>
64.71

>  <SlogP_VSA6>
23.8

>  <SlogP_VSA7>
0

>  <SlogP_VSA8>
0

>  <SlogP_VSA9>
0

>  <SlogP_VSA10>
0

>  <SlogP_VSA11>
0

>  <EState_VSA1>
5.6

>  <EState_VSA2>
5.41

>  <EState_VSA3>
17.75

>  <EState_VSA4>
31.6

>  <EState_VSA5>
37.68

>  <EState_VSA6>
5.57

>  <EState_VSA7>
0

>  <EState_VSA8>
25.5

>  <EState_VSA9>
6.42

>  <EState_VSA10>
5.11

>  <VSA_EState1>
0

>  <VSA_EState2>
0

>  <VSA_EState3>
11.2

>  <VSA_EState4>
2.08

>  <VSA_EState5>
5.48

>  <VSA_EState6>
0

>  <VSA_EState7>
18.65

>  <VSA_EState8>
6.76

>  <VSA_EState9>
0

>  <apol>
57.55

>  <bpol>
30.1

>  <nRing>
4

>  <nHRing>
0

>  <naRing>
0

>  <naHRing>
0

>  <nARing 2>
4

>  <nAHRing 2>
0

>  <nFRing>
1

>  <nFHRing>
0

>  <nFaRing>
0

>  <nFaHRing>
0

>  <nFARing 2>
1

>  <nFAHRing 2>
0

>  <nRot>
1

>  <SLogP>
4.87

>  <SMR>
94.63

>  <TopoPSA(NO)>
20.23

>  <TopoPSA>
20.23

>  <JGI1>
0.21

>  <JGI2>
0.12

>  <JGI3>
0.06

>  <JGI4>
0.06

>  <JGI5>
0.03

>  <Diameter>
10

>  <Radius>
5

>  <TMWC10>
127.66

>  <TSRW10>
73.39

>  <MW>
310.23

>  <AMW>
5.85

>  <WPath>
1004

>  <WPol>
50

>  <Zagreb1>
134

>  <Zagreb2>
172

>  <mZagreb2>
5.03

>  <yes>


>  <nAR-cont>
0.199399

>  <nHA-cont>
0.967789328

>  <MWHBN>
0.113550251

>  <MWHBN-cont>
0.800291315

>  <TPSA-cont>
0.858782038

>  <pka_cont>
0.97

>  <yes.1>


>  <BBB_SCORE>
4.570189377

>  <MMFF94 Energy>
74.5

$$$$
Compound 2669
Actelion Java MolfileCreator 2.0

  0  0  0  0  0  0              0 V3000
M  V30 BEGIN CTAB
M  V30 COUNTS 58 61 0 0 0
M  V30 BEGIN ATOM
M  V30 1 O 2.4102 -3.5364 3.8584 0
M  V30 2 C 1.4948 -3.8551 3.1146 0
M  V30 3 O 1.1069 -3.2108 1.9827 0
M  V30 4 C 0.6101 -5.0437 3.3402 0
M  V30 5 C 1.8387 -2.0489 1.5199 0
M  V30 6 C 3.2511 -2.3967 1.2619 0
M  V30 7 C 1.1247 -1.4935 0.2216 0
M  V30 8 C 1.6693 -0.8923 2.5264 0
M  V30 9 C 4.3993 -2.6862 1.059 0
M  V30 10 C -0.1328 -0.8347 0.8427 0
M  V30 11 C 1.9889 -0.3916 -0.4786 0
M  V30 12 C 0.8021 -2.5918 -0.8445 0
M  V30 13 C 0.3831 -0.1581 2.1259 0
M  V30 14 C -0.9044 0.0834 -0.125 0
M  V30 15 C 1.2106 0.5102 -1.4408 0
M  V30 16 C -0.3351 -3.5722 -0.5777 0
M  V30 17 C -0.015 1.164 -0.7823 0
M  V30 18 C -2.1147 0.7324 0.5632 0
M  V30 19 C -0.8279 2.0321 -1.7946 0
M  V30 20 C -2.9483 1.5263 -0.435 0
M  V30 21 C -2.1175 2.5479 -1.1699 0
M  V30 22 C 0.0454 3.1806 -2.3432 0
M  V30 23 C -2.5452 3.8189 -1.2709 0
M  V30 24 C -0.7743 4.2395 -3.0597 0
M  V30 25 C -1.8181 4.8038 -2.1205 0
M  V30 26 N -2.0334 6.0832 -2.1641 0
M  V30 27 O -3.0305 6.4804 -1.2656 0
M  V30 28 H -0.4267 -4.7175 3.4548 0
M  V30 29 H 0.7047 -5.74 2.5032 0
M  V30 30 H 0.9172 -5.5562 4.2563 0
M  V30 31 H 2.5121 -0.1915 2.4831 0
M  V30 32 H 1.5901 -1.2209 3.5667 0
M  V30 33 H 5.4188 -2.9472 0.893 0
M  V30 34 H -0.8273 -1.6177 1.1752 0
M  V30 35 H 2.467 0.2608 0.2613 0
M  V30 36 H 2.8104 -0.8604 -1.0352 0
M  V30 37 H 0.555 -2.1114 -1.7975 0
M  V30 38 H 1.713 -3.1711 -1.0415 0
M  V30 39 H 0.6003 0.9055 1.9897 0
M  V30 40 H -0.3673 -0.229 2.9216 0
M  V30 41 H -1.2933 -0.5568 -0.9301 0
M  V30 42 H 1.9023 1.2814 -1.798 0
M  V30 43 H 0.9017 -0.0541 -2.3275 0
M  V30 44 H -0.45 -4.2349 -1.443 0
M  V30 45 H -1.2915 -3.0605 -0.4418 0
M  V30 46 H -0.1509 -4.2142 0.2839 0
M  V30 47 H 0.3516 1.8368 0.0051 0
M  V30 48 H -1.7877 1.3967 1.3727 0
M  V30 49 H -2.7447 -0.0409 1.0189 0
M  V30 50 H -1.1204 1.3955 -2.6419 0
M  V30 51 H -3.3886 0.841 -1.1703 0
M  V30 52 H -3.7854 1.9969 0.0947 0
M  V30 53 H 0.7906 2.7848 -3.0423 0
M  V30 54 H 0.5968 3.6548 -1.5202 0
M  V30 55 H -3.458 4.1611 -0.7974 0
M  V30 56 H -1.2837 3.8202 -3.9348 0
M  V30 57 H -0.1179 5.045 -3.4072 0
M  V30 58 H -3.0628 7.4449 -1.4065 0
M  V30 END ATOM
M  V30 BEGIN BOND
M  V30 1 2 1 2
M  V30 2 1 2 3
M  V30 3 1 2 4
M  V30 4 1 3 5
M  V30 5 1 5 6
M  V30 6 1 5 7
M  V30 7 1 5 8
M  V30 8 3 6 9
M  V30 9 1 7 10
M  V30 10 1 7 11
M  V30 11 1 7 12
M  V30 12 1 8 13
M  V30 13 1 10 14
M  V30 14 1 11 15
M  V30 15 1 12 16
M  V30 16 1 14 17
M  V30 17 1 14 18
M  V30 18 1 17 19
M  V30 19 1 18 20
M  V30 20 1 19 21
M  V30 21 1 19 22
M  V30 22 2 21 23
M  V30 23 1 22 24
M  V30 24 1 23 25
M  V30 25 2 25 26
M  V30 26 1 26 27
M  V30 27 1 10 13
M  V30 28 1 15 17
M  V30 29 1 20 21
M  V30 30 1 24 25
M  V30 31 1 4 28
M  V30 32 1 4 29
M  V30 33 1 4 30
M  V30 34 1 8 31
M  V30 35 1 8 32
M  V30 36 1 9 33
M  V30 37 1 10 34
M  V30 38 1 11 35
M  V30 39 1 11 36
M  V30 40 1 12 37
M  V30 41 1 12 38
M  V30 42 1 13 39
M  V30 43 1 13 40
M  V30 44 1 14 41
M  V30 45 1 15 42
M  V30 46 1 15 43
M  V30 47 1 16 44
M  V30 48 1 16 45
M  V30 49 1 16 46
M  V30 50 1 17 47
M  V30 51 1 18 48
M  V30 52 1 18 49
M  V30 53 1 19 50
M  V30 54 1 20 51
M  V30 55 1 20 52
M  V30 56 1 22 53
M  V30 57 1 22 54
M  V30 58 1 23 55
M  V30 59 1 24 56
M  V30 60 1 24 57
M  V30 61 1 27 58
M  V30 END BOND
M  V30 END CTAB
M  END
>  <Column 1>
3341

>  <level_0>
5556

>  <index>
5557

>  <Unnamed: 0>
5557

>  <NO.>
5569

>  <Name>
norgestimate

>  <IUPAC_name>
[(3z)-13-ethyl-17-ethynyl-3-hydroxyimino-1-2-6-7-8-9-10-11-12-14-15-16-dodecahydrocyclopenta[a]phenanthren-17-yl] acetate

>  <SMILES>
C#CC1(OC(C)=O)CCC2C3CCC4=C/C(=N\O)CCC4C3CCC21CC

>  <CID>
9576068

>  <logBB>


>  <BBB+/BBB->
BBB-

>  <Inchi>
InChI=1S/C23H31NO3/c1-4-22-12-10-19-18-9-7-17(24-26)14-16(18)6-8-20(19)21(22)11-13-23(22-5-2)27-15(3)25/h2-14-18-21-26H-4-6-13H2-1-3H3/b24-17-

>  <threshold>


>  <reference>
R23|

>  <group>
C

>  <Class>
-1

>  <ABC>
21.11

>  <ABCGG>
16.97

>  <nAcid>
0

>  <nBase>
0

>  <nAromAtom>
0

>  <nAromBond>
0

>  <nAtom>
58

>  <nHeavyAtom>
27

>  <nSpiro>
0

>  <nBridgehead>
0

>  <nHetero>
4

>  <nN>
1

>  <nO>
3

>  <nF>
0

>  <BalabanJ>
1.58

>  <BertzCT>
732.4

>  <nBonds>
61

>  <nBondsO>
30

>  <nBondsS>
57

>  <nBondsD>
3

>  <nBondsT>
1

>  <nBondsA>
0

>  <nBondsM>
4

>  <nBondsKS>
57

>  <nBondsKD>
3

>  <RNCG>
0.23

>  <RPCG>
0.17

>  <FCSP3>
0.74

>  <SZ>
33.33

>  <Sm>
30.76

>  <Sv>
34.3

>  <Sse>
57.42

>  <Sp>
37.48

>  <Si>
65.36

>  <MZ>
0.57

>  <Mm>
0.53

>  <Mv>
0.59

>  <Mse>
0.99

>  <Mp>
0.65

>  <Mi>
1.13

>  <NsCH3>
2

>  <NdCH2>
0

>  <NssCH2>
9

>  <NtCH>
1

>  <NdsCH>
1

>  <NaaCH>
0

>  <NsssCH>
4

>  <NddC>
0

>  <NtsC>
1

>  <NdssC>
3

>  <NaasC>
0

>  <NaaaC>
0

>  <NssssC>
2

>  <NsNH3>
0

>  <NsNH2>
0

>  <NssNH2>
0

>  <NdNH>
0

>  <NssNH>
0

>  <NaaNH>
0

>  <NtN>
0

>  <NsssNH>
0

>  <NdsN>
1

>  <NaaN>
0

>  <NsssN>
0

>  <NddsN>
0

>  <NaasN>
0

>  <NssssN>
0

>  <NsOH>
1

>  <NdO>
1

>  <NssO>
1

>  <NaaO>
0

>  <NsF>
0

>  <NsSiH3>
0

>  <NssSiH2>
0

>  <NsssSiH>
0

>  <NssssSi>
0

>  <NsPH2>
0

>  <NssPH>
0

>  <NsssP>
0

>  <NdsssP>
0

>  <NsssssP>
0

>  <NsSH>
0

>  <NdS>
0

>  <NssS>
0

>  <NaaS>
0

>  <NdssS>
0

>  <NddssS>
0

>  <NsCl>
0

>  <NsBr>
0

>  <NsI>
0

>  <fragCpx>
198.04

>  <fMF>
0.29

>  <nHBAcc>
4

>  <nHBDon>
1

>  <Kier1>
20.28

>  <Kier2>
7.68

>  <Lipinski>
1

>  <GhoseFilter>
1

>  <FilterItLogS>
-3.76

>  <VMcGowan>
297.58

>  <LabuteASA>
161.97

>  <PEOE_VSA1>
9.94

>  <PEOE_VSA2>
4.79

>  <PEOE_VSA3>
0

>  <PEOE_VSA4>
0

>  <PEOE_VSA5>
6.42

>  <PEOE_VSA6>
23.57

>  <PEOE_VSA7>
87.54

>  <PEOE_VSA8>
12.34

>  <PEOE_VSA9>
5.71

>  <PEOE_VSA10>
0

>  <PEOE_VSA11>
5.6

>  <PEOE_VSA12>
0

>  <PEOE_VSA13>
0

>  <SMR_VSA1>
14.74

>  <SMR_VSA2>
0

>  <SMR_VSA3>
0

>  <SMR_VSA4>
34.24

>  <SMR_VSA5>
77.24

>  <SMR_VSA6>
0

>  <SMR_VSA7>
11.65

>  <SMR_VSA8>
0

>  <SMR_VSA9>
12.34

>  <SlogP_VSA1>
0

>  <SlogP_VSA2>
22.49

>  <SlogP_VSA3>
9.53

>  <SlogP_VSA4>
41.43

>  <SlogP_VSA5>
71.63

>  <SlogP_VSA6>
16.8

>  <SlogP_VSA7>
0

>  <SlogP_VSA8>
0

>  <SlogP_VSA9>
0

>  <SlogP_VSA10>
0

>  <SlogP_VSA11>
0

>  <EState_VSA1>
5.6

>  <EState_VSA2>
11.38

>  <EState_VSA3>
23.67

>  <EState_VSA4>
57.08

>  <EState_VSA5>
18.92

>  <EState_VSA6>
0

>  <EState_VSA7>
0

>  <EState_VSA8>
24.08

>  <EState_VSA9>
16.37

>  <EState_VSA10>
4.79

>  <VSA_EState1>
5.9

>  <VSA_EState2>
11.87

>  <VSA_EState3>
12.59

>  <VSA_EState4>
1.53

>  <VSA_EState5>
5.25

>  <VSA_EState6>
0

>  <VSA_EState7>
17.48

>  <VSA_EState8>
3.72

>  <VSA_EState9>
0

>  <apol>
62.59

>  <bpol>
33.7

>  <nRing>
4

>  <nHRing>
0

>  <naRing>
0

>  <naHRing>
0

>  <nARing 2>
4

>  <nAHRing 2>
0

>  <nFRing>
1

>  <nFHRing>
0

>  <nFaRing>
0

>  <nFaHRing>
0

>  <nFARing 2>
1

>  <nFAHRing 2>
0

>  <nRot>
2

>  <SLogP>
4.71

>  <SMR>
104.25

>  <TopoPSA(NO)>
58.89

>  <TopoPSA>
58.89

>  <JGI1>
0.23

>  <JGI2>
0.11

>  <JGI3>
0.06

>  <JGI4>
0.05

>  <JGI5>
0.03

>  <Diameter>
13

>  <Radius>
7

>  <TMWC10>
136.45

>  <TSRW10>
77.9

>  <MW>
369.23

>  <AMW>
6.37

>  <WPath>
1687

>  <WPol>
56

>  <Zagreb1>
152

>  <Zagreb2>
192

>  <mZagreb2>
6.05

>  <yes>


>  <nAR-cont>
0.199399

>  <nHA-cont>
0.860070871

>  <MWHBN>
0.260208521

>  <MWHBN-cont>
0.941002189

>  <TPSA-cont>
0.588911232

>  <pka_cont>
0.97

>  <yes.1>


>  <BBB_SCORE>
4.133795618

>  <MMFF94 Energy>
73.401

$$$$
Compound 2670
Actelion Java MolfileCreator 2.0

  0  0  0  0  0  0              0 V3000
M  V30 BEGIN CTAB
M  V30 COUNTS 60 63 0 0 0
M  V30 BEGIN ATOM
M  V30 1 O -2.2486 -3.9375 -4.501 0
M  V30 2 C -1.4494 -3.0269 -4.3427 0
M  V30 3 O -1.4587 -2.1054 -3.3443 0
M  V30 4 C -0.2783 -2.7754 -5.2433 0
M  V30 5 C -2.5305 -2.1149 -2.3639 0
M  V30 6 C -3.8297 -1.8948 -3.0295 0
M  V30 7 C -2.2107 -1.0039 -1.2992 0
M  V30 8 C -2.4821 -3.4122 -1.5074 0
M  V30 9 C -4.8823 -1.7218 -3.5824 0
M  V30 10 C -1.0617 -1.7007 -0.5307 0
M  V30 11 C -1.6608 0.3268 -1.8468 0
M  V30 12 C -3.4506 -0.7117 -0.4028 0
M  V30 13 C -1.607 -3.1008 -0.274 0
M  V30 14 C -0.5495 -0.8838 0.6594 0
M  V30 15 C -1.0768 1.2137 -0.7328 0
M  V30 16 C -0.0249 0.4878 0.1412 0
M  V30 17 C 0.5619 -1.6172 1.4239 0
M  V30 18 C 0.4838 1.3693 1.3194 0
M  V30 19 C 1.0498 -0.7853 2.6062 0
M  V30 20 C 1.4743 0.5977 2.1826 0
M  V30 21 C 1.0729 2.7006 0.8011 0
M  V30 22 C 2.653 1.1153 2.5771 0
M  V30 23 C 1.9258 3.3997 1.8521 0
M  V30 24 C 3.1036 2.5177 2.2765 0
M  V30 25 O 3.6802 3.0386 3.4853 0
M  V30 26 C 4.5552 4.0662 3.323 0
M  V30 27 O 4.8829 4.5649 2.2561 0
M  V30 28 C 5.0709 4.5115 4.6571 0
M  V30 29 H -0.3462 -1.7705 -5.668 0
M  V30 30 H 0.652 -2.8946 -4.6826 0
M  V30 31 H -0.2887 -3.4996 -6.0628 0
M  V30 32 H -3.4804 -3.7149 -1.1685 0
M  V30 33 H -2.0524 -4.2629 -2.0443 0
M  V30 34 H -5.8135 -1.5795 -4.0805 0
M  V30 35 H -0.2034 -1.8243 -1.2107 0
M  V30 36 H -0.8653 0.1452 -2.5797 0
M  V30 37 H -2.4477 0.8766 -2.377 0
M  V30 38 H -3.2106 -0.0974 0.4685 0
M  V30 39 H -3.922 -1.6237 -0.0238 0
M  V30 40 H -4.2141 -0.1609 -0.9641 0
M  V30 41 H -0.8017 -3.835 -0.1672 0
M  V30 42 H -2.2101 -3.1386 0.64 0
M  V30 43 H -1.3688 -0.7104 1.3677 0
M  V30 44 H -0.6228 2.0882 -1.2132 0
M  V30 45 H -1.8833 1.5993 -0.0986 0
M  V30 46 H 0.8362 0.2817 -0.5135 0
M  V30 47 H 0.1936 -2.5787 1.7999 0
M  V30 48 H 1.4016 -1.8369 0.7521 0
M  V30 49 H -0.3728 1.6135 1.964 0
M  V30 50 H 0.2421 -0.6906 3.3431 0
M  V30 51 H 1.8678 -1.3193 3.1042 0
M  V30 52 H 0.2608 3.3736 0.5018 0
M  V30 53 H 1.6856 2.523 -0.0923 0
M  V30 54 H 3.3361 0.5158 3.1744 0
M  V30 55 H 1.3104 3.6603 2.7238 0
M  V30 56 H 2.2961 4.3523 1.4555 0
M  V30 57 H 3.8625 2.4608 1.4856 0
M  V30 58 H 4.2418 4.8629 5.2765 0
M  V30 59 H 5.5947 3.6865 5.1464 0
M  V30 60 H 5.7749 5.3367 4.5166 0
M  V30 END ATOM
M  V30 BEGIN BOND
M  V30 1 2 1 2
M  V30 2 1 2 3
M  V30 3 1 2 4
M  V30 4 1 3 5
M  V30 5 1 5 6
M  V30 6 1 5 7
M  V30 7 1 5 8
M  V30 8 3 6 9
M  V30 9 1 7 10
M  V30 10 1 7 11
M  V30 11 1 7 12
M  V30 12 1 8 13
M  V30 13 1 10 14
M  V30 14 1 11 15
M  V30 15 1 14 16
M  V30 16 1 14 17
M  V30 17 1 16 18
M  V30 18 1 17 19
M  V30 19 1 18 20
M  V30 20 1 18 21
M  V30 21 2 20 22
M  V30 22 1 21 23
M  V30 23 1 22 24
M  V30 24 1 24 25
M  V30 25 1 25 26
M  V30 26 2 26 27
M  V30 27 1 26 28
M  V30 28 1 10 13
M  V30 29 1 15 16
M  V30 30 1 19 20
M  V30 31 1 23 24
M  V30 32 1 4 29
M  V30 33 1 4 30
M  V30 34 1 4 31
M  V30 35 1 8 32
M  V30 36 1 8 33
M  V30 37 1 9 34
M  V30 38 1 10 35
M  V30 39 1 11 36
M  V30 40 1 11 37
M  V30 41 1 12 38
M  V30 42 1 12 39
M  V30 43 1 12 40
M  V30 44 1 13 41
M  V30 45 1 13 42
M  V30 46 1 14 43
M  V30 47 1 15 44
M  V30 48 1 15 45
M  V30 49 1 16 46
M  V30 50 1 17 47
M  V30 51 1 17 48
M  V30 52 1 18 49
M  V30 53 1 19 50
M  V30 54 1 19 51
M  V30 55 1 21 52
M  V30 56 1 21 53
M  V30 57 1 22 54
M  V30 58 1 23 55
M  V30 59 1 23 56
M  V30 60 1 24 57
M  V30 61 1 28 58
M  V30 62 1 28 59
M  V30 63 1 28 60
M  V30 END BOND
M  V30 END CTAB
M  END
>  <Column 1>
3342

>  <level_0>
5557

>  <index>
5558

>  <Unnamed: 0>
5558

>  <NO.>
5570

>  <Name>
(17-acetyloxy-17-ethynyl-13-methyl-2-3-6-7-8-9-10-11-12-14-15-16-dodecahydro-1h-cyclopenta[a]phenanthren-3-yl) acetate

>  <IUPAC_name>
(17-acetyloxy-17-ethynyl-13-methyl-2-3-6-7-8-9-10-11-12-14-15-16-dodecahydro-1h-cyclopenta[a]phenanthren-3-yl) acetate

>  <SMILES>
C#CC1(OC(C)=O)CCC2C3CCC4=CC(OC(C)=O)CCC4C3CCC21C

>  <CID>
3304

>  <logBB>


>  <BBB+/BBB->
BBB-

>  <Inchi>
InChI=1S/C24H32O4/c1-5-24(28-16(3)26)13-11-22-21-8-6-17-14-18(27-15(2)25)7-9-19(17)20(21)10-12-23(22-24)4/h1-14-18-22H-6-13H2-2-4H3

>  <threshold>


>  <reference>
R23|

>  <group>
C

>  <Class>
-1

>  <ABC>
22.2

>  <ABCGG>
17.23

>  <nAcid>
0

>  <nBase>
0

>  <nAromAtom>
0

>  <nAromBond>
0

>  <nAtom>
60

>  <nHeavyAtom>
28

>  <nSpiro>
0

>  <nBridgehead>
0

>  <nHetero>
4

>  <nN>
0

>  <nO>
4

>  <nF>
0

>  <BalabanJ>
1.49

>  <BertzCT>
746.19

>  <nBonds>
63

>  <nBondsO>
31

>  <nBondsS>
59

>  <nBondsD>
3

>  <nBondsT>
1

>  <nBondsA>
0

>  <nBondsM>
4

>  <nBondsKS>
59

>  <nBondsKD>
3

>  <RNCG>
0.22

>  <RPCG>
0.14

>  <FCSP3>
0.75

>  <SZ>
34.67

>  <Sm>
32.01

>  <Sv>
35.53

>  <Sse>
59.53

>  <Sp>
38.7

>  <Si>
67.48

>  <MZ>
0.58

>  <Mm>
0.53

>  <Mv>
0.59

>  <Mse>
0.99

>  <Mp>
0.64

>  <Mi>
1.12

>  <NsCH3>
3

>  <NdCH2>
0

>  <NssCH2>
8

>  <NtCH>
1

>  <NdsCH>
1

>  <NaaCH>
0

>  <NsssCH>
5

>  <NddC>
0

>  <NtsC>
1

>  <NdssC>
3

>  <NaasC>
0

>  <NaaaC>
0

>  <NssssC>
2

>  <NsNH3>
0

>  <NsNH2>
0

>  <NssNH2>
0

>  <NdNH>
0

>  <NssNH>
0

>  <NaaNH>
0

>  <NtN>
0

>  <NsssNH>
0

>  <NdsN>
0

>  <NaaN>
0

>  <NsssN>
0

>  <NddsN>
0

>  <NaasN>
0

>  <NssssN>
0

>  <NsOH>
0

>  <NdO>
2

>  <NssO>
2

>  <NaaO>
0

>  <NsF>
0

>  <NsSiH3>
0

>  <NssSiH2>
0

>  <NsssSiH>
0

>  <NssssSi>
0

>  <NsPH2>
0

>  <NssPH>
0

>  <NsssP>
0

>  <NdsssP>
0

>  <NsssssP>
0

>  <NsSH>
0

>  <NdS>
0

>  <NssS>
0

>  <NaaS>
0

>  <NdssS>
0

>  <NddssS>
0

>  <NsCl>
0

>  <NsBr>
0

>  <NsI>
0

>  <fragCpx>
205.04

>  <fMF>
0.28

>  <nHBAcc>
4

>  <nHBDon>
0

>  <Kier1>
21.24

>  <Kier2>
7.92

>  <Lipinski>
1

>  <GhoseFilter>
1

>  <FilterItLogS>
-3.73

>  <VMcGowan>
307.56

>  <LabuteASA>
167.97

>  <PEOE_VSA1>
9.47

>  <PEOE_VSA2>
9.59

>  <PEOE_VSA3>
0

>  <PEOE_VSA4>
0

>  <PEOE_VSA5>
6.42

>  <PEOE_VSA6>
18.42

>  <PEOE_VSA7>
81.11

>  <PEOE_VSA8>
19.26

>  <PEOE_VSA9>
0

>  <PEOE_VSA10>
6.1

>  <PEOE_VSA11>
5.6

>  <PEOE_VSA12>
0

>  <PEOE_VSA13>
0

>  <SMR_VSA1>
19.06

>  <SMR_VSA2>
0

>  <SMR_VSA3>
0

>  <SMR_VSA4>
29.09

>  <SMR_VSA5>
83.84

>  <SMR_VSA6>
0

>  <SMR_VSA7>
11.65

>  <SMR_VSA8>
0

>  <SMR_VSA9>
12.34

>  <SlogP_VSA1>
0

>  <SlogP_VSA2>
23.64

>  <SlogP_VSA3>
19.06

>  <SlogP_VSA4>
41.43

>  <SlogP_VSA5>
72.14

>  <SlogP_VSA6>
11.65

>  <SlogP_VSA7>
0

>  <SlogP_VSA8>
0

>  <SlogP_VSA9>
0

>  <SlogP_VSA10>
0

>  <SlogP_VSA11>
0

>  <EState_VSA1>
5.6

>  <EState_VSA2>
23.46

>  <EState_VSA3>
23.67

>  <EState_VSA4>
44.95

>  <EState_VSA5>
25.84

>  <EState_VSA6>
0

>  <EState_VSA7>
0

>  <EState_VSA8>
18.92

>  <EState_VSA9>
15.9

>  <EState_VSA10>
9.59

>  <VSA_EState1>
11.28

>  <VSA_EState2>
23.12

>  <VSA_EState3>
0

>  <VSA_EState4>
0.64

>  <VSA_EState5>
4.94

>  <VSA_EState6>
0

>  <VSA_EState7>
16.45

>  <VSA_EState8>
5.23

>  <VSA_EState9>
0

>  <apol>
64.63

>  <bpol>
37.31

>  <nRing>
4

>  <nHRing>
0

>  <naRing>
0

>  <naHRing>
0

>  <nARing 2>
4

>  <nAHRing 2>
0

>  <nFRing>
1

>  <nFHRing>
0

>  <nFaRing>
0

>  <nFaHRing>
0

>  <nFARing 2>
1

>  <nFAHRing 2>
0

>  <nRot>
2

>  <SLogP>
4.43

>  <SMR>
105.97

>  <TopoPSA(NO)>
52.6

>  <TopoPSA>
52.6

>  <JGI1>
0.26

>  <JGI2>
0.11

>  <JGI3>
0.06

>  <JGI4>
0.05

>  <JGI5>
0.03

>  <Diameter>
14

>  <Radius>
7

>  <TMWC10>
138.42

>  <TSRW10>
78.98

>  <MW>
384.23

>  <AMW>
6.4

>  <WPath>
1979

>  <WPol>
55

>  <Zagreb1>
158

>  <Zagreb2>
196

>  <mZagreb2>
6.01

>  <yes>


>  <nAR-cont>
0.199399

>  <nHA-cont>
0.82432561

>  <MWHBN>
0.204063042

>  <MWHBN-cont>
0.999999307

>  <TPSA-cont>
0.632819337

>  <pka_cont>
0.97

>  <yes.1>


>  <BBB_SCORE>
4.274362246

>  <MMFF94 Energy>
39.669

$$$$
Compound 2671
Actelion Java MolfileCreator 2.0

  0  0  0  0  0  0              0 V3000
M  V30 BEGIN CTAB
M  V30 COUNTS 52 56 0 0 0
M  V30 BEGIN ATOM
M  V30 1 N 3.0349 -2.4753 -3.8348 0
M  V30 2 C 2.532 -1.7529 -2.8719 0
M  V30 3 C 4.5057 -2.4422 -3.6108 0
M  V30 4 N 3.4241 -1.1942 -2.0135 0
M  V30 5 N 1.2198 -1.4818 -2.6114 0
M  V30 6 C 4.7622 -1.4688 -2.4553 0
M  V30 7 N 0.1794 -1.8724 -3.4 0
M  V30 8 C -1.0294 -1.6763 -2.9719 0
M  V30 9 C -1.4387 -1.084 -1.6813 0
M  V30 10 C -1.8959 0.2599 -1.6848 0
M  V30 11 C -1.3838 -1.8897 -0.5123 0
M  V30 12 C -2.3206 0.8251 -0.4629 0
M  V30 13 C -1.9342 1.0649 -2.8514 0
M  V30 14 C -1.8051 -1.3233 0.7102 0
M  V30 15 C -0.9253 -3.2313 -0.5114 0
M  V30 16 C -2.266 0.0192 0.7052 0
M  V30 17 C -2.7732 2.1687 -0.4612 0
M  V30 18 C -2.3847 2.384 -2.8217 0
M  V30 19 C -1.7386 -2.1178 1.8828 0
M  V30 20 C -0.8744 -3.9926 0.6553 0
M  V30 21 C -2.7338 0.5968 1.9832 0
M  V30 22 C -2.8058 2.9368 -1.6242 0
M  V30 23 C -1.2805 -3.4343 1.8553 0
M  V30 24 N -2.0569 1.3461 2.8007 0
M  V30 25 N -0.7654 1.6377 2.4668 0
M  V30 26 C 0.0807 2.4174 3.1906 0
M  V30 27 N 1.3253 2.668 2.8879 0
M  V30 28 N -0.3934 2.9713 4.3253 0
M  V30 29 C 1.7858 3.5667 3.9958 0
M  V30 30 C 0.6451 3.6529 5.0247 0
M  V30 31 H 5.018 -2.1172 -4.522 0
M  V30 32 H 4.855 -3.4496 -3.3598 0
M  V30 33 H 3.2175 -0.4109 -1.4148 0
M  V30 34 H 1.0475 -0.9945 -1.7426 0
M  V30 35 H 5.3682 -1.9226 -1.6662 0
M  V30 36 H 5.251 -0.5552 -2.8076 0
M  V30 37 H -1.8599 -1.9707 -3.6368 0
M  V30 38 H -1.5966 0.6744 -3.8115 0
M  V30 39 H -0.5818 -3.7048 -1.4321 0
M  V30 40 H -3.0972 2.6479 0.4627 0
M  V30 41 H -2.3971 2.9767 -3.7333 0
M  V30 42 H -2.0349 -1.7129 2.8502 0
M  V30 43 H -0.509 -5.0161 0.6208 0
M  V30 44 H -3.7728 0.3451 2.2584 0
M  V30 45 H -3.1515 3.9671 -1.5875 0
M  V30 46 H -1.2363 -4.0166 2.7724 0
M  V30 47 H -0.3336 1.2659 1.627 0
M  V30 48 H -1.3031 2.7219 4.6834 0
M  V30 49 H 2.0151 4.5544 3.5813 0
M  V30 50 H 2.6961 3.1616 4.4493 0
M  V30 51 H 0.9064 3.1307 5.95 0
M  V30 52 H 0.381 4.6892 5.2529 0
M  V30 END ATOM
M  V30 BEGIN BOND
M  V30 1 2 1 2
M  V30 2 1 1 3
M  V30 3 1 2 4
M  V30 4 1 2 5
M  V30 5 1 3 6
M  V30 6 1 5 7
M  V30 7 2 7 8
M  V30 8 1 8 9
M  V30 9 1 9 10
M  V30 10 2 9 11
M  V30 11 1 10 12
M  V30 12 2 10 13
M  V30 13 1 11 14
M  V30 14 1 11 15
M  V30 15 1 12 16
M  V30 16 2 12 17
M  V30 17 1 13 18
M  V30 18 1 14 19
M  V30 19 2 15 20
M  V30 20 1 16 21
M  V30 21 1 17 22
M  V30 22 2 19 23
M  V30 23 2 21 24
M  V30 24 1 24 25
M  V30 25 1 25 26
M  V30 26 2 26 27
M  V30 27 1 26 28
M  V30 28 1 27 29
M  V30 29 1 28 30
M  V30 30 1 4 6
M  V30 31 2 14 16
M  V30 32 2 18 22
M  V30 33 1 20 23
M  V30 34 1 29 30
M  V30 35 1 3 31
M  V30 36 1 3 32
M  V30 37 1 4 33
M  V30 38 1 5 34
M  V30 39 1 6 35
M  V30 40 1 6 36
M  V30 41 1 8 37
M  V30 42 1 13 38
M  V30 43 1 15 39
M  V30 44 1 17 40
M  V30 45 1 18 41
M  V30 46 1 19 42
M  V30 47 1 20 43
M  V30 48 1 21 44
M  V30 49 1 22 45
M  V30 50 1 23 46
M  V30 51 1 25 47
M  V30 52 1 28 48
M  V30 53 1 29 49
M  V30 54 1 29 50
M  V30 55 1 30 51
M  V30 56 1 30 52
M  V30 END BOND
M  V30 END CTAB
M  END
>  <Column 1>
3344

>  <level_0>
5560

>  <index>
5561

>  <Unnamed: 0>
5561

>  <NO.>
5573

>  <Name>
bisantrene hydrochloride

>  <IUPAC_name>
n-[(z)-[10-[(z)-(4-5-dihydro-1h-imidazol-2-ylhydrazinylidene)methyl]anthracen-9-yl]methylideneamino]-4-5-dihydro-1h-imidazol-2-amine

>  <SMILES>
C(=N\NC1=NCCN1)\c1c2ccccc2c(/C=N\NC2=NCCN2)c2ccccc12

>  <CID>
5351322

>  <logBB>


>  <BBB+/BBB->
BBB-

>  <Inchi>
InChI=1S/C22H22N8/c1-2-6-16-15(5-1)19(13-27-29-21-23-9-10-24-21)17-7-3-4-8-18(17)20(16)14-28-30-22-25-11-12-26-22/h1-8-13-14H-9-12H2-(H2-23-24-29)(H2-25-26-30)/b27-13--28-14-

>  <threshold>


>  <reference>
R23|

>  <group>
C

>  <Class>
-1

>  <ABC>
23.8

>  <ABCGG>
18.06

>  <nAcid>
0

>  <nBase>
6

>  <nAromAtom>
14

>  <nAromBond>
16

>  <nAtom>
52

>  <nHeavyAtom>
30

>  <nSpiro>
0

>  <nBridgehead>
0

>  <nHetero>
8

>  <nN>
8

>  <nO>
0

>  <nF>
0

>  <BalabanJ>
1.23

>  <BertzCT>
1057.46

>  <nBonds>
56

>  <nBondsO>
34

>  <nBondsS>
36

>  <nBondsD>
4

>  <nBondsT>
0

>  <nBondsA>
16

>  <nBondsM>
20

>  <nBondsKS>
45

>  <nBondsKD>
11

>  <RNCG>
0.14

>  <RPCG>
0.08

>  <FCSP3>
0.18

>  <SZ>
35

>  <Sm>
33.18

>  <Sv>
34.02

>  <Sse>
52.07

>  <Sp>
36.05

>  <Si>
58.89

>  <MZ>
0.67

>  <Mm>
0.64

>  <Mv>
0.65

>  <Mse>
1

>  <Mp>
0.69

>  <Mi>
1.13

>  <NsCH3>
0

>  <NdCH2>
0

>  <NssCH2>
4

>  <NtCH>
0

>  <NdsCH>
2

>  <NaaCH>
8

>  <NsssCH>
0

>  <NddC>
0

>  <NtsC>
0

>  <NdssC>
2

>  <NaasC>
2

>  <NaaaC>
4

>  <NssssC>
0

>  <NsNH3>
0

>  <NsNH2>
0

>  <NssNH2>
0

>  <NdNH>
0

>  <NssNH>
4

>  <NaaNH>
0

>  <NtN>
0

>  <NsssNH>
0

>  <NdsN>
4

>  <NaaN>
0

>  <NsssN>
0

>  <NddsN>
0

>  <NaasN>
0

>  <NssssN>
0

>  <NsOH>
0

>  <NdO>
0

>  <NssO>
0

>  <NaaO>
0

>  <NsF>
0

>  <NsSiH3>
0

>  <NssSiH2>
0

>  <NsssSiH>
0

>  <NssssSi>
0

>  <NsPH2>
0

>  <NssPH>
0

>  <NsssP>
0

>  <NdsssP>
0

>  <NsssssP>
0

>  <NsSH>
0

>  <NdS>
0

>  <NssS>
0

>  <NaaS>
0

>  <NdssS>
0

>  <NddssS>
0

>  <NsCl>
0

>  <NsBr>
0

>  <NsI>
0

>  <fragCpx>
286.08

>  <fMF>
0.58

>  <nHBAcc>
8

>  <nHBDon>
4

>  <Kier1>
21.83

>  <Kier2>
10.74

>  <Lipinski>
1

>  <GhoseFilter>
1

>  <FilterItLogS>
-6.58

>  <VMcGowan>
299.08

>  <LabuteASA>
173.42

>  <PEOE_VSA1>
10.63

>  <PEOE_VSA2>
0

>  <PEOE_VSA3>
20.84

>  <PEOE_VSA4>
10.2

>  <PEOE_VSA5>
0

>  <PEOE_VSA6>
48.53

>  <PEOE_VSA7>
21.54

>  <PEOE_VSA8>
24.22

>  <PEOE_VSA9>
25.52

>  <PEOE_VSA10>
0

>  <PEOE_VSA11>
0

>  <PEOE_VSA12>
11.92

>  <PEOE_VSA13>
0

>  <SMR_VSA1>
0

>  <SMR_VSA2>
0

>  <SMR_VSA3>
21.49

>  <SMR_VSA4>
20.19

>  <SMR_VSA5>
0

>  <SMR_VSA6>
26.18

>  <SMR_VSA7>
59.66

>  <SMR_VSA8>
0

>  <SMR_VSA9>
0

>  <SlogP_VSA1>
21.49

>  <SlogP_VSA2>
50.53

>  <SlogP_VSA3>
0

>  <SlogP_VSA4>
0

>  <SlogP_VSA5>
11.13

>  <SlogP_VSA6>
68.72

>  <SlogP_VSA7>
0

>  <SlogP_VSA8>
21.54

>  <SlogP_VSA9>
0

>  <SlogP_VSA10>
0

>  <SlogP_VSA11>
0

>  <EState_VSA1>
0

>  <EState_VSA2>
0

>  <EState_VSA3>
11.92

>  <EState_VSA4>
58.85

>  <EState_VSA5>
0

>  <EState_VSA6>
0

>  <EState_VSA7>
36.69

>  <EState_VSA8>
65.94

>  <EState_VSA9>
0

>  <EState_VSA10>
0

>  <VSA_EState1>
0

>  <VSA_EState2>
8.63

>  <VSA_EState3>
19.62

>  <VSA_EState4>
8.09

>  <VSA_EState5>
1.41

>  <VSA_EState6>
16.62

>  <VSA_EState7>
3.73

>  <VSA_EState8>
3.23

>  <VSA_EState9>
0

>  <apol>
60.21

>  <bpol>
26.63

>  <nRing>
5

>  <nHRing>
2

>  <naRing>
3

>  <naHRing>
0

>  <nARing 2>
2

>  <nAHRing 2>
2

>  <nFRing>
1

>  <nFHRing>
0

>  <nFaRing>
1

>  <nFaHRing>
0

>  <nFARing 2>
0

>  <nFAHRing 2>
0

>  <nRot>
4

>  <SLogP>
1.76

>  <SMR>
123.52

>  <TopoPSA(NO)>
97.56

>  <TopoPSA>
97.56

>  <JGI1>
0.09

>  <JGI2>
0.06

>  <JGI3>
0.04

>  <JGI4>
0.03

>  <JGI5>
0.01

>  <Diameter>
15

>  <Radius>
8

>  <TMWC10>
141.52

>  <TSRW10>
80.91

>  <MW>
398.2

>  <AMW>
7.66

>  <WPath>
2541

>  <WPol>
45

>  <Zagreb1>
160

>  <Zagreb2>
190

>  <mZagreb2>
6.67

>  <yes>


>  <nAR-cont>
1

>  <nHA-cont>
0.74523694

>  <MWHBN>
0.601354573

>  <MWHBN-cont>
0

>  <TPSA-cont>
0.318970619

>  <pka_cont>
0.97

>  <yes.1>


>  <BBB_SCORE>
2.868178177

>  <MMFF94 Energy>
64.458

$$$$
Compound 2672
Actelion Java MolfileCreator 2.0

  0  0  0  0  0  0              0 V3000
M  V30 BEGIN CTAB
M  V30 COUNTS 77 79 0 0 0
M  V30 BEGIN ATOM
M  V30 1 S -6.5472 4.9473 -1.3546 0
M  V30 2 C -4.9453 5.5685 -1.2867 0
M  V30 3 C -5.9099 3.3732 -1.5926 0
M  V30 4 N -3.9862 4.6789 -1.427 0
M  V30 5 C -4.718 7.0245 -1.0849 0
M  V30 6 C -4.5318 3.4232 -1.5838 0
M  V30 7 C -3.6945 2.284 -1.7887 0
M  V30 8 C -2.414 2.0906 -1.3964 0
M  V30 9 C -1.7036 0.8065 -1.8035 0
M  V30 10 C -1.6404 3.0803 -0.5634 0
M  V30 11 N -1.6557 -0.0621 -0.6426 0
M  V30 12 C -0.3062 0.9767 -2.4583 0
M  V30 13 C -1.7424 -1.4231 -0.7023 0
M  V30 14 C 0.8216 1.2248 -1.4935 0
M  V30 15 O -2.0972 -2.0318 -1.7089 0
M  V30 16 C -1.2115 -2.1708 0.5137 0
M  V30 17 O 1.4216 2.521 -1.5574 0
M  V30 18 C 2.2659 1.4198 -1.9404 0
M  V30 19 C -1.2952 -1.4849 1.8878 0
M  V30 20 C 3.359 1.1343 -0.9328 0
M  V30 21 C 2.6459 1.4696 -3.3892 0
M  V30 22 O -0.7732 -0.1505 1.7803 0
M  V30 23 C -0.5621 -2.2466 3.0423 0
M  V30 24 C 4.1675 -0.1377 -1.2142 0
M  V30 25 C 0.9513 -1.9029 3.0137 0
M  V30 26 C -0.8208 -3.7623 3.0329 0
M  V30 27 C -1.1181 -1.7357 4.3999 0
M  V30 28 C 3.3576 -1.4323 -1.3618 0
M  V30 29 O 1.3841 -0.9398 3.6618 0
M  V30 30 C 1.9115 -2.6788 2.1103 0
M  V30 31 C 3.2742 -2.3611 -0.1186 0
M  V30 32 C 2.5112 -1.7037 1.0648 0
M  V30 33 C 2.9619 -3.365 2.982 0
M  V30 34 C 2.6569 -3.6872 -0.5889 0
M  V30 35 O 3.4246 -0.8096 1.7109 0
M  V30 36 H -6.5585 2.5185 -1.7169 0
M  V30 37 H -3.6459 7.2445 -1.0623 0
M  V30 38 H -5.1502 7.3585 -0.1363 0
M  V30 39 H -5.1638 7.6046 -1.8991 0
M  V30 40 H -4.1702 1.4757 -2.3432 0
M  V30 41 H -2.3154 0.299 -2.5619 0
M  V30 42 H -1.0184 3.7128 -1.2032 0
M  V30 43 H -2.2871 3.7237 0.0391 0
M  V30 44 H -0.996 2.5703 0.1588 0
M  V30 45 H -1.3729 0.3461 0.2478 0
M  V30 46 H -0.0692 0.0427 -2.9844 0
M  V30 47 H -0.3546 1.7631 -3.2211 0
M  V30 48 H 0.6797 0.7736 -0.5221 0
M  V30 49 H -1.7514 -3.1239 0.5516 0
M  V30 50 H -0.1706 -2.3876 0.2664 0
M  V30 51 H -2.3585 -1.3785 2.1364 0
M  V30 52 H 4.051 1.9861 -0.9278 0
M  V30 53 H 2.9366 1.0882 0.0761 0
M  V30 54 H 2.7726 0.4578 -3.7861 0
M  V30 55 H 3.5877 2.0122 -3.521 0
M  V30 56 H 1.8908 1.9757 -3.9991 0
M  V30 57 H -0.6417 0.2234 2.6741 0
M  V30 58 H 4.7118 0.0201 -2.1546 0
M  V30 59 H 4.9407 -0.258 -0.4467 0
M  V30 60 H -0.5102 -4.2486 2.1049 0
M  V30 61 H -0.2742 -4.2562 3.8448 0
M  V30 62 H -1.887 -3.979 3.1656 0
M  V30 63 H -0.597 -2.211 5.2397 0
M  V30 64 H -2.1862 -1.9613 4.4989 0
M  V30 65 H -1.0009 -0.6541 4.5237 0
M  V30 66 H 2.3471 -1.2278 -1.7326 0
M  V30 67 H 3.8489 -2.0066 -2.1598 0
M  V30 68 H 1.3385 -3.4472 1.5945 0
M  V30 69 H 4.3037 -2.5713 0.2011 0
M  V30 70 H 1.7044 -1.0851 0.6575 0
M  V30 71 H 2.4831 -4.061 3.6798 0
M  V30 72 H 3.5286 -2.6468 3.5843 0
M  V30 73 H 3.6724 -3.9338 2.3753 0
M  V30 74 H 2.7197 -4.4588 0.1835 0
M  V30 75 H 1.6075 -3.5599 -0.8735 0
M  V30 76 H 3.1926 -4.0805 -1.4601 0
M  V30 77 H 2.9603 -0.4181 2.4803 0
M  V30 END ATOM
M  V30 BEGIN BOND
M  V30 1 1 1 2
M  V30 2 1 1 3
M  V30 3 2 2 4
M  V30 4 1 2 5
M  V30 5 2 3 6
M  V30 6 1 6 7
M  V30 7 2 7 8
M  V30 8 1 8 9
M  V30 9 1 8 10
M  V30 10 1 9 11
M  V30 11 1 9 12
M  V30 12 1 11 13
M  V30 13 1 12 14
M  V30 14 2 13 15
M  V30 15 1 13 16
M  V30 16 1 14 17
M  V30 17 1 14 18
M  V30 18 1 16 19
M  V30 19 1 18 20
M  V30 20 1 18 21
M  V30 21 1 19 22
M  V30 22 1 19 23
M  V30 23 1 20 24
M  V30 24 1 23 25
M  V30 25 1 23 26
M  V30 26 1 23 27
M  V30 27 1 24 28
M  V30 28 2 25 29
M  V30 29 1 25 30
M  V30 30 1 28 31
M  V30 31 1 30 32
M  V30 32 1 30 33
M  V30 33 1 31 34
M  V30 34 1 32 35
M  V30 35 1 4 6
M  V30 36 1 17 18
M  V30 37 1 31 32
M  V30 38 1 3 36
M  V30 39 1 5 37
M  V30 40 1 5 38
M  V30 41 1 5 39
M  V30 42 1 7 40
M  V30 43 1 9 41
M  V30 44 1 10 42
M  V30 45 1 10 43
M  V30 46 1 10 44
M  V30 47 1 11 45
M  V30 48 1 12 46
M  V30 49 1 12 47
M  V30 50 1 14 48
M  V30 51 1 16 49
M  V30 52 1 16 50
M  V30 53 1 19 51
M  V30 54 1 20 52
M  V30 55 1 20 53
M  V30 56 1 21 54
M  V30 57 1 21 55
M  V30 58 1 21 56
M  V30 59 1 22 57
M  V30 60 1 24 58
M  V30 61 1 24 59
M  V30 62 1 26 60
M  V30 63 1 26 61
M  V30 64 1 26 62
M  V30 65 1 27 63
M  V30 66 1 27 64
M  V30 67 1 27 65
M  V30 68 1 28 66
M  V30 69 1 28 67
M  V30 70 1 30 68
M  V30 71 1 31 69
M  V30 72 1 32 70
M  V30 73 1 33 71
M  V30 74 1 33 72
M  V30 75 1 33 73
M  V30 76 1 34 74
M  V30 77 1 34 75
M  V30 78 1 34 76
M  V30 79 1 35 77
M  V30 END BOND
M  V30 END CTAB
M  END
>  <Column 1>
3345

>  <level_0>
5562

>  <index>
5563

>  <Unnamed: 0>
5563

>  <NO.>
5575

>  <Name>
schembl3670439

>  <IUPAC_name>
7-11-dihydroxy-8-8-10-12-16-pentamethyl-3-[(e)-1-(2-methyl-1-3-thiazol-4-yl)prop-1-en-2-yl]-17-oxa-4-azabicyclo[14.1.0]heptadecane-5-9-dione

>  <SMILES>
C/C(=C\c1csc(C)n1)C1CC2OC2(C)CCCC(C)C(O)C(C)C(=O)C(C)(C)C(O)CC(=O)N1

>  <CID>
18716117

>  <logBB>


>  <BBB+/BBB->
BBB-

>  <Inchi>
InChI=1S/C27H42N2O5S/c1-15-9-8-10-27(7)22(34-27)12-20(16(2)11-19-14-35-18(4)28-19)29-23(31)13-21(30)26(5-6)25(33)17(3)24(15)32/h11-14-15-17-20-22-24-30-32H-8-10-12-13H2-1-7H3-(H-29-31)/b16-11+

>  <threshold>


>  <reference>
R23|

>  <group>
C

>  <Class>
-1

>  <ABC>
27.17

>  <ABCGG>
22.54

>  <nAcid>
0

>  <nBase>
0

>  <nAromAtom>
5

>  <nAromBond>
5

>  <nAtom>
77

>  <nHeavyAtom>
35

>  <nSpiro>
0

>  <nBridgehead>
0

>  <nHetero>
8

>  <nN>
2

>  <nO>
5

>  <nF>
0

>  <BalabanJ>
1.76

>  <BertzCT>
957.12

>  <nBonds>
79

>  <nBondsO>
37

>  <nBondsS>
71

>  <nBondsD>
3

>  <nBondsT>
0

>  <nBondsA>
5

>  <nBondsM>
8

>  <nBondsKS>
74

>  <nBondsKD>
5

>  <RNCG>
0.13

>  <RPCG>
0.08

>  <FCSP3>
0.74

>  <SZ>
45.67

>  <Sm>
42.19

>  <Sv>
44.66

>  <Sse>
76.7

>  <Sp>
49.22

>  <Si>
87.27

>  <MZ>
0.59

>  <Mm>
0.55

>  <Mv>
0.58

>  <Mse>
1

>  <Mp>
0.64

>  <Mi>
1.13

>  <NsCH3>
7

>  <NdCH2>
0

>  <NssCH2>
5

>  <NtCH>
0

>  <NdsCH>
1

>  <NaaCH>
1

>  <NsssCH>
6

>  <NddC>
0

>  <NtsC>
0

>  <NdssC>
3

>  <NaasC>
2

>  <NaaaC>
0

>  <NssssC>
2

>  <NsNH3>
0

>  <NsNH2>
0

>  <NssNH2>
0

>  <NdNH>
0

>  <NssNH>
1

>  <NaaNH>
0

>  <NtN>
0

>  <NsssNH>
0

>  <NdsN>
0

>  <NaaN>
1

>  <NsssN>
0

>  <NddsN>
0

>  <NaasN>
0

>  <NssssN>
0

>  <NsOH>
2

>  <NdO>
2

>  <NssO>
1

>  <NaaO>
0

>  <NsF>
0

>  <NsSiH3>
0

>  <NssSiH2>
0

>  <NsssSiH>
0

>  <NssssSi>
0

>  <NsPH2>
0

>  <NssPH>
0

>  <NsssP>
0

>  <NdsssP>
0

>  <NsssssP>
0

>  <NsSH>
0

>  <NdS>
0

>  <NssS>
0

>  <NaaS>
1

>  <NdssS>
0

>  <NddssS>
0

>  <NsCl>
0

>  <NsBr>
0

>  <NsI>
0

>  <fragCpx>
179.08

>  <fMF>
0.31

>  <nHBAcc>
7

>  <nHBDon>
3

>  <Kier1>
29.55

>  <Kier2>
11.81

>  <Lipinski>
0

>  <GhoseFilter>
0

>  <FilterItLogS>
-4.94

>  <VMcGowan>
402.87

>  <LabuteASA>
212.92

>  <PEOE_VSA1>
20.27

>  <PEOE_VSA2>
9.59

>  <PEOE_VSA3>
4.98

>  <PEOE_VSA4>
0

>  <PEOE_VSA5>
11.34

>  <PEOE_VSA6>
34.12

>  <PEOE_VSA7>
51.18

>  <PEOE_VSA8>
17.72

>  <PEOE_VSA9>
52.49

>  <PEOE_VSA10>
5.78

>  <PEOE_VSA11>
0

>  <PEOE_VSA12>
5.91

>  <PEOE_VSA13>
0

>  <SMR_VSA1>
24.54

>  <SMR_VSA2>
0

>  <SMR_VSA3>
10.3

>  <SMR_VSA4>
17.25

>  <SMR_VSA5>
110.53

>  <SMR_VSA6>
0

>  <SMR_VSA7>
21.65

>  <SMR_VSA8>
0

>  <SMR_VSA9>
0

>  <SlogP_VSA1>
5.32

>  <SlogP_VSA2>
56.84

>  <SlogP_VSA3>
14.33

>  <SlogP_VSA4>
24.17

>  <SlogP_VSA5>
84.35

>  <SlogP_VSA6>
10.95

>  <SlogP_VSA7>
0

>  <SlogP_VSA8>
6.08

>  <SlogP_VSA9>
0

>  <SlogP_VSA10>
0

>  <SlogP_VSA11>
0

>  <EState_VSA1>
23.54

>  <EState_VSA2>
41.78

>  <EState_VSA3>
6.42

>  <EState_VSA4>
35.54

>  <EState_VSA5>
0

>  <EState_VSA6>
32.11

>  <EState_VSA7>
32.23

>  <EState_VSA8>
17.22

>  <EState_VSA9>
4.74

>  <EState_VSA10>
19.8

>  <VSA_EState1>
6.1

>  <VSA_EState2>
30.78

>  <VSA_EState3>
27.79

>  <VSA_EState4>
0.41

>  <VSA_EState5>
-1.24

>  <VSA_EState6>
-0.27

>  <VSA_EState7>
2.99

>  <VSA_EState8>
13.02

>  <VSA_EState9>
0

>  <apol>
82.21

>  <bpol>
49.78

>  <nRing>
3

>  <nHRing>
3

>  <naRing>
1

>  <naHRing>
1

>  <nARing 2>
2

>  <nAHRing 2>
2

>  <nFRing>
1

>  <nFHRing>
1

>  <nFaRing>
0

>  <nFaHRing>
0

>  <nFARing 2>
1

>  <nFAHRing 2>
1

>  <nRot>
2

>  <SLogP>
4.05

>  <SMR>
137.93

>  <TopoPSA(NO)>
112.05

>  <TopoPSA>
140.29

>  <JGI1>
0.31

>  <JGI2>
0.13

>  <JGI3>
0.07

>  <JGI4>
0.04

>  <JGI5>
0.03

>  <Diameter>
15

>  <Radius>
8

>  <TMWC10>
150.99

>  <TSRW10>
92.51

>  <MW>
506.28

>  <AMW>
6.58

>  <WPath>
3598

>  <WPol>
57

>  <Zagreb1>
186

>  <Zagreb2>
220

>  <mZagreb2>
7.44

>  <yes>


>  <nAR-cont>
1

>  <nHA-cont>
0.523063577

>  <MWHBN>
0.444431276

>  <MWHBN-cont>
0.30602861

>  <TPSA-cont>
0

>  <pka_cont>
0.97

>  <yes.1>


>  <BBB_SCORE>
2.467106493

>  <MMFF94 Energy>
39.643

$$$$
Compound 2673
Actelion Java MolfileCreator 2.0

  0  0  0  0  0  0              0 V3000
M  V30 BEGIN CTAB
M  V30 COUNTS 38 39 0 0 0
M  V30 BEGIN ATOM
M  V30 1 O 2.0423 -4.3241 -2.6714 0
M  V30 2 C 1.8043 -3.256 -1.8579 0
M  V30 3 C 1.6353 -2.0125 -2.4556 0
M  V30 4 C 1.7298 -3.401 -0.4758 0
M  V30 5 C 1.3897 -0.8916 -1.6611 0
M  V30 6 C 1.4833 -2.279 0.3193 0
M  V30 7 C 1.3163 -1.0172 -0.2672 0
M  V30 8 C 1.0419 0.1666 0.5789 0
M  V30 9 C -0.3242 0.4499 1.0289 0
M  V30 10 C 2.1026 0.9511 0.8658 0
M  V30 11 C -1.3591 0.8607 0.0526 0
M  V30 12 C -0.7302 0.3312 2.311 0
M  V30 13 C 2.1093 2.2245 1.6514 0
M  V30 14 C -2.2398 -0.0856 -0.4881 0
M  V30 15 C -1.4513 2.1984 -0.3552 0
M  V30 16 C 0.0818 -0.1096 3.4878 0
M  V30 17 C -3.205 0.3037 -1.418 0
M  V30 18 C -2.418 2.5883 -1.2855 0
M  V30 19 C -3.2873 1.6354 -1.8078 0
M  V30 20 O -4.2447 1.9721 -2.7183 0
M  V30 21 H 2.1268 -5.1192 -2.1205 0
M  V30 22 H 1.6895 -1.9152 -3.5358 0
M  V30 23 H 1.8576 -4.3687 -0.0023 0
M  V30 24 H 1.2465 0.0779 -2.132 0
M  V30 25 H 1.4205 -2.3904 1.399 0
M  V30 26 H 3.0833 0.6627 0.4875 0
M  V30 27 H -1.7674 0.5623 2.5543 0
M  V30 28 H 2.5604 3.0212 1.0515 0
M  V30 29 H 2.711 2.0973 2.5564 0
M  V30 30 H 1.1132 2.5609 1.9485 0
M  V30 31 H -2.1703 -1.1299 -0.1934 0
M  V30 32 H -0.7685 2.9402 0.0512 0
M  V30 33 H 1.0926 -0.4308 3.2264 0
M  V30 34 H 0.1592 0.7081 4.2106 0
M  V30 35 H -0.4148 -0.9524 3.9789 0
M  V30 36 H -3.8858 -0.4303 -1.8388 0
M  V30 37 H -2.4742 3.6289 -1.5872 0
M  V30 38 H -4.176 2.9231 -2.9016 0
M  V30 END ATOM
M  V30 BEGIN BOND
M  V30 1 1 1 2
M  V30 2 2 2 3
M  V30 3 1 2 4
M  V30 4 1 3 5
M  V30 5 2 4 6
M  V30 6 2 5 7
M  V30 7 1 7 8
M  V30 8 1 8 9
M  V30 9 2 8 10
M  V30 10 1 9 11
M  V30 11 2 9 12
M  V30 12 1 10 13
M  V30 13 2 11 14
M  V30 14 1 11 15
M  V30 15 1 12 16
M  V30 16 1 14 17
M  V30 17 2 15 18
M  V30 18 2 17 19
M  V30 19 1 19 20
M  V30 20 1 6 7
M  V30 21 1 18 19
M  V30 22 1 1 21
M  V30 23 1 3 22
M  V30 24 1 4 23
M  V30 25 1 5 24
M  V30 26 1 6 25
M  V30 27 1 10 26
M  V30 28 1 12 27
M  V30 29 1 13 28
M  V30 30 1 13 29
M  V30 31 1 13 30
M  V30 32 1 14 31
M  V30 33 1 15 32
M  V30 34 1 16 33
M  V30 35 1 16 34
M  V30 36 1 16 35
M  V30 37 1 17 36
M  V30 38 1 18 37
M  V30 39 1 20 38
M  V30 END BOND
M  V30 END CTAB
M  END
>  <Column 1>
3346

>  <level_0>
5563

>  <index>
5564

>  <Unnamed: 0>
5564

>  <NO.>
5576

>  <Name>
dienestrol

>  <IUPAC_name>
4-[(2z-4z)-4-(4-hydroxyphenyl)hexa-2-4-dien-3-yl]phenol

>  <SMILES>
C/C=C(C(=C/C)\c1ccc(O)cc1)/c1ccc(O)cc1

>  <CID>
5356512

>  <logBB>


>  <BBB+/BBB->
BBB-

>  <Inchi>
InChI=1S/C18H18O2/c1-3-17(13-5-9-15(19)10-6-13)18(4-2)14-7-11-16(20)12-8-14/h3-12-19-20H-1-2H3/b17-3--18-4-

>  <threshold>


>  <reference>
R23|

>  <group>
C

>  <Class>
-1

>  <ABC>
14.95

>  <ABCGG>
12.99

>  <nAcid>
0

>  <nBase>
0

>  <nAromAtom>
12

>  <nAromBond>
12

>  <nAtom>
38

>  <nHeavyAtom>
20

>  <nSpiro>
0

>  <nBridgehead>
0

>  <nHetero>
2

>  <nN>
0

>  <nO>
2

>  <nF>
0

>  <BalabanJ>
1.96

>  <BertzCT>
572.62

>  <nBonds>
39

>  <nBondsO>
21

>  <nBondsS>
25

>  <nBondsD>
2

>  <nBondsT>
0

>  <nBondsA>
12

>  <nBondsM>
14

>  <nBondsKS>
31

>  <nBondsKD>
8

>  <RNCG>
0.31

>  <RPCG>
0.18

>  <FCSP3>
0.11

>  <SZ>
23.67

>  <Sm>
22.17

>  <Sv>
24.31

>  <Sse>
37.65

>  <Sp>
26.15

>  <Si>
42.16

>  <MZ>
0.62

>  <Mm>
0.58

>  <Mv>
0.64

>  <Mse>
0.99

>  <Mp>
0.69

>  <Mi>
1.11

>  <NsCH3>
2

>  <NdCH2>
0

>  <NssCH2>
0

>  <NtCH>
0

>  <NdsCH>
2

>  <NaaCH>
8

>  <NsssCH>
0

>  <NddC>
0

>  <NtsC>
0

>  <NdssC>
2

>  <NaasC>
4

>  <NaaaC>
0

>  <NssssC>
0

>  <NsNH3>
0

>  <NsNH2>
0

>  <NssNH2>
0

>  <NdNH>
0

>  <NssNH>
0

>  <NaaNH>
0

>  <NtN>
0

>  <NsssNH>
0

>  <NdsN>
0

>  <NaaN>
0

>  <NsssN>
0

>  <NddsN>
0

>  <NaasN>
0

>  <NssssN>
0

>  <NsOH>
2

>  <NdO>
0

>  <NssO>
0

>  <NaaO>
0

>  <NsF>
0

>  <NsSiH3>
0

>  <NssSiH2>
0

>  <NsssSiH>
0

>  <NssssSi>
0

>  <NsPH2>
0

>  <NssPH>
0

>  <NsssP>
0

>  <NdsssP>
0

>  <NsssssP>
0

>  <NsSH>
0

>  <NdS>
0

>  <NssS>
0

>  <NaaS>
0

>  <NdssS>
0

>  <NddssS>
0

>  <NsCl>
0

>  <NsBr>
0

>  <NsI>
0

>  <fragCpx>
61.02

>  <fMF>
0.37

>  <nHBAcc>
2

>  <nHBDon>
2

>  <Kier1>
16.37

>  <Kier2>
7.85

>  <Lipinski>
1

>  <GhoseFilter>
1

>  <FilterItLogS>
-3.51

>  <VMcGowan>
220.1

>  <LabuteASA>
118.89

>  <PEOE_VSA1>
10.21

>  <PEOE_VSA2>
0

>  <PEOE_VSA3>
0

>  <PEOE_VSA4>
0

>  <PEOE_VSA5>
0

>  <PEOE_VSA6>
36.42

>  <PEOE_VSA7>
60.39

>  <PEOE_VSA8>
0

>  <PEOE_VSA9>
0

>  <PEOE_VSA10>
11.5

>  <PEOE_VSA11>
0

>  <PEOE_VSA12>
0

>  <PEOE_VSA13>
0

>  <SMR_VSA1>
10.21

>  <SMR_VSA2>
0

>  <SMR_VSA3>
0

>  <SMR_VSA4>
0

>  <SMR_VSA5>
13.85

>  <SMR_VSA6>
0

>  <SMR_VSA7>
71.81

>  <SMR_VSA8>
0

>  <SMR_VSA9>
11.5

>  <SlogP_VSA1>
0

>  <SlogP_VSA2>
10.21

>  <SlogP_VSA3>
0

>  <SlogP_VSA4>
0

>  <SlogP_VSA5>
24.97

>  <SlogP_VSA6>
60.68

>  <SlogP_VSA7>
0

>  <SlogP_VSA8>
11.15

>  <SlogP_VSA9>
0

>  <SlogP_VSA10>
0

>  <SlogP_VSA11>
11.5

>  <EState_VSA1>
0

>  <EState_VSA2>
11.5

>  <EState_VSA3>
0

>  <EState_VSA4>
22.27

>  <EState_VSA5>
0

>  <EState_VSA6>
24.27

>  <EState_VSA7>
38.11

>  <EState_VSA8>
12.15

>  <EState_VSA9>
0

>  <EState_VSA10>
10.21

>  <VSA_EState1>
0

>  <VSA_EState2>
0

>  <VSA_EState3>
18.79

>  <VSA_EState4>
4.29

>  <VSA_EState5>
0.52

>  <VSA_EState6>
14.32

>  <VSA_EState7>
4.1

>  <VSA_EState8>
3.98

>  <VSA_EState9>
0

>  <apol>
43.67

>  <bpol>
18.06

>  <nRing>
2

>  <nHRing>
0

>  <naRing>
2

>  <naHRing>
0

>  <nARing 2>
0

>  <nAHRing 2>
0

>  <nFRing>
0

>  <nFHRing>
0

>  <nFaRing>
0

>  <nFaHRing>
0

>  <nFARing 2>
0

>  <nFAHRing 2>
0

>  <nRot>
3

>  <SLogP>
4.6

>  <SMR>
83.52

>  <TopoPSA(NO)>
40.46

>  <TopoPSA>
40.46

>  <JGI1>
0.19

>  <JGI2>
0.1

>  <JGI3>
0.05

>  <JGI4>
0.04

>  <JGI5>
0.02

>  <Diameter>
11

>  <Radius>
6

>  <TMWC10>
113.02

>  <TSRW10>
53.22

>  <MW>
266.13

>  <AMW>
7

>  <WPath>
814

>  <WPol>
30

>  <Zagreb1>
98

>  <Zagreb2>
113

>  <mZagreb2>
4.67

>  <yes>


>  <nAR-cont>
0.336376

>  <nHA-cont>
0.999629945

>  <MWHBN>
0.245195827

>  <MWHBN-cont>
0.967484449

>  <TPSA-cont>
0.717564076

>  <pka_cont>
0.97

>  <yes.1>


>  <BBB_SCORE>
4.70736077

>  <MMFF94 Energy>
33.727

$$$$
Compound 2674
Actelion Java MolfileCreator 2.0

  0  0  0  0  0  0              0 V3000
M  V30 BEGIN CTAB
M  V30 COUNTS 65 68 0 0 0
M  V30 BEGIN ATOM
M  V30 1 O 1.4407 -2.2418 -0.32 0
M  V30 2 C 1.3098 -1.1909 0.3237 0
M  V30 3 C -0.0502 -0.759 0.9352 0
M  V30 4 C 2.5415 -0.3197 0.5623 0
M  V30 5 C -1.0255 -1.884 0.621 0
M  V30 6 C -0.6873 0.4797 0.1774 0
M  V30 7 C 0.0581 -0.5731 2.4928 0
M  V30 8 C 2.4476 1.0465 -0.0846 0
M  V30 9 C 3.0662 -0.2668 1.9895 0
M  V30 10 C -2.1416 -1.4697 0.0158 0
M  V30 11 O -0.8371 1.6154 1.0755 0
M  V30 12 C 0.0924 0.9861 -1.0761 0
M  V30 13 C -2.1541 0.0147 -0.184 0
M  V30 14 C 1.0687 -1.5497 3.1347 0
M  V30 15 C -1.2815 -0.6581 3.2461 0
M  V30 16 C 1.4517 1.6067 -0.8 0
M  V30 17 C 3.7154 -1.473 2.681 0
M  V30 18 C 2.4131 -0.8916 3.2094 0
M  V30 19 C -3.2903 -2.3212 -0.3953 0
M  V30 20 O 0.2737 -0.005 -2.075 0
M  V30 21 O -2.5597 0.2768 -1.5314 0
M  V30 22 C 1.6585 2.9424 -1.4699 0
M  V30 23 C 3.7523 -2.8309 2.0261 0
M  V30 24 C 4.9649 -1.1957 3.4899 0
M  V30 25 C -3.1615 1.4652 -1.7642 0
M  V30 26 O 1.5747 2.7353 -2.8723 0
M  V30 27 O -3.3791 2.3324 -0.9314 0
M  V30 28 C -3.5503 1.606 -3.2055 0
M  V30 29 C -3.0644 0.7627 -4.1399 0
M  V30 30 C -4.4883 2.7502 -3.4591 0
M  V30 31 C -3.3268 0.7739 -5.6119 0
M  V30 32 H 3.3431 -0.8136 -0.0084 0
M  V30 33 H -0.8182 -2.9203 0.8633 0
M  V30 34 H 0.4354 0.4392 2.688 0
M  V30 35 H 3.3839 1.604 -0.0148 0
M  V30 36 H 3.5691 0.6837 2.1641 0
M  V30 37 H 0.0408 2.0002 1.2355 0
M  V30 38 H -0.522 1.7762 -1.5239 0
M  V30 39 H -2.8856 0.4393 0.5173 0
M  V30 40 H 1.0817 -2.5134 2.6195 0
M  V30 41 H 0.7726 -1.7806 4.1661 0
M  V30 42 H -2.029 0.0201 2.8259 0
M  V30 43 H -1.1433 -0.3706 4.2949 0
M  V30 44 H -1.6901 -1.6738 3.2404 0
M  V30 45 H 2.4723 -0.3035 4.1249 0
M  V30 46 H -3.1406 -3.3661 -0.1044 0
M  V30 47 H -3.4239 -2.2925 -1.4811 0
M  V30 48 H -4.2125 -1.9707 0.0786 0
M  V30 49 H 0.7902 0.4169 -2.7883 0
M  V30 50 H 0.8859 3.6545 -1.161 0
M  V30 51 H 2.6373 3.3769 -1.2426 0
M  V30 52 H 2.8284 -3.108 1.5217 0
M  V30 53 H 3.9489 -3.604 2.777 0
M  V30 54 H 4.5582 -2.8671 1.2854 0
M  V30 55 H 5.0785 -1.9424 4.2826 0
M  V30 56 H 4.9385 -0.208 3.963 0
M  V30 57 H 5.8498 -1.2352 2.8463 0
M  V30 58 H 1.7259 3.6001 -3.292 0
M  V30 59 H -2.382 -0.0329 -3.8369 0
M  V30 60 H -4.8879 2.7655 -4.4752 0
M  V30 61 H -3.9786 3.7042 -3.2876 0
M  V30 62 H -5.3507 2.6929 -2.7855 0
M  V30 63 H -2.3748 0.8063 -6.1516 0
M  V30 64 H -3.9217 1.625 -5.9477 0
M  V30 65 H -3.8494 -0.143 -5.9008 0
M  V30 END ATOM
M  V30 BEGIN BOND
M  V30 1 2 1 2
M  V30 2 1 2 3
M  V30 3 1 2 4
M  V30 4 1 3 5
M  V30 5 1 3 6
M  V30 6 1 3 7
M  V30 7 1 4 8
M  V30 8 1 4 9
M  V30 9 2 5 10
M  V30 10 1 6 11
M  V30 11 1 6 12
M  V30 12 1 6 13
M  V30 13 1 7 14
M  V30 14 1 7 15
M  V30 15 2 8 16
M  V30 16 1 9 17
M  V30 17 1 9 18
M  V30 18 1 10 19
M  V30 19 1 12 20
M  V30 20 1 13 21
M  V30 21 1 16 22
M  V30 22 1 17 23
M  V30 23 1 17 24
M  V30 24 1 21 25
M  V30 25 1 22 26
M  V30 26 2 25 27
M  V30 27 1 25 28
M  V30 28 2 28 29
M  V30 29 1 28 30
M  V30 30 1 29 31
M  V30 31 1 10 13
M  V30 32 1 12 16
M  V30 33 1 14 18
M  V30 34 1 17 18
M  V30 35 1 4 32
M  V30 36 1 5 33
M  V30 37 1 7 34
M  V30 38 1 8 35
M  V30 39 1 9 36
M  V30 40 1 11 37
M  V30 41 1 12 38
M  V30 42 1 13 39
M  V30 43 1 14 40
M  V30 44 1 14 41
M  V30 45 1 15 42
M  V30 46 1 15 43
M  V30 47 1 15 44
M  V30 48 1 18 45
M  V30 49 1 19 46
M  V30 50 1 19 47
M  V30 51 1 19 48
M  V30 52 1 20 49
M  V30 53 1 22 50
M  V30 54 1 22 51
M  V30 55 1 23 52
M  V30 56 1 23 53
M  V30 57 1 23 54
M  V30 58 1 24 55
M  V30 59 1 24 56
M  V30 60 1 24 57
M  V30 61 1 26 58
M  V30 62 1 29 59
M  V30 63 1 30 60
M  V30 64 1 30 61
M  V30 65 1 30 62
M  V30 66 1 31 63
M  V30 67 1 31 64
M  V30 68 1 31 65
M  V30 END BOND
M  V30 END CTAB
M  END
>  <Column 1>
3347

>  <level_0>
5564

>  <index>
5565

>  <Unnamed: 0>
5565

>  <NO.>
5577

>  <Name>
ingenol mebutate

>  <IUPAC_name>
[5-6-dihydroxy-7-(hydroxymethyl)-3-11-11-14-tetramethyl-15-oxo-4-tetracyclo[7.5.1.01-5.010-12]pentadeca-2-7-dienyl] (e)-2-methylbut-2-enoate

>  <SMILES>
C/C=C(\C)C(=O)OC1C(C)=CC23C(=O)C(C=C(CO)C(O)C12O)C1C(CC3C)C1(C)C

>  <CID>
146171122

>  <logBB>


>  <BBB+/BBB->
BBB-

>  <Inchi>
InChI=1S/C25H34O6/c1-7-12(2)22(29)31-21-13(3)10-24-14(4)8-17-18(23(17-5)6)16(20(24)28)9-15(11-26)19(27)25(21-24)30/h7-9-10-14-16-19-21-26-27-30H-8-11H2-1-6H3/b12-7+

>  <threshold>


>  <reference>
R23|

>  <group>
C

>  <Class>
-1

>  <ABC>
24.47

>  <ABCGG>
21.79

>  <nAcid>
0

>  <nBase>
0

>  <nAromAtom>
0

>  <nAromBond>
0

>  <nAtom>
65

>  <nHeavyAtom>
31

>  <nSpiro>
1

>  <nBridgehead>
2

>  <nHetero>
6

>  <nN>
0

>  <nO>
6

>  <nF>
0

>  <BalabanJ>
1.83

>  <BertzCT>
926.3

>  <nBonds>
68

>  <nBondsO>
34

>  <nBondsS>
63

>  <nBondsD>
5

>  <nBondsT>
0

>  <nBondsA>
0

>  <nBondsM>
5

>  <nBondsKS>
63

>  <nBondsKD>
5

>  <RNCG>
0.16

>  <RPCG>
0.12

>  <FCSP3>
0.68

>  <SZ>
38.67

>  <Sm>
35.85

>  <Sv>
38.5

>  <Sse>
65.08

>  <Sp>
41.46

>  <Si>
73.32

>  <MZ>
0.59

>  <Mm>
0.55

>  <Mv>
0.59

>  <Mse>
1

>  <Mp>
0.64

>  <Mi>
1.13

>  <NsCH3>
6

>  <NdCH2>
0

>  <NssCH2>
2

>  <NtCH>
0

>  <NdsCH>
3

>  <NaaCH>
0

>  <NsssCH>
6

>  <NddC>
0

>  <NtsC>
0

>  <NdssC>
5

>  <NaasC>
0

>  <NaaaC>
0

>  <NssssC>
3

>  <NsNH3>
0

>  <NsNH2>
0

>  <NssNH2>
0

>  <NdNH>
0

>  <NssNH>
0

>  <NaaNH>
0

>  <NtN>
0

>  <NsssNH>
0

>  <NdsN>
0

>  <NaaN>
0

>  <NsssN>
0

>  <NddsN>
0

>  <NaasN>
0

>  <NssssN>
0

>  <NsOH>
3

>  <NdO>
2

>  <NssO>
1

>  <NaaO>
0

>  <NsF>
0

>  <NsSiH3>
0

>  <NssSiH2>
0

>  <NsssSiH>
0

>  <NssssSi>
0

>  <NsPH2>
0

>  <NssPH>
0

>  <NsssP>
0

>  <NdsssP>
0

>  <NsssssP>
0

>  <NsSH>
0

>  <NdS>
0

>  <NssS>
0

>  <NaaS>
0

>  <NdssS>
0

>  <NddssS>
0

>  <NsCl>
0

>  <NsBr>
0

>  <NsI>
0

>  <fragCpx>
226.06

>  <fMF>
0.23

>  <nHBAcc>
6

>  <nHBDon>
3

>  <Kier1>
24.13

>  <Kier2>
7.77

>  <Lipinski>
1

>  <GhoseFilter>
1

>  <FilterItLogS>
-2.69

>  <VMcGowan>
333.39

>  <LabuteASA>
183.23

>  <PEOE_VSA1>
20.06

>  <PEOE_VSA2>
4.79

>  <PEOE_VSA3>
4.79

>  <PEOE_VSA4>
0

>  <PEOE_VSA5>
0

>  <PEOE_VSA6>
39

>  <PEOE_VSA7>
61.51

>  <PEOE_VSA8>
11.49

>  <PEOE_VSA9>
12.02

>  <PEOE_VSA10>
6.1

>  <PEOE_VSA11>
17.49

>  <PEOE_VSA12>
0

>  <PEOE_VSA13>
0

>  <SMR_VSA1>
29.65

>  <SMR_VSA2>
0

>  <SMR_VSA3>
0

>  <SMR_VSA4>
34.5

>  <SMR_VSA5>
65.77

>  <SMR_VSA6>
6.61

>  <SMR_VSA7>
34.95

>  <SMR_VSA8>
0

>  <SMR_VSA9>
0

>  <SlogP_VSA1>
0

>  <SlogP_VSA2>
51.49

>  <SlogP_VSA3>
14.33

>  <SlogP_VSA4>
34.5

>  <SlogP_VSA5>
47.96

>  <SlogP_VSA6>
34.95

>  <SlogP_VSA7>
0

>  <SlogP_VSA8>
0

>  <SlogP_VSA9>
0

>  <SlogP_VSA10>
0

>  <SlogP_VSA11>
0

>  <EState_VSA1>
41.72

>  <EState_VSA2>
28.61

>  <EState_VSA3>
17.06

>  <EState_VSA4>
6.42

>  <EState_VSA5>
0

>  <EState_VSA6>
39

>  <EState_VSA7>
6.92

>  <EState_VSA8>
13.85

>  <EState_VSA9>
4.74

>  <EState_VSA10>
24.91

>  <VSA_EState1>
5.72

>  <VSA_EState2>
26.79

>  <VSA_EState3>
33.69

>  <VSA_EState4>
-2.36

>  <VSA_EState5>
-1.13

>  <VSA_EState6>
0

>  <VSA_EState7>
3.04

>  <VSA_EState8>
10.82

>  <VSA_EState9>
0

>  <apol>
69.23

>  <bpol>
37.58

>  <nRing>
4

>  <nHRing>
0

>  <naRing>
0

>  <naHRing>
0

>  <nARing 2>
4

>  <nAHRing 2>
0

>  <nFRing>
1

>  <nFHRing>
0

>  <nFaRing>
0

>  <nFaHRing>
0

>  <nFARing 2>
1

>  <nFAHRing 2>
0

>  <nRot>
3

>  <SLogP>
2.33

>  <SMR>
114.67

>  <TopoPSA(NO)>
104.06

>  <TopoPSA>
104.06

>  <JGI1>
0.29

>  <JGI2>
0.16

>  <JGI3>
0.08

>  <JGI4>
0.06

>  <JGI5>
0.03

>  <Diameter>
12

>  <Radius>
6

>  <TMWC10>
147.5

>  <TSRW10>
90.23

>  <MW>
430.24

>  <AMW>
6.62

>  <WPath>
2174

>  <WPol>
74

>  <Zagreb1>
182

>  <Zagreb2>
238

>  <mZagreb2>
6.6

>  <yes>


>  <nAR-cont>
0.199399

>  <nHA-cont>
0.702745138

>  <MWHBN>
0.433897469

>  <MWHBN-cont>
0.345016356

>  <TPSA-cont>
0.273596583

>  <pka_cont>
0.97

>  <yes.1>


>  <BBB_SCORE>
2.451861836

>  <MMFF94 Energy>
157.18

$$$$
Compound 2675
Actelion Java MolfileCreator 2.0

  0  0  0  0  0  0              0 V3000
M  V30 BEGIN CTAB
M  V30 COUNTS 32 32 0 0 0
M  V30 BEGIN ATOM
M  V30 1 O 1.4006 1.2449 -0.9336 0
M  V30 2 C 0.2852 0.7248 -0.9716 0
M  V30 3 N -0.2585 -0.018 0.073 0
M  V30 4 C -0.5523 0.8822 -2.1992 0
M  V30 5 C 0.5072 -0.1516 1.2641 0
M  V30 6 C -1.556 -0.7079 0.0809 0
M  V30 7 C -0.0122 1.3594 -3.3325 0
M  V30 8 C 1.3729 -1.2445 1.451 0
M  V30 9 C 0.3726 0.8244 2.2588 0
M  V30 10 C -2.6987 0.2024 0.5088 0
M  V30 11 C -0.7746 1.5697 -4.5983 0
M  V30 12 C 2.0793 -1.3432 2.6595 0
M  V30 13 C 1.5691 -2.2879 0.3885 0
M  V30 14 C 1.0842 0.7121 3.452 0
M  V30 15 C 1.9335 -0.3729 3.6534 0
M  V30 16 H -1.6025 0.637 -2.1621 0
M  V30 17 H -1.5081 -1.57 0.7576 0
M  V30 18 H -1.7539 -1.1132 -0.9164 0
M  V30 19 H 1.045 1.6209 -3.3588 0
M  V30 20 H -0.2779 1.6799 2.1015 0
M  V30 21 H -2.7674 1.0916 -0.1246 0
M  V30 22 H -2.5671 0.541 1.5412 0
M  V30 23 H -3.6507 -0.3341 0.45 0
M  V30 24 H -0.3358 0.9704 -5.4016 0
M  V30 25 H -0.729 2.6233 -4.8902 0
M  V30 26 H -1.8277 1.2885 -4.4987 0
M  V30 27 H 2.7596 -2.1742 2.8316 0
M  V30 28 H 1.9304 -1.8284 -0.5367 0
M  V30 29 H 0.631 -2.8156 0.1916 0
M  V30 30 H 2.3093 -3.0354 0.6929 0
M  V30 31 H 0.9823 1.4746 4.2192 0
M  V30 32 H 2.494 -0.4587 4.5807 0
M  V30 END ATOM
M  V30 BEGIN BOND
M  V30 1 2 1 2
M  V30 2 1 2 3
M  V30 3 1 2 4
M  V30 4 1 3 5
M  V30 5 1 3 6
M  V30 6 2 4 7
M  V30 7 2 5 8
M  V30 8 1 5 9
M  V30 9 1 6 10
M  V30 10 1 7 11
M  V30 11 1 8 12
M  V30 12 1 8 13
M  V30 13 2 9 14
M  V30 14 2 12 15
M  V30 15 1 14 15
M  V30 16 1 4 16
M  V30 17 1 6 17
M  V30 18 1 6 18
M  V30 19 1 7 19
M  V30 20 1 9 20
M  V30 21 1 10 21
M  V30 22 1 10 22
M  V30 23 1 10 23
M  V30 24 1 11 24
M  V30 25 1 11 25
M  V30 26 1 11 26
M  V30 27 1 12 27
M  V30 28 1 13 28
M  V30 29 1 13 29
M  V30 30 1 13 30
M  V30 31 1 14 31
M  V30 32 1 15 32
M  V30 END BOND
M  V30 END CTAB
M  END
>  <Column 1>
3348

>  <level_0>
5565

>  <index>
5566

>  <Unnamed: 0>
5566

>  <NO.>
5578

>  <Name>
crotamiton

>  <IUPAC_name>
(e)-n-ethyl-n-(2-methylphenyl)but-2-enamide

>  <SMILES>
C/C=C/C(=O)N(CC)c1ccccc1C

>  <CID>
688020

>  <logBB>


>  <BBB+/BBB->
BBB-

>  <Inchi>
InChI=1S/C13H17NO/c1-4-8-13(15)14(5-2)12-10-7-6-9-11(12)3/h4-6-10H-5H2-1-3H3/b8-4+

>  <threshold>


>  <reference>
R23|

>  <group>
C

>  <Class>
-1

>  <ABC>
10.7

>  <ABCGG>
10.35

>  <nAcid>
0

>  <nBase>
0

>  <nAromAtom>
6

>  <nAromBond>
6

>  <nAtom>
32

>  <nHeavyAtom>
15

>  <nSpiro>
0

>  <nBridgehead>
0

>  <nHetero>
2

>  <nN>
1

>  <nO>
1

>  <nF>
0

>  <BalabanJ>
2.54

>  <BertzCT>
368.55

>  <nBonds>
32

>  <nBondsO>
15

>  <nBondsS>
24

>  <nBondsD>
2

>  <nBondsT>
0

>  <nBondsA>
6

>  <nBondsM>
8

>  <nBondsKS>
27

>  <nBondsKD>
5

>  <RNCG>
0.3

>  <RPCG>
0.24

>  <FCSP3>
0.31

>  <SZ>
18.33

>  <Sm>
16.92

>  <Sv>
19.08

>  <Sse>
31.54

>  <Sp>
20.93

>  <Si>
36.03

>  <MZ>
0.57

>  <Mm>
0.53

>  <Mv>
0.6

>  <Mse>
0.99

>  <Mp>
0.65

>  <Mi>
1.13

>  <NsCH3>
3

>  <NdCH2>
0

>  <NssCH2>
1

>  <NtCH>
0

>  <NdsCH>
2

>  <NaaCH>
4

>  <NsssCH>
0

>  <NddC>
0

>  <NtsC>
0

>  <NdssC>
1

>  <NaasC>
2

>  <NaaaC>
0

>  <NssssC>
0

>  <NsNH3>
0

>  <NsNH2>
0

>  <NssNH2>
0

>  <NdNH>
0

>  <NssNH>
0

>  <NaaNH>
0

>  <NtN>
0

>  <NsssNH>
0

>  <NdsN>
0

>  <NaaN>
0

>  <NsssN>
1

>  <NddsN>
0

>  <NaasN>
0

>  <NssssN>
0

>  <NsOH>
0

>  <NdO>
1

>  <NssO>
0

>  <NaaO>
0

>  <NsF>
0

>  <NsSiH3>
0

>  <NssSiH2>
0

>  <NsssSiH>
0

>  <NssssSi>
0

>  <NsPH2>
0

>  <NssPH>
0

>  <NsssP>
0

>  <NdsssP>
0

>  <NsssssP>
0

>  <NsSH>
0

>  <NdS>
0

>  <NssS>
0

>  <NaaS>
0

>  <NdssS>
0

>  <NddssS>
0

>  <NsCl>
0

>  <NsBr>
0

>  <NsI>
0

>  <fragCpx>
15.02

>  <fMF>
0.19

>  <nHBAcc>
1

>  <nHBDon>
0

>  <Kier1>
13.07

>  <Kier2>
6.55

>  <Lipinski>
1

>  <GhoseFilter>
1

>  <FilterItLogS>
-2.74

>  <VMcGowan>
177.52

>  <LabuteASA>
91.22

>  <PEOE_VSA1>
4.9

>  <PEOE_VSA2>
4.79

>  <PEOE_VSA3>
0

>  <PEOE_VSA4>
0

>  <PEOE_VSA5>
0

>  <PEOE_VSA6>
24.28

>  <PEOE_VSA7>
38.48

>  <PEOE_VSA8>
12.23

>  <PEOE_VSA9>
0

>  <PEOE_VSA10>
0

>  <PEOE_VSA11>
0

>  <PEOE_VSA12>
0

>  <PEOE_VSA13>
5.91

>  <SMR_VSA1>
4.79

>  <SMR_VSA2>
0

>  <SMR_VSA3>
0

>  <SMR_VSA4>
0

>  <SMR_VSA5>
20.77

>  <SMR_VSA6>
11.44

>  <SMR_VSA7>
41.98

>  <SMR_VSA8>
0

>  <SMR_VSA9>
0

>  <SlogP_VSA1>
4.9

>  <SlogP_VSA2>
12.45

>  <SlogP_VSA3>
4.79

>  <SlogP_VSA4>
6.92

>  <SlogP_VSA5>
19.41

>  <SlogP_VSA6>
36.42

>  <SlogP_VSA7>
0

>  <SlogP_VSA8>
0

>  <SlogP_VSA9>
0

>  <SlogP_VSA10>
5.69

>  <SlogP_VSA11>
0

>  <EState_VSA1>
0

>  <EState_VSA2>
5.91

>  <EState_VSA3>
6.54

>  <EState_VSA4>
11.25

>  <EState_VSA5>
0

>  <EState_VSA6>
17.05

>  <EState_VSA7>
45.04

>  <EState_VSA8>
0

>  <EState_VSA9>
0

>  <EState_VSA10>
4.79

>  <VSA_EState1>
0

>  <VSA_EState2>
13.54

>  <VSA_EState3>
0

>  <VSA_EState4>
2.11

>  <VSA_EState5>
0.04

>  <VSA_EState6>
7.92

>  <VSA_EState7>
3.36

>  <VSA_EState8>
6.53

>  <VSA_EState9>
0

>  <apol>
34.95

>  <bpol>
19.63

>  <nRing>
1

>  <nHRing>
0

>  <naRing>
1

>  <naHRing>
0

>  <nARing 2>
0

>  <nAHRing 2>
0

>  <nFRing>
0

>  <nFHRing>
0

>  <nFaRing>
0

>  <nFaHRing>
0

>  <nFARing 2>
0

>  <nFAHRing 2>
0

>  <nRot>
3

>  <SLogP>
2.92

>  <SMR>
64.02

>  <TopoPSA(NO)>
20.31

>  <TopoPSA>
20.31

>  <JGI1>
0.17

>  <JGI2>
0.11

>  <JGI3>
0.07

>  <JGI4>
0.04

>  <JGI5>
0.02

>  <Diameter>
8

>  <Radius>
4

>  <TMWC10>
98.17

>  <TSRW10>
46.28

>  <MW>
203.13

>  <AMW>
6.35

>  <WPath>
366

>  <WPol>
21

>  <Zagreb1>
68

>  <Zagreb2>
77

>  <mZagreb2>
3.67

>  <yes>


>  <nAR-cont>
0.336376

>  <nHA-cont>
0.92539861

>  <MWHBN>
0.070163778

>  <MWHBN-cont>
0.534693236

>  <TPSA-cont>
0.858223588

>  <pka_cont>
0.97

>  <yes.1>


>  <BBB_SCORE>
4.265261641

>  <MMFF94 Energy>
24.216

$$$$
Compound 2676
Actelion Java MolfileCreator 2.0

  0  0  0  0  0  0              0 V3000
M  V30 BEGIN CTAB
M  V30 COUNTS 33 33 0 0 0
M  V30 BEGIN ATOM
M  V30 1 O 3.7612 4.3891 0.8609 0
M  V30 2 C 4.0861 3.2125 0.7667 0
M  V30 3 N 4.8433 2.758 -0.2656 0
M  V30 4 C 3.6795 2.2479 1.8152 0
M  V30 5 O 4.3676 0.9803 1.8292 0
M  V30 6 C 2.9634 0.945 1.5447 0
M  V30 7 C 2.6279 0.4303 0.1909 0
M  V30 8 O 3.3999 0.5457 -0.7548 0
M  V30 9 C 1.2699 -0.2328 0.0916 0
M  V30 10 C 0.9495 -0.6595 -1.34 0
M  V30 11 C -0.3876 -1.3188 -1.5603 0
M  V30 12 C -1.3259 -1.5951 -0.6391 0
M  V30 13 C -2.6389 -2.2581 -0.9509 0
M  V30 14 C -3.7895 -1.3486 -0.6291 0
M  V30 15 C -4.7213 -1.6089 0.3019 0
M  V30 16 C -5.8678 -0.7017 0.6108 0
M  V30 17 H 4.9746 1.7607 -0.4119 0
M  V30 18 H 5.1241 3.3984 -0.9929 0
M  V30 19 H 3.4982 2.7102 2.7796 0
M  V30 20 H 2.29 0.6317 2.336 0
M  V30 21 H 1.2737 -1.1042 0.7566 0
M  V30 22 H 0.5198 0.4824 0.4492 0
M  V30 23 H 0.9999 0.2191 -1.996 0
M  V30 24 H 1.7252 -1.3511 -1.693 0
M  V30 25 H -0.5858 -1.5865 -2.5986 0
M  V30 26 H -1.1683 -1.3495 0.4077 0
M  V30 27 H -2.6994 -2.536 -2.0098 0
M  V30 28 H -2.7026 -3.1905 -0.3772 0
M  V30 29 H -3.8522 -0.4312 -1.2119 0
M  V30 30 H -4.6658 -2.5273 0.8824 0
M  V30 31 H -6.8135 -1.2254 0.441 0
M  V30 32 H -5.861 0.2005 -0.0088 0
M  V30 33 H -5.8276 -0.395 1.6605 0
M  V30 END ATOM
M  V30 BEGIN BOND
M  V30 1 2 1 2
M  V30 2 1 2 3
M  V30 3 1 2 4
M  V30 4 1 4 5
M  V30 5 1 4 6
M  V30 6 1 6 7
M  V30 7 2 7 8
M  V30 8 1 7 9
M  V30 9 1 9 10
M  V30 10 1 10 11
M  V30 11 2 11 12
M  V30 12 1 12 13
M  V30 13 1 13 14
M  V30 14 2 14 15
M  V30 15 1 15 16
M  V30 16 1 5 6
M  V30 17 1 3 17
M  V30 18 1 3 18
M  V30 19 1 4 19
M  V30 20 1 6 20
M  V30 21 1 9 21
M  V30 22 1 9 22
M  V30 23 1 10 23
M  V30 24 1 10 24
M  V30 25 1 11 25
M  V30 26 1 12 26
M  V30 27 1 13 27
M  V30 28 1 13 28
M  V30 29 1 14 29
M  V30 30 1 15 30
M  V30 31 1 16 31
M  V30 32 1 16 32
M  V30 33 1 16 33
M  V30 END BOND
M  V30 END CTAB
M  END
>  <Column 1>
3349

>  <level_0>
5566

>  <index>
5567

>  <Unnamed: 0>
5567

>  <NO.>
5579

>  <Name>
nsc116069

>  <IUPAC_name>
3-[(4e-7e)-nona-4-7-dienoyl]oxirane-2-carboxamide

>  <SMILES>
C/C=C/C/C=C/CCC(=O)C1OC1C(N)=O

>  <CID>
5352018

>  <logBB>


>  <BBB+/BBB->
BBB-

>  <Inchi>
InChI=1S/C12H17NO3/c1-2-3-4-5-6-7-8-9(14)10-11(16-10)12(13)15/h2-3-5-6-10-11H-4-7-8H2-1H3-(H2-13-15)/b3-2+-6-5+

>  <threshold>


>  <reference>
R23|

>  <group>
C

>  <Class>
-1

>  <ABC>
11.52

>  <ABCGG>
11.08

>  <nAcid>
0

>  <nBase>
0

>  <nAromAtom>
0

>  <nAromBond>
0

>  <nAtom>
33

>  <nHeavyAtom>
16

>  <nSpiro>
0

>  <nBridgehead>
0

>  <nHetero>
4

>  <nN>
1

>  <nO>
3

>  <nF>
0

>  <BalabanJ>
1.93

>  <BertzCT>
320.23

>  <nBonds>
33

>  <nBondsO>
16

>  <nBondsS>
29

>  <nBondsD>
4

>  <nBondsT>
0

>  <nBondsA>
0

>  <nBondsM>
4

>  <nBondsKS>
29

>  <nBondsKD>
4

>  <RNCG>
0.21

>  <RPCG>
0.14

>  <FCSP3>
0.5

>  <SZ>
20

>  <Sm>
18.59

>  <Sv>
19.51

>  <Sse>
33.2

>  <Sp>
20.89

>  <Si>
37.45

>  <MZ>
0.61

>  <Mm>
0.56

>  <Mv>
0.59

>  <Mse>
1.01

>  <Mp>
0.63

>  <Mi>
1.13

>  <NsCH3>
1

>  <NdCH2>
0

>  <NssCH2>
3

>  <NtCH>
0

>  <NdsCH>
4

>  <NaaCH>
0

>  <NsssCH>
2

>  <NddC>
0

>  <NtsC>
0

>  <NdssC>
2

>  <NaasC>
0

>  <NaaaC>
0

>  <NssssC>
0

>  <NsNH3>
0

>  <NsNH2>
1

>  <NssNH2>
0

>  <NdNH>
0

>  <NssNH>
0

>  <NaaNH>
0

>  <NtN>
0

>  <NsssNH>
0

>  <NdsN>
0

>  <NaaN>
0

>  <NsssN>
0

>  <NddsN>
0

>  <NaasN>
0

>  <NssssN>
0

>  <NsOH>
0

>  <NdO>
2

>  <NssO>
1

>  <NaaO>
0

>  <NsF>
0

>  <NsSiH3>
0

>  <NssSiH2>
0

>  <NsssSiH>
0

>  <NssssSi>
0

>  <NsPH2>
0

>  <NssPH>
0

>  <NsssP>
0

>  <NdsssP>
0

>  <NsssssP>
0

>  <NsSH>
0

>  <NdS>
0

>  <NssS>
0

>  <NaaS>
0

>  <NdssS>
0

>  <NddssS>
0

>  <NsCl>
0

>  <NsBr>
0

>  <NsI>
0

>  <fragCpx>
16.04

>  <fMF>
0.09

>  <nHBAcc>
3

>  <nHBDon>
1

>  <Kier1>
14.06

>  <Kier2>
7.35

>  <Lipinski>
1

>  <GhoseFilter>
1

>  <FilterItLogS>
-1.04

>  <VMcGowan>
179.47

>  <LabuteASA>
95.15

>  <PEOE_VSA1>
10.47

>  <PEOE_VSA2>
9.59

>  <PEOE_VSA3>
0

>  <PEOE_VSA4>
0

>  <PEOE_VSA5>
0

>  <PEOE_VSA6>
24.3

>  <PEOE_VSA7>
19.77

>  <PEOE_VSA8>
6.42

>  <PEOE_VSA9>
0

>  <PEOE_VSA10>
0

>  <PEOE_VSA11>
17.99

>  <PEOE_VSA12>
5.91

>  <PEOE_VSA13>
0

>  <SMR_VSA1>
14.33

>  <SMR_VSA2>
0

>  <SMR_VSA3>
0

>  <SMR_VSA4>
5.73

>  <SMR_VSA5>
38.39

>  <SMR_VSA6>
0

>  <SMR_VSA7>
24.3

>  <SMR_VSA8>
0

>  <SMR_VSA9>
0

>  <SlogP_VSA1>
5.73

>  <SlogP_VSA2>
23.9

>  <SlogP_VSA3>
14.33

>  <SlogP_VSA4>
0

>  <SlogP_VSA5>
26.19

>  <SlogP_VSA6>
24.3

>  <SlogP_VSA7>
0

>  <SlogP_VSA8>
0

>  <SlogP_VSA9>
0

>  <SlogP_VSA10>
0

>  <SlogP_VSA11>
0

>  <EState_VSA1>
18.12

>  <EState_VSA2>
5.78

>  <EState_VSA3>
12.84

>  <EState_VSA4>
6.42

>  <EState_VSA5>
0

>  <EState_VSA6>
0

>  <EState_VSA7>
31.23

>  <EState_VSA8>
0

>  <EState_VSA9>
10.47

>  <EState_VSA10>
9.59

>  <VSA_EState1>
4.88

>  <VSA_EState2>
22.08

>  <VSA_EState3>
0

>  <VSA_EState4>
5

>  <VSA_EState5>
-0.6

>  <VSA_EState6>
0

>  <VSA_EState7>
8.68

>  <VSA_EState8>
1.96

>  <VSA_EState9>
0

>  <apol>
34.88

>  <bpol>
19.96

>  <nRing>
1

>  <nHRing>
1

>  <naRing>
0

>  <naHRing>
0

>  <nARing 2>
1

>  <nAHRing 2>
1

>  <nFRing>
0

>  <nFHRing>
0

>  <nFaRing>
0

>  <nFaHRing>
0

>  <nFARing 2>
0

>  <nFAHRing 2>
0

>  <nRot>
7

>  <SLogP>
1.11

>  <SMR>
60.67

>  <TopoPSA(NO)>
72.69

>  <TopoPSA>
72.69

>  <JGI1>
0.16

>  <JGI2>
0.08

>  <JGI3>
0.07

>  <JGI4>
0.04

>  <JGI5>
0.02

>  <Diameter>
12

>  <Radius>
6

>  <TMWC10>
100.8

>  <TSRW10>
66.98

>  <MW>
223.12

>  <AMW>
6.76

>  <WPath>
575

>  <WPol>
17

>  <Zagreb1>
72

>  <Zagreb2>
80

>  <mZagreb2>
3.83

>  <yes>


>  <nAR-cont>
0.816016

>  <nHA-cont>
0.954961865

>  <MWHBN>
0.267787771

>  <MWHBN-cont>
0.925067195

>  <TPSA-cont>
0.492578662

>  <pka_cont>
0.97

>  <yes.1>


>  <BBB_SCORE>
4.628735982

>  <MMFF94 Energy>
-0.80754

$$$$
Compound 2677
Actelion Java MolfileCreator 2.0

  0  0  0  0  0  0              0 V3000
M  V30 BEGIN CTAB
M  V30 COUNTS 36 39 0 0 0
M  V30 BEGIN ATOM
M  V30 1 O -4.2126 -0.6472 1.4566 0
M  V30 2 C -3.1606 -0.2418 1.0015 0
M  V30 3 O -1.9252 -0.5 1.4977 0
M  V30 4 C -2.982 0.592 -0.2009 0
M  V30 5 C -0.9192 0.2979 0.8275 0
M  V30 6 C -4.0018 1.2003 -0.8185 0
M  V30 7 C -1.5303 0.6523 -0.535 0
M  V30 8 C 0.3868 -0.514 0.7887 0
M  V30 9 C -1.17 -0.3247 -1.6643 0
M  V30 10 C 1.0722 -0.6762 2.1462 0
M  V30 11 C 1.4806 0.0794 -0.081 0
M  V30 12 C 0.1224 0.0279 -2.4025 0
M  V30 13 C 2.3802 -0.3789 2.075 0
M  V30 14 C 0.3536 -1.1711 3.353 0
M  V30 15 O 1.2217 1.3638 -0.6691 0
M  V30 16 C 1.3756 0.2737 -1.5939 0
M  V30 17 C 2.7795 0.0456 0.6936 0
M  V30 18 C 2.6345 0.373 -2.4117 0
M  V30 19 H -0.7805 1.2095 1.426 0
M  V30 20 H -5.0224 1.0843 -0.4613 0
M  V30 21 H -3.8432 1.8238 -1.6919 0
M  V30 22 H -1.2611 1.6752 -0.8245 0
M  V30 23 H 0.1769 -1.5365 0.4472 0
M  V30 24 H -1.9697 -0.3278 -2.4179 0
M  V30 25 H -1.1227 -1.3563 -1.2956 0
M  V30 26 H 0.3258 -0.7814 -3.1153 0
M  V30 27 H -0.0646 0.9237 -3.01 0
M  V30 28 H 3.0786 -0.4417 2.8985 0
M  V30 29 H -0.1565 -2.1143 3.1344 0
M  V30 30 H 1.0445 -1.3522 4.1833 0
M  V30 31 H -0.3853 -0.439 3.692 0
M  V30 32 H 3.2636 1.0273 0.7249 0
M  V30 33 H 3.4723 -0.6847 0.2639 0
M  V30 34 H 2.4762 1.0139 -3.2856 0
M  V30 35 H 2.93 -0.6203 -2.7637 0
M  V30 36 H 3.4706 0.7952 -1.8454 0
M  V30 END ATOM
M  V30 BEGIN BOND
M  V30 1 2 1 2
M  V30 2 1 2 3
M  V30 3 1 2 4
M  V30 4 1 3 5
M  V30 5 2 4 6
M  V30 6 1 4 7
M  V30 7 1 5 8
M  V30 8 1 7 9
M  V30 9 1 8 10
M  V30 10 1 8 11
M  V30 11 1 9 12
M  V30 12 2 10 13
M  V30 13 1 10 14
M  V30 14 1 11 15
M  V30 15 1 11 16
M  V30 16 1 11 17
M  V30 17 1 16 18
M  V30 18 1 5 7
M  V30 19 1 12 16
M  V30 20 1 13 17
M  V30 21 1 15 16
M  V30 22 1 5 19
M  V30 23 1 6 20
M  V30 24 1 6 21
M  V30 25 1 7 22
M  V30 26 1 8 23
M  V30 27 1 9 24
M  V30 28 1 9 25
M  V30 29 1 12 26
M  V30 30 1 12 27
M  V30 31 1 13 28
M  V30 32 1 14 29
M  V30 33 1 14 30
M  V30 34 1 14 31
M  V30 35 1 17 32
M  V30 36 1 17 33
M  V30 37 1 18 34
M  V30 38 1 18 35
M  V30 39 1 18 36
M  V30 END BOND
M  V30 END CTAB
M  END
>  <Column 1>
3355

>  <level_0>
5575

>  <index>
5576

>  <Unnamed: 0>
5576

>  <NO.>
5588

>  <Name>
arglabin

>  <IUPAC_name>
3-12-dimethyl-7-methylidene-2-9-dioxatetracyclo[9.3.0.01-3.06-10]tetradec-12-en-8-one

>  <SMILES>
C=C1C(=O)OC2C1CCC1(C)OC13CC=C(C)C23

>  <CID>
538561

>  <logBB>


>  <BBB+/BBB->
BBB-

>  <Inchi>
InChI=1S/C15H18O3/c1-8-4-7-15-11(8)12-10(9(2)13(16)17-12)5-6-14(15-3)18-15/h4-10-12H-2-5-7H2-1-3H3

>  <threshold>


>  <reference>
R23|

>  <group>
C

>  <Class>
-1

>  <ABC>
14.98

>  <ABCGG>
14.15

>  <nAcid>
0

>  <nBase>
0

>  <nAromAtom>
0

>  <nAromBond>
0

>  <nAtom>
36

>  <nHeavyAtom>
18

>  <nSpiro>
1

>  <nBridgehead>
0

>  <nHetero>
3

>  <nN>
0

>  <nO>
3

>  <nF>
0

>  <BalabanJ>
1.74

>  <BertzCT>
505.87

>  <nBonds>
39

>  <nBondsO>
21

>  <nBondsS>
36

>  <nBondsD>
3

>  <nBondsT>
0

>  <nBondsA>
0

>  <nBondsM>
3

>  <nBondsKS>
36

>  <nBondsKD>
3

>  <RNCG>
0.32

>  <RPCG>
0.23

>  <FCSP3>
0.67

>  <SZ>
22

>  <Sm>
20.51

>  <Sv>
22.02

>  <Sse>
35.98

>  <Sp>
23.63

>  <Si>
40.37

>  <MZ>
0.61

>  <Mm>
0.57

>  <Mv>
0.61

>  <Mse>
1

>  <Mp>
0.66

>  <Mi>
1.12

>  <NsCH3>
2

>  <NdCH2>
1

>  <NssCH2>
3

>  <NtCH>
0

>  <NdsCH>
1

>  <NaaCH>
0

>  <NsssCH>
3

>  <NddC>
0

>  <NtsC>
0

>  <NdssC>
3

>  <NaasC>
0

>  <NaaaC>
0

>  <NssssC>
2

>  <NsNH3>
0

>  <NsNH2>
0

>  <NssNH2>
0

>  <NdNH>
0

>  <NssNH>
0

>  <NaaNH>
0

>  <NtN>
0

>  <NsssNH>
0

>  <NdsN>
0

>  <NaaN>
0

>  <NsssN>
0

>  <NddsN>
0

>  <NaasN>
0

>  <NssssN>
0

>  <NsOH>
0

>  <NdO>
1

>  <NssO>
2

>  <NaaO>
0

>  <NsF>
0

>  <NsSiH3>
0

>  <NssSiH2>
0

>  <NsssSiH>
0

>  <NssssSi>
0

>  <NsPH2>
0

>  <NssPH>
0

>  <NsssP>
0

>  <NdsssP>
0

>  <NsssssP>
0

>  <NsSH>
0

>  <NdS>
0

>  <NssS>
0

>  <NaaS>
0

>  <NdssS>
0

>  <NddssS>
0

>  <NsCl>
0

>  <NsBr>
0

>  <NsI>
0

>  <fragCpx>
135.03

>  <fMF>
0.39

>  <nHBAcc>
3

>  <nHBDon>
0

>  <Kier1>
11.8

>  <Kier2>
3.36

>  <Lipinski>
1

>  <GhoseFilter>
1

>  <FilterItLogS>
-2.77

>  <VMcGowan>
183.48

>  <LabuteASA>
106.83

>  <PEOE_VSA1>
9.47

>  <PEOE_VSA2>
0

>  <PEOE_VSA3>
4.79

>  <PEOE_VSA4>
0

>  <PEOE_VSA5>
0

>  <PEOE_VSA6>
18.23

>  <PEOE_VSA7>
33.11

>  <PEOE_VSA8>
17.41

>  <PEOE_VSA9>
5.6

>  <PEOE_VSA10>
11.71

>  <PEOE_VSA11>
0

>  <PEOE_VSA12>
0

>  <PEOE_VSA13>
0

>  <SMR_VSA1>
14.27

>  <SMR_VSA2>
0

>  <SMR_VSA3>
0

>  <SMR_VSA4>
11.84

>  <SMR_VSA5>
50.42

>  <SMR_VSA6>
0

>  <SMR_VSA7>
23.8

>  <SMR_VSA8>
0

>  <SMR_VSA9>
0

>  <SlogP_VSA1>
0

>  <SlogP_VSA2>
23.28

>  <SlogP_VSA3>
14.27

>  <SlogP_VSA4>
11.84

>  <SlogP_VSA5>
33.11

>  <SlogP_VSA6>
23.8

>  <SlogP_VSA7>
0

>  <SlogP_VSA8>
0

>  <SlogP_VSA9>
0

>  <SlogP_VSA10>
0

>  <SlogP_VSA11>
0

>  <EState_VSA1>
0

>  <EState_VSA2>
35.11

>  <EState_VSA3>
5.57

>  <EState_VSA4>
19.26

>  <EState_VSA5>
5.57

>  <EState_VSA6>
0

>  <EState_VSA7>
0

>  <EState_VSA8>
26.5

>  <EState_VSA9>
9.47

>  <EState_VSA10>
4.79

>  <VSA_EState1>
11.75

>  <VSA_EState2>
11.76

>  <VSA_EState3>
0

>  <VSA_EState4>
1.86

>  <VSA_EState5>
0.22

>  <VSA_EState6>
0

>  <VSA_EState7>
5.13

>  <VSA_EState8>
8.27

>  <VSA_EState9>
0

>  <apol>
39.46

>  <bpol>
22.4

>  <nRing>
4

>  <nHRing>
2

>  <naRing>
0

>  <naHRing>
0

>  <nARing 2>
4

>  <nAHRing 2>
2

>  <nFRing>
1

>  <nFHRing>
1

>  <nFaRing>
0

>  <nFaHRing>
0

>  <nFARing 2>
1

>  <nFAHRing 2>
1

>  <nRot>
0

>  <SLogP>
2.37

>  <SMR>
65.83

>  <TopoPSA(NO)>
38.83

>  <TopoPSA>
38.83

>  <JGI1>
0.26

>  <JGI2>
0.15

>  <JGI3>
0.08

>  <JGI4>
0.05

>  <JGI5>
0.04

>  <Diameter>
7

>  <Radius>
4

>  <TMWC10>
117.36

>  <TSRW10>
75.29

>  <MW>
246.13

>  <AMW>
6.84

>  <WPath>
493

>  <WPol>
36

>  <Zagreb1>
114

>  <Zagreb2>
150

>  <mZagreb2>
3.62

>  <yes>


>  <nAR-cont>
0.199399

>  <nHA-cont>
0.991161285

>  <MWHBN>
0.191222494

>  <MWHBN-cont>
0.996364003

>  <TPSA-cont>
0.728942488

>  <pka_cont>
0.97

>  <yes.1>


>  <BBB_SCORE>
4.627991266

>  <MMFF94 Energy>
62.902

$$$$
Compound 2678
Actelion Java MolfileCreator 2.0

  0  0  0  0  0  0              0 V3000
M  V30 BEGIN CTAB
M  V30 COUNTS 46 49 0 0 0
M  V30 BEGIN ATOM
M  V30 1 O -4.1223 3.7985 -1.6958 0
M  V30 2 C -3.0963 3.1775 -1.4493 0
M  V30 3 C -2.7565 2.7706 -0.0731 0
M  V30 4 C -2.161 2.7901 -2.5214 0
M  V30 5 C -1.6149 2.1179 0.206 0
M  V30 6 C -1.0228 2.1398 -2.2445 0
M  V30 7 C -1.3506 1.6412 1.5562 0
M  V30 8 C -0.5581 1.745 -0.8443 0
M  V30 9 C -1.322 2.4563 2.6218 0
M  V30 10 C -1.0999 0.1605 1.647 0
M  V30 11 C -0.299 0.1895 -0.7721 0
M  V30 12 C 0.723 2.5691 -0.5725 0
M  V30 13 C 0.0072 -0.3 0.6731 0
M  V30 14 C 0.8332 -0.2957 -1.6944 0
M  V30 15 C 0.1858 -1.8468 0.7571 0
M  V30 16 C 0.8821 -1.8165 -1.7397 0
M  V30 17 C 1.0488 -2.4721 -0.369 0
M  V30 18 C 0.946 -2.2456 2.0392 0
M  V30 19 C 2.4487 -2.303 0.2096 0
M  V30 20 C 0.7993 -3.9853 -0.5093 0
M  V30 21 C 2.4247 -2.0749 1.7003 0
M  V30 22 O 3.4824 -2.3538 -0.4451 0
M  V30 23 H -3.5013 3.0062 0.6783 0
M  V30 24 H -2.4404 3.0726 -3.5293 0
M  V30 25 H -0.3635 1.9148 -3.0792 0
M  V30 26 H -1.4933 3.5253 2.5309 0
M  V30 27 H -1.12 2.0779 3.6192 0
M  V30 28 H -0.837 -0.1112 2.6752 0
M  V30 29 H -2.0364 -0.3667 1.42 0
M  V30 30 H -1.2269 -0.3076 -1.0973 0
M  V30 31 H 0.506 3.6453 -0.5581 0
M  V30 32 H 1.183 2.3244 0.3903 0
M  V30 33 H 1.4825 2.4095 -1.3465 0
M  V30 34 H 0.9458 0.1715 0.9926 0
M  V30 35 H 1.8016 0.0911 -1.3561 0
M  V30 36 H 0.6901 0.0599 -2.7189 0
M  V30 37 H -0.8104 -2.3079 0.7585 0
M  V30 38 H 1.6957 -2.121 -2.4102 0
M  V30 39 H -0.0472 -2.1733 -2.2038 0
M  V30 40 H 0.7405 -3.2944 2.2853 0
M  V30 41 H 0.673 -1.6606 2.9211 0
M  V30 42 H 1.4315 -4.4125 -1.2969 0
M  V30 43 H 1.0293 -4.5371 0.408 0
M  V30 44 H -0.2452 -4.1877 -0.7702 0
M  V30 45 H 3.0436 -2.8103 2.2192 0
M  V30 46 H 2.7718 -1.0602 1.913 0
M  V30 END ATOM
M  V30 BEGIN BOND
M  V30 1 2 1 2
M  V30 2 1 2 3
M  V30 3 1 2 4
M  V30 4 2 3 5
M  V30 5 2 4 6
M  V30 6 1 5 7
M  V30 7 1 5 8
M  V30 8 2 7 9
M  V30 9 1 7 10
M  V30 10 1 8 11
M  V30 11 1 8 12
M  V30 12 1 10 13
M  V30 13 1 11 14
M  V30 14 1 13 15
M  V30 15 1 14 16
M  V30 16 1 15 17
M  V30 17 1 15 18
M  V30 18 1 17 19
M  V30 19 1 17 20
M  V30 20 1 18 21
M  V30 21 2 19 22
M  V30 22 1 6 8
M  V30 23 1 11 13
M  V30 24 1 16 17
M  V30 25 1 19 21
M  V30 26 1 3 23
M  V30 27 1 4 24
M  V30 28 1 6 25
M  V30 29 1 9 26
M  V30 30 1 9 27
M  V30 31 1 10 28
M  V30 32 1 10 29
M  V30 33 1 11 30
M  V30 34 1 12 31
M  V30 35 1 12 32
M  V30 36 1 12 33
M  V30 37 1 13 34
M  V30 38 1 14 35
M  V30 39 1 14 36
M  V30 40 1 15 37
M  V30 41 1 16 38
M  V30 42 1 16 39
M  V30 43 1 18 40
M  V30 44 1 18 41
M  V30 45 1 20 42
M  V30 46 1 20 43
M  V30 47 1 20 44
M  V30 48 1 21 45
M  V30 49 1 21 46
M  V30 END BOND
M  V30 END CTAB
M  END
>  <Column 1>
3357

>  <level_0>
5577

>  <index>
5578

>  <Unnamed: 0>
5578

>  <NO.>
5590

>  <Name>
exemestane

>  <IUPAC_name>
10-13-dimethyl-6-methylidene-7-8-9-11-12-14-15-16-octahydrocyclopenta[a]phenanthrene-3-17-dione

>  <SMILES>
C=C1CC2C(CCC3(C)C(=O)CCC23)C2(C)C=CC(=O)C=C12

>  <CID>
4460995

>  <logBB>


>  <BBB+/BBB->
BBB-

>  <Inchi>
InChI=1S/C20H24O2/c1-12-10-14-15-4-5-18(22)20(15-3)9-7-16(14)19(2)8-6-13(21)11-17(12)19/h6-8-11-14-16H-1-4-5-7-9-10H2-2-3H3

>  <threshold>


>  <reference>
R23|

>  <group>
C

>  <Class>
-1

>  <ABC>
17.96

>  <ABCGG>
14.7

>  <nAcid>
0

>  <nBase>
0

>  <nAromAtom>
0

>  <nAromBond>
0

>  <nAtom>
46

>  <nHeavyAtom>
22

>  <nSpiro>
0

>  <nBridgehead>
0

>  <nHetero>
2

>  <nN>
0

>  <nO>
2

>  <nF>
0

>  <BalabanJ>
1.66

>  <BertzCT>
652.62

>  <nBonds>
49

>  <nBondsO>
25

>  <nBondsS>
44

>  <nBondsD>
5

>  <nBondsT>
0

>  <nBondsA>
0

>  <nBondsM>
5

>  <nBondsKS>
44

>  <nBondsKD>
5

>  <RNCG>
0.25

>  <RPCG>
0.15

>  <FCSP3>
0.6

>  <SZ>
26.67

>  <Sm>
24.68

>  <Sv>
27.93

>  <Sse>
45.32

>  <Sp>
30.54

>  <Si>
51.4

>  <MZ>
0.58

>  <Mm>
0.54

>  <Mv>
0.61

>  <Mse>
0.99

>  <Mp>
0.66

>  <Mi>
1.12

>  <NsCH3>
2

>  <NdCH2>
1

>  <NssCH2>
5

>  <NtCH>
0

>  <NdsCH>
3

>  <NaaCH>
0

>  <NsssCH>
3

>  <NddC>
0

>  <NtsC>
0

>  <NdssC>
4

>  <NaasC>
0

>  <NaaaC>
0

>  <NssssC>
2

>  <NsNH3>
0

>  <NsNH2>
0

>  <NssNH2>
0

>  <NdNH>
0

>  <NssNH>
0

>  <NaaNH>
0

>  <NtN>
0

>  <NsssNH>
0

>  <NdsN>
0

>  <NaaN>
0

>  <NsssN>
0

>  <NddsN>
0

>  <NaasN>
0

>  <NssssN>
0

>  <NsOH>
0

>  <NdO>
2

>  <NssO>
0

>  <NaaO>
0

>  <NsF>
0

>  <NsSiH3>
0

>  <NssSiH2>
0

>  <NsssSiH>
0

>  <NssssSi>
0

>  <NsPH2>
0

>  <NssPH>
0

>  <NsssP>
0

>  <NdsssP>
0

>  <NsssssP>
0

>  <NsSH>
0

>  <NdS>
0

>  <NssS>
0

>  <NaaS>
0

>  <NdssS>
0

>  <NddssS>
0

>  <NsCl>
0

>  <NsBr>
0

>  <NsI>
0

>  <fragCpx>
163.02

>  <fMF>
0.37

>  <nHBAcc>
2

>  <nHBDon>
0

>  <Kier1>
15.52

>  <Kier2>
5

>  <Lipinski>
1

>  <GhoseFilter>
1

>  <FilterItLogS>
-4.09

>  <VMcGowan>
239.46

>  <LabuteASA>
131.9

>  <PEOE_VSA1>
0

>  <PEOE_VSA2>
9.59

>  <PEOE_VSA3>
0

>  <PEOE_VSA4>
0

>  <PEOE_VSA5>
0

>  <PEOE_VSA6>
32.08

>  <PEOE_VSA7>
61.16

>  <PEOE_VSA8>
17.25

>  <PEOE_VSA9>
0

>  <PEOE_VSA10>
5.78

>  <PEOE_VSA11>
5.78

>  <PEOE_VSA12>
0

>  <PEOE_VSA13>
0

>  <SMR_VSA1>
9.59

>  <SMR_VSA2>
0

>  <SMR_VSA3>
0

>  <SMR_VSA4>
28.58

>  <SMR_VSA5>
45.95

>  <SMR_VSA6>
0

>  <SMR_VSA7>
35.95

>  <SMR_VSA8>
0

>  <SMR_VSA9>
0

>  <SlogP_VSA1>
0

>  <SlogP_VSA2>
11.57

>  <SlogP_VSA3>
9.59

>  <SlogP_VSA4>
28.58

>  <SlogP_VSA5>
45.95

>  <SlogP_VSA6>
35.95

>  <SlogP_VSA7>
0

>  <SlogP_VSA8>
0

>  <SlogP_VSA9>
0

>  <SlogP_VSA10>
0

>  <SlogP_VSA11>
0

>  <EState_VSA1>
0

>  <EState_VSA2>
16.61

>  <EState_VSA3>
23.54

>  <EState_VSA4>
43.25

>  <EState_VSA5>
0

>  <EState_VSA6>
12.15

>  <EState_VSA7>
0

>  <EState_VSA8>
26.5

>  <EState_VSA9>
0

>  <EState_VSA10>
9.59

>  <VSA_EState1>
0

>  <VSA_EState2>
24.19

>  <VSA_EState3>
0

>  <VSA_EState4>
2.09

>  <VSA_EState5>
2.14

>  <VSA_EState6>
0

>  <VSA_EState7>
10.5

>  <VSA_EState8>
8.75

>  <VSA_EState9>
0

>  <apol>
51.01

>  <bpol>
25.81

>  <nRing>
4

>  <nHRing>
0

>  <naRing>
0

>  <naHRing>
0

>  <nARing 2>
4

>  <nAHRing 2>
0

>  <nFRing>
1

>  <nFHRing>
0

>  <nFaRing>
0

>  <nFaHRing>
0

>  <nFARing 2>
1

>  <nFAHRing 2>
0

>  <nRot>
0

>  <SLogP>
4.03

>  <SMR>
86.15

>  <TopoPSA(NO)>
34.14

>  <TopoPSA>
34.14

>  <JGI1>
0.28

>  <JGI2>
0.13

>  <JGI3>
0.07

>  <JGI4>
0.06

>  <JGI5>
0.04

>  <Diameter>
10

>  <Radius>
5

>  <TMWC10>
125.33

>  <TSRW10>
71.98

>  <MW>
296.18

>  <AMW>
6.44

>  <WPath>
892

>  <WPol>
47

>  <Zagreb1>
132

>  <Zagreb2>
168

>  <mZagreb2>
4.5

>  <yes>


>  <nAR-cont>
0.199399

>  <nHA-cont>
0.983774276

>  <MWHBN>
0.116212309

>  <MWHBN-cont>
0.812604756

>  <TPSA-cont>
0.7616816

>  <pka_cont>
0.97

>  <yes.1>


>  <BBB_SCORE>
4.410443611

>  <MMFF94 Energy>
72.006

$$$$
Compound 2679
Actelion Java MolfileCreator 2.0

  0  0  0  0  0  0              0 V3000
M  V30 BEGIN CTAB
M  V30 COUNTS 91 96 0 0 0
M  V30 BEGIN ATOM
M  V30 1 O 1.0403 3.8454 2.5624 0
M  V30 2 C 0.9869 2.6304 2.4517 0
M  V30 3 O 1.3214 1.9364 1.3257 0
M  V30 4 C 0.5618 1.695 3.5422 0
M  V30 5 C 1.5793 2.7162 0.1436 0
M  V30 6 C 0.6229 2.2747 -1.0073 0
M  V30 7 C 2.9786 2.4182 -0.4586 0
M  V30 8 C 1.265 0.9577 -1.5221 0
M  V30 9 C -0.8541 2.1365 -0.5915 0
M  V30 10 C 0.6593 3.343 -2.1374 0
M  V30 11 N 4.1841 2.3759 0.5179 0 CHG=1
M  V30 12 C 2.7925 1.1361 -1.2931 0
M  V30 13 C 0.7599 -0.356 -0.8584 0
M  V30 14 C -1.2482 0.8283 0.0799 0
M  V30 15 C 4.094 1.2541 1.5822 0
M  V30 16 C 5.5077 2.0827 -0.2491 0
M  V30 17 C 4.3249 3.733 1.2573 0
M  V30 18 C -0.7854 -0.3928 -0.7266 0
M  V30 19 C 1.2756 -1.5735 -1.6545 0
M  V30 20 C 5.4884 0.6631 1.6509 0
M  V30 21 C 5.9508 0.7088 0.2144 0
M  V30 22 C 4.4488 4.9324 0.3672 0
M  V30 23 C -1.3168 -1.7652 -0.1486 0
M  V30 24 C 0.7604 -2.9034 -1.117 0
M  V30 25 C 3.5603 5.9353 0.3204 0
M  V30 26 C -0.7681 -2.9054 -1.0564 0
M  V30 27 C -2.8733 -1.8208 -0.2263 0
M  V30 28 C -0.8887 -1.9368 1.3325 0
M  V30 29 C -1.3038 -4.2871 -0.672 0
M  V30 30 C -3.4792 -3.1989 0.1391 0
M  V30 31 C -2.8331 -4.3356 -0.7033 0
M  V30 32 N -4.9612 -3.2494 0.0784 0
M  V30 33 O -3.2278 -5.6116 -0.1917 0
M  V30 34 C -5.6111 -2.5576 1.2082 0
M  V30 35 C -5.5746 -2.8111 -1.1866 0
M  V30 36 C -7.1371 -2.7463 1.1748 0
M  V30 37 C -7.1012 -3.0034 -1.1562 0
M  V30 38 O -7.6877 -2.2812 -0.0649 0
M  V30 39 H -0.4847 1.416 3.4041 0
M  V30 40 H 1.1957 0.8039 3.5428 0
M  V30 41 H 0.6822 2.1915 4.5093 0
M  V30 42 H 1.4659 3.7885 0.3303 0
M  V30 43 H 3.231 3.217 -1.1657 0
M  V30 44 H 1.0767 0.8694 -2.6011 0
M  V30 45 H -1.4895 2.2279 -1.4836 0
M  V30 46 H -1.1368 2.9757 0.057 0
M  V30 47 H 1.6536 3.4791 -2.5713 0
M  V30 48 H -5.0E-4 3.0579 -2.9656 0
M  V30 49 H 0.3216 4.3161 -1.7629 0
M  V30 50 H 3.2359 0.2548 -0.829 0
M  V30 51 H 3.2913 1.2556 -2.2628 0
M  V30 52 H 1.1922 -0.4131 0.1479 0
M  V30 53 H -0.8462 0.7926 1.0938 0
M  V30 54 H -2.3379 0.8323 0.1848 0
M  V30 55 H 3.7684 1.6718 2.5395 0
M  V30 56 H 3.3765 0.5008 1.25 0
M  V30 57 H 5.3387 2.1474 -1.3274 0
M  V30 58 H 6.2517 2.8314 0.0432 0
M  V30 59 H 3.4639 3.8254 1.9223 0
M  V30 60 H 5.2151 3.6582 1.8941 0
M  V30 61 H -1.201 -0.2897 -1.7406 0
M  V30 62 H 2.3705 -1.6022 -1.6529 0
M  V30 63 H 0.9711 -1.4778 -2.7051 0
M  V30 64 H 5.4849 -0.3524 2.0568 0
M  V30 65 H 6.1364 1.2799 2.2847 0
M  V30 66 H 7.0325 0.5751 0.1212 0
M  V30 67 H 5.466 -0.0768 -0.3747 0
M  V30 68 H 5.342 5.0169 -0.2474 0
M  V30 69 H 1.108 -3.7068 -1.7781 0
M  V30 70 H 1.1944 -3.1048 -0.1311 0
M  V30 71 H 3.7222 6.7961 -0.3252 0
M  V30 72 H 2.6612 5.9486 0.9336 0
M  V30 73 H -1.1242 -2.7134 -2.0807 0
M  V30 74 H -3.1698 -1.5496 -1.2474 0
M  V30 75 H -3.3014 -1.0626 0.4374 0
M  V30 76 H -1.3989 -1.2134 1.9779 0
M  V30 77 H -1.1315 -2.9263 1.7285 0
M  V30 78 H 0.1858 -1.8003 1.4779 0
M  V30 79 H -0.917 -5.0442 -1.3671 0
M  V30 80 H -0.9342 -4.5984 0.3125 0
M  V30 81 H -3.2204 -3.4252 1.1818 0
M  V30 82 H -3.1689 -4.2701 -1.7447 0
M  V30 83 H -3.11 -6.263 -0.9028 0
M  V30 84 H -5.2357 -2.9483 2.1608 0
M  V30 85 H -5.3914 -1.4839 1.1709 0
M  V30 86 H -5.1754 -3.3778 -2.033 0
M  V30 87 H -5.3715 -1.7476 -1.3594 0
M  V30 88 H -7.5994 -2.1661 1.9799 0
M  V30 89 H -7.4118 -3.7979 1.3224 0
M  V30 90 H -7.3691 -4.0641 -1.0778 0
M  V30 91 H -7.5408 -2.6168 -2.0813 0
M  V30 END ATOM
M  V30 BEGIN BOND
M  V30 1 2 1 2
M  V30 2 1 2 3
M  V30 3 1 2 4
M  V30 4 1 3 5
M  V30 5 1 5 6
M  V30 6 1 5 7
M  V30 7 1 6 8
M  V30 8 1 6 9
M  V30 9 1 6 10
M  V30 10 1 7 11
M  V30 11 1 7 12
M  V30 12 1 8 13
M  V30 13 1 9 14
M  V30 14 1 11 15
M  V30 15 1 11 16
M  V30 16 1 11 17
M  V30 17 1 13 18
M  V30 18 1 13 19
M  V30 19 1 15 20
M  V30 20 1 16 21
M  V30 21 1 17 22
M  V30 22 1 18 23
M  V30 23 1 19 24
M  V30 24 2 22 25
M  V30 25 1 23 26
M  V30 26 1 23 27
M  V30 27 1 23 28
M  V30 28 1 26 29
M  V30 29 1 27 30
M  V30 30 1 29 31
M  V30 31 1 30 32
M  V30 32 1 31 33
M  V30 33 1 32 34
M  V30 34 1 32 35
M  V30 35 1 34 36
M  V30 36 1 35 37
M  V30 37 1 36 38
M  V30 38 1 8 12
M  V30 39 1 14 18
M  V30 40 1 20 21
M  V30 41 1 24 26
M  V30 42 1 30 31
M  V30 43 1 37 38
M  V30 44 1 4 39
M  V30 45 1 4 40
M  V30 46 1 4 41
M  V30 47 1 5 42
M  V30 48 1 7 43
M  V30 49 1 8 44
M  V30 50 1 9 45
M  V30 51 1 9 46
M  V30 52 1 10 47
M  V30 53 1 10 48
M  V30 54 1 10 49
M  V30 55 1 12 50
M  V30 56 1 12 51
M  V30 57 1 13 52
M  V30 58 1 14 53
M  V30 59 1 14 54
M  V30 60 1 15 55
M  V30 61 1 15 56
M  V30 62 1 16 57
M  V30 63 1 16 58
M  V30 64 1 17 59
M  V30 65 1 17 60
M  V30 66 1 18 61
M  V30 67 1 19 62
M  V30 68 1 19 63
M  V30 69 1 20 64
M  V30 70 1 20 65
M  V30 71 1 21 66
M  V30 72 1 21 67
M  V30 73 1 22 68
M  V30 74 1 24 69
M  V30 75 1 24 70
M  V30 76 1 25 71
M  V30 77 1 25 72
M  V30 78 1 26 73
M  V30 79 1 27 74
M  V30 80 1 27 75
M  V30 81 1 28 76
M  V30 82 1 28 77
M  V30 83 1 28 78
M  V30 84 1 29 79
M  V30 85 1 29 80
M  V30 86 1 30 81
M  V30 87 1 31 82
M  V30 88 1 33 83
M  V30 89 1 34 84
M  V30 90 1 34 85
M  V30 91 1 35 86
M  V30 92 1 35 87
M  V30 93 1 36 88
M  V30 94 1 36 89
M  V30 95 1 37 90
M  V30 96 1 37 91
M  V30 END BOND
M  V30 END CTAB
M  END
>  <Column 1>
3362

>  <level_0>
5586

>  <index>
5587

>  <Unnamed: 0>
5587

>  <NO.>
5599

>  <Name>
[(2s-3s-5s-8r-9s-10s-13s-14s-16s-17r)-3-hydroxy-10-13-dimethyl-2-morpholin-4-yl-16-(1-prop-2-enylpyrrolidin-1-ium-1-yl)-2-3-4-5-6-7-8-9-11-12-14-15-16-17-tetradecahydro-1h-cyclopenta[a]phenanthren-17-yl] acetate

>  <IUPAC_name>
[3-hydroxy-10-13-dimethyl-2-morpholin-4-yl-16-(1-prop-2-enylpyrrolidin-1-ium-1-yl)-2-3-4-5-6-7-8-9-11-12-14-15-16-17-tetradecahydro-1h-cyclopenta[a]phenanthren-17-yl] acetate

>  <SMILES>
C=CC[N+]1(C2CC3C4CCC5CC(O)C(N6CCOCC6)CC5(C)C4CCC3(C)C2OC(C)=O)CCCC1

>  <CID>
4460698

>  <logBB>


>  <BBB+/BBB->
BBB-

>  <Inchi>
InChI=1S/C32H53N2O4/c1-5-14-34(15-6-7-16-34)28-20-26-24-9-8-23-19-29(36)27(33-12-17-37-18-13-33)21-32(23-4)25(24)10-11-31(26-3)30(28)38-22(2)35/h5-23-30-36H-1-6-21H2-2-4H3/q+1

>  <threshold>


>  <reference>
R23|

>  <group>
C

>  <Class>
-1

>  <ABC>
30.54

>  <ABCGG>
23.39

>  <nAcid>
0

>  <nBase>
2

>  <nAromAtom>
0

>  <nAromBond>
0

>  <nAtom>
91

>  <nHeavyAtom>
38

>  <nSpiro>
0

>  <nBridgehead>
0

>  <nHetero>
6

>  <nN>
2

>  <nO>
4

>  <nF>
0

>  <BalabanJ>
1.29

>  <BertzCT>
897.89

>  <nBonds>
96

>  <nBondsO>
43

>  <nBondsS>
94

>  <nBondsD>
2

>  <nBondsT>
0

>  <nBondsA>
0

>  <nBondsM>
2

>  <nBondsKS>
94

>  <nBondsKD>
2

>  <RNCG>
0.17

>  <RPCG>
0.08

>  <FCSP3>
0.91

>  <SZ>
48.5

>  <Sm>
44.11

>  <Sv>
50.73

>  <Sse>
89.68

>  <Sp>
56.4

>  <Si>
103.42

>  <MZ>
0.53

>  <Mm>
0.48

>  <Mv>
0.56

>  <Mse>
0.99

>  <Mp>
0.62

>  <Mi>
1.14

>  <NsCH3>
3

>  <NdCH2>
1

>  <NssCH2>
16

>  <NtCH>
0

>  <NdsCH>
1

>  <NaaCH>
0

>  <NsssCH>
8

>  <NddC>
0

>  <NtsC>
0

>  <NdssC>
1

>  <NaasC>
0

>  <NaaaC>
0

>  <NssssC>
2

>  <NsNH3>
0

>  <NsNH2>
0

>  <NssNH2>
0

>  <NdNH>
0

>  <NssNH>
0

>  <NaaNH>
0

>  <NtN>
0

>  <NsssNH>
0

>  <NdsN>
0

>  <NaaN>
0

>  <NsssN>
1

>  <NddsN>
0

>  <NaasN>
0

>  <NssssN>
1

>  <NsOH>
1

>  <NdO>
1

>  <NssO>
2

>  <NaaO>
0

>  <NsF>
0

>  <NsSiH3>
0

>  <NssSiH2>
0

>  <NsssSiH>
0

>  <NssssSi>
0

>  <NsPH2>
0

>  <NssPH>
0

>  <NsssP>
0

>  <NdsssP>
0

>  <NsssssP>
0

>  <NsSH>
0

>  <NdS>
0

>  <NssS>
0

>  <NaaS>
0

>  <NdssS>
0

>  <NddssS>
0

>  <NsCl>
0

>  <NsBr>
0

>  <NsI>
0

>  <fragCpx>
443.06

>  <fMF>
0.31

>  <nHBAcc>
5

>  <nHBDon>
1

>  <Kier1>
28.14

>  <Kier2>
10.68

>  <Lipinski>
0

>  <GhoseFilter>
0

>  <FilterItLogS>
-4.99

>  <VMcGowan>
433.57

>  <LabuteASA>
230.24

>  <PEOE_VSA1>
19.06

>  <PEOE_VSA2>
9.69

>  <PEOE_VSA3>
0

>  <PEOE_VSA4>
0

>  <PEOE_VSA5>
0

>  <PEOE_VSA6>
20.43

>  <PEOE_VSA7>
73.69

>  <PEOE_VSA8>
50.73

>  <PEOE_VSA9>
38.95

>  <PEOE_VSA10>
6.04

>  <PEOE_VSA11>
6.1

>  <PEOE_VSA12>
0

>  <PEOE_VSA13>
0

>  <SMR_VSA1>
23.86

>  <SMR_VSA2>
0

>  <SMR_VSA3>
4.9

>  <SMR_VSA4>
34.5

>  <SMR_VSA5>
102.85

>  <SMR_VSA6>
45.94

>  <SMR_VSA7>
12.65

>  <SMR_VSA8>
0

>  <SMR_VSA9>
0

>  <SlogP_VSA1>
0

>  <SlogP_VSA2>
90.69

>  <SlogP_VSA3>
14.27

>  <SlogP_VSA4>
34.5

>  <SlogP_VSA5>
78.56

>  <SlogP_VSA6>
12.65

>  <SlogP_VSA7>
0

>  <SlogP_VSA8>
0

>  <SlogP_VSA9>
0

>  <SlogP_VSA10>
0

>  <SlogP_VSA11>
0

>  <EState_VSA1>
0

>  <EState_VSA2>
35.05

>  <EState_VSA3>
29.71

>  <EState_VSA4>
56.59

>  <EState_VSA5>
51.61

>  <EState_VSA6>
6.92

>  <EState_VSA7>
0

>  <EState_VSA8>
31.4

>  <EState_VSA9>
9.47

>  <EState_VSA10>
9.9

>  <VSA_EState1>
13.09

>  <VSA_EState2>
15.02

>  <VSA_EState3>
11.27

>  <VSA_EState4>
0.34

>  <VSA_EState5>
2.54

>  <VSA_EState6>
0.66

>  <VSA_EState7>
12.67

>  <VSA_EState8>
17.73

>  <VSA_EState9>
0

>  <apol>
94.19

>  <bpol>
61.5

>  <nRing>
6

>  <nHRing>
2

>  <naRing>
0

>  <naHRing>
0

>  <nARing 2>
6

>  <nAHRing 2>
2

>  <nFRing>
1

>  <nFHRing>
0

>  <nFaRing>
0

>  <nFaHRing>
0

>  <nFARing 2>
1

>  <nFAHRing 2>
0

>  <nRot>
5

>  <SLogP>
4.41

>  <SMR>
148.31

>  <TopoPSA(NO)>
59

>  <TopoPSA>
59

>  <JGI1>
0.23

>  <JGI2>
0.11

>  <JGI3>
0.06

>  <JGI4>
0.05

>  <JGI5>
0.03

>  <Diameter>
15

>  <Radius>
8

>  <TMWC10>
163.77

>  <TSRW10>
92.26

>  <MW>
529.4

>  <AMW>
5.82

>  <WPath>
4206

>  <WPol>
77

>  <Zagreb1>
220

>  <Zagreb2>
276

>  <mZagreb2>
8.1

>  <yes>


>  <nAR-cont>
0

>  <nHA-cont>
0.390024847

>  <MWHBN>
0.260770994

>  <MWHBN-cont>
0.939876472

>  <TPSA-cont>
0.588143363

>  <pka_cont>
0.97

>  <yes.1>


>  <BBB_SCORE>
3.461126281

>  <MMFF94 Energy>
187.48

$$$$
Compound 2680
Actelion Java MolfileCreator 2.0

  0  0  0  0  0  0              0 V3000
M  V30 BEGIN CTAB
M  V30 COUNTS 97 102 0 0 0
M  V30 BEGIN ATOM
M  V30 1 O -2.6285 3.5058 6.3013 0
M  V30 2 C -2.5859 2.316 6.579 0
M  V30 3 O -3.0203 1.7553 7.7331 0
M  V30 4 C -2.0438 1.3008 5.6443 0
M  V30 5 C -3.5431 2.6927 8.6753 0
M  V30 6 C -1.9461 -0.0093 5.9521 0
M  V30 7 C -1.5763 1.824 4.2875 0
M  V30 8 C -1.2937 -0.9241 5.0349 0
M  V30 9 C -0.1621 2.3727 4.4694 0
M  V30 10 C -1.679 0.7223 3.2068 0
M  V30 11 C -1.1494 -0.5832 3.7427 0
M  V30 12 O 0.7059 1.8862 5.1813 0
M  V30 13 O 0.0059 3.4913 3.7053 0
M  V30 14 C -0.7636 0.8041 1.9894 0
M  V30 15 C -3.1307 0.5492 2.7162 0
M  V30 16 C -0.315 -1.1884 2.726 0
M  V30 17 C 1.307 4.0741 3.8052 0
M  V30 18 N -0.0388 -0.2514 1.7466 0
M  V30 19 C -0.8195 2.0333 1.1491 0
M  V30 20 C 0.0865 -2.471 2.7617 0
M  V30 21 C -0.4121 2.1058 -0.1216 0
M  V30 22 C 0.9333 -3.1274 1.8287 0
M  V30 23 N 0.1347 1.1394 -0.9157 0
M  V30 24 C -0.5135 3.294 -0.9787 0
M  V30 25 N 1.6207 -2.4013 0.8919 0
M  V30 26 C 1.2754 -4.4637 1.6574 0
M  V30 27 C 0.3764 1.5719 -2.1972 0
M  V30 28 C -0.0556 2.9754 -2.2135 0
M  V30 29 C -1.0396 4.603 -0.4963 0
M  V30 30 C 2.4211 -3.2223 0.1314 0
M  V30 31 C 2.2379 -4.5126 0.5981 0
M  V30 32 C 0.731 -5.6153 2.432 0
M  V30 33 C 0.8879 0.8902 -3.2351 0
M  V30 34 C 0.0082 3.8559 -3.4251 0
M  V30 35 C 3.2953 -2.6643 -0.947 0
M  V30 36 C 2.9113 -5.6499 0.0557 0
M  V30 37 C 1.3533 -0.4413 -3.1067 0
M  V30 38 C 1.4022 4.4464 -3.6281 0
M  V30 39 C 2.4892 -2.0718 -2.0581 0
M  V30 40 C 3.3909 -6.685 0.7576 0
M  V30 41 N 2.2139 -0.7309 -2.0805 0
M  V30 42 C 1.1737 -1.5965 -3.8476 0
M  V30 43 C 1.4392 5.3346 -4.8393 0
M  V30 44 C 1.8875 -2.6438 -3.1698 0
M  V30 45 C 0.3337 -1.7334 -5.0807 0
M  V30 46 O 0.5281 5.5736 -5.6126 0
M  V30 47 O 2.6544 5.8885 -5.0193 0
M  V30 48 C 1.9346 -4.0848 -3.5444 0
M  V30 49 C -1.0876 -2.1649 -4.7542 0
M  V30 50 C -1.8847 -2.2641 -6.0229 0
M  V30 51 O -1.9354 -3.264 -6.7266 0
M  V30 52 O -2.5042 -1.0817 -6.2918 0
M  V30 53 C -3.2708 -1.0884 -7.4965 0
M  V30 54 H -3.8519 2.1403 9.5672 0
M  V30 55 H -2.774 3.4158 8.9648 0
M  V30 56 H -4.4196 3.2022 8.2625 0
M  V30 57 H -2.2522 -0.409 6.9153 0
M  V30 58 H -2.2214 2.6622 3.9899 0
M  V30 59 H -0.8468 -1.8182 5.459 0
M  V30 60 H -3.2074 -0.2139 1.9318 0
M  V30 61 H -3.8065 0.2556 3.5271 0
M  V30 62 H -3.512 1.4841 2.2893 0
M  V30 63 H 1.3325 4.9556 3.1585 0
M  V30 64 H 1.5068 4.3917 4.8334 0
M  V30 65 H 2.0693 3.369 3.4594 0
M  V30 66 H -1.2818 2.8967 1.6118 0
M  V30 67 H -0.2534 -3.0923 3.5855 0
M  V30 68 H 0.1971 0.1721 -0.6225 0
M  V30 69 H 1.5301 -1.3975 0.7916 0
M  V30 70 H -0.4706 4.9496 0.3731 0
M  V30 71 H -0.9699 5.3866 -1.2558 0
M  V30 72 H -2.0927 4.5128 -0.2099 0
M  V30 73 H -0.2633 -5.3938 2.8327 0
M  V30 74 H 0.6289 -6.5042 1.8017 0
M  V30 75 H 1.3916 -5.8535 3.2716 0
M  V30 76 H 0.9593 1.3418 -4.2189 0
M  V30 77 H -0.7218 4.6702 -3.3399 0
M  V30 78 H -0.3069 3.2967 -4.3152 0
M  V30 79 H 3.955 -1.9017 -0.5122 0
M  V30 80 H 3.9598 -3.436 -1.3511 0
M  V30 81 H 3.0747 -5.6556 -1.0195 0
M  V30 82 H 1.6862 5.0464 -2.7556 0
M  V30 83 H 2.1421 3.6508 -3.7679 0
M  V30 84 H 3.3056 -6.7365 1.8373 0
M  V30 85 H 3.9037 -7.4992 0.2567 0
M  V30 86 H 2.5314 -0.0576 -1.3947 0
M  V30 87 H 0.7981 -2.4503 -5.769 0
M  V30 88 H 0.3182 -0.7796 -5.6241 0
M  V30 89 H 2.5551 6.4311 -5.8298 0
M  V30 90 H 1.2268 -4.6552 -2.9344 0
M  V30 91 H 2.9372 -4.4951 -3.3877 0
M  V30 92 H 1.6795 -4.2393 -4.5964 0
M  V30 93 H -1.1094 -3.1429 -4.2588 0
M  V30 94 H -1.5785 -1.4641 -4.0679 0
M  V30 95 H -3.7299 -0.1024 -7.6115 0
M  V30 96 H -2.6246 -1.2724 -8.3605 0
M  V30 97 H -4.0676 -1.8368 -7.4406 0
M  V30 END ATOM
M  V30 BEGIN BOND
M  V30 1 2 1 2
M  V30 2 1 2 3
M  V30 3 1 2 4
M  V30 4 1 3 5
M  V30 5 2 4 6
M  V30 6 1 4 7
M  V30 7 1 6 8
M  V30 8 1 7 9
M  V30 9 1 7 10
M  V30 10 2 8 11
M  V30 11 2 9 12
M  V30 12 1 9 13
M  V30 13 1 10 14
M  V30 14 1 10 15
M  V30 15 1 11 16
M  V30 16 1 13 17
M  V30 17 2 14 18
M  V30 18 1 14 19
M  V30 19 2 16 20
M  V30 20 2 19 21
M  V30 21 1 20 22
M  V30 22 1 21 23
M  V30 23 1 21 24
M  V30 24 1 22 25
M  V30 25 2 22 26
M  V30 26 1 23 27
M  V30 27 2 24 28
M  V30 28 1 24 29
M  V30 29 1 25 30
M  V30 30 1 26 31
M  V30 31 1 26 32
M  V30 32 2 27 33
M  V30 33 1 28 34
M  V30 34 1 30 35
M  V30 35 1 31 36
M  V30 36 1 33 37
M  V30 37 1 34 38
M  V30 38 1 35 39
M  V30 39 2 36 40
M  V30 40 1 37 41
M  V30 41 2 37 42
M  V30 42 1 38 43
M  V30 43 2 39 44
M  V30 44 1 42 45
M  V30 45 2 43 46
M  V30 46 1 43 47
M  V30 47 1 44 48
M  V30 48 1 45 49
M  V30 49 1 49 50
M  V30 50 2 50 51
M  V30 51 1 50 52
M  V30 52 1 52 53
M  V30 53 1 10 11
M  V30 54 1 16 18
M  V30 55 1 27 28
M  V30 56 2 30 31
M  V30 57 1 39 41
M  V30 58 1 42 44
M  V30 59 1 5 54
M  V30 60 1 5 55
M  V30 61 1 5 56
M  V30 62 1 6 57
M  V30 63 1 7 58
M  V30 64 1 8 59
M  V30 65 1 15 60
M  V30 66 1 15 61
M  V30 67 1 15 62
M  V30 68 1 17 63
M  V30 69 1 17 64
M  V30 70 1 17 65
M  V30 71 1 19 66
M  V30 72 1 20 67
M  V30 73 1 23 68
M  V30 74 1 25 69
M  V30 75 1 29 70
M  V30 76 1 29 71
M  V30 77 1 29 72
M  V30 78 1 32 73
M  V30 79 1 32 74
M  V30 80 1 32 75
M  V30 81 1 33 76
M  V30 82 1 34 77
M  V30 83 1 34 78
M  V30 84 1 35 79
M  V30 85 1 35 80
M  V30 86 1 36 81
M  V30 87 1 38 82
M  V30 88 1 38 83
M  V30 89 1 40 84
M  V30 90 1 40 85
M  V30 91 1 41 86
M  V30 92 1 45 87
M  V30 93 1 45 88
M  V30 94 1 47 89
M  V30 95 1 48 90
M  V30 96 1 48 91
M  V30 97 1 48 92
M  V30 98 1 49 93
M  V30 99 1 49 94
M  V30 100 1 53 95
M  V30 101 1 53 96
M  V30 102 1 53 97
M  V30 END BOND
M  V30 END CTAB
M  END
>  <Column 1>
3363

>  <level_0>
5587

>  <index>
5588

>  <Unnamed: 0>
5588

>  <NO.>
5600

>  <Name>
verteporfin

>  <IUPAC_name>
3-[14-ethenyl-22-23-bis(methoxycarbonyl)-9-(3-methoxy-3-oxopropyl)-4-10-15-24-tetramethyl-25-26-27-28-tetrazahexacyclo[16.6.1.13-6.18-11.113-16.019-24]octacosa-1(25)-2-4-6-8-10-13-15-17-19-21-undecaen-5-yl]propanoic acid

>  <SMILES>
C=Cc1c2[nH]c(c1C)C=C1N=C(C=c3[nH]c(c(CCC(=O)O)c3C)=Cc3[nH]c(c(C)c3CCC(=O)OC)C2)C2(C)C1=CC=C(C(=O)OC)C2C(=O)OC

>  <CID>
139031006

>  <logBB>


>  <BBB+/BBB->
BBB-

>  <Inchi>
InChI=1S/C41H44N4O8/c1-9-23-20(2)29-17-34-27-13-10-26(39(49)52-7)38(40(50)53-8)41(27-5)35(45-34)19-30-22(4)24(11-14-36(46)47)32(44-30)18-33-25(12-15-37(48)51-6)21(3)28(43-33)16-31(23)42-29/h9-10-13-17-19-38-42-44H-1-11-12-14-16H2-2-8H3-(H-46-47)

>  <threshold>


>  <reference>
R23|

>  <group>
C

>  <Class>
-1

>  <ABC>
41.34

>  <ABCGG>
30.3

>  <nAcid>
1

>  <nBase>
0

>  <nAromAtom>
15

>  <nAromBond>
15

>  <nAtom>
97

>  <nHeavyAtom>
53

>  <nSpiro>
0

>  <nBridgehead>
8

>  <nHetero>
12

>  <nN>
4

>  <nO>
8

>  <nF>
0

>  <BalabanJ>
1.39

>  <BertzCT>
2340.11

>  <nBonds>
102

>  <nBondsO>
58

>  <nBondsS>
76

>  <nBondsD>
11

>  <nBondsT>
0

>  <nBondsA>
15

>  <nBondsM>
26

>  <nBondsKS>
86

>  <nBondsKD>
16

>  <RNCG>
0.1

>  <RPCG>
0.07

>  <FCSP3>
0.34

>  <SZ>
63.67

>  <Sm>
60.01

>  <Sv>
61.67

>  <Sse>
97.83

>  <Sp>
65.04

>  <Si>
108.97

>  <MZ>
0.66

>  <Mm>
0.62

>  <Mv>
0.64

>  <Mse>
1.01

>  <Mp>
0.67

>  <Mi>
1.12

>  <NsCH3>
7

>  <NdCH2>
1

>  <NssCH2>
5

>  <NtCH>
0

>  <NdsCH>
6

>  <NaaCH>
0

>  <NsssCH>
1

>  <NddC>
0

>  <NtsC>
0

>  <NdssC>
8

>  <NaasC>
10

>  <NaaaC>
0

>  <NssssC>
1

>  <NsNH3>
0

>  <NsNH2>
0

>  <NssNH2>
0

>  <NdNH>
0

>  <NssNH>
0

>  <NaaNH>
3

>  <NtN>
0

>  <NsssNH>
0

>  <NdsN>
1

>  <NaaN>
0

>  <NsssN>
0

>  <NddsN>
0

>  <NaasN>
0

>  <NssssN>
0

>  <NsOH>
1

>  <NdO>
4

>  <NssO>
3

>  <NaaO>
0

>  <NsF>
0

>  <NsSiH3>
0

>  <NssSiH2>
0

>  <NsssSiH>
0

>  <NssssSi>
0

>  <NsPH2>
0

>  <NssPH>
0

>  <NsssP>
0

>  <NdsssP>
0

>  <NsssssP>
0

>  <NsSH>
0

>  <NdS>
0

>  <NssS>
0

>  <NaaS>
0

>  <NdssS>
0

>  <NddssS>
0

>  <NsCl>
0

>  <NsBr>
0

>  <NsI>
0

>  <fragCpx>
608.12

>  <fMF>
0.29

>  <nHBAcc>
8

>  <nHBDon>
4

>  <Kier1>
42.6

>  <Kier2>
17.87

>  <Lipinski>
0

>  <GhoseFilter>
0

>  <FilterItLogS>
-9.71

>  <VMcGowan>
541.47

>  <LabuteASA>
306.28

>  <PEOE_VSA1>
34.27

>  <PEOE_VSA2>
19.38

>  <PEOE_VSA3>
4.79

>  <PEOE_VSA4>
0

>  <PEOE_VSA5>
0

>  <PEOE_VSA6>
24.81

>  <PEOE_VSA7>
97.72

>  <PEOE_VSA8>
52.74

>  <PEOE_VSA9>
43.73

>  <PEOE_VSA10>
5.92

>  <PEOE_VSA11>
0

>  <PEOE_VSA12>
0

>  <PEOE_VSA13>
0

>  <SMR_VSA1>
38.5

>  <SMR_VSA2>
0

>  <SMR_VSA3>
14.95

>  <SMR_VSA4>
16.33

>  <SMR_VSA5>
59.8

>  <SMR_VSA6>
21.33

>  <SMR_VSA7>
102.43

>  <SMR_VSA8>
0

>  <SMR_VSA9>
0

>  <SlogP_VSA1>
10.7

>  <SlogP_VSA2>
70.98

>  <SlogP_VSA3>
52.65

>  <SlogP_VSA4>
32.1

>  <SlogP_VSA5>
75.92

>  <SlogP_VSA6>
40.57

>  <SlogP_VSA7>
0

>  <SlogP_VSA8>
24.3

>  <SlogP_VSA9>
0

>  <SlogP_VSA10>
0

>  <SlogP_VSA11>
0

>  <EState_VSA1>
29.24

>  <EState_VSA2>
30.8

>  <EState_VSA3>
40.52

>  <EState_VSA4>
56.16

>  <EState_VSA5>
21.33

>  <EState_VSA6>
6.08

>  <EState_VSA7>
58.08

>  <EState_VSA8>
21.53

>  <EState_VSA9>
19.2

>  <EState_VSA10>
24.28

>  <VSA_EState1>
15.38

>  <VSA_EState2>
66.84

>  <VSA_EState3>
11.04

>  <VSA_EState4>
9.69

>  <VSA_EState5>
-3.62

>  <VSA_EState6>
0

>  <VSA_EState7>
12.24

>  <VSA_EState8>
11.93

>  <VSA_EState9>
3.92

>  <apol>
108.62

>  <bpol>
55.67

>  <nRing>
6

>  <nHRing>
5

>  <naRing>
3

>  <naHRing>
3

>  <nARing 2>
3

>  <nAHRing 2>
2

>  <nFRing>
1

>  <nFHRing>
1

>  <nFaRing>
0

>  <nFaHRing>
0

>  <nFARing 2>
1

>  <nFAHRing 2>
1

>  <nRot>
9

>  <SLogP>
4.21

>  <SMR>
200.27

>  <TopoPSA(NO)>
175.93

>  <TopoPSA>
175.93

>  <JGI1>
0.22

>  <JGI2>
0.1

>  <JGI3>
0.07

>  <JGI4>
0.04

>  <JGI5>
0.03

>  <Diameter>
18

>  <Radius>
10

>  <TMWC10>
195.43

>  <TSRW10>
110.47

>  <MW>
720.32

>  <AMW>
7.43

>  <WPath>
9862

>  <WPol>
102

>  <Zagreb1>
290

>  <Zagreb2>
357

>  <mZagreb2>
11.69

>  <yes>


>  <nAR-cont>
0.691115

>  <nHA-cont>
0

>  <MWHBN>
0.447114248

>  <MWHBN-cont>
0.29629165

>  <TPSA-cont>
0

>  <pka_cont>
0.97

>  <yes.1>


>  <BBB_SCORE>
1.620552475

>  <MMFF94 Energy>
-20.634

$$$$
Compound 2681
Actelion Java MolfileCreator 2.0

  0  0  0  0  0  0              0 V3000
M  V30 BEGIN CTAB
M  V30 COUNTS 58 62 0 0 0
M  V30 BEGIN ATOM
M  V30 1 O 4.9588 -2.557 -1.0382 0
M  V30 2 C 4.0825 -2.9208 -1.8139 0
M  V30 3 N 3.3669 -2.0588 -2.6087 0
M  V30 4 C 3.7926 -4.3356 -1.9197 0
M  V30 5 C 3.5932 -0.6216 -2.5835 0 CFG=2
M  V30 6 C 2.4007 -2.4431 -3.6246 0
M  V30 7 C 3.5542 -5.5108 -2.0044 0
M  V30 8 C 2.8714 -0.0149 -1.4103 0
M  V30 9 C 3.0174 -0.1501 -3.9244 0
M  V30 10 C 1.8834 -1.1347 -4.2036 0
M  V30 11 C 3.2699 -6.9418 -2.0977 0
M  V30 12 N 1.5662 0.1928 -1.3279 0
M  V30 13 N 3.5032 0.4248 -0.2615 0
M  V30 14 C 1.3538 0.8139 -0.1215 0
M  V30 15 C 2.5334 0.9365 0.5777 0
M  V30 16 C 4.8293 0.4368 0.1323 0
M  V30 17 C 0.0341 1.2418 0.2867 0
M  V30 18 C 2.9303 1.4355 1.8755 0
M  V30 19 C 5.1327 0.9469 1.3344 0
M  V30 20 C -1.0098 0.3106 0.3288 0
M  V30 21 C -0.2286 2.5835 0.5857 0
M  V30 22 N 4.1991 1.4501 2.2155 0
M  V30 23 N 2.0656 1.8936 2.8177 0
M  V30 24 C -2.2987 0.7053 0.703 0
M  V30 25 C -1.5149 2.981 0.962 0
M  V30 26 C -2.5525 2.0419 1.038 0
M  V30 27 C -3.9096 2.5161 1.4404 0
M  V30 28 O -4.2197 3.6758 1.1935 0
M  V30 29 N -4.6819 1.5895 2.099 0
M  V30 30 C -5.9876 1.7327 2.5693 0
M  V30 31 N -6.4178 0.6617 3.2727 0
M  V30 32 C -6.7873 2.842 2.3344 0
M  V30 33 C -7.6764 0.7046 3.7643 0
M  V30 34 C -8.0817 2.8584 2.8526 0
M  V30 35 C -8.5386 1.7706 3.5836 0
M  V30 36 H 4.6663 -0.4118 -2.5411 0
M  V30 37 H 1.6038 -3.0525 -3.1877 0
M  V30 38 H 2.9226 -3.0352 -4.3843 0
M  V30 39 H 2.6808 0.8912 -3.9236 0
M  V30 40 H 3.7789 -0.2587 -4.7072 0
M  V30 41 H 1.6463 -1.2148 -5.2683 0
M  V30 42 H 0.9704 -0.8249 -3.6831 0
M  V30 43 H 2.9355 -7.336 -1.1334 0
M  V30 44 H 2.4841 -7.135 -2.8341 0
M  V30 45 H 4.1626 -7.4971 -2.4003 0
M  V30 46 H 5.578 0.0218 -0.5276 0
M  V30 47 H 6.1631 0.9627 1.6794 0
M  V30 48 H -0.8215 -0.7259 0.0535 0
M  V30 49 H 0.5606 3.3297 0.5154 0
M  V30 50 H 1.065 1.8154 2.7267 0
M  V30 51 H 2.4583 2.1884 3.7009 0
M  V30 52 H -3.0921 -0.0369 0.6912 0
M  V30 53 H -1.7082 4.0285 1.1877 0
M  V30 54 H -4.2938 0.6949 2.3596 0
M  V30 55 H -6.4405 3.6923 1.7599 0
M  V30 56 H -7.9834 -0.1723 4.3269 0
M  V30 57 H -8.7244 3.7176 2.6823 0
M  V30 58 H -9.5395 1.754 3.9996 0
M  V30 END ATOM
M  V30 BEGIN BOND
M  V30 1 2 1 2
M  V30 2 1 2 3
M  V30 3 1 2 4
M  V30 4 1 3 5
M  V30 5 1 3 6
M  V30 6 3 4 7
M  V30 7 1 5 8
M  V30 8 1 5 9
M  V30 9 1 6 10
M  V30 10 1 7 11
M  V30 11 2 8 12
M  V30 12 1 8 13
M  V30 13 1 12 14
M  V30 14 1 13 15
M  V30 15 1 13 16
M  V30 16 1 14 17
M  V30 17 1 15 18
M  V30 18 2 16 19
M  V30 19 2 17 20
M  V30 20 1 17 21
M  V30 21 2 18 22
M  V30 22 1 18 23
M  V30 23 1 20 24
M  V30 24 2 21 25
M  V30 25 2 24 26
M  V30 26 1 26 27
M  V30 27 2 27 28
M  V30 28 1 27 29
M  V30 29 1 29 30
M  V30 30 2 30 31
M  V30 31 1 30 32
M  V30 32 1 31 33
M  V30 33 2 32 34
M  V30 34 2 33 35
M  V30 35 1 9 10
M  V30 36 2 14 15
M  V30 37 1 19 22
M  V30 38 1 25 26
M  V30 39 1 34 35
M  V30 40 1 5 36
M  V30 41 1 6 37
M  V30 42 1 6 38
M  V30 43 1 9 39
M  V30 44 1 9 40
M  V30 45 1 10 41
M  V30 46 1 10 42
M  V30 47 1 11 43
M  V30 48 1 11 44
M  V30 49 1 11 45
M  V30 50 1 16 46
M  V30 51 1 19 47
M  V30 52 1 20 48
M  V30 53 1 21 49
M  V30 54 1 23 50
M  V30 55 1 23 51
M  V30 56 1 24 52
M  V30 57 1 25 53
M  V30 58 1 29 54
M  V30 59 1 32 55
M  V30 60 1 33 56
M  V30 61 1 34 57
M  V30 62 1 35 58
M  V30 END BOND
M  V30 BEGIN COLLECTION
M  V30 MDLV30/STEABS ATOMS=(1 5)
M  V30 END COLLECTION
M  V30 END CTAB
M  END
>  <Column 1>
3364

>  <level_0>
5588

>  <index>
5589

>  <Unnamed: 0>
5589

>  <NO.>
5601

>  <Name>
acalabrutinib

>  <IUPAC_name>
4-[8-amino-3-[(2s)-1-but-2-ynoylpyrrolidin-2-yl]imidazo[1-5-a]pyrazin-1-yl]-n-pyridin-2-ylbenzamide

>  <SMILES>
CC#CC(=O)N1CCC[C@H]1c1nc(-c2ccc(C(=O)Nc3ccccn3)cc2)c2c(N)nccn12

>  <CID>
71226662

>  <logBB>


>  <BBB+/BBB->
BBB-

>  <Inchi>
InChI=1S/C26H23N7O2/c1-2-6-21(34)32-15-5-7-19(32)25-31-22(23-24(27)29-14-16-33(23)25)17-9-11-18(12-10-17)26(35)30-20-8-3-4-13-28-20/h3-4-8-14-16-19H-5-7-15H2-1H3-(H2-27-29)(H-28-30-35)/t19-/m0/s1

>  <threshold>


>  <reference>
R23|

>  <group>
C

>  <Class>
-1

>  <ABC>
27.54

>  <ABCGG>
20.91

>  <nAcid>
0

>  <nBase>
0

>  <nAromAtom>
21

>  <nAromBond>
22

>  <nAtom>
58

>  <nHeavyAtom>
35

>  <nSpiro>
0

>  <nBridgehead>
0

>  <nHetero>
9

>  <nN>
7

>  <nO>
2

>  <nF>
0

>  <BalabanJ>
1.21

>  <BertzCT>
1466.86

>  <nBonds>
62

>  <nBondsO>
39

>  <nBondsS>
37

>  <nBondsD>
2

>  <nBondsT>
1

>  <nBondsA>
22

>  <nBondsM>
25

>  <nBondsKS>
49

>  <nBondsKD>
12

>  <RNCG>
0.13

>  <RPCG>
0.1

>  <FCSP3>
0.19

>  <SZ>
40.67

>  <Sm>
38.76

>  <Sv>
38.97

>  <Sse>
58.51

>  <Sp>
40.75

>  <Si>
65.23

>  <MZ>
0.7

>  <Mm>
0.67

>  <Mv>
0.67

>  <Mse>
1.01

>  <Mp>
0.7

>  <Mi>
1.12

>  <NsCH3>
1

>  <NdCH2>
0

>  <NssCH2>
3

>  <NtCH>
0

>  <NdsCH>
0

>  <NaaCH>
10

>  <NsssCH>
1

>  <NddC>
0

>  <NtsC>
2

>  <NdssC>
2

>  <NaasC>
6

>  <NaaaC>
1

>  <NssssC>
0

>  <NsNH3>
0

>  <NsNH2>
1

>  <NssNH2>
0

>  <NdNH>
0

>  <NssNH>
1

>  <NaaNH>
0

>  <NtN>
0

>  <NsssNH>
0

>  <NdsN>
0

>  <NaaN>
3

>  <NsssN>
1

>  <NddsN>
0

>  <NaasN>
1

>  <NssssN>
0

>  <NsOH>
0

>  <NdO>
2

>  <NssO>
0

>  <NaaO>
0

>  <NsF>
0

>  <NsSiH3>
0

>  <NssSiH2>
0

>  <NsssSiH>
0

>  <NssssSi>
0

>  <NsPH2>
0

>  <NssPH>
0

>  <NsssP>
0

>  <NdsssP>
0

>  <NsssssP>
0

>  <NsSH>
0

>  <NdS>
0

>  <NssS>
0

>  <NaaS>
0

>  <NdssS>
0

>  <NddssS>
0

>  <NsCl>
0

>  <NsBr>
0

>  <NsI>
0

>  <fragCpx>
331.09

>  <fMF>
0.48

>  <nHBAcc>
7

>  <nHBDon>
2

>  <Kier1>
26.6

>  <Kier2>
12.24

>  <Lipinski>
1

>  <GhoseFilter>
0

>  <FilterItLogS>
-5

>  <VMcGowan>
344.3

>  <LabuteASA>
201.57

>  <PEOE_VSA1>
15.95

>  <PEOE_VSA2>
13.99

>  <PEOE_VSA3>
14.95

>  <PEOE_VSA4>
0

>  <PEOE_VSA5>
0

>  <PEOE_VSA6>
24.12

>  <PEOE_VSA7>
49.95

>  <PEOE_VSA8>
36.26

>  <PEOE_VSA9>
6.04

>  <PEOE_VSA10>
28.67

>  <PEOE_VSA11>
0

>  <PEOE_VSA12>
0

>  <PEOE_VSA13>
11.81

>  <SMR_VSA1>
9.59

>  <SMR_VSA2>
0

>  <SMR_VSA3>
24.25

>  <SMR_VSA4>
0

>  <SMR_VSA5>
25.81

>  <SMR_VSA6>
17.6

>  <SMR_VSA7>
72.44

>  <SMR_VSA8>
0

>  <SMR_VSA9>
23.1

>  <SlogP_VSA1>
11.05

>  <SlogP_VSA2>
42.61

>  <SlogP_VSA3>
4.79

>  <SlogP_VSA4>
11.84

>  <SlogP_VSA5>
41.99

>  <SlogP_VSA6>
61.06

>  <SlogP_VSA7>
0

>  <SlogP_VSA8>
16.77

>  <SlogP_VSA9>
0

>  <SlogP_VSA10>
11.64

>  <SlogP_VSA11>
0

>  <EState_VSA1>
0

>  <EState_VSA2>
17.86

>  <EState_VSA3>
40.78

>  <EState_VSA4>
18.41

>  <EState_VSA5>
0

>  <EState_VSA6>
60.75

>  <EState_VSA7>
16.53

>  <EState_VSA8>
27.13

>  <EState_VSA9>
10.72

>  <EState_VSA10>
9.59

>  <VSA_EState1>
1.9

>  <VSA_EState2>
40.25

>  <VSA_EState3>
2.77

>  <VSA_EState4>
8.84

>  <VSA_EState5>
6.39

>  <VSA_EState6>
12.21

>  <VSA_EState7>
6.69

>  <VSA_EState8>
2.28

>  <VSA_EState9>
0

>  <apol>
68.06

>  <bpol>
31.65

>  <nRing>
5

>  <nHRing>
4

>  <naRing>
4

>  <naHRing>
3

>  <nARing 2>
1

>  <nAHRing 2>
1

>  <nFRing>
1

>  <nFHRing>
1

>  <nFaRing>
1

>  <nFaHRing>
1

>  <nFARing 2>
0

>  <nFAHRing 2>
0

>  <nRot>
4

>  <SLogP>
3.31

>  <SMR>
132.16

>  <TopoPSA(NO)>
118.51

>  <TopoPSA>
118.51

>  <JGI1>
0.14

>  <JGI2>
0.08

>  <JGI3>
0.04

>  <JGI4>
0.04

>  <JGI5>
0.02

>  <Diameter>
18

>  <Radius>
9

>  <TMWC10>
153.5

>  <TSRW10>
87.7

>  <MW>
465.19

>  <AMW>
8.02

>  <WPath>
3944

>  <WPol>
58

>  <Zagreb1>
188

>  <Zagreb2>
226

>  <mZagreb2>
7.75

>  <yes>


>  <nAR-cont>
0.816016

>  <nHA-cont>
0.523063577

>  <MWHBN>
0.417279764

>  <MWHBN-cont>
0.408482837

>  <TPSA-cont>
0.17272661

>  <pka_cont>
0.97

>  <yes.1>


>  <BBB_SCORE>
2.782257053

>  <MMFF94 Energy>
-61.697

$$$$
Compound 2682
Actelion Java MolfileCreator 2.0

  0  0  0  0  0  0              0 V3000
M  V30 BEGIN CTAB
M  V30 COUNTS 73 75 0 0 0
M  V30 BEGIN ATOM
M  V30 1 O -0.7135 0.3963 -2.4593 0
M  V30 2 C -0.9969 1.4331 -1.8757 0
M  V30 3 O -2.2626 1.8834 -1.6652 0
M  V30 4 C -0.009 2.4002 -1.2702 0
M  V30 5 C -3.2753 0.9921 -2.1336 0
M  V30 6 C 1.4299 1.9081 -1.4156 0
M  V30 7 C -4.66 1.5017 -1.7545 0
M  V30 8 C 2.4057 2.8471 -0.7084 0
M  V30 9 O -4.8434 2.5871 -1.2034 0
M  V30 10 C -5.8414 0.6411 -2.0729 0
M  V30 11 C 3.826 2.3767 -0.8452 0
M  V30 12 C -7.1153 1.0956 -1.7011 0
M  V30 13 C -5.72 -0.5935 -2.7238 0
M  V30 14 C 4.4992 1.6521 0.0628 0
M  V30 15 C -8.2492 0.3279 -1.9733 0
M  V30 16 C -6.8582 -1.3592 -2.9942 0
M  V30 17 C 3.9508 1.0723 1.3347 0
M  V30 18 C 5.9203 1.1876 -0.1083 0
M  V30 19 C -8.1196 -0.8991 -2.6194 0
M  V30 20 C 4.6398 -0.2834 1.4081 0
M  V30 21 C 5.9882 -0.1324 0.6676 0
M  V30 22 C 3.9161 -1.415 0.6522 0
M  V30 23 C 6.1265 -1.3807 -0.2264 0
M  V30 24 C 2.808 -2.0498 1.4482 0
M  V30 25 C 5.0739 -2.3574 0.295 0
M  V30 26 C 1.5415 -2.1406 1.0091 0
M  V30 27 O 5.5853 -3.0204 1.4507 0
M  V30 28 C 0.4113 -2.7491 1.7861 0
M  V30 29 O -0.1564 -3.757 0.9532 0
M  V30 30 C -0.6876 -1.7457 2.2103 0
M  V30 31 C -1.3243 -1.0342 0.999 0
M  V30 32 C -0.1403 -0.7364 3.2291 0
M  V30 33 C -2.5485 -0.2987 1.3611 0
M  V30 34 C -3.5397 0.3202 1.6387 0
M  V30 35 C -4.7379 1.0937 1.9685 0
M  V30 36 H -0.2545 2.5116 -0.2077 0
M  V30 37 H -0.124 3.3692 -1.7681 0
M  V30 38 H -3.1285 0.0089 -1.6739 0
M  V30 39 H -3.2178 0.9334 -3.2261 0
M  V30 40 H 1.6867 1.8283 -2.4797 0
M  V30 41 H 1.5172 0.8971 -0.9968 0
M  V30 42 H 2.3332 3.8546 -1.1362 0
M  V30 43 H 2.1313 2.9488 0.3482 0
M  V30 44 H 4.3364 2.6807 -1.7578 0
M  V30 45 H -7.2317 2.0532 -1.1959 0
M  V30 46 H -4.7573 -0.9893 -3.0337 0
M  V30 47 H -9.2321 0.6896 -1.6808 0
M  V30 48 H -6.7605 -2.3179 -3.4987 0
M  V30 49 H 2.8616 0.9816 1.3532 0
M  V30 50 H 4.2628 1.7002 2.1774 0
M  V30 51 H 6.5905 1.9191 0.3588 0
M  V30 52 H 6.2118 1.0854 -1.158 0
M  V30 53 H -9.0026 -1.4974 -2.8315 0
M  V30 54 H 4.8059 -0.5669 2.4558 0
M  V30 55 H 6.8166 -0.1003 1.3861 0
M  V30 56 H 3.5031 -1.0192 -0.2872 0
M  V30 57 H 7.1405 -1.7891 -0.1644 0
M  V30 58 H 5.9185 -1.1396 -1.2752 0
M  V30 59 H 3.0772 -2.4483 2.425 0
M  V30 60 H 4.7901 -3.1093 -0.4479 0
M  V30 61 H 1.2936 -1.7639 0.0186 0
M  V30 62 H 6.2879 -3.6203 1.1476 0
M  V30 63 H 0.8015 -3.2554 2.678 0
M  V30 64 H -0.7415 -4.2919 1.5153 0
M  V30 65 H -1.4783 -2.3257 2.7077 0
M  V30 66 H -1.5828 -1.7638 0.2227 0
M  V30 67 H -0.6097 -0.3338 0.552 0
M  V30 68 H -0.9449 -0.1248 3.6503 0
M  V30 69 H 0.3462 -1.2529 4.0633 0
M  V30 70 H 0.5905 -0.0589 2.7753 0
M  V30 71 H -4.9685 1.0161 3.0353 0
M  V30 72 H -4.5965 2.1516 1.7283 0
M  V30 73 H -5.6033 0.7292 1.4073 0
M  V30 END ATOM
M  V30 BEGIN BOND
M  V30 1 2 1 2
M  V30 2 1 2 3
M  V30 3 1 2 4
M  V30 4 1 3 5
M  V30 5 1 4 6
M  V30 6 1 5 7
M  V30 7 1 6 8
M  V30 8 2 7 9
M  V30 9 1 7 10
M  V30 10 1 8 11
M  V30 11 2 10 12
M  V30 12 1 10 13
M  V30 13 2 11 14
M  V30 14 1 12 15
M  V30 15 2 13 16
M  V30 16 1 14 17
M  V30 17 1 14 18
M  V30 18 2 15 19
M  V30 19 1 17 20
M  V30 20 1 18 21
M  V30 21 1 20 22
M  V30 22 1 21 23
M  V30 23 1 22 24
M  V30 24 1 22 25
M  V30 25 2 24 26
M  V30 26 1 25 27
M  V30 27 1 26 28
M  V30 28 1 28 29
M  V30 29 1 28 30
M  V30 30 1 30 31
M  V30 31 1 30 32
M  V30 32 1 31 33
M  V30 33 3 33 34
M  V30 34 1 34 35
M  V30 35 1 16 19
M  V30 36 1 20 21
M  V30 37 1 23 25
M  V30 38 1 4 36
M  V30 39 1 4 37
M  V30 40 1 5 38
M  V30 41 1 5 39
M  V30 42 1 6 40
M  V30 43 1 6 41
M  V30 44 1 8 42
M  V30 45 1 8 43
M  V30 46 1 11 44
M  V30 47 1 12 45
M  V30 48 1 13 46
M  V30 49 1 15 47
M  V30 50 1 16 48
M  V30 51 1 17 49
M  V30 52 1 17 50
M  V30 53 1 18 51
M  V30 54 1 18 52
M  V30 55 1 19 53
M  V30 56 1 20 54
M  V30 57 1 21 55
M  V30 58 1 22 56
M  V30 59 1 23 57
M  V30 60 1 23 58
M  V30 61 1 24 59
M  V30 62 1 25 60
M  V30 63 1 26 61
M  V30 64 1 27 62
M  V30 65 1 28 63
M  V30 66 1 29 64
M  V30 67 1 30 65
M  V30 68 1 31 66
M  V30 69 1 31 67
M  V30 70 1 32 68
M  V30 71 1 32 69
M  V30 72 1 32 70
M  V30 73 1 35 71
M  V30 74 1 35 72
M  V30 75 1 35 73
M  V30 END BOND
M  V30 END CTAB
M  END
>  <Column 1>
3365

>  <level_0>
5589

>  <index>
5590

>  <Unnamed: 0>
5590

>  <NO.>
5602

>  <Name>
iloprost phenacyl ester

>  <IUPAC_name>
phenacyl (5z)-5-[5-hydroxy-4-[(e)-3-hydroxy-4-methyloct-1-en-6-ynyl]-3-3a-4-5-6-6a-hexahydro-1h-pentalen-2-ylidene]pentanoate

>  <SMILES>
CC#CCC(C)C(O)/C=C/C1C(O)CC2C/C(=C/CCCC(=O)OCC(=O)c3ccccc3)CC21

>  <CID>
6443959

>  <logBB>


>  <BBB+/BBB->
BBB-

>  <Inchi>
InChI=1S/C30H38O5/c1-3-4-10-21(2)27(31)16-15-25-26-18-22(17-24(26)19-28(25)32)11-8-9-14-30(34)35-20-29(33)23-12-6-5-7-13-23/h5-7-11-13-15-16-21-24-28-31-32H-8-10-14-17-20H2-1-2H3/b16-15+-22-11-

>  <threshold>


>  <reference>
R23|

>  <group>
C

>  <Class>
-1

>  <ABC>
26.51

>  <ABCGG>
20

>  <nAcid>
0

>  <nBase>
0

>  <nAromAtom>
6

>  <nAromBond>
6

>  <nAtom>
73

>  <nHeavyAtom>
35

>  <nSpiro>
0

>  <nBridgehead>
0

>  <nHetero>
5

>  <nN>
0

>  <nO>
5

>  <nF>
0

>  <BalabanJ>
1.28

>  <BertzCT>
967.46

>  <nBonds>
75

>  <nBondsO>
37

>  <nBondsS>
64

>  <nBondsD>
4

>  <nBondsT>
1

>  <nBondsA>
6

>  <nBondsM>
11

>  <nBondsKS>
67

>  <nBondsKD>
7

>  <RNCG>
0.16

>  <RPCG>
0.11

>  <FCSP3>
0.53

>  <SZ>
43

>  <Sm>
39.85

>  <Sv>
43.87

>  <Sse>
72.52

>  <Sp>
47.57

>  <Si>
81.94

>  <MZ>
0.59

>  <Mm>
0.55

>  <Mv>
0.6

>  <Mse>
0.99

>  <Mp>
0.65

>  <Mi>
1.12

>  <NsCH3>
2

>  <NdCH2>
0

>  <NssCH2>
8

>  <NtCH>
0

>  <NdsCH>
3

>  <NaaCH>
5

>  <NsssCH>
6

>  <NddC>
0

>  <NtsC>
2

>  <NdssC>
3

>  <NaasC>
1

>  <NaaaC>
0

>  <NssssC>
0

>  <NsNH3>
0

>  <NsNH2>
0

>  <NssNH2>
0

>  <NdNH>
0

>  <NssNH>
0

>  <NaaNH>
0

>  <NtN>
0

>  <NsssNH>
0

>  <NdsN>
0

>  <NaaN>
0

>  <NsssN>
0

>  <NddsN>
0

>  <NaasN>
0

>  <NssssN>
0

>  <NsOH>
2

>  <NdO>
2

>  <NssO>
1

>  <NaaO>
0

>  <NsF>
0

>  <NsSiH3>
0

>  <NssSiH2>
0

>  <NsssSiH>
0

>  <NssssSi>
0

>  <NsPH2>
0

>  <NssPH>
0

>  <NsssP>
0

>  <NdsssP>
0

>  <NsssssP>
0

>  <NsSH>
0

>  <NdS>
0

>  <NssS>
0

>  <NaaS>
0

>  <NdssS>
0

>  <NddssS>
0

>  <NsCl>
0

>  <NsBr>
0

>  <NsI>
0

>  <fragCpx>
179.05

>  <fMF>
0.3

>  <nHBAcc>
5

>  <nHBDon>
2

>  <Kier1>
29.55

>  <Kier2>
15.42

>  <Lipinski>
1

>  <GhoseFilter>
0

>  <FilterItLogS>
-4.37

>  <VMcGowan>
391.63

>  <LabuteASA>
208.82

>  <PEOE_VSA1>
14.95

>  <PEOE_VSA2>
9.59

>  <PEOE_VSA3>
0

>  <PEOE_VSA4>
0

>  <PEOE_VSA5>
11.84

>  <PEOE_VSA6>
61.06

>  <PEOE_VSA7>
56.78

>  <PEOE_VSA8>
24.32

>  <PEOE_VSA9>
12.21

>  <PEOE_VSA10>
0

>  <PEOE_VSA11>
12.39

>  <PEOE_VSA12>
0

>  <PEOE_VSA13>
0

>  <SMR_VSA1>
24.54

>  <SMR_VSA2>
0

>  <SMR_VSA3>
0

>  <SMR_VSA4>
23.67

>  <SMR_VSA5>
71

>  <SMR_VSA6>
6.61

>  <SMR_VSA7>
59.7

>  <SMR_VSA8>
0

>  <SMR_VSA9>
11.84

>  <SlogP_VSA1>
0

>  <SlogP_VSA2>
40.78

>  <SlogP_VSA3>
9.53

>  <SlogP_VSA4>
35.51

>  <SlogP_VSA5>
69.15

>  <SlogP_VSA6>
54.13

>  <SlogP_VSA7>
0

>  <SlogP_VSA8>
0

>  <SlogP_VSA9>
0

>  <SlogP_VSA10>
0

>  <SlogP_VSA11>
0

>  <EState_VSA1>
6.1

>  <EState_VSA2>
36.3

>  <EState_VSA3>
36.66

>  <EState_VSA4>
25.68

>  <EState_VSA5>
5.57

>  <EState_VSA6>
31.19

>  <EState_VSA7>
25.14

>  <EState_VSA8>
17.92

>  <EState_VSA9>
4.74

>  <EState_VSA10>
19.8

>  <VSA_EState1>
5.13

>  <VSA_EState2>
24.02

>  <VSA_EState3>
20.96

>  <VSA_EState4>
1.94

>  <VSA_EState5>
6.35

>  <VSA_EState6>
8.83

>  <VSA_EState7>
10.37

>  <VSA_EState8>
3.57

>  <VSA_EState9>
0

>  <apol>
79.45

>  <bpol>
41.59

>  <nRing>
3

>  <nHRing>
0

>  <naRing>
1

>  <naHRing>
0

>  <nARing 2>
2

>  <nAHRing 2>
0

>  <nFRing>
1

>  <nFHRing>
0

>  <nFaRing>
0

>  <nFaHRing>
0

>  <nFARing 2>
1

>  <nFAHRing 2>
0

>  <nRot>
11

>  <SLogP>
4.88

>  <SMR>
136.37

>  <TopoPSA(NO)>
83.83

>  <TopoPSA>
83.83

>  <JGI1>
0.18

>  <JGI2>
0.08

>  <JGI3>
0.05

>  <JGI4>
0.03

>  <JGI5>
0.02

>  <Diameter>
23

>  <Radius>
12

>  <TMWC10>
148.91

>  <TSRW10>
86.88

>  <MW>
478.27

>  <AMW>
6.55

>  <WPath>
5007

>  <WPol>
48

>  <Zagreb1>
172

>  <Zagreb2>
196

>  <mZagreb2>
7.97

>  <yes>


>  <nAR-cont>
1

>  <nHA-cont>
0.523063577

>  <MWHBN>
0.320082161

>  <MWHBN-cont>
0.776887997

>  <TPSA-cont>
0.414814545

>  <pka_cont>
0.97

>  <yes.1>


>  <BBB_SCORE>
4.003024663

>  <MMFF94 Energy>
80.887

$$$$
Compound 2683
Actelion Java MolfileCreator 2.0

  0  0  0  0  0  0              0 V3000
M  V30 BEGIN CTAB
M  V30 COUNTS 63 67 0 0 0
M  V30 BEGIN ATOM
M  V30 1 O 1.2742 -2.1509 -3.5868 0
M  V30 2 C 0.7736 -1.2361 -2.9258 0
M  V30 3 N 1.5747 -0.2756 -2.2861 0
M  V30 4 N -0.6096 -1.0996 -2.7953 0
M  V30 5 C 1.1125 0.7922 -1.5135 0
M  V30 6 C 3.0186 -0.4561 -2.3547 0
M  V30 7 C -1.1132 -0.0888 -2.0112 0
M  V30 8 C -1.5092 -2.0437 -3.431 0
M  V30 9 O 1.8407 1.6501 -1.0226 0
M  V30 10 C -0.3025 0.8091 -1.3901 0
M  V30 11 C 3.5678 -1.3 -1.2165 0
M  V30 12 N -2.427 0.142 -1.7492 0
M  V30 13 N -1.1484 1.6008 -0.6572 0
M  V30 14 N 4.8648 -1.6524 -1.287 0
M  V30 15 N 2.7503 -1.6204 -0.1945 0
M  V30 16 C -2.4355 1.2025 -0.9654 0
M  V30 17 C -0.7516 2.5791 0.3423 0
M  V30 18 C 5.3669 -2.3787 -0.2814 0
M  V30 19 C 3.2722 -2.3496 0.8142 0
M  V30 20 N -3.5234 1.8284 -0.4549 0
M  V30 21 C -0.1905 1.9469 1.5469 0
M  V30 22 C 4.6071 -2.772 0.8291 0
M  V30 23 C 6.702 -2.7592 -0.3383 0
M  V30 24 C 2.3203 -2.6772 1.9284 0
M  V30 25 C -4.6494 0.9675 -0.067 0
M  V30 26 C -3.9052 3.1169 -1.0401 0
M  V30 27 C 0.2827 1.4195 2.5173 0
M  V30 28 C 5.211 -3.5399 1.8561 0
M  V30 29 C 7.3002 -3.5165 0.6727 0
M  V30 30 C -5.5867 1.6982 0.929 0 CFG=1
M  V30 31 C -4.8247 3.8878 -0.0941 0
M  V30 32 C 0.8745 0.7658 3.6836 0
M  V30 33 C 6.5519 -3.9084 1.7741 0
M  V30 34 N -4.952 1.9357 2.2373 0
M  V30 35 C -6.0265 3.0418 0.3331 0
M  V30 36 H 3.2934 -0.9316 -3.3029 0
M  V30 37 H 3.5187 0.5186 -2.3238 0
M  V30 38 H -2.2218 -1.4963 -4.0562 0
M  V30 39 H -2.0503 -2.5959 -2.656 0
M  V30 40 H -0.9723 -2.7591 -4.0593 0
M  V30 41 H -0.0277 3.2509 -0.1304 0
M  V30 42 H -1.6185 3.187 0.6143 0
M  V30 43 H 7.2966 -2.4573 -1.1979 0
M  V30 44 H 1.3294 -2.2542 1.7305 0
M  V30 45 H 2.2065 -3.761 2.0282 0
M  V30 46 H 2.6783 -2.2569 2.8734 0
M  V30 47 H -4.2865 0.0423 0.4006 0
M  V30 48 H -5.2184 0.6779 -0.9605 0
M  V30 49 H -3.0245 3.7345 -1.2541 0
M  V30 50 H -4.416 2.9469 -1.9969 0
M  V30 51 H 4.6381 -3.8551 2.7246 0
M  V30 52 H 8.3476 -3.7959 0.5927 0
M  V30 53 H -6.4684 1.0682 1.0957 0
M  V30 54 H -4.2591 4.2024 0.7914 0
M  V30 55 H -5.1755 4.8017 -0.5868 0
M  V30 56 H 0.3828 -0.1907 3.8843 0
M  V30 57 H 0.7744 1.393 4.5745 0
M  V30 58 H 1.9391 0.5719 3.522 0
M  V30 59 H 7.0083 -4.498 2.565 0
M  V30 60 H -4.4993 1.0819 2.5597 0
M  V30 61 H -5.6599 2.1821 2.9258 0
M  V30 62 H -6.6394 3.6028 1.0493 0
M  V30 63 H -6.6623 2.8551 -0.5418 0
M  V30 END ATOM
M  V30 BEGIN BOND
M  V30 1 2 1 2
M  V30 2 1 2 3
M  V30 3 1 2 4
M  V30 4 1 3 5
M  V30 5 1 3 6
M  V30 6 1 4 7
M  V30 7 1 4 8
M  V30 8 2 5 9
M  V30 9 1 5 10
M  V30 10 1 6 11
M  V30 11 1 7 12
M  V30 12 1 10 13
M  V30 13 2 11 14
M  V30 14 1 11 15
M  V30 15 2 12 16
M  V30 16 1 13 17
M  V30 17 1 14 18
M  V30 18 2 15 19
M  V30 19 1 16 20
M  V30 20 1 17 21
M  V30 21 1 18 22
M  V30 22 2 18 23
M  V30 23 1 19 24
M  V30 24 1 20 25
M  V30 25 1 20 26
M  V30 26 3 21 27
M  V30 27 2 22 28
M  V30 28 1 23 29
M  V30 29 1 25 30
M  V30 30 1 26 31
M  V30 31 1 27 32
M  V30 32 1 28 33
M  V30 33 1 30 34
M  V30 34 1 30 35
M  V30 35 2 7 10
M  V30 36 1 13 16
M  V30 37 1 19 22
M  V30 38 2 29 33
M  V30 39 1 31 35
M  V30 40 1 6 36
M  V30 41 1 6 37
M  V30 42 1 8 38
M  V30 43 1 8 39
M  V30 44 1 8 40
M  V30 45 1 17 41
M  V30 46 1 17 42
M  V30 47 1 23 43
M  V30 48 1 24 44
M  V30 49 1 24 45
M  V30 50 1 24 46
M  V30 51 1 25 47
M  V30 52 1 25 48
M  V30 53 1 26 49
M  V30 54 1 26 50
M  V30 55 1 28 51
M  V30 56 1 29 52
M  V30 57 1 30 53
M  V30 58 1 31 54
M  V30 59 1 31 55
M  V30 60 1 32 56
M  V30 61 1 32 57
M  V30 62 1 32 58
M  V30 63 1 33 59
M  V30 64 1 34 60
M  V30 65 1 34 61
M  V30 66 1 35 62
M  V30 67 1 35 63
M  V30 END BOND
M  V30 BEGIN COLLECTION
M  V30 MDLV30/STERAC1 ATOMS=(1 30)
M  V30 END COLLECTION
M  V30 END CTAB
M  END
>  <Column 1>
3366

>  <level_0>
5590

>  <index>
5591

>  <Unnamed: 0>
5591

>  <NO.>
5603

>  <Name>
8-(3-aminopiperidin-1-yl)-7-(but-2-yn-1-yl)-3-methyl-1-((4-methylquinazolin-2-yl)methyl)-1h-purine-2-6(3h-7h)-dione

>  <IUPAC_name>
8-(3-aminopiperidin-1-yl)-7-but-2-ynyl-3-methyl-1-[(4-methylquinazolin-2-yl)methyl]purine-2-6-dione

>  <SMILES>
CC#CCn1c(N2CCCC(N)C2)nc2c1c(=O)n(Cc1nc(C)c3ccccc3n1)c(=O)n2C

>  <CID>
57389748

>  <logBB>


>  <BBB+/BBB->
BBB-

>  <Inchi>
InChI=1S/C25H28N8O2/c1-4-5-13-32-21-22(29-24(32)31-12-8-9-17(26)14-31)30(3)25(35)33(23(21)34)15-20-27-16(2)18-10-6-7-11-19(18)28-20/h6-7-10-11-17H-8-9-12-15-26H2-1-3H3

>  <threshold>


>  <reference>
R23|

>  <group>
C

>  <Class>
-1

>  <ABC>
27.68

>  <ABCGG>
21.1

>  <nAcid>
0

>  <nBase>
1

>  <nAromAtom>
19

>  <nAromBond>
21

>  <nAtom>
63

>  <nHeavyAtom>
35

>  <nSpiro>
0

>  <nBridgehead>
0

>  <nHetero>
10

>  <nN>
8

>  <nO>
2

>  <nF>
0

>  <BalabanJ>
1.33

>  <BertzCT>
1618.51

>  <nBonds>
67

>  <nBondsO>
39

>  <nBondsS>
43

>  <nBondsD>
2

>  <nBondsT>
1

>  <nBondsA>
21

>  <nBondsM>
24

>  <nBondsKS>
57

>  <nBondsKD>
9

>  <RNCG>
0.11

>  <RPCG>
0.11

>  <FCSP3>
0.4

>  <SZ>
41.67

>  <Sm>
39.34

>  <Sv>
40.08

>  <Sse>
63.4

>  <Sp>
42.41

>  <Si>
71.56

>  <MZ>
0.66

>  <Mm>
0.62

>  <Mv>
0.64

>  <Mse>
1.01

>  <Mp>
0.67

>  <Mi>
1.14

>  <NsCH3>
3

>  <NdCH2>
0

>  <NssCH2>
6

>  <NtCH>
0

>  <NdsCH>
0

>  <NaaCH>
4

>  <NsssCH>
1

>  <NddC>
0

>  <NtsC>
2

>  <NdssC>
0

>  <NaasC>
3

>  <NaaaC>
4

>  <NssssC>
0

>  <NsNH3>
0

>  <NsNH2>
1

>  <NssNH2>
0

>  <NdNH>
0

>  <NssNH>
0

>  <NaaNH>
0

>  <NtN>
0

>  <NsssNH>
0

>  <NdsN>
0

>  <NaaN>
3

>  <NsssN>
1

>  <NddsN>
0

>  <NaasN>
3

>  <NssssN>
0

>  <NsOH>
0

>  <NdO>
2

>  <NssO>
0

>  <NaaO>
0

>  <NsF>
0

>  <NsSiH3>
0

>  <NssSiH2>
0

>  <NsssSiH>
0

>  <NssssSi>
0

>  <NsPH2>
0

>  <NssPH>
0

>  <NsssP>
0

>  <NdsssP>
0

>  <NsssssP>
0

>  <NsSH>
0

>  <NdS>
0

>  <NssS>
0

>  <NaaS>
0

>  <NdssS>
0

>  <NddssS>
0

>  <NsCl>
0

>  <NsBr>
0

>  <NsI>
0

>  <fragCpx>
331.1

>  <fMF>
0.41

>  <nHBAcc>
10

>  <nHBDon>
1

>  <Kier1>
26.6

>  <Kier2>
11.4

>  <Lipinski>
1

>  <GhoseFilter>
0

>  <FilterItLogS>
-4.39

>  <VMcGowan>
353.09

>  <LabuteASA>
201.58

>  <PEOE_VSA1>
10.63

>  <PEOE_VSA2>
18.5

>  <PEOE_VSA3>
14.76

>  <PEOE_VSA4>
4.98

>  <PEOE_VSA5>
5.92

>  <PEOE_VSA6>
24.12

>  <PEOE_VSA7>
32.76

>  <PEOE_VSA8>
37.26

>  <PEOE_VSA9>
18.61

>  <PEOE_VSA10>
5.82

>  <PEOE_VSA11>
11.16

>  <PEOE_VSA12>
5.95

>  <PEOE_VSA13>
5.56

>  <SMR_VSA1>
0

>  <SMR_VSA2>
0

>  <SMR_VSA3>
28.65

>  <SMR_VSA4>
12.78

>  <SMR_VSA5>
45.82

>  <SMR_VSA6>
17.99

>  <SMR_VSA7>
56.62

>  <SMR_VSA8>
0

>  <SMR_VSA9>
11.84

>  <SlogP_VSA1>
21.88

>  <SlogP_VSA2>
47.78

>  <SlogP_VSA3>
20.14

>  <SlogP_VSA4>
18.76

>  <SlogP_VSA5>
31.28

>  <SlogP_VSA6>
33.85

>  <SlogP_VSA7>
0

>  <SlogP_VSA8>
22.07

>  <SlogP_VSA9>
0

>  <SlogP_VSA10>
5.95

>  <SlogP_VSA11>
0

>  <EState_VSA1>
11.25

>  <EState_VSA2>
19.13

>  <EState_VSA3>
29.48

>  <EState_VSA4>
35.98

>  <EState_VSA5>
9.13

>  <EState_VSA6>
18.54

>  <EState_VSA7>
31.19

>  <EState_VSA8>
26.71

>  <EState_VSA9>
10.72

>  <EState_VSA10>
9.59

>  <VSA_EState1>
4.39

>  <VSA_EState2>
42.99

>  <VSA_EState3>
0.94

>  <VSA_EState4>
7.54

>  <VSA_EState5>
6.96

>  <VSA_EState6>
7.71

>  <VSA_EState7>
1.88

>  <VSA_EState8>
5.31

>  <VSA_EState9>
1.63

>  <apol>
70.82

>  <bpol>
39.52

>  <nRing>
5

>  <nHRing>
4

>  <naRing>
4

>  <naHRing>
3

>  <nARing 2>
1

>  <nAHRing 2>
1

>  <nFRing>
2

>  <nFHRing>
2

>  <nFaRing>
2

>  <nFaHRing>
2

>  <nFARing 2>
0

>  <nFAHRing 2>
0

>  <nRot>
4

>  <SLogP>
1.15

>  <SMR>
135.48

>  <TopoPSA(NO)>
116.86

>  <TopoPSA>
116.86

>  <JGI1>
0.17

>  <JGI2>
0.07

>  <JGI3>
0.06

>  <JGI4>
0.05

>  <JGI5>
0.03

>  <Diameter>
15

>  <Radius>
8

>  <TMWC10>
154.22

>  <TSRW10>
86.34

>  <MW>
472.23

>  <AMW>
7.5

>  <WPath>
3601

>  <WPol>
64

>  <Zagreb1>
192

>  <Zagreb2>
234

>  <mZagreb2>
7.64

>  <yes>


>  <nAR-cont>
0.816016

>  <nHA-cont>
0.523063577

>  <MWHBN>
0.506192724

>  <MWHBN-cont>
0

>  <TPSA-cont>
0.184244634

>  <pka_cont>
0.97

>  <yes.1>


>  <BBB_SCORE>
2.192568846

>  <MMFF94 Energy>
-91.808

$$$$
Compound 2684
Actelion Java MolfileCreator 2.0

  0  0  0  0  0  0              0 V3000
M  V30 BEGIN CTAB
M  V30 COUNTS 34 35 0 0 0
M  V30 BEGIN ATOM
M  V30 1 S -3.026 4.4187 -1.7166 0
M  V30 2 C -1.7697 3.3423 -1.5059 0
M  V30 3 S -1.9892 1.7843 -0.7243 0
M  V30 4 N -0.4578 3.4831 -1.8947 0
M  V30 5 C -0.3382 1.3494 -0.8824 0
M  V30 6 C 0.3987 2.447 -1.5764 0
M  V30 7 C 0.0998 4.6712 -2.5381 0
M  V30 8 C 0.3128 0.2419 -0.4918 0
M  V30 9 O 1.5973 2.4202 -1.8232 0
M  V30 10 C 0.6179 5.6182 -1.4714 0
M  V30 11 C -0.126 -0.9792 0.1952 0
M  V30 12 O 0.4528 5.5329 -0.2649 0
M  V30 13 O 1.2989 6.6582 -1.9957 0
M  V30 14 C 0.8069 -1.9222 0.4538 0
M  V30 15 C -1.5724 -1.1492 0.5856 0
M  V30 16 C 0.5655 -3.2002 1.1293 0
M  V30 17 C 0.6478 -3.2861 2.5231 0
M  V30 18 C 0.2481 -4.34 0.3833 0
M  V30 19 C 0.4146 -4.5037 3.1651 0
M  V30 20 C 0.0153 -5.5565 1.0275 0
M  V30 21 C 0.0988 -5.6377 2.4174 0
M  V30 22 H -0.6566 5.1862 -3.135 0
M  V30 23 H 0.937 4.3792 -3.1804 0
M  V30 24 H 1.3827 0.2327 -0.7219 0
M  V30 25 H 1.5729 7.1866 -1.2153 0
M  V30 26 H 1.8473 -1.7844 0.1642 0
M  V30 27 H -1.779 -2.1022 1.0816 0
M  V30 28 H -2.2171 -1.1233 -0.2987 0
M  V30 29 H -1.8771 -0.3683 1.29 0
M  V30 30 H 0.8907 -2.4067 3.1147 0
M  V30 31 H 0.1779 -4.2859 -0.7002 0
M  V30 32 H 0.4784 -4.5667 4.2483 0
M  V30 33 H -0.2319 -6.4401 0.4451 0
M  V30 34 H -0.0831 -6.5852 2.9182 0
M  V30 END ATOM
M  V30 BEGIN BOND
M  V30 1 2 1 2
M  V30 2 1 2 3
M  V30 3 1 2 4
M  V30 4 1 3 5
M  V30 5 1 4 6
M  V30 6 1 4 7
M  V30 7 2 5 8
M  V30 8 2 6 9
M  V30 9 1 7 10
M  V30 10 1 8 11
M  V30 11 2 10 12
M  V30 12 1 10 13
M  V30 13 2 11 14
M  V30 14 1 11 15
M  V30 15 1 14 16
M  V30 16 2 16 17
M  V30 17 1 16 18
M  V30 18 1 17 19
M  V30 19 2 18 20
M  V30 20 2 19 21
M  V30 21 1 5 6
M  V30 22 1 20 21
M  V30 23 1 7 22
M  V30 24 1 7 23
M  V30 25 1 8 24
M  V30 26 1 13 25
M  V30 27 1 14 26
M  V30 28 1 15 27
M  V30 29 1 15 28
M  V30 30 1 15 29
M  V30 31 1 17 30
M  V30 32 1 18 31
M  V30 33 1 19 32
M  V30 34 1 20 33
M  V30 35 1 21 34
M  V30 END BOND
M  V30 END CTAB
M  END
>  <Column 1>
3368

>  <level_0>
5592

>  <index>
5593

>  <Unnamed: 0>
5593

>  <NO.>
5605

>  <Name>
epalrestat

>  <IUPAC_name>
2-[(5z)-5-[(e)-2-methyl-3-phenylprop-2-enylidene]-4-oxo-2-sulfanylidene-1-3-thiazolidin-3-yl]acetic acid

>  <SMILES>
CC(/C=C1\SC(=S)N(CC(=O)O)C1=O)=C\c1ccccc1

>  <CID>
1549120

>  <logBB>


>  <BBB+/BBB->
BBB-

>  <Inchi>
InChI=1S/C15H13NO3S2/c1-10(7-11-5-3-2-4-6-11)8-12-14(19)16(9-13(17)18)15(20)21-12/h2-8H-9H2-1H3-(H-17-18)/b10-7+-12-8-

>  <threshold>


>  <reference>
R23|

>  <group>
C

>  <Class>
-1

>  <ABC>
15.98

>  <ABCGG>
13.85

>  <nAcid>
1

>  <nBase>
0

>  <nAromAtom>
6

>  <nAromBond>
6

>  <nAtom>
34

>  <nHeavyAtom>
21

>  <nSpiro>
0

>  <nBridgehead>
0

>  <nHetero>
6

>  <nN>
1

>  <nO>
3

>  <nF>
0

>  <BalabanJ>
1.79

>  <BertzCT>
650.14

>  <nBonds>
35

>  <nBondsO>
22

>  <nBondsS>
24

>  <nBondsD>
5

>  <nBondsT>
0

>  <nBondsA>
6

>  <nBondsM>
11

>  <nBondsKS>
27

>  <nBondsKD>
8

>  <RNCG>
0.25

>  <RPCG>
0.17

>  <FCSP3>
0.13

>  <SZ>
27.67

>  <Sm>
26.59

>  <Sv>
23.8

>  <Sse>
34.58

>  <Sp>
25.76

>  <Si>
37.46

>  <MZ>
0.81

>  <Mm>
0.78

>  <Mv>
0.7

>  <Mse>
1.02

>  <Mp>
0.76

>  <Mi>
1.1

>  <NsCH3>
1

>  <NdCH2>
0

>  <NssCH2>
1

>  <NtCH>
0

>  <NdsCH>
2

>  <NaaCH>
5

>  <NsssCH>
0

>  <NddC>
0

>  <NtsC>
0

>  <NdssC>
5

>  <NaasC>
1

>  <NaaaC>
0

>  <NssssC>
0

>  <NsNH3>
0

>  <NsNH2>
0

>  <NssNH2>
0

>  <NdNH>
0

>  <NssNH>
0

>  <NaaNH>
0

>  <NtN>
0

>  <NsssNH>
0

>  <NdsN>
0

>  <NaaN>
0

>  <NsssN>
1

>  <NddsN>
0

>  <NaasN>
0

>  <NssssN>
0

>  <NsOH>
1

>  <NdO>
2

>  <NssO>
0

>  <NaaO>
0

>  <NsF>
0

>  <NsSiH3>
0

>  <NssSiH2>
0

>  <NsssSiH>
0

>  <NssssSi>
0

>  <NsPH2>
0

>  <NssPH>
0

>  <NsssP>
0

>  <NdsssP>
0

>  <NsssssP>
0

>  <NsSH>
0

>  <NdS>
1

>  <NssS>
1

>  <NaaS>
0

>  <NdssS>
0

>  <NddssS>
0

>  <NsCl>
0

>  <NsBr>
0

>  <NsI>
0

>  <fragCpx>
64.06

>  <fMF>
0.41

>  <nHBAcc>
4

>  <nHBDon>
1

>  <Kier1>
17.36

>  <Kier2>
8.02

>  <Lipinski>
1

>  <GhoseFilter>
1

>  <FilterItLogS>
-2.16

>  <VMcGowan>
226.38

>  <LabuteASA>
131.69

>  <PEOE_VSA1>
5.11

>  <PEOE_VSA2>
14.49

>  <PEOE_VSA3>
0

>  <PEOE_VSA4>
0

>  <PEOE_VSA5>
0

>  <PEOE_VSA6>
60.39

>  <PEOE_VSA7>
24.14

>  <PEOE_VSA8>
0

>  <PEOE_VSA9>
4.91

>  <PEOE_VSA10>
10.87

>  <PEOE_VSA11>
0

>  <PEOE_VSA12>
0

>  <PEOE_VSA13>
5.91

>  <SMR_VSA1>
14.7

>  <SMR_VSA2>
0

>  <SMR_VSA3>
4.9

>  <SMR_VSA4>
0

>  <SMR_VSA5>
6.92

>  <SMR_VSA6>
6.54

>  <SMR_VSA7>
52.45

>  <SMR_VSA8>
0

>  <SMR_VSA9>
0

>  <SlogP_VSA1>
0

>  <SlogP_VSA2>
32.75

>  <SlogP_VSA3>
9.59

>  <SlogP_VSA4>
0

>  <SlogP_VSA5>
12.49

>  <SlogP_VSA6>
46.89

>  <SlogP_VSA7>
0

>  <SlogP_VSA8>
6.08

>  <SlogP_VSA9>
0

>  <SlogP_VSA10>
0

>  <SlogP_VSA11>
0

>  <EState_VSA1>
12.51

>  <EState_VSA2>
10.23

>  <EState_VSA3>
4.91

>  <EState_VSA4>
27.8

>  <EState_VSA5>
0

>  <EState_VSA6>
6.08

>  <EState_VSA7>
43.33

>  <EState_VSA8>
0

>  <EState_VSA9>
17.32

>  <EState_VSA10>
9.59

>  <VSA_EState1>
0.28

>  <VSA_EState2>
24.37

>  <VSA_EState3>
8.78

>  <VSA_EState4>
1.93

>  <VSA_EState5>
-1.43

>  <VSA_EState6>
9.74

>  <VSA_EState7>
3.68

>  <VSA_EState8>
1.49

>  <VSA_EState9>
0

>  <apol>
43.02

>  <bpol>
20.18

>  <nRing>
2

>  <nHRing>
1

>  <naRing>
1

>  <naHRing>
0

>  <nARing 2>
1

>  <nAHRing 2>
1

>  <nFRing>
0

>  <nFHRing>
0

>  <nFaRing>
0

>  <nFaHRing>
0

>  <nFARing 2>
0

>  <nFAHRing 2>
0

>  <nRot>
4

>  <SLogP>
2.92

>  <SMR>
87.71

>  <TopoPSA(NO)>
57.61

>  <TopoPSA>
115

>  <JGI1>
0.23

>  <JGI2>
0.07

>  <JGI3>
0.07

>  <JGI4>
0.04

>  <JGI5>
0.03

>  <Diameter>
12

>  <Radius>
6

>  <TMWC10>
115.44

>  <TSRW10>
68.56

>  <MW>
319.03

>  <AMW>
9.38

>  <WPath>
1021

>  <WPol>
28

>  <Zagreb1>
104

>  <Zagreb2>
118

>  <mZagreb2>
4.67

>  <yes>


>  <nAR-cont>
0.816016

>  <nHA-cont>
0.994529749

>  <MWHBN>
0.279933093

>  <MWHBN-cont>
0.896251177

>  <TPSA-cont>
0.197228589

>  <pka_cont>
0.97

>  <yes.1>


>  <BBB_SCORE>
4.034379693

>  <MMFF94 Energy>
-8.1041

$$$$
Compound 2685
Actelion Java MolfileCreator 2.0

  0  0  0  0  0  0              0 V3000
M  V30 BEGIN CTAB
M  V30 COUNTS 29 29 0 0 0
M  V30 BEGIN ATOM
M  V30 1 I -2.821 0.5803 0.7461 0
M  V30 2 C -0.7666 0.2773 0.2061 0
M  V30 3 C -0.0573 1.2684 -0.5127 0
M  V30 4 C -0.1135 -0.8873 0.6666 0
M  V30 5 N -0.7059 2.4229 -1.0119 0
M  V30 6 C 1.3288 1.1168 -0.7243 0
M  V30 7 N -0.8575 -1.8836 1.3423 0
M  V30 8 C 1.2495 -1.0395 0.4074 0
M  V30 9 C -1.5724 2.3584 -2.0892 0
M  V30 10 I 2.4249 2.6683 -1.6816 0
M  V30 11 C 1.9694 -0.0422 -0.269 0
M  V30 12 C -0.3705 -2.9025 2.1386 0
M  V30 13 O -1.896 1.326 -2.6674 0
M  V30 14 C -2.0655 3.7101 -2.5316 0
M  V30 15 C 3.3996 -0.3024 -0.5005 0
M  V30 16 O 0.8027 -3.1003 2.4319 0
M  V30 17 C -1.4711 -3.7777 2.6822 0
M  V30 18 O 3.9539 -0.431 -1.5726 0
M  V30 19 O 4.0502 -0.3877 0.6717 0
M  V30 20 H -0.307 3.3222 -0.768 0
M  V30 21 H -1.8663 -1.7864 1.2803 0
M  V30 22 H 1.7826 -1.9351 0.7184 0
M  V30 23 H -2.1522 4.3927 -1.6812 0
M  V30 24 H -3.0517 3.6043 -2.9921 0
M  V30 25 H -1.3649 4.1271 -3.2598 0
M  V30 26 H -1.9794 -3.2565 3.4982 0
M  V30 27 H -1.0455 -4.7119 3.0589 0
M  V30 28 H -2.1938 -4.0167 1.8966 0
M  V30 29 H 4.9791 -0.5813 0.4259 0
M  V30 END ATOM
M  V30 BEGIN BOND
M  V30 1 1 1 2
M  V30 2 2 2 3
M  V30 3 1 2 4
M  V30 4 1 3 5
M  V30 5 1 3 6
M  V30 6 1 4 7
M  V30 7 2 4 8
M  V30 8 1 5 9
M  V30 9 1 6 10
M  V30 10 2 6 11
M  V30 11 1 7 12
M  V30 12 2 9 13
M  V30 13 1 9 14
M  V30 14 1 11 15
M  V30 15 2 12 16
M  V30 16 1 12 17
M  V30 17 2 15 18
M  V30 18 1 15 19
M  V30 19 1 8 11
M  V30 20 1 5 20
M  V30 21 1 7 21
M  V30 22 1 8 22
M  V30 23 1 14 23
M  V30 24 1 14 24
M  V30 25 1 14 25
M  V30 26 1 17 26
M  V30 27 1 17 27
M  V30 28 1 17 28
M  V30 29 1 19 29
M  V30 END BOND
M  V30 END CTAB
M  END
>  <Column 1>
3372

>  <level_0>
5597

>  <index>
5598

>  <Unnamed: 0>
5598

>  <NO.>
5610

>  <Name>
diatrizoate

>  <IUPAC_name>
3-5-diacetamido-2-4-diiodobenzoic acid

>  <SMILES>
CC(=O)Nc1cc(C(=O)O)c(I)c(NC(C)=O)c1I

>  <CID>
15788110

>  <logBB>


>  <BBB+/BBB->
BBB-

>  <Inchi>
InChI=1S/C11H10I2N2O4/c1-4(16)14-7-3-6(11(18)19)8(12)10(9(7)13)15-5(2)17/h3H-1-2H3-(H-14-16)(H-15-17)(H-18-19)

>  <threshold>


>  <reference>
R23|

>  <group>
C

>  <Class>
-1

>  <ABC>
14.11

>  <ABCGG>
13.27

>  <nAcid>
1

>  <nBase>
0

>  <nAromAtom>
6

>  <nAromBond>
6

>  <nAtom>
29

>  <nHeavyAtom>
19

>  <nSpiro>
0

>  <nBridgehead>
0

>  <nHetero>
8

>  <nN>
2

>  <nO>
4

>  <nF>
0

>  <BalabanJ>
2.86

>  <BertzCT>
572.3

>  <nBonds>
29

>  <nBondsO>
19

>  <nBondsS>
20

>  <nBondsD>
3

>  <nBondsT>
0

>  <nBondsA>
6

>  <nBondsM>
9

>  <nBondsKS>
23

>  <nBondsKD>
6

>  <RNCG>
0.24

>  <RPCG>
0.17

>  <FCSP3>
0.18

>  <SZ>
38

>  <Sm>
40.63

>  <Sv>
21.24

>  <Sse>
30.11

>  <Sp>
24.64

>  <Si>
32.35

>  <MZ>
1.31

>  <Mm>
1.4

>  <Mv>
0.73

>  <Mse>
1.04

>  <Mp>
0.85

>  <Mi>
1.12

>  <NsCH3>
2

>  <NdCH2>
0

>  <NssCH2>
0

>  <NtCH>
0

>  <NdsCH>
0

>  <NaaCH>
1

>  <NsssCH>
0

>  <NddC>
0

>  <NtsC>
0

>  <NdssC>
3

>  <NaasC>
5

>  <NaaaC>
0

>  <NssssC>
0

>  <NsNH3>
0

>  <NsNH2>
0

>  <NssNH2>
0

>  <NdNH>
0

>  <NssNH>
2

>  <NaaNH>
0

>  <NtN>
0

>  <NsssNH>
0

>  <NdsN>
0

>  <NaaN>
0

>  <NsssN>
0

>  <NddsN>
0

>  <NaasN>
0

>  <NssssN>
0

>  <NsOH>
1

>  <NdO>
3

>  <NssO>
0

>  <NaaO>
0

>  <NsF>
0

>  <NsSiH3>
0

>  <NssSiH2>
0

>  <NsssSiH>
0

>  <NssssSi>
0

>  <NsPH2>
0

>  <NssPH>
0

>  <NsssP>
0

>  <NdsssP>
0

>  <NsssssP>
0

>  <NsSH>
0

>  <NdS>
0

>  <NssS>
0

>  <NaaS>
0

>  <NdssS>
0

>  <NddssS>
0

>  <NsCl>
0

>  <NsBr>
0

>  <NsI>
2

>  <fragCpx>
19.08

>  <fMF>
0.21

>  <nHBAcc>
3

>  <nHBDon>
3

>  <Kier1>
17.05

>  <Kier2>
7.14

>  <Lipinski>
1

>  <GhoseFilter>
0

>  <FilterItLogS>
-4.13

>  <VMcGowan>
224.29

>  <LabuteASA>
136.16

>  <PEOE_VSA1>
15.74

>  <PEOE_VSA2>
9.59

>  <PEOE_VSA3>
4.79

>  <PEOE_VSA4>
0

>  <PEOE_VSA5>
0

>  <PEOE_VSA6>
0

>  <PEOE_VSA7>
51.25

>  <PEOE_VSA8>
13.85

>  <PEOE_VSA9>
24.08

>  <PEOE_VSA10>
0

>  <PEOE_VSA11>
0

>  <PEOE_VSA12>
11.81

>  <PEOE_VSA13>
0

>  <SMR_VSA1>
19.49

>  <SMR_VSA2>
0

>  <SMR_VSA3>
0

>  <SMR_VSA4>
0

>  <SMR_VSA5>
13.85

>  <SMR_VSA6>
10.63

>  <SMR_VSA7>
18.77

>  <SMR_VSA8>
0

>  <SMR_VSA9>
0

>  <SlogP_VSA1>
10.63

>  <SlogP_VSA2>
22.89

>  <SlogP_VSA3>
9.59

>  <SlogP_VSA4>
7.14

>  <SlogP_VSA5>
24.21

>  <SlogP_VSA6>
6.07

>  <SlogP_VSA7>
0

>  <SlogP_VSA8>
0

>  <SlogP_VSA9>
0

>  <SlogP_VSA10>
11.37

>  <SlogP_VSA11>
0

>  <EState_VSA1>
5.97

>  <EState_VSA2>
17.38

>  <EState_VSA3>
18.52

>  <EState_VSA4>
0

>  <EState_VSA5>
19.91

>  <EState_VSA6>
0

>  <EState_VSA7>
45.18

>  <EState_VSA8>
10.63

>  <EState_VSA9>
5.11

>  <EState_VSA10>
14.38

>  <VSA_EState1>
1

>  <VSA_EState2>
33.47

>  <VSA_EState3>
14.27

>  <VSA_EState4>
0.76

>  <VSA_EState5>
-1.75

>  <VSA_EState6>
1.37

>  <VSA_EState7>
0

>  <VSA_EState8>
2.66

>  <VSA_EState9>
0

>  <apol>
41.15

>  <bpol>
21.14

>  <nRing>
1

>  <nHRing>
0

>  <naRing>
1

>  <naHRing>
0

>  <nARing 2>
0

>  <nAHRing 2>
0

>  <nFRing>
0

>  <nFHRing>
0

>  <nFaRing>
0

>  <nFaHRing>
0

>  <nFARing 2>
0

>  <nFAHRing 2>
0

>  <nRot>
3

>  <SLogP>
2.51

>  <SMR>
87.44

>  <TopoPSA(NO)>
95.5

>  <TopoPSA>
95.5

>  <JGI1>
0.29

>  <JGI2>
0.09

>  <JGI3>
0.07

>  <JGI4>
0.06

>  <JGI5>
0.03

>  <Diameter>
8

>  <Radius>
5

>  <TMWC10>
110.02

>  <TSRW10>
52.04

>  <MW>
487.87

>  <AMW>
16.82

>  <WPath>
670

>  <WPol>
29

>  <Zagreb1>
92

>  <Zagreb2>
105

>  <mZagreb2>
4.22

>  <yes>


>  <nAR-cont>
0.336376

>  <nHA-cont>
0.998649058

>  <MWHBN>
0.271643423

>  <MWHBN-cont>
0.916343506

>  <TPSA-cont>
0.333350698

>  <pka_cont>
0.97

>  <yes.1>


>  <BBB_SCORE>
3.861241713

>  <MMFF94 Energy>
2.8766

$$$$
Compound 2686
Actelion Java MolfileCreator 2.0

  0  0  0  0  0  0              0 V3000
M  V30 BEGIN CTAB
M  V30 COUNTS 60 64 0 0 0
M  V30 BEGIN ATOM
M  V30 1 I 5.3658 -0.4869 7.5672 0
M  V30 2 C 4.2991 -0.785 5.81 0
M  V30 3 C 4.0541 -2.0776 5.3595 0
M  V30 4 C 3.8314 0.3124 5.0868 0
M  V30 5 C 3.3378 -2.2579 4.1791 0
M  V30 6 C 3.1123 0.1155 3.9012 0
M  V30 7 F 3.1103 -3.5112 3.7544 0
M  V30 8 C 2.848 -1.1752 3.4283 0
M  V30 9 N 2.1577 -1.4373 2.2208 0
M  V30 10 C 1.7073 -0.5272 1.2674 0
M  V30 11 N 2.6129 0.3136 0.6172 0
M  V30 12 C 0.3962 -0.45 0.8969 0
M  V30 13 C 2.2294 1.3528 -0.2097 0
M  V30 14 C 4.0517 0.0789 0.7263 0
M  V30 15 C -0.566 -1.4314 1.4909 0
M  V30 16 C -0.1023 0.5762 -0.016 0
M  V30 17 O 3.0356 2.1237 -0.7301 0
M  V30 18 C 0.7624 1.5222 -0.4639 0
M  V30 19 O -0.173 -2.3502 2.2164 0
M  V30 20 N -1.9019 -1.2686 1.1772 0
M  V30 21 N -1.4777 0.5459 -0.3194 0
M  V30 22 C 0.4671 2.8103 -1.1894 0
M  V30 23 C -2.4065 -0.2883 0.3307 0
M  V30 24 C -2.8591 -2.1767 1.8046 0
M  V30 25 C -2.04 1.2573 -1.4334 0
M  V30 26 O -3.6271 -0.1795 0.1563 0
M  V30 27 C -3.8522 -2.9848 0.9984 0
M  V30 28 C -2.7349 -3.6811 1.7042 0
M  V30 29 C -1.7034 0.8641 -2.7385 0
M  V30 30 C -2.9574 2.2952 -1.2304 0
M  V30 31 C -2.2489 1.5277 -3.8393 0
M  V30 32 C -3.5123 2.953 -2.3256 0
M  V30 33 N -1.955 1.1937 -5.1774 0
M  V30 34 C -3.1576 2.572 -3.6223 0
M  V30 35 C -0.9515 0.3528 -5.6258 0
M  V30 36 O -0.1203 -0.2307 -4.9397 0
M  V30 37 C -0.9474 0.2279 -7.1284 0
M  V30 38 H 4.4057 -2.9504 5.8997 0
M  V30 39 H 4.0162 1.328 5.4297 0
M  V30 40 H 2.7521 0.9884 3.363 0
M  V30 41 H 1.5715 -2.2781 2.3162 0
M  V30 42 H 4.4589 0.7036 1.5257 0
M  V30 43 H 4.5572 0.3584 -0.2045 0
M  V30 44 H 4.2767 -0.9762 0.9054 0
M  V30 45 H 0.5075 2.6691 -2.2731 0
M  V30 46 H 1.1886 3.5946 -0.9315 0
M  V30 47 H -0.4915 3.2406 -0.8973 0
M  V30 48 H -3.2162 -1.7827 2.7537 0
M  V30 49 H -3.8134 -2.9292 -0.0834 0
M  V30 50 H -4.8556 -3.0839 1.3962 0
M  V30 51 H -2.9675 -4.2624 2.5891 0
M  V30 52 H -1.9396 -4.1018 1.0998 0
M  V30 53 H -1.0209 0.0307 -2.8693 0
M  V30 54 H -3.2483 2.5848 -0.2238 0
M  V30 55 H -4.2273 3.7571 -2.17 0
M  V30 56 H -2.5209 1.646 -5.8848 0
M  V30 57 H -3.6059 3.103 -4.4584 0
M  V30 58 H -1.9543 0.0049 -7.4932 0
M  V30 59 H -0.2792 -0.5837 -7.4291 0
M  V30 60 H -0.5977 1.1646 -7.5714 0
M  V30 END ATOM
M  V30 BEGIN BOND
M  V30 1 1 1 2
M  V30 2 2 2 3
M  V30 3 1 2 4
M  V30 4 1 3 5
M  V30 5 2 4 6
M  V30 6 1 5 7
M  V30 7 2 5 8
M  V30 8 1 8 9
M  V30 9 1 9 10
M  V30 10 1 10 11
M  V30 11 2 10 12
M  V30 12 1 11 13
M  V30 13 1 11 14
M  V30 14 1 12 15
M  V30 15 1 12 16
M  V30 16 2 13 17
M  V30 17 1 13 18
M  V30 18 2 15 19
M  V30 19 1 15 20
M  V30 20 1 16 21
M  V30 21 1 18 22
M  V30 22 1 20 23
M  V30 23 1 20 24
M  V30 24 1 21 25
M  V30 25 2 23 26
M  V30 26 1 24 27
M  V30 27 1 24 28
M  V30 28 2 25 29
M  V30 29 1 25 30
M  V30 30 1 29 31
M  V30 31 2 30 32
M  V30 32 1 31 33
M  V30 33 2 31 34
M  V30 34 1 33 35
M  V30 35 2 35 36
M  V30 36 1 35 37
M  V30 37 1 6 8
M  V30 38 2 16 18
M  V30 39 1 21 23
M  V30 40 1 27 28
M  V30 41 1 32 34
M  V30 42 1 3 38
M  V30 43 1 4 39
M  V30 44 1 6 40
M  V30 45 1 9 41
M  V30 46 1 14 42
M  V30 47 1 14 43
M  V30 48 1 14 44
M  V30 49 1 22 45
M  V30 50 1 22 46
M  V30 51 1 22 47
M  V30 52 1 24 48
M  V30 53 1 27 49
M  V30 54 1 27 50
M  V30 55 1 28 51
M  V30 56 1 28 52
M  V30 57 1 29 53
M  V30 58 1 30 54
M  V30 59 1 32 55
M  V30 60 1 33 56
M  V30 61 1 34 57
M  V30 62 1 37 58
M  V30 63 1 37 59
M  V30 64 1 37 60
M  V30 END BOND
M  V30 END CTAB
M  END
>  <Column 1>
3373

>  <level_0>
5598

>  <index>
5599

>  <Unnamed: 0>
5599

>  <NO.>
5611

>  <Name>
trametinib

>  <IUPAC_name>
n-[3-[3-cyclopropyl-5-(2-fluoro-4-iodoanilino)-6-8-dimethyl-2-4-7-trioxopyrido[4-3-d]pyrimidin-1-yl]phenyl]acetamide

>  <SMILES>
CC(=O)Nc1cccc(-n2c(=O)n(C3CC3)c(=O)c3c(Nc4ccc(I)cc4F)n(C)c(=O)c(C)c32)c1

>  <CID>
11707110

>  <logBB>


>  <BBB+/BBB->
BBB-

>  <Inchi>
InChI=1S/C26H23FIN5O4/c1-13-22-21(23(31(3)24(13)35)30-20-10-7-15(28)11-19(20)27)25(36)33(17-8-9-17)26(37)32(22)18-6-4-5-16(12-18)29-14(2)34/h4-7-10-12-17-30H-8-9H2-1-3H3-(H-29-34)

>  <threshold>


>  <reference>
R23|

>  <group>
C

>  <Class>
-1

>  <ABC>
29.41

>  <ABCGG>
23.36

>  <nAcid>
0

>  <nBase>
0

>  <nAromAtom>
22

>  <nAromBond>
23

>  <nAtom>
60

>  <nHeavyAtom>
37

>  <nSpiro>
0

>  <nBridgehead>
0

>  <nHetero>
11

>  <nN>
5

>  <nO>
4

>  <nF>
1

>  <BalabanJ>
1.47

>  <BertzCT>
1785.49

>  <nBonds>
64

>  <nBondsO>
41

>  <nBondsS>
37

>  <nBondsD>
4

>  <nBondsT>
0

>  <nBondsA>
23

>  <nBondsM>
27

>  <nBondsKS>
52

>  <nBondsKD>
12

>  <RNCG>
0.11

>  <RPCG>
0.11

>  <FCSP3>
0.23

>  <SZ>
51.33

>  <Sm>
51.24

>  <Sv>
41.11

>  <Sse>
61.32

>  <Sp>
43.93

>  <Si>
67.54

>  <MZ>
0.86

>  <Mm>
0.85

>  <Mv>
0.69

>  <Mse>
1.02

>  <Mp>
0.73

>  <Mi>
1.13

>  <NsCH3>
3

>  <NdCH2>
0

>  <NssCH2>
2

>  <NtCH>
0

>  <NdsCH>
0

>  <NaaCH>
7

>  <NsssCH>
1

>  <NddC>
0

>  <NtsC>
0

>  <NdssC>
1

>  <NaasC>
7

>  <NaaaC>
2

>  <NssssC>
0

>  <NsNH3>
0

>  <NsNH2>
0

>  <NssNH2>
0

>  <NdNH>
0

>  <NssNH>
2

>  <NaaNH>
0

>  <NtN>
0

>  <NsssNH>
0

>  <NdsN>
0

>  <NaaN>
0

>  <NsssN>
0

>  <NddsN>
0

>  <NaasN>
3

>  <NssssN>
0

>  <NsOH>
0

>  <NdO>
4

>  <NssO>
0

>  <NaaO>
0

>  <NsF>
1

>  <NsSiH3>
0

>  <NssSiH2>
0

>  <NsssSiH>
0

>  <NssssSi>
0

>  <NsPH2>
0

>  <NssPH>
0

>  <NsssP>
0

>  <NdsssP>
0

>  <NsssssP>
0

>  <NsSH>
0

>  <NdS>
0

>  <NssS>
0

>  <NaaS>
0

>  <NdssS>
0

>  <NddssS>
0

>  <NsCl>
0

>  <NsBr>
0

>  <NsI>
1

>  <fragCpx>
349.11

>  <fMF>
0.43

>  <nHBAcc>
8

>  <nHBDon>
2

>  <Kier1>
28.53

>  <Kier2>
11.47

>  <Lipinski>
0

>  <GhoseFilter>
0

>  <FilterItLogS>
-6.9

>  <VMcGowan>
372.27

>  <LabuteASA>
223.24

>  <PEOE_VSA1>
10.63

>  <PEOE_VSA2>
28.08

>  <PEOE_VSA3>
9.18

>  <PEOE_VSA4>
0

>  <PEOE_VSA5>
0

>  <PEOE_VSA6>
6.07

>  <PEOE_VSA7>
78.75

>  <PEOE_VSA8>
34.83

>  <PEOE_VSA9>
16.89

>  <PEOE_VSA10>
17.02

>  <PEOE_VSA11>
0

>  <PEOE_VSA12>
5.91

>  <PEOE_VSA13>
11.12

>  <SMR_VSA1>
9.18

>  <SMR_VSA2>
0

>  <SMR_VSA3>
13.7

>  <SMR_VSA4>
7.05

>  <SMR_VSA5>
32.73

>  <SMR_VSA6>
10.63

>  <SMR_VSA7>
88.61

>  <SMR_VSA8>
0

>  <SMR_VSA9>
5.69

>  <SlogP_VSA1>
27.44

>  <SlogP_VSA2>
19.61

>  <SlogP_VSA3>
11.84

>  <SlogP_VSA4>
16.31

>  <SlogP_VSA5>
31.37

>  <SlogP_VSA6>
56.85

>  <SlogP_VSA7>
0

>  <SlogP_VSA8>
16.59

>  <SlogP_VSA9>
0

>  <SlogP_VSA10>
21.58

>  <SlogP_VSA11>
0

>  <EState_VSA1>
22.63

>  <EState_VSA2>
39.92

>  <EState_VSA3>
27.79

>  <EState_VSA4>
0

>  <EState_VSA5>
39.81

>  <EState_VSA6>
37.26

>  <EState_VSA7>
22.59

>  <EState_VSA8>
10.63

>  <EState_VSA9>
0

>  <EState_VSA10>
23.57

>  <VSA_EState1>
19.27

>  <VSA_EState2>
52.57

>  <VSA_EState3>
5.72

>  <VSA_EState4>
-0.35

>  <VSA_EState5>
-0.75

>  <VSA_EState6>
10.91

>  <VSA_EState7>
1.34

>  <VSA_EState8>
2.92

>  <VSA_EState9>
1.5

>  <apol>
73.37

>  <bpol>
37.61

>  <nRing>
5

>  <nHRing>
2

>  <naRing>
4

>  <naHRing>
2

>  <nARing 2>
1

>  <nAHRing 2>
0

>  <nFRing>
1

>  <nFHRing>
1

>  <nFaRing>
1

>  <nFaHRing>
1

>  <nFARing 2>
0

>  <nFAHRing 2>
0

>  <nRot>
5

>  <SLogP>
3.94

>  <SMR>
148.76

>  <TopoPSA(NO)>
107.13

>  <TopoPSA>
107.13

>  <JGI1>
0.2

>  <JGI2>
0.07

>  <JGI3>
0.05

>  <JGI4>
0.05

>  <JGI5>
0.03

>  <Diameter>
15

>  <Radius>
8

>  <TMWC10>
159.29

>  <TSRW10>
92.9

>  <MW>
615.08

>  <AMW>
10.25

>  <WPath>
3853

>  <WPol>
71

>  <Zagreb1>
206

>  <Zagreb2>
253

>  <mZagreb2>
7.89

>  <yes>


>  <nAR-cont>
0.816016

>  <nHA-cont>
0.433355441

>  <MWHBN>
0.403212695

>  <MWHBN-cont>
0.463425703

>  <TPSA-cont>
0.252166076

>  <pka_cont>
0.97

>  <yes.1>


>  <BBB_SCORE>
2.933842148

>  <MMFF94 Energy>
23.084

$$$$
Compound 2687
Actelion Java MolfileCreator 2.0

  0  0  0  0  0  0              0 V3000
M  V30 BEGIN CTAB
M  V30 COUNTS 29 28 0 0 0
M  V30 BEGIN ATOM
M  V30 1 O -2.5383 0.1536 -1.0762 0
M  V30 2 C -2.4341 0.0836 0.1388 0
M  V30 3 O -1.3361 0.4796 0.8442 0
M  V30 4 C -3.4587 -0.5094 1.0557 0
M  V30 5 C -0.3681 1.2672 0.1217 0 CFG=2
M  V30 6 C 1.0498 0.6807 0.2879 0
M  V30 7 C -0.4187 2.6677 0.7336 0
M  V30 8 N 1.3291 -0.6486 -0.4646 0 CHG=1
M  V30 9 C 0.5622 -1.8159 0.142 0
M  V30 10 C 2.8263 -0.9483 -0.3272 0
M  V30 11 C 0.9979 -0.541 -1.95 0
M  V30 12 H -3.087 -1.4523 1.4637 0
M  V30 13 H -3.6886 0.1938 1.8605 0
M  V30 14 H -4.3783 -0.7004 0.4954 0
M  V30 15 H -0.6121 1.3681 -0.94 0
M  V30 16 H 1.2632 0.4804 1.345 0
M  V30 17 H 1.7883 1.3978 -0.0906 0
M  V30 18 H 0.2894 3.3427 0.2432 0
M  V30 19 H -0.1912 2.6368 1.8051 0
M  V30 20 H -1.4249 3.0902 0.6369 0
M  V30 21 H 0.9451 -2.7443 -0.2933 0
M  V30 22 H 0.7181 -1.812 1.2244 0
M  V30 23 H -0.4948 -1.7186 -0.1035 0
M  V30 24 H 3.0641 -1.0313 0.7374 0
M  V30 25 H 3.0436 -1.889 -0.8422 0
M  V30 26 H 3.3868 -0.1278 -0.7852 0
M  V30 27 H 1.3566 -1.4463 -2.4493 0
M  V30 28 H -0.0842 -0.4621 -2.0706 0
M  V30 29 H 1.5017 0.3428 -2.3514 0
M  V30 END ATOM
M  V30 BEGIN BOND
M  V30 1 2 1 2
M  V30 2 1 2 3
M  V30 3 1 2 4
M  V30 4 1 3 5
M  V30 5 1 5 6
M  V30 6 1 5 7
M  V30 7 1 6 8
M  V30 8 1 8 9
M  V30 9 1 8 10
M  V30 10 1 8 11
M  V30 11 1 4 12
M  V30 12 1 4 13
M  V30 13 1 4 14
M  V30 14 1 5 15
M  V30 15 1 6 16
M  V30 16 1 6 17
M  V30 17 1 7 18
M  V30 18 1 7 19
M  V30 19 1 7 20
M  V30 20 1 9 21
M  V30 21 1 9 22
M  V30 22 1 9 23
M  V30 23 1 10 24
M  V30 24 1 10 25
M  V30 25 1 10 26
M  V30 26 1 11 27
M  V30 27 1 11 28
M  V30 28 1 11 29
M  V30 END BOND
M  V30 BEGIN COLLECTION
M  V30 MDLV30/STERAC1 ATOMS=(1 5)
M  V30 END COLLECTION
M  V30 END CTAB
M  END
>  <Column 1>
3374

>  <level_0>
5599

>  <index>
5600

>  <Unnamed: 0>
5600

>  <NO.>
5612

>  <Name>
methacholine

>  <IUPAC_name>
2-acetyloxypropyl(trimethyl)azanium

>  <SMILES>
CC(=O)OC(C)C[N+](C)(C)C

>  <CID>
1993

>  <logBB>


>  <BBB+/BBB->
BBB-

>  <Inchi>
InChI=1S/C8H18NO2/c1-7(11-8(2)10)6-9(3-4)5/h7H-6H2-1-5H3/q+1

>  <threshold>


>  <reference>
R23|

>  <group>
C

>  <Class>
-1

>  <ABC>
7.88

>  <ABCGG>
7.99

>  <nAcid>
0

>  <nBase>
1

>  <nAromAtom>
0

>  <nAromBond>
0

>  <nAtom>
29

>  <nHeavyAtom>
11

>  <nSpiro>
0

>  <nBridgehead>
0

>  <nHetero>
3

>  <nN>
1

>  <nO>
2

>  <nF>
0

>  <BalabanJ>
3.61

>  <BertzCT>
137.52

>  <nBonds>
28

>  <nBondsO>
10

>  <nBondsS>
27

>  <nBondsD>
1

>  <nBondsT>
0

>  <nBondsA>
0

>  <nBondsM>
1

>  <nBondsKS>
27

>  <nBondsKD>
1

>  <RNCG>
0.43

>  <RPCG>
0.15

>  <FCSP3>
0.88

>  <SZ>
14.83

>  <Sm>
13.34

>  <Sv>
15.06

>  <Sse>
28.82

>  <Sp>
16.81

>  <Si>
33.45

>  <MZ>
0.51

>  <Mm>
0.46

>  <Mv>
0.52

>  <Mse>
0.99

>  <Mp>
0.58

>  <Mi>
1.15

>  <NsCH3>
5

>  <NdCH2>
0

>  <NssCH2>
1

>  <NtCH>
0

>  <NdsCH>
0

>  <NaaCH>
0

>  <NsssCH>
1

>  <NddC>
0

>  <NtsC>
0

>  <NdssC>
1

>  <NaasC>
0

>  <NaaaC>
0

>  <NssssC>
0

>  <NsNH3>
0

>  <NsNH2>
0

>  <NssNH2>
0

>  <NdNH>
0

>  <NssNH>
0

>  <NaaNH>
0

>  <NtN>
0

>  <NsssNH>
0

>  <NdsN>
0

>  <NaaN>
0

>  <NsssN>
0

>  <NddsN>
0

>  <NaasN>
0

>  <NssssN>
1

>  <NsOH>
0

>  <NdO>
1

>  <NssO>
1

>  <NaaO>
0

>  <NsF>
0

>  <NsSiH3>
0

>  <NssSiH2>
0

>  <NsssSiH>
0

>  <NssssSi>
0

>  <NsPH2>
0

>  <NssPH>
0

>  <NsssP>
0

>  <NdsssP>
0

>  <NsssssP>
0

>  <NsSH>
0

>  <NdS>
0

>  <NssS>
0

>  <NaaS>
0

>  <NdssS>
0

>  <NddssS>
0

>  <NsCl>
0

>  <NsBr>
0

>  <NsI>
0

>  <fragCpx>
10.03

>  <fMF>
0

>  <nHBAcc>
2

>  <nHBDon>
0

>  <Kier1>
11

>  <Kier2>
4.13

>  <Lipinski>
1

>  <GhoseFilter>
1

>  <FilterItLogS>
-2

>  <VMcGowan>
143.15

>  <LabuteASA>
68.54

>  <PEOE_VSA1>
9.22

>  <PEOE_VSA2>
4.79

>  <PEOE_VSA3>
0

>  <PEOE_VSA4>
0

>  <PEOE_VSA5>
0

>  <PEOE_VSA6>
0

>  <PEOE_VSA7>
6.92

>  <PEOE_VSA8>
6.92

>  <PEOE_VSA9>
21.14

>  <PEOE_VSA10>
12.65

>  <PEOE_VSA11>
0

>  <PEOE_VSA12>
0

>  <PEOE_VSA13>
0

>  <SMR_VSA1>
14.01

>  <SMR_VSA2>
0

>  <SMR_VSA3>
0

>  <SMR_VSA4>
0

>  <SMR_VSA5>
19.95

>  <SMR_VSA6>
27.69

>  <SMR_VSA7>
0

>  <SMR_VSA8>
0

>  <SMR_VSA9>
0

>  <SlogP_VSA1>
0

>  <SlogP_VSA2>
44.24

>  <SlogP_VSA3>
9.53

>  <SlogP_VSA4>
0

>  <SlogP_VSA5>
13.85

>  <SlogP_VSA6>
0

>  <SlogP_VSA7>
0

>  <SlogP_VSA8>
0

>  <SlogP_VSA9>
0

>  <SlogP_VSA10>
0

>  <SlogP_VSA11>
0

>  <EState_VSA1>
0

>  <EState_VSA2>
12.07

>  <EState_VSA3>
0

>  <EState_VSA4>
11.03

>  <EState_VSA5>
6.92

>  <EState_VSA6>
0

>  <EState_VSA7>
6.92

>  <EState_VSA8>
21.14

>  <EState_VSA9>
4.74

>  <EState_VSA10>
4.79

>  <VSA_EState1>
5.79

>  <VSA_EState2>
10.51

>  <VSA_EState3>
0

>  <VSA_EState4>
0

>  <VSA_EState5>
-0.2

>  <VSA_EState6>
0

>  <VSA_EState7>
0.01

>  <VSA_EState8>
4.19

>  <VSA_EState9>
6.21

>  <apol>
28.07

>  <bpol>
22.94

>  <nRing>
0

>  <nHRing>
0

>  <naRing>
0

>  <naHRing>
0

>  <nARing 2>
0

>  <nAHRing 2>
0

>  <nFRing>
0

>  <nFHRing>
0

>  <nFaRing>
0

>  <nFaHRing>
0

>  <nFARing 2>
0

>  <nFAHRing 2>
0

>  <nRot>
3

>  <SLogP>
0.64

>  <SMR>
44.13

>  <TopoPSA(NO)>
26.3

>  <TopoPSA>
26.3

>  <JGI1>
0.5

>  <JGI2>
0.06

>  <JGI3>
0.13

>  <JGI4>
0.02

>  <JGI5>
0.07

>  <Diameter>
6

>  <Radius>
3

>  <TMWC10>
83.49

>  <TSRW10>
40.08

>  <MW>
160.13

>  <AMW>
5.52

>  <WPath>
170

>  <WPol>
9

>  <Zagreb1>
48

>  <Zagreb2>
47

>  <mZagreb2>
2.38

>  <yes>


>  <nAR-cont>
0.336376

>  <nHA-cont>
0.720786536

>  <MWHBN>
0.158049688

>  <MWHBN-cont>
0.951689322

>  <TPSA-cont>
0.816409669

>  <pka_cont>
0.97

>  <yes.1>


>  <BBB_SCORE>
4.602515856

>  <MMFF94 Energy>
27.218

$$$$
Compound 2688
Actelion Java MolfileCreator 2.0

  0  0  0  0  0  0              0 V3000
M  V30 BEGIN CTAB
M  V30 COUNTS 58 62 0 0 0
M  V30 BEGIN ATOM
M  V30 1 Cl 4.2459 1.3866 1.8763 0
M  V30 2 C 2.6303 0.7584 1.808 0
M  V30 3 C 1.6089 1.2697 2.7251 0
M  V30 4 C 2.3696 -0.2223 0.9272 0
M  V30 5 C 1.6527 2.5342 3.1881 0
M  V30 6 C 0.4328 0.308 2.9854 0
M  V30 7 C 1.0296 -0.9135 0.7874 0
M  V30 8 C 0.5594 3.169 3.9524 0
M  V30 9 C -0.091 -0.1751 1.5726 0
M  V30 10 C -0.7331 0.9248 3.7697 0
M  V30 11 C 0.9218 -0.9135 3.8187 0
M  V30 12 C 0.676 -1.2108 -0.6881 0
M  V30 13 O 0.6323 4.3315 4.3259 0
M  V30 14 C -0.6606 2.3719 4.1906 0
M  V30 15 C -0.6959 0.9904 0.7514 0
M  V30 16 C -0.6247 1.291 5.2369 0
M  V30 17 C 2.0E-4 -0.0791 -1.4879 0
M  V30 18 C -0.3044 -2.392 -0.8222 0
M  V30 19 C -1.1352 0.5664 -0.6461 0
M  V30 20 C -0.5894 -0.853 -2.7308 0
M  V30 21 C 0.9984 1.0217 -1.8943 0
M  V30 22 C -1.1173 -2.1563 -2.0978 0
M  V30 23 O -1.6762 -0.0654 -3.2757 0
M  V30 24 C 0.4604 -1.0531 -3.8695 0
M  V30 25 C -2.36 -0.593 -4.3278 0
M  V30 26 O 0.7168 -0.1409 -4.6647 0
M  V30 27 C 1.1551 -2.3823 -4.0238 0
M  V30 28 O -2.1958 -1.7153 -4.7845 0
M  V30 29 C -3.3657 0.3937 -4.8338 0
M  V30 30 H 3.1768 -0.5927 0.2977 0
M  V30 31 H 2.4681 3.2148 2.9664 0
M  V30 32 H 1.174 -1.8963 1.2585 0
M  V30 33 H -0.9043 -0.8951 1.7431 0
M  V30 34 H -1.6967 0.5179 3.4781 0
M  V30 35 H 1.3017 -0.6052 4.799 0
M  V30 36 H 1.7349 -1.4723 3.3474 0
M  V30 37 H 0.0975 -1.6151 3.9936 0
M  V30 38 H 1.5995 -1.5062 -1.204 0
M  V30 39 H -1.5768 2.9523 4.1366 0
M  V30 40 H 0.0027 1.8284 0.6703 0
M  V30 41 H -1.5762 1.3893 1.2695 0
M  V30 42 H -1.5053 1.1666 5.8588 0
M  V30 43 H 0.3042 1.1439 5.7755 0
M  V30 44 H -0.9841 -2.467 0.0335 0
M  V30 45 H 0.2435 -3.3394 -0.8739 0
M  V30 46 H -1.5348 1.4452 -1.1686 0
M  V30 47 H -1.9805 -0.1232 -0.534 0
M  V30 48 H 1.3569 1.599 -1.0383 0
M  V30 49 H 1.8889 0.6055 -2.3769 0
M  V30 50 H 0.5345 1.7306 -2.5891 0
M  V30 51 H -1.0491 -3.0235 -2.7604 0
M  V30 52 H -2.1799 -2.0652 -1.8393 0
M  V30 53 H 1.999 -2.2682 -4.7111 0
M  V30 54 H 1.5508 -2.7348 -3.0715 0
M  V30 55 H 0.4638 -3.115 -4.4459 0
M  V30 56 H -4.1079 0.5966 -4.0578 0
M  V30 57 H -2.8615 1.3155 -5.135 0
M  V30 58 H -3.875 -0.0233 -5.7071 0
M  V30 END ATOM
M  V30 BEGIN BOND
M  V30 1 1 1 2
M  V30 2 1 2 3
M  V30 3 2 2 4
M  V30 4 2 3 5
M  V30 5 1 3 6
M  V30 6 1 4 7
M  V30 7 1 5 8
M  V30 8 1 6 9
M  V30 9 1 6 10
M  V30 10 1 6 11
M  V30 11 1 7 12
M  V30 12 2 8 13
M  V30 13 1 8 14
M  V30 14 1 9 15
M  V30 15 1 10 16
M  V30 16 1 12 17
M  V30 17 1 12 18
M  V30 18 1 15 19
M  V30 19 1 17 20
M  V30 20 1 17 21
M  V30 21 1 18 22
M  V30 22 1 20 23
M  V30 23 1 20 24
M  V30 24 1 23 25
M  V30 25 2 24 26
M  V30 26 1 24 27
M  V30 27 2 25 28
M  V30 28 1 25 29
M  V30 29 1 7 9
M  V30 30 1 10 14
M  V30 31 1 14 16
M  V30 32 1 17 19
M  V30 33 1 20 22
M  V30 34 1 4 30
M  V30 35 1 5 31
M  V30 36 1 7 32
M  V30 37 1 9 33
M  V30 38 1 10 34
M  V30 39 1 11 35
M  V30 40 1 11 36
M  V30 41 1 11 37
M  V30 42 1 12 38
M  V30 43 1 14 39
M  V30 44 1 15 40
M  V30 45 1 15 41
M  V30 46 1 16 42
M  V30 47 1 16 43
M  V30 48 1 18 44
M  V30 49 1 18 45
M  V30 50 1 19 46
M  V30 51 1 19 47
M  V30 52 1 21 48
M  V30 53 1 21 49
M  V30 54 1 21 50
M  V30 55 1 22 51
M  V30 56 1 22 52
M  V30 57 1 27 53
M  V30 58 1 27 54
M  V30 59 1 27 55
M  V30 60 1 29 56
M  V30 61 1 29 57
M  V30 62 1 29 58
M  V30 END BOND
M  V30 END CTAB
M  END
>  <Column 1>
3375

>  <level_0>
5600

>  <index>
5601

>  <Unnamed: 0>
5601

>  <NO.>
5613

>  <Name>
cyproterone

>  <IUPAC_name>
(15-acetyl-9-chloro-2-16-dimethyl-6-oxo-15-pentacyclo[9.7.0.02-8.03-5.012-16]octadeca-7-9-dienyl) acetate

>  <SMILES>
CC(=O)OC1(C(C)=O)CCC2C3C=C(Cl)C4=CC(=O)C5CC5C4(C)C3CCC21C

>  <CID>
2914

>  <logBB>


>  <BBB+/BBB->
BBB-

>  <Inchi>
InChI=1S/C24H29ClO4/c1-12(26)24(29-13(2)27)8-6-16-14-10-20(25)19-11-21(28)15-9-18(15)23(19-4)17(14)5-7-22(16-24)3/h10-11-14-18H-5-9H2-1-4H3

>  <threshold>


>  <reference>
R23|

>  <group>
C

>  <Class>
-1

>  <ABC>
23.7

>  <ABCGG>
20.13

>  <nAcid>
0

>  <nBase>
0

>  <nAromAtom>
0

>  <nAromBond>
0

>  <nAtom>
58

>  <nHeavyAtom>
29

>  <nSpiro>
0

>  <nBridgehead>
0

>  <nHetero>
5

>  <nN>
0

>  <nO>
4

>  <nF>
0

>  <BalabanJ>
1.5

>  <BertzCT>
902.56

>  <nBonds>
62

>  <nBondsO>
33

>  <nBondsS>
57

>  <nBondsD>
5

>  <nBondsT>
0

>  <nBondsA>
0

>  <nBondsM>
5

>  <nBondsKS>
57

>  <nBondsKD>
5

>  <RNCG>
0.24

>  <RPCG>
0.16

>  <FCSP3>
0.71

>  <SZ>
37

>  <Sm>
34.71

>  <Sv>
35.81

>  <Sse>
57.96

>  <Sp>
38.81

>  <Si>
65.01

>  <MZ>
0.64

>  <Mm>
0.6

>  <Mv>
0.62

>  <Mse>
1

>  <Mp>
0.67

>  <Mi>
1.12

>  <NsCH3>
4

>  <NdCH2>
0

>  <NssCH2>
5

>  <NtCH>
0

>  <NdsCH>
2

>  <NaaCH>
0

>  <NsssCH>
5

>  <NddC>
0

>  <NtsC>
0

>  <NdssC>
5

>  <NaasC>
0

>  <NaaaC>
0

>  <NssssC>
3

>  <NsNH3>
0

>  <NsNH2>
0

>  <NssNH2>
0

>  <NdNH>
0

>  <NssNH>
0

>  <NaaNH>
0

>  <NtN>
0

>  <NsssNH>
0

>  <NdsN>
0

>  <NaaN>
0

>  <NsssN>
0

>  <NddsN>
0

>  <NaasN>
0

>  <NssssN>
0

>  <NsOH>
0

>  <NdO>
3

>  <NssO>
1

>  <NaaO>
0

>  <NsF>
0

>  <NsSiH3>
0

>  <NssSiH2>
0

>  <NsssSiH>
0

>  <NssssSi>
0

>  <NsPH2>
0

>  <NssPH>
0

>  <NsssP>
0

>  <NdsssP>
0

>  <NsssssP>
0

>  <NsSH>
0

>  <NdS>
0

>  <NssS>
0

>  <NaaS>
0

>  <NdssS>
0

>  <NddssS>
0

>  <NsCl>
1

>  <NsBr>
0

>  <NsI>
0

>  <fragCpx>
277.05

>  <fMF>
0.31

>  <nHBAcc>
4

>  <nHBDon>
0

>  <Kier1>
20.88

>  <Kier2>
6.51

>  <Lipinski>
1

>  <GhoseFilter>
1

>  <FilterItLogS>
-4.78

>  <VMcGowan>
308.94

>  <LabuteASA>
176.63

>  <PEOE_VSA1>
4.74

>  <PEOE_VSA2>
14.38

>  <PEOE_VSA3>
0

>  <PEOE_VSA4>
0

>  <PEOE_VSA5>
0

>  <PEOE_VSA6>
31.52

>  <PEOE_VSA7>
74.35

>  <PEOE_VSA8>
28.7

>  <PEOE_VSA9>
0

>  <PEOE_VSA10>
0

>  <PEOE_VSA11>
17.17

>  <PEOE_VSA12>
0

>  <PEOE_VSA13>
0

>  <SMR_VSA1>
19.12

>  <SMR_VSA2>
0

>  <SMR_VSA3>
0

>  <SMR_VSA4>
40.42

>  <SMR_VSA5>
65.4

>  <SMR_VSA6>
0

>  <SMR_VSA7>
22.76

>  <SMR_VSA8>
0

>  <SMR_VSA9>
0

>  <SlogP_VSA1>
0

>  <SlogP_VSA2>
23.14

>  <SlogP_VSA3>
19.12

>  <SlogP_VSA4>
40.42

>  <SlogP_VSA5>
59.8

>  <SlogP_VSA6>
22.76

>  <SlogP_VSA7>
0

>  <SlogP_VSA8>
0

>  <SlogP_VSA9>
0

>  <SlogP_VSA10>
0

>  <SlogP_VSA11>
0

>  <EState_VSA1>
5.6

>  <EState_VSA2>
46.12

>  <EState_VSA3>
23.29

>  <EState_VSA4>
31.26

>  <EState_VSA5>
6.92

>  <EState_VSA6>
6.92

>  <EState_VSA7>
6.08

>  <EState_VSA8>
19.92

>  <EState_VSA9>
16.34

>  <EState_VSA10>
14.38

>  <VSA_EState1>
5.82

>  <VSA_EState2>
37.13

>  <VSA_EState3>
0.71

>  <VSA_EState4>
-0.45

>  <VSA_EState5>
1.27

>  <VSA_EState6>
0

>  <VSA_EState7>
8.18

>  <VSA_EState8>
7.42

>  <VSA_EState9>
0

>  <apol>
64.81

>  <bpol>
33.94

>  <nRing>
5

>  <nHRing>
0

>  <naRing>
0

>  <naHRing>
0

>  <nARing 2>
5

>  <nAHRing 2>
0

>  <nFRing>
1

>  <nFHRing>
0

>  <nFaRing>
0

>  <nFaHRing>
0

>  <nFARing 2>
1

>  <nFAHRing 2>
0

>  <nRot>
2

>  <SLogP>
4.61

>  <SMR>
108.95

>  <TopoPSA(NO)>
60.44

>  <TopoPSA>
60.44

>  <JGI1>
0.29

>  <JGI2>
0.13

>  <JGI3>
0.07

>  <JGI4>
0.06

>  <JGI5>
0.03

>  <Diameter>
12

>  <Radius>
6

>  <TMWC10>
144.15

>  <TSRW10>
87.15

>  <MW>
416.18

>  <AMW>
7.18

>  <WPath>
1908

>  <WPol>
67

>  <Zagreb1>
178

>  <Zagreb2>
233

>  <mZagreb2>
5.91

>  <yes>


>  <nAR-cont>
0

>  <nHA-cont>
0.785905698

>  <MWHBN>
0.19607372

>  <MWHBN-cont>
0.998578822

>  <TPSA-cont>
0.578091269

>  <pka_cont>
0.97

>  <yes.1>


>  <BBB_SCORE>
3.924956469

>  <MMFF94 Energy>
102.06

$$$$
Compound 2689
Actelion Java MolfileCreator 2.0

  0  0  0  0  0  0              0 V3000
M  V30 BEGIN CTAB
M  V30 COUNTS 57 60 0 0 0
M  V30 BEGIN ATOM
M  V30 1 O 0.9664 1.9336 6.4564 0
M  V30 2 C 0.8154 1.9413 5.2364 0
M  V30 3 C -0.3112 1.181 4.644 0
M  V30 4 C 1.7114 2.7481 4.3279 0
M  V30 5 C -0.5674 1.2058 3.3249 0
M  V30 6 C 1.7126 2.1807 2.9121 0
M  V30 7 C -1.7045 0.4714 2.7982 0
M  V30 8 C 0.286 1.9888 2.3248 0
M  V30 9 C -1.9665 0.3669 1.4879 0
M  V30 10 C 0.3407 1.2452 0.929 0
M  V30 11 C -0.3521 3.3918 2.1284 0
M  V30 12 C -1.0951 0.9543 0.4003 0
M  V30 13 C 1.1938 -0.0445 0.9512 0
M  V30 14 C -1.1275 0.0924 -0.883 0
M  V30 15 C 1.1982 -0.7838 -0.3852 0
M  V30 16 C -0.2146 -1.1496 -0.9117 0
M  V30 17 C -0.7101 0.8901 -2.133 0
M  V30 18 C -0.1741 -1.4978 -2.4502 0
M  V30 19 C -0.7662 -2.3077 -0.0587 0
M  V30 20 C -0.0819 -0.107 -3.1098 0
M  V30 21 O 1.0237 -2.2714 -2.7043 0
M  V30 22 C -1.3949 -2.3604 -2.9039 0
M  V30 23 C 1.2738 -2.6252 -3.9944 0
M  V30 24 O -1.4167 -3.5823 -2.7115 0
M  V30 25 C -2.5545 -1.7056 -3.611 0
M  V30 26 O 0.6233 -2.2636 -4.9646 0
M  V30 27 C 2.4818 -3.507 -4.0599 0
M  V30 28 H -0.9161 0.6282 5.3545 0
M  V30 29 H 1.3863 3.7923 4.3496 0
M  V30 30 H 2.7311 2.7058 4.7272 0
M  V30 31 H 2.2346 1.2189 2.9709 0
M  V30 32 H 2.3115 2.8253 2.2572 0
M  V30 33 H -2.3834 2.0E-4 3.5073 0
M  V30 34 H -2.8706 -0.1579 1.1856 0
M  V30 35 H 0.8284 1.9264 0.2175 0
M  V30 36 H 0.2329 3.9879 1.419 0
M  V30 37 H -0.4091 3.9558 3.0654 0
M  V30 38 H -1.3781 3.3403 1.7507 0
M  V30 39 H -1.568 1.9079 0.1296 0
M  V30 40 H 2.2386 0.206 1.1647 0
M  V30 41 H 0.8698 -0.7172 1.7519 0
M  V30 42 H -2.1654 -0.2284 -1.0461 0
M  V30 43 H 1.7315 -0.1538 -1.1075 0
M  V30 44 H 1.8055 -1.6922 -0.28 0
M  V30 45 H 0.0133 1.6793 -1.9027 0
M  V30 46 H -1.5813 1.3826 -2.5796 0
M  V30 47 H -1.819 -2.5115 -0.2808 0
M  V30 48 H -0.7109 -2.1011 1.0132 0
M  V30 49 H -0.1969 -3.227 -0.236 0
M  V30 50 H -0.5752 -0.0508 -4.0842 0
M  V30 51 H 0.9634 0.1725 -3.2919 0
M  V30 52 H -2.2691 -1.4507 -4.6338 0
M  V30 53 H -3.3926 -2.4083 -3.6519 0
M  V30 54 H -2.8941 -0.8185 -3.0766 0
M  V30 55 H 3.3609 -2.9561 -3.7168 0
M  V30 56 H 2.3232 -4.3989 -3.4486 0
M  V30 57 H 2.6452 -3.8211 -5.0946 0
M  V30 END ATOM
M  V30 BEGIN BOND
M  V30 1 2 1 2
M  V30 2 1 2 3
M  V30 3 1 2 4
M  V30 4 2 3 5
M  V30 5 1 4 6
M  V30 6 1 5 7
M  V30 7 1 5 8
M  V30 8 2 7 9
M  V30 9 1 8 10
M  V30 10 1 8 11
M  V30 11 1 9 12
M  V30 12 1 10 13
M  V30 13 1 12 14
M  V30 14 1 13 15
M  V30 15 1 14 16
M  V30 16 1 14 17
M  V30 17 1 16 18
M  V30 18 1 16 19
M  V30 19 1 17 20
M  V30 20 1 18 21
M  V30 21 1 18 22
M  V30 22 1 21 23
M  V30 23 2 22 24
M  V30 24 1 22 25
M  V30 25 2 23 26
M  V30 26 1 23 27
M  V30 27 1 6 8
M  V30 28 1 10 12
M  V30 29 1 15 16
M  V30 30 1 18 20
M  V30 31 1 3 28
M  V30 32 1 4 29
M  V30 33 1 4 30
M  V30 34 1 6 31
M  V30 35 1 6 32
M  V30 36 1 7 33
M  V30 37 1 9 34
M  V30 38 1 10 35
M  V30 39 1 11 36
M  V30 40 1 11 37
M  V30 41 1 11 38
M  V30 42 1 12 39
M  V30 43 1 13 40
M  V30 44 1 13 41
M  V30 45 1 14 42
M  V30 46 1 15 43
M  V30 47 1 15 44
M  V30 48 1 17 45
M  V30 49 1 17 46
M  V30 50 1 19 47
M  V30 51 1 19 48
M  V30 52 1 19 49
M  V30 53 1 20 50
M  V30 54 1 20 51
M  V30 55 1 25 52
M  V30 56 1 25 53
M  V30 57 1 25 54
M  V30 58 1 27 55
M  V30 59 1 27 56
M  V30 60 1 27 57
M  V30 END BOND
M  V30 END CTAB
M  END
>  <Column 1>
3376

>  <level_0>
5601

>  <index>
5602

>  <Unnamed: 0>
5602

>  <NO.>
5614

>  <Name>
3-20-dioxopregna-4-6-dien-17-yl acetate

>  <IUPAC_name>
(17-acetyl-10-13-dimethyl-3-oxo-2-8-9-11-12-14-15-16-octahydro-1h-cyclopenta[a]phenanthren-17-yl) acetate

>  <SMILES>
CC(=O)OC1(C(C)=O)CCC2C3C=CC4=CC(=O)CCC4(C)C3CCC21C

>  <CID>
3839280

>  <logBB>


>  <BBB+/BBB->
BBB-

>  <Inchi>
InChI=1S/C23H30O4/c1-14(24)23(27-15(2)25)12-9-20-18-6-5-16-13-17(26)7-10-21(16-3)19(18)8-11-22(20-23)4/h5-6-13-18-20H-7-12H2-1-4H3

>  <threshold>


>  <reference>
R23|

>  <group>
C

>  <Class>
-1

>  <ABC>
21.66

>  <ABCGG>
17.62

>  <nAcid>
0

>  <nBase>
0

>  <nAromAtom>
0

>  <nAromBond>
0

>  <nAtom>
57

>  <nHeavyAtom>
27

>  <nSpiro>
0

>  <nBridgehead>
0

>  <nHetero>
4

>  <nN>
0

>  <nO>
4

>  <nF>
0

>  <BalabanJ>
1.64

>  <BertzCT>
777.25

>  <nBonds>
60

>  <nBondsO>
30

>  <nBondsS>
55

>  <nBondsD>
5

>  <nBondsT>
0

>  <nBondsA>
0

>  <nBondsM>
5

>  <nBondsKS>
55

>  <nBondsKD>
5

>  <RNCG>
0.24

>  <RPCG>
0.16

>  <FCSP3>
0.7

>  <SZ>
33.33

>  <Sm>
30.85

>  <Sv>
33.99

>  <Sse>
56.64

>  <Sp>
36.9

>  <Si>
64.07

>  <MZ>
0.58

>  <Mm>
0.54

>  <Mv>
0.6

>  <Mse>
0.99

>  <Mp>
0.65

>  <Mi>
1.12

>  <NsCH3>
4

>  <NdCH2>
0

>  <NssCH2>
6

>  <NtCH>
0

>  <NdsCH>
3

>  <NaaCH>
0

>  <NsssCH>
3

>  <NddC>
0

>  <NtsC>
0

>  <NdssC>
4

>  <NaasC>
0

>  <NaaaC>
0

>  <NssssC>
3

>  <NsNH3>
0

>  <NsNH2>
0

>  <NssNH2>
0

>  <NdNH>
0

>  <NssNH>
0

>  <NaaNH>
0

>  <NtN>
0

>  <NsssNH>
0

>  <NdsN>
0

>  <NaaN>
0

>  <NsssN>
0

>  <NddsN>
0

>  <NaasN>
0

>  <NssssN>
0

>  <NsOH>
0

>  <NdO>
3

>  <NssO>
1

>  <NaaO>
0

>  <NsF>
0

>  <NsSiH3>
0

>  <NssSiH2>
0

>  <NsssSiH>
0

>  <NssssSi>
0

>  <NsPH2>
0

>  <NssPH>
0

>  <NsssP>
0

>  <NdsssP>
0

>  <NsssssP>
0

>  <NsSH>
0

>  <NdS>
0

>  <NssS>
0

>  <NaaS>
0

>  <NdssS>
0

>  <NddssS>
0

>  <NsCl>
0

>  <NsBr>
0

>  <NsI>
0

>  <fragCpx>
198.04

>  <fMF>
0.3

>  <nHBAcc>
4

>  <nHBDon>
0

>  <Kier1>
20.28

>  <Kier2>
6.77

>  <Lipinski>
1

>  <GhoseFilter>
1

>  <FilterItLogS>
-4.17

>  <VMcGowan>
293.47

>  <LabuteASA>
160.96

>  <PEOE_VSA1>
4.74

>  <PEOE_VSA2>
14.38

>  <PEOE_VSA3>
0

>  <PEOE_VSA4>
0

>  <PEOE_VSA5>
0

>  <PEOE_VSA6>
26

>  <PEOE_VSA7>
73.85

>  <PEOE_VSA8>
18.76

>  <PEOE_VSA9>
0

>  <PEOE_VSA10>
0

>  <PEOE_VSA11>
17.17

>  <PEOE_VSA12>
0

>  <PEOE_VSA13>
0

>  <SMR_VSA1>
19.12

>  <SMR_VSA2>
0

>  <SMR_VSA3>
0

>  <SMR_VSA4>
28.58

>  <SMR_VSA5>
71.82

>  <SMR_VSA6>
0

>  <SMR_VSA7>
23.8

>  <SMR_VSA8>
0

>  <SMR_VSA9>
0

>  <SlogP_VSA1>
0

>  <SlogP_VSA2>
23.14

>  <SlogP_VSA3>
19.12

>  <SlogP_VSA4>
28.58

>  <SlogP_VSA5>
66.22

>  <SlogP_VSA6>
23.8

>  <SlogP_VSA7>
0

>  <SlogP_VSA8>
0

>  <SlogP_VSA9>
0

>  <SlogP_VSA10>
0

>  <SlogP_VSA11>
0

>  <EState_VSA1>
5.6

>  <EState_VSA2>
28.37

>  <EState_VSA3>
30.6

>  <EState_VSA4>
25.68

>  <EState_VSA5>
12.5

>  <EState_VSA6>
6.92

>  <EState_VSA7>
6.08

>  <EState_VSA8>
26

>  <EState_VSA9>
4.74

>  <EState_VSA10>
14.38

>  <VSA_EState1>
5.79

>  <VSA_EState2>
36.48

>  <VSA_EState3>
0

>  <VSA_EState4>
-0.09

>  <VSA_EState5>
1.03

>  <VSA_EState6>
0

>  <VSA_EState7>
11.24

>  <VSA_EState8>
7.46

>  <VSA_EState9>
0

>  <apol>
61.62

>  <bpol>
34.44

>  <nRing>
4

>  <nHRing>
0

>  <naRing>
0

>  <naHRing>
0

>  <nARing 2>
4

>  <nAHRing 2>
0

>  <nFRing>
1

>  <nFHRing>
0

>  <nFaRing>
0

>  <nFaHRing>
0

>  <nFARing 2>
1

>  <nFAHRing 2>
0

>  <nRot>
2

>  <SLogP>
4.19

>  <SMR>
101.79

>  <TopoPSA(NO)>
60.44

>  <TopoPSA>
60.44

>  <JGI1>
0.3

>  <JGI2>
0.14

>  <JGI3>
0.07

>  <JGI4>
0.06

>  <JGI5>
0.03

>  <Diameter>
12

>  <Radius>
6

>  <TMWC10>
137.21

>  <TSRW10>
78.26

>  <MW>
370.21

>  <AMW>
6.49

>  <WPath>
1620

>  <WPol>
59

>  <Zagreb1>
158

>  <Zagreb2>
201

>  <mZagreb2>
5.62

>  <yes>


>  <nAR-cont>
0.199399

>  <nHA-cont>
0.860070871

>  <MWHBN>
0.20789111

>  <MWHBN-cont>
0.999725779

>  <TPSA-cont>
0.578091269

>  <pka_cont>
0.97

>  <yes.1>


>  <BBB_SCORE>
4.200241078

>  <MMFF94 Energy>
74.073

$$$$
Compound 2690
Actelion Java MolfileCreator 2.0

  0  0  0  0  0  0              0 V3000
M  V30 BEGIN CTAB
M  V30 COUNTS 62 65 0 0 0
M  V30 BEGIN ATOM
M  V30 1 O -4.5852 4.827 0.7229 0
M  V30 2 C -3.9646 3.8694 0.2679 0
M  V30 3 C -3.9413 2.5913 1.0173 0
M  V30 4 C -3.2948 3.9108 -1.076 0
M  V30 5 C -3.2436 1.5166 0.5994 0
M  V30 6 C -2.0505 3.039 -1.0611 0
M  V30 7 C -2.3198 1.5618 -0.6371 0
M  V30 8 C -3.3451 0.1581 1.2969 0
M  V30 9 C -0.9247 0.9012 -0.2963 0
M  V30 10 C -3.0383 0.8396 -1.801 0
M  V30 11 C -1.9475 -0.3654 1.6467 0
M  V30 12 C -4.2267 0.1046 2.5534 0
M  V30 13 C -1.0555 -0.4728 0.4015 0
M  V30 14 C 0.0139 0.7817 -1.5139 0
M  V30 15 C 0.306 -1.1178 0.7489 0
M  V30 16 C 1.38 0.2051 -1.1389 0
M  V30 17 C 1.3078 -1.1757 -0.4253 0
M  V30 18 C 1.0927 -0.4352 1.8797 0
M  V30 19 C 2.666 -1.5154 0.2991 0
M  V30 20 C 0.9025 -2.24 -1.4632 0
M  V30 21 C 2.5795 -0.6569 1.5838 0
M  V30 22 O 3.7489 -1.0806 -0.5479 0
M  V30 23 C 2.7619 -3.0268 0.6782 0
M  V30 24 C 5.0136 -1.1051 -0.0487 0
M  V30 25 O 2.1988 -3.4927 1.6732 0
M  V30 26 C 3.5429 -3.9436 -0.2334 0
M  V30 27 O 5.3326 -1.533 1.0491 0
M  V30 28 C 5.9725 -0.5501 -1.0562 0
M  V30 29 H -4.5828 2.5889 1.8909 0
M  V30 30 H -3.0071 4.946 -1.2906 0
M  V30 31 H -4.0108 3.59 -1.839 0
M  V30 32 H -1.3284 3.4925 -0.3675 0
M  V30 33 H -1.5914 3.0802 -2.0558 0
M  V30 34 H -3.8011 -0.539 0.581 0
M  V30 35 H -0.4298 1.5755 0.4179 0
M  V30 36 H -2.5205 0.9961 -2.7534 0
M  V30 37 H -3.1069 -0.2406 -1.641 0
M  V30 38 H -4.0627 1.208 -1.9316 0
M  V30 39 H -2.0334 -1.3563 2.1113 0
M  V30 40 H -1.4875 0.2947 2.3934 0
M  V30 41 H -3.8503 0.7679 3.3401 0
M  V30 42 H -5.2606 0.3858 2.3247 0
M  V30 43 H -4.2537 -0.9119 2.9618 0
M  V30 44 H -1.5524 -1.1605 -0.2958 0
M  V30 45 H 0.1828 1.7663 -1.9625 0
M  V30 46 H -0.4406 0.1612 -2.2927 0
M  V30 47 H 0.09 -2.1434 1.0806 0
M  V30 48 H 1.8884 0.9421 -0.5048 0
M  V30 49 H 1.9877 0.1248 -2.0495 0
M  V30 50 H 0.895 0.6396 1.9413 0
M  V30 51 H 0.8211 -0.8649 2.8507 0
M  V30 52 H 1.6614 -2.3294 -2.2478 0
M  V30 53 H 0.7677 -3.2263 -1.0074 0
M  V30 54 H -0.046 -1.9991 -1.9524 0
M  V30 55 H 3.0752 0.3125 1.4501 0
M  V30 56 H 3.068 -1.1358 2.4403 0
M  V30 57 H 3.4611 -3.6219 -1.2734 0
M  V30 58 H 4.5916 -3.9622 0.0695 0
M  V30 59 H 3.1319 -4.955 -0.1627 0
M  V30 60 H 5.9875 -1.1886 -1.9429 0
M  V30 61 H 5.6831 0.4701 -1.3208 0
M  V30 62 H 6.977 -0.5236 -0.6242 0
M  V30 END ATOM
M  V30 BEGIN BOND
M  V30 1 2 1 2
M  V30 2 1 2 3
M  V30 3 1 2 4
M  V30 4 2 3 5
M  V30 5 1 4 6
M  V30 6 1 5 7
M  V30 7 1 5 8
M  V30 8 1 7 9
M  V30 9 1 7 10
M  V30 10 1 8 11
M  V30 11 1 8 12
M  V30 12 1 9 13
M  V30 13 1 9 14
M  V30 14 1 13 15
M  V30 15 1 14 16
M  V30 16 1 15 17
M  V30 17 1 15 18
M  V30 18 1 17 19
M  V30 19 1 17 20
M  V30 20 1 18 21
M  V30 21 1 19 22
M  V30 22 1 19 23
M  V30 23 1 22 24
M  V30 24 2 23 25
M  V30 25 1 23 26
M  V30 26 2 24 27
M  V30 27 1 24 28
M  V30 28 1 6 7
M  V30 29 1 11 13
M  V30 30 1 16 17
M  V30 31 1 19 21
M  V30 32 1 3 29
M  V30 33 1 4 30
M  V30 34 1 4 31
M  V30 35 1 6 32
M  V30 36 1 6 33
M  V30 37 1 8 34
M  V30 38 1 9 35
M  V30 39 1 10 36
M  V30 40 1 10 37
M  V30 41 1 10 38
M  V30 42 1 11 39
M  V30 43 1 11 40
M  V30 44 1 12 41
M  V30 45 1 12 42
M  V30 46 1 12 43
M  V30 47 1 13 44
M  V30 48 1 14 45
M  V30 49 1 14 46
M  V30 50 1 15 47
M  V30 51 1 16 48
M  V30 52 1 16 49
M  V30 53 1 18 50
M  V30 54 1 18 51
M  V30 55 1 20 52
M  V30 56 1 20 53
M  V30 57 1 20 54
M  V30 58 1 21 55
M  V30 59 1 21 56
M  V30 60 1 26 57
M  V30 61 1 26 58
M  V30 62 1 26 59
M  V30 63 1 28 60
M  V30 64 1 28 61
M  V30 65 1 28 62
M  V30 END BOND
M  V30 END CTAB
M  END
>  <Column 1>
3377

>  <level_0>
5602

>  <index>
5603

>  <Unnamed: 0>
5603

>  <NO.>
5615

>  <Name>
medroxyprogesterone

>  <IUPAC_name>
(17-acetyl-6-10-13-trimethyl-3-oxo-2-6-7-8-9-11-12-14-15-16-decahydro-1h-cyclopenta[a]phenanthren-17-yl) acetate

>  <SMILES>
CC(=O)OC1(C(C)=O)CCC2C3CC(C)C4=CC(=O)CCC4(C)C3CCC21C

>  <CID>
4042

>  <logBB>


>  <BBB+/BBB->
BBB-

>  <Inchi>
InChI=1S/C24H34O4/c1-14-12-18-19(22(4)9-6-17(27)13-21(14)22)7-10-23(5)20(18)8-11-24(23-15(2)25)28-16(3)26/h13-14-18-20H-6-12H2-1-5H3

>  <threshold>


>  <reference>
R23|

>  <group>
C

>  <Class>
-1

>  <ABC>
22.43

>  <ABCGG>
18.46

>  <nAcid>
0

>  <nBase>
0

>  <nAromAtom>
0

>  <nAromBond>
0

>  <nAtom>
62

>  <nHeavyAtom>
28

>  <nSpiro>
0

>  <nBridgehead>
0

>  <nHetero>
4

>  <nN>
0

>  <nO>
4

>  <nF>
0

>  <BalabanJ>
1.67

>  <BertzCT>
766.57

>  <nBonds>
65

>  <nBondsO>
31

>  <nBondsS>
61

>  <nBondsD>
4

>  <nBondsT>
0

>  <nBondsA>
0

>  <nBondsM>
4

>  <nBondsKS>
61

>  <nBondsKD>
4

>  <RNCG>
0.24

>  <RPCG>
0.16

>  <FCSP3>
0.79

>  <SZ>
35

>  <Sm>
32.18

>  <Sv>
36.07

>  <Sse>
61.42

>  <Sp>
39.5

>  <Si>
69.9

>  <MZ>
0.56

>  <Mm>
0.52

>  <Mv>
0.58

>  <Mse>
0.99

>  <Mp>
0.64

>  <Mi>
1.13

>  <NsCH3>
5

>  <NdCH2>
0

>  <NssCH2>
7

>  <NtCH>
0

>  <NdsCH>
1

>  <NaaCH>
0

>  <NsssCH>
4

>  <NddC>
0

>  <NtsC>
0

>  <NdssC>
4

>  <NaasC>
0

>  <NaaaC>
0

>  <NssssC>
3

>  <NsNH3>
0

>  <NsNH2>
0

>  <NssNH2>
0

>  <NdNH>
0

>  <NssNH>
0

>  <NaaNH>
0

>  <NtN>
0

>  <NsssNH>
0

>  <NdsN>
0

>  <NaaN>
0

>  <NsssN>
0

>  <NddsN>
0

>  <NaasN>
0

>  <NssssN>
0

>  <NsOH>
0

>  <NdO>
3

>  <NssO>
1

>  <NaaO>
0

>  <NsF>
0

>  <NsSiH3>
0

>  <NssSiH2>
0

>  <NsssSiH>
0

>  <NssssSi>
0

>  <NsPH2>
0

>  <NssPH>
0

>  <NsssP>
0

>  <NdsssP>
0

>  <NsssssP>
0

>  <NsSH>
0

>  <NdS>
0

>  <NssS>
0

>  <NaaS>
0

>  <NdssS>
0

>  <NddssS>
0

>  <NsCl>
0

>  <NsBr>
0

>  <NsI>
0

>  <fragCpx>
205.04

>  <fMF>
0.27

>  <nHBAcc>
4

>  <nHBDon>
0

>  <Kier1>
21.24

>  <Kier2>
7.02

>  <Lipinski>
1

>  <GhoseFilter>
1

>  <FilterItLogS>
-4.79

>  <VMcGowan>
311.86

>  <LabuteASA>
168.02

>  <PEOE_VSA1>
4.74

>  <PEOE_VSA2>
14.38

>  <PEOE_VSA3>
0

>  <PEOE_VSA4>
0

>  <PEOE_VSA5>
0

>  <PEOE_VSA6>
26.34

>  <PEOE_VSA7>
80.61

>  <PEOE_VSA8>
18.76

>  <PEOE_VSA9>
0

>  <PEOE_VSA10>
0

>  <PEOE_VSA11>
17.17

>  <PEOE_VSA12>
0

>  <PEOE_VSA13>
0

>  <SMR_VSA1>
19.12

>  <SMR_VSA2>
0

>  <SMR_VSA3>
0

>  <SMR_VSA4>
34.5

>  <SMR_VSA5>
85.17

>  <SMR_VSA6>
0

>  <SMR_VSA7>
11.65

>  <SMR_VSA8>
0

>  <SMR_VSA9>
0

>  <SlogP_VSA1>
0

>  <SlogP_VSA2>
23.14

>  <SlogP_VSA3>
19.12

>  <SlogP_VSA4>
34.5

>  <SlogP_VSA5>
79.56

>  <SlogP_VSA6>
11.65

>  <SlogP_VSA7>
0

>  <SlogP_VSA8>
0

>  <SlogP_VSA9>
0

>  <SlogP_VSA10>
0

>  <SlogP_VSA11>
0

>  <EState_VSA1>
5.6

>  <EState_VSA2>
28.37

>  <EState_VSA3>
36.51

>  <EState_VSA4>
32.1

>  <EState_VSA5>
12.5

>  <EState_VSA6>
6.92

>  <EState_VSA7>
6.08

>  <EState_VSA8>
20.77

>  <EState_VSA9>
4.74

>  <EState_VSA10>
14.38

>  <VSA_EState1>
5.84

>  <VSA_EState2>
36.81

>  <VSA_EState3>
0

>  <VSA_EState4>
0.22

>  <VSA_EState5>
1.82

>  <VSA_EState6>
0

>  <VSA_EState7>
8.19

>  <VSA_EState8>
9.87

>  <VSA_EState9>
0

>  <apol>
65.96

>  <bpol>
38.45

>  <nRing>
4

>  <nHRing>
0

>  <naRing>
0

>  <naHRing>
0

>  <nARing 2>
4

>  <nAHRing 2>
0

>  <nFRing>
1

>  <nFHRing>
0

>  <nFaRing>
0

>  <nFaHRing>
0

>  <nFARing 2>
1

>  <nFAHRing 2>
0

>  <nRot>
2

>  <SLogP>
4.66

>  <SMR>
106.44

>  <TopoPSA(NO)>
60.44

>  <TopoPSA>
60.44

>  <JGI1>
0.31

>  <JGI2>
0.14

>  <JGI3>
0.07

>  <JGI4>
0.06

>  <JGI5>
0.03

>  <Diameter>
12

>  <Radius>
6

>  <TMWC10>
139.66

>  <TSRW10>
79.46

>  <MW>
386.25

>  <AMW>
6.23

>  <WPath>
1759

>  <WPol>
62

>  <Zagreb1>
164

>  <Zagreb2>
209

>  <mZagreb2>
5.81

>  <yes>


>  <nAR-cont>
0.199399

>  <nHA-cont>
0.82432561

>  <MWHBN>
0.203528741

>  <MWHBN-cont>
0.999988966

>  <TPSA-cont>
0.578091269

>  <pka_cont>
0.97

>  <yes.1>


>  <BBB_SCORE>
4.164890598

>  <MMFF94 Energy>
84.789

$$$$
Compound 2691
Actelion Java MolfileCreator 2.0

  0  0  0  0  0  0              0 V3000
M  V30 BEGIN CTAB
M  V30 COUNTS 53 54 0 0 0
M  V30 BEGIN ATOM
M  V30 1 O -0.9439 -1.4949 4.2533 0
M  V30 2 C -1.5374 -0.5125 4.6892 0
M  V30 3 N -2.0199 0.5004 3.8896 0
M  V30 4 C -1.8027 -0.3215 6.1823 0
M  V30 5 C -1.858 0.5084 2.4499 0
M  V30 6 O -2.5176 0.8906 6.4458 0
M  V30 7 C -2.9262 -0.3368 1.76 0
M  V30 8 C -2.7709 1.0922 7.7676 0
M  V30 9 C -2.8863 -0.1782 0.2423 0
M  V30 10 O -2.4431 0.3418 8.6742 0
M  V30 11 C -3.5168 2.3773 7.9576 0
M  V30 12 O -1.6058 -0.5838 -0.2338 0
M  V30 13 C -1.3789 -0.4872 -1.5789 0
M  V30 14 C -0.0959 -0.8725 -1.9798 0
M  V30 15 C -2.2941 -0.0526 -2.5374 0
M  V30 16 C 0.287 -0.8235 -3.3285 0
M  V30 17 C -1.9259 -6.0E-4 -3.8842 0
M  V30 18 C -0.6443 -0.3839 -4.2777 0
M  V30 19 C 1.6756 -1.2552 -3.751 0
M  V30 20 N 2.4269 -0.1991 -4.4505 0
M  V30 21 C 3.6279 -0.7324 -5.1097 0
M  V30 22 C 2.7746 0.9391 -3.5846 0
M  V30 23 C 4.7583 -1.1022 -4.1459 0
M  V30 24 C 3.8746 0.6381 -2.563 0
M  V30 25 C 5.1175 0.0699 -3.2392 0
M  V30 26 H -2.4959 1.2702 4.3468 0
M  V30 27 H -2.3922 -1.1798 6.5239 0
M  V30 28 H -0.831 -0.2953 6.6883 0
M  V30 29 H -0.8542 0.1433 2.2072 0
M  V30 30 H -1.9287 1.5536 2.1307 0
M  V30 31 H -3.9213 -0.0559 2.1252 0
M  V30 32 H -2.7721 -1.3906 2.022 0
M  V30 33 H -3.667 -0.8106 -0.1967 0
M  V30 34 H -3.0735 0.8711 -0.0164 0
M  V30 35 H -2.9143 3.213 7.5929 0
M  V30 36 H -4.4728 2.3325 7.4299 0
M  V30 37 H -3.7134 2.5283 9.0229 0
M  V30 38 H 0.6096 -1.2123 -1.2246 0
M  V30 39 H -3.3007 0.2515 -2.2733 0
M  V30 40 H -2.6392 0.3409 -4.6297 0
M  V30 41 H -0.3641 -0.333 -5.328 0
M  V30 42 H 1.534 -2.1125 -4.4234 0
M  V30 43 H 2.2288 -1.642 -2.8872 0
M  V30 44 H 3.9972 0.0242 -5.8145 0
M  V30 45 H 3.3694 -1.6007 -5.728 0
M  V30 46 H 1.89 1.3294 -3.0685 0
M  V30 47 H 3.1111 1.7627 -4.2285 0
M  V30 48 H 5.6425 -1.4063 -4.7176 0
M  V30 49 H 4.467 -1.9649 -3.5352 0
M  V30 50 H 3.5087 -0.0682 -1.8088 0
M  V30 51 H 4.1388 1.5577 -2.0282 0
M  V30 52 H 5.8449 -0.2472 -2.484 0
M  V30 53 H 5.597 0.8559 -3.8357 0
M  V30 END ATOM
M  V30 BEGIN BOND
M  V30 1 2 1 2
M  V30 2 1 2 3
M  V30 3 1 2 4
M  V30 4 1 3 5
M  V30 5 1 4 6
M  V30 6 1 5 7
M  V30 7 1 6 8
M  V30 8 1 7 9
M  V30 9 2 8 10
M  V30 10 1 8 11
M  V30 11 1 9 12
M  V30 12 1 12 13
M  V30 13 2 13 14
M  V30 14 1 13 15
M  V30 15 1 14 16
M  V30 16 2 15 17
M  V30 17 2 16 18
M  V30 18 1 16 19
M  V30 19 1 19 20
M  V30 20 1 20 21
M  V30 21 1 20 22
M  V30 22 1 21 23
M  V30 23 1 22 24
M  V30 24 1 23 25
M  V30 25 1 17 18
M  V30 26 1 24 25
M  V30 27 1 3 26
M  V30 28 1 4 27
M  V30 29 1 4 28
M  V30 30 1 5 29
M  V30 31 1 5 30
M  V30 32 1 7 31
M  V30 33 1 7 32
M  V30 34 1 9 33
M  V30 35 1 9 34
M  V30 36 1 11 35
M  V30 37 1 11 36
M  V30 38 1 11 37
M  V30 39 1 14 38
M  V30 40 1 15 39
M  V30 41 1 17 40
M  V30 42 1 18 41
M  V30 43 1 19 42
M  V30 44 1 19 43
M  V30 45 1 21 44
M  V30 46 1 21 45
M  V30 47 1 22 46
M  V30 48 1 22 47
M  V30 49 1 23 48
M  V30 50 1 23 49
M  V30 51 1 24 50
M  V30 52 1 24 51
M  V30 53 1 25 52
M  V30 54 1 25 53
M  V30 END BOND
M  V30 END CTAB
M  END
>  <Column 1>
3378

>  <level_0>
5607

>  <index>
5608

>  <Unnamed: 0>
5608

>  <NO.>
5620

>  <Name>
roxatidine acetate

>  <IUPAC_name>
[2-oxo-2-[3-[3-(piperidin-1-ylmethyl)phenoxy]propylamino]ethyl] acetate

>  <SMILES>
CC(=O)OCC(=O)NCCCOc1cccc(CN2CCCCC2)c1

>  <CID>
5105

>  <logBB>


>  <BBB+/BBB->
BBB-

>  <Inchi>
InChI=1S/C19H28N2O4/c1-16(22)25-15-19(23)20-9-6-12-24-18-8-5-7-17(13-18)14-21-10-3-2-4-11-21/h5-7-8-13H-2-4-6-9-12-14-15H2-1H3-(H-20-23)

>  <threshold>


>  <reference>
R23|

>  <group>
C

>  <Class>
-1

>  <ABC>
18.71

>  <ABCGG>
14.1

>  <nAcid>
0

>  <nBase>
1

>  <nAromAtom>
6

>  <nAromBond>
6

>  <nAtom>
53

>  <nHeavyAtom>
25

>  <nSpiro>
0

>  <nBridgehead>
0

>  <nHetero>
6

>  <nN>
2

>  <nO>
4

>  <nF>
0

>  <BalabanJ>
1.5

>  <BertzCT>
556.11

>  <nBonds>
54

>  <nBondsO>
26

>  <nBondsS>
46

>  <nBondsD>
2

>  <nBondsT>
0

>  <nBondsA>
6

>  <nBondsM>
8

>  <nBondsKS>
49

>  <nBondsKD>
5

>  <RNCG>
0.2

>  <RPCG>
0.12

>  <FCSP3>
0.58

>  <SZ>
31.33

>  <Sm>
29.01

>  <Sv>
30.96

>  <Sse>
53.08

>  <Sp>
33.42

>  <Si>
60.23

>  <MZ>
0.59

>  <Mm>
0.55

>  <Mv>
0.58

>  <Mse>
1

>  <Mp>
0.63

>  <Mi>
1.14

>  <NsCH3>
1

>  <NdCH2>
0

>  <NssCH2>
10

>  <NtCH>
0

>  <NdsCH>
0

>  <NaaCH>
4

>  <NsssCH>
0

>  <NddC>
0

>  <NtsC>
0

>  <NdssC>
2

>  <NaasC>
2

>  <NaaaC>
0

>  <NssssC>
0

>  <NsNH3>
0

>  <NsNH2>
0

>  <NssNH2>
0

>  <NdNH>
0

>  <NssNH>
1

>  <NaaNH>
0

>  <NtN>
0

>  <NsssNH>
0

>  <NdsN>
0

>  <NaaN>
0

>  <NsssN>
1

>  <NddsN>
0

>  <NaasN>
0

>  <NssssN>
0

>  <NsOH>
0

>  <NdO>
2

>  <NssO>
2

>  <NaaO>
0

>  <NsF>
0

>  <NsSiH3>
0

>  <NssSiH2>
0

>  <NsssSiH>
0

>  <NssssSi>
0

>  <NsPH2>
0

>  <NssPH>
0

>  <NsssP>
0

>  <NdsssP>
0

>  <NsssssP>
0

>  <NsSH>
0

>  <NdS>
0

>  <NssS>
0

>  <NaaS>
0

>  <NdssS>
0

>  <NddssS>
0

>  <NsCl>
0

>  <NsBr>
0

>  <NsI>
0

>  <fragCpx>
76.06

>  <fMF>
0.25

>  <nHBAcc>
5

>  <nHBDon>
1

>  <Kier1>
21.3

>  <Kier2>
12.4

>  <Lipinski>
1

>  <GhoseFilter>
1

>  <FilterItLogS>
-4.32

>  <VMcGowan>
278.79

>  <LabuteASA>
149.03

>  <PEOE_VSA1>
14.79

>  <PEOE_VSA2>
14.49

>  <PEOE_VSA3>
0

>  <PEOE_VSA4>
0

>  <PEOE_VSA5>
0

>  <PEOE_VSA6>
18.55

>  <PEOE_VSA7>
50.05

>  <PEOE_VSA8>
20.01

>  <PEOE_VSA9>
6.61

>  <PEOE_VSA10>
5.75

>  <PEOE_VSA11>
6.61

>  <PEOE_VSA12>
0

>  <PEOE_VSA13>
5.91

>  <SMR_VSA1>
19.06

>  <SMR_VSA2>
0

>  <SMR_VSA3>
10.22

>  <SMR_VSA4>
0

>  <SMR_VSA5>
39.15

>  <SMR_VSA6>
32.85

>  <SMR_VSA7>
29.83

>  <SMR_VSA8>
0

>  <SMR_VSA9>
5.75

>  <SlogP_VSA1>
10.05

>  <SlogP_VSA2>
49.62

>  <SlogP_VSA3>
20.87

>  <SlogP_VSA4>
0

>  <SlogP_VSA5>
38.17

>  <SlogP_VSA6>
24.27

>  <SlogP_VSA7>
0

>  <SlogP_VSA8>
0

>  <SlogP_VSA9>
0

>  <SlogP_VSA10>
0

>  <SlogP_VSA11>
5.75

>  <EState_VSA1>
5.97

>  <EState_VSA2>
12.51

>  <EState_VSA3>
19.57

>  <EState_VSA4>
12.29

>  <EState_VSA5>
44.84

>  <EState_VSA6>
0

>  <EState_VSA7>
12.13

>  <EState_VSA8>
27.09

>  <EState_VSA9>
4.74

>  <EState_VSA10>
9.59

>  <VSA_EState1>
10.38

>  <VSA_EState2>
24.48

>  <VSA_EState3>
2.69

>  <VSA_EState4>
1.27

>  <VSA_EState5>
0.11

>  <VSA_EState6>
8.21

>  <VSA_EState7>
4.62

>  <VSA_EState8>
5.41

>  <VSA_EState9>
0

>  <apol>
55.81

>  <bpol>
35.58

>  <nRing>
2

>  <nHRing>
1

>  <naRing>
1

>  <naHRing>
0

>  <nARing 2>
1

>  <nAHRing 2>
1

>  <nFRing>
0

>  <nFHRing>
0

>  <nFaRing>
0

>  <nFaHRing>
0

>  <nFARing 2>
0

>  <nFAHRing 2>
0

>  <nRot>
9

>  <SLogP>
2.12

>  <SMR>
95.32

>  <TopoPSA(NO)>
67.87

>  <TopoPSA>
67.87

>  <JGI1>
0.17

>  <JGI2>
0.04

>  <JGI3>
0.03

>  <JGI4>
0.03

>  <JGI5>
0.01

>  <Diameter>
17

>  <Radius>
9

>  <TMWC10>
122.33

>  <TSRW10>
58.41

>  <MW>
348.2

>  <AMW>
6.57

>  <WPath>
1992

>  <WPol>
29

>  <Zagreb1>
116

>  <Zagreb2>
125

>  <mZagreb2>
5.75

>  <yes>


>  <nAR-cont>
0.816016

>  <nHA-cont>
0.921834225

>  <MWHBN>
0.321541377

>  <MWHBN-cont>
0.771973411

>  <TPSA-cont>
0.526225255

>  <pka_cont>
0.97

>  <yes.1>


>  <BBB_SCORE>
4.433260852

>  <MMFF94 Energy>
9.6718

$$$$
Compound 2692
Actelion Java MolfileCreator 2.0

  0  0  0  0  0  0              0 V3000
M  V30 BEGIN CTAB
M  V30 COUNTS 46 49 0 0 0
M  V30 BEGIN ATOM
M  V30 1 S -3.5084 2.1203 -1.1412 0
M  V30 2 C -2.8399 3.5174 -0.3825 0
M  V30 3 C -2.1973 1.1533 -0.6858 0
M  V30 4 O -3.5436 4.6393 -0.4565 0
M  V30 5 C -1.6236 3.2071 0.2042 0
M  V30 6 C -1.2412 1.8398 0.0296 0
M  V30 7 C -2.0734 -0.2879 -1.0556 0
M  V30 8 C -3.1223 5.8027 0.0809 0
M  V30 9 C 0.0024 1.1786 0.5589 0
M  V30 10 C -0.9263 -0.9321 -0.2423 0
M  V30 11 O -2.0836 6.0209 0.6905 0
M  V30 12 C -4.1519 6.8638 -0.1795 0
M  V30 13 N 0.27 -0.0607 -0.2102 0
M  V30 14 C 1.5167 -0.7271 0.272 0 CFG=2
M  V30 15 C 2.2379 -1.5536 -0.7929 0
M  V30 16 C 1.2917 -1.4465 1.6207 0
M  V30 17 C 3.4096 -2.2453 -0.4514 0
M  V30 18 C 1.8352 -1.5917 -2.1387 0
M  V30 19 O 1.344 -0.8469 2.6949 0
M  V30 20 C 0.9075 -2.899 1.5985 0
M  V30 21 F 3.8684 -2.1968 0.807 0
M  V30 22 C 4.1256 -2.9904 -1.3852 0
M  V30 23 C 2.5488 -2.3376 -3.0829 0
M  V30 24 C 1.37 -3.8119 2.7119 0
M  V30 25 C -0.0772 -3.4316 2.6163 0
M  V30 26 C 3.6899 -3.0423 -2.7055 0
M  V30 27 H -1.017 3.9234 0.745 0
M  V30 28 H -1.85 -0.3656 -2.1268 0
M  V30 29 H -3.007 -0.8282 -0.8635 0
M  V30 30 H 0.8436 1.8733 0.4484 0
M  V30 31 H -0.1408 0.9737 1.626 0
M  V30 32 H -1.2812 -1.1353 0.7767 0
M  V30 33 H -0.6999 -1.8992 -0.7046 0
M  V30 34 H -4.2781 7.0022 -1.2563 0
M  V30 35 H -5.0999 6.5837 0.2869 0
M  V30 36 H -3.8169 7.8099 0.2556 0
M  V30 37 H 2.2452 0.0696 0.4883 0
M  V30 38 H 0.9673 -1.028 -2.4756 0
M  V30 39 H 0.8521 -3.3511 0.6134 0
M  V30 40 H 5.0233 -3.5169 -1.0764 0
M  V30 41 H 2.2171 -2.3562 -4.1188 0
M  V30 42 H 1.954 -3.384 3.5203 0
M  V30 43 H 1.652 -4.8254 2.452 0
M  V30 44 H -0.782 -4.1896 2.2957 0
M  V30 45 H -0.4683 -2.7505 3.3652 0
M  V30 46 H 4.2457 -3.6165 -3.4423 0
M  V30 END ATOM
M  V30 BEGIN BOND
M  V30 1 1 1 2
M  V30 2 1 1 3
M  V30 3 1 2 4
M  V30 4 2 2 5
M  V30 5 2 3 6
M  V30 6 1 3 7
M  V30 7 1 4 8
M  V30 8 1 6 9
M  V30 9 1 7 10
M  V30 10 2 8 11
M  V30 11 1 8 12
M  V30 12 1 9 13
M  V30 13 1 13 14
M  V30 14 1 14 15
M  V30 15 1 14 16
M  V30 16 2 15 17
M  V30 17 1 15 18
M  V30 18 2 16 19
M  V30 19 1 16 20
M  V30 20 1 17 21
M  V30 21 1 17 22
M  V30 22 2 18 23
M  V30 23 1 20 24
M  V30 24 1 20 25
M  V30 25 2 22 26
M  V30 26 1 5 6
M  V30 27 1 10 13
M  V30 28 1 23 26
M  V30 29 1 24 25
M  V30 30 1 5 27
M  V30 31 1 7 28
M  V30 32 1 7 29
M  V30 33 1 9 30
M  V30 34 1 9 31
M  V30 35 1 10 32
M  V30 36 1 10 33
M  V30 37 1 12 34
M  V30 38 1 12 35
M  V30 39 1 12 36
M  V30 40 1 14 37
M  V30 41 1 18 38
M  V30 42 1 20 39
M  V30 43 1 22 40
M  V30 44 1 23 41
M  V30 45 1 24 42
M  V30 46 1 24 43
M  V30 47 1 25 44
M  V30 48 1 25 45
M  V30 49 1 26 46
M  V30 END BOND
M  V30 BEGIN COLLECTION
M  V30 MDLV30/STERAC1 ATOMS=(1 14)
M  V30 END COLLECTION
M  V30 END CTAB
M  END
>  <Column 1>
3379

>  <level_0>
5608

>  <index>
5609

>  <Unnamed: 0>
5609

>  <NO.>
5621

>  <Name>
prasugrel

>  <IUPAC_name>
[5-[2-cyclopropyl-1-(2-fluorophenyl)-2-oxoethyl]-6-7-dihydro-4h-thieno[3-2-c]pyridin-2-yl] acetate

>  <SMILES>
CC(=O)Oc1cc2c(s1)CCN(C(C(=O)C1CC1)c1ccccc1F)C2

>  <CID>
6918456

>  <logBB>


>  <BBB+/BBB->
BBB-

>  <Inchi>
InChI=1S/C20H20FNO3S/c1-12(23)25-18-10-14-11-22(9-8-17(14)26-18)19(20(24)13-6-7-13)15-4-2-3-5-16(15)21/h2-5-10-13-19H-6-9-11H2-1H3

>  <threshold>


>  <reference>
R23|

>  <group>
C

>  <Class>
-1

>  <ABC>
20.7

>  <ABCGG>
16.8

>  <nAcid>
0

>  <nBase>
1

>  <nAromAtom>
11

>  <nAromBond>
11

>  <nAtom>
46

>  <nHeavyAtom>
26

>  <nSpiro>
0

>  <nBridgehead>
0

>  <nHetero>
6

>  <nN>
1

>  <nO>
3

>  <nF>
1

>  <BalabanJ>
1.44

>  <BertzCT>
858.49

>  <nBonds>
49

>  <nBondsO>
29

>  <nBondsS>
36

>  <nBondsD>
2

>  <nBondsT>
0

>  <nBondsA>
11

>  <nBondsM>
13

>  <nBondsKS>
42

>  <nBondsKD>
7

>  <RNCG>
0.22

>  <RPCG>
0.16

>  <FCSP3>
0.4

>  <SZ>
32.67

>  <Sm>
31.09

>  <Sv>
30.15

>  <Sse>
46.57

>  <Sp>
32.16

>  <Si>
51.54

>  <MZ>
0.71

>  <Mm>
0.68

>  <Mv>
0.66

>  <Mse>
1.01

>  <Mp>
0.7

>  <Mi>
1.12

>  <NsCH3>
1

>  <NdCH2>
0

>  <NssCH2>
5

>  <NtCH>
0

>  <NdsCH>
0

>  <NaaCH>
5

>  <NsssCH>
2

>  <NddC>
0

>  <NtsC>
0

>  <NdssC>
2

>  <NaasC>
5

>  <NaaaC>
0

>  <NssssC>
0

>  <NsNH3>
0

>  <NsNH2>
0

>  <NssNH2>
0

>  <NdNH>
0

>  <NssNH>
0

>  <NaaNH>
0

>  <NtN>
0

>  <NsssNH>
0

>  <NdsN>
0

>  <NaaN>
0

>  <NsssN>
1

>  <NddsN>
0

>  <NaasN>
0

>  <NssssN>
0

>  <NsOH>
0

>  <NdO>
2

>  <NssO>
1

>  <NaaO>
0

>  <NsF>
1

>  <NsSiH3>
0

>  <NssSiH2>
0

>  <NsssSiH>
0

>  <NssssSi>
0

>  <NsPH2>
0

>  <NssPH>
0

>  <NsssP>
0

>  <NdsssP>
0

>  <NsssssP>
0

>  <NsSH>
0

>  <NdS>
0

>  <NssS>
0

>  <NaaS>
1

>  <NdssS>
0

>  <NddssS>
0

>  <NsCl>
0

>  <NsBr>
0

>  <NsI>
0

>  <fragCpx>
191.06

>  <fMF>
0.43

>  <nHBAcc>
5

>  <nHBDon>
0

>  <Kier1>
19.32

>  <Kier2>
8.16

>  <Lipinski>
1

>  <GhoseFilter>
1

>  <FilterItLogS>
-4.49

>  <VMcGowan>
264.82

>  <LabuteASA>
155.13

>  <PEOE_VSA1>
4.74

>  <PEOE_VSA2>
14.49

>  <PEOE_VSA3>
4.39

>  <PEOE_VSA4>
0

>  <PEOE_VSA5>
11.34

>  <PEOE_VSA6>
18.2

>  <PEOE_VSA7>
36.96

>  <PEOE_VSA8>
36.37

>  <PEOE_VSA9>
6.04

>  <PEOE_VSA10>
5.82

>  <PEOE_VSA11>
10.85

>  <PEOE_VSA12>
0

>  <PEOE_VSA13>
0

>  <SMR_VSA1>
18.72

>  <SMR_VSA2>
0

>  <SMR_VSA3>
4.9

>  <SMR_VSA4>
5.92

>  <SMR_VSA5>
38.77

>  <SMR_VSA6>
6.54

>  <SMR_VSA7>
52.15

>  <SMR_VSA8>
0

>  <SMR_VSA9>
5.06

>  <SlogP_VSA1>
4.74

>  <SlogP_VSA2>
23.2

>  <SlogP_VSA3>
22.55

>  <SlogP_VSA4>
11.74

>  <SlogP_VSA5>
41.81

>  <SlogP_VSA6>
30.33

>  <SlogP_VSA7>
0

>  <SlogP_VSA8>
0

>  <SlogP_VSA9>
0

>  <SlogP_VSA10>
4.39

>  <SlogP_VSA11>
5.06

>  <EState_VSA1>
6.04

>  <EState_VSA2>
23.49

>  <EState_VSA3>
23.72

>  <EState_VSA4>
24.83

>  <EState_VSA5>
29.2

>  <EState_VSA6>
18.2

>  <EState_VSA7>
6.07

>  <EState_VSA8>
4.9

>  <EState_VSA9>
4.74

>  <EState_VSA10>
13.98

>  <VSA_EState1>
19.64

>  <VSA_EState2>
27.36

>  <VSA_EState3>
0.58

>  <VSA_EState4>
1.52

>  <VSA_EState5>
-0.49

>  <VSA_EState6>
7.89

>  <VSA_EState7>
2.57

>  <VSA_EState8>
2.63

>  <VSA_EState9>
0

>  <apol>
53.7

>  <bpol>
28.82

>  <nRing>
4

>  <nHRing>
2

>  <naRing>
2

>  <naHRing>
1

>  <nARing 2>
2

>  <nAHRing 2>
1

>  <nFRing>
1

>  <nFHRing>
1

>  <nFaRing>
0

>  <nFaHRing>
0

>  <nFARing 2>
1

>  <nFAHRing 2>
1

>  <nRot>
5

>  <SLogP>
3.89

>  <SMR>
96.61

>  <TopoPSA(NO)>
46.61

>  <TopoPSA>
74.85

>  <JGI1>
0.19

>  <JGI2>
0.06

>  <JGI3>
0.06

>  <JGI4>
0.04

>  <JGI5>
0.02

>  <Diameter>
12

>  <Radius>
6

>  <TMWC10>
131.86

>  <TSRW10>
80.79

>  <MW>
373.11

>  <AMW>
8.11

>  <WPath>
1635

>  <WPol>
41

>  <Zagreb1>
142

>  <Zagreb2>
170

>  <mZagreb2>
5.58

>  <yes>


>  <nAR-cont>
1

>  <nHA-cont>
0.892715677

>  <MWHBN>
0.258852021

>  <MWHBN-cont>
0.943678692

>  <TPSA-cont>
0.477500521

>  <pka_cont>
0.97

>  <yes.1>


>  <BBB_SCORE>
4.748234758

>  <MMFF94 Energy>
120.4

$$$$
Compound 2693
Actelion Java MolfileCreator 2.0

  0  0  0  0  0  0              0 V3000
M  V30 BEGIN CTAB
M  V30 COUNTS 82 84 0 0 0
M  V30 BEGIN ATOM
M  V30 1 O -3.8678 -2.2877 -0.8672 0
M  V30 2 C -4.2576 -1.3486 -0.1875 0
M  V30 3 N -5.476 -0.7391 -0.3124 0
M  V30 4 N -3.5148 -0.7817 0.8115 0
M  V30 5 C -6.5037 -1.0956 -1.2996 0
M  V30 6 C -2.1526 -1.2308 1.1004 0
M  V30 7 C -5.9683 -0.9497 -2.7333 0
M  V30 8 C -7.0093 -2.5277 -1.067 0
M  V30 9 C -7.6874 -0.1258 -1.1267 0
M  V30 10 C -1.233 -0.2626 0.314 0
M  V30 11 C -1.8476 -1.2731 2.6304 0
M  V30 12 O -1.409 0.9606 0.3728 0
M  V30 13 N -0.2157 -0.7985 -0.4451 0
M  V30 14 C -2.8302 -2.248 3.3165 0
M  V30 15 C -0.4194 -1.8018 2.8698 0
M  V30 16 C -1.9784 0.1014 3.3134 0
M  V30 17 C 0.7069 0.096 -1.1375 0
M  V30 18 C -0.1307 -2.1826 -0.8926 0
M  V30 19 C 1.6059 0.9413 -0.2037 0
M  V30 20 C 1.5073 -0.8084 -2.044 0
M  V30 21 C 0.9544 -2.1956 -1.9233 0
M  V30 22 O 1.9097 0.6159 0.9419 0
M  V30 23 N 2.0942 2.0908 -0.7954 0
M  V30 24 C 2.4214 -1.9578 -1.6157 0
M  V30 25 C 2.9715 3.0285 -0.0909 0
M  V30 26 C 3.4307 -2.4276 -2.6364 0
M  V30 27 C 2.915 -2.0985 -0.1978 0
M  V30 28 C 2.3932 4.4201 -0.3082 0
M  V30 29 C 4.399 2.9727 -0.6458 0
M  V30 30 O 1.7318 4.7542 -1.2908 0
M  V30 31 C 2.727 5.466 0.7566 0
M  V30 32 C 5.0686 1.6384 -0.3392 0
M  V30 33 O 3.523 5.2388 1.6509 0
M  V30 34 N 2.0716 6.6573 0.6063 0
M  V30 35 C 6.5912 1.5649 -0.6344 0
M  V30 36 C 5.4362 1.3409 1.14 0
M  V30 37 C 6.7135 0.6598 0.6084 0
M  V30 38 H -5.7216 -0.075 0.4056 0
M  V30 39 H -3.7413 0.1643 1.0819 0
M  V30 40 H -2.0481 -2.246 0.7088 0
M  V30 41 H -5.1661 -1.6633 -2.9467 0
M  V30 42 H -6.7607 -1.1225 -3.4705 0
M  V30 43 H -5.5649 0.0554 -2.9017 0
M  V30 44 H -7.833 -2.7721 -1.7474 0
M  V30 45 H -6.2211 -3.2702 -1.2284 0
M  V30 46 H -7.3715 -2.6548 -0.0402 0
M  V30 47 H -7.3713 0.9131 -1.2777 0
M  V30 48 H -8.1092 -0.1932 -0.1168 0
M  V30 49 H -8.4901 -0.341 -1.8408 0
M  V30 50 H -2.5991 -2.3588 4.3824 0
M  V30 51 H -2.7801 -3.244 2.8621 0
M  V30 52 H -3.8652 -1.8966 3.2428 0
M  V30 53 H 0.3357 -1.1272 2.455 0
M  V30 54 H -0.2098 -1.9026 3.9411 0
M  V30 55 H -0.2802 -2.7879 2.4137 0
M  V30 56 H -1.8097 0.0175 4.3938 0
M  V30 57 H -1.2429 0.8166 2.9322 0
M  V30 58 H -2.9758 0.5313 3.1754 0
M  V30 59 H 0.1018 0.7797 -1.7474 0
M  V30 60 H 0.0849 -2.8397 -0.0461 0
M  V30 61 H -1.0891 -2.4702 -1.3362 0
M  V30 62 H 1.6433 -0.3816 -3.0298 0
M  V30 63 H 0.6811 -2.7376 -2.8187 0
M  V30 64 H 1.7368 2.3788 -1.7007 0
M  V30 65 H 2.9476 2.7998 0.9794 0
M  V30 66 H 3.0566 -2.3255 -3.6609 0
M  V30 67 H 4.3521 -1.8415 -2.5554 0
M  V30 68 H 3.6755 -3.4824 -2.4737 0
M  V30 69 H 3.2579 -3.1239 -0.0211 0
M  V30 70 H 3.7617 -1.4273 -0.0234 0
M  V30 71 H 2.1539 -1.8869 0.5557 0
M  V30 72 H 4.3848 3.1295 -1.7323 0
M  V30 73 H 4.9927 3.7936 -0.2246 0
M  V30 74 H 4.5377 0.8009 -0.8135 0
M  V30 75 H 1.4314 6.7923 -0.1689 0
M  V30 76 H 2.2329 7.4045 1.2665 0
M  V30 77 H 7.1231 2.5185 -0.5347 0
M  V30 78 H 6.868 1.102 -1.5851 0
M  V30 79 H 4.745 0.6889 1.6802 0
M  V30 80 H 5.6338 2.2322 1.7472 0
M  V30 81 H 6.5866 -0.407 0.3917 0
M  V30 82 H 7.6137 0.798 1.2121 0
M  V30 END ATOM
M  V30 BEGIN BOND
M  V30 1 2 1 2
M  V30 2 1 2 3
M  V30 3 1 2 4
M  V30 4 1 3 5
M  V30 5 1 4 6
M  V30 6 1 5 7
M  V30 7 1 5 8
M  V30 8 1 5 9
M  V30 9 1 6 10
M  V30 10 1 6 11
M  V30 11 2 10 12
M  V30 12 1 10 13
M  V30 13 1 11 14
M  V30 14 1 11 15
M  V30 15 1 11 16
M  V30 16 1 13 17
M  V30 17 1 13 18
M  V30 18 1 17 19
M  V30 19 1 17 20
M  V30 20 1 18 21
M  V30 21 2 19 22
M  V30 22 1 19 23
M  V30 23 1 20 24
M  V30 24 1 23 25
M  V30 25 1 24 26
M  V30 26 1 24 27
M  V30 27 1 25 28
M  V30 28 1 25 29
M  V30 29 2 28 30
M  V30 30 1 28 31
M  V30 31 1 29 32
M  V30 32 2 31 33
M  V30 33 1 31 34
M  V30 34 1 32 35
M  V30 35 1 32 36
M  V30 36 1 35 37
M  V30 37 1 20 21
M  V30 38 1 21 24
M  V30 39 1 36 37
M  V30 40 1 3 38
M  V30 41 1 4 39
M  V30 42 1 6 40
M  V30 43 1 7 41
M  V30 44 1 7 42
M  V30 45 1 7 43
M  V30 46 1 8 44
M  V30 47 1 8 45
M  V30 48 1 8 46
M  V30 49 1 9 47
M  V30 50 1 9 48
M  V30 51 1 9 49
M  V30 52 1 14 50
M  V30 53 1 14 51
M  V30 54 1 14 52
M  V30 55 1 15 53
M  V30 56 1 15 54
M  V30 57 1 15 55
M  V30 58 1 16 56
M  V30 59 1 16 57
M  V30 60 1 16 58
M  V30 61 1 17 59
M  V30 62 1 18 60
M  V30 63 1 18 61
M  V30 64 1 20 62
M  V30 65 1 21 63
M  V30 66 1 23 64
M  V30 67 1 25 65
M  V30 68 1 26 66
M  V30 69 1 26 67
M  V30 70 1 26 68
M  V30 71 1 27 69
M  V30 72 1 27 70
M  V30 73 1 27 71
M  V30 74 1 29 72
M  V30 75 1 29 73
M  V30 76 1 32 74
M  V30 77 1 34 75
M  V30 78 1 34 76
M  V30 79 1 35 77
M  V30 80 1 35 78
M  V30 81 1 36 79
M  V30 82 1 36 80
M  V30 83 1 37 81
M  V30 84 1 37 82
M  V30 END BOND
M  V30 END CTAB
M  END
>  <Column 1>
3380

>  <level_0>
5609

>  <index>
5610

>  <Unnamed: 0>
5610

>  <NO.>
5622

>  <Name>
394730-60-0

>  <IUPAC_name>
n-(4-amino-1-cyclobutyl-3-4-dioxobutan-2-yl)-3-[2-(tert-butylcarbamoylamino)-3-3-dimethylbutanoyl]-6-6-dimethyl-3-azabicyclo[3.1.0]hexane-2-carboxamide

>  <SMILES>
CC(C)(C)NC(=O)NC(C(=O)N1CC2C(C1C(=O)NC(CC1CCC1)C(=O)C(N)=O)C2(C)C)C(C)(C)C

>  <CID>
23594367

>  <logBB>


>  <BBB+/BBB->
BBB-

>  <Inchi>
InChI=1S/C27H45N5O5/c1-25(2-3)20(30-24(37)31-26(4-5)6)23(36)32-13-15-17(27(15-7)8)18(32)22(35)29-16(19(33)21(28)34)12-14-10-9-11-14/h14-18-20H-9-13H2-1-8H3-(H2-28-34)(H-29-35)(H2-30-31-37)

>  <threshold>


>  <reference>
R23|

>  <group>
C

>  <Class>
-1

>  <ABC>
29

>  <ABCGG>
26.28

>  <nAcid>
0

>  <nBase>
0

>  <nAromAtom>
0

>  <nAromBond>
0

>  <nAtom>
82

>  <nHeavyAtom>
37

>  <nSpiro>
0

>  <nBridgehead>
0

>  <nHetero>
10

>  <nN>
5

>  <nO>
5

>  <nF>
0

>  <BalabanJ>
1.8

>  <BertzCT>
959.21

>  <nBonds>
84

>  <nBondsO>
39

>  <nBondsS>
79

>  <nBondsD>
5

>  <nBondsT>
0

>  <nBondsA>
0

>  <nBondsM>
5

>  <nBondsKS>
79

>  <nBondsKD>
5

>  <RNCG>
0.1

>  <RPCG>
0.08

>  <FCSP3>
0.81

>  <SZ>
47

>  <Sm>
43.27

>  <Sv>
46.55

>  <Sse>
81.95

>  <Sp>
50.66

>  <Si>
93.84

>  <MZ>
0.57

>  <Mm>
0.53

>  <Mv>
0.57

>  <Mse>
1

>  <Mp>
0.62

>  <Mi>
1.14

>  <NsCH3>
8

>  <NdCH2>
0

>  <NssCH2>
5

>  <NtCH>
0

>  <NdsCH>
0

>  <NaaCH>
0

>  <NsssCH>
6

>  <NddC>
0

>  <NtsC>
0

>  <NdssC>
5

>  <NaasC>
0

>  <NaaaC>
0

>  <NssssC>
3

>  <NsNH3>
0

>  <NsNH2>
1

>  <NssNH2>
0

>  <NdNH>
0

>  <NssNH>
3

>  <NaaNH>
0

>  <NtN>
0

>  <NsssNH>
0

>  <NdsN>
0

>  <NaaN>
0

>  <NsssN>
1

>  <NddsN>
0

>  <NaasN>
0

>  <NssssN>
0

>  <NsOH>
0

>  <NdO>
5

>  <NssO>
0

>  <NaaO>
0

>  <NsF>
0

>  <NsSiH3>
0

>  <NssSiH2>
0

>  <NsssSiH>
0

>  <NssssSi>
0

>  <NsPH2>
0

>  <NssPH>
0

>  <NsssP>
0

>  <NdsssP>
0

>  <NsssssP>
0

>  <NsSH>
0

>  <NdS>
0

>  <NssS>
0

>  <NaaS>
0

>  <NdssS>
0

>  <NddssS>
0

>  <NsCl>
0

>  <NsBr>
0

>  <NsI>
0

>  <fragCpx>
189.1

>  <fMF>
0.17

>  <nHBAcc>
5

>  <nHBDon>
4

>  <Kier1>
31.53

>  <Kier2>
11.47

>  <Lipinski>
0

>  <GhoseFilter>
0

>  <FilterItLogS>
-3.81

>  <VMcGowan>
416.46

>  <LabuteASA>
219.77

>  <PEOE_VSA1>
26.58

>  <PEOE_VSA2>
19.18

>  <PEOE_VSA3>
4.79

>  <PEOE_VSA4>
0

>  <PEOE_VSA5>
0

>  <PEOE_VSA6>
53.88

>  <PEOE_VSA7>
55.78

>  <PEOE_VSA8>
12.08

>  <PEOE_VSA9>
6.04

>  <PEOE_VSA10>
12.08

>  <PEOE_VSA11>
0

>  <PEOE_VSA12>
17.6

>  <PEOE_VSA13>
5.91

>  <SMR_VSA1>
23.97

>  <SMR_VSA2>
0

>  <SMR_VSA3>
20.85

>  <SMR_VSA4>
34.32

>  <SMR_VSA5>
104.74

>  <SMR_VSA6>
6.54

>  <SMR_VSA7>
0

>  <SMR_VSA8>
0

>  <SMR_VSA9>
0

>  <SlogP_VSA1>
21.68

>  <SlogP_VSA2>
64.65

>  <SlogP_VSA3>
19.18

>  <SlogP_VSA4>
28.58

>  <SlogP_VSA5>
81.07

>  <SlogP_VSA6>
0

>  <SlogP_VSA7>
0

>  <SlogP_VSA8>
0

>  <SlogP_VSA9>
0

>  <SlogP_VSA10>
4.79

>  <SlogP_VSA11>
0

>  <EState_VSA1>
52.71

>  <EState_VSA2>
29.08

>  <EState_VSA3>
12.97

>  <EState_VSA4>
19.26

>  <EState_VSA5>
0

>  <EState_VSA6>
4.9

>  <EState_VSA7>
41.54

>  <EState_VSA8>
29.8

>  <EState_VSA9>
5.73

>  <EState_VSA10>
23.97

>  <VSA_EState1>
0

>  <VSA_EState2>
66.09

>  <VSA_EState3>
8.44

>  <VSA_EState4>
4.04

>  <VSA_EState5>
-2.35

>  <VSA_EState6>
-3.13

>  <VSA_EState7>
3.31

>  <VSA_EState8>
15.68

>  <VSA_EState9>
0

>  <apol>
84.61

>  <bpol>
52.33

>  <nRing>
3

>  <nHRing>
1

>  <naRing>
0

>  <naHRing>
0

>  <nARing 2>
3

>  <nAHRing 2>
1

>  <nFRing>
1

>  <nFHRing>
1

>  <nFaRing>
0

>  <nFaHRing>
0

>  <nFARing 2>
1

>  <nFAHRing 2>
1

>  <nRot>
8

>  <SLogP>
1.71

>  <SMR>
139.02

>  <TopoPSA(NO)>
150.7

>  <TopoPSA>
150.7

>  <JGI1>
0.33

>  <JGI2>
0.12

>  <JGI3>
0.08

>  <JGI4>
0.05

>  <JGI5>
0.03

>  <Diameter>
15

>  <Radius>
8

>  <TMWC10>
156.96

>  <TSRW10>
96.14

>  <MW>
519.34

>  <AMW>
6.33

>  <WPath>
4259

>  <WPol>
55

>  <Zagreb1>
202

>  <Zagreb2>
240

>  <mZagreb2>
7.6

>  <yes>


>  <nAR-cont>
0.691115

>  <nHA-cont>
0.433355441

>  <MWHBN>
0.394926815

>  <MWHBN-cont>
0.496044024

>  <TPSA-cont>
0

>  <pka_cont>
0.97

>  <yes.1>


>  <BBB_SCORE>
2.353536477

>  <MMFF94 Energy>
46.523

$$$$
Compound 2694
Actelion Java MolfileCreator 2.0

  0  0  0  0  0  0              0 V3000
M  V30 BEGIN CTAB
M  V30 COUNTS 35 36 0 0 0
M  V30 BEGIN ATOM
M  V30 1 O -2.0499 -0.7092 0.9457 0
M  V30 2 C -1.3174 0.199 0.5495 0
M  V30 3 C 0.0424 -0.0912 0.1062 0
M  V30 4 C -1.8499 1.6275 0.4759 0
M  V30 5 C 1.1898 0.6722 0.2459 0
M  V30 6 C 0.4892 -1.2767 -0.5484 0
M  V30 7 C -3.0903 1.6605 -0.4155 0
M  V30 8 C -2.1744 2.1305 1.8788 0
M  V30 9 N 2.2326 -0.0532 -0.3425 0
M  V30 10 C 1.5279 1.9285 0.84 0
M  V30 11 N 1.7975 -1.2382 -0.8222 0
M  V30 12 C -0.3249 -2.4857 -0.9403 0
M  V30 13 C 3.5412 0.4306 -0.3986 0
M  V30 14 C 2.7944 2.3824 0.782 0
M  V30 15 C 0.0156 -2.995 -2.3448 0
M  V30 16 C -0.1694 -3.6096 0.086 0
M  V30 17 C 3.8464 1.6228 0.1353 0
M  V30 18 H -1.105 2.284 0.0175 0
M  V30 19 H -3.4637 2.6843 -0.5235 0
M  V30 20 H -2.8593 1.2755 -1.4147 0
M  V30 21 H -3.8994 1.0464 -0.0048 0
M  V30 22 H -1.2994 2.0652 2.5336 0
M  V30 23 H -2.9717 1.5384 2.3419 0
M  V30 24 H -2.5016 3.175 1.8507 0
M  V30 25 H 0.7751 2.5166 1.3523 0
M  V30 26 H -1.3834 -2.2003 -0.9671 0
M  V30 27 H 4.2623 -0.2101 -0.8877 0
M  V30 28 H 3.0645 3.3322 1.2353 0
M  V30 29 H 1.0439 -3.3686 -2.404 0
M  V30 30 H -0.6533 -3.8138 -2.6309 0
M  V30 31 H -0.0942 -2.1967 -3.0873 0
M  V30 32 H 0.8668 -3.9616 0.141 0
M  V30 33 H -0.4571 -3.2696 1.0871 0
M  V30 34 H -0.8036 -4.464 -0.1732 0
M  V30 35 H 4.8535 2.0234 0.1081 0
M  V30 END ATOM
M  V30 BEGIN BOND
M  V30 1 2 1 2
M  V30 2 1 2 3
M  V30 3 1 2 4
M  V30 4 2 3 5
M  V30 5 1 3 6
M  V30 6 1 4 7
M  V30 7 1 4 8
M  V30 8 1 5 9
M  V30 9 1 5 10
M  V30 10 2 6 11
M  V30 11 1 6 12
M  V30 12 1 9 13
M  V30 13 2 10 14
M  V30 14 1 12 15
M  V30 15 1 12 16
M  V30 16 2 13 17
M  V30 17 1 9 11
M  V30 18 1 14 17
M  V30 19 1 4 18
M  V30 20 1 7 19
M  V30 21 1 7 20
M  V30 22 1 7 21
M  V30 23 1 8 22
M  V30 24 1 8 23
M  V30 25 1 8 24
M  V30 26 1 10 25
M  V30 27 1 12 26
M  V30 28 1 13 27
M  V30 29 1 14 28
M  V30 30 1 15 29
M  V30 31 1 15 30
M  V30 32 1 15 31
M  V30 33 1 16 32
M  V30 34 1 16 33
M  V30 35 1 16 34
M  V30 36 1 17 35
M  V30 END BOND
M  V30 END CTAB
M  END
>  <Column 1>
3383

>  <level_0>
5614

>  <index>
5615

>  <Unnamed: 0>
5615

>  <NO.>
5627

>  <Name>
ibudilast

>  <IUPAC_name>
2-methyl-1-(2-propan-2-ylpyrazolo[1-5-a]pyridin-3-yl)propan-1-one

>  <SMILES>
CC(C)C(=O)c1c(C(C)C)nn2ccccc12

>  <CID>
3671

>  <logBB>


>  <BBB+/BBB->
BBB-

>  <Inchi>
InChI=1S/C14H18N2O/c1-9(2)13-12(14(17)10(3)4)11-7-5-6-8-16(11)15-13/h5-10H-1-4H3

>  <threshold>


>  <reference>
R23|

>  <group>
C

>  <Class>
-1

>  <ABC>
13.03

>  <ABCGG>
12.13

>  <nAcid>
0

>  <nBase>
0

>  <nAromAtom>
9

>  <nAromBond>
10

>  <nAtom>
35

>  <nHeavyAtom>
17

>  <nSpiro>
0

>  <nBridgehead>
0

>  <nHetero>
3

>  <nN>
2

>  <nO>
1

>  <nF>
0

>  <BalabanJ>
2.17

>  <BertzCT>
552.35

>  <nBonds>
36

>  <nBondsO>
18

>  <nBondsS>
25

>  <nBondsD>
1

>  <nBondsT>
0

>  <nBondsA>
10

>  <nBondsM>
11

>  <nBondsKS>
31

>  <nBondsKD>
5

>  <RNCG>
0.27

>  <RPCG>
0.16

>  <FCSP3>
0.43

>  <SZ>
20.67

>  <Sm>
19.18

>  <Sv>
21.11

>  <Sse>
34.65

>  <Sp>
22.98

>  <Si>
39.53

>  <MZ>
0.59

>  <Mm>
0.55

>  <Mv>
0.6

>  <Mse>
0.99

>  <Mp>
0.66

>  <Mi>
1.13

>  <NsCH3>
4

>  <NdCH2>
0

>  <NssCH2>
0

>  <NtCH>
0

>  <NdsCH>
0

>  <NaaCH>
4

>  <NsssCH>
2

>  <NddC>
0

>  <NtsC>
0

>  <NdssC>
1

>  <NaasC>
2

>  <NaaaC>
1

>  <NssssC>
0

>  <NsNH3>
0

>  <NsNH2>
0

>  <NssNH2>
0

>  <NdNH>
0

>  <NssNH>
0

>  <NaaNH>
0

>  <NtN>
0

>  <NsssNH>
0

>  <NdsN>
0

>  <NaaN>
1

>  <NsssN>
0

>  <NddsN>
0

>  <NaasN>
1

>  <NssssN>
0

>  <NsOH>
0

>  <NdO>
1

>  <NssO>
0

>  <NaaO>
0

>  <NsF>
0

>  <NsSiH3>
0

>  <NssSiH2>
0

>  <NsssSiH>
0

>  <NssssSi>
0

>  <NsPH2>
0

>  <NssPH>
0

>  <NsssP>
0

>  <NdsssP>
0

>  <NsssssP>
0

>  <NsSH>
0

>  <NdS>
0

>  <NssS>
0

>  <NaaS>
0

>  <NdssS>
0

>  <NddssS>
0

>  <NsCl>
0

>  <NsBr>
0

>  <NsI>
0

>  <fragCpx>
52.03

>  <fMF>
0.26

>  <nHBAcc>
3

>  <nHBDon>
0

>  <Kier1>
13.43

>  <Kier2>
5.33

>  <Lipinski>
1

>  <GhoseFilter>
1

>  <FilterItLogS>
-3.08

>  <VMcGowan>
190.73

>  <LabuteASA>
101.45

>  <PEOE_VSA1>
0

>  <PEOE_VSA2>
4.79

>  <PEOE_VSA3>
4.52

>  <PEOE_VSA4>
5.1

>  <PEOE_VSA5>
0

>  <PEOE_VSA6>
33.76

>  <PEOE_VSA7>
18.05

>  <PEOE_VSA8>
12.11

>  <PEOE_VSA9>
16.77

>  <PEOE_VSA10>
0

>  <PEOE_VSA11>
5.78

>  <PEOE_VSA12>
0

>  <PEOE_VSA13>
0

>  <SMR_VSA1>
4.79

>  <SMR_VSA2>
0

>  <SMR_VSA3>
9.61

>  <SMR_VSA4>
5.92

>  <SMR_VSA5>
33.61

>  <SMR_VSA6>
0

>  <SMR_VSA7>
35.65

>  <SMR_VSA8>
0

>  <SMR_VSA9>
0

>  <SlogP_VSA1>
0

>  <SlogP_VSA2>
15.4

>  <SlogP_VSA3>
0

>  <SlogP_VSA4>
5.92

>  <SlogP_VSA5>
49.66

>  <SlogP_VSA6>
24.4

>  <SlogP_VSA7>
0

>  <SlogP_VSA8>
5.52

>  <SlogP_VSA9>
0

>  <SlogP_VSA10>
0

>  <SlogP_VSA11>
0

>  <EState_VSA1>
0

>  <EState_VSA2>
17.62

>  <EState_VSA3>
0

>  <EState_VSA4>
16.77

>  <EState_VSA5>
0

>  <EState_VSA6>
4.52

>  <EState_VSA7>
38.24

>  <EState_VSA8>
18.95

>  <EState_VSA9>
0

>  <EState_VSA10>
4.79

>  <VSA_EState1>
1.8

>  <VSA_EState2>
12.29

>  <VSA_EState3>
4.51

>  <VSA_EState4>
2.6

>  <VSA_EState5>
0.43

>  <VSA_EState6>
5.82

>  <VSA_EState7>
1.89

>  <VSA_EState8>
8

>  <VSA_EState9>
0

>  <apol>
38.38

>  <bpol>
20.64

>  <nRing>
2

>  <nHRing>
2

>  <naRing>
2

>  <naHRing>
2

>  <nARing 2>
0

>  <nAHRing 2>
0

>  <nFRing>
1

>  <nFHRing>
1

>  <nFaRing>
1

>  <nFaHRing>
1

>  <nFARing 2>
0

>  <nFAHRing 2>
0

>  <nRot>
3

>  <SLogP>
3.3

>  <SMR>
68.45

>  <TopoPSA(NO)>
34.37

>  <TopoPSA>
34.37

>  <JGI1>
0.19

>  <JGI2>
0.09

>  <JGI3>
0.06

>  <JGI4>
0.06

>  <JGI5>
0.03

>  <Diameter>
7

>  <Radius>
4

>  <TMWC10>
107.71

>  <TSRW10>
64.26

>  <MW>
230.14

>  <AMW>
6.58

>  <WPath>
468

>  <WPol>
27

>  <Zagreb1>
88

>  <Zagreb2>
105

>  <mZagreb2>
3.75

>  <yes>


>  <nAR-cont>
0.336376

>  <nHA-cont>
0.976740822

>  <MWHBN>
0.197753965

>  <MWHBN-cont>
0.999105133

>  <TPSA-cont>
0.760076058

>  <pka_cont>
0.97

>  <yes.1>


>  <BBB_SCORE>
4.816926636

>  <MMFF94 Energy>
40.376

$$$$
Compound 2695
Actelion Java MolfileCreator 2.0

  0  0  0  0  0  0              0 V3000
M  V30 BEGIN CTAB
M  V30 COUNTS 109 112 0 0 0
M  V30 BEGIN ATOM
M  V30 1 O 3.9593 -0.3953 -2.691 0
M  V30 2 C 3.3195 -0.8127 -1.7305 0
M  V30 3 N 2.9504 -2.1394 -1.6137 0
M  V30 4 C 2.9773 0.0609 -0.5079 0
M  V30 5 C 3.2781 -3.1319 -2.6403 0
M  V30 6 N 1.5942 -0.2216 -0.0907 0
M  V30 7 C 3.9731 -0.2202 0.6334 0
M  V30 8 C 2.2462 -4.2698 -2.7577 0
M  V30 9 C 4.6807 -3.6995 -2.3452 0
M  V30 10 C 0.9238 0.6336 0.7554 0
M  V30 11 C 5.2943 0.4856 0.4474 0
M  V30 12 O 2.2104 -5.0146 -3.735 0
M  V30 13 C 1.2371 -4.5007 -1.6744 0
M  V30 14 C 5.3142 -4.5722 -3.4473 0
M  V30 15 O 1.4465 1.6337 1.2467 0
M  V30 16 C -0.5329 0.2464 1.0634 0
M  V30 17 C 6.3926 -0.1777 -0.1135 0
M  V30 18 C 5.4274 1.8309 0.8191 0
M  V30 19 O 1.5094 -3.9418 -0.3775 0
M  V30 20 C 1.6567 -5.3643 -0.502 0
M  V30 21 C -0.2181 -4.4936 -2.0412 0
M  V30 22 C 5.46 -3.8269 -4.7742 0
M  V30 23 C 6.6875 -5.0673 -2.9819 0
M  V30 24 N -1.2691 1.5024 1.1703 0
M  V30 25 C -0.6184 -0.5342 2.384 0
M  V30 26 C 7.6038 0.4917 -0.294 0
M  V30 27 C 6.6397 2.4974 0.6389 0
M  V30 28 C -2.6191 1.5817 0.9299 0
M  V30 29 C -0.1519 -2.0004 2.3014 0
M  V30 30 C 7.7276 1.8278 0.083 0
M  V30 31 O -3.2879 0.6039 0.5963 0
M  V30 32 C -3.2236 2.9879 1.0886 0
M  V30 33 C -0.0772 -2.5996 3.7086 0
M  V30 34 C -1.0858 -2.8479 1.4361 0
M  V30 35 N -4.5565 2.8061 1.6404 0
M  V30 36 C -3.295 3.7138 -0.2583 0
M  V30 37 C -5.1647 3.711 2.4744 0
M  V30 38 C -1.9179 4.1473 -0.7672 0
M  V30 39 O -4.6471 4.7744 2.8043 0
M  V30 40 C -6.5801 3.3085 2.9081 0
M  V30 41 C -2.0245 4.9379 -2.0472 0
M  V30 42 N -6.7264 1.833 2.9833 0
M  V30 43 C -1.9678 4.2918 -3.2892 0
M  V30 44 C -2.2103 6.3263 -2.0099 0
M  V30 45 C -6.027 1.29 4.1736 0
M  V30 46 C -8.1575 1.4702 3.0815 0
M  V30 47 C -2.0822 5.0237 -4.4721 0
M  V30 48 C -2.3249 7.0561 -3.194 0
M  V30 49 C -6.2499 -0.2256 4.3011 0
M  V30 50 C -8.3373 -0.0484 3.2371 0
M  V30 51 C -2.2596 6.4052 -4.4244 0
M  V30 52 O -7.6467 -0.5352 4.3951 0
M  V30 53 H 2.5509 -2.469 -0.7395 0
M  V30 54 H 3.0099 1.1115 -0.8215 0
M  V30 55 H 3.2694 -2.6049 -3.6002 0
M  V30 56 H 1.0791 -0.954 -0.5647 0
M  V30 57 H 3.5594 0.0959 1.5997 0
M  V30 58 H 4.1473 -1.2986 0.7445 0
M  V30 59 H 4.6343 -4.2854 -1.4169 0
M  V30 60 H 5.3646 -2.8659 -2.1355 0
M  V30 61 H 4.6922 -5.4584 -3.6138 0
M  V30 62 H -0.9526 -0.3189 0.2264 0
M  V30 63 H 6.3142 -1.2167 -0.4227 0
M  V30 64 H 4.5835 2.3683 1.2493 0
M  V30 65 H 0.9154 -5.9926 -0.022 0
M  V30 66 H 2.6596 -5.7745 -0.485 0
M  V30 67 H -0.488 -3.5332 -2.4922 0
M  V30 68 H -0.8631 -4.6492 -1.1701 0
M  V30 69 H -0.4335 -5.2868 -2.7641 0
M  V30 70 H 4.4842 -3.5884 -5.2073 0
M  V30 71 H 6.0155 -2.8918 -4.6454 0
M  V30 72 H 5.9959 -4.4397 -5.5071 0
M  V30 73 H 6.6008 -5.6353 -2.0496 0
M  V30 74 H 7.3743 -4.2318 -2.8082 0
M  V30 75 H 7.1383 -5.726 -3.7318 0
M  V30 76 H -0.7397 2.3218 1.4588 0
M  V30 77 H -0.0205 -0.0115 3.1434 0
M  V30 78 H -1.6523 -0.5167 2.7548 0
M  V30 79 H 8.4501 -0.0275 -0.7356 0
M  V30 80 H 6.7332 3.5408 0.9284 0
M  V30 81 H 0.8556 -2.0414 1.8729 0
M  V30 82 H 8.6702 2.3487 -0.0617 0
M  V30 83 H -2.6297 3.5663 1.8058 0
M  V30 84 H 0.6179 -2.0324 4.3366 0
M  V30 85 H -1.0579 -2.5939 4.1966 0
M  V30 86 H 0.2775 -3.6351 3.6722 0
M  V30 87 H -1.0696 -2.522 0.3924 0
M  V30 88 H -2.1196 -2.7912 1.7936 0
M  V30 89 H -0.7829 -3.9002 1.4536 0
M  V30 90 H -5.053 1.9329 1.4627 0
M  V30 91 H -3.9368 4.5995 -0.1572 0
M  V30 92 H -3.7809 3.0719 -1.0056 0
M  V30 93 H -1.4063 4.7536 -0.009 0
M  V30 94 H -1.2766 3.2757 -0.9423 0
M  V30 95 H -6.8156 3.7891 3.8647 0
M  V30 96 H -7.2531 3.7128 2.1419 0
M  V30 97 H -1.834 3.214 -3.3434 0
M  V30 98 H -2.2686 6.8479 -1.057 0
M  V30 99 H -4.95 1.4775 4.1072 0
M  V30 100 H -6.4001 1.7804 5.0824 0
M  V30 101 H -8.6133 1.9741 3.944 0
M  V30 102 H -8.6872 1.7957 2.1789 0
M  V30 103 H -2.0336 4.5155 -5.4315 0
M  V30 104 H -2.4666 8.133 -3.1556 0
M  V30 105 H -5.7681 -0.5952 5.2119 0
M  V30 106 H -5.8146 -0.765 3.4512 0
M  V30 107 H -9.3989 -0.2846 3.362 0
M  V30 108 H -7.979 -0.5844 2.3499 0
M  V30 109 H -2.3485 6.9743 -5.3457 0
M  V30 END ATOM
M  V30 BEGIN BOND
M  V30 1 2 1 2
M  V30 2 1 2 3
M  V30 3 1 2 4
M  V30 4 1 3 5
M  V30 5 1 4 6
M  V30 6 1 4 7
M  V30 7 1 5 8
M  V30 8 1 5 9
M  V30 9 1 6 10
M  V30 10 1 7 11
M  V30 11 2 8 12
M  V30 12 1 8 13
M  V30 13 1 9 14
M  V30 14 2 10 15
M  V30 15 1 10 16
M  V30 16 2 11 17
M  V30 17 1 11 18
M  V30 18 1 13 19
M  V30 19 1 13 20
M  V30 20 1 13 21
M  V30 21 1 14 22
M  V30 22 1 14 23
M  V30 23 1 16 24
M  V30 24 1 16 25
M  V30 25 1 17 26
M  V30 26 2 18 27
M  V30 27 1 24 28
M  V30 28 1 25 29
M  V30 29 2 26 30
M  V30 30 2 28 31
M  V30 31 1 28 32
M  V30 32 1 29 33
M  V30 33 1 29 34
M  V30 34 1 32 35
M  V30 35 1 32 36
M  V30 36 1 35 37
M  V30 37 1 36 38
M  V30 38 2 37 39
M  V30 39 1 37 40
M  V30 40 1 38 41
M  V30 41 1 40 42
M  V30 42 2 41 43
M  V30 43 1 41 44
M  V30 44 1 42 45
M  V30 45 1 42 46
M  V30 46 1 43 47
M  V30 47 2 44 48
M  V30 48 1 45 49
M  V30 49 1 46 50
M  V30 50 2 47 51
M  V30 51 1 49 52
M  V30 52 1 19 20
M  V30 53 1 27 30
M  V30 54 1 48 51
M  V30 55 1 50 52
M  V30 56 1 3 53
M  V30 57 1 4 54
M  V30 58 1 5 55
M  V30 59 1 6 56
M  V30 60 1 7 57
M  V30 61 1 7 58
M  V30 62 1 9 59
M  V30 63 1 9 60
M  V30 64 1 14 61
M  V30 65 1 16 62
M  V30 66 1 17 63
M  V30 67 1 18 64
M  V30 68 1 20 65
M  V30 69 1 20 66
M  V30 70 1 21 67
M  V30 71 1 21 68
M  V30 72 1 21 69
M  V30 73 1 22 70
M  V30 74 1 22 71
M  V30 75 1 22 72
M  V30 76 1 23 73
M  V30 77 1 23 74
M  V30 78 1 23 75
M  V30 79 1 24 76
M  V30 80 1 25 77
M  V30 81 1 25 78
M  V30 82 1 26 79
M  V30 83 1 27 80
M  V30 84 1 29 81
M  V30 85 1 30 82
M  V30 86 1 32 83
M  V30 87 1 33 84
M  V30 88 1 33 85
M  V30 89 1 33 86
M  V30 90 1 34 87
M  V30 91 1 34 88
M  V30 92 1 34 89
M  V30 93 1 35 90
M  V30 94 1 36 91
M  V30 95 1 36 92
M  V30 96 1 38 93
M  V30 97 1 38 94
M  V30 98 1 40 95
M  V30 99 1 40 96
M  V30 100 1 43 97
M  V30 101 1 44 98
M  V30 102 1 45 99
M  V30 103 1 45 100
M  V30 104 1 46 101
M  V30 105 1 46 102
M  V30 106 1 47 103
M  V30 107 1 48 104
M  V30 108 1 49 105
M  V30 109 1 49 106
M  V30 110 1 50 107
M  V30 111 1 50 108
M  V30 112 1 51 109
M  V30 END BOND
M  V30 END CTAB
M  END
>  <Column 1>
3384

>  <level_0>
5615

>  <index>
5616

>  <Unnamed: 0>
5616

>  <NO.>
5628

>  <Name>
carfilzomib

>  <IUPAC_name>
4-methyl-n-[1-[[4-methyl-1-(2-methyloxiran-2-yl)-1-oxopentan-2-yl]amino]-1-oxo-3-phenylpropan-2-yl]-2-[[2-[(2-morpholin-4-ylacetyl)amino]-4-phenylbutanoyl]amino]pentanamide

>  <SMILES>
CC(C)CC(NC(=O)C(CCc1ccccc1)NC(=O)CN1CCOCC1)C(=O)NC(Cc1ccccc1)C(=O)NC(CC(C)C)C(=O)C1(C)CO1

>  <CID>
73005958

>  <logBB>


>  <BBB+/BBB->
BBB-

>  <Inchi>
InChI=1S/C40H57N5O7/c1-27(2)22-32(36(47)40(5)26-52-40)42-39(50)34(24-30-14-10-7-11-15-30)44-38(49)33(23-28(3)4)43-37(48)31(17-16-29-12-8-6-9-13-29)41-35(46)25-45-18-20-51-21-19-45/h6-15-27-28-31-34H-16-26H2-1-5H3-(H-41-46)(H-42-50)(H-43-48)(H-44-49)

>  <threshold>


>  <reference>
R23|

>  <group>
C

>  <Class>
-1

>  <ABC>
39.81

>  <ABCGG>
31.67

>  <nAcid>
0

>  <nBase>
1

>  <nAromAtom>
12

>  <nAromBond>
12

>  <nAtom>
109

>  <nHeavyAtom>
52

>  <nSpiro>
0

>  <nBridgehead>
0

>  <nHetero>
12

>  <nN>
5

>  <nO>
7

>  <nF>
0

>  <BalabanJ>
1.46

>  <BertzCT>
1475.66

>  <nBonds>
112

>  <nBondsO>
55

>  <nBondsS>
95

>  <nBondsD>
5

>  <nBondsT>
0

>  <nBondsA>
12

>  <nBondsM>
17

>  <nBondsKS>
101

>  <nBondsKD>
11

>  <RNCG>
0.08

>  <RPCG>
0.05

>  <FCSP3>
0.58

>  <SZ>
64.67

>  <Sm>
59.94

>  <Sv>
64.24

>  <Sse>
108.93

>  <Sp>
69.41

>  <Si>
123.76

>  <MZ>
0.59

>  <Mm>
0.55

>  <Mv>
0.59

>  <Mse>
1

>  <Mp>
0.64

>  <Mi>
1.14

>  <NsCH3>
5

>  <NdCH2>
0

>  <NssCH2>
11

>  <NtCH>
0

>  <NdsCH>
0

>  <NaaCH>
10

>  <NsssCH>
6

>  <NddC>
0

>  <NtsC>
0

>  <NdssC>
5

>  <NaasC>
2

>  <NaaaC>
0

>  <NssssC>
1

>  <NsNH3>
0

>  <NsNH2>
0

>  <NssNH2>
0

>  <NdNH>
0

>  <NssNH>
4

>  <NaaNH>
0

>  <NtN>
0

>  <NsssNH>
0

>  <NdsN>
0

>  <NaaN>
0

>  <NsssN>
1

>  <NddsN>
0

>  <NaasN>
0

>  <NssssN>
0

>  <NsOH>
0

>  <NdO>
5

>  <NssO>
2

>  <NaaO>
0

>  <NsF>
0

>  <NsSiH3>
0

>  <NssSiH2>
0

>  <NsssSiH>
0

>  <NssssSi>
0

>  <NsPH2>
0

>  <NssPH>
0

>  <NsssP>
0

>  <NdsssP>
0

>  <NsssssP>
0

>  <NsSH>
0

>  <NdS>
0

>  <NssS>
0

>  <NaaS>
0

>  <NdssS>
0

>  <NddssS>
0

>  <NsCl>
0

>  <NsBr>
0

>  <NsI>
0

>  <fragCpx>
373.12

>  <fMF>
0.35

>  <nHBAcc>
8

>  <nHBDon>
4

>  <Kier1>
44.71

>  <Kier2>
22.67

>  <Lipinski>
0

>  <GhoseFilter>
0

>  <FilterItLogS>
-8

>  <VMcGowan>
574.71

>  <LabuteASA>
307.69

>  <PEOE_VSA1>
30.74

>  <PEOE_VSA2>
28.87

>  <PEOE_VSA3>
0

>  <PEOE_VSA4>
0

>  <PEOE_VSA5>
0

>  <PEOE_VSA6>
88.36

>  <PEOE_VSA7>
55.57

>  <PEOE_VSA8>
19.51

>  <PEOE_VSA9>
32.41

>  <PEOE_VSA10>
23.73

>  <PEOE_VSA11>
5.78

>  <PEOE_VSA12>
23.63

>  <PEOE_VSA13>
0

>  <SMR_VSA1>
33.45

>  <SMR_VSA2>
0

>  <SMR_VSA3>
26.17

>  <SMR_VSA4>
11.84

>  <SMR_VSA5>
96.49

>  <SMR_VSA6>
39.45

>  <SMR_VSA7>
71.79

>  <SMR_VSA8>
0

>  <SMR_VSA9>
0

>  <SlogP_VSA1>
21.27

>  <SlogP_VSA2>
103.54

>  <SlogP_VSA3>
46.29

>  <SlogP_VSA4>
11.84

>  <SlogP_VSA5>
65.01

>  <SlogP_VSA6>
60.66

>  <SlogP_VSA7>
0

>  <SlogP_VSA8>
0

>  <SlogP_VSA9>
0

>  <SlogP_VSA10>
0

>  <SlogP_VSA11>
0

>  <EState_VSA1>
47.49

>  <EState_VSA2>
36.49

>  <EState_VSA3>
58.59

>  <EState_VSA4>
11.13

>  <EState_VSA5>
0

>  <EState_VSA6>
6.92

>  <EState_VSA7>
93.26

>  <EState_VSA8>
21.27

>  <EState_VSA9>
9.47

>  <EState_VSA10>
23.97

>  <VSA_EState1>
10.81

>  <VSA_EState2>
70.45

>  <VSA_EState3>
11.65

>  <VSA_EState4>
0.91

>  <VSA_EState5>
-1.83

>  <VSA_EState6>
15.32

>  <VSA_EState7>
1.76

>  <VSA_EState8>
12.34

>  <VSA_EState9>
0

>  <apol>
115.92

>  <bpol>
68.98

>  <nRing>
4

>  <nHRing>
2

>  <naRing>
2

>  <naHRing>
0

>  <nARing 2>
2

>  <nAHRing 2>
2

>  <nFRing>
0

>  <nFHRing>
0

>  <nFaRing>
0

>  <nFaHRing>
0

>  <nFARing 2>
0

>  <nFAHRing 2>
0

>  <nRot>
20

>  <SLogP>
2.58

>  <SMR>
198.16

>  <TopoPSA(NO)>
158.47

>  <TopoPSA>
158.47

>  <JGI1>
0.23

>  <JGI2>
0.07

>  <JGI3>
0.04

>  <JGI4>
0.04

>  <JGI5>
0.02

>  <Diameter>
19

>  <Radius>
10

>  <TMWC10>
187.62

>  <TSRW10>
109.45

>  <MW>
719.43

>  <AMW>
6.6

>  <WPath>
11415

>  <WPol>
74

>  <Zagreb1>
260

>  <Zagreb2>
295

>  <mZagreb2>
11.53

>  <yes>


>  <nAR-cont>
1

>  <nHA-cont>
0

>  <MWHBN>
0.447390723

>  <MWHBN-cont>
0.295293143

>  <TPSA-cont>
0

>  <pka_cont>
0.97

>  <yes.1>


>  <BBB_SCORE>
1.927939715

>  <MMFF94 Energy>
211.93

$$$$
Compound 2696
Actelion Java MolfileCreator 2.0

  0  0  0  0  0  0              0 V3000
M  V30 BEGIN CTAB
M  V30 COUNTS 75 78 0 0 0
M  V30 BEGIN ATOM
M  V30 1 S 4.1708 0.1601 -1.5224 0
M  V30 2 O 4.2205 -1.2645 -1.2708 0
M  V30 3 O 4.7016 0.7162 -2.7474 0
M  V30 4 N 2.5319 0.6444 -1.3679 0
M  V30 5 C 4.984 0.9773 -0.1643 0
M  V30 6 C 1.8388 0.1869 -0.1152 0
M  V30 7 C 2.2071 2.0565 -1.7354 0
M  V30 8 C 5.562 2.2339 -0.355 0
M  V30 9 C 5.0987 0.3299 1.0677 0
M  V30 10 C 0.4283 -0.3157 -0.4664 0
M  V30 11 C 1.915 2.211 -3.2373 0
M  V30 12 C 6.2124 2.8626 0.7102 0
M  V30 13 C 5.752 0.9697 2.1246 0
M  V30 14 O 0.55 -1.4445 -1.3566 0
M  V30 15 C -0.3862 -0.7571 0.7771 0
M  V30 16 C 0.6402 1.48 -3.6587 0
M  V30 17 C 1.7931 3.697 -3.5853 0
M  V30 18 C 6.3241 2.2334 1.9533 0
M  V30 19 N -1.6129 -1.4306 0.3453 0
M  V30 20 C -0.6497 0.3904 1.7882 0
M  V30 21 N 6.9259 2.881 3.0161 0
M  V30 22 C -2.4043 -2.1656 1.1668 0
M  V30 23 C -1.1472 1.6943 1.2006 0
M  V30 24 O -2.264 -2.2796 2.3738 0
M  V30 25 O -3.3778 -2.7562 0.4336 0
M  V30 26 C -0.399 2.8709 1.3594 0
M  V30 27 C -2.365 1.7612 0.5112 0
M  V30 28 C -4.2858 -3.5755 1.1781 0
M  V30 29 C -0.8405 4.0754 0.8087 0
M  V30 30 C -2.8048 2.966 -0.0401 0
M  V30 31 C -5.2212 -4.2909 0.219 0
M  V30 32 C -5.2649 -2.774 2.0204 0
M  V30 33 C -2.0403 4.1213 0.1037 0
M  V30 34 C -6.4454 -4.5301 1.0737 0
M  V30 35 C -4.7922 -5.684 -0.1666 0
M  V30 36 O -6.476 -3.5347 2.0946 0
M  V30 37 O -6.3296 -5.8445 1.6287 0
M  V30 38 C -5.2103 -6.509 1.033 0
M  V30 39 H 2.3862 -0.6466 0.3356 0
M  V30 40 H 1.8253 1.0038 0.6112 0
M  V30 41 H 1.3355 2.4017 -1.1668 0
M  V30 42 H 3.0277 2.7153 -1.4365 0
M  V30 43 H 5.5148 2.7299 -1.3217 0
M  V30 44 H 4.6931 -0.668 1.2161 0
M  V30 45 H -0.126 0.443 -1.0265 0
M  V30 46 H 2.7421 1.8013 -3.8256 0
M  V30 47 H 6.6444 3.8486 0.5573 0
M  V30 48 H 5.823 0.4649 3.085 0
M  V30 49 H 1.2978 -1.2377 -1.9533 0
M  V30 50 H 0.181 -1.5363 1.3045 0
M  V30 51 H -0.2272 1.8294 -3.0888 0
M  V30 52 H 0.7376 0.4009 -3.5121 0
M  V30 53 H 0.4319 1.6456 -4.7212 0
M  V30 54 H 0.9693 4.1677 -3.0376 0
M  V30 55 H 2.7159 4.2315 -3.3362 0
M  V30 56 H 1.6091 3.8327 -4.6563 0
M  V30 57 H -1.7605 -1.5586 -0.6485 0
M  V30 58 H 0.286 0.5818 2.3295 0
M  V30 59 H -1.3647 0.0795 2.5589 0
M  V30 60 H 7.0909 2.3892 3.8842 0
M  V30 61 H 7.4224 3.7494 2.8677 0
M  V30 62 H 0.5336 2.8638 1.9195 0
M  V30 63 H -2.989 0.8775 0.4013 0
M  V30 64 H -3.7288 -4.2901 1.7971 0
M  V30 65 H -0.2534 4.981 0.939 0
M  V30 66 H -3.7507 3.0038 -0.5746 0
M  V30 67 H -5.4308 -3.6646 -0.6554 0
M  V30 68 H -4.8923 -2.5928 3.0328 0
M  V30 69 H -5.4918 -1.8018 1.5682 0
M  V30 70 H -2.3884 5.0597 -0.32 0
M  V30 71 H -7.3752 -4.4864 0.4976 0
M  V30 72 H -3.7283 -5.7801 -0.3997 0
M  V30 73 H -5.3628 -6.0094 -1.0447 0
M  V30 74 H -5.4931 -7.5292 0.7581 0
M  V30 75 H -4.4126 -6.5649 1.7809 0
M  V30 END ATOM
M  V30 BEGIN BOND
M  V30 1 2 1 2
M  V30 2 2 1 3
M  V30 3 1 1 4
M  V30 4 1 1 5
M  V30 5 1 4 6
M  V30 6 1 4 7
M  V30 7 2 5 8
M  V30 8 1 5 9
M  V30 9 1 6 10
M  V30 10 1 7 11
M  V30 11 1 8 12
M  V30 12 2 9 13
M  V30 13 1 10 14
M  V30 14 1 10 15
M  V30 15 1 11 16
M  V30 16 1 11 17
M  V30 17 2 12 18
M  V30 18 1 15 19
M  V30 19 1 15 20
M  V30 20 1 18 21
M  V30 21 1 19 22
M  V30 22 1 20 23
M  V30 23 2 22 24
M  V30 24 1 22 25
M  V30 25 2 23 26
M  V30 26 1 23 27
M  V30 27 1 25 28
M  V30 28 1 26 29
M  V30 29 2 27 30
M  V30 30 1 28 31
M  V30 31 1 28 32
M  V30 32 2 29 33
M  V30 33 1 31 34
M  V30 34 1 31 35
M  V30 35 1 32 36
M  V30 36 1 34 37
M  V30 37 1 35 38
M  V30 38 1 13 18
M  V30 39 1 30 33
M  V30 40 1 34 36
M  V30 41 1 37 38
M  V30 42 1 6 39
M  V30 43 1 6 40
M  V30 44 1 7 41
M  V30 45 1 7 42
M  V30 46 1 8 43
M  V30 47 1 9 44
M  V30 48 1 10 45
M  V30 49 1 11 46
M  V30 50 1 12 47
M  V30 51 1 13 48
M  V30 52 1 14 49
M  V30 53 1 15 50
M  V30 54 1 16 51
M  V30 55 1 16 52
M  V30 56 1 16 53
M  V30 57 1 17 54
M  V30 58 1 17 55
M  V30 59 1 17 56
M  V30 60 1 19 57
M  V30 61 1 20 58
M  V30 62 1 20 59
M  V30 63 1 21 60
M  V30 64 1 21 61
M  V30 65 1 26 62
M  V30 66 1 27 63
M  V30 67 1 28 64
M  V30 68 1 29 65
M  V30 69 1 30 66
M  V30 70 1 31 67
M  V30 71 1 32 68
M  V30 72 1 32 69
M  V30 73 1 33 70
M  V30 74 1 34 71
M  V30 75 1 35 72
M  V30 76 1 35 73
M  V30 77 1 38 74
M  V30 78 1 38 75
M  V30 END BOND
M  V30 END CTAB
M  END
>  <Column 1>
3385

>  <level_0>
5616

>  <index>
5617

>  <Unnamed: 0>
5617

>  <NO.>
5629

>  <Name>
darunavir

>  <IUPAC_name>
2-3-3a-4-5-6a-hexahydrofuro[2-3-b]furan-4-yl n-[4-[(4-aminophenyl)sulfonyl-(2-methylpropyl)amino]-3-hydroxy-1-phenylbutan-2-yl]carbamate

>  <SMILES>
CC(C)CN(CC(O)C(Cc1ccccc1)NC(=O)OC1COC2OCCC12)S(=O)(=O)c1ccc(N)cc1

>  <CID>
23545473

>  <logBB>


>  <BBB+/BBB->
BBB-

>  <Inchi>
InChI=1S/C27H37N3O7S/c1-18(2)15-30(38(33-34)21-10-8-20(28)9-11-21)16-24(31)23(14-19-6-4-3-5-7-19)29-27(32)37-25-17-36-26-22(25)12-13-35-26/h3-11-18-22-26-31H-12-17-28H2-1-2H3-(H-29-32)

>  <threshold>


>  <reference>
R23|

>  <group>
C

>  <Class>
-1

>  <ABC>
29.61

>  <ABCGG>
24.43

>  <nAcid>
0

>  <nBase>
0

>  <nAromAtom>
12

>  <nAromBond>
12

>  <nAtom>
75

>  <nHeavyAtom>
38

>  <nSpiro>
0

>  <nBridgehead>
0

>  <nHetero>
11

>  <nN>
3

>  <nO>
7

>  <nF>
0

>  <BalabanJ>
1.42

>  <BertzCT>
1160.95

>  <nBonds>
78

>  <nBondsO>
41

>  <nBondsS>
63

>  <nBondsD>
3

>  <nBondsT>
0

>  <nBondsA>
12

>  <nBondsM>
15

>  <nBondsKS>
69

>  <nBondsKD>
9

>  <RNCG>
0.12

>  <RPCG>
0.11

>  <FCSP3>
0.52

>  <SZ>
48.67

>  <Sm>
45.6

>  <Sv>
45.49

>  <Sse>
75.81

>  <Sp>
48.85

>  <Si>
84.94

>  <MZ>
0.65

>  <Mm>
0.61

>  <Mv>
0.61

>  <Mse>
1.01

>  <Mp>
0.65

>  <Mi>
1.13

>  <NsCH3>
2

>  <NdCH2>
0

>  <NssCH2>
6

>  <NtCH>
0

>  <NdsCH>
0

>  <NaaCH>
9

>  <NsssCH>
6

>  <NddC>
0

>  <NtsC>
0

>  <NdssC>
1

>  <NaasC>
3

>  <NaaaC>
0

>  <NssssC>
0

>  <NsNH3>
0

>  <NsNH2>
1

>  <NssNH2>
0

>  <NdNH>
0

>  <NssNH>
1

>  <NaaNH>
0

>  <NtN>
0

>  <NsssNH>
0

>  <NdsN>
0

>  <NaaN>
0

>  <NsssN>
1

>  <NddsN>
0

>  <NaasN>
0

>  <NssssN>
0

>  <NsOH>
1

>  <NdO>
3

>  <NssO>
3

>  <NaaO>
0

>  <NsF>
0

>  <NsSiH3>
0

>  <NssSiH2>
0

>  <NsssSiH>
0

>  <NssssSi>
0

>  <NsPH2>
0

>  <NssPH>
0

>  <NsssP>
0

>  <NdsssP>
0

>  <NsssssP>
0

>  <NsSH>
0

>  <NdS>
0

>  <NssS>
0

>  <NaaS>
0

>  <NdssS>
0

>  <NddssS>
1

>  <NsCl>
0

>  <NsBr>
0

>  <NsI>
0

>  <fragCpx>
275.11

>  <fMF>
0.39

>  <nHBAcc>
8

>  <nHBDon>
3

>  <Kier1>
30.95

>  <Kier2>
14.25

>  <Lipinski>
0

>  <GhoseFilter>
0

>  <FilterItLogS>
-3.97

>  <VMcGowan>
405.13

>  <LabuteASA>
223.66

>  <PEOE_VSA1>
30.37

>  <PEOE_VSA2>
0

>  <PEOE_VSA3>
13.21

>  <PEOE_VSA4>
4.31

>  <PEOE_VSA5>
0

>  <PEOE_VSA6>
44.18

>  <PEOE_VSA7>
48.59

>  <PEOE_VSA8>
18.78

>  <PEOE_VSA9>
36.17

>  <PEOE_VSA10>
6.1

>  <PEOE_VSA11>
6.29

>  <PEOE_VSA12>
10.02

>  <PEOE_VSA13>
0

>  <SMR_VSA1>
32.53

>  <SMR_VSA2>
0

>  <SMR_VSA3>
9.62

>  <SMR_VSA4>
11.84

>  <SMR_VSA5>
56.12

>  <SMR_VSA6>
32.04

>  <SMR_VSA7>
60.16

>  <SMR_VSA8>
0

>  <SMR_VSA9>
0

>  <SlogP_VSA1>
11.05

>  <SlogP_VSA2>
74.77

>  <SlogP_VSA3>
30.65

>  <SlogP_VSA4>
11.84

>  <SlogP_VSA5>
25.83

>  <SlogP_VSA6>
59.49

>  <SlogP_VSA7>
0

>  <SlogP_VSA8>
0

>  <SlogP_VSA9>
0

>  <SlogP_VSA10>
10.48

>  <SlogP_VSA11>
0

>  <EState_VSA1>
34.37

>  <EState_VSA2>
49.14

>  <EState_VSA3>
12.29

>  <EState_VSA4>
11.98

>  <EState_VSA5>
28.57

>  <EState_VSA6>
0

>  <EState_VSA7>
44.18

>  <EState_VSA8>
5.32

>  <EState_VSA9>
19.94

>  <EState_VSA10>
18.32

>  <VSA_EState1>
44.94

>  <VSA_EState2>
13.01

>  <VSA_EState3>
14.11

>  <VSA_EState4>
7.07

>  <VSA_EState5>
-0.02

>  <VSA_EState6>
14.52

>  <VSA_EState7>
-1.69

>  <VSA_EState8>
4.58

>  <VSA_EState9>
-3.93

>  <apol>
81.58

>  <bpol>
51.56

>  <nRing>
4

>  <nHRing>
2

>  <naRing>
2

>  <naHRing>
0

>  <nARing 2>
2

>  <nAHRing 2>
2

>  <nFRing>
1

>  <nFHRing>
1

>  <nFaRing>
0

>  <nFaHRing>
0

>  <nFARing 2>
1

>  <nFAHRing 2>
1

>  <nRot>
11

>  <SLogP>
2.38

>  <SMR>
141.6

>  <TopoPSA(NO)>
140.42

>  <TopoPSA>
148.8

>  <JGI1>
0.23

>  <JGI2>
0.08

>  <JGI3>
0.05

>  <JGI4>
0.04

>  <JGI5>
0.02

>  <Diameter>
16

>  <Radius>
8

>  <TMWC10>
157.91

>  <TSRW10>
90.55

>  <MW>
547.24

>  <AMW>
7.3

>  <WPath>
4771

>  <WPol>
57

>  <Zagreb1>
198

>  <Zagreb2>
230

>  <mZagreb2>
8.25

>  <yes>


>  <nAR-cont>
1

>  <nHA-cont>
0.390024847

>  <MWHBN>
0.470222892

>  <MWHBN-cont>
0

>  <TPSA-cont>
0

>  <pka_cont>
0.97

>  <yes.1>


>  <BBB_SCORE>
1.875024847

>  <MMFF94 Energy>
-27.495

$$$$
Compound 2697
Actelion Java MolfileCreator 2.0

  0  0  0  0  0  0              0 V3000
M  V30 BEGIN CTAB
M  V30 COUNTS 67 69 0 0 0
M  V30 BEGIN ATOM
M  V30 1 S 4.1592 5.7624 0.1597 0
M  V30 2 O 4.8126 6.6414 1.1019 0
M  V30 3 O 4.9071 4.7321 -0.5315 0
M  V30 4 N 2.9323 4.9733 0.9232 0
M  V30 5 C 3.3103 6.7309 -1.0703 0
M  V30 6 C 1.9644 5.5586 1.7539 0
M  V30 7 O 1.7587 6.7638 1.7953 0
M  V30 8 C 1.1533 4.5498 2.566 0
M  V30 9 O 1.6182 3.2202 2.3224 0
M  V30 10 C 0.815 2.2459 2.9869 0
M  V30 11 C 1.3707 0.8593 2.6791 0
M  V30 12 C 1.3142 0.5421 1.182 0
M  V30 13 C 1.8719 -0.8547 0.8903 0
M  V30 14 N 1.7726 -1.1852 -0.539 0
M  V30 15 C 0.5553 -1.7038 -0.9686 0
M  V30 16 C 2.9727 -1.1505 -1.3902 0
M  V30 17 N -0.4895 -1.6754 -0.1096 0
M  V30 18 C 0.3322 -2.2529 -2.2312 0
M  V30 19 C 3.7915 0.1284 -1.1938 0
M  V30 20 C 3.8291 -2.3925 -1.146 0
M  V30 21 C -1.7038 -2.1635 -0.5052 0
M  V30 22 N -0.8526 -2.7638 -2.6616 0
M  V30 23 C -1.8809 -2.7301 -1.7751 0
M  V30 24 C -2.7587 -2.0005 0.5128 0
M  V30 25 C -3.1242 -3.3471 -2.2722 0
M  V30 26 C -2.5432 -2.4361 1.8331 0
M  V30 27 C -3.9888 -1.3862 0.2191 0
M  V30 28 C -3.6492 -2.9778 -3.5239 0
M  V30 29 C -3.8111 -4.3321 -1.5404 0
M  V30 30 C -3.5273 -2.2904 2.8142 0
M  V30 31 C -4.9752 -1.2408 1.199 0
M  V30 32 C -4.8277 -3.5477 -4.0127 0
M  V30 33 C -4.9911 -4.9022 -2.027 0
M  V30 34 C -4.7449 -1.696 2.4948 0
M  V30 35 C -5.5004 -4.507 -3.261 0
M  V30 36 H 3.008 3.955 0.9415 0
M  V30 37 H 2.7026 6.066 -1.6869 0
M  V30 38 H 2.6951 7.4854 -0.5788 0
M  V30 39 H 4.0659 7.2201 -1.6892 0
M  V30 40 H 1.2653 4.792 3.6277 0
M  V30 41 H 0.1048 4.6405 2.2628 0
M  V30 42 H -0.2234 2.3247 2.6454 0
M  V30 43 H 0.8479 2.4239 4.0676 0
M  V30 44 H 2.4139 0.8059 3.0136 0
M  V30 45 H 0.8007 0.1098 3.2401 0
M  V30 46 H 0.2774 0.6266 0.837 0
M  V30 47 H 1.8858 1.2896 0.6211 0
M  V30 48 H 1.3665 -1.6116 1.5052 0
M  V30 49 H 2.9172 -0.8947 1.2181 0
M  V30 50 H 2.6913 -1.1331 -2.448 0
M  V30 51 H 1.115 -2.329 -2.9746 0
M  V30 52 H 4.2236 0.2018 -0.1912 0
M  V30 53 H 4.6218 0.1619 -1.9079 0
M  V30 54 H 3.173 1.0158 -1.3642 0
M  V30 55 H 4.1969 -2.4339 -0.1152 0
M  V30 56 H 3.2555 -3.3073 -1.3294 0
M  V30 57 H 4.6976 -2.4014 -1.8129 0
M  V30 58 H -1.5926 -2.8957 2.0999 0
M  V30 59 H -4.1906 -1.0088 -0.7815 0
M  V30 60 H -3.129 -2.2368 -4.1292 0
M  V30 61 H -3.4278 -4.6721 -0.5801 0
M  V30 62 H -3.3397 -2.6395 3.8262 0
M  V30 63 H -5.9219 -0.7692 0.9479 0
M  V30 64 H -5.2139 -3.2453 -4.9825 0
M  V30 65 H -5.5077 -5.6591 -1.4423 0
M  V30 66 H -5.5121 -1.582 3.2562 0
M  V30 67 H -6.4155 -4.9534 -3.641 0
M  V30 END ATOM
M  V30 BEGIN BOND
M  V30 1 2 1 2
M  V30 2 2 1 3
M  V30 3 1 1 4
M  V30 4 1 1 5
M  V30 5 1 4 6
M  V30 6 2 6 7
M  V30 7 1 6 8
M  V30 8 1 8 9
M  V30 9 1 9 10
M  V30 10 1 10 11
M  V30 11 1 11 12
M  V30 12 1 12 13
M  V30 13 1 13 14
M  V30 14 1 14 15
M  V30 15 1 14 16
M  V30 16 2 15 17
M  V30 17 1 15 18
M  V30 18 1 16 19
M  V30 19 1 16 20
M  V30 20 1 17 21
M  V30 21 2 18 22
M  V30 22 2 21 23
M  V30 23 1 21 24
M  V30 24 1 23 25
M  V30 25 2 24 26
M  V30 26 1 24 27
M  V30 27 2 25 28
M  V30 28 1 25 29
M  V30 29 1 26 30
M  V30 30 2 27 31
M  V30 31 1 28 32
M  V30 32 2 29 33
M  V30 33 2 30 34
M  V30 34 2 32 35
M  V30 35 1 22 23
M  V30 36 1 31 34
M  V30 37 1 33 35
M  V30 38 1 4 36
M  V30 39 1 5 37
M  V30 40 1 5 38
M  V30 41 1 5 39
M  V30 42 1 8 40
M  V30 43 1 8 41
M  V30 44 1 10 42
M  V30 45 1 10 43
M  V30 46 1 11 44
M  V30 47 1 11 45
M  V30 48 1 12 46
M  V30 49 1 12 47
M  V30 50 1 13 48
M  V30 51 1 13 49
M  V30 52 1 16 50
M  V30 53 1 18 51
M  V30 54 1 19 52
M  V30 55 1 19 53
M  V30 56 1 19 54
M  V30 57 1 20 55
M  V30 58 1 20 56
M  V30 59 1 20 57
M  V30 60 1 26 58
M  V30 61 1 27 59
M  V30 62 1 28 60
M  V30 63 1 29 61
M  V30 64 1 30 62
M  V30 65 1 31 63
M  V30 66 1 32 64
M  V30 67 1 33 65
M  V30 68 1 34 66
M  V30 69 1 35 67
M  V30 END BOND
M  V30 END CTAB
M  END
>  <Column 1>
3387

>  <level_0>
5618

>  <index>
5619

>  <Unnamed: 0>
5619

>  <NO.>
5631

>  <Name>
selexipag

>  <IUPAC_name>
2-[4-[(5-6-diphenylpyrazin-2-yl)-propan-2-ylamino]butoxy]-n-methylsulfonylacetamide

>  <SMILES>
CC(C)N(CCCCOCC(=O)NS(C)(=O)=O)c1cnc(-c2ccccc2)c(-c2ccccc2)n1

>  <CID>
9913767

>  <logBB>


>  <BBB+/BBB->
BBB-

>  <Inchi>
InChI=1S/C26H32N4O4S/c1-20(2)30(16-10-11-17-34-19-24(31)29-35(3-32)33)23-18-27-25(21-12-6-4-7-13-21)26(28-23)22-14-8-5-9-15-22/h4-9-12-15-18-20H-10-11-16-17-19H2-1-3H3-(H-29-31)

>  <threshold>


>  <reference>
R23|

>  <group>
C

>  <Class>
-1

>  <ABC>
26.77

>  <ABCGG>
20.37

>  <nAcid>
0

>  <nBase>
0

>  <nAromAtom>
18

>  <nAromBond>
18

>  <nAtom>
67

>  <nHeavyAtom>
35

>  <nSpiro>
0

>  <nBridgehead>
0

>  <nHetero>
9

>  <nN>
4

>  <nO>
4

>  <nF>
0

>  <BalabanJ>
1.48

>  <BertzCT>
1202.54

>  <nBonds>
69

>  <nBondsO>
37

>  <nBondsS>
48

>  <nBondsD>
3

>  <nBondsT>
0

>  <nBondsA>
18

>  <nBondsM>
21

>  <nBondsKS>
57

>  <nBondsKD>
12

>  <RNCG>
0.13

>  <RPCG>
0.09

>  <FCSP3>
0.35

>  <SZ>
44

>  <Sm>
41.35

>  <Sv>
41.75

>  <Sse>
67.26

>  <Sp>
45.07

>  <Si>
75.57

>  <MZ>
0.66

>  <Mm>
0.62

>  <Mv>
0.62

>  <Mse>
1

>  <Mp>
0.67

>  <Mi>
1.13

>  <NsCH3>
3

>  <NdCH2>
0

>  <NssCH2>
5

>  <NtCH>
0

>  <NdsCH>
0

>  <NaaCH>
11

>  <NsssCH>
1

>  <NddC>
0

>  <NtsC>
0

>  <NdssC>
1

>  <NaasC>
5

>  <NaaaC>
0

>  <NssssC>
0

>  <NsNH3>
0

>  <NsNH2>
0

>  <NssNH2>
0

>  <NdNH>
0

>  <NssNH>
1

>  <NaaNH>
0

>  <NtN>
0

>  <NsssNH>
0

>  <NdsN>
0

>  <NaaN>
2

>  <NsssN>
1

>  <NddsN>
0

>  <NaasN>
0

>  <NssssN>
0

>  <NsOH>
0

>  <NdO>
3

>  <NssO>
1

>  <NaaO>
0

>  <NsF>
0

>  <NsSiH3>
0

>  <NssSiH2>
0

>  <NsssSiH>
0

>  <NssssSi>
0

>  <NsPH2>
0

>  <NssPH>
0

>  <NsssP>
0

>  <NdsssP>
0

>  <NsssssP>
0

>  <NsSH>
0

>  <NdS>
0

>  <NssS>
0

>  <NaaS>
0

>  <NdssS>
0

>  <NddssS>
1

>  <NsCl>
0

>  <NsBr>
0

>  <NsI>
0

>  <fragCpx>
179.09

>  <fMF>
0.27

>  <nHBAcc>
7

>  <nHBDon>
1

>  <Kier1>
29.55

>  <Kier2>
14.81

>  <Lipinski>
1

>  <GhoseFilter>
0

>  <FilterItLogS>
-7.08

>  <VMcGowan>
381.37

>  <LabuteASA>
206.98

>  <PEOE_VSA1>
9.64

>  <PEOE_VSA2>
14.5

>  <PEOE_VSA3>
13.4

>  <PEOE_VSA4>
0

>  <PEOE_VSA5>
0

>  <PEOE_VSA6>
60.66

>  <PEOE_VSA7>
26.69

>  <PEOE_VSA8>
30.32

>  <PEOE_VSA9>
23.84

>  <PEOE_VSA10>
12.42

>  <PEOE_VSA11>
0

>  <PEOE_VSA12>
10.02

>  <PEOE_VSA13>
5.91

>  <SMR_VSA1>
17.95

>  <SMR_VSA2>
0

>  <SMR_VSA3>
14.69

>  <SMR_VSA4>
0

>  <SMR_VSA5>
32.73

>  <SMR_VSA6>
30.91

>  <SMR_VSA7>
66.86

>  <SMR_VSA8>
0

>  <SMR_VSA9>
22.51

>  <SlogP_VSA1>
9.62

>  <SlogP_VSA2>
56.35

>  <SlogP_VSA3>
19.55

>  <SlogP_VSA4>
0

>  <SlogP_VSA5>
26.69

>  <SlogP_VSA6>
66.86

>  <SlogP_VSA7>
0

>  <SlogP_VSA8>
22.51

>  <SlogP_VSA9>
0

>  <SlogP_VSA10>
5.82

>  <SlogP_VSA11>
0

>  <EState_VSA1>
15.93

>  <EState_VSA2>
12.65

>  <EState_VSA3>
6.61

>  <EState_VSA4>
53.97

>  <EState_VSA5>
0

>  <EState_VSA6>
0

>  <EState_VSA7>
71.58

>  <EState_VSA8>
18.75

>  <EState_VSA9>
14.7

>  <EState_VSA10>
13.21

>  <VSA_EState1>
29.32

>  <VSA_EState2>
23.56

>  <VSA_EState3>
0

>  <VSA_EState4>
3.69

>  <VSA_EState5>
0.13

>  <VSA_EState6>
20.29

>  <VSA_EState7>
4.29

>  <VSA_EState8>
5.04

>  <VSA_EState9>
-3.57

>  <apol>
75.27

>  <bpol>
45.92

>  <nRing>
3

>  <nHRing>
1

>  <naRing>
3

>  <naHRing>
1

>  <nARing 2>
0

>  <nAHRing 2>
0

>  <nFRing>
0

>  <nFHRing>
0

>  <nFaRing>
0

>  <nFaHRing>
0

>  <nFARing 2>
0

>  <nFAHRing 2>
0

>  <nRot>
12

>  <SLogP>
3.9

>  <SMR>
138.43

>  <TopoPSA(NO)>
101.49

>  <TopoPSA>
109.87

>  <JGI1>
0.19

>  <JGI2>
0.07

>  <JGI3>
0.05

>  <JGI4>
0.03

>  <JGI5>
0.02

>  <Diameter>
18

>  <Radius>
9

>  <TMWC10>
149.02

>  <TSRW10>
70.98

>  <MW>
496.21

>  <AMW>
7.41

>  <WPath>
4360

>  <WPol>
50

>  <Zagreb1>
174

>  <Zagreb2>
196

>  <mZagreb2>
7.76

>  <yes>


>  <nAR-cont>
0.336376

>  <nHA-cont>
0.523063577

>  <MWHBN>
0.359134586

>  <MWHBN-cont>
0.635726833

>  <TPSA-cont>
0.233039175

>  <pka_cont>
0.97

>  <yes.1>


>  <BBB_SCORE>
2.764108176

>  <MMFF94 Energy>
32.279

$$$$
Compound 2698
Actelion Java MolfileCreator 2.0

  0  0  0  0  0  0              0 V3000
M  V30 BEGIN CTAB
M  V30 COUNTS 65 67 0 0 0
M  V30 BEGIN ATOM
M  V30 1 P 0.3212 1.9289 0.4016 0
M  V30 2 O -0.4204 2.137 1.6867 0
M  V30 3 O 1.8286 1.3756 0.559 0
M  V30 4 O -0.3504 0.7836 -0.5197 0
M  V30 5 N 0.3814 3.2442 -0.5766 0
M  V30 6 C 2.0953 0.191 1.1819 0
M  V30 7 C -1.6902 0.4237 -0.2492 0
M  V30 8 C 0.8986 4.4902 0.0174 0
M  V30 9 C 1.6935 -0.059 2.4911 0
M  V30 10 C 2.829 -0.7578 0.4732 0
M  V30 11 C -2.144 -0.681 -1.2046 0
M  V30 12 C 2.3188 4.308 0.5599 0
M  V30 13 C 0.8662 5.618 -1.0082 0
M  V30 14 C 2.0048 -1.2824 3.0859 0
M  V30 15 C 3.1378 -1.9808 1.0682 0
M  V30 16 O -3.4561 -1.128 -0.8146 0
M  V30 17 C -1.2582 -1.9246 -1.2185 0
M  V30 18 O 2.6169 4.4683 1.7368 0
M  V30 19 O 3.1808 3.9294 -0.4249 0
M  V30 20 C 2.7231 -2.2438 2.374 0
M  V30 21 C -3.3062 -2.3216 -0.0129 0
M  V30 22 O -1.3984 -2.5617 -2.5054 0
M  V30 23 C -1.8526 -2.8257 -0.1445 0
M  V30 24 C 4.5314 3.6521 -0.0134 0
M  V30 25 N -4.309 -3.3119 -0.3968 0
M  V30 26 F -1.7981 -4.1152 -0.6032 0
M  V30 27 C -1.091 -2.792 1.1719 0
M  V30 28 C 5.1219 2.6881 -1.0348 0
M  V30 29 C 5.3283 4.9508 0.0275 0
M  V30 30 C -4.7017 -4.2171 0.5791 0
M  V30 31 C -4.7682 -3.403 -1.6966 0
M  V30 32 O -4.2784 -4.2034 1.7336 0
M  V30 33 N -5.6127 -5.1608 0.1842 0
M  V30 34 C -5.6467 -4.3353 -2.0711 0
M  V30 35 C -6.1309 -5.2979 -1.0701 0
M  V30 36 O -6.9444 -6.1647 -1.3662 0
M  V30 37 H -0.532 3.4361 -0.9694 0
M  V30 38 H -2.3357 1.3013 -0.3732 0
M  V30 39 H -1.7913 0.1076 0.793 0
M  V30 40 H 0.2586 4.772 0.8622 0
M  V30 41 H 1.1578 0.6918 3.0664 0
M  V30 42 H 3.1575 -0.5485 -0.5411 0
M  V30 43 H -2.2221 -0.2603 -2.2142 0
M  V30 44 H 1.4541 5.3735 -1.9002 0
M  V30 45 H -0.1601 5.8292 -1.3276 0
M  V30 46 H 1.2837 6.5381 -0.5842 0
M  V30 47 H 1.6966 -1.481 4.1096 0
M  V30 48 H 3.7077 -2.725 0.518 0
M  V30 49 H -0.1934 -1.7159 -1.0849 0
M  V30 50 H 2.9692 -3.194 2.8419 0
M  V30 51 H -3.5058 -2.0073 1.0191 0
M  V30 52 H -1.2662 -3.5195 -2.354 0
M  V30 53 H 4.5415 3.1648 0.9692 0
M  V30 54 H -0.0632 -3.1379 1.0214 0
M  V30 55 H -1.0575 -1.796 1.6184 0
M  V30 56 H -1.5479 -3.4761 1.8945 0
M  V30 57 H 6.1544 2.4261 -0.7845 0
M  V30 58 H 4.529 1.7683 -1.0774 0
M  V30 59 H 5.1025 3.1204 -2.0415 0
M  V30 60 H 6.3742 4.7655 0.2904 0
M  V30 61 H 4.9067 5.6448 0.7621 0
M  V30 62 H 5.2941 5.4617 -0.941 0
M  V30 63 H -4.3848 -2.684 -2.4159 0
M  V30 64 H -5.9183 -5.8193 0.8828 0
M  V30 65 H -6.0216 -4.4257 -3.0814 0
M  V30 END ATOM
M  V30 BEGIN BOND
M  V30 1 2 1 2
M  V30 2 1 1 3
M  V30 3 1 1 4
M  V30 4 1 1 5
M  V30 5 1 3 6
M  V30 6 1 4 7
M  V30 7 1 5 8
M  V30 8 2 6 9
M  V30 9 1 6 10
M  V30 10 1 7 11
M  V30 11 1 8 12
M  V30 12 1 8 13
M  V30 13 1 9 14
M  V30 14 2 10 15
M  V30 15 1 11 16
M  V30 16 1 11 17
M  V30 17 2 12 18
M  V30 18 1 12 19
M  V30 19 2 14 20
M  V30 20 1 16 21
M  V30 21 1 17 22
M  V30 22 1 17 23
M  V30 23 1 19 24
M  V30 24 1 21 25
M  V30 25 1 23 26
M  V30 26 1 23 27
M  V30 27 1 24 28
M  V30 28 1 24 29
M  V30 29 1 25 30
M  V30 30 1 25 31
M  V30 31 2 30 32
M  V30 32 1 30 33
M  V30 33 2 31 34
M  V30 34 1 33 35
M  V30 35 2 35 36
M  V30 36 1 15 20
M  V30 37 1 21 23
M  V30 38 1 34 35
M  V30 39 1 5 37
M  V30 40 1 7 38
M  V30 41 1 7 39
M  V30 42 1 8 40
M  V30 43 1 9 41
M  V30 44 1 10 42
M  V30 45 1 11 43
M  V30 46 1 13 44
M  V30 47 1 13 45
M  V30 48 1 13 46
M  V30 49 1 14 47
M  V30 50 1 15 48
M  V30 51 1 17 49
M  V30 52 1 20 50
M  V30 53 1 21 51
M  V30 54 1 22 52
M  V30 55 1 24 53
M  V30 56 1 27 54
M  V30 57 1 27 55
M  V30 58 1 27 56
M  V30 59 1 28 57
M  V30 60 1 28 58
M  V30 61 1 28 59
M  V30 62 1 29 60
M  V30 63 1 29 61
M  V30 64 1 29 62
M  V30 65 1 31 63
M  V30 66 1 33 64
M  V30 67 1 34 65
M  V30 END BOND
M  V30 END CTAB
M  END
>  <Column 1>
3388

>  <level_0>
5620

>  <index>
5621

>  <Unnamed: 0>
5621

>  <NO.>
5633

>  <Name>
sofosbuvir

>  <IUPAC_name>
propan-2-yl 2-[[[5-(2-4-dioxopyrimidin-1-yl)-4-fluoro-3-hydroxy-4-methyloxolan-2-yl]methoxy-phenoxyphosphoryl]amino]propanoate

>  <SMILES>
CC(C)OC(=O)C(C)NP(=O)(OCC1OC(n2ccc(=O)[nH]c2=O)C(C)(F)C1O)Oc1ccccc1

>  <CID>
91302628

>  <logBB>


>  <BBB+/BBB->
BBB-

>  <Inchi>
InChI=1S/C22H29FN3O9P/c1-13(2)33-19(29)14(3)25-36(31-35-15-8-6-5-7-9-15)32-12-16-18(28)22(4-23)20(34-16)26-11-10-17(27)24-21(26)30/h5-11-13-14-16-18-20-28H-12H2-1-4H3-(H-25-31)(H-24-27-30)

>  <threshold>


>  <reference>
R23|

>  <group>
C

>  <Class>
-1

>  <ABC>
27.83

>  <ABCGG>
22.93

>  <nAcid>
0

>  <nBase>
0

>  <nAromAtom>
12

>  <nAromBond>
12

>  <nAtom>
65

>  <nHeavyAtom>
36

>  <nSpiro>
0

>  <nBridgehead>
0

>  <nHetero>
14

>  <nN>
3

>  <nO>
9

>  <nF>
1

>  <BalabanJ>
1.68

>  <BertzCT>
1216.99

>  <nBonds>
67

>  <nBondsO>
38

>  <nBondsS>
51

>  <nBondsD>
4

>  <nBondsT>
0

>  <nBondsA>
12

>  <nBondsM>
16

>  <nBondsKS>
59

>  <nBondsKD>
8

>  <RNCG>
0.11

>  <RPCG>
0.11

>  <FCSP3>
0.5

>  <SZ>
46.33

>  <Sm>
44.08

>  <Sv>
40.4

>  <Sse>
67.21

>  <Sp>
42.38

>  <Si>
74.26

>  <MZ>
0.71

>  <Mm>
0.68

>  <Mv>
0.62

>  <Mse>
1.03

>  <Mp>
0.65

>  <Mi>
1.14

>  <NsCH3>
4

>  <NdCH2>
0

>  <NssCH2>
1

>  <NtCH>
0

>  <NdsCH>
0

>  <NaaCH>
7

>  <NsssCH>
5

>  <NddC>
0

>  <NtsC>
0

>  <NdssC>
1

>  <NaasC>
1

>  <NaaaC>
0

>  <NssssC>
1

>  <NsNH3>
0

>  <NsNH2>
0

>  <NssNH2>
0

>  <NdNH>
0

>  <NssNH>
1

>  <NaaNH>
1

>  <NtN>
0

>  <NsssNH>
0

>  <NdsN>
0

>  <NaaN>
0

>  <NsssN>
0

>  <NddsN>
0

>  <NaasN>
1

>  <NssssN>
0

>  <NsOH>
1

>  <NdO>
4

>  <NssO>
4

>  <NaaO>
0

>  <NsF>
1

>  <NsSiH3>
0

>  <NssSiH2>
0

>  <NsssSiH>
0

>  <NssssSi>
0

>  <NsPH2>
0

>  <NssPH>
0

>  <NsssP>
0

>  <NdsssP>
1

>  <NsssssP>
0

>  <NsSH>
0

>  <NdS>
0

>  <NssS>
0

>  <NaaS>
0

>  <NdssS>
0

>  <NddssS>
0

>  <NsCl>
0

>  <NsBr>
0

>  <NsI>
0

>  <fragCpx>
184.14

>  <fMF>
0.32

>  <nHBAcc>
10

>  <nHBDon>
3

>  <Kier1>
30.54

>  <Kier2>
12.9

>  <Lipinski>
0

>  <GhoseFilter>
0

>  <FilterItLogS>
-3.03

>  <VMcGowan>
363.15

>  <LabuteASA>
205.48

>  <PEOE_VSA1>
19.1

>  <PEOE_VSA2>
23.66

>  <PEOE_VSA3>
13.75

>  <PEOE_VSA4>
5.09

>  <PEOE_VSA5>
0

>  <PEOE_VSA6>
18.2

>  <PEOE_VSA7>
39.83

>  <PEOE_VSA8>
12.26

>  <PEOE_VSA9>
12.71

>  <PEOE_VSA10>
24

>  <PEOE_VSA11>
11.9

>  <PEOE_VSA12>
0

>  <PEOE_VSA13>
5.56

>  <SMR_VSA1>
37.38

>  <SMR_VSA2>
0

>  <SMR_VSA3>
14.64

>  <SMR_VSA4>
0

>  <SMR_VSA5>
63.95

>  <SMR_VSA6>
6.61

>  <SMR_VSA7>
63.43

>  <SMR_VSA8>
0

>  <SMR_VSA9>
5.75

>  <SlogP_VSA1>
20.86

>  <SlogP_VSA2>
57.26

>  <SlogP_VSA3>
23.36

>  <SlogP_VSA4>
0

>  <SlogP_VSA5>
33.92

>  <SlogP_VSA6>
52.18

>  <SlogP_VSA7>
0

>  <SlogP_VSA8>
0

>  <SlogP_VSA9>
0

>  <SlogP_VSA10>
4.39

>  <SlogP_VSA11>
5.75

>  <EState_VSA1>
67.82

>  <EState_VSA2>
5.75

>  <EState_VSA3>
0

>  <EState_VSA4>
23.75

>  <EState_VSA5>
19.06

>  <EState_VSA6>
32.05

>  <EState_VSA7>
4.98

>  <EState_VSA8>
5.09

>  <EState_VSA9>
18.52

>  <EState_VSA10>
24.06

>  <VSA_EState1>
51.39

>  <VSA_EState2>
37.72

>  <VSA_EState3>
13.03

>  <VSA_EState4>
-4.12

>  <VSA_EState5>
-0.56

>  <VSA_EState6>
7.86

>  <VSA_EState7>
-4.21

>  <VSA_EState8>
5.07

>  <VSA_EState9>
-4.3

>  <apol>
70.78

>  <bpol>
51.31

>  <nRing>
3

>  <nHRing>
2

>  <naRing>
2

>  <naHRing>
1

>  <nARing 2>
1

>  <nAHRing 2>
1

>  <nFRing>
0

>  <nFHRing>
0

>  <nFaRing>
0

>  <nFaHRing>
0

>  <nFARing 2>
0

>  <nFAHRing 2>
0

>  <nRot>
10

>  <SLogP>
1.66

>  <SMR>
125.21

>  <TopoPSA(NO)>
158.18

>  <TopoPSA>
167.99

>  <JGI1>
0.29

>  <JGI2>
0.1

>  <JGI3>
0.07

>  <JGI4>
0.05

>  <JGI5>
0.02

>  <Diameter>
16

>  <Radius>
8

>  <TMWC10>
152.95

>  <TSRW10>
87.24

>  <MW>
529.16

>  <AMW>
8.14

>  <WPath>
4161

>  <WPol>
58

>  <Zagreb1>
188

>  <Zagreb2>
219

>  <mZagreb2>
7.74

>  <yes>


>  <nAR-cont>
0.816016

>  <nHA-cont>
0.477843619

>  <MWHBN>
0.565131934

>  <MWHBN-cont>
0

>  <TPSA-cont>
0

>  <pka_cont>
0.97

>  <yes.1>


>  <BBB_SCORE>
1.778859619

>  <MMFF94 Energy>
-100.46

$$$$
Compound 2699
Actelion Java MolfileCreator 2.0

  0  0  0  0  0  0              0 V3000
M  V30 BEGIN CTAB
M  V30 COUNTS 66 67 0 0 0
M  V30 BEGIN ATOM
M  V30 1 F 4.04 -1.1077 -4.3574 0
M  V30 2 C 2.8289 -0.635 -4.7623 0
M  V30 3 F 2.7948 -0.7812 -6.1147 0
M  V30 4 C 1.7121 -1.4493 -4.159 0
M  V30 5 C 2.7091 0.8516 -4.4 0
M  V30 6 C 1.8573 -2.3809 -3.2005 0
M  V30 7 O 3.7681 1.5942 -5.0175 0
M  V30 8 C 0.719 -3.1916 -2.6319 0
M  V30 9 C 3.801 2.9419 -4.7895 0
M  V30 10 C 0.9274 -4.7018 -2.7912 0
M  V30 11 C 0.5643 -3.0263 -1.1063 0
M  V30 12 C 2.9062 3.6661 -4.0002 0
M  V30 13 C 4.8473 3.6138 -5.4271 0
M  V30 14 O 0.6673 -5.1353 -4.1168 0
M  V30 15 C -0.1109 -5.2802 -1.8404 0
M  V30 16 C -0.0821 -4.3467 -0.6324 0
M  V30 17 C -0.2635 -1.7789 -0.7585 0
M  V30 18 C 3.06 5.0488 -3.8536 0
M  V30 19 C 5.0014 4.9934 -5.2815 0
M  V30 20 O 0.7405 -4.9161 0.3833 0
M  V30 21 C -0.387 -1.56 0.7234 0
M  V30 22 C 4.1059 5.7117 -4.4934 0
M  V30 23 C -1.5581 -1.455 1.3707 0
M  V30 24 C -1.677 -1.2399 2.8526 0
M  V30 25 C -2.3704 0.0861 3.1653 0
M  V30 26 C -2.4934 0.304 4.6723 0
M  V30 27 C -3.1817 1.6084 4.9985 0
M  V30 28 O -3.6235 2.4017 4.1803 0
M  V30 29 O -3.2372 1.7594 6.3526 0
M  V30 30 C -3.8715 2.9602 6.8315 0
M  V30 31 C -5.3807 2.7523 6.8888 0
M  V30 32 C -3.3127 3.2398 8.2213 0
M  V30 33 H 0.729 -1.2541 -4.5797 0
M  V30 34 H 2.7798 0.9607 -3.3107 0
M  V30 35 H 1.7458 1.2335 -4.7602 0
M  V30 36 H 2.8518 -2.5802 -2.7989 0
M  V30 37 H -0.214 -2.9097 -3.1411 0
M  V30 38 H 1.9376 -5.0162 -2.5017 0
M  V30 39 H 1.5564 -2.9208 -0.6425 0
M  V30 40 H 2.0793 3.1917 -3.4836 0
M  V30 41 H 5.5487 3.0562 -6.0431 0
M  V30 42 H 1.3225 -4.701 -4.6922 0
M  V30 43 H 0.1118 -6.3235 -1.5941 0
M  V30 44 H -1.1009 -5.2584 -2.3132 0
M  V30 45 H -1.0867 -4.2129 -0.2183 0
M  V30 46 H -1.2562 -1.8501 -1.2209 0
M  V30 47 H 0.2174 -0.8912 -1.1873 0
M  V30 48 H 2.3612 5.6095 -3.2375 0
M  V30 49 H 5.8193 5.5036 -5.7828 0
M  V30 50 H 0.2888 -5.7141 0.7098 0
M  V30 51 H 0.5457 -1.4814 1.2798 0
M  V30 52 H 4.2228 6.786 -4.3773 0
M  V30 53 H -2.4916 -1.5331 0.8166 0
M  V30 54 H -0.6889 -1.2611 3.3282 0
M  V30 55 H -2.2525 -2.0705 3.2784 0
M  V30 56 H -3.3685 0.1034 2.7082 0
M  V30 57 H -1.8081 0.9164 2.7184 0
M  V30 58 H -3.0758 -0.5097 5.1186 0
M  V30 59 H -1.496 0.321 5.1257 0
M  V30 60 H -3.6264 3.8093 6.1819 0
M  V30 61 H -5.8867 3.6331 7.2961 0
M  V30 62 H -5.7858 2.5537 5.8914 0
M  V30 63 H -5.633 1.8842 7.5079 0
M  V30 64 H -3.7516 4.1448 8.6525 0
M  V30 65 H -2.2257 3.3672 8.1755 0
M  V30 66 H -3.5021 2.3996 8.8986 0
M  V30 END ATOM
M  V30 BEGIN BOND
M  V30 1 1 1 2
M  V30 2 1 2 3
M  V30 3 1 2 4
M  V30 4 1 2 5
M  V30 5 2 4 6
M  V30 6 1 5 7
M  V30 7 1 6 8
M  V30 8 1 7 9
M  V30 9 1 8 10
M  V30 10 1 8 11
M  V30 11 2 9 12
M  V30 12 1 9 13
M  V30 13 1 10 14
M  V30 14 1 10 15
M  V30 15 1 11 16
M  V30 16 1 11 17
M  V30 17 1 12 18
M  V30 18 2 13 19
M  V30 19 1 16 20
M  V30 20 1 17 21
M  V30 21 2 18 22
M  V30 22 2 21 23
M  V30 23 1 23 24
M  V30 24 1 24 25
M  V30 25 1 25 26
M  V30 26 1 26 27
M  V30 27 2 27 28
M  V30 28 1 27 29
M  V30 29 1 29 30
M  V30 30 1 30 31
M  V30 31 1 30 32
M  V30 32 1 15 16
M  V30 33 1 19 22
M  V30 34 1 4 33
M  V30 35 1 5 34
M  V30 36 1 5 35
M  V30 37 1 6 36
M  V30 38 1 8 37
M  V30 39 1 10 38
M  V30 40 1 11 39
M  V30 41 1 12 40
M  V30 42 1 13 41
M  V30 43 1 14 42
M  V30 44 1 15 43
M  V30 45 1 15 44
M  V30 46 1 16 45
M  V30 47 1 17 46
M  V30 48 1 17 47
M  V30 49 1 18 48
M  V30 50 1 19 49
M  V30 51 1 20 50
M  V30 52 1 21 51
M  V30 53 1 22 52
M  V30 54 1 23 53
M  V30 55 1 24 54
M  V30 56 1 24 55
M  V30 57 1 25 56
M  V30 58 1 25 57
M  V30 59 1 26 58
M  V30 60 1 26 59
M  V30 61 1 30 60
M  V30 62 1 31 61
M  V30 63 1 31 62
M  V30 64 1 31 63
M  V30 65 1 32 64
M  V30 66 1 32 65
M  V30 67 1 32 66
M  V30 END BOND
M  V30 END CTAB
M  END
>  <Column 1>
3389

>  <level_0>
5621

>  <index>
5622

>  <Unnamed: 0>
5622

>  <NO.>
5634

>  <Name>
209860-87-7

>  <IUPAC_name>
propan-2-yl (e)-7-[2-[(e)-3-3-difluoro-4-phenoxybut-1-enyl]-3-5-dihydroxycyclopentyl]hept-5-enoate

>  <SMILES>
CC(C)OC(=O)CCC/C=C/CC1C(O)CC(O)C1/C=C/C(F)(F)COc1ccccc1

>  <CID>
6433101

>  <logBB>


>  <BBB+/BBB->
BBB-

>  <Inchi>
InChI=1S/C25H34F2O5/c1-18(2)32-24(30)13-9-4-3-8-12-20-21(23(29)16-22(20)28)14-15-25(26-27)17-31-19-10-6-5-7-11-19/h3-5-8-10-11-14-15-18-20-23-28-29H-4-9-12-13-16-17H2-1-2H3/b8-3+-15-14+

>  <threshold>


>  <reference>
R23|

>  <group>
C

>  <Class>
-1

>  <ABC>
24.08

>  <ABCGG>
19.25

>  <nAcid>
0

>  <nBase>
0

>  <nAromAtom>
6

>  <nAromBond>
6

>  <nAtom>
66

>  <nHeavyAtom>
32

>  <nSpiro>
0

>  <nBridgehead>
0

>  <nHetero>
7

>  <nN>
0

>  <nO>
5

>  <nF>
2

>  <BalabanJ>
1.67

>  <BertzCT>
747.96

>  <nBonds>
67

>  <nBondsO>
33

>  <nBondsS>
58

>  <nBondsD>
3

>  <nBondsT>
0

>  <nBondsA>
6

>  <nBondsM>
9

>  <nBondsKS>
61

>  <nBondsKD>
6

>  <RNCG>
0.16

>  <RPCG>
0.1

>  <FCSP3>
0.56

>  <SZ>
40.33

>  <Sm>
37.68

>  <Sv>
39.08

>  <Sse>
66.66

>  <Sp>
41.64

>  <Si>
75.2

>  <MZ>
0.61

>  <Mm>
0.57

>  <Mv>
0.59

>  <Mse>
1.01

>  <Mp>
0.63

>  <Mi>
1.14

>  <NsCH3>
2

>  <NdCH2>
0

>  <NssCH2>
6

>  <NtCH>
0

>  <NdsCH>
4

>  <NaaCH>
5

>  <NsssCH>
5

>  <NddC>
0

>  <NtsC>
0

>  <NdssC>
1

>  <NaasC>
1

>  <NaaaC>
0

>  <NssssC>
1

>  <NsNH3>
0

>  <NsNH2>
0

>  <NssNH2>
0

>  <NdNH>
0

>  <NssNH>
0

>  <NaaNH>
0

>  <NtN>
0

>  <NsssNH>
0

>  <NdsN>
0

>  <NaaN>
0

>  <NsssN>
0

>  <NddsN>
0

>  <NaasN>
0

>  <NssssN>
0

>  <NsOH>
2

>  <NdO>
1

>  <NssO>
2

>  <NaaO>
0

>  <NsF>
2

>  <NsSiH3>
0

>  <NssSiH2>
0

>  <NsssSiH>
0

>  <NssssSi>
0

>  <NsPH2>
0

>  <NssPH>
0

>  <NsssP>
0

>  <NdsssP>
0

>  <NsssssP>
0

>  <NsSH>
0

>  <NdS>
0

>  <NssS>
0

>  <NaaS>
0

>  <NdssS>
0

>  <NddssS>
0

>  <NsCl>
0

>  <NsBr>
0

>  <NsI>
0

>  <fragCpx>
97.07

>  <fMF>
0.24

>  <nHBAcc>
5

>  <nHBDon>
2

>  <Kier1>
28.24

>  <Kier2>
14.41

>  <Lipinski>
1

>  <GhoseFilter>
1

>  <FilterItLogS>
-3.89

>  <VMcGowan>
348.46

>  <LabuteASA>
188.29

>  <PEOE_VSA1>
19.69

>  <PEOE_VSA2>
4.79

>  <PEOE_VSA3>
0

>  <PEOE_VSA4>
8.78

>  <PEOE_VSA5>
0

>  <PEOE_VSA6>
36.43

>  <PEOE_VSA7>
57.24

>  <PEOE_VSA8>
18.76

>  <PEOE_VSA9>
18.31

>  <PEOE_VSA10>
5.75

>  <PEOE_VSA11>
6.61

>  <PEOE_VSA12>
0

>  <PEOE_VSA13>
5.92

>  <SMR_VSA1>
33.26

>  <SMR_VSA2>
0

>  <SMR_VSA3>
0

>  <SMR_VSA4>
11.84

>  <SMR_VSA5>
70.19

>  <SMR_VSA6>
6.61

>  <SMR_VSA7>
54.64

>  <SMR_VSA8>
0

>  <SMR_VSA9>
5.75

>  <SlogP_VSA1>
4.74

>  <SlogP_VSA2>
47.02

>  <SlogP_VSA3>
9.53

>  <SlogP_VSA4>
11.84

>  <SlogP_VSA5>
45.95

>  <SlogP_VSA6>
54.64

>  <SlogP_VSA7>
0

>  <SlogP_VSA8>
0

>  <SlogP_VSA9>
0

>  <SlogP_VSA10>
8.78

>  <SlogP_VSA11>
5.75

>  <EState_VSA1>
30.66

>  <EState_VSA2>
24.41

>  <EState_VSA3>
31.43

>  <EState_VSA4>
6.08

>  <EState_VSA5>
6.08

>  <EState_VSA6>
44.18

>  <EState_VSA7>
12.15

>  <EState_VSA8>
0

>  <EState_VSA9>
9.47

>  <EState_VSA10>
23.79

>  <VSA_EState1>
38.7

>  <VSA_EState2>
11.51

>  <VSA_EState3>
20.51

>  <VSA_EState4>
0

>  <VSA_EState5>
-4

>  <VSA_EState6>
8.39

>  <VSA_EState7>
6.33

>  <VSA_EState8>
2.8

>  <VSA_EState9>
0

>  <apol>
69.54

>  <bpol>
40.68

>  <nRing>
2

>  <nHRing>
0

>  <naRing>
1

>  <naHRing>
0

>  <nARing 2>
1

>  <nAHRing 2>
0

>  <nFRing>
0

>  <nFHRing>
0

>  <nFaRing>
0

>  <nFaHRing>
0

>  <nFARing 2>
0

>  <nFAHRing 2>
0

>  <nRot>
12

>  <SLogP>
4.68

>  <SMR>
118.47

>  <TopoPSA(NO)>
75.99

>  <TopoPSA>
75.99

>  <JGI1>
0.23

>  <JGI2>
0.08

>  <JGI3>
0.06

>  <JGI4>
0.04

>  <JGI5>
0.03

>  <Diameter>
20

>  <Radius>
10

>  <TMWC10>
140.19

>  <TSRW10>
81.35

>  <MW>
452.24

>  <AMW>
6.85

>  <WPath>
3749

>  <WPol>
41

>  <Zagreb1>
154

>  <Zagreb2>
170

>  <mZagreb2>
7.17

>  <yes>


>  <nAR-cont>
0.816016

>  <nHA-cont>
0.658856097

>  <MWHBN>
0.329164927

>  <MWHBN-cont>
0.745766415

>  <TPSA-cont>
0.469542613

>  <pka_cont>
0.97

>  <yes.1>


>  <BBB_SCORE>
4.017606945

>  <MMFF94 Energy>
89.12

$$$$
Compound 2700
Actelion Java MolfileCreator 2.0

  0  0  0  0  0  0              0 V3000
M  V30 BEGIN CTAB
M  V30 COUNTS 70 71 0 0 0
M  V30 BEGIN ATOM
M  V30 1 F -4.2899 -2.0637 -6.1215 0
M  V30 2 C -4.0753 -3.407 -6.2007 0
M  V30 3 F -3.2065 -3.5846 -7.2339 0
M  V30 4 F -5.2573 -3.948 -6.608 0
M  V30 5 C -3.5601 -3.9992 -4.9126 0
M  V30 6 C -2.7174 -3.246 -4.073 0
M  V30 7 C -3.8823 -5.3168 -4.5548 0
M  V30 8 C -2.2198 -3.794 -2.8899 0
M  V30 9 C -3.3856 -5.8662 -3.3747 0
M  V30 10 O -1.3979 -3.1684 -1.9953 0
M  V30 11 C -2.5591 -5.105 -2.5485 0
M  V30 12 C -1.071 -1.8002 -2.2477 0
M  V30 13 C -0.1915 -1.2675 -1.1029 0
M  V30 14 O 0.4263 -0.0409 -1.4977 0
M  V30 15 C -0.9882 -0.9594 0.1324 0
M  V30 16 C -0.854 -1.601 1.3054 0
M  V30 17 C -1.6485 -1.2669 2.5481 0
M  V30 18 C -2.4585 -2.4684 3.0614 0
M  V30 19 C -0.7344 -0.8697 3.7415 0
M  V30 20 O -3.707 -2.576 2.392 0
M  V30 21 C -2.6744 -2.133 4.5289 0
M  V30 22 C -1.3153 -1.6104 4.9638 0
M  V30 23 C -0.7067 0.6503 3.9904 0
M  V30 24 O -0.49 -2.7323 5.277 0
M  V30 25 C -0.1312 1.4218 2.8385 0
M  V30 26 C 1.1048 1.943 2.8171 0
M  V30 27 C 1.6652 2.6802 1.6338 0
M  V30 28 C 2.7742 1.8666 0.9599 0
M  V30 29 C 3.2995 2.54 -0.3068 0
M  V30 30 C 4.1017 3.7882 -0.0214 0
M  V30 31 O 4.579 4.0901 1.0627 0
M  V30 32 O 4.2356 4.5114 -1.1693 0
M  V30 33 C 4.9836 5.7372 -1.0628 0
M  V30 34 C 5.5182 6.0593 -2.4529 0
M  V30 35 C 4.0697 6.8515 -0.5648 0
M  V30 36 H -2.469 -2.2308 -4.3712 0
M  V30 37 H -4.5252 -5.9192 -5.1952 0
M  V30 38 H -3.6404 -6.8856 -3.0958 0
M  V30 39 H -2.1756 -5.5365 -1.6265 0
M  V30 40 H -0.5096 -1.7243 -3.1877 0
M  V30 41 H -1.9801 -1.1908 -2.3368 0
M  V30 42 H 0.6021 -1.9882 -0.8711 0
M  V30 43 H 1.1464 -0.2769 -2.1064 0
M  V30 44 H -1.7114 -0.1516 0.0438 0
M  V30 45 H -0.1331 -2.4119 1.3914 0
M  V30 46 H -2.3498 -0.4519 2.3194 0
M  V30 47 H -1.9093 -3.4107 2.943 0
M  V30 48 H 0.2967 -1.2067 3.565 0
M  V30 49 H -4.1405 -3.3803 2.7252 0
M  V30 50 H -3.0 -3.0145 5.0909 0
M  V30 51 H -3.4464 -1.361 4.6357 0
M  V30 52 H -1.3921 -0.9927 5.8642 0
M  V30 53 H -0.1236 0.852 4.8985 0
M  V30 54 H -1.7191 1.0238 4.1895 0
M  V30 55 H 0.3726 -2.3867 5.5676 0
M  V30 56 H -0.7725 1.5413 1.9668 0
M  V30 57 H 1.7619 1.8288 3.6764 0
M  V30 58 H 2.0488 3.6471 1.9785 0
M  V30 59 H 0.8736 2.8971 0.9059 0
M  V30 60 H 2.382 0.8786 0.686 0
M  V30 61 H 3.5958 1.6953 1.6669 0
M  V30 62 H 3.9575 1.8447 -0.8398 0
M  V30 63 H 2.4599 2.7949 -0.9635 0
M  V30 64 H 5.836 5.6089 -0.3845 0
M  V30 65 H 6.1019 6.9849 -2.4505 0
M  V30 66 H 6.1567 5.2452 -2.8128 0
M  V30 67 H 4.7008 6.1605 -3.1757 0
M  V30 68 H 4.5995 7.8081 -0.5206 0
M  V30 69 H 3.6859 6.6246 0.4351 0
M  V30 70 H 3.1966 6.9627 -1.2174 0
M  V30 END ATOM
M  V30 BEGIN BOND
M  V30 1 1 1 2
M  V30 2 1 2 3
M  V30 3 1 2 4
M  V30 4 1 2 5
M  V30 5 2 5 6
M  V30 6 1 5 7
M  V30 7 1 6 8
M  V30 8 2 7 9
M  V30 9 1 8 10
M  V30 10 2 8 11
M  V30 11 1 10 12
M  V30 12 1 12 13
M  V30 13 1 13 14
M  V30 14 1 13 15
M  V30 15 2 15 16
M  V30 16 1 16 17
M  V30 17 1 17 18
M  V30 18 1 17 19
M  V30 19 1 18 20
M  V30 20 1 18 21
M  V30 21 1 19 22
M  V30 22 1 19 23
M  V30 23 1 22 24
M  V30 24 1 23 25
M  V30 25 2 25 26
M  V30 26 1 26 27
M  V30 27 1 27 28
M  V30 28 1 28 29
M  V30 29 1 29 30
M  V30 30 2 30 31
M  V30 31 1 30 32
M  V30 32 1 32 33
M  V30 33 1 33 34
M  V30 34 1 33 35
M  V30 35 1 9 11
M  V30 36 1 21 22
M  V30 37 1 6 36
M  V30 38 1 7 37
M  V30 39 1 9 38
M  V30 40 1 11 39
M  V30 41 1 12 40
M  V30 42 1 12 41
M  V30 43 1 13 42
M  V30 44 1 14 43
M  V30 45 1 15 44
M  V30 46 1 16 45
M  V30 47 1 17 46
M  V30 48 1 18 47
M  V30 49 1 19 48
M  V30 50 1 20 49
M  V30 51 1 21 50
M  V30 52 1 21 51
M  V30 53 1 22 52
M  V30 54 1 23 53
M  V30 55 1 23 54
M  V30 56 1 24 55
M  V30 57 1 25 56
M  V30 58 1 26 57
M  V30 59 1 27 58
M  V30 60 1 27 59
M  V30 61 1 28 60
M  V30 62 1 28 61
M  V30 63 1 29 62
M  V30 64 1 29 63
M  V30 65 1 33 64
M  V30 66 1 34 65
M  V30 67 1 34 66
M  V30 68 1 34 67
M  V30 69 1 35 68
M  V30 70 1 35 69
M  V30 71 1 35 70
M  V30 END BOND
M  V30 END CTAB
M  END
>  <Column 1>
3390

>  <level_0>
5622

>  <index>
5623

>  <Unnamed: 0>
5623

>  <NO.>
5635

>  <Name>
schembl2177081

>  <IUPAC_name>
propan-2-yl (e)-7-[3-5-dihydroxy-2-[(e)-3-hydroxy-4-[3-(trifluoromethyl)phenoxy]but-1-enyl]cyclopentyl]hept-5-enoate

>  <SMILES>
CC(C)OC(=O)CCC/C=C/CC1C(O)CC(O)C1/C=C/C(O)COc1cccc(C(F)(F)F)c1

>  <CID>
21881150

>  <logBB>


>  <BBB+/BBB->
BBB-

>  <Inchi>
InChI=1S/C26H35F3O6/c1-17(2)35-25(33)11-6-4-3-5-10-21-22(24(32)15-23(21)31)13-12-19(30)16-34-20-9-7-8-18(14-20)26(27-28)29/h3-5-7-9-12-14-17-19-21-24-30-32H-4-6-10-11-15-16H2-1-2H3/b5-3+-13-12+

>  <threshold>


>  <reference>
R23|

>  <group>
C

>  <Class>
-1

>  <ABC>
26.41

>  <ABCGG>
20.73

>  <nAcid>
0

>  <nBase>
0

>  <nAromAtom>
6

>  <nAromBond>
6

>  <nAtom>
70

>  <nHeavyAtom>
35

>  <nSpiro>
0

>  <nBridgehead>
0

>  <nHetero>
9

>  <nN>
0

>  <nO>
6

>  <nF>
3

>  <BalabanJ>
1.65

>  <BertzCT>
851.73

>  <nBonds>
71

>  <nBondsO>
36

>  <nBondsS>
62

>  <nBondsD>
3

>  <nBondsT>
0

>  <nBondsA>
6

>  <nBondsM>
9

>  <nBondsKS>
65

>  <nBondsKD>
6

>  <RNCG>
0.14

>  <RPCG>
0.12

>  <FCSP3>
0.58

>  <SZ>
44.33

>  <Sm>
41.67

>  <Sv>
41.71

>  <Sse>
71.39

>  <Sp>
43.86

>  <Si>
80.17

>  <MZ>
0.63

>  <Mm>
0.6

>  <Mv>
0.6

>  <Mse>
1.02

>  <Mp>
0.63

>  <Mi>
1.15

>  <NsCH3>
2

>  <NdCH2>
0

>  <NssCH2>
6

>  <NtCH>
0

>  <NdsCH>
4

>  <NaaCH>
4

>  <NsssCH>
6

>  <NddC>
0

>  <NtsC>
0

>  <NdssC>
1

>  <NaasC>
2

>  <NaaaC>
0

>  <NssssC>
1

>  <NsNH3>
0

>  <NsNH2>
0

>  <NssNH2>
0

>  <NdNH>
0

>  <NssNH>
0

>  <NaaNH>
0

>  <NtN>
0

>  <NsssNH>
0

>  <NdsN>
0

>  <NaaN>
0

>  <NsssN>
0

>  <NddsN>
0

>  <NaasN>
0

>  <NssssN>
0

>  <NsOH>
3

>  <NdO>
1

>  <NssO>
2

>  <NaaO>
0

>  <NsF>
3

>  <NsSiH3>
0

>  <NssSiH2>
0

>  <NsssSiH>
0

>  <NssssSi>
0

>  <NsPH2>
0

>  <NssPH>
0

>  <NsssP>
0

>  <NdsssP>
0

>  <NsssssP>
0

>  <NsSH>
0

>  <NdS>
0

>  <NssS>
0

>  <NaaS>
0

>  <NdssS>
0

>  <NddssS>
0

>  <NsCl>
0

>  <NsBr>
0

>  <NsI>
0

>  <fragCpx>
106.09

>  <fMF>
0.23

>  <nHBAcc>
6

>  <nHBDon>
3

>  <Kier1>
31.22

>  <Kier2>
15.42

>  <Lipinski>
0

>  <GhoseFilter>
0

>  <FilterItLogS>
-3.75

>  <VMcGowan>
370.18

>  <LabuteASA>
203.61

>  <PEOE_VSA1>
24.79

>  <PEOE_VSA2>
4.79

>  <PEOE_VSA3>
0

>  <PEOE_VSA4>
13.17

>  <PEOE_VSA5>
0

>  <PEOE_VSA6>
30.37

>  <PEOE_VSA7>
57.23

>  <PEOE_VSA8>
18.76

>  <PEOE_VSA9>
23.88

>  <PEOE_VSA10>
18.46

>  <PEOE_VSA11>
0

>  <PEOE_VSA12>
0

>  <PEOE_VSA13>
0

>  <SMR_VSA1>
42.76

>  <SMR_VSA2>
0

>  <SMR_VSA3>
0

>  <SMR_VSA4>
11.84

>  <SMR_VSA5>
76.54

>  <SMR_VSA6>
6.61

>  <SMR_VSA7>
54.13

>  <SMR_VSA8>
0

>  <SMR_VSA9>
5.75

>  <SlogP_VSA1>
4.74

>  <SlogP_VSA2>
52.31

>  <SlogP_VSA3>
15.71

>  <SlogP_VSA4>
11.84

>  <SlogP_VSA5>
51.52

>  <SlogP_VSA6>
48.57

>  <SlogP_VSA7>
0

>  <SlogP_VSA8>
0

>  <SlogP_VSA9>
0

>  <SlogP_VSA10>
13.17

>  <SlogP_VSA11>
5.75

>  <EState_VSA1>
30.05

>  <EState_VSA2>
42.69

>  <EState_VSA3>
25.68

>  <EState_VSA4>
12.13

>  <EState_VSA5>
18.21

>  <EState_VSA6>
19.92

>  <EState_VSA7>
12.15

>  <EState_VSA8>
0

>  <EState_VSA9>
9.47

>  <EState_VSA10>
33.29

>  <VSA_EState1>
48.77

>  <VSA_EState2>
11.54

>  <VSA_EState3>
30.84

>  <VSA_EState4>
-0.84

>  <VSA_EState5>
-0.88

>  <VSA_EState6>
4.4

>  <VSA_EState7>
2.09

>  <VSA_EState8>
3.34

>  <VSA_EState9>
0

>  <apol>
73.24

>  <bpol>
42.79

>  <nRing>
2

>  <nHRing>
0

>  <naRing>
1

>  <naHRing>
0

>  <nARing 2>
1

>  <nAHRing 2>
0

>  <nFRing>
0

>  <nFHRing>
0

>  <nFaRing>
0

>  <nFaHRing>
0

>  <nFARing 2>
0

>  <nFAHRing 2>
0

>  <nRot>
12

>  <SLogP>
4.43

>  <SMR>
124.53

>  <TopoPSA(NO)>
96.22

>  <TopoPSA>
96.22

>  <JGI1>
0.25

>  <JGI2>
0.08

>  <JGI3>
0.06

>  <JGI4>
0.03

>  <JGI5>
0.03

>  <Diameter>
21

>  <Radius>
11

>  <TMWC10>
147.32

>  <TSRW10>
84.94

>  <MW>
500.24

>  <AMW>
7.15

>  <WPath>
4909

>  <WPol>
47

>  <Zagreb1>
170

>  <Zagreb2>
189

>  <mZagreb2>
7.75

>  <yes>


>  <nAR-cont>
0.816016

>  <nHA-cont>
0.523063577

>  <MWHBN>
0.402395673

>  <MWHBN-cont>
0.466636948

>  <TPSA-cont>
0.328324651

>  <pka_cont>
0.97

>  <yes.1>


>  <BBB_SCORE>
3.180684301

>  <MMFF94 Energy>
94.749

$$$$
Compound 2701
Actelion Java MolfileCreator 2.0

  0  0  0  0  0  0              0 V3000
M  V30 BEGIN CTAB
M  V30 COUNTS 71 72 0 0 0
M  V30 BEGIN ATOM
M  V30 1 O -4.0912 -1.0216 4.17 0
M  V30 2 C -4.9013 -0.7354 3.3009 0
M  V30 3 O -6.2462 -0.949 3.3763 0
M  V30 4 C -4.5737 -0.1029 1.969 0
M  V30 5 C -6.7244 -1.5553 4.5917 0
M  V30 6 C -3.0933 0.2554 1.8558 0
M  V30 7 C -8.1864 -1.155 4.7484 0
M  V30 8 C -6.5876 -3.0704 4.4943 0
M  V30 9 C -2.7795 0.8814 0.4969 0
M  V30 10 C -1.3264 1.2424 0.3861 0
M  V30 11 C -0.8812 2.4949 0.1966 0
M  V30 12 C 0.5732 2.8658 0.1021 0
M  V30 13 C 1.0789 3.3719 -1.2616 0
M  V30 14 C 0.6675 4.8086 -1.6355 0
M  V30 15 C 0.6994 2.494 -2.4921 0
M  V30 16 O -0.6846 5.1088 -1.3202 0
M  V30 17 C 0.8702 4.8423 -3.147 0
M  V30 18 C 0.2919 3.5014 -3.5882 0
M  V30 19 C 1.8666 1.6148 -2.9831 0
M  V30 20 O -1.1349 3.6183 -3.6019 0
M  V30 21 C 2.2686 0.5258 -1.9806 0
M  V30 22 C 3.342 -0.4154 -2.5455 0
M  V30 23 O 2.8034 -1.0788 -3.6863 0
M  V30 24 C 3.7641 -1.4449 -1.4903 0
M  V30 25 C 4.9061 -2.3442 -1.9727 0
M  V30 26 C 5.3771 -3.2771 -0.885 0
M  V30 27 C 6.4657 -2.9325 -0.073 0
M  V30 28 C 4.7132 -4.4895 -0.6544 0
M  V30 29 C 6.8884 -3.7904 0.9436 0
M  V30 30 C 5.1374 -5.3457 0.3626 0
M  V30 31 C 6.2251 -4.9966 1.1606 0
M  V30 32 H -5.1802 0.8034 1.8616 0
M  V30 33 H -4.8473 -0.8118 1.1798 0
M  V30 34 H -6.1664 -1.1751 5.456 0
M  V30 35 H -2.4833 -0.6453 2.0019 0
M  V30 36 H -2.8211 0.9507 2.6607 0
M  V30 37 H -8.621 -1.5819 5.6573 0
M  V30 38 H -8.279 -0.0645 4.7964 0
M  V30 39 H -8.7792 -1.4828 3.8872 0
M  V30 40 H -6.989 -3.5623 5.3856 0
M  V30 41 H -5.5381 -3.3615 4.3842 0
M  V30 42 H -7.1134 -3.455 3.6134 0
M  V30 43 H -3.0224 0.1726 -0.3035 0
M  V30 44 H -3.4114 1.7646 0.3421 0
M  V30 45 H -0.6149 0.4222 0.4588 0
M  V30 46 H -1.5946 3.3145 0.1366 0
M  V30 47 H 1.1798 2.0 0.3946 0
M  V30 48 H 0.7768 3.632 0.8612 0
M  V30 49 H 2.1768 3.392 -1.1917 0
M  V30 50 H 1.2958 5.5475 -1.1288 0
M  V30 51 H -0.1484 1.8376 -2.2689 0
M  V30 52 H -1.2395 4.6604 -1.9944 0
M  V30 53 H 1.9379 4.8933 -3.3875 0
M  V30 54 H 0.346 5.685 -3.6089 0
M  V30 55 H 0.6174 3.2278 -4.5963 0
M  V30 56 H 1.5641 1.141 -3.9252 0
M  V30 57 H 2.7389 2.2392 -3.2142 0
M  V30 58 H -1.4854 2.7613 -3.9071 0
M  V30 59 H 2.6495 0.9892 -1.0648 0
M  V30 60 H 1.3757 -0.0549 -1.717 0
M  V30 61 H 4.2083 0.1738 -2.8688 0
M  V30 62 H 3.5384 -1.4933 -4.1688 0
M  V30 63 H 4.0723 -0.9224 -0.5757 0
M  V30 64 H 2.9032 -2.0737 -1.2277 0
M  V30 65 H 4.5912 -2.94 -2.838 0
M  V30 66 H 5.7481 -1.7308 -2.3175 0
M  V30 67 H 6.9912 -1.9929 -0.2256 0
M  V30 68 H 3.859 -4.7728 -1.2654 0
M  V30 69 H 7.7345 -3.5165 1.5683 0
M  V30 70 H 4.617 -6.2843 0.534 0
M  V30 71 H 6.5539 -5.6632 1.9533 0
M  V30 END ATOM
M  V30 BEGIN BOND
M  V30 1 2 1 2
M  V30 2 1 2 3
M  V30 3 1 2 4
M  V30 4 1 3 5
M  V30 5 1 4 6
M  V30 6 1 5 7
M  V30 7 1 5 8
M  V30 8 1 6 9
M  V30 9 1 9 10
M  V30 10 2 10 11
M  V30 11 1 11 12
M  V30 12 1 12 13
M  V30 13 1 13 14
M  V30 14 1 13 15
M  V30 15 1 14 16
M  V30 16 1 14 17
M  V30 17 1 15 18
M  V30 18 1 15 19
M  V30 19 1 18 20
M  V30 20 1 19 21
M  V30 21 1 21 22
M  V30 22 1 22 23
M  V30 23 1 22 24
M  V30 24 1 24 25
M  V30 25 1 25 26
M  V30 26 2 26 27
M  V30 27 1 26 28
M  V30 28 1 27 29
M  V30 29 2 28 30
M  V30 30 2 29 31
M  V30 31 1 17 18
M  V30 32 1 30 31
M  V30 33 1 4 32
M  V30 34 1 4 33
M  V30 35 1 5 34
M  V30 36 1 6 35
M  V30 37 1 6 36
M  V30 38 1 7 37
M  V30 39 1 7 38
M  V30 40 1 7 39
M  V30 41 1 8 40
M  V30 42 1 8 41
M  V30 43 1 8 42
M  V30 44 1 9 43
M  V30 45 1 9 44
M  V30 46 1 10 45
M  V30 47 1 11 46
M  V30 48 1 12 47
M  V30 49 1 12 48
M  V30 50 1 13 49
M  V30 51 1 14 50
M  V30 52 1 15 51
M  V30 53 1 16 52
M  V30 54 1 17 53
M  V30 55 1 17 54
M  V30 56 1 18 55
M  V30 57 1 19 56
M  V30 58 1 19 57
M  V30 59 1 20 58
M  V30 60 1 21 59
M  V30 61 1 21 60
M  V30 62 1 22 61
M  V30 63 1 23 62
M  V30 64 1 24 63
M  V30 65 1 24 64
M  V30 66 1 25 65
M  V30 67 1 25 66
M  V30 68 1 27 67
M  V30 69 1 28 68
M  V30 70 1 29 69
M  V30 71 1 30 70
M  V30 72 1 31 71
M  V30 END BOND
M  V30 END CTAB
M  END
>  <Column 1>
3391

>  <level_0>
5623

>  <index>
5624

>  <Unnamed: 0>
5624

>  <NO.>
5636

>  <Name>
15(s)-latanoprost

>  <IUPAC_name>
propan-2-yl (e)-7-[3-5-dihydroxy-2-(3-hydroxy-5-phenylpentyl)cyclopentyl]hept-5-enoate

>  <SMILES>
CC(C)OC(=O)CCC/C=C/CC1C(O)CC(O)C1CCC(O)CCc1ccccc1

>  <CID>
5353710

>  <logBB>


>  <BBB+/BBB->
BBB-

>  <Inchi>
InChI=1S/C26H40O5/c1-19(2)31-26(30)13-9-4-3-8-12-22-23(25(29)18-24(22)28)17-16-21(27)15-14-20-10-6-5-7-11-20/h3-5-8-10-11-19-21-25-27-29H-4-9-12-18H2-1-2H3/b8-3+

>  <threshold>


>  <reference>
R23|

>  <group>
C

>  <Class>
-1

>  <ABC>
23.16

>  <ABCGG>
18.32

>  <nAcid>
0

>  <nBase>
0

>  <nAromAtom>
6

>  <nAromBond>
6

>  <nAtom>
71

>  <nHeavyAtom>
31

>  <nSpiro>
0

>  <nBridgehead>
0

>  <nHetero>
5

>  <nN>
0

>  <nO>
5

>  <nF>
0

>  <BalabanJ>
1.61

>  <BertzCT>
657.02

>  <nBonds>
72

>  <nBondsO>
32

>  <nBondsS>
64

>  <nBondsD>
2

>  <nBondsT>
0

>  <nBondsA>
6

>  <nBondsM>
8

>  <nBondsKS>
67

>  <nBondsKD>
5

>  <RNCG>
0.17

>  <RPCG>
0.11

>  <FCSP3>
0.65

>  <SZ>
39.33

>  <Sm>
36.02

>  <Sv>
40.41

>  <Sse>
70.41

>  <Sp>
44.37

>  <Si>
80.35

>  <MZ>
0.55

>  <Mm>
0.51

>  <Mv>
0.57

>  <Mse>
0.99

>  <Mp>
0.62

>  <Mi>
1.13

>  <NsCH3>
2

>  <NdCH2>
0

>  <NssCH2>
9

>  <NtCH>
0

>  <NdsCH>
2

>  <NaaCH>
5

>  <NsssCH>
6

>  <NddC>
0

>  <NtsC>
0

>  <NdssC>
1

>  <NaasC>
1

>  <NaaaC>
0

>  <NssssC>
0

>  <NsNH3>
0

>  <NsNH2>
0

>  <NssNH2>
0

>  <NdNH>
0

>  <NssNH>
0

>  <NaaNH>
0

>  <NtN>
0

>  <NsssNH>
0

>  <NdsN>
0

>  <NaaN>
0

>  <NsssN>
0

>  <NddsN>
0

>  <NaasN>
0

>  <NssssN>
0

>  <NsOH>
3

>  <NdO>
1

>  <NssO>
1

>  <NaaO>
0

>  <NsF>
0

>  <NsSiH3>
0

>  <NssSiH2>
0

>  <NsssSiH>
0

>  <NssssSi>
0

>  <NsPH2>
0

>  <NssPH>
0

>  <NsssP>
0

>  <NdsssP>
0

>  <NsssssP>
0

>  <NsSH>
0

>  <NdS>
0

>  <NssS>
0

>  <NaaS>
0

>  <NdssS>
0

>  <NddssS>
0

>  <NsCl>
0

>  <NsBr>
0

>  <NsI>
0

>  <fragCpx>
94.05

>  <fMF>
0.23

>  <nHBAcc>
5

>  <nHBDon>
3

>  <Kier1>
27.25

>  <Kier2>
15.01

>  <Lipinski>
1

>  <GhoseFilter>
0

>  <FilterItLogS>
-4.16

>  <VMcGowan>
363.33

>  <LabuteASA>
186.69

>  <PEOE_VSA1>
20.06

>  <PEOE_VSA2>
4.79

>  <PEOE_VSA3>
0

>  <PEOE_VSA4>
0

>  <PEOE_VSA5>
0

>  <PEOE_VSA6>
42.48

>  <PEOE_VSA7>
82.61

>  <PEOE_VSA8>
6.42

>  <PEOE_VSA9>
24.42

>  <PEOE_VSA10>
0

>  <PEOE_VSA11>
0

>  <PEOE_VSA12>
0

>  <PEOE_VSA13>
0

>  <SMR_VSA1>
24.85

>  <SMR_VSA2>
0

>  <SMR_VSA3>
0

>  <SMR_VSA4>
11.84

>  <SMR_VSA5>
96.05

>  <SMR_VSA6>
0

>  <SMR_VSA7>
48.05

>  <SMR_VSA8>
0

>  <SMR_VSA9>
0

>  <SlogP_VSA1>
0

>  <SlogP_VSA2>
45.7

>  <SlogP_VSA3>
15.95

>  <SlogP_VSA4>
11.84

>  <SlogP_VSA5>
70.78

>  <SlogP_VSA6>
42.48

>  <SlogP_VSA7>
0

>  <SlogP_VSA8>
0

>  <SlogP_VSA9>
0

>  <SlogP_VSA10>
0

>  <SlogP_VSA11>
0

>  <EState_VSA1>
18.31

>  <EState_VSA2>
23.91

>  <EState_VSA3>
38.52

>  <EState_VSA4>
19.26

>  <EState_VSA5>
5.56

>  <EState_VSA6>
0

>  <EState_VSA7>
38.12

>  <EState_VSA8>
18.21

>  <EState_VSA9>
4.74

>  <EState_VSA10>
20.11

>  <VSA_EState1>
5.12

>  <VSA_EState2>
11.54

>  <VSA_EState3>
31.18

>  <VSA_EState4>
1.22

>  <VSA_EState5>
-0.14

>  <VSA_EState6>
10.14

>  <VSA_EState7>
8.58

>  <VSA_EState8>
3.69

>  <VSA_EState9>
0

>  <apol>
74.1

>  <bpol>
42.73

>  <nRing>
2

>  <nHRing>
0

>  <naRing>
1

>  <naHRing>
0

>  <nARing 2>
1

>  <nAHRing 2>
0

>  <nFRing>
0

>  <nFHRing>
0

>  <nFaRing>
0

>  <nFaHRing>
0

>  <nFARing 2>
0

>  <nFAHRing 2>
0

>  <nRot>
13

>  <SLogP>
4.19

>  <SMR>
122.45

>  <TopoPSA(NO)>
86.99

>  <TopoPSA>
86.99

>  <JGI1>
0.19

>  <JGI2>
0.07

>  <JGI3>
0.06

>  <JGI4>
0.03

>  <JGI5>
0.02

>  <Diameter>
20

>  <Radius>
10

>  <TMWC10>
137.4

>  <TSRW10>
79.94

>  <MW>
432.29

>  <AMW>
6.09

>  <WPath>
3531

>  <WPol>
39

>  <Zagreb1>
146

>  <Zagreb2>
161

>  <mZagreb2>
7.08

>  <yes>


>  <nAR-cont>
0.816016

>  <nHA-cont>
0.702745138

>  <MWHBN>
0.384771053

>  <MWHBN-cont>
0.536056461

>  <TPSA-cont>
0.392755782

>  <pka_cont>
0.97

>  <yes.1>


>  <BBB_SCORE>
3.593357393

>  <MMFF94 Energy>
49.597

$$$$
Compound 2702
Actelion Java MolfileCreator 2.0

  0  0  0  0  0  0              0 V3000
M  V30 BEGIN CTAB
M  V30 COUNTS 25 24 0 0 0
M  V30 BEGIN ATOM
M  V30 1 P -1.1935 0.5568 -0.3181 0
M  V30 2 F -2.7016 0.1311 -0.2924 0
M  V30 3 O -1.0127 2.0305 -0.1336 0
M  V30 4 O -0.5119 -0.3705 0.8086 0
M  V30 5 O -0.6325 -0.0525 -1.6971 0
M  V30 6 C -0.8656 -0.1106 2.1594 0
M  V30 7 C 0.7262 0.2065 -2.0183 0
M  V30 8 C -1.1088 -1.4464 2.8456 0
M  V30 9 C 0.272 0.6512 2.8226 0
M  V30 10 C 1.354 -1.0961 -2.4903 0
M  V30 11 C 0.7739 1.2694 -3.1055 0
M  V30 12 H -1.7847 0.4852 2.2034 0
M  V30 13 H 1.2667 0.5624 -1.1334 0
M  V30 14 H -1.916 -1.9904 2.3431 0
M  V30 15 H -1.3816 -1.3105 3.8965 0
M  V30 16 H -0.2197 -2.0845 2.7926 0
M  V30 17 H 0.4469 1.6032 2.3107 0
M  V30 18 H 1.2094 0.0873 2.7637 0
M  V30 19 H 0.052 0.858 3.8744 0
M  V30 20 H 1.2927 -1.8548 -1.7025 0
M  V30 21 H 2.4054 -0.957 -2.7592 0
M  V30 22 H 0.8195 -1.4998 -3.3574 0
M  V30 23 H 0.3048 2.1957 -2.757 0
M  V30 24 H 0.2158 0.95 -3.9926 0
M  V30 25 H 1.8041 1.4912 -3.3998 0
M  V30 END ATOM
M  V30 BEGIN BOND
M  V30 1 1 1 2
M  V30 2 2 1 3
M  V30 3 1 1 4
M  V30 4 1 1 5
M  V30 5 1 4 6
M  V30 6 1 5 7
M  V30 7 1 6 8
M  V30 8 1 6 9
M  V30 9 1 7 10
M  V30 10 1 7 11
M  V30 11 1 6 12
M  V30 12 1 7 13
M  V30 13 1 8 14
M  V30 14 1 8 15
M  V30 15 1 8 16
M  V30 16 1 9 17
M  V30 17 1 9 18
M  V30 18 1 9 19
M  V30 19 1 10 20
M  V30 20 1 10 21
M  V30 21 1 10 22
M  V30 22 1 11 23
M  V30 23 1 11 24
M  V30 24 1 11 25
M  V30 END BOND
M  V30 END CTAB
M  END
>  <Column 1>
3392

>  <level_0>
5624

>  <index>
5625

>  <Unnamed: 0>
5625

>  <NO.>
5637

>  <Name>
isoflurophate

>  <IUPAC_name>
2-[fluoro(propan-2-yloxy)phosphoryl]oxypropane

>  <SMILES>
CC(C)OP(=O)(F)OC(C)C

>  <CID>
5936

>  <logBB>


>  <BBB+/BBB->
BBB-

>  <Inchi>
InChI=1S/C6H14FO3P/c1-5(2)9-11(7-8)10-6(3)4/h5-6H-1-4H3

>  <threshold>


>  <reference>
R23|

>  <group>
C

>  <Class>
-1

>  <ABC>
7.83

>  <ABCGG>
8.05

>  <nAcid>
0

>  <nBase>
0

>  <nAromAtom>
0

>  <nAromBond>
0

>  <nAtom>
25

>  <nHeavyAtom>
11

>  <nSpiro>
0

>  <nBridgehead>
0

>  <nHetero>
5

>  <nN>
0

>  <nO>
3

>  <nF>
1

>  <BalabanJ>
3.79

>  <BertzCT>
143.91

>  <nBonds>
24

>  <nBondsO>
10

>  <nBondsS>
23

>  <nBondsD>
1

>  <nBondsT>
0

>  <nBondsA>
0

>  <nBondsM>
1

>  <nBondsKS>
23

>  <nBondsKD>
1

>  <RNCG>
0.26

>  <RPCG>
0.48

>  <FCSP3>
1

>  <SZ>
16.33

>  <Sm>
15.33

>  <Sv>
13.77

>  <Sse>
25.58

>  <Sp>
15.54

>  <Si>
29.01

>  <MZ>
0.65

>  <Mm>
0.61

>  <Mv>
0.55

>  <Mse>
1.02

>  <Mp>
0.62

>  <Mi>
1.16

>  <NsCH3>
4

>  <NdCH2>
0

>  <NssCH2>
0

>  <NtCH>
0

>  <NdsCH>
0

>  <NaaCH>
0

>  <NsssCH>
2

>  <NddC>
0

>  <NtsC>
0

>  <NdssC>
0

>  <NaasC>
0

>  <NaaaC>
0

>  <NssssC>
0

>  <NsNH3>
0

>  <NsNH2>
0

>  <NssNH2>
0

>  <NdNH>
0

>  <NssNH>
0

>  <NaaNH>
0

>  <NtN>
0

>  <NsssNH>
0

>  <NdsN>
0

>  <NaaN>
0

>  <NsssN>
0

>  <NddsN>
0

>  <NaasN>
0

>  <NssssN>
0

>  <NsOH>
0

>  <NdO>
1

>  <NssO>
2

>  <NaaO>
0

>  <NsF>
1

>  <NsSiH3>
0

>  <NssSiH2>
0

>  <NsssSiH>
0

>  <NssssSi>
0

>  <NsPH2>
0

>  <NssPH>
0

>  <NsssP>
0

>  <NdsssP>
1

>  <NsssssP>
0

>  <NsSH>
0

>  <NdS>
0

>  <NssS>
0

>  <NaaS>
0

>  <NdssS>
0

>  <NddssS>
0

>  <NsCl>
0

>  <NsBr>
0

>  <NsI>
0

>  <fragCpx>
10.05

>  <fMF>
0

>  <nHBAcc>
3

>  <nHBDon>
0

>  <Kier1>
11

>  <Kier2>
4.13

>  <Lipinski>
1

>  <GhoseFilter>
1

>  <FilterItLogS>
-1.3

>  <VMcGowan>
135.23

>  <LabuteASA>
66.54

>  <PEOE_VSA1>
0

>  <PEOE_VSA2>
9.05

>  <PEOE_VSA3>
4.57

>  <PEOE_VSA4>
0

>  <PEOE_VSA5>
4.2

>  <PEOE_VSA6>
0

>  <PEOE_VSA7>
27.69

>  <PEOE_VSA8>
0

>  <PEOE_VSA9>
12.21

>  <PEOE_VSA10>
0

>  <PEOE_VSA11>
0

>  <PEOE_VSA12>
0

>  <PEOE_VSA13>
0

>  <SMR_VSA1>
17.81

>  <SMR_VSA2>
0

>  <SMR_VSA3>
0

>  <SMR_VSA4>
0

>  <SMR_VSA5>
39.9

>  <SMR_VSA6>
0

>  <SMR_VSA7>
0

>  <SMR_VSA8>
0

>  <SMR_VSA9>
0

>  <SlogP_VSA1>
0

>  <SlogP_VSA2>
12.21

>  <SlogP_VSA3>
13.61

>  <SlogP_VSA4>
0

>  <SlogP_VSA5>
27.69

>  <SlogP_VSA6>
0

>  <SlogP_VSA7>
0

>  <SlogP_VSA8>
0

>  <SlogP_VSA9>
0

>  <SlogP_VSA10>
4.2

>  <SlogP_VSA11>
0

>  <EState_VSA1>
20.11

>  <EState_VSA2>
0

>  <EState_VSA3>
0

>  <EState_VSA4>
0

>  <EState_VSA5>
0

>  <EState_VSA6>
27.69

>  <EState_VSA7>
0

>  <EState_VSA8>
9.05

>  <EState_VSA9>
0

>  <EState_VSA10>
8.76

>  <VSA_EState1>
32.26

>  <VSA_EState2>
0

>  <VSA_EState3>
0

>  <VSA_EState4>
0

>  <VSA_EState5>
0

>  <VSA_EState6>
0

>  <VSA_EState7>
-0.85

>  <VSA_EState8>
6.37

>  <VSA_EState9>
-4.3

>  <apol>
25.95

>  <bpol>
27.34

>  <nRing>
0

>  <nHRing>
0

>  <naRing>
0

>  <naHRing>
0

>  <nARing 2>
0

>  <nAHRing 2>
0

>  <nFRing>
0

>  <nFHRing>
0

>  <nFaRing>
0

>  <nFaHRing>
0

>  <nFARing 2>
0

>  <nFAHRing 2>
0

>  <nRot>
4

>  <SLogP>
2.91

>  <SMR>
41.16

>  <TopoPSA(NO)>
35.53

>  <TopoPSA>
45.34

>  <JGI1>
0.5

>  <JGI2>
0.08

>  <JGI3>
0.14

>  <JGI4>
0.01

>  <JGI5>
0.06

>  <Diameter>
6

>  <Radius>
3

>  <TMWC10>
84.19

>  <TSRW10>
40.26

>  <MW>
184.07

>  <AMW>
7.36

>  <WPath>
164

>  <WPol>
10

>  <Zagreb1>
48

>  <Zagreb2>
48

>  <mZagreb2>
2.42

>  <yes>


>  <nAR-cont>
0.336376

>  <nHA-cont>
0.720786536

>  <MWHBN>
0.221120877

>  <MWHBN-cont>
0.994229753

>  <TPSA-cont>
0.683498646

>  <pka_cont>
0.97

>  <yes.1>


>  <BBB_SCORE>
4.400504456

>  <MMFF94 Energy>
-48.829

$$$$
Compound 2703
Actelion Java MolfileCreator 2.0

  0  0  0  0  0  0              0 V3000
M  V30 BEGIN CTAB
M  V30 COUNTS 54 56 0 0 0
M  V30 BEGIN ATOM
M  V30 1 S 2.021 -3.8021 1.2122 0
M  V30 2 O 1.3549 -3.7791 2.4987 0
M  V30 3 O 3.4626 -3.8085 1.1102 0
M  V30 4 O 1.4481 -5.1306 0.4973 0
M  V30 5 C 1.4004 -2.4508 0.2272 0
M  V30 6 C 1.5801 -2.3895 -1.1644 0
M  V30 7 C 0.6885 -1.4435 0.9075 0
M  V30 8 C 0.9889 -1.3009 -1.8335 0
M  V30 9 C 2.3631 -3.4156 -1.9734 0
M  V30 10 C 0.1255 -0.3426 0.2346 0
M  V30 11 C 0.2616 -0.2961 -1.1629 0
M  V30 12 C 1.441 -4.2019 -2.9106 0
M  V30 13 C 3.5134 -2.7715 -2.7575 0
M  V30 14 C -0.6774 0.7333 1.0053 0
M  V30 15 C -0.2955 0.8285 -1.9998 0
M  V30 16 C -0.7661 2.0467 0.1413 0
M  V30 17 C 0.0184 1.102 2.3461 0
M  V30 18 C -2.053 0.0908 1.3108 0
M  V30 19 C -1.29 1.7228 -1.2673 0
M  V30 20 C -1.4433 3.2734 0.8457 0
M  V30 21 C -0.6341 2.2738 3.0745 0
M  V30 22 C -2.9582 3.1194 0.9934 0
M  V30 23 C -0.7234 3.5154 2.1971 0
M  V30 24 C -1.2608 4.5614 0.0075 0
M  V30 25 O -3.7315 2.7196 0.1374 0
M  V30 26 O -3.4507 3.5303 2.1758 0
M  V30 27 H 0.8587 -5.5752 1.1427 0
M  V30 28 H 0.5627 -1.5337 1.9847 0
M  V30 29 H 1.092 -1.2204 -2.9161 0
M  V30 30 H 2.836 -4.1454 -1.3145 0
M  V30 31 H 0.9871 -3.5605 -3.6738 0
M  V30 32 H 2.0001 -4.9886 -3.4288 0
M  V30 33 H 0.6295 -4.6806 -2.3514 0
M  V30 34 H 3.1558 -2.0926 -3.5387 0
M  V30 35 H 4.1691 -2.201 -2.0903 0
M  V30 36 H 4.1208 -3.5414 -3.2459 0
M  V30 37 H 0.5488 1.4413 -2.3414 0
M  V30 38 H -0.7849 0.4199 -2.8924 0
M  V30 39 H 0.2788 2.3699 -0.011 0
M  V30 40 H 0.0253 0.2511 3.0374 0
M  V30 41 H 1.0718 1.3499 2.1556 0
M  V30 42 H -2.7149 0.7483 1.8764 0
M  V30 43 H -1.9381 -0.8165 1.9174 0
M  V30 44 H -2.5804 -0.212 0.4003 0
M  V30 45 H -2.2621 1.2222 -1.225 0
M  V30 46 H -1.4337 2.6261 -1.8676 0
M  V30 47 H -0.0435 2.5105 3.9679 0
M  V30 48 H -1.6281 1.99 3.436 0
M  V30 49 H -1.2055 4.3207 2.7656 0
M  V30 50 H 0.3002 3.8644 2.0015 0
M  V30 51 H -0.2104 4.7177 -0.2615 0
M  V30 52 H -1.5956 5.443 0.5682 0
M  V30 53 H -1.8488 4.5427 -0.916 0
M  V30 54 H -4.4184 3.3991 2.0874 0
M  V30 END ATOM
M  V30 BEGIN BOND
M  V30 1 2 1 2
M  V30 2 2 1 3
M  V30 3 1 1 4
M  V30 4 1 1 5
M  V30 5 2 5 6
M  V30 6 1 5 7
M  V30 7 1 6 8
M  V30 8 1 6 9
M  V30 9 2 7 10
M  V30 10 2 8 11
M  V30 11 1 9 12
M  V30 12 1 9 13
M  V30 13 1 10 14
M  V30 14 1 11 15
M  V30 15 1 14 16
M  V30 16 1 14 17
M  V30 17 1 14 18
M  V30 18 1 15 19
M  V30 19 1 16 20
M  V30 20 1 17 21
M  V30 21 1 20 22
M  V30 22 1 20 23
M  V30 23 1 20 24
M  V30 24 2 22 25
M  V30 25 1 22 26
M  V30 26 1 10 11
M  V30 27 1 16 19
M  V30 28 1 21 23
M  V30 29 1 4 27
M  V30 30 1 7 28
M  V30 31 1 8 29
M  V30 32 1 9 30
M  V30 33 1 12 31
M  V30 34 1 12 32
M  V30 35 1 12 33
M  V30 36 1 13 34
M  V30 37 1 13 35
M  V30 38 1 13 36
M  V30 39 1 15 37
M  V30 40 1 15 38
M  V30 41 1 16 39
M  V30 42 1 17 40
M  V30 43 1 17 41
M  V30 44 1 18 42
M  V30 45 1 18 43
M  V30 46 1 18 44
M  V30 47 1 19 45
M  V30 48 1 19 46
M  V30 49 1 21 47
M  V30 50 1 21 48
M  V30 51 1 23 49
M  V30 52 1 23 50
M  V30 53 1 24 51
M  V30 54 1 24 52
M  V30 55 1 24 53
M  V30 56 1 26 54
M  V30 END BOND
M  V30 END CTAB
M  END
>  <Column 1>
3393

>  <level_0>
5626

>  <index>
5627

>  <Unnamed: 0>
5627

>  <NO.>
5639

>  <Name>
ecabet

>  <IUPAC_name>
1-4a-dimethyl-7-propan-2-yl-6-sulfo-2-3-4-9-10-10a-hexahydrophenanthrene-1-carboxylic acid

>  <SMILES>
CC(C)c1cc2c(cc1S(=O)(=O)O)C1(C)CCCC(C)(C(=O)O)C1CC2

>  <CID>
495574

>  <logBB>


>  <BBB+/BBB->
BBB-

>  <Inchi>
InChI=1S/C20H28O5S/c1-12(2)14-10-13-6-7-17-19(3-8-5-9-20(17-4)18(21)22)15(13)11-16(14)26(23-24)25/h10-12-17H-5-9H2-1-4H3-(H-21-22)(H-23-24-25)

>  <threshold>


>  <reference>
R23|

>  <group>
C

>  <Class>
-1

>  <ABC>
20.6

>  <ABCGG>
17.27

>  <nAcid>
2

>  <nBase>
0

>  <nAromAtom>
6

>  <nAromBond>
6

>  <nAtom>
54

>  <nHeavyAtom>
26

>  <nSpiro>
0

>  <nBridgehead>
0

>  <nHetero>
6

>  <nN>
0

>  <nO>
5

>  <nF>
0

>  <BalabanJ>
1.94

>  <BertzCT>
857.2

>  <nBonds>
56

>  <nBondsO>
28

>  <nBondsS>
47

>  <nBondsD>
3

>  <nBondsT>
0

>  <nBondsA>
6

>  <nBondsM>
9

>  <nBondsKS>
50

>  <nBondsKD>
6

>  <RNCG>
0.23

>  <RPCG>
0.15

>  <FCSP3>
0.65

>  <SZ>
34

>  <Sm>
31.68

>  <Sv>
32.35

>  <Sse>
54.16

>  <Sp>
35.32

>  <Si>
60.78

>  <MZ>
0.63

>  <Mm>
0.59

>  <Mv>
0.6

>  <Mse>
1

>  <Mp>
0.65

>  <Mi>
1.13

>  <NsCH3>
4

>  <NdCH2>
0

>  <NssCH2>
5

>  <NtCH>
0

>  <NdsCH>
0

>  <NaaCH>
2

>  <NsssCH>
2

>  <NddC>
0

>  <NtsC>
0

>  <NdssC>
1

>  <NaasC>
4

>  <NaaaC>
0

>  <NssssC>
2

>  <NsNH3>
0

>  <NsNH2>
0

>  <NssNH2>
0

>  <NdNH>
0

>  <NssNH>
0

>  <NaaNH>
0

>  <NtN>
0

>  <NsssNH>
0

>  <NdsN>
0

>  <NaaN>
0

>  <NsssN>
0

>  <NddsN>
0

>  <NaasN>
0

>  <NssssN>
0

>  <NsOH>
2

>  <NdO>
3

>  <NssO>
0

>  <NaaO>
0

>  <NsF>
0

>  <NsSiH3>
0

>  <NssSiH2>
0

>  <NsssSiH>
0

>  <NssssSi>
0

>  <NsPH2>
0

>  <NssPH>
0

>  <NsssP>
0

>  <NdsssP>
0

>  <NsssssP>
0

>  <NsSH>
0

>  <NdS>
0

>  <NssS>
0

>  <NaaS>
0

>  <NdssS>
0

>  <NddssS>
1

>  <NsCl>
0

>  <NsBr>
0

>  <NsI>
0

>  <fragCpx>
134.06

>  <fMF>
0.26

>  <nHBAcc>
3

>  <nHBDon>
2

>  <Kier1>
20.73

>  <Kier2>
6.81

>  <Lipinski>
1

>  <GhoseFilter>
1

>  <FilterItLogS>
-4.32

>  <VMcGowan>
288.58

>  <LabuteASA>
155.11

>  <PEOE_VSA1>
5.11

>  <PEOE_VSA2>
9.35

>  <PEOE_VSA3>
0

>  <PEOE_VSA4>
8.42

>  <PEOE_VSA5>
0

>  <PEOE_VSA6>
33.26

>  <PEOE_VSA7>
72.61

>  <PEOE_VSA8>
0

>  <PEOE_VSA9>
10.31

>  <PEOE_VSA10>
0

>  <PEOE_VSA11>
0

>  <PEOE_VSA12>
0

>  <PEOE_VSA13>
10.12

>  <SMR_VSA1>
22.87

>  <SMR_VSA2>
0

>  <SMR_VSA3>
0

>  <SMR_VSA4>
11.33

>  <SMR_VSA5>
76.03

>  <SMR_VSA6>
0

>  <SMR_VSA7>
28.82

>  <SMR_VSA8>
0

>  <SMR_VSA9>
0

>  <SlogP_VSA1>
0

>  <SlogP_VSA2>
24.05

>  <SlogP_VSA3>
26.75

>  <SlogP_VSA4>
11.33

>  <SlogP_VSA5>
75.99

>  <SlogP_VSA6>
17.03

>  <SlogP_VSA7>
0

>  <SlogP_VSA8>
0

>  <SlogP_VSA9>
0

>  <SlogP_VSA10>
0

>  <SlogP_VSA11>
0

>  <EState_VSA1>
26.92

>  <EState_VSA2>
16.73

>  <EState_VSA3>
11.98

>  <EState_VSA4>
36.81

>  <EState_VSA5>
0

>  <EState_VSA6>
6.07

>  <EState_VSA7>
26.84

>  <EState_VSA8>
6.92

>  <EState_VSA9>
0

>  <EState_VSA10>
22.87

>  <VSA_EState1>
33.78

>  <VSA_EState2>
11.99

>  <VSA_EState3>
9.86

>  <VSA_EState4>
1.42

>  <VSA_EState5>
-0.85

>  <VSA_EState6>
3.54

>  <VSA_EState7>
3.8

>  <VSA_EState8>
7.71

>  <VSA_EState9>
-4.34

>  <apol>
58.98

>  <bpol>
35.61

>  <nRing>
3

>  <nHRing>
0

>  <naRing>
1

>  <naHRing>
0

>  <nARing 2>
2

>  <nAHRing 2>
0

>  <nFRing>
1

>  <nFHRing>
0

>  <nFaRing>
0

>  <nFaHRing>
0

>  <nFARing 2>
1

>  <nFAHRing 2>
0

>  <nRot>
3

>  <SLogP>
4.15

>  <SMR>
99.1

>  <TopoPSA(NO)>
91.67

>  <TopoPSA>
100.05

>  <JGI1>
0.34

>  <JGI2>
0.13

>  <JGI3>
0.07

>  <JGI4>
0.06

>  <JGI5>
0.04

>  <Diameter>
10

>  <Radius>
5

>  <TMWC10>
132.89

>  <TSRW10>
62.21

>  <MW>
380.17

>  <AMW>
7.04

>  <WPath>
1438

>  <WPol>
54

>  <Zagreb1>
148

>  <Zagreb2>
183

>  <mZagreb2>
5.33

>  <yes>


>  <nAR-cont>
1

>  <nHA-cont>
0.892715677

>  <MWHBN>
0.256437233

>  <MWHBN-cont>
0.94830764

>  <TPSA-cont>
0.301588873

>  <pka_cont>
0.97

>  <yes.1>


>  <BBB_SCORE>
4.403354882

>  <MMFF94 Energy>
17.695

$$$$
Compound 2704
Actelion Java MolfileCreator 2.0

  0  0  0  0  0  0              0 V3000
M  V30 BEGIN CTAB
M  V30 COUNTS 36 38 0 0 0
M  V30 BEGIN ATOM
M  V30 1 O 2.0 -0.6396 -0.1598 0
M  V30 2 C 0.9157 -0.315 0.3046 0
M  V30 3 C 0.6895 -0.2778 1.7511 0
M  V30 4 C -0.2184 0.0525 -0.5529 0
M  V30 5 C -0.5555 0.0858 2.23 0
M  V30 6 C 1.6961 -0.6032 2.6564 0
M  V30 7 C -1.4187 0.4019 0.0563 0
M  V30 8 C -0.0952 0.0509 -1.9464 0
M  V30 9 O -1.6097 0.4242 1.4145 0
M  V30 10 N -0.8416 0.1408 3.5519 0
M  V30 11 C 1.4171 -0.5517 4.0265 0
M  V30 12 C -2.5107 0.7547 -0.7343 0
M  V30 13 C -1.1884 0.4045 -2.7522 0
M  V30 14 C 0.1307 -0.1801 4.4355 0
M  V30 15 C 2.445 -0.9154 5.0284 0
M  V30 16 C -2.3963 0.756 -2.1278 0
M  V30 17 C -1.0905 0.4141 -4.268 0
M  V30 18 N -0.2283 -0.0286 5.7557 0
M  V30 19 O 2.2576 -1.1498 6.2086 0
M  V30 20 O 3.6803 -0.9737 4.4977 0
M  V30 21 C -0.0561 1.4302 -4.7581 0
M  V30 22 C -0.7895 -0.981 -4.8206 0
M  V30 23 H 2.6784 -0.8953 2.2927 0
M  V30 24 H 0.8561 -0.2267 -2.3966 0
M  V30 25 H -3.4546 1.03 -0.2693 0
M  V30 26 H -3.263 1.0353 -2.7247 0
M  V30 27 H -2.0621 0.7203 -4.6781 0
M  V30 28 H 0.285 -0.5389 6.4682 0
M  V30 29 H -1.1893 0.2328 5.9251 0
M  V30 30 H 4.2608 -1.2118 5.2514 0
M  V30 31 H 0.9588 1.1676 -4.4408 0
M  V30 32 H -0.0585 1.4844 -5.8521 0
M  V30 33 H -0.2777 2.4316 -4.3723 0
M  V30 34 H 0.1952 -1.3429 -4.5059 0
M  V30 35 H -1.5364 -1.7066 -4.4796 0
M  V30 36 H -0.8059 -0.9727 -5.9158 0
M  V30 END ATOM
M  V30 BEGIN BOND
M  V30 1 2 1 2
M  V30 2 1 2 3
M  V30 3 1 2 4
M  V30 4 2 3 5
M  V30 5 1 3 6
M  V30 6 2 4 7
M  V30 7 1 4 8
M  V30 8 1 5 9
M  V30 9 1 5 10
M  V30 10 2 6 11
M  V30 11 1 7 12
M  V30 12 2 8 13
M  V30 13 2 10 14
M  V30 14 1 11 15
M  V30 15 2 12 16
M  V30 16 1 13 17
M  V30 17 1 14 18
M  V30 18 2 15 19
M  V30 19 1 15 20
M  V30 20 1 17 21
M  V30 21 1 17 22
M  V30 22 1 7 9
M  V30 23 1 11 14
M  V30 24 1 13 16
M  V30 25 1 6 23
M  V30 26 1 8 24
M  V30 27 1 12 25
M  V30 28 1 16 26
M  V30 29 1 17 27
M  V30 30 1 18 28
M  V30 31 1 18 29
M  V30 32 1 20 30
M  V30 33 1 21 31
M  V30 34 1 21 32
M  V30 35 1 21 33
M  V30 36 1 22 34
M  V30 37 1 22 35
M  V30 38 1 22 36
M  V30 END BOND
M  V30 END CTAB
M  END
>  <Column 1>
3394

>  <level_0>
5627

>  <index>
5628

>  <Unnamed: 0>
5628

>  <NO.>
5640

>  <Name>
amlexanox

>  <IUPAC_name>
2-amino-5-oxo-7-propan-2-ylchromeno[2-3-b]pyridine-3-carboxylic acid

>  <SMILES>
CC(C)c1ccc2oc3nc(N)c(C(=O)O)cc3c(=O)c2c1

>  <CID>
2161

>  <logBB>


>  <BBB+/BBB->
BBB-

>  <Inchi>
InChI=1S/C16H14N2O4/c1-7(2)8-3-4-12-9(5-8)13(19)10-6-11(16(20)21)14(17)18-15(10)22-12/h3-7H-1-2H3-(H2-17-18)(H-20-21)

>  <threshold>


>  <reference>
R23|

>  <group>
C

>  <Class>
-1

>  <ABC>
17.34

>  <ABCGG>
13.93

>  <nAcid>
1

>  <nBase>
0

>  <nAromAtom>
14

>  <nAromBond>
16

>  <nAtom>
36

>  <nHeavyAtom>
22

>  <nSpiro>
0

>  <nBridgehead>
0

>  <nHetero>
6

>  <nN>
2

>  <nO>
4

>  <nF>
0

>  <BalabanJ>
1.73

>  <BertzCT>
973.19

>  <nBonds>
38

>  <nBondsO>
24

>  <nBondsS>
20

>  <nBondsD>
2

>  <nBondsT>
0

>  <nBondsA>
16

>  <nBondsM>
18

>  <nBondsKS>
30

>  <nBondsKD>
8

>  <RNCG>
0.2

>  <RPCG>
0.14

>  <FCSP3>
0.19

>  <SZ>
26

>  <Sm>
24.84

>  <Sv>
24.17

>  <Sse>
36.86

>  <Sp>
24.83

>  <Si>
40.33

>  <MZ>
0.72

>  <Mm>
0.69

>  <Mv>
0.67

>  <Mse>
1.02

>  <Mp>
0.69

>  <Mi>
1.12

>  <NsCH3>
2

>  <NdCH2>
0

>  <NssCH2>
0

>  <NtCH>
0

>  <NdsCH>
0

>  <NaaCH>
4

>  <NsssCH>
1

>  <NddC>
0

>  <NtsC>
0

>  <NdssC>
1

>  <NaasC>
3

>  <NaaaC>
4

>  <NssssC>
0

>  <NsNH3>
0

>  <NsNH2>
1

>  <NssNH2>
0

>  <NdNH>
0

>  <NssNH>
0

>  <NaaNH>
0

>  <NtN>
0

>  <NsssNH>
0

>  <NdsN>
0

>  <NaaN>
1

>  <NsssN>
0

>  <NddsN>
0

>  <NaasN>
0

>  <NssssN>
0

>  <NsOH>
1

>  <NdO>
2

>  <NssO>
0

>  <NaaO>
1

>  <NsF>
0

>  <NsSiH3>
0

>  <NssSiH2>
0

>  <NsssSiH>
0

>  <NssssSi>
0

>  <NsPH2>
0

>  <NssPH>
0

>  <NsssP>
0

>  <NdsssP>
0

>  <NsssssP>
0

>  <NsSH>
0

>  <NdS>
0

>  <NssS>
0

>  <NaaS>
0

>  <NdssS>
0

>  <NddssS>
0

>  <NsCl>
0

>  <NsBr>
0

>  <NsI>
0

>  <fragCpx>
114.06

>  <fMF>
0.39

>  <nHBAcc>
5

>  <nHBDon>
2

>  <Kier1>
16.84

>  <Kier2>
6.48

>  <Lipinski>
1

>  <GhoseFilter>
1

>  <FilterItLogS>
-4.14

>  <VMcGowan>
212.76

>  <LabuteASA>
124.74

>  <PEOE_VSA1>
15.26

>  <PEOE_VSA2>
4.79

>  <PEOE_VSA3>
4.79

>  <PEOE_VSA4>
4.98

>  <PEOE_VSA5>
0

>  <PEOE_VSA6>
19.91

>  <PEOE_VSA7>
29.68

>  <PEOE_VSA8>
0

>  <PEOE_VSA9>
10.77

>  <PEOE_VSA10>
16.96

>  <PEOE_VSA11>
0

>  <PEOE_VSA12>
11.14

>  <PEOE_VSA13>
0

>  <SMR_VSA1>
14.32

>  <SMR_VSA2>
0

>  <SMR_VSA3>
4.98

>  <SMR_VSA4>
0

>  <SMR_VSA5>
19.77

>  <SMR_VSA6>
5.73

>  <SMR_VSA7>
45.62

>  <SMR_VSA8>
0

>  <SMR_VSA9>
0

>  <SlogP_VSA1>
11.16

>  <SlogP_VSA2>
16.06

>  <SlogP_VSA3>
0

>  <SlogP_VSA4>
0

>  <SlogP_VSA5>
35.69

>  <SlogP_VSA6>
33.48

>  <SlogP_VSA7>
0

>  <SlogP_VSA8>
22.07

>  <SlogP_VSA9>
0

>  <SlogP_VSA10>
5.82

>  <SlogP_VSA11>
0

>  <EState_VSA1>
5.97

>  <EState_VSA2>
33.83

>  <EState_VSA3>
10.97

>  <EState_VSA4>
5.56

>  <EState_VSA5>
6.07

>  <EState_VSA6>
12.13

>  <EState_VSA7>
19.91

>  <EState_VSA8>
4.98

>  <EState_VSA9>
15.26

>  <EState_VSA10>
9.59

>  <VSA_EState1>
5.59

>  <VSA_EState2>
27.64

>  <VSA_EState3>
9.61

>  <VSA_EState4>
6.51

>  <VSA_EState5>
-1.15

>  <VSA_EState6>
6.58

>  <VSA_EState7>
0

>  <VSA_EState8>
4.04

>  <VSA_EState9>
0

>  <apol>
41.46

>  <bpol>
18.09

>  <nRing>
3

>  <nHRing>
2

>  <naRing>
3

>  <naHRing>
2

>  <nARing 2>
0

>  <nAHRing 2>
0

>  <nFRing>
1

>  <nFHRing>
1

>  <nFaRing>
1

>  <nFaHRing>
1

>  <nFARing 2>
0

>  <nFAHRing 2>
0

>  <nRot>
2

>  <SLogP>
2.75

>  <SMR>
83.25

>  <TopoPSA(NO)>
106.42

>  <TopoPSA>
106.42

>  <JGI1>
0.23

>  <JGI2>
0.09

>  <JGI3>
0.05

>  <JGI4>
0.06

>  <JGI5>
0.04

>  <Diameter>
10

>  <Radius>
5

>  <TMWC10>
121.66

>  <TSRW10>
56.73

>  <MW>
298.1

>  <AMW>
8.28

>  <WPath>
995

>  <WPol>
40

>  <Zagreb1>
120

>  <Zagreb2>
145

>  <mZagreb2>
4.69

>  <yes>


>  <nAR-cont>
0.336376

>  <nHA-cont>
0.983774276

>  <MWHBN>
0.405431093

>  <MWHBN-cont>
0.454714655

>  <TPSA-cont>
0.257122317

>  <pka_cont>
0.97

>  <yes.1>


>  <BBB_SCORE>
3.001466893

>  <MMFF94 Energy>
20.28

$$$$
Compound 2705
Actelion Java MolfileCreator 2.0

  0  0  0  0  0  0              0 V3000
M  V30 BEGIN CTAB
M  V30 COUNTS 79 82 0 0 0
M  V30 BEGIN ATOM
M  V30 1 S 2.409 8.1282 -2.3287 0
M  V30 2 O 3.0368 9.1404 -3.148 0
M  V30 3 O 3.135 6.9859 -1.8237 0
M  V30 4 O 1.7769 8.9172 -1.0703 0
M  V30 5 C 0.8872 7.6056 -3.0931 0
M  V30 6 C 1.1778 6.7654 -4.3255 0
M  V30 7 N 1.5408 5.3975 -4.0042 0
M  V30 8 C 0.5927 4.4632 -3.6462 0
M  V30 9 O -0.607 4.7146 -3.622 0
M  V30 10 C 1.183 3.1052 -3.3125 0
M  V30 11 C 0.2731 2.2309 -2.4427 0
M  V30 12 C 0.4477 2.4017 -0.9148 0
M  V30 13 C -0.593 1.5771 -0.089 0
M  V30 14 C 0.382 3.8865 -0.5097 0
M  V30 15 C -0.6985 0.0276 -0.2869 0
M  V30 16 C -0.3575 1.7351 1.4298 0
M  V30 17 C -1.457 -0.4035 1.0029 0
M  V30 18 C 0.6845 -0.6556 -0.3439 0
M  V30 19 C -1.5488 -0.3381 -1.5211 0
M  V30 20 C -0.8166 0.4467 2.1018 0
M  V30 21 C -1.4813 -1.938 1.2444 0
M  V30 22 C 0.6173 -2.1725 -0.1726 0
M  V30 23 C -2.2424 -2.343 2.5289 0
M  V30 24 C -0.0729 -2.5939 1.1418 0
M  V30 25 O -1.7089 -1.736 3.7019 0
M  V30 26 C -2.2617 -3.8592 2.7413 0
M  V30 27 C -0.1263 -4.1619 1.3429 0
M  V30 28 C -0.8467 -4.4529 2.6974 0
M  V30 29 C 1.3138 -4.7454 1.4441 0
M  V30 30 C -0.8446 -4.8503 0.1514 0
M  V30 31 C -0.8561 -5.9436 3.0646 0
M  V30 32 C 1.3488 -6.224 1.8386 0
M  V30 33 C 0.565 -6.503 3.1175 0
M  V30 34 O 0.5187 -7.9059 3.353 0
M  V30 35 H 2.1357 9.8308 -1.0695 0
M  V30 36 H 0.3059 7.059 -2.3449 0
M  V30 37 H 0.3518 8.5181 -3.3742 0
M  V30 38 H 1.9899 7.1868 -4.9267 0
M  V30 39 H 0.2807 6.7297 -4.954 0
M  V30 40 H 2.5231 5.1457 -3.9619 0
M  V30 41 H 2.1689 3.2175 -2.8478 0
M  V30 42 H 1.3372 2.6035 -4.2764 0
M  V30 43 H -0.7786 2.3743 -2.7158 0
M  V30 44 H 0.5323 1.1995 -2.6958 0
M  V30 45 H 1.4539 2.0466 -0.656 0
M  V30 46 H -1.5847 2.0057 -0.3001 0
M  V30 47 H -0.5844 4.3256 -0.7783 0
M  V30 48 H 0.5249 4.0236 0.566 0
M  V30 49 H 1.1739 4.4691 -0.9889 0
M  V30 50 H 0.7001 1.9047 1.6633 0
M  V30 51 H -0.9186 2.5924 1.8192 0
M  V30 52 H -2.5037 -0.0735 0.9155 0
M  V30 53 H 1.3465 -0.2535 0.433 0
M  V30 54 H 1.1781 -0.4389 -1.2976 0
M  V30 55 H -2.4808 0.2377 -1.5431 0
M  V30 56 H -1.025 -0.1557 -2.4605 0
M  V30 57 H -1.8283 -1.3956 -1.5316 0
M  V30 58 H 0.0474 -0.0478 2.5569 0
M  V30 59 H -1.5283 0.6689 2.9039 0
M  V30 60 H -2.0795 -2.3502 0.4222 0
M  V30 61 H 0.102 -2.6018 -1.0375 0
M  V30 62 H 1.6429 -2.5552 -0.1988 0
M  V30 63 H -3.2782 -1.9924 2.4512 0
M  V30 64 H 0.5416 -2.1925 1.9594 0
M  V30 65 H -0.756 -1.9146 3.7446 0
M  V30 66 H -2.7088 -4.0772 3.7197 0
M  V30 67 H -2.8999 -4.3338 1.9876 0
M  V30 68 H -0.2641 -3.9601 3.4897 0
M  V30 69 H 1.8442 -4.6373 0.4913 0
M  V30 70 H 1.8871 -4.1741 2.1861 0
M  V30 71 H -0.2594 -4.7616 -0.7699 0
M  V30 72 H -0.9928 -5.9213 0.3143 0
M  V30 73 H -1.8322 -4.4272 -0.0473 0
M  V30 74 H -1.4735 -6.5242 2.3693 0
M  V30 75 H -1.3262 -6.0867 4.0465 0
M  V30 76 H 2.3896 -6.5431 1.975 0
M  V30 77 H 0.9675 -6.8466 1.0201 0
M  V30 78 H 1.0949 -6.0537 3.9657 0
M  V30 79 H 0.0419 -8.3197 2.6134 0
M  V30 END ATOM
M  V30 BEGIN BOND
M  V30 1 2 1 2
M  V30 2 2 1 3
M  V30 3 1 1 4
M  V30 4 1 1 5
M  V30 5 1 5 6
M  V30 6 1 6 7
M  V30 7 1 7 8
M  V30 8 2 8 9
M  V30 9 1 8 10
M  V30 10 1 10 11
M  V30 11 1 11 12
M  V30 12 1 12 13
M  V30 13 1 12 14
M  V30 14 1 13 15
M  V30 15 1 13 16
M  V30 16 1 15 17
M  V30 17 1 15 18
M  V30 18 1 15 19
M  V30 19 1 16 20
M  V30 20 1 17 21
M  V30 21 1 18 22
M  V30 22 1 21 23
M  V30 23 1 21 24
M  V30 24 1 23 25
M  V30 25 1 23 26
M  V30 26 1 24 27
M  V30 27 1 26 28
M  V30 28 1 27 29
M  V30 29 1 27 30
M  V30 30 1 28 31
M  V30 31 1 29 32
M  V30 32 1 31 33
M  V30 33 1 33 34
M  V30 34 1 17 20
M  V30 35 1 22 24
M  V30 36 1 27 28
M  V30 37 1 32 33
M  V30 38 1 4 35
M  V30 39 1 5 36
M  V30 40 1 5 37
M  V30 41 1 6 38
M  V30 42 1 6 39
M  V30 43 1 7 40
M  V30 44 1 10 41
M  V30 45 1 10 42
M  V30 46 1 11 43
M  V30 47 1 11 44
M  V30 48 1 12 45
M  V30 49 1 13 46
M  V30 50 1 14 47
M  V30 51 1 14 48
M  V30 52 1 14 49
M  V30 53 1 16 50
M  V30 54 1 16 51
M  V30 55 1 17 52
M  V30 56 1 18 53
M  V30 57 1 18 54
M  V30 58 1 19 55
M  V30 59 1 19 56
M  V30 60 1 19 57
M  V30 61 1 20 58
M  V30 62 1 20 59
M  V30 63 1 21 60
M  V30 64 1 22 61
M  V30 65 1 22 62
M  V30 66 1 23 63
M  V30 67 1 24 64
M  V30 68 1 25 65
M  V30 69 1 26 66
M  V30 70 1 26 67
M  V30 71 1 28 68
M  V30 72 1 29 69
M  V30 73 1 29 70
M  V30 74 1 30 71
M  V30 75 1 30 72
M  V30 76 1 30 73
M  V30 77 1 31 74
M  V30 78 1 31 75
M  V30 79 1 32 76
M  V30 80 1 32 77
M  V30 81 1 33 78
M  V30 82 1 34 79
M  V30 END BOND
M  V30 END CTAB
M  END
>  <Column 1>
3397

>  <level_0>
5632

>  <index>
5633

>  <Unnamed: 0>
5633

>  <NO.>
5645

>  <Name>
tauroursodeoxycholic acid

>  <IUPAC_name>
2-[4-(3-7-dihydroxy-10-13-dimethyl-2-3-4-5-6-7-8-9-11-12-14-15-16-17-tetradecahydro-1h-cyclopenta[a]phenanthren-17-yl)pentanoylamino]ethanesulfonic acid

>  <SMILES>
CC(CCC(=O)NCCS(=O)(=O)O)C1CCC2C3C(O)CC4CC(O)CCC4(C)C3CCC12C

>  <CID>
22338

>  <logBB>


>  <BBB+/BBB->
BBB-

>  <Inchi>
InChI=1S/C26H45NO6S/c1-16(4-7-23(30)27-12-13-34(31-32)33)19-5-6-20-24-21(9-11-26(19-20)3)25(2)10-8-18(28)14-17(25)15-22(24)29/h16-22-24-28-29H-4-15H2-1-3H3-(H-27-30)(H-31-32-33)

>  <threshold>


>  <reference>
R23|

>  <group>
C

>  <Class>
-1

>  <ABC>
26.99

>  <ABCGG>
20.72

>  <nAcid>
1

>  <nBase>
0

>  <nAromAtom>
0

>  <nAromBond>
0

>  <nAtom>
79

>  <nHeavyAtom>
34

>  <nSpiro>
0

>  <nBridgehead>
0

>  <nHetero>
8

>  <nN>
1

>  <nO>
6

>  <nF>
0

>  <BalabanJ>
1.37

>  <BertzCT>
863.35

>  <nBonds>
82

>  <nBondsO>
37

>  <nBondsS>
79

>  <nBondsD>
3

>  <nBondsT>
0

>  <nBondsA>
0

>  <nBondsM>
3

>  <nBondsKS>
79

>  <nBondsKD>
3

>  <RNCG>
0.14

>  <RPCG>
0.09

>  <FCSP3>
0.96

>  <SZ>
45.33

>  <Sm>
41.6

>  <Sv>
44.42

>  <Sse>
78.7

>  <Sp>
49.24

>  <Si>
89.81

>  <MZ>
0.57

>  <Mm>
0.53

>  <Mv>
0.56

>  <Mse>
1

>  <Mp>
0.62

>  <Mi>
1.14

>  <NsCH3>
3

>  <NdCH2>
0

>  <NssCH2>
12

>  <NtCH>
0

>  <NdsCH>
0

>  <NaaCH>
0

>  <NsssCH>
8

>  <NddC>
0

>  <NtsC>
0

>  <NdssC>
1

>  <NaasC>
0

>  <NaaaC>
0

>  <NssssC>
2

>  <NsNH3>
0

>  <NsNH2>
0

>  <NssNH2>
0

>  <NdNH>
0

>  <NssNH>
1

>  <NaaNH>
0

>  <NtN>
0

>  <NsssNH>
0

>  <NdsN>
0

>  <NaaN>
0

>  <NsssN>
0

>  <NddsN>
0

>  <NaasN>
0

>  <NssssN>
0

>  <NsOH>
3

>  <NdO>
3

>  <NssO>
0

>  <NaaO>
0

>  <NsF>
0

>  <NsSiH3>
0

>  <NssSiH2>
0

>  <NsssSiH>
0

>  <NssssSi>
0

>  <NsPH2>
0

>  <NssPH>
0

>  <NsssP>
0

>  <NdsssP>
0

>  <NsssssP>
0

>  <NsSH>
0

>  <NdS>
0

>  <NssS>
0

>  <NaaS>
0

>  <NdssS>
0

>  <NddssS>
1

>  <NsCl>
0

>  <NsBr>
0

>  <NsI>
0

>  <fragCpx>
247.08

>  <fMF>
0.22

>  <nHBAcc>
5

>  <nHBDon>
4

>  <Kier1>
27.05

>  <Kier2>
10.05

>  <Lipinski>
1

>  <GhoseFilter>
0

>  <FilterItLogS>
-3.81

>  <VMcGowan>
391.01

>  <LabuteASA>
204.77

>  <PEOE_VSA1>
15.53

>  <PEOE_VSA2>
9.35

>  <PEOE_VSA3>
0

>  <PEOE_VSA4>
8.42

>  <PEOE_VSA5>
0

>  <PEOE_VSA6>
20.77

>  <PEOE_VSA7>
104.12

>  <PEOE_VSA8>
12.97

>  <PEOE_VSA9>
17.96

>  <PEOE_VSA10>
0

>  <PEOE_VSA11>
0

>  <PEOE_VSA12>
5.91

>  <PEOE_VSA13>
10.12

>  <SMR_VSA1>
27.98

>  <SMR_VSA2>
0

>  <SMR_VSA3>
5.32

>  <SMR_VSA4>
46.34

>  <SMR_VSA5>
97.19

>  <SMR_VSA6>
12.3

>  <SMR_VSA7>
0

>  <SMR_VSA8>
0

>  <SMR_VSA9>
0

>  <SlogP_VSA1>
5.32

>  <SlogP_VSA2>
53.6

>  <SlogP_VSA3>
14.91

>  <SlogP_VSA4>
46.34

>  <SlogP_VSA5>
84.98

>  <SlogP_VSA6>
0

>  <SlogP_VSA7>
0

>  <SlogP_VSA8>
0

>  <SlogP_VSA9>
0

>  <SlogP_VSA10>
0

>  <SlogP_VSA11>
0

>  <EState_VSA1>
15.87

>  <EState_VSA2>
35.49

>  <EState_VSA3>
41.93

>  <EState_VSA4>
51.37

>  <EState_VSA5>
6.42

>  <EState_VSA6>
0

>  <EState_VSA7>
0

>  <EState_VSA8>
26.09

>  <EState_VSA9>
4.55

>  <EState_VSA10>
23.43

>  <VSA_EState1>
30.48

>  <VSA_EState2>
12.2

>  <VSA_EState3>
24.21

>  <VSA_EState4>
0.41

>  <VSA_EState5>
2.1

>  <VSA_EState6>
0

>  <VSA_EState7>
8.87

>  <VSA_EState8>
7.05

>  <VSA_EState9>
-4.06

>  <apol>
82.24

>  <bpol>
53.24

>  <nRing>
4

>  <nHRing>
0

>  <naRing>
0

>  <naHRing>
0

>  <nARing 2>
4

>  <nAHRing 2>
0

>  <nFRing>
1

>  <nFHRing>
0

>  <nFaRing>
0

>  <nFaHRing>
0

>  <nFARing 2>
1

>  <nFAHRing 2>
0

>  <nRot>
7

>  <SLogP>
3.4

>  <SMR>
130.44

>  <TopoPSA(NO)>
123.93

>  <TopoPSA>
132.31

>  <JGI1>
0.3

>  <JGI2>
0.11

>  <JGI3>
0.07

>  <JGI4>
0.05

>  <JGI5>
0.03

>  <Diameter>
18

>  <Radius>
9

>  <TMWC10>
151.61

>  <TSRW10>
85.5

>  <MW>
499.3

>  <AMW>
6.32

>  <WPath>
3702

>  <WPol>
63

>  <Zagreb1>
190

>  <Zagreb2>
230

>  <mZagreb2>
7.07

>  <yes>


>  <nAR-cont>
0.199399

>  <nHA-cont>
0.568589513

>  <MWHBN>
0.402774277

>  <MWHBN-cont>
0.465148687

>  <TPSA-cont>
0

>  <pka_cont>
0.97

>  <yes.1>


>  <BBB_SCORE>
1.950711543

>  <MMFF94 Energy>
9.6701

$$$$
Compound 2706
Actelion Java MolfileCreator 2.0

  0  0  0  0  0  0              0 V3000
M  V30 BEGIN CTAB
M  V30 COUNTS 67 69 0 0 0
M  V30 BEGIN ATOM
M  V30 1 F 2.6227 -1.9864 1.5888 0
M  V30 2 C 2.6543 -3.3041 1.2947 0
M  V30 3 F 1.5272 -3.6107 0.6173 0
M  V30 4 F 2.6102 -3.9788 2.47 0
M  V30 5 C 3.9071 -3.6845 0.5212 0
M  V30 6 O 3.9854 -2.9536 -0.7057 0
M  V30 7 C 5.0956 -3.1477 -1.4847 0
M  V30 8 C 5.1886 -2.3505 -2.6355 0
M  V30 9 C 6.1128 -4.0706 -1.2286 0
M  V30 10 O 4.2203 -1.415 -2.8983 0
M  V30 11 C 6.2855 -2.4405 -3.4936 0
M  V30 12 C 7.2053 -4.1773 -2.0978 0
M  V30 13 C 3.2818 -1.9256 -3.8597 0
M  V30 14 C 7.2939 -3.3619 -3.2254 0
M  V30 15 C 1.9538 -1.1742 -3.6843 0
M  V30 16 N 1.3392 -1.5208 -2.3928 0
M  V30 17 C 0.2282 -0.6256 -2.0181 0 CFG=2
M  V30 18 C -0.1112 -0.8679 -0.5256 0
M  V30 19 C -0.9933 -0.8804 -2.9089 0
M  V30 20 C -1.1286 0.0953 0.046 0
M  V30 21 C -0.7908 1.4494 0.249 0
M  V30 22 C -2.4163 -0.346 0.3712 0
M  V30 23 C -1.7196 2.3697 0.7706 0
M  V30 24 C -3.322 0.5658 0.8934 0
M  V30 25 C -2.9881 1.9082 1.127 0
M  V30 26 C -1.3026 3.7973 0.8271 0
M  V30 27 C -4.7131 0.2991 1.3606 0
M  V30 28 N -4.0583 2.6111 1.7401 0
M  V30 29 O -0.1244 4.1296 0.8711 0
M  V30 30 N -2.2971 4.7308 0.7793 0
M  V30 31 C -5.2308 1.7343 1.5334 0
M  V30 32 C -3.7978 3.1161 3.0952 0
M  V30 33 C -4.7726 4.2383 3.4425 0
M  V30 34 C -4.4514 4.8427 4.8008 0
M  V30 35 O -5.4088 5.8516 5.0937 0
M  V30 36 H 4.7799 -3.4586 1.1449 0
M  V30 37 H 3.8714 -4.7595 0.3104 0
M  V30 38 H 6.0934 -4.7245 -0.3636 0
M  V30 39 H 6.3552 -1.7904 -4.3606 0
M  V30 40 H 7.9941 -4.8964 -1.889 0
M  V30 41 H 3.118 -3.0059 -3.7443 0
M  V30 42 H 3.6752 -1.7349 -4.8651 0
M  V30 43 H 8.1502 -3.4404 -3.89 0
M  V30 44 H 1.2848 -1.4481 -4.5057 0
M  V30 45 H 2.1517 -0.0968 -3.7284 0
M  V30 46 H 2.0787 -1.4606 -1.6847 0
M  V30 47 H 0.5465 0.4175 -2.1386 0
M  V30 48 H -0.4579 -1.9006 -0.3847 0
M  V30 49 H 0.7987 -0.7753 0.0828 0
M  V30 50 H -0.7739 -0.68 -3.9624 0
M  V30 51 H -1.3379 -1.9171 -2.8255 0
M  V30 52 H -1.8271 -0.2258 -2.6356 0
M  V30 53 H 0.2059 1.7993 -0.0191 0
M  V30 54 H -2.703 -1.384 0.2271 0
M  V30 55 H -5.309 -0.2597 0.6342 0
M  V30 56 H -4.6923 -0.2296 2.3191 0
M  V30 57 H -3.2713 4.4426 0.7632 0
M  V30 58 H -2.0571 5.7106 0.785 0
M  V30 59 H -5.9619 1.7972 2.3466 0
M  V30 60 H -5.74 2.0579 0.6159 0
M  V30 61 H -2.7755 3.5007 3.1847 0
M  V30 62 H -3.8883 2.2976 3.8211 0
M  V30 63 H -5.8063 3.872 3.4424 0
M  V30 64 H -4.7424 5.0246 2.6778 0
M  V30 65 H -4.4967 4.0838 5.5883 0
M  V30 66 H -3.4556 5.2974 4.8004 0
M  V30 67 H -5.1555 6.2498 5.9445 0
M  V30 END ATOM
M  V30 BEGIN BOND
M  V30 1 1 1 2
M  V30 2 1 2 3
M  V30 3 1 2 4
M  V30 4 1 2 5
M  V30 5 1 5 6
M  V30 6 1 6 7
M  V30 7 2 7 8
M  V30 8 1 7 9
M  V30 9 1 8 10
M  V30 10 1 8 11
M  V30 11 2 9 12
M  V30 12 1 10 13
M  V30 13 2 11 14
M  V30 14 1 13 15
M  V30 15 1 15 16
M  V30 16 1 16 17
M  V30 17 1 17 18
M  V30 18 1 17 19
M  V30 19 1 18 20
M  V30 20 2 20 21
M  V30 21 1 20 22
M  V30 22 1 21 23
M  V30 23 2 22 24
M  V30 24 2 23 25
M  V30 25 1 23 26
M  V30 26 1 24 27
M  V30 27 1 25 28
M  V30 28 2 26 29
M  V30 29 1 26 30
M  V30 30 1 27 31
M  V30 31 1 28 32
M  V30 32 1 32 33
M  V30 33 1 33 34
M  V30 34 1 34 35
M  V30 35 1 12 14
M  V30 36 1 24 25
M  V30 37 1 28 31
M  V30 38 1 5 36
M  V30 39 1 5 37
M  V30 40 1 9 38
M  V30 41 1 11 39
M  V30 42 1 12 40
M  V30 43 1 13 41
M  V30 44 1 13 42
M  V30 45 1 14 43
M  V30 46 1 15 44
M  V30 47 1 15 45
M  V30 48 1 16 46
M  V30 49 1 17 47
M  V30 50 1 18 48
M  V30 51 1 18 49
M  V30 52 1 19 50
M  V30 53 1 19 51
M  V30 54 1 19 52
M  V30 55 1 21 53
M  V30 56 1 22 54
M  V30 57 1 27 55
M  V30 58 1 27 56
M  V30 59 1 30 57
M  V30 60 1 30 58
M  V30 61 1 31 59
M  V30 62 1 31 60
M  V30 63 1 32 61
M  V30 64 1 32 62
M  V30 65 1 33 63
M  V30 66 1 33 64
M  V30 67 1 34 65
M  V30 68 1 34 66
M  V30 69 1 35 67
M  V30 END BOND
M  V30 BEGIN COLLECTION
M  V30 MDLV30/STERAC1 ATOMS=(1 17)
M  V30 END COLLECTION
M  V30 END CTAB
M  END
>  <Column 1>
3398

>  <level_0>
5633

>  <index>
5634

>  <Unnamed: 0>
5634

>  <NO.>
5646

>  <Name>
silodosin

>  <IUPAC_name>
1-(3-hydroxypropyl)-5-[2-[2-[2-(2-2-2-trifluoroethoxy)phenoxy]ethylamino]propyl]-2-3-dihydroindole-7-carboxamide

>  <SMILES>
CC(Cc1cc2c(c(C(N)=O)c1)N(CCCO)CC2)NCCOc1ccccc1OCC(F)(F)F

>  <CID>
9891967

>  <logBB>


>  <BBB+/BBB->
BBB-

>  <Inchi>
InChI=1S/C25H32F3N3O4/c1-17(30-8-12-34-21-5-2-3-6-22(21)35-16-25(26-27)28)13-18-14-19-7-10-31(9-4-11-32)23(19)20(15-18)24(29)33/h2-3-5-6-14-15-17-30-32H-4-7-13-16H2-1H3-(H2-29-33)

>  <threshold>


>  <reference>
R23|

>  <group>
C

>  <Class>
1

>  <ABC>
26.77

>  <ABCGG>
20.56

>  <nAcid>
0

>  <nBase>
1

>  <nAromAtom>
12

>  <nAromBond>
12

>  <nAtom>
67

>  <nHeavyAtom>
35

>  <nSpiro>
0

>  <nBridgehead>
0

>  <nHetero>
10

>  <nN>
3

>  <nO>
4

>  <nF>
3

>  <BalabanJ>
1.39

>  <BertzCT>
1000.41

>  <nBonds>
69

>  <nBondsO>
37

>  <nBondsS>
56

>  <nBondsD>
1

>  <nBondsT>
0

>  <nBondsA>
12

>  <nBondsM>
13

>  <nBondsKS>
62

>  <nBondsKD>
7

>  <RNCG>
0.14

>  <RPCG>
0.12

>  <FCSP3>
0.48

>  <SZ>
43.67

>  <Sm>
41.26

>  <Sv>
40.74

>  <Sse>
68.39

>  <Sp>
42.67

>  <Si>
77

>  <MZ>
0.65

>  <Mm>
0.62

>  <Mv>
0.61

>  <Mse>
1.02

>  <Mp>
0.64

>  <Mi>
1.15

>  <NsCH3>
1

>  <NdCH2>
0

>  <NssCH2>
9

>  <NtCH>
0

>  <NdsCH>
0

>  <NaaCH>
6

>  <NsssCH>
1

>  <NddC>
0

>  <NtsC>
0

>  <NdssC>
1

>  <NaasC>
6

>  <NaaaC>
0

>  <NssssC>
1

>  <NsNH3>
0

>  <NsNH2>
1

>  <NssNH2>
0

>  <NdNH>
0

>  <NssNH>
1

>  <NaaNH>
0

>  <NtN>
0

>  <NsssNH>
0

>  <NdsN>
0

>  <NaaN>
0

>  <NsssN>
1

>  <NddsN>
0

>  <NaasN>
0

>  <NssssN>
0

>  <NsOH>
1

>  <NdO>
1

>  <NssO>
2

>  <NaaO>
0

>  <NsF>
3

>  <NsSiH3>
0

>  <NssSiH2>
0

>  <NsssSiH>
0

>  <NssssSi>
0

>  <NsPH2>
0

>  <NssPH>
0

>  <NsssP>
0

>  <NdsssP>
0

>  <NsssssP>
0

>  <NsSH>
0

>  <NdS>
0

>  <NssS>
0

>  <NaaS>
0

>  <NdssS>
0

>  <NddssS>
0

>  <NsCl>
0

>  <NsBr>
0

>  <NsI>
0

>  <fragCpx>
179.1

>  <fMF>
0.31

>  <nHBAcc>
6

>  <nHBDon>
3

>  <Kier1>
29.55

>  <Kier2>
14.24

>  <Lipinski>
1

>  <GhoseFilter>
0

>  <FilterItLogS>
-6.42

>  <VMcGowan>
359.13

>  <LabuteASA>
202.56

>  <PEOE_VSA1>
30.53

>  <PEOE_VSA2>
4.79

>  <PEOE_VSA3>
0

>  <PEOE_VSA4>
13.17

>  <PEOE_VSA5>
0

>  <PEOE_VSA6>
18.2

>  <PEOE_VSA7>
55.51

>  <PEOE_VSA8>
32.28

>  <PEOE_VSA9>
11.25

>  <PEOE_VSA10>
6.61

>  <PEOE_VSA11>
18.11

>  <PEOE_VSA12>
0

>  <PEOE_VSA13>
5.91

>  <SMR_VSA1>
32.55

>  <SMR_VSA2>
0

>  <SMR_VSA3>
5.32

>  <SMR_VSA4>
5.73

>  <SMR_VSA5>
38.4

>  <SMR_VSA6>
44.35

>  <SMR_VSA7>
53.09

>  <SMR_VSA8>
0

>  <SMR_VSA9>
11.5

>  <SlogP_VSA1>
25.42

>  <SlogP_VSA2>
62.69

>  <SlogP_VSA3>
12.84

>  <SlogP_VSA4>
0

>  <SlogP_VSA5>
34.83

>  <SlogP_VSA6>
36.4

>  <SlogP_VSA7>
0

>  <SlogP_VSA8>
0

>  <SlogP_VSA9>
0

>  <SlogP_VSA10>
18.86

>  <SlogP_VSA11>
11.5

>  <EState_VSA1>
18.69

>  <EState_VSA2>
30.75

>  <EState_VSA3>
31.49

>  <EState_VSA4>
29.78

>  <EState_VSA5>
6.07

>  <EState_VSA6>
18.2

>  <EState_VSA7>
12.99

>  <EState_VSA8>
16.28

>  <EState_VSA9>
20.31

>  <EState_VSA10>
17.97

>  <VSA_EState1>
47.79

>  <VSA_EState2>
14.24

>  <VSA_EState3>
12.47

>  <VSA_EState4>
9.12

>  <VSA_EState5>
-0.18

>  <VSA_EState6>
10.25

>  <VSA_EState7>
-2.31

>  <VSA_EState8>
2.89

>  <VSA_EState9>
0

>  <apol>
71.27

>  <bpol>
41.49

>  <nRing>
3

>  <nHRing>
1

>  <naRing>
2

>  <naHRing>
0

>  <nARing 2>
1

>  <nAHRing 2>
1

>  <nFRing>
1

>  <nFHRing>
1

>  <nFaRing>
0

>  <nFaHRing>
0

>  <nFARing 2>
1

>  <nFAHRing 2>
1

>  <nRot>
13

>  <SLogP>
3.07

>  <SMR>
127.24

>  <TopoPSA(NO)>
97.05

>  <TopoPSA>
97.05

>  <JGI1>
0.22

>  <JGI2>
0.07

>  <JGI3>
0.05

>  <JGI4>
0.04

>  <JGI5>
0.03

>  <Diameter>
20

>  <Radius>
10

>  <TMWC10>
149.53

>  <TSRW10>
85.05

>  <MW>
495.23

>  <AMW>
7.39

>  <WPath>
4588

>  <WPol>
50

>  <Zagreb1>
176

>  <Zagreb2>
200

>  <mZagreb2>
7.76

>  <yes>


>  <nAR-cont>
0.816016

>  <nHA-cont>
0.523063577

>  <MWHBN>
0.404425971

>  <MWHBN-cont>
0.458659921

>  <TPSA-cont>
0.322530736

>  <pka_cont>
0.97

>  <yes.1>


>  <BBB_SCORE>
3.15713093

>  <MMFF94 Energy>
141.09

$$$$
Compound 2707
Actelion Java MolfileCreator 2.0

  0  0  0  0  0  0              0 V3000
M  V30 BEGIN CTAB
M  V30 COUNTS 44 44 0 0 0
M  V30 BEGIN ATOM
M  V30 1 O 1.553 0.0 -0.6986 0
M  V30 2 C 0.5217 -0.649 -0.5627 0
M  V30 3 N 0.3602 -1.6285 0.3946 0
M  V30 4 C -0.7614 -0.4405 -1.4093 0
M  V30 5 C 1.387 -1.9858 1.3608 0
M  V30 6 N -1.3412 -1.7754 -1.7213 0
M  V30 7 C -0.5007 0.3376 -2.7062 0
M  V30 8 C 0.7713 -2.5732 2.646 0
M  V30 9 C 2.361 -2.9859 0.7376 0
M  V30 10 C -0.3084 1.8401 -2.4636 0
M  V30 11 C -0.1201 -1.6026 3.3876 0
M  V30 12 C -0.0677 2.5866 -3.7783 0
M  V30 13 C 0.4319 -0.5145 4.0776 0
M  V30 14 C -1.5115 -1.7723 3.3906 0
M  V30 15 C 0.1319 4.0816 -3.5357 0
M  V30 16 C -0.3915 0.3855 4.7559 0
M  V30 17 C -2.3332 -0.8711 4.0699 0
M  V30 18 N 0.3425 4.7747 -4.8017 0
M  V30 19 C -1.7734 0.2071 4.7521 0
M  V30 20 H -0.5009 -2.1653 0.3261 0
M  V30 21 H -1.4826 0.0957 -0.7813 0
M  V30 22 H 1.9474 -1.0745 1.6043 0
M  V30 23 H -2.1808 -1.6378 -2.2849 0
M  V30 24 H -0.6845 -2.2681 -2.3302 0
M  V30 25 H -1.3524 0.213 -3.3879 0
M  V30 26 H 0.3797 -0.0687 -3.22 0
M  V30 27 H 0.2013 -3.4801 2.4038 0
M  V30 28 H 1.5683 -2.8929 3.3301 0
M  V30 29 H 3.1568 -3.2478 1.4424 0
M  V30 30 H 2.8304 -2.5699 -0.1602 0
M  V30 31 H 1.8468 -3.9075 0.4426 0
M  V30 32 H 0.5367 2.0164 -1.7904 0
M  V30 33 H -1.2005 2.2465 -1.9714 0
M  V30 34 H 0.8159 2.1697 -4.2777 0
M  V30 35 H -0.922 2.43 -4.4491 0
M  V30 36 H 1.5083 -0.3587 4.0885 0
M  V30 37 H -1.9666 -2.6066 2.8622 0
M  V30 38 H 0.9952 4.2482 -2.8821 0
M  V30 39 H -0.7486 4.5042 -3.0401 0
M  V30 40 H 0.0462 1.2274 5.2857 0
M  V30 41 H -3.411 -1.0103 4.0661 0
M  V30 42 H 0.5268 5.7601 -4.6175 0
M  V30 43 H 1.1809 4.4101 -5.2529 0
M  V30 44 H -2.4136 0.9089 5.2799 0
M  V30 END ATOM
M  V30 BEGIN BOND
M  V30 1 2 1 2
M  V30 2 1 2 3
M  V30 3 1 2 4
M  V30 4 1 3 5
M  V30 5 1 4 6
M  V30 6 1 4 7
M  V30 7 1 5 8
M  V30 8 1 5 9
M  V30 9 1 7 10
M  V30 10 1 8 11
M  V30 11 1 10 12
M  V30 12 2 11 13
M  V30 13 1 11 14
M  V30 14 1 12 15
M  V30 15 1 13 16
M  V30 16 2 14 17
M  V30 17 1 15 18
M  V30 18 2 16 19
M  V30 19 1 17 19
M  V30 20 1 3 20
M  V30 21 1 4 21
M  V30 22 1 5 22
M  V30 23 1 6 23
M  V30 24 1 6 24
M  V30 25 1 7 25
M  V30 26 1 7 26
M  V30 27 1 8 27
M  V30 28 1 8 28
M  V30 29 1 9 29
M  V30 30 1 9 30
M  V30 31 1 9 31
M  V30 32 1 10 32
M  V30 33 1 10 33
M  V30 34 1 12 34
M  V30 35 1 12 35
M  V30 36 1 13 36
M  V30 37 1 14 37
M  V30 38 1 15 38
M  V30 39 1 15 39
M  V30 40 1 16 40
M  V30 41 1 17 41
M  V30 42 1 18 42
M  V30 43 1 18 43
M  V30 44 1 19 44
M  V30 END BOND
M  V30 END CTAB
M  END
>  <Column 1>
3399

>  <level_0>
5634

>  <index>
5635

>  <Unnamed: 0>
5635

>  <NO.>
5647

>  <Name>
lisdexamfetamine

>  <IUPAC_name>
2-6-diamino-n-(1-phenylpropan-2-yl)hexanamide

>  <SMILES>
CC(Cc1ccccc1)NC(=O)C(N)CCCCN

>  <CID>
21954928

>  <logBB>


>  <BBB+/BBB->
BBB+

>  <Inchi>
InChI=1S/C15H25N3O/c1-12(11-13-7-3-2-4-8-13)18-15(19)14(17)9-5-6-10-16/h2-4-7-8-12-14H-5-6-9-11-16-17H2-1H3-(H-18-19)

>  <threshold>


>  <reference>
R23|

>  <group>
C

>  <Class>
-1

>  <ABC>
13.72

>  <ABCGG>
12.02

>  <nAcid>
0

>  <nBase>
2

>  <nAromAtom>
6

>  <nAromBond>
6

>  <nAtom>
44

>  <nHeavyAtom>
19

>  <nSpiro>
0

>  <nBridgehead>
0

>  <nHetero>
4

>  <nN>
3

>  <nO>
1

>  <nF>
0

>  <BalabanJ>
2.16

>  <BertzCT>
366.91

>  <nBonds>
44

>  <nBondsO>
19

>  <nBondsS>
37

>  <nBondsD>
1

>  <nBondsT>
0

>  <nBondsA>
6

>  <nBondsM>
7

>  <nBondsKS>
40

>  <nBondsKD>
4

>  <RNCG>
0.19

>  <RPCG>
0.13

>  <FCSP3>
0.53

>  <SZ>
24

>  <Sm>
21.93

>  <Sv>
24.76

>  <Sse>
43.42

>  <Sp>
27.44

>  <Si>
50.27

>  <MZ>
0.55

>  <Mm>
0.5

>  <Mv>
0.56

>  <Mse>
0.99

>  <Mp>
0.62

>  <Mi>
1.14

>  <NsCH3>
1

>  <NdCH2>
0

>  <NssCH2>
5

>  <NtCH>
0

>  <NdsCH>
0

>  <NaaCH>
5

>  <NsssCH>
2

>  <NddC>
0

>  <NtsC>
0

>  <NdssC>
1

>  <NaasC>
1

>  <NaaaC>
0

>  <NssssC>
0

>  <NsNH3>
0

>  <NsNH2>
2

>  <NssNH2>
0

>  <NdNH>
0

>  <NssNH>
1

>  <NaaNH>
0

>  <NtN>
0

>  <NsssNH>
0

>  <NdsN>
0

>  <NaaN>
0

>  <NsssN>
0

>  <NddsN>
0

>  <NaasN>
0

>  <NssssN>
0

>  <NsOH>
0

>  <NdO>
1

>  <NssO>
0

>  <NaaO>
0

>  <NsF>
0

>  <NsSiH3>
0

>  <NssSiH2>
0

>  <NsssSiH>
0

>  <NssssSi>
0

>  <NsPH2>
0

>  <NssPH>
0

>  <NsssP>
0

>  <NdsssP>
0

>  <NsssssP>
0

>  <NsSH>
0

>  <NdS>
0

>  <NssS>
0

>  <NaaS>
0

>  <NdssS>
0

>  <NddssS>
0

>  <NsCl>
0

>  <NsBr>
0

>  <NsI>
0

>  <fragCpx>
19.04

>  <fMF>
0.14

>  <nHBAcc>
3

>  <nHBDon>
3

>  <Kier1>
17.05

>  <Kier2>
9.83

>  <Lipinski>
1

>  <GhoseFilter>
1

>  <FilterItLogS>
-3.43

>  <VMcGowan>
229.96

>  <LabuteASA>
115.11

>  <PEOE_VSA1>
16.78

>  <PEOE_VSA2>
4.79

>  <PEOE_VSA3>
0

>  <PEOE_VSA4>
0

>  <PEOE_VSA5>
0

>  <PEOE_VSA6>
36.75

>  <PEOE_VSA7>
38.29

>  <PEOE_VSA8>
6.04

>  <PEOE_VSA9>
6.04

>  <PEOE_VSA10>
0

>  <PEOE_VSA11>
0

>  <PEOE_VSA12>
5.91

>  <PEOE_VSA13>
0

>  <SMR_VSA1>
4.79

>  <SMR_VSA2>
0

>  <SMR_VSA3>
5.32

>  <SMR_VSA4>
11.47

>  <SMR_VSA5>
44.69

>  <SMR_VSA6>
6.54

>  <SMR_VSA7>
35.9

>  <SMR_VSA8>
0

>  <SMR_VSA9>
0

>  <SlogP_VSA1>
16.78

>  <SlogP_VSA2>
24.54

>  <SlogP_VSA3>
11.22

>  <SlogP_VSA4>
0

>  <SlogP_VSA5>
31.75

>  <SlogP_VSA6>
30.33

>  <SlogP_VSA7>
0

>  <SlogP_VSA8>
0

>  <SlogP_VSA9>
0

>  <SlogP_VSA10>
0

>  <SlogP_VSA11>
0

>  <EState_VSA1>
6.04

>  <EState_VSA2>
11.95

>  <EState_VSA3>
12.97

>  <EState_VSA4>
19.26

>  <EState_VSA5>
5.56

>  <EState_VSA6>
0

>  <EState_VSA7>
25.12

>  <EState_VSA8>
17.45

>  <EState_VSA9>
11.47

>  <EState_VSA10>
4.79

>  <VSA_EState1>
0

>  <VSA_EState2>
11.87

>  <VSA_EState3>
2.96

>  <VSA_EState4>
12.48

>  <VSA_EState5>
-0.07

>  <VSA_EState6>
9.78

>  <VSA_EState7>
3.34

>  <VSA_EState8>
2.65

>  <VSA_EState9>
0

>  <apol>
45.82

>  <bpol>
25.38

>  <nRing>
1

>  <nHRing>
0

>  <naRing>
1

>  <naHRing>
0

>  <nARing 2>
0

>  <nAHRing 2>
0

>  <nFRing>
0

>  <nFHRing>
0

>  <nFaRing>
0

>  <nFaHRing>
0

>  <nFARing 2>
0

>  <nFAHRing 2>
0

>  <nRot>
8

>  <SLogP>
1.19

>  <SMR>
78.63

>  <TopoPSA(NO)>
81.14

>  <TopoPSA>
81.14

>  <JGI1>
0.18

>  <JGI2>
0.07

>  <JGI3>
0.05

>  <JGI4>
0.04

>  <JGI5>
0.02

>  <Diameter>
13

>  <Radius>
7

>  <TMWC10>
106.2

>  <TSRW10>
50.77

>  <MW>
263.2

>  <AMW>
5.98

>  <WPath>
854

>  <WPol>
22

>  <Zagreb1>
84

>  <Zagreb2>
90

>  <mZagreb2>
4.53

>  <yes>


>  <nAR-cont>
0.336376

>  <nHA-cont>
0.998649058

>  <MWHBN>
0.369835255

>  <MWHBN-cont>
0.594505129

>  <TPSA-cont>
0.433592415

>  <pka_cont>
0.97

>  <yes.1>


>  <BBB_SCORE>
3.578967582

>  <MMFF94 Energy>
43.857

$$$$
Compound 2708
Actelion Java MolfileCreator 2.0

  0  0  0  0  0  0              0 V3000
M  V30 BEGIN CTAB
M  V30 COUNTS 64 67 0 0 0
M  V30 BEGIN ATOM
M  V30 1 S 4.4767 -5.7819 -0.0812 0
M  V30 2 C 5.011 -4.1648 0.3656 0
M  V30 3 C 6.1452 -6.1915 -0.6109 0
M  V30 4 N 6.2908 -4.0029 0.4747 0
M  V30 5 N 4.0703 -3.2044 0.5744 0
M  V30 6 C 6.9914 -5.281 0.2573 0
M  V30 7 C 2.8779 -3.0531 -0.1897 0
M  V30 8 C 4.3867 -1.8117 0.5464 0
M  V30 9 C 2.8843 -1.5825 0.2793 0
M  V30 10 S 2.5815 -0.3997 -1.0851 0
M  V30 11 C 0.8606 -0.4167 -1.1252 0
M  V30 12 C 0.0157 0.2584 -0.3266 0
M  V30 13 C 0.0963 -1.2981 -2.1 0
M  V30 14 N -1.2884 -0.0307 -0.6381 0
M  V30 15 C 0.3453 1.1453 0.8232 0
M  V30 16 C -1.3681 -0.908 -1.8189 0
M  V30 17 C 0.4284 -1.0422 -3.5671 0
M  V30 18 C -2.1212 -0.7631 0.1503 0
M  V30 19 O 1.3745 1.0911 1.4791 0
M  V30 20 O -0.6732 2.0162 1.0257 0
M  V30 21 C -2.3365 -1.8001 -0.9739 0
M  V30 22 O -2.3916 -0.6925 1.3273 0
M  V30 23 C -0.444 2.903 2.1154 0
M  V30 24 C -3.7571 -1.9908 -1.4839 0
M  V30 25 O -1.5509 3.7978 2.2711 0
M  V30 26 O -4.3025 -0.7433 -1.8988 0
M  V30 27 C -4.6427 -2.6115 -0.4122 0
M  V30 28 C -1.5583 4.8443 1.402 0
M  V30 29 O -0.6769 5.0779 0.5851 0
M  V30 30 C -2.8181 5.6952 1.5878 0
M  V30 31 C -2.7983 6.8656 0.5916 0
M  V30 32 C -4.0597 4.8338 1.3204 0
M  V30 33 C -2.8523 6.2556 3.0158 0
M  V30 34 H 6.2564 -5.9381 -1.6697 0
M  V30 35 H 6.3821 -7.2482 -0.4651 0
M  V30 36 H 7.9566 -5.0936 -0.2252 0
M  V30 37 H 7.2014 -5.7431 1.2302 0
M  V30 38 H 3.0305 -3.2283 -1.2606 0
M  V30 39 H 2.0441 -3.6556 0.1801 0
M  V30 40 H 5.0788 -1.5475 -0.2609 0
M  V30 41 H 4.7587 -1.4377 1.5037 0
M  V30 42 H 2.3036 -1.4042 1.1923 0
M  V30 43 H 0.2622 -2.3556 -1.862 0
M  V30 44 H -1.8527 -0.3807 -2.6516 0
M  V30 45 H 1.453 -1.3476 -3.8023 0
M  V30 46 H 0.3218 0.0173 -3.8266 0
M  V30 47 H -0.2462 -1.6101 -4.217 0
M  V30 48 H -1.8899 -2.7695 -0.7101 0
M  V30 49 H -0.3808 2.3248 3.0442 0
M  V30 50 H 0.4925 3.4622 1.9914 0
M  V30 51 H -3.7402 -2.6468 -2.3613 0
M  V30 52 H -5.2526 -0.8686 -2.073 0
M  V30 53 H -4.7657 -1.9369 0.4418 0
M  V30 54 H -5.6467 -2.7997 -0.8076 0
M  V30 55 H -4.2276 -3.557 -0.0499 0
M  V30 56 H -2.765 6.5059 -0.4433 0
M  V30 57 H -3.6894 7.4945 0.6984 0
M  V30 58 H -1.9193 7.5027 0.7444 0
M  V30 59 H -4.0183 4.3827 0.3223 0
M  V30 60 H -4.1461 4.0143 2.0429 0
M  V30 61 H -4.9773 5.4292 1.3853 0
M  V30 62 H -1.9436 6.8277 3.236 0
M  V30 63 H -2.9206 5.456 3.7621 0
M  V30 64 H -3.713 6.9178 3.1618 0
M  V30 END ATOM
M  V30 BEGIN BOND
M  V30 1 1 1 2
M  V30 2 1 1 3
M  V30 3 2 2 4
M  V30 4 1 2 5
M  V30 5 1 3 6
M  V30 6 1 5 7
M  V30 7 1 5 8
M  V30 8 1 7 9
M  V30 9 1 9 10
M  V30 10 1 10 11
M  V30 11 2 11 12
M  V30 12 1 11 13
M  V30 13 1 12 14
M  V30 14 1 12 15
M  V30 15 1 13 16
M  V30 16 1 13 17
M  V30 17 1 14 18
M  V30 18 2 15 19
M  V30 19 1 15 20
M  V30 20 1 16 21
M  V30 21 2 18 22
M  V30 22 1 20 23
M  V30 23 1 21 24
M  V30 24 1 23 25
M  V30 25 1 24 26
M  V30 26 1 24 27
M  V30 27 1 25 28
M  V30 28 2 28 29
M  V30 29 1 28 30
M  V30 30 1 30 31
M  V30 31 1 30 32
M  V30 32 1 30 33
M  V30 33 1 4 6
M  V30 34 1 8 9
M  V30 35 1 14 16
M  V30 36 1 18 21
M  V30 37 1 3 34
M  V30 38 1 3 35
M  V30 39 1 6 36
M  V30 40 1 6 37
M  V30 41 1 7 38
M  V30 42 1 7 39
M  V30 43 1 8 40
M  V30 44 1 8 41
M  V30 45 1 9 42
M  V30 46 1 13 43
M  V30 47 1 16 44
M  V30 48 1 17 45
M  V30 49 1 17 46
M  V30 50 1 17 47
M  V30 51 1 21 48
M  V30 52 1 23 49
M  V30 53 1 23 50
M  V30 54 1 24 51
M  V30 55 1 26 52
M  V30 56 1 27 53
M  V30 57 1 27 54
M  V30 58 1 27 55
M  V30 59 1 31 56
M  V30 60 1 31 57
M  V30 61 1 31 58
M  V30 62 1 32 59
M  V30 63 1 32 60
M  V30 64 1 32 61
M  V30 65 1 33 62
M  V30 66 1 33 63
M  V30 67 1 33 64
M  V30 END BOND
M  V30 END CTAB
M  END
>  <Column 1>
3400

>  <level_0>
5635

>  <index>
5636

>  <Unnamed: 0>
5636

>  <NO.>
5648

>  <Name>
tebipenem

>  <IUPAC_name>
2-2-dimethylpropanoyloxymethyl 3-[1-(4-5-dihydro-1-3-thiazol-2-yl)azetidin-3-yl]sulfanyl-6-(1-hydroxyethyl)-4-methyl-7-oxo-1-azabicyclo[3.2.0]hept-2-ene-2-carboxylate

>  <SMILES>
CC(O)C1C(=O)N2C(C(=O)OCOC(=O)C(C)(C)C)=C(SC3CN(C4=NCCS4)C3)C(C)C12

>  <CID>
74763996

>  <logBB>


>  <BBB+/BBB->
BBB-

>  <Inchi>
InChI=1S/C22H31N3O6S2/c1-11-15-14(12(2)26)18(27)25(15)16(19(28)30-10-31-20(29)22(3-4)5)17(11)33-13-8-24(9-13)21-23-6-7-32-21/h11-15-26H-6-10H2-1-5H3

>  <threshold>


>  <reference>
R23|

>  <group>
C

>  <Class>
1

>  <ABC>
26.08

>  <ABCGG>
21.7

>  <nAcid>
0

>  <nBase>
2

>  <nAromAtom>
0

>  <nAromBond>
0

>  <nAtom>
64

>  <nHeavyAtom>
33

>  <nSpiro>
0

>  <nBridgehead>
0

>  <nHetero>
11

>  <nN>
3

>  <nO>
6

>  <nF>
0

>  <BalabanJ>
1.39

>  <BertzCT>
906.3

>  <nBonds>
67

>  <nBondsO>
36

>  <nBondsS>
62

>  <nBondsD>
5

>  <nBondsT>
0

>  <nBondsA>
0

>  <nBondsM>
5

>  <nBondsKS>
62

>  <nBondsKD>
5

>  <RNCG>
0.13

>  <RPCG>
0.11

>  <FCSP3>
0.73

>  <SZ>
44

>  <Sm>
41.43

>  <Sv>
39.34

>  <Sse>
64.89

>  <Sp>
42.71

>  <Si>
72.41

>  <MZ>
0.69

>  <Mm>
0.65

>  <Mv>
0.61

>  <Mse>
1.01

>  <Mp>
0.67

>  <Mi>
1.13

>  <NsCH3>
5

>  <NdCH2>
0

>  <NssCH2>
5

>  <NtCH>
0

>  <NdsCH>
0

>  <NaaCH>
0

>  <NsssCH>
5

>  <NddC>
0

>  <NtsC>
0

>  <NdssC>
6

>  <NaasC>
0

>  <NaaaC>
0

>  <NssssC>
1

>  <NsNH3>
0

>  <NsNH2>
0

>  <NssNH2>
0

>  <NdNH>
0

>  <NssNH>
0

>  <NaaNH>
0

>  <NtN>
0

>  <NsssNH>
0

>  <NdsN>
1

>  <NaaN>
0

>  <NsssN>
2

>  <NddsN>
0

>  <NaasN>
0

>  <NssssN>
0

>  <NsOH>
1

>  <NdO>
3

>  <NssO>
2

>  <NaaO>
0

>  <NsF>
0

>  <NsSiH3>
0

>  <NssSiH2>
0

>  <NsssSiH>
0

>  <NssssSi>
0

>  <NsPH2>
0

>  <NssPH>
0

>  <NsssP>
0

>  <NdsssP>
0

>  <NsssssP>
0

>  <NsSH>
0

>  <NdS>
0

>  <NssS>
2

>  <NaaS>
0

>  <NdssS>
0

>  <NddssS>
0

>  <NsCl>
0

>  <NsBr>
0

>  <NsI>
0

>  <fragCpx>
240.11

>  <fMF>
0.27

>  <nHBAcc>
10

>  <nHBDon>
1

>  <Kier1>
26.07

>  <Kier2>
10.17

>  <Lipinski>
1

>  <GhoseFilter>
0

>  <FilterItLogS>
-2.13

>  <VMcGowan>
353.76

>  <LabuteASA>
201.86

>  <PEOE_VSA1>
24.38

>  <PEOE_VSA2>
14.58

>  <PEOE_VSA3>
4.79

>  <PEOE_VSA4>
0

>  <PEOE_VSA5>
11.76

>  <PEOE_VSA6>
18.69

>  <PEOE_VSA7>
27.69

>  <PEOE_VSA8>
34.92

>  <PEOE_VSA9>
30.02

>  <PEOE_VSA10>
5.7

>  <PEOE_VSA11>
5.17

>  <PEOE_VSA12>
12.7

>  <PEOE_VSA13>
0

>  <SMR_VSA1>
28.96

>  <SMR_VSA2>
0

>  <SMR_VSA3>
9.8

>  <SMR_VSA4>
22.24

>  <SMR_VSA5>
52.01

>  <SMR_VSA6>
32.18

>  <SMR_VSA7>
10.6

>  <SMR_VSA8>
0

>  <SMR_VSA9>
0

>  <SlogP_VSA1>
0

>  <SlogP_VSA2>
87.5

>  <SlogP_VSA3>
23.86

>  <SlogP_VSA4>
17.25

>  <SlogP_VSA5>
34.62

>  <SlogP_VSA6>
15.59

>  <SlogP_VSA7>
0

>  <SlogP_VSA8>
0

>  <SlogP_VSA9>
0

>  <SlogP_VSA10>
0

>  <SlogP_VSA11>
0

>  <EState_VSA1>
36.17

>  <EState_VSA2>
28.81

>  <EState_VSA3>
0

>  <EState_VSA4>
35.46

>  <EState_VSA5>
4.9

>  <EState_VSA6>
51.22

>  <EState_VSA7>
6.92

>  <EState_VSA8>
9.89

>  <EState_VSA9>
9.47

>  <EState_VSA10>
19.49

>  <VSA_EState1>
10.33

>  <VSA_EState2>
46.82

>  <VSA_EState3>
11.47

>  <VSA_EState4>
-0.49

>  <VSA_EState5>
-1.06

>  <VSA_EState6>
-0.27

>  <VSA_EState7>
-0.8

>  <VSA_EState8>
10.73

>  <VSA_EState9>
0

>  <apol>
71.32

>  <bpol>
46.66

>  <nRing>
4

>  <nHRing>
4

>  <naRing>
0

>  <naHRing>
0

>  <nARing 2>
4

>  <nAHRing 2>
4

>  <nFRing>
1

>  <nFHRing>
1

>  <nFaRing>
0

>  <nFaHRing>
0

>  <nFARing 2>
1

>  <nFAHRing 2>
1

>  <nRot>
6

>  <SLogP>
1.67

>  <SMR>
126.21

>  <TopoPSA(NO)>
108.74

>  <TopoPSA>
159.34

>  <JGI1>
0.22

>  <JGI2>
0.08

>  <JGI3>
0.08

>  <JGI4>
0.06

>  <JGI5>
0.03

>  <Diameter>
15

>  <Radius>
8

>  <TMWC10>
149.07

>  <TSRW10>
86.44

>  <MW>
497.17

>  <AMW>
7.77

>  <WPath>
3362

>  <WPol>
51

>  <Zagreb1>
182

>  <Zagreb2>
221

>  <mZagreb2>
6.97

>  <yes>


>  <nAR-cont>
0.199399

>  <nHA-cont>
0.61399562

>  <MWHBN>
0.493333069

>  <MWHBN-cont>
0

>  <TPSA-cont>
0

>  <pka_cont>
0.97

>  <yes.1>


>  <BBB_SCORE>
1.29839462

>  <MMFF94 Energy>
23.68

$$$$
Compound 2709
Actelion Java MolfileCreator 2.0

  0  0  0  0  0  0              0 V3000
M  V30 BEGIN CTAB
M  V30 COUNTS 58 61 0 0 0
M  V30 BEGIN ATOM
M  V30 1 F 1.3039 -3.1806 -3.6706 0
M  V30 2 C 0.5916 -2.4215 -2.8283 0
M  V30 3 C -0.4385 -2.9958 -2.0946 0
M  V30 4 C 0.8985 -1.0731 -2.6969 0
M  V30 5 C -1.1826 -2.2069 -1.2163 0
M  V30 6 C 0.1572 -0.2808 -1.8199 0
M  V30 7 C -0.897 -0.8381 -1.0722 0
M  V30 8 C -1.7195 0.0158 -0.1009 0
M  V30 9 N -2.2426 1.2442 -0.7824 0
M  V30 10 C -0.8411 0.3216 1.174 0
M  V30 11 C -2.8261 2.1504 0.2361 0
M  V30 12 C -3.2782 0.886 -1.7844 0
M  V30 13 O -1.4994 1.2409 2.0571 0
M  V30 14 O -0.6261 -0.9077 1.881 0
M  V30 15 C -1.8361 2.4435 1.3667 0
M  V30 16 C -3.5893 2.0838 -2.6447 0
M  V30 17 C 0.3982 -0.8061 2.8732 0
M  V30 18 N -4.7419 2.6893 -2.7041 0
M  V30 19 N -2.6355 2.6155 -3.433 0
M  V30 20 C 1.7719 -0.915 2.2323 0
M  V30 21 C 0.1835 -1.94 3.8726 0
M  V30 22 N -4.524 3.7009 -3.605 0
M  V30 23 C -3.214 3.6726 -4.0635 0
M  V30 24 C 2.046 -1.8965 1.266 0
M  V30 25 C 2.7927 -0.027 2.6031 0
M  V30 26 O -2.6881 4.4326 -4.8552 0
M  V30 27 C 3.3109 -1.9952 0.6687 0
M  V30 28 C 4.0693 -0.1068 2.0241 0
M  V30 29 C 4.3132 -1.0889 1.0511 0
M  V30 30 C 3.5992 -3.0414 -0.3825 0
M  V30 31 C 5.147 0.8771 2.415 0
M  V30 32 F 2.6085 -3.9633 -0.5262 0
M  V30 33 F 3.7929 -2.4933 -1.6132 0
M  V30 34 F 4.73 -3.75 -0.1084 0
M  V30 35 F 5.0783 1.2482 3.7236 0
M  V30 36 F 6.4064 0.3946 2.2296 0
M  V30 37 F 5.0755 2.0293 1.6942 0
M  V30 38 H -0.6517 -4.054 -2.2078 0
M  V30 39 H 1.7145 -0.6515 -3.2753 0
M  V30 40 H -1.9814 -2.6678 -0.6384 0
M  V30 41 H 0.4025 0.7744 -1.7214 0
M  V30 42 H -2.5835 -0.572 0.243 0
M  V30 43 H 0.1207 0.7568 0.8724 0
M  V30 44 H -3.7285 1.6975 0.6672 0
M  V30 45 H -3.1084 3.1036 -0.2238 0
M  V30 46 H -4.1952 0.5116 -1.3151 0
M  V30 47 H -2.9079 0.1156 -2.4697 0
M  V30 48 H -0.9253 2.9268 0.9934 0
M  V30 49 H -2.297 3.1213 2.0924 0
M  V30 50 H 0.301 0.1443 3.4125 0
M  V30 51 H -1.6769 2.3299 -3.526 0
M  V30 52 H -0.8021 -1.8478 4.3419 0
M  V30 53 H 0.9453 -1.9322 4.659 0
M  V30 54 H 0.2035 -2.9196 3.3816 0
M  V30 55 H -5.2373 4.3649 -3.8735 0
M  V30 56 H 1.2557 -2.5883 0.9705 0
M  V30 57 H 2.595 0.74 3.3529 0
M  V30 58 H 5.2984 -1.1541 0.5858 0
M  V30 END ATOM
M  V30 BEGIN BOND
M  V30 1 1 1 2
M  V30 2 2 2 3
M  V30 3 1 2 4
M  V30 4 1 3 5
M  V30 5 2 4 6
M  V30 6 2 5 7
M  V30 7 1 7 8
M  V30 8 1 8 9
M  V30 9 1 8 10
M  V30 10 1 9 11
M  V30 11 1 9 12
M  V30 12 1 10 13
M  V30 13 1 10 14
M  V30 14 1 11 15
M  V30 15 1 12 16
M  V30 16 1 14 17
M  V30 17 2 16 18
M  V30 18 1 16 19
M  V30 19 1 17 20
M  V30 20 1 17 21
M  V30 21 1 18 22
M  V30 22 1 19 23
M  V30 23 2 20 24
M  V30 24 1 20 25
M  V30 25 2 23 26
M  V30 26 1 24 27
M  V30 27 2 25 28
M  V30 28 2 27 29
M  V30 29 1 27 30
M  V30 30 1 28 31
M  V30 31 1 30 32
M  V30 32 1 30 33
M  V30 33 1 30 34
M  V30 34 1 31 35
M  V30 35 1 31 36
M  V30 36 1 31 37
M  V30 37 1 6 7
M  V30 38 1 13 15
M  V30 39 1 22 23
M  V30 40 1 28 29
M  V30 41 1 3 38
M  V30 42 1 4 39
M  V30 43 1 5 40
M  V30 44 1 6 41
M  V30 45 1 8 42
M  V30 46 1 10 43
M  V30 47 1 11 44
M  V30 48 1 11 45
M  V30 49 1 12 46
M  V30 50 1 12 47
M  V30 51 1 15 48
M  V30 52 1 15 49
M  V30 53 1 17 50
M  V30 54 1 19 51
M  V30 55 1 21 52
M  V30 56 1 21 53
M  V30 57 1 21 54
M  V30 58 1 22 55
M  V30 59 1 24 56
M  V30 60 1 25 57
M  V30 61 1 29 58
M  V30 END BOND
M  V30 END CTAB
M  END
>  <Column 1>
3401

>  <level_0>
5636

>  <index>
5637

>  <Unnamed: 0>
5637

>  <NO.>
5649

>  <Name>
aprepitant

>  <IUPAC_name>
3-[[2-[1-[3-5-bis(trifluoromethyl)phenyl]ethoxy]-3-(4-fluorophenyl)morpholin-4-yl]methyl]-1-4-dihydro-1-2-4-triazol-5-one

>  <SMILES>
CC(OC1OCCN(Cc2n[nH]c(=O)[nH]2)C1c1ccc(F)cc1)c1cc(C(F)(F)F)cc(C(F)(F)F)c1

>  <CID>
135761774

>  <logBB>


>  <BBB+/BBB->
BBB+

>  <Inchi>
InChI=1S/C23H21F7N4O3/c1-12(14-8-15(22(25-26)27)10-16(9-14)23(28-29)30)37-20-19(13-2-4-17(24)5-3-13)34(6-7-36-20)11-18-31-21(35)33-32-18/h2-5-8-10-12-19-20H-6-7-11H2-1H3-(H2-31-32-33-35)

>  <threshold>


>  <reference>
R23|

>  <group>
C

>  <Class>
-1

>  <ABC>
29.28

>  <ABCGG>
23.26

>  <nAcid>
0

>  <nBase>
1

>  <nAromAtom>
17

>  <nAromBond>
17

>  <nAtom>
58

>  <nHeavyAtom>
37

>  <nSpiro>
0

>  <nBridgehead>
0

>  <nHetero>
14

>  <nN>
4

>  <nO>
3

>  <nF>
7

>  <BalabanJ>
1.49

>  <BertzCT>
1238.57

>  <nBonds>
61

>  <nBondsO>
40

>  <nBondsS>
43

>  <nBondsD>
1

>  <nBondsT>
0

>  <nBondsA>
17

>  <nBondsM>
18

>  <nBondsKS>
53

>  <nBondsKD>
8

>  <RNCG>
0.1

>  <RPCG>
0.12

>  <FCSP3>
0.39

>  <SZ>
45.67

>  <Sm>
44.5

>  <Sv>
38.39

>  <Sse>
61.66

>  <Sp>
37.8

>  <Si>
67.98

>  <MZ>
0.79

>  <Mm>
0.77

>  <Mv>
0.66

>  <Mse>
1.06

>  <Mp>
0.65

>  <Mi>
1.17

>  <NsCH3>
1

>  <NdCH2>
0

>  <NssCH2>
3

>  <NtCH>
0

>  <NdsCH>
0

>  <NaaCH>
7

>  <NsssCH>
3

>  <NddC>
0

>  <NtsC>
0

>  <NdssC>
0

>  <NaasC>
6

>  <NaaaC>
0

>  <NssssC>
2

>  <NsNH3>
0

>  <NsNH2>
0

>  <NssNH2>
0

>  <NdNH>
0

>  <NssNH>
0

>  <NaaNH>
2

>  <NtN>
0

>  <NsssNH>
0

>  <NdsN>
0

>  <NaaN>
1

>  <NsssN>
1

>  <NddsN>
0

>  <NaasN>
0

>  <NssssN>
0

>  <NsOH>
0

>  <NdO>
1

>  <NssO>
2

>  <NaaO>
0

>  <NsF>
7

>  <NsSiH3>
0

>  <NssSiH2>
0

>  <NsssSiH>
0

>  <NssssSi>
0

>  <NsPH2>
0

>  <NssPH>
0

>  <NsssP>
0

>  <NdsssP>
0

>  <NsssssP>
0

>  <NsSH>
0

>  <NdS>
0

>  <NssS>
0

>  <NaaS>
0

>  <NdssS>
0

>  <NddssS>
0

>  <NsCl>
0

>  <NsBr>
0

>  <NsI>
0

>  <fragCpx>
268.14

>  <fMF>
0.45

>  <nHBAcc>
5

>  <nHBDon>
2

>  <Kier1>
29.97

>  <Kier2>
12.25

>  <Lipinski>
0

>  <GhoseFilter>
0

>  <FilterItLogS>
-6.88

>  <VMcGowan>
326.94

>  <LabuteASA>
204.75

>  <PEOE_VSA1>
9.47

>  <PEOE_VSA2>
9.88

>  <PEOE_VSA3>
14.28

>  <PEOE_VSA4>
31.44

>  <PEOE_VSA5>
0

>  <PEOE_VSA6>
12.13

>  <PEOE_VSA7>
48.38

>  <PEOE_VSA8>
6.54

>  <PEOE_VSA9>
36.42

>  <PEOE_VSA10>
11.64

>  <PEOE_VSA11>
6.29

>  <PEOE_VSA12>
0

>  <PEOE_VSA13>
0

>  <SMR_VSA1>
40.21

>  <SMR_VSA2>
0

>  <SMR_VSA3>
20.08

>  <SMR_VSA4>
0

>  <SMR_VSA5>
44.26

>  <SMR_VSA6>
13.15

>  <SMR_VSA7>
86.84

>  <SMR_VSA8>
0

>  <SMR_VSA9>
0

>  <SlogP_VSA1>
5.69

>  <SlogP_VSA2>
39.52

>  <SlogP_VSA3>
28.37

>  <SlogP_VSA4>
5.82

>  <SlogP_VSA5>
47.15

>  <SlogP_VSA6>
47.26

>  <SlogP_VSA7>
0

>  <SlogP_VSA8>
0

>  <SlogP_VSA9>
0

>  <SlogP_VSA10>
30.73

>  <SlogP_VSA11>
0

>  <EState_VSA1>
53.42

>  <EState_VSA2>
30.61

>  <EState_VSA3>
24.24

>  <EState_VSA4>
0

>  <EState_VSA5>
31.19

>  <EState_VSA6>
4.9

>  <EState_VSA7>
0

>  <EState_VSA8>
15.18

>  <EState_VSA9>
9.47

>  <EState_VSA10>
35.53

>  <VSA_EState1>
105.19

>  <VSA_EState2>
15.73

>  <VSA_EState3>
6.1

>  <VSA_EState4>
-3.3

>  <VSA_EState5>
-0.24

>  <VSA_EState6>
5.79

>  <VSA_EState7>
-12.43

>  <VSA_EState8>
1.82

>  <VSA_EState9>
0

>  <apol>
63.12

>  <bpol>
36.05

>  <nRing>
4

>  <nHRing>
2

>  <naRing>
3

>  <naHRing>
1

>  <nARing 2>
1

>  <nAHRing 2>
1

>  <nFRing>
0

>  <nFHRing>
0

>  <nFaRing>
0

>  <nFaHRing>
0

>  <nFARing 2>
0

>  <nFAHRing 2>
0

>  <nRot>
6

>  <SLogP>
4.95

>  <SMR>
114.45

>  <TopoPSA(NO)>
83.24

>  <TopoPSA>
83.24

>  <JGI1>
0.29

>  <JGI2>
0.08

>  <JGI3>
0.05

>  <JGI4>
0.04

>  <JGI5>
0.04

>  <Diameter>
14

>  <Radius>
7

>  <TMWC10>
156.45

>  <TSRW10>
87.54

>  <MW>
534.15

>  <AMW>
9.21

>  <WPath>
4275

>  <WPol>
59

>  <Zagreb1>
200

>  <Zagreb2>
233

>  <mZagreb2>
7.69

>  <yes>


>  <nAR-cont>
0.816016

>  <nHA-cont>
0.433355441

>  <MWHBN>
0.30287709

>  <MWHBN-cont>
0.832058415

>  <TPSA-cont>
0.418933111

>  <pka_cont>
0.97

>  <yes.1>


>  <BBB_SCORE>
3.820325285

>  <MMFF94 Energy>
169.27

$$$$
Compound 2710
Actelion Java MolfileCreator 2.0

  0  0  0  0  0  0              0 V3000
M  V30 BEGIN CTAB
M  V30 COUNTS 28 28 0 0 0
M  V30 BEGIN ATOM
M  V30 1 S 0.4944 -0.2471 -3.6299 0
M  V30 2 C 1.8557 -0.3894 -2.5939 0
M  V30 3 C 1.3987 -0.6631 -5.0166 0
M  V30 4 C 1.8318 -0.1612 -1.1519 0
M  V30 5 C 2.9788 -0.7511 -3.3246 0
M  V30 6 C 2.7173 -0.9087 -4.7157 0
M  V30 7 S 0.2849 0.2891 -0.4312 0
M  V30 8 O 2.8309 -0.2601 -0.4473 0
M  V30 9 C 0.7063 0.1581 1.3444 0 CFG=2
M  V30 10 C -0.5629 -0.1269 2.1509 0
M  V30 11 C 1.361 1.4422 1.8425 0
M  V30 12 O -0.6215 -1.0463 2.9649 0
M  V30 13 N -1.6119 0.742 1.9469 0
M  V30 14 C -2.8832 0.5771 2.63 0
M  V30 15 C -3.812 -0.3144 1.8231 0
M  V30 16 O -3.8103 -0.4631 0.6105 0
M  V30 17 O -4.7555 -0.9093 2.5812 0
M  V30 18 H 0.9202 -0.7081 -5.9856 0
M  V30 19 H 3.9524 -0.8971 -2.8685 0
M  V30 20 H 3.4581 -1.1883 -5.455 0
M  V30 21 H 1.3739 -0.6959 1.5027 0
M  V30 22 H 0.7169 2.3175 1.6997 0
M  V30 23 H 2.3136 1.635 1.3393 0
M  V30 24 H 1.5664 1.3703 2.9168 0
M  V30 25 H -1.5744 1.3552 1.1403 0
M  V30 26 H -3.3432 1.5629 2.7374 0
M  V30 27 H -2.7145 0.1336 3.6158 0
M  V30 28 H -5.2669 -1.4494 1.9427 0
M  V30 END ATOM
M  V30 BEGIN BOND
M  V30 1 1 1 2
M  V30 2 1 1 3
M  V30 3 1 2 4
M  V30 4 2 2 5
M  V30 5 2 3 6
M  V30 6 1 4 7
M  V30 7 2 4 8
M  V30 8 1 7 9
M  V30 9 1 9 10
M  V30 10 1 9 11
M  V30 11 2 10 12
M  V30 12 1 10 13
M  V30 13 1 13 14
M  V30 14 1 14 15
M  V30 15 2 15 16
M  V30 16 1 15 17
M  V30 17 1 5 6
M  V30 18 1 3 18
M  V30 19 1 5 19
M  V30 20 1 6 20
M  V30 21 1 9 21
M  V30 22 1 11 22
M  V30 23 1 11 23
M  V30 24 1 11 24
M  V30 25 1 13 25
M  V30 26 1 14 26
M  V30 27 1 14 27
M  V30 28 1 17 28
M  V30 END BOND
M  V30 BEGIN COLLECTION
M  V30 MDLV30/STERAC1 ATOMS=(1 9)
M  V30 END COLLECTION
M  V30 END CTAB
M  END
>  <Column 1>
3403

>  <level_0>
5638

>  <index>
5639

>  <Unnamed: 0>
5639

>  <NO.>
5651

>  <Name>
stepronin

>  <IUPAC_name>
2-[2-(thiophene-2-carbonylsulfanyl)propanoylamino]acetic acid

>  <SMILES>
CC(SC(=O)c1cccs1)C(=O)NCC(=O)O

>  <CID>
54120

>  <logBB>


>  <BBB+/BBB->
BBB-

>  <Inchi>
InChI=1S/C10H11NO4S2/c1-6(9(14)11-5-8(12)13)17-10(15)7-3-2-4-16-7/h2-4-6H-5H2-1H3-(H-11-14)(H-12-13)

>  <threshold>


>  <reference>
R23|

>  <group>
C

>  <Class>
-1

>  <ABC>
12.49

>  <ABCGG>
11.89

>  <nAcid>
1

>  <nBase>
0

>  <nAromAtom>
5

>  <nAromBond>
5

>  <nAtom>
28

>  <nHeavyAtom>
17

>  <nSpiro>
0

>  <nBridgehead>
0

>  <nHetero>
7

>  <nN>
1

>  <nO>
4

>  <nF>
0

>  <BalabanJ>
2.24

>  <BertzCT>
415.95

>  <nBonds>
28

>  <nBondsO>
17

>  <nBondsS>
20

>  <nBondsD>
3

>  <nBondsT>
0

>  <nBondsA>
5

>  <nBondsM>
8

>  <nBondsKS>
23

>  <nBondsKD>
5

>  <RNCG>
0.24

>  <RPCG>
0.16

>  <FCSP3>
0.3

>  <SZ>
23.67

>  <Sm>
22.76

>  <Sv>
18.97

>  <Sse>
29.02

>  <Sp>
20.44

>  <Si>
31.25

>  <MZ>
0.85

>  <Mm>
0.81

>  <Mv>
0.68

>  <Mse>
1.04

>  <Mp>
0.73

>  <Mi>
1.12

>  <NsCH3>
1

>  <NdCH2>
0

>  <NssCH2>
1

>  <NtCH>
0

>  <NdsCH>
0

>  <NaaCH>
3

>  <NsssCH>
1

>  <NddC>
0

>  <NtsC>
0

>  <NdssC>
3

>  <NaasC>
1

>  <NaaaC>
0

>  <NssssC>
0

>  <NsNH3>
0

>  <NsNH2>
0

>  <NssNH2>
0

>  <NdNH>
0

>  <NssNH>
1

>  <NaaNH>
0

>  <NtN>
0

>  <NsssNH>
0

>  <NdsN>
0

>  <NaaN>
0

>  <NsssN>
0

>  <NddsN>
0

>  <NaasN>
0

>  <NssssN>
0

>  <NsOH>
1

>  <NdO>
3

>  <NssO>
0

>  <NaaO>
0

>  <NsF>
0

>  <NsSiH3>
0

>  <NssSiH2>
0

>  <NsssSiH>
0

>  <NssssSi>
0

>  <NsPH2>
0

>  <NssPH>
0

>  <NsssP>
0

>  <NdsssP>
0

>  <NsssssP>
0

>  <NsSH>
0

>  <NdS>
0

>  <NssS>
1

>  <NaaS>
1

>  <NdssS>
0

>  <NddssS>
0

>  <NsCl>
0

>  <NsBr>
0

>  <NsI>
0

>  <fragCpx>
17.07

>  <fMF>
0.18

>  <nHBAcc>
5

>  <nHBDon>
2

>  <Kier1>
15.06

>  <Kier2>
7.44

>  <Lipinski>
1

>  <GhoseFilter>
1

>  <FilterItLogS>
-1.49

>  <VMcGowan>
185.56

>  <LabuteASA>
106.21

>  <PEOE_VSA1>
10.42

>  <PEOE_VSA2>
14.38

>  <PEOE_VSA3>
0

>  <PEOE_VSA4>
0

>  <PEOE_VSA5>
11.34

>  <PEOE_VSA6>
17.83

>  <PEOE_VSA7>
18.37

>  <PEOE_VSA8>
0

>  <PEOE_VSA9>
10.13

>  <PEOE_VSA10>
6.54

>  <PEOE_VSA11>
0

>  <PEOE_VSA12>
11.02

>  <PEOE_VSA13>
0

>  <SMR_VSA1>
19.49

>  <SMR_VSA2>
0

>  <SMR_VSA3>
5.32

>  <SMR_VSA4>
0

>  <SMR_VSA5>
12.17

>  <SMR_VSA6>
6.54

>  <SMR_VSA7>
22.39

>  <SMR_VSA8>
0

>  <SMR_VSA9>
0

>  <SlogP_VSA1>
5.32

>  <SlogP_VSA2>
33.89

>  <SlogP_VSA3>
9.59

>  <SlogP_VSA4>
0

>  <SlogP_VSA5>
16.6

>  <SlogP_VSA6>
17.51

>  <SlogP_VSA7>
0

>  <SlogP_VSA8>
0

>  <SlogP_VSA9>
0

>  <SlogP_VSA10>
0

>  <SlogP_VSA11>
0

>  <EState_VSA1>
23.67

>  <EState_VSA2>
5.12

>  <EState_VSA3>
4.88

>  <EState_VSA4>
11.76

>  <EState_VSA5>
11.34

>  <EState_VSA6>
24.44

>  <EState_VSA7>
0

>  <EState_VSA8>
5.32

>  <EState_VSA9>
5.11

>  <EState_VSA10>
14.38

>  <VSA_EState1>
0

>  <VSA_EState2>
33.87

>  <VSA_EState3>
11.6

>  <VSA_EState4>
0

>  <VSA_EState5>
-1.57

>  <VSA_EState6>
3.44

>  <VSA_EState7>
0

>  <VSA_EState8>
1.13

>  <VSA_EState9>
0

>  <apol>
34.14

>  <bpol>
19.13

>  <nRing>
1

>  <nHRing>
1

>  <naRing>
1

>  <naHRing>
1

>  <nARing 2>
0

>  <nAHRing 2>
0

>  <nFRing>
0

>  <nFHRing>
0

>  <nFaRing>
0

>  <nFaHRing>
0

>  <nFARing 2>
0

>  <nFAHRing 2>
0

>  <nRot>
5

>  <SLogP>
1.21

>  <SMR>
66.35

>  <TopoPSA(NO)>
83.47

>  <TopoPSA>
137.01

>  <JGI1>
0.24

>  <JGI2>
0.1

>  <JGI3>
0.04

>  <JGI4>
0.05

>  <JGI5>
0.03

>  <Diameter>
10

>  <Radius>
5

>  <TMWC10>
102.22

>  <TSRW10>
61.63

>  <MW>
273.01

>  <AMW>
9.75

>  <WPath>
593

>  <WPol>
19

>  <Zagreb1>
78

>  <Zagreb2>
85

>  <mZagreb2>
3.89

>  <yes>


>  <nAR-cont>
0.336376

>  <nHA-cont>
0.976740822

>  <MWHBN>
0.423651514

>  <MWHBN-cont>
0.383914244

>  <TPSA-cont>
0

>  <pka_cont>
0.97

>  <yes.1>


>  <BBB_SCORE>
2.373988187

>  <MMFF94 Energy>
17.703

$$$$
Compound 2711
Actelion Java MolfileCreator 2.0

  0  0  0  0  0  0              0 V3000
M  V30 BEGIN CTAB
M  V30 COUNTS 50 50 0 0 0
M  V30 BEGIN ATOM
M  V30 1 S 3.6463 0.475 3.1701 0
M  V30 2 C 3.4405 0.6012 4.9885 0
M  V30 3 C 1.9566 -0.0351 2.7072 0
M  V30 4 C 2.5045 1.7332 5.4381 0
M  V30 5 C 1.8474 -0.3925 1.2233 0
M  V30 6 N 2.8687 3.0523 4.8649 0
M  V30 7 C 2.5531 1.7994 6.9639 0
M  V30 8 C 1.9883 0.8178 0.2898 0
M  V30 9 O 3.2661 2.5229 7.6426 0
M  V30 10 O 1.7299 0.9078 7.553 0
M  V30 11 C 1.8467 0.4541 -1.1921 0
M  V30 12 C 0.4756 -0.0468 -1.558 0
M  V30 13 C -0.5661 0.6174 -2.0937 0
M  V30 14 N -1.76 0.0083 -2.4621 0
M  V30 15 C -0.5725 2.0871 -2.3913 0
M  V30 16 C -2.1762 -1.2915 -2.2993 0
M  V30 17 O -1.4053 2.6127 -3.1181 0
M  V30 18 O 0.3389 2.8255 -1.7465 0
M  V30 19 O -1.5944 -2.1777 -1.6906 0
M  V30 20 C -3.5236 -1.5955 -2.8662 0
M  V30 21 C -3.6692 -2.1725 -4.2676 0
M  V30 22 C -4.2251 -0.8011 -3.9406 0
M  V30 23 C -2.4617 -2.2502 -5.1678 0
M  V30 24 C -4.642 -3.3083 -4.4534 0
M  V30 25 H 3.0916 -0.3655 5.3688 0
M  V30 26 H 4.4421 0.7557 5.4076 0
M  V30 27 H 1.2532 0.7681 2.9461 0
M  V30 28 H 1.6905 -0.9141 3.3033 0
M  V30 29 H 1.4693 1.5272 5.1456 0
M  V30 30 H 2.5884 -1.158 0.9614 0
M  V30 31 H 0.8621 -0.8495 1.0703 0
M  V30 32 H 3.7081 3.3895 5.3437 0
M  V30 33 H 3.1516 2.9057 3.8929 0
M  V30 34 H 2.9732 1.2785 0.4262 0
M  V30 35 H 1.2446 1.577 0.561 0
M  V30 36 H 1.8497 1.0766 8.512 0
M  V30 37 H 2.1376 1.3063 -1.8139 0
M  V30 38 H 2.5723 -0.3309 -1.442 0
M  V30 39 H 0.3796 -1.1155 -1.3815 0
M  V30 40 H -2.4164 0.6456 -2.9048 0
M  V30 41 H 0.1555 3.7435 -2.0331 0
M  V30 42 H -4.1586 -2.06 -2.1137 0
M  V30 43 H -3.7499 0.0509 -4.4124 0
M  V30 44 H -5.3015 -0.6863 -3.8564 0
M  V30 45 H -2.7735 -2.3405 -6.2136 0
M  V30 46 H -1.8554 -3.1257 -4.9138 0
M  V30 47 H -1.8253 -1.3625 -5.0917 0
M  V30 48 H -5.0045 -3.3348 -5.4862 0
M  V30 49 H -4.1557 -4.2643 -4.2334 0
M  V30 50 H -5.5133 -3.215 -3.7959 0
M  V30 END ATOM
M  V30 BEGIN BOND
M  V30 1 1 1 2
M  V30 2 1 1 3
M  V30 3 1 2 4
M  V30 4 1 3 5
M  V30 5 1 4 6
M  V30 6 1 4 7
M  V30 7 1 5 8
M  V30 8 2 7 9
M  V30 9 1 7 10
M  V30 10 1 8 11
M  V30 11 1 11 12
M  V30 12 2 12 13
M  V30 13 1 13 14
M  V30 14 1 13 15
M  V30 15 1 14 16
M  V30 16 2 15 17
M  V30 17 1 15 18
M  V30 18 2 16 19
M  V30 19 1 16 20
M  V30 20 1 20 21
M  V30 21 1 20 22
M  V30 22 1 21 23
M  V30 23 1 21 24
M  V30 24 1 21 22
M  V30 25 1 2 25
M  V30 26 1 2 26
M  V30 27 1 3 27
M  V30 28 1 3 28
M  V30 29 1 4 29
M  V30 30 1 5 30
M  V30 31 1 5 31
M  V30 32 1 6 32
M  V30 33 1 6 33
M  V30 34 1 8 34
M  V30 35 1 8 35
M  V30 36 1 10 36
M  V30 37 1 11 37
M  V30 38 1 11 38
M  V30 39 1 12 39
M  V30 40 1 14 40
M  V30 41 1 18 41
M  V30 42 1 20 42
M  V30 43 1 22 43
M  V30 44 1 22 44
M  V30 45 1 23 45
M  V30 46 1 23 46
M  V30 47 1 23 47
M  V30 48 1 24 48
M  V30 49 1 24 49
M  V30 50 1 24 50
M  V30 END BOND
M  V30 END CTAB
M  END
>  <Column 1>
3406

>  <level_0>
5641

>  <index>
5642

>  <Unnamed: 0>
5642

>  <NO.>
5654

>  <Name>
78852-98-9

>  <IUPAC_name>
(e)-7-(2-amino-2-carboxyethyl)sulfanyl-2-[(2-2-dimethylcyclopropanecarbonyl)amino]hept-2-enoic acid

>  <SMILES>
CC1(C)CC1C(=O)N/C(=C/CCCCSCC(N)C(=O)O)C(=O)O

>  <CID>
6120851

>  <logBB>


>  <BBB+/BBB->
BBB-

>  <Inchi>
InChI=1S/C16H26N2O5S/c1-16(2)8-10(16)13(19)18-12(15(22)23)6-4-3-5-7-24-9-11(17)14(20)21/h6-10-11H-3-5-7-9-17H2-1-2H3-(H-18-19)(H-20-21)(H-22-23)/b12-6+

>  <threshold>


>  <reference>
R23|

>  <group>
C

>  <Class>
-1

>  <ABC>
17.76

>  <ABCGG>
16.07

>  <nAcid>
2

>  <nBase>
1

>  <nAromAtom>
0

>  <nAromBond>
0

>  <nAtom>
50

>  <nHeavyAtom>
24

>  <nSpiro>
0

>  <nBridgehead>
0

>  <nHetero>
8

>  <nN>
2

>  <nO>
5

>  <nF>
0

>  <BalabanJ>
2.12

>  <BertzCT>
518.6

>  <nBonds>
50

>  <nBondsO>
24

>  <nBondsS>
46

>  <nBondsD>
4

>  <nBondsT>
0

>  <nBondsA>
0

>  <nBondsM>
4

>  <nBondsKS>
46

>  <nBondsKD>
4

>  <RNCG>
0.17

>  <RPCG>
0.12

>  <FCSP3>
0.69

>  <SZ>
32

>  <Sm>
29.84

>  <Sv>
29.32

>  <Sse>
50.6

>  <Sp>
31.84

>  <Si>
56.95

>  <MZ>
0.64

>  <Mm>
0.6

>  <Mv>
0.59

>  <Mse>
1.01

>  <Mp>
0.64

>  <Mi>
1.14

>  <NsCH3>
2

>  <NdCH2>
0

>  <NssCH2>
6

>  <NtCH>
0

>  <NdsCH>
1

>  <NaaCH>
0

>  <NsssCH>
2

>  <NddC>
0

>  <NtsC>
0

>  <NdssC>
4

>  <NaasC>
0

>  <NaaaC>
0

>  <NssssC>
1

>  <NsNH3>
0

>  <NsNH2>
1

>  <NssNH2>
0

>  <NdNH>
0

>  <NssNH>
1

>  <NaaNH>
0

>  <NtN>
0

>  <NsssNH>
0

>  <NdsN>
0

>  <NaaN>
0

>  <NsssN>
0

>  <NddsN>
0

>  <NaasN>
0

>  <NssssN>
0

>  <NsOH>
2

>  <NdO>
3

>  <NssO>
0

>  <NaaO>
0

>  <NsF>
0

>  <NsSiH3>
0

>  <NssSiH2>
0

>  <NsssSiH>
0

>  <NssssSi>
0

>  <NsPH2>
0

>  <NssPH>
0

>  <NsssP>
0

>  <NdsssP>
0

>  <NsssssP>
0

>  <NsSH>
0

>  <NdS>
0

>  <NssS>
1

>  <NaaS>
0

>  <NdssS>
0

>  <NddssS>
0

>  <NsCl>
0

>  <NsBr>
0

>  <NsI>
0

>  <fragCpx>
24.08

>  <fMF>
0.06

>  <nHBAcc>
5

>  <nHBDon>
4

>  <Kier1>
22.04

>  <Kier2>
10.22

>  <Lipinski>
1

>  <GhoseFilter>
1

>  <FilterItLogS>
-1.86

>  <VMcGowan>
273.9

>  <LabuteASA>
145.6

>  <PEOE_VSA1>
21.26

>  <PEOE_VSA2>
9.59

>  <PEOE_VSA3>
4.79

>  <PEOE_VSA4>
11.76

>  <PEOE_VSA5>
0

>  <PEOE_VSA6>
19.92

>  <PEOE_VSA7>
36.85

>  <PEOE_VSA8>
11.67

>  <PEOE_VSA9>
0

>  <PEOE_VSA10>
11.74

>  <PEOE_VSA11>
0

>  <PEOE_VSA12>
5.91

>  <PEOE_VSA13>
0

>  <SMR_VSA1>
24.6

>  <SMR_VSA2>
0

>  <SMR_VSA3>
5.32

>  <SMR_VSA4>
17.07

>  <SMR_VSA5>
45.57

>  <SMR_VSA6>
11.51

>  <SMR_VSA7>
11.77

>  <SMR_VSA8>
0

>  <SMR_VSA9>
0

>  <SlogP_VSA1>
11.05

>  <SlogP_VSA2>
45.61

>  <SlogP_VSA3>
14.38

>  <SlogP_VSA4>
11.33

>  <SlogP_VSA5>
39.53

>  <SlogP_VSA6>
11.77

>  <SlogP_VSA7>
0

>  <SlogP_VSA8>
0

>  <SlogP_VSA9>
0

>  <SlogP_VSA10>
0

>  <SlogP_VSA11>
0

>  <EState_VSA1>
17.98

>  <EState_VSA2>
22.94

>  <EState_VSA3>
12.17

>  <EState_VSA4>
25.02

>  <EState_VSA5>
17.84

>  <EState_VSA6>
0

>  <EState_VSA7>
13.85

>  <EState_VSA8>
5.32

>  <EState_VSA9>
15.95

>  <EState_VSA10>
14.38

>  <VSA_EState1>
0

>  <VSA_EState2>
33.69

>  <VSA_EState3>
20.3

>  <VSA_EState4>
5.28

>  <VSA_EState5>
-1.37

>  <VSA_EState6>
-0.85

>  <VSA_EState7>
4.44

>  <VSA_EState8>
3.96

>  <VSA_EState9>
0

>  <apol>
53.17

>  <bpol>
31.15

>  <nRing>
1

>  <nHRing>
0

>  <naRing>
0

>  <naHRing>
0

>  <nARing 2>
1

>  <nAHRing 2>
0

>  <nFRing>
0

>  <nFHRing>
0

>  <nFaRing>
0

>  <nFaHRing>
0

>  <nFARing 2>
0

>  <nFAHRing 2>
0

>  <nRot>
11

>  <SLogP>
1.43

>  <SMR>
92.54

>  <TopoPSA(NO)>
129.72

>  <TopoPSA>
155.02

>  <JGI1>
0.27

>  <JGI2>
0.12

>  <JGI3>
0.06

>  <JGI4>
0.03

>  <JGI5>
0.03

>  <Diameter>
15

>  <Radius>
8

>  <TMWC10>
121.13

>  <TSRW10>
78.17

>  <MW>
358.16

>  <AMW>
7.16

>  <WPath>
1747

>  <WPol>
28

>  <Zagreb1>
114

>  <Zagreb2>
127

>  <mZagreb2>
5.38

>  <yes>


>  <nAR-cont>
0.816016

>  <nHA-cont>
0.94700071

>  <MWHBN>
0.475558522

>  <MWHBN-cont>
0

>  <TPSA-cont>
0

>  <pka_cont>
0.97

>  <yes.1>


>  <BBB_SCORE>
2.24801671

>  <MMFF94 Energy>
59.565

$$$$
Compound 2712
Actelion Java MolfileCreator 2.0

  0  0  0  0  0  0              0 V3000
M  V30 BEGIN CTAB
M  V30 COUNTS 51 53 0 0 0
M  V30 BEGIN ATOM
M  V30 1 O -3.4216 -6.3731 -5.5748 0
M  V30 2 C -2.8405 -5.3048 -5.6101 0
M  V30 3 O -2.2784 -4.8518 -6.7445 0
M  V30 4 C -2.6601 -4.3743 -4.4688 0
M  V30 5 C -3.2035 -4.7318 -3.2285 0
M  V30 6 C -1.9763 -3.1581 -4.6016 0
M  V30 7 C -3.0581 -3.8833 -2.1271 0
M  V30 8 C -1.8288 -2.3087 -3.4992 0
M  V30 9 C -2.3584 -2.6767 -2.2548 0
M  V30 10 C -2.2292 -1.7987 -1.0569 0
M  V30 11 O -3.1521 -1.7782 -0.2516 0
M  V30 12 N -1.0295 -1.1171 -0.9623 0
M  V30 13 C -0.6622 -0.1878 0.033 0
M  V30 14 C 0.688 0.1706 0.119 0
M  V30 15 C -1.564 0.406 0.9021 0
M  V30 16 C 1.1666 1.1023 1.072 0
M  V30 17 C -1.121 1.3442 1.8377 0
M  V30 18 C 0.2336 1.7265 1.9315 0
M  V30 19 C 2.6661 1.4295 1.1121 0
M  V30 20 C 0.646 2.7672 2.9812 0
M  V30 21 C 3.0503 2.1883 2.402 0
M  V30 22 C 3.5364 0.1503 1.0834 0
M  V30 23 C 3.0188 2.2847 -0.125 0
M  V30 24 C 2.0701 3.3051 2.7192 0
M  V30 25 C -0.2936 3.9967 2.9745 0
M  V30 26 C 0.5795 2.1135 4.3793 0
M  V30 27 H -2.4771 -5.5539 -7.3997 0
M  V30 28 H -3.7466 -5.6687 -3.1147 0
M  V30 29 H -1.5647 -2.8573 -5.5628 0
M  V30 30 H -3.4912 -4.1648 -1.1683 0
M  V30 31 H -1.3285 -1.3533 -3.6361 0
M  V30 32 H -0.3054 -1.3569 -1.6256 0
M  V30 33 H 1.3906 -0.2863 -0.5725 0
M  V30 34 H -2.6236 0.1711 0.8745 0
M  V30 35 H -1.8663 1.7724 2.5046 0
M  V30 36 H 3.0967 1.4958 3.252 0
M  V30 37 H 4.0592 2.6101 2.3063 0
M  V30 38 H 3.4597 -0.389 0.1336 0
M  V30 39 H 4.5966 0.3951 1.2206 0
M  V30 40 H 3.2473 -0.5432 1.8819 0
M  V30 41 H 2.4005 3.1868 -0.1899 0
M  V30 42 H 4.0688 2.5981 -0.1025 0
M  V30 43 H 2.8664 1.7273 -1.0567 0
M  V30 44 H 2.4301 3.864 3.5929 0
M  V30 45 H 2.0597 4.0237 1.8898 0
M  V30 46 H -1.3097 3.7503 3.3002 0
M  V30 47 H -0.3649 4.4352 1.9722 0
M  V30 48 H 0.0744 4.7745 3.6544 0
M  V30 49 H 0.9316 2.8029 5.1552 0
M  V30 50 H 1.1879 1.2044 4.4367 0
M  V30 51 H -0.4458 1.8267 4.6413 0
M  V30 END ATOM
M  V30 BEGIN BOND
M  V30 1 2 1 2
M  V30 2 1 2 3
M  V30 3 1 2 4
M  V30 4 2 4 5
M  V30 5 1 4 6
M  V30 6 1 5 7
M  V30 7 2 6 8
M  V30 8 2 7 9
M  V30 9 1 9 10
M  V30 10 2 10 11
M  V30 11 1 10 12
M  V30 12 1 12 13
M  V30 13 2 13 14
M  V30 14 1 13 15
M  V30 15 1 14 16
M  V30 16 2 15 17
M  V30 17 2 16 18
M  V30 18 1 16 19
M  V30 19 1 18 20
M  V30 20 1 19 21
M  V30 21 1 19 22
M  V30 22 1 19 23
M  V30 23 1 20 24
M  V30 24 1 20 25
M  V30 25 1 20 26
M  V30 26 1 8 9
M  V30 27 1 17 18
M  V30 28 1 21 24
M  V30 29 1 3 27
M  V30 30 1 5 28
M  V30 31 1 6 29
M  V30 32 1 7 30
M  V30 33 1 8 31
M  V30 34 1 12 32
M  V30 35 1 14 33
M  V30 36 1 15 34
M  V30 37 1 17 35
M  V30 38 1 21 36
M  V30 39 1 21 37
M  V30 40 1 22 38
M  V30 41 1 22 39
M  V30 42 1 22 40
M  V30 43 1 23 41
M  V30 44 1 23 42
M  V30 45 1 23 43
M  V30 46 1 24 44
M  V30 47 1 24 45
M  V30 48 1 25 46
M  V30 49 1 25 47
M  V30 50 1 25 48
M  V30 51 1 26 49
M  V30 52 1 26 50
M  V30 53 1 26 51
M  V30 END BOND
M  V30 END CTAB
M  END
>  <Column 1>
3407

>  <level_0>
5642

>  <index>
5643

>  <Unnamed: 0>
5643

>  <NO.>
5655

>  <Name>
tamibarotene

>  <IUPAC_name>
4-[(5-5-8-8-tetramethyl-6-7-dihydronaphthalen-2-yl)carbamoyl]benzoic acid

>  <SMILES>
CC1(C)CCC(C)(C)c2cc(NC(=O)c3ccc(C(=O)O)cc3)ccc21

>  <CID>
108143

>  <logBB>


>  <BBB+/BBB->
BBB-

>  <Inchi>
InChI=1S/C22H25NO3/c1-21(2)11-12-22(3-4)18-13-16(9-10-17(18)21)23-19(24)14-5-7-15(8-6-14)20(25)26/h5-10-13H-11-12H2-1-4H3-(H-23-24)(H-25-26)

>  <threshold>


>  <reference>
R23|

>  <group>
C

>  <Class>
-1

>  <ABC>
20.52

>  <ABCGG>
16

>  <nAcid>
1

>  <nBase>
0

>  <nAromAtom>
12

>  <nAromBond>
12

>  <nAtom>
51

>  <nHeavyAtom>
26

>  <nSpiro>
0

>  <nBridgehead>
0

>  <nHetero>
4

>  <nN>
1

>  <nO>
3

>  <nF>
0

>  <BalabanJ>
1.55

>  <BertzCT>
863.46

>  <nBonds>
53

>  <nBondsO>
28

>  <nBondsS>
39

>  <nBondsD>
2

>  <nBondsT>
0

>  <nBondsA>
12

>  <nBondsM>
14

>  <nBondsKS>
45

>  <nBondsKD>
8

>  <RNCG>
0.23

>  <RPCG>
0.16

>  <FCSP3>
0.36

>  <SZ>
31.33

>  <Sm>
29.26

>  <Sv>
31.68

>  <Sse>
50.75

>  <Sp>
34.08

>  <Si>
57.11

>  <MZ>
0.61

>  <Mm>
0.57

>  <Mv>
0.62

>  <Mse>
1

>  <Mp>
0.67

>  <Mi>
1.12

>  <NsCH3>
4

>  <NdCH2>
0

>  <NssCH2>
2

>  <NtCH>
0

>  <NdsCH>
0

>  <NaaCH>
7

>  <NsssCH>
0

>  <NddC>
0

>  <NtsC>
0

>  <NdssC>
2

>  <NaasC>
5

>  <NaaaC>
0

>  <NssssC>
2

>  <NsNH3>
0

>  <NsNH2>
0

>  <NssNH2>
0

>  <NdNH>
0

>  <NssNH>
1

>  <NaaNH>
0

>  <NtN>
0

>  <NsssNH>
0

>  <NdsN>
0

>  <NaaN>
0

>  <NsssN>
0

>  <NddsN>
0

>  <NaasN>
0

>  <NssssN>
0

>  <NsOH>
1

>  <NdO>
2

>  <NssO>
0

>  <NaaO>
0

>  <NsF>
0

>  <NsSiH3>
0

>  <NssSiH2>
0

>  <NsssSiH>
0

>  <NssssSi>
0

>  <NsPH2>
0

>  <NssPH>
0

>  <NsssP>
0

>  <NdsssP>
0

>  <NsssssP>
0

>  <NsSH>
0

>  <NdS>
0

>  <NssS>
0

>  <NaaS>
0

>  <NdssS>
0

>  <NddssS>
0

>  <NsCl>
0

>  <NsBr>
0

>  <NsI>
0

>  <fragCpx>
134.04

>  <fMF>
0.35

>  <nHBAcc>
2

>  <nHBDon>
2

>  <Kier1>
20.73

>  <Kier2>
7.79

>  <Lipinski>
1

>  <GhoseFilter>
1

>  <FilterItLogS>
-5.82

>  <VMcGowan>
281.45

>  <LabuteASA>
153.8

>  <PEOE_VSA1>
10.42

>  <PEOE_VSA2>
4.79

>  <PEOE_VSA3>
4.79

>  <PEOE_VSA4>
0

>  <PEOE_VSA5>
0

>  <PEOE_VSA6>
33.76

>  <PEOE_VSA7>
71.2

>  <PEOE_VSA8>
11.25

>  <PEOE_VSA9>
5.56

>  <PEOE_VSA10>
0

>  <PEOE_VSA11>
0

>  <PEOE_VSA12>
0

>  <PEOE_VSA13>
5.91

>  <SMR_VSA1>
14.7

>  <SMR_VSA2>
0

>  <SMR_VSA3>
0

>  <SMR_VSA4>
0

>  <SMR_VSA5>
51.37

>  <SMR_VSA6>
5.32

>  <SMR_VSA7>
64.72

>  <SMR_VSA8>
0

>  <SMR_VSA9>
0

>  <SlogP_VSA1>
5.32

>  <SlogP_VSA2>
16.98

>  <SlogP_VSA3>
10.83

>  <SlogP_VSA4>
0

>  <SlogP_VSA5>
72.38

>  <SlogP_VSA6>
42.46

>  <SlogP_VSA7>
0

>  <SlogP_VSA8>
0

>  <SlogP_VSA9>
0

>  <SlogP_VSA10>
5.69

>  <SlogP_VSA11>
0

>  <EState_VSA1>
5.97

>  <EState_VSA2>
22.3

>  <EState_VSA3>
5.56

>  <EState_VSA4>
18.53

>  <EState_VSA5>
35.39

>  <EState_VSA6>
0

>  <EState_VSA7>
6.07

>  <EState_VSA8>
45.14

>  <EState_VSA9>
5.11

>  <EState_VSA10>
9.59

>  <VSA_EState1>
0

>  <VSA_EState2>
23.42

>  <VSA_EState3>
11.89

>  <VSA_EState4>
4.22

>  <VSA_EState5>
-1.24

>  <VSA_EState6>
12.1

>  <VSA_EState7>
2.26

>  <VSA_EState8>
9.03

>  <VSA_EState9>
0

>  <apol>
56.92

>  <bpol>
27.39

>  <nRing>
3

>  <nHRing>
0

>  <naRing>
2

>  <naHRing>
0

>  <nARing 2>
1

>  <nAHRing 2>
0

>  <nFRing>
1

>  <nFHRing>
0

>  <nFaRing>
0

>  <nFaHRing>
0

>  <nFARing 2>
1

>  <nFAHRing 2>
0

>  <nRot>
3

>  <SLogP>
4.99

>  <SMR>
103.08

>  <TopoPSA(NO)>
66.4

>  <TopoPSA>
66.4

>  <JGI1>
0.3

>  <JGI2>
0.11

>  <JGI3>
0.06

>  <JGI4>
0.06

>  <JGI5>
0.03

>  <Diameter>
13

>  <Radius>
7

>  <TMWC10>
130.81

>  <TSRW10>
61.58

>  <MW>
351.18

>  <AMW>
6.89

>  <WPath>
1763

>  <WPol>
45

>  <Zagreb1>
142

>  <Zagreb2>
168

>  <mZagreb2>
5.42

>  <yes>


>  <nAR-cont>
0.816016

>  <nHA-cont>
0.892715677

>  <MWHBN>
0.213449481

>  <MWHBN-cont>
0.99826172

>  <TPSA-cont>
0.536486768

>  <pka_cont>
0.97

>  <yes.1>


>  <BBB_SCORE>
4.764097793

>  <MMFF94 Energy>
65.496

$$$$
Compound 2713
Actelion Java MolfileCreator 2.0

  0  0  0  0  0  0              0 V3000
M  V30 BEGIN CTAB
M  V30 COUNTS 31 32 0 0 0
M  V30 BEGIN ATOM
M  V30 1 Cl 4.5145 -0.4744 -3.325 0
M  V30 2 C 3.0891 -0.3916 -2.366 0
M  V30 3 C 2.9766 -1.1788 -1.2228 0
M  V30 4 C 2.0497 0.4545 -2.7416 0
M  V30 5 C 1.8169 -1.1125 -0.4442 0
M  V30 6 C 0.8926 0.5164 -1.9608 0
M  V30 7 C 0.7654 -0.2545 -0.7932 0
M  V30 8 N -0.412 -0.1886 -0.0304 0
M  V30 9 C -1.6042 -0.7325 -0.4212 0
M  V30 10 C -0.4326 0.6035 1.2063 0
M  V30 11 N -2.743 -0.5171 0.1511 0
M  V30 12 N -1.589 -1.5805 -1.4776 0
M  V30 13 N -1.7636 0.9073 1.7359 0
M  V30 14 C 0.2321 1.9809 1.0082 0
M  V30 15 C 0.289 -0.1492 2.3396 0
M  V30 16 C -2.7815 0.3426 1.1967 0
M  V30 17 N -4.0032 0.6138 1.6964 0
M  V30 18 H 3.7813 -1.8497 -0.934 0
M  V30 19 H 2.1296 1.0661 -3.6361 0
M  V30 20 H 1.7314 -1.7552 0.4285 0
M  V30 21 H 0.0805 1.1768 -2.26 0
M  V30 22 H -2.4617 -1.9997 -1.7631 0
M  V30 23 H -0.7355 -1.8564 -1.9364 0
M  V30 24 H -0.2571 2.539 0.2011 0
M  V30 25 H 0.1537 2.5909 1.9165 0
M  V30 26 H 1.2972 1.8987 0.7666 0
M  V30 27 H 0.1624 0.3655 3.3 0
M  V30 28 H -0.1141 -1.1619 2.4575 0
M  V30 29 H 1.3654 -0.2315 2.1622 0
M  V30 30 H -4.0889 1.2483 2.4732 0
M  V30 31 H -4.8105 0.1775 1.2823 0
M  V30 END ATOM
M  V30 BEGIN BOND
M  V30 1 1 1 2
M  V30 2 2 2 3
M  V30 3 1 2 4
M  V30 4 1 3 5
M  V30 5 2 4 6
M  V30 6 2 5 7
M  V30 7 1 7 8
M  V30 8 1 8 9
M  V30 9 1 8 10
M  V30 10 2 9 11
M  V30 11 1 9 12
M  V30 12 1 10 13
M  V30 13 1 10 14
M  V30 14 1 10 15
M  V30 15 1 11 16
M  V30 16 1 16 17
M  V30 17 1 6 7
M  V30 18 2 13 16
M  V30 19 1 3 18
M  V30 20 1 4 19
M  V30 21 1 5 20
M  V30 22 1 6 21
M  V30 23 1 12 22
M  V30 24 1 12 23
M  V30 25 1 14 24
M  V30 26 1 14 25
M  V30 27 1 14 26
M  V30 28 1 15 27
M  V30 29 1 15 28
M  V30 30 1 15 29
M  V30 31 1 17 30
M  V30 32 1 17 31
M  V30 END BOND
M  V30 END CTAB
M  END
>  <Column 1>
3408

>  <level_0>
5643

>  <index>
5644

>  <Unnamed: 0>
5644

>  <NO.>
5656

>  <Name>
cycloguanil

>  <IUPAC_name>
1-(4-chlorophenyl)-6-6-dimethyl-1-3-5-triazine-2-4-diamine

>  <SMILES>
CC1(C)N=C(N)N=C(N)N1c1ccc(Cl)cc1

>  <CID>
9049

>  <logBB>


>  <BBB+/BBB->
BBB-

>  <Inchi>
InChI=1S/C11H14ClN5/c1-11(2)16-9(13)15-10(14)17(11)8-5-3-7(12)4-6-8/h3-6H-1-2H3-(H4-13-14-15-16)

>  <threshold>


>  <reference>
R23|

>  <group>
C

>  <Class>
-1

>  <ABC>
13.23

>  <ABCGG>
11.55

>  <nAcid>
0

>  <nBase>
5

>  <nAromAtom>
6

>  <nAromBond>
6

>  <nAtom>
31

>  <nHeavyAtom>
17

>  <nSpiro>
0

>  <nBridgehead>
0

>  <nHetero>
6

>  <nN>
5

>  <nO>
0

>  <nF>
0

>  <BalabanJ>
2.07

>  <BertzCT>
489.09

>  <nBonds>
32

>  <nBondsO>
18

>  <nBondsS>
24

>  <nBondsD>
2

>  <nBondsT>
0

>  <nBondsA>
6

>  <nBondsM>
8

>  <nBondsKS>
27

>  <nBondsKD>
5

>  <RNCG>
0.22

>  <RPCG>
0.13

>  <FCSP3>
0.27

>  <SZ>
22

>  <Sm>
20.96

>  <Sv>
19.67

>  <Sse>
31.3

>  <Sp>
21.19

>  <Si>
35.51

>  <MZ>
0.71

>  <Mm>
0.68

>  <Mv>
0.63

>  <Mse>
1.01

>  <Mp>
0.68

>  <Mi>
1.15

>  <NsCH3>
2

>  <NdCH2>
0

>  <NssCH2>
0

>  <NtCH>
0

>  <NdsCH>
0

>  <NaaCH>
4

>  <NsssCH>
0

>  <NddC>
0

>  <NtsC>
0

>  <NdssC>
2

>  <NaasC>
2

>  <NaaaC>
0

>  <NssssC>
1

>  <NsNH3>
0

>  <NsNH2>
2

>  <NssNH2>
0

>  <NdNH>
0

>  <NssNH>
0

>  <NaaNH>
0

>  <NtN>
0

>  <NsssNH>
0

>  <NdsN>
2

>  <NaaN>
0

>  <NsssN>
1

>  <NddsN>
0

>  <NaasN>
0

>  <NssssN>
0

>  <NsOH>
0

>  <NdO>
0

>  <NssO>
0

>  <NaaO>
0

>  <NsF>
0

>  <NsSiH3>
0

>  <NssSiH2>
0

>  <NsssSiH>
0

>  <NssssSi>
0

>  <NsPH2>
0

>  <NssPH>
0

>  <NsssP>
0

>  <NdsssP>
0

>  <NsssssP>
0

>  <NsSH>
0

>  <NdS>
0

>  <NssS>
0

>  <NaaS>
0

>  <NdssS>
0

>  <NddssS>
0

>  <NsCl>
1

>  <NsBr>
0

>  <NsI>
0

>  <fragCpx>
52.06

>  <fMF>
0.39

>  <nHBAcc>
5

>  <nHBDon>
2

>  <Kier1>
13.43

>  <Kier2>
4.94

>  <Lipinski>
1

>  <GhoseFilter>
1

>  <FilterItLogS>
-2.69

>  <VMcGowan>
184.77

>  <LabuteASA>
104.78

>  <PEOE_VSA1>
11.47

>  <PEOE_VSA2>
4.9

>  <PEOE_VSA3>
4.99

>  <PEOE_VSA4>
4.99

>  <PEOE_VSA5>
0

>  <PEOE_VSA6>
11.6

>  <PEOE_VSA7>
38.11

>  <PEOE_VSA8>
10.71

>  <PEOE_VSA9>
0

>  <PEOE_VSA10>
5.66

>  <PEOE_VSA11>
0

>  <PEOE_VSA12>
11.92

>  <PEOE_VSA13>
0

>  <SMR_VSA1>
0

>  <SMR_VSA2>
0

>  <SMR_VSA3>
0

>  <SMR_VSA4>
21.45

>  <SMR_VSA5>
19.51

>  <SMR_VSA6>
4.9

>  <SMR_VSA7>
29.29

>  <SMR_VSA8>
0

>  <SMR_VSA9>
0

>  <SlogP_VSA1>
16.37

>  <SlogP_VSA2>
17.58

>  <SlogP_VSA3>
0

>  <SlogP_VSA4>
0

>  <SlogP_VSA5>
13.85

>  <SlogP_VSA6>
34.25

>  <SlogP_VSA7>
5.02

>  <SlogP_VSA8>
0

>  <SlogP_VSA9>
0

>  <SlogP_VSA10>
5.69

>  <SlogP_VSA11>
0

>  <EState_VSA1>
5.66

>  <EState_VSA2>
5.96

>  <EState_VSA3>
10.98

>  <EState_VSA4>
5.69

>  <EState_VSA5>
0

>  <EState_VSA6>
17.03

>  <EState_VSA7>
25.98

>  <EState_VSA8>
9.98

>  <EState_VSA9>
23.07

>  <EState_VSA10>
0

>  <VSA_EState1>
0

>  <VSA_EState2>
10.04

>  <VSA_EState3>
0.67

>  <VSA_EState4>
11.8

>  <VSA_EState5>
0.52

>  <VSA_EState6>
7.32

>  <VSA_EState7>
0

>  <VSA_EState8>
3.83

>  <VSA_EState9>
0

>  <apol>
35.39

>  <bpol>
17.4

>  <nRing>
2

>  <nHRing>
1

>  <naRing>
1

>  <naHRing>
0

>  <nARing 2>
1

>  <nAHRing 2>
1

>  <nFRing>
0

>  <nFHRing>
0

>  <nFaRing>
0

>  <nFaHRing>
0

>  <nFARing 2>
0

>  <nFAHRing 2>
0

>  <nRot>
1

>  <SLogP>
1.53

>  <SMR>
71.25

>  <TopoPSA(NO)>
80

>  <TopoPSA>
80

>  <JGI1>
0.31

>  <JGI2>
0.1

>  <JGI3>
0.09

>  <JGI4>
0.05

>  <JGI5>
0.03

>  <Diameter>
9

>  <Radius>
5

>  <TMWC10>
107.45

>  <TSRW10>
50.24

>  <MW>
251.09

>  <AMW>
8.1

>  <WPath>
484

>  <WPol>
27

>  <Zagreb1>
90

>  <Zagreb2>
105

>  <mZagreb2>
3.6

>  <yes>


>  <nAR-cont>
0.816016

>  <nHA-cont>
0.976740822

>  <MWHBN>
0.44175689

>  <MWHBN-cont>
0.315816666

>  <TPSA-cont>
0.441550323

>  <pka_cont>
0.97

>  <yes.1>


>  <BBB_SCORE>
3.634582467

>  <MMFF94 Energy>
-188.29

$$$$
Compound 2714
Actelion Java MolfileCreator 2.0

  0  0  0  0  0  0              0 V3000
M  V30 BEGIN CTAB
M  V30 COUNTS 55 58 0 0 0
M  V30 BEGIN ATOM
M  V30 1 S -1.297 1.6214 -1.8648 0
M  V30 2 C -0.3699 2.2747 -3.3444 0
M  V30 3 C -0.6584 2.9769 -0.8026 0
M  V30 4 C 0.95 2.7941 -2.7424 0
M  V30 5 C -0.1337 1.1203 -4.3202 0
M  V30 6 C -1.2385 3.3544 -4.0038 0
M  V30 7 N 0.6575 3.2325 -1.3891 0
M  V30 8 C 0.0652 2.6316 0.5233 0
M  V30 9 C 1.6039 3.9108 -3.5415 0
M  V30 10 C 1.3657 2.8416 -0.2987 0
M  V30 11 N -0.1311 1.2773 1.0909 0
M  V30 12 O 1.4495 5.1133 -3.3977 0
M  V30 13 O 2.3841 3.4467 -4.5409 0
M  V30 14 O 2.5475 2.6285 -0.1607 0
M  V30 15 C -1.2184 0.9656 1.8713 0
M  V30 16 O -2.1376 1.775 2.0193 0
M  V30 17 C -1.2816 -0.4726 2.4608 0
M  V30 18 N -0.0252 -1.135 2.8094 0
M  V30 19 C -2.2222 -1.4084 1.7179 0
M  V30 20 C 0.9618 -1.5119 1.9501 0
M  V30 21 C -3.1721 -2.1574 2.4344 0
M  V30 22 C -2.1487 -1.5839 0.3286 0
M  V30 23 O 0.9938 -1.1359 0.779 0
M  V30 24 N 1.9525 -2.3015 2.4976 0
M  V30 25 C -4.0352 -3.0363 1.7766 0
M  V30 26 C -3.0131 -2.4621 -0.3284 0
M  V30 27 C 2.0465 -2.8052 3.8026 0
M  V30 28 C 3.0721 -2.7595 1.7041 0
M  V30 29 C -3.9573 -3.1862 0.3947 0
M  V30 30 O 1.2532 -2.6398 4.7161 0
M  V30 31 N 3.2151 -3.538 3.901 0
M  V30 32 C 3.9723 -3.4957 2.6837 0
M  V30 33 H -1.2872 3.8718 -0.7706 0
M  V30 34 H 1.6873 1.9834 -2.6568 0
M  V30 35 H 0.4409 0.3079 -3.8605 0
M  V30 36 H 0.4286 1.4621 -5.1963 0
M  V30 37 H -1.0782 0.6991 -4.6841 0
M  V30 38 H -1.4118 4.2105 -3.3422 0
M  V30 39 H -0.7637 3.7367 -4.9147 0
M  V30 40 H -2.2164 2.9569 -4.3007 0
M  V30 41 H -0.0445 3.4013 1.2983 0
M  V30 42 H 0.5025 0.5177 0.8372 0
M  V30 43 H 2.7511 4.2594 -4.951 0
M  V30 44 H -1.7341 -0.2901 3.4477 0
M  V30 45 H 0.0329 -1.5238 3.7473 0
M  V30 46 H -3.2495 -2.0595 3.5155 0
M  V30 47 H -1.4128 -1.0427 -0.2606 0
M  V30 48 H -4.7688 -3.603 2.3441 0
M  V30 49 H -2.9457 -2.5785 -1.4069 0
M  V30 50 H 3.5734 -1.9115 1.2259 0
M  V30 51 H 2.6966 -3.4227 0.9169 0
M  V30 52 H -4.63 -3.8677 -0.1184 0
M  V30 53 H 3.4871 -3.9806 4.7697 0
M  V30 54 H 4.2067 -4.513 2.3592 0
M  V30 55 H 4.9023 -2.9516 2.873 0
M  V30 END ATOM
M  V30 BEGIN BOND
M  V30 1 1 1 2
M  V30 2 1 1 3
M  V30 3 1 2 4
M  V30 4 1 2 5
M  V30 5 1 2 6
M  V30 6 1 3 7
M  V30 7 1 3 8
M  V30 8 1 4 9
M  V30 9 1 7 10
M  V30 10 1 8 11
M  V30 11 2 9 12
M  V30 12 1 9 13
M  V30 13 2 10 14
M  V30 14 1 11 15
M  V30 15 2 15 16
M  V30 16 1 15 17
M  V30 17 1 17 18
M  V30 18 1 17 19
M  V30 19 1 18 20
M  V30 20 2 19 21
M  V30 21 1 19 22
M  V30 22 2 20 23
M  V30 23 1 20 24
M  V30 24 1 21 25
M  V30 25 2 22 26
M  V30 26 1 24 27
M  V30 27 1 24 28
M  V30 28 2 25 29
M  V30 29 2 27 30
M  V30 30 1 27 31
M  V30 31 1 28 32
M  V30 32 1 4 7
M  V30 33 1 8 10
M  V30 34 1 26 29
M  V30 35 1 31 32
M  V30 36 1 3 33
M  V30 37 1 4 34
M  V30 38 1 5 35
M  V30 39 1 5 36
M  V30 40 1 5 37
M  V30 41 1 6 38
M  V30 42 1 6 39
M  V30 43 1 6 40
M  V30 44 1 8 41
M  V30 45 1 11 42
M  V30 46 1 13 43
M  V30 47 1 17 44
M  V30 48 1 18 45
M  V30 49 1 21 46
M  V30 50 1 22 47
M  V30 51 1 25 48
M  V30 52 1 26 49
M  V30 53 1 28 50
M  V30 54 1 28 51
M  V30 55 1 29 52
M  V30 56 1 31 53
M  V30 57 1 32 54
M  V30 58 1 32 55
M  V30 END BOND
M  V30 END CTAB
M  END
>  <Column 1>
3409

>  <level_0>
5644

>  <index>
5645

>  <Unnamed: 0>
5645

>  <NO.>
5657

>  <Name>
mls006011456

>  <IUPAC_name>
3-3-dimethyl-7-oxo-6-[[2-[(2-oxoimidazolidine-1-carbonyl)amino]-2-phenylacetyl]amino]-4-thia-1-azabicyclo[3.2.0]heptane-2-carboxylic acid

>  <SMILES>
CC1(C)SC2C(NC(=O)C(NC(=O)N3CCNC3=O)c3ccccc3)C(=O)N2C1C(=O)O

>  <CID>
2271

>  <logBB>


>  <BBB+/BBB->
BBB-

>  <Inchi>
InChI=1S/C20H23N5O6S/c1-20(2)13(17(28)29)25-15(27)12(16(25)32-20)22-14(26)11(10-6-4-3-5-7-10)23-19(31)24-9-8-21-18(24)30/h3-7-11-13-16H-8-9H2-1-2H3-(H-21-30)(H-22-26)(H-23-31)(H-28-29)

>  <threshold>


>  <reference>
R23|

>  <group>
C

>  <Class>
-1

>  <ABC>
25.26

>  <ABCGG>
21.58

>  <nAcid>
1

>  <nBase>
0

>  <nAromAtom>
6

>  <nAromBond>
6

>  <nAtom>
55

>  <nHeavyAtom>
32

>  <nSpiro>
0

>  <nBridgehead>
0

>  <nHetero>
12

>  <nN>
5

>  <nO>
6

>  <nF>
0

>  <BalabanJ>
1.44

>  <BertzCT>
985.95

>  <nBonds>
58

>  <nBondsO>
35

>  <nBondsS>
47

>  <nBondsD>
5

>  <nBondsT>
0

>  <nBondsA>
6

>  <nBondsM>
11

>  <nBondsKS>
50

>  <nBondsKD>
8

>  <RNCG>
0.12

>  <RPCG>
0.08

>  <FCSP3>
0.45

>  <SZ>
40.33

>  <Sm>
38.42

>  <Sv>
35.5

>  <Sse>
56.59

>  <Sp>
37.09

>  <Si>
62.41

>  <MZ>
0.73

>  <Mm>
0.7

>  <Mv>
0.65

>  <Mse>
1.03

>  <Mp>
0.67

>  <Mi>
1.13

>  <NsCH3>
2

>  <NdCH2>
0

>  <NssCH2>
2

>  <NtCH>
0

>  <NdsCH>
0

>  <NaaCH>
5

>  <NsssCH>
4

>  <NddC>
0

>  <NtsC>
0

>  <NdssC>
5

>  <NaasC>
1

>  <NaaaC>
0

>  <NssssC>
1

>  <NsNH3>
0

>  <NsNH2>
0

>  <NssNH2>
0

>  <NdNH>
0

>  <NssNH>
3

>  <NaaNH>
0

>  <NtN>
0

>  <NsssNH>
0

>  <NdsN>
0

>  <NaaN>
0

>  <NsssN>
2

>  <NddsN>
0

>  <NaasN>
0

>  <NssssN>
0

>  <NsOH>
1

>  <NdO>
5

>  <NssO>
0

>  <NaaO>
0

>  <NsF>
0

>  <NsSiH3>
0

>  <NssSiH2>
0

>  <NsssSiH>
0

>  <NssssSi>
0

>  <NsPH2>
0

>  <NssPH>
0

>  <NsssP>
0

>  <NdsssP>
0

>  <NsssssP>
0

>  <NsSH>
0

>  <NdS>
0

>  <NssS>
1

>  <NaaS>
0

>  <NdssS>
0

>  <NddssS>
0

>  <NsCl>
0

>  <NsBr>
0

>  <NsI>
0

>  <fragCpx>
233.12

>  <fMF>
0.42

>  <nHBAcc>
6

>  <nHBDon>
4

>  <Kier1>
25.1

>  <Kier2>
9.93

>  <Lipinski>
1

>  <GhoseFilter>
1

>  <FilterItLogS>
-1.82

>  <VMcGowan>
316.29

>  <LabuteASA>
187.42

>  <PEOE_VSA1>
25.96

>  <PEOE_VSA2>
9.59

>  <PEOE_VSA3>
19.28

>  <PEOE_VSA4>
0

>  <PEOE_VSA5>
11.76

>  <PEOE_VSA6>
30.33

>  <PEOE_VSA7>
19.41

>  <PEOE_VSA8>
17.84

>  <PEOE_VSA9>
0

>  <PEOE_VSA10>
23.5

>  <PEOE_VSA11>
0

>  <PEOE_VSA12>
11.81

>  <PEOE_VSA13>
0

>  <SMR_VSA1>
29.08

>  <SMR_VSA2>
0

>  <SMR_VSA3>
25.75

>  <SMR_VSA4>
0

>  <SMR_VSA5>
42.09

>  <SMR_VSA6>
13.09

>  <SMR_VSA7>
35.9

>  <SMR_VSA8>
0

>  <SMR_VSA9>
0

>  <SlogP_VSA1>
15.95

>  <SlogP_VSA2>
80.05

>  <SlogP_VSA3>
14.38

>  <SlogP_VSA4>
0

>  <SlogP_VSA5>
25.45

>  <SlogP_VSA6>
30.33

>  <SlogP_VSA7>
0

>  <SlogP_VSA8>
0

>  <SlogP_VSA9>
0

>  <SlogP_VSA10>
9.59

>  <SlogP_VSA11>
0

>  <EState_VSA1>
58.09

>  <EState_VSA2>
6.54

>  <EState_VSA3>
12.11

>  <EState_VSA4>
4.9

>  <EState_VSA5>
16.66

>  <EState_VSA6>
44.18

>  <EState_VSA7>
0

>  <EState_VSA8>
15.95

>  <EState_VSA9>
0

>  <EState_VSA10>
29.08

>  <VSA_EState1>
-0.72

>  <VSA_EState2>
64.16

>  <VSA_EState3>
16.77

>  <VSA_EState4>
0.48

>  <VSA_EState5>
-2.2

>  <VSA_EState6>
4.14

>  <VSA_EState7>
0

>  <VSA_EState8>
3.98

>  <VSA_EState9>
0

>  <apol>
61.95

>  <bpol>
35

>  <nRing>
4

>  <nHRing>
3

>  <naRing>
1

>  <naHRing>
0

>  <nARing 2>
3

>  <nAHRing 2>
3

>  <nFRing>
1

>  <nFHRing>
1

>  <nFaRing>
0

>  <nFaHRing>
0

>  <nFARing 2>
1

>  <nFAHRing 2>
1

>  <nRot>
5

>  <SLogP>
0.09

>  <SMR>
113.48

>  <TopoPSA(NO)>
148.15

>  <TopoPSA>
173.45

>  <JGI1>
0.21

>  <JGI2>
0.1

>  <JGI3>
0.08

>  <JGI4>
0.05

>  <JGI5>
0.03

>  <Diameter>
13

>  <Radius>
7

>  <TMWC10>
146.66

>  <TSRW10>
85.23

>  <MW>
461.14

>  <AMW>
8.38

>  <WPath>
2922

>  <WPol>
52

>  <Zagreb1>
176

>  <Zagreb2>
214

>  <mZagreb2>
6.82

>  <yes>


>  <nAR-cont>
0.691115

>  <nHA-cont>
0.658856097

>  <MWHBN>
0.465675728

>  <MWHBN-cont>
0

>  <TPSA-cont>
0

>  <pka_cont>
0.97

>  <yes.1>


>  <BBB_SCORE>
1.834971097

>  <MMFF94 Energy>
-43.662

$$$$
Compound 2715
Actelion Java MolfileCreator 2.0

  0  0  0  0  0  0              0 V3000
M  V30 BEGIN CTAB
M  V30 COUNTS 48 51 0 0 0
M  V30 BEGIN ATOM
M  V30 1 O -5.6601 -2.6653 -1.4531 0
M  V30 2 C -4.5933 -2.2234 -1.0323 0
M  V30 3 C -3.8629 -1.2077 -1.8252 0
M  V30 4 C -4.0298 -2.6198 0.3082 0
M  V30 5 C -2.6792 -0.7259 -1.4133 0
M  V30 6 C -2.5096 -2.5544 0.2899 0
M  V30 7 C -2.0111 -1.2133 -0.2064 0
M  V30 8 C -1.9676 0.3527 -2.188 0
M  V30 9 C -1.0051 -0.5148 0.3688 0
M  V30 10 C -1.4582 1.4241 -1.2337 0
M  V30 11 C -0.5301 0.8379 -0.1542 0
M  V30 12 C -0.204 -1.0486 1.5395 0
M  V30 13 C 0.9312 0.668 -0.6313 0
M  V30 14 C 1.1119 -0.2904 1.764 0
M  V30 15 C 1.8744 0.0296 0.4539 0
M  V30 16 C 1.6017 1.9721 -1.0796 0
M  V30 17 C 3.0617 1.0551 0.6299 0
M  V30 18 C 2.3999 -1.3162 -0.1256 0
M  V30 19 C 3.0651 1.8186 -0.7042 0
M  V30 20 O 4.3045 0.3341 0.7339 0
M  V30 21 C 3.0497 1.9873 1.8647 0
M  V30 22 C 1.9528 2.9548 1.9423 0
M  V30 23 N 1.0911 3.7281 2.0179 0
M  V30 24 H -4.3582 -0.8653 -2.726 0
M  V30 25 H -4.3471 -3.6435 0.5341 0
M  V30 26 H -4.4469 -1.9504 1.069 0
M  V30 27 H -2.1481 -2.7834 1.2975 0
M  V30 28 H -2.1161 -3.3363 -0.3732 0
M  V30 29 H -1.1346 -0.0874 -2.7493 0
M  V30 30 H -2.6354 0.8173 -2.9235 0
M  V30 31 H -0.9639 2.222 -1.7975 0
M  V30 32 H -2.3196 1.8941 -0.7383 0
M  V30 33 H -0.5491 1.5533 0.6785 0
M  V30 34 H -0.806 -0.9809 2.4537 0
M  V30 35 H 0.0317 -2.1074 1.3806 0
M  V30 36 H 0.9176 0.0118 -1.5138 0
M  V30 37 H 1.7506 -0.863 2.4482 0
M  V30 38 H 0.8532 0.6271 2.3002 0
M  V30 39 H 1.4913 2.1275 -2.1584 0
M  V30 40 H 1.1587 2.844 -0.5918 0
M  V30 41 H 3.0011 -1.1565 -1.0278 0
M  V30 42 H 1.5797 -1.9864 -0.4048 0
M  V30 43 H 3.0204 -1.8487 0.6037 0
M  V30 44 H 3.5901 1.2422 -1.4766 0
M  V30 45 H 3.575 2.7857 -0.6385 0
M  V30 46 H 5.0295 0.9113 0.4353 0
M  V30 47 H 3.9958 2.5462 1.8865 0
M  V30 48 H 3.0759 1.3815 2.7794 0
M  V30 END ATOM
M  V30 BEGIN BOND
M  V30 1 2 1 2
M  V30 2 1 2 3
M  V30 3 1 2 4
M  V30 4 2 3 5
M  V30 5 1 4 6
M  V30 6 1 5 7
M  V30 7 1 5 8
M  V30 8 2 7 9
M  V30 9 1 8 10
M  V30 10 1 9 11
M  V30 11 1 9 12
M  V30 12 1 11 13
M  V30 13 1 12 14
M  V30 14 1 13 15
M  V30 15 1 13 16
M  V30 16 1 15 17
M  V30 17 1 15 18
M  V30 18 1 16 19
M  V30 19 1 17 20
M  V30 20 1 17 21
M  V30 21 1 21 22
M  V30 22 3 22 23
M  V30 23 1 6 7
M  V30 24 1 10 11
M  V30 25 1 14 15
M  V30 26 1 17 19
M  V30 27 1 3 24
M  V30 28 1 4 25
M  V30 29 1 4 26
M  V30 30 1 6 27
M  V30 31 1 6 28
M  V30 32 1 8 29
M  V30 33 1 8 30
M  V30 34 1 10 31
M  V30 35 1 10 32
M  V30 36 1 11 33
M  V30 37 1 12 34
M  V30 38 1 12 35
M  V30 39 1 13 36
M  V30 40 1 14 37
M  V30 41 1 14 38
M  V30 42 1 16 39
M  V30 43 1 16 40
M  V30 44 1 18 41
M  V30 45 1 18 42
M  V30 46 1 18 43
M  V30 47 1 19 44
M  V30 48 1 19 45
M  V30 49 1 20 46
M  V30 50 1 21 47
M  V30 51 1 21 48
M  V30 END BOND
M  V30 END CTAB
M  END
>  <Column 1>
3410

>  <level_0>
5645

>  <index>
5646

>  <Unnamed: 0>
5646

>  <NO.>
5658

>  <Name>
dienogest

>  <IUPAC_name>
2-(17-hydroxy-13-methyl-3-oxo-1-2-6-7-8-11-12-14-15-16-decahydrocyclopenta[a]phenanthren-17-yl)acetonitrile

>  <SMILES>
CC12CCC3=C4CCC(=O)C=C4CCC3C1CCC2(O)CC#N

>  <CID>
13175121

>  <logBB>


>  <BBB+/BBB->
BBB-

>  <Inchi>
InChI=1S/C20H25NO2/c1-19-8-6-16-15-5-3-14(22)12-13(15)2-4-17(16)18(19)7-9-20(19-23)10-11-21/h12-17-18-23H-2-10H2-1H3

>  <threshold>


>  <reference>
R23|

>  <group>
C

>  <Class>
-1

>  <ABC>
18.49

>  <ABCGG>
14.68

>  <nAcid>
0

>  <nBase>
0

>  <nAromAtom>
0

>  <nAromBond>
0

>  <nAtom>
48

>  <nHeavyAtom>
23

>  <nSpiro>
0

>  <nBridgehead>
0

>  <nHetero>
3

>  <nN>
1

>  <nO>
2

>  <nF>
0

>  <BalabanJ>
1.56

>  <BertzCT>
667.62

>  <nBonds>
51

>  <nBondsO>
26

>  <nBondsS>
47

>  <nBondsD>
3

>  <nBondsT>
1

>  <nBondsA>
0

>  <nBondsM>
4

>  <nBondsKS>
47

>  <nBondsKD>
3

>  <RNCG>
0.28

>  <RPCG>
0.15

>  <FCSP3>
0.7

>  <SZ>
28

>  <Sm>
25.93

>  <Sv>
28.96

>  <Sse>
47.42

>  <Sp>
31.6

>  <Si>
53.9

>  <MZ>
0.58

>  <Mm>
0.54

>  <Mv>
0.6

>  <Mse>
0.99

>  <Mp>
0.66

>  <Mi>
1.12

>  <NsCH3>
1

>  <NdCH2>
0

>  <NssCH2>
9

>  <NtCH>
0

>  <NdsCH>
1

>  <NaaCH>
0

>  <NsssCH>
2

>  <NddC>
0

>  <NtsC>
1

>  <NdssC>
4

>  <NaasC>
0

>  <NaaaC>
0

>  <NssssC>
2

>  <NsNH3>
0

>  <NsNH2>
0

>  <NssNH2>
0

>  <NdNH>
0

>  <NssNH>
0

>  <NaaNH>
0

>  <NtN>
1

>  <NsssNH>
0

>  <NdsN>
0

>  <NaaN>
0

>  <NsssN>
0

>  <NddsN>
0

>  <NaasN>
0

>  <NssssN>
0

>  <NsOH>
1

>  <NdO>
1

>  <NssO>
0

>  <NaaO>
0

>  <NsF>
0

>  <NsSiH3>
0

>  <NssSiH2>
0

>  <NsssSiH>
0

>  <NssssSi>
0

>  <NsPH2>
0

>  <NssPH>
0

>  <NsssP>
0

>  <NdsssP>
0

>  <NsssssP>
0

>  <NsSH>
0

>  <NdS>
0

>  <NssS>
0

>  <NaaS>
0

>  <NdssS>
0

>  <NddssS>
0

>  <NsCl>
0

>  <NsBr>
0

>  <NsI>
0

>  <fragCpx>
170.03

>  <fMF>
0.35

>  <nHBAcc>
3

>  <nHBDon>
1

>  <Kier1>
16.47

>  <Kier2>
5.77

>  <Lipinski>
1

>  <GhoseFilter>
1

>  <FilterItLogS>
-4.01

>  <VMcGowan>
249.44

>  <LabuteASA>
137.62

>  <PEOE_VSA1>
5.11

>  <PEOE_VSA2>
4.79

>  <PEOE_VSA3>
0

>  <PEOE_VSA4>
5.26

>  <PEOE_VSA5>
0

>  <PEOE_VSA6>
12.5

>  <PEOE_VSA7>
74

>  <PEOE_VSA8>
11.84

>  <PEOE_VSA9>
18.09

>  <PEOE_VSA10>
0

>  <PEOE_VSA11>
5.78

>  <PEOE_VSA12>
0

>  <PEOE_VSA13>
0

>  <SMR_VSA1>
9.9

>  <SMR_VSA2>
5.26

>  <SMR_VSA3>
0

>  <SMR_VSA4>
17.25

>  <SMR_VSA5>
70.31

>  <SMR_VSA6>
0

>  <SMR_VSA7>
22.8

>  <SMR_VSA8>
0

>  <SMR_VSA9>
6.07

>  <SlogP_VSA1>
0

>  <SlogP_VSA2>
16.49

>  <SlogP_VSA3>
4.79

>  <SlogP_VSA4>
28.58

>  <SlogP_VSA5>
64.71

>  <SlogP_VSA6>
22.8

>  <SlogP_VSA7>
0

>  <SlogP_VSA8>
0

>  <SlogP_VSA9>
0

>  <SlogP_VSA10>
0

>  <SlogP_VSA11>
0

>  <EState_VSA1>
5.6

>  <EState_VSA2>
17.62

>  <EState_VSA3>
18.26

>  <EState_VSA4>
44.95

>  <EState_VSA5>
11.15

>  <EState_VSA6>
5.57

>  <EState_VSA7>
6.08

>  <EState_VSA8>
12.99

>  <EState_VSA9>
5.26

>  <EState_VSA10>
9.9

>  <VSA_EState1>
0

>  <VSA_EState2>
11.71

>  <VSA_EState3>
20.26

>  <VSA_EState4>
3.42

>  <VSA_EState5>
1.34

>  <VSA_EState6>
2.22

>  <VSA_EState7>
9.67

>  <VSA_EState8>
2.22

>  <VSA_EState9>
0

>  <apol>
52.77

>  <bpol>
26.52

>  <nRing>
4

>  <nHRing>
0

>  <naRing>
0

>  <naHRing>
0

>  <nARing 2>
4

>  <nAHRing 2>
0

>  <nFRing>
1

>  <nFHRing>
0

>  <nFaRing>
0

>  <nFaHRing>
0

>  <nFARing 2>
1

>  <nFAHRing 2>
0

>  <nRot>
1

>  <SLogP>
3.84

>  <SMR>
87.32

>  <TopoPSA(NO)>
61.09

>  <TopoPSA>
61.09

>  <JGI1>
0.23

>  <JGI2>
0.12

>  <JGI3>
0.06

>  <JGI4>
0.05

>  <JGI5>
0.03

>  <Diameter>
12

>  <Radius>
6

>  <TMWC10>
127.17

>  <TSRW10>
73.26

>  <MW>
311.19

>  <AMW>
6.48

>  <WPath>
1082

>  <WPol>
47

>  <Zagreb1>
134

>  <Zagreb2>
169

>  <mZagreb2>
4.88

>  <yes>


>  <nAR-cont>
0.199399

>  <nHA-cont>
0.967789328

>  <MWHBN>
0.226749937

>  <MWHBN-cont>
0.98983969

>  <TPSA-cont>
0.573553865

>  <pka_cont>
0.97

>  <yes.1>


>  <BBB_SCORE>
4.284055593

>  <MMFF94 Energy>
63.744

$$$$
Compound 2716
Actelion Java MolfileCreator 2.0

  0  0  0  0  0  0              0 V3000
M  V30 BEGIN CTAB
M  V30 COUNTS 51 55 0 0 0
M  V30 BEGIN ATOM
M  V30 1 O 1.2171 -3.2483 4.794 0
M  V30 2 C 1.068 -2.4933 3.8377 0
M  V30 3 C 1.3692 -1.0104 3.9058 0
M  V30 4 C 0.4354 -3.0262 2.6096 0
M  V30 5 C 2.673 -0.7998 4.5545 0
M  V30 6 C 1.3472 -0.2901 2.548 0
M  V30 7 O 1.1912 -2.7974 1.4049 0
M  V30 8 C -0.0541 -2.0995 1.5154 0
M  V30 9 N 3.7013 -0.5789 5.0456 0
M  V30 10 C 0.0841 -0.5888 1.6849 0
M  V30 11 C -1.0922 -2.5883 0.5467 0
M  V30 12 C 0.2557 0.0556 0.2534 0
M  V30 13 C -1.165 -0.0469 2.4176 0
M  V30 14 C -0.8693 -1.9676 -0.8269 0
M  V30 15 C -0.8259 -0.4315 -0.7536 0
M  V30 16 C 0.304 1.5962 0.2716 0
M  V30 17 C -0.6693 0.1875 -2.1598 0
M  V30 18 C 0.5374 2.1811 -1.1217 0
M  V30 19 C -0.5139 1.7229 -2.1572 0
M  V30 20 C 0.5394 -0.3067 -2.9754 0
M  V30 21 C -0.0525 1.9769 -3.6086 0
M  V30 22 C -1.8525 2.4326 -1.8949 0
M  V30 23 C 0.9107 0.8343 -3.924 0
M  V30 24 O 0.5846 3.2285 -3.7839 0
M  V30 25 H 0.5918 -0.5734 4.5451 0
M  V30 26 H -0.037 -3.9959 2.716 0
M  V30 27 H 2.2485 -0.561 1.9791 0
M  V30 28 H 1.43 0.7883 2.7341 0
M  V30 29 H -2.0925 -2.3367 0.9171 0
M  V30 30 H -1.0603 -3.6808 0.4551 0
M  V30 31 H 1.2272 -0.291 -0.1268 0
M  V30 32 H -1.0327 0.9969 2.7207 0
M  V30 33 H -2.065 -0.1006 1.7984 0
M  V30 34 H -1.3828 -0.6262 3.3218 0
M  V30 35 H 0.0712 -2.3521 -1.2392 0
M  V30 36 H -1.6708 -2.2886 -1.5026 0
M  V30 37 H -1.8044 -0.1 -0.3819 0
M  V30 38 H 1.1158 1.9448 0.9181 0
M  V30 39 H -0.6228 2.0064 0.6855 0
M  V30 40 H -1.5695 -0.0732 -2.7371 0
M  V30 41 H 0.5451 3.2762 -1.0514 0
M  V30 42 H 1.5465 1.8953 -1.4438 0
M  V30 43 H 0.2906 -1.2162 -3.5329 0
M  V30 44 H 1.3998 -0.5435 -2.3415 0
M  V30 45 H -0.9 1.9259 -4.304 0
M  V30 46 H -2.2605 2.1911 -0.9089 0
M  V30 47 H -2.6065 2.1424 -2.6353 0
M  V30 48 H -1.7391 3.5208 -1.9507 0
M  V30 49 H 0.8138 0.5262 -4.9709 0
M  V30 50 H 1.9562 1.1316 -3.7815 0
M  V30 51 H -0.0668 3.9222 -3.5857 0
M  V30 END ATOM
M  V30 BEGIN BOND
M  V30 1 2 1 2
M  V30 2 1 2 3
M  V30 3 1 2 4
M  V30 4 1 3 5
M  V30 5 1 3 6
M  V30 6 1 4 7
M  V30 7 1 4 8
M  V30 8 3 5 9
M  V30 9 1 6 10
M  V30 10 1 8 11
M  V30 11 1 10 12
M  V30 12 1 10 13
M  V30 13 1 11 14
M  V30 14 1 12 15
M  V30 15 1 12 16
M  V30 16 1 15 17
M  V30 17 1 16 18
M  V30 18 1 17 19
M  V30 19 1 17 20
M  V30 20 1 19 21
M  V30 21 1 19 22
M  V30 22 1 20 23
M  V30 23 1 21 24
M  V30 24 1 7 8
M  V30 25 1 8 10
M  V30 26 1 14 15
M  V30 27 1 18 19
M  V30 28 1 21 23
M  V30 29 1 3 25
M  V30 30 1 4 26
M  V30 31 1 6 27
M  V30 32 1 6 28
M  V30 33 1 11 29
M  V30 34 1 11 30
M  V30 35 1 12 31
M  V30 36 1 13 32
M  V30 37 1 13 33
M  V30 38 1 13 34
M  V30 39 1 14 35
M  V30 40 1 14 36
M  V30 41 1 15 37
M  V30 42 1 16 38
M  V30 43 1 16 39
M  V30 44 1 17 40
M  V30 45 1 18 41
M  V30 46 1 18 42
M  V30 47 1 20 43
M  V30 48 1 20 44
M  V30 49 1 21 45
M  V30 50 1 22 46
M  V30 51 1 22 47
M  V30 52 1 22 48
M  V30 53 1 23 49
M  V30 54 1 23 50
M  V30 55 1 24 51
M  V30 END BOND
M  V30 END CTAB
M  END
>  <Column 1>
3411

>  <level_0>
5646

>  <index>
5647

>  <Unnamed: 0>
5647

>  <NO.>
5659

>  <Name>
trilostane [usan:ban:inn:jan]

>  <IUPAC_name>
15-hydroxy-2-16-dimethyl-5-oxo-7-oxapentacyclo[9.7.0.02-8.06-8.012-16]octadecane-4-carbonitrile

>  <SMILES>
CC12CCC3C(CCC45OC4C(=O)C(C#N)CC35C)C1CCC2O

>  <CID>
26163

>  <logBB>


>  <BBB+/BBB->
BBB-

>  <Inchi>
InChI=1S/C20H27NO3/c1-18-7-6-14-12(13(18)3-4-15(18)22)5-8-20-17(24-20)16(23)11(10-21)9-19(14-20)2/h11-15-17-22H-3-9H2-1-2H3

>  <threshold>


>  <reference>
R23|

>  <group>
C

>  <Class>
-1

>  <ABC>
19.83

>  <ABCGG>
16.89

>  <nAcid>
0

>  <nBase>
0

>  <nAromAtom>
0

>  <nAromBond>
0

>  <nAtom>
51

>  <nHeavyAtom>
24

>  <nSpiro>
1

>  <nBridgehead>
0

>  <nHetero>
4

>  <nN>
1

>  <nO>
3

>  <nF>
0

>  <BalabanJ>
1.5

>  <BertzCT>
655.76

>  <nBonds>
55

>  <nBondsO>
28

>  <nBondsS>
53

>  <nBondsD>
1

>  <nBondsT>
1

>  <nBondsA>
0

>  <nBondsM>
2

>  <nBondsKS>
53

>  <nBondsKD>
1

>  <RNCG>
0.23

>  <RPCG>
0.12

>  <FCSP3>
0.9

>  <SZ>
29.67

>  <Sm>
27.43

>  <Sv>
30.22

>  <Sse>
50.64

>  <Sp>
32.88

>  <Si>
57.53

>  <MZ>
0.58

>  <Mm>
0.54

>  <Mv>
0.59

>  <Mse>
0.99

>  <Mp>
0.64

>  <Mi>
1.13

>  <NsCH3>
2

>  <NdCH2>
0

>  <NssCH2>
7

>  <NtCH>
0

>  <NdsCH>
0

>  <NaaCH>
0

>  <NsssCH>
6

>  <NddC>
0

>  <NtsC>
1

>  <NdssC>
1

>  <NaasC>
0

>  <NaaaC>
0

>  <NssssC>
3

>  <NsNH3>
0

>  <NsNH2>
0

>  <NssNH2>
0

>  <NdNH>
0

>  <NssNH>
0

>  <NaaNH>
0

>  <NtN>
1

>  <NsssNH>
0

>  <NdsN>
0

>  <NaaN>
0

>  <NsssN>
0

>  <NddsN>
0

>  <NaasN>
0

>  <NssssN>
0

>  <NsOH>
1

>  <NdO>
1

>  <NssO>
1

>  <NaaO>
0

>  <NsF>
0

>  <NsSiH3>
0

>  <NssSiH2>
0

>  <NsssSiH>
0

>  <NssssSi>
0

>  <NsPH2>
0

>  <NssPH>
0

>  <NsssP>
0

>  <NdsssP>
0

>  <NsssssP>
0

>  <NsSH>
0

>  <NdS>
0

>  <NssS>
0

>  <NaaS>
0

>  <NdssS>
0

>  <NddssS>
0

>  <NsCl>
0

>  <NsBr>
0

>  <NsI>
0

>  <fragCpx>
232.04

>  <fMF>
0.35

>  <nHBAcc>
4

>  <nHBDon>
1

>  <Kier1>
16.19

>  <Kier2>
4.83

>  <Lipinski>
1

>  <GhoseFilter>
1

>  <FilterItLogS>
-3.06

>  <VMcGowan>
253.05

>  <LabuteASA>
143.11

>  <PEOE_VSA1>
9.84

>  <PEOE_VSA2>
4.79

>  <PEOE_VSA3>
0

>  <PEOE_VSA4>
5.26

>  <PEOE_VSA5>
0

>  <PEOE_VSA6>
13.85

>  <PEOE_VSA7>
68.11

>  <PEOE_VSA8>
5.41

>  <PEOE_VSA9>
12.17

>  <PEOE_VSA10>
17.62

>  <PEOE_VSA11>
5.78

>  <PEOE_VSA12>
0

>  <PEOE_VSA13>
0

>  <SMR_VSA1>
14.64

>  <SMR_VSA2>
5.26

>  <SMR_VSA3>
0

>  <SMR_VSA4>
34.5

>  <SMR_VSA5>
76.6

>  <SMR_VSA6>
0

>  <SMR_VSA7>
0

>  <SMR_VSA8>
0

>  <SMR_VSA9>
6.07

>  <SlogP_VSA1>
0

>  <SlogP_VSA2>
28.7

>  <SlogP_VSA3>
9.53

>  <SlogP_VSA4>
45.83

>  <SlogP_VSA5>
58.79

>  <SlogP_VSA6>
0

>  <SlogP_VSA7>
0

>  <SlogP_VSA8>
0

>  <SlogP_VSA9>
0

>  <SlogP_VSA10>
0

>  <SlogP_VSA11>
0

>  <EState_VSA1>
5.92

>  <EState_VSA2>
34.42

>  <EState_VSA3>
24.17

>  <EState_VSA4>
38.52

>  <EState_VSA5>
0

>  <EState_VSA6>
0

>  <EState_VSA7>
0

>  <EState_VSA8>
19.92

>  <EState_VSA9>
4.74

>  <EState_VSA10>
15.16

>  <VSA_EState1>
6.07

>  <VSA_EState2>
12.45

>  <VSA_EState3>
19.99

>  <VSA_EState4>
-0.25

>  <VSA_EState5>
1.29

>  <VSA_EState6>
2.25

>  <VSA_EState7>
6.53

>  <VSA_EState8>
4.59

>  <VSA_EState9>
0

>  <apol>
54.91

>  <bpol>
30.26

>  <nRing>
5

>  <nHRing>
1

>  <naRing>
0

>  <naHRing>
0

>  <nARing 2>
5

>  <nAHRing 2>
1

>  <nFRing>
1

>  <nFHRing>
1

>  <nFaRing>
0

>  <nFaHRing>
0

>  <nFARing 2>
1

>  <nFAHRing 2>
1

>  <nRot>
0

>  <SLogP>
2.84

>  <SMR>
86.72

>  <TopoPSA(NO)>
73.62

>  <TopoPSA>
73.62

>  <JGI1>
0.27

>  <JGI2>
0.15

>  <JGI3>
0.08

>  <JGI4>
0.06

>  <JGI5>
0.04

>  <Diameter>
10

>  <Radius>
5

>  <TMWC10>
133.06

>  <TSRW10>
82.08

>  <MW>
329.2

>  <AMW>
6.45

>  <WPath>
1130

>  <WPol>
55

>  <Zagreb1>
152

>  <Zagreb2>
202

>  <mZagreb2>
4.92

>  <yes>


>  <nAR-cont>
0

>  <nHA-cont>
0.94700071

>  <MWHBN>
0.275575174

>  <MWHBN-cont>
0.907036298

>  <TPSA-cont>
0.486086685

>  <pka_cont>
0.97

>  <yes.1>


>  <BBB_SCORE>
3.764728526

>  <MMFF94 Energy>
74.053

$$$$
Compound 2717
Actelion Java MolfileCreator 2.0

  0  0  0  0  0  0              0 V3000
M  V30 BEGIN CTAB
M  V30 COUNTS 45 48 0 0 0
M  V30 BEGIN ATOM
M  V30 1 O 2.729 1.5243 -5.4637 0
M  V30 2 C 2.1441 1.4187 -4.2372 0
M  V30 3 C 2.5162 0.3545 -3.4291 0
M  V30 4 C 1.2133 2.3455 -3.7949 0
M  V30 5 C 1.9515 0.1985 -2.1514 0
M  V30 6 C 0.6373 2.1914 -2.5305 0
M  V30 7 C 0.9678 1.1038 -1.7 0
M  V30 8 C 2.4039 -0.9734 -1.3186 0
M  V30 9 C 0.3544 0.9636 -0.3073 0
M  V30 10 C 2.032 -0.839 0.1537 0
M  V30 11 C 0.5496 -0.4562 0.2826 0
M  V30 12 C -1.1418 1.3129 -0.2399 0
M  V30 13 C 0.0607 -0.5501 1.753 0
M  V30 14 C -1.6364 1.3192 1.203 0
M  V30 15 C -1.3645 0.0224 1.9827 0
M  V30 16 C -0.0642 -2.0287 2.201 0
M  V30 17 C -2.2438 -1.1544 1.5139 0
M  V30 18 C -1.5965 0.3312 3.4818 0
M  V30 19 C -1.5486 -2.3929 2.0961 0
M  V30 20 O -3.5888 -1.0847 1.9682 0
M  V30 21 O -1.7347 -3.5179 1.2448 0
M  V30 22 H 2.3678 2.3069 -5.9106 0
M  V30 23 H 3.2561 -0.3539 -3.7936 0
M  V30 24 H 0.9261 3.1932 -4.4085 0
M  V30 25 H -0.0684 2.9501 -2.2041 0
M  V30 26 H 3.492 -1.0865 -1.395 0
M  V30 27 H 1.9466 -1.8824 -1.7292 0
M  V30 28 H 0.9008 1.6776 0.3268 0
M  V30 29 H 2.6577 -0.073 0.6307 0
M  V30 30 H 2.2578 -1.7839 0.6572 0
M  V30 31 H -0.0319 -1.1676 -0.3224 0
M  V30 32 H -1.7268 0.6123 -0.8477 0
M  V30 33 H -1.3392 2.3091 -0.6485 0
M  V30 34 H 0.7881 -0.0292 2.3894 0
M  V30 35 H -2.7088 1.5501 1.2123 0
M  V30 36 H -1.1436 2.1573 1.715 0
M  V30 37 H 0.5669 -2.7162 1.6316 0
M  V30 38 H 0.2468 -2.1063 3.2502 0
M  V30 39 H -2.2822 -1.2322 0.4215 0
M  V30 40 H -0.8876 1.0887 3.8357 0
M  V30 41 H -2.6066 0.7204 3.6531 0
M  V30 42 H -1.4716 -0.5487 4.12 0
M  V30 43 H -1.9502 -2.6634 3.0794 0
M  V30 44 H -3.9917 -0.2952 1.5677 0
M  V30 45 H -2.6988 -3.6555 1.1942 0
M  V30 END ATOM
M  V30 BEGIN BOND
M  V30 1 1 1 2
M  V30 2 2 2 3
M  V30 3 1 2 4
M  V30 4 1 3 5
M  V30 5 2 4 6
M  V30 6 2 5 7
M  V30 7 1 5 8
M  V30 8 1 7 9
M  V30 9 1 8 10
M  V30 10 1 9 11
M  V30 11 1 9 12
M  V30 12 1 11 13
M  V30 13 1 12 14
M  V30 14 1 13 15
M  V30 15 1 13 16
M  V30 16 1 15 17
M  V30 17 1 15 18
M  V30 18 1 16 19
M  V30 19 1 17 20
M  V30 20 1 19 21
M  V30 21 1 6 7
M  V30 22 1 10 11
M  V30 23 1 14 15
M  V30 24 1 17 19
M  V30 25 1 1 22
M  V30 26 1 3 23
M  V30 27 1 4 24
M  V30 28 1 6 25
M  V30 29 1 8 26
M  V30 30 1 8 27
M  V30 31 1 9 28
M  V30 32 1 10 29
M  V30 33 1 10 30
M  V30 34 1 11 31
M  V30 35 1 12 32
M  V30 36 1 12 33
M  V30 37 1 13 34
M  V30 38 1 14 35
M  V30 39 1 14 36
M  V30 40 1 16 37
M  V30 41 1 16 38
M  V30 42 1 17 39
M  V30 43 1 18 40
M  V30 44 1 18 41
M  V30 45 1 18 42
M  V30 46 1 19 43
M  V30 47 1 20 44
M  V30 48 1 21 45
M  V30 END BOND
M  V30 END CTAB
M  END
>  <Column 1>
3415

>  <level_0>
5650

>  <index>
5651

>  <Unnamed: 0>
5651

>  <NO.>
5663

>  <Name>
estriol

>  <IUPAC_name>
13-methyl-6-7-8-9-11-12-14-15-16-17-decahydrocyclopenta[a]phenanthrene-3-16-17-triol

>  <SMILES>
CC12CCC3c4ccc(O)cc4CCC3C1CC(O)C2O

>  <CID>
3269

>  <logBB>


>  <BBB+/BBB->
BBB-

>  <Inchi>
InChI=1S/C18H24O3/c1-18-7-6-13-12-5-3-11(19)8-10(12)2-4-14(13)15(18)9-16(20)17(18)21/h3-5-8-13-17-19-21H-2-4-6-7-9H2-1H3

>  <threshold>


>  <reference>
R23|

>  <group>
C

>  <Class>
1

>  <ABC>
17.13

>  <ABCGG>
13.55

>  <nAcid>
0

>  <nBase>
0

>  <nAromAtom>
6

>  <nAromBond>
6

>  <nAtom>
45

>  <nHeavyAtom>
21

>  <nSpiro>
0

>  <nBridgehead>
0

>  <nHetero>
3

>  <nN>
0

>  <nO>
3

>  <nF>
0

>  <BalabanJ>
1.58

>  <BertzCT>
569.58

>  <nBonds>
48

>  <nBondsO>
24

>  <nBondsS>
42

>  <nBondsD>
0

>  <nBondsT>
0

>  <nBondsA>
6

>  <nBondsM>
6

>  <nBondsKS>
45

>  <nBondsKD>
3

>  <RNCG>
0.29

>  <RPCG>
0.17

>  <FCSP3>
0.67

>  <SZ>
26

>  <Sm>
24.01

>  <Sv>
26.65

>  <Sse>
44.65

>  <Sp>
29.02

>  <Si>
50.61

>  <MZ>
0.58

>  <Mm>
0.53

>  <Mv>
0.59

>  <Mse>
0.99

>  <Mp>
0.64

>  <Mi>
1.12

>  <NsCH3>
1

>  <NdCH2>
0

>  <NssCH2>
5

>  <NtCH>
0

>  <NdsCH>
0

>  <NaaCH>
3

>  <NsssCH>
5

>  <NddC>
0

>  <NtsC>
0

>  <NdssC>
0

>  <NaasC>
3

>  <NaaaC>
0

>  <NssssC>
1

>  <NsNH3>
0

>  <NsNH2>
0

>  <NssNH2>
0

>  <NdNH>
0

>  <NssNH>
0

>  <NaaNH>
0

>  <NtN>
0

>  <NsssNH>
0

>  <NdsN>
0

>  <NaaN>
0

>  <NsssN>
0

>  <NddsN>
0

>  <NaasN>
0

>  <NssssN>
0

>  <NsOH>
3

>  <NdO>
0

>  <NssO>
0

>  <NaaO>
0

>  <NsF>
0

>  <NsSiH3>
0

>  <NssSiH2>
0

>  <NsssSiH>
0

>  <NssssSi>
0

>  <NsPH2>
0

>  <NssPH>
0

>  <NsssP>
0

>  <NdsssP>
0

>  <NsssssP>
0

>  <NsSH>
0

>  <NdS>
0

>  <NssS>
0

>  <NaaS>
0

>  <NdssS>
0

>  <NddssS>
0

>  <NsCl>
0

>  <NsBr>
0

>  <NsI>
0

>  <fragCpx>
156.03

>  <fMF>
0.38

>  <nHBAcc>
3

>  <nHBDon>
3

>  <Kier1>
14.58

>  <Kier2>
5

>  <Lipinski>
1

>  <GhoseFilter>
1

>  <FilterItLogS>
-2.48

>  <VMcGowan>
225.75

>  <LabuteASA>
125.18

>  <PEOE_VSA1>
15.32

>  <PEOE_VSA2>
0

>  <PEOE_VSA3>
0

>  <PEOE_VSA4>
0

>  <PEOE_VSA5>
0

>  <PEOE_VSA6>
12.99

>  <PEOE_VSA7>
78.53

>  <PEOE_VSA8>
0

>  <PEOE_VSA9>
12.21

>  <PEOE_VSA10>
5.75

>  <PEOE_VSA11>
0

>  <PEOE_VSA12>
0

>  <PEOE_VSA13>
0

>  <SMR_VSA1>
15.32

>  <SMR_VSA2>
0

>  <SMR_VSA3>
0

>  <SMR_VSA4>
17.25

>  <SMR_VSA5>
57.15

>  <SMR_VSA6>
0

>  <SMR_VSA7>
29.33

>  <SMR_VSA8>
0

>  <SMR_VSA9>
5.75

>  <SlogP_VSA1>
0

>  <SlogP_VSA2>
27.53

>  <SlogP_VSA3>
6.42

>  <SlogP_VSA4>
17.25

>  <SlogP_VSA5>
49.65

>  <SlogP_VSA6>
18.2

>  <SlogP_VSA7>
0

>  <SlogP_VSA8>
0

>  <SlogP_VSA9>
0

>  <SlogP_VSA10>
0

>  <SlogP_VSA11>
5.75

>  <EState_VSA1>
12.21

>  <EState_VSA2>
5.41

>  <EState_VSA3>
23.5

>  <EState_VSA4>
32.1

>  <EState_VSA5>
11.13

>  <EState_VSA6>
6.07

>  <EState_VSA7>
6.07

>  <EState_VSA8>
12.99

>  <EState_VSA9>
0

>  <EState_VSA10>
15.32

>  <VSA_EState1>
0

>  <VSA_EState2>
0

>  <VSA_EState3>
30.2

>  <VSA_EState4>
2.57

>  <VSA_EState5>
1.88

>  <VSA_EState6>
5.8

>  <VSA_EState7>
3.8

>  <VSA_EState8>
2.17

>  <VSA_EState9>
0

>  <apol>
48.47

>  <bpol>
24.08

>  <nRing>
4

>  <nHRing>
0

>  <naRing>
1

>  <naHRing>
0

>  <nARing 2>
3

>  <nAHRing 2>
0

>  <nFRing>
1

>  <nFHRing>
0

>  <nFaRing>
0

>  <nFaHRing>
0

>  <nFARing 2>
1

>  <nFAHRing 2>
0

>  <nRot>
0

>  <SLogP>
2.58

>  <SMR>
80.12

>  <TopoPSA(NO)>
60.69

>  <TopoPSA>
60.69

>  <JGI1>
0.23

>  <JGI2>
0.11

>  <JGI3>
0.07

>  <JGI4>
0.05

>  <JGI5>
0.03

>  <Diameter>
10

>  <Radius>
5

>  <TMWC10>
122.24

>  <TSRW10>
70.76

>  <MW>
288.17

>  <AMW>
6.4

>  <WPath>
826

>  <WPol>
42

>  <Zagreb1>
124

>  <Zagreb2>
156

>  <mZagreb2>
4.35

>  <yes>


>  <nAR-cont>
0.691115

>  <nHA-cont>
0.994529749

>  <MWHBN>
0.353449089

>  <MWHBN-cont>
0.657298916

>  <TPSA-cont>
0.576346114

>  <pka_cont>
0.97

>  <yes.1>


>  <BBB_SCORE>
4.309285351

>  <MMFF94 Energy>
77.855

$$$$
Compound 2718
Actelion Java MolfileCreator 2.0

  0  0  0  0  0  0              0 V3000
M  V30 BEGIN CTAB
M  V30 COUNTS 21 22 0 0 0
M  V30 BEGIN ATOM
M  V30 1 O 1.6092 1.9313 0.2412 0
M  V30 2 C 0.6849 1.1356 0.3586 0
M  V30 3 C 0.5783 -0.0371 -0.5333 0
M  V30 4 C -0.3614 1.3199 1.4004 0
M  V30 5 C -0.4743 -0.9402 -0.397 0
M  V30 6 C 1.5467 -0.241 -1.5255 0
M  V30 7 C -1.3661 0.4426 1.5177 0
M  V30 8 C -0.2187 2.5198 2.2846 0
M  V30 9 C -1.4989 -0.7371 0.642 0
M  V30 10 C -0.5637 -2.0483 -1.2494 0
M  V30 11 C 1.4567 -1.3457 -2.3745 0
M  V30 12 O -2.4359 -1.5113 0.7882 0
M  V30 13 C 0.4024 -2.2484 -2.2366 0
M  V30 14 H 2.3729 0.4589 -1.6399 0
M  V30 15 H -2.1423 0.5522 2.2678 0
M  V30 16 H -0.2417 3.4395 1.6905 0
M  V30 17 H 0.7277 2.4819 2.8337 0
M  V30 18 H -1.0268 2.5816 3.0215 0
M  V30 19 H -1.3842 -2.7566 -1.1468 0
M  V30 20 H 2.2099 -1.5016 -3.1439 0
M  V30 21 H 0.3324 -3.1091 -2.8983 0
M  V30 END ATOM
M  V30 BEGIN BOND
M  V30 1 2 1 2
M  V30 2 1 2 3
M  V30 3 1 2 4
M  V30 4 2 3 5
M  V30 5 1 3 6
M  V30 6 2 4 7
M  V30 7 1 4 8
M  V30 8 1 5 9
M  V30 9 1 5 10
M  V30 10 2 6 11
M  V30 11 2 9 12
M  V30 12 2 10 13
M  V30 13 1 7 9
M  V30 14 1 11 13
M  V30 15 1 6 14
M  V30 16 1 7 15
M  V30 17 1 8 16
M  V30 18 1 8 17
M  V30 19 1 8 18
M  V30 20 1 10 19
M  V30 21 1 11 20
M  V30 22 1 13 21
M  V30 END BOND
M  V30 END CTAB
M  END
>  <Column 1>
3416

>  <level_0>
5652

>  <index>
5653

>  <Unnamed: 0>
5653

>  <NO.>
5665

>  <Name>
menadione

>  <IUPAC_name>
2-methylnaphthalene-1-4-dione

>  <SMILES>
CC1=CC(=O)c2ccccc2C1=O

>  <CID>
4055

>  <logBB>


>  <BBB+/BBB->
BBB-

>  <Inchi>
InChI=1S/C11H8O2/c1-7-6-10(12)8-4-2-3-5-9(8)11(7)13/h2-6H-1H3

>  <threshold>


>  <reference>
R23|

>  <group>
C

>  <Class>
-1

>  <ABC>
10.07

>  <ABCGG>
8.93

>  <nAcid>
0

>  <nBase>
0

>  <nAromAtom>
6

>  <nAromBond>
6

>  <nAtom>
21

>  <nHeavyAtom>
13

>  <nSpiro>
0

>  <nBridgehead>
0

>  <nHetero>
2

>  <nN>
0

>  <nO>
2

>  <nF>
0

>  <BalabanJ>
2.1

>  <BertzCT>
427.47

>  <nBonds>
22

>  <nBondsO>
14

>  <nBondsS>
13

>  <nBondsD>
3

>  <nBondsT>
0

>  <nBondsA>
6

>  <nBondsM>
9

>  <nBondsKS>
16

>  <nBondsKD>
6

>  <RNCG>
0.34

>  <RPCG>
0.22

>  <FCSP3>
0.09

>  <SZ>
15

>  <Sm>
14.34

>  <Sv>
14.6

>  <Sse>
21.21

>  <Sp>
15.15

>  <Si>
23.08

>  <MZ>
0.71

>  <Mm>
0.68

>  <Mv>
0.7

>  <Mse>
1.01

>  <Mp>
0.72

>  <Mi>
1.1

>  <NsCH3>
1

>  <NdCH2>
0

>  <NssCH2>
0

>  <NtCH>
0

>  <NdsCH>
1

>  <NaaCH>
4

>  <NsssCH>
0

>  <NddC>
0

>  <NtsC>
0

>  <NdssC>
3

>  <NaasC>
2

>  <NaaaC>
0

>  <NssssC>
0

>  <NsNH3>
0

>  <NsNH2>
0

>  <NssNH2>
0

>  <NdNH>
0

>  <NssNH>
0

>  <NaaNH>
0

>  <NtN>
0

>  <NsssNH>
0

>  <NdsN>
0

>  <NaaN>
0

>  <NsssN>
0

>  <NddsN>
0

>  <NaasN>
0

>  <NssssN>
0

>  <NsOH>
0

>  <NdO>
2

>  <NssO>
0

>  <NaaO>
0

>  <NsF>
0

>  <NsSiH3>
0

>  <NssSiH2>
0

>  <NsssSiH>
0

>  <NssssSi>
0

>  <NsPH2>
0

>  <NssPH>
0

>  <NsssP>
0

>  <NdsssP>
0

>  <NsssssP>
0

>  <NsSH>
0

>  <NdS>
0

>  <NssS>
0

>  <NaaS>
0

>  <NdssS>
0

>  <NddssS>
0

>  <NsCl>
0

>  <NsBr>
0

>  <NsI>
0

>  <fragCpx>
40.02

>  <fMF>
0.48

>  <nHBAcc>
2

>  <nHBDon>
0

>  <Kier1>
9.55

>  <Kier2>
3.63

>  <Lipinski>
1

>  <GhoseFilter>
1

>  <FilterItLogS>
-2.81

>  <VMcGowan>
130.07

>  <LabuteASA>
75.88

>  <PEOE_VSA1>
0

>  <PEOE_VSA2>
9.59

>  <PEOE_VSA3>
0

>  <PEOE_VSA4>
0

>  <PEOE_VSA5>
0

>  <PEOE_VSA6>
24.27

>  <PEOE_VSA7>
13

>  <PEOE_VSA8>
16.7

>  <PEOE_VSA9>
0

>  <PEOE_VSA10>
0

>  <PEOE_VSA11>
11.57

>  <PEOE_VSA12>
0

>  <PEOE_VSA13>
0

>  <SMR_VSA1>
9.59

>  <SMR_VSA2>
0

>  <SMR_VSA3>
0

>  <SMR_VSA4>
0

>  <SMR_VSA5>
6.92

>  <SMR_VSA6>
0

>  <SMR_VSA7>
47.04

>  <SMR_VSA8>
0

>  <SMR_VSA9>
0

>  <SlogP_VSA1>
0

>  <SlogP_VSA2>
11.57

>  <SlogP_VSA3>
0

>  <SlogP_VSA4>
0

>  <SlogP_VSA5>
27.64

>  <SlogP_VSA6>
35.91

>  <SlogP_VSA7>
0

>  <SlogP_VSA8>
0

>  <SlogP_VSA9>
0

>  <SlogP_VSA10>
0

>  <SlogP_VSA11>
0

>  <EState_VSA1>
0

>  <EState_VSA2>
11.57

>  <EState_VSA3>
16.7

>  <EState_VSA4>
0

>  <EState_VSA5>
6.08

>  <EState_VSA6>
31.19

>  <EState_VSA7>
0

>  <EState_VSA8>
0

>  <EState_VSA9>
0

>  <EState_VSA10>
9.59

>  <VSA_EState1>
0

>  <VSA_EState2>
22.95

>  <VSA_EState3>
0

>  <VSA_EState4>
1.55

>  <VSA_EState5>
-0.12

>  <VSA_EState6>
6.89

>  <VSA_EState7>
1.39

>  <VSA_EState8>
1.66

>  <VSA_EState9>
0

>  <apol>
25.31

>  <bpol>
9.76

>  <nRing>
2

>  <nHRing>
0

>  <naRing>
1

>  <naHRing>
0

>  <nARing 2>
1

>  <nAHRing 2>
0

>  <nFRing>
1

>  <nFHRing>
0

>  <nFaRing>
0

>  <nFaHRing>
0

>  <nFARing 2>
1

>  <nFAHRing 2>
0

>  <nRot>
0

>  <SLogP>
2.01

>  <SMR>
48.86

>  <TopoPSA(NO)>
34.14

>  <TopoPSA>
34.14

>  <JGI1>
0.18

>  <JGI2>
0.1

>  <JGI3>
0.06

>  <JGI4>
0.06

>  <JGI5>
0.03

>  <Diameter>
6

>  <Radius>
3

>  <TMWC10>
96.74

>  <TSRW10>
44.83

>  <MW>
172.05

>  <AMW>
8.19

>  <WPath>
218

>  <WPol>
21

>  <Zagreb1>
68

>  <Zagreb2>
81

>  <mZagreb2>
2.86

>  <yes>


>  <nAR-cont>
0.816016

>  <nHA-cont>
0.841215992

>  <MWHBN>
0.15247641

>  <MWHBN-cont>
0.938779918

>  <TPSA-cont>
0.7616816

>  <pka_cont>
0.97

>  <yes.1>


>  <BBB_SCORE>
5.07376507

>  <MMFF94 Energy>
35.125

$$$$
Compound 2719
Actelion Java MolfileCreator 2.0

  0  0  0  0  0  0              0 V3000
M  V30 BEGIN CTAB
M  V30 COUNTS 33 34 0 0 0
M  V30 BEGIN ATOM
M  V30 1 O 1.678 3.1982 -4.9605 0
M  V30 2 C 1.3467 2.4536 -4.0416 0
M  V30 3 N 0.0366 2.1494 -3.7898 0
M  V30 4 C 2.3466 1.7378 -3.1831 0
M  V30 5 N -0.427 1.3747 -2.7758 0
M  V30 6 C 1.8375 1.5381 -1.7589 0 CFG=1
M  V30 7 C 0.3854 1.0631 -1.8093 0
M  V30 8 C 2.7927 0.5848 -1.038 0
M  V30 9 C -0.1739 0.2773 -0.6782 0
M  V30 10 C -0.9039 -0.8805 -0.9535 0
M  V30 11 C -0.025 0.7126 0.6387 0
M  V30 12 C -1.4549 -1.622 0.0965 0
M  V30 13 C -0.5787 -0.0359 1.6828 0
M  V30 14 C -1.2975 -1.2131 1.4292 0
M  V30 15 N -1.865 -1.9863 2.4591 0
M  V30 16 N -1.7123 -1.5958 3.7545 0
M  V30 17 C -2.2398 -2.294 4.7146 0
M  V30 18 C -2.0076 -1.7788 6.0332 0
M  V30 19 C -2.9916 -3.4866 4.4534 0
M  V30 20 N -1.8339 -1.3845 7.1133 0
M  V30 21 N -3.5937 -4.4496 4.205 0
M  V30 22 H -0.6593 2.5361 -4.4199 0
M  V30 23 H 3.2786 2.3145 -3.1737 0
M  V30 24 H 2.5497 0.7733 -3.6655 0
M  V30 25 H 1.8343 2.5081 -1.2447 0
M  V30 26 H 2.6933 -0.439 -1.4151 0
M  V30 27 H 2.6104 0.5621 0.0397 0
M  V30 28 H 3.8338 0.8981 -1.1748 0
M  V30 29 H -1.0487 -1.2075 -1.9806 0
M  V30 30 H 0.5033 1.6338 0.8684 0
M  V30 31 H -2.0157 -2.5225 -0.1419 0
M  V30 32 H -0.4509 0.3157 2.704 0
M  V30 33 H -2.3756 -2.8177 2.1581 0
M  V30 END ATOM
M  V30 BEGIN BOND
M  V30 1 2 1 2
M  V30 2 1 2 3
M  V30 3 1 2 4
M  V30 4 1 3 5
M  V30 5 1 4 6
M  V30 6 2 5 7
M  V30 7 1 6 8
M  V30 8 1 7 9
M  V30 9 2 9 10
M  V30 10 1 9 11
M  V30 11 1 10 12
M  V30 12 2 11 13
M  V30 13 2 12 14
M  V30 14 1 14 15
M  V30 15 1 15 16
M  V30 16 2 16 17
M  V30 17 1 17 18
M  V30 18 1 17 19
M  V30 19 3 18 20
M  V30 20 3 19 21
M  V30 21 1 6 7
M  V30 22 1 13 14
M  V30 23 1 3 22
M  V30 24 1 4 23
M  V30 25 1 4 24
M  V30 26 1 6 25
M  V30 27 1 8 26
M  V30 28 1 8 27
M  V30 29 1 8 28
M  V30 30 1 10 29
M  V30 31 1 11 30
M  V30 32 1 12 31
M  V30 33 1 13 32
M  V30 34 1 15 33
M  V30 END BOND
M  V30 BEGIN COLLECTION
M  V30 MDLV30/STERAC1 ATOMS=(1 6)
M  V30 END COLLECTION
M  V30 END CTAB
M  END
>  <Column 1>
3419

>  <level_0>
5655

>  <index>
5656

>  <Unnamed: 0>
5656

>  <NO.>
5668

>  <Name>
levosimendan

>  <IUPAC_name>
2-[[4-(4-methyl-6-oxo-4-5-dihydro-1h-pyridazin-3-yl)phenyl]hydrazinylidene]propanedinitrile

>  <SMILES>
CC1CC(=O)NN=C1c1ccc(NN=C(C#N)C#N)cc1

>  <CID>
60867

>  <logBB>


>  <BBB+/BBB->
BBB-

>  <Inchi>
InChI=1S/C14H12N6O/c1-9-6-13(21)19-20-14(9)10-2-4-11(5-3-10)17-18-12(7-15)8-16/h2-5-9-17H-6H2-1H3-(H-19-21)

>  <threshold>


>  <reference>
R23|

>  <group>
C

>  <Class>
-1

>  <ABC>
15.69

>  <ABCGG>
12.71

>  <nAcid>
0

>  <nBase>
0

>  <nAromAtom>
6

>  <nAromBond>
6

>  <nAtom>
33

>  <nHeavyAtom>
21

>  <nSpiro>
0

>  <nBridgehead>
0

>  <nHetero>
7

>  <nN>
6

>  <nO>
1

>  <nF>
0

>  <BalabanJ>
1.7

>  <BertzCT>
673.66

>  <nBonds>
34

>  <nBondsO>
22

>  <nBondsS>
23

>  <nBondsD>
3

>  <nBondsT>
2

>  <nBondsA>
6

>  <nBondsM>
11

>  <nBondsKS>
26

>  <nBondsKD>
6

>  <RNCG>
0.16

>  <RPCG>
0.14

>  <FCSP3>
0.21

>  <SZ>
24.33

>  <Sm>
23.34

>  <Sv>
22.51

>  <Sse>
33.64

>  <Sp>
23.22

>  <Si>
37.45

>  <MZ>
0.74

>  <Mm>
0.71

>  <Mv>
0.68

>  <Mse>
1.02

>  <Mp>
0.7

>  <Mi>
1.13

>  <NsCH3>
1

>  <NdCH2>
0

>  <NssCH2>
1

>  <NtCH>
0

>  <NdsCH>
0

>  <NaaCH>
4

>  <NsssCH>
1

>  <NddC>
0

>  <NtsC>
2

>  <NdssC>
3

>  <NaasC>
2

>  <NaaaC>
0

>  <NssssC>
0

>  <NsNH3>
0

>  <NsNH2>
0

>  <NssNH2>
0

>  <NdNH>
0

>  <NssNH>
2

>  <NaaNH>
0

>  <NtN>
2

>  <NsssNH>
0

>  <NdsN>
2

>  <NaaN>
0

>  <NsssN>
0

>  <NddsN>
0

>  <NaasN>
0

>  <NssssN>
0

>  <NsOH>
0

>  <NdO>
1

>  <NssO>
0

>  <NaaO>
0

>  <NsF>
0

>  <NsSiH3>
0

>  <NssSiH2>
0

>  <NsssSiH>
0

>  <NssssSi>
0

>  <NsPH2>
0

>  <NssPH>
0

>  <NsssP>
0

>  <NdsssP>
0

>  <NsssssP>
0

>  <NsSH>
0

>  <NdS>
0

>  <NssS>
0

>  <NaaS>
0

>  <NdssS>
0

>  <NddssS>
0

>  <NsCl>
0

>  <NsBr>
0

>  <NsI>
0

>  <fragCpx>
64.07

>  <fMF>
0.36

>  <nHBAcc>
6

>  <nHBDon>
2

>  <Kier1>
17.36

>  <Kier2>
8.59

>  <Lipinski>
1

>  <GhoseFilter>
1

>  <FilterItLogS>
-3.35

>  <VMcGowan>
209.15

>  <LabuteASA>
121.12

>  <PEOE_VSA1>
0

>  <PEOE_VSA2>
10.22

>  <PEOE_VSA3>
5.43

>  <PEOE_VSA4>
20.73

>  <PEOE_VSA5>
0

>  <PEOE_VSA6>
19.06

>  <PEOE_VSA7>
17.7

>  <PEOE_VSA8>
12.34

>  <PEOE_VSA9>
11.4

>  <PEOE_VSA10>
12.14

>  <PEOE_VSA11>
0

>  <PEOE_VSA12>
11.62

>  <PEOE_VSA13>
0

>  <SMR_VSA1>
4.79

>  <SMR_VSA2>
10.52

>  <SMR_VSA3>
5.43

>  <SMR_VSA4>
16.12

>  <SMR_VSA5>
13.34

>  <SMR_VSA6>
5.43

>  <SMR_VSA7>
29.83

>  <SMR_VSA8>
0

>  <SMR_VSA9>
12.14

>  <SlogP_VSA1>
10.85

>  <SlogP_VSA2>
17.33

>  <SlogP_VSA3>
4.79

>  <SlogP_VSA4>
28.58

>  <SlogP_VSA5>
18.91

>  <SlogP_VSA6>
34.47

>  <SlogP_VSA7>
0

>  <SlogP_VSA8>
0

>  <SlogP_VSA9>
0

>  <SlogP_VSA10>
5.69

>  <SlogP_VSA11>
0

>  <EState_VSA1>
0

>  <EState_VSA2>
17.54

>  <EState_VSA3>
12.11

>  <EState_VSA4>
11.28

>  <EState_VSA5>
0

>  <EState_VSA6>
24.27

>  <EState_VSA7>
19.06

>  <EState_VSA8>
21.05

>  <EState_VSA9>
10.52

>  <EState_VSA10>
4.79

>  <VSA_EState1>
0

>  <VSA_EState2>
11.21

>  <VSA_EState3>
24.88

>  <VSA_EState4>
7.22

>  <VSA_EState5>
-0.03

>  <VSA_EState6>
10.52

>  <VSA_EState7>
0.41

>  <VSA_EState8>
1.94

>  <VSA_EState9>
0

>  <apol>
38.78

>  <bpol>
15.19

>  <nRing>
2

>  <nHRing>
1

>  <naRing>
1

>  <naHRing>
0

>  <nARing 2>
1

>  <nAHRing 2>
1

>  <nFRing>
0

>  <nFHRing>
0

>  <nFaRing>
0

>  <nFaHRing>
0

>  <nFARing 2>
0

>  <nFAHRing 2>
0

>  <nRot>
3

>  <SLogP>
1.36

>  <SMR>
77.19

>  <TopoPSA(NO)>
113.43

>  <TopoPSA>
113.43

>  <JGI1>
0.2

>  <JGI2>
0.08

>  <JGI3>
0.04

>  <JGI4>
0.04

>  <JGI5>
0.03

>  <Diameter>
13

>  <Radius>
7

>  <TMWC10>
114.86

>  <TSRW10>
54.3

>  <MW>
280.11

>  <AMW>
8.49

>  <WPath>
1074

>  <WPol>
30

>  <Zagreb1>
102

>  <Zagreb2>
116

>  <mZagreb2>
4.89

>  <yes>


>  <nAR-cont>
0.816016

>  <nHA-cont>
0.994529749

>  <MWHBN>
0.477997561

>  <MWHBN-cont>
0

>  <TPSA-cont>
0.208188164

>  <pka_cont>
0.97

>  <yes.1>


>  <BBB_SCORE>
2.711922078

>  <MMFF94 Energy>
136.34

$$$$
Compound 2720
Actelion Java MolfileCreator 2.0

  0  0  0  0  0  0              0 V3000
M  V30 BEGIN CTAB
M  V30 COUNTS 55 57 0 0 0
M  V30 BEGIN ATOM
M  V30 1 O 3.4276 -0.3981 0.8759 0
M  V30 2 C 2.7182 0.0782 1.7463 0
M  V30 3 O 1.9587 1.1915 1.6244 0
M  V30 4 C 2.566 -0.5065 3.0948 0
M  V30 5 C 2.0049 1.8013 0.3264 0
M  V30 6 C 3.2216 -1.6981 3.3769 0
M  V30 7 C 1.7961 0.0712 4.1085 0
M  V30 8 C 1.314 3.1515 0.4381 0
M  V30 9 C 1.3786 0.976 -0.8153 0
M  V30 10 N 3.1564 -2.332 4.5748 0
M  V30 11 C 1.7135 -0.5596 5.3489 0
M  V30 12 C 1.932 4.3073 -0.0631 0
M  V30 13 C 0.0373 3.2634 1.0146 0
M  V30 14 O 1.5947 1.1707 -2.0066 0
M  V30 15 O 0.5149 0.0376 -0.3228 0
M  V30 16 C 2.4041 -1.7474 5.5324 0
M  V30 17 C 1.2933 5.5458 0.0213 0
M  V30 18 C -0.5983 4.5031 1.0974 0
M  V30 19 C -0.1481 -0.7891 -1.2974 0
M  V30 20 C 0.0302 5.6434 0.6021 0
M  V30 21 C -1.3949 -0.0639 -1.8173 0
M  V30 22 C -0.5327 -2.0918 -0.5932 0
M  V30 23 C -2.2755 -0.9387 -2.735 0
M  V30 24 C -1.3583 -3.0105 -1.4987 0
M  V30 25 C -2.6004 -2.2776 -2.0318 0
M  V30 26 C -3.5931 -0.1928 -3.0208 0
M  V30 27 C -1.5724 -1.1882 -4.0831 0
M  V30 28 C -1.7659 -4.2776 -0.7464 0
M  V30 29 H 3.0615 1.9601 0.0709 0
M  V30 30 H 3.8365 -2.198 2.6318 0
M  V30 31 H 1.2624 1.0043 3.949 0
M  V30 32 H 1.1246 -0.134 6.1545 0
M  V30 33 H 2.9136 4.2522 -0.5301 0
M  V30 34 H -0.4701 2.3818 1.402 0
M  V30 35 H 2.3701 -2.2753 6.4817 0
M  V30 36 H 1.78 6.4351 -0.3713 0
M  V30 37 H -1.5858 4.579 1.5455 0
M  V30 38 H 0.5426 -1.0248 -2.1159 0
M  V30 39 H -0.4659 6.6086 0.6642 0
M  V30 40 H -1.0986 0.8551 -2.3389 0
M  V30 41 H -1.983 0.2785 -0.9537 0
M  V30 42 H 0.3787 -2.6046 -0.26 0
M  V30 43 H -1.0898 -1.8612 0.3253 0
M  V30 44 H -0.7341 -3.3194 -2.346 0
M  V30 45 H -3.1464 -2.9365 -2.7197 0
M  V30 46 H -3.2807 -2.0838 -1.1904 0
M  V30 47 H -3.4055 0.7651 -3.519 0
M  V30 48 H -4.25 -0.7842 -3.6686 0
M  V30 49 H -4.1408 0.0165 -2.095 0
M  V30 50 H -2.2028 -1.7898 -4.748 0
M  V30 51 H -0.6215 -1.7163 -3.9699 0
M  V30 52 H -1.3609 -0.2424 -4.5951 0
M  V30 53 H -0.8826 -4.8186 -0.3909 0
M  V30 54 H -2.3311 -4.9512 -1.3991 0
M  V30 55 H -2.3913 -4.043 0.1217 0
M  V30 END ATOM
M  V30 BEGIN BOND
M  V30 1 2 1 2
M  V30 2 1 2 3
M  V30 3 1 2 4
M  V30 4 1 3 5
M  V30 5 2 4 6
M  V30 6 1 4 7
M  V30 7 1 5 8
M  V30 8 1 5 9
M  V30 9 1 6 10
M  V30 10 2 7 11
M  V30 11 2 8 12
M  V30 12 1 8 13
M  V30 13 2 9 14
M  V30 14 1 9 15
M  V30 15 2 10 16
M  V30 16 1 12 17
M  V30 17 2 13 18
M  V30 18 1 15 19
M  V30 19 2 17 20
M  V30 20 1 19 21
M  V30 21 1 19 22
M  V30 22 1 21 23
M  V30 23 1 22 24
M  V30 24 1 23 25
M  V30 25 1 23 26
M  V30 26 1 23 27
M  V30 27 1 24 28
M  V30 28 1 11 16
M  V30 29 1 18 20
M  V30 30 1 24 25
M  V30 31 1 5 29
M  V30 32 1 6 30
M  V30 33 1 7 31
M  V30 34 1 11 32
M  V30 35 1 12 33
M  V30 36 1 13 34
M  V30 37 1 16 35
M  V30 38 1 17 36
M  V30 39 1 18 37
M  V30 40 1 19 38
M  V30 41 1 20 39
M  V30 42 1 21 40
M  V30 43 1 21 41
M  V30 44 1 22 42
M  V30 45 1 22 43
M  V30 46 1 24 44
M  V30 47 1 25 45
M  V30 48 1 25 46
M  V30 49 1 26 47
M  V30 50 1 26 48
M  V30 51 1 26 49
M  V30 52 1 27 50
M  V30 53 1 27 51
M  V30 54 1 27 52
M  V30 55 1 28 53
M  V30 56 1 28 54
M  V30 57 1 28 55
M  V30 END BOND
M  V30 END CTAB
M  END
>  <Column 1>
3420

>  <level_0>
5657

>  <index>
5658

>  <Unnamed: 0>
5658

>  <NO.>
5670

>  <Name>
nicotinoyl cyclandelate

>  <IUPAC_name>
[2-oxo-1-phenyl-2-(3-3-5-trimethylcyclohexyl)oxyethyl] pyridine-3-carboxylate

>  <SMILES>
CC1CC(OC(=O)C(OC(=O)c2cccnc2)c2ccccc2)CC(C)(C)C1

>  <CID>
172291

>  <logBB>


>  <BBB+/BBB->
BBB-

>  <Inchi>
InChI=1S/C23H27NO4/c1-16-12-19(14-23(2-3)13-16)27-22(26)20(17-8-5-4-6-9-17)28-21(25)18-10-7-11-24-15-18/h4-11-15-16-19-20H-12-14H2-1-3H3

>  <threshold>


>  <reference>
R23|

>  <group>
C

>  <Class>
-1

>  <ABC>
21.74

>  <ABCGG>
17.67

>  <nAcid>
0

>  <nBase>
0

>  <nAromAtom>
12

>  <nAromBond>
12

>  <nAtom>
55

>  <nHeavyAtom>
28

>  <nSpiro>
0

>  <nBridgehead>
0

>  <nHetero>
5

>  <nN>
1

>  <nO>
4

>  <nF>
0

>  <BalabanJ>
1.63

>  <BertzCT>
803.87

>  <nBonds>
57

>  <nBondsO>
30

>  <nBondsS>
43

>  <nBondsD>
2

>  <nBondsT>
0

>  <nBondsA>
12

>  <nBondsM>
14

>  <nBondsKS>
49

>  <nBondsKD>
8

>  <RNCG>
0.19

>  <RPCG>
0.15

>  <FCSP3>
0.43

>  <SZ>
34

>  <Sm>
31.76

>  <Sv>
33.93

>  <Sse>
54.97

>  <Sp>
36.36

>  <Si>
61.73

>  <MZ>
0.62

>  <Mm>
0.58

>  <Mv>
0.62

>  <Mse>
1

>  <Mp>
0.66

>  <Mi>
1.12

>  <NsCH3>
3

>  <NdCH2>
0

>  <NssCH2>
3

>  <NtCH>
0

>  <NdsCH>
0

>  <NaaCH>
9

>  <NsssCH>
3

>  <NddC>
0

>  <NtsC>
0

>  <NdssC>
2

>  <NaasC>
2

>  <NaaaC>
0

>  <NssssC>
1

>  <NsNH3>
0

>  <NsNH2>
0

>  <NssNH2>
0

>  <NdNH>
0

>  <NssNH>
0

>  <NaaNH>
0

>  <NtN>
0

>  <NsssNH>
0

>  <NdsN>
0

>  <NaaN>
1

>  <NsssN>
0

>  <NddsN>
0

>  <NaasN>
0

>  <NssssN>
0

>  <NsOH>
0

>  <NdO>
2

>  <NssO>
2

>  <NaaO>
0

>  <NsF>
0

>  <NsSiH3>
0

>  <NssSiH2>
0

>  <NsssSiH>
0

>  <NssssSi>
0

>  <NsPH2>
0

>  <NssPH>
0

>  <NsssP>
0

>  <NdsssP>
0

>  <NsssssP>
0

>  <NsSH>
0

>  <NdS>
0

>  <NssS>
0

>  <NaaS>
0

>  <NdssS>
0

>  <NddssS>
0

>  <NsCl>
0

>  <NsBr>
0

>  <NsI>
0

>  <fragCpx>
144.05

>  <fMF>
0.42

>  <nHBAcc>
5

>  <nHBDon>
0

>  <Kier1>
22.68

>  <Kier2>
10.35

>  <Lipinski>
1

>  <GhoseFilter>
1

>  <FilterItLogS>
-4.9

>  <VMcGowan>
301.41

>  <LabuteASA>
165.63

>  <PEOE_VSA1>
9.47

>  <PEOE_VSA2>
4.98

>  <PEOE_VSA3>
9.59

>  <PEOE_VSA4>
0

>  <PEOE_VSA5>
0

>  <PEOE_VSA6>
51.1

>  <PEOE_VSA7>
42.73

>  <PEOE_VSA8>
17.96

>  <PEOE_VSA9>
5.56

>  <PEOE_VSA10>
6.1

>  <PEOE_VSA11>
0

>  <PEOE_VSA12>
6.1

>  <PEOE_VSA13>
0

>  <SMR_VSA1>
19.06

>  <SMR_VSA2>
0

>  <SMR_VSA3>
4.98

>  <SMR_VSA4>
11.33

>  <SMR_VSA5>
52.24

>  <SMR_VSA6>
0

>  <SMR_VSA7>
65.99

>  <SMR_VSA8>
0

>  <SMR_VSA9>
0

>  <SlogP_VSA1>
0

>  <SlogP_VSA2>
23.03

>  <SlogP_VSA3>
14.27

>  <SlogP_VSA4>
11.33

>  <SlogP_VSA5>
62.06

>  <SlogP_VSA6>
54.86

>  <SlogP_VSA7>
0

>  <SlogP_VSA8>
0

>  <SlogP_VSA9>
0

>  <SlogP_VSA10>
0

>  <SlogP_VSA11>
0

>  <EState_VSA1>
18.04

>  <EState_VSA2>
11.52

>  <EState_VSA3>
17.04

>  <EState_VSA4>
19.26

>  <EState_VSA5>
6.2

>  <EState_VSA6>
42.6

>  <EState_VSA7>
6.07

>  <EState_VSA8>
25.76

>  <EState_VSA9>
9.47

>  <EState_VSA10>
9.59

>  <VSA_EState1>
11.37

>  <VSA_EState2>
29.42

>  <VSA_EState3>
0

>  <VSA_EState4>
1.01

>  <VSA_EState5>
-0.65

>  <VSA_EState6>
12.23

>  <VSA_EState7>
4.46

>  <VSA_EState8>
6.57

>  <VSA_EState9>
0

>  <apol>
60.72

>  <bpol>
33.43

>  <nRing>
3

>  <nHRing>
1

>  <naRing>
2

>  <naHRing>
1

>  <nARing 2>
1

>  <nAHRing 2>
0

>  <nFRing>
0

>  <nFHRing>
0

>  <nFaRing>
0

>  <nFaHRing>
0

>  <nFARing 2>
0

>  <nFAHRing 2>
0

>  <nRot>
5

>  <SLogP>
4.74

>  <SMR>
105.51

>  <TopoPSA(NO)>
65.49

>  <TopoPSA>
65.49

>  <JGI1>
0.23

>  <JGI2>
0.07

>  <JGI3>
0.06

>  <JGI4>
0.04

>  <JGI5>
0.03

>  <Diameter>
12

>  <Radius>
6

>  <TMWC10>
133.51

>  <TSRW10>
63.17

>  <MW>
381.19

>  <AMW>
6.93

>  <WPath>
2066

>  <WPol>
41

>  <Zagreb1>
144

>  <Zagreb2>
164

>  <mZagreb2>
6.08

>  <yes>


>  <nAR-cont>
0.816016

>  <nHA-cont>
0.82432561

>  <MWHBN>
0.256093912

>  <MWHBN-cont>
0.948951509

>  <TPSA-cont>
0.542839133

>  <pka_cont>
0.97

>  <yes.1>


>  <BBB_SCORE>
4.634447139

>  <MMFF94 Energy>
92.433

$$$$
Compound 2721
Actelion Java MolfileCreator 2.0

  0  0  0  0  0  0              0 V3000
M  V30 BEGIN CTAB
M  V30 COUNTS 54 57 0 0 0
M  V30 BEGIN ATOM
M  V30 1 O -0.5605 5.2947 1.6022 0
M  V30 2 C -0.8628 4.1997 1.1284 0
M  V30 3 C -1.7089 3.1831 1.8844 0
M  V30 4 C -0.5014 3.8499 -0.2979 0
M  V30 5 C -1.1145 1.7732 1.7347 0
M  V30 6 C -1.8336 3.5513 3.3619 0
M  V30 7 C 0.0967 2.443 -0.3595 0
M  V30 8 C -0.8323 1.3514 0.2611 0
M  V30 9 C 0.5304 2.0957 -1.7871 0
M  V30 10 C -0.0515 -0.0208 0.2281 0
M  V30 11 C -2.1824 1.2382 -0.4907 0
M  V30 12 C 1.271 0.7631 -1.8186 0
M  V30 13 C 0.452 -0.3791 -1.1978 0
M  V30 14 C -0.8409 -1.2046 0.8224 0
M  V30 15 C 1.2306 -1.7127 -1.2496 0
M  V30 16 C -0.0198 -2.4947 0.8325 0
M  V30 17 C 0.5054 -2.8908 -0.5659 0
M  V30 18 C 2.6224 -1.6999 -0.5892 0
M  V30 19 C 1.6409 -3.9329 -0.4896 0
M  V30 20 C -0.649 -3.4332 -1.4241 0
M  V30 21 C 2.8884 -3.1321 -0.1214 0
M  V30 22 O 1.3769 -4.9533 0.4553 0
M  V30 23 H -2.7131 3.2158 1.4462 0
M  V30 24 H -1.3921 3.9563 -0.9244 0
M  V30 25 H 0.2357 4.5808 -0.6512 0
M  V30 26 H -0.1754 1.7208 2.3032 0
M  V30 27 H -1.8026 1.0618 2.2067 0
M  V30 28 H -2.4501 2.8206 3.8958 0
M  V30 29 H -0.8521 3.5916 3.8472 0
M  V30 30 H -2.3015 4.5348 3.4813 0
M  V30 31 H 1.0127 2.4719 0.2519 0
M  V30 32 H -0.3331 2.0624 -2.4612 0
M  V30 33 H 1.1963 2.8765 -2.1748 0
M  V30 34 H 0.8349 0.1142 0.8643 0
M  V30 35 H -2.0654 0.8594 -1.509 0
M  V30 36 H -2.6974 2.1992 -0.5741 0
M  V30 37 H -2.8711 0.5656 0.0316 0
M  V30 38 H 2.2209 0.8833 -1.2836 0
M  V30 39 H 1.5241 0.5174 -2.857 0
M  V30 40 H -0.429 -0.5208 -1.8371 0
M  V30 41 H -1.132 -0.9881 1.8555 0
M  V30 42 H -1.7677 -1.3722 0.2645 0
M  V30 43 H 1.385 -1.9634 -2.3102 0
M  V30 44 H 0.8127 -2.3603 1.5344 0
M  V30 45 H -0.6335 -3.3039 1.2485 0
M  V30 46 H 2.6688 -1.0242 0.2708 0
M  V30 47 H 3.3891 -1.3702 -1.299 0
M  V30 48 H 1.7925 -4.4074 -1.4677 0
M  V30 49 H -1.4353 -2.6878 -1.5762 0
M  V30 50 H -0.2966 -3.7364 -2.4166 0
M  V30 51 H -1.1065 -4.3116 -0.9555 0
M  V30 52 H 3.7747 -3.5514 -0.61 0
M  V30 53 H 3.0841 -3.1578 0.9569 0
M  V30 54 H 2.1627 -5.5246 0.4959 0
M  V30 END ATOM
M  V30 BEGIN BOND
M  V30 1 2 1 2
M  V30 2 1 2 3
M  V30 3 1 2 4
M  V30 4 1 3 5
M  V30 5 1 3 6
M  V30 6 1 4 7
M  V30 7 1 5 8
M  V30 8 1 7 9
M  V30 9 1 8 10
M  V30 10 1 8 11
M  V30 11 1 9 12
M  V30 12 1 10 13
M  V30 13 1 10 14
M  V30 14 1 13 15
M  V30 15 1 14 16
M  V30 16 1 15 17
M  V30 17 1 15 18
M  V30 18 1 17 19
M  V30 19 1 17 20
M  V30 20 1 18 21
M  V30 21 1 19 22
M  V30 22 1 7 8
M  V30 23 1 12 13
M  V30 24 1 16 17
M  V30 25 1 19 21
M  V30 26 1 3 23
M  V30 27 1 4 24
M  V30 28 1 4 25
M  V30 29 1 5 26
M  V30 30 1 5 27
M  V30 31 1 6 28
M  V30 32 1 6 29
M  V30 33 1 6 30
M  V30 34 1 7 31
M  V30 35 1 9 32
M  V30 36 1 9 33
M  V30 37 1 10 34
M  V30 38 1 11 35
M  V30 39 1 11 36
M  V30 40 1 11 37
M  V30 41 1 12 38
M  V30 42 1 12 39
M  V30 43 1 13 40
M  V30 44 1 14 41
M  V30 45 1 14 42
M  V30 46 1 15 43
M  V30 47 1 16 44
M  V30 48 1 16 45
M  V30 49 1 18 46
M  V30 50 1 18 47
M  V30 51 1 19 48
M  V30 52 1 20 49
M  V30 53 1 20 50
M  V30 54 1 20 51
M  V30 55 1 21 52
M  V30 56 1 21 53
M  V30 57 1 22 54
M  V30 END BOND
M  V30 END CTAB
M  END
>  <Column 1>
3421

>  <level_0>
5658

>  <index>
5659

>  <Unnamed: 0>
5659

>  <NO.>
5671

>  <Name>
2.alpha.-methyldihydrotestosterone

>  <IUPAC_name>
17-hydroxy-2-10-13-trimethyl-1-2-4-5-6-7-8-9-11-12-14-15-16-17-tetradecahydrocyclopenta[a]phenanthren-3-one

>  <SMILES>
CC1CC2(C)C(CCC3C4CCC(O)C4(C)CCC32)CC1=O

>  <CID>
3167

>  <logBB>


>  <BBB+/BBB->
BBB-

>  <Inchi>
InChI=1S/C20H32O2/c1-12-11-20(3)13(10-17(12)21)4-5-14-15-6-7-18(22)19(15-2)9-8-16(14)20/h12-16-18-22H-4-11H2-1-3H3

>  <threshold>


>  <reference>
R23|

>  <group>
C

>  <Class>
-1

>  <ABC>
17.96

>  <ABCGG>
14.6

>  <nAcid>
0

>  <nBase>
0

>  <nAromAtom>
0

>  <nAromBond>
0

>  <nAtom>
54

>  <nHeavyAtom>
22

>  <nSpiro>
0

>  <nBridgehead>
0

>  <nHetero>
2

>  <nN>
0

>  <nO>
2

>  <nF>
0

>  <BalabanJ>
1.63

>  <BertzCT>
486.1

>  <nBonds>
57

>  <nBondsO>
25

>  <nBondsS>
56

>  <nBondsD>
1

>  <nBondsT>
0

>  <nBondsA>
0

>  <nBondsM>
1

>  <nBondsKS>
56

>  <nBondsKD>
1

>  <RNCG>
0.3

>  <RPCG>
0.16

>  <FCSP3>
0.95

>  <SZ>
28

>  <Sm>
25.35

>  <Sv>
30.1

>  <Sse>
52.87

>  <Sp>
33.74

>  <Si>
61.06

>  <MZ>
0.52

>  <Mm>
0.47

>  <Mv>
0.56

>  <Mse>
0.98

>  <Mp>
0.62

>  <Mi>
1.13

>  <NsCH3>
3

>  <NdCH2>
0

>  <NssCH2>
8

>  <NtCH>
0

>  <NdsCH>
0

>  <NaaCH>
0

>  <NsssCH>
6

>  <NddC>
0

>  <NtsC>
0

>  <NdssC>
1

>  <NaasC>
0

>  <NaaaC>
0

>  <NssssC>
2

>  <NsNH3>
0

>  <NsNH2>
0

>  <NssNH2>
0

>  <NdNH>
0

>  <NssNH>
0

>  <NaaNH>
0

>  <NtN>
0

>  <NsssNH>
0

>  <NdsN>
0

>  <NaaN>
0

>  <NsssN>
0

>  <NddsN>
0

>  <NaasN>
0

>  <NssssN>
0

>  <NsOH>
1

>  <NdO>
1

>  <NssO>
0

>  <NaaO>
0

>  <NsF>
0

>  <NsSiH3>
0

>  <NssSiH2>
0

>  <NsssSiH>
0

>  <NssssSi>
0

>  <NsPH2>
0

>  <NssPH>
0

>  <NsssP>
0

>  <NdsssP>
0

>  <NsssssP>
0

>  <NsSH>
0

>  <NdS>
0

>  <NssS>
0

>  <NaaS>
0

>  <NdssS>
0

>  <NddssS>
0

>  <NsCl>
0

>  <NsBr>
0

>  <NsI>
0

>  <fragCpx>
163.02

>  <fMF>
0.31

>  <nHBAcc>
2

>  <nHBDon>
1

>  <Kier1>
15.52

>  <Kier2>
5

>  <Lipinski>
1

>  <GhoseFilter>
1

>  <FilterItLogS>
-3.65

>  <VMcGowan>
256.66

>  <LabuteASA>
134.61

>  <PEOE_VSA1>
5.11

>  <PEOE_VSA2>
4.79

>  <PEOE_VSA3>
0

>  <PEOE_VSA4>
0

>  <PEOE_VSA5>
0

>  <PEOE_VSA6>
20.77

>  <PEOE_VSA7>
79.45

>  <PEOE_VSA8>
12.34

>  <PEOE_VSA9>
6.1

>  <PEOE_VSA10>
5.78

>  <PEOE_VSA11>
0

>  <PEOE_VSA12>
0

>  <PEOE_VSA13>
0

>  <SMR_VSA1>
9.9

>  <SMR_VSA2>
0

>  <SMR_VSA3>
0

>  <SMR_VSA4>
40.42

>  <SMR_VSA5>
78.24

>  <SMR_VSA6>
0

>  <SMR_VSA7>
0

>  <SMR_VSA8>
0

>  <SMR_VSA9>
0

>  <SlogP_VSA1>
0

>  <SlogP_VSA2>
16.99

>  <SlogP_VSA3>
4.79

>  <SlogP_VSA4>
40.42

>  <SlogP_VSA5>
72.14

>  <SlogP_VSA6>
0

>  <SlogP_VSA7>
0

>  <SlogP_VSA8>
0

>  <SlogP_VSA9>
0

>  <SlogP_VSA10>
0

>  <SlogP_VSA11>
0

>  <EState_VSA1>
0

>  <EState_VSA2>
17.44

>  <EState_VSA3>
17.12

>  <EState_VSA4>
37.02

>  <EState_VSA5>
32.1

>  <EState_VSA6>
0

>  <EState_VSA7>
0

>  <EState_VSA8>
20.77

>  <EState_VSA9>
0

>  <EState_VSA10>
9.9

>  <VSA_EState1>
0

>  <VSA_EState2>
12.19

>  <VSA_EState3>
10.5

>  <VSA_EState4>
0.56

>  <VSA_EState5>
3.74

>  <VSA_EState6>
0

>  <VSA_EState7>
9.16

>  <VSA_EState8>
7.01

>  <VSA_EState9>
0

>  <apol>
56.34

>  <bpol>
32.97

>  <nRing>
4

>  <nHRing>
0

>  <naRing>
0

>  <naHRing>
0

>  <nARing 2>
4

>  <nAHRing 2>
0

>  <nFRing>
1

>  <nFHRing>
0

>  <nFaRing>
0

>  <nFaHRing>
0

>  <nFARing 2>
1

>  <nFAHRing 2>
0

>  <nRot>
0

>  <SLogP>
4.21

>  <SMR>
87.29

>  <TopoPSA(NO)>
37.3

>  <TopoPSA>
37.3

>  <JGI1>
0.28

>  <JGI2>
0.14

>  <JGI3>
0.06

>  <JGI4>
0.06

>  <JGI5>
0.04

>  <Diameter>
10

>  <Radius>
5

>  <TMWC10>
125.23

>  <TSRW10>
71.97

>  <MW>
304.24

>  <AMW>
5.63

>  <WPath>
908

>  <WPol>
47

>  <Zagreb1>
132

>  <Zagreb2>
168

>  <mZagreb2>
4.5

>  <yes>


>  <nAR-cont>
0.199399

>  <nHA-cont>
0.983774276

>  <MWHBN>
0.171993921

>  <MWHBN-cont>
0.976984369

>  <TPSA-cont>
0.739622838

>  <pka_cont>
0.97

>  <yes.1>


>  <BBB_SCORE>
4.612895506

>  <MMFF94 Energy>
72.651

$$$$
Compound 2722
Actelion Java MolfileCreator 2.0

  0  0  0  0  0  0              0 V3000
M  V30 BEGIN CTAB
M  V30 COUNTS 31 31 0 0 0
M  V30 BEGIN ATOM
M  V30 1 O 1.012 0.2334 1.791 0
M  V30 2 C 0.8907 0.6917 0.4456 0
M  V30 3 C -0.5744 0.5351 -0.0257 0
M  V30 4 C 1.8721 -0.0778 -0.4435 0
M  V30 5 C -1.5913 1.2662 0.9078 0
M  V30 6 C -0.9262 -0.9619 -0.1721 0
M  V30 7 C 1.5063 -1.562 -0.5598 0
M  V30 8 C -1.244 2.7489 1.0951 0
M  V30 9 C -3.0309 1.1698 0.3841 0
M  V30 10 C 0.0671 -1.7148 -1.0558 0
M  V30 11 C 2.4778 -2.2856 -1.4907 0
M  V30 12 H 1.9353 0.3671 2.0649 0
M  V30 13 H 1.1798 1.7479 0.431 0
M  V30 14 H -0.6467 0.989 -1.0245 0
M  V30 15 H 1.8891 0.3806 -1.4404 0
M  V30 16 H 2.8846 0.0071 -0.0296 0
M  V30 17 H -1.5714 0.793 1.8981 0
M  V30 18 H -0.9645 -1.4355 0.8168 0
M  V30 19 H -1.9186 -1.0799 -0.6196 0
M  V30 20 H 1.5852 -2.0255 0.4322 0
M  V30 21 H -0.3054 2.8754 1.6425 0
M  V30 22 H -2.018 3.2618 1.6769 0
M  V30 23 H -1.1537 3.259 0.1303 0
M  V30 24 H -3.4024 0.1416 0.4158 0
M  V30 25 H -3.712 1.7678 0.9998 0
M  V30 26 H -3.1024 1.5323 -0.6467 0
M  V30 27 H -0.0155 -1.3428 -2.0852 0
M  V30 28 H -0.2077 -2.7761 -1.0811 0
M  V30 29 H 2.446 -1.8689 -2.5031 0
M  V30 30 H 2.2325 -3.3508 -1.5552 0
M  V30 31 H 3.5052 -2.2002 -1.1215 0
M  V30 END ATOM
M  V30 BEGIN BOND
M  V30 1 1 1 2
M  V30 2 1 2 3
M  V30 3 1 2 4
M  V30 4 1 3 5
M  V30 5 1 3 6
M  V30 6 1 4 7
M  V30 7 1 5 8
M  V30 8 1 5 9
M  V30 9 1 6 10
M  V30 10 1 7 11
M  V30 11 1 7 10
M  V30 12 1 1 12
M  V30 13 1 2 13
M  V30 14 1 3 14
M  V30 15 1 4 15
M  V30 16 1 4 16
M  V30 17 1 5 17
M  V30 18 1 6 18
M  V30 19 1 6 19
M  V30 20 1 7 20
M  V30 21 1 8 21
M  V30 22 1 8 22
M  V30 23 1 8 23
M  V30 24 1 9 24
M  V30 25 1 9 25
M  V30 26 1 9 26
M  V30 27 1 10 27
M  V30 28 1 10 28
M  V30 29 1 11 29
M  V30 30 1 11 30
M  V30 31 1 11 31
M  V30 END BOND
M  V30 END CTAB
M  END
>  <Column 1>
3422

>  <level_0>
5659

>  <index>
5660

>  <Unnamed: 0>
5660

>  <NO.>
5672

>  <Name>
menthol

>  <IUPAC_name>
5-methyl-2-propan-2-ylcyclohexan-1-ol

>  <SMILES>
CC1CCC(C(C)C)C(O)C1

>  <CID>
1254

>  <logBB>


>  <BBB+/BBB->
BBB-

>  <Inchi>
InChI=1S/C10H20O/c1-7(2)9-5-4-8(3)6-10(9)11/h7-11H-4-6H2-1-3H3

>  <threshold>


>  <reference>
R23|

>  <group>
C

>  <Class>
-1

>  <ABC>
8.13

>  <ABCGG>
7.77

>  <nAcid>
0

>  <nBase>
0

>  <nAromAtom>
0

>  <nAromBond>
0

>  <nAtom>
31

>  <nHeavyAtom>
11

>  <nSpiro>
0

>  <nBridgehead>
0

>  <nHetero>
1

>  <nN>
0

>  <nO>
1

>  <nF>
0

>  <BalabanJ>
2.44

>  <BertzCT>
120.04

>  <nBonds>
31

>  <nBondsO>
11

>  <nBondsS>
31

>  <nBondsD>
0

>  <nBondsT>
0

>  <nBondsA>
0

>  <nBondsM>
0

>  <nBondsKS>
31

>  <nBondsKD>
0

>  <RNCG>
0.49

>  <RPCG>
0.26

>  <FCSP3>
1

>  <SZ>
14.67

>  <Sm>
13.01

>  <Sv>
16.13

>  <Sse>
30.21

>  <Sp>
18.47

>  <Si>
35.36

>  <MZ>
0.47

>  <Mm>
0.42

>  <Mv>
0.52

>  <Mse>
0.97

>  <Mp>
0.6

>  <Mi>
1.14

>  <NsCH3>
3

>  <NdCH2>
0

>  <NssCH2>
3

>  <NtCH>
0

>  <NdsCH>
0

>  <NaaCH>
0

>  <NsssCH>
4

>  <NddC>
0

>  <NtsC>
0

>  <NdssC>
0

>  <NaasC>
0

>  <NaaaC>
0

>  <NssssC>
0

>  <NsNH3>
0

>  <NsNH2>
0

>  <NssNH2>
0

>  <NdNH>
0

>  <NssNH>
0

>  <NaaNH>
0

>  <NtN>
0

>  <NsssNH>
0

>  <NdsN>
0

>  <NaaN>
0

>  <NsssN>
0

>  <NddsN>
0

>  <NaasN>
0

>  <NssssN>
0

>  <NsOH>
1

>  <NdO>
0

>  <NssO>
0

>  <NaaO>
0

>  <NsF>
0

>  <NsSiH3>
0

>  <NssSiH2>
0

>  <NsssSiH>
0

>  <NssssSi>
0

>  <NsPH2>
0

>  <NssPH>
0

>  <NsssP>
0

>  <NdsssP>
0

>  <NsssssP>
0

>  <NsSH>
0

>  <NdS>
0

>  <NssS>
0

>  <NaaS>
0

>  <NdssS>
0

>  <NddssS>
0

>  <NsCl>
0

>  <NsBr>
0

>  <NsI>
0

>  <fragCpx>
11.01

>  <fMF>
0.19

>  <nHBAcc>
1

>  <nHBDon>
1

>  <Kier1>
9.09

>  <Kier2>
3.6

>  <Lipinski>
1

>  <GhoseFilter>
0

>  <FilterItLogS>
-1.48

>  <VMcGowan>
146.77

>  <LabuteASA>
69.81

>  <PEOE_VSA1>
5.11

>  <PEOE_VSA2>
0

>  <PEOE_VSA3>
0

>  <PEOE_VSA4>
0

>  <PEOE_VSA5>
0

>  <PEOE_VSA6>
27.19

>  <PEOE_VSA7>
30.6

>  <PEOE_VSA8>
0

>  <PEOE_VSA9>
6.1

>  <PEOE_VSA10>
0

>  <PEOE_VSA11>
0

>  <PEOE_VSA12>
0

>  <PEOE_VSA13>
0

>  <SMR_VSA1>
5.11

>  <SMR_VSA2>
0

>  <SMR_VSA3>
0

>  <SMR_VSA4>
17.75

>  <SMR_VSA5>
46.14

>  <SMR_VSA6>
0

>  <SMR_VSA7>
0

>  <SMR_VSA8>
0

>  <SMR_VSA9>
0

>  <SlogP_VSA1>
0

>  <SlogP_VSA2>
11.21

>  <SlogP_VSA3>
0

>  <SlogP_VSA4>
17.75

>  <SlogP_VSA5>
40.03

>  <SlogP_VSA6>
0

>  <SlogP_VSA7>
0

>  <SlogP_VSA8>
0

>  <SlogP_VSA9>
0

>  <SlogP_VSA10>
0

>  <SlogP_VSA11>
0

>  <EState_VSA1>
0

>  <EState_VSA2>
6.1

>  <EState_VSA3>
11.84

>  <EState_VSA4>
12.34

>  <EState_VSA5>
12.84

>  <EState_VSA6>
0

>  <EState_VSA7>
0

>  <EState_VSA8>
20.77

>  <EState_VSA9>
0

>  <EState_VSA10>
5.11

>  <VSA_EState1>
0

>  <VSA_EState2>
0

>  <VSA_EState3>
9.71

>  <VSA_EState4>
0

>  <VSA_EState5>
1.95

>  <VSA_EState6>
0

>  <VSA_EState7>
3.52

>  <VSA_EState8>
6.66

>  <VSA_EState9>
0

>  <apol>
30.84

>  <bpol>
20.06

>  <nRing>
1

>  <nHRing>
0

>  <naRing>
0

>  <naHRing>
0

>  <nARing 2>
1

>  <nAHRing 2>
0

>  <nFRing>
0

>  <nFHRing>
0

>  <nFaRing>
0

>  <nFaHRing>
0

>  <nFARing 2>
0

>  <nFAHRing 2>
0

>  <nRot>
1

>  <SLogP>
2.44

>  <SMR>
47.35

>  <TopoPSA(NO)>
20.23

>  <TopoPSA>
20.23

>  <JGI1>
0.27

>  <JGI2>
0.1

>  <JGI3>
0.08

>  <JGI4>
0.05

>  <JGI5>
0.08

>  <Diameter>
6

>  <Radius>
3

>  <TMWC10>
87.42

>  <TSRW10>
41.02

>  <MW>
156.15

>  <AMW>
5.04

>  <WPath>
150

>  <WPol>
14

>  <Zagreb1>
52

>  <Zagreb2>
58

>  <mZagreb2>
2.47

>  <yes>


>  <nAR-cont>
0.816016

>  <nHA-cont>
0.720786536

>  <MWHBN>
0.160051225

>  <MWHBN-cont>
0.955928609

>  <TPSA-cont>
0.858782038

>  <pka_cont>
0.97

>  <yes.1>


>  <BBB_SCORE>
5.173259525

>  <MMFF94 Energy>
18.276

$$$$
Compound 2723
Actelion Java MolfileCreator 2.0

  0  0  0  0  0  0              0 V3000
M  V30 BEGIN CTAB
M  V30 COUNTS 47 50 0 0 0
M  V30 BEGIN ATOM
M  V30 1 F -1.8508 0.0804 2.7369 0
M  V30 2 C -1.0756 -0.3723 1.7398 0
M  V30 3 C -0.2817 0.5223 0.9983 0
M  V30 4 C -1.1116 -1.7308 1.4669 0
M  V30 5 N -0.2844 1.8865 1.2729 0
M  V30 6 C 0.5258 -0.0162 -0.0402 0
M  V30 7 C -0.3427 -2.2398 0.4214 0
M  V30 8 C -0.057 2.3692 2.6354 0
M  V30 9 C -0.8409 2.8136 0.2919 0
M  V30 10 C 0.4793 -1.3997 -0.3553 0
M  V30 11 C 1.468 0.8878 -0.804 0
M  V30 12 C -0.3992 -3.698 0.1404 0
M  V30 13 C -1.2903 3.0745 3.1867 0
M  V30 14 C -2.0938 3.482 0.8462 0
M  V30 15 N 1.2428 -1.9655 -1.4034 0
M  V30 16 C 2.5852 0.1032 -1.4704 0
M  V30 17 O -1.1251 -4.4148 0.8207 0
M  V30 18 C 0.4329 -4.2277 -0.9679 0
M  V30 19 C -1.8091 4.1177 2.2035 0
M  V30 20 C 1.171 -3.3302 -1.6401 0
M  V30 21 C 2.028 -1.0681 -2.2707 0 CFG=2
M  V30 22 C 0.453 -5.6599 -1.3244 0
M  V30 23 O -2.9994 4.6965 2.733 0
M  V30 24 C 1.1888 -0.6329 -3.4753 0
M  V30 25 O -0.139 -6.5703 -0.7756 0
M  V30 26 O 1.2351 -5.9365 -2.3899 0
M  V30 27 H -1.7462 -2.3763 2.0674 0
M  V30 28 H 0.2515 1.5639 3.3128 0
M  V30 29 H 0.779 3.0792 2.6072 0
M  V30 30 H -0.0876 3.5753 0.0574 0
M  V30 31 H -1.0973 2.3148 -0.6501 0
M  V30 32 H 0.9016 1.4456 -1.5574 0
M  V30 33 H 1.9304 1.6157 -0.1268 0
M  V30 34 H -2.0857 2.3514 3.4031 0
M  V30 35 H -1.0553 3.549 4.147 0
M  V30 36 H -2.9039 2.7475 0.9457 0
M  V30 37 H -2.4596 4.2403 0.1438 0
M  V30 38 H 3.1731 0.7671 -2.1148 0
M  V30 39 H 3.2693 -0.2789 -0.7006 0
M  V30 40 H -1.0721 4.9224 2.0953 0
M  V30 41 H 1.7998 -3.6421 -2.4712 0
M  V30 42 H 2.8934 -1.6207 -2.6613 0
M  V30 43 H -3.3455 5.324 2.0761 0
M  V30 44 H 0.2536 -0.148 -3.1771 0
M  V30 45 H 0.9186 -1.4997 -4.0886 0
M  V30 46 H 1.7494 0.0624 -4.1083 0
M  V30 47 H 1.1322 -6.9079 -2.4837 0
M  V30 END ATOM
M  V30 BEGIN BOND
M  V30 1 1 1 2
M  V30 2 2 2 3
M  V30 3 1 2 4
M  V30 4 1 3 5
M  V30 5 1 3 6
M  V30 6 2 4 7
M  V30 7 1 5 8
M  V30 8 1 5 9
M  V30 9 2 6 10
M  V30 10 1 6 11
M  V30 11 1 7 12
M  V30 12 1 8 13
M  V30 13 1 9 14
M  V30 14 1 10 15
M  V30 15 1 11 16
M  V30 16 2 12 17
M  V30 17 1 12 18
M  V30 18 1 13 19
M  V30 19 1 15 20
M  V30 20 1 15 21
M  V30 21 1 18 22
M  V30 22 1 19 23
M  V30 23 1 21 24
M  V30 24 2 22 25
M  V30 25 1 22 26
M  V30 26 1 7 10
M  V30 27 1 14 19
M  V30 28 1 16 21
M  V30 29 2 18 20
M  V30 30 1 4 27
M  V30 31 1 8 28
M  V30 32 1 8 29
M  V30 33 1 9 30
M  V30 34 1 9 31
M  V30 35 1 11 32
M  V30 36 1 11 33
M  V30 37 1 13 34
M  V30 38 1 13 35
M  V30 39 1 14 36
M  V30 40 1 14 37
M  V30 41 1 16 38
M  V30 42 1 16 39
M  V30 43 1 19 40
M  V30 44 1 20 41
M  V30 45 1 21 42
M  V30 46 1 23 43
M  V30 47 1 24 44
M  V30 48 1 24 45
M  V30 49 1 24 46
M  V30 50 1 26 47
M  V30 END BOND
M  V30 BEGIN COLLECTION
M  V30 MDLV30/STERAC1 ATOMS=(1 21)
M  V30 END COLLECTION
M  V30 END CTAB
M  END
>  <Column 1>
3423

>  <level_0>
5661

>  <index>
5662

>  <Unnamed: 0>
5662

>  <NO.>
5674

>  <Name>
nadifloxacin

>  <IUPAC_name>
7-fluoro-8-(4-hydroxypiperidin-1-yl)-12-methyl-4-oxo-1-azatricyclo[7.3.1.05-13]trideca-2-5-7-9(13)-tetraene-3-carboxylic acid

>  <SMILES>
CC1CCc2c(N3CCC(O)CC3)c(F)cc3c(=O)c(C(=O)O)cn1c23

>  <CID>
4410

>  <logBB>


>  <BBB+/BBB->
BBB-

>  <Inchi>
InChI=1S/C19H21FN2O4/c1-10-2-3-12-16-13(18(24)14(19(25)26)9-22(10)16)8-15(20)17(12)21-6-4-11(23)5-7-21/h8-11-23H-2-7H2-1H3-(H-25-26)

>  <threshold>


>  <reference>
R23|

>  <group>
C

>  <Class>
-1

>  <ABC>
20.76

>  <ABCGG>
16.16

>  <nAcid>
1

>  <nBase>
0

>  <nAromAtom>
10

>  <nAromBond>
11

>  <nAtom>
47

>  <nHeavyAtom>
26

>  <nSpiro>
0

>  <nBridgehead>
0

>  <nHetero>
7

>  <nN>
2

>  <nO>
4

>  <nF>
1

>  <BalabanJ>
1.61

>  <BertzCT>
960.39

>  <nBonds>
50

>  <nBondsO>
29

>  <nBondsS>
37

>  <nBondsD>
2

>  <nBondsT>
0

>  <nBondsA>
11

>  <nBondsM>
13

>  <nBondsKS>
44

>  <nBondsKD>
6

>  <RNCG>
0.2

>  <RPCG>
0.14

>  <FCSP3>
0.47

>  <SZ>
31.67

>  <Sm>
30

>  <Sv>
29.71

>  <Sse>
47.93

>  <Sp>
30.96

>  <Si>
53.33

>  <MZ>
0.67

>  <Mm>
0.64

>  <Mv>
0.63

>  <Mse>
1.02

>  <Mp>
0.66

>  <Mi>
1.13

>  <NsCH3>
1

>  <NdCH2>
0

>  <NssCH2>
6

>  <NtCH>
0

>  <NdsCH>
0

>  <NaaCH>
2

>  <NsssCH>
2

>  <NddC>
0

>  <NtsC>
0

>  <NdssC>
1

>  <NaasC>
4

>  <NaaaC>
2

>  <NssssC>
0

>  <NsNH3>
0

>  <NsNH2>
0

>  <NssNH2>
0

>  <NdNH>
0

>  <NssNH>
0

>  <NaaNH>
0

>  <NtN>
0

>  <NsssNH>
0

>  <NdsN>
0

>  <NaaN>
0

>  <NsssN>
1

>  <NddsN>
0

>  <NaasN>
1

>  <NssssN>
0

>  <NsOH>
2

>  <NdO>
2

>  <NssO>
0

>  <NaaO>
0

>  <NsF>
1

>  <NsSiH3>
0

>  <NssSiH2>
0

>  <NsssSiH>
0

>  <NssssSi>
0

>  <NsPH2>
0

>  <NssPH>
0

>  <NsssP>
0

>  <NdsssP>
0

>  <NsssssP>
0

>  <NsSH>
0

>  <NdS>
0

>  <NssS>
0

>  <NaaS>
0

>  <NdssS>
0

>  <NddssS>
0

>  <NsCl>
0

>  <NsBr>
0

>  <NsI>
0

>  <fragCpx>
191.07

>  <fMF>
0.4

>  <nHBAcc>
5

>  <nHBDon>
2

>  <Kier1>
19.32

>  <Kier2>
7.44

>  <Lipinski>
1

>  <GhoseFilter>
1

>  <FilterItLogS>
-2.99

>  <VMcGowan>
254.53

>  <LabuteASA>
149.02

>  <PEOE_VSA1>
19.68

>  <PEOE_VSA2>
4.79

>  <PEOE_VSA3>
9.18

>  <PEOE_VSA4>
0

>  <PEOE_VSA5>
0

>  <PEOE_VSA6>
0

>  <PEOE_VSA7>
38.67

>  <PEOE_VSA8>
36.28

>  <PEOE_VSA9>
17.31

>  <PEOE_VSA10>
11.38

>  <PEOE_VSA11>
0

>  <PEOE_VSA12>
5.43

>  <PEOE_VSA13>
0

>  <SMR_VSA1>
19.4

>  <SMR_VSA2>
0

>  <SMR_VSA3>
4.57

>  <SMR_VSA4>
0

>  <SMR_VSA5>
44.75

>  <SMR_VSA6>
17.99

>  <SMR_VSA7>
39.43

>  <SMR_VSA8>
0

>  <SMR_VSA9>
0

>  <SlogP_VSA1>
10.33

>  <SlogP_VSA2>
39.94

>  <SlogP_VSA3>
6.42

>  <SlogP_VSA4>
5.82

>  <SlogP_VSA5>
48.15

>  <SlogP_VSA6>
17.06

>  <SlogP_VSA7>
0

>  <SlogP_VSA8>
10.9

>  <SlogP_VSA9>
0

>  <SlogP_VSA10>
10.08

>  <SlogP_VSA11>
0

>  <EState_VSA1>
17.22

>  <EState_VSA2>
23.1

>  <EState_VSA3>
43.56

>  <EState_VSA4>
11.98

>  <EState_VSA5>
12.26

>  <EState_VSA6>
4.57

>  <EState_VSA7>
11.82

>  <EState_VSA8>
0

>  <EState_VSA9>
0

>  <EState_VSA10>
19.8

>  <VSA_EState1>
16.82

>  <VSA_EState2>
25.97

>  <VSA_EState3>
19.19

>  <VSA_EState4>
0.93

>  <VSA_EState5>
-1.79

>  <VSA_EState6>
1.22

>  <VSA_EState7>
3.58

>  <VSA_EState8>
3.09

>  <VSA_EState9>
0

>  <apol>
51.7

>  <bpol>
27.34

>  <nRing>
4

>  <nHRing>
3

>  <naRing>
2

>  <naHRing>
1

>  <nARing 2>
2

>  <nAHRing 2>
2

>  <nFRing>
1

>  <nFHRing>
1

>  <nFaRing>
0

>  <nFaHRing>
0

>  <nFARing 2>
1

>  <nFAHRing 2>
1

>  <nRot>
2

>  <SLogP>
2.31

>  <SMR>
95.61

>  <TopoPSA(NO)>
82.77

>  <TopoPSA>
82.77

>  <JGI1>
0.19

>  <JGI2>
0.09

>  <JGI3>
0.05

>  <JGI4>
0.06

>  <JGI5>
0.03

>  <Diameter>
12

>  <Radius>
6

>  <TMWC10>
133.23

>  <TSRW10>
61.86

>  <MW>
360.15

>  <AMW>
7.66

>  <WPath>
1484

>  <WPol>
51

>  <Zagreb1>
146

>  <Zagreb2>
180

>  <mZagreb2>
5.53

>  <yes>


>  <nAR-cont>
1

>  <nHA-cont>
0.892715677

>  <MWHBN>
0.368855557

>  <MWHBN-cont>
0.59830747

>  <TPSA-cont>
0.422214003

>  <pka_cont>
0.97

>  <yes.1>


>  <BBB_SCORE>
4.119604888

>  <MMFF94 Energy>
41.746

$$$$
Compound 2724
Actelion Java MolfileCreator 2.0

  0  0  0  0  0  0              0 V3000
M  V30 BEGIN CTAB
M  V30 COUNTS 30 32 0 0 0
M  V30 BEGIN ATOM
M  V30 1 S -2.3748 1.965 -0.0818 0
M  V30 2 C -0.6936 2.5091 0.2953 0
M  V30 3 C -1.9648 0.2425 0.2487 0
M  V30 4 O 0.0913 1.3764 0.6891 0
M  V30 5 C -0.6855 3.5184 1.4295 0
M  V30 6 C -0.44 0.1752 0.0821 0
M  V30 7 C 0.17 -1.0366 0.8379 0
M  V30 8 C -0.0014 0.0613 -1.4147 0
M  V30 9 C -0.2751 -2.3406 0.1554 0
M  V30 10 C 1.7056 -0.9742 0.7122 0
M  V30 11 N 0.9118 -1.0889 -1.6529 0
M  V30 12 C 0.2052 -2.3399 -1.3047 0
M  V30 13 C 2.0924 -0.9392 -0.7734 0
M  V30 14 H -0.2463 2.9514 -0.6004 0
M  V30 15 H -2.5095 -0.4325 -0.4166 0
M  V30 16 H -2.2587 0.0295 1.2817 0
M  V30 17 H -1.2629 4.4149 1.1819 0
M  V30 18 H 0.343 3.826 1.6494 0
M  V30 19 H -1.0789 3.0847 2.3562 0
M  V30 20 H -0.1096 -1.0271 1.8974 0
M  V30 21 H 0.5042 0.9764 -1.7463 0
M  V30 22 H -0.8709 -0.0558 -2.0735 0
M  V30 23 H -1.3641 -2.4512 0.1971 0
M  V30 24 H 0.1508 -3.2024 0.6833 0
M  V30 25 H 2.1048 -0.0928 1.2268 0
M  V30 26 H 2.1537 -1.8522 1.1933 0
M  V30 27 H 0.8643 -3.1987 -1.4828 0
M  V30 28 H -0.6494 -2.4814 -1.9778 0
M  V30 29 H 2.8164 -1.7346 -0.9887 0
M  V30 30 H 2.6102 -1.0E-4 -1.0054 0
M  V30 END ATOM
M  V30 BEGIN BOND
M  V30 1 1 1 2
M  V30 2 1 1 3
M  V30 3 1 2 4
M  V30 4 1 2 5
M  V30 5 1 3 6
M  V30 6 1 6 7
M  V30 7 1 6 8
M  V30 8 1 7 9
M  V30 9 1 7 10
M  V30 10 1 8 11
M  V30 11 1 9 12
M  V30 12 1 10 13
M  V30 13 1 4 6
M  V30 14 1 11 12
M  V30 15 1 11 13
M  V30 16 1 2 14
M  V30 17 1 3 15
M  V30 18 1 3 16
M  V30 19 1 5 17
M  V30 20 1 5 18
M  V30 21 1 5 19
M  V30 22 1 7 20
M  V30 23 1 8 21
M  V30 24 1 8 22
M  V30 25 1 9 23
M  V30 26 1 9 24
M  V30 27 1 10 25
M  V30 28 1 10 26
M  V30 29 1 12 27
M  V30 30 1 12 28
M  V30 31 1 13 29
M  V30 32 1 13 30
M  V30 END BOND
M  V30 END CTAB
M  END
>  <Column 1>
3425

>  <level_0>
5665

>  <index>
5666

>  <Unnamed: 0>
5666

>  <NO.>
5678

>  <Name>
cevimeline

>  <IUPAC_name>
2-methylspiro[1-3-oxathiolane-5-3'-1-azabicyclo[2.2.2]octane]

>  <SMILES>
CC1OC2(CS1)CN1CCC2CC1

>  <CID>
2684

>  <logBB>


>  <BBB+/BBB->
BBB-

>  <Inchi>
InChI=1S/C10H17NOS/c1-8-12-10(7-13-8)6-11-4-2-9(10)3-5-11/h8-9H-2-7H2-1H3

>  <threshold>


>  <reference>
R23|

>  <group>
C

>  <Class>
1

>  <ABC>
10.65

>  <ABCGG>
9.33

>  <nAcid>
0

>  <nBase>
1

>  <nAromAtom>
0

>  <nAromBond>
0

>  <nAtom>
30

>  <nHeavyAtom>
13

>  <nSpiro>
1

>  <nBridgehead>
2

>  <nHetero>
3

>  <nN>
1

>  <nO>
1

>  <nF>
0

>  <BalabanJ>
1.83

>  <BertzCT>
214.97

>  <nBonds>
32

>  <nBondsO>
15

>  <nBondsS>
32

>  <nBondsD>
0

>  <nBondsT>
0

>  <nBondsA>
0

>  <nBondsM>
0

>  <nBondsKS>
32

>  <nBondsKD>
0

>  <RNCG>
0.4

>  <RPCG>
0.11

>  <FCSP3>
1

>  <SZ>
18

>  <Sm>
16.59

>  <Sv>
17.27

>  <Sse>
29.62

>  <Sp>
19.66

>  <Si>
33.95

>  <MZ>
0.6

>  <Mm>
0.55

>  <Mv>
0.58

>  <Mse>
0.99

>  <Mp>
0.66

>  <Mi>
1.13

>  <NsCH3>
1

>  <NdCH2>
0

>  <NssCH2>
6

>  <NtCH>
0

>  <NdsCH>
0

>  <NaaCH>
0

>  <NsssCH>
2

>  <NddC>
0

>  <NtsC>
0

>  <NdssC>
0

>  <NaasC>
0

>  <NaaaC>
0

>  <NssssC>
1

>  <NsNH3>
0

>  <NsNH2>
0

>  <NssNH2>
0

>  <NdNH>
0

>  <NssNH>
0

>  <NaaNH>
0

>  <NtN>
0

>  <NsssNH>
0

>  <NdsN>
0

>  <NaaN>
0

>  <NsssN>
1

>  <NddsN>
0

>  <NaasN>
0

>  <NssssN>
0

>  <NsOH>
0

>  <NdO>
0

>  <NssO>
1

>  <NaaO>
0

>  <NsF>
0

>  <NsSiH3>
0

>  <NssSiH2>
0

>  <NsssSiH>
0

>  <NssssSi>
0

>  <NsPH2>
0

>  <NssPH>
0

>  <NsssP>
0

>  <NdsssP>
0

>  <NsssssP>
0

>  <NsSH>
0

>  <NdS>
0

>  <NssS>
1

>  <NaaS>
0

>  <NdssS>
0

>  <NddssS>
0

>  <NsCl>
0

>  <NsBr>
0

>  <NsI>
0

>  <fragCpx>
69.03

>  <fMF>
0.4

>  <nHBAcc>
3

>  <nHBDon>
0

>  <Kier1>
8.32

>  <Kier2>
2.74

>  <Lipinski>
1

>  <GhoseFilter>
1

>  <FilterItLogS>
-1.48

>  <VMcGowan>
151.38

>  <LabuteASA>
84

>  <PEOE_VSA1>
9.64

>  <PEOE_VSA2>
0

>  <PEOE_VSA3>
0

>  <PEOE_VSA4>
0

>  <PEOE_VSA5>
11.76

>  <PEOE_VSA6>
0

>  <PEOE_VSA7>
38.77

>  <PEOE_VSA8>
12.3

>  <PEOE_VSA9>
5.6

>  <PEOE_VSA10>
5.44

>  <PEOE_VSA11>
0

>  <PEOE_VSA12>
0

>  <PEOE_VSA13>
0

>  <SMR_VSA1>
4.74

>  <SMR_VSA2>
0

>  <SMR_VSA3>
4.9

>  <SMR_VSA4>
5.92

>  <SMR_VSA5>
30.8

>  <SMR_VSA6>
25.39

>  <SMR_VSA7>
0

>  <SMR_VSA8>
0

>  <SMR_VSA9>
0

>  <SlogP_VSA1>
0

>  <SlogP_VSA2>
41.32

>  <SlogP_VSA3>
4.74

>  <SlogP_VSA4>
5.92

>  <SlogP_VSA5>
19.77

>  <SlogP_VSA6>
0

>  <SlogP_VSA7>
0

>  <SlogP_VSA8>
0

>  <SlogP_VSA9>
0

>  <SlogP_VSA10>
0

>  <SlogP_VSA11>
0

>  <EState_VSA1>
0

>  <EState_VSA2>
5.6

>  <EState_VSA3>
5.44

>  <EState_VSA4>
5.92

>  <EState_VSA5>
38.23

>  <EState_VSA6>
0

>  <EState_VSA7>
11.76

>  <EState_VSA8>
11.82

>  <EState_VSA9>
4.74

>  <EState_VSA10>
0

>  <VSA_EState1>
6.14

>  <VSA_EState2>
2.58

>  <VSA_EState3>
0

>  <VSA_EState4>
0.68

>  <VSA_EState5>
2.09

>  <VSA_EState6>
0

>  <VSA_EState7>
2.74

>  <VSA_EState8>
6.02

>  <VSA_EState9>
0

>  <apol>
32.84

>  <bpol>
22.96

>  <nRing>
4

>  <nHRing>
4

>  <naRing>
0

>  <naHRing>
0

>  <nARing 2>
4

>  <nAHRing 2>
4

>  <nFRing>
1

>  <nFHRing>
1

>  <nFaRing>
0

>  <nFaHRing>
0

>  <nFARing 2>
1

>  <nFAHRing 2>
1

>  <nRot>
0

>  <SLogP>
1.56

>  <SMR>
54.9

>  <TopoPSA(NO)>
12.47

>  <TopoPSA>
37.77

>  <JGI1>
0.27

>  <JGI2>
0.09

>  <JGI3>
0.05

>  <JGI4>
0.05

>  <JGI5>
0.02

>  <Diameter>
6

>  <Radius>
3

>  <TMWC10>
100.08

>  <TSRW10>
59.69

>  <MW>
199.1

>  <AMW>
6.64

>  <WPath>
213

>  <WPol>
19

>  <Zagreb1>
76

>  <Zagreb2>
93

>  <mZagreb2>
2.71

>  <yes>


>  <nAR-cont>
0.199399

>  <nHA-cont>
0.841215992

>  <MWHBN>
0.212610948

>  <MWHBN-cont>
0.998562267

>  <TPSA-cont>
0.736341946

>  <pka_cont>
0.97

>  <yes.1>


>  <BBB_SCORE>
4.496142286

>  <MMFF94 Energy>
56.685

$$$$
Compound 2725
Actelion Java MolfileCreator 2.0

  0  0  0  0  0  0              0 V3000
M  V30 BEGIN CTAB
M  V30 COUNTS 40 42 0 0 0
M  V30 BEGIN ATOM
M  V30 1 O -1.667 -3.3362 0.7141 0
M  V30 2 C -2.0524 -2.8858 -0.3583 0
M  V30 3 N -1.7546 -1.6133 -0.798 0
M  V30 4 C -2.9015 -3.663 -1.3448 0
M  V30 5 C -0.9513 -0.6987 -0.011 0
M  V30 6 C -3.2272 -5.0619 -0.8547 0
M  V30 7 C 0.5379 -0.9066 -0.2651 0
M  V30 8 C 1.4437 -0.0839 0.6664 0 CFG=2
M  V30 9 C 1.4117 1.3958 0.405 0
M  V30 10 C 2.9323 -0.3707 0.3498 0
M  V30 11 C 0.5633 2.3665 0.8843 0
M  V30 12 C 2.4725 1.7801 -0.4332 0
M  V30 13 C 3.3346 0.6021 -0.7701 0
M  V30 14 C 0.7506 3.6857 0.4876 0
M  V30 15 C -0.5153 2.3184 1.8936 0
M  V30 16 C 2.6513 3.101 -0.8414 0
M  V30 17 O -0.1426 4.5618 1.0534 0
M  V30 18 C 1.7693 4.0755 -0.3694 0
M  V30 19 C -1.1332 3.6962 1.6532 0
M  V30 20 H -2.0909 -1.3076 -1.702 0
M  V30 21 H -2.361 -3.7223 -2.296 0
M  V30 22 H -3.8302 -3.1072 -1.5165 0
M  V30 23 H -1.1862 -0.8443 1.0487 0
M  V30 24 H -1.2587 0.3095 -0.3028 0
M  V30 25 H -3.8399 -5.5909 -1.591 0
M  V30 26 H -3.7798 -5.0288 0.0899 0
M  V30 27 H -2.3139 -5.6426 -0.6886 0
M  V30 28 H 0.7767 -1.9696 -0.1285 0
M  V30 29 H 0.7506 -0.6826 -1.3187 0
M  V30 30 H 1.2358 -0.3117 1.7177 0
M  V30 31 H 3.1278 -1.4138 0.0807 0
M  V30 32 H 3.5348 -0.1526 1.2437 0
M  V30 33 H 3.0758 0.2103 -1.7586 0
M  V30 34 H 4.4014 0.8379 -0.7255 0
M  V30 35 H -1.2462 1.5217 1.7509 0
M  V30 36 H -0.0856 2.252 2.8984 0
M  V30 37 H 3.4734 3.3756 -1.4949 0
M  V30 38 H 1.8854 5.1171 -0.648 0
M  V30 39 H -1.4904 4.1455 2.5857 0
M  V30 40 H -1.9831 3.6324 0.9615 0
M  V30 END ATOM
M  V30 BEGIN BOND
M  V30 1 2 1 2
M  V30 2 1 2 3
M  V30 3 1 2 4
M  V30 4 1 3 5
M  V30 5 1 4 6
M  V30 6 1 5 7
M  V30 7 1 7 8
M  V30 8 1 8 9
M  V30 9 1 8 10
M  V30 10 2 9 11
M  V30 11 1 9 12
M  V30 12 1 10 13
M  V30 13 1 11 14
M  V30 14 1 11 15
M  V30 15 2 12 16
M  V30 16 1 14 17
M  V30 17 2 14 18
M  V30 18 1 15 19
M  V30 19 1 12 13
M  V30 20 1 16 18
M  V30 21 1 17 19
M  V30 22 1 3 20
M  V30 23 1 4 21
M  V30 24 1 4 22
M  V30 25 1 5 23
M  V30 26 1 5 24
M  V30 27 1 6 25
M  V30 28 1 6 26
M  V30 29 1 6 27
M  V30 30 1 7 28
M  V30 31 1 7 29
M  V30 32 1 8 30
M  V30 33 1 10 31
M  V30 34 1 10 32
M  V30 35 1 13 33
M  V30 36 1 13 34
M  V30 37 1 15 35
M  V30 38 1 15 36
M  V30 39 1 16 37
M  V30 40 1 18 38
M  V30 41 1 19 39
M  V30 42 1 19 40
M  V30 END BOND
M  V30 BEGIN COLLECTION
M  V30 MDLV30/STERAC1 ATOMS=(1 8)
M  V30 END COLLECTION
M  V30 END CTAB
M  END
>  <Column 1>
3426

>  <level_0>
5666

>  <index>
5667

>  <Unnamed: 0>
5667

>  <NO.>
5679

>  <Name>
ramelteon

>  <IUPAC_name>
n-[2-(2-6-7-8-tetrahydro-1h-cyclopenta[e][1]benzofuran-8-yl)ethyl]propanamide

>  <SMILES>
CCC(=O)NCCC1CCc2ccc3c(c21)CCO3

>  <CID>
9881626

>  <logBB>


>  <BBB+/BBB->
BBB+

>  <Inchi>
InChI=1S/C16H21NO2/c1-2-15(18)17-9-7-12-4-3-11-5-6-14-13(16(11)12)8-10-19-14/h5-6-12H-2-4-7-10H2-1H3-(H-17-18)

>  <threshold>


>  <reference>
R23|R37|

>  <group>
C

>  <Class>
-1

>  <ABC>
14.8

>  <ABCGG>
12.9

>  <nAcid>
0

>  <nBase>
0

>  <nAromAtom>
6

>  <nAromBond>
6

>  <nAtom>
40

>  <nHeavyAtom>
19

>  <nSpiro>
0

>  <nBridgehead>
0

>  <nHetero>
3

>  <nN>
1

>  <nO>
2

>  <nF>
0

>  <BalabanJ>
1.54

>  <BertzCT>
495.77

>  <nBonds>
42

>  <nBondsO>
21

>  <nBondsS>
35

>  <nBondsD>
1

>  <nBondsT>
0

>  <nBondsA>
6

>  <nBondsM>
7

>  <nBondsKS>
38

>  <nBondsKD>
4

>  <RNCG>
0.34

>  <RPCG>
0.15

>  <FCSP3>
0.56

>  <SZ>
23.33

>  <Sm>
21.59

>  <Sv>
23.88

>  <Sse>
39.65

>  <Sp>
26

>  <Si>
45.07

>  <MZ>
0.58

>  <Mm>
0.54

>  <Mv>
0.6

>  <Mse>
0.99

>  <Mp>
0.65

>  <Mi>
1.13

>  <NsCH3>
1

>  <NdCH2>
0

>  <NssCH2>
7

>  <NtCH>
0

>  <NdsCH>
0

>  <NaaCH>
2

>  <NsssCH>
1

>  <NddC>
0

>  <NtsC>
0

>  <NdssC>
1

>  <NaasC>
4

>  <NaaaC>
0

>  <NssssC>
0

>  <NsNH3>
0

>  <NsNH2>
0

>  <NssNH2>
0

>  <NdNH>
0

>  <NssNH>
1

>  <NaaNH>
0

>  <NtN>
0

>  <NsssNH>
0

>  <NdsN>
0

>  <NaaN>
0

>  <NsssN>
0

>  <NddsN>
0

>  <NaasN>
0

>  <NssssN>
0

>  <NsOH>
0

>  <NdO>
1

>  <NssO>
1

>  <NaaO>
0

>  <NsF>
0

>  <NsSiH3>
0

>  <NssSiH2>
0

>  <NsssSiH>
0

>  <NssssSi>
0

>  <NsPH2>
0

>  <NssPH>
0

>  <NsssP>
0

>  <NdsssP>
0

>  <NsssssP>
0

>  <NsSH>
0

>  <NdS>
0

>  <NssS>
0

>  <NaaS>
0

>  <NdssS>
0

>  <NddssS>
0

>  <NsCl>
0

>  <NsBr>
0

>  <NsI>
0

>  <fragCpx>
99.03

>  <fMF>
0.3

>  <nHBAcc>
2

>  <nHBDon>
1

>  <Kier1>
13.96

>  <Kier2>
6.19

>  <Lipinski>
1

>  <GhoseFilter>
1

>  <FilterItLogS>
-4.59

>  <VMcGowan>
208.24

>  <LabuteASA>
113.89

>  <PEOE_VSA1>
10.05

>  <PEOE_VSA2>
4.79

>  <PEOE_VSA3>
0

>  <PEOE_VSA4>
0

>  <PEOE_VSA5>
0

>  <PEOE_VSA6>
12.99

>  <PEOE_VSA7>
42.37

>  <PEOE_VSA8>
24.95

>  <PEOE_VSA9>
6.61

>  <PEOE_VSA10>
5.75

>  <PEOE_VSA11>
0

>  <PEOE_VSA12>
5.91

>  <PEOE_VSA13>
0

>  <SMR_VSA1>
9.53

>  <SMR_VSA2>
0

>  <SMR_VSA3>
5.32

>  <SMR_VSA4>
0

>  <SMR_VSA5>
44.95

>  <SMR_VSA6>
13.15

>  <SMR_VSA7>
28.82

>  <SMR_VSA8>
0

>  <SMR_VSA9>
5.75

>  <SlogP_VSA1>
10.05

>  <SlogP_VSA2>
19.06

>  <SlogP_VSA3>
17.64

>  <SlogP_VSA4>
0

>  <SlogP_VSA5>
48.79

>  <SlogP_VSA6>
12.13

>  <SlogP_VSA7>
0

>  <SlogP_VSA8>
0

>  <SlogP_VSA9>
0

>  <SlogP_VSA10>
0

>  <SlogP_VSA11>
5.75

>  <EState_VSA1>
0

>  <EState_VSA2>
5.91

>  <EState_VSA3>
12.34

>  <EState_VSA4>
31.74

>  <EState_VSA5>
29.53

>  <EState_VSA6>
0

>  <EState_VSA7>
6.92

>  <EState_VSA8>
17.45

>  <EState_VSA9>
4.74

>  <EState_VSA10>
4.79

>  <VSA_EState1>
5.66

>  <VSA_EState2>
11.29

>  <VSA_EState3>
2.99

>  <VSA_EState4>
4.46

>  <VSA_EState5>
1.84

>  <VSA_EState6>
4.35

>  <VSA_EState7>
5.07

>  <VSA_EState8>
3.51

>  <VSA_EState9>
0

>  <apol>
43.43

>  <bpol>
24.24

>  <nRing>
3

>  <nHRing>
1

>  <naRing>
1

>  <naHRing>
0

>  <nARing 2>
2

>  <nAHRing 2>
1

>  <nFRing>
1

>  <nFHRing>
1

>  <nFaRing>
0

>  <nFaHRing>
0

>  <nFARing 2>
1

>  <nFAHRing 2>
1

>  <nRot>
4

>  <SLogP>
2.57

>  <SMR>
74.62

>  <TopoPSA(NO)>
38.33

>  <TopoPSA>
38.33

>  <JGI1>
0.14

>  <JGI2>
0.08

>  <JGI3>
0.04

>  <JGI4>
0.03

>  <JGI5>
0.02

>  <Diameter>
10

>  <Radius>
5

>  <TMWC10>
113.46

>  <TSRW10>
68.25

>  <MW>
259.16

>  <AMW>
6.48

>  <WPath>
735

>  <WPol>
27

>  <Zagreb1>
100

>  <Zagreb2>
119

>  <mZagreb2>
4.28

>  <yes>


>  <nAR-cont>
1

>  <nHA-cont>
0.998649058

>  <MWHBN>
0.186353378

>  <MWHBN-cont>
0.993082551

>  <TPSA-cont>
0.732432798

>  <pka_cont>
0.97

>  <yes.1>


>  <BBB_SCORE>
5.438138481

>  <MMFF94 Energy>
9.2882

$$$$
Compound 2726
Actelion Java MolfileCreator 2.0

  0  0  0  0  0  0              0 V3000
M  V30 BEGIN CTAB
M  V30 COUNTS 43 44 0 0 0
M  V30 BEGIN ATOM
M  V30 1 O 4.1744 0.3932 -4.2533 0
M  V30 2 C 3.2991 0.6397 -3.4316 0
M  V30 3 N 2.0891 1.1691 -3.7671 0
M  V30 4 C 3.5156 0.3682 -1.9923 0
M  V30 5 C 1.0705 1.4516 -2.8438 0
M  V30 6 C 2.5677 0.6228 -1.0797 0
M  V30 7 C -0.127 1.9946 -3.3131 0
M  V30 8 C 1.2643 1.184 -1.4745 0
M  V30 9 O -0.2615 2.2368 -4.6533 0
M  V30 10 C -1.1561 2.2806 -2.43 0
M  V30 11 C 0.2184 1.4646 -0.5647 0
M  V30 12 C -0.9821 2.0145 -1.0695 0
M  V30 13 C 0.3415 1.1644 0.9256 0
M  V30 14 O -0.6094 1.9455 1.6688 0
M  V30 15 C 0.1355 -0.3601 1.2531 0
M  V30 16 N -1.3209 -0.6257 1.3813 0
M  V30 17 C 0.9402 -0.7597 2.5137 0
M  V30 18 C -1.696 -2.0301 1.6015 0
M  V30 19 C 0.4929 -0.1108 3.8171 0
M  V30 20 C -3.207 -2.0653 1.849 0
M  V30 21 C -1.3481 -2.933 0.4169 0
M  V30 22 H 1.913 1.3719 -4.7439 0
M  V30 23 H 4.4825 -0.0402 -1.7265 0
M  V30 24 H 2.775 0.4181 -0.0375 0
M  V30 25 H -1.1277 2.6493 -4.809 0
M  V30 26 H -2.094 2.7083 -2.7703 0
M  V30 27 H -1.8002 2.2525 -0.3901 0
M  V30 28 H 1.3237 1.5083 1.2671 0
M  V30 29 H -1.2214 1.285 2.0561 0
M  V30 30 H 0.5416 -0.9463 0.421 0
M  V30 31 H -1.7748 -0.3073 0.52 0
M  V30 32 H 1.9967 -0.5117 2.3504 0
M  V30 33 H 0.9142 -1.8486 2.6375 0
M  V30 34 H -1.2166 -2.4184 2.506 0
M  V30 35 H 0.6313 0.9736 3.7936 0
M  V30 36 H -0.557 -0.3244 4.037 0
M  V30 37 H 1.0915 -0.4981 4.6483 0
M  V30 38 H -3.7682 -1.706 0.9788 0
M  V30 39 H -3.4785 -1.4421 2.7088 0
M  V30 40 H -3.5397 -3.0866 2.0645 0
M  V30 41 H -0.2658 -3.0264 0.2859 0
M  V30 42 H -1.7738 -2.5507 -0.5175 0
M  V30 43 H -1.7421 -3.9432 0.5736 0
M  V30 END ATOM
M  V30 BEGIN BOND
M  V30 1 2 1 2
M  V30 2 1 2 3
M  V30 3 1 2 4
M  V30 4 1 3 5
M  V30 5 2 4 6
M  V30 6 2 5 7
M  V30 7 1 5 8
M  V30 8 1 7 9
M  V30 9 1 7 10
M  V30 10 2 8 11
M  V30 11 2 10 12
M  V30 12 1 11 13
M  V30 13 1 13 14
M  V30 14 1 13 15
M  V30 15 1 15 16
M  V30 16 1 15 17
M  V30 17 1 16 18
M  V30 18 1 17 19
M  V30 19 1 18 20
M  V30 20 1 18 21
M  V30 21 1 6 8
M  V30 22 1 11 12
M  V30 23 1 3 22
M  V30 24 1 4 23
M  V30 25 1 6 24
M  V30 26 1 9 25
M  V30 27 1 10 26
M  V30 28 1 12 27
M  V30 29 1 13 28
M  V30 30 1 14 29
M  V30 31 1 15 30
M  V30 32 1 16 31
M  V30 33 1 17 32
M  V30 34 1 17 33
M  V30 35 1 18 34
M  V30 36 1 19 35
M  V30 37 1 19 36
M  V30 38 1 19 37
M  V30 39 1 20 38
M  V30 40 1 20 39
M  V30 41 1 20 40
M  V30 42 1 21 41
M  V30 43 1 21 42
M  V30 44 1 21 43
M  V30 END BOND
M  V30 END CTAB
M  END
>  <Column 1>
3430

>  <level_0>
5670

>  <index>
5671

>  <Unnamed: 0>
5671

>  <NO.>
5683

>  <Name>
procaterol

>  <IUPAC_name>
8-hydroxy-5-[1-hydroxy-2-(propan-2-ylamino)butyl]-1h-quinolin-2-one

>  <SMILES>
CCC(NC(C)C)C(O)c1ccc(O)c2[nH]c(=O)ccc12

>  <CID>
4916

>  <logBB>


>  <BBB+/BBB->
BBB-

>  <Inchi>
InChI=1S/C16H22N2O3/c1-4-12(17-9(2)3)16(21)11-5-7-13(19)15-10(11)6-8-14(20)18-15/h5-9-12-16-17-19-21H-4H2-1-3H3-(H-18-20)

>  <threshold>


>  <reference>
R23|

>  <group>
C

>  <Class>
1

>  <ABC>
15.9

>  <ABCGG>
13.87

>  <nAcid>
0

>  <nBase>
1

>  <nAromAtom>
10

>  <nAromBond>
11

>  <nAtom>
43

>  <nHeavyAtom>
21

>  <nSpiro>
0

>  <nBridgehead>
0

>  <nHetero>
5

>  <nN>
2

>  <nO>
3

>  <nF>
0

>  <BalabanJ>
2.07

>  <BertzCT>
678.77

>  <nBonds>
44

>  <nBondsO>
22

>  <nBondsS>
32

>  <nBondsD>
1

>  <nBondsT>
0

>  <nBondsA>
11

>  <nBondsM>
12

>  <nBondsKS>
39

>  <nBondsKD>
5

>  <RNCG>
0.24

>  <RPCG>
0.14

>  <FCSP3>
0.44

>  <SZ>
26

>  <Sm>
24.17

>  <Sv>
25.62

>  <Sse>
43.08

>  <Sp>
27.54

>  <Si>
48.78

>  <MZ>
0.6

>  <Mm>
0.56

>  <Mv>
0.6

>  <Mse>
1

>  <Mp>
0.64

>  <Mi>
1.13

>  <NsCH3>
3

>  <NdCH2>
0

>  <NssCH2>
1

>  <NtCH>
0

>  <NdsCH>
0

>  <NaaCH>
4

>  <NsssCH>
3

>  <NddC>
0

>  <NtsC>
0

>  <NdssC>
0

>  <NaasC>
2

>  <NaaaC>
2

>  <NssssC>
0

>  <NsNH3>
0

>  <NsNH2>
0

>  <NssNH2>
0

>  <NdNH>
0

>  <NssNH>
1

>  <NaaNH>
1

>  <NtN>
0

>  <NsssNH>
0

>  <NdsN>
0

>  <NaaN>
0

>  <NsssN>
0

>  <NddsN>
0

>  <NaasN>
0

>  <NssssN>
0

>  <NsOH>
2

>  <NdO>
1

>  <NssO>
0

>  <NaaO>
0

>  <NsF>
0

>  <NsSiH3>
0

>  <NssSiH2>
0

>  <NsssSiH>
0

>  <NssssSi>
0

>  <NsPH2>
0

>  <NssPH>
0

>  <NsssP>
0

>  <NdsssP>
0

>  <NsssssP>
0

>  <NsSH>
0

>  <NdS>
0

>  <NssS>
0

>  <NaaS>
0

>  <NdssS>
0

>  <NddssS>
0

>  <NsCl>
0

>  <NsBr>
0

>  <NsI>
0

>  <fragCpx>
64.05

>  <fMF>
0.23

>  <nHBAcc>
4

>  <nHBDon>
4

>  <Kier1>
17.36

>  <Kier2>
7.51

>  <Lipinski>
1

>  <GhoseFilter>
1

>  <FilterItLogS>
-3.61

>  <VMcGowan>
230.65

>  <LabuteASA>
123.19

>  <PEOE_VSA1>
20.51

>  <PEOE_VSA2>
4.79

>  <PEOE_VSA3>
0

>  <PEOE_VSA4>
0

>  <PEOE_VSA5>
0

>  <PEOE_VSA6>
26.84

>  <PEOE_VSA7>
24.12

>  <PEOE_VSA8>
23.54

>  <PEOE_VSA9>
11.62

>  <PEOE_VSA10>
5.75

>  <PEOE_VSA11>
0

>  <PEOE_VSA12>
5.56

>  <PEOE_VSA13>
0

>  <SMR_VSA1>
10.21

>  <SMR_VSA2>
0

>  <SMR_VSA3>
10.3

>  <SMR_VSA4>
0

>  <SMR_VSA5>
45.38

>  <SMR_VSA6>
0

>  <SMR_VSA7>
40.18

>  <SMR_VSA8>
0

>  <SMR_VSA9>
5.75

>  <SlogP_VSA1>
10.88

>  <SlogP_VSA2>
27.28

>  <SlogP_VSA3>
0

>  <SlogP_VSA4>
0

>  <SlogP_VSA5>
38.86

>  <SlogP_VSA6>
29.06

>  <SlogP_VSA7>
0

>  <SlogP_VSA8>
10.9

>  <SlogP_VSA9>
0

>  <SlogP_VSA10>
0

>  <SlogP_VSA11>
5.75

>  <EState_VSA1>
6.1

>  <EState_VSA2>
23.39

>  <EState_VSA3>
16.47

>  <EState_VSA4>
6.42

>  <EState_VSA5>
12.13

>  <EState_VSA6>
12.13

>  <EState_VSA7>
20.77

>  <EState_VSA8>
10.3

>  <EState_VSA9>
0

>  <EState_VSA10>
15.01

>  <VSA_EState1>
0

>  <VSA_EState2>
14.02

>  <VSA_EState3>
24.52

>  <VSA_EState4>
0.77

>  <VSA_EState5>
0

>  <VSA_EState6>
6.39

>  <VSA_EState7>
0.05

>  <VSA_EState8>
6.07

>  <VSA_EState9>
0

>  <apol>
46

>  <bpol>
24.08

>  <nRing>
2

>  <nHRing>
1

>  <naRing>
2

>  <naHRing>
1

>  <nARing 2>
0

>  <nAHRing 2>
0

>  <nFRing>
1

>  <nFHRing>
1

>  <nFaRing>
1

>  <nFaHRing>
1

>  <nFARing 2>
0

>  <nFAHRing 2>
0

>  <nRot>
5

>  <SLogP>
2.04

>  <SMR>
83.54

>  <TopoPSA(NO)>
85.35

>  <TopoPSA>
85.35

>  <JGI1>
0.23

>  <JGI2>
0.09

>  <JGI3>
0.06

>  <JGI4>
0.05

>  <JGI5>
0.03

>  <Diameter>
10

>  <Radius>
5

>  <TMWC10>
116.63

>  <TSRW10>
54.84

>  <MW>
290.16

>  <AMW>
6.75

>  <WPath>
896

>  <WPol>
34

>  <Zagreb1>
106

>  <Zagreb2>
124

>  <mZagreb2>
4.72

>  <yes>


>  <nAR-cont>
0.336376

>  <nHA-cont>
0.994529749

>  <MWHBN>
0.469646636

>  <MWHBN-cont>
0

>  <TPSA-cont>
0.404204001

>  <pka_cont>
0.97

>  <yes.1>


>  <BBB_SCORE>
2.624313751

>  <MMFF94 Energy>
34.137

$$$$
Compound 2727
Actelion Java MolfileCreator 2.0

  0  0  0  0  0  0              0 V3000
M  V30 BEGIN CTAB
M  V30 COUNTS 39 39 0 0 0
M  V30 BEGIN ATOM
M  V30 1 O -4.044 -1.6316 0.3882 0
M  V30 2 C -3.1781 -0.9505 -0.4159 0
M  V30 3 C -2.0477 -0.3256 0.1058 0
M  V30 4 C -3.456 -0.9006 -1.7743 0
M  V30 5 C -1.162 0.3653 -0.7394 0
M  V30 6 C -2.5906 -0.2183 -2.6254 0
M  V30 7 C -1.4518 0.4096 -2.1124 0
M  V30 8 C 0.0742 1.0331 -0.1373 0
M  V30 9 C 1.3754 0.1736 -0.2528 0
M  V30 10 C 0.2295 2.4858 -0.6582 0
M  V30 11 C 1.2671 -1.2136 0.4365 0
M  V30 12 C 1.8631 -0.027 -1.6949 0
M  V30 13 C 1.2799 3.2958 0.0909 0
M  V30 14 N 0.8789 -1.1739 1.8609 0
M  V30 15 C 1.9204 -0.5739 2.6976 0
M  V30 16 C 0.5902 -2.5318 2.3327 0
M  V30 17 H -3.7131 -1.5776 1.3 0
M  V30 18 H -1.8373 -0.3764 1.1711 0
M  V30 19 H -4.3412 -1.3911 -2.1676 0
M  V30 20 H -2.8012 -0.1754 -3.6905 0
M  V30 21 H -0.7936 0.9296 -2.8035 0
M  V30 22 H -0.1303 1.15 0.937 0
M  V30 23 H 2.1787 0.7203 0.2545 0
M  V30 24 H 0.4672 2.5078 -1.7269 0
M  V30 25 H -0.7322 3.0052 -0.5501 0
M  V30 26 H 2.225 -1.7422 0.3319 0
M  V30 27 H 0.5339 -1.8123 -0.1195 0
M  V30 28 H 2.8364 -0.5308 -1.6984 0
M  V30 29 H 1.9956 0.9258 -2.2144 0
M  V30 30 H 1.176 -0.6487 -2.2763 0
M  V30 31 H 1.1047 3.2675 1.1709 0
M  V30 32 H 2.2899 2.9276 -0.1091 0
M  V30 33 H 1.2434 4.3421 -0.2296 0
M  V30 34 H 2.0722 0.4805 2.4475 0
M  V30 35 H 2.8789 -1.0969 2.6046 0
M  V30 36 H 1.6224 -0.5914 3.7524 0
M  V30 37 H 1.4631 -3.1903 2.258 0
M  V30 38 H -0.2287 -2.9747 1.7549 0
M  V30 39 H 0.2583 -2.5142 3.3769 0
M  V30 END ATOM
M  V30 BEGIN BOND
M  V30 1 1 1 2
M  V30 2 2 2 3
M  V30 3 1 2 4
M  V30 4 1 3 5
M  V30 5 2 4 6
M  V30 6 2 5 7
M  V30 7 1 5 8
M  V30 8 1 8 9
M  V30 9 1 8 10
M  V30 10 1 9 11
M  V30 11 1 9 12
M  V30 12 1 10 13
M  V30 13 1 11 14
M  V30 14 1 14 15
M  V30 15 1 14 16
M  V30 16 1 6 7
M  V30 17 1 1 17
M  V30 18 1 3 18
M  V30 19 1 4 19
M  V30 20 1 6 20
M  V30 21 1 7 21
M  V30 22 1 8 22
M  V30 23 1 9 23
M  V30 24 1 10 24
M  V30 25 1 10 25
M  V30 26 1 11 26
M  V30 27 1 11 27
M  V30 28 1 12 28
M  V30 29 1 12 29
M  V30 30 1 12 30
M  V30 31 1 13 31
M  V30 32 1 13 32
M  V30 33 1 13 33
M  V30 34 1 15 34
M  V30 35 1 15 35
M  V30 36 1 15 36
M  V30 37 1 16 37
M  V30 38 1 16 38
M  V30 39 1 16 39
M  V30 END BOND
M  V30 END CTAB
M  END
>  <Column 1>
3431

>  <level_0>
5671

>  <index>
5672

>  <Unnamed: 0>
5672

>  <NO.>
5684

>  <Name>
3-(1-(dimethylamino)-2-methylpentan-3-yl)phenol

>  <IUPAC_name>
3-[1-(dimethylamino)-2-methylpentan-3-yl]phenol

>  <SMILES>
CCC(c1cccc(O)c1)C(C)CN(C)C

>  <CID>
6433091

>  <logBB>


>  <BBB+/BBB->
BBB+

>  <Inchi>
InChI=1S/C14H23NO/c1-5-14(11(2)10-15(3)4)12-7-6-8-13(16)9-12/h6-9-11-14-16H-5-10H2-1-4H3

>  <threshold>


>  <reference>
R23|

>  <group>
C

>  <Class>
-1

>  <ABC>
11.67

>  <ABCGG>
10.99

>  <nAcid>
0

>  <nBase>
1

>  <nAromAtom>
6

>  <nAromBond>
6

>  <nAtom>
39

>  <nHeavyAtom>
16

>  <nSpiro>
0

>  <nBridgehead>
0

>  <nHetero>
2

>  <nN>
1

>  <nO>
1

>  <nF>
0

>  <BalabanJ>
2.51

>  <BertzCT>
322.27

>  <nBonds>
39

>  <nBondsO>
16

>  <nBondsS>
33

>  <nBondsD>
0

>  <nBondsT>
0

>  <nBondsA>
6

>  <nBondsM>
6

>  <nBondsKS>
36

>  <nBondsKD>
3

>  <RNCG>
0.41

>  <RPCG>
0.23

>  <FCSP3>
0.57

>  <SZ>
20.33

>  <Sm>
18.43

>  <Sv>
21.7

>  <Sse>
38.2

>  <Sp>
24.32

>  <Si>
44.28

>  <MZ>
0.52

>  <Mm>
0.47

>  <Mv>
0.56

>  <Mse>
0.98

>  <Mp>
0.62

>  <Mi>
1.14

>  <NsCH3>
4

>  <NdCH2>
0

>  <NssCH2>
2

>  <NtCH>
0

>  <NdsCH>
0

>  <NaaCH>
4

>  <NsssCH>
2

>  <NddC>
0

>  <NtsC>
0

>  <NdssC>
0

>  <NaasC>
2

>  <NaaaC>
0

>  <NssssC>
0

>  <NsNH3>
0

>  <NsNH2>
0

>  <NssNH2>
0

>  <NdNH>
0

>  <NssNH>
0

>  <NaaNH>
0

>  <NtN>
0

>  <NsssNH>
0

>  <NdsN>
0

>  <NaaN>
0

>  <NsssN>
1

>  <NddsN>
0

>  <NaasN>
0

>  <NssssN>
0

>  <NsOH>
1

>  <NdO>
0

>  <NssO>
0

>  <NaaO>
0

>  <NsF>
0

>  <NsSiH3>
0

>  <NssSiH2>
0

>  <NsssSiH>
0

>  <NssssSi>
0

>  <NsPH2>
0

>  <NssPH>
0

>  <NsssP>
0

>  <NdsssP>
0

>  <NsssssP>
0

>  <NsSH>
0

>  <NdS>
0

>  <NssS>
0

>  <NaaS>
0

>  <NdssS>
0

>  <NddssS>
0

>  <NsCl>
0

>  <NsBr>
0

>  <NsI>
0

>  <fragCpx>
16.02

>  <fMF>
0.15

>  <nHBAcc>
2

>  <nHBDon>
1

>  <Kier1>
14.06

>  <Kier2>
6.67

>  <Lipinski>
1

>  <GhoseFilter>
1

>  <FilterItLogS>
-3.02

>  <VMcGowan>
200.21

>  <LabuteASA>
98.91

>  <PEOE_VSA1>
10.01

>  <PEOE_VSA2>
0

>  <PEOE_VSA3>
0

>  <PEOE_VSA4>
0

>  <PEOE_VSA5>
0

>  <PEOE_VSA6>
25.98

>  <PEOE_VSA7>
50.05

>  <PEOE_VSA8>
6.54

>  <PEOE_VSA9>
0

>  <PEOE_VSA10>
5.75

>  <PEOE_VSA11>
0

>  <PEOE_VSA12>
0

>  <PEOE_VSA13>
0

>  <SMR_VSA1>
5.11

>  <SMR_VSA2>
0

>  <SMR_VSA3>
4.9

>  <SMR_VSA4>
5.92

>  <SMR_VSA5>
26.19

>  <SMR_VSA6>
20.64

>  <SMR_VSA7>
29.83

>  <SMR_VSA8>
0

>  <SMR_VSA9>
5.75

>  <SlogP_VSA1>
0

>  <SlogP_VSA2>
30.65

>  <SlogP_VSA3>
0

>  <SlogP_VSA4>
5.92

>  <SlogP_VSA5>
31.75

>  <SlogP_VSA6>
24.27

>  <SlogP_VSA7>
0

>  <SlogP_VSA8>
0

>  <SlogP_VSA9>
0

>  <SlogP_VSA10>
0

>  <SlogP_VSA11>
5.75

>  <EState_VSA1>
0

>  <EState_VSA2>
0

>  <EState_VSA3>
17.59

>  <EState_VSA4>
12.97

>  <EState_VSA5>
5.56

>  <EState_VSA6>
6.07

>  <EState_VSA7>
12.13

>  <EState_VSA8>
38.91

>  <EState_VSA9>
0

>  <EState_VSA10>
5.11

>  <VSA_EState1>
0

>  <VSA_EState2>
2.22

>  <VSA_EState3>
9.51

>  <VSA_EState4>
1.25

>  <VSA_EState5>
1.49

>  <VSA_EState6>
7.66

>  <VSA_EState7>
1.11

>  <VSA_EState8>
5.56

>  <VSA_EState9>
4.21

>  <apol>
40.62

>  <bpol>
24.78

>  <nRing>
1

>  <nHRing>
0

>  <naRing>
1

>  <naHRing>
0

>  <nARing 2>
0

>  <nAHRing 2>
0

>  <nFRing>
0

>  <nFHRing>
0

>  <nFaRing>
0

>  <nFaHRing>
0

>  <nFARing 2>
0

>  <nFAHRing 2>
0

>  <nRot>
5

>  <SLogP>
3.08

>  <SMR>
68.86

>  <TopoPSA(NO)>
23.47

>  <TopoPSA>
23.47

>  <JGI1>
0.25

>  <JGI2>
0.08

>  <JGI3>
0.07

>  <JGI4>
0.03

>  <JGI5>
0.04

>  <Diameter>
8

>  <Radius>
4

>  <TMWC10>
100.58

>  <TSRW10>
47.59

>  <MW>
221.18

>  <AMW>
5.67

>  <WPath>
448

>  <WPol>
21

>  <Zagreb1>
74

>  <Zagreb2>
82

>  <mZagreb2>
3.72

>  <yes>


>  <nAR-cont>
0.336376

>  <nHA-cont>
0.954961865

>  <MWHBN>
0.201719707

>  <MWHBN-cont>
0.999864743

>  <TPSA-cont>
0.836164826

>  <pka_cont>
0.97

>  <yes.1>


>  <BBB_SCORE>
4.948464631

>  <MMFF94 Energy>
26.821

$$$$
Compound 2728
Actelion Java MolfileCreator 2.0

  0  0  0  0  0  0              0 V3000
M  V30 BEGIN CTAB
M  V30 COUNTS 105 113 0 0 0
M  V30 BEGIN ATOM
M  V30 1 O 2.2608 -1.2914 2.18 0
M  V30 2 C 2.7728 -1.2273 1.0647 0
M  V30 3 O 3.7961 -0.3598 0.7766 0
M  V30 4 C 2.2575 -1.9712 -0.2211 0
M  V30 5 C 4.2832 0.3657 1.9059 0
M  V30 6 C 1.2255 -1.0698 -0.9984 0
M  V30 7 C 1.5505 -3.2325 0.3013 0
M  V30 8 C 3.4592 -2.2486 -1.1944 0
M  V30 9 C 0.5223 -1.5608 -2.1351 0
M  V30 10 C 0.9274 0.2388 -0.5658 0
M  V30 11 N 0.2315 -3.1911 0.7229 0
M  V30 12 C 1.9938 -4.5049 0.5972 0
M  V30 13 C 4.5271 -3.3028 -0.8305 0
M  V30 14 O 0.8058 -2.8293 -2.5794 0
M  V30 15 C -0.4048 -0.7689 -2.8303 0
M  V30 16 C -0.0298 0.9914 -1.2388 0
M  V30 17 C -0.1777 -4.4079 1.2138 0
M  V30 18 N 3.2602 -4.9537 0.4284 0
M  V30 19 C 0.923 -5.2573 1.1574 0
M  V30 20 C 5.2633 -3.0307 0.4624 0
M  V30 21 C 3.9294 -4.7171 -0.8411 0
M  V30 22 C -0.3499 -3.6423 -2.7788 0
M  V30 23 C -0.6923 0.4965 -2.3638 0
M  V30 24 C -0.459 2.427 -1.0034 0
M  V30 25 C -1.4214 -4.8089 1.7157 0
M  V30 26 C 4.1488 -4.9918 1.5944 0
M  V30 27 C 0.7792 -6.5801 1.6232 0
M  V30 28 C 5.1024 -3.8058 1.5555 0
M  V30 29 N -1.6115 1.4005 -2.8564 0
M  V30 30 C -1.7921 2.4777 -1.844 0
M  V30 31 C -0.5343 2.9209 0.4572 0
M  V30 32 C 0.6121 3.3594 -1.6522 0
M  V30 33 C -1.54 -6.1263 2.1696 0
M  V30 34 C -0.4571 -7.0021 2.1251 0
M  V30 35 C 5.8439 -3.5399 2.8321 0
M  V30 36 C -2.3476 1.2857 -4.0896 0
M  V30 37 C -3.0782 2.2168 -1.0058 0
M  V30 38 N -0.1618 4.3456 0.3088 0
M  V30 39 C -1.8874 2.7403 1.2315 0
M  V30 40 C 1.0 4.3545 -0.5688 0
M  V30 41 O -3.1736 0.8183 -0.6515 0
M  V30 42 C -4.3272 2.5231 -1.8619 0
M  V30 43 C -3.1038 3.0505 0.2915 0
M  V30 44 C 0.1007 4.9704 1.6049 0
M  V30 45 C -1.915 3.7226 2.4195 0
M  V30 46 C -1.8895 1.3034 1.8511 0
M  V30 47 O -5.1694 1.6838 -2.1698 0
M  V30 48 O -4.3686 3.8161 -2.2918 0
M  V30 49 O -3.0559 4.4573 -0.0738 0
M  V30 50 C -1.0064 4.6994 2.5809 0
M  V30 51 C -3.176 0.8564 2.5414 0
M  V30 52 C -5.5207 4.1421 -3.0715 0
M  V30 53 C -3.9643 5.291 0.4964 0
M  V30 54 O -4.8795 4.9562 1.2341 0
M  V30 55 C -3.6948 6.7007 0.0685 0
M  V30 56 H 5.1343 0.9688 1.578 0
M  V30 57 H 3.5092 1.0381 2.2886 0
M  V30 58 H 4.6267 -0.3188 2.6878 0
M  V30 59 H 3.0859 -2.547 -2.1805 0
M  V30 60 H 3.9797 -1.3018 -1.3991 0
M  V30 61 H 1.43 0.6873 0.284 0
M  V30 62 H -0.3571 -2.3703 0.6894 0
M  V30 63 H 5.2769 -3.2756 -1.6334 0
M  V30 64 H -0.8981 -1.1473 -3.7174 0
M  V30 65 H 5.9431 -2.1831 0.4771 0
M  V30 66 H 3.2487 -4.8651 -1.6896 0
M  V30 67 H 4.7306 -5.4582 -0.9655 0
M  V30 68 H -1.1164 -3.4693 -2.0149 0
M  V30 69 H -0.0371 -4.6886 -2.7116 0
M  V30 70 H -0.7615 -3.4773 -3.7791 0
M  V30 71 H -2.2635 -4.126 1.7579 0
M  V30 72 H 3.573 -4.9778 2.5285 0
M  V30 73 H 4.7281 -5.9226 1.5808 0
M  V30 74 H 1.6233 -7.261 1.5838 0
M  V30 75 H -1.8784 3.4464 -2.3513 0
M  V30 76 H 0.2608 2.437 1.0444 0
M  V30 77 H 0.2077 3.9001 -2.5163 0
M  V30 78 H 1.5046 2.826 -2.0008 0
M  V30 79 H -2.4924 -6.4702 2.5664 0
M  V30 80 H -0.57 -8.0219 2.4832 0
M  V30 81 H 6.4429 -4.4124 3.1116 0
M  V30 82 H 6.5213 -2.6839 2.7438 0
M  V30 83 H 5.14 -3.325 3.6428 0
M  V30 84 H -3.101 0.4948 -4.0189 0
M  V30 85 H -2.8558 2.2239 -4.3331 0
M  V30 86 H -1.6761 1.0546 -4.9231 0
M  V30 87 H 1.1952 5.3478 -0.985 0
M  V30 88 H 1.906 4.0075 -0.0557 0
M  V30 89 H -3.0815 0.3354 -1.4971 0
M  V30 90 H -4.0371 2.8327 0.8249 0
M  V30 91 H 1.0426 4.6214 2.0467 0
M  V30 92 H 0.1827 6.054 1.4619 0
M  V30 93 H -2.7187 3.6293 3.1465 0
M  V30 94 H -1.0819 1.2368 2.5948 0
M  V30 95 H -1.6296 0.5536 1.0986 0
M  V30 96 H -1.0683 5.3501 3.449 0
M  V30 97 H -4.0215 0.8162 1.8502 0
M  V30 98 H -3.4423 1.5097 3.3763 0
M  V30 99 H -3.0414 -0.1518 2.948 0
M  V30 100 H -5.4666 5.2043 -3.3255 0
M  V30 101 H -5.5289 3.5631 -4.0 0
M  V30 102 H -6.4358 3.9704 -2.496 0
M  V30 103 H -2.6787 6.9868 0.3519 0
M  V30 104 H -3.8337 6.7923 -1.0114 0
M  V30 105 H -4.3961 7.3726 0.5716 0
M  V30 END ATOM
M  V30 BEGIN BOND
M  V30 1 2 1 2
M  V30 2 1 2 3
M  V30 3 1 2 4
M  V30 4 1 3 5
M  V30 5 1 4 6
M  V30 6 1 4 7
M  V30 7 1 4 8
M  V30 8 2 6 9
M  V30 9 1 6 10
M  V30 10 1 7 11
M  V30 11 2 7 12
M  V30 12 1 8 13
M  V30 13 1 9 14
M  V30 14 1 9 15
M  V30 15 2 10 16
M  V30 16 1 11 17
M  V30 17 1 12 18
M  V30 18 1 12 19
M  V30 19 1 13 20
M  V30 20 1 13 21
M  V30 21 1 14 22
M  V30 22 2 15 23
M  V30 23 1 16 24
M  V30 24 1 17 25
M  V30 25 1 18 26
M  V30 26 1 19 27
M  V30 27 2 20 28
M  V30 28 1 23 29
M  V30 29 1 24 30
M  V30 30 1 24 31
M  V30 31 1 24 32
M  V30 32 2 25 33
M  V30 33 2 27 34
M  V30 34 1 28 35
M  V30 35 1 29 36
M  V30 36 1 30 37
M  V30 37 1 31 38
M  V30 38 1 31 39
M  V30 39 1 32 40
M  V30 40 1 37 41
M  V30 41 1 37 42
M  V30 42 1 37 43
M  V30 43 1 38 44
M  V30 44 1 39 45
M  V30 45 1 39 46
M  V30 46 2 42 47
M  V30 47 1 42 48
M  V30 48 1 43 49
M  V30 49 1 44 50
M  V30 50 1 46 51
M  V30 51 1 48 52
M  V30 52 1 49 53
M  V30 53 2 53 54
M  V30 54 1 53 55
M  V30 55 1 16 23
M  V30 56 2 17 19
M  V30 57 1 18 21
M  V30 58 1 26 28
M  V30 59 1 29 30
M  V30 60 1 33 34
M  V30 61 1 38 40
M  V30 62 1 39 43
M  V30 63 2 45 50
M  V30 64 1 5 56
M  V30 65 1 5 57
M  V30 66 1 5 58
M  V30 67 1 8 59
M  V30 68 1 8 60
M  V30 69 1 10 61
M  V30 70 1 11 62
M  V30 71 1 13 63
M  V30 72 1 15 64
M  V30 73 1 20 65
M  V30 74 1 21 66
M  V30 75 1 21 67
M  V30 76 1 22 68
M  V30 77 1 22 69
M  V30 78 1 22 70
M  V30 79 1 25 71
M  V30 80 1 26 72
M  V30 81 1 26 73
M  V30 82 1 27 74
M  V30 83 1 30 75
M  V30 84 1 31 76
M  V30 85 1 32 77
M  V30 86 1 32 78
M  V30 87 1 33 79
M  V30 88 1 34 80
M  V30 89 1 35 81
M  V30 90 1 35 82
M  V30 91 1 35 83
M  V30 92 1 36 84
M  V30 93 1 36 85
M  V30 94 1 36 86
M  V30 95 1 40 87
M  V30 96 1 40 88
M  V30 97 1 41 89
M  V30 98 1 43 90
M  V30 99 1 44 91
M  V30 100 1 44 92
M  V30 101 1 45 93
M  V30 102 1 46 94
M  V30 103 1 46 95
M  V30 104 1 50 96
M  V30 105 1 51 97
M  V30 106 1 51 98
M  V30 107 1 51 99
M  V30 108 1 52 100
M  V30 109 1 52 101
M  V30 110 1 52 102
M  V30 111 1 55 103
M  V30 112 1 55 104
M  V30 113 1 55 105
M  V30 END BOND
M  V30 END CTAB
M  END
>  <Column 1>
3432

>  <level_0>
5672

>  <index>
5673

>  <Unnamed: 0>
5673

>  <NO.>
5685

>  <Name>
vinorelbine

>  <IUPAC_name>


>  <SMILES>
CCC12C=CCN3CCC4(c5cc(C6(C(=O)OC)CC7C=C(C)CN(C7)c7c6[nH]c6ccccc76)c(OC)cc5N(C)C4C(O)(C(=O)OC)C1OC(C)=O)C32

>  <CID>


>  <logBB>


>  <BBB+/BBB->
BBB-

>  <Inchi>
InChI=1S/C43H50N4O8/c1-8-40-14-11-16-46-17-15-41(35(40)46)28-19-29(32(52-5)20-31(28)45(4)36(41)43(51-39(50)54-7)37(40)55-25(3)48)42(38(49)53-6)21-26-18-24(2)22-47(23-26)33-27-12-9-10-13-30(27)44-34(33)42/h9-14-18-20-26-35-37-44-51H-8-15-17-21-23H2-1-7H3

>  <threshold>


>  <reference>
R23|

>  <group>
C

>  <Class>
-1

>  <ABC>
44.32

>  <ABCGG>
34.64

>  <nAcid>
0

>  <nBase>
1

>  <nAromAtom>
15

>  <nAromBond>
16

>  <nAtom>
105

>  <nHeavyAtom>
55

>  <nSpiro>
1

>  <nBridgehead>
2

>  <nHetero>
12

>  <nN>
4

>  <nO>
8

>  <nF>
0

>  <BalabanJ>
1.22

>  <BertzCT>
2212.41

>  <nBonds>
113

>  <nBondsO>
63

>  <nBondsS>
92

>  <nBondsD>
5

>  <nBondsT>
0

>  <nBondsA>
16

>  <nBondsM>
21

>  <nBondsKS>
101

>  <nBondsKD>
12

>  <RNCG>
0.1

>  <RPCG>
0.07

>  <FCSP3>
0.51

>  <SZ>
66.67

>  <Sm>
62.52

>  <Sv>
65.3

>  <Sse>
105.49

>  <Sp>
69.44

>  <Si>
118.22

>  <MZ>
0.63

>  <Mm>
0.6

>  <Mv>
0.62

>  <Mse>
1

>  <Mp>
0.66

>  <Mi>
1.13

>  <NsCH3>
7

>  <NdCH2>
0

>  <NssCH2>
7

>  <NtCH>
0

>  <NdsCH>
3

>  <NaaCH>
6

>  <NsssCH>
4

>  <NddC>
0

>  <NtsC>
0

>  <NdssC>
4

>  <NaasC>
6

>  <NaaaC>
2

>  <NssssC>
4

>  <NsNH3>
0

>  <NsNH2>
0

>  <NssNH2>
0

>  <NdNH>
0

>  <NssNH>
0

>  <NaaNH>
1

>  <NtN>
0

>  <NsssNH>
0

>  <NdsN>
0

>  <NaaN>
0

>  <NsssN>
3

>  <NddsN>
0

>  <NaasN>
0

>  <NssssN>
0

>  <NsOH>
1

>  <NdO>
3

>  <NssO>
4

>  <NaaO>
0

>  <NsF>
0

>  <NsSiH3>
0

>  <NssSiH2>
0

>  <NsssSiH>
0

>  <NssssSi>
0

>  <NsPH2>
0

>  <NssPH>
0

>  <NsssP>
0

>  <NdsssP>
0

>  <NsssssP>
0

>  <NsSH>
0

>  <NdS>
0

>  <NssS>
0

>  <NaaS>
0

>  <NdssS>
0

>  <NddssS>
0

>  <NsCl>
0

>  <NsBr>
0

>  <NsI>
0

>  <fragCpx>
999.12

>  <fMF>
0.34

>  <nHBAcc>
11

>  <nHBDon>
2

>  <Kier1>
40.41

>  <Kier2>
14.58

>  <Lipinski>
0

>  <GhoseFilter>
0

>  <FilterItLogS>
-7.02

>  <VMcGowan>
554.27

>  <LabuteASA>
320.56

>  <PEOE_VSA1>
38.84

>  <PEOE_VSA2>
14.49

>  <PEOE_VSA3>
4.79

>  <PEOE_VSA4>
0

>  <PEOE_VSA5>
0

>  <PEOE_VSA6>
48.92

>  <PEOE_VSA7>
56.35

>  <PEOE_VSA8>
78.7

>  <PEOE_VSA9>
38.75

>  <PEOE_VSA10>
11.16

>  <PEOE_VSA11>
6.1

>  <PEOE_VSA12>
5.6

>  <PEOE_VSA13>
0

>  <SMR_VSA1>
38.44

>  <SMR_VSA2>
0

>  <SMR_VSA3>
9.88

>  <SMR_VSA4>
11.33

>  <SMR_VSA5>
74.65

>  <SMR_VSA6>
64.36

>  <SMR_VSA7>
77.02

>  <SMR_VSA8>
0

>  <SMR_VSA9>
5.75

>  <SlogP_VSA1>
14.54

>  <SlogP_VSA2>
111.24

>  <SlogP_VSA3>
39.42

>  <SlogP_VSA4>
11.33

>  <SlogP_VSA5>
56.85

>  <SlogP_VSA6>
60.2

>  <SlogP_VSA7>
0

>  <SlogP_VSA8>
10.9

>  <SlogP_VSA9>
0

>  <SlogP_VSA10>
11.37

>  <SlogP_VSA11>
5.75

>  <EState_VSA1>
51.9

>  <EState_VSA2>
11.96

>  <EState_VSA3>
43.66

>  <EState_VSA4>
46.62

>  <EState_VSA5>
26.72

>  <EState_VSA6>
7.11

>  <EState_VSA7>
43.14

>  <EState_VSA8>
52.07

>  <EState_VSA9>
18.95

>  <EState_VSA10>
14.7

>  <VSA_EState1>
23.74

>  <VSA_EState2>
52.71

>  <VSA_EState3>
14.27

>  <VSA_EState4>
0.78

>  <VSA_EState5>
-1.35

>  <VSA_EState6>
11.06

>  <VSA_EState7>
6.67

>  <VSA_EState8>
8.29

>  <VSA_EState9>
6.19

>  <apol>
115.97

>  <bpol>
65.41

>  <nRing>
9

>  <nHRing>
6

>  <naRing>
3

>  <naHRing>
1

>  <nARing 2>
6

>  <nAHRing 2>
5

>  <nFRing>
2

>  <nFHRing>
2

>  <nFaRing>
0

>  <nFaHRing>
0

>  <nFARing 2>
2

>  <nFAHRing 2>
2

>  <nRot>
6

>  <SLogP>
4.37

>  <SMR>
206.4

>  <TopoPSA(NO)>
133.87

>  <TopoPSA>
133.87

>  <JGI1>
0.24

>  <JGI2>
0.09

>  <JGI3>
0.07

>  <JGI4>
0.05

>  <JGI5>
0.03

>  <Diameter>
15

>  <Radius>
8

>  <TMWC10>
205.94

>  <TSRW10>
113.21

>  <MW>
750.36

>  <AMW>
7.15

>  <WPath>
9653

>  <WPol>
134

>  <Zagreb1>
330

>  <Zagreb2>
431

>  <mZagreb2>
11.83

>  <yes>


>  <nAR-cont>
0

>  <nHA-cont>
0

>  <MWHBN>
0.474578998

>  <MWHBN-cont>
0

>  <TPSA-cont>
0

>  <pka_cont>
0.97

>  <yes.1>


>  <BBB_SCORE>
0.485

>  <MMFF94 Energy>
225.64

$$$$
Compound 2729
Actelion Java MolfileCreator 2.0

  0  0  0  0  0  0              0 V3000
M  V30 BEGIN CTAB
M  V30 COUNTS 31 32 0 0 0
M  V30 BEGIN ATOM
M  V30 1 O -3.6336 1.1837 -1.1837 0
M  V30 2 C -2.695 0.4089 -1.2681 0
M  V30 3 O -2.5114 -0.4311 -2.3263 0
M  V30 4 C -1.5964 0.2232 -0.2425 0
M  V30 5 C -1.4224 -1.3006 -2.0495 0
M  V30 6 C -0.5583 -0.5711 -1.0389 0
M  V30 7 C -1.0697 1.5784 0.2454 0
M  V30 8 C 0.2736 -1.5781 -0.2365 0
M  V30 9 C -1.9118 2.1507 1.3789 0
M  V30 10 C 1.2147 -0.9512 0.7309 0
M  V30 11 N 2.4494 -0.4303 0.4207 0
M  V30 12 C 1.1055 -0.7731 2.0969 0
M  V30 13 C 3.002 0.0463 1.5756 0
M  V30 14 C 3.0809 -0.3859 -0.8746 0
M  V30 15 N 2.2107 -0.147 2.6046 0
M  V30 16 H -1.9982 -0.3802 0.5799 0
M  V30 17 H -1.8247 -2.2476 -1.6722 0
M  V30 18 H -0.8737 -1.5016 -2.9749 0
M  V30 19 H 0.0973 0.1254 -1.5781 0
M  V30 20 H -1.0491 2.3017 -0.5793 0
M  V30 21 H -0.0416 1.4907 0.6068 0
M  V30 22 H 0.8395 -2.2156 -0.9276 0
M  V30 23 H -0.3945 -2.256 0.3114 0
M  V30 24 H -2.9453 2.3256 1.0673 0
M  V30 25 H -1.4954 3.1074 1.7101 0
M  V30 26 H -1.9217 1.4723 2.2381 0
M  V30 27 H 0.2826 -1.059 2.7402 0
M  V30 28 H 3.9751 0.5189 1.6145 0
M  V30 29 H 2.5137 0.2944 -1.5136 0
M  V30 30 H 3.0918 -1.3942 -1.2952 0
M  V30 31 H 4.1071 -0.0241 -0.7699 0
M  V30 END ATOM
M  V30 BEGIN BOND
M  V30 1 2 1 2
M  V30 2 1 2 3
M  V30 3 1 2 4
M  V30 4 1 3 5
M  V30 5 1 4 6
M  V30 6 1 4 7
M  V30 7 1 6 8
M  V30 8 1 7 9
M  V30 9 1 8 10
M  V30 10 1 10 11
M  V30 11 2 10 12
M  V30 12 1 11 13
M  V30 13 1 11 14
M  V30 14 1 12 15
M  V30 15 1 5 6
M  V30 16 2 13 15
M  V30 17 1 4 16
M  V30 18 1 5 17
M  V30 19 1 5 18
M  V30 20 1 6 19
M  V30 21 1 7 20
M  V30 22 1 7 21
M  V30 23 1 8 22
M  V30 24 1 8 23
M  V30 25 1 9 24
M  V30 26 1 9 25
M  V30 27 1 9 26
M  V30 28 1 12 27
M  V30 29 1 13 28
M  V30 30 1 14 29
M  V30 31 1 14 30
M  V30 32 1 14 31
M  V30 END BOND
M  V30 END CTAB
M  END
>  <Column 1>
3433

>  <level_0>
5673

>  <index>
5674

>  <Unnamed: 0>
5674

>  <NO.>
5686

>  <Name>
pilocarpine

>  <IUPAC_name>
3-ethyl-4-[(3-methylimidazol-4-yl)methyl]oxolan-2-one

>  <SMILES>
CCC1C(=O)OCC1Cc1cncn1C

>  <CID>
4819

>  <logBB>


>  <BBB+/BBB->
BBB-

>  <Inchi>
InChI=1S/C11H16N2O2/c1-3-10-8(6-15-11(10)14)4-9-5-12-7-13(9)2/h5-7-8-10H-3-4-6H2-1-2H3

>  <threshold>


>  <reference>
R23|

>  <group>
C

>  <Class>
-1

>  <ABC>
11.41

>  <ABCGG>
11.14

>  <nAcid>
0

>  <nBase>
0

>  <nAromAtom>
5

>  <nAromBond>
5

>  <nAtom>
31

>  <nHeavyAtom>
15

>  <nSpiro>
0

>  <nBridgehead>
0

>  <nHetero>
4

>  <nN>
2

>  <nO>
2

>  <nF>
0

>  <BalabanJ>
1.88

>  <BertzCT>
359.22

>  <nBonds>
32

>  <nBondsO>
16

>  <nBondsS>
26

>  <nBondsD>
1

>  <nBondsT>
0

>  <nBondsA>
5

>  <nBondsM>
6

>  <nBondsKS>
29

>  <nBondsKD>
3

>  <RNCG>
0.33

>  <RPCG>
0.22

>  <FCSP3>
0.64

>  <SZ>
18.67

>  <Sm>
17.34

>  <Sv>
18.28

>  <Sse>
31.09

>  <Sp>
19.67

>  <Si>
35.32

>  <MZ>
0.6

>  <Mm>
0.56

>  <Mv>
0.59

>  <Mse>
1

>  <Mp>
0.63

>  <Mi>
1.14

>  <NsCH3>
2

>  <NdCH2>
0

>  <NssCH2>
3

>  <NtCH>
0

>  <NdsCH>
0

>  <NaaCH>
2

>  <NsssCH>
2

>  <NddC>
0

>  <NtsC>
0

>  <NdssC>
1

>  <NaasC>
1

>  <NaaaC>
0

>  <NssssC>
0

>  <NsNH3>
0

>  <NsNH2>
0

>  <NssNH2>
0

>  <NdNH>
0

>  <NssNH>
0

>  <NaaNH>
0

>  <NtN>
0

>  <NsssNH>
0

>  <NdsN>
0

>  <NaaN>
1

>  <NsssN>
0

>  <NddsN>
0

>  <NaasN>
1

>  <NssssN>
0

>  <NsOH>
0

>  <NdO>
1

>  <NssO>
1

>  <NaaO>
0

>  <NsF>
0

>  <NsSiH3>
0

>  <NssSiH2>
0

>  <NsssSiH>
0

>  <NssssSi>
0

>  <NsPH2>
0

>  <NssPH>
0

>  <NsssP>
0

>  <NdsssP>
0

>  <NsssssP>
0

>  <NsSH>
0

>  <NdS>
0

>  <NssS>
0

>  <NaaS>
0

>  <NdssS>
0

>  <NddssS>
0

>  <NsCl>
0

>  <NsBr>
0

>  <NsI>
0

>  <fragCpx>
46.04

>  <fMF>
0.35

>  <nHBAcc>
4

>  <nHBDon>
0

>  <Kier1>
11.48

>  <Kier2>
4.89

>  <Lipinski>
1

>  <GhoseFilter>
1

>  <FilterItLogS>
-1.97

>  <VMcGowan>
162.93

>  <LabuteASA>
89.26

>  <PEOE_VSA1>
9.3

>  <PEOE_VSA2>
4.79

>  <PEOE_VSA3>
4.98

>  <PEOE_VSA4>
0

>  <PEOE_VSA5>
0

>  <PEOE_VSA6>
6.92

>  <PEOE_VSA7>
12.84

>  <PEOE_VSA8>
24.86

>  <PEOE_VSA9>
18.85

>  <PEOE_VSA10>
0

>  <PEOE_VSA11>
0

>  <PEOE_VSA12>
0

>  <PEOE_VSA13>
0

>  <SMR_VSA1>
9.53

>  <SMR_VSA2>
0

>  <SMR_VSA3>
9.55

>  <SMR_VSA4>
18.88

>  <SMR_VSA5>
19.77

>  <SMR_VSA6>
6.61

>  <SMR_VSA7>
18.22

>  <SMR_VSA8>
0

>  <SMR_VSA9>
0

>  <SlogP_VSA1>
0

>  <SlogP_VSA2>
22.13

>  <SlogP_VSA3>
23

>  <SlogP_VSA4>
11.84

>  <SlogP_VSA5>
19.04

>  <SlogP_VSA6>
12.52

>  <SlogP_VSA7>
0

>  <SlogP_VSA8>
0

>  <SlogP_VSA9>
0

>  <SlogP_VSA10>
0

>  <SlogP_VSA11>
0

>  <EState_VSA1>
0

>  <EState_VSA2>
11.89

>  <EState_VSA3>
12.52

>  <EState_VSA4>
18.54

>  <EState_VSA5>
0

>  <EState_VSA6>
6.33

>  <EState_VSA7>
24.74

>  <EState_VSA8>
4.98

>  <EState_VSA9>
4.74

>  <EState_VSA10>
4.79

>  <VSA_EState1>
7.08

>  <VSA_EState2>
15.46

>  <VSA_EState3>
0

>  <VSA_EState4>
1.16

>  <VSA_EState5>
0.35

>  <VSA_EState6>
0

>  <VSA_EState7>
5.38

>  <VSA_EState8>
2.59

>  <VSA_EState9>
1.97

>  <apol>
32.84

>  <bpol>
21.51

>  <nRing>
2

>  <nHRing>
2

>  <naRing>
1

>  <naHRing>
1

>  <nARing 2>
1

>  <nAHRing 2>
1

>  <nFRing>
0

>  <nFHRing>
0

>  <nFaRing>
0

>  <nFaHRing>
0

>  <nFARing 2>
0

>  <nFAHRing 2>
0

>  <nRot>
3

>  <SLogP>
1.16

>  <SMR>
55.14

>  <TopoPSA(NO)>
44.12

>  <TopoPSA>
44.12

>  <JGI1>
0.19

>  <JGI2>
0.1

>  <JGI3>
0.07

>  <JGI4>
0.03

>  <JGI5>
0.03

>  <Diameter>
7

>  <Radius>
4

>  <TMWC10>
101.05

>  <TSRW10>
62.58

>  <MW>
208.12

>  <AMW>
6.71

>  <WPath>
367

>  <WPol>
19

>  <Zagreb1>
76

>  <Zagreb2>
89

>  <mZagreb2>
3.42

>  <yes>


>  <nAR-cont>
0.816016

>  <nHA-cont>
0.92539861

>  <MWHBN>
0.277270128

>  <MWHBN-cont>
0.902899241

>  <TPSA-cont>
0.692015003

>  <pka_cont>
0.97

>  <yes.1>


>  <BBB_SCORE>
4.964793478

>  <MMFF94 Energy>
-0.35534

$$$$
Compound 2730
Actelion Java MolfileCreator 2.0

  0  0  0  0  0  0              0 V3000
M  V30 BEGIN CTAB
M  V30 COUNTS 50 55 0 0 0
M  V30 BEGIN ATOM
M  V30 1 O 1.0549 3.6553 0.7302 0
M  V30 2 C 0.6885 2.4946 1.4509 0
M  V30 3 N -0.1857 1.6643 0.6028 0
M  V30 4 C 1.9604 1.7252 1.9209 0
M  V30 5 C 0.4984 1.2717 -0.6813 0
M  V30 6 C -0.4757 0.432 1.3858 0
M  V30 7 C 2.0271 0.4061 1.0963 0
M  V30 8 C 1.9686 1.5219 3.4484 0
M  V30 9 C -0.1606 0.0699 -1.4282 0
M  V30 10 C 1.9666 0.8706 -0.3685 0
M  V30 11 C 0.7887 -0.484 1.412 0
M  V30 12 C -1.536 -0.3696 0.6606 0
M  V30 13 C 3.2081 0.7969 3.9524 0
M  V30 14 N -1.2917 0.3446 -2.3328 0
M  V30 15 C -0.6934 -1.0147 -0.4401 0
M  V30 16 C 0.4873 -1.5956 0.359 0
M  V30 17 C -1.9249 -0.909 -2.4419 0
M  V30 18 C -1.1905 1.2353 -3.4646 0
M  V30 19 C -1.5747 -1.7751 -1.3811 0
M  V30 20 O 0.1178 -2.7716 1.0814 0
M  V30 21 C -2.8083 -1.3347 -3.4188 0
M  V30 22 C -2.1075 -3.0501 -1.2814 0
M  V30 23 C -3.3308 -2.6295 -3.3395 0
M  V30 24 C -2.9837 -3.4794 -2.2792 0
M  V30 25 H 0.2273 3.9057 0.2837 0
M  V30 26 H 0.1171 2.8507 2.3169 0
M  V30 27 H 2.8484 2.3249 1.674 0
M  V30 28 H 0.5178 2.1373 -1.3518 0
M  V30 29 H -0.8332 0.6834 2.3914 0
M  V30 30 H 2.9607 -0.1354 1.2781 0
M  V30 31 H 1.9305 2.5074 3.9299 0
M  V30 32 H 1.0771 0.9834 3.7863 0
M  V30 33 H 0.6081 -0.3883 -2.0723 0
M  V30 34 H 2.6332 1.7285 -0.5278 0
M  V30 35 H 2.344 0.0867 -1.0339 0
M  V30 36 H 0.901 -0.9253 2.4098 0
M  V30 37 H -1.9803 -1.1245 1.3223 0
M  V30 38 H -2.3577 0.2576 0.2934 0
M  V30 39 H 4.1212 1.299 3.6175 0
M  V30 40 H 3.2135 0.7802 5.0472 0
M  V30 41 H 3.2346 -0.2403 3.6065 0
M  V30 42 H 1.3576 -1.8518 -0.2527 0
M  V30 43 H -2.1799 1.473 -3.8695 0
M  V30 44 H -0.7336 2.1862 -3.176 0
M  V30 45 H -0.5803 0.793 -4.2593 0
M  V30 46 H 0.1215 -3.5074 0.4447 0
M  V30 47 H -3.1031 -0.6854 -4.2347 0
M  V30 48 H -1.8932 -3.6949 -0.4373 0
M  V30 49 H -4.0266 -2.9753 -4.1001 0
M  V30 50 H -3.4209 -4.4735 -2.2234 0
M  V30 END ATOM
M  V30 BEGIN BOND
M  V30 1 1 1 2
M  V30 2 1 2 3
M  V30 3 1 2 4
M  V30 4 1 3 5
M  V30 5 1 3 6
M  V30 6 1 4 7
M  V30 7 1 4 8
M  V30 8 1 5 9
M  V30 9 1 5 10
M  V30 10 1 6 11
M  V30 11 1 6 12
M  V30 12 1 8 13
M  V30 13 1 9 14
M  V30 14 1 9 15
M  V30 15 1 11 16
M  V30 16 1 14 17
M  V30 17 1 14 18
M  V30 18 1 15 19
M  V30 19 1 16 20
M  V30 20 1 17 21
M  V30 21 1 19 22
M  V30 22 2 21 23
M  V30 23 2 22 24
M  V30 24 1 7 10
M  V30 25 1 7 11
M  V30 26 1 12 15
M  V30 27 1 15 16
M  V30 28 2 17 19
M  V30 29 1 23 24
M  V30 30 1 1 25
M  V30 31 1 2 26
M  V30 32 1 4 27
M  V30 33 1 5 28
M  V30 34 1 6 29
M  V30 35 1 7 30
M  V30 36 1 8 31
M  V30 37 1 8 32
M  V30 38 1 9 33
M  V30 39 1 10 34
M  V30 40 1 10 35
M  V30 41 1 11 36
M  V30 42 1 12 37
M  V30 43 1 12 38
M  V30 44 1 13 39
M  V30 45 1 13 40
M  V30 46 1 13 41
M  V30 47 1 16 42
M  V30 48 1 18 43
M  V30 49 1 18 44
M  V30 50 1 18 45
M  V30 51 1 20 46
M  V30 52 1 21 47
M  V30 53 1 22 48
M  V30 54 1 23 49
M  V30 55 1 24 50
M  V30 END BOND
M  V30 END CTAB
M  END
>  <Column 1>
3434

>  <level_0>
5674

>  <index>
5675

>  <Unnamed: 0>
5675

>  <NO.>
5687

>  <Name>
ajmaline

>  <IUPAC_name>
13-ethyl-8-methyl-8-15-diazahexacyclo[14.2.1.01-9.02-7.010-15.012-17]nonadeca-2-4-6-triene-14-18-diol

>  <SMILES>
CCC1C2CC3C4N(C)c5ccccc5C45CC(C2C5O)N3C1O

>  <CID>
2073

>  <logBB>


>  <BBB+/BBB->
BBB-

>  <Inchi>
InChI=1S/C20H26N2O2/c1-3-10-11-8-14-17-20(12-6-4-5-7-13(12)21(17)2)9-15(16(11)18(20)23)22(14)19(10)24/h4-7-10-11-14-19-23-24H-3-8-9H2-1-2H3

>  <threshold>


>  <reference>
R23|

>  <group>
C

>  <Class>
-1

>  <ABC>
20.16

>  <ABCGG>
15.98

>  <nAcid>
0

>  <nBase>
1

>  <nAromAtom>
6

>  <nAromBond>
6

>  <nAtom>
50

>  <nHeavyAtom>
24

>  <nSpiro>
1

>  <nBridgehead>
5

>  <nHetero>
4

>  <nN>
2

>  <nO>
2

>  <nF>
0

>  <BalabanJ>
1.52

>  <BertzCT>
723.35

>  <nBonds>
55

>  <nBondsO>
29

>  <nBondsS>
49

>  <nBondsD>
0

>  <nBondsT>
0

>  <nBondsA>
6

>  <nBondsM>
6

>  <nBondsKS>
52

>  <nBondsKD>
3

>  <RNCG>
0.21

>  <RPCG>
0.12

>  <FCSP3>
0.7

>  <SZ>
29.33

>  <Sm>
27.18

>  <Sv>
29.99

>  <Sse>
49.53

>  <Sp>
32.66

>  <Si>
56.4

>  <MZ>
0.59

>  <Mm>
0.54

>  <Mv>
0.6

>  <Mse>
0.99

>  <Mp>
0.65

>  <Mi>
1.13

>  <NsCH3>
2

>  <NdCH2>
0

>  <NssCH2>
3

>  <NtCH>
0

>  <NdsCH>
0

>  <NaaCH>
4

>  <NsssCH>
8

>  <NddC>
0

>  <NtsC>
0

>  <NdssC>
0

>  <NaasC>
2

>  <NaaaC>
0

>  <NssssC>
1

>  <NsNH3>
0

>  <NsNH2>
0

>  <NssNH2>
0

>  <NdNH>
0

>  <NssNH>
0

>  <NaaNH>
0

>  <NtN>
0

>  <NsssNH>
0

>  <NdsN>
0

>  <NaaN>
0

>  <NsssN>
2

>  <NddsN>
0

>  <NaasN>
0

>  <NssssN>
0

>  <NsOH>
2

>  <NdO>
0

>  <NssO>
0

>  <NaaO>
0

>  <NsF>
0

>  <NsSiH3>
0

>  <NssSiH2>
0

>  <NsssSiH>
0

>  <NssssSi>
0

>  <NsPH2>
0

>  <NssPH>
0

>  <NsssP>
0

>  <NdsssP>
0

>  <NsssssP>
0

>  <NsSH>
0

>  <NdS>
0

>  <NssS>
0

>  <NaaS>
0

>  <NdssS>
0

>  <NddssS>
0

>  <NsCl>
0

>  <NsBr>
0

>  <NsI>
0

>  <fragCpx>
289.04

>  <fMF>
0.38

>  <nHBAcc>
4

>  <nHBDon>
2

>  <Kier1>
15.1

>  <Kier2>
4.64

>  <Lipinski>
1

>  <GhoseFilter>
1

>  <FilterItLogS>
-1.65

>  <VMcGowan>
246.3

>  <LabuteASA>
142.62

>  <PEOE_VSA1>
15.11

>  <PEOE_VSA2>
4.9

>  <PEOE_VSA3>
0

>  <PEOE_VSA4>
0

>  <PEOE_VSA5>
0

>  <PEOE_VSA6>
25.12

>  <PEOE_VSA7>
36.81

>  <PEOE_VSA8>
42.07

>  <PEOE_VSA9>
12.15

>  <PEOE_VSA10>
6.23

>  <PEOE_VSA11>
0

>  <PEOE_VSA12>
0

>  <PEOE_VSA13>
0

>  <SMR_VSA1>
10.21

>  <SMR_VSA2>
0

>  <SMR_VSA3>
4.9

>  <SMR_VSA4>
17.75

>  <SMR_VSA5>
62.06

>  <SMR_VSA6>
11.95

>  <SMR_VSA7>
29.83

>  <SMR_VSA8>
0

>  <SMR_VSA9>
0

>  <SlogP_VSA1>
4.9

>  <SlogP_VSA2>
52.62

>  <SlogP_VSA3>
5.41

>  <SlogP_VSA4>
17.75

>  <SlogP_VSA5>
31.75

>  <SlogP_VSA6>
24.27

>  <SlogP_VSA7>
0

>  <SlogP_VSA8>
0

>  <SlogP_VSA9>
0

>  <SlogP_VSA10>
5.69

>  <SlogP_VSA11>
0

>  <EState_VSA1>
0

>  <EState_VSA2>
17.75

>  <EState_VSA3>
35.88

>  <EState_VSA4>
19.26

>  <EState_VSA5>
11.25

>  <EState_VSA6>
0

>  <EState_VSA7>
0

>  <EState_VSA8>
48.04

>  <EState_VSA9>
0

>  <EState_VSA10>
10.21

>  <VSA_EState1>
0

>  <VSA_EState2>
4.83

>  <VSA_EState3>
22.63

>  <VSA_EState4>
2.51

>  <VSA_EState5>
1.14

>  <VSA_EState6>
9.7

>  <VSA_EState7>
2.56

>  <VSA_EState8>
2.19

>  <VSA_EState9>
2.19

>  <apol>
54.54

>  <bpol>
29.5

>  <nRing>
7

>  <nHRing>
5

>  <naRing>
1

>  <naHRing>
0

>  <nARing 2>
6

>  <nAHRing 2>
5

>  <nFRing>
1

>  <nFHRing>
1

>  <nFaRing>
0

>  <nFaHRing>
0

>  <nFARing 2>
1

>  <nFAHRing 2>
1

>  <nRot>
1

>  <SLogP>
1.55

>  <SMR>
91.73

>  <TopoPSA(NO)>
46.94

>  <TopoPSA>
46.94

>  <JGI1>
0.16

>  <JGI2>
0.09

>  <JGI3>
0.07

>  <JGI4>
0.05

>  <JGI5>
0.04

>  <Diameter>
10

>  <Radius>
5

>  <TMWC10>
134.86

>  <TSRW10>
77.91

>  <MW>
326.2

>  <AMW>
6.52

>  <WPath>
1033

>  <WPol>
60

>  <Zagreb1>
156

>  <Zagreb2>
211

>  <mZagreb2>
4.96

>  <yes>


>  <nAR-cont>
0

>  <nHA-cont>
0.94700071

>  <MWHBN>
0.332207377

>  <MWHBN-cont>
0.735073203

>  <TPSA-cont>
0.672329652

>  <pka_cont>
0.97

>  <yes.1>


>  <BBB_SCORE>
3.879269818

>  <MMFF94 Energy>
89.924

$$$$
Compound 2731
Actelion Java MolfileCreator 2.0

  0  0  0  0  0  0              0 V3000
M  V30 BEGIN CTAB
M  V30 COUNTS 53 54 0 0 0
M  V30 BEGIN ATOM
M  V30 1 Cl 1.3698 2.499 -2.1762 0
M  V30 2 C 0.2615 1.4619 -3.0187 0
M  V30 3 C 0.3239 1.3758 -4.4223 0
M  V30 4 C -0.6942 0.702 -2.3088 0
M  V30 5 Cl 1.467 2.2758 -5.3621 0
M  V30 6 C -0.5513 0.5416 -5.122 0
M  V30 7 C -1.5629 -0.1363 -3.0438 0
M  V30 8 C -0.8309 0.7361 -0.7763 0 CFG=2
M  V30 9 C -1.4929 -0.2144 -4.4333 0
M  V30 10 C -0.4717 -0.6214 -0.174 0
M  V30 11 C -2.2235 1.2148 -0.361 0
M  V30 12 C -1.3549 -1.331 0.5628 0
M  V30 13 C 0.8841 -1.1375 -0.4518 0
M  V30 14 C -3.0456 0.4419 0.3845 0
M  V30 15 C -2.6501 2.5454 -0.8484 0
M  V30 16 N -2.6151 -0.807 0.8044 0
M  V30 17 C -1.0707 -2.67 1.1949 0
M  V30 18 O 1.1165 -2.2314 -0.9392 0
M  V30 19 O 1.7894 -0.2105 -0.0707 0
M  V30 20 C -4.4232 0.8493 0.8434 0
M  V30 21 O -3.7343 2.7811 -1.3576 0
M  V30 22 O -1.6517 3.4382 -0.6426 0
M  V30 23 C 3.152 -0.6 -0.2477 0
M  V30 24 C -1.9434 4.7557 -1.1091 0
M  V30 25 O 3.6004 -1.4495 0.8095 0
M  V30 26 C 3.979 -0.8006 1.9393 0
M  V30 27 O 4.0216 0.4126 2.0861 0
M  V30 28 C 4.3189 -1.7934 3.023 0
M  V30 29 C 3.3363 -1.7106 4.1861 0
M  V30 30 C 1.9387 -2.1805 3.8072 0
M  V30 31 H -0.502 0.4759 -6.2063 0
M  V30 32 H -2.3098 -0.7418 -2.5288 0
M  V30 33 H -0.1303 1.4525 -0.3345 0
M  V30 34 H -2.1738 -0.8659 -4.9765 0
M  V30 35 H -3.2585 -1.3645 1.3615 0
M  V30 36 H -1.6042 -3.4593 0.6557 0
M  V30 37 H -0.0086 -2.9255 1.2166 0
M  V30 38 H -1.4124 -2.6757 2.2363 0
M  V30 39 H -5.183 0.4042 0.1933 0
M  V30 40 H -4.6032 0.5004 1.8668 0
M  V30 41 H -4.5661 1.9331 0.8622 0
M  V30 42 H 3.2905 -1.1289 -1.1983 0
M  V30 43 H 3.7646 0.3066 -0.3188 0
M  V30 44 H -1.075 5.3876 -0.9039 0
M  V30 45 H -2.1193 4.749 -2.1894 0
M  V30 46 H -2.8065 5.1682 -0.5773 0
M  V30 47 H 5.3357 -1.5688 3.3643 0
M  V30 48 H 4.3444 -2.809 2.6113 0
M  V30 49 H 3.7071 -2.3349 5.0073 0
M  V30 50 H 3.2791 -0.6828 4.5633 0
M  V30 51 H 1.2832 -2.1589 4.6837 0
M  V30 52 H 1.4953 -1.5354 3.0424 0
M  V30 53 H 1.959 -3.2056 3.4241 0
M  V30 END ATOM
M  V30 BEGIN BOND
M  V30 1 1 1 2
M  V30 2 2 2 3
M  V30 3 1 2 4
M  V30 4 1 3 5
M  V30 5 1 3 6
M  V30 6 2 4 7
M  V30 7 1 4 8
M  V30 8 2 6 9
M  V30 9 1 8 10
M  V30 10 1 8 11
M  V30 11 2 10 12
M  V30 12 1 10 13
M  V30 13 2 11 14
M  V30 14 1 11 15
M  V30 15 1 12 16
M  V30 16 1 12 17
M  V30 17 2 13 18
M  V30 18 1 13 19
M  V30 19 1 14 20
M  V30 20 2 15 21
M  V30 21 1 15 22
M  V30 22 1 19 23
M  V30 23 1 22 24
M  V30 24 1 23 25
M  V30 25 1 25 26
M  V30 26 2 26 27
M  V30 27 1 26 28
M  V30 28 1 28 29
M  V30 29 1 29 30
M  V30 30 1 7 9
M  V30 31 1 14 16
M  V30 32 1 6 31
M  V30 33 1 7 32
M  V30 34 1 8 33
M  V30 35 1 9 34
M  V30 36 1 16 35
M  V30 37 1 17 36
M  V30 38 1 17 37
M  V30 39 1 17 38
M  V30 40 1 20 39
M  V30 41 1 20 40
M  V30 42 1 20 41
M  V30 43 1 23 42
M  V30 44 1 23 43
M  V30 45 1 24 44
M  V30 46 1 24 45
M  V30 47 1 24 46
M  V30 48 1 28 47
M  V30 49 1 28 48
M  V30 50 1 29 49
M  V30 51 1 29 50
M  V30 52 1 30 51
M  V30 53 1 30 52
M  V30 54 1 30 53
M  V30 END BOND
M  V30 BEGIN COLLECTION
M  V30 MDLV30/STERAC1 ATOMS=(1 8)
M  V30 END COLLECTION
M  V30 END CTAB
M  END
>  <Column 1>
3436

>  <level_0>
5676

>  <index>
5677

>  <Unnamed: 0>
5677

>  <NO.>
5689

>  <Name>
clevidipine

>  <IUPAC_name>
5-o-(butanoyloxymethyl) 3-o-methyl 4-(2-3-dichlorophenyl)-2-6-dimethyl-1-4-dihydropyridine-3-5-dicarboxylate

>  <SMILES>
CCCC(=O)OCOC(=O)C1=C(C)NC(C)=C(C(=O)OC)C1c1cccc(Cl)c1Cl

>  <CID>
153994

>  <logBB>


>  <BBB+/BBB->
BBB-

>  <Inchi>
InChI=1S/C21H23Cl2NO6/c1-5-7-15(25)29-10-30-21(27)17-12(3)24-11(2)16(20(26)28-4)18(17)13-8-6-9-14(22)19(13)23/h6-8-9-18-24H-5-7-10H2-1-4H3

>  <threshold>


>  <reference>
R23|

>  <group>
C

>  <Class>
1

>  <ABC>
22.32

>  <ABCGG>
19.48

>  <nAcid>
0

>  <nBase>
0

>  <nAromAtom>
6

>  <nAromBond>
6

>  <nAtom>
53

>  <nHeavyAtom>
30

>  <nSpiro>
0

>  <nBridgehead>
0

>  <nHetero>
9

>  <nN>
1

>  <nO>
6

>  <nF>
0

>  <BalabanJ>
2.24

>  <BertzCT>
922.07

>  <nBonds>
54

>  <nBondsO>
31

>  <nBondsS>
43

>  <nBondsD>
5

>  <nBondsT>
0

>  <nBondsA>
6

>  <nBondsM>
11

>  <nBondsKS>
46

>  <nBondsKD>
8

>  <RNCG>
0.16

>  <RPCG>
0.12

>  <FCSP3>
0.38

>  <SZ>
39.67

>  <Sm>
37.99

>  <Sv>
34.46

>  <Sse>
54.39

>  <Sp>
36.33

>  <Si>
59.63

>  <MZ>
0.75

>  <Mm>
0.72

>  <Mv>
0.65

>  <Mse>
1.03

>  <Mp>
0.69

>  <Mi>
1.13

>  <NsCH3>
4

>  <NdCH2>
0

>  <NssCH2>
3

>  <NtCH>
0

>  <NdsCH>
0

>  <NaaCH>
3

>  <NsssCH>
1

>  <NddC>
0

>  <NtsC>
0

>  <NdssC>
7

>  <NaasC>
3

>  <NaaaC>
0

>  <NssssC>
0

>  <NsNH3>
0

>  <NsNH2>
0

>  <NssNH2>
0

>  <NdNH>
0

>  <NssNH>
1

>  <NaaNH>
0

>  <NtN>
0

>  <NsssNH>
0

>  <NdsN>
0

>  <NaaN>
0

>  <NsssN>
0

>  <NddsN>
0

>  <NaasN>
0

>  <NssssN>
0

>  <NsOH>
0

>  <NdO>
3

>  <NssO>
3

>  <NaaO>
0

>  <NsF>
0

>  <NsSiH3>
0

>  <NssSiH2>
0

>  <NsssSiH>
0

>  <NssssSi>
0

>  <NsPH2>
0

>  <NssPH>
0

>  <NsssP>
0

>  <NdsssP>
0

>  <NsssssP>
0

>  <NsSH>
0

>  <NdS>
0

>  <NssS>
0

>  <NaaS>
0

>  <NdssS>
0

>  <NddssS>
0

>  <NsCl>
2

>  <NsBr>
0

>  <NsI>
0

>  <fragCpx>
91.09

>  <fMF>
0.23

>  <nHBAcc>
7

>  <nHBDon>
1

>  <Kier1>
26.25

>  <Kier2>
12.3

>  <Lipinski>
1

>  <GhoseFilter>
1

>  <FilterItLogS>
-6.02

>  <VMcGowan>
320.31

>  <LabuteASA>
184.5

>  <PEOE_VSA1>
19.53

>  <PEOE_VSA2>
4.79

>  <PEOE_VSA3>
9.59

>  <PEOE_VSA4>
0

>  <PEOE_VSA5>
0

>  <PEOE_VSA6>
42.26

>  <PEOE_VSA7>
31.9

>  <PEOE_VSA8>
17.81

>  <PEOE_VSA9>
34.22

>  <PEOE_VSA10>
0

>  <PEOE_VSA11>
0

>  <PEOE_VSA12>
6.79

>  <PEOE_VSA13>
0

>  <SMR_VSA1>
28.59

>  <SMR_VSA2>
0

>  <SMR_VSA3>
5.32

>  <SMR_VSA4>
0

>  <SMR_VSA5>
39.53

>  <SMR_VSA6>
13.9

>  <SMR_VSA7>
56.35

>  <SMR_VSA8>
0

>  <SMR_VSA9>
0

>  <SlogP_VSA1>
5.32

>  <SlogP_VSA2>
31.81

>  <SlogP_VSA3>
28.59

>  <SlogP_VSA4>
0

>  <SlogP_VSA5>
45.09

>  <SlogP_VSA6>
40.74

>  <SlogP_VSA7>
10.05

>  <SlogP_VSA8>
0

>  <SlogP_VSA9>
0

>  <SlogP_VSA10>
0

>  <SlogP_VSA11>
0

>  <EState_VSA1>
30.62

>  <EState_VSA2>
27.61

>  <EState_VSA3>
23.38

>  <EState_VSA4>
0

>  <EState_VSA5>
7.11

>  <EState_VSA6>
32.05

>  <EState_VSA7>
6.92

>  <EState_VSA8>
5.32

>  <EState_VSA9>
37.41

>  <EState_VSA10>
14.38

>  <VSA_EState1>
14.99

>  <VSA_EState2>
37.01

>  <VSA_EState3>
3.48

>  <VSA_EState4>
1.75

>  <VSA_EState5>
-2.76

>  <VSA_EState6>
4.94

>  <VSA_EState7>
0.83

>  <VSA_EState8>
4.65

>  <VSA_EState9>
1.25

>  <apol>
60.68

>  <bpol>
32.48

>  <nRing>
2

>  <nHRing>
1

>  <naRing>
1

>  <naHRing>
0

>  <nARing 2>
1

>  <nAHRing 2>
1

>  <nFRing>
0

>  <nFHRing>
0

>  <nFaRing>
0

>  <nFaHRing>
0

>  <nFARing 2>
0

>  <nFAHRing 2>
0

>  <nRot>
7

>  <SLogP>
4.25

>  <SMR>
111.71

>  <TopoPSA(NO)>
90.93

>  <TopoPSA>
90.93

>  <JGI1>
0.19

>  <JGI2>
0.09

>  <JGI3>
0.06

>  <JGI4>
0.04

>  <JGI5>
0.03

>  <Diameter>
13

>  <Radius>
7

>  <TMWC10>
137.99

>  <TSRW10>
65.51

>  <MW>
455.09

>  <AMW>
8.59

>  <WPath>
2375

>  <WPol>
51

>  <Zagreb1>
148

>  <Zagreb2>
174

>  <mZagreb2>
6.92

>  <yes>


>  <nAR-cont>
0.816016

>  <nHA-cont>
0.74523694

>  <MWHBN>
0.375008698

>  <MWHBN-cont>
0.574350407

>  <TPSA-cont>
0.365252136

>  <pka_cont>
0.97

>  <yes.1>


>  <BBB_SCORE>
3.638282822

>  <MMFF94 Energy>
-17.858

$$$$
Compound 2732
Actelion Java MolfileCreator 2.0

  0  0  0  0  0  0              0 V3000
M  V30 BEGIN CTAB
M  V30 COUNTS 42 41 0 0 0
M  V30 BEGIN ATOM
M  V30 1 O -1.85 1.5415 -1.7729 0
M  V30 2 C -1.8193 0.7011 -0.8876 0
M  V30 3 O -0.7089 0.3025 -0.2212 0
M  V30 4 N -2.8912 0.0164 -0.4044 0
M  V30 5 C 0.5008 0.9437 -0.652 0
M  V30 6 C -4.2485 0.2352 -0.8663 0
M  V30 7 C 1.7135 0.3923 0.1466 0 CFG=2
M  V30 8 C -5.0585 -1.0513 -0.7484 0
M  V30 9 C -4.9035 1.3651 -0.0763 0
M  V30 10 C 1.8299 -1.1366 -0.0798 0
M  V30 11 C 1.4886 0.6874 1.6611 0
M  V30 12 C 2.9745 1.0942 -0.3874 0
M  V30 13 O 1.9475 -1.4207 -1.4832 0
M  V30 14 C 2.6458 0.3673 2.6189 0
M  V30 15 C 1.9969 -2.7376 -1.7803 0
M  V30 16 C 3.5282 1.5706 2.9223 0
M  V30 17 O 1.9672 -3.6629 -0.986 0
M  V30 18 N 2.0864 -2.902 -3.1178 0
M  V30 19 H -2.7011 -0.6179 0.3586 0
M  V30 20 H 0.4071 2.0249 -0.4856 0
M  V30 21 H 0.6359 0.7721 -1.7273 0
M  V30 22 H -4.2075 0.5285 -1.9221 0
M  V30 23 H -5.1207 -1.3891 0.2921 0
M  V30 24 H -4.5937 -1.8558 -1.3286 0
M  V30 25 H -6.0775 -0.9083 -1.1227 0
M  V30 26 H -5.9242 1.5477 -0.4281 0
M  V30 27 H -4.9469 1.1282 0.9926 0
M  V30 28 H -4.3377 2.2969 -0.1838 0
M  V30 29 H 2.7185 -1.5334 0.4234 0
M  V30 30 H 0.9462 -1.6502 0.3192 0
M  V30 31 H 0.6229 0.0989 1.9951 0
M  V30 32 H 1.196 1.738 1.7899 0
M  V30 33 H 3.8853 0.6733 0.0505 0
M  V30 34 H 2.951 2.167 -0.1663 0
M  V30 35 H 3.0628 0.9879 -1.4746 0
M  V30 36 H 2.2155 0.0331 3.5716 0
M  V30 37 H 3.2612 -0.4594 2.254 0
M  V30 38 H 4.2969 1.2961 3.652 0
M  V30 39 H 4.0354 1.9436 2.0299 0
M  V30 40 H 2.9398 2.3894 3.3492 0
M  V30 41 H 2.1293 -3.8358 -3.4956 0
M  V30 42 H 2.0982 -2.097 -3.7239 0
M  V30 END ATOM
M  V30 BEGIN BOND
M  V30 1 2 1 2
M  V30 2 1 2 3
M  V30 3 1 2 4
M  V30 4 1 3 5
M  V30 5 1 4 6
M  V30 6 1 5 7
M  V30 7 1 6 8
M  V30 8 1 6 9
M  V30 9 1 7 10
M  V30 10 1 7 11
M  V30 11 1 7 12
M  V30 12 1 10 13
M  V30 13 1 11 14
M  V30 14 1 13 15
M  V30 15 1 14 16
M  V30 16 2 15 17
M  V30 17 1 15 18
M  V30 18 1 4 19
M  V30 19 1 5 20
M  V30 20 1 5 21
M  V30 21 1 6 22
M  V30 22 1 8 23
M  V30 23 1 8 24
M  V30 24 1 8 25
M  V30 25 1 9 26
M  V30 26 1 9 27
M  V30 27 1 9 28
M  V30 28 1 10 29
M  V30 29 1 10 30
M  V30 30 1 11 31
M  V30 31 1 11 32
M  V30 32 1 12 33
M  V30 33 1 12 34
M  V30 34 1 12 35
M  V30 35 1 14 36
M  V30 36 1 14 37
M  V30 37 1 16 38
M  V30 38 1 16 39
M  V30 39 1 16 40
M  V30 40 1 18 41
M  V30 41 1 18 42
M  V30 END BOND
M  V30 BEGIN COLLECTION
M  V30 MDLV30/STERAC1 ATOMS=(1 7)
M  V30 END COLLECTION
M  V30 END CTAB
M  END
>  <Column 1>
3437

>  <level_0>
5677

>  <index>
5678

>  <Unnamed: 0>
5678

>  <NO.>
5690

>  <Name>
carisoprodol

>  <IUPAC_name>
[2-(carbamoyloxymethyl)-2-methylpentyl] n-propan-2-ylcarbamate

>  <SMILES>
CCCC(C)(COC(N)=O)COC(=O)NC(C)C

>  <CID>
2576

>  <logBB>


>  <BBB+/BBB->
BBB+

>  <Inchi>
InChI=1S/C12H24N2O4/c1-5-6-12(4-7-17-10(13)15)8-18-11(16)14-9(2)3/h9H-5-8H2-1-4H3-(H2-13-15)(H-14-16)

>  <threshold>


>  <reference>
R23|R37|

>  <group>
C

>  <Class>
-1

>  <ABC>
12.73

>  <ABCGG>
12.23

>  <nAcid>
0

>  <nBase>
0

>  <nAromAtom>
0

>  <nAromBond>
0

>  <nAtom>
42

>  <nHeavyAtom>
18

>  <nSpiro>
0

>  <nBridgehead>
0

>  <nHetero>
6

>  <nN>
2

>  <nO>
4

>  <nF>
0

>  <BalabanJ>
4.15

>  <BertzCT>
281.25

>  <nBonds>
41

>  <nBondsO>
17

>  <nBondsS>
39

>  <nBondsD>
2

>  <nBondsT>
0

>  <nBondsA>
0

>  <nBondsM>
2

>  <nBondsKS>
39

>  <nBondsKD>
2

>  <RNCG>
0.19

>  <RPCG>
0.18

>  <FCSP3>
0.83

>  <SZ>
23.67

>  <Sm>
21.67

>  <Sv>
22.88

>  <Sse>
42.3

>  <Sp>
24.82

>  <Si>
48.4

>  <MZ>
0.56

>  <Mm>
0.52

>  <Mv>
0.54

>  <Mse>
1.01

>  <Mp>
0.59

>  <Mi>
1.15

>  <NsCH3>
4

>  <NdCH2>
0

>  <NssCH2>
4

>  <NtCH>
0

>  <NdsCH>
0

>  <NaaCH>
0

>  <NsssCH>
1

>  <NddC>
0

>  <NtsC>
0

>  <NdssC>
2

>  <NaasC>
0

>  <NaaaC>
0

>  <NssssC>
1

>  <NsNH3>
0

>  <NsNH2>
1

>  <NssNH2>
0

>  <NdNH>
0

>  <NssNH>
1

>  <NaaNH>
0

>  <NtN>
0

>  <NsssNH>
0

>  <NdsN>
0

>  <NaaN>
0

>  <NsssN>
0

>  <NddsN>
0

>  <NaasN>
0

>  <NssssN>
0

>  <NsOH>
0

>  <NdO>
2

>  <NssO>
2

>  <NaaO>
0

>  <NsF>
0

>  <NsSiH3>
0

>  <NssSiH2>
0

>  <NsssSiH>
0

>  <NssssSi>
0

>  <NsPH2>
0

>  <NssPH>
0

>  <NsssP>
0

>  <NdsssP>
0

>  <NsssssP>
0

>  <NsSH>
0

>  <NdS>
0

>  <NssS>
0

>  <NaaS>
0

>  <NdssS>
0

>  <NddssS>
0

>  <NsCl>
0

>  <NsBr>
0

>  <NsI>
0

>  <fragCpx>
17.06

>  <fMF>
0

>  <nHBAcc>
4

>  <nHBDon>
2

>  <Kier1>
18

>  <Kier2>
8.99

>  <Lipinski>
1

>  <GhoseFilter>
1

>  <FilterItLogS>
-2.22

>  <VMcGowan>
214.78

>  <LabuteASA>
108.19

>  <PEOE_VSA1>
20.52

>  <PEOE_VSA2>
0

>  <PEOE_VSA3>
9.59

>  <PEOE_VSA4>
0

>  <PEOE_VSA5>
0

>  <PEOE_VSA6>
20.27

>  <PEOE_VSA7>
20.27

>  <PEOE_VSA8>
11.46

>  <PEOE_VSA9>
0

>  <PEOE_VSA10>
13.21

>  <PEOE_VSA11>
0

>  <PEOE_VSA12>
0

>  <PEOE_VSA13>
0

>  <SMR_VSA1>
19.06

>  <SMR_VSA2>
0

>  <SMR_VSA3>
5.32

>  <SMR_VSA4>
11.15

>  <SMR_VSA5>
46.58

>  <SMR_VSA6>
13.21

>  <SMR_VSA7>
0

>  <SMR_VSA8>
0

>  <SMR_VSA9>
0

>  <SlogP_VSA1>
11.05

>  <SlogP_VSA2>
31.44

>  <SlogP_VSA3>
9.47

>  <SlogP_VSA4>
5.41

>  <SlogP_VSA5>
40.54

>  <SlogP_VSA6>
0

>  <SlogP_VSA7>
0

>  <SlogP_VSA8>
0

>  <SlogP_VSA9>
0

>  <SlogP_VSA10>
9.59

>  <SlogP_VSA11>
0

>  <EState_VSA1>
17.6

>  <EState_VSA2>
19.26

>  <EState_VSA3>
0

>  <EState_VSA4>
12.84

>  <EState_VSA5>
0

>  <EState_VSA6>
0

>  <EState_VSA7>
27.69

>  <EState_VSA8>
5.32

>  <EState_VSA9>
15.21

>  <EState_VSA10>
9.59

>  <VSA_EState1>
9.92

>  <VSA_EState2>
21.99

>  <VSA_EState3>
2.63

>  <VSA_EState4>
4.53

>  <VSA_EState5>
0

>  <VSA_EState6>
0.02

>  <VSA_EState7>
0.39

>  <VSA_EState8>
7.93

>  <VSA_EState9>
0

>  <apol>
41.45

>  <bpol>
29.28

>  <nRing>
0

>  <nHRing>
0

>  <naRing>
0

>  <naHRing>
0

>  <nARing 2>
0

>  <nAHRing 2>
0

>  <nFRing>
0

>  <nFHRing>
0

>  <nFaRing>
0

>  <nFaHRing>
0

>  <nFARing 2>
0

>  <nFAHRing 2>
0

>  <nRot>
7

>  <SLogP>
2.02

>  <SMR>
68.17

>  <TopoPSA(NO)>
90.65

>  <TopoPSA>
90.65

>  <JGI1>
0.35

>  <JGI2>
0.09

>  <JGI3>
0.06

>  <JGI4>
0.05

>  <JGI5>
0.02

>  <Diameter>
10

>  <Radius>
5

>  <TMWC10>
102.71

>  <TSRW10>
49.53

>  <MW>
260.17

>  <AMW>
6.19

>  <WPath>
692

>  <WPol>
20

>  <Zagreb1>
78

>  <Zagreb2>
81

>  <mZagreb2>
4.21

>  <yes>


>  <nAR-cont>
0.336376

>  <nHA-cont>
0.991161285

>  <MWHBN>
0.371982614

>  <MWHBN-cont>
0.586154176

>  <TPSA-cont>
0.36720671

>  <pka_cont>
0.97

>  <yes.1>


>  <BBB_SCORE>
3.426181968

>  <MMFF94 Energy>
-121.56

$$$$
Compound 2733
Actelion Java MolfileCreator 2.0

  0  0  0  0  0  0              0 V3000
M  V30 BEGIN CTAB
M  V30 COUNTS 102 106 0 0 0
M  V30 BEGIN ATOM
M  V30 1 O -3.6611 -1.7497 -1.3518 0
M  V30 2 C -3.5834 -0.8534 -2.1809 0
M  V30 3 N -2.597 -0.7697 -3.14 0
M  V30 4 C -4.5614 0.2679 -2.2143 0
M  V30 5 C -1.481 -1.7196 -3.2168 0
M  V30 6 N -4.3523 1.2404 -3.152 0
M  V30 7 C -5.6116 0.3069 -1.3105 0
M  V30 8 C -0.3736 -1.2545 -2.2355 0
M  V30 9 C -0.9535 -1.8097 -4.6715 0
M  V30 10 C -5.2535 2.2506 -3.1242 0
M  V30 11 N -6.513 1.3221 -1.2984 0
M  V30 12 O 0.4744 -2.0169 -1.7789 0
M  V30 13 N -0.3229 0.1066 -2.0395 0
M  V30 14 C 0.244 -2.7723 -4.7965 0
M  V30 15 C -2.0788 -2.2502 -5.6333 0
M  V30 16 C -6.307 2.2909 -2.2214 0
M  V30 17 C 0.6398 0.7728 -1.163 0
M  V30 18 C 0.7205 -2.9252 -6.2397 0
M  V30 19 C -1.5898 -2.3982 -7.0717 0
M  V30 20 C -0.2311 1.308 0.007 0
M  V30 21 C 1.4594 1.8503 -1.9402 0
M  V30 22 C -0.4086 -3.3541 -7.1666 0
M  V30 23 O -0.9745 2.2806 -0.1594 0
M  V30 24 N -0.2806 0.5852 1.185 0
M  V30 25 C 2.3255 2.6565 -0.958 0
M  V30 26 C 0.5923 2.8326 -2.7527 0
M  V30 27 C 2.4069 1.1319 -2.9287 0
M  V30 28 C 0.5187 -0.5926 1.5492 0
M  V30 29 C -1.3056 0.8516 2.1777 0
M  V30 30 C 1.9303 -0.226 2.0628 0
M  V30 31 C -0.2648 -1.2837 2.6883 0
M  V30 32 C -1.5774 -0.4929 2.8327 0
M  V30 33 O 2.8455 -1.0462 2.1058 0
M  V30 34 N 2.0544 1.0109 2.6596 0
M  V30 35 C -0.71 -2.7005 2.3309 0
M  V30 36 C -2.6586 -1.3266 2.1247 0
M  V30 37 C 3.2687 1.3892 3.3749 0
M  V30 38 C -1.9332 -2.4866 1.4564 0
M  V30 39 C 3.4292 0.6755 4.7209 0
M  V30 40 C 3.3227 2.9007 3.6495 0
M  V30 41 O 4.4982 0.5803 5.3228 0
M  V30 42 C 2.1679 0.1767 5.4246 0
M  V30 43 C 3.3439 3.743 2.3754 0
M  V30 44 O 1.0904 0.7289 5.2511 0
M  V30 45 N 2.4028 -0.9092 6.2422 0
M  V30 46 C 3.5366 5.2195 2.685 0
M  V30 47 C 1.3775 -1.5514 6.9931 0
M  V30 48 C 1.7221 -2.5626 8.0515 0
M  V30 49 C 1.1763 -1.2216 8.4457 0
M  V30 50 H -2.6563 0.0144 -3.7861 0
M  V30 51 H -1.8345 -2.6976 -2.8682 0
M  V30 52 H -5.7596 -0.471 -0.5691 0
M  V30 53 H -0.6138 -0.8111 -4.9827 0
M  V30 54 H -5.1087 3.0404 -3.8535 0
M  V30 55 H -1.1253 0.6466 -2.3438 0
M  V30 56 H -0.0298 -3.7576 -4.3986 0
M  V30 57 H 1.0903 -2.4099 -4.2034 0
M  V30 58 H -2.8992 -1.5234 -5.6235 0
M  V30 59 H -2.4985 -3.2064 -5.295 0
M  V30 60 H -7.018 3.1102 -2.2161 0
M  V30 61 H 1.3495 0.0354 -0.7827 0
M  V30 62 H 1.1372 -1.9718 -6.5876 0
M  V30 63 H 1.5312 -3.6613 -6.2824 0
M  V30 64 H -2.4088 -2.7617 -7.7027 0
M  V30 65 H -1.2989 -1.4147 -7.4611 0
M  V30 66 H -0.0452 -3.392 -8.1997 0
M  V30 67 H -0.7343 -4.3681 -6.9039 0
M  V30 68 H 3.0019 3.3365 -1.4884 0
M  V30 69 H 1.7043 3.2691 -0.2976 0
M  V30 70 H 2.9397 1.9958 -0.3363 0
M  V30 71 H -0.0233 2.3152 -3.496 0
M  V30 72 H -0.0704 3.4239 -2.1153 0
M  V30 73 H 1.2224 3.5445 -3.2997 0
M  V30 74 H 1.8479 0.5657 -3.6819 0
M  V30 75 H 3.0686 0.4321 -2.4057 0
M  V30 76 H 3.0414 1.8492 -3.4621 0
M  V30 77 H 0.6437 -1.2442 0.6828 0
M  V30 78 H -2.198 1.3075 1.738 0
M  V30 79 H -0.8891 1.5568 2.9048 0
M  V30 80 H 0.3027 -1.2972 3.6239 0
M  V30 81 H -1.8626 -0.3542 3.8819 0
M  V30 82 H 1.2315 1.6009 2.72 0
M  V30 83 H -0.9961 -3.2405 3.2417 0
M  V30 84 H 0.0683 -3.2796 1.8252 0
M  V30 85 H -3.3516 -1.7228 2.8774 0
M  V30 86 H -3.2552 -0.7528 1.4088 0
M  V30 87 H 4.1223 1.088 2.7549 0
M  V30 88 H -1.6315 -2.2095 0.4409 0
M  V30 89 H -2.5585 -3.3816 1.389 0
M  V30 90 H 2.4627 3.1988 4.2641 0
M  V30 91 H 4.2181 3.1282 4.2428 0
M  V30 92 H 4.1492 3.4052 1.7136 0
M  V30 93 H 2.3982 3.6207 1.8395 0
M  V30 94 H 3.3659 -1.226 6.3226 0
M  V30 95 H 3.535 5.8036 1.7593 0
M  V30 96 H 2.7313 5.5945 3.325 0
M  V30 97 H 4.4898 5.3927 3.1944 0
M  V30 98 H 0.4813 -1.751 6.4084 0
M  V30 99 H 2.7651 -2.7653 8.2636 0
M  V30 100 H 1.0737 -3.4252 8.1559 0
M  V30 101 H 0.1578 -1.1713 8.8133 0
M  V30 102 H 1.8506 -0.5127 8.912 0
M  V30 END ATOM
M  V30 BEGIN BOND
M  V30 1 2 1 2
M  V30 2 1 2 3
M  V30 3 1 2 4
M  V30 4 1 3 5
M  V30 5 2 4 6
M  V30 6 1 4 7
M  V30 7 1 5 8
M  V30 8 1 5 9
M  V30 9 1 6 10
M  V30 10 2 7 11
M  V30 11 2 8 12
M  V30 12 1 8 13
M  V30 13 1 9 14
M  V30 14 1 9 15
M  V30 15 2 10 16
M  V30 16 1 13 17
M  V30 17 1 14 18
M  V30 18 1 15 19
M  V30 19 1 17 20
M  V30 20 1 17 21
M  V30 21 1 18 22
M  V30 22 2 20 23
M  V30 23 1 20 24
M  V30 24 1 21 25
M  V30 25 1 21 26
M  V30 26 1 21 27
M  V30 27 1 24 28
M  V30 28 1 24 29
M  V30 29 1 28 30
M  V30 30 1 28 31
M  V30 31 1 29 32
M  V30 32 2 30 33
M  V30 33 1 30 34
M  V30 34 1 31 35
M  V30 35 1 32 36
M  V30 36 1 34 37
M  V30 37 1 35 38
M  V30 38 1 37 39
M  V30 39 1 37 40
M  V30 40 2 39 41
M  V30 41 1 39 42
M  V30 42 1 40 43
M  V30 43 2 42 44
M  V30 44 1 42 45
M  V30 45 1 43 46
M  V30 46 1 45 47
M  V30 47 1 47 48
M  V30 48 1 47 49
M  V30 49 1 11 16
M  V30 50 1 19 22
M  V30 51 1 31 32
M  V30 52 1 36 38
M  V30 53 1 48 49
M  V30 54 1 3 50
M  V30 55 1 5 51
M  V30 56 1 7 52
M  V30 57 1 9 53
M  V30 58 1 10 54
M  V30 59 1 13 55
M  V30 60 1 14 56
M  V30 61 1 14 57
M  V30 62 1 15 58
M  V30 63 1 15 59
M  V30 64 1 16 60
M  V30 65 1 17 61
M  V30 66 1 18 62
M  V30 67 1 18 63
M  V30 68 1 19 64
M  V30 69 1 19 65
M  V30 70 1 22 66
M  V30 71 1 22 67
M  V30 72 1 25 68
M  V30 73 1 25 69
M  V30 74 1 25 70
M  V30 75 1 26 71
M  V30 76 1 26 72
M  V30 77 1 26 73
M  V30 78 1 27 74
M  V30 79 1 27 75
M  V30 80 1 27 76
M  V30 81 1 28 77
M  V30 82 1 29 78
M  V30 83 1 29 79
M  V30 84 1 31 80
M  V30 85 1 32 81
M  V30 86 1 34 82
M  V30 87 1 35 83
M  V30 88 1 35 84
M  V30 89 1 36 85
M  V30 90 1 36 86
M  V30 91 1 37 87
M  V30 92 1 38 88
M  V30 93 1 38 89
M  V30 94 1 40 90
M  V30 95 1 40 91
M  V30 96 1 43 92
M  V30 97 1 43 93
M  V30 98 1 45 94
M  V30 99 1 46 95
M  V30 100 1 46 96
M  V30 101 1 46 97
M  V30 102 1 47 98
M  V30 103 1 48 99
M  V30 104 1 48 100
M  V30 105 1 49 101
M  V30 106 1 49 102
M  V30 END BOND
M  V30 END CTAB
M  END
>  <Column 1>
3438

>  <level_0>
5678

>  <index>
5679

>  <Unnamed: 0>
5679

>  <NO.>
5691

>  <Name>
telaprevir

>  <IUPAC_name>
2-[2-[[2-cyclohexyl-2-(pyrazine-2-carbonylamino)acetyl]amino]-3-3-dimethylbutanoyl]-n-[1-(cyclopropylamino)-1-2-dioxohexan-3-yl]-3-3a-4-5-6-6a-hexahydro-1h-cyclopenta[c]pyrrole-3-carboxamide

>  <SMILES>
CCCC(NC(=O)C1C2CCCC2CN1C(=O)C(NC(=O)C(NC(=O)c1cnccn1)C1CCCCC1)C(C)(C)C)C(=O)C(=O)NC1CC1

>  <CID>
21889836

>  <logBB>


>  <BBB+/BBB->
BBB-

>  <Inchi>
InChI=1S/C36H53N7O6/c1-5-10-25(29(44)34(48)39-23-15-16-23)40-33(47)28-24-14-9-13-22(24)20-43(28)35(49)30(36(2-3)4)42-32(46)27(21-11-7-6-8-12-21)41-31(45)26-19-37-17-18-38-26/h17-19-21-25-27-28-30H-5-16-20H2-1-4H3-(H-39-48)(H-40-47)(H-41-45)(H-42-46)

>  <threshold>


>  <reference>
R23|

>  <group>
C

>  <Class>
-1

>  <ABC>
38.1

>  <ABCGG>
31.71

>  <nAcid>
0

>  <nBase>
0

>  <nAromAtom>
6

>  <nAromBond>
6

>  <nAtom>
102

>  <nHeavyAtom>
49

>  <nSpiro>
0

>  <nBridgehead>
0

>  <nHetero>
13

>  <nN>
7

>  <nO>
6

>  <nF>
0

>  <BalabanJ>
1.32

>  <BertzCT>
1387.63

>  <nBonds>
106

>  <nBondsO>
53

>  <nBondsS>
94

>  <nBondsD>
6

>  <nBondsT>
0

>  <nBondsA>
6

>  <nBondsM>
12

>  <nBondsKS>
97

>  <nBondsKD>
9

>  <RNCG>
0.07

>  <RPCG>
0.06

>  <FCSP3>
0.72

>  <SZ>
61

>  <Sm>
56.6

>  <Sv>
59.95

>  <Sse>
102.15

>  <Sp>
64.65

>  <Si>
116.3

>  <MZ>
0.6

>  <Mm>
0.55

>  <Mv>
0.59

>  <Mse>
1

>  <Mp>
0.63

>  <Mi>
1.14

>  <NsCH3>
4

>  <NdCH2>
0

>  <NssCH2>
13

>  <NtCH>
0

>  <NdsCH>
0

>  <NaaCH>
3

>  <NsssCH>
8

>  <NddC>
0

>  <NtsC>
0

>  <NdssC>
6

>  <NaasC>
1

>  <NaaaC>
0

>  <NssssC>
1

>  <NsNH3>
0

>  <NsNH2>
0

>  <NssNH2>
0

>  <NdNH>
0

>  <NssNH>
4

>  <NaaNH>
0

>  <NtN>
0

>  <NsssNH>
0

>  <NdsN>
0

>  <NaaN>
2

>  <NsssN>
1

>  <NddsN>
0

>  <NaasN>
0

>  <NssssN>
0

>  <NsOH>
0

>  <NdO>
6

>  <NssO>
0

>  <NaaO>
0

>  <NsF>
0

>  <NsSiH3>
0

>  <NssSiH2>
0

>  <NsssSiH>
0

>  <NssssSi>
0

>  <NsPH2>
0

>  <NssPH>
0

>  <NsssP>
0

>  <NdsssP>
0

>  <NsssssP>
0

>  <NsSH>
0

>  <NdS>
0

>  <NssS>
0

>  <NaaS>
0

>  <NdssS>
0

>  <NddssS>
0

>  <NsCl>
0

>  <NsBr>
0

>  <NsI>
0

>  <fragCpx>
457.13

>  <fMF>
0.35

>  <nHBAcc>
8

>  <nHBDon>
4

>  <Kier1>
40.19

>  <Kier2>
18.36

>  <Lipinski>
0

>  <GhoseFilter>
0

>  <FilterItLogS>
-5.86

>  <VMcGowan>
530.18

>  <LabuteASA>
288.45

>  <PEOE_VSA1>
26.17

>  <PEOE_VSA2>
33.75

>  <PEOE_VSA3>
4.98

>  <PEOE_VSA4>
0

>  <PEOE_VSA5>
0

>  <PEOE_VSA6>
59.8

>  <PEOE_VSA7>
68.11

>  <PEOE_VSA8>
24.98

>  <PEOE_VSA9>
12.24

>  <PEOE_VSA10>
23.82

>  <PEOE_VSA11>
0

>  <PEOE_VSA12>
23.5

>  <PEOE_VSA13>
11.81

>  <SMR_VSA1>
28.77

>  <SMR_VSA2>
0

>  <SMR_VSA3>
36.14

>  <SMR_VSA4>
23.17

>  <SMR_VSA5>
134.95

>  <SMR_VSA6>
6.54

>  <SMR_VSA7>
24.28

>  <SMR_VSA8>
0

>  <SMR_VSA9>
0

>  <SlogP_VSA1>
21.27

>  <SlogP_VSA2>
86.94

>  <SlogP_VSA3>
23.97

>  <SlogP_VSA4>
23.17

>  <SlogP_VSA5>
115.23

>  <SlogP_VSA6>
18.59

>  <SlogP_VSA7>
0

>  <SlogP_VSA8>
0

>  <SlogP_VSA9>
0

>  <SlogP_VSA10>
0

>  <SlogP_VSA11>
0

>  <EState_VSA1>
58.99

>  <EState_VSA2>
35.4

>  <EState_VSA3>
19.39

>  <EState_VSA4>
64.21

>  <EState_VSA5>
18.59

>  <EState_VSA6>
4.9

>  <EState_VSA7>
27.69

>  <EState_VSA8>
31.24

>  <EState_VSA9>
0

>  <EState_VSA10>
28.77

>  <VSA_EState1>
0

>  <VSA_EState2>
91.41

>  <VSA_EState3>
11.49

>  <VSA_EState4>
-0.64

>  <VSA_EState5>
-3.2

>  <VSA_EState6>
-3.68

>  <VSA_EState7>
13.86

>  <VSA_EState8>
7.85

>  <VSA_EState9>
0

>  <apol>
107.97

>  <bpol>
64.65

>  <nRing>
5

>  <nHRing>
2

>  <naRing>
1

>  <naHRing>
1

>  <nARing 2>
4

>  <nAHRing 2>
1

>  <nFRing>
1

>  <nFHRing>
1

>  <nFaRing>
0

>  <nFaHRing>
0

>  <nFARing 2>
1

>  <nFAHRing 2>
1

>  <nRot>
13

>  <SLogP>
2.45

>  <SMR>
180.59

>  <TopoPSA(NO)>
179.56

>  <TopoPSA>
179.56

>  <JGI1>
0.2

>  <JGI2>
0.09

>  <JGI3>
0.06

>  <JGI4>
0.04

>  <JGI5>
0.03

>  <Diameter>
20

>  <Radius>
10

>  <TMWC10>
183.91

>  <TSRW10>
107.39

>  <MW>
679.41

>  <AMW>
6.66

>  <WPath>
9270

>  <WPol>
79

>  <Zagreb1>
258

>  <Zagreb2>
305

>  <mZagreb2>
10.72

>  <yes>


>  <nAR-cont>
0.199399

>  <nHA-cont>
0

>  <MWHBN>
0.46037876

>  <MWHBN-cont>
0

>  <TPSA-cont>
0

>  <pka_cont>
0.97

>  <yes.1>


>  <BBB_SCORE>
0.684399

>  <MMFF94 Energy>
197.05

$$$$
Compound 2734
Actelion Java MolfileCreator 2.0

  0  0  0  0  0  0              0 V3000
M  V30 BEGIN CTAB
M  V30 COUNTS 40 42 0 0 0
M  V30 BEGIN ATOM
M  V30 1 O -1.5925 2.1504 0.5571 0
M  V30 2 C -0.7878 1.2454 0.7263 0
M  V30 3 N -0.6647 0.0493 0.0157 0
M  V30 4 C 0.2479 1.2138 1.8261 0
M  V30 5 N 0.3825 -0.73 0.5334 0
M  V30 6 C -1.673 -0.4298 -0.8526 0
M  V30 7 C 0.9583 -0.1073 1.6426 0
M  V30 8 C 1.2328 2.38 1.725 0
M  V30 9 C 1.0074 -1.798 -0.1512 0
M  V30 10 C -2.1833 0.4007 -1.8578 0
M  V30 11 C -2.1788 -1.7296 -0.7215 0
M  V30 12 O 1.8866 -0.4951 2.3382 0
M  V30 13 C 0.68 3.6643 2.3492 0
M  V30 14 C 1.2035 -1.7484 -1.5373 0
M  V30 15 C 1.4452 -2.9229 0.5582 0
M  V30 16 C -3.1739 -0.0646 -2.7255 0
M  V30 17 C -3.1681 -2.1943 -1.5914 0
M  V30 18 C 1.6882 4.8003 2.2663 0
M  V30 19 C 1.8142 -2.8134 -2.2034 0
M  V30 20 C 2.0575 -3.9863 -0.1088 0
M  V30 21 C -3.6637 -1.3624 -2.5935 0
M  V30 22 C 2.2392 -3.932 -1.4893 0
M  V30 23 H -0.2638 1.1845 2.7946 0
M  V30 24 H 1.49 2.5666 0.6741 0
M  V30 25 H 2.171 2.1229 2.2329 0
M  V30 26 H -1.8165 1.4181 -1.9749 0
M  V30 27 H -1.8173 -2.3923 0.0602 0
M  V30 28 H -0.2401 3.9714 1.8414 0
M  V30 29 H 0.4269 3.4867 3.401 0
M  V30 30 H 0.8923 -0.8812 -2.1138 0
M  V30 31 H 1.3156 -2.9827 1.6367 0
M  V30 32 H -3.5652 0.5888 -3.5013 0
M  V30 33 H -3.5537 -3.2051 -1.4837 0
M  V30 34 H 1.2749 5.7074 2.7186 0
M  V30 35 H 2.6108 4.5462 2.7977 0
M  V30 36 H 1.9412 5.0247 1.2251 0
M  V30 37 H 1.9608 -2.7675 -3.2797 0
M  V30 38 H 2.396 -4.8543 0.4513 0
M  V30 39 H -4.436 -1.7235 -3.2682 0
M  V30 40 H 2.7174 -4.7593 -2.0077 0
M  V30 END ATOM
M  V30 BEGIN BOND
M  V30 1 2 1 2
M  V30 2 1 2 3
M  V30 3 1 2 4
M  V30 4 1 3 5
M  V30 5 1 3 6
M  V30 6 1 4 7
M  V30 7 1 4 8
M  V30 8 1 5 9
M  V30 9 2 6 10
M  V30 10 1 6 11
M  V30 11 2 7 12
M  V30 12 1 8 13
M  V30 13 2 9 14
M  V30 14 1 9 15
M  V30 15 1 10 16
M  V30 16 2 11 17
M  V30 17 1 13 18
M  V30 18 1 14 19
M  V30 19 2 15 20
M  V30 20 2 16 21
M  V30 21 2 19 22
M  V30 22 1 5 7
M  V30 23 1 17 21
M  V30 24 1 20 22
M  V30 25 1 4 23
M  V30 26 1 8 24
M  V30 27 1 8 25
M  V30 28 1 10 26
M  V30 29 1 11 27
M  V30 30 1 13 28
M  V30 31 1 13 29
M  V30 32 1 14 30
M  V30 33 1 15 31
M  V30 34 1 16 32
M  V30 35 1 17 33
M  V30 36 1 18 34
M  V30 37 1 18 35
M  V30 38 1 18 36
M  V30 39 1 19 37
M  V30 40 1 20 38
M  V30 41 1 21 39
M  V30 42 1 22 40
M  V30 END BOND
M  V30 END CTAB
M  END
>  <Column 1>
3439

>  <level_0>
5679

>  <index>
5680

>  <Unnamed: 0>
5680

>  <NO.>
5692

>  <Name>
phenylbutazone

>  <IUPAC_name>
1-2-diphenyl-4-propylpyrazolidine-3-5-dione

>  <SMILES>
CCCC1C(=O)N(c2ccccc2)N(c2ccccc2)C1=O

>  <CID>
201492

>  <logBB>


>  <BBB+/BBB->
BBB-

>  <Inchi>
InChI=1S/C18H18N2O2/c1-2-9-16-17(21)19(14-10-5-3-6-11-14)20(18(16)22)15-12-7-4-8-13-15/h3-8-10-13-16H-2-9H2-1H3

>  <threshold>


>  <reference>
R23|

>  <group>
C

>  <Class>
-1

>  <ABC>
16.91

>  <ABCGG>
14.6

>  <nAcid>
0

>  <nBase>
0

>  <nAromAtom>
12

>  <nAromBond>
12

>  <nAtom>
40

>  <nHeavyAtom>
22

>  <nSpiro>
0

>  <nBridgehead>
0

>  <nHetero>
4

>  <nN>
2

>  <nO>
2

>  <nF>
0

>  <BalabanJ>
1.8

>  <BertzCT>
612.5

>  <nBonds>
42

>  <nBondsO>
24

>  <nBondsS>
28

>  <nBondsD>
2

>  <nBondsT>
0

>  <nBondsA>
12

>  <nBondsM>
14

>  <nBondsKS>
34

>  <nBondsKD>
8

>  <RNCG>
0.17

>  <RPCG>
0.16

>  <FCSP3>
0.22

>  <SZ>
26

>  <Sm>
24.51

>  <Sv>
25.82

>  <Sse>
39.98

>  <Sp>
27.46

>  <Si>
44.74

>  <MZ>
0.65

>  <Mm>
0.61

>  <Mv>
0.65

>  <Mse>
1

>  <Mp>
0.69

>  <Mi>
1.12

>  <NsCH3>
1

>  <NdCH2>
0

>  <NssCH2>
2

>  <NtCH>
0

>  <NdsCH>
0

>  <NaaCH>
10

>  <NsssCH>
1

>  <NddC>
0

>  <NtsC>
0

>  <NdssC>
2

>  <NaasC>
2

>  <NaaaC>
0

>  <NssssC>
0

>  <NsNH3>
0

>  <NsNH2>
0

>  <NssNH2>
0

>  <NdNH>
0

>  <NssNH>
0

>  <NaaNH>
0

>  <NtN>
0

>  <NsssNH>
0

>  <NdsN>
0

>  <NaaN>
0

>  <NsssN>
2

>  <NddsN>
0

>  <NaasN>
0

>  <NssssN>
0

>  <NsOH>
0

>  <NdO>
2

>  <NssO>
0

>  <NaaO>
0

>  <NsF>
0

>  <NsSiH3>
0

>  <NssSiH2>
0

>  <NsssSiH>
0

>  <NssssSi>
0

>  <NsPH2>
0

>  <NssPH>
0

>  <NsssP>
0

>  <NdsssP>
0

>  <NsssssP>
0

>  <NsSH>
0

>  <NdS>
0

>  <NssS>
0

>  <NaaS>
0

>  <NdssS>
0

>  <NddssS>
0

>  <NsCl>
0

>  <NsBr>
0

>  <NsI>
0

>  <fragCpx>
114.04

>  <fMF>
0.43

>  <nHBAcc>
2

>  <nHBDon>
0

>  <Kier1>
16.84

>  <Kier2>
7.71

>  <Lipinski>
1

>  <GhoseFilter>
1

>  <FilterItLogS>
-3.64

>  <VMcGowan>
229.2

>  <LabuteASA>
129.49

>  <PEOE_VSA1>
0

>  <PEOE_VSA2>
9.59

>  <PEOE_VSA3>
10.02

>  <PEOE_VSA4>
0

>  <PEOE_VSA5>
0

>  <PEOE_VSA6>
49.74

>  <PEOE_VSA7>
30.69

>  <PEOE_VSA8>
0

>  <PEOE_VSA9>
11.37

>  <PEOE_VSA10>
5.92

>  <PEOE_VSA11>
0

>  <PEOE_VSA12>
0

>  <PEOE_VSA13>
11.81

>  <SMR_VSA1>
9.59

>  <SMR_VSA2>
0

>  <SMR_VSA3>
0

>  <SMR_VSA4>
5.92

>  <SMR_VSA5>
19.77

>  <SMR_VSA6>
10.02

>  <SMR_VSA7>
60.66

>  <SMR_VSA8>
0

>  <SMR_VSA9>
0

>  <SlogP_VSA1>
10.02

>  <SlogP_VSA2>
11.81

>  <SlogP_VSA3>
9.59

>  <SlogP_VSA4>
5.92

>  <SlogP_VSA5>
19.77

>  <SlogP_VSA6>
60.66

>  <SlogP_VSA7>
0

>  <SlogP_VSA8>
0

>  <SlogP_VSA9>
0

>  <SlogP_VSA10>
11.37

>  <SlogP_VSA11>
0

>  <EState_VSA1>
5.92

>  <EState_VSA2>
11.81

>  <EState_VSA3>
17.8

>  <EState_VSA4>
6.42

>  <EState_VSA5>
10.02

>  <EState_VSA6>
0

>  <EState_VSA7>
67.59

>  <EState_VSA8>
0

>  <EState_VSA9>
0

>  <EState_VSA10>
9.59

>  <VSA_EState1>
0

>  <VSA_EState2>
25.51

>  <VSA_EState3>
3

>  <VSA_EState4>
1.42

>  <VSA_EState5>
-0.89

>  <VSA_EState6>
18.61

>  <VSA_EState7>
1.37

>  <VSA_EState8>
1.98

>  <VSA_EState9>
0

>  <apol>
45.87

>  <bpol>
22.07

>  <nRing>
3

>  <nHRing>
1

>  <naRing>
2

>  <naHRing>
0

>  <nARing 2>
1

>  <nAHRing 2>
1

>  <nFRing>
0

>  <nFHRing>
0

>  <nFaRing>
0

>  <nFaHRing>
0

>  <nFARing 2>
0

>  <nFAHRing 2>
0

>  <nRot>
4

>  <SLogP>
3.4

>  <SMR>
86.25

>  <TopoPSA(NO)>
40.62

>  <TopoPSA>
40.62

>  <JGI1>
0.1

>  <JGI2>
0.07

>  <JGI3>
0.07

>  <JGI4>
0.05

>  <JGI5>
0.02

>  <Diameter>
9

>  <Radius>
5

>  <TMWC10>
121.15

>  <TSRW10>
70.77

>  <MW>
294.14

>  <AMW>
7.35

>  <WPath>
963

>  <WPol>
36

>  <Zagreb1>
114

>  <Zagreb2>
137

>  <mZagreb2>
5.03

>  <yes>


>  <nAR-cont>
0.816016

>  <nHA-cont>
0.983774276

>  <MWHBN>
0.116614607

>  <MWHBN-cont>
0.814427661

>  <TPSA-cont>
0.716447176

>  <pka_cont>
0.97

>  <yes.1>


>  <BBB_SCORE>
4.939326121

>  <MMFF94 Energy>
51.263

$$$$
Compound 2735
Actelion Java MolfileCreator 2.0

  0  0  0  0  0  0              0 V3000
M  V30 BEGIN CTAB
M  V30 COUNTS 65 65 0 0 0
M  V30 BEGIN ATOM
M  V30 1 O -3.6051 -3.5266 3.8406 0
M  V30 2 C -2.3902 -3.3601 3.8468 0
M  V30 3 C -1.5797 -2.8913 2.6482 0
M  V30 4 C -1.5455 -3.5795 5.0766 0
M  V30 5 C -0.259 -2.4966 3.3426 0
M  V30 6 C -2.3062 -1.7594 1.9126 0
M  V30 7 C -0.141 -3.5131 4.4965 0
M  V30 8 C 0.9479 -2.5078 2.44 0
M  V30 9 C -1.5787 -1.267 0.6626 0
M  V30 10 O 0.2208 -4.8084 4.0159 0
M  V30 11 C 1.7525 -1.4512 2.2402 0
M  V30 12 C -2.423 -0.2599 -0.1209 0
M  V30 13 C 2.9516 -1.4721 1.3237 0
M  V30 14 C -1.668 0.2463 -1.3508 0
M  V30 15 C 2.8077 -0.6518 0.0093 0
M  V30 16 C -2.4827 1.2849 -2.1208 0
M  V30 17 O 1.8088 -1.2875 -0.7991 0
M  V30 18 C 2.3813 0.8092 0.2887 0
M  V30 19 C 4.1383 -0.731 -0.7531 0
M  V30 20 C -1.7251 1.7757 -3.3527 0
M  V30 21 C 2.3541 1.7303 -0.9398 0
M  V30 22 C -2.4904 2.8402 -4.1027 0
M  V30 23 C 1.7972 3.1102 -0.5812 0
M  V30 24 O -3.5943 3.27 -3.8016 0
M  V30 25 O -1.7545 3.2527 -5.1746 0
M  V30 26 C 1.816 4.0481 -1.7777 0
M  V30 27 C -2.3898 4.2635 -5.9584 0
M  V30 28 H -1.4391 -3.7553 1.9868 0
M  V30 29 H -1.7316 -2.7574 5.7736 0
M  V30 30 H -1.7764 -4.5473 5.5279 0
M  V30 31 H -0.3786 -1.497 3.7862 0
M  V30 32 H -3.3037 -2.1138 1.6213 0
M  V30 33 H -2.4751 -0.9167 2.5958 0
M  V30 34 H 0.6005 -3.2041 5.2408 0
M  V30 35 H 1.1537 -3.4418 1.9171 0
M  V30 36 H -1.3287 -2.1179 0.0181 0
M  V30 37 H -0.6427 -0.7804 0.9476 0
M  V30 38 H 0.393 -5.3752 4.7884 0
M  V30 39 H 1.551 -0.5152 2.7553 0
M  V30 40 H -2.6804 0.5863 0.5275 0
M  V30 41 H -3.3641 -0.7283 -0.4329 0
M  V30 42 H 3.8091 -1.0972 1.8973 0
M  V30 43 H 3.1815 -2.5149 1.0658 0
M  V30 44 H -1.4296 -0.5982 -2.0086 0
M  V30 45 H -0.7157 0.6904 -1.0382 0
M  V30 46 H -2.7123 2.1338 -1.4646 0
M  V30 47 H -3.4438 0.8529 -2.4262 0
M  V30 48 H 1.8144 -0.8753 -1.6781 0
M  V30 49 H 1.371 0.8105 0.7164 0
M  V30 50 H 3.0527 1.2464 1.0388 0
M  V30 51 H 4.4414 -1.775 -0.8949 0
M  V30 52 H 4.0539 -0.309 -1.7601 0
M  V30 53 H 4.9387 -0.2094 -0.2184 0
M  V30 54 H -0.7625 2.2 -3.0481 0
M  V30 55 H -1.5456 0.9376 -4.0352 0
M  V30 56 H 1.7389 1.2907 -1.7325 0
M  V30 57 H 3.3677 1.8494 -1.3384 0
M  V30 58 H 0.7676 3.0121 -0.2175 0
M  V30 59 H 2.3879 3.5518 0.2297 0
M  V30 60 H 1.4034 5.0234 -1.5011 0
M  V30 61 H 2.8378 4.2019 -2.1386 0
M  V30 62 H 1.218 3.6476 -2.6019 0
M  V30 63 H -1.7225 4.5197 -6.7859 0
M  V30 64 H -3.3308 3.891 -6.3751 0
M  V30 65 H -2.5593 5.1635 -5.359 0
M  V30 END ATOM
M  V30 BEGIN BOND
M  V30 1 2 1 2
M  V30 2 1 2 3
M  V30 3 1 2 4
M  V30 4 1 3 5
M  V30 5 1 3 6
M  V30 6 1 4 7
M  V30 7 1 5 8
M  V30 8 1 6 9
M  V30 9 1 7 10
M  V30 10 2 8 11
M  V30 11 1 9 12
M  V30 12 1 11 13
M  V30 13 1 12 14
M  V30 14 1 13 15
M  V30 15 1 14 16
M  V30 16 1 15 17
M  V30 17 1 15 18
M  V30 18 1 15 19
M  V30 19 1 16 20
M  V30 20 1 18 21
M  V30 21 1 20 22
M  V30 22 1 21 23
M  V30 23 2 22 24
M  V30 24 1 22 25
M  V30 25 1 23 26
M  V30 26 1 25 27
M  V30 27 1 5 7
M  V30 28 1 3 28
M  V30 29 1 4 29
M  V30 30 1 4 30
M  V30 31 1 5 31
M  V30 32 1 6 32
M  V30 33 1 6 33
M  V30 34 1 7 34
M  V30 35 1 8 35
M  V30 36 1 9 36
M  V30 37 1 9 37
M  V30 38 1 10 38
M  V30 39 1 11 39
M  V30 40 1 12 40
M  V30 41 1 12 41
M  V30 42 1 13 42
M  V30 43 1 13 43
M  V30 44 1 14 44
M  V30 45 1 14 45
M  V30 46 1 16 46
M  V30 47 1 16 47
M  V30 48 1 17 48
M  V30 49 1 18 49
M  V30 50 1 18 50
M  V30 51 1 19 51
M  V30 52 1 19 52
M  V30 53 1 19 53
M  V30 54 1 20 54
M  V30 55 1 20 55
M  V30 56 1 21 56
M  V30 57 1 21 57
M  V30 58 1 23 58
M  V30 59 1 23 59
M  V30 60 1 26 60
M  V30 61 1 26 61
M  V30 62 1 26 62
M  V30 63 1 27 63
M  V30 64 1 27 64
M  V30 65 1 27 65
M  V30 END BOND
M  V30 END CTAB
M  END
>  <Column 1>
3441

>  <level_0>
5681

>  <index>
5682

>  <Unnamed: 0>
5682

>  <NO.>
5694

>  <Name>
misoprostol

>  <IUPAC_name>
methyl 7-[3-hydroxy-2-[(e)-4-hydroxy-4-methyloct-1-enyl]-5-oxocyclopentyl]heptanoate

>  <SMILES>
CCCCC(C)(O)C/C=C/C1C(O)CC(=O)C1CCCCCCC(=O)OC

>  <CID>
6030697

>  <logBB>


>  <BBB+/BBB->
BBB+

>  <Inchi>
InChI=1S/C22H38O5/c1-4-5-14-22(2-26)15-10-12-18-17(19(23)16-20(18)24)11-8-6-7-9-13-21(25)27-3/h10-12-17-18-20-24-26H-4-9-11-13-16H2-1-3H3/b12-10+

>  <threshold>


>  <reference>
R23|

>  <group>
C

>  <Class>
-1

>  <ABC>
19.62

>  <ABCGG>
16.8

>  <nAcid>
0

>  <nBase>
0

>  <nAromAtom>
0

>  <nAromBond>
0

>  <nAtom>
65

>  <nHeavyAtom>
27

>  <nSpiro>
0

>  <nBridgehead>
0

>  <nHetero>
5

>  <nN>
0

>  <nO>
5

>  <nF>
0

>  <BalabanJ>
2.31

>  <BertzCT>
483.09

>  <nBonds>
65

>  <nBondsO>
27

>  <nBondsS>
62

>  <nBondsD>
3

>  <nBondsT>
0

>  <nBondsA>
0

>  <nBondsM>
3

>  <nBondsKS>
62

>  <nBondsKD>
3

>  <RNCG>
0.19

>  <RPCG>
0.12

>  <FCSP3>
0.82

>  <SZ>
35

>  <Sm>
31.85

>  <Sv>
35.87

>  <Sse>
64.52

>  <Sp>
39.57

>  <Si>
73.94

>  <MZ>
0.54

>  <Mm>
0.49

>  <Mv>
0.55

>  <Mse>
0.99

>  <Mp>
0.61

>  <Mi>
1.14

>  <NsCH3>
3

>  <NdCH2>
0

>  <NssCH2>
11

>  <NtCH>
0

>  <NdsCH>
2

>  <NaaCH>
0

>  <NsssCH>
3

>  <NddC>
0

>  <NtsC>
0

>  <NdssC>
2

>  <NaasC>
0

>  <NaaaC>
0

>  <NssssC>
1

>  <NsNH3>
0

>  <NsNH2>
0

>  <NssNH2>
0

>  <NdNH>
0

>  <NssNH>
0

>  <NaaNH>
0

>  <NtN>
0

>  <NsssNH>
0

>  <NdsN>
0

>  <NaaN>
0

>  <NsssN>
0

>  <NddsN>
0

>  <NaasN>
0

>  <NssssN>
0

>  <NsOH>
2

>  <NdO>
2

>  <NssO>
1

>  <NaaO>
0

>  <NsF>
0

>  <NsSiH3>
0

>  <NssSiH2>
0

>  <NsssSiH>
0

>  <NssssSi>
0

>  <NsPH2>
0

>  <NssPH>
0

>  <NsssP>
0

>  <NdsssP>
0

>  <NsssssP>
0

>  <NsSH>
0

>  <NdS>
0

>  <NssS>
0

>  <NaaS>
0

>  <NdssS>
0

>  <NddssS>
0

>  <NsCl>
0

>  <NsBr>
0

>  <NsI>
0

>  <fragCpx>
27.05

>  <fMF>
0.08

>  <nHBAcc>
5

>  <nHBDon>
2

>  <Kier1>
25.04

>  <Kier2>
13.27

>  <Lipinski>
1

>  <GhoseFilter>
1

>  <FilterItLogS>
-4.29

>  <VMcGowan>
326.43

>  <LabuteASA>
163.73

>  <PEOE_VSA1>
14.95

>  <PEOE_VSA2>
9.59

>  <PEOE_VSA3>
0

>  <PEOE_VSA4>
0

>  <PEOE_VSA5>
0

>  <PEOE_VSA6>
51.18

>  <PEOE_VSA7>
32.61

>  <PEOE_VSA8>
24.68

>  <PEOE_VSA9>
18.81

>  <PEOE_VSA10>
5.78

>  <PEOE_VSA11>
0

>  <PEOE_VSA12>
0

>  <PEOE_VSA13>
0

>  <SMR_VSA1>
24.54

>  <SMR_VSA2>
0

>  <SMR_VSA3>
0

>  <SMR_VSA4>
11.84

>  <SMR_VSA5>
96.18

>  <SMR_VSA6>
7.11

>  <SMR_VSA7>
12.15

>  <SMR_VSA8>
0

>  <SMR_VSA9>
0

>  <SlogP_VSA1>
0

>  <SlogP_VSA2>
40.78

>  <SlogP_VSA3>
14.33

>  <SlogP_VSA4>
11.84

>  <SlogP_VSA5>
84.48

>  <SlogP_VSA6>
12.15

>  <SlogP_VSA7>
0

>  <SlogP_VSA8>
0

>  <SlogP_VSA9>
0

>  <SlogP_VSA10>
0

>  <SlogP_VSA11>
0

>  <EState_VSA1>
11.71

>  <EState_VSA2>
30.01

>  <EState_VSA3>
12.84

>  <EState_VSA4>
51.37

>  <EState_VSA5>
7.11

>  <EState_VSA6>
0

>  <EState_VSA7>
19.08

>  <EState_VSA8>
11.66

>  <EState_VSA9>
0

>  <EState_VSA10>
19.8

>  <VSA_EState1>
4.62

>  <VSA_EState2>
23.32

>  <VSA_EState3>
20.61

>  <VSA_EState4>
-0.73

>  <VSA_EState5>
-0.31

>  <VSA_EState6>
0

>  <VSA_EState7>
11.71

>  <VSA_EState8>
3.95

>  <VSA_EState9>
1.4

>  <apol>
66.09

>  <bpol>
41.59

>  <nRing>
1

>  <nHRing>
0

>  <naRing>
0

>  <naHRing>
0

>  <nARing 2>
1

>  <nAHRing 2>
0

>  <nFRing>
0

>  <nFHRing>
0

>  <nFaRing>
0

>  <nFaHRing>
0

>  <nFARing 2>
0

>  <nFAHRing 2>
0

>  <nRot>
13

>  <SLogP>
3.95

>  <SMR>
106.23

>  <TopoPSA(NO)>
83.83

>  <TopoPSA>
83.83

>  <JGI1>
0.22

>  <JGI2>
0.09

>  <JGI3>
0.07

>  <JGI4>
0.03

>  <JGI5>
0.02

>  <Diameter>
18

>  <Radius>
9

>  <TMWC10>
127.11

>  <TSRW10>
75.22

>  <MW>
382.27

>  <AMW>
5.88

>  <WPath>
2331

>  <WPol>
34

>  <Zagreb1>
124

>  <Zagreb2>
136

>  <mZagreb2>
6.33

>  <yes>


>  <nAR-cont>
0.816016

>  <nHA-cont>
0.860070871

>  <MWHBN>
0.358024652

>  <MWHBN-cont>
0.639958378

>  <TPSA-cont>
0.414814545

>  <pka_cont>
0.97

>  <yes.1>


>  <BBB_SCORE>
3.950653528

>  <MMFF94 Energy>
39.843

$$$$
Compound 2736
Actelion Java MolfileCreator 2.0

  0  0  0  0  0  0              0 V3000
M  V30 BEGIN CTAB
M  V30 COUNTS 59 60 0 0 0
M  V30 BEGIN ATOM
M  V30 1 F 3.3385 1.0324 -4.1346 0
M  V30 2 C 2.5505 1.7013 -3.2381 0
M  V30 3 F 2.2181 2.8737 -3.844 0
M  V30 4 C 1.2504 0.8508 -3.017 0
M  V30 5 C 3.3649 1.9807 -1.975 0
M  V30 6 O 1.5725 -0.3237 -2.2621 0
M  V30 7 O 0.7239 0.4622 -4.2903 0
M  V30 8 C 0.1811 1.6819 -2.2933 0
M  V30 9 C 4.7256 2.6408 -2.2355 0
M  V30 10 C 0.5062 -1.1413 -1.8016 0
M  V30 11 C -1.0567 0.8434 -1.9974 0
M  V30 12 C 4.6346 4.0599 -2.7961 0
M  V30 13 C -0.6642 -0.3808 -1.1698 0
M  V30 14 C -0.1086 -2.0672 -2.8463 0
M  V30 15 C 6.0044 4.7192 -2.8602 0
M  V30 16 C -1.8017 -1.4147 -1.0917 0
M  V30 17 C -1.4592 -2.3448 -2.2436 0
M  V30 18 C -1.8345 -2.2122 0.2171 0
M  V30 19 O -2.2042 -3.234 -2.6394 0
M  V30 20 C -2.3726 -1.3859 1.3887 0
M  V30 21 C -2.4317 -2.2175 2.6719 0
M  V30 22 C -2.9746 -1.3964 3.8428 0
M  V30 23 C -3.0289 -2.2259 5.1258 0
M  V30 24 C -3.5712 -1.4091 6.2921 0
M  V30 25 C -3.5832 -2.2274 7.5501 0
M  V30 26 O -2.7116 -2.2523 8.4024 0
M  V30 27 O -4.6808 -2.9982 7.6606 0
M  V30 28 H 3.5625 1.0359 -1.4556 0
M  V30 29 H 2.7919 2.6173 -1.2921 0
M  V30 30 H 1.4992 0.3545 -4.8738 0
M  V30 31 H 0.5696 2.0642 -1.3425 0
M  V30 32 H -0.1159 2.5411 -2.9059 0
M  V30 33 H 5.3173 2.0132 -2.9128 0
M  V30 34 H 5.2704 2.6704 -1.2832 0
M  V30 35 H 0.9483 -1.7804 -1.0254 0
M  V30 36 H -1.5403 0.5473 -2.9362 0
M  V30 37 H -1.7888 1.4449 -1.4454 0
M  V30 38 H 4.2123 4.0439 -3.8058 0
M  V30 39 H 3.9717 4.6687 -2.1706 0
M  V30 40 H -0.3677 -0.0206 -0.1776 0
M  V30 41 H -0.2417 -1.6171 -3.8293 0
M  V30 42 H 0.4709 -2.9889 -2.9444 0
M  V30 43 H 5.9194 5.7299 -3.2719 0
M  V30 44 H 6.4507 4.7955 -1.8636 0
M  V30 45 H 6.6849 4.1477 -3.4994 0
M  V30 46 H -2.7763 -0.9537 -1.288 0
M  V30 47 H -0.8345 -2.5934 0.4587 0
M  V30 48 H -2.4731 -3.0956 0.0866 0
M  V30 49 H -3.3765 -1.017 1.1452 0
M  V30 50 H -1.7389 -0.5081 1.5566 0
M  V30 51 H -1.4283 -2.5867 2.9161 0
M  V30 52 H -3.0697 -3.0952 2.5124 0
M  V30 53 H -3.9793 -1.0297 3.5998 0
M  V30 54 H -2.3386 -0.5169 4.0009 0
M  V30 55 H -2.0257 -2.5968 5.3706 0
M  V30 56 H -3.6589 -3.1103 4.9691 0
M  V30 57 H -2.9528 -0.5221 6.4721 0
M  V30 58 H -4.5864 -1.0479 6.0915 0
M  V30 59 H -4.5508 -3.4799 8.5043 0
M  V30 END ATOM
M  V30 BEGIN BOND
M  V30 1 1 1 2
M  V30 2 1 2 3
M  V30 3 1 2 4
M  V30 4 1 2 5
M  V30 5 1 4 6
M  V30 6 1 4 7
M  V30 7 1 4 8
M  V30 8 1 5 9
M  V30 9 1 6 10
M  V30 10 1 8 11
M  V30 11 1 9 12
M  V30 12 1 10 13
M  V30 13 1 10 14
M  V30 14 1 12 15
M  V30 15 1 13 16
M  V30 16 1 14 17
M  V30 17 1 16 18
M  V30 18 2 17 19
M  V30 19 1 18 20
M  V30 20 1 20 21
M  V30 21 1 21 22
M  V30 22 1 22 23
M  V30 23 1 23 24
M  V30 24 1 24 25
M  V30 25 2 25 26
M  V30 26 1 25 27
M  V30 27 1 11 13
M  V30 28 1 16 17
M  V30 29 1 5 28
M  V30 30 1 5 29
M  V30 31 1 7 30
M  V30 32 1 8 31
M  V30 33 1 8 32
M  V30 34 1 9 33
M  V30 35 1 9 34
M  V30 36 1 10 35
M  V30 37 1 11 36
M  V30 38 1 11 37
M  V30 39 1 12 38
M  V30 40 1 12 39
M  V30 41 1 13 40
M  V30 42 1 14 41
M  V30 43 1 14 42
M  V30 44 1 15 43
M  V30 45 1 15 44
M  V30 46 1 15 45
M  V30 47 1 16 46
M  V30 48 1 18 47
M  V30 49 1 18 48
M  V30 50 1 20 49
M  V30 51 1 20 50
M  V30 52 1 21 51
M  V30 53 1 21 52
M  V30 54 1 22 53
M  V30 55 1 22 54
M  V30 56 1 23 55
M  V30 57 1 23 56
M  V30 58 1 24 57
M  V30 59 1 24 58
M  V30 60 1 27 59
M  V30 END BOND
M  V30 END CTAB
M  END
>  <Column 1>
3443

>  <level_0>
5683

>  <index>
5684

>  <Unnamed: 0>
5684

>  <NO.>
5696

>  <Name>
lubiprostone

>  <IUPAC_name>
7-[2-(1-1-difluoropentyl)-2-hydroxy-6-oxo-3-4-4a-5-7-7a-hexahydrocyclopenta[b]pyran-5-yl]heptanoic acid

>  <SMILES>
CCCCC(F)(F)C1(O)CCC2C(CC(=O)C2CCCCCCC(=O)O)O1

>  <CID>
22055035

>  <logBB>


>  <BBB+/BBB->
BBB-

>  <Inchi>
InChI=1S/C20H32F2O5/c1-2-3-11-19(21-22)20(26)12-10-15-14(16(23)13-17(15)27-20)8-6-4-5-7-9-18(24)25/h14-15-17-26H-2-13H2-1H3-(H-24-25)

>  <threshold>


>  <reference>
R23|

>  <group>
C

>  <Class>
-1

>  <ABC>
20.39

>  <ABCGG>
16.6

>  <nAcid>
1

>  <nBase>
0

>  <nAromAtom>
0

>  <nAromBond>
0

>  <nAtom>
59

>  <nHeavyAtom>
27

>  <nSpiro>
0

>  <nBridgehead>
0

>  <nHetero>
7

>  <nN>
0

>  <nO>
5

>  <nF>
2

>  <BalabanJ>
1.82

>  <BertzCT>
524.5

>  <nBonds>
60

>  <nBondsO>
28

>  <nBondsS>
58

>  <nBondsD>
2

>  <nBondsT>
0

>  <nBondsA>
0

>  <nBondsM>
2

>  <nBondsKS>
58

>  <nBondsKD>
2

>  <RNCG>
0.19

>  <RPCG>
0.12

>  <FCSP3>
0.9

>  <SZ>
35

>  <Sm>
32.51

>  <Sv>
33.54

>  <Sse>
59.77

>  <Sp>
35.85

>  <Si>
67.79

>  <MZ>
0.59

>  <Mm>
0.55

>  <Mv>
0.57

>  <Mse>
1.01

>  <Mp>
0.61

>  <Mi>
1.15

>  <NsCH3>
1

>  <NdCH2>
0

>  <NssCH2>
12

>  <NtCH>
0

>  <NdsCH>
0

>  <NaaCH>
0

>  <NsssCH>
3

>  <NddC>
0

>  <NtsC>
0

>  <NdssC>
2

>  <NaasC>
0

>  <NaaaC>
0

>  <NssssC>
2

>  <NsNH3>
0

>  <NsNH2>
0

>  <NssNH2>
0

>  <NdNH>
0

>  <NssNH>
0

>  <NaaNH>
0

>  <NtN>
0

>  <NsssNH>
0

>  <NdsN>
0

>  <NaaN>
0

>  <NsssN>
0

>  <NddsN>
0

>  <NaasN>
0

>  <NssssN>
0

>  <NsOH>
2

>  <NdO>
2

>  <NssO>
1

>  <NaaO>
0

>  <NsF>
2

>  <NsSiH3>
0

>  <NssSiH2>
0

>  <NsssSiH>
0

>  <NssssSi>
0

>  <NsPH2>
0

>  <NssPH>
0

>  <NsssP>
0

>  <NdsssP>
0

>  <NsssssP>
0

>  <NsSH>
0

>  <NdS>
0

>  <NssS>
0

>  <NaaS>
0

>  <NdssS>
0

>  <NddssS>
0

>  <NsCl>
0

>  <NsBr>
0

>  <NsI>
0

>  <fragCpx>
82.07

>  <fMF>
0.15

>  <nHBAcc>
4

>  <nHBDon>
2

>  <Kier1>
23.28

>  <Kier2>
10.16

>  <Lipinski>
1

>  <GhoseFilter>
1

>  <FilterItLogS>
-4.39

>  <VMcGowan>
295.21

>  <LabuteASA>
159.02

>  <PEOE_VSA1>
14.95

>  <PEOE_VSA2>
9.59

>  <PEOE_VSA3>
8.78

>  <PEOE_VSA4>
0

>  <PEOE_VSA5>
0

>  <PEOE_VSA6>
32.61

>  <PEOE_VSA7>
31.6

>  <PEOE_VSA8>
31.6

>  <PEOE_VSA9>
6.1

>  <PEOE_VSA10>
5.78

>  <PEOE_VSA11>
0

>  <PEOE_VSA12>
5.79

>  <PEOE_VSA13>
0

>  <SMR_VSA1>
33.32

>  <SMR_VSA2>
0

>  <SMR_VSA3>
0

>  <SMR_VSA4>
11.84

>  <SMR_VSA5>
101.79

>  <SMR_VSA6>
0

>  <SMR_VSA7>
0

>  <SMR_VSA8>
0

>  <SMR_VSA9>
0

>  <SlogP_VSA1>
0

>  <SlogP_VSA2>
39.78

>  <SlogP_VSA3>
14.33

>  <SlogP_VSA4>
11.84

>  <SlogP_VSA5>
83.97

>  <SlogP_VSA6>
0

>  <SlogP_VSA7>
0

>  <SlogP_VSA8>
0

>  <SlogP_VSA9>
0

>  <SlogP_VSA10>
8.78

>  <SlogP_VSA11>
0

>  <EState_VSA1>
30.2

>  <EState_VSA2>
36.88

>  <EState_VSA3>
32.1

>  <EState_VSA4>
19.26

>  <EState_VSA5>
0

>  <EState_VSA6>
0

>  <EState_VSA7>
6.92

>  <EState_VSA8>
0

>  <EState_VSA9>
9.84

>  <EState_VSA10>
23.48

>  <VSA_EState1>
34.27

>  <VSA_EState2>
22.85

>  <VSA_EState3>
19.05

>  <VSA_EState4>
0

>  <VSA_EState5>
-6.82

>  <VSA_EState6>
0

>  <VSA_EState7>
4.17

>  <VSA_EState8>
1.82

>  <VSA_EState9>
0

>  <apol>
59.86

>  <bpol>
37.8

>  <nRing>
2

>  <nHRing>
1

>  <naRing>
0

>  <naHRing>
0

>  <nARing 2>
2

>  <nAHRing 2>
1

>  <nFRing>
1

>  <nFHRing>
1

>  <nFaRing>
0

>  <nFaHRing>
0

>  <nFARing 2>
1

>  <nFAHRing 2>
1

>  <nRot>
11

>  <SLogP>
4.31

>  <SMR>
95.47

>  <TopoPSA(NO)>
83.83

>  <TopoPSA>
83.83

>  <JGI1>
0.25

>  <JGI2>
0.11

>  <JGI3>
0.07

>  <JGI4>
0.04

>  <JGI5>
0.03

>  <Diameter>
17

>  <Radius>
9

>  <TMWC10>
131.16

>  <TSRW10>
76.4

>  <MW>
390.22

>  <AMW>
6.61

>  <WPath>
2140

>  <WPol>
42

>  <Zagreb1>
136

>  <Zagreb2>
158

>  <mZagreb2>
6.02

>  <yes>


>  <nAR-cont>
1

>  <nHA-cont>
0.860070871

>  <MWHBN>
0.303736153

>  <MWHBN-cont>
0.829434336

>  <TPSA-cont>
0.414814545

>  <pka_cont>
0.97

>  <yes.1>


>  <BBB_SCORE>
4.418851465

>  <MMFF94 Energy>
40.848

$$$$
Compound 2737
Actelion Java MolfileCreator 2.0

  0  0  0  0  0  0              0 V3000
M  V30 BEGIN CTAB
M  V30 COUNTS 62 64 0 0 0
M  V30 BEGIN ATOM
M  V30 1 O -2.6139 4.28 -6.4253 0
M  V30 2 C -1.5052 4.0998 -6.9008 0
M  V30 3 O -1.284 4.367 -8.2082 0
M  V30 4 C -0.2562 3.5883 -6.208 0
M  V30 5 O -0.5316 3.3279 -4.8385 0
M  V30 6 C 0.4929 2.859 -4.0619 0
M  V30 7 C 0.1839 2.6245 -2.7119 0
M  V30 8 C 1.7912 2.6095 -4.5175 0
M  V30 9 C 1.1824 2.1642 -1.8287 0
M  V30 10 C -1.178 2.914 -2.1249 0
M  V30 11 C 2.7763 2.1491 -3.6389 0
M  V30 12 C 2.4769 1.9331 -2.2966 0
M  V30 13 C 0.825 1.9689 -0.3764 0
M  V30 14 C -1.6205 1.8095 -1.1573 0
M  V30 15 C -0.5023 1.2083 -0.2595 0
M  V30 16 C -2.7081 2.2814 -0.1942 0
M  V30 17 C -1.0775 1.1932 1.1756 0
M  V30 18 C -2.5929 1.3071 0.9643 0
M  V30 19 C -0.7361 -0.0571 2.0043 0
M  V30 20 O -3.2277 1.8073 2.1263 0
M  V30 21 C 0.7551 -0.2045 2.3054 0
M  V30 22 C 1.0651 -1.2769 3.3597 0
M  V30 23 O 2.4675 -1.2356 3.6295 0
M  V30 24 C 0.6994 -2.6939 2.9007 0
M  V30 25 C 1.0268 -3.7503 3.9632 0
M  V30 26 C 0.6108 -5.1485 3.5015 0
M  V30 27 C 0.9357 -6.2028 4.5593 0
M  V30 28 C 0.5234 -7.5937 4.1045 0
M  V30 29 H -2.156 4.6836 -8.5277 0
M  V30 30 H 0.0438 2.664 -6.7142 0
M  V30 31 H 0.5105 4.3661 -6.2965 0
M  V30 32 H 2.0778 2.7684 -5.5515 0
M  V30 33 H -1.1178 3.8831 -1.6129 0
M  V30 34 H -1.9438 3.0178 -2.9017 0
M  V30 35 H 3.7835 1.9644 -4.0039 0
M  V30 36 H 3.2555 1.5847 -1.6226 0
M  V30 37 H 1.6209 1.4216 0.1375 0
M  V30 38 H 0.7569 2.9555 0.0992 0
M  V30 39 H -2.0281 0.9805 -1.7548 0
M  V30 40 H -0.3339 0.1757 -0.5982 0
M  V30 41 H -2.5349 3.3084 0.151 0
M  V30 42 H -3.704 2.26 -0.6486 0
M  V30 43 H -0.7311 2.0749 1.7329 0
M  V30 44 H -3.0358 0.3379 0.705 0
M  V30 45 H -1.0948 -0.9489 1.4769 0
M  V30 46 H -1.2863 -0.0094 2.9525 0
M  V30 47 H -4.1625 1.9598 1.9044 0
M  V30 48 H 1.1557 0.7557 2.6549 0
M  V30 49 H 1.3044 -0.4421 1.3868 0
M  V30 50 H 0.5416 -1.0449 4.2947 0
M  V30 51 H 2.6658 -0.361 4.0059 0
M  V30 52 H 1.2538 -2.9363 1.9854 0
M  V30 53 H -0.3688 -2.7493 2.6651 0
M  V30 54 H 0.5073 -3.5029 4.8969 0
M  V30 55 H 2.1017 -3.745 4.1788 0
M  V30 56 H 1.1273 -5.3951 2.566 0
M  V30 57 H -0.4652 -5.1608 3.2895 0
M  V30 58 H 2.011 -6.1982 4.772 0
M  V30 59 H 0.4186 -5.9628 5.4957 0
M  V30 60 H 0.7648 -8.3317 4.8758 0
M  V30 61 H -0.5535 -7.641 3.9142 0
M  V30 62 H 1.0476 -7.8776 3.1865 0
M  V30 END ATOM
M  V30 BEGIN BOND
M  V30 1 2 1 2
M  V30 2 1 2 3
M  V30 3 1 2 4
M  V30 4 1 4 5
M  V30 5 1 5 6
M  V30 6 2 6 7
M  V30 7 1 6 8
M  V30 8 1 7 9
M  V30 9 1 7 10
M  V30 10 2 8 11
M  V30 11 2 9 12
M  V30 12 1 9 13
M  V30 13 1 10 14
M  V30 14 1 13 15
M  V30 15 1 14 16
M  V30 16 1 15 17
M  V30 17 1 16 18
M  V30 18 1 17 19
M  V30 19 1 18 20
M  V30 20 1 19 21
M  V30 21 1 21 22
M  V30 22 1 22 23
M  V30 23 1 22 24
M  V30 24 1 24 25
M  V30 25 1 25 26
M  V30 26 1 26 27
M  V30 27 1 27 28
M  V30 28 1 11 12
M  V30 29 1 14 15
M  V30 30 1 17 18
M  V30 31 1 3 29
M  V30 32 1 4 30
M  V30 33 1 4 31
M  V30 34 1 8 32
M  V30 35 1 10 33
M  V30 36 1 10 34
M  V30 37 1 11 35
M  V30 38 1 12 36
M  V30 39 1 13 37
M  V30 40 1 13 38
M  V30 41 1 14 39
M  V30 42 1 15 40
M  V30 43 1 16 41
M  V30 44 1 16 42
M  V30 45 1 17 43
M  V30 46 1 18 44
M  V30 47 1 19 45
M  V30 48 1 19 46
M  V30 49 1 20 47
M  V30 50 1 21 48
M  V30 51 1 21 49
M  V30 52 1 22 50
M  V30 53 1 23 51
M  V30 54 1 24 52
M  V30 55 1 24 53
M  V30 56 1 25 54
M  V30 57 1 25 55
M  V30 58 1 26 56
M  V30 59 1 26 57
M  V30 60 1 27 58
M  V30 61 1 27 59
M  V30 62 1 28 60
M  V30 63 1 28 61
M  V30 64 1 28 62
M  V30 END BOND
M  V30 END CTAB
M  END
>  <Column 1>
3444

>  <level_0>
5684

>  <index>
5685

>  <Unnamed: 0>
5685

>  <NO.>
5697

>  <Name>
treprostinil

>  <IUPAC_name>
2-[[2-hydroxy-1-(3-hydroxyoctyl)-2-3-3a-4-9-9a-hexahydro-1h-cyclopenta[g]naphthalen-5-yl]oxy]acetic acid

>  <SMILES>
CCCCCC(O)CCC1C(O)CC2Cc3c(cccc3OCC(=O)O)CC21

>  <CID>
11246284

>  <logBB>


>  <BBB+/BBB->
BBB-

>  <Inchi>
InChI=1S/C23H34O5/c1-2-3-4-7-17(24)9-10-18-19-11-15-6-5-8-22(28-14-23(26)27)20(15)12-16(19)13-21(18)25/h5-6-8-16-19-21-24-25H-2-4-7-9-14H2-1H3-(H-26-27)

>  <threshold>


>  <reference>
R23|

>  <group>
C

>  <Class>
-1

>  <ABC>
21.45

>  <ABCGG>
16.56

>  <nAcid>
1

>  <nBase>
0

>  <nAromAtom>
6

>  <nAromBond>
6

>  <nAtom>
62

>  <nHeavyAtom>
28

>  <nSpiro>
0

>  <nBridgehead>
0

>  <nHetero>
5

>  <nN>
0

>  <nO>
5

>  <nF>
0

>  <BalabanJ>
1.52

>  <BertzCT>
658.39

>  <nBonds>
64

>  <nBondsO>
30

>  <nBondsS>
57

>  <nBondsD>
1

>  <nBondsT>
0

>  <nBondsA>
6

>  <nBondsM>
7

>  <nBondsKS>
60

>  <nBondsKD>
4

>  <RNCG>
0.18

>  <RPCG>
0.13

>  <FCSP3>
0.7

>  <SZ>
35.33

>  <Sm>
32.51

>  <Sv>
35.79

>  <Sse>
61.75

>  <Sp>
38.98

>  <Si>
70.11

>  <MZ>
0.57

>  <Mm>
0.52

>  <Mv>
0.58

>  <Mse>
1

>  <Mp>
0.63

>  <Mi>
1.13

>  <NsCH3>
1

>  <NdCH2>
0

>  <NssCH2>
10

>  <NtCH>
0

>  <NdsCH>
0

>  <NaaCH>
3

>  <NsssCH>
5

>  <NddC>
0

>  <NtsC>
0

>  <NdssC>
1

>  <NaasC>
3

>  <NaaaC>
0

>  <NssssC>
0

>  <NsNH3>
0

>  <NsNH2>
0

>  <NssNH2>
0

>  <NdNH>
0

>  <NssNH>
0

>  <NaaNH>
0

>  <NtN>
0

>  <NsssNH>
0

>  <NdsN>
0

>  <NaaN>
0

>  <NsssN>
0

>  <NddsN>
0

>  <NaasN>
0

>  <NssssN>
0

>  <NsOH>
3

>  <NdO>
1

>  <NssO>
1

>  <NaaO>
0

>  <NsF>
0

>  <NsSiH3>
0

>  <NssSiH2>
0

>  <NsssSiH>
0

>  <NssssSi>
0

>  <NsPH2>
0

>  <NssPH>
0

>  <NsssP>
0

>  <NdsssP>
0

>  <NsssssP>
0

>  <NsSH>
0

>  <NdS>
0

>  <NssS>
0

>  <NaaS>
0

>  <NdssS>
0

>  <NddssS>
0

>  <NsCl>
0

>  <NsBr>
0

>  <NsI>
0

>  <fragCpx>
144.05

>  <fMF>
0.21

>  <nHBAcc>
4

>  <nHBDon>
3

>  <Kier1>
22.68

>  <Kier2>
10.86

>  <Lipinski>
1

>  <GhoseFilter>
1

>  <FilterItLogS>
-4.12

>  <VMcGowan>
314.5

>  <LabuteASA>
167.28

>  <PEOE_VSA1>
20.06

>  <PEOE_VSA2>
0

>  <PEOE_VSA3>
4.79

>  <PEOE_VSA4>
0

>  <PEOE_VSA5>
0

>  <PEOE_VSA6>
38.32

>  <PEOE_VSA7>
73.47

>  <PEOE_VSA8>
0

>  <PEOE_VSA9>
12.21

>  <PEOE_VSA10>
5.75

>  <PEOE_VSA11>
6.61

>  <PEOE_VSA12>
0

>  <PEOE_VSA13>
0

>  <SMR_VSA1>
24.85

>  <SMR_VSA2>
0

>  <SMR_VSA3>
0

>  <SMR_VSA4>
17.75

>  <SMR_VSA5>
76.92

>  <SMR_VSA6>
6.61

>  <SMR_VSA7>
29.33

>  <SMR_VSA8>
0

>  <SMR_VSA9>
5.75

>  <SlogP_VSA1>
4.74

>  <SlogP_VSA2>
40.1

>  <SlogP_VSA3>
17.64

>  <SlogP_VSA4>
17.75

>  <SlogP_VSA5>
63

>  <SlogP_VSA6>
18.2

>  <SlogP_VSA7>
0

>  <SlogP_VSA8>
0

>  <SlogP_VSA9>
0

>  <SlogP_VSA10>
0

>  <SlogP_VSA11>
5.75

>  <EState_VSA1>
5.97

>  <EState_VSA2>
24.73

>  <EState_VSA3>
17.59

>  <EState_VSA4>
63.35

>  <EState_VSA5>
5.56

>  <EState_VSA6>
0

>  <EState_VSA7>
12.13

>  <EState_VSA8>
12.99

>  <EState_VSA9>
9.84

>  <EState_VSA10>
15.01

>  <VSA_EState1>
5.5

>  <VSA_EState2>
10.84

>  <VSA_EState3>
29.84

>  <VSA_EState4>
2.32

>  <VSA_EState5>
0.77

>  <VSA_EState6>
5.87

>  <VSA_EState7>
7.85

>  <VSA_EState8>
1.84

>  <VSA_EState9>
0

>  <apol>
65.09

>  <bpol>
36.71

>  <nRing>
3

>  <nHRing>
0

>  <naRing>
1

>  <naHRing>
0

>  <nARing 2>
2

>  <nAHRing 2>
0

>  <nFRing>
1

>  <nFHRing>
0

>  <nFaRing>
0

>  <nFaHRing>
0

>  <nFARing 2>
1

>  <nFAHRing 2>
0

>  <nRot>
10

>  <SLogP>
3.58

>  <SMR>
107.46

>  <TopoPSA(NO)>
86.99

>  <TopoPSA>
86.99

>  <JGI1>
0.18

>  <JGI2>
0.08

>  <JGI3>
0.05

>  <JGI4>
0.04

>  <JGI5>
0.03

>  <Diameter>
17

>  <Radius>
9

>  <TMWC10>
134.24

>  <TSRW10>
77.38

>  <MW>
390.24

>  <AMW>
6.29

>  <WPath>
2278

>  <WPol>
42

>  <Zagreb1>
142

>  <Zagreb2>
165

>  <mZagreb2>
6.31

>  <yes>


>  <nAR-cont>
1

>  <nHA-cont>
0.82432561

>  <MWHBN>
0.354349765

>  <MWHBN-cont>
0.653899277

>  <TPSA-cont>
0.392755782

>  <pka_cont>
0.97

>  <yes.1>


>  <BBB_SCORE>
4.07568609

>  <MMFF94 Energy>
60.4

$$$$
Compound 2738
Actelion Java MolfileCreator 2.0

  0  0  0  0  0  0              0 V3000
M  V30 BEGIN CTAB
M  V30 COUNTS 38 37 0 0 0
M  V30 BEGIN ATOM
M  V30 1 O -1.2389 0.6967 -1.4713 0
M  V30 2 C -1.0778 -0.5126 -1.3862 0
M  V30 3 O -1.7702 -1.4493 -2.0921 0
M  V30 4 C -0.0789 -1.2031 -0.4877 0
M  V30 5 C -2.7811 -0.9292 -2.9508 0
M  V30 6 C 0.6756 -0.21 0.3956 0
M  V30 7 O -2.7314 -1.6491 -4.1911 0
M  V30 8 C -4.1868 -1.107 -2.3156 0
M  V30 9 C 1.6771 -0.9262 1.3034 0
M  V30 10 O -5.1998 -0.7594 -3.274 0
M  V30 11 C -4.39 -0.3021 -1.0274 0
M  V30 12 C 2.3798 0.0085 2.2922 0
M  V30 13 O -3.7256 -0.8975 0.0809 0
M  V30 14 C 3.2939 1.0331 1.6168 0
M  V30 15 C 4.0568 1.8611 2.652 0
M  V30 16 C 4.9645 2.8842 1.988 0
M  V30 17 H 0.6281 -1.7506 -1.1206 0
M  V30 18 H -0.6224 -1.9165 0.142 0
M  V30 19 H -2.6193 0.1194 -3.2243 0
M  V30 20 H -0.0385 0.3564 1.006 0
M  V30 21 H 1.1943 0.5154 -0.2413 0
M  V30 22 H -3.58 -2.1178 -4.2824 0
M  V30 23 H -4.3283 -2.1708 -2.0881 0
M  V30 24 H 2.4257 -1.4453 0.6925 0
M  V30 25 H 1.1501 -1.6973 1.8792 0
M  V30 26 H -5.0313 0.1547 -3.5695 0
M  V30 27 H -5.456 -0.2247 -0.785 0
M  V30 28 H -4.0238 0.7227 -1.1474 0
M  V30 29 H 2.9765 -0.6064 2.9774 0
M  V30 30 H 1.6311 0.5263 2.9042 0
M  V30 31 H -4.2357 -1.6867 0.3366 0
M  V30 32 H 2.7029 1.7064 0.986 0
M  V30 33 H 4.0065 0.516 0.9631 0
M  V30 34 H 3.3487 2.3805 3.3083 0
M  V30 35 H 4.6619 1.2013 3.2846 0
M  V30 36 H 5.5002 3.4641 2.746 0
M  V30 37 H 5.7055 2.3944 1.3482 0
M  V30 38 H 4.3862 3.5812 1.373 0
M  V30 END ATOM
M  V30 BEGIN BOND
M  V30 1 2 1 2
M  V30 2 1 2 3
M  V30 3 1 2 4
M  V30 4 1 3 5
M  V30 5 1 4 6
M  V30 6 1 5 7
M  V30 7 1 5 8
M  V30 8 1 6 9
M  V30 9 1 8 10
M  V30 10 1 8 11
M  V30 11 1 9 12
M  V30 12 1 11 13
M  V30 13 1 12 14
M  V30 14 1 14 15
M  V30 15 1 15 16
M  V30 16 1 4 17
M  V30 17 1 4 18
M  V30 18 1 5 19
M  V30 19 1 6 20
M  V30 20 1 6 21
M  V30 21 1 7 22
M  V30 22 1 8 23
M  V30 23 1 9 24
M  V30 24 1 9 25
M  V30 25 1 10 26
M  V30 26 1 11 27
M  V30 27 1 11 28
M  V30 28 1 12 29
M  V30 29 1 12 30
M  V30 30 1 13 31
M  V30 31 1 14 32
M  V30 32 1 14 33
M  V30 33 1 15 34
M  V30 34 1 15 35
M  V30 35 1 16 36
M  V30 36 1 16 37
M  V30 37 1 16 38
M  V30 END BOND
M  V30 END CTAB
M  END
>  <Column 1>
3445

>  <level_0>
5685

>  <index>
5686

>  <Unnamed: 0>
5686

>  <NO.>
5698

>  <Name>
monoctanoin

>  <IUPAC_name>
1-2-3-trihydroxypropyl octanoate

>  <SMILES>
CCCCCCCC(=O)OC(O)C(O)CO

>  <CID>
49800033

>  <logBB>


>  <BBB+/BBB->
BBB-

>  <Inchi>
InChI=1S/C11H22O5/c1-2-3-4-5-6-7-10(14)16-11(15)9(13)8-12/h9-11-13-15H-2-8H2-1H3

>  <threshold>


>  <reference>
R23|

>  <group>
C

>  <Class>
-1

>  <ABC>
10.89

>  <ABCGG>
10.34

>  <nAcid>
0

>  <nBase>
0

>  <nAromAtom>
0

>  <nAromBond>
0

>  <nAtom>
38

>  <nHeavyAtom>
16

>  <nSpiro>
0

>  <nBridgehead>
0

>  <nHetero>
5

>  <nN>
0

>  <nO>
5

>  <nF>
0

>  <BalabanJ>
3.46

>  <BertzCT>
183.21

>  <nBonds>
37

>  <nBondsO>
15

>  <nBondsS>
36

>  <nBondsD>
1

>  <nBondsT>
0

>  <nBondsA>
0

>  <nBondsM>
1

>  <nBondsKS>
36

>  <nBondsKD>
1

>  <RNCG>
0.2

>  <RPCG>
0.14

>  <FCSP3>
0.91

>  <SZ>
21.33

>  <Sm>
19.51

>  <Sv>
20.53

>  <Sse>
38.42

>  <Sp>
22.19

>  <Si>
43.62

>  <MZ>
0.56

>  <Mm>
0.51

>  <Mv>
0.54

>  <Mse>
1.01

>  <Mp>
0.58

>  <Mi>
1.15

>  <NsCH3>
1

>  <NdCH2>
0

>  <NssCH2>
7

>  <NtCH>
0

>  <NdsCH>
0

>  <NaaCH>
0

>  <NsssCH>
2

>  <NddC>
0

>  <NtsC>
0

>  <NdssC>
1

>  <NaasC>
0

>  <NaaaC>
0

>  <NssssC>
0

>  <NsNH3>
0

>  <NsNH2>
0

>  <NssNH2>
0

>  <NdNH>
0

>  <NssNH>
0

>  <NaaNH>
0

>  <NtN>
0

>  <NsssNH>
0

>  <NdsN>
0

>  <NaaN>
0

>  <NsssN>
0

>  <NddsN>
0

>  <NaasN>
0

>  <NssssN>
0

>  <NsOH>
3

>  <NdO>
1

>  <NssO>
1

>  <NaaO>
0

>  <NsF>
0

>  <NsSiH3>
0

>  <NssSiH2>
0

>  <NsssSiH>
0

>  <NssssSi>
0

>  <NsPH2>
0

>  <NssPH>
0

>  <NsssP>
0

>  <NdsssP>
0

>  <NsssssP>
0

>  <NsSH>
0

>  <NdS>
0

>  <NssS>
0

>  <NaaS>
0

>  <NdssS>
0

>  <NddssS>
0

>  <NsCl>
0

>  <NsBr>
0

>  <NsI>
0

>  <fragCpx>
15.05

>  <fMF>
0

>  <nHBAcc>
5

>  <nHBDon>
3

>  <Kier1>
16

>  <Kier2>
10.17

>  <Lipinski>
1

>  <GhoseFilter>
1

>  <FilterItLogS>
-1.17

>  <VMcGowan>
190.9

>  <LabuteASA>
96.05

>  <PEOE_VSA1>
20.06

>  <PEOE_VSA2>
4.79

>  <PEOE_VSA3>
0

>  <PEOE_VSA4>
0

>  <PEOE_VSA5>
0

>  <PEOE_VSA6>
32.61

>  <PEOE_VSA7>
6.42

>  <PEOE_VSA8>
6.42

>  <PEOE_VSA9>
6.61

>  <PEOE_VSA10>
6.1

>  <PEOE_VSA11>
0

>  <PEOE_VSA12>
6.29

>  <PEOE_VSA13>
0

>  <SMR_VSA1>
24.85

>  <SMR_VSA2>
0

>  <SMR_VSA3>
0

>  <SMR_VSA4>
0

>  <SMR_VSA5>
57.84

>  <SMR_VSA6>
6.61

>  <SMR_VSA7>
0

>  <SMR_VSA8>
0

>  <SMR_VSA9>
0

>  <SlogP_VSA1>
0

>  <SlogP_VSA2>
40.29

>  <SlogP_VSA3>
9.53

>  <SlogP_VSA4>
0

>  <SlogP_VSA5>
45.45

>  <SlogP_VSA6>
0

>  <SlogP_VSA7>
0

>  <SlogP_VSA8>
0

>  <SlogP_VSA9>
0

>  <SlogP_VSA10>
0

>  <SlogP_VSA11>
0

>  <EState_VSA1>
24.97

>  <EState_VSA2>
6.42

>  <EState_VSA3>
0

>  <EState_VSA4>
32.1

>  <EState_VSA5>
0

>  <EState_VSA6>
0

>  <EState_VSA7>
0

>  <EState_VSA8>
11.66

>  <EState_VSA9>
15.32

>  <EState_VSA10>
4.79

>  <VSA_EState1>
4.52

>  <VSA_EState2>
11.13

>  <VSA_EState3>
26.51

>  <VSA_EState4>
0

>  <VSA_EState5>
-0.54

>  <VSA_EState6>
0

>  <VSA_EState7>
2.25

>  <VSA_EState8>
1.48

>  <VSA_EState9>
0

>  <apol>
37.05

>  <bpol>
24.67

>  <nRing>
0

>  <nHRing>
0

>  <naRing>
0

>  <naHRing>
0

>  <nARing 2>
0

>  <nAHRing 2>
0

>  <nFRing>
0

>  <nFHRing>
0

>  <nFaRing>
0

>  <nFaHRing>
0

>  <nFARing 2>
0

>  <nFAHRing 2>
0

>  <nRot>
9

>  <SLogP>
0.56

>  <SMR>
58.57

>  <TopoPSA(NO)>
86.99

>  <TopoPSA>
86.99

>  <JGI1>
0.2

>  <JGI2>
0.09

>  <JGI3>
0.04

>  <JGI4>
0.03

>  <JGI5>
0.02

>  <Diameter>
12

>  <Radius>
6

>  <TMWC10>
95.43

>  <TSRW10>
46.04

>  <MW>
234.15

>  <AMW>
6.16

>  <WPath>
567

>  <WPol>
17

>  <Zagreb1>
64

>  <Zagreb2>
66

>  <mZagreb2>
4.03

>  <yes>


>  <nAR-cont>
0.336376

>  <nHA-cont>
0.954961865

>  <MWHBN>
0.52280882

>  <MWHBN-cont>
0

>  <TPSA-cont>
0.392755782

>  <pka_cont>
0.97

>  <yes.1>


>  <BBB_SCORE>
2.56184943

>  <MMFF94 Energy>
20.424

$$$$
Compound 2739
Actelion Java MolfileCreator 2.0

  0  0  0  0  0  0              0 V3000
M  V30 BEGIN CTAB
M  V30 COUNTS 59 58 0 0 0
M  V30 BEGIN ATOM
M  V30 1 O -1.8577 -5.8146 -2.9427 0
M  V30 2 C -2.7263 -5.3103 -3.6545 0
M  V30 3 C -2.5619 -5.0743 -5.1603 0 CFG=1
M  V30 4 N -1.1659 -5.3842 -5.5606 0
M  V30 5 C -3.5146 -6.0852 -5.846 0
M  V30 6 C -2.9555 -3.6257 -5.5354 0
M  V30 7 O -4.8812 -5.7898 -5.559 0
M  V30 8 C -1.9712 -2.4947 -5.191 0
M  V30 9 C -1.7246 -2.2938 -3.6958 0
M  V30 10 C -0.9029 -1.0284 -3.4348 0
M  V30 11 C -0.6478 -0.8298 -1.9391 0
M  V30 12 C 0.1757 0.433 -1.6792 0
M  V30 13 C 0.4334 0.6226 -0.2113 0
M  V30 14 C 6.0E-4 1.6788 0.495 0
M  V30 15 C 0.2582 1.8674 1.9631 0
M  V30 16 C 1.0866 3.1273 2.2236 0
M  V30 17 C 1.3379 3.327 3.7207 0
M  V30 18 C 2.1695 4.5854 3.9795 0
M  V30 19 C 2.3553 4.8974 5.4673 0
M  V30 20 C 3.1898 3.8509 6.2092 0
M  V30 21 C 3.4411 4.2698 7.6586 0
M  V30 22 C 4.2667 3.2325 8.4031 0
M  V30 23 H -3.7034 -5.0205 -3.2281 0
M  V30 24 H -0.5392 -4.7769 -5.0272 0
M  V30 25 H -0.9383 -6.3151 -5.197 0
M  V30 26 H -3.3881 -6.0533 -6.9346 0
M  V30 27 H -3.3163 -7.1092 -5.5076 0
M  V30 28 H -3.1149 -3.5814 -6.6218 0
M  V30 29 H -3.9222 -3.3766 -5.0771 0
M  V30 30 H -5.4184 -6.4088 -6.086 0
M  V30 31 H -2.3859 -1.5658 -5.6046 0
M  V30 32 H -1.0174 -2.6523 -5.7079 0
M  V30 33 H -1.1831 -3.1521 -3.2861 0
M  V30 34 H -2.6832 -2.2227 -3.1681 0
M  V30 35 H -1.4336 -0.1558 -3.8349 0
M  V30 36 H 0.0545 -1.0968 -3.9654 0
M  V30 37 H -0.1219 -1.7057 -1.5382 0
M  V30 38 H -1.6069 -0.7621 -1.4099 0
M  V30 39 H 1.1412 0.36 -2.194 0
M  V30 40 H -0.3426 1.3044 -2.0977 0
M  V30 41 H 1.0168 -0.153 0.2815 0
M  V30 42 H -0.5828 2.4544 0.0025 0
M  V30 43 H 0.7729 0.9941 2.382 0
M  V30 44 H -0.7073 1.9442 2.4774 0
M  V30 45 H 0.5654 4.0046 1.8197 0
M  V30 46 H 2.0471 3.0545 1.6978 0
M  V30 47 H 1.8557 2.4464 4.1167 0
M  V30 48 H 0.3786 3.4054 4.2464 0
M  V30 49 H 1.6737 5.4446 3.5105 0
M  V30 50 H 3.1506 4.4866 3.4991 0
M  V30 51 H 1.3742 4.9975 5.9475 0
M  V30 52 H 2.8488 5.8738 5.5518 0
M  V30 53 H 4.1489 3.7133 5.6955 0
M  V30 54 H 2.6743 2.884 6.2008 0
M  V30 55 H 3.9665 5.2317 7.6831 0
M  V30 56 H 2.4852 4.4086 8.1771 0
M  V30 57 H 4.4348 3.5524 9.4364 0
M  V30 58 H 3.7539 2.2656 8.4261 0
M  V30 59 H 5.2428 3.093 7.9275 0
M  V30 END ATOM
M  V30 BEGIN BOND
M  V30 1 2 1 2
M  V30 2 1 2 3
M  V30 3 1 3 4
M  V30 4 1 3 5
M  V30 5 1 3 6
M  V30 6 1 5 7
M  V30 7 1 6 8
M  V30 8 1 8 9
M  V30 9 1 9 10
M  V30 10 1 10 11
M  V30 11 1 11 12
M  V30 12 1 12 13
M  V30 13 2 13 14
M  V30 14 1 14 15
M  V30 15 1 15 16
M  V30 16 1 16 17
M  V30 17 1 17 18
M  V30 18 1 18 19
M  V30 19 1 19 20
M  V30 20 1 20 21
M  V30 21 1 21 22
M  V30 22 1 2 23
M  V30 23 1 4 24
M  V30 24 1 4 25
M  V30 25 1 5 26
M  V30 26 1 5 27
M  V30 27 1 6 28
M  V30 28 1 6 29
M  V30 29 1 7 30
M  V30 30 1 8 31
M  V30 31 1 8 32
M  V30 32 1 9 33
M  V30 33 1 9 34
M  V30 34 1 10 35
M  V30 35 1 10 36
M  V30 36 1 11 37
M  V30 37 1 11 38
M  V30 38 1 12 39
M  V30 39 1 12 40
M  V30 40 1 13 41
M  V30 41 1 14 42
M  V30 42 1 15 43
M  V30 43 1 15 44
M  V30 44 1 16 45
M  V30 45 1 16 46
M  V30 46 1 17 47
M  V30 47 1 17 48
M  V30 48 1 18 49
M  V30 49 1 18 50
M  V30 50 1 19 51
M  V30 51 1 19 52
M  V30 52 1 20 53
M  V30 53 1 20 54
M  V30 54 1 21 55
M  V30 55 1 21 56
M  V30 56 1 22 57
M  V30 57 1 22 58
M  V30 58 1 22 59
M  V30 END BOND
M  V30 BEGIN COLLECTION
M  V30 MDLV30/STERAC1 ATOMS=(1 3)
M  V30 END COLLECTION
M  V30 END CTAB
M  END
>  <Column 1>
3447

>  <level_0>
5687

>  <index>
5688

>  <Unnamed: 0>
5688

>  <NO.>
5700

>  <Name>
ethanolamine oleate

>  <IUPAC_name>


>  <SMILES>
CCCCCCCC/C=C/CCCCCCC(N)(C=O)CO

>  <CID>


>  <logBB>


>  <BBB+/BBB->
BBB-

>  <Inchi>
InChI=1S/C19H37NO2/c1-2-3-4-5-6-7-8-9-10-11-12-13-14-15-16-19(20-17-21)18-22/h9-10-17-22H-2-8-11-16-18-20H2-1H3/b10-9+

>  <threshold>


>  <reference>
R23|

>  <group>
C

>  <Class>
-1

>  <ABC>
15.01

>  <ABCGG>
12.31

>  <nAcid>
0

>  <nBase>
1

>  <nAromAtom>
0

>  <nAromBond>
0

>  <nAtom>
59

>  <nHeavyAtom>
22

>  <nSpiro>
0

>  <nBridgehead>
0

>  <nHetero>
3

>  <nN>
1

>  <nO>
2

>  <nF>
0

>  <BalabanJ>
3.14

>  <BertzCT>
278.61

>  <nBonds>
58

>  <nBondsO>
21

>  <nBondsS>
56

>  <nBondsD>
2

>  <nBondsT>
0

>  <nBondsA>
0

>  <nBondsM>
2

>  <nBondsKS>
56

>  <nBondsKD>
2

>  <RNCG>
0.21

>  <RPCG>
0.11

>  <FCSP3>
0.84

>  <SZ>
29

>  <Sm>
25.94

>  <Sv>
31.21

>  <Sse>
57.75

>  <Sp>
35.39

>  <Si>
67.39

>  <MZ>
0.49

>  <Mm>
0.44

>  <Mv>
0.53

>  <Mse>
0.98

>  <Mp>
0.6

>  <Mi>
1.14

>  <NsCH3>
1

>  <NdCH2>
0

>  <NssCH2>
14

>  <NtCH>
0

>  <NdsCH>
3

>  <NaaCH>
0

>  <NsssCH>
0

>  <NddC>
0

>  <NtsC>
0

>  <NdssC>
0

>  <NaasC>
0

>  <NaaaC>
0

>  <NssssC>
1

>  <NsNH3>
0

>  <NsNH2>
1

>  <NssNH2>
0

>  <NdNH>
0

>  <NssNH>
0

>  <NaaNH>
0

>  <NtN>
0

>  <NsssNH>
0

>  <NdsN>
0

>  <NaaN>
0

>  <NsssN>
0

>  <NddsN>
0

>  <NaasN>
0

>  <NssssN>
0

>  <NsOH>
1

>  <NdO>
1

>  <NssO>
0

>  <NaaO>
0

>  <NsF>
0

>  <NsSiH3>
0

>  <NssSiH2>
0

>  <NsssSiH>
0

>  <NssssSi>
0

>  <NsPH2>
0

>  <NssPH>
0

>  <NsssP>
0

>  <NdsssP>
0

>  <NsssssP>
0

>  <NsSH>
0

>  <NdS>
0

>  <NssS>
0

>  <NaaS>
0

>  <NdssS>
0

>  <NddssS>
0

>  <NsCl>
0

>  <NsBr>
0

>  <NsI>
0

>  <fragCpx>
21.03

>  <fMF>
0

>  <nHBAcc>
3

>  <nHBDon>
2

>  <Kier1>
22

>  <Kier2>
15.88

>  <Lipinski>
1

>  <GhoseFilter>
1

>  <FilterItLogS>
-5.07

>  <VMcGowan>
291.69

>  <LabuteASA>
136.91

>  <PEOE_VSA1>
15.63

>  <PEOE_VSA2>
0

>  <PEOE_VSA3>
0

>  <PEOE_VSA4>
0

>  <PEOE_VSA5>
0

>  <PEOE_VSA6>
70.44

>  <PEOE_VSA7>
32.1

>  <PEOE_VSA8>
0

>  <PEOE_VSA9>
12.15

>  <PEOE_VSA10>
6.29

>  <PEOE_VSA11>
0

>  <PEOE_VSA12>
0

>  <PEOE_VSA13>
0

>  <SMR_VSA1>
9.9

>  <SMR_VSA2>
0

>  <SMR_VSA3>
0

>  <SMR_VSA4>
5.73

>  <SMR_VSA5>
95.93

>  <SMR_VSA6>
6.61

>  <SMR_VSA7>
12.15

>  <SMR_VSA8>
0

>  <SMR_VSA9>
0

>  <SlogP_VSA1>
5.73

>  <SlogP_VSA2>
23.54

>  <SlogP_VSA3>
4.79

>  <SlogP_VSA4>
0

>  <SlogP_VSA5>
90.39

>  <SlogP_VSA6>
12.15

>  <SlogP_VSA7>
0

>  <SlogP_VSA8>
0

>  <SlogP_VSA9>
0

>  <SlogP_VSA10>
0

>  <SlogP_VSA11>
0

>  <EState_VSA1>
5.54

>  <EState_VSA2>
6.61

>  <EState_VSA3>
12.71

>  <EState_VSA4>
19.26

>  <EState_VSA5>
57.79

>  <EState_VSA6>
0

>  <EState_VSA7>
0

>  <EState_VSA8>
19.08

>  <EState_VSA9>
10.84

>  <EState_VSA10>
4.79

>  <VSA_EState1>
0

>  <VSA_EState2>
10.73

>  <VSA_EState3>
9.02

>  <VSA_EState4>
4.7

>  <VSA_EState5>
0

>  <VSA_EState6>
0

>  <VSA_EState7>
20.8

>  <VSA_EState8>
2

>  <VSA_EState9>
0

>  <apol>
59.11

>  <bpol>
37.42

>  <nRing>
0

>  <nHRing>
0

>  <naRing>
0

>  <naHRing>
0

>  <nARing 2>
0

>  <nAHRing 2>
0

>  <nFRing>
0

>  <nFHRing>
0

>  <nFaRing>
0

>  <nFaHRing>
0

>  <nFARing 2>
0

>  <nFAHRing 2>
0

>  <nRot>
16

>  <SLogP>
4.52

>  <SMR>
94.9

>  <TopoPSA(NO)>
63.32

>  <TopoPSA>
63.32

>  <JGI1>
0.14

>  <JGI2>
0.06

>  <JGI3>
0.02

>  <JGI4>
0.01

>  <JGI5>
0.01

>  <Diameter>
18

>  <Radius>
9

>  <TMWC10>
109.94

>  <TSRW10>
53.6

>  <MW>
311.28

>  <AMW>
5.28

>  <WPath>
1639

>  <WPol>
23

>  <Zagreb1>
88

>  <Zagreb2>
90

>  <mZagreb2>
5.63

>  <yes>


>  <nAR-cont>
0.336376

>  <nHA-cont>
0.983774276

>  <MWHBN>
0.283396443

>  <MWHBN-cont>
0.887340004

>  <TPSA-cont>
0.557987081

>  <pka_cont>
0.97

>  <yes.1>


>  <BBB_SCORE>
4.252134443

>  <MMFF94 Energy>
59.645

$$$$
Compound 2740
Actelion Java MolfileCreator 2.0

  0  0  0  0  0  0              0 V3000
M  V30 BEGIN CTAB
M  V30 COUNTS 49 48 0 0 0
M  V30 BEGIN ATOM
M  V30 1 S -5.5764 0.1567 -6.9152 0
M  V30 2 O -6.9705 -0.2209 -6.9684 0
M  V30 3 O -5.0972 1.417 -7.4314 0
M  V30 4 O -5.0805 -0.0034 -5.3791 0
M  V30 5 O -4.7709 -1.0269 -7.6501 0
M  V30 6 C -5.5096 0.9824 -4.4534 0
M  V30 7 C -4.9793 0.6397 -3.0646 0
M  V30 8 C -3.4493 0.6739 -3.0052 0
M  V30 9 C -2.9417 0.3614 -1.5962 0
M  V30 10 C -1.4137 0.3961 -1.5351 0
M  V30 11 C -0.9061 0.0838 -0.1264 0
M  V30 12 C 0.6217 0.1184 -0.0652 0
M  V30 13 C 1.1294 -0.1937 1.3434 0
M  V30 14 C 2.6574 -0.1591 1.4045 0
M  V30 15 C 3.1654 -0.472 2.8139 0
M  V30 16 C 4.694 -0.4328 2.8728 0
M  V30 17 C 5.2619 -0.8492 4.2326 0
M  V30 18 C 4.9118 0.1217 5.361 0
M  V30 19 C 5.5922 -0.2731 6.663 0
M  V30 20 H -5.178 -1.8748 -7.3845 0
M  V30 21 H -6.6048 1.0041 -4.4285 0
M  V30 22 H -5.1475 1.9687 -4.7644 0
M  V30 23 H -5.393 1.3491 -2.3385 0
M  V30 24 H -5.3229 -0.3632 -2.7836 0
M  V30 25 H -3.0931 1.6648 -3.3123 0
M  V30 26 H -3.0318 -0.0529 -3.712 0
M  V30 27 H -3.2994 -0.6285 -1.2882 0
M  V30 28 H -3.3541 1.0895 -0.8871 0
M  V30 29 H -1.0561 1.3861 -1.8433 0
M  V30 30 H -1.0012 -0.3319 -2.244 0
M  V30 31 H -1.2638 -0.906 0.1819 0
M  V30 32 H -1.3187 0.812 0.5826 0
M  V30 33 H 0.9794 1.1084 -0.3734 0
M  V30 34 H 1.0342 -0.6096 -0.7742 0
M  V30 35 H 0.7718 -1.1837 1.6518 0
M  V30 36 H 0.7167 0.5343 2.0524 0
M  V30 37 H 3.0152 0.831 1.0969 0
M  V30 38 H 3.0694 -0.8869 0.695 0
M  V30 39 H 2.8107 -1.4636 3.12 0
M  V30 40 H 2.7434 0.2558 3.5159 0
M  V30 41 H 5.0491 0.5733 2.6186 0
M  V30 42 H 5.0987 -1.1117 2.1119 0
M  V30 43 H 6.3534 -0.913 4.1415 0
M  V30 44 H 4.9077 -1.8558 4.4865 0
M  V30 45 H 5.2204 1.1375 5.0883 0
M  V30 46 H 3.8292 0.1418 5.5248 0
M  V30 47 H 5.3267 0.4308 7.458 0
M  V30 48 H 5.2832 -1.2747 6.9787 0
M  V30 49 H 6.6815 -0.2671 6.5545 0
M  V30 END ATOM
M  V30 BEGIN BOND
M  V30 1 2 1 2
M  V30 2 2 1 3
M  V30 3 1 1 4
M  V30 4 1 1 5
M  V30 5 1 4 6
M  V30 6 1 6 7
M  V30 7 1 7 8
M  V30 8 1 8 9
M  V30 9 1 9 10
M  V30 10 1 10 11
M  V30 11 1 11 12
M  V30 12 1 12 13
M  V30 13 1 13 14
M  V30 14 1 14 15
M  V30 15 1 15 16
M  V30 16 1 16 17
M  V30 17 1 17 18
M  V30 18 1 18 19
M  V30 19 1 5 20
M  V30 20 1 6 21
M  V30 21 1 6 22
M  V30 22 1 7 23
M  V30 23 1 7 24
M  V30 24 1 8 25
M  V30 25 1 8 26
M  V30 26 1 9 27
M  V30 27 1 9 28
M  V30 28 1 10 29
M  V30 29 1 10 30
M  V30 30 1 11 31
M  V30 31 1 11 32
M  V30 32 1 12 33
M  V30 33 1 12 34
M  V30 34 1 13 35
M  V30 35 1 13 36
M  V30 36 1 14 37
M  V30 37 1 14 38
M  V30 38 1 15 39
M  V30 39 1 15 40
M  V30 40 1 16 41
M  V30 41 1 16 42
M  V30 42 1 17 43
M  V30 43 1 17 44
M  V30 44 1 18 45
M  V30 45 1 18 46
M  V30 46 1 19 47
M  V30 47 1 19 48
M  V30 48 1 19 49
M  V30 END BOND
M  V30 END CTAB
M  END
>  <Column 1>
3453

>  <level_0>
5693

>  <index>
5694

>  <Unnamed: 0>
5694

>  <NO.>
5706

>  <Name>
sodium tetradecyl sulfate

>  <IUPAC_name>
tetradecyl hydrogen sulfate

>  <SMILES>
CCCCCCCCCCCCCCOS(=O)(=O)O

>  <CID>
5248

>  <logBB>


>  <BBB+/BBB->
BBB-

>  <Inchi>
InChI=1S/C14H30O4S/c1-2-3-4-5-6-7-8-9-10-11-12-13-14-18-19(15-16)17/h2-14H2-1H3-(H-15-16-17)

>  <threshold>


>  <reference>
R23|

>  <group>
C

>  <Class>
-1

>  <ABC>
13.2

>  <ABCGG>
10.82

>  <nAcid>
1

>  <nBase>
0

>  <nAromAtom>
0

>  <nAromBond>
0

>  <nAtom>
49

>  <nHeavyAtom>
19

>  <nSpiro>
0

>  <nBridgehead>
0

>  <nHetero>
5

>  <nN>
0

>  <nO>
4

>  <nF>
0

>  <BalabanJ>
2.99

>  <BertzCT>
275.17

>  <nBonds>
48

>  <nBondsO>
18

>  <nBondsS>
46

>  <nBondsD>
2

>  <nBondsT>
0

>  <nBondsA>
0

>  <nBondsM>
2

>  <nBondsKS>
46

>  <nBondsKD>
2

>  <RNCG>
0.17

>  <RPCG>
0.26

>  <FCSP3>
1

>  <SZ>
27

>  <Sm>
24.52

>  <Sv>
26.17

>  <Sse>
48.72

>  <Sp>
29.64

>  <Si>
55.99

>  <MZ>
0.55

>  <Mm>
0.5

>  <Mv>
0.53

>  <Mse>
0.99

>  <Mp>
0.6

>  <Mi>
1.14

>  <NsCH3>
1

>  <NdCH2>
0

>  <NssCH2>
13

>  <NtCH>
0

>  <NdsCH>
0

>  <NaaCH>
0

>  <NsssCH>
0

>  <NddC>
0

>  <NtsC>
0

>  <NdssC>
0

>  <NaasC>
0

>  <NaaaC>
0

>  <NssssC>
0

>  <NsNH3>
0

>  <NsNH2>
0

>  <NssNH2>
0

>  <NdNH>
0

>  <NssNH>
0

>  <NaaNH>
0

>  <NtN>
0

>  <NsssNH>
0

>  <NdsN>
0

>  <NaaN>
0

>  <NsssN>
0

>  <NddsN>
0

>  <NaasN>
0

>  <NssssN>
0

>  <NsOH>
1

>  <NdO>
2

>  <NssO>
1

>  <NaaO>
0

>  <NsF>
0

>  <NsSiH3>
0

>  <NssSiH2>
0

>  <NsssSiH>
0

>  <NssssSi>
0

>  <NsPH2>
0

>  <NssPH>
0

>  <NsssP>
0

>  <NdsssP>
0

>  <NsssssP>
0

>  <NsSH>
0

>  <NdS>
0

>  <NssS>
0

>  <NaaS>
0

>  <NdssS>
0

>  <NddssS>
1

>  <NsCl>
0

>  <NsBr>
0

>  <NsI>
0

>  <fragCpx>
18.05

>  <fMF>
0

>  <nHBAcc>
3

>  <nHBDon>
1

>  <Kier1>
19

>  <Kier2>
13.01

>  <Lipinski>
1

>  <GhoseFilter>
1

>  <FilterItLogS>
-4.61

>  <VMcGowan>
247.95

>  <LabuteASA>
118.43

>  <PEOE_VSA1>
0

>  <PEOE_VSA2>
4.55

>  <PEOE_VSA3>
4.18

>  <PEOE_VSA4>
8.42

>  <PEOE_VSA5>
0

>  <PEOE_VSA6>
77.55

>  <PEOE_VSA7>
6.42

>  <PEOE_VSA8>
0

>  <PEOE_VSA9>
6.61

>  <PEOE_VSA10>
0

>  <PEOE_VSA11>
0

>  <PEOE_VSA12>
0

>  <PEOE_VSA13>
0

>  <SMR_VSA1>
17.15

>  <SMR_VSA2>
0

>  <SMR_VSA3>
0

>  <SMR_VSA4>
0

>  <SMR_VSA5>
83.97

>  <SMR_VSA6>
6.61

>  <SMR_VSA7>
0

>  <SMR_VSA8>
0

>  <SMR_VSA9>
0

>  <SlogP_VSA1>
0

>  <SlogP_VSA2>
19.58

>  <SlogP_VSA3>
14.58

>  <SlogP_VSA4>
0

>  <SlogP_VSA5>
83.97

>  <SlogP_VSA6>
0

>  <SlogP_VSA7>
0

>  <SlogP_VSA8>
0

>  <SlogP_VSA9>
0

>  <SlogP_VSA10>
0

>  <SlogP_VSA11>
0

>  <EState_VSA1>
10.4

>  <EState_VSA2>
6.61

>  <EState_VSA3>
6.42

>  <EState_VSA4>
12.84

>  <EState_VSA5>
57.79

>  <EState_VSA6>
0

>  <EState_VSA7>
0

>  <EState_VSA8>
11.11

>  <EState_VSA9>
4.55

>  <EState_VSA10>
8.42

>  <VSA_EState1>
33.13

>  <VSA_EState2>
0

>  <VSA_EState3>
0

>  <VSA_EState4>
0

>  <VSA_EState5>
0

>  <VSA_EState6>
0

>  <VSA_EState7>
14.7

>  <VSA_EState8>
2.33

>  <VSA_EState9>
-4.24

>  <apol>
49.49

>  <bpol>
38.49

>  <nRing>
0

>  <nHRing>
0

>  <naRing>
0

>  <naHRing>
0

>  <nARing 2>
0

>  <nAHRing 2>
0

>  <nFRing>
0

>  <nFHRing>
0

>  <nFaRing>
0

>  <nFaHRing>
0

>  <nFARing 2>
0

>  <nFAHRing 2>
0

>  <nRot>
14

>  <SLogP>
4.51

>  <SMR>
78.58

>  <TopoPSA(NO)>
63.6

>  <TopoPSA>
71.98

>  <JGI1>
0.17

>  <JGI2>
0.03

>  <JGI3>
0.02

>  <JGI4>
0.02

>  <JGI5>
0.01

>  <Diameter>
16

>  <Radius>
8

>  <TMWC10>
101.56

>  <TSRW10>
49.57

>  <MW>
294.19

>  <AMW>
6

>  <WPath>
1094

>  <WPol>
16

>  <Zagreb1>
76

>  <Zagreb2>
74

>  <mZagreb2>
4.63

>  <yes>


>  <nAR-cont>
0.336376

>  <nHA-cont>
0.998649058

>  <MWHBN>
0.233209393

>  <MWHBN-cont>
0.98336608

>  <TPSA-cont>
0.497534903

>  <pka_cont>
0.97

>  <yes.1>


>  <BBB_SCORE>
4.290143984

>  <MMFF94 Energy>
-106.49

$$$$
Compound 2741
Actelion Java MolfileCreator 2.0

  0  0  0  0  0  0              0 V3000
M  V30 BEGIN CTAB
M  V30 COUNTS 40 39 0 0 0
M  V30 BEGIN ATOM
M  V30 1 P -0.4872 0.8121 -3.903 0
M  V30 2 O -1.5434 1.3771 -4.7931 0
M  V30 3 O 0.6885 0.1595 -4.7891 0
M  V30 4 O 0.3321 2.0028 -3.1964 0
M  V30 5 C -0.9088 -0.4237 -2.5783 0
M  V30 6 P -2.223 -1.8401 -3.2898 0 CHG=1
M  V30 7 O -1.4543 0.3019 -1.4443 0
M  V30 8 C 0.3166 -1.2662 -2.1205 0
M  V30 9 O -3.6116 -0.919 -3.2543 0
M  V30 10 O -2.5539 -2.5377 -1.8642 0
M  V30 11 C 1.4879 -0.4534 -1.5457 0
M  V30 12 N 1.1032 0.4327 -0.4282 0
M  V30 13 C 0.8927 -0.3411 0.8178 0
M  V30 14 C 2.1507 1.4479 -0.237 0
M  V30 15 C 0.2465 0.4907 1.9356 0
M  V30 16 C -0.0923 -0.3833 3.1469 0
M  V30 17 C -0.7331 0.4393 4.2646 0
M  V30 18 C -1.0724 -0.4252 5.4683 0
M  V30 19 H 0.8397 0.6618 -5.6132 0
M  V30 20 H 0.3451 2.8112 -3.7425 0
M  V30 21 H -0.6854 0.7794 -1.0586 0
M  V30 22 H 0.0036 -1.9998 -1.3683 0
M  V30 23 H 0.7028 -1.8435 -2.9704 0
M  V30 24 H -3.2226 -1.9224 -1.4787 0
M  V30 25 H 2.2871 -1.1393 -1.2343 0
M  V30 26 H 1.911 0.1383 -2.3653 0
M  V30 27 H 1.8379 -0.7741 1.1703 0
M  V30 28 H 0.2177 -1.1802 0.617 0
M  V30 29 H 1.8508 2.195 0.5038 0
M  V30 30 H 3.1022 1.0035 0.076 0
M  V30 31 H 2.323 2.0062 -1.1642 0
M  V30 32 H -0.6692 0.9647 1.561 0
M  V30 33 H 0.9208 1.2912 2.2592 0
M  V30 34 H 0.8207 -0.8627 3.5202 0
M  V30 35 H -0.7773 -1.1842 2.8429 0
M  V30 36 H -0.0512 1.2387 4.577 0
M  V30 37 H -1.648 0.9185 3.8967 0
M  V30 38 H -1.5293 0.183 6.2552 0
M  V30 39 H -1.7791 -1.2158 5.1967 0
M  V30 40 H -0.1732 -0.8941 5.8804 0
M  V30 END ATOM
M  V30 BEGIN BOND
M  V30 1 2 1 2
M  V30 2 1 1 3
M  V30 3 1 1 4
M  V30 4 1 1 5
M  V30 5 1 5 6
M  V30 6 1 5 7
M  V30 7 1 5 8
M  V30 8 2 6 9
M  V30 9 1 6 10
M  V30 10 1 8 11
M  V30 11 1 11 12
M  V30 12 1 12 13
M  V30 13 1 12 14
M  V30 14 1 13 15
M  V30 15 1 15 16
M  V30 16 1 16 17
M  V30 17 1 17 18
M  V30 18 1 3 19
M  V30 19 1 4 20
M  V30 20 1 7 21
M  V30 21 1 8 22
M  V30 22 1 8 23
M  V30 23 1 10 24
M  V30 24 1 11 25
M  V30 25 1 11 26
M  V30 26 1 13 27
M  V30 27 1 13 28
M  V30 28 1 14 29
M  V30 29 1 14 30
M  V30 30 1 14 31
M  V30 31 1 15 32
M  V30 32 1 15 33
M  V30 33 1 16 34
M  V30 34 1 16 35
M  V30 35 1 17 36
M  V30 36 1 17 37
M  V30 37 1 18 38
M  V30 38 1 18 39
M  V30 39 1 18 40
M  V30 END BOND
M  V30 END CTAB
M  END
>  <Column 1>
3455

>  <level_0>
5695

>  <index>
5696

>  <Unnamed: 0>
5696

>  <NO.>
5708

>  <Name>
ibandronate

>  <IUPAC_name>
hydroxy-[1-hydroxy-3-[methyl(pentyl)amino]-1-phosphonopropyl]-oxophosphanium

>  <SMILES>
CCCCCN(C)CCC(O)([P+](=O)O)P(=O)(O)O

>  <CID>
147922056

>  <logBB>


>  <BBB+/BBB->
BBB-

>  <Inchi>
InChI=1S/C9H21NO6P2/c1-3-4-5-7-10(2)8-6-9(11-17(12)13)18(14-15)16/h11H-3-8H2-1-2H3-(H2--12-13-14-15-16)/p+1

>  <threshold>


>  <reference>
R23|

>  <group>
C

>  <Class>
-1

>  <ABC>
12.83

>  <ABCGG>
12.57

>  <nAcid>
3

>  <nBase>
2

>  <nAromAtom>
0

>  <nAromBond>
0

>  <nAtom>
40

>  <nHeavyAtom>
18

>  <nSpiro>
0

>  <nBridgehead>
0

>  <nHetero>
9

>  <nN>
1

>  <nO>
6

>  <nF>
0

>  <BalabanJ>
4.29

>  <BertzCT>
320.18

>  <nBonds>
39

>  <nBondsO>
17

>  <nBondsS>
37

>  <nBondsD>
2

>  <nBondsT>
0

>  <nBondsA>
0

>  <nBondsM>
2

>  <nBondsKS>
37

>  <nBondsKD>
2

>  <RNCG>
0.17

>  <RPCG>
0.19

>  <FCSP3>
1

>  <SZ>
26.83

>  <Sm>
25.16

>  <Sv>
22.38

>  <Sse>
40.75

>  <Sp>
25.67

>  <Si>
45.98

>  <MZ>
0.67

>  <Mm>
0.63

>  <Mv>
0.56

>  <Mse>
1.02

>  <Mp>
0.64

>  <Mi>
1.15

>  <NsCH3>
2

>  <NdCH2>
0

>  <NssCH2>
6

>  <NtCH>
0

>  <NdsCH>
0

>  <NaaCH>
0

>  <NsssCH>
0

>  <NddC>
0

>  <NtsC>
0

>  <NdssC>
0

>  <NaasC>
0

>  <NaaaC>
0

>  <NssssC>
1

>  <NsNH3>
0

>  <NsNH2>
0

>  <NssNH2>
0

>  <NdNH>
0

>  <NssNH>
0

>  <NaaNH>
0

>  <NtN>
0

>  <NsssNH>
0

>  <NdsN>
0

>  <NaaN>
0

>  <NsssN>
1

>  <NddsN>
0

>  <NaasN>
0

>  <NssssN>
0

>  <NsOH>
4

>  <NdO>
2

>  <NssO>
0

>  <NaaO>
0

>  <NsF>
0

>  <NsSiH3>
0

>  <NssSiH2>
0

>  <NsssSiH>
0

>  <NssssSi>
0

>  <NsPH2>
0

>  <NssPH>
0

>  <NsssP>
0

>  <NdsssP>
1

>  <NsssssP>
0

>  <NsSH>
0

>  <NdS>
0

>  <NssS>
0

>  <NaaS>
0

>  <NdssS>
0

>  <NddssS>
0

>  <NsCl>
0

>  <NsBr>
0

>  <NsI>
0

>  <fragCpx>
17.09

>  <fMF>
0

>  <nHBAcc>
4

>  <nHBDon>
4

>  <Kier1>
18

>  <Kier2>
7.56

>  <Lipinski>
1

>  <GhoseFilter>
1

>  <FilterItLogS>
-0.19

>  <VMcGowan>
221.64

>  <LabuteASA>
107.85

>  <PEOE_VSA1>
19.79

>  <PEOE_VSA2>
4.57

>  <PEOE_VSA3>
0

>  <PEOE_VSA4>
4.89

>  <PEOE_VSA5>
0

>  <PEOE_VSA6>
19.77

>  <PEOE_VSA7>
24.58

>  <PEOE_VSA8>
6.54

>  <PEOE_VSA9>
6.42

>  <PEOE_VSA10>
0

>  <PEOE_VSA11>
0

>  <PEOE_VSA12>
0

>  <PEOE_VSA13>
0

>  <SMR_VSA1>
28.92

>  <SMR_VSA2>
0

>  <SMR_VSA3>
4.9

>  <SMR_VSA4>
0

>  <SMR_VSA5>
37.69

>  <SMR_VSA6>
20.14

>  <SMR_VSA7>
0

>  <SMR_VSA8>
0

>  <SMR_VSA9>
0

>  <SlogP_VSA1>
0

>  <SlogP_VSA2>
49.91

>  <SlogP_VSA3>
9.13

>  <SlogP_VSA4>
0

>  <SlogP_VSA5>
32.61

>  <SlogP_VSA6>
0

>  <SlogP_VSA7>
0

>  <SlogP_VSA8>
0

>  <SlogP_VSA9>
0

>  <SlogP_VSA10>
0

>  <SlogP_VSA11>
0

>  <EState_VSA1>
27.13

>  <EState_VSA2>
6.54

>  <EState_VSA3>
6.54

>  <EState_VSA4>
19.26

>  <EState_VSA5>
0

>  <EState_VSA6>
11.95

>  <EState_VSA7>
0

>  <EState_VSA8>
6.92

>  <EState_VSA9>
14.68

>  <EState_VSA10>
14.24

>  <VSA_EState1>
21.98

>  <VSA_EState2>
28.52

>  <VSA_EState3>
6.78

>  <VSA_EState4>
0

>  <VSA_EState5>
0

>  <VSA_EState6>
0

>  <VSA_EState7>
2.6

>  <VSA_EState8>
2.92

>  <VSA_EState9>
-6.67

>  <apol>
42.87

>  <bpol>
39.24

>  <nRing>
0

>  <nHRing>
0

>  <naRing>
0

>  <naHRing>
0

>  <nARing 2>
0

>  <nAHRing 2>
0

>  <nFRing>
0

>  <nFHRing>
0

>  <nFaRing>
0

>  <nFaHRing>
0

>  <nFARing 2>
0

>  <nFAHRing 2>
0

>  <nRot>
9

>  <SLogP>
1.06

>  <SMR>
68.46

>  <TopoPSA(NO)>
118.3

>  <TopoPSA>
128.11

>  <JGI1>
0.35

>  <JGI2>
0.15

>  <JGI3>
0.06

>  <JGI4>
0.03

>  <JGI5>
0.04

>  <Diameter>
10

>  <Radius>
5

>  <TMWC10>
105.14

>  <TSRW10>
50.54

>  <MW>
302.09

>  <AMW>
7.55

>  <WPath>
673

>  <WPol>
26

>  <Zagreb1>
82

>  <Zagreb2>
91

>  <mZagreb2>
4.1

>  <yes>


>  <nAR-cont>
0.336376

>  <nHA-cont>
0.991161285

>  <MWHBN>
0.460279691

>  <MWHBN-cont>
0

>  <TPSA-cont>
0

>  <pka_cont>
0.97

>  <yes.1>


>  <BBB_SCORE>
1.812537285

>  <MMFF94 Energy>
-54.926

$$$$
Compound 2742
Actelion Java MolfileCreator 2.0

  0  0  0  0  0  0              0 V3000
M  V30 BEGIN CTAB
M  V30 COUNTS 45 46 0 0 0
M  V30 BEGIN ATOM
M  V30 1 O -4.0534 -1.5575 1.2458 0
M  V30 2 C -4.1416 -0.2221 0.9552 0
M  V30 3 C -3.0113 -2.2855 0.6052 0
M  V30 4 C -3.2669 0.4892 0.1277 0
M  V30 5 C -5.2083 0.438 1.5656 0
M  V30 6 C -3.4541 1.878 -0.0697 0
M  V30 7 C -5.4396 1.8033 1.3652 0
M  V30 8 C -4.5477 2.4937 0.5391 0
M  V30 9 C -2.7491 2.8876 -0.8054 0
M  V30 10 N -4.5409 3.8127 0.15 0
M  V30 11 C -3.4775 4.0555 -0.6778 0
M  V30 12 C -1.5373 2.7761 -1.5974 0
M  V30 13 N -0.4443 2.1693 -1.2458 0
M  V30 14 N -0.3409 1.6792 0.0242 0
M  V30 15 C 0.6125 0.7891 0.458 0
M  V30 16 N 1.5636 0.3526 -0.2908 0
M  V30 17 N 0.3979 0.4386 1.7544 0
M  V30 18 C 2.5295 -0.5931 0.2498 0
M  V30 19 C 3.5308 -0.9355 -0.8526 0
M  V30 20 C 4.5839 -1.9295 -0.3624 0
M  V30 21 C 5.5837 -2.2701 -1.4672 0
M  V30 22 C 6.6327 -3.2586 -0.9837 0
M  V30 23 H -3.1227 -2.26 -0.4837 0
M  V30 24 H -3.09 -3.3295 0.9234 0
M  V30 25 H -2.0269 -1.9175 0.9129 0
M  V30 26 H -2.4366 0.0048 -0.3754 0
M  V30 27 H -5.8857 -0.1254 2.2045 0
M  V30 28 H -6.2852 2.2968 1.8335 0
M  V30 29 H -5.2335 4.4956 0.4276 0
M  V30 30 H -3.3162 5.0445 -1.0875 0
M  V30 31 H -1.5539 3.2673 -2.5848 0
M  V30 32 H -0.9552 2.0541 0.7365 0
M  V30 33 H 1.0288 -0.2004 2.2132 0
M  V30 34 H -0.4598 0.6615 2.2348 0
M  V30 35 H 3.0629 -0.1542 1.1014 0
M  V30 36 H 2.027 -1.5097 0.581 0
M  V30 37 H 4.0203 -0.0174 -1.2015 0
M  V30 38 H 2.9974 -1.3544 -1.7152 0
M  V30 39 H 4.091 -2.8467 -0.0174 0
M  V30 40 H 5.1168 -1.5061 0.4976 0
M  V30 41 H 5.0563 -2.6976 -2.3279 0
M  V30 42 H 6.0822 -1.357 -1.8128 0
M  V30 43 H 7.3371 -3.488 -1.7893 0
M  V30 44 H 7.2005 -2.848 -0.1426 0
M  V30 45 H 6.169 -4.1961 -0.6606 0
M  V30 END ATOM
M  V30 BEGIN BOND
M  V30 1 1 1 2
M  V30 2 1 1 3
M  V30 3 2 2 4
M  V30 4 1 2 5
M  V30 5 1 4 6
M  V30 6 2 5 7
M  V30 7 2 6 8
M  V30 8 1 6 9
M  V30 9 1 8 10
M  V30 10 2 9 11
M  V30 11 1 9 12
M  V30 12 2 12 13
M  V30 13 1 13 14
M  V30 14 1 14 15
M  V30 15 2 15 16
M  V30 16 1 15 17
M  V30 17 1 16 18
M  V30 18 1 18 19
M  V30 19 1 19 20
M  V30 20 1 20 21
M  V30 21 1 21 22
M  V30 22 1 7 8
M  V30 23 1 10 11
M  V30 24 1 3 23
M  V30 25 1 3 24
M  V30 26 1 3 25
M  V30 27 1 4 26
M  V30 28 1 5 27
M  V30 29 1 7 28
M  V30 30 1 10 29
M  V30 31 1 11 30
M  V30 32 1 12 31
M  V30 33 1 14 32
M  V30 34 1 17 33
M  V30 35 1 17 34
M  V30 36 1 18 35
M  V30 37 1 18 36
M  V30 38 1 19 37
M  V30 39 1 19 38
M  V30 40 1 20 39
M  V30 41 1 20 40
M  V30 42 1 21 41
M  V30 43 1 21 42
M  V30 44 1 22 43
M  V30 45 1 22 44
M  V30 46 1 22 45
M  V30 END BOND
M  V30 END CTAB
M  END
>  <Column 1>
3456

>  <level_0>
5696

>  <index>
5697

>  <Unnamed: 0>
5697

>  <NO.>
5709

>  <Name>
tegaserod

>  <IUPAC_name>
1-[(z)-(5-methoxy-1h-indol-3-yl)methylideneamino]-2-pentylguanidine

>  <SMILES>
CCCCCN=C(N)N/N=C\c1c[nH]c2ccc(OC)cc12

>  <CID>
135409453

>  <logBB>


>  <BBB+/BBB->
BBB-

>  <Inchi>
InChI=1S/C16H23N5O/c1-3-4-5-8-18-16(17)21-20-11-12-10-19-15-7-6-13(22-2)9-14(12)15/h6-7-9-11-19H-3-5-8H2-1-2H3-(H3-17-18-21)/b20-11-

>  <threshold>


>  <reference>
R23|

>  <group>
C

>  <Class>
-1

>  <ABC>
16.29

>  <ABCGG>
13.43

>  <nAcid>
0

>  <nBase>
3

>  <nAromAtom>
9

>  <nAromBond>
10

>  <nAtom>
45

>  <nHeavyAtom>
22

>  <nSpiro>
0

>  <nBridgehead>
0

>  <nHetero>
6

>  <nN>
5

>  <nO>
1

>  <nF>
0

>  <BalabanJ>
1.6

>  <BertzCT>
659.6

>  <nBonds>
46

>  <nBondsO>
23

>  <nBondsS>
34

>  <nBondsD>
2

>  <nBondsT>
0

>  <nBondsA>
10

>  <nBondsM>
12

>  <nBondsKS>
40

>  <nBondsKD>
6

>  <RNCG>
0.23

>  <RPCG>
0.1

>  <FCSP3>
0.38

>  <SZ>
27

>  <Sm>
25.09

>  <Sv>
26.74

>  <Sse>
44.86

>  <Sp>
28.96

>  <Si>
51.44

>  <MZ>
0.6

>  <Mm>
0.56

>  <Mv>
0.59

>  <Mse>
1

>  <Mp>
0.64

>  <Mi>
1.14

>  <NsCH3>
2

>  <NdCH2>
0

>  <NssCH2>
4

>  <NtCH>
0

>  <NdsCH>
1

>  <NaaCH>
4

>  <NsssCH>
0

>  <NddC>
0

>  <NtsC>
0

>  <NdssC>
1

>  <NaasC>
2

>  <NaaaC>
2

>  <NssssC>
0

>  <NsNH3>
0

>  <NsNH2>
1

>  <NssNH2>
0

>  <NdNH>
0

>  <NssNH>
1

>  <NaaNH>
1

>  <NtN>
0

>  <NsssNH>
0

>  <NdsN>
2

>  <NaaN>
0

>  <NsssN>
0

>  <NddsN>
0

>  <NaasN>
0

>  <NssssN>
0

>  <NsOH>
0

>  <NdO>
0

>  <NssO>
1

>  <NaaO>
0

>  <NsF>
0

>  <NsSiH3>
0

>  <NssSiH2>
0

>  <NsssSiH>
0

>  <NssssSi>
0

>  <NsPH2>
0

>  <NssPH>
0

>  <NsssP>
0

>  <NdsssP>
0

>  <NsssssP>
0

>  <NsSH>
0

>  <NdS>
0

>  <NssS>
0

>  <NaaS>
0

>  <NdssS>
0

>  <NddssS>
0

>  <NsCl>
0

>  <NsBr>
0

>  <NsI>
0

>  <fragCpx>
67.06

>  <fMF>
0.2

>  <nHBAcc>
3

>  <nHBDon>
3

>  <Kier1>
18.34

>  <Kier2>
9.99

>  <Lipinski>
1

>  <GhoseFilter>
1

>  <FilterItLogS>
-4.68

>  <VMcGowan>
244.55

>  <LabuteASA>
130.01

>  <PEOE_VSA1>
15.45

>  <PEOE_VSA2>
4.99

>  <PEOE_VSA3>
5.43

>  <PEOE_VSA4>
5.1

>  <PEOE_VSA5>
0

>  <PEOE_VSA6>
19.77

>  <PEOE_VSA7>
24.62

>  <PEOE_VSA8>
29.21

>  <PEOE_VSA9>
13.32

>  <PEOE_VSA10>
5.75

>  <PEOE_VSA11>
0

>  <PEOE_VSA12>
5.96

>  <PEOE_VSA13>
0

>  <SMR_VSA1>
4.74

>  <SMR_VSA2>
0

>  <SMR_VSA3>
10.41

>  <SMR_VSA4>
15.83

>  <SMR_VSA5>
26.19

>  <SMR_VSA6>
13.65

>  <SMR_VSA7>
29.96

>  <SMR_VSA8>
0

>  <SMR_VSA9>
5.75

>  <SlogP_VSA1>
15.9

>  <SlogP_VSA2>
30.81

>  <SlogP_VSA3>
0

>  <SlogP_VSA4>
0

>  <SlogP_VSA5>
31.75

>  <SlogP_VSA6>
34.49

>  <SlogP_VSA7>
0

>  <SlogP_VSA8>
10.9

>  <SlogP_VSA9>
0

>  <SlogP_VSA10>
0

>  <SlogP_VSA11>
5.75

>  <EState_VSA1>
0

>  <EState_VSA2>
0

>  <EState_VSA3>
5.96

>  <EState_VSA4>
41.6

>  <EState_VSA5>
6.42

>  <EState_VSA6>
13.32

>  <EState_VSA7>
24.4

>  <EState_VSA8>
27.43

>  <EState_VSA9>
10.47

>  <EState_VSA10>
0

>  <VSA_EState1>
5.24

>  <VSA_EState2>
7.4

>  <VSA_EState3>
5.17

>  <VSA_EState4>
10.48

>  <VSA_EState5>
1.15

>  <VSA_EState6>
5.86

>  <VSA_EState7>
6.99

>  <VSA_EState8>
2.89

>  <VSA_EState9>
1.65

>  <apol>
48.36

>  <bpol>
26.52

>  <nRing>
2

>  <nHRing>
1

>  <naRing>
2

>  <naHRing>
1

>  <nARing 2>
0

>  <nAHRing 2>
0

>  <nFRing>
1

>  <nFHRing>
1

>  <nFaRing>
1

>  <nFaHRing>
1

>  <nFARing 2>
0

>  <nFAHRing 2>
0

>  <nRot>
7

>  <SLogP>
2.6

>  <SMR>
91.59

>  <TopoPSA(NO)>
87.79

>  <TopoPSA>
87.79

>  <JGI1>
0.15

>  <JGI2>
0.07

>  <JGI3>
0.04

>  <JGI4>
0.03

>  <JGI5>
0.02

>  <Diameter>
15

>  <Radius>
8

>  <TMWC10>
117.01

>  <TSRW10>
69.12

>  <MW>
301.19

>  <AMW>
6.69

>  <WPath>
1306

>  <WPol>
28

>  <Zagreb1>
104

>  <Zagreb2>
117

>  <mZagreb2>
5.22

>  <yes>


>  <nAR-cont>
0.336376

>  <nHA-cont>
0.983774276

>  <MWHBN>
0.345725152

>  <MWHBN-cont>
0.686146169

>  <TPSA-cont>
0.387171286

>  <pka_cont>
0.97

>  <yes.1>


>  <BBB_SCORE>
3.608712101

>  <MMFF94 Energy>
-6.3675

$$$$
Compound 2743
Actelion Java MolfileCreator 2.0

  0  0  0  0  0  0              0 V3000
M  V30 BEGIN CTAB
M  V30 COUNTS 19 18 0 0 0
M  V30 BEGIN ATOM
M  V30 1 O 0.2318 -1.9336 -3.7927 0
M  V30 2 N -0.6479 -1.6708 -2.9674 0
M  V30 3 O -0.5641 -0.3036 -2.5513 0
M  V30 4 C -1.5706 -0.0389 -1.5769 0
M  V30 5 C -1.0909 -0.3813 -0.1656 0
M  V30 6 C 0.1531 0.4169 0.2346 0
M  V30 7 C 0.5862 0.0888 1.6637 0
M  V30 8 C 1.8209 0.8793 2.067 0
M  V30 9 H -2.5008 -0.5731 -1.8114 0
M  V30 10 H -1.8012 1.0309 -1.6348 0
M  V30 11 H -1.9028 -0.1802 0.5431 0
M  V30 12 H -0.8601 -1.4514 -0.104 0
M  V30 13 H -0.0579 1.4902 0.1523 0
M  V30 14 H 0.9767 0.1957 -0.4546 0
M  V30 15 H -0.2287 0.3148 2.3613 0
M  V30 16 H 0.8007 -0.9825 1.7511 0
M  V30 17 H 2.1127 0.6295 3.0919 0
M  V30 18 H 2.6649 0.6515 1.4083 0
M  V30 19 H 1.6296 1.9562 2.0212 0
M  V30 END ATOM
M  V30 BEGIN BOND
M  V30 1 2 1 2
M  V30 2 1 2 3
M  V30 3 1 3 4
M  V30 4 1 4 5
M  V30 5 1 5 6
M  V30 6 1 6 7
M  V30 7 1 7 8
M  V30 8 1 4 9
M  V30 9 1 4 10
M  V30 10 1 5 11
M  V30 11 1 5 12
M  V30 12 1 6 13
M  V30 13 1 6 14
M  V30 14 1 7 15
M  V30 15 1 7 16
M  V30 16 1 8 17
M  V30 17 1 8 18
M  V30 18 1 8 19
M  V30 END BOND
M  V30 END CTAB
M  END
>  <Column 1>
3457

>  <level_0>
5697

>  <index>
5698

>  <Unnamed: 0>
5698

>  <NO.>
5710

>  <Name>
pentyl nitrite

>  <IUPAC_name>
pentyl nitrite

>  <SMILES>
CCCCCON=O

>  <CID>
10026

>  <logBB>


>  <BBB+/BBB->
BBB-

>  <Inchi>
InChI=1S/C5H11NO2/c1-2-3-4-5-8-6-7/h2-5H2-1H3

>  <threshold>


>  <reference>
R23|

>  <group>
C

>  <Class>
-1

>  <ABC>
4.95

>  <ABCGG>
5.14

>  <nAcid>
0

>  <nBase>
0

>  <nAromAtom>
0

>  <nAromBond>
0

>  <nAtom>
19

>  <nHeavyAtom>
8

>  <nSpiro>
0

>  <nBridgehead>
0

>  <nHetero>
3

>  <nN>
1

>  <nO>
2

>  <nF>
0

>  <BalabanJ>
2.53

>  <BertzCT>
56.39

>  <nBonds>
18

>  <nBondsO>
7

>  <nBondsS>
17

>  <nBondsD>
1

>  <nBondsT>
0

>  <nBondsA>
0

>  <nBondsM>
1

>  <nBondsKS>
17

>  <nBondsKD>
1

>  <RNCG>
0.55

>  <RPCG>
0.24

>  <FCSP3>
1

>  <SZ>
10.67

>  <Sm>
9.75

>  <Sv>
10.17

>  <Sse>
19.21

>  <Sp>
11.01

>  <Si>
21.99

>  <MZ>
0.56

>  <Mm>
0.51

>  <Mv>
0.54

>  <Mse>
1.01

>  <Mp>
0.58

>  <Mi>
1.16

>  <NsCH3>
1

>  <NdCH2>
0

>  <NssCH2>
4

>  <NtCH>
0

>  <NdsCH>
0

>  <NaaCH>
0

>  <NsssCH>
0

>  <NddC>
0

>  <NtsC>
0

>  <NdssC>
0

>  <NaasC>
0

>  <NaaaC>
0

>  <NssssC>
0

>  <NsNH3>
0

>  <NsNH2>
0

>  <NssNH2>
0

>  <NdNH>
0

>  <NssNH>
0

>  <NaaNH>
0

>  <NtN>
0

>  <NsssNH>
0

>  <NdsN>
1

>  <NaaN>
0

>  <NsssN>
0

>  <NddsN>
0

>  <NaasN>
0

>  <NssssN>
0

>  <NsOH>
0

>  <NdO>
1

>  <NssO>
1

>  <NaaO>
0

>  <NsF>
0

>  <NsSiH3>
0

>  <NssSiH2>
0

>  <NsssSiH>
0

>  <NssssSi>
0

>  <NsPH2>
0

>  <NssPH>
0

>  <NsssP>
0

>  <NdsssP>
0

>  <NsssssP>
0

>  <NsSH>
0

>  <NdS>
0

>  <NssS>
0

>  <NaaS>
0

>  <NdssS>
0

>  <NddssS>
0

>  <NsCl>
0

>  <NsBr>
0

>  <NsI>
0

>  <fragCpx>
7.03

>  <fMF>
0

>  <nHBAcc>
3

>  <nHBDon>
0

>  <Kier1>
8

>  <Kier2>
7

>  <Lipinski>
1

>  <GhoseFilter>
0

>  <FilterItLogS>
-1.53

>  <VMcGowan>
98.73

>  <LabuteASA>
48.96

>  <PEOE_VSA1>
4.84

>  <PEOE_VSA2>
0

>  <PEOE_VSA3>
0

>  <PEOE_VSA4>
0

>  <PEOE_VSA5>
4.91

>  <PEOE_VSA6>
19.77

>  <PEOE_VSA7>
6.42

>  <PEOE_VSA8>
0

>  <PEOE_VSA9>
0

>  <PEOE_VSA10>
6.61

>  <PEOE_VSA11>
5.34

>  <PEOE_VSA12>
0

>  <PEOE_VSA13>
0

>  <SMR_VSA1>
4.84

>  <SMR_VSA2>
0

>  <SMR_VSA3>
0

>  <SMR_VSA4>
5.34

>  <SMR_VSA5>
26.19

>  <SMR_VSA6>
6.61

>  <SMR_VSA7>
4.91

>  <SMR_VSA8>
0

>  <SMR_VSA9>
0

>  <SlogP_VSA1>
0

>  <SlogP_VSA2>
6.61

>  <SlogP_VSA3>
4.84

>  <SlogP_VSA4>
4.91

>  <SlogP_VSA5>
26.19

>  <SlogP_VSA6>
5.34

>  <SlogP_VSA7>
0

>  <SlogP_VSA8>
0

>  <SlogP_VSA9>
0

>  <SlogP_VSA10>
0

>  <SlogP_VSA11>
0

>  <EState_VSA1>
0

>  <EState_VSA2>
0

>  <EState_VSA3>
6.61

>  <EState_VSA4>
19.26

>  <EState_VSA5>
0

>  <EState_VSA6>
0

>  <EState_VSA7>
0

>  <EState_VSA8>
17.1

>  <EState_VSA9>
0

>  <EState_VSA10>
4.91

>  <VSA_EState1>
0

>  <VSA_EState2>
13.5

>  <VSA_EState3>
2.26

>  <VSA_EState4>
0

>  <VSA_EState5>
0

>  <VSA_EState6>
0

>  <VSA_EState7>
3.18

>  <VSA_EState8>
2.56

>  <VSA_EState9>
0

>  <apol>
18.39

>  <bpol>
12.5

>  <nRing>
0

>  <nHRing>
0

>  <naRing>
0

>  <naHRing>
0

>  <nARing 2>
0

>  <nAHRing 2>
0

>  <nFRing>
0

>  <nFHRing>
0

>  <nFaRing>
0

>  <nFaHRing>
0

>  <nFARing 2>
0

>  <nFAHRing 2>
0

>  <nRot>
5

>  <SLogP>
1.87

>  <SMR>
31.27

>  <TopoPSA(NO)>
38.66

>  <TopoPSA>
38.66

>  <JGI1>
0.07

>  <JGI2>
0.04

>  <JGI3>
0.03

>  <JGI4>
0.02

>  <JGI5>
0.02

>  <Diameter>
7

>  <Radius>
4

>  <TMWC10>
66.91

>  <TSRW10>
32.19

>  <MW>
117.08

>  <AMW>
6.16

>  <WPath>
84

>  <WPol>
5

>  <Zagreb1>
26

>  <Zagreb2>
24

>  <mZagreb2>
2.25

>  <yes>


>  <nAR-cont>
0.336376

>  <nHA-cont>
0.464727961

>  <MWHBN>
0.277255326

>  <MWHBN-cont>
0.902935689

>  <TPSA-cont>
0.730129194

>  <pka_cont>
0.97

>  <yes.1>


>  <BBB_SCORE>
4.100765882

>  <MMFF94 Energy>
-2.0657

$$$$
Compound 2744
Actelion Java MolfileCreator 2.0

  0  0  0  0  0  0              0 V3000
M  V30 BEGIN CTAB
M  V30 COUNTS 43 44 0 0 0
M  V30 BEGIN ATOM
M  V30 1 S 1.7495 1.1925 -1.7495 0
M  V30 2 C 0.2597 0.3185 -1.9669 0
M  V30 3 C 1.2127 2.8689 -2.1587 0
M  V30 4 C 0.0224 -0.9503 -1.5563 0
M  V30 5 N -1.2236 -1.5996 -1.7568 0
M  V30 6 C 1.0978 -1.6967 -0.8457 0
M  V30 7 C -2.3652 -1.11 -2.3727 0
M  V30 8 C -1.572 -2.8888 -1.3836 0
M  V30 9 C 1.1829 -1.6938 0.559 0
M  V30 10 C 2.0459 -2.413 -1.5934 0
M  V30 11 N -3.3526 -1.9769 -2.4121 0
M  V30 12 C -2.8669 -3.0883 -1.7923 0
M  V30 13 O 0.2128 -1.0095 1.2478 0
M  V30 14 C 2.19 -2.4253 1.1957 0
M  V30 15 C 3.0583 -3.1251 -0.9506 0
M  V30 16 C 0.6857 -0.2988 2.3941 0
M  V30 17 C 3.1275 -3.1336 0.4409 0
M  V30 18 C -0.3437 0.7656 2.7739 0
M  V30 19 C -0.5249 1.8142 1.6728 0
M  V30 20 C -1.5116 2.9021 2.0949 0
M  V30 21 C -1.6946 3.94 0.999 0
M  V30 22 H -0.5205 0.8753 -2.4735 0
M  V30 23 H 2.0553 3.556 -2.0457 0
M  V30 24 H 0.4106 3.1883 -1.4875 0
M  V30 25 H 0.8601 2.9171 -3.1926 0
M  V30 26 H -2.4243 -0.1108 -2.7787 0
M  V30 27 H -0.8832 -3.5391 -0.8643 0
M  V30 28 H 2.0012 -2.4137 -2.68 0
M  V30 29 H -3.4713 -3.9777 -1.6691 0
M  V30 30 H 2.2515 -2.4721 2.2781 0
M  V30 31 H 3.7907 -3.675 -1.5358 0
M  V30 32 H 1.6516 0.1816 2.1922 0
M  V30 33 H 0.7943 -0.9952 3.2332 0
M  V30 34 H 3.9105 -3.698 0.941 0
M  V30 35 H -1.3099 0.2826 2.9646 0
M  V30 36 H -0.0266 1.2538 3.7025 0
M  V30 37 H -0.8899 1.3333 0.7584 0
M  V30 38 H 0.4442 2.2696 1.4364 0
M  V30 39 H -2.4832 2.4527 2.3308 0
M  V30 40 H -1.1536 3.3983 3.0044 0
M  V30 41 H -2.406 4.7077 1.3187 0
M  V30 42 H -0.7459 4.4327 0.7634 0
M  V30 43 H -2.0794 3.4799 0.0832 0
M  V30 END ATOM
M  V30 BEGIN BOND
M  V30 1 1 1 2
M  V30 2 1 1 3
M  V30 3 2 2 4
M  V30 4 1 4 5
M  V30 5 1 4 6
M  V30 6 1 5 7
M  V30 7 1 5 8
M  V30 8 2 6 9
M  V30 9 1 6 10
M  V30 10 2 7 11
M  V30 11 2 8 12
M  V30 12 1 9 13
M  V30 13 1 9 14
M  V30 14 2 10 15
M  V30 15 1 13 16
M  V30 16 2 14 17
M  V30 17 1 16 18
M  V30 18 1 18 19
M  V30 19 1 19 20
M  V30 20 1 20 21
M  V30 21 1 11 12
M  V30 22 1 15 17
M  V30 23 1 2 22
M  V30 24 1 3 23
M  V30 25 1 3 24
M  V30 26 1 3 25
M  V30 27 1 7 26
M  V30 28 1 8 27
M  V30 29 1 10 28
M  V30 30 1 12 29
M  V30 31 1 14 30
M  V30 32 1 15 31
M  V30 33 1 16 32
M  V30 34 1 16 33
M  V30 35 1 17 34
M  V30 36 1 18 35
M  V30 37 1 18 36
M  V30 38 1 19 37
M  V30 39 1 19 38
M  V30 40 1 20 39
M  V30 41 1 20 40
M  V30 42 1 21 41
M  V30 43 1 21 42
M  V30 44 1 21 43
M  V30 END BOND
M  V30 END CTAB
M  END
>  <Column 1>
3458

>  <level_0>
5698

>  <index>
5699

>  <Unnamed: 0>
5699

>  <NO.>
5711

>  <Name>
neticonazole

>  <IUPAC_name>
1-[(e)-2-methylsulfanyl-1-(2-pentoxyphenyl)ethenyl]imidazole

>  <SMILES>
CCCCCOc1ccccc1/C(=C\SC)n1ccnc1

>  <CID>
5282433

>  <logBB>


>  <BBB+/BBB->
BBB-

>  <Inchi>
InChI=1S/C17H22N2OS/c1-3-4-7-12-20-17-9-6-5-8-15(17)16(13-21-2)19-11-10-18-14-19/h5-6-8-11-13-14H-3-4-7-12H2-1-2H3/b16-13+

>  <threshold>


>  <reference>
R23|

>  <group>
C

>  <Class>
1

>  <ABC>
15.44

>  <ABCGG>
13.68

>  <nAcid>
0

>  <nBase>
0

>  <nAromAtom>
11

>  <nAromBond>
11

>  <nAtom>
43

>  <nHeavyAtom>
21

>  <nSpiro>
0

>  <nBridgehead>
0

>  <nHetero>
4

>  <nN>
2

>  <nO>
1

>  <nF>
0

>  <BalabanJ>
1.9

>  <BertzCT>
563.93

>  <nBonds>
44

>  <nBondsO>
22

>  <nBondsS>
32

>  <nBondsD>
1

>  <nBondsT>
0

>  <nBondsA>
11

>  <nBondsM>
12

>  <nBondsKS>
38

>  <nBondsKD>
6

>  <RNCG>
0.31

>  <RPCG>
0.08

>  <FCSP3>
0.35

>  <SZ>
27

>  <Sm>
25.18

>  <Sv>
26.38

>  <Sse>
42.5

>  <Sp>
29.32

>  <Si>
48.28

>  <MZ>
0.63

>  <Mm>
0.59

>  <Mv>
0.61

>  <Mse>
0.99

>  <Mp>
0.68

>  <Mi>
1.12

>  <NsCH3>
2

>  <NdCH2>
0

>  <NssCH2>
4

>  <NtCH>
0

>  <NdsCH>
1

>  <NaaCH>
7

>  <NsssCH>
0

>  <NddC>
0

>  <NtsC>
0

>  <NdssC>
1

>  <NaasC>
2

>  <NaaaC>
0

>  <NssssC>
0

>  <NsNH3>
0

>  <NsNH2>
0

>  <NssNH2>
0

>  <NdNH>
0

>  <NssNH>
0

>  <NaaNH>
0

>  <NtN>
0

>  <NsssNH>
0

>  <NdsN>
0

>  <NaaN>
1

>  <NsssN>
0

>  <NddsN>
0

>  <NaasN>
1

>  <NssssN>
0

>  <NsOH>
0

>  <NdO>
0

>  <NssO>
1

>  <NaaO>
0

>  <NsF>
0

>  <NsSiH3>
0

>  <NssSiH2>
0

>  <NsssSiH>
0

>  <NssssSi>
0

>  <NsPH2>
0

>  <NssPH>
0

>  <NsssP>
0

>  <NdsssP>
0

>  <NsssssP>
0

>  <NsSH>
0

>  <NdS>
0

>  <NssS>
1

>  <NaaS>
0

>  <NdssS>
0

>  <NddssS>
0

>  <NsCl>
0

>  <NsBr>
0

>  <NsI>
0

>  <fragCpx>
64.04

>  <fMF>
0.28

>  <nHBAcc>
4

>  <nHBDon>
0

>  <Kier1>
17.36

>  <Kier2>
9.9

>  <Lipinski>
1

>  <GhoseFilter>
1

>  <FilterItLogS>
-4.19

>  <VMcGowan>
245.05

>  <LabuteASA>
130.59

>  <PEOE_VSA1>
9.3

>  <PEOE_VSA2>
0

>  <PEOE_VSA3>
4.98

>  <PEOE_VSA4>
0

>  <PEOE_VSA5>
11.76

>  <PEOE_VSA6>
31.9

>  <PEOE_VSA7>
30.22

>  <PEOE_VSA8>
17.96

>  <PEOE_VSA9>
18.63

>  <PEOE_VSA10>
5.75

>  <PEOE_VSA11>
0

>  <PEOE_VSA12>
0

>  <PEOE_VSA13>
0

>  <SMR_VSA1>
4.74

>  <SMR_VSA2>
0

>  <SMR_VSA3>
9.55

>  <SMR_VSA4>
0

>  <SMR_VSA5>
26.19

>  <SMR_VSA6>
12.86

>  <SMR_VSA7>
53.96

>  <SMR_VSA8>
0

>  <SMR_VSA9>
5.75

>  <SlogP_VSA1>
4.74

>  <SlogP_VSA2>
22.41

>  <SlogP_VSA3>
0

>  <SlogP_VSA4>
0

>  <SlogP_VSA5>
31.75

>  <SlogP_VSA6>
48.39

>  <SlogP_VSA7>
0

>  <SlogP_VSA8>
5.7

>  <SlogP_VSA9>
0

>  <SlogP_VSA10>
0

>  <SlogP_VSA11>
5.75

>  <EState_VSA1>
0

>  <EState_VSA2>
0

>  <EState_VSA3>
0

>  <EState_VSA4>
30.04

>  <EState_VSA5>
12.84

>  <EState_VSA6>
17.96

>  <EState_VSA7>
35.29

>  <EState_VSA8>
29.64

>  <EState_VSA9>
4.74

>  <EState_VSA10>
0

>  <VSA_EState1>
8

>  <VSA_EState2>
4.14

>  <VSA_EState3>
2.12

>  <VSA_EState4>
2.19

>  <VSA_EState5>
0.93

>  <VSA_EState6>
8.19

>  <VSA_EState7>
11.12

>  <VSA_EState8>
2.97

>  <VSA_EState9>
0

>  <apol>
48.96

>  <bpol>
29.12

>  <nRing>
2

>  <nHRing>
1

>  <naRing>
2

>  <naHRing>
1

>  <nARing 2>
0

>  <nAHRing 2>
0

>  <nFRing>
0

>  <nFHRing>
0

>  <nFaRing>
0

>  <nFaHRing>
0

>  <nFARing 2>
0

>  <nFAHRing 2>
0

>  <nRot>
8

>  <SLogP>
4.66

>  <SMR>
90.58

>  <TopoPSA(NO)>
27.05

>  <TopoPSA>
52.35

>  <JGI1>
0.09

>  <JGI2>
0.07

>  <JGI3>
0.04

>  <JGI4>
0.02

>  <JGI5>
0.01

>  <Diameter>
11

>  <Radius>
6

>  <TMWC10>
114.67

>  <TSRW10>
67.04

>  <MW>
302.15

>  <AMW>
7.03

>  <WPath>
977

>  <WPol>
27

>  <Zagreb1>
98

>  <Zagreb2>
111

>  <mZagreb2>
5.08

>  <yes>


>  <nAR-cont>
0.336376

>  <nHA-cont>
0.994529749

>  <MWHBN>
0.230116994

>  <MWHBN-cont>
0.986653263

>  <TPSA-cont>
0.634564493

>  <pka_cont>
0.97

>  <yes.1>


>  <BBB_SCORE>
4.56501463

>  <MMFF94 Energy>
54.249

$$$$
Compound 2745
Actelion Java MolfileCreator 2.0

  0  0  0  0  0  0              0 V3000
M  V30 BEGIN CTAB
M  V30 COUNTS 50 50 0 0 0
M  V30 BEGIN ATOM
M  V30 1 O 1.4777 2.1004 3.2687 0
M  V30 2 C 1.4151 1.4191 2.2582 0
M  V30 3 O 1.0157 0.1261 2.1959 0
M  V30 4 C 1.7613 1.9205 0.9 0
M  V30 5 C 0.6137 -0.4641 3.4426 0
M  V30 6 C 1.6118 1.1305 -0.2498 0
M  V30 7 C 2.2336 3.2321 0.7824 0
M  V30 8 C -0.8168 -0.0656 3.8539 0
M  V30 9 C 1.9341 1.65 -1.5077 0
M  V30 10 C 2.5621 3.7498 -0.4716 0
M  V30 11 N -1.8922 -0.8056 3.1459 0
M  V30 12 O 1.8157 0.9653 -2.6951 0
M  V30 13 C 2.4352 2.9641 -1.6195 0
M  V30 14 C -1.9765 -0.4308 1.7227 0
M  V30 15 C -3.177 -0.5933 3.838 0
M  V30 16 C 1.2095 -0.326 -2.6505 0
M  V30 17 N 2.7127 3.5122 -2.8664 0
M  V30 18 C -1.4846 -1.5769 0.8485 0
M  V30 19 C -4.2277 -1.6222 3.4287 0
M  V30 20 C 1.1074 -0.8438 -4.083 0
M  V30 21 C 0.4658 -2.2274 -4.1369 0
M  V30 22 C 0.3648 -2.7392 -5.5648 0
M  V30 23 H 1.326 -0.1848 4.2292 0
M  V30 24 H 0.691 -1.5516 3.3332 0
M  V30 25 H 1.2423 0.1167 -0.1482 0
M  V30 26 H 2.3433 3.8598 1.6648 0
M  V30 27 H -0.8903 -0.3014 4.9233 0
M  V30 28 H -0.9707 1.015 3.7488 0
M  V30 29 H 2.9157 4.7747 -0.5466 0
M  V30 30 H -3.0054 -0.2022 1.4194 0
M  V30 31 H -1.4153 0.4833 1.4988 0
M  V30 32 H -3.039 -0.7095 4.9205 0
M  V30 33 H -3.5535 0.424 3.6737 0
M  V30 34 H 0.2047 -0.2578 -2.2163 0
M  V30 35 H 1.8299 -1.0101 -2.0595 0
M  V30 36 H 3.2065 4.3867 -2.9577 0
M  V30 37 H 2.6669 2.8821 -3.6601 0
M  V30 38 H -1.5487 -1.296 -0.2077 0
M  V30 39 H -2.0976 -2.4727 0.9944 0
M  V30 40 H -0.4443 -1.8388 1.0608 0
M  V30 41 H -5.1346 -1.4857 4.0271 0
M  V30 42 H -3.8649 -2.6413 3.5998 0
M  V30 43 H -4.5113 -1.532 2.3762 0
M  V30 44 H 0.5282 -0.1326 -4.6853 0
M  V30 45 H 2.1084 -0.8709 -4.5313 0
M  V30 46 H 1.0553 -2.9347 -3.5421 0
M  V30 47 H -0.5372 -2.1904 -3.6963 0
M  V30 48 H -0.0972 -3.7312 -5.58 0
M  V30 49 H -0.2463 -2.0702 -6.1789 0
M  V30 50 H 1.3552 -2.8186 -6.024 0
M  V30 END ATOM
M  V30 BEGIN BOND
M  V30 1 2 1 2
M  V30 2 1 2 3
M  V30 3 1 2 4
M  V30 4 1 3 5
M  V30 5 2 4 6
M  V30 6 1 4 7
M  V30 7 1 5 8
M  V30 8 1 6 9
M  V30 9 2 7 10
M  V30 10 1 8 11
M  V30 11 1 9 12
M  V30 12 2 9 13
M  V30 13 1 11 14
M  V30 14 1 11 15
M  V30 15 1 12 16
M  V30 16 1 13 17
M  V30 17 1 14 18
M  V30 18 1 15 19
M  V30 19 1 16 20
M  V30 20 1 20 21
M  V30 21 1 21 22
M  V30 22 1 10 13
M  V30 23 1 5 23
M  V30 24 1 5 24
M  V30 25 1 6 25
M  V30 26 1 7 26
M  V30 27 1 8 27
M  V30 28 1 8 28
M  V30 29 1 10 29
M  V30 30 1 14 30
M  V30 31 1 14 31
M  V30 32 1 15 32
M  V30 33 1 15 33
M  V30 34 1 16 34
M  V30 35 1 16 35
M  V30 36 1 17 36
M  V30 37 1 17 37
M  V30 38 1 18 38
M  V30 39 1 18 39
M  V30 40 1 18 40
M  V30 41 1 19 41
M  V30 42 1 19 42
M  V30 43 1 19 43
M  V30 44 1 20 44
M  V30 45 1 20 45
M  V30 46 1 21 46
M  V30 47 1 21 47
M  V30 48 1 22 48
M  V30 49 1 22 49
M  V30 50 1 22 50
M  V30 END BOND
M  V30 END CTAB
M  END
>  <Column 1>
3460

>  <level_0>
5700

>  <index>
5701

>  <Unnamed: 0>
5701

>  <NO.>
5713

>  <Name>
oxybuprocaine

>  <IUPAC_name>
2-(diethylamino)ethyl 4-amino-3-butoxybenzoate

>  <SMILES>
CCCCOc1cc(C(=O)OCCN(CC)CC)ccc1N

>  <CID>
4633

>  <logBB>


>  <BBB+/BBB->
BBB-

>  <Inchi>
InChI=1S/C17H28N2O3/c1-4-7-11-21-16-13-14(8-9-15(16)18)17(20)22-12-10-19(5-2)6-3/h8-9-13H-4-7-10-12-18H2-1-3H3

>  <threshold>


>  <reference>
R23|

>  <group>
C

>  <Class>
-1

>  <ABC>
15.69

>  <ABCGG>
13.52

>  <nAcid>
0

>  <nBase>
1

>  <nAromAtom>
6

>  <nAromBond>
6

>  <nAtom>
50

>  <nHeavyAtom>
22

>  <nSpiro>
0

>  <nBridgehead>
0

>  <nHetero>
5

>  <nN>
2

>  <nO>
3

>  <nF>
0

>  <BalabanJ>
2.3

>  <BertzCT>
459.22

>  <nBonds>
50

>  <nBondsO>
22

>  <nBondsS>
43

>  <nBondsD>
1

>  <nBondsT>
0

>  <nBondsA>
6

>  <nBondsM>
7

>  <nBondsKS>
46

>  <nBondsKD>
4

>  <RNCG>
0.22

>  <RPCG>
0.15

>  <FCSP3>
0.59

>  <SZ>
28

>  <Sm>
25.68

>  <Sv>
28.25

>  <Sse>
49.75

>  <Sp>
30.94

>  <Si>
57.02

>  <MZ>
0.56

>  <Mm>
0.51

>  <Mv>
0.56

>  <Mse>
0.99

>  <Mp>
0.62

>  <Mi>
1.14

>  <NsCH3>
3

>  <NdCH2>
0

>  <NssCH2>
7

>  <NtCH>
0

>  <NdsCH>
0

>  <NaaCH>
3

>  <NsssCH>
0

>  <NddC>
0

>  <NtsC>
0

>  <NdssC>
1

>  <NaasC>
3

>  <NaaaC>
0

>  <NssssC>
0

>  <NsNH3>
0

>  <NsNH2>
1

>  <NssNH2>
0

>  <NdNH>
0

>  <NssNH>
0

>  <NaaNH>
0

>  <NtN>
0

>  <NsssNH>
0

>  <NdsN>
0

>  <NaaN>
0

>  <NsssN>
1

>  <NddsN>
0

>  <NaasN>
0

>  <NssssN>
0

>  <NsOH>
0

>  <NdO>
1

>  <NssO>
2

>  <NaaO>
0

>  <NsF>
0

>  <NsSiH3>
0

>  <NssSiH2>
0

>  <NsssSiH>
0

>  <NssssSi>
0

>  <NsPH2>
0

>  <NssPH>
0

>  <NsssP>
0

>  <NdsssP>
0

>  <NsssssP>
0

>  <NsSH>
0

>  <NdS>
0

>  <NssS>
0

>  <NaaS>
0

>  <NdssS>
0

>  <NddssS>
0

>  <NsCl>
0

>  <NsBr>
0

>  <NsI>
0

>  <fragCpx>
22.05

>  <fMF>
0.12

>  <nHBAcc>
5

>  <nHBDon>
1

>  <Kier1>
20.05

>  <Kier2>
11.52

>  <Lipinski>
1

>  <GhoseFilter>
1

>  <FilterItLogS>
-4.33

>  <VMcGowan>
259.9

>  <LabuteASA>
132.93

>  <PEOE_VSA1>
20.11

>  <PEOE_VSA2>
0

>  <PEOE_VSA3>
4.79

>  <PEOE_VSA4>
0

>  <PEOE_VSA5>
0

>  <PEOE_VSA6>
27.19

>  <PEOE_VSA7>
37.71

>  <PEOE_VSA8>
6.54

>  <PEOE_VSA9>
17.86

>  <PEOE_VSA10>
12.36

>  <PEOE_VSA11>
0

>  <PEOE_VSA12>
0

>  <PEOE_VSA13>
0

>  <SMR_VSA1>
14.27

>  <SMR_VSA2>
0

>  <SMR_VSA3>
4.9

>  <SMR_VSA4>
0

>  <SMR_VSA5>
33.61

>  <SMR_VSA6>
38.58

>  <SMR_VSA7>
23.76

>  <SMR_VSA8>
0

>  <SMR_VSA9>
5.75

>  <SlogP_VSA1>
10.47

>  <SlogP_VSA2>
43.72

>  <SlogP_VSA3>
4.74

>  <SlogP_VSA4>
0

>  <SlogP_VSA5>
43.97

>  <SlogP_VSA6>
18.2

>  <SlogP_VSA7>
0

>  <SlogP_VSA8>
0

>  <SlogP_VSA9>
0

>  <SlogP_VSA10>
5.69

>  <SlogP_VSA11>
5.75

>  <EState_VSA1>
0

>  <EState_VSA2>
5.97

>  <EState_VSA3>
30.21

>  <EState_VSA4>
32.48

>  <EState_VSA5>
0

>  <EState_VSA6>
18.2

>  <EState_VSA7>
0

>  <EState_VSA8>
25.67

>  <EState_VSA9>
15.21

>  <EState_VSA10>
4.79

>  <VSA_EState1>
10.91

>  <VSA_EState2>
14.26

>  <VSA_EState3>
0

>  <VSA_EState4>
6.87

>  <VSA_EState5>
0.21

>  <VSA_EState6>
5.01

>  <VSA_EState7>
2

>  <VSA_EState8>
9.9

>  <VSA_EState9>
0

>  <apol>
51.67

>  <bpol>
33.57

>  <nRing>
1

>  <nHRing>
0

>  <naRing>
1

>  <naHRing>
0

>  <nARing 2>
0

>  <nAHRing 2>
0

>  <nFRing>
0

>  <nFHRing>
0

>  <nFaRing>
0

>  <nFaHRing>
0

>  <nFARing 2>
0

>  <nFAHRing 2>
0

>  <nRot>
10

>  <SLogP>
2.95

>  <SMR>
89.33

>  <TopoPSA(NO)>
64.79

>  <TopoPSA>
64.79

>  <JGI1>
0.18

>  <JGI2>
0.09

>  <JGI3>
0.04

>  <JGI4>
0.03

>  <JGI5>
0.03

>  <Diameter>
14

>  <Radius>
7

>  <TMWC10>
114.52

>  <TSRW10>
54.78

>  <MW>
308.21

>  <AMW>
6.16

>  <WPath>
1263

>  <WPol>
29

>  <Zagreb1>
98

>  <Zagreb2>
108

>  <mZagreb2>
5.39

>  <yes>


>  <nAR-cont>
0.336376

>  <nHA-cont>
0.983774276

>  <MWHBN>
0.341765238

>  <MWHBN-cont>
0.700700763

>  <TPSA-cont>
0.547725568

>  <pka_cont>
0.97

>  <yes.1>


>  <BBB_SCORE>
3.951652556

>  <MMFF94 Energy>
51.66

$$$$
Compound 2746
Actelion Java MolfileCreator 2.0

  0  0  0  0  0  0              0 V3000
M  V30 BEGIN CTAB
M  V30 COUNTS 66 67 0 0 0
M  V30 BEGIN ATOM
M  V30 1 S -7.0871 0.2382 0.0794 0
M  V30 2 O -6.7027 1.3698 0.8903 0
M  V30 3 O -8.3113 0.2223 -0.6876 0
M  V30 4 N -5.86 -0.037 -1.0452 0
M  V30 5 C -6.9947 -1.2597 1.0559 0
M  V30 6 C -4.4975 0.4737 -0.6895 0 CFG=2
M  V30 7 C -7.8868 -1.2263 2.2938 0
M  V30 8 C -4.4601 1.9736 -0.9514 0
M  V30 9 C -3.4742 -0.2381 -1.5855 0
M  V30 10 C -9.379 -1.3243 1.9739 0
M  V30 11 O -4.9746 2.5384 -1.9069 0
M  V30 12 O -3.7738 2.6668 -0.024 0
M  V30 13 C -2.0407 0.0144 -1.1849 0
M  V30 14 C -10.2117 -1.432 3.2429 0
M  V30 15 C -1.2529 0.9241 -1.8987 0
M  V30 16 C -1.4817 -0.6451 -0.0829 0
M  V30 17 C 0.0675 1.1657 -1.5132 0
M  V30 18 C -0.1579 -0.4 0.3 0
M  V30 19 C 0.6228 0.5074 -0.4144 0
M  V30 20 O 1.9222 0.8384 -0.1482 0
M  V30 21 C 2.5506 0.1804 0.9508 0
M  V30 22 C 3.9909 0.6794 1.0669 0
M  V30 23 C 4.83 0.3217 -0.1651 0
M  V30 24 C 6.2792 0.793 -0.002 0
M  V30 25 C 7.1356 0.5953 -1.2721 0
M  V30 26 C 8.5186 1.2515 -1.1068 0
M  V30 27 C 7.3327 -0.8781 -1.6648 0
M  V30 28 C 9.441 0.4476 -0.1884 0
M  V30 29 C 8.2888 -1.609 -0.7216 0
M  V30 30 N 9.5878 -0.9382 -0.6378 0
M  V30 31 H -6.1795 0.2809 -1.9681 0
M  V30 32 H -7.2468 -2.1016 0.4038 0
M  V30 33 H -5.952 -1.3581 1.3755 0
M  V30 34 H -4.2973 0.2653 0.3675 0
M  V30 35 H -7.6939 -0.3161 2.8741 0
M  V30 36 H -7.6086 -2.0739 2.9326 0
M  V30 37 H -3.6187 0.0522 -2.6353 0
M  V30 38 H -3.649 -1.3225 -1.5604 0
M  V30 39 H -9.7089 -0.4416 1.4172 0
M  V30 40 H -9.5703 -2.2005 1.3439 0
M  V30 41 H -3.8859 3.6054 -0.2827 0
M  V30 42 H -11.2756 -1.4954 2.9937 0
M  V30 43 H -9.9433 -2.3264 3.8142 0
M  V30 44 H -10.0642 -0.5569 3.8841 0
M  V30 45 H -1.6555 1.4551 -2.759 0
M  V30 46 H -2.0705 -1.3592 0.4891 0
M  V30 47 H 0.6705 1.8752 -2.075 0
M  V30 48 H 0.2301 -0.9337 1.1611 0
M  V30 49 H 2.5516 -0.9053 0.7969 0
M  V30 50 H 2.0217 0.4221 1.8806 0
M  V30 51 H 3.9862 1.7695 1.1888 0
M  V30 52 H 4.4483 0.2456 1.9638 0
M  V30 53 H 4.3943 0.7832 -1.0591 0
M  V30 54 H 4.8006 -0.7634 -0.3095 0
M  V30 55 H 6.2701 1.8622 0.2476 0
M  V30 56 H 6.7281 0.2795 0.8555 0
M  V30 57 H 6.62 1.1035 -2.0979 0
M  V30 58 H 8.9889 1.3375 -2.0955 0
M  V30 59 H 8.4151 2.2738 -0.7241 0
M  V30 60 H 6.3774 -1.4101 -1.7107 0
M  V30 61 H 7.7456 -0.9155 -2.6822 0
M  V30 62 H 10.4312 0.9167 -0.1733 0
M  V30 63 H 9.0765 0.4676 0.845 0
M  V30 64 H 7.8523 -1.7069 0.2789 0
M  V30 65 H 8.4468 -2.6292 -1.0891 0
M  V30 66 H 10.0173 -0.9384 -1.5635 0
M  V30 END ATOM
M  V30 BEGIN BOND
M  V30 1 2 1 2
M  V30 2 2 1 3
M  V30 3 1 1 4
M  V30 4 1 1 5
M  V30 5 1 4 6
M  V30 6 1 5 7
M  V30 7 1 6 8
M  V30 8 1 6 9
M  V30 9 1 7 10
M  V30 10 2 8 11
M  V30 11 1 8 12
M  V30 12 1 9 13
M  V30 13 1 10 14
M  V30 14 2 13 15
M  V30 15 1 13 16
M  V30 16 1 15 17
M  V30 17 2 16 18
M  V30 18 2 17 19
M  V30 19 1 19 20
M  V30 20 1 20 21
M  V30 21 1 21 22
M  V30 22 1 22 23
M  V30 23 1 23 24
M  V30 24 1 24 25
M  V30 25 1 25 26
M  V30 26 1 25 27
M  V30 27 1 26 28
M  V30 28 1 27 29
M  V30 29 1 28 30
M  V30 30 1 18 19
M  V30 31 1 29 30
M  V30 32 1 4 31
M  V30 33 1 5 32
M  V30 34 1 5 33
M  V30 35 1 6 34
M  V30 36 1 7 35
M  V30 37 1 7 36
M  V30 38 1 9 37
M  V30 39 1 9 38
M  V30 40 1 10 39
M  V30 41 1 10 40
M  V30 42 1 12 41
M  V30 43 1 14 42
M  V30 44 1 14 43
M  V30 45 1 14 44
M  V30 46 1 15 45
M  V30 47 1 16 46
M  V30 48 1 17 47
M  V30 49 1 18 48
M  V30 50 1 21 49
M  V30 51 1 21 50
M  V30 52 1 22 51
M  V30 53 1 22 52
M  V30 54 1 23 53
M  V30 55 1 23 54
M  V30 56 1 24 55
M  V30 57 1 24 56
M  V30 58 1 25 57
M  V30 59 1 26 58
M  V30 60 1 26 59
M  V30 61 1 27 60
M  V30 62 1 27 61
M  V30 63 1 28 62
M  V30 64 1 28 63
M  V30 65 1 29 64
M  V30 66 1 29 65
M  V30 67 1 30 66
M  V30 END BOND
M  V30 BEGIN COLLECTION
M  V30 MDLV30/STERAC1 ATOMS=(1 6)
M  V30 END COLLECTION
M  V30 END CTAB
M  END
>  <Column 1>
3461

>  <level_0>
5701

>  <index>
5702

>  <Unnamed: 0>
5702

>  <NO.>
5714

>  <Name>
schembl618214

>  <IUPAC_name>
2-(butylsulfonylamino)-3-[4-(4-piperidin-4-ylbutoxy)phenyl]propanoic acid

>  <SMILES>
CCCCS(=O)(=O)NC(Cc1ccc(OCCCCC2CCNCC2)cc1)C(=O)O

>  <CID>
5486

>  <logBB>


>  <BBB+/BBB->
BBB-

>  <Inchi>
InChI=1S/C22H36N2O5S/c1-2-3-16-30(27-28)24-21(22(25)26)17-19-7-9-20(10-8-19)29-15-5-4-6-18-11-13-23-14-12-18/h7-10-18-21-23-24H-2-6-11-17H2-1H3-(H-25-26)

>  <threshold>


>  <reference>
R23|

>  <group>
C

>  <Class>
-1

>  <ABC>
22.42

>  <ABCGG>
16.88

>  <nAcid>
1

>  <nBase>
1

>  <nAromAtom>
6

>  <nAromBond>
6

>  <nAtom>
66

>  <nHeavyAtom>
30

>  <nSpiro>
0

>  <nBridgehead>
0

>  <nHetero>
8

>  <nN>
2

>  <nO>
5

>  <nF>
0

>  <BalabanJ>
1.59

>  <BertzCT>
730.4

>  <nBonds>
67

>  <nBondsO>
31

>  <nBondsS>
58

>  <nBondsD>
3

>  <nBondsT>
0

>  <nBondsA>
6

>  <nBondsM>
9

>  <nBondsKS>
61

>  <nBondsKD>
6

>  <RNCG>
0.18

>  <RPCG>
0.12

>  <FCSP3>
0.68

>  <SZ>
39.67

>  <Sm>
36.68

>  <Sv>
38.03

>  <Sse>
66.04

>  <Sp>
41.83

>  <Si>
75.02

>  <MZ>
0.6

>  <Mm>
0.56

>  <Mv>
0.58

>  <Mse>
1

>  <Mp>
0.63

>  <Mi>
1.14

>  <NsCH3>
1

>  <NdCH2>
0

>  <NssCH2>
12

>  <NtCH>
0

>  <NdsCH>
0

>  <NaaCH>
4

>  <NsssCH>
2

>  <NddC>
0

>  <NtsC>
0

>  <NdssC>
1

>  <NaasC>
2

>  <NaaaC>
0

>  <NssssC>
0

>  <NsNH3>
0

>  <NsNH2>
0

>  <NssNH2>
0

>  <NdNH>
0

>  <NssNH>
2

>  <NaaNH>
0

>  <NtN>
0

>  <NsssNH>
0

>  <NdsN>
0

>  <NaaN>
0

>  <NsssN>
0

>  <NddsN>
0

>  <NaasN>
0

>  <NssssN>
0

>  <NsOH>
1

>  <NdO>
3

>  <NssO>
1

>  <NaaO>
0

>  <NsF>
0

>  <NsSiH3>
0

>  <NssSiH2>
0

>  <NsssSiH>
0

>  <NssssSi>
0

>  <NsPH2>
0

>  <NssPH>
0

>  <NsssP>
0

>  <NdsssP>
0

>  <NsssssP>
0

>  <NsSH>
0

>  <NdS>
0

>  <NssS>
0

>  <NaaS>
0

>  <NdssS>
0

>  <NddssS>
1

>  <NsCl>
0

>  <NsBr>
0

>  <NsI>
0

>  <fragCpx>
91.08

>  <fMF>
0.26

>  <nHBAcc>
5

>  <nHBDon>
3

>  <Kier1>
26.25

>  <Kier2>
14.21

>  <Lipinski>
1

>  <GhoseFilter>
1

>  <FilterItLogS>
-5.65

>  <VMcGowan>
347.58

>  <LabuteASA>
180.19

>  <PEOE_VSA1>
15.16

>  <PEOE_VSA2>
4.79

>  <PEOE_VSA3>
13.14

>  <PEOE_VSA4>
0

>  <PEOE_VSA5>
0

>  <PEOE_VSA6>
31.9

>  <PEOE_VSA7>
75.23

>  <PEOE_VSA8>
0

>  <PEOE_VSA9>
12.36

>  <PEOE_VSA10>
11.79

>  <PEOE_VSA11>
0

>  <PEOE_VSA12>
10.02

>  <PEOE_VSA13>
0

>  <SMR_VSA1>
23.06

>  <SMR_VSA2>
0

>  <SMR_VSA3>
10.04

>  <SMR_VSA4>
5.92

>  <SMR_VSA5>
64.33

>  <SMR_VSA6>
25.45

>  <SMR_VSA7>
29.83

>  <SMR_VSA8>
0

>  <SMR_VSA9>
5.75

>  <SlogP_VSA1>
14.78

>  <SlogP_VSA2>
50.98

>  <SlogP_VSA3>
21.24

>  <SlogP_VSA4>
5.92

>  <SlogP_VSA5>
57.43

>  <SlogP_VSA6>
24.27

>  <SlogP_VSA7>
0

>  <SlogP_VSA8>
0

>  <SlogP_VSA9>
0

>  <SlogP_VSA10>
0

>  <SlogP_VSA11>
5.75

>  <EState_VSA1>
22.03

>  <EState_VSA2>
12.17

>  <EState_VSA3>
13.03

>  <EState_VSA4>
43.16

>  <EState_VSA5>
25.68

>  <EState_VSA6>
12.13

>  <EState_VSA7>
19.06

>  <EState_VSA8>
10.04

>  <EState_VSA9>
4.74

>  <EState_VSA10>
18.32

>  <VSA_EState1>
32.14

>  <VSA_EState2>
11.48

>  <VSA_EState3>
12.77

>  <VSA_EState4>
0.75

>  <VSA_EState5>
0.35

>  <VSA_EState6>
6.04

>  <VSA_EState7>
7.33

>  <VSA_EState8>
4.83

>  <VSA_EState9>
-3.6

>  <apol>
69.85

>  <bpol>
46.52

>  <nRing>
2

>  <nHRing>
1

>  <naRing>
1

>  <naHRing>
0

>  <nARing 2>
1

>  <nAHRing 2>
1

>  <nFRing>
0

>  <nFHRing>
0

>  <nFaRing>
0

>  <nFaHRing>
0

>  <nFARing 2>
0

>  <nFAHRing 2>
0

>  <nRot>
14

>  <SLogP>
2.95

>  <SMR>
118.34

>  <TopoPSA(NO)>
104.73

>  <TopoPSA>
113.11

>  <JGI1>
0.21

>  <JGI2>
0.06

>  <JGI3>
0.04

>  <JGI4>
0.04

>  <JGI5>
0.02

>  <Diameter>
20

>  <Radius>
10

>  <TMWC10>
134.88

>  <TSRW10>
64.67

>  <MW>
440.23

>  <AMW>
6.67

>  <WPath>
3235

>  <WPol>
38

>  <Zagreb1>
142

>  <Zagreb2>
155

>  <mZagreb2>
6.86

>  <yes>


>  <nAR-cont>
0.816016

>  <nHA-cont>
0.74523694

>  <MWHBN>
0.381285395

>  <MWHBN-cont>
0.549759355

>  <TPSA-cont>
0.210421963

>  <pka_cont>
0.97

>  <yes.1>


>  <BBB_SCORE>
3.291735898

>  <MMFF94 Energy>
-35.228

$$$$
Compound 2747
Actelion Java MolfileCreator 2.0

  0  0  0  0  0  0              0 V3000
M  V30 BEGIN CTAB
M  V30 COUNTS 67 70 0 0 0
M  V30 BEGIN ATOM
M  V30 1 S -1.9177 -2.7176 5.2004 0
M  V30 2 C -1.2869 -1.6235 4.0701 0
M  V30 3 N -2.0459 -1.0325 3.0587 0
M  V30 4 C 0.2002 -1.2302 4.221 0
M  V30 5 C -3.3378 -1.5638 2.6251 0
M  V30 6 C -1.654 0.1985 2.3764 0
M  V30 7 C 1.0175 -1.4369 2.9677 0
M  V30 8 C 1.6731 -0.2321 2.3958 0
M  V30 9 C 1.2362 -2.5948 2.3213 0
M  V30 10 O 1.7281 0.8043 3.058 0
M  V30 11 N 2.2076 -0.3551 1.126 0
M  V30 12 N 1.9488 -2.6878 1.1563 0
M  V30 13 C 0.7376 -3.9261 2.8183 0
M  V30 14 C 2.3807 -1.6094 0.5869 0
M  V30 15 C 2.6578 0.8833 0.4854 0
M  V30 16 C 3.1504 -1.7507 -0.7237 0
M  V30 17 C 1.5131 1.6684 -0.129 0
M  V30 18 C 3.2533 -3.186 -1.2438 0
M  V30 19 C 1.101 1.4419 -1.4477 0
M  V30 20 C 0.8305 2.6339 0.6251 0
M  V30 21 C 4.0252 -3.2444 -2.5618 0
M  V30 22 C 0.0351 2.1631 -1.997 0
M  V30 23 C -0.2374 3.3505 0.077 0
M  V30 24 C 4.1303 -4.6687 -3.0829 0
M  V30 25 C -0.6528 3.1238 -1.2416 0
M  V30 26 C -1.7601 3.898 -1.8283 0
M  V30 27 C -3.0127 3.3388 -2.1735 0
M  V30 28 C -1.5404 5.2665 -2.0961 0
M  V30 29 C -3.3561 1.946 -1.9049 0
M  V30 30 C -3.9847 4.1527 -2.7907 0
M  V30 31 C -2.519 6.0601 -2.6963 0
M  V30 32 N -2.9544 1.262 -0.7798 0
M  V30 33 N -4.1445 1.1973 -2.7005 0
M  V30 34 C -3.7408 5.5019 -3.0483 0
M  V30 35 N -3.4714 0.0447 -0.863 0
M  V30 36 N -4.1562 0.0492 -2.0099 0
M  V30 37 H 0.2167 -0.1888 4.5622 0
M  V30 38 H 0.6753 -1.7974 5.0322 0
M  V30 39 H -3.4922 -2.5991 2.9344 0
M  V30 40 H -4.131 -0.936 3.0418 0
M  V30 41 H -3.3844 -1.5338 1.5328 0
M  V30 42 H -0.9405 0.7754 2.9641 0
M  V30 43 H -1.224 -0.0613 1.4056 0
M  V30 44 H -2.539 0.8248 2.2249 0
M  V30 45 H 0.6663 -3.9621 3.9081 0
M  V30 46 H 1.43 -4.7267 2.5328 0
M  V30 47 H -0.2392 -4.1542 2.3807 0
M  V30 48 H 3.1649 1.5117 1.2292 0
M  V30 49 H 3.4079 0.6883 -0.2856 0
M  V30 50 H 4.16 -1.353 -0.5659 0
M  V30 51 H 2.6617 -1.1344 -1.4822 0
M  V30 52 H 2.2477 -3.6002 -1.3891 0
M  V30 53 H 3.7538 -3.8162 -0.4982 0
M  V30 54 H 1.6037 0.7099 -2.0725 0
M  V30 55 H 1.1213 2.8356 1.6552 0
M  V30 56 H 3.5258 -2.6224 -3.3139 0
M  V30 57 H 5.0333 -2.8374 -2.4214 0
M  V30 58 H -0.2567 1.9703 -3.0278 0
M  V30 59 H -0.7503 4.0869 0.6929 0
M  V30 60 H 4.6857 -4.6873 -4.0258 0
M  V30 61 H 4.654 -5.3106 -2.3673 0
M  V30 62 H 3.1381 -5.0942 -3.2645 0
M  V30 63 H -0.5819 5.7196 -1.8454 0
M  V30 64 H -4.951 3.7333 -3.068 0
M  V30 65 H -2.3208 7.1105 -2.8945 0
M  V30 66 H -4.5057 6.1126 -3.5211 0
M  V30 67 H -4.6595 -0.772 -2.3335 0
M  V30 END ATOM
M  V30 BEGIN BOND
M  V30 1 2 1 2
M  V30 2 1 2 3
M  V30 3 1 2 4
M  V30 4 1 3 5
M  V30 5 1 3 6
M  V30 6 1 4 7
M  V30 7 1 7 8
M  V30 8 2 7 9
M  V30 9 2 8 10
M  V30 10 1 8 11
M  V30 11 1 9 12
M  V30 12 1 9 13
M  V30 13 1 11 14
M  V30 14 1 11 15
M  V30 15 1 14 16
M  V30 16 1 15 17
M  V30 17 1 16 18
M  V30 18 2 17 19
M  V30 19 1 17 20
M  V30 20 1 18 21
M  V30 21 1 19 22
M  V30 22 2 20 23
M  V30 23 1 21 24
M  V30 24 2 22 25
M  V30 25 1 25 26
M  V30 26 2 26 27
M  V30 27 1 26 28
M  V30 28 1 27 29
M  V30 29 1 27 30
M  V30 30 2 28 31
M  V30 31 1 29 32
M  V30 32 2 29 33
M  V30 33 2 30 34
M  V30 34 2 32 35
M  V30 35 1 33 36
M  V30 36 2 12 14
M  V30 37 1 23 25
M  V30 38 1 31 34
M  V30 39 1 35 36
M  V30 40 1 4 37
M  V30 41 1 4 38
M  V30 42 1 5 39
M  V30 43 1 5 40
M  V30 44 1 5 41
M  V30 45 1 6 42
M  V30 46 1 6 43
M  V30 47 1 6 44
M  V30 48 1 13 45
M  V30 49 1 13 46
M  V30 50 1 13 47
M  V30 51 1 15 48
M  V30 52 1 15 49
M  V30 53 1 16 50
M  V30 54 1 16 51
M  V30 55 1 18 52
M  V30 56 1 18 53
M  V30 57 1 19 54
M  V30 58 1 20 55
M  V30 59 1 21 56
M  V30 60 1 21 57
M  V30 61 1 22 58
M  V30 62 1 23 59
M  V30 63 1 24 60
M  V30 64 1 24 61
M  V30 65 1 24 62
M  V30 66 1 28 63
M  V30 67 1 30 64
M  V30 68 1 31 65
M  V30 69 1 34 66
M  V30 70 1 36 67
M  V30 END BOND
M  V30 END CTAB
M  END
>  <Column 1>
3463

>  <level_0>
5703

>  <index>
5704

>  <Unnamed: 0>
5704

>  <NO.>
5716

>  <Name>
fimasartan

>  <IUPAC_name>
2-[2-butyl-4-methyl-6-oxo-1-[[4-[2-(2h-tetrazol-5-yl)phenyl]phenyl]methyl]pyrimidin-5-yl]-n-n-dimethylethanethioamide

>  <SMILES>
CCCCc1nc(C)c(CC(=S)N(C)C)c(=O)n1Cc1ccc(-c2ccccc2-c2nn[nH]n2)cc1

>  <CID>
9870652

>  <logBB>


>  <BBB+/BBB->
BBB-

>  <Inchi>
InChI=1S/C27H31N7OS/c1-5-6-11-24-28-18(2)23(16-25(36)33(3)4)27(35)34(24)17-19-12-14-20(15-13-19)21-9-7-8-10-22(21)26-29-31-32-30-26/h7-10-12-15H-5-6-11-16-17H2-1-4H3-(H-29-30-31-32)

>  <threshold>


>  <reference>
R23|

>  <group>
C

>  <Class>
-1

>  <ABC>
27.8

>  <ABCGG>
21.54

>  <nAcid>
2

>  <nBase>
0

>  <nAromAtom>
23

>  <nAromBond>
23

>  <nAtom>
67

>  <nHeavyAtom>
36

>  <nSpiro>
0

>  <nBridgehead>
0

>  <nHetero>
9

>  <nN>
7

>  <nO>
1

>  <nF>
0

>  <BalabanJ>
1.36

>  <BertzCT>
1392.9

>  <nBonds>
70

>  <nBondsO>
39

>  <nBondsS>
45

>  <nBondsD>
2

>  <nBondsT>
0

>  <nBondsA>
23

>  <nBondsM>
25

>  <nBondsKS>
58

>  <nBondsKD>
12

>  <RNCG>
0.16

>  <RPCG>
0.11

>  <FCSP3>
0.33

>  <SZ>
44.33

>  <Sm>
41.77

>  <Sv>
42.61

>  <Sse>
66.81

>  <Sp>
46.21

>  <Si>
75.6

>  <MZ>
0.66

>  <Mm>
0.62

>  <Mv>
0.64

>  <Mse>
1

>  <Mp>
0.69

>  <Mi>
1.13

>  <NsCH3>
4

>  <NdCH2>
0

>  <NssCH2>
5

>  <NtCH>
0

>  <NdsCH>
0

>  <NaaCH>
8

>  <NsssCH>
0

>  <NddC>
0

>  <NtsC>
0

>  <NdssC>
1

>  <NaasC>
8

>  <NaaaC>
0

>  <NssssC>
0

>  <NsNH3>
0

>  <NsNH2>
0

>  <NssNH2>
0

>  <NdNH>
0

>  <NssNH>
0

>  <NaaNH>
1

>  <NtN>
0

>  <NsssNH>
0

>  <NdsN>
0

>  <NaaN>
4

>  <NsssN>
1

>  <NddsN>
0

>  <NaasN>
1

>  <NssssN>
0

>  <NsOH>
0

>  <NdO>
1

>  <NssO>
0

>  <NaaO>
0

>  <NsF>
0

>  <NsSiH3>
0

>  <NssSiH2>
0

>  <NsssSiH>
0

>  <NssssSi>
0

>  <NsPH2>
0

>  <NssPH>
0

>  <NsssP>
0

>  <NdsssP>
0

>  <NsssssP>
0

>  <NsSH>
0

>  <NdS>
1

>  <NssS>
0

>  <NaaS>
0

>  <NdssS>
0

>  <NddssS>
0

>  <NsCl>
0

>  <NsBr>
0

>  <NsI>
0

>  <fragCpx>
261.09

>  <fMF>
0.36

>  <nHBAcc>
7

>  <nHBDon>
1

>  <Kier1>
28.99

>  <Kier2>
13.88

>  <Lipinski>
0

>  <GhoseFilter>
0

>  <FilterItLogS>
-8.05

>  <VMcGowan>
388.33

>  <LabuteASA>
215.95

>  <PEOE_VSA1>
4.9

>  <PEOE_VSA2>
9.36

>  <PEOE_VSA3>
4.98

>  <PEOE_VSA4>
5.21

>  <PEOE_VSA5>
10.2

>  <PEOE_VSA6>
74.09

>  <PEOE_VSA7>
35.25

>  <PEOE_VSA8>
43.76

>  <PEOE_VSA9>
11.53

>  <PEOE_VSA10>
5.82

>  <PEOE_VSA11>
0

>  <PEOE_VSA12>
5.82

>  <PEOE_VSA13>
5.56

>  <SMR_VSA1>
0

>  <SMR_VSA2>
0

>  <SMR_VSA3>
35.08

>  <SMR_VSA4>
0

>  <SMR_VSA5>
46.08

>  <SMR_VSA6>
14.1

>  <SMR_VSA7>
81.53

>  <SMR_VSA8>
0

>  <SMR_VSA9>
22.51

>  <SlogP_VSA1>
5.56

>  <SlogP_VSA2>
54.16

>  <SlogP_VSA3>
19.39

>  <SlogP_VSA4>
6.92

>  <SlogP_VSA5>
42.41

>  <SlogP_VSA6>
53.33

>  <SlogP_VSA7>
0

>  <SlogP_VSA8>
22.51

>  <SlogP_VSA9>
0

>  <SlogP_VSA10>
0

>  <SlogP_VSA11>
0

>  <EState_VSA1>
0

>  <EState_VSA2>
5.56

>  <EState_VSA3>
24.35

>  <EState_VSA4>
58.02

>  <EState_VSA5>
0

>  <EState_VSA6>
0

>  <EState_VSA7>
54.75

>  <EState_VSA8>
51.81

>  <EState_VSA9>
17.2

>  <EState_VSA10>
4.79

>  <VSA_EState1>
1.82

>  <VSA_EState2>
21.06

>  <VSA_EState3>
14.47

>  <VSA_EState4>
5.41

>  <VSA_EState5>
1.38

>  <VSA_EState6>
16.21

>  <VSA_EState7>
3.2

>  <VSA_EState8>
4.51

>  <VSA_EState9>
3.8

>  <apol>
77.16

>  <bpol>
38.33

>  <nRing>
4

>  <nHRing>
2

>  <naRing>
4

>  <naHRing>
2

>  <nARing 2>
0

>  <nAHRing 2>
0

>  <nFRing>
0

>  <nFHRing>
0

>  <nFaRing>
0

>  <nFaHRing>
0

>  <nFARing 2>
0

>  <nFAHRing 2>
0

>  <nRot>
9

>  <SLogP>
4.22

>  <SMR>
145.99

>  <TopoPSA(NO)>
92.59

>  <TopoPSA>
124.68

>  <JGI1>
0.17

>  <JGI2>
0.08

>  <JGI3>
0.04

>  <JGI4>
0.04

>  <JGI5>
0.02

>  <Diameter>
16

>  <Radius>
8

>  <TMWC10>
153.63

>  <TSRW10>
85.67

>  <MW>
501.23

>  <AMW>
7.48

>  <WPath>
4322

>  <WPol>
58

>  <Zagreb1>
186

>  <Zagreb2>
219

>  <mZagreb2>
8.06

>  <yes>


>  <nAR-cont>
0.336376

>  <nHA-cont>
0.477843619

>  <MWHBN>
0.357331628

>  <MWHBN-cont>
0.642595694

>  <TPSA-cont>
0

>  <pka_cont>
0.97

>  <yes.1>


>  <BBB_SCORE>
2.263113159

>  <MMFF94 Energy>
40.612

$$$$
Compound 2748
Actelion Java MolfileCreator 2.0

  0  0  0  0  0  0              0 V3000
M  V30 BEGIN CTAB
M  V30 COUNTS 59 62 0 0 0
M  V30 BEGIN ATOM
M  V30 1 N -0.5557 -2.2244 0.9528 0
M  V30 2 C 0.1808 -2.1995 2.0916 0
M  V30 3 C -1.1051 -1.0642 0.5277 0
M  V30 4 C 0.7901 -3.4841 2.4842 0
M  V30 5 C 0.4086 -1.0153 2.7907 0
M  V30 6 C -0.939 0.1592 1.1685 0
M  V30 7 C 0.6714 -4.0653 3.7686 0
M  V30 8 C 1.5736 -4.1623 1.5228 0
M  V30 9 C -0.1649 0.1691 2.3307 0
M  V30 10 C -1.5938 1.409 0.6519 0
M  V30 11 C -0.1644 -3.5091 4.8257 0
M  V30 12 C 1.366 -5.2588 4.059 0
M  V30 13 C 2.2434 -5.3501 1.8212 0
M  V30 14 N -1.2169 1.7026 -0.7204 0
M  V30 15 N 0.2134 -3.5304 6.1512 0
M  V30 16 N -1.3835 -2.9699 4.6551 0
M  V30 17 C 2.1465 -5.8945 3.0941 0
M  V30 18 N -2.0405 1.3548 -1.731 0
M  V30 19 C -0.106 2.3546 -1.1915 0
M  V30 20 N -0.7788 -2.9888 6.8432 0
M  V30 21 N -1.7025 -2.6889 5.9245 0
M  V30 22 C -1.3681 1.8051 -2.7956 0
M  V30 23 N -0.1852 2.4288 -2.5045 0
M  V30 24 C 1.0018 2.8851 -0.3482 0
M  V30 25 C -1.8576 1.6414 -4.1877 0
M  V30 26 C 0.749 4.3412 0.0481 0
M  V30 27 C -1.3424 0.3509 -4.8268 0
M  V30 28 C 1.7953 4.8933 1.0186 0
M  V30 29 C -1.8478 0.1996 -6.2612 0
M  V30 30 C 3.1912 4.98 0.4214 0
M  V30 31 C -1.3374 -1.0823 -6.8993 0
M  V30 32 H -1.7017 -1.1561 -0.3783 0
M  V30 33 H 1.0274 -1.0074 3.6826 0
M  V30 34 H 1.6653 -3.7466 0.5191 0
M  V30 35 H 0.0035 1.0884 2.8861 0
M  V30 36 H -1.3278 2.2831 1.2563 0
M  V30 37 H -2.6847 1.3063 0.6938 0
M  V30 38 H 1.2847 -5.713 5.046 0
M  V30 39 H 2.8387 -5.8434 1.0573 0
M  V30 40 H 2.6657 -6.8186 3.3347 0
M  V30 41 H -2.5937 -2.272 6.1788 0
M  V30 42 H 1.9324 2.8103 -0.9226 0
M  V30 43 H 1.1384 2.2674 0.545 0
M  V30 44 H -1.5341 2.5041 -4.7829 0
M  V30 45 H -2.9546 1.6484 -4.1949 0
M  V30 46 H -0.236 4.4271 0.5244 0
M  V30 47 H 0.7111 4.9709 -0.85 0
M  V30 48 H -1.6636 -0.5125 -4.2301 0
M  V30 49 H -0.2449 0.3467 -4.8204 0
M  V30 50 H 1.4856 5.8988 1.328 0
M  V30 51 H 1.8239 4.278 1.9255 0
M  V30 52 H -2.944 0.1946 -6.2712 0
M  V30 53 H -1.5215 1.0556 -6.8632 0
M  V30 54 H 3.8712 5.4694 1.1262 0
M  V30 55 H 3.5973 3.9876 0.2053 0
M  V30 56 H 3.1869 5.5627 -0.5051 0
M  V30 57 H -1.7108 -1.1702 -7.9243 0
M  V30 58 H -0.2434 -1.0946 -6.934 0
M  V30 59 H -1.6737 -1.9604 -6.3387 0
M  V30 END ATOM
M  V30 BEGIN BOND
M  V30 1 2 1 2
M  V30 2 1 1 3
M  V30 3 1 2 4
M  V30 4 1 2 5
M  V30 5 2 3 6
M  V30 6 2 4 7
M  V30 7 1 4 8
M  V30 8 2 5 9
M  V30 9 1 6 10
M  V30 10 1 7 11
M  V30 11 1 7 12
M  V30 12 2 8 13
M  V30 13 1 10 14
M  V30 14 1 11 15
M  V30 15 2 11 16
M  V30 16 2 12 17
M  V30 17 1 14 18
M  V30 18 1 14 19
M  V30 19 2 15 20
M  V30 20 1 16 21
M  V30 21 2 18 22
M  V30 22 2 19 23
M  V30 23 1 19 24
M  V30 24 1 22 25
M  V30 25 1 24 26
M  V30 26 1 25 27
M  V30 27 1 26 28
M  V30 28 1 27 29
M  V30 29 1 28 30
M  V30 30 1 29 31
M  V30 31 1 6 9
M  V30 32 1 13 17
M  V30 33 1 20 21
M  V30 34 1 22 23
M  V30 35 1 3 32
M  V30 36 1 5 33
M  V30 37 1 8 34
M  V30 38 1 9 35
M  V30 39 1 10 36
M  V30 40 1 10 37
M  V30 41 1 12 38
M  V30 42 1 13 39
M  V30 43 1 17 40
M  V30 44 1 21 41
M  V30 45 1 24 42
M  V30 46 1 24 43
M  V30 47 1 25 44
M  V30 48 1 25 45
M  V30 49 1 26 46
M  V30 50 1 26 47
M  V30 51 1 27 48
M  V30 52 1 27 49
M  V30 53 1 28 50
M  V30 54 1 28 51
M  V30 55 1 29 52
M  V30 56 1 29 53
M  V30 57 1 30 54
M  V30 58 1 30 55
M  V30 59 1 30 56
M  V30 60 1 31 57
M  V30 61 1 31 58
M  V30 62 1 31 59
M  V30 END BOND
M  V30 END CTAB
M  END
>  <Column 1>
3464

>  <level_0>
5704

>  <index>
5705

>  <Unnamed: 0>
5705

>  <NO.>
5717

>  <Name>
forasartan

>  <IUPAC_name>
5-[(3-5-dibutyl-1-2-4-triazol-1-yl)methyl]-2-[2-(2h-tetrazol-5-yl)phenyl]pyridine

>  <SMILES>
CCCCc1nc(CCCC)n(Cc2ccc(-c3ccccc3-c3nn[nH]n3)nc2)n1

>  <CID>
132706

>  <logBB>


>  <BBB+/BBB->
BBB-

>  <Inchi>
InChI=1S/C23H28N8/c1-3-5-11-21-25-22(12-6-4-2)31(28-21)16-17-13-14-20(24-15-17)18-9-7-8-10-19(18)23-26-29-30-27-23/h7-10-13-15H-3-6-11-12-16H2-1-2H3-(H-26-27-29-30)

>  <threshold>


>  <reference>
R23|

>  <group>
C

>  <Class>
-1

>  <ABC>
23.88

>  <ABCGG>
18.21

>  <nAcid>
2

>  <nBase>
0

>  <nAromAtom>
22

>  <nAromBond>
22

>  <nAtom>
59

>  <nHeavyAtom>
31

>  <nSpiro>
0

>  <nBridgehead>
0

>  <nHetero>
8

>  <nN>
8

>  <nO>
0

>  <nF>
0

>  <BalabanJ>
1.26

>  <BertzCT>
1083.23

>  <nBonds>
62

>  <nBondsO>
34

>  <nBondsS>
40

>  <nBondsD>
0

>  <nBondsT>
0

>  <nBondsA>
22

>  <nBondsM>
22

>  <nBondsKS>
52

>  <nBondsKD>
10

>  <RNCG>
0.13

>  <RPCG>
0.11

>  <FCSP3>
0.39

>  <SZ>
37

>  <Sm>
34.68

>  <Sv>
36.65

>  <Sse>
58.73

>  <Sp>
39.45

>  <Si>
67.14

>  <MZ>
0.63

>  <Mm>
0.59

>  <Mv>
0.62

>  <Mse>
1

>  <Mp>
0.67

>  <Mi>
1.14

>  <NsCH3>
2

>  <NdCH2>
0

>  <NssCH2>
7

>  <NtCH>
0

>  <NdsCH>
0

>  <NaaCH>
7

>  <NsssCH>
0

>  <NddC>
0

>  <NtsC>
0

>  <NdssC>
0

>  <NaasC>
7

>  <NaaaC>
0

>  <NssssC>
0

>  <NsNH3>
0

>  <NsNH2>
0

>  <NssNH2>
0

>  <NdNH>
0

>  <NssNH>
0

>  <NaaNH>
1

>  <NtN>
0

>  <NsssNH>
0

>  <NdsN>
0

>  <NaaN>
6

>  <NsssN>
0

>  <NddsN>
0

>  <NaasN>
1

>  <NssssN>
0

>  <NsOH>
0

>  <NdO>
0

>  <NssO>
0

>  <NaaO>
0

>  <NsF>
0

>  <NsSiH3>
0

>  <NssSiH2>
0

>  <NsssSiH>
0

>  <NssssSi>
0

>  <NsPH2>
0

>  <NssPH>
0

>  <NsssP>
0

>  <NdsssP>
0

>  <NsssssP>
0

>  <NsSH>
0

>  <NdS>
0

>  <NssS>
0

>  <NaaS>
0

>  <NdssS>
0

>  <NddssS>
0

>  <NsCl>
0

>  <NsBr>
0

>  <NsI>
0

>  <fragCpx>
226.08

>  <fMF>
0.39

>  <nHBAcc>
7

>  <nHBDon>
1

>  <Kier1>
24.13

>  <Kier2>
12.46

>  <Lipinski>
1

>  <GhoseFilter>
1

>  <FilterItLogS>
-7.77

>  <VMcGowan>
328.33

>  <LabuteASA>
181.71

>  <PEOE_VSA1>
0

>  <PEOE_VSA2>
4.98

>  <PEOE_VSA3>
9.67

>  <PEOE_VSA4>
10.31

>  <PEOE_VSA5>
10.2

>  <PEOE_VSA6>
57.02

>  <PEOE_VSA7>
29.68

>  <PEOE_VSA8>
30.17

>  <PEOE_VSA9>
12.24

>  <PEOE_VSA10>
5.82

>  <PEOE_VSA11>
5.82

>  <PEOE_VSA12>
5.82

>  <PEOE_VSA13>
0

>  <SMR_VSA1>
0

>  <SMR_VSA2>
0

>  <SMR_VSA3>
40.37

>  <SMR_VSA4>
0

>  <SMR_VSA5>
58.92

>  <SMR_VSA6>
0

>  <SMR_VSA7>
59.81

>  <SMR_VSA8>
0

>  <SMR_VSA9>
22.65

>  <SlogP_VSA1>
0

>  <SlogP_VSA2>
40.37

>  <SlogP_VSA3>
19.39

>  <SlogP_VSA4>
0

>  <SlogP_VSA5>
56.74

>  <SlogP_VSA6>
42.6

>  <SlogP_VSA7>
0

>  <SlogP_VSA8>
22.65

>  <SlogP_VSA9>
0

>  <SlogP_VSA10>
0

>  <SlogP_VSA11>
0

>  <EState_VSA1>
0

>  <EState_VSA2>
0

>  <EState_VSA3>
12.37

>  <EState_VSA4>
72.56

>  <EState_VSA5>
0

>  <EState_VSA6>
0

>  <EState_VSA7>
41.21

>  <EState_VSA8>
40.54

>  <EState_VSA9>
15.07

>  <EState_VSA10>
0

>  <VSA_EState1>
2.05

>  <VSA_EState2>
9.51

>  <VSA_EState3>
19.18

>  <VSA_EState4>
3.85

>  <VSA_EState5>
2.58

>  <VSA_EState6>
12.09

>  <VSA_EState7>
8.34

>  <VSA_EState8>
5.07

>  <VSA_EState9>
0

>  <apol>
65.88

>  <bpol>
32.65

>  <nRing>
4

>  <nHRing>
3

>  <naRing>
4

>  <naHRing>
3

>  <nARing 2>
0

>  <nAHRing 2>
0

>  <nFRing>
0

>  <nFHRing>
0

>  <nFaRing>
0

>  <nFaHRing>
0

>  <nFARing 2>
0

>  <nFAHRing 2>
0

>  <nRot>
10

>  <SLogP>
4.25

>  <SMR>
119.19

>  <TopoPSA(NO)>
98.06

>  <TopoPSA>
98.06

>  <JGI1>
0.13

>  <JGI2>
0.06

>  <JGI3>
0.04

>  <JGI4>
0.03

>  <JGI5>
0.02

>  <Diameter>
16

>  <Radius>
8

>  <TMWC10>
141.78

>  <TSRW10>
82.09

>  <MW>
416.24

>  <AMW>
7.05

>  <WPath>
3038

>  <WPol>
44

>  <Zagreb1>
158

>  <Zagreb2>
184

>  <mZagreb2>
7.11

>  <yes>


>  <nAR-cont>
0.336376

>  <nHA-cont>
0.702745138

>  <MWHBN>
0.392119175

>  <MWHBN-cont>
0.507110595

>  <TPSA-cont>
0.315480308

>  <pka_cont>
0.97

>  <yes.1>


>  <BBB_SCORE>
2.915747647

>  <MMFF94 Energy>
80.299

$$$$
Compound 2749
Actelion Java MolfileCreator 2.0

  0  0  0  0  0  0              0 V3000
M  V30 BEGIN CTAB
M  V30 COUNTS 47 49 0 0 0
M  V30 BEGIN ATOM
M  V30 1 S 3.527 0.0 2.9652 0
M  V30 2 C 3.4649 -0.9815 1.5621 0
M  V30 3 C 4.7501 -0.9682 3.6643 0
M  V30 4 C 4.367 -2.0245 1.6323 0
M  V30 5 C 2.5088 -0.6542 0.4477 0
M  V30 6 C 5.1087 -2.0173 2.8484 0
M  V30 7 C 1.1233 -1.2812 0.6942 0
M  V30 8 N 0.1937 -1.1366 -0.4509 0
M  V30 9 C -0.2738 0.2652 -0.6276 0 CFG=2
M  V30 10 C -0.9047 -2.1171 -0.3599 0
M  V30 11 C -1.3072 0.767 0.4064 0
M  V30 12 C -0.8317 0.4826 -2.0453 0
M  V30 13 C -0.4653 -3.502 -0.8555 0
M  V30 14 C -1.8489 2.1439 0.0917 0
M  V30 15 C -1.0385 1.9741 -2.3127 0
M  V30 16 C -1.6217 -4.4912 -0.823 0
M  V30 17 C -1.7545 2.6991 -1.1984 0
M  V30 18 C -2.5074 2.8575 1.1066 0
M  V30 19 C -2.2868 3.9766 -1.4239 0
M  V30 20 C -3.0426 4.1203 0.8569 0
M  V30 21 O -2.1621 4.5298 -2.6684 0
M  V30 22 C -2.9299 4.685 -0.4102 0
M  V30 23 H 5.1482 -0.7204 4.6386 0
M  V30 24 H 4.4894 -2.7602 0.8463 0
M  V30 25 H 2.92 -1.0364 -0.4955 0
M  V30 26 H 2.441 0.4338 0.3402 0
M  V30 27 H 5.868 -2.7436 3.1104 0
M  V30 28 H 1.2922 -2.3455 0.8974 0
M  V30 29 H 0.6777 -0.878 1.612 0
M  V30 30 H 0.6015 0.9228 -0.5637 0
M  V30 31 H -1.7496 -1.8155 -0.9879 0
M  V30 32 H -1.2902 -2.1817 0.6658 0
M  V30 33 H -2.1681 0.0898 0.4564 0
M  V30 34 H -0.8436 0.7882 1.3997 0
M  V30 35 H -1.7904 -0.0341 -2.1737 0
M  V30 36 H -0.145 0.0785 -2.7991 0
M  V30 37 H -0.0907 -3.4259 -1.8835 0
M  V30 38 H 0.3491 -3.9031 -0.2441 0
M  V30 39 H -0.0619 2.4531 -2.4569 0
M  V30 40 H -1.5992 2.0764 -3.2495 0
M  V30 41 H -1.2918 -5.4711 -1.1815 0
M  V30 42 H -2.0044 -4.6126 0.1953 0
M  V30 43 H -2.4443 -4.1556 -1.4624 0
M  V30 44 H -2.6038 2.4286 2.102 0
M  V30 45 H -3.5452 4.6634 1.6529 0
M  V30 46 H -2.5726 5.4094 -2.6602 0
M  V30 47 H -3.3453 5.6715 -0.5884 0
M  V30 END ATOM
M  V30 BEGIN BOND
M  V30 1 1 1 2
M  V30 2 1 1 3
M  V30 3 2 2 4
M  V30 4 1 2 5
M  V30 5 2 3 6
M  V30 6 1 5 7
M  V30 7 1 7 8
M  V30 8 1 8 9
M  V30 9 1 8 10
M  V30 10 1 9 11
M  V30 11 1 9 12
M  V30 12 1 10 13
M  V30 13 1 11 14
M  V30 14 1 12 15
M  V30 15 1 13 16
M  V30 16 2 14 17
M  V30 17 1 14 18
M  V30 18 1 17 19
M  V30 19 2 18 20
M  V30 20 1 19 21
M  V30 21 2 19 22
M  V30 22 1 4 6
M  V30 23 1 15 17
M  V30 24 1 20 22
M  V30 25 1 3 23
M  V30 26 1 4 24
M  V30 27 1 5 25
M  V30 28 1 5 26
M  V30 29 1 6 27
M  V30 30 1 7 28
M  V30 31 1 7 29
M  V30 32 1 9 30
M  V30 33 1 10 31
M  V30 34 1 10 32
M  V30 35 1 11 33
M  V30 36 1 11 34
M  V30 37 1 12 35
M  V30 38 1 12 36
M  V30 39 1 13 37
M  V30 40 1 13 38
M  V30 41 1 15 39
M  V30 42 1 15 40
M  V30 43 1 16 41
M  V30 44 1 16 42
M  V30 45 1 16 43
M  V30 46 1 18 44
M  V30 47 1 20 45
M  V30 48 1 21 46
M  V30 49 1 22 47
M  V30 END BOND
M  V30 BEGIN COLLECTION
M  V30 MDLV30/STERAC1 ATOMS=(1 9)
M  V30 END COLLECTION
M  V30 END CTAB
M  END
>  <Column 1>
3466

>  <level_0>
5707

>  <index>
5708

>  <Unnamed: 0>
5708

>  <NO.>
5720

>  <Name>
ent-rotigotine

>  <IUPAC_name>
6-[propyl(2-thiophen-2-ylethyl)amino]-5-6-7-8-tetrahydronaphthalen-1-ol

>  <SMILES>
CCCN(CCc1cccs1)C1CCc2c(O)cccc2C1

>  <CID>
57537

>  <logBB>


>  <BBB+/BBB->
BBB+

>  <Inchi>
InChI=1S/C19H25NOS/c1-2-11-20(12-10-17-6-4-13-22-17)16-8-9-18-15(14-16)5-3-7-19(18)21/h3-7-13-16-21H-2-8-12-14H2-1H3

>  <threshold>


>  <reference>
R23|

>  <group>
C

>  <Class>
-1

>  <ABC>
16.96

>  <ABCGG>
13.87

>  <nAcid>
0

>  <nBase>
1

>  <nAromAtom>
11

>  <nAromBond>
11

>  <nAtom>
47

>  <nHeavyAtom>
22

>  <nSpiro>
0

>  <nBridgehead>
0

>  <nHetero>
3

>  <nN>
1

>  <nO>
1

>  <nF>
0

>  <BalabanJ>
1.52

>  <BertzCT>
593.49

>  <nBonds>
49

>  <nBondsO>
24

>  <nBondsS>
38

>  <nBondsD>
0

>  <nBondsT>
0

>  <nBondsA>
11

>  <nBondsM>
11

>  <nBondsKS>
44

>  <nBondsKD>
5

>  <RNCG>
0.36

>  <RPCG>
0.21

>  <FCSP3>
0.47

>  <SZ>
28.33

>  <Sm>
26.27

>  <Sv>
28.43

>  <Sse>
46.17

>  <Sp>
31.86

>  <Si>
52.61

>  <MZ>
0.6

>  <Mm>
0.56

>  <Mv>
0.6

>  <Mse>
0.98

>  <Mp>
0.68

>  <Mi>
1.12

>  <NsCH3>
1

>  <NdCH2>
0

>  <NssCH2>
7

>  <NtCH>
0

>  <NdsCH>
0

>  <NaaCH>
6

>  <NsssCH>
1

>  <NddC>
0

>  <NtsC>
0

>  <NdssC>
0

>  <NaasC>
4

>  <NaaaC>
0

>  <NssssC>
0

>  <NsNH3>
0

>  <NsNH2>
0

>  <NssNH2>
0

>  <NdNH>
0

>  <NssNH>
0

>  <NaaNH>
0

>  <NtN>
0

>  <NsssNH>
0

>  <NdsN>
0

>  <NaaN>
0

>  <NsssN>
1

>  <NddsN>
0

>  <NaasN>
0

>  <NssssN>
0

>  <NsOH>
1

>  <NdO>
0

>  <NssO>
0

>  <NaaO>
0

>  <NsF>
0

>  <NsSiH3>
0

>  <NssSiH2>
0

>  <NsssSiH>
0

>  <NssssSi>
0

>  <NsPH2>
0

>  <NssPH>
0

>  <NsssP>
0

>  <NdsssP>
0

>  <NsssssP>
0

>  <NsSH>
0

>  <NdS>
0

>  <NssS>
0

>  <NaaS>
1

>  <NdssS>
0

>  <NddssS>
0

>  <NsCl>
0

>  <NsBr>
0

>  <NsI>
0

>  <fragCpx>
114.03

>  <fMF>
0.38

>  <nHBAcc>
3

>  <nHBDon>
1

>  <Kier1>
16.84

>  <Kier2>
8.2

>  <Lipinski>
1

>  <GhoseFilter>
1

>  <FilterItLogS>
-4.9

>  <VMcGowan>
256.69

>  <LabuteASA>
136.96

>  <PEOE_VSA1>
5.11

>  <PEOE_VSA2>
4.9

>  <PEOE_VSA3>
0

>  <PEOE_VSA4>
0

>  <PEOE_VSA5>
11.34

>  <PEOE_VSA6>
25.12

>  <PEOE_VSA7>
67.29

>  <PEOE_VSA8>
17.46

>  <PEOE_VSA9>
0

>  <PEOE_VSA10>
5.75

>  <PEOE_VSA11>
0

>  <PEOE_VSA12>
0

>  <PEOE_VSA13>
0

>  <SMR_VSA1>
5.11

>  <SMR_VSA2>
0

>  <SMR_VSA3>
4.9

>  <SMR_VSA4>
0

>  <SMR_VSA5>
45.07

>  <SMR_VSA6>
13.09

>  <SMR_VSA7>
51.72

>  <SMR_VSA8>
0

>  <SMR_VSA9>
5.75

>  <SlogP_VSA1>
0

>  <SlogP_VSA2>
29.14

>  <SlogP_VSA3>
19.26

>  <SlogP_VSA4>
0

>  <SlogP_VSA5>
35.77

>  <SlogP_VSA6>
35.71

>  <SlogP_VSA7>
0

>  <SlogP_VSA8>
0

>  <SlogP_VSA9>
0

>  <SlogP_VSA10>
0

>  <SlogP_VSA11>
5.75

>  <EState_VSA1>
0

>  <EState_VSA2>
0

>  <EState_VSA3>
11.79

>  <EState_VSA4>
32.23

>  <EState_VSA5>
28.97

>  <EState_VSA6>
0

>  <EState_VSA7>
23.47

>  <EState_VSA8>
35.4

>  <EState_VSA9>
0

>  <EState_VSA10>
5.11

>  <VSA_EState1>
0

>  <VSA_EState2>
4.14

>  <VSA_EState3>
12.17

>  <VSA_EState4>
2.52

>  <VSA_EState5>
0.48

>  <VSA_EState6>
10.98

>  <VSA_EState7>
5.6

>  <VSA_EState8>
4.58

>  <VSA_EState9>
0

>  <apol>
53.2

>  <bpol>
29.25

>  <nRing>
3

>  <nHRing>
1

>  <naRing>
2

>  <naHRing>
1

>  <nARing 2>
1

>  <nAHRing 2>
0

>  <nFRing>
1

>  <nFHRing>
0

>  <nFaRing>
0

>  <nFaHRing>
0

>  <nFARing 2>
1

>  <nFAHRing 2>
0

>  <nRot>
6

>  <SLogP>
4.27

>  <SMR>
93.81

>  <TopoPSA(NO)>
23.47

>  <TopoPSA>
51.71

>  <JGI1>
0.15

>  <JGI2>
0.08

>  <JGI3>
0.04

>  <JGI4>
0.04

>  <JGI5>
0.02

>  <Diameter>
11

>  <Radius>
6

>  <TMWC10>
119.34

>  <TSRW10>
68.95

>  <MW>
315.17

>  <AMW>
6.71

>  <WPath>
1112

>  <WPol>
31

>  <Zagreb1>
112

>  <Zagreb2>
130

>  <mZagreb2>
5

>  <yes>


>  <nAR-cont>
0.816016

>  <nHA-cont>
0.983774276

>  <MWHBN>
0.225313677

>  <MWHBN-cont>
0.991072316

>  <TPSA-cont>
0.63903209

>  <pka_cont>
0.97

>  <yes.1>


>  <BBB_SCORE>
5.049462931

>  <MMFF94 Energy>
45.368

$$$$
Compound 2750
Actelion Java MolfileCreator 2.0

  0  0  0  0  0  0              0 V3000
M  V30 BEGIN CTAB
M  V30 COUNTS 27 27 0 0 0
M  V30 BEGIN ATOM
M  V30 1 I 2.6623 -3.4121 -3.9121 0
M  V30 2 C 2.6201 -2.6615 -2.0104 0
M  V30 3 C 3.8946 -2.5296 -1.2244 0
M  V30 4 C 1.4785 -2.2734 -1.4193 0
M  V30 5 O 4.9753 -2.8923 -1.6839 0
M  V30 6 C 3.7827 -1.9378 0.1528 0
M  V30 7 N 1.3817 -1.7568 -0.1322 0
M  V30 8 I 5.4595 -1.671 1.2924 0
M  V30 9 C 2.5588 -1.6009 0.5909 0
M  V30 10 C 0.0784 -1.3151 0.4206 0
M  V30 11 C -0.2256 0.1443 0.0958 0
M  V30 12 O 0.4838 0.9106 -0.5416 0
M  V30 13 O -1.4375 0.4789 0.6352 0
M  V30 14 C -1.8343 1.8369 0.3943 0
M  V30 15 C -3.192 2.0549 1.0509 0
M  V30 16 C -3.6968 3.4722 0.8482 0
M  V30 17 H 0.5276 -2.3396 -1.9426 0
M  V30 18 H 2.4187 -1.1624 1.5762 0
M  V30 19 H 0.078 -1.4337 1.5107 0
M  V30 20 H -0.7278 -1.9353 0.0113 0
M  V30 21 H -1.9056 2.0103 -0.6857 0
M  V30 22 H -1.0919 2.5168 0.8285 0
M  V30 23 H -3.9165 1.3397 0.6434 0
M  V30 24 H -3.1215 1.8345 2.1229 0
M  V30 25 H -4.6716 3.6004 1.3292 0
M  V30 26 H -3.0051 4.2009 1.2831 0
M  V30 27 H -3.8109 3.6994 -0.2164 0
M  V30 END ATOM
M  V30 BEGIN BOND
M  V30 1 1 1 2
M  V30 2 1 2 3
M  V30 3 2 2 4
M  V30 4 2 3 5
M  V30 5 1 3 6
M  V30 6 1 4 7
M  V30 7 1 6 8
M  V30 8 2 6 9
M  V30 9 1 7 10
M  V30 10 1 10 11
M  V30 11 2 11 12
M  V30 12 1 11 13
M  V30 13 1 13 14
M  V30 14 1 14 15
M  V30 15 1 15 16
M  V30 16 1 7 9
M  V30 17 1 4 17
M  V30 18 1 9 18
M  V30 19 1 10 19
M  V30 20 1 10 20
M  V30 21 1 14 21
M  V30 22 1 14 22
M  V30 23 1 15 23
M  V30 24 1 15 24
M  V30 25 1 16 25
M  V30 26 1 16 26
M  V30 27 1 16 27
M  V30 END BOND
M  V30 END CTAB
M  END
>  <Column 1>
3467

>  <level_0>
5708

>  <index>
5709

>  <Unnamed: 0>
5709

>  <NO.>
5721

>  <Name>
propyliodone

>  <IUPAC_name>
propyl 2-(3-5-diiodo-4-oxopyridin-1-yl)acetate

>  <SMILES>
CCCOC(=O)Cn1cc(I)c(=O)c(I)c1

>  <CID>
4949

>  <logBB>


>  <BBB+/BBB->
BBB-

>  <Inchi>
InChI=1S/C10H11I2NO3/c1-2-3-16-9(14)6-13-4-7(11)10(15)8(12)5-13/h4-5H-2-3-6H2-1H3

>  <threshold>


>  <reference>
R23|

>  <group>
C

>  <Class>
-1

>  <ABC>
11.67

>  <ABCGG>
10.62

>  <nAcid>
0

>  <nBase>
0

>  <nAromAtom>
6

>  <nAromBond>
6

>  <nAtom>
27

>  <nHeavyAtom>
16

>  <nSpiro>
0

>  <nBridgehead>
0

>  <nHetero>
6

>  <nN>
1

>  <nO>
3

>  <nF>
0

>  <BalabanJ>
2.32

>  <BertzCT>
415.93

>  <nBonds>
27

>  <nBondsO>
16

>  <nBondsS>
19

>  <nBondsD>
2

>  <nBondsT>
0

>  <nBondsA>
6

>  <nBondsM>
8

>  <nBondsKS>
23

>  <nBondsKD>
4

>  <RNCG>
0.31

>  <RPCG>
0.22

>  <FCSP3>
0.4

>  <SZ>
34.67

>  <Sm>
37.22

>  <Sv>
19.04

>  <Sse>
27.56

>  <Sp>
22.9

>  <Si>
30.06

>  <MZ>
1.28

>  <Mm>
1.38

>  <Mv>
0.71

>  <Mse>
1.02

>  <Mp>
0.85

>  <Mi>
1.11

>  <NsCH3>
1

>  <NdCH2>
0

>  <NssCH2>
3

>  <NtCH>
0

>  <NdsCH>
0

>  <NaaCH>
2

>  <NsssCH>
0

>  <NddC>
0

>  <NtsC>
0

>  <NdssC>
1

>  <NaasC>
2

>  <NaaaC>
0

>  <NssssC>
0

>  <NsNH3>
0

>  <NsNH2>
0

>  <NssNH2>
0

>  <NdNH>
0

>  <NssNH>
0

>  <NaaNH>
0

>  <NtN>
0

>  <NsssNH>
0

>  <NdsN>
0

>  <NaaN>
0

>  <NsssN>
0

>  <NddsN>
0

>  <NaasN>
1

>  <NssssN>
0

>  <NsOH>
0

>  <NdO>
2

>  <NssO>
1

>  <NaaO>
0

>  <NsF>
0

>  <NsSiH3>
0

>  <NssSiH2>
0

>  <NsssSiH>
0

>  <NssssSi>
0

>  <NsPH2>
0

>  <NssPH>
0

>  <NsssP>
0

>  <NdsssP>
0

>  <NsssssP>
0

>  <NsSH>
0

>  <NdS>
0

>  <NssS>
0

>  <NaaS>
0

>  <NdssS>
0

>  <NddssS>
0

>  <NsCl>
0

>  <NsBr>
0

>  <NsI>
2

>  <fragCpx>
16.06

>  <fMF>
0.22

>  <nHBAcc>
4

>  <nHBDon>
0

>  <Kier1>
14.06

>  <Kier2>
6.67

>  <Lipinski>
1

>  <GhoseFilter>
1

>  <FilterItLogS>
-3.87

>  <VMcGowan>
202.95

>  <LabuteASA>
120.65

>  <PEOE_VSA1>
9.3

>  <PEOE_VSA2>
9.59

>  <PEOE_VSA3>
0

>  <PEOE_VSA4>
0

>  <PEOE_VSA5>
0

>  <PEOE_VSA6>
6.92

>  <PEOE_VSA7>
51.6

>  <PEOE_VSA8>
12.39

>  <PEOE_VSA9>
13.75

>  <PEOE_VSA10>
6.54

>  <PEOE_VSA11>
0

>  <PEOE_VSA12>
5.43

>  <PEOE_VSA13>
0

>  <SMR_VSA1>
9.53

>  <SMR_VSA2>
0

>  <SMR_VSA3>
4.57

>  <SMR_VSA4>
0

>  <SMR_VSA5>
19.89

>  <SMR_VSA6>
6.61

>  <SMR_VSA7>
29.76

>  <SMR_VSA8>
0

>  <SMR_VSA9>
0

>  <SlogP_VSA1>
5.43

>  <SlogP_VSA2>
17.14

>  <SlogP_VSA3>
16.08

>  <SlogP_VSA4>
7.14

>  <SlogP_VSA5>
13.34

>  <SlogP_VSA6>
17.19

>  <SlogP_VSA7>
0

>  <SlogP_VSA8>
0

>  <SlogP_VSA9>
0

>  <SlogP_VSA10>
0

>  <SlogP_VSA11>
0

>  <EState_VSA1>
0

>  <EState_VSA2>
17.94

>  <EState_VSA3>
13.75

>  <EState_VSA4>
6.42

>  <EState_VSA5>
0

>  <EState_VSA6>
16.96

>  <EState_VSA7>
52.11

>  <EState_VSA8>
0

>  <EState_VSA9>
4.74

>  <EState_VSA10>
9.59

>  <VSA_EState1>
7.84

>  <VSA_EState2>
22.79

>  <VSA_EState3>
0

>  <VSA_EState4>
0

>  <VSA_EState5>
-0.28

>  <VSA_EState6>
0

>  <VSA_EState7>
4.11

>  <VSA_EState8>
2.53

>  <VSA_EState9>
0

>  <apol>
38.24

>  <bpol>
23.58

>  <nRing>
1

>  <nHRing>
1

>  <naRing>
1

>  <naHRing>
1

>  <nARing 2>
0

>  <nAHRing 2>
0

>  <nFRing>
0

>  <nFHRing>
0

>  <nFaRing>
0

>  <nFaHRing>
0

>  <nFARing 2>
0

>  <nFAHRing 2>
0

>  <nRot>
4

>  <SLogP>
2.01

>  <SMR>
77.39

>  <TopoPSA(NO)>
48.3

>  <TopoPSA>
48.3

>  <JGI1>
0.25

>  <JGI2>
0.08

>  <JGI3>
0.07

>  <JGI4>
0.05

>  <JGI5>
0.03

>  <Diameter>
10

>  <Radius>
5

>  <TMWC10>
100.49

>  <TSRW10>
47.62

>  <MW>
446.88

>  <AMW>
16.55

>  <WPath>
483

>  <WPol>
21

>  <Zagreb1>
74

>  <Zagreb2>
82

>  <mZagreb2>
3.72

>  <yes>


>  <nAR-cont>
0.336376

>  <nHA-cont>
0.954961865

>  <MWHBN>
0.189218908

>  <MWHBN-cont>
0.995143577

>  <TPSA-cont>
0.662836008

>  <pka_cont>
0.97

>  <yes.1>


>  <BBB_SCORE>
4.594725246

>  <MMFF94 Energy>
84.333

$$$$
Compound 2751
Actelion Java MolfileCreator 2.0

  0  0  0  0  0  0              0 V3000
M  V30 BEGIN CTAB
M  V30 COUNTS 72 75 0 0 0
M  V30 BEGIN ATOM
M  V30 1 S 0.479 -2.2368 -3.7569 0
M  V30 2 O 0.0228 -3.3454 -2.9503 0
M  V30 3 O 1.1751 -2.4396 -5.0084 0
M  V30 4 N -0.8313 -1.2517 -4.1063 0
M  V30 5 C 1.4761 -1.1664 -2.7513 0
M  V30 6 C -1.9203 -1.1365 -3.1312 0
M  V30 7 C 1.2884 -1.1477 -1.3686 0
M  V30 8 C 2.4547 -0.3706 -3.3404 0
M  V30 9 C -2.6092 0.2144 -3.3102 0
M  V30 10 C 2.0489 -0.2875 -0.5562 0
M  V30 11 C 3.232 0.4719 -2.5413 0
M  V30 12 C -3.6806 0.481 -2.2426 0 CFG=2
M  V30 13 C 1.7225 -0.2911 0.9152 0
M  V30 14 C 3.0346 0.5328 -1.1522 0
M  V30 15 N -3.2215 1.2437 -1.0701 0
M  V30 16 C -4.7619 1.423 -2.7786 0
M  V30 17 N 0.6576 -0.9217 1.3354 0
M  V30 18 N 2.5957 0.3939 1.7537 0
M  V30 19 O 3.7635 1.3518 -0.3266 0
M  V30 20 C -4.4452 1.6964 -0.3987 0
M  V30 21 C -2.3584 0.5116 -0.1534 0
M  V30 22 C -5.3925 2.0414 -1.5383 0
M  V30 23 C 0.4626 -0.8555 2.7153 0
M  V30 24 C 2.4486 0.4996 3.1177 0
M  V30 25 C 4.6474 2.3045 -0.9245 0
M  V30 26 C 1.2956 -0.1909 3.5631 0
M  V30 27 C -0.5502 -1.4171 3.5091 0
M  V30 28 O 3.232 1.1215 3.8253 0
M  V30 29 C 5.2335 3.1556 0.1981 0
M  V30 30 N 0.771 -0.3613 4.8056 0
M  V30 31 N -0.3626 -1.1066 4.8061 0
M  V30 32 C -1.7066 -2.2518 3.0811 0
M  V30 33 C 6.194 4.2055 -0.3302 0
M  V30 34 C 1.2948 0.1543 6.0474 0
M  V30 35 C -1.3263 -3.7234 2.9144 0
M  V30 36 C -2.5155 -4.5583 2.4669 0
M  V30 37 H -1.053 -1.2119 -5.1001 0
M  V30 38 H -1.5397 -1.2446 -2.1153 0
M  V30 39 H -2.638 -1.9449 -3.3091 0
M  V30 40 H 0.5368 -1.7987 -0.924 0
M  V30 41 H 2.6181 -0.3964 -4.4162 0
M  V30 42 H -1.8644 1.0215 -3.3087 0
M  V30 43 H -3.0678 0.2325 -4.3081 0
M  V30 44 H 3.9867 1.0721 -3.0412 0
M  V30 45 H -4.1578 -0.4599 -1.9342 0
M  V30 46 H -5.5022 0.8924 -3.3864 0
M  V30 47 H -4.3268 2.2166 -3.4 0
M  V30 48 H 3.3944 0.8734 1.3588 0
M  V30 49 H -4.2578 2.5637 0.2426 0
M  V30 50 H -4.8871 0.9013 0.2157 0
M  V30 51 H -2.7875 -0.4514 0.1428 0
M  V30 52 H -2.1729 1.098 0.7538 0
M  V30 53 H -1.3788 0.3407 -0.6064 0
M  V30 54 H -6.3891 1.6261 -1.3532 0
M  V30 55 H -5.4957 3.1248 -1.6636 0
M  V30 56 H 4.0962 2.9477 -1.621 0
M  V30 57 H 5.4573 1.7837 -1.4484 0
M  V30 58 H 4.4214 3.6396 0.7543 0
M  V30 59 H 5.7479 2.5089 0.9192 0
M  V30 60 H -2.1003 -1.863 2.1343 0
M  V30 61 H -2.5186 -2.1612 3.8139 0
M  V30 62 H 6.5981 4.7999 0.4951 0
M  V30 63 H 7.0333 3.7398 -0.8564 0
M  V30 64 H 5.6887 4.886 -1.0232 0
M  V30 65 H 1.319 1.2451 5.9861 0
M  V30 66 H 2.2996 -0.2493 6.193 0
M  V30 67 H 0.6482 -0.1555 6.8727 0
M  V30 68 H -0.5199 -3.8239 2.1777 0
M  V30 69 H -0.9414 -4.1213 3.8614 0
M  V30 70 H -2.2216 -5.6066 2.3542 0
M  V30 71 H -3.3271 -4.5099 3.1999 0
M  V30 72 H -2.9001 -4.2078 1.5037 0
M  V30 END ATOM
M  V30 BEGIN BOND
M  V30 1 2 1 2
M  V30 2 2 1 3
M  V30 3 1 1 4
M  V30 4 1 1 5
M  V30 5 1 4 6
M  V30 6 2 5 7
M  V30 7 1 5 8
M  V30 8 1 6 9
M  V30 9 1 7 10
M  V30 10 2 8 11
M  V30 11 1 9 12
M  V30 12 1 10 13
M  V30 13 2 10 14
M  V30 14 1 12 15
M  V30 15 1 12 16
M  V30 16 2 13 17
M  V30 17 1 13 18
M  V30 18 1 14 19
M  V30 19 1 15 20
M  V30 20 1 15 21
M  V30 21 1 16 22
M  V30 22 1 17 23
M  V30 23 1 18 24
M  V30 24 1 19 25
M  V30 25 2 23 26
M  V30 26 1 23 27
M  V30 27 2 24 28
M  V30 28 1 25 29
M  V30 29 1 26 30
M  V30 30 2 27 31
M  V30 31 1 27 32
M  V30 32 1 29 33
M  V30 33 1 30 34
M  V30 34 1 32 35
M  V30 35 1 35 36
M  V30 36 1 11 14
M  V30 37 1 20 22
M  V30 38 1 24 26
M  V30 39 1 30 31
M  V30 40 1 4 37
M  V30 41 1 6 38
M  V30 42 1 6 39
M  V30 43 1 7 40
M  V30 44 1 8 41
M  V30 45 1 9 42
M  V30 46 1 9 43
M  V30 47 1 11 44
M  V30 48 1 12 45
M  V30 49 1 16 46
M  V30 50 1 16 47
M  V30 51 1 18 48
M  V30 52 1 20 49
M  V30 53 1 20 50
M  V30 54 1 21 51
M  V30 55 1 21 52
M  V30 56 1 21 53
M  V30 57 1 22 54
M  V30 58 1 22 55
M  V30 59 1 25 56
M  V30 60 1 25 57
M  V30 61 1 29 58
M  V30 62 1 29 59
M  V30 63 1 32 60
M  V30 64 1 32 61
M  V30 65 1 33 62
M  V30 66 1 33 63
M  V30 67 1 33 64
M  V30 68 1 34 65
M  V30 69 1 34 66
M  V30 70 1 34 67
M  V30 71 1 35 68
M  V30 72 1 35 69
M  V30 73 1 36 70
M  V30 74 1 36 71
M  V30 75 1 36 72
M  V30 END BOND
M  V30 BEGIN COLLECTION
M  V30 MDLV30/STERAC1 ATOMS=(1 12)
M  V30 END COLLECTION
M  V30 END CTAB
M  END
>  <Column 1>
3468

>  <level_0>
5709

>  <index>
5710

>  <Unnamed: 0>
5710

>  <NO.>
5722

>  <Name>
udenafil

>  <IUPAC_name>
3-(1-methyl-7-oxo-3-propyl-6h-pyrazolo[4-3-d]pyrimidin-5-yl)-n-[2-(1-methylpyrrolidin-2-yl)ethyl]-4-propoxybenzenesulfonamide

>  <SMILES>
CCCOc1ccc(S(=O)(=O)NCCC2CCCN2C)cc1-c1nc2c(CCC)nn(C)c2c(=O)[nH]1

>  <CID>
135413547

>  <logBB>


>  <BBB+/BBB->
BBB-

>  <Inchi>
InChI=1S/C25H36N6O4S/c1-5-8-20-22-23(31(4)29-20)25(32)28-24(27-22)19-16-18(10-11-21(19)35-15-6-2)36(33-34)26-13-12-17-9-7-14-30(17)3/h10-11-16-17-26H-5-9-12-15H2-1-4H3-(H-27-28-32)

>  <threshold>


>  <reference>
R23|

>  <group>
C

>  <Class>
-1

>  <ABC>
27.88

>  <ABCGG>
22.32

>  <nAcid>
0

>  <nBase>
1

>  <nAromAtom>
15

>  <nAromBond>
16

>  <nAtom>
72

>  <nHeavyAtom>
36

>  <nSpiro>
0

>  <nBridgehead>
0

>  <nHetero>
11

>  <nN>
6

>  <nO>
4

>  <nF>
0

>  <BalabanJ>
1.42

>  <BertzCT>
1381.18

>  <nBonds>
75

>  <nBondsO>
39

>  <nBondsS>
56

>  <nBondsD>
3

>  <nBondsT>
0

>  <nBondsA>
16

>  <nBondsM>
19

>  <nBondsKS>
66

>  <nBondsKD>
9

>  <RNCG>
0.16

>  <RPCG>
0.09

>  <FCSP3>
0.56

>  <SZ>
46

>  <Sm>
43.02

>  <Sv>
43.35

>  <Sse>
72.36

>  <Sp>
46.98

>  <Si>
81.98

>  <MZ>
0.64

>  <Mm>
0.6

>  <Mv>
0.6

>  <Mse>
1

>  <Mp>
0.65

>  <Mi>
1.14

>  <NsCH3>
4

>  <NdCH2>
0

>  <NssCH2>
9

>  <NtCH>
0

>  <NdsCH>
0

>  <NaaCH>
3

>  <NsssCH>
1

>  <NddC>
0

>  <NtsC>
0

>  <NdssC>
0

>  <NaasC>
5

>  <NaaaC>
2

>  <NssssC>
0

>  <NsNH3>
0

>  <NsNH2>
0

>  <NssNH2>
0

>  <NdNH>
0

>  <NssNH>
1

>  <NaaNH>
1

>  <NtN>
0

>  <NsssNH>
0

>  <NdsN>
0

>  <NaaN>
2

>  <NsssN>
1

>  <NddsN>
0

>  <NaasN>
1

>  <NssssN>
0

>  <NsOH>
0

>  <NdO>
3

>  <NssO>
1

>  <NaaO>
0

>  <NsF>
0

>  <NsSiH3>
0

>  <NssSiH2>
0

>  <NsssSiH>
0

>  <NssssSi>
0

>  <NsPH2>
0

>  <NssPH>
0

>  <NsssP>
0

>  <NdsssP>
0

>  <NsssssP>
0

>  <NsSH>
0

>  <NdS>
0

>  <NssS>
0

>  <NaaS>
0

>  <NdssS>
0

>  <NddssS>
1

>  <NsCl>
0

>  <NsBr>
0

>  <NsI>
0

>  <fragCpx>
261.11

>  <fMF>
0.33

>  <nHBAcc>
8

>  <nHBDon>
2

>  <Kier1>
28.99

>  <Kier2>
12.9

>  <Lipinski>
0

>  <GhoseFilter>
0

>  <FilterItLogS>
-7.02

>  <VMcGowan>
389.28

>  <LabuteASA>
211.67

>  <PEOE_VSA1>
14.62

>  <PEOE_VSA2>
9.48

>  <PEOE_VSA3>
18.12

>  <PEOE_VSA4>
5.1

>  <PEOE_VSA5>
0

>  <PEOE_VSA6>
20.27

>  <PEOE_VSA7>
63.9

>  <PEOE_VSA8>
19.63

>  <PEOE_VSA9>
22.76

>  <PEOE_VSA10>
17.09

>  <PEOE_VSA11>
5.52

>  <PEOE_VSA12>
10.02

>  <PEOE_VSA13>
5.56

>  <SMR_VSA1>
13.15

>  <SMR_VSA2>
0

>  <SMR_VSA3>
29.37

>  <SMR_VSA4>
7.05

>  <SMR_VSA5>
63.31

>  <SMR_VSA6>
26.74

>  <SMR_VSA7>
34.25

>  <SMR_VSA8>
0

>  <SMR_VSA9>
17.14

>  <SlogP_VSA1>
15.02

>  <SlogP_VSA2>
65.85

>  <SlogP_VSA3>
23.49

>  <SlogP_VSA4>
0

>  <SlogP_VSA5>
51.65

>  <SlogP_VSA6>
27.89

>  <SlogP_VSA7>
0

>  <SlogP_VSA8>
22.42

>  <SlogP_VSA9>
0

>  <SlogP_VSA10>
0

>  <SlogP_VSA11>
5.75

>  <EState_VSA1>
10.02

>  <EState_VSA2>
16.28

>  <EState_VSA3>
47.96

>  <EState_VSA4>
44.34

>  <EState_VSA5>
16.81

>  <EState_VSA6>
13.11

>  <EState_VSA7>
13.85

>  <EState_VSA8>
26.75

>  <EState_VSA9>
9.72

>  <EState_VSA10>
13.21

>  <VSA_EState1>
36.47

>  <VSA_EState2>
22.89

>  <VSA_EState3>
4.47

>  <VSA_EState4>
1.74

>  <VSA_EState5>
0.72

>  <VSA_EState6>
5.08

>  <VSA_EState7>
5.3

>  <VSA_EState8>
5.89

>  <VSA_EState9>
0.03

>  <apol>
78.46

>  <bpol>
51.08

>  <nRing>
4

>  <nHRing>
3

>  <naRing>
3

>  <naHRing>
2

>  <nARing 2>
1

>  <nAHRing 2>
1

>  <nFRing>
1

>  <nFHRing>
1

>  <nFaRing>
1

>  <nFaHRing>
1

>  <nFARing 2>
0

>  <nFAHRing 2>
0

>  <nRot>
11

>  <SLogP>
2.83

>  <SMR>
139.8

>  <TopoPSA(NO)>
122.21

>  <TopoPSA>
130.59

>  <JGI1>
0.21

>  <JGI2>
0.09

>  <JGI3>
0.06

>  <JGI4>
0.04

>  <JGI5>
0.03

>  <Diameter>
16

>  <Radius>
8

>  <TMWC10>
154.4

>  <TSRW10>
88.73

>  <MW>
516.25

>  <AMW>
7.17

>  <WPath>
4172

>  <WPol>
59

>  <Zagreb1>
190

>  <Zagreb2>
226

>  <mZagreb2>
7.99

>  <yes>


>  <nAR-cont>
0.816016

>  <nHA-cont>
0.477843619

>  <MWHBN>
0.440118848

>  <MWHBN-cont>
0.321850501

>  <TPSA-cont>
0

>  <pka_cont>
0.97

>  <yes.1>


>  <BBB_SCORE>
2.26163537

>  <MMFF94 Energy>
-79.64

$$$$
Compound 2752
Actelion Java MolfileCreator 2.0

  0  0  0  0  0  0              0 V3000
M  V30 BEGIN CTAB
M  V30 COUNTS 64 68 0 0 0
M  V30 BEGIN ATOM
M  V30 1 S 0.4053 0.8918 -3.0023 0
M  V30 2 C 0.4793 -0.4103 -1.7889 0
M  V30 3 C 1.147 2.2725 -2.066 0
M  V30 4 N -0.0834 -1.5806 -2.1577 0
M  V30 5 N 1.0635 -0.1435 -0.607 0
M  V30 6 C 1.1889 3.5645 -2.8826 0
M  V30 7 C -0.097 -2.632 -1.2914 0
M  V30 8 C 1.0204 -1.1916 0.2279 0
M  V30 9 C -0.1835 4.1707 -3.1423 0
M  V30 10 N -0.6812 -3.8493 -1.6532 0
M  V30 11 C 0.4822 -2.4365 -0.0312 0
M  V30 12 N 1.4833 -1.2942 1.5111 0
M  V30 13 C -1.3599 -4.0281 -2.9273 0
M  V30 14 N 0.6503 -3.2456 1.0607 0
M  V30 15 N 1.2886 -2.5463 1.9935 0
M  V30 16 C 2.2055 -0.3362 2.3188 0
M  V30 17 C -2.8606 -3.9072 -3.0902 0
M  V30 18 C -2.191 -5.2563 -3.1631 0
M  V30 19 C 1.644 -0.2186 3.7575 0
M  V30 20 C 2.2617 1.1012 1.7938 0
M  V30 21 C -3.7473 -3.5252 -1.9266 0
M  V30 22 O 2.556 -0.832 4.6738 0
M  V30 23 C 1.5523 1.2858 4.0481 0
M  V30 24 C 2.5219 1.9256 3.0479 0
M  V30 25 C -4.6224 -4.4429 -1.3208 0
M  V30 26 C -3.6716 -2.2351 -1.3633 0
M  V30 27 O 0.2195 1.7372 3.7755 0
M  V30 28 O 2.1852 3.3002 2.8533 0
M  V30 29 C -5.3931 -4.0775 -0.2188 0
M  V30 30 C -4.4441 -1.8686 -0.257 0
M  V30 31 C 3.2169 4.0279 2.1711 0
M  V30 32 F -6.2209 -4.9781 0.3293 0
M  V30 33 C -5.3046 -2.7979 0.3093 0
M  V30 34 C 2.6314 5.3579 1.7102 0
M  V30 35 F -6.0458 -2.4501 1.37 0
M  V30 36 O 1.5878 5.1128 0.7666 0
M  V30 37 H 2.1718 1.9973 -1.7941 0
M  V30 38 H 0.5802 2.4384 -1.1432 0
M  V30 39 H 1.7831 4.2996 -2.3259 0
M  V30 40 H 1.7089 3.4025 -3.8343 0
M  V30 41 H -0.7979 3.528 -3.7794 0
M  V30 42 H -0.7202 4.3415 -2.2035 0
M  V30 43 H -0.0768 5.135 -3.6495 0
M  V30 44 H -0.7045 -4.5563 -0.9264 0
M  V30 45 H -0.7558 -3.6896 -3.7676 0
M  V30 46 H 3.2331 -0.725 2.3595 0
M  V30 47 H -3.1865 -3.4971 -4.0456 0
M  V30 48 H -2.3085 -5.9557 -2.3446 0
M  V30 49 H -2.1194 -5.7317 -4.1348 0
M  V30 50 H 0.6634 -0.6931 3.8812 0
M  V30 51 H 3.0473 1.2289 1.042 0
M  V30 52 H 1.32 1.4246 1.3345 0
M  V30 53 H 2.404 -1.7956 4.6155 0
M  V30 54 H 1.7966 1.5509 5.0814 0
M  V30 55 H 3.5565 1.8155 3.3977 0
M  V30 56 H -4.7156 -5.4532 -1.7083 0
M  V30 57 H -2.9932 -1.5036 -1.8016 0
M  V30 58 H 0.2921 2.7091 3.6933 0
M  V30 59 H -4.3746 -0.8699 0.1614 0
M  V30 60 H 3.5618 3.4623 1.2996 0
M  V30 61 H 4.0522 4.1917 2.8591 0
M  V30 62 H 2.1996 5.9128 2.5488 0
M  V30 63 H 3.3941 5.9734 1.2258 0
M  V30 64 H 0.9757 4.4948 1.2091 0
M  V30 END ATOM
M  V30 BEGIN BOND
M  V30 1 1 1 2
M  V30 2 1 1 3
M  V30 3 2 2 4
M  V30 4 1 2 5
M  V30 5 1 3 6
M  V30 6 1 4 7
M  V30 7 2 5 8
M  V30 8 1 6 9
M  V30 9 1 7 10
M  V30 10 2 7 11
M  V30 11 1 8 12
M  V30 12 1 10 13
M  V30 13 1 11 14
M  V30 14 1 12 15
M  V30 15 1 12 16
M  V30 16 1 13 17
M  V30 17 1 13 18
M  V30 18 1 16 19
M  V30 19 1 16 20
M  V30 20 1 17 21
M  V30 21 1 19 22
M  V30 22 1 19 23
M  V30 23 1 20 24
M  V30 24 2 21 25
M  V30 25 1 21 26
M  V30 26 1 23 27
M  V30 27 1 24 28
M  V30 28 1 25 29
M  V30 29 2 26 30
M  V30 30 1 28 31
M  V30 31 1 29 32
M  V30 32 2 29 33
M  V30 33 1 31 34
M  V30 34 1 33 35
M  V30 35 1 34 36
M  V30 36 1 8 11
M  V30 37 2 14 15
M  V30 38 1 17 18
M  V30 39 1 23 24
M  V30 40 1 30 33
M  V30 41 1 3 37
M  V30 42 1 3 38
M  V30 43 1 6 39
M  V30 44 1 6 40
M  V30 45 1 9 41
M  V30 46 1 9 42
M  V30 47 1 9 43
M  V30 48 1 10 44
M  V30 49 1 13 45
M  V30 50 1 16 46
M  V30 51 1 17 47
M  V30 52 1 18 48
M  V30 53 1 18 49
M  V30 54 1 19 50
M  V30 55 1 20 51
M  V30 56 1 20 52
M  V30 57 1 22 53
M  V30 58 1 23 54
M  V30 59 1 24 55
M  V30 60 1 25 56
M  V30 61 1 26 57
M  V30 62 1 27 58
M  V30 63 1 30 59
M  V30 64 1 31 60
M  V30 65 1 31 61
M  V30 66 1 34 62
M  V30 67 1 34 63
M  V30 68 1 36 64
M  V30 END BOND
M  V30 END CTAB
M  END
>  <Column 1>
3470

>  <level_0>
5711

>  <index>
5712

>  <Unnamed: 0>
5712

>  <NO.>
5724

>  <Name>
ticagrelor

>  <IUPAC_name>
3-[7-[[2-(3-4-difluorophenyl)cyclopropyl]amino]-5-propylsulfanyltriazolo[4-5-d]pyrimidin-3-yl]-5-(2-hydroxyethoxy)cyclopentane-1-2-diol

>  <SMILES>
CCCSc1nc(NC2CC2c2ccc(F)c(F)c2)c2nnn(C3CC(OCCO)C(O)C3O)c2n1

>  <CID>
22052291

>  <logBB>


>  <BBB+/BBB->
BBB-

>  <Inchi>
InChI=1S/C23H28F2N6O4S/c1-2-7-36-23-27-21(26-15-9-12(15)11-3-4-13(24)14(25)8-11)18-22(28-23)31(30-29-18)16-10-17(35-6-5-32)20(34)19(16)33/h3-4-8-12-15-17-19-20-32-34H-2-5-7-9-10H2-1H3-(H-26-27-28)

>  <threshold>


>  <reference>
R23|

>  <group>
C

>  <Class>
-1

>  <ABC>
28.32

>  <ABCGG>
22.76

>  <nAcid>
0

>  <nBase>
0

>  <nAromAtom>
15

>  <nAromBond>
16

>  <nAtom>
64

>  <nHeavyAtom>
36

>  <nSpiro>
0

>  <nBridgehead>
0

>  <nHetero>
13

>  <nN>
6

>  <nO>
4

>  <nF>
2

>  <BalabanJ>
1.23

>  <BertzCT>
1232.78

>  <nBonds>
68

>  <nBondsO>
40

>  <nBondsS>
52

>  <nBondsD>
0

>  <nBondsT>
0

>  <nBondsA>
16

>  <nBondsM>
16

>  <nBondsKS>
61

>  <nBondsKD>
7

>  <RNCG>
0.11

>  <RPCG>
0.06

>  <FCSP3>
0.57

>  <SZ>
45.67

>  <Sm>
43.51

>  <Sv>
40.47

>  <Sse>
65.72

>  <Sp>
42.46

>  <Si>
73.41

>  <MZ>
0.71

>  <Mm>
0.68

>  <Mv>
0.63

>  <Mse>
1.03

>  <Mp>
0.66

>  <Mi>
1.15

>  <NsCH3>
1

>  <NdCH2>
0

>  <NssCH2>
6

>  <NtCH>
0

>  <NdsCH>
0

>  <NaaCH>
3

>  <NsssCH>
6

>  <NddC>
0

>  <NtsC>
0

>  <NdssC>
0

>  <NaasC>
5

>  <NaaaC>
2

>  <NssssC>
0

>  <NsNH3>
0

>  <NsNH2>
0

>  <NssNH2>
0

>  <NdNH>
0

>  <NssNH>
1

>  <NaaNH>
0

>  <NtN>
0

>  <NsssNH>
0

>  <NdsN>
0

>  <NaaN>
4

>  <NsssN>
0

>  <NddsN>
0

>  <NaasN>
1

>  <NssssN>
0

>  <NsOH>
3

>  <NdO>
0

>  <NssO>
1

>  <NaaO>
0

>  <NsF>
2

>  <NsSiH3>
0

>  <NssSiH2>
0

>  <NsssSiH>
0

>  <NssssSi>
0

>  <NsPH2>
0

>  <NssPH>
0

>  <NsssP>
0

>  <NdsssP>
0

>  <NsssssP>
0

>  <NsSH>
0

>  <NdS>
0

>  <NssS>
1

>  <NaaS>
0

>  <NdssS>
0

>  <NddssS>
0

>  <NsCl>
0

>  <NsBr>
0

>  <NsI>
0

>  <fragCpx>
340.13

>  <fMF>
0.38

>  <nHBAcc>
11

>  <nHBDon>
4

>  <Kier1>
27.56

>  <Kier2>
12.03

>  <Lipinski>
0

>  <GhoseFilter>
0

>  <FilterItLogS>
-4.41

>  <VMcGowan>
353.76

>  <LabuteASA>
209.64

>  <PEOE_VSA1>
25.37

>  <PEOE_VSA2>
0

>  <PEOE_VSA3>
23.43

>  <PEOE_VSA4>
0

>  <PEOE_VSA5>
5.1

>  <PEOE_VSA6>
29.97

>  <PEOE_VSA7>
30.54

>  <PEOE_VSA8>
24.13

>  <PEOE_VSA9>
25.36

>  <PEOE_VSA10>
12.21

>  <PEOE_VSA11>
33.77

>  <PEOE_VSA12>
0

>  <PEOE_VSA13>
0

>  <SMR_VSA1>
28.84

>  <SMR_VSA2>
0

>  <SMR_VSA3>
24.96

>  <SMR_VSA4>
0

>  <SMR_VSA5>
67.66

>  <SMR_VSA6>
24.28

>  <SMR_VSA7>
35.4

>  <SMR_VSA8>
0

>  <SMR_VSA9>
0

>  <SlogP_VSA1>
5.32

>  <SlogP_VSA2>
83.6

>  <SlogP_VSA3>
4.74

>  <SlogP_VSA4>
11.63

>  <SlogP_VSA5>
43.71

>  <SlogP_VSA6>
23.36

>  <SlogP_VSA7>
0

>  <SlogP_VSA8>
11.16

>  <SlogP_VSA9>
0

>  <SlogP_VSA10>
14.6

>  <SlogP_VSA11>
0

>  <EState_VSA1>
35.99

>  <EState_VSA2>
31.59

>  <EState_VSA3>
27.7

>  <EState_VSA4>
24.66

>  <EState_VSA5>
22.51

>  <EState_VSA6>
6.07

>  <EState_VSA7>
0

>  <EState_VSA8>
32.52

>  <EState_VSA9>
9.84

>  <EState_VSA10>
18.99

>  <VSA_EState1>
34.02

>  <VSA_EState2>
9.27

>  <VSA_EState3>
42.54

>  <VSA_EState4>
1.53

>  <VSA_EState5>
-0.47

>  <VSA_EState6>
3.26

>  <VSA_EState7>
-1.04

>  <VSA_EState8>
1.91

>  <VSA_EState9>
0

>  <apol>
70.9

>  <bpol>
39.07

>  <nRing>
5

>  <nHRing>
2

>  <naRing>
3

>  <naHRing>
2

>  <nARing 2>
2

>  <nAHRing 2>
0

>  <nFRing>
1

>  <nFHRing>
1

>  <nFaRing>
1

>  <nFaHRing>
1

>  <nFARing 2>
0

>  <nFAHRing 2>
0

>  <nRot>
10

>  <SLogP>
2.01

>  <SMR>
127.75

>  <TopoPSA(NO)>
138.44

>  <TopoPSA>
163.74

>  <JGI1>
0.18

>  <JGI2>
0.09

>  <JGI3>
0.05

>  <JGI4>
0.04

>  <JGI5>
0.03

>  <Diameter>
18

>  <Radius>
9

>  <TMWC10>
156.27

>  <TSRW10>
93.95

>  <MW>
522.19

>  <AMW>
8.16

>  <WPath>
4243

>  <WPol>
59

>  <Zagreb1>
196

>  <Zagreb2>
238

>  <mZagreb2>
7.94

>  <yes>


>  <nAR-cont>
1

>  <nHA-cont>
0.477843619

>  <MWHBN>
0.656412713

>  <MWHBN-cont>
0

>  <TPSA-cont>
0

>  <pka_cont>
0.97

>  <yes.1>


>  <BBB_SCORE>
1.962843619

>  <MMFF94 Energy>
73.167

$$$$
Compound 2753
Actelion Java MolfileCreator 2.0

  0  0  0  0  0  0              0 V3000
M  V30 BEGIN CTAB
M  V30 COUNTS 48 50 0 0 0
M  V30 BEGIN ATOM
M  V30 1 S -2.649 0.0 -3.4527 0
M  V30 2 C -1.8165 -0.9963 -2.2238 0
M  V30 3 C -3.0933 1.4678 -2.5831 0
M  V30 4 C -1.3882 -0.4849 -0.9785 0
M  V30 5 C -1.5763 -2.3573 -2.5393 0
M  V30 6 C -2.5792 1.8093 -1.3377 0
M  V30 7 C -3.9977 2.3419 -3.2095 0
M  V30 8 C -1.6017 0.9564 -0.6307 0
M  V30 9 C -0.7258 -1.3267 -0.0334 0
M  V30 10 C -0.9371 -3.1768 -1.6043 0
M  V30 11 C -1.9907 -2.9814 -3.8499 0
M  V30 12 C -2.9696 3.0161 -0.7271 0
M  V30 13 C -4.3888 3.535 -2.5984 0
M  V30 14 O -0.9638 1.4791 0.2855 0
M  V30 15 N -0.3337 -0.8492 1.209 0
M  V30 16 C -0.529 -2.6695 -0.3744 0
M  V30 17 C -3.8734 3.8733 -1.3535 0
M  V30 18 C 0.4448 -1.5408 2.2235 0
M  V30 19 C 1.9538 -1.6287 1.8882 0
M  V30 20 N 2.7736 -0.4578 2.2894 0
M  V30 21 C 2.4527 0.7393 1.49 0
M  V30 22 C 4.2049 -0.7974 2.2054 0
M  V30 23 C 1.7816 1.784 2.3716 0
M  V30 24 C 5.0804 0.1992 2.9607 0
M  V30 25 H -4.409 2.0988 -4.188 0
M  V30 26 H -0.753 -4.2272 -1.8222 0
M  V30 27 H -1.7059 -4.0383 -3.8997 0
M  V30 28 H -1.4987 -2.4783 -4.6886 0
M  V30 29 H -3.0779 -2.9359 -3.9706 0
M  V30 30 H -2.5656 3.2935 0.2455 0
M  V30 31 H -5.0911 4.1983 -3.0977 0
M  V30 32 H -0.4239 0.1659 1.3297 0
M  V30 33 H -0.0481 -3.3553 0.3164 0
M  V30 34 H -4.1676 4.802 -0.8707 0
M  V30 35 H 0.0398 -2.5463 2.3875 0
M  V30 36 H 0.3161 -1.02 3.1802 0
M  V30 37 H 2.32 -2.4952 2.4551 0
M  V30 38 H 2.111 -1.8623 0.8277 0
M  V30 39 H 3.3513 1.195 1.0563 0
M  V30 40 H 1.8219 0.5095 0.6251 0
M  V30 41 H 4.3807 -1.7757 2.6707 0
M  V30 42 H 4.5333 -0.8793 1.1617 0
M  V30 43 H 1.5334 2.6708 1.7792 0
M  V30 44 H 2.4461 2.0995 3.1832 0
M  V30 45 H 0.8557 1.4095 2.8179 0
M  V30 46 H 6.1222 -0.1379 2.9496 0
M  V30 47 H 4.767 0.2814 4.0071 0
M  V30 48 H 5.0528 1.198 2.5154 0
M  V30 END ATOM
M  V30 BEGIN BOND
M  V30 1 1 1 2
M  V30 2 1 1 3
M  V30 3 2 2 4
M  V30 4 1 2 5
M  V30 5 2 3 6
M  V30 6 1 3 7
M  V30 7 1 4 8
M  V30 8 1 4 9
M  V30 9 2 5 10
M  V30 10 1 5 11
M  V30 11 1 6 12
M  V30 12 2 7 13
M  V30 13 2 8 14
M  V30 14 1 9 15
M  V30 15 2 9 16
M  V30 16 2 12 17
M  V30 17 1 15 18
M  V30 18 1 18 19
M  V30 19 1 19 20
M  V30 20 1 20 21
M  V30 21 1 20 22
M  V30 22 1 21 23
M  V30 23 1 22 24
M  V30 24 1 6 8
M  V30 25 1 10 16
M  V30 26 1 13 17
M  V30 27 1 7 25
M  V30 28 1 10 26
M  V30 29 1 11 27
M  V30 30 1 11 28
M  V30 31 1 11 29
M  V30 32 1 12 30
M  V30 33 1 13 31
M  V30 34 1 15 32
M  V30 35 1 16 33
M  V30 36 1 17 34
M  V30 37 1 18 35
M  V30 38 1 18 36
M  V30 39 1 19 37
M  V30 40 1 19 38
M  V30 41 1 21 39
M  V30 42 1 21 40
M  V30 43 1 22 41
M  V30 44 1 22 42
M  V30 45 1 23 43
M  V30 46 1 23 44
M  V30 47 1 23 45
M  V30 48 1 24 46
M  V30 49 1 24 47
M  V30 50 1 24 48
M  V30 END BOND
M  V30 END CTAB
M  END
>  <Column 1>
3471

>  <level_0>
5712

>  <index>
5713

>  <Unnamed: 0>
5713

>  <NO.>
5725

>  <Name>
lucanthone

>  <IUPAC_name>
1-[2-(diethylamino)ethylamino]-4-methylthioxanthen-9-one

>  <SMILES>
CCN(CC)CCNc1ccc(C)c2sc3ccccc3c(=O)c12

>  <CID>
10180

>  <logBB>


>  <BBB+/BBB->
BBB-

>  <Inchi>
InChI=1S/C20H24N2OS/c1-4-22(5-2)13-12-21-16-11-10-14(3)20-18(16)19(23)15-8-6-7-9-17(15)24-20/h6-11-21H-4-5-12-13H2-1-3H3

>  <threshold>


>  <reference>
R23|

>  <group>
C

>  <Class>
-1

>  <ABC>
18.36

>  <ABCGG>
14.65

>  <nAcid>
0

>  <nBase>
1

>  <nAromAtom>
14

>  <nAromBond>
16

>  <nAtom>
48

>  <nHeavyAtom>
24

>  <nSpiro>
0

>  <nBridgehead>
0

>  <nHetero>
4

>  <nN>
2

>  <nO>
1

>  <nF>
0

>  <BalabanJ>
1.63

>  <BertzCT>
912.54

>  <nBonds>
50

>  <nBondsO>
26

>  <nBondsS>
33

>  <nBondsD>
1

>  <nBondsT>
0

>  <nBondsA>
16

>  <nBondsM>
17

>  <nBondsKS>
43

>  <nBondsKD>
7

>  <RNCG>
0.24

>  <RPCG>
0.12

>  <FCSP3>
0.35

>  <SZ>
30.33

>  <Sm>
28.35

>  <Sv>
29.92

>  <Sse>
47.39

>  <Sp>
33.12

>  <Si>
53.69

>  <MZ>
0.63

>  <Mm>
0.59

>  <Mv>
0.62

>  <Mse>
0.99

>  <Mp>
0.69

>  <Mi>
1.12

>  <NsCH3>
3

>  <NdCH2>
0

>  <NssCH2>
4

>  <NtCH>
0

>  <NdsCH>
0

>  <NaaCH>
6

>  <NsssCH>
0

>  <NddC>
0

>  <NtsC>
0

>  <NdssC>
0

>  <NaasC>
2

>  <NaaaC>
4

>  <NssssC>
0

>  <NsNH3>
0

>  <NsNH2>
0

>  <NssNH2>
0

>  <NdNH>
0

>  <NssNH>
1

>  <NaaNH>
0

>  <NtN>
0

>  <NsssNH>
0

>  <NdsN>
0

>  <NaaN>
0

>  <NsssN>
1

>  <NddsN>
0

>  <NaasN>
0

>  <NssssN>
0

>  <NsOH>
0

>  <NdO>
1

>  <NssO>
0

>  <NaaO>
0

>  <NsF>
0

>  <NsSiH3>
0

>  <NssSiH2>
0

>  <NsssSiH>
0

>  <NssssSi>
0

>  <NsPH2>
0

>  <NssPH>
0

>  <NsssP>
0

>  <NdsssP>
0

>  <NsssssP>
0

>  <NsSH>
0

>  <NdS>
0

>  <NssS>
0

>  <NaaS>
1

>  <NdssS>
0

>  <NddssS>
0

>  <NsCl>
0

>  <NsBr>
0

>  <NsI>
0

>  <fragCpx>
124.04

>  <fMF>
0.29

>  <nHBAcc>
4

>  <nHBDon>
1

>  <Kier1>
18.78

>  <Kier2>
8.59

>  <Lipinski>
1

>  <GhoseFilter>
1

>  <FilterItLogS>
-6.57

>  <VMcGowan>
272.16

>  <LabuteASA>
146.47

>  <PEOE_VSA1>
10.22

>  <PEOE_VSA2>
4.79

>  <PEOE_VSA3>
0

>  <PEOE_VSA4>
0

>  <PEOE_VSA5>
11.34

>  <PEOE_VSA6>
32.05

>  <PEOE_VSA7>
43.78

>  <PEOE_VSA8>
33.56

>  <PEOE_VSA9>
5.39

>  <PEOE_VSA10>
0

>  <PEOE_VSA11>
5.43

>  <PEOE_VSA12>
0

>  <PEOE_VSA13>
0

>  <SMR_VSA1>
0

>  <SMR_VSA2>
0

>  <SMR_VSA3>
4.9

>  <SMR_VSA4>
0

>  <SMR_VSA5>
20.77

>  <SMR_VSA6>
31.5

>  <SMR_VSA7>
52.18

>  <SMR_VSA8>
0

>  <SMR_VSA9>
0

>  <SlogP_VSA1>
10.75

>  <SlogP_VSA2>
31.08

>  <SlogP_VSA3>
0

>  <SlogP_VSA4>
6.92

>  <SlogP_VSA5>
19.41

>  <SlogP_VSA6>
41.19

>  <SlogP_VSA7>
0

>  <SlogP_VSA8>
20.17

>  <SlogP_VSA9>
0

>  <SlogP_VSA10>
5.69

>  <SlogP_VSA11>
0

>  <EState_VSA1>
0

>  <EState_VSA2>
5.43

>  <EState_VSA3>
0

>  <EState_VSA4>
57.6

>  <EState_VSA5>
0

>  <EState_VSA6>
11.34

>  <EState_VSA7>
30.33

>  <EState_VSA8>
37.05

>  <EState_VSA9>
0

>  <EState_VSA10>
4.79

>  <VSA_EState1>
2.14

>  <VSA_EState2>
15.4

>  <VSA_EState3>
5.13

>  <VSA_EState4>
2.25

>  <VSA_EState5>
0

>  <VSA_EState6>
12.03

>  <VSA_EState7>
0

>  <VSA_EState8>
10.35

>  <VSA_EState9>
0

>  <apol>
55.31

>  <bpol>
29.68

>  <nRing>
3

>  <nHRing>
1

>  <naRing>
3

>  <naHRing>
1

>  <nARing 2>
0

>  <nAHRing 2>
0

>  <nFRing>
1

>  <nFHRing>
1

>  <nFaRing>
1

>  <nFaHRing>
1

>  <nFARing 2>
0

>  <nFAHRing 2>
0

>  <nRot>
6

>  <SLogP>
4.48

>  <SMR>
106.62

>  <TopoPSA(NO)>
32.34

>  <TopoPSA>
60.58

>  <JGI1>
0.15

>  <JGI2>
0.08

>  <JGI3>
0.05

>  <JGI4>
0.05

>  <JGI5>
0.03

>  <Diameter>
12

>  <Radius>
6

>  <TMWC10>
125.48

>  <TSRW10>
58.73

>  <MW>
340.16

>  <AMW>
7.09

>  <WPath>
1354

>  <WPol>
41

>  <Zagreb1>
124

>  <Zagreb2>
148

>  <mZagreb2>
5.5

>  <yes>


>  <nAR-cont>
0.336376

>  <nHA-cont>
0.94700071

>  <MWHBN>
0.271099292

>  <MWHBN-cont>
0.917599147

>  <TPSA-cont>
0.577113982

>  <pka_cont>
0.97

>  <yes.1>


>  <BBB_SCORE>
4.299003395

>  <MMFF94 Energy>
109.63

$$$$
Compound 2754
Actelion Java MolfileCreator 2.0

  0  0  0  0  0  0              0 V3000
M  V30 BEGIN CTAB
M  V30 COUNTS 70 72 0 0 0
M  V30 BEGIN ATOM
M  V30 1 S -1.4524 0.726 -3.0682 0
M  V30 2 O -1.8988 1.0217 -4.4132 0
M  V30 3 O -2.3732 0.8131 -1.9538 0
M  V30 4 O -0.8821 -0.7765 -3.15 0
M  V30 5 C -0.027 1.7413 -2.7263 0
M  V30 6 C 0.6593 1.6877 -1.4958 0
M  V30 7 C 0.385 2.6346 -3.7347 0
M  V30 8 C 0.3011 0.8033 -0.3466 0
M  V30 9 C 1.757 2.5494 -1.3061 0
M  V30 10 C 1.4775 3.4781 -3.532 0
M  V30 11 C -0.6262 1.2168 0.5666 0
M  V30 12 C 0.9686 -0.5219 -0.1981 0
M  V30 13 C 2.1513 3.4343 -2.3144 0
M  V30 14 C -0.9993 0.4043 1.7262 0
M  V30 15 C -1.2807 2.5253 0.4813 0
M  V30 16 C 0.2725 -1.711 -0.4169 0
M  V30 17 C 2.3097 -0.6069 0.1724 0
M  V30 18 S 3.5361 4.5017 -2.0281 0
M  V30 19 C -2.1722 0.5878 2.3503 0
M  V30 20 C -2.4588 2.7483 1.082 0
M  V30 21 C 0.9098 -2.9527 -0.2711 0
M  V30 22 C 2.9336 -1.8564 0.317 0
M  V30 23 O 4.5114 3.7595 -1.2604 0
M  V30 24 O 3.0036 5.7665 -1.5775 0
M  V30 25 O 4.2029 4.7246 -3.4789 0
M  V30 26 C -3.1174 1.6544 1.8731 0
M  V30 27 C 2.2595 -3.0696 0.0988 0
M  V30 28 N -4.3947 1.6437 2.1403 0 CHG=1
M  V30 29 N 2.8833 -4.3035 0.2443 0
M  V30 30 C -5.3492 2.6786 1.5863 0
M  V30 31 C -5.0578 0.5183 2.9023 0
M  V30 32 C 4.1678 -4.4389 0.9478 0
M  V30 33 C 2.3135 -5.5396 -0.3142 0
M  V30 34 C -5.4505 3.8644 2.5271 0
M  V30 35 C -5.0005 0.7826 4.3953 0
M  V30 36 C 5.3431 -4.3787 -0.0158 0
M  V30 37 C 2.3974 -5.5673 -1.8347 0
M  V30 38 H -0.8664 -1.0493 -4.0929 0
M  V30 39 H -0.1413 2.6874 -4.6877 0
M  V30 40 H 2.302 2.5433 -0.3621 0
M  V30 41 H 1.7846 4.1677 -4.3168 0
M  V30 42 H -0.32 -0.368 2.08 0
M  V30 43 H -0.8201 3.3265 -0.0893 0
M  V30 44 H -0.776 -1.6944 -0.7049 0
M  V30 45 H 2.8986 0.2867 0.3609 0
M  V30 46 H -2.4269 -0.0482 3.1892 0
M  V30 47 H -2.9293 3.7183 0.9755 0
M  V30 48 H 0.3045 -3.836 -0.4505 0
M  V30 49 H 3.9849 -1.8461 0.5906 0
M  V30 50 H 5.1775 4.7429 -3.3635 0
M  V30 51 H -5.0081 2.9778 0.5903 0
M  V30 52 H -6.3297 2.2105 1.45 0
M  V30 53 H -6.097 0.4347 2.5676 0
M  V30 54 H -4.5688 -0.424 2.6366 0
M  V30 55 H 4.1983 -5.3993 1.4779 0
M  V30 56 H 4.2769 -3.686 1.7374 0
M  V30 57 H 1.2812 -5.6855 0.023 0
M  V30 58 H 2.8612 -6.4113 0.0652 0
M  V30 59 H -4.4737 4.311 2.738 0
M  V30 60 H -6.0856 4.6384 2.0837 0
M  V30 61 H -5.8996 3.5812 3.4837 0
M  V30 62 H -5.5795 1.6693 4.6697 0
M  V30 63 H -5.4242 -0.0672 4.9403 0
M  V30 64 H -3.9763 0.9326 4.7511 0
M  V30 65 H 5.3411 -3.4563 -0.6043 0
M  V30 66 H 5.3221 -5.2206 -0.7147 0
M  V30 67 H 6.2864 -4.4285 0.5372 0
M  V30 68 H 3.4309 -5.4585 -2.1773 0
M  V30 69 H 1.8105 -4.766 -2.2931 0
M  V30 70 H 2.0141 -6.52 -2.214 0
M  V30 END ATOM
M  V30 BEGIN BOND
M  V30 1 2 1 2
M  V30 2 2 1 3
M  V30 3 1 1 4
M  V30 4 1 1 5
M  V30 5 2 5 6
M  V30 6 1 5 7
M  V30 7 1 6 8
M  V30 8 1 6 9
M  V30 9 2 7 10
M  V30 10 2 8 11
M  V30 11 1 8 12
M  V30 12 2 9 13
M  V30 13 1 11 14
M  V30 14 1 11 15
M  V30 15 2 12 16
M  V30 16 1 12 17
M  V30 17 1 13 18
M  V30 18 2 14 19
M  V30 19 2 15 20
M  V30 20 1 16 21
M  V30 21 2 17 22
M  V30 22 2 18 23
M  V30 23 2 18 24
M  V30 24 1 18 25
M  V30 25 1 19 26
M  V30 26 2 21 27
M  V30 27 2 26 28
M  V30 28 1 27 29
M  V30 29 1 28 30
M  V30 30 1 28 31
M  V30 31 1 29 32
M  V30 32 1 29 33
M  V30 33 1 30 34
M  V30 34 1 31 35
M  V30 35 1 32 36
M  V30 36 1 33 37
M  V30 37 1 10 13
M  V30 38 1 20 26
M  V30 39 1 22 27
M  V30 40 1 4 38
M  V30 41 1 7 39
M  V30 42 1 9 40
M  V30 43 1 10 41
M  V30 44 1 14 42
M  V30 45 1 15 43
M  V30 46 1 16 44
M  V30 47 1 17 45
M  V30 48 1 19 46
M  V30 49 1 20 47
M  V30 50 1 21 48
M  V30 51 1 22 49
M  V30 52 1 25 50
M  V30 53 1 30 51
M  V30 54 1 30 52
M  V30 55 1 31 53
M  V30 56 1 31 54
M  V30 57 1 32 55
M  V30 58 1 32 56
M  V30 59 1 33 57
M  V30 60 1 33 58
M  V30 61 1 34 59
M  V30 62 1 34 60
M  V30 63 1 34 61
M  V30 64 1 35 62
M  V30 65 1 35 63
M  V30 66 1 35 64
M  V30 67 1 36 65
M  V30 68 1 36 66
M  V30 69 1 36 67
M  V30 70 1 37 68
M  V30 71 1 37 69
M  V30 72 1 37 70
M  V30 END BOND
M  V30 END CTAB
M  END
>  <Column 1>
3474

>  <level_0>
5715

>  <index>
5716

>  <Unnamed: 0>
5716

>  <NO.>
5728

>  <Name>
schembl180549

>  <IUPAC_name>
2-[[4-(diethylamino)phenyl]-(4-diethylazaniumylidenecyclohexa-2-5-dien-1-ylidene)methyl]benzene-1-4-disulfonate

>  <SMILES>
CCN(CC)c1ccc(C(=C2C=CC(=[N+](CC)CC)C=C2)c2cc(S(=O)(=O)O)ccc2S(=O)(=O)O)cc1

>  <CID>
4695

>  <logBB>


>  <BBB+/BBB->
BBB-

>  <Inchi>
InChI=1S/C27H32N2O6S2/c1-5-28(6-2)22-13-9-20(10-14-22)27(21-11-15-23(16-12-21)29(7-3)8-4)25-19-24(36(30-31)32)17-18-26(25)37(33-34)35/h9-19H-5-8H2-1-4H3-(H--30-31-32-33-34-35)/p+1

>  <threshold>


>  <reference>
R23|

>  <group>
C

>  <Class>
1

>  <ABC>
28.16

>  <ABCGG>
22.79

>  <nAcid>
2

>  <nBase>
1

>  <nAromAtom>
12

>  <nAromBond>
12

>  <nAtom>
70

>  <nHeavyAtom>
37

>  <nSpiro>
0

>  <nBridgehead>
0

>  <nHetero>
10

>  <nN>
2

>  <nO>
6

>  <nF>
0

>  <BalabanJ>
1.87

>  <BertzCT>
1472.37

>  <nBonds>
72

>  <nBondsO>
39

>  <nBondsS>
52

>  <nBondsD>
8

>  <nBondsT>
0

>  <nBondsA>
12

>  <nBondsM>
20

>  <nBondsKS>
58

>  <nBondsKD>
14

>  <RNCG>
0.15

>  <RPCG>
0.08

>  <FCSP3>
0.3

>  <SZ>
48.17

>  <Sm>
45.43

>  <Sv>
44.12

>  <Sse>
70.61

>  <Sp>
47.85

>  <Si>
78.53

>  <MZ>
0.69

>  <Mm>
0.65

>  <Mv>
0.63

>  <Mse>
1.01

>  <Mp>
0.68

>  <Mi>
1.12

>  <NsCH3>
4

>  <NdCH2>
0

>  <NssCH2>
4

>  <NtCH>
0

>  <NdsCH>
4

>  <NaaCH>
7

>  <NsssCH>
0

>  <NddC>
0

>  <NtsC>
0

>  <NdssC>
3

>  <NaasC>
5

>  <NaaaC>
0

>  <NssssC>
0

>  <NsNH3>
0

>  <NsNH2>
0

>  <NssNH2>
0

>  <NdNH>
0

>  <NssNH>
0

>  <NaaNH>
0

>  <NtN>
0

>  <NsssNH>
0

>  <NdsN>
0

>  <NaaN>
0

>  <NsssN>
1

>  <NddsN>
0

>  <NaasN>
0

>  <NssssN>
0

>  <NsOH>
2

>  <NdO>
4

>  <NssO>
0

>  <NaaO>
0

>  <NsF>
0

>  <NsSiH3>
0

>  <NssSiH2>
0

>  <NsssSiH>
0

>  <NssssSi>
0

>  <NsPH2>
0

>  <NssPH>
0

>  <NsssP>
0

>  <NdsssP>
0

>  <NsssssP>
0

>  <NsSH>
0

>  <NdS>
0

>  <NssS>
0

>  <NaaS>
0

>  <NdssS>
0

>  <NddssS>
2

>  <NsCl>
0

>  <NsBr>
0

>  <NsI>
0

>  <fragCpx>
189.1

>  <fMF>
0.27

>  <nHBAcc>
5

>  <nHBDon>
2

>  <Kier1>
31.53

>  <Kier2>
13.57

>  <Lipinski>
0

>  <GhoseFilter>
0

>  <FilterItLogS>
-5.63

>  <VMcGowan>
405.74

>  <LabuteASA>
219.01

>  <PEOE_VSA1>
4.9

>  <PEOE_VSA2>
9.11

>  <PEOE_VSA3>
4.58

>  <PEOE_VSA4>
16.84

>  <PEOE_VSA5>
0

>  <PEOE_VSA6>
12.13

>  <PEOE_VSA7>
86.89

>  <PEOE_VSA8>
36.49

>  <PEOE_VSA9>
4.9

>  <PEOE_VSA10>
17.99

>  <PEOE_VSA11>
5.71

>  <PEOE_VSA12>
0

>  <PEOE_VSA13>
20.24

>  <SMR_VSA1>
30.52

>  <SMR_VSA2>
0

>  <SMR_VSA3>
0

>  <SMR_VSA4>
0

>  <SMR_VSA5>
37.49

>  <SMR_VSA6>
31.08

>  <SMR_VSA7>
83.47

>  <SMR_VSA8>
0

>  <SMR_VSA9>
0

>  <SlogP_VSA1>
4.9

>  <SlogP_VSA2>
62.41

>  <SlogP_VSA3>
20.24

>  <SlogP_VSA4>
0

>  <SlogP_VSA5>
38.82

>  <SlogP_VSA6>
82.13

>  <SlogP_VSA7>
0

>  <SlogP_VSA8>
5.57

>  <SlogP_VSA9>
0

>  <SlogP_VSA10>
5.69

>  <SlogP_VSA11>
0

>  <EState_VSA1>
30.03

>  <EState_VSA2>
5.56

>  <EState_VSA3>
16.71

>  <EState_VSA4>
55.78

>  <EState_VSA5>
0

>  <EState_VSA6>
0

>  <EState_VSA7>
76.26

>  <EState_VSA8>
9.48

>  <EState_VSA9>
0

>  <EState_VSA10>
25.94

>  <VSA_EState1>
70.39

>  <VSA_EState2>
1.22

>  <VSA_EState3>
0

>  <VSA_EState4>
3.55

>  <VSA_EState5>
0

>  <VSA_EState6>
10.49

>  <VSA_EState7>
7.48

>  <VSA_EState8>
11.42

>  <VSA_EState9>
-9.37

>  <apol>
79.91

>  <bpol>
49.84

>  <nRing>
3

>  <nHRing>
0

>  <naRing>
2

>  <naHRing>
0

>  <nARing 2>
1

>  <nAHRing 2>
0

>  <nFRing>
0

>  <nFHRing>
0

>  <nFaRing>
0

>  <nFaHRing>
0

>  <nFARing 2>
0

>  <nFAHRing 2>
0

>  <nRot>
9

>  <SLogP>
4.45

>  <SMR>
146.73

>  <TopoPSA(NO)>
114.99

>  <TopoPSA>
131.75

>  <JGI1>
0.26

>  <JGI2>
0.1

>  <JGI3>
0.05

>  <JGI4>
0.03

>  <JGI5>
0.03

>  <Diameter>
14

>  <Radius>
7

>  <TMWC10>
155.33

>  <TSRW10>
73.89

>  <MW>
545.18

>  <AMW>
7.79

>  <WPath>
4140

>  <WPol>
64

>  <Zagreb1>
192

>  <Zagreb2>
226

>  <mZagreb2>
8.25

>  <yes>


>  <nAR-cont>
0.816016

>  <nHA-cont>
0.433355441

>  <MWHBN>
0.299797552

>  <MWHBN-cont>
0.841343184

>  <TPSA-cont>
0

>  <pka_cont>
0.97

>  <yes.1>


>  <BBB_SCORE>
2.996386217

>  <MMFF94 Energy>
26.302

$$$$
Compound 2755
Actelion Java MolfileCreator 2.0

  0  0  0  0  0  0              0 V3000
M  V30 BEGIN CTAB
M  V30 COUNTS 52 53 0 0 0
M  V30 BEGIN ATOM
M  V30 1 O -1.4892 2.9016 0.0783 0
M  V30 2 C -2.1296 1.7579 -0.3096 0
M  V30 3 C -1.7604 0.5373 0.2697 0
M  V30 4 C -3.1255 1.8236 -1.2843 0
M  V30 5 C -2.4251 -0.6266 -0.1609 0
M  V30 6 C -0.6574 0.455 1.3255 0 CFG=2
M  V30 7 C -3.7738 0.6589 -1.6953 0
M  V30 8 C -3.4384 -0.5737 -1.1283 0
M  V30 9 C -1.1753 -0.1478 2.6368 0
M  V30 10 C 0.6111 -0.2342 0.758 0
M  V30 11 C -4.1121 -1.8329 -1.5874 0
M  V30 12 C -0.8793 -1.4546 3.054 0
M  V30 13 C -2.006 0.6384 3.4564 0
M  V30 14 C 1.2692 0.5884 -0.3664 0
M  V30 15 C -1.3893 -1.954 4.2558 0
M  V30 16 C -2.5154 0.1382 4.656 0
M  V30 17 N 2.5884 0.0471 -0.7876 0
M  V30 18 C -2.2054 -1.1582 5.0563 0
M  V30 19 C 3.3795 1.1116 -1.4564 0
M  V30 20 C 2.4065 -1.2016 -1.5536 0
M  V30 21 C 4.8846 0.9331 -1.2206 0
M  V30 22 C 3.0752 1.3384 -2.9408 0
M  V30 23 C 3.6797 -1.9805 -1.8603 0
M  V30 24 H -1.8871 3.6553 -0.3875 0
M  V30 25 H -3.4067 2.7688 -1.7383 0
M  V30 26 H -2.1556 -1.5889 0.271 0
M  V30 27 H -0.3407 1.4708 1.6005 0
M  V30 28 H -4.5448 0.7193 -2.4601 0
M  V30 29 H 1.3441 -0.3582 1.5667 0
M  V30 30 H 0.3585 -1.2374 0.3989 0
M  V30 31 H -4.1864 -2.5562 -0.7685 0
M  V30 32 H -3.5448 -2.2826 -2.4079 0
M  V30 33 H -5.1312 -1.6285 -1.9326 0
M  V30 34 H -0.2511 -2.1066 2.4535 0
M  V30 35 H -2.263 1.6524 3.1543 0
M  V30 36 H 0.6025 0.6729 -1.2329 0
M  V30 37 H 1.4012 1.6021 0.0326 0
M  V30 38 H -1.1484 -2.9674 4.5659 0
M  V30 39 H -3.1551 0.7616 5.2748 0
M  V30 40 H -2.601 -1.5492 5.9897 0
M  V30 41 H 3.1569 2.062 -0.9516 0
M  V30 42 H 1.7921 -1.8927 -0.9675 0
M  V30 43 H 1.852 -1.0237 -2.4831 0
M  V30 44 H 5.0949 0.73 -0.1647 0
M  V30 45 H 5.4165 1.8548 -1.4845 0
M  V30 46 H 5.3228 0.1328 -1.819 0
M  V30 47 H 3.6079 2.2241 -3.3051 0
M  V30 48 H 3.3868 0.4942 -3.5628 0
M  V30 49 H 2.0065 1.512 -3.1044 0
M  V30 50 H 3.4223 -2.9918 -2.1943 0
M  V30 51 H 4.312 -2.0784 -0.972 0
M  V30 52 H 4.2569 -1.5205 -2.6656 0
M  V30 END ATOM
M  V30 BEGIN BOND
M  V30 1 1 1 2
M  V30 2 2 2 3
M  V30 3 1 2 4
M  V30 4 1 3 5
M  V30 5 1 3 6
M  V30 6 2 4 7
M  V30 7 2 5 8
M  V30 8 1 6 9
M  V30 9 1 6 10
M  V30 10 1 8 11
M  V30 11 2 9 12
M  V30 12 1 9 13
M  V30 13 1 10 14
M  V30 14 1 12 15
M  V30 15 2 13 16
M  V30 16 1 14 17
M  V30 17 2 15 18
M  V30 18 1 17 19
M  V30 19 1 17 20
M  V30 20 1 19 21
M  V30 21 1 19 22
M  V30 22 1 20 23
M  V30 23 1 7 8
M  V30 24 1 16 18
M  V30 25 1 1 24
M  V30 26 1 4 25
M  V30 27 1 5 26
M  V30 28 1 6 27
M  V30 29 1 7 28
M  V30 30 1 10 29
M  V30 31 1 10 30
M  V30 32 1 11 31
M  V30 33 1 11 32
M  V30 34 1 11 33
M  V30 35 1 12 34
M  V30 36 1 13 35
M  V30 37 1 14 36
M  V30 38 1 14 37
M  V30 39 1 15 38
M  V30 40 1 16 39
M  V30 41 1 18 40
M  V30 42 1 19 41
M  V30 43 1 20 42
M  V30 44 1 20 43
M  V30 45 1 21 44
M  V30 46 1 21 45
M  V30 47 1 21 46
M  V30 48 1 22 47
M  V30 49 1 22 48
M  V30 50 1 22 49
M  V30 51 1 23 50
M  V30 52 1 23 51
M  V30 53 1 23 52
M  V30 END BOND
M  V30 BEGIN COLLECTION
M  V30 MDLV30/STERAC1 ATOMS=(1 6)
M  V30 END COLLECTION
M  V30 END CTAB
M  END
>  <Column 1>
3475

>  <level_0>
5716

>  <index>
5717

>  <Unnamed: 0>
5717

>  <NO.>
5729

>  <Name>
tolterodine

>  <IUPAC_name>
2-[3-[ethyl(propan-2-yl)amino]-1-phenylpropyl]-4-methylphenol

>  <SMILES>
CCN(CCC(c1ccccc1)c1cc(C)ccc1O)C(C)C

>  <CID>
20625091

>  <logBB>


>  <BBB+/BBB->
BBB+

>  <Inchi>
InChI=1S/C21H29NO/c1-5-22(16(2)3)14-13-19(18-9-7-6-8-10-18)20-15-17(4)11-12-21(20)23/h6-12-15-16-19-23H-5-13-14H2-1-4H3

>  <threshold>


>  <reference>
R23|

>  <group>
C

>  <Class>
-1

>  <ABC>
17.25

>  <ABCGG>
15.06

>  <nAcid>
0

>  <nBase>
1

>  <nAromAtom>
12

>  <nAromBond>
12

>  <nAtom>
52

>  <nHeavyAtom>
23

>  <nSpiro>
0

>  <nBridgehead>
0

>  <nHetero>
2

>  <nN>
1

>  <nO>
1

>  <nF>
0

>  <BalabanJ>
2.04

>  <BertzCT>
606.49

>  <nBonds>
53

>  <nBondsO>
24

>  <nBondsS>
41

>  <nBondsD>
0

>  <nBondsT>
0

>  <nBondsA>
12

>  <nBondsM>
12

>  <nBondsKS>
47

>  <nBondsKD>
6

>  <RNCG>
0.33

>  <RPCG>
0.19

>  <FCSP3>
0.43

>  <SZ>
28.33

>  <Sm>
25.93

>  <Sv>
30.33

>  <Sse>
50.87

>  <Sp>
33.72

>  <Si>
58.52

>  <MZ>
0.54

>  <Mm>
0.5

>  <Mv>
0.58

>  <Mse>
0.98

>  <Mp>
0.65

>  <Mi>
1.13

>  <NsCH3>
4

>  <NdCH2>
0

>  <NssCH2>
3

>  <NtCH>
0

>  <NdsCH>
0

>  <NaaCH>
8

>  <NsssCH>
2

>  <NddC>
0

>  <NtsC>
0

>  <NdssC>
0

>  <NaasC>
4

>  <NaaaC>
0

>  <NssssC>
0

>  <NsNH3>
0

>  <NsNH2>
0

>  <NssNH2>
0

>  <NdNH>
0

>  <NssNH>
0

>  <NaaNH>
0

>  <NtN>
0

>  <NsssNH>
0

>  <NdsN>
0

>  <NaaN>
0

>  <NsssN>
1

>  <NddsN>
0

>  <NaasN>
0

>  <NssssN>
0

>  <NsOH>
1

>  <NdO>
0

>  <NssO>
0

>  <NaaO>
0

>  <NsF>
0

>  <NsSiH3>
0

>  <NssSiH2>
0

>  <NsssSiH>
0

>  <NssssSi>
0

>  <NsPH2>
0

>  <NssPH>
0

>  <NsssP>
0

>  <NdsssP>
0

>  <NsssssP>
0

>  <NsSH>
0

>  <NdS>
0

>  <NssS>
0

>  <NaaS>
0

>  <NdssS>
0

>  <NddssS>
0

>  <NsCl>
0

>  <NsBr>
0

>  <NsI>
0

>  <fragCpx>
70.02

>  <fMF>
0.25

>  <nHBAcc>
2

>  <nHBDon>
1

>  <Kier1>
19.33

>  <Kier2>
9.47

>  <Lipinski>
1

>  <GhoseFilter>
1

>  <FilterItLogS>
-5.31

>  <VMcGowan>
275.08

>  <LabuteASA>
140.33

>  <PEOE_VSA1>
10.01

>  <PEOE_VSA2>
0

>  <PEOE_VSA3>
0

>  <PEOE_VSA4>
0

>  <PEOE_VSA5>
0

>  <PEOE_VSA6>
54.95

>  <PEOE_VSA7>
51.91

>  <PEOE_VSA8>
17.52

>  <PEOE_VSA9>
0

>  <PEOE_VSA10>
5.75

>  <PEOE_VSA11>
0

>  <PEOE_VSA12>
0

>  <PEOE_VSA13>
0

>  <SMR_VSA1>
5.11

>  <SMR_VSA2>
0

>  <SMR_VSA3>
4.9

>  <SMR_VSA4>
0

>  <SMR_VSA5>
46.08

>  <SMR_VSA6>
13.09

>  <SMR_VSA7>
65.22

>  <SMR_VSA8>
0

>  <SMR_VSA9>
5.75

>  <SlogP_VSA1>
0

>  <SlogP_VSA2>
29.14

>  <SlogP_VSA3>
0

>  <SlogP_VSA4>
6.92

>  <SlogP_VSA5>
49.8

>  <SlogP_VSA6>
48.53

>  <SlogP_VSA7>
0

>  <SlogP_VSA8>
0

>  <SlogP_VSA9>
0

>  <SlogP_VSA10>
0

>  <SlogP_VSA11>
5.75

>  <EState_VSA1>
0

>  <EState_VSA2>
5.92

>  <EState_VSA3>
11.79

>  <EState_VSA4>
25.07

>  <EState_VSA5>
11.13

>  <EState_VSA6>
0

>  <EState_VSA7>
18.2

>  <EState_VSA8>
62.93

>  <EState_VSA9>
0

>  <EState_VSA10>
5.11

>  <VSA_EState1>
0

>  <VSA_EState2>
2.47

>  <VSA_EState3>
10.38

>  <VSA_EState4>
3.5

>  <VSA_EState5>
0.63

>  <VSA_EState6>
16.98

>  <VSA_EState7>
1.01

>  <VSA_EState8>
10.86

>  <VSA_EState9>
0

>  <apol>
56.31

>  <bpol>
30.8

>  <nRing>
2

>  <nHRing>
0

>  <naRing>
2

>  <naHRing>
0

>  <nARing 2>
0

>  <nAHRing 2>
0

>  <nFRing>
0

>  <nFHRing>
0

>  <nFaRing>
0

>  <nFaHRing>
0

>  <nFARing 2>
0

>  <nFAHRing 2>
0

>  <nRot>
7

>  <SLogP>
4.95

>  <SMR>
98.13

>  <TopoPSA(NO)>
23.47

>  <TopoPSA>
23.47

>  <JGI1>
0.19

>  <JGI2>
0.09

>  <JGI3>
0.05

>  <JGI4>
0.03

>  <JGI5>
0.02

>  <Diameter>
9

>  <Radius>
5

>  <TMWC10>
120.08

>  <TSRW10>
56.82

>  <MW>
311.22

>  <AMW>
5.99

>  <WPath>
1176

>  <WPol>
34

>  <Zagreb1>
112

>  <Zagreb2>
128

>  <mZagreb2>
5.28

>  <yes>


>  <nAR-cont>
0.336376

>  <nHA-cont>
0.967789328

>  <MWHBN>
0.170054256

>  <MWHBN-cont>
0.974049886

>  <TPSA-cont>
0.836164826

>  <pka_cont>
0.97

>  <yes.1>


>  <BBB_SCORE>
4.922569809

>  <MMFF94 Energy>
51.683

$$$$
Compound 2756
Actelion Java MolfileCreator 2.0

  0  0  0  0  0  0              0 V3000
M  V30 BEGIN CTAB
M  V30 COUNTS 49 50 0 0 0
M  V30 BEGIN ATOM
M  V30 1 Cl -6.1717 4.1904 -1.4216 0
M  V30 2 C -4.5643 3.6096 -1.2253 0
M  V30 3 C -3.9476 2.9103 -2.2572 0
M  V30 4 C -3.8867 3.8461 -0.0399 0
M  V30 5 C -2.6527 2.4308 -2.1312 0
M  V30 6 C -2.5836 3.3697 0.1078 0
M  V30 7 N -2.1387 1.7822 -3.1826 0
M  V30 8 C -1.9362 2.6444 -0.9255 0
M  V30 9 C -0.8794 1.3244 -3.0801 0
M  V30 10 C -0.6089 2.1244 -0.8327 0
M  V30 11 C -0.0915 1.4756 -1.955 0
M  V30 12 N 0.1465 2.3039 0.3205 0
M  V30 13 C 1.5693 2.0341 0.4925 0 CFG=2
M  V30 14 C 1.7707 0.7886 1.3725 0
M  V30 15 C 2.1937 3.2568 1.173 0
M  V30 16 C 1.3502 -0.5122 0.6775 0
M  V30 17 C 1.6074 -1.7269 1.5824 0
M  V30 18 N 1.2629 -3.046 1.0228 0
M  V30 19 C 2.1748 -3.4116 -0.0865 0
M  V30 20 C -0.1509 -3.1883 0.6336 0
M  V30 21 C 2.1032 -4.8892 -0.5124 0
M  V30 22 C -1.1404 -2.8702 1.7528 0
M  V30 23 O 1.0939 -5.088 -1.4994 0
M  V30 24 H -4.4817 2.7335 -3.1876 0
M  V30 25 H -4.358 4.3988 0.7683 0
M  V30 26 H -2.0754 3.5848 1.0428 0
M  V30 27 H -0.5022 0.808 -3.9584 0
M  V30 28 H 0.9049 1.0551 -1.9737 0
M  V30 29 H -0.3506 2.5535 1.1659 0
M  V30 30 H 2.0898 1.9058 -0.4616 0
M  V30 31 H 2.8309 0.7115 1.646 0
M  V30 32 H 1.2082 0.8968 2.3092 0
M  V30 33 H 1.7413 3.4452 2.1534 0
M  V30 34 H 2.0478 4.1556 0.5634 0
M  V30 35 H 3.2703 3.1167 1.3158 0
M  V30 36 H 0.2874 -0.4595 0.422 0
M  V30 37 H 1.9115 -0.6107 -0.2578 0
M  V30 38 H 2.6666 -1.7377 1.8728 0
M  V30 39 H 1.0729 -1.5913 2.5308 0
M  V30 40 H 3.2031 -3.24 0.2556 0
M  V30 41 H 2.0007 -2.7711 -0.9593 0
M  V30 42 H -0.3862 -2.576 -0.2451 0
M  V30 43 H -0.3436 -4.2301 0.3566 0
M  V30 44 H 3.0575 -5.1856 -0.9603 0
M  V30 45 H 1.9092 -5.5443 0.3437 0
M  V30 46 H -2.1547 -3.1392 1.439 0
M  V30 47 H -1.1492 -1.8052 2.0031 0
M  V30 48 H -0.9088 -3.4408 2.6583 0
M  V30 49 H 1.0302 -6.0473 -1.6447 0
M  V30 END ATOM
M  V30 BEGIN BOND
M  V30 1 1 1 2
M  V30 2 2 2 3
M  V30 3 1 2 4
M  V30 4 1 3 5
M  V30 5 2 4 6
M  V30 6 2 5 7
M  V30 7 1 5 8
M  V30 8 1 7 9
M  V30 9 2 8 10
M  V30 10 2 9 11
M  V30 11 1 10 12
M  V30 12 1 12 13
M  V30 13 1 13 14
M  V30 14 1 13 15
M  V30 15 1 14 16
M  V30 16 1 16 17
M  V30 17 1 17 18
M  V30 18 1 18 19
M  V30 19 1 18 20
M  V30 20 1 19 21
M  V30 21 1 20 22
M  V30 22 1 21 23
M  V30 23 1 6 8
M  V30 24 1 10 11
M  V30 25 1 3 24
M  V30 26 1 4 25
M  V30 27 1 6 26
M  V30 28 1 9 27
M  V30 29 1 11 28
M  V30 30 1 12 29
M  V30 31 1 13 30
M  V30 32 1 14 31
M  V30 33 1 14 32
M  V30 34 1 15 33
M  V30 35 1 15 34
M  V30 36 1 15 35
M  V30 37 1 16 36
M  V30 38 1 16 37
M  V30 39 1 17 38
M  V30 40 1 17 39
M  V30 41 1 19 40
M  V30 42 1 19 41
M  V30 43 1 20 42
M  V30 44 1 20 43
M  V30 45 1 21 44
M  V30 46 1 21 45
M  V30 47 1 22 46
M  V30 48 1 22 47
M  V30 49 1 22 48
M  V30 50 1 23 49
M  V30 END BOND
M  V30 BEGIN COLLECTION
M  V30 MDLV30/STERAC1 ATOMS=(1 13)
M  V30 END COLLECTION
M  V30 END CTAB
M  END
>  <Column 1>
3476

>  <level_0>
5717

>  <index>
5718

>  <Unnamed: 0>
5718

>  <NO.>
5730

>  <Name>
hydroxychloroquine

>  <IUPAC_name>
2-[4-[(7-chloroquinolin-4-yl)amino]pentyl-ethylamino]ethanol

>  <SMILES>
CCN(CCO)CCCC(C)Nc1ccnc2cc(Cl)ccc12

>  <CID>
3652

>  <logBB>


>  <BBB+/BBB->
BBB-

>  <Inchi>
InChI=1S/C18H26ClN3O/c1-3-22(11-12-23)10-4-5-14(2)21-17-8-9-20-18-13-15(19)6-7-16(17)18/h6-9-13-14-23H-3-5-10-12H2-1-2H3-(H-20-21)

>  <threshold>


>  <reference>
R23|

>  <group>
C

>  <Class>
-1

>  <ABC>
17.11

>  <ABCGG>
13.91

>  <nAcid>
0

>  <nBase>
1

>  <nAromAtom>
10

>  <nAromBond>
11

>  <nAtom>
49

>  <nHeavyAtom>
23

>  <nSpiro>
0

>  <nBridgehead>
0

>  <nHetero>
5

>  <nN>
3

>  <nO>
1

>  <nF>
0

>  <BalabanJ>
1.7

>  <BertzCT>
620.24

>  <nBonds>
50

>  <nBondsO>
24

>  <nBondsS>
39

>  <nBondsD>
0

>  <nBondsT>
0

>  <nBondsA>
11

>  <nBondsM>
11

>  <nBondsKS>
45

>  <nBondsKD>
5

>  <RNCG>
0.23

>  <RPCG>
0.12

>  <FCSP3>
0.5

>  <SZ>
30

>  <Sm>
27.96

>  <Sv>
29.12

>  <Sse>
48.63

>  <Sp>
32.14

>  <Si>
55.63

>  <MZ>
0.61

>  <Mm>
0.57

>  <Mv>
0.59

>  <Mse>
0.99

>  <Mp>
0.66

>  <Mi>
1.14

>  <NsCH3>
2

>  <NdCH2>
0

>  <NssCH2>
6

>  <NtCH>
0

>  <NdsCH>
0

>  <NaaCH>
5

>  <NsssCH>
1

>  <NddC>
0

>  <NtsC>
0

>  <NdssC>
0

>  <NaasC>
2

>  <NaaaC>
2

>  <NssssC>
0

>  <NsNH3>
0

>  <NsNH2>
0

>  <NssNH2>
0

>  <NdNH>
0

>  <NssNH>
1

>  <NaaNH>
0

>  <NtN>
0

>  <NsssNH>
0

>  <NdsN>
0

>  <NaaN>
1

>  <NsssN>
1

>  <NddsN>
0

>  <NaasN>
0

>  <NssssN>
0

>  <NsOH>
1

>  <NdO>
0

>  <NssO>
0

>  <NaaO>
0

>  <NsF>
0

>  <NsSiH3>
0

>  <NssSiH2>
0

>  <NsssSiH>
0

>  <NssssSi>
0

>  <NsPH2>
0

>  <NssPH>
0

>  <NsssP>
0

>  <NdsssP>
0

>  <NsssssP>
0

>  <NsSH>
0

>  <NdS>
0

>  <NssS>
0

>  <NaaS>
0

>  <NdssS>
0

>  <NddssS>
0

>  <NsCl>
1

>  <NsBr>
0

>  <NsI>
0

>  <fragCpx>
70.05

>  <fMF>
0.2

>  <nHBAcc>
4

>  <nHBDon>
2

>  <Kier1>
19.33

>  <Kier2>
10.1

>  <Lipinski>
1

>  <GhoseFilter>
1

>  <FilterItLogS>
-5.59

>  <VMcGowan>
269.31

>  <LabuteASA>
143.02

>  <PEOE_VSA1>
15.32

>  <PEOE_VSA2>
4.98

>  <PEOE_VSA3>
0

>  <PEOE_VSA4>
0

>  <PEOE_VSA5>
0

>  <PEOE_VSA6>
18.52

>  <PEOE_VSA7>
57.12

>  <PEOE_VSA8>
34.88

>  <PEOE_VSA9>
12.12

>  <PEOE_VSA10>
0

>  <PEOE_VSA11>
0

>  <PEOE_VSA12>
0

>  <PEOE_VSA13>
0

>  <SMR_VSA1>
5.11

>  <SMR_VSA2>
0

>  <SMR_VSA3>
9.88

>  <SMR_VSA4>
0

>  <SMR_VSA5>
32.73

>  <SMR_VSA6>
31.56

>  <SMR_VSA7>
35.48

>  <SMR_VSA8>
0

>  <SMR_VSA9>
0

>  <SlogP_VSA1>
5.32

>  <SlogP_VSA2>
47.27

>  <SlogP_VSA3>
0

>  <SlogP_VSA4>
0

>  <SlogP_VSA5>
26.69

>  <SlogP_VSA6>
30.46

>  <SlogP_VSA7>
5.02

>  <SlogP_VSA8>
10.9

>  <SlogP_VSA9>
0

>  <SlogP_VSA10>
5.69

>  <SlogP_VSA11>
0

>  <EState_VSA1>
0

>  <EState_VSA2>
6.61

>  <EState_VSA3>
11.06

>  <EState_VSA4>
49.07

>  <EState_VSA5>
0

>  <EState_VSA6>
0

>  <EState_VSA7>
30.46

>  <EState_VSA8>
29.05

>  <EState_VSA9>
16.71

>  <EState_VSA10>
0

>  <VSA_EState1>
0

>  <VSA_EState2>
6.65

>  <VSA_EState3>
14.4

>  <VSA_EState4>
2.01

>  <VSA_EState5>
0

>  <VSA_EState6>
8.19

>  <VSA_EState7>
4

>  <VSA_EState8>
7.32

>  <VSA_EState9>
0

>  <apol>
53.68

>  <bpol>
30.01

>  <nRing>
2

>  <nHRing>
1

>  <naRing>
2

>  <naHRing>
1

>  <nARing 2>
0

>  <nAHRing 2>
0

>  <nFRing>
1

>  <nFHRing>
1

>  <nFaRing>
1

>  <nFaHRing>
1

>  <nFARing 2>
0

>  <nFAHRing 2>
0

>  <nRot>
9

>  <SLogP>
3.78

>  <SMR>
98.27

>  <TopoPSA(NO)>
48.39

>  <TopoPSA>
48.39

>  <JGI1>
0.19

>  <JGI2>
0.07

>  <JGI3>
0.04

>  <JGI4>
0.04

>  <JGI5>
0.03

>  <Diameter>
14

>  <Radius>
7

>  <TMWC10>
119.52

>  <TSRW10>
56.63

>  <MW>
335.18

>  <AMW>
6.84

>  <WPath>
1390

>  <WPol>
32

>  <Zagreb1>
110

>  <Zagreb2>
124

>  <mZagreb2>
5.39

>  <yes>


>  <nAR-cont>
0.336376

>  <nHA-cont>
0.967789328

>  <MWHBN>
0.327726985

>  <MWHBN-cont>
0.750775252

>  <TPSA-cont>
0.662207752

>  <pka_cont>
0.97

>  <yes.1>


>  <BBB_SCORE>
4.239743709

>  <MMFF94 Energy>
57.88

$$$$
Compound 2757
Actelion Java MolfileCreator 2.0

  0  0  0  0  0  0              0 V3000
M  V30 BEGIN CTAB
M  V30 COUNTS 41 42 0 0 0
M  V30 BEGIN ATOM
M  V30 1 O 0.552 0.6309 1.9726 0
M  V30 2 C 0.2215 0.4637 0.793 0
M  V30 3 N -0.14 -0.797 0.3177 0
M  V30 4 C 0.1734 1.6613 -0.1683 0 CFG=1
M  V30 5 C -0.1645 -1.9118 1.2682 0
M  V30 6 C -0.4878 -1.0941 -1.0759 0
M  V30 7 C -1.2343 2.2311 -0.3301 0
M  V30 8 C 1.1401 2.753 0.3212 0
M  V30 9 C 1.0467 -2.8041 1.1731 0
M  V30 10 C 0.7253 -1.3989 -1.943 0
M  V30 11 C -1.6317 2.7433 -1.5761 0
M  V30 12 C -2.1398 2.2955 0.7407 0
M  V30 13 O 1.5319 3.5904 -0.7715 0
M  V30 14 C 0.9365 -4.1205 0.7153 0
M  V30 15 C 2.3097 -2.3365 1.5491 0
M  V30 16 C -2.9083 3.2788 -1.7534 0
M  V30 17 C -3.417 2.8309 0.5606 0
M  V30 18 C 2.0823 -4.8982 0.6453 0
M  V30 19 C 3.3953 -3.1908 1.443 0
M  V30 20 C -3.8021 3.3187 -0.686 0
M  V30 21 N 3.31 -4.4621 0.9966 0
M  V30 22 H 0.5289 1.3289 -1.149 0
M  V30 23 H -0.2397 -1.5428 2.2982 0
M  V30 24 H -1.085 -2.4828 1.0945 0
M  V30 25 H -1.0283 -0.2476 -1.5051 0
M  V30 26 H -1.183 -1.9411 -1.0952 0
M  V30 27 H 2.0599 2.3134 0.7223 0
M  V30 28 H 0.6917 3.3815 1.099 0
M  V30 29 H 1.2153 -2.3263 -1.6364 0
M  V30 30 H 1.4715 -0.6006 -1.8932 0
M  V30 31 H 0.4196 -1.5167 -2.9874 0
M  V30 32 H -0.9386 2.7384 -2.4155 0
M  V30 33 H -1.8616 1.9358 1.7299 0
M  V30 34 H 2.0407 4.3265 -0.3888 0
M  V30 35 H -0.018 -4.5384 0.4141 0
M  V30 36 H 2.447 -1.3258 1.9214 0
M  V30 37 H -3.2012 3.6725 -2.7231 0
M  V30 38 H -4.1095 2.8727 1.3975 0
M  V30 39 H 2.0405 -5.925 0.2933 0
M  V30 40 H 4.392 -2.864 1.725 0
M  V30 41 H -4.7949 3.7391 -0.8229 0
M  V30 END ATOM
M  V30 BEGIN BOND
M  V30 1 2 1 2
M  V30 2 1 2 3
M  V30 3 1 2 4
M  V30 4 1 3 5
M  V30 5 1 3 6
M  V30 6 1 4 7
M  V30 7 1 4 8
M  V30 8 1 5 9
M  V30 9 1 6 10
M  V30 10 2 7 11
M  V30 11 1 7 12
M  V30 12 1 8 13
M  V30 13 2 9 14
M  V30 14 1 9 15
M  V30 15 1 11 16
M  V30 16 2 12 17
M  V30 17 1 14 18
M  V30 18 2 15 19
M  V30 19 2 16 20
M  V30 20 2 18 21
M  V30 21 1 17 20
M  V30 22 1 19 21
M  V30 23 1 4 22
M  V30 24 1 5 23
M  V30 25 1 5 24
M  V30 26 1 6 25
M  V30 27 1 6 26
M  V30 28 1 8 27
M  V30 29 1 8 28
M  V30 30 1 10 29
M  V30 31 1 10 30
M  V30 32 1 10 31
M  V30 33 1 11 32
M  V30 34 1 12 33
M  V30 35 1 13 34
M  V30 36 1 14 35
M  V30 37 1 15 36
M  V30 38 1 16 37
M  V30 39 1 17 38
M  V30 40 1 18 39
M  V30 41 1 19 40
M  V30 42 1 20 41
M  V30 END BOND
M  V30 BEGIN COLLECTION
M  V30 MDLV30/STERAC1 ATOMS=(1 4)
M  V30 END COLLECTION
M  V30 END CTAB
M  END
>  <Column 1>
3477

>  <level_0>
5718

>  <index>
5719

>  <Unnamed: 0>
5719

>  <NO.>
5731

>  <Name>
tropicamide

>  <IUPAC_name>
n-ethyl-3-hydroxy-2-phenyl-n-(pyridin-4-ylmethyl)propanamide

>  <SMILES>
CCN(Cc1ccncc1)C(=O)C(CO)c1ccccc1

>  <CID>
5593

>  <logBB>


>  <BBB+/BBB->
BBB-

>  <Inchi>
InChI=1S/C17H20N2O2/c1-2-19(12-14-8-10-18-11-9-14)17(21)16(13-20)15-6-4-3-5-7-15/h3-11-16-20H-2-12-13H2-1H3

>  <threshold>


>  <reference>
R23|

>  <group>
C

>  <Class>
-1

>  <ABC>
15.54

>  <ABCGG>
13.65

>  <nAcid>
0

>  <nBase>
0

>  <nAromAtom>
12

>  <nAromBond>
12

>  <nAtom>
41

>  <nHeavyAtom>
21

>  <nSpiro>
0

>  <nBridgehead>
0

>  <nHetero>
4

>  <nN>
2

>  <nO>
2

>  <nF>
0

>  <BalabanJ>
1.9

>  <BertzCT>
557.52

>  <nBonds>
42

>  <nBondsO>
22

>  <nBondsS>
29

>  <nBondsD>
1

>  <nBondsT>
0

>  <nBondsA>
12

>  <nBondsM>
13

>  <nBondsKS>
35

>  <nBondsKD>
7

>  <RNCG>
0.22

>  <RPCG>
0.13

>  <FCSP3>
0.29

>  <SZ>
25.33

>  <Sm>
23.67

>  <Sv>
25.36

>  <Sse>
40.87

>  <Sp>
27.26

>  <Si>
46.15

>  <MZ>
0.62

>  <Mm>
0.58

>  <Mv>
0.62

>  <Mse>
1

>  <Mp>
0.66

>  <Mi>
1.13

>  <NsCH3>
1

>  <NdCH2>
0

>  <NssCH2>
3

>  <NtCH>
0

>  <NdsCH>
0

>  <NaaCH>
9

>  <NsssCH>
1

>  <NddC>
0

>  <NtsC>
0

>  <NdssC>
1

>  <NaasC>
2

>  <NaaaC>
0

>  <NssssC>
0

>  <NsNH3>
0

>  <NsNH2>
0

>  <NssNH2>
0

>  <NdNH>
0

>  <NssNH>
0

>  <NaaNH>
0

>  <NtN>
0

>  <NsssNH>
0

>  <NdsN>
0

>  <NaaN>
1

>  <NsssN>
1

>  <NddsN>
0

>  <NaasN>
0

>  <NssssN>
0

>  <NsOH>
1

>  <NdO>
1

>  <NssO>
0

>  <NaaO>
0

>  <NsF>
0

>  <NsSiH3>
0

>  <NssSiH2>
0

>  <NsssSiH>
0

>  <NssssSi>
0

>  <NsPH2>
0

>  <NssPH>
0

>  <NsssP>
0

>  <NdsssP>
0

>  <NsssssP>
0

>  <NsSH>
0

>  <NdS>
0

>  <NssS>
0

>  <NaaS>
0

>  <NdssS>
0

>  <NddssS>
0

>  <NsCl>
0

>  <NsBr>
0

>  <NsI>
0

>  <fragCpx>
64.04

>  <fMF>
0.39

>  <nHBAcc>
3

>  <nHBDon>
1

>  <Kier1>
17.36

>  <Kier2>
9.21

>  <Lipinski>
1

>  <GhoseFilter>
1

>  <FilterItLogS>
-3.54

>  <VMcGowan>
230.27

>  <LabuteASA>
124.61

>  <PEOE_VSA1>
10.01

>  <PEOE_VSA2>
9.78

>  <PEOE_VSA3>
0

>  <PEOE_VSA4>
0

>  <PEOE_VSA5>
0

>  <PEOE_VSA6>
30.33

>  <PEOE_VSA7>
30.18

>  <PEOE_VSA8>
25.48

>  <PEOE_VSA9>
12.52

>  <PEOE_VSA10>
0

>  <PEOE_VSA11>
0

>  <PEOE_VSA12>
5.91

>  <PEOE_VSA13>
0

>  <SMR_VSA1>
9.9

>  <SMR_VSA2>
0

>  <SMR_VSA3>
9.88

>  <SMR_VSA4>
0

>  <SMR_VSA5>
19.39

>  <SMR_VSA6>
13.15

>  <SMR_VSA7>
65.99

>  <SMR_VSA8>
0

>  <SMR_VSA9>
0

>  <SlogP_VSA1>
0

>  <SlogP_VSA2>
34.05

>  <SlogP_VSA3>
11.34

>  <SlogP_VSA4>
0

>  <SlogP_VSA5>
23.97

>  <SlogP_VSA6>
54.86

>  <SlogP_VSA7>
0

>  <SlogP_VSA8>
0

>  <SlogP_VSA9>
0

>  <SlogP_VSA10>
0

>  <SlogP_VSA11>
0

>  <EState_VSA1>
5.92

>  <EState_VSA2>
12.51

>  <EState_VSA3>
13.09

>  <EState_VSA4>
11.13

>  <EState_VSA5>
0

>  <EState_VSA6>
17.29

>  <EState_VSA7>
49.39

>  <EState_VSA8>
4.98

>  <EState_VSA9>
0

>  <EState_VSA10>
9.9

>  <VSA_EState1>
0

>  <VSA_EState2>
18.39

>  <VSA_EState3>
9.6

>  <VSA_EState4>
1.88

>  <VSA_EState5>
-0.56

>  <VSA_EState6>
13.2

>  <VSA_EState7>
3.43

>  <VSA_EState8>
2.89

>  <VSA_EState9>
0

>  <apol>
45.53

>  <bpol>
23.78

>  <nRing>
2

>  <nHRing>
1

>  <naRing>
2

>  <naHRing>
1

>  <nARing 2>
0

>  <nAHRing 2>
0

>  <nFRing>
0

>  <nFHRing>
0

>  <nFaRing>
0

>  <nFaHRing>
0

>  <nFARing 2>
0

>  <nFAHRing 2>
0

>  <nRot>
6

>  <SLogP>
2.21

>  <SMR>
81.6

>  <TopoPSA(NO)>
53.43

>  <TopoPSA>
53.43

>  <JGI1>
0.14

>  <JGI2>
0.07

>  <JGI3>
0.05

>  <JGI4>
0.03

>  <JGI5>
0.02

>  <Diameter>
11

>  <Radius>
6

>  <TMWC10>
114.64

>  <TSRW10>
54.14

>  <MW>
284.15

>  <AMW>
6.93

>  <WPath>
956

>  <WPol>
30

>  <Zagreb1>
100

>  <Zagreb2>
114

>  <mZagreb2>
5

>  <yes>


>  <nAR-cont>
0.336376

>  <nHA-cont>
0.994529749

>  <MWHBN>
0.237293674

>  <MWHBN-cont>
0.97850671

>  <TPSA-cont>
0.627025422

>  <pka_cont>
0.97

>  <yes.1>


>  <BBB_SCORE>
4.537716658

>  <MMFF94 Energy>
47.891

$$$$
Compound 2758
Actelion Java MolfileCreator 2.0

  0  0  0  0  0  0              0 V3000
M  V30 BEGIN CTAB
M  V30 COUNTS 65 67 0 0 0
M  V30 BEGIN ATOM
M  V30 1 O -2.381 0.7931 -2.381 0
M  V30 2 C -1.1921 1.0982 -2.3008 0
M  V30 3 O -0.2262 0.669 -3.1602 0
M  V30 4 C -0.6027 1.9584 -1.1626 0
M  V30 5 C -0.6843 -0.2305 -4.1751 0
M  V30 6 N -0.0521 1.0594 -0.1345 0
M  V30 7 C 0.4523 2.9341 -1.7181 0
M  V30 8 C 0.5087 -0.6423 -5.0148 0
M  V30 9 C -0.8548 0.9391 1.0975 0
M  V30 10 C 0.8632 4.0076 -0.707 0
M  V30 11 C -0.319 -0.3153 1.8523 0
M  V30 12 C -0.7019 2.167 1.997 0
M  V30 13 C 1.8237 4.9998 -1.3141 0
M  V30 14 O 0.7238 -0.2322 2.5107 0
M  V30 15 N -0.9844 -1.5322 1.6961 0
M  V30 16 C 3.2003 4.7376 -1.3261 0
M  V30 17 C 1.3511 6.1823 -1.8986 0
M  V30 18 C -0.3156 -2.7523 2.1773 0
M  V30 19 C -2.3755 -1.6282 1.2339 0
M  V30 20 C 4.088 5.6467 -1.9033 0
M  V30 21 C 2.2408 7.0902 -2.4753 0
M  V30 22 C -0.7788 -3.1757 3.5924 0
M  V30 23 C -0.4474 -4.0032 1.2714 0
M  V30 24 C -2.5009 -1.5301 -0.2789 0
M  V30 25 C 3.6084 6.8227 -2.4769 0
M  V30 26 C -0.494 -4.6454 3.5761 0
M  V30 27 C -0.3037 -5.1109 2.2705 0
M  V30 28 O -1.7825 -2.059 -1.1109 0
M  V30 29 O -3.5246 -0.7226 -0.6329 0
M  V30 30 C -0.4453 -5.5107 4.6564 0
M  V30 31 C -0.0615 -6.4509 2.0184 0
M  V30 32 C -0.1907 -6.8619 4.4125 0
M  V30 33 C -2.0E-4 -7.3287 3.1025 0
M  V30 34 H -1.4347 2.559 -0.7728 0
M  V30 35 H -1.4253 0.2731 -4.8057 0
M  V30 36 H -1.1343 -1.1158 -3.713 0
M  V30 37 H 0.9143 1.2828 0.1049 0
M  V30 38 H 0.0489 3.4191 -2.6178 0
M  V30 39 H 1.3426 2.3835 -2.0515 0
M  V30 40 H 0.2079 -1.3312 -5.8089 0
M  V30 41 H 0.9824 0.2349 -5.4678 0
M  V30 42 H 1.2677 -1.1285 -4.3931 0
M  V30 43 H -1.9099 0.8283 0.8509 0
M  V30 44 H -0.0231 4.5395 -0.3391 0
M  V30 45 H 1.333 3.554 0.1733 0
M  V30 46 H -1.2205 2.0085 2.9494 0
M  V30 47 H -1.1288 3.0605 1.5309 0
M  V30 48 H 0.3483 2.3754 2.2302 0
M  V30 49 H 3.59 3.8224 -0.8857 0
M  V30 50 H 0.2867 6.4049 -1.9087 0
M  V30 51 H 0.7628 -2.5449 2.2477 0
M  V30 52 H -2.9402 -0.8146 1.7024 0
M  V30 53 H -2.8352 -2.5632 1.5671 0
M  V30 54 H 5.1542 5.4362 -1.9063 0
M  V30 55 H 1.8666 8.0064 -2.9245 0
M  V30 56 H -0.2082 -2.6521 4.3658 0
M  V30 57 H -1.8486 -3.0033 3.7499 0
M  V30 58 H -1.4185 -4.0899 0.778 0
M  V30 59 H 0.3445 -4.0226 0.5163 0
M  V30 60 H 4.3005 7.5299 -2.9262 0
M  V30 61 H -3.3318 -0.4544 -1.5678 0
M  V30 62 H -0.5986 -5.1527 5.6695 0
M  V30 63 H 0.0773 -6.8144 1.0051 0
M  V30 64 H -0.1423 -7.5606 5.2441 0
M  V30 65 H 0.1934 -8.3848 2.9313 0
M  V30 END ATOM
M  V30 BEGIN BOND
M  V30 1 2 1 2
M  V30 2 1 2 3
M  V30 3 1 2 4
M  V30 4 1 3 5
M  V30 5 1 4 6
M  V30 6 1 4 7
M  V30 7 1 5 8
M  V30 8 1 6 9
M  V30 9 1 7 10
M  V30 10 1 9 11
M  V30 11 1 9 12
M  V30 12 1 10 13
M  V30 13 2 11 14
M  V30 14 1 11 15
M  V30 15 2 13 16
M  V30 16 1 13 17
M  V30 17 1 15 18
M  V30 18 1 15 19
M  V30 19 1 16 20
M  V30 20 2 17 21
M  V30 21 1 18 22
M  V30 22 1 18 23
M  V30 23 1 19 24
M  V30 24 2 20 25
M  V30 25 1 22 26
M  V30 26 1 23 27
M  V30 27 2 24 28
M  V30 28 1 24 29
M  V30 29 1 26 30
M  V30 30 1 27 31
M  V30 31 2 30 32
M  V30 32 2 31 33
M  V30 33 1 21 25
M  V30 34 2 26 27
M  V30 35 1 32 33
M  V30 36 1 4 34
M  V30 37 1 5 35
M  V30 38 1 5 36
M  V30 39 1 6 37
M  V30 40 1 7 38
M  V30 41 1 7 39
M  V30 42 1 8 40
M  V30 43 1 8 41
M  V30 44 1 8 42
M  V30 45 1 9 43
M  V30 46 1 10 44
M  V30 47 1 10 45
M  V30 48 1 12 46
M  V30 49 1 12 47
M  V30 50 1 12 48
M  V30 51 1 16 49
M  V30 52 1 17 50
M  V30 53 1 18 51
M  V30 54 1 19 52
M  V30 55 1 19 53
M  V30 56 1 20 54
M  V30 57 1 21 55
M  V30 58 1 22 56
M  V30 59 1 22 57
M  V30 60 1 23 58
M  V30 61 1 23 59
M  V30 62 1 25 60
M  V30 63 1 29 61
M  V30 64 1 30 62
M  V30 65 1 31 63
M  V30 66 1 32 64
M  V30 67 1 33 65
M  V30 END BOND
M  V30 END CTAB
M  END
>  <Column 1>
3479

>  <level_0>
5724

>  <index>
5725

>  <Unnamed: 0>
5725

>  <NO.>
5737

>  <Name>
schembl20840151

>  <IUPAC_name>
2-[2-3-dihydro-1h-inden-2-yl-[2-[(1-ethoxy-1-oxo-4-phenylbutan-2-yl)amino]propanoyl]amino]acetic acid

>  <SMILES>
CCOC(=O)C(CCc1ccccc1)NC(C)C(=O)N(CC(=O)O)C1Cc2ccccc2C1

>  <CID>
2976

>  <logBB>


>  <BBB+/BBB->
BBB-

>  <Inchi>
InChI=1S/C26H32N2O5/c1-3-33-26(32)23(14-13-19-9-5-4-6-10-19)27-18(2)25(31)28(17-24(29)30)22-15-20-11-7-8-12-21(20)16-22/h4-12-18-22-23-27H-3-13-17H2-1-2H3-(H-29-30)

>  <threshold>


>  <reference>
R23|

>  <group>
C

>  <Class>
-1

>  <ABC>
25.09

>  <ABCGG>
20.76

>  <nAcid>
1

>  <nBase>
1

>  <nAromAtom>
12

>  <nAromBond>
12

>  <nAtom>
65

>  <nHeavyAtom>
33

>  <nSpiro>
0

>  <nBridgehead>
0

>  <nHetero>
7

>  <nN>
2

>  <nO>
5

>  <nF>
0

>  <BalabanJ>
1.61

>  <BertzCT>
937.16

>  <nBonds>
67

>  <nBondsO>
35

>  <nBondsS>
52

>  <nBondsD>
3

>  <nBondsT>
0

>  <nBondsA>
12

>  <nBondsM>
15

>  <nBondsKS>
58

>  <nBondsKD>
9

>  <RNCG>
0.15

>  <RPCG>
0.1

>  <FCSP3>
0.42

>  <SZ>
40.33

>  <Sm>
37.68

>  <Sv>
39.76

>  <Sse>
65.19

>  <Sp>
42.5

>  <Si>
73.27

>  <MZ>
0.62

>  <Mm>
0.58

>  <Mv>
0.61

>  <Mse>
1

>  <Mp>
0.65

>  <Mi>
1.13

>  <NsCH3>
2

>  <NdCH2>
0

>  <NssCH2>
6

>  <NtCH>
0

>  <NdsCH>
0

>  <NaaCH>
9

>  <NsssCH>
3

>  <NddC>
0

>  <NtsC>
0

>  <NdssC>
3

>  <NaasC>
3

>  <NaaaC>
0

>  <NssssC>
0

>  <NsNH3>
0

>  <NsNH2>
0

>  <NssNH2>
0

>  <NdNH>
0

>  <NssNH>
1

>  <NaaNH>
0

>  <NtN>
0

>  <NsssNH>
0

>  <NdsN>
0

>  <NaaN>
0

>  <NsssN>
1

>  <NddsN>
0

>  <NaasN>
0

>  <NssssN>
0

>  <NsOH>
1

>  <NdO>
3

>  <NssO>
1

>  <NaaO>
0

>  <NsF>
0

>  <NsSiH3>
0

>  <NssSiH2>
0

>  <NsssSiH>
0

>  <NssssSi>
0

>  <NsPH2>
0

>  <NssPH>
0

>  <NsssP>
0

>  <NdsssP>
0

>  <NsssssP>
0

>  <NsSH>
0

>  <NdS>
0

>  <NssS>
0

>  <NaaS>
0

>  <NdssS>
0

>  <NddssS>
0

>  <NsCl>
0

>  <NsBr>
0

>  <NsI>
0

>  <fragCpx>
169.07

>  <fMF>
0.34

>  <nHBAcc>
5

>  <nHBDon>
2

>  <Kier1>
27.59

>  <Kier2>
13.92

>  <Lipinski>
1

>  <GhoseFilter>
1

>  <FilterItLogS>
-4.91

>  <VMcGowan>
355.23

>  <LabuteASA>
194.29

>  <PEOE_VSA1>
14.74

>  <PEOE_VSA2>
19.7

>  <PEOE_VSA3>
0

>  <PEOE_VSA4>
0

>  <PEOE_VSA5>
0

>  <PEOE_VSA6>
54.6

>  <PEOE_VSA7>
56.22

>  <PEOE_VSA8>
6.04

>  <PEOE_VSA9>
12.65

>  <PEOE_VSA10>
12.59

>  <PEOE_VSA11>
0

>  <PEOE_VSA12>
5.91

>  <PEOE_VSA13>
0

>  <SMR_VSA1>
24.23

>  <SMR_VSA2>
0

>  <SMR_VSA3>
10.22

>  <SMR_VSA4>
0

>  <SMR_VSA5>
57.66

>  <SMR_VSA6>
13.15

>  <SMR_VSA7>
71.29

>  <SMR_VSA8>
0

>  <SMR_VSA9>
0

>  <SlogP_VSA1>
5.32

>  <SlogP_VSA2>
59.13

>  <SlogP_VSA3>
38.38

>  <SlogP_VSA4>
0

>  <SlogP_VSA5>
36.96

>  <SlogP_VSA6>
54.6

>  <SlogP_VSA7>
0

>  <SlogP_VSA8>
0

>  <SlogP_VSA9>
0

>  <SlogP_VSA10>
0

>  <SlogP_VSA11>
0

>  <EState_VSA1>
24.02

>  <EState_VSA2>
25.1

>  <EState_VSA3>
25.68

>  <EState_VSA4>
16.69

>  <EState_VSA5>
4.9

>  <EState_VSA6>
13.85

>  <EState_VSA7>
54.6

>  <EState_VSA8>
5.32

>  <EState_VSA9>
4.74

>  <EState_VSA10>
19.49

>  <VSA_EState1>
5.22

>  <VSA_EState2>
38.91

>  <VSA_EState3>
12.57

>  <VSA_EState4>
3.36

>  <VSA_EState5>
-1.8

>  <VSA_EState6>
16.1

>  <VSA_EState7>
2.36

>  <VSA_EState8>
3.29

>  <VSA_EState9>
0

>  <apol>
70.97

>  <bpol>
38.72

>  <nRing>
3

>  <nHRing>
0

>  <naRing>
2

>  <naHRing>
0

>  <nARing 2>
1

>  <nAHRing 2>
0

>  <nFRing>
1

>  <nFHRing>
0

>  <nFaRing>
0

>  <nFaHRing>
0

>  <nFARing 2>
1

>  <nFAHRing 2>
0

>  <nRot>
11

>  <SLogP>
2.61

>  <SMR>
124.77

>  <TopoPSA(NO)>
95.94

>  <TopoPSA>
95.94

>  <JGI1>
0.19

>  <JGI2>
0.08

>  <JGI3>
0.04

>  <JGI4>
0.04

>  <JGI5>
0.02

>  <Diameter>
15

>  <Radius>
8

>  <TMWC10>
144.71

>  <TSRW10>
82.61

>  <MW>
452.23

>  <AMW>
6.96

>  <WPath>
3353

>  <WPol>
48

>  <Zagreb1>
164

>  <Zagreb2>
188

>  <mZagreb2>
7.47

>  <yes>


>  <nAR-cont>
0.816016

>  <nHA-cont>
0.61399562

>  <MWHBN>
0.329168566

>  <MWHBN-cont>
0.745753701

>  <TPSA-cont>
0.330279225

>  <pka_cont>
0.97

>  <yes.1>


>  <BBB_SCORE>
3.694200621

>  <MMFF94 Energy>
134.98

$$$$
Compound 2759
Actelion Java MolfileCreator 2.0

  0  0  0  0  0  0              0 V3000
M  V30 BEGIN CTAB
M  V30 COUNTS 56 57 0 0 0
M  V30 BEGIN ATOM
M  V30 1 O 1.1852 1.4224 -1.1062 0
M  V30 2 C 1.9658 1.6369 -0.1944 0
M  V30 3 N 1.6695 2.0909 1.1116 0
M  V30 4 N 3.3439 1.4333 -0.2654 0
M  V30 5 C 0.456 2.3295 1.7484 0
M  V30 6 C 2.9086 2.349 1.8296 0
M  V30 7 C 3.9855 1.6641 1.0072 0
M  V30 8 C 4.0441 0.8911 -1.4052 0
M  V30 9 O 0.4462 2.7752 2.9032 0
M  V30 10 C -0.8563 1.9979 0.9992 0
M  V30 11 C 3.1826 3.8443 1.8632 0
M  V30 12 N -1.3821 0.6918 1.4543 0
M  V30 13 C -1.8955 3.0713 1.3464 0
M  V30 14 O 2.7429 4.6981 1.1096 0
M  V30 15 O 4.0649 4.1842 2.8285 0
M  V30 16 C -0.7238 -0.4857 0.8421 0
M  V30 17 C -1.0308 -1.7292 1.6971 0
M  V30 18 C -1.1952 -0.7435 -0.5989 0
M  V30 19 O -0.1844 -2.5511 2.0311 0
M  V30 20 O -2.3634 -1.8224 1.9828 0
M  V30 21 C -0.3157 -1.784 -1.3044 0
M  V30 22 C -2.7146 -2.9586 2.7792 0
M  V30 23 C -0.7055 -1.9501 -2.7521 0
M  V30 24 C -4.2093 -2.9159 3.03 0
M  V30 25 C -1.521 -3.0147 -3.156 0
M  V30 26 C -0.2724 -1.0216 -3.709 0
M  V30 27 C -1.8885 -3.1531 -4.4956 0
M  V30 28 C -0.6417 -1.1613 -5.0473 0
M  V30 29 C -1.4486 -2.2274 -5.4405 0
M  V30 30 H 2.8457 1.9745 2.8572 0
M  V30 31 H 4.8959 2.2552 0.868 0
M  V30 32 H 4.2441 0.6873 1.4297 0
M  V30 33 H 3.3765 0.8132 -2.2672 0
M  V30 34 H 4.8835 1.5472 -1.6492 0
M  V30 35 H 4.4167 -0.1037 -1.1467 0
M  V30 36 H -0.7329 2.0372 -0.0811 0
M  V30 37 H -2.3852 0.631 1.275 0
M  V30 38 H -2.8268 2.9092 0.7922 0
M  V30 39 H -1.5197 4.0677 1.0877 0
M  V30 40 H -2.1364 3.0793 2.4161 0
M  V30 41 H 4.1172 5.1631 2.769 0
M  V30 42 H 0.3621 -0.3595 0.8863 0
M  V30 43 H -1.1777 0.1864 -1.1777 0
M  V30 44 H -2.2396 -1.0834 -0.6073 0
M  V30 45 H 0.7399 -1.4887 -1.2541 0
M  V30 46 H -0.3836 -2.7532 -0.7957 0
M  V30 47 H -2.178 -2.9225 3.734 0
M  V30 48 H -2.4559 -3.879 2.2439 0
M  V30 49 H -4.5278 -3.7681 3.6369 0
M  V30 50 H -4.4874 -1.9906 3.5456 0
M  V30 51 H -4.7595 -2.9303 2.0833 0
M  V30 52 H -1.8749 -3.7431 -2.4302 0
M  V30 53 H 0.3517 -0.1802 -3.4112 0
M  V30 54 H -2.5197 -3.983 -4.8018 0
M  V30 55 H -0.3016 -0.4356 -5.7812 0
M  V30 56 H -1.7365 -2.3353 -6.4827 0
M  V30 END ATOM
M  V30 BEGIN BOND
M  V30 1 2 1 2
M  V30 2 1 2 3
M  V30 3 1 2 4
M  V30 4 1 3 5
M  V30 5 1 3 6
M  V30 6 1 4 7
M  V30 7 1 4 8
M  V30 8 2 5 9
M  V30 9 1 5 10
M  V30 10 1 6 11
M  V30 11 1 10 12
M  V30 12 1 10 13
M  V30 13 2 11 14
M  V30 14 1 11 15
M  V30 15 1 12 16
M  V30 16 1 16 17
M  V30 17 1 16 18
M  V30 18 2 17 19
M  V30 19 1 17 20
M  V30 20 1 18 21
M  V30 21 1 20 22
M  V30 22 1 21 23
M  V30 23 1 22 24
M  V30 24 2 23 25
M  V30 25 1 23 26
M  V30 26 1 25 27
M  V30 27 2 26 28
M  V30 28 2 27 29
M  V30 29 1 6 7
M  V30 30 1 28 29
M  V30 31 1 6 30
M  V30 32 1 7 31
M  V30 33 1 7 32
M  V30 34 1 8 33
M  V30 35 1 8 34
M  V30 36 1 8 35
M  V30 37 1 10 36
M  V30 38 1 12 37
M  V30 39 1 13 38
M  V30 40 1 13 39
M  V30 41 1 13 40
M  V30 42 1 15 41
M  V30 43 1 16 42
M  V30 44 1 18 43
M  V30 45 1 18 44
M  V30 46 1 21 45
M  V30 47 1 21 46
M  V30 48 1 22 47
M  V30 49 1 22 48
M  V30 50 1 24 49
M  V30 51 1 24 50
M  V30 52 1 24 51
M  V30 53 1 25 52
M  V30 54 1 26 53
M  V30 55 1 27 54
M  V30 56 1 28 55
M  V30 57 1 29 56
M  V30 END BOND
M  V30 END CTAB
M  END
>  <Column 1>
3480

>  <level_0>
5725

>  <index>
5726

>  <Unnamed: 0>
5726

>  <NO.>
5738

>  <Name>
schembl683273

>  <IUPAC_name>
3-[2-[(1-ethoxy-1-oxo-4-phenylbutan-2-yl)amino]propanoyl]-1-methyl-2-oxoimidazolidine-4-carboxylic acid

>  <SMILES>
CCOC(=O)C(CCc1ccccc1)NC(C)C(=O)N1C(=O)N(C)CC1C(=O)O

>  <CID>
3693

>  <logBB>


>  <BBB+/BBB->
BBB-

>  <Inchi>
InChI=1S/C20H27N3O6/c1-4-29-19(27)15(11-10-14-8-6-5-7-9-14)21-13(2)17(24)23-16(18(25)26)12-22(3)20(23)28/h5-9-13-15-16-21H-4-10-12H2-1-3H3-(H-25-26)

>  <threshold>


>  <reference>
R23|

>  <group>
C

>  <Class>
-1

>  <ABC>
21.7

>  <ABCGG>
19.23

>  <nAcid>
1

>  <nBase>
1

>  <nAromAtom>
6

>  <nAromBond>
6

>  <nAtom>
56

>  <nHeavyAtom>
29

>  <nSpiro>
0

>  <nBridgehead>
0

>  <nHetero>
9

>  <nN>
3

>  <nO>
6

>  <nF>
0

>  <BalabanJ>
1.99

>  <BertzCT>
753.84

>  <nBonds>
57

>  <nBondsO>
30

>  <nBondsS>
47

>  <nBondsD>
4

>  <nBondsT>
0

>  <nBondsA>
6

>  <nBondsM>
10

>  <nBondsKS>
50

>  <nBondsKD>
7

>  <RNCG>
0.15

>  <RPCG>
0.1

>  <FCSP3>
0.5

>  <SZ>
36

>  <Sm>
33.76

>  <Sv>
33.88

>  <Sse>
56.96

>  <Sp>
35.64

>  <Si>
63.73

>  <MZ>
0.64

>  <Mm>
0.6

>  <Mv>
0.6

>  <Mse>
1.02

>  <Mp>
0.64

>  <Mi>
1.14

>  <NsCH3>
3

>  <NdCH2>
0

>  <NssCH2>
4

>  <NtCH>
0

>  <NdsCH>
0

>  <NaaCH>
5

>  <NsssCH>
3

>  <NddC>
0

>  <NtsC>
0

>  <NdssC>
4

>  <NaasC>
1

>  <NaaaC>
0

>  <NssssC>
0

>  <NsNH3>
0

>  <NsNH2>
0

>  <NssNH2>
0

>  <NdNH>
0

>  <NssNH>
1

>  <NaaNH>
0

>  <NtN>
0

>  <NsssNH>
0

>  <NdsN>
0

>  <NaaN>
0

>  <NsssN>
2

>  <NddsN>
0

>  <NaasN>
0

>  <NssssN>
0

>  <NsOH>
1

>  <NdO>
4

>  <NssO>
1

>  <NaaO>
0

>  <NsF>
0

>  <NsSiH3>
0

>  <NssSiH2>
0

>  <NsssSiH>
0

>  <NssssSi>
0

>  <NsPH2>
0

>  <NssPH>
0

>  <NsssP>
0

>  <NdsssP>
0

>  <NsssssP>
0

>  <NsSH>
0

>  <NdS>
0

>  <NssS>
0

>  <NaaS>
0

>  <NdssS>
0

>  <NddssS>
0

>  <NsCl>
0

>  <NsBr>
0

>  <NsI>
0

>  <fragCpx>
88.09

>  <fMF>
0.3

>  <nHBAcc>
6

>  <nHBDon>
2

>  <Kier1>
25.26

>  <Kier2>
12.14

>  <Lipinski>
1

>  <GhoseFilter>
1

>  <FilterItLogS>
-2.26

>  <VMcGowan>
306

>  <LabuteASA>
169.16

>  <PEOE_VSA1>
14.74

>  <PEOE_VSA2>
14.91

>  <PEOE_VSA3>
14.49

>  <PEOE_VSA4>
0

>  <PEOE_VSA5>
0

>  <PEOE_VSA6>
30.33

>  <PEOE_VSA7>
32.25

>  <PEOE_VSA8>
7.05

>  <PEOE_VSA9>
19.19

>  <PEOE_VSA10>
6.04

>  <PEOE_VSA11>
6.04

>  <PEOE_VSA12>
5.91

>  <PEOE_VSA13>
0

>  <SMR_VSA1>
29.02

>  <SMR_VSA2>
0

>  <SMR_VSA3>
15.12

>  <SMR_VSA4>
0

>  <SMR_VSA5>
44.81

>  <SMR_VSA6>
20.2

>  <SMR_VSA7>
35.9

>  <SMR_VSA8>
0

>  <SMR_VSA9>
0

>  <SlogP_VSA1>
5.32

>  <SlogP_VSA2>
77.11

>  <SlogP_VSA3>
25.54

>  <SlogP_VSA4>
0

>  <SlogP_VSA5>
25.83

>  <SlogP_VSA6>
30.33

>  <SlogP_VSA7>
0

>  <SlogP_VSA8>
0

>  <SlogP_VSA9>
0

>  <SlogP_VSA10>
4.79

>  <SlogP_VSA11>
0

>  <EState_VSA1>
42

>  <EState_VSA2>
13.15

>  <EState_VSA3>
12.84

>  <EState_VSA4>
10.46

>  <EState_VSA5>
18.87

>  <EState_VSA6>
6.92

>  <EState_VSA7>
30.33

>  <EState_VSA8>
5.32

>  <EState_VSA9>
4.74

>  <EState_VSA10>
24.28

>  <VSA_EState1>
5.1

>  <VSA_EState2>
50.76

>  <VSA_EState3>
12.25

>  <VSA_EState4>
1.03

>  <VSA_EState5>
-2.45

>  <VSA_EState6>
5.92

>  <VSA_EState7>
0.97

>  <VSA_EState8>
3.31

>  <VSA_EState9>
1.44

>  <apol>
59.52

>  <bpol>
36.28

>  <nRing>
2

>  <nHRing>
1

>  <naRing>
1

>  <naHRing>
0

>  <nARing 2>
1

>  <nAHRing 2>
1

>  <nFRing>
0

>  <nFHRing>
0

>  <nFaRing>
0

>  <nFaHRing>
0

>  <nFARing 2>
0

>  <nFAHRing 2>
0

>  <nRot>
9

>  <SLogP>
0.88

>  <SMR>
104.08

>  <TopoPSA(NO)>
116.25

>  <TopoPSA>
116.25

>  <JGI1>
0.2

>  <JGI2>
0.09

>  <JGI3>
0.06

>  <JGI4>
0.05

>  <JGI5>
0.02

>  <Diameter>
13

>  <Radius>
7

>  <TMWC10>
134.68

>  <TSRW10>
78.26

>  <MW>
405.19

>  <AMW>
7.24

>  <WPath>
2348

>  <WPol>
44

>  <Zagreb1>
142

>  <Zagreb2>
164

>  <mZagreb2>
6.61

>  <yes>


>  <nAR-cont>
0.816016

>  <nHA-cont>
0.785905698

>  <MWHBN>
0.397429983

>  <MWHBN-cont>
0.486180678

>  <TPSA-cont>
0.188502813

>  <pka_cont>
0.97

>  <yes.1>


>  <BBB_SCORE>
3.193198341

>  <MMFF94 Energy>
16.148

$$$$
Compound 2760
Actelion Java MolfileCreator 2.0

  0  0  0  0  0  0              0 V3000
M  V30 BEGIN CTAB
M  V30 COUNTS 60 62 0 0 0
M  V30 BEGIN ATOM
M  V30 1 S 0.7304 3.4934 2.0299 0
M  V30 2 C 2.4458 3.4806 1.3708 0
M  V30 3 C 0.2134 1.7418 1.9344 0
M  V30 4 C 3.4757 3.1888 2.442 0
M  V30 5 C 2.6794 2.6863 0.0695 0
M  V30 6 C 0.2275 1.1424 0.5222 0
M  V30 7 S 4.7688 4.303 2.6789 0
M  V30 8 C 3.5953 2.1135 3.3054 0
M  V30 9 N 2.7169 1.2291 0.2129 0
M  V30 10 N -0.8545 0.1157 0.4231 0
M  V30 11 C 1.5895 0.4406 0.3181 0
M  V30 12 C 5.4542 3.3588 3.9241 0
M  V30 13 C 4.7319 2.2131 4.1594 0
M  V30 14 C 4.0196 0.5658 0.0733 0
M  V30 15 C -1.5516 0.1491 -0.8877 0
M  V30 16 O 1.6594 -0.7921 0.2859 0
M  V30 17 C 4.356 0.2935 -1.3849 0
M  V30 18 C -0.5915 -0.1378 -2.0509 0
M  V30 19 C -2.7285 -0.8395 -0.8983 0
M  V30 20 O 3.9859 0.9341 -2.3565 0
M  V30 21 O 5.2211 -0.7303 -1.538 0
M  V30 22 O -0.1411 0.737 -2.782 0
M  V30 23 O -0.2468 -1.4531 -2.0999 0
M  V30 24 C -3.834 -0.4439 0.0856 0
M  V30 25 C 0.7635 -1.7606 -3.0657 0
M  V30 26 C -5.0132 -1.3813 -0.0045 0
M  V30 27 C 1.1232 -3.226 -2.922 0
M  V30 28 C -6.0923 -1.0894 -0.8491 0
M  V30 29 C -5.0303 -2.5714 0.7348 0
M  V30 30 C -7.173 -1.9677 -0.944 0
M  V30 31 C -6.1117 -3.4483 0.6384 0
M  V30 32 C -7.1829 -3.146 -0.2 0
M  V30 33 H 2.5706 4.5329 1.0802 0
M  V30 34 H 0.7931 1.1454 2.6447 0
M  V30 35 H -0.8147 1.7501 2.3164 0
M  V30 36 H 3.6348 3.0024 -0.3693 0
M  V30 37 H 1.9154 2.9448 -0.6724 0
M  V30 38 H 0.071 1.9171 -0.234 0
M  V30 39 H 2.9056 1.2805 3.3336 0
M  V30 40 H -0.4045 -0.807 0.515 0
M  V30 41 H 6.3542 3.6886 4.425 0
M  V30 42 H 5.003 1.4807 4.91 0
M  V30 43 H 3.9963 -0.3893 0.6088 0
M  V30 44 H 4.8033 1.1909 0.5115 0
M  V30 45 H -1.9624 1.1541 -1.0519 0
M  V30 46 H -2.3773 -1.8547 -0.6688 0
M  V30 47 H -3.1432 -0.8899 -1.9144 0
M  V30 48 H 5.3559 -0.7833 -2.5074 0
M  V30 49 H -3.457 -0.4431 1.1157 0
M  V30 50 H -4.1692 0.5816 -0.1146 0
M  V30 51 H 1.6524 -1.1449 -2.8873 0
M  V30 52 H 0.3774 -1.5689 -4.0728 0
M  V30 53 H 1.8932 -3.5114 -3.6439 0
M  V30 54 H 1.4907 -3.4346 -1.9117 0
M  V30 55 H 0.2415 -3.8566 -3.0767 0
M  V30 56 H -6.0979 -0.1753 -1.4381 0
M  V30 57 H -4.1991 -2.821 1.3905 0
M  V30 58 H -8.0073 -1.7324 -1.5995 0
M  V30 59 H -6.1173 -4.3678 1.2173 0
M  V30 60 H -8.0246 -3.8292 -0.2745 0
M  V30 END ATOM
M  V30 BEGIN BOND
M  V30 1 1 1 2
M  V30 2 1 1 3
M  V30 3 1 2 4
M  V30 4 1 2 5
M  V30 5 1 3 6
M  V30 6 1 4 7
M  V30 7 2 4 8
M  V30 8 1 5 9
M  V30 9 1 6 10
M  V30 10 1 6 11
M  V30 11 1 7 12
M  V30 12 1 8 13
M  V30 13 1 9 14
M  V30 14 1 10 15
M  V30 15 2 11 16
M  V30 16 1 14 17
M  V30 17 1 15 18
M  V30 18 1 15 19
M  V30 19 2 17 20
M  V30 20 1 17 21
M  V30 21 2 18 22
M  V30 22 1 18 23
M  V30 23 1 19 24
M  V30 24 1 23 25
M  V30 25 1 24 26
M  V30 26 1 25 27
M  V30 27 2 26 28
M  V30 28 1 26 29
M  V30 29 1 28 30
M  V30 30 2 29 31
M  V30 31 2 30 32
M  V30 32 1 9 11
M  V30 33 2 12 13
M  V30 34 1 31 32
M  V30 35 1 2 33
M  V30 36 1 3 34
M  V30 37 1 3 35
M  V30 38 1 5 36
M  V30 39 1 5 37
M  V30 40 1 6 38
M  V30 41 1 8 39
M  V30 42 1 10 40
M  V30 43 1 12 41
M  V30 44 1 13 42
M  V30 45 1 14 43
M  V30 46 1 14 44
M  V30 47 1 15 45
M  V30 48 1 19 46
M  V30 49 1 19 47
M  V30 50 1 21 48
M  V30 51 1 24 49
M  V30 52 1 24 50
M  V30 53 1 25 51
M  V30 54 1 25 52
M  V30 55 1 27 53
M  V30 56 1 27 54
M  V30 57 1 27 55
M  V30 58 1 28 56
M  V30 59 1 29 57
M  V30 60 1 30 58
M  V30 61 1 31 59
M  V30 62 1 32 60
M  V30 END BOND
M  V30 END CTAB
M  END
>  <Column 1>
3481

>  <level_0>
5726

>  <index>
5727

>  <Unnamed: 0>
5727

>  <NO.>
5739

>  <Name>
temocapril

>  <IUPAC_name>
2-[6-[(1-ethoxy-1-oxo-4-phenylbutan-2-yl)amino]-5-oxo-2-thiophen-2-yl-1-4-thiazepan-4-yl]acetic acid

>  <SMILES>
CCOC(=O)C(CCc1ccccc1)NC1CSC(c2cccs2)CN(CC(=O)O)C1=O

>  <CID>
5393

>  <logBB>


>  <BBB+/BBB->
BBB-

>  <Inchi>
InChI=1S/C23H28N2O5S2/c1-2-30-23(29)17(11-10-16-7-4-3-5-8-16)24-18-15-32-20(19-9-6-12-31-19)13-25(22(18)28)14-21(26)27/h3-9-12-17-18-20-24H-2-10-11-13-15H2-1H3-(H-26-27)

>  <threshold>


>  <reference>
R23|

>  <group>
C

>  <Class>
-1

>  <ABC>
24.32

>  <ABCGG>
20.05

>  <nAcid>
1

>  <nBase>
1

>  <nAromAtom>
11

>  <nAromBond>
11

>  <nAtom>
60

>  <nHeavyAtom>
32

>  <nSpiro>
0

>  <nBridgehead>
0

>  <nHetero>
9

>  <nN>
2

>  <nO>
5

>  <nF>
0

>  <BalabanJ>
1.65

>  <BertzCT>
891.06

>  <nBonds>
62

>  <nBondsO>
34

>  <nBondsS>
48

>  <nBondsD>
3

>  <nBondsT>
0

>  <nBondsA>
11

>  <nBondsM>
14

>  <nBondsKS>
54

>  <nBondsKD>
8

>  <RNCG>
0.15

>  <RPCG>
0.1

>  <FCSP3>
0.43

>  <SZ>
42

>  <Sm>
39.68

>  <Sv>
38.05

>  <Sse>
60.56

>  <Sp>
41.37

>  <Si>
67.28

>  <MZ>
0.7

>  <Mm>
0.66

>  <Mv>
0.63

>  <Mse>
1.01

>  <Mp>
0.69

>  <Mi>
1.12

>  <NsCH3>
1

>  <NdCH2>
0

>  <NssCH2>
6

>  <NtCH>
0

>  <NdsCH>
0

>  <NaaCH>
8

>  <NsssCH>
3

>  <NddC>
0

>  <NtsC>
0

>  <NdssC>
3

>  <NaasC>
2

>  <NaaaC>
0

>  <NssssC>
0

>  <NsNH3>
0

>  <NsNH2>
0

>  <NssNH2>
0

>  <NdNH>
0

>  <NssNH>
1

>  <NaaNH>
0

>  <NtN>
0

>  <NsssNH>
0

>  <NdsN>
0

>  <NaaN>
0

>  <NsssN>
1

>  <NddsN>
0

>  <NaasN>
0

>  <NssssN>
0

>  <NsOH>
1

>  <NdO>
3

>  <NssO>
1

>  <NaaO>
0

>  <NsF>
0

>  <NsSiH3>
0

>  <NssSiH2>
0

>  <NsssSiH>
0

>  <NssssSi>
0

>  <NsPH2>
0

>  <NssPH>
0

>  <NsssP>
0

>  <NdsssP>
0

>  <NsssssP>
0

>  <NsSH>
0

>  <NdS>
0

>  <NssS>
1

>  <NaaS>
1

>  <NdssS>
0

>  <NddssS>
0

>  <NsCl>
0

>  <NsBr>
0

>  <NsI>
0

>  <fragCpx>
164.09

>  <fMF>
0.37

>  <nHBAcc>
7

>  <nHBDon>
2

>  <Kier1>
26.6

>  <Kier2>
13.78

>  <Lipinski>
1

>  <GhoseFilter>
1

>  <FilterItLogS>
-4.25

>  <VMcGowan>
349.96

>  <LabuteASA>
195.69

>  <PEOE_VSA1>
14.74

>  <PEOE_VSA2>
19.7

>  <PEOE_VSA3>
0

>  <PEOE_VSA4>
0

>  <PEOE_VSA5>
23.1

>  <PEOE_VSA6>
36.4

>  <PEOE_VSA7>
36.78

>  <PEOE_VSA8>
17.17

>  <PEOE_VSA9>
17.9

>  <PEOE_VSA10>
12.59

>  <PEOE_VSA11>
0

>  <PEOE_VSA12>
5.91

>  <PEOE_VSA13>
0

>  <SMR_VSA1>
24.23

>  <SMR_VSA2>
0

>  <SMR_VSA3>
10.22

>  <SMR_VSA4>
0

>  <SMR_VSA5>
37.1

>  <SMR_VSA6>
25.45

>  <SMR_VSA7>
58.29

>  <SMR_VSA8>
0

>  <SMR_VSA9>
0

>  <SlogP_VSA1>
5.32

>  <SlogP_VSA2>
65.39

>  <SlogP_VSA3>
25.54

>  <SlogP_VSA4>
0

>  <SlogP_VSA5>
29.04

>  <SlogP_VSA6>
47.84

>  <SlogP_VSA7>
0

>  <SlogP_VSA8>
0

>  <SlogP_VSA9>
0

>  <SlogP_VSA10>
0

>  <SlogP_VSA11>
0

>  <EState_VSA1>
24.02

>  <EState_VSA2>
24.31

>  <EState_VSA3>
25.14

>  <EState_VSA4>
10.44

>  <EState_VSA5>
4.9

>  <EState_VSA6>
30.02

>  <EState_VSA7>
47.84

>  <EState_VSA8>
5.32

>  <EState_VSA9>
4.74

>  <EState_VSA10>
19.49

>  <VSA_EState1>
5.25

>  <VSA_EState2>
39.74

>  <VSA_EState3>
14.5

>  <VSA_EState4>
1.09

>  <VSA_EState5>
-1.31

>  <VSA_EState6>
12.44

>  <VSA_EState7>
1.13

>  <VSA_EState8>
1.95

>  <VSA_EState9>
0

>  <apol>
69.09

>  <bpol>
39.63

>  <nRing>
3

>  <nHRing>
2

>  <naRing>
2

>  <naHRing>
1

>  <nARing 2>
1

>  <nAHRing 2>
1

>  <nFRing>
0

>  <nFHRing>
0

>  <nFaRing>
0

>  <nFaHRing>
0

>  <nFARing 2>
0

>  <nFAHRing 2>
0

>  <nRot>
10

>  <SLogP>
2.97

>  <SMR>
125.84

>  <TopoPSA(NO)>
95.94

>  <TopoPSA>
149.48

>  <JGI1>
0.18

>  <JGI2>
0.07

>  <JGI3>
0.04

>  <JGI4>
0.03

>  <JGI5>
0.02

>  <Diameter>
14

>  <Radius>
7

>  <TMWC10>
142.04

>  <TSRW10>
80.9

>  <MW>
476.14

>  <AMW>
7.94

>  <WPath>
3000

>  <WPol>
48

>  <Zagreb1>
158

>  <Zagreb2>
180

>  <mZagreb2>
7.28

>  <yes>


>  <nAR-cont>
0.816016

>  <nHA-cont>
0.658856097

>  <MWHBN>
0.412453673

>  <MWHBN-cont>
0.427242041

>  <TPSA-cont>
0

>  <pka_cont>
0.97

>  <yes.1>


>  <BBB_SCORE>
2.600735158

>  <MMFF94 Energy>
138.02

$$$$
Compound 2761
Actelion Java MolfileCreator 2.0

  0  0  0  0  0  0              0 V3000
M  V30 BEGIN CTAB
M  V30 COUNTS 38 37 0 0 0
M  V30 BEGIN ATOM
M  V30 1 S -2.9466 2.2912 -2.2912 0
M  V30 2 P -2.4822 0.3956 -2.2588 0
M  V30 3 S -2.1428 -0.5347 -0.3929 0
M  V30 4 O -3.6006 -0.5243 -3.0067 0
M  V30 5 O -1.2024 -0.0081 -3.1744 0
M  V30 6 C -0.8159 0.4545 0.3901 0 CFG=2
M  V30 7 C -4.9374 -0.4974 -2.5452 0
M  V30 8 C -1.1588 0.4101 -4.5238 0
M  V30 9 C 0.3659 0.5632 -0.5641 0
M  V30 10 C -0.4599 -0.1797 1.735 0
M  V30 11 O 0.4882 1.462 -1.3869 0
M  V30 12 O 1.2183 -0.4912 -0.4381 0
M  V30 13 C 0.5767 0.6397 2.4584 0
M  V30 14 C 2.3223 -0.4649 -1.3508 0
M  V30 15 O 0.9896 1.7297 2.0922 0
M  V30 16 O 0.9716 -0.0118 3.5867 0
M  V30 17 C 3.1841 -1.6828 -1.082 0
M  V30 18 C 1.96 0.6862 4.3549 0
M  V30 19 C 2.3043 -0.1604 5.5645 0
M  V30 20 H -1.1948 1.4691 0.5593 0
M  V30 21 H -4.9852 -0.4131 -1.4566 0
M  V30 22 H -5.427 -1.4274 -2.8453 0
M  V30 23 H -5.4688 0.3398 -3.0047 0
M  V30 24 H -0.8436 1.4551 -4.5796 0
M  V30 25 H -0.4242 -0.2024 -5.0527 0
M  V30 26 H -2.1305 0.2854 -5.009 0
M  V30 27 H -1.3457 -0.2249 2.3805 0
M  V30 28 H -0.0641 -1.1945 1.6075 0
M  V30 29 H 2.9104 0.4463 -1.1946 0
M  V30 30 H 1.9504 -0.4943 -2.3811 0
M  V30 31 H 4.0445 -1.7085 -1.7562 0
M  V30 32 H 3.5445 -1.6789 -0.0479 0
M  V30 33 H 2.6037 -2.602 -1.2132 0
M  V30 34 H 1.5592 1.6525 4.6811 0
M  V30 35 H 2.8572 0.8444 3.7461 0
M  V30 36 H 3.0581 0.3329 6.1844 0
M  V30 37 H 1.4122 -0.3452 6.1723 0
M  V30 38 H 2.6863 -1.1385 5.2542 0
M  V30 END ATOM
M  V30 BEGIN BOND
M  V30 1 2 1 2
M  V30 2 1 2 3
M  V30 3 1 2 4
M  V30 4 1 2 5
M  V30 5 1 3 6
M  V30 6 1 4 7
M  V30 7 1 5 8
M  V30 8 1 6 9
M  V30 9 1 6 10
M  V30 10 2 9 11
M  V30 11 1 9 12
M  V30 12 1 10 13
M  V30 13 1 12 14
M  V30 14 2 13 15
M  V30 15 1 13 16
M  V30 16 1 14 17
M  V30 17 1 16 18
M  V30 18 1 18 19
M  V30 19 1 6 20
M  V30 20 1 7 21
M  V30 21 1 7 22
M  V30 22 1 7 23
M  V30 23 1 8 24
M  V30 24 1 8 25
M  V30 25 1 8 26
M  V30 26 1 10 27
M  V30 27 1 10 28
M  V30 28 1 14 29
M  V30 29 1 14 30
M  V30 30 1 17 31
M  V30 31 1 17 32
M  V30 32 1 17 33
M  V30 33 1 18 34
M  V30 34 1 18 35
M  V30 35 1 19 36
M  V30 36 1 19 37
M  V30 37 1 19 38
M  V30 END BOND
M  V30 BEGIN COLLECTION
M  V30 MDLV30/STERAC1 ATOMS=(1 6)
M  V30 END COLLECTION
M  V30 END CTAB
M  END
>  <Column 1>
3482

>  <level_0>
5727

>  <index>
5728

>  <Unnamed: 0>
5728

>  <NO.>
5740

>  <Name>
malathion

>  <IUPAC_name>
diethyl 2-dimethoxyphosphinothioylsulfanylbutanedioate

>  <SMILES>
CCOC(=O)CC(SP(=S)(OC)OC)C(=O)OCC

>  <CID>
4004

>  <logBB>


>  <BBB+/BBB->
BBB-

>  <Inchi>
InChI=1S/C10H19O6PS2/c1-5-15-9(11)7-8(10(12)16-6-2)19-17(18-13-3)14-4/h8H-5-7H2-1-4H3

>  <threshold>


>  <reference>
R23|

>  <group>
C

>  <Class>
-1

>  <ABC>
13.07

>  <ABCGG>
13.19

>  <nAcid>
0

>  <nBase>
0

>  <nAromAtom>
0

>  <nAromBond>
0

>  <nAtom>
38

>  <nHeavyAtom>
19

>  <nSpiro>
0

>  <nBridgehead>
0

>  <nHetero>
9

>  <nN>
0

>  <nO>
6

>  <nF>
0

>  <BalabanJ>
4.65

>  <BertzCT>
340.91

>  <nBonds>
37

>  <nBondsO>
18

>  <nBondsS>
34

>  <nBondsD>
3

>  <nBondsT>
0

>  <nBondsA>
0

>  <nBondsM>
3

>  <nBondsKS>
34

>  <nBondsKD>
3

>  <RNCG>
0.21

>  <RPCG>
0.14

>  <FCSP3>
0.8

>  <SZ>
29

>  <Sm>
27.5

>  <Sv>
23

>  <Sse>
38.99

>  <Sp>
26.11

>  <Si>
42.97

>  <MZ>
0.76

>  <Mm>
0.72

>  <Mv>
0.61

>  <Mse>
1.03

>  <Mp>
0.69

>  <Mi>
1.13

>  <NsCH3>
4

>  <NdCH2>
0

>  <NssCH2>
3

>  <NtCH>
0

>  <NdsCH>
0

>  <NaaCH>
0

>  <NsssCH>
1

>  <NddC>
0

>  <NtsC>
0

>  <NdssC>
2

>  <NaasC>
0

>  <NaaaC>
0

>  <NssssC>
0

>  <NsNH3>
0

>  <NsNH2>
0

>  <NssNH2>
0

>  <NdNH>
0

>  <NssNH>
0

>  <NaaNH>
0

>  <NtN>
0

>  <NsssNH>
0

>  <NdsN>
0

>  <NaaN>
0

>  <NsssN>
0

>  <NddsN>
0

>  <NaasN>
0

>  <NssssN>
0

>  <NsOH>
0

>  <NdO>
2

>  <NssO>
4

>  <NaaO>
0

>  <NsF>
0

>  <NsSiH3>
0

>  <NssSiH2>
0

>  <NsssSiH>
0

>  <NssssSi>
0

>  <NsPH2>
0

>  <NssPH>
0

>  <NsssP>
0

>  <NdsssP>
1

>  <NsssssP>
0

>  <NsSH>
0

>  <NdS>
1

>  <NssS>
1

>  <NaaS>
0

>  <NdssS>
0

>  <NddssS>
0

>  <NsCl>
0

>  <NsBr>
0

>  <NsI>
0

>  <fragCpx>
18.09

>  <fMF>
0

>  <nHBAcc>
8

>  <nHBDon>
0

>  <Kier1>
19

>  <Kier2>
9.83

>  <Lipinski>
1

>  <GhoseFilter>
1

>  <FilterItLogS>
-1.86

>  <VMcGowan>
231.54

>  <LabuteASA>
121.97

>  <PEOE_VSA1>
18.52

>  <PEOE_VSA2>
9.59

>  <PEOE_VSA3>
0

>  <PEOE_VSA4>
0

>  <PEOE_VSA5>
0

>  <PEOE_VSA6>
11.38

>  <PEOE_VSA7>
25.65

>  <PEOE_VSA8>
14.22

>  <PEOE_VSA9>
19.63

>  <PEOE_VSA10>
5.25

>  <PEOE_VSA11>
0

>  <PEOE_VSA12>
5.69

>  <PEOE_VSA13>
0

>  <SMR_VSA1>
28.11

>  <SMR_VSA2>
0

>  <SMR_VSA3>
0

>  <SMR_VSA4>
0

>  <SMR_VSA5>
25.52

>  <SMR_VSA6>
27.43

>  <SMR_VSA7>
0

>  <SMR_VSA8>
0

>  <SMR_VSA9>
0

>  <SlogP_VSA1>
0

>  <SlogP_VSA2>
44.62

>  <SlogP_VSA3>
39.92

>  <SlogP_VSA4>
0

>  <SlogP_VSA5>
20.27

>  <SlogP_VSA6>
0

>  <SlogP_VSA7>
0

>  <SlogP_VSA8>
0

>  <SlogP_VSA9>
0

>  <SlogP_VSA10>
0

>  <SlogP_VSA11>
0

>  <EState_VSA1>
22.88

>  <EState_VSA2>
19.63

>  <EState_VSA3>
0

>  <EState_VSA4>
11.38

>  <EState_VSA5>
14.22

>  <EState_VSA6>
13.85

>  <EState_VSA7>
0

>  <EState_VSA8>
0

>  <EState_VSA9>
30.33

>  <EState_VSA10>
9.59

>  <VSA_EState1>
19.92

>  <VSA_EState2>
23.28

>  <VSA_EState3>
-0.79

>  <VSA_EState4>
-2.65

>  <VSA_EState5>
-1.01

>  <VSA_EState6>
0

>  <VSA_EState7>
-0.12

>  <VSA_EState8>
3.86

>  <VSA_EState9>
2.81

>  <apol>
43.61

>  <bpol>
34.35

>  <nRing>
0

>  <nHRing>
0

>  <naRing>
0

>  <naHRing>
0

>  <nARing 2>
0

>  <nAHRing 2>
0

>  <nFRing>
0

>  <nFHRing>
0

>  <nFaRing>
0

>  <nFaHRing>
0

>  <nFARing 2>
0

>  <nFAHRing 2>
0

>  <nRot>
9

>  <SLogP>
2.12

>  <SMR>
77.57

>  <TopoPSA(NO)>
71.06

>  <TopoPSA>
138.26

>  <JGI1>
0.31

>  <JGI2>
0.11

>  <JGI3>
0.06

>  <JGI4>
0.04

>  <JGI5>
0.03

>  <Diameter>
9

>  <Radius>
5

>  <TMWC10>
106.11

>  <TSRW10>
51.01

>  <MW>
330.04

>  <AMW>
8.69

>  <WPath>
738

>  <WPol>
25

>  <Zagreb1>
82

>  <Zagreb2>
89

>  <mZagreb2>
4.74

>  <yes>


>  <nAR-cont>
0.336376

>  <nHA-cont>
0.998649058

>  <MWHBN>
0.440358818

>  <MWHBN-cont>
0.320964766

>  <TPSA-cont>
0

>  <pka_cont>
0.97

>  <yes.1>


>  <BBB_SCORE>
2.301472206

>  <MMFF94 Energy>
-106.89

$$$$
Compound 2762
Actelion Java MolfileCreator 2.0

  0  0  0  0  0  0              0 V3000
M  V30 BEGIN CTAB
M  V30 COUNTS 69 71 0 0 0
M  V30 BEGIN ATOM
M  V30 1 O -2.6919 -1.9788 -2.2957 0
M  V30 2 C -1.5015 -1.6637 -2.2415 0
M  V30 3 N -0.6087 -2.38 -1.4697 0
M  V30 4 C -0.857 -0.4499 -3.0027 0
M  V30 5 C -1.0395 -3.5156 -0.6873 0
M  V30 6 N -1.4499 0.8551 -2.7341 0
M  V30 7 C -1.2975 -0.2268 -4.4647 0
M  V30 8 C 0.0631 -3.9666 0.2323 0
M  V30 9 C -1.3663 1.7729 -1.7291 0
M  V30 10 C -2.1857 0.9235 -3.9803 0
M  V30 11 C 0.2742 -3.3093 1.4549 0
M  V30 12 C 0.9266 -5.006 -0.1449 0
M  V30 13 O -1.9152 2.8728 -1.8177 0
M  V30 14 C -0.4787 1.4009 -0.5163 0
M  V30 15 C 1.3251 -3.6904 2.2906 0
M  V30 16 C 1.977 -5.391 0.6912 0
M  V30 17 N 0.6236 2.3832 -0.3841 0
M  V30 18 C -1.2798 1.3225 0.8148 0
M  V30 19 C 2.1796 -4.7246 1.9031 0
M  V30 20 C 1.5894 2.3091 -1.4971 0
M  V30 21 C -1.8907 2.6552 1.2934 0
M  V30 22 C -2.3671 0.2338 0.7533 0
M  V30 23 C 3.2827 -5.1648 2.8015 0
M  V30 24 C 2.6677 3.3827 -1.3709 0
M  V30 25 C -2.6219 2.4946 2.6266 0
M  V30 26 C -3.1038 0.0836 2.0825 0
M  V30 27 N 4.2202 -4.386 3.2703 0
M  V30 28 N 3.3112 -6.4806 3.1638 0
M  V30 29 O 3.8364 3.2143 -1.6988 0
M  V30 30 O 2.1425 4.562 -0.9276 0
M  V30 31 C -3.6894 1.4087 2.5555 0
M  V30 32 O 4.1322 -3.0772 2.7848 0
M  V30 33 C 3.0962 5.6226 -0.8045 0
M  V30 34 C 2.3759 6.8462 -0.2727 0
M  V30 35 H 0.3705 -2.1266 -1.4421 0
M  V30 36 H 0.2357 -0.4188 -2.9075 0
M  V30 37 H -1.9335 -3.2454 -0.1128 0
M  V30 38 H -1.3312 -4.3164 -1.3765 0
M  V30 39 H -0.4832 0.0851 -5.1291 0
M  V30 40 H -1.8345 -1.0553 -4.9362 0
M  V30 41 H -2.0657 1.8631 -4.5246 0
M  V30 42 H -3.2451 0.6822 -3.8575 0
M  V30 43 H -0.3777 -2.4936 1.7618 0
M  V30 44 H 0.7891 -5.5185 -1.0949 0
M  V30 45 H -0.0276 0.4156 -0.6722 0
M  V30 46 H 1.4816 -3.1815 3.2385 0
M  V30 47 H 2.6462 -6.1919 0.3883 0
M  V30 48 H 0.2159 3.3256 -0.3877 0
M  V30 49 H -0.5625 1.0092 1.5891 0
M  V30 50 H 1.1079 2.4518 -2.4696 0
M  V30 51 H 2.0881 1.3342 -1.4781 0
M  V30 52 H -2.6028 3.0387 0.5549 0
M  V30 53 H -1.1123 3.4158 1.4168 0
M  V30 54 H -1.9129 -0.7277 0.4981 0
M  V30 55 H -3.0952 0.4667 -0.033 0
M  V30 56 H -1.8981 2.2466 3.4127 0
M  V30 57 H -3.085 3.4471 2.9086 0
M  V30 58 H -3.9046 -0.6569 1.9773 0
M  V30 59 H -2.4112 -0.3016 2.841 0
M  V30 60 H 4.0456 -6.783 3.7899 0
M  V30 61 H 2.5791 -7.13 2.915 0
M  V30 62 H -4.1501 1.2783 3.5411 0
M  V30 63 H -4.4854 1.7227 1.8691 0
M  V30 64 H 4.9083 -2.6538 3.195 0
M  V30 65 H 3.5289 5.8454 -1.7861 0
M  V30 66 H 3.8899 5.329 -0.1084 0
M  V30 67 H 3.0656 7.6874 -0.1611 0
M  V30 68 H 1.5654 7.1403 -0.9478 0
M  V30 69 H 1.9186 6.6323 0.699 0
M  V30 END ATOM
M  V30 BEGIN BOND
M  V30 1 2 1 2
M  V30 2 1 2 3
M  V30 3 1 2 4
M  V30 4 1 3 5
M  V30 5 1 4 6
M  V30 6 1 4 7
M  V30 7 1 5 8
M  V30 8 1 6 9
M  V30 9 1 6 10
M  V30 10 2 8 11
M  V30 11 1 8 12
M  V30 12 2 9 13
M  V30 13 1 9 14
M  V30 14 1 11 15
M  V30 15 2 12 16
M  V30 16 1 14 17
M  V30 17 1 14 18
M  V30 18 2 15 19
M  V30 19 1 17 20
M  V30 20 1 18 21
M  V30 21 1 18 22
M  V30 22 1 19 23
M  V30 23 1 20 24
M  V30 24 1 21 25
M  V30 25 1 22 26
M  V30 26 2 23 27
M  V30 27 1 23 28
M  V30 28 2 24 29
M  V30 29 1 24 30
M  V30 30 1 25 31
M  V30 31 1 27 32
M  V30 32 1 30 33
M  V30 33 1 33 34
M  V30 34 1 7 10
M  V30 35 1 16 19
M  V30 36 1 26 31
M  V30 37 1 3 35
M  V30 38 1 4 36
M  V30 39 1 5 37
M  V30 40 1 5 38
M  V30 41 1 7 39
M  V30 42 1 7 40
M  V30 43 1 10 41
M  V30 44 1 10 42
M  V30 45 1 11 43
M  V30 46 1 12 44
M  V30 47 1 14 45
M  V30 48 1 15 46
M  V30 49 1 16 47
M  V30 50 1 17 48
M  V30 51 1 18 49
M  V30 52 1 20 50
M  V30 53 1 20 51
M  V30 54 1 21 52
M  V30 55 1 21 53
M  V30 56 1 22 54
M  V30 57 1 22 55
M  V30 58 1 25 56
M  V30 59 1 25 57
M  V30 60 1 26 58
M  V30 61 1 26 59
M  V30 62 1 28 60
M  V30 63 1 28 61
M  V30 64 1 31 62
M  V30 65 1 31 63
M  V30 66 1 32 64
M  V30 67 1 33 65
M  V30 68 1 33 66
M  V30 69 1 34 67
M  V30 70 1 34 68
M  V30 71 1 34 69
M  V30 END BOND
M  V30 END CTAB
M  END
>  <Column 1>
3484

>  <level_0>
5729

>  <index>
5730

>  <Unnamed: 0>
5730

>  <NO.>
5742

>  <Name>
ximelagatran

>  <IUPAC_name>
ethyl 2-[[1-cyclohexyl-2-[2-[[4-[(e)-n'-hydroxycarbamimidoyl]phenyl]methylcarbamoyl]azetidin-1-yl]-2-oxoethyl]amino]acetate

>  <SMILES>
CCOC(=O)CNC(C(=O)N1CCC1C(=O)NCc1ccc(/C(N)=N\O)cc1)C1CCCCC1

>  <CID>
18670936

>  <logBB>


>  <BBB+/BBB->
BBB-

>  <Inchi>
InChI=1S/C24H35N5O5/c1-2-34-20(30)15-26-21(17-6-4-3-5-7-17)24(32)29-13-12-19(29)23(31)27-14-16-8-10-18(11-9-16)22(25)28-33/h8-11-17-19-21-26-33H-2-7-12-15H2-1H3-(H2-25-28)(H-27-31)

>  <threshold>


>  <reference>
R23|

>  <group>
C

>  <Class>
-1

>  <ABC>
25.65

>  <ABCGG>
20.33

>  <nAcid>
0

>  <nBase>
3

>  <nAromAtom>
6

>  <nAromBond>
6

>  <nAtom>
69

>  <nHeavyAtom>
34

>  <nSpiro>
0

>  <nBridgehead>
0

>  <nHetero>
10

>  <nN>
5

>  <nO>
5

>  <nF>
0

>  <BalabanJ>
1.48

>  <BertzCT>
882.24

>  <nBonds>
71

>  <nBondsO>
36

>  <nBondsS>
61

>  <nBondsD>
4

>  <nBondsT>
0

>  <nBondsA>
6

>  <nBondsM>
10

>  <nBondsKS>
64

>  <nBondsKD>
7

>  <RNCG>
0.13

>  <RPCG>
0.09

>  <FCSP3>
0.58

>  <SZ>
42.33

>  <Sm>
39.43

>  <Sv>
40.85

>  <Sse>
69.51

>  <Sp>
43.67

>  <Si>
78.77

>  <MZ>
0.61

>  <Mm>
0.57

>  <Mv>
0.59

>  <Mse>
1.01

>  <Mp>
0.63

>  <Mi>
1.14

>  <NsCH3>
1

>  <NdCH2>
0

>  <NssCH2>
10

>  <NtCH>
0

>  <NdsCH>
0

>  <NaaCH>
4

>  <NsssCH>
3

>  <NddC>
0

>  <NtsC>
0

>  <NdssC>
4

>  <NaasC>
2

>  <NaaaC>
0

>  <NssssC>
0

>  <NsNH3>
0

>  <NsNH2>
1

>  <NssNH2>
0

>  <NdNH>
0

>  <NssNH>
2

>  <NaaNH>
0

>  <NtN>
0

>  <NsssNH>
0

>  <NdsN>
1

>  <NaaN>
0

>  <NsssN>
1

>  <NddsN>
0

>  <NaasN>
0

>  <NssssN>
0

>  <NsOH>
1

>  <NdO>
3

>  <NssO>
1

>  <NaaO>
0

>  <NsF>
0

>  <NsSiH3>
0

>  <NssSiH2>
0

>  <NsssSiH>
0

>  <NssssSi>
0

>  <NsPH2>
0

>  <NssPH>
0

>  <NsssP>
0

>  <NdsssP>
0

>  <NsssssP>
0

>  <NsSH>
0

>  <NdS>
0

>  <NssS>
0

>  <NaaS>
0

>  <NdssS>
0

>  <NddssS>
0

>  <NsCl>
0

>  <NsBr>
0

>  <NsI>
0

>  <fragCpx>
174.1

>  <fMF>
0.3

>  <nHBAcc>
7

>  <nHBDon>
4

>  <Kier1>
28.57

>  <Kier2>
14.67

>  <Lipinski>
1

>  <GhoseFilter>
1

>  <FilterItLogS>
-3.51

>  <VMcGowan>
365.59

>  <LabuteASA>
199.43

>  <PEOE_VSA1>
25.89

>  <PEOE_VSA2>
19.7

>  <PEOE_VSA3>
0

>  <PEOE_VSA4>
0

>  <PEOE_VSA5>
0

>  <PEOE_VSA6>
48.68

>  <PEOE_VSA7>
37.67

>  <PEOE_VSA8>
18.65

>  <PEOE_VSA9>
19.19

>  <PEOE_VSA10>
6.04

>  <PEOE_VSA11>
5.84

>  <PEOE_VSA12>
11.81

>  <PEOE_VSA13>
0

>  <SMR_VSA1>
24.33

>  <SMR_VSA2>
0

>  <SMR_VSA3>
15.53

>  <SMR_VSA4>
16.81

>  <SMR_VSA5>
64.08

>  <SMR_VSA6>
19.7

>  <SMR_VSA7>
35.39

>  <SMR_VSA8>
0

>  <SMR_VSA9>
0

>  <SlogP_VSA1>
16.37

>  <SlogP_VSA2>
65.51

>  <SlogP_VSA3>
25.67

>  <SlogP_VSA4>
5.92

>  <SlogP_VSA5>
56.58

>  <SlogP_VSA6>
29.42

>  <SlogP_VSA7>
0

>  <SlogP_VSA8>
0

>  <SlogP_VSA9>
0

>  <SlogP_VSA10>
0

>  <SlogP_VSA11>
0

>  <EState_VSA1>
12.08

>  <EState_VSA2>
36.08

>  <EState_VSA3>
31.68

>  <EState_VSA4>
37.67

>  <EState_VSA5>
0

>  <EState_VSA6>
36.09

>  <EState_VSA7>
0

>  <EState_VSA8>
15.79

>  <EState_VSA9>
15.68

>  <EState_VSA10>
14.38

>  <VSA_EState1>
5

>  <VSA_EState2>
39.71

>  <VSA_EState3>
17.74

>  <VSA_EState4>
7.01

>  <VSA_EState5>
-0.54

>  <VSA_EState6>
5.98

>  <VSA_EState7>
5.75

>  <VSA_EState8>
2.85

>  <VSA_EState9>
0

>  <apol>
72.93

>  <bpol>
41.73

>  <nRing>
3

>  <nHRing>
1

>  <naRing>
1

>  <naHRing>
0

>  <nARing 2>
2

>  <nAHRing 2>
1

>  <nFRing>
0

>  <nFHRing>
0

>  <nFaRing>
0

>  <nFaHRing>
0

>  <nFARing 2>
0

>  <nFAHRing 2>
0

>  <nRot>
10

>  <SLogP>
1.1

>  <SMR>
125.92

>  <TopoPSA(NO)>
146.35

>  <TopoPSA>
146.35

>  <JGI1>
0.17

>  <JGI2>
0.09

>  <JGI3>
0.04

>  <JGI4>
0.03

>  <JGI5>
0.03

>  <Diameter>
19

>  <Radius>
10

>  <TMWC10>
146.96

>  <TSRW10>
70.1

>  <MW>
473.26

>  <AMW>
6.86

>  <WPath>
4012

>  <WPol>
50

>  <Zagreb1>
168

>  <Zagreb2>
194

>  <mZagreb2>
7.83

>  <yes>


>  <nAR-cont>
1

>  <nHA-cont>
0.568589513

>  <MWHBN>
0.505641587

>  <MWHBN-cont>
0

>  <TPSA-cont>
0

>  <pka_cont>
0.97

>  <yes.1>


>  <BBB_SCORE>
2.053589513

>  <MMFF94 Energy>
87.702

$$$$
Compound 2763
Actelion Java MolfileCreator 2.0

  0  0  0  0  0  0              0 V3000
M  V30 BEGIN CTAB
M  V30 COUNTS 41 41 0 0 0
M  V30 BEGIN ATOM
M  V30 1 O 1.0104 2.0994 -4.2802 0
M  V30 2 C 2.0121 1.7037 -3.7 0
M  V30 3 O 3.2394 2.2795 -3.7752 0
M  V30 4 N 2.077 0.6009 -2.8875 0
M  V30 5 C 3.2864 3.4446 -4.6075 0
M  V30 6 N 0.9449 -0.1685 -2.6874 0
M  V30 7 C 4.7047 3.9805 -4.5913 0
M  V30 8 C 0.4131 -0.3176 -1.4079 0
M  V30 9 N -0.8488 -0.7619 -1.3046 0
M  V30 10 C 1.1235 -0.0681 -0.248 0
M  V30 11 N -1.443 -0.9544 -0.0593 0
M  V30 12 C 0.5195 -0.266 1.001 0
M  V30 13 C -0.7886 -0.7177 1.0966 0
M  V30 14 N -1.4306 -0.9317 2.3019 0
M  V30 15 C -2.8309 -1.3874 2.2671 0
M  V30 16 C -0.7845 -0.8329 3.6053 0
M  V30 17 C -2.9283 -2.913 2.0544 0 CFG=1
M  V30 18 C -0.8292 0.5974 4.1224 0
M  V30 19 O -2.5392 -3.6008 3.2521 0
M  V30 20 C -4.3553 -3.3254 1.7184 0
M  V30 21 H 2.9637 0.2853 -2.5175 0
M  V30 22 H 2.5998 4.2054 -4.2193 0
M  V30 23 H 3.0037 3.1791 -5.6323 0
M  V30 24 H 0.2718 -0.2627 -3.4464 0
M  V30 25 H 4.7912 4.8742 -5.2154 0
M  V30 26 H 5.0104 4.2313 -3.5701 0
M  V30 27 H 5.4067 3.2241 -4.9571 0
M  V30 28 H 2.1467 0.2852 -0.2824 0
M  V30 29 H 1.1048 -0.0493 1.8862 0
M  V30 30 H -3.3146 -1.1255 3.2174 0
M  V30 31 H -3.3876 -0.8473 1.4908 0
M  V30 32 H 0.2464 -1.2029 3.5738 0
M  V30 33 H -1.2979 -1.4742 4.3319 0
M  V30 34 H -2.2557 -3.2381 1.2534 0
M  V30 35 H -1.8624 0.9499 4.2103 0
M  V30 36 H -0.2991 1.2852 3.4567 0
M  V30 37 H -0.3644 0.657 5.1114 0
M  V30 38 H -2.4528 -4.5404 3.017 0
M  V30 39 H -4.4211 -4.4116 1.5936 0
M  V30 40 H -5.041 -3.06 2.5306 0
M  V30 41 H -4.7005 -2.8484 0.7962 0
M  V30 END ATOM
M  V30 BEGIN BOND
M  V30 1 2 1 2
M  V30 2 1 2 3
M  V30 3 1 2 4
M  V30 4 1 3 5
M  V30 5 1 4 6
M  V30 6 1 5 7
M  V30 7 1 6 8
M  V30 8 2 8 9
M  V30 9 1 8 10
M  V30 10 1 9 11
M  V30 11 2 10 12
M  V30 12 2 11 13
M  V30 13 1 13 14
M  V30 14 1 14 15
M  V30 15 1 14 16
M  V30 16 1 15 17
M  V30 17 1 16 18
M  V30 18 1 17 19
M  V30 19 1 17 20
M  V30 20 1 12 13
M  V30 21 1 4 21
M  V30 22 1 5 22
M  V30 23 1 5 23
M  V30 24 1 6 24
M  V30 25 1 7 25
M  V30 26 1 7 26
M  V30 27 1 7 27
M  V30 28 1 10 28
M  V30 29 1 12 29
M  V30 30 1 15 30
M  V30 31 1 15 31
M  V30 32 1 16 32
M  V30 33 1 16 33
M  V30 34 1 17 34
M  V30 35 1 18 35
M  V30 36 1 18 36
M  V30 37 1 18 37
M  V30 38 1 19 38
M  V30 39 1 20 39
M  V30 40 1 20 40
M  V30 41 1 20 41
M  V30 END BOND
M  V30 BEGIN COLLECTION
M  V30 MDLV30/STERAC1 ATOMS=(1 17)
M  V30 END COLLECTION
M  V30 END CTAB
M  END
>  <Column 1>
3485

>  <level_0>
5730

>  <index>
5731

>  <Unnamed: 0>
5731

>  <NO.>
5743

>  <Name>
cadralazine

>  <IUPAC_name>
ethyl n-[[6-[ethyl(2-hydroxypropyl)amino]pyridazin-3-yl]amino]carbamate

>  <SMILES>
CCOC(=O)NNc1ccc(N(CC)CC(C)O)nn1

>  <CID>
2515

>  <logBB>


>  <BBB+/BBB->
BBB-

>  <Inchi>
InChI=1S/C12H21N5O3/c1-4-17(8-9(3)18)11-7-6-10(13-15-11)14-16-12(19)20-5-2/h6-7-9-18H-4-5-8H2-1-3H3-(H-13-14)(H-16-19)

>  <threshold>


>  <reference>
R23|

>  <group>
C

>  <Class>
-1

>  <ABC>
14.43

>  <ABCGG>
12.39

>  <nAcid>
0

>  <nBase>
0

>  <nAromAtom>
6

>  <nAromBond>
6

>  <nAtom>
41

>  <nHeavyAtom>
20

>  <nSpiro>
0

>  <nBridgehead>
0

>  <nHetero>
8

>  <nN>
5

>  <nO>
3

>  <nF>
0

>  <BalabanJ>
2.25

>  <BertzCT>
410.06

>  <nBonds>
41

>  <nBondsO>
20

>  <nBondsS>
34

>  <nBondsD>
1

>  <nBondsT>
0

>  <nBondsA>
6

>  <nBondsM>
7

>  <nBondsKS>
37

>  <nBondsKD>
4

>  <RNCG>
0.19

>  <RPCG>
0.18

>  <FCSP3>
0.58

>  <SZ>
25.33

>  <Sm>
23.59

>  <Sv>
23.62

>  <Sse>
41.63

>  <Sp>
25.12

>  <Si>
47.44

>  <MZ>
0.62

>  <Mm>
0.58

>  <Mv>
0.58

>  <Mse>
1.02

>  <Mp>
0.61

>  <Mi>
1.16

>  <NsCH3>
3

>  <NdCH2>
0

>  <NssCH2>
3

>  <NtCH>
0

>  <NdsCH>
0

>  <NaaCH>
2

>  <NsssCH>
1

>  <NddC>
0

>  <NtsC>
0

>  <NdssC>
1

>  <NaasC>
2

>  <NaaaC>
0

>  <NssssC>
0

>  <NsNH3>
0

>  <NsNH2>
0

>  <NssNH2>
0

>  <NdNH>
0

>  <NssNH>
2

>  <NaaNH>
0

>  <NtN>
0

>  <NsssNH>
0

>  <NdsN>
0

>  <NaaN>
2

>  <NsssN>
1

>  <NddsN>
0

>  <NaasN>
0

>  <NssssN>
0

>  <NsOH>
1

>  <NdO>
1

>  <NssO>
1

>  <NaaO>
0

>  <NsF>
0

>  <NsSiH3>
0

>  <NssSiH2>
0

>  <NsssSiH>
0

>  <NssssSi>
0

>  <NsPH2>
0

>  <NssPH>
0

>  <NsssP>
0

>  <NdsssP>
0

>  <NsssssP>
0

>  <NsSH>
0

>  <NdS>
0

>  <NssS>
0

>  <NaaS>
0

>  <NdssS>
0

>  <NddssS>
0

>  <NsCl>
0

>  <NsBr>
0

>  <NsI>
0

>  <fragCpx>
20.08

>  <fMF>
0.15

>  <nHBAcc>
7

>  <nHBDon>
3

>  <Kier1>
18.05

>  <Kier2>
9.85

>  <Lipinski>
1

>  <GhoseFilter>
1

>  <FilterItLogS>
-2.33

>  <VMcGowan>
219.39

>  <LabuteASA>
117.66

>  <PEOE_VSA1>
14.74

>  <PEOE_VSA2>
5.43

>  <PEOE_VSA3>
10.22

>  <PEOE_VSA4>
0

>  <PEOE_VSA5>
10.2

>  <PEOE_VSA6>
0

>  <PEOE_VSA7>
32.9

>  <PEOE_VSA8>
13.09

>  <PEOE_VSA9>
12.71

>  <PEOE_VSA10>
0

>  <PEOE_VSA11>
11.64

>  <PEOE_VSA12>
0

>  <PEOE_VSA13>
0

>  <SMR_VSA1>
14.64

>  <SMR_VSA2>
0

>  <SMR_VSA3>
15.62

>  <SMR_VSA4>
0

>  <SMR_VSA5>
26.88

>  <SMR_VSA6>
30.02

>  <SMR_VSA7>
12.13

>  <SMR_VSA8>
0

>  <SMR_VSA9>
0

>  <SlogP_VSA1>
15.75

>  <SlogP_VSA2>
47.2

>  <SlogP_VSA3>
4.74

>  <SlogP_VSA4>
0

>  <SlogP_VSA5>
20.77

>  <SlogP_VSA6>
12.13

>  <SlogP_VSA7>
0

>  <SlogP_VSA8>
0

>  <SlogP_VSA9>
0

>  <SlogP_VSA10>
16.43

>  <SlogP_VSA11>
0

>  <EState_VSA1>
12.2

>  <EState_VSA2>
0

>  <EState_VSA3>
31.33

>  <EState_VSA4>
0

>  <EState_VSA5>
0

>  <EState_VSA6>
25.98

>  <EState_VSA7>
11.82

>  <EState_VSA8>
25.79

>  <EState_VSA9>
0

>  <EState_VSA10>
9.9

>  <VSA_EState1>
4.69

>  <VSA_EState2>
12.98

>  <VSA_EState3>
17.37

>  <VSA_EState4>
4.92

>  <VSA_EState5>
1.06

>  <VSA_EState6>
3.44

>  <VSA_EState7>
-1.03

>  <VSA_EState8>
6.9

>  <VSA_EState9>
0

>  <apol>
41.95

>  <bpol>
26.52

>  <nRing>
1

>  <nHRing>
1

>  <naRing>
1

>  <naHRing>
1

>  <nARing 2>
0

>  <nAHRing 2>
0

>  <nFRing>
0

>  <nFHRing>
0

>  <nFaRing>
0

>  <nFaHRing>
0

>  <nFARing 2>
0

>  <nFAHRing 2>
0

>  <nRot>
7

>  <SLogP>
0.76

>  <SMR>
75.38

>  <TopoPSA(NO)>
99.61

>  <TopoPSA>
99.61

>  <JGI1>
0.23

>  <JGI2>
0.08

>  <JGI3>
0.04

>  <JGI4>
0.04

>  <JGI5>
0.03

>  <Diameter>
13

>  <Radius>
7

>  <TMWC10>
109.61

>  <TSRW10>
52.3

>  <MW>
283.16

>  <AMW>
6.91

>  <WPath>
974

>  <WPol>
25

>  <Zagreb1>
90

>  <Zagreb2>
98

>  <mZagreb2>
4.78

>  <yes>


>  <nAR-cont>
0.336376

>  <nHA-cont>
0.999629945

>  <MWHBN>
0.59427033

>  <MWHBN-cont>
0

>  <TPSA-cont>
0.304660346

>  <pka_cont>
0.97

>  <yes.1>


>  <BBB_SCORE>
2.430326636

>  <MMFF94 Energy>
31.746

$$$$
Compound 2764
Actelion Java MolfileCreator 2.0

  0  0  0  0  0  0              0 V3000
M  V30 BEGIN CTAB
M  V30 COUNTS 62 62 0 0 0
M  V30 BEGIN ATOM
M  V30 1 S 2.5369 -6.0334 -5.0789 0
M  V30 2 C 3.4931 -4.9209 -3.9904 0
M  V30 3 C 2.111 -7.327 -3.8866 0
M  V30 4 C 2.58 -4.1427 -3.0458 0
M  V30 5 C 3.3313 -3.0533 -2.2688 0 CFG=2
M  V30 6 N 4.2158 -3.6053 -1.2496 0
M  V30 7 C 2.3106 -2.1602 -1.5382 0
M  V30 8 C 5.5441 -3.8535 -1.4739 0
M  V30 9 O 2.0254 -2.3284 -0.3526 0
M  V30 10 N 1.7258 -1.1913 -2.3248 0
M  V30 11 O 6.0889 -3.6686 -2.5567 0
M  V30 12 C 6.29 -4.3503 -0.2664 0
M  V30 13 C 0.715 -0.2909 -1.8015 0
M  V30 14 C 1.3251 0.8517 -0.9862 0
M  V30 15 C 0.2677 1.801 -0.4788 0
M  V30 16 C -0.4279 1.5112 0.7047 0
M  V30 17 C -0.0474 2.9677 -1.1967 0
M  V30 18 C -1.4108 2.3885 1.1589 0
M  V30 19 C -1.0474 3.8336 -0.7464 0
M  V30 20 O -2.1049 2.0745 2.3263 0
M  V30 21 C -1.7416 3.5245 0.4199 0
M  V30 22 C -1.6099 2.7423 3.4325 0
M  V30 23 O -2.7287 4.3995 0.8701 0
M  V30 24 O -0.6455 3.4936 3.4711 0
M  V30 25 O -2.3901 2.4145 4.4979 0
M  V30 26 C -3.9987 4.0002 0.4934 0
M  V30 27 C -1.996 3.0399 5.7228 0
M  V30 28 O -4.2935 3.0426 -0.2082 0
M  V30 29 O -4.8872 4.8738 1.0397 0
M  V30 30 C -2.952 2.5933 6.8119 0
M  V30 31 C -6.2545 4.5794 0.7385 0
M  V30 32 C -7.124 5.6199 1.4175 0
M  V30 33 H 4.0364 -4.2271 -4.6404 0
M  V30 34 H 4.2326 -5.5135 -3.4443 0
M  V30 35 H 1.6059 -8.1423 -4.4116 0
M  V30 36 H 1.4328 -6.9416 -3.1218 0
M  V30 37 H 3.0129 -7.7263 -3.4155 0
M  V30 38 H 1.7752 -3.6736 -3.6271 0
M  V30 39 H 2.096 -4.8253 -2.3358 0
M  V30 40 H 3.9164 -2.4248 -2.9508 0
M  V30 41 H 3.8291 -3.6902 -0.3128 0
M  V30 42 H 2.0015 -1.0959 -3.2947 0
M  V30 43 H 6.7224 -3.4976 0.2635 0
M  V30 44 H 7.0886 -5.0251 -0.5864 0
M  V30 45 H 5.6261 -4.896 0.4099 0
M  V30 46 H 0.014 -0.872 -1.1907 0
M  V30 47 H 0.1602 0.1009 -2.6614 0
M  V30 48 H 1.8962 0.4582 -0.1358 0
M  V30 49 H 2.0533 1.4 -1.5979 0
M  V30 50 H -0.2013 0.6113 1.2715 0
M  V30 51 H 0.4851 3.2087 -2.1145 0
M  V30 52 H -1.2837 4.7334 -1.3063 0
M  V30 53 H -2.043 4.1295 5.6151 0
M  V30 54 H -0.9749 2.7379 5.9814 0
M  V30 55 H -2.6898 3.0475 7.7716 0
M  V30 56 H -3.9809 2.8701 6.559 0
M  V30 57 H -2.9325 1.5038 6.9191 0
M  V30 58 H -6.5111 3.5825 1.1143 0
M  V30 59 H -6.4117 4.6176 -0.3452 0
M  V30 60 H -8.1828 5.4359 1.2152 0
M  V30 61 H -6.9637 5.6089 2.5007 0
M  V30 62 H -6.8666 6.6252 1.0678 0
M  V30 END ATOM
M  V30 BEGIN BOND
M  V30 1 1 1 2
M  V30 2 1 1 3
M  V30 3 1 2 4
M  V30 4 1 4 5
M  V30 5 1 5 6
M  V30 6 1 5 7
M  V30 7 1 6 8
M  V30 8 2 7 9
M  V30 9 1 7 10
M  V30 10 2 8 11
M  V30 11 1 8 12
M  V30 12 1 10 13
M  V30 13 1 13 14
M  V30 14 1 14 15
M  V30 15 2 15 16
M  V30 16 1 15 17
M  V30 17 1 16 18
M  V30 18 2 17 19
M  V30 19 1 18 20
M  V30 20 2 18 21
M  V30 21 1 20 22
M  V30 22 1 21 23
M  V30 23 2 22 24
M  V30 24 1 22 25
M  V30 25 1 23 26
M  V30 26 1 25 27
M  V30 27 2 26 28
M  V30 28 1 26 29
M  V30 29 1 27 30
M  V30 30 1 29 31
M  V30 31 1 31 32
M  V30 32 1 19 21
M  V30 33 1 2 33
M  V30 34 1 2 34
M  V30 35 1 3 35
M  V30 36 1 3 36
M  V30 37 1 3 37
M  V30 38 1 4 38
M  V30 39 1 4 39
M  V30 40 1 5 40
M  V30 41 1 6 41
M  V30 42 1 10 42
M  V30 43 1 12 43
M  V30 44 1 12 44
M  V30 45 1 12 45
M  V30 46 1 13 46
M  V30 47 1 13 47
M  V30 48 1 14 48
M  V30 49 1 14 49
M  V30 50 1 16 50
M  V30 51 1 17 51
M  V30 52 1 19 52
M  V30 53 1 27 53
M  V30 54 1 27 54
M  V30 55 1 30 55
M  V30 56 1 30 56
M  V30 57 1 30 57
M  V30 58 1 31 58
M  V30 59 1 31 59
M  V30 60 1 32 60
M  V30 61 1 32 61
M  V30 62 1 32 62
M  V30 END BOND
M  V30 BEGIN COLLECTION
M  V30 MDLV30/STERAC1 ATOMS=(1 5)
M  V30 END COLLECTION
M  V30 END CTAB
M  END
>  <Column 1>
3486

>  <level_0>
5731

>  <index>
5732

>  <Unnamed: 0>
5732

>  <NO.>
5744

>  <Name>
schembl8923875

>  <IUPAC_name>
[4-[2-[(2-acetamido-4-methylsulfanylbutanoyl)amino]ethyl]-2-ethoxycarbonyloxyphenyl] ethyl carbonate

>  <SMILES>
CCOC(=O)Oc1ccc(CCNC(=O)C(CCSC)NC(C)=O)cc1OC(=O)OCC

>  <CID>
3142

>  <logBB>


>  <BBB+/BBB->
BBB-

>  <Inchi>
InChI=1S/C21H30N2O8S/c1-5-28-20(26)30-17-8-7-15(13-18(17)31-21(27)29-6-2)9-11-22-19(25)16(10-12-32-4)23-14(3)24/h7-8-13-16H-5-6-9-12H2-1-4H3-(H-22-25)(H-23-24)

>  <threshold>


>  <reference>
R23|

>  <group>
C

>  <Class>
-1

>  <ABC>
23.09

>  <ABCGG>
19.12

>  <nAcid>
0

>  <nBase>
0

>  <nAromAtom>
6

>  <nAromBond>
6

>  <nAtom>
62

>  <nHeavyAtom>
32

>  <nSpiro>
0

>  <nBridgehead>
0

>  <nHetero>
11

>  <nN>
2

>  <nO>
8

>  <nF>
0

>  <BalabanJ>
2.56

>  <BertzCT>
787.06

>  <nBonds>
62

>  <nBondsO>
32

>  <nBondsS>
52

>  <nBondsD>
4

>  <nBondsT>
0

>  <nBondsA>
6

>  <nBondsM>
10

>  <nBondsKS>
55

>  <nBondsKD>
7

>  <RNCG>
0.12

>  <RPCG>
0.14

>  <FCSP3>
0.52

>  <SZ>
41.67

>  <Sm>
39.18

>  <Sv>
37.55

>  <Sse>
63.37

>  <Sp>
39.87

>  <Si>
70.41

>  <MZ>
0.67

>  <Mm>
0.63

>  <Mv>
0.61

>  <Mse>
1.02

>  <Mp>
0.64

>  <Mi>
1.14

>  <NsCH3>
4

>  <NdCH2>
0

>  <NssCH2>
6

>  <NtCH>
0

>  <NdsCH>
0

>  <NaaCH>
3

>  <NsssCH>
1

>  <NddC>
0

>  <NtsC>
0

>  <NdssC>
4

>  <NaasC>
3

>  <NaaaC>
0

>  <NssssC>
0

>  <NsNH3>
0

>  <NsNH2>
0

>  <NssNH2>
0

>  <NdNH>
0

>  <NssNH>
2

>  <NaaNH>
0

>  <NtN>
0

>  <NsssNH>
0

>  <NdsN>
0

>  <NaaN>
0

>  <NsssN>
0

>  <NddsN>
0

>  <NaasN>
0

>  <NssssN>
0

>  <NsOH>
0

>  <NdO>
4

>  <NssO>
4

>  <NaaO>
0

>  <NsF>
0

>  <NsSiH3>
0

>  <NssSiH2>
0

>  <NsssSiH>
0

>  <NssssSi>
0

>  <NsPH2>
0

>  <NssPH>
0

>  <NsssP>
0

>  <NdsssP>
0

>  <NsssssP>
0

>  <NsSH>
0

>  <NdS>
0

>  <NssS>
1

>  <NaaS>
0

>  <NdssS>
0

>  <NddssS>
0

>  <NsCl>
0

>  <NsBr>
0

>  <NsI>
0

>  <fragCpx>
32.11

>  <fMF>
0.1

>  <nHBAcc>
9

>  <nHBDon>
2

>  <Kier1>
30.03

>  <Kier2>
17.44

>  <Lipinski>
1

>  <GhoseFilter>
1

>  <FilterItLogS>
-4.79

>  <VMcGowan>
349.06

>  <LabuteASA>
191.23

>  <PEOE_VSA1>
29.58

>  <PEOE_VSA2>
9.59

>  <PEOE_VSA3>
9.59

>  <PEOE_VSA4>
11.76

>  <PEOE_VSA5>
0

>  <PEOE_VSA6>
6.07

>  <PEOE_VSA7>
56.39

>  <PEOE_VSA8>
13.47

>  <PEOE_VSA9>
13.21

>  <PEOE_VSA10>
6.04

>  <PEOE_VSA11>
11.5

>  <PEOE_VSA12>
11.81

>  <PEOE_VSA13>
0

>  <SMR_VSA1>
38.13

>  <SMR_VSA2>
0

>  <SMR_VSA3>
10.63

>  <SMR_VSA4>
0

>  <SMR_VSA5>
39.65

>  <SMR_VSA6>
31.77

>  <SMR_VSA7>
23.76

>  <SMR_VSA8>
0

>  <SMR_VSA9>
11.5

>  <SlogP_VSA1>
20.11

>  <SlogP_VSA2>
61.93

>  <SlogP_VSA3>
25.48

>  <SlogP_VSA4>
0

>  <SlogP_VSA5>
32.76

>  <SlogP_VSA6>
18.2

>  <SlogP_VSA7>
0

>  <SlogP_VSA8>
0

>  <SlogP_VSA9>
0

>  <SlogP_VSA10>
9.59

>  <SlogP_VSA11>
11.5

>  <EState_VSA1>
18.35

>  <EState_VSA2>
43.07

>  <EState_VSA3>
18.41

>  <EState_VSA4>
5.75

>  <EState_VSA5>
19.06

>  <EState_VSA6>
31.68

>  <EState_VSA7>
6.26

>  <EState_VSA8>
10.63

>  <EState_VSA9>
18.95

>  <EState_VSA10>
19.18

>  <VSA_EState1>
19.7

>  <VSA_EState2>
47.11

>  <VSA_EState3>
5.43

>  <VSA_EState4>
0.71

>  <VSA_EState5>
0.15

>  <VSA_EState6>
4.03

>  <VSA_EState7>
0.96

>  <VSA_EState8>
5.15

>  <VSA_EState9>
0

>  <apol>
66.59

>  <bpol>
44.11

>  <nRing>
1

>  <nHRing>
0

>  <naRing>
1

>  <naHRing>
0

>  <nARing 2>
0

>  <nAHRing 2>
0

>  <nFRing>
0

>  <nFHRing>
0

>  <nFaRing>
0

>  <nFaHRing>
0

>  <nFARing 2>
0

>  <nFAHRing 2>
0

>  <nRot>
12

>  <SLogP>
2.67

>  <SMR>
119.06

>  <TopoPSA(NO)>
129.26

>  <TopoPSA>
154.56

>  <JGI1>
0.22

>  <JGI2>
0.07

>  <JGI3>
0.05

>  <JGI4>
0.04

>  <JGI5>
0.02

>  <Diameter>
17

>  <Radius>
9

>  <TMWC10>
138.12

>  <TSRW10>
66.63

>  <MW>
470.17

>  <AMW>
7.58

>  <WPath>
3476

>  <WPol>
42

>  <Zagreb1>
144

>  <Zagreb2>
157

>  <mZagreb2>
7.64

>  <yes>


>  <nAR-cont>
0.336376

>  <nHA-cont>
0.658856097

>  <MWHBN>
0.507300427

>  <MWHBN-cont>
0

>  <TPSA-cont>
0

>  <pka_cont>
0.97

>  <yes.1>


>  <BBB_SCORE>
1.480232097

>  <MMFF94 Energy>
-1.4194

$$$$
Compound 2765
Actelion Java MolfileCreator 2.0

  0  0  0  0  0  0              0 V3000
M  V30 BEGIN CTAB
M  V30 COUNTS 48 48 0 0 0
M  V30 BEGIN ATOM
M  V30 1 S 5.1548 -4.6781 -1.3462 0 CHG=1
M  V30 2 C 3.5121 -3.8902 -1.4239 0
M  V30 3 C 4.5545 -6.3431 -0.9608 0
M  V30 4 C 5.3559 -4.9565 -3.1246 0
M  V30 5 C 3.63 -2.4244 -1.8101 0
M  V30 6 C 2.265 -1.7743 -1.7234 0
M  V30 7 O 1.4975 -1.8124 -2.6794 0
M  V30 8 N 2.0199 -1.2151 -0.4817 0
M  V30 9 C 0.8502 -0.5556 -0.0518 0
M  V30 10 C 0.819 -0.1078 1.2731 0
M  V30 11 C -0.2615 -0.3249 -0.8622 0
M  V30 12 C -0.306 0.5553 1.773 0
M  V30 13 C -1.3898 0.3399 -0.359 0
M  V30 14 C -1.417 0.7832 0.9612 0
M  V30 15 O -2.4465 1.4418 1.5721 0
M  V30 16 C -3.6219 1.6852 0.7899 0
M  V30 17 C -4.6687 2.4374 1.6299 0 CFG=1
M  V30 18 O -5.1581 1.5847 2.673 0
M  V30 19 C -4.1115 3.7357 2.2251 0
M  V30 20 O -3.8089 4.6548 1.1756 0
M  V30 21 C -3.1878 5.8375 1.6743 0
M  V30 22 C -2.9135 6.7628 0.5056 0
M  V30 23 H 3.0689 -3.9819 -0.4256 0
M  V30 24 H 2.8644 -4.4318 -2.1214 0
M  V30 25 H 3.7468 -6.64 -1.6343 0
M  V30 26 H 4.1918 -6.3553 0.07 0
M  V30 27 H 5.3854 -7.0466 -1.0549 0
M  V30 28 H 6.1979 -5.6362 -3.2785 0
M  V30 29 H 5.579 -4.0039 -3.6107 0
M  V30 30 H 4.4549 -5.3898 -3.5654 0
M  V30 31 H 3.9986 -2.3089 -2.8355 0
M  V30 32 H 4.3388 -1.8976 -1.1599 0
M  V30 33 H 2.7602 -1.2871 0.2055 0
M  V30 34 H 1.6628 -0.2667 1.9389 0
M  V30 35 H -0.2886 -0.6478 -1.8982 0
M  V30 36 H -0.3177 0.8953 2.8057 0
M  V30 37 H -2.2271 0.4919 -1.0322 0
M  V30 38 H -4.0479 0.7246 0.4753 0
M  V30 39 H -3.3647 2.2886 -0.0888 0
M  V30 40 H -5.5173 2.6677 0.9746 0
M  V30 41 H -5.8738 2.0601 3.1279 0
M  V30 42 H -4.8599 4.1848 2.8896 0
M  V30 43 H -3.2208 3.5353 2.8327 0
M  V30 44 H -2.247 5.5792 2.1726 0
M  V30 45 H -3.8526 6.3301 2.3925 0
M  V30 46 H -2.4348 7.6864 0.8429 0
M  V30 47 H -2.2633 6.2748 -0.2278 0
M  V30 48 H -3.8445 7.0159 -0.0125 0
M  V30 END ATOM
M  V30 BEGIN BOND
M  V30 1 1 1 2
M  V30 2 1 1 3
M  V30 3 1 1 4
M  V30 4 1 2 5
M  V30 5 1 5 6
M  V30 6 2 6 7
M  V30 7 1 6 8
M  V30 8 1 8 9
M  V30 9 2 9 10
M  V30 10 1 9 11
M  V30 11 1 10 12
M  V30 12 2 11 13
M  V30 13 2 12 14
M  V30 14 1 14 15
M  V30 15 1 15 16
M  V30 16 1 16 17
M  V30 17 1 17 18
M  V30 18 1 17 19
M  V30 19 1 19 20
M  V30 20 1 20 21
M  V30 21 1 21 22
M  V30 22 1 13 14
M  V30 23 1 2 23
M  V30 24 1 2 24
M  V30 25 1 3 25
M  V30 26 1 3 26
M  V30 27 1 3 27
M  V30 28 1 4 28
M  V30 29 1 4 29
M  V30 30 1 4 30
M  V30 31 1 5 31
M  V30 32 1 5 32
M  V30 33 1 8 33
M  V30 34 1 10 34
M  V30 35 1 11 35
M  V30 36 1 12 36
M  V30 37 1 13 37
M  V30 38 1 16 38
M  V30 39 1 16 39
M  V30 40 1 17 40
M  V30 41 1 18 41
M  V30 42 1 19 42
M  V30 43 1 19 43
M  V30 44 1 21 44
M  V30 45 1 21 45
M  V30 46 1 22 46
M  V30 47 1 22 47
M  V30 48 1 22 48
M  V30 END BOND
M  V30 BEGIN COLLECTION
M  V30 MDLV30/STERAC1 ATOMS=(1 17)
M  V30 END COLLECTION
M  V30 END CTAB
M  END
>  <Column 1>
3487

>  <level_0>
5732

>  <index>
5733

>  <Unnamed: 0>
5733

>  <NO.>
5745

>  <Name>
suplatast

>  <IUPAC_name>
[3-[4-(3-ethoxy-2-hydroxypropoxy)anilino]-3-oxopropyl]-dimethylsulfanium

>  <SMILES>
CCOCC(O)COc1ccc(NC(=O)CC[S+](C)C)cc1

>  <CID>
71774

>  <logBB>


>  <BBB+/BBB->
BBB-

>  <Inchi>
InChI=1S/C16H25NO4S/c1-4-20-11-14(18)12-21-15-7-5-13(6-8-15)17-16(19)9-10-22(2)3/h5-8-14-18H-4-9-12H2-1-3H3/p+1

>  <threshold>


>  <reference>
R23|

>  <group>
C

>  <Class>
-1

>  <ABC>
15.99

>  <ABCGG>
12.92

>  <nAcid>
0

>  <nBase>
1

>  <nAromAtom>
6

>  <nAromBond>
6

>  <nAtom>
48

>  <nHeavyAtom>
22

>  <nSpiro>
0

>  <nBridgehead>
0

>  <nHetero>
6

>  <nN>
1

>  <nO>
4

>  <nF>
0

>  <BalabanJ>
2.1

>  <BertzCT>
436.28

>  <nBonds>
48

>  <nBondsO>
22

>  <nBondsS>
41

>  <nBondsD>
1

>  <nBondsT>
0

>  <nBondsA>
6

>  <nBondsM>
7

>  <nBondsKS>
44

>  <nBondsKD>
4

>  <RNCG>
0.24

>  <RPCG>
0.08

>  <FCSP3>
0.56

>  <SZ>
29.5

>  <Sm>
27.35

>  <Sv>
27.85

>  <Sse>
48.1

>  <Sp>
30.7

>  <Si>
54.45

>  <MZ>
0.61

>  <Mm>
0.57

>  <Mv>
0.58

>  <Mse>
1

>  <Mp>
0.64

>  <Mi>
1.13

>  <NsCH3>
3

>  <NdCH2>
0

>  <NssCH2>
5

>  <NtCH>
0

>  <NdsCH>
0

>  <NaaCH>
4

>  <NsssCH>
1

>  <NddC>
0

>  <NtsC>
0

>  <NdssC>
1

>  <NaasC>
2

>  <NaaaC>
0

>  <NssssC>
0

>  <NsNH3>
0

>  <NsNH2>
0

>  <NssNH2>
0

>  <NdNH>
0

>  <NssNH>
1

>  <NaaNH>
0

>  <NtN>
0

>  <NsssNH>
0

>  <NdsN>
0

>  <NaaN>
0

>  <NsssN>
0

>  <NddsN>
0

>  <NaasN>
0

>  <NssssN>
0

>  <NsOH>
1

>  <NdO>
1

>  <NssO>
2

>  <NaaO>
0

>  <NsF>
0

>  <NsSiH3>
0

>  <NssSiH2>
0

>  <NsssSiH>
0

>  <NssssSi>
0

>  <NsPH2>
0

>  <NssPH>
0

>  <NsssP>
0

>  <NdsssP>
0

>  <NsssssP>
0

>  <NsSH>
0

>  <NdS>
0

>  <NssS>
0

>  <NaaS>
0

>  <NdssS>
0

>  <NddssS>
0

>  <NsCl>
0

>  <NsBr>
0

>  <NsI>
0

>  <fragCpx>
22.06

>  <fMF>
0.13

>  <nHBAcc>
4

>  <nHBDon>
2

>  <Kier1>
20.05

>  <Kier2>
11.52

>  <Lipinski>
1

>  <GhoseFilter>
1

>  <FilterItLogS>
-4.02

>  <VMcGowan>
260.2

>  <LabuteASA>
134.9

>  <PEOE_VSA1>
19.9

>  <PEOE_VSA2>
4.79

>  <PEOE_VSA3>
0

>  <PEOE_VSA4>
0

>  <PEOE_VSA5>
0

>  <PEOE_VSA6>
0

>  <PEOE_VSA7>
42.08

>  <PEOE_VSA8>
12.29

>  <PEOE_VSA9>
25.54

>  <PEOE_VSA10>
24.21

>  <PEOE_VSA11>
0

>  <PEOE_VSA12>
5.91

>  <PEOE_VSA13>
0

>  <SMR_VSA1>
19.37

>  <SMR_VSA2>
0

>  <SMR_VSA3>
0

>  <SMR_VSA4>
0

>  <SMR_VSA5>
19.45

>  <SMR_VSA6>
43.4

>  <SMR_VSA7>
24.27

>  <SMR_VSA8>
0

>  <SMR_VSA9>
5.75

>  <SlogP_VSA1>
10.05

>  <SlogP_VSA2>
55.2

>  <SlogP_VSA3>
20.43

>  <SlogP_VSA4>
0

>  <SlogP_VSA5>
13.34

>  <SlogP_VSA6>
24.27

>  <SlogP_VSA7>
0

>  <SlogP_VSA8>
0

>  <SlogP_VSA9>
0

>  <SlogP_VSA10>
5.69

>  <SlogP_VSA11>
5.75

>  <EState_VSA1>
6.1

>  <EState_VSA2>
30.02

>  <EState_VSA3>
18.78

>  <EState_VSA4>
11.44

>  <EState_VSA5>
0

>  <EState_VSA6>
24.27

>  <EState_VSA7>
6.92

>  <EState_VSA8>
17.83

>  <EState_VSA9>
9.47

>  <EState_VSA10>
9.9

>  <VSA_EState1>
10.57

>  <VSA_EState2>
11.73

>  <VSA_EState3>
12.47

>  <VSA_EState4>
0.75

>  <VSA_EState5>
1.59

>  <VSA_EState6>
7.13

>  <VSA_EState7>
4.15

>  <VSA_EState8>
2.9

>  <VSA_EState9>
0.28

>  <apol>
51.26

>  <bpol>
34.68

>  <nRing>
1

>  <nHRing>
0

>  <naRing>
1

>  <naHRing>
0

>  <nARing 2>
0

>  <nAHRing 2>
0

>  <nFRing>
0

>  <nFHRing>
0

>  <nFaRing>
0

>  <nFaHRing>
0

>  <nFARing 2>
0

>  <nFAHRing 2>
0

>  <nRot>
10

>  <SLogP>
1.67

>  <SMR>
91.76

>  <TopoPSA(NO)>
67.79

>  <TopoPSA>
67.79

>  <JGI1>
0.23

>  <JGI2>
0.07

>  <JGI3>
0.03

>  <JGI4>
0.04

>  <JGI5>
0.02

>  <Diameter>
16

>  <Radius>
8

>  <TMWC10>
113.54

>  <TSRW10>
54.48

>  <MW>
328.16

>  <AMW>
6.84

>  <WPath>
1381

>  <WPol>
25

>  <Zagreb1>
98

>  <Zagreb2>
104

>  <mZagreb2>
5.17

>  <yes>


>  <nAR-cont>
0.336376

>  <nHA-cont>
0.983774276

>  <MWHBN>
0.331213804

>  <MWHBN-cont>
0.738579258

>  <TPSA-cont>
0.526783705

>  <pka_cont>
0.97

>  <yes.1>


>  <BBB_SCORE>
3.966586573

>  <MMFF94 Energy>
46.872

$$$$
Compound 2766
Actelion Java MolfileCreator 2.0

  0  0  0  0  0  0              0 V3000
M  V30 BEGIN CTAB
M  V30 COUNTS 71 74 0 0 0
M  V30 BEGIN ATOM
M  V30 1 O 6.0362 5.0812 5.3199 0
M  V30 2 C 5.2499 4.2962 5.8304 0
M  V30 3 O 4.2739 4.7767 6.6283 0
M  V30 4 C 5.2293 2.7715 5.6372 0
M  V30 5 C 4.6161 2.4281 4.2689 0
M  V30 6 C 4.4182 2.0662 6.747 0
M  V30 7 C 6.6963 2.3134 5.807 0
M  V30 8 C 5.2971 1.6845 3.2925 0
M  V30 9 C 3.3113 2.8607 3.9618 0
M  V30 10 C 4.7018 1.3888 2.0608 0
M  V30 11 C 2.7155 2.5659 2.7321 0
M  V30 12 C 3.4087 1.8305 1.768 0
M  V30 13 C 2.7609 1.4937 0.4454 0
M  V30 14 C 1.9058 0.2185 0.5421 0
M  V30 15 N 1.368 -0.2312 -0.7608 0
M  V30 16 C 0.3328 0.6914 -1.261 0
M  V30 17 C 0.7934 -1.5798 -0.6091 0
M  V30 18 C -0.204 0.2431 -2.6234 0
M  V30 19 C 0.3226 -2.1278 -1.9563 0
M  V30 20 C -0.6943 -1.2098 -2.6403 0
M  V30 21 C -2.0659 -1.3581 -2.0282 0
M  V30 22 N -2.5125 -0.6819 -0.9873 0
M  V30 23 N -3.0327 -2.2378 -2.4816 0
M  V30 24 C -3.793 -1.116 -0.7687 0
M  V30 25 C -4.1525 -2.0888 -1.6935 0
M  V30 26 C -2.8974 -3.1894 -3.5738 0
M  V30 27 C -4.7144 -0.7163 0.2105 0
M  V30 28 C -5.4176 -2.6904 -1.6991 0
M  V30 29 C -3.3402 -2.6056 -4.9125 0
M  V30 30 C -5.9824 -1.309 0.2259 0
M  V30 31 C -6.3261 -2.2785 -0.717 0
M  V30 32 O -4.7625 -2.689 -5.0219 0
M  V30 33 C -5.2453 -2.0524 -6.2025 0
M  V30 34 C -6.7534 -2.1977 -6.2395 0
M  V30 35 H 4.423 5.7458 6.6112 0
M  V30 36 H 3.3638 2.3652 6.7513 0
M  V30 37 H 4.4445 0.9769 6.6235 0
M  V30 38 H 4.8197 2.301 7.7402 0
M  V30 39 H 7.0954 2.6272 6.7796 0
M  V30 40 H 6.7902 1.2227 5.7511 0
M  V30 41 H 7.3502 2.7484 5.0417 0
M  V30 42 H 6.3054 1.316 3.4601 0
M  V30 43 H 2.7354 3.4379 4.6837 0
M  V30 44 H 5.2602 0.8083 1.3292 0
M  V30 45 H 1.7047 2.9163 2.5341 0
M  V30 46 H 3.5384 1.3681 -0.3191 0
M  V30 47 H 2.1582 2.3526 0.1283 0
M  V30 48 H 2.5476 -0.5756 0.9475 0
M  V30 49 H 1.0939 0.3601 1.2686 0
M  V30 50 H 0.7565 1.6913 -1.4042 0
M  V30 51 H -0.4835 0.7969 -0.537 0
M  V30 52 H -0.03 -1.5827 0.1165 0
M  V30 53 H 1.5598 -2.265 -0.2256 0
M  V30 54 H 0.6061 0.3424 -3.3589 0
M  V30 55 H -1.0 0.9255 -2.9466 0
M  V30 56 H 1.1956 -2.2376 -2.6139 0
M  V30 57 H -0.0886 -3.1348 -1.816 0
M  V30 58 H -0.764 -1.5016 -3.6955 0
M  V30 59 H -3.4807 -4.0796 -3.3133 0
M  V30 60 H -1.8467 -3.4915 -3.6172 0
M  V30 61 H -4.4395 0.0409 0.9358 0
M  V30 62 H -5.6948 -3.4348 -2.4381 0
M  V30 63 H -3.0138 -1.5645 -5.0198 0
M  V30 64 H -2.9033 -3.1984 -5.724 0
M  V30 65 H -6.7061 -1.0056 0.9784 0
M  V30 66 H -7.3197 -2.7212 -0.6926 0
M  V30 67 H -4.8017 -2.5254 -7.0853 0
M  V30 68 H -4.9743 -0.9911 -6.1877 0
M  V30 69 H -7.1699 -1.7209 -7.1312 0
M  V30 70 H -7.0391 -3.2548 -6.2375 0
M  V30 71 H -7.2062 -1.7441 -5.3515 0
M  V30 END ATOM
M  V30 BEGIN BOND
M  V30 1 2 1 2
M  V30 2 1 2 3
M  V30 3 1 2 4
M  V30 4 1 4 5
M  V30 5 1 4 6
M  V30 6 1 4 7
M  V30 7 2 5 8
M  V30 8 1 5 9
M  V30 9 1 8 10
M  V30 10 2 9 11
M  V30 11 2 10 12
M  V30 12 1 12 13
M  V30 13 1 13 14
M  V30 14 1 14 15
M  V30 15 1 15 16
M  V30 16 1 15 17
M  V30 17 1 16 18
M  V30 18 1 17 19
M  V30 19 1 18 20
M  V30 20 1 20 21
M  V30 21 2 21 22
M  V30 22 1 21 23
M  V30 23 1 22 24
M  V30 24 1 23 25
M  V30 25 1 23 26
M  V30 26 1 24 27
M  V30 27 1 25 28
M  V30 28 1 26 29
M  V30 29 2 27 30
M  V30 30 2 28 31
M  V30 31 1 29 32
M  V30 32 1 32 33
M  V30 33 1 33 34
M  V30 34 1 11 12
M  V30 35 1 19 20
M  V30 36 2 24 25
M  V30 37 1 30 31
M  V30 38 1 3 35
M  V30 39 1 6 36
M  V30 40 1 6 37
M  V30 41 1 6 38
M  V30 42 1 7 39
M  V30 43 1 7 40
M  V30 44 1 7 41
M  V30 45 1 8 42
M  V30 46 1 9 43
M  V30 47 1 10 44
M  V30 48 1 11 45
M  V30 49 1 13 46
M  V30 50 1 13 47
M  V30 51 1 14 48
M  V30 52 1 14 49
M  V30 53 1 16 50
M  V30 54 1 16 51
M  V30 55 1 17 52
M  V30 56 1 17 53
M  V30 57 1 18 54
M  V30 58 1 18 55
M  V30 59 1 19 56
M  V30 60 1 19 57
M  V30 61 1 20 58
M  V30 62 1 26 59
M  V30 63 1 26 60
M  V30 64 1 27 61
M  V30 65 1 28 62
M  V30 66 1 29 63
M  V30 67 1 29 64
M  V30 68 1 30 65
M  V30 69 1 31 66
M  V30 70 1 33 67
M  V30 71 1 33 68
M  V30 72 1 34 69
M  V30 73 1 34 70
M  V30 74 1 34 71
M  V30 END BOND
M  V30 END CTAB
M  END
>  <Column 1>
3488

>  <level_0>
5733

>  <index>
5734

>  <Unnamed: 0>
5734

>  <NO.>
5746

>  <Name>
bilastine

>  <IUPAC_name>
2-[4-[2-[4-[1-(2-ethoxyethyl)benzimidazol-2-yl]piperidin-1-yl]ethyl]phenyl]-2-methylpropanoic acid

>  <SMILES>
CCOCCn1c(C2CCN(CCc3ccc(C(C)(C)C(=O)O)cc3)CC2)nc2ccccc21

>  <CID>
185460

>  <logBB>


>  <BBB+/BBB->
BBB-

>  <Inchi>
InChI=1S/C28H37N3O3/c1-4-34-20-19-31-25-8-6-5-7-24(25)29-26(31)22-14-17-30(18-15-22)16-13-21-9-11-23(12-10-21)28(2-3)27(32)33/h5-12-22H-4-13-20H2-1-3H3-(H-32-33)

>  <threshold>


>  <reference>
R23|

>  <group>
C

>  <Class>
-1

>  <ABC>
26.41

>  <ABCGG>
19.09

>  <nAcid>
1

>  <nBase>
1

>  <nAromAtom>
15

>  <nAromBond>
16

>  <nAtom>
71

>  <nHeavyAtom>
34

>  <nSpiro>
0

>  <nBridgehead>
0

>  <nHetero>
6

>  <nN>
3

>  <nO>
3

>  <nF>
0

>  <BalabanJ>
1.2

>  <BertzCT>
1095.79

>  <nBonds>
74

>  <nBondsO>
37

>  <nBondsS>
57

>  <nBondsD>
1

>  <nBondsT>
0

>  <nBondsA>
16

>  <nBondsM>
17

>  <nBondsKS>
66

>  <nBondsKD>
8

>  <RNCG>
0.18

>  <RPCG>
0.12

>  <FCSP3>
0.5

>  <SZ>
41.67

>  <Sm>
38.6

>  <Sv>
42.44

>  <Sse>
70.41

>  <Sp>
46.19

>  <Si>
80.18

>  <MZ>
0.59

>  <Mm>
0.54

>  <Mv>
0.6

>  <Mse>
0.99

>  <Mp>
0.65

>  <Mi>
1.13

>  <NsCH3>
3

>  <NdCH2>
0

>  <NssCH2>
9

>  <NtCH>
0

>  <NdsCH>
0

>  <NaaCH>
8

>  <NsssCH>
1

>  <NddC>
0

>  <NtsC>
0

>  <NdssC>
1

>  <NaasC>
3

>  <NaaaC>
2

>  <NssssC>
1

>  <NsNH3>
0

>  <NsNH2>
0

>  <NssNH2>
0

>  <NdNH>
0

>  <NssNH>
0

>  <NaaNH>
0

>  <NtN>
0

>  <NsssNH>
0

>  <NdsN>
0

>  <NaaN>
1

>  <NsssN>
1

>  <NddsN>
0

>  <NaasN>
1

>  <NssssN>
0

>  <NsOH>
1

>  <NdO>
1

>  <NssO>
1

>  <NaaO>
0

>  <NsF>
0

>  <NsSiH3>
0

>  <NssSiH2>
0

>  <NsssSiH>
0

>  <NssssSi>
0

>  <NsPH2>
0

>  <NssPH>
0

>  <NsssP>
0

>  <NdsssP>
0

>  <NsssssP>
0

>  <NsSH>
0

>  <NdS>
0

>  <NssS>
0

>  <NaaS>
0

>  <NdssS>
0

>  <NddssS>
0

>  <NsCl>
0

>  <NsBr>
0

>  <NsI>
0

>  <fragCpx>
247.06

>  <fMF>
0.32

>  <nHBAcc>
5

>  <nHBDon>
1

>  <Kier1>
27.05

>  <Kier2>
12.5

>  <Lipinski>
1

>  <GhoseFilter>
0

>  <FilterItLogS>
-6.1

>  <VMcGowan>
375.09

>  <LabuteASA>
202.11

>  <PEOE_VSA1>
19.31

>  <PEOE_VSA2>
4.79

>  <PEOE_VSA3>
4.98

>  <PEOE_VSA4>
0

>  <PEOE_VSA5>
0

>  <PEOE_VSA6>
36.4

>  <PEOE_VSA7>
76.38

>  <PEOE_VSA8>
25.61

>  <PEOE_VSA9>
23.06

>  <PEOE_VSA10>
5.82

>  <PEOE_VSA11>
0

>  <PEOE_VSA12>
0

>  <PEOE_VSA13>
0

>  <SMR_VSA1>
14.64

>  <SMR_VSA2>
0

>  <SMR_VSA3>
14.45

>  <SMR_VSA4>
0

>  <SMR_VSA5>
57.91

>  <SMR_VSA6>
32.85

>  <SMR_VSA7>
65.48

>  <SMR_VSA8>
0

>  <SMR_VSA9>
0

>  <SlogP_VSA1>
0

>  <SlogP_VSA2>
58.37

>  <SlogP_VSA3>
27.91

>  <SlogP_VSA4>
0

>  <SlogP_VSA5>
56.48

>  <SlogP_VSA6>
48.53

>  <SlogP_VSA7>
0

>  <SlogP_VSA8>
11.03

>  <SlogP_VSA9>
0

>  <SlogP_VSA10>
0

>  <SlogP_VSA11>
0

>  <EState_VSA1>
11.38

>  <EState_VSA2>
0

>  <EState_VSA3>
12.52

>  <EState_VSA4>
63.13

>  <EState_VSA5>
16.9

>  <EState_VSA6>
13.85

>  <EState_VSA7>
19.06

>  <EState_VSA8>
45.87

>  <EState_VSA9>
9.72

>  <EState_VSA10>
9.9

>  <VSA_EState1>
8.01

>  <VSA_EState2>
19.05

>  <VSA_EState3>
9.43

>  <VSA_EState4>
3.52

>  <VSA_EState5>
0.88

>  <VSA_EState6>
16.49

>  <VSA_EState7>
3.21

>  <VSA_EState8>
11

>  <VSA_EState9>
0

>  <apol>
77.14

>  <bpol>
44.28

>  <nRing>
4

>  <nHRing>
2

>  <naRing>
3

>  <naHRing>
1

>  <nARing 2>
1

>  <nAHRing 2>
1

>  <nFRing>
1

>  <nFHRing>
1

>  <nFaRing>
1

>  <nFaHRing>
1

>  <nFARing 2>
0

>  <nFAHRing 2>
0

>  <nRot>
10

>  <SLogP>
4.86

>  <SMR>
135.45

>  <TopoPSA(NO)>
67.59

>  <TopoPSA>
67.59

>  <JGI1>
0.19

>  <JGI2>
0.09

>  <JGI3>
0.04

>  <JGI4>
0.04

>  <JGI5>
0.03

>  <Diameter>
19

>  <Radius>
10

>  <TMWC10>
149.32

>  <TSRW10>
84.67

>  <MW>
463.28

>  <AMW>
6.53

>  <WPath>
4156

>  <WPol>
55

>  <Zagreb1>
178

>  <Zagreb2>
210

>  <mZagreb2>
7.53

>  <yes>


>  <nAR-cont>
0.816016

>  <nHA-cont>
0.568589513

>  <MWHBN>
0.27875937

>  <MWHBN-cont>
0.899203491

>  <TPSA-cont>
0.528179829

>  <pka_cont>
0.97

>  <yes.1>


>  <BBB_SCORE>
4.274770407

>  <MMFF94 Energy>
62.161

$$$$
Compound 2767
Actelion Java MolfileCreator 2.0

  0  0  0  0  0  0              0 V3000
M  V30 BEGIN CTAB
M  V30 COUNTS 38 37 0 0 0
M  V30 BEGIN ATOM
M  V30 1 S -1.1197 -0.3998 -0.5597 0
M  V30 2 P -0.1977 1.2724 -1.4158 0
M  V30 3 C 0.2518 -1.144 0.3671 0
M  V30 4 O 1.2669 0.9747 -1.5686 0
M  V30 5 O -0.9218 1.6537 -2.8047 0
M  V30 6 O -0.4517 2.5718 -0.4925 0
M  V30 7 C -0.2137 -2.4152 1.0788 0
M  V30 8 C -0.2028 2.4023 -3.7722 0
M  V30 9 C -1.7826 2.9983 -0.2532 0
M  V30 10 N 0.9062 -3.1438 1.8636 0 CHG=1
M  V30 11 C -0.2613 3.8858 -3.4698 0
M  V30 12 C -1.7431 4.394 0.3346 0
M  V30 13 C 2.026 -3.6061 0.9356 0
M  V30 14 C 0.2846 -4.3823 2.5176 0
M  V30 15 C 1.4841 -2.2605 2.9633 0
M  V30 16 H 0.6169 -0.3997 1.0797 0
M  V30 17 H 1.0508 -1.3679 -0.3432 0
M  V30 18 H -1.0008 -2.1856 1.8079 0
M  V30 19 H -0.6055 -3.1441 0.3584 0
M  V30 20 H 0.8327 2.0552 -3.8375 0
M  V30 21 H -0.671 2.2106 -4.7429 0
M  V30 22 H -2.3568 3.0028 -1.1842 0
M  V30 23 H -2.2588 2.3109 0.4519 0
M  V30 24 H 0.2016 4.463 -4.2753 0
M  V30 25 H 0.2644 4.1162 -2.5385 0
M  V30 26 H -1.2974 4.2169 -3.347 0
M  V30 27 H -2.7529 4.7582 0.5438 0
M  V30 28 H -1.2529 5.089 -0.355 0
M  V30 29 H -1.1637 4.4055 1.2637 0
M  V30 30 H 2.7187 -4.2252 1.5137 0
M  V30 31 H 1.5827 -4.1855 0.121 0
M  V30 32 H 2.5515 -2.7294 0.5494 0
M  V30 33 H -0.1187 -5.0237 1.7286 0
M  V30 34 H 1.064 -4.9089 3.0764 0
M  V30 35 H -0.5116 -4.0534 3.192 0
M  V30 36 H 2.1777 -2.861 3.5597 0
M  V30 37 H 2.0199 -1.4266 2.5031 0
M  V30 38 H 0.6599 -1.8978 3.5842 0
M  V30 END ATOM
M  V30 BEGIN BOND
M  V30 1 1 1 2
M  V30 2 1 1 3
M  V30 3 2 2 4
M  V30 4 1 2 5
M  V30 5 1 2 6
M  V30 6 1 3 7
M  V30 7 1 5 8
M  V30 8 1 6 9
M  V30 9 1 7 10
M  V30 10 1 8 11
M  V30 11 1 9 12
M  V30 12 1 10 13
M  V30 13 1 10 14
M  V30 14 1 10 15
M  V30 15 1 3 16
M  V30 16 1 3 17
M  V30 17 1 7 18
M  V30 18 1 7 19
M  V30 19 1 8 20
M  V30 20 1 8 21
M  V30 21 1 9 22
M  V30 22 1 9 23
M  V30 23 1 11 24
M  V30 24 1 11 25
M  V30 25 1 11 26
M  V30 26 1 12 27
M  V30 27 1 12 28
M  V30 28 1 12 29
M  V30 29 1 13 30
M  V30 30 1 13 31
M  V30 31 1 13 32
M  V30 32 1 14 33
M  V30 33 1 14 34
M  V30 34 1 14 35
M  V30 35 1 15 36
M  V30 36 1 15 37
M  V30 37 1 15 38
M  V30 END BOND
M  V30 END CTAB
M  END
>  <Column 1>
3489

>  <level_0>
5734

>  <index>
5735

>  <Unnamed: 0>
5735

>  <NO.>
5747

>  <Name>
echothiophate

>  <IUPAC_name>
2-diethoxyphosphorylsulfanylethyl(trimethyl)azanium

>  <SMILES>
CCOP(=O)(OCC)SCC[N+](C)(C)C

>  <CID>
10548

>  <logBB>


>  <BBB+/BBB->
BBB-

>  <Inchi>
InChI=1S/C9H23NO3PS/c1-6-12-14(11-13-7-2)15-9-8-10(3-4)5/h6-9H2-1-5H3/q+1

>  <threshold>


>  <reference>
R23|

>  <group>
C

>  <Class>
-1

>  <ABC>
10.54

>  <ABCGG>
10.42

>  <nAcid>
0

>  <nBase>
1

>  <nAromAtom>
0

>  <nAromBond>
0

>  <nAtom>
38

>  <nHeavyAtom>
15

>  <nSpiro>
0

>  <nBridgehead>
0

>  <nHetero>
6

>  <nN>
1

>  <nO>
3

>  <nF>
0

>  <BalabanJ>
3.95

>  <BertzCT>
207.89

>  <nBonds>
37

>  <nBondsO>
14

>  <nBondsS>
36

>  <nBondsD>
1

>  <nBondsT>
0

>  <nBondsA>
0

>  <nBondsM>
1

>  <nBondsKS>
36

>  <nBondsKD>
1

>  <RNCG>
0.25

>  <RPCG>
0.17

>  <FCSP3>
1

>  <SZ>
23.17

>  <Sm>
21.34

>  <Sv>
20.51

>  <Sse>
37.86

>  <Sp>
24.19

>  <Si>
43.55

>  <MZ>
0.61

>  <Mm>
0.56

>  <Mv>
0.54

>  <Mse>
1

>  <Mp>
0.64

>  <Mi>
1.15

>  <NsCH3>
5

>  <NdCH2>
0

>  <NssCH2>
4

>  <NtCH>
0

>  <NdsCH>
0

>  <NaaCH>
0

>  <NsssCH>
0

>  <NddC>
0

>  <NtsC>
0

>  <NdssC>
0

>  <NaasC>
0

>  <NaaaC>
0

>  <NssssC>
0

>  <NsNH3>
0

>  <NsNH2>
0

>  <NssNH2>
0

>  <NdNH>
0

>  <NssNH>
0

>  <NaaNH>
0

>  <NtN>
0

>  <NsssNH>
0

>  <NdsN>
0

>  <NaaN>
0

>  <NsssN>
0

>  <NddsN>
0

>  <NaasN>
0

>  <NssssN>
1

>  <NsOH>
0

>  <NdO>
1

>  <NssO>
2

>  <NaaO>
0

>  <NsF>
0

>  <NsSiH3>
0

>  <NssSiH2>
0

>  <NsssSiH>
0

>  <NssssSi>
0

>  <NsPH2>
0

>  <NssPH>
0

>  <NsssP>
0

>  <NdsssP>
1

>  <NsssssP>
0

>  <NsSH>
0

>  <NdS>
0

>  <NssS>
1

>  <NaaS>
0

>  <NdssS>
0

>  <NddssS>
0

>  <NsCl>
0

>  <NsBr>
0

>  <NsI>
0

>  <fragCpx>
14.06

>  <fMF>
0

>  <nHBAcc>
4

>  <nHBDon>
0

>  <Kier1>
15

>  <Kier2>
6.55

>  <Lipinski>
1

>  <GhoseFilter>
1

>  <FilterItLogS>
-3.1

>  <VMcGowan>
204.22

>  <LabuteASA>
97.19

>  <PEOE_VSA1>
13.53

>  <PEOE_VSA2>
0

>  <PEOE_VSA3>
4.57

>  <PEOE_VSA4>
0

>  <PEOE_VSA5>
0

>  <PEOE_VSA6>
0

>  <PEOE_VSA7>
25.23

>  <PEOE_VSA8>
0

>  <PEOE_VSA9>
46.65

>  <PEOE_VSA10>
0

>  <PEOE_VSA11>
0

>  <PEOE_VSA12>
0

>  <PEOE_VSA13>
0

>  <SMR_VSA1>
18.1

>  <SMR_VSA2>
0

>  <SMR_VSA3>
0

>  <SMR_VSA4>
0

>  <SMR_VSA5>
13.85

>  <SMR_VSA6>
46.65

>  <SMR_VSA7>
0

>  <SMR_VSA8>
0

>  <SMR_VSA9>
0

>  <SlogP_VSA1>
0

>  <SlogP_VSA2>
51.14

>  <SlogP_VSA3>
13.61

>  <SlogP_VSA4>
0

>  <SlogP_VSA5>
13.85

>  <SlogP_VSA6>
0

>  <SlogP_VSA7>
0

>  <SlogP_VSA8>
0

>  <SlogP_VSA9>
0

>  <SlogP_VSA10>
0

>  <SlogP_VSA11>
0

>  <EState_VSA1>
6.8

>  <EState_VSA2>
0

>  <EState_VSA3>
13.21

>  <EState_VSA4>
16.78

>  <EState_VSA5>
11.38

>  <EState_VSA6>
0

>  <EState_VSA7>
13.85

>  <EState_VSA8>
21.14

>  <EState_VSA9>
9.05

>  <EState_VSA10>
4.57

>  <VSA_EState1>
23.21

>  <VSA_EState2>
0

>  <VSA_EState3>
0

>  <VSA_EState4>
0

>  <VSA_EState5>
0.78

>  <VSA_EState6>
0

>  <VSA_EState7>
0

>  <VSA_EState8>
2.54

>  <VSA_EState9>
6.31

>  <apol>
40.4

>  <bpol>
37.53

>  <nRing>
0

>  <nHRing>
0

>  <naRing>
0

>  <naHRing>
0

>  <nARing 2>
0

>  <nAHRing 2>
0

>  <nFRing>
0

>  <nFHRing>
0

>  <nFaRing>
0

>  <nFaHRing>
0

>  <nFARing 2>
0

>  <nFAHRing 2>
0

>  <nRot>
8

>  <SLogP>
2.61

>  <SMR>
66.22

>  <TopoPSA(NO)>
35.53

>  <TopoPSA>
70.64

>  <JGI1>
0.39

>  <JGI2>
0.09

>  <JGI3>
0.06

>  <JGI4>
0.02

>  <JGI5>
0.05

>  <Diameter>
8

>  <Radius>
4

>  <TMWC10>
95.38

>  <TSRW10>
45.95

>  <MW>
256.11

>  <AMW>
6.74

>  <WPath>
412

>  <WPol>
16

>  <Zagreb1>
66

>  <Zagreb2>
68

>  <mZagreb2>
3.5

>  <yes>


>  <nAR-cont>
0.336376

>  <nHA-cont>
0.92539861

>  <MWHBN>
0.249946306

>  <MWHBN-cont>
0.959867174

>  <TPSA-cont>
0.506888935

>  <pka_cont>
0.97

>  <yes.1>


>  <BBB_SCORE>
4.200353241

>  <MMFF94 Energy>
-51.798

$$$$
Compound 2768
Actelion Java MolfileCreator 2.0

  0  0  0  0  0  0              0 V3000
M  V30 BEGIN CTAB
M  V30 COUNTS 60 62 0 0 0
M  V30 BEGIN ATOM
M  V30 1 O 3.1613 0.0789 -0.5526 0
M  V30 2 C 2.4374 0.7813 0.3804 0
M  V30 3 C 2.6181 -1.2379 -0.7075 0
M  V30 4 C 2.699 0.6571 1.7537 0
M  V30 5 C 1.4723 1.6678 -0.1019 0
M  V30 6 C 3.3948 -1.9377 -1.8073 0
M  V30 7 O 3.6881 -0.2214 2.1053 0
M  V30 8 C 1.9426 1.4168 2.6497 0
M  V30 9 C 0.7126 2.4097 0.7988 0
M  V30 10 C 4.0621 -0.2809 3.4792 0
M  V30 11 C 0.9576 2.2981 2.1754 0
M  V30 12 C -0.4009 3.3149 0.3782 0
M  V30 13 C 5.2201 -1.2544 3.6058 0
M  V30 14 C 0.1065 3.102 3.1184 0
M  V30 15 N -0.8963 4.234 1.147 0
M  V30 16 C -1.0328 3.1323 -0.9974 0
M  V30 17 C -0.2665 4.4259 2.4596 0
M  V30 18 C -1.7737 1.8226 -1.1324 0
M  V30 19 C -1.4107 0.8912 -2.1109 0
M  V30 20 C -2.8403 1.517 -0.2811 0
M  V30 21 C -2.0681 -0.3409 -2.2106 0
M  V30 22 C -3.5245 0.3021 -0.4003 0
M  V30 23 O -1.5907 -1.1515 -3.2106 0
M  V30 24 C -3.1541 -0.6362 -1.3701 0
M  V30 25 C -1.3944 -2.5144 -2.8266 0
M  V30 26 O -3.7957 -1.8294 -1.5678 0
M  V30 27 C -0.2396 -3.0639 -3.646 0
M  V30 28 C -4.9978 -2.0697 -0.8401 0
M  V30 29 C -5.5644 -3.3995 -1.3043 0
M  V30 30 H 1.5592 -1.1842 -0.9903 0
M  V30 31 H 2.714 -1.81 0.2223 0
M  V30 32 H 1.3356 1.7486 -1.1738 0
M  V30 33 H 3.0177 -2.9518 -1.966 0
M  V30 34 H 3.3179 -1.381 -2.7471 0
M  V30 35 H 4.4586 -1.9912 -1.5536 0
M  V30 36 H 2.0952 1.3425 3.7215 0
M  V30 37 H 3.2235 -0.6432 4.0846 0
M  V30 38 H 4.3838 0.7058 3.8319 0
M  V30 39 H 5.5462 -1.3394 4.6462 0
M  V30 40 H 4.931 -2.2464 3.2433 0
M  V30 41 H 6.0677 -0.9265 2.995 0
M  V30 42 H 0.6425 3.3012 4.0531 0
M  V30 43 H -0.7947 2.5251 3.3576 0
M  V30 44 H -0.2562 3.235 -1.7634 0
M  V30 45 H -1.742 3.95 -1.1797 0
M  V30 46 H -0.9689 4.9621 3.1071 0
M  V30 47 H 0.6148 5.0687 2.3424 0
M  V30 48 H -0.5976 1.1051 -2.8009 0
M  V30 49 H -3.1509 2.2299 0.4819 0
M  V30 50 H -4.348 0.1243 0.2831 0
M  V30 51 H -2.2961 -3.0916 -3.0553 0
M  V30 52 H -1.1498 -2.6092 -1.7613 0
M  V30 53 H -0.0487 -4.1115 -3.3973 0
M  V30 54 H -0.4559 -2.9881 -4.7167 0
M  V30 55 H 0.6713 -2.4847 -3.4634 0
M  V30 56 H -5.7314 -1.2797 -1.0385 0
M  V30 57 H -4.7851 -2.1283 0.2332 0
M  V30 58 H -6.4908 -3.6354 -0.7732 0
M  V30 59 H -5.7689 -3.3768 -2.3798 0
M  V30 60 H -4.8434 -4.206 -1.1341 0
M  V30 END ATOM
M  V30 BEGIN BOND
M  V30 1 1 1 2
M  V30 2 1 1 3
M  V30 3 2 2 4
M  V30 4 1 2 5
M  V30 5 1 3 6
M  V30 6 1 4 7
M  V30 7 1 4 8
M  V30 8 2 5 9
M  V30 9 1 7 10
M  V30 10 2 8 11
M  V30 11 1 9 12
M  V30 12 1 10 13
M  V30 13 1 11 14
M  V30 14 2 12 15
M  V30 15 1 12 16
M  V30 16 1 14 17
M  V30 17 1 16 18
M  V30 18 2 18 19
M  V30 19 1 18 20
M  V30 20 1 19 21
M  V30 21 2 20 22
M  V30 22 1 21 23
M  V30 23 2 21 24
M  V30 24 1 23 25
M  V30 25 1 24 26
M  V30 26 1 25 27
M  V30 27 1 26 28
M  V30 28 1 28 29
M  V30 29 1 9 11
M  V30 30 1 15 17
M  V30 31 1 22 24
M  V30 32 1 3 30
M  V30 33 1 3 31
M  V30 34 1 5 32
M  V30 35 1 6 33
M  V30 36 1 6 34
M  V30 37 1 6 35
M  V30 38 1 8 36
M  V30 39 1 10 37
M  V30 40 1 10 38
M  V30 41 1 13 39
M  V30 42 1 13 40
M  V30 43 1 13 41
M  V30 44 1 14 42
M  V30 45 1 14 43
M  V30 46 1 16 44
M  V30 47 1 16 45
M  V30 48 1 17 46
M  V30 49 1 17 47
M  V30 50 1 19 48
M  V30 51 1 20 49
M  V30 52 1 22 50
M  V30 53 1 25 51
M  V30 54 1 25 52
M  V30 55 1 27 53
M  V30 56 1 27 54
M  V30 57 1 27 55
M  V30 58 1 28 56
M  V30 59 1 28 57
M  V30 60 1 29 58
M  V30 61 1 29 59
M  V30 62 1 29 60
M  V30 END BOND
M  V30 END CTAB
M  END
>  <Column 1>
3490

>  <level_0>
5735

>  <index>
5736

>  <Unnamed: 0>
5736

>  <NO.>
5748

>  <Name>
1-(3-4-diethoxybenzyl)-6-7-diethoxy-3-4-dihydroisoquinoline

>  <IUPAC_name>
1-[(3-4-diethoxyphenyl)methyl]-6-7-diethoxy-3-4-dihydroisoquinoline

>  <SMILES>
CCOc1ccc(CC2=NCCc3cc(OCC)c(OCC)cc32)cc1OCC

>  <CID>
13492

>  <logBB>


>  <BBB+/BBB->
BBB-

>  <Inchi>
InChI=1S/C24H31NO4/c1-5-26-21-10-9-17(14-22(21)27-6-2)13-20-19-16-24(29-8-4)23(28-7-3)15-18(19)11-12-25-20/h9-10-14-16H-5-8-11-13H2-1-4H3

>  <threshold>


>  <reference>
R23|

>  <group>
C

>  <Class>
-1

>  <ABC>
21.76

>  <ABCGG>
16.92

>  <nAcid>
0

>  <nBase>
0

>  <nAromAtom>
12

>  <nAromBond>
12

>  <nAtom>
60

>  <nHeavyAtom>
29

>  <nSpiro>
0

>  <nBridgehead>
0

>  <nHetero>
5

>  <nN>
1

>  <nO>
4

>  <nF>
0

>  <BalabanJ>
1.6

>  <BertzCT>
860.2

>  <nBonds>
62

>  <nBondsO>
31

>  <nBondsS>
49

>  <nBondsD>
1

>  <nBondsT>
0

>  <nBondsA>
12

>  <nBondsM>
13

>  <nBondsKS>
55

>  <nBondsKD>
7

>  <RNCG>
0.19

>  <RPCG>
0.06

>  <FCSP3>
0.46

>  <SZ>
35.67

>  <Sm>
33.1

>  <Sv>
36.02

>  <Sse>
59.75

>  <Sp>
38.96

>  <Si>
67.57

>  <MZ>
0.59

>  <Mm>
0.55

>  <Mv>
0.6

>  <Mse>
1

>  <Mp>
0.65

>  <Mi>
1.13

>  <NsCH3>
4

>  <NdCH2>
0

>  <NssCH2>
7

>  <NtCH>
0

>  <NdsCH>
0

>  <NaaCH>
5

>  <NsssCH>
0

>  <NddC>
0

>  <NtsC>
0

>  <NdssC>
1

>  <NaasC>
7

>  <NaaaC>
0

>  <NssssC>
0

>  <NsNH3>
0

>  <NsNH2>
0

>  <NssNH2>
0

>  <NdNH>
0

>  <NssNH>
0

>  <NaaNH>
0

>  <NtN>
0

>  <NsssNH>
0

>  <NdsN>
1

>  <NaaN>
0

>  <NsssN>
0

>  <NddsN>
0

>  <NaasN>
0

>  <NssssN>
0

>  <NsOH>
0

>  <NdO>
0

>  <NssO>
4

>  <NaaO>
0

>  <NsF>
0

>  <NsSiH3>
0

>  <NssSiH2>
0

>  <NsssSiH>
0

>  <NssssSi>
0

>  <NsPH2>
0

>  <NssPH>
0

>  <NsssP>
0

>  <NdsssP>
0

>  <NsssssP>
0

>  <NsSH>
0

>  <NdS>
0

>  <NssS>
0

>  <NaaS>
0

>  <NdssS>
0

>  <NddssS>
0

>  <NsCl>
0

>  <NsBr>
0

>  <NsI>
0

>  <fragCpx>
149.05

>  <fMF>
0.28

>  <nHBAcc>
5

>  <nHBDon>
0

>  <Kier1>
23.66

>  <Kier2>
12.14

>  <Lipinski>
1

>  <GhoseFilter>
1

>  <FilterItLogS>
-7.48

>  <VMcGowan>
319.8

>  <LabuteASA>
173.21

>  <PEOE_VSA1>
18.95

>  <PEOE_VSA2>
4.99

>  <PEOE_VSA3>
0

>  <PEOE_VSA4>
0

>  <PEOE_VSA5>
0

>  <PEOE_VSA6>
6.07

>  <PEOE_VSA7>
69.51

>  <PEOE_VSA8>
24.24

>  <PEOE_VSA9>
26.43

>  <PEOE_VSA10>
0

>  <PEOE_VSA11>
23

>  <PEOE_VSA12>
0

>  <PEOE_VSA13>
0

>  <SMR_VSA1>
18.95

>  <SMR_VSA2>
0

>  <SMR_VSA3>
0

>  <SMR_VSA4>
4.99

>  <SMR_VSA5>
40.54

>  <SMR_VSA6>
32.97

>  <SMR_VSA7>
47.02

>  <SMR_VSA8>
0

>  <SMR_VSA9>
23

>  <SlogP_VSA1>
18.95

>  <SlogP_VSA2>
38.68

>  <SlogP_VSA3>
12.84

>  <SlogP_VSA4>
0

>  <SlogP_VSA5>
44.39

>  <SlogP_VSA6>
35.32

>  <SlogP_VSA7>
0

>  <SlogP_VSA8>
0

>  <SlogP_VSA9>
0

>  <SlogP_VSA10>
0

>  <SlogP_VSA11>
23

>  <EState_VSA1>
0

>  <EState_VSA2>
0

>  <EState_VSA3>
26.43

>  <EState_VSA4>
59.22

>  <EState_VSA5>
5.56

>  <EState_VSA6>
0

>  <EState_VSA7>
33.76

>  <EState_VSA8>
24.27

>  <EState_VSA9>
23.94

>  <EState_VSA10>
0

>  <VSA_EState1>
23.09

>  <VSA_EState2>
4.83

>  <VSA_EState3>
0

>  <VSA_EState4>
4.63

>  <VSA_EState5>
3.16

>  <VSA_EState6>
10.33

>  <VSA_EState7>
1.65

>  <VSA_EState8>
11.15

>  <VSA_EState9>
0

>  <apol>
65.06

>  <bpol>
39.18

>  <nRing>
3

>  <nHRing>
1

>  <naRing>
2

>  <naHRing>
0

>  <nARing 2>
1

>  <nAHRing 2>
1

>  <nFRing>
1

>  <nFHRing>
1

>  <nFaRing>
0

>  <nFaHRing>
0

>  <nFARing 2>
1

>  <nFAHRing 2>
1

>  <nRot>
10

>  <SLogP>
4.87

>  <SMR>
116.37

>  <TopoPSA(NO)>
49.28

>  <TopoPSA>
49.28

>  <JGI1>
0.16

>  <JGI2>
0.07

>  <JGI3>
0.04

>  <JGI4>
0.04

>  <JGI5>
0.02

>  <Diameter>
15

>  <Radius>
8

>  <TMWC10>
136.15

>  <TSRW10>
64.24

>  <MW>
397.23

>  <AMW>
6.62

>  <WPath>
2364

>  <WPol>
46

>  <Zagreb1>
144

>  <Zagreb2>
168

>  <mZagreb2>
6.86

>  <yes>


>  <nAR-cont>
0.816016

>  <nHA-cont>
0.785905698

>  <MWHBN>
0.250870147

>  <MWHBN-cont>
0.958302012

>  <TPSA-cont>
0.655994999

>  <pka_cont>
0.97

>  <yes.1>


>  <BBB_SCORE>
4.836364714

>  <MMFF94 Energy>
117.98

$$$$
Compound 2769
Actelion Java MolfileCreator 2.0

  0  0  0  0  0  0              0 V3000
M  V30 BEGIN CTAB
M  V30 COUNTS 53 55 0 0 0
M  V30 BEGIN ATOM
M  V30 1 Cl -0.4009 -4.5778 1.0426 0
M  V30 2 C -0.223 -3.272 -0.0744 0
M  V30 3 C 0.6506 -2.2006 0.1625 0
M  V30 4 C -0.9795 -3.3224 -1.2478 0
M  V30 5 C 0.7481 -1.1882 -0.8132 0
M  V30 6 C 1.4772 -2.08 1.4254 0
M  V30 7 C -0.8719 -2.3099 -2.2024 0
M  V30 8 C 0.0 -1.2328 -2.0025 0
M  V30 9 C 0.7107 -1.5912 2.6351 0
M  V30 10 C 0.0955 -0.1308 -3.0472 0
M  V30 11 C 0.6285 -2.3822 3.7875 0
M  V30 12 C 0.0903 -0.334 2.6418 0
M  V30 13 O 1.4632 0.3146 -3.0874 0
M  V30 14 C -0.8569 1.0436 -2.7255 0
M  V30 15 C -0.0672 -1.9286 4.9111 0
M  V30 16 C -0.6079 0.1172 3.7685 0
M  V30 17 C 1.6888 1.3016 -4.1073 0
M  V30 18 O -2.2325 0.6536 -2.8491 0
M  V30 19 C -0.61 2.2148 -3.6833 0
M  V30 20 C -0.6909 -0.6801 4.9087 0
M  V30 21 C 0.8759 2.5689 -3.8042 0
M  V30 22 C 3.1947 1.5841 -4.1221 0
M  V30 23 O -1.1261 1.8561 -4.9832 0
M  V30 24 O -1.3372 -0.3611 6.0709 0
M  V30 25 O 1.0022 3.5425 -4.8466 0
M  V30 26 O 3.9105 0.3788 -4.388 0
M  V30 27 C -2.0419 0.8782 6.1017 0
M  V30 28 C -2.7072 1.0049 7.4605 0
M  V30 29 H -1.6623 -4.1498 -1.4245 0
M  V30 30 H 1.4218 -0.3494 -0.643 0
M  V30 31 H 2.3156 -1.3899 1.2588 0
M  V30 32 H 1.9586 -3.0443 1.6324 0
M  V30 33 H -1.483 -2.3643 -3.1012 0
M  V30 34 H -0.1487 -0.5699 -4.0239 0
M  V30 35 H 1.0979 -3.3629 3.82 0
M  V30 36 H 0.1387 0.3068 1.7649 0
M  V30 37 H -0.6919 1.3874 -1.6971 0
M  V30 38 H -0.1271 -2.5579 5.7956 0
M  V30 39 H -1.0747 1.0948 3.7193 0
M  V30 40 H 1.4164 0.8715 -5.0799 0
M  V30 41 H -2.4399 0.7355 -3.8035 0
M  V30 42 H -1.1919 3.0902 -3.3724 0
M  V30 43 H 1.2044 3.017 -2.8582 0
M  V30 44 H 3.4622 2.3123 -4.8926 0
M  V30 45 H 3.5349 1.9561 -3.15 0
M  V30 46 H -0.8036 2.564 -5.5809 0
M  V30 47 H 1.8647 3.985 -4.7488 0
M  V30 48 H 3.5119 -0.3006 -3.8088 0
M  V30 49 H -2.8131 0.8985 5.3229 0
M  V30 50 H -1.3462 1.7141 5.9653 0
M  V30 51 H -3.263 1.9437 7.5366 0
M  V30 52 H -3.3961 0.1712 7.6317 0
M  V30 53 H -1.96 0.9705 8.2603 0
M  V30 END ATOM
M  V30 BEGIN BOND
M  V30 1 1 1 2
M  V30 2 2 2 3
M  V30 3 1 2 4
M  V30 4 1 3 5
M  V30 5 1 3 6
M  V30 6 2 4 7
M  V30 7 2 5 8
M  V30 8 1 6 9
M  V30 9 1 8 10
M  V30 10 2 9 11
M  V30 11 1 9 12
M  V30 12 1 10 13
M  V30 13 1 10 14
M  V30 14 1 11 15
M  V30 15 2 12 16
M  V30 16 1 13 17
M  V30 17 1 14 18
M  V30 18 1 14 19
M  V30 19 2 15 20
M  V30 20 1 17 21
M  V30 21 1 17 22
M  V30 22 1 19 23
M  V30 23 1 20 24
M  V30 24 1 21 25
M  V30 25 1 22 26
M  V30 26 1 24 27
M  V30 27 1 27 28
M  V30 28 1 7 8
M  V30 29 1 16 20
M  V30 30 1 19 21
M  V30 31 1 4 29
M  V30 32 1 5 30
M  V30 33 1 6 31
M  V30 34 1 6 32
M  V30 35 1 7 33
M  V30 36 1 10 34
M  V30 37 1 11 35
M  V30 38 1 12 36
M  V30 39 1 14 37
M  V30 40 1 15 38
M  V30 41 1 16 39
M  V30 42 1 17 40
M  V30 43 1 18 41
M  V30 44 1 19 42
M  V30 45 1 21 43
M  V30 46 1 22 44
M  V30 47 1 22 45
M  V30 48 1 23 46
M  V30 49 1 25 47
M  V30 50 1 26 48
M  V30 51 1 27 49
M  V30 52 1 27 50
M  V30 53 1 28 51
M  V30 54 1 28 52
M  V30 55 1 28 53
M  V30 END BOND
M  V30 END CTAB
M  END
>  <Column 1>
3491

>  <level_0>
5736

>  <index>
5737

>  <Unnamed: 0>
5737

>  <NO.>
5749

>  <Name>
chembl2139953

>  <IUPAC_name>
2-[4-chloro-3-[(4-ethoxyphenyl)methyl]phenyl]-6-(hydroxymethyl)oxane-3-4-5-triol

>  <SMILES>
CCOc1ccc(Cc2cc(C3OC(CO)C(O)C(O)C3O)ccc2Cl)cc1

>  <CID>
23560495

>  <logBB>


>  <BBB+/BBB->
BBB-

>  <Inchi>
InChI=1S/C21H25ClO6/c1-2-27-15-6-3-12(4-7-15)9-14-10-13(5-8-16(14)22)21-20(26)19(25)18(24)17(11-23)28-21/h3-8-10-17-21-23-26H-2-9-11H2-1H3

>  <threshold>


>  <reference>
R23|

>  <group>
C

>  <Class>
-1

>  <ABC>
21.41

>  <ABCGG>
16.81

>  <nAcid>
0

>  <nBase>
0

>  <nAromAtom>
12

>  <nAromBond>
12

>  <nAtom>
53

>  <nHeavyAtom>
28

>  <nSpiro>
0

>  <nBridgehead>
0

>  <nHetero>
7

>  <nN>
0

>  <nO>
6

>  <nF>
0

>  <BalabanJ>
1.56

>  <BertzCT>
778.97

>  <nBonds>
55

>  <nBondsO>
30

>  <nBondsS>
43

>  <nBondsD>
0

>  <nBondsT>
0

>  <nBondsA>
12

>  <nBondsM>
12

>  <nBondsKS>
49

>  <nBondsKD>
6

>  <RNCG>
0.17

>  <RPCG>
0.07

>  <FCSP3>
0.43

>  <SZ>
36

>  <Sm>
34.04

>  <Sv>
33.15

>  <Sse>
53.85

>  <Sp>
35.17

>  <Si>
59.6

>  <MZ>
0.68

>  <Mm>
0.64

>  <Mv>
0.63

>  <Mse>
1.02

>  <Mp>
0.66

>  <Mi>
1.12

>  <NsCH3>
1

>  <NdCH2>
0

>  <NssCH2>
3

>  <NtCH>
0

>  <NdsCH>
0

>  <NaaCH>
7

>  <NsssCH>
5

>  <NddC>
0

>  <NtsC>
0

>  <NdssC>
0

>  <NaasC>
5

>  <NaaaC>
0

>  <NssssC>
0

>  <NsNH3>
0

>  <NsNH2>
0

>  <NssNH2>
0

>  <NdNH>
0

>  <NssNH>
0

>  <NaaNH>
0

>  <NtN>
0

>  <NsssNH>
0

>  <NdsN>
0

>  <NaaN>
0

>  <NsssN>
0

>  <NddsN>
0

>  <NaasN>
0

>  <NssssN>
0

>  <NsOH>
4

>  <NdO>
0

>  <NssO>
2

>  <NaaO>
0

>  <NsF>
0

>  <NsSiH3>
0

>  <NssSiH2>
0

>  <NsssSiH>
0

>  <NssssSi>
0

>  <NsPH2>
0

>  <NssPH>
0

>  <NsssP>
0

>  <NdsssP>
0

>  <NsssssP>
0

>  <NsSH>
0

>  <NdS>
0

>  <NssS>
0

>  <NaaS>
0

>  <NdssS>
0

>  <NddssS>
0

>  <NsCl>
1

>  <NsBr>
0

>  <NsI>
0

>  <fragCpx>
144.07

>  <fMF>
0.36

>  <nHBAcc>
6

>  <nHBDon>
4

>  <Kier1>
22.68

>  <Kier2>
10.35

>  <Lipinski>
1

>  <GhoseFilter>
1

>  <FilterItLogS>
-3.4

>  <VMcGowan>
295.83

>  <LabuteASA>
168.47

>  <PEOE_VSA1>
29.9

>  <PEOE_VSA2>
0

>  <PEOE_VSA3>
0

>  <PEOE_VSA4>
0

>  <PEOE_VSA5>
0

>  <PEOE_VSA6>
35.87

>  <PEOE_VSA7>
48.23

>  <PEOE_VSA8>
5.02

>  <PEOE_VSA9>
13.21

>  <PEOE_VSA10>
36.27

>  <PEOE_VSA11>
0

>  <PEOE_VSA12>
0

>  <PEOE_VSA13>
0

>  <SMR_VSA1>
29.9

>  <SMR_VSA2>
0

>  <SMR_VSA3>
0

>  <SMR_VSA4>
0

>  <SMR_VSA5>
43.86

>  <SMR_VSA6>
13.21

>  <SMR_VSA7>
64.18

>  <SMR_VSA8>
0

>  <SMR_VSA9>
5.75

>  <SlogP_VSA1>
4.74

>  <SlogP_VSA2>
58.06

>  <SlogP_VSA3>
11.16

>  <SlogP_VSA4>
0

>  <SlogP_VSA5>
29.72

>  <SlogP_VSA6>
42.46

>  <SlogP_VSA7>
5.02

>  <SlogP_VSA8>
0

>  <SlogP_VSA9>
0

>  <SlogP_VSA10>
0

>  <SlogP_VSA11>
5.75

>  <EState_VSA1>
37.13

>  <EState_VSA2>
0

>  <EState_VSA3>
23.61

>  <EState_VSA4>
16.88

>  <EState_VSA5>
0

>  <EState_VSA6>
12.13

>  <EState_VSA7>
37.26

>  <EState_VSA8>
0

>  <EState_VSA9>
21.07

>  <EState_VSA10>
20.43

>  <VSA_EState1>
11.08

>  <VSA_EState2>
0

>  <VSA_EState3>
40.27

>  <VSA_EState4>
2.49

>  <VSA_EState5>
0.8

>  <VSA_EState6>
12.94

>  <VSA_EState7>
-5.39

>  <VSA_EState8>
2.07

>  <VSA_EState9>
0

>  <apol>
58.73

>  <bpol>
29.06

>  <nRing>
3

>  <nHRing>
1

>  <naRing>
2

>  <naHRing>
0

>  <nARing 2>
1

>  <nAHRing 2>
1

>  <nFRing>
0

>  <nFHRing>
0

>  <nFaRing>
0

>  <nFaHRing>
0

>  <nFARing 2>
0

>  <nFAHRing 2>
0

>  <nRot>
6

>  <SLogP>
1.84

>  <SMR>
104.59

>  <TopoPSA(NO)>
99.38

>  <TopoPSA>
99.38

>  <JGI1>
0.2

>  <JGI2>
0.09

>  <JGI3>
0.04

>  <JGI4>
0.05

>  <JGI5>
0.03

>  <Diameter>
15

>  <Radius>
8

>  <TMWC10>
134.25

>  <TSRW10>
63.35

>  <MW>
408.13

>  <AMW>
7.7

>  <WPath>
2174

>  <WPol>
47

>  <Zagreb1>
144

>  <Zagreb2>
170

>  <mZagreb2>
6.33

>  <yes>


>  <nAR-cont>
0.816016

>  <nHA-cont>
0.82432561

>  <MWHBN>
0.494994918

>  <MWHBN-cont>
0

>  <TPSA-cont>
0.306265889

>  <pka_cont>
0.97

>  <yes.1>


>  <BBB_SCORE>
2.737873388

>  <MMFF94 Energy>
156.59

$$$$
Compound 2770
Actelion Java MolfileCreator 2.0

  0  0  0  0  0  0              0 V3000
M  V30 BEGIN CTAB
M  V30 COUNTS 55 58 0 0 0
M  V30 BEGIN ATOM
M  V30 1 Cl -5.1013 -0.4849 -0.8084 0
M  V30 2 C -3.432 -0.8938 -0.984 0
M  V30 3 C -2.531 -0.8537 0.0887 0
M  V30 4 C -2.9986 -1.2729 -2.2574 0
M  V30 5 C -1.1852 -1.1966 -0.158 0
M  V30 6 C -2.925 -0.4477 1.4938 0
M  V30 7 C -1.6623 -1.6108 -2.4816 0
M  V30 8 C -0.7313 -1.5759 -1.4354 0
M  V30 9 C -2.3992 0.9111 1.901 0
M  V30 10 C 0.7314 -1.9105 -1.6563 0 CFG=1
M  V30 11 C -1.3553 1.0246 2.8273 0
M  V30 12 C -2.9418 2.0812 1.3527 0
M  V30 13 O 1.1692 -2.8163 -0.6224 0
M  V30 14 O 0.9468 -2.566 -2.9288 0
M  V30 15 C 1.6679 -0.6644 -1.6187 0 CFG=2
M  V30 16 C -0.8672 2.2822 3.1909 0
M  V30 17 C -2.45 3.3396 1.7188 0
M  V30 18 C 2.3097 -3.449 -1.2362 0 CFG=1
M  V30 19 C 1.7687 -3.7124 -2.6322 0
M  V30 20 O 1.3291 0.3448 -2.589 0
M  V30 21 C 3.1021 -1.1246 -1.9353 0 CFG=2
M  V30 22 C -1.4088 3.4452 2.6399 0
M  V30 23 C 3.4748 -2.4298 -1.2089 0 CFG=2
M  V30 24 C 2.6411 -4.7414 -0.4888 0
M  V30 25 O 4.0503 -0.1004 -1.5961 0
M  V30 26 O -0.8372 4.6064 3.0816 0
M  V30 27 O 4.6492 -2.9707 -1.8223 0
M  V30 28 O 2.8825 -4.4744 0.894 0
M  V30 29 C -1.3442 5.8251 2.541 0
M  V30 30 C -0.5651 6.9717 3.1602 0
M  V30 31 H -3.7008 -1.3056 -3.0875 0
M  V30 32 H -0.4737 -1.1632 0.6676 0
M  V30 33 H -2.5515 -1.215 2.1861 0
M  V30 34 H -4.0102 -0.4614 1.6423 0
M  V30 35 H -1.3586 -1.9003 -3.4858 0
M  V30 36 H -0.9121 0.1383 3.2748 0
M  V30 37 H -3.7543 2.023 0.6313 0
M  V30 38 H 1.6437 -0.1828 -0.6338 0
M  V30 39 H -0.0561 2.3572 3.9112 0
M  V30 40 H -2.9035 4.2137 1.264 0
M  V30 41 H 1.1076 -4.5856 -2.6606 0
M  V30 42 H 2.5402 -3.8306 -3.3982 0
M  V30 43 H 0.9908 -0.1228 -3.3769 0
M  V30 44 H 3.2216 -1.2605 -3.0181 0
M  V30 45 H 3.7329 -2.1902 -0.1694 0
M  V30 46 H 3.5213 -5.2396 -0.9061 0
M  V30 47 H 1.8007 -5.4431 -0.5277 0
M  V30 48 H 3.6794 0.7321 -1.9521 0
M  V30 49 H 5.3215 -2.2618 -1.7625 0
M  V30 50 H 2.0963 -3.996 1.2185 0
M  V30 51 H -2.4058 5.9391 2.7895 0
M  V30 52 H -1.2069 5.8458 1.4537 0
M  V30 53 H -0.9169 7.9339 2.7772 0
M  V30 54 H -0.6704 6.9652 4.2503 0
M  V30 55 H 0.5035 6.8736 2.9425 0
M  V30 END ATOM
M  V30 BEGIN BOND
M  V30 1 1 1 2
M  V30 2 2 2 3
M  V30 3 1 2 4
M  V30 4 1 3 5
M  V30 5 1 3 6
M  V30 6 2 4 7
M  V30 7 2 5 8
M  V30 8 1 6 9
M  V30 9 1 8 10
M  V30 10 2 9 11
M  V30 11 1 9 12
M  V30 12 1 10 13
M  V30 13 1 10 14
M  V30 14 1 10 15
M  V30 15 1 11 16
M  V30 16 2 12 17
M  V30 17 1 13 18
M  V30 18 1 14 19
M  V30 19 1 15 20
M  V30 20 1 15 21
M  V30 21 2 16 22
M  V30 22 1 18 23
M  V30 23 1 18 24
M  V30 24 1 21 25
M  V30 25 1 22 26
M  V30 26 1 23 27
M  V30 27 1 24 28
M  V30 28 1 26 29
M  V30 29 1 29 30
M  V30 30 1 7 8
M  V30 31 1 17 22
M  V30 32 1 18 19
M  V30 33 1 21 23
M  V30 34 1 4 31
M  V30 35 1 5 32
M  V30 36 1 6 33
M  V30 37 1 6 34
M  V30 38 1 7 35
M  V30 39 1 11 36
M  V30 40 1 12 37
M  V30 41 1 15 38
M  V30 42 1 16 39
M  V30 43 1 17 40
M  V30 44 1 19 41
M  V30 45 1 19 42
M  V30 46 1 20 43
M  V30 47 1 21 44
M  V30 48 1 23 45
M  V30 49 1 24 46
M  V30 50 1 24 47
M  V30 51 1 25 48
M  V30 52 1 27 49
M  V30 53 1 28 50
M  V30 54 1 29 51
M  V30 55 1 29 52
M  V30 56 1 30 53
M  V30 57 1 30 54
M  V30 58 1 30 55
M  V30 END BOND
M  V30 BEGIN COLLECTION
M  V30 MDLV30/STEABS ATOMS=(5 10 15 18 21 23)
M  V30 END COLLECTION
M  V30 END CTAB
M  END
>  <Column 1>
3492

>  <level_0>
5737

>  <index>
5738

>  <Unnamed: 0>
5738

>  <NO.>
5750

>  <Name>
ertugliflozin

>  <IUPAC_name>
(1s-2s-3s-4r-5s)-5-[4-chloro-3-[(4-ethoxyphenyl)methyl]phenyl]-1-(hydroxymethyl)-6-8-dioxabicyclo[3.2.1]octane-2-3-4-triol

>  <SMILES>
CCOc1ccc(Cc2cc([C@]34OC[C@](CO)(O3)[C@@H](O)[C@H](O)[C@H]4O)ccc2Cl)cc1

>  <CID>
44814423

>  <logBB>


>  <BBB+/BBB->
BBB-

>  <Inchi>
InChI=1S/C22H25ClO7/c1-2-28-16-6-3-13(4-7-16)9-14-10-15(5-8-17(14)23)22-20(27)18(25)19(26)21(11-24-30-22)12-29-22/h3-8-10-18-20-24-27H-2-9-11-12H2-1H3/t18--19--20+-21--22-/m0/s1

>  <threshold>


>  <reference>
R23|

>  <group>
C

>  <Class>
-1

>  <ABC>
23.47

>  <ABCGG>
18.53

>  <nAcid>
0

>  <nBase>
0

>  <nAromAtom>
12

>  <nAromBond>
12

>  <nAtom>
55

>  <nHeavyAtom>
30

>  <nSpiro>
0

>  <nBridgehead>
2

>  <nHetero>
8

>  <nN>
0

>  <nO>
7

>  <nF>
0

>  <BalabanJ>
1.43

>  <BertzCT>
904.86

>  <nBonds>
58

>  <nBondsO>
33

>  <nBondsS>
46

>  <nBondsD>
0

>  <nBondsT>
0

>  <nBondsA>
12

>  <nBondsM>
12

>  <nBondsKS>
52

>  <nBondsKD>
6

>  <RNCG>
0.15

>  <RPCG>
0.07

>  <FCSP3>
0.45

>  <SZ>
38.33

>  <Sm>
36.37

>  <Sv>
34.87

>  <Sse>
56.18

>  <Sp>
36.65

>  <Si>
61.81

>  <MZ>
0.7

>  <Mm>
0.66

>  <Mv>
0.63

>  <Mse>
1.02

>  <Mp>
0.67

>  <Mi>
1.12

>  <NsCH3>
1

>  <NdCH2>
0

>  <NssCH2>
4

>  <NtCH>
0

>  <NdsCH>
0

>  <NaaCH>
7

>  <NsssCH>
3

>  <NddC>
0

>  <NtsC>
0

>  <NdssC>
0

>  <NaasC>
5

>  <NaaaC>
0

>  <NssssC>
2

>  <NsNH3>
0

>  <NsNH2>
0

>  <NssNH2>
0

>  <NdNH>
0

>  <NssNH>
0

>  <NaaNH>
0

>  <NtN>
0

>  <NsssNH>
0

>  <NdsN>
0

>  <NaaN>
0

>  <NsssN>
0

>  <NddsN>
0

>  <NaasN>
0

>  <NssssN>
0

>  <NsOH>
4

>  <NdO>
0

>  <NssO>
3

>  <NaaO>
0

>  <NsF>
0

>  <NsSiH3>
0

>  <NssSiH2>
0

>  <NsssSiH>
0

>  <NssssSi>
0

>  <NsPH2>
0

>  <NssPH>
0

>  <NsssP>
0

>  <NdsssP>
0

>  <NsssssP>
0

>  <NsSH>
0

>  <NdS>
0

>  <NssS>
0

>  <NaaS>
0

>  <NdssS>
0

>  <NddssS>
0

>  <NsCl>
1

>  <NsBr>
0

>  <NsI>
0

>  <fragCpx>
219.08

>  <fMF>
0.38

>  <nHBAcc>
7

>  <nHBDon>
4

>  <Kier1>
23.17

>  <Kier2>
9.09

>  <Lipinski>
1

>  <GhoseFilter>
1

>  <FilterItLogS>
-3.83

>  <VMcGowan>
304.93

>  <LabuteASA>
178.95

>  <PEOE_VSA1>
34.64

>  <PEOE_VSA2>
0

>  <PEOE_VSA3>
0

>  <PEOE_VSA4>
0

>  <PEOE_VSA5>
0

>  <PEOE_VSA6>
29.8

>  <PEOE_VSA7>
48.74

>  <PEOE_VSA8>
10.59

>  <PEOE_VSA9>
19.82

>  <PEOE_VSA10>
29.66

>  <PEOE_VSA11>
0

>  <PEOE_VSA12>
5.79

>  <PEOE_VSA13>
0

>  <SMR_VSA1>
34.64

>  <SMR_VSA2>
0

>  <SMR_VSA3>
0

>  <SMR_VSA4>
0

>  <SMR_VSA5>
43.04

>  <SMR_VSA6>
19.82

>  <SMR_VSA7>
64.18

>  <SMR_VSA8>
0

>  <SMR_VSA9>
5.75

>  <SlogP_VSA1>
4.74

>  <SlogP_VSA2>
64.16

>  <SlogP_VSA3>
21.68

>  <SlogP_VSA4>
0

>  <SlogP_VSA5>
23.61

>  <SlogP_VSA6>
42.46

>  <SlogP_VSA7>
5.02

>  <SlogP_VSA8>
0

>  <SlogP_VSA9>
0

>  <SlogP_VSA10>
0

>  <SlogP_VSA11>
5.75

>  <EState_VSA1>
36.31

>  <EState_VSA2>
6.61

>  <EState_VSA3>
23.61

>  <EState_VSA4>
16.88

>  <EState_VSA5>
0

>  <EState_VSA6>
18.2

>  <EState_VSA7>
31.19

>  <EState_VSA8>
0

>  <EState_VSA9>
25.81

>  <EState_VSA10>
20.43

>  <VSA_EState1>
17.14

>  <VSA_EState2>
0

>  <VSA_EState3>
41.65

>  <VSA_EState4>
0.72

>  <VSA_EState5>
-0.93

>  <VSA_EState6>
12.73

>  <VSA_EState7>
-4.06

>  <VSA_EState8>
1.78

>  <VSA_EState9>
0

>  <apol>
61.2

>  <bpol>
30.8

>  <nRing>
4

>  <nHRing>
2

>  <naRing>
2

>  <naHRing>
0

>  <nARing 2>
2

>  <nAHRing 2>
2

>  <nFRing>
1

>  <nFHRing>
1

>  <nFaRing>
0

>  <nFaHRing>
0

>  <nFARing 2>
1

>  <nFAHRing 2>
1

>  <nRot>
6

>  <SLogP>
1.36

>  <SMR>
108.42

>  <TopoPSA(NO)>
108.61

>  <TopoPSA>
108.61

>  <JGI1>
0.26

>  <JGI2>
0.11

>  <JGI3>
0.06

>  <JGI4>
0.06

>  <JGI5>
0.03

>  <Diameter>
15

>  <Radius>
8

>  <TMWC10>
142.47

>  <TSRW10>
81.17

>  <MW>
436.13

>  <AMW>
7.93

>  <WPath>
2472

>  <WPol>
58

>  <Zagreb1>
166

>  <Zagreb2>
205

>  <mZagreb2>
6.63

>  <yes>


>  <nAR-cont>
1

>  <nHA-cont>
0.74523694

>  <MWHBN>
0.526725937

>  <MWHBN-cont>
0

>  <TPSA-cont>
0.241834757

>  <pka_cont>
0.97

>  <yes.1>


>  <BBB_SCORE>
2.713906454

>  <MMFF94 Energy>
181.63

$$$$
Compound 2771
Actelion Java MolfileCreator 2.0

  0  0  0  0  0  0              0 V3000
M  V30 BEGIN CTAB
M  V30 COUNTS 57 60 0 0 0
M  V30 BEGIN ATOM
M  V30 1 O -2.7853 6.2156 -4.4594 0
M  V30 2 C -1.9398 5.701 -3.737 0
M  V30 3 N -1.8591 5.9375 -2.3975 0
M  V30 4 C -0.9368 4.7663 -4.2951 0
M  V30 5 C -0.8954 5.3639 -1.5538 0
M  V30 6 C 0.0022 4.2009 -3.5238 0
M  V30 7 C -0.9288 5.6751 -0.1926 0
M  V30 8 C 0.0773 4.492 -2.082 0
M  V30 9 O -1.8983 6.5253 0.2663 0
M  V30 10 C 0.0014 5.1216 0.6723 0
M  V30 11 C 1.0474 3.9443 -1.213 0
M  V30 12 C 0.9768 4.262 0.1632 0
M  V30 13 C 2.1377 2.9971 -1.6921 0 CFG=1
M  V30 14 O 3.3642 3.2014 -0.969 0
M  V30 15 C 1.7366 1.5018 -1.6032 0
M  V30 16 N 1.6876 1.0165 -0.2114 0
M  V30 17 C 1.5076 -0.4357 -0.1302 0
M  V30 18 C 1.6036 -0.9474 1.3293 0
M  V30 19 C 0.1417 -0.9499 -0.6493 0
M  V30 20 C 0.8242 -2.2246 1.2439 0
M  V30 21 C -0.0029 -2.2247 0.1235 0
M  V30 22 C 0.8248 -3.2857 2.135 0
M  V30 23 C -0.8468 -3.2883 -0.1316 0
M  V30 24 C -0.0164 -4.3912 1.903 0
M  V30 25 C -0.8536 -4.3903 0.7474 0
M  V30 26 C -0.0284 -5.5793 2.8494 0
M  V30 27 C -1.801 -5.5291 0.4273 0
M  V30 28 C 0.7592 -5.4519 4.1491 0
M  V30 29 C -3.1951 -5.2844 0.9868 0
M  V30 30 H -2.5379 6.5654 -1.9834 0
M  V30 31 H -1.0146 4.5655 -5.3562 0
M  V30 32 H 0.7025 3.5121 -3.9768 0
M  V30 33 H -1.8116 6.603 1.2312 0
M  V30 34 H -0.0146 5.3346 1.7365 0
M  V30 35 H 1.6874 3.8144 0.8583 0
M  V30 36 H 2.3961 3.2277 -2.7297 0
M  V30 37 H 3.4761 4.1641 -0.8821 0
M  V30 38 H 0.7723 1.3451 -2.0989 0
M  V30 39 H 2.4982 0.9252 -2.1429 0
M  V30 40 H 2.5732 1.2819 0.2283 0
M  V30 41 H 2.3071 -0.9316 -0.7019 0
M  V30 42 H 1.118 -0.2664 2.0375 0
M  V30 43 H 2.6442 -1.1114 1.6254 0
M  V30 44 H -0.6772 -0.2679 -0.3944 0
M  V30 45 H 0.1632 -1.1198 -1.7299 0
M  V30 46 H 1.4775 -3.2374 3.0005 0
M  V30 47 H -1.4985 -3.2684 -1.0008 0
M  V30 48 H 0.3609 -6.4492 2.3067 0
M  V30 49 H -1.0678 -5.7929 3.1247 0
M  V30 50 H -1.4089 -6.4811 0.7993 0
M  V30 51 H -1.8633 -5.6514 -0.6616 0
M  V30 52 H 0.6337 -6.3572 4.7523 0
M  V30 53 H 0.4114 -4.6015 4.7449 0
M  V30 54 H 1.8302 -5.3291 3.9577 0
M  V30 55 H -3.8532 -6.1237 0.7408 0
M  V30 56 H -3.6376 -4.3745 0.5674 0
M  V30 57 H -3.1771 -5.1753 2.076 0
M  V30 END ATOM
M  V30 BEGIN BOND
M  V30 1 2 1 2
M  V30 2 1 2 3
M  V30 3 1 2 4
M  V30 4 1 3 5
M  V30 5 2 4 6
M  V30 6 2 5 7
M  V30 7 1 5 8
M  V30 8 1 7 9
M  V30 9 1 7 10
M  V30 10 2 8 11
M  V30 11 2 10 12
M  V30 12 1 11 13
M  V30 13 1 13 14
M  V30 14 1 13 15
M  V30 15 1 15 16
M  V30 16 1 16 17
M  V30 17 1 17 18
M  V30 18 1 17 19
M  V30 19 1 18 20
M  V30 20 1 19 21
M  V30 21 1 20 22
M  V30 22 1 21 23
M  V30 23 2 22 24
M  V30 24 2 23 25
M  V30 25 1 24 26
M  V30 26 1 25 27
M  V30 27 1 26 28
M  V30 28 1 27 29
M  V30 29 1 6 8
M  V30 30 1 11 12
M  V30 31 2 20 21
M  V30 32 1 24 25
M  V30 33 1 3 30
M  V30 34 1 4 31
M  V30 35 1 6 32
M  V30 36 1 9 33
M  V30 37 1 10 34
M  V30 38 1 12 35
M  V30 39 1 13 36
M  V30 40 1 14 37
M  V30 41 1 15 38
M  V30 42 1 15 39
M  V30 43 1 16 40
M  V30 44 1 17 41
M  V30 45 1 18 42
M  V30 46 1 18 43
M  V30 47 1 19 44
M  V30 48 1 19 45
M  V30 49 1 22 46
M  V30 50 1 23 47
M  V30 51 1 26 48
M  V30 52 1 26 49
M  V30 53 1 27 50
M  V30 54 1 27 51
M  V30 55 1 28 52
M  V30 56 1 28 53
M  V30 57 1 28 54
M  V30 58 1 29 55
M  V30 59 1 29 56
M  V30 60 1 29 57
M  V30 END BOND
M  V30 BEGIN COLLECTION
M  V30 MDLV30/STERAC1 ATOMS=(1 13)
M  V30 END COLLECTION
M  V30 END CTAB
M  END
>  <Column 1>
3494

>  <level_0>
5739

>  <index>
5740

>  <Unnamed: 0>
5740

>  <NO.>
5752

>  <Name>
(r)-5-(2-(5-6-diethyl-2-3-dihydro-1h-inden-2-ylamino)-1-hydroxyethyl)-8-hydroxyquinolin-2(1h)-one

>  <IUPAC_name>
5-[2-[(5-6-diethyl-2-3-dihydro-1h-inden-2-yl)amino]-1-hydroxyethyl]-8-hydroxy-1h-quinolin-2-one

>  <SMILES>
CCc1cc2c(cc1CC)CC(NCC(O)c1ccc(O)c3[nH]c(=O)ccc13)C2

>  <CID>
6433117

>  <logBB>


>  <BBB+/BBB->
BBB-

>  <Inchi>
InChI=1S/C24H28N2O3/c1-3-14-9-16-11-18(12-17(16)10-15(14)4-2)25-13-22(28)19-5-7-21(27)24-20(19)6-8-23(29)26-24/h5-10-18-22-25-27-28H-3-4-11-13H2-1-2H3-(H-26-29)

>  <threshold>


>  <reference>
R23|

>  <group>
C

>  <Class>
-1

>  <ABC>
22.71

>  <ABCGG>
17.31

>  <nAcid>
0

>  <nBase>
1

>  <nAromAtom>
16

>  <nAromBond>
17

>  <nAtom>
57

>  <nHeavyAtom>
29

>  <nSpiro>
0

>  <nBridgehead>
0

>  <nHetero>
5

>  <nN>
2

>  <nO>
3

>  <nF>
0

>  <BalabanJ>
1.28

>  <BertzCT>
1070.21

>  <nBonds>
60

>  <nBondsO>
32

>  <nBondsS>
42

>  <nBondsD>
1

>  <nBondsT>
0

>  <nBondsA>
17

>  <nBondsM>
18

>  <nBondsKS>
52

>  <nBondsKD>
8

>  <RNCG>
0.21

>  <RPCG>
0.12

>  <FCSP3>
0.38

>  <SZ>
35

>  <Sm>
32.68

>  <Sv>
35.25

>  <Sse>
56.75

>  <Sp>
37.94

>  <Si>
64.02

>  <MZ>
0.61

>  <Mm>
0.57

>  <Mv>
0.62

>  <Mse>
1

>  <Mp>
0.67

>  <Mi>
1.12

>  <NsCH3>
2

>  <NdCH2>
0

>  <NssCH2>
5

>  <NtCH>
0

>  <NdsCH>
0

>  <NaaCH>
6

>  <NsssCH>
2

>  <NddC>
0

>  <NtsC>
0

>  <NdssC>
0

>  <NaasC>
6

>  <NaaaC>
2

>  <NssssC>
0

>  <NsNH3>
0

>  <NsNH2>
0

>  <NssNH2>
0

>  <NdNH>
0

>  <NssNH>
1

>  <NaaNH>
1

>  <NtN>
0

>  <NsssNH>
0

>  <NdsN>
0

>  <NaaN>
0

>  <NsssN>
0

>  <NddsN>
0

>  <NaasN>
0

>  <NssssN>
0

>  <NsOH>
2

>  <NdO>
1

>  <NssO>
0

>  <NaaO>
0

>  <NsF>
0

>  <NsSiH3>
0

>  <NssSiH2>
0

>  <NsssSiH>
0

>  <NssssSi>
0

>  <NsPH2>
0

>  <NssPH>
0

>  <NsssP>
0

>  <NdsssP>
0

>  <NsssssP>
0

>  <NsSH>
0

>  <NdS>
0

>  <NssS>
0

>  <NaaS>
0

>  <NdssS>
0

>  <NddssS>
0

>  <NsCl>
0

>  <NsBr>
0

>  <NsI>
0

>  <fragCpx>
212.05

>  <fMF>
0.39

>  <nHBAcc>
4

>  <nHBDon>
4

>  <Kier1>
22.2

>  <Kier2>
9.65

>  <Lipinski>
1

>  <GhoseFilter>
1

>  <FilterItLogS>
-6.68

>  <VMcGowan>
308.75

>  <LabuteASA>
169.97

>  <PEOE_VSA1>
20.51

>  <PEOE_VSA2>
4.79

>  <PEOE_VSA3>
0

>  <PEOE_VSA4>
0

>  <PEOE_VSA5>
0

>  <PEOE_VSA6>
32.05

>  <PEOE_VSA7>
65.63

>  <PEOE_VSA8>
24.04

>  <PEOE_VSA9>
11.62

>  <PEOE_VSA10>
5.75

>  <PEOE_VSA11>
0

>  <PEOE_VSA12>
5.56

>  <PEOE_VSA13>
0

>  <SMR_VSA1>
10.21

>  <SMR_VSA2>
0

>  <SMR_VSA3>
10.3

>  <SMR_VSA4>
0

>  <SMR_VSA5>
51.68

>  <SMR_VSA6>
6.54

>  <SMR_VSA7>
74.57

>  <SMR_VSA8>
0

>  <SMR_VSA9>
5.75

>  <SlogP_VSA1>
10.88

>  <SlogP_VSA2>
27.78

>  <SlogP_VSA3>
25.68

>  <SlogP_VSA4>
0

>  <SlogP_VSA5>
47.77

>  <SlogP_VSA6>
41.19

>  <SlogP_VSA7>
0

>  <SlogP_VSA8>
10.9

>  <SlogP_VSA9>
0

>  <SlogP_VSA10>
0

>  <SlogP_VSA11>
5.75

>  <EState_VSA1>
6.1

>  <EState_VSA2>
11.31

>  <EState_VSA3>
29.05

>  <EState_VSA4>
25.68

>  <EState_VSA5>
34.39

>  <EState_VSA6>
12.13

>  <EState_VSA7>
0

>  <EState_VSA8>
36.28

>  <EState_VSA9>
0

>  <EState_VSA10>
15.01

>  <VSA_EState1>
0

>  <VSA_EState2>
14.22

>  <VSA_EState3>
24.98

>  <VSA_EState4>
6.49

>  <VSA_EState5>
0.01

>  <VSA_EState6>
11.31

>  <VSA_EState7>
3.34

>  <VSA_EState8>
4.83

>  <VSA_EState9>
0

>  <apol>
63.36

>  <bpol>
30.1

>  <nRing>
4

>  <nHRing>
1

>  <naRing>
3

>  <naHRing>
1

>  <nARing 2>
1

>  <nAHRing 2>
0

>  <nFRing>
2

>  <nFHRing>
1

>  <nFaRing>
1

>  <nFaHRing>
1

>  <nFARing 2>
1

>  <nFAHRing 2>
0

>  <nRot>
6

>  <SLogP>
3.15

>  <SMR>
115.59

>  <TopoPSA(NO)>
85.35

>  <TopoPSA>
85.35

>  <JGI1>
0.2

>  <JGI2>
0.08

>  <JGI3>
0.05

>  <JGI4>
0.05

>  <JGI5>
0.03

>  <Diameter>
15

>  <Radius>
8

>  <TMWC10>
138.54

>  <TSRW10>
78.78

>  <MW>
392.21

>  <AMW>
6.88

>  <WPath>
2453

>  <WPol>
49

>  <Zagreb1>
156

>  <Zagreb2>
187

>  <mZagreb2>
6.42

>  <yes>


>  <nAR-cont>
0.816016

>  <nHA-cont>
0.785905698

>  <MWHBN>
0.403952831

>  <MWHBN-cont>
0.460517995

>  <TPSA-cont>
0.404204001

>  <pka_cont>
0.97

>  <yes.1>


>  <BBB_SCORE>
3.586106693

>  <MMFF94 Energy>
86.9

$$$$
Compound 2772
Actelion Java MolfileCreator 2.0

  0  0  0  0  0  0              0 V3000
M  V30 BEGIN CTAB
M  V30 COUNTS 55 55 0 0 0
M  V30 BEGIN ATOM
M  V30 1 O -1.4826 -2.4981 -0.9362 0
M  V30 2 C -2.3149 -2.5566 -0.0351 0
M  V30 3 O -2.4338 -1.6116 0.9825 0
M  V30 4 N -3.2464 -3.5805 0.0792 0
M  V30 5 C -1.5461 -0.5269 0.9441 0
M  V30 6 C -3.2545 -4.6534 -0.8964 0
M  V30 7 C -4.232 -3.6577 1.1445 0
M  V30 8 C -0.7254 -0.33 2.0481 0
M  V30 9 C -1.5428 0.3636 -0.1329 0
M  V30 10 C 0.1202 0.7738 2.0516 0
M  V30 11 C -0.6533 1.4514 -0.1517 0
M  V30 12 O 1.0176 1.0063 3.1056 0
M  V30 13 C 0.1789 1.6474 0.9624 0
M  V30 14 C -0.6122 2.3683 -1.3616 0 CFG=1
M  V30 15 C 0.4845 1.1627 4.3841 0
M  V30 16 O 0.2946 3.4588 -1.1495 0
M  V30 17 C -0.1995 1.6439 -2.6745 0
M  V30 18 O -0.7146 1.1181 4.6417 0
M  V30 19 N 1.4645 1.3769 5.3454 0
M  V30 20 N 1.2386 1.304 -2.6401 0
M  V30 21 C 1.0775 1.5737 6.7291 0
M  V30 22 C 2.8851 1.441 5.0479 0
M  V30 23 C 1.7405 0.5469 -3.8045 0
M  V30 24 C 1.1388 -0.8674 -3.8644 0
M  V30 25 C 3.2625 0.4203 -3.6007 0
M  V30 26 C 1.4884 1.2826 -5.1299 0
M  V30 27 H -2.4877 -4.5209 -1.6636 0
M  V30 28 H -3.0761 -5.6005 -0.3789 0
M  V30 29 H -4.2356 -4.6825 -1.3794 0
M  V30 30 H -4.1767 -2.8158 1.8371 0
M  V30 31 H -4.0687 -4.5834 1.7042 0
M  V30 32 H -5.2299 -3.6776 0.6964 0
M  V30 33 H -0.7537 -1.0166 2.8867 0
M  V30 34 H -2.222 0.1935 -0.9644 0
M  V30 35 H 0.8725 2.4844 0.9923 0
M  V30 36 H -1.6083 2.8085 -1.4872 0
M  V30 37 H 1.1039 3.1977 -1.636 0
M  V30 38 H -0.8245 0.7616 -2.8369 0
M  V30 39 H -0.371 2.3463 -3.4976 0
M  V30 40 H 1.4071 0.7437 -1.7983 0
M  V30 41 H -0.0038 1.5048 6.8709 0
M  V30 42 H 1.563 0.8091 7.3427 0
M  V30 43 H 1.4129 2.5642 7.0506 0
M  V30 44 H 3.1068 1.2684 3.9933 0
M  V30 45 H 3.4015 0.6821 5.6431 0
M  V30 46 H 3.2552 2.4322 5.3265 0
M  V30 47 H 0.0673 -0.8494 -4.0888 0
M  V30 48 H 1.6212 -1.4637 -4.6477 0
M  V30 49 H 1.2751 -1.4003 -2.9162 0
M  V30 50 H 3.5013 -0.1148 -2.6738 0
M  V30 51 H 3.7274 -0.1308 -4.4262 0
M  V30 52 H 3.7425 1.405 -3.5511 0
M  V30 53 H 0.4229 1.3219 -5.3807 0
M  V30 54 H 1.8662 2.3109 -5.0927 0
M  V30 55 H 1.9945 0.7769 -5.9605 0
M  V30 END ATOM
M  V30 BEGIN BOND
M  V30 1 2 1 2
M  V30 2 1 2 3
M  V30 3 1 2 4
M  V30 4 1 3 5
M  V30 5 1 4 6
M  V30 6 1 4 7
M  V30 7 2 5 8
M  V30 8 1 5 9
M  V30 9 1 8 10
M  V30 10 2 9 11
M  V30 11 1 10 12
M  V30 12 2 10 13
M  V30 13 1 11 14
M  V30 14 1 12 15
M  V30 15 1 14 16
M  V30 16 1 14 17
M  V30 17 2 15 18
M  V30 18 1 15 19
M  V30 19 1 17 20
M  V30 20 1 19 21
M  V30 21 1 19 22
M  V30 22 1 20 23
M  V30 23 1 23 24
M  V30 24 1 23 25
M  V30 25 1 23 26
M  V30 26 1 11 13
M  V30 27 1 6 27
M  V30 28 1 6 28
M  V30 29 1 6 29
M  V30 30 1 7 30
M  V30 31 1 7 31
M  V30 32 1 7 32
M  V30 33 1 8 33
M  V30 34 1 9 34
M  V30 35 1 13 35
M  V30 36 1 14 36
M  V30 37 1 16 37
M  V30 38 1 17 38
M  V30 39 1 17 39
M  V30 40 1 20 40
M  V30 41 1 21 41
M  V30 42 1 21 42
M  V30 43 1 21 43
M  V30 44 1 22 44
M  V30 45 1 22 45
M  V30 46 1 22 46
M  V30 47 1 24 47
M  V30 48 1 24 48
M  V30 49 1 24 49
M  V30 50 1 25 50
M  V30 51 1 25 51
M  V30 52 1 25 52
M  V30 53 1 26 53
M  V30 54 1 26 54
M  V30 55 1 26 55
M  V30 END BOND
M  V30 BEGIN COLLECTION
M  V30 MDLV30/STERAC1 ATOMS=(1 14)
M  V30 END COLLECTION
M  V30 END CTAB
M  END
>  <Column 1>
3496

>  <level_0>
5741

>  <index>
5742

>  <Unnamed: 0>
5742

>  <NO.>
5754

>  <Name>
bambuterol

>  <IUPAC_name>
[3-[2-(tert-butylamino)-1-hydroxyethyl]-5-(dimethylcarbamoyloxy)phenyl] n-n-dimethylcarbamate

>  <SMILES>
CN(C)C(=O)Oc1cc(OC(=O)N(C)C)cc(C(O)CNC(C)(C)C)c1

>  <CID>
54766

>  <logBB>


>  <BBB+/BBB->
BBB-

>  <Inchi>
InChI=1S/C18H29N3O5/c1-18(2-3)19-11-15(22)12-8-13(25-16(23)20(4)5)10-14(9-12)26-17(24)21(6)7/h8-10-15-19-22H-11H2-1-7H3

>  <threshold>


>  <reference>
R23|

>  <group>
C

>  <Class>
-1

>  <ABC>
19.51

>  <ABCGG>
17.03

>  <nAcid>
0

>  <nBase>
1

>  <nAromAtom>
6

>  <nAromBond>
6

>  <nAtom>
55

>  <nHeavyAtom>
26

>  <nSpiro>
0

>  <nBridgehead>
0

>  <nHetero>
8

>  <nN>
3

>  <nO>
5

>  <nF>
0

>  <BalabanJ>
2.74

>  <BertzCT>
597.95

>  <nBonds>
55

>  <nBondsO>
26

>  <nBondsS>
47

>  <nBondsD>
2

>  <nBondsT>
0

>  <nBondsA>
6

>  <nBondsM>
8

>  <nBondsKS>
50

>  <nBondsKD>
5

>  <RNCG>
0.15

>  <RPCG>
0.15

>  <FCSP3>
0.56

>  <SZ>
33

>  <Sm>
30.59

>  <Sv>
31.7

>  <Sse>
55.52

>  <Sp>
33.96

>  <Si>
62.94

>  <MZ>
0.6

>  <Mm>
0.56

>  <Mv>
0.58

>  <Mse>
1.01

>  <Mp>
0.62

>  <Mi>
1.14

>  <NsCH3>
7

>  <NdCH2>
0

>  <NssCH2>
1

>  <NtCH>
0

>  <NdsCH>
0

>  <NaaCH>
3

>  <NsssCH>
1

>  <NddC>
0

>  <NtsC>
0

>  <NdssC>
2

>  <NaasC>
3

>  <NaaaC>
0

>  <NssssC>
1

>  <NsNH3>
0

>  <NsNH2>
0

>  <NssNH2>
0

>  <NdNH>
0

>  <NssNH>
1

>  <NaaNH>
0

>  <NtN>
0

>  <NsssNH>
0

>  <NdsN>
0

>  <NaaN>
0

>  <NsssN>
2

>  <NddsN>
0

>  <NaasN>
0

>  <NssssN>
0

>  <NsOH>
1

>  <NdO>
2

>  <NssO>
2

>  <NaaO>
0

>  <NsF>
0

>  <NsSiH3>
0

>  <NssSiH2>
0

>  <NsssSiH>
0

>  <NssssSi>
0

>  <NsPH2>
0

>  <NssPH>
0

>  <NsssP>
0

>  <NdsssP>
0

>  <NsssssP>
0

>  <NsSH>
0

>  <NdS>
0

>  <NssS>
0

>  <NaaS>
0

>  <NdssS>
0

>  <NddssS>
0

>  <NsCl>
0

>  <NsBr>
0

>  <NsI>
0

>  <fragCpx>
26.08

>  <fMF>
0.11

>  <nHBAcc>
6

>  <nHBDon>
2

>  <Kier1>
24.04

>  <Kier2>
10.52

>  <Lipinski>
1

>  <GhoseFilter>
1

>  <FilterItLogS>
-2.63

>  <VMcGowan>
291.41

>  <LabuteASA>
154.22

>  <PEOE_VSA1>
29.7

>  <PEOE_VSA2>
0

>  <PEOE_VSA3>
9.59

>  <PEOE_VSA4>
0

>  <PEOE_VSA5>
0

>  <PEOE_VSA6>
0

>  <PEOE_VSA7>
38.47

>  <PEOE_VSA8>
46.34

>  <PEOE_VSA9>
6.1

>  <PEOE_VSA10>
11.5

>  <PEOE_VSA11>
0

>  <PEOE_VSA12>
0

>  <PEOE_VSA13>
0

>  <SMR_VSA1>
24.17

>  <SMR_VSA2>
0

>  <SMR_VSA3>
15.12

>  <SMR_VSA4>
0

>  <SMR_VSA5>
32.41

>  <SMR_VSA6>
34.74

>  <SMR_VSA7>
23.76

>  <SMR_VSA8>
0

>  <SMR_VSA9>
11.5

>  <SlogP_VSA1>
14.79

>  <SlogP_VSA2>
67.37

>  <SlogP_VSA3>
0

>  <SlogP_VSA4>
0

>  <SlogP_VSA5>
32.44

>  <SlogP_VSA6>
18.2

>  <SlogP_VSA7>
0

>  <SlogP_VSA8>
0

>  <SlogP_VSA9>
0

>  <SlogP_VSA10>
9.59

>  <SlogP_VSA11>
11.5

>  <EState_VSA1>
18.29

>  <EState_VSA2>
23.58

>  <EState_VSA3>
5.56

>  <EState_VSA4>
0

>  <EState_VSA5>
15.87

>  <EState_VSA6>
40.32

>  <EState_VSA7>
20.77

>  <EState_VSA8>
5.32

>  <EState_VSA9>
9.47

>  <EState_VSA10>
14.7

>  <VSA_EState1>
10.49

>  <VSA_EState2>
26.16

>  <VSA_EState3>
13.65

>  <VSA_EState4>
0.29

>  <VSA_EState5>
0.36

>  <VSA_EState6>
4.52

>  <VSA_EState7>
-2.02

>  <VSA_EState8>
6.24

>  <VSA_EState9>
6.23

>  <apol>
56.71

>  <bpol>
38.29

>  <nRing>
1

>  <nHRing>
0

>  <naRing>
1

>  <naHRing>
0

>  <nARing 2>
0

>  <nAHRing 2>
0

>  <nFRing>
0

>  <nFHRing>
0

>  <nFaRing>
0

>  <nFaHRing>
0

>  <nFARing 2>
0

>  <nFAHRing 2>
0

>  <nRot>
5

>  <SLogP>
2.23

>  <SMR>
98.58

>  <TopoPSA(NO)>
91.34

>  <TopoPSA>
91.34

>  <JGI1>
0.35

>  <JGI2>
0.08

>  <JGI3>
0.05

>  <JGI4>
0.05

>  <JGI5>
0.03

>  <Diameter>
11

>  <Radius>
6

>  <TMWC10>
125.47

>  <TSRW10>
60.28

>  <MW>
367.21

>  <AMW>
6.68

>  <WPath>
1766

>  <WPol>
35

>  <Zagreb1>
126

>  <Zagreb2>
138

>  <mZagreb2>
5.63

>  <yes>


>  <nAR-cont>
0.336376

>  <nHA-cont>
0.892715677

>  <MWHBN>
0.417477176

>  <MWHBN-cont>
0.407718024

>  <TPSA-cont>
0.362390081

>  <pka_cont>
0.97

>  <yes.1>


>  <BBB_SCORE>
3.050448875

>  <MMFF94 Energy>
5.4967

$$$$
Compound 2773
Actelion Java MolfileCreator 2.0

  0  0  0  0  0  0              0 V3000
M  V30 BEGIN CTAB
M  V30 COUNTS 59 62 0 0 0
M  V30 BEGIN ATOM
M  V30 1 Cl -2.8362 5.4346 2.1063 0
M  V30 2 C -3.6747 4.0008 1.616 0
M  V30 3 C -3.0707 2.9678 0.8678 0
M  V30 4 C -5.0295 3.9463 1.9688 0
M  V30 5 C -3.913 1.9254 0.406 0
M  V30 6 C -1.5871 2.9326 0.491 0
M  V30 7 C -5.8215 2.8747 1.5736 0
M  V30 8 C -3.3851 0.9207 -0.5585 0
M  V30 9 C -5.2663 1.8731 0.7865 0
M  V30 10 O -0.7807 3.5321 1.511 0
M  V30 11 C -1.0941 1.4503 0.428 0
M  V30 12 C -1.3697 3.7161 -0.8131 0
M  V30 13 O -4.0926 0.4058 -1.4196 0
M  V30 14 C -1.9305 0.6005 -0.4928 0
M  V30 15 O -6.0506 0.8168 0.4215 0
M  V30 16 C 0.4194 1.3389 0.1061 0
M  V30 17 C -1.4164 -0.3735 -1.2749 0
M  V30 18 C 0.8143 -0.1347 -0.0657 0
M  V30 19 O -2.1538 -1.026 -2.2532 0
M  V30 20 C 0.0476 -0.7646 -1.2495 0
M  V30 21 C 2.3424 -0.3484 -0.2575 0
M  V30 22 O 0.5808 -0.3128 -2.4991 0
M  V30 23 C 0.3027 -2.2852 -1.0777 0
M  V30 24 N 3.0907 0.0863 0.9396 0
M  V30 25 C 2.6622 -1.764 -0.6959 0
M  V30 26 O -0.5687 -3.1284 -0.8809 0
M  V30 27 C 1.7419 -2.6815 -1.0548 0
M  V30 28 C 4.4818 0.4287 0.6451 0
M  V30 29 C 3.0088 -0.8064 2.0935 0
M  V30 30 C 2.16 -4.0297 -1.5034 0
M  V30 31 O 1.7667 -4.5057 -2.5604 0
M  V30 32 N 3.0204 -4.6692 -0.6472 0
M  V30 33 C 3.4434 -6.005 -0.8901 0
M  V30 34 O 4.6881 -6.1244 -0.245 0
M  V30 35 H -5.476 4.7455 2.5579 0
M  V30 36 H -6.864 2.8434 1.8775 0
M  V30 37 H -1.0351 4.4693 1.5902 0
M  V30 38 H -1.2178 1.0245 1.4374 0
M  V30 39 H -0.3052 3.8342 -1.0392 0
M  V30 40 H -1.8604 3.244 -1.6703 0
M  V30 41 H -1.765 4.7356 -0.7304 0
M  V30 42 H -6.9817 0.9953 0.6302 0
M  V30 43 H 0.9963 1.7927 0.9199 0
M  V30 44 H 0.6722 1.8861 -0.8088 0
M  V30 45 H 0.4975 -0.6557 0.8506 0
M  V30 46 H -3.0951 -0.7408 -2.1769 0
M  V30 47 H 2.646 0.3067 -1.0866 0
M  V30 48 H -0.0509 -0.6391 -3.1731 0
M  V30 49 H 3.7168 -2.0188 -0.7635 0
M  V30 50 H 5.0757 -0.4435 0.3526 0
M  V30 51 H 4.5395 1.173 -0.1567 0
M  V30 52 H 4.9575 0.8843 1.5211 0
M  V30 53 H 3.5096 -1.7649 1.9188 0
M  V30 54 H 1.973 -1.0058 2.3829 0
M  V30 55 H 3.4795 -0.3391 2.9664 0
M  V30 56 H 3.2384 -4.2789 0.2571 0
M  V30 57 H 3.54 -6.2219 -1.958 0
M  V30 58 H 2.7261 -6.6928 -0.4345 0
M  V30 59 H 5.3031 -5.601 -0.7847 0
M  V30 END ATOM
M  V30 BEGIN BOND
M  V30 1 1 1 2
M  V30 2 2 2 3
M  V30 3 1 2 4
M  V30 4 1 3 5
M  V30 5 1 3 6
M  V30 6 2 4 7
M  V30 7 1 5 8
M  V30 8 2 5 9
M  V30 9 1 6 10
M  V30 10 1 6 11
M  V30 11 1 6 12
M  V30 12 2 8 13
M  V30 13 1 8 14
M  V30 14 1 9 15
M  V30 15 1 11 16
M  V30 16 2 14 17
M  V30 17 1 16 18
M  V30 18 1 17 19
M  V30 19 1 17 20
M  V30 20 1 18 21
M  V30 21 1 20 22
M  V30 22 1 20 23
M  V30 23 1 21 24
M  V30 24 1 21 25
M  V30 25 2 23 26
M  V30 26 1 23 27
M  V30 27 1 24 28
M  V30 28 1 24 29
M  V30 29 1 27 30
M  V30 30 2 30 31
M  V30 31 1 30 32
M  V30 32 1 32 33
M  V30 33 1 33 34
M  V30 34 1 7 9
M  V30 35 1 11 14
M  V30 36 1 18 20
M  V30 37 2 25 27
M  V30 38 1 4 35
M  V30 39 1 7 36
M  V30 40 1 10 37
M  V30 41 1 11 38
M  V30 42 1 12 39
M  V30 43 1 12 40
M  V30 44 1 12 41
M  V30 45 1 15 42
M  V30 46 1 16 43
M  V30 47 1 16 44
M  V30 48 1 18 45
M  V30 49 1 19 46
M  V30 50 1 21 47
M  V30 51 1 22 48
M  V30 52 1 25 49
M  V30 53 1 28 50
M  V30 54 1 28 51
M  V30 55 1 28 52
M  V30 56 1 29 53
M  V30 57 1 29 54
M  V30 58 1 29 55
M  V30 59 1 32 56
M  V30 60 1 33 57
M  V30 61 1 33 58
M  V30 62 1 34 59
M  V30 END BOND
M  V30 END CTAB
M  END
>  <Column 1>
3497

>  <level_0>
5742

>  <index>
5743

>  <Unnamed: 0>
5743

>  <NO.>
5755

>  <Name>
clomocycline

>  <IUPAC_name>


>  <SMILES>
CN(C)C1C=C(C(=O)NCO)C(=O)C2(O)C(O)=C3C(=O)c4c(O)ccc(Cl)c4C(C)(O)C3CC12

>  <CID>


>  <logBB>


>  <BBB+/BBB->
BBB-

>  <Inchi>
InChI=1S/C23H25ClN2O8/c1-22(33)11-7-10-13(26(2)3)6-9(21(32)25-8-27)19(30)23(10-34)20(31)15(11)18(29)16-14(28)5-4-12(24)17(16)22/h4-6-10-11-13-27-28-31-33-34H-7-8H2-1-3H3-(H-25-32)

>  <threshold>


>  <reference>
R23|

>  <group>
C

>  <Class>
1

>  <ABC>
26.76

>  <ABCGG>
22.15

>  <nAcid>
0

>  <nBase>
1

>  <nAromAtom>
6

>  <nAromBond>
6

>  <nAtom>
59

>  <nHeavyAtom>
34

>  <nSpiro>
0

>  <nBridgehead>
0

>  <nHetero>
11

>  <nN>
2

>  <nO>
8

>  <nF>
0

>  <BalabanJ>
1.78

>  <BertzCT>
1187.66

>  <nBonds>
62

>  <nBondsO>
37

>  <nBondsS>
51

>  <nBondsD>
5

>  <nBondsT>
0

>  <nBondsA>
6

>  <nBondsM>
11

>  <nBondsKS>
54

>  <nBondsKD>
8

>  <RNCG>
0.13

>  <RPCG>
0.07

>  <FCSP3>
0.43

>  <SZ>
43

>  <Sm>
41.04

>  <Sv>
38.1

>  <Sse>
60.84

>  <Sp>
39.45

>  <Si>
66.6

>  <MZ>
0.73

>  <Mm>
0.7

>  <Mv>
0.65

>  <Mse>
1.03

>  <Mp>
0.67

>  <Mi>
1.13

>  <NsCH3>
3

>  <NdCH2>
0

>  <NssCH2>
2

>  <NtCH>
0

>  <NdsCH>
1

>  <NaaCH>
2

>  <NsssCH>
3

>  <NddC>
0

>  <NtsC>
0

>  <NdssC>
6

>  <NaasC>
4

>  <NaaaC>
0

>  <NssssC>
2

>  <NsNH3>
0

>  <NsNH2>
0

>  <NssNH2>
0

>  <NdNH>
0

>  <NssNH>
1

>  <NaaNH>
0

>  <NtN>
0

>  <NsssNH>
0

>  <NdsN>
0

>  <NaaN>
0

>  <NsssN>
1

>  <NddsN>
0

>  <NaasN>
0

>  <NssssN>
0

>  <NsOH>
5

>  <NdO>
3

>  <NssO>
0

>  <NaaO>
0

>  <NsF>
0

>  <NsSiH3>
0

>  <NssSiH2>
0

>  <NsssSiH>
0

>  <NssssSi>
0

>  <NsPH2>
0

>  <NssPH>
0

>  <NsssP>
0

>  <NdsssP>
0

>  <NsssssP>
0

>  <NsSH>
0

>  <NdS>
0

>  <NssS>
0

>  <NaaS>
0

>  <NdssS>
0

>  <NddssS>
0

>  <NsCl>
1

>  <NsBr>
0

>  <NsI>
0

>  <fragCpx>
247.11

>  <fMF>
0.31

>  <nHBAcc>
9

>  <nHBDon>
6

>  <Kier1>
27.05

>  <Kier2>
9.39

>  <Lipinski>
0

>  <GhoseFilter>
0

>  <FilterItLogS>
-2.68

>  <VMcGowan>
336.25

>  <LabuteASA>
199.31

>  <PEOE_VSA1>
35.75

>  <PEOE_VSA2>
14.38

>  <PEOE_VSA3>
0

>  <PEOE_VSA4>
0

>  <PEOE_VSA5>
0

>  <PEOE_VSA6>
17.68

>  <PEOE_VSA7>
39.57

>  <PEOE_VSA8>
34.04

>  <PEOE_VSA9>
16.74

>  <PEOE_VSA10>
18.24

>  <PEOE_VSA11>
11.38

>  <PEOE_VSA12>
5.78

>  <PEOE_VSA13>
5.91

>  <SMR_VSA1>
39.92

>  <SMR_VSA2>
0

>  <SMR_VSA3>
10.22

>  <SMR_VSA4>
11.84

>  <SMR_VSA5>
30.59

>  <SMR_VSA6>
20.83

>  <SMR_VSA7>
51.26

>  <SMR_VSA8>
0

>  <SMR_VSA9>
5.75

>  <SlogP_VSA1>
5.32

>  <SlogP_VSA2>
80.38

>  <SlogP_VSA3>
15.19

>  <SlogP_VSA4>
11.84

>  <SlogP_VSA5>
29.27

>  <SlogP_VSA6>
35.11

>  <SlogP_VSA7>
5.02

>  <SlogP_VSA8>
0

>  <SlogP_VSA9>
0

>  <SlogP_VSA10>
0

>  <SlogP_VSA11>
5.75

>  <EState_VSA1>
75.94

>  <EState_VSA2>
22.57

>  <EState_VSA3>
0

>  <EState_VSA4>
0

>  <EState_VSA5>
25.13

>  <EState_VSA6>
19

>  <EState_VSA7>
0

>  <EState_VSA8>
5.32

>  <EState_VSA9>
16.71

>  <EState_VSA10>
34.81

>  <VSA_EState1>
0

>  <VSA_EState2>
40.92

>  <VSA_EState3>
56.04

>  <VSA_EState4>
-5.76

>  <VSA_EState5>
-6.58

>  <VSA_EState6>
1.74

>  <VSA_EState7>
1.21

>  <VSA_EState8>
0.63

>  <VSA_EState9>
3.28

>  <apol>
65.88

>  <bpol>
30.47

>  <nRing>
4

>  <nHRing>
0

>  <naRing>
1

>  <naHRing>
0

>  <nARing 2>
3

>  <nAHRing 2>
0

>  <nFRing>
1

>  <nFHRing>
0

>  <nFaRing>
0

>  <nFaHRing>
0

>  <nFARing 2>
1

>  <nFAHRing 2>
0

>  <nRot>
3

>  <SLogP>
0.13

>  <SMR>
119.01

>  <TopoPSA(NO)>
167.63

>  <TopoPSA>
167.63

>  <JGI1>
0.26

>  <JGI2>
0.12

>  <JGI3>
0.07

>  <JGI4>
0.06

>  <JGI5>
0.04

>  <Diameter>
13

>  <Radius>
7

>  <TMWC10>
153.1

>  <TSRW10>
71.66

>  <MW>
492.13

>  <AMW>
8.34

>  <WPath>
2864

>  <WPol>
78

>  <Zagreb1>
194

>  <Zagreb2>
247

>  <mZagreb2>
7.22

>  <yes>


>  <nAR-cont>
0.691115

>  <nHA-cont>
0.568589513

>  <MWHBN>
0.676162901

>  <MWHBN-cont>
0

>  <TPSA-cont>
0

>  <pka_cont>
0.97

>  <yes.1>


>  <BBB_SCORE>
1.744704513

>  <MMFF94 Energy>
41.403

$$$$
Compound 2774
Actelion Java MolfileCreator 2.0

  0  0  0  0  0  0              0 V3000
M  V30 BEGIN CTAB
M  V30 COUNTS 44 45 0 0 0
M  V30 BEGIN ATOM
M  V30 1 O -3.7791 -1.4158 -4.3312 0
M  V30 2 C -3.0426 -1.0171 -3.2554 0
M  V30 3 C -2.2266 -1.9583 -2.6438 0
M  V30 4 C -3.0972 0.2879 -2.7827 0
M  V30 5 C -1.4513 -1.5936 -1.5405 0
M  V30 6 C -2.3235 0.6514 -1.6771 0
M  V30 7 C -1.4915 -0.2828 -1.0345 0
M  V30 8 C -0.6577 0.1586 0.1821 0 CFG=2
M  V30 9 C 0.7555 0.7306 -0.2291 0
M  V30 10 C -0.6457 -0.9576 1.2732 0
M  V30 11 O 0.5347 1.9033 -1.0461 0
M  V30 12 C 1.5997 -0.2478 -1.0756 0
M  V30 13 C 1.5903 1.1968 0.986 0
M  V30 14 N -0.3629 -0.5064 2.6534 0
M  V30 15 C 2.9698 0.323 -1.459 0
M  V30 16 C 2.9395 1.7966 0.5829 0
M  V30 17 C -0.0445 -1.6598 3.502 0
M  V30 18 C -1.4954 0.2228 3.2316 0
M  V30 19 C 3.7516 0.8084 -0.245 0
M  V30 20 H -4.2618 -0.6462 -4.674 0
M  V30 21 H -2.1868 -2.9732 -3.0286 0
M  V30 22 H -3.7256 1.0341 -3.2576 0
M  V30 23 H -0.8089 -2.3481 -1.0944 0
M  V30 24 H -2.3663 1.6794 -1.3243 0
M  V30 25 H -1.22 1.004 0.6009 0
M  V30 26 H 0.1101 -1.6982 0.9831 0
M  V30 27 H -1.6062 -1.4924 1.2748 0
M  V30 28 H 0.1028 2.5722 -0.4887 0
M  V30 29 H 1.7487 -1.1878 -0.5323 0
M  V30 30 H 1.0873 -0.4851 -2.0143 0
M  V30 31 H 1.0361 1.952 1.5564 0
M  V30 32 H 1.7976 0.3545 1.6535 0
M  V30 33 H 3.5492 -0.4443 -1.985 0
M  V30 34 H 2.8383 1.1537 -2.1633 0
M  V30 35 H 2.7874 2.7219 0.0148 0
M  V30 36 H 3.5021 2.068 1.4836 0
M  V30 37 H 0.8403 -2.1834 3.1233 0
M  V30 38 H -0.8737 -2.3745 3.5568 0
M  V30 39 H 0.2001 -1.3341 4.5193 0
M  V30 40 H -2.4108 -0.3796 3.2493 0
M  V30 41 H -1.6991 1.1469 2.683 0
M  V30 42 H -1.2683 0.5283 4.2597 0
M  V30 43 H 4.0269 -0.0511 0.3783 0
M  V30 44 H 4.6862 1.2786 -0.5704 0
M  V30 END ATOM
M  V30 BEGIN BOND
M  V30 1 1 1 2
M  V30 2 2 2 3
M  V30 3 1 2 4
M  V30 4 1 3 5
M  V30 5 2 4 6
M  V30 6 2 5 7
M  V30 7 1 7 8
M  V30 8 1 8 9
M  V30 9 1 8 10
M  V30 10 1 9 11
M  V30 11 1 9 12
M  V30 12 1 9 13
M  V30 13 1 10 14
M  V30 14 1 12 15
M  V30 15 1 13 16
M  V30 16 1 14 17
M  V30 17 1 14 18
M  V30 18 1 15 19
M  V30 19 1 6 7
M  V30 20 1 16 19
M  V30 21 1 1 20
M  V30 22 1 3 21
M  V30 23 1 4 22
M  V30 24 1 5 23
M  V30 25 1 6 24
M  V30 26 1 8 25
M  V30 27 1 10 26
M  V30 28 1 10 27
M  V30 29 1 11 28
M  V30 30 1 12 29
M  V30 31 1 12 30
M  V30 32 1 13 31
M  V30 33 1 13 32
M  V30 34 1 15 33
M  V30 35 1 15 34
M  V30 36 1 16 35
M  V30 37 1 16 36
M  V30 38 1 17 37
M  V30 39 1 17 38
M  V30 40 1 17 39
M  V30 41 1 18 40
M  V30 42 1 18 41
M  V30 43 1 18 42
M  V30 44 1 19 43
M  V30 45 1 19 44
M  V30 END BOND
M  V30 BEGIN COLLECTION
M  V30 MDLV30/STERAC1 ATOMS=(1 8)
M  V30 END COLLECTION
M  V30 END CTAB
M  END
>  <Column 1>
3498

>  <level_0>
5743

>  <index>
5744

>  <Unnamed: 0>
5744

>  <NO.>
5756

>  <Name>
desvenlafaxine

>  <IUPAC_name>
4-[2-(dimethylamino)-1-(1-hydroxycyclohexyl)ethyl]phenol

>  <SMILES>
CN(C)CC(c1ccc(O)cc1)C1(O)CCCCC1

>  <CID>
125017

>  <logBB>


>  <BBB+/BBB->
BBB+

>  <Inchi>
InChI=1S/C16H25NO2/c1-17(2)12-15(13-6-8-14(18)9-7-13)16(19)10-4-3-5-11-16/h6-9-15-18-19H-3-5-10-12H2-1-2H3

>  <threshold>


>  <reference>
R23|R26|

>  <group>
C

>  <Class>
-1

>  <ABC>
14.53

>  <ABCGG>
12.68

>  <nAcid>
0

>  <nBase>
1

>  <nAromAtom>
6

>  <nAromBond>
6

>  <nAtom>
44

>  <nHeavyAtom>
19

>  <nSpiro>
0

>  <nBridgehead>
0

>  <nHetero>
3

>  <nN>
1

>  <nO>
2

>  <nF>
0

>  <BalabanJ>
2.06

>  <BertzCT>
393.71

>  <nBonds>
45

>  <nBondsO>
20

>  <nBondsS>
39

>  <nBondsD>
0

>  <nBondsT>
0

>  <nBondsA>
6

>  <nBondsM>
6

>  <nBondsKS>
42

>  <nBondsKD>
3

>  <RNCG>
0.31

>  <RPCG>
0.18

>  <FCSP3>
0.63

>  <SZ>
24

>  <Sm>
21.93

>  <Sv>
24.96

>  <Sse>
43.42

>  <Sp>
27.6

>  <Si>
49.9

>  <MZ>
0.55

>  <Mm>
0.5

>  <Mv>
0.57

>  <Mse>
0.99

>  <Mp>
0.63

>  <Mi>
1.13

>  <NsCH3>
2

>  <NdCH2>
0

>  <NssCH2>
6

>  <NtCH>
0

>  <NdsCH>
0

>  <NaaCH>
4

>  <NsssCH>
1

>  <NddC>
0

>  <NtsC>
0

>  <NdssC>
0

>  <NaasC>
2

>  <NaaaC>
0

>  <NssssC>
1

>  <NsNH3>
0

>  <NsNH2>
0

>  <NssNH2>
0

>  <NdNH>
0

>  <NssNH>
0

>  <NaaNH>
0

>  <NtN>
0

>  <NsssNH>
0

>  <NdsN>
0

>  <NaaN>
0

>  <NsssN>
1

>  <NddsN>
0

>  <NaasN>
0

>  <NssssN>
0

>  <NsOH>
2

>  <NdO>
0

>  <NssO>
0

>  <NaaO>
0

>  <NsF>
0

>  <NsSiH3>
0

>  <NssSiH2>
0

>  <NsssSiH>
0

>  <NssssSi>
0

>  <NsPH2>
0

>  <NssPH>
0

>  <NsssP>
0

>  <NdsssP>
0

>  <NsssssP>
0

>  <NsSH>
0

>  <NdS>
0

>  <NssS>
0

>  <NaaS>
0

>  <NdssS>
0

>  <NddssS>
0

>  <NsCl>
0

>  <NsBr>
0

>  <NsI>
0

>  <fragCpx>
58.03

>  <fMF>
0.3

>  <nHBAcc>
3

>  <nHBDon>
2

>  <Kier1>
15.39

>  <Kier2>
6.64

>  <Lipinski>
1

>  <GhoseFilter>
1

>  <FilterItLogS>
-2.86

>  <VMcGowan>
223.4

>  <LabuteASA>
115.42

>  <PEOE_VSA1>
15.11

>  <PEOE_VSA2>
0

>  <PEOE_VSA3>
0

>  <PEOE_VSA4>
0

>  <PEOE_VSA5>
0

>  <PEOE_VSA6>
31.4

>  <PEOE_VSA7>
44.63

>  <PEOE_VSA8>
12.46

>  <PEOE_VSA9>
5.6

>  <PEOE_VSA10>
5.75

>  <PEOE_VSA11>
0

>  <PEOE_VSA12>
0

>  <PEOE_VSA13>
0

>  <SMR_VSA1>
10.21

>  <SMR_VSA2>
0

>  <SMR_VSA3>
4.9

>  <SMR_VSA4>
0

>  <SMR_VSA5>
43.62

>  <SMR_VSA6>
20.64

>  <SMR_VSA7>
29.83

>  <SMR_VSA8>
0

>  <SMR_VSA9>
5.75

>  <SlogP_VSA1>
0

>  <SlogP_VSA2>
41.35

>  <SlogP_VSA3>
0

>  <SlogP_VSA4>
0

>  <SlogP_VSA5>
43.59

>  <SlogP_VSA6>
24.27

>  <SlogP_VSA7>
0

>  <SlogP_VSA8>
0

>  <SlogP_VSA9>
0

>  <SlogP_VSA10>
0

>  <SlogP_VSA11>
5.75

>  <EState_VSA1>
5.6

>  <EState_VSA2>
11.67

>  <EState_VSA3>
0

>  <EState_VSA4>
37.79

>  <EState_VSA5>
6.42

>  <EState_VSA6>
12.13

>  <EState_VSA7>
26.23

>  <EState_VSA8>
4.9

>  <EState_VSA9>
0

>  <EState_VSA10>
10.21

>  <VSA_EState1>
0

>  <VSA_EState2>
2.13

>  <VSA_EState3>
20.44

>  <VSA_EState4>
0.52

>  <VSA_EState5>
0.39

>  <VSA_EState6>
7.31

>  <VSA_EState7>
5.21

>  <VSA_EState8>
0.83

>  <VSA_EState9>
4.08

>  <apol>
46.09

>  <bpol>
26.79

>  <nRing>
2

>  <nHRing>
0

>  <naRing>
1

>  <naHRing>
0

>  <nARing 2>
1

>  <nAHRing 2>
0

>  <nFRing>
0

>  <nFHRing>
0

>  <nFaRing>
0

>  <nFaHRing>
0

>  <nFARing 2>
0

>  <nFAHRing 2>
0

>  <nRot>
4

>  <SLogP>
2.73

>  <SMR>
77.44

>  <TopoPSA(NO)>
43.7

>  <TopoPSA>
43.7

>  <JGI1>
0.25

>  <JGI2>
0.1

>  <JGI3>
0.05

>  <JGI4>
0.05

>  <JGI5>
0.02

>  <Diameter>
9

>  <Radius>
5

>  <TMWC10>
111.35

>  <TSRW10>
52.31

>  <MW>
263.19

>  <AMW>
5.98

>  <WPath>
672

>  <WPol>
28

>  <Zagreb1>
96

>  <Zagreb2>
110

>  <mZagreb2>
4.19

>  <yes>


>  <nAR-cont>
0.816016

>  <nHA-cont>
0.998649058

>  <MWHBN>
0.3082019

>  <MWHBN-cont>
0.815561693

>  <TPSA-cont>
0.694946864

>  <pka_cont>
0.97

>  <yes.1>


>  <BBB_SCORE>
4.912901325

>  <MMFF94 Energy>
60.061

$$$$
Compound 2775
Actelion Java MolfileCreator 2.0

  0  0  0  0  0  0              0 V3000
M  V30 BEGIN CTAB
M  V30 COUNTS 80 83 0 0 0
M  V30 BEGIN ATOM
M  V30 1 O 2.5472 -3.2646 0.9546 0
M  V30 2 C 1.4805 -2.8623 1.4404 0
M  V30 3 C 1.0162 -1.4832 1.1041 0
M  V30 4 C 0.6141 -3.7706 2.3546 0 CFG=2
M  V30 5 C 1.5064 -0.8679 0.0083 0
M  V30 6 C 0.1002 -0.7868 2.0657 0 CFG=1
M  V30 7 O 1.5611 -4.6153 3.0249 0
M  V30 8 C -0.2656 -4.6941 1.5254 0
M  V30 9 C -0.1623 -2.9547 3.4006 0 CFG=1
M  V30 10 O 2.408 -1.4602 -0.8614 0
M  V30 11 C 1.1601 0.547 -0.2991 0
M  V30 12 C -0.7081 0.3331 1.386 0
M  V30 13 C -0.8756 -1.747 2.7521 0
M  V30 14 O 0.3889 -5.2327 0.4194 0
M  V30 15 C -1.5475 -4.999 1.8362 0
M  V30 16 C -1.2127 -3.8273 4.1447 0 CFG=1
M  V30 17 C 1.8612 1.3183 -1.2534 0
M  V30 18 C 0.0954 1.1571 0.4062 0
M  V30 19 C -2.1479 -4.4231 3.0795 0
M  V30 20 C -2.3198 -5.9073 0.9365 0
M  V30 21 N -0.7001 -4.9206 5.0137 0
M  V30 22 O 2.9134 0.7914 -1.9615 0
M  V30 23 C 1.5291 2.6547 -1.5117 0
M  V30 24 C -0.263 2.5002 0.1546 0
M  V30 25 O -3.3711 -4.4382 3.2499 0
M  V30 26 O -1.8102 -6.4243 -0.0555 0
M  V30 27 N -3.6183 -6.1396 1.2485 0
M  V30 28 C 0.2415 -4.427 6.0255 0
M  V30 29 C -1.7889 -5.6321 5.7013 0
M  V30 30 C 0.4691 3.2281 -0.7928 0
M  V30 31 C 2.2636 3.4879 -2.5381 0
M  V30 32 N -1.3531 3.0798 0.8151 0
M  V30 33 N 1.42 3.7701 -3.7057 0
M  V30 34 C -2.6213 2.9549 0.1051 0
M  V30 35 C -1.1087 4.3307 1.5208 0
M  V30 36 C 2.1316 4.5933 -4.6839 0
M  V30 37 C 1.2989 4.8901 -5.9615 0
M  V30 38 C 0.9068 3.5842 -6.6753 0
M  V30 39 C 2.1652 5.7324 -6.9177 0
M  V30 40 C 0.0253 5.6874 -5.6274 0
M  V30 41 H 0.7367 -0.3335 2.8396 0
M  V30 42 H 2.0844 -5.0336 2.3103 0
M  V30 43 H 0.5433 -2.5435 4.1336 0
M  V30 44 H 2.691 -2.3185 -0.4659 0
M  V30 45 H -1.1234 0.9668 2.1793 0
M  V30 46 H -1.557 -0.09 0.832 0
M  V30 47 H -1.4262 -1.1956 3.526 0
M  V30 48 H -1.6245 -2.0834 2.0242 0
M  V30 49 H -0.2138 -5.8523 -0.0562 0
M  V30 50 H -1.8217 -3.1517 4.7632 0
M  V30 51 H 2.9333 -0.1673 -1.7605 0
M  V30 52 H -4.067 -5.6964 2.0487 0
M  V30 53 H -4.1668 -6.7497 0.6584 0
M  V30 54 H -0.205 -3.6485 6.6547 0
M  V30 55 H 1.1539 -4.0293 5.5732 0
M  V30 56 H 0.5727 -5.2444 6.677 0
M  V30 57 H -2.4051 -4.9564 6.3054 0
M  V30 58 H -2.4345 -6.1593 4.9921 0
M  V30 59 H -1.3854 -6.409 6.3616 0
M  V30 60 H 0.1941 4.2592 -0.9994 0
M  V30 61 H 3.185 2.9888 -2.8574 0
M  V30 62 H 2.5719 4.4251 -2.0559 0
M  V30 63 H 0.5737 4.2414 -3.399 0
M  V30 64 H -2.6349 3.5872 -0.7898 0
M  V30 65 H -3.4492 3.2643 0.7523 0
M  V30 66 H -2.8145 1.9191 -0.1948 0
M  V30 67 H -0.2011 4.2678 2.1317 0
M  V30 68 H -1.9414 4.5466 2.1992 0
M  V30 69 H -1.0134 5.1735 0.8278 0
M  V30 70 H 2.4238 5.5433 -4.2173 0
M  V30 71 H 3.0564 4.0807 -4.9793 0
M  V30 72 H 0.3804 3.7913 -7.6141 0
M  V30 73 H 1.7922 2.9852 -6.9161 0
M  V30 74 H 0.2431 2.9688 -6.0582 0
M  V30 75 H 3.0808 5.1988 -7.1963 0
M  V30 76 H 1.6242 5.968 -7.8412 0
M  V30 77 H 2.459 6.6806 -6.4533 0
M  V30 78 H -0.5062 5.9798 -6.5403 0
M  V30 79 H -0.6742 5.1034 -5.0202 0
M  V30 80 H 0.2668 6.6033 -5.0763 0
M  V30 END ATOM
M  V30 BEGIN BOND
M  V30 1 2 1 2
M  V30 2 1 2 3
M  V30 3 1 2 4
M  V30 4 2 3 5
M  V30 5 1 3 6
M  V30 6 1 4 7
M  V30 7 1 4 8
M  V30 8 1 4 9
M  V30 9 1 5 10
M  V30 10 1 5 11
M  V30 11 1 6 12
M  V30 12 1 6 13
M  V30 13 1 8 14
M  V30 14 2 8 15
M  V30 15 1 9 16
M  V30 16 2 11 17
M  V30 17 1 11 18
M  V30 18 1 15 19
M  V30 19 1 15 20
M  V30 20 1 16 21
M  V30 21 1 17 22
M  V30 22 1 17 23
M  V30 23 2 18 24
M  V30 24 2 19 25
M  V30 25 2 20 26
M  V30 26 1 20 27
M  V30 27 1 21 28
M  V30 28 1 21 29
M  V30 29 2 23 30
M  V30 30 1 23 31
M  V30 31 1 24 32
M  V30 32 1 31 33
M  V30 33 1 32 34
M  V30 34 1 32 35
M  V30 35 1 33 36
M  V30 36 1 36 37
M  V30 37 1 37 38
M  V30 38 1 37 39
M  V30 39 1 37 40
M  V30 40 1 9 13
M  V30 41 1 12 18
M  V30 42 1 16 19
M  V30 43 1 24 30
M  V30 44 1 6 41
M  V30 45 1 7 42
M  V30 46 1 9 43
M  V30 47 1 10 44
M  V30 48 1 12 45
M  V30 49 1 12 46
M  V30 50 1 13 47
M  V30 51 1 13 48
M  V30 52 1 14 49
M  V30 53 1 16 50
M  V30 54 1 22 51
M  V30 55 1 27 52
M  V30 56 1 27 53
M  V30 57 1 28 54
M  V30 58 1 28 55
M  V30 59 1 28 56
M  V30 60 1 29 57
M  V30 61 1 29 58
M  V30 62 1 29 59
M  V30 63 1 30 60
M  V30 64 1 31 61
M  V30 65 1 31 62
M  V30 66 1 33 63
M  V30 67 1 34 64
M  V30 68 1 34 65
M  V30 69 1 34 66
M  V30 70 1 35 67
M  V30 71 1 35 68
M  V30 72 1 35 69
M  V30 73 1 36 70
M  V30 74 1 36 71
M  V30 75 1 38 72
M  V30 76 1 38 73
M  V30 77 1 38 74
M  V30 78 1 39 75
M  V30 79 1 39 76
M  V30 80 1 39 77
M  V30 81 1 40 78
M  V30 82 1 40 79
M  V30 83 1 40 80
M  V30 END BOND
M  V30 BEGIN COLLECTION
M  V30 MDLV30/STEABS ATOMS=(4 4 6 9 16)
M  V30 END COLLECTION
M  V30 END CTAB
M  END
>  <Column 1>
3500

>  <level_0>
5745

>  <index>
5746

>  <Unnamed: 0>
5746

>  <NO.>
5758

>  <Name>
omadacycline

>  <IUPAC_name>
(4s-4as-5ar-12ar)-4-7-bis(dimethylamino)-9-[(2-2-dimethylpropylamino)methyl]-1-10-11-12a-tetrahydroxy-3-12-dioxo-4a-5-5a-6-tetrahydro-4h-tetracene-2-carboxamide

>  <SMILES>
CN(C)c1cc(CNCC(C)(C)C)c(O)c2c1C[C@H]1C[C@H]3[C@H](N(C)C)C(=O)C(C(N)=O)=C(O)[C@@]3(O)C(=O)C1=C2O

>  <CID>
54697325

>  <logBB>


>  <BBB+/BBB->
BBB-

>  <Inchi>
InChI=1S/C29H40N4O7/c1-28(2-3)12-31-11-14-10-17(32(4)5)15-8-13-9-16-21(33(6)7)24(36)20(27(30)39)26(38)29(16-40)25(37)18(13)23(35)19(15)22(14)34/h10-13-16-21-31-34-35-38-40H-8-9-11-12H2-1-7H3-(H2-30-39)/t13--16--21--29-/m0/s1

>  <threshold>


>  <reference>
R23|

>  <group>
C

>  <Class>
-1

>  <ABC>
31.45

>  <ABCGG>
25.27

>  <nAcid>
0

>  <nBase>
2

>  <nAromAtom>
6

>  <nAromBond>
6

>  <nAtom>
80

>  <nHeavyAtom>
40

>  <nSpiro>
0

>  <nBridgehead>
0

>  <nHetero>
11

>  <nN>
4

>  <nO>
7

>  <nF>
0

>  <BalabanJ>
1.67

>  <BertzCT>
1354.81

>  <nBonds>
83

>  <nBondsO>
43

>  <nBondsS>
72

>  <nBondsD>
5

>  <nBondsT>
0

>  <nBondsA>
6

>  <nBondsM>
11

>  <nBondsKS>
75

>  <nBondsKD>
8

>  <RNCG>
0.11

>  <RPCG>
0.07

>  <FCSP3>
0.55

>  <SZ>
49.67

>  <Sm>
46.35

>  <Sv>
47.87

>  <Sse>
80.72

>  <Sp>
50.97

>  <Si>
90.93

>  <MZ>
0.62

>  <Mm>
0.58

>  <Mv>
0.6

>  <Mse>
1.01

>  <Mp>
0.64

>  <Mi>
1.14

>  <NsCH3>
7

>  <NdCH2>
0

>  <NssCH2>
4

>  <NtCH>
0

>  <NdsCH>
0

>  <NaaCH>
1

>  <NsssCH>
3

>  <NddC>
0

>  <NtsC>
0

>  <NdssC>
7

>  <NaasC>
5

>  <NaaaC>
0

>  <NssssC>
2

>  <NsNH3>
0

>  <NsNH2>
1

>  <NssNH2>
0

>  <NdNH>
0

>  <NssNH>
1

>  <NaaNH>
0

>  <NtN>
0

>  <NsssNH>
0

>  <NdsN>
0

>  <NaaN>
0

>  <NsssN>
2

>  <NddsN>
0

>  <NaasN>
0

>  <NssssN>
0

>  <NsOH>
4

>  <NdO>
3

>  <NssO>
0

>  <NaaO>
0

>  <NsF>
0

>  <NsSiH3>
0

>  <NssSiH2>
0

>  <NsssSiH>
0

>  <NssssSi>
0

>  <NsPH2>
0

>  <NssPH>
0

>  <NsssP>
0

>  <NdsssP>
0

>  <NsssssP>
0

>  <NsSH>
0

>  <NdS>
0

>  <NssS>
0

>  <NaaS>
0

>  <NdssS>
0

>  <NddssS>
0

>  <NsCl>
0

>  <NsBr>
0

>  <NsI>
0

>  <fragCpx>
289.11

>  <fMF>
0.23

>  <nHBAcc>
10

>  <nHBDon>
6

>  <Kier1>
32.9

>  <Kier2>
11.83

>  <Lipinski>
0

>  <GhoseFilter>
0

>  <FilterItLogS>
-3.93

>  <VMcGowan>
422.64

>  <LabuteASA>
233.5

>  <PEOE_VSA1>
36.38

>  <PEOE_VSA2>
19.28

>  <PEOE_VSA3>
0

>  <PEOE_VSA4>
0

>  <PEOE_VSA5>
0

>  <PEOE_VSA6>
20.77

>  <PEOE_VSA7>
49.9

>  <PEOE_VSA8>
49.93

>  <PEOE_VSA9>
11.61

>  <PEOE_VSA10>
22.84

>  <PEOE_VSA11>
11.38

>  <PEOE_VSA12>
5.78

>  <PEOE_VSA13>
5.91

>  <SMR_VSA1>
34.81

>  <SMR_VSA2>
0

>  <SMR_VSA3>
10.22

>  <SMR_VSA4>
22.98

>  <SMR_VSA5>
51.8

>  <SMR_VSA6>
39.64

>  <SMR_VSA7>
39.66

>  <SMR_VSA8>
0

>  <SMR_VSA9>
5.75

>  <SlogP_VSA1>
15.95

>  <SlogP_VSA2>
89.18

>  <SlogP_VSA3>
27.35

>  <SlogP_VSA4>
17.25

>  <SlogP_VSA5>
43.88

>  <SlogP_VSA6>
22.97

>  <SlogP_VSA7>
0

>  <SlogP_VSA8>
5.76

>  <SlogP_VSA9>
0

>  <SlogP_VSA10>
5.69

>  <SlogP_VSA11>
5.75

>  <EState_VSA1>
58.04

>  <EState_VSA2>
35.14

>  <EState_VSA3>
24.22

>  <EState_VSA4>
5.69

>  <EState_VSA5>
4.9

>  <EState_VSA6>
14.1

>  <EState_VSA7>
25.06

>  <EState_VSA8>
26.09

>  <EState_VSA9>
5.73

>  <EState_VSA10>
34.81

>  <VSA_EState1>
0

>  <VSA_EState2>
42.77

>  <VSA_EState3>
48.98

>  <VSA_EState4>
3.73

>  <VSA_EState5>
-6.55

>  <VSA_EState6>
0.74

>  <VSA_EState7>
0.29

>  <VSA_EState8>
7.21

>  <VSA_EState9>
6.84

>  <apol>
85.12

>  <bpol>
46.15

>  <nRing>
4

>  <nHRing>
0

>  <naRing>
1

>  <naHRing>
0

>  <nARing 2>
3

>  <nAHRing 2>
0

>  <nFRing>
1

>  <nFHRing>
0

>  <nFaRing>
0

>  <nFaHRing>
0

>  <nFARing 2>
1

>  <nFAHRing 2>
0

>  <nRot>
6

>  <SLogP>
1.17

>  <SMR>
149.73

>  <TopoPSA(NO)>
176.66

>  <TopoPSA>
176.66

>  <JGI1>
0.27

>  <JGI2>
0.1

>  <JGI3>
0.07

>  <JGI4>
0.06

>  <JGI5>
0.04

>  <Diameter>
15

>  <Radius>
8

>  <TMWC10>
165.75

>  <TSRW10>
78.18

>  <MW>
556.29

>  <AMW>
6.95

>  <WPath>
4852

>  <WPol>
85

>  <Zagreb1>
224

>  <Zagreb2>
278

>  <mZagreb2>
8.38

>  <yes>


>  <nAR-cont>
0.691115

>  <nHA-cont>
0.308539627

>  <MWHBN>
0.678374253

>  <MWHBN-cont>
0

>  <TPSA-cont>
0

>  <pka_cont>
0.97

>  <yes.1>


>  <BBB_SCORE>
1.484654627

>  <MMFF94 Energy>
107.07

$$$$
Compound 2776
Actelion Java MolfileCreator 2.0

  0  0  0  0  0  0              0 V3000
M  V30 BEGIN CTAB
M  V30 COUNTS 58 60 0 0 0
M  V30 BEGIN ATOM
M  V30 1 N -5.1167 -0.7858 2.2016 0 CHG=1
M  V30 2 C -3.9323 -0.6024 1.6889 0
M  V30 3 C -5.7448 -2.1403 2.3092 0
M  V30 4 C -5.9488 0.3426 2.7261 0
M  V30 5 C -3.0565 -1.7437 1.265 0
M  V30 6 C -3.3509 0.7644 1.482 0
M  V30 7 C -1.8407 -1.5341 0.7406 0
M  V30 8 C -2.131 0.932 0.9521 0
M  V30 9 C -1.2849 -0.1925 0.5429 0
M  V30 10 C -0.0432 -2.0E-4 0.0053 0
M  V30 11 C 0.7948 -1.1574 -0.4034 0
M  V30 12 C 0.4987 1.3707 -0.1831 0
M  V30 13 C 0.7075 -1.6768 -1.6942 0
M  V30 14 C 1.6796 -1.7472 0.4982 0
M  V30 15 C 1.2318 1.9902 0.8281 0
M  V30 16 C 0.2796 2.0637 -1.3729 0
M  V30 17 C 1.4884 -2.7805 -2.0672 0
M  V30 18 C 2.454 -2.8504 0.1107 0
M  V30 19 C 1.7246 3.2911 0.6497 0
M  V30 20 C 0.7788 3.3642 -1.5367 0
M  V30 21 C 2.3842 -3.4036 -1.1802 0
M  V30 22 C 1.5146 4.0205 -0.534 0
M  V30 23 N 3.1507 -4.5009 -1.5553 0
M  V30 24 N 2.0013 5.3119 -0.7014 0
M  V30 25 C 3.1222 -5.0094 -2.9223 0
M  V30 26 C 4.1309 -5.0832 -0.6452 0
M  V30 27 C 1.8401 6.0211 -1.966 0
M  V30 28 C 2.8298 5.9444 0.3192 0
M  V30 29 H -5.6528 -2.6534 1.3482 0
M  V30 30 H -6.8087 -2.037 2.5399 0
M  V30 31 H -5.2408 -2.6877 3.1097 0
M  V30 32 H -6.7798 -0.0538 3.3158 0
M  V30 33 H -6.3327 0.9087 1.8737 0
M  V30 34 H -5.3331 0.9654 3.3809 0
M  V30 35 H -3.3871 -2.7687 1.3896 0
M  V30 36 H -3.9172 1.6507 1.7457 0
M  V30 37 H -1.2483 -2.402 0.4579 0
M  V30 38 H -1.765 1.9482 0.8199 0
M  V30 39 H 0.0382 -1.2323 -2.4262 0
M  V30 40 H 1.7826 -1.3587 1.5081 0
M  V30 41 H 1.4328 1.4733 1.7629 0
M  V30 42 H -0.2757 1.6053 -2.1869 0
M  V30 43 H 1.379 -3.138 -3.0871 0
M  V30 44 H 3.1271 -3.2647 0.8559 0
M  V30 45 H 2.291 3.7196 1.4719 0
M  V30 46 H 0.5785 3.8517 -2.4866 0
M  V30 47 H 2.1112 -5.3272 -3.2003 0
M  V30 48 H 3.7689 -5.8847 -3.0472 0
M  V30 49 H 3.4719 -4.2478 -3.6279 0
M  V30 50 H 4.9068 -4.3529 -0.3901 0
M  V30 51 H 4.6367 -5.9486 -1.0871 0
M  V30 52 H 3.6495 -5.4392 0.2723 0
M  V30 53 H 2.3496 5.4898 -2.7774 0
M  V30 54 H 2.2641 7.0305 -1.9265 0
M  V30 55 H 0.7799 6.1385 -2.2162 0
M  V30 56 H 2.2891 6.022 1.269 0
M  V30 57 H 3.1164 6.9643 0.0402 0
M  V30 58 H 3.7565 5.3804 0.4723 0
M  V30 END ATOM
M  V30 BEGIN BOND
M  V30 1 2 1 2
M  V30 2 1 1 3
M  V30 3 1 1 4
M  V30 4 1 2 5
M  V30 5 1 2 6
M  V30 6 2 5 7
M  V30 7 2 6 8
M  V30 8 1 7 9
M  V30 9 2 9 10
M  V30 10 1 10 11
M  V30 11 1 10 12
M  V30 12 2 11 13
M  V30 13 1 11 14
M  V30 14 2 12 15
M  V30 15 1 12 16
M  V30 16 1 13 17
M  V30 17 2 14 18
M  V30 18 1 15 19
M  V30 19 2 16 20
M  V30 20 2 17 21
M  V30 21 2 19 22
M  V30 22 1 21 23
M  V30 23 1 22 24
M  V30 24 1 23 25
M  V30 25 1 23 26
M  V30 26 1 24 27
M  V30 27 1 24 28
M  V30 28 1 8 9
M  V30 29 1 18 21
M  V30 30 1 20 22
M  V30 31 1 3 29
M  V30 32 1 3 30
M  V30 33 1 3 31
M  V30 34 1 4 32
M  V30 35 1 4 33
M  V30 36 1 4 34
M  V30 37 1 5 35
M  V30 38 1 6 36
M  V30 39 1 7 37
M  V30 40 1 8 38
M  V30 41 1 13 39
M  V30 42 1 14 40
M  V30 43 1 15 41
M  V30 44 1 16 42
M  V30 45 1 17 43
M  V30 46 1 18 44
M  V30 47 1 19 45
M  V30 48 1 20 46
M  V30 49 1 25 47
M  V30 50 1 25 48
M  V30 51 1 25 49
M  V30 52 1 26 50
M  V30 53 1 26 51
M  V30 54 1 26 52
M  V30 55 1 27 53
M  V30 56 1 27 54
M  V30 57 1 27 55
M  V30 58 1 28 56
M  V30 59 1 28 57
M  V30 60 1 28 58
M  V30 END BOND
M  V30 END CTAB
M  END
>  <Column 1>
3502

>  <level_0>
5747

>  <index>
5748

>  <Unnamed: 0>
5748

>  <NO.>
5760

>  <Name>
gentian violet

>  <IUPAC_name>
[4-[bis[4-(dimethylamino)phenyl]methylidene]cyclohexa-2-5-dien-1-ylidene]-dimethylazanium

>  <SMILES>
CN(C)c1ccc(C(=C2C=CC(=[N+](C)C)C=C2)c2ccc(N(C)C)cc2)cc1

>  <CID>
3468

>  <logBB>


>  <BBB+/BBB->
BBB-

>  <Inchi>
InChI=1S/C25H30N3/c1-26(2)22-13-7-19(8-14-22)25(20-9-15-23(16-10-20)27(3)4)21-11-17-24(18-12-21)28(5)6/h7-18H-1-6H3/q+1

>  <threshold>


>  <reference>
R23|

>  <group>
C

>  <Class>
-1

>  <ABC>
21.63

>  <ABCGG>
16.81

>  <nAcid>
0

>  <nBase>
1

>  <nAromAtom>
12

>  <nAromBond>
12

>  <nAtom>
58

>  <nHeavyAtom>
28

>  <nSpiro>
0

>  <nBridgehead>
0

>  <nHetero>
3

>  <nN>
3

>  <nO>
0

>  <nF>
0

>  <BalabanJ>
1.65

>  <BertzCT>
878.36

>  <nBonds>
60

>  <nBondsO>
30

>  <nBondsS>
44

>  <nBondsD>
4

>  <nBondsT>
0

>  <nBondsA>
12

>  <nBondsM>
16

>  <nBondsKS>
50

>  <nBondsKD>
10

>  <RNCG>
0.25

>  <RPCG>
0.08

>  <FCSP3>
0.24

>  <SZ>
33.5

>  <Sm>
31.02

>  <Sv>
35.4

>  <Sse>
56.81

>  <Sp>
38.95

>  <Si>
65.1

>  <MZ>
0.58

>  <Mm>
0.53

>  <Mv>
0.61

>  <Mse>
0.98

>  <Mp>
0.67

>  <Mi>
1.12

>  <NsCH3>
6

>  <NdCH2>
0

>  <NssCH2>
0

>  <NtCH>
0

>  <NdsCH>
4

>  <NaaCH>
8

>  <NsssCH>
0

>  <NddC>
0

>  <NtsC>
0

>  <NdssC>
3

>  <NaasC>
4

>  <NaaaC>
0

>  <NssssC>
0

>  <NsNH3>
0

>  <NsNH2>
0

>  <NssNH2>
0

>  <NdNH>
0

>  <NssNH>
0

>  <NaaNH>
0

>  <NtN>
0

>  <NsssNH>
0

>  <NdsN>
0

>  <NaaN>
0

>  <NsssN>
2

>  <NddsN>
0

>  <NaasN>
0

>  <NssssN>
0

>  <NsOH>
0

>  <NdO>
0

>  <NssO>
0

>  <NaaO>
0

>  <NsF>
0

>  <NsSiH3>
0

>  <NssSiH2>
0

>  <NsssSiH>
0

>  <NssssSi>
0

>  <NsPH2>
0

>  <NssPH>
0

>  <NsssP>
0

>  <NdsssP>
0

>  <NsssssP>
0

>  <NsSH>
0

>  <NdS>
0

>  <NssS>
0

>  <NaaS>
0

>  <NdssS>
0

>  <NddssS>
0

>  <NsCl>
0

>  <NsBr>
0

>  <NsI>
0

>  <fragCpx>
144.03

>  <fMF>
0.33

>  <nHBAcc>
2

>  <nHBDon>
0

>  <Kier1>
22.68

>  <Kier2>
10.35

>  <Lipinski>
1

>  <GhoseFilter>
1

>  <FilterItLogS>
-5.44

>  <VMcGowan>
319.62

>  <LabuteASA>
168.78

>  <PEOE_VSA1>
9.8

>  <PEOE_VSA2>
0

>  <PEOE_VSA3>
4.58

>  <PEOE_VSA4>
0

>  <PEOE_VSA5>
0

>  <PEOE_VSA6>
24.27

>  <PEOE_VSA7>
58.69

>  <PEOE_VSA8>
51.72

>  <PEOE_VSA9>
0

>  <PEOE_VSA10>
14.1

>  <PEOE_VSA11>
5.71

>  <PEOE_VSA12>
0

>  <PEOE_VSA13>
0

>  <SMR_VSA1>
4.58

>  <SMR_VSA2>
0

>  <SMR_VSA3>
0

>  <SMR_VSA4>
0

>  <SMR_VSA5>
0

>  <SMR_VSA6>
52.09

>  <SMR_VSA7>
89.54

>  <SMR_VSA8>
0

>  <SMR_VSA9>
0

>  <SlogP_VSA1>
9.8

>  <SlogP_VSA2>
52.57

>  <SlogP_VSA3>
0

>  <SlogP_VSA4>
0

>  <SlogP_VSA5>
11.13

>  <SlogP_VSA6>
78.41

>  <SlogP_VSA7>
0

>  <SlogP_VSA8>
5.57

>  <SlogP_VSA9>
0

>  <SlogP_VSA10>
11.37

>  <SlogP_VSA11>
0

>  <EState_VSA1>
0

>  <EState_VSA2>
0

>  <EState_VSA3>
0

>  <EState_VSA4>
0

>  <EState_VSA5>
39.36

>  <EState_VSA6>
0

>  <EState_VSA7>
0

>  <EState_VSA8>
129.5

>  <EState_VSA9>
0

>  <EState_VSA10>
0

>  <VSA_EState1>
2.13

>  <VSA_EState2>
4.25

>  <VSA_EState3>
0

>  <VSA_EState4>
8.53

>  <VSA_EState5>
0

>  <VSA_EState6>
17.56

>  <VSA_EState7>
8.78

>  <VSA_EState8>
0

>  <VSA_EState9>
12.41

>  <apol>
65.05

>  <bpol>
35.23

>  <nRing>
3

>  <nHRing>
0

>  <naRing>
2

>  <naHRing>
0

>  <nARing 2>
1

>  <nAHRing 2>
0

>  <nFRing>
0

>  <nFHRing>
0

>  <nFaRing>
0

>  <nFaHRing>
0

>  <nFARing 2>
0

>  <nFAHRing 2>
0

>  <nRot>
4

>  <SLogP>
4.46

>  <SMR>
122.96

>  <TopoPSA(NO)>
9.49

>  <TopoPSA>
9.49

>  <JGI1>
0.2

>  <JGI2>
0.1

>  <JGI3>
0.05

>  <JGI4>
0.03

>  <JGI5>
0.02

>  <Diameter>
12

>  <Radius>
6

>  <TMWC10>
133.96

>  <TSRW10>
63.24

>  <MW>
372.24

>  <AMW>
6.42

>  <WPath>
2088

>  <WPol>
45

>  <Zagreb1>
144

>  <Zagreb2>
168

>  <mZagreb2>
6.17

>  <yes>


>  <nAR-cont>
0.816016

>  <nHA-cont>
0.82432561

>  <MWHBN>
0.103661736

>  <MWHBN-cont>
0.750673156

>  <TPSA-cont>
0.933753907

>  <pka_cont>
0.97

>  <yes.1>


>  <BBB_SCORE>
5.118859159

>  <MMFF94 Energy>
100.32

$$$$
Compound 2777
Actelion Java MolfileCreator 2.0

  0  0  0  0  0  0              0 V3000
M  V30 BEGIN CTAB
M  V30 COUNTS 52 54 0 0 0
M  V30 BEGIN ATOM
M  V30 1 Cl -0.8808 1.6821 -4.0087 0
M  V30 2 C -0.5909 2.7338 -2.6654 0
M  V30 3 C -0.2294 2.2532 -1.3868 0
M  V30 4 C -0.7253 4.1036 -2.9138 0
M  V30 5 C -0.0031 3.2039 -0.3592 0
M  V30 6 C -0.058 0.7589 -1.148 0
M  V30 7 C -0.5044 5.0224 -1.8968 0
M  V30 8 N 0.3068 2.7714 0.9518 0
M  V30 9 C -0.15 4.5731 -0.6274 0
M  V30 10 N -1.3194 -0.01 -1.0925 0
M  V30 11 C 1.0662 3.4602 1.882 0
M  V30 12 C -1.0646 -1.458 -0.8867 0
M  V30 13 C -2.2344 0.4718 -0.0579 0
M  V30 14 O 1.5711 4.5669 1.7378 0
M  V30 15 C 1.2494 2.7585 3.1827 0
M  V30 16 C -0.3678 -2.1652 -2.0676 0
M  V30 17 C 1.4437 1.3723 3.252 0
M  V30 18 C 1.2525 3.5214 4.3565 0
M  V30 19 O -0.1017 -1.5975 -3.1267 0
M  V30 20 N -0.0415 -3.506 -1.8775 0
M  V30 21 C 1.6104 0.7546 4.4935 0
M  V30 22 C 1.4177 2.899 5.5945 0
M  V30 23 C -0.2989 -4.3023 -0.6731 0
M  V30 24 C 0.7083 -4.2187 -2.917 0
M  V30 25 C 1.5918 1.5169 5.6621 0
M  V30 26 C -0.865 -5.68 -1.0376 0
M  V30 27 C 0.0987 -5.5965 -3.1894 0
M  V30 28 O -0.0172 -6.3572 -1.9753 0
M  V30 29 H -1.0017 4.4579 -3.9039 0
M  V30 30 H 0.5254 0.5774 -0.2376 0
M  V30 31 H 0.594 0.3892 -1.9473 0
M  V30 32 H -0.6099 6.0872 -2.0868 0
M  V30 33 H -0.0804 1.8832 1.2333 0
M  V30 34 H -0.0046 5.3162 0.1532 0
M  V30 35 H -2.0275 -1.97 -0.7637 0
M  V30 36 H -0.4691 -1.6076 0.022 0
M  V30 37 H -3.166 -0.106 -0.0695 0
M  V30 38 H -1.8001 0.3929 0.9448 0
M  V30 39 H -2.5315 1.5108 -0.2319 0
M  V30 40 H 1.5031 0.7677 2.3519 0
M  V30 41 H 1.1264 4.6014 4.3067 0
M  V30 42 H 1.7702 -0.3193 4.5519 0
M  V30 43 H 1.4177 3.4939 6.5049 0
M  V30 44 H -0.9785 -3.7969 0.0151 0
M  V30 45 H 0.6685 -4.4193 -0.171 0
M  V30 46 H 1.7283 -4.3352 -2.5317 0
M  V30 47 H 0.7631 -3.643 -3.8455 0
M  V30 48 H 1.7276 1.0352 6.6279 0
M  V30 49 H -0.9366 -6.3031 -0.1407 0
M  V30 50 H -1.8706 -5.5909 -1.4657 0
M  V30 51 H -0.8927 -5.5059 -3.6487 0
M  V30 52 H 0.7377 -6.1599 -3.8762 0
M  V30 END ATOM
M  V30 BEGIN BOND
M  V30 1 1 1 2
M  V30 2 2 2 3
M  V30 3 1 2 4
M  V30 4 1 3 5
M  V30 5 1 3 6
M  V30 6 2 4 7
M  V30 7 1 5 8
M  V30 8 2 5 9
M  V30 9 1 6 10
M  V30 10 1 8 11
M  V30 11 1 10 12
M  V30 12 1 10 13
M  V30 13 2 11 14
M  V30 14 1 11 15
M  V30 15 1 12 16
M  V30 16 2 15 17
M  V30 17 1 15 18
M  V30 18 2 16 19
M  V30 19 1 16 20
M  V30 20 1 17 21
M  V30 21 2 18 22
M  V30 22 1 20 23
M  V30 23 1 20 24
M  V30 24 2 21 25
M  V30 25 1 23 26
M  V30 26 1 24 27
M  V30 27 1 26 28
M  V30 28 1 7 9
M  V30 29 1 22 25
M  V30 30 1 27 28
M  V30 31 1 4 29
M  V30 32 1 6 30
M  V30 33 1 6 31
M  V30 34 1 7 32
M  V30 35 1 8 33
M  V30 36 1 9 34
M  V30 37 1 12 35
M  V30 38 1 12 36
M  V30 39 1 13 37
M  V30 40 1 13 38
M  V30 41 1 13 39
M  V30 42 1 17 40
M  V30 43 1 18 41
M  V30 44 1 21 42
M  V30 45 1 22 43
M  V30 46 1 23 44
M  V30 47 1 23 45
M  V30 48 1 24 46
M  V30 49 1 24 47
M  V30 50 1 25 48
M  V30 51 1 26 49
M  V30 52 1 26 50
M  V30 53 1 27 51
M  V30 54 1 27 52
M  V30 END BOND
M  V30 END CTAB
M  END
>  <Column 1>
3503

>  <level_0>
5748

>  <index>
5749

>  <Unnamed: 0>
5749

>  <NO.>
5761

>  <Name>
fominoben

>  <IUPAC_name>
n-[3-chloro-2-[[methyl-(2-morpholin-4-yl-2-oxoethyl)amino]methyl]phenyl]benzamide

>  <SMILES>
CN(CC(=O)N1CCOCC1)Cc1c(Cl)cccc1NC(=O)c1ccccc1

>  <CID>
3407

>  <logBB>


>  <BBB+/BBB->
BBB-

>  <Inchi>
InChI=1S/C21H24ClN3O3/c1-24(15-20(26)25-10-12-28-13-11-25)14-17-18(22)8-5-9-19(17)23-21(27)16-6-3-2-4-7-16/h2-9H-10-15H2-1H3-(H-23-27)

>  <threshold>


>  <reference>
R23|

>  <group>
C

>  <Class>
-1

>  <ABC>
21.49

>  <ABCGG>
17.16

>  <nAcid>
0

>  <nBase>
1

>  <nAromAtom>
12

>  <nAromBond>
12

>  <nAtom>
52

>  <nHeavyAtom>
28

>  <nSpiro>
0

>  <nBridgehead>
0

>  <nHetero>
7

>  <nN>
3

>  <nO>
3

>  <nF>
0

>  <BalabanJ>
1.51

>  <BertzCT>
822.9

>  <nBonds>
54

>  <nBondsO>
30

>  <nBondsS>
40

>  <nBondsD>
2

>  <nBondsT>
0

>  <nBondsA>
12

>  <nBondsM>
14

>  <nBondsKS>
46

>  <nBondsKD>
8

>  <RNCG>
0.16

>  <RPCG>
0.11

>  <FCSP3>
0.33

>  <SZ>
35.33

>  <Sm>
33.46

>  <Sv>
33.01

>  <Sse>
52.4

>  <Sp>
35.3

>  <Si>
58.64

>  <MZ>
0.68

>  <Mm>
0.64

>  <Mv>
0.63

>  <Mse>
1.01

>  <Mp>
0.68

>  <Mi>
1.13

>  <NsCH3>
1

>  <NdCH2>
0

>  <NssCH2>
6

>  <NtCH>
0

>  <NdsCH>
0

>  <NaaCH>
8

>  <NsssCH>
0

>  <NddC>
0

>  <NtsC>
0

>  <NdssC>
2

>  <NaasC>
4

>  <NaaaC>
0

>  <NssssC>
0

>  <NsNH3>
0

>  <NsNH2>
0

>  <NssNH2>
0

>  <NdNH>
0

>  <NssNH>
1

>  <NaaNH>
0

>  <NtN>
0

>  <NsssNH>
0

>  <NdsN>
0

>  <NaaN>
0

>  <NsssN>
2

>  <NddsN>
0

>  <NaasN>
0

>  <NssssN>
0

>  <NsOH>
0

>  <NdO>
2

>  <NssO>
1

>  <NaaO>
0

>  <NsF>
0

>  <NsSiH3>
0

>  <NssSiH2>
0

>  <NsssSiH>
0

>  <NssssSi>
0

>  <NsPH2>
0

>  <NssPH>
0

>  <NsssP>
0

>  <NdsssP>
0

>  <NsssssP>
0

>  <NsSH>
0

>  <NdS>
0

>  <NssS>
0

>  <NaaS>
0

>  <NdssS>
0

>  <NddssS>
0

>  <NsCl>
1

>  <NsBr>
0

>  <NsI>
0

>  <fragCpx>
144.07

>  <fMF>
0.46

>  <nHBAcc>
4

>  <nHBDon>
1

>  <Kier1>
22.68

>  <Kier2>
11.41

>  <Lipinski>
1

>  <GhoseFilter>
1

>  <FilterItLogS>
-4.91

>  <VMcGowan>
299.56

>  <LabuteASA>
169.58

>  <PEOE_VSA1>
14.95

>  <PEOE_VSA2>
14.49

>  <PEOE_VSA3>
0

>  <PEOE_VSA4>
0

>  <PEOE_VSA5>
0

>  <PEOE_VSA6>
35.87

>  <PEOE_VSA7>
31.31

>  <PEOE_VSA8>
41.47

>  <PEOE_VSA9>
19.76

>  <PEOE_VSA10>
0

>  <PEOE_VSA11>
0

>  <PEOE_VSA12>
5.91

>  <PEOE_VSA13>
5.91

>  <SMR_VSA1>
14.33

>  <SMR_VSA2>
0

>  <SMR_VSA3>
9.8

>  <SMR_VSA4>
0

>  <SMR_VSA5>
6.54

>  <SMR_VSA6>
45.21

>  <SMR_VSA7>
64.68

>  <SMR_VSA8>
0

>  <SMR_VSA9>
0

>  <SlogP_VSA1>
5.32

>  <SlogP_VSA2>
61.51

>  <SlogP_VSA3>
16.08

>  <SlogP_VSA4>
0

>  <SlogP_VSA5>
15.92

>  <SlogP_VSA6>
48.53

>  <SlogP_VSA7>
5.02

>  <SlogP_VSA8>
0

>  <SlogP_VSA9>
0

>  <SlogP_VSA10>
5.69

>  <SlogP_VSA11>
0

>  <EState_VSA1>
0

>  <EState_VSA2>
18.36

>  <EState_VSA3>
49.12

>  <EState_VSA4>
5.56

>  <EState_VSA5>
0

>  <EState_VSA6>
24.27

>  <EState_VSA7>
41.11

>  <EState_VSA8>
5.32

>  <EState_VSA9>
16.34

>  <EState_VSA10>
9.59

>  <VSA_EState1>
5.29

>  <VSA_EState2>
28.67

>  <VSA_EState3>
3.48

>  <VSA_EState4>
2

>  <VSA_EState5>
-0.14

>  <VSA_EState6>
14.41

>  <VSA_EState7>
0

>  <VSA_EState8>
3.12

>  <VSA_EState9>
1.87

>  <apol>
58.96

>  <bpol>
32.05

>  <nRing>
3

>  <nHRing>
1

>  <naRing>
2

>  <naHRing>
0

>  <nARing 2>
1

>  <nAHRing 2>
1

>  <nFRing>
0

>  <nFHRing>
0

>  <nFaRing>
0

>  <nFaHRing>
0

>  <nFARing 2>
0

>  <nFAHRing 2>
0

>  <nRot>
6

>  <SLogP>
2.88

>  <SMR>
109.58

>  <TopoPSA(NO)>
61.88

>  <TopoPSA>
61.88

>  <JGI1>
0.17

>  <JGI2>
0.08

>  <JGI3>
0.04

>  <JGI4>
0.04

>  <JGI5>
0.02

>  <Diameter>
15

>  <Radius>
8

>  <TMWC10>
132.86

>  <TSRW10>
62.89

>  <MW>
401.15

>  <AMW>
7.71

>  <WPath>
2226

>  <WPol>
41

>  <Zagreb1>
140

>  <Zagreb2>
160

>  <mZagreb2>
6.28

>  <yes>


>  <nAR-cont>
0.816016

>  <nHA-cont>
0.82432561

>  <MWHBN>
0.249641398

>  <MWHBN-cont>
0.960377818

>  <TPSA-cont>
0.568039175

>  <pka_cont>
0.97

>  <yes.1>


>  <BBB_SCORE>
4.701986687

>  <MMFF94 Energy>
123.54

$$$$
Compound 2778
Actelion Java MolfileCreator 2.0

  0  0  0  0  0  0              0 V3000
M  V30 BEGIN CTAB
M  V30 COUNTS 57 61 0 0 0
M  V30 BEGIN ATOM
M  V30 1 F 5.4384 4.9577 3.0363 0
M  V30 2 C 4.8534 4.0112 2.2907 0
M  V30 3 C 3.4688 3.9785 2.188 0
M  V30 4 C 5.6416 3.0794 1.6268 0
M  V30 5 C 2.8595 2.9942 1.4088 0
M  V30 6 C 5.0352 2.0928 0.8474 0
M  V30 7 C 3.6357 2.033 0.7378 0
M  V30 8 C 2.9826 0.9754 -0.1257 0
M  V30 9 N 2.0129 0.1754 0.6045 0
M  V30 10 C 0.6373 0.2309 0.4903 0
M  V30 11 C 2.3215 -0.7302 1.5995 0
M  V30 12 N 0.0671 -0.4694 1.4442 0
M  V30 13 N -2.0E-4 0.9831 -0.4473 0
M  V30 14 C 1.0827 -1.0995 2.1111 0
M  V30 15 C 3.5274 -1.2272 2.1107 0
M  V30 16 C -1.2819 1.5852 -0.0587 0
M  V30 17 C 0.1199 0.6135 -1.8615 0
M  V30 18 C 1.0181 -2.0067 3.1791 0
M  V30 19 C 3.4436 -2.1346 3.1735 0
M  V30 20 C -2.4573 0.69 -0.4484 0
M  V30 21 C -1.0303 -0.2959 -2.2918 0
M  V30 22 C 2.2106 -2.5202 3.7015 0
M  V30 23 C -2.3707 0.3539 -1.9399 0
M  V30 24 N -3.5322 -0.4332 -2.4233 0
M  V30 25 C -3.8652 -1.6685 -1.8837 0
M  V30 26 C -4.3128 0.1951 -3.4835 0
M  V30 27 N -3.0604 -2.3206 -1.1001 0
M  V30 28 N -5.0933 -2.2016 -2.1987 0
M  V30 29 C -3.4541 -3.5299 -0.6008 0
M  V30 30 C -5.5435 -3.4034 -1.7371 0
M  V30 31 C -4.6211 -4.1219 -0.8563 0
M  V30 32 O -6.6424 -3.8607 -2.0296 0
M  V30 33 H 2.8719 4.7158 2.7153 0
M  V30 34 H 6.7216 3.1281 1.7208 0
M  V30 35 H 1.7729 2.9758 1.3344 0
M  V30 36 H 5.6633 1.3706 0.3305 0
M  V30 37 H 3.7219 0.2773 -0.5355 0
M  V30 38 H 2.5032 1.4716 -0.9728 0
M  V30 39 H 4.4896 -0.9252 1.7137 0
M  V30 40 H -1.3757 2.5536 -0.5666 0
M  V30 41 H -1.3133 1.8054 1.0159 0
M  V30 42 H 1.0688 0.1083 -2.0756 0
M  V30 43 H 0.1125 1.5301 -2.4644 0
M  V30 44 H 0.0551 -2.2979 3.5829 0
M  V30 45 H 4.3579 -2.5426 3.5994 0
M  V30 46 H -3.4008 1.2043 -0.2305 0
M  V30 47 H -2.4426 -0.2149 0.1671 0
M  V30 48 H -0.9154 -1.2668 -1.7992 0
M  V30 49 H -0.9704 -0.4803 -3.3709 0
M  V30 50 H 2.1722 -3.2242 4.529 0
M  V30 51 H -2.3869 1.3222 -2.4603 0
M  V30 52 H -4.5821 -0.5344 -4.2548 0
M  V30 53 H -3.7605 0.9901 -3.9957 0
M  V30 54 H -5.2276 0.6307 -3.0692 0
M  V30 55 H -5.7378 -1.7033 -2.7835 0
M  V30 56 H -2.7337 -4.0152 0.0524 0
M  V30 57 H -4.9168 -5.0776 -0.4522 0
M  V30 END ATOM
M  V30 BEGIN BOND
M  V30 1 1 1 2
M  V30 2 2 2 3
M  V30 3 1 2 4
M  V30 4 1 3 5
M  V30 5 2 4 6
M  V30 6 2 5 7
M  V30 7 1 7 8
M  V30 8 1 8 9
M  V30 9 1 9 10
M  V30 10 1 9 11
M  V30 11 2 10 12
M  V30 12 1 10 13
M  V30 13 2 11 14
M  V30 14 1 11 15
M  V30 15 1 13 16
M  V30 16 1 13 17
M  V30 17 1 14 18
M  V30 18 2 15 19
M  V30 19 1 16 20
M  V30 20 1 17 21
M  V30 21 2 18 22
M  V30 22 1 20 23
M  V30 23 1 23 24
M  V30 24 1 24 25
M  V30 25 1 24 26
M  V30 26 2 25 27
M  V30 27 1 25 28
M  V30 28 1 27 29
M  V30 29 1 28 30
M  V30 30 2 29 31
M  V30 31 2 30 32
M  V30 32 1 6 7
M  V30 33 1 12 14
M  V30 34 1 19 22
M  V30 35 1 21 23
M  V30 36 1 30 31
M  V30 37 1 3 33
M  V30 38 1 4 34
M  V30 39 1 5 35
M  V30 40 1 6 36
M  V30 41 1 8 37
M  V30 42 1 8 38
M  V30 43 1 15 39
M  V30 44 1 16 40
M  V30 45 1 16 41
M  V30 46 1 17 42
M  V30 47 1 17 43
M  V30 48 1 18 44
M  V30 49 1 19 45
M  V30 50 1 20 46
M  V30 51 1 20 47
M  V30 52 1 21 48
M  V30 53 1 21 49
M  V30 54 1 22 50
M  V30 55 1 23 51
M  V30 56 1 26 52
M  V30 57 1 26 53
M  V30 58 1 26 54
M  V30 59 1 28 55
M  V30 60 1 29 56
M  V30 61 1 31 57
M  V30 END BOND
M  V30 END CTAB
M  END
>  <Column 1>
3505

>  <level_0>
5750

>  <index>
5751

>  <Unnamed: 0>
5751

>  <NO.>
5763

>  <Name>
mizolastine

>  <IUPAC_name>
2-[[1-[1-[(4-fluorophenyl)methyl]benzimidazol-2-yl]piperidin-4-yl]-methylamino]-1h-pyrimidin-6-one

>  <SMILES>
CN(c1nccc(=O)[nH]1)C1CCN(c2nc3ccccc3n2Cc2ccc(F)cc2)CC1

>  <CID>
65906

>  <logBB>


>  <BBB+/BBB->
BBB-

>  <Inchi>
InChI=1S/C24H25FN6O/c1-29(23-26-13-10-22(32)28-23)19-11-14-30(15-12-19)24-27-20-4-2-3-5-21(20)31(24)16-17-6-8-18(25)9-7-17/h2-10-13-19H-11-12-14-16H2-1H3-(H-26-28-32)

>  <threshold>


>  <reference>
R23|

>  <group>
C

>  <Class>
1

>  <ABC>
25.54

>  <ABCGG>
18.58

>  <nAcid>
0

>  <nBase>
0

>  <nAromAtom>
21

>  <nAromBond>
22

>  <nAtom>
57

>  <nHeavyAtom>
32

>  <nSpiro>
0

>  <nBridgehead>
0

>  <nHetero>
8

>  <nN>
6

>  <nO>
1

>  <nF>
1

>  <BalabanJ>
1.19

>  <BertzCT>
1273.64

>  <nBonds>
61

>  <nBondsO>
36

>  <nBondsS>
38

>  <nBondsD>
1

>  <nBondsT>
0

>  <nBondsA>
22

>  <nBondsM>
23

>  <nBondsKS>
51

>  <nBondsKD>
10

>  <RNCG>
0.13

>  <RPCG>
0.1

>  <FCSP3>
0.29

>  <SZ>
38

>  <Sm>
36.01

>  <Sv>
36.68

>  <Sse>
57.36

>  <Sp>
38.75

>  <Si>
64.69

>  <MZ>
0.67

>  <Mm>
0.63

>  <Mv>
0.64

>  <Mse>
1.01

>  <Mp>
0.68

>  <Mi>
1.13

>  <NsCH3>
1

>  <NdCH2>
0

>  <NssCH2>
5

>  <NtCH>
0

>  <NdsCH>
0

>  <NaaCH>
10

>  <NsssCH>
1

>  <NddC>
0

>  <NtsC>
0

>  <NdssC>
0

>  <NaasC>
4

>  <NaaaC>
2

>  <NssssC>
0

>  <NsNH3>
0

>  <NsNH2>
0

>  <NssNH2>
0

>  <NdNH>
0

>  <NssNH>
0

>  <NaaNH>
1

>  <NtN>
0

>  <NsssNH>
0

>  <NdsN>
0

>  <NaaN>
2

>  <NsssN>
2

>  <NddsN>
0

>  <NaasN>
1

>  <NssssN>
0

>  <NsOH>
0

>  <NdO>
1

>  <NssO>
0

>  <NaaO>
0

>  <NsF>
1

>  <NsSiH3>
0

>  <NssSiH2>
0

>  <NsssSiH>
0

>  <NssssSi>
0

>  <NsPH2>
0

>  <NssPH>
0

>  <NsssP>
0

>  <NdsssP>
0

>  <NsssssP>
0

>  <NsSH>
0

>  <NdS>
0

>  <NssS>
0

>  <NaaS>
0

>  <NdssS>
0

>  <NddssS>
0

>  <NsCl>
0

>  <NsBr>
0

>  <NsI>
0

>  <fragCpx>
304.08

>  <fMF>
0.51

>  <nHBAcc>
6

>  <nHBDon>
1

>  <Kier1>
23.73

>  <Kier2>
10.73

>  <Lipinski>
1

>  <GhoseFilter>
1

>  <FilterItLogS>
-5.56

>  <VMcGowan>
319.23

>  <LabuteASA>
184.7

>  <PEOE_VSA1>
14.37

>  <PEOE_VSA2>
9.78

>  <PEOE_VSA3>
14.36

>  <PEOE_VSA4>
0

>  <PEOE_VSA5>
0

>  <PEOE_VSA6>
24.27

>  <PEOE_VSA7>
42.67

>  <PEOE_VSA8>
38.44

>  <PEOE_VSA9>
17.58

>  <PEOE_VSA10>
5.82

>  <PEOE_VSA11>
0

>  <PEOE_VSA12>
11.9

>  <PEOE_VSA13>
5.56

>  <SMR_VSA1>
4.39

>  <SMR_VSA2>
0

>  <SMR_VSA3>
19.52

>  <SMR_VSA4>
0

>  <SMR_VSA5>
25.43

>  <SMR_VSA6>
29.94

>  <SMR_VSA7>
82.53

>  <SMR_VSA8>
0

>  <SMR_VSA9>
0

>  <SlogP_VSA1>
15.36

>  <SlogP_VSA2>
45.7

>  <SlogP_VSA3>
6.54

>  <SlogP_VSA4>
5.82

>  <SlogP_VSA5>
18.41

>  <SlogP_VSA6>
65.59

>  <SlogP_VSA7>
0

>  <SlogP_VSA8>
11.03

>  <SlogP_VSA9>
0

>  <SlogP_VSA10>
16.29

>  <SlogP_VSA11>
0

>  <EState_VSA1>
0

>  <EState_VSA2>
17.42

>  <EState_VSA3>
12.49

>  <EState_VSA4>
48.48

>  <EState_VSA5>
24.4

>  <EState_VSA6>
0

>  <EState_VSA7>
37.38

>  <EState_VSA8>
30.4

>  <EState_VSA9>
4.98

>  <EState_VSA10>
9.18

>  <VSA_EState1>
15.59

>  <VSA_EState2>
28.05

>  <VSA_EState3>
0

>  <VSA_EState4>
2.91

>  <VSA_EState5>
1.3

>  <VSA_EState6>
16.46

>  <VSA_EState7>
3.39

>  <VSA_EState8>
2.32

>  <VSA_EState9>
1.97

>  <apol>
64.71

>  <bpol>
35.04

>  <nRing>
5

>  <nHRing>
3

>  <naRing>
4

>  <naHRing>
2

>  <nARing 2>
1

>  <nAHRing 2>
1

>  <nFRing>
1

>  <nFHRing>
1

>  <nFaRing>
1

>  <nFaHRing>
1

>  <nFARing 2>
0

>  <nFAHRing 2>
0

>  <nRot>
5

>  <SLogP>
3.41

>  <SMR>
123.73

>  <TopoPSA(NO)>
70.05

>  <TopoPSA>
70.05

>  <JGI1>
0.17

>  <JGI2>
0.07

>  <JGI3>
0.05

>  <JGI4>
0.04

>  <JGI5>
0.02

>  <Diameter>
16

>  <Radius>
8

>  <TMWC10>
146.31

>  <TSRW10>
82.55

>  <MW>
432.21

>  <AMW>
7.58

>  <WPath>
3107

>  <WPol>
52

>  <Zagreb1>
174

>  <Zagreb2>
207

>  <mZagreb2>
6.92

>  <yes>


>  <nAR-cont>
0.816016

>  <nHA-cont>
0.658856097

>  <MWHBN>
0.336705829

>  <MWHBN-cont>
0.719036655

>  <TPSA-cont>
0.511007502

>  <pka_cont>
0.97

>  <yes.1>


>  <BBB_SCORE>
4.060442081

>  <MMFF94 Energy>
-85.316

$$$$
Compound 2779
Actelion Java MolfileCreator 2.0

  0  0  0  0  0  0              0 V3000
M  V30 BEGIN CTAB
M  V30 COUNTS 78 85 0 0 0
M  V30 BEGIN ATOM
M  V30 1 O -4.2892 1.4551 -3.6409 0
M  V30 2 C -3.2687 1.9335 -3.1467 0
M  V30 3 N -3.3326 2.8368 -2.1043 0
M  V30 4 C -1.8486 1.6642 -3.7336 0
M  V30 5 C -2.1518 3.4434 -1.4917 0
M  V30 6 C -4.5505 3.1757 -1.3984 0
M  V30 7 N -0.7317 2.0435 -2.8616 0
M  V30 8 C -1.7332 0.2335 -4.3041 0
M  V30 9 C -0.9386 2.4945 -1.5293 0
M  V30 10 C -2.6531 3.8638 -0.1094 0
M  V30 11 C -4.1122 4.2306 -0.3887 0
M  V30 12 C 0.5963 2.1022 -3.1915 0
M  V30 13 C -1.4605 -0.8524 -3.2867 0
M  V30 14 O 0.2605 3.145 -1.1511 0
M  V30 15 O -1.1144 1.3599 -0.7149 0
M  V30 16 O 1.099 1.7562 -4.2484 0
M  V30 17 C 1.3259 2.5645 -1.9221 0
M  V30 18 C -0.175 -1.4038 -3.1711 0
M  V30 19 C -2.4797 -1.3301 -2.4534 0
M  V30 20 N 1.847 1.403 -1.2318 0
M  V30 21 C 2.3773 3.6118 -2.2494 0
M  V30 22 C 0.0878 -2.4018 -2.2323 0
M  V30 23 C -2.2144 -2.3286 -1.5149 0
M  V30 24 C 2.4127 1.439 0.0216 0
M  V30 25 C -0.9317 -2.8617 -1.4024 0
M  V30 26 O 2.5859 2.4781 0.6502 0
M  V30 27 C 2.774 0.0499 0.563 0
M  V30 28 C 1.5128 -0.6809 0.952 0
M  V30 29 C 3.7326 0.1796 1.7582 0
M  V30 30 C 1.4466 -1.4231 2.0729 0
M  V30 31 N 3.9574 -1.1291 2.4066 0
M  V30 32 C 0.1849 -2.0943 2.4639 0
M  V30 33 C 2.6833 -1.6426 3.0022 0
M  V30 34 C 5.0104 -0.9928 3.4172 0
M  V30 35 C 0.3615 -3.1981 3.3079 0
M  V30 36 C -1.1283 -1.7629 2.1096 0
M  V30 37 C 2.8627 -3.1477 3.4388 0
M  V30 38 C -0.7095 -3.9393 3.7778 0
M  V30 39 C 1.5548 -3.7548 3.8153 0
M  V30 40 C -2.2098 -2.5176 2.5866 0
M  V30 41 N -0.1715 -4.9333 4.5668 0
M  V30 42 C -2.0251 -3.6233 3.432 0
M  V30 43 C 1.2032 -4.8313 4.5959 0
M  V30 44 H -1.7798 2.347 -4.5926 0
M  V30 45 H -1.9287 4.3457 -2.0784 0
M  V30 46 H -5.313 3.5357 -2.0951 0
M  V30 47 H -4.9194 2.2706 -0.904 0
M  V30 48 H -2.6381 -0.0356 -4.8639 0
M  V30 49 H -0.9287 0.2176 -5.0512 0
M  V30 50 H -2.0815 4.6976 0.3076 0
M  V30 51 H -2.6232 3.0337 0.6049 0
M  V30 52 H -4.7317 4.2335 0.5121 0
M  V30 53 H -4.1615 5.2278 -0.8425 0
M  V30 54 H -0.9376 1.6792 0.1853 0
M  V30 55 H 0.6278 -1.0617 -3.8213 0
M  V30 56 H -3.4903 -0.9347 -2.5326 0
M  V30 57 H 1.6953 0.5019 -1.6709 0
M  V30 58 H 2.778 4.0797 -1.3447 0
M  V30 59 H 1.9452 4.4208 -2.8499 0
M  V30 60 H 3.2111 3.1799 -2.8128 0
M  V30 61 H 1.085 -2.8256 -2.1491 0
M  V30 62 H -3.0101 -2.6931 -0.8709 0
M  V30 63 H -0.7275 -3.6357 -0.6663 0
M  V30 64 H 3.2658 -0.5106 -0.2429 0
M  V30 65 H 0.6564 -0.5947 0.2896 0
M  V30 66 H 3.359 0.9067 2.4935 0
M  V30 67 H 4.6845 0.5771 1.3814 0
M  V30 68 H 2.4633 -1.0584 3.9102 0
M  V30 69 H 5.9248 -0.5902 2.9663 0
M  V30 70 H 4.7145 -0.3289 4.2374 0
M  V30 71 H 5.2902 -1.9635 3.8368 0
M  V30 72 H -1.3274 -0.9157 1.4591 0
M  V30 73 H 3.547 -3.2196 4.2913 0
M  V30 74 H 3.2937 -3.7263 2.6117 0
M  V30 75 H -3.2198 -2.2386 2.2928 0
M  V30 76 H -0.7113 -5.6386 5.0485 0
M  V30 77 H -2.8687 -4.2001 3.7946 0
M  V30 78 H 1.7968 -5.536 5.1624 0
M  V30 END ATOM
M  V30 BEGIN BOND
M  V30 1 2 1 2
M  V30 2 1 2 3
M  V30 3 1 2 4
M  V30 4 1 3 5
M  V30 5 1 3 6
M  V30 6 1 4 7
M  V30 7 1 4 8
M  V30 8 1 5 9
M  V30 9 1 5 10
M  V30 10 1 6 11
M  V30 11 1 7 12
M  V30 12 1 8 13
M  V30 13 1 9 14
M  V30 14 1 9 15
M  V30 15 2 12 16
M  V30 16 1 12 17
M  V30 17 2 13 18
M  V30 18 1 13 19
M  V30 19 1 17 20
M  V30 20 1 17 21
M  V30 21 1 18 22
M  V30 22 2 19 23
M  V30 23 1 20 24
M  V30 24 2 22 25
M  V30 25 2 24 26
M  V30 26 1 24 27
M  V30 27 1 27 28
M  V30 28 1 27 29
M  V30 29 2 28 30
M  V30 30 1 29 31
M  V30 31 1 30 32
M  V30 32 1 30 33
M  V30 33 1 31 34
M  V30 34 2 32 35
M  V30 35 1 32 36
M  V30 36 1 33 37
M  V30 37 1 35 38
M  V30 38 1 35 39
M  V30 39 2 36 40
M  V30 40 1 38 41
M  V30 41 2 38 42
M  V30 42 2 39 43
M  V30 43 1 7 9
M  V30 44 1 10 11
M  V30 45 1 14 17
M  V30 46 1 23 25
M  V30 47 1 31 33
M  V30 48 1 37 39
M  V30 49 1 40 42
M  V30 50 1 41 43
M  V30 51 1 4 44
M  V30 52 1 5 45
M  V30 53 1 6 46
M  V30 54 1 6 47
M  V30 55 1 8 48
M  V30 56 1 8 49
M  V30 57 1 10 50
M  V30 58 1 10 51
M  V30 59 1 11 52
M  V30 60 1 11 53
M  V30 61 1 15 54
M  V30 62 1 18 55
M  V30 63 1 19 56
M  V30 64 1 20 57
M  V30 65 1 21 58
M  V30 66 1 21 59
M  V30 67 1 21 60
M  V30 68 1 22 61
M  V30 69 1 23 62
M  V30 70 1 25 63
M  V30 71 1 27 64
M  V30 72 1 28 65
M  V30 73 1 29 66
M  V30 74 1 29 67
M  V30 75 1 33 68
M  V30 76 1 34 69
M  V30 77 1 34 70
M  V30 78 1 34 71
M  V30 79 1 36 72
M  V30 80 1 37 73
M  V30 81 1 37 74
M  V30 82 1 40 75
M  V30 83 1 41 76
M  V30 84 1 42 77
M  V30 85 1 43 78
M  V30 END BOND
M  V30 END CTAB
M  END
>  <Column 1>
3506

>  <level_0>
5751

>  <index>
5752

>  <Unnamed: 0>
5752

>  <NO.>
5764

>  <Name>
ergotamine

>  <IUPAC_name>
n-(7-benzyl-2-hydroxy-4-methyl-5-8-dioxo-3-oxa-6-9-diazatricyclo[7.3.0.02-6]dodecan-4-yl)-7-methyl-6-6a-8-9-tetrahydro-4h-indolo[4-3-fg]quinoline-9-carboxamide

>  <SMILES>
CN1CC(C(=O)NC2(C)OC3(O)C4CCCN4C(=O)C(Cc4ccccc4)N3C2=O)C=C2c3cccc4[nH]cc(c34)CC21

>  <CID>
3251

>  <logBB>


>  <BBB+/BBB->
BBB+

>  <Inchi>
InChI=1S/C33H35N5O5/c1-32(35-29(39)21-15-23-22-10-6-11-24-28(22)20(17-34-24)16-25(23)36(2)18-21)31(41)38-26(14-19-8-4-3-5-9-19)30(40)37-13-7-12-27(37)33(38-42)43-32/h3-6-8-11-15-17-21-25-27-34-42H-7-12-14-16-18H2-1-2H3-(H-35-39)

>  <threshold>


>  <reference>
R23|

>  <group>
C

>  <Class>
-1

>  <ABC>
35.44

>  <ABCGG>
26.29

>  <nAcid>
0

>  <nBase>
1

>  <nAromAtom>
15

>  <nAromBond>
16

>  <nAtom>
78

>  <nHeavyAtom>
43

>  <nSpiro>
0

>  <nBridgehead>
0

>  <nHetero>
10

>  <nN>
5

>  <nO>
5

>  <nF>
0

>  <BalabanJ>
1.02

>  <BertzCT>
1701.85

>  <nBonds>
85

>  <nBondsO>
50

>  <nBondsS>
65

>  <nBondsD>
4

>  <nBondsT>
0

>  <nBondsA>
16

>  <nBondsM>
20

>  <nBondsKS>
74

>  <nBondsKD>
11

>  <RNCG>
0.1

>  <RPCG>
0.07

>  <FCSP3>
0.42

>  <SZ>
51.33

>  <Sm>
48.43

>  <Sv>
49.85

>  <Sse>
78.51

>  <Sp>
52.67

>  <Si>
87.77

>  <MZ>
0.66

>  <Mm>
0.62

>  <Mv>
0.64

>  <Mse>
1.01

>  <Mp>
0.68

>  <Mi>
1.13

>  <NsCH3>
2

>  <NdCH2>
0

>  <NssCH2>
6

>  <NtCH>
0

>  <NdsCH>
1

>  <NaaCH>
9

>  <NsssCH>
4

>  <NddC>
0

>  <NtsC>
0

>  <NdssC>
4

>  <NaasC>
3

>  <NaaaC>
2

>  <NssssC>
2

>  <NsNH3>
0

>  <NsNH2>
0

>  <NssNH2>
0

>  <NdNH>
0

>  <NssNH>
1

>  <NaaNH>
1

>  <NtN>
0

>  <NsssNH>
0

>  <NdsN>
0

>  <NaaN>
0

>  <NsssN>
3

>  <NddsN>
0

>  <NaasN>
0

>  <NssssN>
0

>  <NsOH>
1

>  <NdO>
3

>  <NssO>
1

>  <NaaO>
0

>  <NsF>
0

>  <NsSiH3>
0

>  <NssSiH2>
0

>  <NsssSiH>
0

>  <NssssSi>
0

>  <NsPH2>
0

>  <NssPH>
0

>  <NsssP>
0

>  <NdsssP>
0

>  <NsssssP>
0

>  <NsSH>
0

>  <NdS>
0

>  <NssS>
0

>  <NaaS>
0

>  <NdssS>
0

>  <NddssS>
0

>  <NsCl>
0

>  <NsBr>
0

>  <NsI>
0

>  <fragCpx>
694.1

>  <fMF>
0.47

>  <nHBAcc>
6

>  <nHBDon>
3

>  <Kier1>
30.34

>  <Kier2>
11.31

>  <Lipinski>
0

>  <GhoseFilter>
0

>  <FilterItLogS>
-5.25

>  <VMcGowan>
420.9

>  <LabuteASA>
248.82

>  <PEOE_VSA1>
20.31

>  <PEOE_VSA2>
28.92

>  <PEOE_VSA3>
0

>  <PEOE_VSA4>
0

>  <PEOE_VSA5>
0

>  <PEOE_VSA6>
48.54

>  <PEOE_VSA7>
61.56

>  <PEOE_VSA8>
42.65

>  <PEOE_VSA9>
5.92

>  <PEOE_VSA10>
12.08

>  <PEOE_VSA11>
0

>  <PEOE_VSA12>
17.54

>  <PEOE_VSA13>
11.82

>  <SMR_VSA1>
24.23

>  <SMR_VSA2>
0

>  <SMR_VSA3>
25

>  <SMR_VSA4>
5.92

>  <SMR_VSA5>
62.37

>  <SMR_VSA6>
20.14

>  <SMR_VSA7>
77.49

>  <SMR_VSA8>
0

>  <SMR_VSA9>
0

>  <SlogP_VSA1>
5.32

>  <SlogP_VSA2>
92.41

>  <SlogP_VSA3>
31.96

>  <SlogP_VSA4>
5.92

>  <SlogP_VSA5>
36.46

>  <SlogP_VSA6>
60.8

>  <SlogP_VSA7>
0

>  <SlogP_VSA8>
16.48

>  <SlogP_VSA9>
0

>  <SlogP_VSA10>
0

>  <SlogP_VSA11>
0

>  <EState_VSA1>
35.54

>  <EState_VSA2>
24.28

>  <EState_VSA3>
25.93

>  <EState_VSA4>
28.64

>  <EState_VSA5>
22.77

>  <EState_VSA6>
4.9

>  <EState_VSA7>
49.52

>  <EState_VSA8>
33.53

>  <EState_VSA9>
4.74

>  <EState_VSA10>
19.49

>  <VSA_EState1>
6.23

>  <VSA_EState2>
50.21

>  <VSA_EState3>
16.11

>  <VSA_EState4>
3.58

>  <VSA_EState5>
-3.77

>  <VSA_EState6>
14.12

>  <VSA_EState7>
6.38

>  <VSA_EState8>
2.45

>  <VSA_EState9>
2.02

>  <apol>
87.96

>  <bpol>
45.72

>  <nRing>
8

>  <nHRing>
5

>  <naRing>
3

>  <naHRing>
1

>  <nARing 2>
5

>  <nAHRing 2>
4

>  <nFRing>
2

>  <nFHRing>
2

>  <nFaRing>
0

>  <nFaHRing>
0

>  <nFARing 2>
2

>  <nFAHRing 2>
2

>  <nRot>
4

>  <SLogP>
1.99

>  <SMR>
157.99

>  <TopoPSA(NO)>
118.21

>  <TopoPSA>
118.21

>  <JGI1>
0.2

>  <JGI2>
0.09

>  <JGI3>
0.06

>  <JGI4>
0.05

>  <JGI5>
0.03

>  <Diameter>
17

>  <Radius>
9

>  <TMWC10>
177.2

>  <TSRW10>
99.27

>  <MW>
581.26

>  <AMW>
7.45

>  <WPath>
6191

>  <WPol>
88

>  <Zagreb1>
258

>  <Zagreb2>
326

>  <mZagreb2>
8.88

>  <yes>


>  <nAR-cont>
0

>  <nHA-cont>
0.205638778

>  <MWHBN>
0.373299399

>  <MWHBN-cont>
0.581022642

>  <TPSA-cont>
0.174820796

>  <pka_cont>
0.97

>  <yes.1>


>  <BBB_SCORE>
1.911814334

>  <MMFF94 Energy>
114.11

$$$$
Compound 2780
Actelion Java MolfileCreator 2.0

  0  0  0  0  0  0              0 V3000
M  V30 BEGIN CTAB
M  V30 COUNTS 38 40 0 0 0
M  V30 BEGIN ATOM
M  V30 1 O -3.2517 -3.0929 1.1094 0
M  V30 2 C -2.5532 -3.9856 0.6535 0
M  V30 3 O -1.4542 -3.8587 -0.1751 0
M  V30 4 N -2.7855 -5.296 0.9201 0
M  V30 5 C -1.0801 -2.5519 -0.5224 0
M  V30 6 C -0.7364 -1.6113 0.4462 0
M  V30 7 C -0.9758 -2.2619 -1.8876 0
M  V30 8 C -0.3223 -0.3587 0.0104 0
M  V30 9 C -0.5541 -0.9944 -2.3019 0
M  V30 10 C -0.2312 -0.0414 -1.3486 0
M  V30 11 C 0.0949 0.8319 0.8391 0
M  V30 12 N 0.1897 1.2526 -1.5513 0
M  V30 13 C 0.5098 1.8783 -0.2675 0
M  V30 14 C 1.3796 0.5782 1.6319 0
M  V30 15 C -1.0482 1.3253 1.7256 0
M  V30 16 C 0.6329 1.8068 -2.8019 0
M  V30 17 N 1.9169 2.2424 0.0133 0
M  V30 18 C 2.4807 1.0819 0.7127 0
M  V30 19 C 2.0066 3.4608 0.8131 0
M  V30 20 H -3.5657 -5.538 1.512 0
M  V30 21 H -2.1936 -6.0109 0.5272 0
M  V30 22 H -0.7961 -1.8448 1.5031 0
M  V30 23 H -1.2253 -3.0169 -2.6267 0
M  V30 24 H -0.4861 -0.7688 -3.3601 0
M  V30 25 H -0.1242 2.7731 -0.1978 0
M  V30 26 H 1.5321 -0.4718 1.9019 0
M  V30 27 H 1.3873 1.1597 2.5623 0
M  V30 28 H -0.7778 2.2525 2.2424 0
M  V30 29 H -1.3084 0.5825 2.4883 0
M  V30 30 H -1.9519 1.5248 1.1382 0
M  V30 31 H -0.1133 1.6531 -3.5882 0
M  V30 32 H 1.5749 1.3469 -3.1177 0
M  V30 33 H 0.7939 2.8868 -2.7165 0
M  V30 34 H 2.7384 0.311 -0.0241 0
M  V30 35 H 3.4013 1.3159 1.2587 0
M  V30 36 H 3.0542 3.6966 1.0306 0
M  V30 37 H 1.6074 4.3122 0.2506 0
M  V30 38 H 1.4662 3.3981 1.7635 0
M  V30 END ATOM
M  V30 BEGIN BOND
M  V30 1 2 1 2
M  V30 2 1 2 3
M  V30 3 1 2 4
M  V30 4 1 3 5
M  V30 5 2 5 6
M  V30 6 1 5 7
M  V30 7 1 6 8
M  V30 8 2 7 9
M  V30 9 2 8 10
M  V30 10 1 8 11
M  V30 11 1 10 12
M  V30 12 1 11 13
M  V30 13 1 11 14
M  V30 14 1 11 15
M  V30 15 1 12 16
M  V30 16 1 13 17
M  V30 17 1 14 18
M  V30 18 1 17 19
M  V30 19 1 9 10
M  V30 20 1 12 13
M  V30 21 1 17 18
M  V30 22 1 4 20
M  V30 23 1 4 21
M  V30 24 1 6 22
M  V30 25 1 7 23
M  V30 26 1 9 24
M  V30 27 1 13 25
M  V30 28 1 14 26
M  V30 29 1 14 27
M  V30 30 1 15 28
M  V30 31 1 15 29
M  V30 32 1 15 30
M  V30 33 1 16 31
M  V30 34 1 16 32
M  V30 35 1 16 33
M  V30 36 1 18 34
M  V30 37 1 18 35
M  V30 38 1 19 36
M  V30 39 1 19 37
M  V30 40 1 19 38
M  V30 END BOND
M  V30 END CTAB
M  END
>  <Column 1>
3507

>  <level_0>
5752

>  <index>
5753

>  <Unnamed: 0>
5753

>  <NO.>
5765

>  <Name>
physostigmine

>  <IUPAC_name>


>  <SMILES>
CN1CCC2(C)c3cc(OC(N)=O)ccc3N(C)C12

>  <CID>


>  <logBB>


>  <BBB+/BBB->
BBB-

>  <Inchi>
InChI=1S/C14H19N3O2/c1-14-6-7-16(2)12(14)17(3)11-5-4-9(8-10(11)14)19-13(15)18/h4-5-8-12H-6-7H2-1-3H3-(H2-15-18)

>  <threshold>


>  <reference>
R23|

>  <group>
C

>  <Class>
1

>  <ABC>
15.16

>  <ABCGG>
13.4

>  <nAcid>
0

>  <nBase>
1

>  <nAromAtom>
6

>  <nAromBond>
6

>  <nAtom>
38

>  <nHeavyAtom>
19

>  <nSpiro>
0

>  <nBridgehead>
0

>  <nHetero>
5

>  <nN>
3

>  <nO>
2

>  <nF>
0

>  <BalabanJ>
1.79

>  <BertzCT>
545.49

>  <nBonds>
40

>  <nBondsO>
21

>  <nBondsS>
33

>  <nBondsD>
1

>  <nBondsT>
0

>  <nBondsA>
6

>  <nBondsM>
7

>  <nBondsKS>
36

>  <nBondsKD>
4

>  <RNCG>
0.23

>  <RPCG>
0.23

>  <FCSP3>
0.5

>  <SZ>
23.33

>  <Sm>
21.76

>  <Sv>
22.85

>  <Sse>
38.09

>  <Sp>
24.52

>  <Si>
43.24

>  <MZ>
0.61

>  <Mm>
0.57

>  <Mv>
0.6

>  <Mse>
1

>  <Mp>
0.65

>  <Mi>
1.14

>  <NsCH3>
3

>  <NdCH2>
0

>  <NssCH2>
2

>  <NtCH>
0

>  <NdsCH>
0

>  <NaaCH>
3

>  <NsssCH>
1

>  <NddC>
0

>  <NtsC>
0

>  <NdssC>
1

>  <NaasC>
3

>  <NaaaC>
0

>  <NssssC>
1

>  <NsNH3>
0

>  <NsNH2>
1

>  <NssNH2>
0

>  <NdNH>
0

>  <NssNH>
0

>  <NaaNH>
0

>  <NtN>
0

>  <NsssNH>
0

>  <NdsN>
0

>  <NaaN>
0

>  <NsssN>
2

>  <NddsN>
0

>  <NaasN>
0

>  <NssssN>
0

>  <NsOH>
0

>  <NdO>
1

>  <NssO>
1

>  <NaaO>
0

>  <NsF>
0

>  <NsSiH3>
0

>  <NssSiH2>
0

>  <NsssSiH>
0

>  <NssssSi>
0

>  <NsPH2>
0

>  <NssPH>
0

>  <NsssP>
0

>  <NdsssP>
0

>  <NsssssP>
0

>  <NsSH>
0

>  <NdS>
0

>  <NssS>
0

>  <NaaS>
0

>  <NdssS>
0

>  <NddssS>
0

>  <NsCl>
0

>  <NsBr>
0

>  <NsI>
0

>  <fragCpx>
99.05

>  <fMF>
0.32

>  <nHBAcc>
4

>  <nHBDon>
1

>  <Kier1>
13.96

>  <Kier2>
4.78

>  <Lipinski>
1

>  <GhoseFilter>
1

>  <FilterItLogS>
-1.97

>  <VMcGowan>
200.02

>  <LabuteASA>
112.47

>  <PEOE_VSA1>
15.37

>  <PEOE_VSA2>
4.9

>  <PEOE_VSA3>
4.79

>  <PEOE_VSA4>
0

>  <PEOE_VSA5>
0

>  <PEOE_VSA6>
6.92

>  <PEOE_VSA7>
37.23

>  <PEOE_VSA8>
24.69

>  <PEOE_VSA9>
6.17

>  <PEOE_VSA10>
5.75

>  <PEOE_VSA11>
0

>  <PEOE_VSA12>
0

>  <PEOE_VSA13>
0

>  <SMR_VSA1>
9.53

>  <SMR_VSA2>
0

>  <SMR_VSA3>
4.9

>  <SMR_VSA4>
5.73

>  <SMR_VSA5>
24.93

>  <SMR_VSA6>
25.54

>  <SMR_VSA7>
23.76

>  <SMR_VSA8>
0

>  <SMR_VSA9>
5.75

>  <SlogP_VSA1>
15.37

>  <SlogP_VSA2>
37.8

>  <SlogP_VSA3>
5.41

>  <SlogP_VSA4>
0

>  <SlogP_VSA5>
18.91

>  <SlogP_VSA6>
18.2

>  <SlogP_VSA7>
0

>  <SlogP_VSA8>
0

>  <SlogP_VSA9>
0

>  <SlogP_VSA10>
10.48

>  <SlogP_VSA11>
5.75

>  <EState_VSA1>
6.09

>  <EState_VSA2>
5.41

>  <EState_VSA3>
11.92

>  <EState_VSA4>
12.97

>  <EState_VSA5>
11.25

>  <EState_VSA6>
6.07

>  <EState_VSA7>
12.13

>  <EState_VSA8>
30.82

>  <EState_VSA9>
10.47

>  <EState_VSA10>
4.79

>  <VSA_EState1>
5

>  <VSA_EState2>
15.55

>  <VSA_EState3>
0

>  <VSA_EState4>
7.6

>  <VSA_EState5>
0.52

>  <VSA_EState6>
5.76

>  <VSA_EState7>
0.7

>  <VSA_EState8>
3.35

>  <VSA_EState9>
4.27

>  <apol>
40.95

>  <bpol>
24.51

>  <nRing>
3

>  <nHRing>
2

>  <naRing>
1

>  <naHRing>
0

>  <nARing 2>
2

>  <nAHRing 2>
2

>  <nFRing>
1

>  <nFHRing>
1

>  <nFaRing>
0

>  <nFaHRing>
0

>  <nFARing 2>
1

>  <nFAHRing 2>
1

>  <nRot>
1

>  <SLogP>
1.51

>  <SMR>
73.44

>  <TopoPSA(NO)>
58.8

>  <TopoPSA>
58.8

>  <JGI1>
0.26

>  <JGI2>
0.1

>  <JGI3>
0.09

>  <JGI4>
0.04

>  <JGI5>
0.03

>  <Diameter>
9

>  <Radius>
5

>  <TMWC10>
116.09

>  <TSRW10>
69.98

>  <MW>
261.15

>  <AMW>
6.87

>  <WPath>
642

>  <WPol>
34

>  <Zagreb1>
108

>  <Zagreb2>
134

>  <mZagreb2>
3.99

>  <yes>


>  <nAR-cont>
1

>  <nHA-cont>
0.998649058

>  <MWHBN>
0.309403334

>  <MWHBN-cont>
0.811764807

>  <TPSA-cont>
0.589539487

>  <pka_cont>
0.97

>  <yes.1>


>  <BBB_SCORE>
4.880375244

>  <MMFF94 Energy>
-23.563

$$$$
Compound 2781
Actelion Java MolfileCreator 2.0

  0  0  0  0  0  0              0 V3000
M  V30 BEGIN CTAB
M  V30 COUNTS 67 70 0 0 0
M  V30 BEGIN ATOM
M  V30 1 Cl 2.5059 -9.5642 -1.697 0
M  V30 2 C 2.0672 -8.117 -0.8888 0
M  V30 3 C 2.4789 -6.8818 -1.3569 0
M  V30 4 C 1.2864 -8.1524 0.2575 0
M  V30 5 N 2.163 -5.7065 -0.7599 0
M  V30 6 C 0.9497 -6.9524 0.8874 0
M  V30 7 C 1.4047 -5.7501 0.3499 0
M  V30 8 N 1.0479 -4.5773 1.0095 0
M  V30 9 C 1.3754 -3.3009 0.6182 0
M  V30 10 O 2.0149 -2.9027 -0.3439 0
M  V30 11 C 0.8053 -2.256 1.6002 0
M  V30 12 O 0.2049 -2.6317 2.598 0
M  V30 13 N 1.0457 -0.9563 1.2262 0
M  V30 14 C 0.5316 0.1971 1.9551 0
M  V30 15 C 0.5811 1.474 1.0736 0
M  V30 16 C 1.3238 0.4177 3.2524 0
M  V30 17 N -0.1056 1.3238 -0.2027 0
M  V30 18 C 0.1033 2.7098 1.8447 0
M  V30 19 C 0.8521 1.6617 4.0032 0
M  V30 20 C -1.4455 1.0094 -0.3536 0
M  V30 21 C 0.9317 2.9179 3.1254 0
M  V30 22 O -2.1859 0.8183 0.6079 0
M  V30 23 C -1.8497 0.9291 -1.7555 0
M  V30 24 C 0.4452 4.1455 3.9026 0
M  V30 25 S -3.467 0.553 -2.1986 0
M  V30 26 N -1.0001 1.1301 -2.7536 0
M  V30 27 O -0.6704 4.6184 3.6752 0
M  V30 28 N 1.2821 4.6917 4.8695 0
M  V30 29 C -3.0187 0.6693 -3.8343 0
M  V30 30 C -1.6798 0.9779 -3.9438 0
M  V30 31 C 2.645 4.2746 5.1673 0
M  V30 32 C 0.7943 5.8169 5.6547 0
M  V30 33 C -3.9317 0.4263 -4.9899 0
M  V30 34 C -1.0271 1.1509 -5.2704 0
M  V30 35 N -3.3401 0.9608 -6.242 0
M  V30 36 C -1.9202 0.5605 -6.3879 0
M  V30 37 C -4.1252 0.5253 -7.395 0
M  V30 38 H 3.0915 -6.789 -2.2488 0
M  V30 39 H 0.9385 -9.0974 0.664 0
M  V30 40 H 0.3386 -6.9724 1.784 0
M  V30 41 H 0.494 -4.6388 1.8576 0
M  V30 42 H 1.5415 -0.8311 0.346 0
M  V30 43 H -0.5045 -0.0353 2.2282 0
M  V30 44 H 1.6293 1.644 0.7902 0
M  V30 45 H 1.227 -0.4547 3.9092 0
M  V30 46 H 2.3934 0.5134 3.0241 0
M  V30 47 H 0.4004 1.4761 -1.0721 0
M  V30 48 H -0.9604 2.6101 2.0954 0
M  V30 49 H 0.1819 3.5992 1.2059 0
M  V30 50 H -0.1814 1.5127 4.3428 0
M  V30 51 H 1.4522 1.7769 4.912 0
M  V30 52 H 1.9651 3.0949 2.8072 0
M  V30 53 H 3.0048 3.4712 4.5272 0
M  V30 54 H 3.3084 5.1359 5.0423 0
M  V30 55 H 2.6854 3.9379 6.2076 0
M  V30 56 H -0.2484 6.062 5.4393 0
M  V30 57 H 1.4135 6.6916 5.4343 0
M  V30 58 H 0.8814 5.569 6.7169 0
M  V30 59 H -4.1072 -0.6539 -5.0758 0
M  V30 60 H -4.8967 0.916 -4.813 0
M  V30 61 H -0.0475 0.6617 -5.2814 0
M  V30 62 H -0.8715 2.2215 -5.4497 0
M  V30 63 H -1.8372 -0.535 -6.3852 0
M  V30 64 H -1.5277 0.9112 -7.3503 0
M  V30 65 H -3.7372 0.9752 -8.3154 0
M  V30 66 H -5.1657 0.855 -7.2989 0
M  V30 67 H -4.1171 -0.5639 -7.5141 0
M  V30 END ATOM
M  V30 BEGIN BOND
M  V30 1 1 1 2
M  V30 2 2 2 3
M  V30 3 1 2 4
M  V30 4 1 3 5
M  V30 5 2 4 6
M  V30 6 2 5 7
M  V30 7 1 7 8
M  V30 8 1 8 9
M  V30 9 2 9 10
M  V30 10 1 9 11
M  V30 11 2 11 12
M  V30 12 1 11 13
M  V30 13 1 13 14
M  V30 14 1 14 15
M  V30 15 1 14 16
M  V30 16 1 15 17
M  V30 17 1 15 18
M  V30 18 1 16 19
M  V30 19 1 17 20
M  V30 20 1 18 21
M  V30 21 2 20 22
M  V30 22 1 20 23
M  V30 23 1 21 24
M  V30 24 1 23 25
M  V30 25 2 23 26
M  V30 26 2 24 27
M  V30 27 1 24 28
M  V30 28 1 25 29
M  V30 29 1 26 30
M  V30 30 1 28 31
M  V30 31 1 28 32
M  V30 32 1 29 33
M  V30 33 1 30 34
M  V30 34 1 33 35
M  V30 35 1 34 36
M  V30 36 1 35 37
M  V30 37 1 6 7
M  V30 38 1 19 21
M  V30 39 2 29 30
M  V30 40 1 35 36
M  V30 41 1 3 38
M  V30 42 1 4 39
M  V30 43 1 6 40
M  V30 44 1 8 41
M  V30 45 1 13 42
M  V30 46 1 14 43
M  V30 47 1 15 44
M  V30 48 1 16 45
M  V30 49 1 16 46
M  V30 50 1 17 47
M  V30 51 1 18 48
M  V30 52 1 18 49
M  V30 53 1 19 50
M  V30 54 1 19 51
M  V30 55 1 21 52
M  V30 56 1 31 53
M  V30 57 1 31 54
M  V30 58 1 31 55
M  V30 59 1 32 56
M  V30 60 1 32 57
M  V30 61 1 32 58
M  V30 62 1 33 59
M  V30 63 1 33 60
M  V30 64 1 34 61
M  V30 65 1 34 62
M  V30 66 1 36 63
M  V30 67 1 36 64
M  V30 68 1 37 65
M  V30 69 1 37 66
M  V30 70 1 37 67
M  V30 END BOND
M  V30 END CTAB
M  END
>  <Column 1>
3508

>  <level_0>
5754

>  <index>
5755

>  <Unnamed: 0>
5755

>  <NO.>
5767

>  <Name>
edoxaban

>  <IUPAC_name>
n'-(5-chloropyridin-2-yl)-n-[4-(dimethylcarbamoyl)-2-[(5-methyl-6-7-dihydro-4h-[1-3]thiazolo[5-4-c]pyridine-2-carbonyl)amino]cyclohexyl]oxamide

>  <SMILES>
CN1CCc2nc(C(=O)NC3CC(C(=O)N(C)C)CCC3NC(=O)C(=O)Nc3ccc(Cl)cn3)sc2C1

>  <CID>
11635624

>  <logBB>


>  <BBB+/BBB->
BBB-

>  <Inchi>
InChI=1S/C24H30ClN7O4S/c1-31(2)24(36)13-4-6-15(27-20(33)21(34)30-19-7-5-14(25)11-26-19)17(10-13)28-22(35)23-29-16-8-9-32(3)12-18(16)37-23/h5-7-11-13-15-17H-4-6-8-10-12H2-1-3H3-(H-27-33)(H-28-35)(H-26-30-34)

>  <threshold>


>  <reference>
R23|

>  <group>
C

>  <Class>
-1

>  <ABC>
28.92

>  <ABCGG>
22.15

>  <nAcid>
0

>  <nBase>
1

>  <nAromAtom>
11

>  <nAromBond>
11

>  <nAtom>
67

>  <nHeavyAtom>
37

>  <nSpiro>
0

>  <nBridgehead>
0

>  <nHetero>
13

>  <nN>
7

>  <nO>
4

>  <nF>
0

>  <BalabanJ>
1.35

>  <BertzCT>
1186.26

>  <nBonds>
70

>  <nBondsO>
40

>  <nBondsS>
55

>  <nBondsD>
4

>  <nBondsT>
0

>  <nBondsA>
11

>  <nBondsM>
15

>  <nBondsKS>
61

>  <nBondsKD>
9

>  <RNCG>
0.1

>  <RPCG>
0.09

>  <FCSP3>
0.5

>  <SZ>
48

>  <Sm>
45.63

>  <Sv>
42.57

>  <Sse>
68.12

>  <Sp>
45.55

>  <Si>
76.17

>  <MZ>
0.72

>  <Mm>
0.68

>  <Mv>
0.64

>  <Mse>
1.02

>  <Mp>
0.68

>  <Mi>
1.14

>  <NsCH3>
3

>  <NdCH2>
0

>  <NssCH2>
6

>  <NtCH>
0

>  <NdsCH>
0

>  <NaaCH>
3

>  <NsssCH>
3

>  <NddC>
0

>  <NtsC>
0

>  <NdssC>
4

>  <NaasC>
5

>  <NaaaC>
0

>  <NssssC>
0

>  <NsNH3>
0

>  <NsNH2>
0

>  <NssNH2>
0

>  <NdNH>
0

>  <NssNH>
3

>  <NaaNH>
0

>  <NtN>
0

>  <NsssNH>
0

>  <NdsN>
0

>  <NaaN>
2

>  <NsssN>
2

>  <NddsN>
0

>  <NaasN>
0

>  <NssssN>
0

>  <NsOH>
0

>  <NdO>
4

>  <NssO>
0

>  <NaaO>
0

>  <NsF>
0

>  <NsSiH3>
0

>  <NssSiH2>
0

>  <NsssSiH>
0

>  <NssssSi>
0

>  <NsPH2>
0

>  <NssPH>
0

>  <NsssP>
0

>  <NdsssP>
0

>  <NsssssP>
0

>  <NsSH>
0

>  <NdS>
0

>  <NssS>
0

>  <NaaS>
1

>  <NdssS>
0

>  <NddssS>
0

>  <NsCl>
1

>  <NsBr>
0

>  <NsI>
0

>  <fragCpx>
268.13

>  <fMF>
0.4

>  <nHBAcc>
8

>  <nHBDon>
3

>  <Kier1>
29.97

>  <Kier2>
13.57

>  <Lipinski>
0

>  <GhoseFilter>
0

>  <FilterItLogS>
-4.96

>  <VMcGowan>
388.81

>  <LabuteASA>
223.51

>  <PEOE_VSA1>
25.75

>  <PEOE_VSA2>
19.18

>  <PEOE_VSA3>
9.97

>  <PEOE_VSA4>
0

>  <PEOE_VSA5>
11.34

>  <PEOE_VSA6>
11.6

>  <PEOE_VSA7>
38.44

>  <PEOE_VSA8>
56.64

>  <PEOE_VSA9>
16.76

>  <PEOE_VSA10>
5.82

>  <PEOE_VSA11>
5.01

>  <PEOE_VSA12>
5.91

>  <PEOE_VSA13>
5.91

>  <SMR_VSA1>
19.18

>  <SMR_VSA2>
0

>  <SMR_VSA3>
30.4

>  <SMR_VSA4>
5.92

>  <SMR_VSA5>
44.31

>  <SMR_VSA6>
33

>  <SMR_VSA7>
38.93

>  <SMR_VSA8>
0

>  <SMR_VSA9>
0

>  <SlogP_VSA1>
15.95

>  <SlogP_VSA2>
83.17

>  <SlogP_VSA3>
27.35

>  <SlogP_VSA4>
5.92

>  <SlogP_VSA5>
39.64

>  <SlogP_VSA6>
18.33

>  <SlogP_VSA7>
5.02

>  <SlogP_VSA8>
0

>  <SlogP_VSA9>
0

>  <SlogP_VSA10>
5.82

>  <SlogP_VSA11>
0

>  <EState_VSA1>
23.9

>  <EState_VSA2>
23.55

>  <EState_VSA3>
29.29

>  <EState_VSA4>
30.08

>  <EState_VSA5>
28.5

>  <EState_VSA6>
20.16

>  <EState_VSA7>
7.05

>  <EState_VSA8>
30.82

>  <EState_VSA9>
11.6

>  <EState_VSA10>
19.18

>  <VSA_EState1>
0

>  <VSA_EState2>
64.26

>  <VSA_EState3>
8.91

>  <VSA_EState4>
0.94

>  <VSA_EState5>
-2.25

>  <VSA_EState6>
1.95

>  <VSA_EState7>
3.42

>  <VSA_EState8>
1.63

>  <VSA_EState9>
5.41

>  <apol>
76.07

>  <bpol>
43.95

>  <nRing>
4

>  <nHRing>
3

>  <naRing>
2

>  <naHRing>
2

>  <nARing 2>
2

>  <nAHRing 2>
1

>  <nFRing>
1

>  <nFHRing>
1

>  <nFaRing>
0

>  <nFaHRing>
0

>  <nFARing 2>
1

>  <nFAHRing 2>
1

>  <nRot>
5

>  <SLogP>
1.29

>  <SMR>
139.25

>  <TopoPSA(NO)>
136.63

>  <TopoPSA>
164.87

>  <JGI1>
0.24

>  <JGI2>
0.09

>  <JGI3>
0.04

>  <JGI4>
0.05

>  <JGI5>
0.03

>  <Diameter>
18

>  <Radius>
9

>  <TMWC10>
155.63

>  <TSRW10>
87.63

>  <MW>
547.18

>  <AMW>
8.17

>  <WPath>
4699

>  <WPol>
58

>  <Zagreb1>
194

>  <Zagreb2>
226

>  <mZagreb2>
8

>  <yes>


>  <nAR-cont>
1

>  <nHA-cont>
0.433355441

>  <MWHBN>
0.470248672

>  <MWHBN-cont>
0

>  <TPSA-cont>
0

>  <pka_cont>
0.97

>  <yes.1>


>  <BBB_SCORE>
1.918355441

>  <MMFF94 Energy>
58.059

$$$$
Compound 2782
Actelion Java MolfileCreator 2.0

  0  0  0  0  0  0              0 V3000
M  V30 BEGIN CTAB
M  V30 COUNTS 32 32 0 0 0
M  V30 BEGIN ATOM
M  V30 1 O 0.7705 0.3081 -1.3101 0
M  V30 2 C 0.7169 0.0639 -0.1074 0
M  V30 3 N -0.4433 -0.1858 0.6027 0
M  V30 4 N 1.8338 0.0122 0.7107 0
M  V30 5 C -1.7272 -0.1662 0.022 0
M  V30 6 C 3.1504 0.1473 0.3586 0
M  V30 7 C -2.2676 1.0224 -0.5078 0
M  V30 8 C -2.4912 -1.3521 0.0437 0
M  V30 9 N 3.9494 0.0549 1.3557 0
M  V30 10 N 3.4539 0.3524 -0.9399 0
M  V30 11 C -3.5554 0.9913 -1.0661 0
M  V30 12 C -1.5167 2.3259 -0.5253 0
M  V30 13 C -3.7831 -1.3426 -0.502 0
M  V30 14 C -1.9523 -2.6337 0.6182 0
M  V30 15 C 5.3758 0.1836 1.0958 0
M  V30 16 C -4.3085 -0.1803 -1.0603 0
M  V30 17 H -0.3582 -0.6422 1.498 0
M  V30 18 H 1.7112 -0.1169 1.7003 0
M  V30 19 H 2.6919 0.4187 -1.6139 0
M  V30 20 H 4.3973 0.4667 -1.272 0
M  V30 21 H -3.9831 1.8905 -1.5051 0
M  V30 22 H -0.8856 2.3891 -1.4163 0
M  V30 23 H -2.2099 3.1746 -0.537 0
M  V30 24 H -0.8993 2.4446 0.3705 0
M  V30 25 H -4.3873 -2.2471 -0.5059 0
M  V30 26 H -1.794 -2.5284 1.6962 0
M  V30 27 H -1.0077 -2.9021 0.134 0
M  V30 28 H -2.6457 -3.4674 0.4642 0
M  V30 29 H 5.6212 1.1666 0.6803 0
M  V30 30 H 5.7342 -0.6034 0.4241 0
M  V30 31 H 5.9206 0.0818 2.0397 0
M  V30 32 H -5.3062 -0.1864 -1.4916 0
M  V30 END ATOM
M  V30 BEGIN BOND
M  V30 1 2 1 2
M  V30 2 1 2 3
M  V30 3 1 2 4
M  V30 4 1 3 5
M  V30 5 1 4 6
M  V30 6 2 5 7
M  V30 7 1 5 8
M  V30 8 2 6 9
M  V30 9 1 6 10
M  V30 10 1 7 11
M  V30 11 1 7 12
M  V30 12 2 8 13
M  V30 13 1 8 14
M  V30 14 1 9 15
M  V30 15 2 11 16
M  V30 16 1 13 16
M  V30 17 1 3 17
M  V30 18 1 4 18
M  V30 19 1 10 19
M  V30 20 1 10 20
M  V30 21 1 11 21
M  V30 22 1 12 22
M  V30 23 1 12 23
M  V30 24 1 12 24
M  V30 25 1 13 25
M  V30 26 1 14 26
M  V30 27 1 14 27
M  V30 28 1 14 28
M  V30 29 1 15 29
M  V30 30 1 15 30
M  V30 31 1 15 31
M  V30 32 1 16 32
M  V30 END BOND
M  V30 END CTAB
M  END
>  <Column 1>
3509

>  <level_0>
5755

>  <index>
5756

>  <Unnamed: 0>
5756

>  <NO.>
5768

>  <Name>
lidamidine

>  <IUPAC_name>
1-(2-6-dimethylphenyl)-3-(n'-methylcarbamimidoyl)urea

>  <SMILES>
CN=C(N)NC(=O)Nc1c(C)cccc1C

>  <CID>
47510

>  <logBB>


>  <BBB+/BBB->
BBB-

>  <Inchi>
InChI=1S/C11H16N4O/c1-7-5-4-6-8(2)9(7)14-11(16)15-10(12)13-3/h4-6H-1-3H3-(H4-12-13-14-15-16)

>  <threshold>


>  <reference>
R23|

>  <group>
C

>  <Class>
-1

>  <ABC>
11.67

>  <ABCGG>
10.88

>  <nAcid>
0

>  <nBase>
3

>  <nAromAtom>
6

>  <nAromBond>
6

>  <nAtom>
32

>  <nHeavyAtom>
16

>  <nSpiro>
0

>  <nBridgehead>
0

>  <nHetero>
5

>  <nN>
4

>  <nO>
1

>  <nF>
0

>  <BalabanJ>
2.38

>  <BertzCT>
405.74

>  <nBonds>
32

>  <nBondsO>
16

>  <nBondsS>
24

>  <nBondsD>
2

>  <nBondsT>
0

>  <nBondsA>
6

>  <nBondsM>
8

>  <nBondsKS>
27

>  <nBondsKD>
5

>  <RNCG>
0.21

>  <RPCG>
0.18

>  <FCSP3>
0.27

>  <SZ>
19.67

>  <Sm>
18.34

>  <Sv>
19.08

>  <Sse>
32.09

>  <Sp>
20.5

>  <Si>
36.69

>  <MZ>
0.61

>  <Mm>
0.57

>  <Mv>
0.6

>  <Mse>
1

>  <Mp>
0.64

>  <Mi>
1.15

>  <NsCH3>
3

>  <NdCH2>
0

>  <NssCH2>
0

>  <NtCH>
0

>  <NdsCH>
0

>  <NaaCH>
3

>  <NsssCH>
0

>  <NddC>
0

>  <NtsC>
0

>  <NdssC>
2

>  <NaasC>
3

>  <NaaaC>
0

>  <NssssC>
0

>  <NsNH3>
0

>  <NsNH2>
1

>  <NssNH2>
0

>  <NdNH>
0

>  <NssNH>
2

>  <NaaNH>
0

>  <NtN>
0

>  <NsssNH>
0

>  <NdsN>
1

>  <NaaN>
0

>  <NsssN>
0

>  <NddsN>
0

>  <NaasN>
0

>  <NssssN>
0

>  <NsOH>
0

>  <NdO>
1

>  <NssO>
0

>  <NaaO>
0

>  <NsF>
0

>  <NsSiH3>
0

>  <NssSiH2>
0

>  <NsssSiH>
0

>  <NssssSi>
0

>  <NsPH2>
0

>  <NssPH>
0

>  <NsssP>
0

>  <NdsssP>
0

>  <NsssssP>
0

>  <NsSH>
0

>  <NdS>
0

>  <NssS>
0

>  <NaaS>
0

>  <NdssS>
0

>  <NddssS>
0

>  <NsCl>
0

>  <NsBr>
0

>  <NsI>
0

>  <fragCpx>
16.05

>  <fMF>
0.19

>  <nHBAcc>
2

>  <nHBDon>
3

>  <Kier1>
14.06

>  <Kier2>
6.67

>  <Lipinski>
1

>  <GhoseFilter>
1

>  <FilterItLogS>
-2.9

>  <VMcGowan>
179.28

>  <LabuteASA>
94.75

>  <PEOE_VSA1>
11.05

>  <PEOE_VSA2>
10.31

>  <PEOE_VSA3>
4.79

>  <PEOE_VSA4>
0

>  <PEOE_VSA5>
0

>  <PEOE_VSA6>
18.2

>  <PEOE_VSA7>
24.97

>  <PEOE_VSA8>
12.74

>  <PEOE_VSA9>
0

>  <PEOE_VSA10>
0

>  <PEOE_VSA11>
5.96

>  <PEOE_VSA12>
0

>  <PEOE_VSA13>
0

>  <SMR_VSA1>
4.79

>  <SMR_VSA2>
0

>  <SMR_VSA3>
5.32

>  <SMR_VSA4>
10.73

>  <SMR_VSA5>
13.85

>  <SMR_VSA6>
12.36

>  <SMR_VSA7>
29.33

>  <SMR_VSA8>
0

>  <SMR_VSA9>
0

>  <SlogP_VSA1>
16.37

>  <SlogP_VSA2>
19.04

>  <SlogP_VSA3>
0

>  <SlogP_VSA4>
13.85

>  <SlogP_VSA5>
11.13

>  <SlogP_VSA6>
23.19

>  <SlogP_VSA7>
0

>  <SlogP_VSA8>
0

>  <SlogP_VSA9>
0

>  <SlogP_VSA10>
10.48

>  <SlogP_VSA11>
0

>  <EState_VSA1>
0

>  <EState_VSA2>
11.99

>  <EState_VSA3>
0

>  <EState_VSA4>
16.81

>  <EState_VSA5>
7.05

>  <EState_VSA6>
0

>  <EState_VSA7>
32.05

>  <EState_VSA8>
15.63

>  <EState_VSA9>
5.73

>  <EState_VSA10>
4.79

>  <VSA_EState1>
0

>  <VSA_EState2>
15.14

>  <VSA_EState3>
5.14

>  <VSA_EState4>
8.18

>  <VSA_EState5>
0.09

>  <VSA_EState6>
5.41

>  <VSA_EState7>
0

>  <VSA_EState8>
3.86

>  <VSA_EState9>
1.51

>  <apol>
34.24

>  <bpol>
18.63

>  <nRing>
1

>  <nHRing>
0

>  <naRing>
1

>  <naHRing>
0

>  <nARing 2>
0

>  <nAHRing 2>
0

>  <nFRing>
0

>  <nFHRing>
0

>  <nFaRing>
0

>  <nFaHRing>
0

>  <nFARing 2>
0

>  <nFAHRing 2>
0

>  <nRot>
1

>  <SLogP>
1.37

>  <SMR>
65.62

>  <TopoPSA(NO)>
79.51

>  <TopoPSA>
79.51

>  <JGI1>
0.25

>  <JGI2>
0.1

>  <JGI3>
0.06

>  <JGI4>
0.05

>  <JGI5>
0.02

>  <Diameter>
9

>  <Radius>
5

>  <TMWC10>
100.39

>  <TSRW10>
47.59

>  <MW>
220.13

>  <AMW>
6.88

>  <WPath>
468

>  <WPol>
21

>  <Zagreb1>
74

>  <Zagreb2>
82

>  <mZagreb2>
3.72

>  <yes>


>  <nAR-cont>
0.336376

>  <nHA-cont>
0.954961865

>  <MWHBN>
0.337000378

>  <MWHBN-cont>
0.717977621

>  <TPSA-cont>
0.444970827

>  <pka_cont>
0.97

>  <yes.1>


>  <BBB_SCORE>
3.743245951

>  <MMFF94 Energy>
-124.66

$$$$
Compound 2783
Actelion Java MolfileCreator 2.0

  0  0  0  0  0  0              0 V3000
M  V30 BEGIN CTAB
M  V30 COUNTS 46 49 0 0 0
M  V30 BEGIN ATOM
M  V30 1 S -1.6976 -2.7496 1.3741 0
M  V30 2 C -1.8395 -3.6992 -0.1398 0
M  V30 3 C -0.894 -1.2389 0.8459 0
M  V30 4 C -1.2754 -4.9751 -0.3264 0
M  V30 5 C -2.5611 -3.12 -1.2014 0
M  V30 6 C 0.1087 -1.2354 -0.1354 0
M  V30 7 C -1.2644 -0.0441 1.4741 0
M  V30 8 C -0.4943 -5.7223 0.6987 0
M  V30 9 C -1.4028 -5.616 -1.573 0
M  V30 10 C -2.6949 -3.7739 -2.4279 0
M  V30 11 C 0.684 -0.0032 -0.4708 0
M  V30 12 C -0.6738 1.179 1.1224 0
M  V30 13 O 0.4863 -6.3756 0.3577 0
M  V30 14 N -0.9608 -5.6802 1.9916 0
M  V30 15 C -2.1102 -5.0202 -2.6162 0
M  V30 16 N 1.6587 0.3246 -1.3718 0
M  V30 17 C 0.3204 1.1982 0.1252 0
M  V30 18 C -0.2877 -6.379 3.0546 0
M  V30 19 N 1.9498 1.6324 -1.4184 0
M  V30 20 C 1.1392 2.1859 -0.5052 0
M  V30 21 C 1.1106 3.588 -0.2011 0
M  V30 22 C 1.8077 4.529 -0.8618 0
M  V30 23 C 1.782 5.9633 -0.5666 0
M  V30 24 N 1.9278 6.7642 -1.6471 0
M  V30 25 C 1.6757 6.4686 0.7266 0
M  V30 26 C 1.9388 8.0987 -1.4373 0
M  V30 27 C 1.6914 7.8494 0.9136 0
M  V30 28 C 1.822 8.6837 -0.1887 0
M  V30 29 H -3.0248 -2.1414 -1.0841 0
M  V30 30 H 0.4437 -2.149 -0.6158 0
M  V30 31 H -2.0295 -0.0467 2.2485 0
M  V30 32 H -0.9478 -6.5935 -1.7294 0
M  V30 33 H -3.2516 -3.3048 -3.2358 0
M  V30 34 H -0.9856 2.0932 1.6186 0
M  V30 35 H -1.7543 -5.0916 2.2149 0
M  V30 36 H -2.2039 -5.531 -3.5714 0
M  V30 37 H 2.1649 -0.3 -1.9887 0
M  V30 38 H 0.6664 -5.8843 3.2545 0
M  V30 39 H -0.1055 -7.4159 2.7597 0
M  V30 40 H -0.9167 -6.3492 3.9472 0
M  V30 41 H 0.4616 3.8896 0.6149 0
M  V30 42 H 2.4276 4.2547 -1.7126 0
M  V30 43 H 1.5978 5.8104 1.5846 0
M  V30 44 H 2.0503 8.7048 -2.3318 0
M  V30 45 H 1.6101 8.268 1.9126 0
M  V30 46 H 1.8401 9.762 -0.0784 0
M  V30 END ATOM
M  V30 BEGIN BOND
M  V30 1 1 1 2
M  V30 2 1 1 3
M  V30 3 2 2 4
M  V30 4 1 2 5
M  V30 5 2 3 6
M  V30 6 1 3 7
M  V30 7 1 4 8
M  V30 8 1 4 9
M  V30 9 2 5 10
M  V30 10 1 6 11
M  V30 11 2 7 12
M  V30 12 2 8 13
M  V30 13 1 8 14
M  V30 14 2 9 15
M  V30 15 1 11 16
M  V30 16 2 11 17
M  V30 17 1 14 18
M  V30 18 1 16 19
M  V30 19 1 17 20
M  V30 20 1 20 21
M  V30 21 2 21 22
M  V30 22 1 22 23
M  V30 23 2 23 24
M  V30 24 1 23 25
M  V30 25 1 24 26
M  V30 26 2 25 27
M  V30 27 2 26 28
M  V30 28 1 10 15
M  V30 29 1 12 17
M  V30 30 2 19 20
M  V30 31 1 27 28
M  V30 32 1 5 29
M  V30 33 1 6 30
M  V30 34 1 7 31
M  V30 35 1 9 32
M  V30 36 1 10 33
M  V30 37 1 12 34
M  V30 38 1 14 35
M  V30 39 1 15 36
M  V30 40 1 16 37
M  V30 41 1 18 38
M  V30 42 1 18 39
M  V30 43 1 18 40
M  V30 44 1 21 41
M  V30 45 1 22 42
M  V30 46 1 25 43
M  V30 47 1 26 44
M  V30 48 1 27 45
M  V30 49 1 28 46
M  V30 END BOND
M  V30 END CTAB
M  END
>  <Column 1>
3512

>  <level_0>
5758

>  <index>
5759

>  <Unnamed: 0>
5759

>  <NO.>
5771

>  <Name>
axitinib

>  <IUPAC_name>
n-methyl-2-[[3-[(e)-2-pyridin-2-ylethenyl]-1h-indazol-6-yl]sulfanyl]benzamide

>  <SMILES>
CNC(=O)c1ccccc1Sc1ccc2c(/C=C/c3ccccn3)n[nH]c2c1

>  <CID>
6450551

>  <logBB>


>  <BBB+/BBB->
BBB-

>  <Inchi>
InChI=1S/C22H18N4OS/c1-23-22(27)18-7-2-3-8-21(18)28-16-10-11-17-19(25-26-20(17)14-16)12-9-15-6-4-5-13-24-15/h2-14H-1H3-(H-23-27)(H-25-26)/b12-9+

>  <threshold>


>  <reference>
R23|

>  <group>
C

>  <Class>
-1

>  <ABC>
21.87

>  <ABCGG>
16.33

>  <nAcid>
0

>  <nBase>
0

>  <nAromAtom>
21

>  <nAromBond>
22

>  <nAtom>
46

>  <nHeavyAtom>
28

>  <nSpiro>
0

>  <nBridgehead>
0

>  <nHetero>
6

>  <nN>
4

>  <nO>
1

>  <nF>
0

>  <BalabanJ>
1.24

>  <BertzCT>
1151.65

>  <nBonds>
49

>  <nBondsO>
31

>  <nBondsS>
25

>  <nBondsD>
2

>  <nBondsT>
0

>  <nBondsA>
22

>  <nBondsM>
24

>  <nBondsKS>
37

>  <nBondsKD>
12

>  <RNCG>
0.18

>  <RPCG>
0.13

>  <FCSP3>
0.05

>  <SZ>
33.67

>  <Sm>
32.18

>  <Sv>
31.81

>  <Sse>
46.05

>  <Sp>
34.04

>  <Si>
51.03

>  <MZ>
0.73

>  <Mm>
0.7

>  <Mv>
0.69

>  <Mse>
1

>  <Mp>
0.74

>  <Mi>
1.11

>  <NsCH3>
1

>  <NdCH2>
0

>  <NssCH2>
0

>  <NtCH>
0

>  <NdsCH>
2

>  <NaaCH>
11

>  <NsssCH>
0

>  <NddC>
0

>  <NtsC>
0

>  <NdssC>
1

>  <NaasC>
5

>  <NaaaC>
2

>  <NssssC>
0

>  <NsNH3>
0

>  <NsNH2>
0

>  <NssNH2>
0

>  <NdNH>
0

>  <NssNH>
1

>  <NaaNH>
1

>  <NtN>
0

>  <NsssNH>
0

>  <NdsN>
0

>  <NaaN>
2

>  <NsssN>
0

>  <NddsN>
0

>  <NaasN>
0

>  <NssssN>
0

>  <NsOH>
0

>  <NdO>
1

>  <NssO>
0

>  <NaaO>
0

>  <NsF>
0

>  <NsSiH3>
0

>  <NssSiH2>
0

>  <NsssSiH>
0

>  <NssssSi>
0

>  <NsPH2>
0

>  <NssPH>
0

>  <NsssP>
0

>  <NdsssP>
0

>  <NsssssP>
0

>  <NsSH>
0

>  <NdS>
0

>  <NssS>
1

>  <NaaS>
0

>  <NdssS>
0

>  <NddssS>
0

>  <NsCl>
0

>  <NsBr>
0

>  <NsI>
0

>  <fragCpx>
205.06

>  <fMF>
0.52

>  <nHBAcc>
4

>  <nHBDon>
2

>  <Kier1>
21.24

>  <Kier2>
10.35

>  <Lipinski>
1

>  <GhoseFilter>
1

>  <FilterItLogS>
-6.43

>  <VMcGowan>
287.94

>  <LabuteASA>
166.45

>  <PEOE_VSA1>
5.32

>  <PEOE_VSA2>
14.88

>  <PEOE_VSA3>
0

>  <PEOE_VSA4>
5.1

>  <PEOE_VSA5>
0

>  <PEOE_VSA6>
29.96

>  <PEOE_VSA7>
54.62

>  <PEOE_VSA8>
28.42

>  <PEOE_VSA9>
22.47

>  <PEOE_VSA10>
0

>  <PEOE_VSA11>
0

>  <PEOE_VSA12>
0

>  <PEOE_VSA13>
5.91

>  <SMR_VSA1>
4.79

>  <SMR_VSA2>
0

>  <SMR_VSA3>
20.5

>  <SMR_VSA4>
0

>  <SMR_VSA5>
9.79

>  <SMR_VSA6>
7.05

>  <SMR_VSA7>
83.81

>  <SMR_VSA8>
0

>  <SMR_VSA9>
0

>  <SlogP_VSA1>
5.32

>  <SlogP_VSA2>
28.14

>  <SlogP_VSA3>
0

>  <SlogP_VSA4>
0

>  <SlogP_VSA5>
21.75

>  <SlogP_VSA6>
76.65

>  <SlogP_VSA7>
0

>  <SlogP_VSA8>
23.05

>  <SlogP_VSA9>
0

>  <SlogP_VSA10>
0

>  <SlogP_VSA11>
0

>  <EState_VSA1>
0

>  <EState_VSA2>
5.91

>  <EState_VSA3>
5.56

>  <EState_VSA4>
32.08

>  <EState_VSA5>
0

>  <EState_VSA6>
25.01

>  <EState_VSA7>
72.82

>  <EState_VSA8>
20.5

>  <EState_VSA9>
0

>  <EState_VSA10>
4.79

>  <VSA_EState1>
0

>  <VSA_EState2>
18.31

>  <VSA_EState3>
11.21

>  <VSA_EState4>
3.36

>  <VSA_EState5>
-0.09

>  <VSA_EState6>
19.51

>  <VSA_EState7>
5.66

>  <VSA_EState8>
0

>  <VSA_EState9>
1.64

>  <apol>
56.84

>  <bpol>
23.67

>  <nRing>
4

>  <nHRing>
2

>  <naRing>
4

>  <naHRing>
2

>  <nARing 2>
0

>  <nAHRing 2>
0

>  <nFRing>
1

>  <nFHRing>
1

>  <nFaRing>
1

>  <nFaHRing>
1

>  <nFARing 2>
0

>  <nFAHRing 2>
0

>  <nRot>
5

>  <SLogP>
4.64

>  <SMR>
113.21

>  <TopoPSA(NO)>
70.67

>  <TopoPSA>
95.97

>  <JGI1>
0.15

>  <JGI2>
0.07

>  <JGI3>
0.04

>  <JGI4>
0.03

>  <JGI5>
0.02

>  <Diameter>
16

>  <Radius>
8

>  <TMWC10>
135.02

>  <TSRW10>
77.17

>  <MW>
386.12

>  <AMW>
8.39

>  <WPath>
2325

>  <WPol>
42

>  <Zagreb1>
146

>  <Zagreb2>
171

>  <mZagreb2>
6.28

>  <yes>


>  <nAR-cont>
0.336376

>  <nHA-cont>
0.82432561

>  <MWHBN>
0.3053445

>  <MWHBN-cont>
0.82448243

>  <TPSA-cont>
0.330069806

>  <pka_cont>
0.97

>  <yes.1>


>  <BBB_SCORE>
3.542564867

>  <MMFF94 Energy>
50.014

$$$$
Compound 2784
Actelion Java MolfileCreator 2.0

  0  0  0  0  0  0              0 V3000
M  V30 BEGIN CTAB
M  V30 COUNTS 29 28 0 0 0
M  V30 BEGIN ATOM
M  V30 1 N 2.7456 -0.0761 1.1432 0
M  V30 2 C 1.6146 0.8545 1.2738 0 CFG=2
M  V30 3 C 2.7194 -1.1428 2.1363 0
M  V30 4 C 0.2471 0.2253 0.9349 0
M  V30 5 C 1.8948 2.0796 0.3958 0
M  V30 6 C 0.1565 -0.4017 -0.4599 0
M  V30 7 C -1.2046 -1.0038 -0.6918 0
M  V30 8 C -2.2192 -0.4898 -1.414 0
M  V30 9 C -3.5102 -1.2492 -1.5733 0
M  V30 10 C -2.1961 0.8448 -2.1061 0
M  V30 11 H 3.6188 0.4413 1.2481 0
M  V30 12 H 1.5696 1.2157 2.3099 0
M  V30 13 H 3.6236 -1.7512 2.034 0
M  V30 14 H 2.6993 -0.7446 3.1558 0
M  V30 15 H 1.8669 -1.8124 1.9921 0
M  V30 16 H -0.5251 1.0008 1.0305 0
M  V30 17 H -0.0022 -0.5309 1.6905 0
M  V30 18 H 2.7935 2.6054 0.7384 0
M  V30 19 H 2.0515 1.8084 -0.6534 0
M  V30 20 H 1.0621 2.7896 0.4423 0
M  V30 21 H 0.398 0.3316 -1.2336 0
M  V30 22 H 0.897 -1.2034 -0.5649 0
M  V30 23 H -1.3426 -1.9764 -0.2195 0
M  V30 24 H -4.3433 -0.6732 -1.1576 0
M  V30 25 H -3.4887 -2.2179 -1.0632 0
M  V30 26 H -3.7105 -1.4364 -2.6333 0
M  V30 27 H -1.3119 1.4409 -1.8696 0
M  V30 28 H -2.2305 0.7066 -3.1915 0
M  V30 29 H -3.0668 1.4383 -1.8067 0
M  V30 END ATOM
M  V30 BEGIN BOND
M  V30 1 1 1 2
M  V30 2 1 1 3
M  V30 3 1 2 4
M  V30 4 1 2 5
M  V30 5 1 4 6
M  V30 6 1 6 7
M  V30 7 2 7 8
M  V30 8 1 8 9
M  V30 9 1 8 10
M  V30 10 1 1 11
M  V30 11 1 2 12
M  V30 12 1 3 13
M  V30 13 1 3 14
M  V30 14 1 3 15
M  V30 15 1 4 16
M  V30 16 1 4 17
M  V30 17 1 5 18
M  V30 18 1 5 19
M  V30 19 1 5 20
M  V30 20 1 6 21
M  V30 21 1 6 22
M  V30 22 1 7 23
M  V30 23 1 9 24
M  V30 24 1 9 25
M  V30 25 1 9 26
M  V30 26 1 10 27
M  V30 27 1 10 28
M  V30 28 1 10 29
M  V30 END BOND
M  V30 BEGIN COLLECTION
M  V30 MDLV30/STERAC1 ATOMS=(1 2)
M  V30 END COLLECTION
M  V30 END CTAB
M  END
>  <Column 1>
3514

>  <level_0>
5760

>  <index>
5761

>  <Unnamed: 0>
5761

>  <NO.>
5773

>  <Name>
isometheptene

>  <IUPAC_name>
n-6-dimethylhept-5-en-2-amine

>  <SMILES>
CNC(C)CCC=C(C)C

>  <CID>
22297

>  <logBB>


>  <BBB+/BBB->
BBB+

>  <Inchi>
InChI=1S/C9H19N/c1-8(2)6-5-7-9(3)10-4/h6-9-10H-5-7H2-1-4H3

>  <threshold>


>  <reference>
R23|

>  <group>
C

>  <Class>
-1

>  <ABC>
6.69

>  <ABCGG>
6.82

>  <nAcid>
0

>  <nBase>
1

>  <nAromAtom>
0

>  <nAromBond>
0

>  <nAtom>
29

>  <nHeavyAtom>
10

>  <nSpiro>
0

>  <nBridgehead>
0

>  <nHetero>
1

>  <nN>
1

>  <nO>
0

>  <nF>
0

>  <BalabanJ>
3.03

>  <BertzCT>
101.3

>  <nBonds>
28

>  <nBondsO>
9

>  <nBondsS>
27

>  <nBondsD>
1

>  <nBondsT>
0

>  <nBondsA>
0

>  <nBondsM>
1

>  <nBondsKS>
27

>  <nBondsKD>
1

>  <RNCG>
0.45

>  <RPCG>
0.17

>  <FCSP3>
0.78

>  <SZ>
13.33

>  <Sm>
11.76

>  <Sv>
14.91

>  <Sse>
28.1

>  <Sp>
17.24

>  <Si>
33.24

>  <MZ>
0.46

>  <Mm>
0.41

>  <Mv>
0.51

>  <Mse>
0.97

>  <Mp>
0.59

>  <Mi>
1.15

>  <NsCH3>
4

>  <NdCH2>
0

>  <NssCH2>
2

>  <NtCH>
0

>  <NdsCH>
1

>  <NaaCH>
0

>  <NsssCH>
1

>  <NddC>
0

>  <NtsC>
0

>  <NdssC>
1

>  <NaasC>
0

>  <NaaaC>
0

>  <NssssC>
0

>  <NsNH3>
0

>  <NsNH2>
0

>  <NssNH2>
0

>  <NdNH>
0

>  <NssNH>
1

>  <NaaNH>
0

>  <NtN>
0

>  <NsssNH>
0

>  <NdsN>
0

>  <NaaN>
0

>  <NsssN>
0

>  <NddsN>
0

>  <NaasN>
0

>  <NssssN>
0

>  <NsOH>
0

>  <NdO>
0

>  <NssO>
0

>  <NaaO>
0

>  <NsF>
0

>  <NsSiH3>
0

>  <NssSiH2>
0

>  <NsssSiH>
0

>  <NssssSi>
0

>  <NsPH2>
0

>  <NssPH>
0

>  <NsssP>
0

>  <NdsssP>
0

>  <NsssssP>
0

>  <NsSH>
0

>  <NdS>
0

>  <NssS>
0

>  <NaaS>
0

>  <NdssS>
0

>  <NddssS>
0

>  <NsCl>
0

>  <NsBr>
0

>  <NsI>
0

>  <fragCpx>
9.01

>  <fMF>
0

>  <nHBAcc>
1

>  <nHBDon>
1

>  <Kier1>
10

>  <Kier2>
5.76

>  <Lipinski>
1

>  <GhoseFilter>
0

>  <FilterItLogS>
-2.4

>  <VMcGowan>
143.35

>  <LabuteASA>
64.52

>  <PEOE_VSA1>
5.32

>  <PEOE_VSA2>
0

>  <PEOE_VSA3>
0

>  <PEOE_VSA4>
0

>  <PEOE_VSA5>
0

>  <PEOE_VSA6>
11.65

>  <PEOE_VSA7>
40.66

>  <PEOE_VSA8>
6.04

>  <PEOE_VSA9>
0

>  <PEOE_VSA10>
0

>  <PEOE_VSA11>
0

>  <PEOE_VSA12>
0

>  <PEOE_VSA13>
0

>  <SMR_VSA1>
0

>  <SMR_VSA2>
0

>  <SMR_VSA3>
5.32

>  <SMR_VSA4>
0

>  <SMR_VSA5>
39.65

>  <SMR_VSA6>
7.05

>  <SMR_VSA7>
11.65

>  <SMR_VSA8>
0

>  <SMR_VSA9>
0

>  <SlogP_VSA1>
5.32

>  <SlogP_VSA2>
13.09

>  <SlogP_VSA3>
0

>  <SlogP_VSA4>
0

>  <SlogP_VSA5>
33.61

>  <SlogP_VSA6>
11.65

>  <SlogP_VSA7>
0

>  <SlogP_VSA8>
0

>  <SlogP_VSA9>
0

>  <SlogP_VSA10>
0

>  <SlogP_VSA11>
0

>  <EState_VSA1>
0

>  <EState_VSA2>
0

>  <EState_VSA3>
6.04

>  <EState_VSA4>
0

>  <EState_VSA5>
18.41

>  <EState_VSA6>
0

>  <EState_VSA7>
7.05

>  <EState_VSA8>
32.16

>  <EState_VSA9>
0

>  <EState_VSA10>
0

>  <VSA_EState1>
0

>  <VSA_EState2>
0

>  <VSA_EState3>
3.21

>  <VSA_EState4>
1.42

>  <VSA_EState5>
0

>  <VSA_EState6>
0.65

>  <VSA_EState7>
4.72

>  <VSA_EState8>
6.49

>  <VSA_EState9>
2.01

>  <apol>
28.8

>  <bpol>
19.63

>  <nRing>
0

>  <nHRing>
0

>  <naRing>
0

>  <naHRing>
0

>  <nARing 2>
0

>  <nAHRing 2>
0

>  <nFRing>
0

>  <nFHRing>
0

>  <nFaRing>
0

>  <nFaHRing>
0

>  <nFARing 2>
0

>  <nFAHRing 2>
0

>  <nRot>
4

>  <SLogP>
2.34

>  <SMR>
47.19

>  <TopoPSA(NO)>
12.03

>  <TopoPSA>
12.03

>  <JGI1>
0.28

>  <JGI2>
0.09

>  <JGI3>
0.05

>  <JGI4>
0.03

>  <JGI5>
0.04

>  <Diameter>
7

>  <Radius>
4

>  <TMWC10>
77.02

>  <TSRW10>
37.08

>  <MW>
141.15

>  <AMW>
4.87

>  <WPath>
146

>  <WPol>
8

>  <Zagreb1>
38

>  <Zagreb2>
37

>  <mZagreb2>
2.5

>  <yes>


>  <nAR-cont>
0.336376

>  <nHA-cont>
0.645914733

>  <MWHBN>
0.168340865

>  <MWHBN-cont>
0.971303103

>  <TPSA-cont>
0.91602313

>  <pka_cont>
0.97

>  <yes.1>


>  <BBB_SCORE>
4.756291648

>  <MMFF94 Energy>
9.879

$$$$
Compound 2785
Actelion Java MolfileCreator 2.0

  0  0  0  0  0  0              0 V3000
M  V30 BEGIN CTAB
M  V30 COUNTS 33 34 0 0 0
M  V30 BEGIN ATOM
M  V30 1 N 1.3416 -1.0258 0.789 0
M  V30 2 C 0.4118 -0.5531 -0.2543 0
M  V30 3 C 1.3194 -2.4514 1.082 0
M  V30 4 C 0.3717 1.0502 -0.3371 0
M  V30 5 C -1.0929 -0.8708 0.0642 0
M  V30 6 C 0.8094 -1.2276 -1.5916 0
M  V30 7 C -1.1528 1.352 -0.103 0
M  V30 8 C 1.2611 1.7696 0.7024 0
M  V30 9 C 0.7892 1.6302 -1.7092 0
M  V30 10 C -1.8419 0.1643 -0.7813 0
M  V30 11 C -1.4892 -0.4138 1.4865 0
M  V30 12 C -1.579 1.1093 1.3548 0
M  V30 13 H 2.2933 -0.7509 0.5467 0
M  V30 14 H 1.9544 -2.6415 1.9535 0
M  V30 15 H 1.7199 -3.049 0.2584 0
M  V30 16 H 0.3186 -2.8116 1.3349 0
M  V30 17 H -1.3776 -1.9067 -0.1389 0
M  V30 18 H 0.2035 -0.8926 -2.4375 0
M  V30 19 H 1.8595 -1.0329 -1.8378 0
M  V30 20 H 0.6747 -2.3142 -1.5508 0
M  V30 21 H -1.4694 2.3303 -0.4747 0
M  V30 22 H 1.1247 1.3939 1.7205 0
M  V30 23 H 1.0458 2.8444 0.7202 0
M  V30 24 H 2.323 1.6517 0.4566 0
M  V30 25 H 1.824 1.3666 -1.9527 0
M  V30 26 H 0.7264 2.7252 -1.7004 0
M  V30 27 H 0.1477 1.2937 -2.5281 0
M  V30 28 H -2.9257 0.1458 -0.6171 0
M  V30 29 H -1.6573 0.0929 -1.8548 0
M  V30 30 H -2.4703 -0.8207 1.7586 0
M  V30 31 H -0.783 -0.7176 2.2633 0
M  V30 32 H -0.9762 1.6364 2.097 0
M  V30 33 H -2.6172 1.4314 1.5037 0
M  V30 END ATOM
M  V30 BEGIN BOND
M  V30 1 1 1 2
M  V30 2 1 1 3
M  V30 3 1 2 4
M  V30 4 1 2 5
M  V30 5 1 2 6
M  V30 6 1 4 7
M  V30 7 1 4 8
M  V30 8 1 4 9
M  V30 9 1 5 10
M  V30 10 1 5 11
M  V30 11 1 7 12
M  V30 12 1 7 10
M  V30 13 1 11 12
M  V30 14 1 1 13
M  V30 15 1 3 14
M  V30 16 1 3 15
M  V30 17 1 3 16
M  V30 18 1 5 17
M  V30 19 1 6 18
M  V30 20 1 6 19
M  V30 21 1 6 20
M  V30 22 1 7 21
M  V30 23 1 8 22
M  V30 24 1 8 23
M  V30 25 1 8 24
M  V30 26 1 9 25
M  V30 27 1 9 26
M  V30 28 1 9 27
M  V30 29 1 10 28
M  V30 30 1 10 29
M  V30 31 1 11 30
M  V30 32 1 11 31
M  V30 33 1 12 32
M  V30 34 1 12 33
M  V30 END BOND
M  V30 END CTAB
M  END
>  <Column 1>
3515

>  <level_0>
5761

>  <index>
5762

>  <Unnamed: 0>
5762

>  <NO.>
5774

>  <Name>
mecamylamine

>  <IUPAC_name>
n-2-3-3-tetramethylbicyclo[2.2.1]heptan-2-amine

>  <SMILES>
CNC1(C)C2CCC(C2)C1(C)C

>  <CID>
4032

>  <logBB>


>  <BBB+/BBB->
BBB-

>  <Inchi>
InChI=1S/C11H21N/c1-10(2)8-5-6-9(7-8)11(10-3)12-4/h8-9-12H-5-7H2-1-4H3

>  <threshold>


>  <reference>
R23|

>  <group>
C

>  <Class>
-1

>  <ABC>
9.45

>  <ABCGG>
9.58

>  <nAcid>
0

>  <nBase>
1

>  <nAromAtom>
0

>  <nAromBond>
0

>  <nAtom>
33

>  <nHeavyAtom>
12

>  <nSpiro>
0

>  <nBridgehead>
2

>  <nHetero>
1

>  <nN>
1

>  <nO>
0

>  <nF>
0

>  <BalabanJ>
2.34

>  <BertzCT>
197.18

>  <nBonds>
34

>  <nBondsO>
13

>  <nBondsS>
34

>  <nBondsD>
0

>  <nBondsT>
0

>  <nBondsA>
0

>  <nBondsM>
0

>  <nBondsKS>
34

>  <nBondsKD>
0

>  <RNCG>
0.44

>  <RPCG>
0.17

>  <FCSP3>
1

>  <SZ>
15.67

>  <Sm>
13.93

>  <Sv>
17.45

>  <Sse>
31.99

>  <Sp>
20.04

>  <Si>
37.65

>  <MZ>
0.47

>  <Mm>
0.42

>  <Mv>
0.53

>  <Mse>
0.97

>  <Mp>
0.61

>  <Mi>
1.14

>  <NsCH3>
4

>  <NdCH2>
0

>  <NssCH2>
3

>  <NtCH>
0

>  <NdsCH>
0

>  <NaaCH>
0

>  <NsssCH>
2

>  <NddC>
0

>  <NtsC>
0

>  <NdssC>
0

>  <NaasC>
0

>  <NaaaC>
0

>  <NssssC>
2

>  <NsNH3>
0

>  <NsNH2>
0

>  <NssNH2>
0

>  <NdNH>
0

>  <NssNH>
1

>  <NaaNH>
0

>  <NtN>
0

>  <NsssNH>
0

>  <NdsN>
0

>  <NaaN>
0

>  <NsssN>
0

>  <NddsN>
0

>  <NaasN>
0

>  <NssssN>
0

>  <NsOH>
0

>  <NdO>
0

>  <NssO>
0

>  <NaaO>
0

>  <NsF>
0

>  <NsSiH3>
0

>  <NssSiH2>
0

>  <NsssSiH>
0

>  <NssssSi>
0

>  <NsPH2>
0

>  <NssPH>
0

>  <NsssP>
0

>  <NdsssP>
0

>  <NsssssP>
0

>  <NsSH>
0

>  <NdS>
0

>  <NssS>
0

>  <NaaS>
0

>  <NdssS>
0

>  <NddssS>
0

>  <NsCl>
0

>  <NsBr>
0

>  <NsI>
0

>  <fragCpx>
37.01

>  <fMF>
0.21

>  <nHBAcc>
1

>  <nHBDon>
1

>  <Kier1>
8.59

>  <Kier2>
2.27

>  <Lipinski>
1

>  <GhoseFilter>
1

>  <FilterItLogS>
-2.93

>  <VMcGowan>
154.11

>  <LabuteASA>
75.93

>  <PEOE_VSA1>
5.32

>  <PEOE_VSA2>
0

>  <PEOE_VSA3>
0

>  <PEOE_VSA4>
0

>  <PEOE_VSA5>
0

>  <PEOE_VSA6>
13.85

>  <PEOE_VSA7>
50.48

>  <PEOE_VSA8>
5.54

>  <PEOE_VSA9>
0

>  <PEOE_VSA10>
0

>  <PEOE_VSA11>
0

>  <PEOE_VSA12>
0

>  <PEOE_VSA13>
0

>  <SMR_VSA1>
0

>  <SMR_VSA2>
0

>  <SMR_VSA3>
5.32

>  <SMR_VSA4>
17.25

>  <SMR_VSA5>
45.57

>  <SMR_VSA6>
7.05

>  <SMR_VSA7>
0

>  <SMR_VSA8>
0

>  <SMR_VSA9>
0

>  <SlogP_VSA1>
5.32

>  <SlogP_VSA2>
12.59

>  <SlogP_VSA3>
0

>  <SlogP_VSA4>
17.25

>  <SlogP_VSA5>
40.03

>  <SlogP_VSA6>
0

>  <SlogP_VSA7>
0

>  <SlogP_VSA8>
0

>  <SlogP_VSA9>
0

>  <SlogP_VSA10>
0

>  <SlogP_VSA11>
0

>  <EState_VSA1>
0

>  <EState_VSA2>
0

>  <EState_VSA3>
10.95

>  <EState_VSA4>
11.84

>  <EState_VSA5>
19.26

>  <EState_VSA6>
0

>  <EState_VSA7>
0

>  <EState_VSA8>
33.14

>  <EState_VSA9>
0

>  <EState_VSA10>
0

>  <VSA_EState1>
0

>  <VSA_EState2>
0

>  <VSA_EState3>
3.56

>  <VSA_EState4>
0.9

>  <VSA_EState5>
1.91

>  <VSA_EState6>
0

>  <VSA_EState7>
4.38

>  <VSA_EState8>
7.29

>  <VSA_EState9>
2.13

>  <apol>
33.47

>  <bpol>
21.64

>  <nRing>
2

>  <nHRing>
0

>  <naRing>
0

>  <naHRing>
0

>  <nARing 2>
2

>  <nAHRing 2>
0

>  <nFRing>
1

>  <nFHRing>
0

>  <nFaRing>
0

>  <nFaHRing>
0

>  <nFARing 2>
1

>  <nFAHRing 2>
0

>  <nRot>
1

>  <SLogP>
2.42

>  <SMR>
52.08

>  <TopoPSA(NO)>
12.03

>  <TopoPSA>
12.03

>  <JGI1>
0.35

>  <JGI2>
0.17

>  <JGI3>
0.09

>  <JGI4>
0.07

>  <JGI5>
0.06

>  <Diameter>
5

>  <Radius>
3

>  <TMWC10>
97.72

>  <TSRW10>
61.09

>  <MW>
167.17

>  <AMW>
5.07

>  <WPath>
161

>  <WPol>
21

>  <Zagreb1>
70

>  <Zagreb2>
90

>  <mZagreb2>
2.52

>  <yes>


>  <nAR-cont>
1

>  <nHA-cont>
0.785745021

>  <MWHBN>
0.154685934

>  <MWHBN-cont>
0.944093878

>  <TPSA-cont>
0.91602313

>  <pka_cont>
0.97

>  <yes.1>


>  <BBB_SCORE>
5.518932098

>  <MMFF94 Energy>
56.444

$$$$
Compound 2786
Actelion Java MolfileCreator 2.0

  0  0  0  0  0  0              0 V3000
M  V30 BEGIN CTAB
M  V30 COUNTS 50 54 0 0 0
M  V30 BEGIN ATOM
M  V30 1 O 0.6436 3.3019 0.9655 0
M  V30 2 C 0.9161 2.8255 2.0588 0
M  V30 3 O 1.4653 3.5007 3.0994 0
M  V30 4 C 0.7006 1.3961 2.3962 0
M  V30 5 C 1.7114 4.8817 2.8328 0
M  V30 6 C 0.5055 1.023 3.6709 0
M  V30 7 C 0.5988 0.3935 1.2759 0
M  V30 8 O 0.1656 -0.2368 4.0937 0
M  V30 9 C 0.6752 -1.0436 1.838 0
M  V30 10 C 1.6781 0.5033 0.189 0
M  V30 11 C -0.2589 -1.1445 3.054 0
M  V30 12 C 0.372 -2.04 0.7126 0
M  V30 13 C 1.4424 -0.52 -0.9318 0
M  V30 14 C -0.2853 -2.533 3.6849 0
M  V30 15 N 1.3266 -1.9049 -0.4018 0
M  V30 16 C 0.2675 -0.2025 -1.8146 0
M  V30 17 C 1.011 -2.8585 -1.5002 0
M  V30 18 N -0.1799 1.0445 -2.1606 0
M  V30 19 C -0.5295 -1.1324 -2.4538 0
M  V30 20 C -0.315 -2.5955 -2.2642 0
M  V30 21 C -1.2659 0.9343 -3.0041 0
M  V30 22 C -1.505 -0.4274 -3.2065 0
M  V30 23 C -2.0488 1.933 -3.5958 0
M  V30 24 C -2.5755 -0.8104 -4.0377 0
M  V30 25 C -3.1047 1.5275 -4.4178 0
M  V30 26 C -3.3663 0.1768 -4.6374 0
M  V30 27 H 2.1466 5.328 3.7313 0
M  V30 28 H 2.4252 4.992 2.0105 0
M  V30 29 H 0.775 5.4017 2.6067 0
M  V30 30 H 0.5788 1.6853 4.5261 0
M  V30 31 H -0.3877 0.5485 0.8159 0
M  V30 32 H 1.7013 -1.2265 2.1951 0
M  V30 33 H 2.6659 0.3246 0.6371 0
M  V30 34 H 1.7268 1.5094 -0.2377 0
M  V30 35 H -1.286 -0.8746 2.7732 0
M  V30 36 H -0.6662 -1.9085 0.3846 0
M  V30 37 H 0.4579 -3.0603 1.1027 0
M  V30 38 H 2.3336 -0.4909 -1.5748 0
M  V30 39 H 0.7253 -2.8601 3.9523 0
M  V30 40 H -0.7323 -3.2755 3.0184 0
M  V30 41 H -0.8665 -2.5188 4.6139 0
M  V30 42 H 1.8412 -2.8232 -2.2191 0
M  V30 43 H 1.0094 -3.8854 -1.1137 0
M  V30 44 H 0.2022 1.9245 -1.8385 0
M  V30 45 H -1.1565 -3.0078 -1.6948 0
M  V30 46 H -0.2868 -3.1068 -3.2327 0
M  V30 47 H -1.8487 2.9858 -3.425 0
M  V30 48 H -2.7875 -1.8604 -4.2134 0
M  V30 49 H -3.731 2.2797 -4.8919 0
M  V30 50 H -4.1928 -0.1155 -5.2801 0
M  V30 END ATOM
M  V30 BEGIN BOND
M  V30 1 2 1 2
M  V30 2 1 2 3
M  V30 3 1 2 4
M  V30 4 1 3 5
M  V30 5 2 4 6
M  V30 6 1 4 7
M  V30 7 1 6 8
M  V30 8 1 7 9
M  V30 9 1 7 10
M  V30 10 1 8 11
M  V30 11 1 9 12
M  V30 12 1 10 13
M  V30 13 1 11 14
M  V30 14 1 12 15
M  V30 15 1 13 16
M  V30 16 1 15 17
M  V30 17 1 16 18
M  V30 18 2 16 19
M  V30 19 1 17 20
M  V30 20 1 18 21
M  V30 21 1 19 22
M  V30 22 1 21 23
M  V30 23 1 22 24
M  V30 24 2 23 25
M  V30 25 2 24 26
M  V30 26 1 9 11
M  V30 27 1 13 15
M  V30 28 1 19 20
M  V30 29 2 21 22
M  V30 30 1 25 26
M  V30 31 1 5 27
M  V30 32 1 5 28
M  V30 33 1 5 29
M  V30 34 1 6 30
M  V30 35 1 7 31
M  V30 36 1 9 32
M  V30 37 1 10 33
M  V30 38 1 10 34
M  V30 39 1 11 35
M  V30 40 1 12 36
M  V30 41 1 12 37
M  V30 42 1 13 38
M  V30 43 1 14 39
M  V30 44 1 14 40
M  V30 45 1 14 41
M  V30 46 1 17 42
M  V30 47 1 17 43
M  V30 48 1 18 44
M  V30 49 1 20 45
M  V30 50 1 20 46
M  V30 51 1 23 47
M  V30 52 1 24 48
M  V30 53 1 25 49
M  V30 54 1 26 50
M  V30 END BOND
M  V30 END CTAB
M  END
>  <Column 1>
3517

>  <level_0>
5773

>  <index>
5774

>  <Unnamed: 0>
5774

>  <NO.>
5786

>  <Name>
.delta.-yohimbine

>  <IUPAC_name>
methyl 16-methyl-17-oxa-3-13-diazapentacyclo[11.8.0.02-10.04-9.015-20]henicosa-2(10)-4-6-8-18-pentaene-19-carboxylate

>  <SMILES>
COC(=O)C1=COC(C)C2CN3CCc4c([nH]c5ccccc45)C3CC12

>  <CID>
251561

>  <logBB>


>  <BBB+/BBB->
BBB+

>  <Inchi>
InChI=1S/C21H24N2O3/c1-12-16-10-23-8-7-14-13-5-3-4-6-18(13)22-20(14)19(23)9-15(16)17(11-26-12)21(24)25-2/h3-6-11-12-15-16-19-22H-7-10H2-1-2H3

>  <threshold>


>  <reference>
R23|

>  <group>
C

>  <Class>
-1

>  <ABC>
21.07

>  <ABCGG>
15.83

>  <nAcid>
0

>  <nBase>
1

>  <nAromAtom>
9

>  <nAromBond>
10

>  <nAtom>
50

>  <nHeavyAtom>
26

>  <nSpiro>
0

>  <nBridgehead>
0

>  <nHetero>
5

>  <nN>
2

>  <nO>
3

>  <nF>
0

>  <BalabanJ>
1.38

>  <BertzCT>
899.79

>  <nBonds>
54

>  <nBondsO>
30

>  <nBondsS>
42

>  <nBondsD>
2

>  <nBondsT>
0

>  <nBondsA>
10

>  <nBondsM>
12

>  <nBondsKS>
48

>  <nBondsKD>
6

>  <RNCG>
0.23

>  <RPCG>
0.16

>  <FCSP3>
0.48

>  <SZ>
31.33

>  <Sm>
29.34

>  <Sv>
31.16

>  <Sse>
49.97

>  <Sp>
33.34

>  <Si>
56.19

>  <MZ>
0.63

>  <Mm>
0.59

>  <Mv>
0.62

>  <Mse>
1

>  <Mp>
0.67

>  <Mi>
1.12

>  <NsCH3>
2

>  <NdCH2>
0

>  <NssCH2>
4

>  <NtCH>
0

>  <NdsCH>
1

>  <NaaCH>
4

>  <NsssCH>
4

>  <NddC>
0

>  <NtsC>
0

>  <NdssC>
2

>  <NaasC>
2

>  <NaaaC>
2

>  <NssssC>
0

>  <NsNH3>
0

>  <NsNH2>
0

>  <NssNH2>
0

>  <NdNH>
0

>  <NssNH>
0

>  <NaaNH>
1

>  <NtN>
0

>  <NsssNH>
0

>  <NdsN>
0

>  <NaaN>
0

>  <NsssN>
1

>  <NddsN>
0

>  <NaasN>
0

>  <NssssN>
0

>  <NsOH>
0

>  <NdO>
1

>  <NssO>
2

>  <NaaO>
0

>  <NsF>
0

>  <NsSiH3>
0

>  <NssSiH2>
0

>  <NsssSiH>
0

>  <NssssSi>
0

>  <NsPH2>
0

>  <NssPH>
0

>  <NsssP>
0

>  <NdsssP>
0

>  <NsssssP>
0

>  <NsSH>
0

>  <NdS>
0

>  <NssS>
0

>  <NaaS>
0

>  <NdssS>
0

>  <NddssS>
0

>  <NsCl>
0

>  <NsBr>
0

>  <NsI>
0

>  <fragCpx>
250.05

>  <fMF>
0.42

>  <nHBAcc>
4

>  <nHBDon>
1

>  <Kier1>
18.06

>  <Kier2>
7.11

>  <Lipinski>
1

>  <GhoseFilter>
1

>  <FilterItLogS>
-3.78

>  <VMcGowan>
264.22

>  <LabuteASA>
152.51

>  <PEOE_VSA1>
14.46

>  <PEOE_VSA2>
4.9

>  <PEOE_VSA3>
4.79

>  <PEOE_VSA4>
0

>  <PEOE_VSA5>
0

>  <PEOE_VSA6>
18.2

>  <PEOE_VSA7>
31.4

>  <PEOE_VSA8>
41.52

>  <PEOE_VSA9>
31.09

>  <PEOE_VSA10>
0

>  <PEOE_VSA11>
0

>  <PEOE_VSA12>
0

>  <PEOE_VSA13>
0

>  <SMR_VSA1>
14.27

>  <SMR_VSA2>
0

>  <SMR_VSA3>
9.88

>  <SMR_VSA4>
11.84

>  <SMR_VSA5>
31.91

>  <SMR_VSA6>
20.2

>  <SMR_VSA7>
47.36

>  <SMR_VSA8>
0

>  <SMR_VSA9>
0

>  <SlogP_VSA1>
0

>  <SlogP_VSA2>
42.16

>  <SlogP_VSA3>
20.69

>  <SlogP_VSA4>
11.84

>  <SlogP_VSA5>
30.64

>  <SlogP_VSA6>
36.1

>  <SlogP_VSA7>
0

>  <SlogP_VSA8>
10.9

>  <SlogP_VSA9>
0

>  <SlogP_VSA10>
0

>  <SlogP_VSA11>
0

>  <EState_VSA1>
0

>  <EState_VSA2>
17.99

>  <EState_VSA3>
17.53

>  <EState_VSA4>
25.93

>  <EState_VSA5>
29.27

>  <EState_VSA6>
6.26

>  <EState_VSA7>
0

>  <EState_VSA8>
41.07

>  <EState_VSA9>
9.47

>  <EState_VSA10>
4.79

>  <VSA_EState1>
10.8

>  <VSA_EState2>
18.52

>  <VSA_EState3>
1.34

>  <VSA_EState4>
4.69

>  <VSA_EState5>
0.26

>  <VSA_EState6>
8.88

>  <VSA_EState7>
3.77

>  <VSA_EState8>
4.13

>  <VSA_EState9>
1.45

>  <apol>
55.68

>  <bpol>
30.7

>  <nRing>
5

>  <nHRing>
4

>  <naRing>
2

>  <naHRing>
1

>  <nARing 2>
3

>  <nAHRing 2>
3

>  <nFRing>
1

>  <nFHRing>
1

>  <nFaRing>
0

>  <nFaHRing>
0

>  <nFARing 2>
1

>  <nFAHRing 2>
1

>  <nRot>
1

>  <SLogP>
3.18

>  <SMR>
98.56

>  <TopoPSA(NO)>
54.56

>  <TopoPSA>
54.56

>  <JGI1>
0.15

>  <JGI2>
0.08

>  <JGI3>
0.05

>  <JGI4>
0.05

>  <JGI5>
0.03

>  <Diameter>
11

>  <Radius>
6

>  <TMWC10>
134.53

>  <TSRW10>
76.26

>  <MW>
352.18

>  <AMW>
7.04

>  <WPath>
1517

>  <WPol>
50

>  <Zagreb1>
150

>  <Zagreb2>
187

>  <mZagreb2>
5.58

>  <yes>


>  <nAR-cont>
0.691115

>  <nHA-cont>
0.892715677

>  <MWHBN>
0.266432782

>  <MWHBN-cont>
0.928035715

>  <TPSA-cont>
0.61913732

>  <pka_cont>
0.97

>  <yes.1>


>  <BBB_SCORE>
4.699158891

>  <MMFF94 Energy>
30.675

$$$$
Compound 2787
Actelion Java MolfileCreator 2.0

  0  0  0  0  0  0              0 V3000
M  V30 BEGIN CTAB
M  V30 COUNTS 73 77 0 0 0
M  V30 BEGIN ATOM
M  V30 1 O -8.3837 1.274 4.9439 0
M  V30 2 C -7.6404 2.1941 4.6407 0
M  V30 3 O -7.893 3.5131 4.8376 0
M  V30 4 C -6.3117 2.002 3.9943 0
M  V30 5 C -9.1547 3.7746 5.4541 0
M  V30 6 C -5.4828 3.0859 3.663 0
M  V30 7 C -5.9026 0.6941 3.7171 0
M  V30 8 C -4.2483 2.8067 3.0572 0
M  V30 9 C -4.6654 0.4383 3.1101 0
M  V30 10 N -3.2644 3.6663 2.6293 0
M  V30 11 C -3.8112 1.5118 2.7775 0
M  V30 12 C -2.2065 2.9694 2.1089 0
M  V30 13 C -2.5147 1.6188 2.1637 0
M  V30 14 O -1.1077 3.5855 1.6858 0
M  V30 15 C -1.6441 0.5439 1.686 0
M  V30 16 N -1.0968 0.7119 0.5168 0
M  V30 17 C -1.4759 -0.6313 2.5824 0
M  V30 18 C -0.1774 -0.2064 5.0E-4 0
M  V30 19 C -1.802 -1.9159 2.1337 0
M  V30 20 C -1.0075 -0.4392 3.8876 0
M  V30 21 C 1.11 -0.3217 0.5356 0
M  V30 22 C -0.5259 -0.9741 -1.114 0
M  V30 23 C -1.651 -3.0077 2.9888 0
M  V30 24 C -0.8595 -1.5349 4.7384 0
M  V30 25 C 2.0247 -1.2261 -0.0065 0
M  V30 26 C 0.3826 -1.8804 -1.6635 0
M  V30 27 C -1.1801 -2.8165 4.2885 0
M  V30 28 C 1.6577 -2.0014 -1.1076 0
M  V30 29 N 2.5796 -2.915 -1.6561 0
M  V30 30 C 3.3241 -2.6576 -2.8116 0
M  V30 31 C 2.6314 -4.2299 -1.0357 0
M  V30 32 O 4.015 -3.538 -3.3328 0
M  V30 33 C 3.2146 -1.227 -3.3944 0
M  V30 34 N 4.2771 -0.9257 -4.3806 0
M  V30 35 C 5.6018 -0.818 -3.7328 0
M  V30 36 C 3.9807 0.3407 -5.0792 0
M  V30 37 C 6.7111 -0.4287 -4.7375 0
M  V30 38 C 5.0906 0.7312 -6.0819 0
M  V30 39 N 6.412 0.8389 -5.4335 0
M  V30 40 C 7.4472 1.1423 -6.4182 0
M  V30 41 H -9.259 4.8575 5.5654 0
M  V30 42 H -9.9724 3.411 4.8239 0
M  V30 43 H -9.1977 3.3187 6.4482 0
M  V30 44 H -5.7803 4.1104 3.8628 0
M  V30 45 H -6.5478 -0.146 3.9701 0
M  V30 46 H -4.3798 -0.5884 2.9013 0
M  V30 47 H -3.3138 4.6698 2.7199 0
M  V30 48 H -1.263 4.54 1.6035 0
M  V30 49 H -2.1821 -2.0685 1.1274 0
M  V30 50 H -0.7525 0.5568 4.2416 0
M  V30 51 H 1.3989 0.3014 1.3778 0
M  V30 52 H -1.5141 -0.8603 -1.5516 0
M  V30 53 H -1.9022 -4.0074 2.6432 0
M  V30 54 H -0.4941 -1.3902 5.7521 0
M  V30 55 H 3.0181 -1.3108 0.4246 0
M  V30 56 H 0.0926 -2.4797 -2.5222 0
M  V30 57 H -1.0636 -3.6689 4.9537 0
M  V30 58 H 1.7575 -4.8045 -1.3586 0
M  V30 59 H 3.5341 -4.772 -1.3312 0
M  V30 60 H 2.6259 -4.1341 0.0546 0
M  V30 61 H 2.2389 -1.1779 -3.8931 0
M  V30 62 H 3.2321 -0.4848 -2.589 0
M  V30 63 H 5.5748 -0.073 -2.9258 0
M  V30 64 H 5.8856 -1.774 -3.28 0
M  V30 65 H 3.8464 1.1574 -4.3567 0
M  V30 66 H 3.041 0.2392 -5.6355 0
M  V30 67 H 6.8426 -1.2459 -5.4599 0
M  V30 68 H 7.6528 -0.3262 -4.1847 0
M  V30 69 H 5.1163 -0.009 -6.8932 0
M  V30 70 H 4.8243 1.6967 -6.529 0
M  V30 71 H 7.5315 0.3668 -7.1879 0
M  V30 72 H 8.4216 1.2492 -5.929 0
M  V30 73 H 7.2369 2.0969 -6.9132 0
M  V30 END ATOM
M  V30 BEGIN BOND
M  V30 1 2 1 2
M  V30 2 1 2 3
M  V30 3 1 2 4
M  V30 4 1 3 5
M  V30 5 2 4 6
M  V30 6 1 4 7
M  V30 7 1 6 8
M  V30 8 2 7 9
M  V30 9 1 8 10
M  V30 10 2 8 11
M  V30 11 1 10 12
M  V30 12 1 11 13
M  V30 13 1 12 14
M  V30 14 1 13 15
M  V30 15 2 15 16
M  V30 16 1 15 17
M  V30 17 1 16 18
M  V30 18 2 17 19
M  V30 19 1 17 20
M  V30 20 2 18 21
M  V30 21 1 18 22
M  V30 22 1 19 23
M  V30 23 2 20 24
M  V30 24 1 21 25
M  V30 25 2 22 26
M  V30 26 2 23 27
M  V30 27 2 25 28
M  V30 28 1 28 29
M  V30 29 1 29 30
M  V30 30 1 29 31
M  V30 31 2 30 32
M  V30 32 1 30 33
M  V30 33 1 33 34
M  V30 34 1 34 35
M  V30 35 1 34 36
M  V30 36 1 35 37
M  V30 37 1 36 38
M  V30 38 1 37 39
M  V30 39 1 39 40
M  V30 40 1 9 11
M  V30 41 2 12 13
M  V30 42 1 24 27
M  V30 43 1 26 28
M  V30 44 1 38 39
M  V30 45 1 5 41
M  V30 46 1 5 42
M  V30 47 1 5 43
M  V30 48 1 6 44
M  V30 49 1 7 45
M  V30 50 1 9 46
M  V30 51 1 10 47
M  V30 52 1 14 48
M  V30 53 1 19 49
M  V30 54 1 20 50
M  V30 55 1 21 51
M  V30 56 1 22 52
M  V30 57 1 23 53
M  V30 58 1 24 54
M  V30 59 1 25 55
M  V30 60 1 26 56
M  V30 61 1 27 57
M  V30 62 1 31 58
M  V30 63 1 31 59
M  V30 64 1 31 60
M  V30 65 1 33 61
M  V30 66 1 33 62
M  V30 67 1 35 63
M  V30 68 1 35 64
M  V30 69 1 36 65
M  V30 70 1 36 66
M  V30 71 1 37 67
M  V30 72 1 37 68
M  V30 73 1 38 69
M  V30 74 1 38 70
M  V30 75 1 40 71
M  V30 76 1 40 72
M  V30 77 1 40 73
M  V30 END BOND
M  V30 END CTAB
M  END
>  <Column 1>
3520

>  <level_0>
5778

>  <index>
5779

>  <Unnamed: 0>
5779

>  <NO.>
5791

>  <Name>
nintedanib

>  <IUPAC_name>
methyl 2-hydroxy-3-[n-[4-[methyl-[2-(4-methylpiperazin-1-yl)acetyl]amino]phenyl]-c-phenylcarbonimidoyl]-1h-indole-6-carboxylate

>  <SMILES>
COC(=O)c1ccc2c(C(=Nc3ccc(N(C)C(=O)CN4CCN(C)CC4)cc3)c3ccccc3)c(O)[nH]c2c1

>  <CID>
135423438

>  <logBB>


>  <BBB+/BBB->
BBB-

>  <Inchi>
InChI=1S/C31H33N5O4/c1-34-15-17-36(18-16-34)20-27(37)35(2)24-12-10-23(11-13-24)32-29(21-7-5-4-6-8-21)28-25-14-9-22(31(39)40-3)19-26(25)33-30(28)38/h4-14-19-33-38H-15-18-20H2-1-3H3

>  <threshold>


>  <reference>
R23|

>  <group>
C

>  <Class>
-1

>  <ABC>
31.34

>  <ABCGG>
22.84

>  <nAcid>
0

>  <nBase>
2

>  <nAromAtom>
21

>  <nAromBond>
22

>  <nAtom>
73

>  <nHeavyAtom>
40

>  <nSpiro>
0

>  <nBridgehead>
0

>  <nHetero>
9

>  <nN>
5

>  <nO>
4

>  <nF>
0

>  <BalabanJ>
1.17

>  <BertzCT>
1537.51

>  <nBonds>
77

>  <nBondsO>
44

>  <nBondsS>
52

>  <nBondsD>
3

>  <nBondsT>
0

>  <nBondsA>
22

>  <nBondsM>
25

>  <nBondsKS>
64

>  <nBondsKD>
13

>  <RNCG>
0.14

>  <RPCG>
0.1

>  <FCSP3>
0.26

>  <SZ>
47.67

>  <Sm>
44.93

>  <Sv>
46.59

>  <Sse>
73.29

>  <Sp>
49.39

>  <Si>
82.14

>  <MZ>
0.65

>  <Mm>
0.62

>  <Mv>
0.64

>  <Mse>
1

>  <Mp>
0.68

>  <Mi>
1.13

>  <NsCH3>
3

>  <NdCH2>
0

>  <NssCH2>
5

>  <NtCH>
0

>  <NdsCH>
0

>  <NaaCH>
12

>  <NsssCH>
0

>  <NddC>
0

>  <NtsC>
0

>  <NdssC>
3

>  <NaasC>
6

>  <NaaaC>
2

>  <NssssC>
0

>  <NsNH3>
0

>  <NsNH2>
0

>  <NssNH2>
0

>  <NdNH>
0

>  <NssNH>
0

>  <NaaNH>
1

>  <NtN>
0

>  <NsssNH>
0

>  <NdsN>
1

>  <NaaN>
0

>  <NsssN>
3

>  <NddsN>
0

>  <NaasN>
0

>  <NssssN>
0

>  <NsOH>
1

>  <NdO>
2

>  <NssO>
1

>  <NaaO>
0

>  <NsF>
0

>  <NsSiH3>
0

>  <NssSiH2>
0

>  <NsssSiH>
0

>  <NssssSi>
0

>  <NsPH2>
0

>  <NssPH>
0

>  <NsssP>
0

>  <NdsssP>
0

>  <NsssssP>
0

>  <NsSH>
0

>  <NdS>
0

>  <NssS>
0

>  <NaaS>
0

>  <NdssS>
0

>  <NddssS>
0

>  <NsCl>
0

>  <NsBr>
0

>  <NsI>
0

>  <fragCpx>
376.09

>  <fMF>
0.44

>  <nHBAcc>
7

>  <nHBDon>
2

>  <Kier1>
31.43

>  <Kier2>
14.65

>  <Lipinski>
0

>  <GhoseFilter>
0

>  <FilterItLogS>
-6.12

>  <VMcGowan>
410.83

>  <LabuteASA>
232.85

>  <PEOE_VSA1>
24.63

>  <PEOE_VSA2>
9.69

>  <PEOE_VSA3>
9.79

>  <PEOE_VSA4>
0

>  <PEOE_VSA5>
0

>  <PEOE_VSA6>
36.4

>  <PEOE_VSA7>
43.45

>  <PEOE_VSA8>
55.38

>  <PEOE_VSA9>
36.18

>  <PEOE_VSA10>
0

>  <PEOE_VSA11>
5.88

>  <PEOE_VSA12>
5.91

>  <PEOE_VSA13>
0

>  <SMR_VSA1>
19.43

>  <SMR_VSA2>
0

>  <SMR_VSA3>
14.78

>  <SMR_VSA4>
4.99

>  <SMR_VSA5>
0

>  <SMR_VSA6>
58.83

>  <SMR_VSA7>
89.49

>  <SMR_VSA8>
0

>  <SMR_VSA9>
5.88

>  <SlogP_VSA1>
4.9

>  <SlogP_VSA2>
91.41

>  <SlogP_VSA3>
9.53

>  <SlogP_VSA4>
0

>  <SlogP_VSA5>
21.48

>  <SlogP_VSA6>
77.79

>  <SlogP_VSA7>
0

>  <SlogP_VSA8>
10.9

>  <SlogP_VSA9>
0

>  <SlogP_VSA10>
11.37

>  <SlogP_VSA11>
5.88

>  <EState_VSA1>
5.97

>  <EState_VSA2>
11.79

>  <EState_VSA3>
34.59

>  <EState_VSA4>
42.82

>  <EState_VSA5>
7.11

>  <EState_VSA6>
30.15

>  <EState_VSA7>
54.6

>  <EState_VSA8>
21.83

>  <EState_VSA9>
9.73

>  <EState_VSA10>
14.7

>  <VSA_EState1>
4.83

>  <VSA_EState2>
38.98

>  <VSA_EState3>
11.68

>  <VSA_EState4>
4.34

>  <VSA_EState5>
-0.46

>  <VSA_EState6>
22.16

>  <VSA_EState7>
0

>  <VSA_EState8>
4.09

>  <VSA_EState9>
5.22

>  <apol>
82.48

>  <bpol>
43.42

>  <nRing>
5

>  <nHRing>
2

>  <naRing>
4

>  <naHRing>
1

>  <nARing 2>
1

>  <nAHRing 2>
1

>  <nFRing>
1

>  <nFHRing>
1

>  <nFaRing>
1

>  <nFaHRing>
1

>  <nFARing 2>
0

>  <nFAHRing 2>
0

>  <nRot>
7

>  <SLogP>
4.04

>  <SMR>
156.83

>  <TopoPSA(NO)>
101.47

>  <TopoPSA>
101.47

>  <JGI1>
0.18

>  <JGI2>
0.08

>  <JGI3>
0.05

>  <JGI4>
0.04

>  <JGI5>
0.03

>  <Diameter>
21

>  <Radius>
11

>  <TMWC10>
163.97

>  <TSRW10>
91.48

>  <MW>
539.25

>  <AMW>
7.39

>  <WPath>
5935

>  <WPol>
66

>  <Zagreb1>
212

>  <Zagreb2>
251

>  <mZagreb2>
8.81

>  <yes>


>  <nAR-cont>
0.816016

>  <nHA-cont>
0.308539627

>  <MWHBN>
0.387567572

>  <MWHBN-cont>
0.525046798

>  <TPSA-cont>
0.291676391

>  <pka_cont>
0.97

>  <yes.1>


>  <BBB_SCORE>
2.980478606

>  <MMFF94 Energy>
206.07

$$$$
Compound 2788
Actelion Java MolfileCreator 2.0

  0  0  0  0  0  0              0 V3000
M  V30 BEGIN CTAB
M  V30 COUNTS 41 43 0 0 0
M  V30 BEGIN ATOM
M  V30 1 Cl 3.6553 -0.2433 0.9737 0
M  V30 2 C 2.0069 -0.5371 1.401 0
M  V30 3 C 1.6655 -1.233 2.5766 0
M  V30 4 C 0.9919 -0.0784 0.5769 0
M  V30 5 O 2.7117 -1.6608 3.3551 0
M  V30 6 C 0.3055 -1.4465 2.892 0
M  V30 7 O 1.1946 0.6097 -0.594 0
M  V30 8 C -0.3292 -0.3012 0.907 0
M  V30 9 C 2.4163 -2.3997 4.5325 0
M  V30 10 C -0.7151 -0.9786 2.053 0
M  V30 11 C -0.1177 0.8956 -1.1547 0
M  V30 12 C -1.1058 0.3036 -0.1529 0
M  V30 13 O -2.051 -1.1282 2.2694 0
M  V30 14 C -0.2842 0.1699 -2.4853 0
M  V30 15 C -0.2863 2.4308 -1.2572 0
M  V30 16 O -2.3225 0.3365 -0.2136 0
M  V30 17 C -2.4651 -1.8515 3.4205 0
M  V30 18 O 0.2742 -1.098 -2.4923 0
M  V30 19 C -0.9144 0.7363 -3.5303 0
M  V30 20 C -1.5125 2.797 -2.1002 0
M  V30 21 C 0.9684 3.1293 -1.8086 0
M  V30 22 C 0.195 -1.8684 -3.6863 0
M  V30 23 C -1.5203 2.0861 -3.433 0
M  V30 24 O -2.0523 2.5729 -4.428 0
M  V30 25 H 0.0447 -1.9779 3.7991 0
M  V30 26 H 1.8497 -1.7928 5.2462 0
M  V30 27 H 3.3656 -2.6689 5.0053 0
M  V30 28 H 1.8883 -3.3285 4.2937 0
M  V30 29 H -0.4415 2.8395 -0.2488 0
M  V30 30 H -2.0988 -2.8829 3.3911 0
M  V30 31 H -3.5588 -1.8857 3.4193 0
M  V30 32 H -2.148 -1.3454 4.3381 0
M  V30 33 H -1.0435 0.2586 -4.4925 0
M  V30 34 H -2.4403 2.5383 -1.5791 0
M  V30 35 H -1.5326 3.8775 -2.2841 0
M  V30 36 H 0.8018 4.2084 -1.8976 0
M  V30 37 H 1.2491 2.7502 -2.7962 0
M  V30 38 H 1.8228 2.991 -1.1382 0
M  V30 39 H -0.8474 -2.0711 -3.9519 0
M  V30 40 H 0.6882 -2.827 -3.5006 0
M  V30 41 H 0.7209 -1.3715 -4.5076 0
M  V30 END ATOM
M  V30 BEGIN BOND
M  V30 1 1 1 2
M  V30 2 2 2 3
M  V30 3 1 2 4
M  V30 4 1 3 5
M  V30 5 1 3 6
M  V30 6 1 4 7
M  V30 7 2 4 8
M  V30 8 1 5 9
M  V30 9 2 6 10
M  V30 10 1 7 11
M  V30 11 1 8 12
M  V30 12 1 10 13
M  V30 13 1 11 14
M  V30 14 1 11 15
M  V30 15 2 12 16
M  V30 16 1 13 17
M  V30 17 1 14 18
M  V30 18 2 14 19
M  V30 19 1 15 20
M  V30 20 1 15 21
M  V30 21 1 18 22
M  V30 22 1 19 23
M  V30 23 2 23 24
M  V30 24 1 8 10
M  V30 25 1 11 12
M  V30 26 1 20 23
M  V30 27 1 6 25
M  V30 28 1 9 26
M  V30 29 1 9 27
M  V30 30 1 9 28
M  V30 31 1 15 29
M  V30 32 1 17 30
M  V30 33 1 17 31
M  V30 34 1 17 32
M  V30 35 1 19 33
M  V30 36 1 20 34
M  V30 37 1 20 35
M  V30 38 1 21 36
M  V30 39 1 21 37
M  V30 40 1 21 38
M  V30 41 1 22 39
M  V30 42 1 22 40
M  V30 43 1 22 41
M  V30 END BOND
M  V30 END CTAB
M  END
>  <Column 1>
3521

>  <level_0>
5780

>  <index>
5781

>  <Unnamed: 0>
5781

>  <NO.>
5793

>  <Name>
griseofulvin

>  <IUPAC_name>
7-chloro-3'-4-6-trimethoxy-5'-methylspiro[1-benzofuran-2-4'-cyclohex-2-ene]-1'-3-dione

>  <SMILES>
COC1=CC(=O)CC(C)C12Oc1c(Cl)c(OC)cc(OC)c1C2=O

>  <CID>
3512

>  <logBB>


>  <BBB+/BBB->
BBB-

>  <Inchi>
InChI=1S/C17H17ClO6/c1-8-5-9(19)6-12(23-4)17(8)16(20)13-10(21-2)7-11(22-3)14(18)15(13)24-17/h6-8H-5H2-1-4H3

>  <threshold>


>  <reference>
R23|

>  <group>
C

>  <Class>
-1

>  <ABC>
18.44

>  <ABCGG>
16.34

>  <nAcid>
0

>  <nBase>
0

>  <nAromAtom>
6

>  <nAromBond>
6

>  <nAtom>
41

>  <nHeavyAtom>
24

>  <nSpiro>
1

>  <nBridgehead>
0

>  <nHetero>
7

>  <nN>
0

>  <nO>
6

>  <nF>
0

>  <BalabanJ>
1.97

>  <BertzCT>
768.83

>  <nBonds>
43

>  <nBondsO>
26

>  <nBondsS>
34

>  <nBondsD>
3

>  <nBondsT>
0

>  <nBondsA>
6

>  <nBondsM>
9

>  <nBondsKS>
37

>  <nBondsKD>
6

>  <RNCG>
0.19

>  <RPCG>
0.09

>  <FCSP3>
0.41

>  <SZ>
30.67

>  <Sm>
29.37

>  <Sv>
26.99

>  <Sse>
42.3

>  <Sp>
27.97

>  <Si>
45.94

>  <MZ>
0.75

>  <Mm>
0.72

>  <Mv>
0.66

>  <Mse>
1.03

>  <Mp>
0.68

>  <Mi>
1.12

>  <NsCH3>
4

>  <NdCH2>
0

>  <NssCH2>
1

>  <NtCH>
0

>  <NdsCH>
1

>  <NaaCH>
1

>  <NsssCH>
1

>  <NddC>
0

>  <NtsC>
0

>  <NdssC>
3

>  <NaasC>
5

>  <NaaaC>
0

>  <NssssC>
1

>  <NsNH3>
0

>  <NsNH2>
0

>  <NssNH2>
0

>  <NdNH>
0

>  <NssNH>
0

>  <NaaNH>
0

>  <NtN>
0

>  <NsssNH>
0

>  <NdsN>
0

>  <NaaN>
0

>  <NsssN>
0

>  <NddsN>
0

>  <NaasN>
0

>  <NssssN>
0

>  <NsOH>
0

>  <NdO>
2

>  <NssO>
4

>  <NaaO>
0

>  <NsF>
0

>  <NsSiH3>
0

>  <NssSiH2>
0

>  <NsssSiH>
0

>  <NssssSi>
0

>  <NsPH2>
0

>  <NssPH>
0

>  <NsssP>
0

>  <NdsssP>
0

>  <NsssssP>
0

>  <NsSH>
0

>  <NdS>
0

>  <NssS>
0

>  <NaaS>
0

>  <NdssS>
0

>  <NddssS>
0

>  <NsCl>
1

>  <NsBr>
0

>  <NsI>
0

>  <fragCpx>
124.07

>  <fMF>
0.34

>  <nHBAcc>
6

>  <nHBDon>
0

>  <Kier1>
18.78

>  <Kier2>
6.96

>  <Lipinski>
1

>  <GhoseFilter>
1

>  <FilterItLogS>
-4.56

>  <VMcGowan>
239.47

>  <LabuteASA>
143.82

>  <PEOE_VSA1>
18.95

>  <PEOE_VSA2>
9.59

>  <PEOE_VSA3>
0

>  <PEOE_VSA4>
0

>  <PEOE_VSA5>
0

>  <PEOE_VSA6>
18.52

>  <PEOE_VSA7>
0

>  <PEOE_VSA8>
24.48

>  <PEOE_VSA9>
21.33

>  <PEOE_VSA10>
22.09

>  <PEOE_VSA11>
17.29

>  <PEOE_VSA12>
11.38

>  <PEOE_VSA13>
0

>  <SMR_VSA1>
28.54

>  <SMR_VSA2>
0

>  <SMR_VSA3>
0

>  <SMR_VSA4>
5.92

>  <SMR_VSA5>
18.95

>  <SMR_VSA6>
21.33

>  <SMR_VSA7>
28.49

>  <SMR_VSA8>
0

>  <SMR_VSA9>
17.25

>  <SlogP_VSA1>
14.21

>  <SlogP_VSA2>
38.5

>  <SlogP_VSA3>
9.53

>  <SlogP_VSA4>
5.92

>  <SlogP_VSA5>
23.7

>  <SlogP_VSA6>
17.9

>  <SlogP_VSA7>
5.02

>  <SlogP_VSA8>
0

>  <SlogP_VSA9>
0

>  <SlogP_VSA10>
0

>  <SlogP_VSA11>
17.25

>  <EState_VSA1>
11.52

>  <EState_VSA2>
40.08

>  <EState_VSA3>
11.5

>  <EState_VSA4>
0

>  <EState_VSA5>
33.47

>  <EState_VSA6>
6.92

>  <EState_VSA7>
0

>  <EState_VSA8>
0

>  <EState_VSA9>
30.55

>  <EState_VSA10>
9.59

>  <VSA_EState1>
21.9

>  <VSA_EState2>
25.11

>  <VSA_EState3>
0.18

>  <VSA_EState4>
-1.19

>  <VSA_EState5>
0.11

>  <VSA_EState6>
1.54

>  <VSA_EState7>
1.48

>  <VSA_EState8>
1.77

>  <VSA_EState9>
4.31

>  <apol>
46.72

>  <bpol>
26.24

>  <nRing>
3

>  <nHRing>
1

>  <naRing>
1

>  <naHRing>
0

>  <nARing 2>
2

>  <nAHRing 2>
1

>  <nFRing>
1

>  <nFHRing>
1

>  <nFaRing>
0

>  <nFaHRing>
0

>  <nFARing 2>
1

>  <nFAHRing 2>
1

>  <nRot>
3

>  <SLogP>
2.81

>  <SMR>
86.13

>  <TopoPSA(NO)>
71.06

>  <TopoPSA>
71.06

>  <JGI1>
0.25

>  <JGI2>
0.11

>  <JGI3>
0.08

>  <JGI4>
0.06

>  <JGI5>
0.04

>  <Diameter>
10

>  <Radius>
5

>  <TMWC10>
128.24

>  <TSRW10>
74.17

>  <MW>
352.07

>  <AMW>
8.59

>  <WPath>
1137

>  <WPol>
50

>  <Zagreb1>
132

>  <Zagreb2>
167

>  <mZagreb2>
5.43

>  <yes>


>  <nAR-cont>
1

>  <nHA-cont>
0.94700071

>  <MWHBN>
0.319769281

>  <MWHBN-cont>
0.777937319

>  <TPSA-cont>
0.503957074

>  <pka_cont>
0.97

>  <yes.1>


>  <BBB_SCORE>
4.606820836

>  <MMFF94 Energy>
105.18

$$$$
Compound 2789
Actelion Java MolfileCreator 2.0

  0  0  0  0  0  0              0 V3000
M  V30 BEGIN CTAB
M  V30 COUNTS 47 50 0 0 0
M  V30 BEGIN ATOM
M  V30 1 O 1.776 -0.3227 0.4034 0
M  V30 2 O 1.9424 0.338 1.6973 0
M  V30 3 C 0.4771 0.0163 -0.1491 0
M  V30 4 C 1.5785 1.7163 1.5614 0
M  V30 5 C -0.4395 0.7089 0.9059 0
M  V30 6 C 0.8383 0.9416 -1.3555 0
M  V30 7 C -0.1554 -1.3243 -0.6078 0
M  V30 8 O 0.1621 1.8787 1.4668 0
M  V30 9 C 2.2542 2.3578 0.3336 0
M  V30 10 C 2.0352 2.4089 2.8427 0
M  V30 11 O -0.8125 -0.1643 1.9729 0
M  V30 12 C -0.3239 1.0947 -2.3712 0
M  V30 13 C 1.3823 2.3274 -0.9287 0
M  V30 14 C -0.6877 -2.1651 0.5868 0
M  V30 15 C -1.2896 -1.1094 -1.626 0
M  V30 16 C -1.5487 -1.2986 1.531 0
M  V30 17 C -0.8342 -0.2794 -2.8147 0
M  V30 18 C 0.0766 1.901 -3.6127 0
M  V30 19 C 0.4441 -2.8716 1.3487 0
M  V30 20 O -1.9601 -2.0402 2.679 0
M  V30 21 C -3.1177 -2.8293 2.456 0
M  V30 22 H -1.3651 1.0551 0.4322 0
M  V30 23 H 1.67 0.4516 -1.8864 0
M  V30 24 H 0.6197 -1.9183 -1.1134 0
M  V30 25 H 2.4632 3.4163 0.5368 0
M  V30 26 H 3.2213 1.8805 0.1338 0
M  V30 27 H 3.119 2.3249 2.9762 0
M  V30 28 H 1.5639 1.9434 3.7166 0
M  V30 29 H 1.7514 3.4668 2.8507 0
M  V30 30 H -1.152 1.6288 -1.8866 0
M  V30 31 H 1.9728 2.7506 -1.7511 0
M  V30 32 H 0.541 3.0183 -0.7818 0
M  V30 33 H -1.313 -2.9733 0.1856 0
M  V30 34 H -2.1521 -0.6182 -1.1624 0
M  V30 35 H -1.6442 -2.0816 -1.9901 0
M  V30 36 H -2.4462 -0.9308 1.0189 0
M  V30 37 H -0.0486 -0.8175 -3.3604 0
M  V30 38 H -1.6761 -0.1605 -3.5078 0
M  V30 39 H -0.74 1.9217 -4.3427 0
M  V30 40 H 0.3039 2.9409 -3.359 0
M  V30 41 H 0.9552 1.4667 -4.1014 0
M  V30 42 H 1.1212 -3.3845 0.6578 0
M  V30 43 H 1.0316 -2.1827 1.9604 0
M  V30 44 H 0.0345 -3.6319 2.0231 0
M  V30 45 H -2.9403 -3.5786 1.68 0
M  V30 46 H -3.3616 -3.3495 3.3864 0
M  V30 47 H -3.9677 -2.1968 2.182 0
M  V30 END ATOM
M  V30 BEGIN BOND
M  V30 1 1 1 2
M  V30 2 1 1 3
M  V30 3 1 2 4
M  V30 4 1 3 5
M  V30 5 1 3 6
M  V30 6 1 3 7
M  V30 7 1 4 8
M  V30 8 1 4 9
M  V30 9 1 4 10
M  V30 10 1 5 11
M  V30 11 1 6 12
M  V30 12 1 6 13
M  V30 13 1 7 14
M  V30 14 1 7 15
M  V30 15 1 11 16
M  V30 16 1 12 17
M  V30 17 1 12 18
M  V30 18 1 14 19
M  V30 19 1 16 20
M  V30 20 1 20 21
M  V30 21 1 5 8
M  V30 22 1 9 13
M  V30 23 1 14 16
M  V30 24 1 15 17
M  V30 25 1 5 22
M  V30 26 1 6 23
M  V30 27 1 7 24
M  V30 28 1 9 25
M  V30 29 1 9 26
M  V30 30 1 10 27
M  V30 31 1 10 28
M  V30 32 1 10 29
M  V30 33 1 12 30
M  V30 34 1 13 31
M  V30 35 1 13 32
M  V30 36 1 14 33
M  V30 37 1 15 34
M  V30 38 1 15 35
M  V30 39 1 16 36
M  V30 40 1 17 37
M  V30 41 1 17 38
M  V30 42 1 18 39
M  V30 43 1 18 40
M  V30 44 1 18 41
M  V30 45 1 19 42
M  V30 46 1 19 43
M  V30 47 1 19 44
M  V30 48 1 21 45
M  V30 49 1 21 46
M  V30 50 1 21 47
M  V30 END BOND
M  V30 END CTAB
M  END
>  <Column 1>
3522

>  <level_0>
5781

>  <index>
5782

>  <Unnamed: 0>
5782

>  <NO.>
5794

>  <Name>
71963-77-4

>  <IUPAC_name>
10-methoxy-1-5-9-trimethyl-11-14-15-16-tetraoxatetracyclo[10.3.1.04-13.08-13]hexadecane

>  <SMILES>
COC1OC2OC3(C)CCC4C(C)CCC(C1C)C24OO3

>  <CID>
500199

>  <logBB>


>  <BBB+/BBB->
BBB-

>  <Inchi>
InChI=1S/C16H26O5/c1-9-5-6-12-10(2)13(17-4)18-14-16(12)11(9)7-8-15(3-19-14)20-21-16/h9-14H-5-8H2-1-4H3

>  <threshold>


>  <reference>
R23|

>  <group>
C

>  <Class>
-1

>  <ABC>
17.04

>  <ABCGG>
13.64

>  <nAcid>
0

>  <nBase>
0

>  <nAromAtom>
0

>  <nAromBond>
0

>  <nAtom>
47

>  <nHeavyAtom>
21

>  <nSpiro>
1

>  <nBridgehead>
2

>  <nHetero>
5

>  <nN>
0

>  <nO>
5

>  <nF>
0

>  <BalabanJ>
1.79

>  <BertzCT>
428.89

>  <nBonds>
50

>  <nBondsO>
24

>  <nBondsS>
50

>  <nBondsD>
0

>  <nBondsT>
0

>  <nBondsA>
0

>  <nBondsM>
0

>  <nBondsKS>
50

>  <nBondsKD>
0

>  <RNCG>
0.21

>  <RPCG>
0.12

>  <FCSP3>
1

>  <SZ>
27

>  <Sm>
24.84

>  <Sv>
26.62

>  <Sse>
47.2

>  <Sp>
28.78

>  <Si>
53.45

>  <MZ>
0.57

>  <Mm>
0.53

>  <Mv>
0.57

>  <Mse>
1

>  <Mp>
0.61

>  <Mi>
1.14

>  <NsCH3>
4

>  <NdCH2>
0

>  <NssCH2>
4

>  <NtCH>
0

>  <NdsCH>
0

>  <NaaCH>
0

>  <NsssCH>
6

>  <NddC>
0

>  <NtsC>
0

>  <NdssC>
0

>  <NaasC>
0

>  <NaaaC>
0

>  <NssssC>
2

>  <NsNH3>
0

>  <NsNH2>
0

>  <NssNH2>
0

>  <NdNH>
0

>  <NssNH>
0

>  <NaaNH>
0

>  <NtN>
0

>  <NsssNH>
0

>  <NdsN>
0

>  <NaaN>
0

>  <NsssN>
0

>  <NddsN>
0

>  <NaasN>
0

>  <NssssN>
0

>  <NsOH>
0

>  <NdO>
0

>  <NssO>
5

>  <NaaO>
0

>  <NsF>
0

>  <NsSiH3>
0

>  <NssSiH2>
0

>  <NsssSiH>
0

>  <NssssSi>
0

>  <NsPH2>
0

>  <NssPH>
0

>  <NsssP>
0

>  <NdsssP>
0

>  <NsssssP>
0

>  <NsSH>
0

>  <NdS>
0

>  <NssS>
0

>  <NaaS>
0

>  <NdssS>
0

>  <NddssS>
0

>  <NsCl>
0

>  <NsBr>
0

>  <NsI>
0

>  <fragCpx>
156.05

>  <fMF>
0.34

>  <nHBAcc>
5

>  <nHBDon>
0

>  <Kier1>
14.58

>  <Kier2>
4.75

>  <Lipinski>
1

>  <GhoseFilter>
1

>  <FilterItLogS>
-2.04

>  <VMcGowan>
222.21

>  <LabuteASA>
125.69

>  <PEOE_VSA1>
14.21

>  <PEOE_VSA2>
0

>  <PEOE_VSA3>
9.78

>  <PEOE_VSA4>
0

>  <PEOE_VSA5>
0

>  <PEOE_VSA6>
13.85

>  <PEOE_VSA7>
38.02

>  <PEOE_VSA8>
25.37

>  <PEOE_VSA9>
0

>  <PEOE_VSA10>
0

>  <PEOE_VSA11>
18.18

>  <PEOE_VSA12>
5.79

>  <PEOE_VSA13>
0

>  <SMR_VSA1>
23.99

>  <SMR_VSA2>
0

>  <SMR_VSA3>
0

>  <SMR_VSA4>
23.67

>  <SMR_VSA5>
70.42

>  <SMR_VSA6>
7.11

>  <SMR_VSA7>
0

>  <SMR_VSA8>
0

>  <SMR_VSA9>
0

>  <SlogP_VSA1>
0

>  <SlogP_VSA2>
31.08

>  <SlogP_VSA3>
23.99

>  <SlogP_VSA4>
23.67

>  <SlogP_VSA5>
46.45

>  <SlogP_VSA6>
0

>  <SlogP_VSA7>
0

>  <SlogP_VSA8>
0

>  <SlogP_VSA9>
0

>  <SlogP_VSA10>
0

>  <SlogP_VSA11>
0

>  <EState_VSA1>
17.68

>  <EState_VSA2>
12.21

>  <EState_VSA3>
17.75

>  <EState_VSA4>
19.26

>  <EState_VSA5>
6.42

>  <EState_VSA6>
7.11

>  <EState_VSA7>
6.92

>  <EState_VSA8>
13.85

>  <EState_VSA9>
23.99

>  <EState_VSA10>
0

>  <VSA_EState1>
17.92

>  <VSA_EState2>
11.8

>  <VSA_EState3>
0

>  <VSA_EState4>
-0.47

>  <VSA_EState5>
0.95

>  <VSA_EState6>
0

>  <VSA_EState7>
3.64

>  <VSA_EState8>
6.46

>  <VSA_EState9>
1.7

>  <apol>
48.07

>  <bpol>
33.03

>  <nRing>
5

>  <nHRing>
4

>  <naRing>
0

>  <naHRing>
0

>  <nARing 2>
5

>  <nAHRing 2>
4

>  <nFRing>
1

>  <nFHRing>
1

>  <nFaRing>
0

>  <nFaHRing>
0

>  <nFARing 2>
1

>  <nFAHRing 2>
1

>  <nRot>
1

>  <SLogP>
2.84

>  <SMR>
73.84

>  <TopoPSA(NO)>
46.15

>  <TopoPSA>
46.15

>  <JGI1>
0.27

>  <JGI2>
0.11

>  <JGI3>
0.06

>  <JGI4>
0.06

>  <JGI5>
0.04

>  <Diameter>
8

>  <Radius>
4

>  <TMWC10>
123.21

>  <TSRW10>
66

>  <MW>
298.18

>  <AMW>
6.34

>  <WPath>
730

>  <WPol>
50

>  <Zagreb1>
126

>  <Zagreb2>
161

>  <mZagreb2>
4.42

>  <yes>


>  <nAR-cont>
0

>  <nHA-cont>
0.994529749

>  <MWHBN>
0.289554787

>  <MWHBN-cont>
0.870781632

>  <TPSA-cont>
0.677844343

>  <pka_cont>
0.97

>  <yes.1>


>  <BBB_SCORE>
4.141390882

>  <MMFF94 Energy>
74.554

$$$$
Compound 2790
Actelion Java MolfileCreator 2.0

  0  0  0  0  0  0              0 V3000
M  V30 BEGIN CTAB
M  V30 COUNTS 92 92 0 0 0
M  V30 BEGIN ATOM
M  V30 1 O 3.7468 -4.5288 -4.8417 0
M  V30 2 C 3.6398 -3.3097 -4.9366 0
M  V30 3 N 4.6791 -2.5246 -4.5297 0
M  V30 4 C 2.3838 -2.594 -5.4514 0
M  V30 5 C 1.7409 -1.7817 -4.3063 0
M  V30 6 C 2.7718 -1.6329 -6.5918 0
M  V30 7 C 1.3941 -3.6236 -6.0245 0
M  V30 8 N 1.3237 -2.5724 -3.1602 0
M  V30 9 C 0.0124 -2.9357 -2.9471 0
M  V30 10 O -0.893 -2.6556 -3.7259 0
M  V30 11 C -0.2221 -3.6988 -1.6397 0
M  V30 12 C -0.2478 -5.2295 -1.9262 0
M  V30 13 C -1.5214 -3.1892 -0.9767 0
M  V30 14 C 1.1496 -5.7574 -2.2786 0
M  V30 15 C -0.7874 -6.0535 -0.7508 0
M  V30 16 C -1.6579 -1.6614 -0.8171 0
M  V30 17 O -2.8505 -1.4439 -0.0432 0
M  V30 18 C -0.4505 -0.9611 -0.1221 0
M  V30 19 N -0.3272 -1.3763 1.2839 0
M  V30 20 C -0.5987 0.5764 -0.1868 0
M  V30 21 C 0.5656 1.4067 0.4297 0
M  V30 22 C 1.9661 1.0263 -0.1452 0
M  V30 23 C 0.2627 2.9244 0.2895 0
M  V30 24 C 2.1018 1.2586 -1.6521 0
M  V30 25 C 3.1083 1.7382 0.5903 0
M  V30 26 C -0.9793 3.3861 1.0214 0
M  V30 27 C -1.0444 3.3287 2.422 0
M  V30 28 C -2.0765 3.8846 0.3125 0
M  V30 29 C -2.1924 3.7465 3.1069 0
M  V30 30 C -3.2246 4.3092 0.9865 0
M  V30 31 O -2.3356 3.7149 4.4726 0
M  V30 32 C -3.2932 4.2435 2.3817 0
M  V30 33 C -1.2761 3.1431 5.2394 0
M  V30 34 O -4.3797 4.6348 3.1251 0
M  V30 35 C -1.7024 3.1699 6.7045 0
M  V30 36 C -5.5061 5.1444 2.4269 0
M  V30 37 C -0.6692 2.5195 7.6158 0
M  V30 38 O 0.6266 3.1002 7.4796 0
M  V30 39 C 0.7547 4.3479 8.1495 0
M  V30 40 H 5.5093 -2.9982 -4.1949 0
M  V30 41 H 4.6967 -1.5174 -4.5933 0
M  V30 42 H 0.8779 -1.2196 -4.6834 0
M  V30 43 H 2.4496 -1.0435 -3.9137 0
M  V30 44 H 1.8827 -1.1874 -7.0526 0
M  V30 45 H 3.331 -2.1571 -7.3755 0
M  V30 46 H 3.4008 -0.8086 -6.2386 0
M  V30 47 H 1.1106 -4.3789 -5.2856 0
M  V30 48 H 0.4766 -3.1386 -6.3761 0
M  V30 49 H 1.8343 -4.1604 -6.8731 0
M  V30 50 H 2.0351 -2.8991 -2.5162 0
M  V30 51 H 0.6073 -3.494 -0.9509 0
M  V30 52 H -0.8989 -5.4177 -2.7903 0
M  V30 53 H -2.3905 -3.5445 -1.5481 0
M  V30 54 H -1.6294 -3.6468 0.0148 0
M  V30 55 H 1.8613 -5.5662 -1.4683 0
M  V30 56 H 1.5374 -5.2949 -3.188 0
M  V30 57 H 1.1243 -6.8381 -2.4566 0
M  V30 58 H -0.7025 -7.1268 -0.9541 0
M  V30 59 H -1.8479 -5.8501 -0.5733 0
M  V30 60 H -0.2336 -5.84 0.1696 0
M  V30 61 H -1.8297 -1.209 -1.8001 0
M  V30 62 H -3.1136 -0.5154 -0.166 0
M  V30 63 H 0.464 -1.2389 -0.6496 0
M  V30 64 H -1.2369 -1.2092 1.7273 0
M  V30 65 H -0.2208 -2.389 1.3314 0
M  V30 66 H -1.5279 0.855 0.325 0
M  V30 67 H -0.7353 0.8738 -1.2344 0
M  V30 68 H 0.5966 1.1714 1.5023 0
M  V30 69 H 2.1252 -0.0431 0.0363 0
M  V30 70 H 1.0937 3.5225 0.6799 0
M  V30 71 H 0.1765 3.1863 -0.7721 0
M  V30 72 H 2.0163 2.3189 -1.909 0
M  V30 73 H 3.08 0.913 -2.0047 0
M  V30 74 H 1.343 0.7072 -2.2142 0
M  V30 75 H 3.151 2.8052 0.3518 0
M  V30 76 H 4.0728 1.3036 0.3048 0
M  V30 77 H 3.0044 1.6288 1.6748 0
M  V30 78 H -0.1796 2.9523 2.9594 0
M  V30 79 H -2.0492 3.9462 -0.773 0
M  V30 80 H -4.0489 4.6872 0.3916 0
M  V30 81 H -0.3625 3.7343 5.1078 0
M  V30 82 H -1.104 2.1056 4.9288 0
M  V30 83 H -2.6662 2.6587 6.8179 0
M  V30 84 H -1.8801 4.2103 7.001 0
M  V30 85 H -5.2515 6.0567 1.8775 0
M  V30 86 H -6.2686 5.4054 3.1672 0
M  V30 87 H -5.9349 4.3874 1.7621 0
M  V30 88 H -0.9932 2.5569 8.6624 0
M  V30 89 H -0.5715 1.461 7.3505 0
M  V30 90 H 1.7911 4.6821 8.0513 0
M  V30 91 H 0.5247 4.2403 9.2138 0
M  V30 92 H 0.1075 5.1034 7.6965 0
M  V30 END ATOM
M  V30 BEGIN BOND
M  V30 1 2 1 2
M  V30 2 1 2 3
M  V30 3 1 2 4
M  V30 4 1 4 5
M  V30 5 1 4 6
M  V30 6 1 4 7
M  V30 7 1 5 8
M  V30 8 1 8 9
M  V30 9 2 9 10
M  V30 10 1 9 11
M  V30 11 1 11 12
M  V30 12 1 11 13
M  V30 13 1 12 14
M  V30 14 1 12 15
M  V30 15 1 13 16
M  V30 16 1 16 17
M  V30 17 1 16 18
M  V30 18 1 18 19
M  V30 19 1 18 20
M  V30 20 1 20 21
M  V30 21 1 21 22
M  V30 22 1 21 23
M  V30 23 1 22 24
M  V30 24 1 22 25
M  V30 25 1 23 26
M  V30 26 2 26 27
M  V30 27 1 26 28
M  V30 28 1 27 29
M  V30 29 2 28 30
M  V30 30 1 29 31
M  V30 31 2 29 32
M  V30 32 1 31 33
M  V30 33 1 32 34
M  V30 34 1 33 35
M  V30 35 1 34 36
M  V30 36 1 35 37
M  V30 37 1 37 38
M  V30 38 1 38 39
M  V30 39 1 30 32
M  V30 40 1 3 40
M  V30 41 1 3 41
M  V30 42 1 5 42
M  V30 43 1 5 43
M  V30 44 1 6 44
M  V30 45 1 6 45
M  V30 46 1 6 46
M  V30 47 1 7 47
M  V30 48 1 7 48
M  V30 49 1 7 49
M  V30 50 1 8 50
M  V30 51 1 11 51
M  V30 52 1 12 52
M  V30 53 1 13 53
M  V30 54 1 13 54
M  V30 55 1 14 55
M  V30 56 1 14 56
M  V30 57 1 14 57
M  V30 58 1 15 58
M  V30 59 1 15 59
M  V30 60 1 15 60
M  V30 61 1 16 61
M  V30 62 1 17 62
M  V30 63 1 18 63
M  V30 64 1 19 64
M  V30 65 1 19 65
M  V30 66 1 20 66
M  V30 67 1 20 67
M  V30 68 1 21 68
M  V30 69 1 22 69
M  V30 70 1 23 70
M  V30 71 1 23 71
M  V30 72 1 24 72
M  V30 73 1 24 73
M  V30 74 1 24 74
M  V30 75 1 25 75
M  V30 76 1 25 76
M  V30 77 1 25 77
M  V30 78 1 27 78
M  V30 79 1 28 79
M  V30 80 1 30 80
M  V30 81 1 33 81
M  V30 82 1 33 82
M  V30 83 1 35 83
M  V30 84 1 35 84
M  V30 85 1 36 85
M  V30 86 1 36 86
M  V30 87 1 36 87
M  V30 88 1 37 88
M  V30 89 1 37 89
M  V30 90 1 39 90
M  V30 91 1 39 91
M  V30 92 1 39 92
M  V30 END BOND
M  V30 END CTAB
M  END
>  <Column 1>
3523

>  <level_0>
5783

>  <index>
5784

>  <Unnamed: 0>
5784

>  <NO.>
5796

>  <Name>
aliskiren

>  <IUPAC_name>
5-amino-n-(3-amino-2-2-dimethyl-3-oxopropyl)-4-hydroxy-7-[[4-methoxy-3-(3-methoxypropoxy)phenyl]methyl]-8-methyl-2-propan-2-ylnonanamide

>  <SMILES>
COCCCOc1cc(CC(CC(N)C(O)CC(C(=O)NCC(C)(C)C(N)=O)C(C)C)C(C)C)ccc1OC

>  <CID>
21902176

>  <logBB>


>  <BBB+/BBB->
BBB-

>  <Inchi>
InChI=1S/C30H53N3O6/c1-19(2)22(14-21-10-11-26(38-8)27(15-21)39-13-9-12-37-7)16-24(31)25(34)17-23(20(3)4)28(35)33-18-30(5-6)29(32)36/h10-11-15-19-20-22-25-34H-9-12-14-16-18-31H2-1-8H3-(H2-32-36)(H-33-35)

>  <threshold>


>  <reference>
R23|

>  <group>
C

>  <Class>
-1

>  <ABC>
28.62

>  <ABCGG>
24.13

>  <nAcid>
0

>  <nBase>
1

>  <nAromAtom>
6

>  <nAromBond>
6

>  <nAtom>
92

>  <nHeavyAtom>
39

>  <nSpiro>
0

>  <nBridgehead>
0

>  <nHetero>
9

>  <nN>
3

>  <nO>
6

>  <nF>
0

>  <BalabanJ>
2.72

>  <BertzCT>
889.45

>  <nBonds>
92

>  <nBondsO>
39

>  <nBondsS>
84

>  <nBondsD>
2

>  <nBondsT>
0

>  <nBondsA>
6

>  <nBondsM>
8

>  <nBondsKS>
87

>  <nBondsKD>
5

>  <RNCG>
0.12

>  <RPCG>
0.06

>  <FCSP3>
0.73

>  <SZ>
50.33

>  <Sm>
45.94

>  <Sv>
50.92

>  <Sse>
91.5

>  <Sp>
56.02

>  <Si>
105.13

>  <MZ>
0.55

>  <Mm>
0.5

>  <Mv>
0.55

>  <Mse>
0.99

>  <Mp>
0.61

>  <Mi>
1.14

>  <NsCH3>
8

>  <NdCH2>
0

>  <NssCH2>
7

>  <NtCH>
0

>  <NdsCH>
0

>  <NaaCH>
3

>  <NsssCH>
6

>  <NddC>
0

>  <NtsC>
0

>  <NdssC>
2

>  <NaasC>
3

>  <NaaaC>
0

>  <NssssC>
1

>  <NsNH3>
0

>  <NsNH2>
2

>  <NssNH2>
0

>  <NdNH>
0

>  <NssNH>
1

>  <NaaNH>
0

>  <NtN>
0

>  <NsssNH>
0

>  <NdsN>
0

>  <NaaN>
0

>  <NsssN>
0

>  <NddsN>
0

>  <NaasN>
0

>  <NssssN>
0

>  <NsOH>
1

>  <NdO>
2

>  <NssO>
3

>  <NaaO>
0

>  <NsF>
0

>  <NsSiH3>
0

>  <NssSiH2>
0

>  <NsssSiH>
0

>  <NssssSi>
0

>  <NsPH2>
0

>  <NssPH>
0

>  <NsssP>
0

>  <NdsssP>
0

>  <NsssssP>
0

>  <NsSH>
0

>  <NdS>
0

>  <NssS>
0

>  <NaaS>
0

>  <NdssS>
0

>  <NddssS>
0

>  <NsCl>
0

>  <NsBr>
0

>  <NsI>
0

>  <fragCpx>
39.09

>  <fMF>
0.07

>  <nHBAcc>
7

>  <nHBDon>
4

>  <Kier1>
37.03

>  <Kier2>
18.52

>  <Lipinski>
0

>  <GhoseFilter>
0

>  <FilterItLogS>
-5.85

>  <VMcGowan>
466.36

>  <LabuteASA>
234.88

>  <PEOE_VSA1>
36.1

>  <PEOE_VSA2>
9.59

>  <PEOE_VSA3>
0

>  <PEOE_VSA4>
0

>  <PEOE_VSA5>
0

>  <PEOE_VSA6>
33.76

>  <PEOE_VSA7>
68.56

>  <PEOE_VSA8>
38.64

>  <PEOE_VSA9>
25.24

>  <PEOE_VSA10>
0

>  <PEOE_VSA11>
11.5

>  <PEOE_VSA12>
11.81

>  <PEOE_VSA13>
0

>  <SMR_VSA1>
28.91

>  <SMR_VSA2>
0

>  <SMR_VSA3>
5.32

>  <SMR_VSA4>
40.55

>  <SMR_VSA5>
79.37

>  <SMR_VSA6>
33.98

>  <SMR_VSA7>
23.76

>  <SMR_VSA8>
0

>  <SMR_VSA9>
11.5

>  <SlogP_VSA1>
26.26

>  <SlogP_VSA2>
63.04

>  <SlogP_VSA3>
20.75

>  <SlogP_VSA4>
29.09

>  <SlogP_VSA5>
66.37

>  <SlogP_VSA6>
18.2

>  <SlogP_VSA7>
0

>  <SlogP_VSA8>
0

>  <SlogP_VSA9>
0

>  <SlogP_VSA10>
0

>  <SlogP_VSA11>
11.5

>  <EState_VSA1>
29.39

>  <EState_VSA2>
30.71

>  <EState_VSA3>
37.05

>  <EState_VSA4>
18.41

>  <EState_VSA5>
0

>  <EState_VSA6>
28.07

>  <EState_VSA7>
32.05

>  <EState_VSA8>
19.16

>  <EState_VSA9>
25.68

>  <EState_VSA10>
14.7

>  <VSA_EState1>
16.5

>  <VSA_EState2>
24.55

>  <VSA_EState3>
13.86

>  <VSA_EState4>
12.19

>  <VSA_EState5>
0.79

>  <VSA_EState6>
5.47

>  <VSA_EState7>
1.56

>  <VSA_EState8>
12.87

>  <VSA_EState9>
3.29

>  <apol>
93.55

>  <bpol>
59.54

>  <nRing>
1

>  <nHRing>
0

>  <naRing>
1

>  <naHRing>
0

>  <nARing 2>
0

>  <nAHRing 2>
0

>  <nFRing>
0

>  <nFHRing>
0

>  <nFaRing>
0

>  <nFaHRing>
0

>  <nFARing 2>
0

>  <nFAHRing 2>
0

>  <nRot>
19

>  <SLogP>
3.29

>  <SMR>
154.54

>  <TopoPSA(NO)>
146.13

>  <TopoPSA>
146.13

>  <JGI1>
0.27

>  <JGI2>
0.1

>  <JGI3>
0.04

>  <JGI4>
0.04

>  <JGI5>
0.03

>  <Diameter>
21

>  <Radius>
11

>  <TMWC10>
155.03

>  <TSRW10>
75.19

>  <MW>
551.39

>  <AMW>
5.99

>  <WPath>
5882

>  <WPol>
58

>  <Zagreb1>
184

>  <Zagreb2>
206

>  <mZagreb2>
8.93

>  <yes>


>  <nAR-cont>
0.336376

>  <nHA-cont>
0.348277641

>  <MWHBN>
0.468449999

>  <MWHBN-cont>
0

>  <TPSA-cont>
0

>  <pka_cont>
0.97

>  <yes.1>


>  <BBB_SCORE>
1.169653641

>  <MMFF94 Energy>
52.618

$$$$
Compound 2791
Actelion Java MolfileCreator 2.0

  0  0  0  0  0  0              0 V3000
M  V30 BEGIN CTAB
M  V30 COUNTS 78 81 0 0 0
M  V30 BEGIN ATOM
M  V30 1 O 4.3024 0.0 -1.4325 0
M  V30 2 C 3.0961 0.1171 -1.2343 0
M  V30 3 N 2.5675 0.2946 0.0257 0
M  V30 4 C 2.0472 0.0619 -2.3739 0
M  V30 5 C 3.3941 0.3635 1.2191 0
M  V30 6 C 1.3155 1.413 -2.4765 0
M  V30 7 C 2.7491 0.0234 -3.7507 0
M  V30 8 C 1.1788 -1.2202 -2.185 0
M  V30 9 C 2.7146 1.2346 2.2807 0
M  V30 10 C 3.6704 -1.0442 1.7592 0
M  V30 11 C 2.3225 2.3481 -3.1429 0
M  V30 12 C 3.1703 1.4623 -4.0488 0
M  V30 13 C -0.3555 -1.0627 -2.1466 0 CFG=2
M  V30 14 C 3.5211 1.2751 3.5759 0
M  V30 15 C 4.4686 -1.0072 3.0604 0
M  V30 16 C -0.7889 -0.251 -0.9417 0
M  V30 17 C -1.0244 -2.4354 -2.027 0
M  V30 18 C 3.7896 -0.1335 4.1198 0
M  V30 19 O -0.1768 -0.2398 0.1226 0
M  V30 20 O -1.9276 0.4786 -1.2508 0
M  V30 21 O -2.4189 -2.2975 -2.2954 0
M  V30 22 C 4.6374 -0.0717 5.3718 0
M  V30 23 C -2.3938 1.232 -0.1722 0
M  V30 24 C -3.1159 -3.5427 -2.1859 0
M  V30 25 O 5.208 0.9028 5.8312 0
M  V30 26 O 4.7089 -1.2604 6.0034 0
M  V30 27 C -3.3527 0.6722 0.6725 0
M  V30 28 C -1.9412 2.5503 -0.0147 0
M  V30 29 C -4.593 -3.3365 -2.5349 0
M  V30 30 C -3.8168 1.4535 1.7157 0
M  V30 31 C -2.4289 3.3297 1.0355 0
M  V30 32 O -4.8025 -3.0064 -3.9116 0
M  V30 33 C -3.3582 2.7656 1.8964 0
M  V30 34 C -4.8541 1.1072 2.7372 0
M  V30 35 C -4.7198 -4.1243 -4.7828 0
M  V30 36 C -4.0467 3.4128 3.0581 0
M  V30 37 C -4.5981 2.1862 3.7995 0
M  V30 38 H 1.5569 0.2509 0.1593 0
M  V30 39 H 4.3503 0.8272 0.9438 0
M  V30 40 H 0.9957 1.8249 -1.5152 0
M  V30 41 H 0.4358 1.3434 -3.1259 0
M  V30 42 H 3.6049 -0.659 -3.7858 0
M  V30 43 H 2.0431 -0.3 -4.5271 0
M  V30 44 H 1.4934 -1.7548 -1.2775 0
M  V30 45 H 1.4181 -1.9226 -2.9958 0
M  V30 46 H 1.7073 0.852 2.4927 0
M  V30 47 H 2.583 2.2543 1.8982 0
M  V30 48 H 4.2175 -1.634 1.0138 0
M  V30 49 H 2.7212 -1.5693 1.9308 0
M  V30 50 H 2.9578 2.8241 -2.3866 0
M  V30 51 H 1.8238 3.1473 -3.7004 0
M  V30 52 H 4.2345 1.6119 -3.8355 0
M  V30 53 H 3.0135 1.7014 -5.1059 0
M  V30 54 H -0.6956 -0.5634 -3.0611 0
M  V30 55 H 2.9807 1.8684 4.3239 0
M  V30 56 H 4.4698 1.7968 3.3937 0
M  V30 57 H 5.4796 -0.6298 2.858 0
M  V30 58 H 4.5923 -2.0307 3.4346 0
M  V30 59 H -0.8856 -2.8571 -1.0237 0
M  V30 60 H -0.5974 -3.1281 -2.7615 0
M  V30 61 H 2.8256 -0.5767 4.4035 0
M  V30 62 H -3.0361 -3.8992 -1.1529 0
M  V30 63 H -2.6518 -4.2746 -2.8537 0
M  V30 64 H 5.2735 -1.0786 6.7839 0
M  V30 65 H -3.7177 -0.3356 0.5127 0
M  V30 66 H -1.2183 2.9676 -0.7087 0
M  V30 67 H -5.1812 -4.2236 -2.2739 0
M  V30 68 H -4.9832 -2.4933 -1.9546 0
M  V30 69 H -2.091 4.3525 1.168 0
M  V30 70 H -4.7191 0.1028 3.1481 0
M  V30 71 H -5.8556 1.2059 2.3058 0
M  V30 72 H -4.9681 -3.7882 -5.7934 0
M  V30 73 H -5.4371 -4.8968 -4.4896 0
M  V30 74 H -3.7075 -4.5356 -4.7997 0
M  V30 75 H -4.8568 4.0584 2.7036 0
M  V30 76 H -3.3588 3.9839 3.6879 0
M  V30 77 H -3.8385 1.822 4.5054 0
M  V30 78 H -5.4942 2.4188 4.3834 0
M  V30 END ATOM
M  V30 BEGIN BOND
M  V30 1 2 1 2
M  V30 2 1 2 3
M  V30 3 1 2 4
M  V30 4 1 3 5
M  V30 5 1 4 6
M  V30 6 1 4 7
M  V30 7 1 4 8
M  V30 8 1 5 9
M  V30 9 1 5 10
M  V30 10 1 6 11
M  V30 11 1 7 12
M  V30 12 1 8 13
M  V30 13 1 9 14
M  V30 14 1 10 15
M  V30 15 1 13 16
M  V30 16 1 13 17
M  V30 17 1 14 18
M  V30 18 2 16 19
M  V30 19 1 16 20
M  V30 20 1 17 21
M  V30 21 1 18 22
M  V30 22 1 20 23
M  V30 23 1 21 24
M  V30 24 2 22 25
M  V30 25 1 22 26
M  V30 26 2 23 27
M  V30 27 1 23 28
M  V30 28 1 24 29
M  V30 29 1 27 30
M  V30 30 2 28 31
M  V30 31 1 29 32
M  V30 32 2 30 33
M  V30 33 1 30 34
M  V30 34 1 32 35
M  V30 35 1 33 36
M  V30 36 1 34 37
M  V30 37 1 11 12
M  V30 38 1 15 18
M  V30 39 1 31 33
M  V30 40 1 36 37
M  V30 41 1 3 38
M  V30 42 1 5 39
M  V30 43 1 6 40
M  V30 44 1 6 41
M  V30 45 1 7 42
M  V30 46 1 7 43
M  V30 47 1 8 44
M  V30 48 1 8 45
M  V30 49 1 9 46
M  V30 50 1 9 47
M  V30 51 1 10 48
M  V30 52 1 10 49
M  V30 53 1 11 50
M  V30 54 1 11 51
M  V30 55 1 12 52
M  V30 56 1 12 53
M  V30 57 1 13 54
M  V30 58 1 14 55
M  V30 59 1 14 56
M  V30 60 1 15 57
M  V30 61 1 15 58
M  V30 62 1 17 59
M  V30 63 1 17 60
M  V30 64 1 18 61
M  V30 65 1 24 62
M  V30 66 1 24 63
M  V30 67 1 26 64
M  V30 68 1 27 65
M  V30 69 1 28 66
M  V30 70 1 29 67
M  V30 71 1 29 68
M  V30 72 1 31 69
M  V30 73 1 34 70
M  V30 74 1 34 71
M  V30 75 1 35 72
M  V30 76 1 35 73
M  V30 77 1 35 74
M  V30 78 1 36 75
M  V30 79 1 36 76
M  V30 80 1 37 77
M  V30 81 1 37 78
M  V30 END BOND
M  V30 BEGIN COLLECTION
M  V30 MDLV30/STERAC1 ATOMS=(1 13)
M  V30 END COLLECTION
M  V30 END CTAB
M  END
>  <Column 1>
3524

>  <level_0>
5784

>  <index>
5785

>  <Unnamed: 0>
5785

>  <NO.>
5797

>  <Name>
candoxatril

>  <IUPAC_name>
4-[[1-[3-(2-3-dihydro-1h-inden-5-yloxy)-2-(2-methoxyethoxymethyl)-3-oxopropyl]cyclopentanecarbonyl]amino]cyclohexane-1-carboxylic acid

>  <SMILES>
COCCOCC(CC1(C(=O)NC2CCC(C(=O)O)CC2)CCCC1)C(=O)Oc1ccc2c(c1)CCC2

>  <CID>
122116

>  <logBB>


>  <BBB+/BBB->
BBB-

>  <Inchi>
InChI=1S/C29H41NO7/c1-35-15-16-36-19-23(27(33)37-25-12-9-20-5-4-6-22(20)17-25)18-29(13-2-3-14-29)28(34)30-24-10-7-21(8-11-24)26(31)32/h9-12-17-21-23-24H-2-8-10-11-13-16-18-19H2-1H3-(H-30-34)(H-31-32)

>  <threshold>


>  <reference>
R23|

>  <group>
C

>  <Class>
-1

>  <ABC>
28.54

>  <ABCGG>
22.75

>  <nAcid>
1

>  <nBase>
0

>  <nAromAtom>
6

>  <nAromBond>
6

>  <nAtom>
78

>  <nHeavyAtom>
37

>  <nSpiro>
0

>  <nBridgehead>
0

>  <nHetero>
8

>  <nN>
1

>  <nO>
7

>  <nF>
0

>  <BalabanJ>
1.36

>  <BertzCT>
947.57

>  <nBonds>
81

>  <nBondsO>
40

>  <nBondsS>
72

>  <nBondsD>
3

>  <nBondsT>
0

>  <nBondsA>
6

>  <nBondsM>
9

>  <nBondsKS>
75

>  <nBondsKD>
6

>  <RNCG>
0.14

>  <RPCG>
0.09

>  <FCSP3>
0.69

>  <SZ>
46.33

>  <Sm>
42.93

>  <Sv>
45.87

>  <Sse>
78.18

>  <Sp>
49.39

>  <Si>
88.27

>  <MZ>
0.59

>  <Mm>
0.55

>  <Mv>
0.59

>  <Mse>
1

>  <Mp>
0.63

>  <Mi>
1.13

>  <NsCH3>
1

>  <NdCH2>
0

>  <NssCH2>
15

>  <NtCH>
0

>  <NdsCH>
0

>  <NaaCH>
3

>  <NsssCH>
3

>  <NddC>
0

>  <NtsC>
0

>  <NdssC>
3

>  <NaasC>
3

>  <NaaaC>
0

>  <NssssC>
1

>  <NsNH3>
0

>  <NsNH2>
0

>  <NssNH2>
0

>  <NdNH>
0

>  <NssNH>
1

>  <NaaNH>
0

>  <NtN>
0

>  <NsssNH>
0

>  <NdsN>
0

>  <NaaN>
0

>  <NsssN>
0

>  <NddsN>
0

>  <NaasN>
0

>  <NssssN>
0

>  <NsOH>
1

>  <NdO>
3

>  <NssO>
3

>  <NaaO>
0

>  <NsF>
0

>  <NsSiH3>
0

>  <NssSiH2>
0

>  <NsssSiH>
0

>  <NssssSi>
0

>  <NsPH2>
0

>  <NssPH>
0

>  <NsssP>
0

>  <NdsssP>
0

>  <NsssssP>
0

>  <NsSH>
0

>  <NdS>
0

>  <NssS>
0

>  <NaaS>
0

>  <NdssS>
0

>  <NddssS>
0

>  <NsCl>
0

>  <NsBr>
0

>  <NsI>
0

>  <fragCpx>
268.08

>  <fMF>
0.33

>  <nHBAcc>
6

>  <nHBDon>
2

>  <Kier1>
29.97

>  <Kier2>
14.58

>  <Lipinski>
0

>  <GhoseFilter>
0

>  <FilterItLogS>
-5.76

>  <VMcGowan>
401.3

>  <LabuteASA>
218.98

>  <PEOE_VSA1>
24.63

>  <PEOE_VSA2>
14.38

>  <PEOE_VSA3>
0

>  <PEOE_VSA4>
0

>  <PEOE_VSA5>
0

>  <PEOE_VSA6>
18.91

>  <PEOE_VSA7>
87.47

>  <PEOE_VSA8>
13.15

>  <PEOE_VSA9>
37.07

>  <PEOE_VSA10>
5.75

>  <PEOE_VSA11>
0

>  <PEOE_VSA12>
5.91

>  <PEOE_VSA13>
0

>  <SMR_VSA1>
33.7

>  <SMR_VSA2>
0

>  <SMR_VSA3>
5.32

>  <SMR_VSA4>
17.25

>  <SMR_VSA5>
83.09

>  <SMR_VSA6>
26.93

>  <SMR_VSA7>
29.33

>  <SMR_VSA8>
0

>  <SMR_VSA9>
5.75

>  <SlogP_VSA1>
10.05

>  <SlogP_VSA2>
55.92

>  <SlogP_VSA3>
36.7

>  <SlogP_VSA4>
17.25

>  <SlogP_VSA5>
75.34

>  <SlogP_VSA6>
18.2

>  <SlogP_VSA7>
0

>  <SlogP_VSA8>
0

>  <SlogP_VSA9>
0

>  <SlogP_VSA10>
0

>  <SlogP_VSA11>
5.75

>  <EState_VSA1>
17.3

>  <EState_VSA2>
30.44

>  <EState_VSA3>
51.07

>  <EState_VSA4>
44.95

>  <EState_VSA5>
11.13

>  <EState_VSA6>
7.11

>  <EState_VSA7>
18.2

>  <EState_VSA8>
5.32

>  <EState_VSA9>
14.21

>  <EState_VSA10>
19.49

>  <VSA_EState1>
16.69

>  <VSA_EState2>
38.32

>  <VSA_EState3>
12.49

>  <VSA_EState4>
1.91

>  <VSA_EState5>
-1.48

>  <VSA_EState6>
5.85

>  <VSA_EState7>
9.4

>  <VSA_EState8>
0.97

>  <VSA_EState9>
1.6

>  <apol>
82.48

>  <bpol>
49.51

>  <nRing>
4

>  <nHRing>
0

>  <naRing>
1

>  <naHRing>
0

>  <nARing 2>
3

>  <nAHRing 2>
0

>  <nFRing>
1

>  <nFHRing>
0

>  <nFaRing>
0

>  <nFaHRing>
0

>  <nFARing 2>
1

>  <nFAHRing 2>
0

>  <nRot>
12

>  <SLogP>
4.07

>  <SMR>
137.33

>  <TopoPSA(NO)>
111.16

>  <TopoPSA>
111.16

>  <JGI1>
0.2

>  <JGI2>
0.08

>  <JGI3>
0.04

>  <JGI4>
0.04

>  <JGI5>
0.02

>  <Diameter>
17

>  <Radius>
9

>  <TMWC10>
155.45

>  <TSRW10>
89.14

>  <MW>
515.29

>  <AMW>
6.61

>  <WPath>
4662

>  <WPol>
55

>  <Zagreb1>
190

>  <Zagreb2>
221

>  <mZagreb2>
8.29

>  <yes>


>  <nAR-cont>
0.691115

>  <nHA-cont>
0.433355441

>  <MWHBN>
0.352422907

>  <MWHBN-cont>
0.661163662

>  <TPSA-cont>
0.224034174

>  <pka_cont>
0.97

>  <yes.1>


>  <BBB_SCORE>
3.04928428

>  <MMFF94 Energy>
35.93

$$$$
Compound 2792
Actelion Java MolfileCreator 2.0

  0  0  0  0  0  0              0 V3000
M  V30 BEGIN CTAB
M  V30 COUNTS 43 44 0 0 0
M  V30 BEGIN ATOM
M  V30 1 O -2.2819 1.1011 1.0224 0
M  V30 2 C -1.3926 0.6796 0.2919 0
M  V30 3 N -1.0376 1.2749 -0.8941 0
M  V30 4 C -0.6499 -0.5566 0.6598 0
M  V30 5 C -1.6223 2.531 -1.3558 0 CFG=2
M  V30 6 C 0.6859 -0.7519 0.2806 0
M  V30 7 C -1.3196 -1.5195 1.429 0
M  V30 8 C -1.5858 2.5843 -2.8962 0
M  V30 9 C -0.8464 3.7221 -0.7783 0
M  V30 10 C 1.3502 -1.9241 0.6447 0
M  V30 11 C -0.6706 -2.6949 1.805 0
M  V30 12 N -0.1992 2.5816 -3.3987 0
M  V30 13 C 0.5563 3.8166 -1.3832 0
M  V30 14 O 2.6507 -2.2169 0.3244 0
M  V30 15 C 0.6684 -2.8812 1.4182 0
M  V30 16 O -1.237 -3.7022 2.5423 0
M  V30 17 C 0.5211 3.7624 -2.9105 0
M  V30 18 C 3.3067 -1.364 -0.6036 0
M  V30 19 O 1.3075 -4.0584 1.7429 0
M  V30 20 C -2.6061 -3.5627 2.8982 0
M  V30 21 C 1.951 -3.9259 3.0092 0
M  V30 22 H -0.3368 0.8722 -1.5038 0
M  V30 23 H -2.6625 2.5746 -1.0131 0
M  V30 24 H 1.2003 0.0275 -0.2684 0
M  V30 25 H -2.349 -1.3225 1.7139 0
M  V30 26 H -2.1181 3.4712 -3.2613 0
M  V30 27 H -2.0999 1.7067 -3.3051 0
M  V30 28 H -1.3926 4.6473 -1.0012 0
M  V30 29 H -0.7718 3.6487 0.3128 0
M  V30 30 H -0.2218 2.6084 -4.4191 0
M  V30 31 H 1.033 4.7484 -1.0585 0
M  V30 32 H 1.177 2.9959 -1.002 0
M  V30 33 H 0.0597 4.6743 -3.3093 0
M  V30 34 H 1.5476 3.7316 -3.2915 0
M  V30 35 H 2.7539 -1.3007 -1.5467 0
M  V30 36 H 4.2875 -1.7977 -0.8209 0
M  V30 37 H 3.4706 -0.3707 -0.1735 0
M  V30 38 H -2.7557 -2.7018 3.558 0
M  V30 39 H -2.9004 -4.4598 3.4514 0
M  V30 40 H -3.2419 -3.4968 2.0092 0
M  V30 41 H 2.709 -3.1352 2.9919 0
M  V30 42 H 2.4558 -4.8716 3.228 0
M  V30 43 H 1.2266 -3.7379 3.8091 0
M  V30 END ATOM
M  V30 BEGIN BOND
M  V30 1 2 1 2
M  V30 2 1 2 3
M  V30 3 1 2 4
M  V30 4 1 3 5
M  V30 5 2 4 6
M  V30 6 1 4 7
M  V30 7 1 5 8
M  V30 8 1 5 9
M  V30 9 1 6 10
M  V30 10 2 7 11
M  V30 11 1 8 12
M  V30 12 1 9 13
M  V30 13 1 10 14
M  V30 14 2 10 15
M  V30 15 1 11 16
M  V30 16 1 12 17
M  V30 17 1 14 18
M  V30 18 1 15 19
M  V30 19 1 16 20
M  V30 20 1 19 21
M  V30 21 1 11 15
M  V30 22 1 13 17
M  V30 23 1 3 22
M  V30 24 1 5 23
M  V30 25 1 6 24
M  V30 26 1 7 25
M  V30 27 1 8 26
M  V30 28 1 8 27
M  V30 29 1 9 28
M  V30 30 1 9 29
M  V30 31 1 12 30
M  V30 32 1 13 31
M  V30 33 1 13 32
M  V30 34 1 17 33
M  V30 35 1 17 34
M  V30 36 1 18 35
M  V30 37 1 18 36
M  V30 38 1 18 37
M  V30 39 1 20 38
M  V30 40 1 20 39
M  V30 41 1 20 40
M  V30 42 1 21 41
M  V30 43 1 21 42
M  V30 44 1 21 43
M  V30 END BOND
M  V30 BEGIN COLLECTION
M  V30 MDLV30/STERAC1 ATOMS=(1 5)
M  V30 END COLLECTION
M  V30 END CTAB
M  END
>  <Column 1>
3526

>  <level_0>
5787

>  <index>
5788

>  <Unnamed: 0>
5788

>  <NO.>
5800

>  <Name>
troxipide

>  <IUPAC_name>
3-4-5-trimethoxy-n-piperidin-3-ylbenzamide

>  <SMILES>
COc1cc(C(=O)NC2CCCNC2)cc(OC)c1OC

>  <CID>
5597

>  <logBB>


>  <BBB+/BBB->
BBB-

>  <Inchi>
InChI=1S/C15H22N2O4/c1-19-12-7-10(8-13(20-2)14(12)21-3)15(18)17-11-5-4-6-16-9-11/h7-8-11-16H-4-6-9H2-1-3H3-(H-17-18)

>  <threshold>


>  <reference>
R23|

>  <group>
C

>  <Class>
-1

>  <ABC>
15.54

>  <ABCGG>
13.5

>  <nAcid>
0

>  <nBase>
1

>  <nAromAtom>
6

>  <nAromBond>
6

>  <nAtom>
43

>  <nHeavyAtom>
21

>  <nSpiro>
0

>  <nBridgehead>
0

>  <nHetero>
6

>  <nN>
2

>  <nO>
4

>  <nF>
0

>  <BalabanJ>
1.92

>  <BertzCT>
473.44

>  <nBonds>
44

>  <nBondsO>
22

>  <nBondsS>
37

>  <nBondsD>
1

>  <nBondsT>
0

>  <nBondsA>
6

>  <nBondsM>
7

>  <nBondsKS>
40

>  <nBondsKD>
4

>  <RNCG>
0.2

>  <RPCG>
0.1

>  <FCSP3>
0.53

>  <SZ>
26.33

>  <Sm>
24.51

>  <Sv>
25.34

>  <Sse>
43.42

>  <Sp>
27.02

>  <Si>
48.99

>  <MZ>
0.61

>  <Mm>
0.57

>  <Mv>
0.59

>  <Mse>
1.01

>  <Mp>
0.63

>  <Mi>
1.14

>  <NsCH3>
3

>  <NdCH2>
0

>  <NssCH2>
4

>  <NtCH>
0

>  <NdsCH>
0

>  <NaaCH>
2

>  <NsssCH>
1

>  <NddC>
0

>  <NtsC>
0

>  <NdssC>
1

>  <NaasC>
4

>  <NaaaC>
0

>  <NssssC>
0

>  <NsNH3>
0

>  <NsNH2>
0

>  <NssNH2>
0

>  <NdNH>
0

>  <NssNH>
2

>  <NaaNH>
0

>  <NtN>
0

>  <NsssNH>
0

>  <NdsN>
0

>  <NaaN>
0

>  <NsssN>
0

>  <NddsN>
0

>  <NaasN>
0

>  <NssssN>
0

>  <NsOH>
0

>  <NdO>
1

>  <NssO>
3

>  <NaaO>
0

>  <NsF>
0

>  <NsSiH3>
0

>  <NssSiH2>
0

>  <NsssSiH>
0

>  <NssssSi>
0

>  <NsPH2>
0

>  <NssPH>
0

>  <NsssP>
0

>  <NdsssP>
0

>  <NsssssP>
0

>  <NsSH>
0

>  <NdS>
0

>  <NssS>
0

>  <NaaS>
0

>  <NdssS>
0

>  <NddssS>
0

>  <NsCl>
0

>  <NsBr>
0

>  <NsI>
0

>  <fragCpx>
64.06

>  <fMF>
0.33

>  <nHBAcc>
5

>  <nHBDon>
2

>  <Kier1>
17.36

>  <Kier2>
8.59

>  <Lipinski>
1

>  <GhoseFilter>
1

>  <FilterItLogS>
-3.68

>  <VMcGowan>
226.73

>  <LabuteASA>
124.31

>  <PEOE_VSA1>
24.84

>  <PEOE_VSA2>
4.79

>  <PEOE_VSA3>
0

>  <PEOE_VSA4>
0

>  <PEOE_VSA5>
0

>  <PEOE_VSA6>
0

>  <PEOE_VSA7>
31.52

>  <PEOE_VSA8>
18.15

>  <PEOE_VSA9>
21.33

>  <PEOE_VSA10>
0

>  <PEOE_VSA11>
11.5

>  <PEOE_VSA12>
5.75

>  <PEOE_VSA13>
5.91

>  <SMR_VSA1>
19.01

>  <SMR_VSA2>
0

>  <SMR_VSA3>
10.63

>  <SMR_VSA4>
0

>  <SMR_VSA5>
18.88

>  <SMR_VSA6>
34.42

>  <SMR_VSA7>
17.7

>  <SMR_VSA8>
0

>  <SMR_VSA9>
17.25

>  <SlogP_VSA1>
24.84

>  <SlogP_VSA2>
46.37

>  <SlogP_VSA3>
0

>  <SlogP_VSA4>
0

>  <SlogP_VSA5>
23.2

>  <SlogP_VSA6>
12.13

>  <SlogP_VSA7>
0

>  <SlogP_VSA8>
0

>  <SlogP_VSA9>
0

>  <SlogP_VSA10>
0

>  <SlogP_VSA11>
17.25

>  <EState_VSA1>
0

>  <EState_VSA2>
11.95

>  <EState_VSA3>
22.81

>  <EState_VSA4>
25.93

>  <EState_VSA5>
21.33

>  <EState_VSA6>
12.13

>  <EState_VSA7>
0

>  <EState_VSA8>
10.63

>  <EState_VSA9>
14.21

>  <EState_VSA10>
4.79

>  <VSA_EState1>
15.78

>  <VSA_EState2>
12.36

>  <VSA_EState3>
6.29

>  <VSA_EState4>
0.5

>  <VSA_EState5>
1.3

>  <VSA_EState6>
3.48

>  <VSA_EState7>
2.06

>  <VSA_EState8>
1.81

>  <VSA_EState9>
4.6

>  <apol>
45.13

>  <bpol>
29.29

>  <nRing>
2

>  <nHRing>
1

>  <naRing>
1

>  <naHRing>
0

>  <nARing 2>
1

>  <nAHRing 2>
1

>  <nFRing>
0

>  <nFHRing>
0

>  <nFaRing>
0

>  <nFaHRing>
0

>  <nFARing 2>
0

>  <nFAHRing 2>
0

>  <nRot>
5

>  <SLogP>
1.19

>  <SMR>
79.46

>  <TopoPSA(NO)>
68.82

>  <TopoPSA>
68.82

>  <JGI1>
0.18

>  <JGI2>
0.08

>  <JGI3>
0.04

>  <JGI4>
0.05

>  <JGI5>
0.03

>  <Diameter>
11

>  <Radius>
6

>  <TMWC10>
115.47

>  <TSRW10>
54.44

>  <MW>
294.16

>  <AMW>
6.84

>  <WPath>
956

>  <WPol>
32

>  <Zagreb1>
102

>  <Zagreb2>
118

>  <mZagreb2>
5

>  <yes>


>  <nAR-cont>
0.816016

>  <nHA-cont>
0.994529749

>  <MWHBN>
0.408137248

>  <MWHBN-cont>
0.444107373

>  <TPSA-cont>
0.519593665

>  <pka_cont>
0.97

>  <yes.1>


>  <BBB_SCORE>
4.00089414

>  <MMFF94 Energy>
53.582

$$$$
Compound 2793
Actelion Java MolfileCreator 2.0

  0  0  0  0  0  0              0 V3000
M  V30 BEGIN CTAB
M  V30 COUNTS 52 56 0 0 0
M  V30 BEGIN ATOM
M  V30 1 O 1.2926 0.4846 3.6388 0
M  V30 2 C 2.0819 0.0228 2.8314 0
M  V30 3 O 3.4018 -0.2164 3.1108 0
M  V30 4 C 1.7662 -0.4308 1.4262 0
M  V30 5 C 4.0096 -0.8513 1.9876 0
M  V30 6 C 0.7269 0.4878 0.7404 0
M  V30 7 C 3.1527 -0.4818 0.798 0
M  V30 8 C 1.1639 1.0378 -0.623 0
M  V30 9 C -0.6111 -0.262 0.7266 0
M  V30 10 C 3.558 0.8535 0.1697 0
M  V30 11 C 2.5504 1.2147 -0.8906 0
M  V30 12 C 0.2232 1.4819 -1.5734 0
M  V30 13 C -0.865 -1.294 -0.1977 0
M  V30 14 C -1.5818 0.0439 1.6969 0
M  V30 15 O 3.5497 1.9173 1.1097 0
M  V30 16 C 2.9805 1.7768 -2.105 0
M  V30 17 C 0.6831 2.018 -2.7576 0
M  V30 18 C -2.0793 -1.9839 -0.1848 0
M  V30 19 C -2.7935 -0.649 1.7413 0
M  V30 20 C 2.0231 2.1572 -3.0176 0
M  V30 21 O -0.0934 2.4738 -3.7766 0
M  V30 22 O -2.4191 -2.9892 -1.0528 0
M  V30 23 C -3.0418 -1.643 0.7804 0
M  V30 24 O -3.7892 -0.4198 2.6559 0
M  V30 25 O 2.2622 2.7157 -4.2338 0
M  V30 26 C 0.9142 2.9289 -4.7026 0
M  V30 27 C -1.4949 -3.3084 -2.0827 0
M  V30 28 O -4.2215 -2.3546 0.8321 0
M  V30 29 C -3.4533 0.3651 3.793 0
M  V30 30 C -5.2149 -1.6946 0.0498 0
M  V30 31 H 1.3987 -1.4617 1.5311 0
M  V30 32 H 5.0459 -0.5138 1.8894 0
M  V30 33 H 4.0138 -1.932 2.168 0
M  V30 34 H 0.5844 1.3941 1.3472 0
M  V30 35 H 3.206 -1.2626 0.0285 0
M  V30 36 H 4.563 0.7771 -0.2613 0
M  V30 37 H -0.8462 1.4241 -1.3955 0
M  V30 38 H -0.096 -1.5372 -0.924 0
M  V30 39 H -1.3624 0.8265 2.4188 0
M  V30 40 H 4.3195 1.8258 1.6972 0
M  V30 41 H 4.0318 1.9337 -2.3205 0
M  V30 42 H 0.785 2.3951 -5.651 0
M  V30 43 H 0.7698 4.001 -4.8801 0
M  V30 44 H -1.3124 -2.4462 -2.7326 0
M  V30 45 H -1.9377 -4.0988 -2.6962 0
M  V30 46 H -0.5595 -3.696 -1.6662 0
M  V30 47 H -2.5841 -0.0432 4.3194 0
M  V30 48 H -4.3031 0.3352 4.4818 0
M  V30 49 H -3.2916 1.4106 3.5115 0
M  V30 50 H -5.4399 -0.6981 0.4452 0
M  V30 51 H -6.1307 -2.2911 0.1002 0
M  V30 52 H -4.9151 -1.6258 -1.0015 0
M  V30 END ATOM
M  V30 BEGIN BOND
M  V30 1 2 1 2
M  V30 2 1 2 3
M  V30 3 1 2 4
M  V30 4 1 3 5
M  V30 5 1 4 6
M  V30 6 1 4 7
M  V30 7 1 6 8
M  V30 8 1 6 9
M  V30 9 1 7 10
M  V30 10 2 8 11
M  V30 11 1 8 12
M  V30 12 2 9 13
M  V30 13 1 9 14
M  V30 14 1 10 15
M  V30 15 1 11 16
M  V30 16 2 12 17
M  V30 17 1 13 18
M  V30 18 2 14 19
M  V30 19 2 16 20
M  V30 20 1 17 21
M  V30 21 1 18 22
M  V30 22 2 18 23
M  V30 23 1 19 24
M  V30 24 1 20 25
M  V30 25 1 21 26
M  V30 26 1 22 27
M  V30 27 1 23 28
M  V30 28 1 24 29
M  V30 29 1 28 30
M  V30 30 1 5 7
M  V30 31 1 10 11
M  V30 32 1 17 20
M  V30 33 1 19 23
M  V30 34 1 25 26
M  V30 35 1 4 31
M  V30 36 1 5 32
M  V30 37 1 5 33
M  V30 38 1 6 34
M  V30 39 1 7 35
M  V30 40 1 10 36
M  V30 41 1 12 37
M  V30 42 1 13 38
M  V30 43 1 14 39
M  V30 44 1 15 40
M  V30 45 1 16 41
M  V30 46 1 26 42
M  V30 47 1 26 43
M  V30 48 1 27 44
M  V30 49 1 27 45
M  V30 50 1 27 46
M  V30 51 1 29 47
M  V30 52 1 29 48
M  V30 53 1 29 49
M  V30 54 1 30 50
M  V30 55 1 30 51
M  V30 56 1 30 52
M  V30 END BOND
M  V30 END CTAB
M  END
>  <Column 1>
3528

>  <level_0>
5790

>  <index>
5791

>  <Unnamed: 0>
5791

>  <NO.>
5803

>  <Name>
4354-76-1

>  <IUPAC_name>
5-hydroxy-9-(3-4-5-trimethoxyphenyl)-5a-6-8a-9-tetrahydro-5h-[2]benzofuro[5-6-f][1-3]benzodioxol-8-one

>  <SMILES>
COc1cc(C2c3cc4c(cc3C(O)C3COC(=O)C23)OCO4)cc(OC)c1OC

>  <CID>
4865

>  <logBB>


>  <BBB+/BBB->
BBB-

>  <Inchi>
InChI=1S/C22H22O8/c1-25-16-4-10(5-17(26-2)21(16)27-3)18-11-6-14-15(30-9-29-14)7-12(11)20(23)13-8-28-22(24)19(13)18/h4-7-13-18-20-23H-8-9H2-1-3H3

>  <threshold>


>  <reference>
R23|

>  <group>
C

>  <Class>
-1

>  <ABC>
23.82

>  <ABCGG>
19.77

>  <nAcid>
0

>  <nBase>
0

>  <nAromAtom>
12

>  <nAromBond>
12

>  <nAtom>
52

>  <nHeavyAtom>
30

>  <nSpiro>
0

>  <nBridgehead>
0

>  <nHetero>
8

>  <nN>
0

>  <nO>
8

>  <nF>
0

>  <BalabanJ>
1.47

>  <BertzCT>
991.43

>  <nBonds>
56

>  <nBondsO>
34

>  <nBondsS>
43

>  <nBondsD>
1

>  <nBondsT>
0

>  <nBondsA>
12

>  <nBondsM>
13

>  <nBondsKS>
49

>  <nBondsKD>
7

>  <RNCG>
0.14

>  <RPCG>
0.09

>  <FCSP3>
0.41

>  <SZ>
36.33

>  <Sm>
34.5

>  <Sv>
33.68

>  <Sse>
53.41

>  <Sp>
34.63

>  <Si>
58.24

>  <MZ>
0.7

>  <Mm>
0.66

>  <Mv>
0.65

>  <Mse>
1.03

>  <Mp>
0.67

>  <Mi>
1.12

>  <NsCH3>
3

>  <NdCH2>
0

>  <NssCH2>
2

>  <NtCH>
0

>  <NdsCH>
0

>  <NaaCH>
4

>  <NsssCH>
4

>  <NddC>
0

>  <NtsC>
0

>  <NdssC>
1

>  <NaasC>
8

>  <NaaaC>
0

>  <NssssC>
0

>  <NsNH3>
0

>  <NsNH2>
0

>  <NssNH2>
0

>  <NdNH>
0

>  <NssNH>
0

>  <NaaNH>
0

>  <NtN>
0

>  <NsssNH>
0

>  <NdsN>
0

>  <NaaN>
0

>  <NsssN>
0

>  <NddsN>
0

>  <NaasN>
0

>  <NssssN>
0

>  <NsOH>
1

>  <NdO>
1

>  <NssO>
6

>  <NaaO>
0

>  <NsF>
0

>  <NsSiH3>
0

>  <NssSiH2>
0

>  <NsssSiH>
0

>  <NssssSi>
0

>  <NsPH2>
0

>  <NssPH>
0

>  <NsssP>
0

>  <NdsssP>
0

>  <NsssssP>
0

>  <NsSH>
0

>  <NdS>
0

>  <NssS>
0

>  <NaaS>
0

>  <NdssS>
0

>  <NddssS>
0

>  <NsCl>
0

>  <NsBr>
0

>  <NsI>
0

>  <fragCpx>
286.08

>  <fMF>
0.42

>  <nHBAcc>
8

>  <nHBDon>
1

>  <Kier1>
21.83

>  <Kier2>
8.74

>  <Lipinski>
1

>  <GhoseFilter>
1

>  <FilterItLogS>
-4.15

>  <VMcGowan>
283.4

>  <LabuteASA>
172.76

>  <PEOE_VSA1>
33.53

>  <PEOE_VSA2>
4.79

>  <PEOE_VSA3>
0

>  <PEOE_VSA4>
0

>  <PEOE_VSA5>
0

>  <PEOE_VSA6>
0

>  <PEOE_VSA7>
40.96

>  <PEOE_VSA8>
11.84

>  <PEOE_VSA9>
39.96

>  <PEOE_VSA10>
0

>  <PEOE_VSA11>
23

>  <PEOE_VSA12>
12.54

>  <PEOE_VSA13>
0

>  <SMR_VSA1>
38.32

>  <SMR_VSA2>
0

>  <SMR_VSA3>
0

>  <SMR_VSA4>
11.84

>  <SMR_VSA5>
12.02

>  <SMR_VSA6>
34.73

>  <SMR_VSA7>
40.96

>  <SMR_VSA8>
0

>  <SMR_VSA9>
28.75

>  <SlogP_VSA1>
23.68

>  <SlogP_VSA2>
45.81

>  <SlogP_VSA3>
9.53

>  <SlogP_VSA4>
11.84

>  <SlogP_VSA5>
28.71

>  <SlogP_VSA6>
24.27

>  <SlogP_VSA7>
0

>  <SlogP_VSA8>
0

>  <SlogP_VSA9>
0

>  <SlogP_VSA10>
0

>  <SlogP_VSA11>
28.75

>  <EState_VSA1>
12.02

>  <EState_VSA2>
31.2

>  <EState_VSA3>
34.31

>  <EState_VSA4>
11.13

>  <EState_VSA5>
7.11

>  <EState_VSA6>
20.29

>  <EState_VSA7>
18.2

>  <EState_VSA8>
0

>  <EState_VSA9>
28.42

>  <EState_VSA10>
9.9

>  <VSA_EState1>
32.89

>  <VSA_EState2>
12.74

>  <VSA_EState3>
11.03

>  <VSA_EState4>
2.3

>  <VSA_EState5>
0.99

>  <VSA_EState6>
7.31

>  <VSA_EState7>
-0.84

>  <VSA_EState8>
0.29

>  <VSA_EState9>
4.63

>  <apol>
57.83

>  <bpol>
33.35

>  <nRing>
5

>  <nHRing>
2

>  <naRing>
2

>  <naHRing>
0

>  <nARing 2>
3

>  <nAHRing 2>
2

>  <nFRing>
1

>  <nFHRing>
1

>  <nFaRing>
0

>  <nFaHRing>
0

>  <nFARing 2>
1

>  <nFAHRing 2>
1

>  <nRot>
4

>  <SLogP>
2.41

>  <SMR>
103.4

>  <TopoPSA(NO)>
92.68

>  <TopoPSA>
92.68

>  <JGI1>
0.16

>  <JGI2>
0.08

>  <JGI3>
0.05

>  <JGI4>
0.05

>  <JGI5>
0.03

>  <Diameter>
11

>  <Radius>
6

>  <TMWC10>
143.89

>  <TSRW10>
82.38

>  <MW>
414.13

>  <AMW>
7.96

>  <WPath>
2119

>  <WPol>
58

>  <Zagreb1>
170

>  <Zagreb2>
213

>  <mZagreb2>
6.64

>  <yes>


>  <nAR-cont>
0.691115

>  <nHA-cont>
0.74523694

>  <MWHBN>
0.442256438

>  <MWHBN-cont>
0.313982317

>  <TPSA-cont>
0.353036049

>  <pka_cont>
0.97

>  <yes.1>


>  <BBB_SCORE>
3.098397513

>  <MMFF94 Energy>
75.724

$$$$
Compound 2794
Actelion Java MolfileCreator 2.0

  0  0  0  0  0  0              0 V3000
M  V30 BEGIN CTAB
M  V30 COUNTS 35 36 0 0 0
M  V30 BEGIN ATOM
M  V30 1 S 0.6428 2.7341 1.6076 0
M  V30 2 O 1.7238 3.4923 2.2007 0
M  V30 3 O -0.7398 3.085 1.8567 0
M  V30 4 N 0.9104 2.7294 -0.054 0
M  V30 5 C 0.8717 1.0324 2.0703 0
M  V30 6 C 0.1563 1.823 -0.8272 0
M  V30 7 C -0.235 0.2282 2.349 0
M  V30 8 C 2.166 0.5201 2.1767 0
M  V30 9 N 0.9321 0.9081 -1.4135 0
M  V30 10 C -1.2048 1.8941 -0.9531 0
M  V30 11 C -0.0387 -1.1062 2.7137 0
M  V30 12 C 2.3465 -0.8163 2.5423 0
M  V30 13 C 0.2848 -0.0013 -2.1495 0
M  V30 14 C -1.7546 0.9131 -1.7354 0
M  V30 15 C 1.2499 -1.6374 2.823 0
M  V30 16 O 1.1008 -0.941 -2.7399 0
M  V30 17 N -1.0407 -0.049 -2.3423 0
M  V30 18 O -3.1276 0.9479 -1.8806 0
M  V30 19 N 1.435 -2.9662 3.1548 0
M  V30 20 C 0.3819 -1.9292 -3.4651 0
M  V30 21 C -3.6365 -0.0911 -2.7111 0
M  V30 22 H 1.9043 2.6694 -0.268 0
M  V30 23 H -1.2464 0.6225 2.2843 0
M  V30 24 H 3.0333 1.1448 1.9777 0
M  V30 25 H -1.8054 2.6594 -0.4834 0
M  V30 26 H -0.9051 -1.7304 2.9178 0
M  V30 27 H 3.3564 -1.2129 2.6109 0
M  V30 28 H 2.3661 -3.3357 3.2896 0
M  V30 29 H 0.649 -3.5437 3.4195 0
M  V30 30 H 1.1091 -2.6352 -3.8777 0
M  V30 31 H -0.2923 -2.4927 -2.8105 0
M  V30 32 H -0.1645 -1.4872 -4.3055 0
M  V30 33 H -4.7232 0.0263 -2.7641 0
M  V30 34 H -3.2422 -0.0129 -3.7301 0
M  V30 35 H -3.4281 -1.0778 -2.2832 0
M  V30 END ATOM
M  V30 BEGIN BOND
M  V30 1 2 1 2
M  V30 2 2 1 3
M  V30 3 1 1 4
M  V30 4 1 1 5
M  V30 5 1 4 6
M  V30 6 2 5 7
M  V30 7 1 5 8
M  V30 8 2 6 9
M  V30 9 1 6 10
M  V30 10 1 7 11
M  V30 11 2 8 12
M  V30 12 1 9 13
M  V30 13 2 10 14
M  V30 14 2 11 15
M  V30 15 1 13 16
M  V30 16 2 13 17
M  V30 17 1 14 18
M  V30 18 1 15 19
M  V30 19 1 16 20
M  V30 20 1 18 21
M  V30 21 1 12 15
M  V30 22 1 14 17
M  V30 23 1 4 22
M  V30 24 1 7 23
M  V30 25 1 8 24
M  V30 26 1 10 25
M  V30 27 1 11 26
M  V30 28 1 12 27
M  V30 29 1 19 28
M  V30 30 1 19 29
M  V30 31 1 20 30
M  V30 32 1 20 31
M  V30 33 1 20 32
M  V30 34 1 21 33
M  V30 35 1 21 34
M  V30 36 1 21 35
M  V30 END BOND
M  V30 END CTAB
M  END
>  <Column 1>
3529

>  <level_0>
5791

>  <index>
5792

>  <Unnamed: 0>
5792

>  <NO.>
5804

>  <Name>
sulfadimethoxine

>  <IUPAC_name>
4-amino-n-(2-6-dimethoxypyrimidin-4-yl)benzenesulfonamide

>  <SMILES>
COc1cc(NS(=O)(=O)c2ccc(N)cc2)nc(OC)n1

>  <CID>
5323

>  <logBB>


>  <BBB+/BBB->
BBB-

>  <Inchi>
InChI=1S/C12H14N4O4S/c1-19-11-7-10(14-12(15-11)20-2)16-21(17-18)9-5-3-8(13)4-6-9/h3-7H-13H2-1-2H3-(H-14-15-16)

>  <threshold>


>  <reference>
R23|

>  <group>
C

>  <Class>
-1

>  <ABC>
15.92

>  <ABCGG>
13.56

>  <nAcid>
0

>  <nBase>
0

>  <nAromAtom>
12

>  <nAromBond>
12

>  <nAtom>
35

>  <nHeavyAtom>
21

>  <nSpiro>
0

>  <nBridgehead>
0

>  <nHetero>
9

>  <nN>
4

>  <nO>
4

>  <nF>
0

>  <BalabanJ>
1.91

>  <BertzCT>
709.17

>  <nBonds>
36

>  <nBondsO>
22

>  <nBondsS>
22

>  <nBondsD>
2

>  <nBondsT>
0

>  <nBondsA>
12

>  <nBondsM>
14

>  <nBondsKS>
28

>  <nBondsKD>
8

>  <RNCG>
0.19

>  <RPCG>
0.13

>  <FCSP3>
0.17

>  <SZ>
27

>  <Sm>
25.84

>  <Sv>
22.87

>  <Sse>
36.27

>  <Sp>
23.88

>  <Si>
39.83

>  <MZ>
0.77

>  <Mm>
0.74

>  <Mv>
0.65

>  <Mse>
1.04

>  <Mp>
0.68

>  <Mi>
1.14

>  <NsCH3>
2

>  <NdCH2>
0

>  <NssCH2>
0

>  <NtCH>
0

>  <NdsCH>
0

>  <NaaCH>
5

>  <NsssCH>
0

>  <NddC>
0

>  <NtsC>
0

>  <NdssC>
0

>  <NaasC>
5

>  <NaaaC>
0

>  <NssssC>
0

>  <NsNH3>
0

>  <NsNH2>
1

>  <NssNH2>
0

>  <NdNH>
0

>  <NssNH>
1

>  <NaaNH>
0

>  <NtN>
0

>  <NsssNH>
0

>  <NdsN>
0

>  <NaaN>
2

>  <NsssN>
0

>  <NddsN>
0

>  <NaasN>
0

>  <NssssN>
0

>  <NsOH>
0

>  <NdO>
2

>  <NssO>
2

>  <NaaO>
0

>  <NsF>
0

>  <NsSiH3>
0

>  <NssSiH2>
0

>  <NsssSiH>
0

>  <NssssSi>
0

>  <NsPH2>
0

>  <NssPH>
0

>  <NsssP>
0

>  <NdsssP>
0

>  <NsssssP>
0

>  <NsSH>
0

>  <NdS>
0

>  <NssS>
0

>  <NaaS>
0

>  <NdssS>
0

>  <NddssS>
1

>  <NsCl>
0

>  <NsBr>
0

>  <NsI>
0

>  <fragCpx>
64.09

>  <fMF>
0.4

>  <nHBAcc>
7

>  <nHBDon>
2

>  <Kier1>
17.36

>  <Kier2>
7.51

>  <Lipinski>
1

>  <GhoseFilter>
1

>  <FilterItLogS>
-3.27

>  <VMcGowan>
212.17

>  <LabuteASA>
121.54

>  <PEOE_VSA1>
15.21

>  <PEOE_VSA2>
4.72

>  <PEOE_VSA3>
8.42

>  <PEOE_VSA4>
9.97

>  <PEOE_VSA5>
0

>  <PEOE_VSA6>
0

>  <PEOE_VSA7>
24.27

>  <PEOE_VSA8>
11.75

>  <PEOE_VSA9>
19.12

>  <PEOE_VSA10>
0

>  <PEOE_VSA11>
5.82

>  <PEOE_VSA12>
5.88

>  <PEOE_VSA13>
10.02

>  <SMR_VSA1>
17.89

>  <SMR_VSA2>
0

>  <SMR_VSA3>
9.97

>  <SMR_VSA4>
0

>  <SMR_VSA5>
4.9

>  <SMR_VSA6>
24.68

>  <SMR_VSA7>
30.33

>  <SMR_VSA8>
0

>  <SMR_VSA9>
11.89

>  <SlogP_VSA1>
19.93

>  <SlogP_VSA2>
32.61

>  <SlogP_VSA3>
10.02

>  <SlogP_VSA4>
0

>  <SlogP_VSA5>
0

>  <SlogP_VSA6>
35.23

>  <SlogP_VSA7>
0

>  <SlogP_VSA8>
0

>  <SlogP_VSA9>
0

>  <SlogP_VSA10>
11.51

>  <SlogP_VSA11>
11.89

>  <EState_VSA1>
10.02

>  <EState_VSA2>
22.6

>  <EState_VSA3>
5.69

>  <EState_VSA4>
0

>  <EState_VSA5>
44.55

>  <EState_VSA6>
0

>  <EState_VSA7>
0

>  <EState_VSA8>
14.69

>  <EState_VSA9>
15.21

>  <EState_VSA10>
8.42

>  <VSA_EState1>
36.59

>  <VSA_EState2>
7.84

>  <VSA_EState3>
0

>  <VSA_EState4>
6

>  <VSA_EState5>
0.22

>  <VSA_EState6>
7.12

>  <VSA_EState7>
0

>  <VSA_EState8>
0

>  <VSA_EState9>
-1.02

>  <apol>
39.88

>  <bpol>
26.45

>  <nRing>
2

>  <nHRing>
1

>  <naRing>
2

>  <naHRing>
1

>  <nARing 2>
0

>  <nAHRing 2>
0

>  <nFRing>
0

>  <nFHRing>
0

>  <nFaRing>
0

>  <nFaHRing>
0

>  <nFARing 2>
0

>  <nFAHRing 2>
0

>  <nRot>
5

>  <SLogP>
0.88

>  <SMR>
76.8

>  <TopoPSA(NO)>
116.43

>  <TopoPSA>
124.81

>  <JGI1>
0.3

>  <JGI2>
0.08

>  <JGI3>
0.06

>  <JGI4>
0.05

>  <JGI5>
0.04

>  <Diameter>
11

>  <Radius>
6

>  <TMWC10>
115.87

>  <TSRW10>
54.73

>  <MW>
310.07

>  <AMW>
8.86

>  <WPath>
956

>  <WPol>
31

>  <Zagreb1>
106

>  <Zagreb2>
121

>  <mZagreb2>
4.71

>  <yes>


>  <nAR-cont>
0.336376

>  <nHA-cont>
0.994529749

>  <MWHBN>
0.511107948

>  <MWHBN-cont>
0

>  <TPSA-cont>
0

>  <pka_cont>
0.97

>  <yes.1>


>  <BBB_SCORE>
1.815905749

>  <MMFF94 Energy>
-151.45

$$$$
Compound 2795
Actelion Java MolfileCreator 2.0

  0  0  0  0  0  0              0 V3000
M  V30 BEGIN CTAB
M  V30 COUNTS 47 50 0 0 0
M  V30 BEGIN ATOM
M  V30 1 S -4.4519 -0.1616 3.3172 0
M  V30 2 O -4.6161 -1.3533 2.5166 0
M  V30 3 O -5.1947 0.0248 4.5462 0
M  V30 4 N -2.8349 0.0326 3.739 0
M  V30 5 C -4.7565 1.263 2.2899 0
M  V30 6 C -1.8261 0.1138 2.7367 0
M  V30 7 C -0.9771 1.2245 2.7366 0
M  V30 8 C -1.6591 -0.8893 1.7869 0
M  V30 9 C 0.0236 1.3444 1.7661 0
M  V30 10 C -0.6635 -0.774 0.8146 0
M  V30 11 O 0.9069 2.3954 1.6698 0
M  V30 12 C 0.1844 0.3388 0.7872 0
M  V30 13 C 0.8171 3.4174 2.6544 0
M  V30 14 N 1.1839 0.492 -0.1939 0
M  V30 15 C 1.5104 -0.333 -1.296 0
M  V30 16 C 2.7195 -1.0723 -1.2734 0
M  V30 17 C 0.6788 -0.3755 -2.4447 0
M  V30 18 C 3.02 -1.8544 -2.4026 0
M  V30 19 C 3.6187 -1.0767 -0.1787 0
M  V30 20 C 1.0901 -1.2024 -3.5058 0
M  V30 21 C -0.5183 0.3693 -2.5882 0
M  V30 22 N 2.2229 -1.9185 -3.4781 0
M  V30 23 C 4.194 -2.5968 -2.4101 0
M  V30 24 C 4.7909 -1.8297 -0.2094 0
M  V30 25 C 0.2976 -1.2793 -4.6439 0
M  V30 26 C -1.2965 0.2778 -3.7407 0
M  V30 27 C 5.0806 -2.5919 -1.331 0
M  V30 28 C -0.8884 -0.5535 -4.772 0
M  V30 29 H -2.7205 0.5964 4.5804 0
M  V30 30 H -4.4937 2.1646 2.8465 0
M  V30 31 H -4.1739 1.1804 1.3713 0
M  V30 32 H -5.8217 1.2771 2.0479 0
M  V30 33 H -1.1136 1.9868 3.4945 0
M  V30 34 H -2.2826 -1.7802 1.7945 0
M  V30 35 H -0.5522 -1.5726 0.0852 0
M  V30 36 H -0.1498 3.9283 2.6045 0
M  V30 37 H 1.5952 4.1564 2.4406 0
M  V30 38 H 1.0039 3.0178 3.6566 0
M  V30 39 H 1.8025 1.2829 -0.0379 0
M  V30 40 H 3.3982 -0.4964 0.7146 0
M  V30 41 H -0.8486 1.0319 -1.7916 0
M  V30 42 H 4.4246 -3.2003 -3.2852 0
M  V30 43 H 5.4678 -1.8233 0.6405 0
M  V30 44 H 0.617 -1.9234 -5.4603 0
M  V30 45 H -2.2136 0.8538 -3.8286 0
M  V30 46 H 5.9887 -3.1872 -1.3719 0
M  V30 47 H -1.4821 -0.6386 -5.678 0
M  V30 END ATOM
M  V30 BEGIN BOND
M  V30 1 2 1 2
M  V30 2 2 1 3
M  V30 3 1 1 4
M  V30 4 1 1 5
M  V30 5 1 4 6
M  V30 6 2 6 7
M  V30 7 1 6 8
M  V30 8 1 7 9
M  V30 9 2 8 10
M  V30 10 1 9 11
M  V30 11 2 9 12
M  V30 12 1 11 13
M  V30 13 1 12 14
M  V30 14 1 14 15
M  V30 15 1 15 16
M  V30 16 2 15 17
M  V30 17 1 16 18
M  V30 18 2 16 19
M  V30 19 1 17 20
M  V30 20 1 17 21
M  V30 21 1 18 22
M  V30 22 2 18 23
M  V30 23 1 19 24
M  V30 24 1 20 25
M  V30 25 2 21 26
M  V30 26 1 23 27
M  V30 27 2 25 28
M  V30 28 1 10 12
M  V30 29 2 20 22
M  V30 30 2 24 27
M  V30 31 1 26 28
M  V30 32 1 4 29
M  V30 33 1 5 30
M  V30 34 1 5 31
M  V30 35 1 5 32
M  V30 36 1 7 33
M  V30 37 1 8 34
M  V30 38 1 10 35
M  V30 39 1 13 36
M  V30 40 1 13 37
M  V30 41 1 13 38
M  V30 42 1 14 39
M  V30 43 1 19 40
M  V30 44 1 21 41
M  V30 45 1 23 42
M  V30 46 1 24 43
M  V30 47 1 25 44
M  V30 48 1 26 45
M  V30 49 1 27 46
M  V30 50 1 28 47
M  V30 END BOND
M  V30 END CTAB
M  END
>  <Column 1>
3530

>  <level_0>
5792

>  <index>
5793

>  <Unnamed: 0>
5793

>  <NO.>
5805

>  <Name>
amsacrine

>  <IUPAC_name>
n-[4-(acridin-9-ylamino)-3-methoxyphenyl]methanesulfonamide

>  <SMILES>
COc1cc(NS(C)(=O)=O)ccc1Nc1c2ccccc2nc2ccccc12

>  <CID>
2179

>  <logBB>


>  <BBB+/BBB->
BBB-

>  <Inchi>
InChI=1S/C21H19N3O3S/c1-27-20-13-14(24-28(2-25)26)11-12-19(20)23-21-15-7-3-5-9-17(15)22-18-10-6-4-8-16(18)21/h3-13-24H-1-2H3-(H-22-23)

>  <threshold>


>  <reference>
R23|

>  <group>
C

>  <Class>
-1

>  <ABC>
22.19

>  <ABCGG>
16.8

>  <nAcid>
0

>  <nBase>
0

>  <nAromAtom>
20

>  <nAromBond>
22

>  <nAtom>
47

>  <nHeavyAtom>
28

>  <nSpiro>
0

>  <nBridgehead>
0

>  <nHetero>
7

>  <nN>
3

>  <nO>
3

>  <nF>
0

>  <BalabanJ>
1.44

>  <BertzCT>
1232.82

>  <nBonds>
50

>  <nBondsO>
31

>  <nBondsS>
26

>  <nBondsD>
2

>  <nBondsT>
0

>  <nBondsA>
22

>  <nBondsM>
24

>  <nBondsKS>
38

>  <nBondsKD>
12

>  <RNCG>
0.22

>  <RPCG>
0.1

>  <FCSP3>
0.1

>  <SZ>
34.33

>  <Sm>
32.76

>  <Sv>
31.75

>  <Sse>
47.49

>  <Sp>
33.74

>  <Si>
52.37

>  <MZ>
0.73

>  <Mm>
0.7

>  <Mv>
0.68

>  <Mse>
1.01

>  <Mp>
0.72

>  <Mi>
1.11

>  <NsCH3>
2

>  <NdCH2>
0

>  <NssCH2>
0

>  <NtCH>
0

>  <NdsCH>
0

>  <NaaCH>
11

>  <NsssCH>
0

>  <NddC>
0

>  <NtsC>
0

>  <NdssC>
0

>  <NaasC>
4

>  <NaaaC>
4

>  <NssssC>
0

>  <NsNH3>
0

>  <NsNH2>
0

>  <NssNH2>
0

>  <NdNH>
0

>  <NssNH>
2

>  <NaaNH>
0

>  <NtN>
0

>  <NsssNH>
0

>  <NdsN>
0

>  <NaaN>
1

>  <NsssN>
0

>  <NddsN>
0

>  <NaasN>
0

>  <NssssN>
0

>  <NsOH>
0

>  <NdO>
2

>  <NssO>
1

>  <NaaO>
0

>  <NsF>
0

>  <NsSiH3>
0

>  <NssSiH2>
0

>  <NsssSiH>
0

>  <NssssSi>
0

>  <NsPH2>
0

>  <NssPH>
0

>  <NsssP>
0

>  <NdsssP>
0

>  <NsssssP>
0

>  <NsSH>
0

>  <NdS>
0

>  <NssS>
0

>  <NaaS>
0

>  <NdssS>
0

>  <NddssS>
1

>  <NsCl>
0

>  <NsBr>
0

>  <NsI>
0

>  <fragCpx>
205.07

>  <fMF>
0.45

>  <nHBAcc>
5

>  <nHBDon>
2

>  <Kier1>
21.24

>  <Kier2>
9.01

>  <Lipinski>
1

>  <GhoseFilter>
1

>  <FilterItLogS>
-6.7

>  <VMcGowan>
284.21

>  <LabuteASA>
162.78

>  <PEOE_VSA1>
10.05

>  <PEOE_VSA2>
4.72

>  <PEOE_VSA3>
13.4

>  <PEOE_VSA4>
0

>  <PEOE_VSA5>
0

>  <PEOE_VSA6>
36.4

>  <PEOE_VSA7>
24.27

>  <PEOE_VSA8>
16.84

>  <PEOE_VSA9>
41.46

>  <PEOE_VSA10>
5.75

>  <PEOE_VSA11>
0

>  <PEOE_VSA12>
10.02

>  <PEOE_VSA13>
0

>  <SMR_VSA1>
13.15

>  <SMR_VSA2>
0

>  <SMR_VSA3>
4.98

>  <SMR_VSA4>
0

>  <SMR_VSA5>
0

>  <SMR_VSA6>
23.4

>  <SMR_VSA7>
66.73

>  <SMR_VSA8>
0

>  <SMR_VSA9>
5.75

>  <SlogP_VSA1>
14.78

>  <SlogP_VSA2>
26.77

>  <SlogP_VSA3>
10.02

>  <SlogP_VSA4>
0

>  <SlogP_VSA5>
0

>  <SlogP_VSA6>
66.73

>  <SlogP_VSA7>
0

>  <SlogP_VSA8>
21.81

>  <SlogP_VSA9>
0

>  <SlogP_VSA10>
17.06

>  <SlogP_VSA11>
5.75

>  <EState_VSA1>
10.02

>  <EState_VSA2>
0

>  <EState_VSA3>
11.44

>  <EState_VSA4>
39.44

>  <EState_VSA5>
0

>  <EState_VSA6>
25.31

>  <EState_VSA7>
48.53

>  <EState_VSA8>
10.04

>  <EState_VSA9>
9.72

>  <EState_VSA10>
8.42

>  <VSA_EState1>
30.93

>  <VSA_EState2>
4.73

>  <VSA_EState3>
5.43

>  <VSA_EState4>
3.86

>  <VSA_EState5>
0.53

>  <VSA_EState6>
20.97

>  <VSA_EState7>
1.11

>  <VSA_EState8>
0

>  <VSA_EState9>
-1.82

>  <apol>
56.35

>  <bpol>
29.73

>  <nRing>
4

>  <nHRing>
1

>  <naRing>
4

>  <naHRing>
1

>  <nARing 2>
0

>  <nAHRing 2>
0

>  <nFRing>
1

>  <nFHRing>
1

>  <nFaRing>
1

>  <nFaHRing>
1

>  <nFARing 2>
0

>  <nFAHRing 2>
0

>  <nRot>
5

>  <SLogP>
4.51

>  <SMR>
113.99

>  <TopoPSA(NO)>
80.32

>  <TopoPSA>
88.7

>  <JGI1>
0.21

>  <JGI2>
0.06

>  <JGI3>
0.04

>  <JGI4>
0.04

>  <JGI5>
0.02

>  <Diameter>
12

>  <Radius>
6

>  <TMWC10>
136.23

>  <TSRW10>
63.74

>  <MW>
393.11

>  <AMW>
8.36

>  <WPath>
2003

>  <WPol>
46

>  <Zagreb1>
152

>  <Zagreb2>
179

>  <mZagreb2>
6.01

>  <yes>


>  <nAR-cont>
0.336376

>  <nHA-cont>
0.82432561

>  <MWHBN>
0.353053884

>  <MWHBN-cont>
0.658788413

>  <TPSA-cont>
0.380818921

>  <pka_cont>
0.97

>  <yes.1>


>  <BBB_SCORE>
3.395522071

>  <MMFF94 Energy>
40.38

$$$$
Compound 2796
Actelion Java MolfileCreator 2.0

  0  0  0  0  0  0              0 V3000
M  V30 BEGIN CTAB
M  V30 COUNTS 63 66 0 0 0
M  V30 BEGIN ATOM
M  V30 1 O 4.6705 2.3727 2.6102 0
M  V30 2 C 4.2474 1.0836 2.4264 0
M  V30 3 C 5.8852 2.5623 3.3239 0
M  V30 4 C 4.9055 -0.0652 2.8646 0
M  V30 5 C 3.039 0.9647 1.7306 0
M  V30 6 C 4.3547 -1.321 2.607 0
M  V30 7 C 2.4584 -0.2842 1.4563 0
M  V30 8 O 4.8946 -2.5255 2.9729 0
M  V30 9 C 3.1436 -1.4199 1.9099 0
M  V30 10 N 1.2355 -0.3646 0.7434 0
M  V30 11 C 6.1185 -2.496 3.6956 0
M  V30 12 C 0.8707 0.4344 -0.3665 0
M  V30 13 C 0.2772 -1.4017 1.1995 0
M  V30 14 C -0.4549 0.8077 -0.6352 0
M  V30 15 C 1.8462 0.8836 -1.2672 0
M  V30 16 C 0.1513 -2.5487 0.1709 0
M  V30 17 C -0.811 1.5791 -1.7385 0
M  V30 18 C 1.508 1.661 -2.3788 0
M  V30 19 N -0.6897 -3.6789 0.5944 0
M  V30 20 N -2.1079 1.8932 -1.9339 0
M  V30 21 C 0.1942 2.0153 -2.6308 0
M  V30 22 C -2.1084 -3.3616 0.7998 0
M  V30 23 C -2.4056 2.6459 -3.022 0
M  V30 24 N -0.1013 2.7607 -3.7123 0
M  V30 25 C -2.8169 -2.9239 -0.4835 0
M  V30 26 C -2.7863 -4.6147 1.3611 0
M  V30 27 C -3.8018 2.981 -3.2273 0
M  V30 28 C -1.4095 3.0665 -3.8894 0
M  V30 29 C -4.4528 3.7109 -4.2484 0
M  V30 30 C -4.8308 2.6114 -2.3825 0
M  V30 31 N -5.7736 3.7946 -4.0655 0
M  V30 32 N -5.9756 3.1174 -2.9206 0
M  V30 33 C -7.3124 2.9941 -2.3931 0
M  V30 34 H 5.8066 2.1784 4.3464 0
M  V30 35 H 6.0719 3.6387 3.3862 0
M  V30 36 H 6.7289 2.1083 2.7938 0
M  V30 37 H 5.8405 0.0172 3.4015 0
M  V30 38 H 2.5326 1.8749 1.4159 0
M  V30 39 H 2.7572 -2.4152 1.7078 0
M  V30 40 H 6.9191 -2.0492 3.0972 0
M  V30 41 H 6.4032 -3.5298 3.9132 0
M  V30 42 H 6.0002 -1.975 4.6515 0
M  V30 43 H -0.6984 -0.9474 1.3994 0
M  V30 44 H 0.5723 -1.8204 2.171 0
M  V30 45 H -1.2598 0.5225 0.0346 0
M  V30 46 H 2.8907 0.6126 -1.1258 0
M  V30 47 H 1.154 -2.9525 -0.0149 0
M  V30 48 H -0.188 -2.1693 -0.7987 0
M  V30 49 H 2.2876 1.9898 -3.061 0
M  V30 50 H -0.6094 -4.4205 -0.1028 0
M  V30 51 H -2.2137 -2.5749 1.5548 0
M  V30 52 H -2.6952 -3.6649 -1.2813 0
M  V30 53 H -2.4357 -1.9647 -0.847 0
M  V30 54 H -3.8908 -2.7973 -0.307 0
M  V30 55 H -2.311 -4.933 2.2959 0
M  V30 56 H -2.7392 -5.451 0.6544 0
M  V30 57 H -3.842 -4.4184 1.5788 0
M  V30 58 H -1.6185 3.669 -4.7657 0
M  V30 59 H -4.0274 4.1879 -5.1217 0
M  V30 60 H -4.831 2.0427 -1.4624 0
M  V30 61 H -7.9296 2.4812 -3.1348 0
M  V30 62 H -7.6996 3.9971 -2.1972 0
M  V30 63 H -7.2862 2.4166 -1.4658 0
M  V30 END ATOM
M  V30 BEGIN BOND
M  V30 1 1 1 2
M  V30 2 1 1 3
M  V30 3 2 2 4
M  V30 4 1 2 5
M  V30 5 1 4 6
M  V30 6 2 5 7
M  V30 7 1 6 8
M  V30 8 2 6 9
M  V30 9 1 7 10
M  V30 10 1 8 11
M  V30 11 1 10 12
M  V30 12 1 10 13
M  V30 13 2 12 14
M  V30 14 1 12 15
M  V30 15 1 13 16
M  V30 16 1 14 17
M  V30 17 2 15 18
M  V30 18 1 16 19
M  V30 19 2 17 20
M  V30 20 1 17 21
M  V30 21 1 19 22
M  V30 22 1 20 23
M  V30 23 2 21 24
M  V30 24 1 22 25
M  V30 25 1 22 26
M  V30 26 1 23 27
M  V30 27 2 23 28
M  V30 28 1 27 29
M  V30 29 2 27 30
M  V30 30 2 29 31
M  V30 31 1 30 32
M  V30 32 1 32 33
M  V30 33 1 7 9
M  V30 34 1 18 21
M  V30 35 1 24 28
M  V30 36 1 31 32
M  V30 37 1 3 34
M  V30 38 1 3 35
M  V30 39 1 3 36
M  V30 40 1 4 37
M  V30 41 1 5 38
M  V30 42 1 9 39
M  V30 43 1 11 40
M  V30 44 1 11 41
M  V30 45 1 11 42
M  V30 46 1 13 43
M  V30 47 1 13 44
M  V30 48 1 14 45
M  V30 49 1 15 46
M  V30 50 1 16 47
M  V30 51 1 16 48
M  V30 52 1 18 49
M  V30 53 1 19 50
M  V30 54 1 22 51
M  V30 55 1 25 52
M  V30 56 1 25 53
M  V30 57 1 25 54
M  V30 58 1 26 55
M  V30 59 1 26 56
M  V30 60 1 26 57
M  V30 61 1 28 58
M  V30 62 1 29 59
M  V30 63 1 30 60
M  V30 64 1 33 61
M  V30 65 1 33 62
M  V30 66 1 33 63
M  V30 END BOND
M  V30 END CTAB
M  END
>  <Column 1>
3533

>  <level_0>
5795

>  <index>
5796

>  <Unnamed: 0>
5796

>  <NO.>
5808

>  <Name>
erdafitinib

>  <IUPAC_name>
n'-(3-5-dimethoxyphenyl)-n'-[3-(1-methylpyrazol-4-yl)quinoxalin-6-yl]-n-propan-2-ylethane-1-2-diamine

>  <SMILES>
COc1cc(OC)cc(N(CCNC(C)C)c2ccc3ncc(-c4cnn(C)c4)nc3c2)c1

>  <CID>
67462786

>  <logBB>


>  <BBB+/BBB->
BBB-

>  <Inchi>
InChI=1S/C25H30N6O2/c1-17(2)26-8-9-31(20-10-21(32-4)13-22(11-20)33-5)19-6-7-23-24(12-19)29-25(15-27-23)18-14-28-30(3)16-18/h6-7-10-17-26H-8-9H2-1-5H3

>  <threshold>


>  <reference>
R23|

>  <group>
C

>  <Class>
-1

>  <ABC>
25.62

>  <ABCGG>
19.68

>  <nAcid>
0

>  <nBase>
1

>  <nAromAtom>
21

>  <nAromBond>
22

>  <nAtom>
63

>  <nHeavyAtom>
33

>  <nSpiro>
0

>  <nBridgehead>
0

>  <nHetero>
8

>  <nN>
6

>  <nO>
2

>  <nF>
0

>  <BalabanJ>
1.42

>  <BertzCT>
1214.53

>  <nBonds>
66

>  <nBondsO>
36

>  <nBondsS>
44

>  <nBondsD>
0

>  <nBondsT>
0

>  <nBondsA>
22

>  <nBondsM>
22

>  <nBondsKS>
56

>  <nBondsKD>
10

>  <RNCG>
0.18

>  <RPCG>
0.04

>  <FCSP3>
0.32

>  <SZ>
39.67

>  <Sm>
37.18

>  <Sv>
39.1

>  <Sse>
62.96

>  <Sp>
41.89

>  <Si>
71.39

>  <MZ>
0.63

>  <Mm>
0.59

>  <Mv>
0.62

>  <Mse>
1

>  <Mp>
0.66

>  <Mi>
1.13

>  <NsCH3>
5

>  <NdCH2>
0

>  <NssCH2>
2

>  <NtCH>
0

>  <NdsCH>
0

>  <NaaCH>
9

>  <NsssCH>
1

>  <NddC>
0

>  <NtsC>
0

>  <NdssC>
0

>  <NaasC>
6

>  <NaaaC>
2

>  <NssssC>
0

>  <NsNH3>
0

>  <NsNH2>
0

>  <NssNH2>
0

>  <NdNH>
0

>  <NssNH>
1

>  <NaaNH>
0

>  <NtN>
0

>  <NsssNH>
0

>  <NdsN>
0

>  <NaaN>
3

>  <NsssN>
1

>  <NddsN>
0

>  <NaasN>
1

>  <NssssN>
0

>  <NsOH>
0

>  <NdO>
0

>  <NssO>
2

>  <NaaO>
0

>  <NsF>
0

>  <NsSiH3>
0

>  <NssSiH2>
0

>  <NsssSiH>
0

>  <NssssSi>
0

>  <NsPH2>
0

>  <NssPH>
0

>  <NsssP>
0

>  <NdsssP>
0

>  <NsssssP>
0

>  <NsSH>
0

>  <NdS>
0

>  <NssS>
0

>  <NaaS>
0

>  <NdssS>
0

>  <NddssS>
0

>  <NsCl>
0

>  <NsBr>
0

>  <NsI>
0

>  <fragCpx>
240.08

>  <fMF>
0.35

>  <nHBAcc>
8

>  <nHBDon>
1

>  <Kier1>
26.07

>  <Kier2>
12.3

>  <Lipinski>
1

>  <GhoseFilter>
0

>  <FilterItLogS>
-6.55

>  <VMcGowan>
348.29

>  <LabuteASA>
193.73

>  <PEOE_VSA1>
19.69

>  <PEOE_VSA2>
9.67

>  <PEOE_VSA3>
4.98

>  <PEOE_VSA4>
5.1

>  <PEOE_VSA5>
0

>  <PEOE_VSA6>
13.85

>  <PEOE_VSA7>
18.2

>  <PEOE_VSA8>
67.51

>  <PEOE_VSA9>
43.34

>  <PEOE_VSA10>
11.5

>  <PEOE_VSA11>
0

>  <PEOE_VSA12>
0

>  <PEOE_VSA13>
0

>  <SMR_VSA1>
9.47

>  <SMR_VSA2>
0

>  <SMR_VSA3>
25.07

>  <SMR_VSA4>
7.05

>  <SMR_VSA5>
19.89

>  <SMR_VSA6>
32.21

>  <SMR_VSA7>
54.99

>  <SMR_VSA8>
0

>  <SMR_VSA9>
22.76

>  <SlogP_VSA1>
19.69

>  <SlogP_VSA2>
53.1

>  <SlogP_VSA3>
7.05

>  <SlogP_VSA4>
0

>  <SlogP_VSA5>
13.85

>  <SlogP_VSA6>
54.99

>  <SlogP_VSA7>
0

>  <SlogP_VSA8>
22.29

>  <SlogP_VSA9>
0

>  <SlogP_VSA10>
11.37

>  <SlogP_VSA11>
11.5

>  <EState_VSA1>
0

>  <EState_VSA2>
0

>  <EState_VSA3>
6.04

>  <EState_VSA4>
58.25

>  <EState_VSA5>
0

>  <EState_VSA6>
31.3

>  <EState_VSA7>
37.51

>  <EState_VSA8>
46.28

>  <EState_VSA9>
14.46

>  <EState_VSA10>
0

>  <VSA_EState1>
12.78

>  <VSA_EState2>
11.71

>  <VSA_EState3>
7.75

>  <VSA_EState4>
5.39

>  <VSA_EState5>
1.48

>  <VSA_EState6>
12.45

>  <VSA_EState7>
5.52

>  <VSA_EState8>
5.86

>  <VSA_EState9>
5.21

>  <apol>
69.96

>  <bpol>
39.84

>  <nRing>
4

>  <nHRing>
2

>  <naRing>
4

>  <naHRing>
2

>  <nARing 2>
0

>  <nAHRing 2>
0

>  <nFRing>
1

>  <nFHRing>
1

>  <nFaRing>
1

>  <nFaHRing>
1

>  <nFARing 2>
0

>  <nFAHRing 2>
0

>  <nRot>
9

>  <SLogP>
4.18

>  <SMR>
131.43

>  <TopoPSA(NO)>
77.33

>  <TopoPSA>
77.33

>  <JGI1>
0.21

>  <JGI2>
0.07

>  <JGI3>
0.04

>  <JGI4>
0.04

>  <JGI5>
0.02

>  <Diameter>
14

>  <Radius>
7

>  <TMWC10>
146.78

>  <TSRW10>
82.64

>  <MW>
446.24

>  <AMW>
7.08

>  <WPath>
3247

>  <WPol>
51

>  <Zagreb1>
172

>  <Zagreb2>
201

>  <mZagreb2>
7.36

>  <yes>


>  <nAR-cont>
0.336376

>  <nHA-cont>
0.61399562

>  <MWHBN>
0.426047735

>  <MWHBN-cont>
0.374743803

>  <TPSA-cont>
0.460188581

>  <pka_cont>
0.97

>  <yes.1>


>  <BBB_SCORE>
2.917864486

>  <MMFF94 Energy>
138.98

$$$$
Compound 2797
Actelion Java MolfileCreator 2.0

  0  0  0  0  0  0              0 V3000
M  V30 BEGIN CTAB
M  V30 COUNTS 55 57 0 0 0
M  V30 BEGIN ATOM
M  V30 1 O 4.8096 -0.4722 -1.8113 0
M  V30 2 C 4.5764 -0.5107 -0.607 0
M  V30 3 N 3.3968 -0.99 -0.0771 0
M  V30 4 C 5.5405 0.0297 0.4671 0 CFG=1
M  V30 5 C 2.322 -1.5073 -0.8931 0
M  V30 6 O 5.3427 -0.6513 1.7226 0
M  V30 7 C 7.0003 -0.1602 0.0923 0
M  V30 8 C 1.4042 -0.3936 -1.3834 0
M  V30 9 C 6.5104 -1.4378 2.0001 0
M  V30 10 C 7.3174 -1.4938 0.7227 0
M  V30 11 C 0.3029 -0.9564 -2.2815 0
M  V30 12 N -0.6095 0.0904 -2.7116 0
M  V30 13 C -1.6398 0.4932 -1.8878 0
M  V30 14 C -0.2832 0.9117 -3.8581 0
M  V30 15 N -2.3753 1.5542 -2.2468 0
M  V30 16 N -1.8631 -0.1894 -0.7549 0
M  V30 17 C -3.3667 1.9431 -1.436 0
M  V30 18 C -2.8707 0.1874 0.0377 0
M  V30 19 N -4.0789 3.0486 -1.8801 0
M  V30 20 C -3.6919 1.2723 -0.2565 0
M  V30 21 C -3.1087 -0.533 1.2016 0
M  V30 22 C -4.7596 1.6106 0.6126 0
M  V30 23 C -4.1516 -0.2068 2.0773 0
M  V30 24 C -4.9928 0.8762 1.7757 0
M  V30 25 O -4.4301 -0.8828 3.2394 0
M  V30 26 O -5.9966 1.135 2.6731 0
M  V30 27 C -3.6151 -1.9996 3.5656 0
M  V30 28 C -6.9343 2.1496 2.3431 0
M  V30 29 H 3.3275 -1.0077 0.9372 0
M  V30 30 H 5.2992 1.0893 0.6057 0
M  V30 31 H 1.765 -2.2211 -0.2772 0
M  V30 32 H 2.7535 -2.0515 -1.7405 0
M  V30 33 H 7.2051 -0.1367 -0.9811 0
M  V30 34 H 7.607 0.6188 0.5699 0
M  V30 35 H 1.9834 0.358 -1.9344 0
M  V30 36 H 0.9714 0.128 -0.5206 0
M  V30 37 H 6.2112 -2.4287 2.3526 0
M  V30 38 H 7.0674 -0.9364 2.7987 0
M  V30 39 H 6.9504 -2.3047 0.0826 0
M  V30 40 H 8.3842 -1.6533 0.8993 0
M  V30 41 H -0.2342 -1.7686 -1.7754 0
M  V30 42 H 0.7615 -1.4221 -3.1632 0
M  V30 43 H 0.5079 0.4536 -4.4618 0
M  V30 44 H -1.1498 1.0395 -4.5168 0
M  V30 45 H 0.0749 1.8984 -3.544 0
M  V30 46 H -3.7321 3.3851 -2.7709 0
M  V30 47 H -4.3243 3.7513 -1.1994 0
M  V30 48 H -2.4472 -1.3694 1.4027 0
M  V30 49 H -5.3959 2.4472 0.3468 0
M  V30 50 H -3.6939 -2.7822 2.804 0
M  V30 51 H -3.9812 -2.4164 4.5089 0
M  V30 52 H -2.5739 -1.6972 3.7182 0
M  V30 53 H -6.4524 3.1318 2.3016 0
M  V30 54 H -7.6859 2.182 3.1377 0
M  V30 55 H -7.4517 1.922 1.4053 0
M  V30 END ATOM
M  V30 BEGIN BOND
M  V30 1 2 1 2
M  V30 2 1 2 3
M  V30 3 1 2 4
M  V30 4 1 3 5
M  V30 5 1 4 6
M  V30 6 1 4 7
M  V30 7 1 5 8
M  V30 8 1 6 9
M  V30 9 1 7 10
M  V30 10 1 8 11
M  V30 11 1 11 12
M  V30 12 1 12 13
M  V30 13 1 12 14
M  V30 14 1 13 15
M  V30 15 2 13 16
M  V30 16 2 15 17
M  V30 17 1 16 18
M  V30 18 1 17 19
M  V30 19 1 17 20
M  V30 20 2 18 21
M  V30 21 2 20 22
M  V30 22 1 21 23
M  V30 23 1 22 24
M  V30 24 1 23 25
M  V30 25 1 24 26
M  V30 26 1 25 27
M  V30 27 1 26 28
M  V30 28 1 9 10
M  V30 29 1 18 20
M  V30 30 2 23 24
M  V30 31 1 3 29
M  V30 32 1 4 30
M  V30 33 1 5 31
M  V30 34 1 5 32
M  V30 35 1 7 33
M  V30 36 1 7 34
M  V30 37 1 8 35
M  V30 38 1 8 36
M  V30 39 1 9 37
M  V30 40 1 9 38
M  V30 41 1 10 39
M  V30 42 1 10 40
M  V30 43 1 11 41
M  V30 44 1 11 42
M  V30 45 1 14 43
M  V30 46 1 14 44
M  V30 47 1 14 45
M  V30 48 1 19 46
M  V30 49 1 19 47
M  V30 50 1 21 48
M  V30 51 1 22 49
M  V30 52 1 27 50
M  V30 53 1 27 51
M  V30 54 1 27 52
M  V30 55 1 28 53
M  V30 56 1 28 54
M  V30 57 1 28 55
M  V30 END BOND
M  V30 BEGIN COLLECTION
M  V30 MDLV30/STERAC1 ATOMS=(1 4)
M  V30 END COLLECTION
M  V30 END CTAB
M  END
>  <Column 1>
3535

>  <level_0>
5797

>  <index>
5798

>  <Unnamed: 0>
5798

>  <NO.>
5810

>  <Name>
alfuzosin

>  <IUPAC_name>
n-[3-[(4-amino-6-7-dimethoxyquinazolin-2-yl)-methylamino]propyl]oxolane-2-carboxamide

>  <SMILES>
COc1cc2nc(N(C)CCCNC(=O)C3CCCO3)nc(N)c2cc1OC

>  <CID>
2092

>  <logBB>


>  <BBB+/BBB->
BBB-

>  <Inchi>
InChI=1S/C19H27N5O4/c1-24(8-5-7-21-18(25)14-6-4-9-28-14)19-22-13-11-16(27-3)15(26-2)10-12(13)17(20)23-19/h10-11-14H-4-9H2-1-3H3-(H-21-25)(H2-20-22-23)

>  <threshold>


>  <reference>
R23|

>  <group>
C

>  <Class>
-1

>  <ABC>
21.34

>  <ABCGG>
17.04

>  <nAcid>
0

>  <nBase>
0

>  <nAromAtom>
10

>  <nAromBond>
11

>  <nAtom>
55

>  <nHeavyAtom>
28

>  <nSpiro>
0

>  <nBridgehead>
0

>  <nHetero>
9

>  <nN>
5

>  <nO>
4

>  <nF>
0

>  <BalabanJ>
1.41

>  <BertzCT>
838.67

>  <nBonds>
57

>  <nBondsO>
30

>  <nBondsS>
45

>  <nBondsD>
1

>  <nBondsT>
0

>  <nBondsA>
11

>  <nBondsM>
12

>  <nBondsKS>
51

>  <nBondsKD>
6

>  <RNCG>
0.16

>  <RPCG>
0.08

>  <FCSP3>
0.53

>  <SZ>
34.67

>  <Sm>
32.42

>  <Sv>
32.96

>  <Sse>
55.62

>  <Sp>
34.99

>  <Si>
62.9

>  <MZ>
0.63

>  <Mm>
0.59

>  <Mv>
0.6

>  <Mse>
1.01

>  <Mp>
0.64

>  <Mi>
1.14

>  <NsCH3>
3

>  <NdCH2>
0

>  <NssCH2>
6

>  <NtCH>
0

>  <NdsCH>
0

>  <NaaCH>
2

>  <NsssCH>
1

>  <NddC>
0

>  <NtsC>
0

>  <NdssC>
1

>  <NaasC>
4

>  <NaaaC>
2

>  <NssssC>
0

>  <NsNH3>
0

>  <NsNH2>
1

>  <NssNH2>
0

>  <NdNH>
0

>  <NssNH>
1

>  <NaaNH>
0

>  <NtN>
0

>  <NsssNH>
0

>  <NdsN>
0

>  <NaaN>
2

>  <NsssN>
1

>  <NddsN>
0

>  <NaasN>
0

>  <NssssN>
0

>  <NsOH>
0

>  <NdO>
1

>  <NssO>
3

>  <NaaO>
0

>  <NsF>
0

>  <NsSiH3>
0

>  <NssSiH2>
0

>  <NsssSiH>
0

>  <NssssSi>
0

>  <NsPH2>
0

>  <NssPH>
0

>  <NsssP>
0

>  <NdsssP>
0

>  <NsssssP>
0

>  <NsSH>
0

>  <NdS>
0

>  <NssS>
0

>  <NaaS>
0

>  <NdssS>
0

>  <NddssS>
0

>  <NsCl>
0

>  <NsBr>
0

>  <NsI>
0

>  <fragCpx>
144.09

>  <fMF>
0.38

>  <nHBAcc>
8

>  <nHBDon>
2

>  <Kier1>
22.68

>  <Kier2>
10.86

>  <Lipinski>
1

>  <GhoseFilter>
1

>  <FilterItLogS>
-4.41

>  <VMcGowan>
293.57

>  <LabuteASA>
163.71

>  <PEOE_VSA1>
30.16

>  <PEOE_VSA2>
4.79

>  <PEOE_VSA3>
4.98

>  <PEOE_VSA4>
4.98

>  <PEOE_VSA5>
0

>  <PEOE_VSA6>
0

>  <PEOE_VSA7>
25.33

>  <PEOE_VSA8>
38.2

>  <PEOE_VSA9>
19.74

>  <PEOE_VSA10>
11.92

>  <PEOE_VSA11>
11.5

>  <PEOE_VSA12>
11.86

>  <PEOE_VSA13>
0

>  <SMR_VSA1>
19.01

>  <SMR_VSA2>
0

>  <SMR_VSA3>
15.28

>  <SMR_VSA4>
0

>  <SMR_VSA5>
25.37

>  <SMR_VSA6>
51.6

>  <SMR_VSA7>
12.13

>  <SMR_VSA8>
0

>  <SMR_VSA9>
11.5

>  <SlogP_VSA1>
25.42

>  <SlogP_VSA2>
62.94

>  <SlogP_VSA3>
9.53

>  <SlogP_VSA4>
0

>  <SlogP_VSA5>
19.26

>  <SlogP_VSA6>
12.13

>  <SlogP_VSA7>
0

>  <SlogP_VSA8>
10.9

>  <SlogP_VSA9>
0

>  <SlogP_VSA10>
11.77

>  <SlogP_VSA11>
11.5

>  <EState_VSA1>
0

>  <EState_VSA2>
12.01

>  <EState_VSA3>
53.86

>  <EState_VSA4>
19.26

>  <EState_VSA5>
0

>  <EState_VSA6>
26.35

>  <EState_VSA7>
11.95

>  <EState_VSA8>
15.28

>  <EState_VSA9>
19.94

>  <EState_VSA10>
4.79

>  <VSA_EState1>
16.02

>  <VSA_EState2>
22.84

>  <VSA_EState3>
3.62

>  <VSA_EState4>
6.81

>  <VSA_EState5>
2.02

>  <VSA_EState6>
3.55

>  <VSA_EState7>
2.19

>  <VSA_EState8>
1.9

>  <VSA_EState9>
5.04

>  <apol>
58.44

>  <bpol>
37.15

>  <nRing>
3

>  <nHRing>
2

>  <naRing>
2

>  <naHRing>
1

>  <nARing 2>
1

>  <nAHRing 2>
1

>  <nFRing>
1

>  <nFHRing>
1

>  <nFaRing>
1

>  <nFaHRing>
1

>  <nFARing 2>
0

>  <nFAHRing 2>
0

>  <nRot>
8

>  <SLogP>
1.35

>  <SMR>
106.93

>  <TopoPSA(NO)>
111.83

>  <TopoPSA>
111.83

>  <JGI1>
0.18

>  <JGI2>
0.09

>  <JGI3>
0.04

>  <JGI4>
0.05

>  <JGI5>
0.03

>  <Diameter>
16

>  <Radius>
8

>  <TMWC10>
133.82

>  <TSRW10>
76.26

>  <MW>
389.21

>  <AMW>
7.08

>  <WPath>
2380

>  <WPol>
43

>  <Zagreb1>
142

>  <Zagreb2>
166

>  <mZagreb2>
6.39

>  <yes>


>  <nAR-cont>
0.816016

>  <nHA-cont>
0.82432561

>  <MWHBN>
0.506883326

>  <MWHBN-cont>
0

>  <TPSA-cont>
0.219357158

>  <pka_cont>
0.97

>  <yes.1>


>  <BBB_SCORE>
2.564055926

>  <MMFF94 Energy>
-56.519

$$$$
Compound 2798
Actelion Java MolfileCreator 2.0

  0  0  0  0  0  0              0 V3000
M  V30 BEGIN CTAB
M  V30 COUNTS 59 63 0 0 0
M  V30 BEGIN ATOM
M  V30 1 O 0.8804 -0.8003 0.3201 0
M  V30 2 C -0.1588 -1.4332 0.1643 0
M  V30 3 N -1.3959 -0.818 -0.1277 0
M  V30 4 C -0.2321 -2.876 0.2421 0
M  V30 5 C -1.4632 0.5866 -0.3171 0
M  V30 6 C -2.673 -1.5561 -0.0524 0
M  V30 7 N 0.721 -3.7854 0.6415 0
M  V30 8 C -1.3493 -3.6208 -0.0907 0
M  V30 9 C -2.2954 1.3752 0.484 0
M  V30 10 C -0.7133 1.188 -1.3314 0
M  V30 11 C -2.5841 -2.985 -0.6075 0
M  V30 12 N 0.2334 -5.0583 0.6558 0
M  V30 13 C 2.0618 -3.5748 1.0339 0
M  V30 14 C -1.0196 -4.9666 0.1713 0
M  V30 15 C -2.3734 2.7556 0.2737 0
M  V30 16 C -0.7946 2.5667 -1.5437 0
M  V30 17 C 2.5192 -4.1512 2.2232 0
M  V30 18 C 2.9395 -2.8597 0.2158 0
M  V30 19 C -1.8593 -6.1588 -0.0149 0
M  V30 20 C -1.6246 3.3576 -0.743 0
M  V30 21 C 3.8514 -3.9776 2.6036 0
M  V30 22 C 4.2724 -2.6888 0.6076 0
M  V30 23 O -3.011 -6.1284 -0.4347 0
M  V30 24 N -1.2466 -7.3324 0.3221 0
M  V30 25 N -1.6748 4.764 -0.9508 0
M  V30 26 C 4.7326 -3.2433 1.804 0
M  V30 27 C -2.0517 5.2615 -2.1965 0
M  V30 28 C -1.4878 5.6123 0.2257 0
M  V30 29 O 6.0055 -3.1496 2.2964 0
M  V30 30 O -2.4133 4.5557 -3.1408 0
M  V30 31 C -1.9021 6.7577 -2.4149 0
M  V30 32 C -1.0172 7.0151 -0.1158 0
M  V30 33 C 6.9272 -2.3694 1.5457 0
M  V30 34 C -1.9513 7.6017 -1.1561 0
M  V30 35 H -3.4548 -1.0095 -0.593 0
M  V30 36 H -2.9507 -1.5952 1.0091 0
M  V30 37 H -2.8802 0.9311 1.2841 0
M  V30 38 H -0.0628 0.592 -1.9657 0
M  V30 39 H -3.4816 -3.5434 -0.3249 0
M  V30 40 H -2.5354 -2.9543 -1.7025 0
M  V30 41 H -3.0341 3.3458 0.9016 0
M  V30 42 H -0.2071 3.0165 -2.3398 0
M  V30 43 H 1.8526 -4.7319 2.8562 0
M  V30 44 H 2.6078 -2.4272 -0.725 0
M  V30 45 H 4.2082 -4.4188 3.531 0
M  V30 46 H 4.9229 -2.1174 -0.0458 0
M  V30 47 H -0.2908 -7.303 0.6599 0
M  V30 48 H -1.7402 -8.2054 0.2254 0
M  V30 49 H -2.4515 5.6697 0.7468 0
M  V30 50 H -0.7608 5.1438 0.9 0
M  V30 51 H -2.6927 7.0852 -3.0996 0
M  V30 52 H -0.942 6.9088 -2.9233 0
M  V30 53 H -1.011 7.6376 0.7853 0
M  V30 54 H 0.008 6.987 -0.5037 0
M  V30 55 H 7.0992 -2.8063 0.5566 0
M  V30 56 H 7.8815 -2.373 2.0811 0
M  V30 57 H 6.5938 -1.3293 1.4671 0
M  V30 58 H -1.6612 8.6325 -1.3873 0
M  V30 59 H -2.9757 7.6325 -0.765 0
M  V30 END ATOM
M  V30 BEGIN BOND
M  V30 1 2 1 2
M  V30 2 1 2 3
M  V30 3 1 2 4
M  V30 4 1 3 5
M  V30 5 1 3 6
M  V30 6 1 4 7
M  V30 7 2 4 8
M  V30 8 2 5 9
M  V30 9 1 5 10
M  V30 10 1 6 11
M  V30 11 1 7 12
M  V30 12 1 7 13
M  V30 13 1 8 14
M  V30 14 1 9 15
M  V30 15 2 10 16
M  V30 16 2 13 17
M  V30 17 1 13 18
M  V30 18 1 14 19
M  V30 19 2 15 20
M  V30 20 1 17 21
M  V30 21 2 18 22
M  V30 22 2 19 23
M  V30 23 1 19 24
M  V30 24 1 20 25
M  V30 25 2 21 26
M  V30 26 1 25 27
M  V30 27 1 25 28
M  V30 28 1 26 29
M  V30 29 2 27 30
M  V30 30 1 27 31
M  V30 31 1 28 32
M  V30 32 1 29 33
M  V30 33 1 31 34
M  V30 34 1 8 11
M  V30 35 2 12 14
M  V30 36 1 16 20
M  V30 37 1 22 26
M  V30 38 1 32 34
M  V30 39 1 6 35
M  V30 40 1 6 36
M  V30 41 1 9 37
M  V30 42 1 10 38
M  V30 43 1 11 39
M  V30 44 1 11 40
M  V30 45 1 15 41
M  V30 46 1 16 42
M  V30 47 1 17 43
M  V30 48 1 18 44
M  V30 49 1 21 45
M  V30 50 1 22 46
M  V30 51 1 24 47
M  V30 52 1 24 48
M  V30 53 1 28 49
M  V30 54 1 28 50
M  V30 55 1 31 51
M  V30 56 1 31 52
M  V30 57 1 32 53
M  V30 58 1 32 54
M  V30 59 1 33 55
M  V30 60 1 33 56
M  V30 61 1 33 57
M  V30 62 1 34 58
M  V30 63 1 34 59
M  V30 END BOND
M  V30 END CTAB
M  END
>  <Column 1>
3537

>  <level_0>
5799

>  <index>
5800

>  <Unnamed: 0>
5800

>  <NO.>
5812

>  <Name>
apixaban

>  <IUPAC_name>
1-(4-methoxyphenyl)-7-oxo-6-[4-(2-oxopiperidin-1-yl)phenyl]-4-5-dihydropyrazolo[3-4-c]pyridine-3-carboxamide

>  <SMILES>
COc1ccc(-n2nc(C(N)=O)c3c2C(=O)N(c2ccc(N4CCCCC4=O)cc2)CC3)cc1

>  <CID>
10182969

>  <logBB>


>  <BBB+/BBB->
BBB-

>  <Inchi>
InChI=1S/C25H25N5O4/c1-34-19-11-9-18(10-12-19)30-23-20(22(27-30)24(26)32)13-15-29(25(23)33)17-7-5-16(6-8-17)28-14-3-2-4-21(28)31/h5-12H-2-4-13-15H2-1H3-(H2-26-32)

>  <threshold>


>  <reference>
R23|

>  <group>
C

>  <Class>
-1

>  <ABC>
26.9

>  <ABCGG>
19.7

>  <nAcid>
0

>  <nBase>
0

>  <nAromAtom>
17

>  <nAromBond>
17

>  <nAtom>
59

>  <nHeavyAtom>
34

>  <nSpiro>
0

>  <nBridgehead>
0

>  <nHetero>
9

>  <nN>
5

>  <nO>
4

>  <nF>
0

>  <BalabanJ>
1.24

>  <BertzCT>
1263.71

>  <nBonds>
63

>  <nBondsO>
38

>  <nBondsS>
43

>  <nBondsD>
3

>  <nBondsT>
0

>  <nBondsA>
17

>  <nBondsM>
20

>  <nBondsKS>
52

>  <nBondsKD>
11

>  <RNCG>
0.17

>  <RPCG>
0.09

>  <FCSP3>
0.28

>  <SZ>
40.33

>  <Sm>
38.26

>  <Sv>
38.42

>  <Sse>
59.74

>  <Sp>
40.2

>  <Si>
66.48

>  <MZ>
0.68

>  <Mm>
0.65

>  <Mv>
0.65

>  <Mse>
1.01

>  <Mp>
0.68

>  <Mi>
1.13

>  <NsCH3>
1

>  <NdCH2>
0

>  <NssCH2>
6

>  <NtCH>
0

>  <NdsCH>
0

>  <NaaCH>
8

>  <NsssCH>
0

>  <NddC>
0

>  <NtsC>
0

>  <NdssC>
3

>  <NaasC>
7

>  <NaaaC>
0

>  <NssssC>
0

>  <NsNH3>
0

>  <NsNH2>
1

>  <NssNH2>
0

>  <NdNH>
0

>  <NssNH>
0

>  <NaaNH>
0

>  <NtN>
0

>  <NsssNH>
0

>  <NdsN>
0

>  <NaaN>
1

>  <NsssN>
2

>  <NddsN>
0

>  <NaasN>
1

>  <NssssN>
0

>  <NsOH>
0

>  <NdO>
3

>  <NssO>
1

>  <NaaO>
0

>  <NsF>
0

>  <NsSiH3>
0

>  <NssSiH2>
0

>  <NsssSiH>
0

>  <NssssSi>
0

>  <NsPH2>
0

>  <NssPH>
0

>  <NsssP>
0

>  <NdsssP>
0

>  <NsssssP>
0

>  <NsSH>
0

>  <NdS>
0

>  <NssS>
0

>  <NaaS>
0

>  <NdssS>
0

>  <NddssS>
0

>  <NsCl>
0

>  <NsBr>
0

>  <NsI>
0

>  <fragCpx>
322.09

>  <fMF>
0.46

>  <nHBAcc>
6

>  <nHBDon>
1

>  <Kier1>
25.64

>  <Kier2>
11.17

>  <Lipinski>
1

>  <GhoseFilter>
1

>  <FilterItLogS>
-4.48

>  <VMcGowan>
334.89

>  <LabuteASA>
196.25

>  <PEOE_VSA1>
20.27

>  <PEOE_VSA2>
14.38

>  <PEOE_VSA3>
4.68

>  <PEOE_VSA4>
5.1

>  <PEOE_VSA5>
0

>  <PEOE_VSA6>
0

>  <PEOE_VSA7>
67.79

>  <PEOE_VSA8>
36.45

>  <PEOE_VSA9>
12.8

>  <PEOE_VSA10>
11.44

>  <PEOE_VSA11>
5.69

>  <PEOE_VSA12>
5.91

>  <PEOE_VSA13>
11.81

>  <SMR_VSA1>
19.12

>  <SMR_VSA2>
0

>  <SMR_VSA3>
9.78

>  <SMR_VSA4>
5.73

>  <SMR_VSA5>
25.68

>  <SMR_VSA6>
30

>  <SMR_VSA7>
65.48

>  <SMR_VSA8>
0

>  <SMR_VSA9>
11.44

>  <SlogP_VSA1>
20.27

>  <SlogP_VSA2>
47.7

>  <SlogP_VSA3>
11.22

>  <SlogP_VSA4>
0

>  <SlogP_VSA5>
45.8

>  <SlogP_VSA6>
48.53

>  <SlogP_VSA7>
0

>  <SlogP_VSA8>
5.69

>  <SlogP_VSA9>
0

>  <SlogP_VSA10>
11.37

>  <SlogP_VSA11>
5.75

>  <EState_VSA1>
5.91

>  <EState_VSA2>
17.51

>  <EState_VSA3>
54.31

>  <EState_VSA4>
18.53

>  <EState_VSA5>
4.68

>  <EState_VSA6>
41.18

>  <EState_VSA7>
24.27

>  <EState_VSA8>
5.1

>  <EState_VSA9>
10.47

>  <EState_VSA10>
14.38

>  <VSA_EState1>
6.69

>  <VSA_EState2>
41.4

>  <VSA_EState3>
4.39

>  <VSA_EState4>
8.73

>  <VSA_EState5>
-0.14

>  <VSA_EState6>
14.51

>  <VSA_EState7>
2.92

>  <VSA_EState8>
1.1

>  <VSA_EState9>
1.57

>  <apol>
67.13

>  <bpol>
33.98

>  <nRing>
5

>  <nHRing>
3

>  <naRing>
3

>  <naHRing>
1

>  <nARing 2>
2

>  <nAHRing 2>
2

>  <nFRing>
1

>  <nFHRing>
1

>  <nFaRing>
0

>  <nFaHRing>
0

>  <nFARing 2>
1

>  <nFAHRing 2>
1

>  <nRot>
5

>  <SLogP>
2.7

>  <SMR>
126.66

>  <TopoPSA(NO)>
110.76

>  <TopoPSA>
110.76

>  <JGI1>
0.16

>  <JGI2>
0.08

>  <JGI3>
0.05

>  <JGI4>
0.04

>  <JGI5>
0.03

>  <Diameter>
17

>  <Radius>
9

>  <TMWC10>
151.64

>  <TSRW10>
85.1

>  <MW>
459.19

>  <AMW>
7.78

>  <WPath>
3561

>  <WPol>
61

>  <Zagreb1>
186

>  <Zagreb2>
226

>  <mZagreb2>
7.44

>  <yes>


>  <nAR-cont>
1

>  <nHA-cont>
0.568589513

>  <MWHBN>
0.326664416

>  <MWHBN-cont>
0.754457409

>  <TPSA-cont>
0.226826422

>  <pka_cont>
0.97

>  <yes.1>


>  <BBB_SCORE>
3.638928471

>  <MMFF94 Energy>
51.477

$$$$
Compound 2799
Actelion Java MolfileCreator 2.0

  0  0  0  0  0  0              0 V3000
M  V30 BEGIN CTAB
M  V30 COUNTS 54 57 0 0 0
M  V30 BEGIN ATOM
M  V30 1 O -3.5082 -1.9921 7.8268 0
M  V30 2 C -2.9016 -1.644 6.8165 0
M  V30 3 N -2.4295 -2.5678 5.9221 0
M  V30 4 C -2.7216 -0.191 6.4402 0
M  V30 5 C -1.6972 -2.2405 4.7781 0
M  V30 6 C -1.3956 0.0473 5.7342 0
M  V30 7 C -1.1919 -0.9499 4.6289 0
M  V30 8 C -1.4512 -3.2054 3.8102 0
M  V30 9 C -0.4307 -0.6375 3.4929 0
M  V30 10 C -0.7008 -2.8735 2.6756 0
M  V30 11 C -0.1802 -1.5838 2.4842 0
M  V30 12 N 0.576 -1.2386 1.3672 0
M  V30 13 C 0.1511 -0.0481 0.5973 0
M  V30 14 C 1.249 -2.2924 0.5768 0
M  V30 15 C 1.3003 0.5 -0.2762 0
M  V30 16 C 2.3895 -1.6976 -0.2671 0
M  V30 17 N 1.92 -0.5681 -1.0708 0
M  V30 18 C 1.8742 -0.6898 -2.4511 0
M  V30 19 O 2.1128 -1.736 -3.0485 0
M  V30 20 C 1.5184 0.4934 -3.2617 0
M  V30 21 C 0.4531 0.3973 -4.1614 0
M  V30 22 C 2.2716 1.6656 -3.171 0
M  V30 23 C 0.109 1.4982 -4.9511 0
M  V30 24 C 1.9302 2.7688 -3.9552 0
M  V30 25 O -0.9308 1.5103 -5.848 0
M  V30 26 C 0.8482 2.697 -4.8418 0
M  V30 27 C -1.5805 0.2754 -6.1164 0
M  V30 28 O 0.436 3.732 -5.6444 0
M  V30 29 C 1.1983 4.93 -5.6229 0
M  V30 30 H -2.6283 -3.5357 6.139 0
M  V30 31 H -2.7777 0.4232 7.3451 0
M  V30 32 H -3.5598 0.0856 5.7891 0
M  V30 33 H -0.5661 -0.0515 6.4451 0
M  V30 34 H -1.378 1.0694 5.3388 0
M  V30 35 H -1.8377 -4.2148 3.9146 0
M  V30 36 H 0.0049 0.3554 3.4146 0
M  V30 37 H -0.5476 -3.6484 1.9299 0
M  V30 38 H -0.1948 0.7656 1.2432 0
M  V30 39 H -0.6901 -0.3339 -0.047 0
M  V30 40 H 1.6814 -3.0553 1.2351 0
M  V30 41 H 0.5171 -2.7755 -0.0822 0
M  V30 42 H 2.0855 0.924 0.3606 0
M  V30 43 H 0.9055 1.2997 -0.9054 0
M  V30 44 H 2.8324 -2.4758 -0.8964 0
M  V30 45 H 3.1802 -1.3157 0.39 0
M  V30 46 H -0.0855 -0.5426 -4.2201 0
M  V30 47 H 3.1243 1.7204 -2.4988 0
M  V30 48 H 2.5298 3.6675 -3.8565 0
M  V30 49 H -0.8725 -0.4757 -6.4817 0
M  V30 50 H -2.3169 0.4501 -6.9066 0
M  V30 51 H -2.1198 -0.0837 -5.2339 0
M  V30 52 H 1.1641 5.4011 -4.6351 0
M  V30 53 H 0.7485 5.6256 -6.3378 0
M  V30 54 H 2.2304 4.7486 -5.9402 0
M  V30 END ATOM
M  V30 BEGIN BOND
M  V30 1 2 1 2
M  V30 2 1 2 3
M  V30 3 1 2 4
M  V30 4 1 3 5
M  V30 5 1 4 6
M  V30 6 2 5 7
M  V30 7 1 5 8
M  V30 8 1 7 9
M  V30 9 2 8 10
M  V30 10 2 9 11
M  V30 11 1 11 12
M  V30 12 1 12 13
M  V30 13 1 12 14
M  V30 14 1 13 15
M  V30 15 1 14 16
M  V30 16 1 15 17
M  V30 17 1 17 18
M  V30 18 2 18 19
M  V30 19 1 18 20
M  V30 20 2 20 21
M  V30 21 1 20 22
M  V30 22 1 21 23
M  V30 23 2 22 24
M  V30 24 1 23 25
M  V30 25 2 23 26
M  V30 26 1 25 27
M  V30 27 1 26 28
M  V30 28 1 28 29
M  V30 29 1 6 7
M  V30 30 1 10 11
M  V30 31 1 16 17
M  V30 32 1 24 26
M  V30 33 1 3 30
M  V30 34 1 4 31
M  V30 35 1 4 32
M  V30 36 1 6 33
M  V30 37 1 6 34
M  V30 38 1 8 35
M  V30 39 1 9 36
M  V30 40 1 10 37
M  V30 41 1 13 38
M  V30 42 1 13 39
M  V30 43 1 14 40
M  V30 44 1 14 41
M  V30 45 1 15 42
M  V30 46 1 15 43
M  V30 47 1 16 44
M  V30 48 1 16 45
M  V30 49 1 21 46
M  V30 50 1 22 47
M  V30 51 1 24 48
M  V30 52 1 27 49
M  V30 53 1 27 50
M  V30 54 1 27 51
M  V30 55 1 29 52
M  V30 56 1 29 53
M  V30 57 1 29 54
M  V30 END BOND
M  V30 END CTAB
M  END
>  <Column 1>
3538

>  <level_0>
5800

>  <index>
5801

>  <Unnamed: 0>
5801

>  <NO.>
5813

>  <Name>
vesnarinone

>  <IUPAC_name>
6-[4-(3-4-dimethoxybenzoyl)piperazin-1-yl]-3-4-dihydro-1h-quinolin-2-one

>  <SMILES>
COc1ccc(C(=O)N2CCN(c3ccc4c(c3)CCC(=O)N4)CC2)cc1OC

>  <CID>
5663

>  <logBB>


>  <BBB+/BBB->
BBB-

>  <Inchi>
InChI=1S/C22H25N3O4/c1-28-19-7-3-16(14-20(19)29-2)22(27)25-11-9-24(10-12-25)17-5-6-18-15(13-17)4-8-21(26)23-18/h3-5-7-13-14H-4-8-12H2-1-2H3-(H-23-26)

>  <threshold>


>  <reference>
R23|

>  <group>
C

>  <Class>
-1

>  <ABC>
22.64

>  <ABCGG>
16.24

>  <nAcid>
0

>  <nBase>
0

>  <nAromAtom>
12

>  <nAromBond>
12

>  <nAtom>
54

>  <nHeavyAtom>
29

>  <nSpiro>
0

>  <nBridgehead>
0

>  <nHetero>
7

>  <nN>
3

>  <nO>
4

>  <nF>
0

>  <BalabanJ>
1.24

>  <BertzCT>
935.65

>  <nBonds>
57

>  <nBondsO>
32

>  <nBondsS>
43

>  <nBondsD>
2

>  <nBondsT>
0

>  <nBondsA>
12

>  <nBondsM>
14

>  <nBondsKS>
49

>  <nBondsKD>
8

>  <RNCG>
0.18

>  <RPCG>
0.09

>  <FCSP3>
0.36

>  <SZ>
35

>  <Sm>
32.92

>  <Sv>
33.91

>  <Sse>
54.41

>  <Sp>
35.88

>  <Si>
60.9

>  <MZ>
0.65

>  <Mm>
0.61

>  <Mv>
0.63

>  <Mse>
1.01

>  <Mp>
0.66

>  <Mi>
1.13

>  <NsCH3>
2

>  <NdCH2>
0

>  <NssCH2>
6

>  <NtCH>
0

>  <NdsCH>
0

>  <NaaCH>
6

>  <NsssCH>
0

>  <NddC>
0

>  <NtsC>
0

>  <NdssC>
2

>  <NaasC>
6

>  <NaaaC>
0

>  <NssssC>
0

>  <NsNH3>
0

>  <NsNH2>
0

>  <NssNH2>
0

>  <NdNH>
0

>  <NssNH>
1

>  <NaaNH>
0

>  <NtN>
0

>  <NsssNH>
0

>  <NdsN>
0

>  <NaaN>
0

>  <NsssN>
2

>  <NddsN>
0

>  <NaasN>
0

>  <NssssN>
0

>  <NsOH>
0

>  <NdO>
2

>  <NssO>
2

>  <NaaO>
0

>  <NsF>
0

>  <NsSiH3>
0

>  <NssSiH2>
0

>  <NsssSiH>
0

>  <NssssSi>
0

>  <NsPH2>
0

>  <NssPH>
0

>  <NsssP>
0

>  <NdsssP>
0

>  <NsssssP>
0

>  <NsSH>
0

>  <NdS>
0

>  <NssS>
0

>  <NaaS>
0

>  <NdssS>
0

>  <NddssS>
0

>  <NsCl>
0

>  <NsBr>
0

>  <NsI>
0

>  <fragCpx>
212.07

>  <fMF>
0.43

>  <nHBAcc>
5

>  <nHBDon>
1

>  <Kier1>
22.2

>  <Kier2>
10.08

>  <Lipinski>
1

>  <GhoseFilter>
1

>  <FilterItLogS>
-4.69

>  <VMcGowan>
296.42

>  <LabuteASA>
169.75

>  <PEOE_VSA1>
24.59

>  <PEOE_VSA2>
9.59

>  <PEOE_VSA3>
0

>  <PEOE_VSA4>
0

>  <PEOE_VSA5>
0

>  <PEOE_VSA6>
0

>  <PEOE_VSA7>
48.38

>  <PEOE_VSA8>
49.54

>  <PEOE_VSA9>
14.22

>  <PEOE_VSA10>
0

>  <PEOE_VSA11>
11.5

>  <PEOE_VSA12>
5.91

>  <PEOE_VSA13>
5.91

>  <SMR_VSA1>
19.06

>  <SMR_VSA2>
0

>  <SMR_VSA3>
4.9

>  <SMR_VSA4>
0

>  <SMR_VSA5>
12.84

>  <SMR_VSA6>
50.62

>  <SMR_VSA7>
47.53

>  <SMR_VSA8>
0

>  <SMR_VSA9>
11.5

>  <SlogP_VSA1>
19.69

>  <SlogP_VSA2>
57.11

>  <SlogP_VSA3>
11.22

>  <SlogP_VSA4>
0

>  <SlogP_VSA5>
22.34

>  <SlogP_VSA6>
36.4

>  <SlogP_VSA7>
0

>  <SlogP_VSA8>
0

>  <SlogP_VSA9>
0

>  <SlogP_VSA10>
11.37

>  <SlogP_VSA11>
11.5

>  <EState_VSA1>
0

>  <EState_VSA2>
11.81

>  <EState_VSA3>
36.57

>  <EState_VSA4>
30.89

>  <EState_VSA5>
5.56

>  <EState_VSA6>
32.42

>  <EState_VSA7>
17.03

>  <EState_VSA8>
16.28

>  <EState_VSA9>
9.47

>  <EState_VSA10>
9.59

>  <VSA_EState1>
10.56

>  <VSA_EState2>
28.59

>  <VSA_EState3>
2.92

>  <VSA_EState4>
3.82

>  <VSA_EState5>
1.24

>  <VSA_EState6>
11.42

>  <VSA_EState7>
1.3

>  <VSA_EState8>
2.84

>  <VSA_EState9>
3.14

>  <apol>
59.92

>  <bpol>
34.28

>  <nRing>
4

>  <nHRing>
2

>  <naRing>
2

>  <naHRing>
0

>  <nARing 2>
2

>  <nAHRing 2>
2

>  <nFRing>
1

>  <nFHRing>
1

>  <nFaRing>
0

>  <nFaHRing>
0

>  <nFARing 2>
1

>  <nFAHRing 2>
1

>  <nRot>
4

>  <SLogP>
2.55

>  <SMR>
111.06

>  <TopoPSA(NO)>
71.11

>  <TopoPSA>
71.11

>  <JGI1>
0.19

>  <JGI2>
0.09

>  <JGI3>
0.04

>  <JGI4>
0.04

>  <JGI5>
0.03

>  <Diameter>
17

>  <Radius>
9

>  <TMWC10>
137.88

>  <TSRW10>
64.7

>  <MW>
395.18

>  <AMW>
7.32

>  <WPath>
2544

>  <WPol>
49

>  <Zagreb1>
154

>  <Zagreb2>
183

>  <mZagreb2>
6.47

>  <yes>


>  <nAR-cont>
1

>  <nHA-cont>
0.785905698

>  <MWHBN>
0.301824001

>  <MWHBN-cont>
0.835255069

>  <TPSA-cont>
0.503608043

>  <pka_cont>
0.97

>  <yes.1>


>  <BBB_SCORE>
4.531004388

>  <MMFF94 Energy>
89.747

$$$$
Compound 2800
Actelion Java MolfileCreator 2.0

  0  0  0  0  0  0              0 V3000
M  V30 BEGIN CTAB
M  V30 COUNTS 36 38 0 0 0
M  V30 BEGIN ATOM
M  V30 1 O 3.9261 1.0404 -0.4 0
M  V30 2 C 2.7091 1.0676 -0.2343 0
M  V30 3 C 1.9851 2.3511 -0.2868 0
M  V30 4 C 1.9008 -0.1544 0.0914 0
M  V30 5 C 0.5981 2.3393 -0.1174 0
M  V30 6 C 2.6563 3.5651 -0.4643 0
M  V30 7 C 0.5094 0.0302 -0.4978 0 CFG=2
M  V30 8 O -0.1327 1.1923 0.0538 0
M  V30 9 C -0.1143 3.5386 -0.089 0
M  V30 10 O 4.0107 3.649 -0.64 0
M  V30 11 C 1.9457 4.7619 -0.4583 0
M  V30 12 C -0.357 -1.183 -0.2156 0
M  V30 13 C 0.5672 4.7403 -0.2651 0
M  V30 14 C -0.5396 -2.1626 -1.2024 0
M  V30 15 C -0.963 -1.3707 1.0358 0
M  V30 16 O -0.0903 5.9348 -0.2558 0
M  V30 17 C -1.3186 -3.2915 -0.9355 0
M  V30 18 C -1.7421 -2.5043 1.2966 0
M  V30 19 O -1.4919 -4.241 -1.9082 0
M  V30 20 C -1.928 -3.4764 0.3125 0
M  V30 21 O -2.6678 -4.6189 0.4635 0
M  V30 22 C -3.3009 -4.8281 1.7171 0
M  V30 23 H 1.8795 -0.2607 1.1821 0
M  V30 24 H 2.3915 -1.0324 -0.3426 0
M  V30 25 H 0.5641 0.1729 -1.5872 0
M  V30 26 H -1.1897 3.5179 0.059 0
M  V30 27 H 4.3843 2.7397 -0.6042 0
M  V30 28 H 2.4646 5.7067 -0.5942 0
M  V30 29 H -0.0733 -2.0423 -2.1761 0
M  V30 30 H -0.8367 -0.6289 1.823 0
M  V30 31 H -1.0373 5.778 -0.1054 0
M  V30 32 H -2.1898 -2.5957 2.2806 0
M  V30 33 H -1.0289 -3.9668 -2.7138 0
M  V30 34 H -2.5641 -4.9141 2.5225 0
M  V30 35 H -3.8456 -5.7756 1.663 0
M  V30 36 H -4.029 -4.0382 1.9292 0
M  V30 END ATOM
M  V30 BEGIN BOND
M  V30 1 2 1 2
M  V30 2 1 2 3
M  V30 3 1 2 4
M  V30 4 2 3 5
M  V30 5 1 3 6
M  V30 6 1 4 7
M  V30 7 1 5 8
M  V30 8 1 5 9
M  V30 9 1 6 10
M  V30 10 2 6 11
M  V30 11 1 7 12
M  V30 12 2 9 13
M  V30 13 2 12 14
M  V30 14 1 12 15
M  V30 15 1 13 16
M  V30 16 1 14 17
M  V30 17 2 15 18
M  V30 18 1 17 19
M  V30 19 2 17 20
M  V30 20 1 20 21
M  V30 21 1 21 22
M  V30 22 1 7 8
M  V30 23 1 11 13
M  V30 24 1 18 20
M  V30 25 1 4 23
M  V30 26 1 4 24
M  V30 27 1 7 25
M  V30 28 1 9 26
M  V30 29 1 10 27
M  V30 30 1 11 28
M  V30 31 1 14 29
M  V30 32 1 15 30
M  V30 33 1 16 31
M  V30 34 1 18 32
M  V30 35 1 19 33
M  V30 36 1 22 34
M  V30 37 1 22 35
M  V30 38 1 22 36
M  V30 END BOND
M  V30 BEGIN COLLECTION
M  V30 MDLV30/STERAC1 ATOMS=(1 7)
M  V30 END COLLECTION
M  V30 END CTAB
M  END
>  <Column 1>
3539

>  <level_0>
5801

>  <index>
5802

>  <Unnamed: 0>
5802

>  <NO.>
5814

>  <Name>
hesperetin

>  <IUPAC_name>
5-7-dihydroxy-2-(3-hydroxy-4-methoxyphenyl)-2-3-dihydrochromen-4-one

>  <SMILES>
COc1ccc(C2CC(=O)c3c(O)cc(O)cc3O2)cc1O

>  <CID>
3593

>  <logBB>


>  <BBB+/BBB->
BBB-

>  <Inchi>
InChI=1S/C16H14O6/c1-21-13-3-2-8(4-10(13)18)14-7-12(20)16-11(19)5-9(17)6-15(16)22-14/h2-6-14-17-19H-7H2-1H3

>  <threshold>


>  <reference>
R23|

>  <group>
C

>  <Class>
-1

>  <ABC>
17.21

>  <ABCGG>
13.77

>  <nAcid>
0

>  <nBase>
0

>  <nAromAtom>
12

>  <nAromBond>
12

>  <nAtom>
36

>  <nHeavyAtom>
22

>  <nSpiro>
0

>  <nBridgehead>
0

>  <nHetero>
6

>  <nN>
0

>  <nO>
6

>  <nF>
0

>  <BalabanJ>
1.64

>  <BertzCT>
752.54

>  <nBonds>
38

>  <nBondsO>
24

>  <nBondsS>
25

>  <nBondsD>
1

>  <nBondsT>
0

>  <nBondsA>
12

>  <nBondsM>
13

>  <nBondsKS>
31

>  <nBondsKD>
7

>  <RNCG>
0.18

>  <RPCG>
0.1

>  <FCSP3>
0.19

>  <SZ>
26.33

>  <Sm>
25.17

>  <Sv>
24.08

>  <Sse>
37.2

>  <Sp>
24.47

>  <Si>
40.16

>  <MZ>
0.73

>  <Mm>
0.7

>  <Mv>
0.67

>  <Mse>
1.03

>  <Mp>
0.68

>  <Mi>
1.12

>  <NsCH3>
1

>  <NdCH2>
0

>  <NssCH2>
1

>  <NtCH>
0

>  <NdsCH>
0

>  <NaaCH>
5

>  <NsssCH>
1

>  <NddC>
0

>  <NtsC>
0

>  <NdssC>
1

>  <NaasC>
7

>  <NaaaC>
0

>  <NssssC>
0

>  <NsNH3>
0

>  <NsNH2>
0

>  <NssNH2>
0

>  <NdNH>
0

>  <NssNH>
0

>  <NaaNH>
0

>  <NtN>
0

>  <NsssNH>
0

>  <NdsN>
0

>  <NaaN>
0

>  <NsssN>
0

>  <NddsN>
0

>  <NaasN>
0

>  <NssssN>
0

>  <NsOH>
3

>  <NdO>
1

>  <NssO>
2

>  <NaaO>
0

>  <NsF>
0

>  <NsSiH3>
0

>  <NssSiH2>
0

>  <NsssSiH>
0

>  <NssssSi>
0

>  <NsPH2>
0

>  <NssPH>
0

>  <NsssP>
0

>  <NdsssP>
0

>  <NsssssP>
0

>  <NsSH>
0

>  <NdS>
0

>  <NssS>
0

>  <NaaS>
0

>  <NdssS>
0

>  <NddssS>
0

>  <NsCl>
0

>  <NsBr>
0

>  <NsI>
0

>  <fragCpx>
114.06

>  <fMF>
0.44

>  <nHBAcc>
6

>  <nHBDon>
3

>  <Kier1>
16.84

>  <Kier2>
6.86

>  <Lipinski>
1

>  <GhoseFilter>
1

>  <FilterItLogS>
-2.78

>  <VMcGowan>
208.84

>  <LabuteASA>
125.71

>  <PEOE_VSA1>
24.79

>  <PEOE_VSA2>
4.79

>  <PEOE_VSA3>
0

>  <PEOE_VSA4>
0

>  <PEOE_VSA5>
0

>  <PEOE_VSA6>
6.07

>  <PEOE_VSA7>
17.7

>  <PEOE_VSA8>
12.13

>  <PEOE_VSA9>
13.53

>  <PEOE_VSA10>
28.92

>  <PEOE_VSA11>
17.28

>  <PEOE_VSA12>
0

>  <PEOE_VSA13>
0

>  <SMR_VSA1>
29.59

>  <SMR_VSA2>
0

>  <SMR_VSA3>
0

>  <SMR_VSA4>
0

>  <SMR_VSA5>
12.52

>  <SMR_VSA6>
7.11

>  <SMR_VSA7>
41.46

>  <SMR_VSA8>
0

>  <SMR_VSA9>
28.75

>  <SlogP_VSA1>
9.47

>  <SlogP_VSA2>
28.21

>  <SlogP_VSA3>
0

>  <SlogP_VSA4>
0

>  <SlogP_VSA5>
28.45

>  <SlogP_VSA6>
30.33

>  <SlogP_VSA7>
0

>  <SlogP_VSA8>
0

>  <SlogP_VSA9>
0

>  <SlogP_VSA10>
0

>  <SlogP_VSA11>
28.75

>  <EState_VSA1>
6.1

>  <EState_VSA2>
40.77

>  <EState_VSA3>
11.31

>  <EState_VSA4>
6.07

>  <EState_VSA5>
19.24

>  <EState_VSA6>
12.13

>  <EState_VSA7>
0

>  <EState_VSA8>
0

>  <EState_VSA9>
9.47

>  <EState_VSA10>
20.11

>  <VSA_EState1>
10.66

>  <VSA_EState2>
12.2

>  <VSA_EState3>
29.1

>  <VSA_EState4>
0.66

>  <VSA_EState5>
-0.41

>  <VSA_EState6>
7.1

>  <VSA_EState7>
-0.59

>  <VSA_EState8>
0

>  <VSA_EState9>
1.44

>  <apol>
40.87

>  <bpol>
18.38

>  <nRing>
3

>  <nHRing>
1

>  <naRing>
2

>  <naHRing>
0

>  <nARing 2>
1

>  <nAHRing 2>
1

>  <nFRing>
1

>  <nFHRing>
1

>  <nFaRing>
0

>  <nFaHRing>
0

>  <nFARing 2>
1

>  <nFAHRing 2>
1

>  <nRot>
2

>  <SLogP>
2.52

>  <SMR>
76.75

>  <TopoPSA(NO)>
96.22

>  <TopoPSA>
96.22

>  <JGI1>
0.23

>  <JGI2>
0.08

>  <JGI3>
0.06

>  <JGI4>
0.05

>  <JGI5>
0.04

>  <Diameter>
11

>  <Radius>
6

>  <TMWC10>
121.02

>  <TSRW10>
56.53

>  <MW>
302.08

>  <AMW>
8.39

>  <WPath>
1038

>  <WPol>
38

>  <Zagreb1>
118

>  <Zagreb2>
141

>  <mZagreb2>
4.81

>  <yes>


>  <nAR-cont>
0.816016

>  <nHA-cont>
0.983774276

>  <MWHBN>
0.517823223

>  <MWHBN-cont>
0

>  <TPSA-cont>
0.328324651

>  <pka_cont>
0.97

>  <yes.1>


>  <BBB_SCORE>
2.941439578

>  <MMFF94 Energy>
44.494

$$$$
Compound 2801
Actelion Java MolfileCreator 2.0

  0  0  0  0  0  0              0 V3000
M  V30 BEGIN CTAB
M  V30 COUNTS 46 47 0 0 0
M  V30 BEGIN ATOM
M  V30 1 O -4.2474 3.3023 -1.8073 0
M  V30 2 C -3.9765 2.2184 -1.0082 0
M  V30 3 C -3.3134 4.3717 -1.8079 0
M  V30 4 C -4.9424 1.1924 -1.0098 0
M  V30 5 C -2.8255 2.0836 -0.2212 0
M  V30 6 O -6.041 1.3982 -1.8079 0
M  V30 7 C -4.7379 0.0528 -0.2252 0
M  V30 8 C -2.6245 0.9419 0.5692 0
M  V30 9 C -7.043 0.3923 -1.822 0
M  V30 10 C -3.5868 -0.0717 0.5567 0
M  V30 11 C -1.3697 0.7973 1.3967 0
M  V30 12 C -0.2318 0.1536 0.5934 0
M  V30 13 N 0.9749 0.0293 1.4242 0
M  V30 14 C 2.0583 -0.6258 0.6589 0
M  V30 15 C 3.4009 -0.5722 1.4261 0 CFG=1
M  V30 16 O 3.2025 -1.0236 2.7715 0
M  V30 17 C 4.4641 -1.4039 0.74 0
M  V30 18 C 4.6895 -2.7449 1.0902 0
M  V30 19 C 5.2263 -0.8426 -0.2977 0
M  V30 20 C 5.6575 -3.5048 0.4285 0
M  V30 21 C 6.1925 -1.6016 -0.9607 0
M  V30 22 C 6.4011 -2.9244 -0.5926 0
M  V30 23 O 7.3553 -3.6286 -1.2653 0
M  V30 24 H -3.2168 4.8138 -0.8107 0
M  V30 25 H -3.6941 5.1479 -2.4789 0
M  V30 26 H -2.3417 4.047 -2.1941 0
M  V30 27 H -2.0644 2.8574 -0.2062 0
M  V30 28 H -5.456 -0.7595 -0.2002 0
M  V30 29 H -6.6489 -0.5523 -2.2109 0
M  V30 30 H -7.8388 0.7223 -2.4967 0
M  V30 31 H -7.4843 0.2592 -0.8287 0
M  V30 32 H -3.4493 -0.9689 1.1565 0
M  V30 33 H -1.5917 0.198 2.2896 0
M  V30 34 H -1.0636 1.785 1.7661 0
M  V30 35 H -0.0122 0.7713 -0.2861 0
M  V30 36 H -0.5457 -0.835 0.2354 0
M  V30 37 H 0.7534 -0.5747 2.219 0
M  V30 38 H 1.7723 -1.6705 0.4806 0
M  V30 39 H 2.1869 -0.143 -0.3178 0
M  V30 40 H 3.7519 0.4654 1.4962 0
M  V30 41 H 2.6397 -0.3389 3.1752 0
M  V30 42 H 4.1109 -3.2018 1.8911 0
M  V30 43 H 5.074 0.1922 -0.5963 0
M  V30 44 H 5.8132 -4.5369 0.7247 0
M  V30 45 H 6.7812 -1.1614 -1.7604 0
M  V30 46 H 7.4041 -4.5204 -0.8839 0
M  V30 END ATOM
M  V30 BEGIN BOND
M  V30 1 1 1 2
M  V30 2 1 1 3
M  V30 3 2 2 4
M  V30 4 1 2 5
M  V30 5 1 4 6
M  V30 6 1 4 7
M  V30 7 2 5 8
M  V30 8 1 6 9
M  V30 9 2 7 10
M  V30 10 1 8 11
M  V30 11 1 11 12
M  V30 12 1 12 13
M  V30 13 1 13 14
M  V30 14 1 14 15
M  V30 15 1 15 16
M  V30 16 1 15 17
M  V30 17 2 17 18
M  V30 18 1 17 19
M  V30 19 1 18 20
M  V30 20 2 19 21
M  V30 21 2 20 22
M  V30 22 1 22 23
M  V30 23 1 8 10
M  V30 24 1 21 22
M  V30 25 1 3 24
M  V30 26 1 3 25
M  V30 27 1 3 26
M  V30 28 1 5 27
M  V30 29 1 7 28
M  V30 30 1 9 29
M  V30 31 1 9 30
M  V30 32 1 9 31
M  V30 33 1 10 32
M  V30 34 1 11 33
M  V30 35 1 11 34
M  V30 36 1 12 35
M  V30 37 1 12 36
M  V30 38 1 13 37
M  V30 39 1 14 38
M  V30 40 1 14 39
M  V30 41 1 15 40
M  V30 42 1 16 41
M  V30 43 1 18 42
M  V30 44 1 19 43
M  V30 45 1 20 44
M  V30 46 1 21 45
M  V30 47 1 23 46
M  V30 END BOND
M  V30 BEGIN COLLECTION
M  V30 MDLV30/STEABS ATOMS=(1 15)
M  V30 END COLLECTION
M  V30 END CTAB
M  END
>  <Column 1>
3540

>  <level_0>
5802

>  <index>
5803

>  <Unnamed: 0>
5803

>  <NO.>
5815

>  <Name>
denopaminum [latin]

>  <IUPAC_name>
4-[(1s)-2-[2-(3-4-dimethoxyphenyl)ethylamino]-1-hydroxyethyl]phenol

>  <SMILES>
COc1ccc(CCNC[C@@H](O)c2ccc(O)cc2)cc1OC

>  <CID>
71754

>  <logBB>


>  <BBB+/BBB->
BBB-

>  <Inchi>
InChI=1S/C18H23NO4/c1-22-17-8-3-13(11-18(17)23-2)9-10-19-12-16(21)14-4-6-15(20)7-5-14/h3-8-11-16-19-21H-9-10-12H2-1-2H3/t16-/m1/s1

>  <threshold>


>  <reference>
R23|

>  <group>
C

>  <Class>
-1

>  <ABC>
17.11

>  <ABCGG>
13.62

>  <nAcid>
0

>  <nBase>
1

>  <nAromAtom>
12

>  <nAromBond>
12

>  <nAtom>
46

>  <nHeavyAtom>
23

>  <nSpiro>
0

>  <nBridgehead>
0

>  <nHetero>
5

>  <nN>
1

>  <nO>
4

>  <nF>
0

>  <BalabanJ>
1.58

>  <BertzCT>
612.92

>  <nBonds>
47

>  <nBondsO>
24

>  <nBondsS>
35

>  <nBondsD>
0

>  <nBondsT>
0

>  <nBondsA>
12

>  <nBondsM>
12

>  <nBondsKS>
41

>  <nBondsKD>
6

>  <RNCG>
0.2

>  <RPCG>
0.12

>  <FCSP3>
0.33

>  <SZ>
28.33

>  <Sm>
26.42

>  <Sv>
27.85

>  <Sse>
46.2

>  <Sp>
29.76

>  <Si>
51.9

>  <MZ>
0.62

>  <Mm>
0.57

>  <Mv>
0.61

>  <Mse>
1

>  <Mp>
0.65

>  <Mi>
1.13

>  <NsCH3>
2

>  <NdCH2>
0

>  <NssCH2>
3

>  <NtCH>
0

>  <NdsCH>
0

>  <NaaCH>
7

>  <NsssCH>
1

>  <NddC>
0

>  <NtsC>
0

>  <NdssC>
0

>  <NaasC>
5

>  <NaaaC>
0

>  <NssssC>
0

>  <NsNH3>
0

>  <NsNH2>
0

>  <NssNH2>
0

>  <NdNH>
0

>  <NssNH>
1

>  <NaaNH>
0

>  <NtN>
0

>  <NsssNH>
0

>  <NdsN>
0

>  <NaaN>
0

>  <NsssN>
0

>  <NddsN>
0

>  <NaasN>
0

>  <NssssN>
0

>  <NsOH>
2

>  <NdO>
0

>  <NssO>
2

>  <NaaO>
0

>  <NsF>
0

>  <NsSiH3>
0

>  <NssSiH2>
0

>  <NsssSiH>
0

>  <NssssSi>
0

>  <NsPH2>
0

>  <NssPH>
0

>  <NsssP>
0

>  <NdsssP>
0

>  <NsssssP>
0

>  <NsSH>
0

>  <NdS>
0

>  <NssS>
0

>  <NaaS>
0

>  <NdssS>
0

>  <NddssS>
0

>  <NsCl>
0

>  <NsBr>
0

>  <NsI>
0

>  <fragCpx>
70.05

>  <fMF>
0.37

>  <nHBAcc>
5

>  <nHBDon>
3

>  <Kier1>
19.33

>  <Kier2>
10.1

>  <Lipinski>
1

>  <GhoseFilter>
1

>  <FilterItLogS>
-4.26

>  <VMcGowan>
250.42

>  <LabuteASA>
136.04

>  <PEOE_VSA1>
25

>  <PEOE_VSA2>
0

>  <PEOE_VSA3>
0

>  <PEOE_VSA4>
0

>  <PEOE_VSA5>
0

>  <PEOE_VSA6>
18.2

>  <PEOE_VSA7>
48.36

>  <PEOE_VSA8>
6.54

>  <PEOE_VSA9>
20.32

>  <PEOE_VSA10>
5.75

>  <PEOE_VSA11>
11.5

>  <PEOE_VSA12>
0

>  <PEOE_VSA13>
0

>  <SMR_VSA1>
19.69

>  <SMR_VSA2>
0

>  <SMR_VSA3>
5.32

>  <SMR_VSA4>
0

>  <SMR_VSA5>
12.52

>  <SMR_VSA6>
27.31

>  <SMR_VSA7>
53.59

>  <SMR_VSA8>
0

>  <SMR_VSA9>
17.25

>  <SlogP_VSA1>
14.79

>  <SlogP_VSA2>
37.52

>  <SlogP_VSA3>
6.42

>  <SlogP_VSA4>
0

>  <SlogP_VSA5>
17.23

>  <SlogP_VSA6>
42.46

>  <SlogP_VSA7>
0

>  <SlogP_VSA8>
0

>  <SlogP_VSA9>
0

>  <SlogP_VSA10>
0

>  <SlogP_VSA11>
17.25

>  <EState_VSA1>
6.1

>  <EState_VSA2>
5.75

>  <EState_VSA3>
18.04

>  <EState_VSA4>
24.09

>  <EState_VSA5>
0

>  <EState_VSA6>
38.49

>  <EState_VSA7>
18.2

>  <EState_VSA8>
5.32

>  <EState_VSA9>
9.47

>  <EState_VSA10>
10.21

>  <VSA_EState1>
10.5

>  <VSA_EState2>
0

>  <VSA_EState3>
22.55

>  <VSA_EState4>
1.91

>  <VSA_EState5>
1.63

>  <VSA_EState6>
12.42

>  <VSA_EState7>
0.23

>  <VSA_EState8>
1.2

>  <VSA_EState9>
3.23

>  <apol>
49.7

>  <bpol>
27.12

>  <nRing>
2

>  <nHRing>
0

>  <naRing>
2

>  <naHRing>
0

>  <nARing 2>
0

>  <nAHRing 2>
0

>  <nFRing>
0

>  <nFHRing>
0

>  <nFaRing>
0

>  <nFaHRing>
0

>  <nFARing 2>
0

>  <nFAHRing 2>
0

>  <nRot>
8

>  <SLogP>
2.28

>  <SMR>
89.19

>  <TopoPSA(NO)>
70.95

>  <TopoPSA>
70.95

>  <JGI1>
0.19

>  <JGI2>
0.09

>  <JGI3>
0.04

>  <JGI4>
0.04

>  <JGI5>
0.03

>  <Diameter>
15

>  <Radius>
8

>  <TMWC10>
119.06

>  <TSRW10>
56.57

>  <MW>
317.16

>  <AMW>
6.89

>  <WPath>
1476

>  <WPol>
32

>  <Zagreb1>
110

>  <Zagreb2>
124

>  <mZagreb2>
5.39

>  <yes>


>  <nAR-cont>
0.336376

>  <nHA-cont>
0.967789328

>  <MWHBN>
0.449211414

>  <MWHBN-cont>
0.288740993

>  <TPSA-cont>
0.504724943

>  <pka_cont>
0.97

>  <yes.1>


>  <BBB_SCORE>
3.231726703

>  <MMFF94 Energy>
93.054

$$$$
Compound 2802
Actelion Java MolfileCreator 2.0

  0  0  0  0  0  0              0 V3000
M  V30 BEGIN CTAB
M  V30 COUNTS 56 58 0 0 0
M  V30 BEGIN ATOM
M  V30 1 O -1.8187 1.2649 1.1858 0
M  V30 2 C -1.7433 0.1792 2.1258 0
M  V30 3 C -2.4488 0.8961 -0.042 0
M  V30 4 C -0.2812 -0.3639 2.2166 0
M  V30 5 C -2.1958 0.7608 3.4718 0
M  V30 6 C -2.1876 1.971 -1.0974 0
M  V30 7 N 0.1864 -0.8949 0.9251 0
M  V30 8 C -0.1464 -1.3521 3.394 0
M  V30 9 C -2.0383 -0.2282 4.6172 0
M  V30 10 C -0.7945 1.8675 -1.6779 0
M  V30 11 C -0.2787 -2.2162 0.5175 0
M  V30 12 C 1.6381 -0.9204 0.7612 0
M  V30 13 C -0.6047 -0.7335 4.7127 0
M  V30 14 C -0.5493 1.0698 -2.8056 0
M  V30 15 C 0.2751 2.5264 -1.0664 0
M  V30 16 C 0.5212 -2.4404 -0.7641 0
M  V30 17 C 1.8678 -1.7815 -0.4784 0
M  V30 18 C 0.7464 0.9336 -3.3196 0
M  V30 19 C 1.57 2.403 -1.5747 0
M  V30 20 O 0.6735 -3.8219 -1.0564 0
M  V30 21 O 1.0719 0.156 -4.4048 0
M  V30 22 C 1.8165 1.608 -2.6982 0
M  V30 23 C 0.0091 -0.4751 -5.1035 0
M  V30 24 O 3.0575 1.4139 -3.2544 0
M  V30 25 C 4.1529 2.1014 -2.6679 0
M  V30 26 H -2.4353 -0.6276 1.8482 0
M  V30 27 H -3.5262 0.8308 0.1477 0
M  V30 28 H -2.1016 -0.0803 -0.3933 0
M  V30 29 H 0.3466 0.5125 2.4357 0
M  V30 30 H -3.2426 1.081 3.3975 0
M  V30 31 H -1.625 1.6734 3.6899 0
M  V30 32 H -2.9158 1.8687 -1.9113 0
M  V30 33 H -2.3288 2.972 -0.6712 0
M  V30 34 H -0.751 -2.2489 3.2127 0
M  V30 35 H 0.8927 -1.6811 3.5046 0
M  V30 36 H -2.3242 0.2505 5.5606 0
M  V30 37 H -2.7193 -1.075 4.4684 0
M  V30 38 H -1.3541 -2.2497 0.3187 0
M  V30 39 H -0.0437 -3.0023 1.2448 0
M  V30 40 H 2.1408 -1.3829 1.6183 0
M  V30 41 H 2.049 0.0851 0.627 0
M  V30 42 H 0.0624 0.0943 4.9823 0
M  V30 43 H -0.5303 -1.4781 5.5134 0
M  V30 44 H -1.388 0.5507 -3.2572 0
M  V30 45 H 0.1059 3.1247 -0.1729 0
M  V30 46 H 0.0281 -1.9539 -1.6145 0
M  V30 47 H 2.6611 -2.5168 -0.3037 0
M  V30 48 H 2.1708 -1.1667 -1.3323 0
M  V30 49 H 2.3645 2.9297 -1.0583 0
M  V30 50 H 1.2504 -3.8794 -1.838 0
M  V30 51 H -0.4942 -1.2133 -4.4704 0
M  V30 52 H 0.44 -1.009 -5.9559 0
M  V30 53 H -0.7002 0.2605 -5.497 0
M  V30 54 H 4.016 3.1864 -2.7238 0
M  V30 55 H 5.0505 1.8506 -3.2414 0
M  V30 56 H 4.3169 1.7743 -1.6358 0
M  V30 END ATOM
M  V30 BEGIN BOND
M  V30 1 1 1 2
M  V30 2 1 1 3
M  V30 3 1 2 4
M  V30 4 1 2 5
M  V30 5 1 3 6
M  V30 6 1 4 7
M  V30 7 1 4 8
M  V30 8 1 5 9
M  V30 9 1 6 10
M  V30 10 1 7 11
M  V30 11 1 7 12
M  V30 12 1 8 13
M  V30 13 2 10 14
M  V30 14 1 10 15
M  V30 15 1 11 16
M  V30 16 1 12 17
M  V30 17 1 14 18
M  V30 18 2 15 19
M  V30 19 1 16 20
M  V30 20 1 18 21
M  V30 21 2 18 22
M  V30 22 1 21 23
M  V30 23 1 22 24
M  V30 24 1 24 25
M  V30 25 1 9 13
M  V30 26 1 16 17
M  V30 27 1 19 22
M  V30 28 1 2 26
M  V30 29 1 3 27
M  V30 30 1 3 28
M  V30 31 1 4 29
M  V30 32 1 5 30
M  V30 33 1 5 31
M  V30 34 1 6 32
M  V30 35 1 6 33
M  V30 36 1 8 34
M  V30 37 1 8 35
M  V30 38 1 9 36
M  V30 39 1 9 37
M  V30 40 1 11 38
M  V30 41 1 11 39
M  V30 42 1 12 40
M  V30 43 1 12 41
M  V30 44 1 13 42
M  V30 45 1 13 43
M  V30 46 1 14 44
M  V30 47 1 15 45
M  V30 48 1 16 46
M  V30 49 1 17 47
M  V30 50 1 17 48
M  V30 51 1 19 49
M  V30 52 1 20 50
M  V30 53 1 23 51
M  V30 54 1 23 52
M  V30 55 1 23 53
M  V30 56 1 25 54
M  V30 57 1 25 55
M  V30 58 1 25 56
M  V30 END BOND
M  V30 END CTAB
M  END
>  <Column 1>
3541

>  <level_0>
5803

>  <index>
5804

>  <Unnamed: 0>
5804

>  <NO.>
5816

>  <Name>
schembl2624888

>  <IUPAC_name>
1-[2-[2-(3-4-dimethoxyphenyl)ethoxy]cyclohexyl]pyrrolidin-3-ol

>  <SMILES>
COc1ccc(CCOC2CCCCC2N2CCC(O)C2)cc1OC

>  <CID>
11188322

>  <logBB>


>  <BBB+/BBB->
BBB-

>  <Inchi>
InChI=1S/C20H31NO4/c1-23-19-8-7-15(13-20(19)24-2)10-12-25-18-6-4-3-5-17(18)21-11-9-16(22)14-21/h7-8-13-16-18-22H-3-6-9-12-14H2-1-2H3

>  <threshold>


>  <reference>
R23|

>  <group>
C

>  <Class>
-1

>  <ABC>
19.08

>  <ABCGG>
15.36

>  <nAcid>
0

>  <nBase>
1

>  <nAromAtom>
6

>  <nAromBond>
6

>  <nAtom>
56

>  <nHeavyAtom>
25

>  <nSpiro>
0

>  <nBridgehead>
0

>  <nHetero>
5

>  <nN>
1

>  <nO>
4

>  <nF>
0

>  <BalabanJ>
1.42

>  <BertzCT>
550.5

>  <nBonds>
58

>  <nBondsO>
27

>  <nBondsS>
52

>  <nBondsD>
0

>  <nBondsT>
0

>  <nBondsA>
6

>  <nBondsM>
6

>  <nBondsKS>
55

>  <nBondsKD>
3

>  <RNCG>
0.21

>  <RPCG>
0.09

>  <FCSP3>
0.7

>  <SZ>
31.67

>  <Sm>
29.1

>  <Sv>
32.02

>  <Sse>
55.75

>  <Sp>
34.96

>  <Si>
63.57

>  <MZ>
0.57

>  <Mm>
0.52

>  <Mv>
0.57

>  <Mse>
1

>  <Mp>
0.62

>  <Mi>
1.14

>  <NsCH3>
2

>  <NdCH2>
0

>  <NssCH2>
9

>  <NtCH>
0

>  <NdsCH>
0

>  <NaaCH>
3

>  <NsssCH>
3

>  <NddC>
0

>  <NtsC>
0

>  <NdssC>
0

>  <NaasC>
3

>  <NaaaC>
0

>  <NssssC>
0

>  <NsNH3>
0

>  <NsNH2>
0

>  <NssNH2>
0

>  <NdNH>
0

>  <NssNH>
0

>  <NaaNH>
0

>  <NtN>
0

>  <NsssNH>
0

>  <NdsN>
0

>  <NaaN>
0

>  <NsssN>
1

>  <NddsN>
0

>  <NaasN>
0

>  <NssssN>
0

>  <NsOH>
1

>  <NdO>
0

>  <NssO>
3

>  <NaaO>
0

>  <NsF>
0

>  <NsSiH3>
0

>  <NssSiH2>
0

>  <NsssSiH>
0

>  <NssssSi>
0

>  <NsPH2>
0

>  <NssPH>
0

>  <NsssP>
0

>  <NdsssP>
0

>  <NsssssP>
0

>  <NsSH>
0

>  <NdS>
0

>  <NssS>
0

>  <NaaS>
0

>  <NdssS>
0

>  <NddssS>
0

>  <NsCl>
0

>  <NsBr>
0

>  <NsI>
0

>  <fragCpx>
129.05

>  <fMF>
0.36

>  <nHBAcc>
5

>  <nHBDon>
1

>  <Kier1>
19.75

>  <Kier2>
9.8

>  <Lipinski>
1

>  <GhoseFilter>
1

>  <FilterItLogS>
-3.56

>  <VMcGowan>
280.64

>  <LabuteASA>
150.42

>  <PEOE_VSA1>
19.32

>  <PEOE_VSA2>
4.9

>  <PEOE_VSA3>
0

>  <PEOE_VSA4>
0

>  <PEOE_VSA5>
0

>  <PEOE_VSA6>
18.91

>  <PEOE_VSA7>
43.38

>  <PEOE_VSA8>
19.13

>  <PEOE_VSA9>
33.03

>  <PEOE_VSA10>
0

>  <PEOE_VSA11>
11.5

>  <PEOE_VSA12>
0

>  <PEOE_VSA13>
0

>  <SMR_VSA1>
19.32

>  <SMR_VSA2>
0

>  <SMR_VSA3>
4.9

>  <SMR_VSA4>
0

>  <SMR_VSA5>
56.77

>  <SMR_VSA6>
33.92

>  <SMR_VSA7>
23.76

>  <SMR_VSA8>
0

>  <SMR_VSA9>
11.5

>  <SlogP_VSA1>
9.47

>  <SlogP_VSA2>
62.17

>  <SlogP_VSA3>
11.16

>  <SlogP_VSA4>
0

>  <SlogP_VSA5>
37.67

>  <SlogP_VSA6>
18.2

>  <SlogP_VSA7>
0

>  <SlogP_VSA8>
0

>  <SlogP_VSA9>
0

>  <SlogP_VSA10>
0

>  <SlogP_VSA11>
11.5

>  <EState_VSA1>
0

>  <EState_VSA2>
6.1

>  <EState_VSA3>
18.75

>  <EState_VSA4>
43.85

>  <EState_VSA5>
24.83

>  <EState_VSA6>
14.22

>  <EState_VSA7>
12.13

>  <EState_VSA8>
10.97

>  <EState_VSA9>
14.21

>  <EState_VSA10>
5.11

>  <VSA_EState1>
16.94

>  <VSA_EState2>
2.44

>  <VSA_EState3>
9.83

>  <VSA_EState4>
1.2

>  <VSA_EState5>
1.52

>  <VSA_EState6>
6.51

>  <VSA_EState7>
6.73

>  <VSA_EState8>
2.52

>  <VSA_EState9>
3.31

>  <apol>
58.38

>  <bpol>
38.02

>  <nRing>
3

>  <nHRing>
1

>  <naRing>
1

>  <naHRing>
0

>  <nARing 2>
2

>  <nAHRing 2>
1

>  <nFRing>
0

>  <nFHRing>
0

>  <nFaRing>
0

>  <nFaHRing>
0

>  <nFARing 2>
0

>  <nFAHRing 2>
0

>  <nRot>
7

>  <SLogP>
2.64

>  <SMR>
97.44

>  <TopoPSA(NO)>
51.16

>  <TopoPSA>
51.16

>  <JGI1>
0.17

>  <JGI2>
0.07

>  <JGI3>
0.04

>  <JGI4>
0.03

>  <JGI5>
0.03

>  <Diameter>
14

>  <Radius>
7

>  <TMWC10>
126.3

>  <TSRW10>
72.95

>  <MW>
349.23

>  <AMW>
6.24

>  <WPath>
1695

>  <WPol>
36

>  <Zagreb1>
126

>  <Zagreb2>
146

>  <mZagreb2>
5.75

>  <yes>


>  <nAR-cont>
1

>  <nHA-cont>
0.921834225

>  <MWHBN>
0.321066858

>  <MWHBN-cont>
0.773575296

>  <TPSA-cont>
0.642871432

>  <pka_cont>
0.97

>  <yes.1>


>  <BBB_SCORE>
4.852940032

>  <MMFF94 Energy>
111.33

$$$$
Compound 2803
Actelion Java MolfileCreator 2.0

  0  0  0  0  0  0              0 V3000
M  V30 BEGIN CTAB
M  V30 COUNTS 60 63 0 0 0
M  V30 BEGIN ATOM
M  V30 1 Cl 5.2059 0.3197 -1.2795 0
M  V30 2 C 3.944 -0.7918 -0.8693 0
M  V30 3 C 4.0638 -2.1645 -1.1397 0
M  V30 4 C 2.7948 -0.2788 -0.2593 0
M  V30 5 O 5.2122 -2.5761 -1.7656 0
M  V30 6 C 3.0094 -3.0119 -0.7856 0
M  V30 7 C 1.7457 -1.1314 0.1072 0
M  V30 8 C 5.4301 -3.9764 -1.8798 0
M  V30 9 C 1.8615 -2.4997 -0.1689 0
M  V30 10 C 0.4864 -0.5748 0.7291 0
M  V30 11 N -0.435 -0.2341 -0.3337 0
M  V30 12 C -1.6428 0.3817 -0.012 0
M  V30 13 N -1.9233 0.5632 1.2962 0
M  V30 14 C -2.5111 0.8252 -0.9985 0
M  V30 15 C -3.0901 1.1352 1.6474 0
M  V30 16 C -2.2775 0.7373 -2.4554 0
M  V30 17 C -3.6895 1.379 -0.5544 0
M  V30 18 N -3.9968 1.5396 0.7481 0
M  V30 19 N -3.3628 1.301 2.9705 0
M  V30 20 O -3.2264 0.7078 -3.2307 0
M  V30 21 N -0.9701 0.7151 -2.868 0
M  V30 22 C -2.4867 0.8468 4.0446 0 CFG=2
M  V30 23 C -4.6371 1.8097 3.4372 0
M  V30 24 C -0.5977 0.5861 -4.2663 0
M  V30 25 C -3.4288 0.8178 5.2589 0
M  V30 26 C -1.2706 1.777 4.2327 0
M  V30 27 C -4.4757 1.8828 4.9534 0
M  V30 28 C 0.8501 0.1745 -4.4212 0
M  V30 29 O -1.6259 3.0636 4.737 0
M  V30 30 N 1.7855 1.1448 -4.3435 0
M  V30 31 N 1.1254 -1.1438 -4.5128 0
M  V30 32 C 3.0701 0.7464 -4.405 0
M  V30 33 C 2.4278 -1.4812 -4.5689 0
M  V30 34 C 3.4523 -0.5675 -4.5235 0
M  V30 35 H 2.7127 0.7906 -0.0762 0
M  V30 36 H 3.0401 -4.0783 -0.985 0
M  V30 37 H 5.415 -4.4635 -0.899 0
M  V30 38 H 6.4251 -4.1253 -2.3101 0
M  V30 39 H 4.7026 -4.4309 -2.5601 0
M  V30 40 H 1.0497 -3.1794 0.0866 0
M  V30 41 H 0.742 0.3065 1.3313 0
M  V30 42 H 0.0499 -1.3199 1.4061 0
M  V30 43 H -0.4696 -0.8799 -1.1182 0
M  V30 44 H -4.4461 1.7345 -1.2494 0
M  V30 45 H -0.223 0.8516 -2.1915 0
M  V30 46 H -2.1251 -0.1707 3.8494 0
M  V30 47 H -4.8731 2.7971 3.0256 0
M  V30 48 H -5.4434 1.1133 3.1779 0
M  V30 49 H -0.7648 1.5557 -4.7479 0
M  V30 50 H -1.2535 -0.147 -4.7486 0
M  V30 51 H -2.9174 0.9867 6.2113 0
M  V30 52 H -3.9216 -0.1612 5.3133 0
M  V30 53 H -0.733 1.916 3.2893 0
M  V30 54 H -0.5776 1.3291 4.9526 0
M  V30 55 H -5.419 1.7064 5.479 0
M  V30 56 H -4.1143 2.874 5.2484 0
M  V30 57 H -0.8901 3.6625 4.5256 0
M  V30 58 H 3.8081 1.5414 -4.345 0
M  V30 59 H 2.6298 -2.5451 -4.6474 0
M  V30 60 H 4.4915 -0.8636 -4.5572 0
M  V30 END ATOM
M  V30 BEGIN BOND
M  V30 1 1 1 2
M  V30 2 2 2 3
M  V30 3 1 2 4
M  V30 4 1 3 5
M  V30 5 1 3 6
M  V30 6 2 4 7
M  V30 7 1 5 8
M  V30 8 2 6 9
M  V30 9 1 7 10
M  V30 10 1 10 11
M  V30 11 1 11 12
M  V30 12 2 12 13
M  V30 13 1 12 14
M  V30 14 1 13 15
M  V30 15 1 14 16
M  V30 16 2 14 17
M  V30 17 2 15 18
M  V30 18 1 15 19
M  V30 19 2 16 20
M  V30 20 1 16 21
M  V30 21 1 19 22
M  V30 22 1 19 23
M  V30 23 1 21 24
M  V30 24 1 22 25
M  V30 25 1 22 26
M  V30 26 1 23 27
M  V30 27 1 24 28
M  V30 28 1 26 29
M  V30 29 2 28 30
M  V30 30 1 28 31
M  V30 31 1 30 32
M  V30 32 2 31 33
M  V30 33 2 32 34
M  V30 34 1 7 9
M  V30 35 1 17 18
M  V30 36 1 25 27
M  V30 37 1 33 34
M  V30 38 1 4 35
M  V30 39 1 6 36
M  V30 40 1 8 37
M  V30 41 1 8 38
M  V30 42 1 8 39
M  V30 43 1 9 40
M  V30 44 1 10 41
M  V30 45 1 10 42
M  V30 46 1 11 43
M  V30 47 1 17 44
M  V30 48 1 21 45
M  V30 49 1 22 46
M  V30 50 1 23 47
M  V30 51 1 23 48
M  V30 52 1 24 49
M  V30 53 1 24 50
M  V30 54 1 25 51
M  V30 55 1 25 52
M  V30 56 1 26 53
M  V30 57 1 26 54
M  V30 58 1 27 55
M  V30 59 1 27 56
M  V30 60 1 29 57
M  V30 61 1 32 58
M  V30 62 1 33 59
M  V30 63 1 34 60
M  V30 END BOND
M  V30 BEGIN COLLECTION
M  V30 MDLV30/STERAC1 ATOMS=(1 22)
M  V30 END COLLECTION
M  V30 END CTAB
M  END
>  <Column 1>
3542

>  <level_0>
5804

>  <index>
5805

>  <Unnamed: 0>
5805

>  <NO.>
5817

>  <Name>
avanafil

>  <IUPAC_name>
4-[(3-chloro-4-methoxyphenyl)methylamino]-2-[2-(hydroxymethyl)pyrrolidin-1-yl]-n-(pyrimidin-2-ylmethyl)pyrimidine-5-carboxamide

>  <SMILES>
COc1ccc(CNc2nc(N3CCCC3CO)ncc2C(=O)NCc2ncccn2)cc1Cl

>  <CID>
18762634

>  <logBB>


>  <BBB+/BBB->
BBB-

>  <Inchi>
InChI=1S/C23H26ClN7O3/c1-34-19-6-5-15(10-18(19)24)11-27-21-17(22(33)28-13-20-25-7-3-8-26-20)12-29-23(30-21)31-9-2-4-16(31)14-32/h3-5-8-10-12-16-32H-2-4-9-11-13-14H2-1H3-(H-28-33)(H-27-29-30)

>  <threshold>


>  <reference>
R23|

>  <group>
C

>  <Class>
-1

>  <ABC>
26.18

>  <ABCGG>
20.16

>  <nAcid>
0

>  <nBase>
0

>  <nAromAtom>
18

>  <nAromBond>
18

>  <nAtom>
60

>  <nHeavyAtom>
34

>  <nSpiro>
0

>  <nBridgehead>
0

>  <nHetero>
11

>  <nN>
7

>  <nO>
3

>  <nF>
0

>  <BalabanJ>
1.34

>  <BertzCT>
1132.8

>  <nBonds>
63

>  <nBondsO>
37

>  <nBondsS>
44

>  <nBondsD>
1

>  <nBondsT>
0

>  <nBondsA>
18

>  <nBondsM>
19

>  <nBondsKS>
53

>  <nBondsKD>
10

>  <RNCG>
0.15

>  <RPCG>
0.08

>  <FCSP3>
0.35

>  <SZ>
42.33

>  <Sm>
40.29

>  <Sv>
38.58

>  <Sse>
60.94

>  <Sp>
40.74

>  <Si>
68.21

>  <MZ>
0.71

>  <Mm>
0.67

>  <Mv>
0.64

>  <Mse>
1.02

>  <Mp>
0.68

>  <Mi>
1.14

>  <NsCH3>
1

>  <NdCH2>
0

>  <NssCH2>
6

>  <NtCH>
0

>  <NdsCH>
0

>  <NaaCH>
7

>  <NsssCH>
1

>  <NddC>
0

>  <NtsC>
0

>  <NdssC>
1

>  <NaasC>
7

>  <NaaaC>
0

>  <NssssC>
0

>  <NsNH3>
0

>  <NsNH2>
0

>  <NssNH2>
0

>  <NdNH>
0

>  <NssNH>
2

>  <NaaNH>
0

>  <NtN>
0

>  <NsssNH>
0

>  <NdsN>
0

>  <NaaN>
4

>  <NsssN>
1

>  <NddsN>
0

>  <NaasN>
0

>  <NssssN>
0

>  <NsOH>
1

>  <NdO>
1

>  <NssO>
1

>  <NaaO>
0

>  <NsF>
0

>  <NsSiH3>
0

>  <NssSiH2>
0

>  <NsssSiH>
0

>  <NssssSi>
0

>  <NsPH2>
0

>  <NssPH>
0

>  <NsssP>
0

>  <NdsssP>
0

>  <NsssssP>
0

>  <NsSH>
0

>  <NdS>
0

>  <NssS>
0

>  <NaaS>
0

>  <NdssS>
0

>  <NddssS>
0

>  <NsCl>
1

>  <NsBr>
0

>  <NsI>
0

>  <fragCpx>
247.11

>  <fMF>
0.47

>  <nHBAcc>
9

>  <nHBDon>
3

>  <Kier1>
27.05

>  <Kier2>
13.52

>  <Lipinski>
1

>  <GhoseFilter>
0

>  <FilterItLogS>
-6.37

>  <VMcGowan>
348.2

>  <LabuteASA>
201.93

>  <PEOE_VSA1>
25.38

>  <PEOE_VSA2>
4.79

>  <PEOE_VSA3>
14.95

>  <PEOE_VSA4>
4.98

>  <PEOE_VSA5>
0

>  <PEOE_VSA6>
17.67

>  <PEOE_VSA7>
36.6

>  <PEOE_VSA8>
31.68

>  <PEOE_VSA9>
31.33

>  <PEOE_VSA10>
22.96

>  <PEOE_VSA11>
0

>  <PEOE_VSA12>
5.95

>  <PEOE_VSA13>
5.91

>  <SMR_VSA1>
14.64

>  <SMR_VSA2>
0

>  <SMR_VSA3>
25.25

>  <SMR_VSA4>
0

>  <SMR_VSA5>
31.97

>  <SMR_VSA6>
30.48

>  <SMR_VSA7>
64.83

>  <SMR_VSA8>
0

>  <SMR_VSA9>
5.75

>  <SlogP_VSA1>
20.27

>  <SlogP_VSA2>
57.25

>  <SlogP_VSA3>
13.09

>  <SlogP_VSA4>
0

>  <SlogP_VSA5>
34.59

>  <SlogP_VSA6>
42.86

>  <SlogP_VSA7>
5.02

>  <SlogP_VSA8>
0

>  <SlogP_VSA9>
0

>  <SlogP_VSA10>
11.77

>  <SlogP_VSA11>
5.75

>  <EState_VSA1>
0

>  <EState_VSA2>
25.1

>  <EState_VSA3>
40.47

>  <EState_VSA4>
24.95

>  <EState_VSA5>
6.2

>  <EState_VSA6>
37.7

>  <EState_VSA7>
10.97

>  <EState_VSA8>
30.57

>  <EState_VSA9>
16.34

>  <EState_VSA10>
9.9

>  <VSA_EState1>
5.21

>  <VSA_EState2>
32.24

>  <VSA_EState3>
16.24

>  <VSA_EState4>
1.18

>  <VSA_EState5>
1.58

>  <VSA_EState6>
7.14

>  <VSA_EState7>
6.55

>  <VSA_EState8>
1.32

>  <VSA_EState9>
1.56

>  <apol>
68.03

>  <bpol>
36.61

>  <nRing>
4

>  <nHRing>
3

>  <naRing>
3

>  <naHRing>
2

>  <nARing 2>
1

>  <nAHRing 2>
1

>  <nFRing>
0

>  <nFHRing>
0

>  <nFaRing>
0

>  <nFaHRing>
0

>  <nFARing 2>
0

>  <nFAHRing 2>
0

>  <nRot>
9

>  <SLogP>
2.43

>  <SMR>
128.02

>  <TopoPSA(NO)>
125.39

>  <TopoPSA>
125.39

>  <JGI1>
0.16

>  <JGI2>
0.08

>  <JGI3>
0.04

>  <JGI4>
0.04

>  <JGI5>
0.02

>  <Diameter>
16

>  <Radius>
8

>  <TMWC10>
148.41

>  <TSRW10>
83.64

>  <MW>
483.18

>  <AMW>
8.05

>  <WPath>
3728

>  <WPol>
52

>  <Zagreb1>
174

>  <Zagreb2>
203

>  <mZagreb2>
7.72

>  <yes>


>  <nAR-cont>
0.816016

>  <nHA-cont>
0.568589513

>  <MWHBN>
0.545917192

>  <MWHBN-cont>
0

>  <TPSA-cont>
0

>  <pka_cont>
0.97

>  <yes.1>


>  <BBB_SCORE>
1.869605513

>  <MMFF94 Energy>
-23.806

$$$$
Compound 2804
Actelion Java MolfileCreator 2.0

  0  0  0  0  0  0              0 V3000
M  V30 BEGIN CTAB
M  V30 COUNTS 17 17 0 0 0
M  V30 BEGIN ATOM
M  V30 1 O 0.0776 -0.699 2.0204 0
M  V30 2 C 0.1811 -0.3282 0.7081 0
M  V30 3 C -1.0244 -0.1774 2.7517 0
M  V30 4 C -0.6953 0.5147 0.0206 0
M  V30 5 C 1.2809 -0.8675 0.0343 0
M  V30 6 C -0.4724 0.8145 -1.3283 0
M  V30 7 C 1.506 -0.5705 -1.3105 0
M  V30 8 C 0.6272 0.2685 -1.9819 0
M  V30 9 O 0.8795 0.5356 -3.2944 0
M  V30 10 H -0.9796 0.9152 2.8077 0
M  V30 11 H -0.9619 -0.5656 3.7729 0
M  V30 12 H -1.9756 -0.5134 2.3256 0
M  V30 13 H -1.5608 0.9548 0.5043 0
M  V30 14 H 1.9678 -1.5244 0.5619 0
M  V30 15 H -1.1642 1.4715 -1.8459 0
M  V30 16 H 2.3621 -0.9926 -1.8282 0
M  V30 17 H 0.1886 1.1301 -3.6289 0
M  V30 END ATOM
M  V30 BEGIN BOND
M  V30 1 1 1 2
M  V30 2 1 1 3
M  V30 3 2 2 4
M  V30 4 1 2 5
M  V30 5 1 4 6
M  V30 6 2 5 7
M  V30 7 2 6 8
M  V30 8 1 8 9
M  V30 9 1 7 8
M  V30 10 1 3 10
M  V30 11 1 3 11
M  V30 12 1 3 12
M  V30 13 1 4 13
M  V30 14 1 5 14
M  V30 15 1 6 15
M  V30 16 1 7 16
M  V30 17 1 9 17
M  V30 END BOND
M  V30 END CTAB
M  END
>  <Column 1>
3543

>  <level_0>
5805

>  <index>
5806

>  <Unnamed: 0>
5806

>  <NO.>
5818

>  <Name>
mequinol

>  <IUPAC_name>
4-methoxyphenol

>  <SMILES>
COc1ccc(O)cc1

>  <CID>
9015

>  <logBB>


>  <BBB+/BBB->
BBB-

>  <Inchi>
InChI=1S/C7H8O2/c1-9-7-4-2-6(8)3-5-7/h2-5-8H-1H3

>  <threshold>


>  <reference>
R23|

>  <group>
C

>  <Class>
1

>  <ABC>
6.47

>  <ABCGG>
6.13

>  <nAcid>
0

>  <nBase>
0

>  <nAromAtom>
6

>  <nAromBond>
6

>  <nAtom>
17

>  <nHeavyAtom>
9

>  <nSpiro>
0

>  <nBridgehead>
0

>  <nHetero>
2

>  <nN>
0

>  <nO>
2

>  <nF>
0

>  <BalabanJ>
2.18

>  <BertzCT>
178.61

>  <nBonds>
17

>  <nBondsO>
9

>  <nBondsS>
11

>  <nBondsD>
0

>  <nBondsT>
0

>  <nBondsA>
6

>  <nBondsM>
6

>  <nBondsKS>
14

>  <nBondsKD>
3

>  <RNCG>
0.47

>  <RPCG>
0.27

>  <FCSP3>
0.14

>  <SZ>
11

>  <Sm>
10.34

>  <Sv>
10.6

>  <Sse>
17.21

>  <Sp>
11.15

>  <Si>
19.08

>  <MZ>
0.65

>  <Mm>
0.61

>  <Mv>
0.62

>  <Mse>
1.01

>  <Mp>
0.66

>  <Mi>
1.12

>  <NsCH3>
1

>  <NdCH2>
0

>  <NssCH2>
0

>  <NtCH>
0

>  <NdsCH>
0

>  <NaaCH>
4

>  <NsssCH>
0

>  <NddC>
0

>  <NtsC>
0

>  <NdssC>
0

>  <NaasC>
2

>  <NaaaC>
0

>  <NssssC>
0

>  <NsNH3>
0

>  <NsNH2>
0

>  <NssNH2>
0

>  <NdNH>
0

>  <NssNH>
0

>  <NaaNH>
0

>  <NtN>
0

>  <NsssNH>
0

>  <NdsN>
0

>  <NaaN>
0

>  <NsssN>
0

>  <NddsN>
0

>  <NaasN>
0

>  <NssssN>
0

>  <NsOH>
1

>  <NdO>
0

>  <NssO>
1

>  <NaaO>
0

>  <NsF>
0

>  <NsSiH3>
0

>  <NssSiH2>
0

>  <NsssSiH>
0

>  <NssssSi>
0

>  <NsPH2>
0

>  <NssPH>
0

>  <NsssP>
0

>  <NdsssP>
0

>  <NsssssP>
0

>  <NsSH>
0

>  <NdS>
0

>  <NssS>
0

>  <NaaS>
0

>  <NdssS>
0

>  <NddssS>
0

>  <NsCl>
0

>  <NsBr>
0

>  <NsI>
0

>  <fragCpx>
9.02

>  <fMF>
0.35

>  <nHBAcc>
2

>  <nHBDon>
1

>  <Kier1>
7.11

>  <Kier2>
3.24

>  <Lipinski>
1

>  <GhoseFilter>
0

>  <FilterItLogS>
-1.3

>  <VMcGowan>
97.47

>  <LabuteASA>
53.7

>  <PEOE_VSA1>
9.84

>  <PEOE_VSA2>
0

>  <PEOE_VSA3>
0

>  <PEOE_VSA4>
0

>  <PEOE_VSA5>
0

>  <PEOE_VSA6>
0

>  <PEOE_VSA7>
24.27

>  <PEOE_VSA8>
0

>  <PEOE_VSA9>
7.11

>  <PEOE_VSA10>
11.5

>  <PEOE_VSA11>
0

>  <PEOE_VSA12>
0

>  <PEOE_VSA13>
0

>  <SMR_VSA1>
9.84

>  <SMR_VSA2>
0

>  <SMR_VSA3>
0

>  <SMR_VSA4>
0

>  <SMR_VSA5>
0

>  <SMR_VSA6>
7.11

>  <SMR_VSA7>
24.27

>  <SMR_VSA8>
0

>  <SMR_VSA9>
11.5

>  <SlogP_VSA1>
4.74

>  <SlogP_VSA2>
12.22

>  <SlogP_VSA3>
0

>  <SlogP_VSA4>
0

>  <SlogP_VSA5>
0

>  <SlogP_VSA6>
24.27

>  <SlogP_VSA7>
0

>  <SlogP_VSA8>
0

>  <SlogP_VSA9>
0

>  <SlogP_VSA10>
0

>  <SlogP_VSA11>
11.5

>  <EState_VSA1>
0

>  <EState_VSA2>
5.75

>  <EState_VSA3>
0

>  <EState_VSA4>
5.75

>  <EState_VSA5>
0

>  <EState_VSA6>
31.38

>  <EState_VSA7>
0

>  <EState_VSA8>
0

>  <EState_VSA9>
9.84

>  <EState_VSA10>
0

>  <VSA_EState1>
4.86

>  <VSA_EState2>
0

>  <VSA_EState3>
8.8

>  <VSA_EState4>
0

>  <VSA_EState5>
1.02

>  <VSA_EState6>
6.57

>  <VSA_EState7>
0

>  <VSA_EState8>
0

>  <VSA_EState9>
1.59

>  <apol>
18.63

>  <bpol>
9.76

>  <nRing>
1

>  <nHRing>
0

>  <naRing>
1

>  <naHRing>
0

>  <nARing 2>
0

>  <nAHRing 2>
0

>  <nFRing>
0

>  <nFHRing>
0

>  <nFaRing>
0

>  <nFaHRing>
0

>  <nFARing 2>
0

>  <nFAHRing 2>
0

>  <nRot>
1

>  <SLogP>
1.4

>  <SMR>
34.66

>  <TopoPSA(NO)>
29.46

>  <TopoPSA>
29.46

>  <JGI1>
0.22

>  <JGI2>
0.08

>  <JGI3>
0.03

>  <JGI4>
0.09

>  <JGI5>
0.06

>  <Diameter>
6

>  <Radius>
3

>  <TMWC10>
79.39

>  <TSRW10>
37.29

>  <MW>
124.05

>  <AMW>
7.3

>  <WPath>
90

>  <WPol>
9

>  <Zagreb1>
40

>  <Zagreb2>
43

>  <mZagreb2>
2.17

>  <yes>


>  <nAR-cont>
0.336376

>  <nHA-cont>
0.56070381

>  <MWHBN>
0.269353653

>  <MWHBN-cont>
0.921573268

>  <TPSA-cont>
0.794350906

>  <pka_cont>
0.97

>  <yes.1>


>  <BBB_SCORE>
4.353141525

>  <MMFF94 Energy>
8.9186

$$$$
Compound 2805
Actelion Java MolfileCreator 2.0

  0  0  0  0  0  0              0 V3000
M  V30 BEGIN CTAB
M  V30 COUNTS 62 63 0 0 0
M  V30 BEGIN ATOM
M  V30 1 O -4.0998 0.8661 0.4723 0
M  V30 2 C -2.9369 0.7404 0.8271 0
M  V30 3 O -2.1242 -0.2945 0.4912 0
M  V30 4 C -2.181 1.7062 1.7006 0
M  V30 5 C -2.6746 -1.2948 -0.3946 0 CFG=2
M  V30 6 C -3.0546 2.8828 2.1121 0
M  V30 7 C -1.8969 -2.6094 -0.2009 0
M  V30 8 C -2.7545 -0.8059 -1.8679 0
M  V30 9 C -2.3168 3.8005 3.0424 0
M  V30 10 O -0.4967 -2.4154 -0.4015 0
M  V30 11 N -1.4971 -0.626 -2.6212 0
M  V30 12 O -1.2597 3.5855 3.6099 0
M  V30 13 O -2.9764 4.9588 3.2366 0
M  V30 14 C 0.3455 -3.3842 0.0747 0
M  V30 15 C -0.6967 0.4851 -2.1039 0
M  V30 16 C -1.7862 -0.4028 -4.0402 0
M  V30 17 C 1.6774 -2.9861 0.2977 0
M  V30 18 C -0.0323 -4.7078 0.3152 0
M  V30 19 C 2.6012 -3.9195 0.7925 0
M  V30 20 C 2.1184 -1.5611 0.0386 0
M  V30 21 C 0.8986 -5.6286 0.8011 0
M  V30 22 C 2.2119 -5.2343 1.0436 0
M  V30 23 C 1.7172 -0.6199 1.1829 0
M  V30 24 C 1.9933 0.8582 0.9906 0
M  V30 25 C 2.5687 1.4008 -0.1706 0
M  V30 26 C 1.6292 1.7313 2.0282 0
M  V30 27 C 2.7649 2.7803 -0.2975 0
M  V30 28 C 1.8245 3.1059 1.9081 0
M  V30 29 O 3.3022 3.4199 -1.3819 0
M  V30 30 C 2.3902 3.6263 0.7473 0
M  V30 31 C 3.6913 2.6075 -2.482 0
M  V30 32 H -1.3113 2.0686 1.1416 0
M  V30 33 H -1.8308 1.165 2.5872 0
M  V30 34 H -3.7038 -1.5061 -0.0713 0
M  V30 35 H -3.354 3.4493 1.2228 0
M  V30 36 H -3.958 2.5321 2.6236 0
M  V30 37 H -2.0687 -2.9443 0.8305 0
M  V30 38 H -2.2719 -3.3668 -0.8989 0
M  V30 39 H -3.3305 0.1274 -1.9081 0
M  V30 40 H -3.3535 -1.5603 -2.3963 0
M  V30 41 H -2.4107 5.4603 3.8605 0
M  V30 42 H -0.3508 0.2884 -1.0874 0
M  V30 43 H -1.2499 1.4312 -2.1075 0
M  V30 44 H 0.2101 0.6182 -2.7053 0
M  V30 45 H -2.3789 0.5045 -4.2038 0
M  V30 46 H -2.3328 -1.2538 -4.4617 0
M  V30 47 H -0.8568 -0.3169 -4.6144 0
M  V30 48 H -1.0417 -5.0538 0.1205 0
M  V30 49 H 3.6308 -3.6253 0.9829 0
M  V30 50 H 1.6901 -1.2313 -0.9158 0
M  V30 51 H 3.2069 -1.5332 -0.1024 0
M  V30 52 H 0.5983 -6.6567 0.9862 0
M  V30 53 H 2.9348 -5.952 1.4226 0
M  V30 54 H 0.6421 -0.7241 1.3785 0
M  V30 55 H 2.2355 -0.9428 2.0961 0
M  V30 56 H 2.8556 0.7383 -0.9785 0
M  V30 57 H 1.1765 1.3431 2.9393 0
M  V30 58 H 1.5277 3.7682 2.7177 0
M  V30 59 H 2.5401 4.6987 0.6542 0
M  V30 60 H 4.4843 1.9088 -2.1959 0
M  V30 61 H 4.0928 3.2663 -3.2581 0
M  V30 62 H 2.831 2.0794 -2.9068 0
M  V30 END ATOM
M  V30 BEGIN BOND
M  V30 1 2 1 2
M  V30 2 1 2 3
M  V30 3 1 2 4
M  V30 4 1 3 5
M  V30 5 1 4 6
M  V30 6 1 5 7
M  V30 7 1 5 8
M  V30 8 1 6 9
M  V30 9 1 7 10
M  V30 10 1 8 11
M  V30 11 2 9 12
M  V30 12 1 9 13
M  V30 13 1 10 14
M  V30 14 1 11 15
M  V30 15 1 11 16
M  V30 16 2 14 17
M  V30 17 1 14 18
M  V30 18 1 17 19
M  V30 19 1 17 20
M  V30 20 2 18 21
M  V30 21 2 19 22
M  V30 22 1 20 23
M  V30 23 1 23 24
M  V30 24 2 24 25
M  V30 25 1 24 26
M  V30 26 1 25 27
M  V30 27 2 26 28
M  V30 28 1 27 29
M  V30 29 2 27 30
M  V30 30 1 29 31
M  V30 31 1 21 22
M  V30 32 1 28 30
M  V30 33 1 4 32
M  V30 34 1 4 33
M  V30 35 1 5 34
M  V30 36 1 6 35
M  V30 37 1 6 36
M  V30 38 1 7 37
M  V30 39 1 7 38
M  V30 40 1 8 39
M  V30 41 1 8 40
M  V30 42 1 13 41
M  V30 43 1 15 42
M  V30 44 1 15 43
M  V30 45 1 15 44
M  V30 46 1 16 45
M  V30 47 1 16 46
M  V30 48 1 16 47
M  V30 49 1 18 48
M  V30 50 1 19 49
M  V30 51 1 20 50
M  V30 52 1 20 51
M  V30 53 1 21 52
M  V30 54 1 22 53
M  V30 55 1 23 54
M  V30 56 1 23 55
M  V30 57 1 25 56
M  V30 58 1 26 57
M  V30 59 1 28 58
M  V30 60 1 30 59
M  V30 61 1 31 60
M  V30 62 1 31 61
M  V30 63 1 31 62
M  V30 END BOND
M  V30 BEGIN COLLECTION
M  V30 MDLV30/STERAC1 ATOMS=(1 5)
M  V30 END COLLECTION
M  V30 END CTAB
M  END
>  <Column 1>
3545

>  <level_0>
5808

>  <index>
5809

>  <Unnamed: 0>
5809

>  <NO.>
5821

>  <Name>
sarpogrelate

>  <IUPAC_name>
4-[1-(dimethylamino)-3-[2-[2-(3-methoxyphenyl)ethyl]phenoxy]propan-2-yl]oxy-4-oxobutanoic acid

>  <SMILES>
COc1cccc(CCc2ccccc2OCC(CN(C)C)OC(=O)CCC(=O)O)c1

>  <CID>
5160

>  <logBB>


>  <BBB+/BBB->
BBB-

>  <Inchi>
InChI=1S/C24H31NO6/c1-25(2)16-21(31-24(28)14-13-23(26)27)17-30-22-10-5-4-8-19(22)12-11-18-7-6-9-20(15-18)29-3/h4-10-15-21H-11-14-16-17H2-1-3H3-(H-26-27)

>  <threshold>


>  <reference>
R23|

>  <group>
C

>  <Class>
-1

>  <ABC>
23.13

>  <ABCGG>
18.42

>  <nAcid>
1

>  <nBase>
1

>  <nAromAtom>
12

>  <nAromBond>
12

>  <nAtom>
62

>  <nHeavyAtom>
31

>  <nSpiro>
0

>  <nBridgehead>
0

>  <nHetero>
7

>  <nN>
1

>  <nO>
6

>  <nF>
0

>  <BalabanJ>
1.8

>  <BertzCT>
851.47

>  <nBonds>
63

>  <nBondsO>
32

>  <nBondsS>
49

>  <nBondsD>
2

>  <nBondsT>
0

>  <nBondsA>
12

>  <nBondsM>
14

>  <nBondsKS>
55

>  <nBondsKD>
8

>  <RNCG>
0.16

>  <RPCG>
0.1

>  <FCSP3>
0.42

>  <SZ>
38.33

>  <Sm>
35.76

>  <Sv>
37.45

>  <Sse>
62.41

>  <Sp>
39.92

>  <Si>
69.98

>  <MZ>
0.62

>  <Mm>
0.58

>  <Mv>
0.6

>  <Mse>
1.01

>  <Mp>
0.64

>  <Mi>
1.13

>  <NsCH3>
3

>  <NdCH2>
0

>  <NssCH2>
6

>  <NtCH>
0

>  <NdsCH>
0

>  <NaaCH>
8

>  <NsssCH>
1

>  <NddC>
0

>  <NtsC>
0

>  <NdssC>
2

>  <NaasC>
4

>  <NaaaC>
0

>  <NssssC>
0

>  <NsNH3>
0

>  <NsNH2>
0

>  <NssNH2>
0

>  <NdNH>
0

>  <NssNH>
0

>  <NaaNH>
0

>  <NtN>
0

>  <NsssNH>
0

>  <NdsN>
0

>  <NaaN>
0

>  <NsssN>
1

>  <NddsN>
0

>  <NaasN>
0

>  <NssssN>
0

>  <NsOH>
1

>  <NdO>
2

>  <NssO>
3

>  <NaaO>
0

>  <NsF>
0

>  <NsSiH3>
0

>  <NssSiH2>
0

>  <NsssSiH>
0

>  <NssssSi>
0

>  <NsPH2>
0

>  <NssPH>
0

>  <NsssP>
0

>  <NdsssP>
0

>  <NsssssP>
0

>  <NsSH>
0

>  <NdS>
0

>  <NssS>
0

>  <NaaS>
0

>  <NdssS>
0

>  <NddssS>
0

>  <NsCl>
0

>  <NsBr>
0

>  <NsI>
0

>  <fragCpx>
94.07

>  <fMF>
0.23

>  <nHBAcc>
6

>  <nHBDon>
1

>  <Kier1>
27.25

>  <Kier2>
15.01

>  <Lipinski>
1

>  <GhoseFilter>
1

>  <FilterItLogS>
-5.12

>  <VMcGowan>
338.1

>  <LabuteASA>
183.09

>  <PEOE_VSA1>
24.22

>  <PEOE_VSA2>
9.59

>  <PEOE_VSA3>
0

>  <PEOE_VSA4>
0

>  <PEOE_VSA5>
0

>  <PEOE_VSA6>
30.33

>  <PEOE_VSA7>
56.26

>  <PEOE_VSA8>
6.54

>  <PEOE_VSA9>
19.95

>  <PEOE_VSA10>
24.21

>  <PEOE_VSA11>
0

>  <PEOE_VSA12>
0

>  <PEOE_VSA13>
0

>  <SMR_VSA1>
28.91

>  <SMR_VSA2>
0

>  <SMR_VSA3>
4.9

>  <SMR_VSA4>
0

>  <SMR_VSA5>
31.79

>  <SMR_VSA6>
34.36

>  <SMR_VSA7>
59.66

>  <SMR_VSA8>
0

>  <SMR_VSA9>
11.5

>  <SlogP_VSA1>
9.47

>  <SlogP_VSA2>
62.41

>  <SlogP_VSA3>
27.17

>  <SlogP_VSA4>
0

>  <SlogP_VSA5>
23.97

>  <SlogP_VSA6>
48.53

>  <SlogP_VSA7>
0

>  <SlogP_VSA8>
0

>  <SlogP_VSA9>
0

>  <SlogP_VSA10>
0

>  <SlogP_VSA11>
11.5

>  <EState_VSA1>
18.04

>  <EState_VSA2>
19.45

>  <EState_VSA3>
6.54

>  <EState_VSA4>
29.9

>  <EState_VSA5>
5.56

>  <EState_VSA6>
7.11

>  <EState_VSA7>
61.46

>  <EState_VSA8>
6.07

>  <EState_VSA9>
19.32

>  <EState_VSA10>
9.59

>  <VSA_EState1>
16.75

>  <VSA_EState2>
24.52

>  <VSA_EState3>
8.74

>  <VSA_EState4>
2.23

>  <VSA_EState5>
0.01

>  <VSA_EState6>
15.78

>  <VSA_EState7>
0.73

>  <VSA_EState8>
0.66

>  <VSA_EState9>
5.4

>  <apol>
66.66

>  <bpol>
39.75

>  <nRing>
2

>  <nHRing>
0

>  <naRing>
2

>  <naHRing>
0

>  <nARing 2>
0

>  <nAHRing 2>
0

>  <nFRing>
0

>  <nFHRing>
0

>  <nFaRing>
0

>  <nFaHRing>
0

>  <nFARing 2>
0

>  <nFAHRing 2>
0

>  <nRot>
13

>  <SLogP>
3.2

>  <SMR>
117.64

>  <TopoPSA(NO)>
85.3

>  <TopoPSA>
85.3

>  <JGI1>
0.22

>  <JGI2>
0.06

>  <JGI3>
0.04

>  <JGI4>
0.03

>  <JGI5>
0.02

>  <Diameter>
17

>  <Radius>
9

>  <TMWC10>
137.13

>  <TSRW10>
65.75

>  <MW>
429.22

>  <AMW>
6.92

>  <WPath>
3154

>  <WPol>
40

>  <Zagreb1>
146

>  <Zagreb2>
160

>  <mZagreb2>
7.11

>  <yes>


>  <nAR-cont>
0.336376

>  <nHA-cont>
0.702745138

>  <MWHBN>
0.337876561

>  <MWHBN-cont>
0.714821034

>  <TPSA-cont>
0.404553032

>  <pka_cont>
0.97

>  <yes.1>


>  <BBB_SCORE>
3.405458753

>  <MMFF94 Energy>
37.474

$$$$
Compound 2806
Actelion Java MolfileCreator 2.0

  0  0  0  0  0  0              0 V3000
M  V30 BEGIN CTAB
M  V30 COUNTS 44 47 0 0 0
M  V30 BEGIN ATOM
M  V30 1 S -0.405 1.7833 -0.9724 0 CFG=2
M  V30 2 O 0.8583 1.6099 -1.7701 0
M  V30 3 C -0.0234 1.0715 0.639 0
M  V30 4 C -1.6187 0.5261 -1.473 0
M  V30 5 N -0.9057 0.6441 1.5148 0
M  V30 6 N 1.2581 0.9066 1.0886 0
M  V30 7 C -2.1907 0.8317 -2.834 0
M  V30 8 C -0.1615 0.1886 2.5761 0
M  V30 9 C 1.2007 0.3416 2.3354 0
M  V30 10 N -3.2307 1.7091 -2.8285 0
M  V30 11 C -1.6943 0.2614 -4.0174 0
M  V30 12 C -0.5846 -0.3758 3.7878 0
M  V30 13 C 2.1925 -0.041 3.2429 0
M  V30 14 C -3.801 2.0195 -4.0073 0
M  V30 15 C -2.3362 0.5942 -5.2259 0
M  V30 16 C -0.5606 -0.7287 -4.0052 0
M  V30 17 C 0.3816 -0.7729 4.7227 0
M  V30 18 C 1.7477 -0.607 4.4506 0
M  V30 19 C -3.399 1.4924 -5.2179 0
M  V30 20 O -1.8556 -0.021 -6.3537 0
M  V30 21 N 2.7035 -1.019 5.4131 0
M  V30 22 C -2.4398 0.3344 -7.6003 0
M  V30 23 C 3.8796 -0.3665 5.7205 0
M  V30 24 C 2.6247 -2.145 6.2062 0
M  V30 25 C 4.5378 -1.0758 6.7018 0
M  V30 26 C 3.7437 -2.2025 7.0085 0
M  V30 27 H -1.1637 -0.4677 -1.4305 0
M  V30 28 H -2.436 0.5375 -0.7425 0
M  V30 29 H 2.085 1.1526 0.5621 0
M  V30 30 H -1.6432 -0.4961 3.9917 0
M  V30 31 H 3.2448 0.0792 3.0087 0
M  V30 32 H -4.6252 2.725 -3.9507 0
M  V30 33 H -0.9436 -1.7274 -3.7737 0
M  V30 34 H -0.0397 -0.7706 -4.9669 0
M  V30 35 H 0.2019 -0.4603 -3.2698 0
M  V30 36 H 0.0439 -1.1941 5.6673 0
M  V30 37 H -3.9264 1.7909 -6.1139 0
M  V30 38 H -3.4967 0.0505 -7.6349 0
M  V30 39 H -1.9197 -0.2244 -8.3841 0
M  V30 40 H -2.3081 1.4012 -7.8091 0
M  V30 41 H 4.1457 0.5611 5.2326 0
M  V30 42 H 1.789 -2.8266 6.124 0
M  V30 43 H 5.4856 -0.8054 7.1492 0
M  V30 44 H 3.9624 -2.9763 7.7332 0
M  V30 END ATOM
M  V30 BEGIN BOND
M  V30 1 2 1 2
M  V30 2 1 1 3
M  V30 3 1 1 4
M  V30 4 2 3 5
M  V30 5 1 3 6
M  V30 6 1 4 7
M  V30 7 1 5 8
M  V30 8 1 6 9
M  V30 9 2 7 10
M  V30 10 1 7 11
M  V30 11 1 8 12
M  V30 12 1 9 13
M  V30 13 1 10 14
M  V30 14 2 11 15
M  V30 15 1 11 16
M  V30 16 2 12 17
M  V30 17 2 13 18
M  V30 18 2 14 19
M  V30 19 1 15 20
M  V30 20 1 18 21
M  V30 21 1 20 22
M  V30 22 1 21 23
M  V30 23 1 21 24
M  V30 24 2 23 25
M  V30 25 2 24 26
M  V30 26 2 8 9
M  V30 27 1 15 19
M  V30 28 1 17 18
M  V30 29 1 25 26
M  V30 30 1 4 27
M  V30 31 1 4 28
M  V30 32 1 6 29
M  V30 33 1 12 30
M  V30 34 1 13 31
M  V30 35 1 14 32
M  V30 36 1 16 33
M  V30 37 1 16 34
M  V30 38 1 16 35
M  V30 39 1 17 36
M  V30 40 1 19 37
M  V30 41 1 22 38
M  V30 42 1 22 39
M  V30 43 1 22 40
M  V30 44 1 23 41
M  V30 45 1 24 42
M  V30 46 1 25 43
M  V30 47 1 26 44
M  V30 END BOND
M  V30 BEGIN COLLECTION
M  V30 MDLV30/STERAC1 ATOMS=(1 1)
M  V30 END COLLECTION
M  V30 END CTAB
M  END
>  <Column 1>
3547

>  <level_0>
5811

>  <index>
5812

>  <Unnamed: 0>
5812

>  <NO.>
5824

>  <Name>
ilaprazole

>  <IUPAC_name>
2-[(4-methoxy-3-methylpyridin-2-yl)methylsulfinyl]-6-pyrrol-1-yl-1h-benzimidazole

>  <SMILES>
COc1ccnc(C[S+]([O-])c2nc3ccc(-n4cccc4)cc3[nH]2)c1C

>  <CID>
214351

>  <logBB>


>  <BBB+/BBB->
BBB-

>  <Inchi>
InChI=1S/C19H18N4O2S/c1-13-17(20-8-7-18(13)25-2)12-26(24)19-21-15-6-5-14(11-16(15)22-19)23-9-3-4-10-23/h3-11H-12H2-1-2H3-(H-21-22)

>  <threshold>


>  <reference>
R23|

>  <group>
C

>  <Class>
-1

>  <ABC>
20.52

>  <ABCGG>
16.31

>  <nAcid>
0

>  <nBase>
0

>  <nAromAtom>
20

>  <nAromBond>
21

>  <nAtom>
44

>  <nHeavyAtom>
26

>  <nSpiro>
0

>  <nBridgehead>
0

>  <nHetero>
7

>  <nN>
4

>  <nO>
2

>  <nF>
0

>  <BalabanJ>
1.29

>  <BertzCT>
1043.07

>  <nBonds>
47

>  <nBondsO>
29

>  <nBondsS>
26

>  <nBondsD>
0

>  <nBondsT>
0

>  <nBondsA>
21

>  <nBondsM>
21

>  <nBondsKS>
38

>  <nBondsKD>
9

>  <RNCG>
0.26

>  <RPCG>
0.14

>  <FCSP3>
0.16

>  <SZ>
32

>  <Sm>
30.51

>  <Sv>
29.52

>  <Sse>
44.38

>  <Sp>
31.52

>  <Si>
49.24

>  <MZ>
0.73

>  <Mm>
0.69

>  <Mv>
0.67

>  <Mse>
1.01

>  <Mp>
0.72

>  <Mi>
1.12

>  <NsCH3>
2

>  <NdCH2>
0

>  <NssCH2>
1

>  <NtCH>
0

>  <NdsCH>
0

>  <NaaCH>
9

>  <NsssCH>
0

>  <NddC>
0

>  <NtsC>
0

>  <NdssC>
0

>  <NaasC>
5

>  <NaaaC>
2

>  <NssssC>
0

>  <NsNH3>
0

>  <NsNH2>
0

>  <NssNH2>
0

>  <NdNH>
0

>  <NssNH>
0

>  <NaaNH>
1

>  <NtN>
0

>  <NsssNH>
0

>  <NdsN>
0

>  <NaaN>
2

>  <NsssN>
0

>  <NddsN>
0

>  <NaasN>
1

>  <NssssN>
0

>  <NsOH>
0

>  <NdO>
0

>  <NssO>
1

>  <NaaO>
0

>  <NsF>
0

>  <NsSiH3>
0

>  <NssSiH2>
0

>  <NsssSiH>
0

>  <NssssSi>
0

>  <NsPH2>
0

>  <NssPH>
0

>  <NsssP>
0

>  <NdsssP>
0

>  <NsssssP>
0

>  <NsSH>
0

>  <NdS>
0

>  <NssS>
0

>  <NaaS>
0

>  <NdssS>
0

>  <NddssS>
0

>  <NsCl>
0

>  <NsBr>
0

>  <NsI>
0

>  <fragCpx>
191.07

>  <fMF>
0.5

>  <nHBAcc>
5

>  <nHBDon>
1

>  <Kier1>
19.32

>  <Kier2>
8.57

>  <Lipinski>
1

>  <GhoseFilter>
1

>  <FilterItLogS>
-5.63

>  <VMcGowan>
264.44

>  <LabuteASA>
153.6

>  <PEOE_VSA1>
13.86

>  <PEOE_VSA2>
9.97

>  <PEOE_VSA3>
0

>  <PEOE_VSA4>
4.98

>  <PEOE_VSA5>
0

>  <PEOE_VSA6>
0

>  <PEOE_VSA7>
43.32

>  <PEOE_VSA8>
41.02

>  <PEOE_VSA9>
23.84

>  <PEOE_VSA10>
5.75

>  <PEOE_VSA11>
5.75

>  <PEOE_VSA12>
0

>  <PEOE_VSA13>
0

>  <SMR_VSA1>
9.29

>  <SMR_VSA2>
0

>  <SMR_VSA3>
19.52

>  <SMR_VSA4>
0

>  <SMR_VSA5>
17.83

>  <SMR_VSA6>
7.11

>  <SMR_VSA7>
66.25

>  <SMR_VSA8>
0

>  <SMR_VSA9>
11.44

>  <SlogP_VSA1>
4.74

>  <SlogP_VSA2>
31.18

>  <SlogP_VSA3>
16.93

>  <SlogP_VSA4>
6.92

>  <SlogP_VSA5>
11.26

>  <SlogP_VSA6>
60.15

>  <SlogP_VSA7>
0

>  <SlogP_VSA8>
16.72

>  <SlogP_VSA9>
0

>  <SlogP_VSA10>
0

>  <SlogP_VSA11>
5.75

>  <EState_VSA1>
11.18

>  <EState_VSA2>
5.75

>  <EState_VSA3>
5.16

>  <EState_VSA4>
33.73

>  <EState_VSA5>
0

>  <EState_VSA6>
19.37

>  <EState_VSA7>
54.22

>  <EState_VSA8>
14.95

>  <EState_VSA9>
4.74

>  <EState_VSA10>
4.55

>  <VSA_EState1>
20.1

>  <VSA_EState2>
12

>  <VSA_EState3>
0.45

>  <VSA_EState4>
4.31

>  <VSA_EState5>
1.03

>  <VSA_EState6>
11.66

>  <VSA_EState7>
5.63

>  <VSA_EState8>
1.92

>  <VSA_EState9>
1.62

>  <apol>
52.64

>  <bpol>
28.91

>  <nRing>
4

>  <nHRing>
3

>  <naRing>
4

>  <naHRing>
3

>  <nARing 2>
0

>  <nAHRing 2>
0

>  <nFRing>
1

>  <nFHRing>
1

>  <nFaRing>
1

>  <nFaHRing>
1

>  <nFARing 2>
0

>  <nFAHRing 2>
0

>  <nRot>
5

>  <SLogP>
3.37

>  <SMR>
101.06

>  <TopoPSA(NO)>
78.79

>  <TopoPSA>
78.79

>  <JGI1>
0.17

>  <JGI2>
0.08

>  <JGI3>
0.04

>  <JGI4>
0.04

>  <JGI5>
0.02

>  <Diameter>
14

>  <Radius>
7

>  <TMWC10>
131.19

>  <TSRW10>
76.75

>  <MW>
366.12

>  <AMW>
8.32

>  <WPath>
1803

>  <WPol>
40

>  <Zagreb1>
140

>  <Zagreb2>
167

>  <mZagreb2>
5.72

>  <yes>


>  <nAR-cont>
0.336376

>  <nHA-cont>
0.892715677

>  <MWHBN>
0.313573623

>  <MWHBN-cont>
0.798380792

>  <TPSA-cont>
0.449996874

>  <pka_cont>
0.97

>  <yes.1>


>  <BBB_SCORE>
3.811656615

>  <MMFF94 Energy>
55.855

$$$$
Compound 2807
Actelion Java MolfileCreator 2.0

  0  0  0  0  0  0              0 V3000
M  V30 BEGIN CTAB
M  V30 COUNTS 31 32 0 0 0
M  V30 BEGIN ATOM
M  V30 1 S 0.1616 -2.2653 0.4042 0
M  V30 2 O 0.6868 -3.5328 -0.0609 0
M  V30 3 O -1.0554 -2.2088 1.1838 0
M  V30 4 N 1.4195 -1.5034 1.2293 0
M  V30 5 C -0.0773 -1.245 -1.0364 0
M  V30 6 C 1.2033 -0.142 1.5462 0
M  V30 7 C -1.1321 -0.3304 -1.075 0
M  V30 8 C 0.7752 -1.3912 -2.132 0
M  V30 9 N 1.8849 0.6748 0.7138 0
M  V30 10 C 0.3316 0.3321 2.5352 0
M  V30 11 C -1.3144 0.4593 -2.2131 0
M  V30 12 C 0.5805 -0.594 -3.2632 0
M  V30 13 C 1.6544 1.9954 0.8978 0
M  V30 14 O -0.252 -0.5696 3.3963 0
M  V30 15 N 0.1128 1.6599 2.7112 0
M  V30 16 C -0.4731 0.3237 -3.3215 0
M  V30 17 C 0.7881 2.4755 1.8687 0
M  V30 18 C -1.2968 -0.007 4.1793 0
M  V30 19 N -0.6291 1.1436 -4.4248 0
M  V30 20 H 2.2973 -1.6248 0.731 0
M  V30 21 H -1.8088 -0.2202 -0.2306 0
M  V30 22 H 1.5879 -2.1129 -2.1155 0
M  V30 23 H -2.1279 1.1803 -2.2297 0
M  V30 24 H 1.258 -0.701 -4.1066 0
M  V30 25 H 2.1867 2.6678 0.2336 0
M  V30 26 H 0.6168 3.5387 1.9979 0
M  V30 27 H -2.0749 0.4366 3.5481 0
M  V30 28 H -1.7566 -0.8167 4.7542 0
M  V30 29 H -0.9047 0.7261 4.8924 0
M  V30 30 H -0.0846 0.9753 -5.2599 0
M  V30 31 H -1.4507 1.7268 -4.5091 0
M  V30 END ATOM
M  V30 BEGIN BOND
M  V30 1 2 1 2
M  V30 2 2 1 3
M  V30 3 1 1 4
M  V30 4 1 1 5
M  V30 5 1 4 6
M  V30 6 2 5 7
M  V30 7 1 5 8
M  V30 8 2 6 9
M  V30 9 1 6 10
M  V30 10 1 7 11
M  V30 11 2 8 12
M  V30 12 1 9 13
M  V30 13 1 10 14
M  V30 14 2 10 15
M  V30 15 2 11 16
M  V30 16 2 13 17
M  V30 17 1 14 18
M  V30 18 1 16 19
M  V30 19 1 12 16
M  V30 20 1 15 17
M  V30 21 1 4 20
M  V30 22 1 7 21
M  V30 23 1 8 22
M  V30 24 1 11 23
M  V30 25 1 12 24
M  V30 26 1 13 25
M  V30 27 1 17 26
M  V30 28 1 18 27
M  V30 29 1 18 28
M  V30 30 1 18 29
M  V30 31 1 19 30
M  V30 32 1 19 31
M  V30 END BOND
M  V30 END CTAB
M  END
>  <Column 1>
3549

>  <level_0>
5813

>  <index>
5814

>  <Unnamed: 0>
5814

>  <NO.>
5826

>  <Name>
sulfalene

>  <IUPAC_name>
4-amino-n-(3-methoxypyrazin-2-yl)benzenesulfonamide

>  <SMILES>
COc1nccnc1NS(=O)(=O)c1ccc(N)cc1

>  <CID>
9047

>  <logBB>


>  <BBB+/BBB->
BBB-

>  <Inchi>
InChI=1S/C11H12N4O3S/c1-18-11-10(13-6-7-14-11)15-19(16-17)9-4-2-8(12)3-5-9/h2-7H-12H2-1H3-(H-13-15)

>  <threshold>


>  <reference>
R23|

>  <group>
C

>  <Class>
-1

>  <ABC>
14.47

>  <ABCGG>
12.48

>  <nAcid>
0

>  <nBase>
0

>  <nAromAtom>
12

>  <nAromBond>
12

>  <nAtom>
31

>  <nHeavyAtom>
19

>  <nSpiro>
0

>  <nBridgehead>
0

>  <nHetero>
8

>  <nN>
4

>  <nO>
3

>  <nF>
0

>  <BalabanJ>
1.91

>  <BertzCT>
670.59

>  <nBonds>
32

>  <nBondsO>
20

>  <nBondsS>
18

>  <nBondsD>
2

>  <nBondsT>
0

>  <nBondsA>
12

>  <nBondsM>
14

>  <nBondsKS>
24

>  <nBondsKD>
8

>  <RNCG>
0.22

>  <RPCG>
0.12

>  <FCSP3>
0.09

>  <SZ>
24.33

>  <Sm>
23.34

>  <Sv>
20.61

>  <Sse>
32.05

>  <Sp>
21.6

>  <Si>
35.2

>  <MZ>
0.78

>  <Mm>
0.75

>  <Mv>
0.66

>  <Mse>
1.03

>  <Mp>
0.7

>  <Mi>
1.14

>  <NsCH3>
1

>  <NdCH2>
0

>  <NssCH2>
0

>  <NtCH>
0

>  <NdsCH>
0

>  <NaaCH>
6

>  <NsssCH>
0

>  <NddC>
0

>  <NtsC>
0

>  <NdssC>
0

>  <NaasC>
4

>  <NaaaC>
0

>  <NssssC>
0

>  <NsNH3>
0

>  <NsNH2>
1

>  <NssNH2>
0

>  <NdNH>
0

>  <NssNH>
1

>  <NaaNH>
0

>  <NtN>
0

>  <NsssNH>
0

>  <NdsN>
0

>  <NaaN>
2

>  <NsssN>
0

>  <NddsN>
0

>  <NaasN>
0

>  <NssssN>
0

>  <NsOH>
0

>  <NdO>
2

>  <NssO>
1

>  <NaaO>
0

>  <NsF>
0

>  <NsSiH3>
0

>  <NssSiH2>
0

>  <NsssSiH>
0

>  <NssssSi>
0

>  <NsPH2>
0

>  <NssPH>
0

>  <NsssP>
0

>  <NdsssP>
0

>  <NsssssP>
0

>  <NsSH>
0

>  <NdS>
0

>  <NssS>
0

>  <NaaS>
0

>  <NdssS>
0

>  <NddssS>
1

>  <NsCl>
0

>  <NsBr>
0

>  <NsI>
0

>  <fragCpx>
58.08

>  <fMF>
0.45

>  <nHBAcc>
6

>  <nHBDon>
2

>  <Kier1>
15.39

>  <Kier2>
6.64

>  <Lipinski>
1

>  <GhoseFilter>
1

>  <FilterItLogS>
-3

>  <VMcGowan>
192.21

>  <LabuteASA>
110.06

>  <PEOE_VSA1>
10.47

>  <PEOE_VSA2>
4.72

>  <PEOE_VSA3>
18.39

>  <PEOE_VSA4>
0

>  <PEOE_VSA5>
0

>  <PEOE_VSA6>
0

>  <PEOE_VSA7>
24.27

>  <PEOE_VSA8>
18.08

>  <PEOE_VSA9>
12.01

>  <PEOE_VSA10>
0

>  <PEOE_VSA11>
0

>  <PEOE_VSA12>
5.82

>  <PEOE_VSA13>
15.9

>  <SMR_VSA1>
13.15

>  <SMR_VSA2>
0

>  <SMR_VSA3>
9.97

>  <SMR_VSA4>
0

>  <SMR_VSA5>
4.9

>  <SMR_VSA6>
17.57

>  <SMR_VSA7>
36.66

>  <SMR_VSA8>
0

>  <SMR_VSA9>
5.88

>  <SlogP_VSA1>
15.19

>  <SlogP_VSA2>
25.5

>  <SlogP_VSA3>
10.02

>  <SlogP_VSA4>
0

>  <SlogP_VSA5>
0

>  <SlogP_VSA6>
41.55

>  <SlogP_VSA7>
0

>  <SlogP_VSA8>
0

>  <SlogP_VSA9>
0

>  <SlogP_VSA10>
11.51

>  <SlogP_VSA11>
5.88

>  <EState_VSA1>
10.02

>  <EState_VSA2>
16.59

>  <EState_VSA3>
5.69

>  <EState_VSA4>
0

>  <EState_VSA5>
43.77

>  <EState_VSA6>
0

>  <EState_VSA7>
0

>  <EState_VSA8>
14.69

>  <EState_VSA9>
10.47

>  <EState_VSA10>
8.42

>  <VSA_EState1>
31.44

>  <VSA_EState2>
7.81

>  <VSA_EState3>
0

>  <VSA_EState4>
5.99

>  <VSA_EState5>
0.13

>  <VSA_EState6>
5.81

>  <VSA_EState7>
2.77

>  <VSA_EState8>
0

>  <VSA_EState9>
-2.37

>  <apol>
36.08

>  <bpol>
22.71

>  <nRing>
2

>  <nHRing>
1

>  <naRing>
2

>  <naHRing>
1

>  <nARing 2>
0

>  <nAHRing 2>
0

>  <nFRing>
0

>  <nFHRing>
0

>  <nFaRing>
0

>  <nFaHRing>
0

>  <nFARing 2>
0

>  <nFAHRing 2>
0

>  <nRot>
4

>  <SLogP>
0.87

>  <SMR>
70.25

>  <TopoPSA(NO)>
107.2

>  <TopoPSA>
115.58

>  <JGI1>
0.25

>  <JGI2>
0.1

>  <JGI3>
0.05

>  <JGI4>
0.05

>  <JGI5>
0.04

>  <Diameter>
10

>  <Radius>
5

>  <TMWC10>
110.97

>  <TSRW10>
52.26

>  <MW>
280.06

>  <AMW>
9.03

>  <WPath>
714

>  <WPol>
28

>  <Zagreb1>
96

>  <Zagreb2>
110

>  <mZagreb2>
4.24

>  <yes>


>  <nAR-cont>
0.336376

>  <nHA-cont>
0.998649058

>  <MWHBN>
0.478040228

>  <MWHBN-cont>
0

>  <TPSA-cont>
0.193179829

>  <pka_cont>
0.97

>  <yes.1>


>  <BBB_SCORE>
2.206384716

>  <MMFF94 Energy>
0.0956

$$$$
Compound 2808
Actelion Java MolfileCreator 2.0

  0  0  0  0  0  0              0 V3000
M  V30 BEGIN CTAB
M  V30 COUNTS 35 36 0 0 0
M  V30 BEGIN ATOM
M  V30 1 S -0.8042 0.9651 1.6894 0
M  V30 2 O -0.3771 2.0422 0.8197 0
M  V30 3 O -1.6505 1.2389 2.8334 0
M  V30 4 N -1.6131 -0.1994 0.7829 0
M  V30 5 C 0.6212 0.0993 2.2921 0
M  V30 6 C -1.155 -0.3272 -0.5531 0
M  V30 7 C 0.4679 -0.853 3.3011 0
M  V30 8 C 1.8876 0.4009 1.7891 0
M  V30 9 N -0.0122 -1.015 -0.683 0
M  V30 10 C -1.8253 0.3079 -1.5831 0
M  V30 11 C 1.5934 -1.5173 3.7958 0
M  V30 12 C 3.0046 -0.2709 2.2932 0
M  V30 13 C 0.4554 -1.1006 -1.9311 0
M  V30 14 O -2.9774 0.9792 -1.2897 0
M  V30 15 C -1.2496 0.1279 -2.8257 0
M  V30 16 C 2.8702 -1.225 3.3065 0
M  V30 17 N -0.1086 -0.5671 -3.0233 0
M  V30 18 C -3.0467 2.2788 -1.8761 0
M  V30 19 O -1.8947 0.6599 -3.9251 0
M  V30 20 N 3.9759 -1.9067 3.7795 0
M  V30 21 C -1.2259 0.4174 -5.1585 0
M  V30 22 H -2.6178 -0.0496 0.8666 0
M  V30 23 H -0.516 -1.084 3.7014 0
M  V30 24 H 2.0142 1.1444 1.0064 0
M  V30 25 H 1.4644 -2.2659 4.5731 0
M  V30 26 H 3.986 -0.0395 1.8879 0
M  V30 27 H 1.3769 -1.6552 -2.0737 0
M  V30 28 H -2.0653 2.7614 -1.9484 0
M  V30 29 H -3.6752 2.8996 -1.23 0
M  V30 30 H -3.5298 2.2271 -2.8559 0
M  V30 31 H 4.9044 -1.6515 3.4735 0
M  V30 32 H 3.8867 -2.5519 4.5522 0
M  V30 33 H -1.8138 0.8864 -5.9533 0
M  V30 34 H -0.2306 0.8749 -5.1669 0
M  V30 35 H -1.1697 -0.6548 -5.3749 0
M  V30 END ATOM
M  V30 BEGIN BOND
M  V30 1 2 1 2
M  V30 2 2 1 3
M  V30 3 1 1 4
M  V30 4 1 1 5
M  V30 5 1 4 6
M  V30 6 2 5 7
M  V30 7 1 5 8
M  V30 8 2 6 9
M  V30 9 1 6 10
M  V30 10 1 7 11
M  V30 11 2 8 12
M  V30 12 1 9 13
M  V30 13 1 10 14
M  V30 14 2 10 15
M  V30 15 2 11 16
M  V30 16 2 13 17
M  V30 17 1 14 18
M  V30 18 1 15 19
M  V30 19 1 16 20
M  V30 20 1 19 21
M  V30 21 1 12 16
M  V30 22 1 15 17
M  V30 23 1 4 22
M  V30 24 1 7 23
M  V30 25 1 8 24
M  V30 26 1 11 25
M  V30 27 1 12 26
M  V30 28 1 13 27
M  V30 29 1 18 28
M  V30 30 1 18 29
M  V30 31 1 18 30
M  V30 32 1 20 31
M  V30 33 1 20 32
M  V30 34 1 21 33
M  V30 35 1 21 34
M  V30 36 1 21 35
M  V30 END BOND
M  V30 END CTAB
M  END
>  <Column 1>
3550

>  <level_0>
5814

>  <index>
5815

>  <Unnamed: 0>
5815

>  <NO.>
5827

>  <Name>
sulfadoxine

>  <IUPAC_name>
4-amino-n-(5-6-dimethoxypyrimidin-4-yl)benzenesulfonamide

>  <SMILES>
COc1ncnc(NS(=O)(=O)c2ccc(N)cc2)c1OC

>  <CID>
17134

>  <logBB>


>  <BBB+/BBB->
BBB-

>  <Inchi>
InChI=1S/C12H14N4O4S/c1-19-10-11(14-7-15-12(10)20-2)16-21(17-18)9-5-3-8(13)4-6-9/h3-7H-13H2-1-2H3-(H-14-15-16)

>  <threshold>


>  <reference>
R23|

>  <group>
C

>  <Class>
-1

>  <ABC>
15.84

>  <ABCGG>
13.77

>  <nAcid>
0

>  <nBase>
0

>  <nAromAtom>
12

>  <nAromBond>
12

>  <nAtom>
35

>  <nHeavyAtom>
21

>  <nSpiro>
0

>  <nBridgehead>
0

>  <nHetero>
9

>  <nN>
4

>  <nO>
4

>  <nF>
0

>  <BalabanJ>
1.97

>  <BertzCT>
731.42

>  <nBonds>
36

>  <nBondsO>
22

>  <nBondsS>
22

>  <nBondsD>
2

>  <nBondsT>
0

>  <nBondsA>
12

>  <nBondsM>
14

>  <nBondsKS>
28

>  <nBondsKD>
8

>  <RNCG>
0.19

>  <RPCG>
0.1

>  <FCSP3>
0.17

>  <SZ>
27

>  <Sm>
25.84

>  <Sv>
22.87

>  <Sse>
36.27

>  <Sp>
23.88

>  <Si>
39.83

>  <MZ>
0.77

>  <Mm>
0.74

>  <Mv>
0.65

>  <Mse>
1.04

>  <Mp>
0.68

>  <Mi>
1.14

>  <NsCH3>
2

>  <NdCH2>
0

>  <NssCH2>
0

>  <NtCH>
0

>  <NdsCH>
0

>  <NaaCH>
5

>  <NsssCH>
0

>  <NddC>
0

>  <NtsC>
0

>  <NdssC>
0

>  <NaasC>
5

>  <NaaaC>
0

>  <NssssC>
0

>  <NsNH3>
0

>  <NsNH2>
1

>  <NssNH2>
0

>  <NdNH>
0

>  <NssNH>
1

>  <NaaNH>
0

>  <NtN>
0

>  <NsssNH>
0

>  <NdsN>
0

>  <NaaN>
2

>  <NsssN>
0

>  <NddsN>
0

>  <NaasN>
0

>  <NssssN>
0

>  <NsOH>
0

>  <NdO>
2

>  <NssO>
2

>  <NaaO>
0

>  <NsF>
0

>  <NsSiH3>
0

>  <NssSiH2>
0

>  <NsssSiH>
0

>  <NssssSi>
0

>  <NsPH2>
0

>  <NssPH>
0

>  <NsssP>
0

>  <NdsssP>
0

>  <NsssssP>
0

>  <NsSH>
0

>  <NdS>
0

>  <NssS>
0

>  <NaaS>
0

>  <NdssS>
0

>  <NddssS>
1

>  <NsCl>
0

>  <NsBr>
0

>  <NsI>
0

>  <fragCpx>
64.09

>  <fMF>
0.4

>  <nHBAcc>
7

>  <nHBDon>
2

>  <Kier1>
17.36

>  <Kier2>
7.51

>  <Lipinski>
1

>  <GhoseFilter>
1

>  <FilterItLogS>
-3.27

>  <VMcGowan>
212.17

>  <LabuteASA>
121.54

>  <PEOE_VSA1>
15.21

>  <PEOE_VSA2>
4.72

>  <PEOE_VSA3>
13.4

>  <PEOE_VSA4>
4.98

>  <PEOE_VSA5>
0

>  <PEOE_VSA6>
0

>  <PEOE_VSA7>
24.27

>  <PEOE_VSA8>
5.69

>  <PEOE_VSA9>
19.12

>  <PEOE_VSA10>
6.33

>  <PEOE_VSA11>
5.82

>  <PEOE_VSA12>
5.75

>  <PEOE_VSA13>
15.9

>  <SMR_VSA1>
17.89

>  <SMR_VSA2>
0

>  <SMR_VSA3>
9.97

>  <SMR_VSA4>
0

>  <SMR_VSA5>
4.9

>  <SMR_VSA6>
24.68

>  <SMR_VSA7>
30.59

>  <SMR_VSA8>
0

>  <SMR_VSA9>
11.63

>  <SlogP_VSA1>
19.93

>  <SlogP_VSA2>
32.61

>  <SlogP_VSA3>
10.02

>  <SlogP_VSA4>
0

>  <SlogP_VSA5>
0

>  <SlogP_VSA6>
35.49

>  <SlogP_VSA7>
0

>  <SlogP_VSA8>
0

>  <SlogP_VSA9>
0

>  <SlogP_VSA10>
11.51

>  <SlogP_VSA11>
11.63

>  <EState_VSA1>
10.02

>  <EState_VSA2>
22.34

>  <EState_VSA3>
5.69

>  <EState_VSA4>
0

>  <EState_VSA5>
44.81

>  <EState_VSA6>
0

>  <EState_VSA7>
0

>  <EState_VSA8>
14.69

>  <EState_VSA9>
15.21

>  <EState_VSA10>
8.42

>  <VSA_EState1>
36.92

>  <VSA_EState2>
7.74

>  <VSA_EState3>
0

>  <VSA_EState4>
6

>  <VSA_EState5>
0.21

>  <VSA_EState6>
5.77

>  <VSA_EState7>
1.17

>  <VSA_EState8>
0

>  <VSA_EState9>
-1.06

>  <apol>
39.88

>  <bpol>
26.45

>  <nRing>
2

>  <nHRing>
1

>  <naRing>
2

>  <naHRing>
1

>  <nARing 2>
0

>  <nAHRing 2>
0

>  <nFRing>
0

>  <nFHRing>
0

>  <nFaRing>
0

>  <nFaHRing>
0

>  <nFARing 2>
0

>  <nFAHRing 2>
0

>  <nRot>
5

>  <SLogP>
0.88

>  <SMR>
76.8

>  <TopoPSA(NO)>
116.43

>  <TopoPSA>
124.81

>  <JGI1>
0.25

>  <JGI2>
0.11

>  <JGI3>
0.05

>  <JGI4>
0.05

>  <JGI5>
0.04

>  <Diameter>
11

>  <Radius>
6

>  <TMWC10>
116.24

>  <TSRW10>
54.84

>  <MW>
310.07

>  <AMW>
8.86

>  <WPath>
930

>  <WPol>
33

>  <Zagreb1>
106

>  <Zagreb2>
123

>  <mZagreb2>
4.76

>  <yes>


>  <nAR-cont>
0.336376

>  <nHA-cont>
0.994529749

>  <MWHBN>
0.511107948

>  <MWHBN-cont>
0

>  <TPSA-cont>
0

>  <pka_cont>
0.97

>  <yes.1>


>  <BBB_SCORE>
1.815905749

>  <MMFF94 Energy>
-62.051

$$$$
Compound 2809
Actelion Java MolfileCreator 2.0

  0  0  0  0  0  0              0 V3000
M  V30 BEGIN CTAB
M  V30 COUNTS 40 42 0 0 0
M  V30 BEGIN ATOM
M  V30 1 S 1.8726 1.4653 -2.8507 0
M  V30 2 O 1.3378 1.5758 -4.1901 0
M  V30 3 O 1.3915 2.2947 -1.7683 0
M  V30 4 N 1.7414 -0.1775 -2.4366 0
M  V30 5 C 3.6395 1.6344 -2.959 0
M  V30 6 C 1.2516 -0.453 -1.1168 0
M  V30 7 C -0.108 -0.7394 -0.9176 0
M  V30 8 C 2.1125 -0.3467 -0.024 0
M  V30 9 O -0.9106 -0.8598 -2.0323 0
M  V30 10 C -0.5975 -0.9738 0.37 0
M  V30 11 C 1.6192 -0.5598 1.2635 0
M  V30 12 C -2.1014 -0.1698 -2.0171 0
M  V30 13 C 0.2743 -0.8742 1.4576 0
M  V30 14 O 2.5128 -0.4485 2.2993 0
M  V30 15 C -3.2456 -0.8694 -2.4012 0
M  V30 16 C -2.1783 1.1893 -1.7041 0
M  V30 17 C -0.2079 -1.1047 2.8285 0
M  V30 18 C 2.0455 -0.6535 3.5779 0
M  V30 19 C -4.4789 -0.2182 -2.435 0
M  V30 20 C -3.4134 1.8377 -1.7402 0
M  V30 21 O -1.373 -1.4028 3.0733 0
M  V30 22 C 0.7911 -0.9642 3.9251 0
M  V30 23 C -4.5627 1.1337 -2.1009 0
M  V30 24 N 0.3131 -1.1734 5.1999 0
M  V30 25 C 1.0056 -1.1151 6.3822 0
M  V30 26 O 2.1918 -0.8688 6.5433 0
M  V30 27 H 1.1766 -0.6264 -3.1663 0
M  V30 28 H 4.0769 1.4541 -1.9759 0
M  V30 29 H 4.02 0.9246 -3.6954 0
M  V30 30 H 3.8599 2.6549 -3.28 0
M  V30 31 H 3.1607 -0.1039 -0.1656 0
M  V30 32 H -1.6425 -1.2296 0.5281 0
M  V30 33 H -3.1793 -1.9199 -2.6689 0
M  V30 34 H -1.2882 1.7555 -1.4435 0
M  V30 35 H 2.8611 -0.5238 4.2781 0
M  V30 36 H -5.3734 -0.7623 -2.7263 0
M  V30 37 H -3.4767 2.8949 -1.4954 0
M  V30 38 H -5.523 1.6424 -2.1309 0
M  V30 39 H -0.6799 -1.398 5.2436 0
M  V30 40 H 0.3425 -1.3287 7.2381 0
M  V30 END ATOM
M  V30 BEGIN BOND
M  V30 1 2 1 2
M  V30 2 2 1 3
M  V30 3 1 1 4
M  V30 4 1 1 5
M  V30 5 1 4 6
M  V30 6 2 6 7
M  V30 7 1 6 8
M  V30 8 1 7 9
M  V30 9 1 7 10
M  V30 10 2 8 11
M  V30 11 1 9 12
M  V30 12 2 10 13
M  V30 13 1 11 14
M  V30 14 2 12 15
M  V30 15 1 12 16
M  V30 16 1 13 17
M  V30 17 1 14 18
M  V30 18 1 15 19
M  V30 19 2 16 20
M  V30 20 2 17 21
M  V30 21 1 17 22
M  V30 22 2 19 23
M  V30 23 1 22 24
M  V30 24 1 24 25
M  V30 25 2 25 26
M  V30 26 1 11 13
M  V30 27 2 18 22
M  V30 28 1 20 23
M  V30 29 1 4 27
M  V30 30 1 5 28
M  V30 31 1 5 29
M  V30 32 1 5 30
M  V30 33 1 8 31
M  V30 34 1 10 32
M  V30 35 1 15 33
M  V30 36 1 16 34
M  V30 37 1 18 35
M  V30 38 1 19 36
M  V30 39 1 20 37
M  V30 40 1 23 38
M  V30 41 1 24 39
M  V30 42 1 25 40
M  V30 END BOND
M  V30 END CTAB
M  END
>  <Column 1>
3552

>  <level_0>
5816

>  <index>
5817

>  <Unnamed: 0>
5817

>  <NO.>
5829

>  <Name>
iguratimod

>  <IUPAC_name>
n-[7-(methanesulfonamido)-4-oxo-6-phenoxychromen-3-yl]formamide

>  <SMILES>
CS(=O)(=O)Nc1cc2occ(NC=O)c(=O)c2cc1Oc1ccccc1

>  <CID>
124246

>  <logBB>


>  <BBB+/BBB->
BBB-

>  <Inchi>
InChI=1S/C17H14N2O6S/c1-26(22-23)19-13-8-15-12(17(21)14(9-24-15)18-10-20)7-16(13)25-11-5-3-2-4-6-11/h2-10-19H-1H3-(H-18-20)

>  <threshold>


>  <reference>
R23|

>  <group>
C

>  <Class>
-1

>  <ABC>
20.22

>  <ABCGG>
16.04

>  <nAcid>
0

>  <nBase>
0

>  <nAromAtom>
16

>  <nAromBond>
17

>  <nAtom>
40

>  <nHeavyAtom>
26

>  <nSpiro>
0

>  <nBridgehead>
0

>  <nHetero>
9

>  <nN>
2

>  <nO>
6

>  <nF>
0

>  <BalabanJ>
1.69

>  <BertzCT>
1123.19

>  <nBonds>
42

>  <nBondsO>
28

>  <nBondsS>
21

>  <nBondsD>
4

>  <nBondsT>
0

>  <nBondsA>
17

>  <nBondsM>
21

>  <nBondsKS>
31

>  <nBondsKD>
11

>  <RNCG>
0.17

>  <RPCG>
0.08

>  <FCSP3>
0.06

>  <SZ>
32.33

>  <Sm>
31.17

>  <Sv>
27.78

>  <Sse>
41.6

>  <Sp>
28.53

>  <Si>
44.66

>  <MZ>
0.81

>  <Mm>
0.78

>  <Mv>
0.69

>  <Mse>
1.04

>  <Mp>
0.71

>  <Mi>
1.12

>  <NsCH3>
1

>  <NdCH2>
0

>  <NssCH2>
0

>  <NtCH>
0

>  <NdsCH>
1

>  <NaaCH>
8

>  <NsssCH>
0

>  <NddC>
0

>  <NtsC>
0

>  <NdssC>
0

>  <NaasC>
4

>  <NaaaC>
2

>  <NssssC>
0

>  <NsNH3>
0

>  <NsNH2>
0

>  <NssNH2>
0

>  <NdNH>
0

>  <NssNH>
2

>  <NaaNH>
0

>  <NtN>
0

>  <NsssNH>
0

>  <NdsN>
0

>  <NaaN>
0

>  <NsssN>
0

>  <NddsN>
0

>  <NaasN>
0

>  <NssssN>
0

>  <NsOH>
0

>  <NdO>
4

>  <NssO>
1

>  <NaaO>
1

>  <NsF>
0

>  <NsSiH3>
0

>  <NssSiH2>
0

>  <NsssSiH>
0

>  <NssssSi>
0

>  <NsPH2>
0

>  <NssPH>
0

>  <NsssP>
0

>  <NdsssP>
0

>  <NsssssP>
0

>  <NsSH>
0

>  <NdS>
0

>  <NssS>
0

>  <NaaS>
0

>  <NdssS>
0

>  <NddssS>
1

>  <NsCl>
0

>  <NsBr>
0

>  <NsI>
0

>  <fragCpx>
134.09

>  <fMF>
0.43

>  <nHBAcc>
6

>  <nHBDon>
2

>  <Kier1>
20.73

>  <Kier2>
9

>  <Lipinski>
1

>  <GhoseFilter>
1

>  <FilterItLogS>
-4.97

>  <VMcGowan>
250.64

>  <LabuteASA>
148

>  <PEOE_VSA1>
14.47

>  <PEOE_VSA2>
14.31

>  <PEOE_VSA3>
8.42

>  <PEOE_VSA4>
0

>  <PEOE_VSA5>
0

>  <PEOE_VSA6>
18.2

>  <PEOE_VSA7>
18.2

>  <PEOE_VSA8>
6.07

>  <PEOE_VSA9>
17.33

>  <PEOE_VSA10>
23.28

>  <PEOE_VSA11>
5.75

>  <PEOE_VSA12>
21.86

>  <PEOE_VSA13>
0

>  <SMR_VSA1>
22.37

>  <SMR_VSA2>
0

>  <SMR_VSA3>
0

>  <SMR_VSA4>
0

>  <SMR_VSA5>
0

>  <SMR_VSA6>
16.29

>  <SMR_VSA7>
58.95

>  <SMR_VSA8>
0

>  <SMR_VSA9>
11.5

>  <SlogP_VSA1>
20.2

>  <SlogP_VSA2>
21.08

>  <SlogP_VSA3>
14.82

>  <SlogP_VSA4>
0

>  <SlogP_VSA5>
0

>  <SlogP_VSA6>
57.94

>  <SlogP_VSA7>
0

>  <SlogP_VSA8>
10.97

>  <SlogP_VSA9>
0

>  <SlogP_VSA10>
11.37

>  <SlogP_VSA11>
11.5

>  <EState_VSA1>
15.45

>  <EState_VSA2>
28.09

>  <EState_VSA3>
12.16

>  <EState_VSA4>
12.52

>  <EState_VSA5>
12.13

>  <EState_VSA6>
30.33

>  <EState_VSA7>
0

>  <EState_VSA8>
10.04

>  <EState_VSA9>
9.15

>  <EState_VSA10>
18.01

>  <VSA_EState1>
36.66

>  <VSA_EState2>
23.03

>  <VSA_EState3>
2.38

>  <VSA_EState4>
-0.27

>  <VSA_EState5>
0.57

>  <VSA_EState6>
11.37

>  <VSA_EState7>
2.44

>  <VSA_EState8>
0

>  <VSA_EState9>
-3.6

>  <apol>
47.64

>  <bpol>
27.05

>  <nRing>
3

>  <nHRing>
1

>  <naRing>
3

>  <naHRing>
1

>  <nARing 2>
0

>  <nAHRing 2>
0

>  <nFRing>
1

>  <nFHRing>
1

>  <nFaRing>
1

>  <nFaHRing>
1

>  <nFARing 2>
0

>  <nFAHRing 2>
0

>  <nRot>
6

>  <SLogP>
2.53

>  <SMR>
97.15

>  <TopoPSA(NO)>
114.71

>  <TopoPSA>
123.09

>  <JGI1>
0.23

>  <JGI2>
0.07

>  <JGI3>
0.05

>  <JGI4>
0.05

>  <JGI5>
0.02

>  <Diameter>
12

>  <Radius>
6

>  <TMWC10>
129.75

>  <TSRW10>
61.05

>  <MW>
374.06

>  <AMW>
9.35

>  <WPath>
1638

>  <WPol>
40

>  <Zagreb1>
136

>  <Zagreb2>
157

>  <mZagreb2>
5.65

>  <yes>


>  <nAR-cont>
0.336376

>  <nHA-cont>
0.892715677

>  <MWHBN>
0.413636974

>  <MWHBN-cont>
0.422632101

>  <TPSA-cont>
0

>  <pka_cont>
0.97

>  <yes.1>


>  <BBB_SCORE>
2.348039829

>  <MMFF94 Energy>
3.5212

$$$$
Compound 2810
Actelion Java MolfileCreator 2.0

  0  0  0  0  0  0              0 V3000
M  V30 BEGIN CTAB
M  V30 COUNTS 49 50 0 0 0
M  V30 BEGIN ATOM
M  V30 1 O -3.0097 -0.7121 -1.9 0
M  V30 2 C -3.3956 0.1706 -1.1462 0
M  V30 3 O -3.9706 -0.1352 0.0361 0
M  V30 4 C -3.2611 1.6845 -1.3401 0 CFG=1
M  V30 5 N -1.9243 2.0699 -1.8104 0
M  V30 6 C -4.1988 2.1569 -2.4508 0
M  V30 7 C -0.765 2.2306 -1.0719 0
M  V30 8 C -1.9562 2.4672 -3.208 0
M  V30 9 C -3.3343 2.0596 -3.7043 0
M  V30 10 O 0.243 2.7227 -1.5852 0
M  V30 11 C -0.7821 1.7722 0.4073 0 CFG=1
M  V30 12 N 0.415 0.9824 0.8007 0
M  V30 13 C -0.857 3.0135 1.294 0
M  V30 14 C 0.779 -0.113 -0.135 0 CFG=2
M  V30 15 C -0.3935 -1.0599 -0.4 0
M  V30 16 C 2.002 -0.9075 0.3525 0
M  V30 17 O -1.2618 -1.3848 0.3993 0
M  V30 18 O -0.4449 -1.4538 -1.6887 0
M  V30 19 C 1.8345 -1.5895 1.7157 0
M  V30 20 C 3.048 -2.4142 2.0722 0
M  V30 21 C 3.0841 -3.786 1.7894 0
M  V30 22 C 4.1653 -1.812 2.6661 0
M  V30 23 C 4.2134 -4.543 2.1054 0
M  V30 24 C 5.2936 -2.5706 2.981 0
M  V30 25 C 5.317 -3.9357 2.7018 0
M  V30 26 H -3.8053 -1.0966 0.1584 0
M  V30 27 H -3.473 2.1924 -0.3933 0
M  V30 28 H -5.1175 1.5683 -2.5338 0
M  V30 29 H -4.4759 3.2049 -2.2821 0
M  V30 30 H -1.1446 1.9888 -3.7647 0
M  V30 31 H -1.8223 3.5541 -3.2544 0
M  V30 32 H -3.6923 2.696 -4.5183 0
M  V30 33 H -3.3142 1.0251 -4.0665 0
M  V30 34 H -1.6648 1.1671 0.6128 0
M  V30 35 H 0.2318 0.5869 1.7225 0
M  V30 36 H -1.7375 3.616 1.0444 0
M  V30 37 H 0.0235 3.6534 1.1647 0
M  V30 38 H -0.9271 2.7398 2.3525 0
M  V30 39 H 1.0624 0.3405 -1.0919 0
M  V30 40 H 2.8683 -0.2331 0.3898 0
M  V30 41 H 2.2449 -1.6702 -0.4 0
M  V30 42 H -1.3808 -1.7236 -1.8473 0
M  V30 43 H 1.673 -0.8477 2.5068 0
M  V30 44 H 0.9498 -2.2366 1.7207 0
M  V30 45 H 2.2326 -4.2734 1.3201 0
M  V30 46 H 4.163 -0.7461 2.8841 0
M  V30 47 H 4.2326 -5.6068 1.884 0
M  V30 48 H 6.1553 -2.0951 3.4419 0
M  V30 49 H 6.1963 -4.5254 2.9461 0
M  V30 END ATOM
M  V30 BEGIN BOND
M  V30 1 2 1 2
M  V30 2 1 2 3
M  V30 3 1 2 4
M  V30 4 1 4 5
M  V30 5 1 4 6
M  V30 6 1 5 7
M  V30 7 1 5 8
M  V30 8 1 6 9
M  V30 9 2 7 10
M  V30 10 1 7 11
M  V30 11 1 11 12
M  V30 12 1 11 13
M  V30 13 1 12 14
M  V30 14 1 14 15
M  V30 15 1 14 16
M  V30 16 2 15 17
M  V30 17 1 15 18
M  V30 18 1 16 19
M  V30 19 1 19 20
M  V30 20 2 20 21
M  V30 21 1 20 22
M  V30 22 1 21 23
M  V30 23 2 22 24
M  V30 24 2 23 25
M  V30 25 1 8 9
M  V30 26 1 24 25
M  V30 27 1 3 26
M  V30 28 1 4 27
M  V30 29 1 6 28
M  V30 30 1 6 29
M  V30 31 1 8 30
M  V30 32 1 8 31
M  V30 33 1 9 32
M  V30 34 1 9 33
M  V30 35 1 11 34
M  V30 36 1 12 35
M  V30 37 1 13 36
M  V30 38 1 13 37
M  V30 39 1 13 38
M  V30 40 1 14 39
M  V30 41 1 16 40
M  V30 42 1 16 41
M  V30 43 1 18 42
M  V30 44 1 19 43
M  V30 45 1 19 44
M  V30 46 1 21 45
M  V30 47 1 22 46
M  V30 48 1 23 47
M  V30 49 1 24 48
M  V30 50 1 25 49
M  V30 END BOND
M  V30 BEGIN COLLECTION
M  V30 MDLV30/STEABS ATOMS=(3 4 11 14)
M  V30 END COLLECTION
M  V30 END CTAB
M  END
>  <Column 1>
3555

>  <level_0>
5819

>  <index>
5820

>  <Unnamed: 0>
5820

>  <NO.>
5832

>  <Name>
enalaprilat

>  <IUPAC_name>
(2s)-1-[(2s)-2-[[(1s)-1-carboxy-3-phenylpropyl]amino]propanoyl]pyrrolidine-2-carboxylic acid

>  <SMILES>
C[C@H](N[C@@H](CCc1ccccc1)C(=O)O)C(=O)N1CCC[C@H]1C(=O)O

>  <CID>
5462501

>  <logBB>


>  <BBB+/BBB->
BBB-

>  <Inchi>
InChI=1S/C18H24N2O5/c1-12(16(21)20-11-5-8-15(20)18(24)25)19-14(17(22)23)10-9-13-6-3-2-4-7-13/h2-4-6-7-12-14-15-19H-5-8-11H2-1H3-(H-22-23)(H-24-25)/t12--14--15-/m0/s1

>  <threshold>


>  <reference>
R23|

>  <group>
C

>  <Class>
-1

>  <ABC>
18.84

>  <ABCGG>
16.76

>  <nAcid>
2

>  <nBase>
1

>  <nAromAtom>
6

>  <nAromBond>
6

>  <nAtom>
49

>  <nHeavyAtom>
25

>  <nSpiro>
0

>  <nBridgehead>
0

>  <nHetero>
7

>  <nN>
2

>  <nO>
5

>  <nF>
0

>  <BalabanJ>
1.84

>  <BertzCT>
619.15

>  <nBonds>
50

>  <nBondsO>
26

>  <nBondsS>
41

>  <nBondsD>
3

>  <nBondsT>
0

>  <nBondsA>
6

>  <nBondsM>
9

>  <nBondsKS>
44

>  <nBondsKD>
6

>  <RNCG>
0.17

>  <RPCG>
0.11

>  <FCSP3>
0.5

>  <SZ>
31

>  <Sm>
29.01

>  <Sv>
29.59

>  <Sse>
49.63

>  <Sp>
31.3

>  <Si>
55.61

>  <MZ>
0.63

>  <Mm>
0.59

>  <Mv>
0.6

>  <Mse>
1.01

>  <Mp>
0.64

>  <Mi>
1.13

>  <NsCH3>
1

>  <NdCH2>
0

>  <NssCH2>
5

>  <NtCH>
0

>  <NdsCH>
0

>  <NaaCH>
5

>  <NsssCH>
3

>  <NddC>
0

>  <NtsC>
0

>  <NdssC>
3

>  <NaasC>
1

>  <NaaaC>
0

>  <NssssC>
0

>  <NsNH3>
0

>  <NsNH2>
0

>  <NssNH2>
0

>  <NdNH>
0

>  <NssNH>
1

>  <NaaNH>
0

>  <NtN>
0

>  <NsssNH>
0

>  <NdsN>
0

>  <NaaN>
0

>  <NsssN>
1

>  <NddsN>
0

>  <NaasN>
0

>  <NssssN>
0

>  <NsOH>
2

>  <NdO>
3

>  <NssO>
0

>  <NaaO>
0

>  <NsF>
0

>  <NsSiH3>
0

>  <NssSiH2>
0

>  <NsssSiH>
0

>  <NssssSi>
0

>  <NsPH2>
0

>  <NssPH>
0

>  <NsssP>
0

>  <NdsssP>
0

>  <NsssssP>
0

>  <NsSH>
0

>  <NdS>
0

>  <NssS>
0

>  <NaaS>
0

>  <NdssS>
0

>  <NddssS>
0

>  <NsCl>
0

>  <NsBr>
0

>  <NsI>
0

>  <fragCpx>
76.07

>  <fMF>
0.35

>  <nHBAcc>
4

>  <nHBDon>
3

>  <Kier1>
21.3

>  <Kier2>
10.36

>  <Lipinski>
1

>  <GhoseFilter>
1

>  <FilterItLogS>
-1.86

>  <VMcGowan>
266.27

>  <LabuteASA>
146.19

>  <PEOE_VSA1>
15.11

>  <PEOE_VSA2>
14.91

>  <PEOE_VSA3>
4.79

>  <PEOE_VSA4>
0

>  <PEOE_VSA5>
0

>  <PEOE_VSA6>
30.33

>  <PEOE_VSA7>
38.17

>  <PEOE_VSA8>
6.54

>  <PEOE_VSA9>
6.04

>  <PEOE_VSA10>
12.08

>  <PEOE_VSA11>
0

>  <PEOE_VSA12>
5.91

>  <PEOE_VSA13>
0

>  <SMR_VSA1>
24.6

>  <SMR_VSA2>
0

>  <SMR_VSA3>
10.22

>  <SMR_VSA4>
0

>  <SMR_VSA5>
50.73

>  <SMR_VSA6>
6.54

>  <SMR_VSA7>
35.9

>  <SMR_VSA8>
0

>  <SMR_VSA9>
0

>  <SlogP_VSA1>
5.32

>  <SlogP_VSA2>
57.63

>  <SlogP_VSA3>
20.8

>  <SlogP_VSA4>
0

>  <SlogP_VSA5>
31.75

>  <SlogP_VSA6>
30.33

>  <SlogP_VSA7>
0

>  <SlogP_VSA8>
0

>  <SlogP_VSA9>
0

>  <SlogP_VSA10>
0

>  <SlogP_VSA11>
0

>  <EState_VSA1>
30.06

>  <EState_VSA2>
5.91

>  <EState_VSA3>
32.23

>  <EState_VSA4>
5.56

>  <EState_VSA5>
4.9

>  <EState_VSA6>
6.92

>  <EState_VSA7>
30.33

>  <EState_VSA8>
5.32

>  <EState_VSA9>
0

>  <EState_VSA10>
24.6

>  <VSA_EState1>
0

>  <VSA_EState2>
36.54

>  <VSA_EState3>
21.43

>  <VSA_EState4>
1.03

>  <VSA_EState5>
-2.4

>  <VSA_EState6>
7.09

>  <VSA_EState7>
2

>  <VSA_EState8>
1.97

>  <VSA_EState9>
0

>  <apol>
52.27

>  <bpol>
28.96

>  <nRing>
2

>  <nHRing>
1

>  <naRing>
1

>  <naHRing>
0

>  <nARing 2>
1

>  <nAHRing 2>
1

>  <nFRing>
0

>  <nFHRing>
0

>  <nFaRing>
0

>  <nFaHRing>
0

>  <nFARing 2>
0

>  <nFAHRing 2>
0

>  <nRot>
8

>  <SLogP>
1.13

>  <SMR>
91.16

>  <TopoPSA(NO)>
106.94

>  <TopoPSA>
106.94

>  <JGI1>
0.19

>  <JGI2>
0.09

>  <JGI3>
0.04

>  <JGI4>
0.04

>  <JGI5>
0.03

>  <Diameter>
13

>  <Radius>
7

>  <TMWC10>
124.63

>  <TSRW10>
72.71

>  <MW>
348.17

>  <AMW>
7.11

>  <WPath>
1634

>  <WPol>
35

>  <Zagreb1>
122

>  <Zagreb2>
139

>  <mZagreb2>
5.64

>  <yes>


>  <nAR-cont>
0.816016

>  <nHA-cont>
0.921834225

>  <MWHBN>
0.375147767

>  <MWHBN-cont>
0.57380703

>  <TPSA-cont>
0.253492394

>  <pka_cont>
0.97

>  <yes.1>


>  <BBB_SCORE>
3.590545558

>  <MMFF94 Energy>
81.599

$$$$
Compound 2811
Actelion Java MolfileCreator 2.0

  0  0  0  0  0  0              0 V3000
M  V30 BEGIN CTAB
M  V30 COUNTS 40 43 0 0 0
M  V30 BEGIN ATOM
M  V30 1 O 3.7137 -2.5823 -1.6941 0
M  V30 2 C 3.2855 -1.8227 -0.8351 0
M  V30 3 C 1.9929 -1.0359 -0.9464 0 CFG=2
M  V30 4 C 4.0049 -1.5331 0.471 0
M  V30 5 C 1.7172 -0.8446 0.5602 0 CFG=1
M  V30 6 C 0.8018 -1.7735 -1.5604 0
M  V30 7 C 2.3128 0.2538 -1.7258 0
M  V30 8 C 3.0872 -0.5053 1.1467 0
M  V30 9 C 0.506 0.0254 0.7511 0
M  V30 10 C -0.5138 -1.0012 -1.3298 0
M  V30 11 C 0.514 1.223 1.3564 0
M  V30 12 C -0.7564 -0.5984 0.1529 0 CFG=2
M  V30 13 C -0.6981 2.0895 1.5011 0
M  V30 14 C -2.012 0.2511 0.3128 0
M  V30 15 C -1.9752 1.511 0.9423 0
M  V30 16 C -3.2506 -0.243 -0.1389 0
M  V30 17 C -3.1592 2.2606 1.0735 0
M  V30 18 C -4.4186 0.5072 -0.0015 0
M  V30 19 C -4.3642 1.7545 0.5989 0
M  V30 20 O -5.5268 2.4571 0.7137 0
M  V30 21 H 4.0613 -2.4558 1.0557 0
M  V30 22 H 5.0014 -1.1254 0.2887 0
M  V30 23 H 1.4506 -1.8196 1.0043 0
M  V30 24 H 0.7121 -2.7758 -1.1213 0
M  V30 25 H 0.9541 -1.9284 -2.6354 0
M  V30 26 H 1.5073 0.9917 -1.6666 0
M  V30 27 H 3.229 0.7391 -1.3718 0
M  V30 28 H 2.4752 0.0263 -2.7861 0
M  V30 29 H 3.1105 -0.6043 2.2368 0
M  V30 30 H 3.4029 0.514 0.899 0
M  V30 31 H -1.337 -1.6287 -1.6921 0
M  V30 32 H -0.5224 -0.1032 -1.9616 0
M  V30 33 H 1.4333 1.6316 1.766 0
M  V30 34 H -0.9429 -1.52 0.7246 0
M  V30 35 H -0.498 3.0446 1.0004 0
M  V30 36 H -0.8449 2.2926 2.569 0
M  V30 37 H -3.3192 -1.2256 -0.5996 0
M  V30 38 H -3.1238 3.234 1.5545 0
M  V30 39 H -5.3665 0.1161 -0.3595 0
M  V30 40 H -5.3348 3.3049 1.1462 0
M  V30 END ATOM
M  V30 BEGIN BOND
M  V30 1 2 1 2
M  V30 2 1 2 3
M  V30 3 1 2 4
M  V30 4 1 3 5
M  V30 5 1 3 6
M  V30 6 1 3 7
M  V30 7 1 4 8
M  V30 8 1 5 9
M  V30 9 1 6 10
M  V30 10 2 9 11
M  V30 11 1 9 12
M  V30 12 1 11 13
M  V30 13 1 12 14
M  V30 14 1 13 15
M  V30 15 1 14 16
M  V30 16 1 15 17
M  V30 17 2 16 18
M  V30 18 2 17 19
M  V30 19 1 19 20
M  V30 20 1 5 8
M  V30 21 1 10 12
M  V30 22 2 14 15
M  V30 23 1 18 19
M  V30 24 1 4 21
M  V30 25 1 4 22
M  V30 26 1 5 23
M  V30 27 1 6 24
M  V30 28 1 6 25
M  V30 29 1 7 26
M  V30 30 1 7 27
M  V30 31 1 7 28
M  V30 32 1 8 29
M  V30 33 1 8 30
M  V30 34 1 10 31
M  V30 35 1 10 32
M  V30 36 1 11 33
M  V30 37 1 12 34
M  V30 38 1 13 35
M  V30 39 1 13 36
M  V30 40 1 16 37
M  V30 41 1 17 38
M  V30 42 1 18 39
M  V30 43 1 20 40
M  V30 END BOND
M  V30 BEGIN COLLECTION
M  V30 MDLV30/STEABS ATOMS=(3 3 5 12)
M  V30 END COLLECTION
M  V30 END CTAB
M  END
>  <Column 1>
3557

>  <level_0>
5821

>  <index>
5822

>  <Unnamed: 0>
5822

>  <NO.>
5834

>  <Name>
equilin

>  <IUPAC_name>
(9s-13s-14s)-3-hydroxy-13-methyl-9-11-12-14-15-16-hexahydro-6h-cyclopenta[a]phenanthren-17-one

>  <SMILES>
C[C@]12CC[C@H]3C(=CCc4cc(O)ccc43)[C@@H]1CCC2=O

>  <CID>
223368

>  <logBB>


>  <BBB+/BBB->
BBB-

>  <Inchi>
InChI=1S/C18H20O2/c1-18-9-8-14-13-5-3-12(19)10-11(13)2-4-15(14)16(18)6-7-17(18)20/h3-5-10-14-16-19H-2-6-9H2-1H3/t14--16+-18+/m1/s1

>  <threshold>


>  <reference>
R23|

>  <group>
C

>  <Class>
-1

>  <ABC>
16.36

>  <ABCGG>
12.98

>  <nAcid>
0

>  <nBase>
0

>  <nAromAtom>
6

>  <nAromBond>
6

>  <nAtom>
40

>  <nHeavyAtom>
20

>  <nSpiro>
0

>  <nBridgehead>
0

>  <nHetero>
2

>  <nN>
0

>  <nO>
2

>  <nF>
0

>  <BalabanJ>
1.57

>  <BertzCT>
628.31

>  <nBonds>
43

>  <nBondsO>
23

>  <nBondsS>
35

>  <nBondsD>
2

>  <nBondsT>
0

>  <nBondsA>
6

>  <nBondsM>
8

>  <nBondsKS>
38

>  <nBondsKD>
5

>  <RNCG>
0.39

>  <RPCG>
0.23

>  <FCSP3>
0.5

>  <SZ>
24

>  <Sm>
22.34

>  <Sv>
24.85

>  <Sse>
39.54

>  <Sp>
26.95

>  <Si>
44.57

>  <MZ>
0.6

>  <Mm>
0.56

>  <Mv>
0.62

>  <Mse>
0.99

>  <Mp>
0.67

>  <Mi>
1.11

>  <NsCH3>
1

>  <NdCH2>
0

>  <NssCH2>
5

>  <NtCH>
0

>  <NdsCH>
1

>  <NaaCH>
3

>  <NsssCH>
2

>  <NddC>
0

>  <NtsC>
0

>  <NdssC>
2

>  <NaasC>
3

>  <NaaaC>
0

>  <NssssC>
1

>  <NsNH3>
0

>  <NsNH2>
0

>  <NssNH2>
0

>  <NdNH>
0

>  <NssNH>
0

>  <NaaNH>
0

>  <NtN>
0

>  <NsssNH>
0

>  <NdsN>
0

>  <NaaN>
0

>  <NsssN>
0

>  <NddsN>
0

>  <NaasN>
0

>  <NssssN>
0

>  <NsOH>
1

>  <NdO>
1

>  <NssO>
0

>  <NaaO>
0

>  <NsF>
0

>  <NsSiH3>
0

>  <NssSiH2>
0

>  <NsssSiH>
0

>  <NssssSi>
0

>  <NsPH2>
0

>  <NssPH>
0

>  <NsssP>
0

>  <NdsssP>
0

>  <NsssssP>
0

>  <NsSH>
0

>  <NdS>
0

>  <NssS>
0

>  <NaaS>
0

>  <NdssS>
0

>  <NddssS>
0

>  <NsCl>
0

>  <NsBr>
0

>  <NsI>
0

>  <fragCpx>
149.02

>  <fMF>
0.43

>  <nHBAcc>
2

>  <nHBDon>
1

>  <Kier1>
13.65

>  <Kier2>
4.75

>  <Lipinski>
1

>  <GhoseFilter>
1

>  <FilterItLogS>
-3.97

>  <VMcGowan>
211.28

>  <LabuteASA>
119.06

>  <PEOE_VSA1>
5.11

>  <PEOE_VSA2>
4.79

>  <PEOE_VSA3>
0

>  <PEOE_VSA4>
0

>  <PEOE_VSA5>
0

>  <PEOE_VSA6>
24.64

>  <PEOE_VSA7>
54.86

>  <PEOE_VSA8>
17.75

>  <PEOE_VSA9>
0

>  <PEOE_VSA10>
11.53

>  <PEOE_VSA11>
0

>  <PEOE_VSA12>
0

>  <PEOE_VSA13>
0

>  <SMR_VSA1>
9.9

>  <SMR_VSA2>
0

>  <SMR_VSA3>
0

>  <SMR_VSA4>
11.33

>  <SMR_VSA5>
44.95

>  <SMR_VSA6>
0

>  <SMR_VSA7>
40.98

>  <SMR_VSA8>
0

>  <SMR_VSA9>
5.75

>  <SlogP_VSA1>
0

>  <SlogP_VSA2>
10.89

>  <SlogP_VSA3>
11.22

>  <SlogP_VSA4>
11.33

>  <SlogP_VSA5>
49.65

>  <SlogP_VSA6>
29.85

>  <SlogP_VSA7>
0

>  <SlogP_VSA8>
0

>  <SlogP_VSA9>
0

>  <SlogP_VSA10>
0

>  <SlogP_VSA11>
5.75

>  <EState_VSA1>
0

>  <EState_VSA2>
5.41

>  <EState_VSA3>
23.37

>  <EState_VSA4>
32.1

>  <EState_VSA5>
16.7

>  <EState_VSA6>
6.07

>  <EState_VSA7>
6.07

>  <EState_VSA8>
19.07

>  <EState_VSA9>
0

>  <EState_VSA10>
9.9

>  <VSA_EState1>
0

>  <VSA_EState2>
12.23

>  <VSA_EState3>
9.64

>  <VSA_EState4>
4.03

>  <VSA_EState5>
1.76

>  <VSA_EState6>
5.79

>  <VSA_EState7>
7.11

>  <VSA_EState8>
2.18

>  <VSA_EState9>
0

>  <apol>
45

>  <bpol>
20.93

>  <nRing>
4

>  <nHRing>
0

>  <naRing>
1

>  <naHRing>
0

>  <nARing 2>
3

>  <nAHRing 2>
0

>  <nFRing>
1

>  <nFHRing>
0

>  <nFaRing>
0

>  <nFaHRing>
0

>  <nFARing 2>
1

>  <nFAHRing 2>
0

>  <nRot>
0

>  <SLogP>
3.74

>  <SMR>
77.71

>  <TopoPSA(NO)>
37.3

>  <TopoPSA>
37.3

>  <JGI1>
0.22

>  <JGI2>
0.11

>  <JGI3>
0.06

>  <JGI4>
0.06

>  <JGI5>
0.03

>  <Diameter>
10

>  <Radius>
5

>  <TMWC10>
119.61

>  <TSRW10>
69.21

>  <MW>
268.15

>  <AMW>
6.7

>  <WPath>
724

>  <WPol>
39

>  <Zagreb1>
118

>  <Zagreb2>
148

>  <mZagreb2>
4.15

>  <yes>


>  <nAR-cont>
0.691115

>  <nHA-cont>
0.999629945

>  <MWHBN>
0.183202904

>  <MWHBN-cont>
0.990382283

>  <TPSA-cont>
0.739622838

>  <pka_cont>
0.97

>  <yes.1>


>  <BBB_SCORE>
5.140564045

>  <MMFF94 Energy>
55.304

$$$$
Compound 2812
Actelion Java MolfileCreator 2.0

  0  0  0  0  0  0              0 V3000
M  V30 BEGIN CTAB
M  V30 COUNTS 56 55 0 0 0
M  V30 BEGIN ATOM
M  V30 1 N -4.0044 -2.6938 -3.773 0 CHG=1
M  V30 2 C -4.1499 -1.3698 -3.0031 0
M  V30 3 C -3.3079 -2.4901 -5.1147 0
M  V30 4 C -5.4181 -3.2253 -4.0529 0
M  V30 5 C -3.258 -3.742 -2.9604 0
M  V30 6 C -2.8159 -0.7173 -2.6207 0
M  V30 7 C -3.0692 0.6327 -1.9385 0
M  V30 8 C -1.7938 1.4312 -1.6547 0
M  V30 9 C -0.9619 0.8865 -0.4883 0
M  V30 10 C 0.2026 1.8332 -0.1746 0
M  V30 11 C 0.9873 1.4151 1.0741 0
M  V30 12 C 2.0786 2.4444 1.3911 0
M  V30 13 C 2.7917 2.213 2.7298 0
M  V30 14 C 3.6748 0.9642 2.7263 0
M  V30 15 N 4.5231 0.8036 4.0041 0 CHG=1
M  V30 16 C 5.5332 1.9394 4.1562 0
M  V30 17 C 5.3071 -0.5086 3.8855 0
M  V30 18 C 3.6548 0.7275 5.2549 0
M  V30 19 H -4.736 -1.5886 -2.1021 0
M  V30 20 H -4.7365 -0.6988 -3.6424 0
M  V30 21 H -3.355 -3.4292 -5.6745 0
M  V30 22 H -3.8267 -1.6946 -5.6573 0
M  V30 23 H -2.2638 -2.2223 -4.9357 0
M  V30 24 H -5.9544 -2.481 -4.6491 0
M  V30 25 H -5.3332 -4.167 -4.6035 0
M  V30 26 H -5.921 -3.3876 -3.0948 0
M  V30 27 H -3.2966 -4.6924 -3.5015 0
M  V30 28 H -2.2179 -3.4266 -2.8451 0
M  V30 29 H -3.7453 -3.8365 -1.9857 0
M  V30 30 H -2.2532 -1.3647 -1.941 0
M  V30 31 H -2.199 -0.5511 -3.5092 0
M  V30 32 H -3.6313 0.4832 -1.0086 0
M  V30 33 H -3.7044 1.2415 -2.5947 0
M  V30 34 H -2.0934 2.4605 -1.4187 0
M  V30 35 H -1.1774 1.4853 -2.5602 0
M  V30 36 H -0.5733 -0.1088 -0.7302 0
M  V30 37 H -1.5991 0.7835 0.3981 0
M  V30 38 H -0.1897 2.8472 -0.0254 0
M  V30 39 H 0.88 1.8767 -1.0363 0
M  V30 40 H 1.4325 0.4268 0.9146 0
M  V30 41 H 0.302 1.3331 1.9262 0
M  V30 42 H 1.6229 3.4423 1.4268 0
M  V30 43 H 2.8148 2.4661 0.5782 0
M  V30 44 H 2.0403 2.153 3.5248 0
M  V30 45 H 3.3976 3.1029 2.928 0
M  V30 46 H 4.3765 0.9883 1.8842 0
M  V30 47 H 3.0611 0.0599 2.6429 0
M  V30 48 H 6.1975 1.7006 4.9926 0
M  V30 49 H 6.1031 2.0219 3.2265 0
M  V30 50 H 4.9975 2.8675 4.3689 0
M  V30 51 H 5.942 -0.4514 2.9964 0
M  V30 52 H 5.9183 -0.633 4.7845 0
M  V30 53 H 4.5909 -1.3308 3.7952 0
M  V30 54 H 4.2967 0.4857 6.1076 0
M  V30 55 H 3.179 1.6982 5.4164 0
M  V30 56 H 2.9042 -0.0539 5.1068 0
M  V30 END ATOM
M  V30 BEGIN BOND
M  V30 1 1 1 2
M  V30 2 1 1 3
M  V30 3 1 1 4
M  V30 4 1 1 5
M  V30 5 1 2 6
M  V30 6 1 6 7
M  V30 7 1 7 8
M  V30 8 1 8 9
M  V30 9 1 9 10
M  V30 10 1 10 11
M  V30 11 1 11 12
M  V30 12 1 12 13
M  V30 13 1 13 14
M  V30 14 1 14 15
M  V30 15 1 15 16
M  V30 16 1 15 17
M  V30 17 1 15 18
M  V30 18 1 2 19
M  V30 19 1 2 20
M  V30 20 1 3 21
M  V30 21 1 3 22
M  V30 22 1 3 23
M  V30 23 1 4 24
M  V30 24 1 4 25
M  V30 25 1 4 26
M  V30 26 1 5 27
M  V30 27 1 5 28
M  V30 28 1 5 29
M  V30 29 1 6 30
M  V30 30 1 6 31
M  V30 31 1 7 32
M  V30 32 1 7 33
M  V30 33 1 8 34
M  V30 34 1 8 35
M  V30 35 1 9 36
M  V30 36 1 9 37
M  V30 37 1 10 38
M  V30 38 1 10 39
M  V30 39 1 11 40
M  V30 40 1 11 41
M  V30 41 1 12 42
M  V30 42 1 12 43
M  V30 43 1 13 44
M  V30 44 1 13 45
M  V30 45 1 14 46
M  V30 46 1 14 47
M  V30 47 1 16 48
M  V30 48 1 16 49
M  V30 49 1 16 50
M  V30 50 1 17 51
M  V30 51 1 17 52
M  V30 52 1 17 53
M  V30 53 1 18 54
M  V30 54 1 18 55
M  V30 55 1 18 56
M  V30 END BOND
M  V30 END CTAB
M  END
>  <Column 1>
3558

>  <level_0>
5822

>  <index>
5823

>  <Unnamed: 0>
5823

>  <NO.>
5835

>  <Name>
decamethonium

>  <IUPAC_name>
trimethyl-[10-(trimethylazaniumyl)decyl]azanium

>  <SMILES>
C[N+](C)(C)CCCCCCCCCC[N+](C)(C)C

>  <CID>
2968

>  <logBB>


>  <BBB+/BBB->
BBB-

>  <Inchi>
InChI=1S/C16H38N2/c1-17(2-3)15-13-11-9-7-8-10-12-14-16-18(4-5)6/h7-16H2-1-6H3/q+2

>  <threshold>


>  <reference>
R23|

>  <group>
C

>  <Class>
-1

>  <ABC>
12.97

>  <ABCGG>
11.08

>  <nAcid>
0

>  <nBase>
2

>  <nAromAtom>
0

>  <nAromBond>
0

>  <nAtom>
56

>  <nHeavyAtom>
18

>  <nSpiro>
0

>  <nBridgehead>
0

>  <nHetero>
2

>  <nN>
2

>  <nO>
0

>  <nF>
0

>  <BalabanJ>
3.13

>  <BertzCT>
164.25

>  <nBonds>
55

>  <nBondsO>
17

>  <nBondsS>
55

>  <nBondsD>
0

>  <nBondsT>
0

>  <nBondsA>
0

>  <nBondsM>
0

>  <nBondsKS>
55

>  <nBondsKD>
0

>  <RNCG>
0.34

>  <RPCG>
0.03

>  <FCSP3>
1

>  <SZ>
24.67

>  <Sm>
21.52

>  <Sv>
27.81

>  <Sse>
54.2

>  <Sp>
32.49

>  <Si>
64.47

>  <MZ>
0.44

>  <Mm>
0.38

>  <Mv>
0.5

>  <Mse>
0.97

>  <Mp>
0.58

>  <Mi>
1.15

>  <NsCH3>
6

>  <NdCH2>
0

>  <NssCH2>
10

>  <NtCH>
0

>  <NdsCH>
0

>  <NaaCH>
0

>  <NsssCH>
0

>  <NddC>
0

>  <NtsC>
0

>  <NdssC>
0

>  <NaasC>
0

>  <NaaaC>
0

>  <NssssC>
0

>  <NsNH3>
0

>  <NsNH2>
0

>  <NssNH2>
0

>  <NdNH>
0

>  <NssNH>
0

>  <NaaNH>
0

>  <NtN>
0

>  <NsssNH>
0

>  <NdsN>
0

>  <NaaN>
0

>  <NsssN>
0

>  <NddsN>
0

>  <NaasN>
0

>  <NssssN>
2

>  <NsOH>
0

>  <NdO>
0

>  <NssO>
0

>  <NaaO>
0

>  <NsF>
0

>  <NsSiH3>
0

>  <NssSiH2>
0

>  <NsssSiH>
0

>  <NssssSi>
0

>  <NsPH2>
0

>  <NssPH>
0

>  <NsssP>
0

>  <NdsssP>
0

>  <NsssssP>
0

>  <NsSH>
0

>  <NdS>
0

>  <NssS>
0

>  <NaaS>
0

>  <NdssS>
0

>  <NddssS>
0

>  <NsCl>
0

>  <NsBr>
0

>  <NsI>
0

>  <fragCpx>
17.02

>  <fMF>
0

>  <nHBAcc>
0

>  <nHBDon>
0

>  <Kier1>
18

>  <Kier2>
8.99

>  <Lipinski>
1

>  <GhoseFilter>
1

>  <FilterItLogS>
-6.37

>  <VMcGowan>
260.56

>  <LabuteASA>
116.15

>  <PEOE_VSA1>
8.97

>  <PEOE_VSA2>
0

>  <PEOE_VSA3>
0

>  <PEOE_VSA4>
0

>  <PEOE_VSA5>
0

>  <PEOE_VSA6>
25.68

>  <PEOE_VSA7>
25.68

>  <PEOE_VSA8>
0

>  <PEOE_VSA9>
55.38

>  <PEOE_VSA10>
0

>  <PEOE_VSA11>
0

>  <PEOE_VSA12>
0

>  <PEOE_VSA13>
0

>  <SMR_VSA1>
8.97

>  <SMR_VSA2>
0

>  <SMR_VSA3>
0

>  <SMR_VSA4>
0

>  <SMR_VSA5>
51.37

>  <SMR_VSA6>
55.38

>  <SMR_VSA7>
0

>  <SMR_VSA8>
0

>  <SMR_VSA9>
0

>  <SlogP_VSA1>
0

>  <SlogP_VSA2>
64.34

>  <SlogP_VSA3>
0

>  <SlogP_VSA4>
0

>  <SlogP_VSA5>
51.37

>  <SlogP_VSA6>
0

>  <SlogP_VSA7>
0

>  <SlogP_VSA8>
0

>  <SlogP_VSA9>
0

>  <SlogP_VSA10>
0

>  <SlogP_VSA11>
0

>  <EState_VSA1>
0

>  <EState_VSA2>
0

>  <EState_VSA3>
0

>  <EState_VSA4>
8.97

>  <EState_VSA5>
64.46

>  <EState_VSA6>
0

>  <EState_VSA7>
0

>  <EState_VSA8>
42.29

>  <EState_VSA9>
0

>  <EState_VSA10>
0

>  <VSA_EState1>
2.23

>  <VSA_EState2>
0

>  <VSA_EState3>
0

>  <VSA_EState4>
0

>  <VSA_EState5>
0

>  <VSA_EState6>
0

>  <VSA_EState7>
11.41

>  <VSA_EState8>
2.65

>  <VSA_EState9>
13.71

>  <apol>
54.26

>  <bpol>
42.68

>  <nRing>
0

>  <nHRing>
0

>  <naRing>
0

>  <naHRing>
0

>  <nARing 2>
0

>  <nAHRing 2>
0

>  <nFRing>
0

>  <nFHRing>
0

>  <nFaRing>
0

>  <nFaHRing>
0

>  <nFARing 2>
0

>  <nFAHRing 2>
0

>  <nRot>
11

>  <SLogP>
3.52

>  <SMR>
82.73

>  <TopoPSA(NO)>
0

>  <TopoPSA>
0

>  <JGI1>
0.32

>  <JGI2>
0.05

>  <JGI3>
0.04

>  <JGI4>
0.03

>  <JGI5>
0.02

>  <Diameter>
13

>  <Radius>
7

>  <TMWC10>
100.85

>  <TSRW10>
49.21

>  <MW>
258.3

>  <AMW>
4.61

>  <WPath>
883

>  <WPol>
15

>  <Zagreb1>
78

>  <Zagreb2>
76

>  <mZagreb2>
4

>  <yes>


>  <nAR-cont>
0.336376

>  <nHA-cont>
0.991161285

>  <MWHBN>
0

>  <MWHBN-cont>
0

>  <TPSA-cont>
0

>  <pka_cont>
0.97

>  <yes.1>


>  <BBB_SCORE>
1.812537285

>  <MMFF94 Energy>
66.663

$$$$
Compound 2813
Actelion Java MolfileCreator 2.0

  0  0  0  0  0  0              0 V3000
M  V30 BEGIN CTAB
M  V30 COUNTS 49 50 0 0 0
M  V30 BEGIN ATOM
M  V30 1 N -3.2897 -0.4694 -1.9571 0 CHG=1
M  V30 2 C -3.9216 0.1057 -3.2443 0
M  V30 3 C -2.9842 -1.9052 -2.3901 0
M  V30 4 C -2.0402 0.3539 -1.5908 0
M  V30 5 C -4.3203 -0.4472 -0.8366 0
M  V30 6 C -3.1349 -0.524 -4.3826 0
M  V30 7 C -2.4901 -1.7818 -3.8191 0
M  V30 8 C -1.323 -0.1274 -0.3206 0
M  V30 9 C -0.0671 0.7167 -0.0419 0
M  V30 10 C 0.6667 0.2627 1.2321 0
M  V30 11 C 1.9088 1.1284 1.4911 0
M  V30 12 N 2.7192 0.709 2.7323 0 CHG=1
M  V30 13 C 3.4059 -0.6519 2.5967 0
M  V30 14 C 3.9369 1.647 2.8885 0
M  V30 15 C 1.8729 0.7673 3.9966 0
M  V30 16 C 4.6246 -0.3863 1.7332 0
M  V30 17 C 4.9969 1.071 1.9636 0
M  V30 18 H -3.8737 1.1986 -3.218 0
M  V30 19 H -4.9678 -0.2191 -3.2784 0
M  V30 20 H -2.2647 -2.3622 -1.7083 0
M  V30 21 H -3.9252 -2.4672 -2.3567 0
M  V30 22 H -1.3582 0.3227 -2.4468 0
M  V30 23 H -2.3768 1.3894 -1.4592 0
M  V30 24 H -4.5086 0.5949 -0.5646 0
M  V30 25 H -3.9248 -1.0121 0.0109 0
M  V30 26 H -5.2412 -0.9208 -1.19 0
M  V30 27 H -3.7889 -0.7483 -5.2317 0
M  V30 28 H -2.3637 0.1642 -4.7467 0
M  V30 29 H -2.743 -2.6701 -4.4066 0
M  V30 30 H -1.3985 -1.6841 -3.8392 0
M  V30 31 H -1.9897 -0.0527 0.5449 0
M  V30 32 H -1.0256 -1.176 -0.4166 0
M  V30 33 H -0.3529 1.7709 0.0594 0
M  V30 34 H 0.6146 0.647 -0.8981 0
M  V30 35 H 0.9435 -0.7898 1.1201 0
M  V30 36 H -0.0284 0.3319 2.0755 0
M  V30 37 H 2.5813 1.0953 0.6275 0
M  V30 38 H 1.6097 2.1712 1.6518 0
M  V30 39 H 2.7148 -1.3855 2.1776 0
M  V30 40 H 3.7094 -0.9699 3.6013 0
M  V30 41 H 3.6415 2.6726 2.647 0
M  V30 42 H 4.2705 1.5927 3.9312 0
M  V30 43 H 1.1199 -0.0228 3.9478 0
M  V30 44 H 1.4072 1.7551 4.0523 0
M  V30 45 H 2.5176 0.6007 4.8649 0
M  V30 46 H 5.4468 -1.0637 1.9847 0
M  V30 47 H 4.3869 -0.5493 0.6757 0
M  V30 48 H 5.9947 1.1706 2.4034 0
M  V30 49 H 5.0129 1.6111 1.0101 0
M  V30 END ATOM
M  V30 BEGIN BOND
M  V30 1 1 1 2
M  V30 2 1 1 3
M  V30 3 1 1 4
M  V30 4 1 1 5
M  V30 5 1 2 6
M  V30 6 1 3 7
M  V30 7 1 4 8
M  V30 8 1 8 9
M  V30 9 1 9 10
M  V30 10 1 10 11
M  V30 11 1 11 12
M  V30 12 1 12 13
M  V30 13 1 12 14
M  V30 14 1 12 15
M  V30 15 1 13 16
M  V30 16 1 14 17
M  V30 17 1 6 7
M  V30 18 1 16 17
M  V30 19 1 2 18
M  V30 20 1 2 19
M  V30 21 1 3 20
M  V30 22 1 3 21
M  V30 23 1 4 22
M  V30 24 1 4 23
M  V30 25 1 5 24
M  V30 26 1 5 25
M  V30 27 1 5 26
M  V30 28 1 6 27
M  V30 29 1 6 28
M  V30 30 1 7 29
M  V30 31 1 7 30
M  V30 32 1 8 31
M  V30 33 1 8 32
M  V30 34 1 9 33
M  V30 35 1 9 34
M  V30 36 1 10 35
M  V30 37 1 10 36
M  V30 38 1 11 37
M  V30 39 1 11 38
M  V30 40 1 13 39
M  V30 41 1 13 40
M  V30 42 1 14 41
M  V30 43 1 14 42
M  V30 44 1 15 43
M  V30 45 1 15 44
M  V30 46 1 15 45
M  V30 47 1 16 46
M  V30 48 1 16 47
M  V30 49 1 17 48
M  V30 50 1 17 49
M  V30 END BOND
M  V30 END CTAB
M  END
>  <Column 1>
3561

>  <level_0>
5825

>  <index>
5826

>  <Unnamed: 0>
5826

>  <NO.>
5838

>  <Name>
pentolinium

>  <IUPAC_name>
1-methyl-1-[5-(1-methylpyrrolidin-1-ium-1-yl)pentyl]pyrrolidin-1-ium

>  <SMILES>
C[N+]1(CCCCC[N+]2(C)CCCC2)CCCC1

>  <CID>
5850

>  <logBB>


>  <BBB+/BBB->
BBB-

>  <Inchi>
InChI=1S/C15H32N2/c1-16(12-6-7-13-16)10-4-3-5-11-17(2)14-8-9-15-17/h3-15H2-1-2H3/q+2

>  <threshold>


>  <reference>
R23|R27|

>  <group>
C

>  <Class>
-1

>  <ABC>
13.05

>  <ABCGG>
11.8

>  <nAcid>
0

>  <nBase>
2

>  <nAromAtom>
0

>  <nAromBond>
0

>  <nAtom>
49

>  <nHeavyAtom>
17

>  <nSpiro>
0

>  <nBridgehead>
0

>  <nHetero>
2

>  <nN>
2

>  <nO>
0

>  <nF>
0

>  <BalabanJ>
1.54

>  <BertzCT>
201.08

>  <nBonds>
50

>  <nBondsO>
18

>  <nBondsS>
50

>  <nBondsD>
0

>  <nBondsT>
0

>  <nBondsA>
0

>  <nBondsM>
0

>  <nBondsKS>
50

>  <nBondsKD>
0

>  <RNCG>
0.47

>  <RPCG>
0.03

>  <FCSP3>
1

>  <SZ>
22.67

>  <Sm>
20.02

>  <Sv>
25.19

>  <Sse>
47.53

>  <Sp>
29.09

>  <Si>
56.23

>  <MZ>
0.46

>  <Mm>
0.41

>  <Mv>
0.51

>  <Mse>
0.97

>  <Mp>
0.59

>  <Mi>
1.15

>  <NsCH3>
2

>  <NdCH2>
0

>  <NssCH2>
13

>  <NtCH>
0

>  <NdsCH>
0

>  <NaaCH>
0

>  <NsssCH>
0

>  <NddC>
0

>  <NtsC>
0

>  <NdssC>
0

>  <NaasC>
0

>  <NaaaC>
0

>  <NssssC>
0

>  <NsNH3>
0

>  <NsNH2>
0

>  <NssNH2>
0

>  <NdNH>
0

>  <NssNH>
0

>  <NaaNH>
0

>  <NtN>
0

>  <NsssNH>
0

>  <NdsN>
0

>  <NaaN>
0

>  <NsssN>
0

>  <NddsN>
0

>  <NaasN>
0

>  <NssssN>
2

>  <NsOH>
0

>  <NdO>
0

>  <NssO>
0

>  <NaaO>
0

>  <NsF>
0

>  <NsSiH3>
0

>  <NssSiH2>
0

>  <NsssSiH>
0

>  <NssssSi>
0

>  <NsPH2>
0

>  <NssPH>
0

>  <NsssP>
0

>  <NdsssP>
0

>  <NsssssP>
0

>  <NsSH>
0

>  <NdS>
0

>  <NssS>
0

>  <NaaS>
0

>  <NdssS>
0

>  <NddssS>
0

>  <NsCl>
0

>  <NsBr>
0

>  <NsI>
0

>  <fragCpx>
52.02

>  <fMF>
0.31

>  <nHBAcc>
0

>  <nHBDon>
0

>  <Kier1>
13.43

>  <Kier2>
5.76

>  <Lipinski>
1

>  <GhoseFilter>
1

>  <FilterItLogS>
-5.01

>  <VMcGowan>
224.75

>  <LabuteASA>
107.78

>  <PEOE_VSA1>
8.97

>  <PEOE_VSA2>
0

>  <PEOE_VSA3>
0

>  <PEOE_VSA4>
0

>  <PEOE_VSA5>
0

>  <PEOE_VSA6>
0

>  <PEOE_VSA7>
19.26

>  <PEOE_VSA8>
25.68

>  <PEOE_VSA9>
53.36

>  <PEOE_VSA10>
0

>  <PEOE_VSA11>
0

>  <PEOE_VSA12>
0

>  <PEOE_VSA13>
0

>  <SMR_VSA1>
8.97

>  <SMR_VSA2>
0

>  <SMR_VSA3>
0

>  <SMR_VSA4>
0

>  <SMR_VSA5>
44.95

>  <SMR_VSA6>
53.36

>  <SMR_VSA7>
0

>  <SMR_VSA8>
0

>  <SMR_VSA9>
0

>  <SlogP_VSA1>
0

>  <SlogP_VSA2>
62.33

>  <SlogP_VSA3>
0

>  <SlogP_VSA4>
0

>  <SlogP_VSA5>
44.95

>  <SlogP_VSA6>
0

>  <SlogP_VSA7>
0

>  <SlogP_VSA8>
0

>  <SlogP_VSA9>
0

>  <SlogP_VSA10>
0

>  <SlogP_VSA11>
0

>  <EState_VSA1>
0

>  <EState_VSA2>
0

>  <EState_VSA3>
0

>  <EState_VSA4>
0

>  <EState_VSA5>
93.18

>  <EState_VSA6>
0

>  <EState_VSA7>
0

>  <EState_VSA8>
14.1

>  <EState_VSA9>
0

>  <EState_VSA10>
0

>  <VSA_EState1>
2.73

>  <VSA_EState2>
0

>  <VSA_EState3>
0

>  <VSA_EState4>
0

>  <VSA_EState5>
0

>  <VSA_EState6>
0

>  <VSA_EState7>
10.22

>  <VSA_EState8>
8.62

>  <VSA_EState9>
4.92

>  <apol>
48.59

>  <bpol>
36.66

>  <nRing>
2

>  <nHRing>
2

>  <naRing>
0

>  <naHRing>
0

>  <nARing 2>
2

>  <nAHRing 2>
2

>  <nFRing>
0

>  <nFHRing>
0

>  <nFaRing>
0

>  <nFaHRing>
0

>  <nFARing 2>
0

>  <nFAHRing 2>
0

>  <nRot>
6

>  <SLogP>
2.64

>  <SMR>
73.89

>  <TopoPSA(NO)>
0

>  <TopoPSA>
0

>  <JGI1>
0.25

>  <JGI2>
0.08

>  <JGI3>
0.06

>  <JGI4>
0.03

>  <JGI5>
0.02

>  <Diameter>
10

>  <Radius>
5

>  <TMWC10>
105.19

>  <TSRW10>
65

>  <MW>
240.26

>  <AMW>
4.9

>  <WPath>
622

>  <WPol>
18

>  <Zagreb1>
86

>  <Zagreb2>
96

>  <mZagreb2>
3.75

>  <yes>


>  <nAR-cont>
1

>  <nHA-cont>
0.976740822

>  <MWHBN>
0

>  <MWHBN-cont>
0

>  <TPSA-cont>
0

>  <pka_cont>
0.97

>  <yes.1>


>  <BBB_SCORE>
2.461740822

>  <MMFF94 Energy>
89.642

$$$$
Compound 2814
Actelion Java MolfileCreator 2.0

  0  0  0  0  0  0              0 V3000
M  V30 BEGIN CTAB
M  V30 COUNTS 38 41 0 0 0
M  V30 BEGIN ATOM
M  V30 1 O 1.4322 0.5567 5.6585 0
M  V30 2 C 1.375 -0.2238 4.54 0
M  V30 3 C 0.8035 0.34 3.3977 0
M  V30 4 C 1.8682 -1.5199 4.5405 0
M  V30 5 C 0.7136 -0.4205 2.2101 0
M  V30 6 C 1.8085 -2.2905 3.3779 0
M  V30 7 C 0.2016 -0.1855 0.8769 0
M  V30 8 C 1.2342 -1.7118 2.2378 0
M  V30 9 C -0.4663 0.9025 0.2462 0
M  V30 10 C 0.4817 -1.3263 0.1259 0
M  V30 11 N 1.0704 -2.2337 0.9826 0
M  V30 12 C -0.7103 0.834 -1.1637 0
M  V30 13 C -0.8828 2.1199 1.041 0
M  V30 14 C 0.1869 -1.4613 -1.2446 0
M  V30 15 C -0.396 -0.3382 -1.8925 0
M  V30 16 C -1.2599 1.9139 -1.8782 0
M  V30 17 C 0.5061 -2.73 -1.9982 0
M  V30 18 C -0.6751 -0.3561 -3.271 0
M  V30 19 N -1.5111 1.8551 -3.2034 0 CHG=1
M  V30 20 C -1.2305 0.7449 -3.9043 0
M  V30 21 C -2.0857 3.0321 -3.8772 0
M  V30 22 H 1.8462 0.0474 6.3753 0
M  V30 23 H 0.4518 1.3637 3.4497 0
M  V30 24 H 2.3111 -1.9502 5.4341 0
M  V30 25 H 2.2011 -3.3028 3.3653 0
M  V30 26 H 1.3733 -3.1604 0.7223 0
M  V30 27 H -0.0968 2.8797 1.0074 0
M  V30 28 H -1.0958 1.8619 2.0799 0
M  V30 29 H -1.8197 2.5468 0.671 0
M  V30 30 H -1.5013 2.8615 -1.4087 0
M  V30 31 H -0.4001 -3.1353 -2.4599 0
M  V30 32 H 0.9083 -3.5111 -1.3477 0
M  V30 33 H 1.2552 -2.5317 -2.7716 0
M  V30 34 H -0.4573 -1.2307 -3.8806 0
M  V30 35 H -1.4447 0.7427 -4.969 0
M  V30 36 H -1.3201 3.8122 -3.8896 0
M  V30 37 H -2.3798 2.7729 -4.8969 0
M  V30 38 H -2.9649 3.353 -3.3119 0
M  V30 END ATOM
M  V30 BEGIN BOND
M  V30 1 1 1 2
M  V30 2 2 2 3
M  V30 3 1 2 4
M  V30 4 1 3 5
M  V30 5 2 4 6
M  V30 6 1 5 7
M  V30 7 2 5 8
M  V30 8 2 7 9
M  V30 9 1 7 10
M  V30 10 1 8 11
M  V30 11 1 9 12
M  V30 12 1 9 13
M  V30 13 2 10 14
M  V30 14 1 12 15
M  V30 15 2 12 16
M  V30 16 1 14 17
M  V30 17 2 15 18
M  V30 18 1 16 19
M  V30 19 1 18 20
M  V30 20 1 19 21
M  V30 21 1 6 8
M  V30 22 1 10 11
M  V30 23 1 14 15
M  V30 24 2 19 20
M  V30 25 1 1 22
M  V30 26 1 3 23
M  V30 27 1 4 24
M  V30 28 1 6 25
M  V30 29 1 11 26
M  V30 30 1 13 27
M  V30 31 1 13 28
M  V30 32 1 13 29
M  V30 33 1 16 30
M  V30 34 1 17 31
M  V30 35 1 17 32
M  V30 36 1 17 33
M  V30 37 1 18 34
M  V30 38 1 20 35
M  V30 39 1 21 36
M  V30 40 1 21 37
M  V30 41 1 21 38
M  V30 END BOND
M  V30 END CTAB
M  END
>  <Column 1>
3563

>  <level_0>
5827

>  <index>
5828

>  <Unnamed: 0>
5828

>  <NO.>
5840

>  <Name>
elliptinium acetate

>  <IUPAC_name>
2-5-11-trimethyl-6h-pyrido[4-3-b]carbazol-2-ium-9-ol

>  <SMILES>
Cc1c2cc[n+](C)cc2c(C)c2c1[nH]c1ccc(O)cc12

>  <CID>
42723

>  <logBB>


>  <BBB+/BBB->
BBB-

>  <Inchi>
InChI=1S/C18H16N2O/c1-10-15-9-20(3)7-6-13(15)11(2)18-17(10)14-8-12(21)4-5-16(14)19-18/h4-9-21H-1-3H3/p+1

>  <threshold>


>  <reference>
R23|

>  <group>
C

>  <Class>
-1

>  <ABC>
17.08

>  <ABCGG>
13.74

>  <nAcid>
0

>  <nBase>
1

>  <nAromAtom>
17

>  <nAromBond>
20

>  <nAtom>
38

>  <nHeavyAtom>
21

>  <nSpiro>
0

>  <nBridgehead>
0

>  <nHetero>
3

>  <nN>
2

>  <nO>
1

>  <nF>
0

>  <BalabanJ>
1.61

>  <BertzCT>
1028.11

>  <nBonds>
41

>  <nBondsO>
24

>  <nBondsS>
21

>  <nBondsD>
0

>  <nBondsT>
0

>  <nBondsA>
20

>  <nBondsM>
20

>  <nBondsKS>
33

>  <nBondsKD>
8

>  <RNCG>
0.4

>  <RPCG>
0.13

>  <FCSP3>
0.17

>  <SZ>
24.5

>  <Sm>
23.09

>  <Sv>
24.84

>  <Sse>
37.7

>  <Sp>
26.59

>  <Si>
42.32

>  <MZ>
0.64

>  <Mm>
0.61

>  <Mv>
0.65

>  <Mse>
0.99

>  <Mp>
0.7

>  <Mi>
1.11

>  <NsCH3>
3

>  <NdCH2>
0

>  <NssCH2>
0

>  <NtCH>
0

>  <NdsCH>
0

>  <NaaCH>
6

>  <NsssCH>
0

>  <NddC>
0

>  <NtsC>
0

>  <NdssC>
0

>  <NaasC>
3

>  <NaaaC>
6

>  <NssssC>
0

>  <NsNH3>
0

>  <NsNH2>
0

>  <NssNH2>
0

>  <NdNH>
0

>  <NssNH>
0

>  <NaaNH>
1

>  <NtN>
0

>  <NsssNH>
0

>  <NdsN>
0

>  <NaaN>
0

>  <NsssN>
0

>  <NddsN>
0

>  <NaasN>
1

>  <NssssN>
0

>  <NsOH>
1

>  <NdO>
0

>  <NssO>
0

>  <NaaO>
0

>  <NsF>
0

>  <NsSiH3>
0

>  <NssSiH2>
0

>  <NsssSiH>
0

>  <NssssSi>
0

>  <NsPH2>
0

>  <NssPH>
0

>  <NsssP>
0

>  <NdsssP>
0

>  <NsssssP>
0

>  <NsSH>
0

>  <NdS>
0

>  <NssS>
0

>  <NaaS>
0

>  <NdssS>
0

>  <NddssS>
0

>  <NsCl>
0

>  <NsBr>
0

>  <NsI>
0

>  <fragCpx>
156.03

>  <fMF>
0.45

>  <nHBAcc>
1

>  <nHBDon>
2

>  <Kier1>
14.58

>  <Kier2>
5.27

>  <Lipinski>
1

>  <GhoseFilter>
1

>  <FilterItLogS>
-5.12

>  <VMcGowan>
214.62

>  <LabuteASA>
122

>  <PEOE_VSA1>
10.09

>  <PEOE_VSA2>
0

>  <PEOE_VSA3>
4.57

>  <PEOE_VSA4>
0

>  <PEOE_VSA5>
0

>  <PEOE_VSA6>
0

>  <PEOE_VSA7>
48.56

>  <PEOE_VSA8>
27.74

>  <PEOE_VSA9>
5.52

>  <PEOE_VSA10>
12.8

>  <PEOE_VSA11>
12.39

>  <PEOE_VSA12>
0

>  <PEOE_VSA13>
0

>  <SMR_VSA1>
9.67

>  <SMR_VSA2>
0

>  <SMR_VSA3>
4.98

>  <SMR_VSA4>
7.05

>  <SMR_VSA5>
13.85

>  <SMR_VSA6>
0

>  <SMR_VSA7>
47.79

>  <SMR_VSA8>
0

>  <SMR_VSA9>
5.75

>  <SlogP_VSA1>
4.57

>  <SlogP_VSA2>
10.09

>  <SlogP_VSA3>
7.05

>  <SlogP_VSA4>
13.85

>  <SlogP_VSA5>
11.13

>  <SlogP_VSA6>
36.66

>  <SlogP_VSA7>
0

>  <SlogP_VSA8>
32.58

>  <SlogP_VSA9>
0

>  <SlogP_VSA10>
0

>  <SlogP_VSA11>
5.75

>  <EState_VSA1>
0

>  <EState_VSA2>
0

>  <EState_VSA3>
5.75

>  <EState_VSA4>
16.42

>  <EState_VSA5>
27.29

>  <EState_VSA6>
6.07

>  <EState_VSA7>
19.18

>  <EState_VSA8>
41.86

>  <EState_VSA9>
0

>  <EState_VSA10>
5.11

>  <VSA_EState1>
2.08

>  <VSA_EState2>
3.5

>  <VSA_EState3>
14.63

>  <VSA_EState4>
4.73

>  <VSA_EState5>
0.3

>  <VSA_EState6>
7.67

>  <VSA_EState7>
4.24

>  <VSA_EState8>
4.31

>  <VSA_EState9>
2.04

>  <apol>
44.4

>  <bpol>
19.33

>  <nRing>
4

>  <nHRing>
2

>  <naRing>
4

>  <naHRing>
2

>  <nARing 2>
0

>  <nAHRing 2>
0

>  <nFRing>
1

>  <nFHRing>
1

>  <nFaRing>
1

>  <nFaHRing>
1

>  <nFARing 2>
0

>  <nFAHRing 2>
0

>  <nRot>
0

>  <SLogP>
3.62

>  <SMR>
85.63

>  <TopoPSA(NO)>
39.9

>  <TopoPSA>
39.9

>  <JGI1>
0.19

>  <JGI2>
0.08

>  <JGI3>
0.06

>  <JGI4>
0.06

>  <JGI5>
0.03

>  <Diameter>
9

>  <Radius>
5

>  <TMWC10>
121.87

>  <TSRW10>
70.29

>  <MW>
277.13

>  <AMW>
7.29

>  <WPath>
807

>  <WPol>
40

>  <Zagreb1>
122

>  <Zagreb2>
152

>  <mZagreb2>
4.39

>  <yes>


>  <nAR-cont>
0.336376

>  <nHA-cont>
0.994529749

>  <MWHBN>
0.180210248

>  <MWHBN-cont>
0.987389894

>  <TPSA-cont>
0.721473224

>  <pka_cont>
0.97

>  <yes.1>


>  <BBB_SCORE>
4.739937037

>  <MMFF94 Energy>
67.048

$$$$
Compound 2815
Actelion Java MolfileCreator 2.0

  0  0  0  0  0  0              0 V3000
M  V30 BEGIN CTAB
M  V30 COUNTS 46 48 0 0 0
M  V30 BEGIN ATOM
M  V30 1 N 0.0794 -8.3682 4.2172 0
M  V30 2 C -0.0412 -7.3358 3.7006 0
M  V30 3 C -0.1872 -6.0613 3.0615 0
M  V30 4 C -1.374 -5.3396 3.1918 0
M  V30 5 C 0.8557 -5.5301 2.3029 0
M  V30 6 C -1.515 -4.0937 2.5661 0
M  V30 7 C 0.7054 -4.2847 1.6816 0
M  V30 8 C -0.4818 -3.5427 1.8012 0
M  V30 9 N -0.5638 -2.3076 1.1543 0
M  V30 10 C -1.5484 -1.3296 1.0456 0
M  V30 11 N -1.1968 -0.2643 0.3107 0
M  V30 12 N -2.7455 -1.4526 1.6325 0
M  V30 13 C -2.087 0.7295 0.1466 0
M  V30 14 C -3.6147 -0.4441 1.4648 0
M  V30 15 N -1.7437 1.8729 -0.6022 0
M  V30 16 C -3.3358 0.6778 0.7278 0
M  V30 17 C -0.4605 2.2781 -1.0308 0
M  V30 18 C -0.2186 2.4583 -2.4141 0
M  V30 19 C 0.6096 2.4471 -0.1245 0
M  V30 20 C 1.0677 2.8077 -2.865 0
M  V30 21 C -1.3065 2.257 -3.4367 0
M  V30 22 C 1.8909 2.7739 -0.6086 0
M  V30 23 C 0.4456 2.2934 1.365 0
M  V30 24 C 2.1268 2.9754 -1.9702 0
M  V30 25 C 3.4885 3.2989 -2.4151 0
M  V30 26 C 3.7659 4.1779 -3.3901 0
M  V30 27 C 5.1015 4.4683 -3.778 0
M  V30 28 N 6.1901 4.707 -4.098 0
M  V30 29 H -2.2016 -5.7336 3.7787 0
M  V30 30 H 1.7903 -6.0752 2.1873 0
M  V30 31 H -2.4556 -3.5657 2.694 0
M  V30 32 H 1.535 -3.8945 1.0956 0
M  V30 33 H 0.2439 -2.0008 0.631 0
M  V30 34 H -4.5726 -0.5688 1.9606 0
M  V30 35 H -2.5037 2.214 -1.1737 0
M  V30 36 H -4.0566 1.4767 0.626 0
M  V30 37 H 1.2402 2.92 -3.9333 0
M  V30 38 H -0.928 2.3696 -4.4582 0
M  V30 39 H -1.726 1.2491 -3.3541 0
M  V30 40 H -2.0998 2.998 -3.2957 0
M  V30 41 H 2.7094 2.8876 0.1007 0
M  V30 42 H -0.5448 2.6191 1.6969 0
M  V30 43 H 0.6121 1.2543 1.6624 0
M  V30 44 H 1.1675 2.9201 1.9008 0
M  V30 45 H 4.2931 2.7936 -1.8829 0
M  V30 46 H 2.9822 4.7137 -3.9134 0
M  V30 END ATOM
M  V30 BEGIN BOND
M  V30 1 3 1 2
M  V30 2 1 2 3
M  V30 3 2 3 4
M  V30 4 1 3 5
M  V30 5 1 4 6
M  V30 6 2 5 7
M  V30 7 2 6 8
M  V30 8 1 8 9
M  V30 9 1 9 10
M  V30 10 2 10 11
M  V30 11 1 10 12
M  V30 12 1 11 13
M  V30 13 2 12 14
M  V30 14 1 13 15
M  V30 15 2 13 16
M  V30 16 1 15 17
M  V30 17 2 17 18
M  V30 18 1 17 19
M  V30 19 1 18 20
M  V30 20 1 18 21
M  V30 21 2 19 22
M  V30 22 1 19 23
M  V30 23 2 20 24
M  V30 24 1 24 25
M  V30 25 2 25 26
M  V30 26 1 26 27
M  V30 27 3 27 28
M  V30 28 1 7 8
M  V30 29 1 14 16
M  V30 30 1 22 24
M  V30 31 1 4 29
M  V30 32 1 5 30
M  V30 33 1 6 31
M  V30 34 1 7 32
M  V30 35 1 9 33
M  V30 36 1 14 34
M  V30 37 1 15 35
M  V30 38 1 16 36
M  V30 39 1 20 37
M  V30 40 1 21 38
M  V30 41 1 21 39
M  V30 42 1 21 40
M  V30 43 1 22 41
M  V30 44 1 23 42
M  V30 45 1 23 43
M  V30 46 1 23 44
M  V30 47 1 25 45
M  V30 48 1 26 46
M  V30 END BOND
M  V30 END CTAB
M  END
>  <Column 1>
3564

>  <level_0>
5828

>  <index>
5829

>  <Unnamed: 0>
5829

>  <NO.>
5841

>  <Name>
rilpivirine

>  <IUPAC_name>
4-[[4-[4-[(e)-2-cyanoethenyl]-2-6-dimethylanilino]pyrimidin-2-yl]amino]benzonitrile

>  <SMILES>
Cc1cc(/C=C/C#N)cc(C)c1Nc1ccnc(Nc2ccc(C#N)cc2)n1

>  <CID>
6451164

>  <logBB>


>  <BBB+/BBB->
BBB-

>  <Inchi>
InChI=1S/C22H18N6/c1-15-12-18(4-3-10-23)13-16(2)21(15)27-20-9-11-25-22(28-20)26-19-7-5-17(14-24)6-8-19/h3-9-11-13H-1-2H3-(H2-25-26-27-28)/b4-3+

>  <threshold>


>  <reference>
R23|

>  <group>
C

>  <Class>
-1

>  <ABC>
21.35

>  <ABCGG>
15.93

>  <nAcid>
0

>  <nBase>
0

>  <nAromAtom>
18

>  <nAromBond>
18

>  <nAtom>
46

>  <nHeavyAtom>
28

>  <nSpiro>
0

>  <nBridgehead>
0

>  <nHetero>
6

>  <nN>
6

>  <nO>
0

>  <nF>
0

>  <BalabanJ>
1.43

>  <BertzCT>
1078.1

>  <nBonds>
48

>  <nBondsO>
30

>  <nBondsS>
27

>  <nBondsD>
1

>  <nBondsT>
2

>  <nBondsA>
18

>  <nBondsM>
21

>  <nBondsKS>
36

>  <nBondsKD>
10

>  <RNCG>
0.18

>  <RPCG>
0.12

>  <FCSP3>
0.09

>  <SZ>
32

>  <Sm>
30.51

>  <Sv>
31.42

>  <Sse>
45.97

>  <Sp>
33.14

>  <Si>
51.48

>  <MZ>
0.7

>  <Mm>
0.66

>  <Mv>
0.68

>  <Mse>
1

>  <Mp>
0.72

>  <Mi>
1.12

>  <NsCH3>
2

>  <NdCH2>
0

>  <NssCH2>
0

>  <NtCH>
0

>  <NdsCH>
2

>  <NaaCH>
8

>  <NsssCH>
0

>  <NddC>
0

>  <NtsC>
2

>  <NdssC>
0

>  <NaasC>
8

>  <NaaaC>
0

>  <NssssC>
0

>  <NsNH3>
0

>  <NsNH2>
0

>  <NssNH2>
0

>  <NdNH>
0

>  <NssNH>
2

>  <NaaNH>
0

>  <NtN>
2

>  <NsssNH>
0

>  <NdsN>
0

>  <NaaN>
2

>  <NsssN>
0

>  <NddsN>
0

>  <NaasN>
0

>  <NssssN>
0

>  <NsOH>
0

>  <NdO>
0

>  <NssO>
0

>  <NaaO>
0

>  <NsF>
0

>  <NsSiH3>
0

>  <NssSiH2>
0

>  <NsssSiH>
0

>  <NssssSi>
0

>  <NsPH2>
0

>  <NssPH>
0

>  <NsssP>
0

>  <NdsssP>
0

>  <NsssssP>
0

>  <NsSH>
0

>  <NdS>
0

>  <NssS>
0

>  <NaaS>
0

>  <NdssS>
0

>  <NddssS>
0

>  <NsCl>
0

>  <NsBr>
0

>  <NsI>
0

>  <fragCpx>
144.06

>  <fMF>
0.43

>  <nHBAcc>
6

>  <nHBDon>
2

>  <Kier1>
22.68

>  <Kier2>
11.41

>  <Lipinski>
1

>  <GhoseFilter>
1

>  <FilterItLogS>
-6.56

>  <VMcGowan>
287.94

>  <LabuteASA>
163.37

>  <PEOE_VSA1>
10.63

>  <PEOE_VSA2>
0

>  <PEOE_VSA3>
4.98

>  <PEOE_VSA4>
15.51

>  <PEOE_VSA5>
0

>  <PEOE_VSA6>
0

>  <PEOE_VSA7>
79.08

>  <PEOE_VSA8>
23.65

>  <PEOE_VSA9>
17.7

>  <PEOE_VSA10>
5.82

>  <PEOE_VSA11>
0

>  <PEOE_VSA12>
5.95

>  <PEOE_VSA13>
0

>  <SMR_VSA1>
0

>  <SMR_VSA2>
10.52

>  <SMR_VSA3>
9.97

>  <SMR_VSA4>
0

>  <SMR_VSA5>
13.85

>  <SMR_VSA6>
10.63

>  <SMR_VSA7>
76.99

>  <SMR_VSA8>
0

>  <SMR_VSA9>
12.14

>  <SlogP_VSA1>
10.63

>  <SlogP_VSA2>
9.97

>  <SlogP_VSA3>
0

>  <SlogP_VSA4>
36.51

>  <SlogP_VSA5>
22.25

>  <SlogP_VSA6>
54.74

>  <SlogP_VSA7>
0

>  <SlogP_VSA8>
6.08

>  <SlogP_VSA9>
0

>  <SlogP_VSA10>
23.14

>  <SlogP_VSA11>
0

>  <EState_VSA1>
0

>  <EState_VSA2>
0

>  <EState_VSA3>
17.33

>  <EState_VSA4>
28.07

>  <EState_VSA5>
6.08

>  <EState_VSA6>
30.47

>  <EState_VSA7>
44.18

>  <EState_VSA8>
26.67

>  <EState_VSA9>
10.52

>  <EState_VSA10>
0

>  <VSA_EState1>
0

>  <VSA_EState2>
8.75

>  <VSA_EState3>
24.04

>  <VSA_EState4>
5.46

>  <VSA_EState5>
1.12

>  <VSA_EState6>
17.01

>  <VSA_EState7>
4.93

>  <VSA_EState8>
4.02

>  <VSA_EState9>
0

>  <apol>
55.34

>  <bpol>
22.62

>  <nRing>
3

>  <nHRing>
1

>  <naRing>
3

>  <naHRing>
1

>  <nARing 2>
0

>  <nAHRing 2>
0

>  <nFRing>
0

>  <nFHRing>
0

>  <nFaRing>
0

>  <nFaHRing>
0

>  <nFARing 2>
0

>  <nFAHRing 2>
0

>  <nRot>
5

>  <SLogP>
4.99

>  <SMR>
110.32

>  <TopoPSA(NO)>
97.42

>  <TopoPSA>
97.42

>  <JGI1>
0.2

>  <JGI2>
0.06

>  <JGI3>
0.04

>  <JGI4>
0.05

>  <JGI5>
0.02

>  <Diameter>
18

>  <Radius>
9

>  <TMWC10>
133

>  <TSRW10>
62.92

>  <MW>
366.16

>  <AMW>
7.96

>  <WPath>
2372

>  <WPol>
41

>  <Zagreb1>
140

>  <Zagreb2>
160

>  <mZagreb2>
6.39

>  <yes>


>  <nAR-cont>
0.336376

>  <nHA-cont>
0.82432561

>  <MWHBN>
0.418075326

>  <MWHBN-cont>
0.405401986

>  <TPSA-cont>
0.319947906

>  <pka_cont>
0.97

>  <yes.1>


>  <BBB_SCORE>
2.8937004

>  <MMFF94 Energy>
-31.892

$$$$
Compound 2816
Actelion Java MolfileCreator 2.0

  0  0  0  0  0  0              0 V3000
M  V30 BEGIN CTAB
M  V30 COUNTS 43 45 0 0 0
M  V30 BEGIN ATOM
M  V30 1 Br -5.1746 -0.4842 0.9687 0
M  V30 2 C -3.4437 -1.1693 0.6281 0
M  V30 3 C -2.3495 -0.3566 0.4286 0
M  V30 4 C -3.1897 -2.5249 0.5524 0
M  V30 5 O -2.5525 1.0232 0.4845 0
M  V30 6 N -1.1091 -0.825 0.1825 0
M  V30 7 N -1.9589 -3.0146 0.3241 0
M  V30 8 N -4.1664 -3.4784 0.7739 0
M  V30 9 C -1.4391 1.8151 0.308 0
M  V30 10 C -0.9496 -2.1482 0.1419 0
M  V30 11 C -0.6878 2.2072 1.4303 0
M  V30 12 C -1.1179 2.2703 -0.983 0
M  V30 13 N 0.291 -2.7321 -0.0956 0
M  V30 14 C 0.4462 3.0081 1.2347 0
M  V30 15 C -1.0427 1.7393 2.8129 0
M  V30 16 C 0.0208 3.0708 -1.1507 0
M  V30 17 C -1.9326 1.8688 -2.1793 0
M  V30 18 C 1.574 -2.2278 -0.3311 0
M  V30 19 C 0.8021 3.437 -0.0488 0
M  V30 20 C 1.8835 -0.8638 -0.376 0
M  V30 21 C 2.6231 -3.1392 -0.5386 0
M  V30 22 C 1.9686 4.2492 -0.2356 0
M  V30 23 C 3.1906 -0.4195 -0.618 0
M  V30 24 C 3.9316 -2.7051 -0.7811 0
M  V30 25 N 2.9165 4.9012 -0.388 0
M  V30 26 C 4.2186 -1.3403 -0.8214 0
M  V30 27 C 5.5571 -0.8916 -1.0699 0
M  V30 28 N 6.6439 -0.5383 -1.2724 0
M  V30 29 H -3.8544 -4.4372 0.6959 0
M  V30 30 H -5.1256 -3.2621 0.5412 0
M  V30 31 H 0.1874 -3.7366 -0.0795 0
M  V30 32 H 1.0568 3.2985 2.089 0
M  V30 33 H -2.1223 1.8078 2.9821 0
M  V30 34 H -0.7189 0.7036 2.9544 0
M  V30 35 H -0.5595 2.3581 3.5766 0
M  V30 36 H 0.3014 3.4099 -2.1472 0
M  V30 37 H -1.7317 2.5241 -3.0336 0
M  V30 38 H -1.6927 0.8415 -2.4703 0
M  V30 39 H -3.0035 1.9436 -1.9636 0
M  V30 40 H 1.1157 -0.1114 -0.2231 0
M  V30 41 H 2.43 -4.2097 -0.5132 0
M  V30 42 H 3.3912 0.6501 -0.6448 0
M  V30 43 H 4.7182 -3.4409 -0.9371 0
M  V30 END ATOM
M  V30 BEGIN BOND
M  V30 1 1 1 2
M  V30 2 2 2 3
M  V30 3 1 2 4
M  V30 4 1 3 5
M  V30 5 1 3 6
M  V30 6 2 4 7
M  V30 7 1 4 8
M  V30 8 1 5 9
M  V30 9 2 6 10
M  V30 10 2 9 11
M  V30 11 1 9 12
M  V30 12 1 10 13
M  V30 13 1 11 14
M  V30 14 1 11 15
M  V30 15 2 12 16
M  V30 16 1 12 17
M  V30 17 1 13 18
M  V30 18 2 14 19
M  V30 19 2 18 20
M  V30 20 1 18 21
M  V30 21 1 19 22
M  V30 22 1 20 23
M  V30 23 2 21 24
M  V30 24 3 22 25
M  V30 25 2 23 26
M  V30 26 1 26 27
M  V30 27 3 27 28
M  V30 28 1 7 10
M  V30 29 1 16 19
M  V30 30 1 24 26
M  V30 31 1 8 29
M  V30 32 1 8 30
M  V30 33 1 13 31
M  V30 34 1 14 32
M  V30 35 1 15 33
M  V30 36 1 15 34
M  V30 37 1 15 35
M  V30 38 1 16 36
M  V30 39 1 17 37
M  V30 40 1 17 38
M  V30 41 1 17 39
M  V30 42 1 20 40
M  V30 43 1 21 41
M  V30 44 1 23 42
M  V30 45 1 24 43
M  V30 END BOND
M  V30 END CTAB
M  END
>  <Column 1>
3565

>  <level_0>
5829

>  <index>
5830

>  <Unnamed: 0>
5830

>  <NO.>
5842

>  <Name>
etravirine

>  <IUPAC_name>
4-[6-amino-5-bromo-2-(4-cyanoanilino)pyrimidin-4-yl]oxy-3-5-dimethylbenzonitrile

>  <SMILES>
Cc1cc(C#N)cc(C)c1Oc1nc(Nc2ccc(C#N)cc2)nc(N)c1Br

>  <CID>
193962

>  <logBB>


>  <BBB+/BBB->
BBB-

>  <Inchi>
InChI=1S/C20H15BrN6O/c1-11-7-14(10-23)8-12(2)17(11)28-19-16(21)18(24)26-20(27-19)25-15-5-3-13(9-22)4-6-15/h3-8H-1-2H3-(H3-24-25-26-27)

>  <threshold>


>  <reference>
R23|

>  <group>
C

>  <Class>
-1

>  <ABC>
21.49

>  <ABCGG>
16.84

>  <nAcid>
0

>  <nBase>
0

>  <nAromAtom>
18

>  <nAromBond>
18

>  <nAtom>
43

>  <nHeavyAtom>
28

>  <nSpiro>
0

>  <nBridgehead>
0

>  <nHetero>
8

>  <nN>
6

>  <nO>
1

>  <nF>
0

>  <BalabanJ>
1.55

>  <BertzCT>
1106.15

>  <nBonds>
45

>  <nBondsO>
30

>  <nBondsS>
25

>  <nBondsD>
0

>  <nBondsT>
2

>  <nBondsA>
18

>  <nBondsM>
20

>  <nBondsKS>
34

>  <nBondsKD>
9

>  <RNCG>
0.19

>  <RPCG>
0.11

>  <FCSP3>
0.1

>  <SZ>
36.67

>  <Sm>
36.24

>  <Sv>
30.62

>  <Sse>
43.64

>  <Sp>
32.25

>  <Si>
48.12

>  <MZ>
0.85

>  <Mm>
0.84

>  <Mv>
0.71

>  <Mse>
1.01

>  <Mp>
0.75

>  <Mi>
1.12

>  <NsCH3>
2

>  <NdCH2>
0

>  <NssCH2>
0

>  <NtCH>
0

>  <NdsCH>
0

>  <NaaCH>
6

>  <NsssCH>
0

>  <NddC>
0

>  <NtsC>
2

>  <NdssC>
0

>  <NaasC>
10

>  <NaaaC>
0

>  <NssssC>
0

>  <NsNH3>
0

>  <NsNH2>
1

>  <NssNH2>
0

>  <NdNH>
0

>  <NssNH>
1

>  <NaaNH>
0

>  <NtN>
2

>  <NsssNH>
0

>  <NdsN>
0

>  <NaaN>
2

>  <NsssN>
0

>  <NddsN>
0

>  <NaasN>
0

>  <NssssN>
0

>  <NsOH>
0

>  <NdO>
0

>  <NssO>
1

>  <NaaO>
0

>  <NsF>
0

>  <NsSiH3>
0

>  <NssSiH2>
0

>  <NsssSiH>
0

>  <NssssSi>
0

>  <NsPH2>
0

>  <NssPH>
0

>  <NsssP>
0

>  <NdsssP>
0

>  <NsssssP>
0

>  <NsSH>
0

>  <NdS>
0

>  <NssS>
0

>  <NaaS>
0

>  <NdssS>
0

>  <NddssS>
0

>  <NsCl>
0

>  <NsBr>
1

>  <NsI>
0

>  <fragCpx>
144.08

>  <fMF>
0.47

>  <nHBAcc>
7

>  <nHBDon>
2

>  <Kier1>
22.68

>  <Kier2>
10.35

>  <Lipinski>
1

>  <GhoseFilter>
1

>  <FilterItLogS>
-6.9

>  <VMcGowan>
287.43

>  <LabuteASA>
170.1

>  <PEOE_VSA1>
15.79

>  <PEOE_VSA2>
0

>  <PEOE_VSA3>
0

>  <PEOE_VSA4>
20.49

>  <PEOE_VSA5>
0

>  <PEOE_VSA6>
0

>  <PEOE_VSA7>
77.3

>  <PEOE_VSA8>
5.69

>  <PEOE_VSA9>
23.27

>  <PEOE_VSA10>
16.04

>  <PEOE_VSA11>
0

>  <PEOE_VSA12>
11.83

>  <PEOE_VSA13>
0

>  <SMR_VSA1>
4.74

>  <SMR_VSA2>
10.52

>  <SMR_VSA3>
9.97

>  <SMR_VSA4>
0

>  <SMR_VSA5>
13.85

>  <SMR_VSA6>
11.05

>  <SMR_VSA7>
63.12

>  <SMR_VSA8>
0

>  <SMR_VSA9>
23.77

>  <SlogP_VSA1>
15.79

>  <SlogP_VSA2>
9.97

>  <SlogP_VSA3>
0

>  <SlogP_VSA4>
36.51

>  <SlogP_VSA5>
22.25

>  <SlogP_VSA6>
40.87

>  <SlogP_VSA7>
0

>  <SlogP_VSA8>
0

>  <SlogP_VSA9>
0

>  <SlogP_VSA10>
17.45

>  <SlogP_VSA11>
11.63

>  <EState_VSA1>
0

>  <EState_VSA2>
17.65

>  <EState_VSA3>
27.04

>  <EState_VSA4>
11.13

>  <EState_VSA5>
0

>  <EState_VSA6>
36.4

>  <EState_VSA7>
13.85

>  <EState_VSA8>
43.35

>  <EState_VSA9>
20.99

>  <EState_VSA10>
0

>  <VSA_EState1>
6.43

>  <VSA_EState2>
8.6

>  <VSA_EState3>
21.03

>  <VSA_EState4>
9.43

>  <VSA_EState5>
1.32

>  <VSA_EState6>
14.55

>  <VSA_EState7>
0

>  <VSA_EState8>
3.72

>  <VSA_EState9>
0

>  <apol>
53.85

>  <bpol>
21.58

>  <nRing>
3

>  <nHRing>
1

>  <naRing>
3

>  <naHRing>
1

>  <nARing 2>
0

>  <nAHRing 2>
0

>  <nFRing>
0

>  <nFHRing>
0

>  <nFaRing>
0

>  <nFaHRing>
0

>  <nFARing 2>
0

>  <nFAHRing 2>
0

>  <nRot>
4

>  <SLogP>
4.72

>  <SMR>
109.29

>  <TopoPSA(NO)>
120.64

>  <TopoPSA>
120.64

>  <JGI1>
0.23

>  <JGI2>
0.07

>  <JGI3>
0.05

>  <JGI4>
0.05

>  <JGI5>
0.03

>  <Diameter>
16

>  <Radius>
8

>  <TMWC10>
133.9

>  <TSRW10>
63.27

>  <MW>
434.05

>  <AMW>
10.09

>  <WPath>
2190

>  <WPol>
45

>  <Zagreb1>
144

>  <Zagreb2>
168

>  <mZagreb2>
6.28

>  <yes>


>  <nAR-cont>
0.336376

>  <nHA-cont>
0.82432561

>  <MWHBN>
0.431988941

>  <MWHBN-cont>
0.352196333

>  <TPSA-cont>
0

>  <pka_cont>
0.97

>  <yes.1>


>  <BBB_SCORE>
2.17399611

>  <MMFF94 Energy>
-9.1373

$$$$
Compound 2817
Actelion Java MolfileCreator 2.0

  0  0  0  0  0  0              0 V3000
M  V30 BEGIN CTAB
M  V30 COUNTS 43 44 0 0 0
M  V30 BEGIN ATOM
M  V30 1 O -0.2355 -0.9424 2.5933 0
M  V30 2 C -0.0015 -0.1466 1.5003 0
M  V30 3 C 1.3167 0.2858 1.2685 0
M  V30 4 C -1.0883 0.1923 0.6564 0
M  V30 5 C 1.5219 1.0319 0.0976 0
M  V30 6 C 2.4869 -0.0476 2.2218 0
M  V30 7 C -0.8408 0.9328 -0.5263 0
M  V30 8 C -2.4775 -0.2736 1.0189 0
M  V30 9 C 0.4837 1.3416 -0.8033 0
M  V30 10 C 3.84 0.5761 1.7899 0
M  V30 11 C 2.2033 0.4953 3.6409 0
M  V30 12 C 2.716 -1.5741 2.2795 0
M  V30 13 C -1.9578 1.2688 -1.5035 0
M  V30 14 C 0.841 2.1259 -2.042 0
M  V30 15 C -2.3095 0.1203 -2.4203 0
M  V30 16 N -1.5778 -0.1866 -3.4611 0
M  V30 17 N -3.417 -0.6513 -2.2262 0
M  V30 18 C -2.2583 -1.3644 -4.0751 0
M  V30 19 C -3.5187 -1.6505 -3.2475 0
M  V30 20 H -0.8768 -1.621 2.3291 0
M  V30 21 H 2.5172 1.3867 -0.1566 0
M  V30 22 H -2.6661 -1.2587 0.5822 0
M  V30 23 H -3.2523 0.4214 0.6893 0
M  V30 24 H -2.6055 -0.3401 2.1048 0
M  V30 25 H 3.7836 1.67 1.742 0
M  V30 26 H 4.636 0.3278 2.5026 0
M  V30 27 H 4.1642 0.2035 0.8113 0
M  V30 28 H 1.3522 0.0069 4.1233 0
M  V30 29 H 3.0644 0.34 4.3019 0
M  V30 30 H 1.9941 1.5713 3.6152 0
M  V30 31 H 2.8852 -1.9842 1.2769 0
M  V30 32 H 1.8721 -2.1153 2.7164 0
M  V30 33 H 3.593 -1.8181 2.8908 0
M  V30 34 H -2.8523 1.5999 -0.9668 0
M  V30 35 H -1.6931 2.1259 -2.1314 0
M  V30 36 H 0.3838 3.1197 -2.0051 0
M  V30 37 H 1.9234 2.2673 -2.1336 0
M  V30 38 H 0.5142 1.5989 -2.9427 0
M  V30 39 H -4.1048 -0.5168 -1.5013 0
M  V30 40 H -2.5142 -1.1401 -5.1158 0
M  V30 41 H -1.579 -2.2232 -4.0652 0
M  V30 42 H -4.4269 -1.5195 -3.8431 0
M  V30 43 H -3.5034 -2.6595 -2.8261 0
M  V30 END ATOM
M  V30 BEGIN BOND
M  V30 1 1 1 2
M  V30 2 2 2 3
M  V30 3 1 2 4
M  V30 4 1 3 5
M  V30 5 1 3 6
M  V30 6 2 4 7
M  V30 7 1 4 8
M  V30 8 2 5 9
M  V30 9 1 6 10
M  V30 10 1 6 11
M  V30 11 1 6 12
M  V30 12 1 7 13
M  V30 13 1 9 14
M  V30 14 1 13 15
M  V30 15 2 15 16
M  V30 16 1 15 17
M  V30 17 1 16 18
M  V30 18 1 17 19
M  V30 19 1 7 9
M  V30 20 1 18 19
M  V30 21 1 1 20
M  V30 22 1 5 21
M  V30 23 1 8 22
M  V30 24 1 8 23
M  V30 25 1 8 24
M  V30 26 1 10 25
M  V30 27 1 10 26
M  V30 28 1 10 27
M  V30 29 1 11 28
M  V30 30 1 11 29
M  V30 31 1 11 30
M  V30 32 1 12 31
M  V30 33 1 12 32
M  V30 34 1 12 33
M  V30 35 1 13 34
M  V30 36 1 13 35
M  V30 37 1 14 36
M  V30 38 1 14 37
M  V30 39 1 14 38
M  V30 40 1 17 39
M  V30 41 1 18 40
M  V30 42 1 18 41
M  V30 43 1 19 42
M  V30 44 1 19 43
M  V30 END BOND
M  V30 END CTAB
M  END
>  <Column 1>
3566

>  <level_0>
5830

>  <index>
5831

>  <Unnamed: 0>
5831

>  <NO.>
5843

>  <Name>
oxymetazoline

>  <IUPAC_name>
6-tert-butyl-3-(4-5-dihydro-1h-imidazol-2-ylmethyl)-2-4-dimethylphenol

>  <SMILES>
Cc1cc(C(C)(C)C)c(O)c(C)c1CC1=NCCN1

>  <CID>
4636

>  <logBB>


>  <BBB+/BBB->
BBB-

>  <Inchi>
InChI=1S/C16H24N2O/c1-10-8-13(16(3-4)5)15(19)11(2)12(10)9-14-17-6-7-18-14/h8-19H-6-7-9H2-1-5H3-(H-17-18)

>  <threshold>


>  <reference>
R23|

>  <group>
C

>  <Class>
-1

>  <ABC>
14.72

>  <ABCGG>
13.49

>  <nAcid>
0

>  <nBase>
2

>  <nAromAtom>
6

>  <nAromBond>
6

>  <nAtom>
43

>  <nHeavyAtom>
19

>  <nSpiro>
0

>  <nBridgehead>
0

>  <nHetero>
3

>  <nN>
2

>  <nO>
1

>  <nF>
0

>  <BalabanJ>
2.03

>  <BertzCT>
524.53

>  <nBonds>
44

>  <nBondsO>
20

>  <nBondsS>
37

>  <nBondsD>
1

>  <nBondsT>
0

>  <nBondsA>
6

>  <nBondsM>
7

>  <nBondsKS>
40

>  <nBondsKD>
4

>  <RNCG>
0.33

>  <RPCG>
0.19

>  <FCSP3>
0.56

>  <SZ>
23.67

>  <Sm>
21.68

>  <Sv>
24.73

>  <Sse>
42.31

>  <Sp>
27.38

>  <Si>
48.77

>  <MZ>
0.55

>  <Mm>
0.5

>  <Mv>
0.58

>  <Mse>
0.98

>  <Mp>
0.64

>  <Mi>
1.13

>  <NsCH3>
5

>  <NdCH2>
0

>  <NssCH2>
3

>  <NtCH>
0

>  <NdsCH>
0

>  <NaaCH>
1

>  <NsssCH>
0

>  <NddC>
0

>  <NtsC>
0

>  <NdssC>
1

>  <NaasC>
5

>  <NaaaC>
0

>  <NssssC>
1

>  <NsNH3>
0

>  <NsNH2>
0

>  <NssNH2>
0

>  <NdNH>
0

>  <NssNH>
1

>  <NaaNH>
0

>  <NtN>
0

>  <NsssNH>
0

>  <NdsN>
1

>  <NaaN>
0

>  <NsssN>
0

>  <NddsN>
0

>  <NaasN>
0

>  <NssssN>
0

>  <NsOH>
1

>  <NdO>
0

>  <NssO>
0

>  <NaaO>
0

>  <NsF>
0

>  <NsSiH3>
0

>  <NssSiH2>
0

>  <NsssSiH>
0

>  <NssssSi>
0

>  <NsPH2>
0

>  <NssPH>
0

>  <NsssP>
0

>  <NdsssP>
0

>  <NsssssP>
0

>  <NsSH>
0

>  <NdS>
0

>  <NssS>
0

>  <NaaS>
0

>  <NdssS>
0

>  <NddssS>
0

>  <NsCl>
0

>  <NsBr>
0

>  <NsI>
0

>  <fragCpx>
58.03

>  <fMF>
0.28

>  <nHBAcc>
3

>  <nHBDon>
2

>  <Kier1>
15.39

>  <Kier2>
5.78

>  <Lipinski>
1

>  <GhoseFilter>
1

>  <FilterItLogS>
-4.98

>  <VMcGowan>
223.21

>  <LabuteASA>
115.31

>  <PEOE_VSA1>
10.42

>  <PEOE_VSA2>
4.99

>  <PEOE_VSA3>
0

>  <PEOE_VSA4>
0

>  <PEOE_VSA5>
0

>  <PEOE_VSA6>
26.84

>  <PEOE_VSA7>
41.52

>  <PEOE_VSA8>
12.97

>  <PEOE_VSA9>
6.54

>  <PEOE_VSA10>
11.59

>  <PEOE_VSA11>
0

>  <PEOE_VSA12>
0

>  <PEOE_VSA13>
0

>  <SMR_VSA1>
5.11

>  <SMR_VSA2>
0

>  <SMR_VSA3>
5.32

>  <SMR_VSA4>
4.99

>  <SMR_VSA5>
46.45

>  <SMR_VSA6>
13.09

>  <SMR_VSA7>
28.32

>  <SMR_VSA8>
0

>  <SMR_VSA9>
5.75

>  <SlogP_VSA1>
5.32

>  <SlogP_VSA2>
24.03

>  <SlogP_VSA3>
11.84

>  <SlogP_VSA4>
13.85

>  <SlogP_VSA5>
43.03

>  <SlogP_VSA6>
11.06

>  <SlogP_VSA7>
0

>  <SlogP_VSA8>
0

>  <SlogP_VSA9>
0

>  <SlogP_VSA10>
0

>  <SlogP_VSA11>
5.75

>  <EState_VSA1>
0

>  <EState_VSA2>
5.41

>  <EState_VSA3>
5.75

>  <EState_VSA4>
36.47

>  <EState_VSA5>
11.13

>  <EState_VSA6>
0

>  <EState_VSA7>
6.92

>  <EState_VSA8>
44.07

>  <EState_VSA9>
0

>  <EState_VSA10>
5.11

>  <VSA_EState1>
0

>  <VSA_EState2>
4.44

>  <VSA_EState3>
13.74

>  <VSA_EState4>
4.39

>  <VSA_EState5>
1.47

>  <VSA_EState6>
2.12

>  <VSA_EState7>
0.79

>  <VSA_EState8>
12.3

>  <VSA_EState9>
0

>  <apol>
45.73

>  <bpol>
25.79

>  <nRing>
2

>  <nHRing>
1

>  <naRing>
1

>  <naHRing>
0

>  <nARing 2>
1

>  <nAHRing 2>
1

>  <nFRing>
0

>  <nFHRing>
0

>  <nFaRing>
0

>  <nFaHRing>
0

>  <nFARing 2>
0

>  <nFAHRing 2>
0

>  <nRot>
2

>  <SLogP>
2.85

>  <SMR>
80.29

>  <TopoPSA(NO)>
44.62

>  <TopoPSA>
44.62

>  <JGI1>
0.28

>  <JGI2>
0.1

>  <JGI3>
0.07

>  <JGI4>
0.06

>  <JGI5>
0.03

>  <Diameter>
9

>  <Radius>
5

>  <TMWC10>
112.25

>  <TSRW10>
65.73

>  <MW>
260.19

>  <AMW>
6.05

>  <WPath>
681

>  <WPol>
29

>  <Zagreb1>
100

>  <Zagreb2>
117

>  <mZagreb2>
4.03

>  <yes>


>  <nAR-cont>
0.816016

>  <nHA-cont>
0.998649058

>  <MWHBN>
0.309973598

>  <MWHBN-cont>
0.809953241

>  <TPSA-cont>
0.688524693

>  <pka_cont>
0.97

>  <yes.1>


>  <BBB_SCORE>
4.891644304

>  <MMFF94 Energy>
71.356

$$$$
Compound 2818
Actelion Java MolfileCreator 2.0

  0  0  0  0  0  0              0 V3000
M  V30 BEGIN CTAB
M  V30 COUNTS 42 43 0 0 0
M  V30 BEGIN ATOM
M  V30 1 N -2.4352 2.9857 2.5138 0
M  V30 2 C -1.6807 2.0324 2.0262 0
M  V30 3 C -1.5025 3.8352 3.3156 0
M  V30 4 N -0.3607 2.0934 2.3638 0
M  V30 5 C -2.2722 0.939 1.1638 0
M  V30 6 C -0.0858 3.279 3.115 0
M  V30 7 C -1.2514 0.1834 0.33 0
M  V30 8 C -0.814 0.7056 -0.908 0
M  V30 9 C -0.6884 -1.0241 0.7973 0
M  V30 10 C 0.1454 0.0062 -1.6656 0
M  V30 11 C -1.3622 1.9966 -1.4622 0
M  V30 12 C 0.2666 -1.6957 0.0126 0
M  V30 13 C -1.0937 -1.6386 2.1122 0
M  V30 14 C 0.7045 -1.2021 -1.2283 0
M  V30 15 C 1.7508 -1.981 -2.0452 0
M  V30 16 C 2.1288 -1.3081 -3.3845 0
M  V30 17 C 3.0511 -2.1215 -1.224 0
M  V30 18 C 1.2067 -3.3869 -2.3802 0
M  V30 19 H -1.5683 4.8762 2.9828 0
M  V30 20 H -1.7948 3.7912 4.3704 0
M  V30 21 H 0.3503 1.4845 1.9804 0
M  V30 22 H -3.0382 1.3797 0.5147 0
M  V30 23 H -2.8267 0.2602 1.821 0
M  V30 24 H 0.5353 3.9728 2.5405 0
M  V30 25 H 0.4025 3.0572 4.068 0
M  V30 26 H 0.4457 0.435 -2.6185 0
M  V30 27 H -2.4211 1.8806 -1.7137 0
M  V30 28 H -0.8371 2.2987 -2.3748 0
M  V30 29 H -1.2409 2.81 -0.7404 0
M  V30 30 H 0.6753 -2.6332 0.3869 0
M  V30 31 H -2.1281 -1.9927 2.0602 0
M  V30 32 H -0.9919 -0.9133 2.9255 0
M  V30 33 H -0.4616 -2.4957 2.3685 0
M  V30 34 H 2.5594 -0.312 -3.2282 0
M  V30 35 H 2.876 -1.9 -3.9269 0
M  V30 36 H 1.2593 -1.2054 -4.0442 0
M  V30 37 H 2.8996 -2.6914 -0.3007 0
M  V30 38 H 3.8266 -2.6424 -1.7978 0
M  V30 39 H 3.4478 -1.1386 -0.9425 0
M  V30 40 H 0.2648 -3.3226 -2.938 0
M  V30 41 H 1.0161 -3.9833 -1.4811 0
M  V30 42 H 1.9196 -3.9509 -2.993 0
M  V30 END ATOM
M  V30 BEGIN BOND
M  V30 1 2 1 2
M  V30 2 1 1 3
M  V30 3 1 2 4
M  V30 4 1 2 5
M  V30 5 1 3 6
M  V30 6 1 5 7
M  V30 7 2 7 8
M  V30 8 1 7 9
M  V30 9 1 8 10
M  V30 10 1 8 11
M  V30 11 2 9 12
M  V30 12 1 9 13
M  V30 13 2 10 14
M  V30 14 1 14 15
M  V30 15 1 15 16
M  V30 16 1 15 17
M  V30 17 1 15 18
M  V30 18 1 4 6
M  V30 19 1 12 14
M  V30 20 1 3 19
M  V30 21 1 3 20
M  V30 22 1 4 21
M  V30 23 1 5 22
M  V30 24 1 5 23
M  V30 25 1 6 24
M  V30 26 1 6 25
M  V30 27 1 10 26
M  V30 28 1 11 27
M  V30 29 1 11 28
M  V30 30 1 11 29
M  V30 31 1 12 30
M  V30 32 1 13 31
M  V30 33 1 13 32
M  V30 34 1 13 33
M  V30 35 1 16 34
M  V30 36 1 16 35
M  V30 37 1 16 36
M  V30 38 1 17 37
M  V30 39 1 17 38
M  V30 40 1 17 39
M  V30 41 1 18 40
M  V30 42 1 18 41
M  V30 43 1 18 42
M  V30 END BOND
M  V30 END CTAB
M  END
>  <Column 1>
3567

>  <level_0>
5831

>  <index>
5832

>  <Unnamed: 0>
5832

>  <NO.>
5844

>  <Name>
xylometazoline

>  <IUPAC_name>
2-[(4-tert-butyl-2-6-dimethylphenyl)methyl]-4-5-dihydro-1h-imidazole

>  <SMILES>
Cc1cc(C(C)(C)C)cc(C)c1CC1=NCCN1

>  <CID>
5709

>  <logBB>


>  <BBB+/BBB->
BBB-

>  <Inchi>
InChI=1S/C16H24N2/c1-11-8-13(16(3-4)5)9-12(2)14(11)10-15-17-6-7-18-15/h8-9H-6-7-10H2-1-5H3-(H-17-18)

>  <threshold>


>  <reference>
R23|

>  <group>
C

>  <Class>
-1

>  <ABC>
13.99

>  <ABCGG>
12.59

>  <nAcid>
0

>  <nBase>
2

>  <nAromAtom>
6

>  <nAromBond>
6

>  <nAtom>
42

>  <nHeavyAtom>
18

>  <nSpiro>
0

>  <nBridgehead>
0

>  <nHetero>
2

>  <nN>
2

>  <nO>
0

>  <nF>
0

>  <BalabanJ>
1.93

>  <BertzCT>
455.36

>  <nBonds>
43

>  <nBondsO>
19

>  <nBondsS>
36

>  <nBondsD>
1

>  <nBondsT>
0

>  <nBondsA>
6

>  <nBondsM>
7

>  <nBondsKS>
39

>  <nBondsKD>
4

>  <RNCG>
0.31

>  <RPCG>
0.14

>  <FCSP3>
0.56

>  <SZ>
22.33

>  <Sm>
20.35

>  <Sv>
24.02

>  <Sse>
40.98

>  <Sp>
26.9

>  <Si>
47.56

>  <MZ>
0.53

>  <Mm>
0.48

>  <Mv>
0.57

>  <Mse>
0.98

>  <Mp>
0.64

>  <Mi>
1.13

>  <NsCH3>
5

>  <NdCH2>
0

>  <NssCH2>
3

>  <NtCH>
0

>  <NdsCH>
0

>  <NaaCH>
2

>  <NsssCH>
0

>  <NddC>
0

>  <NtsC>
0

>  <NdssC>
1

>  <NaasC>
4

>  <NaaaC>
0

>  <NssssC>
1

>  <NsNH3>
0

>  <NsNH2>
0

>  <NssNH2>
0

>  <NdNH>
0

>  <NssNH>
1

>  <NaaNH>
0

>  <NtN>
0

>  <NsssNH>
0

>  <NdsN>
1

>  <NaaN>
0

>  <NsssN>
0

>  <NddsN>
0

>  <NaasN>
0

>  <NssssN>
0

>  <NsOH>
0

>  <NdO>
0

>  <NssO>
0

>  <NaaO>
0

>  <NsF>
0

>  <NsSiH3>
0

>  <NssSiH2>
0

>  <NsssSiH>
0

>  <NssssSi>
0

>  <NsPH2>
0

>  <NssPH>
0

>  <NsssP>
0

>  <NdsssP>
0

>  <NsssssP>
0

>  <NsSH>
0

>  <NdS>
0

>  <NssS>
0

>  <NaaS>
0

>  <NdssS>
0

>  <NddssS>
0

>  <NsCl>
0

>  <NsBr>
0

>  <NsI>
0

>  <fragCpx>
55.02

>  <fMF>
0.29

>  <nHBAcc>
2

>  <nHBDon>
1

>  <Kier1>
14.41

>  <Kier2>
5.55

>  <Lipinski>
1

>  <GhoseFilter>
1

>  <FilterItLogS>
-5.41

>  <VMcGowan>
217.34

>  <LabuteASA>
110.52

>  <PEOE_VSA1>
5.32

>  <PEOE_VSA2>
4.99

>  <PEOE_VSA3>
0

>  <PEOE_VSA4>
0

>  <PEOE_VSA5>
0

>  <PEOE_VSA6>
32.9

>  <PEOE_VSA7>
41.52

>  <PEOE_VSA8>
12.97

>  <PEOE_VSA9>
6.54

>  <PEOE_VSA10>
5.84

>  <PEOE_VSA11>
0

>  <PEOE_VSA12>
0

>  <PEOE_VSA13>
0

>  <SMR_VSA1>
0

>  <SMR_VSA2>
0

>  <SMR_VSA3>
5.32

>  <SMR_VSA4>
4.99

>  <SMR_VSA5>
46.45

>  <SMR_VSA6>
13.09

>  <SMR_VSA7>
34.39

>  <SMR_VSA8>
0

>  <SMR_VSA9>
0

>  <SlogP_VSA1>
5.32

>  <SlogP_VSA2>
18.93

>  <SlogP_VSA3>
11.84

>  <SlogP_VSA4>
13.85

>  <SlogP_VSA5>
43.03

>  <SlogP_VSA6>
17.13

>  <SlogP_VSA7>
0

>  <SlogP_VSA8>
0

>  <SlogP_VSA9>
0

>  <SlogP_VSA10>
0

>  <SlogP_VSA11>
0

>  <EState_VSA1>
0

>  <EState_VSA2>
5.41

>  <EState_VSA3>
0

>  <EState_VSA4>
25.35

>  <EState_VSA5>
22.25

>  <EState_VSA6>
0

>  <EState_VSA7>
0

>  <EState_VSA8>
57.06

>  <EState_VSA9>
0

>  <EState_VSA10>
0

>  <VSA_EState1>
0

>  <VSA_EState2>
4.49

>  <VSA_EState3>
3.35

>  <VSA_EState4>
5.84

>  <VSA_EState5>
1.14

>  <VSA_EState6>
4.66

>  <VSA_EState7>
0.95

>  <VSA_EState8>
13.15

>  <VSA_EState9>
0

>  <apol>
44.92

>  <bpol>
25.79

>  <nRing>
2

>  <nHRing>
1

>  <naRing>
1

>  <naHRing>
0

>  <nARing 2>
1

>  <nAHRing 2>
1

>  <nFRing>
0

>  <nFHRing>
0

>  <nFaRing>
0

>  <nFaHRing>
0

>  <nFARing 2>
0

>  <nFAHRing 2>
0

>  <nRot>
2

>  <SLogP>
3.15

>  <SMR>
78.62

>  <TopoPSA(NO)>
24.39

>  <TopoPSA>
24.39

>  <JGI1>
0.29

>  <JGI2>
0.09

>  <JGI3>
0.06

>  <JGI4>
0.07

>  <JGI5>
0.02

>  <Diameter>
9

>  <Radius>
5

>  <TMWC10>
109.11

>  <TSRW10>
64.27

>  <MW>
244.19

>  <AMW>
5.81

>  <WPath>
608

>  <WPol>
25

>  <Zagreb1>
94

>  <Zagreb2>
108

>  <mZagreb2>
3.81

>  <yes>


>  <nAR-cont>
0.816016

>  <nHA-cont>
0.991161285

>  <MWHBN>
0.191980588

>  <MWHBN-cont>
0.996778858

>  <TPSA-cont>
0.829742655

>  <pka_cont>
0.97

>  <yes.1>


>  <BBB_SCORE>
5.446830881

>  <MMFF94 Energy>
70.852

$$$$
Compound 2819
Actelion Java MolfileCreator 2.0

  0  0  0  0  0  0              0 V3000
M  V30 BEGIN CTAB
M  V30 COUNTS 32 33 0 0 0
M  V30 BEGIN ATOM
M  V30 1 O 2.4547 -3.089 -2.217 0
M  V30 2 C 1.6465 -2.4784 -1.2708 0
M  V30 3 N 1.2632 -1.1281 -1.4063 0 CHG=1
M  V30 4 C 1.2184 -3.2423 -0.1778 0
M  V30 5 O 1.6612 -0.4438 -2.4085 0 CHG=-1
M  V30 6 C 0.4392 -0.5596 -0.4268 0
M  V30 7 C 0.4102 -2.6717 0.8042 0
M  V30 8 C 0.0148 -1.34 0.6679 0
M  V30 9 C 0.0245 0.8907 -0.5853 0
M  V30 10 C -0.0801 -3.4939 1.9609 0
M  V30 11 C -1.4994 1.0262 -0.7545 0
M  V30 12 C 0.5277 1.756 0.5843 0
M  V30 13 C -1.9168 2.488 -0.9086 0
M  V30 14 C 0.1018 3.2146 0.4236 0
M  V30 15 C -1.4084 3.344 0.2477 0
M  V30 16 H 2.6218 -4.0079 -1.9621 0
M  V30 17 H 1.5141 -4.284 -0.0887 0
M  V30 18 H -0.6332 -0.8961 1.4222 0
M  V30 19 H 0.4762 1.3067 -1.4939 0
M  V30 20 H -1.0325 -3.9681 1.7052 0
M  V30 21 H 0.6443 -4.2722 2.2222 0
M  V30 22 H -0.2214 -2.871 2.8505 0
M  V30 23 H -2.0249 0.5993 0.1089 0
M  V30 24 H -1.8314 0.4597 -1.6333 0
M  V30 25 H 1.6216 1.7022 0.6473 0
M  V30 26 H 0.1409 1.3804 1.5399 0
M  V30 27 H -3.0092 2.5548 -0.9637 0
M  V30 28 H -1.5249 2.8817 -1.8544 0
M  V30 29 H 0.4211 3.7898 1.3 0
M  V30 30 H 0.6096 3.6495 -0.4458 0
M  V30 31 H -1.9107 3.0402 1.1744 0
M  V30 32 H -1.6702 4.3934 0.072 0
M  V30 END ATOM
M  V30 BEGIN BOND
M  V30 1 1 1 2
M  V30 2 2 2 3
M  V30 3 1 2 4
M  V30 4 1 3 5
M  V30 5 1 3 6
M  V30 6 2 4 7
M  V30 7 2 6 8
M  V30 8 1 6 9
M  V30 9 1 7 10
M  V30 10 1 9 11
M  V30 11 1 9 12
M  V30 12 1 11 13
M  V30 13 1 12 14
M  V30 14 1 13 15
M  V30 15 1 7 8
M  V30 16 1 14 15
M  V30 17 1 1 16
M  V30 18 1 4 17
M  V30 19 1 8 18
M  V30 20 1 9 19
M  V30 21 1 10 20
M  V30 22 1 10 21
M  V30 23 1 10 22
M  V30 24 1 11 23
M  V30 25 1 11 24
M  V30 26 1 12 25
M  V30 27 1 12 26
M  V30 28 1 13 27
M  V30 29 1 13 28
M  V30 30 1 14 29
M  V30 31 1 14 30
M  V30 32 1 15 31
M  V30 33 1 15 32
M  V30 END BOND
M  V30 END CTAB
M  END
>  <Column 1>
3568

>  <level_0>
5832

>  <index>
5833

>  <Unnamed: 0>
5833

>  <NO.>
5845

>  <Name>
ciclopirox

>  <IUPAC_name>


>  <SMILES>
Cc1cc(O)[n+]([O-])c(C2CCCCC2)c1

>  <CID>
2749

>  <logBB>


>  <BBB+/BBB->
BBB-

>  <Inchi>
InChI=1S/C12H17NO2/c1-9-7-11(13(15)12(14)8-9)10-5-3-2-4-6-10/h7-8-10-14H-2-6H2-1H3

>  <threshold>


>  <reference>
R23|

>  <group>
C

>  <Class>
-1

>  <ABC>
11.52

>  <ABCGG>
10.11

>  <nAcid>
0

>  <nBase>
0

>  <nAromAtom>
6

>  <nAromBond>
6

>  <nAtom>
32

>  <nHeavyAtom>
15

>  <nSpiro>
0

>  <nBridgehead>
0

>  <nHetero>
3

>  <nN>
1

>  <nO>
2

>  <nF>
0

>  <BalabanJ>
1.98

>  <BertzCT>
356.88

>  <nBonds>
33

>  <nBondsO>
16

>  <nBondsS>
27

>  <nBondsD>
0

>  <nBondsT>
0

>  <nBondsA>
6

>  <nBondsM>
6

>  <nBondsKS>
30

>  <nBondsKD>
3

>  <RNCG>
0.4

>  <RPCG>
0.25

>  <FCSP3>
0.58

>  <SZ>
18.67

>  <Sm>
17.26

>  <Sv>
18.79

>  <Sse>
31.87

>  <Sp>
20.41

>  <Si>
36.24

>  <MZ>
0.58

>  <Mm>
0.54

>  <Mv>
0.59

>  <Mse>
1

>  <Mp>
0.64

>  <Mi>
1.13

>  <NsCH3>
1

>  <NdCH2>
0

>  <NssCH2>
5

>  <NtCH>
0

>  <NdsCH>
0

>  <NaaCH>
2

>  <NsssCH>
1

>  <NddC>
0

>  <NtsC>
0

>  <NdssC>
0

>  <NaasC>
3

>  <NaaaC>
0

>  <NssssC>
0

>  <NsNH3>
0

>  <NsNH2>
0

>  <NssNH2>
0

>  <NdNH>
0

>  <NssNH>
0

>  <NaaNH>
0

>  <NtN>
0

>  <NsssNH>
0

>  <NdsN>
0

>  <NaaN>
0

>  <NsssN>
0

>  <NddsN>
0

>  <NaasN>
1

>  <NssssN>
0

>  <NsOH>
1

>  <NdO>
0

>  <NssO>
0

>  <NaaO>
0

>  <NsF>
0

>  <NsSiH3>
0

>  <NssSiH2>
0

>  <NsssSiH>
0

>  <NssssSi>
0

>  <NsPH2>
0

>  <NssPH>
0

>  <NsssP>
0

>  <NdsssP>
0

>  <NsssssP>
0

>  <NsSH>
0

>  <NdS>
0

>  <NssS>
0

>  <NaaS>
0

>  <NdssS>
0

>  <NddssS>
0

>  <NsCl>
0

>  <NsBr>
0

>  <NsI>
0

>  <fragCpx>
46.03

>  <fMF>
0.38

>  <nHBAcc>
2

>  <nHBDon>
1

>  <Kier1>
11.48

>  <Kier2>
4.89

>  <Lipinski>
1

>  <GhoseFilter>
1

>  <FilterItLogS>
-2.21

>  <VMcGowan>
167.04

>  <LabuteASA>
89.95

>  <PEOE_VSA1>
10.31

>  <PEOE_VSA2>
0

>  <PEOE_VSA3>
0

>  <PEOE_VSA4>
0

>  <PEOE_VSA5>
4.73

>  <PEOE_VSA6>
19.26

>  <PEOE_VSA7>
25.33

>  <PEOE_VSA8>
11.98

>  <PEOE_VSA9>
6.07

>  <PEOE_VSA10>
0

>  <PEOE_VSA11>
5.69

>  <PEOE_VSA12>
0

>  <PEOE_VSA13>
0

>  <SMR_VSA1>
9.84

>  <SMR_VSA2>
0

>  <SMR_VSA3>
0

>  <SMR_VSA4>
0

>  <SMR_VSA5>
44.95

>  <SMR_VSA6>
0

>  <SMR_VSA7>
28.6

>  <SMR_VSA8>
0

>  <SMR_VSA9>
5.88

>  <SlogP_VSA1>
4.73

>  <SlogP_VSA2>
5.11

>  <SlogP_VSA3>
0

>  <SlogP_VSA4>
12.13

>  <SlogP_VSA5>
49.28

>  <SlogP_VSA6>
12.13

>  <SlogP_VSA7>
0

>  <SlogP_VSA8>
0

>  <SlogP_VSA9>
0

>  <SlogP_VSA10>
0

>  <SlogP_VSA11>
5.88

>  <EState_VSA1>
0

>  <EState_VSA2>
5.88

>  <EState_VSA3>
10.65

>  <EState_VSA4>
24.1

>  <EState_VSA5>
25.33

>  <EState_VSA6>
0

>  <EState_VSA7>
12.99

>  <EState_VSA8>
0

>  <EState_VSA9>
0

>  <EState_VSA10>
10.31

>  <VSA_EState1>
0.68

>  <VSA_EState2>
0

>  <VSA_EState3>
21.15

>  <VSA_EState4>
1.7

>  <VSA_EState5>
0.16

>  <VSA_EState6>
3.42

>  <VSA_EState7>
5.81

>  <VSA_EState8>
1.91

>  <VSA_EState9>
0

>  <apol>
34.08

>  <bpol>
18.49

>  <nRing>
2

>  <nHRing>
1

>  <naRing>
1

>  <naHRing>
1

>  <nARing 2>
1

>  <nAHRing 2>
0

>  <nFRing>
0

>  <nFHRing>
0

>  <nFaRing>
0

>  <nFaHRing>
0

>  <nFARing 2>
0

>  <nFAHRing 2>
0

>  <nRot>
1

>  <SLogP>
2.38

>  <SMR>
57.63

>  <TopoPSA(NO)>
47.17

>  <TopoPSA>
47.17

>  <JGI1>
0.19

>  <JGI2>
0.08

>  <JGI3>
0.05

>  <JGI4>
0.05

>  <JGI5>
0.03

>  <Diameter>
7

>  <Radius>
4

>  <TMWC10>
100.96

>  <TSRW10>
47.09

>  <MW>
207.13

>  <AMW>
6.47

>  <WPath>
348

>  <WPol>
22

>  <Zagreb1>
76

>  <Zagreb2>
88

>  <mZagreb2>
3.33

>  <yes>


>  <nAR-cont>
0.816016

>  <nHA-cont>
0.92539861

>  <MWHBN>
0.208448969

>  <MWHBN-cont>
0.999635432

>  <TPSA-cont>
0.670724109

>  <pka_cont>
0.97

>  <yes.1>


>  <BBB_SCORE>
5.067315977

>  <MMFF94 Energy>
56.133

$$$$
Compound 2820
Actelion Java MolfileCreator 2.0

  0  0  0  0  0  0              0 V3000
M  V30 BEGIN CTAB
M  V30 COUNTS 56 58 0 0 0
M  V30 BEGIN ATOM
M  V30 1 O -1.1053 4.0311 -1.0263 0
M  V30 2 C -0.6784 3.2102 -1.8227 0
M  V30 3 O -0.6164 1.8718 -1.6239 0
M  V30 4 C -0.1555 3.5634 -3.1699 0
M  V30 5 C -1.082 1.3963 -0.3358 0 CFG=2
M  V30 6 C -0.2669 4.8946 -3.595 0
M  V30 7 C 0.445 2.6192 -4.0142 0
M  V30 8 C -0.0059 1.6363 0.7363 0
M  V30 9 C -1.4423 -0.095 -0.5216 0
M  V30 10 C 0.211 5.2754 -4.8505 0
M  V30 11 C 0.9225 3.0044 -5.2694 0
M  V30 12 O 1.1557 0.8422 0.4439 0
M  V30 13 N -1.8975 -0.7344 0.7187 0
M  V30 14 C 0.8044 4.3301 -5.6862 0
M  V30 15 C 1.864 0.5186 1.5757 0
M  V30 16 C -2.612 -2.0158 0.5614 0
M  V30 17 C 2.162 -0.8358 1.832 0
M  V30 18 C 2.3318 1.5007 2.4596 0
M  V30 19 C -4.008 -1.787 -0.0424 0
M  V30 20 C -2.7904 -2.5915 1.9805 0
M  V30 21 C -1.8354 -3.0381 -0.2835 0
M  V30 22 C 2.8723 -1.1619 2.9873 0
M  V30 23 C 1.8923 -2.0576 1.1535 0
M  V30 24 C 3.0457 1.1442 3.6034 0
M  V30 25 N 3.0082 -2.532 3.0074 0
M  V30 26 C 3.3226 -0.1953 3.8944 0
M  V30 27 C 2.4159 -3.0912 1.9014 0
M  V30 28 C 2.418 -4.5553 1.6688 0
M  V30 29 H -1.9965 1.9395 -0.0616 0
M  V30 30 H -0.7272 5.6402 -2.9491 0
M  V30 31 H 0.5533 1.5821 -3.7062 0
M  V30 32 H 0.2991 2.6883 0.7385 0
M  V30 33 H -0.4192 1.3905 1.7236 0
M  V30 34 H -2.2156 -0.1397 -1.2968 0
M  V30 35 H -0.579 -0.633 -0.9325 0
M  V30 36 H 0.1211 6.3093 -5.1748 0
M  V30 37 H 1.3893 2.2696 -5.921 0
M  V30 38 H -1.0758 -0.8869 1.3111 0
M  V30 39 H 1.1777 4.6275 -6.6633 0
M  V30 40 H 2.1503 2.5522 2.2555 0
M  V30 41 H -3.9593 -1.4543 -1.0843 0
M  V30 42 H -4.5961 -2.7123 -0.0288 0
M  V30 43 H -4.569 -1.0347 0.5247 0
M  V30 44 H -3.3487 -1.9022 2.6255 0
M  V30 45 H -3.342 -3.5386 1.9566 0
M  V30 46 H -1.8231 -2.7874 2.459 0
M  V30 47 H -1.7222 -2.7101 -1.3224 0
M  V30 48 H -0.8365 -3.2178 0.1267 0
M  V30 49 H -2.3568 -4.0023 -0.3058 0
M  V30 50 H 1.3694 -2.1563 0.2114 0
M  V30 51 H 3.3967 1.9212 4.2791 0
M  V30 52 H 3.4846 -3.0463 3.7353 0
M  V30 53 H 3.878 -0.4673 4.7861 0
M  V30 54 H 1.8629 -4.8087 0.7598 0
M  V30 55 H 1.9499 -5.0794 2.5083 0
M  V30 56 H 3.4421 -4.9249 1.5559 0
M  V30 END ATOM
M  V30 BEGIN BOND
M  V30 1 2 1 2
M  V30 2 1 2 3
M  V30 3 1 2 4
M  V30 4 1 3 5
M  V30 5 2 4 6
M  V30 6 1 4 7
M  V30 7 1 5 8
M  V30 8 1 5 9
M  V30 9 1 6 10
M  V30 10 2 7 11
M  V30 11 1 8 12
M  V30 12 1 9 13
M  V30 13 2 10 14
M  V30 14 1 12 15
M  V30 15 1 13 16
M  V30 16 2 15 17
M  V30 17 1 15 18
M  V30 18 1 16 19
M  V30 19 1 16 20
M  V30 20 1 16 21
M  V30 21 1 17 22
M  V30 22 1 17 23
M  V30 23 2 18 24
M  V30 24 1 22 25
M  V30 25 2 22 26
M  V30 26 2 23 27
M  V30 27 1 27 28
M  V30 28 1 11 14
M  V30 29 1 24 26
M  V30 30 1 25 27
M  V30 31 1 5 29
M  V30 32 1 6 30
M  V30 33 1 7 31
M  V30 34 1 8 32
M  V30 35 1 8 33
M  V30 36 1 9 34
M  V30 37 1 9 35
M  V30 38 1 10 36
M  V30 39 1 11 37
M  V30 40 1 13 38
M  V30 41 1 14 39
M  V30 42 1 18 40
M  V30 43 1 19 41
M  V30 44 1 19 42
M  V30 45 1 19 43
M  V30 46 1 20 44
M  V30 47 1 20 45
M  V30 48 1 20 46
M  V30 49 1 21 47
M  V30 50 1 21 48
M  V30 51 1 21 49
M  V30 52 1 23 50
M  V30 53 1 24 51
M  V30 54 1 25 52
M  V30 55 1 26 53
M  V30 56 1 28 54
M  V30 57 1 28 55
M  V30 58 1 28 56
M  V30 END BOND
M  V30 BEGIN COLLECTION
M  V30 MDLV30/STERAC1 ATOMS=(1 5)
M  V30 END COLLECTION
M  V30 END CTAB
M  END
>  <Column 1>
3569

>  <level_0>
5833

>  <index>
5834

>  <Unnamed: 0>
5834

>  <NO.>
5846

>  <Name>
bopindolol

>  <IUPAC_name>
[1-(tert-butylamino)-3-[(2-methyl-1h-indol-4-yl)oxy]propan-2-yl] benzoate

>  <SMILES>
Cc1cc2c(OCC(CNC(C)(C)C)OC(=O)c3ccccc3)cccc2[nH]1

>  <CID>
44112

>  <logBB>


>  <BBB+/BBB->
BBB-

>  <Inchi>
InChI=1S/C23H28N2O3/c1-16-13-19-20(25-16)11-8-12-21(19)27-15-18(14-24-23(2-3)4)28-22(26)17-9-6-5-7-10-17/h5-13-18-24-25H-14-15H2-1-4H3

>  <threshold>


>  <reference>
R23|

>  <group>
C

>  <Class>
-1

>  <ABC>
21.79

>  <ABCGG>
17.71

>  <nAcid>
0

>  <nBase>
1

>  <nAromAtom>
15

>  <nAromBond>
16

>  <nAtom>
56

>  <nHeavyAtom>
28

>  <nSpiro>
0

>  <nBridgehead>
0

>  <nHetero>
5

>  <nN>
2

>  <nO>
3

>  <nF>
0

>  <BalabanJ>
1.53

>  <BertzCT>
925.92

>  <nBonds>
58

>  <nBondsO>
30

>  <nBondsS>
41

>  <nBondsD>
1

>  <nBondsT>
0

>  <nBondsA>
16

>  <nBondsM>
17

>  <nBondsKS>
50

>  <nBondsKD>
8

>  <RNCG>
0.2

>  <RPCG>
0.14

>  <FCSP3>
0.35

>  <SZ>
34

>  <Sm>
31.68

>  <Sv>
34.25

>  <Sse>
55.75

>  <Sp>
36.94

>  <Si>
63.02

>  <MZ>
0.61

>  <Mm>
0.57

>  <Mv>
0.61

>  <Mse>
1

>  <Mp>
0.66

>  <Mi>
1.13

>  <NsCH3>
4

>  <NdCH2>
0

>  <NssCH2>
2

>  <NtCH>
0

>  <NdsCH>
0

>  <NaaCH>
9

>  <NsssCH>
1

>  <NddC>
0

>  <NtsC>
0

>  <NdssC>
1

>  <NaasC>
3

>  <NaaaC>
2

>  <NssssC>
1

>  <NsNH3>
0

>  <NsNH2>
0

>  <NssNH2>
0

>  <NdNH>
0

>  <NssNH>
1

>  <NaaNH>
1

>  <NtN>
0

>  <NsssNH>
0

>  <NdsN>
0

>  <NaaN>
0

>  <NsssN>
0

>  <NddsN>
0

>  <NaasN>
0

>  <NssssN>
0

>  <NsOH>
0

>  <NdO>
1

>  <NssO>
2

>  <NaaO>
0

>  <NsF>
0

>  <NsSiH3>
0

>  <NssSiH2>
0

>  <NsssSiH>
0

>  <NssssSi>
0

>  <NsPH2>
0

>  <NssPH>
0

>  <NsssP>
0

>  <NdsssP>
0

>  <NsssssP>
0

>  <NsSH>
0

>  <NdS>
0

>  <NssS>
0

>  <NaaS>
0

>  <NdssS>
0

>  <NddssS>
0

>  <NsCl>
0

>  <NsBr>
0

>  <NsI>
0

>  <fragCpx>
144.05

>  <fMF>
0.36

>  <nHBAcc>
4

>  <nHBDon>
2

>  <Kier1>
22.68

>  <Kier2>
10.35

>  <Lipinski>
1

>  <GhoseFilter>
1

>  <FilterItLogS>
-6.31

>  <VMcGowan>
305.52

>  <LabuteASA>
165.6

>  <PEOE_VSA1>
19.77

>  <PEOE_VSA2>
0

>  <PEOE_VSA3>
4.79

>  <PEOE_VSA4>
0

>  <PEOE_VSA5>
0

>  <PEOE_VSA6>
24.27

>  <PEOE_VSA7>
58.03

>  <PEOE_VSA8>
28.68

>  <PEOE_VSA9>
5.56

>  <PEOE_VSA10>
18.46

>  <PEOE_VSA11>
0

>  <PEOE_VSA12>
0

>  <PEOE_VSA13>
0

>  <SMR_VSA1>
14.27

>  <SMR_VSA2>
0

>  <SMR_VSA3>
10.3

>  <SMR_VSA4>
0

>  <SMR_VSA5>
39.34

>  <SMR_VSA6>
13.15

>  <SMR_VSA7>
65.85

>  <SMR_VSA8>
0

>  <SMR_VSA9>
5.75

>  <SlogP_VSA1>
10.05

>  <SlogP_VSA2>
35.75

>  <SlogP_VSA3>
4.74

>  <SlogP_VSA4>
6.92

>  <SlogP_VSA5>
36.82

>  <SlogP_VSA6>
54.6

>  <SlogP_VSA7>
0

>  <SlogP_VSA8>
10.9

>  <SlogP_VSA9>
0

>  <SlogP_VSA10>
0

>  <SlogP_VSA11>
5.75

>  <EState_VSA1>
6.1

>  <EState_VSA2>
18.12

>  <EState_VSA3>
12.11

>  <EState_VSA4>
22.35

>  <EState_VSA5>
0

>  <EState_VSA6>
12.13

>  <EState_VSA7>
43.32

>  <EState_VSA8>
37.14

>  <EState_VSA9>
9.47

>  <EState_VSA10>
4.79

>  <VSA_EState1>
11.8

>  <VSA_EState2>
15.8

>  <VSA_EState3>
4.42

>  <VSA_EState4>
2.55

>  <VSA_EState5>
0.43

>  <VSA_EState6>
16.98

>  <VSA_EState7>
-0.41

>  <VSA_EState8>
9.02

>  <VSA_EState9>
0

>  <apol>
61.69

>  <bpol>
33.57

>  <nRing>
3

>  <nHRing>
1

>  <naRing>
3

>  <naHRing>
1

>  <nARing 2>
0

>  <nAHRing 2>
0

>  <nFRing>
1

>  <nFHRing>
1

>  <nFaRing>
1

>  <nFaHRing>
1

>  <nFARing 2>
0

>  <nFAHRing 2>
0

>  <nRot>
7

>  <SLogP>
4.47

>  <SMR>
111.93

>  <TopoPSA(NO)>
63.35

>  <TopoPSA>
63.35

>  <JGI1>
0.23

>  <JGI2>
0.07

>  <JGI3>
0.04

>  <JGI4>
0.04

>  <JGI5>
0.02

>  <Diameter>
13

>  <Radius>
7

>  <TMWC10>
133.35

>  <TSRW10>
76.99

>  <MW>
380.21

>  <AMW>
6.79

>  <WPath>
2184

>  <WPol>
38

>  <Zagreb1>
144

>  <Zagreb2>
163

>  <mZagreb2>
6.04

>  <yes>


>  <nAR-cont>
0.336376

>  <nHA-cont>
0.82432561

>  <MWHBN>
0.307708493

>  <MWHBN-cont>
0.817113185

>  <TPSA-cont>
0.557777662

>  <pka_cont>
0.97

>  <yes.1>


>  <BBB_SCORE>
3.986926712

>  <MMFF94 Energy>
88.703

$$$$
Compound 2821
Actelion Java MolfileCreator 2.0

  0  0  0  0  0  0              0 V3000
M  V30 BEGIN CTAB
M  V30 COUNTS 44 47 0 0 0
M  V30 BEGIN ATOM
M  V30 1 Cl -2.515 1.3407 -2.0116 0
M  V30 2 C -3.2699 -0.1515 -1.7344 0
M  V30 3 C -3.3976 -0.8451 -0.554 0
M  V30 4 C -3.9028 -0.9666 -2.7005 0
M  V30 5 O -4.0769 -2.0003 -0.7995 0
M  V30 6 N -2.8834 -0.4166 0.7453 0
M  V30 7 N -4.3792 -2.0898 -2.1477 0
M  V30 8 C -4.0693 -0.7194 -4.1509 0
M  V30 9 S -2.4289 -1.6806 1.757 0
M  V30 10 O -1.6506 -1.1315 2.8465 0
M  V30 11 O -3.558 -2.5504 2.0003 0
M  V30 12 C -1.2649 -2.6835 0.9331 0
M  V30 13 C -0.0505 -2.2247 0.4477 0
M  V30 14 C -1.4483 -4.0851 0.7232 0
M  V30 15 S 0.8515 -3.5081 -0.2466 0
M  V30 16 C 0.4524 -0.8527 0.4398 0
M  V30 17 C -0.3696 -4.6538 0.0866 0
M  V30 18 O -0.3302 0.1001 0.4154 0
M  V30 19 C 1.9661 -0.6442 0.4354 0
M  V30 20 C 2.3879 0.7893 0.6984 0
M  V30 21 C 2.5024 1.7477 -0.349 0
M  V30 22 C 2.6395 1.1766 2.0299 0
M  V30 23 C 2.8918 3.0663 -0.0491 0
M  V30 24 C 2.2292 1.3877 -1.7849 0
M  V30 25 C 3.0121 2.4797 2.2764 0
M  V30 26 C 3.1365 3.3981 1.2656 0
M  V30 27 O 3.2949 3.0077 3.4971 0
M  V30 28 O 3.514 4.6232 1.7192 0
M  V30 29 C 3.5979 4.3715 3.1374 0
M  V30 30 H -2.1105 0.2623 0.6749 0
M  V30 31 H -4.6221 0.2102 -4.3198 0
M  V30 32 H -4.6197 -1.5308 -4.6384 0
M  V30 33 H -3.0929 -0.6347 -4.6385 0
M  V30 34 H -2.3261 -4.6457 1.0287 0
M  V30 35 H -0.24 -5.6908 -0.1947 0
M  V30 36 H 2.375 -0.9748 -0.525 0
M  V30 37 H 2.4104 -1.2852 1.2075 0
M  V30 38 H 2.5433 0.4793 2.8563 0
M  V30 39 H 2.995 3.8192 -0.8238 0
M  V30 40 H 2.9936 0.6959 -2.1518 0
M  V30 41 H 2.2424 2.2728 -2.4299 0
M  V30 42 H 1.2406 0.9299 -1.8869 0
M  V30 43 H 4.6142 4.605 3.4748 0
M  V30 44 H 2.8949 5.0354 3.6539 0
M  V30 END ATOM
M  V30 BEGIN BOND
M  V30 1 1 1 2
M  V30 2 2 2 3
M  V30 3 1 2 4
M  V30 4 1 3 5
M  V30 5 1 3 6
M  V30 6 2 4 7
M  V30 7 1 4 8
M  V30 8 1 6 9
M  V30 9 2 9 10
M  V30 10 2 9 11
M  V30 11 1 9 12
M  V30 12 2 12 13
M  V30 13 1 12 14
M  V30 14 1 13 15
M  V30 15 1 13 16
M  V30 16 2 14 17
M  V30 17 2 16 18
M  V30 18 1 16 19
M  V30 19 1 19 20
M  V30 20 2 20 21
M  V30 21 1 20 22
M  V30 22 1 21 23
M  V30 23 1 21 24
M  V30 24 2 22 25
M  V30 25 2 23 26
M  V30 26 1 25 27
M  V30 27 1 26 28
M  V30 28 1 27 29
M  V30 29 1 5 7
M  V30 30 1 15 17
M  V30 31 1 25 26
M  V30 32 1 28 29
M  V30 33 1 6 30
M  V30 34 1 8 31
M  V30 35 1 8 32
M  V30 36 1 8 33
M  V30 37 1 14 34
M  V30 38 1 17 35
M  V30 39 1 19 36
M  V30 40 1 19 37
M  V30 41 1 22 38
M  V30 42 1 23 39
M  V30 43 1 24 40
M  V30 44 1 24 41
M  V30 45 1 24 42
M  V30 46 1 29 43
M  V30 47 1 29 44
M  V30 END BOND
M  V30 END CTAB
M  END
>  <Column 1>
3570

>  <level_0>
5834

>  <index>
5835

>  <Unnamed: 0>
5835

>  <NO.>
5847

>  <Name>
sitaxentan

>  <IUPAC_name>
n-(4-chloro-3-methyl-1-2-oxazol-5-yl)-2-[2-(6-methyl-1-3-benzodioxol-5-yl)acetyl]thiophene-3-sulfonamide

>  <SMILES>
Cc1cc2c(cc1CC(=O)c1sccc1S(=O)(=O)Nc1onc(C)c1Cl)OCO2

>  <CID>
216235

>  <logBB>


>  <BBB+/BBB->
BBB-

>  <Inchi>
InChI=1S/C18H15ClN2O6S2/c1-9-5-13-14(26-8-25-13)7-11(9)6-12(22)17-15(3-4-28-17)29(23-24)21-18-16(19)10(2)20-27-18/h3-5-7-21H-6-8H2-1-2H3

>  <threshold>


>  <reference>
R23|

>  <group>
C

>  <Class>
-1

>  <ABC>
23.08

>  <ABCGG>
20.04

>  <nAcid>
0

>  <nBase>
0

>  <nAromAtom>
16

>  <nAromBond>
16

>  <nAtom>
44

>  <nHeavyAtom>
29

>  <nSpiro>
0

>  <nBridgehead>
0

>  <nHetero>
11

>  <nN>
2

>  <nO>
6

>  <nF>
0

>  <BalabanJ>
1.37

>  <BertzCT>
1215.16

>  <nBonds>
47

>  <nBondsO>
32

>  <nBondsS>
28

>  <nBondsD>
3

>  <nBondsT>
0

>  <nBondsA>
16

>  <nBondsM>
19

>  <nBondsKS>
37

>  <nBondsKD>
10

>  <RNCG>
0.17

>  <RPCG>
0.1

>  <FCSP3>
0.22

>  <SZ>
39

>  <Sm>
37.87

>  <Sv>
31.33

>  <Sse>
45.89

>  <Sp>
32.97

>  <Si>
48.94

>  <MZ>
0.89

>  <Mm>
0.86

>  <Mv>
0.71

>  <Mse>
1.04

>  <Mp>
0.75

>  <Mi>
1.11

>  <NsCH3>
2

>  <NdCH2>
0

>  <NssCH2>
2

>  <NtCH>
0

>  <NdsCH>
0

>  <NaaCH>
4

>  <NsssCH>
0

>  <NddC>
0

>  <NtsC>
0

>  <NdssC>
1

>  <NaasC>
9

>  <NaaaC>
0

>  <NssssC>
0

>  <NsNH3>
0

>  <NsNH2>
0

>  <NssNH2>
0

>  <NdNH>
0

>  <NssNH>
1

>  <NaaNH>
0

>  <NtN>
0

>  <NsssNH>
0

>  <NdsN>
0

>  <NaaN>
1

>  <NsssN>
0

>  <NddsN>
0

>  <NaasN>
0

>  <NssssN>
0

>  <NsOH>
0

>  <NdO>
3

>  <NssO>
2

>  <NaaO>
1

>  <NsF>
0

>  <NsSiH3>
0

>  <NssSiH2>
0

>  <NsssSiH>
0

>  <NssssSi>
0

>  <NsPH2>
0

>  <NssPH>
0

>  <NsssP>
0

>  <NdsssP>
0

>  <NsssssP>
0

>  <NsSH>
0

>  <NdS>
0

>  <NssS>
0

>  <NaaS>
1

>  <NdssS>
0

>  <NddssS>
1

>  <NsCl>
1

>  <NsBr>
0

>  <NsI>
0

>  <fragCpx>
212.11

>  <fMF>
0.52

>  <nHBAcc>
8

>  <nHBDon>
1

>  <Kier1>
22.2

>  <Kier2>
8.86

>  <Lipinski>
1

>  <GhoseFilter>
1

>  <FilterItLogS>
-6.28

>  <VMcGowan>
286.76

>  <LabuteASA>
174.97

>  <PEOE_VSA1>
14

>  <PEOE_VSA2>
4.79

>  <PEOE_VSA3>
13.14

>  <PEOE_VSA4>
0

>  <PEOE_VSA5>
11.34

>  <PEOE_VSA6>
16.76

>  <PEOE_VSA7>
48.55

>  <PEOE_VSA8>
6.42

>  <PEOE_VSA9>
4.88

>  <PEOE_VSA10>
15.61

>  <PEOE_VSA11>
17.28

>  <PEOE_VSA12>
6.79

>  <PEOE_VSA13>
15.91

>  <SMR_VSA1>
27.21

>  <SMR_VSA2>
0

>  <SMR_VSA3>
5.16

>  <SMR_VSA4>
0

>  <SMR_VSA5>
25.16

>  <SMR_VSA6>
11.52

>  <SMR_VSA7>
50.3

>  <SMR_VSA8>
0

>  <SMR_VSA9>
11.5

>  <SlogP_VSA1>
14.2

>  <SlogP_VSA2>
26.15

>  <SlogP_VSA3>
16.44

>  <SlogP_VSA4>
13.85

>  <SlogP_VSA5>
26.49

>  <SlogP_VSA6>
33

>  <SlogP_VSA7>
5.02

>  <SlogP_VSA8>
0

>  <SlogP_VSA9>
0

>  <SlogP_VSA10>
5.88

>  <SlogP_VSA11>
11.5

>  <EState_VSA1>
10.02

>  <EState_VSA2>
39.68

>  <EState_VSA3>
17.19

>  <EState_VSA4>
22.46

>  <EState_VSA5>
6.07

>  <EState_VSA6>
24.44

>  <EState_VSA7>
6.92

>  <EState_VSA8>
9.88

>  <EState_VSA9>
25.6

>  <EState_VSA10>
13.21

>  <VSA_EState1>
43.4

>  <VSA_EState2>
12.87

>  <VSA_EState3>
5.22

>  <VSA_EState4>
1.94

>  <VSA_EState5>
0.67

>  <VSA_EState6>
4.91

>  <VSA_EState7>
0.02

>  <VSA_EState8>
3.57

>  <VSA_EState9>
-4.09

>  <apol>
55.05

>  <bpol>
31.32

>  <nRing>
4

>  <nHRing>
3

>  <naRing>
3

>  <naHRing>
2

>  <nARing 2>
1

>  <nAHRing 2>
1

>  <nFRing>
1

>  <nFHRing>
1

>  <nFaRing>
0

>  <nFaHRing>
0

>  <nFARing 2>
1

>  <nFAHRing 2>
1

>  <nRot>
6

>  <SLogP>
3.96

>  <SMR>
106.71

>  <TopoPSA(NO)>
107.73

>  <TopoPSA>
144.35

>  <JGI1>
0.23

>  <JGI2>
0.1

>  <JGI3>
0.06

>  <JGI4>
0.05

>  <JGI5>
0.02

>  <Diameter>
14

>  <Radius>
7

>  <TMWC10>
138.9

>  <TSRW10>
81.85

>  <MW>
454.01

>  <AMW>
10.32

>  <WPath>
2310

>  <WPol>
46

>  <Zagreb1>
160

>  <Zagreb2>
192

>  <mZagreb2>
6.13

>  <yes>


>  <nAR-cont>
0.816016

>  <nHA-cont>
0.785905698

>  <MWHBN>
0.422386277

>  <MWHBN-cont>
0.38877246

>  <TPSA-cont>
0

>  <pka_cont>
0.97

>  <yes.1>


>  <BBB_SCORE>
2.670080389

>  <MMFF94 Energy>
-11.543

$$$$
Compound 2822
Actelion Java MolfileCreator 2.0

  0  0  0  0  0  0              0 V3000
M  V30 BEGIN CTAB
M  V30 COUNTS 25 26 0 0 0
M  V30 BEGIN ATOM
M  V30 1 O 0.4746 2.6126 -0.7911 0
M  V30 2 C 0.8055 1.4351 -0.9141 0
M  V30 3 N 0.2352 0.3422 -0.249 0
M  V30 4 C 1.9156 1.1063 -1.8524 0
M  V30 5 C -0.8251 0.5928 0.6564 0
M  V30 6 C 0.6768 -0.9571 -0.4527 0
M  V30 7 C 2.3139 -0.1604 -2.0224 0
M  V30 8 C -0.5465 0.8333 2.005 0
M  V30 9 C -2.1472 0.5719 0.2028 0
M  V30 10 C 1.6779 -1.2408 -1.3006 0
M  V30 11 C -1.594 1.0551 2.9 0
M  V30 12 C -3.1915 0.7942 1.1013 0
M  V30 13 C 2.1786 -2.6311 -1.5437 0
M  V30 14 C -2.9146 1.0345 2.4482 0
M  V30 15 H 2.3675 1.9394 -2.3747 0
M  V30 16 H 0.1668 -1.7325 0.1128 0
M  V30 17 H 3.1235 -0.3917 -2.7078 0
M  V30 18 H 0.4807 0.857 2.3571 0
M  V30 19 H -2.3644 0.3922 -0.8462 0
M  V30 20 H -1.3806 1.2504 3.9476 0
M  V30 21 H -4.2202 0.7866 0.7506 0
M  V30 22 H 1.6308 -3.3707 -0.9497 0
M  V30 23 H 2.0643 -2.9025 -2.5986 0
M  V30 24 H 3.238 -2.7107 -1.2772 0
M  V30 25 H -3.7292 1.2133 3.1458 0
M  V30 END ATOM
M  V30 BEGIN BOND
M  V30 1 2 1 2
M  V30 2 1 2 3
M  V30 3 1 2 4
M  V30 4 1 3 5
M  V30 5 1 3 6
M  V30 6 2 4 7
M  V30 7 2 5 8
M  V30 8 1 5 9
M  V30 9 2 6 10
M  V30 10 1 8 11
M  V30 11 2 9 12
M  V30 12 1 10 13
M  V30 13 2 11 14
M  V30 14 1 7 10
M  V30 15 1 12 14
M  V30 16 1 4 15
M  V30 17 1 6 16
M  V30 18 1 7 17
M  V30 19 1 8 18
M  V30 20 1 9 19
M  V30 21 1 11 20
M  V30 22 1 12 21
M  V30 23 1 13 22
M  V30 24 1 13 23
M  V30 25 1 13 24
M  V30 26 1 14 25
M  V30 END BOND
M  V30 END CTAB
M  END
>  <Column 1>
3572

>  <level_0>
5836

>  <index>
5837

>  <Unnamed: 0>
5837

>  <NO.>
5849

>  <Name>
pirfenidone

>  <IUPAC_name>
5-methyl-1-phenylpyridin-2-one

>  <SMILES>
Cc1ccc(=O)n(-c2ccccc2)c1

>  <CID>
40632

>  <logBB>


>  <BBB+/BBB->
BBB-

>  <Inchi>
InChI=1S/C12H11NO/c1-10-7-8-12(14)13(9-10)11-5-3-2-4-6-11/h2-9H-1H3

>  <threshold>


>  <reference>
R23|

>  <group>
C

>  <Class>
-1

>  <ABC>
10.74

>  <ABCGG>
9.33

>  <nAcid>
0

>  <nBase>
0

>  <nAromAtom>
12

>  <nAromBond>
12

>  <nAtom>
25

>  <nHeavyAtom>
14

>  <nSpiro>
0

>  <nBridgehead>
0

>  <nHetero>
2

>  <nN>
1

>  <nO>
1

>  <nF>
0

>  <BalabanJ>
1.92

>  <BertzCT>
485.17

>  <nBonds>
26

>  <nBondsO>
15

>  <nBondsS>
13

>  <nBondsD>
1

>  <nBondsT>
0

>  <nBondsA>
12

>  <nBondsM>
13

>  <nBondsKS>
20

>  <nBondsKD>
6

>  <RNCG>
0.3

>  <RPCG>
0.27

>  <FCSP3>
0.08

>  <SZ>
16.33

>  <Sm>
15.42

>  <Sv>
16.45

>  <Sse>
24.88

>  <Sp>
17.53

>  <Si>
27.78

>  <MZ>
0.65

>  <Mm>
0.62

>  <Mv>
0.66

>  <Mse>
1

>  <Mp>
0.7

>  <Mi>
1.11

>  <NsCH3>
1

>  <NdCH2>
0

>  <NssCH2>
0

>  <NtCH>
0

>  <NdsCH>
0

>  <NaaCH>
8

>  <NsssCH>
0

>  <NddC>
0

>  <NtsC>
0

>  <NdssC>
0

>  <NaasC>
2

>  <NaaaC>
0

>  <NssssC>
0

>  <NsNH3>
0

>  <NsNH2>
0

>  <NssNH2>
0

>  <NdNH>
0

>  <NssNH>
0

>  <NaaNH>
0

>  <NtN>
0

>  <NsssNH>
0

>  <NdsN>
0

>  <NaaN>
0

>  <NsssN>
0

>  <NddsN>
0

>  <NaasN>
1

>  <NssssN>
0

>  <NsOH>
0

>  <NdO>
1

>  <NssO>
0

>  <NaaO>
0

>  <NsF>
0

>  <NsSiH3>
0

>  <NssSiH2>
0

>  <NsssSiH>
0

>  <NssssSi>
0

>  <NsPH2>
0

>  <NssPH>
0

>  <NsssP>
0

>  <NdsssP>
0

>  <NsssssP>
0

>  <NsSH>
0

>  <NdS>
0

>  <NssS>
0

>  <NaaS>
0

>  <NdssS>
0

>  <NddssS>
0

>  <NsCl>
0

>  <NsBr>
0

>  <NsI>
0

>  <fragCpx>
43.02

>  <fMF>
0.48

>  <nHBAcc>
2

>  <nHBDon>
0

>  <Kier1>
10.52

>  <Kier2>
4.68

>  <Lipinski>
1

>  <GhoseFilter>
1

>  <FilterItLogS>
-2.8

>  <VMcGowan>
148.27

>  <LabuteASA>
82.44

>  <PEOE_VSA1>
0

>  <PEOE_VSA2>
9.36

>  <PEOE_VSA3>
0

>  <PEOE_VSA4>
0

>  <PEOE_VSA5>
0

>  <PEOE_VSA6>
24.27

>  <PEOE_VSA7>
24.62

>  <PEOE_VSA8>
17.95

>  <PEOE_VSA9>
0

>  <PEOE_VSA10>
0

>  <PEOE_VSA11>
0

>  <PEOE_VSA12>
0

>  <PEOE_VSA13>
5.56

>  <SMR_VSA1>
0

>  <SMR_VSA2>
0

>  <SMR_VSA3>
4.57

>  <SMR_VSA4>
0

>  <SMR_VSA5>
6.92

>  <SMR_VSA6>
0

>  <SMR_VSA7>
64.58

>  <SMR_VSA8>
0

>  <SMR_VSA9>
5.69

>  <SlogP_VSA1>
5.56

>  <SlogP_VSA2>
4.57

>  <SlogP_VSA3>
0

>  <SlogP_VSA4>
6.92

>  <SlogP_VSA5>
5.56

>  <SlogP_VSA6>
53.46

>  <SlogP_VSA7>
0

>  <SlogP_VSA8>
5.69

>  <SlogP_VSA9>
0

>  <SlogP_VSA10>
0

>  <SlogP_VSA11>
0

>  <EState_VSA1>
0

>  <EState_VSA2>
5.56

>  <EState_VSA3>
0

>  <EState_VSA4>
11.25

>  <EState_VSA5>
0

>  <EState_VSA6>
10.63

>  <EState_VSA7>
49.52

>  <EState_VSA8>
0

>  <EState_VSA9>
0

>  <EState_VSA10>
4.79

>  <VSA_EState1>
1.65

>  <VSA_EState2>
11.53

>  <VSA_EState3>
0

>  <VSA_EState4>
1.98

>  <VSA_EState5>
0

>  <VSA_EState6>
13.02

>  <VSA_EState7>
1.84

>  <VSA_EState8>
1.97

>  <VSA_EState9>
0

>  <apol>
29.28

>  <bpol>
13.61

>  <nRing>
2

>  <nHRing>
1

>  <naRing>
2

>  <naHRing>
1

>  <nARing 2>
0

>  <nAHRing 2>
0

>  <nFRing>
0

>  <nFHRing>
0

>  <nFaRing>
0

>  <nFaHRing>
0

>  <nFARing 2>
0

>  <nFAHRing 2>
0

>  <nRot>
1

>  <SLogP>
2.15

>  <SMR>
56.78

>  <TopoPSA(NO)>
22

>  <TopoPSA>
22

>  <JGI1>
0.17

>  <JGI2>
0.08

>  <JGI3>
0.05

>  <JGI4>
0.05

>  <JGI5>
0.02

>  <Diameter>
7

>  <Radius>
4

>  <TMWC10>
97.72

>  <TSRW10>
45.55

>  <MW>
185.08

>  <AMW>
7.4

>  <WPath>
293

>  <WPol>
19

>  <Zagreb1>
70

>  <Zagreb2>
80

>  <mZagreb2>
3.14

>  <yes>


>  <nAR-cont>
0.336376

>  <nHA-cont>
0.887625254

>  <MWHBN>
0.147011142

>  <MWHBN-cont>
0.924512365

>  <TPSA-cont>
0.846426339

>  <pka_cont>
0.97

>  <yes.1>


>  <BBB_SCORE>
4.78862248

>  <MMFF94 Energy>
40.751

$$$$
Compound 2823
Actelion Java MolfileCreator 2.0

  0  0  0  0  0  0              0 V3000
M  V30 BEGIN CTAB
M  V30 COUNTS 66 70 0 0 0
M  V30 BEGIN ATOM
M  V30 1 F 0.2414 1.7713 -3.9485 0
M  V30 2 C -0.8744 2.5054 -3.6549 0
M  V30 3 F -1.625 2.4532 -4.7922 0
M  V30 4 F -0.4302 3.7879 -3.5365 0
M  V30 5 C -1.5919 2.0042 -2.4153 0
M  V30 6 C -2.9515 2.2901 -2.1518 0
M  V30 7 C -0.8553 1.2542 -1.4716 0
M  V30 8 C -3.5339 1.8044 -0.9686 0
M  V30 9 C -3.8091 3.1083 -3.101 0
M  V30 10 C -1.4457 0.7703 -0.303 0
M  V30 11 C -2.7883 1.0571 -0.0548 0
M  V30 12 N -3.2841 4.4608 -3.3052 0
M  V30 13 N -0.7461 0.0336 0.6734 0
M  V30 14 C -3.9481 5.1043 -4.4571 0
M  V30 15 C -3.4523 5.3138 -2.1104 0
M  V30 16 C 0.4461 -0.6448 0.494 0
M  V30 17 C -3.45 6.5484 -4.6911 0
M  V30 18 C -2.955 6.7585 -2.349 0
M  V30 19 O 1.0512 -0.7872 -0.5611 0
M  V30 20 C 0.9878 -1.2955 1.7192 0
M  V30 21 N -3.6304 7.3959 -3.4961 0
M  V30 22 C 1.6475 -2.522 1.5876 0
M  V30 23 C 0.8761 -0.6969 2.9791 0
M  V30 24 C -3.0952 8.7352 -3.7296 0
M  V30 25 C 2.1688 -3.167 2.7143 0
M  V30 26 C 1.3981 -1.339 4.1048 0
M  V30 27 C 2.8287 -4.4268 2.5389 0
M  V30 28 C 2.0427 -2.5806 3.9873 0
M  V30 29 C 3.3844 -5.4837 2.411 0
M  V30 30 C 2.5989 -3.2475 5.2173 0
M  V30 31 C 4.044 -6.7331 2.2798 0
M  V30 32 N 4.5523 -7.4935 3.3055 0
M  V30 33 C 4.316 -7.4429 1.1314 0
M  V30 34 N 4.5155 -7.1871 4.6423 0
M  V30 35 C 5.1062 -8.6259 2.7224 0
M  V30 36 N 4.9736 -8.6163 1.4123 0
M  V30 37 C 5.0759 -8.093 5.3789 0
M  V30 38 C 5.7013 -9.574 3.5849 0
M  V30 39 C 5.7074 -9.348 4.9042 0
M  V30 40 H 0.1983 1.0653 -1.6709 0
M  V30 41 H -4.5792 2.012 -0.7462 0
M  V30 42 H -4.8478 3.1486 -2.7456 0
M  V30 43 H -3.8479 2.557 -4.0494 0
M  V30 44 H -3.2776 0.6995 0.8473 0
M  V30 45 H -1.2138 -0.0794 1.5631 0
M  V30 46 H -3.7448 4.525 -5.366 0
M  V30 47 H -5.0373 5.1183 -4.314 0
M  V30 48 H -2.8808 4.9025 -1.2703 0
M  V30 49 H -4.507 5.3444 -1.805 0
M  V30 50 H -4.0151 6.9743 -5.529 0
M  V30 51 H -2.3932 6.5188 -4.9897 0
M  V30 52 H -1.8669 6.742 -2.4997 0
M  V30 53 H -3.1505 7.3419 -1.441 0
M  V30 54 H 1.7518 -2.9737 0.6021 0
M  V30 55 H 0.4158 0.2803 3.0984 0
M  V30 56 H -2.0227 8.7229 -3.9553 0
M  V30 57 H -3.6171 9.216 -4.5644 0
M  V30 58 H -3.2548 9.3701 -2.851 0
M  V30 59 H 1.3091 -0.858 5.0773 0
M  V30 60 H 2.1476 -4.2357 5.3537 0
M  V30 61 H 2.3866 -2.6638 6.1196 0
M  V30 62 H 3.6861 -3.3482 5.1372 0
M  V30 63 H 4.072 -7.1695 0.1125 0
M  V30 64 H 5.1015 -7.9447 6.4717 0
M  V30 65 H 6.1412 -10.4659 3.1541 0
M  V30 66 H 6.1431 -10.0248 5.6258 0
M  V30 END ATOM
M  V30 BEGIN BOND
M  V30 1 1 1 2
M  V30 2 1 2 3
M  V30 3 1 2 4
M  V30 4 1 2 5
M  V30 5 2 5 6
M  V30 6 1 5 7
M  V30 7 1 6 8
M  V30 8 1 6 9
M  V30 9 2 7 10
M  V30 10 2 8 11
M  V30 11 1 9 12
M  V30 12 1 10 13
M  V30 13 1 12 14
M  V30 14 1 12 15
M  V30 15 1 13 16
M  V30 16 1 14 17
M  V30 17 1 15 18
M  V30 18 2 16 19
M  V30 19 1 16 20
M  V30 20 1 17 21
M  V30 21 2 20 22
M  V30 22 1 20 23
M  V30 23 1 21 24
M  V30 24 1 22 25
M  V30 25 2 23 26
M  V30 26 1 25 27
M  V30 27 2 25 28
M  V30 28 3 27 29
M  V30 29 1 28 30
M  V30 30 1 29 31
M  V30 31 1 31 32
M  V30 32 2 31 33
M  V30 33 1 32 34
M  V30 34 1 32 35
M  V30 35 1 33 36
M  V30 36 2 34 37
M  V30 37 1 35 38
M  V30 38 1 37 39
M  V30 39 1 10 11
M  V30 40 1 18 21
M  V30 41 1 26 28
M  V30 42 2 35 36
M  V30 43 2 38 39
M  V30 44 1 7 40
M  V30 45 1 8 41
M  V30 46 1 9 42
M  V30 47 1 9 43
M  V30 48 1 11 44
M  V30 49 1 13 45
M  V30 50 1 14 46
M  V30 51 1 14 47
M  V30 52 1 15 48
M  V30 53 1 15 49
M  V30 54 1 17 50
M  V30 55 1 17 51
M  V30 56 1 18 52
M  V30 57 1 18 53
M  V30 58 1 22 54
M  V30 59 1 23 55
M  V30 60 1 24 56
M  V30 61 1 24 57
M  V30 62 1 24 58
M  V30 63 1 26 59
M  V30 64 1 30 60
M  V30 65 1 30 61
M  V30 66 1 30 62
M  V30 67 1 33 63
M  V30 68 1 37 64
M  V30 69 1 38 65
M  V30 70 1 39 66
M  V30 END BOND
M  V30 END CTAB
M  END
>  <Column 1>
3573

>  <level_0>
5837

>  <index>
5838

>  <Unnamed: 0>
5838

>  <NO.>
5850

>  <Name>
ponatinib

>  <IUPAC_name>
3-(2-imidazo[1-2-b]pyridazin-3-ylethynyl)-4-methyl-n-[4-[(4-methylpiperazin-1-yl)methyl]-3-(trifluoromethyl)phenyl]benzamide

>  <SMILES>
Cc1ccc(C(=O)Nc2ccc(CN3CCN(C)CC3)c(C(F)(F)F)c2)cc1C#Cc1cnc2cccnn12

>  <CID>
24826799

>  <logBB>


>  <BBB+/BBB->
BBB-

>  <Inchi>
InChI=1S/C29H27F3N6O/c1-20-5-6-22(16-21(20)8-10-25-18-33-27-4-3-11-34-38(25)27)28(39)35-24-9-7-23(26(17-24)29(30-31)32)19-37-14-12-36(2)13-15-37/h3-7-9-11-16-18H-12-15-19H2-1-2H3-(H-35-39)

>  <threshold>


>  <reference>
R23|

>  <group>
C

>  <Class>
-1

>  <ABC>
30.95

>  <ABCGG>
22.34

>  <nAcid>
0

>  <nBase>
2

>  <nAromAtom>
21

>  <nAromBond>
22

>  <nAtom>
66

>  <nHeavyAtom>
39

>  <nSpiro>
0

>  <nBridgehead>
0

>  <nHetero>
10

>  <nN>
6

>  <nO>
1

>  <nF>
3

>  <BalabanJ>
1.1

>  <BertzCT>
1575.42

>  <nBonds>
70

>  <nBondsO>
43

>  <nBondsS>
46

>  <nBondsD>
1

>  <nBondsT>
1

>  <nBondsA>
22

>  <nBondsM>
24

>  <nBondsKS>
58

>  <nBondsKD>
11

>  <RNCG>
0.11

>  <RPCG>
0.15

>  <FCSP3>
0.28

>  <SZ>
46.33

>  <Sm>
44.34

>  <Sv>
43.52

>  <Sse>
67.17

>  <Sp>
45.21

>  <Si>
75.2

>  <MZ>
0.7

>  <Mm>
0.67

>  <Mv>
0.66

>  <Mse>
1.02

>  <Mp>
0.69

>  <Mi>
1.14

>  <NsCH3>
2

>  <NdCH2>
0

>  <NssCH2>
5

>  <NtCH>
0

>  <NdsCH>
0

>  <NaaCH>
10

>  <NsssCH>
0

>  <NddC>
0

>  <NtsC>
2

>  <NdssC>
1

>  <NaasC>
7

>  <NaaaC>
1

>  <NssssC>
1

>  <NsNH3>
0

>  <NsNH2>
0

>  <NssNH2>
0

>  <NdNH>
0

>  <NssNH>
1

>  <NaaNH>
0

>  <NtN>
0

>  <NsssNH>
0

>  <NdsN>
0

>  <NaaN>
2

>  <NsssN>
2

>  <NddsN>
0

>  <NaasN>
1

>  <NssssN>
0

>  <NsOH>
0

>  <NdO>
1

>  <NssO>
0

>  <NaaO>
0

>  <NsF>
3

>  <NsSiH3>
0

>  <NssSiH2>
0

>  <NsssSiH>
0

>  <NssssSi>
0

>  <NsPH2>
0

>  <NssPH>
0

>  <NsssP>
0

>  <NdsssP>
0

>  <NsssssP>
0

>  <NsSH>
0

>  <NdS>
0

>  <NssS>
0

>  <NaaS>
0

>  <NdssS>
0

>  <NddssS>
0

>  <NsCl>
0

>  <NsBr>
0

>  <NsI>
0

>  <fragCpx>
367.1

>  <fMF>
0.48

>  <nHBAcc>
6

>  <nHBDon>
1

>  <Kier1>
30.46

>  <Kier2>
13.53

>  <Lipinski>
0

>  <GhoseFilter>
0

>  <FilterItLogS>
-6.95

>  <VMcGowan>
380.3

>  <LabuteASA>
223.81

>  <PEOE_VSA1>
10.22

>  <PEOE_VSA2>
9.69

>  <PEOE_VSA3>
9.5

>  <PEOE_VSA4>
18.27

>  <PEOE_VSA5>
0

>  <PEOE_VSA6>
18.05

>  <PEOE_VSA7>
67.42

>  <PEOE_VSA8>
55.73

>  <PEOE_VSA9>
11.76

>  <PEOE_VSA10>
5.69

>  <PEOE_VSA11>
5.65

>  <PEOE_VSA12>
0

>  <PEOE_VSA13>
5.91

>  <SMR_VSA1>
17.97

>  <SMR_VSA2>
0

>  <SMR_VSA3>
24.4

>  <SMR_VSA4>
0

>  <SMR_VSA5>
19.64

>  <SMR_VSA6>
38.54

>  <SMR_VSA7>
94.44

>  <SMR_VSA8>
0

>  <SMR_VSA9>
11.84

>  <SlogP_VSA1>
5.32

>  <SlogP_VSA2>
63.53

>  <SlogP_VSA3>
12.72

>  <SlogP_VSA4>
18.76

>  <SlogP_VSA5>
38.31

>  <SlogP_VSA6>
60.92

>  <SlogP_VSA7>
0

>  <SlogP_VSA8>
5.65

>  <SlogP_VSA9>
0

>  <SlogP_VSA10>
18.86

>  <SlogP_VSA11>
0

>  <EState_VSA1>
17.65

>  <EState_VSA2>
23.36

>  <EState_VSA3>
29.99

>  <EState_VSA4>
24.72

>  <EState_VSA5>
12.13

>  <EState_VSA6>
41.17

>  <EState_VSA7>
24.94

>  <EState_VSA8>
32.14

>  <EState_VSA9>
0

>  <EState_VSA10>
17.97

>  <VSA_EState1>
43.42

>  <VSA_EState2>
21.43

>  <VSA_EState3>
6.85

>  <VSA_EState4>
2.56

>  <VSA_EState5>
5.57

>  <VSA_EState6>
12.58

>  <VSA_EState7>
-1.28

>  <VSA_EState8>
5.12

>  <VSA_EState9>
2

>  <apol>
75.51

>  <bpol>
38.13

>  <nRing>
5

>  <nHRing>
3

>  <naRing>
4

>  <naHRing>
2

>  <nARing 2>
1

>  <nAHRing 2>
1

>  <nFRing>
1

>  <nFHRing>
1

>  <nFaRing>
1

>  <nFaHRing>
1

>  <nFARing 2>
0

>  <nFAHRing 2>
0

>  <nRot>
4

>  <SLogP>
4.46

>  <SMR>
142.32

>  <TopoPSA(NO)>
65.77

>  <TopoPSA>
65.77

>  <JGI1>
0.22

>  <JGI2>
0.08

>  <JGI3>
0.05

>  <JGI4>
0.04

>  <JGI5>
0.03

>  <Diameter>
21

>  <Radius>
11

>  <TMWC10>
161.57

>  <TSRW10>
90.12

>  <MW>
532.22

>  <AMW>
8.06

>  <WPath>
5771

>  <WPol>
62

>  <Zagreb1>
210

>  <Zagreb2>
246

>  <mZagreb2>
8.31

>  <yes>


>  <nAR-cont>
0.816016

>  <nHA-cont>
0.348277641

>  <MWHBN>
0.303425757

>  <MWHBN-cont>
0.830384154

>  <TPSA-cont>
0.540884559

>  <pka_cont>
0.97

>  <yes.1>


>  <BBB_SCORE>
3.976638991

>  <MMFF94 Energy>
141.63

$$$$
Compound 2824
Actelion Java MolfileCreator 2.0

  0  0  0  0  0  0              0 V3000
M  V30 BEGIN CTAB
M  V30 COUNTS 40 42 0 0 0
M  V30 BEGIN ATOM
M  V30 1 O -2.455 -3.248 3.1686 0
M  V30 2 C -1.8485 -2.0376 2.9901 0
M  V30 3 C -0.9587 -1.8248 1.9343 0
M  V30 4 C -2.1484 -1.0269 3.8903 0
M  V30 5 C -0.343 -0.5757 1.7471 0
M  V30 6 C -1.5492 0.2168 3.7354 0
M  V30 7 N 0.5651 -0.3091 0.6913 0
M  V30 8 C -0.659 0.435 2.6779 0
M  V30 9 C 0.7625 0.9479 0.0708 0
M  V30 10 C 1.2824 -1.4559 0.0834 0
M  V30 11 C 2.039 1.4304 -0.2476 0
M  V30 12 C -0.3379 1.7565 -0.2605 0
M  V30 13 C 0.4975 -2.0517 -1.0828 0
M  V30 14 C 2.2107 2.6665 -0.8822 0
M  V30 15 C -0.1721 2.9911 -0.8959 0
M  V30 16 N 0.1709 -3.3229 -1.1158 0
M  V30 17 N 0.0931 -1.3108 -2.1577 0
M  V30 18 C 1.1066 3.4609 -1.2028 0
M  V30 19 C -0.5583 -3.489 -2.4114 0
M  V30 20 C -0.7424 -2.0909 -3.0172 0
M  V30 21 C 1.289 4.771 -1.9094 0
M  V30 22 H -2.1447 -3.8509 2.472 0
M  V30 23 H -0.7704 -2.6426 1.2488 0
M  V30 24 H -2.8405 -1.2089 4.7068 0
M  V30 25 H -1.7658 1.0181 4.4364 0
M  V30 26 H -0.1889 1.4132 2.5987 0
M  V30 27 H 2.2654 -1.1737 -0.3087 0
M  V30 28 H 1.4853 -2.2363 0.8275 0
M  V30 29 H 2.9268 0.8657 0.0232 0
M  V30 30 H -1.3468 1.4131 -0.0396 0
M  V30 31 H 3.2179 3.0075 -1.1121 0
M  V30 32 H -1.0513 3.5814 -1.1443 0
M  V30 33 H 0.14 -0.3001 -2.1833 0
M  V30 34 H -1.524 -3.9746 -2.2378 0
M  V30 35 H 0.0359 -4.1279 -3.0736 0
M  V30 36 H -1.7845 -1.7642 -2.9477 0
M  V30 37 H -0.4169 -2.0509 -4.0602 0
M  V30 38 H 2.2388 5.2378 -1.6279 0
M  V30 39 H 0.4915 5.4728 -1.6434 0
M  V30 40 H 1.2777 4.6165 -2.9926 0
M  V30 END ATOM
M  V30 BEGIN BOND
M  V30 1 1 1 2
M  V30 2 2 2 3
M  V30 3 1 2 4
M  V30 4 1 3 5
M  V30 5 2 4 6
M  V30 6 1 5 7
M  V30 7 2 5 8
M  V30 8 1 7 9
M  V30 9 1 7 10
M  V30 10 2 9 11
M  V30 11 1 9 12
M  V30 12 1 10 13
M  V30 13 1 11 14
M  V30 14 2 12 15
M  V30 15 2 13 16
M  V30 16 1 13 17
M  V30 17 2 14 18
M  V30 18 1 16 19
M  V30 19 1 17 20
M  V30 20 1 18 21
M  V30 21 1 6 8
M  V30 22 1 15 18
M  V30 23 1 19 20
M  V30 24 1 1 22
M  V30 25 1 3 23
M  V30 26 1 4 24
M  V30 27 1 6 25
M  V30 28 1 8 26
M  V30 29 1 10 27
M  V30 30 1 10 28
M  V30 31 1 11 29
M  V30 32 1 12 30
M  V30 33 1 14 31
M  V30 34 1 15 32
M  V30 35 1 17 33
M  V30 36 1 19 34
M  V30 37 1 19 35
M  V30 38 1 20 36
M  V30 39 1 20 37
M  V30 40 1 21 38
M  V30 41 1 21 39
M  V30 42 1 21 40
M  V30 END BOND
M  V30 END CTAB
M  END
>  <Column 1>
3574

>  <level_0>
5838

>  <index>
5839

>  <Unnamed: 0>
5839

>  <NO.>
5851

>  <Name>
phentolamine

>  <IUPAC_name>
3-[n-(4-5-dihydro-1h-imidazol-2-ylmethyl)-4-methylanilino]phenol

>  <SMILES>
Cc1ccc(N(CC2=NCCN2)c2cccc(O)c2)cc1

>  <CID>
5775

>  <logBB>


>  <BBB+/BBB->
BBB-

>  <Inchi>
InChI=1S/C17H19N3O/c1-13-5-7-14(8-6-13)20(12-17-18-9-10-19-17)15-3-2-4-16(21)11-15/h2-8-11-21H-9-10-12H2-1H3-(H-18-19)

>  <threshold>


>  <reference>
R23|

>  <group>
C

>  <Class>
-1

>  <ABC>
16.4

>  <ABCGG>
13.78

>  <nAcid>
0

>  <nBase>
2

>  <nAromAtom>
12

>  <nAromBond>
12

>  <nAtom>
40

>  <nHeavyAtom>
21

>  <nSpiro>
0

>  <nBridgehead>
0

>  <nHetero>
4

>  <nN>
3

>  <nO>
1

>  <nF>
0

>  <BalabanJ>
1.64

>  <BertzCT>
649.34

>  <nBonds>
42

>  <nBondsO>
23

>  <nBondsS>
29

>  <nBondsD>
1

>  <nBondsT>
0

>  <nBondsA>
12

>  <nBondsM>
13

>  <nBondsKS>
35

>  <nBondsKD>
7

>  <RNCG>
0.27

>  <RPCG>
0.16

>  <FCSP3>
0.24

>  <SZ>
25

>  <Sm>
23.43

>  <Sv>
25.14

>  <Sse>
39.75

>  <Sp>
27.04

>  <Si>
45.03

>  <MZ>
0.63

>  <Mm>
0.59

>  <Mv>
0.63

>  <Mse>
0.99

>  <Mp>
0.68

>  <Mi>
1.13

>  <NsCH3>
1

>  <NdCH2>
0

>  <NssCH2>
3

>  <NtCH>
0

>  <NdsCH>
0

>  <NaaCH>
8

>  <NsssCH>
0

>  <NddC>
0

>  <NtsC>
0

>  <NdssC>
1

>  <NaasC>
4

>  <NaaaC>
0

>  <NssssC>
0

>  <NsNH3>
0

>  <NsNH2>
0

>  <NssNH2>
0

>  <NdNH>
0

>  <NssNH>
1

>  <NaaNH>
0

>  <NtN>
0

>  <NsssNH>
0

>  <NdsN>
1

>  <NaaN>
0

>  <NsssN>
1

>  <NddsN>
0

>  <NaasN>
0

>  <NssssN>
0

>  <NsOH>
1

>  <NdO>
0

>  <NssO>
0

>  <NaaO>
0

>  <NsF>
0

>  <NsSiH3>
0

>  <NssSiH2>
0

>  <NsssSiH>
0

>  <NssssSi>
0

>  <NsPH2>
0

>  <NssPH>
0

>  <NsssP>
0

>  <NdsssP>
0

>  <NsssssP>
0

>  <NsSH>
0

>  <NdS>
0

>  <NssS>
0

>  <NaaS>
0

>  <NdssS>
0

>  <NddssS>
0

>  <NsCl>
0

>  <NsBr>
0

>  <NsI>
0

>  <fragCpx>
109.04

>  <fMF>
0.48

>  <nHBAcc>
4

>  <nHBDon>
2

>  <Kier1>
15.88

>  <Kier2>
7.51

>  <Lipinski>
1

>  <GhoseFilter>
1

>  <FilterItLogS>
-4.17

>  <VMcGowan>
223.52

>  <LabuteASA>
124.31

>  <PEOE_VSA1>
15.32

>  <PEOE_VSA2>
4.99

>  <PEOE_VSA3>
0

>  <PEOE_VSA4>
0

>  <PEOE_VSA5>
0

>  <PEOE_VSA6>
23.76

>  <PEOE_VSA7>
31.19

>  <PEOE_VSA8>
23.99

>  <PEOE_VSA9>
13.09

>  <PEOE_VSA10>
11.59

>  <PEOE_VSA11>
0

>  <PEOE_VSA12>
0

>  <PEOE_VSA13>
0

>  <SMR_VSA1>
5.11

>  <SMR_VSA2>
0

>  <SMR_VSA3>
5.32

>  <SMR_VSA4>
4.99

>  <SMR_VSA5>
6.92

>  <SMR_VSA6>
24.53

>  <SMR_VSA7>
54.09

>  <SMR_VSA8>
0

>  <SMR_VSA9>
5.75

>  <SlogP_VSA1>
10.22

>  <SlogP_VSA2>
30.58

>  <SlogP_VSA3>
0

>  <SlogP_VSA4>
6.92

>  <SlogP_VSA5>
5.56

>  <SlogP_VSA6>
53.52

>  <SlogP_VSA7>
0

>  <SlogP_VSA8>
0

>  <SlogP_VSA9>
0

>  <SlogP_VSA10>
11.37

>  <SlogP_VSA11>
5.75

>  <EState_VSA1>
0

>  <EState_VSA2>
5.75

>  <EState_VSA3>
6.54

>  <EState_VSA4>
30.3

>  <EState_VSA5>
5.56

>  <EState_VSA6>
12.13

>  <EState_VSA7>
12.13

>  <EState_VSA8>
46.4

>  <EState_VSA9>
0

>  <EState_VSA10>
5.11

>  <VSA_EState1>
0

>  <VSA_EState2>
6.62

>  <VSA_EState3>
13.04

>  <VSA_EState4>
3.27

>  <VSA_EState5>
1.25

>  <VSA_EState6>
15.68

>  <VSA_EState7>
0

>  <VSA_EState8>
4.48

>  <VSA_EState9>
0

>  <apol>
45.16

>  <bpol>
22.48

>  <nRing>
3

>  <nHRing>
1

>  <naRing>
2

>  <naHRing>
0

>  <nARing 2>
1

>  <nAHRing 2>
1

>  <nFRing>
0

>  <nFHRing>
0

>  <nFaRing>
0

>  <nFaHRing>
0

>  <nFARing 2>
0

>  <nFAHRing 2>
0

>  <nRot>
4

>  <SLogP>
2.84

>  <SMR>
86.6

>  <TopoPSA(NO)>
47.86

>  <TopoPSA>
47.86

>  <JGI1>
0.17

>  <JGI2>
0.06

>  <JGI3>
0.04

>  <JGI4>
0.04

>  <JGI5>
0.02

>  <Diameter>
9

>  <Radius>
5

>  <TMWC10>
116.85

>  <TSRW10>
67.68

>  <MW>
281.15

>  <AMW>
7.03

>  <WPath>
911

>  <WPol>
28

>  <Zagreb1>
108

>  <Zagreb2>
124

>  <mZagreb2>
4.64

>  <yes>


>  <nAR-cont>
0.816016

>  <nHA-cont>
0.994529749

>  <MWHBN>
0.357834497

>  <MWHBN-cont>
0.640682389

>  <TPSA-cont>
0.665907481

>  <pka_cont>
0.97

>  <yes.1>


>  <BBB_SCORE>
4.588384294

>  <MMFF94 Energy>
77.606

$$$$
Compound 2825
Actelion Java MolfileCreator 2.0

  0  0  0  0  0  0              0 V3000
M  V30 BEGIN CTAB
M  V30 COUNTS 51 54 0 0 0
M  V30 BEGIN ATOM
M  V30 1 N 1.908 -4.7752 -2.3854 0
M  V30 2 N 0.8377 -3.9923 -2.0182 0
M  V30 3 C 2.8362 -4.6428 -1.4657 0
M  V30 4 C 1.1308 -3.3956 -0.8799 0
M  V30 5 N 2.3806 -3.7938 -0.4931 0
M  V30 6 C 4.1689 -5.2941 -1.4008 0
M  V30 7 C 0.2692 -2.4275 -0.1469 0
M  V30 8 C 3.1578 -3.3669 0.6489 0
M  V30 9 C 5.1022 -4.56 -0.4342 0
M  V30 10 C 0.4468 -1.0066 -0.704 0
M  V30 11 C 4.3873 -4.2483 0.8829 0
M  V30 12 N -0.2111 0.0277 0.1197 0
M  V30 13 C 0.1905 1.3773 -0.3583 0
M  V30 14 C -1.6924 -0.0711 0.0441 0
M  V30 15 C -0.4866 2.5299 0.4181 0
M  V30 16 C -2.4152 1.0445 0.8372 0
M  V30 17 N -1.9469 2.3657 0.4011 0
M  V30 18 C -2.6802 3.4892 0.7797 0
M  V30 19 C -3.0168 4.4755 -0.1713 0
M  V30 20 C -3.0805 3.6834 2.1115 0
M  V30 21 C -3.7175 5.6257 0.2313 0
M  V30 22 C -2.6284 4.3292 -1.6179 0
M  V30 23 C -3.7873 4.8236 2.4995 0
M  V30 24 C -4.1037 5.7965 1.559 0
M  V30 25 H 4.6214 -5.3274 -2.3977 0
M  V30 26 H 4.0365 -6.3303 -1.0678 0
M  V30 27 H 0.4959 -2.4453 0.9248 0
M  V30 28 H -0.7729 -2.75 -0.2524 0
M  V30 29 H 3.4617 -2.3326 0.452 0
M  V30 30 H 2.5134 -3.3839 1.5331 0
M  V30 31 H 5.4448 -3.6221 -0.8897 0
M  V30 32 H 5.9922 -5.1702 -0.2454 0
M  V30 33 H 1.5234 -0.7897 -0.7312 0
M  V30 34 H 0.0962 -0.9633 -1.7441 0
M  V30 35 H 4.0786 -5.1897 1.355 0
M  V30 36 H 5.0716 -3.7501 1.5783 0
M  V30 37 H 1.276 1.4919 -0.2528 0
M  V30 38 H -0.0487 1.4834 -1.4253 0
M  V30 39 H -2.0191 -0.0297 -1.0035 0
M  V30 40 H -2.0251 -1.0298 0.456 0
M  V30 41 H -0.1887 3.4796 -0.0415 0
M  V30 42 H -0.1268 2.5374 1.4552 0
M  V30 43 H -2.2241 0.9043 1.9084 0
M  V30 44 H -3.4949 0.9489 0.6691 0
M  V30 45 H -2.8243 2.9499 2.8704 0
M  V30 46 H -3.9719 6.3936 -0.4955 0
M  V30 47 H -3.2102 5.0046 -2.2545 0
M  V30 48 H -2.8225 3.3125 -1.9744 0
M  V30 49 H -1.5686 4.5657 -1.7509 0
M  V30 50 H -4.0819 4.9519 3.5372 0
M  V30 51 H -4.6497 6.6873 1.857 0
M  V30 END ATOM
M  V30 BEGIN BOND
M  V30 1 1 1 2
M  V30 2 2 1 3
M  V30 3 2 2 4
M  V30 4 1 3 5
M  V30 5 1 3 6
M  V30 6 1 4 7
M  V30 7 1 5 8
M  V30 8 1 6 9
M  V30 9 1 7 10
M  V30 10 1 8 11
M  V30 11 1 10 12
M  V30 12 1 12 13
M  V30 13 1 12 14
M  V30 14 1 13 15
M  V30 15 1 14 16
M  V30 16 1 15 17
M  V30 17 1 17 18
M  V30 18 2 18 19
M  V30 19 1 18 20
M  V30 20 1 19 21
M  V30 21 1 19 22
M  V30 22 2 20 23
M  V30 23 2 21 24
M  V30 24 1 4 5
M  V30 25 1 9 11
M  V30 26 1 16 17
M  V30 27 1 23 24
M  V30 28 1 6 25
M  V30 29 1 6 26
M  V30 30 1 7 27
M  V30 31 1 7 28
M  V30 32 1 8 29
M  V30 33 1 8 30
M  V30 34 1 9 31
M  V30 35 1 9 32
M  V30 36 1 10 33
M  V30 37 1 10 34
M  V30 38 1 11 35
M  V30 39 1 11 36
M  V30 40 1 13 37
M  V30 41 1 13 38
M  V30 42 1 14 39
M  V30 43 1 14 40
M  V30 44 1 15 41
M  V30 45 1 15 42
M  V30 46 1 16 43
M  V30 47 1 16 44
M  V30 48 1 20 45
M  V30 49 1 21 46
M  V30 50 1 22 47
M  V30 51 1 22 48
M  V30 52 1 22 49
M  V30 53 1 23 50
M  V30 54 1 24 51
M  V30 END BOND
M  V30 END CTAB
M  END
>  <Column 1>
3577

>  <level_0>
5841

>  <index>
5842

>  <Unnamed: 0>
5842

>  <NO.>
5854

>  <Name>
dapiprazole

>  <IUPAC_name>
3-[2-[4-(2-methylphenyl)piperazin-1-yl]ethyl]-5-6-7-8-tetrahydro-[1-2-4]triazolo[4-3-a]pyridine

>  <SMILES>
Cc1ccccc1N1CCN(CCc2nnc3n2CCCC3)CC1

>  <CID>
3033538

>  <logBB>


>  <BBB+/BBB->
BBB-

>  <Inchi>
InChI=1S/C19H27N5/c1-16-6-2-3-7-17(16)23-14-12-22(13-15-23)11-9-19-21-20-18-8-4-5-10-24(18)19/h2-3-6-7H-4-5-8-15H2-1H3

>  <threshold>


>  <reference>
R23|

>  <group>
C

>  <Class>
-1

>  <ABC>
19.04

>  <ABCGG>
14.2

>  <nAcid>
0

>  <nBase>
1

>  <nAromAtom>
11

>  <nAromBond>
11

>  <nAtom>
51

>  <nHeavyAtom>
24

>  <nSpiro>
0

>  <nBridgehead>
0

>  <nHetero>
5

>  <nN>
5

>  <nO>
0

>  <nF>
0

>  <BalabanJ>
1.19

>  <BertzCT>
684.82

>  <nBonds>
54

>  <nBondsO>
27

>  <nBondsS>
43

>  <nBondsD>
0

>  <nBondsT>
0

>  <nBondsA>
11

>  <nBondsM>
11

>  <nBondsKS>
49

>  <nBondsKD>
5

>  <RNCG>
0.23

>  <RPCG>
0.08

>  <FCSP3>
0.58

>  <SZ>
29.33

>  <Sm>
27.1

>  <Sv>
30.1

>  <Sse>
50.3

>  <Sp>
33.07

>  <Si>
58.06

>  <MZ>
0.58

>  <Mm>
0.53

>  <Mv>
0.59

>  <Mse>
0.99

>  <Mp>
0.65

>  <Mi>
1.14

>  <NsCH3>
1

>  <NdCH2>
0

>  <NssCH2>
10

>  <NtCH>
0

>  <NdsCH>
0

>  <NaaCH>
4

>  <NsssCH>
0

>  <NddC>
0

>  <NtsC>
0

>  <NdssC>
0

>  <NaasC>
4

>  <NaaaC>
0

>  <NssssC>
0

>  <NsNH3>
0

>  <NsNH2>
0

>  <NssNH2>
0

>  <NdNH>
0

>  <NssNH>
0

>  <NaaNH>
0

>  <NtN>
0

>  <NsssNH>
0

>  <NdsN>
0

>  <NaaN>
2

>  <NsssN>
2

>  <NddsN>
0

>  <NaasN>
1

>  <NssssN>
0

>  <NsOH>
0

>  <NdO>
0

>  <NssO>
0

>  <NaaO>
0

>  <NsF>
0

>  <NsSiH3>
0

>  <NssSiH2>
0

>  <NsssSiH>
0

>  <NssssSi>
0

>  <NsPH2>
0

>  <NssPH>
0

>  <NsssP>
0

>  <NdsssP>
0

>  <NsssssP>
0

>  <NsSH>
0

>  <NdS>
0

>  <NssS>
0

>  <NaaS>
0

>  <NdssS>
0

>  <NddssS>
0

>  <NsCl>
0

>  <NsBr>
0

>  <NsI>
0

>  <fragCpx>
177.05

>  <fMF>
0.45

>  <nHBAcc>
5

>  <nHBDon>
0

>  <Kier1>
17.42

>  <Kier2>
8.13

>  <Lipinski>
1

>  <GhoseFilter>
1

>  <FilterItLogS>
-4.01

>  <VMcGowan>
263.53

>  <LabuteASA>
143.84

>  <PEOE_VSA1>
9.47

>  <PEOE_VSA2>
4.9

>  <PEOE_VSA3>
0

>  <PEOE_VSA4>
0

>  <PEOE_VSA5>
10.2

>  <PEOE_VSA6>
18.2

>  <PEOE_VSA7>
31.4

>  <PEOE_VSA8>
57.8

>  <PEOE_VSA9>
0

>  <PEOE_VSA10>
11.65

>  <PEOE_VSA11>
0

>  <PEOE_VSA12>
0

>  <PEOE_VSA13>
0

>  <SMR_VSA1>
0

>  <SMR_VSA2>
0

>  <SMR_VSA3>
19.66

>  <SMR_VSA4>
0

>  <SMR_VSA5>
39.15

>  <SMR_VSA6>
37.62

>  <SMR_VSA7>
41.48

>  <SMR_VSA8>
0

>  <SMR_VSA9>
0

>  <SlogP_VSA1>
4.9

>  <SlogP_VSA2>
52.39

>  <SlogP_VSA3>
19.39

>  <SlogP_VSA4>
6.92

>  <SlogP_VSA5>
30.05

>  <SlogP_VSA6>
24.27

>  <SlogP_VSA7>
0

>  <SlogP_VSA8>
0

>  <SlogP_VSA9>
0

>  <SlogP_VSA10>
5.69

>  <SlogP_VSA11>
0

>  <EState_VSA1>
0

>  <EState_VSA2>
0

>  <EState_VSA3>
0

>  <EState_VSA4>
52.11

>  <EState_VSA5>
35.74

>  <EState_VSA6>
0

>  <EState_VSA7>
0

>  <EState_VSA8>
55.75

>  <EState_VSA9>
0

>  <EState_VSA10>
0

>  <VSA_EState1>
2.35

>  <VSA_EState2>
5.09

>  <VSA_EState3>
8.8

>  <VSA_EState4>
2.77

>  <VSA_EState5>
2.38

>  <VSA_EState6>
8.71

>  <VSA_EState7>
4.66

>  <VSA_EState8>
8.91

>  <VSA_EState9>
0

>  <apol>
55.23

>  <bpol>
33.36

>  <nRing>
4

>  <nHRing>
3

>  <naRing>
2

>  <naHRing>
1

>  <nARing 2>
2

>  <nAHRing 2>
2

>  <nFRing>
1

>  <nFHRing>
1

>  <nFaRing>
0

>  <nFaHRing>
0

>  <nFARing 2>
1

>  <nFAHRing 2>
1

>  <nRot>
4

>  <SLogP>
2.29

>  <SMR>
96.5

>  <TopoPSA(NO)>
37.19

>  <TopoPSA>
37.19

>  <JGI1>
0.13

>  <JGI2>
0.08

>  <JGI3>
0.04

>  <JGI4>
0.03

>  <JGI5>
0.02

>  <Diameter>
14

>  <Radius>
7

>  <TMWC10>
125.89

>  <TSRW10>
72.57

>  <MW>
325.23

>  <AMW>
6.38

>  <WPath>
1535

>  <WPol>
36

>  <Zagreb1>
128

>  <Zagreb2>
151

>  <mZagreb2>
5.28

>  <yes>


>  <nAR-cont>
1

>  <nHA-cont>
0.94700071

>  <MWHBN>
0.277252011

>  <MWHBN-cont>
0.902943852

>  <TPSA-cont>
0.740390706

>  <pka_cont>
0.97

>  <yes.1>


>  <BBB_SCORE>
5.2671979

>  <MMFF94 Energy>
103.77

$$$$
Compound 2826
Actelion Java MolfileCreator 2.0

  0  0  0  0  0  0              0 V3000
M  V30 BEGIN CTAB
M  V30 COUNTS 60 63 0 0 0
M  V30 BEGIN ATOM
M  V30 1 Cl -3.3157 5.2605 -5.2605 0
M  V30 2 C -3.1576 4.092 -4.0078 0
M  V30 3 C -3.832 2.8784 -4.1057 0
M  V30 4 C -2.3636 4.3691 -2.901 0
M  V30 5 C -3.7071 1.9224 -3.0819 0
M  V30 6 C -2.2354 3.4213 -1.8828 0
M  V30 7 N -4.4489 0.7242 -3.2162 0
M  V30 8 C -2.8932 2.1737 -1.9521 0
M  V30 9 N -5.1497 0.219 -2.1775 0
M  V30 10 C -4.5948 -0.0363 -4.3518 0
M  V30 11 C -2.6875 1.1636 -0.8123 0 CFG=1
M  V30 12 C -5.7474 -0.8733 -2.6664 0
M  V30 13 C -5.4291 -1.0781 -4.0251 0
M  V30 14 O -1.2551 1.1402 -0.5716 0
M  V30 15 C -3.4756 1.578 0.4493 0
M  V30 16 C -6.6173 -1.6984 -1.7943 0
M  V30 17 C -0.7832 0.0131 0.0655 0
M  V30 18 F -3.6106 0.573 1.3447 0
M  V30 19 F -2.8503 2.5981 1.0984 0
M  V30 20 F -4.7257 2.0174 0.1674 0
M  V30 21 N -1.6206 -0.9898 0.3427 0
M  V30 22 C 0.556 0.001 0.3642 0
M  V30 23 C -1.0897 -2.041 0.9637 0
M  V30 24 C 1.0236 -1.132 0.9946 0
M  V30 25 N 0.1952 -2.1551 1.3035 0
M  V30 26 N -1.9218 -3.0726 1.2804 0
M  V30 27 C 2.4381 -1.3096 1.3879 0
M  V30 28 C 3.4965 -0.7341 0.6629 0
M  V30 29 C 2.7787 -2.0815 2.5132 0
M  V30 30 C 4.8299 -0.9088 1.0533 0
M  V30 31 C 4.1095 -2.2593 2.9077 0
M  V30 32 C 5.1487 -1.6684 2.1838 0
M  V30 33 C 6.589 -1.8462 2.6098 0
M  V30 34 C 7.1315 -0.7724 3.5715 0 CFG=2
M  V30 35 N 6.4085 -0.7016 4.8649 0
M  V30 36 C 7.1753 0.5919 2.8749 0
M  V30 37 O 7.8897 0.8865 1.9277 0
M  V30 38 O 6.2892 1.4916 3.3575 0
M  V30 39 H -4.4728 2.6971 -4.9659 0
M  V30 40 H -1.8427 5.32 -2.82 0
M  V30 41 H -1.6065 3.6649 -1.0259 0
M  V30 42 H -4.092 0.2184 -5.2737 0
M  V30 43 H -2.9926 0.1737 -1.1565 0
M  V30 44 H -5.7607 -1.8758 -4.6751 0
M  V30 45 H -7.464 -1.1085 -1.4284 0
M  V30 46 H -7.0148 -2.562 -2.3369 0
M  V30 47 H -6.0544 -2.0699 -0.9319 0
M  V30 48 H 1.1857 0.8461 0.1262 0
M  V30 49 H -1.5357 -3.8522 1.7825 0
M  V30 50 H -2.9017 -2.9652 1.0854 0
M  V30 51 H 3.3028 -0.1533 -0.2361 0
M  V30 52 H 1.9931 -2.5566 3.1 0
M  V30 53 H 5.6174 -0.4509 0.4565 0
M  V30 54 H 4.3189 -2.8702 3.7827 0
M  V30 55 H 7.2159 -1.8798 1.7083 0
M  V30 56 H 6.6998 -2.8364 3.0725 0
M  V30 57 H 8.1706 -1.02 3.819 0
M  V30 58 H 5.576 -0.1231 4.7152 0
M  V30 59 H 6.0704 -1.6255 5.1222 0
M  V30 60 H 6.4514 2.2962 2.8244 0
M  V30 END ATOM
M  V30 BEGIN BOND
M  V30 1 1 1 2
M  V30 2 2 2 3
M  V30 3 1 2 4
M  V30 4 1 3 5
M  V30 5 2 4 6
M  V30 6 1 5 7
M  V30 7 2 5 8
M  V30 8 1 7 9
M  V30 9 1 7 10
M  V30 10 1 8 11
M  V30 11 2 9 12
M  V30 12 2 10 13
M  V30 13 1 11 14
M  V30 14 1 11 15
M  V30 15 1 12 16
M  V30 16 1 14 17
M  V30 17 1 15 18
M  V30 18 1 15 19
M  V30 19 1 15 20
M  V30 20 2 17 21
M  V30 21 1 17 22
M  V30 22 1 21 23
M  V30 23 2 22 24
M  V30 24 2 23 25
M  V30 25 1 23 26
M  V30 26 1 24 27
M  V30 27 2 27 28
M  V30 28 1 27 29
M  V30 29 1 28 30
M  V30 30 2 29 31
M  V30 31 2 30 32
M  V30 32 1 32 33
M  V30 33 1 33 34
M  V30 34 1 34 35
M  V30 35 1 34 36
M  V30 36 2 36 37
M  V30 37 1 36 38
M  V30 38 1 6 8
M  V30 39 1 12 13
M  V30 40 1 24 25
M  V30 41 1 31 32
M  V30 42 1 3 39
M  V30 43 1 4 40
M  V30 44 1 6 41
M  V30 45 1 10 42
M  V30 46 1 11 43
M  V30 47 1 13 44
M  V30 48 1 16 45
M  V30 49 1 16 46
M  V30 50 1 16 47
M  V30 51 1 22 48
M  V30 52 1 26 49
M  V30 53 1 26 50
M  V30 54 1 28 51
M  V30 55 1 29 52
M  V30 56 1 30 53
M  V30 57 1 31 54
M  V30 58 1 33 55
M  V30 59 1 33 56
M  V30 60 1 34 57
M  V30 61 1 35 58
M  V30 62 1 35 59
M  V30 63 1 38 60
M  V30 END BOND
M  V30 BEGIN COLLECTION
M  V30 MDLV30/STEABS ATOMS=(2 11 34)
M  V30 END COLLECTION
M  V30 END CTAB
M  END
>  <Column 1>
3578

>  <level_0>
5842

>  <index>
5843

>  <Unnamed: 0>
5843

>  <NO.>
5855

>  <Name>
telotristat

>  <IUPAC_name>
(2s)-2-amino-3-[4-[2-amino-6-[(1r)-1-[4-chloro-2-(3-methylpyrazol-1-yl)phenyl]-2-2-2-trifluoroethoxy]pyrimidin-4-yl]phenyl]propanoic acid

>  <SMILES>
Cc1ccn(-c2cc(Cl)ccc2[C@@H](Oc2cc(-c3ccc(C[C@H](N)C(=O)O)cc3)nc(N)n2)C(F)(F)F)n1

>  <CID>
25025298

>  <logBB>


>  <BBB+/BBB->
BBB-

>  <Inchi>
InChI=1S/C25H22ClF3N6O3/c1-13-8-9-35(34-13)20-11-16(26)6-7-17(20)22(25(27-28)29)38-21-12-19(32-24(31)33-21)15-4-2-14(3-5-15)10-18(30)23(36)37/h2-9-11-12-18-22H-10-30H2-1H3-(H-36-37)(H2-31-32-33)/t18--22+/m0/s1

>  <threshold>


>  <reference>
R23|

>  <group>
C

>  <Class>
-1

>  <ABC>
29.86

>  <ABCGG>
23.1

>  <nAcid>
1

>  <nBase>
1

>  <nAromAtom>
23

>  <nAromBond>
23

>  <nAtom>
60

>  <nHeavyAtom>
38

>  <nSpiro>
0

>  <nBridgehead>
0

>  <nHetero>
13

>  <nN>
6

>  <nO>
3

>  <nF>
3

>  <BalabanJ>
1.4

>  <BertzCT>
1459.73

>  <nBonds>
63

>  <nBondsO>
41

>  <nBondsS>
39

>  <nBondsD>
1

>  <nBondsT>
0

>  <nBondsA>
23

>  <nBondsM>
24

>  <nBondsKS>
51

>  <nBondsKD>
12

>  <RNCG>
0.13

>  <RPCG>
0.12

>  <FCSP3>
0.2

>  <SZ>
47

>  <Sm>
45.54

>  <Sv>
40.68

>  <Sse>
62.37

>  <Sp>
41.48

>  <Si>
68.73

>  <MZ>
0.78

>  <Mm>
0.76

>  <Mv>
0.68

>  <Mse>
1.04

>  <Mp>
0.69

>  <Mi>
1.15

>  <NsCH3>
1

>  <NdCH2>
0

>  <NssCH2>
1

>  <NtCH>
0

>  <NdsCH>
0

>  <NaaCH>
10

>  <NsssCH>
2

>  <NddC>
0

>  <NtsC>
0

>  <NdssC>
1

>  <NaasC>
9

>  <NaaaC>
0

>  <NssssC>
1

>  <NsNH3>
0

>  <NsNH2>
2

>  <NssNH2>
0

>  <NdNH>
0

>  <NssNH>
0

>  <NaaNH>
0

>  <NtN>
0

>  <NsssNH>
0

>  <NdsN>
0

>  <NaaN>
3

>  <NsssN>
0

>  <NddsN>
0

>  <NaasN>
1

>  <NssssN>
0

>  <NsOH>
1

>  <NdO>
1

>  <NssO>
1

>  <NaaO>
0

>  <NsF>
3

>  <NsSiH3>
0

>  <NssSiH2>
0

>  <NsssSiH>
0

>  <NssssSi>
0

>  <NsPH2>
0

>  <NssPH>
0

>  <NsssP>
0

>  <NdsssP>
0

>  <NsssssP>
0

>  <NsSH>
0

>  <NdS>
0

>  <NssS>
0

>  <NaaS>
0

>  <NdssS>
0

>  <NddssS>
0

>  <NsCl>
1

>  <NsBr>
0

>  <NsI>
0

>  <fragCpx>
275.13

>  <fMF>
0.42

>  <nHBAcc>
8

>  <nHBDon>
3

>  <Kier1>
30.95

>  <Kier2>
13.32

>  <Lipinski>
0

>  <GhoseFilter>
0

>  <FilterItLogS>
-6.26

>  <VMcGowan>
363.08

>  <LabuteASA>
219.39

>  <PEOE_VSA1>
21.31

>  <PEOE_VSA2>
4.79

>  <PEOE_VSA3>
9.67

>  <PEOE_VSA4>
23.25

>  <PEOE_VSA5>
0

>  <PEOE_VSA6>
41.93

>  <PEOE_VSA7>
37.11

>  <PEOE_VSA8>
28.41

>  <PEOE_VSA9>
17.08

>  <PEOE_VSA10>
6.04

>  <PEOE_VSA11>
0

>  <PEOE_VSA12>
17.93

>  <PEOE_VSA13>
0

>  <SMR_VSA1>
27.81

>  <SMR_VSA2>
0

>  <SMR_VSA3>
19.75

>  <SMR_VSA4>
5.73

>  <SMR_VSA5>
31.67

>  <SMR_VSA6>
5.73

>  <SMR_VSA7>
82.64

>  <SMR_VSA8>
0

>  <SMR_VSA9>
22.82

>  <SlogP_VSA1>
16.2

>  <SlogP_VSA2>
43.04

>  <SlogP_VSA3>
11.22

>  <SlogP_VSA4>
6.92

>  <SlogP_VSA5>
22.92

>  <SlogP_VSA6>
60.79

>  <SlogP_VSA7>
5.02

>  <SlogP_VSA8>
16.94

>  <SlogP_VSA9>
0

>  <SlogP_VSA10>
19.12

>  <SlogP_VSA11>
5.88

>  <EState_VSA1>
30.17

>  <EState_VSA2>
34.34

>  <EState_VSA3>
16.82

>  <EState_VSA4>
0

>  <EState_VSA5>
35.14

>  <EState_VSA6>
37.26

>  <EState_VSA7>
0

>  <EState_VSA8>
15.07

>  <EState_VSA9>
32.91

>  <EState_VSA10>
17.97

>  <VSA_EState1>
49.61

>  <VSA_EState2>
18.94

>  <VSA_EState3>
13.41

>  <VSA_EState4>
13.18

>  <VSA_EState5>
-1.83

>  <VSA_EState6>
12.24

>  <VSA_EState7>
-5.65

>  <VSA_EState8>
1.71

>  <VSA_EState9>
0

>  <apol>
69.28

>  <bpol>
31.37

>  <nRing>
4

>  <nHRing>
2

>  <naRing>
4

>  <naHRing>
2

>  <nARing 2>
0

>  <nAHRing 2>
0

>  <nFRing>
0

>  <nFHRing>
0

>  <nFaRing>
0

>  <nFaHRing>
0

>  <nFARing 2>
0

>  <nFAHRing 2>
0

>  <nRot>
8

>  <SLogP>
4.51

>  <SMR>
133.93

>  <TopoPSA(NO)>
142.17

>  <TopoPSA>
142.17

>  <JGI1>
0.27

>  <JGI2>
0.08

>  <JGI3>
0.05

>  <JGI4>
0.05

>  <JGI5>
0.03

>  <Diameter>
18

>  <Radius>
9

>  <TMWC10>
158.39

>  <TSRW10>
88.52

>  <MW>
546.14

>  <AMW>
9.1

>  <WPath>
4926

>  <WPol>
60

>  <Zagreb1>
202

>  <Zagreb2>
235

>  <mZagreb2>
8.06

>  <yes>


>  <nAR-cont>
0.336376

>  <nHA-cont>
0.390024847

>  <MWHBN>
0.4706962

>  <MWHBN-cont>
0

>  <TPSA-cont>
0

>  <pka_cont>
0.97

>  <yes.1>


>  <BBB_SCORE>
1.211400847

>  <MMFF94 Energy>
17.989

$$$$
Compound 2827
Actelion Java MolfileCreator 2.0

  0  0  0  0  0  0              0 V3000
M  V30 BEGIN CTAB
M  V30 COUNTS 30 31 0 0 0
M  V30 BEGIN ATOM
M  V30 1 S -0.9666 -2.0147 0.161 0
M  V30 2 O -0.7307 -3.4406 0.0366 0
M  V30 3 O -2.2837 -1.5293 0.5161 0
M  V30 4 N 0.1601 -1.4638 1.2478 0
M  V30 5 C -0.4645 -1.2895 -1.3797 0
M  V30 6 C -0.028 -0.1948 1.7792 0
M  V30 7 C -1.2422 -0.2945 -1.9731 0
M  V30 8 C 0.6894 -1.7573 -2.0117 0
M  V30 9 N 0.3536 -0.0977 3.0571 0
M  V30 10 N -0.3327 0.8141 0.9642 0
M  V30 11 C -0.8484 0.2452 -3.2007 0
M  V30 12 C 1.0714 -1.2093 -3.2392 0
M  V30 13 C 0.3292 1.1414 3.5901 0
M  V30 14 C -0.3439 2.0312 1.533 0
M  V30 15 C 0.3004 -0.2158 -3.8508 0
M  V30 16 C -0.0242 2.2553 2.8529 0
M  V30 17 C 0.7139 1.2805 5.0322 0
M  V30 18 N 0.7033 0.3475 -5.0477 0
M  V30 19 H 0.4285 -2.1511 1.9414 0
M  V30 20 H -2.1418 0.0728 -1.4852 0
M  V30 21 H 1.2911 -2.5409 -1.5584 0
M  V30 22 H -1.4516 1.0308 -3.6479 0
M  V30 23 H 1.9772 -1.5704 -3.7188 0
M  V30 24 H -0.6202 2.8496 0.8743 0
M  V30 25 H -0.0419 3.2502 3.2782 0
M  V30 26 H 0.9539 0.3051 5.4675 0
M  V30 27 H -0.1122 1.7144 5.6042 0
M  V30 28 H 1.5947 1.9229 5.1283 0
M  V30 29 H 1.4895 -0.0373 -5.5526 0
M  V30 30 H 0.1065 1.0084 -5.5256 0
M  V30 END ATOM
M  V30 BEGIN BOND
M  V30 1 2 1 2
M  V30 2 2 1 3
M  V30 3 1 1 4
M  V30 4 1 1 5
M  V30 5 1 4 6
M  V30 6 2 5 7
M  V30 7 1 5 8
M  V30 8 2 6 9
M  V30 9 1 6 10
M  V30 10 1 7 11
M  V30 11 2 8 12
M  V30 12 1 9 13
M  V30 13 2 10 14
M  V30 14 2 11 15
M  V30 15 2 13 16
M  V30 16 1 13 17
M  V30 17 1 15 18
M  V30 18 1 12 15
M  V30 19 1 14 16
M  V30 20 1 4 19
M  V30 21 1 7 20
M  V30 22 1 8 21
M  V30 23 1 11 22
M  V30 24 1 12 23
M  V30 25 1 14 24
M  V30 26 1 16 25
M  V30 27 1 17 26
M  V30 28 1 17 27
M  V30 29 1 17 28
M  V30 30 1 18 29
M  V30 31 1 18 30
M  V30 END BOND
M  V30 END CTAB
M  END
>  <Column 1>
3579

>  <level_0>
5843

>  <index>
5844

>  <Unnamed: 0>
5844

>  <NO.>
5856

>  <Name>
sulfamerazine

>  <IUPAC_name>
4-amino-n-(4-methylpyrimidin-2-yl)benzenesulfonamide

>  <SMILES>
Cc1ccnc(NS(=O)(=O)c2ccc(N)cc2)n1

>  <CID>
5325

>  <logBB>


>  <BBB+/BBB->
BBB-

>  <Inchi>
InChI=1S/C11H12N4O2S/c1-8-6-7-13-11(14-8)15-18(16-17)10-4-2-9(12)3-5-10/h2-7H-12H2-1H3-(H-13-14-15)

>  <threshold>


>  <reference>
R23|

>  <group>
C

>  <Class>
-1

>  <ABC>
13.91

>  <ABCGG>
11.78

>  <nAcid>
0

>  <nBase>
0

>  <nAromAtom>
12

>  <nAromBond>
12

>  <nAtom>
30

>  <nHeavyAtom>
18

>  <nSpiro>
0

>  <nBridgehead>
0

>  <nHetero>
7

>  <nN>
4

>  <nO>
2

>  <nF>
0

>  <BalabanJ>
1.86

>  <BertzCT>
653

>  <nBonds>
31

>  <nBondsO>
19

>  <nBondsS>
17

>  <nBondsD>
2

>  <nBondsT>
0

>  <nBondsA>
12

>  <nBondsM>
14

>  <nBondsKS>
23

>  <nBondsKD>
8

>  <RNCG>
0.24

>  <RPCG>
0.16

>  <FCSP3>
0.09

>  <SZ>
23

>  <Sm>
22.01

>  <Sv>
19.9

>  <Sse>
30.72

>  <Sp>
21.12

>  <Si>
33.99

>  <MZ>
0.77

>  <Mm>
0.73

>  <Mv>
0.66

>  <Mse>
1.02

>  <Mp>
0.7

>  <Mi>
1.13

>  <NsCH3>
1

>  <NdCH2>
0

>  <NssCH2>
0

>  <NtCH>
0

>  <NdsCH>
0

>  <NaaCH>
6

>  <NsssCH>
0

>  <NddC>
0

>  <NtsC>
0

>  <NdssC>
0

>  <NaasC>
4

>  <NaaaC>
0

>  <NssssC>
0

>  <NsNH3>
0

>  <NsNH2>
1

>  <NssNH2>
0

>  <NdNH>
0

>  <NssNH>
1

>  <NaaNH>
0

>  <NtN>
0

>  <NsssNH>
0

>  <NdsN>
0

>  <NaaN>
2

>  <NsssN>
0

>  <NddsN>
0

>  <NaasN>
0

>  <NssssN>
0

>  <NsOH>
0

>  <NdO>
2

>  <NssO>
0

>  <NaaO>
0

>  <NsF>
0

>  <NsSiH3>
0

>  <NssSiH2>
0

>  <NsssSiH>
0

>  <NssssSi>
0

>  <NsPH2>
0

>  <NssPH>
0

>  <NsssP>
0

>  <NdsssP>
0

>  <NsssssP>
0

>  <NsSH>
0

>  <NdS>
0

>  <NssS>
0

>  <NaaS>
0

>  <NdssS>
0

>  <NddssS>
1

>  <NsCl>
0

>  <NsBr>
0

>  <NsI>
0

>  <fragCpx>
55.07

>  <fMF>
0.47

>  <nHBAcc>
5

>  <nHBDon>
2

>  <Kier1>
14.41

>  <Kier2>
5.97

>  <Lipinski>
1

>  <GhoseFilter>
1

>  <FilterItLogS>
-3.27

>  <VMcGowan>
186.34

>  <LabuteASA>
104.94

>  <PEOE_VSA1>
5.73

>  <PEOE_VSA2>
0

>  <PEOE_VSA3>
23.11

>  <PEOE_VSA4>
0

>  <PEOE_VSA5>
0

>  <PEOE_VSA6>
0

>  <PEOE_VSA7>
37.26

>  <PEOE_VSA8>
17.58

>  <PEOE_VSA9>
4.9

>  <PEOE_VSA10>
0

>  <PEOE_VSA11>
0

>  <PEOE_VSA12>
5.95

>  <PEOE_VSA13>
10.02

>  <SMR_VSA1>
8.42

>  <SMR_VSA2>
0

>  <SMR_VSA3>
9.97

>  <SMR_VSA4>
0

>  <SMR_VSA5>
11.82

>  <SMR_VSA6>
10.46

>  <SMR_VSA7>
42.22

>  <SMR_VSA8>
0

>  <SMR_VSA9>
0

>  <SlogP_VSA1>
10.46

>  <SlogP_VSA2>
18.39

>  <SlogP_VSA3>
10.02

>  <SlogP_VSA4>
6.92

>  <SlogP_VSA5>
5.69

>  <SlogP_VSA6>
41.42

>  <SlogP_VSA7>
0

>  <SlogP_VSA8>
0

>  <SlogP_VSA9>
0

>  <SlogP_VSA10>
11.64

>  <SlogP_VSA11>
0

>  <EState_VSA1>
10.02

>  <EState_VSA2>
10.84

>  <EState_VSA3>
11.38

>  <EState_VSA4>
0

>  <EState_VSA5>
30.46

>  <EState_VSA6>
12.99

>  <EState_VSA7>
0

>  <EState_VSA8>
14.69

>  <EState_VSA9>
5.73

>  <EState_VSA10>
8.42

>  <VSA_EState1>
26.29

>  <VSA_EState2>
7.93

>  <VSA_EState3>
0

>  <VSA_EState4>
6.68

>  <VSA_EState5>
0.05

>  <VSA_EState6>
7.57

>  <VSA_EState7>
1.49

>  <VSA_EState8>
1.75

>  <VSA_EState9>
-3.68

>  <apol>
35.28

>  <bpol>
20.97

>  <nRing>
2

>  <nHRing>
1

>  <naRing>
2

>  <naHRing>
1

>  <nARing 2>
0

>  <nAHRing 2>
0

>  <nFRing>
0

>  <nFHRing>
0

>  <nFaRing>
0

>  <nFaHRing>
0

>  <nFARing 2>
0

>  <nFAHRing 2>
0

>  <nRot>
3

>  <SLogP>
1.17

>  <SMR>
68.43

>  <TopoPSA(NO)>
97.97

>  <TopoPSA>
106.35

>  <JGI1>
0.29

>  <JGI2>
0.09

>  <JGI3>
0.06

>  <JGI4>
0.05

>  <JGI5>
0.04

>  <Diameter>
10

>  <Radius>
5

>  <TMWC10>
108.31

>  <TSRW10>
51

>  <MW>
264.07

>  <AMW>
8.8

>  <WPath>
627

>  <WPol>
25

>  <Zagreb1>
92

>  <Zagreb2>
104

>  <mZagreb2>
3.88

>  <yes>


>  <nAR-cont>
0.336376

>  <nHA-cont>
0.991161285

>  <MWHBN>
0.430763113

>  <MWHBN-cont>
0.356824806

>  <TPSA-cont>
0.257610961

>  <pka_cont>
0.97

>  <yes.1>


>  <BBB_SCORE>
2.862996415

>  <MMFF94 Energy>
-135.15

$$$$
Compound 2828
Actelion Java MolfileCreator 2.0

  0  0  0  0  0  0              0 V3000
M  V30 BEGIN CTAB
M  V30 COUNTS 12 12 0 0 0
M  V30 BEGIN ATOM
M  V30 1 N -1.0007 -1.771 0.3848 0
M  V30 2 N -0.3862 -1.6876 -0.8054 0
M  V30 3 C -0.7249 -0.6005 0.964 0
M  V30 4 C 0.2669 -0.505 -0.9957 0
M  V30 5 C 0.0675 0.2382 0.1478 0
M  V30 6 C 0.561 1.597 0.4604 0
M  V30 7 H -0.455 -2.477 -1.4388 0
M  V30 8 H -1.1111 -0.4038 1.9563 0
M  V30 9 H 0.805 -0.3013 -1.9102 0
M  V30 10 H 1.1649 1.5849 1.3734 0
M  V30 11 H -0.2782 2.2836 0.6108 0
M  V30 12 H 1.1812 1.9916 -0.3508 0
M  V30 END ATOM
M  V30 BEGIN BOND
M  V30 1 1 1 2
M  V30 2 2 1 3
M  V30 3 1 2 4
M  V30 4 1 3 5
M  V30 5 1 5 6
M  V30 6 2 4 5
M  V30 7 1 2 7
M  V30 8 1 3 8
M  V30 9 1 4 9
M  V30 10 1 6 10
M  V30 11 1 6 11
M  V30 12 1 6 12
M  V30 END BOND
M  V30 END CTAB
M  END
>  <Column 1>
3583

>  <level_0>
5847

>  <index>
5848

>  <Unnamed: 0>
5848

>  <NO.>
5860

>  <Name>
fomepizole

>  <IUPAC_name>
4-methyl-1h-pyrazole

>  <SMILES>
Cc1cn[nH]c1

>  <CID>
3406

>  <logBB>


>  <BBB+/BBB->
BBB-

>  <Inchi>
InChI=1S/C4H6N2/c1-4-2-5-6-3-4/h2-3H-1H3-(H-5-6)

>  <threshold>


>  <reference>
R23|

>  <group>
C

>  <Class>
-1

>  <ABC>
4.35

>  <ABCGG>
4.43

>  <nAcid>
0

>  <nBase>
0

>  <nAromAtom>
5

>  <nAromBond>
5

>  <nAtom>
12

>  <nHeavyAtom>
6

>  <nSpiro>
0

>  <nBridgehead>
0

>  <nHetero>
2

>  <nN>
2

>  <nO>
0

>  <nF>
0

>  <BalabanJ>
2.18

>  <BertzCT>
109.11

>  <nBonds>
12

>  <nBondsO>
6

>  <nBondsS>
7

>  <nBondsD>
0

>  <nBondsT>
0

>  <nBondsA>
5

>  <nBondsM>
5

>  <nBondsKS>
10

>  <nBondsKD>
2

>  <RNCG>
0.55

>  <RPCG>
0.36

>  <FCSP3>
0.25

>  <SZ>
7.33

>  <Sm>
6.84

>  <Sv>
7.14

>  <Sse>
11.99

>  <Sp>
7.71

>  <Si>
13.83

>  <MZ>
0.61

>  <Mm>
0.57

>  <Mv>
0.6

>  <Mse>
1

>  <Mp>
0.64

>  <Mi>
1.15

>  <NsCH3>
1

>  <NdCH2>
0

>  <NssCH2>
0

>  <NtCH>
0

>  <NdsCH>
0

>  <NaaCH>
2

>  <NsssCH>
0

>  <NddC>
0

>  <NtsC>
0

>  <NdssC>
0

>  <NaasC>
1

>  <NaaaC>
0

>  <NssssC>
0

>  <NsNH3>
0

>  <NsNH2>
0

>  <NssNH2>
0

>  <NdNH>
0

>  <NssNH>
0

>  <NaaNH>
1

>  <NtN>
0

>  <NsssNH>
0

>  <NdsN>
0

>  <NaaN>
1

>  <NsssN>
0

>  <NddsN>
0

>  <NaasN>
0

>  <NssssN>
0

>  <NsOH>
0

>  <NdO>
0

>  <NssO>
0

>  <NaaO>
0

>  <NsF>
0

>  <NsSiH3>
0

>  <NssSiH2>
0

>  <NsssSiH>
0

>  <NssssSi>
0

>  <NsPH2>
0

>  <NssPH>
0

>  <NsssP>
0

>  <NdsssP>
0

>  <NsssssP>
0

>  <NsSH>
0

>  <NdS>
0

>  <NssS>
0

>  <NaaS>
0

>  <NdssS>
0

>  <NddssS>
0

>  <NsCl>
0

>  <NsBr>
0

>  <NsI>
0

>  <fragCpx>
6.02

>  <fMF>
0.42

>  <nHBAcc>
1

>  <nHBDon>
1

>  <Kier1>
4.17

>  <Kier2>
1.63

>  <Lipinski>
1

>  <GhoseFilter>
0

>  <FilterItLogS>
-1.2

>  <VMcGowan>
67.72

>  <LabuteASA>
36.19

>  <PEOE_VSA1>
0

>  <PEOE_VSA2>
5.1

>  <PEOE_VSA3>
0

>  <PEOE_VSA4>
5.1

>  <PEOE_VSA5>
0

>  <PEOE_VSA6>
0

>  <PEOE_VSA7>
12.49

>  <PEOE_VSA8>
6.2

>  <PEOE_VSA9>
6.2

>  <PEOE_VSA10>
0

>  <PEOE_VSA11>
0

>  <PEOE_VSA12>
0

>  <PEOE_VSA13>
0

>  <SMR_VSA1>
0

>  <SMR_VSA2>
0

>  <SMR_VSA3>
10.2

>  <SMR_VSA4>
0

>  <SMR_VSA5>
6.92

>  <SMR_VSA6>
0

>  <SMR_VSA7>
17.96

>  <SMR_VSA8>
0

>  <SMR_VSA9>
0

>  <SlogP_VSA1>
0

>  <SlogP_VSA2>
10.2

>  <SlogP_VSA3>
0

>  <SlogP_VSA4>
6.92

>  <SlogP_VSA5>
5.56

>  <SlogP_VSA6>
12.39

>  <SlogP_VSA7>
0

>  <SlogP_VSA8>
0

>  <SlogP_VSA9>
0

>  <SlogP_VSA10>
0

>  <SlogP_VSA11>
0

>  <EState_VSA1>
0

>  <EState_VSA2>
0

>  <EState_VSA3>
0

>  <EState_VSA4>
0

>  <EState_VSA5>
5.56

>  <EState_VSA6>
6.2

>  <EState_VSA7>
13.12

>  <EState_VSA8>
10.2

>  <EState_VSA9>
0

>  <EState_VSA10>
0

>  <VSA_EState1>
0

>  <VSA_EState2>
0

>  <VSA_EState3>
6.38

>  <VSA_EState4>
1.18

>  <VSA_EState5>
0

>  <VSA_EState6>
0

>  <VSA_EState7>
3.63

>  <VSA_EState8>
1.99

>  <VSA_EState9>
0

>  <apol>
12.88

>  <bpol>
6.59

>  <nRing>
1

>  <nHRing>
1

>  <naRing>
1

>  <naHRing>
1

>  <nARing 2>
0

>  <nAHRing 2>
0

>  <nFRing>
0

>  <nFHRing>
0

>  <nFaRing>
0

>  <nFaHRing>
0

>  <nFARing 2>
0

>  <nFAHRing 2>
0

>  <nRot>
0

>  <SLogP>
0.72

>  <SMR>
23.32

>  <TopoPSA(NO)>
28.68

>  <TopoPSA>
28.68

>  <JGI1>
0.17

>  <JGI2>
0.06

>  <JGI3>
0.11

>  <JGI4>
0

>  <JGI5>
0

>  <Diameter>
3

>  <Radius>
2

>  <TMWC10>
68.28

>  <TSRW10>
44.53

>  <MW>
82.05

>  <AMW>
6.84

>  <WPath>
26

>  <WPol>
2

>  <Zagreb1>
26

>  <Zagreb2>
27

>  <mZagreb2>
1.42

>  <yes>


>  <nAR-cont>
0.336376

>  <nHA-cont>
0.238778273

>  <MWHBN>
0.220795747

>  <MWHBN-cont>
0.994446831

>  <TPSA-cont>
0.799795791

>  <pka_cont>
0.97

>  <yes.1>


>  <BBB_SCORE>
4.151416101

>  <MMFF94 Energy>
6.6326

$$$$
Compound 2829
Actelion Java MolfileCreator 2.0

  0  0  0  0  0  0              0 V3000
M  V30 BEGIN CTAB
M  V30 COUNTS 38 39 0 0 0
M  V30 BEGIN ATOM
M  V30 1 S -2.178 2.824 -1.9358 0
M  V30 2 C -2.3392 1.4835 -0.8709 0
M  V30 3 C -3.8805 3.0029 -2.0058 0
M  V30 4 N -3.5881 1.1778 -0.5776 0
M  V30 5 C -1.1733 0.7471 -0.3383 0
M  V30 6 C -4.4741 2.0328 -1.2153 0
M  V30 7 C -4.5288 4.0261 -2.7861 0
M  V30 8 C -1.3974 -0.3376 0.5257 0
M  V30 9 C 0.1572 1.0674 -0.6441 0
M  V30 10 C -5.931 1.8261 -0.9913 0
M  V30 11 O -5.7306 4.2261 -2.8938 0
M  V30 12 O -3.6628 4.8237 -3.4516 0
M  V30 13 C -0.3335 -1.0781 1.0657 0
M  V30 14 C 1.2257 0.3325 -0.1087 0
M  V30 15 C -0.6322 -2.1759 1.9418 0
M  V30 16 C 0.9902 -0.7447 0.7475 0
M  V30 17 N -0.9089 -3.0573 2.6456 0
M  V30 18 O 1.967 -1.5153 1.3176 0
M  V30 19 C 3.3263 -1.2467 0.9711 0
M  V30 20 C 4.2291 -2.2578 1.6934 0
M  V30 21 C 3.9249 -3.6914 1.2527 0
M  V30 22 C 5.7002 -1.9282 1.4499 0
M  V30 23 H -2.4214 -0.6127 0.7844 0
M  V30 24 H 0.3998 1.8965 -1.3053 0
M  V30 25 H -6.3807 2.7161 -0.5403 0
M  V30 26 H -6.1063 0.9816 -0.3173 0
M  V30 27 H -6.4389 1.6137 -1.937 0
M  V30 28 H -4.2482 5.4516 -3.9226 0
M  V30 29 H 2.2314 0.6355 -0.3838 0
M  V30 30 H 3.4643 -1.3368 -0.1135 0
M  V30 31 H 3.5915 -0.2326 1.2941 0
M  V30 32 H 4.0285 -2.1964 2.7707 0
M  V30 33 H 4.08 -3.8162 0.1757 0
M  V30 34 H 2.8894 -3.9644 1.48 0
M  V30 35 H 4.5755 -4.4025 1.7727 0
M  V30 36 H 5.9493 -1.9839 0.3848 0
M  V30 37 H 5.9356 -0.9179 1.8008 0
M  V30 38 H 6.3496 -2.6275 1.9868 0
M  V30 END ATOM
M  V30 BEGIN BOND
M  V30 1 1 1 2
M  V30 2 1 1 3
M  V30 3 2 2 4
M  V30 4 1 2 5
M  V30 5 2 3 6
M  V30 6 1 3 7
M  V30 7 2 5 8
M  V30 8 1 5 9
M  V30 9 1 6 10
M  V30 10 2 7 11
M  V30 11 1 7 12
M  V30 12 1 8 13
M  V30 13 2 9 14
M  V30 14 1 13 15
M  V30 15 2 13 16
M  V30 16 3 15 17
M  V30 17 1 16 18
M  V30 18 1 18 19
M  V30 19 1 19 20
M  V30 20 1 20 21
M  V30 21 1 20 22
M  V30 22 1 4 6
M  V30 23 1 14 16
M  V30 24 1 8 23
M  V30 25 1 9 24
M  V30 26 1 10 25
M  V30 27 1 10 26
M  V30 28 1 10 27
M  V30 29 1 12 28
M  V30 30 1 14 29
M  V30 31 1 19 30
M  V30 32 1 19 31
M  V30 33 1 20 32
M  V30 34 1 21 33
M  V30 35 1 21 34
M  V30 36 1 21 35
M  V30 37 1 22 36
M  V30 38 1 22 37
M  V30 39 1 22 38
M  V30 END BOND
M  V30 END CTAB
M  END
>  <Column 1>
3584

>  <level_0>
5848

>  <index>
5849

>  <Unnamed: 0>
5849

>  <NO.>
5861

>  <Name>
febuxostat

>  <IUPAC_name>
2-[3-cyano-4-(2-methylpropoxy)phenyl]-4-methyl-1-3-thiazole-5-carboxylic acid

>  <SMILES>
Cc1nc(-c2ccc(OCC(C)C)c(C#N)c2)sc1C(=O)O

>  <CID>
134018

>  <logBB>


>  <BBB+/BBB->
BBB-

>  <Inchi>
InChI=1S/C16H16N2O3S/c1-9(2)8-21-13-5-4-11(6-12(13)7-17)15-18-10(3)14(22-15)16(19)20/h4-6-9H-8H2-1-3H3-(H-19-20)

>  <threshold>


>  <reference>
R23|

>  <group>
C

>  <Class>
-1

>  <ABC>
16.65

>  <ABCGG>
14.29

>  <nAcid>
1

>  <nBase>
0

>  <nAromAtom>
11

>  <nAromBond>
11

>  <nAtom>
38

>  <nHeavyAtom>
22

>  <nSpiro>
0

>  <nBridgehead>
0

>  <nHetero>
6

>  <nN>
2

>  <nO>
3

>  <nF>
0

>  <BalabanJ>
1.88

>  <BertzCT>
744.33

>  <nBonds>
39

>  <nBondsO>
23

>  <nBondsS>
26

>  <nBondsD>
1

>  <nBondsT>
1

>  <nBondsA>
11

>  <nBondsM>
13

>  <nBondsKS>
32

>  <nBondsKD>
6

>  <RNCG>
0.25

>  <RPCG>
0.17

>  <FCSP3>
0.31

>  <SZ>
27.67

>  <Sm>
26.34

>  <Sv>
25.18

>  <Sse>
38.5

>  <Sp>
26.88

>  <Si>
42.45

>  <MZ>
0.73

>  <Mm>
0.69

>  <Mv>
0.66

>  <Mse>
1.01

>  <Mp>
0.71

>  <Mi>
1.12

>  <NsCH3>
3

>  <NdCH2>
0

>  <NssCH2>
1

>  <NtCH>
0

>  <NdsCH>
0

>  <NaaCH>
3

>  <NsssCH>
1

>  <NddC>
0

>  <NtsC>
1

>  <NdssC>
1

>  <NaasC>
6

>  <NaaaC>
0

>  <NssssC>
0

>  <NsNH3>
0

>  <NsNH2>
0

>  <NssNH2>
0

>  <NdNH>
0

>  <NssNH>
0

>  <NaaNH>
0

>  <NtN>
1

>  <NsssNH>
0

>  <NdsN>
0

>  <NaaN>
1

>  <NsssN>
0

>  <NddsN>
0

>  <NaasN>
0

>  <NssssN>
0

>  <NsOH>
1

>  <NdO>
1

>  <NssO>
1

>  <NaaO>
0

>  <NsF>
0

>  <NsSiH3>
0

>  <NssSiH2>
0

>  <NsssSiH>
0

>  <NssssSi>
0

>  <NsPH2>
0

>  <NssPH>
0

>  <NsssP>
0

>  <NdsssP>
0

>  <NsssssP>
0

>  <NsSH>
0

>  <NdS>
0

>  <NssS>
0

>  <NaaS>
1

>  <NdssS>
0

>  <NddssS>
0

>  <NsCl>
0

>  <NsBr>
0

>  <NsI>
0

>  <fragCpx>
67.06

>  <fMF>
0.29

>  <nHBAcc>
5

>  <nHBDon>
1

>  <Kier1>
18.34

>  <Kier2>
8.2

>  <Lipinski>
1

>  <GhoseFilter>
1

>  <FilterItLogS>
-4.15

>  <VMcGowan>
234.1

>  <LabuteASA>
132.36

>  <PEOE_VSA1>
9.84

>  <PEOE_VSA2>
0

>  <PEOE_VSA3>
9.78

>  <PEOE_VSA4>
5.26

>  <PEOE_VSA5>
11.34

>  <PEOE_VSA6>
13.85

>  <PEOE_VSA7>
31.04

>  <PEOE_VSA8>
5.56

>  <PEOE_VSA9>
17.86

>  <PEOE_VSA10>
21.7

>  <PEOE_VSA11>
0

>  <PEOE_VSA12>
0

>  <PEOE_VSA13>
0

>  <SMR_VSA1>
14.64

>  <SMR_VSA2>
5.26

>  <SMR_VSA3>
4.98

>  <SMR_VSA4>
5.92

>  <SMR_VSA5>
20.77

>  <SMR_VSA6>
6.61

>  <SMR_VSA7>
34.33

>  <SMR_VSA8>
0

>  <SMR_VSA9>
22.39

>  <SlogP_VSA1>
4.74

>  <SlogP_VSA2>
22.67

>  <SlogP_VSA3>
0

>  <SlogP_VSA4>
24.17

>  <SlogP_VSA5>
34.78

>  <SlogP_VSA6>
18.2

>  <SlogP_VSA7>
0

>  <SlogP_VSA8>
10.57

>  <SlogP_VSA9>
0

>  <SlogP_VSA10>
0

>  <SlogP_VSA11>
5.75

>  <EState_VSA1>
5.97

>  <EState_VSA2>
4.88

>  <EState_VSA3>
40.1

>  <EState_VSA4>
11.34

>  <EState_VSA5>
0

>  <EState_VSA6>
25.12

>  <EState_VSA7>
13.85

>  <EState_VSA8>
11.05

>  <EState_VSA9>
9.84

>  <EState_VSA10>
10.06

>  <VSA_EState1>
5.61

>  <VSA_EState2>
15.58

>  <VSA_EState3>
18.94

>  <VSA_EState4>
1.61

>  <VSA_EState5>
-0.09

>  <VSA_EState6>
7.31

>  <VSA_EState7>
0

>  <VSA_EState8>
6.26

>  <VSA_EState9>
0

>  <apol>
44.89

>  <bpol>
22.83

>  <nRing>
2

>  <nHRing>
1

>  <naRing>
2

>  <naHRing>
1

>  <nARing 2>
0

>  <nAHRing 2>
0

>  <nFRing>
0

>  <nFHRing>
0

>  <nFaRing>
0

>  <nFaHRing>
0

>  <nFARing 2>
0

>  <nFAHRing 2>
0

>  <nRot>
5

>  <SLogP>
3.72

>  <SMR>
84.29

>  <TopoPSA(NO)>
83.21

>  <TopoPSA>
111.45

>  <JGI1>
0.24

>  <JGI2>
0.09

>  <JGI3>
0.05

>  <JGI4>
0.05

>  <JGI5>
0.04

>  <Diameter>
12

>  <Radius>
6

>  <TMWC10>
118.47

>  <TSRW10>
69.72

>  <MW>
316.09

>  <AMW>
8.32

>  <WPath>
1130

>  <WPol>
32

>  <Zagreb1>
110

>  <Zagreb2>
127

>  <mZagreb2>
4.94

>  <yes>


>  <nAR-cont>
0.336376

>  <nHA-cont>
0.983774276

>  <MWHBN>
0.337478315

>  <MWHBN-cont>
0.716256944

>  <TPSA-cont>
0.222009794

>  <pka_cont>
0.97

>  <yes.1>


>  <BBB_SCORE>
3.323555279

>  <MMFF94 Energy>
30.175

$$$$
Compound 2830
Actelion Java MolfileCreator 2.0

  0  0  0  0  0  0              0 V3000
M  V30 BEGIN CTAB
M  V30 COUNTS 52 54 0 0 0
M  V30 BEGIN ATOM
M  V30 1 S -1.2115 -0.3229 0.3229 0
M  V30 2 C -0.2763 0.5927 1.4001 0
M  V30 3 C -0.1892 0.1453 -0.9816 0
M  V30 4 N 0.7253 1.2534 0.8716 0
M  V30 5 N -0.5368 0.6833 2.7413 0
M  V30 6 C -0.4407 -0.3569 -2.3392 0
M  V30 7 C 0.7834 1.0136 -0.4956 0
M  V30 8 C -1.5028 0.0272 3.4542 0
M  V30 9 C 0.6254 -0.7565 -3.1553 0
M  V30 10 C -1.7268 -0.3902 -2.8769 0
M  V30 11 C 1.8461 1.7136 -1.2684 0
M  V30 12 O -2.2177 -0.8746 3.027 0
M  V30 13 N -1.6406 0.4695 4.7581 0
M  V30 14 C 0.391 -1.1793 -4.4672 0
M  V30 15 C -1.8869 -0.8291 -4.1769 0
M  V30 16 C -1.1072 1.6975 5.3566 0 CFG=2
M  V30 17 C -2.5676 -0.1943 5.6587 0
M  V30 18 N -0.866 -1.219 -4.969 0
M  V30 19 C 1.5312 -1.6342 -5.3824 0
M  V30 20 C 0.3849 1.5431 5.695 0
M  V30 21 C -1.9404 1.8918 6.6252 0
M  V30 22 C -2.3548 0.4743 7.0058 0
M  V30 23 C 2.5156 -0.4812 -5.6084 0
M  V30 24 C 2.2636 -2.8348 -4.7511 0
M  V30 25 C 0.9997 -2.0845 -6.763 0
M  V30 26 O 0.8363 0.7625 6.5253 0
M  V30 27 N 1.2338 2.287 4.9189 0
M  V30 28 F 1.9269 0.6019 -6.1625 0
M  V30 29 F 3.1026 -0.0745 -4.4565 0
M  V30 30 F 3.5214 -0.8539 -6.4383 0
M  V30 31 H 0.191 1.1612 3.2427 0
M  V30 32 H 1.6343 -0.7561 -2.7532 0
M  V30 33 H -2.596 -0.0745 -2.3096 0
M  V30 34 H 1.4694 2.06 -2.2356 0
M  V30 35 H 2.2077 2.5901 -0.7206 0
M  V30 36 H 2.6961 1.046 -1.4373 0
M  V30 37 H -2.8716 -0.8751 -4.6341 0
M  V30 38 H -1.2457 2.5336 4.662 0
M  V30 39 H -2.3807 -1.2723 5.6824 0
M  V30 40 H -3.5839 -0.0218 5.286 0
M  V30 41 H -2.8371 2.479 6.3909 0
M  V30 42 H -1.403 2.3987 7.4323 0
M  V30 43 H -1.5436 -0.0221 7.5506 0
M  V30 44 H -3.2496 0.4473 7.634 0
M  V30 45 H 2.7425 -2.5729 -3.8011 0
M  V30 46 H 1.5706 -3.661 -4.5521 0
M  V30 47 H 3.0497 -3.2123 -5.4151 0
M  V30 48 H 1.8168 -2.4166 -7.4139 0
M  V30 49 H 0.4801 -1.2694 -7.2806 0
M  V30 50 H 0.2976 -2.9217 -6.6697 0
M  V30 51 H 2.2271 2.1832 5.095 0
M  V30 52 H 0.941 3.0131 4.2778 0
M  V30 END ATOM
M  V30 BEGIN BOND
M  V30 1 1 1 2
M  V30 2 1 1 3
M  V30 3 2 2 4
M  V30 4 1 2 5
M  V30 5 1 3 6
M  V30 6 2 3 7
M  V30 7 1 5 8
M  V30 8 2 6 9
M  V30 9 1 6 10
M  V30 10 1 7 11
M  V30 11 2 8 12
M  V30 12 1 8 13
M  V30 13 1 9 14
M  V30 14 2 10 15
M  V30 15 1 13 16
M  V30 16 1 13 17
M  V30 17 2 14 18
M  V30 18 1 14 19
M  V30 19 1 16 20
M  V30 20 1 16 21
M  V30 21 1 17 22
M  V30 22 1 19 23
M  V30 23 1 19 24
M  V30 24 1 19 25
M  V30 25 2 20 26
M  V30 26 1 20 27
M  V30 27 1 23 28
M  V30 28 1 23 29
M  V30 29 1 23 30
M  V30 30 1 4 7
M  V30 31 1 15 18
M  V30 32 1 21 22
M  V30 33 1 5 31
M  V30 34 1 9 32
M  V30 35 1 10 33
M  V30 36 1 11 34
M  V30 37 1 11 35
M  V30 38 1 11 36
M  V30 39 1 15 37
M  V30 40 1 16 38
M  V30 41 1 17 39
M  V30 42 1 17 40
M  V30 43 1 21 41
M  V30 44 1 21 42
M  V30 45 1 22 43
M  V30 46 1 22 44
M  V30 47 1 24 45
M  V30 48 1 24 46
M  V30 49 1 24 47
M  V30 50 1 25 48
M  V30 51 1 25 49
M  V30 52 1 25 50
M  V30 53 1 27 51
M  V30 54 1 27 52
M  V30 END BOND
M  V30 BEGIN COLLECTION
M  V30 MDLV30/STEABS ATOMS=(1 16)
M  V30 END COLLECTION
M  V30 END CTAB
M  END
>  <Column 1>
3585

>  <level_0>
5849

>  <index>
5850

>  <Unnamed: 0>
5850

>  <NO.>
5862

>  <Name>
alpelisib

>  <IUPAC_name>
(2s)-1-n-[4-methyl-5-[2-(1-1-1-trifluoro-2-methylpropan-2-yl)pyridin-4-yl]-1-3-thiazol-2-yl]pyrrolidine-1-2-dicarboxamide

>  <SMILES>
Cc1nc(NC(=O)N2CCC[C@H]2C(N)=O)sc1-c1ccnc(C(C)(C)C(F)(F)F)c1

>  <CID>
56649450

>  <logBB>


>  <BBB+/BBB->
BBB-

>  <Inchi>
InChI=1S/C19H22F3N5O2S/c1-10-14(11-6-7-24-13(9-11)18(2-3)19(20-21)22)30-16(25-10)26-17(29)27-8-4-5-12(27)15(23)28/h6-7-9-12H-4-5-8H2-1-3H3-(H2-23-28)(H-25-26-29)/t12-/m0/s1

>  <threshold>


>  <reference>
R23|

>  <group>
C

>  <Class>
-1

>  <ABC>
23.5

>  <ABCGG>
20.12

>  <nAcid>
0

>  <nBase>
0

>  <nAromAtom>
11

>  <nAromBond>
11

>  <nAtom>
52

>  <nHeavyAtom>
30

>  <nSpiro>
0

>  <nBridgehead>
0

>  <nHetero>
11

>  <nN>
5

>  <nO>
2

>  <nF>
3

>  <BalabanJ>
1.58

>  <BertzCT>
973.32

>  <nBonds>
54

>  <nBondsO>
32

>  <nBondsS>
41

>  <nBondsD>
2

>  <nBondsT>
0

>  <nBondsA>
11

>  <nBondsM>
13

>  <nBondsKS>
47

>  <nBondsKD>
7

>  <RNCG>
0.13

>  <RPCG>
0.14

>  <FCSP3>
0.47

>  <SZ>
38.33

>  <Sm>
36.76

>  <Sv>
33.31

>  <Sse>
53.69

>  <Sp>
34.78

>  <Si>
60

>  <MZ>
0.74

>  <Mm>
0.71

>  <Mv>
0.64

>  <Mse>
1.03

>  <Mp>
0.67

>  <Mi>
1.15

>  <NsCH3>
3

>  <NdCH2>
0

>  <NssCH2>
3

>  <NtCH>
0

>  <NdsCH>
0

>  <NaaCH>
3

>  <NsssCH>
1

>  <NddC>
0

>  <NtsC>
0

>  <NdssC>
2

>  <NaasC>
5

>  <NaaaC>
0

>  <NssssC>
2

>  <NsNH3>
0

>  <NsNH2>
1

>  <NssNH2>
0

>  <NdNH>
0

>  <NssNH>
1

>  <NaaNH>
0

>  <NtN>
0

>  <NsssNH>
0

>  <NdsN>
0

>  <NaaN>
2

>  <NsssN>
1

>  <NddsN>
0

>  <NaasN>
0

>  <NssssN>
0

>  <NsOH>
0

>  <NdO>
2

>  <NssO>
0

>  <NaaO>
0

>  <NsF>
3

>  <NsSiH3>
0

>  <NssSiH2>
0

>  <NsssSiH>
0

>  <NssssSi>
0

>  <NsPH2>
0

>  <NssPH>
0

>  <NsssP>
0

>  <NdsssP>
0

>  <NsssssP>
0

>  <NsSH>
0

>  <NdS>
0

>  <NssS>
0

>  <NaaS>
1

>  <NdssS>
0

>  <NddssS>
0

>  <NsCl>
0

>  <NsBr>
0

>  <NsI>
0

>  <fragCpx>
154.11

>  <fMF>
0.35

>  <nHBAcc>
5

>  <nHBDon>
2

>  <Kier1>
24.64

>  <Kier2>
9.47

>  <Lipinski>
1

>  <GhoseFilter>
1

>  <FilterItLogS>
-4.77

>  <VMcGowan>
299.16

>  <LabuteASA>
175.05

>  <PEOE_VSA1>
10.63

>  <PEOE_VSA2>
15.1

>  <PEOE_VSA3>
9.78

>  <PEOE_VSA4>
13.17

>  <PEOE_VSA5>
0

>  <PEOE_VSA6>
11.34

>  <PEOE_VSA7>
51.31

>  <PEOE_VSA8>
12.74

>  <PEOE_VSA9>
16.27

>  <PEOE_VSA10>
11.46

>  <PEOE_VSA11>
5.13

>  <PEOE_VSA12>
5.91

>  <PEOE_VSA13>
0

>  <SMR_VSA1>
22.76

>  <SMR_VSA2>
0

>  <SMR_VSA3>
14.87

>  <SMR_VSA4>
5.73

>  <SMR_VSA5>
51.25

>  <SMR_VSA6>
11.86

>  <SMR_VSA7>
29.72

>  <SMR_VSA8>
0

>  <SMR_VSA9>
10.44

>  <SlogP_VSA1>
11.05

>  <SlogP_VSA2>
45.57

>  <SlogP_VSA3>
10.21

>  <SlogP_VSA4>
6.92

>  <SlogP_VSA5>
38.08

>  <SlogP_VSA6>
18.33

>  <SlogP_VSA7>
0

>  <SlogP_VSA8>
10.44

>  <SlogP_VSA9>
0

>  <SlogP_VSA10>
23.1

>  <SlogP_VSA11>
0

>  <EState_VSA1>
29.57

>  <EState_VSA2>
10.83

>  <EState_VSA3>
35.52

>  <EState_VSA4>
25.18

>  <EState_VSA5>
17.16

>  <EState_VSA6>
12.99

>  <EState_VSA7>
0

>  <EState_VSA8>
15.28

>  <EState_VSA9>
5.73

>  <EState_VSA10>
22.76

>  <VSA_EState1>
40.14

>  <VSA_EState2>
34.23

>  <VSA_EState3>
2.95

>  <VSA_EState4>
4.22

>  <VSA_EState5>
-0.56

>  <VSA_EState6>
1.86

>  <VSA_EState7>
-1.93

>  <VSA_EState8>
4.28

>  <VSA_EState9>
0

>  <apol>
58.07

>  <bpol>
33.6

>  <nRing>
3

>  <nHRing>
3

>  <naRing>
2

>  <naHRing>
2

>  <nARing 2>
1

>  <nAHRing 2>
1

>  <nFRing>
0

>  <nFHRing>
0

>  <nFaRing>
0

>  <nFaHRing>
0

>  <nFARing 2>
0

>  <nFAHRing 2>
0

>  <nRot>
4

>  <SLogP>
3.84

>  <SMR>
107.1

>  <TopoPSA(NO)>
101.21

>  <TopoPSA>
129.45

>  <JGI1>
0.28

>  <JGI2>
0.11

>  <JGI3>
0.06

>  <JGI4>
0.04

>  <JGI5>
0.03

>  <Diameter>
14

>  <Radius>
7

>  <TMWC10>
139.96

>  <TSRW10>
81.89

>  <MW>
441.14

>  <AMW>
8.48

>  <WPath>
2611

>  <WPol>
50

>  <Zagreb1>
162

>  <Zagreb2>
193

>  <mZagreb2>
6.28

>  <yes>


>  <nAR-cont>
0.816016

>  <nHA-cont>
0.74523694

>  <MWHBN>
0.333280436

>  <MWHBN-cont>
0.731271776

>  <TPSA-cont>
0

>  <pka_cont>
0.97

>  <yes.1>


>  <BBB_SCORE>
3.143160604

>  <MMFF94 Energy>
-41.992

$$$$
Compound 2831
Actelion Java MolfileCreator 2.0

  0  0  0  0  0  0              0 V3000
M  V30 BEGIN CTAB
M  V30 COUNTS 31 32 0 0 0
M  V30 BEGIN ATOM
M  V30 1 S -1.3703 -1.3703 0.4028 0
M  V30 2 O -0.4342 -2.1908 -0.3331 0
M  V30 3 O -2.4725 -1.9699 1.1284 0
M  V30 4 N -0.6048 -0.3561 1.4947 0
M  V30 5 C -2.0571 -0.1867 -0.7305 0
M  V30 6 C 0.8172 -0.5305 1.5245 0
M  V30 7 C -3.4028 0.1727 -0.6427 0
M  V30 8 C -1.242 0.3541 -1.727 0
M  V30 9 O 1.6454 -0.3492 0.4567 0
M  V30 10 N 1.4329 -0.7775 2.6583 0
M  V30 11 C -3.9273 1.094 -1.5537 0
M  V30 12 C -1.78 1.2741 -2.6307 0
M  V30 13 C 2.8958 -0.5631 0.9634 0
M  V30 14 C 2.7646 -0.8245 2.3109 0
M  V30 15 C -3.1271 1.6426 -2.5609 0
M  V30 16 C 4.0219 -0.4705 0.0201 0
M  V30 17 C 3.8084 -1.1153 3.3151 0
M  V30 18 N -3.6448 2.5786 -3.4365 0
M  V30 19 H -0.9977 -0.475 2.4256 0
M  V30 20 H -4.0479 -0.2505 0.1234 0
M  V30 21 H -0.1952 0.0689 -1.8052 0
M  V30 22 H -4.9737 1.3781 -1.473 0
M  V30 23 H -1.1364 1.6993 -3.3965 0
M  V30 24 H 4.9745 -0.6707 0.5197 0
M  V30 25 H 3.9035 -1.1969 -0.7897 0
M  V30 26 H 4.0719 0.5305 -0.4189 0
M  V30 27 H 3.3674 -1.2783 4.3034 0
M  V30 28 H 4.366 -2.0155 3.0391 0
M  V30 29 H 4.5118 -0.2803 3.3902 0
M  V30 30 H -3.0867 2.9234 -4.2053 0
M  V30 31 H -4.6324 2.7937 -3.4304 0
M  V30 END ATOM
M  V30 BEGIN BOND
M  V30 1 2 1 2
M  V30 2 2 1 3
M  V30 3 1 1 4
M  V30 4 1 1 5
M  V30 5 1 4 6
M  V30 6 2 5 7
M  V30 7 1 5 8
M  V30 8 1 6 9
M  V30 9 2 6 10
M  V30 10 1 7 11
M  V30 11 2 8 12
M  V30 12 1 9 13
M  V30 13 1 10 14
M  V30 14 2 11 15
M  V30 15 1 13 16
M  V30 16 1 14 17
M  V30 17 1 15 18
M  V30 18 1 12 15
M  V30 19 2 13 14
M  V30 20 1 4 19
M  V30 21 1 7 20
M  V30 22 1 8 21
M  V30 23 1 11 22
M  V30 24 1 12 23
M  V30 25 1 16 24
M  V30 26 1 16 25
M  V30 27 1 16 26
M  V30 28 1 17 27
M  V30 29 1 17 28
M  V30 30 1 17 29
M  V30 31 1 18 30
M  V30 32 1 18 31
M  V30 END BOND
M  V30 END CTAB
M  END
>  <Column 1>
3586

>  <level_0>
5850

>  <index>
5851

>  <Unnamed: 0>
5851

>  <NO.>
5863

>  <Name>
sulfamoxole

>  <IUPAC_name>
4-amino-n-(4-5-dimethyl-1-3-oxazol-2-yl)benzenesulfonamide

>  <SMILES>
Cc1nc(NS(=O)(=O)c2ccc(N)cc2)oc1C

>  <CID>
12894

>  <logBB>


>  <BBB+/BBB->
BBB-

>  <Inchi>
InChI=1S/C11H13N3O3S/c1-7-8(2)17-11(13-7)14-18(15-16)10-5-3-9(12)4-6-10/h3-6H-12H2-1-2H3-(H-13-14)

>  <threshold>


>  <reference>
R23|

>  <group>
C

>  <Class>
-1

>  <ABC>
13.98

>  <ABCGG>
12.36

>  <nAcid>
0

>  <nBase>
0

>  <nAromAtom>
11

>  <nAromBond>
11

>  <nAtom>
31

>  <nHeavyAtom>
18

>  <nSpiro>
0

>  <nBridgehead>
0

>  <nHetero>
7

>  <nN>
3

>  <nO>
3

>  <nF>
0

>  <BalabanJ>
1.87

>  <BertzCT>
639.84

>  <nBonds>
32

>  <nBondsO>
19

>  <nBondsS>
19

>  <nBondsD>
2

>  <nBondsT>
0

>  <nBondsA>
11

>  <nBondsM>
13

>  <nBondsKS>
25

>  <nBondsKD>
7

>  <RNCG>
0.23

>  <RPCG>
0.17

>  <FCSP3>
0.18

>  <SZ>
23.33

>  <Sm>
22.25

>  <Sv>
20.13

>  <Sse>
31.83

>  <Sp>
21.34

>  <Si>
35.12

>  <MZ>
0.75

>  <Mm>
0.72

>  <Mv>
0.65

>  <Mse>
1.03

>  <Mp>
0.69

>  <Mi>
1.13

>  <NsCH3>
2

>  <NdCH2>
0

>  <NssCH2>
0

>  <NtCH>
0

>  <NdsCH>
0

>  <NaaCH>
4

>  <NsssCH>
0

>  <NddC>
0

>  <NtsC>
0

>  <NdssC>
0

>  <NaasC>
5

>  <NaaaC>
0

>  <NssssC>
0

>  <NsNH3>
0

>  <NsNH2>
1

>  <NssNH2>
0

>  <NdNH>
0

>  <NssNH>
1

>  <NaaNH>
0

>  <NtN>
0

>  <NsssNH>
0

>  <NdsN>
0

>  <NaaN>
1

>  <NsssN>
0

>  <NddsN>
0

>  <NaasN>
0

>  <NssssN>
0

>  <NsOH>
0

>  <NdO>
2

>  <NssO>
0

>  <NaaO>
1

>  <NsF>
0

>  <NsSiH3>
0

>  <NssSiH2>
0

>  <NsssSiH>
0

>  <NssssSi>
0

>  <NsPH2>
0

>  <NssPH>
0

>  <NsssP>
0

>  <NdsssP>
0

>  <NsssssP>
0

>  <NsSH>
0

>  <NdS>
0

>  <NssS>
0

>  <NaaS>
0

>  <NdssS>
0

>  <NddssS>
1

>  <NsCl>
0

>  <NsBr>
0

>  <NsI>
0

>  <fragCpx>
55.07

>  <fMF>
0.42

>  <nHBAcc>
5

>  <nHBDon>
2

>  <Kier1>
14.41

>  <Kier2>
5.55

>  <Lipinski>
1

>  <GhoseFilter>
1

>  <FilterItLogS>
-3.54

>  <VMcGowan>
186.53

>  <LabuteASA>
104.88

>  <PEOE_VSA1>
10.15

>  <PEOE_VSA2>
0

>  <PEOE_VSA3>
13.14

>  <PEOE_VSA4>
4.98

>  <PEOE_VSA5>
0

>  <PEOE_VSA6>
0

>  <PEOE_VSA7>
38.11

>  <PEOE_VSA8>
5.69

>  <PEOE_VSA9>
10.59

>  <PEOE_VSA10>
5.76

>  <PEOE_VSA11>
0

>  <PEOE_VSA12>
0

>  <PEOE_VSA13>
10.02

>  <SMR_VSA1>
12.83

>  <SMR_VSA2>
0

>  <SMR_VSA3>
4.98

>  <SMR_VSA4>
0

>  <SMR_VSA5>
18.74

>  <SMR_VSA6>
10.46

>  <SMR_VSA7>
35.72

>  <SMR_VSA8>
0

>  <SMR_VSA9>
0

>  <SlogP_VSA1>
10.46

>  <SlogP_VSA2>
13.4

>  <SlogP_VSA3>
10.02

>  <SlogP_VSA4>
13.85

>  <SlogP_VSA5>
11.45

>  <SlogP_VSA6>
33.58

>  <SlogP_VSA7>
0

>  <SlogP_VSA8>
0

>  <SlogP_VSA9>
0

>  <SlogP_VSA10>
11.7

>  <SlogP_VSA11>
0

>  <EState_VSA1>
10.02

>  <EState_VSA2>
10.91

>  <EState_VSA3>
17.14

>  <EState_VSA4>
0

>  <EState_VSA5>
24.27

>  <EState_VSA6>
13.85

>  <EState_VSA7>
0

>  <EState_VSA8>
9.71

>  <EState_VSA9>
10.15

>  <EState_VSA10>
8.42

>  <VSA_EState1>
31.4

>  <VSA_EState2>
4.06

>  <VSA_EState3>
0

>  <VSA_EState4>
6.64

>  <VSA_EState5>
0.57

>  <VSA_EState6>
5.82

>  <VSA_EState7>
0

>  <VSA_EState8>
3.45

>  <VSA_EState9>
-3.7

>  <apol>
35.64

>  <bpol>
22.57

>  <nRing>
2

>  <nHRing>
1

>  <naRing>
2

>  <naHRing>
1

>  <nARing 2>
0

>  <nAHRing 2>
0

>  <nFRing>
0

>  <nFHRing>
0

>  <nFaRing>
0

>  <nFaHRing>
0

>  <nFARing 2>
0

>  <nFAHRing 2>
0

>  <nRot>
3

>  <SLogP>
1.67

>  <SMR>
67.64

>  <TopoPSA(NO)>
98.22

>  <TopoPSA>
106.6

>  <JGI1>
0.32

>  <JGI2>
0.1

>  <JGI3>
0.08

>  <JGI4>
0.04

>  <JGI5>
0.05

>  <Diameter>
10

>  <Radius>
5

>  <TMWC10>
109.01

>  <TSRW10>
65.01

>  <MW>
267.07

>  <AMW>
8.62

>  <WPath>
625

>  <WPol>
25

>  <Zagreb1>
94

>  <Zagreb2>
108

>  <mZagreb2>
3.82

>  <yes>


>  <nAR-cont>
0.336376

>  <nHA-cont>
0.991161285

>  <MWHBN>
0.428336898

>  <MWHBN-cont>
0.366022724

>  <TPSA-cont>
0.255865805

>  <pka_cont>
0.97

>  <yes.1>


>  <BBB_SCORE>
2.873302982

>  <MMFF94 Energy>
-92.492

$$$$
Compound 2832
Actelion Java MolfileCreator 2.0

  0  0  0  0  0  0              0 V3000
M  V30 BEGIN CTAB
M  V30 COUNTS 59 62 0 0 0
M  V30 BEGIN ATOM
M  V30 1 Cl 5.412 -0.9676 -3.6325 0
M  V30 2 C 5.0588 -2.632 -3.9484 0
M  V30 3 C 4.5467 -3.4885 -2.9561 0
M  V30 4 C 5.3592 -3.129 -5.2176 0
M  V30 5 N 4.2481 -3.0124 -1.6619 0
M  V30 6 C 4.3671 -4.8573 -3.2321 0
M  V30 7 C 5.164 -4.479 -5.5012 0
M  V30 8 C 3.1932 -2.1425 -1.4197 0
M  V30 9 C 4.6761 -5.337 -4.5147 0
M  V30 10 C 3.824 -5.8075 -2.201 0
M  V30 11 O 2.4138 -1.7952 -2.3052 0
M  V30 12 C 3.0662 -1.7187 -0.0378 0
M  V30 13 S 1.6348 -0.9447 0.4956 0
M  V30 14 C 3.9379 -1.8075 1.0249 0
M  V30 15 C 2.2702 -0.7863 2.0893 0
M  V30 16 N 3.4732 -1.3073 2.2246 0
M  V30 17 N 1.6405 -0.2583 3.1577 0
M  V30 18 C 0.461 0.4504 3.357 0
M  V30 19 N 0.1047 0.5542 4.6471 0
M  V30 20 C -0.3008 1.0343 2.3662 0
M  V30 21 C -1.0179 1.2327 4.9252 0
M  V30 22 C -1.4673 1.694 2.718 0
M  V30 23 N -1.818 1.7957 4.0096 0
M  V30 24 C -1.4347 1.3271 6.3589 0
M  V30 25 N -2.2741 2.2999 1.7563 0
M  V30 26 C -3.3895 3.1142 2.2669 0
M  V30 27 C -2.5645 1.5758 0.5098 0
M  V30 28 C -3.989 4.0007 1.1534 0
M  V30 29 C -3.1969 2.5091 -0.5507 0
M  V30 30 N -4.3861 3.2374 -0.0543 0
M  V30 31 C -4.9266 4.1605 -1.0691 0
M  V30 32 C -5.6082 3.4549 -2.2494 0
M  V30 33 O -6.1805 4.428 -3.1205 0
M  V30 34 H 5.7531 -2.47 -5.987 0
M  V30 35 H 4.7569 -3.4261 -0.895 0
M  V30 36 H 5.3957 -4.8647 -6.4911 0
M  V30 37 H 4.5318 -6.3881 -4.7585 0
M  V30 38 H 2.8212 -5.4974 -1.8899 0
M  V30 39 H 4.4836 -5.8392 -1.3279 0
M  V30 40 H 3.7482 -6.827 -2.5933 0
M  V30 41 H 4.9366 -2.225 0.999 0
M  V30 42 H 2.0665 -0.453 4.0564 0
M  V30 43 H 0.0225 1.0402 1.3398 0
M  V30 44 H -0.5597 1.3215 7.0159 0
M  V30 45 H -1.9912 2.2522 6.5384 0
M  V30 46 H -2.073 0.4763 6.6138 0
M  V30 47 H -3.0515 3.7826 3.069 0
M  V30 48 H -4.1712 2.4596 2.674 0
M  V30 49 H -3.2518 0.7474 0.7249 0
M  V30 50 H -1.6629 1.1464 0.062 0
M  V30 51 H -4.8664 4.5124 1.5675 0
M  V30 52 H -3.2565 4.7744 0.885 0
M  V30 53 H -2.4336 3.2213 -0.8922 0
M  V30 54 H -3.4699 1.8861 -1.4091 0
M  V30 55 H -4.1518 4.8422 -1.4449 0
M  V30 56 H -5.6847 4.8064 -0.6054 0
M  V30 57 H -4.8948 2.8655 -2.8319 0
M  V30 58 H -6.409 2.7977 -1.8948 0
M  V30 59 H -6.64 3.9383 -3.824 0
M  V30 END ATOM
M  V30 BEGIN BOND
M  V30 1 1 1 2
M  V30 2 2 2 3
M  V30 3 1 2 4
M  V30 4 1 3 5
M  V30 5 1 3 6
M  V30 6 2 4 7
M  V30 7 1 5 8
M  V30 8 2 6 9
M  V30 9 1 6 10
M  V30 10 2 8 11
M  V30 11 1 8 12
M  V30 12 1 12 13
M  V30 13 2 12 14
M  V30 14 1 13 15
M  V30 15 1 14 16
M  V30 16 1 15 17
M  V30 17 1 17 18
M  V30 18 2 18 19
M  V30 19 1 18 20
M  V30 20 1 19 21
M  V30 21 2 20 22
M  V30 22 2 21 23
M  V30 23 1 21 24
M  V30 24 1 22 25
M  V30 25 1 25 26
M  V30 26 1 25 27
M  V30 27 1 26 28
M  V30 28 1 27 29
M  V30 29 1 28 30
M  V30 30 1 30 31
M  V30 31 1 31 32
M  V30 32 1 32 33
M  V30 33 1 7 9
M  V30 34 2 15 16
M  V30 35 1 22 23
M  V30 36 1 29 30
M  V30 37 1 4 34
M  V30 38 1 5 35
M  V30 39 1 7 36
M  V30 40 1 9 37
M  V30 41 1 10 38
M  V30 42 1 10 39
M  V30 43 1 10 40
M  V30 44 1 14 41
M  V30 45 1 17 42
M  V30 46 1 20 43
M  V30 47 1 24 44
M  V30 48 1 24 45
M  V30 49 1 24 46
M  V30 50 1 26 47
M  V30 51 1 26 48
M  V30 52 1 27 49
M  V30 53 1 27 50
M  V30 54 1 28 51
M  V30 55 1 28 52
M  V30 56 1 29 53
M  V30 57 1 29 54
M  V30 58 1 31 55
M  V30 59 1 31 56
M  V30 60 1 32 57
M  V30 61 1 32 58
M  V30 62 1 33 59
M  V30 END BOND
M  V30 END CTAB
M  END
>  <Column 1>
3587

>  <level_0>
5851

>  <index>
5852

>  <Unnamed: 0>
5852

>  <NO.>
5864

>  <Name>
dasatinib

>  <IUPAC_name>
n-(2-chloro-6-methylphenyl)-2-[[6-[4-(2-hydroxyethyl)piperazin-1-yl]-2-methylpyrimidin-4-yl]amino]-1-3-thiazole-5-carboxamide

>  <SMILES>
Cc1nc(Nc2ncc(C(=O)Nc3c(C)cccc3Cl)s2)cc(N2CCN(CCO)CC2)n1

>  <CID>
3062316

>  <logBB>


>  <BBB+/BBB->
BBB-

>  <Inchi>
InChI=1S/C22H26ClN7O2S/c1-14-4-3-5-16(23)20(14)28-21(32)17-13-24-22(33-17)27-18-12-19(26-15(2)25-18)30-8-6-29(7-9-30)10-11-31/h3-5-12-13-31H-6-11H2-1-2H3-(H-28-32)(H-24-25-26-27)

>  <threshold>


>  <reference>
R23|

>  <group>
C

>  <Class>
-1

>  <ABC>
25.73

>  <ABCGG>
19.15

>  <nAcid>
0

>  <nBase>
1

>  <nAromAtom>
17

>  <nAromBond>
17

>  <nAtom>
59

>  <nHeavyAtom>
33

>  <nSpiro>
0

>  <nBridgehead>
0

>  <nHetero>
11

>  <nN>
7

>  <nO>
2

>  <nF>
0

>  <BalabanJ>
1.23

>  <BertzCT>
1111.43

>  <nBonds>
62

>  <nBondsO>
36

>  <nBondsS>
44

>  <nBondsD>
1

>  <nBondsT>
0

>  <nBondsA>
17

>  <nBondsM>
18

>  <nBondsKS>
53

>  <nBondsKD>
9

>  <RNCG>
0.13

>  <RPCG>
0.09

>  <FCSP3>
0.36

>  <SZ>
42.67

>  <Sm>
40.63

>  <Sv>
38.06

>  <Sse>
59.69

>  <Sp>
40.99

>  <Si>
66.92

>  <MZ>
0.72

>  <Mm>
0.69

>  <Mv>
0.65

>  <Mse>
1.01

>  <Mp>
0.69

>  <Mi>
1.13

>  <NsCH3>
2

>  <NdCH2>
0

>  <NssCH2>
6

>  <NtCH>
0

>  <NdsCH>
0

>  <NaaCH>
5

>  <NsssCH>
0

>  <NddC>
0

>  <NtsC>
0

>  <NdssC>
1

>  <NaasC>
8

>  <NaaaC>
0

>  <NssssC>
0

>  <NsNH3>
0

>  <NsNH2>
0

>  <NssNH2>
0

>  <NdNH>
0

>  <NssNH>
2

>  <NaaNH>
0

>  <NtN>
0

>  <NsssNH>
0

>  <NdsN>
0

>  <NaaN>
3

>  <NsssN>
2

>  <NddsN>
0

>  <NaasN>
0

>  <NssssN>
0

>  <NsOH>
1

>  <NdO>
1

>  <NssO>
0

>  <NaaO>
0

>  <NsF>
0

>  <NsSiH3>
0

>  <NssSiH2>
0

>  <NsssSiH>
0

>  <NssssSi>
0

>  <NsPH2>
0

>  <NssPH>
0

>  <NsssP>
0

>  <NdsssP>
0

>  <NsssssP>
0

>  <NsSH>
0

>  <NdS>
0

>  <NssS>
0

>  <NaaS>
1

>  <NdssS>
0

>  <NddssS>
0

>  <NsCl>
1

>  <NsBr>
0

>  <NsI>
0

>  <fragCpx>
240.11

>  <fMF>
0.44

>  <nHBAcc>
9

>  <nHBDon>
3

>  <Kier1>
26.07

>  <Kier2>
12.3

>  <Lipinski>
1

>  <GhoseFilter>
0

>  <FilterItLogS>
-6.12

>  <VMcGowan>
348.89

>  <LabuteASA>
201

>  <PEOE_VSA1>
20.64

>  <PEOE_VSA2>
9.69

>  <PEOE_VSA3>
14.95

>  <PEOE_VSA4>
0

>  <PEOE_VSA5>
0

>  <PEOE_VSA6>
35.07

>  <PEOE_VSA7>
25.48

>  <PEOE_VSA8>
38.79

>  <PEOE_VSA9>
23.51

>  <PEOE_VSA10>
22.34

>  <PEOE_VSA11>
5.13

>  <PEOE_VSA12>
0

>  <PEOE_VSA13>
5.91

>  <SMR_VSA1>
9.9

>  <SMR_VSA2>
0

>  <SMR_VSA3>
19.85

>  <SMR_VSA4>
0

>  <SMR_VSA5>
13.85

>  <SMR_VSA6>
54.86

>  <SMR_VSA7>
51.75

>  <SMR_VSA8>
0

>  <SMR_VSA9>
0

>  <SlogP_VSA1>
15.53

>  <SlogP_VSA2>
70.2

>  <SlogP_VSA3>
0

>  <SlogP_VSA4>
13.85

>  <SlogP_VSA5>
21.06

>  <SlogP_VSA6>
30.46

>  <SlogP_VSA7>
5.02

>  <SlogP_VSA8>
0

>  <SlogP_VSA9>
0

>  <SlogP_VSA10>
22.45

>  <SlogP_VSA11>
0

>  <EState_VSA1>
0

>  <EState_VSA2>
12.51

>  <EState_VSA3>
38.91

>  <EState_VSA4>
37.56

>  <EState_VSA5>
17.53

>  <EState_VSA6>
6.07

>  <EState_VSA7>
32.05

>  <EState_VSA8>
35.39

>  <EState_VSA9>
16.71

>  <EState_VSA10>
4.79

>  <VSA_EState1>
0

>  <VSA_EState2>
30.98

>  <VSA_EState3>
16.25

>  <VSA_EState4>
1.49

>  <VSA_EState5>
1.85

>  <VSA_EState6>
7.37

>  <VSA_EState7>
1.53

>  <VSA_EState8>
8.03

>  <VSA_EState9>
0

>  <apol>
68.46

>  <bpol>
37.9

>  <nRing>
4

>  <nHRing>
3

>  <naRing>
3

>  <naHRing>
2

>  <nARing 2>
1

>  <nAHRing 2>
1

>  <nFRing>
0

>  <nFHRing>
0

>  <nFaRing>
0

>  <nFaHRing>
0

>  <nFARing 2>
0

>  <nFAHRing 2>
0

>  <nRot>
7

>  <SLogP>
3.31

>  <SMR>
132.05

>  <TopoPSA(NO)>
106.51

>  <TopoPSA>
134.75

>  <JGI1>
0.21

>  <JGI2>
0.07

>  <JGI3>
0.04

>  <JGI4>
0.04

>  <JGI5>
0.03

>  <Diameter>
19

>  <Radius>
10

>  <TMWC10>
146.38

>  <TSRW10>
82.6

>  <MW>
487.16

>  <AMW>
8.26

>  <WPath>
3723

>  <WPol>
50

>  <Zagreb1>
172

>  <Zagreb2>
200

>  <mZagreb2>
7.28

>  <yes>


>  <nAR-cont>
0.816016

>  <nHA-cont>
0.61399562

>  <MWHBN>
0.543682601

>  <MWHBN-cont>
0

>  <TPSA-cont>
0

>  <pka_cont>
0.97

>  <yes.1>


>  <BBB_SCORE>
1.91501162

>  <MMFF94 Energy>
17.745

$$$$
Compound 2833
Actelion Java MolfileCreator 2.0

  0  0  0  0  0  0              0 V3000
M  V30 BEGIN CTAB
M  V30 COUNTS 21 21 0 0 0
M  V30 BEGIN ATOM
M  V30 1 O -0.4718 -0.3145 -3.07 0
M  V30 2 C -0.5325 0.485 -2.1411 0
M  V30 3 C -0.2505 0.1099 -0.7311 0
M  V30 4 C -0.218 1.1335 0.2283 0
M  V30 5 C -0.0131 -1.2206 -0.3495 0
M  V30 6 O -0.4542 2.4232 -0.167 0
M  V30 7 C 0.055 0.7994 1.5554 0
M  V30 8 C 0.2611 -1.4405 0.9945 0
M  V30 9 C -0.0512 -2.3942 -1.2826 0
M  V30 10 N 0.2931 -0.4749 1.9406 0
M  V30 11 C 0.1063 1.825 2.6487 0
M  V30 12 O 1.0178 -2.3173 -2.2112 0
M  V30 13 H -0.796 1.5373 -2.3374 0
M  V30 14 H -0.3455 3.0346 0.5806 0
M  V30 15 H 0.4704 -2.4396 1.3722 0
M  V30 16 H 0.0635 -3.3353 -0.7339 0
M  V30 17 H -1.0104 -2.4574 -1.8087 0
M  V30 18 H 0.8985 2.5534 2.4498 0
M  V30 19 H -0.8542 2.3431 2.7301 0
M  V30 20 H 0.3167 1.3558 3.6156 0
M  V30 21 H 0.7076 -1.6871 -2.898 0
M  V30 END ATOM
M  V30 BEGIN BOND
M  V30 1 2 1 2
M  V30 2 1 2 3
M  V30 3 2 3 4
M  V30 4 1 3 5
M  V30 5 1 4 6
M  V30 6 1 4 7
M  V30 7 2 5 8
M  V30 8 1 5 9
M  V30 9 2 7 10
M  V30 10 1 7 11
M  V30 11 1 9 12
M  V30 12 1 8 10
M  V30 13 1 2 13
M  V30 14 1 6 14
M  V30 15 1 8 15
M  V30 16 1 9 16
M  V30 17 1 9 17
M  V30 18 1 11 18
M  V30 19 1 11 19
M  V30 20 1 11 20
M  V30 21 1 12 21
M  V30 END BOND
M  V30 END CTAB
M  END
>  <Column 1>
3590

>  <level_0>
5854

>  <index>
5855

>  <Unnamed: 0>
5855

>  <NO.>
5867

>  <Name>
pyridoxal

>  <IUPAC_name>
3-hydroxy-5-(hydroxymethyl)-2-methylpyridine-4-carbaldehyde

>  <SMILES>
Cc1ncc(CO)c(C=O)c1O

>  <CID>
1050

>  <logBB>


>  <BBB+/BBB->
BBB-

>  <Inchi>
InChI=1S/C8H9NO3/c1-5-8(12)7(4-11)6(3-10)2-9-5/h2-4-10-12H-3H2-1H3

>  <threshold>


>  <reference>
R23|

>  <group>
C

>  <Class>
-1

>  <ABC>
8.58

>  <ABCGG>
8.48

>  <nAcid>
0

>  <nBase>
0

>  <nAromAtom>
6

>  <nAromBond>
6

>  <nAtom>
21

>  <nHeavyAtom>
12

>  <nSpiro>
0

>  <nBridgehead>
0

>  <nHetero>
4

>  <nN>
1

>  <nO>
3

>  <nF>
0

>  <BalabanJ>
2.58

>  <BertzCT>
309.42

>  <nBonds>
21

>  <nBondsO>
12

>  <nBondsS>
14

>  <nBondsD>
1

>  <nBondsT>
0

>  <nBondsA>
6

>  <nBondsM>
7

>  <nBondsKS>
17

>  <nBondsKD>
4

>  <RNCG>
0.34

>  <RPCG>
0.2

>  <FCSP3>
0.25

>  <SZ>
14.67

>  <Sm>
13.92

>  <Sv>
13.34

>  <Sse>
21.65

>  <Sp>
13.69

>  <Si>
23.79

>  <MZ>
0.7

>  <Mm>
0.66

>  <Mv>
0.64

>  <Mse>
1.03

>  <Mp>
0.65

>  <Mi>
1.13

>  <NsCH3>
1

>  <NdCH2>
0

>  <NssCH2>
1

>  <NtCH>
0

>  <NdsCH>
1

>  <NaaCH>
1

>  <NsssCH>
0

>  <NddC>
0

>  <NtsC>
0

>  <NdssC>
0

>  <NaasC>
4

>  <NaaaC>
0

>  <NssssC>
0

>  <NsNH3>
0

>  <NsNH2>
0

>  <NssNH2>
0

>  <NdNH>
0

>  <NssNH>
0

>  <NaaNH>
0

>  <NtN>
0

>  <NsssNH>
0

>  <NdsN>
0

>  <NaaN>
1

>  <NsssN>
0

>  <NddsN>
0

>  <NaasN>
0

>  <NssssN>
0

>  <NsOH>
2

>  <NdO>
1

>  <NssO>
0

>  <NaaO>
0

>  <NsF>
0

>  <NsSiH3>
0

>  <NssSiH2>
0

>  <NsssSiH>
0

>  <NssssSi>
0

>  <NsPH2>
0

>  <NssPH>
0

>  <NsssP>
0

>  <NdsssP>
0

>  <NsssssP>
0

>  <NsSH>
0

>  <NdS>
0

>  <NssS>
0

>  <NaaS>
0

>  <NdssS>
0

>  <NddssS>
0

>  <NsCl>
0

>  <NsBr>
0

>  <NsI>
0

>  <fragCpx>
12.04

>  <fMF>
0.29

>  <nHBAcc>
4

>  <nHBDon>
2

>  <Kier1>
10.08

>  <Kier2>
4.3

>  <Lipinski>
1

>  <GhoseFilter>
1

>  <FilterItLogS>
-1.46

>  <VMcGowan>
123.11

>  <LabuteASA>
69.5

>  <PEOE_VSA1>
10.21

>  <PEOE_VSA2>
9.78

>  <PEOE_VSA3>
0

>  <PEOE_VSA4>
0

>  <PEOE_VSA5>
0

>  <PEOE_VSA6>
0

>  <PEOE_VSA7>
6.92

>  <PEOE_VSA8>
11.76

>  <PEOE_VSA9>
17.86

>  <PEOE_VSA10>
5.75

>  <PEOE_VSA11>
6.29

>  <PEOE_VSA12>
0

>  <PEOE_VSA13>
0

>  <SMR_VSA1>
15.01

>  <SMR_VSA2>
0

>  <SMR_VSA3>
4.98

>  <SMR_VSA4>
0

>  <SMR_VSA5>
13.53

>  <SMR_VSA6>
0

>  <SMR_VSA7>
23.02

>  <SMR_VSA8>
0

>  <SMR_VSA9>
5.75

>  <SlogP_VSA1>
0

>  <SlogP_VSA2>
21.48

>  <SlogP_VSA3>
6.61

>  <SlogP_VSA4>
6.92

>  <SlogP_VSA5>
21.62

>  <SlogP_VSA6>
6.2

>  <SlogP_VSA7>
0

>  <SlogP_VSA8>
0

>  <SlogP_VSA9>
0

>  <SlogP_VSA10>
0

>  <SlogP_VSA11>
5.75

>  <EState_VSA1>
0

>  <EState_VSA2>
17.92

>  <EState_VSA3>
17.54

>  <EState_VSA4>
0

>  <EState_VSA5>
6.2

>  <EState_VSA6>
6.92

>  <EState_VSA7>
0

>  <EState_VSA8>
4.98

>  <EState_VSA9>
5.11

>  <EState_VSA10>
9.9

>  <VSA_EState1>
0

>  <VSA_EState2>
14.25

>  <VSA_EState3>
18.06

>  <VSA_EState4>
0.84

>  <VSA_EState5>
-0.16

>  <VSA_EState6>
0

>  <VSA_EState7>
1.88

>  <VSA_EState8>
1.29

>  <VSA_EState9>
0

>  <apol>
22.87

>  <bpol>
11.04

>  <nRing>
1

>  <nHRing>
1

>  <naRing>
1

>  <naHRing>
1

>  <nARing 2>
0

>  <nAHRing 2>
0

>  <nFRing>
0

>  <nFHRing>
0

>  <nFaRing>
0

>  <nFaHRing>
0

>  <nFARing 2>
0

>  <nFAHRing 2>
0

>  <nRot>
2

>  <SLogP>
0.4

>  <SMR>
41.95

>  <TopoPSA(NO)>
70.42

>  <TopoPSA>
70.42

>  <JGI1>
0.21

>  <JGI2>
0.13

>  <JGI3>
0.06

>  <JGI4>
0.06

>  <JGI5>
0.03

>  <Diameter>
6

>  <Radius>
3

>  <TMWC10>
90.94

>  <TSRW10>
42.61

>  <MW>
167.06

>  <AMW>
7.96

>  <WPath>
186

>  <WPol>
18

>  <Zagreb1>
56

>  <Zagreb2>
65

>  <mZagreb2>
2.92

>  <yes>


>  <nAR-cont>
0.336376

>  <nHA-cont>
0.785745021

>  <MWHBN>
0.464210556

>  <MWHBN-cont>
0

>  <TPSA-cont>
0.508424672

>  <pka_cont>
0.97

>  <yes.1>


>  <BBB_SCORE>
2.623970364

>  <MMFF94 Energy>
24.897

$$$$
Compound 2834
Actelion Java MolfileCreator 2.0

  0  0  0  0  0  0              0 V3000
M  V30 BEGIN CTAB
M  V30 COUNTS 45 47 0 0 0
M  V30 BEGIN ATOM
M  V30 1 O 0.4761 2.3824 -1.3494 0
M  V30 2 C 0.4213 1.1792 -1.6012 0
M  V30 3 N 0.0608 0.8164 -2.871 0
M  V30 4 C 0.5913 0.0351 -0.5346 0
M  V30 5 C 1.0621 -1.2689 -1.2534 0
M  V30 6 C 1.6026 0.3416 0.6081 0
M  V30 7 C -0.8467 -0.1006 0.0804 0
M  V30 8 C 2.3491 -1.3065 -1.8324 0
M  V30 9 C 0.257 -2.4149 -1.3808 0
M  V30 10 C 1.6908 -0.5365 1.7113 0
M  V30 11 C 2.4897 1.431 0.5825 0
M  V30 12 C -1.3278 1.12 0.8827 0
M  V30 13 C 2.8089 -2.4399 -2.5055 0
M  V30 14 C 0.7205 -3.5483 -2.0564 0
M  V30 15 C 2.592 -0.3106 2.7546 0
M  V30 16 C 3.3905 1.6573 1.6288 0
M  V30 17 N -2.6662 0.9008 1.4129 0
M  V30 18 C 1.9937 -3.5607 -2.6178 0
M  V30 19 C 3.4382 0.791 2.7158 0
M  V30 20 C -3.8605 1.2258 0.8123 0
M  V30 21 C -2.9477 0.3138 2.6166 0
M  V30 22 N -4.8728 0.8509 1.5701 0
M  V30 23 C -3.9716 1.9027 -0.5043 0
M  V30 24 C -4.3185 0.2924 2.6909 0
M  V30 25 H 0.0114 -0.1447 -3.1852 0
M  V30 26 H -0.0755 1.5517 -3.5522 0
M  V30 27 H -0.9053 -0.9795 0.7363 0
M  V30 28 H -1.5726 -0.2884 -0.7238 0
M  V30 29 H 3.0127 -0.4457 -1.7601 0
M  V30 30 H -0.7452 -2.4626 -0.9633 0
M  V30 31 H 1.065 -1.4254 1.7643 0
M  V30 32 H 2.5113 2.1321 -0.248 0
M  V30 33 H -1.3675 2.0291 0.2781 0
M  V30 34 H -0.681 1.3244 1.7424 0
M  V30 35 H 3.8067 -2.4466 -2.9373 0
M  V30 36 H 0.0844 -4.4266 -2.1404 0
M  V30 37 H 2.6374 -1.0017 3.5924 0
M  V30 38 H 4.0591 2.514 1.5883 0
M  V30 39 H 2.352 -4.4454 -3.1378 0
M  V30 40 H 4.1413 0.9691 3.525 0
M  V30 41 H -2.1789 -0.0277 3.2952 0
M  V30 42 H -3.5546 2.9132 -0.4553 0
M  V30 43 H -3.4444 1.3399 -1.2802 0
M  V30 44 H -5.0213 1.9854 -0.8037 0
M  V30 45 H -4.9364 -0.094 3.4908 0
M  V30 END ATOM
M  V30 BEGIN BOND
M  V30 1 2 1 2
M  V30 2 1 2 3
M  V30 3 1 2 4
M  V30 4 1 4 5
M  V30 5 1 4 6
M  V30 6 1 4 7
M  V30 7 2 5 8
M  V30 8 1 5 9
M  V30 9 2 6 10
M  V30 10 1 6 11
M  V30 11 1 7 12
M  V30 12 1 8 13
M  V30 13 2 9 14
M  V30 14 1 10 15
M  V30 15 2 11 16
M  V30 16 1 12 17
M  V30 17 2 13 18
M  V30 18 2 15 19
M  V30 19 1 17 20
M  V30 20 1 17 21
M  V30 21 2 20 22
M  V30 22 1 20 23
M  V30 23 2 21 24
M  V30 24 1 14 18
M  V30 25 1 16 19
M  V30 26 1 22 24
M  V30 27 1 3 25
M  V30 28 1 3 26
M  V30 29 1 7 27
M  V30 30 1 7 28
M  V30 31 1 8 29
M  V30 32 1 9 30
M  V30 33 1 10 31
M  V30 34 1 11 32
M  V30 35 1 12 33
M  V30 36 1 12 34
M  V30 37 1 13 35
M  V30 38 1 14 36
M  V30 39 1 15 37
M  V30 40 1 16 38
M  V30 41 1 18 39
M  V30 42 1 19 40
M  V30 43 1 21 41
M  V30 44 1 23 42
M  V30 45 1 23 43
M  V30 46 1 23 44
M  V30 47 1 24 45
M  V30 END BOND
M  V30 END CTAB
M  END
>  <Column 1>
3591

>  <level_0>
5855

>  <index>
5856

>  <Unnamed: 0>
5856

>  <NO.>
5868

>  <Name>
imidafenacin

>  <IUPAC_name>
4-(2-methylimidazol-1-yl)-2-2-diphenylbutanamide

>  <SMILES>
Cc1nccn1CCC(C(N)=O)(c1ccccc1)c1ccccc1

>  <CID>
6433090

>  <logBB>


>  <BBB+/BBB->
BBB-

>  <Inchi>
InChI=1S/C20H21N3O/c1-16-22-13-15-23(16)14-12-20(19(21)24-17-8-4-2-5-9-17)18-10-6-3-7-11-18/h2-11-13-15H-12-14H2-1H3-(H2-21-24)

>  <threshold>


>  <reference>
R23|

>  <group>
C

>  <Class>
-1

>  <ABC>
18.49

>  <ABCGG>
16.23

>  <nAcid>
0

>  <nBase>
0

>  <nAromAtom>
17

>  <nAromBond>
17

>  <nAtom>
45

>  <nHeavyAtom>
24

>  <nSpiro>
0

>  <nBridgehead>
0

>  <nHetero>
4

>  <nN>
3

>  <nO>
1

>  <nF>
0

>  <BalabanJ>
1.79

>  <BertzCT>
769.67

>  <nBonds>
47

>  <nBondsO>
26

>  <nBondsS>
29

>  <nBondsD>
1

>  <nBondsT>
0

>  <nBondsA>
17

>  <nBondsM>
18

>  <nBondsKS>
38

>  <nBondsKD>
9

>  <RNCG>
0.19

>  <RPCG>
0.12

>  <FCSP3>
0.2

>  <SZ>
28.33

>  <Sm>
26.59

>  <Sv>
28.68

>  <Sse>
44.64

>  <Sp>
30.84

>  <Si>
50.44

>  <MZ>
0.63

>  <Mm>
0.59

>  <Mv>
0.64

>  <Mse>
0.99

>  <Mp>
0.69

>  <Mi>
1.12

>  <NsCH3>
1

>  <NdCH2>
0

>  <NssCH2>
2

>  <NtCH>
0

>  <NdsCH>
0

>  <NaaCH>
12

>  <NsssCH>
0

>  <NddC>
0

>  <NtsC>
0

>  <NdssC>
1

>  <NaasC>
3

>  <NaaaC>
0

>  <NssssC>
1

>  <NsNH3>
0

>  <NsNH2>
1

>  <NssNH2>
0

>  <NdNH>
0

>  <NssNH>
0

>  <NaaNH>
0

>  <NtN>
0

>  <NsssNH>
0

>  <NdsN>
0

>  <NaaN>
1

>  <NsssN>
0

>  <NddsN>
0

>  <NaasN>
1

>  <NssssN>
0

>  <NsOH>
0

>  <NdO>
1

>  <NssO>
0

>  <NaaO>
0

>  <NsF>
0

>  <NsSiH3>
0

>  <NssSiH2>
0

>  <NsssSiH>
0

>  <NssssSi>
0

>  <NsPH2>
0

>  <NssPH>
0

>  <NsssP>
0

>  <NdsssP>
0

>  <NsssssP>
0

>  <NsSH>
0

>  <NdS>
0

>  <NssS>
0

>  <NaaS>
0

>  <NdssS>
0

>  <NddssS>
0

>  <NsCl>
0

>  <NsBr>
0

>  <NsI>
0

>  <fragCpx>
124.04

>  <fMF>
0.44

>  <nHBAcc>
3

>  <nHBDon>
1

>  <Kier1>
18.78

>  <Kier2>
8.59

>  <Lipinski>
1

>  <GhoseFilter>
1

>  <FilterItLogS>
-4.44

>  <VMcGowan>
257.19

>  <LabuteASA>
141.51

>  <PEOE_VSA1>
10.3

>  <PEOE_VSA2>
4.79

>  <PEOE_VSA3>
4.98

>  <PEOE_VSA4>
0

>  <PEOE_VSA5>
0

>  <PEOE_VSA6>
60.66

>  <PEOE_VSA7>
24.47

>  <PEOE_VSA8>
18.94

>  <PEOE_VSA9>
0

>  <PEOE_VSA10>
11.24

>  <PEOE_VSA11>
0

>  <PEOE_VSA12>
5.91

>  <PEOE_VSA13>
0

>  <SMR_VSA1>
4.79

>  <SMR_VSA2>
0

>  <SMR_VSA3>
9.55

>  <SMR_VSA4>
5.73

>  <SMR_VSA5>
25.3

>  <SMR_VSA6>
0

>  <SMR_VSA7>
90.01

>  <SMR_VSA8>
0

>  <SMR_VSA9>
0

>  <SlogP_VSA1>
5.73

>  <SlogP_VSA2>
15.46

>  <SlogP_VSA3>
16.75

>  <SlogP_VSA4>
6.92

>  <SlogP_VSA5>
23.37

>  <SlogP_VSA6>
73.06

>  <SlogP_VSA7>
0

>  <SlogP_VSA8>
0

>  <SlogP_VSA9>
0

>  <SlogP_VSA10>
0

>  <SlogP_VSA11>
0

>  <EState_VSA1>
5.41

>  <EState_VSA2>
5.91

>  <EState_VSA3>
12.97

>  <EState_VSA4>
16.95

>  <EState_VSA5>
0

>  <EState_VSA6>
6.2

>  <EState_VSA7>
78.35

>  <EState_VSA8>
4.98

>  <EState_VSA9>
5.73

>  <EState_VSA10>
4.79

>  <VSA_EState1>
2.05

>  <VSA_EState2>
16.92

>  <VSA_EState3>
0

>  <VSA_EState4>
6.92

>  <VSA_EState5>
0.59

>  <VSA_EState6>
19.54

>  <VSA_EState7>
4.27

>  <VSA_EState8>
2.62

>  <VSA_EState9>
0

>  <apol>
51.5

>  <bpol>
24.22

>  <nRing>
3

>  <nHRing>
1

>  <naRing>
3

>  <naHRing>
1

>  <nARing 2>
0

>  <nAHRing 2>
0

>  <nFRing>
0

>  <nFHRing>
0

>  <nFaRing>
0

>  <nFaHRing>
0

>  <nFARing 2>
0

>  <nFAHRing 2>
0

>  <nRot>
6

>  <SLogP>
3.05

>  <SMR>
94.44

>  <TopoPSA(NO)>
60.91

>  <TopoPSA>
60.91

>  <JGI1>
0.17

>  <JGI2>
0.1

>  <JGI3>
0.06

>  <JGI4>
0.02

>  <JGI5>
0.02

>  <Diameter>
9

>  <Radius>
5

>  <TMWC10>
125.46

>  <TSRW10>
72.23

>  <MW>
319.17

>  <AMW>
7.09

>  <WPath>
1228

>  <WPol>
39

>  <Zagreb1>
124

>  <Zagreb2>
148

>  <mZagreb2>
5.4

>  <yes>


>  <nAR-cont>
0.336376

>  <nHA-cont>
0.94700071

>  <MWHBN>
0.223897353

>  <MWHBN-cont>
0.992212773

>  <TPSA-cont>
0.574810377

>  <pka_cont>
0.97

>  <yes.1>


>  <BBB_SCORE>
4.406316623

>  <MMFF94 Energy>
69.162

$$$$
Compound 2835
Actelion Java MolfileCreator 2.0

  0  0  0  0  0  0              0 V3000
M  V30 BEGIN CTAB
M  V30 COUNTS 52 56 0 0 0
M  V30 BEGIN ATOM
M  V30 1 S 5.9797 0.4087 -2.1267 0
M  V30 2 C 5.0158 1.6842 -1.4774 0
M  V30 3 C 4.362 -0.2947 -1.691 0 CFG=2
M  V30 4 N 3.9405 0.9866 -1.2466 0
M  V30 5 C 5.2031 2.9883 -1.221 0
M  V30 6 C 4.4568 -1.3215 -0.5763 0
M  V30 7 C 2.7627 1.5285 -0.7175 0
M  V30 8 C 4.0219 3.6919 -0.6404 0
M  V30 9 C 6.4839 3.616 -1.5276 0
M  V30 10 C 2.7787 2.8963 -0.3842 0
M  V30 11 C 1.5935 0.7858 -0.5131 0
M  V30 12 O 4.0222 4.8957 -0.4051 0
M  V30 13 O 7.1907 3.4086 -2.4979 0
M  V30 14 O 6.8667 4.4831 -0.5748 0
M  V30 15 C 1.6488 3.5045 0.1517 0
M  V30 16 C 0.4349 1.3651 0.0384 0
M  V30 17 C 0.5018 2.7411 0.3549 0
M  V30 18 N -0.7256 0.6226 0.2421 0
M  V30 19 F -0.5811 3.3771 0.8312 0
M  V30 20 C -0.9894 -0.6108 -0.5133 0
M  V30 21 C -1.3631 0.6713 1.571 0
M  V30 22 C -2.5019 -0.9364 -0.541 0
M  V30 23 C -2.8641 0.3202 1.4744 0
M  V30 24 N -3.1162 -0.981 0.8081 0
M  V30 25 C -4.5647 -1.2322 0.7401 0
M  V30 26 C -4.8987 -2.6352 0.3424 0
M  V30 27 O -5.0321 -2.9171 -1.0055 0
M  V30 28 C -5.1538 -3.696 1.0798 0
M  V30 29 C -5.358 -4.2633 -0.9765 0
M  V30 30 O -5.4545 -4.7953 0.2993 0
M  V30 31 C -5.1452 -3.8786 2.5521 0
M  V30 32 O -5.5485 -4.9225 -1.9908 0
M  V30 33 H 3.7814 -0.6457 -2.552 0
M  V30 34 H 3.4613 -1.6446 -0.2555 0
M  V30 35 H 4.9857 -2.2171 -0.9211 0
M  V30 36 H 4.9818 -0.94 0.3072 0
M  V30 37 H 1.5939 -0.2675 -0.772 0
M  V30 38 H 7.7103 4.8543 -0.9054 0
M  V30 39 H 1.6405 4.5615 0.4005 0
M  V30 40 H -0.6551 -0.5069 -1.5527 0
M  V30 41 H -0.4408 -1.4457 -0.0596 0
M  V30 42 H -0.8593 -0.0471 2.2306 0
M  V30 43 H -1.2782 1.6512 2.0494 0
M  V30 44 H -2.6126 -1.9058 -1.0388 0
M  V30 45 H -3.0116 -0.1874 -1.1622 0
M  V30 46 H -3.3837 1.1264 0.9386 0
M  V30 47 H -3.2676 0.291 2.494 0
M  V30 48 H -5.0604 -0.5267 0.0601 0
M  V30 49 H -5.0082 -1.0507 1.7278 0
M  V30 50 H -4.4529 -4.6795 2.8298 0
M  V30 51 H -4.834 -2.972 3.079 0
M  V30 52 H -6.1446 -4.15 2.9058 0
M  V30 END ATOM
M  V30 BEGIN BOND
M  V30 1 1 1 2
M  V30 2 1 1 3
M  V30 3 1 2 4
M  V30 4 2 2 5
M  V30 5 1 3 6
M  V30 6 1 4 7
M  V30 7 1 5 8
M  V30 8 1 5 9
M  V30 9 2 7 10
M  V30 10 1 7 11
M  V30 11 2 8 12
M  V30 12 2 9 13
M  V30 13 1 9 14
M  V30 14 1 10 15
M  V30 15 2 11 16
M  V30 16 2 15 17
M  V30 17 1 16 18
M  V30 18 1 17 19
M  V30 19 1 18 20
M  V30 20 1 18 21
M  V30 21 1 20 22
M  V30 22 1 21 23
M  V30 23 1 22 24
M  V30 24 1 24 25
M  V30 25 1 25 26
M  V30 26 1 26 27
M  V30 27 2 26 28
M  V30 28 1 27 29
M  V30 29 1 28 30
M  V30 30 1 28 31
M  V30 31 2 29 32
M  V30 32 1 3 4
M  V30 33 1 8 10
M  V30 34 1 16 17
M  V30 35 1 23 24
M  V30 36 1 29 30
M  V30 37 1 3 33
M  V30 38 1 6 34
M  V30 39 1 6 35
M  V30 40 1 6 36
M  V30 41 1 11 37
M  V30 42 1 14 38
M  V30 43 1 15 39
M  V30 44 1 20 40
M  V30 45 1 20 41
M  V30 46 1 21 42
M  V30 47 1 21 43
M  V30 48 1 22 44
M  V30 49 1 22 45
M  V30 50 1 23 46
M  V30 51 1 23 47
M  V30 52 1 25 48
M  V30 53 1 25 49
M  V30 54 1 31 50
M  V30 55 1 31 51
M  V30 56 1 31 52
M  V30 END BOND
M  V30 BEGIN COLLECTION
M  V30 MDLV30/STERAC1 ATOMS=(1 3)
M  V30 END COLLECTION
M  V30 END CTAB
M  END
>  <Column 1>
3593

>  <level_0>
5857

>  <index>
5858

>  <Unnamed: 0>
5858

>  <NO.>
5870

>  <Name>
prulifloxacin

>  <IUPAC_name>
6-fluoro-1-methyl-7-[4-[(5-methyl-2-oxo-1-3-dioxol-4-yl)methyl]piperazin-1-yl]-4-oxo-1h-[1-3]thiazeto[3-2-a]quinoline-3-carboxylic acid

>  <SMILES>
Cc1oc(=O)oc1CN1CCN(c2cc3c(cc2F)c(=O)c(C(=O)O)c2n3C(C)S2)CC1

>  <CID>
65947

>  <logBB>


>  <BBB+/BBB->
BBB-

>  <Inchi>
InChI=1S/C21H20FN3O6S/c1-10-16(31-21(29)30-10)9-23-3-5-24(6-4-23)15-8-14-12(7-13(15)22)18(26)17(20(27)28)19-25(14)11(2)32-19/h7-8-11H-3-6-9H2-1-2H3-(H-27-28)

>  <threshold>


>  <reference>
R23|

>  <group>
C

>  <Class>
-1

>  <ABC>
25.78

>  <ABCGG>
19.42

>  <nAcid>
1

>  <nBase>
1

>  <nAromAtom>
15

>  <nAromBond>
16

>  <nAtom>
52

>  <nHeavyAtom>
32

>  <nSpiro>
0

>  <nBridgehead>
0

>  <nHetero>
11

>  <nN>
3

>  <nO>
6

>  <nF>
1

>  <BalabanJ>
1.2

>  <BertzCT>
1368.58

>  <nBonds>
56

>  <nBondsO>
36

>  <nBondsS>
37

>  <nBondsD>
3

>  <nBondsT>
0

>  <nBondsA>
16

>  <nBondsM>
19

>  <nBondsKS>
48

>  <nBondsKD>
8

>  <RNCG>
0.14

>  <RPCG>
0.16

>  <FCSP3>
0.38

>  <SZ>
40

>  <Sm>
38.42

>  <Sv>
34.81

>  <Sse>
53.89

>  <Sp>
35.91

>  <Si>
58.75

>  <MZ>
0.77

>  <Mm>
0.74

>  <Mv>
0.67

>  <Mse>
1.04

>  <Mp>
0.69

>  <Mi>
1.13

>  <NsCH3>
2

>  <NdCH2>
0

>  <NssCH2>
5

>  <NtCH>
0

>  <NdsCH>
0

>  <NaaCH>
2

>  <NsssCH>
1

>  <NddC>
0

>  <NtsC>
0

>  <NdssC>
1

>  <NaasC>
6

>  <NaaaC>
2

>  <NssssC>
0

>  <NsNH3>
0

>  <NsNH2>
0

>  <NssNH2>
0

>  <NdNH>
0

>  <NssNH>
0

>  <NaaNH>
0

>  <NtN>
0

>  <NsssNH>
0

>  <NdsN>
0

>  <NaaN>
0

>  <NsssN>
2

>  <NddsN>
0

>  <NaasN>
1

>  <NssssN>
0

>  <NsOH>
1

>  <NdO>
3

>  <NssO>
0

>  <NaaO>
2

>  <NsF>
1

>  <NsSiH3>
0

>  <NssSiH2>
0

>  <NsssSiH>
0

>  <NssssSi>
0

>  <NsPH2>
0

>  <NssPH>
0

>  <NsssP>
0

>  <NdsssP>
0

>  <NsssssP>
0

>  <NsSH>
0

>  <NdS>
0

>  <NssS>
1

>  <NaaS>
0

>  <NdssS>
0

>  <NddssS>
0

>  <NsCl>
0

>  <NsBr>
0

>  <NsI>
0

>  <fragCpx>
304.11

>  <fMF>
0.46

>  <nHBAcc>
9

>  <nHBDon>
1

>  <Kier1>
23.73

>  <Kier2>
9.22

>  <Lipinski>
1

>  <GhoseFilter>
1

>  <FilterItLogS>
-4.38

>  <VMcGowan>
301.32

>  <LabuteASA>
184.56

>  <PEOE_VSA1>
23.41

>  <PEOE_VSA2>
9.69

>  <PEOE_VSA3>
13.98

>  <PEOE_VSA4>
0

>  <PEOE_VSA5>
0

>  <PEOE_VSA6>
11.76

>  <PEOE_VSA7>
25.98

>  <PEOE_VSA8>
31.57

>  <PEOE_VSA9>
28.15

>  <PEOE_VSA10>
17.14

>  <PEOE_VSA11>
5.76

>  <PEOE_VSA12>
5.43

>  <PEOE_VSA13>
0

>  <SMR_VSA1>
23.13

>  <SMR_VSA2>
0

>  <SMR_VSA3>
9.47

>  <SMR_VSA4>
0

>  <SMR_VSA5>
30.79

>  <SMR_VSA6>
31.08

>  <SMR_VSA7>
55.87

>  <SMR_VSA8>
0

>  <SMR_VSA9>
0

>  <SlogP_VSA1>
16.15

>  <SlogP_VSA2>
46.72

>  <SlogP_VSA3>
6.54

>  <SlogP_VSA4>
12.74

>  <SlogP_VSA5>
34.18

>  <SlogP_VSA6>
35.58

>  <SlogP_VSA7>
0

>  <SlogP_VSA8>
10.9

>  <SlogP_VSA9>
0

>  <SlogP_VSA10>
10.08

>  <SlogP_VSA11>
0

>  <EState_VSA1>
23.04

>  <EState_VSA2>
16.32

>  <EState_VSA3>
60.47

>  <EState_VSA4>
6.07

>  <EState_VSA5>
11.76

>  <EState_VSA6>
17.56

>  <EState_VSA7>
11.82

>  <EState_VSA8>
4.9

>  <EState_VSA9>
8.83

>  <EState_VSA10>
19.49

>  <VSA_EState1>
26.79

>  <VSA_EState2>
39.57

>  <VSA_EState3>
9.89

>  <VSA_EState4>
-0.05

>  <VSA_EState5>
-1.64

>  <VSA_EState6>
2.8

>  <VSA_EState7>
0

>  <VSA_EState8>
6.33

>  <VSA_EState9>
0

>  <apol>
59.97

>  <bpol>
34.84

>  <nRing>
5

>  <nHRing>
4

>  <naRing>
3

>  <naHRing>
2

>  <nARing 2>
2

>  <nAHRing 2>
2

>  <nFRing>
1

>  <nFHRing>
1

>  <nFaRing>
0

>  <nFaHRing>
0

>  <nFARing 2>
1

>  <nFAHRing 2>
1

>  <nRot>
4

>  <SLogP>
2.64

>  <SMR>
115.16

>  <TopoPSA(NO)>
109.13

>  <TopoPSA>
134.43

>  <JGI1>
0.21

>  <JGI2>
0.08

>  <JGI3>
0.07

>  <JGI4>
0.05

>  <JGI5>
0.04

>  <Diameter>
16

>  <Radius>
8

>  <TMWC10>
148.08

>  <TSRW10>
82.99

>  <MW>
461.11

>  <AMW>
8.87

>  <WPath>
3080

>  <WPol>
57

>  <Zagreb1>
182

>  <Zagreb2>
224

>  <mZagreb2>
6.72

>  <yes>


>  <nAR-cont>
1

>  <nHA-cont>
0.658856097

>  <MWHBN>
0.465690876

>  <MWHBN-cont>
0

>  <TPSA-cont>
0

>  <pka_cont>
0.97

>  <yes.1>


>  <BBB_SCORE>
2.143856097

>  <MMFF94 Energy>
124.58

$$$$
Compound 2836
Actelion Java MolfileCreator 2.0

  0  0  0  0  0  0              0 V3000
M  V30 BEGIN CTAB
M  V30 COUNTS 18 18 0 0 0
M  V30 BEGIN ATOM
M  V30 1 I -4.0776 0.2655 5.1433 0
M  V30 2 C -2.6906 0.555 3.6154 0
M  V30 3 C -1.8918 0.7204 2.7347 0
M  V30 4 C -0.9163 0.9215 1.6587 0
M  V30 5 O -0.848 -0.2653 0.8714 0
M  V30 6 C 0.0102 -0.2913 -0.1955 0
M  V30 7 C 0.0464 -1.4801 -0.9448 0
M  V30 8 C 0.8362 0.7705 -0.5782 0
M  V30 9 Cl -0.9466 -2.8342 -0.5308 0
M  V30 10 C 0.8891 -1.6058 -2.0519 0
M  V30 11 C 1.6828 0.6469 -1.6889 0
M  V30 12 C 1.7091 -0.5416 -2.4257 0
M  V30 13 Cl 2.6713 2.0063 -2.0941 0
M  V30 14 Cl 2.7291 -0.7562 -3.8028 0
M  V30 15 H 0.0646 1.1369 2.0981 0
M  V30 16 H -1.2356 1.7661 1.0368 0
M  V30 17 H 0.8446 1.7089 -0.0322 0
M  V30 18 H 0.9042 -2.5329 -2.6202 0
M  V30 END ATOM
M  V30 BEGIN BOND
M  V30 1 1 1 2
M  V30 2 3 2 3
M  V30 3 1 3 4
M  V30 4 1 4 5
M  V30 5 1 5 6
M  V30 6 2 6 7
M  V30 7 1 6 8
M  V30 8 1 7 9
M  V30 9 1 7 10
M  V30 10 2 8 11
M  V30 11 2 10 12
M  V30 12 1 11 13
M  V30 13 1 12 14
M  V30 14 1 11 12
M  V30 15 1 4 15
M  V30 16 1 4 16
M  V30 17 1 8 17
M  V30 18 1 10 18
M  V30 END BOND
M  V30 END CTAB
M  END
>  <Column 1>
3594

>  <level_0>
5858

>  <index>
5859

>  <Unnamed: 0>
5859

>  <NO.>
5871

>  <Name>
haloprogin

>  <IUPAC_name>
1-2-4-trichloro-5-(3-iodoprop-2-ynoxy)benzene

>  <SMILES>
Clc1cc(Cl)c(OCC#CI)cc1Cl

>  <CID>
3561

>  <logBB>


>  <BBB+/BBB->
BBB-

>  <Inchi>
InChI=1S/C9H4Cl3IO/c10-6-4-8(12)9(5-7(6)11)14-3-1-2-13/h4-5H-3H2

>  <threshold>


>  <reference>
R23|

>  <group>
C

>  <Class>
-1

>  <ABC>
10.15

>  <ABCGG>
9.32

>  <nAcid>
0

>  <nBase>
0

>  <nAromAtom>
6

>  <nAromBond>
6

>  <nAtom>
18

>  <nHeavyAtom>
14

>  <nSpiro>
0

>  <nBridgehead>
0

>  <nHetero>
5

>  <nN>
0

>  <nO>
1

>  <nF>
0

>  <BalabanJ>
2.29

>  <BertzCT>
395.02

>  <nBonds>
18

>  <nBondsO>
14

>  <nBondsS>
11

>  <nBondsD>
0

>  <nBondsT>
1

>  <nBondsA>
6

>  <nBondsM>
7

>  <nBondsKS>
14

>  <nBondsKD>
3

>  <RNCG>
0.58

>  <RPCG>
0.18

>  <FCSP3>
0.11

>  <SZ>
28.33

>  <Sm>
30.09

>  <Sv>
15.65

>  <Sse>
18.91

>  <Sp>
18.2

>  <Si>
19.42

>  <MZ>
1.57

>  <Mm>
1.67

>  <Mv>
0.87

>  <Mse>
1.05

>  <Mp>
1.01

>  <Mi>
1.08

>  <NsCH3>
0

>  <NdCH2>
0

>  <NssCH2>
1

>  <NtCH>
0

>  <NdsCH>
0

>  <NaaCH>
2

>  <NsssCH>
0

>  <NddC>
0

>  <NtsC>
2

>  <NdssC>
0

>  <NaasC>
4

>  <NaaaC>
0

>  <NssssC>
0

>  <NsNH3>
0

>  <NsNH2>
0

>  <NssNH2>
0

>  <NdNH>
0

>  <NssNH>
0

>  <NaaNH>
0

>  <NtN>
0

>  <NsssNH>
0

>  <NdsN>
0

>  <NaaN>
0

>  <NsssN>
0

>  <NddsN>
0

>  <NaasN>
0

>  <NssssN>
0

>  <NsOH>
0

>  <NdO>
0

>  <NssO>
1

>  <NaaO>
0

>  <NsF>
0

>  <NsSiH3>
0

>  <NssSiH2>
0

>  <NsssSiH>
0

>  <NssssSi>
0

>  <NsPH2>
0

>  <NssPH>
0

>  <NsssP>
0

>  <NdsssP>
0

>  <NsssssP>
0

>  <NsSH>
0

>  <NdS>
0

>  <NssS>
0

>  <NaaS>
0

>  <NdssS>
0

>  <NddssS>
0

>  <NsCl>
3

>  <NsBr>
0

>  <NsI>
1

>  <fragCpx>
14.05

>  <fMF>
0.33

>  <nHBAcc>
1

>  <nHBDon>
0

>  <Kier1>
12.07

>  <Kier2>
5.78

>  <Lipinski>
1

>  <GhoseFilter>
0

>  <FilterItLogS>
-5.07

>  <VMcGowan>
173.73

>  <LabuteASA>
110.81

>  <PEOE_VSA1>
4.74

>  <PEOE_VSA2>
0

>  <PEOE_VSA3>
0

>  <PEOE_VSA4>
0

>  <PEOE_VSA5>
0

>  <PEOE_VSA6>
40.72

>  <PEOE_VSA7>
9.99

>  <PEOE_VSA8>
28.66

>  <PEOE_VSA9>
15.07

>  <PEOE_VSA10>
12.36

>  <PEOE_VSA11>
0

>  <PEOE_VSA12>
0

>  <PEOE_VSA13>
0

>  <SMR_VSA1>
4.74

>  <SMR_VSA2>
0

>  <SMR_VSA3>
0

>  <SMR_VSA4>
0

>  <SMR_VSA5>
0

>  <SMR_VSA6>
6.61

>  <SMR_VSA7>
27.2

>  <SMR_VSA8>
0

>  <SMR_VSA9>
15.6

>  <SlogP_VSA1>
4.74

>  <SlogP_VSA2>
6.61

>  <SlogP_VSA3>
0

>  <SlogP_VSA4>
9.85

>  <SlogP_VSA5>
0

>  <SlogP_VSA6>
12.13

>  <SlogP_VSA7>
15.07

>  <SlogP_VSA8>
0

>  <SlogP_VSA9>
0

>  <SlogP_VSA10>
0

>  <SlogP_VSA11>
5.75

>  <EState_VSA1>
0

>  <EState_VSA2>
6.61

>  <EState_VSA3>
20.82

>  <EState_VSA4>
0

>  <EState_VSA5>
6.07

>  <EState_VSA6>
6.07

>  <EState_VSA7>
22.59

>  <EState_VSA8>
9.85

>  <EState_VSA9>
39.54

>  <EState_VSA10>
0

>  <VSA_EState1>
7.94

>  <VSA_EState2>
0

>  <VSA_EState3>
1.24

>  <VSA_EState4>
0

>  <VSA_EState5>
3.22

>  <VSA_EState6>
3.11

>  <VSA_EState7>
0

>  <VSA_EState8>
0.28

>  <VSA_EState9>
0

>  <apol>
30.39

>  <bpol>
10.96

>  <nRing>
1

>  <nHRing>
0

>  <naRing>
1

>  <naHRing>
0

>  <nARing 2>
0

>  <nAHRing 2>
0

>  <nFRing>
0

>  <nFHRing>
0

>  <nFaRing>
0

>  <nFaHRing>
0

>  <nFARing 2>
0

>  <nFAHRing 2>
0

>  <nRot>
2

>  <SLogP>
4.42

>  <SMR>
68.76

>  <TopoPSA(NO)>
9.23

>  <TopoPSA>
9.23

>  <JGI1>
0.21

>  <JGI2>
0.1

>  <JGI3>
0.05

>  <JGI4>
0.06

>  <JGI5>
0.03

>  <Diameter>
9

>  <Radius>
5

>  <TMWC10>
95.14

>  <TSRW10>
44.91

>  <MW>
359.84

>  <AMW>
19.99

>  <WPath>
329

>  <WPol>
18

>  <Zagreb1>
64

>  <Zagreb2>
71

>  <mZagreb2>
3.31

>  <yes>


>  <nAR-cont>
0.336376

>  <nHA-cont>
0.887625254

>  <MWHBN>
0.052716344

>  <MWHBN-cont>
0.390906879

>  <TPSA-cont>
0.935568869

>  <pka_cont>
0.97

>  <yes.1>


>  <BBB_SCORE>
4.16649931

>  <MMFF94 Energy>
29.592

$$$$
Compound 2837
Actelion Java MolfileCreator 2.0

  0  0  0  0  0  0              0 V3000
M  V30 BEGIN CTAB
M  V30 COUNTS 36 39 0 0 0
M  V30 BEGIN ATOM
M  V30 1 Cl -0.4121 2.9702 -2.3096 0
M  V30 2 C -1.3334 2.1408 -1.101 0
M  V30 3 C -0.789 1.1159 -0.2945 0
M  V30 4 C -2.6644 2.5465 -0.9595 0
M  V30 5 C -1.6371 0.4983 0.6543 0
M  V30 6 C 0.674 0.687 -0.4189 0 CFG=1
M  V30 7 C -3.4754 1.9365 -0.0137 0
M  V30 8 C -2.9722 0.9187 0.7882 0
M  V30 9 C -1.1454 -0.6411 1.5102 0
M  V30 10 N 1.4705 1.0548 0.774 0
M  V30 11 C 0.8841 -0.7576 -0.879 0
M  V30 12 Cl -5.1122 2.4347 0.1615 0
M  V30 13 C -0.8814 -1.8944 0.684 0
M  V30 14 C 2.3816 0.2838 1.4463 0
M  V30 15 C 1.5029 2.3015 1.3554 0
M  V30 16 C 0.2126 -1.8886 -0.3652 0
M  V30 17 C 1.8658 -0.9578 -1.8828 0
M  V30 18 N 2.9387 0.9412 2.4393 0
M  V30 19 C 2.4017 2.1981 2.3895 0
M  V30 20 C 0.5356 -3.1621 -0.8887 0
M  V30 21 C 2.171 -2.2252 -2.3749 0
M  V30 22 C 1.5026 -3.3307 -1.8771 0
M  V30 23 H -3.0664 3.3385 -1.5867 0
M  V30 24 H 1.1493 1.3119 -1.1827 0
M  V30 25 H -3.6257 0.4435 1.5179 0
M  V30 26 H -0.2695 -0.3444 2.0918 0
M  V30 27 H -1.9073 -0.886 2.2625 0
M  V30 28 H -0.6474 -2.6957 1.3987 0
M  V30 29 H -1.8135 -2.1846 0.179 0
M  V30 30 H 2.6033 -0.7439 1.1875 0
M  V30 31 H 0.9031 3.1288 1.0025 0
M  V30 32 H 2.4151 -0.1105 -2.2939 0
M  V30 33 H 2.696 2.9648 3.0947 0
M  V30 34 H 0.0199 -4.0479 -0.518 0
M  V30 35 H 2.9291 -2.3448 -3.1445 0
M  V30 36 H 1.7292 -4.3241 -2.255 0
M  V30 END ATOM
M  V30 BEGIN BOND
M  V30 1 1 1 2
M  V30 2 2 2 3
M  V30 3 1 2 4
M  V30 4 1 3 5
M  V30 5 1 3 6
M  V30 6 2 4 7
M  V30 7 2 5 8
M  V30 8 1 5 9
M  V30 9 1 6 10
M  V30 10 1 6 11
M  V30 11 1 7 12
M  V30 12 1 9 13
M  V30 13 1 10 14
M  V30 14 1 10 15
M  V30 15 2 11 16
M  V30 16 1 11 17
M  V30 17 2 14 18
M  V30 18 2 15 19
M  V30 19 1 16 20
M  V30 20 2 17 21
M  V30 21 2 20 22
M  V30 22 1 7 8
M  V30 23 1 13 16
M  V30 24 1 18 19
M  V30 25 1 21 22
M  V30 26 1 4 23
M  V30 27 1 6 24
M  V30 28 1 8 25
M  V30 29 1 9 26
M  V30 30 1 9 27
M  V30 31 1 13 28
M  V30 32 1 13 29
M  V30 33 1 14 30
M  V30 34 1 15 31
M  V30 35 1 17 32
M  V30 36 1 19 33
M  V30 37 1 20 34
M  V30 38 1 21 35
M  V30 39 1 22 36
M  V30 END BOND
M  V30 BEGIN COLLECTION
M  V30 MDLV30/STERAC1 ATOMS=(1 6)
M  V30 END COLLECTION
M  V30 END CTAB
M  END
>  <Column 1>
3595

>  <level_0>
5859

>  <index>
5860

>  <Unnamed: 0>
5860

>  <NO.>
5872

>  <Name>
eberconazole

>  <IUPAC_name>
1-(4-6-dichloro-2-tricyclo[9.4.0.03-8]pentadeca-1(15)-3(8)-4-6-11-13-hexaenyl)imidazole

>  <SMILES>
Clc1cc(Cl)c2c(c1)CCc1ccccc1C2n1ccnc1

>  <CID>
72051

>  <logBB>


>  <BBB+/BBB->
BBB-

>  <Inchi>
InChI=1S/C18H14Cl2N2/c19-14-9-13-6-5-12-3-1-2-4-15(12)18(17(13)16(20)10-14)22-8-7-21-11-22/h1-4-7-11-18H-5-6H2

>  <threshold>


>  <reference>
R23|

>  <group>
C

>  <Class>
-1

>  <ABC>
17.65

>  <ABCGG>
14.59

>  <nAcid>
0

>  <nBase>
0

>  <nAromAtom>
17

>  <nAromBond>
17

>  <nAtom>
36

>  <nHeavyAtom>
22

>  <nSpiro>
0

>  <nBridgehead>
0

>  <nHetero>
4

>  <nN>
2

>  <nO>
0

>  <nF>
0

>  <BalabanJ>
1.65

>  <BertzCT>
825.11

>  <nBonds>
39

>  <nBondsO>
25

>  <nBondsS>
22

>  <nBondsD>
0

>  <nBondsT>
0

>  <nBondsA>
17

>  <nBondsM>
17

>  <nBondsKS>
31

>  <nBondsKD>
8

>  <RNCG>
0.27

>  <RPCG>
0.09

>  <FCSP3>
0.17

>  <SZ>
28.33

>  <Sm>
27.41

>  <Sv>
25.49

>  <Sse>
36.07

>  <Sp>
27.52

>  <Si>
39.79

>  <MZ>
0.79

>  <Mm>
0.76

>  <Mv>
0.71

>  <Mse>
1

>  <Mp>
0.76

>  <Mi>
1.11

>  <NsCH3>
0

>  <NdCH2>
0

>  <NssCH2>
2

>  <NtCH>
0

>  <NdsCH>
0

>  <NaaCH>
9

>  <NsssCH>
1

>  <NddC>
0

>  <NtsC>
0

>  <NdssC>
0

>  <NaasC>
6

>  <NaaaC>
0

>  <NssssC>
0

>  <NsNH3>
0

>  <NsNH2>
0

>  <NssNH2>
0

>  <NdNH>
0

>  <NssNH>
0

>  <NaaNH>
0

>  <NtN>
0

>  <NsssNH>
0

>  <NdsN>
0

>  <NaaN>
1

>  <NsssN>
0

>  <NddsN>
0

>  <NaasN>
1

>  <NssssN>
0

>  <NsOH>
0

>  <NdO>
0

>  <NssO>
0

>  <NaaO>
0

>  <NsF>
0

>  <NsSiH3>
0

>  <NssSiH2>
0

>  <NsssSiH>
0

>  <NssssSi>
0

>  <NsPH2>
0

>  <NssPH>
0

>  <NsssP>
0

>  <NdsssP>
0

>  <NsssssP>
0

>  <NsSH>
0

>  <NdS>
0

>  <NssS>
0

>  <NaaS>
0

>  <NdssS>
0

>  <NddssS>
0

>  <NsCl>
2

>  <NsBr>
0

>  <NsI>
0

>  <fragCpx>
163.04

>  <fMF>
0.56

>  <nHBAcc>
2

>  <nHBDon>
0

>  <Kier1>
15.52

>  <Kier2>
6.48

>  <Lipinski>
1

>  <GhoseFilter>
1

>  <FilterItLogS>
-5.89

>  <VMcGowan>
231.08

>  <LabuteASA>
138.88

>  <PEOE_VSA1>
4.57

>  <PEOE_VSA2>
0

>  <PEOE_VSA3>
4.98

>  <PEOE_VSA4>
0

>  <PEOE_VSA5>
0

>  <PEOE_VSA6>
47.47

>  <PEOE_VSA7>
41.66

>  <PEOE_VSA8>
28

>  <PEOE_VSA9>
12.37

>  <PEOE_VSA10>
0

>  <PEOE_VSA11>
0

>  <PEOE_VSA12>
0

>  <PEOE_VSA13>
0

>  <SMR_VSA1>
0

>  <SMR_VSA2>
0

>  <SMR_VSA3>
9.55

>  <SMR_VSA4>
0

>  <SMR_VSA5>
18.88

>  <SMR_VSA6>
0

>  <SMR_VSA7>
87.42

>  <SMR_VSA8>
0

>  <SMR_VSA9>
0

>  <SlogP_VSA1>
0

>  <SlogP_VSA2>
9.55

>  <SlogP_VSA3>
12.84

>  <SlogP_VSA4>
0

>  <SlogP_VSA5>
28.3

>  <SlogP_VSA6>
55.12

>  <SlogP_VSA7>
10.05

>  <SlogP_VSA8>
0

>  <SlogP_VSA9>
0

>  <SlogP_VSA10>
0

>  <SlogP_VSA11>
0

>  <EState_VSA1>
0

>  <EState_VSA2>
6.04

>  <EState_VSA3>
5.02

>  <EState_VSA4>
23.43

>  <EState_VSA5>
16.69

>  <EState_VSA6>
6.2

>  <EState_VSA7>
24.66

>  <EState_VSA8>
33.82

>  <EState_VSA9>
23.2

>  <EState_VSA10>
0

>  <VSA_EState1>
2.11

>  <VSA_EState2>
4.21

>  <VSA_EState3>
1.41

>  <VSA_EState4>
4.98

>  <VSA_EState5>
0

>  <VSA_EState6>
12.46

>  <VSA_EState7>
7.57

>  <VSA_EState8>
0

>  <VSA_EState9>
0

>  <apol>
45.96

>  <bpol>
17.91

>  <nRing>
4

>  <nHRing>
1

>  <naRing>
3

>  <naHRing>
1

>  <nARing 2>
1

>  <nAHRing 2>
0

>  <nFRing>
1

>  <nFHRing>
0

>  <nFaRing>
0

>  <nFaHRing>
0

>  <nFARing 2>
1

>  <nFAHRing 2>
0

>  <nRot>
1

>  <SLogP>
4.93

>  <SMR>
89.78

>  <TopoPSA(NO)>
17.82

>  <TopoPSA>
17.82

>  <JGI1>
0.14

>  <JGI2>
0.06

>  <JGI3>
0.05

>  <JGI4>
0.04

>  <JGI5>
0.02

>  <Diameter>
8

>  <Radius>
5

>  <TMWC10>
122.94

>  <TSRW10>
70.24

>  <MW>
328.05

>  <AMW>
9.11

>  <WPath>
891

>  <WPol>
40

>  <Zagreb1>
122

>  <Zagreb2>
148

>  <mZagreb2>
4.75

>  <yes>


>  <nAR-cont>
0.816016

>  <nHA-cont>
0.983774276

>  <MWHBN>
0.11042311

>  <MWHBN-cont>
0.785265383

>  <TPSA-cont>
0.875605334

>  <pka_cont>
0.97

>  <yes.1>


>  <BBB_SCORE>
5.213899019

>  <MMFF94 Energy>
75.871

$$$$
Compound 2838
Actelion Java MolfileCreator 2.0

  0  0  0  0  0  0              0 V3000
M  V30 BEGIN CTAB
M  V30 COUNTS 24 26 0 0 0
M  V30 BEGIN ATOM
M  V30 1 Cl 2.7645 0.9208 -2.3452 0
M  V30 2 C 2.0831 1.3587 -0.7996 0
M  V30 3 C 0.8474 0.7599 -0.3928 0
M  V30 4 C 2.8253 2.3069 -0.0494 0
M  V30 5 N 0.2414 -0.1932 -1.2444 0
M  V30 6 C 0.4025 1.2205 0.8893 0
M  V30 7 C 2.4152 2.7702 1.2047 0
M  V30 8 C -0.6989 -1.1425 -1.0645 0
M  V30 9 N -0.7236 0.862 1.5376 0
M  V30 10 C 1.201 2.2372 1.6872 0
M  V30 11 N -1.1585 -1.8524 -2.0641 0
M  V30 12 N -1.1895 -1.4453 0.1517 0
M  V30 13 S -0.767 1.6958 2.9679 0
M  V30 14 N 0.6391 2.561 2.8609 0
M  V30 15 C -2.1257 -2.8009 -1.4363 0
M  V30 16 C -2.2403 -2.4119 0.0414 0
M  V30 17 H 3.7572 2.6961 -0.4612 0
M  V30 18 H 0.5412 -0.1271 -2.2121 0
M  V30 19 H 2.9865 3.495 1.7726 0
M  V30 20 H -1.1553 -0.7794 0.9155 0
M  V30 21 H -1.7465 -3.8228 -1.5452 0
M  V30 22 H -3.0957 -2.7365 -1.9395 0
M  V30 23 H -3.2125 -1.958 0.2575 0
M  V30 24 H -2.0841 -3.2679 0.7035 0
M  V30 END ATOM
M  V30 BEGIN BOND
M  V30 1 1 1 2
M  V30 2 2 2 3
M  V30 3 1 2 4
M  V30 4 1 3 5
M  V30 5 1 3 6
M  V30 6 2 4 7
M  V30 7 1 5 8
M  V30 8 2 6 9
M  V30 9 1 6 10
M  V30 10 2 8 11
M  V30 11 1 8 12
M  V30 12 1 9 13
M  V30 13 2 10 14
M  V30 14 1 11 15
M  V30 15 1 12 16
M  V30 16 1 7 10
M  V30 17 1 13 14
M  V30 18 1 15 16
M  V30 19 1 4 17
M  V30 20 1 5 18
M  V30 21 1 7 19
M  V30 22 1 12 20
M  V30 23 1 15 21
M  V30 24 1 15 22
M  V30 25 1 16 23
M  V30 26 1 16 24
M  V30 END BOND
M  V30 END CTAB
M  END
>  <Column 1>
3600

>  <level_0>
5864

>  <index>
5865

>  <Unnamed: 0>
5865

>  <NO.>
5877

>  <Name>
tizanidine

>  <IUPAC_name>
5-chloro-n-(4-5-dihydro-1h-imidazol-2-yl)-2-1-3-benzothiadiazol-4-amine

>  <SMILES>
Clc1ccc2nsnc2c1NC1=NCCN1

>  <CID>
5487

>  <logBB>


>  <BBB+/BBB->
BBB+

>  <Inchi>
InChI=1S/C9H8ClN5S/c10-5-1-2-6-8(15-16-14-6)7(5)13-9-11-3-4-12-9/h1-2H-3-4H2-(H2-11-12-13)

>  <threshold>


>  <reference>
R23|

>  <group>
C

>  <Class>
-1

>  <ABC>
12.72

>  <ABCGG>
11.45

>  <nAcid>
0

>  <nBase>
3

>  <nAromAtom>
9

>  <nAromBond>
10

>  <nAtom>
24

>  <nHeavyAtom>
16

>  <nSpiro>
0

>  <nBridgehead>
0

>  <nHetero>
7

>  <nN>
5

>  <nO>
0

>  <nF>
0

>  <BalabanJ>
1.65

>  <BertzCT>
564.02

>  <nBonds>
26

>  <nBondsO>
18

>  <nBondsS>
15

>  <nBondsD>
1

>  <nBondsT>
0

>  <nBondsA>
10

>  <nBondsM>
11

>  <nBondsKS>
21

>  <nBondsKD>
5

>  <RNCG>
0.25

>  <RPCG>
0.14

>  <FCSP3>
0.22

>  <SZ>
21.67

>  <Sm>
21.12

>  <Sv>
17.24

>  <Sse>
24.71

>  <Sp>
18.53

>  <Si>
27.19

>  <MZ>
0.9

>  <Mm>
0.88

>  <Mv>
0.72

>  <Mse>
1.03

>  <Mp>
0.77

>  <Mi>
1.13

>  <NsCH3>
0

>  <NdCH2>
0

>  <NssCH2>
2

>  <NtCH>
0

>  <NdsCH>
0

>  <NaaCH>
2

>  <NsssCH>
0

>  <NddC>
0

>  <NtsC>
0

>  <NdssC>
1

>  <NaasC>
2

>  <NaaaC>
2

>  <NssssC>
0

>  <NsNH3>
0

>  <NsNH2>
0

>  <NssNH2>
0

>  <NdNH>
0

>  <NssNH>
2

>  <NaaNH>
0

>  <NtN>
0

>  <NsssNH>
0

>  <NdsN>
1

>  <NaaN>
2

>  <NsssN>
0

>  <NddsN>
0

>  <NaasN>
0

>  <NssssN>
0

>  <NsOH>
0

>  <NdO>
0

>  <NssO>
0

>  <NaaO>
0

>  <NsF>
0

>  <NsSiH3>
0

>  <NssSiH2>
0

>  <NsssSiH>
0

>  <NssssSi>
0

>  <NsPH2>
0

>  <NssPH>
0

>  <NsssP>
0

>  <NdsssP>
0

>  <NsssssP>
0

>  <NsSH>
0

>  <NdS>
0

>  <NssS>
0

>  <NaaS>
1

>  <NdssS>
0

>  <NddssS>
0

>  <NsCl>
1

>  <NsBr>
0

>  <NsI>
0

>  <fragCpx>
84.07

>  <fMF>
0.63

>  <nHBAcc>
6

>  <nHBDon>
2

>  <Kier1>
11.11

>  <Kier2>
4.7

>  <Lipinski>
1

>  <GhoseFilter>
1

>  <FilterItLogS>
-3.88

>  <VMcGowan>
162.08

>  <LabuteASA>
100.86

>  <PEOE_VSA1>
10.63

>  <PEOE_VSA2>
4.99

>  <PEOE_VSA3>
0

>  <PEOE_VSA4>
8.75

>  <PEOE_VSA5>
0

>  <PEOE_VSA6>
11.6

>  <PEOE_VSA7>
12.13

>  <PEOE_VSA8>
6.54

>  <PEOE_VSA9>
28.98

>  <PEOE_VSA10>
11.03

>  <PEOE_VSA11>
5.96

>  <PEOE_VSA12>
0

>  <PEOE_VSA13>
0

>  <SMR_VSA1>
0

>  <SMR_VSA2>
0

>  <SMR_VSA3>
14.06

>  <SMR_VSA4>
4.99

>  <SMR_VSA5>
0

>  <SMR_VSA6>
18.41

>  <SMR_VSA7>
17.16

>  <SMR_VSA8>
0

>  <SMR_VSA9>
0

>  <SlogP_VSA1>
10.63

>  <SlogP_VSA2>
27.8

>  <SlogP_VSA3>
0

>  <SlogP_VSA4>
0

>  <SlogP_VSA5>
0

>  <SlogP_VSA6>
17.13

>  <SlogP_VSA7>
5.02

>  <SlogP_VSA8>
11.03

>  <SlogP_VSA9>
0

>  <SlogP_VSA10>
5.69

>  <SlogP_VSA11>
0

>  <EState_VSA1>
0

>  <EState_VSA2>
0

>  <EState_VSA3>
5.02

>  <EState_VSA4>
35.77

>  <EState_VSA5>
11.73

>  <EState_VSA6>
0

>  <EState_VSA7>
12.13

>  <EState_VSA8>
24.37

>  <EState_VSA9>
11.6

>  <EState_VSA10>
0

>  <VSA_EState1>
8.39

>  <VSA_EState2>
4.25

>  <VSA_EState3>
6.9

>  <VSA_EState4>
2.39

>  <VSA_EState5>
0.74

>  <VSA_EState6>
3.67

>  <VSA_EState7>
0

>  <VSA_EState8>
1.64

>  <VSA_EState9>
0

>  <apol>
30.94

>  <bpol>
15.56

>  <nRing>
3

>  <nHRing>
2

>  <naRing>
2

>  <naHRing>
1

>  <nARing 2>
1

>  <nAHRing 2>
1

>  <nFRing>
1

>  <nFHRing>
1

>  <nFaRing>
1

>  <nFaHRing>
1

>  <nFARing 2>
0

>  <nFAHRing 2>
0

>  <nRot>
1

>  <SLogP>
1.72

>  <SMR>
66.35

>  <TopoPSA(NO)>
62.2

>  <TopoPSA>
90.44

>  <JGI1>
0.14

>  <JGI2>
0.07

>  <JGI3>
0.04

>  <JGI4>
0.04

>  <JGI5>
0.02

>  <Diameter>
7

>  <Radius>
4

>  <TMWC10>
105.7

>  <TSRW10>
64.03

>  <MW>
253.02

>  <AMW>
10.54

>  <WPath>
418

>  <WPol>
21

>  <Zagreb1>
86

>  <Zagreb2>
102

>  <mZagreb2>
3.5

>  <yes>


>  <nAR-cont>
0.816016

>  <nHA-cont>
0.954961865

>  <MWHBN>
0.502935812

>  <MWHBN-cont>
0

>  <TPSA-cont>
0.36867264

>  <pka_cont>
0.97

>  <yes.1>


>  <BBB_SCORE>
2.993323145

>  <MMFF94 Energy>
-14.082

$$$$
Compound 2839
Actelion Java MolfileCreator 2.0

  0  0  0  0  0  0              0 V3000
M  V30 BEGIN CTAB
M  V30 COUNTS 46 48 0 0 0
M  V30 BEGIN ATOM
M  V30 1 O -3.5001 0.6356 1.7489 0
M  V30 2 C -2.7838 -0.1982 1.1885 0
M  V30 3 N -1.4116 -0.0116 1.0251 0
M  V30 4 N -3.3171 -1.3661 0.6653 0
M  V30 5 C -0.5935 -0.9301 0.3816 0
M  V30 6 C -0.8396 1.2401 1.5415 0
M  V30 7 C -2.585 -2.2929 -0.0359 0
M  V30 8 C -4.7416 -1.5813 0.83 0
M  V30 9 N 0.7848 -0.7421 0.2734 0
M  V30 10 C -1.1484 -2.0311 -0.1417 0
M  V30 11 C -0.5586 2.2776 0.4632 0
M  V30 12 O -3.0426 -3.3015 -0.5677 0
M  V30 13 C 1.4415 -0.478 -1.0162 0
M  V30 14 C 1.6993 -1.136 1.3543 0
M  V30 15 C 0.6723 2.9585 0.3787 0
M  V30 16 C -1.5715 2.6173 -0.4545 0
M  V30 17 C 2.2636 -1.7042 -1.4821 0 CFG=1
M  V30 18 C 2.4802 -2.3823 0.9439 0
M  V30 19 C 1.7455 2.7081 1.2986 0
M  V30 20 C 0.88 3.9194 -0.6242 0
M  V30 21 C -1.3559 3.5743 -1.4477 0
M  V30 22 N 3.0269 -1.444 -2.7083 0
M  V30 23 C 3.2251 -2.1583 -0.3734 0
M  V30 24 N 2.6181 2.5052 2.0368 0
M  V30 25 C -0.1292 4.2223 -1.5364 0
M  V30 26 H -1.5204 1.7055 2.2649 0
M  V30 27 H 0.0519 0.9861 2.1222 0
M  V30 28 H -5.0541 -2.5745 0.4978 0
M  V30 29 H -5.0086 -1.4575 1.8847 0
M  V30 30 H -5.2782 -0.8238 0.2492 0
M  V30 31 H -0.5692 -2.789 -0.6513 0
M  V30 32 H 2.1022 0.3902 -0.9009 0
M  V30 33 H 0.7015 -0.2082 -1.7805 0
M  V30 34 H 2.3938 -0.3149 1.5605 0
M  V30 35 H 1.1489 -1.3328 2.2821 0
M  V30 36 H -2.5485 2.1404 -0.3976 0
M  V30 37 H 1.5736 -2.5295 -1.6942 0
M  V30 38 H 3.1951 -2.6459 1.7311 0
M  V30 39 H 1.794 -3.2308 0.8328 0
M  V30 40 H 1.8312 4.4449 -0.6947 0
M  V30 41 H -2.153 3.8173 -2.1468 0
M  V30 42 H 3.6931 -0.6879 -2.5534 0
M  V30 43 H 2.399 -1.1274 -3.4467 0
M  V30 44 H 4.0074 -1.4037 -0.2175 0
M  V30 45 H 3.7304 -3.0866 -0.6662 0
M  V30 46 H 0.0368 4.971 -2.3071 0
M  V30 END ATOM
M  V30 BEGIN BOND
M  V30 1 2 1 2
M  V30 2 1 2 3
M  V30 3 1 2 4
M  V30 4 1 3 5
M  V30 5 1 3 6
M  V30 6 1 4 7
M  V30 7 1 4 8
M  V30 8 1 5 9
M  V30 9 2 5 10
M  V30 10 1 6 11
M  V30 11 2 7 12
M  V30 12 1 9 13
M  V30 13 1 9 14
M  V30 14 2 11 15
M  V30 15 1 11 16
M  V30 16 1 13 17
M  V30 17 1 14 18
M  V30 18 1 15 19
M  V30 19 1 15 20
M  V30 20 2 16 21
M  V30 21 1 17 22
M  V30 22 1 17 23
M  V30 23 3 19 24
M  V30 24 2 20 25
M  V30 25 1 7 10
M  V30 26 1 18 23
M  V30 27 1 21 25
M  V30 28 1 6 26
M  V30 29 1 6 27
M  V30 30 1 8 28
M  V30 31 1 8 29
M  V30 32 1 8 30
M  V30 33 1 10 31
M  V30 34 1 13 32
M  V30 35 1 13 33
M  V30 36 1 14 34
M  V30 37 1 14 35
M  V30 38 1 16 36
M  V30 39 1 17 37
M  V30 40 1 18 38
M  V30 41 1 18 39
M  V30 42 1 20 40
M  V30 43 1 21 41
M  V30 44 1 22 42
M  V30 45 1 22 43
M  V30 46 1 23 44
M  V30 47 1 23 45
M  V30 48 1 25 46
M  V30 END BOND
M  V30 BEGIN COLLECTION
M  V30 MDLV30/STERAC1 ATOMS=(1 17)
M  V30 END COLLECTION
M  V30 END CTAB
M  END
>  <Column 1>
3601

>  <level_0>
5865

>  <index>
5866

>  <Unnamed: 0>
5866

>  <NO.>
5878

>  <Name>
1108732-05-3

>  <IUPAC_name>
2-[[6-(3-aminopiperidin-1-yl)-3-methyl-2-4-dioxopyrimidin-1-yl]methyl]benzonitrile

>  <SMILES>
Cn1c(=O)cc(N2CCCC(N)C2)n(Cc2ccccc2C#N)c1=O

>  <CID>
11163584

>  <logBB>


>  <BBB+/BBB->
BBB-

>  <Inchi>
InChI=1S/C18H21N5O2/c1-21-17(24)9-16(22-8-4-7-15(20)12-22)23(18(21)25)11-14-6-3-2-5-13(14)10-19/h2-3-5-6-9-15H-4-7-8-11-12-20H2-1H3

>  <threshold>


>  <reference>
R23|

>  <group>
C

>  <Class>
-1

>  <ABC>
19.29

>  <ABCGG>
16.06

>  <nAcid>
0

>  <nBase>
1

>  <nAromAtom>
12

>  <nAromBond>
12

>  <nAtom>
46

>  <nHeavyAtom>
25

>  <nSpiro>
0

>  <nBridgehead>
0

>  <nHetero>
7

>  <nN>
5

>  <nO>
2

>  <nF>
0

>  <BalabanJ>
1.75

>  <BertzCT>
937.7

>  <nBonds>
48

>  <nBondsO>
27

>  <nBondsS>
33

>  <nBondsD>
2

>  <nBondsT>
1

>  <nBondsA>
12

>  <nBondsM>
15

>  <nBondsKS>
41

>  <nBondsKD>
6

>  <RNCG>
0.16

>  <RPCG>
0.15

>  <FCSP3>
0.39

>  <SZ>
30

>  <Sm>
28.26

>  <Sv>
28.91

>  <Sse>
46.3

>  <Sp>
30.64

>  <Si>
52.23

>  <MZ>
0.65

>  <Mm>
0.61

>  <Mv>
0.63

>  <Mse>
1.01

>  <Mp>
0.67

>  <Mi>
1.14

>  <NsCH3>
1

>  <NdCH2>
0

>  <NssCH2>
5

>  <NtCH>
0

>  <NdsCH>
0

>  <NaaCH>
5

>  <NsssCH>
1

>  <NddC>
0

>  <NtsC>
1

>  <NdssC>
0

>  <NaasC>
3

>  <NaaaC>
0

>  <NssssC>
0

>  <NsNH3>
0

>  <NsNH2>
1

>  <NssNH2>
0

>  <NdNH>
0

>  <NssNH>
0

>  <NaaNH>
0

>  <NtN>
1

>  <NsssNH>
0

>  <NdsN>
0

>  <NaaN>
0

>  <NsssN>
1

>  <NddsN>
0

>  <NaasN>
2

>  <NssssN>
0

>  <NsOH>
0

>  <NdO>
2

>  <NssO>
0

>  <NaaO>
0

>  <NsF>
0

>  <NsSiH3>
0

>  <NssSiH2>
0

>  <NsssSiH>
0

>  <NssssSi>
0

>  <NsPH2>
0

>  <NssPH>
0

>  <NsssP>
0

>  <NdsssP>
0

>  <NsssssP>
0

>  <NsSH>
0

>  <NdS>
0

>  <NssS>
0

>  <NaaS>
0

>  <NdssS>
0

>  <NddssS>
0

>  <NsCl>
0

>  <NsBr>
0

>  <NsI>
0

>  <fragCpx>
129.07

>  <fMF>
0.41

>  <nHBAcc>
7

>  <nHBDon>
1

>  <Kier1>
19.75

>  <Kier2>
8.79

>  <Lipinski>
1

>  <GhoseFilter>
1

>  <FilterItLogS>
-2.56

>  <VMcGowan>
259.14

>  <LabuteASA>
145.08

>  <PEOE_VSA1>
10.63

>  <PEOE_VSA2>
13.93

>  <PEOE_VSA3>
4.79

>  <PEOE_VSA4>
5.26

>  <PEOE_VSA5>
0

>  <PEOE_VSA6>
18.2

>  <PEOE_VSA7>
24.47

>  <PEOE_VSA8>
32.25

>  <PEOE_VSA9>
18.18

>  <PEOE_VSA10>
5.82

>  <PEOE_VSA11>
0

>  <PEOE_VSA12>
0

>  <PEOE_VSA13>
5.56

>  <SMR_VSA1>
0

>  <SMR_VSA2>
5.26

>  <SMR_VSA3>
9.13

>  <SMR_VSA4>
12.78

>  <SMR_VSA5>
25.43

>  <SMR_VSA6>
17.99

>  <SMR_VSA7>
62.3

>  <SMR_VSA8>
0

>  <SMR_VSA9>
6.07

>  <SlogP_VSA1>
21.88

>  <SlogP_VSA2>
28.27

>  <SlogP_VSA3>
13.59

>  <SlogP_VSA4>
11.33

>  <SlogP_VSA5>
23.97

>  <SlogP_VSA6>
39.92

>  <SlogP_VSA7>
0

>  <SlogP_VSA8>
0

>  <SlogP_VSA9>
0

>  <SlogP_VSA10>
5.82

>  <SlogP_VSA11>
0

>  <EState_VSA1>
5.69

>  <EState_VSA2>
18.15

>  <EState_VSA3>
17.93

>  <EState_VSA4>
29.52

>  <EState_VSA5>
13.11

>  <EState_VSA6>
16.7

>  <EState_VSA7>
17.03

>  <EState_VSA8>
6.07

>  <EState_VSA9>
5.73

>  <EState_VSA10>
14.85

>  <VSA_EState1>
2.64

>  <VSA_EState2>
26.87

>  <VSA_EState3>
9.3

>  <VSA_EState4>
6.59

>  <VSA_EState5>
0.57

>  <VSA_EState6>
10.81

>  <VSA_EState7>
1.85

>  <VSA_EState8>
1.59

>  <VSA_EState9>
1.46

>  <apol>
51.17

>  <bpol>
27.93

>  <nRing>
3

>  <nHRing>
2

>  <naRing>
2

>  <naHRing>
1

>  <nARing 2>
1

>  <nAHRing 2>
1

>  <nFRing>
0

>  <nFHRing>
0

>  <nFaRing>
0

>  <nFaHRing>
0

>  <nFARing 2>
0

>  <nFAHRing 2>
0

>  <nRot>
3

>  <SLogP>
0.39

>  <SMR>
95.62

>  <TopoPSA(NO)>
97.05

>  <TopoPSA>
97.05

>  <JGI1>
0.19

>  <JGI2>
0.09

>  <JGI3>
0.04

>  <JGI4>
0.05

>  <JGI5>
0.03

>  <Diameter>
10

>  <Radius>
5

>  <TMWC10>
127.56

>  <TSRW10>
59.89

>  <MW>
339.17

>  <AMW>
7.37

>  <WPath>
1406

>  <WPol>
42

>  <Zagreb1>
130

>  <Zagreb2>
154

>  <mZagreb2>
5.58

>  <yes>


>  <nAR-cont>
0.816016

>  <nHA-cont>
0.921834225

>  <MWHBN>
0.434391453

>  <MWHBN-cont>
0.343163328

>  <TPSA-cont>
0.322530736

>  <pka_cont>
0.97

>  <yes.1>


>  <BBB_SCORE>
3.382656688

>  <MMFF94 Energy>
-43.164

$$$$
Compound 2840
Actelion Java MolfileCreator 2.0

  0  0  0  0  0  0              0 V3000
M  V30 BEGIN CTAB
M  V30 COUNTS 56 57 0 0 0
M  V30 BEGIN ATOM
M  V30 1 O 4.9681 0.2361 6.233 0
M  V30 2 N 5.313 -0.4512 5.2609 0 CHG=1
M  V30 3 O 6.4883 -0.6306 4.9099 0 CHG=-1
M  V30 4 C 4.2578 -1.1003 4.4736 0
M  V30 5 C 2.9153 -0.9169 4.8272 0
M  V30 6 C 4.6024 -1.8972 3.3749 0
M  V30 7 C 1.9153 -1.5387 4.076 0
M  V30 8 C 3.5949 -2.5148 2.6299 0
M  V30 9 C 2.2465 -2.3459 2.9776 0
M  V30 10 C 1.1598 -3.0014 2.1596 0
M  V30 11 C 0.6357 -2.0712 1.062 0
M  V30 12 C -0.4603 -2.7615 0.2381 0
M  V30 13 N -1.0492 -1.8493 -0.7591 0
M  V30 14 C -2.4118 -2.2829 -1.1488 0
M  V30 15 C -0.1704 -1.7258 -1.9513 0
M  V30 16 C -3.4859 -1.9577 -0.0929 0
M  V30 17 C -0.5164 -0.5331 -2.8799 0
M  V30 18 O -3.5978 -0.5485 0.0913 0
M  V30 19 N -0.8584 0.6313 -2.081 0
M  V30 20 C -0.9896 1.9535 -2.4582 0
M  V30 21 N -1.3375 2.933 -1.5349 0
M  V30 22 C -0.7876 2.327 -3.729 0
M  V30 23 C -1.5034 4.2791 -1.8643 0
M  V30 24 C -1.5521 2.5598 -0.1402 0
M  V30 25 C -0.926 3.7203 -4.1606 0
M  V30 26 O -1.829 5.1313 -1.0325 0
M  V30 27 N -1.2828 4.6223 -3.1897 0
M  V30 28 O -0.722 3.9938 -5.3417 0
M  V30 29 C -1.4433 6.0169 -3.5509 0
M  V30 30 H 2.6328 -0.2966 5.6753 0
M  V30 31 H 5.6411 -2.0449 3.0866 0
M  V30 32 H 0.8727 -1.3878 4.351 0
M  V30 33 H 3.8686 -3.1286 1.7737 0
M  V30 34 H 0.3411 -3.3038 2.8251 0
M  V30 35 H 1.5456 -3.9281 1.716 0
M  V30 36 H 0.232 -1.1557 1.5144 0
M  V30 37 H 1.471 -1.7646 0.4227 0
M  V30 38 H -0.0704 -3.6679 -0.243 0
M  V30 39 H -1.2252 -3.0977 0.9469 0
M  V30 40 H -2.4223 -3.3562 -1.3755 0
M  V30 41 H -2.7203 -1.76 -2.0606 0
M  V30 42 H -0.1595 -2.6562 -2.5332 0
M  V30 43 H 0.8605 -1.5548 -1.6213 0
M  V30 44 H -4.4565 -2.3282 -0.4395 0
M  V30 45 H -3.2721 -2.4213 0.8738 0
M  V30 46 H 0.3523 -0.3274 -3.5156 0
M  V30 47 H -1.3574 -0.7883 -3.5333 0
M  V30 48 H -4.2921 -0.4024 0.7558 0
M  V30 49 H -1.2173 0.3738 -1.1592 0
M  V30 50 H -0.5183 1.6321 -4.5116 0
M  V30 51 H -2.4377 1.9211 -0.0755 0
M  V30 52 H -0.6724 2.029 0.2386 0
M  V30 53 H -1.7168 3.4273 0.5048 0
M  V30 54 H -0.7567 6.6217 -2.9492 0
M  V30 55 H -1.2463 6.2009 -4.61 0
M  V30 56 H -2.467 6.3287 -3.3183 0
M  V30 END ATOM
M  V30 BEGIN BOND
M  V30 1 2 1 2
M  V30 2 1 2 3
M  V30 3 1 2 4
M  V30 4 2 4 5
M  V30 5 1 4 6
M  V30 6 1 5 7
M  V30 7 2 6 8
M  V30 8 2 7 9
M  V30 9 1 9 10
M  V30 10 1 10 11
M  V30 11 1 11 12
M  V30 12 1 12 13
M  V30 13 1 13 14
M  V30 14 1 13 15
M  V30 15 1 14 16
M  V30 16 1 15 17
M  V30 17 1 16 18
M  V30 18 1 17 19
M  V30 19 1 19 20
M  V30 20 1 20 21
M  V30 21 2 20 22
M  V30 22 1 21 23
M  V30 23 1 21 24
M  V30 24 1 22 25
M  V30 25 2 23 26
M  V30 26 1 23 27
M  V30 27 2 25 28
M  V30 28 1 27 29
M  V30 29 1 8 9
M  V30 30 1 25 27
M  V30 31 1 5 30
M  V30 32 1 6 31
M  V30 33 1 7 32
M  V30 34 1 8 33
M  V30 35 1 10 34
M  V30 36 1 10 35
M  V30 37 1 11 36
M  V30 38 1 11 37
M  V30 39 1 12 38
M  V30 40 1 12 39
M  V30 41 1 14 40
M  V30 42 1 14 41
M  V30 43 1 15 42
M  V30 44 1 15 43
M  V30 45 1 16 44
M  V30 46 1 16 45
M  V30 47 1 17 46
M  V30 48 1 17 47
M  V30 49 1 18 48
M  V30 50 1 19 49
M  V30 51 1 22 50
M  V30 52 1 24 51
M  V30 53 1 24 52
M  V30 54 1 24 53
M  V30 55 1 29 54
M  V30 56 1 29 55
M  V30 57 1 29 56
M  V30 END BOND
M  V30 END CTAB
M  END
>  <Column 1>
3602

>  <level_0>
5866

>  <index>
5867

>  <Unnamed: 0>
5867

>  <NO.>
5879

>  <Name>
nifekalant

>  <IUPAC_name>
6-[2-[2-hydroxyethyl-[3-(4-nitrophenyl)propyl]amino]ethylamino]-1-3-dimethylpyrimidine-2-4-dione

>  <SMILES>
Cn1c(NCCN(CCO)CCCc2ccc([N+](=O)[O-])cc2)cc(=O)n(C)c1=O

>  <CID>
4486

>  <logBB>


>  <BBB+/BBB->
BBB-

>  <Inchi>
InChI=1S/C19H27N5O5/c1-21-17(14-18(26)22(2)19(21)27)20-9-11-23(12-13-25)10-3-4-15-5-7-16(8-6-15)24(28)29/h5-8-14-20-25H-3-4-9-13H2-1-2H3

>  <threshold>


>  <reference>
R23|

>  <group>
C

>  <Class>
-1

>  <ABC>
21.67

>  <ABCGG>
17.1

>  <nAcid>
0

>  <nBase>
1

>  <nAromAtom>
12

>  <nAromBond>
12

>  <nAtom>
56

>  <nHeavyAtom>
29

>  <nSpiro>
0

>  <nBridgehead>
0

>  <nHetero>
10

>  <nN>
5

>  <nO>
5

>  <nF>
0

>  <BalabanJ>
1.65

>  <BertzCT>
935.49

>  <nBonds>
57

>  <nBondsO>
30

>  <nBondsS>
42

>  <nBondsD>
3

>  <nBondsT>
0

>  <nBondsA>
12

>  <nBondsM>
15

>  <nBondsKS>
50

>  <nBondsKD>
7

>  <RNCG>
0.14

>  <RPCG>
0.12

>  <FCSP3>
0.47

>  <SZ>
36

>  <Sm>
33.76

>  <Sv>
33.68

>  <Sse>
56.95

>  <Sp>
35.48

>  <Si>
64.11

>  <MZ>
0.64

>  <Mm>
0.6

>  <Mv>
0.6

>  <Mse>
1.02

>  <Mp>
0.63

>  <Mi>
1.14

>  <NsCH3>
2

>  <NdCH2>
0

>  <NssCH2>
7

>  <NtCH>
0

>  <NdsCH>
0

>  <NaaCH>
5

>  <NsssCH>
0

>  <NddC>
0

>  <NtsC>
0

>  <NdssC>
0

>  <NaasC>
3

>  <NaaaC>
0

>  <NssssC>
0

>  <NsNH3>
0

>  <NsNH2>
0

>  <NssNH2>
0

>  <NdNH>
0

>  <NssNH>
1

>  <NaaNH>
0

>  <NtN>
0

>  <NsssNH>
0

>  <NdsN>
0

>  <NaaN>
0

>  <NsssN>
1

>  <NddsN>
1

>  <NaasN>
2

>  <NssssN>
0

>  <NsOH>
1

>  <NdO>
3

>  <NssO>
0

>  <NaaO>
0

>  <NsF>
0

>  <NsSiH3>
0

>  <NssSiH2>
0

>  <NsssSiH>
0

>  <NssssSi>
0

>  <NsPH2>
0

>  <NssPH>
0

>  <NsssP>
0

>  <NdsssP>
0

>  <NsssssP>
0

>  <NsSH>
0

>  <NdS>
0

>  <NssS>
0

>  <NaaS>
0

>  <NdssS>
0

>  <NddssS>
0

>  <NsCl>
0

>  <NsBr>
0

>  <NsI>
0

>  <fragCpx>
88.1

>  <fMF>
0.34

>  <nHBAcc>
9

>  <nHBDon>
2

>  <Kier1>
25.26

>  <Kier2>
12.76

>  <Lipinski>
1

>  <GhoseFilter>
1

>  <FilterItLogS>
-3.92

>  <VMcGowan>
306

>  <LabuteASA>
167.71

>  <PEOE_VSA1>
10.42

>  <PEOE_VSA2>
28.94

>  <PEOE_VSA3>
4.79

>  <PEOE_VSA4>
0

>  <PEOE_VSA5>
0

>  <PEOE_VSA6>
12.13

>  <PEOE_VSA7>
24.95

>  <PEOE_VSA8>
51.93

>  <PEOE_VSA9>
11.53

>  <PEOE_VSA10>
5.82

>  <PEOE_VSA11>
0

>  <PEOE_VSA12>
0

>  <PEOE_VSA13>
11.25

>  <SMR_VSA1>
10.03

>  <SMR_VSA2>
0

>  <SMR_VSA3>
14.03

>  <SMR_VSA4>
14.1

>  <SMR_VSA5>
12.84

>  <SMR_VSA6>
38.1

>  <SMR_VSA7>
66.85

>  <SMR_VSA8>
0

>  <SMR_VSA9>
0

>  <SlogP_VSA1>
16.57

>  <SlogP_VSA2>
56.85

>  <SlogP_VSA3>
20.52

>  <SlogP_VSA4>
10.11

>  <SlogP_VSA5>
11.98

>  <SlogP_VSA6>
39.92

>  <SlogP_VSA7>
0

>  <SlogP_VSA8>
0

>  <SlogP_VSA9>
0

>  <SlogP_VSA10>
11.51

>  <SlogP_VSA11>
0

>  <EState_VSA1>
10.61

>  <EState_VSA2>
17.85

>  <EState_VSA3>
25.45

>  <EState_VSA4>
29.52

>  <EState_VSA5>
29.81

>  <EState_VSA6>
19.18

>  <EState_VSA7>
0

>  <EState_VSA8>
10.22

>  <EState_VSA9>
0

>  <EState_VSA10>
24.81

>  <VSA_EState1>
2.42

>  <VSA_EState2>
36.08

>  <VSA_EState3>
23.08

>  <VSA_EState4>
0.33

>  <VSA_EState5>
0.45

>  <VSA_EState6>
7.89

>  <VSA_EState7>
1.61

>  <VSA_EState8>
2.43

>  <VSA_EState9>
3.03

>  <apol>
59.24

>  <bpol>
35.69

>  <nRing>
2

>  <nHRing>
1

>  <naRing>
2

>  <naHRing>
1

>  <nARing 2>
0

>  <nAHRing 2>
0

>  <nFRing>
0

>  <nFHRing>
0

>  <nFaRing>
0

>  <nFaHRing>
0

>  <nFARing 2>
0

>  <nFAHRing 2>
0

>  <nRot>
11

>  <SLogP>
0.33

>  <SMR>
110.36

>  <TopoPSA(NO)>
122.64

>  <TopoPSA>
122.64

>  <JGI1>
0.2

>  <JGI2>
0.09

>  <JGI3>
0.05

>  <JGI4>
0.04

>  <JGI5>
0.03

>  <Diameter>
17

>  <Radius>
9

>  <TMWC10>
133.59

>  <TSRW10>
63.88

>  <MW>
405.2

>  <AMW>
7.24

>  <WPath>
2788

>  <WPol>
43

>  <Zagreb1>
140

>  <Zagreb2>
159

>  <mZagreb2>
6.64

>  <yes>


>  <nAR-cont>
0.336376

>  <nHA-cont>
0.785905698

>  <MWHBN>
0.546459483

>  <MWHBN-cont>
0

>  <TPSA-cont>
0

>  <pka_cont>
0.97

>  <yes.1>


>  <BBB_SCORE>
1.607281698

>  <MMFF94 Energy>
-5.4495

$$$$
Compound 2841
Actelion Java MolfileCreator 2.0

  0  0  0  0  0  0              0 V3000
M  V30 BEGIN CTAB
M  V30 COUNTS 42 46 0 0 0
M  V30 BEGIN ATOM
M  V30 1 F -2.85 0.244 -5.3795 0
M  V30 2 C -1.9746 0.0069 -4.3947 0
M  V30 3 C -2.2563 0.4629 -3.1071 0
M  V30 4 C -0.8026 -0.6798 -4.6741 0
M  V30 5 C -1.3663 0.2165 -2.0573 0
M  V30 6 C 0.1046 -0.9 -3.6387 0
M  V30 7 N -1.6442 0.6863 -0.7854 0
M  V30 8 C -0.176 -0.4558 -2.3496 0
M  V30 9 C 1.3836 -1.5766 -3.8882 0
M  V30 10 C -0.9525 0.0731 0.3507 0 CFG=2
M  V30 11 C 0.8416 -0.6575 -1.3039 0
M  V30 12 O 1.665 -2.0128 -4.9976 0
M  V30 13 N 2.2339 -1.672 -2.8131 0
M  V30 14 C -1.2162 0.9348 1.5842 0
M  V30 15 C 0.5598 -0.0956 0.0904 0 CFG=2
M  V30 16 N 1.9947 -1.2108 -1.554 0
M  V30 17 C -1.0289 2.3299 1.5582 0
M  V30 18 C -1.6285 0.3308 2.7847 0
M  V30 19 C 1.1691 -1.0104 1.117 0
M  V30 20 C -1.2578 3.098 2.7008 0
M  V30 21 C -1.8543 1.1016 3.9264 0
M  V30 22 N 0.605 -2.0702 1.6687 0
M  V30 23 N 2.4238 -0.8572 1.6486 0
M  V30 24 C -1.6685 2.477 3.8735 0
M  V30 25 C 1.5575 -2.5224 2.5346 0
M  V30 26 N 2.6766 -1.8005 2.5739 0
M  V30 27 C 3.406 0.1561 1.363 0
M  V30 28 F -1.8858 3.2156 4.9693 0
M  V30 29 H -3.1839 1.0026 -2.9392 0
M  V30 30 H -0.5991 -1.0194 -5.6854 0
M  V30 31 H -2.564 1.075 -0.5975 0
M  V30 32 H -1.4219 -0.9093 0.5016 0
M  V30 33 H 3.125 -2.1358 -2.9657 0
M  V30 34 H 1.0542 0.8846 0.1229 0
M  V30 35 H -0.7093 2.8255 0.6433 0
M  V30 36 H -1.7628 -0.7487 2.8411 0
M  V30 37 H -1.1194 4.1744 2.6845 0
M  V30 38 H -2.1684 0.6366 4.8556 0
M  V30 39 H 1.4287 -3.3975 3.1582 0
M  V30 40 H 3.5474 0.2226 0.2826 0
M  V30 41 H 3.0435 1.1062 1.7628 0
M  V30 42 H 4.3538 -0.11 1.8382 0
M  V30 END ATOM
M  V30 BEGIN BOND
M  V30 1 1 1 2
M  V30 2 2 2 3
M  V30 3 1 2 4
M  V30 4 1 3 5
M  V30 5 2 4 6
M  V30 6 1 5 7
M  V30 7 2 5 8
M  V30 8 1 6 9
M  V30 9 1 7 10
M  V30 10 1 8 11
M  V30 11 2 9 12
M  V30 12 1 9 13
M  V30 13 1 10 14
M  V30 14 1 10 15
M  V30 15 2 11 16
M  V30 16 2 14 17
M  V30 17 1 14 18
M  V30 18 1 15 19
M  V30 19 1 17 20
M  V30 20 2 18 21
M  V30 21 2 19 22
M  V30 22 1 19 23
M  V30 23 2 20 24
M  V30 24 1 22 25
M  V30 25 1 23 26
M  V30 26 1 23 27
M  V30 27 1 24 28
M  V30 28 1 6 8
M  V30 29 1 11 15
M  V30 30 1 13 16
M  V30 31 1 21 24
M  V30 32 2 25 26
M  V30 33 1 3 29
M  V30 34 1 4 30
M  V30 35 1 7 31
M  V30 36 1 10 32
M  V30 37 1 13 33
M  V30 38 1 15 34
M  V30 39 1 17 35
M  V30 40 1 18 36
M  V30 41 1 20 37
M  V30 42 1 21 38
M  V30 43 1 25 39
M  V30 44 1 27 40
M  V30 45 1 27 41
M  V30 46 1 27 42
M  V30 END BOND
M  V30 BEGIN COLLECTION
M  V30 MDLV30/STEABS ATOMS=(2 10 15)
M  V30 END COLLECTION
M  V30 END CTAB
M  END
>  <Column 1>
3603

>  <level_0>
5867

>  <index>
5868

>  <Unnamed: 0>
5868

>  <NO.>
5880

>  <Name>
talazoparib

>  <IUPAC_name>
(11s-12r)-7-fluoro-11-(4-fluorophenyl)-12-(2-methyl-1-2-4-triazol-3-yl)-2-3-10-triazatricyclo[7.3.1.05-13]trideca-1-5(13)-6-8-tetraen-4-one

>  <SMILES>
Cn1ncnc1[C@H]1c2n[nH]c(=O)c3cc(F)cc(c23)N[C@@H]1c1ccc(F)cc1

>  <CID>
135565082

>  <logBB>


>  <BBB+/BBB->
BBB-

>  <Inchi>
InChI=1S/C19H14F2N6O/c1-27-18(22-8-23-27)15-16(9-2-4-10(20)5-3-9)24-13-7-11(21)6-12-14(13)17(15)25-26-19(12)28/h2-8-15-16-24H-1H3-(H-26-28)/t15--16-/m1/s1

>  <threshold>


>  <reference>
R23|

>  <group>
C

>  <Class>
-1

>  <ABC>
22.7

>  <ABCGG>
17.64

>  <nAcid>
0

>  <nBase>
0

>  <nAromAtom>
21

>  <nAromBond>
22

>  <nAtom>
42

>  <nHeavyAtom>
28

>  <nSpiro>
0

>  <nBridgehead>
0

>  <nHetero>
9

>  <nN>
6

>  <nO>
1

>  <nF>
2

>  <BalabanJ>
1.47

>  <BertzCT>
1263.9

>  <nBonds>
46

>  <nBondsO>
32

>  <nBondsS>
23

>  <nBondsD>
1

>  <nBondsT>
0

>  <nBondsA>
22

>  <nBondsM>
23

>  <nBondsKS>
36

>  <nBondsKD>
10

>  <RNCG>
0.16

>  <RPCG>
0.12

>  <FCSP3>
0.16

>  <SZ>
32.67

>  <Sm>
31.67

>  <Sv>
29.35

>  <Sse>
43.44

>  <Sp>
29.69

>  <Si>
47.96

>  <MZ>
0.78

>  <Mm>
0.75

>  <Mv>
0.7

>  <Mse>
1.03

>  <Mp>
0.71

>  <Mi>
1.14

>  <NsCH3>
1

>  <NdCH2>
0

>  <NssCH2>
0

>  <NtCH>
0

>  <NdsCH>
0

>  <NaaCH>
7

>  <NsssCH>
2

>  <NddC>
0

>  <NtsC>
0

>  <NdssC>
0

>  <NaasC>
6

>  <NaaaC>
2

>  <NssssC>
0

>  <NsNH3>
0

>  <NsNH2>
0

>  <NssNH2>
0

>  <NdNH>
0

>  <NssNH>
1

>  <NaaNH>
1

>  <NtN>
0

>  <NsssNH>
0

>  <NdsN>
0

>  <NaaN>
3

>  <NsssN>
0

>  <NddsN>
0

>  <NaasN>
1

>  <NssssN>
0

>  <NsOH>
0

>  <NdO>
1

>  <NssO>
0

>  <NaaO>
0

>  <NsF>
2

>  <NsSiH3>
0

>  <NssSiH2>
0

>  <NsssSiH>
0

>  <NssssSi>
0

>  <NsPH2>
0

>  <NssPH>
0

>  <NsssP>
0

>  <NdsssP>
0

>  <NsssssP>
0

>  <NsSH>
0

>  <NdS>
0

>  <NssS>
0

>  <NaaS>
0

>  <NdssS>
0

>  <NddssS>
0

>  <NsCl>
0

>  <NsBr>
0

>  <NsI>
0

>  <fragCpx>
268.09

>  <fMF>
0.57

>  <nHBAcc>
6

>  <nHBDon>
2

>  <Kier1>
19.93

>  <Kier2>
7.92

>  <Lipinski>
1

>  <GhoseFilter>
1

>  <FilterItLogS>
-5.88

>  <VMcGowan>
250.54

>  <LabuteASA>
156.59

>  <PEOE_VSA1>
5.32

>  <PEOE_VSA2>
9.48

>  <PEOE_VSA3>
18.86

>  <PEOE_VSA4>
10.2

>  <PEOE_VSA5>
0

>  <PEOE_VSA6>
12.13

>  <PEOE_VSA7>
29.83

>  <PEOE_VSA8>
18.12

>  <PEOE_VSA9>
23.04

>  <PEOE_VSA10>
23.79

>  <PEOE_VSA11>
0

>  <PEOE_VSA12>
0

>  <PEOE_VSA13>
5.56

>  <SMR_VSA1>
8.78

>  <SMR_VSA2>
0

>  <SMR_VSA3>
24.96

>  <SMR_VSA4>
7.05

>  <SMR_VSA5>
11.96

>  <SMR_VSA6>
5.32

>  <SMR_VSA7>
81.8

>  <SMR_VSA8>
0

>  <SMR_VSA9>
0

>  <SlogP_VSA1>
10.88

>  <SlogP_VSA2>
24.96

>  <SlogP_VSA3>
7.05

>  <SlogP_VSA4>
11.63

>  <SlogP_VSA5>
29.04

>  <SlogP_VSA6>
47.52

>  <SlogP_VSA7>
0

>  <SlogP_VSA8>
10.77

>  <SlogP_VSA9>
0

>  <SlogP_VSA10>
14.47

>  <SlogP_VSA11>
0

>  <EState_VSA1>
23.34

>  <EState_VSA2>
11.2

>  <EState_VSA3>
22.59

>  <EState_VSA4>
5.56

>  <EState_VSA5>
30.59

>  <EState_VSA6>
23.86

>  <EState_VSA7>
0

>  <EState_VSA8>
25.6

>  <EState_VSA9>
0

>  <EState_VSA10>
13.58

>  <VSA_EState1>
29.23

>  <VSA_EState2>
16.6

>  <VSA_EState3>
14.92

>  <VSA_EState4>
1.3

>  <VSA_EState5>
-0.72

>  <VSA_EState6>
8.14

>  <VSA_EState7>
1.43

>  <VSA_EState8>
0

>  <VSA_EState9>
1.76

>  <apol>
49.58

>  <bpol>
21.13

>  <nRing>
5

>  <nHRing>
3

>  <naRing>
4

>  <naHRing>
2

>  <nARing 2>
1

>  <nAHRing 2>
1

>  <nFRing>
1

>  <nFHRing>
1

>  <nFaRing>
0

>  <nFaHRing>
0

>  <nFARing 2>
1

>  <nFAHRing 2>
1

>  <nRot>
2

>  <SLogP>
2.63

>  <SMR>
97.93

>  <TopoPSA(NO)>
88.49

>  <TopoPSA>
88.49

>  <JGI1>
0.17

>  <JGI2>
0.07

>  <JGI3>
0.04

>  <JGI4>
0.05

>  <JGI5>
0.02

>  <Diameter>
11

>  <Radius>
6

>  <TMWC10>
139.01

>  <TSRW10>
77.77

>  <MW>
380.12

>  <AMW>
9.05

>  <WPath>
1756

>  <WPol>
52

>  <Zagreb1>
160

>  <Zagreb2>
197

>  <mZagreb2>
5.92

>  <yes>


>  <nAR-cont>
0.816016

>  <nHA-cont>
0.82432561

>  <MWHBN>
0.410326558

>  <MWHBN-cont>
0.435544109

>  <TPSA-cont>
0.382284851

>  <pka_cont>
0.97

>  <yes.1>


>  <BBB_SCORE>
3.543227476

>  <MMFF94 Energy>
89.103

$$$$
Compound 2842
Actelion Java MolfileCreator 2.0

  0  0  0  0  0  0              0 V3000
M  V30 BEGIN CTAB
M  V30 COUNTS 11 10 0 0 0
M  V30 BEGIN ATOM
M  V30 1 F 0.7805 1.3879 -1.1275 0
M  V30 2 C -0.3027 0.579 -1.065 0
M  V30 3 F -0.1029 -0.422 -1.9534 0
M  V30 4 F -1.3537 1.303 -1.5275 0
M  V30 5 C -0.5624 0.0696 0.329 0
M  V30 6 F -0.8007 1.1045 1.187 0
M  V30 7 F -1.6848 -0.7068 0.3604 0
M  V30 8 C 0.646 -0.7183 0.7634 0
M  V30 9 F 0.8893 -1.779 -0.0411 0
M  V30 10 F 1.7727 0.031 0.7849 0
M  V30 11 F 0.4859 -1.2124 2.0176 0
M  V30 END ATOM
M  V30 BEGIN BOND
M  V30 1 1 1 2
M  V30 2 1 2 3
M  V30 3 1 2 4
M  V30 4 1 2 5
M  V30 5 1 5 6
M  V30 6 1 5 7
M  V30 7 1 5 8
M  V30 8 1 8 9
M  V30 9 1 8 10
M  V30 10 1 8 11
M  V30 END BOND
M  V30 END CTAB
M  END
>  <Column 1>
3605

>  <level_0>
5869

>  <index>
5870

>  <Unnamed: 0>
5870

>  <NO.>
5882

>  <Name>
perflutren

>  <IUPAC_name>
1-1-1-2-2-3-3-3-octafluoropropane

>  <SMILES>
FC(F)(F)C(F)(F)C(F)(F)F

>  <CID>
6432

>  <logBB>


>  <BBB+/BBB->
BBB-

>  <Inchi>
InChI=1S/C3F8/c4-1(5-2(6-7)8)3(9-10)11

>  <threshold>


>  <reference>
R23|

>  <group>
C

>  <Class>
-1

>  <ABC>
8.15

>  <ABCGG>
8.72

>  <nAcid>
0

>  <nBase>
0

>  <nAromAtom>
0

>  <nAromBond>
0

>  <nAtom>
11

>  <nHeavyAtom>
11

>  <nSpiro>
0

>  <nBridgehead>
0

>  <nHetero>
8

>  <nN>
0

>  <nO>
0

>  <nF>
8

>  <BalabanJ>
4.75

>  <BertzCT>
120.4

>  <nBonds>
10

>  <nBondsO>
10

>  <nBondsS>
10

>  <nBondsD>
0

>  <nBondsT>
0

>  <nBondsA>
0

>  <nBondsM>
0

>  <nBondsKS>
10

>  <nBondsKD>
0

>  <RNCG>
0.14

>  <RPCG>
0.34

>  <FCSP3>
1

>  <SZ>
15

>  <Sm>
15.65

>  <Sv>
8.17

>  <Sse>
14.65

>  <Sp>
5.67

>  <Si>
15.38

>  <MZ>
1.36

>  <Mm>
1.42

>  <Mv>
0.74

>  <Mse>
1.33

>  <Mp>
0.52

>  <Mi>
1.4

>  <NsCH3>
0

>  <NdCH2>
0

>  <NssCH2>
0

>  <NtCH>
0

>  <NdsCH>
0

>  <NaaCH>
0

>  <NsssCH>
0

>  <NddC>
0

>  <NtsC>
0

>  <NdssC>
0

>  <NaasC>
0

>  <NaaaC>
0

>  <NssssC>
3

>  <NsNH3>
0

>  <NsNH2>
0

>  <NssNH2>
0

>  <NdNH>
0

>  <NssNH>
0

>  <NaaNH>
0

>  <NtN>
0

>  <NsssNH>
0

>  <NdsN>
0

>  <NaaN>
0

>  <NsssN>
0

>  <NddsN>
0

>  <NaasN>
0

>  <NssssN>
0

>  <NsOH>
0

>  <NdO>
0

>  <NssO>
0

>  <NaaO>
0

>  <NsF>
8

>  <NsSiH3>
0

>  <NssSiH2>
0

>  <NsssSiH>
0

>  <NssssSi>
0

>  <NsPH2>
0

>  <NssPH>
0

>  <NsssP>
0

>  <NdsssP>
0

>  <NsssssP>
0

>  <NsSH>
0

>  <NdS>
0

>  <NssS>
0

>  <NaaS>
0

>  <NdssS>
0

>  <NddssS>
0

>  <NsCl>
0

>  <NsBr>
0

>  <NsI>
0

>  <fragCpx>
10.08

>  <fMF>
0

>  <nHBAcc>
0

>  <nHBDon>
0

>  <Kier1>
11

>  <Kier2>
2.5

>  <Lipinski>
1

>  <GhoseFilter>
0

>  <FilterItLogS>
-2.26

>  <VMcGowan>
67.21

>  <LabuteASA>
54.79

>  <PEOE_VSA1>
0

>  <PEOE_VSA2>
0

>  <PEOE_VSA3>
0

>  <PEOE_VSA4>
35.12

>  <PEOE_VSA5>
0

>  <PEOE_VSA6>
0

>  <PEOE_VSA7>
0

>  <PEOE_VSA8>
0

>  <PEOE_VSA9>
0

>  <PEOE_VSA10>
0

>  <PEOE_VSA11>
0

>  <PEOE_VSA12>
0

>  <PEOE_VSA13>
0

>  <SMR_VSA1>
35.12

>  <SMR_VSA2>
0

>  <SMR_VSA3>
0

>  <SMR_VSA4>
0

>  <SMR_VSA5>
18.28

>  <SMR_VSA6>
0

>  <SMR_VSA7>
0

>  <SMR_VSA8>
0

>  <SMR_VSA9>
0

>  <SlogP_VSA1>
0

>  <SlogP_VSA2>
18.28

>  <SlogP_VSA3>
0

>  <SlogP_VSA4>
0

>  <SlogP_VSA5>
0

>  <SlogP_VSA6>
0

>  <SlogP_VSA7>
0

>  <SlogP_VSA8>
0

>  <SlogP_VSA9>
0

>  <SlogP_VSA10>
35.12

>  <SlogP_VSA11>
0

>  <EState_VSA1>
18.28

>  <EState_VSA2>
0

>  <EState_VSA3>
0

>  <EState_VSA4>
0

>  <EState_VSA5>
0

>  <EState_VSA6>
0

>  <EState_VSA7>
0

>  <EState_VSA8>
0

>  <EState_VSA9>
0

>  <EState_VSA10>
35.12

>  <VSA_EState1>
87.53

>  <VSA_EState2>
0

>  <VSA_EState3>
0

>  <VSA_EState4>
0

>  <VSA_EState5>
-6.63

>  <VSA_EState6>
0

>  <VSA_EState7>
-13.16

>  <VSA_EState8>
0

>  <VSA_EState9>
0

>  <apol>
9.47

>  <bpol>
8.9

>  <nRing>
0

>  <nHRing>
0

>  <naRing>
0

>  <naHRing>
0

>  <nARing 2>
0

>  <nAHRing 2>
0

>  <nFRing>
0

>  <nFHRing>
0

>  <nFaRing>
0

>  <nFaHRing>
0

>  <nFARing 2>
0

>  <nFAHRing 2>
0

>  <nRot>
0

>  <SLogP>
2.75

>  <SMR>
17.06

>  <TopoPSA(NO)>
0

>  <TopoPSA>
0

>  <JGI1>
0.6

>  <JGI2>
0.19

>  <JGI3>
0.06

>  <JGI4>
0

>  <JGI5>
0

>  <Diameter>
4

>  <Radius>
2

>  <TMWC10>
89.13

>  <TSRW10>
42.37

>  <MW>
187.99

>  <AMW>
17.09

>  <WPath>
136

>  <WPol>
18

>  <Zagreb1>
56

>  <Zagreb2>
64

>  <mZagreb2>
2.13

>  <yes>


>  <nAR-cont>
0.336376

>  <nHA-cont>
0.720786536

>  <MWHBN>
0

>  <MWHBN-cont>
0

>  <TPSA-cont>
0

>  <pka_cont>
0.97

>  <yes.1>


>  <BBB_SCORE>
1.542162536

>  <MMFF94 Energy>
45.743

$$$$
Compound 2843
Actelion Java MolfileCreator 2.0

  0  0  0  0  0  0              0 V3000
M  V30 BEGIN CTAB
M  V30 COUNTS 42 45 0 0 0
M  V30 BEGIN ATOM
M  V30 1 F 1.0529 1.0529 2.5935 0
M  V30 2 C 1.1409 -0.2658 2.372 0
M  V30 3 C 0.7724 -0.8079 1.1266 0
M  V30 4 C 1.6234 -1.0569 3.4143 0
M  V30 5 C 1.0022 -2.1906 0.9518 0
M  V30 6 C 0.2976 0.1194 -0.0434 0 CFG=1
M  V30 7 C 1.7864 -2.4248 3.2297 0
M  V30 8 C 1.4856 -2.9895 1.9948 0
M  V30 9 N 1.5876 0.7008 -0.5423 0
M  V30 10 C -0.4724 -0.6503 -1.1943 0
M  V30 11 C -0.734 1.2341 0.3736 0
M  V30 12 C 2.531 0.0298 -1.2925 0
M  V30 13 C 2.1832 1.8889 -0.1761 0
M  V30 14 C -1.4889 -1.5816 -0.8688 0
M  V30 15 C -0.3003 -0.3404 -2.5624 0
M  V30 16 C -1.6288 1.0505 1.4496 0
M  V30 17 C -0.9119 2.3942 -0.4137 0
M  V30 18 N 3.5915 0.7661 -1.5317 0
M  V30 19 C 3.3908 1.9209 -0.8301 0
M  V30 20 C -2.2294 -2.23 -1.8609 0
M  V30 21 C -1.0416 -0.9916 -3.5536 0
M  V30 22 C -2.593 2.0119 1.7685 0
M  V30 23 C -1.8766 3.3538 -0.0942 0
M  V30 24 C -1.9922 -1.9353 -3.1945 0
M  V30 25 C -2.711 3.1662 1.0019 0
M  V30 26 F -2.7041 -2.5535 -4.1454 0
M  V30 27 H 1.8847 -0.5913 4.3601 0
M  V30 28 H 0.8308 -2.6756 -0.0074 0
M  V30 29 H 2.1706 -3.0437 4.0365 0
M  V30 30 H 1.6443 -4.0538 1.8329 0
M  V30 31 H 2.3891 -0.9841 -1.6448 0
M  V30 32 H 1.7216 2.5917 0.5044 0
M  V30 33 H -1.7254 -1.8056 0.1704 0
M  V30 34 H 0.3994 0.4278 -2.888 0
M  V30 35 H -1.5969 0.1511 2.0603 0
M  V30 36 H -0.3023 2.5658 -1.2993 0
M  V30 37 H 4.1356 2.7061 -0.8104 0
M  V30 38 H -2.9983 -2.9501 -1.5987 0
M  V30 39 H -0.8914 -0.7538 -4.6024 0
M  V30 40 H -3.258 1.8527 2.614 0
M  V30 41 H -1.9809 4.2438 -0.71 0
M  V30 42 H -3.4623 3.9114 1.2496 0
M  V30 END ATOM
M  V30 BEGIN BOND
M  V30 1 1 1 2
M  V30 2 2 2 3
M  V30 3 1 2 4
M  V30 4 1 3 5
M  V30 5 1 3 6
M  V30 6 2 4 7
M  V30 7 2 5 8
M  V30 8 1 6 9
M  V30 9 1 6 10
M  V30 10 1 6 11
M  V30 11 1 9 12
M  V30 12 1 9 13
M  V30 13 2 10 14
M  V30 14 1 10 15
M  V30 15 2 11 16
M  V30 16 1 11 17
M  V30 17 2 12 18
M  V30 18 2 13 19
M  V30 19 1 14 20
M  V30 20 2 15 21
M  V30 21 1 16 22
M  V30 22 2 17 23
M  V30 23 2 20 24
M  V30 24 2 22 25
M  V30 25 1 24 26
M  V30 26 1 7 8
M  V30 27 1 18 19
M  V30 28 1 21 24
M  V30 29 1 23 25
M  V30 30 1 4 27
M  V30 31 1 5 28
M  V30 32 1 7 29
M  V30 33 1 8 30
M  V30 34 1 12 31
M  V30 35 1 13 32
M  V30 36 1 14 33
M  V30 37 1 15 34
M  V30 38 1 16 35
M  V30 39 1 17 36
M  V30 40 1 19 37
M  V30 41 1 20 38
M  V30 42 1 21 39
M  V30 43 1 22 40
M  V30 44 1 23 41
M  V30 45 1 25 42
M  V30 END BOND
M  V30 BEGIN COLLECTION
M  V30 MDLV30/STERAC1 ATOMS=(1 6)
M  V30 END COLLECTION
M  V30 END CTAB
M  END
>  <Column 1>
3606

>  <level_0>
5870

>  <index>
5871

>  <Unnamed: 0>
5871

>  <NO.>
5883

>  <Name>
flutrimazole

>  <IUPAC_name>
1-[(2-fluorophenyl)-(4-fluorophenyl)-phenylmethyl]imidazole

>  <SMILES>
Fc1ccc(C(c2ccccc2)(c2ccccc2F)n2ccnc2)cc1

>  <CID>
3401

>  <logBB>


>  <BBB+/BBB->
BBB-

>  <Inchi>
InChI=1S/C22H16F2N2/c23-19-12-10-18(11-13-19)22(26-15-14-25-16-26-17-6-2-1-3-7-17)20-8-4-5-9-21(20)24/h1-16H

>  <threshold>


>  <reference>
R23|

>  <group>
C

>  <Class>
-1

>  <ABC>
20.44

>  <ABCGG>
17.35

>  <nAcid>
0

>  <nBase>
0

>  <nAromAtom>
23

>  <nAromBond>
23

>  <nAtom>
42

>  <nHeavyAtom>
26

>  <nSpiro>
0

>  <nBridgehead>
0

>  <nHetero>
4

>  <nN>
2

>  <nO>
0

>  <nF>
2

>  <BalabanJ>
1.73

>  <BertzCT>
996.02

>  <nBonds>
45

>  <nBondsO>
29

>  <nBondsS>
22

>  <nBondsD>
0

>  <nBondsT>
0

>  <nBondsA>
23

>  <nBondsM>
23

>  <nBondsKS>
34

>  <nBondsKD>
11

>  <RNCG>
0.19

>  <RPCG>
0.08

>  <FCSP3>
0.05

>  <SZ>
30

>  <Sm>
28.84

>  <Sv>
29.14

>  <Sse>
42.34

>  <Sp>
30.37

>  <Si>
47

>  <MZ>
0.71

>  <Mm>
0.69

>  <Mv>
0.69

>  <Mse>
1.01

>  <Mp>
0.72

>  <Mi>
1.12

>  <NsCH3>
0

>  <NdCH2>
0

>  <NssCH2>
0

>  <NtCH>
0

>  <NdsCH>
0

>  <NaaCH>
16

>  <NsssCH>
0

>  <NddC>
0

>  <NtsC>
0

>  <NdssC>
0

>  <NaasC>
5

>  <NaaaC>
0

>  <NssssC>
1

>  <NsNH3>
0

>  <NsNH2>
0

>  <NssNH2>
0

>  <NdNH>
0

>  <NssNH>
0

>  <NaaNH>
0

>  <NtN>
0

>  <NsssNH>
0

>  <NdsN>
0

>  <NaaN>
1

>  <NsssN>
0

>  <NddsN>
0

>  <NaasN>
1

>  <NssssN>
0

>  <NsOH>
0

>  <NdO>
0

>  <NssO>
0

>  <NaaO>
0

>  <NsF>
2

>  <NsSiH3>
0

>  <NssSiH2>
0

>  <NsssSiH>
0

>  <NssssSi>
0

>  <NsPH2>
0

>  <NssPH>
0

>  <NsssP>
0

>  <NdsssP>
0

>  <NsssssP>
0

>  <NsSH>
0

>  <NdS>
0

>  <NssS>
0

>  <NaaS>
0

>  <NdssS>
0

>  <NddssS>
0

>  <NsCl>
0

>  <NsBr>
0

>  <NsI>
0

>  <fragCpx>
191.04

>  <fMF>
0.57

>  <nHBAcc>
2

>  <nHBDon>
0

>  <Kier1>
19.32

>  <Kier2>
8.57

>  <Lipinski>
0

>  <GhoseFilter>
1

>  <FilterItLogS>
-6.11

>  <VMcGowan>
253.58

>  <LabuteASA>
149.94

>  <PEOE_VSA1>
4.57

>  <PEOE_VSA2>
0

>  <PEOE_VSA3>
13.76

>  <PEOE_VSA4>
0

>  <PEOE_VSA5>
0

>  <PEOE_VSA6>
60.66

>  <PEOE_VSA7>
29.33

>  <PEOE_VSA8>
17.96

>  <PEOE_VSA9>
6.33

>  <PEOE_VSA10>
17.17

>  <PEOE_VSA11>
0

>  <PEOE_VSA12>
0

>  <PEOE_VSA13>
0

>  <SMR_VSA1>
8.78

>  <SMR_VSA2>
0

>  <SMR_VSA3>
9.55

>  <SMR_VSA4>
0

>  <SMR_VSA5>
5.54

>  <SMR_VSA6>
0

>  <SMR_VSA7>
125.91

>  <SMR_VSA8>
0

>  <SMR_VSA9>
0

>  <SlogP_VSA1>
0

>  <SlogP_VSA2>
9.55

>  <SlogP_VSA3>
5.54

>  <SlogP_VSA4>
11.63

>  <SlogP_VSA5>
16.69

>  <SlogP_VSA6>
97.58

>  <SlogP_VSA7>
0

>  <SlogP_VSA8>
0

>  <SlogP_VSA9>
0

>  <SlogP_VSA10>
8.78

>  <SlogP_VSA11>
0

>  <EState_VSA1>
5.54

>  <EState_VSA2>
11.63

>  <EState_VSA3>
5.56

>  <EState_VSA4>
11.13

>  <EState_VSA5>
18.2

>  <EState_VSA6>
49.05

>  <EState_VSA7>
34.9

>  <EState_VSA8>
4.98

>  <EState_VSA9>
0

>  <EState_VSA10>
4.39

>  <VSA_EState1>
30.48

>  <VSA_EState2>
4.18

>  <VSA_EState3>
0

>  <VSA_EState4>
1.07

>  <VSA_EState5>
-0.68

>  <VSA_EState6>
22.43

>  <VSA_EState7>
5.1

>  <VSA_EState8>
0

>  <VSA_EState9>
0

>  <apol>
50.72

>  <bpol>
21.13

>  <nRing>
4

>  <nHRing>
1

>  <naRing>
4

>  <naHRing>
1

>  <nARing 2>
0

>  <nAHRing 2>
0

>  <nFRing>
0

>  <nFHRing>
0

>  <nFaRing>
0

>  <nFaHRing>
0

>  <nFARing 2>
0

>  <nFAHRing 2>
0

>  <nRot>
4

>  <SLogP>
5

>  <SMR>
96.75

>  <TopoPSA(NO)>
17.82

>  <TopoPSA>
17.82

>  <JGI1>
0.16

>  <JGI2>
0.09

>  <JGI3>
0.06

>  <JGI4>
0.03

>  <JGI5>
0.01

>  <Diameter>
9

>  <Radius>
5

>  <TMWC10>
132.72

>  <TSRW10>
74.69

>  <MW>
346.13

>  <AMW>
8.24

>  <WPath>
1379

>  <WPol>
46

>  <Zagreb1>
140

>  <Zagreb2>
171

>  <mZagreb2>
5.78

>  <yes>


>  <nAR-cont>
0.336376

>  <nHA-cont>
0.892715677

>  <MWHBN>
0.107500473

>  <MWHBN-cont>
0.770668253

>  <TPSA-cont>
0.875605334

>  <pka_cont>
0.97

>  <yes.1>


>  <BBB_SCORE>
4.621304726

>  <MMFF94 Energy>
126.24

$$$$
Compound 2844
Actelion Java MolfileCreator 2.0

  0  0  0  0  0  0              0 V3000
M  V30 BEGIN CTAB
M  V30 COUNTS 60 63 0 0 0
M  V30 BEGIN ATOM
M  V30 1 O 4.7365 0.6412 0.8817 0
M  V30 2 C 4.4546 0.1539 -0.2032 0
M  V30 3 O 5.0286 0.6499 -1.3189 0
M  V30 4 C 3.5251 -1.0472 -0.455 0
M  V30 5 C 4.4003 -2.316 -0.5722 0
M  V30 6 C 2.6499 -0.7708 -1.704 0
M  V30 7 C 2.5544 -1.1995 0.7456 0
M  V30 8 C 4.4556 -3.0996 -1.7371 0
M  V30 9 C 5.2046 -2.7146 0.5154 0
M  V30 10 C 1.6904 0.4025 -1.5018 0
M  V30 11 C 1.5638 -0.0365 0.8712 0
M  V30 12 C 5.2658 -4.2377 -1.8064 0
M  V30 13 C 6.0139 -3.8512 0.4453 0
M  V30 14 N 0.793 0.1549 -0.3644 0
M  V30 15 C 6.0426 -4.6145 -0.7158 0
M  V30 16 C -0.1808 1.2595 -0.2475 0
M  V30 17 C -1.3134 0.9386 0.7514 0
M  V30 18 C -2.5865 1.8493 0.6324 0
M  V30 19 C -2.1025 3.2681 0.6522 0
M  V30 20 C -3.4678 1.5152 1.8774 0
M  V30 21 C -3.4255 1.6357 -0.6585 0
M  V30 22 N -1.7084 4.3618 0.673 0
M  V30 23 C -3.6042 2.3934 2.9702 0
M  V30 24 C -4.1412 0.2768 1.9505 0
M  V30 25 C -3.2091 0.5706 -1.5524 0
M  V30 26 C -4.4948 2.514 -0.943 0
M  V30 27 C -4.389 2.0523 4.0763 0
M  V30 28 C -4.9246 -0.06 3.0568 0
M  V30 29 C -4.0047 0.4093 -2.6912 0
M  V30 30 C -5.288 2.35 -2.0808 0
M  V30 31 C -5.0491 0.8285 4.1191 0
M  V30 32 C -5.0403 1.2994 -2.9567 0
M  V30 33 H 5.635 1.3439 -0.9849 0
M  V30 34 H 2.0491 -1.6596 -1.9435 0
M  V30 35 H 3.2666 -0.5687 -2.5887 0
M  V30 36 H 1.9881 -2.1361 0.6417 0
M  V30 37 H 3.0986 -1.2784 1.695 0
M  V30 38 H 3.8762 -2.8472 -2.6207 0
M  V30 39 H 5.2182 -2.1355 1.4378 0
M  V30 40 H 2.2456 1.3399 -1.3712 0
M  V30 41 H 1.0988 0.5068 -2.4199 0
M  V30 42 H 2.0891 0.8851 1.15 0
M  V30 43 H 0.8921 -0.2821 1.7012 0
M  V30 44 H 5.2898 -4.8289 -2.7183 0
M  V30 45 H 6.6232 -4.1359 1.2991 0
M  V30 46 H 6.6717 -5.4984 -0.7728 0
M  V30 47 H -0.6166 1.4442 -1.2351 0
M  V30 48 H 0.3335 2.1835 0.0459 0
M  V30 49 H -1.5952 -0.1191 0.6634 0
M  V30 50 H -0.901 1.0478 1.7655 0
M  V30 51 H -3.106 3.3608 2.9949 0
M  V30 52 H -4.067 -0.4442 1.1385 0
M  V30 53 H -2.424 -0.1636 -1.3891 0
M  V30 54 H -4.729 3.34 -0.2716 0
M  V30 55 H -4.4826 2.7473 4.9076 0
M  V30 56 H -5.4379 -1.0178 3.0863 0
M  V30 57 H -3.8152 -0.4182 -3.3706 0
M  V30 58 H -6.1021 3.043 -2.2784 0
M  V30 59 H -5.6587 0.5675 4.9801 0
M  V30 60 H -5.6574 1.1706 -3.8418 0
M  V30 END ATOM
M  V30 BEGIN BOND
M  V30 1 2 1 2
M  V30 2 1 2 3
M  V30 3 1 2 4
M  V30 4 1 4 5
M  V30 5 1 4 6
M  V30 6 1 4 7
M  V30 7 2 5 8
M  V30 8 1 5 9
M  V30 9 1 6 10
M  V30 10 1 7 11
M  V30 11 1 8 12
M  V30 12 2 9 13
M  V30 13 1 10 14
M  V30 14 2 12 15
M  V30 15 1 14 16
M  V30 16 1 16 17
M  V30 17 1 17 18
M  V30 18 1 18 19
M  V30 19 1 18 20
M  V30 20 1 18 21
M  V30 21 3 19 22
M  V30 22 2 20 23
M  V30 23 1 20 24
M  V30 24 2 21 25
M  V30 25 1 21 26
M  V30 26 1 23 27
M  V30 27 2 24 28
M  V30 28 1 25 29
M  V30 29 2 26 30
M  V30 30 2 27 31
M  V30 31 2 29 32
M  V30 32 1 11 14
M  V30 33 1 13 15
M  V30 34 1 28 31
M  V30 35 1 30 32
M  V30 36 1 3 33
M  V30 37 1 6 34
M  V30 38 1 6 35
M  V30 39 1 7 36
M  V30 40 1 7 37
M  V30 41 1 8 38
M  V30 42 1 9 39
M  V30 43 1 10 40
M  V30 44 1 10 41
M  V30 45 1 11 42
M  V30 46 1 11 43
M  V30 47 1 12 44
M  V30 48 1 13 45
M  V30 49 1 15 46
M  V30 50 1 16 47
M  V30 51 1 16 48
M  V30 52 1 17 49
M  V30 53 1 17 50
M  V30 54 1 23 51
M  V30 55 1 24 52
M  V30 56 1 25 53
M  V30 57 1 26 54
M  V30 58 1 27 55
M  V30 59 1 28 56
M  V30 60 1 29 57
M  V30 61 1 30 58
M  V30 62 1 31 59
M  V30 63 1 32 60
M  V30 END BOND
M  V30 END CTAB
M  END
>  <Column 1>
3607

>  <level_0>
5871

>  <index>
5872

>  <Unnamed: 0>
5872

>  <NO.>
5884

>  <Name>
difenoxin

>  <IUPAC_name>
1-(3-cyano-3-3-diphenylpropyl)-4-phenylpiperidine-4-carboxylic acid

>  <SMILES>
N#CC(CCN1CCC(C(=O)O)(c2ccccc2)CC1)(c1ccccc1)c1ccccc1

>  <CID>
34328

>  <logBB>


>  <BBB+/BBB->
BBB-

>  <Inchi>
InChI=1S/C28H28N2O2/c29-22-28(24-12-6-2-7-13-24-25-14-8-3-9-15-25)18-21-30-19-16-27(17-20-30-26(31)32)23-10-4-1-5-11-23/h1-15H-16-21H2-(H-31-32)

>  <threshold>


>  <reference>
R23|

>  <group>
C

>  <Class>
-1

>  <ABC>
24.72

>  <ABCGG>
19.28

>  <nAcid>
1

>  <nBase>
1

>  <nAromAtom>
18

>  <nAromBond>
18

>  <nAtom>
60

>  <nHeavyAtom>
32

>  <nSpiro>
0

>  <nBridgehead>
0

>  <nHetero>
4

>  <nN>
2

>  <nO>
2

>  <nF>
0

>  <BalabanJ>
1.4

>  <BertzCT>
1027.18

>  <nBonds>
63

>  <nBondsO>
35

>  <nBondsS>
43

>  <nBondsD>
1

>  <nBondsT>
1

>  <nBondsA>
18

>  <nBondsM>
20

>  <nBondsKS>
52

>  <nBondsKD>
10

>  <RNCG>
0.21

>  <RPCG>
0.14

>  <FCSP3>
0.29

>  <SZ>
37.67

>  <Sm>
35.35

>  <Sv>
38.53

>  <Sse>
59.42

>  <Sp>
41.46

>  <Si>
66.81

>  <MZ>
0.63

>  <Mm>
0.59

>  <Mv>
0.64

>  <Mse>
0.99

>  <Mp>
0.69

>  <Mi>
1.11

>  <NsCH3>
0

>  <NdCH2>
0

>  <NssCH2>
6

>  <NtCH>
0

>  <NdsCH>
0

>  <NaaCH>
15

>  <NsssCH>
0

>  <NddC>
0

>  <NtsC>
1

>  <NdssC>
1

>  <NaasC>
3

>  <NaaaC>
0

>  <NssssC>
2

>  <NsNH3>
0

>  <NsNH2>
0

>  <NssNH2>
0

>  <NdNH>
0

>  <NssNH>
0

>  <NaaNH>
0

>  <NtN>
1

>  <NsssNH>
0

>  <NdsN>
0

>  <NaaN>
0

>  <NsssN>
1

>  <NddsN>
0

>  <NaasN>
0

>  <NssssN>
0

>  <NsOH>
1

>  <NdO>
1

>  <NssO>
0

>  <NaaO>
0

>  <NsF>
0

>  <NsSiH3>
0

>  <NssSiH2>
0

>  <NsssSiH>
0

>  <NssssSi>
0

>  <NsPH2>
0

>  <NssPH>
0

>  <NsssP>
0

>  <NdsssP>
0

>  <NsssssP>
0

>  <NsSH>
0

>  <NdS>
0

>  <NssS>
0

>  <NaaS>
0

>  <NdssS>
0

>  <NddssS>
0

>  <NsCl>
0

>  <NsBr>
0

>  <NsI>
0

>  <fragCpx>
233.04

>  <fMF>
0.45

>  <nHBAcc>
3

>  <nHBDon>
1

>  <Kier1>
25.1

>  <Kier2>
11.62

>  <Lipinski>
0

>  <GhoseFilter>
1

>  <FilterItLogS>
-6.09

>  <VMcGowan>
342.04

>  <LabuteASA>
189.3

>  <PEOE_VSA1>
10.01

>  <PEOE_VSA2>
4.79

>  <PEOE_VSA3>
0

>  <PEOE_VSA4>
5.26

>  <PEOE_VSA5>
0

>  <PEOE_VSA6>
91

>  <PEOE_VSA7>
49.04

>  <PEOE_VSA8>
6.54

>  <PEOE_VSA9>
11.48

>  <PEOE_VSA10>
5.41

>  <PEOE_VSA11>
0

>  <PEOE_VSA12>
0

>  <PEOE_VSA13>
0

>  <SMR_VSA1>
9.9

>  <SMR_VSA2>
5.26

>  <SMR_VSA3>
4.9

>  <SMR_VSA4>
0

>  <SMR_VSA5>
30.09

>  <SMR_VSA6>
19.63

>  <SMR_VSA7>
107.69

>  <SMR_VSA8>
0

>  <SMR_VSA9>
6.07

>  <SlogP_VSA1>
0

>  <SlogP_VSA2>
35.61

>  <SlogP_VSA3>
15.62

>  <SlogP_VSA4>
11.33

>  <SlogP_VSA5>
35.95

>  <SlogP_VSA6>
91

>  <SlogP_VSA7>
0

>  <SlogP_VSA8>
0

>  <SlogP_VSA9>
0

>  <SlogP_VSA10>
0

>  <SlogP_VSA11>
0

>  <EState_VSA1>
16.8

>  <EState_VSA2>
0

>  <EState_VSA3>
32.35

>  <EState_VSA4>
23.24

>  <EState_VSA5>
0

>  <EState_VSA6>
0

>  <EState_VSA7>
91

>  <EState_VSA8>
10.97

>  <EState_VSA9>
0

>  <EState_VSA10>
15.16

>  <VSA_EState1>
0

>  <VSA_EState2>
14.56

>  <VSA_EState3>
20.43

>  <VSA_EState4>
1.31

>  <VSA_EState5>
-0.75

>  <VSA_EState6>
32.17

>  <VSA_EState7>
1.8

>  <VSA_EState8>
2.14

>  <VSA_EState9>
0

>  <apol>
69.23

>  <bpol>
31.24

>  <nRing>
4

>  <nHRing>
1

>  <naRing>
3

>  <naHRing>
0

>  <nARing 2>
1

>  <nAHRing 2>
1

>  <nFRing>
0

>  <nFHRing>
0

>  <nFaRing>
0

>  <nFaHRing>
0

>  <nFARing 2>
0

>  <nFAHRing 2>
0

>  <nRot>
7

>  <SLogP>
5

>  <SMR>
125.32

>  <TopoPSA(NO)>
64.33

>  <TopoPSA>
64.33

>  <JGI1>
0.19

>  <JGI2>
0.1

>  <JGI3>
0.05

>  <JGI4>
0.02

>  <JGI5>
0.02

>  <Diameter>
14

>  <Radius>
7

>  <TMWC10>
145.35

>  <TSRW10>
68.36

>  <MW>
424.22

>  <AMW>
7.07

>  <WPath>
2977

>  <WPol>
57

>  <Zagreb1>
168

>  <Zagreb2>
202

>  <mZagreb2>
7.25

>  <yes>


>  <nAR-cont>
0.816016

>  <nHA-cont>
0.658856097

>  <MWHBN>
0.194206795

>  <MWHBN-cont>
0.997849461

>  <TPSA-cont>
0.550936653

>  <pka_cont>
0.97

>  <yes.1>


>  <BBB_SCORE>
4.558519595

>  <MMFF94 Energy>
99.73

$$$$
Compound 2845
Actelion Java MolfileCreator 2.0

  0  0  0  0  0  0              0 V3000
M  V30 BEGIN CTAB
M  V30 COUNTS 48 52 0 0 0
M  V30 BEGIN ATOM
M  V30 1 O -0.9716 -2.025 -1.4577 0
M  V30 2 C -0.5761 -1.7689 -0.3158 0
M  V30 3 N 0.4329 -2.5075 0.2647 0
M  V30 4 C -1.2161 -0.6169 0.5106 0
M  V30 5 C 1.0191 -3.6645 -0.4421 0
M  V30 6 C 1.0427 -2.3301 1.551 0
M  V30 7 N -2.6674 -0.8918 0.5811 0
M  V30 8 C -0.8616 0.8023 -0.0494 0
M  V30 9 C 0.1007 -4.8246 -0.4716 0
M  V30 10 C 2.3017 -4.0159 0.3517 0
M  V30 11 C 2.1966 -3.2855 1.6662 0
M  V30 12 C 1.0163 -3.4143 2.5908 0
M  V30 13 C 0.6799 0.9691 -0.1707 0
M  V30 14 C -1.3668 1.9081 0.9295 0
M  V30 15 C -1.4872 1.0853 -1.4447 0
M  V30 16 N -0.5835 -5.7638 -0.4783 0
M  V30 17 C 1.0522 2.3738 -0.6752 0
M  V30 18 C -0.9958 3.3155 0.4291 0
M  V30 19 C -1.1135 2.4928 -1.9464 0
M  V30 20 O 2.4637 2.4777 -0.7963 0
M  V30 21 C 0.5289 3.4277 0.312 0
M  V30 22 C 0.4138 2.603 -2.053 0
M  V30 23 C -1.6305 3.5431 -0.9513 0
M  V30 24 H -0.8599 -0.6714 1.543 0
M  V30 25 H 1.2678 -3.372 -1.4688 0
M  V30 26 H 1.2368 -1.3092 1.8592 0
M  V30 27 H -2.9935 -1.1263 -0.3612 0
M  V30 28 H -3.1855 -0.0658 0.8647 0
M  V30 29 H 2.4484 -5.091 0.4988 0
M  V30 30 H 3.175 -3.6294 -0.1874 0
M  V30 31 H 3.1409 -2.9437 2.0656 0
M  V30 32 H 0.332 -4.2459 2.4656 0
M  V30 33 H 1.1482 -3.1211 3.6271 0
M  V30 34 H 1.1056 0.2227 -0.8534 0
M  V30 35 H 1.1621 0.7917 0.7991 0
M  V30 36 H -2.4555 1.8594 1.0468 0
M  V30 37 H -0.936 1.7501 1.9268 0
M  V30 38 H -1.1413 0.3512 -2.1804 0
M  V30 39 H -2.5799 1.0013 -1.4016 0
M  V30 40 H -1.3677 4.0672 1.1344 0
M  V30 41 H -1.5651 2.6639 -2.93 0
M  V30 42 H 2.8496 2.4451 0.0952 0
M  V30 43 H 0.9988 3.2946 1.2951 0
M  V30 44 H 0.8173 4.4334 -0.0201 0
M  V30 45 H 0.802 1.8745 -2.7765 0
M  V30 46 H 0.7006 3.5883 -2.4429 0
M  V30 47 H -1.3907 4.5508 -1.312 0
M  V30 48 H -2.7233 3.4836 -0.8768 0
M  V30 END ATOM
M  V30 BEGIN BOND
M  V30 1 2 1 2
M  V30 2 1 2 3
M  V30 3 1 2 4
M  V30 4 1 3 5
M  V30 5 1 3 6
M  V30 6 1 4 7
M  V30 7 1 4 8
M  V30 8 1 5 9
M  V30 9 1 5 10
M  V30 10 1 6 11
M  V30 11 1 6 12
M  V30 12 1 8 13
M  V30 13 1 8 14
M  V30 14 1 8 15
M  V30 15 3 9 16
M  V30 16 1 13 17
M  V30 17 1 14 18
M  V30 18 1 15 19
M  V30 19 1 17 20
M  V30 20 1 17 21
M  V30 21 1 17 22
M  V30 22 1 18 23
M  V30 23 1 10 11
M  V30 24 1 11 12
M  V30 25 1 18 21
M  V30 26 1 19 22
M  V30 27 1 19 23
M  V30 28 1 4 24
M  V30 29 1 5 25
M  V30 30 1 6 26
M  V30 31 1 7 27
M  V30 32 1 7 28
M  V30 33 1 10 29
M  V30 34 1 10 30
M  V30 35 1 11 31
M  V30 36 1 12 32
M  V30 37 1 12 33
M  V30 38 1 13 34
M  V30 39 1 13 35
M  V30 40 1 14 36
M  V30 41 1 14 37
M  V30 42 1 15 38
M  V30 43 1 15 39
M  V30 44 1 18 40
M  V30 45 1 19 41
M  V30 46 1 20 42
M  V30 47 1 21 43
M  V30 48 1 21 44
M  V30 49 1 22 45
M  V30 50 1 22 46
M  V30 51 1 23 47
M  V30 52 1 23 48
M  V30 END BOND
M  V30 END CTAB
M  END
>  <Column 1>
3608

>  <level_0>
5872

>  <index>
5873

>  <Unnamed: 0>
5873

>  <NO.>
5885

>  <Name>
saxagliptin

>  <IUPAC_name>
2-[2-amino-2-(3-hydroxy-1-adamantyl)acetyl]-2-azabicyclo[3.1.0]hexane-3-carbonitrile

>  <SMILES>
N#CC1CC2CC2N1C(=O)C(N)C12CC3CC(CC(O)(C3)C1)C2

>  <CID>
58391580

>  <logBB>


>  <BBB+/BBB->
BBB-

>  <Inchi>
InChI=1S/C18H25N3O2/c19-8-13-2-12-3-14(12)21(13)16(22)15(20)17-4-10-1-11(5-17)7-18(23-6-10)9-17/h10-15-23H-1-7-9-20H2

>  <threshold>


>  <reference>
R23|

>  <group>
C

>  <Class>
-1

>  <ABC>
19.21

>  <ABCGG>
16.67

>  <nAcid>
0

>  <nBase>
1

>  <nAromAtom>
0

>  <nAromBond>
0

>  <nAtom>
48

>  <nHeavyAtom>
23

>  <nSpiro>
0

>  <nBridgehead>
4

>  <nHetero>
5

>  <nN>
3

>  <nO>
2

>  <nF>
0

>  <BalabanJ>
1.4

>  <BertzCT>
597.88

>  <nBonds>
52

>  <nBondsO>
27

>  <nBondsS>
50

>  <nBondsD>
1

>  <nBondsT>
1

>  <nBondsA>
0

>  <nBondsM>
2

>  <nBondsKS>
50

>  <nBondsKD>
1

>  <RNCG>
0.21

>  <RPCG>
0.13

>  <FCSP3>
0.89

>  <SZ>
28.33

>  <Sm>
26.26

>  <Sv>
28.48

>  <Sse>
47.75

>  <Sp>
30.92

>  <Si>
54.48

>  <MZ>
0.59

>  <Mm>
0.55

>  <Mv>
0.59

>  <Mse>
0.99

>  <Mp>
0.64

>  <Mi>
1.14

>  <NsCH3>
0

>  <NdCH2>
0

>  <NssCH2>
8

>  <NtCH>
0

>  <NdsCH>
0

>  <NaaCH>
0

>  <NsssCH>
6

>  <NddC>
0

>  <NtsC>
1

>  <NdssC>
1

>  <NaasC>
0

>  <NaaaC>
0

>  <NssssC>
2

>  <NsNH3>
0

>  <NsNH2>
1

>  <NssNH2>
0

>  <NdNH>
0

>  <NssNH>
0

>  <NaaNH>
0

>  <NtN>
1

>  <NsssNH>
0

>  <NdsN>
0

>  <NaaN>
0

>  <NsssN>
1

>  <NddsN>
0

>  <NaasN>
0

>  <NssssN>
0

>  <NsOH>
1

>  <NdO>
1

>  <NssO>
0

>  <NaaO>
0

>  <NsF>
0

>  <NsSiH3>
0

>  <NssSiH2>
0

>  <NsssSiH>
0

>  <NssssSi>
0

>  <NsPH2>
0

>  <NssPH>
0

>  <NsssP>
0

>  <NdsssP>
0

>  <NsssssP>
0

>  <NsSH>
0

>  <NdS>
0

>  <NssS>
0

>  <NaaS>
0

>  <NdssS>
0

>  <NddssS>
0

>  <NsCl>
0

>  <NsBr>
0

>  <NsI>
0

>  <fragCpx>
223.05

>  <fMF>
0.38

>  <nHBAcc>
4

>  <nHBDon>
2

>  <Kier1>
15.27

>  <Kier2>
4.79

>  <Lipinski>
1

>  <GhoseFilter>
1

>  <FilterItLogS>
-1.32

>  <VMcGowan>
238.96

>  <LabuteASA>
136.36

>  <PEOE_VSA1>
15.74

>  <PEOE_VSA2>
4.79

>  <PEOE_VSA3>
0

>  <PEOE_VSA4>
5.26

>  <PEOE_VSA5>
0

>  <PEOE_VSA6>
0

>  <PEOE_VSA7>
74.54

>  <PEOE_VSA8>
6.04

>  <PEOE_VSA9>
17.71

>  <PEOE_VSA10>
6.04

>  <PEOE_VSA11>
0

>  <PEOE_VSA12>
5.91

>  <PEOE_VSA13>
0

>  <SMR_VSA1>
9.9

>  <SMR_VSA2>
5.26

>  <SMR_VSA3>
4.9

>  <SMR_VSA4>
28.9

>  <SMR_VSA5>
75.09

>  <SMR_VSA6>
0

>  <SMR_VSA7>
0

>  <SMR_VSA8>
0

>  <SMR_VSA9>
6.07

>  <SlogP_VSA1>
5.73

>  <SlogP_VSA2>
39.64

>  <SlogP_VSA3>
4.79

>  <SlogP_VSA4>
34.5

>  <SlogP_VSA5>
51.37

>  <SlogP_VSA6>
0

>  <SlogP_VSA7>
0

>  <SlogP_VSA8>
0

>  <SlogP_VSA9>
0

>  <SlogP_VSA10>
0

>  <SlogP_VSA11>
0

>  <EState_VSA1>
11.64

>  <EState_VSA2>
23.41

>  <EState_VSA3>
24.17

>  <EState_VSA4>
38.52

>  <EState_VSA5>
6.42

>  <EState_VSA6>
4.9

>  <EState_VSA7>
0

>  <EState_VSA8>
6.07

>  <EState_VSA9>
5.73

>  <EState_VSA10>
15.16

>  <VSA_EState1>
0

>  <VSA_EState2>
14.94

>  <VSA_EState3>
20.25

>  <VSA_EState4>
5.71

>  <VSA_EState5>
1.56

>  <VSA_EState6>
1.72

>  <VSA_EState7>
7.48

>  <VSA_EState8>
0

>  <VSA_EState9>
0

>  <apol>
51.63

>  <bpol>
27.66

>  <nRing>
6

>  <nHRing>
1

>  <naRing>
0

>  <naHRing>
0

>  <nARing 2>
6

>  <nAHRing 2>
1

>  <nFRing>
2

>  <nFHRing>
1

>  <nFaRing>
0

>  <nFaHRing>
0

>  <nFARing 2>
2

>  <nFAHRing 2>
1

>  <nRot>
2

>  <SLogP>
1.16

>  <SMR>
82.8

>  <TopoPSA(NO)>
90.35

>  <TopoPSA>
90.35

>  <JGI1>
0.3

>  <JGI2>
0.08

>  <JGI3>
0.08

>  <JGI4>
0.05

>  <JGI5>
0.04

>  <Diameter>
9

>  <Radius>
5

>  <TMWC10>
129.29

>  <TSRW10>
79.64

>  <MW>
315.19

>  <AMW>
6.57

>  <WPath>
1058

>  <WPol>
41

>  <Zagreb1>
144

>  <Zagreb2>
183

>  <mZagreb2>
4.64

>  <yes>


>  <nAR-cont>
0

>  <nHA-cont>
0.967789328

>  <MWHBN>
0.337959793

>  <MWHBN-cont>
0.714520689

>  <TPSA-cont>
0.369300896

>  <pka_cont>
0.97

>  <yes.1>


>  <BBB_SCORE>
3.263172154

>  <MMFF94 Energy>
105.42

$$$$
Compound 2846
Actelion Java MolfileCreator 2.0

  0  0  0  0  0  0              0 V3000
M  V30 BEGIN CTAB
M  V30 COUNTS 47 50 0 0 0
M  V30 BEGIN ATOM
M  V30 1 O 1.6903 -3.4636 0.7241 0
M  V30 2 C 0.8628 -2.6143 1.0605 0
M  V30 3 N 0.5652 -2.3865 2.3849 0
M  V30 4 C 0.1394 -1.7587 0.0109 0
M  V30 5 C 1.2259 -3.1407 3.4472 0
M  V30 6 C -0.4123 -1.4456 2.9114 0
M  V30 7 N 0.7701 -0.4323 -0.0379 0
M  V30 8 C 2.6009 -2.6549 3.7082 0
M  V30 9 C 0.3188 -2.9016 4.6586 0
M  V30 10 C -0.2205 -1.4924 4.4209 0
M  V30 11 C 0.2283 0.5018 -1.0355 0
M  V30 12 N 3.6671 -2.264 3.9549 0
M  V30 13 C -1.2883 0.7574 -0.8605 0
M  V30 14 C 0.4972 0.0363 -2.4898 0
M  V30 15 C 0.9693 1.8512 -0.8195 0
M  V30 16 C -1.7758 1.8145 -1.8675 0
M  V30 17 C 0.0049 1.0936 -3.4963 0
M  V30 18 C 0.484 2.9131 -1.821 0
M  V30 19 O -3.1716 2.0142 -1.6865 0
M  V30 20 C -1.5019 1.318 -3.2977 0
M  V30 21 C -1.0229 3.133 -1.6296 0
M  V30 22 C 0.7495 2.4159 -3.251 0
M  V30 23 H 0.224 -2.2816 -0.9469 0
M  V30 24 H -0.9195 -1.703 0.277 0
M  V30 25 H 1.2585 -4.2038 3.1834 0
M  V30 26 H -1.4088 -1.7996 2.6262 0
M  V30 27 H -0.2602 -0.4431 2.5039 0
M  V30 28 H 1.7719 -0.5636 -0.2019 0
M  V30 29 H -0.5179 -3.6115 4.6397 0
M  V30 30 H 0.8262 -2.9994 5.6235 0
M  V30 31 H 0.5246 -0.7494 4.7294 0
M  V30 32 H -1.1461 -1.2923 4.9679 0
M  V30 33 H -1.5134 1.0863 0.1634 0
M  V30 34 H -1.8689 -0.162 -1.0098 0
M  V30 35 H 1.5696 -0.1431 -2.6419 0
M  V30 36 H -0.015 -0.9109 -2.6975 0
M  V30 37 H 2.0535 1.716 -0.9345 0
M  V30 38 H 0.8058 2.2159 0.2039 0
M  V30 39 H 0.1956 0.7465 -4.518 0
M  V30 40 H 1.0196 3.8539 -1.6512 0
M  V30 41 H -3.4624 2.6951 -2.3176 0
M  V30 42 H -1.8792 2.0448 -4.0289 0
M  V30 43 H -2.0575 0.3907 -3.4887 0
M  V30 44 H -1.3869 3.9072 -2.3175 0
M  V30 45 H -1.2324 3.5113 -0.6206 0
M  V30 46 H 0.4217 3.1706 -3.9766 0
M  V30 47 H 1.8263 2.2734 -3.4045 0
M  V30 END ATOM
M  V30 BEGIN BOND
M  V30 1 2 1 2
M  V30 2 1 2 3
M  V30 3 1 2 4
M  V30 4 1 3 5
M  V30 5 1 3 6
M  V30 6 1 4 7
M  V30 7 1 5 8
M  V30 8 1 5 9
M  V30 9 1 6 10
M  V30 10 1 7 11
M  V30 11 3 8 12
M  V30 12 1 11 13
M  V30 13 1 11 14
M  V30 14 1 11 15
M  V30 15 1 13 16
M  V30 16 1 14 17
M  V30 17 1 15 18
M  V30 18 1 16 19
M  V30 19 1 16 20
M  V30 20 1 16 21
M  V30 21 1 17 22
M  V30 22 1 9 10
M  V30 23 1 17 20
M  V30 24 1 18 21
M  V30 25 1 18 22
M  V30 26 1 4 23
M  V30 27 1 4 24
M  V30 28 1 5 25
M  V30 29 1 6 26
M  V30 30 1 6 27
M  V30 31 1 7 28
M  V30 32 1 9 29
M  V30 33 1 9 30
M  V30 34 1 10 31
M  V30 35 1 10 32
M  V30 36 1 13 33
M  V30 37 1 13 34
M  V30 38 1 14 35
M  V30 39 1 14 36
M  V30 40 1 15 37
M  V30 41 1 15 38
M  V30 42 1 17 39
M  V30 43 1 18 40
M  V30 44 1 19 41
M  V30 45 1 20 42
M  V30 46 1 20 43
M  V30 47 1 21 44
M  V30 48 1 21 45
M  V30 49 1 22 46
M  V30 50 1 22 47
M  V30 END BOND
M  V30 END CTAB
M  END
>  <Column 1>
3609

>  <level_0>
5873

>  <index>
5874

>  <Unnamed: 0>
5874

>  <NO.>
5886

>  <Name>
vildagliptin

>  <IUPAC_name>
1-[2-[(3-hydroxy-1-adamantyl)amino]acetyl]pyrrolidine-2-carbonitrile

>  <SMILES>
N#CC1CCCN1C(=O)CNC12CC3CC(CC(O)(C3)C1)C2

>  <CID>
5251896

>  <logBB>


>  <BBB+/BBB->
BBB-

>  <Inchi>
InChI=1S/C17H25N3O2/c18-9-14-2-1-3-20(14)15(21)10-19-16-5-12-4-13(6-16)8-17(22-7-12)11-16/h12-14-19-22H-1-8-10-11H2

>  <threshold>


>  <reference>
R23|

>  <group>
C

>  <Class>
-1

>  <ABC>
17.87

>  <ABCGG>
14.58

>  <nAcid>
0

>  <nBase>
1

>  <nAromAtom>
0

>  <nAromBond>
0

>  <nAtom>
47

>  <nHeavyAtom>
22

>  <nSpiro>
0

>  <nBridgehead>
4

>  <nHetero>
5

>  <nN>
3

>  <nO>
2

>  <nF>
0

>  <BalabanJ>
1.39

>  <BertzCT>
512.49

>  <nBonds>
50

>  <nBondsO>
25

>  <nBondsS>
48

>  <nBondsD>
1

>  <nBondsT>
1

>  <nBondsA>
0

>  <nBondsM>
2

>  <nBondsKS>
48

>  <nBondsKD>
1

>  <RNCG>
0.22

>  <RPCG>
0.13

>  <FCSP3>
0.88

>  <SZ>
27.33

>  <Sm>
25.26

>  <Sv>
27.48

>  <Sse>
46.75

>  <Sp>
29.92

>  <Si>
53.48

>  <MZ>
0.58

>  <Mm>
0.54

>  <Mv>
0.58

>  <Mse>
0.99

>  <Mp>
0.64

>  <Mi>
1.14

>  <NsCH3>
0

>  <NdCH2>
0

>  <NssCH2>
10

>  <NtCH>
0

>  <NdsCH>
0

>  <NaaCH>
0

>  <NsssCH>
3

>  <NddC>
0

>  <NtsC>
1

>  <NdssC>
1

>  <NaasC>
0

>  <NaaaC>
0

>  <NssssC>
2

>  <NsNH3>
0

>  <NsNH2>
0

>  <NssNH2>
0

>  <NdNH>
0

>  <NssNH>
1

>  <NaaNH>
0

>  <NtN>
1

>  <NsssNH>
0

>  <NdsN>
0

>  <NaaN>
0

>  <NsssN>
1

>  <NddsN>
0

>  <NaasN>
0

>  <NssssN>
0

>  <NsOH>
1

>  <NdO>
1

>  <NssO>
0

>  <NaaO>
0

>  <NsF>
0

>  <NsSiH3>
0

>  <NssSiH2>
0

>  <NsssSiH>
0

>  <NssssSi>
0

>  <NsPH2>
0

>  <NssPH>
0

>  <NsssP>
0

>  <NdsssP>
0

>  <NsssssP>
0

>  <NsSH>
0

>  <NdS>
0

>  <NssS>
0

>  <NaaS>
0

>  <NdssS>
0

>  <NddssS>
0

>  <NsCl>
0

>  <NsBr>
0

>  <NsI>
0

>  <fragCpx>
163.05

>  <fMF>
0.38

>  <nHBAcc>
4

>  <nHBDon>
2

>  <Kier1>
15.52

>  <Kier2>
5.52

>  <Lipinski>
1

>  <GhoseFilter>
1

>  <FilterItLogS>
-2.28

>  <VMcGowan>
235.73

>  <LabuteASA>
131.21

>  <PEOE_VSA1>
15.32

>  <PEOE_VSA2>
4.79

>  <PEOE_VSA3>
0

>  <PEOE_VSA4>
5.26

>  <PEOE_VSA5>
0

>  <PEOE_VSA6>
0

>  <PEOE_VSA7>
63.2

>  <PEOE_VSA8>
12.08

>  <PEOE_VSA9>
18.22

>  <PEOE_VSA10>
6.04

>  <PEOE_VSA11>
0

>  <PEOE_VSA12>
5.91

>  <PEOE_VSA13>
0

>  <SMR_VSA1>
9.9

>  <SMR_VSA2>
5.26

>  <SMR_VSA3>
10.22

>  <SMR_VSA4>
11.84

>  <SMR_VSA5>
68.55

>  <SMR_VSA6>
13.09

>  <SMR_VSA7>
0

>  <SMR_VSA8>
0

>  <SMR_VSA9>
6.07

>  <SlogP_VSA1>
5.32

>  <SlogP_VSA2>
46.18

>  <SlogP_VSA3>
4.79

>  <SlogP_VSA4>
23.17

>  <SlogP_VSA5>
51.37

>  <SlogP_VSA6>
0

>  <SlogP_VSA7>
0

>  <SlogP_VSA8>
0

>  <SlogP_VSA9>
0

>  <SlogP_VSA10>
0

>  <SlogP_VSA11>
0

>  <EState_VSA1>
5.6

>  <EState_VSA2>
17.49

>  <EState_VSA3>
24.93

>  <EState_VSA4>
44.95

>  <EState_VSA5>
6.42

>  <EState_VSA6>
4.9

>  <EState_VSA7>
0

>  <EState_VSA8>
11.39

>  <EState_VSA9>
5.26

>  <EState_VSA10>
9.9

>  <VSA_EState1>
0

>  <VSA_EState2>
14.16

>  <VSA_EState3>
23.38

>  <VSA_EState4>
-0.54

>  <VSA_EState5>
1.28

>  <VSA_EState6>
1.99

>  <VSA_EState7>
7.87

>  <VSA_EState8>
1.02

>  <VSA_EState9>
0

>  <apol>
49.96

>  <bpol>
28.8

>  <nRing>
5

>  <nHRing>
1

>  <naRing>
0

>  <naHRing>
0

>  <nARing 2>
5

>  <nAHRing 2>
1

>  <nFRing>
1

>  <nFHRing>
0

>  <nFaRing>
0

>  <nFaHRing>
0

>  <nFARing 2>
1

>  <nFAHRing 2>
0

>  <nRot>
3

>  <SLogP>
1.17

>  <SMR>
80.71

>  <TopoPSA(NO)>
76.36

>  <TopoPSA>
76.36

>  <JGI1>
0.3

>  <JGI2>
0.06

>  <JGI3>
0.08

>  <JGI4>
0.05

>  <JGI5>
0.02

>  <Diameter>
10

>  <Radius>
5

>  <TMWC10>
123.77

>  <TSRW10>
70.9

>  <MW>
303.19

>  <AMW>
6.45

>  <WPath>
1047

>  <WPol>
35

>  <Zagreb1>
128

>  <Zagreb2>
155

>  <mZagreb2>
4.6

>  <yes>


>  <nAR-cont>
0

>  <nHA-cont>
0.983774276

>  <MWHBN>
0.344582973

>  <MWHBN-cont>
0.690361618

>  <TPSA-cont>
0.466959783

>  <pka_cont>
0.97

>  <yes.1>


>  <BBB_SCORE>
3.43823627

>  <MMFF94 Energy>
69.225

$$$$
Compound 2847
Actelion Java MolfileCreator 2.0

  0  0  0  0  0  0              0 V3000
M  V30 BEGIN CTAB
M  V30 COUNTS 41 44 0 0 0
M  V30 BEGIN ATOM
M  V30 1 N 0.0801 0.8013 -4.4937 0
M  V30 2 C 0.0456 -0.0894 -3.7516 0
M  V30 3 C 0.0222 -1.2502 -2.8491 0
M  V30 4 C -0.966 -1.0631 -1.688 0 CFG=2
M  V30 5 N -0.5712 0.0655 -0.8424 0
M  V30 6 C -1.1298 -2.3489 -0.8457 0
M  V30 7 N -1.416 1.1005 -0.6929 0
M  V30 8 C 0.587 0.2121 -0.1362 0
M  V30 9 C -2.1721 -2.2239 0.2702 0
M  V30 10 C -1.6585 -3.5506 -1.6354 0
M  V30 11 C -0.7568 1.9312 0.1198 0
M  V30 12 C 0.5126 1.4402 0.4918 0
M  V30 13 C -2.4297 -3.6659 0.6816 0
M  V30 14 C -2.2588 -4.4903 -0.5911 0
M  V30 15 C 1.5465 1.9735 1.3486 0
M  V30 16 N 2.3919 1.0906 1.9413 0
M  V30 17 C 1.7054 3.3455 1.5771 0
M  V30 18 C 3.3436 1.5805 2.7556 0
M  V30 19 C 2.7357 3.6924 2.4416 0
M  V30 20 C 1.1126 4.5716 1.1542 0
M  V30 21 N 3.5847 2.8641 3.067 0
M  V30 22 N 2.7596 5.0545 2.5629 0
M  V30 23 C 1.7779 5.6049 1.7815 0
M  V30 24 H 1.034 -1.442 -2.4729 0
M  V30 25 H -0.259 -2.1261 -3.4441 0
M  V30 26 H -1.9475 -0.7977 -2.1077 0
M  V30 27 H -0.1652 -2.6237 -0.3959 0
M  V30 28 H 1.3619 -0.5419 -0.1284 0
M  V30 29 H -3.097 -1.7713 -0.1077 0
M  V30 30 H -1.8192 -1.6237 1.1143 0
M  V30 31 H -0.8714 -4.0481 -2.2106 0
M  V30 32 H -2.4401 -3.2391 -2.3392 0
M  V30 33 H -1.2425 2.8523 0.4126 0
M  V30 34 H -3.4208 -3.7942 1.1271 0
M  V30 35 H -1.689 -3.9805 1.4263 0
M  V30 36 H -1.5979 -5.3437 -0.4041 0
M  V30 37 H -3.2173 -4.8898 -0.9393 0
M  V30 38 H 3.9968 0.8472 3.2188 0
M  V30 39 H 0.2953 4.6981 0.4565 0
M  V30 40 H 3.4211 5.5554 3.1385 0
M  V30 41 H 1.643 6.6776 1.7321 0
M  V30 END ATOM
M  V30 BEGIN BOND
M  V30 1 3 1 2
M  V30 2 1 2 3
M  V30 3 1 3 4
M  V30 4 1 4 5
M  V30 5 1 4 6
M  V30 6 1 5 7
M  V30 7 1 5 8
M  V30 8 1 6 9
M  V30 9 1 6 10
M  V30 10 2 7 11
M  V30 11 2 8 12
M  V30 12 1 9 13
M  V30 13 1 10 14
M  V30 14 1 12 15
M  V30 15 2 15 16
M  V30 16 1 15 17
M  V30 17 1 16 18
M  V30 18 2 17 19
M  V30 19 1 17 20
M  V30 20 2 18 21
M  V30 21 1 19 22
M  V30 22 2 20 23
M  V30 23 1 11 12
M  V30 24 1 13 14
M  V30 25 1 19 21
M  V30 26 1 22 23
M  V30 27 1 3 24
M  V30 28 1 3 25
M  V30 29 1 4 26
M  V30 30 1 6 27
M  V30 31 1 8 28
M  V30 32 1 9 29
M  V30 33 1 9 30
M  V30 34 1 10 31
M  V30 35 1 10 32
M  V30 36 1 11 33
M  V30 37 1 13 34
M  V30 38 1 13 35
M  V30 39 1 14 36
M  V30 40 1 14 37
M  V30 41 1 18 38
M  V30 42 1 20 39
M  V30 43 1 22 40
M  V30 44 1 23 41
M  V30 END BOND
M  V30 BEGIN COLLECTION
M  V30 MDLV30/STERAC1 ATOMS=(1 4)
M  V30 END COLLECTION
M  V30 END CTAB
M  END
>  <Column 1>
3610

>  <level_0>
5874

>  <index>
5875

>  <Unnamed: 0>
5875

>  <NO.>
5887

>  <Name>
941688-05-7

>  <IUPAC_name>
3-cyclopentyl-3-[4-(7h-pyrrolo[2-3-d]pyrimidin-4-yl)pyrazol-1-yl]propanenitrile

>  <SMILES>
N#CCC(C1CCCC1)n1cc(-c2ncnc3[nH]ccc23)cn1

>  <CID>
17754772

>  <logBB>


>  <BBB+/BBB->
BBB-

>  <Inchi>
InChI=1S/C17H18N6/c18-7-5-15(12-3-1-2-4-12)23-10-13(9-22-23)16-14-6-8-19-17(14)21-11-20-16/h6-8-12-15H-1-5H2-(H-19-20-21)

>  <threshold>


>  <reference>
R23|

>  <group>
C

>  <Class>
1

>  <ABC>
18.18

>  <ABCGG>
15.72

>  <nAcid>
0

>  <nBase>
0

>  <nAromAtom>
14

>  <nAromBond>
15

>  <nAtom>
41

>  <nHeavyAtom>
23

>  <nSpiro>
0

>  <nBridgehead>
0

>  <nHetero>
6

>  <nN>
6

>  <nO>
0

>  <nF>
0

>  <BalabanJ>
1.39

>  <BertzCT>
849.22

>  <nBonds>
44

>  <nBondsO>
26

>  <nBondsS>
28

>  <nBondsD>
0

>  <nBondsT>
1

>  <nBondsA>
15

>  <nBondsM>
16

>  <nBondsKS>
37

>  <nBondsKD>
6

>  <RNCG>
0.2

>  <RPCG>
0.1

>  <FCSP3>
0.41

>  <SZ>
27

>  <Sm>
25.51

>  <Sv>
26.42

>  <Sse>
40.97

>  <Sp>
28.14

>  <Si>
46.48

>  <MZ>
0.66

>  <Mm>
0.62

>  <Mv>
0.64

>  <Mse>
1

>  <Mp>
0.69

>  <Mi>
1.13

>  <NsCH3>
0

>  <NdCH2>
0

>  <NssCH2>
5

>  <NtCH>
0

>  <NdsCH>
0

>  <NaaCH>
5

>  <NsssCH>
2

>  <NddC>
0

>  <NtsC>
1

>  <NdssC>
0

>  <NaasC>
2

>  <NaaaC>
2

>  <NssssC>
0

>  <NsNH3>
0

>  <NsNH2>
0

>  <NssNH2>
0

>  <NdNH>
0

>  <NssNH>
0

>  <NaaNH>
1

>  <NtN>
1

>  <NsssNH>
0

>  <NdsN>
0

>  <NaaN>
3

>  <NsssN>
0

>  <NddsN>
0

>  <NaasN>
1

>  <NssssN>
0

>  <NsOH>
0

>  <NdO>
0

>  <NssO>
0

>  <NaaO>
0

>  <NsF>
0

>  <NsSiH3>
0

>  <NssSiH2>
0

>  <NsssSiH>
0

>  <NssssSi>
0

>  <NsPH2>
0

>  <NssPH>
0

>  <NsssP>
0

>  <NdsssP>
0

>  <NsssssP>
0

>  <NsSH>
0

>  <NdS>
0

>  <NssS>
0

>  <NaaS>
0

>  <NdssS>
0

>  <NddssS>
0

>  <NsCl>
0

>  <NsBr>
0

>  <NsI>
0

>  <fragCpx>
170.06

>  <fMF>
0.49

>  <nHBAcc>
5

>  <nHBDon>
1

>  <Kier1>
16.47

>  <Kier2>
7.49

>  <Lipinski>
1

>  <GhoseFilter>
1

>  <FilterItLogS>
-3.99

>  <VMcGowan>
232.43

>  <LabuteASA>
133.73

>  <PEOE_VSA1>
4.98

>  <PEOE_VSA2>
4.68

>  <PEOE_VSA3>
9.97

>  <PEOE_VSA4>
10.36

>  <PEOE_VSA5>
0

>  <PEOE_VSA6>
12.84

>  <PEOE_VSA7>
24.83

>  <PEOE_VSA8>
23.34

>  <PEOE_VSA9>
30.42

>  <PEOE_VSA10>
11.97

>  <PEOE_VSA11>
0

>  <PEOE_VSA12>
0

>  <PEOE_VSA13>
0

>  <SMR_VSA1>
0

>  <SMR_VSA2>
5.26

>  <SMR_VSA3>
24.73

>  <SMR_VSA4>
5.92

>  <SMR_VSA5>
38.15

>  <SMR_VSA6>
0

>  <SMR_VSA7>
30.98

>  <SMR_VSA8>
0

>  <SMR_VSA9>
17.33

>  <SlogP_VSA1>
0

>  <SlogP_VSA2>
24.73

>  <SlogP_VSA3>
0

>  <SlogP_VSA4>
17.25

>  <SlogP_VSA5>
38.15

>  <SlogP_VSA6>
30.98

>  <SlogP_VSA7>
0

>  <SlogP_VSA8>
22.29

>  <SlogP_VSA9>
0

>  <SlogP_VSA10>
0

>  <SlogP_VSA11>
0

>  <EState_VSA1>
0

>  <EState_VSA2>
6.04

>  <EState_VSA3>
12.34

>  <EState_VSA4>
22.29

>  <EState_VSA5>
25.68

>  <EState_VSA6>
6.33

>  <EState_VSA7>
29.34

>  <EState_VSA8>
26.12

>  <EState_VSA9>
0

>  <EState_VSA10>
5.26

>  <VSA_EState1>
1.97

>  <VSA_EState2>
11.74

>  <VSA_EState3>
14.71

>  <VSA_EState4>
2.68

>  <VSA_EState5>
0.56

>  <VSA_EState6>
4.47

>  <VSA_EState7>
12.71

>  <VSA_EState8>
0

>  <VSA_EState9>
0

>  <apol>
46.99

>  <bpol>
23.19

>  <nRing>
4

>  <nHRing>
3

>  <naRing>
3

>  <naHRing>
3

>  <nARing 2>
1

>  <nAHRing 2>
0

>  <nFRing>
1

>  <nFHRing>
1

>  <nFaRing>
1

>  <nFaHRing>
1

>  <nFARing 2>
0

>  <nFAHRing 2>
0

>  <nRot>
4

>  <SLogP>
3.47

>  <SMR>
86.33

>  <TopoPSA(NO)>
83.18

>  <TopoPSA>
83.18

>  <JGI1>
0.12

>  <JGI2>
0.07

>  <JGI3>
0.04

>  <JGI4>
0.02

>  <JGI5>
0.02

>  <Diameter>
10

>  <Radius>
5

>  <TMWC10>
124.42

>  <TSRW10>
74.16

>  <MW>
306.16

>  <AMW>
7.47

>  <WPath>
1191

>  <WPol>
33

>  <Zagreb1>
124

>  <Zagreb2>
149

>  <mZagreb2>
5.14

>  <yes>


>  <nAR-cont>
0.816016

>  <nHA-cont>
0.967789328

>  <MWHBN>
0.342907533

>  <MWHBN-cont>
0.69651987

>  <TPSA-cont>
0.419351948

>  <pka_cont>
0.97

>  <yes.1>


>  <BBB_SCORE>
4.15228903

>  <MMFF94 Energy>
16.175

$$$$
Compound 2848
Actelion Java MolfileCreator 2.0

  0  0  0  0  0  0              0 V3000
M  V30 BEGIN CTAB
M  V30 COUNTS 60 64 0 0 0
M  V30 BEGIN ATOM
M  V30 1 O 3.2778 -1.3581 -9.617 0
M  V30 2 C 2.3177 -1.8587 -9.0393 0
M  V30 3 N 1.4077 -2.6041 -9.7354 0
M  V30 4 C 2.0471 -1.7279 -7.627 0
M  V30 5 O 0.9408 -2.3398 -7.0929 0
M  V30 6 C 2.7335 -1.0584 -6.6313 0
M  V30 7 C 0.9297 -2.0553 -5.762 0
M  V30 8 C 2.0185 -1.2669 -5.4239 0
M  V30 9 C -0.0247 -2.4861 -4.8512 0
M  V30 10 C 2.1717 -0.8728 -4.0795 0
M  V30 11 C 0.1562 -2.0756 -3.5215 0
M  V30 12 C 1.2314 -1.267 -3.1056 0
M  V30 13 N 1.3529 -0.9012 -1.7667 0
M  V30 14 C 2.6541 -0.4766 -1.2259 0
M  V30 15 C 0.1938 -0.2568 -1.1197 0
M  V30 16 C 2.6744 -0.5822 0.3154 0
M  V30 17 C 0.2855 -0.3528 0.4223 0
M  V30 18 N 1.5659 0.1547 0.9689 0
M  V30 19 C 1.6516 -0.0076 2.4298 0
M  V30 20 C 0.6767 0.9034 3.1877 0
M  V30 21 C 0.9128 0.8285 4.7009 0
M  V30 22 C 0.0025 1.7701 5.4957 0
M  V30 23 C -1.4356 1.353 5.4971 0
M  V30 24 C -2.489 1.8717 4.6759 0
M  V30 25 C -2.0018 0.3887 6.3083 0
M  V30 26 C -3.66 1.1943 5.0177 0
M  V30 27 C -2.5519 2.855 3.6661 0
M  V30 28 N -3.3347 0.302 6.0126 0
M  V30 29 C -4.8927 1.4473 4.4049 0
M  V30 30 C -3.777 3.1233 3.0375 0
M  V30 31 C -4.9302 2.4259 3.4063 0
M  V30 32 C -3.8435 4.119 2.0082 0
M  V30 33 N -3.9016 4.9227 1.1726 0
M  V30 34 H 1.5418 -2.7314 -10.727 0
M  V30 35 H 0.6139 -3.0192 -9.2663 0
M  V30 36 H 3.6425 -0.4899 -6.772 0
M  V30 37 H -0.8557 -3.112 -5.1498 0
M  V30 38 H 3.0147 -0.242 -3.8202 0
M  V30 39 H -0.5604 -2.4332 -2.785 0
M  V30 40 H 2.8618 0.5583 -1.5259 0
M  V30 41 H 3.4589 -1.114 -1.6121 0
M  V30 42 H -0.7558 -0.7105 -1.4227 0
M  V30 43 H 0.1587 0.7983 -1.4205 0
M  V30 44 H 3.6345 -0.1843 0.666 0
M  V30 45 H 2.6376 -1.6434 0.5976 0
M  V30 46 H 0.139 -1.4001 0.7191 0
M  V30 47 H -0.5524 0.2236 0.8284 0
M  V30 48 H 2.6676 0.2558 2.7517 0
M  V30 49 H 1.4873 -1.0536 2.7194 0
M  V30 50 H -0.3539 0.607 2.9699 0
M  V30 51 H 0.8011 1.9399 2.8505 0
M  V30 52 H 1.9543 1.1024 4.9111 0
M  V30 53 H 0.7802 -0.2049 5.0442 0
M  V30 54 H 0.3542 1.7984 6.5353 0
M  V30 55 H 0.1004 2.7939 5.1154 0
M  V30 56 H -1.566 -0.2417 7.0722 0
M  V30 57 H -1.6534 3.3953 3.3785 0
M  V30 58 H -3.9904 -0.3244 6.4588 0
M  V30 59 H -5.7905 0.9076 4.6897 0
M  V30 60 H -5.8787 2.6395 2.9153 0
M  V30 END ATOM
M  V30 BEGIN BOND
M  V30 1 2 1 2
M  V30 2 1 2 3
M  V30 3 1 2 4
M  V30 4 1 4 5
M  V30 5 2 4 6
M  V30 6 1 5 7
M  V30 7 1 6 8
M  V30 8 1 7 9
M  V30 9 1 8 10
M  V30 10 2 9 11
M  V30 11 2 10 12
M  V30 12 1 12 13
M  V30 13 1 13 14
M  V30 14 1 13 15
M  V30 15 1 14 16
M  V30 16 1 15 17
M  V30 17 1 16 18
M  V30 18 1 18 19
M  V30 19 1 19 20
M  V30 20 1 20 21
M  V30 21 1 21 22
M  V30 22 1 22 23
M  V30 23 1 23 24
M  V30 24 2 23 25
M  V30 25 2 24 26
M  V30 26 1 24 27
M  V30 27 1 25 28
M  V30 28 1 26 29
M  V30 29 2 27 30
M  V30 30 2 29 31
M  V30 31 1 30 32
M  V30 32 3 32 33
M  V30 33 2 7 8
M  V30 34 1 11 12
M  V30 35 1 17 18
M  V30 36 1 26 28
M  V30 37 1 30 31
M  V30 38 1 3 34
M  V30 39 1 3 35
M  V30 40 1 6 36
M  V30 41 1 9 37
M  V30 42 1 10 38
M  V30 43 1 11 39
M  V30 44 1 14 40
M  V30 45 1 14 41
M  V30 46 1 15 42
M  V30 47 1 15 43
M  V30 48 1 16 44
M  V30 49 1 16 45
M  V30 50 1 17 46
M  V30 51 1 17 47
M  V30 52 1 19 48
M  V30 53 1 19 49
M  V30 54 1 20 50
M  V30 55 1 20 51
M  V30 56 1 21 52
M  V30 57 1 21 53
M  V30 58 1 22 54
M  V30 59 1 22 55
M  V30 60 1 25 56
M  V30 61 1 27 57
M  V30 62 1 28 58
M  V30 63 1 29 59
M  V30 64 1 31 60
M  V30 END BOND
M  V30 END CTAB
M  END
>  <Column 1>
3611

>  <level_0>
5875

>  <index>
5876

>  <Unnamed: 0>
5876

>  <NO.>
5888

>  <Name>
vilazodone

>  <IUPAC_name>
5-[4-[4-(5-cyano-1h-indol-3-yl)butyl]piperazin-1-yl]-1-benzofuran-2-carboxamide

>  <SMILES>
N#Cc1ccc2[nH]cc(CCCCN3CCN(c4ccc5oc(C(N)=O)cc5c4)CC3)c2c1

>  <CID>
6918314

>  <logBB>


>  <BBB+/BBB->
BBB+

>  <Inchi>
InChI=1S/C26H27N5O2/c27-16-18-4-6-23-22(13-18)19(17-29-23)3-1-2-8-30-9-11-31(12-10-30)21-5-7-24-20(14-21)15-25(33-24)26(28)32/h4-7-13-15-17-29H-1-3-8-12H2-(H2-28-32)

>  <threshold>


>  <reference>
R23|

>  <group>
C

>  <Class>
-1

>  <ABC>
26.18

>  <ABCGG>
18.17

>  <nAcid>
0

>  <nBase>
1

>  <nAromAtom>
18

>  <nAromBond>
20

>  <nAtom>
60

>  <nHeavyAtom>
33

>  <nSpiro>
0

>  <nBridgehead>
0

>  <nHetero>
7

>  <nN>
5

>  <nO>
2

>  <nF>
0

>  <BalabanJ>
0.97

>  <BertzCT>
1337.98

>  <nBonds>
64

>  <nBondsO>
37

>  <nBondsS>
42

>  <nBondsD>
1

>  <nBondsT>
1

>  <nBondsA>
20

>  <nBondsM>
22

>  <nBondsKS>
54

>  <nBondsKD>
9

>  <RNCG>
0.17

>  <RPCG>
0.11

>  <FCSP3>
0.31

>  <SZ>
39

>  <Sm>
36.76

>  <Sv>
38.53

>  <Sse>
59.96

>  <Sp>
41.03

>  <Si>
67.48

>  <MZ>
0.65

>  <Mm>
0.61

>  <Mv>
0.64

>  <Mse>
1

>  <Mp>
0.68

>  <Mi>
1.12

>  <NsCH3>
0

>  <NdCH2>
0

>  <NssCH2>
8

>  <NtCH>
0

>  <NdsCH>
0

>  <NaaCH>
8

>  <NsssCH>
0

>  <NddC>
0

>  <NtsC>
1

>  <NdssC>
1

>  <NaasC>
4

>  <NaaaC>
4

>  <NssssC>
0

>  <NsNH3>
0

>  <NsNH2>
1

>  <NssNH2>
0

>  <NdNH>
0

>  <NssNH>
0

>  <NaaNH>
1

>  <NtN>
1

>  <NsssNH>
0

>  <NdsN>
0

>  <NaaN>
0

>  <NsssN>
2

>  <NddsN>
0

>  <NaasN>
0

>  <NssssN>
0

>  <NsOH>
0

>  <NdO>
1

>  <NssO>
0

>  <NaaO>
1

>  <NsF>
0

>  <NsSiH3>
0

>  <NssSiH2>
0

>  <NsssSiH>
0

>  <NssssSi>
0

>  <NsPH2>
0

>  <NssPH>
0

>  <NsssP>
0

>  <NdsssP>
0

>  <NsssssP>
0

>  <NsSH>
0

>  <NdS>
0

>  <NssS>
0

>  <NaaS>
0

>  <NdssS>
0

>  <NddssS>
0

>  <NsCl>
0

>  <NsBr>
0

>  <NsI>
0

>  <fragCpx>
313.07

>  <fMF>
0.47

>  <nHBAcc>
5

>  <nHBDon>
2

>  <Kier1>
24.68

>  <Kier2>
11.37

>  <Lipinski>
1

>  <GhoseFilter>
1

>  <FilterItLogS>
-6.44

>  <VMcGowan>
337.24

>  <LabuteASA>
191.91

>  <PEOE_VSA1>
20.03

>  <PEOE_VSA2>
9.69

>  <PEOE_VSA3>
0

>  <PEOE_VSA4>
5.26

>  <PEOE_VSA5>
0

>  <PEOE_VSA6>
0

>  <PEOE_VSA7>
73.84

>  <PEOE_VSA8>
54.35

>  <PEOE_VSA9>
11.63

>  <PEOE_VSA10>
5.58

>  <PEOE_VSA11>
5.76

>  <PEOE_VSA12>
0

>  <PEOE_VSA13>
5.91

>  <SMR_VSA1>
9.21

>  <SMR_VSA2>
5.26

>  <SMR_VSA3>
9.88

>  <SMR_VSA4>
5.73

>  <SMR_VSA5>
19.26

>  <SMR_VSA6>
37.62

>  <SMR_VSA7>
65.55

>  <SMR_VSA8>
0

>  <SMR_VSA9>
6.07

>  <SlogP_VSA1>
10.63

>  <SlogP_VSA2>
48.51

>  <SlogP_VSA3>
6.42

>  <SlogP_VSA4>
11.33

>  <SlogP_VSA5>
34.52

>  <SlogP_VSA6>
53.08

>  <SlogP_VSA7>
0

>  <SlogP_VSA8>
21.87

>  <SlogP_VSA9>
0

>  <SlogP_VSA10>
5.69

>  <SlogP_VSA11>
0

>  <EState_VSA1>
5.91

>  <EState_VSA2>
5.76

>  <EState_VSA3>
11.15

>  <EState_VSA4>
68.58

>  <EState_VSA5>
10.95

>  <EState_VSA6>
6.07

>  <EState_VSA7>
30.33

>  <EState_VSA8>
33.12

>  <EState_VSA9>
15.41

>  <EState_VSA10>
4.79

>  <VSA_EState1>
5.49

>  <VSA_EState2>
19.57

>  <VSA_EState3>
11.22

>  <VSA_EState4>
10.26

>  <VSA_EState5>
-0.34

>  <VSA_EState6>
15.79

>  <VSA_EState7>
5.38

>  <VSA_EState8>
5.13

>  <VSA_EState9>
0

>  <apol>
68.53

>  <bpol>
33.68

>  <nRing>
5

>  <nHRing>
3

>  <naRing>
4

>  <naHRing>
2

>  <nARing 2>
1

>  <nAHRing 2>
1

>  <nFRing>
2

>  <nFHRing>
2

>  <nFaRing>
2

>  <nFaHRing>
2

>  <nFARing 2>
0

>  <nFAHRing 2>
0

>  <nRot>
7

>  <SLogP>
4.03

>  <SMR>
129.34

>  <TopoPSA(NO)>
102.29

>  <TopoPSA>
102.29

>  <JGI1>
0.18

>  <JGI2>
0.07

>  <JGI3>
0.04

>  <JGI4>
0.04

>  <JGI5>
0.02

>  <Diameter>
20

>  <Radius>
10

>  <TMWC10>
148.24

>  <TSRW10>
85.27

>  <MW>
441.22

>  <AMW>
7.35

>  <WPath>
4058

>  <WPol>
51

>  <Zagreb1>
178

>  <Zagreb2>
211

>  <mZagreb2>
7.22

>  <yes>


>  <nAR-cont>
0.816016

>  <nHA-cont>
0.61399562

>  <MWHBN>
0.33325022

>  <MWHBN-cont>
0.731379028

>  <TPSA-cont>
0.285952282

>  <pka_cont>
0.97

>  <yes.1>


>  <BBB_SCORE>
3.583984726

>  <MMFF94 Energy>
95.92

$$$$
Compound 2849
Actelion Java MolfileCreator 2.0

  0  0  0  0  0  0              0 V3000
M  V30 BEGIN CTAB
M  V30 COUNTS 26 27 0 0 0
M  V30 BEGIN ATOM
M  V30 1 N 2.8231 1.2539 -1.8029 0
M  V30 2 C 2.438 0.118 -1.3317 0
M  V30 3 N 1.1796 -0.1034 -0.8559 0
M  V30 4 N 3.2919 -0.9169 -1.2586 0
M  V30 5 C 0.3022 1.0545 -0.6292 0
M  V30 6 C 0.4771 -1.3811 -0.9568 0
M  V30 7 C -0.8574 0.7588 0.3063 0
M  V30 8 C -0.2382 -1.6836 0.3582 0
M  V30 9 C -1.1321 -0.542 0.7657 0
M  V30 10 C -1.692 1.8138 0.7096 0
M  V30 11 C -2.2061 -0.7635 1.6387 0
M  V30 12 C -2.7679 1.5827 1.5674 0
M  V30 13 C -3.0226 0.2955 2.0336 0
M  V30 14 H 3.7991 1.1828 -2.0884 0
M  V30 15 H 4.2417 -0.8295 -1.5842 0
M  V30 16 H 3.1029 -1.6665 -0.6116 0
M  V30 17 H 0.8808 1.8741 -0.1844 0
M  V30 18 H -0.1011 1.393 -1.5915 0
M  V30 19 H -0.2453 -1.3276 -1.7821 0
M  V30 20 H 1.1466 -2.2147 -1.1928 0
M  V30 21 H 0.4961 -1.8507 1.1557 0
M  V30 22 H -0.8271 -2.6006 0.2403 0
M  V30 23 H -1.5009 2.8258 0.358 0
M  V30 24 H -2.4122 -1.7628 2.0146 0
M  V30 25 H -3.4039 2.4086 1.8753 0
M  V30 26 H -3.8564 0.117 2.7075 0
M  V30 END ATOM
M  V30 BEGIN BOND
M  V30 1 2 1 2
M  V30 2 1 2 3
M  V30 3 1 2 4
M  V30 4 1 3 5
M  V30 5 1 3 6
M  V30 6 1 5 7
M  V30 7 1 6 8
M  V30 8 2 7 9
M  V30 9 1 7 10
M  V30 10 1 9 11
M  V30 11 2 10 12
M  V30 12 2 11 13
M  V30 13 1 8 9
M  V30 14 1 12 13
M  V30 15 1 1 14
M  V30 16 1 4 15
M  V30 17 1 4 16
M  V30 18 1 5 17
M  V30 19 1 5 18
M  V30 20 1 6 19
M  V30 21 1 6 20
M  V30 22 1 8 21
M  V30 23 1 8 22
M  V30 24 1 10 23
M  V30 25 1 11 24
M  V30 26 1 12 25
M  V30 27 1 13 26
M  V30 END BOND
M  V30 END CTAB
M  END
>  <Column 1>
3613

>  <level_0>
5877

>  <index>
5878

>  <Unnamed: 0>
5878

>  <NO.>
5890

>  <Name>
debrisoquine

>  <IUPAC_name>
3-4-dihydro-1h-isoquinoline-2-carboximidamide

>  <SMILES>
N=C(N)N1CCc2ccccc2C1

>  <CID>
2966

>  <logBB>


>  <BBB+/BBB->
BBB-

>  <Inchi>
InChI=1S/C10H13N3/c11-10(12)13-6-5-8-3-1-2-4-9(8)7-13/h1-4H-5-7H2-(H3-11-12)

>  <threshold>


>  <reference>
R23|

>  <group>
C

>  <Class>
-1

>  <ABC>
10.04

>  <ABCGG>
8.56

>  <nAcid>
0

>  <nBase>
3

>  <nAromAtom>
6

>  <nAromBond>
6

>  <nAtom>
26

>  <nHeavyAtom>
13

>  <nSpiro>
0

>  <nBridgehead>
0

>  <nHetero>
3

>  <nN>
3

>  <nO>
0

>  <nF>
0

>  <BalabanJ>
1.91

>  <BertzCT>
332.7

>  <nBonds>
27

>  <nBondsO>
14

>  <nBondsS>
20

>  <nBondsD>
1

>  <nBondsT>
0

>  <nBondsA>
6

>  <nBondsM>
7

>  <nBondsKS>
23

>  <nBondsKD>
4

>  <RNCG>
0.29

>  <RPCG>
0.15

>  <FCSP3>
0.3

>  <SZ>
15.67

>  <Sm>
14.59

>  <Sv>
15.8

>  <Sse>
25.76

>  <Sp>
17.17

>  <Si>
29.57

>  <MZ>
0.6

>  <Mm>
0.56

>  <Mv>
0.61

>  <Mse>
0.99

>  <Mp>
0.66

>  <Mi>
1.14

>  <NsCH3>
0

>  <NdCH2>
0

>  <NssCH2>
3

>  <NtCH>
0

>  <NdsCH>
0

>  <NaaCH>
4

>  <NsssCH>
0

>  <NddC>
0

>  <NtsC>
0

>  <NdssC>
1

>  <NaasC>
2

>  <NaaaC>
0

>  <NssssC>
0

>  <NsNH3>
0

>  <NsNH2>
1

>  <NssNH2>
0

>  <NdNH>
1

>  <NssNH>
0

>  <NaaNH>
0

>  <NtN>
0

>  <NsssNH>
0

>  <NdsN>
0

>  <NaaN>
0

>  <NsssN>
1

>  <NddsN>
0

>  <NaasN>
0

>  <NssssN>
0

>  <NsOH>
0

>  <NdO>
0

>  <NssO>
0

>  <NaaO>
0

>  <NsF>
0

>  <NsSiH3>
0

>  <NssSiH2>
0

>  <NsssSiH>
0

>  <NssssSi>
0

>  <NsPH2>
0

>  <NssPH>
0

>  <NsssP>
0

>  <NdsssP>
0

>  <NsssssP>
0

>  <NsSH>
0

>  <NdS>
0

>  <NssS>
0

>  <NaaS>
0

>  <NdssS>
0

>  <NddssS>
0

>  <NsCl>
0

>  <NsBr>
0

>  <NsI>
0

>  <fragCpx>
40.03

>  <fMF>
0.38

>  <nHBAcc>
1

>  <nHBDon>
2

>  <Kier1>
9.55

>  <Kier2>
4.02

>  <Lipinski>
1

>  <GhoseFilter>
1

>  <FilterItLogS>
-1.69

>  <VMcGowan>
142.78

>  <LabuteASA>
77.67

>  <PEOE_VSA1>
10.63

>  <PEOE_VSA2>
5.41

>  <PEOE_VSA3>
0

>  <PEOE_VSA4>
0

>  <PEOE_VSA5>
0

>  <PEOE_VSA6>
24.27

>  <PEOE_VSA7>
17.55

>  <PEOE_VSA8>
13.09

>  <PEOE_VSA9>
0

>  <PEOE_VSA10>
0

>  <PEOE_VSA11>
5.96

>  <PEOE_VSA12>
0

>  <PEOE_VSA13>
0

>  <SMR_VSA1>
0

>  <SMR_VSA2>
5.41

>  <SMR_VSA3>
4.9

>  <SMR_VSA4>
5.73

>  <SMR_VSA5>
12.97

>  <SMR_VSA6>
6.54

>  <SMR_VSA7>
35.39

>  <SMR_VSA8>
0

>  <SMR_VSA9>
0

>  <SlogP_VSA1>
5.73

>  <SlogP_VSA2>
17.4

>  <SlogP_VSA3>
12.97

>  <SlogP_VSA4>
5.41

>  <SlogP_VSA5>
11.13

>  <SlogP_VSA6>
24.27

>  <SlogP_VSA7>
0

>  <SlogP_VSA8>
0

>  <SlogP_VSA9>
0

>  <SlogP_VSA10>
0

>  <SlogP_VSA11>
0

>  <EState_VSA1>
0

>  <EState_VSA2>
5.96

>  <EState_VSA3>
0

>  <EState_VSA4>
19.51

>  <EState_VSA5>
11.13

>  <EState_VSA6>
0

>  <EState_VSA7>
10.97

>  <EState_VSA8>
18.2

>  <EState_VSA9>
11.14

>  <EState_VSA10>
0

>  <VSA_EState1>
0

>  <VSA_EState2>
1.89

>  <VSA_EState3>
7.33

>  <VSA_EState4>
8.12

>  <VSA_EState5>
0.18

>  <VSA_EState6>
8.34

>  <VSA_EState7>
1

>  <VSA_EState8>
1.65

>  <VSA_EState9>
0

>  <apol>
28.67

>  <bpol>
14.18

>  <nRing>
2

>  <nHRing>
1

>  <naRing>
1

>  <naHRing>
0

>  <nARing 2>
1

>  <nAHRing 2>
1

>  <nFRing>
1

>  <nFHRing>
1

>  <nFaRing>
0

>  <nFaHRing>
0

>  <nFARing 2>
1

>  <nFAHRing 2>
1

>  <nRot>
0

>  <SLogP>
0.94

>  <SMR>
52.47

>  <TopoPSA(NO)>
53.11

>  <TopoPSA>
53.11

>  <JGI1>
0.18

>  <JGI2>
0.08

>  <JGI3>
0.03

>  <JGI4>
0.06

>  <JGI5>
0.04

>  <Diameter>
7

>  <Radius>
4

>  <TMWC10>
95.36

>  <TSRW10>
44.35

>  <MW>
175.11

>  <AMW>
6.74

>  <WPath>
238

>  <WPol>
18

>  <Zagreb1>
66

>  <Zagreb2>
76

>  <mZagreb2>
2.89

>  <yes>


>  <nAR-cont>
0.816016

>  <nHA-cont>
0.841215992

>  <MWHBN>
0.226707444

>  <MWHBN-cont>
0.989877252

>  <TPSA-cont>
0.629259221

>  <pka_cont>
0.97

>  <yes.1>


>  <BBB_SCORE>
4.885566312

>  <MMFF94 Energy>
-99.495

$$$$
Compound 2850
Actelion Java MolfileCreator 2.0

  0  0  0  0  0  0              0 V3000
M  V30 BEGIN CTAB
M  V30 COUNTS 37 38 0 0 0
M  V30 BEGIN ATOM
M  V30 1 O 0.6258 0.1564 -2.7405 0
M  V30 2 C -0.6411 -0.3433 -2.5961 0
M  V30 3 C -1.2656 -0.309 -1.3376 0
M  V30 4 C -1.2961 -0.8719 -3.7103 0
M  V30 5 C -2.5749 -0.8012 -1.224 0
M  V30 6 C -0.6461 0.2555 -0.128 0
M  V30 7 C -2.5956 -1.3683 -3.5732 0
M  V30 8 C -3.2365 -1.3359 -2.3327 0
M  V30 9 C 0.5793 -0.0871 0.2992 0
M  V30 10 C -3.2957 -1.9411 -4.7503 0
M  V30 11 C 1.2119 0.4651 1.5039 0
M  V30 12 N -3.2326 -1.3936 -5.9216 0
M  V30 13 N -4.026 -3.0745 -4.625 0
M  V30 14 C 0.4974 0.6853 2.6895 0
M  V30 15 C 2.5879 0.7295 1.4823 0
M  V30 16 C 1.1406 1.1864 3.8257 0
M  V30 17 C 3.2363 1.229 2.6159 0
M  V30 18 C 2.5101 1.4619 3.7864 0
M  V30 19 C 3.1989 1.9868 4.994 0
M  V30 20 N 2.6542 2.8687 5.7705 0
M  V30 21 N 4.4363 1.5444 5.3227 0
M  V30 22 H 0.8893 0.1057 -3.6733 0
M  V30 23 H -0.8005 -0.9211 -4.6748 0
M  V30 24 H -3.0888 -0.7755 -0.265 0
M  V30 25 H -1.2539 0.9723 0.4171 0
M  V30 26 H -4.2542 -1.7015 -2.2251 0
M  V30 27 H 1.1803 -0.7936 -0.2691 0
M  V30 28 H -2.6949 -0.5229 -5.8959 0
M  V30 29 H -4.0569 -3.6295 -3.7828 0
M  V30 30 H -4.4724 -3.4301 -5.4609 0
M  V30 31 H -0.5636 0.4547 2.7465 0
M  V30 32 H 3.1633 0.5628 0.5739 0
M  V30 33 H 0.5728 1.3305 4.7412 0
M  V30 34 H 4.2981 1.454 2.5689 0
M  V30 35 H 1.7411 3.1603 5.4102 0
M  V30 36 H 4.8999 0.7839 4.8491 0
M  V30 37 H 4.8514 1.924 6.1639 0
M  V30 END ATOM
M  V30 BEGIN BOND
M  V30 1 1 1 2
M  V30 2 2 2 3
M  V30 3 1 2 4
M  V30 4 1 3 5
M  V30 5 1 3 6
M  V30 6 2 4 7
M  V30 7 2 5 8
M  V30 8 2 6 9
M  V30 9 1 7 10
M  V30 10 1 9 11
M  V30 11 2 10 12
M  V30 12 1 10 13
M  V30 13 2 11 14
M  V30 14 1 11 15
M  V30 15 1 14 16
M  V30 16 2 15 17
M  V30 17 2 16 18
M  V30 18 1 18 19
M  V30 19 2 19 20
M  V30 20 1 19 21
M  V30 21 1 7 8
M  V30 22 1 17 18
M  V30 23 1 1 22
M  V30 24 1 4 23
M  V30 25 1 5 24
M  V30 26 1 6 25
M  V30 27 1 8 26
M  V30 28 1 9 27
M  V30 29 1 12 28
M  V30 30 1 13 29
M  V30 31 1 13 30
M  V30 32 1 14 31
M  V30 33 1 15 32
M  V30 34 1 16 33
M  V30 35 1 17 34
M  V30 36 1 20 35
M  V30 37 1 21 36
M  V30 38 1 21 37
M  V30 END BOND
M  V30 END CTAB
M  END
>  <Column 1>
3614

>  <level_0>
5878

>  <index>
5879

>  <Unnamed: 0>
5879

>  <NO.>
5891

>  <Name>
hidroxiestilbamidina

>  <IUPAC_name>
4-[2-(4-carbamimidoylphenyl)ethenyl]-3-hydroxybenzenecarboximidamide

>  <SMILES>
N=C(N)c1ccc(C=Cc2ccc(C(=N)N)cc2O)cc1

>  <CID>
3654

>  <logBB>


>  <BBB+/BBB->
BBB-

>  <Inchi>
InChI=1S/C16H16N4O/c17-15(18)12-5-2-10(3-6-12)1-4-11-7-8-13(16(19)20)9-14(11)21/h1-9-21H-(H3-17-18)(H3-19-20)

>  <threshold>


>  <reference>
R23|

>  <group>
C

>  <Class>
-1

>  <ABC>
15.98

>  <ABCGG>
12.79

>  <nAcid>
0

>  <nBase>
4

>  <nAromAtom>
12

>  <nAromBond>
12

>  <nAtom>
37

>  <nHeavyAtom>
21

>  <nSpiro>
0

>  <nBridgehead>
0

>  <nHetero>
5

>  <nN>
4

>  <nO>
1

>  <nF>
0

>  <BalabanJ>
1.67

>  <BertzCT>
717.56

>  <nBonds>
38

>  <nBondsO>
22

>  <nBondsS>
23

>  <nBondsD>
3

>  <nBondsT>
0

>  <nBondsA>
12

>  <nBondsM>
15

>  <nBondsKS>
29

>  <nBondsKD>
9

>  <RNCG>
0.22

>  <RPCG>
0.13

>  <FCSP3>
0

>  <SZ>
24.67

>  <Sm>
23.34

>  <Sv>
24.08

>  <Sse>
37.09

>  <Sp>
25.5

>  <Si>
41.69

>  <MZ>
0.67

>  <Mm>
0.63

>  <Mv>
0.65

>  <Mse>
1

>  <Mp>
0.69

>  <Mi>
1.13

>  <NsCH3>
0

>  <NdCH2>
0

>  <NssCH2>
0

>  <NtCH>
0

>  <NdsCH>
2

>  <NaaCH>
7

>  <NsssCH>
0

>  <NddC>
0

>  <NtsC>
0

>  <NdssC>
2

>  <NaasC>
5

>  <NaaaC>
0

>  <NssssC>
0

>  <NsNH3>
0

>  <NsNH2>
2

>  <NssNH2>
0

>  <NdNH>
2

>  <NssNH>
0

>  <NaaNH>
0

>  <NtN>
0

>  <NsssNH>
0

>  <NdsN>
0

>  <NaaN>
0

>  <NsssN>
0

>  <NddsN>
0

>  <NaasN>
0

>  <NssssN>
0

>  <NsOH>
1

>  <NdO>
0

>  <NssO>
0

>  <NaaO>
0

>  <NsF>
0

>  <NsSiH3>
0

>  <NssSiH2>
0

>  <NsssSiH>
0

>  <NssssSi>
0

>  <NsPH2>
0

>  <NssPH>
0

>  <NsssP>
0

>  <NdsssP>
0

>  <NsssssP>
0

>  <NsSH>
0

>  <NdS>
0

>  <NssS>
0

>  <NaaS>
0

>  <NdssS>
0

>  <NddssS>
0

>  <NsCl>
0

>  <NsBr>
0

>  <NsI>
0

>  <fragCpx>
64.05

>  <fMF>
0.38

>  <nHBAcc>
3

>  <nHBDon>
5

>  <Kier1>
17.36

>  <Kier2>
8.02

>  <Lipinski>
1

>  <GhoseFilter>
1

>  <FilterItLogS>
-2.84

>  <VMcGowan>
221.67

>  <LabuteASA>
122.1

>  <PEOE_VSA1>
16.57

>  <PEOE_VSA2>
10.82

>  <PEOE_VSA3>
0

>  <PEOE_VSA4>
0

>  <PEOE_VSA5>
0

>  <PEOE_VSA6>
48.55

>  <PEOE_VSA7>
11.63

>  <PEOE_VSA8>
16.69

>  <PEOE_VSA9>
0

>  <PEOE_VSA10>
17.42

>  <PEOE_VSA11>
0

>  <PEOE_VSA12>
0

>  <PEOE_VSA13>
0

>  <SMR_VSA1>
5.11

>  <SMR_VSA2>
10.82

>  <SMR_VSA3>
0

>  <SMR_VSA4>
11.47

>  <SMR_VSA5>
0

>  <SMR_VSA6>
0

>  <SMR_VSA7>
64.72

>  <SMR_VSA8>
0

>  <SMR_VSA9>
5.75

>  <SlogP_VSA1>
11.47

>  <SlogP_VSA2>
16.78

>  <SlogP_VSA3>
0

>  <SlogP_VSA4>
10.82

>  <SlogP_VSA5>
22.25

>  <SlogP_VSA6>
42.46

>  <SlogP_VSA7>
0

>  <SlogP_VSA8>
12.15

>  <SlogP_VSA9>
0

>  <SlogP_VSA10>
0

>  <SlogP_VSA11>
5.75

>  <EState_VSA1>
0

>  <EState_VSA2>
17.42

>  <EState_VSA3>
16.69

>  <EState_VSA4>
5.56

>  <EState_VSA5>
6.07

>  <EState_VSA6>
30.34

>  <EState_VSA7>
18.21

>  <EState_VSA8>
0

>  <EState_VSA9>
22.29

>  <EState_VSA10>
5.11

>  <VSA_EState1>
0

>  <VSA_EState2>
0

>  <VSA_EState3>
24.53

>  <VSA_EState4>
13.47

>  <VSA_EState5>
0.02

>  <VSA_EState6>
12.05

>  <VSA_EState7>
3.61

>  <VSA_EState8>
0

>  <VSA_EState9>
0

>  <apol>
42.59

>  <bpol>
14.91

>  <nRing>
2

>  <nHRing>
0

>  <naRing>
2

>  <naHRing>
0

>  <nARing 2>
0

>  <nAHRing 2>
0

>  <nFRing>
0

>  <nFHRing>
0

>  <nFaRing>
0

>  <nFaHRing>
0

>  <nFARing 2>
0

>  <nFAHRing 2>
0

>  <nRot>
4

>  <SLogP>
2.13

>  <SMR>
85.51

>  <TopoPSA(NO)>
119.97

>  <TopoPSA>
119.97

>  <JGI1>
0.23

>  <JGI2>
0.1

>  <JGI3>
0.04

>  <JGI4>
0.05

>  <JGI5>
0.04

>  <Diameter>
13

>  <Radius>
7

>  <TMWC10>
114.92

>  <TSRW10>
54.42

>  <MW>
280.13

>  <AMW>
7.57

>  <WPath>
1084

>  <WPol>
30

>  <Zagreb1>
104

>  <Zagreb2>
118

>  <mZagreb2>
4.67

>  <yes>


>  <nAR-cont>
0.336376

>  <nHA-cont>
0.994529749

>  <MWHBN>
0.477980497

>  <MWHBN-cont>
0

>  <TPSA-cont>
0.162534903

>  <pka_cont>
0.97

>  <yes.1>


>  <BBB_SCORE>
2.140975556

>  <MMFF94 Energy>
-23.9

$$$$
Compound 2851
Actelion Java MolfileCreator 2.0

  0  0  0  0  0  0              0 V3000
M  V30 BEGIN CTAB
M  V30 COUNTS 64 65 0 0 0
M  V30 BEGIN ATOM
M  V30 1 Cl -2.4343 0.9417 5.5034 0
M  V30 2 C -2.7411 1.4004 3.8753 0
M  V30 3 C -3.0639 0.4338 2.9302 0
M  V30 4 C -2.6536 2.7376 3.5037 0
M  V30 5 C -3.2995 0.8095 1.6025 0
M  V30 6 C -2.8897 3.1052 2.1744 0
M  V30 7 C -3.2141 2.1474 1.1983 0
M  V30 8 N -3.4288 2.5764 -0.1226 0
M  V30 9 C -3.9463 1.8854 -1.185 0
M  V30 10 N -4.7018 0.8378 -1.0903 0
M  V30 11 N -3.5577 2.4803 -2.3474 0
M  V30 12 C -5.1155 0.2276 -2.2324 0
M  V30 13 N -4.4857 -0.7736 -2.7501 0
M  V30 14 N -6.2351 0.6737 -2.8359 0
M  V30 15 C -3.3197 -1.2597 -2.0075 0
M  V30 16 C -2.6372 -2.3666 -2.8103 0
M  V30 17 C -1.5665 -3.1141 -2.006 0
M  V30 18 C -0.4806 -2.1981 -1.4361 0
M  V30 19 C 0.5713 -2.9864 -0.6495 0
M  V30 20 C 1.5976 -2.0655 0.0164 0
M  V30 21 N 0.9171 -1.2734 1.0409 0
M  V30 22 C 1.5355 -0.2581 1.5364 0
M  V30 23 N 2.8088 0.0668 1.1963 0
M  V30 24 N 0.8885 0.5282 2.4183 0
M  V30 25 C 3.7863 -0.4613 1.8611 0
M  V30 26 N 5.1132 -0.2034 1.6414 0
M  V30 27 N 3.6527 -1.3317 2.9005 0
M  V30 28 C 5.7336 0.4423 0.557 0
M  V30 29 C 5.0875 0.7313 -0.651 0
M  V30 30 C 7.0809 0.8243 0.6845 0
M  V30 31 C 5.7563 1.3801 -1.6962 0
M  V30 32 C 7.7554 1.4735 -0.3553 0
M  V30 33 C 7.0877 1.7494 -1.5432 0
M  V30 34 Cl 7.9113 2.547 -2.8248 0
M  V30 35 H -3.1349 -0.6144 3.2081 0
M  V30 36 H -2.4058 3.4992 4.2379 0
M  V30 37 H -3.538 0.0272 0.8871 0
M  V30 38 H -2.8201 4.1573 1.9085 0
M  V30 39 H -3.206 3.5436 -0.2976 0
M  V30 40 H -2.7061 3.0204 -2.3825 0
M  V30 41 H -3.8476 2.0579 -3.2224 0
M  V30 42 H -6.8088 1.3514 -2.3607 0
M  V30 43 H -6.5984 0.14 -3.6097 0
M  V30 44 H -2.6013 -0.4485 -1.8486 0
M  V30 45 H -3.6365 -1.6577 -1.036 0
M  V30 46 H -2.1889 -1.9369 -3.7146 0
M  V30 47 H -3.3864 -3.0922 -3.1509 0
M  V30 48 H -1.1056 -3.8694 -2.6538 0
M  V30 49 H -2.0518 -3.6562 -1.1848 0
M  V30 50 H -0.9383 -1.4581 -0.7715 0
M  V30 51 H 0.0039 -1.6473 -2.2509 0
M  V30 52 H 0.0784 -3.5979 0.1163 0
M  V30 53 H 1.0924 -3.6724 -1.3275 0
M  V30 54 H 2.0627 -1.4322 -0.7483 0
M  V30 55 H 2.3734 -2.6857 0.4789 0
M  V30 56 H -0.0934 0.3603 2.575 0
M  V30 57 H 1.3178 1.3871 2.72 0
M  V30 58 H 5.7322 -0.4262 2.4047 0
M  V30 59 H 4.4014 -1.954 3.1624 0
M  V30 60 H 2.7181 -1.6285 3.1612 0
M  V30 61 H 4.0507 0.4481 -0.8102 0
M  V30 62 H 7.6237 0.6247 1.6054 0
M  V30 63 H 5.2263 1.5888 -2.6214 0
M  V30 64 H 8.7957 1.7598 -0.2285 0
M  V30 END ATOM
M  V30 BEGIN BOND
M  V30 1 1 1 2
M  V30 2 2 2 3
M  V30 3 1 2 4
M  V30 4 1 3 5
M  V30 5 2 4 6
M  V30 6 2 5 7
M  V30 7 1 7 8
M  V30 8 1 8 9
M  V30 9 2 9 10
M  V30 10 1 9 11
M  V30 11 1 10 12
M  V30 12 2 12 13
M  V30 13 1 12 14
M  V30 14 1 13 15
M  V30 15 1 15 16
M  V30 16 1 16 17
M  V30 17 1 17 18
M  V30 18 1 18 19
M  V30 19 1 19 20
M  V30 20 1 20 21
M  V30 21 2 21 22
M  V30 22 1 22 23
M  V30 23 1 22 24
M  V30 24 2 23 25
M  V30 25 1 25 26
M  V30 26 1 25 27
M  V30 27 1 26 28
M  V30 28 2 28 29
M  V30 29 1 28 30
M  V30 30 1 29 31
M  V30 31 2 30 32
M  V30 32 2 31 33
M  V30 33 1 33 34
M  V30 34 1 6 7
M  V30 35 1 32 33
M  V30 36 1 3 35
M  V30 37 1 4 36
M  V30 38 1 5 37
M  V30 39 1 6 38
M  V30 40 1 8 39
M  V30 41 1 11 40
M  V30 42 1 11 41
M  V30 43 1 14 42
M  V30 44 1 14 43
M  V30 45 1 15 44
M  V30 46 1 15 45
M  V30 47 1 16 46
M  V30 48 1 16 47
M  V30 49 1 17 48
M  V30 50 1 17 49
M  V30 51 1 18 50
M  V30 52 1 18 51
M  V30 53 1 19 52
M  V30 54 1 19 53
M  V30 55 1 20 54
M  V30 56 1 20 55
M  V30 57 1 24 56
M  V30 58 1 24 57
M  V30 59 1 26 58
M  V30 60 1 27 59
M  V30 61 1 27 60
M  V30 62 1 29 61
M  V30 63 1 30 62
M  V30 64 1 31 63
M  V30 65 1 32 64
M  V30 END BOND
M  V30 END CTAB
M  END
>  <Column 1>
3615

>  <level_0>
5879

>  <index>
5880

>  <Unnamed: 0>
5880

>  <NO.>
5892

>  <Name>
chlorhexidine base

>  <IUPAC_name>
2-[6-[[amino-[[amino-(4-chloroanilino)methylidene]amino]methylidene]amino]hexyl]-1-[amino-(4-chloroanilino)methylidene]guanidine

>  <SMILES>
NC(=NCCCCCCN=C(N)N=C(N)Nc1ccc(Cl)cc1)N=C(N)Nc1ccc(Cl)cc1

>  <CID>
2713

>  <logBB>


>  <BBB+/BBB->
BBB-

>  <Inchi>
InChI=1S/C22H30Cl2N10/c23-15-5-9-17(10-6-15)31-21(27)33-19(25)29-13-3-1-2-4-14-30-20(26)34-22(28)32-18-11-7-16(24)8-12-18/h5-12H-1-4-13-14H2-(H5-25-27-29-31-33)(H5-26-28-30-32-34)

>  <threshold>


>  <reference>
R23|

>  <group>
C

>  <Class>
-1

>  <ABC>
25.41

>  <ABCGG>
18.18

>  <nAcid>
0

>  <nBase>
10

>  <nAromAtom>
12

>  <nAromBond>
12

>  <nAtom>
64

>  <nHeavyAtom>
34

>  <nSpiro>
0

>  <nBridgehead>
0

>  <nHetero>
12

>  <nN>
10

>  <nO>
0

>  <nF>
0

>  <BalabanJ>
1.38

>  <BertzCT>
931.49

>  <nBonds>
65

>  <nBondsO>
35

>  <nBondsS>
49

>  <nBondsD>
4

>  <nBondsT>
0

>  <nBondsA>
12

>  <nBondsM>
16

>  <nBondsKS>
55

>  <nBondsKD>
10

>  <RNCG>
0.1

>  <RPCG>
0.06

>  <FCSP3>
0.27

>  <SZ>
44.33

>  <Sm>
42.08

>  <Sv>
39.89

>  <Sse>
64.48

>  <Sp>
43.18

>  <Si>
73.44

>  <MZ>
0.69

>  <Mm>
0.66

>  <Mv>
0.62

>  <Mse>
1.01

>  <Mp>
0.67

>  <Mi>
1.15

>  <NsCH3>
0

>  <NdCH2>
0

>  <NssCH2>
6

>  <NtCH>
0

>  <NdsCH>
0

>  <NaaCH>
8

>  <NsssCH>
0

>  <NddC>
0

>  <NtsC>
0

>  <NdssC>
4

>  <NaasC>
4

>  <NaaaC>
0

>  <NssssC>
0

>  <NsNH3>
0

>  <NsNH2>
4

>  <NssNH2>
0

>  <NdNH>
0

>  <NssNH>
2

>  <NaaNH>
0

>  <NtN>
0

>  <NsssNH>
0

>  <NdsN>
4

>  <NaaN>
0

>  <NsssN>
0

>  <NddsN>
0

>  <NaasN>
0

>  <NssssN>
0

>  <NsOH>
0

>  <NdO>
0

>  <NssO>
0

>  <NaaO>
0

>  <NsF>
0

>  <NsSiH3>
0

>  <NssSiH2>
0

>  <NsssSiH>
0

>  <NssssSi>
0

>  <NsPH2>
0

>  <NssPH>
0

>  <NsssP>
0

>  <NdsssP>
0

>  <NsssssP>
0

>  <NsSH>
0

>  <NdS>
0

>  <NssS>
0

>  <NaaS>
0

>  <NdssS>
0

>  <NddssS>
0

>  <NsCl>
2

>  <NsBr>
0

>  <NsI>
0

>  <fragCpx>
103.12

>  <fMF>
0.44

>  <nHBAcc>
2

>  <nHBDon>
6

>  <Kier1>
30.23

>  <Kier2>
17.45

>  <Lipinski>
0

>  <GhoseFilter>
0

>  <FilterItLogS>
-6.22

>  <VMcGowan>
380.4

>  <LabuteASA>
208.79

>  <PEOE_VSA1>
33.57

>  <PEOE_VSA2>
9.98

>  <PEOE_VSA3>
0

>  <PEOE_VSA4>
9.98

>  <PEOE_VSA5>
0

>  <PEOE_VSA6>
36.04

>  <PEOE_VSA7>
61.37

>  <PEOE_VSA8>
34.51

>  <PEOE_VSA9>
0

>  <PEOE_VSA10>
0

>  <PEOE_VSA11>
0

>  <PEOE_VSA12>
23.84

>  <PEOE_VSA13>
0

>  <SMR_VSA1>
0

>  <SMR_VSA2>
0

>  <SMR_VSA3>
0

>  <SMR_VSA4>
42.9

>  <SMR_VSA5>
25.68

>  <SMR_VSA6>
23.72

>  <SMR_VSA7>
58.58

>  <SMR_VSA8>
0

>  <SMR_VSA9>
0

>  <SlogP_VSA1>
33.57

>  <SlogP_VSA2>
36.93

>  <SlogP_VSA3>
0

>  <SlogP_VSA4>
0

>  <SlogP_VSA5>
25.68

>  <SlogP_VSA6>
68.5

>  <SlogP_VSA7>
10.05

>  <SlogP_VSA8>
0

>  <SlogP_VSA9>
0

>  <SlogP_VSA10>
11.37

>  <SlogP_VSA11>
0

>  <EState_VSA1>
0

>  <EState_VSA2>
23.84

>  <EState_VSA3>
23.13

>  <EState_VSA4>
37.06

>  <EState_VSA5>
0

>  <EState_VSA6>
48.53

>  <EState_VSA7>
0

>  <EState_VSA8>
30.6

>  <EState_VSA9>
46.14

>  <EState_VSA10>
0

>  <VSA_EState1>
0

>  <VSA_EState2>
16.48

>  <VSA_EState3>
7.11

>  <VSA_EState4>
24.76

>  <VSA_EState5>
0.56

>  <VSA_EState6>
14.14

>  <VSA_EState7>
3.68

>  <VSA_EState8>
1.12

>  <VSA_EState9>
0

>  <apol>
72.1

>  <bpol>
34.54

>  <nRing>
2

>  <nHRing>
0

>  <naRing>
2

>  <naHRing>
0

>  <nARing 2>
0

>  <nAHRing 2>
0

>  <nFRing>
0

>  <nFHRing>
0

>  <nFaRing>
0

>  <nFaHRing>
0

>  <nFARing 2>
0

>  <nFAHRing 2>
0

>  <nRot>
9

>  <SLogP>
3.34

>  <SMR>
144.84

>  <TopoPSA(NO)>
177.58

>  <TopoPSA>
177.58

>  <JGI1>
0.21

>  <JGI2>
0.06

>  <JGI3>
0.05

>  <JGI4>
0.03

>  <JGI5>
0.02

>  <Diameter>
25

>  <Radius>
13

>  <TMWC10>
143.05

>  <TSRW10>
68.95

>  <MW>
504.2

>  <AMW>
7.88

>  <WPath>
5239

>  <WPol>
41

>  <Zagreb1>
158

>  <Zagreb2>
170

>  <mZagreb2>
7.75

>  <yes>


>  <nAR-cont>
0.336376

>  <nHA-cont>
0.568589513

>  <MWHBN>
0.35627764

>  <MWHBN-cont>
0.646599414

>  <TPSA-cont>
0

>  <pka_cont>
0.97

>  <yes.1>


>  <BBB_SCORE>
2.359864633

>  <MMFF94 Energy>
-322.5

$$$$
Compound 2852
Actelion Java MolfileCreator 2.0

  0  0  0  0  0  0              0 V3000
M  V30 BEGIN CTAB
M  V30 COUNTS 20 20 0 0 0
M  V30 BEGIN ATOM
M  V30 1 O -3.8602 -2.5984 -2.1256 0
M  V30 2 N -3.5959 -2.0564 -1.0442 0 CHG=1
M  V30 3 O -4.3723 -1.9183 -0.0908 0 CHG=-1
M  V30 4 C -2.2673 -1.5503 -0.9 0
M  V30 5 O -1.9675 -0.9561 0.285 0
M  V30 6 C -1.1884 -1.555 -1.7486 0
M  V30 7 C -0.6614 -0.5414 0.2012 0
M  V30 8 C -0.1442 -0.9142 -1.0303 0
M  V30 9 C -0.1165 0.1101 1.3658 0
M  V30 10 N 0.906 0.9102 1.4628 0
M  V30 11 N 1.5105 1.3633 0.3255 0
M  V30 12 C 2.6875 2.0669 0.3528 0
M  V30 13 O 3.2156 2.5095 -0.6591 0
M  V30 14 N 3.2211 2.2235 1.5864 0
M  V30 15 H -1.152 -1.9783 -2.7438 0
M  V30 16 H 0.8736 -0.7717 -1.3702 0
M  V30 17 H -0.6357 -0.1202 2.3128 0
M  V30 18 H 1.0668 1.2803 -0.5797 0
M  V30 19 H 2.7065 1.8459 2.3694 0
M  V30 20 H 4.0834 2.7298 1.7079 0
M  V30 END ATOM
M  V30 BEGIN BOND
M  V30 1 2 1 2
M  V30 2 1 2 3
M  V30 3 1 2 4
M  V30 4 1 4 5
M  V30 5 2 4 6
M  V30 6 1 5 7
M  V30 7 1 6 8
M  V30 8 1 7 9
M  V30 9 2 9 10
M  V30 10 1 10 11
M  V30 11 1 11 12
M  V30 12 2 12 13
M  V30 13 1 12 14
M  V30 14 2 7 8
M  V30 15 1 6 15
M  V30 16 1 8 16
M  V30 17 1 9 17
M  V30 18 1 11 18
M  V30 19 1 14 19
M  V30 20 1 14 20
M  V30 END BOND
M  V30 END CTAB
M  END
>  <Column 1>
3616

>  <level_0>
5880

>  <index>
5881

>  <Unnamed: 0>
5881

>  <NO.>
5893

>  <Name>
(e)-2-((5-nitrofuran-2-yl)methylene)hydrazinecarboxamide

>  <IUPAC_name>
[(z)-(5-nitrofuran-2-yl)methylideneamino]urea

>  <SMILES>
NC(=O)N/N=C\c1ccc([N+](=O)[O-])o1

>  <CID>
5447130

>  <logBB>


>  <BBB+/BBB->
BBB-

>  <Inchi>
InChI=1S/C6H6N4O4/c7-6(11)9-8-3-4-1-2-5(14-4)10(12)13/h1-3H-(H3-7-9-11)/b8-3-

>  <threshold>


>  <reference>
R23|

>  <group>
C

>  <Class>
-1

>  <ABC>
10.3

>  <ABCGG>
9.6

>  <nAcid>
0

>  <nBase>
0

>  <nAromAtom>
5

>  <nAromBond>
5

>  <nAtom>
20

>  <nHeavyAtom>
14

>  <nSpiro>
0

>  <nBridgehead>
0

>  <nHetero>
8

>  <nN>
4

>  <nO>
4

>  <nF>
0

>  <BalabanJ>
2.1

>  <BertzCT>
382.94

>  <nBonds>
20

>  <nBondsO>
14

>  <nBondsS>
12

>  <nBondsD>
3

>  <nBondsT>
0

>  <nBondsA>
5

>  <nBondsM>
8

>  <nBondsKS>
15

>  <nBondsKD>
5

>  <RNCG>
0.21

>  <RPCG>
0.23

>  <FCSP3>
0

>  <SZ>
17

>  <Sm>
16.5

>  <Sv>
13.52

>  <Sse>
21.64

>  <Sp>
12.95

>  <Si>
23.25

>  <MZ>
0.85

>  <Mm>
0.82

>  <Mv>
0.68

>  <Mse>
1.08

>  <Mp>
0.65

>  <Mi>
1.16

>  <NsCH3>
0

>  <NdCH2>
0

>  <NssCH2>
0

>  <NtCH>
0

>  <NdsCH>
1

>  <NaaCH>
2

>  <NsssCH>
0

>  <NddC>
0

>  <NtsC>
0

>  <NdssC>
1

>  <NaasC>
2

>  <NaaaC>
0

>  <NssssC>
0

>  <NsNH3>
0

>  <NsNH2>
1

>  <NssNH2>
0

>  <NdNH>
0

>  <NssNH>
1

>  <NaaNH>
0

>  <NtN>
0

>  <NsssNH>
0

>  <NdsN>
1

>  <NaaN>
0

>  <NsssN>
0

>  <NddsN>
1

>  <NaasN>
0

>  <NssssN>
0

>  <NsOH>
0

>  <NdO>
2

>  <NssO>
0

>  <NaaO>
1

>  <NsF>
0

>  <NsSiH3>
0

>  <NssSiH2>
0

>  <NsssSiH>
0

>  <NssssSi>
0

>  <NsPH2>
0

>  <NssPH>
0

>  <NsssP>
0

>  <NdsssP>
0

>  <NsssssP>
0

>  <NsSH>
0

>  <NdS>
0

>  <NssS>
0

>  <NaaS>
0

>  <NdssS>
0

>  <NddssS>
0

>  <NsCl>
0

>  <NsBr>
0

>  <NsI>
0

>  <fragCpx>
14.08

>  <fMF>
0.25

>  <nHBAcc>
5

>  <nHBDon>
2

>  <Kier1>
12.07

>  <Kier2>
5.78

>  <Lipinski>
1

>  <GhoseFilter>
1

>  <FilterItLogS>
-1.06

>  <VMcGowan>
126.44

>  <LabuteASA>
77.53

>  <PEOE_VSA1>
10.15

>  <PEOE_VSA2>
10.11

>  <PEOE_VSA3>
10.22

>  <PEOE_VSA4>
5.1

>  <PEOE_VSA5>
0

>  <PEOE_VSA6>
0

>  <PEOE_VSA7>
6.07

>  <PEOE_VSA8>
0

>  <PEOE_VSA9>
12.28

>  <PEOE_VSA10>
4.92

>  <PEOE_VSA11>
5.76

>  <PEOE_VSA12>
0

>  <PEOE_VSA13>
0

>  <SMR_VSA1>
14.14

>  <SMR_VSA2>
0

>  <SMR_VSA3>
5.43

>  <SMR_VSA4>
10.84

>  <SMR_VSA5>
0

>  <SMR_VSA6>
0

>  <SMR_VSA7>
28.01

>  <SMR_VSA8>
0

>  <SMR_VSA9>
0

>  <SlogP_VSA1>
11.16

>  <SlogP_VSA2>
17.17

>  <SlogP_VSA3>
0

>  <SlogP_VSA4>
10.11

>  <SlogP_VSA5>
5.76

>  <SlogP_VSA6>
21.65

>  <SlogP_VSA7>
0

>  <SlogP_VSA8>
0

>  <SlogP_VSA9>
0

>  <SlogP_VSA10>
10.68

>  <SlogP_VSA11>
0

>  <EState_VSA1>
16.84

>  <EState_VSA2>
5.76

>  <EState_VSA3>
0

>  <EState_VSA4>
6.21

>  <EState_VSA5>
12.13

>  <EState_VSA6>
0

>  <EState_VSA7>
5.43

>  <EState_VSA8>
9.52

>  <EState_VSA9>
5.73

>  <EState_VSA10>
14.91

>  <VSA_EState1>
4.69

>  <VSA_EState2>
19.65

>  <VSA_EState3>
13.52

>  <VSA_EState4>
6.62

>  <VSA_EState5>
-0.25

>  <VSA_EState6>
1.68

>  <VSA_EState7>
1.1

>  <VSA_EState8>
0

>  <VSA_EState9>
0

>  <apol>
21.63

>  <bpol>
9.79

>  <nRing>
1

>  <nHRing>
1

>  <naRing>
1

>  <naHRing>
1

>  <nARing 2>
0

>  <nAHRing 2>
0

>  <nFRing>
0

>  <nFHRing>
0

>  <nFaRing>
0

>  <nFaHRing>
0

>  <nFARing 2>
0

>  <nFAHRing 2>
0

>  <nRot>
3

>  <SLogP>
0.19

>  <SMR>
45.68

>  <TopoPSA(NO)>
123.76

>  <TopoPSA>
123.76

>  <JGI1>
0.25

>  <JGI2>
0.07

>  <JGI3>
0.05

>  <JGI4>
0.04

>  <JGI5>
0.03

>  <Diameter>
9

>  <Radius>
5

>  <TMWC10>
94.39

>  <TSRW10>
58.01

>  <MW>
198.04

>  <AMW>
9.9

>  <WPath>
356

>  <WPol>
14

>  <Zagreb1>
64

>  <Zagreb2>
69

>  <mZagreb2>
3.19

>  <yes>


>  <nAR-cont>
0.336376

>  <nHA-cont>
0.887625254

>  <MWHBN>
0.497418096

>  <MWHBN-cont>
0

>  <TPSA-cont>
0

>  <pka_cont>
0.97

>  <yes.1>


>  <BBB_SCORE>
1.709001254

>  <MMFF94 Energy>
27.838

$$$$
Compound 2853
Actelion Java MolfileCreator 2.0

  0  0  0  0  0  0              0 V3000
M  V30 BEGIN CTAB
M  V30 COUNTS 43 45 0 0 0
M  V30 BEGIN ATOM
M  V30 1 F -0.8952 -4.7274 3.7479 0
M  V30 2 C -0.2186 -4.2835 2.6802 0
M  V30 3 C -0.8999 -3.916 1.5246 0
M  V30 4 C 1.1649 -4.1882 2.7436 0
M  V30 5 F -2.2357 -4.0017 1.4742 0
M  V30 6 C -0.2043 -3.4472 0.4128 0
M  V30 7 C 1.8584 -3.7177 1.6338 0
M  V30 8 C 1.1936 -3.341 0.459 0
M  V30 9 F 3.1927 -3.6181 1.7016 0
M  V30 10 C 1.9635 -2.8209 -0.7298 0
M  V30 11 C 2.5504 -1.4017 -0.5372 0 CFG=1
M  V30 12 N 3.2619 -0.9563 -1.7467 0
M  V30 13 C 1.5432 -0.3256 -0.0885 0
M  V30 14 C 0.3584 -0.0968 -1.0162 0
M  V30 15 O 0.2075 -0.7559 -2.0447 0
M  V30 16 N -0.5519 0.8886 -0.6504 0
M  V30 17 C -1.7233 1.0846 -1.5197 0
M  V30 18 C -0.5326 1.6429 0.6102 0
M  V30 19 C -2.2458 2.4761 -1.4271 0
M  V30 20 C -0.656 3.1441 0.3538 0
M  V30 21 N -3.2334 3.0226 -2.1017 0
M  V30 22 N -1.7475 3.4071 -0.5568 0
M  V30 23 N -3.3679 4.3259 -1.6788 0
M  V30 24 C -2.4594 4.5584 -0.7482 0
M  V30 25 C -2.2024 5.8105 0.0 0
M  V30 26 F -2.9056 6.8757 -0.4535 0
M  V30 27 F -2.5015 5.6669 1.3194 0
M  V30 28 F -0.8862 6.1541 -0.0485 0
M  V30 29 H 1.6956 -4.4751 3.644 0
M  V30 30 H -0.7602 -3.1674 -0.4792 0
M  V30 31 H 1.3327 -2.8695 -1.6251 0
M  V30 32 H 2.7835 -3.5243 -0.9317 0
M  V30 33 H 3.3083 -1.4602 0.2546 0
M  V30 34 H 2.5877 -0.9002 -2.5177 0
M  V30 35 H 3.935 -1.6686 -2.0309 0
M  V30 36 H 2.0754 0.6286 0.0171 0
M  V30 37 H 1.1544 -0.5926 0.9008 0
M  V30 38 H -2.4926 0.3777 -1.1893 0
M  V30 39 H -1.4722 0.8524 -2.5596 0
M  V30 40 H 0.3689 1.4505 1.1937 0
M  V30 41 H -1.383 1.284 1.2036 0
M  V30 42 H -0.8362 3.6799 1.2901 0
M  V30 43 H 0.2499 3.5357 -0.1213 0
M  V30 END ATOM
M  V30 BEGIN BOND
M  V30 1 1 1 2
M  V30 2 2 2 3
M  V30 3 1 2 4
M  V30 4 1 3 5
M  V30 5 1 3 6
M  V30 6 2 4 7
M  V30 7 2 6 8
M  V30 8 1 7 9
M  V30 9 1 8 10
M  V30 10 1 10 11
M  V30 11 1 11 12
M  V30 12 1 11 13
M  V30 13 1 13 14
M  V30 14 2 14 15
M  V30 15 1 14 16
M  V30 16 1 16 17
M  V30 17 1 16 18
M  V30 18 1 17 19
M  V30 19 1 18 20
M  V30 20 2 19 21
M  V30 21 1 19 22
M  V30 22 1 21 23
M  V30 23 1 22 24
M  V30 24 1 24 25
M  V30 25 1 25 26
M  V30 26 1 25 27
M  V30 27 1 25 28
M  V30 28 1 7 8
M  V30 29 1 20 22
M  V30 30 2 23 24
M  V30 31 1 4 29
M  V30 32 1 6 30
M  V30 33 1 10 31
M  V30 34 1 10 32
M  V30 35 1 11 33
M  V30 36 1 12 34
M  V30 37 1 12 35
M  V30 38 1 13 36
M  V30 39 1 13 37
M  V30 40 1 17 38
M  V30 41 1 17 39
M  V30 42 1 18 40
M  V30 43 1 18 41
M  V30 44 1 20 42
M  V30 45 1 20 43
M  V30 END BOND
M  V30 BEGIN COLLECTION
M  V30 MDLV30/STERAC1 ATOMS=(1 11)
M  V30 END COLLECTION
M  V30 END CTAB
M  END
>  <Column 1>
3617

>  <level_0>
5881

>  <index>
5882

>  <Unnamed: 0>
5882

>  <NO.>
5894

>  <Name>
sitagliptin

>  <IUPAC_name>
3-amino-1-[3-(trifluoromethyl)-6-8-dihydro-5h-[1-2-4]triazolo[4-3-a]pyrazin-7-yl]-4-(2-4-5-trifluorophenyl)butan-1-one

>  <SMILES>
NC(CC(=O)N1CCn2c(nnc2C(F)(F)F)C1)Cc1cc(F)c(F)cc1F

>  <CID>
11306691

>  <logBB>


>  <BBB+/BBB->
BBB-

>  <Inchi>
InChI=1S/C16H15F6N5O/c17-10-6-12(19)11(18)4-8(10)3-9(23)5-14(28)26-1-2-27-13(7-26)24-25-15(27)16(20-21)22/h4-6-9H-1-3-5-7-23H2

>  <threshold>


>  <reference>
R23|

>  <group>
C

>  <Class>
-1

>  <ABC>
21.97

>  <ABCGG>
17.73

>  <nAcid>
0

>  <nBase>
1

>  <nAromAtom>
11

>  <nAromBond>
11

>  <nAtom>
43

>  <nHeavyAtom>
28

>  <nSpiro>
0

>  <nBridgehead>
0

>  <nHetero>
12

>  <nN>
5

>  <nO>
1

>  <nF>
6

>  <BalabanJ>
1.47

>  <BertzCT>
896.38

>  <nBonds>
45

>  <nBondsO>
30

>  <nBondsS>
33

>  <nBondsD>
1

>  <nBondsT>
0

>  <nBondsA>
11

>  <nBondsM>
12

>  <nBondsKS>
39

>  <nBondsKD>
6

>  <RNCG>
0.13

>  <RPCG>
0.17

>  <FCSP3>
0.44

>  <SZ>
34.67

>  <Sm>
33.91

>  <Sv>
28.45

>  <Sse>
46.05

>  <Sp>
27.76

>  <Si>
51.06

>  <MZ>
0.81

>  <Mm>
0.79

>  <Mv>
0.66

>  <Mse>
1.07

>  <Mp>
0.65

>  <Mi>
1.19

>  <NsCH3>
0

>  <NdCH2>
0

>  <NssCH2>
5

>  <NtCH>
0

>  <NdsCH>
0

>  <NaaCH>
2

>  <NsssCH>
1

>  <NddC>
0

>  <NtsC>
0

>  <NdssC>
1

>  <NaasC>
6

>  <NaaaC>
0

>  <NssssC>
1

>  <NsNH3>
0

>  <NsNH2>
1

>  <NssNH2>
0

>  <NdNH>
0

>  <NssNH>
0

>  <NaaNH>
0

>  <NtN>
0

>  <NsssNH>
0

>  <NdsN>
0

>  <NaaN>
2

>  <NsssN>
1

>  <NddsN>
0

>  <NaasN>
1

>  <NssssN>
0

>  <NsOH>
0

>  <NdO>
1

>  <NssO>
0

>  <NaaO>
0

>  <NsF>
6

>  <NsSiH3>
0

>  <NssSiH2>
0

>  <NsssSiH>
0

>  <NssssSi>
0

>  <NsPH2>
0

>  <NssPH>
0

>  <NsssP>
0

>  <NdsssP>
0

>  <NsssssP>
0

>  <NsSH>
0

>  <NdS>
0

>  <NssS>
0

>  <NaaS>
0

>  <NdssS>
0

>  <NddssS>
0

>  <NsCl>
0

>  <NsBr>
0

>  <NsI>
0

>  <fragCpx>
144.12

>  <fMF>
0.44

>  <nHBAcc>
5

>  <nHBDon>
1

>  <Kier1>
22.68

>  <Kier2>
9.01

>  <Lipinski>
1

>  <GhoseFilter>
1

>  <FilterItLogS>
-4.51

>  <VMcGowan>
244.25

>  <LabuteASA>
154.48

>  <PEOE_VSA1>
15.2

>  <PEOE_VSA2>
4.79

>  <PEOE_VSA3>
13.17

>  <PEOE_VSA4>
13.17

>  <PEOE_VSA5>
10.2

>  <PEOE_VSA6>
0

>  <PEOE_VSA7>
18.05

>  <PEOE_VSA8>
31.62

>  <PEOE_VSA9>
6.54

>  <PEOE_VSA10>
5.82

>  <PEOE_VSA11>
17.46

>  <PEOE_VSA12>
11.73

>  <PEOE_VSA13>
0

>  <SMR_VSA1>
31.14

>  <SMR_VSA2>
0

>  <SMR_VSA3>
19.66

>  <SMR_VSA4>
5.73

>  <SMR_VSA5>
38.15

>  <SMR_VSA6>
6.54

>  <SMR_VSA7>
46.8

>  <SMR_VSA8>
0

>  <SMR_VSA9>
0

>  <SlogP_VSA1>
5.73

>  <SlogP_VSA2>
38.16

>  <SlogP_VSA3>
30.48

>  <SlogP_VSA4>
17.45

>  <SlogP_VSA5>
23.63

>  <SlogP_VSA6>
12.13

>  <SlogP_VSA7>
0

>  <SlogP_VSA8>
0

>  <SlogP_VSA9>
0

>  <SlogP_VSA10>
26.34

>  <SlogP_VSA11>
0

>  <EState_VSA1>
41.4

>  <EState_VSA2>
43.86

>  <EState_VSA3>
12.13

>  <EState_VSA4>
4.57

>  <EState_VSA5>
4.9

>  <EState_VSA6>
0

>  <EState_VSA7>
0

>  <EState_VSA8>
10.2

>  <EState_VSA9>
5.73

>  <EState_VSA10>
31.14

>  <VSA_EState1>
79.26

>  <VSA_EState2>
13.63

>  <VSA_EState3>
6.6

>  <VSA_EState4>
5.64

>  <VSA_EState5>
-5.15

>  <VSA_EState6>
0.18

>  <VSA_EState7>
-5.11

>  <VSA_EState8>
-0.3

>  <VSA_EState9>
0

>  <apol>
46.37

>  <bpol>
26.58

>  <nRing>
3

>  <nHRing>
2

>  <naRing>
2

>  <naHRing>
1

>  <nARing 2>
1

>  <nAHRing 2>
1

>  <nFRing>
1

>  <nFHRing>
1

>  <nFaRing>
0

>  <nFaHRing>
0

>  <nFARing 2>
1

>  <nFAHRing 2>
1

>  <nRot>
4

>  <SLogP>
2.02

>  <SMR>
83.05

>  <TopoPSA(NO)>
77.04

>  <TopoPSA>
77.04

>  <JGI1>
0.28

>  <JGI2>
0.1

>  <JGI3>
0.06

>  <JGI4>
0.06

>  <JGI5>
0.02

>  <Diameter>
15

>  <Radius>
8

>  <TMWC10>
134.86

>  <TSRW10>
77.59

>  <MW>
407.12

>  <AMW>
9.47

>  <WPath>
2281

>  <WPol>
45

>  <Zagreb1>
150

>  <Zagreb2>
176

>  <mZagreb2>
5.89

>  <yes>


>  <nAR-cont>
0.816016

>  <nHA-cont>
0.82432561

>  <MWHBN>
0.297365124

>  <MWHBN-cont>
0.848538983

>  <TPSA-cont>
0.462212961

>  <pka_cont>
0.97

>  <yes.1>


>  <BBB_SCORE>
4.322576007

>  <MMFF94 Energy>
40.164

$$$$
Compound 2854
Actelion Java MolfileCreator 2.0

  0  0  0  0  0  0              0 V3000
M  V30 BEGIN CTAB
M  V30 COUNTS 22 22 0 0 0
M  V30 BEGIN ATOM
M  V30 1 N 0.309 1.2367 -2.0877 0
M  V30 2 C 0.5303 0.5849 -0.7836 0
M  V30 3 C -0.6667 0.8509 0.1696 0
M  V30 4 C 0.7557 -0.921 -0.9615 0
M  V30 5 N -0.8523 2.2938 0.3666 0
M  V30 6 C -0.4641 0.1568 1.5182 0
M  V30 7 C 0.9444 -1.6155 0.3866 0
M  V30 8 C -0.2184 -1.3404 1.337 0
M  V30 9 H -0.4828 0.7974 -2.5554 0
M  V30 10 H 1.1179 1.066 -2.6845 0
M  V30 11 H 1.4364 1.0258 -0.347 0
M  V30 12 H -1.5791 0.4561 -0.298 0
M  V30 13 H 1.6392 -1.1002 -1.5862 0
M  V30 14 H -0.099 -1.373 -1.4816 0
M  V30 15 H -1.817 2.4821 0.629 0
M  V30 16 H -0.7057 2.7355 -0.5468 0
M  V30 17 H 0.3903 0.5994 2.0468 0
M  V30 18 H -1.344 0.3037 2.1567 0
M  V30 19 H 1.0447 -2.6957 0.2322 0
M  V30 20 H 1.879 -1.2707 0.8459 0
M  V30 21 H -1.1276 -1.8135 0.9459 0
M  V30 22 H -0.0139 -1.7995 2.3107 0
M  V30 END ATOM
M  V30 BEGIN BOND
M  V30 1 1 1 2
M  V30 2 1 2 3
M  V30 3 1 2 4
M  V30 4 1 3 5
M  V30 5 1 3 6
M  V30 6 1 4 7
M  V30 7 1 6 8
M  V30 8 1 7 8
M  V30 9 1 1 9
M  V30 10 1 1 10
M  V30 11 1 2 11
M  V30 12 1 3 12
M  V30 13 1 4 13
M  V30 14 1 4 14
M  V30 15 1 5 15
M  V30 16 1 5 16
M  V30 17 1 6 17
M  V30 18 1 6 18
M  V30 19 1 7 19
M  V30 20 1 7 20
M  V30 21 1 8 21
M  V30 22 1 8 22
M  V30 END BOND
M  V30 END CTAB
M  END
>  <Column 1>
3621

>  <level_0>
5885

>  <index>
5886

>  <Unnamed: 0>
5886

>  <NO.>
5898

>  <Name>
oxaliplatin

>  <IUPAC_name>
cyclohexane-1-2-diamine

>  <SMILES>
NC1CCCCC1N

>  <CID>
4610

>  <logBB>


>  <BBB+/BBB->
BBB-

>  <Inchi>
InChI=1S/C6H14N2/c7-5-3-1-2-4-6(5)8/h5-6H-1-4-7-8H2

>  <threshold>


>  <reference>
R23|

>  <group>
C

>  <Class>
-1

>  <ABC>
5.84

>  <ABCGG>
5.61

>  <nAcid>
0

>  <nBase>
2

>  <nAromAtom>
0

>  <nAromBond>
0

>  <nAtom>
22

>  <nHeavyAtom>
8

>  <nSpiro>
0

>  <nBridgehead>
0

>  <nHetero>
2

>  <nN>
2

>  <nO>
0

>  <nF>
0

>  <BalabanJ>
2.28

>  <BertzCT>
62.93

>  <nBonds>
22

>  <nBondsO>
8

>  <nBondsS>
22

>  <nBondsD>
0

>  <nBondsT>
0

>  <nBondsA>
0

>  <nBondsM>
0

>  <nBondsKS>
22

>  <nBondsKD>
0

>  <RNCG>
0.39

>  <RPCG>
0.14

>  <FCSP3>
1

>  <SZ>
10.67

>  <Sm>
9.51

>  <Sv>
11.31

>  <Sse>
21.54

>  <Sp>
12.91

>  <Si>
25.49

>  <MZ>
0.48

>  <Mm>
0.43

>  <Mv>
0.51

>  <Mse>
0.98

>  <Mp>
0.59

>  <Mi>
1.16

>  <NsCH3>
0

>  <NdCH2>
0

>  <NssCH2>
4

>  <NtCH>
0

>  <NdsCH>
0

>  <NaaCH>
0

>  <NsssCH>
2

>  <NddC>
0

>  <NtsC>
0

>  <NdssC>
0

>  <NaasC>
0

>  <NaaaC>
0

>  <NssssC>
0

>  <NsNH3>
0

>  <NsNH2>
2

>  <NssNH2>
0

>  <NdNH>
0

>  <NssNH>
0

>  <NaaNH>
0

>  <NtN>
0

>  <NsssNH>
0

>  <NdsN>
0

>  <NaaN>
0

>  <NsssN>
0

>  <NddsN>
0

>  <NaasN>
0

>  <NssssN>
0

>  <NsOH>
0

>  <NdO>
0

>  <NssO>
0

>  <NaaO>
0

>  <NsF>
0

>  <NsSiH3>
0

>  <NssSiH2>
0

>  <NsssSiH>
0

>  <NssssSi>
0

>  <NsPH2>
0

>  <NssPH>
0

>  <NsssP>
0

>  <NdsssP>
0

>  <NsssssP>
0

>  <NsSH>
0

>  <NdS>
0

>  <NssS>
0

>  <NaaS>
0

>  <NdssS>
0

>  <NddssS>
0

>  <NsCl>
0

>  <NsBr>
0

>  <NsI>
0

>  <fragCpx>
8.02

>  <fMF>
0.27

>  <nHBAcc>
2

>  <nHBDon>
2

>  <Kier1>
6.13

>  <Kier2>
2.52

>  <Lipinski>
1

>  <GhoseFilter>
0

>  <FilterItLogS>
-0.31

>  <VMcGowan>
104.5

>  <LabuteASA>
50.24

>  <PEOE_VSA1>
11.47

>  <PEOE_VSA2>
0

>  <PEOE_VSA3>
0

>  <PEOE_VSA4>
0

>  <PEOE_VSA5>
0

>  <PEOE_VSA6>
12.84

>  <PEOE_VSA7>
12.84

>  <PEOE_VSA8>
12.08

>  <PEOE_VSA9>
0

>  <PEOE_VSA10>
0

>  <PEOE_VSA11>
0

>  <PEOE_VSA12>
0

>  <PEOE_VSA13>
0

>  <SMR_VSA1>
0

>  <SMR_VSA2>
0

>  <SMR_VSA3>
0

>  <SMR_VSA4>
11.47

>  <SMR_VSA5>
37.77

>  <SMR_VSA6>
0

>  <SMR_VSA7>
0

>  <SMR_VSA8>
0

>  <SMR_VSA9>
0

>  <SlogP_VSA1>
11.47

>  <SlogP_VSA2>
12.08

>  <SlogP_VSA3>
0

>  <SlogP_VSA4>
0

>  <SlogP_VSA5>
25.68

>  <SlogP_VSA6>
0

>  <SlogP_VSA7>
0

>  <SlogP_VSA8>
0

>  <SlogP_VSA9>
0

>  <SlogP_VSA10>
0

>  <SlogP_VSA11>
0

>  <EState_VSA1>
0

>  <EState_VSA2>
12.08

>  <EState_VSA3>
0

>  <EState_VSA4>
12.84

>  <EState_VSA5>
12.84

>  <EState_VSA6>
0

>  <EState_VSA7>
0

>  <EState_VSA8>
0

>  <EState_VSA9>
11.47

>  <EState_VSA10>
0

>  <VSA_EState1>
0

>  <VSA_EState2>
0

>  <VSA_EState3>
0

>  <VSA_EState4>
11.31

>  <VSA_EState5>
0

>  <VSA_EState6>
0.56

>  <VSA_EState7>
4.8

>  <VSA_EState8>
0

>  <VSA_EState9>
0

>  <apol>
21.56

>  <bpol>
12.9

>  <nRing>
1

>  <nHRing>
0

>  <naRing>
0

>  <naHRing>
0

>  <nARing 2>
1

>  <nAHRing 2>
0

>  <nFRing>
0

>  <nFHRing>
0

>  <nFaRing>
0

>  <nFaHRing>
0

>  <nFARing 2>
0

>  <nFAHRing 2>
0

>  <nRot>
0

>  <SLogP>
0.22

>  <SMR>
34.42

>  <TopoPSA(NO)>
52.04

>  <TopoPSA>
52.04

>  <JGI1>
0.19

>  <JGI2>
0.11

>  <JGI3>
0.05

>  <JGI4>
0.11

>  <JGI5>
0

>  <Diameter>
4

>  <Radius>
3

>  <TMWC10>
76.5

>  <TSRW10>
35.91

>  <MW>
114.12

>  <AMW>
5.19

>  <WPath>
60

>  <WPol>
8

>  <Zagreb1>
36

>  <Zagreb2>
39

>  <mZagreb2>
1.86

>  <yes>


>  <nAR-cont>
0.816016

>  <nHA-cont>
0.464727961

>  <MWHBN>
0.374437304

>  <MWHBN-cont>
0.57658217

>  <TPSA-cont>
0.636728485

>  <pka_cont>
0.97

>  <yes.1>


>  <BBB_SCORE>
3.904074187

>  <MMFF94 Energy>
16.549

$$$$
Compound 2855
Actelion Java MolfileCreator 2.0

  0  0  0  0  0  0              0 V3000
M  V30 BEGIN CTAB
M  V30 COUNTS 48 51 0 0 0
M  V30 BEGIN ATOM
M  V30 1 Cl -1.1346 -1.3779 -0.6482 0
M  V30 2 C -0.1462 0.0396 -0.407 0
M  V30 3 C 0.9793 -0.1093 0.4545 0
M  V30 4 C -0.4031 1.26 -1.0908 0
M  V30 5 N 1.2355 -1.3171 1.1444 0
M  V30 6 C 1.8642 0.9748 0.5784 0
M  V30 7 N -1.549 1.5499 -1.9028 0
M  V30 8 C 0.57 2.2839 -0.962 0
M  V30 9 C 1.367 -1.2186 2.6076 0
M  V30 10 C 2.0802 -2.2519 0.3933 0
M  V30 11 F 2.9464 0.8696 1.3662 0
M  V30 12 C 1.6815 2.1502 -0.1254 0
M  V30 13 C -1.5263 2.6431 -2.7525 0
M  V30 14 C -2.822 0.804 -1.8333 0
M  V30 15 C 0.4415 3.551 -1.7313 0
M  V30 16 C 0.4586 -2.2643 3.3074 0 CFG=1
M  V30 17 C 2.4725 -3.516 1.1554 0
M  V30 18 C -0.6121 3.6212 -2.7619 0
M  V30 19 C -3.6235 0.7172 -0.5549 0
M  V30 20 C -4.155 1.5115 -1.7019 0
M  V30 21 O 1.1879 4.4919 -1.485 0
M  V30 22 N -0.9143 -2.2459 2.7648 0
M  V30 23 C 1.0178 -3.6917 3.2386 0
M  V30 24 C 1.314 -4.2372 1.8392 0
M  V30 25 C -0.757 4.6942 -3.7505 0
M  V30 26 O -1.7999 5.0334 -4.2853 0
M  V30 27 O 0.4101 5.257 -4.0953 0
M  V30 28 H 2.4124 -1.3252 2.9206 0
M  V30 29 H 1.0376 -0.2293 2.955 0
M  V30 30 H 3.0057 -1.7506 0.08 0
M  V30 31 H 1.562 -2.5536 -0.525 0
M  V30 32 H 2.4114 2.9492 -0.0223 0
M  V30 33 H -2.3582 2.6637 -3.4555 0
M  V30 34 H -2.8246 -0.0571 -2.4985 0
M  V30 35 H 0.3935 -1.9949 4.3689 0
M  V30 36 H 2.931 -4.2035 0.4329 0
M  V30 37 H 3.2583 -3.2879 1.8859 0
M  V30 38 H -3.2701 1.2587 0.3144 0
M  V30 39 H -4.1041 -0.2263 -0.3231 0
M  V30 40 H -4.9962 1.1074 -2.2534 0
M  V30 41 H -4.177 2.5893 -1.5911 0
M  V30 42 H -1.3015 -1.312 2.8971 0
M  V30 43 H -0.8162 -2.3125 1.7438 0
M  V30 44 H 1.9366 -3.737 3.8383 0
M  V30 45 H 0.3118 -4.3739 3.7313 0
M  V30 46 H 1.5973 -5.2911 1.9563 0
M  V30 47 H 0.4184 -4.2287 1.2082 0
M  V30 48 H 0.1748 5.957 -4.7376 0
M  V30 END ATOM
M  V30 BEGIN BOND
M  V30 1 1 1 2
M  V30 2 2 2 3
M  V30 3 1 2 4
M  V30 4 1 3 5
M  V30 5 1 3 6
M  V30 6 1 4 7
M  V30 7 2 4 8
M  V30 8 1 5 9
M  V30 9 1 5 10
M  V30 10 1 6 11
M  V30 11 2 6 12
M  V30 12 1 7 13
M  V30 13 1 7 14
M  V30 14 1 8 15
M  V30 15 1 9 16
M  V30 16 1 10 17
M  V30 17 2 13 18
M  V30 18 1 14 19
M  V30 19 1 14 20
M  V30 20 2 15 21
M  V30 21 1 16 22
M  V30 22 1 16 23
M  V30 23 1 17 24
M  V30 24 1 18 25
M  V30 25 2 25 26
M  V30 26 1 25 27
M  V30 27 1 8 12
M  V30 28 1 15 18
M  V30 29 1 19 20
M  V30 30 1 23 24
M  V30 31 1 9 28
M  V30 32 1 9 29
M  V30 33 1 10 30
M  V30 34 1 10 31
M  V30 35 1 12 32
M  V30 36 1 13 33
M  V30 37 1 14 34
M  V30 38 1 16 35
M  V30 39 1 17 36
M  V30 40 1 17 37
M  V30 41 1 19 38
M  V30 42 1 19 39
M  V30 43 1 20 40
M  V30 44 1 20 41
M  V30 45 1 22 42
M  V30 46 1 22 43
M  V30 47 1 23 44
M  V30 48 1 23 45
M  V30 49 1 24 46
M  V30 50 1 24 47
M  V30 51 1 27 48
M  V30 END BOND
M  V30 BEGIN COLLECTION
M  V30 MDLV30/STERAC1 ATOMS=(1 16)
M  V30 END COLLECTION
M  V30 END CTAB
M  END
>  <Column 1>
3622

>  <level_0>
5886

>  <index>
5887

>  <Unnamed: 0>
5887

>  <NO.>
5899

>  <Name>
besifloxacin

>  <IUPAC_name>
7-(3-aminoazepan-1-yl)-8-chloro-1-cyclopropyl-6-fluoro-4-oxoquinoline-3-carboxylic acid

>  <SMILES>
NC1CCCCN(c2c(F)cc3c(=O)c(C(=O)O)cn(C4CC4)c3c2Cl)C1

>  <CID>
22743624

>  <logBB>


>  <BBB+/BBB->
BBB-

>  <Inchi>
InChI=1S/C19H21ClFN3O3/c20-15-16-12(18(25)13(19(26)27)9-24(16)11-4-5-11)7-14(21)17(15)23-6-2-1-3-10(22)8-23/h7-9-11H-1-6-8-22H2-(H-26-27)

>  <threshold>


>  <reference>
R23|

>  <group>
C

>  <Class>
-1

>  <ABC>
21.47

>  <ABCGG>
17.68

>  <nAcid>
1

>  <nBase>
1

>  <nAromAtom>
10

>  <nAromBond>
11

>  <nAtom>
48

>  <nHeavyAtom>
27

>  <nSpiro>
0

>  <nBridgehead>
0

>  <nHetero>
8

>  <nN>
3

>  <nO>
3

>  <nF>
1

>  <BalabanJ>
1.59

>  <BertzCT>
986.55

>  <nBonds>
51

>  <nBondsO>
30

>  <nBondsS>
38

>  <nBondsD>
2

>  <nBondsT>
0

>  <nBondsA>
11

>  <nBondsM>
13

>  <nBondsKS>
45

>  <nBondsKD>
6

>  <RNCG>
0.19

>  <RPCG>
0.14

>  <FCSP3>
0.47

>  <SZ>
34.33

>  <Sm>
32.79

>  <Sv>
30.84

>  <Sse>
49.03

>  <Sp>
32.44

>  <Si>
54.56

>  <MZ>
0.72

>  <Mm>
0.68

>  <Mv>
0.64

>  <Mse>
1.02

>  <Mp>
0.68

>  <Mi>
1.14

>  <NsCH3>
0

>  <NdCH2>
0

>  <NssCH2>
7

>  <NtCH>
0

>  <NdsCH>
0

>  <NaaCH>
2

>  <NsssCH>
2

>  <NddC>
0

>  <NtsC>
0

>  <NdssC>
1

>  <NaasC>
4

>  <NaaaC>
2

>  <NssssC>
0

>  <NsNH3>
0

>  <NsNH2>
1

>  <NssNH2>
0

>  <NdNH>
0

>  <NssNH>
0

>  <NaaNH>
0

>  <NtN>
0

>  <NsssNH>
0

>  <NdsN>
0

>  <NaaN>
0

>  <NsssN>
1

>  <NddsN>
0

>  <NaasN>
1

>  <NssssN>
0

>  <NsOH>
1

>  <NdO>
2

>  <NssO>
0

>  <NaaO>
0

>  <NsF>
1

>  <NsSiH3>
0

>  <NssSiH2>
0

>  <NsssSiH>
0

>  <NssssSi>
0

>  <NsPH2>
0

>  <NssPH>
0

>  <NsssP>
0

>  <NdsssP>
0

>  <NsssssP>
0

>  <NsSH>
0

>  <NdS>
0

>  <NssS>
0

>  <NaaS>
0

>  <NdssS>
0

>  <NddssS>
0

>  <NsCl>
1

>  <NsBr>
0

>  <NsI>
0

>  <fragCpx>
198.08

>  <fMF>
0.42

>  <nHBAcc>
5

>  <nHBDon>
2

>  <Kier1>
20.28

>  <Kier2>
8.02

>  <Lipinski>
1

>  <GhoseFilter>
1

>  <FilterItLogS>
-3.69

>  <VMcGowan>
270.88

>  <LabuteASA>
159.87

>  <PEOE_VSA1>
20.31

>  <PEOE_VSA2>
4.79

>  <PEOE_VSA3>
9.18

>  <PEOE_VSA4>
0

>  <PEOE_VSA5>
0

>  <PEOE_VSA6>
18.02

>  <PEOE_VSA7>
31.75

>  <PEOE_VSA8>
31.37

>  <PEOE_VSA9>
21.61

>  <PEOE_VSA10>
11.38

>  <PEOE_VSA11>
0

>  <PEOE_VSA12>
5.43

>  <PEOE_VSA13>
0

>  <SMR_VSA1>
14.29

>  <SMR_VSA2>
0

>  <SMR_VSA3>
4.57

>  <SMR_VSA4>
5.73

>  <SMR_VSA5>
44.19

>  <SMR_VSA6>
17.99

>  <SMR_VSA7>
38.89

>  <SMR_VSA8>
0

>  <SMR_VSA9>
0

>  <SlogP_VSA1>
16.06

>  <SlogP_VSA2>
34.77

>  <SlogP_VSA3>
0

>  <SlogP_VSA4>
5.82

>  <SlogP_VSA5>
48.5

>  <SlogP_VSA6>
17.06

>  <SlogP_VSA7>
5.02

>  <SlogP_VSA8>
10.9

>  <SlogP_VSA9>
0

>  <SlogP_VSA10>
10.08

>  <SlogP_VSA11>
0

>  <EState_VSA1>
17.22

>  <EState_VSA2>
33.74

>  <EState_VSA3>
18.61

>  <EState_VSA4>
38.17

>  <EState_VSA5>
6.2

>  <EState_VSA6>
4.57

>  <EState_VSA7>
4.9

>  <EState_VSA8>
0

>  <EState_VSA9>
17.33

>  <EState_VSA10>
14.7

>  <VSA_EState1>
16.75

>  <VSA_EState2>
25.92

>  <VSA_EState3>
9.51

>  <VSA_EState4>
5.69

>  <VSA_EState5>
-1.95

>  <VSA_EState6>
1.13

>  <VSA_EState7>
5.81

>  <VSA_EState8>
1.12

>  <VSA_EState9>
0

>  <apol>
54.18

>  <bpol>
27.28

>  <nRing>
4

>  <nHRing>
2

>  <naRing>
2

>  <naHRing>
1

>  <nARing 2>
2

>  <nAHRing 2>
1

>  <nFRing>
1

>  <nFHRing>
1

>  <nFaRing>
1

>  <nFaHRing>
1

>  <nFARing 2>
0

>  <nFAHRing 2>
0

>  <nRot>
3

>  <SLogP>
3.14

>  <SMR>
102.45

>  <TopoPSA(NO)>
88.56

>  <TopoPSA>
88.56

>  <JGI1>
0.18

>  <JGI2>
0.08

>  <JGI3>
0.05

>  <JGI4>
0.05

>  <JGI5>
0.03

>  <Diameter>
11

>  <Radius>
6

>  <TMWC10>
135.27

>  <TSRW10>
81.4

>  <MW>
393.13

>  <AMW>
8.19

>  <WPath>
1657

>  <WPol>
53

>  <Zagreb1>
150

>  <Zagreb2>
184

>  <mZagreb2>
5.78

>  <yes>


>  <nAR-cont>
1

>  <nHA-cont>
0.860070871

>  <MWHBN>
0.353044904

>  <MWHBN-cont>
0.658822245

>  <TPSA-cont>
0.381796208

>  <pka_cont>
0.97

>  <yes.1>


>  <BBB_SCORE>
4.096896654

>  <MMFF94 Energy>
96.843

$$$$
Compound 2856
Actelion Java MolfileCreator 2.0

  0  0  0  0  0  0              0 V3000
M  V30 BEGIN CTAB
M  V30 COUNTS 44 47 0 0 0
M  V30 BEGIN ATOM
M  V30 1 F 3.6544 -1.4605 0.2433 0
M  V30 2 C 2.4287 -1.1817 -0.2265 0
M  V30 3 C 1.5205 -0.411 0.5058 0
M  V30 4 C 2.0837 -1.6765 -1.4745 0
M  V30 5 N 0.2981 -0.1337 -0.0171 0
M  V30 6 N 1.7932 0.0986 1.7459 0
M  V30 7 C 0.8199 -1.3905 -1.9855 0
M  V30 8 C -0.0626 -0.6025 -1.2428 0
M  V30 9 C 2.9744 -0.198 2.5491 0
M  V30 10 C 0.8384 0.935 2.459 0
M  V30 11 C 0.4307 -1.9175 -3.3094 0
M  V30 12 N -1.3698 -0.3135 -1.7693 0
M  V30 13 C 2.601 0.3336 3.9532 0 CFG=2
M  V30 14 C 1.6496 1.4843 3.6321 0
M  V30 15 O 1.2601 -2.5061 -3.993 0
M  V30 16 C -0.951 -1.6643 -3.7643 0
M  V30 17 C -2.3124 0.5135 -1.0707 0
M  V30 18 C -1.7216 -0.888 -2.9882 0
M  V30 19 N 3.7307 0.7469 4.7826 0
M  V30 20 C -1.533 -2.1796 -5.0088 0
M  V30 21 C -3.6593 0.1319 -0.9056 0
M  V30 22 C -1.921 1.7528 -0.5289 0
M  V30 23 O -2.4158 -1.6412 -5.6559 0
M  V30 24 O -1.0464 -3.377 -5.3635 0
M  V30 25 F -4.0901 -1.0486 -1.378 0
M  V30 26 C -4.5769 0.9359 -0.2346 0
M  V30 27 C -2.8366 2.566 0.1459 0
M  V30 28 C -4.1541 2.1485 0.286 0
M  V30 29 F -5.0273 2.9295 0.9345 0
M  V30 30 H 2.7977 -2.2773 -2.0297 0
M  V30 31 H 3.8443 0.329 2.1399 0
M  V30 32 H 3.1923 -1.2702 2.6048 0
M  V30 33 H 0.4548 1.7584 1.8468 0
M  V30 34 H -0.0024 0.3307 2.819 0
M  V30 35 H 2.0461 -0.4485 4.4874 0
M  V30 36 H 2.2065 2.3743 3.3116 0
M  V30 37 H 1.0163 1.7654 4.4792 0
M  V30 38 H -2.7333 -0.647 -3.3133 0
M  V30 39 H 3.3846 1.1629 5.6469 0
M  V30 40 H 4.2566 1.4821 4.3098 0
M  V30 41 H -0.8952 2.0988 -0.6376 0
M  V30 42 H -1.5006 -3.6 -6.2014 0
M  V30 43 H -5.6051 0.6146 -0.1167 0
M  V30 44 H -2.527 3.5208 0.5601 0
M  V30 END ATOM
M  V30 BEGIN BOND
M  V30 1 1 1 2
M  V30 2 2 2 3
M  V30 3 1 2 4
M  V30 4 1 3 5
M  V30 5 1 3 6
M  V30 6 2 4 7
M  V30 7 2 5 8
M  V30 8 1 6 9
M  V30 9 1 6 10
M  V30 10 1 7 11
M  V30 11 1 8 12
M  V30 12 1 9 13
M  V30 13 1 10 14
M  V30 14 2 11 15
M  V30 15 1 11 16
M  V30 16 1 12 17
M  V30 17 1 12 18
M  V30 18 1 13 19
M  V30 19 1 16 20
M  V30 20 2 17 21
M  V30 21 1 17 22
M  V30 22 2 20 23
M  V30 23 1 20 24
M  V30 24 1 21 25
M  V30 25 1 21 26
M  V30 26 2 22 27
M  V30 27 2 26 28
M  V30 28 1 28 29
M  V30 29 1 7 8
M  V30 30 1 13 14
M  V30 31 2 16 18
M  V30 32 1 27 28
M  V30 33 1 4 30
M  V30 34 1 9 31
M  V30 35 1 9 32
M  V30 36 1 10 33
M  V30 37 1 10 34
M  V30 38 1 13 35
M  V30 39 1 14 36
M  V30 40 1 14 37
M  V30 41 1 18 38
M  V30 42 1 19 39
M  V30 43 1 19 40
M  V30 44 1 22 41
M  V30 45 1 24 42
M  V30 46 1 26 43
M  V30 47 1 27 44
M  V30 END BOND
M  V30 BEGIN COLLECTION
M  V30 MDLV30/STERAC1 ATOMS=(1 13)
M  V30 END COLLECTION
M  V30 END CTAB
M  END
>  <Column 1>
3623

>  <level_0>
5887

>  <index>
5888

>  <Unnamed: 0>
5888

>  <NO.>
5900

>  <Name>
tosufloxacin

>  <IUPAC_name>
7-(3-aminopyrrolidin-1-yl)-1-(2-4-difluorophenyl)-6-fluoro-4-oxo-1-8-naphthyridine-3-carboxylic acid

>  <SMILES>
NC1CCN(c2nc3c(cc2F)c(=O)c(C(=O)O)cn3-c2ccc(F)cc2F)C1

>  <CID>
5517

>  <logBB>


>  <BBB+/BBB->
BBB-

>  <Inchi>
InChI=1S/C19H15F3N4O3/c20-9-1-2-15(13(21)5-9)26-8-12(19(28)29)16(27)11-6-14(22)18(24-17(11)26)25-4-3-10(23)7-25/h1-2-5-6-8-10H-3-4-7-23H2-(H-28-29)

>  <threshold>


>  <reference>
R23|

>  <group>
C

>  <Class>
-1

>  <ABC>
23.03

>  <ABCGG>
18.71

>  <nAcid>
1

>  <nBase>
1

>  <nAromAtom>
16

>  <nAromBond>
17

>  <nAtom>
44

>  <nHeavyAtom>
29

>  <nSpiro>
0

>  <nBridgehead>
0

>  <nHetero>
10

>  <nN>
4

>  <nO>
3

>  <nF>
3

>  <BalabanJ>
1.58

>  <BertzCT>
1211.5

>  <nBonds>
47

>  <nBondsO>
32

>  <nBondsS>
28

>  <nBondsD>
2

>  <nBondsT>
0

>  <nBondsA>
17

>  <nBondsM>
19

>  <nBondsKS>
38

>  <nBondsKD>
9

>  <RNCG>
0.17

>  <RPCG>
0.12

>  <FCSP3>
0.21

>  <SZ>
34.67

>  <Sm>
33.66

>  <Sv>
30.18

>  <Sse>
46.17

>  <Sp>
30.07

>  <Si>
50.55

>  <MZ>
0.79

>  <Mm>
0.77

>  <Mv>
0.69

>  <Mse>
1.05

>  <Mp>
0.68

>  <Mi>
1.15

>  <NsCH3>
0

>  <NdCH2>
0

>  <NssCH2>
3

>  <NtCH>
0

>  <NdsCH>
0

>  <NaaCH>
5

>  <NsssCH>
1

>  <NddC>
0

>  <NtsC>
0

>  <NdssC>
1

>  <NaasC>
6

>  <NaaaC>
2

>  <NssssC>
0

>  <NsNH3>
0

>  <NsNH2>
1

>  <NssNH2>
0

>  <NdNH>
0

>  <NssNH>
0

>  <NaaNH>
0

>  <NtN>
0

>  <NsssNH>
0

>  <NdsN>
0

>  <NaaN>
1

>  <NsssN>
1

>  <NddsN>
0

>  <NaasN>
1

>  <NssssN>
0

>  <NsOH>
1

>  <NdO>
2

>  <NssO>
0

>  <NaaO>
0

>  <NsF>
3

>  <NsSiH3>
0

>  <NssSiH2>
0

>  <NsssSiH>
0

>  <NssssSi>
0

>  <NsPH2>
0

>  <NssPH>
0

>  <NsssP>
0

>  <NdsssP>
0

>  <NsssssP>
0

>  <NsSH>
0

>  <NdS>
0

>  <NssS>
0

>  <NaaS>
0

>  <NdssS>
0

>  <NddssS>
0

>  <NsCl>
0

>  <NsBr>
0

>  <NsI>
0

>  <fragCpx>
212.1

>  <fMF>
0.48

>  <nHBAcc>
6

>  <nHBDon>
2

>  <Kier1>
22.2

>  <Kier2>
8.86

>  <Lipinski>
1

>  <GhoseFilter>
1

>  <FilterItLogS>
-4.16

>  <VMcGowan>
259.24

>  <LabuteASA>
161.35

>  <PEOE_VSA1>
15.74

>  <PEOE_VSA2>
9.36

>  <PEOE_VSA3>
22.95

>  <PEOE_VSA4>
0

>  <PEOE_VSA5>
0

>  <PEOE_VSA6>
0

>  <PEOE_VSA7>
24.62

>  <PEOE_VSA8>
31.39

>  <PEOE_VSA9>
11.07

>  <PEOE_VSA10>
17.2

>  <PEOE_VSA11>
17.28

>  <PEOE_VSA12>
5.43

>  <PEOE_VSA13>
0

>  <SMR_VSA1>
23.07

>  <SMR_VSA2>
0

>  <SMR_VSA3>
9.55

>  <SMR_VSA4>
5.73

>  <SMR_VSA5>
12.46

>  <SMR_VSA6>
17.99

>  <SMR_VSA7>
63.7

>  <SMR_VSA8>
0

>  <SMR_VSA9>
5.69

>  <SlogP_VSA1>
16.06

>  <SlogP_VSA2>
39.76

>  <SlogP_VSA3>
0

>  <SlogP_VSA4>
17.45

>  <SlogP_VSA5>
16.78

>  <SlogP_VSA6>
35.26

>  <SlogP_VSA7>
0

>  <SlogP_VSA8>
16.72

>  <SlogP_VSA9>
0

>  <SlogP_VSA10>
18.99

>  <SlogP_VSA11>
0

>  <EState_VSA1>
34.41

>  <EState_VSA2>
28.58

>  <EState_VSA3>
25.58

>  <EState_VSA4>
28.96

>  <EState_VSA5>
0

>  <EState_VSA6>
4.9

>  <EState_VSA7>
0

>  <EState_VSA8>
4.98

>  <EState_VSA9>
5.73

>  <EState_VSA10>
27.87

>  <VSA_EState1>
43.47

>  <VSA_EState2>
29.82

>  <VSA_EState3>
9

>  <VSA_EState4>
3.82

>  <VSA_EState5>
-4.3

>  <VSA_EState6>
3.39

>  <VSA_EState7>
1.52

>  <VSA_EState8>
0.79

>  <VSA_EState9>
0

>  <apol>
50.21

>  <bpol>
24.11

>  <nRing>
4

>  <nHRing>
3

>  <naRing>
3

>  <naHRing>
2

>  <nARing 2>
1

>  <nAHRing 2>
1

>  <nFRing>
1

>  <nFHRing>
1

>  <nFaRing>
1

>  <nFaHRing>
1

>  <nFARing 2>
0

>  <nFAHRing 2>
0

>  <nRot>
3

>  <SLogP>
2.04

>  <SMR>
98.98

>  <TopoPSA(NO)>
101.45

>  <TopoPSA>
101.45

>  <JGI1>
0.22

>  <JGI2>
0.09

>  <JGI3>
0.05

>  <JGI4>
0.05

>  <JGI5>
0.03

>  <Diameter>
12

>  <Radius>
6

>  <TMWC10>
139.45

>  <TSRW10>
78.65

>  <MW>
404.11

>  <AMW>
9.18

>  <WPath>
2039

>  <WPol>
52

>  <Zagreb1>
160

>  <Zagreb2>
194

>  <mZagreb2>
6.17

>  <yes>


>  <nAR-cont>
0.816016

>  <nHA-cont>
0.785905698

>  <MWHBN>
0.397960702

>  <MWHBN-cont>
0.484090186

>  <TPSA-cont>
0.291816003

>  <pka_cont>
0.97

>  <yes.1>


>  <BBB_SCORE>
3.396688984

>  <MMFF94 Energy>
43.736

$$$$
Compound 2857
Actelion Java MolfileCreator 2.0

  0  0  0  0  0  0              0 V3000
M  V30 BEGIN CTAB
M  V30 COUNTS 24 24 0 0 0
M  V30 BEGIN ATOM
M  V30 1 O 0.39 0.078 -2.2639 0
M  V30 2 C 0.2175 0.4577 -1.1114 0
M  V30 3 N -0.3296 1.6823 -0.7986 0
M  V30 4 C 0.5634 -0.4292 0.0335 0
M  V30 5 C -0.7682 2.5962 -1.84 0
M  V30 6 C 0.5788 -1.8116 -0.1766 0
M  V30 7 C 0.9014 0.0755 1.2936 0
M  V30 8 C -2.2351 2.3666 -2.1612 0
M  V30 9 C 0.9002 -2.68 0.8713 0
M  V30 10 C 1.2224 -0.8019 2.3358 0
M  V30 11 O -3.0926 1.9512 -1.3956 0
M  V30 12 O -2.5675 2.7588 -3.4078 0
M  V30 13 C 1.2081 -2.1849 2.1399 0
M  V30 14 N 1.5563 -3.0439 3.1645 0
M  V30 15 H -0.6331 1.8703 0.147 0
M  V30 16 H -0.1664 2.4465 -2.7411 0
M  V30 17 H -0.6421 3.6182 -1.473 0
M  V30 18 H 0.3406 -2.2186 -1.1571 0
M  V30 19 H 0.9512 1.1439 1.4789 0
M  V30 20 H 0.9088 -3.7503 0.6834 0
M  V30 21 H 1.4933 -0.3929 3.3059 0
M  V30 22 H -3.5211 2.5441 -3.4778 0
M  V30 23 H 1.7183 -2.6927 4.0979 0
M  V30 24 H 1.4894 -4.0443 3.0363 0
M  V30 END ATOM
M  V30 BEGIN BOND
M  V30 1 2 1 2
M  V30 2 1 2 3
M  V30 3 1 2 4
M  V30 4 1 3 5
M  V30 5 2 4 6
M  V30 6 1 4 7
M  V30 7 1 5 8
M  V30 8 1 6 9
M  V30 9 2 7 10
M  V30 10 2 8 11
M  V30 11 1 8 12
M  V30 12 2 9 13
M  V30 13 1 13 14
M  V30 14 1 10 13
M  V30 15 1 3 15
M  V30 16 1 5 16
M  V30 17 1 5 17
M  V30 18 1 6 18
M  V30 19 1 7 19
M  V30 20 1 9 20
M  V30 21 1 10 21
M  V30 22 1 12 22
M  V30 23 1 14 23
M  V30 24 1 14 24
M  V30 END BOND
M  V30 END CTAB
M  END
>  <Column 1>
3629

>  <level_0>
5893

>  <index>
5894

>  <Unnamed: 0>
5894

>  <NO.>
5906

>  <Name>
4-aminohippuric acid

>  <IUPAC_name>
2-[(4-aminobenzoyl)amino]acetic acid

>  <SMILES>
Nc1ccc(C(=O)NCC(=O)O)cc1

>  <CID>
2148

>  <logBB>


>  <BBB+/BBB->
BBB-

>  <Inchi>
InChI=1S/C9H10N2O3/c10-7-3-1-6(2-4-7)9(14)11-5-8(12)13/h1-4H-5-10H2-(H-11-14)(H-12-13)

>  <threshold>


>  <reference>
R23|

>  <group>
C

>  <Class>
-1

>  <ABC>
10.3

>  <ABCGG>
9.29

>  <nAcid>
1

>  <nBase>
0

>  <nAromAtom>
6

>  <nAromBond>
6

>  <nAtom>
24

>  <nHeavyAtom>
14

>  <nSpiro>
0

>  <nBridgehead>
0

>  <nHetero>
5

>  <nN>
2

>  <nO>
3

>  <nF>
0

>  <BalabanJ>
2.2

>  <BertzCT>
345.58

>  <nBonds>
24

>  <nBondsO>
14

>  <nBondsS>
16

>  <nBondsD>
2

>  <nBondsT>
0

>  <nBondsA>
6

>  <nBondsM>
8

>  <nBondsKS>
19

>  <nBondsKD>
5

>  <RNCG>
0.25

>  <RPCG>
0.17

>  <FCSP3>
0.11

>  <SZ>
17

>  <Sm>
16.17

>  <Sv>
15.37

>  <Sse>
24.76

>  <Sp>
15.75

>  <Si>
27.29

>  <MZ>
0.71

>  <Mm>
0.67

>  <Mv>
0.64

>  <Mse>
1.03

>  <Mp>
0.66

>  <Mi>
1.14

>  <NsCH3>
0

>  <NdCH2>
0

>  <NssCH2>
1

>  <NtCH>
0

>  <NdsCH>
0

>  <NaaCH>
4

>  <NsssCH>
0

>  <NddC>
0

>  <NtsC>
0

>  <NdssC>
2

>  <NaasC>
2

>  <NaaaC>
0

>  <NssssC>
0

>  <NsNH3>
0

>  <NsNH2>
1

>  <NssNH2>
0

>  <NdNH>
0

>  <NssNH>
1

>  <NaaNH>
0

>  <NtN>
0

>  <NsssNH>
0

>  <NdsN>
0

>  <NaaN>
0

>  <NsssN>
0

>  <NddsN>
0

>  <NaasN>
0

>  <NssssN>
0

>  <NsOH>
1

>  <NdO>
2

>  <NssO>
0

>  <NaaO>
0

>  <NsF>
0

>  <NsSiH3>
0

>  <NssSiH2>
0

>  <NsssSiH>
0

>  <NssssSi>
0

>  <NsPH2>
0

>  <NssPH>
0

>  <NsssP>
0

>  <NdsssP>
0

>  <NsssssP>
0

>  <NsSH>
0

>  <NdS>
0

>  <NssS>
0

>  <NaaS>
0

>  <NdssS>
0

>  <NddssS>
0

>  <NsCl>
0

>  <NsBr>
0

>  <NsI>
0

>  <fragCpx>
14.05

>  <fMF>
0.25

>  <nHBAcc>
3

>  <nHBDon>
3

>  <Kier1>
12.07

>  <Kier2>
5.78

>  <Lipinski>
1

>  <GhoseFilter>
1

>  <FilterItLogS>
-1.22

>  <VMcGowan>
142.88

>  <LabuteASA>
80.53

>  <PEOE_VSA1>
16.16

>  <PEOE_VSA2>
9.59

>  <PEOE_VSA3>
0

>  <PEOE_VSA4>
0

>  <PEOE_VSA5>
0

>  <PEOE_VSA6>
0

>  <PEOE_VSA7>
24.27

>  <PEOE_VSA8>
11.25

>  <PEOE_VSA9>
0

>  <PEOE_VSA10>
6.54

>  <PEOE_VSA11>
0

>  <PEOE_VSA12>
0

>  <PEOE_VSA13>
5.91

>  <SMR_VSA1>
14.7

>  <SMR_VSA2>
0

>  <SMR_VSA3>
5.32

>  <SMR_VSA4>
0

>  <SMR_VSA5>
0

>  <SMR_VSA6>
12.28

>  <SMR_VSA7>
29.83

>  <SMR_VSA8>
0

>  <SMR_VSA9>
0

>  <SlogP_VSA1>
11.05

>  <SlogP_VSA2>
23.53

>  <SlogP_VSA3>
4.79

>  <SlogP_VSA4>
0

>  <SlogP_VSA5>
10.36

>  <SlogP_VSA6>
24.27

>  <SlogP_VSA7>
0

>  <SlogP_VSA8>
0

>  <SlogP_VSA9>
0

>  <SlogP_VSA10>
5.69

>  <SlogP_VSA11>
0

>  <EState_VSA1>
11.88

>  <EState_VSA2>
6.54

>  <EState_VSA3>
11.25

>  <EState_VSA4>
0

>  <EState_VSA5>
12.13

>  <EState_VSA6>
12.13

>  <EState_VSA7>
0

>  <EState_VSA8>
5.32

>  <EState_VSA9>
10.84

>  <EState_VSA10>
9.59

>  <VSA_EState1>
0

>  <VSA_EState2>
21.4

>  <VSA_EState3>
10.56

>  <VSA_EState4>
6.37

>  <VSA_EState5>
-1.5

>  <VSA_EState6>
6.23

>  <VSA_EState7>
0

>  <VSA_EState8>
-0.39

>  <VSA_EState9>
0

>  <apol>
26.3

>  <bpol>
11.77

>  <nRing>
1

>  <nHRing>
0

>  <naRing>
1

>  <naHRing>
0

>  <nARing 2>
0

>  <nAHRing 2>
0

>  <nFRing>
0

>  <nFHRing>
0

>  <nFaRing>
0

>  <nFaHRing>
0

>  <nFARing 2>
0

>  <nFAHRing 2>
0

>  <nRot>
3

>  <SLogP>
0.08

>  <SMR>
50.82

>  <TopoPSA(NO)>
92.42

>  <TopoPSA>
92.42

>  <JGI1>
0.25

>  <JGI2>
0.1

>  <JGI3>
0.04

>  <JGI4>
0.05

>  <JGI5>
0.03

>  <Diameter>
9

>  <Radius>
5

>  <TMWC10>
94.21

>  <TSRW10>
44.64

>  <MW>
194.07

>  <AMW>
8.09

>  <WPath>
339

>  <WPol>
16

>  <Zagreb1>
64

>  <Zagreb2>
69

>  <mZagreb2>
3.19

>  <yes>


>  <nAR-cont>
0.336376

>  <nHA-cont>
0.887625254

>  <MWHBN>
0.430697199

>  <MWHBN-cont>
0.357074048

>  <TPSA-cont>
0.354851011

>  <pka_cont>
0.97

>  <yes.1>


>  <BBB_SCORE>
2.954314347

>  <MMFF94 Energy>
8.1226

$$$$
Compound 2858
Actelion Java MolfileCreator 2.0

  0  0  0  0  0  0              0 V3000
M  V30 BEGIN CTAB
M  V30 COUNTS 25 26 0 0 0
M  V30 BEGIN ATOM
M  V30 1 S -0.8322 -0.5824 -2.4148 0
M  V30 2 O 0.0467 -1.0538 -3.4655 0
M  V30 3 O -1.9832 0.2399 -2.7219 0
M  V30 4 N -1.3539 -1.95 -1.5907 0
M  V30 5 C 0.1881 0.3022 -1.2561 0
M  V30 6 C -1.7139 -1.738 -0.2108 0
M  V30 7 C -0.2545 1.509 -0.7115 0
M  V30 8 C 1.4443 -0.2081 -0.9222 0
M  V30 9 S -3.0635 -0.8452 0.3305 0
M  V30 10 N -1.0014 -2.3402 0.7084 0
M  V30 11 C 0.5607 2.1934 0.1936 0
M  V30 12 C 2.2483 0.4874 -0.0152 0
M  V30 13 C -2.6365 -1.2232 1.9485 0
M  V30 14 C -1.5174 -2.0292 1.9526 0
M  V30 15 C 1.8218 1.6983 0.5389 0
M  V30 16 N 2.6047 2.3593 1.4674 0
M  V30 17 H -0.6881 -2.7119 -1.6943 0
M  V30 18 H -1.2253 1.9219 -0.9769 0
M  V30 19 H 1.8025 -1.1392 -1.3536 0
M  V30 20 H 0.2031 3.1251 0.6253 0
M  V30 21 H 3.2183 0.0764 0.2531 0
M  V30 22 H -3.21 -0.8582 2.7884 0
M  V30 23 H -1.0375 -2.4245 2.8401 0
M  V30 24 H 3.5478 2.0461 1.6531 0
M  V30 25 H 2.3359 3.2752 1.8005 0
M  V30 END ATOM
M  V30 BEGIN BOND
M  V30 1 2 1 2
M  V30 2 2 1 3
M  V30 3 1 1 4
M  V30 4 1 1 5
M  V30 5 1 4 6
M  V30 6 2 5 7
M  V30 7 1 5 8
M  V30 8 1 6 9
M  V30 9 2 6 10
M  V30 10 1 7 11
M  V30 11 2 8 12
M  V30 12 1 9 13
M  V30 13 1 10 14
M  V30 14 2 11 15
M  V30 15 1 15 16
M  V30 16 1 12 15
M  V30 17 2 13 14
M  V30 18 1 4 17
M  V30 19 1 7 18
M  V30 20 1 8 19
M  V30 21 1 11 20
M  V30 22 1 12 21
M  V30 23 1 13 22
M  V30 24 1 14 23
M  V30 25 1 16 24
M  V30 26 1 16 25
M  V30 END BOND
M  V30 END CTAB
M  END
>  <Column 1>
3630

>  <level_0>
5894

>  <index>
5895

>  <Unnamed: 0>
5895

>  <NO.>
5907

>  <Name>
sulfathiazole

>  <IUPAC_name>
4-amino-n-(1-3-thiazol-2-yl)benzenesulfonamide

>  <SMILES>
Nc1ccc(S(=O)(=O)Nc2nccs2)cc1

>  <CID>
5340

>  <logBB>


>  <BBB+/BBB->
BBB-

>  <Inchi>
InChI=1S/C9H9N3O2S2/c10-7-1-3-8(4-2-7)16(13-14)12-9-11-5-6-15-9/h1-6H-10H2-(H-11-12)

>  <threshold>


>  <reference>
R23|

>  <group>
C

>  <Class>
-1

>  <ABC>
12.39

>  <ABCGG>
11.13

>  <nAcid>
0

>  <nBase>
0

>  <nAromAtom>
11

>  <nAromBond>
11

>  <nAtom>
25

>  <nHeavyAtom>
16

>  <nSpiro>
0

>  <nBridgehead>
0

>  <nHetero>
7

>  <nN>
3

>  <nO>
2

>  <nF>
0

>  <BalabanJ>
1.85

>  <BertzCT>
561.31

>  <nBonds>
26

>  <nBondsO>
17

>  <nBondsS>
13

>  <nBondsD>
2

>  <nBondsT>
0

>  <nBondsA>
11

>  <nBondsM>
13

>  <nBondsKS>
19

>  <nBondsKD>
7

>  <RNCG>
0.26

>  <RPCG>
0.17

>  <FCSP3>
0

>  <SZ>
22

>  <Sm>
21.26

>  <Sv>
17.52

>  <Sse>
25.8

>  <Sp>
19

>  <Si>
28

>  <MZ>
0.88

>  <Mm>
0.85

>  <Mv>
0.7

>  <Mse>
1.03

>  <Mp>
0.76

>  <Mi>
1.12

>  <NsCH3>
0

>  <NdCH2>
0

>  <NssCH2>
0

>  <NtCH>
0

>  <NdsCH>
0

>  <NaaCH>
6

>  <NsssCH>
0

>  <NddC>
0

>  <NtsC>
0

>  <NdssC>
0

>  <NaasC>
3

>  <NaaaC>
0

>  <NssssC>
0

>  <NsNH3>
0

>  <NsNH2>
1

>  <NssNH2>
0

>  <NdNH>
0

>  <NssNH>
1

>  <NaaNH>
0

>  <NtN>
0

>  <NsssNH>
0

>  <NdsN>
0

>  <NaaN>
1

>  <NsssN>
0

>  <NddsN>
0

>  <NaasN>
0

>  <NssssN>
0

>  <NsOH>
0

>  <NdO>
2

>  <NssO>
0

>  <NaaO>
0

>  <NsF>
0

>  <NsSiH3>
0

>  <NssSiH2>
0

>  <NsssSiH>
0

>  <NssssSi>
0

>  <NsPH2>
0

>  <NssPH>
0

>  <NsssP>
0

>  <NdsssP>
0

>  <NsssssP>
0

>  <NsSH>
0

>  <NdS>
0

>  <NssS>
0

>  <NaaS>
1

>  <NdssS>
0

>  <NddssS>
1

>  <NsCl>
0

>  <NsBr>
0

>  <NsI>
0

>  <fragCpx>
49.07

>  <fMF>
0.52

>  <nHBAcc>
5

>  <nHBDon>
2

>  <Kier1>
12.46

>  <Kier2>
5.1

>  <Lipinski>
1

>  <GhoseFilter>
1

>  <FilterItLogS>
-2.53

>  <VMcGowan>
168.83

>  <LabuteASA>
97

>  <PEOE_VSA1>
5.73

>  <PEOE_VSA2>
4.72

>  <PEOE_VSA3>
13.4

>  <PEOE_VSA4>
0

>  <PEOE_VSA5>
11.34

>  <PEOE_VSA6>
0

>  <PEOE_VSA7>
24.27

>  <PEOE_VSA8>
17.26

>  <PEOE_VSA9>
4.9

>  <PEOE_VSA10>
0

>  <PEOE_VSA11>
5.13

>  <PEOE_VSA12>
0

>  <PEOE_VSA13>
10.02

>  <SMR_VSA1>
8.42

>  <SMR_VSA2>
0

>  <SMR_VSA3>
4.98

>  <SMR_VSA4>
0

>  <SMR_VSA5>
4.9

>  <SMR_VSA6>
10.46

>  <SMR_VSA7>
35.84

>  <SMR_VSA8>
0

>  <SMR_VSA9>
0

>  <SlogP_VSA1>
10.46

>  <SlogP_VSA2>
13.4

>  <SlogP_VSA3>
10.02

>  <SlogP_VSA4>
0

>  <SlogP_VSA5>
0

>  <SlogP_VSA6>
40.74

>  <SlogP_VSA7>
0

>  <SlogP_VSA8>
0

>  <SlogP_VSA9>
0

>  <SlogP_VSA10>
10.82

>  <SlogP_VSA11>
0

>  <EState_VSA1>
10.02

>  <EState_VSA2>
4.9

>  <EState_VSA3>
10.82

>  <EState_VSA4>
0

>  <EState_VSA5>
41.8

>  <EState_VSA6>
5.38

>  <EState_VSA7>
0

>  <EState_VSA8>
9.71

>  <EState_VSA9>
5.73

>  <EState_VSA10>
8.42

>  <VSA_EState1>
26.02

>  <VSA_EState2>
4.01

>  <VSA_EState3>
2.04

>  <VSA_EState4>
6

>  <VSA_EState5>
0

>  <VSA_EState6>
5.98

>  <VSA_EState7>
1.53

>  <VSA_EState8>
0

>  <VSA_EState9>
-3.56

>  <apol>
31.74

>  <bpol>
19.28

>  <nRing>
2

>  <nHRing>
1

>  <naRing>
2

>  <naHRing>
1

>  <nARing 2>
0

>  <nAHRing 2>
0

>  <nFRing>
0

>  <nFHRing>
0

>  <nFaRing>
0

>  <nFaHRing>
0

>  <nFARing 2>
0

>  <nFAHRing 2>
0

>  <nRot>
3

>  <SLogP>
1.53

>  <SMR>
63.78

>  <TopoPSA(NO)>
85.08

>  <TopoPSA>
121.7

>  <JGI1>
0.26

>  <JGI2>
0.09

>  <JGI3>
0.06

>  <JGI4>
0.04

>  <JGI5>
0.04

>  <Diameter>
9

>  <Radius>
5

>  <TMWC10>
103.31

>  <TSRW10>
61.44

>  <MW>
255.01

>  <AMW>
10.2

>  <WPath>
448

>  <WPol>
20

>  <Zagreb1>
82

>  <Zagreb2>
93

>  <mZagreb2>
3.46

>  <yes>


>  <nAR-cont>
0.336376

>  <nHA-cont>
0.954961865

>  <MWHBN>
0.438348409

>  <MWHBN-cont>
0.328403755

>  <TPSA-cont>
0

>  <pka_cont>
0.97

>  <yes.1>


>  <BBB_SCORE>
2.268943497

>  <MMFF94 Energy>
-76.707

$$$$
Compound 2859
Actelion Java MolfileCreator 2.0

  0  0  0  0  0  0              0 V3000
M  V30 BEGIN CTAB
M  V30 COUNTS 27 29 0 0 0
M  V30 BEGIN ATOM
M  V30 1 N -0.5534 -0.5534 -0.8698 0
M  V30 2 C -0.1703 -1.1796 0.2581 0
M  V30 3 C -0.2767 0.7543 -1.0259 0
M  V30 4 C 0.515 -0.5161 1.291 0
M  V30 5 C -0.4551 -2.5305 0.421 0
M  V30 6 C 0.403 1.5013 -0.0478 0
M  V30 7 C -0.6721 1.4029 -2.1903 0
M  V30 8 C 0.7984 0.8431 1.1214 0
M  V30 9 C 0.8967 -1.2143 2.4473 0
M  V30 10 C -0.0929 -3.239 1.5716 0
M  V30 11 C 0.665 2.8645 -0.256 0
M  V30 12 C -0.4088 2.7576 -2.4195 0
M  V30 13 C 0.5955 -2.5696 2.5799 0
M  V30 14 N -0.3727 -4.5883 1.687 0
M  V30 15 C 0.255 3.4854 -1.4357 0
M  V30 16 N -0.8391 3.3736 -3.5805 0
M  V30 17 H -0.9799 -3.0399 -0.3828 0
M  V30 18 H -1.2026 0.8223 -2.9404 0
M  V30 19 H 1.3265 1.3888 1.8994 0
M  V30 20 H 1.4313 -0.7102 3.2485 0
M  V30 21 H 1.1856 3.4506 0.4971 0
M  V30 22 H 0.9036 -3.0969 3.4785 0
M  V30 23 H -0.1572 -5.0901 2.537 0
M  V30 24 H -0.9117 -5.0607 0.9738 0
M  V30 25 H 0.4599 4.5429 -1.5785 0
M  V30 26 H -0.6066 4.3383 -3.7706 0
M  V30 27 H -1.281 2.833 -4.3118 0
M  V30 END ATOM
M  V30 BEGIN BOND
M  V30 1 1 1 2
M  V30 2 2 1 3
M  V30 3 1 2 4
M  V30 4 2 2 5
M  V30 5 1 3 6
M  V30 6 1 3 7
M  V30 7 1 4 8
M  V30 8 2 4 9
M  V30 9 1 5 10
M  V30 10 1 6 11
M  V30 11 2 7 12
M  V30 12 1 9 13
M  V30 13 1 10 14
M  V30 14 2 11 15
M  V30 15 1 12 16
M  V30 16 2 6 8
M  V30 17 2 10 13
M  V30 18 1 12 15
M  V30 19 1 5 17
M  V30 20 1 7 18
M  V30 21 1 8 19
M  V30 22 1 9 20
M  V30 23 1 11 21
M  V30 24 1 13 22
M  V30 25 1 14 23
M  V30 26 1 14 24
M  V30 27 1 15 25
M  V30 28 1 16 26
M  V30 29 1 16 27
M  V30 END BOND
M  V30 END CTAB
M  END
>  <Column 1>
3632

>  <level_0>
5896

>  <index>
5897

>  <Unnamed: 0>
5897

>  <NO.>
5909

>  <Name>
proflavine

>  <IUPAC_name>
acridine-3-6-diamine

>  <SMILES>
Nc1ccc2cc3ccc(N)cc3nc2c1

>  <CID>
7099

>  <logBB>


>  <BBB+/BBB->
BBB-

>  <Inchi>
InChI=1S/C13H11N3/c14-10-3-1-8-5-9-2-4-11(15)7-13(9)16-12(8)6-10/h1-7H-14-15H2

>  <threshold>


>  <reference>
R23|

>  <group>
C

>  <Class>
-1

>  <ABC>
12.87

>  <ABCGG>
10.01

>  <nAcid>
0

>  <nBase>
0

>  <nAromAtom>
14

>  <nAromBond>
16

>  <nAtom>
27

>  <nHeavyAtom>
16

>  <nSpiro>
0

>  <nBridgehead>
0

>  <nHetero>
3

>  <nN>
3

>  <nO>
0

>  <nF>
0

>  <BalabanJ>
1.67

>  <BertzCT>
632.14

>  <nBonds>
29

>  <nBondsO>
18

>  <nBondsS>
13

>  <nBondsD>
0

>  <nBondsT>
0

>  <nBondsA>
16

>  <nBondsM>
16

>  <nBondsKS>
22

>  <nBondsKD>
7

>  <RNCG>
0.31

>  <RPCG>
0.12

>  <FCSP3>
0

>  <SZ>
18.33

>  <Sm>
17.42

>  <Sv>
18.25

>  <Sse>
26.87

>  <Sp>
19.37

>  <Si>
30.16

>  <MZ>
0.68

>  <Mm>
0.65

>  <Mv>
0.68

>  <Mse>
1

>  <Mp>
0.72

>  <Mi>
1.12

>  <NsCH3>
0

>  <NdCH2>
0

>  <NssCH2>
0

>  <NtCH>
0

>  <NdsCH>
0

>  <NaaCH>
7

>  <NsssCH>
0

>  <NddC>
0

>  <NtsC>
0

>  <NdssC>
0

>  <NaasC>
2

>  <NaaaC>
4

>  <NssssC>
0

>  <NsNH3>
0

>  <NsNH2>
2

>  <NssNH2>
0

>  <NdNH>
0

>  <NssNH>
0

>  <NaaNH>
0

>  <NtN>
0

>  <NsssNH>
0

>  <NdsN>
0

>  <NaaN>
1

>  <NsssN>
0

>  <NddsN>
0

>  <NaasN>
0

>  <NssssN>
0

>  <NsOH>
0

>  <NdO>
0

>  <NssO>
0

>  <NaaO>
0

>  <NsF>
0

>  <NsSiH3>
0

>  <NssSiH2>
0

>  <NsssSiH>
0

>  <NssssSi>
0

>  <NsPH2>
0

>  <NssPH>
0

>  <NsssP>
0

>  <NdsssP>
0

>  <NsssssP>
0

>  <NsSH>
0

>  <NdS>
0

>  <NssS>
0

>  <NaaS>
0

>  <NdssS>
0

>  <NddssS>
0

>  <NsCl>
0

>  <NsBr>
0

>  <NsI>
0

>  <fragCpx>
84.03

>  <fMF>
0.52

>  <nHBAcc>
3

>  <nHBDon>
2

>  <Kier1>
11.11

>  <Kier2>
4.35

>  <Lipinski>
1

>  <GhoseFilter>
1

>  <FilterItLogS>
-3.61

>  <VMcGowan>
161.29

>  <LabuteASA>
92.69

>  <PEOE_VSA1>
11.47

>  <PEOE_VSA2>
0

>  <PEOE_VSA3>
4.98

>  <PEOE_VSA4>
0

>  <PEOE_VSA5>
0

>  <PEOE_VSA6>
12.13

>  <PEOE_VSA7>
30.33

>  <PEOE_VSA8>
22.15

>  <PEOE_VSA9>
11.03

>  <PEOE_VSA10>
0

>  <PEOE_VSA11>
0

>  <PEOE_VSA12>
0

>  <PEOE_VSA13>
0

>  <SMR_VSA1>
0

>  <SMR_VSA2>
0

>  <SMR_VSA3>
4.98

>  <SMR_VSA4>
0

>  <SMR_VSA5>
0

>  <SMR_VSA6>
11.47

>  <SMR_VSA7>
42.46

>  <SMR_VSA8>
0

>  <SMR_VSA9>
0

>  <SlogP_VSA1>
11.47

>  <SlogP_VSA2>
4.98

>  <SlogP_VSA3>
0

>  <SlogP_VSA4>
0

>  <SlogP_VSA5>
0

>  <SlogP_VSA6>
42.46

>  <SlogP_VSA7>
0

>  <SlogP_VSA8>
21.81

>  <SlogP_VSA9>
0

>  <SlogP_VSA10>
11.37

>  <SlogP_VSA11>
0

>  <EState_VSA1>
0

>  <EState_VSA2>
0

>  <EState_VSA3>
0

>  <EState_VSA4>
33.18

>  <EState_VSA5>
0

>  <EState_VSA6>
0

>  <EState_VSA7>
36.4

>  <EState_VSA8>
11.05

>  <EState_VSA9>
11.47

>  <EState_VSA10>
0

>  <VSA_EState1>
0

>  <VSA_EState2>
4.54

>  <VSA_EState3>
2.18

>  <VSA_EState4>
14.72

>  <VSA_EState5>
0

>  <VSA_EState6>
13.56

>  <VSA_EState7>
0

>  <VSA_EState8>
0

>  <VSA_EState9>
0

>  <apol>
32.34

>  <bpol>
11.04

>  <nRing>
3

>  <nHRing>
1

>  <naRing>
3

>  <naHRing>
1

>  <nARing 2>
0

>  <nAHRing 2>
0

>  <nFRing>
1

>  <nFHRing>
1

>  <nFaRing>
1

>  <nFaHRing>
1

>  <nFARing 2>
0

>  <nFAHRing 2>
0

>  <nRot>
0

>  <SLogP>
2.55

>  <SMR>
68.07

>  <TopoPSA(NO)>
64.93

>  <TopoPSA>
64.93

>  <JGI1>
0.22

>  <JGI2>
0.07

>  <JGI3>
0.04

>  <JGI4>
0.07

>  <JGI5>
0.02

>  <Diameter>
8

>  <Radius>
4

>  <TMWC10>
106.05

>  <TSRW10>
49.02

>  <MW>
209.1

>  <AMW>
7.74

>  <WPath>
413

>  <WPol>
25

>  <Zagreb1>
88

>  <Zagreb2>
104

>  <mZagreb2>
3.39

>  <yes>


>  <nAR-cont>
0.336376

>  <nHA-cont>
0.954961865

>  <MWHBN>
0.345774521

>  <MWHBN-cont>
0.685963654

>  <TPSA-cont>
0.546748281

>  <pka_cont>
0.97

>  <yes.1>


>  <BBB_SCORE>
3.898779908

>  <MMFF94 Energy>
32.112

$$$$
Compound 2860
Actelion Java MolfileCreator 2.0

  0  0  0  0  0  0              0 V3000
M  V30 BEGIN CTAB
M  V30 COUNTS 13 13 0 0 0
M  V30 BEGIN ATOM
M  V30 1 N -0.3846 1.1542 -1.7702 0
M  V30 2 C 0.4814 1.5511 -0.8151 0
M  V30 3 C -1.0065 -0.0241 -1.5597 0
M  V30 4 C 0.747 0.827 0.3373 0
M  V30 5 C -0.8047 -0.8159 -0.4392 0
M  V30 6 C 0.0834 -0.3793 0.5389 0
M  V30 7 N 0.3343 -1.1469 1.6616 0
M  V30 8 H 0.9771 2.4986 -1.0047 0
M  V30 9 H -1.6949 -0.3303 -2.3419 0
M  V30 10 H 1.4604 1.2057 1.0595 0
M  V30 11 H -1.336 -1.7548 -0.3399 0
M  V30 12 H -0.1825 -1.9992 1.8288 0
M  V30 13 H 0.9438 -0.8066 2.3925 0
M  V30 END ATOM
M  V30 BEGIN BOND
M  V30 1 2 1 2
M  V30 2 1 1 3
M  V30 3 1 2 4
M  V30 4 2 3 5
M  V30 5 2 4 6
M  V30 6 1 6 7
M  V30 7 1 5 6
M  V30 8 1 2 8
M  V30 9 1 3 9
M  V30 10 1 4 10
M  V30 11 1 5 11
M  V30 12 1 7 12
M  V30 13 1 7 13
M  V30 END BOND
M  V30 END CTAB
M  END
>  <Column 1>
3633

>  <level_0>
5898

>  <index>
5899

>  <Unnamed: 0>
5899

>  <NO.>
5911

>  <Name>
4-aminopyridine

>  <IUPAC_name>
pyridin-4-amine

>  <SMILES>
Nc1ccncc1

>  <CID>
1727

>  <logBB>


>  <BBB+/BBB->
BBB+

>  <Inchi>
InChI=1S/C5H6N2/c6-5-1-3-7-4-2-5/h1-4H-(H2-6-7)

>  <threshold>


>  <reference>
R23|

>  <group>
C

>  <Class>
-1

>  <ABC>
5.06

>  <ABCGG>
4.79

>  <nAcid>
0

>  <nBase>
0

>  <nAromAtom>
6

>  <nAromBond>
6

>  <nAtom>
13

>  <nHeavyAtom>
7

>  <nSpiro>
0

>  <nBridgehead>
0

>  <nHetero>
2

>  <nN>
2

>  <nO>
0

>  <nF>
0

>  <BalabanJ>
2.12

>  <BertzCT>
136.01

>  <nBonds>
13

>  <nBondsO>
7

>  <nBondsS>
7

>  <nBondsD>
0

>  <nBondsT>
0

>  <nBondsA>
6

>  <nBondsM>
6

>  <nBondsKS>
10

>  <nBondsKD>
3

>  <RNCG>
0.57

>  <RPCG>
0.22

>  <FCSP3>
0

>  <SZ>
8.33

>  <Sm>
7.84

>  <Sv>
8.14

>  <Sse>
12.99

>  <Sp>
8.71

>  <Si>
14.83

>  <MZ>
0.64

>  <Mm>
0.6

>  <Mv>
0.63

>  <Mse>
1

>  <Mp>
0.67

>  <Mi>
1.14

>  <NsCH3>
0

>  <NdCH2>
0

>  <NssCH2>
0

>  <NtCH>
0

>  <NdsCH>
0

>  <NaaCH>
4

>  <NsssCH>
0

>  <NddC>
0

>  <NtsC>
0

>  <NdssC>
0

>  <NaasC>
1

>  <NaaaC>
0

>  <NssssC>
0

>  <NsNH3>
0

>  <NsNH2>
1

>  <NssNH2>
0

>  <NdNH>
0

>  <NssNH>
0

>  <NaaNH>
0

>  <NtN>
0

>  <NsssNH>
0

>  <NdsN>
0

>  <NaaN>
1

>  <NsssN>
0

>  <NddsN>
0

>  <NaasN>
0

>  <NssssN>
0

>  <NsOH>
0

>  <NdO>
0

>  <NssO>
0

>  <NaaO>
0

>  <NsF>
0

>  <NsSiH3>
0

>  <NssSiH2>
0

>  <NsssSiH>
0

>  <NssssSi>
0

>  <NsPH2>
0

>  <NssPH>
0

>  <NsssP>
0

>  <NdsssP>
0

>  <NsssssP>
0

>  <NsSH>
0

>  <NdS>
0

>  <NssS>
0

>  <NaaS>
0

>  <NdssS>
0

>  <NddssS>
0

>  <NsCl>
0

>  <NsBr>
0

>  <NsI>
0

>  <fragCpx>
7.02

>  <fMF>
0.46

>  <nHBAcc>
2

>  <nHBDon>
1

>  <Kier1>
5.14

>  <Kier2>
2.34

>  <Lipinski>
1

>  <GhoseFilter>
0

>  <FilterItLogS>
-0.97

>  <VMcGowan>
77.51

>  <LabuteASA>
41.99

>  <PEOE_VSA1>
5.73

>  <PEOE_VSA2>
4.98

>  <PEOE_VSA3>
0

>  <PEOE_VSA4>
0

>  <PEOE_VSA5>
0

>  <PEOE_VSA6>
0

>  <PEOE_VSA7>
12.13

>  <PEOE_VSA8>
18.08

>  <PEOE_VSA9>
0

>  <PEOE_VSA10>
0

>  <PEOE_VSA11>
0

>  <PEOE_VSA12>
0

>  <PEOE_VSA13>
0

>  <SMR_VSA1>
0

>  <SMR_VSA2>
0

>  <SMR_VSA3>
4.98

>  <SMR_VSA4>
0

>  <SMR_VSA5>
0

>  <SMR_VSA6>
5.73

>  <SMR_VSA7>
24.53

>  <SMR_VSA8>
0

>  <SMR_VSA9>
0

>  <SlogP_VSA1>
5.73

>  <SlogP_VSA2>
4.98

>  <SlogP_VSA3>
0

>  <SlogP_VSA4>
0

>  <SlogP_VSA5>
0

>  <SlogP_VSA6>
24.53

>  <SlogP_VSA7>
0

>  <SlogP_VSA8>
0

>  <SlogP_VSA9>
0

>  <SlogP_VSA10>
5.69

>  <SlogP_VSA11>
0

>  <EState_VSA1>
0

>  <EState_VSA2>
0

>  <EState_VSA3>
0

>  <EState_VSA4>
5.69

>  <EState_VSA5>
0

>  <EState_VSA6>
24.53

>  <EState_VSA7>
0

>  <EState_VSA8>
4.98

>  <EState_VSA9>
5.73

>  <EState_VSA10>
0

>  <VSA_EState1>
0

>  <VSA_EState2>
3.77

>  <VSA_EState3>
0

>  <VSA_EState4>
6.08

>  <VSA_EState5>
0

>  <VSA_EState6>
3.5

>  <VSA_EState7>
3.32

>  <VSA_EState8>
0

>  <VSA_EState9>
0

>  <apol>
14.55

>  <bpol>
6.59

>  <nRing>
1

>  <nHRing>
1

>  <naRing>
1

>  <naHRing>
1

>  <nARing 2>
0

>  <nAHRing 2>
0

>  <nFRing>
0

>  <nFHRing>
0

>  <nFaRing>
0

>  <nFaHRing>
0

>  <nFARing 2>
0

>  <nFAHRing 2>
0

>  <nRot>
0

>  <SLogP>
0.66

>  <SMR>
28.65

>  <TopoPSA(NO)>
38.91

>  <TopoPSA>
38.91

>  <JGI1>
0.14

>  <JGI2>
0.06

>  <JGI3>
0.04

>  <JGI4>
0.11

>  <JGI5>
0

>  <Diameter>
4

>  <Radius>
3

>  <TMWC10>
71.32

>  <TSRW10>
33.54

>  <MW>
94.05

>  <AMW>
7.23

>  <WPath>
42

>  <WPol>
5

>  <Zagreb1>
30

>  <Zagreb2>
31

>  <mZagreb2>
1.67

>  <yes>


>  <nAR-cont>
0.336376

>  <nHA-cont>
0.357561384

>  <MWHBN>
0.309344112

>  <MWHBN-cont>
0.811952594

>  <TPSA-cont>
0.728384038

>  <pka_cont>
0.97

>  <yes.1>


>  <BBB_SCORE>
3.853634351

>  <MMFF94 Energy>
4.7315

$$$$
Compound 2861
Actelion Java MolfileCreator 2.0

  0  0  0  0  0  0              0 V3000
M  V30 BEGIN CTAB
M  V30 COUNTS 52 54 0 0 0
M  V30 BEGIN ATOM
M  V30 1 S -6.0776 -3.0353 4.8758 0
M  V30 2 C -5.3391 -1.4923 5.0149 0
M  V30 3 C -4.6189 -3.7743 5.3837 0
M  V30 4 N -4.0871 -1.5015 5.4035 0
M  V30 5 N -6.0108 -0.3713 4.7388 0
M  V30 6 C -3.6628 -2.808 5.6268 0
M  V30 7 C -2.2573 -3.0269 6.0797 0
M  V30 8 C -1.26 -2.8307 4.9485 0
M  V30 9 O -0.425 -3.6964 4.6964 0
M  V30 10 N -1.3812 -1.6015 4.3215 0
M  V30 11 C -0.5839 -1.0838 3.2852 0
M  V30 12 C 0.6613 -1.6035 2.9337 0
M  V30 13 C -1.0723 0.0318 2.5965 0
M  V30 14 C 1.4045 -1.0241 1.8993 0
M  V30 15 C -0.3319 0.6117 1.5623 0
M  V30 16 C 0.9162 0.0898 1.2068 0
M  V30 17 C 1.7085 0.6978 0.0753 0
M  V30 18 C 1.3729 0.039 -1.2688 0
M  V30 19 N 2.1506 0.6573 -2.3475 0
M  V30 20 C 1.8399 0.0284 -3.6483 0
M  V30 21 C 2.7247 0.5668 -4.805 0 CFG=2
M  V30 22 O 4.0948 0.5543 -4.3738 0
M  V30 23 C 2.397 1.9375 -5.3698 0
M  V30 24 C 1.5786 2.8695 -4.7173 0
M  V30 25 C 2.9679 2.3044 -6.6024 0
M  V30 26 C 1.3265 4.1217 -5.2854 0
M  V30 27 C 2.716 3.5549 -7.1697 0
M  V30 28 C 1.8927 4.4633 -6.511 0
M  V30 29 H -4.5332 -4.848 5.4744 0
M  V30 30 H -6.9781 -0.3855 4.4454 0
M  V30 31 H -5.567 0.53 4.852 0
M  V30 32 H -2.1392 -4.0406 6.4793 0
M  V30 33 H -2.0094 -2.3245 6.8838 0
M  V30 34 H -2.2036 -1.0564 4.5803 0
M  V30 35 H 1.0859 -2.4577 3.4522 0
M  V30 36 H -2.0395 0.4587 2.8496 0
M  V30 37 H 2.3707 -1.4531 1.6426 0
M  V30 38 H -0.7375 1.4731 1.036 0
M  V30 39 H 2.7805 0.5995 0.2913 0
M  V30 40 H 1.508 1.7765 0.0304 0
M  V30 41 H 0.3013 0.1538 -1.4741 0
M  V30 42 H 1.5871 -1.0357 -1.2166 0
M  V30 43 H 3.149 0.5138 -2.1748 0
M  V30 44 H 0.7788 0.1501 -3.8954 0
M  V30 45 H 2.0422 -1.0466 -3.5569 0
M  V30 46 H 2.6424 -0.1575 -5.6254 0
M  V30 47 H 4.2949 1.4675 -4.0999 0
M  V30 48 H 1.1278 2.6437 -3.7537 0
M  V30 49 H 3.6215 1.6084 -7.1261 0
M  V30 50 H 0.6886 4.832 -4.7652 0
M  V30 51 H 3.1651 3.819 -8.1234 0
M  V30 52 H 1.6956 5.438 -6.9492 0
M  V30 END ATOM
M  V30 BEGIN BOND
M  V30 1 1 1 2
M  V30 2 1 1 3
M  V30 3 2 2 4
M  V30 4 1 2 5
M  V30 5 2 3 6
M  V30 6 1 6 7
M  V30 7 1 7 8
M  V30 8 2 8 9
M  V30 9 1 8 10
M  V30 10 1 10 11
M  V30 11 2 11 12
M  V30 12 1 11 13
M  V30 13 1 12 14
M  V30 14 2 13 15
M  V30 15 2 14 16
M  V30 16 1 16 17
M  V30 17 1 17 18
M  V30 18 1 18 19
M  V30 19 1 19 20
M  V30 20 1 20 21
M  V30 21 1 21 22
M  V30 22 1 21 23
M  V30 23 2 23 24
M  V30 24 1 23 25
M  V30 25 1 24 26
M  V30 26 2 25 27
M  V30 27 2 26 28
M  V30 28 1 4 6
M  V30 29 1 15 16
M  V30 30 1 27 28
M  V30 31 1 3 29
M  V30 32 1 5 30
M  V30 33 1 5 31
M  V30 34 1 7 32
M  V30 35 1 7 33
M  V30 36 1 10 34
M  V30 37 1 12 35
M  V30 38 1 13 36
M  V30 39 1 14 37
M  V30 40 1 15 38
M  V30 41 1 17 39
M  V30 42 1 17 40
M  V30 43 1 18 41
M  V30 44 1 18 42
M  V30 45 1 19 43
M  V30 46 1 20 44
M  V30 47 1 20 45
M  V30 48 1 21 46
M  V30 49 1 22 47
M  V30 50 1 24 48
M  V30 51 1 25 49
M  V30 52 1 26 50
M  V30 53 1 27 51
M  V30 54 1 28 52
M  V30 END BOND
M  V30 BEGIN COLLECTION
M  V30 MDLV30/STERAC1 ATOMS=(1 21)
M  V30 END COLLECTION
M  V30 END CTAB
M  END
>  <Column 1>
3634

>  <level_0>
5900

>  <index>
5901

>  <Unnamed: 0>
5901

>  <NO.>
5913

>  <Name>
(s)-mirabegron

>  <IUPAC_name>
2-(2-amino-1-3-thiazol-4-yl)-n-[4-[2-[(2-hydroxy-2-phenylethyl)amino]ethyl]phenyl]acetamide

>  <SMILES>
Nc1nc(CC(=O)Nc2ccc(CCNCC(O)c3ccccc3)cc2)cs1

>  <CID>
18319735

>  <logBB>


>  <BBB+/BBB->
BBB+

>  <Inchi>
InChI=1S/C21H24N4O2S/c22-21-25-18(14-28-21)12-20(27)24-17-8-6-15(7-9-17)10-11-23-13-19(26)16-4-2-1-3-5-16/h1-9-14-19-23-26H-10-13H2-(H2-22-25)(H-24-27)

>  <threshold>


>  <reference>
R23|

>  <group>
C

>  <Class>
-1

>  <ABC>
21.5

>  <ABCGG>
15.84

>  <nAcid>
0

>  <nBase>
1

>  <nAromAtom>
17

>  <nAromBond>
17

>  <nAtom>
52

>  <nHeavyAtom>
28

>  <nSpiro>
0

>  <nBridgehead>
0

>  <nHetero>
7

>  <nN>
4

>  <nO>
2

>  <nF>
0

>  <BalabanJ>
1.21

>  <BertzCT>
880.94

>  <nBonds>
54

>  <nBondsO>
30

>  <nBondsS>
36

>  <nBondsD>
1

>  <nBondsT>
0

>  <nBondsA>
17

>  <nBondsM>
18

>  <nBondsKS>
45

>  <nBondsKD>
9

>  <RNCG>
0.15

>  <RPCG>
0.09

>  <FCSP3>
0.24

>  <SZ>
35

>  <Sm>
33.01

>  <Sv>
33.15

>  <Sse>
52.04

>  <Sp>
35.91

>  <Si>
58.49

>  <MZ>
0.67

>  <Mm>
0.63

>  <Mv>
0.64

>  <Mse>
1

>  <Mp>
0.69

>  <Mi>
1.12

>  <NsCH3>
0

>  <NdCH2>
0

>  <NssCH2>
4

>  <NtCH>
0

>  <NdsCH>
0

>  <NaaCH>
10

>  <NsssCH>
1

>  <NddC>
0

>  <NtsC>
0

>  <NdssC>
1

>  <NaasC>
5

>  <NaaaC>
0

>  <NssssC>
0

>  <NsNH3>
0

>  <NsNH2>
1

>  <NssNH2>
0

>  <NdNH>
0

>  <NssNH>
2

>  <NaaNH>
0

>  <NtN>
0

>  <NsssNH>
0

>  <NdsN>
0

>  <NaaN>
1

>  <NsssN>
0

>  <NddsN>
0

>  <NaasN>
0

>  <NssssN>
0

>  <NsOH>
1

>  <NdO>
1

>  <NssO>
0

>  <NaaO>
0

>  <NsF>
0

>  <NsSiH3>
0

>  <NssSiH2>
0

>  <NsssSiH>
0

>  <NssssSi>
0

>  <NsPH2>
0

>  <NssPH>
0

>  <NsssP>
0

>  <NdsssP>
0

>  <NsssssP>
0

>  <NsSH>
0

>  <NdS>
0

>  <NssS>
0

>  <NaaS>
1

>  <NdssS>
0

>  <NddssS>
0

>  <NsCl>
0

>  <NsBr>
0

>  <NsI>
0

>  <fragCpx>
144.07

>  <fMF>
0.48

>  <nHBAcc>
6

>  <nHBDon>
4

>  <Kier1>
22.68

>  <Kier2>
12

>  <Lipinski>
1

>  <GhoseFilter>
1

>  <FilterItLogS>
-5.53

>  <VMcGowan>
303.48

>  <LabuteASA>
167.99

>  <PEOE_VSA1>
21.47

>  <PEOE_VSA2>
4.79

>  <PEOE_VSA3>
4.98

>  <PEOE_VSA4>
0

>  <PEOE_VSA5>
11.34

>  <PEOE_VSA6>
42.46

>  <PEOE_VSA7>
36.23

>  <PEOE_VSA8>
17.61

>  <PEOE_VSA9>
18.22

>  <PEOE_VSA10>
0

>  <PEOE_VSA11>
5.13

>  <PEOE_VSA12>
5.91

>  <PEOE_VSA13>
0

>  <SMR_VSA1>
9.9

>  <SMR_VSA2>
0

>  <SMR_VSA3>
10.3

>  <SMR_VSA4>
0

>  <SMR_VSA5>
18.95

>  <SMR_VSA6>
24.14

>  <SMR_VSA7>
76.8

>  <SMR_VSA8>
0

>  <SMR_VSA9>
0

>  <SlogP_VSA1>
16.37

>  <SlogP_VSA2>
29.09

>  <SlogP_VSA3>
17.64

>  <SlogP_VSA4>
0

>  <SlogP_VSA5>
22.92

>  <SlogP_VSA6>
59.98

>  <SlogP_VSA7>
0

>  <SlogP_VSA8>
0

>  <SlogP_VSA9>
0

>  <SlogP_VSA10>
10.82

>  <SlogP_VSA11>
0

>  <EState_VSA1>
6.1

>  <EState_VSA2>
12.33

>  <EState_VSA3>
17.37

>  <EState_VSA4>
29.78

>  <EState_VSA5>
11.34

>  <EState_VSA6>
5.38

>  <EState_VSA7>
54.6

>  <EState_VSA8>
15.62

>  <EState_VSA9>
5.73

>  <EState_VSA10>
9.9

>  <VSA_EState1>
0

>  <VSA_EState2>
16.14

>  <VSA_EState3>
18.53

>  <VSA_EState4>
9.08

>  <VSA_EState5>
-0.12

>  <VSA_EState6>
17.38

>  <VSA_EState7>
0.54

>  <VSA_EState8>
1.28

>  <VSA_EState9>
0

>  <apol>
59.98

>  <bpol>
29.11

>  <nRing>
3

>  <nHRing>
1

>  <naRing>
3

>  <naHRing>
1

>  <nARing 2>
0

>  <nAHRing 2>
0

>  <nFRing>
0

>  <nFHRing>
0

>  <nFaRing>
0

>  <nFaHRing>
0

>  <nFARing 2>
0

>  <nFAHRing 2>
0

>  <nRot>
9

>  <SLogP>
2.77

>  <SMR>
113.28

>  <TopoPSA(NO)>
100.27

>  <TopoPSA>
128.51

>  <JGI1>
0.18

>  <JGI2>
0.06

>  <JGI3>
0.05

>  <JGI4>
0.03

>  <JGI5>
0.02

>  <Diameter>
19

>  <Radius>
10

>  <TMWC10>
131.83

>  <TSRW10>
76.03

>  <MW>
396.16

>  <AMW>
7.62

>  <WPath>
2740

>  <WPol>
35

>  <Zagreb1>
138

>  <Zagreb2>
154

>  <mZagreb2>
6.28

>  <yes>


>  <nAR-cont>
0.336376

>  <nHA-cont>
0.82432561

>  <MWHBN>
0.502417419

>  <MWHBN-cont>
0

>  <TPSA-cont>
0

>  <pka_cont>
0.97

>  <yes.1>


>  <BBB_SCORE>
1.64570161

>  <MMFF94 Energy>
41.317

$$$$
Compound 2862
Actelion Java MolfileCreator 2.0

  0  0  0  0  0  0              0 V3000
M  V30 BEGIN CTAB
M  V30 COUNTS 42 44 0 0 0
M  V30 BEGIN ATOM
M  V30 1 F -1.9595 -4.6587 4.4131 0
M  V30 2 C -0.6575 -5.0524 4.3533 0
M  V30 3 F -0.6837 -6.4136 4.3076 0
M  V30 4 F -0.1103 -4.7287 5.5564 0
M  V30 5 C 0.0948 -4.4373 3.1974 0
M  V30 6 C -0.1936 -3.126 2.7836 0
M  V30 7 C 1.1139 -5.1469 2.5419 0
M  V30 8 C 0.5034 -2.5287 1.7228 0
M  V30 9 C 1.833 -4.5681 1.4836 0
M  V30 10 C 0.1922 -1.1683 1.2902 0
M  V30 11 C 1.5112 -3.2618 1.0791 0
M  V30 12 C 2.9093 -5.3445 0.7626 0
M  V30 13 N -0.7507 -0.4043 1.8528 0
M  V30 14 N 0.8428 -0.5707 0.2494 0
M  V30 15 F 3.4709 -6.3165 1.5348 0
M  V30 16 F 2.4346 -5.9759 -0.3454 0
M  V30 17 F 3.9413 -4.564 0.3403 0
M  V30 18 N -0.6832 0.7688 1.1588 0
M  V30 19 C 0.2872 0.6163 0.1887 0
M  V30 20 C -1.5392 1.8431 1.4254 0
M  V30 21 C -1.626 3.0837 0.9227 0
M  V30 22 C -0.6953 3.7219 -0.0299 0
M  V30 23 O 0.5176 3.6081 0.075 0
M  V30 24 N -1.3486 4.4584 -0.9933 0
M  V30 25 N -0.5796 5.1313 -1.9296 0
M  V30 26 C -0.5934 4.725 -3.264 0
M  V30 27 N 0.4701 5.0938 -4.0119 0
M  V30 28 C -1.6377 4.0072 -3.8511 0
M  V30 29 C 0.4608 4.7136 -5.3121 0
M  V30 30 N -1.6601 3.6258 -5.155 0
M  V30 31 C -0.5794 3.9953 -5.8716 0
M  V30 32 H -0.9769 -2.5653 3.2958 0
M  V30 33 H 1.351 -6.1639 2.8599 0
M  V30 34 H 2.0592 -2.808 0.2513 0
M  V30 35 H 0.536 1.3749 -0.5362 0
M  V30 36 H -2.2686 1.574 2.1874 0
M  V30 37 H -2.417 3.7353 1.2842 0
M  V30 38 H -2.3505 4.6163 -1.0091 0
M  V30 39 H 0.3143 5.5273 -1.6376 0
M  V30 40 H -2.5104 3.7097 -3.283 0
M  V30 41 H 1.3247 5.0078 -5.8971 0
M  V30 42 H -0.5705 3.699 -6.914 0
M  V30 END ATOM
M  V30 BEGIN BOND
M  V30 1 1 1 2
M  V30 2 1 2 3
M  V30 3 1 2 4
M  V30 4 1 2 5
M  V30 5 2 5 6
M  V30 6 1 5 7
M  V30 7 1 6 8
M  V30 8 2 7 9
M  V30 9 1 8 10
M  V30 10 2 8 11
M  V30 11 1 9 12
M  V30 12 2 10 13
M  V30 13 1 10 14
M  V30 14 1 12 15
M  V30 15 1 12 16
M  V30 16 1 12 17
M  V30 17 1 13 18
M  V30 18 2 14 19
M  V30 19 1 18 20
M  V30 20 2 20 21
M  V30 21 1 21 22
M  V30 22 2 22 23
M  V30 23 1 22 24
M  V30 24 1 24 25
M  V30 25 1 25 26
M  V30 26 2 26 27
M  V30 27 1 26 28
M  V30 28 1 27 29
M  V30 29 2 28 30
M  V30 30 2 29 31
M  V30 31 1 9 11
M  V30 32 1 18 19
M  V30 33 1 30 31
M  V30 34 1 6 32
M  V30 35 1 7 33
M  V30 36 1 11 34
M  V30 37 1 19 35
M  V30 38 1 20 36
M  V30 39 1 21 37
M  V30 40 1 24 38
M  V30 41 1 25 39
M  V30 42 1 28 40
M  V30 43 1 29 41
M  V30 44 1 31 42
M  V30 END BOND
M  V30 END CTAB
M  END
>  <Column 1>
3643

>  <level_0>
5909

>  <index>
5910

>  <Unnamed: 0>
5910

>  <NO.>
5922

>  <Name>
selinexor

>  <IUPAC_name>
(z)-3-[3-[3-5-bis(trifluoromethyl)phenyl]-1-2-4-triazol-1-yl]-n'-pyrazin-2-ylprop-2-enehydrazide

>  <SMILES>
O=C(/C=C\n1cnc(-c2cc(C(F)(F)F)cc(C(F)(F)F)c2)n1)NNc1cnccn1

>  <CID>
71481097

>  <logBB>


>  <BBB+/BBB->
BBB-

>  <Inchi>
InChI=1S/C17H11F6N7O/c18-16(19-20)11-5-10(6-12(7-11)17(21-22)23)15-26-9-30(29-15)4-1-14(31)28-27-13-8-24-2-3-25-13/h1-9H-(H-25-27)(H-28-31)/b4-1-

>  <threshold>


>  <reference>
R23|

>  <group>
C

>  <Class>
-1

>  <ABC>
24.23

>  <ABCGG>
19

>  <nAcid>
0

>  <nBase>
0

>  <nAromAtom>
17

>  <nAromBond>
17

>  <nAtom>
42

>  <nHeavyAtom>
31

>  <nSpiro>
0

>  <nBridgehead>
0

>  <nHetero>
14

>  <nN>
7

>  <nO>
1

>  <nF>
6

>  <BalabanJ>
1.44

>  <BertzCT>
1060.09

>  <nBonds>
44

>  <nBondsO>
33

>  <nBondsS>
25

>  <nBondsD>
2

>  <nBondsT>
0

>  <nBondsA>
17

>  <nBondsM>
19

>  <nBondsKS>
34

>  <nBondsKD>
10

>  <RNCG>
0.09

>  <RPCG>
0.14

>  <FCSP3>
0.12

>  <SZ>
37.33

>  <Sm>
36.91

>  <Sv>
29.88

>  <Sse>
45.6

>  <Sp>
28.48

>  <Si>
49.81

>  <MZ>
0.89

>  <Mm>
0.88

>  <Mv>
0.71

>  <Mse>
1.09

>  <Mp>
0.68

>  <Mi>
1.19

>  <NsCH3>
0

>  <NdCH2>
0

>  <NssCH2>
0

>  <NtCH>
0

>  <NdsCH>
2

>  <NaaCH>
7

>  <NsssCH>
0

>  <NddC>
0

>  <NtsC>
0

>  <NdssC>
1

>  <NaasC>
5

>  <NaaaC>
0

>  <NssssC>
2

>  <NsNH3>
0

>  <NsNH2>
0

>  <NssNH2>
0

>  <NdNH>
0

>  <NssNH>
2

>  <NaaNH>
0

>  <NtN>
0

>  <NsssNH>
0

>  <NdsN>
0

>  <NaaN>
4

>  <NsssN>
0

>  <NddsN>
0

>  <NaasN>
1

>  <NssssN>
0

>  <NsOH>
0

>  <NdO>
1

>  <NssO>
0

>  <NaaO>
0

>  <NsF>
6

>  <NsSiH3>
0

>  <NssSiH2>
0

>  <NsssSiH>
0

>  <NssssSi>
0

>  <NsPH2>
0

>  <NssPH>
0

>  <NsssP>
0

>  <NdsssP>
0

>  <NsssssP>
0

>  <NsSH>
0

>  <NdS>
0

>  <NssS>
0

>  <NaaS>
0

>  <NdssS>
0

>  <NddssS>
0

>  <NsCl>
0

>  <NsBr>
0

>  <NsI>
0

>  <fragCpx>
159.14

>  <fMF>
0.52

>  <nHBAcc>
7

>  <nHBDon>
2

>  <Kier1>
25.62

>  <Kier2>
10.95

>  <Lipinski>
1

>  <GhoseFilter>
1

>  <FilterItLogS>
-5.06

>  <VMcGowan>
261.1

>  <LabuteASA>
169.17

>  <PEOE_VSA1>
0

>  <PEOE_VSA2>
20.63

>  <PEOE_VSA3>
14.65

>  <PEOE_VSA4>
26.34

>  <PEOE_VSA5>
5.1

>  <PEOE_VSA6>
0

>  <PEOE_VSA7>
18.2

>  <PEOE_VSA8>
30.23

>  <PEOE_VSA9>
17.32

>  <PEOE_VSA10>
6.33

>  <PEOE_VSA11>
11.64

>  <PEOE_VSA12>
0

>  <PEOE_VSA13>
5.91

>  <SMR_VSA1>
31.14

>  <SMR_VSA2>
0

>  <SMR_VSA3>
30.16

>  <SMR_VSA4>
0

>  <SMR_VSA5>
12.35

>  <SMR_VSA6>
5.43

>  <SMR_VSA7>
60.32

>  <SMR_VSA8>
0

>  <SMR_VSA9>
11.39

>  <SlogP_VSA1>
10.85

>  <SlogP_VSA2>
30.64

>  <SlogP_VSA3>
17.15

>  <SlogP_VSA4>
0

>  <SlogP_VSA5>
11.13

>  <SlogP_VSA6>
49.19

>  <SlogP_VSA7>
0

>  <SlogP_VSA8>
17.59

>  <SlogP_VSA9>
0

>  <SlogP_VSA10>
32.16

>  <SlogP_VSA11>
0

>  <EState_VSA1>
34.95

>  <EState_VSA2>
17.71

>  <EState_VSA3>
12.13

>  <EState_VSA4>
23.29

>  <EState_VSA5>
18.59

>  <EState_VSA6>
0

>  <EState_VSA7>
0

>  <EState_VSA8>
30.9

>  <EState_VSA9>
0

>  <EState_VSA10>
31.14

>  <VSA_EState1>
78.82

>  <VSA_EState2>
23.09

>  <VSA_EState3>
3.78

>  <VSA_EState4>
1.28

>  <VSA_EState5>
-0.78

>  <VSA_EState6>
1.03

>  <VSA_EState7>
-2.71

>  <VSA_EState8>
0

>  <VSA_EState9>
0

>  <apol>
47.57

>  <bpol>
23.71

>  <nRing>
3

>  <nHRing>
2

>  <naRing>
3

>  <naHRing>
2

>  <nARing 2>
0

>  <nAHRing 2>
0

>  <nFRing>
0

>  <nFHRing>
0

>  <nFaRing>
0

>  <nFaHRing>
0

>  <nFARing 2>
0

>  <nFAHRing 2>
0

>  <nRot>
5

>  <SLogP>
3.39

>  <SMR>
94.59

>  <TopoPSA(NO)>
97.62

>  <TopoPSA>
97.62

>  <JGI1>
0.29

>  <JGI2>
0.08

>  <JGI3>
0.04

>  <JGI4>
0.05

>  <JGI5>
0.04

>  <Diameter>
16

>  <Radius>
8

>  <TMWC10>
140.77

>  <TSRW10>
80.34

>  <MW>
443.09

>  <AMW>
10.55

>  <WPath>
3139

>  <WPol>
44

>  <Zagreb1>
162

>  <Zagreb2>
184

>  <mZagreb2>
6.53

>  <yes>


>  <nAR-cont>
0.336376

>  <nHA-cont>
0.702745138

>  <MWHBN>
0.427559475

>  <MWHBN-cont>
0.368979977

>  <TPSA-cont>
0.318551782

>  <pka_cont>
0.97

>  <yes.1>


>  <BBB_SCORE>
2.714694666

>  <MMFF94 Energy>
153.96

$$$$
Compound 2863
Actelion Java MolfileCreator 2.0

  0  0  0  0  0  0              0 V3000
M  V30 BEGIN CTAB
M  V30 COUNTS 59 61 0 0 0
M  V30 BEGIN ATOM
M  V30 1 S 4.6512 1.4417 -2.6444 0 CFG=2
M  V30 2 O 3.3924 0.8277 -2.0982 0
M  V30 3 C 6.0112 0.2363 -2.4898 0
M  V30 4 C 5.2655 2.6194 -1.4108 0
M  V30 5 C 5.9386 -0.7514 -3.5914 0
M  V30 6 C 5.494 1.9899 -0.0578 0
M  V30 7 O 6.8741 -0.6348 -4.578 0
M  V30 8 C 5.1053 -1.8188 -3.8571 0
M  V30 9 O 6.6215 1.8794 0.417 0
M  V30 10 N 4.3558 1.5691 0.5848 0
M  V30 11 C 6.6326 -1.6277 -5.472 0
M  V30 12 C 5.5548 -2.3829 -5.0744 0
M  V30 13 C 4.4058 0.9419 1.8785 0
M  V30 14 C 3.0461 1.0487 2.4864 0
M  V30 15 C 2.2146 0.0091 2.6674 0
M  V30 16 C 0.8462 0.1093 3.2787 0
M  V30 17 O -0.0788 -0.3837 2.312 0
M  V30 18 C -1.3873 -0.3459 2.7503 0
M  V30 19 N -1.6685 0.0718 4.0026 0
M  V30 20 C -2.3465 -0.7627 1.8396 0
M  V30 21 C -2.9718 0.0769 4.3557 0
M  V30 22 C -3.6897 -0.7484 2.2249 0
M  V30 23 C -4.002 -0.32 3.5185 0
M  V30 24 C -4.7745 -1.2002 1.2736 0
M  V30 25 N -5.8131 -0.1803 1.0563 0
M  V30 26 C -7.0033 -0.7458 0.4031 0
M  V30 27 C -5.3295 0.9972 0.3164 0
M  V30 28 C -6.8062 -1.0736 -1.0789 0
M  V30 29 C -5.0721 0.7426 -1.1711 0
M  V30 30 C -6.2969 0.1392 -1.8498 0
M  V30 31 H 5.9319 -0.2706 -1.5237 0
M  V30 32 H 6.9607 0.7795 -2.527 0
M  V30 33 H 6.2006 3.0528 -1.7778 0
M  V30 34 H 4.53 3.4243 -1.3157 0
M  V30 35 H 4.2702 -2.1387 -3.2478 0
M  V30 36 H 3.4983 1.4851 0.0402 0
M  V30 37 H 7.3 -1.664 -6.3217 0
M  V30 38 H 5.143 -3.2331 -5.5993 0
M  V30 39 H 4.719 -0.0976 1.7358 0
M  V30 40 H 5.1496 1.4386 2.51 0
M  V30 41 H 2.7393 2.0442 2.8008 0
M  V30 42 H 2.5168 -0.9877 2.3549 0
M  V30 43 H 0.8266 -0.5125 4.1822 0
M  V30 44 H 0.6151 1.1504 3.5371 0
M  V30 45 H -2.044 -1.0855 0.8496 0
M  V30 46 H -3.1773 0.4214 5.3652 0
M  V30 47 H -5.0318 -0.2861 3.8604 0
M  V30 48 H -5.2239 -2.0928 1.7299 0
M  V30 49 H -4.3322 -1.5369 0.3288 0
M  V30 50 H -7.8243 -0.023 0.4999 0
M  V30 51 H -7.3426 -1.641 0.9385 0
M  V30 52 H -4.4272 1.4122 0.7797 0
M  V30 53 H -6.0848 1.7889 0.4106 0
M  V30 54 H -7.7569 -1.4077 -1.51 0
M  V30 55 H -6.1006 -1.9051 -1.1913 0
M  V30 56 H -4.2127 0.0743 -1.2981 0
M  V30 57 H -4.8103 1.6861 -1.6637 0
M  V30 58 H -6.055 -0.1438 -2.88 0
M  V30 59 H -7.0908 0.8945 -1.9033 0
M  V30 END ATOM
M  V30 BEGIN BOND
M  V30 1 2 1 2
M  V30 2 1 1 3
M  V30 3 1 1 4
M  V30 4 1 3 5
M  V30 5 1 4 6
M  V30 6 1 5 7
M  V30 7 2 5 8
M  V30 8 2 6 9
M  V30 9 1 6 10
M  V30 10 1 7 11
M  V30 11 1 8 12
M  V30 12 1 10 13
M  V30 13 1 13 14
M  V30 14 2 14 15
M  V30 15 1 15 16
M  V30 16 1 16 17
M  V30 17 1 17 18
M  V30 18 2 18 19
M  V30 19 1 18 20
M  V30 20 1 19 21
M  V30 21 2 20 22
M  V30 22 2 21 23
M  V30 23 1 22 24
M  V30 24 1 24 25
M  V30 25 1 25 26
M  V30 26 1 25 27
M  V30 27 1 26 28
M  V30 28 1 27 29
M  V30 29 1 28 30
M  V30 30 2 11 12
M  V30 31 1 22 23
M  V30 32 1 29 30
M  V30 33 1 3 31
M  V30 34 1 3 32
M  V30 35 1 4 33
M  V30 36 1 4 34
M  V30 37 1 8 35
M  V30 38 1 10 36
M  V30 39 1 11 37
M  V30 40 1 12 38
M  V30 41 1 13 39
M  V30 42 1 13 40
M  V30 43 1 14 41
M  V30 44 1 15 42
M  V30 45 1 16 43
M  V30 46 1 16 44
M  V30 47 1 20 45
M  V30 48 1 21 46
M  V30 49 1 23 47
M  V30 50 1 24 48
M  V30 51 1 24 49
M  V30 52 1 26 50
M  V30 53 1 26 51
M  V30 54 1 27 52
M  V30 55 1 27 53
M  V30 56 1 28 54
M  V30 57 1 28 55
M  V30 58 1 29 56
M  V30 59 1 29 57
M  V30 60 1 30 58
M  V30 61 1 30 59
M  V30 END BOND
M  V30 BEGIN COLLECTION
M  V30 MDLV30/STERAC1 ATOMS=(1 1)
M  V30 END COLLECTION
M  V30 END CTAB
M  END
>  <Column 1>
3645

>  <level_0>
5911

>  <index>
5912

>  <Unnamed: 0>
5912

>  <NO.>
5924

>  <Name>
rac trans-lafutidine

>  <IUPAC_name>
2-(furan-2-ylmethylsulfinyl)-n-[(e)-4-[4-(piperidin-1-ylmethyl)pyridin-2-yl]oxybut-2-enyl]acetamide

>  <SMILES>
O=C(C[S+]([O-])Cc1ccco1)NC/C=C/COc1cc(CN2CCCCC2)ccn1

>  <CID>
5353705

>  <logBB>


>  <BBB+/BBB->
BBB-

>  <Inchi>
InChI=1S/C22H29N3O4S/c26-21(18-30(27)17-20-7-6-14-28-20)23-9-2-5-13-29-22-15-19(8-10-24-22)16-25-11-3-1-4-12-25/h2-5-8-10-14-15H-1-3-4-9-11-13-16-18H2-(H-23-26)/b5-2+

>  <threshold>


>  <reference>
R23|

>  <group>
C

>  <Class>
-1

>  <ABC>
22.85

>  <ABCGG>
16.75

>  <nAcid>
0

>  <nBase>
1

>  <nAromAtom>
11

>  <nAromBond>
11

>  <nAtom>
59

>  <nHeavyAtom>
30

>  <nSpiro>
0

>  <nBridgehead>
0

>  <nHetero>
8

>  <nN>
3

>  <nO>
4

>  <nF>
0

>  <BalabanJ>
1.17

>  <BertzCT>
791.44

>  <nBonds>
61

>  <nBondsO>
32

>  <nBondsS>
48

>  <nBondsD>
2

>  <nBondsT>
0

>  <nBondsA>
11

>  <nBondsM>
13

>  <nBondsKS>
54

>  <nBondsKD>
7

>  <RNCG>
0.2

>  <RPCG>
0.09

>  <FCSP3>
0.45

>  <SZ>
38.33

>  <Sm>
35.93

>  <Sv>
36.18

>  <Sse>
59.26

>  <Sp>
39.21

>  <Si>
66.65

>  <MZ>
0.65

>  <Mm>
0.61

>  <Mv>
0.61

>  <Mse>
1

>  <Mp>
0.66

>  <Mi>
1.13

>  <NsCH3>
0

>  <NdCH2>
0

>  <NssCH2>
10

>  <NtCH>
0

>  <NdsCH>
2

>  <NaaCH>
6

>  <NsssCH>
0

>  <NddC>
0

>  <NtsC>
0

>  <NdssC>
1

>  <NaasC>
3

>  <NaaaC>
0

>  <NssssC>
0

>  <NsNH3>
0

>  <NsNH2>
0

>  <NssNH2>
0

>  <NdNH>
0

>  <NssNH>
1

>  <NaaNH>
0

>  <NtN>
0

>  <NsssNH>
0

>  <NdsN>
0

>  <NaaN>
1

>  <NsssN>
1

>  <NddsN>
0

>  <NaasN>
0

>  <NssssN>
0

>  <NsOH>
0

>  <NdO>
1

>  <NssO>
1

>  <NaaO>
1

>  <NsF>
0

>  <NsSiH3>
0

>  <NssSiH2>
0

>  <NsssSiH>
0

>  <NssssSi>
0

>  <NsPH2>
0

>  <NssPH>
0

>  <NsssP>
0

>  <NdsssP>
0

>  <NsssssP>
0

>  <NsSH>
0

>  <NdS>
0

>  <NssS>
0

>  <NaaS>
0

>  <NdssS>
0

>  <NddssS>
0

>  <NsCl>
0

>  <NsBr>
0

>  <NsI>
0

>  <fragCpx>
154.08

>  <fMF>
0.47

>  <nHBAcc>
6

>  <nHBDon>
1

>  <Kier1>
24.64

>  <Kier2>
14.21

>  <Lipinski>
1

>  <GhoseFilter>
1

>  <FilterItLogS>
-5.49

>  <VMcGowan>
327.93

>  <LabuteASA>
180.23

>  <PEOE_VSA1>
19.02

>  <PEOE_VSA2>
9.69

>  <PEOE_VSA3>
4.98

>  <PEOE_VSA4>
0

>  <PEOE_VSA5>
0

>  <PEOE_VSA6>
12.5

>  <PEOE_VSA7>
66.95

>  <PEOE_VSA8>
25.35

>  <PEOE_VSA9>
6.26

>  <PEOE_VSA10>
6.61

>  <PEOE_VSA11>
17.27

>  <PEOE_VSA12>
5.88

>  <PEOE_VSA13>
5.91

>  <SMR_VSA1>
18.5

>  <SMR_VSA2>
0

>  <SMR_VSA3>
15.2

>  <SMR_VSA4>
0

>  <SMR_VSA5>
31.56

>  <SMR_VSA6>
31.99

>  <SMR_VSA7>
60.2

>  <SMR_VSA8>
0

>  <SMR_VSA9>
5.88

>  <SlogP_VSA1>
10.05

>  <SlogP_VSA2>
52.34

>  <SlogP_VSA3>
28.27

>  <SlogP_VSA4>
0

>  <SlogP_VSA5>
30.59

>  <SlogP_VSA6>
53.29

>  <SlogP_VSA7>
0

>  <SlogP_VSA8>
0

>  <SlogP_VSA9>
0

>  <SlogP_VSA10>
0

>  <SlogP_VSA11>
5.88

>  <EState_VSA1>
11.18

>  <EState_VSA2>
17.41

>  <EState_VSA3>
24.79

>  <EState_VSA4>
19.63

>  <EState_VSA5>
31.09

>  <EState_VSA6>
18.33

>  <EState_VSA7>
24.28

>  <EState_VSA8>
15.2

>  <EState_VSA9>
9.15

>  <EState_VSA10>
9.35

>  <VSA_EState1>
22.72

>  <VSA_EState2>
18.54

>  <VSA_EState3>
2.72

>  <VSA_EState4>
1.21

>  <VSA_EState5>
1.17

>  <VSA_EState6>
7.5

>  <VSA_EState7>
10.83

>  <VSA_EState8>
3.98

>  <VSA_EState9>
0

>  <apol>
65.49

>  <bpol>
41.41

>  <nRing>
3

>  <nHRing>
3

>  <naRing>
2

>  <naHRing>
2

>  <nARing 2>
1

>  <nAHRing 2>
1

>  <nFRing>
0

>  <nFHRing>
0

>  <nFaRing>
0

>  <nFaHRing>
0

>  <nFARing 2>
0

>  <nFAHRing 2>
0

>  <nRot>
11

>  <SLogP>
2.66

>  <SMR>
116.43

>  <TopoPSA(NO)>
90.66

>  <TopoPSA>
90.66

>  <JGI1>
0.16

>  <JGI2>
0.03

>  <JGI3>
0.04

>  <JGI4>
0.02

>  <JGI5>
0.02

>  <Diameter>
20

>  <Radius>
10

>  <TMWC10>
135.69

>  <TSRW10>
77.64

>  <MW>
431.19

>  <AMW>
7.31

>  <WPath>
3426

>  <WPol>
35

>  <Zagreb1>
144

>  <Zagreb2>
158

>  <mZagreb2>
6.83

>  <yes>


>  <nAR-cont>
0.816016

>  <nHA-cont>
0.74523694

>  <MWHBN>
0.33710384

>  <MWHBN-cont>
0.717605373

>  <TPSA-cont>
0.367136904

>  <pka_cont>
0.97

>  <yes.1>


>  <BBB_SCORE>
3.856934805

>  <MMFF94 Energy>
-17.144

$$$$
Compound 2864
Actelion Java MolfileCreator 2.0

  0  0  0  0  0  0              0 V3000
M  V30 BEGIN CTAB
M  V30 COUNTS 47 50 0 0 0
M  V30 BEGIN ATOM
M  V30 1 Cl -6.5713 7.6421 -0.1638 0
M  V30 2 C -5.3589 6.6821 -0.9088 0
M  V30 3 S -4.5562 5.4973 -0.0144 0
M  V30 4 C -4.9393 6.7624 -2.2092 0
M  V30 5 C -3.5932 5.0365 -1.3686 0
M  V30 6 C -3.9121 5.8055 -2.4787 0
M  V30 7 C -2.6217 3.9638 -1.1975 0
M  V30 8 O -2.4349 3.3543 -0.145 0
M  V30 9 N -1.8685 3.6509 -2.3146 0
M  V30 10 C -0.903 2.5628 -2.2965 0
M  V30 11 C 0.2924 2.8317 -1.3635 0 CFG=2
M  V30 12 O 1.5101 2.6055 -2.0939 0
M  V30 13 C 0.383 1.8625 -0.2034 0
M  V30 14 C 1.9669 1.3465 -1.7884 0
M  V30 15 N 1.2562 0.8466 -0.7103 0
M  V30 16 O 2.8701 0.8223 -2.4192 0
M  V30 17 C 1.4335 -0.4097 -0.0873 0
M  V30 18 C 1.9965 -1.4898 -0.7754 0
M  V30 19 C 1.029 -0.6128 1.2384 0
M  V30 20 C 2.1606 -2.7357 -0.155 0
M  V30 21 C 1.1888 -1.8585 1.8588 0
M  V30 22 C 1.7588 -2.93 1.1688 0
M  V30 23 N 1.8982 -4.1984 1.7956 0
M  V30 24 C 2.4673 -4.3176 3.0682 0
M  V30 25 C 1.584 -5.3947 1.0147 0
M  V30 26 O 2.8846 -3.3741 3.7418 0
M  V30 27 C 2.4877 -5.7468 3.6515 0
M  V30 28 C 1.1658 -6.5567 1.9051 0
M  V30 29 O 2.2357 -6.8533 2.7992 0
M  V30 30 H -5.3399 7.4629 -2.9316 0
M  V30 31 H -3.4447 5.7051 -3.4497 0
M  V30 32 H -2.0084 4.1477 -3.1818 0
M  V30 33 H -1.4438 1.654 -2.009 0
M  V30 34 H -0.5699 2.4342 -3.3323 0
M  V30 35 H 0.2954 3.8678 -1.0073 0
M  V30 36 H -0.584 1.4604 0.1119 0
M  V30 37 H 0.8789 2.3388 0.6506 0
M  V30 38 H 2.3212 -1.3926 -1.8081 0
M  V30 39 H 0.5964 0.1902 1.8284 0
M  V30 40 H 2.6252 -3.5363 -0.7233 0
M  V30 41 H 0.8676 -1.9746 2.8914 0
M  V30 42 H 2.4932 -5.6649 0.4645 0
M  V30 43 H 0.78 -5.1738 0.3038 0
M  V30 44 H 3.4746 -5.9034 4.0996 0
M  V30 45 H 1.7505 -5.7707 4.4631 0
M  V30 46 H 0.2574 -6.3295 2.4758 0
M  V30 47 H 0.9744 -7.4474 1.2992 0
M  V30 END ATOM
M  V30 BEGIN BOND
M  V30 1 1 1 2
M  V30 2 1 2 3
M  V30 3 2 2 4
M  V30 4 1 3 5
M  V30 5 1 4 6
M  V30 6 1 5 7
M  V30 7 2 7 8
M  V30 8 1 7 9
M  V30 9 1 9 10
M  V30 10 1 10 11
M  V30 11 1 11 12
M  V30 12 1 11 13
M  V30 13 1 12 14
M  V30 14 1 13 15
M  V30 15 2 14 16
M  V30 16 1 15 17
M  V30 17 2 17 18
M  V30 18 1 17 19
M  V30 19 1 18 20
M  V30 20 2 19 21
M  V30 21 2 20 22
M  V30 22 1 22 23
M  V30 23 1 23 24
M  V30 24 1 23 25
M  V30 25 2 24 26
M  V30 26 1 24 27
M  V30 27 1 25 28
M  V30 28 1 27 29
M  V30 29 2 5 6
M  V30 30 1 14 15
M  V30 31 1 21 22
M  V30 32 1 28 29
M  V30 33 1 4 30
M  V30 34 1 6 31
M  V30 35 1 9 32
M  V30 36 1 10 33
M  V30 37 1 10 34
M  V30 38 1 11 35
M  V30 39 1 13 36
M  V30 40 1 13 37
M  V30 41 1 18 38
M  V30 42 1 19 39
M  V30 43 1 20 40
M  V30 44 1 21 41
M  V30 45 1 25 42
M  V30 46 1 25 43
M  V30 47 1 27 44
M  V30 48 1 27 45
M  V30 49 1 28 46
M  V30 50 1 28 47
M  V30 END BOND
M  V30 BEGIN COLLECTION
M  V30 MDLV30/STERAC1 ATOMS=(1 11)
M  V30 END COLLECTION
M  V30 END CTAB
M  END
>  <Column 1>
3647

>  <level_0>
5913

>  <index>
5914

>  <Unnamed: 0>
5914

>  <NO.>
5926

>  <Name>
rivaroxaban

>  <IUPAC_name>
5-chloro-n-[[2-oxo-3-[4-(3-oxomorpholin-4-yl)phenyl]-1-3-oxazolidin-5-yl]methyl]thiophene-2-carboxamide

>  <SMILES>
O=C(NCC1CN(c2ccc(N3CCOCC3=O)cc2)C(=O)O1)c1ccc(Cl)s1

>  <CID>
6433119

>  <logBB>


>  <BBB+/BBB->
BBB-

>  <Inchi>
InChI=1S/C19H18ClN3O5S/c20-16-6-5-15(29-16)18(25)21-9-14-10-23(19(26)28-14)13-3-1-12(2-4-13)22-7-8-27-11-17(22)24/h1-6-14H-7-11H2-(H-21-25)

>  <threshold>


>  <reference>
R23|

>  <group>
C

>  <Class>
-1

>  <ABC>
22.86

>  <ABCGG>
17.46

>  <nAcid>
0

>  <nBase>
0

>  <nAromAtom>
11

>  <nAromBond>
11

>  <nAtom>
47

>  <nHeavyAtom>
29

>  <nSpiro>
0

>  <nBridgehead>
0

>  <nHetero>
10

>  <nN>
3

>  <nO>
5

>  <nF>
0

>  <BalabanJ>
1.2

>  <BertzCT>
932.18

>  <nBonds>
50

>  <nBondsO>
32

>  <nBondsS>
36

>  <nBondsD>
3

>  <nBondsT>
0

>  <nBondsA>
11

>  <nBondsM>
14

>  <nBondsKS>
42

>  <nBondsKD>
8

>  <RNCG>
0.15

>  <RPCG>
0.14

>  <FCSP3>
0.32

>  <SZ>
37.67

>  <Sm>
36.29

>  <Sv>
32

>  <Sse>
48.48

>  <Sp>
33.61

>  <Si>
52.73

>  <MZ>
0.8

>  <Mm>
0.77

>  <Mv>
0.68

>  <Mse>
1.03

>  <Mp>
0.72

>  <Mi>
1.12

>  <NsCH3>
0

>  <NdCH2>
0

>  <NssCH2>
5

>  <NtCH>
0

>  <NdsCH>
0

>  <NaaCH>
6

>  <NsssCH>
1

>  <NddC>
0

>  <NtsC>
0

>  <NdssC>
3

>  <NaasC>
4

>  <NaaaC>
0

>  <NssssC>
0

>  <NsNH3>
0

>  <NsNH2>
0

>  <NssNH2>
0

>  <NdNH>
0

>  <NssNH>
1

>  <NaaNH>
0

>  <NtN>
0

>  <NsssNH>
0

>  <NdsN>
0

>  <NaaN>
0

>  <NsssN>
2

>  <NddsN>
0

>  <NaasN>
0

>  <NssssN>
0

>  <NsOH>
0

>  <NdO>
3

>  <NssO>
2

>  <NaaO>
0

>  <NsF>
0

>  <NsSiH3>
0

>  <NssSiH2>
0

>  <NsssSiH>
0

>  <NssssSi>
0

>  <NsPH2>
0

>  <NssPH>
0

>  <NsssP>
0

>  <NdsssP>
0

>  <NsssssP>
0

>  <NsSH>
0

>  <NdS>
0

>  <NssS>
0

>  <NaaS>
1

>  <NdssS>
0

>  <NddssS>
0

>  <NsCl>
1

>  <NsBr>
0

>  <NsI>
0

>  <fragCpx>
212.1

>  <fMF>
0.53

>  <nHBAcc>
6

>  <nHBDon>
1

>  <Kier1>
22.2

>  <Kier2>
10.08

>  <Lipinski>
1

>  <GhoseFilter>
1

>  <FilterItLogS>
-3.83

>  <VMcGowan>
288.61

>  <LabuteASA>
175.49

>  <PEOE_VSA1>
19.69

>  <PEOE_VSA2>
14.49

>  <PEOE_VSA3>
4.79

>  <PEOE_VSA4>
0

>  <PEOE_VSA5>
11.34

>  <PEOE_VSA6>
11.6

>  <PEOE_VSA7>
36.4

>  <PEOE_VSA8>
17.92

>  <PEOE_VSA9>
28.91

>  <PEOE_VSA10>
12.71

>  <PEOE_VSA11>
0

>  <PEOE_VSA12>
0

>  <PEOE_VSA13>
11.81

>  <SMR_VSA1>
23.86

>  <SMR_VSA2>
0

>  <SMR_VSA3>
5.32

>  <SMR_VSA4>
0

>  <SMR_VSA5>
6.1

>  <SMR_VSA6>
42.65

>  <SMR_VSA7>
45.61

>  <SMR_VSA8>
0

>  <SMR_VSA9>
0

>  <SlogP_VSA1>
15.12

>  <SlogP_VSA2>
56.86

>  <SlogP_VSA3>
14.27

>  <SlogP_VSA4>
0

>  <SlogP_VSA5>
9.67

>  <SlogP_VSA6>
36.4

>  <SlogP_VSA7>
4.34

>  <SlogP_VSA8>
0

>  <SlogP_VSA9>
0

>  <SlogP_VSA10>
16.17

>  <SlogP_VSA11>
0

>  <EState_VSA1>
12.2

>  <EState_VSA2>
24.97

>  <EState_VSA3>
34.6

>  <EState_VSA4>
5.69

>  <EState_VSA5>
16.24

>  <EState_VSA6>
41.3

>  <EState_VSA7>
0

>  <EState_VSA8>
5.32

>  <EState_VSA9>
21.07

>  <EState_VSA10>
14.38

>  <VSA_EState1>
11.03

>  <VSA_EState2>
39.95

>  <VSA_EState3>
2.76

>  <VSA_EState4>
1.42

>  <VSA_EState5>
-0.34

>  <VSA_EState6>
10.44

>  <VSA_EState7>
-0.93

>  <VSA_EState8>
1.6

>  <VSA_EState9>
0

>  <apol>
56.12

>  <bpol>
31.09

>  <nRing>
4

>  <nHRing>
3

>  <naRing>
2

>  <naHRing>
1

>  <nARing 2>
2

>  <nAHRing 2>
2

>  <nFRing>
0

>  <nFHRing>
0

>  <nFaRing>
0

>  <nFaHRing>
0

>  <nFARing 2>
0

>  <nFAHRing 2>
0

>  <nRot>
5

>  <SLogP>
2.52

>  <SMR>
108.89

>  <TopoPSA(NO)>
88.18

>  <TopoPSA>
116.42

>  <JGI1>
0.19

>  <JGI2>
0.08

>  <JGI3>
0.05

>  <JGI4>
0.04

>  <JGI5>
0.02

>  <Diameter>
17

>  <Radius>
9

>  <TMWC10>
137.62

>  <TSRW10>
80.26

>  <MW>
435.07

>  <AMW>
9.26

>  <WPath>
2633

>  <WPol>
43

>  <Zagreb1>
154

>  <Zagreb2>
181

>  <mZagreb2>
6.31

>  <yes>


>  <nAR-cont>
1

>  <nHA-cont>
0.785905698

>  <MWHBN>
0.33559731

>  <MWHBN-cont>
0.723012555

>  <TPSA-cont>
0.187316108

>  <pka_cont>
0.97

>  <yes.1>


>  <BBB_SCORE>
3.730056746

>  <MMFF94 Energy>
48.972

$$$$
Compound 2865
Actelion Java MolfileCreator 2.0

  0  0  0  0  0  0              0 V3000
M  V30 BEGIN CTAB
M  V30 COUNTS 23 23 0 0 0
M  V30 BEGIN ATOM
M  V30 1 S -0.6645 -0.9138 -2.8266 0
M  V30 2 O -1.3942 0.1449 -2.1676 0
M  V30 3 O -1.1631 -2.261 -2.9635 0
M  V30 4 O -0.3944 -0.3569 -4.3198 0
M  V30 5 C 1.0318 -0.9329 -2.2838 0
M  V30 6 C 1.1742 -1.5017 -0.8852 0
M  V30 7 N 0.8533 -0.5394 0.1548 0
M  V30 8 C -0.2915 -0.6483 0.9301 0
M  V30 9 O -1.0596 -1.5949 0.7764 0
M  V30 10 C -0.475 0.4101 1.917 0
M  V30 11 S -1.6417 0.1877 3.1604 0
M  V30 12 C 0.1464 1.6421 2.0424 0
M  V30 13 C -1.2994 1.7076 3.8593 0
M  V30 14 C -0.3268 2.3871 3.1639 0
M  V30 15 H -1.0689 0.333 -4.5031 0
M  V30 16 H 1.5717 -1.5676 -2.9942 0
M  V30 17 H 1.4174 0.0891 -2.3486 0
M  V30 18 H 2.2247 -1.7648 -0.7188 0
M  V30 19 H 0.5868 -2.417 -0.7614 0
M  V30 20 H 1.5162 0.1929 0.3632 0
M  V30 21 H 0.8975 2.0177 1.3603 0
M  V30 22 H -1.8341 2.0315 4.7419 0
M  V30 23 H 0.0229 3.3742 3.4411 0
M  V30 END ATOM
M  V30 BEGIN BOND
M  V30 1 2 1 2
M  V30 2 2 1 3
M  V30 3 1 1 4
M  V30 4 1 1 5
M  V30 5 1 5 6
M  V30 6 1 6 7
M  V30 7 1 7 8
M  V30 8 2 8 9
M  V30 9 1 8 10
M  V30 10 1 10 11
M  V30 11 2 10 12
M  V30 12 1 11 13
M  V30 13 1 12 14
M  V30 14 2 13 14
M  V30 15 1 4 15
M  V30 16 1 5 16
M  V30 17 1 5 17
M  V30 18 1 6 18
M  V30 19 1 6 19
M  V30 20 1 7 20
M  V30 21 1 12 21
M  V30 22 1 13 22
M  V30 23 1 14 23
M  V30 END BOND
M  V30 END CTAB
M  END
>  <Column 1>
3648

>  <level_0>
5914

>  <index>
5915

>  <Unnamed: 0>
5915

>  <NO.>
5927

>  <Name>
taurosteine

>  <IUPAC_name>
2-(thiophene-2-carbonylamino)ethanesulfonic acid

>  <SMILES>
O=C(NCCS(=O)(=O)O)c1cccs1

>  <CID>
3086612

>  <logBB>


>  <BBB+/BBB->
BBB-

>  <Inchi>
InChI=1S/C7H9NO4S2/c9-7(6-2-1-4-13-6)8-3-5-14(10-11)12/h1-2-4H-3-5H2-(H-8-9)(H-10-11-12)

>  <threshold>


>  <reference>
R23|

>  <group>
C

>  <Class>
-1

>  <ABC>
10.45

>  <ABCGG>
9.95

>  <nAcid>
1

>  <nBase>
0

>  <nAromAtom>
5

>  <nAromBond>
5

>  <nAtom>
23

>  <nHeavyAtom>
14

>  <nSpiro>
0

>  <nBridgehead>
0

>  <nHetero>
7

>  <nN>
1

>  <nO>
4

>  <nF>
0

>  <BalabanJ>
2.11

>  <BertzCT>
395.33

>  <nBonds>
23

>  <nBondsO>
14

>  <nBondsS>
15

>  <nBondsD>
3

>  <nBondsT>
0

>  <nBondsA>
5

>  <nBondsM>
8

>  <nBondsKS>
18

>  <nBondsKD>
5

>  <RNCG>
0.23

>  <RPCG>
0.17

>  <FCSP3>
0.29

>  <SZ>
20.33

>  <Sm>
19.59

>  <Sv>
15.43

>  <Sse>
24.13

>  <Sp>
16.65

>  <Si>
25.84

>  <MZ>
0.88

>  <Mm>
0.85

>  <Mv>
0.67

>  <Mse>
1.05

>  <Mp>
0.72

>  <Mi>
1.12

>  <NsCH3>
0

>  <NdCH2>
0

>  <NssCH2>
2

>  <NtCH>
0

>  <NdsCH>
0

>  <NaaCH>
3

>  <NsssCH>
0

>  <NddC>
0

>  <NtsC>
0

>  <NdssC>
1

>  <NaasC>
1

>  <NaaaC>
0

>  <NssssC>
0

>  <NsNH3>
0

>  <NsNH2>
0

>  <NssNH2>
0

>  <NdNH>
0

>  <NssNH>
1

>  <NaaNH>
0

>  <NtN>
0

>  <NsssNH>
0

>  <NdsN>
0

>  <NaaN>
0

>  <NsssN>
0

>  <NddsN>
0

>  <NaasN>
0

>  <NssssN>
0

>  <NsOH>
1

>  <NdO>
3

>  <NssO>
0

>  <NaaO>
0

>  <NsF>
0

>  <NsSiH3>
0

>  <NssSiH2>
0

>  <NsssSiH>
0

>  <NssssSi>
0

>  <NsPH2>
0

>  <NssPH>
0

>  <NsssP>
0

>  <NdsssP>
0

>  <NsssssP>
0

>  <NsSH>
0

>  <NdS>
0

>  <NssS>
0

>  <NaaS>
1

>  <NdssS>
0

>  <NddssS>
1

>  <NsCl>
0

>  <NsBr>
0

>  <NsI>
0

>  <fragCpx>
14.07

>  <fMF>
0.22

>  <nHBAcc>
4

>  <nHBDon>
2

>  <Kier1>
12.07

>  <Kier2>
5.19

>  <Lipinski>
1

>  <GhoseFilter>
1

>  <FilterItLogS>
-1.38

>  <VMcGowan>
151.89

>  <LabuteASA>
85.51

>  <PEOE_VSA1>
5.32

>  <PEOE_VSA2>
9.35

>  <PEOE_VSA3>
0

>  <PEOE_VSA4>
8.42

>  <PEOE_VSA5>
11.34

>  <PEOE_VSA6>
6.07

>  <PEOE_VSA7>
11.45

>  <PEOE_VSA8>
6.54

>  <PEOE_VSA9>
10.63

>  <PEOE_VSA10>
0

>  <PEOE_VSA11>
0

>  <PEOE_VSA12>
0

>  <PEOE_VSA13>
16.03

>  <SMR_VSA1>
17.77

>  <SMR_VSA2>
0

>  <SMR_VSA3>
5.32

>  <SMR_VSA4>
0

>  <SMR_VSA5>
0

>  <SMR_VSA6>
12.3

>  <SMR_VSA7>
22.39

>  <SMR_VSA8>
0

>  <SMR_VSA9>
0

>  <SlogP_VSA1>
5.32

>  <SlogP_VSA2>
31.18

>  <SlogP_VSA3>
10.12

>  <SlogP_VSA4>
0

>  <SlogP_VSA5>
9.67

>  <SlogP_VSA6>
17.51

>  <SlogP_VSA7>
0

>  <SlogP_VSA8>
0

>  <SlogP_VSA9>
0

>  <SlogP_VSA10>
0

>  <SlogP_VSA11>
0

>  <EState_VSA1>
15.87

>  <EState_VSA2>
12.45

>  <EState_VSA3>
4.88

>  <EState_VSA4>
0

>  <EState_VSA5>
11.34

>  <EState_VSA6>
17.51

>  <EState_VSA7>
0

>  <EState_VSA8>
5.32

>  <EState_VSA9>
4.55

>  <EState_VSA10>
13.21

>  <VSA_EState1>
29

>  <VSA_EState2>
11.73

>  <VSA_EState3>
4.12

>  <VSA_EState4>
0

>  <VSA_EState5>
-0.8

>  <VSA_EState6>
3.36

>  <VSA_EState7>
0

>  <VSA_EState8>
-0.09

>  <VSA_EState9>
-4

>  <apol>
27.8

>  <bpol>
19.58

>  <nRing>
1

>  <nHRing>
1

>  <naRing>
1

>  <naHRing>
1

>  <nARing 2>
0

>  <nAHRing 2>
0

>  <nFRing>
0

>  <nFHRing>
0

>  <nFaRing>
0

>  <nFaHRing>
0

>  <nFARing 2>
0

>  <nFAHRing 2>
0

>  <nRot>
4

>  <SLogP>
0.37

>  <SMR>
53.07

>  <TopoPSA(NO)>
83.47

>  <TopoPSA>
120.09

>  <JGI1>
0.29

>  <JGI2>
0.08

>  <JGI3>
0.05

>  <JGI4>
0.03

>  <JGI5>
0.03

>  <Diameter>
8

>  <Radius>
4

>  <TMWC10>
94.43

>  <TSRW10>
57.88

>  <MW>
235

>  <AMW>
10.22

>  <WPath>
348

>  <WPol>
13

>  <Zagreb1>
66

>  <Zagreb2>
70

>  <mZagreb2>
3.07

>  <yes>


>  <nAR-cont>
0.336376

>  <nHA-cont>
0.887625254

>  <MWHBN>
0.391396844

>  <MWHBN-cont>
0.50995776

>  <TPSA-cont>
0

>  <pka_cont>
0.97

>  <yes.1>


>  <BBB_SCORE>
2.473937894

>  <MMFF94 Energy>
-65.968

$$$$
Compound 2866
Actelion Java MolfileCreator 2.0

  0  0  0  0  0  0              0 V3000
M  V30 BEGIN CTAB
M  V30 COUNTS 59 63 0 0 0
M  V30 BEGIN ATOM
M  V30 1 O -3.6169 6.921 -5.7919 0
M  V30 2 C -2.9548 6.8904 -4.7634 0
M  V30 3 C -2.6332 5.6332 -4.0764 0
M  V30 4 C -2.438 8.1238 -4.1548 0
M  V30 5 C -1.8694 5.6847 -2.9165 0
M  V30 6 C -3.0781 4.4082 -4.5752 0
M  V30 7 C -1.7064 8.0558 -3.0314 0
M  V30 8 O -1.3993 6.8608 -2.3888 0
M  V30 9 C -1.5452 4.5064 -2.2388 0
M  V30 10 C -2.7526 3.2304 -3.8975 0
M  V30 11 C -1.161 9.2073 -2.3722 0
M  V30 12 C -1.9921 3.272 -2.7204 0
M  V30 13 N -1.384 10.4681 -2.879 0
M  V30 14 N -0.412 9.2313 -1.2561 0
M  V30 15 N -1.6881 2.042 -2.1028 0
M  V30 16 N -0.7688 11.3207 -2.0719 0
M  V30 17 N -0.2125 10.5505 -1.1305 0
M  V30 18 C -1.2538 1.8606 -0.8013 0
M  V30 19 O -1.1404 2.7294 0.0547 0
M  V30 20 C -0.954 0.4492 -0.43 0
M  V30 21 C -0.3751 -0.4461 -1.3383 0
M  V30 22 C -1.2361 0.0251 0.8715 0
M  V30 23 C -0.1061 -1.7655 -0.9522 0
M  V30 24 C -0.9681 -1.2925 1.2492 0
M  V30 25 C -0.4053 -2.1942 0.342 0
M  V30 26 O -0.1972 -3.4486 0.8424 0
M  V30 27 C 0.4353 -4.3992 -0.013 0
M  V30 28 C 0.5999 -5.7137 0.749 0
M  V30 29 C 1.5472 -5.5744 1.9445 0
M  V30 30 C 1.7031 -6.9053 2.6838 0
M  V30 31 C 2.6536 -6.7886 3.8487 0
M  V30 32 C 4.013 -7.0889 3.6911 0
M  V30 33 C 2.1943 -6.351 5.0983 0
M  V30 34 C 4.8939 -6.9645 4.7667 0
M  V30 35 C 3.0766 -6.2269 6.1725 0
M  V30 36 C 4.4256 -6.5346 6.007 0
M  V30 37 H -2.678 9.0529 -4.6574 0
M  V30 38 H -3.675 4.3688 -5.4839 0
M  V30 39 H -0.9357 4.5772 -1.342 0
M  V30 40 H -3.1108 2.2849 -4.2975 0
M  V30 41 H -1.8958 1.2104 -2.6404 0
M  V30 42 H 0.3291 10.9465 -0.367 0
M  V30 43 H -0.0977 -0.1273 -2.3395 0
M  V30 44 H -1.6658 0.7166 1.5938 0
M  V30 45 H 0.3454 -2.4293 -1.6822 0
M  V30 46 H -1.1942 -1.6173 2.2625 0
M  V30 47 H 1.4192 -4.0341 -0.3313 0
M  V30 48 H -0.1939 -4.582 -0.8922 0
M  V30 49 H -0.3805 -6.0479 1.1095 0
M  V30 50 H 0.9822 -6.4789 0.0637 0
M  V30 51 H 1.1682 -4.8107 2.635 0
M  V30 52 H 2.5271 -5.2253 1.5951 0
M  V30 53 H 0.7276 -7.2541 3.0461 0
M  V30 54 H 2.0631 -7.68 1.9949 0
M  V30 55 H 4.3942 -7.4209 2.7284 0
M  V30 56 H 1.145 -6.1019 5.2405 0
M  V30 57 H 5.9464 -7.2012 4.6362 0
M  V30 58 H 2.7112 -5.8877 7.1382 0
M  V30 59 H 5.1121 -6.4368 6.8436 0
M  V30 END ATOM
M  V30 BEGIN BOND
M  V30 1 2 1 2
M  V30 2 1 2 3
M  V30 3 1 2 4
M  V30 4 2 3 5
M  V30 5 1 3 6
M  V30 6 2 4 7
M  V30 7 1 5 8
M  V30 8 1 5 9
M  V30 9 2 6 10
M  V30 10 1 7 11
M  V30 11 2 9 12
M  V30 12 1 11 13
M  V30 13 2 11 14
M  V30 14 1 12 15
M  V30 15 2 13 16
M  V30 16 1 14 17
M  V30 17 1 15 18
M  V30 18 2 18 19
M  V30 19 1 18 20
M  V30 20 2 20 21
M  V30 21 1 20 22
M  V30 22 1 21 23
M  V30 23 2 22 24
M  V30 24 2 23 25
M  V30 25 1 25 26
M  V30 26 1 26 27
M  V30 27 1 27 28
M  V30 28 1 28 29
M  V30 29 1 29 30
M  V30 30 1 30 31
M  V30 31 2 31 32
M  V30 32 1 31 33
M  V30 33 1 32 34
M  V30 34 2 33 35
M  V30 35 2 34 36
M  V30 36 1 7 8
M  V30 37 1 10 12
M  V30 38 1 16 17
M  V30 39 1 24 25
M  V30 40 1 35 36
M  V30 41 1 4 37
M  V30 42 1 6 38
M  V30 43 1 9 39
M  V30 44 1 10 40
M  V30 45 1 15 41
M  V30 46 1 17 42
M  V30 47 1 21 43
M  V30 48 1 22 44
M  V30 49 1 23 45
M  V30 50 1 24 46
M  V30 51 1 27 47
M  V30 52 1 27 48
M  V30 53 1 28 49
M  V30 54 1 28 50
M  V30 55 1 29 51
M  V30 56 1 29 52
M  V30 57 1 30 53
M  V30 58 1 30 54
M  V30 59 1 32 55
M  V30 60 1 33 56
M  V30 61 1 34 57
M  V30 62 1 35 58
M  V30 63 1 36 59
M  V30 END BOND
M  V30 END CTAB
M  END
>  <Column 1>
3650

>  <level_0>
5916

>  <index>
5917

>  <Unnamed: 0>
5917

>  <NO.>
5929

>  <Name>
pranlukast

>  <IUPAC_name>
n-[4-oxo-2-(2h-tetrazol-5-yl)chromen-7-yl]-4-(4-phenylbutoxy)benzamide

>  <SMILES>
O=C(Nc1ccc2c(=O)cc(-c3nn[nH]n3)oc2c1)c1ccc(OCCCCc2ccccc2)cc1

>  <CID>
115100

>  <logBB>


>  <BBB+/BBB->
BBB-

>  <Inchi>
InChI=1S/C27H23N5O4/c33-23-17-25(26-29-31-32-30-26)36-24-16-20(11-14-22(23)24)28-27(34)19-9-12-21(13-10-19)35-15-5-4-8-18-6-2-1-3-7-18/h1-3-6-7-9-14-16-17H-4-5-8-15H2-(H-28-34)(H-29-30-31-32)

>  <threshold>


>  <reference>
R23|

>  <group>
C

>  <Class>
-1

>  <ABC>
28.34

>  <ABCGG>
18.96

>  <nAcid>
2

>  <nBase>
0

>  <nAromAtom>
27

>  <nAromBond>
28

>  <nAtom>
59

>  <nHeavyAtom>
36

>  <nSpiro>
0

>  <nBridgehead>
0

>  <nHetero>
9

>  <nN>
5

>  <nO>
4

>  <nF>
0

>  <BalabanJ>
0.97

>  <BertzCT>
1514.16

>  <nBonds>
63

>  <nBondsO>
40

>  <nBondsS>
33

>  <nBondsD>
2

>  <nBondsT>
0

>  <nBondsA>
28

>  <nBondsM>
30

>  <nBondsKS>
49

>  <nBondsKD>
14

>  <RNCG>
0.17

>  <RPCG>
0.09

>  <FCSP3>
0.15

>  <SZ>
42

>  <Sm>
40.09

>  <Sv>
39.88

>  <Sse>
59.85

>  <Sp>
41.4

>  <Si>
66.07

>  <MZ>
0.71

>  <Mm>
0.68

>  <Mv>
0.68

>  <Mse>
1.01

>  <Mp>
0.7

>  <Mi>
1.12

>  <NsCH3>
0

>  <NdCH2>
0

>  <NssCH2>
4

>  <NtCH>
0

>  <NdsCH>
0

>  <NaaCH>
13

>  <NsssCH>
0

>  <NddC>
0

>  <NtsC>
0

>  <NdssC>
1

>  <NaasC>
6

>  <NaaaC>
2

>  <NssssC>
0

>  <NsNH3>
0

>  <NsNH2>
0

>  <NssNH2>
0

>  <NdNH>
0

>  <NssNH>
1

>  <NaaNH>
1

>  <NtN>
0

>  <NsssNH>
0

>  <NdsN>
0

>  <NaaN>
3

>  <NsssN>
0

>  <NddsN>
0

>  <NaasN>
0

>  <NssssN>
0

>  <NsOH>
0

>  <NdO>
2

>  <NssO>
1

>  <NaaO>
1

>  <NsF>
0

>  <NsSiH3>
0

>  <NssSiH2>
0

>  <NsssSiH>
0

>  <NssssSi>
0

>  <NsPH2>
0

>  <NssPH>
0

>  <NsssP>
0

>  <NdsssP>
0

>  <NsssssP>
0

>  <NsSH>
0

>  <NdS>
0

>  <NssS>
0

>  <NaaS>
0

>  <NdssS>
0

>  <NddssS>
0

>  <NsCl>
0

>  <NsBr>
0

>  <NsI>
0

>  <fragCpx>
340.09

>  <fMF>
0.58

>  <nHBAcc>
7

>  <nHBDon>
2

>  <Kier1>
27.56

>  <Kier2>
13.88

>  <Lipinski>
1

>  <GhoseFilter>
0

>  <FilterItLogS>
-8.49

>  <VMcGowan>
350.17

>  <LabuteASA>
205.67

>  <PEOE_VSA1>
14.47

>  <PEOE_VSA2>
9.59

>  <PEOE_VSA3>
0

>  <PEOE_VSA4>
5.21

>  <PEOE_VSA5>
10.2

>  <PEOE_VSA6>
30.33

>  <PEOE_VSA7>
66.44

>  <PEOE_VSA8>
23.38

>  <PEOE_VSA9>
11.99

>  <PEOE_VSA10>
11.33

>  <PEOE_VSA11>
11.19

>  <PEOE_VSA12>
5.82

>  <PEOE_VSA13>
5.91

>  <SMR_VSA1>
13.95

>  <SMR_VSA2>
0

>  <SMR_VSA3>
20.62

>  <SMR_VSA4>
0

>  <SMR_VSA5>
19.26

>  <SMR_VSA6>
11.92

>  <SMR_VSA7>
100.21

>  <SMR_VSA8>
0

>  <SMR_VSA9>
17.33

>  <SlogP_VSA1>
15.48

>  <SlogP_VSA2>
33.14

>  <SlogP_VSA3>
6.42

>  <SlogP_VSA4>
0

>  <SlogP_VSA5>
28.76

>  <SlogP_VSA6>
88.07

>  <SlogP_VSA7>
0

>  <SlogP_VSA8>
22.55

>  <SlogP_VSA9>
0

>  <SlogP_VSA10>
5.69

>  <SlogP_VSA11>
5.75

>  <EState_VSA1>
0

>  <EState_VSA2>
22.92

>  <EState_VSA3>
34.58

>  <EState_VSA4>
19.26

>  <EState_VSA5>
11.63

>  <EState_VSA6>
42.46

>  <EState_VSA7>
6.07

>  <EState_VSA8>
50.21

>  <EState_VSA9>
9.15

>  <EState_VSA10>
9.59

>  <VSA_EState1>
11.57

>  <VSA_EState2>
25.15

>  <VSA_EState3>
16.67

>  <VSA_EState4>
2.35

>  <VSA_EState5>
0.77

>  <VSA_EState6>
23.52

>  <VSA_EState7>
3.02

>  <VSA_EState8>
0.62

>  <VSA_EState9>
0

>  <apol>
69.13

>  <bpol>
29.42

>  <nRing>
5

>  <nHRing>
2

>  <naRing>
5

>  <naHRing>
2

>  <nARing 2>
0

>  <nAHRing 2>
0

>  <nFRing>
1

>  <nFHRing>
1

>  <nFaRing>
1

>  <nFaHRing>
1

>  <nFARing 2>
0

>  <nFAHRing 2>
0

>  <nRot>
9

>  <SLogP>
4.63

>  <SMR>
134.93

>  <TopoPSA(NO)>
123

>  <TopoPSA>
123

>  <JGI1>
0.15

>  <JGI2>
0.06

>  <JGI3>
0.03

>  <JGI4>
0.04

>  <JGI5>
0.02

>  <Diameter>
22

>  <Radius>
11

>  <TMWC10>
153.98

>  <TSRW10>
85.56

>  <MW>
481.18

>  <AMW>
8.16

>  <WPath>
5243

>  <WPol>
53

>  <Zagreb1>
188

>  <Zagreb2>
218

>  <mZagreb2>
7.94

>  <yes>


>  <nAR-cont>
0.336376

>  <nHA-cont>
0.477843619

>  <MWHBN>
0.410287915

>  <MWHBN-cont>
0.435695098

>  <TPSA-cont>
0

>  <pka_cont>
0.97

>  <yes.1>


>  <BBB_SCORE>
1.952762266

>  <MMFF94 Energy>
79.157

$$$$
Compound 2867
Actelion Java MolfileCreator 2.0

  0  0  0  0  0  0              0 V3000
M  V30 BEGIN CTAB
M  V30 COUNTS 29 30 0 0 0
M  V30 BEGIN ATOM
M  V30 1 O -5.4644 -1.1859 1.9772 0
M  V30 2 C -4.4954 -1.6068 2.5781 0
M  V30 3 O -4.6077 -2.416 3.6434 0
M  V30 4 C -3.0795 -1.3435 2.2932 0
M  V30 5 C -2.7451 -0.5673 1.2515 0
M  V30 6 C -1.3629 -0.2283 0.8864 0
M  V30 7 C -1.1035 1.026 0.3221 0
M  V30 8 C -0.3031 -1.1318 1.0292 0
M  V30 9 C 0.192 1.3823 -0.0648 0
M  V30 10 C 0.9939 -0.7784 0.6418 0
M  V30 11 C 1.2559 0.4845 0.0944 0
M  V30 12 C 2.6529 0.8642 -0.3263 0
M  V30 13 N 2.7951 0.8845 -1.7712 0
M  V30 14 C 2.8937 -0.2112 -2.5812 0
M  V30 15 C 2.922 1.9949 -2.5603 0
M  V30 16 N 3.0716 0.1348 -3.8365 0
M  V30 17 C 3.0848 1.5056 -3.8355 0
M  V30 18 H -5.5756 -2.5293 3.7483 0
M  V30 19 H -2.3529 -1.7876 2.9611 0
M  V30 20 H -3.5225 -0.1266 0.6283 0
M  V30 21 H -1.9095 1.7438 0.1806 0
M  V30 22 H -0.4728 -2.1286 1.4294 0
M  V30 23 H 0.3592 2.3659 -0.5001 0
M  V30 24 H 1.7939 -1.5055 0.7663 0
M  V30 25 H 3.3971 0.1603 0.0645 0
M  V30 26 H 2.9096 1.8568 0.0624 0
M  V30 27 H 2.8294 -1.2263 -2.2114 0
M  V30 28 H 2.8872 3.0021 -2.1699 0
M  V30 29 H 3.2152 2.0666 -4.7519 0
M  V30 END ATOM
M  V30 BEGIN BOND
M  V30 1 2 1 2
M  V30 2 1 2 3
M  V30 3 1 2 4
M  V30 4 2 4 5
M  V30 5 1 5 6
M  V30 6 2 6 7
M  V30 7 1 6 8
M  V30 8 1 7 9
M  V30 9 2 8 10
M  V30 10 2 9 11
M  V30 11 1 11 12
M  V30 12 1 12 13
M  V30 13 1 13 14
M  V30 14 1 13 15
M  V30 15 2 14 16
M  V30 16 2 15 17
M  V30 17 1 10 11
M  V30 18 1 16 17
M  V30 19 1 3 18
M  V30 20 1 4 19
M  V30 21 1 5 20
M  V30 22 1 7 21
M  V30 23 1 8 22
M  V30 24 1 9 23
M  V30 25 1 10 24
M  V30 26 1 12 25
M  V30 27 1 12 26
M  V30 28 1 14 27
M  V30 29 1 15 28
M  V30 30 1 17 29
M  V30 END BOND
M  V30 END CTAB
M  END
>  <Column 1>
3651

>  <level_0>
5917

>  <index>
5918

>  <Unnamed: 0>
5918

>  <NO.>
5930

>  <Name>
ozagrel

>  <IUPAC_name>
(e)-3-[4-(imidazol-1-ylmethyl)phenyl]prop-2-enoic acid

>  <SMILES>
O=C(O)/C=C/c1ccc(Cn2ccnc2)cc1

>  <CID>
5282440

>  <logBB>


>  <BBB+/BBB->
BBB-

>  <Inchi>
InChI=1S/C13H12N2O2/c16-13(17)6-5-11-1-3-12(4-2-11)9-15-8-7-14-10-15/h1-8-10H-9H2-(H-16-17)/b6-5+

>  <threshold>


>  <reference>
R23|

>  <group>
C

>  <Class>
-1

>  <ABC>
12.95

>  <ABCGG>
10.82

>  <nAcid>
1

>  <nBase>
0

>  <nAromAtom>
11

>  <nAromBond>
11

>  <nAtom>
29

>  <nHeavyAtom>
17

>  <nSpiro>
0

>  <nBridgehead>
0

>  <nHetero>
4

>  <nN>
2

>  <nO>
2

>  <nF>
0

>  <BalabanJ>
1.6

>  <BertzCT>
512.86

>  <nBonds>
30

>  <nBondsO>
18

>  <nBondsS>
17

>  <nBondsD>
2

>  <nBondsT>
0

>  <nBondsA>
11

>  <nBondsM>
13

>  <nBondsKS>
23

>  <nBondsKD>
7

>  <RNCG>
0.29

>  <RPCG>
0.2

>  <FCSP3>
0.08

>  <SZ>
20

>  <Sm>
19

>  <Sv>
19.2

>  <Sse>
29.31

>  <Sp>
20.07

>  <Si>
32.49

>  <MZ>
0.69

>  <Mm>
0.66

>  <Mv>
0.66

>  <Mse>
1.01

>  <Mp>
0.69

>  <Mi>
1.12

>  <NsCH3>
0

>  <NdCH2>
0

>  <NssCH2>
1

>  <NtCH>
0

>  <NdsCH>
2

>  <NaaCH>
7

>  <NsssCH>
0

>  <NddC>
0

>  <NtsC>
0

>  <NdssC>
1

>  <NaasC>
2

>  <NaaaC>
0

>  <NssssC>
0

>  <NsNH3>
0

>  <NsNH2>
0

>  <NssNH2>
0

>  <NdNH>
0

>  <NssNH>
0

>  <NaaNH>
0

>  <NtN>
0

>  <NsssNH>
0

>  <NdsN>
0

>  <NaaN>
1

>  <NsssN>
0

>  <NddsN>
0

>  <NaasN>
1

>  <NssssN>
0

>  <NsOH>
1

>  <NdO>
1

>  <NssO>
0

>  <NaaO>
0

>  <NsF>
0

>  <NsSiH3>
0

>  <NssSiH2>
0

>  <NsssSiH>
0

>  <NssssSi>
0

>  <NsPH2>
0

>  <NssPH>
0

>  <NsssP>
0

>  <NdsssP>
0

>  <NsssssP>
0

>  <NsSH>
0

>  <NdS>
0

>  <NssS>
0

>  <NaaS>
0

>  <NdssS>
0

>  <NddssS>
0

>  <NsCl>
0

>  <NsBr>
0

>  <NsI>
0

>  <fragCpx>
52.04

>  <fMF>
0.41

>  <nHBAcc>
3

>  <nHBDon>
1

>  <Kier1>
13.43

>  <Kier2>
6.81

>  <Lipinski>
1

>  <GhoseFilter>
1

>  <FilterItLogS>
-1.74

>  <VMcGowan>
173.91

>  <LabuteASA>
98.85

>  <PEOE_VSA1>
9.67

>  <PEOE_VSA2>
0

>  <PEOE_VSA3>
9.78

>  <PEOE_VSA4>
0

>  <PEOE_VSA5>
0

>  <PEOE_VSA6>
24.27

>  <PEOE_VSA7>
17.2

>  <PEOE_VSA8>
25.01

>  <PEOE_VSA9>
6.33

>  <PEOE_VSA10>
0

>  <PEOE_VSA11>
0

>  <PEOE_VSA12>
0

>  <PEOE_VSA13>
0

>  <SMR_VSA1>
9.9

>  <SMR_VSA2>
0

>  <SMR_VSA3>
9.55

>  <SMR_VSA4>
0

>  <SMR_VSA5>
6.54

>  <SMR_VSA6>
0

>  <SMR_VSA7>
60.19

>  <SMR_VSA8>
0

>  <SMR_VSA9>
0

>  <SlogP_VSA1>
0

>  <SlogP_VSA2>
20.63

>  <SlogP_VSA3>
11.34

>  <SlogP_VSA4>
0

>  <SlogP_VSA5>
11.13

>  <SlogP_VSA6>
49.06

>  <SlogP_VSA7>
0

>  <SlogP_VSA8>
6.08

>  <SlogP_VSA9>
0

>  <SlogP_VSA10>
0

>  <SlogP_VSA11>
0

>  <EState_VSA1>
5.97

>  <EState_VSA2>
0

>  <EState_VSA3>
0

>  <EState_VSA4>
23.75

>  <EState_VSA5>
0

>  <EState_VSA6>
18.6

>  <EState_VSA7>
35.03

>  <EState_VSA8>
4.98

>  <EState_VSA9>
5.11

>  <EState_VSA10>
4.79

>  <VSA_EState1>
1.97

>  <VSA_EState2>
14.33

>  <VSA_EState3>
8.5

>  <VSA_EState4>
2.03

>  <VSA_EState5>
-0.94

>  <VSA_EState6>
7.74

>  <VSA_EState7>
8.11

>  <VSA_EState8>
0.77

>  <VSA_EState9>
0

>  <apol>
33.52

>  <bpol>
15.76

>  <nRing>
2

>  <nHRing>
1

>  <naRing>
2

>  <naHRing>
1

>  <nARing 2>
0

>  <nAHRing 2>
0

>  <nFRing>
0

>  <nFHRing>
0

>  <nFaRing>
0

>  <nFaHRing>
0

>  <nFARing 2>
0

>  <nFAHRing 2>
0

>  <nRot>
4

>  <SLogP>
2.03

>  <SMR>
64.44

>  <TopoPSA(NO)>
55.12

>  <TopoPSA>
55.12

>  <JGI1>
0.19

>  <JGI2>
0.05

>  <JGI3>
0.03

>  <JGI4>
0.04

>  <JGI5>
0.02

>  <Diameter>
11

>  <Radius>
6

>  <TMWC10>
103.83

>  <TSRW10>
61.88

>  <MW>
228.09

>  <AMW>
7.87

>  <WPath>
615

>  <WPol>
18

>  <Zagreb1>
82

>  <Zagreb2>
90

>  <mZagreb2>
3.83

>  <yes>


>  <nAR-cont>
0.336376

>  <nHA-cont>
0.976740822

>  <MWHBN>
0.264854203

>  <MWHBN-cont>
0.931429137

>  <TPSA-cont>
0.615228173

>  <pka_cont>
0.97

>  <yes.1>


>  <BBB_SCORE>
4.425716872

>  <MMFF94 Energy>
5.4245

$$$$
Compound 2868
Actelion Java MolfileCreator 2.0

  0  0  0  0  0  0              0 V3000
M  V30 BEGIN CTAB
M  V30 COUNTS 48 50 0 0 0
M  V30 BEGIN ATOM
M  V30 1 O -4.138 0.3973 -0.5562 0
M  V30 2 C -3.5288 0.834 -1.5192 0
M  V30 3 O -4.1049 0.8721 -2.7362 0
M  V30 4 C -2.1405 1.4282 -1.5144 0
M  V30 5 C -2.2904 2.9392 -1.286 0
M  V30 6 C -1.3001 0.7514 -0.4219 0
M  V30 7 C -0.994 3.7051 -1.3989 0
M  V30 8 C -1.0573 -0.7199 -0.7183 0
M  V30 9 C -0.4303 4.3199 -0.2727 0
M  V30 10 C -0.3365 3.8134 -2.6319 0
M  V30 11 O -1.371 -1.2276 -1.7942 0
M  V30 12 N -0.4471 -1.4447 0.2804 0
M  V30 13 C 0.7717 5.0215 -0.377 0
M  V30 14 C 0.8655 4.5148 -2.7338 0
M  V30 15 C -0.178 -2.8653 0.124 0
M  V30 16 C -0.0078 -0.9555 1.5809 0
M  V30 17 C 1.4199 5.1176 -1.6066 0
M  V30 18 C 0.205 -3.3327 1.5296 0
M  V30 19 C 0.863 -2.0832 2.1394 0
M  V30 20 C 1.0695 -4.5886 1.5746 0
M  V30 21 C 2.3315 -1.9107 1.7245 0
M  V30 22 C 2.5197 -4.3523 1.1652 0
M  V30 23 C 3.1338 -3.1886 1.9348 0
M  V30 24 H -4.9626 0.4159 -2.6091 0
M  V30 25 H -1.6829 1.2291 -2.4919 0
M  V30 26 H -2.9949 3.3639 -2.0143 0
M  V30 27 H -2.7486 3.1229 -0.3045 0
M  V30 28 H -0.3161 1.2281 -0.354 0
M  V30 29 H -1.7919 0.8444 0.5533 0
M  V30 30 H -0.923 4.2576 0.6949 0
M  V30 31 H -0.7579 3.3526 -3.523 0
M  V30 32 H 1.2017 5.4957 0.5013 0
M  V30 33 H 1.3682 4.592 -3.6943 0
M  V30 34 H -1.0618 -3.3828 -0.2627 0
M  V30 35 H 0.6334 -2.9745 -0.6028 0
M  V30 36 H -0.904 -0.8106 2.1948 0
M  V30 37 H 0.5152 5.0E-4 1.4899 0
M  V30 38 H 2.3551 5.665 -1.6876 0
M  V30 39 H -0.7261 -3.5355 2.078 0
M  V30 40 H 0.8098 -2.1103 3.2342 0
M  V30 41 H 1.0631 -4.9742 2.6024 0
M  V30 42 H 0.6305 -5.3716 0.9455 0
M  V30 43 H 2.78 -1.0952 2.3045 0
M  V30 44 H 2.405 -1.6144 0.6704 0
M  V30 45 H 2.5769 -4.1538 0.0886 0
M  V30 46 H 3.103 -5.2617 1.3488 0
M  V30 47 H 3.1734 -3.4296 3.004 0
M  V30 48 H 4.1662 -3.0328 1.6024 0
M  V30 END ATOM
M  V30 BEGIN BOND
M  V30 1 2 1 2
M  V30 2 1 2 3
M  V30 3 1 2 4
M  V30 4 1 4 5
M  V30 5 1 4 6
M  V30 6 1 5 7
M  V30 7 1 6 8
M  V30 8 2 7 9
M  V30 9 1 7 10
M  V30 10 2 8 11
M  V30 11 1 8 12
M  V30 12 1 9 13
M  V30 13 2 10 14
M  V30 14 1 12 15
M  V30 15 1 12 16
M  V30 16 2 13 17
M  V30 17 1 15 18
M  V30 18 1 16 19
M  V30 19 1 18 20
M  V30 20 1 19 21
M  V30 21 1 20 22
M  V30 22 1 21 23
M  V30 23 1 14 17
M  V30 24 1 18 19
M  V30 25 1 22 23
M  V30 26 1 3 24
M  V30 27 1 4 25
M  V30 28 1 5 26
M  V30 29 1 5 27
M  V30 30 1 6 28
M  V30 31 1 6 29
M  V30 32 1 9 30
M  V30 33 1 10 31
M  V30 34 1 13 32
M  V30 35 1 14 33
M  V30 36 1 15 34
M  V30 37 1 15 35
M  V30 38 1 16 36
M  V30 39 1 16 37
M  V30 40 1 17 38
M  V30 41 1 18 39
M  V30 42 1 19 40
M  V30 43 1 20 41
M  V30 44 1 20 42
M  V30 45 1 21 43
M  V30 46 1 21 44
M  V30 47 1 22 45
M  V30 48 1 22 46
M  V30 49 1 23 47
M  V30 50 1 23 48
M  V30 END BOND
M  V30 END CTAB
M  END
>  <Column 1>
3652

>  <level_0>
5918

>  <index>
5919

>  <Unnamed: 0>
5919

>  <NO.>
5931

>  <Name>
mitiglinide

>  <IUPAC_name>
4-(1-3-3a-4-5-6-7-7a-octahydroisoindol-2-yl)-2-benzyl-4-oxobutanoic acid

>  <SMILES>
O=C(O)C(CC(=O)N1CC2CCCCC2C1)Cc1ccccc1

>  <CID>
3047758

>  <logBB>


>  <BBB+/BBB->
BBB-

>  <Inchi>
InChI=1S/C19H25NO3/c21-18(20-12-15-8-4-5-9-16(15)13-20)11-17(19(22)23)10-14-6-2-1-3-7-14/h1-3-6-7-15-17H-4-5-8-13H2-(H-22-23)

>  <threshold>


>  <reference>
R23|

>  <group>
C

>  <Class>
1

>  <ABC>
17.88

>  <ABCGG>
14.73

>  <nAcid>
1

>  <nBase>
0

>  <nAromAtom>
6

>  <nAromBond>
6

>  <nAtom>
48

>  <nHeavyAtom>
23

>  <nSpiro>
0

>  <nBridgehead>
0

>  <nHetero>
4

>  <nN>
1

>  <nO>
3

>  <nF>
0

>  <BalabanJ>
1.5

>  <BertzCT>
542.99

>  <nBonds>
50

>  <nBondsO>
25

>  <nBondsS>
42

>  <nBondsD>
2

>  <nBondsT>
0

>  <nBondsA>
6

>  <nBondsM>
8

>  <nBondsKS>
45

>  <nBondsKD>
5

>  <RNCG>
0.25

>  <RPCG>
0.16

>  <FCSP3>
0.58

>  <SZ>
28.33

>  <Sm>
26.26

>  <Sv>
28.68

>  <Sse>
47.75

>  <Sp>
31.08

>  <Si>
54.11

>  <MZ>
0.59

>  <Mm>
0.55

>  <Mv>
0.6

>  <Mse>
0.99

>  <Mp>
0.65

>  <Mi>
1.13

>  <NsCH3>
0

>  <NdCH2>
0

>  <NssCH2>
8

>  <NtCH>
0

>  <NdsCH>
0

>  <NaaCH>
5

>  <NsssCH>
3

>  <NddC>
0

>  <NtsC>
0

>  <NdssC>
2

>  <NaasC>
1

>  <NaaaC>
0

>  <NssssC>
0

>  <NsNH3>
0

>  <NsNH2>
0

>  <NssNH2>
0

>  <NdNH>
0

>  <NssNH>
0

>  <NaaNH>
0

>  <NtN>
0

>  <NsssNH>
0

>  <NdsN>
0

>  <NaaN>
0

>  <NsssN>
1

>  <NddsN>
0

>  <NaasN>
0

>  <NssssN>
0

>  <NsOH>
1

>  <NdO>
2

>  <NssO>
0

>  <NaaO>
0

>  <NsF>
0

>  <NsSiH3>
0

>  <NssSiH2>
0

>  <NsssSiH>
0

>  <NssssSi>
0

>  <NsPH2>
0

>  <NssPH>
0

>  <NsssP>
0

>  <NdsssP>
0

>  <NsssssP>
0

>  <NsSH>
0

>  <NdS>
0

>  <NssS>
0

>  <NaaS>
0

>  <NdssS>
0

>  <NddssS>
0

>  <NsCl>
0

>  <NsBr>
0

>  <NsI>
0

>  <fragCpx>
119.04

>  <fMF>
0.4

>  <nHBAcc>
2

>  <nHBDon>
1

>  <Kier1>
17.81

>  <Kier2>
8.39

>  <Lipinski>
1

>  <GhoseFilter>
1

>  <FilterItLogS>
-2.9

>  <VMcGowan>
252.08

>  <LabuteASA>
137.04

>  <PEOE_VSA1>
10.01

>  <PEOE_VSA2>
9.59

>  <PEOE_VSA3>
0

>  <PEOE_VSA4>
0

>  <PEOE_VSA5>
0

>  <PEOE_VSA6>
43.17

>  <PEOE_VSA7>
36.66

>  <PEOE_VSA8>
19.51

>  <PEOE_VSA9>
5.92

>  <PEOE_VSA10>
0

>  <PEOE_VSA11>
0

>  <PEOE_VSA12>
5.91

>  <PEOE_VSA13>
0

>  <SMR_VSA1>
14.7

>  <SMR_VSA2>
0

>  <SMR_VSA3>
4.9

>  <SMR_VSA4>
17.75

>  <SMR_VSA5>
38.52

>  <SMR_VSA6>
13.09

>  <SMR_VSA7>
35.9

>  <SMR_VSA8>
0

>  <SMR_VSA9>
0

>  <SlogP_VSA1>
0

>  <SlogP_VSA2>
34.97

>  <SlogP_VSA3>
16.01

>  <SlogP_VSA4>
17.75

>  <SlogP_VSA5>
37.67

>  <SlogP_VSA6>
30.33

>  <SlogP_VSA7>
0

>  <SlogP_VSA8>
0

>  <SlogP_VSA9>
0

>  <SlogP_VSA10>
0

>  <SlogP_VSA11>
0

>  <EState_VSA1>
11.89

>  <EState_VSA2>
12.33

>  <EState_VSA3>
18.26

>  <EState_VSA4>
18.65

>  <EState_VSA5>
25.68

>  <EState_VSA6>
0

>  <EState_VSA7>
35.23

>  <EState_VSA8>
0

>  <EState_VSA9>
0

>  <EState_VSA10>
14.7

>  <VSA_EState1>
0

>  <VSA_EState2>
26.01

>  <VSA_EState3>
9.46

>  <VSA_EState4>
0.97

>  <VSA_EState5>
-0.2

>  <VSA_EState6>
9.56

>  <VSA_EState7>
5.53

>  <VSA_EState8>
1.67

>  <VSA_EState9>
0

>  <apol>
51.91

>  <bpol>
28.53

>  <nRing>
3

>  <nHRing>
1

>  <naRing>
1

>  <naHRing>
0

>  <nARing 2>
2

>  <nAHRing 2>
1

>  <nFRing>
1

>  <nFHRing>
1

>  <nFaRing>
0

>  <nFaHRing>
0

>  <nFARing 2>
1

>  <nFAHRing 2>
1

>  <nRot>
5

>  <SLogP>
2.97

>  <SMR>
87.92

>  <TopoPSA(NO)>
57.61

>  <TopoPSA>
57.61

>  <JGI1>
0.18

>  <JGI2>
0.07

>  <JGI3>
0.04

>  <JGI4>
0.05

>  <JGI5>
0.02

>  <Diameter>
12

>  <Radius>
6

>  <TMWC10>
121.75

>  <TSRW10>
71.01

>  <MW>
315.18

>  <AMW>
6.57

>  <WPath>
1269

>  <WPol>
32

>  <Zagreb1>
118

>  <Zagreb2>
136

>  <mZagreb2>
5.08

>  <yes>


>  <nAR-cont>
1

>  <nHA-cont>
0.967789328

>  <MWHBN>
0.168982577

>  <MWHBN-cont>
0.972348915

>  <TPSA-cont>
0.597846426

>  <pka_cont>
0.97

>  <yes.1>


>  <BBB_SCORE>
5.107005553

>  <MMFF94 Energy>
-24.023

$$$$
Compound 2869
Actelion Java MolfileCreator 2.0

  0  0  0  0  0  0              0 V3000
M  V30 BEGIN CTAB
M  V30 COUNTS 43 46 0 0 0
M  V30 BEGIN ATOM
M  V30 1 O -1.2851 5.9545 -2.652 0
M  V30 2 C -0.2904 5.2764 -2.4757 0
M  V30 3 O 0.9187 5.6842 -2.8985 0
M  V30 4 C -0.2491 3.9545 -1.8038 0
M  V30 5 C 0.9438 3.234 -1.6533 0
M  V30 6 C -1.448 3.427 -1.3044 0
M  V30 7 C 0.9402 1.9905 -1.0142 0
M  V30 8 C -1.4589 2.1853 -0.6644 0
M  V30 9 C -0.2658 1.4637 -0.5356 0
M  V30 10 N -0.2871 0.2143 0.1231 0
M  V30 11 N -0.9379 0.0961 1.3076 0
M  V30 12 C 0.3456 -0.978 -0.1978 0
M  V30 13 C -0.5723 -1.1246 1.7239 0
M  V30 14 N 0.2374 -1.7947 0.8397 0
M  V30 15 C 1.0335 -1.3323 -1.4478 0
M  V30 16 C -0.9919 -1.6967 3.0007 0
M  V30 17 C 2.049 -2.3059 -1.4411 0
M  V30 18 C 0.5972 -0.8617 -2.697 0
M  V30 19 C -1.781 -0.9829 3.9191 0
M  V30 20 C -0.6021 -3.0038 3.3368 0
M  V30 21 O 2.4751 -2.9135 -0.2872 0
M  V30 22 C 2.687 -2.7046 -2.6146 0
M  V30 23 C 1.2294 -1.2637 -3.8791 0
M  V30 24 O -2.2192 0.2973 3.6947 0
M  V30 25 C -2.1665 -1.5531 5.1325 0
M  V30 26 C -0.9881 -3.5765 4.5528 0
M  V30 27 C 2.2822 -2.1743 -3.836 0
M  V30 28 C -1.7695 -2.8506 5.4495 0
M  V30 29 H 0.7426 6.5571 -3.3093 0
M  V30 30 H 1.8841 3.6368 -2.0244 0
M  V30 31 H -2.3773 3.9857 -1.4074 0
M  V30 32 H 1.8839 1.4626 -0.8896 0
M  V30 33 H -2.3975 1.7942 -0.2746 0
M  V30 34 H -0.248 -0.1831 -2.7829 0
M  V30 35 H 0.0055 -3.5912 2.6514 0
M  V30 36 H 1.8099 -2.7219 0.4074 0
M  V30 37 H 3.4855 -3.4405 -2.5738 0
M  V30 38 H 0.8889 -0.8751 -4.8363 0
M  V30 39 H -1.8825 0.571 2.814 0
M  V30 40 H -2.7763 -0.9827 5.8282 0
M  V30 41 H -0.6785 -4.5895 4.7979 0
M  V30 42 H 2.7712 -2.4898 -4.754 0
M  V30 43 H -2.0705 -3.2942 6.3951 0
M  V30 END ATOM
M  V30 BEGIN BOND
M  V30 1 2 1 2
M  V30 2 1 2 3
M  V30 3 1 2 4
M  V30 4 2 4 5
M  V30 5 1 4 6
M  V30 6 1 5 7
M  V30 7 2 6 8
M  V30 8 2 7 9
M  V30 9 1 9 10
M  V30 10 1 10 11
M  V30 11 1 10 12
M  V30 12 2 11 13
M  V30 13 2 12 14
M  V30 14 1 12 15
M  V30 15 1 13 16
M  V30 16 2 15 17
M  V30 17 1 15 18
M  V30 18 2 16 19
M  V30 19 1 16 20
M  V30 20 1 17 21
M  V30 21 1 17 22
M  V30 22 2 18 23
M  V30 23 1 19 24
M  V30 24 1 19 25
M  V30 25 2 20 26
M  V30 26 2 22 27
M  V30 27 2 25 28
M  V30 28 1 8 9
M  V30 29 1 13 14
M  V30 30 1 23 27
M  V30 31 1 26 28
M  V30 32 1 3 29
M  V30 33 1 5 30
M  V30 34 1 6 31
M  V30 35 1 7 32
M  V30 36 1 8 33
M  V30 37 1 18 34
M  V30 38 1 20 35
M  V30 39 1 21 36
M  V30 40 1 22 37
M  V30 41 1 23 38
M  V30 42 1 24 39
M  V30 43 1 25 40
M  V30 44 1 26 41
M  V30 45 1 27 42
M  V30 46 1 28 43
M  V30 END BOND
M  V30 END CTAB
M  END
>  <Column 1>
3656

>  <level_0>
5922

>  <index>
5923

>  <Unnamed: 0>
5923

>  <NO.>
5935

>  <Name>
deferasirox

>  <IUPAC_name>
4-[3-5-bis(2-hydroxyphenyl)-1-2-4-triazol-1-yl]benzoic acid

>  <SMILES>
O=C(O)c1ccc(-n2nc(-c3ccccc3O)nc2-c2ccccc2O)cc1

>  <CID>
214348

>  <logBB>


>  <BBB+/BBB->
BBB-

>  <Inchi>
InChI=1S/C21H15N3O4/c25-17-7-3-1-5-15(17)19-22-20(16-6-2-4-8-18(16)26)24(23-19)14-11-9-13(10-12-14)21(27)28/h1-12-25-26H-(H-27-28)

>  <threshold>


>  <reference>
R23|

>  <group>
C

>  <Class>
-1

>  <ABC>
22.07

>  <ABCGG>
17.28

>  <nAcid>
1

>  <nBase>
0

>  <nAromAtom>
23

>  <nAromBond>
23

>  <nAtom>
43

>  <nHeavyAtom>
28

>  <nSpiro>
0

>  <nBridgehead>
0

>  <nHetero>
7

>  <nN>
3

>  <nO>
4

>  <nF>
0

>  <BalabanJ>
1.48

>  <BertzCT>
1166.5

>  <nBonds>
46

>  <nBondsO>
31

>  <nBondsS>
22

>  <nBondsD>
1

>  <nBondsT>
0

>  <nBondsA>
23

>  <nBondsM>
24

>  <nBondsKS>
34

>  <nBondsKD>
12

>  <RNCG>
0.18

>  <RPCG>
0.12

>  <FCSP3>
0

>  <SZ>
32.33

>  <Sm>
31.09

>  <Sv>
30.2

>  <Sse>
43.97

>  <Sp>
30.89

>  <Si>
47.82

>  <MZ>
0.75

>  <Mm>
0.72

>  <Mv>
0.7

>  <Mse>
1.02

>  <Mp>
0.72

>  <Mi>
1.11

>  <NsCH3>
0

>  <NdCH2>
0

>  <NssCH2>
0

>  <NtCH>
0

>  <NdsCH>
0

>  <NaaCH>
12

>  <NsssCH>
0

>  <NddC>
0

>  <NtsC>
0

>  <NdssC>
1

>  <NaasC>
8

>  <NaaaC>
0

>  <NssssC>
0

>  <NsNH3>
0

>  <NsNH2>
0

>  <NssNH2>
0

>  <NdNH>
0

>  <NssNH>
0

>  <NaaNH>
0

>  <NtN>
0

>  <NsssNH>
0

>  <NdsN>
0

>  <NaaN>
2

>  <NsssN>
0

>  <NddsN>
0

>  <NaasN>
1

>  <NssssN>
0

>  <NsOH>
3

>  <NdO>
1

>  <NssO>
0

>  <NaaO>
0

>  <NsF>
0

>  <NsSiH3>
0

>  <NssSiH2>
0

>  <NsssSiH>
0

>  <NssssSi>
0

>  <NsPH2>
0

>  <NssPH>
0

>  <NsssP>
0

>  <NdsssP>
0

>  <NsssssP>
0

>  <NsSH>
0

>  <NdS>
0

>  <NssS>
0

>  <NaaS>
0

>  <NdssS>
0

>  <NddssS>
0

>  <NsCl>
0

>  <NsBr>
0

>  <NsI>
0

>  <fragCpx>
205.07

>  <fMF>
0.53

>  <nHBAcc>
6

>  <nHBDon>
3

>  <Kier1>
21.24

>  <Kier2>
9.43

>  <Lipinski>
1

>  <GhoseFilter>
1

>  <FilterItLogS>
-3.94

>  <VMcGowan>
265.13

>  <LabuteASA>
159.34

>  <PEOE_VSA1>
15.32

>  <PEOE_VSA2>
0

>  <PEOE_VSA3>
14.46

>  <PEOE_VSA4>
0

>  <PEOE_VSA5>
5.1

>  <PEOE_VSA6>
24.27

>  <PEOE_VSA7>
48.53

>  <PEOE_VSA8>
0

>  <PEOE_VSA9>
22.38

>  <PEOE_VSA10>
11.5

>  <PEOE_VSA11>
11.65

>  <PEOE_VSA12>
0

>  <PEOE_VSA13>
0

>  <SMR_VSA1>
20.11

>  <SMR_VSA2>
0

>  <SMR_VSA3>
14.76

>  <SMR_VSA4>
0

>  <SMR_VSA5>
0

>  <SMR_VSA6>
0

>  <SMR_VSA7>
78.36

>  <SMR_VSA8>
0

>  <SMR_VSA9>
39.96

>  <SlogP_VSA1>
0

>  <SlogP_VSA2>
36.05

>  <SlogP_VSA3>
0

>  <SlogP_VSA4>
0

>  <SlogP_VSA5>
10.36

>  <SlogP_VSA6>
72.8

>  <SlogP_VSA7>
0

>  <SlogP_VSA8>
28.46

>  <SlogP_VSA9>
0

>  <SlogP_VSA10>
0

>  <SlogP_VSA11>
11.5

>  <EState_VSA1>
5.97

>  <EState_VSA2>
22.89

>  <EState_VSA3>
22.64

>  <EState_VSA4>
0

>  <EState_VSA5>
22.88

>  <EState_VSA6>
54.6

>  <EState_VSA7>
0

>  <EState_VSA8>
10.08

>  <EState_VSA9>
5.11

>  <EState_VSA10>
15.01

>  <VSA_EState1>
1.5

>  <VSA_EState2>
15.63

>  <VSA_EState3>
34.03

>  <VSA_EState4>
1.62

>  <VSA_EState5>
-0.33

>  <VSA_EState6>
19.55

>  <VSA_EState7>
0

>  <VSA_EState8>
0

>  <VSA_EState9>
0

>  <apol>
51.58

>  <bpol>
18.77

>  <nRing>
4

>  <nHRing>
1

>  <naRing>
4

>  <naHRing>
1

>  <nARing 2>
0

>  <nAHRing 2>
0

>  <nFRing>
0

>  <nFHRing>
0

>  <nFaRing>
0

>  <nFaHRing>
0

>  <nFARing 2>
0

>  <nFAHRing 2>
0

>  <nRot>
4

>  <SLogP>
3.71

>  <SMR>
102.52

>  <TopoPSA(NO)>
108.47

>  <TopoPSA>
108.47

>  <JGI1>
0.16

>  <JGI2>
0.09

>  <JGI3>
0.05

>  <JGI4>
0.03

>  <JGI5>
0.03

>  <Diameter>
12

>  <Radius>
6

>  <TMWC10>
136.12

>  <TSRW10>
77.54

>  <MW>
373.11

>  <AMW>
8.68

>  <WPath>
1976

>  <WPol>
46

>  <Zagreb1>
150

>  <Zagreb2>
179

>  <mZagreb2>
6.11

>  <yes>


>  <nAR-cont>
0.336376

>  <nHA-cont>
0.82432561

>  <MWHBN>
0.465933637

>  <MWHBN-cont>
0

>  <TPSA-cont>
0.242812044

>  <pka_cont>
0.97

>  <yes.1>


>  <BBB_SCORE>
2.131325699

>  <MMFF94 Energy>
90.632

$$$$
Compound 2870
Actelion Java MolfileCreator 2.0

  0  0  0  0  0  0              0 V3000
M  V30 BEGIN CTAB
M  V30 COUNTS 27 29 0 0 0
M  V30 BEGIN ATOM
M  V30 1 Cl -1.3334 -1.4168 5.3417 0
M  V30 2 C -2.0193 -0.9145 3.8451 0
M  V30 3 C -3.3975 -0.7538 3.7394 0
M  V30 4 C -1.1858 -0.673 2.7514 0
M  V30 5 C -3.9408 -0.3474 2.5249 0
M  V30 6 C -1.7282 -0.263 1.5243 0
M  V30 7 Cl -5.6434 -0.1445 2.3791 0
M  V30 8 C -3.119 -0.1027 1.4241 0
M  V30 9 C -0.8895 -7.0E-4 0.3578 0
M  V30 10 O 0.4628 -0.1747 0.5179 0
M  V30 11 N -1.2527 0.3873 -0.8518 0
M  V30 12 C 0.9832 0.1338 -0.7044 0
M  V30 13 C -0.069 0.4764 -1.5371 0
M  V30 14 C 2.3221 0.1166 -1.076 0
M  V30 15 C 0.2034 0.8382 -2.8617 0
M  V30 16 C 2.5861 0.481 -2.4069 0
M  V30 17 C 1.5433 0.8356 -3.2837 0
M  V30 18 C 3.9728 0.5052 -2.9355 0
M  V30 19 O 4.2975 0.8061 -4.0687 0
M  V30 20 O 4.8861 0.1502 -2.0155 0
M  V30 21 H -4.0411 -0.9432 4.5941 0
M  V30 22 H -0.1113 -0.8063 2.8615 0
M  V30 23 H -3.5614 0.2149 0.4805 0
M  V30 24 H 3.0984 -0.1615 -0.3743 0
M  V30 25 H -0.5998 1.1115 -3.5376 0
M  V30 26 H 1.7705 1.1152 -4.3125 0
M  V30 27 H 5.7404 0.2097 -2.4935 0
M  V30 END ATOM
M  V30 BEGIN BOND
M  V30 1 1 1 2
M  V30 2 2 2 3
M  V30 3 1 2 4
M  V30 4 1 3 5
M  V30 5 2 4 6
M  V30 6 1 5 7
M  V30 7 2 5 8
M  V30 8 1 6 9
M  V30 9 1 9 10
M  V30 10 2 9 11
M  V30 11 1 10 12
M  V30 12 1 11 13
M  V30 13 1 12 14
M  V30 14 1 13 15
M  V30 15 2 14 16
M  V30 16 2 15 17
M  V30 17 1 16 18
M  V30 18 2 18 19
M  V30 19 1 18 20
M  V30 20 1 6 8
M  V30 21 2 12 13
M  V30 22 1 16 17
M  V30 23 1 3 21
M  V30 24 1 4 22
M  V30 25 1 8 23
M  V30 26 1 14 24
M  V30 27 1 15 25
M  V30 28 1 17 26
M  V30 29 1 20 27
M  V30 END BOND
M  V30 END CTAB
M  END
>  <Column 1>
3657

>  <level_0>
5923

>  <index>
5924

>  <Unnamed: 0>
5924

>  <NO.>
5936

>  <Name>
tafamidis

>  <IUPAC_name>
2-(3-5-dichlorophenyl)-1-3-benzoxazole-6-carboxylic acid

>  <SMILES>
O=C(O)c1ccc2nc(-c3cc(Cl)cc(Cl)c3)oc2c1

>  <CID>
11001318

>  <logBB>


>  <BBB+/BBB->
BBB-

>  <Inchi>
InChI=1S/C14H7Cl2NO3/c15-9-3-8(4-10(16)6-9)13-17-11-2-1-7(14(18)19)5-12(11)20-13/h1-6H-(H-18-19)

>  <threshold>


>  <reference>
R23|

>  <group>
C

>  <Class>
1

>  <ABC>
15.87

>  <ABCGG>
12.89

>  <nAcid>
1

>  <nBase>
0

>  <nAromAtom>
15

>  <nAromBond>
16

>  <nAtom>
27

>  <nHeavyAtom>
20

>  <nSpiro>
0

>  <nBridgehead>
0

>  <nHetero>
6

>  <nN>
1

>  <nO>
3

>  <nF>
0

>  <BalabanJ>
1.59

>  <BertzCT>
806.15

>  <nBonds>
29

>  <nBondsO>
22

>  <nBondsS>
12

>  <nBondsD>
1

>  <nBondsT>
0

>  <nBondsA>
16

>  <nBondsM>
17

>  <nBondsKS>
21

>  <nBondsKD>
8

>  <RNCG>
0.28

>  <RPCG>
0.2

>  <FCSP3>
0

>  <SZ>
26

>  <Sm>
25.65

>  <Sv>
20.98

>  <Sse>
28.29

>  <Sp>
21.51

>  <Si>
29.68

>  <MZ>
0.96

>  <Mm>
0.95

>  <Mv>
0.78

>  <Mse>
1.05

>  <Mp>
0.8

>  <Mi>
1.1

>  <NsCH3>
0

>  <NdCH2>
0

>  <NssCH2>
0

>  <NtCH>
0

>  <NdsCH>
0

>  <NaaCH>
6

>  <NsssCH>
0

>  <NddC>
0

>  <NtsC>
0

>  <NdssC>
1

>  <NaasC>
5

>  <NaaaC>
2

>  <NssssC>
0

>  <NsNH3>
0

>  <NsNH2>
0

>  <NssNH2>
0

>  <NdNH>
0

>  <NssNH>
0

>  <NaaNH>
0

>  <NtN>
0

>  <NsssNH>
0

>  <NdsN>
0

>  <NaaN>
1

>  <NsssN>
0

>  <NddsN>
0

>  <NaasN>
0

>  <NssssN>
0

>  <NsOH>
1

>  <NdO>
1

>  <NssO>
0

>  <NaaO>
1

>  <NsF>
0

>  <NsSiH3>
0

>  <NssSiH2>
0

>  <NsssSiH>
0

>  <NssssSi>
0

>  <NsPH2>
0

>  <NssPH>
0

>  <NsssP>
0

>  <NdsssP>
0

>  <NsssssP>
0

>  <NsSH>
0

>  <NdS>
0

>  <NssS>
0

>  <NaaS>
0

>  <NdssS>
0

>  <NddssS>
0

>  <NsCl>
2

>  <NsBr>
0

>  <NsI>
0

>  <fragCpx>
104.06

>  <fMF>
0.56

>  <nHBAcc>
3

>  <nHBDon>
1

>  <Kier1>
14.92

>  <Kier2>
6.01

>  <Lipinski>
1

>  <GhoseFilter>
1

>  <FilterItLogS>
-5.11

>  <VMcGowan>
193.21

>  <LabuteASA>
123.11

>  <PEOE_VSA1>
9.52

>  <PEOE_VSA2>
0

>  <PEOE_VSA3>
9.78

>  <PEOE_VSA4>
0

>  <PEOE_VSA5>
0

>  <PEOE_VSA6>
23.2

>  <PEOE_VSA7>
36.4

>  <PEOE_VSA8>
15.61

>  <PEOE_VSA9>
5.56

>  <PEOE_VSA10>
5.52

>  <PEOE_VSA11>
5.58

>  <PEOE_VSA12>
5.89

>  <PEOE_VSA13>
0

>  <SMR_VSA1>
14.32

>  <SMR_VSA2>
0

>  <SMR_VSA3>
4.98

>  <SMR_VSA4>
0

>  <SMR_VSA5>
0

>  <SMR_VSA6>
0

>  <SMR_VSA7>
52.01

>  <SMR_VSA8>
0

>  <SMR_VSA9>
11.45

>  <SlogP_VSA1>
0

>  <SlogP_VSA2>
16.06

>  <SlogP_VSA3>
0

>  <SlogP_VSA4>
0

>  <SlogP_VSA5>
10.36

>  <SlogP_VSA6>
40.82

>  <SlogP_VSA7>
10.05

>  <SlogP_VSA8>
22.55

>  <SlogP_VSA9>
0

>  <SlogP_VSA10>
0

>  <SlogP_VSA11>
0

>  <EState_VSA1>
5.97

>  <EState_VSA2>
5.56

>  <EState_VSA3>
32.6

>  <EState_VSA4>
0

>  <EState_VSA5>
12.13

>  <EState_VSA6>
24.27

>  <EState_VSA7>
0

>  <EState_VSA8>
4.98

>  <EState_VSA9>
32.73

>  <EState_VSA10>
4.79

>  <VSA_EState1>
5.56

>  <VSA_EState2>
15.2

>  <VSA_EState3>
9.89

>  <VSA_EState4>
1.75

>  <VSA_EState5>
-0.68

>  <VSA_EState6>
9.46

>  <VSA_EState7>
0

>  <VSA_EState8>
0

>  <VSA_EState9>
0

>  <apol>
35.91

>  <bpol>
11.79

>  <nRing>
3

>  <nHRing>
1

>  <naRing>
3

>  <naHRing>
1

>  <nARing 2>
0

>  <nAHRing 2>
0

>  <nFRing>
1

>  <nFHRing>
1

>  <nFaRing>
1

>  <nFaHRing>
1

>  <nFARing 2>
0

>  <nFAHRing 2>
0

>  <nRot>
2

>  <SLogP>
4.5

>  <SMR>
76.42

>  <TopoPSA(NO)>
63.33

>  <TopoPSA>
63.33

>  <JGI1>
0.25

>  <JGI2>
0.07

>  <JGI3>
0.05

>  <JGI4>
0.06

>  <JGI5>
0.02

>  <Diameter>
10

>  <Radius>
5

>  <TMWC10>
115.86

>  <TSRW10>
67.83

>  <MW>
306.98

>  <AMW>
11.37

>  <WPath>
821

>  <WPol>
30

>  <Zagreb1>
108

>  <Zagreb2>
127

>  <mZagreb2>
4.25

>  <yes>


>  <nAR-cont>
0.336376

>  <nHA-cont>
0.999629945

>  <MWHBN>
0.228299495

>  <MWHBN-cont>
0.988424624

>  <TPSA-cont>
0.557917274

>  <pka_cont>
0.97

>  <yes.1>


>  <BBB_SCORE>
4.41947743

>  <MMFF94 Energy>
6.2172

$$$$
Compound 2871
Actelion Java MolfileCreator 2.0

  0  0  0  0  0  0              0 V3000
M  V30 BEGIN CTAB
M  V30 COUNTS 59 63 0 0 0
M  V30 BEGIN ATOM
M  V30 1 O -1.5289 0.563 1.851 0
M  V30 2 C -1.5437 -0.2568 0.9386 0
M  V30 3 O -0.404 -0.8726 0.4786 0
M  V30 4 C -2.7862 -0.6696 0.0678 0
M  V30 5 C 0.8366 -0.444 1.0643 0
M  V30 6 O -2.6114 -2.0321 -0.3736 0
M  V30 7 C -2.7725 0.2691 -1.1561 0
M  V30 8 C -4.1248 -0.6647 0.8325 0
M  V30 9 C 1.8752 -1.5352 0.7781 0
M  V30 10 C 1.2379 0.9246 0.4939 0
M  V30 11 C -2.4961 -0.2048 -2.4508 0
M  V30 12 C -3.0137 1.6481 -0.9916 0
M  V30 13 C -4.1966 -0.8035 2.2307 0
M  V30 14 C -5.342 -0.6324 0.1195 0
M  V30 15 C 3.323 -1.0381 0.8791 0
M  V30 16 C 2.7302 1.234 0.6663 0
M  V30 17 C -2.4702 0.6664 -3.5423 0
M  V30 18 C -2.9863 2.5164 -2.0845 0
M  V30 19 C -5.4294 -0.8535 2.8893 0
M  V30 20 C -6.5723 -0.6834 0.7789 0
M  V30 21 N 3.5525 0.1608 -0.0673 0 CHG=1
M  V30 22 C 3.5818 -0.413 2.2604 0
M  V30 23 C 3.1752 1.059 2.1265 0
M  V30 24 C -2.7148 2.0252 -3.3587 0
M  V30 25 C -6.6154 -0.7887 2.1647 0
M  V30 26 C 5.0735 0.5317 -0.1372 0
M  V30 27 C 3.1626 -0.0428 -1.543 0
M  V30 28 C 5.4326 0.5452 -1.6113 0
M  V30 29 C 4.455 -0.4232 -2.2287 0
M  V30 30 H 0.714 -0.3733 2.1533 0
M  V30 31 H -3.1205 -2.6006 0.23 0
M  V30 32 H 1.6854 -2.0067 -0.192 0
M  V30 33 H 1.7229 -2.351 1.4981 0
M  V30 34 H 0.9407 0.9938 -0.5594 0
M  V30 35 H 0.6555 1.707 0.9967 0
M  V30 36 H -2.3101 -1.2634 -2.6243 0
M  V30 37 H -3.2407 2.0562 -0.0064 0
M  V30 38 H -3.3012 -0.8739 2.8442 0
M  V30 39 H -5.3464 -0.5704 -0.9683 0
M  V30 40 H 4.0324 -1.833 0.626 0
M  V30 41 H 2.9846 2.2165 0.2543 0
M  V30 42 H -2.2726 0.2808 -4.5396 0
M  V30 43 H -3.1911 3.5752 -1.9424 0
M  V30 44 H -5.4637 -0.9458 3.9727 0
M  V30 45 H -7.497 -0.6452 0.2076 0
M  V30 46 H 4.6447 -0.479 2.5209 0
M  V30 47 H 3.0312 -0.9184 3.0611 0
M  V30 48 H 4.0367 1.7 2.3473 0
M  V30 49 H 2.3898 1.3344 2.8387 0
M  V30 50 H -2.7081 2.6998 -4.2115 0
M  V30 51 H -7.5727 -0.8275 2.679 0
M  V30 52 H 5.2366 1.5055 0.3332 0
M  V30 53 H 5.6381 -0.2428 0.3912 0
M  V30 54 H 2.8023 0.922 -1.919 0
M  V30 55 H 2.3832 -0.7948 -1.6543 0
M  V30 56 H 5.2889 1.551 -2.0245 0
M  V30 57 H 6.4741 0.2589 -1.7838 0
M  V30 58 H 4.7298 -1.4586 -1.9967 0
M  V30 59 H 4.3936 -0.3165 -3.3154 0
M  V30 END ATOM
M  V30 BEGIN BOND
M  V30 1 2 1 2
M  V30 2 1 2 3
M  V30 3 1 2 4
M  V30 4 1 3 5
M  V30 5 1 4 6
M  V30 6 1 4 7
M  V30 7 1 4 8
M  V30 8 1 5 9
M  V30 9 1 5 10
M  V30 10 2 7 11
M  V30 11 1 7 12
M  V30 12 2 8 13
M  V30 13 1 8 14
M  V30 14 1 9 15
M  V30 15 1 10 16
M  V30 16 1 11 17
M  V30 17 2 12 18
M  V30 18 1 13 19
M  V30 19 2 14 20
M  V30 20 1 15 21
M  V30 21 1 15 22
M  V30 22 1 16 23
M  V30 23 2 17 24
M  V30 24 2 19 25
M  V30 25 1 21 26
M  V30 26 1 21 27
M  V30 27 1 26 28
M  V30 28 1 27 29
M  V30 29 1 16 21
M  V30 30 1 18 24
M  V30 31 1 20 25
M  V30 32 1 22 23
M  V30 33 1 28 29
M  V30 34 1 5 30
M  V30 35 1 6 31
M  V30 36 1 9 32
M  V30 37 1 9 33
M  V30 38 1 10 34
M  V30 39 1 10 35
M  V30 40 1 11 36
M  V30 41 1 12 37
M  V30 42 1 13 38
M  V30 43 1 14 39
M  V30 44 1 15 40
M  V30 45 1 16 41
M  V30 46 1 17 42
M  V30 47 1 18 43
M  V30 48 1 19 44
M  V30 49 1 20 45
M  V30 50 1 22 46
M  V30 51 1 22 47
M  V30 52 1 23 48
M  V30 53 1 23 49
M  V30 54 1 24 50
M  V30 55 1 25 51
M  V30 56 1 26 52
M  V30 57 1 26 53
M  V30 58 1 27 54
M  V30 59 1 27 55
M  V30 60 1 28 56
M  V30 61 1 28 57
M  V30 62 1 29 58
M  V30 63 1 29 59
M  V30 END BOND
M  V30 END CTAB
M  END
>  <Column 1>
3658

>  <level_0>
5924

>  <index>
5925

>  <Unnamed: 0>
5925

>  <NO.>
5937

>  <Name>
trospium

>  <IUPAC_name>
spiro[8-azoniabicyclo[3.2.1]octane-8-1'-azolidin-1-ium]-3-yl 2-hydroxy-2-2-diphenylacetate

>  <SMILES>
O=C(OC1CC2CCC(C1)[N+]21CCCC1)C(O)(c1ccccc1)c1ccccc1

>  <CID>
5596

>  <logBB>


>  <BBB+/BBB->
BBB+

>  <Inchi>
InChI=1S/C25H30NO3/c27-24(25(28-19-9-3-1-4-10-19)20-11-5-2-6-12-20)29-23-17-21-13-14-22(18-23)26(21)15-7-8-16-26/h1-6-9-12-21-23-28H-7-8-13-18H2/q+1

>  <threshold>


>  <reference>
R23|

>  <group>
C

>  <Class>
1

>  <ABC>
23.29

>  <ABCGG>
19.03

>  <nAcid>
0

>  <nBase>
1

>  <nAromAtom>
12

>  <nAromBond>
12

>  <nAtom>
59

>  <nHeavyAtom>
29

>  <nSpiro>
1

>  <nBridgehead>
2

>  <nHetero>
4

>  <nN>
1

>  <nO>
3

>  <nF>
0

>  <BalabanJ>
1.3

>  <BertzCT>
804.65

>  <nBonds>
63

>  <nBondsO>
33

>  <nBondsS>
50

>  <nBondsD>
1

>  <nBondsT>
0

>  <nBondsA>
12

>  <nBondsM>
13

>  <nBondsKS>
56

>  <nBondsKD>
7

>  <RNCG>
0.23

>  <RPCG>
0.12

>  <FCSP3>
0.48

>  <SZ>
35.17

>  <Sm>
32.68

>  <Sv>
36.03

>  <Sse>
58.47

>  <Sp>
39.08

>  <Si>
66.15

>  <MZ>
0.6

>  <Mm>
0.55

>  <Mv>
0.61

>  <Mse>
0.99

>  <Mp>
0.66

>  <Mi>
1.12

>  <NsCH3>
0

>  <NdCH2>
0

>  <NssCH2>
8

>  <NtCH>
0

>  <NdsCH>
0

>  <NaaCH>
10

>  <NsssCH>
3

>  <NddC>
0

>  <NtsC>
0

>  <NdssC>
1

>  <NaasC>
2

>  <NaaaC>
0

>  <NssssC>
1

>  <NsNH3>
0

>  <NsNH2>
0

>  <NssNH2>
0

>  <NdNH>
0

>  <NssNH>
0

>  <NaaNH>
0

>  <NtN>
0

>  <NsssNH>
0

>  <NdsN>
0

>  <NaaN>
0

>  <NsssN>
0

>  <NddsN>
0

>  <NaasN>
0

>  <NssssN>
1

>  <NsOH>
1

>  <NdO>
1

>  <NssO>
1

>  <NaaO>
0

>  <NsF>
0

>  <NsSiH3>
0

>  <NssSiH2>
0

>  <NsssSiH>
0

>  <NssssSi>
0

>  <NsPH2>
0

>  <NssPH>
0

>  <NsssP>
0

>  <NdsssP>
0

>  <NsssssP>
0

>  <NsSH>
0

>  <NdS>
0

>  <NssS>
0

>  <NaaS>
0

>  <NdssS>
0

>  <NddssS>
0

>  <NsCl>
0

>  <NsBr>
0

>  <NsI>
0

>  <fragCpx>
277.04

>  <fMF>
0.46

>  <nHBAcc>
3

>  <nHBDon>
1

>  <Kier1>
20.88

>  <Kier2>
8.5

>  <Lipinski>
1

>  <GhoseFilter>
1

>  <FilterItLogS>
-4.9

>  <VMcGowan>
308.45

>  <LabuteASA>
172.25

>  <PEOE_VSA1>
14.33

>  <PEOE_VSA2>
0

>  <PEOE_VSA3>
4.79

>  <PEOE_VSA4>
0

>  <PEOE_VSA5>
0

>  <PEOE_VSA6>
60.66

>  <PEOE_VSA7>
11.13

>  <PEOE_VSA8>
38.52

>  <PEOE_VSA9>
25.17

>  <PEOE_VSA10>
6.1

>  <PEOE_VSA11>
0

>  <PEOE_VSA12>
5.6

>  <PEOE_VSA13>
0

>  <SMR_VSA1>
19.12

>  <SMR_VSA2>
0

>  <SMR_VSA3>
0

>  <SMR_VSA4>
0

>  <SMR_VSA5>
62.31

>  <SMR_VSA6>
13.09

>  <SMR_VSA7>
71.79

>  <SMR_VSA8>
0

>  <SMR_VSA9>
0

>  <SlogP_VSA1>
0

>  <SlogP_VSA2>
46.84

>  <SlogP_VSA3>
15.13

>  <SlogP_VSA4>
0

>  <SlogP_VSA5>
49.65

>  <SlogP_VSA6>
60.66

>  <SlogP_VSA7>
0

>  <SlogP_VSA8>
0

>  <SlogP_VSA9>
0

>  <SlogP_VSA10>
0

>  <SlogP_VSA11>
0

>  <EState_VSA1>
11.57

>  <EState_VSA2>
6.1

>  <EState_VSA3>
23.21

>  <EState_VSA4>
12.84

>  <EState_VSA5>
43.26

>  <EState_VSA6>
24.27

>  <EState_VSA7>
36.4

>  <EState_VSA8>
0

>  <EState_VSA9>
4.74

>  <EState_VSA10>
9.9

>  <VSA_EState1>
7.32

>  <VSA_EState2>
13.4

>  <VSA_EState3>
11.63

>  <VSA_EState4>
-0.67

>  <VSA_EState5>
-0.55

>  <VSA_EState6>
19.58

>  <VSA_EState7>
6.94

>  <VSA_EState8>
2.6

>  <VSA_EState9>
0

>  <apol>
65.26

>  <bpol>
34.98

>  <nRing>
5

>  <nHRing>
3

>  <naRing>
2

>  <naHRing>
0

>  <nARing 2>
3

>  <nAHRing 2>
3

>  <nFRing>
1

>  <nFHRing>
1

>  <nFaRing>
0

>  <nFaHRing>
0

>  <nFARing 2>
1

>  <nFAHRing 2>
1

>  <nRot>
4

>  <SLogP>
3.77

>  <SMR>
111.04

>  <TopoPSA(NO)>
46.53

>  <TopoPSA>
46.53

>  <JGI1>
0.2

>  <JGI2>
0.1

>  <JGI3>
0.05

>  <JGI4>
0.03

>  <JGI5>
0.02

>  <Diameter>
12

>  <Radius>
6

>  <TMWC10>
141.17

>  <TSRW10>
81.56

>  <MW>
392.22

>  <AMW>
6.65

>  <WPath>
2146

>  <WPol>
53

>  <Zagreb1>
164

>  <Zagreb2>
203

>  <mZagreb2>
6.25

>  <yes>


>  <nAR-cont>
0.691115

>  <nHA-cont>
0.785905698

>  <MWHBN>
0.201973841

>  <MWHBN-cont>
0.99989054

>  <TPSA-cont>
0.675191707

>  <pka_cont>
0.97

>  <yes.1>


>  <BBB_SCORE>
4.812239922

>  <MMFF94 Energy>
144.93

$$$$
Compound 2872
Actelion Java MolfileCreator 2.0

  0  0  0  0  0  0              0 V3000
M  V30 BEGIN CTAB
M  V30 COUNTS 53 57 0 0 0
M  V30 BEGIN ATOM
M  V30 1 O -1.0458 1.4482 0.7239 0
M  V30 2 C -0.5985 0.3785 0.3267 0
M  V30 3 O -1.3806 -0.7074 0.0796 0
M  V30 4 N 0.733 0.1401 0.0656 0
M  V30 5 C -2.7875 -0.5274 0.3204 0
M  V30 6 C 1.7072 1.2147 0.273 0
M  V30 7 C 1.2539 -1.1303 -0.424 0
M  V30 8 C -3.4556 -1.9187 0.3233 0
M  V30 9 C -3.4489 0.3298 -0.789 0
M  V30 10 C 2.7838 1.242 -0.8179 0
M  V30 11 C 2.2646 1.1573 1.699 0
M  V30 12 C 1.9159 -0.9381 -1.7847 0
M  V30 13 C -4.9535 -1.7162 0.5961 0
M  V30 14 C -3.3213 -2.5408 -1.0782 0
M  V30 15 N -4.5404 -0.399 -1.4891 0
M  V30 16 C 2.895 0.2104 -1.774 0
M  V30 17 C 3.683 2.3226 -0.8761 0
M  V30 18 C 1.611 1.8625 2.7249 0
M  V30 19 C 3.3939 0.3908 2.0349 0
M  V30 20 C -5.5534 -0.8119 -0.4935 0
M  V30 21 C -3.9632 -1.6074 -2.1166 0
M  V30 22 C 3.8852 0.2826 -2.7644 0
M  V30 23 C 4.672 2.3763 -1.858 0
M  V30 24 C 2.0812 1.8168 4.0388 0
M  V30 25 C 3.864 0.3476 3.3496 0
M  V30 26 C 4.7723 1.3575 -2.8009 0
M  V30 27 C 3.2087 1.0613 4.3502 0
M  V30 28 H -2.9347 -0.0653 1.3059 0
M  V30 29 H 1.1745 2.1706 0.1669 0
M  V30 30 H 0.4711 -1.8898 -0.5059 0
M  V30 31 H 1.9775 -1.5028 0.3098 0
M  V30 32 H -2.9962 -2.5747 1.0703 0
M  V30 33 H -3.8659 1.2417 -0.3428 0
M  V30 34 H -2.7112 0.6689 -1.5269 0
M  V30 35 H 1.1502 -0.7237 -2.5407 0
M  V30 36 H 2.4231 -1.867 -2.0695 0
M  V30 37 H -5.1 -1.2618 1.5832 0
M  V30 38 H -5.469 -2.684 0.6037 0
M  V30 39 H -3.8176 -3.5186 -1.1005 0
M  V30 40 H -2.2673 -2.7106 -1.326 0
M  V30 41 H 3.6162 3.1294 -0.148 0
M  V30 42 H 0.7209 2.4502 2.5041 0
M  V30 43 H 3.9236 -0.1769 1.2732 0
M  V30 44 H -6.3775 -1.3315 -0.9983 0
M  V30 45 H -6.0046 0.0768 -0.0347 0
M  V30 46 H -3.2186 -1.3149 -2.8676 0
M  V30 47 H -4.7431 -2.1447 -2.6707 0
M  V30 48 H 3.9671 -0.4982 -3.5173 0
M  V30 49 H 5.3612 3.2163 -1.8885 0
M  V30 50 H 1.5629 2.3688 4.8187 0
M  V30 51 H 4.7424 -0.2449 3.5916 0
M  V30 52 H 5.5384 1.4037 -3.5705 0
M  V30 53 H 3.5742 1.0258 5.373 0
M  V30 END ATOM
M  V30 BEGIN BOND
M  V30 1 2 1 2
M  V30 2 1 2 3
M  V30 3 1 2 4
M  V30 4 1 3 5
M  V30 5 1 4 6
M  V30 6 1 4 7
M  V30 7 1 5 8
M  V30 8 1 5 9
M  V30 9 1 6 10
M  V30 10 1 6 11
M  V30 11 1 7 12
M  V30 12 1 8 13
M  V30 13 1 8 14
M  V30 14 1 9 15
M  V30 15 2 10 16
M  V30 16 1 10 17
M  V30 17 2 11 18
M  V30 18 1 11 19
M  V30 19 1 13 20
M  V30 20 1 14 21
M  V30 21 1 16 22
M  V30 22 2 17 23
M  V30 23 1 18 24
M  V30 24 2 19 25
M  V30 25 2 22 26
M  V30 26 2 24 27
M  V30 27 1 12 16
M  V30 28 1 15 20
M  V30 29 1 15 21
M  V30 30 1 23 26
M  V30 31 1 25 27
M  V30 32 1 5 28
M  V30 33 1 6 29
M  V30 34 1 7 30
M  V30 35 1 7 31
M  V30 36 1 8 32
M  V30 37 1 9 33
M  V30 38 1 9 34
M  V30 39 1 12 35
M  V30 40 1 12 36
M  V30 41 1 13 37
M  V30 42 1 13 38
M  V30 43 1 14 39
M  V30 44 1 14 40
M  V30 45 1 17 41
M  V30 46 1 18 42
M  V30 47 1 19 43
M  V30 48 1 20 44
M  V30 49 1 20 45
M  V30 50 1 21 46
M  V30 51 1 21 47
M  V30 52 1 22 48
M  V30 53 1 23 49
M  V30 54 1 24 50
M  V30 55 1 25 51
M  V30 56 1 26 52
M  V30 57 1 27 53
M  V30 END BOND
M  V30 END CTAB
M  END
>  <Column 1>
3659

>  <level_0>
5925

>  <index>
5926

>  <Unnamed: 0>
5926

>  <NO.>
5938

>  <Name>
180272-14-4

>  <IUPAC_name>
1-azabicyclo[2.2.2]octan-3-yl 1-phenyl-3-4-dihydro-1h-isoquinoline-2-carboxylate

>  <SMILES>
O=C(OC1CN2CCC1CC2)N1CCc2ccccc2C1c1ccccc1

>  <CID>
9885319

>  <logBB>


>  <BBB+/BBB->
BBB+

>  <Inchi>
InChI=1S/C23H26N2O2/c26-23(27-21-16-24-13-10-18(21)11-14-24)25-15-12-17-6-4-5-9-20(17)22(25)19-7-2-1-3-8-19/h1-9-18-21-22H-10-16H2

>  <threshold>


>  <reference>
R23|

>  <group>
C

>  <Class>
-1

>  <ABC>
21.79

>  <ABCGG>
16.38

>  <nAcid>
0

>  <nBase>
1

>  <nAromAtom>
12

>  <nAromBond>
12

>  <nAtom>
53

>  <nHeavyAtom>
27

>  <nSpiro>
0

>  <nBridgehead>
2

>  <nHetero>
4

>  <nN>
2

>  <nO>
2

>  <nF>
0

>  <BalabanJ>
1.31

>  <BertzCT>
814.14

>  <nBonds>
57

>  <nBondsO>
31

>  <nBondsS>
44

>  <nBondsD>
1

>  <nBondsT>
0

>  <nBondsA>
12

>  <nBondsM>
13

>  <nBondsKS>
50

>  <nBondsKD>
7

>  <RNCG>
0.23

>  <RPCG>
0.21

>  <FCSP3>
0.43

>  <SZ>
32.33

>  <Sm>
30.18

>  <Sv>
32.99

>  <Sse>
52.53

>  <Sp>
35.66

>  <Si>
59.4

>  <MZ>
0.61

>  <Mm>
0.57

>  <Mv>
0.62

>  <Mse>
0.99

>  <Mp>
0.67

>  <Mi>
1.12

>  <NsCH3>
0

>  <NdCH2>
0

>  <NssCH2>
7

>  <NtCH>
0

>  <NdsCH>
0

>  <NaaCH>
9

>  <NsssCH>
3

>  <NddC>
0

>  <NtsC>
0

>  <NdssC>
1

>  <NaasC>
3

>  <NaaaC>
0

>  <NssssC>
0

>  <NsNH3>
0

>  <NsNH2>
0

>  <NssNH2>
0

>  <NdNH>
0

>  <NssNH>
0

>  <NaaNH>
0

>  <NtN>
0

>  <NsssNH>
0

>  <NdsN>
0

>  <NaaN>
0

>  <NsssN>
2

>  <NddsN>
0

>  <NaasN>
0

>  <NssssN>
0

>  <NsOH>
0

>  <NdO>
1

>  <NssO>
1

>  <NaaO>
0

>  <NsF>
0

>  <NsSiH3>
0

>  <NssSiH2>
0

>  <NsssSiH>
0

>  <NssssSi>
0

>  <NsPH2>
0

>  <NssPH>
0

>  <NsssP>
0

>  <NdsssP>
0

>  <NsssssP>
0

>  <NsSH>
0

>  <NdS>
0

>  <NssS>
0

>  <NaaS>
0

>  <NdssS>
0

>  <NddssS>
0

>  <NsCl>
0

>  <NsBr>
0

>  <NsI>
0

>  <fragCpx>
259.04

>  <fMF>
0.49

>  <nHBAcc>
3

>  <nHBDon>
0

>  <Kier1>
18.99

>  <Kier2>
8.39

>  <Lipinski>
1

>  <GhoseFilter>
1

>  <FilterItLogS>
-3.94

>  <VMcGowan>
282.23

>  <LabuteASA>
160.28

>  <PEOE_VSA1>
4.74

>  <PEOE_VSA2>
9.8

>  <PEOE_VSA3>
4.79

>  <PEOE_VSA4>
0

>  <PEOE_VSA5>
0

>  <PEOE_VSA6>
54.6

>  <PEOE_VSA7>
54.96

>  <PEOE_VSA8>
13.09

>  <PEOE_VSA9>
6.04

>  <PEOE_VSA10>
6.1

>  <PEOE_VSA11>
0

>  <PEOE_VSA12>
0

>  <PEOE_VSA13>
0

>  <SMR_VSA1>
9.53

>  <SMR_VSA2>
0

>  <SMR_VSA3>
9.8

>  <SMR_VSA4>
5.92

>  <SMR_VSA5>
31.41

>  <SMR_VSA6>
26.18

>  <SMR_VSA7>
71.29

>  <SMR_VSA8>
0

>  <SMR_VSA9>
0

>  <SlogP_VSA1>
0

>  <SlogP_VSA2>
48.18

>  <SlogP_VSA3>
11.16

>  <SlogP_VSA4>
5.92

>  <SlogP_VSA5>
35.57

>  <SlogP_VSA6>
54.6

>  <SlogP_VSA7>
0

>  <SlogP_VSA8>
0

>  <SlogP_VSA9>
0

>  <SlogP_VSA10>
4.79

>  <SlogP_VSA11>
0

>  <EState_VSA1>
0

>  <EState_VSA2>
18.24

>  <EState_VSA3>
12.46

>  <EState_VSA4>
44.46

>  <EState_VSA5>
11.13

>  <EState_VSA6>
0

>  <EState_VSA7>
23.1

>  <EState_VSA8>
41.3

>  <EState_VSA9>
4.74

>  <EState_VSA10>
4.79

>  <VSA_EState1>
6.08

>  <VSA_EState2>
17.59

>  <VSA_EState3>
0

>  <VSA_EState4>
3.7

>  <VSA_EState5>
0.53

>  <VSA_EState6>
18.76

>  <VSA_EState7>
3.09

>  <VSA_EState8>
3.91

>  <VSA_EState9>
0

>  <apol>
59.55

>  <bpol>
32.11

>  <nRing>
6

>  <nHRing>
4

>  <naRing>
2

>  <naHRing>
0

>  <nARing 2>
4

>  <nAHRing 2>
4

>  <nFRing>
2

>  <nFHRing>
2

>  <nFaRing>
0

>  <nFaHRing>
0

>  <nFARing 2>
2

>  <nFAHRing 2>
2

>  <nRot>
2

>  <SLogP>
3.86

>  <SMR>
104.57

>  <TopoPSA(NO)>
32.78

>  <TopoPSA>
32.78

>  <JGI1>
0.13

>  <JGI2>
0.07

>  <JGI3>
0.04

>  <JGI4>
0.04

>  <JGI5>
0.02

>  <Diameter>
11

>  <Radius>
6

>  <TMWC10>
135.36

>  <TSRW10>
62.79

>  <MW>
362.2

>  <AMW>
6.83

>  <WPath>
1754

>  <WPol>
45

>  <Zagreb1>
150

>  <Zagreb2>
181

>  <mZagreb2>
5.83

>  <yes>


>  <nAR-cont>
0.199399

>  <nHA-cont>
0.860070871

>  <MWHBN>
0.15763296

>  <MWHBN-cont>
0.950780497

>  <TPSA-cont>
0.771175245

>  <pka_cont>
0.97

>  <yes.1>


>  <BBB_SCORE>
4.512991107

>  <MMFF94 Energy>
32.077

$$$$
Compound 2873
Actelion Java MolfileCreator 2.0

  0  0  0  0  0  0              0 V3000
M  V30 BEGIN CTAB
M  V30 COUNTS 63 67 0 0 0
M  V30 BEGIN ATOM
M  V30 1 S 3.4355 -0.2451 5.9769 0
M  V30 2 C 2.568 0.6179 4.7538 0
M  V30 3 C 4.9479 0.1612 5.3031 0
M  V30 4 C 3.4551 1.2097 3.8657 0
M  V30 5 C 1.0411 0.6527 4.7884 0
M  V30 6 C 4.82 0.9433 4.1804 0
M  V30 7 O 0.6795 1.1337 6.0855 0
M  V30 8 C 0.3774 -0.7062 4.5884 0
M  V30 9 C 0.5196 1.6464 3.7098 0
M  V30 10 S -1.236 -0.9832 5.1346 0
M  V30 11 C 0.8758 -1.8422 3.9652 0
M  V30 12 O 0.3338 2.8442 3.9082 0
M  V30 13 O 0.3469 1.0635 2.4801 0
M  V30 14 C -1.2331 -2.5947 4.5739 0
M  V30 15 C -0.047 -2.9275 3.9639 0
M  V30 16 C -0.1054 1.9346 1.4232 0 CFG=2
M  V30 17 C -1.6209 2.1949 1.5341 0
M  V30 18 C 0.1823 1.2358 0.0775 0
M  V30 19 C -2.0763 2.9388 0.2723 0
M  V30 20 C -2.3688 0.856 1.5915 0
M  V30 21 N -1.1537 0.778 -0.5895 0 CHG=1
M  V30 22 C -1.9565 2.0379 -0.9604 0
M  V30 23 C -1.9423 -0.0527 0.4387 0
M  V30 24 C -0.781 -0.0539 -1.8346 0
M  V30 25 C -1.9804 -0.468 -2.6886 0
M  V30 26 C -1.5265 -1.3144 -3.8794 0
M  V30 27 O -0.5902 -0.5446 -4.6288 0
M  V30 28 C -0.0406 -1.1381 -5.7321 0
M  V30 29 C -0.3288 -2.4195 -6.2044 0
M  V30 30 C 0.8887 -0.3498 -6.4165 0
M  V30 31 C 0.3121 -2.9055 -7.3482 0
M  V30 32 C 1.5283 -0.835 -7.5582 0
M  V30 33 C 1.2399 -2.115 -8.0236 0
M  V30 34 H 5.8608 -0.186 5.769 0
M  V30 35 H 3.159 1.8226 3.0233 0
M  V30 36 H 5.6691 1.3145 3.6183 0
M  V30 37 H 1.0462 2.0327 6.1623 0
M  V30 38 H 1.8747 -1.9075 3.5482 0
M  V30 39 H -2.097 -3.2266 4.7325 0
M  V30 40 H 0.1579 -3.9108 3.5572 0
M  V30 41 H 0.469 2.8691 1.4537 0
M  V30 42 H -1.8546 2.7819 2.4283 0
M  V30 43 H 0.6555 1.9267 -0.6297 0
M  V30 44 H 0.8119 0.3469 0.1974 0
M  V30 45 H -3.1157 3.2724 0.3777 0
M  V30 46 H -1.4767 3.8464 0.1311 0
M  V30 47 H -3.4507 1.0331 1.54 0
M  V30 48 H -2.1965 0.3467 2.5435 0
M  V30 49 H -1.4363 2.5439 -1.7808 0
M  V30 50 H -2.9458 1.7121 -1.2979 0
M  V30 51 H -1.2863 -0.8625 0.7766 0
M  V30 52 H -2.8198 -0.4796 -0.0532 0
M  V30 53 H -0.0861 0.5638 -2.415 0
M  V30 54 H -0.2417 -0.9364 -1.471 0
M  V30 55 H -2.4841 0.4242 -3.0759 0
M  V30 56 H -2.7085 -1.0434 -2.1107 0
M  V30 57 H -1.0592 -2.2364 -3.5131 0
M  V30 58 H -2.3996 -1.5574 -4.4964 0
M  V30 59 H -1.0476 -3.0689 -5.7167 0
M  V30 60 H 1.1172 0.6527 -6.0654 0
M  V30 61 H 0.0846 -3.9032 -7.7168 0
M  V30 62 H 2.2477 -0.2141 -8.0863 0
M  V30 63 H 1.7341 -2.4952 -8.9145 0
M  V30 END ATOM
M  V30 BEGIN BOND
M  V30 1 1 1 2
M  V30 2 1 1 3
M  V30 3 2 2 4
M  V30 4 1 2 5
M  V30 5 2 3 6
M  V30 6 1 5 7
M  V30 7 1 5 8
M  V30 8 1 5 9
M  V30 9 1 8 10
M  V30 10 2 8 11
M  V30 11 2 9 12
M  V30 12 1 9 13
M  V30 13 1 10 14
M  V30 14 1 11 15
M  V30 15 1 13 16
M  V30 16 1 16 17
M  V30 17 1 16 18
M  V30 18 1 17 19
M  V30 19 1 17 20
M  V30 20 1 18 21
M  V30 21 1 19 22
M  V30 22 1 20 23
M  V30 23 1 21 24
M  V30 24 1 24 25
M  V30 25 1 25 26
M  V30 26 1 26 27
M  V30 27 1 27 28
M  V30 28 2 28 29
M  V30 29 1 28 30
M  V30 30 1 29 31
M  V30 31 2 30 32
M  V30 32 2 31 33
M  V30 33 1 4 6
M  V30 34 2 14 15
M  V30 35 1 21 22
M  V30 36 1 21 23
M  V30 37 1 32 33
M  V30 38 1 3 34
M  V30 39 1 4 35
M  V30 40 1 6 36
M  V30 41 1 7 37
M  V30 42 1 11 38
M  V30 43 1 14 39
M  V30 44 1 15 40
M  V30 45 1 16 41
M  V30 46 1 17 42
M  V30 47 1 18 43
M  V30 48 1 18 44
M  V30 49 1 19 45
M  V30 50 1 19 46
M  V30 51 1 20 47
M  V30 52 1 20 48
M  V30 53 1 22 49
M  V30 54 1 22 50
M  V30 55 1 23 51
M  V30 56 1 23 52
M  V30 57 1 24 53
M  V30 58 1 24 54
M  V30 59 1 25 55
M  V30 60 1 25 56
M  V30 61 1 26 57
M  V30 62 1 26 58
M  V30 63 1 29 59
M  V30 64 1 30 60
M  V30 65 1 31 61
M  V30 66 1 32 62
M  V30 67 1 33 63
M  V30 END BOND
M  V30 BEGIN COLLECTION
M  V30 MDLV30/STERAC1 ATOMS=(1 16)
M  V30 END COLLECTION
M  V30 END CTAB
M  END
>  <Column 1>
3660

>  <level_0>
5926

>  <index>
5927

>  <Unnamed: 0>
5927

>  <NO.>
5939

>  <Name>
schembl72140

>  <IUPAC_name>
[1-(3-phenoxypropyl)-1-azoniabicyclo[2.2.2]octan-3-yl] 2-hydroxy-2-2-dithiophen-2-ylacetate

>  <SMILES>
O=C(OC1C[N+]2(CCCOc3ccccc3)CCC1CC2)C(O)(c1cccs1)c1cccs1

>  <CID>
11467167

>  <logBB>


>  <BBB+/BBB->
BBB-

>  <Inchi>
InChI=1S/C26H30NO4S2/c28-25(26(29-23-9-4-17-32-23)24-10-5-18-33-24)31-22-19-27(14-11-20(22)12-15-27)13-6-16-30-21-7-2-1-3-8-21/h1-5-7-10-17-18-20-22-29H-6-11-16-19H2/q+1

>  <threshold>


>  <reference>
R23|

>  <group>
C

>  <Class>
-1

>  <ABC>
26.21

>  <ABCGG>
20.22

>  <nAcid>
0

>  <nBase>
1

>  <nAromAtom>
16

>  <nAromBond>
16

>  <nAtom>
63

>  <nHeavyAtom>
33

>  <nSpiro>
0

>  <nBridgehead>
2

>  <nHetero>
7

>  <nN>
1

>  <nO>
4

>  <nF>
0

>  <BalabanJ>
1.17

>  <BertzCT>
993.46

>  <nBonds>
67

>  <nBondsO>
37

>  <nBondsS>
50

>  <nBondsD>
1

>  <nBondsT>
0

>  <nBondsA>
16

>  <nBondsM>
17

>  <nBondsKS>
59

>  <nBondsKD>
8

>  <RNCG>
0.19

>  <RPCG>
0.1

>  <FCSP3>
0.42

>  <SZ>
42.83

>  <Sm>
40.35

>  <Sv>
40.12

>  <Sse>
62.96

>  <Sp>
44.03

>  <Si>
70.2

>  <MZ>
0.68

>  <Mm>
0.64

>  <Mv>
0.64

>  <Mse>
1

>  <Mp>
0.7

>  <Mi>
1.11

>  <NsCH3>
0

>  <NdCH2>
0

>  <NssCH2>
8

>  <NtCH>
0

>  <NdsCH>
0

>  <NaaCH>
11

>  <NsssCH>
2

>  <NddC>
0

>  <NtsC>
0

>  <NdssC>
1

>  <NaasC>
3

>  <NaaaC>
0

>  <NssssC>
1

>  <NsNH3>
0

>  <NsNH2>
0

>  <NssNH2>
0

>  <NdNH>
0

>  <NssNH>
0

>  <NaaNH>
0

>  <NtN>
0

>  <NsssNH>
0

>  <NdsN>
0

>  <NaaN>
0

>  <NsssN>
0

>  <NddsN>
0

>  <NaasN>
0

>  <NssssN>
1

>  <NsOH>
1

>  <NdO>
1

>  <NssO>
2

>  <NaaO>
0

>  <NsF>
0

>  <NsSiH3>
0

>  <NssSiH2>
0

>  <NsssSiH>
0

>  <NssssSi>
0

>  <NsPH2>
0

>  <NssPH>
0

>  <NsssP>
0

>  <NdsssP>
0

>  <NsssssP>
0

>  <NsSH>
0

>  <NdS>
0

>  <NssS>
0

>  <NaaS>
2

>  <NdssS>
0

>  <NddssS>
0

>  <NsCl>
0

>  <NsBr>
0

>  <NsI>
0

>  <fragCpx>
313.07

>  <fMF>
0.49

>  <nHBAcc>
6

>  <nHBDon>
1

>  <Kier1>
24.68

>  <Kier2>
10.95

>  <Lipinski>
1

>  <GhoseFilter>
0

>  <FilterItLogS>
-5.79

>  <VMcGowan>
356.81

>  <LabuteASA>
202.35

>  <PEOE_VSA1>
19.06

>  <PEOE_VSA2>
0

>  <PEOE_VSA3>
4.79

>  <PEOE_VSA4>
0

>  <PEOE_VSA5>
22.67

>  <PEOE_VSA6>
30.33

>  <PEOE_VSA7>
35.03

>  <PEOE_VSA8>
25.18

>  <PEOE_VSA9>
36

>  <PEOE_VSA10>
12.29

>  <PEOE_VSA11>
6.1

>  <PEOE_VSA12>
5.6

>  <PEOE_VSA13>
0

>  <SMR_VSA1>
23.86

>  <SMR_VSA2>
0

>  <SMR_VSA3>
0

>  <SMR_VSA4>
5.92

>  <SMR_VSA5>
30.97

>  <SMR_VSA6>
32.79

>  <SMR_VSA7>
75.11

>  <SMR_VSA8>
0

>  <SMR_VSA9>
5.75

>  <SlogP_VSA1>
4.74

>  <SlogP_VSA2>
54.45

>  <SlogP_VSA3>
15.13

>  <SlogP_VSA4>
5.92

>  <SlogP_VSA5>
29.02

>  <SlogP_VSA6>
65.36

>  <SlogP_VSA7>
0

>  <SlogP_VSA8>
0

>  <SlogP_VSA9>
0

>  <SlogP_VSA10>
0

>  <SlogP_VSA11>
5.75

>  <EState_VSA1>
11.57

>  <EState_VSA2>
6.1

>  <EState_VSA3>
22.28

>  <EState_VSA4>
55.67

>  <EState_VSA5>
22.67

>  <EState_VSA6>
0

>  <EState_VSA7>
65.36

>  <EState_VSA8>
0

>  <EState_VSA9>
9.47

>  <EState_VSA10>
9.9

>  <VSA_EState1>
12.98

>  <VSA_EState2>
14.66

>  <VSA_EState3>
15.34

>  <VSA_EState4>
-1.73

>  <VSA_EState5>
0.74

>  <VSA_EState6>
17.26

>  <VSA_EState7>
2.94

>  <VSA_EState8>
4.79

>  <VSA_EState9>
0

>  <apol>
73.53

>  <bpol>
41.64

>  <nRing>
6

>  <nHRing>
5

>  <naRing>
3

>  <naHRing>
2

>  <nARing 2>
3

>  <nAHRing 2>
3

>  <nFRing>
1

>  <nFHRing>
1

>  <nFaRing>
0

>  <nFaHRing>
0

>  <nFARing 2>
1

>  <nFAHRing 2>
1

>  <nRot>
9

>  <SLogP>
4.67

>  <SMR>
130.52

>  <TopoPSA(NO)>
55.76

>  <TopoPSA>
112.24

>  <JGI1>
0.19

>  <JGI2>
0.08

>  <JGI3>
0.05

>  <JGI4>
0.03

>  <JGI5>
0.02

>  <Diameter>
16

>  <Radius>
8

>  <TMWC10>
149.01

>  <TSRW10>
84.87

>  <MW>
484.16

>  <AMW>
7.69

>  <WPath>
3442

>  <WPol>
52

>  <Zagreb1>
180

>  <Zagreb2>
216

>  <mZagreb2>
7.19

>  <yes>


>  <nAR-cont>
0.691115

>  <nHA-cont>
0.61399562

>  <MWHBN>
0.318129239

>  <MWHBN-cont>
0.783411527

>  <TPSA-cont>
0.216495103

>  <pka_cont>
0.97

>  <yes.1>


>  <BBB_SCORE>
3.398218117

>  <MMFF94 Energy>
149.44

$$$$
Compound 2874
Actelion Java MolfileCreator 2.0

  0  0  0  0  0  0              0 V3000
M  V30 BEGIN CTAB
M  V30 COUNTS 28 29 0 0 0
M  V30 BEGIN ATOM
M  V30 1 O -1.4297 -2.3042 0.9529 0
M  V30 2 C -1.227 -1.2886 0.3063 0
M  V30 3 O -0.1042 -0.534 0.3507 0
M  V30 4 C -2.2072 -0.7109 -0.6528 0
M  V30 5 C 0.8876 -1.0271 1.2534 0
M  V30 6 C -3.4327 -1.3696 -0.8239 0
M  V30 7 C -1.9465 0.4577 -1.3821 0
M  V30 8 C 2.067 -0.0916 1.1936 0
M  V30 9 C -4.3849 -0.8662 -1.7126 0
M  V30 10 C -2.902 0.9579 -2.2702 0
M  V30 11 C 3.0936 -0.2997 0.2619 0
M  V30 12 C 2.1337 1.0241 2.04 0
M  V30 13 C -4.1186 0.2964 -2.4345 0
M  V30 14 C 4.1761 0.5788 0.1937 0
M  V30 15 C 3.217 1.9015 1.9702 0
M  V30 16 C 4.2386 1.6774 1.0491 0
M  V30 17 H 1.1963 -2.039 0.9634 0
M  V30 18 H 0.4884 -1.0627 2.2747 0
M  V30 19 H -3.6504 -2.2779 -0.2651 0
M  V30 20 H -1.0047 0.9896 -1.2696 0
M  V30 21 H -5.3336 -1.3817 -1.8409 0
M  V30 22 H -2.6961 1.8646 -2.8341 0
M  V30 23 H 3.053 -1.1475 -0.4183 0
M  V30 24 H 1.3387 1.2167 2.7572 0
M  V30 25 H -4.8606 0.6878 -3.1264 0
M  V30 26 H 4.9691 0.4078 -0.5294 0
M  V30 27 H 3.2621 2.7621 2.6326 0
M  V30 28 H 5.0811 2.3616 0.9946 0
M  V30 END ATOM
M  V30 BEGIN BOND
M  V30 1 2 1 2
M  V30 2 1 2 3
M  V30 3 1 2 4
M  V30 4 1 3 5
M  V30 5 2 4 6
M  V30 6 1 4 7
M  V30 7 1 5 8
M  V30 8 1 6 9
M  V30 9 2 7 10
M  V30 10 2 8 11
M  V30 11 1 8 12
M  V30 12 2 9 13
M  V30 13 1 11 14
M  V30 14 2 12 15
M  V30 15 2 14 16
M  V30 16 1 10 13
M  V30 17 1 15 16
M  V30 18 1 5 17
M  V30 19 1 5 18
M  V30 20 1 6 19
M  V30 21 1 7 20
M  V30 22 1 9 21
M  V30 23 1 10 22
M  V30 24 1 11 23
M  V30 25 1 12 24
M  V30 26 1 13 25
M  V30 27 1 14 26
M  V30 28 1 15 27
M  V30 29 1 16 28
M  V30 END BOND
M  V30 END CTAB
M  END
>  <Column 1>
3662

>  <level_0>
5928

>  <index>
5929

>  <Unnamed: 0>
5929

>  <NO.>
5941

>  <Name>
benzyl benzoate

>  <IUPAC_name>
benzyl benzoate

>  <SMILES>
O=C(OCc1ccccc1)c1ccccc1

>  <CID>
2345

>  <logBB>


>  <BBB+/BBB->
BBB-

>  <Inchi>
InChI=1S/C14H12O2/c15-14(13-9-5-2-6-10-13)16-11-12-7-3-1-4-8-12/h1-10H-11H2

>  <threshold>


>  <reference>
R23|

>  <group>
C

>  <Class>
-1

>  <ABC>
12.09

>  <ABCGG>
10.06

>  <nAcid>
0

>  <nBase>
0

>  <nAromAtom>
12

>  <nAromBond>
12

>  <nAtom>
28

>  <nHeavyAtom>
16

>  <nSpiro>
0

>  <nBridgehead>
0

>  <nHetero>
2

>  <nN>
0

>  <nO>
2

>  <nF>
0

>  <BalabanJ>
1.63

>  <BertzCT>
448.68

>  <nBonds>
29

>  <nBondsO>
17

>  <nBondsS>
16

>  <nBondsD>
1

>  <nBondsT>
0

>  <nBondsA>
12

>  <nBondsM>
13

>  <nBondsKS>
22

>  <nBondsKD>
7

>  <RNCG>
0.35

>  <RPCG>
0.26

>  <FCSP3>
0.07

>  <SZ>
18.67

>  <Sm>
17.67

>  <Sv>
18.68

>  <Sse>
27.99

>  <Sp>
19.75

>  <Si>
30.91

>  <MZ>
0.67

>  <Mm>
0.63

>  <Mv>
0.67

>  <Mse>
1

>  <Mp>
0.71

>  <Mi>
1.1

>  <NsCH3>
0

>  <NdCH2>
0

>  <NssCH2>
1

>  <NtCH>
0

>  <NdsCH>
0

>  <NaaCH>
10

>  <NsssCH>
0

>  <NddC>
0

>  <NtsC>
0

>  <NdssC>
1

>  <NaasC>
2

>  <NaaaC>
0

>  <NssssC>
0

>  <NsNH3>
0

>  <NsNH2>
0

>  <NssNH2>
0

>  <NdNH>
0

>  <NssNH>
0

>  <NaaNH>
0

>  <NtN>
0

>  <NsssNH>
0

>  <NdsN>
0

>  <NaaN>
0

>  <NsssN>
0

>  <NddsN>
0

>  <NaasN>
0

>  <NssssN>
0

>  <NsOH>
0

>  <NdO>
1

>  <NssO>
1

>  <NaaO>
0

>  <NsF>
0

>  <NsSiH3>
0

>  <NssSiH2>
0

>  <NsssSiH>
0

>  <NssssSi>
0

>  <NsPH2>
0

>  <NssPH>
0

>  <NsssP>
0

>  <NdsssP>
0

>  <NsssssP>
0

>  <NsSH>
0

>  <NdS>
0

>  <NssS>
0

>  <NaaS>
0

>  <NdssS>
0

>  <NddssS>
0

>  <NsCl>
0

>  <NsBr>
0

>  <NsI>
0

>  <fragCpx>
49.02

>  <fMF>
0.54

>  <nHBAcc>
2

>  <nHBDon>
0

>  <Kier1>
12.46

>  <Kier2>
6.67

>  <Lipinski>
1

>  <GhoseFilter>
1

>  <FilterItLogS>
-3.5

>  <VMcGowan>
168.04

>  <LabuteASA>
94.49

>  <PEOE_VSA1>
4.74

>  <PEOE_VSA2>
0

>  <PEOE_VSA3>
4.79

>  <PEOE_VSA4>
0

>  <PEOE_VSA5>
0

>  <PEOE_VSA6>
48.53

>  <PEOE_VSA7>
17.7

>  <PEOE_VSA8>
0

>  <PEOE_VSA9>
5.56

>  <PEOE_VSA10>
6.61

>  <PEOE_VSA11>
0

>  <PEOE_VSA12>
0

>  <PEOE_VSA13>
0

>  <SMR_VSA1>
9.53

>  <SMR_VSA2>
0

>  <SMR_VSA3>
0

>  <SMR_VSA4>
0

>  <SMR_VSA5>
6.61

>  <SMR_VSA6>
0

>  <SMR_VSA7>
71.79

>  <SMR_VSA8>
0

>  <SMR_VSA9>
0

>  <SlogP_VSA1>
0

>  <SlogP_VSA2>
5.97

>  <SlogP_VSA3>
11.34

>  <SlogP_VSA4>
0

>  <SlogP_VSA5>
15.92

>  <SlogP_VSA6>
60.66

>  <SlogP_VSA7>
0

>  <SlogP_VSA8>
0

>  <SlogP_VSA9>
0

>  <SlogP_VSA10>
0

>  <SlogP_VSA11>
0

>  <EState_VSA1>
0

>  <EState_VSA2>
5.97

>  <EState_VSA3>
12.17

>  <EState_VSA4>
5.56

>  <EState_VSA5>
0

>  <EState_VSA6>
12.13

>  <EState_VSA7>
48.53

>  <EState_VSA8>
0

>  <EState_VSA9>
4.74

>  <EState_VSA10>
4.79

>  <VSA_EState1>
5.18

>  <VSA_EState2>
11.6

>  <VSA_EState3>
0

>  <VSA_EState4>
1.57

>  <VSA_EState5>
-0.29

>  <VSA_EState6>
18.63

>  <VSA_EState7>
0

>  <VSA_EState8>
0.31

>  <VSA_EState9>
0

>  <apol>
32.99

>  <bpol>
14.64

>  <nRing>
2

>  <nHRing>
0

>  <naRing>
2

>  <naHRing>
0

>  <nARing 2>
0

>  <nAHRing 2>
0

>  <nFRing>
0

>  <nFHRing>
0

>  <nFaRing>
0

>  <nFaHRing>
0

>  <nFARing 2>
0

>  <nFAHRing 2>
0

>  <nRot>
3

>  <SLogP>
3.04

>  <SMR>
62

>  <TopoPSA(NO)>
26.3

>  <TopoPSA>
26.3

>  <JGI1>
0.12

>  <JGI2>
0.06

>  <JGI3>
0.03

>  <JGI4>
0.02

>  <JGI5>
0.03

>  <Diameter>
10

>  <Radius>
5

>  <TMWC10>
100.89

>  <TSRW10>
47.52

>  <MW>
212.08

>  <AMW>
7.57

>  <WPath>
496

>  <WPol>
19

>  <Zagreb1>
76

>  <Zagreb2>
84

>  <mZagreb2>
3.69

>  <yes>


>  <nAR-cont>
0.336376

>  <nHA-cont>
0.954961865

>  <MWHBN>
0.137334654

>  <MWHBN-cont>
0.895232641

>  <TPSA-cont>
0.816409669

>  <pka_cont>
0.97

>  <yes.1>


>  <BBB_SCORE>
4.752006164

>  <MMFF94 Energy>
47.04

$$$$
Compound 2875
Actelion Java MolfileCreator 2.0

  0  0  0  0  0  0              0 V3000
M  V30 BEGIN CTAB
M  V30 COUNTS 28 29 0 0 0
M  V30 BEGIN ATOM
M  V30 1 O -1.7676 -0.2409 0.4818 0
M  V30 2 C -0.8852 -1.0872 0.4813 0
M  V30 3 O 0.1508 -1.1701 -0.3978 0
M  V30 4 C -0.8236 -2.2102 1.4541 0
M  V30 5 O 0.0627 0.0049 -1.2673 0
M  V30 6 C -1.9418 -2.4406 2.2679 0
M  V30 7 C 0.3077 -3.0269 1.5908 0
M  V30 8 C 0.9909 0.895 -0.8205 0
M  V30 9 C -1.9332 -3.4815 3.1983 0
M  V30 10 C 0.3118 -4.0669 2.5238 0
M  V30 11 O 1.8003 0.7073 0.0764 0
M  V30 12 C 0.9141 2.1545 -1.6073 0
M  V30 13 C -0.8075 -4.2941 3.3241 0
M  V30 14 C 1.9548 3.0837 -1.4689 0
M  V30 15 C -0.1589 2.4443 -2.462 0
M  V30 16 C 1.9286 4.2822 -2.1847 0
M  V30 17 C -0.181 3.6453 -3.1757 0
M  V30 18 C 0.862 4.5608 -3.0381 0
M  V30 19 H -2.8244 -1.8092 2.1805 0
M  V30 20 H 1.1984 -2.8616 0.989 0
M  V30 21 H -2.8036 -3.6557 3.8264 0
M  V30 22 H 1.1916 -4.6973 2.6298 0
M  V30 23 H -0.8004 -5.1031 4.0509 0
M  V30 24 H 2.7902 2.8776 -0.802 0
M  V30 25 H -0.9914 1.7538 -2.576 0
M  V30 26 H 2.7388 4.9988 -2.0736 0
M  V30 27 H -1.0158 3.869 -3.8359 0
M  V30 28 H 0.8408 5.4957 -3.5933 0
M  V30 END ATOM
M  V30 BEGIN BOND
M  V30 1 2 1 2
M  V30 2 1 2 3
M  V30 3 1 2 4
M  V30 4 1 3 5
M  V30 5 2 4 6
M  V30 6 1 4 7
M  V30 7 1 5 8
M  V30 8 1 6 9
M  V30 9 2 7 10
M  V30 10 2 8 11
M  V30 11 1 8 12
M  V30 12 2 9 13
M  V30 13 2 12 14
M  V30 14 1 12 15
M  V30 15 1 14 16
M  V30 16 2 15 17
M  V30 17 2 16 18
M  V30 18 1 10 13
M  V30 19 1 17 18
M  V30 20 1 6 19
M  V30 21 1 7 20
M  V30 22 1 9 21
M  V30 23 1 10 22
M  V30 24 1 13 23
M  V30 25 1 14 24
M  V30 26 1 15 25
M  V30 27 1 16 26
M  V30 28 1 17 27
M  V30 29 1 18 28
M  V30 END BOND
M  V30 END CTAB
M  END
>  <Column 1>
3663

>  <level_0>
5929

>  <index>
5930

>  <Unnamed: 0>
5930

>  <NO.>
5942

>  <Name>
benzoyl peroxide

>  <IUPAC_name>
benzoyl benzenecarboperoxoate

>  <SMILES>
O=C(OOC(=O)c1ccccc1)c1ccccc1

>  <CID>
7187

>  <logBB>


>  <BBB+/BBB->
BBB-

>  <Inchi>
InChI=1S/C14H10O4/c15-13(11-7-3-1-4-8-11)17-18-14(16)12-9-5-2-6-10-12/h1-10H

>  <threshold>


>  <reference>
R23|

>  <group>
C

>  <Class>
-1

>  <ABC>
13.57

>  <ABCGG>
11.38

>  <nAcid>
0

>  <nBase>
0

>  <nAromAtom>
12

>  <nAromBond>
12

>  <nAtom>
28

>  <nHeavyAtom>
18

>  <nSpiro>
0

>  <nBridgehead>
0

>  <nHetero>
4

>  <nN>
0

>  <nO>
4

>  <nF>
0

>  <BalabanJ>
1.66

>  <BertzCT>
482.74

>  <nBonds>
29

>  <nBondsO>
19

>  <nBondsS>
15

>  <nBondsD>
2

>  <nBondsT>
0

>  <nBondsA>
12

>  <nBondsM>
14

>  <nBondsKS>
21

>  <nBondsKD>
8

>  <RNCG>
0.16

>  <RPCG>
0.25

>  <FCSP3>
0

>  <SZ>
21

>  <Sm>
20.17

>  <Sv>
19.57

>  <Sse>
28.76

>  <Sp>
19.91

>  <Si>
30.91

>  <MZ>
0.75

>  <Mm>
0.72

>  <Mv>
0.7

>  <Mse>
1.03

>  <Mp>
0.71

>  <Mi>
1.1

>  <NsCH3>
0

>  <NdCH2>
0

>  <NssCH2>
0

>  <NtCH>
0

>  <NdsCH>
0

>  <NaaCH>
10

>  <NsssCH>
0

>  <NddC>
0

>  <NtsC>
0

>  <NdssC>
2

>  <NaasC>
2

>  <NaaaC>
0

>  <NssssC>
0

>  <NsNH3>
0

>  <NsNH2>
0

>  <NssNH2>
0

>  <NdNH>
0

>  <NssNH>
0

>  <NaaNH>
0

>  <NtN>
0

>  <NsssNH>
0

>  <NdsN>
0

>  <NaaN>
0

>  <NsssN>
0

>  <NddsN>
0

>  <NaasN>
0

>  <NssssN>
0

>  <NsOH>
0

>  <NdO>
2

>  <NssO>
2

>  <NaaO>
0

>  <NsF>
0

>  <NsSiH3>
0

>  <NssSiH2>
0

>  <NsssSiH>
0

>  <NssssSi>
0

>  <NsPH2>
0

>  <NssPH>
0

>  <NsssP>
0

>  <NdsssP>
0

>  <NsssssP>
0

>  <NsSH>
0

>  <NdS>
0

>  <NssS>
0

>  <NaaS>
0

>  <NdssS>
0

>  <NddssS>
0

>  <NsCl>
0

>  <NsBr>
0

>  <NsI>
0

>  <fragCpx>
55.04

>  <fMF>
0.57

>  <nHBAcc>
4

>  <nHBDon>
0

>  <Kier1>
14.41

>  <Kier2>
7.56

>  <Lipinski>
1

>  <GhoseFilter>
1

>  <FilterItLogS>
-2.79

>  <VMcGowan>
175.48

>  <LabuteASA>
103.7

>  <PEOE_VSA1>
0

>  <PEOE_VSA2>
0

>  <PEOE_VSA3>
19.36

>  <PEOE_VSA4>
0

>  <PEOE_VSA5>
0

>  <PEOE_VSA6>
36.4

>  <PEOE_VSA7>
24.27

>  <PEOE_VSA8>
0

>  <PEOE_VSA9>
11.13

>  <PEOE_VSA10>
0

>  <PEOE_VSA11>
0

>  <PEOE_VSA12>
0

>  <PEOE_VSA13>
0

>  <SMR_VSA1>
19.36

>  <SMR_VSA2>
0

>  <SMR_VSA3>
0

>  <SMR_VSA4>
0

>  <SMR_VSA5>
0

>  <SMR_VSA6>
0

>  <SMR_VSA7>
71.79

>  <SMR_VSA8>
0

>  <SMR_VSA9>
0

>  <SlogP_VSA1>
0

>  <SlogP_VSA2>
11.94

>  <SlogP_VSA3>
9.78

>  <SlogP_VSA4>
0

>  <SlogP_VSA5>
20.72

>  <SlogP_VSA6>
60.66

>  <SlogP_VSA7>
0

>  <SlogP_VSA8>
0

>  <SlogP_VSA9>
0

>  <SlogP_VSA10>
0

>  <SlogP_VSA11>
0

>  <EState_VSA1>
11.94

>  <EState_VSA2>
0

>  <EState_VSA3>
11.13

>  <EState_VSA4>
0

>  <EState_VSA5>
0

>  <EState_VSA6>
60.66

>  <EState_VSA7>
0

>  <EState_VSA8>
9.78

>  <EState_VSA9>
0

>  <EState_VSA10>
9.59

>  <VSA_EState1>
0

>  <VSA_EState2>
31.87

>  <VSA_EState3>
0

>  <VSA_EState4>
0.64

>  <VSA_EState5>
-1.42

>  <VSA_EState6>
16.57

>  <VSA_EState7>
0

>  <VSA_EState8>
0

>  <VSA_EState9>
0

>  <apol>
33.26

>  <bpol>
13.5

>  <nRing>
2

>  <nHRing>
0

>  <naRing>
2

>  <naHRing>
0

>  <nARing 2>
0

>  <nAHRing 2>
0

>  <nFRing>
0

>  <nFHRing>
0

>  <nFaRing>
0

>  <nFaHRing>
0

>  <nFARing 2>
0

>  <nFAHRing 2>
0

>  <nRot>
2

>  <SLogP>
2.62

>  <SMR>
63.72

>  <TopoPSA(NO)>
52.6

>  <TopoPSA>
52.6

>  <JGI1>
0.13

>  <JGI2>
0.08

>  <JGI3>
0.04

>  <JGI4>
0.02

>  <JGI5>
0.03

>  <Diameter>
11

>  <Radius>
6

>  <TMWC10>
106.36

>  <TSRW10>
50.23

>  <MW>
242.06

>  <AMW>
8.64

>  <WPath>
689

>  <WPol>
23

>  <Zagreb1>
86

>  <Zagreb2>
96

>  <mZagreb2>
4.14

>  <yes>


>  <nAR-cont>
0.336376

>  <nHA-cont>
0.991161285

>  <MWHBN>
0.257097869

>  <MWHBN-cont>
0.947058652

>  <TPSA-cont>
0.632819337

>  <pka_cont>
0.97

>  <yes.1>


>  <BBB_SCORE>
4.498763938

>  <MMFF94 Energy>
88.219

$$$$
Compound 2876
Actelion Java MolfileCreator 2.0

  0  0  0  0  0  0              0 V3000
M  V30 BEGIN CTAB
M  V30 COUNTS 51 54 0 0 0
M  V30 BEGIN ATOM
M  V30 1 F -2.174 1.61 7.018 0
M  V30 2 C -1.8106 1.3783 5.7503 0
M  V30 3 C -2.5236 0.4635 4.9882 0
M  V30 4 C -0.7251 2.0574 5.2138 0
M  V30 5 C -2.1444 0.2234 3.6645 0
M  V30 6 C -0.3452 1.8164 3.8905 0
M  V30 7 C -1.0516 0.8967 3.1026 0
M  V30 8 N -0.6715 0.6643 1.782 0
M  V30 9 C -1.0726 -0.2489 0.8635 0
M  V30 10 C 0.4209 1.2289 0.9842 0
M  V30 11 O -1.9257 -1.1056 0.862 0
M  V30 12 C -0.0114 0.2344 -0.1437 0
M  V30 13 C 0.3718 2.7791 0.6254 0
M  V30 14 C 1.0445 -0.782 -0.5681 0
M  V30 15 C 1.5564 3.5076 0.3897 0
M  V30 16 C -0.8364 3.5018 0.5158 0
M  V30 17 C 0.455 -1.7904 -1.56 0
M  V30 18 C 1.5391 4.868 0.0697 0
M  V30 19 C -0.8647 4.8637 0.1971 0
M  V30 20 C 1.5123 -2.7512 -2.1217 0
M  V30 21 C 0.3282 5.5357 -0.0233 0
M  V30 22 O 2.0652 -3.5431 -1.0734 0
M  V30 23 C 0.9151 -3.6688 -3.1686 0
M  V30 24 O 0.3538 6.8613 -0.336 0
M  V30 25 C 1.0733 -3.3773 -4.5341 0
M  V30 26 C 0.1688 -4.8017 -2.8003 0
M  V30 27 C 0.5068 -4.2052 -5.5053 0
M  V30 28 C -0.3968 -5.628 -3.7722 0
M  V30 29 C -0.2218 -5.3221 -5.1154 0
M  V30 30 F -0.7646 -6.1139 -6.0496 0
M  V30 31 H -3.3698 -0.0586 5.4234 0
M  V30 32 H -0.1815 2.7702 5.8257 0
M  V30 33 H -2.7192 -0.4958 3.0858 0
M  V30 34 H 0.5066 2.3612 3.4939 0
M  V30 35 H 1.3865 0.9574 1.4378 0
M  V30 36 H -0.4715 0.7296 -1.0098 0
M  V30 37 H 1.4458 -1.3037 0.3085 0
M  V30 38 H 1.8804 -0.2532 -1.0414 0
M  V30 39 H 2.5191 3.0036 0.4582 0
M  V30 40 H -1.7832 2.9907 0.6883 0
M  V30 41 H -0.3328 -2.3611 -1.0523 0
M  V30 42 H -0.0286 -1.2502 -2.384 0
M  V30 43 H 2.4688 5.4024 -0.1048 0
M  V30 44 H -1.8212 5.3726 0.1288 0
M  V30 45 H 2.3388 -2.1866 -2.5705 0
M  V30 46 H 2.7155 -2.9962 -0.6047 0
M  V30 47 H -0.5587 7.1938 -0.3572 0
M  V30 48 H 1.6394 -2.5042 -4.8502 0
M  V30 49 H 0.0328 -5.0436 -1.7474 0
M  V30 50 H 0.6282 -3.9866 -6.5611 0
M  V30 51 H -0.9694 -6.5045 -3.4881 0
M  V30 END ATOM
M  V30 BEGIN BOND
M  V30 1 1 1 2
M  V30 2 2 2 3
M  V30 3 1 2 4
M  V30 4 1 3 5
M  V30 5 2 4 6
M  V30 6 2 5 7
M  V30 7 1 7 8
M  V30 8 1 8 9
M  V30 9 1 8 10
M  V30 10 2 9 11
M  V30 11 1 9 12
M  V30 12 1 10 13
M  V30 13 1 12 14
M  V30 14 2 13 15
M  V30 15 1 13 16
M  V30 16 1 14 17
M  V30 17 1 15 18
M  V30 18 2 16 19
M  V30 19 1 17 20
M  V30 20 2 18 21
M  V30 21 1 20 22
M  V30 22 1 20 23
M  V30 23 1 21 24
M  V30 24 2 23 25
M  V30 25 1 23 26
M  V30 26 1 25 27
M  V30 27 2 26 28
M  V30 28 2 27 29
M  V30 29 1 29 30
M  V30 30 1 6 7
M  V30 31 1 10 12
M  V30 32 1 19 21
M  V30 33 1 28 29
M  V30 34 1 3 31
M  V30 35 1 4 32
M  V30 36 1 5 33
M  V30 37 1 6 34
M  V30 38 1 10 35
M  V30 39 1 12 36
M  V30 40 1 14 37
M  V30 41 1 14 38
M  V30 42 1 15 39
M  V30 43 1 16 40
M  V30 44 1 17 41
M  V30 45 1 17 42
M  V30 46 1 18 43
M  V30 47 1 19 44
M  V30 48 1 20 45
M  V30 49 1 22 46
M  V30 50 1 24 47
M  V30 51 1 25 48
M  V30 52 1 26 49
M  V30 53 1 27 50
M  V30 54 1 28 51
M  V30 END BOND
M  V30 END CTAB
M  END
>  <Column 1>
3664

>  <level_0>
5930

>  <index>
5931

>  <Unnamed: 0>
5931

>  <NO.>
5943

>  <Name>
1-(4-fluorophenyl)-3-(3-(4-fluorophenyl)-3-hydroxypropyl)-4-(4-hydroxyphenyl)azetidin-2-one

>  <IUPAC_name>
1-(4-fluorophenyl)-3-[3-(4-fluorophenyl)-3-hydroxypropyl]-4-(4-hydroxyphenyl)azetidin-2-one

>  <SMILES>
O=C1C(CCC(O)c2ccc(F)cc2)C(c2ccc(O)cc2)N1c1ccc(F)cc1

>  <CID>
4979942

>  <logBB>


>  <BBB+/BBB->
BBB-

>  <Inchi>
InChI=1S/C24H21F2NO3/c25-17-5-1-15(2-6-17)22(29)14-13-21-23(16-3-11-20(28)12-4-16)27(24(21)30)19-9-7-18(26)8-10-19/h1-12-21-23-28-29H-13-14H2

>  <threshold>


>  <reference>
R23|

>  <group>
C

>  <Class>
1

>  <ABC>
23.6

>  <ABCGG>
18.08

>  <nAcid>
0

>  <nBase>
0

>  <nAromAtom>
18

>  <nAromBond>
18

>  <nAtom>
51

>  <nHeavyAtom>
30

>  <nSpiro>
0

>  <nBridgehead>
0

>  <nHetero>
6

>  <nN>
1

>  <nO>
3

>  <nF>
2

>  <BalabanJ>
1.36

>  <BertzCT>
1019.83

>  <nBonds>
54

>  <nBondsO>
33

>  <nBondsS>
35

>  <nBondsD>
1

>  <nBondsT>
0

>  <nBondsA>
18

>  <nBondsM>
19

>  <nBondsKS>
44

>  <nBondsKD>
10

>  <RNCG>
0.21

>  <RPCG>
0.12

>  <FCSP3>
0.21

>  <SZ>
35.67

>  <Sm>
34.09

>  <Sv>
33.88

>  <Sse>
51.89

>  <Sp>
35.15

>  <Si>
57.37

>  <MZ>
0.7

>  <Mm>
0.67

>  <Mv>
0.66

>  <Mse>
1.02

>  <Mp>
0.69

>  <Mi>
1.12

>  <NsCH3>
0

>  <NdCH2>
0

>  <NssCH2>
2

>  <NtCH>
0

>  <NdsCH>
0

>  <NaaCH>
12

>  <NsssCH>
3

>  <NddC>
0

>  <NtsC>
0

>  <NdssC>
1

>  <NaasC>
6

>  <NaaaC>
0

>  <NssssC>
0

>  <NsNH3>
0

>  <NsNH2>
0

>  <NssNH2>
0

>  <NdNH>
0

>  <NssNH>
0

>  <NaaNH>
0

>  <NtN>
0

>  <NsssNH>
0

>  <NdsN>
0

>  <NaaN>
0

>  <NsssN>
1

>  <NddsN>
0

>  <NaasN>
0

>  <NssssN>
0

>  <NsOH>
2

>  <NdO>
1

>  <NssO>
0

>  <NaaO>
0

>  <NsF>
2

>  <NsSiH3>
0

>  <NssSiH2>
0

>  <NsssSiH>
0

>  <NssssSi>
0

>  <NsPH2>
0

>  <NssPH>
0

>  <NsssP>
0

>  <NdsssP>
0

>  <NsssssP>
0

>  <NsSH>
0

>  <NdS>
0

>  <NssS>
0

>  <NaaS>
0

>  <NdssS>
0

>  <NddssS>
0

>  <NsCl>
0

>  <NsBr>
0

>  <NsI>
0

>  <fragCpx>
219.06

>  <fMF>
0.49

>  <nHBAcc>
3

>  <nHBDon>
2

>  <Kier1>
23.17

>  <Kier2>
10.29

>  <Lipinski>
1

>  <GhoseFilter>
1

>  <FilterItLogS>
-5.39

>  <VMcGowan>
293.69

>  <LabuteASA>
172.57

>  <PEOE_VSA1>
15.11

>  <PEOE_VSA2>
4.79

>  <PEOE_VSA3>
8.78

>  <PEOE_VSA4>
0

>  <PEOE_VSA5>
0

>  <PEOE_VSA6>
24.27

>  <PEOE_VSA7>
72.5

>  <PEOE_VSA8>
5.69

>  <PEOE_VSA9>
18.06

>  <PEOE_VSA10>
17.38

>  <PEOE_VSA11>
0

>  <PEOE_VSA12>
5.91

>  <PEOE_VSA13>
0

>  <SMR_VSA1>
23.79

>  <SMR_VSA2>
0

>  <SMR_VSA3>
0

>  <SMR_VSA4>
5.92

>  <SMR_VSA5>
24.99

>  <SMR_VSA6>
4.9

>  <SMR_VSA7>
95.56

>  <SMR_VSA8>
0

>  <SMR_VSA9>
5.75

>  <SlogP_VSA1>
4.9

>  <SlogP_VSA2>
16.12

>  <SlogP_VSA3>
4.79

>  <SlogP_VSA4>
17.55

>  <SlogP_VSA5>
36.11

>  <SlogP_VSA6>
72.8

>  <SlogP_VSA7>
0

>  <SlogP_VSA8>
0

>  <SlogP_VSA9>
0

>  <SlogP_VSA10>
14.47

>  <SlogP_VSA11>
5.75

>  <EState_VSA1>
6.1

>  <EState_VSA2>
35.25

>  <EState_VSA3>
24.09

>  <EState_VSA4>
5.56

>  <EState_VSA5>
36.4

>  <EState_VSA6>
41.3

>  <EState_VSA7>
0

>  <EState_VSA8>
0

>  <EState_VSA9>
0

>  <EState_VSA10>
23.79

>  <VSA_EState1>
26.43

>  <VSA_EState2>
14.55

>  <VSA_EState3>
20.05

>  <VSA_EState4>
2.03

>  <VSA_EState5>
-1.1

>  <VSA_EState6>
17.73

>  <VSA_EState7>
-0.03

>  <VSA_EState8>
0

>  <VSA_EState9>
0

>  <apol>
58.7

>  <bpol>
25.87

>  <nRing>
4

>  <nHRing>
1

>  <naRing>
3

>  <naHRing>
0

>  <nARing 2>
1

>  <nAHRing 2>
1

>  <nFRing>
0

>  <nFHRing>
0

>  <nFaRing>
0

>  <nFaHRing>
0

>  <nFARing 2>
0

>  <nFAHRing 2>
0

>  <nRot>
6

>  <SLogP>
4.89

>  <SMR>
108.82

>  <TopoPSA(NO)>
60.77

>  <TopoPSA>
60.77

>  <JGI1>
0.18

>  <JGI2>
0.09

>  <JGI3>
0.06

>  <JGI4>
0.05

>  <JGI5>
0.03

>  <Diameter>
15

>  <Radius>
8

>  <TMWC10>
140.8

>  <TSRW10>
66.29

>  <MW>
409.15

>  <AMW>
8.02

>  <WPath>
2586

>  <WPol>
46

>  <Zagreb1>
160

>  <Zagreb2>
190

>  <mZagreb2>
6.53

>  <yes>


>  <nAR-cont>
0.816016

>  <nHA-cont>
0.74523694

>  <MWHBN>
0.247188764

>  <MWHBN-cont>
0.96437743

>  <TPSA-cont>
0.575787664

>  <pka_cont>
0.97

>  <yes.1>


>  <BBB_SCORE>
4.644394413

>  <MMFF94 Energy>
41.428

$$$$
Compound 2877
Actelion Java MolfileCreator 2.0

  0  0  0  0  0  0              0 V3000
M  V30 BEGIN CTAB
M  V30 COUNTS 20 21 0 0 0
M  V30 BEGIN ATOM
M  V30 1 O 1.9961 -1.6765 0.8779 0
M  V30 2 C 1.7195 -0.5029 1.0658 0
M  V30 3 N 0.6589 0.2884 0.5936 0
M  V30 4 C 2.5269 0.4277 1.9184 0
M  V30 5 N 0.7016 1.598 1.044 0
M  V30 6 C -0.4042 -0.1005 -0.26 0
M  V30 7 C 1.7496 1.6902 1.7918 0
M  V30 8 C -0.5172 -1.4054 -0.757 0
M  V30 9 C -1.3868 0.8319 -0.6333 0
M  V30 10 C -1.5759 -1.7667 -1.5986 0
M  V30 11 C -2.4451 0.4729 -1.4739 0
M  V30 12 C -2.5391 -0.8281 -1.9567 0
M  V30 13 H 3.5339 0.5607 1.5198 0
M  V30 14 H 2.548 0.0981 2.9584 0
M  V30 15 H 2.0662 2.6088 2.3042 0
M  V30 16 H 0.2086 -2.1731 -0.5064 0
M  V30 17 H -1.3396 1.8563 -0.2715 0
M  V30 18 H -1.6433 -2.7853 -1.9723 0
M  V30 19 H -3.1927 1.2124 -1.7483 0
M  V30 20 H -3.3601 -1.1104 -2.61 0
M  V30 END ATOM
M  V30 BEGIN BOND
M  V30 1 2 1 2
M  V30 2 1 2 3
M  V30 3 1 2 4
M  V30 4 1 3 5
M  V30 5 1 3 6
M  V30 6 1 4 7
M  V30 7 2 6 8
M  V30 8 1 6 9
M  V30 9 1 8 10
M  V30 10 2 9 11
M  V30 11 2 10 12
M  V30 12 2 5 7
M  V30 13 1 11 12
M  V30 14 1 4 13
M  V30 15 1 4 14
M  V30 16 1 7 15
M  V30 17 1 8 16
M  V30 18 1 9 17
M  V30 19 1 10 18
M  V30 20 1 11 19
M  V30 21 1 12 20
M  V30 END BOND
M  V30 END CTAB
M  END
>  <Column 1>
3665

>  <level_0>
5931

>  <index>
5932

>  <Unnamed: 0>
5932

>  <NO.>
5944

>  <Name>
edaravone

>  <IUPAC_name>
2-phenyl-4h-pyrazol-3-one

>  <SMILES>
O=C1CC=NN1c1ccccc1

>  <CID>
4351114

>  <logBB>


>  <BBB+/BBB->
BBB+

>  <Inchi>
InChI=1S/C9H8N2O/c12-9-6-7-10-11(9)8-4-2-1-3-5-8/h1-5-7H-6H2

>  <threshold>


>  <reference>
R23|

>  <group>
C

>  <Class>
1

>  <ABC>
9.22

>  <ABCGG>
8.57

>  <nAcid>
0

>  <nBase>
0

>  <nAromAtom>
6

>  <nAromBond>
6

>  <nAtom>
20

>  <nHeavyAtom>
12

>  <nSpiro>
0

>  <nBridgehead>
0

>  <nHetero>
3

>  <nN>
2

>  <nO>
1

>  <nF>
0

>  <BalabanJ>
1.89

>  <BertzCT>
318.56

>  <nBonds>
21

>  <nBondsO>
13

>  <nBondsS>
13

>  <nBondsD>
2

>  <nBondsT>
0

>  <nBondsA>
6

>  <nBondsM>
8

>  <nBondsKS>
16

>  <nBondsKD>
5

>  <RNCG>
0.3

>  <RPCG>
0.28

>  <FCSP3>
0.11

>  <SZ>
14

>  <Sm>
13.34

>  <Sv>
13.4

>  <Sse>
20.21

>  <Sp>
13.99

>  <Si>
22.45

>  <MZ>
0.7

>  <Mm>
0.67

>  <Mv>
0.67

>  <Mse>
1.01

>  <Mp>
0.7

>  <Mi>
1.12

>  <NsCH3>
0

>  <NdCH2>
0

>  <NssCH2>
1

>  <NtCH>
0

>  <NdsCH>
1

>  <NaaCH>
5

>  <NsssCH>
0

>  <NddC>
0

>  <NtsC>
0

>  <NdssC>
1

>  <NaasC>
1

>  <NaaaC>
0

>  <NssssC>
0

>  <NsNH3>
0

>  <NsNH2>
0

>  <NssNH2>
0

>  <NdNH>
0

>  <NssNH>
0

>  <NaaNH>
0

>  <NtN>
0

>  <NsssNH>
0

>  <NdsN>
1

>  <NaaN>
0

>  <NsssN>
1

>  <NddsN>
0

>  <NaasN>
0

>  <NssssN>
0

>  <NsOH>
0

>  <NdO>
1

>  <NssO>
0

>  <NaaO>
0

>  <NsF>
0

>  <NsSiH3>
0

>  <NssSiH2>
0

>  <NsssSiH>
0

>  <NssssSi>
0

>  <NsPH2>
0

>  <NssPH>
0

>  <NsssP>
0

>  <NdsssP>
0

>  <NsssssP>
0

>  <NsSH>
0

>  <NdS>
0

>  <NssS>
0

>  <NaaS>
0

>  <NdssS>
0

>  <NddssS>
0

>  <NsCl>
0

>  <NsBr>
0

>  <NsI>
0

>  <fragCpx>
37.03

>  <fMF>
0.55

>  <nHBAcc>
2

>  <nHBDon>
0

>  <Kier1>
8.59

>  <Kier2>
3.81

>  <Lipinski>
1

>  <GhoseFilter>
1

>  <FilterItLogS>
-1.5

>  <VMcGowan>
120.28

>  <LabuteASA>
70.31

>  <PEOE_VSA1>
0

>  <PEOE_VSA2>
4.79

>  <PEOE_VSA3>
5.01

>  <PEOE_VSA4>
5.1

>  <PEOE_VSA5>
0

>  <PEOE_VSA6>
18.2

>  <PEOE_VSA7>
12.13

>  <PEOE_VSA8>
6.21

>  <PEOE_VSA9>
12.11

>  <PEOE_VSA10>
0

>  <PEOE_VSA11>
0

>  <PEOE_VSA12>
0

>  <PEOE_VSA13>
5.91

>  <SMR_VSA1>
4.79

>  <SMR_VSA2>
0

>  <SMR_VSA3>
0

>  <SMR_VSA4>
5.1

>  <SMR_VSA5>
6.42

>  <SMR_VSA6>
5.01

>  <SMR_VSA7>
30.33

>  <SMR_VSA8>
0

>  <SMR_VSA9>
0

>  <SlogP_VSA1>
5.01

>  <SlogP_VSA2>
12.12

>  <SlogP_VSA3>
4.79

>  <SlogP_VSA4>
0

>  <SlogP_VSA5>
6.42

>  <SlogP_VSA6>
35.43

>  <SlogP_VSA7>
0

>  <SlogP_VSA8>
0

>  <SlogP_VSA9>
0

>  <SlogP_VSA10>
5.69

>  <SlogP_VSA11>
0

>  <EState_VSA1>
0

>  <EState_VSA2>
5.91

>  <EState_VSA3>
6.42

>  <EState_VSA4>
5.69

>  <EState_VSA5>
5.01

>  <EState_VSA6>
6.21

>  <EState_VSA7>
30.33

>  <EState_VSA8>
5.1

>  <EState_VSA9>
0

>  <EState_VSA10>
4.79

>  <VSA_EState1>
0

>  <VSA_EState2>
11.18

>  <VSA_EState3>
5.36

>  <VSA_EState4>
0.83

>  <VSA_EState5>
0.03

>  <VSA_EState6>
9.4

>  <VSA_EState7>
2.03

>  <VSA_EState8>
0

>  <VSA_EState9>
0

>  <apol>
23.37

>  <bpol>
10.6

>  <nRing>
2

>  <nHRing>
1

>  <naRing>
1

>  <naHRing>
0

>  <nARing 2>
1

>  <nAHRing 2>
1

>  <nFRing>
0

>  <nFHRing>
0

>  <nFaRing>
0

>  <nFaHRing>
0

>  <nFARing 2>
0

>  <nFAHRing 2>
0

>  <nRot>
1

>  <SLogP>
1.41

>  <SMR>
47.04

>  <TopoPSA(NO)>
32.67

>  <TopoPSA>
32.67

>  <JGI1>
0.12

>  <JGI2>
0.08

>  <JGI3>
0.05

>  <JGI4>
0.03

>  <JGI5>
0.02

>  <Diameter>
6

>  <Radius>
3

>  <TMWC10>
92.28

>  <TSRW10>
56.16

>  <MW>
160.06

>  <AMW>
8

>  <WPath>
191

>  <WPol>
14

>  <Zagreb1>
60

>  <Zagreb2>
69

>  <mZagreb2>
2.72

>  <yes>


>  <nAR-cont>
0.816016

>  <nHA-cont>
0.785745021

>  <MWHBN>
0.158084245

>  <MWHBN-cont>
0.951764279

>  <TPSA-cont>
0.771943113

>  <pka_cont>
0.97

>  <yes.1>


>  <BBB_SCORE>
5.058293665

>  <MMFF94 Energy>
39.105

$$$$
Compound 2878
Actelion Java MolfileCreator 2.0

  0  0  0  0  0  0              0 V3000
M  V30 BEGIN CTAB
M  V30 COUNTS 51 55 0 0 0
M  V30 BEGIN ATOM
M  V30 1 S 1.3835 -0.895 -1.7907 0 CHG=1
M  V30 2 C -0.4473 -0.8331 -1.4573 0
M  V30 3 C 1.6278 -1.4338 -0.0658 0
M  V30 4 C 1.2688 -2.5309 -2.5884 0
M  V30 5 C -0.6623 -0.4432 0.0213 0
M  V30 6 C -0.9887 -2.2303 -1.7716 0
M  V30 7 C 0.6882 -0.567 0.7641 0
M  V30 8 C -0.1899 -2.7358 -2.9575 0
M  V30 9 N -1.0158 0.9563 0.2231 0
M  V30 10 N 1.1026 0.8206 0.9415 0
M  V30 11 C 0.0569 1.7013 0.6963 0
M  V30 12 C -2.3534 1.4925 0.0586 0
M  V30 13 C 2.3705 1.2256 1.5146 0
M  V30 14 O 0.0608 2.9036 0.9042 0
M  V30 15 C -2.7976 1.5774 -1.3774 0
M  V30 16 C 2.5369 0.7423 2.9346 0
M  V30 17 C -2.1831 2.4864 -2.2512 0
M  V30 18 C -3.8212 0.7522 -1.8645 0
M  V30 19 C 1.7414 1.2768 3.9591 0
M  V30 20 C 3.4735 -0.2514 3.2508 0
M  V30 21 C -2.5798 2.5635 -3.5863 0
M  V30 22 C -4.2171 0.8321 -3.2007 0
M  V30 23 C 1.8797 0.826 5.2721 0
M  V30 24 C 3.6104 -0.7008 4.5654 0
M  V30 25 C -3.5961 1.7364 -4.0605 0
M  V30 26 C 2.8137 -0.1626 5.5747 0
M  V30 27 H -0.8493 -0.1118 -2.171 0
M  V30 28 H 1.3493 -2.4851 0.0494 0
M  V30 29 H 2.6821 -1.3215 0.195 0
M  V30 30 H 1.6309 -3.314 -1.9172 0
M  V30 31 H 1.9027 -2.5263 -3.4795 0
M  V30 32 H -1.4352 -1.0584 0.4961 0
M  V30 33 H -2.06 -2.1928 -1.995 0
M  V30 34 H -0.8581 -2.9129 -0.9227 0
M  V30 35 H 0.5427 -0.9927 1.7637 0
M  V30 36 H -0.4423 -2.1561 -3.8541 0
M  V30 37 H -0.4019 -3.7876 -3.1717 0
M  V30 38 H -3.0334 0.8607 0.6419 0
M  V30 39 H -2.4057 2.4947 0.5006 0
M  V30 40 H 3.1714 0.8442 0.8726 0
M  V30 41 H 2.4531 2.3188 1.4997 0
M  V30 42 H -1.3824 3.1311 -1.8905 0
M  V30 43 H -4.3168 0.0418 -1.2073 0
M  V30 44 H 1.009 2.0502 3.7309 0
M  V30 45 H 4.1054 -0.679 2.4761 0
M  V30 46 H -2.0925 3.2681 -4.2551 0
M  V30 47 H -5.0115 0.1902 -3.5719 0
M  V30 48 H 1.2596 1.2495 6.0579 0
M  V30 49 H 4.3419 -1.4685 4.8037 0
M  V30 50 H -3.9041 1.7983 -5.1008 0
M  V30 51 H 2.9232 -0.5107 6.5984 0
M  V30 END ATOM
M  V30 BEGIN BOND
M  V30 1 1 1 2
M  V30 2 1 1 3
M  V30 3 1 1 4
M  V30 4 1 2 5
M  V30 5 1 2 6
M  V30 6 1 3 7
M  V30 7 1 4 8
M  V30 8 1 5 9
M  V30 9 1 7 10
M  V30 10 1 9 11
M  V30 11 1 9 12
M  V30 12 1 10 13
M  V30 13 2 11 14
M  V30 14 1 12 15
M  V30 15 1 13 16
M  V30 16 2 15 17
M  V30 17 1 15 18
M  V30 18 2 16 19
M  V30 19 1 16 20
M  V30 20 1 17 21
M  V30 21 2 18 22
M  V30 22 1 19 23
M  V30 23 2 20 24
M  V30 24 2 21 25
M  V30 25 2 23 26
M  V30 26 1 5 7
M  V30 27 1 6 8
M  V30 28 1 10 11
M  V30 29 1 22 25
M  V30 30 1 24 26
M  V30 31 1 2 27
M  V30 32 1 3 28
M  V30 33 1 3 29
M  V30 34 1 4 30
M  V30 35 1 4 31
M  V30 36 1 5 32
M  V30 37 1 6 33
M  V30 38 1 6 34
M  V30 39 1 7 35
M  V30 40 1 8 36
M  V30 41 1 8 37
M  V30 42 1 12 38
M  V30 43 1 12 39
M  V30 44 1 13 40
M  V30 45 1 13 41
M  V30 46 1 17 42
M  V30 47 1 18 43
M  V30 48 1 19 44
M  V30 49 1 20 45
M  V30 50 1 21 46
M  V30 51 1 22 47
M  V30 52 1 23 48
M  V30 53 1 24 49
M  V30 54 1 25 50
M  V30 55 1 26 51
M  V30 END BOND
M  V30 END CTAB
M  END
>  <Column 1>
3666

>  <level_0>
5933

>  <index>
5934

>  <Unnamed: 0>
5934

>  <NO.>
5946

>  <Name>
trimethaphan

>  <IUPAC_name>
3-5-dibenzyl-8-thionia-3-5-diazatricyclo[6.3.0.02-6]undecan-4-one

>  <SMILES>
O=C1N(Cc2ccccc2)C2C[S+]3CCCC3C2N1Cc1ccccc1

>  <CID>
23576

>  <logBB>


>  <BBB+/BBB->
BBB-

>  <Inchi>
InChI=1S/C22H25N2OS/c25-22-23(14-17-8-3-1-4-9-17)19-16-26-13-7-12-20(26)21(19)24(22)15-18-10-5-2-6-11-18/h1-6-8-11-19-21H-7-12-16H2/q+1

>  <threshold>


>  <reference>
R23|

>  <group>
C

>  <Class>
-1

>  <ABC>
21.04

>  <ABCGG>
16.84

>  <nAcid>
0

>  <nBase>
1

>  <nAromAtom>
12

>  <nAromBond>
12

>  <nAtom>
51

>  <nHeavyAtom>
26

>  <nSpiro>
0

>  <nBridgehead>
0

>  <nHetero>
4

>  <nN>
2

>  <nO>
1

>  <nF>
0

>  <BalabanJ>
1.33

>  <BertzCT>
781.24

>  <nBonds>
55

>  <nBondsO>
30

>  <nBondsS>
42

>  <nBondsD>
1

>  <nBondsT>
0

>  <nBondsA>
12

>  <nBondsM>
13

>  <nBondsKS>
48

>  <nBondsKD>
7

>  <RNCG>
0.2

>  <RPCG>
0.13

>  <FCSP3>
0.41

>  <SZ>
32.5

>  <Sm>
30.43

>  <Sv>
32.19

>  <Sse>
50.33

>  <Sp>
35.52

>  <Si>
56.9

>  <MZ>
0.64

>  <Mm>
0.6

>  <Mv>
0.63

>  <Mse>
0.99

>  <Mp>
0.7

>  <Mi>
1.12

>  <NsCH3>
0

>  <NdCH2>
0

>  <NssCH2>
6

>  <NtCH>
0

>  <NdsCH>
0

>  <NaaCH>
10

>  <NsssCH>
3

>  <NddC>
0

>  <NtsC>
0

>  <NdssC>
1

>  <NaasC>
2

>  <NaaaC>
0

>  <NssssC>
0

>  <NsNH3>
0

>  <NsNH2>
0

>  <NssNH2>
0

>  <NdNH>
0

>  <NssNH>
0

>  <NaaNH>
0

>  <NtN>
0

>  <NsssNH>
0

>  <NdsN>
0

>  <NaaN>
0

>  <NsssN>
2

>  <NddsN>
0

>  <NaasN>
0

>  <NssssN>
0

>  <NsOH>
0

>  <NdO>
1

>  <NssO>
0

>  <NaaO>
0

>  <NsF>
0

>  <NsSiH3>
0

>  <NssSiH2>
0

>  <NsssSiH>
0

>  <NssssSi>
0

>  <NsPH2>
0

>  <NssPH>
0

>  <NsssP>
0

>  <NdsssP>
0

>  <NsssssP>
0

>  <NsSH>
0

>  <NdS>
0

>  <NssS>
0

>  <NaaS>
0

>  <NdssS>
0

>  <NddssS>
0

>  <NsCl>
0

>  <NsBr>
0

>  <NsI>
0

>  <fragCpx>
250.04

>  <fMF>
0.49

>  <nHBAcc>
1

>  <nHBDon>
0

>  <Kier1>
18.06

>  <Kier2>
7.79

>  <Lipinski>
1

>  <GhoseFilter>
1

>  <FilterItLogS>
-4.35

>  <VMcGowan>
280.77

>  <LabuteASA>
157.89

>  <PEOE_VSA1>
9.8

>  <PEOE_VSA2>
0

>  <PEOE_VSA3>
4.79

>  <PEOE_VSA4>
0

>  <PEOE_VSA5>
0

>  <PEOE_VSA6>
60.66

>  <PEOE_VSA7>
28.44

>  <PEOE_VSA8>
19.51

>  <PEOE_VSA9>
0

>  <PEOE_VSA10>
28.84

>  <PEOE_VSA11>
0

>  <PEOE_VSA12>
0

>  <PEOE_VSA13>
0

>  <SMR_VSA1>
4.79

>  <SMR_VSA2>
0

>  <SMR_VSA3>
9.8

>  <SMR_VSA4>
0

>  <SMR_VSA5>
43.26

>  <SMR_VSA6>
11.51

>  <SMR_VSA7>
71.79

>  <SMR_VSA8>
0

>  <SMR_VSA9>
0

>  <SlogP_VSA1>
0

>  <SlogP_VSA2>
44.67

>  <SlogP_VSA3>
23.98

>  <SlogP_VSA4>
0

>  <SlogP_VSA5>
23.97

>  <SlogP_VSA6>
60.66

>  <SlogP_VSA7>
0

>  <SlogP_VSA8>
0

>  <SlogP_VSA9>
0

>  <SlogP_VSA10>
4.79

>  <SlogP_VSA11>
0

>  <EState_VSA1>
0

>  <EState_VSA2>
6.03

>  <EState_VSA3>
22.98

>  <EState_VSA4>
18.34

>  <EState_VSA5>
35.47

>  <EState_VSA6>
0

>  <EState_VSA7>
12.13

>  <EState_VSA8>
58.33

>  <EState_VSA9>
0

>  <EState_VSA10>
4.79

>  <VSA_EState1>
0

>  <VSA_EState2>
17.75

>  <VSA_EState3>
0.73

>  <VSA_EState4>
2.48

>  <VSA_EState5>
2.6

>  <VSA_EState6>
22

>  <VSA_EState7>
2.66

>  <VSA_EState8>
1.5

>  <VSA_EState9>
0.52

>  <apol>
59.31

>  <bpol>
33.06

>  <nRing>
5

>  <nHRing>
3

>  <naRing>
2

>  <naHRing>
0

>  <nARing 2>
3

>  <nAHRing 2>
3

>  <nFRing>
1

>  <nFHRing>
1

>  <nFaRing>
0

>  <nFaHRing>
0

>  <nFARing 2>
1

>  <nFAHRing 2>
1

>  <nRot>
4

>  <SLogP>
3.66

>  <SMR>
107.06

>  <TopoPSA(NO)>
23.55

>  <TopoPSA>
23.55

>  <JGI1>
0.12

>  <JGI2>
0.05

>  <JGI3>
0.05

>  <JGI4>
0.04

>  <JGI5>
0.03

>  <Diameter>
12

>  <Radius>
6

>  <TMWC10>
133.85

>  <TSRW10>
78.88

>  <MW>
365.17

>  <AMW>
7.16

>  <WPath>
1584

>  <WPol>
41

>  <Zagreb1>
146

>  <Zagreb2>
178

>  <mZagreb2>
5.61

>  <yes>


>  <nAR-cont>
0.691115

>  <nHA-cont>
0.892715677

>  <MWHBN>
0.052330207

>  <MWHBN-cont>
0.387469173

>  <TPSA-cont>
0.835606376

>  <pka_cont>
0.97

>  <yes.1>


>  <BBB_SCORE>
4.321247189

>  <MMFF94 Energy>
15.147

$$$$
Compound 2879
Actelion Java MolfileCreator 2.0

  0  0  0  0  0  0              0 V3000
M  V30 BEGIN CTAB
M  V30 COUNTS 15 14 0 0 0
M  V30 BEGIN ATOM
M  V30 1 Cl -1.01 1.745 1.4694 0
M  V30 2 C -0.5746 0.2852 0.4899 0
M  V30 3 Cl -1.8281 -0.9667 0.8237 0
M  V30 4 P -0.6747 0.7678 -1.2473 0
M  V30 5 P 1.0196 -0.3024 1.1011 0
M  V30 6 O 0.2513 1.8183 -1.7719 0
M  V30 7 O -2.1994 1.1877 -1.5637 0
M  V30 8 O -0.5767 -0.5549 -2.1577 0
M  V30 9 O 2.2256 0.5713 0.9644 0
M  V30 10 O 1.3153 -1.7501 0.4648 0
M  V30 11 O 0.8374 -0.7305 2.6454 0
M  V30 12 H -2.2959 1.6805 -2.3998 0
M  V30 13 H -0.4451 -0.3622 -3.105 0
M  V30 14 H 2.232 -2.0533 0.6054 0
M  V30 15 H 1.6847 -0.8339 3.1173 0
M  V30 END ATOM
M  V30 BEGIN BOND
M  V30 1 1 1 2
M  V30 2 1 2 3
M  V30 3 1 2 4
M  V30 4 1 2 5
M  V30 5 2 4 6
M  V30 6 1 4 7
M  V30 7 1 4 8
M  V30 8 2 5 9
M  V30 9 1 5 10
M  V30 10 1 5 11
M  V30 11 1 7 12
M  V30 12 1 8 13
M  V30 13 1 10 14
M  V30 14 1 11 15
M  V30 END BOND
M  V30 END CTAB
M  END
>  <Column 1>
3669

>  <level_0>
5937

>  <index>
5938

>  <Unnamed: 0>
5938

>  <NO.>
5950

>  <Name>
clodronic acid

>  <IUPAC_name>
[dichloro(phosphono)methyl]phosphonic acid

>  <SMILES>
O=P(O)(O)C(Cl)(Cl)P(=O)(O)O

>  <CID>
25419

>  <logBB>


>  <BBB+/BBB->
BBB-

>  <Inchi>
InChI=1S/CH4Cl2O6P2/c2-1(3-10(4-5)6)11(7-8)9/h(H2-4-5-6)(H2-7-8-9)

>  <threshold>


>  <reference>
R23|R27|

>  <group>
C

>  <Class>
-1

>  <ABC>
8.15

>  <ABCGG>
8.72

>  <nAcid>
4

>  <nBase>
0

>  <nAromAtom>
0

>  <nAromBond>
0

>  <nAtom>
15

>  <nHeavyAtom>
11

>  <nSpiro>
0

>  <nBridgehead>
0

>  <nHetero>
10

>  <nN>
0

>  <nO>
6

>  <nF>
0

>  <BalabanJ>
4.75

>  <BertzCT>
210.97

>  <nBonds>
14

>  <nBondsO>
10

>  <nBondsS>
12

>  <nBondsD>
2

>  <nBondsT>
0

>  <nBondsA>
0

>  <nBondsM>
2

>  <nBondsKS>
12

>  <nBondsKD>
2

>  <RNCG>
0.17

>  <RPCG>
0.19

>  <FCSP3>
1

>  <SZ>
20.33

>  <Sm>
20.39

>  <Sv>
10.93

>  <Sse>
17.12

>  <Sp>
12.44

>  <Si>
17.25

>  <MZ>
1.36

>  <Mm>
1.36

>  <Mv>
0.73

>  <Mse>
1.14

>  <Mp>
0.83

>  <Mi>
1.15

>  <NsCH3>
0

>  <NdCH2>
0

>  <NssCH2>
0

>  <NtCH>
0

>  <NdsCH>
0

>  <NaaCH>
0

>  <NsssCH>
0

>  <NddC>
0

>  <NtsC>
0

>  <NdssC>
0

>  <NaasC>
0

>  <NaaaC>
0

>  <NssssC>
1

>  <NsNH3>
0

>  <NsNH2>
0

>  <NssNH2>
0

>  <NdNH>
0

>  <NssNH>
0

>  <NaaNH>
0

>  <NtN>
0

>  <NsssNH>
0

>  <NdsN>
0

>  <NaaN>
0

>  <NsssN>
0

>  <NddsN>
0

>  <NaasN>
0

>  <NssssN>
0

>  <NsOH>
4

>  <NdO>
2

>  <NssO>
0

>  <NaaO>
0

>  <NsF>
0

>  <NsSiH3>
0

>  <NssSiH2>
0

>  <NsssSiH>
0

>  <NssssSi>
0

>  <NsPH2>
0

>  <NssPH>
0

>  <NsssP>
0

>  <NdsssP>
2

>  <NsssssP>
0

>  <NsSH>
0

>  <NdS>
0

>  <NssS>
0

>  <NaaS>
0

>  <NdssS>
0

>  <NddssS>
0

>  <NsCl>
2

>  <NsBr>
0

>  <NsI>
0

>  <fragCpx>
10.1

>  <fMF>
0

>  <nHBAcc>
2

>  <nHBDon>
4

>  <Kier1>
11

>  <Kier2>
2.5

>  <Lipinski>
1

>  <GhoseFilter>
0

>  <FilterItLogS>
1.1

>  <VMcGowan>
125.57

>  <LabuteASA>
71.45

>  <PEOE_VSA1>
19.57

>  <PEOE_VSA2>
9.13

>  <PEOE_VSA3>
0

>  <PEOE_VSA4>
0

>  <PEOE_VSA5>
0

>  <PEOE_VSA6>
23.2

>  <PEOE_VSA7>
0

>  <PEOE_VSA8>
0

>  <PEOE_VSA9>
0

>  <PEOE_VSA10>
0

>  <PEOE_VSA11>
0

>  <PEOE_VSA12>
0

>  <PEOE_VSA13>
0

>  <SMR_VSA1>
28.7

>  <SMR_VSA2>
0

>  <SMR_VSA3>
0

>  <SMR_VSA4>
0

>  <SMR_VSA5>
3.82

>  <SMR_VSA6>
0

>  <SMR_VSA7>
0

>  <SMR_VSA8>
0

>  <SMR_VSA9>
0

>  <SlogP_VSA1>
0

>  <SlogP_VSA2>
23.39

>  <SlogP_VSA3>
9.13

>  <SlogP_VSA4>
0

>  <SlogP_VSA5>
0

>  <SlogP_VSA6>
0

>  <SlogP_VSA7>
0

>  <SlogP_VSA8>
0

>  <SlogP_VSA9>
0

>  <SlogP_VSA10>
0

>  <SlogP_VSA11>
0

>  <EState_VSA1>
19.01

>  <EState_VSA2>
0

>  <EState_VSA3>
0

>  <EState_VSA4>
0

>  <EState_VSA5>
0

>  <EState_VSA6>
0

>  <EState_VSA7>
0

>  <EState_VSA8>
0

>  <EState_VSA9>
42.78

>  <EState_VSA10>
9.13

>  <VSA_EState1>
17.13

>  <VSA_EState2>
32.94

>  <VSA_EState3>
0

>  <VSA_EState4>
0

>  <VSA_EState5>
0

>  <VSA_EState6>
0

>  <VSA_EState7>
0

>  <VSA_EState8>
0

>  <VSA_EState9>
-10.44

>  <apol>
20.77

>  <bpol>
22.45

>  <nRing>
0

>  <nHRing>
0

>  <naRing>
0

>  <naHRing>
0

>  <nARing 2>
0

>  <nAHRing 2>
0

>  <nFRing>
0

>  <nFHRing>
0

>  <nFaRing>
0

>  <nFaHRing>
0

>  <nFARing 2>
0

>  <nFAHRing 2>
0

>  <nRot>
2

>  <SLogP>
0.43

>  <SMR>
38.53

>  <TopoPSA(NO)>
115.06

>  <TopoPSA>
134.68

>  <JGI1>
0.6

>  <JGI2>
0.19

>  <JGI3>
0.06

>  <JGI4>
0

>  <JGI5>
0

>  <Diameter>
4

>  <Radius>
2

>  <TMWC10>
89.13

>  <TSRW10>
42.37

>  <MW>
243.89

>  <AMW>
16.26

>  <WPath>
136

>  <WPol>
18

>  <Zagreb1>
56

>  <Zagreb2>
64

>  <mZagreb2>
2.13

>  <yes>


>  <nAR-cont>
0.336376

>  <nHA-cont>
0.720786536

>  <MWHBN>
0.384197251

>  <MWHBN-cont>
0.538313926

>  <TPSA-cont>
0

>  <pka_cont>
0.97

>  <yes.1>


>  <BBB_SCORE>
2.349633425

>  <MMFF94 Energy>
-114.39

$$$$
Compound 2880
Actelion Java MolfileCreator 2.0

  0  0  0  0  0  0              0 V3000
M  V30 BEGIN CTAB
M  V30 COUNTS 14 13 0 0 0
M  V30 BEGIN ATOM
M  V30 1 S -0.9985 0.9153 -1.2483 0
M  V30 2 C -0.0119 0.3635 0.2105 0 CFG=2
M  V30 3 C 1.3245 -0.2631 -0.206 0
M  V30 4 C -0.8462 -0.6443 1.0146 0
M  V30 5 S 2.4816 0.9317 -0.9508 0
M  V30 6 O -2.0325 -0.0448 1.5285 0
M  V30 7 H -1.0705 -0.2782 -1.8577 0
M  V30 8 H 0.1542 1.2534 0.8291 0
M  V30 9 H 1.1712 -1.0855 -0.9137 0
M  V30 10 H 1.8287 -0.683 0.6711 0
M  V30 11 H -0.2746 -1.0102 1.874 0
M  V30 12 H -1.1292 -1.5152 0.4126 0
M  V30 13 H 1.6406 1.3855 -1.8947 0
M  V30 14 H -2.4526 0.4378 0.7916 0
M  V30 END ATOM
M  V30 BEGIN BOND
M  V30 1 1 1 2
M  V30 2 1 2 3
M  V30 3 1 2 4
M  V30 4 1 3 5
M  V30 5 1 4 6
M  V30 6 1 1 7
M  V30 7 1 2 8
M  V30 8 1 3 9
M  V30 9 1 3 10
M  V30 10 1 4 11
M  V30 11 1 4 12
M  V30 12 1 5 13
M  V30 13 1 6 14
M  V30 END BOND
M  V30 BEGIN COLLECTION
M  V30 MDLV30/STERAC1 ATOMS=(1 2)
M  V30 END COLLECTION
M  V30 END CTAB
M  END
>  <Column 1>
3678

>  <level_0>
5948

>  <index>
5949

>  <Unnamed: 0>
5949

>  <NO.>
5961

>  <Name>
dimercaprol

>  <IUPAC_name>
2-3-bis(sulfanyl)propan-1-ol

>  <SMILES>
OCC(S)CS

>  <CID>
3080

>  <logBB>


>  <BBB+/BBB->
BBB-

>  <Inchi>
InChI=1S/C3H8OS2/c4-1-3(6)2-5/h3-6H-1-2H2

>  <threshold>


>  <reference>
R23|

>  <group>
C

>  <Class>
-1

>  <ABC>
3.64

>  <ABCGG>
4.1

>  <nAcid>
0

>  <nBase>
0

>  <nAromAtom>
0

>  <nAromBond>
0

>  <nAtom>
14

>  <nHeavyAtom>
6

>  <nSpiro>
0

>  <nBridgehead>
0

>  <nHetero>
3

>  <nN>
0

>  <nO>
1

>  <nF>
0

>  <BalabanJ>
2.75

>  <BertzCT>
27.97

>  <nBonds>
13

>  <nBondsO>
5

>  <nBondsS>
13

>  <nBondsD>
0

>  <nBondsT>
0

>  <nBondsA>
0

>  <nBondsM>
0

>  <nBondsKS>
13

>  <nBondsKD>
0

>  <RNCG>
0.53

>  <RPCG>
0.28

>  <FCSP3>
1

>  <SZ>
11

>  <Sm>
10.34

>  <Sv>
8.26

>  <Sse>
14.04

>  <Sp>
10.15

>  <Si>
15.71

>  <MZ>
0.79

>  <Mm>
0.74

>  <Mv>
0.59

>  <Mse>
1

>  <Mp>
0.72

>  <Mi>
1.12

>  <NsCH3>
0

>  <NdCH2>
0

>  <NssCH2>
2

>  <NtCH>
0

>  <NdsCH>
0

>  <NaaCH>
0

>  <NsssCH>
1

>  <NddC>
0

>  <NtsC>
0

>  <NdssC>
0

>  <NaasC>
0

>  <NaaaC>
0

>  <NssssC>
0

>  <NsNH3>
0

>  <NsNH2>
0

>  <NssNH2>
0

>  <NdNH>
0

>  <NssNH>
0

>  <NaaNH>
0

>  <NtN>
0

>  <NsssNH>
0

>  <NdsN>
0

>  <NaaN>
0

>  <NsssN>
0

>  <NddsN>
0

>  <NaasN>
0

>  <NssssN>
0

>  <NsOH>
1

>  <NdO>
0

>  <NssO>
0

>  <NaaO>
0

>  <NsF>
0

>  <NsSiH3>
0

>  <NssSiH2>
0

>  <NsssSiH>
0

>  <NssssSi>
0

>  <NsPH2>
0

>  <NssPH>
0

>  <NsssP>
0

>  <NdsssP>
0

>  <NsssssP>
0

>  <NsSH>
2

>  <NdS>
0

>  <NssS>
0

>  <NaaS>
0

>  <NdssS>
0

>  <NddssS>
0

>  <NsCl>
0

>  <NsBr>
0

>  <NsI>
0

>  <fragCpx>
5.03

>  <fMF>
0

>  <nHBAcc>
3

>  <nHBDon>
3

>  <Kier1>
6

>  <Kier2>
3.2

>  <Lipinski>
1

>  <GhoseFilter>
0

>  <FilterItLogS>
-0.34

>  <VMcGowan>
91.7

>  <LabuteASA>
48.57

>  <PEOE_VSA1>
5.11

>  <PEOE_VSA2>
0

>  <PEOE_VSA3>
0

>  <PEOE_VSA4>
25.26

>  <PEOE_VSA5>
0

>  <PEOE_VSA6>
0

>  <PEOE_VSA7>
0

>  <PEOE_VSA8>
11

>  <PEOE_VSA9>
6.61

>  <PEOE_VSA10>
0

>  <PEOE_VSA11>
0

>  <PEOE_VSA12>
0

>  <PEOE_VSA13>
0

>  <SMR_VSA1>
5.11

>  <SMR_VSA2>
0

>  <SMR_VSA3>
0

>  <SMR_VSA4>
0

>  <SMR_VSA5>
5.25

>  <SMR_VSA6>
12.36

>  <SMR_VSA7>
0

>  <SMR_VSA8>
0

>  <SMR_VSA9>
0

>  <SlogP_VSA1>
0

>  <SlogP_VSA2>
22.72

>  <SlogP_VSA3>
0

>  <SlogP_VSA4>
0

>  <SlogP_VSA5>
0

>  <SlogP_VSA6>
0

>  <SlogP_VSA7>
0

>  <SlogP_VSA8>
0

>  <SlogP_VSA9>
0

>  <SlogP_VSA10>
0

>  <SlogP_VSA11>
0

>  <EState_VSA1>
0

>  <EState_VSA2>
11.86

>  <EState_VSA3>
5.75

>  <EState_VSA4>
0

>  <EState_VSA5>
0

>  <EState_VSA6>
0

>  <EState_VSA7>
0

>  <EState_VSA8>
25.26

>  <EState_VSA9>
5.11

>  <EState_VSA10>
0

>  <VSA_EState1>
0

>  <VSA_EState2>
0

>  <VSA_EState3>
8.26

>  <VSA_EState4>
0

>  <VSA_EState5>
0.64

>  <VSA_EState6>
0

>  <VSA_EState7>
0

>  <VSA_EState8>
0.12

>  <VSA_EState9>
0

>  <apol>
16.95

>  <bpol>
12.95

>  <nRing>
0

>  <nHRing>
0

>  <naRing>
0

>  <naHRing>
0

>  <nARing 2>
0

>  <nAHRing 2>
0

>  <nFRing>
0

>  <nFHRing>
0

>  <nFaRing>
0

>  <nFaHRing>
0

>  <nFARing 2>
0

>  <nFAHRing 2>
0

>  <nRot>
2

>  <SLogP>
0.21

>  <SMR>
33.71

>  <TopoPSA(NO)>
20.23

>  <TopoPSA>
97.83

>  <JGI1>
0.3

>  <JGI2>
0.13

>  <JGI3>
0.03

>  <JGI4>
0

>  <JGI5>
0

>  <Diameter>
4

>  <Radius>
2

>  <TMWC10>
61.67

>  <TSRW10>
29.75

>  <MW>
124

>  <AMW>
8.86

>  <WPath>
31

>  <WPol>
4

>  <Zagreb1>
20

>  <Zagreb2>
19

>  <mZagreb2>
1.67

>  <yes>


>  <nAR-cont>
0.336376

>  <nHA-cont>
0.238778273

>  <MWHBN>
0.538815906

>  <MWHBN-cont>
0

>  <TPSA-cont>
0.317085851

>  <pka_cont>
0.97

>  <yes.1>


>  <BBB_SCORE>
1.694325975

>  <MMFF94 Energy>
24.604

$$$$
Compound 2881
Actelion Java MolfileCreator 2.0

  0  0  0  0  0  0              0 V3000
M  V30 BEGIN CTAB
M  V30 COUNTS 18 19 0 0 0
M  V30 BEGIN ATOM
M  V30 1 Cl 1.3401 -0.0837 3.7724 0
M  V30 2 C 0.5422 -0.0366 2.2427 0
M  V30 3 C 1.2804 0.0115 1.0562 0
M  V30 4 C -0.8425 -0.0471 2.2042 0
M  V30 5 O 2.6595 0.0213 1.1143 0
M  V30 6 C 0.6584 0.0504 -0.199 0
M  V30 7 C -1.487 -0.009 0.9689 0
M  V30 8 N 1.4032 0.0966 -1.3268 0
M  V30 9 C -0.7556 0.04 -0.2456 0
M  V30 10 Cl -3.2206 -0.0248 0.9959 0
M  V30 11 C 0.7868 0.1336 -2.5252 0
M  V30 12 C -1.3565 0.0799 -1.5248 0
M  V30 13 C -0.5807 0.1272 -2.6759 0
M  V30 14 H -1.4179 -0.0844 3.1256 0
M  V30 15 H 2.9244 -0.0093 2.0507 0
M  V30 16 H 1.4498 0.1696 -3.3848 0
M  V30 17 H -2.4384 0.0746 -1.6368 0
M  V30 18 H -1.0338 0.1581 -3.6601 0
M  V30 END ATOM
M  V30 BEGIN BOND
M  V30 1 1 1 2
M  V30 2 2 2 3
M  V30 3 1 2 4
M  V30 4 1 3 5
M  V30 5 1 3 6
M  V30 6 2 4 7
M  V30 7 2 6 8
M  V30 8 1 6 9
M  V30 9 1 7 10
M  V30 10 1 8 11
M  V30 11 2 9 12
M  V30 12 2 11 13
M  V30 13 1 7 9
M  V30 14 1 12 13
M  V30 15 1 4 14
M  V30 16 1 5 15
M  V30 17 1 11 16
M  V30 18 1 12 17
M  V30 19 1 13 18
M  V30 END BOND
M  V30 END CTAB
M  END
>  <Column 1>
3680

>  <level_0>
5950

>  <index>
5951

>  <Unnamed: 0>
5951

>  <NO.>
5963

>  <Name>
chloroxine

>  <IUPAC_name>
5-7-dichloroquinolin-8-ol

>  <SMILES>
Oc1c(Cl)cc(Cl)c2cccnc12

>  <CID>
2722

>  <logBB>


>  <BBB+/BBB->
BBB-

>  <Inchi>
InChI=1S/C9H5Cl2NO/c10-6-4-7(11)9(13)8-5(6)2-1-3-12-8/h1-4-13H

>  <threshold>


>  <reference>
R23|

>  <group>
C

>  <Class>
-1

>  <ABC>
10.07

>  <ABCGG>
8.93

>  <nAcid>
0

>  <nBase>
0

>  <nAromAtom>
10

>  <nAromBond>
11

>  <nAtom>
18

>  <nHeavyAtom>
13

>  <nSpiro>
0

>  <nBridgehead>
0

>  <nHetero>
4

>  <nN>
1

>  <nO>
1

>  <nF>
0

>  <BalabanJ>
2.1

>  <BertzCT>
470.37

>  <nBonds>
19

>  <nBondsO>
14

>  <nBondsS>
8

>  <nBondsD>
0

>  <nBondsT>
0

>  <nBondsA>
11

>  <nBondsM>
11

>  <nBondsKS>
14

>  <nBondsKD>
5

>  <RNCG>
0.49

>  <RPCG>
0.28

>  <FCSP3>
0

>  <SZ>
18

>  <Sm>
17.82

>  <Sv>
14.01

>  <Sse>
18.74

>  <Sp>
14.75

>  <Si>
19.84

>  <MZ>
1

>  <Mm>
0.99

>  <Mv>
0.78

>  <Mse>
1.04

>  <Mp>
0.82

>  <Mi>
1.1

>  <NsCH3>
0

>  <NdCH2>
0

>  <NssCH2>
0

>  <NtCH>
0

>  <NdsCH>
0

>  <NaaCH>
4

>  <NsssCH>
0

>  <NddC>
0

>  <NtsC>
0

>  <NdssC>
0

>  <NaasC>
3

>  <NaaaC>
2

>  <NssssC>
0

>  <NsNH3>
0

>  <NsNH2>
0

>  <NssNH2>
0

>  <NdNH>
0

>  <NssNH>
0

>  <NaaNH>
0

>  <NtN>
0

>  <NsssNH>
0

>  <NdsN>
0

>  <NaaN>
1

>  <NsssN>
0

>  <NddsN>
0

>  <NaasN>
0

>  <NssssN>
0

>  <NsOH>
1

>  <NdO>
0

>  <NssO>
0

>  <NaaO>
0

>  <NsF>
0

>  <NsSiH3>
0

>  <NssSiH2>
0

>  <NsssSiH>
0

>  <NssssSi>
0

>  <NsPH2>
0

>  <NssPH>
0

>  <NsssP>
0

>  <NdsssP>
0

>  <NsssssP>
0

>  <NsSH>
0

>  <NdS>
0

>  <NssS>
0

>  <NaaS>
0

>  <NdssS>
0

>  <NddssS>
0

>  <NsCl>
2

>  <NsBr>
0

>  <NsI>
0

>  <fragCpx>
40.04

>  <fMF>
0.56

>  <nHBAcc>
2

>  <nHBDon>
1

>  <Kier1>
9.55

>  <Kier2>
3.63

>  <Lipinski>
1

>  <GhoseFilter>
0

>  <FilterItLogS>
-3.76

>  <VMcGowan>
134.78

>  <LabuteASA>
84.73

>  <PEOE_VSA1>
5.11

>  <PEOE_VSA2>
4.98

>  <PEOE_VSA3>
0

>  <PEOE_VSA4>
0

>  <PEOE_VSA5>
0

>  <PEOE_VSA6>
23.2

>  <PEOE_VSA7>
18.2

>  <PEOE_VSA8>
11.58

>  <PEOE_VSA9>
10.05

>  <PEOE_VSA10>
5.52

>  <PEOE_VSA11>
5.75

>  <PEOE_VSA12>
0

>  <PEOE_VSA13>
0

>  <SMR_VSA1>
5.11

>  <SMR_VSA2>
0

>  <SMR_VSA3>
4.98

>  <SMR_VSA4>
0

>  <SMR_VSA5>
0

>  <SMR_VSA6>
0

>  <SMR_VSA7>
34.44

>  <SMR_VSA8>
0

>  <SMR_VSA9>
5.75

>  <SlogP_VSA1>
0

>  <SlogP_VSA2>
10.09

>  <SlogP_VSA3>
0

>  <SlogP_VSA4>
0

>  <SlogP_VSA5>
0

>  <SlogP_VSA6>
24.4

>  <SlogP_VSA7>
10.05

>  <SlogP_VSA8>
10.9

>  <SlogP_VSA9>
0

>  <SlogP_VSA10>
0

>  <SlogP_VSA11>
5.75

>  <EState_VSA1>
0

>  <EState_VSA2>
10.77

>  <EState_VSA3>
15.93

>  <EState_VSA4>
0

>  <EState_VSA5>
6.07

>  <EState_VSA6>
18.33

>  <EState_VSA7>
0

>  <EState_VSA8>
4.98

>  <EState_VSA9>
23.2

>  <EState_VSA10>
5.11

>  <VSA_EState1>
0

>  <VSA_EState2>
3.98

>  <VSA_EState3>
10.94

>  <VSA_EState4>
0.43

>  <VSA_EState5>
-0.03

>  <VSA_EState6>
5.03

>  <VSA_EState7>
1.58

>  <VSA_EState8>
0

>  <VSA_EState9>
0

>  <apol>
24.63

>  <bpol>
7.18

>  <nRing>
2

>  <nHRing>
1

>  <naRing>
2

>  <naHRing>
1

>  <nARing 2>
0

>  <nAHRing 2>
0

>  <nFRing>
1

>  <nFHRing>
1

>  <nFaRing>
1

>  <nFaHRing>
1

>  <nFARing 2>
0

>  <nFAHRing 2>
0

>  <nRot>
0

>  <SLogP>
3.25

>  <SMR>
53.43

>  <TopoPSA(NO)>
33.12

>  <TopoPSA>
33.12

>  <JGI1>
0.18

>  <JGI2>
0.1

>  <JGI3>
0.06

>  <JGI4>
0.06

>  <JGI5>
0.03

>  <Diameter>
6

>  <Radius>
3

>  <TMWC10>
96.74

>  <TSRW10>
44.83

>  <MW>
212.97

>  <AMW>
11.83

>  <WPath>
218

>  <WPol>
21

>  <Zagreb1>
68

>  <Zagreb2>
81

>  <mZagreb2>
2.86

>  <yes>


>  <nAR-cont>
0.336376

>  <nHA-cont>
0.841215992

>  <MWHBN>
0.20557109

>  <MWHBN-cont>
0.999964117

>  <TPSA-cont>
0.768801834

>  <pka_cont>
0.97

>  <yes.1>


>  <BBB_SCORE>
4.700141835

>  <MMFF94 Energy>
50.116

$$$$
Compound 2882
Actelion Java MolfileCreator 2.0

  0  0  0  0  0  0              0 V3000
M  V30 BEGIN CTAB
M  V30 COUNTS 13 13 0 0 0
M  V30 BEGIN ATOM
M  V30 1 O -1.4742 -0.6981 -1.8625 0
M  V30 2 C -0.6606 -0.3157 -0.8371 0
M  V30 3 C 0.4471 0.4655 -1.1462 0
M  V30 4 C -0.9248 -0.6918 0.4767 0
M  V30 5 C 1.3058 0.8788 -0.128 0
M  V30 6 C -0.064 -0.277 1.4943 0
M  V30 7 C 1.0502 0.5075 1.1924 0
M  V30 8 H -2.1977 -1.2332 -1.4978 0
M  V30 9 H 0.6404 0.7511 -2.1759 0
M  V30 10 H -1.7872 -1.3013 0.726 0
M  V30 11 H 2.1728 1.4895 -0.3647 0
M  V30 12 H -0.2607 -0.5648 2.5239 0
M  V30 13 H 1.7195 0.8297 1.9859 0
M  V30 END ATOM
M  V30 BEGIN BOND
M  V30 1 1 1 2
M  V30 2 2 2 3
M  V30 3 1 2 4
M  V30 4 1 3 5
M  V30 5 2 4 6
M  V30 6 2 5 7
M  V30 7 1 6 7
M  V30 8 1 1 8
M  V30 9 1 3 9
M  V30 10 1 4 10
M  V30 11 1 5 11
M  V30 12 1 6 12
M  V30 13 1 7 13
M  V30 END BOND
M  V30 END CTAB
M  END
>  <Column 1>
3683

>  <level_0>
5953

>  <index>
5954

>  <Unnamed: 0>
5954

>  <NO.>
5966

>  <Name>
phenol

>  <IUPAC_name>
phenol

>  <SMILES>
Oc1ccccc1

>  <CID>
996

>  <logBB>


>  <BBB+/BBB->
BBB-

>  <Inchi>
InChI=1S/C6H6O/c7-6-4-2-1-3-5-6/h1-5-7H

>  <threshold>


>  <reference>
R23|

>  <group>
C

>  <Class>
-1

>  <ABC>
5.06

>  <ABCGG>
4.79

>  <nAcid>
0

>  <nBase>
0

>  <nAromAtom>
6

>  <nAromBond>
6

>  <nAtom>
13

>  <nHeavyAtom>
7

>  <nSpiro>
0

>  <nBridgehead>
0

>  <nHetero>
1

>  <nN>
0

>  <nO>
1

>  <nF>
0

>  <BalabanJ>
2.12

>  <BertzCT>
134.11

>  <nBonds>
13

>  <nBondsO>
7

>  <nBondsS>
7

>  <nBondsD>
0

>  <nBondsT>
0

>  <nBondsA>
6

>  <nBondsM>
6

>  <nBondsKS>
10

>  <nBondsKD>
3

>  <RNCG>
0.7

>  <RPCG>
0.4

>  <FCSP3>
0

>  <SZ>
8.33

>  <Sm>
7.84

>  <Sv>
8.34

>  <Sse>
12.99

>  <Sp>
8.88

>  <Si>
14.46

>  <MZ>
0.64

>  <Mm>
0.6

>  <Mv>
0.64

>  <Mse>
1

>  <Mp>
0.68

>  <Mi>
1.11

>  <NsCH3>
0

>  <NdCH2>
0

>  <NssCH2>
0

>  <NtCH>
0

>  <NdsCH>
0

>  <NaaCH>
5

>  <NsssCH>
0

>  <NddC>
0

>  <NtsC>
0

>  <NdssC>
0

>  <NaasC>
1

>  <NaaaC>
0

>  <NssssC>
0

>  <NsNH3>
0

>  <NsNH2>
0

>  <NssNH2>
0

>  <NdNH>
0

>  <NssNH>
0

>  <NaaNH>
0

>  <NtN>
0

>  <NsssNH>
0

>  <NdsN>
0

>  <NaaN>
0

>  <NsssN>
0

>  <NddsN>
0

>  <NaasN>
0

>  <NssssN>
0

>  <NsOH>
1

>  <NdO>
0

>  <NssO>
0

>  <NaaO>
0

>  <NsF>
0

>  <NsSiH3>
0

>  <NssSiH2>
0

>  <NsssSiH>
0

>  <NssssSi>
0

>  <NsPH2>
0

>  <NssPH>
0

>  <NsssP>
0

>  <NdsssP>
0

>  <NsssssP>
0

>  <NsSH>
0

>  <NdS>
0

>  <NssS>
0

>  <NaaS>
0

>  <NdssS>
0

>  <NddssS>
0

>  <NsCl>
0

>  <NsBr>
0

>  <NsI>
0

>  <fragCpx>
7.01

>  <fMF>
0.46

>  <nHBAcc>
1

>  <nHBDon>
1

>  <Kier1>
5.14

>  <Kier2>
2.34

>  <Lipinski>
1

>  <GhoseFilter>
0

>  <FilterItLogS>
-0.98

>  <VMcGowan>
77.51

>  <LabuteASA>
42.23

>  <PEOE_VSA1>
5.11

>  <PEOE_VSA2>
0

>  <PEOE_VSA3>
0

>  <PEOE_VSA4>
0

>  <PEOE_VSA5>
0

>  <PEOE_VSA6>
18.2

>  <PEOE_VSA7>
12.13

>  <PEOE_VSA8>
0

>  <PEOE_VSA9>
0

>  <PEOE_VSA10>
5.75

>  <PEOE_VSA11>
0

>  <PEOE_VSA12>
0

>  <PEOE_VSA13>
0

>  <SMR_VSA1>
5.11

>  <SMR_VSA2>
0

>  <SMR_VSA3>
0

>  <SMR_VSA4>
0

>  <SMR_VSA5>
0

>  <SMR_VSA6>
0

>  <SMR_VSA7>
30.33

>  <SMR_VSA8>
0

>  <SMR_VSA9>
5.75

>  <SlogP_VSA1>
0

>  <SlogP_VSA2>
5.11

>  <SlogP_VSA3>
0

>  <SlogP_VSA4>
0

>  <SlogP_VSA5>
0

>  <SlogP_VSA6>
30.33

>  <SlogP_VSA7>
0

>  <SlogP_VSA8>
0

>  <SlogP_VSA9>
0

>  <SlogP_VSA10>
0

>  <SlogP_VSA11>
5.75

>  <EState_VSA1>
0

>  <EState_VSA2>
0

>  <EState_VSA3>
5.75

>  <EState_VSA4>
0

>  <EState_VSA5>
0

>  <EState_VSA6>
24.27

>  <EState_VSA7>
6.07

>  <EState_VSA8>
0

>  <EState_VSA9>
5.11

>  <EState_VSA10>
0

>  <VSA_EState1>
0

>  <VSA_EState2>
0

>  <VSA_EState3>
8.63

>  <VSA_EState4>
0

>  <VSA_EState5>
0.32

>  <VSA_EState6>
8.71

>  <VSA_EState7>
0

>  <VSA_EState8>
0

>  <VSA_EState9>
0

>  <apol>
14.82

>  <bpol>
6.02

>  <nRing>
1

>  <nHRing>
0

>  <naRing>
1

>  <naHRing>
0

>  <nARing 2>
0

>  <nAHRing 2>
0

>  <nFRing>
0

>  <nFHRing>
0

>  <nFaRing>
0

>  <nFaHRing>
0

>  <nFARing 2>
0

>  <nFAHRing 2>
0

>  <nRot>
0

>  <SLogP>
1.39

>  <SMR>
28.11

>  <TopoPSA(NO)>
20.23

>  <TopoPSA>
20.23

>  <JGI1>
0.14

>  <JGI2>
0.06

>  <JGI3>
0.04

>  <JGI4>
0.11

>  <JGI5>
0

>  <Diameter>
4

>  <Radius>
3

>  <TMWC10>
71.32

>  <TSRW10>
33.54

>  <MW>
94.04

>  <AMW>
7.23

>  <WPath>
42

>  <WPol>
5

>  <Zagreb1>
30

>  <Zagreb2>
31

>  <mZagreb2>
1.67

>  <yes>


>  <nAR-cont>
0.336376

>  <nHA-cont>
0.357561384

>  <MWHBN>
0.206240373

>  <MWHBN-cont>
0.999918186

>  <TPSA-cont>
0.858782038

>  <pka_cont>
0.97

>  <yes.1>


>  <BBB_SCORE>
4.396378739

>  <MMFF94 Energy>
5.7133

$$$$
Compound 2883
Actelion Java MolfileCreator 2.0

  0  0  0  0  0  0              0 V3000
M  V30 BEGIN CTAB
M  V30 COUNTS 13 13 0 0 0
M  V30 BEGIN ATOM
M  V30 1 S 2.9082 0.2421 -0.1614 0
M  V30 2 C 1.2489 -0.0229 -0.049 0
M  V30 3 N 0.3029 0.9282 -0.3888 0
M  V30 4 C 0.6727 -1.3216 0.4319 0
M  V30 5 O 0.6883 2.1974 -0.8571 0
M  V30 6 C -1.0532 0.7545 -0.3127 0
M  V30 7 C -0.6588 -1.4756 0.5005 0
M  V30 8 C -1.5551 -0.4094 0.1183 0
M  V30 9 H 1.3538 -2.1151 0.7163 0
M  V30 10 H 1.6631 2.1332 -0.8424 0
M  V30 11 H -1.6759 1.5898 -0.6128 0
M  V30 12 H -1.0936 -2.4083 0.8462 0
M  V30 13 H -2.6254 -0.5711 0.1873 0
M  V30 END ATOM
M  V30 BEGIN BOND
M  V30 1 2 1 2
M  V30 2 1 2 3
M  V30 3 1 2 4
M  V30 4 1 3 5
M  V30 5 1 3 6
M  V30 6 2 4 7
M  V30 7 2 6 8
M  V30 8 1 7 8
M  V30 9 1 4 9
M  V30 10 1 5 10
M  V30 11 1 6 11
M  V30 12 1 7 12
M  V30 13 1 8 13
M  V30 END BOND
M  V30 END CTAB
M  END
>  <Column 1>
3684

>  <level_0>
5954

>  <index>
5955

>  <Unnamed: 0>
5955

>  <NO.>
5967

>  <Name>
pyrithione

>  <IUPAC_name>
1-hydroxypyridine-2-thione

>  <SMILES>
On1ccccc1=S

>  <CID>
1570

>  <logBB>


>  <BBB+/BBB->
BBB-

>  <Inchi>
InChI=1S/C5H5NOS/c7-6-4-2-1-3-5(6)8/h1-4-7H

>  <threshold>


>  <reference>
R23|

>  <group>
C

>  <Class>
-1

>  <ABC>
5.84

>  <ABCGG>
5.61

>  <nAcid>
0

>  <nBase>
0

>  <nAromAtom>
6

>  <nAromBond>
6

>  <nAtom>
13

>  <nHeavyAtom>
8

>  <nSpiro>
0

>  <nBridgehead>
0

>  <nHetero>
3

>  <nN>
1

>  <nO>
1

>  <nF>
0

>  <BalabanJ>
2.28

>  <BertzCT>
229.87

>  <nBonds>
13

>  <nBondsO>
8

>  <nBondsS>
6

>  <nBondsD>
1

>  <nBondsT>
0

>  <nBondsA>
6

>  <nBondsM>
7

>  <nBondsKS>
10

>  <nBondsKD>
3

>  <RNCG>
0.54

>  <RPCG>
0.41

>  <FCSP3>
0

>  <SZ>
11

>  <Sm>
10.59

>  <Sv>
9.01

>  <Sse>
13.29

>  <Sp>
9.87

>  <Si>
14.46

>  <MZ>
0.85

>  <Mm>
0.81

>  <Mv>
0.69

>  <Mse>
1.02

>  <Mp>
0.76

>  <Mi>
1.11

>  <NsCH3>
0

>  <NdCH2>
0

>  <NssCH2>
0

>  <NtCH>
0

>  <NdsCH>
0

>  <NaaCH>
4

>  <NsssCH>
0

>  <NddC>
0

>  <NtsC>
0

>  <NdssC>
0

>  <NaasC>
0

>  <NaaaC>
0

>  <NssssC>
0

>  <NsNH3>
0

>  <NsNH2>
0

>  <NssNH2>
0

>  <NdNH>
0

>  <NssNH>
0

>  <NaaNH>
0

>  <NtN>
0

>  <NsssNH>
0

>  <NdsN>
0

>  <NaaN>
0

>  <NsssN>
0

>  <NddsN>
0

>  <NaasN>
1

>  <NssssN>
0

>  <NsOH>
1

>  <NdO>
0

>  <NssO>
0

>  <NaaO>
0

>  <NsF>
0

>  <NsSiH3>
0

>  <NssSiH2>
0

>  <NsssSiH>
0

>  <NssssSi>
0

>  <NsPH2>
0

>  <NssPH>
0

>  <NsssP>
0

>  <NdsssP>
0

>  <NsssssP>
0

>  <NsSH>
0

>  <NdS>
1

>  <NssS>
0

>  <NaaS>
0

>  <NdssS>
0

>  <NddssS>
0

>  <NsCl>
0

>  <NsBr>
0

>  <NsI>
0

>  <fragCpx>
8.03

>  <fMF>
0.46

>  <nHBAcc>
3

>  <nHBDon>
1

>  <Kier1>
6.13

>  <Kier2>
2.52

>  <Lipinski>
1

>  <GhoseFilter>
0

>  <FilterItLogS>
-0.09

>  <VMcGowan>
89.75

>  <LabuteASA>
51.97

>  <PEOE_VSA1>
5.21

>  <PEOE_VSA2>
0

>  <PEOE_VSA3>
0

>  <PEOE_VSA4>
4.73

>  <PEOE_VSA5>
0

>  <PEOE_VSA6>
18.28

>  <PEOE_VSA7>
12.13

>  <PEOE_VSA8>
6.2

>  <PEOE_VSA9>
0

>  <PEOE_VSA10>
4.64

>  <PEOE_VSA11>
0

>  <PEOE_VSA12>
0

>  <PEOE_VSA13>
0

>  <SMR_VSA1>
5.21

>  <SMR_VSA2>
0

>  <SMR_VSA3>
4.73

>  <SMR_VSA4>
0

>  <SMR_VSA5>
0

>  <SMR_VSA6>
0

>  <SMR_VSA7>
29.04

>  <SMR_VSA8>
0

>  <SMR_VSA9>
0

>  <SlogP_VSA1>
0

>  <SlogP_VSA2>
9.94

>  <SlogP_VSA3>
0

>  <SlogP_VSA4>
4.64

>  <SlogP_VSA5>
0

>  <SlogP_VSA6>
24.4

>  <SlogP_VSA7>
0

>  <SlogP_VSA8>
0

>  <SlogP_VSA9>
0

>  <SlogP_VSA10>
0

>  <SlogP_VSA11>
0

>  <EState_VSA1>
0

>  <EState_VSA2>
0

>  <EState_VSA3>
4.64

>  <EState_VSA4>
4.73

>  <EState_VSA5>
6.2

>  <EState_VSA6>
18.2

>  <EState_VSA7>
0

>  <EState_VSA8>
12.22

>  <EState_VSA9>
5.21

>  <EState_VSA10>
0

>  <VSA_EState1>
1.32

>  <VSA_EState2>
0

>  <VSA_EState3>
8.73

>  <VSA_EState4>
0

>  <VSA_EState5>
0

>  <VSA_EState6>
5.13

>  <VSA_EState7>
1.49

>  <VSA_EState8>
0

>  <VSA_EState9>
0

>  <apol>
16.49

>  <bpol>
6.82

>  <nRing>
1

>  <nHRing>
1

>  <naRing>
1

>  <naHRing>
1

>  <nARing 2>
0

>  <nAHRing 2>
0

>  <nFRing>
0

>  <nFHRing>
0

>  <nFaRing>
0

>  <nFaHRing>
0

>  <nFARing 2>
0

>  <nFAHRing 2>
0

>  <nRot>
0

>  <SLogP>
1.45

>  <SMR>
32.45

>  <TopoPSA(NO)>
25.16

>  <TopoPSA>
57.25

>  <JGI1>
0.19

>  <JGI2>
0.11

>  <JGI3>
0.05

>  <JGI4>
0.11

>  <JGI5>
0

>  <Diameter>
4

>  <Radius>
3

>  <TMWC10>
76.5

>  <TSRW10>
35.91

>  <MW>
127.01

>  <AMW>
9.77

>  <WPath>
60

>  <WPol>
8

>  <Zagreb1>
36

>  <Zagreb2>
39

>  <mZagreb2>
1.86

>  <yes>


>  <nAR-cont>
0.336376

>  <nHA-cont>
0.464727961

>  <MWHBN>
0.35492863

>  <MWHBN-cont>
0.651710664

>  <TPSA-cont>
0.60035945

>  <pka_cont>
0.97

>  <yes.1>


>  <BBB_SCORE>
3.464388857

>  <MMFF94 Energy>
31.203

$$$$
Compound 2884
Actelion Java MolfileCreator 2.0

  0  0  0  0  0  0              0 V3000
M  V30 BEGIN CTAB
M  V30 COUNTS 90 92 0 0 0
M  V30 BEGIN ATOM
M  V30 1 N 1.1739 -2.0354 1.8004 0
M  V30 2 C 1.9946 -2.798 0.8114 0
M  V30 3 C 1.2212 -2.7147 3.1099 0
M  V30 4 C 1.6624 -0.6441 1.8976 0
M  V30 5 C 1.5499 -4.2541 0.4873 0
M  V30 6 C 0.6291 -2.0134 4.3442 0
M  V30 7 C 1.4885 0.1633 0.6252 0
M  V30 8 N 1.9843 -5.3458 1.3707 0
M  V30 9 C 0.6675 -2.9601 5.5572 0
M  V30 10 C 2.5859 0.7934 0.0228 0
M  V30 11 C 0.2206 0.3138 0.0466 0
M  V30 12 C 3.4225 -5.6085 1.385 0
M  V30 13 N 2.0543 -3.2793 5.8991 0
M  V30 14 C 2.4203 1.5522 -1.1394 0
M  V30 15 C 0.0555 1.0708 -1.1144 0
M  V30 16 C 4.137 -5.1485 2.6665 0
M  V30 17 C 2.2316 -4.5912 6.531 0
M  V30 18 C 1.1523 1.7048 -1.716 0
M  V30 19 C 3.7136 -5.8239 3.9846 0
M  V30 20 C 1.9127 -5.8369 5.6541 0
M  V30 21 C 0.9759 2.5047 -2.9929 0
M  V30 22 N 2.2731 -5.7461 4.2319 0
M  V30 23 N -0.1177 3.4947 -2.9228 0
M  V30 24 C 0.2518 4.5909 -1.9894 0
M  V30 25 C -0.4806 4.0148 -4.2544 0
M  V30 26 C -0.7806 5.7183 -1.6999 0
M  V30 27 C -0.9242 2.9994 -5.3271 0
M  V30 28 N -2.0263 5.3371 -1.0128 0
M  V30 29 C -1.972 1.9526 -4.9229 0
M  V30 30 C -2.9614 4.6919 -1.9394 0
M  V30 31 N -3.2413 2.4301 -4.3843 0
M  V30 32 C -4.3745 4.601 -1.3634 0
M  V30 33 C -4.0273 3.2622 -5.2945 0
M  V30 34 C -5.3037 3.8246 -2.3064 0
M  V30 35 C -5.4439 3.599 -4.7474 0
M  V30 36 N -5.4561 4.5089 -3.5951 0
M  V30 37 H 1.9326 -2.2743 -0.1505 0
M  V30 38 H 3.0552 -2.7805 1.0903 0
M  V30 39 H 0.648 -3.6398 3.0067 0
M  V30 40 H 2.2613 -2.9611 3.3369 0
M  V30 41 H 1.0945 -0.0924 2.6562 0
M  V30 42 H 2.7123 -0.6296 2.2193 0
M  V30 43 H 0.4539 -4.2784 0.4405 0
M  V30 44 H 1.8828 -4.4943 -0.5308 0
M  V30 45 H 1.1858 -1.1007 4.5852 0
M  V30 46 H -0.4098 -1.7255 4.1449 0
M  V30 47 H 1.6943 -5.1383 2.3297 0
M  V30 48 H 0.0827 -3.8546 5.3173 0
M  V30 49 H 0.181 -2.4833 6.4159 0
M  V30 50 H 3.5794 0.6948 0.4536 0
M  V30 51 H -0.6428 -0.1688 0.4998 0
M  V30 52 H 3.5602 -6.692 1.2904 0
M  V30 53 H 3.9171 -5.1628 0.5136 0
M  V30 54 H 2.4331 -2.5498 6.5005 0
M  V30 55 H 3.2893 2.0258 -1.5896 0
M  V30 56 H -0.9371 1.177 -1.5485 0
M  V30 57 H 4.0426 -4.0631 2.7713 0
M  V30 58 H 5.2106 -5.3359 2.5333 0
M  V30 59 H 3.2849 -4.6581 6.8288 0
M  V30 60 H 1.6482 -4.6424 7.4585 0
M  V30 61 H 4.2783 -5.3389 4.7892 0
M  V30 62 H 4.0205 -6.8765 3.9733 0
M  V30 63 H 2.3659 -6.7281 6.1053 0
M  V30 64 H 0.8285 -5.9982 5.6942 0
M  V30 65 H 0.7845 1.7565 -3.7697 0
M  V30 66 H 1.9163 2.9989 -3.2708 0
M  V30 67 H 1.8263 -6.5208 3.7352 0
M  V30 68 H 1.1672 5.0778 -2.3537 0
M  V30 69 H 0.5047 4.1609 -1.0121 0
M  V30 70 H 0.3635 4.5849 -4.6659 0
M  V30 71 H -1.3017 4.7291 -4.1602 0
M  V30 72 H -0.2779 6.4303 -1.0324 0
M  V30 73 H -0.9963 6.2954 -2.6068 0
M  V30 74 H -0.04 2.4657 -5.6981 0
M  V30 75 H -1.2977 3.5638 -6.1914 0
M  V30 76 H -1.8014 4.6676 -0.2768 0
M  V30 77 H -1.5295 1.2909 -4.1701 0
M  V30 78 H -2.1736 1.3128 -5.7915 0
M  V30 79 H -2.6081 3.6811 -2.1522 0
M  V30 80 H -3.0099 5.263 -2.8721 0
M  V30 81 H -3.7991 1.6325 -4.0851 0
M  V30 82 H -4.3498 4.0874 -0.3943 0
M  V30 83 H -4.7753 5.6065 -1.183 0
M  V30 84 H -4.1566 2.7383 -6.2494 0
M  V30 85 H -3.501 4.201 -5.5012 0
M  V30 86 H -6.292 3.7318 -1.8398 0
M  V30 87 H -4.9274 2.8018 -2.4117 0
M  V30 88 H -5.9782 4.1064 -5.5607 0
M  V30 89 H -6.0133 2.6845 -4.5393 0
M  V30 90 H -6.3302 5.0326 -3.5806 0
M  V30 END ATOM
M  V30 BEGIN BOND
M  V30 1 1 1 2
M  V30 2 1 1 3
M  V30 3 1 1 4
M  V30 4 1 2 5
M  V30 5 1 3 6
M  V30 6 1 4 7
M  V30 7 1 5 8
M  V30 8 1 6 9
M  V30 9 2 7 10
M  V30 10 1 7 11
M  V30 11 1 8 12
M  V30 12 1 9 13
M  V30 13 1 10 14
M  V30 14 2 11 15
M  V30 15 1 12 16
M  V30 16 1 13 17
M  V30 17 2 14 18
M  V30 18 1 16 19
M  V30 19 1 17 20
M  V30 20 1 18 21
M  V30 21 1 19 22
M  V30 22 1 21 23
M  V30 23 1 23 24
M  V30 24 1 23 25
M  V30 25 1 24 26
M  V30 26 1 25 27
M  V30 27 1 26 28
M  V30 28 1 27 29
M  V30 29 1 28 30
M  V30 30 1 29 31
M  V30 31 1 30 32
M  V30 32 1 31 33
M  V30 33 1 32 34
M  V30 34 1 33 35
M  V30 35 1 34 36
M  V30 36 1 15 18
M  V30 37 1 20 22
M  V30 38 1 35 36
M  V30 39 1 2 37
M  V30 40 1 2 38
M  V30 41 1 3 39
M  V30 42 1 3 40
M  V30 43 1 4 41
M  V30 44 1 4 42
M  V30 45 1 5 43
M  V30 46 1 5 44
M  V30 47 1 6 45
M  V30 48 1 6 46
M  V30 49 1 8 47
M  V30 50 1 9 48
M  V30 51 1 9 49
M  V30 52 1 10 50
M  V30 53 1 11 51
M  V30 54 1 12 52
M  V30 55 1 12 53
M  V30 56 1 13 54
M  V30 57 1 14 55
M  V30 58 1 15 56
M  V30 59 1 16 57
M  V30 60 1 16 58
M  V30 61 1 17 59
M  V30 62 1 17 60
M  V30 63 1 19 61
M  V30 64 1 19 62
M  V30 65 1 20 63
M  V30 66 1 20 64
M  V30 67 1 21 65
M  V30 68 1 21 66
M  V30 69 1 22 67
M  V30 70 1 24 68
M  V30 71 1 24 69
M  V30 72 1 25 70
M  V30 73 1 25 71
M  V30 74 1 26 72
M  V30 75 1 26 73
M  V30 76 1 27 74
M  V30 77 1 27 75
M  V30 78 1 28 76
M  V30 79 1 29 77
M  V30 80 1 29 78
M  V30 81 1 30 79
M  V30 82 1 30 80
M  V30 83 1 31 81
M  V30 84 1 32 82
M  V30 85 1 32 83
M  V30 86 1 33 84
M  V30 87 1 33 85
M  V30 88 1 34 86
M  V30 89 1 34 87
M  V30 90 1 35 88
M  V30 91 1 35 89
M  V30 92 1 36 90
M  V30 END BOND
M  V30 END CTAB
M  END
>  <Column 1>
3685

>  <level_0>
5955

>  <index>
5956

>  <Unnamed: 0>
5956

>  <NO.>
5968

>  <Name>
plerixafor

>  <IUPAC_name>
1-[[4-(1-4-8-11-tetrazacyclotetradec-1-ylmethyl)phenyl]methyl]-1-4-8-11-tetrazacyclotetradecane

>  <SMILES>
c1cc(CN2CCCNCCNCCCNCC2)ccc1CN1CCCNCCNCCCNCC1

>  <CID>
65015

>  <logBB>


>  <BBB+/BBB->
BBB-

>  <Inchi>
InChI=1S/C28H54N8/c1-9-29-15-17-31-13-3-21-35(23-19-33-11-1)25-27-5-7-28(8-6-27)26-36-22-4-14-32-18-16-30-10-2-12-34-20-24-36/h5-8-29-34H-1-4-9-26H2

>  <threshold>


>  <reference>
R23|

>  <group>
C

>  <Class>
-1

>  <ABC>
26.87

>  <ABCGG>
14.72

>  <nAcid>
0

>  <nBase>
8

>  <nAromAtom>
6

>  <nAromBond>
6

>  <nAtom>
90

>  <nHeavyAtom>
36

>  <nSpiro>
0

>  <nBridgehead>
0

>  <nHetero>
8

>  <nN>
8

>  <nO>
0

>  <nF>
0

>  <BalabanJ>
1.35

>  <BertzCT>
557.94

>  <nBonds>
92

>  <nBondsO>
38

>  <nBondsS>
86

>  <nBondsD>
0

>  <nBondsT>
0

>  <nBondsA>
6

>  <nBondsM>
6

>  <nBondsKS>
89

>  <nBondsKD>
3

>  <RNCG>
0.11

>  <RPCG>
0.04

>  <FCSP3>
0.79

>  <SZ>
46.33

>  <Sm>
41.86

>  <Sv>
48.69

>  <Sse>
88.28

>  <Sp>
54.83

>  <Si>
103.54

>  <MZ>
0.51

>  <Mm>
0.47

>  <Mv>
0.54

>  <Mse>
0.98

>  <Mp>
0.61

>  <Mi>
1.15

>  <NsCH3>
0

>  <NdCH2>
0

>  <NssCH2>
22

>  <NtCH>
0

>  <NdsCH>
0

>  <NaaCH>
4

>  <NsssCH>
0

>  <NddC>
0

>  <NtsC>
0

>  <NdssC>
0

>  <NaasC>
2

>  <NaaaC>
0

>  <NssssC>
0

>  <NsNH3>
0

>  <NsNH2>
0

>  <NssNH2>
0

>  <NdNH>
0

>  <NssNH>
6

>  <NaaNH>
0

>  <NtN>
0

>  <NsssNH>
0

>  <NdsN>
0

>  <NaaN>
0

>  <NsssN>
2

>  <NddsN>
0

>  <NaasN>
0

>  <NssssN>
0

>  <NsOH>
0

>  <NdO>
0

>  <NssO>
0

>  <NaaO>
0

>  <NsF>
0

>  <NsSiH3>
0

>  <NssSiH2>
0

>  <NsssSiH>
0

>  <NssssSi>
0

>  <NsPH2>
0

>  <NssPH>
0

>  <NsssP>
0

>  <NdsssP>
0

>  <NsssssP>
0

>  <NsSH>
0

>  <NdS>
0

>  <NssS>
0

>  <NaaS>
0

>  <NdssS>
0

>  <NddssS>
0

>  <NsCl>
0

>  <NsBr>
0

>  <NsI>
0

>  <fragCpx>
184.08

>  <fMF>
0.4

>  <nHBAcc>
8

>  <nHBDon>
6

>  <Kier1>
30.54

>  <Kier2>
20.9

>  <Lipinski>
0

>  <GhoseFilter>
0

>  <FilterItLogS>
-6.97

>  <VMcGowan>
439.74

>  <LabuteASA>
220.27

>  <PEOE_VSA1>
31.9

>  <PEOE_VSA2>
9.8

>  <PEOE_VSA3>
0

>  <PEOE_VSA4>
0

>  <PEOE_VSA5>
0

>  <PEOE_VSA6>
24.27

>  <PEOE_VSA7>
89.17

>  <PEOE_VSA8>
65.45

>  <PEOE_VSA9>
0

>  <PEOE_VSA10>
0

>  <PEOE_VSA11>
0

>  <PEOE_VSA12>
0

>  <PEOE_VSA13>
0

>  <SMR_VSA1>
0

>  <SMR_VSA2>
0

>  <SMR_VSA3>
41.7

>  <SMR_VSA4>
0

>  <SMR_VSA5>
38.77

>  <SMR_VSA6>
104.72

>  <SMR_VSA7>
35.39

>  <SMR_VSA8>
0

>  <SMR_VSA9>
0

>  <SlogP_VSA1>
31.9

>  <SlogP_VSA2>
114.52

>  <SlogP_VSA3>
13.09

>  <SlogP_VSA4>
0

>  <SlogP_VSA5>
36.81

>  <SlogP_VSA6>
24.27

>  <SlogP_VSA7>
0

>  <SlogP_VSA8>
0

>  <SlogP_VSA9>
0

>  <SlogP_VSA10>
0

>  <SlogP_VSA11>
0

>  <EState_VSA1>
0

>  <EState_VSA2>
0

>  <EState_VSA3>
0

>  <EState_VSA4>
117.81

>  <EState_VSA5>
36.81

>  <EState_VSA6>
0

>  <EState_VSA7>
0

>  <EState_VSA8>
65.97

>  <EState_VSA9>
0

>  <EState_VSA10>
0

>  <VSA_EState1>
0

>  <VSA_EState2>
5.23

>  <VSA_EState3>
21.42

>  <VSA_EState4>
2.86

>  <VSA_EState5>
0

>  <VSA_EState6>
9.42

>  <VSA_EState7>
4.8

>  <VSA_EState8>
19.61

>  <VSA_EState9>
0

>  <apol>
91.57

>  <bpol>
61.01

>  <nRing>
3

>  <nHRing>
2

>  <naRing>
1

>  <naHRing>
0

>  <nARing 2>
2

>  <nAHRing 2>
2

>  <nFRing>
0

>  <nFHRing>
0

>  <nFaRing>
0

>  <nFaHRing>
0

>  <nFARing 2>
0

>  <nFAHRing 2>
0

>  <nRot>
4

>  <SLogP>
0.42

>  <SMR>
152.68

>  <TopoPSA(NO)>
78.66

>  <TopoPSA>
78.66

>  <JGI1>
0.08

>  <JGI2>
0.02

>  <JGI3>
0.02

>  <JGI4>
0.01

>  <JGI5>
0.01

>  <Diameter>
21

>  <Radius>
11

>  <TMWC10>
148

>  <TSRW10>
70.8

>  <MW>
502.45

>  <AMW>
5.58

>  <WPath>
5060

>  <WPol>
47

>  <Zagreb1>
164

>  <Zagreb2>
176

>  <mZagreb2>
8.5

>  <yes>


>  <nAR-cont>
1

>  <nHA-cont>
0.477843619

>  <MWHBN>
0.624570705

>  <MWHBN-cont>
0

>  <TPSA-cont>
0.450904355

>  <pka_cont>
0.97

>  <yes.1>


>  <BBB_SCORE>
2.864652329

>  <MMFF94 Energy>
149.52

$$$$
Compound 2885
Actelion Java MolfileCreator 2.0

  0  0  0  0  0  0              0 V3000
M  V30 BEGIN CTAB
M  V30 COUNTS 40 43 0 0 0
M  V30 BEGIN ATOM
M  V30 1 N 1.7582 1.1985 0.2396 0
M  V30 2 C 0.6703 0.2763 -0.1977 0 CFG=1
M  V30 3 C 1.5421 1.7537 1.59 0
M  V30 4 C 0.392 -0.7135 0.906 0
M  V30 5 C -0.6238 1.0079 -0.6371 0
M  V30 6 C 1.5298 0.6761 2.7004 0
M  V30 7 C 0.7624 -0.5032 2.2226 0
M  V30 8 C -0.2513 -1.98 0.8691 0
M  V30 9 C -0.4304 1.9697 -1.7889 0
M  V30 10 N 0.3696 -1.5674 2.9839 0
M  V30 11 C -0.2506 -2.4694 2.1645 0
M  V30 12 C -0.8391 -2.7418 -0.2778 0
M  V30 13 C -0.5093 3.3534 -1.5795 0
M  V30 14 C -0.1622 1.4918 -3.0788 0
M  V30 15 C -0.8178 -3.7805 2.5882 0
M  V30 16 C -1.4122 -4.0815 0.1535 0
M  V30 17 C -0.3189 4.2411 -2.6393 0
M  V30 18 C 0.0279 2.3815 -4.137 0
M  V30 19 C -1.4065 -4.5461 1.4206 0
M  V30 20 C -0.0496 3.7553 -3.9171 0
M  V30 21 H 1.8181 1.96 -0.4351 0
M  V30 22 H 1.0675 -0.2825 -1.0545 0
M  V30 23 H 2.3421 2.47 1.8091 0
M  V30 24 H 0.6051 2.3234 1.6134 0
M  V30 25 H -1.0745 1.5346 0.2144 0
M  V30 26 H -1.3804 0.2734 -0.9436 0
M  V30 27 H 1.0914 1.0875 3.6158 0
M  V30 28 H 2.5579 0.3673 2.9236 0
M  V30 29 H 0.5328 -1.6799 3.976 0
M  V30 30 H -1.6388 -2.1521 -0.7391 0
M  V30 31 H -0.0661 -2.9144 -1.035 0
M  V30 32 H -0.7188 3.7491 -0.5882 0
M  V30 33 H -0.0994 0.4226 -3.2681 0
M  V30 34 H -0.0327 -4.3895 3.0504 0
M  V30 35 H -1.6021 -3.6179 3.3362 0
M  V30 36 H -1.8516 -4.6891 -0.6327 0
M  V30 37 H -0.3818 5.3125 -2.468 0
M  V30 38 H 0.2367 2.0021 -5.1338 0
M  V30 39 H -1.839 -5.5179 1.6397 0
M  V30 40 H 0.0981 4.447 -4.742 0
M  V30 END ATOM
M  V30 BEGIN BOND
M  V30 1 1 1 2
M  V30 2 1 1 3
M  V30 3 1 2 4
M  V30 4 1 2 5
M  V30 5 1 3 6
M  V30 6 2 4 7
M  V30 7 1 4 8
M  V30 8 1 5 9
M  V30 9 1 7 10
M  V30 10 2 8 11
M  V30 11 1 8 12
M  V30 12 2 9 13
M  V30 13 1 9 14
M  V30 14 1 11 15
M  V30 15 1 12 16
M  V30 16 1 13 17
M  V30 17 2 14 18
M  V30 18 1 15 19
M  V30 19 2 17 20
M  V30 20 1 6 7
M  V30 21 1 10 11
M  V30 22 2 16 19
M  V30 23 1 18 20
M  V30 24 1 1 21
M  V30 25 1 2 22
M  V30 26 1 3 23
M  V30 27 1 3 24
M  V30 28 1 5 25
M  V30 29 1 5 26
M  V30 30 1 6 27
M  V30 31 1 6 28
M  V30 32 1 10 29
M  V30 33 1 12 30
M  V30 34 1 12 31
M  V30 35 1 13 32
M  V30 36 1 14 33
M  V30 37 1 15 34
M  V30 38 1 15 35
M  V30 39 1 16 36
M  V30 40 1 17 37
M  V30 41 1 18 38
M  V30 42 1 19 39
M  V30 43 1 20 40
M  V30 END BOND
M  V30 BEGIN COLLECTION
M  V30 MDLV30/STEABS ATOMS=(1 2)
M  V30 END COLLECTION
M  V30 END CTAB
M  END
>  <Column 1>
3688

>  <level_0>
5967

>  <index>
5968

>  <Unnamed: 0>
5968

>  <NO.>
5980

>  <Name>


>  <IUPAC_name>


>  <SMILES>
C1=CCc2c([nH]c3c2[C@@H](Cc2ccccc2)NCC3)C1

>  <CID>


>  <logBB>


>  <BBB+/BBB->
BBB+

>  <Inchi>
InChI=1S/C18H20N2/c1-2-6-13(7-3-1)12-17-18-14-8-4-5-9-15(14)20-16(18)10-11-19-17/h1-7-17-19-20H-8-12H2/t17-/m1/s1

>  <threshold>


>  <reference>
R24|

>  <group>
C

>  <Class>
1

>  <ABC>
16.1

>  <ABCGG>
12.61

>  <nAcid>
0

>  <nBase>
1

>  <nAromAtom>
11

>  <nAromBond>
11

>  <nAtom>
40

>  <nHeavyAtom>
20

>  <nSpiro>
0

>  <nBridgehead>
0

>  <nHetero>
2

>  <nN>
2

>  <nO>
0

>  <nF>
0

>  <BalabanJ>
1.45

>  <BertzCT>
636.94

>  <nBonds>
43

>  <nBondsO>
23

>  <nBondsS>
31

>  <nBondsD>
1

>  <nBondsT>
0

>  <nBondsA>
11

>  <nBondsM>
12

>  <nBondsKS>
37

>  <nBondsKD>
6

>  <RNCG>
0.29

>  <RPCG>
0.14

>  <FCSP3>
0.33

>  <SZ>
23.67

>  <Sm>
22.01

>  <Sv>
24.93

>  <Sse>
39.2

>  <Sp>
27.3

>  <Si>
44.73

>  <MZ>
0.59

>  <Mm>
0.55

>  <Mv>
0.62

>  <Mse>
0.98

>  <Mp>
0.68

>  <Mi>
1.12

>  <NsCH3>
0

>  <NdCH2>
0

>  <NssCH2>
5

>  <NtCH>
0

>  <NdsCH>
2

>  <NaaCH>
5

>  <NsssCH>
1

>  <NddC>
0

>  <NtsC>
0

>  <NdssC>
0

>  <NaasC>
5

>  <NaaaC>
0

>  <NssssC>
0

>  <NsNH3>
0

>  <NsNH2>
0

>  <NssNH2>
0

>  <NdNH>
0

>  <NssNH>
1

>  <NaaNH>
1

>  <NtN>
0

>  <NsssNH>
0

>  <NdsN>
0

>  <NaaN>
0

>  <NsssN>
0

>  <NddsN>
0

>  <NaasN>
0

>  <NssssN>
0

>  <NsOH>
0

>  <NdO>
0

>  <NssO>
0

>  <NaaO>
0

>  <NsF>
0

>  <NsSiH3>
0

>  <NssSiH2>
0

>  <NsssSiH>
0

>  <NssssSi>
0

>  <NsPH2>
0

>  <NssPH>
0

>  <NsssP>
0

>  <NdsssP>
0

>  <NsssssP>
0

>  <NsSH>
0

>  <NdS>
0

>  <NssS>
0

>  <NaaS>
0

>  <NdssS>
0

>  <NddssS>
0

>  <NsCl>
0

>  <NsBr>
0

>  <NsI>
0

>  <fragCpx>
149.02

>  <fMF>
0.5

>  <nHBAcc>
1

>  <nHBDon>
2

>  <Kier1>
13.65

>  <Kier2>
6.01

>  <Lipinski>
1

>  <GhoseFilter>
1

>  <FilterItLogS>
-5.07

>  <VMcGowan>
215.2

>  <LabuteASA>
119.47

>  <PEOE_VSA1>
10.3

>  <PEOE_VSA2>
0

>  <PEOE_VSA3>
0

>  <PEOE_VSA4>
0

>  <PEOE_VSA5>
0

>  <PEOE_VSA6>
42.48

>  <PEOE_VSA7>
29.53

>  <PEOE_VSA8>
36.82

>  <PEOE_VSA9>
0

>  <PEOE_VSA10>
0

>  <PEOE_VSA11>
0

>  <PEOE_VSA12>
0

>  <PEOE_VSA13>
0

>  <SMR_VSA1>
0

>  <SMR_VSA2>
0

>  <SMR_VSA3>
10.3

>  <SMR_VSA4>
0

>  <SMR_VSA5>
31.73

>  <SMR_VSA6>
6.54

>  <SMR_VSA7>
70.56

>  <SMR_VSA8>
0

>  <SMR_VSA9>
0

>  <SlogP_VSA1>
5.32

>  <SlogP_VSA2>
11.53

>  <SlogP_VSA3>
25.68

>  <SlogP_VSA4>
0

>  <SlogP_VSA5>
34.12

>  <SlogP_VSA6>
42.48

>  <SlogP_VSA7>
0

>  <SlogP_VSA8>
0

>  <SlogP_VSA9>
0

>  <SlogP_VSA10>
0

>  <SlogP_VSA11>
0

>  <EState_VSA1>
0

>  <EState_VSA2>
0

>  <EState_VSA3>
6.04

>  <EState_VSA4>
32.23

>  <EState_VSA5>
16.95

>  <EState_VSA6>
11.13

>  <EState_VSA7>
0

>  <EState_VSA8>
52.78

>  <EState_VSA9>
0

>  <EState_VSA10>
0

>  <VSA_EState1>
0

>  <VSA_EState2>
3.68

>  <VSA_EState3>
3.72

>  <VSA_EState4>
7.44

>  <VSA_EState5>
0

>  <VSA_EState6>
11.28

>  <VSA_EState7>
8.97

>  <VSA_EState8>
1.08

>  <VSA_EState9>
0

>  <apol>
45.6

>  <bpol>
21.2

>  <nRing>
4

>  <nHRing>
2

>  <naRing>
2

>  <naHRing>
1

>  <nARing 2>
2

>  <nAHRing 2>
1

>  <nFRing>
1

>  <nFHRing>
1

>  <nFaRing>
0

>  <nFaHRing>
0

>  <nFARing 2>
1

>  <nFAHRing 2>
1

>  <nRot>
2

>  <SLogP>
3.1

>  <SMR>
81.93

>  <TopoPSA(NO)>
27.82

>  <TopoPSA>
27.82

>  <JGI1>
0.11

>  <JGI2>
0.05

>  <JGI3>
0.05

>  <JGI4>
0.03

>  <JGI5>
0.01

>  <Diameter>
10

>  <Radius>
5

>  <TMWC10>
117.54

>  <TSRW10>
68.35

>  <MW>
264.16

>  <AMW>
6.6

>  <WPath>
778

>  <WPol>
31

>  <Zagreb1>
110

>  <Zagreb2>
132

>  <mZagreb2>
4.36

>  <yes>


>  <nAR-cont>
1

>  <nHA-cont>
0.999629945

>  <MWHBN>
0.184581311

>  <MWHBN-cont>
0.991620104

>  <TPSA-cont>
0.805799125

>  <pka_cont>
0.97

>  <yes.1>


>  <BBB_SCORE>
5.58365835

>  <MMFF94 Energy>
86.762

$$$$
Compound 2886
Actelion Java MolfileCreator 2.0

  0  0  0  0  0  0              0 V3000
M  V30 BEGIN CTAB
M  V30 COUNTS 76 80 0 0 0
M  V30 BEGIN ATOM
M  V30 1 O 0.4832 6.2152 -3.225 0
M  V30 2 C 0.1927 5.1499 -2.6876 0
M  V30 3 C 0.1552 3.9122 -3.495 0
M  V30 4 C -0.2224 5.0558 -1.2472 0
M  V30 5 C -0.1003 2.7125 -2.9431 0
M  V30 6 C 0.2198 3.7256 -0.6528 0
M  V30 7 C -0.2739 2.4697 -1.4362 0 CFG=2
M  V30 8 C -0.2545 1.5145 -3.8388 0
M  V30 9 C 0.5718 1.1886 -0.988 0 CFG=1
M  V30 10 C -1.7849 2.2825 -1.1607 0
M  V30 11 C 0.66 0.3865 -3.3939 0
M  V30 12 C 0.3389 0.7721 0.4871 0 CFG=2
M  V30 13 C 0.3716 -0.0417 -1.9411 0 CFG=1
M  V30 14 O 0.7585 1.7941 1.3855 0
M  V30 15 C 1.0721 -0.5043 0.8998 0
M  V30 16 C 1.1994 -1.3033 -1.4689 0 CFG=2
M  V30 17 C 0.7457 -1.7308 0.0017 0 CFG=2
M  V30 18 O 2.5974 -0.9112 -1.4285 0
M  V30 19 C 1.2209 -2.4538 -2.4801 0
M  V30 20 C -0.7383 -2.1554 0.1803 0
M  V30 21 C 1.6195 -2.9063 0.5192 0
M  V30 22 C 3.2188 -1.3962 -2.6202 0 CFG=2
M  V30 23 O 2.284 -2.1537 -3.3818 0
M  V30 24 C -1.3065 -2.1676 1.5845 0
M  V30 25 C -1.6064 -2.5631 -0.7625 0
M  V30 26 C 4.4168 -2.2513 -2.328 0
M  V30 27 O -0.6746 -2.6996 2.4956 0
M  V30 28 C -2.6553 -1.4866 1.8142 0
M  V30 29 C 5.0792 -2.3401 -1.1623 0
M  V30 30 O -2.7548 -1.0676 3.1752 0
M  V30 31 C 6.2722 -3.2111 -0.9419 0
M  V30 32 C -3.8977 -0.405 3.4643 0
M  V30 33 O -4.7942 -0.1588 2.6733 0
M  V30 34 C -3.9227 -0.0059 4.8942 0
M  V30 35 C -5.0305 0.7038 5.3603 0
M  V30 36 C -2.8846 -0.3167 5.7745 0
M  V30 37 C -5.0527 1.0739 6.6919 0
M  V30 38 C -3.0032 0.0992 7.0881 0
M  V30 39 N -4.0637 0.7863 7.5642 0
M  V30 40 H 0.2902 4.0553 -4.5617 0
M  V30 41 H -1.3072 5.1873 -1.1843 0
M  V30 42 H 0.2531 5.8728 -0.6934 0
M  V30 43 H 1.3176 3.72 -0.6112 0
M  V30 44 H -0.1394 3.7049 0.3812 0
M  V30 45 H -0.0252 1.7634 -4.8823 0
M  V30 46 H -1.2987 1.1797 -3.826 0
M  V30 47 H 1.6285 1.4862 -1.0717 0
M  V30 48 H -2.1652 1.3375 -1.5605 0
M  V30 49 H -2.0047 2.297 -0.0879 0
M  V30 50 H -2.3797 3.0833 -1.6159 0
M  V30 51 H 1.6997 0.7134 -3.5003 0
M  V30 52 H 0.504 -0.4496 -4.0825 0
M  V30 53 H -0.7295 0.628 0.6623 0
M  V30 54 H -0.6875 -0.3176 -1.9137 0
M  V30 55 H 1.7254 1.8851 1.3114 0
M  V30 56 H 0.8549 -0.707 1.9567 0
M  V30 57 H 2.1543 -0.3105 0.901 0
M  V30 58 H 0.3002 -2.5627 -3.0561 0
M  V30 59 H 1.4533 -3.4234 -2.0341 0
M  V30 60 H 1.3188 -3.864 0.0813 0
M  V30 61 H 2.6778 -2.7553 0.2996 0
M  V30 62 H 1.5558 -3.0206 1.6064 0
M  V30 63 H 3.5456 -0.5446 -3.2251 0
M  V30 64 H -1.3632 -2.635 -1.8122 0
M  V30 65 H -2.6185 -2.8849 -0.5265 0
M  V30 66 H 4.7689 -2.8314 -3.1782 0
M  V30 67 H -2.7354 -0.6145 1.1562 0
M  V30 68 H -3.4468 -2.2124 1.5986 0
M  V30 69 H 4.7543 -1.7469 -0.3101 0
M  V30 70 H 6.5453 -3.7745 -1.8395 0
M  V30 71 H 6.0674 -3.9259 -0.1392 0
M  V30 72 H 7.1307 -2.5996 -0.648 0
M  V30 73 H -5.8557 0.9631 4.7051 0
M  V30 74 H -2.0039 -0.8667 5.4603 0
M  V30 75 H -5.8903 1.6278 7.1069 0
M  V30 76 H -2.2254 -0.1149 7.816 0
M  V30 END ATOM
M  V30 BEGIN BOND
M  V30 1 2 1 2
M  V30 2 1 2 3
M  V30 3 1 2 4
M  V30 4 2 3 5
M  V30 5 1 4 6
M  V30 6 1 5 7
M  V30 7 1 5 8
M  V30 8 1 7 9
M  V30 9 1 7 10
M  V30 10 1 8 11
M  V30 11 1 9 12
M  V30 12 1 9 13
M  V30 13 1 12 14
M  V30 14 1 12 15
M  V30 15 1 13 16
M  V30 16 1 15 17
M  V30 17 1 16 18
M  V30 18 1 16 19
M  V30 19 1 17 20
M  V30 20 1 17 21
M  V30 21 1 18 22
M  V30 22 1 19 23
M  V30 23 1 20 24
M  V30 24 2 20 25
M  V30 25 1 22 26
M  V30 26 2 24 27
M  V30 27 1 24 28
M  V30 28 2 26 29
M  V30 29 1 28 30
M  V30 30 1 29 31
M  V30 31 1 30 32
M  V30 32 2 32 33
M  V30 33 1 32 34
M  V30 34 2 34 35
M  V30 35 1 34 36
M  V30 36 1 35 37
M  V30 37 2 36 38
M  V30 38 2 37 39
M  V30 39 1 6 7
M  V30 40 1 11 13
M  V30 41 1 16 17
M  V30 42 1 22 23
M  V30 43 1 38 39
M  V30 44 1 3 40
M  V30 45 1 4 41
M  V30 46 1 4 42
M  V30 47 1 6 43
M  V30 48 1 6 44
M  V30 49 1 8 45
M  V30 50 1 8 46
M  V30 51 1 9 47
M  V30 52 1 10 48
M  V30 53 1 10 49
M  V30 54 1 10 50
M  V30 55 1 11 51
M  V30 56 1 11 52
M  V30 57 1 12 53
M  V30 58 1 13 54
M  V30 59 1 14 55
M  V30 60 1 15 56
M  V30 61 1 15 57
M  V30 62 1 19 58
M  V30 63 1 19 59
M  V30 64 1 21 60
M  V30 65 1 21 61
M  V30 66 1 21 62
M  V30 67 1 22 63
M  V30 68 1 25 64
M  V30 69 1 25 65
M  V30 70 1 26 66
M  V30 71 1 28 67
M  V30 72 1 28 68
M  V30 73 1 29 69
M  V30 74 1 31 70
M  V30 75 1 31 71
M  V30 76 1 31 72
M  V30 77 1 35 73
M  V30 78 1 36 74
M  V30 79 1 37 75
M  V30 80 1 38 76
M  V30 END BOND
M  V30 BEGIN COLLECTION
M  V30 MDLV30/STEABS ATOMS=(7 7 9 12 13 16 17 22)
M  V30 END COLLECTION
M  V30 END CTAB
M  END
>  <Column 1>
3689

>  <level_0>
5969

>  <index>
5970

>  <Unnamed: 0>
5970

>  <NO.>
5982

>  <Name>


>  <IUPAC_name>


>  <SMILES>
C=C(C(=O)COC(=O)c1ccncc1)[C@]1(C)C[C@@H](O)[C@H]2[C@@H](CCC3=CC(=O)CC[C@@]32C)[C@]12CO[C@H](/C=C/C)O2

>  <CID>


>  <logBB>


>  <BBB+/BBB->
BBB+

>  <Inchi>
InChI=1S/C31H37NO7/c1-5-6-26-38-18-31(39-26)23-8-7-21-15-22(33)9-12-29(21-3)27(23)24(34)16-30(31-4)19(2)25(35)17-37-28(36)20-10-13-32-14-11-20/h5-6-10-11-13-15-23-24-26-27-34H-2-7-9-12-16-18H2-1-3-4H3/b6-5+/t23--24--26+-27--29+-30+-31-/m1/s1

>  <threshold>


>  <reference>
R24|

>  <group>
C

>  <Class>
1

>  <ABC>
30.77

>  <ABCGG>
24.1

>  <nAcid>
0

>  <nBase>
0

>  <nAromAtom>
6

>  <nAromBond>
6

>  <nAtom>
76

>  <nHeavyAtom>
39

>  <nSpiro>
1

>  <nBridgehead>
0

>  <nHetero>
8

>  <nN>
1

>  <nO>
7

>  <nF>
0

>  <BalabanJ>
1.4

>  <BertzCT>
1238.58

>  <nBonds>
80

>  <nBondsO>
43

>  <nBondsS>
68

>  <nBondsD>
6

>  <nBondsT>
0

>  <nBondsA>
6

>  <nBondsM>
12

>  <nBondsKS>
71

>  <nBondsKD>
9

>  <RNCG>
0.14

>  <RPCG>
0.1

>  <FCSP3>
0.55

>  <SZ>
47.67

>  <Sm>
44.6

>  <Sv>
46.79

>  <Sse>
76.4

>  <Sp>
49.79

>  <Si>
85.44

>  <MZ>
0.63

>  <Mm>
0.59

>  <Mv>
0.62

>  <Mse>
1.01

>  <Mp>
0.66

>  <Mi>
1.12

>  <NsCH3>
3

>  <NdCH2>
1

>  <NssCH2>
7

>  <NtCH>
0

>  <NdsCH>
3

>  <NaaCH>
4

>  <NsssCH>
4

>  <NddC>
0

>  <NtsC>
0

>  <NdssC>
5

>  <NaasC>
1

>  <NaaaC>
0

>  <NssssC>
3

>  <NsNH3>
0

>  <NsNH2>
0

>  <NssNH2>
0

>  <NdNH>
0

>  <NssNH>
0

>  <NaaNH>
0

>  <NtN>
0

>  <NsssNH>
0

>  <NdsN>
0

>  <NaaN>
1

>  <NsssN>
0

>  <NddsN>
0

>  <NaasN>
0

>  <NssssN>
0

>  <NsOH>
1

>  <NdO>
3

>  <NssO>
3

>  <NaaO>
0

>  <NsF>
0

>  <NsSiH3>
0

>  <NssSiH2>
0

>  <NsssSiH>
0

>  <NssssSi>
0

>  <NsPH2>
0

>  <NssPH>
0

>  <NsssP>
0

>  <NdsssP>
0

>  <NsssssP>
0

>  <NsSH>
0

>  <NdS>
0

>  <NssS>
0

>  <NaaS>
0

>  <NdssS>
0

>  <NddssS>
0

>  <NsCl>
0

>  <NsBr>
0

>  <NsI>
0

>  <fragCpx>
367.08

>  <fMF>
0.38

>  <nHBAcc>
8

>  <nHBDon>
1

>  <Kier1>
30.46

>  <Kier2>
11.94

>  <Lipinski>
0

>  <GhoseFilter>
0

>  <FilterItLogS>
-4.97

>  <VMcGowan>
405.72

>  <LabuteASA>
228.67

>  <PEOE_VSA1>
19.32

>  <PEOE_VSA2>
14.57

>  <PEOE_VSA3>
4.79

>  <PEOE_VSA4>
0

>  <PEOE_VSA5>
0

>  <PEOE_VSA6>
32.08

>  <PEOE_VSA7>
74.14

>  <PEOE_VSA8>
29.8

>  <PEOE_VSA9>
18.27

>  <PEOE_VSA10>
5.6

>  <PEOE_VSA11>
24.46

>  <PEOE_VSA12>
0

>  <PEOE_VSA13>
0

>  <SMR_VSA1>
33.7

>  <SMR_VSA2>
0

>  <SMR_VSA3>
4.98

>  <SMR_VSA4>
22.67

>  <SMR_VSA5>
70.87

>  <SMR_VSA6>
13.21

>  <SMR_VSA7>
66.04

>  <SMR_VSA8>
0

>  <SMR_VSA9>
0

>  <SlogP_VSA1>
0

>  <SlogP_VSA2>
58.84

>  <SlogP_VSA3>
23.8

>  <SlogP_VSA4>
22.67

>  <SlogP_VSA5>
63.23

>  <SlogP_VSA6>
60.48

>  <SlogP_VSA7>
0

>  <SlogP_VSA8>
0

>  <SlogP_VSA9>
0

>  <SlogP_VSA10>
0

>  <SlogP_VSA11>
0

>  <EState_VSA1>
41.77

>  <EState_VSA2>
41.63

>  <EState_VSA3>
24.83

>  <EState_VSA4>
11.99

>  <EState_VSA5>
24.53

>  <EState_VSA6>
6.08

>  <EState_VSA7>
26

>  <EState_VSA8>
18.49

>  <EState_VSA9>
14.21

>  <EState_VSA10>
19.49

>  <VSA_EState1>
18.2

>  <VSA_EState2>
42.11

>  <VSA_EState3>
11.75

>  <VSA_EState4>
-0.62

>  <VSA_EState5>
-1.21

>  <VSA_EState6>
3.04

>  <VSA_EState7>
9.88

>  <VSA_EState8>
9.93

>  <VSA_EState9>
0

>  <apol>
83.16

>  <bpol>
46.07

>  <nRing>
5

>  <nHRing>
2

>  <naRing>
1

>  <naHRing>
1

>  <nARing 2>
4

>  <nAHRing 2>
1

>  <nFRing>
1

>  <nFHRing>
0

>  <nFaRing>
0

>  <nFaHRing>
0

>  <nFARing 2>
1

>  <nFAHRing 2>
0

>  <nRot>
6

>  <SLogP>
4.14

>  <SMR>
142.41

>  <TopoPSA(NO)>
112.02

>  <TopoPSA>
112.02

>  <JGI1>
0.24

>  <JGI2>
0.12

>  <JGI3>
0.06

>  <JGI4>
0.05

>  <JGI5>
0.03

>  <Diameter>
17

>  <Radius>
9

>  <TMWC10>
164.49

>  <TSRW10>
91.03

>  <MW>
535.26

>  <AMW>
7.04

>  <WPath>
4697

>  <WPol>
79

>  <Zagreb1>
218

>  <Zagreb2>
271

>  <mZagreb2>
8.42

>  <yes>


>  <nAR-cont>
0.199399

>  <nHA-cont>
0.348277641

>  <MWHBN>
0.389009417

>  <MWHBN-cont>
0.519366581

>  <TPSA-cont>
0.21803084

>  <pka_cont>
0.97

>  <yes.1>


>  <BBB_SCORE>
2.247788192

>  <MMFF94 Energy>
123.85

$$$$
Compound 2887
Actelion Java MolfileCreator 2.0

  0  0  0  0  0  0              0 V3000
M  V30 BEGIN CTAB
M  V30 COUNTS 67 72 0 0 0
M  V30 BEGIN ATOM
M  V30 1 O -1.5369 -2.9136 0.7278 0
M  V30 2 C -0.6299 -1.9297 0.2348 0 CFG=2
M  V30 3 C -1.2374 -3.4797 1.9943 0
M  V30 4 C 0.6331 -2.6386 -0.2958 0
M  V30 5 C -0.0644 -0.8899 1.2489 0 CFG=2
M  V30 6 C -1.308 -1.1623 -0.9549 0 CFG=1
M  V30 7 C 1.5671 -1.8328 -0.8404 0
M  V30 8 O -1.0526 -0.4009 2.1584 0
M  V30 9 C 0.688 0.198 0.3815 0 CFG=1
M  V30 10 C -2.3163 -0.0051 -0.5289 0 CFG=2
M  V30 11 C -0.1783 -0.5932 -1.8953 0
M  V30 12 C 1.1088 -0.3858 -1.0143 0 CFG=2
M  V30 13 C -0.5715 0.3467 3.2603 0
M  V30 14 C -0.1968 1.3771 -0.0305 0
M  V30 15 C 1.9422 0.6168 1.2292 0
M  V30 16 O -2.9331 0.3742 -1.7996 0
M  V30 17 C -1.6066 1.3194 -0.0772 0
M  V30 18 C -3.4761 -0.4688 0.4011 0
M  V30 19 C 2.126 0.6304 -1.624 0 CFG=2
M  V30 20 C 0.393 2.4188 -0.7623 0
M  V30 21 C 3.122 1.2504 0.495 0
M  V30 22 C -2.2827 2.5508 -0.1476 0
M  V30 23 C -4.3933 -1.5617 -0.1726 0
M  V30 24 N 3.3596 0.6018 -0.7976 0
M  V30 25 C 1.5264 2.0832 -1.7306 0
M  V30 26 C -0.2769 3.6368 -0.8852 0
M  V30 27 O -3.6387 2.6025 0.0078 0
M  V30 28 C -1.6 3.726 -0.4673 0
M  V30 29 C -5.3994 -2.0375 0.8669 0
M  V30 30 C 4.5173 1.1838 -1.4883 0
M  V30 31 C 5.8569 0.6752 -1.0176 0
M  V30 32 C 6.0951 -0.3648 -0.2057 0
M  V30 33 H -1.8967 -4.3401 2.1405 0
M  V30 34 H -0.2034 -3.8307 2.0504 0
M  V30 35 H -1.4408 -2.7702 2.7992 0
M  V30 36 H 0.7779 -3.7042 -0.1699 0
M  V30 37 H 0.6493 -1.4387 1.8804 0
M  V30 38 H -1.8717 -1.8863 -1.5602 0
M  V30 39 H 2.5188 -2.1828 -1.2226 0
M  V30 40 H 0.0221 -1.3152 -2.7014 0
M  V30 41 H -0.4961 0.3092 -2.4274 0
M  V30 42 H -0.328 1.3666 2.956 0
M  V30 43 H -1.3733 0.4082 4.0017 0
M  V30 44 H 0.2907 -0.1374 3.7274 0
M  V30 45 H 2.353 -0.2771 1.7183 0
M  V30 46 H 1.6514 1.2973 2.0361 0
M  V30 47 H -3.3478 -0.4177 -2.1742 0
M  V30 48 H -4.1276 0.3789 0.6359 0
M  V30 49 H -3.1006 -0.8116 1.3649 0
M  V30 50 H 2.3791 0.2823 -2.6344 0
M  V30 51 H 2.9649 2.3312 0.3991 0
M  V30 52 H 4.004 1.1479 1.1392 0
M  V30 53 H -4.9477 -1.1761 -1.035 0
M  V30 54 H -3.8137 -2.4233 -0.5143 0
M  V30 55 H 1.0971 2.1613 -2.7401 0
M  V30 56 H 2.2989 2.8586 -1.6844 0
M  V30 57 H 0.1891 4.4819 -1.3838 0
M  V30 58 H -3.9642 3.4146 -0.4101 0
M  V30 59 H -2.1235 4.6727 -0.5502 0
M  V30 60 H -6.0539 -2.8025 0.4378 0
M  V30 61 H -4.8913 -2.4731 1.7332 0
M  V30 62 H -6.026 -1.21 1.2146 0
M  V30 63 H 4.5115 2.2784 -1.4146 0
M  V30 64 H 4.4748 0.9479 -2.5595 0
M  V30 65 H 6.7137 1.2199 -1.4096 0
M  V30 66 H 5.2867 -0.9636 0.2025 0
M  V30 67 H 7.1093 -0.6456 0.0579 0
M  V30 END ATOM
M  V30 BEGIN BOND
M  V30 1 1 1 2
M  V30 2 1 1 3
M  V30 3 1 2 4
M  V30 4 1 2 5
M  V30 5 1 2 6
M  V30 6 2 4 7
M  V30 7 1 5 8
M  V30 8 1 5 9
M  V30 9 1 6 10
M  V30 10 1 6 11
M  V30 11 1 7 12
M  V30 12 1 8 13
M  V30 13 1 9 14
M  V30 14 1 9 15
M  V30 15 1 10 16
M  V30 16 1 10 17
M  V30 17 1 10 18
M  V30 18 1 12 19
M  V30 19 1 14 20
M  V30 20 1 15 21
M  V30 21 1 17 22
M  V30 22 1 18 23
M  V30 23 1 19 24
M  V30 24 1 19 25
M  V30 25 2 20 26
M  V30 26 1 22 27
M  V30 27 2 22 28
M  V30 28 1 23 29
M  V30 29 1 24 30
M  V30 30 1 30 31
M  V30 31 2 31 32
M  V30 32 1 9 12
M  V30 33 1 11 12
M  V30 34 2 14 17
M  V30 35 1 20 25
M  V30 36 1 21 24
M  V30 37 1 26 28
M  V30 38 1 3 33
M  V30 39 1 3 34
M  V30 40 1 3 35
M  V30 41 1 4 36
M  V30 42 1 5 37
M  V30 43 1 6 38
M  V30 44 1 7 39
M  V30 45 1 11 40
M  V30 46 1 11 41
M  V30 47 1 13 42
M  V30 48 1 13 43
M  V30 49 1 13 44
M  V30 50 1 15 45
M  V30 51 1 15 46
M  V30 52 1 16 47
M  V30 53 1 18 48
M  V30 54 1 18 49
M  V30 55 1 19 50
M  V30 56 1 21 51
M  V30 57 1 21 52
M  V30 58 1 23 53
M  V30 59 1 23 54
M  V30 60 1 25 55
M  V30 61 1 25 56
M  V30 62 1 26 57
M  V30 63 1 27 58
M  V30 64 1 28 59
M  V30 65 1 29 60
M  V30 66 1 29 61
M  V30 67 1 29 62
M  V30 68 1 30 63
M  V30 69 1 30 64
M  V30 70 1 31 65
M  V30 71 1 32 66
M  V30 72 1 32 67
M  V30 END BOND
M  V30 BEGIN COLLECTION
M  V30 MDLV30/STEABS ATOMS=(7 2 5 6 9 10 12 19)
M  V30 END COLLECTION
M  V30 END CTAB
M  END
>  <Column 1>
3690

>  <level_0>
5986

>  <index>
5987

>  <Unnamed: 0>
5987

>  <NO.>
5999

>  <Name>


>  <IUPAC_name>


>  <SMILES>
C=CCN1CC[C@@]23c4c5ccc(O)c4[C@](O)(CCC)[C@H]4C[C@@]2(C=C[C@@]4(OC)[C@@H]3OC)[C@H]1C5

>  <CID>


>  <logBB>


>  <BBB+/BBB->
BBB+

>  <Inchi>
InChI=1S/C27H35NO4/c1-5-9-26(30)19-16-24-10-11-27(19-32-4)23(31-3)25(24)12-14-28(13-6-2)20(24)15-17-7-8-18(29)22(26)21(17)25/h6-8-10-11-19-20-23-29-30H-2-5-9-12-16H2-1-3-4H3/t19--20--23--24+-25+-26+-27+/m1/s1

>  <threshold>


>  <reference>
R24|

>  <group>
C

>  <Class>
1

>  <ABC>
25.74

>  <ABCGG>
19.88

>  <nAcid>
0

>  <nBase>
1

>  <nAromAtom>
6

>  <nAromBond>
6

>  <nAtom>
67

>  <nHeavyAtom>
32

>  <nSpiro>
2

>  <nBridgehead>
6

>  <nHetero>
5

>  <nN>
1

>  <nO>
4

>  <nF>
0

>  <BalabanJ>
1.65

>  <BertzCT>
1021.15

>  <nBonds>
72

>  <nBondsO>
37

>  <nBondsS>
64

>  <nBondsD>
2

>  <nBondsT>
0

>  <nBondsA>
6

>  <nBondsM>
8

>  <nBondsKS>
67

>  <nBondsKD>
5

>  <RNCG>
0.2

>  <RPCG>
0.11

>  <FCSP3>
0.63

>  <SZ>
39.33

>  <Sm>
36.43

>  <Sv>
40.1

>  <Sse>
66.52

>  <Sp>
43.55

>  <Si>
75.4

>  <MZ>
0.59

>  <Mm>
0.54

>  <Mv>
0.6

>  <Mse>
0.99

>  <Mp>
0.65

>  <Mi>
1.13

>  <NsCH3>
3

>  <NdCH2>
1

>  <NssCH2>
7

>  <NtCH>
0

>  <NdsCH>
3

>  <NaaCH>
2

>  <NsssCH>
3

>  <NddC>
0

>  <NtsC>
0

>  <NdssC>
0

>  <NaasC>
4

>  <NaaaC>
0

>  <NssssC>
4

>  <NsNH3>
0

>  <NsNH2>
0

>  <NssNH2>
0

>  <NdNH>
0

>  <NssNH>
0

>  <NaaNH>
0

>  <NtN>
0

>  <NsssNH>
0

>  <NdsN>
0

>  <NaaN>
0

>  <NsssN>
1

>  <NddsN>
0

>  <NaasN>
0

>  <NssssN>
0

>  <NsOH>
2

>  <NdO>
0

>  <NssO>
2

>  <NaaO>
0

>  <NsF>
0

>  <NsSiH3>
0

>  <NssSiH2>
0

>  <NsssSiH>
0

>  <NssssSi>
0

>  <NsPH2>
0

>  <NssPH>
0

>  <NsssP>
0

>  <NdsssP>
0

>  <NsssssP>
0

>  <NsSH>
0

>  <NdS>
0

>  <NssS>
0

>  <NaaS>
0

>  <NdssS>
0

>  <NddssS>
0

>  <NsCl>
0

>  <NsBr>
0

>  <NsI>
0

>  <fragCpx>
377.05

>  <fMF>
0.3

>  <nHBAcc>
5

>  <nHBDon>
2

>  <Kier1>
22.46

>  <Kier2>
7.26

>  <Lipinski>
1

>  <GhoseFilter>
1

>  <FilterItLogS>
-4.86

>  <VMcGowan>
338.09

>  <LabuteASA>
190.26

>  <PEOE_VSA1>
19.69

>  <PEOE_VSA2>
4.9

>  <PEOE_VSA3>
0

>  <PEOE_VSA4>
0

>  <PEOE_VSA5>
6.58

>  <PEOE_VSA6>
37.64

>  <PEOE_VSA7>
49.42

>  <PEOE_VSA8>
49.12

>  <PEOE_VSA9>
5.6

>  <PEOE_VSA10>
17.45

>  <PEOE_VSA11>
0

>  <PEOE_VSA12>
0

>  <PEOE_VSA13>
0

>  <SMR_VSA1>
19.69

>  <SMR_VSA2>
0

>  <SMR_VSA3>
4.9

>  <SMR_VSA4>
11.33

>  <SMR_VSA5>
67.79

>  <SMR_VSA6>
27.31

>  <SMR_VSA7>
53.63

>  <SMR_VSA8>
0

>  <SMR_VSA9>
5.75

>  <SlogP_VSA1>
0

>  <SlogP_VSA2>
60.17

>  <SlogP_VSA3>
26.91

>  <SlogP_VSA4>
11.33

>  <SlogP_VSA5>
49.3

>  <SlogP_VSA6>
36.94

>  <SlogP_VSA7>
0

>  <SlogP_VSA8>
0

>  <SlogP_VSA9>
0

>  <SlogP_VSA10>
0

>  <SlogP_VSA11>
5.75

>  <EState_VSA1>
11.2

>  <EState_VSA2>
28.6

>  <EState_VSA3>
12.46

>  <EState_VSA4>
49.9

>  <EState_VSA5>
5.56

>  <EState_VSA6>
20.29

>  <EState_VSA7>
6.08

>  <EState_VSA8>
36.62

>  <EState_VSA9>
9.47

>  <EState_VSA10>
10.21

>  <VSA_EState1>
12.8

>  <VSA_EState2>
2.57

>  <VSA_EState3>
23.89

>  <VSA_EState4>
0.73

>  <VSA_EState5>
0.02

>  <VSA_EState6>
4.19

>  <VSA_EState7>
10.48

>  <VSA_EState8>
7.93

>  <VSA_EState9>
3.56

>  <apol>
72.74

>  <bpol>
40.29

>  <nRing>
8

>  <nHRing>
1

>  <naRing>
1

>  <naHRing>
0

>  <nARing 2>
7

>  <nAHRing 2>
1

>  <nFRing>
1

>  <nFHRing>
1

>  <nFaRing>
0

>  <nFaHRing>
0

>  <nFARing 2>
1

>  <nFAHRing 2>
1

>  <nRot>
6

>  <SLogP>
3.42

>  <SMR>
122.69

>  <TopoPSA(NO)>
62.16

>  <TopoPSA>
62.16

>  <JGI1>
0.24

>  <JGI2>
0.12

>  <JGI3>
0.06

>  <JGI4>
0.06

>  <JGI5>
0.04

>  <Diameter>
11

>  <Radius>
6

>  <TMWC10>
153.42

>  <TSRW10>
80.08

>  <MW>
437.26

>  <AMW>
6.53

>  <WPath>
2104

>  <WPol>
89

>  <Zagreb1>
198

>  <Zagreb2>
267

>  <mZagreb2>
7.01

>  <yes>


>  <nAR-cont>
0

>  <nHA-cont>
0.658856097

>  <MWHBN>
0.334755842

>  <MWHBN-cont>
0.726020246

>  <TPSA-cont>
0.566084601

>  <pka_cont>
0.97

>  <yes.1>


>  <BBB_SCORE>
3.365055667

>  <MMFF94 Energy>
213.85

$$$$
Compound 2888
Actelion Java MolfileCreator 2.0

  0  0  0  0  0  0              0 V3000
M  V30 BEGIN CTAB
M  V30 COUNTS 41 41 0 0 0
M  V30 BEGIN ATOM
M  V30 1 O -1.7979 -0.8595 0.7814 0
M  V30 2 C -0.7583 -0.2226 0.9438 0
M  V30 3 N -0.2239 -0.1687 2.1934 0
M  V30 4 C 0.0309 0.4443 -0.1798 0 CFG=1
M  V30 5 C 0.6325 0.8475 2.6777 0 CFG=2
M  V30 6 C 0.6434 1.7257 0.4554 0 CFG=1
M  V30 7 C 1.1292 -0.5952 -0.6535 0 CFG=1
M  V30 8 C -0.9179 0.8143 -1.3586 0
M  V30 9 O -0.2117 1.7927 3.2819 0
M  V30 10 N 1.4578 1.4075 1.6262 0
M  V30 11 O 1.4269 2.4179 -0.5051 0
M  V30 12 C 0.5436 -1.9358 -0.9256 0
M  V30 13 C 1.9443 -0.2119 -1.8993 0
M  V30 14 C -2.0791 1.717 -1.0112 0
M  V30 15 C 2.1615 2.5822 2.1616 0
M  V30 16 C 0.0584 -3.0139 -1.1383 0
M  V30 17 C -2.1721 2.999 -1.3865 0
M  V30 18 C -0.565 -4.3199 -1.3859 0
M  V30 19 C -1.9865 -4.3584 -0.8503 0
M  V30 20 H -0.7001 -0.7373 2.88 0
M  V30 21 H 1.2569 0.3974 3.4569 0
M  V30 22 H -0.1537 2.4213 0.7465 0
M  V30 23 H 1.8484 -0.7411 0.1637 0
M  V30 24 H -0.3394 1.2887 -2.1608 0
M  V30 25 H -1.3472 -0.095 -1.7985 0
M  V30 26 H -1.0861 1.6345 2.893 0
M  V30 27 H 2.3383 2.1292 -0.3375 0
M  V30 28 H 1.3114 -0.0853 -2.7838 0
M  V30 29 H 2.5325 0.6948 -1.7618 0
M  V30 30 H 2.662 -1.0062 -2.1421 0
M  V30 31 H -2.8989 1.2691 -0.4505 0
M  V30 32 H 2.9436 2.924 1.4756 0
M  V30 33 H 2.6795 2.3309 3.095 0
M  V30 34 H 1.4902 3.427 2.3558 0
M  V30 35 H -1.3862 3.4832 -1.9594 0
M  V30 36 H -3.0425 3.5937 -1.1265 0
M  V30 37 H 0.0255 -5.1097 -0.9087 0
M  V30 38 H -0.5752 -4.5283 -2.4614 0
M  V30 39 H -2.0071 -4.1797 0.2304 0
M  V30 40 H -2.4392 -5.3363 -1.0423 0
M  V30 41 H -2.6101 -3.5944 -1.3276 0
M  V30 END ATOM
M  V30 BEGIN BOND
M  V30 1 2 1 2
M  V30 2 1 2 3
M  V30 3 1 2 4
M  V30 4 1 3 5
M  V30 5 1 4 6
M  V30 6 1 4 7
M  V30 7 1 4 8
M  V30 8 1 5 9
M  V30 9 1 5 10
M  V30 10 1 6 11
M  V30 11 1 7 12
M  V30 12 1 7 13
M  V30 13 1 8 14
M  V30 14 1 10 15
M  V30 15 3 12 16
M  V30 16 2 14 17
M  V30 17 1 16 18
M  V30 18 1 18 19
M  V30 19 1 6 10
M  V30 20 1 3 20
M  V30 21 1 5 21
M  V30 22 1 6 22
M  V30 23 1 7 23
M  V30 24 1 8 24
M  V30 25 1 8 25
M  V30 26 1 9 26
M  V30 27 1 11 27
M  V30 28 1 13 28
M  V30 29 1 13 29
M  V30 30 1 13 30
M  V30 31 1 14 31
M  V30 32 1 15 32
M  V30 33 1 15 33
M  V30 34 1 15 34
M  V30 35 1 17 35
M  V30 36 1 17 36
M  V30 37 1 18 37
M  V30 38 1 18 38
M  V30 39 1 19 39
M  V30 40 1 19 40
M  V30 41 1 19 41
M  V30 END BOND
M  V30 BEGIN COLLECTION
M  V30 MDLV30/STEABS ATOMS=(4 4 5 6 7)
M  V30 END COLLECTION
M  V30 END CTAB
M  END
>  <Column 1>
3691

>  <level_0>
5994

>  <index>
5995

>  <Unnamed: 0>
5995

>  <NO.>
6007

>  <Name>


>  <IUPAC_name>


>  <SMILES>
C=CC[C@]1([C@H](C)C#CCC)C(=O)N[C@H](O)N(C)[C@H]1O

>  <CID>


>  <logBB>


>  <BBB+/BBB->
BBB+

>  <Inchi>
InChI=1S/C14H22N2O3/c1-5-7-8-10(3)14(9-6-2)11(17)15-13(19)16(4)12(14)18/h6-10-12-13-18-19H-2-5-9H2-1-3-4H3-(H-15-17)/t10--12+-13+-14+/m1/s1

>  <threshold>


>  <reference>
R24|

>  <group>
C

>  <Class>
1

>  <ABC>
13.72

>  <ABCGG>
13.31

>  <nAcid>
0

>  <nBase>
1

>  <nAromAtom>
0

>  <nAromBond>
0

>  <nAtom>
41

>  <nHeavyAtom>
19

>  <nSpiro>
0

>  <nBridgehead>
0

>  <nHetero>
5

>  <nN>
2

>  <nO>
3

>  <nF>
0

>  <BalabanJ>
3

>  <BertzCT>
412.65

>  <nBonds>
41

>  <nBondsO>
19

>  <nBondsS>
38

>  <nBondsD>
2

>  <nBondsT>
1

>  <nBondsA>
0

>  <nBondsM>
3

>  <nBondsKS>
38

>  <nBondsKD>
2

>  <RNCG>
0.18

>  <RPCG>
0.11

>  <FCSP3>
0.64

>  <SZ>
24

>  <Sm>
22.17

>  <Sv>
23.62

>  <Sse>
41.08

>  <Sp>
25.54

>  <Si>
46.78

>  <MZ>
0.59

>  <Mm>
0.54

>  <Mv>
0.58

>  <Mse>
1

>  <Mp>
0.62

>  <Mi>
1.14

>  <NsCH3>
3

>  <NdCH2>
1

>  <NssCH2>
2

>  <NtCH>
0

>  <NdsCH>
1

>  <NaaCH>
0

>  <NsssCH>
3

>  <NddC>
0

>  <NtsC>
2

>  <NdssC>
1

>  <NaasC>
0

>  <NaaaC>
0

>  <NssssC>
1

>  <NsNH3>
0

>  <NsNH2>
0

>  <NssNH2>
0

>  <NdNH>
0

>  <NssNH>
1

>  <NaaNH>
0

>  <NtN>
0

>  <NsssNH>
0

>  <NdsN>
0

>  <NaaN>
0

>  <NsssN>
1

>  <NddsN>
0

>  <NaasN>
0

>  <NssssN>
0

>  <NsOH>
2

>  <NdO>
1

>  <NssO>
0

>  <NaaO>
0

>  <NsF>
0

>  <NsSiH3>
0

>  <NssSiH2>
0

>  <NsssSiH>
0

>  <NssssSi>
0

>  <NsPH2>
0

>  <NssPH>
0

>  <NsssP>
0

>  <NdsssP>
0

>  <NsssssP>
0

>  <NsSH>
0

>  <NdS>
0

>  <NssS>
0

>  <NaaS>
0

>  <NdssS>
0

>  <NddssS>
0

>  <NsCl>
0

>  <NsBr>
0

>  <NsI>
0

>  <fragCpx>
19.05

>  <fMF>
0.15

>  <nHBAcc>
4

>  <nHBDon>
3

>  <Kier1>
17.05

>  <Kier2>
7.14

>  <Lipinski>
1

>  <GhoseFilter>
1

>  <FilterItLogS>
-1.19

>  <VMcGowan>
217.63

>  <LabuteASA>
113.85

>  <PEOE_VSA1>
15.53

>  <PEOE_VSA2>
4.79

>  <PEOE_VSA3>
4.9

>  <PEOE_VSA4>
0

>  <PEOE_VSA5>
12.5

>  <PEOE_VSA6>
25.84

>  <PEOE_VSA7>
13.47

>  <PEOE_VSA8>
12.34

>  <PEOE_VSA9>
0

>  <PEOE_VSA10>
11.64

>  <PEOE_VSA11>
6.35

>  <PEOE_VSA12>
5.91

>  <PEOE_VSA13>
0

>  <SMR_VSA1>
15.01

>  <SMR_VSA2>
0

>  <SMR_VSA3>
10.22

>  <SMR_VSA4>
11.33

>  <SMR_VSA5>
39.27

>  <SMR_VSA6>
7.05

>  <SMR_VSA7>
12.65

>  <SMR_VSA8>
0

>  <SMR_VSA9>
11.84

>  <SlogP_VSA1>
5.32

>  <SlogP_VSA2>
40.65

>  <SlogP_VSA3>
4.79

>  <SlogP_VSA4>
23.17

>  <SlogP_VSA5>
26.69

>  <SlogP_VSA6>
12.65

>  <SlogP_VSA7>
0

>  <SlogP_VSA8>
0

>  <SlogP_VSA9>
0

>  <SlogP_VSA10>
0

>  <SlogP_VSA11>
0

>  <EState_VSA1>
23.9

>  <EState_VSA2>
12.34

>  <EState_VSA3>
6.42

>  <EState_VSA4>
0

>  <EState_VSA5>
4.9

>  <EState_VSA6>
20.05

>  <EState_VSA7>
6.92

>  <EState_VSA8>
23.74

>  <EState_VSA9>
0

>  <EState_VSA10>
15.01

>  <VSA_EState1>
0

>  <VSA_EState2>
13.62

>  <VSA_EState3>
22.53

>  <VSA_EState4>
-1.11

>  <VSA_EState5>
5.19

>  <VSA_EState6>
0

>  <VSA_EState7>
0.27

>  <VSA_EState8>
7.38

>  <VSA_EState9>
1.55

>  <apol>
42.66

>  <bpol>
25.22

>  <nRing>
1

>  <nHRing>
1

>  <naRing>
0

>  <naHRing>
0

>  <nARing 2>
1

>  <nAHRing 2>
1

>  <nFRing>
0

>  <nFHRing>
0

>  <nFaRing>
0

>  <nFaHRing>
0

>  <nFARing 2>
0

>  <nFAHRing 2>
0

>  <nRot>
3

>  <SLogP>
0.25

>  <SMR>
72.4

>  <TopoPSA(NO)>
72.8

>  <TopoPSA>
72.8

>  <JGI1>
0.26

>  <JGI2>
0.14

>  <JGI3>
0.08

>  <JGI4>
0.05

>  <JGI5>
0.03

>  <Diameter>
9

>  <Radius>
5

>  <TMWC10>
111.43

>  <TSRW10>
52.55

>  <MW>
266.16

>  <AMW>
6.49

>  <WPath>
646

>  <WPol>
35

>  <Zagreb1>
92

>  <Zagreb2>
111

>  <mZagreb2>
4.51

>  <yes>


>  <nAR-cont>
0.816016

>  <nHA-cont>
0.998649058

>  <MWHBN>
0.429068514

>  <MWHBN-cont>
0.363244079

>  <TPSA-cont>
0.491810794

>  <pka_cont>
0.97

>  <yes.1>


>  <BBB_SCORE>
3.828152765

>  <MMFF94 Energy>
-158.56

$$$$
Compound 2889
Actelion Java MolfileCreator 2.0

  0  0  0  0  0  0              0 V3000
M  V30 BEGIN CTAB
M  V30 COUNTS 75 80 0 0 0
M  V30 BEGIN ATOM
M  V30 1 O -2.969 0.7215 1.2831 0
M  V30 2 C -2.9278 -0.4593 1.9954 0
M  V30 3 C -1.5731 1.1593 1.165 0 CFG=2
M  V30 4 C -4.0075 -1.1173 2.538 0
M  V30 5 C -1.6523 -0.8295 2.3474 0
M  V30 6 C -0.6745 0.0574 1.7053 0 CFG=2
M  V30 7 C -1.1322 2.2669 2.1621 0
M  V30 8 O -5.2829 -0.7824 2.2055 0
M  V30 9 C -3.7768 -2.0985 3.5051 0
M  V30 10 C -1.3915 -1.6258 3.4491 0
M  V30 11 C 0.0463 0.756 2.8606 0
M  V30 12 C 0.294 -0.5985 0.7328 0
M  V30 13 O -1.6721 3.579 1.9496 0
M  V30 14 C 0.452 2.1375 2.2173 0
M  V30 15 C -1.0186 1.678 3.6116 0
M  V30 16 C -2.4709 -2.3266 3.9926 0
M  V30 17 C -0.0492 -1.4564 4.1455 0
M  V30 18 C 0.8893 -0.297 3.5791 0 CFG=1
M  V30 19 C 1.3353 -1.4607 1.4612 0
M  V30 20 C -3.0572 3.7475 2.2155 0
M  V30 21 N 1.923 -0.7531 2.6144 0
M  V30 22 C 2.998 -1.5539 3.2149 0
M  V30 23 C 3.8242 -0.7312 4.1625 0
M  V30 24 C 5.3318 -0.8061 4.1297 0
M  V30 25 C 4.6342 0.4398 3.6623 0
M  V30 26 O 0.564 1.6012 -4.7383 0
M  V30 27 C -0.2792 0.4872 -5.0678 0 CFG=1
M  V30 28 C -1.5601 1.0409 -5.6764 0
M  V30 29 C 0.5047 -0.4631 -6.0595 0
M  V30 30 C -0.6651 -0.1881 -3.7391 0
M  V30 31 C -1.8248 2.3258 -5.9571 0
M  V30 32 C 0.8891 0.298 -7.3522 0
M  V30 33 C -0.3221 -1.7022 -6.4667 0
M  V30 34 C 1.8248 -0.9717 -5.4321 0
M  V30 35 H -1.3715 1.44 0.1256 0
M  V30 36 H -5.2058 -0.0588 1.5552 0
M  V30 37 H -4.6198 -2.6183 3.953 0
M  V30 38 H -0.2441 -1.2161 0.0031 0
M  V30 39 H 0.8269 0.167 0.1557 0
M  V30 40 H 0.9717 2.1184 1.2555 0
M  V30 41 H 0.9794 2.8434 2.8708 0
M  V30 42 H -0.6199 2.3476 4.3844 0
M  V30 43 H -1.9174 1.211 4.0209 0
M  V30 44 H -2.3302 -2.9847 4.8467 0
M  V30 45 H -0.2706 -1.185 5.1872 0
M  V30 46 H 0.4687 -2.4196 4.1829 0
M  V30 47 H 1.3807 0.1872 4.4301 0
M  V30 48 H 2.1225 -1.7043 0.7366 0
M  V30 49 H 0.8898 -2.416 1.7644 0
M  V30 50 H -3.3251 3.3109 3.1818 0
M  V30 51 H -3.2751 4.8185 2.2425 0
M  V30 52 H -3.65 3.2924 1.4181 0
M  V30 53 H 3.6571 -1.9225 2.4181 0
M  V30 54 H 2.6166 -2.4411 3.7319 0
M  V30 55 H 3.364 -0.6483 5.1406 0
M  V30 56 H 5.8121 -1.425 3.3805 0
M  V30 57 H 5.8625 -0.7647 5.0742 0
M  V30 58 H 4.6228 0.6531 2.5991 0
M  V30 59 H 4.6838 1.3224 4.2894 0
M  V30 60 H 1.2162 1.3032 -4.0845 0
M  V30 61 H -2.3403 0.3135 -5.892 0
M  V30 62 H 0.2154 -0.5339 -3.1885 0
M  V30 63 H -1.3424 -1.036 -3.8808 0
M  V30 64 H -1.1629 0.528 -3.0723 0
M  V30 65 H -1.0967 3.1088 -5.7661 0
M  V30 66 H -2.7762 2.6201 -6.3873 0
M  V30 67 H 1.4968 1.1826 -7.1327 0
M  V30 68 H 1.4736 -0.3398 -8.0257 0
M  V30 69 H 0.0047 0.6245 -7.9093 0
M  V30 70 H -1.2483 -1.426 -6.9804 0
M  V30 71 H 0.2446 -2.3411 -7.1547 0
M  V30 72 H -0.5829 -2.3182 -5.6004 0
M  V30 73 H 2.3801 -1.5974 -6.1413 0
M  V30 74 H 2.4856 -0.1463 -5.1481 0
M  V30 75 H 1.6429 -1.5852 -4.5443 0
M  V30 END ATOM
M  V30 BEGIN BOND
M  V30 1 1 1 2
M  V30 2 1 1 3
M  V30 3 2 2 4
M  V30 4 1 2 5
M  V30 5 1 3 6
M  V30 6 1 3 7
M  V30 7 1 4 8
M  V30 8 1 4 9
M  V30 9 2 5 10
M  V30 10 1 6 11
M  V30 11 1 6 12
M  V30 12 1 7 13
M  V30 13 1 7 14
M  V30 14 1 7 15
M  V30 15 2 9 16
M  V30 16 1 10 17
M  V30 17 1 11 18
M  V30 18 1 12 19
M  V30 19 1 13 20
M  V30 20 1 18 21
M  V30 21 1 21 22
M  V30 22 1 22 23
M  V30 23 1 23 24
M  V30 24 1 23 25
M  V30 25 1 26 27
M  V30 26 1 27 28
M  V30 27 1 27 29
M  V30 28 1 27 30
M  V30 29 2 28 31
M  V30 30 1 29 32
M  V30 31 1 29 33
M  V30 32 1 29 34
M  V30 33 1 5 6
M  V30 34 1 10 16
M  V30 35 1 11 14
M  V30 36 1 11 15
M  V30 37 1 17 18
M  V30 38 1 19 21
M  V30 39 1 24 25
M  V30 40 1 3 35
M  V30 41 1 8 36
M  V30 42 1 9 37
M  V30 43 1 12 38
M  V30 44 1 12 39
M  V30 45 1 14 40
M  V30 46 1 14 41
M  V30 47 1 15 42
M  V30 48 1 15 43
M  V30 49 1 16 44
M  V30 50 1 17 45
M  V30 51 1 17 46
M  V30 52 1 18 47
M  V30 53 1 19 48
M  V30 54 1 19 49
M  V30 55 1 20 50
M  V30 56 1 20 51
M  V30 57 1 20 52
M  V30 58 1 22 53
M  V30 59 1 22 54
M  V30 60 1 23 55
M  V30 61 1 24 56
M  V30 62 1 24 57
M  V30 63 1 25 58
M  V30 64 1 25 59
M  V30 65 1 26 60
M  V30 66 1 28 61
M  V30 67 1 30 62
M  V30 68 1 30 63
M  V30 69 1 30 64
M  V30 70 1 31 65
M  V30 71 1 31 66
M  V30 72 1 32 67
M  V30 73 1 32 68
M  V30 74 1 32 69
M  V30 75 1 33 70
M  V30 76 1 33 71
M  V30 77 1 33 72
M  V30 78 1 34 73
M  V30 79 1 34 74
M  V30 80 1 34 75
M  V30 END BOND
M  V30 BEGIN COLLECTION
M  V30 MDLV30/STEABS ATOMS=(4 3 6 18 27)
M  V30 END COLLECTION
M  V30 END CTAB
M  END
>  <Column 1>
3692

>  <level_0>
5996

>  <index>
5997

>  <Unnamed: 0>
5997

>  <NO.>
6009

>  <Name>


>  <IUPAC_name>


>  <SMILES>
C=C[C@](C)(O)C(C)(C)C.COC12CC3(C1)[C@H]1Cc4ccc(O)c5c4[C@@]3(CCN1CC1CC1)[C@H]2O5

>  <CID>


>  <logBB>


>  <BBB+/BBB->
BBB+

>  <Inchi>
InChI=1S/C21H25NO3.C8H16O/c1-24-20-10-19(11-20)15-8-13-4-5-14(23)17-16(13)21(19-18(20)25-17)6-7-22(15)9-12-2-3-12;1-6-8(5-9)7(2-3)4/h4-5-12-15-18-23H-2-3-6-11H2-1H3;6-9H-1H2-2-5H3/t15--18+-19?-20?-21+;8-/m10/s1

>  <threshold>


>  <reference>
R24|

>  <group>
C

>  <Class>
-1

>  <ABC>
27.88

>  <ABCGG>
23.04

>  <nAcid>
0

>  <nBase>
1

>  <nAromAtom>
6

>  <nAromBond>
6

>  <nAtom>
75

>  <nHeavyAtom>
34

>  <nSpiro>
2

>  <nBridgehead>
4

>  <nHetero>
5

>  <nN>
1

>  <nO>
4

>  <nF>
0

>  <BalabanJ>
0

>  <BertzCT>
1029.3

>  <nBonds>
80

>  <nBondsO>
39

>  <nBondsS>
73

>  <nBondsD>
1

>  <nBondsT>
0

>  <nBondsA>
6

>  <nBondsM>
7

>  <nBondsKS>
76

>  <nBondsKD>
4

>  <RNCG>
0.19

>  <RPCG>
0.11

>  <FCSP3>
0.72

>  <SZ>
42.33

>  <Sm>
38.94

>  <Sv>
43.72

>  <Sse>
74.19

>  <Sp>
47.95

>  <Si>
84.64

>  <MZ>
0.56

>  <Mm>
0.52

>  <Mv>
0.58

>  <Mse>
0.99

>  <Mp>
0.64

>  <Mi>
1.13

>  <NsCH3>
5

>  <NdCH2>
1

>  <NssCH2>
8

>  <NtCH>
0

>  <NdsCH>
1

>  <NaaCH>
2

>  <NsssCH>
3

>  <NddC>
0

>  <NtsC>
0

>  <NdssC>
0

>  <NaasC>
4

>  <NaaaC>
0

>  <NssssC>
5

>  <NsNH3>
0

>  <NsNH2>
0

>  <NssNH2>
0

>  <NdNH>
0

>  <NssNH>
0

>  <NaaNH>
0

>  <NtN>
0

>  <NsssNH>
0

>  <NdsN>
0

>  <NaaN>
0

>  <NsssN>
1

>  <NddsN>
0

>  <NaasN>
0

>  <NssssN>
0

>  <NsOH>
2

>  <NdO>
0

>  <NssO>
2

>  <NaaO>
0

>  <NsF>
0

>  <NsSiH3>
0

>  <NssSiH2>
0

>  <NsssSiH>
0

>  <NssssSi>
0

>  <NsPH2>
0

>  <NssPH>
0

>  <NsssP>
0

>  <NdsssP>
0

>  <NsssssP>
0

>  <NsSH>
0

>  <NdS>
0

>  <NssS>
0

>  <NaaS>
0

>  <NdssS>
0

>  <NddssS>
0

>  <NsCl>
0

>  <NsBr>
0

>  <NsI>
0

>  <fragCpx>
399.05

>  <fMF>
0.29

>  <nHBAcc>
5

>  <nHBDon>
2

>  <Kier1>
24.34

>  <Kier2>
7.53

>  <Lipinski>
1

>  <GhoseFilter>
0

>  <FilterItLogS>
-5.37

>  <VMcGowan>
370.57

>  <LabuteASA>
203.68

>  <PEOE_VSA1>
19.69

>  <PEOE_VSA2>
4.9

>  <PEOE_VSA3>
0

>  <PEOE_VSA4>
0

>  <PEOE_VSA5>
6.58

>  <PEOE_VSA6>
32.91

>  <PEOE_VSA7>
74.96

>  <PEOE_VSA8>
36.09

>  <PEOE_VSA9>
5.6

>  <PEOE_VSA10>
11.71

>  <PEOE_VSA11>
11.5

>  <PEOE_VSA12>
0

>  <PEOE_VSA13>
0

>  <SMR_VSA1>
19.69

>  <SMR_VSA2>
0

>  <SMR_VSA3>
4.9

>  <SMR_VSA4>
16.75

>  <SMR_VSA5>
94.98

>  <SMR_VSA6>
20.2

>  <SMR_VSA7>
35.91

>  <SMR_VSA8>
0

>  <SMR_VSA9>
11.5

>  <SlogP_VSA1>
4.74

>  <SlogP_VSA2>
58.66

>  <SlogP_VSA3>
16.57

>  <SlogP_VSA4>
16.75

>  <SlogP_VSA5>
70.93

>  <SlogP_VSA6>
24.79

>  <SlogP_VSA7>
0

>  <SlogP_VSA8>
0

>  <SlogP_VSA9>
0

>  <SlogP_VSA10>
0

>  <SlogP_VSA11>
11.5

>  <EState_VSA1>
5.6

>  <EState_VSA2>
22.54

>  <EState_VSA3>
17.21

>  <EState_VSA4>
37.35

>  <EState_VSA5>
37.06

>  <EState_VSA6>
13

>  <EState_VSA7>
33.95

>  <EState_VSA8>
17.55

>  <EState_VSA9>
9.47

>  <EState_VSA10>
10.21

>  <VSA_EState1>
12.61

>  <VSA_EState2>
2.82

>  <VSA_EState3>
20.02

>  <VSA_EState4>
2.15

>  <VSA_EState5>
2.04

>  <VSA_EState6>
4.63

>  <VSA_EState7>
9.07

>  <VSA_EState8>
13.72

>  <VSA_EState9>
1.86

>  <apol>
80.08

>  <bpol>
46.31

>  <nRing>
8

>  <nHRing>
2

>  <naRing>
1

>  <naHRing>
0

>  <nARing 2>
7

>  <nAHRing 2>
2

>  <nFRing>
1

>  <nFHRing>
1

>  <nFaRing>
0

>  <nFaHRing>
0

>  <nFARing 2>
1

>  <nFAHRing 2>
1

>  <nRot>
4

>  <SLogP>
4.58

>  <SMR>
132.29

>  <TopoPSA(NO)>
62.16

>  <TopoPSA>
62.16

>  <JGI1>
0.31

>  <JGI2>
0.13

>  <JGI3>
0.06

>  <JGI4>
0.05

>  <JGI5>
0.03

>  <Diameter>
100000000

>  <Radius>
100000000

>  <TMWC10>
157.35

>  <TSRW10>
94.15

>  <MW>
467.3

>  <AMW>
6.23

>  <WPath>
22500001273

>  <WPol>
70

>  <Zagreb1>
212

>  <Zagreb2>
277

>  <mZagreb2>
6.94

>  <yes>


>  <nAR-cont>
0

>  <nHA-cont>
0.568589513

>  <MWHBN>
0.323817376

>  <MWHBN-cont>
0.764241034

>  <TPSA-cont>
0.566084601

>  <pka_cont>
0.97

>  <yes.1>


>  <BBB_SCORE>
3.332120265

>  <MMFF94 Energy>
121.32

$$$$
Compound 2890
Actelion Java MolfileCreator 2.0

  0  0  0  0  0  0              0 V3000
M  V30 BEGIN CTAB
M  V30 COUNTS 44 45 0 0 0
M  V30 BEGIN ATOM
M  V30 1 O 4.2439 2.985 -0.1569 0
M  V30 2 C 4.0131 2.1767 -1.0437 0
M  V30 3 O 2.8227 1.544 -1.2408 0
M  V30 4 C 5.0086 1.7301 -2.0694 0
M  V30 5 C 1.7906 1.933 -0.3244 0
M  V30 6 C 0.5239 1.1086 -0.5936 0
M  V30 7 C -0.0547 1.4837 -1.9698 0
M  V30 8 C 0.7674 -0.4189 -0.5237 0
M  V30 9 O -1.3361 0.8543 -2.1223 0
M  V30 10 C 1.2936 -0.9382 0.8183 0
M  V30 11 C -1.9509 1.1166 -3.3083 0
M  V30 12 N 0.3952 -0.7093 1.9266 0
M  V30 13 O -1.4857 1.7958 -4.2118 0
M  V30 14 C -3.2881 0.4432 -3.3524 0
M  V30 15 C -0.785 -1.3243 2.1881 0
M  V30 16 C 0.5956 0.1821 2.9554 0
M  V30 17 N -1.4443 -2.2851 1.5241 0
M  V30 18 C -1.2679 -0.7647 3.3375 0
M  V30 19 N -0.4039 0.1811 3.8183 0
M  V30 20 C -2.6498 -2.7034 2.0374 0
M  V30 21 C -2.57 -1.1984 3.9095 0
M  V30 22 N -3.2417 -2.2708 3.1056 0
M  V30 23 N -3.2428 -3.6706 1.3078 0
M  V30 24 H 5.1879 0.6569 -1.9684 0
M  V30 25 H 4.6405 1.9669 -3.0708 0
M  V30 26 H 5.9529 2.259 -1.9121 0
M  V30 27 H 2.134 1.7757 0.7037 0
M  V30 28 H 1.5768 3.0012 -0.4538 0
M  V30 29 H -0.2272 1.3712 0.1622 0
M  V30 30 H 0.6129 1.152 -2.7741 0
M  V30 31 H -0.1869 2.5706 -2.0352 0
M  V30 32 H -0.1683 -0.9413 -0.7577 0
M  V30 33 H 1.4784 -0.7127 -1.3063 0
M  V30 34 H 2.2646 -0.4952 1.0634 0
M  V30 35 H 1.4488 -2.0221 0.7575 0
M  V30 36 H -3.1606 -0.6391 -3.2724 0
M  V30 37 H -3.9187 0.8178 -2.542 0
M  V30 38 H -3.7758 0.668 -4.3052 0
M  V30 39 H 1.4777 0.8056 3.0261 0
M  V30 40 H -1.1148 -2.7009 0.668 0
M  V30 41 H -3.2491 -0.3414 3.9678 0
M  V30 42 H -2.4166 -1.5798 4.9245 0
M  V30 43 H -4.1302 -4.0139 1.6528 0
M  V30 44 H -2.8081 -4.1478 0.5377 0
M  V30 END ATOM
M  V30 BEGIN BOND
M  V30 1 2 1 2
M  V30 2 1 2 3
M  V30 3 1 2 4
M  V30 4 1 3 5
M  V30 5 1 5 6
M  V30 6 1 6 7
M  V30 7 1 6 8
M  V30 8 1 7 9
M  V30 9 1 8 10
M  V30 10 1 9 11
M  V30 11 1 10 12
M  V30 12 2 11 13
M  V30 13 1 11 14
M  V30 14 1 12 15
M  V30 15 1 12 16
M  V30 16 1 15 17
M  V30 17 2 15 18
M  V30 18 2 16 19
M  V30 19 1 17 20
M  V30 20 1 18 21
M  V30 21 2 20 22
M  V30 22 1 20 23
M  V30 23 1 18 19
M  V30 24 1 21 22
M  V30 25 1 4 24
M  V30 26 1 4 25
M  V30 27 1 4 26
M  V30 28 1 5 27
M  V30 29 1 5 28
M  V30 30 1 6 29
M  V30 31 1 7 30
M  V30 32 1 7 31
M  V30 33 1 8 32
M  V30 34 1 8 33
M  V30 35 1 10 34
M  V30 36 1 10 35
M  V30 37 1 14 36
M  V30 38 1 14 37
M  V30 39 1 14 38
M  V30 40 1 16 39
M  V30 41 1 17 40
M  V30 42 1 21 41
M  V30 43 1 21 42
M  V30 44 1 23 43
M  V30 45 1 23 44
M  V30 END BOND
M  V30 END CTAB
M  END
>  <Column 1>
3693

>  <level_0>
6026

>  <index>
6027

>  <Unnamed: 0>
6027

>  <NO.>
6039

>  <Name>
[2-(acetyloxymethyl)-4-(2-amino-3-6-dihydropurin-9-yl)butyl] acetate

>  <IUPAC_name>
[2-(acetyloxymethyl)-4-(2-amino-3-6-dihydropurin-9-yl)butyl] acetate

>  <SMILES>
CC(=O)OCC(CCn1cnc2c1NC(N)=NC2)COC(C)=O

>  <CID>
4713249

>  <logBB>


>  <BBB+/BBB->
BBB+

>  <Inchi>
InChI=1S/C14H21N5O4/c1-9(20)22-6-11(7-23-10(2)21)3-4-19-8-17-12-5-16-14(15)18-13(12)19/h8-11H-3-7H2-1-2H3-(H3-15-16-18)

>  <threshold>


>  <reference>
R24|

>  <group>
C

>  <Class>
-1

>  <ABC>
17.44

>  <ABCGG>
14.82

>  <nAcid>
0

>  <nBase>
3

>  <nAromAtom>
5

>  <nAromBond>
5

>  <nAtom>
44

>  <nHeavyAtom>
23

>  <nSpiro>
0

>  <nBridgehead>
0

>  <nHetero>
9

>  <nN>
5

>  <nO>
4

>  <nF>
0

>  <BalabanJ>
1.79

>  <BertzCT>
592.31

>  <nBonds>
45

>  <nBondsO>
24

>  <nBondsS>
37

>  <nBondsD>
3

>  <nBondsT>
0

>  <nBondsA>
5

>  <nBondsM>
8

>  <nBondsKS>
40

>  <nBondsKD>
5

>  <RNCG>
0.16

>  <RPCG>
0.1

>  <FCSP3>
0.57

>  <SZ>
28.67

>  <Sm>
26.92

>  <Sv>
26.34

>  <Sse>
44.96

>  <Sp>
27.6

>  <Si>
50.65

>  <MZ>
0.65

>  <Mm>
0.61

>  <Mv>
0.6

>  <Mse>
1.02

>  <Mp>
0.63

>  <Mi>
1.15

>  <NsCH3>
2

>  <NdCH2>
0

>  <NssCH2>
5

>  <NtCH>
0

>  <NdsCH>
0

>  <NaaCH>
1

>  <NsssCH>
1

>  <NddC>
0

>  <NtsC>
0

>  <NdssC>
3

>  <NaasC>
2

>  <NaaaC>
0

>  <NssssC>
0

>  <NsNH3>
0

>  <NsNH2>
1

>  <NssNH2>
0

>  <NdNH>
0

>  <NssNH>
1

>  <NaaNH>
0

>  <NtN>
0

>  <NsssNH>
0

>  <NdsN>
1

>  <NaaN>
1

>  <NsssN>
0

>  <NddsN>
0

>  <NaasN>
1

>  <NssssN>
0

>  <NsOH>
0

>  <NdO>
2

>  <NssO>
2

>  <NaaO>
0

>  <NsF>
0

>  <NsSiH3>
0

>  <NssSiH2>
0

>  <NsssSiH>
0

>  <NssssSi>
0

>  <NsPH2>
0

>  <NssPH>
0

>  <NsssP>
0

>  <NdsssP>
0

>  <NsssssP>
0

>  <NsSH>
0

>  <NdS>
0

>  <NssS>
0

>  <NaaS>
0

>  <NdssS>
0

>  <NddssS>
0

>  <NsCl>
0

>  <NsBr>
0

>  <NsI>
0

>  <fragCpx>
70.09

>  <fMF>
0.2

>  <nHBAcc>
9

>  <nHBDon>
2

>  <Kier1>
19.33

>  <Kier2>
9.47

>  <Lipinski>
1

>  <GhoseFilter>
1

>  <FilterItLogS>
-2.33

>  <VMcGowan>
238.28

>  <LabuteASA>
133.41

>  <PEOE_VSA1>
25.09

>  <PEOE_VSA2>
9.59

>  <PEOE_VSA3>
9.98

>  <PEOE_VSA4>
0

>  <PEOE_VSA5>
0

>  <PEOE_VSA6>
0

>  <PEOE_VSA7>
6.42

>  <PEOE_VSA8>
26.31

>  <PEOE_VSA9>
26.09

>  <PEOE_VSA10>
11.51

>  <PEOE_VSA11>
5.96

>  <PEOE_VSA12>
0

>  <PEOE_VSA13>
0

>  <SMR_VSA1>
19.06

>  <SMR_VSA2>
0

>  <SMR_VSA3>
9.55

>  <SMR_VSA4>
16.64

>  <SMR_VSA5>
33.36

>  <SMR_VSA6>
18.53

>  <SMR_VSA7>
12.02

>  <SMR_VSA8>
0

>  <SMR_VSA9>
0

>  <SlogP_VSA1>
11.05

>  <SlogP_VSA2>
40.66

>  <SlogP_VSA3>
32.15

>  <SlogP_VSA4>
5.92

>  <SlogP_VSA5>
25.96

>  <SlogP_VSA6>
11.32

>  <SlogP_VSA7>
0

>  <SlogP_VSA8>
0

>  <SlogP_VSA9>
0

>  <SlogP_VSA10>
5.82

>  <SlogP_VSA11>
0

>  <EState_VSA1>
0

>  <EState_VSA2>
31.07

>  <EState_VSA3>
25.47

>  <EState_VSA4>
11.51

>  <EState_VSA5>
13.85

>  <EState_VSA6>
6.33

>  <EState_VSA7>
4.57

>  <EState_VSA8>
15.29

>  <EState_VSA9>
15.21

>  <EState_VSA10>
9.59

>  <VSA_EState1>
11.97

>  <VSA_EState2>
30.28

>  <VSA_EState3>
2.99

>  <VSA_EState4>
6.51

>  <VSA_EState5>
0.37

>  <VSA_EState6>
0

>  <VSA_EState7>
2.36

>  <VSA_EState8>
4.18

>  <VSA_EState9>
0

>  <apol>
46.09

>  <bpol>
30.27

>  <nRing>
2

>  <nHRing>
2

>  <naRing>
1

>  <naHRing>
1

>  <nARing 2>
1

>  <nAHRing 2>
1

>  <nFRing>
1

>  <nFHRing>
1

>  <nFaRing>
0

>  <nFaHRing>
0

>  <nFARing 2>
1

>  <nFAHRing 2>
1

>  <nRot>
7

>  <SLogP>
0.26

>  <SMR>
82.55

>  <TopoPSA(NO)>
120.83

>  <TopoPSA>
120.83

>  <JGI1>
0.23

>  <JGI2>
0.08

>  <JGI3>
0.03

>  <JGI4>
0.04

>  <JGI5>
0.02

>  <Diameter>
11

>  <Radius>
6

>  <TMWC10>
119.7

>  <TSRW10>
70.52

>  <MW>
323.16

>  <AMW>
7.34

>  <WPath>
1328

>  <WPol>
29

>  <Zagreb1>
112

>  <Zagreb2>
125

>  <mZagreb2>
5.14

>  <yes>


>  <nAR-cont>
0.816016

>  <nHA-cont>
0.967789328

>  <MWHBN>
0.611904836

>  <MWHBN-cont>
0

>  <TPSA-cont>
0

>  <pka_cont>
0.97

>  <yes.1>


>  <BBB_SCORE>
2.268805328

>  <MMFF94 Energy>
-75.357

$$$$
Compound 2891
Actelion Java MolfileCreator 2.0

  0  0  0  0  0  0              0 V3000
M  V30 BEGIN CTAB
M  V30 COUNTS 50 51 0 0 0
M  V30 BEGIN ATOM
M  V30 1 O -0.156 -0.8583 1.0925 0
M  V30 2 C -0.0501 -0.5574 -0.3137 0
M  V30 3 C 1.1186 -0.9913 1.729 0
M  V30 4 C -0.1172 -1.8572 -1.1343 0
M  V30 5 C -1.2139 0.3757 -0.6725 0
M  V30 6 N 1.6061 0.3153 2.1202 0
M  V30 7 O 1.0481 -2.6495 -0.8649 0
M  V30 8 O -1.1527 0.7281 -2.053 0
M  V30 9 C 0.9251 1.3169 2.7284 0
M  V30 10 C 2.8942 0.7733 1.966 0
M  V30 11 C 1.0649 -3.8928 -1.5735 0
M  V30 12 C -2.0744 1.7581 -2.4251 0
M  V30 13 N -0.362 1.3992 3.0921 0
M  V30 14 C 1.811 2.338 2.9169 0
M  V30 15 N 3.049 1.9979 2.44 0
M  V30 16 C 1.5478 -3.6889 -3.0057 0
M  V30 17 C 2.0157 -4.8178 -0.822 0
M  V30 18 C -1.6224 2.2878 -3.7814 0
M  V30 19 C -3.4962 1.2134 -2.5177 0
M  V30 20 C -0.7866 2.5666 3.6787 0
M  V30 21 C 1.3768 3.6113 3.5509 0
M  V30 22 N -0.0771 3.623 3.9254 0
M  V30 23 N -2.094 2.5597 4.0113 0
M  V30 24 H 0.8961 -0.0444 -0.53 0
M  V30 25 H 1.8633 -1.4882 1.1022 0
M  V30 26 H 0.9843 -1.566 2.6509 0
M  V30 27 H -1.0036 -2.4338 -0.845 0
M  V30 28 H -0.1622 -1.631 -2.2034 0
M  V30 29 H -2.1668 -0.1168 -0.4486 0
M  V30 30 H -1.1552 1.2771 -0.05 0
M  V30 31 H 3.6729 0.1788 1.5055 0
M  V30 32 H 0.0645 -4.3423 -1.5695 0
M  V30 33 H -2.0289 2.5785 -1.6986 0
M  V30 34 H -1.029 0.6689 2.8863 0
M  V30 35 H 1.6626 -4.6457 -3.5246 0
M  V30 36 H 0.8421 -3.0793 -3.5781 0
M  V30 37 H 2.5075 -3.1607 -3.0233 0
M  V30 38 H 2.0747 -5.8014 -1.2978 0
M  V30 39 H 1.6788 -4.9508 0.212 0
M  V30 40 H 3.0232 -4.39 -0.7713 0
M  V30 41 H -2.2711 3.0973 -4.1301 0
M  V30 42 H -0.5962 2.6664 -3.7195 0
M  V30 43 H -1.6186 1.491 -4.5335 0
M  V30 44 H -4.1843 1.9672 -2.9133 0
M  V30 45 H -3.8659 0.9074 -1.5341 0
M  V30 46 H -3.5348 0.3274 -3.1608 0
M  V30 47 H 1.9626 3.7881 4.4591 0
M  V30 48 H 1.5564 4.4441 2.8629 0
M  V30 49 H -2.6629 1.7305 4.0132 0
M  V30 50 H -2.4499 3.3942 4.4591 0
M  V30 END ATOM
M  V30 BEGIN BOND
M  V30 1 1 1 2
M  V30 2 1 1 3
M  V30 3 1 2 4
M  V30 4 1 2 5
M  V30 5 1 3 6
M  V30 6 1 4 7
M  V30 7 1 5 8
M  V30 8 1 6 9
M  V30 9 1 6 10
M  V30 10 1 7 11
M  V30 11 1 8 12
M  V30 12 1 9 13
M  V30 13 2 9 14
M  V30 14 2 10 15
M  V30 15 1 11 16
M  V30 16 1 11 17
M  V30 17 1 12 18
M  V30 18 1 12 19
M  V30 19 1 13 20
M  V30 20 1 14 21
M  V30 21 2 20 22
M  V30 22 1 20 23
M  V30 23 1 14 15
M  V30 24 1 21 22
M  V30 25 1 2 24
M  V30 26 1 3 25
M  V30 27 1 3 26
M  V30 28 1 4 27
M  V30 29 1 4 28
M  V30 30 1 5 29
M  V30 31 1 5 30
M  V30 32 1 10 31
M  V30 33 1 11 32
M  V30 34 1 12 33
M  V30 35 1 13 34
M  V30 36 1 16 35
M  V30 37 1 16 36
M  V30 38 1 16 37
M  V30 39 1 17 38
M  V30 40 1 17 39
M  V30 41 1 17 40
M  V30 42 1 18 41
M  V30 43 1 18 42
M  V30 44 1 18 43
M  V30 45 1 19 44
M  V30 46 1 19 45
M  V30 47 1 19 46
M  V30 48 1 21 47
M  V30 49 1 21 48
M  V30 50 1 23 49
M  V30 51 1 23 50
M  V30 END BOND
M  V30 END CTAB
M  END
>  <Column 1>
3698

>  <level_0>
6092

>  <index>
6093

>  <Unnamed: 0>
6093

>  <NO.>
6105

>  <Name>
9-[1-3-di(propan-2-yloxy)propan-2-yloxymethyl]-3-6-dihydropurin-2-amine

>  <IUPAC_name>
9-[1-3-di(propan-2-yloxy)propan-2-yloxymethyl]-3-6-dihydropurin-2-amine

>  <SMILES>
CC(C)OCC(COC(C)C)OCn1cnc2c1NC(N)=NC2

>  <CID>
511883

>  <logBB>


>  <BBB+/BBB->
BBB+

>  <Inchi>
InChI=1S/C15H27N5O3/c1-10(2)21-6-12(7-22-11(3)4)23-9-20-8-18-13-5-17-15(16)19-14(13)20/h8-10-12H-5-7-9H2-1-4H3-(H3-16-17-19)

>  <threshold>


>  <reference>
R24|

>  <group>
C

>  <Class>
1

>  <ABC>
17.44

>  <ABCGG>
14.82

>  <nAcid>
0

>  <nBase>
3

>  <nAromAtom>
5

>  <nAromBond>
5

>  <nAtom>
50

>  <nHeavyAtom>
23

>  <nSpiro>
0

>  <nBridgehead>
0

>  <nHetero>
8

>  <nN>
5

>  <nO>
3

>  <nF>
0

>  <BalabanJ>
1.79

>  <BertzCT>
515.18

>  <nBonds>
51

>  <nBondsO>
24

>  <nBondsS>
45

>  <nBondsD>
1

>  <nBondsT>
0

>  <nBondsA>
5

>  <nBondsM>
6

>  <nBondsKS>
48

>  <nBondsKD>
3

>  <RNCG>
0.14

>  <RPCG>
0.07

>  <FCSP3>
0.73

>  <SZ>
29.33

>  <Sm>
27.09

>  <Sv>
28.25

>  <Sse>
50.29

>  <Sp>
30.51

>  <Si>
57.69

>  <MZ>
0.59

>  <Mm>
0.54

>  <Mv>
0.56

>  <Mse>
1.01

>  <Mp>
0.61

>  <Mi>
1.15

>  <NsCH3>
4

>  <NdCH2>
0

>  <NssCH2>
4

>  <NtCH>
0

>  <NdsCH>
0

>  <NaaCH>
1

>  <NsssCH>
3

>  <NddC>
0

>  <NtsC>
0

>  <NdssC>
1

>  <NaasC>
2

>  <NaaaC>
0

>  <NssssC>
0

>  <NsNH3>
0

>  <NsNH2>
1

>  <NssNH2>
0

>  <NdNH>
0

>  <NssNH>
1

>  <NaaNH>
0

>  <NtN>
0

>  <NsssNH>
0

>  <NdsN>
1

>  <NaaN>
1

>  <NsssN>
0

>  <NddsN>
0

>  <NaasN>
1

>  <NssssN>
0

>  <NsOH>
0

>  <NdO>
0

>  <NssO>
3

>  <NaaO>
0

>  <NsF>
0

>  <NsSiH3>
0

>  <NssSiH2>
0

>  <NsssSiH>
0

>  <NssssSi>
0

>  <NsPH2>
0

>  <NssPH>
0

>  <NsssP>
0

>  <NdsssP>
0

>  <NsssssP>
0

>  <NsSH>
0

>  <NdS>
0

>  <NssS>
0

>  <NaaS>
0

>  <NdssS>
0

>  <NddssS>
0

>  <NsCl>
0

>  <NsBr>
0

>  <NsI>
0

>  <fragCpx>
70.08

>  <fMF>
0.18

>  <nHBAcc>
8

>  <nHBDon>
2

>  <Kier1>
19.33

>  <Kier2>
9.47

>  <Lipinski>
1

>  <GhoseFilter>
1

>  <FilterItLogS>
-2.64

>  <VMcGowan>
255.1

>  <LabuteASA>
136.57

>  <PEOE_VSA1>
25.26

>  <PEOE_VSA2>
4.57

>  <PEOE_VSA3>
9.98

>  <PEOE_VSA4>
0

>  <PEOE_VSA5>
0

>  <PEOE_VSA6>
0

>  <PEOE_VSA7>
27.69

>  <PEOE_VSA8>
0

>  <PEOE_VSA9>
38.29

>  <PEOE_VSA10>
24.35

>  <PEOE_VSA11>
5.96

>  <PEOE_VSA12>
0

>  <PEOE_VSA13>
0

>  <SMR_VSA1>
14.21

>  <SMR_VSA2>
0

>  <SMR_VSA3>
9.55

>  <SMR_VSA4>
10.73

>  <SMR_VSA5>
59.28

>  <SMR_VSA6>
18.53

>  <SMR_VSA7>
12.02

>  <SMR_VSA8>
0

>  <SMR_VSA9>
0

>  <SlogP_VSA1>
11.05

>  <SlogP_VSA2>
47.04

>  <SlogP_VSA3>
27.49

>  <SlogP_VSA4>
0

>  <SlogP_VSA5>
33.39

>  <SlogP_VSA6>
11.32

>  <SlogP_VSA7>
0

>  <SlogP_VSA8>
0

>  <SlogP_VSA9>
0

>  <SlogP_VSA10>
5.82

>  <SlogP_VSA11>
0

>  <EState_VSA1>
0

>  <EState_VSA2>
18.31

>  <EState_VSA3>
32.45

>  <EState_VSA4>
11.51

>  <EState_VSA5>
0

>  <EState_VSA6>
6.33

>  <EState_VSA7>
32.26

>  <EState_VSA8>
15.29

>  <EState_VSA9>
19.94

>  <EState_VSA10>
0

>  <VSA_EState1>
19.11

>  <VSA_EState2>
8.42

>  <VSA_EState3>
3.02

>  <VSA_EState4>
6.57

>  <VSA_EState5>
1.22

>  <VSA_EState6>
0

>  <VSA_EState7>
1.88

>  <VSA_EState8>
9.79

>  <VSA_EState9>
0

>  <apol>
50.96

>  <bpol>
36.28

>  <nRing>
2

>  <nHRing>
2

>  <naRing>
1

>  <naHRing>
1

>  <nARing 2>
1

>  <nAHRing 2>
1

>  <nFRing>
1

>  <nFHRing>
1

>  <nFaRing>
0

>  <nFaHRing>
0

>  <nFARing 2>
1

>  <nFAHRing 2>
1

>  <nRot>
9

>  <SLogP>
1.32

>  <SMR>
88.23

>  <TopoPSA(NO)>
95.92

>  <TopoPSA>
95.92

>  <JGI1>
0.23

>  <JGI2>
0.08

>  <JGI3>
0.03

>  <JGI4>
0.04

>  <JGI5>
0.02

>  <Diameter>
11

>  <Radius>
6

>  <TMWC10>
119.7

>  <TSRW10>
70.52

>  <MW>
325.21

>  <AMW>
6.5

>  <WPath>
1328

>  <WPol>
29

>  <Zagreb1>
112

>  <Zagreb2>
125

>  <mZagreb2>
5.14

>  <yes>


>  <nAR-cont>
0.816016

>  <nHA-cont>
0.967789328

>  <MWHBN>
0.554521072

>  <MWHBN-cont>
0

>  <TPSA-cont>
0.330418837

>  <pka_cont>
0.97

>  <yes.1>


>  <BBB_SCORE>
2.929643003

>  <MMFF94 Energy>
-3.119

$$$$
Compound 2892
Actelion Java MolfileCreator 2.0

  0  0  0  0  0  0              0 V3000
M  V30 BEGIN CTAB
M  V30 COUNTS 58 62 0 0 0
M  V30 BEGIN ATOM
M  V30 1 F 5.7073 -5.3851 -5.949 0
M  V30 2 C 4.9057 -4.9613 -4.9621 0
M  V30 3 C 4.0003 -3.9355 -5.2239 0
M  V30 4 C 5.0071 -5.5621 -3.7074 0
M  V30 5 C 3.2043 -3.5512 -4.1506 0
M  V30 6 C 4.187 -5.1481 -2.6479 0
M  V30 7 O 2.2577 -2.5776 -4.1638 0
M  V30 8 C 3.2627 -4.1145 -2.887 0
M  V30 9 N 1.6763 -2.4782 -2.9126 0
M  V30 10 C 2.2759 -3.4028 -2.1485 0
M  V30 11 C 1.9073 -3.5915 -0.7003 0
M  V30 12 C 2.6617 -2.6273 0.2213 0
M  V30 13 C 0.3993 -3.5397 -0.4228 0
M  V30 14 C 2.0219 -1.2408 0.2723 0
M  V30 15 C -0.1524 -2.1167 -0.2977 0
M  V30 16 N 0.6107 -1.3285 0.6836 0
M  V30 17 C 0.0553 0.0343 0.8359 0
M  V30 18 C -1.2694 0.0695 1.6169 0
M  V30 19 C -1.8073 1.4783 1.714 0
M  V30 20 C -1.2605 2.3143 2.8448 0
M  V30 21 C -2.8076 2.0007 0.9736 0
M  V30 22 O -0.4761 1.8081 3.6495 0
M  V30 23 N -1.7349 3.6176 2.958 0
M  V30 24 N -3.1969 3.3086 1.1702 0
M  V30 25 C -3.534 1.2566 -0.1167 0
M  V30 26 C -1.5473 4.3304 4.1327 0
M  V30 27 C -2.3141 4.2627 1.7884 0 CFG=1
M  V30 28 C -2.0784 5.5449 4.3161 0
M  V30 29 C -3.0248 5.5645 2.0962 0
M  V30 30 C -2.8908 6.1565 3.2974 0
M  V30 31 C -3.7926 6.2306 0.9915 0
M  V30 32 H 3.9244 -3.4704 -6.1972 0
M  V30 33 H 5.7322 -6.3579 -3.5586 0
M  V30 34 H 4.2696 -5.6175 -1.6721 0
M  V30 35 H 2.2337 -4.6081 -0.4378 0
M  V30 36 H 3.7119 -2.5362 -0.0821 0
M  V30 37 H 2.6677 -3.0453 1.2374 0
M  V30 38 H 0.2059 -4.0628 0.524 0
M  V30 39 H -0.1579 -4.0843 -1.195 0
M  V30 40 H 2.5838 -0.6478 1.0049 0
M  V30 41 H 2.123 -0.7326 -0.6948 0
M  V30 42 H -0.1672 -1.6191 -1.2742 0
M  V30 43 H -1.1966 -2.21 0.0191 0
M  V30 44 H -0.0667 0.5088 -0.1472 0
M  V30 45 H 0.7755 0.6513 1.3901 0
M  V30 46 H -2.0154 -0.5835 1.1557 0
M  V30 47 H -1.1198 -0.3496 2.6201 0
M  V30 48 H -3.9872 3.651 0.6408 0
M  V30 49 H -2.9881 0.3822 -0.4794 0
M  V30 50 H -3.6847 1.9075 -0.9855 0
M  V30 51 H -4.5164 0.9315 0.2404 0
M  V30 52 H -0.9822 3.839 4.9212 0
M  V30 53 H -1.4863 4.4776 1.0981 0
M  V30 54 H -1.9375 6.0749 5.2528 0
M  V30 55 H -3.3643 7.1051 3.5313 0
M  V30 56 H -4.0727 7.2578 1.25 0
M  V30 57 H -4.7157 5.6855 0.7728 0
M  V30 58 H -3.1869 6.2777 0.0807 0
M  V30 END ATOM
M  V30 BEGIN BOND
M  V30 1 1 1 2
M  V30 2 2 2 3
M  V30 3 1 2 4
M  V30 4 1 3 5
M  V30 5 2 4 6
M  V30 6 1 5 7
M  V30 7 2 5 8
M  V30 8 1 7 9
M  V30 9 1 8 10
M  V30 10 1 10 11
M  V30 11 1 11 12
M  V30 12 1 11 13
M  V30 13 1 12 14
M  V30 14 1 13 15
M  V30 15 1 14 16
M  V30 16 1 16 17
M  V30 17 1 17 18
M  V30 18 1 18 19
M  V30 19 1 19 20
M  V30 20 2 19 21
M  V30 21 2 20 22
M  V30 22 1 20 23
M  V30 23 1 21 24
M  V30 24 1 21 25
M  V30 25 1 23 26
M  V30 26 1 23 27
M  V30 27 2 26 28
M  V30 28 1 27 29
M  V30 29 1 28 30
M  V30 30 1 29 31
M  V30 31 1 6 8
M  V30 32 2 9 10
M  V30 33 1 15 16
M  V30 34 1 24 27
M  V30 35 2 29 30
M  V30 36 1 3 32
M  V30 37 1 4 33
M  V30 38 1 6 34
M  V30 39 1 11 35
M  V30 40 1 12 36
M  V30 41 1 12 37
M  V30 42 1 13 38
M  V30 43 1 13 39
M  V30 44 1 14 40
M  V30 45 1 14 41
M  V30 46 1 15 42
M  V30 47 1 15 43
M  V30 48 1 17 44
M  V30 49 1 17 45
M  V30 50 1 18 46
M  V30 51 1 18 47
M  V30 52 1 24 48
M  V30 53 1 25 49
M  V30 54 1 25 50
M  V30 55 1 25 51
M  V30 56 1 26 52
M  V30 57 1 27 53
M  V30 58 1 28 54
M  V30 59 1 30 55
M  V30 60 1 31 56
M  V30 61 1 31 57
M  V30 62 1 31 58
M  V30 END BOND
M  V30 BEGIN COLLECTION
M  V30 MDLV30/STEABS ATOMS=(1 27)
M  V30 END COLLECTION
M  V30 END CTAB
M  END
>  <Column 1>
3702

>  <level_0>
6150

>  <index>
6151

>  <Unnamed: 0>
6151

>  <NO.>
6163

>  <Name>


>  <IUPAC_name>


>  <SMILES>
CC1=CC=CN2C(=O)C(CCN3CCC(c4noc5cc(F)ccc45)CC3)=C(C)N[C@@H]12

>  <CID>


>  <logBB>


>  <BBB+/BBB->
BBB+

>  <Inchi>
InChI=1S/C24H27FN4O2/c1-15-4-3-10-29-23(15)26-16(2)19(24(29)30)9-13-28-11-7-17(8-12-28)22-20-6-5-18(25)14-21(20)31-27-22/h3-6-10-14-17-23-26H-7-9-11-13H2-1-2H3/t23-/m1/s1

>  <threshold>


>  <reference>
R24|

>  <group>
C

>  <Class>
1

>  <ABC>
24.86

>  <ABCGG>
17.81

>  <nAcid>
0

>  <nBase>
1

>  <nAromAtom>
9

>  <nAromBond>
10

>  <nAtom>
58

>  <nHeavyAtom>
31

>  <nSpiro>
0

>  <nBridgehead>
0

>  <nHetero>
7

>  <nN>
4

>  <nO>
2

>  <nF>
1

>  <BalabanJ>
1.09

>  <BertzCT>
1107.98

>  <nBonds>
62

>  <nBondsO>
35

>  <nBondsS>
48

>  <nBondsD>
4

>  <nBondsT>
0

>  <nBondsA>
10

>  <nBondsM>
14

>  <nBondsKS>
54

>  <nBondsKD>
8

>  <RNCG>
0.16

>  <RPCG>
0.12

>  <FCSP3>
0.42

>  <SZ>
37.33

>  <Sm>
35.18

>  <Sv>
36.42

>  <Sse>
58.26

>  <Sp>
38.71

>  <Si>
65.74

>  <MZ>
0.64

>  <Mm>
0.61

>  <Mv>
0.63

>  <Mse>
1

>  <Mp>
0.67

>  <Mi>
1.13

>  <NsCH3>
2

>  <NdCH2>
0

>  <NssCH2>
6

>  <NtCH>
0

>  <NdsCH>
3

>  <NaaCH>
3

>  <NsssCH>
2

>  <NddC>
0

>  <NtsC>
0

>  <NdssC>
4

>  <NaasC>
2

>  <NaaaC>
2

>  <NssssC>
0

>  <NsNH3>
0

>  <NsNH2>
0

>  <NssNH2>
0

>  <NdNH>
0

>  <NssNH>
1

>  <NaaNH>
0

>  <NtN>
0

>  <NsssNH>
0

>  <NdsN>
0

>  <NaaN>
1

>  <NsssN>
2

>  <NddsN>
0

>  <NaasN>
0

>  <NssssN>
0

>  <NsOH>
0

>  <NdO>
1

>  <NssO>
0

>  <NaaO>
1

>  <NsF>
1

>  <NsSiH3>
0

>  <NssSiH2>
0

>  <NsssSiH>
0

>  <NssssSi>
0

>  <NsPH2>
0

>  <NssPH>
0

>  <NsssP>
0

>  <NdsssP>
0

>  <NsssssP>
0

>  <NsSH>
0

>  <NdS>
0

>  <NssS>
0

>  <NaaS>
0

>  <NdssS>
0

>  <NddssS>
0

>  <NsCl>
0

>  <NsBr>
0

>  <NsI>
0

>  <fragCpx>
295.07

>  <fMF>
0.47

>  <nHBAcc>
5

>  <nHBDon>
1

>  <Kier1>
22.78

>  <Kier2>
9.7

>  <Lipinski>
1

>  <GhoseFilter>
1

>  <FilterItLogS>
-5.24

>  <VMcGowan>
313.74

>  <LabuteASA>
180.59

>  <PEOE_VSA1>
14.74

>  <PEOE_VSA2>
9.69

>  <PEOE_VSA3>
4.39

>  <PEOE_VSA4>
0

>  <PEOE_VSA5>
0

>  <PEOE_VSA6>
11.23

>  <PEOE_VSA7>
69.98

>  <PEOE_VSA8>
41.39

>  <PEOE_VSA9>
5.69

>  <PEOE_VSA10>
11.98

>  <PEOE_VSA11>
5.58

>  <PEOE_VSA12>
0

>  <PEOE_VSA13>
5.91

>  <SMR_VSA1>
13.71

>  <SMR_VSA2>
0

>  <SMR_VSA3>
20.27

>  <SMR_VSA4>
0

>  <SMR_VSA5>
45.19

>  <SMR_VSA6>
19.63

>  <SMR_VSA7>
64.91

>  <SMR_VSA8>
0

>  <SMR_VSA9>
0

>  <SlogP_VSA1>
5.32

>  <SlogP_VSA2>
46.66

>  <SlogP_VSA3>
4.79

>  <SlogP_VSA4>
5.82

>  <SlogP_VSA5>
44.72

>  <SlogP_VSA6>
57.92

>  <SlogP_VSA7>
0

>  <SlogP_VSA8>
10.97

>  <SlogP_VSA9>
0

>  <SlogP_VSA10>
4.39

>  <SlogP_VSA11>
0

>  <EState_VSA1>
0

>  <EState_VSA2>
17.89

>  <EState_VSA3>
11.5

>  <EState_VSA4>
66.82

>  <EState_VSA5>
12.13

>  <EState_VSA6>
10.97

>  <EState_VSA7>
32.2

>  <EState_VSA8>
15.37

>  <EState_VSA9>
4.52

>  <EState_VSA10>
9.18

>  <VSA_EState1>
18.75

>  <VSA_EState2>
17.24

>  <VSA_EState3>
8.63

>  <VSA_EState4>
4.43

>  <VSA_EState5>
0.11

>  <VSA_EState6>
4.62

>  <VSA_EState7>
8.44

>  <VSA_EState8>
6.79

>  <VSA_EState9>
0

>  <apol>
64.64

>  <bpol>
34.79

>  <nRing>
5

>  <nHRing>
4

>  <naRing>
2

>  <naHRing>
1

>  <nARing 2>
3

>  <nAHRing 2>
3

>  <nFRing>
2

>  <nFHRing>
2

>  <nFaRing>
1

>  <nFaHRing>
1

>  <nFARing 2>
1

>  <nFAHRing 2>
1

>  <nRot>
4

>  <SLogP>
4.04

>  <SMR>
116.37

>  <TopoPSA(NO)>
61.61

>  <TopoPSA>
61.61

>  <JGI1>
0.17

>  <JGI2>
0.09

>  <JGI3>
0.05

>  <JGI4>
0.05

>  <JGI5>
0.03

>  <Diameter>
17

>  <Radius>
9

>  <TMWC10>
144.58

>  <TSRW10>
81.35

>  <MW>
422.21

>  <AMW>
7.28

>  <WPath>
3047

>  <WPol>
54

>  <Zagreb1>
172

>  <Zagreb2>
208

>  <mZagreb2>
6.64

>  <yes>


>  <nAR-cont>
0.691115

>  <nHA-cont>
0.702745138

>  <MWHBN>
0.292002784

>  <MWHBN-cont>
0.86395542

>  <TPSA-cont>
0.569923942

>  <pka_cont>
0.97

>  <yes.1>


>  <BBB_SCORE>
4.314641153

>  <MMFF94 Energy>
-7.7816

$$$$
Compound 2893
Actelion Java MolfileCreator 2.0

  0  0  0  0  0  0              0 V3000
M  V30 BEGIN CTAB
M  V30 COUNTS 39 43 0 0 0
M  V30 BEGIN ATOM
M  V30 1 O 0.4867 -1.3795 -1.948 0
M  V30 2 C 1.4573 -1.0003 -1.0596 0
M  V30 3 C -0.7675 -0.8597 -1.3862 0 CFG=2
M  V30 4 C 2.813 -1.1942 -1.2089 0
M  V30 5 C 0.9532 -0.5084 0.1167 0
M  V30 6 C -1.158 0.2993 -2.3092 0
M  V30 7 C -0.5361 -0.4531 0.0834 0 CFG=1
M  V30 8 O 3.3324 -1.6768 -2.3705 0
M  V30 9 C 3.6581 -0.9219 -0.1326 0
M  V30 10 C 1.742 -0.3605 1.2492 0
M  V30 11 C -1.1608 1.5865 -1.9039 0
M  V30 12 C -1.4901 -0.0764 -3.7265 0
M  V30 13 C -1.2356 0.8613 0.4546 0 CFG=2
M  V30 14 C -0.9501 -1.281 1.2945 0
M  V30 15 C 3.1214 -0.5272 1.109 0
M  V30 16 C 1.0275 -0.2262 2.5744 0
M  V30 17 C -0.8722 2.0058 -0.4856 0
M  V30 18 N -0.9452 1.066 1.8918 0
M  V30 19 C -0.5312 -0.2711 2.4089 0 CFG=1
M  V30 20 C -2.0957 1.6019 2.6114 0
M  V30 21 H -1.5246 -1.6505 -1.4485 0
M  V30 22 H 2.5683 -1.8035 -2.9642 0
M  V30 23 H 4.7287 -1.0739 -0.2376 0
M  V30 24 H -1.3862 2.3851 -2.607 0
M  V30 25 H -2.3235 -0.7861 -3.7432 0
M  V30 26 H -0.6281 -0.5388 -4.2173 0
M  V30 27 H -1.7846 0.7931 -4.3235 0
M  V30 28 H -2.3198 0.6868 0.3419 0
M  V30 29 H -0.4404 -2.2468 1.3901 0
M  V30 30 H -2.0323 -1.4602 1.3119 0
M  V30 31 H 3.7814 -0.4093 1.9645 0
M  V30 32 H 1.3419 0.6921 3.0841 0
M  V30 33 H 1.3223 -1.0764 3.2024 0
M  V30 34 H 0.1785 2.3021 -0.3933 0
M  V30 35 H -1.4815 2.8843 -0.2427 0
M  V30 36 H -0.9912 -0.5145 3.3736 0
M  V30 37 H -1.8375 1.7746 3.6619 0
M  V30 38 H -2.3925 2.5706 2.1951 0
M  V30 39 H -2.9609 0.9301 2.5773 0
M  V30 END ATOM
M  V30 BEGIN BOND
M  V30 1 1 1 2
M  V30 2 1 1 3
M  V30 3 2 2 4
M  V30 4 1 2 5
M  V30 5 1 3 6
M  V30 6 1 3 7
M  V30 7 1 4 8
M  V30 8 1 4 9
M  V30 9 2 5 10
M  V30 10 2 6 11
M  V30 11 1 6 12
M  V30 12 1 7 13
M  V30 13 1 7 14
M  V30 14 2 9 15
M  V30 15 1 10 16
M  V30 16 1 11 17
M  V30 17 1 13 18
M  V30 18 1 14 19
M  V30 19 1 18 20
M  V30 20 1 5 7
M  V30 21 1 10 15
M  V30 22 1 13 17
M  V30 23 1 16 19
M  V30 24 1 18 19
M  V30 25 1 3 21
M  V30 26 1 8 22
M  V30 27 1 9 23
M  V30 28 1 11 24
M  V30 29 1 12 25
M  V30 30 1 12 26
M  V30 31 1 12 27
M  V30 32 1 13 28
M  V30 33 1 14 29
M  V30 34 1 14 30
M  V30 35 1 15 31
M  V30 36 1 16 32
M  V30 37 1 16 33
M  V30 38 1 17 34
M  V30 39 1 17 35
M  V30 40 1 19 36
M  V30 41 1 20 37
M  V30 42 1 20 38
M  V30 43 1 20 39
M  V30 END BOND
M  V30 BEGIN COLLECTION
M  V30 MDLV30/STEABS ATOMS=(4 3 7 13 19)
M  V30 END COLLECTION
M  V30 END CTAB
M  END
>  <Column 1>
3703

>  <level_0>
6151

>  <index>
6152

>  <Unnamed: 0>
6152

>  <NO.>
6164

>  <Name>


>  <IUPAC_name>


>  <SMILES>
CC1=CC[C@@H]2N(C)[C@@H]3Cc4ccc(O)c5c4[C@]2(C3)[C@@H]1O5

>  <CID>


>  <logBB>


>  <BBB+/BBB->
BBB+

>  <Inchi>
InChI=1S/C17H19NO2/c1-9-3-6-13-17-8-11(18(13)2)7-10-4-5-12(19)15(14(10)17)20-16(9)17/h3-5-11-13-16-19H-6-8H2-1-2H3/t11--13+-16--17-/m1/s1

>  <threshold>


>  <reference>
R24|

>  <group>
C

>  <Class>
1

>  <ABC>
16.87

>  <ABCGG>
13.6

>  <nAcid>
0

>  <nBase>
1

>  <nAromAtom>
6

>  <nAromBond>
6

>  <nAtom>
39

>  <nHeavyAtom>
20

>  <nSpiro>
1

>  <nBridgehead>
2

>  <nHetero>
3

>  <nN>
1

>  <nO>
2

>  <nF>
0

>  <BalabanJ>
1.67

>  <BertzCT>
665.2

>  <nBonds>
43

>  <nBondsO>
24

>  <nBondsS>
36

>  <nBondsD>
1

>  <nBondsT>
0

>  <nBondsA>
6

>  <nBondsM>
7

>  <nBondsKS>
39

>  <nBondsKD>
4

>  <RNCG>
0.31

>  <RPCG>
0.18

>  <FCSP3>
0.53

>  <SZ>
24

>  <Sm>
22.42

>  <Sv>
24.33

>  <Sse>
38.76

>  <Sp>
26.21

>  <Si>
43.65

>  <MZ>
0.62

>  <Mm>
0.57

>  <Mv>
0.62

>  <Mse>
0.99

>  <Mp>
0.67

>  <Mi>
1.12

>  <NsCH3>
2

>  <NdCH2>
0

>  <NssCH2>
3

>  <NtCH>
0

>  <NdsCH>
1

>  <NaaCH>
2

>  <NsssCH>
3

>  <NddC>
0

>  <NtsC>
0

>  <NdssC>
1

>  <NaasC>
4

>  <NaaaC>
0

>  <NssssC>
1

>  <NsNH3>
0

>  <NsNH2>
0

>  <NssNH2>
0

>  <NdNH>
0

>  <NssNH>
0

>  <NaaNH>
0

>  <NtN>
0

>  <NsssNH>
0

>  <NdsN>
0

>  <NaaN>
0

>  <NsssN>
1

>  <NddsN>
0

>  <NaasN>
0

>  <NssssN>
0

>  <NsOH>
1

>  <NdO>
0

>  <NssO>
1

>  <NaaO>
0

>  <NsF>
0

>  <NsSiH3>
0

>  <NssSiH2>
0

>  <NsssSiH>
0

>  <NssssSi>
0

>  <NsPH2>
0

>  <NssPH>
0

>  <NsssP>
0

>  <NdsssP>
0

>  <NsssssP>
0

>  <NsSH>
0

>  <NdS>
0

>  <NssS>
0

>  <NaaS>
0

>  <NdssS>
0

>  <NddssS>
0

>  <NsCl>
0

>  <NsBr>
0

>  <NsI>
0

>  <fragCpx>
196.03

>  <fMF>
0.44

>  <nHBAcc>
3

>  <nHBDon>
1

>  <Kier1>
12.53

>  <Kier2>
3.85

>  <Lipinski>
1

>  <GhoseFilter>
1

>  <FilterItLogS>
-2.9

>  <VMcGowan>
200.61

>  <LabuteASA>
118.4

>  <PEOE_VSA1>
9.84

>  <PEOE_VSA2>
4.9

>  <PEOE_VSA3>
0

>  <PEOE_VSA4>
0

>  <PEOE_VSA5>
0

>  <PEOE_VSA6>
12.14

>  <PEOE_VSA7>
50.44

>  <PEOE_VSA8>
17.65

>  <PEOE_VSA9>
5.41

>  <PEOE_VSA10>
6.1

>  <PEOE_VSA11>
11.5

>  <PEOE_VSA12>
0

>  <PEOE_VSA13>
0

>  <SMR_VSA1>
9.84

>  <SMR_VSA2>
0

>  <SMR_VSA3>
4.9

>  <SMR_VSA4>
0

>  <SMR_VSA5>
49.79

>  <SMR_VSA6>
7.05

>  <SMR_VSA7>
34.91

>  <SMR_VSA8>
0

>  <SMR_VSA9>
11.5

>  <SlogP_VSA1>
4.74

>  <SlogP_VSA2>
35.24

>  <SlogP_VSA3>
11.84

>  <SlogP_VSA4>
0

>  <SlogP_VSA5>
30.89

>  <SlogP_VSA6>
23.78

>  <SlogP_VSA7>
0

>  <SlogP_VSA8>
0

>  <SlogP_VSA9>
0

>  <SlogP_VSA10>
0

>  <SlogP_VSA11>
11.5

>  <EState_VSA1>
0

>  <EState_VSA2>
11.52

>  <EState_VSA3>
17.83

>  <EState_VSA4>
18.59

>  <EState_VSA5>
23.12

>  <EState_VSA6>
6.07

>  <EState_VSA7>
0

>  <EState_VSA8>
31.01

>  <EState_VSA9>
4.74

>  <EState_VSA10>
5.11

>  <VSA_EState1>
6.27

>  <VSA_EState2>
2.56

>  <VSA_EState3>
10.23

>  <VSA_EState4>
4.12

>  <VSA_EState5>
1.08

>  <VSA_EState6>
5.05

>  <VSA_EState7>
5.82

>  <VSA_EState8>
2.18

>  <VSA_EState9>
2.26

>  <apol>
43.76

>  <bpol>
22.51

>  <nRing>
5

>  <nHRing>
2

>  <naRing>
1

>  <naHRing>
0

>  <nARing 2>
4

>  <nAHRing 2>
2

>  <nFRing>
1

>  <nFHRing>
1

>  <nFaRing>
0

>  <nFaHRing>
0

>  <nFARing 2>
1

>  <nFAHRing 2>
1

>  <nRot>
0

>  <SLogP>
2.37

>  <SMR>
76.23

>  <TopoPSA(NO)>
32.7

>  <TopoPSA>
32.7

>  <JGI1>
0.21

>  <JGI2>
0.1

>  <JGI3>
0.06

>  <JGI4>
0.06

>  <JGI5>
0.03

>  <Diameter>
7

>  <Radius>
4

>  <TMWC10>
123.36

>  <TSRW10>
72.46

>  <MW>
269.14

>  <AMW>
6.9

>  <WPath>
618

>  <WPol>
46

>  <Zagreb1>
128

>  <Zagreb2>
169

>  <mZagreb2>
4.04

>  <yes>


>  <nAR-cont>
0.199399

>  <nHA-cont>
0.999629945

>  <MWHBN>
0.243820865

>  <MWHBN-cont>
0.969552324

>  <TPSA-cont>
0.771733695

>  <pka_cont>
0.97

>  <yes.1>


>  <BBB_SCORE>
4.68182482

>  <MMFF94 Energy>
98.631

$$$$
Compound 2894
Actelion Java MolfileCreator 2.0

  0  0  0  0  0  0              0 V3000
M  V30 BEGIN CTAB
M  V30 COUNTS 44 47 0 0 0
M  V30 BEGIN ATOM
M  V30 1 N 0.7164 -0.9553 1.2739 0
M  V30 2 C 0.2065 -0.1526 0.39 0
M  V30 3 C 2.0556 -1.3409 1.4082 0
M  V30 4 N -1.1601 0.1093 0.4662 0
M  V30 5 N 0.8087 0.4986 -0.6624 0
M  V30 6 C 3.0239 -1.411 0.3945 0
M  V30 7 C 2.4193 -1.7578 2.6992 0
M  V30 8 C -2.0599 -0.948 0.96 0
M  V30 9 C -1.6027 1.4553 0.8766 0
M  V30 10 N 0.1697 1.03 -1.7322 0
M  V30 11 C 2.2129 0.4594 -1.0319 0 CFG=1
M  V30 12 C 4.3143 -1.8954 0.6933 0
M  V30 13 C 2.7347 -0.9735 -1.0166 0
M  V30 14 C 3.7008 -2.2259 2.9925 0
M  V30 15 C -3.5147 -0.6677 0.5266 0
M  V30 16 C -3.0632 1.7042 0.4443 0
M  V30 17 C 1.0773 1.2905 -2.7168 0
M  V30 18 N 2.3328 1.0067 -2.4443 0
M  V30 19 C 4.6508 -2.2969 1.9842 0
M  V30 20 N -3.9907 0.6689 0.9457 0
M  V30 21 C 0.6578 1.822 -4.0481 0
M  V30 22 C -5.3499 0.9097 0.4685 0
M  V30 23 H 1.6738 -1.7196 3.4909 0
M  V30 24 H -1.7581 -1.9197 0.5512 0
M  V30 25 H -1.9992 -1.0087 2.0539 0
M  V30 26 H -1.5144 1.5472 1.9667 0
M  V30 27 H -0.9688 2.2334 0.4373 0
M  V30 28 H -0.8379 0.989 -1.8214 0
M  V30 29 H 2.7973 1.1164 -0.3751 0
M  V30 30 H 5.071 -1.9584 -0.0863 0
M  V30 31 H 3.6503 -1.028 -1.6191 0
M  V30 32 H 2.0239 -1.6726 -1.4757 0
M  V30 33 H 3.946 -2.5395 4.003 0
M  V30 34 H -4.1586 -1.4391 0.9654 0
M  V30 35 H -3.582 -0.7651 -0.5653 0
M  V30 36 H -3.3714 2.6856 0.8243 0
M  V30 37 H -3.1039 1.7486 -0.6523 0
M  V30 38 H 5.6501 -2.6652 2.1989 0
M  V30 39 H -0.1807 2.5131 -3.9281 0
M  V30 40 H 1.4908 2.3447 -4.5255 0
M  V30 41 H 0.3462 0.9884 -4.6832 0
M  V30 42 H -6.0374 0.1594 0.8742 0
M  V30 43 H -5.4177 0.8838 -0.6249 0
M  V30 44 H -5.7098 1.8856 0.8127 0
M  V30 END ATOM
M  V30 BEGIN BOND
M  V30 1 2 1 2
M  V30 2 1 1 3
M  V30 3 1 2 4
M  V30 4 1 2 5
M  V30 5 2 3 6
M  V30 6 1 3 7
M  V30 7 1 4 8
M  V30 8 1 4 9
M  V30 9 1 5 10
M  V30 10 1 5 11
M  V30 11 1 6 12
M  V30 12 1 6 13
M  V30 13 2 7 14
M  V30 14 1 8 15
M  V30 15 1 9 16
M  V30 16 1 10 17
M  V30 17 1 11 18
M  V30 18 2 12 19
M  V30 19 1 15 20
M  V30 20 1 17 21
M  V30 21 1 20 22
M  V30 22 1 11 13
M  V30 23 1 14 19
M  V30 24 1 16 20
M  V30 25 2 17 18
M  V30 26 1 7 23
M  V30 27 1 8 24
M  V30 28 1 8 25
M  V30 29 1 9 26
M  V30 30 1 9 27
M  V30 31 1 10 28
M  V30 32 1 11 29
M  V30 33 1 12 30
M  V30 34 1 13 31
M  V30 35 1 13 32
M  V30 36 1 14 33
M  V30 37 1 15 34
M  V30 38 1 15 35
M  V30 39 1 16 36
M  V30 40 1 16 37
M  V30 41 1 19 38
M  V30 42 1 21 39
M  V30 43 1 21 40
M  V30 44 1 21 41
M  V30 45 1 22 42
M  V30 46 1 22 43
M  V30 47 1 22 44
M  V30 END BOND
M  V30 BEGIN COLLECTION
M  V30 MDLV30/STEABS ATOMS=(1 11)
M  V30 END COLLECTION
M  V30 END CTAB
M  END
>  <Column 1>
3704

>  <level_0>
6154

>  <index>
6155

>  <Unnamed: 0>
6155

>  <NO.>
6167

>  <Name>


>  <IUPAC_name>


>  <SMILES>
CC1=N[C@@H]2Cc3ccccc3N=C(N3CCN(C)CC3)N2N1

>  <CID>


>  <logBB>


>  <BBB+/BBB->
BBB+

>  <Inchi>
InChI=1S/C16H22N6/c1-12-17-15-11-13-5-3-4-6-14(13)18-16(22(15)19-12)21-9-7-20(2)8-10-21/h3-6-15H-7-11H2-1-2H3-(H-17-19)/t15-/m0/s1

>  <threshold>


>  <reference>
R24|

>  <group>
C

>  <Class>
1

>  <ABC>
17.73

>  <ABCGG>
13.93

>  <nAcid>
0

>  <nBase>
6

>  <nAromAtom>
6

>  <nAromBond>
6

>  <nAtom>
44

>  <nHeavyAtom>
22

>  <nSpiro>
0

>  <nBridgehead>
0

>  <nHetero>
6

>  <nN>
6

>  <nO>
0

>  <nF>
0

>  <BalabanJ>
1.54

>  <BertzCT>
629.28

>  <nBonds>
47

>  <nBondsO>
25

>  <nBondsS>
39

>  <nBondsD>
2

>  <nBondsT>
0

>  <nBondsA>
6

>  <nBondsM>
8

>  <nBondsKS>
42

>  <nBondsKD>
5

>  <RNCG>
0.18

>  <RPCG>
0.12

>  <FCSP3>
0.5

>  <SZ>
26.67

>  <Sm>
24.84

>  <Sv>
26.51

>  <Sse>
43.75

>  <Sp>
28.74

>  <Si>
50.31

>  <MZ>
0.61

>  <Mm>
0.56

>  <Mv>
0.6

>  <Mse>
0.99

>  <Mp>
0.65

>  <Mi>
1.14

>  <NsCH3>
2

>  <NdCH2>
0

>  <NssCH2>
5

>  <NtCH>
0

>  <NdsCH>
0

>  <NaaCH>
4

>  <NsssCH>
1

>  <NddC>
0

>  <NtsC>
0

>  <NdssC>
2

>  <NaasC>
2

>  <NaaaC>
0

>  <NssssC>
0

>  <NsNH3>
0

>  <NsNH2>
0

>  <NssNH2>
0

>  <NdNH>
0

>  <NssNH>
1

>  <NaaNH>
0

>  <NtN>
0

>  <NsssNH>
0

>  <NdsN>
2

>  <NaaN>
0

>  <NsssN>
3

>  <NddsN>
0

>  <NaasN>
0

>  <NssssN>
0

>  <NsOH>
0

>  <NdO>
0

>  <NssO>
0

>  <NaaO>
0

>  <NsF>
0

>  <NsSiH3>
0

>  <NssSiH2>
0

>  <NsssSiH>
0

>  <NssssSi>
0

>  <NsPH2>
0

>  <NssPH>
0

>  <NsssP>
0

>  <NdsssP>
0

>  <NsssssP>
0

>  <NsSH>
0

>  <NdS>
0

>  <NssS>
0

>  <NaaS>
0

>  <NdssS>
0

>  <NddssS>
0

>  <NsCl>
0

>  <NsBr>
0

>  <NsI>
0

>  <fragCpx>
163.06

>  <fMF>
0.45

>  <nHBAcc>
6

>  <nHBDon>
1

>  <Kier1>
15.52

>  <Kier2>
6.48

>  <Lipinski>
1

>  <GhoseFilter>
1

>  <FilterItLogS>
-2.66

>  <VMcGowan>
231.24

>  <LabuteASA>
130.65

>  <PEOE_VSA1>
9.8

>  <PEOE_VSA2>
5.43

>  <PEOE_VSA3>
14.99

>  <PEOE_VSA4>
0

>  <PEOE_VSA5>
0

>  <PEOE_VSA6>
18.2

>  <PEOE_VSA7>
25.6

>  <PEOE_VSA8>
32.6

>  <PEOE_VSA9>
5.69

>  <PEOE_VSA10>
12

>  <PEOE_VSA11>
0

>  <PEOE_VSA12>
5.96

>  <PEOE_VSA13>
0

>  <SMR_VSA1>
0

>  <SMR_VSA2>
0

>  <SMR_VSA3>
20.23

>  <SMR_VSA4>
9.98

>  <SMR_VSA5>
19.51

>  <SMR_VSA6>
33.23

>  <SMR_VSA7>
29.83

>  <SMR_VSA8>
0

>  <SMR_VSA9>
0

>  <SlogP_VSA1>
5.43

>  <SlogP_VSA2>
66

>  <SlogP_VSA3>
6.42

>  <SlogP_VSA4>
0

>  <SlogP_VSA5>
12.49

>  <SlogP_VSA6>
34.25

>  <SlogP_VSA7>
0

>  <SlogP_VSA8>
0

>  <SlogP_VSA9>
0

>  <SlogP_VSA10>
5.69

>  <SlogP_VSA11>
0

>  <EState_VSA1>
0

>  <EState_VSA2>
6.17

>  <EState_VSA3>
0

>  <EState_VSA4>
50.08

>  <EState_VSA5>
5.56

>  <EState_VSA6>
0

>  <EState_VSA7>
6.92

>  <EState_VSA8>
51.55

>  <EState_VSA9>
9.98

>  <EState_VSA10>
0

>  <VSA_EState1>
0

>  <VSA_EState2>
14.45

>  <VSA_EState3>
2.14

>  <VSA_EState4>
5.72

>  <VSA_EState5>
1.97

>  <VSA_EState6>
8.4

>  <VSA_EState7>
0.99

>  <VSA_EState8>
6.16

>  <VSA_EState9>
2.17

>  <apol>
47.99

>  <bpol>
28.91

>  <nRing>
4

>  <nHRing>
3

>  <naRing>
1

>  <naHRing>
0

>  <nARing 2>
3

>  <nAHRing 2>
3

>  <nFRing>
1

>  <nFHRing>
1

>  <nFaRing>
0

>  <nFaHRing>
0

>  <nFARing 2>
1

>  <nFAHRing 2>
1

>  <nRot>
0

>  <SLogP>
1.04

>  <SMR>
88.18

>  <TopoPSA(NO)>
46.47

>  <TopoPSA>
46.47

>  <JGI1>
0.18

>  <JGI2>
0.07

>  <JGI3>
0.04

>  <JGI4>
0.04

>  <JGI5>
0.02

>  <Diameter>
10

>  <Radius>
5

>  <TMWC10>
122.43

>  <TSRW10>
70.73

>  <MW>
298.19

>  <AMW>
6.78

>  <WPath>
958

>  <WPol>
38

>  <Zagreb1>
122

>  <Zagreb2>
146

>  <mZagreb2>
4.69

>  <yes>


>  <nAR-cont>
0.691115

>  <nHA-cont>
0.983774276

>  <MWHBN>
0.405369904

>  <MWHBN-cont>
0.454954751

>  <TPSA-cont>
0.675610544

>  <pka_cont>
0.97

>  <yes.1>


>  <BBB_SCORE>
4.193542489

>  <MMFF94 Energy>
70.146

$$$$
Compound 2895
Actelion Java MolfileCreator 2.0

  0  0  0  0  0  0              0 V3000
M  V30 BEGIN CTAB
M  V30 COUNTS 56 58 0 0 0
M  V30 BEGIN ATOM
M  V30 1 O -2.1325 3.2397 -1.1843 0
M  V30 2 C -1.2614 2.512 -0.4025 0
M  V30 3 C -3.1968 2.5445 -1.8182 0
M  V30 4 C -0.1453 3.2999 0.141 0
M  V30 5 C -1.3281 1.1861 -0.1569 0
M  V30 6 O 0.0262 4.5236 -0.4673 0
M  V30 7 C 0.6024 2.7937 1.1455 0
M  V30 8 C -0.316 0.5346 0.674 0
M  V30 9 C 1.0898 5.3505 -0.019 0
M  V30 10 C 0.2713 1.4403 1.7544 0 CFG=1
M  V30 11 C 0.154 -0.7191 0.4906 0
M  V30 12 C 1.4232 0.8066 2.5442 0
M  V30 13 N 1.2225 -1.2167 1.252 0
M  V30 14 C -0.4159 -1.5686 -0.5821 0
M  V30 15 C 1.8433 -0.4566 2.2607 0
M  V30 16 C 1.9499 1.6227 3.7136 0
M  V30 17 N 1.7349 -2.5016 0.9877 0
M  V30 18 C 0.0451 -1.4454 -1.9004 0
M  V30 19 C -1.4289 -2.4863 -0.2874 0
M  V30 20 C 2.9533 -1.1395 3.0407 0
M  V30 21 C 1.2561 1.2614 5.0213 0
M  V30 22 C -0.4989 -2.2348 -2.9192 0
M  V30 23 C -1.9717 -3.284 -1.297 0
M  V30 24 O -0.1071 -2.1776 -4.2343 0
M  V30 25 C -1.5122 -3.1674 -2.6135 0
M  V30 26 C 0.8091 -1.156 -4.6026 0
M  V30 27 O -1.988 -3.9067 -3.6681 0
M  V30 28 C -2.9925 -4.8733 -3.3974 0
M  V30 29 H -2.8141 1.7915 -2.5148 0
M  V30 30 H -3.7774 3.2709 -2.3947 0
M  V30 31 H -3.8652 2.0912 -1.0789 0
M  V30 32 H -2.0926 0.5613 -0.6014 0
M  V30 33 H 1.4203 3.3618 1.5641 0
M  V30 34 H 0.9553 5.6282 1.0314 0
M  V30 35 H 1.0759 6.2691 -0.6131 0
M  V30 36 H 2.0582 4.8642 -0.1753 0
M  V30 37 H -0.5251 1.6146 2.4951 0
M  V30 38 H 1.8082 2.6942 3.5447 0
M  V30 39 H 3.0339 1.5066 3.8163 0
M  V30 40 H 0.9838 -3.1876 1.0591 0
M  V30 41 H 2.0618 -2.5382 0.0216 0
M  V30 42 H 0.8289 -0.7213 -2.1006 0
M  V30 43 H -1.7988 -2.5823 0.7313 0
M  V30 44 H 3.7929 -1.3746 2.3772 0
M  V30 45 H 3.359 -0.5448 3.8606 0
M  V30 46 H 2.5871 -2.069 3.4913 0
M  V30 47 H 1.6556 1.8701 5.8389 0
M  V30 48 H 1.4074 0.2091 5.2819 0
M  V30 49 H 0.1782 1.4454 4.9615 0
M  V30 50 H -2.7541 -3.9838 -1.0236 0
M  V30 51 H 0.4099 -0.1622 -4.3737 0
M  V30 52 H 0.9558 -1.2133 -5.6854 0
M  V30 53 H 1.7829 -1.3119 -4.1272 0
M  V30 54 H -2.6295 -5.6372 -2.7021 0
M  V30 55 H -3.2391 -5.3723 -4.3395 0
M  V30 56 H -3.9061 -4.3991 -3.024 0
M  V30 END ATOM
M  V30 BEGIN BOND
M  V30 1 1 1 2
M  V30 2 1 1 3
M  V30 3 1 2 4
M  V30 4 2 2 5
M  V30 5 1 4 6
M  V30 6 2 4 7
M  V30 7 1 5 8
M  V30 8 1 6 9
M  V30 9 1 7 10
M  V30 10 2 8 11
M  V30 11 1 10 12
M  V30 12 1 11 13
M  V30 13 1 11 14
M  V30 14 2 12 15
M  V30 15 1 12 16
M  V30 16 1 13 17
M  V30 17 2 14 18
M  V30 18 1 14 19
M  V30 19 1 15 20
M  V30 20 1 16 21
M  V30 21 1 18 22
M  V30 22 2 19 23
M  V30 23 1 22 24
M  V30 24 2 22 25
M  V30 25 1 24 26
M  V30 26 1 25 27
M  V30 27 1 27 28
M  V30 28 1 8 10
M  V30 29 1 13 15
M  V30 30 1 23 25
M  V30 31 1 3 29
M  V30 32 1 3 30
M  V30 33 1 3 31
M  V30 34 1 5 32
M  V30 35 1 7 33
M  V30 36 1 9 34
M  V30 37 1 9 35
M  V30 38 1 9 36
M  V30 39 1 10 37
M  V30 40 1 16 38
M  V30 41 1 16 39
M  V30 42 1 17 40
M  V30 43 1 17 41
M  V30 44 1 18 42
M  V30 45 1 19 43
M  V30 46 1 20 44
M  V30 47 1 20 45
M  V30 48 1 20 46
M  V30 49 1 21 47
M  V30 50 1 21 48
M  V30 51 1 21 49
M  V30 52 1 23 50
M  V30 53 1 26 51
M  V30 54 1 26 52
M  V30 55 1 26 53
M  V30 56 1 28 54
M  V30 57 1 28 55
M  V30 58 1 28 56
M  V30 END BOND
M  V30 BEGIN COLLECTION
M  V30 MDLV30/STEABS ATOMS=(1 10)
M  V30 END COLLECTION
M  V30 END CTAB
M  END
>  <Column 1>
3705

>  <level_0>
6179

>  <index>
6180

>  <Unnamed: 0>
6180

>  <NO.>
6192

>  <Name>


>  <IUPAC_name>


>  <SMILES>
CCC1=C(C)N(N)C(c2ccc(OC)c(OC)c2)=C2C=C(OC)C(OC)=C[C@@H]21

>  <CID>


>  <logBB>


>  <BBB+/BBB->
BBB+

>  <Inchi>
InChI=1S/C22H28N2O4/c1-7-15-13(2)24(23)22(14-8-9-18(25-3)19(10-14)26-4)17-12-21(28-6)20(27-5)11-16(15)17/h8-12-16H-7-23H2-1-6H3/t16-/m1/s1

>  <threshold>


>  <reference>
R24|

>  <group>
C

>  <Class>
1

>  <ABC>
21.07

>  <ABCGG>
17.81

>  <nAcid>
0

>  <nBase>
0

>  <nAromAtom>
6

>  <nAromBond>
6

>  <nAtom>
56

>  <nHeavyAtom>
28

>  <nSpiro>
0

>  <nBridgehead>
0

>  <nHetero>
6

>  <nN>
2

>  <nO>
4

>  <nF>
0

>  <BalabanJ>
1.87

>  <BertzCT>
895.8

>  <nBonds>
58

>  <nBondsO>
30

>  <nBondsS>
48

>  <nBondsD>
4

>  <nBondsT>
0

>  <nBondsA>
6

>  <nBondsM>
10

>  <nBondsKS>
51

>  <nBondsKD>
7

>  <RNCG>
0.18

>  <RPCG>
0.06

>  <FCSP3>
0.36

>  <SZ>
34.33

>  <Sm>
32.01

>  <Sv>
33.96

>  <Sse>
56.08

>  <Sp>
36.42

>  <Si>
63.23

>  <MZ>
0.61

>  <Mm>
0.57

>  <Mv>
0.61

>  <Mse>
1

>  <Mp>
0.65

>  <Mi>
1.13

>  <NsCH3>
6

>  <NdCH2>
0

>  <NssCH2>
1

>  <NtCH>
0

>  <NdsCH>
2

>  <NaaCH>
3

>  <NsssCH>
1

>  <NddC>
0

>  <NtsC>
0

>  <NdssC>
6

>  <NaasC>
3

>  <NaaaC>
0

>  <NssssC>
0

>  <NsNH3>
0

>  <NsNH2>
1

>  <NssNH2>
0

>  <NdNH>
0

>  <NssNH>
0

>  <NaaNH>
0

>  <NtN>
0

>  <NsssNH>
0

>  <NdsN>
0

>  <NaaN>
0

>  <NsssN>
1

>  <NddsN>
0

>  <NaasN>
0

>  <NssssN>
0

>  <NsOH>
0

>  <NdO>
0

>  <NssO>
4

>  <NaaO>
0

>  <NsF>
0

>  <NsSiH3>
0

>  <NssSiH2>
0

>  <NsssSiH>
0

>  <NssssSi>
0

>  <NsPH2>
0

>  <NssPH>
0

>  <NsssP>
0

>  <NdsssP>
0

>  <NsssssP>
0

>  <NsSH>
0

>  <NdS>
0

>  <NssS>
0

>  <NaaS>
0

>  <NdssS>
0

>  <NddssS>
0

>  <NsCl>
0

>  <NsBr>
0

>  <NsI>
0

>  <fragCpx>
144.06

>  <fMF>
0.29

>  <nHBAcc>
6

>  <nHBDon>
1

>  <Kier1>
22.68

>  <Kier2>
9.87

>  <Lipinski>
1

>  <GhoseFilter>
1

>  <FilterItLogS>
-4.25

>  <VMcGowan>
301.6

>  <LabuteASA>
166.02

>  <PEOE_VSA1>
18.95

>  <PEOE_VSA2>
5.01

>  <PEOE_VSA3>
5.84

>  <PEOE_VSA4>
0

>  <PEOE_VSA5>
0

>  <PEOE_VSA6>
6.92

>  <PEOE_VSA7>
54.84

>  <PEOE_VSA8>
17.18

>  <PEOE_VSA9>
34.14

>  <PEOE_VSA10>
0

>  <PEOE_VSA11>
23.02

>  <PEOE_VSA12>
0

>  <PEOE_VSA13>
0

>  <SMR_VSA1>
18.95

>  <SMR_VSA2>
0

>  <SMR_VSA3>
5.01

>  <SMR_VSA4>
11.76

>  <SMR_VSA5>
20.27

>  <SMR_VSA6>
28.44

>  <SMR_VSA7>
64.28

>  <SMR_VSA8>
0

>  <SMR_VSA9>
11.5

>  <SlogP_VSA1>
15.32

>  <SlogP_VSA2>
33.45

>  <SlogP_VSA3>
9.47

>  <SlogP_VSA4>
5.92

>  <SlogP_VSA5>
25.83

>  <SlogP_VSA6>
58.71

>  <SlogP_VSA7>
0

>  <SlogP_VSA8>
5.7

>  <SlogP_VSA9>
0

>  <SlogP_VSA10>
0

>  <SlogP_VSA11>
11.5

>  <EState_VSA1>
0

>  <EState_VSA2>
5.92

>  <EState_VSA3>
17.26

>  <EState_VSA4>
34.71

>  <EState_VSA5>
5.57

>  <EState_VSA6>
33.45

>  <EState_VSA7>
31.2

>  <EState_VSA8>
13

>  <EState_VSA9>
24.79

>  <EState_VSA10>
0

>  <VSA_EState1>
21.97

>  <VSA_EState2>
0

>  <VSA_EState3>
1.75

>  <VSA_EState4>
5.19

>  <VSA_EState5>
9.37

>  <VSA_EState6>
5.82

>  <VSA_EState7>
5

>  <VSA_EState8>
4.19

>  <VSA_EState9>
6.54

>  <apol>
60.82

>  <bpol>
35.03

>  <nRing>
3

>  <nHRing>
1

>  <naRing>
1

>  <naHRing>
0

>  <nARing 2>
2

>  <nAHRing 2>
1

>  <nFRing>
1

>  <nFHRing>
1

>  <nFaRing>
0

>  <nFaHRing>
0

>  <nFARing 2>
1

>  <nFAHRing 2>
1

>  <nRot>
6

>  <SLogP>
3.98

>  <SMR>
109.16

>  <TopoPSA(NO)>
66.18

>  <TopoPSA>
66.18

>  <JGI1>
0.18

>  <JGI2>
0.09

>  <JGI3>
0.05

>  <JGI4>
0.05

>  <JGI5>
0.03

>  <Diameter>
12

>  <Radius>
6

>  <TMWC10>
135.78

>  <TSRW10>
63.73

>  <MW>
384.2

>  <AMW>
6.86

>  <WPath>
1854

>  <WPol>
54

>  <Zagreb1>
146

>  <Zagreb2>
179

>  <mZagreb2>
6.58

>  <yes>


>  <nAR-cont>
1

>  <nHA-cont>
0.82432561

>  <MWHBN>
0.357124265

>  <MWHBN-cont>
0.643384089

>  <TPSA-cont>
0.538022505

>  <pka_cont>
0.97

>  <yes.1>


>  <BBB_SCORE>
4.350446753

>  <MMFF94 Energy>
87.714

$$$$
Compound 2896
Actelion Java MolfileCreator 2.0

  0  0  0  0  0  0              0 V3000
M  V30 BEGIN CTAB
M  V30 COUNTS 45 46 0 0 0
M  V30 BEGIN ATOM
M  V30 1 N -2.8048 0.8563 -0.1556 0
M  V30 2 C -3.4219 -0.0246 0.5581 0
M  V30 3 C -3.2053 0.9781 -1.5773 0 CFG=1
M  V30 4 N -4.4026 -0.9131 0.1722 0
M  V30 5 N -2.045 1.0066 -2.4601 0
M  V30 6 C -4.2363 -0.0164 -2.0172 0
M  V30 7 C -4.7775 -0.893 -1.1142 0
M  V30 8 C -1.3297 -0.253 -2.6548 0
M  V30 9 C -4.8805 -0.2708 -3.2545 0
M  V30 10 N -5.7007 -1.681 -1.7217 0
M  V30 11 C -0.4953 -0.7885 -1.4841 0
M  V30 12 C -5.7745 -1.3061 -3.0454 0
M  V30 13 C 0.5664 0.1924 -0.9803 0
M  V30 14 C 1.43 -0.4418 0.1123 0
M  V30 15 C 2.4893 0.5366 0.6222 0
M  V30 16 C 3.3519 -0.0971 1.7148 0
M  V30 17 C 4.411 0.8814 2.2251 0
M  V30 18 C 5.2729 0.2481 3.317 0
M  V30 19 C 6.327 1.2177 3.827 0
M  V30 20 H -3.16 -0.1353 1.6236 0
M  V30 21 H -3.6799 1.9644 -1.6662 0
M  V30 22 H -4.7846 -1.5495 0.8607 0
M  V30 23 H -1.413 1.6901 -2.0524 0
M  V30 24 H -2.0061 -1.0419 -3.0017 0
M  V30 25 H -0.6428 -0.0886 -3.4949 0
M  V30 26 H -4.7039 0.2425 -4.191 0
M  V30 27 H -6.2459 -2.4125 -1.288 0
M  V30 28 H 0.0068 -1.7026 -1.8266 0
M  V30 29 H -1.1435 -1.0984 -0.659 0
M  V30 30 H -6.4553 -1.8048 -3.7219 0
M  V30 31 H 0.0902 1.0937 -0.5788 0
M  V30 32 H 1.2032 0.5054 -1.8164 0
M  V30 33 H 1.9197 -1.3407 -0.2811 0
M  V30 34 H 0.7917 -0.7594 0.9459 0
M  V30 35 H 1.9997 1.4356 1.0162 0
M  V30 36 H 3.1271 0.8547 -0.2113 0
M  V30 37 H 3.8416 -0.9959 1.321 0
M  V30 38 H 2.7138 -0.4152 2.5483 0
M  V30 39 H 3.9214 1.7805 2.6189 0
M  V30 40 H 5.049 1.1998 1.3918 0
M  V30 41 H 4.6402 -0.0682 4.1545 0
M  V30 42 H 5.7679 -0.6488 2.9273 0
M  V30 43 H 6.9317 0.7443 4.6068 0
M  V30 44 H 6.9972 1.529 3.0195 0
M  V30 45 H 5.8632 2.1129 4.2534 0
M  V30 END ATOM
M  V30 BEGIN BOND
M  V30 1 2 1 2
M  V30 2 1 1 3
M  V30 3 1 2 4
M  V30 4 1 3 5
M  V30 5 1 3 6
M  V30 6 1 4 7
M  V30 7 1 5 8
M  V30 8 1 6 9
M  V30 9 1 7 10
M  V30 10 1 8 11
M  V30 11 2 9 12
M  V30 12 1 11 13
M  V30 13 1 13 14
M  V30 14 1 14 15
M  V30 15 1 15 16
M  V30 16 1 16 17
M  V30 17 1 17 18
M  V30 18 1 18 19
M  V30 19 2 6 7
M  V30 20 1 10 12
M  V30 21 1 2 20
M  V30 22 1 3 21
M  V30 23 1 4 22
M  V30 24 1 5 23
M  V30 25 1 8 24
M  V30 26 1 8 25
M  V30 27 1 9 26
M  V30 28 1 10 27
M  V30 29 1 11 28
M  V30 30 1 11 29
M  V30 31 1 12 30
M  V30 32 1 13 31
M  V30 33 1 13 32
M  V30 34 1 14 33
M  V30 35 1 14 34
M  V30 36 1 15 35
M  V30 37 1 15 36
M  V30 38 1 16 37
M  V30 39 1 16 38
M  V30 40 1 17 39
M  V30 41 1 17 40
M  V30 42 1 18 41
M  V30 43 1 18 42
M  V30 44 1 19 43
M  V30 45 1 19 44
M  V30 46 1 19 45
M  V30 END BOND
M  V30 BEGIN COLLECTION
M  V30 MDLV30/STEABS ATOMS=(1 3)
M  V30 END COLLECTION
M  V30 END CTAB
M  END
>  <Column 1>
3706

>  <level_0>
6197

>  <index>
6198

>  <Unnamed: 0>
6198

>  <NO.>
6210

>  <Name>


>  <IUPAC_name>


>  <SMILES>
CCCCCCCCCN[C@@H]1N=CNc2[nH]ccc21

>  <CID>


>  <logBB>


>  <BBB+/BBB->
BBB+

>  <Inchi>
InChI=1S/C15H26N4/c1-2-3-4-5-6-7-8-10-16-14-13-9-11-17-15(13)19-12-18-14/h9-11-12-14-16-17H-2-8-10H2-1H3-(H-18-19)/t14-/m1/s1

>  <threshold>


>  <reference>
R24|

>  <group>
C

>  <Class>
1

>  <ABC>
14.06

>  <ABCGG>
11.55

>  <nAcid>
0

>  <nBase>
3

>  <nAromAtom>
5

>  <nAromBond>
5

>  <nAtom>
45

>  <nHeavyAtom>
19

>  <nSpiro>
0

>  <nBridgehead>
0

>  <nHetero>
4

>  <nN>
4

>  <nO>
0

>  <nF>
0

>  <BalabanJ>
1.48

>  <BertzCT>
383.25

>  <nBonds>
46

>  <nBondsO>
20

>  <nBondsS>
40

>  <nBondsD>
1

>  <nBondsT>
0

>  <nBondsA>
5

>  <nBondsM>
6

>  <nBondsKS>
43

>  <nBondsKD>
3

>  <RNCG>
0.21

>  <RPCG>
0.1

>  <FCSP3>
0.67

>  <SZ>
24

>  <Sm>
21.85

>  <Sv>
25.08

>  <Sse>
44.19

>  <Sp>
28.02

>  <Si>
51.56

>  <MZ>
0.53

>  <Mm>
0.49

>  <Mv>
0.56

>  <Mse>
0.98

>  <Mp>
0.62

>  <Mi>
1.15

>  <NsCH3>
1

>  <NdCH2>
0

>  <NssCH2>
8

>  <NtCH>
0

>  <NdsCH>
1

>  <NaaCH>
2

>  <NsssCH>
1

>  <NddC>
0

>  <NtsC>
0

>  <NdssC>
0

>  <NaasC>
2

>  <NaaaC>
0

>  <NssssC>
0

>  <NsNH3>
0

>  <NsNH2>
0

>  <NssNH2>
0

>  <NdNH>
0

>  <NssNH>
2

>  <NaaNH>
1

>  <NtN>
0

>  <NsssNH>
0

>  <NdsN>
1

>  <NaaN>
0

>  <NsssN>
0

>  <NddsN>
0

>  <NaasN>
0

>  <NssssN>
0

>  <NsOH>
0

>  <NdO>
0

>  <NssO>
0

>  <NaaO>
0

>  <NsF>
0

>  <NsSiH3>
0

>  <NssSiH2>
0

>  <NsssSiH>
0

>  <NssssSi>
0

>  <NsPH2>
0

>  <NssPH>
0

>  <NsssP>
0

>  <NdsssP>
0

>  <NsssssP>
0

>  <NsSH>
0

>  <NdS>
0

>  <NssS>
0

>  <NaaS>
0

>  <NdssS>
0

>  <NddssS>
0

>  <NsCl>
0

>  <NsBr>
0

>  <NsI>
0

>  <fragCpx>
58.04

>  <fMF>
0.2

>  <nHBAcc>
3

>  <nHBDon>
3

>  <Kier1>
15.39

>  <Kier2>
9.03

>  <Lipinski>
1

>  <GhoseFilter>
1

>  <FilterItLogS>
-5.17

>  <VMcGowan>
227.51

>  <LabuteASA>
115.64

>  <PEOE_VSA1>
10.3

>  <PEOE_VSA2>
10.31

>  <PEOE_VSA3>
0

>  <PEOE_VSA4>
0

>  <PEOE_VSA5>
0

>  <PEOE_VSA6>
45.45

>  <PEOE_VSA7>
19.03

>  <PEOE_VSA8>
11.76

>  <PEOE_VSA9>
6.34

>  <PEOE_VSA10>
11.98

>  <PEOE_VSA11>
0

>  <PEOE_VSA12>
0

>  <PEOE_VSA13>
0

>  <SMR_VSA1>
0

>  <SMR_VSA2>
0

>  <SMR_VSA3>
10.3

>  <SMR_VSA4>
4.99

>  <SMR_VSA5>
58.04

>  <SMR_VSA6>
11.86

>  <SMR_VSA7>
17.83

>  <SMR_VSA8>
0

>  <SMR_VSA9>
0

>  <SlogP_VSA1>
10.63

>  <SlogP_VSA2>
17.87

>  <SlogP_VSA3>
0

>  <SlogP_VSA4>
0

>  <SlogP_VSA5>
63.6

>  <SlogP_VSA6>
17.26

>  <SlogP_VSA7>
0

>  <SlogP_VSA8>
0

>  <SlogP_VSA9>
0

>  <SlogP_VSA10>
5.82

>  <SlogP_VSA11>
0

>  <EState_VSA1>
0

>  <EState_VSA2>
6.17

>  <EState_VSA3>
0

>  <EState_VSA4>
12.36

>  <EState_VSA5>
50.51

>  <EState_VSA6>
6.34

>  <EState_VSA7>
6.2

>  <EState_VSA8>
33.6

>  <EState_VSA9>
0

>  <EState_VSA10>
0

>  <VSA_EState1>
0

>  <VSA_EState2>
7.61

>  <VSA_EState3>
6.62

>  <VSA_EState4>
1.21

>  <VSA_EState5>
1.06

>  <VSA_EState6>
2.08

>  <VSA_EState7>
13.27

>  <VSA_EState8>
3.3

>  <VSA_EState9>
0

>  <apol>
46.79

>  <bpol>
28.93

>  <nRing>
2

>  <nHRing>
2

>  <naRing>
1

>  <naHRing>
1

>  <nARing 2>
1

>  <nAHRing 2>
1

>  <nFRing>
1

>  <nFHRing>
1

>  <nFaRing>
0

>  <nFaHRing>
0

>  <nFARing 2>
1

>  <nFAHRing 2>
1

>  <nRot>
9

>  <SLogP>
3.81

>  <SMR>
81.64

>  <TopoPSA(NO)>
52.21

>  <TopoPSA>
52.21

>  <JGI1>
0.08

>  <JGI2>
0.06

>  <JGI3>
0.03

>  <JGI4>
0.02

>  <JGI5>
0.01

>  <Diameter>
13

>  <Radius>
7

>  <TMWC10>
109.01

>  <TSRW10>
64.82

>  <MW>
262.22

>  <AMW>
5.83

>  <WPath>
909

>  <WPol>
22

>  <Zagreb1>
88

>  <Zagreb2>
98

>  <mZagreb2>
4.56

>  <yes>


>  <nAR-cont>
0.816016

>  <nHA-cont>
0.998649058

>  <MWHBN>
0.370525706

>  <MWHBN-cont>
0.591822452

>  <TPSA-cont>
0.63554178

>  <pka_cont>
0.97

>  <yes.1>


>  <BBB_SCORE>
4.458482294

>  <MMFF94 Energy>
-52.386

$$$$
Compound 2897
Actelion Java MolfileCreator 2.0

  0  0  0  0  0  0              0 V3000
M  V30 BEGIN CTAB
M  V30 COUNTS 68 73 0 0 0
M  V30 BEGIN ATOM
M  V30 1 O -0.0809 -4.7022 -2.8355 0
M  V30 2 C -1.2228 -4.3516 -2.5705 0
M  V30 3 O -1.614 -3.4235 -1.6147 0
M  V30 4 C -2.4459 -4.8613 -3.273 0
M  V30 5 C -0.5717 -2.9012 -0.8345 0
M  V30 6 C -0.2647 -1.5338 -0.9082 0
M  V30 7 C 0.0557 -3.7311 0.0893 0
M  V30 8 O -0.8942 -0.7238 -1.8188 0
M  V30 9 C 0.6529 -0.9582 0.003 0
M  V30 10 C 1.0284 -3.1986 0.9262 0
M  V30 11 C -0.5761 -1.061 -3.1677 0
M  V30 12 C 1.345 -1.8284 0.8831 0
M  V30 13 C 0.988 0.5539 0.0142 0 CFG=2
M  V30 14 C 2.4284 -1.337 1.8143 0
M  V30 15 C 1.7321 1.0342 1.3243 0 CFG=1
M  V30 16 C -0.2941 1.4554 -0.0615 0 CFG=2
M  V30 17 C 1.9594 0.7665 -1.1779 0
M  V30 18 C 2.9352 0.0914 1.5318 0 CFG=2
M  V30 19 C 2.208 2.4801 1.1308 0
M  V30 20 C 0.7188 1.1663 2.5068 0
M  V30 21 C -0.1244 2.8657 0.7153 0 CFG=2
M  V30 22 C -1.43 1.1411 1.0394 0 CFG=2
M  V30 23 C 3.2938 0.0236 -0.9455 0
M  V30 24 N 3.8829 0.2388 0.3867 0
M  V30 25 C 1.2805 3.3731 0.7742 0
M  V30 26 C -0.5061 1.9936 1.9881 0 CFG=1
M  V30 27 O -1.0459 3.9049 0.2943 0
M  V30 28 O -1.5647 -0.2291 1.4973 0
M  V30 29 C -2.867 1.6407 0.7874 0
M  V30 30 C 5.1163 -0.5226 0.5478 0
M  V30 31 C -1.3218 4.9566 1.2116 0
M  V30 32 C -3.5283 0.8823 -0.3671 0
M  V30 33 C -4.9707 1.3211 -0.5665 0
M  V30 34 H -3.1265 -5.3172 -2.5495 0
M  V30 35 H -2.9378 -4.0413 -3.8019 0
M  V30 36 H -2.1538 -5.6233 -4.0011 0
M  V30 37 H -0.1999 -4.7835 0.1545 0
M  V30 38 H 1.5403 -3.8561 1.6256 0
M  V30 39 H 0.3815 -1.5849 -3.2681 0
M  V30 40 H -0.5109 -0.1288 -3.7373 0
M  V30 41 H -1.3839 -1.6576 -3.6001 0
M  V30 42 H 2.027 -1.3723 2.8356 0
M  V30 43 H 3.2658 -2.0436 1.8034 0
M  V30 44 H -0.671 1.5849 -1.0815 0
M  V30 45 H 1.5231 0.4202 -2.1207 0
M  V30 46 H 2.1623 1.8298 -1.3498 0
M  V30 47 H 3.4784 0.4233 2.4281 0
M  V30 48 H 3.2578 2.7429 1.214 0
M  V30 49 H 1.183 1.6956 3.35 0
M  V30 50 H 0.3888 0.2009 2.8995 0
M  V30 51 H 3.1549 -1.0478 -1.1358 0
M  V30 52 H 4.0015 0.3738 -1.7076 0
M  V30 53 H 1.5193 4.4059 0.5541 0
M  V30 54 H -1.0362 2.5009 2.7996 0
M  V30 55 H -2.1022 -0.1872 2.3052 0
M  V30 56 H -3.4596 1.5006 1.7011 0
M  V30 57 H -2.9198 2.7069 0.5703 0
M  V30 58 H 5.5678 -0.332 1.5275 0
M  V30 59 H 5.8539 -0.2109 -0.2001 0
M  V30 60 H 4.9646 -1.6013 0.4383 0
M  V30 61 H -1.973 5.6806 0.7147 0
M  V30 62 H -0.4041 5.4663 1.5158 0
M  V30 63 H -1.8433 4.5687 2.0902 0
M  V30 64 H -2.974 1.0567 -1.2953 0
M  V30 65 H -3.5079 -0.1971 -0.1804 0
M  V30 66 H -5.4223 0.7712 -1.398 0
M  V30 67 H -5.5668 1.1292 0.3313 0
M  V30 68 H -5.0277 2.39 -0.7957 0
M  V30 END ATOM
M  V30 BEGIN BOND
M  V30 1 2 1 2
M  V30 2 1 2 3
M  V30 3 1 2 4
M  V30 4 1 3 5
M  V30 5 2 5 6
M  V30 6 1 5 7
M  V30 7 1 6 8
M  V30 8 1 6 9
M  V30 9 2 7 10
M  V30 10 1 8 11
M  V30 11 2 9 12
M  V30 12 1 9 13
M  V30 13 1 12 14
M  V30 14 1 13 15
M  V30 15 1 13 16
M  V30 16 1 13 17
M  V30 17 1 14 18
M  V30 18 1 15 19
M  V30 19 1 15 20
M  V30 20 1 16 21
M  V30 21 1 16 22
M  V30 22 1 17 23
M  V30 23 1 18 24
M  V30 24 2 19 25
M  V30 25 1 20 26
M  V30 26 1 21 27
M  V30 27 1 22 28
M  V30 28 1 22 29
M  V30 29 1 24 30
M  V30 30 1 27 31
M  V30 31 1 29 32
M  V30 32 1 32 33
M  V30 33 1 10 12
M  V30 34 1 15 18
M  V30 35 1 21 25
M  V30 36 1 21 26
M  V30 37 1 22 26
M  V30 38 1 23 24
M  V30 39 1 4 34
M  V30 40 1 4 35
M  V30 41 1 4 36
M  V30 42 1 7 37
M  V30 43 1 10 38
M  V30 44 1 11 39
M  V30 45 1 11 40
M  V30 46 1 11 41
M  V30 47 1 14 42
M  V30 48 1 14 43
M  V30 49 1 16 44
M  V30 50 1 17 45
M  V30 51 1 17 46
M  V30 52 1 18 47
M  V30 53 1 19 48
M  V30 54 1 20 49
M  V30 55 1 20 50
M  V30 56 1 23 51
M  V30 57 1 23 52
M  V30 58 1 25 53
M  V30 59 1 26 54
M  V30 60 1 28 55
M  V30 61 1 29 56
M  V30 62 1 29 57
M  V30 63 1 30 58
M  V30 64 1 30 59
M  V30 65 1 30 60
M  V30 66 1 31 61
M  V30 67 1 31 62
M  V30 68 1 31 63
M  V30 69 1 32 64
M  V30 70 1 32 65
M  V30 71 1 33 66
M  V30 72 1 33 67
M  V30 73 1 33 68
M  V30 END BOND
M  V30 BEGIN COLLECTION
M  V30 MDLV30/STEABS ATOMS=(7 13 15 16 18 21 22 26)
M  V30 END COLLECTION
M  V30 END CTAB
M  END
>  <Column 1>
3707

>  <level_0>
6217

>  <index>
6218

>  <Unnamed: 0>
6218

>  <NO.>
6230

>  <Name>


>  <IUPAC_name>


>  <SMILES>
CCC[C@@]1(O)[C@H]2[C@]3(OC)C=C[C@]4(C[C@H]13)[C@H]1Cc3ccc(OC(C)=O)c(OC)c3[C@@]24CCN1C

>  <CID>


>  <logBB>


>  <BBB+/BBB->
BBB+

>  <Inchi>
InChI=1S/C27H35NO5/c1-6-9-26(30)19-15-24-10-11-27(19-32-5)23(26)25(24)12-13-28(3)20(24)14-17-7-8-18(33-16(2)29)22(31-4)21(17)25/h7-8-10-11-19-20-23-30H-6-9-12-15H2-1-5H3/t19--20--23+-24+-25+-26+-27+/m1/s1

>  <threshold>


>  <reference>
R24|

>  <group>
C

>  <Class>
1

>  <ABC>
26.67

>  <ABCGG>
20.65

>  <nAcid>
0

>  <nBase>
1

>  <nAromAtom>
6

>  <nAromBond>
6

>  <nAtom>
68

>  <nHeavyAtom>
33

>  <nSpiro>
1

>  <nBridgehead>
6

>  <nHetero>
6

>  <nN>
1

>  <nO>
5

>  <nF>
0

>  <BalabanJ>
1.54

>  <BertzCT>
1068.84

>  <nBonds>
73

>  <nBondsO>
38

>  <nBondsS>
65

>  <nBondsD>
2

>  <nBondsT>
0

>  <nBondsA>
6

>  <nBondsM>
8

>  <nBondsKS>
68

>  <nBondsKD>
5

>  <RNCG>
0.18

>  <RPCG>
0.11

>  <FCSP3>
0.67

>  <SZ>
40.67

>  <Sm>
37.76

>  <Sv>
40.81

>  <Sse>
67.85

>  <Sp>
44.03

>  <Si>
76.61

>  <MZ>
0.6

>  <Mm>
0.56

>  <Mv>
0.6

>  <Mse>
1

>  <Mp>
0.65

>  <Mi>
1.13

>  <NsCH3>
5

>  <NdCH2>
0

>  <NssCH2>
6

>  <NtCH>
0

>  <NdsCH>
2

>  <NaaCH>
2

>  <NsssCH>
3

>  <NddC>
0

>  <NtsC>
0

>  <NdssC>
1

>  <NaasC>
4

>  <NaaaC>
0

>  <NssssC>
4

>  <NsNH3>
0

>  <NsNH2>
0

>  <NssNH2>
0

>  <NdNH>
0

>  <NssNH>
0

>  <NaaNH>
0

>  <NtN>
0

>  <NsssNH>
0

>  <NdsN>
0

>  <NaaN>
0

>  <NsssN>
1

>  <NddsN>
0

>  <NaasN>
0

>  <NssssN>
0

>  <NsOH>
1

>  <NdO>
1

>  <NssO>
3

>  <NaaO>
0

>  <NsF>
0

>  <NsSiH3>
0

>  <NssSiH2>
0

>  <NsssSiH>
0

>  <NssssSi>
0

>  <NsPH2>
0

>  <NssPH>
0

>  <NsssP>
0

>  <NdsssP>
0

>  <NsssssP>
0

>  <NsSH>
0

>  <NdS>
0

>  <NssS>
0

>  <NaaS>
0

>  <NdssS>
0

>  <NddssS>
0

>  <NsCl>
0

>  <NsBr>
0

>  <NsI>
0

>  <fragCpx>
388.06

>  <fMF>
0.29

>  <nHBAcc>
6

>  <nHBDon>
1

>  <Kier1>
23.4

>  <Kier2>
7.51

>  <Lipinski>
1

>  <GhoseFilter>
1

>  <FilterItLogS>
-5.03

>  <VMcGowan>
343.96

>  <LabuteASA>
195.43

>  <PEOE_VSA1>
24.22

>  <PEOE_VSA2>
4.79

>  <PEOE_VSA3>
0

>  <PEOE_VSA4>
0

>  <PEOE_VSA5>
0

>  <PEOE_VSA6>
31.56

>  <PEOE_VSA7>
50.91

>  <PEOE_VSA8>
48.3

>  <PEOE_VSA9>
18.31

>  <PEOE_VSA10>
0

>  <PEOE_VSA11>
11.5

>  <PEOE_VSA12>
0

>  <PEOE_VSA13>
0

>  <SMR_VSA1>
24.11

>  <SMR_VSA2>
0

>  <SMR_VSA3>
4.9

>  <SMR_VSA4>
17.25

>  <SMR_VSA5>
68.61

>  <SMR_VSA6>
27.81

>  <SMR_VSA7>
35.41

>  <SMR_VSA8>
0

>  <SMR_VSA9>
11.5

>  <SlogP_VSA1>
9.47

>  <SlogP_VSA2>
61.03

>  <SlogP_VSA3>
21.37

>  <SlogP_VSA4>
17.25

>  <SlogP_VSA5>
50.66

>  <SlogP_VSA6>
24.28

>  <SlogP_VSA7>
0

>  <SlogP_VSA8>
0

>  <SlogP_VSA9>
0

>  <SlogP_VSA10>
0

>  <SlogP_VSA11>
11.5

>  <EState_VSA1>
11.2

>  <EState_VSA2>
28.64

>  <EState_VSA3>
17.54

>  <EState_VSA4>
44.21

>  <EState_VSA5>
12.49

>  <EState_VSA6>
14.22

>  <EState_VSA7>
6.07

>  <EState_VSA8>
37.09

>  <EState_VSA9>
14.21

>  <EState_VSA10>
9.9

>  <VSA_EState1>
17.99

>  <VSA_EState2>
14.43

>  <VSA_EState3>
12.27

>  <VSA_EState4>
0.67

>  <VSA_EState5>
0.79

>  <VSA_EState6>
4.33

>  <VSA_EState7>
9.13

>  <VSA_EState8>
4.52

>  <VSA_EState9>
5.7

>  <apol>
73.54

>  <bpol>
42.9

>  <nRing>
8

>  <nHRing>
1

>  <naRing>
1

>  <naHRing>
0

>  <nARing 2>
7

>  <nAHRing 2>
1

>  <nFRing>
1

>  <nFHRing>
1

>  <nFaRing>
0

>  <nFaHRing>
0

>  <nFARing 2>
1

>  <nFAHRing 2>
1

>  <nRot>
5

>  <SLogP>
3.24

>  <SMR>
123.49

>  <TopoPSA(NO)>
68.23

>  <TopoPSA>
68.23

>  <JGI1>
0.26

>  <JGI2>
0.11

>  <JGI3>
0.08

>  <JGI4>
0.06

>  <JGI5>
0.04

>  <Diameter>
11

>  <Radius>
6

>  <TMWC10>
155.77

>  <TSRW10>
71.78

>  <MW>
453.25

>  <AMW>
6.67

>  <WPath>
2454

>  <WPol>
79

>  <Zagreb1>
204

>  <Zagreb2>
273

>  <mZagreb2>
7.09

>  <yes>


>  <nAR-cont>
0

>  <nHA-cont>
0.61399562

>  <MWHBN>
0.328797975

>  <MWHBN-cont>
0.747047431

>  <TPSA-cont>
0.523712232

>  <pka_cont>
0.97

>  <yes.1>


>  <BBB_SCORE>
3.26699123

>  <MMFF94 Energy>
142.41

$$$$
Compound 2898
Actelion Java MolfileCreator 2.0

  0  0  0  0  0  0              0 V3000
M  V30 BEGIN CTAB
M  V30 COUNTS 36 36 0 0 0
M  V30 BEGIN ATOM
M  V30 1 O 0.3898 -2.2629 0.6238 0
M  V30 2 C -0.6131 -1.5568 0.7111 0
M  V30 3 N -1.7221 -2.0826 1.2964 0
M  V30 4 C -0.6818 -0.0758 0.2404 0
M  V30 5 C -2.8607 -1.3202 1.5737 0
M  V30 6 C -2.1536 0.2509 -0.1233 0
M  V30 7 C 0.3118 0.0464 -0.9964 0 CFG=2
M  V30 8 C -0.2949 0.7942 1.4756 0
M  V30 9 O -3.9282 -2.2106 1.693 0
M  V30 10 N -3.1358 -0.4519 0.5097 0
M  V30 11 O -2.5091 1.1531 -0.8779 0
M  V30 12 C 1.8098 0.1205 -0.5768 0
M  V30 13 C 0.0145 1.1769 -1.9967 0
M  V30 14 C -0.2332 2.3 1.2548 0
M  V30 15 C 2.7653 -0.3967 -1.6607 0
M  V30 16 C 4.2112 -0.3571 -1.188 0
M  V30 17 H -1.6888 -3.0422 1.6059 0
M  V30 18 H -2.7273 -0.7646 2.5063 0
M  V30 19 H 0.1907 -0.8797 -1.578 0
M  V30 20 H 0.6663 0.4631 1.8869 0
M  V30 21 H -1.0121 0.6266 2.2878 0
M  V30 22 H -4.7003 -1.6738 1.9271 0
M  V30 23 H -4.0834 -0.2207 0.2532 0
M  V30 24 H 2.079 1.1532 -0.327 0
M  V30 25 H 1.9904 -0.4712 0.3257 0
M  V30 26 H -0.115 2.1443 -1.5071 0
M  V30 27 H -0.8834 0.9548 -2.5813 0
M  V30 28 H 0.8169 1.2932 -2.7309 0
M  V30 29 H -1.1732 2.6919 0.8574 0
M  V30 30 H 0.5789 2.5836 0.5831 0
M  V30 31 H -0.0473 2.8034 2.21 0
M  V30 32 H 2.5044 -1.4288 -1.9215 0
M  V30 33 H 2.681 0.2003 -2.5737 0
M  V30 34 H 4.8764 -0.7312 -1.9723 0
M  V30 35 H 4.5154 0.6654 -0.943 0
M  V30 36 H 4.351 -0.9803 -0.2989 0
M  V30 END ATOM
M  V30 BEGIN BOND
M  V30 1 2 1 2
M  V30 2 1 2 3
M  V30 3 1 2 4
M  V30 4 1 3 5
M  V30 5 1 4 6
M  V30 6 1 4 7
M  V30 7 1 4 8
M  V30 8 1 5 9
M  V30 9 1 5 10
M  V30 10 2 6 11
M  V30 11 1 7 12
M  V30 12 1 7 13
M  V30 13 1 8 14
M  V30 14 1 12 15
M  V30 15 1 15 16
M  V30 16 1 6 10
M  V30 17 1 3 17
M  V30 18 1 5 18
M  V30 19 1 7 19
M  V30 20 1 8 20
M  V30 21 1 8 21
M  V30 22 1 9 22
M  V30 23 1 10 23
M  V30 24 1 12 24
M  V30 25 1 12 25
M  V30 26 1 13 26
M  V30 27 1 13 27
M  V30 28 1 13 28
M  V30 29 1 14 29
M  V30 30 1 14 30
M  V30 31 1 14 31
M  V30 32 1 15 32
M  V30 33 1 15 33
M  V30 34 1 16 34
M  V30 35 1 16 35
M  V30 36 1 16 36
M  V30 END BOND
M  V30 BEGIN COLLECTION
M  V30 MDLV30/STEABS ATOMS=(1 7)
M  V30 END COLLECTION
M  V30 END CTAB
M  END
>  <Column 1>
3708

>  <level_0>
6219

>  <index>
6220

>  <Unnamed: 0>
6220

>  <NO.>
6232

>  <Name>
5-ethyl-2-hydroxy-5-[(2s)-pentan-2-yl]-1-3-diazinane-4-6-dione

>  <IUPAC_name>
5-ethyl-2-hydroxy-5-[(2s)-pentan-2-yl]-1-3-diazinane-4-6-dione

>  <SMILES>
CCC[C@H](C)C1(CC)C(=O)NC(O)NC1=O

>  <CID>
29063213

>  <logBB>


>  <BBB+/BBB->
BBB+

>  <Inchi>
InChI=1S/C11H20N2O3/c1-4-6-7(3)11(5-2)8(14)12-10(16)13-9(11)15/h7-10-16H-4-6H2-1-3H3-(H-12-14)(H-13-15)/t7--10?-11?/m0/s1

>  <threshold>


>  <reference>
R24|

>  <group>
C

>  <Class>
-1

>  <ABC>
11.57

>  <ABCGG>
11.41

>  <nAcid>
0

>  <nBase>
0

>  <nAromAtom>
0

>  <nAromBond>
0

>  <nAtom>
36

>  <nHeavyAtom>
16

>  <nSpiro>
0

>  <nBridgehead>
0

>  <nHetero>
5

>  <nN>
2

>  <nO>
3

>  <nF>
0

>  <BalabanJ>
2.9

>  <BertzCT>
272.95

>  <nBonds>
36

>  <nBondsO>
16

>  <nBondsS>
34

>  <nBondsD>
2

>  <nBondsT>
0

>  <nBondsA>
0

>  <nBondsM>
2

>  <nBondsKS>
34

>  <nBondsKD>
2

>  <RNCG>
0.19

>  <RPCG>
0.13

>  <FCSP3>
0.82

>  <SZ>
20.67

>  <Sm>
19.01

>  <Sv>
20.08

>  <Sse>
36.2

>  <Sp>
21.74

>  <Si>
41.36

>  <MZ>
0.57

>  <Mm>
0.53

>  <Mv>
0.56

>  <Mse>
1.01

>  <Mp>
0.6

>  <Mi>
1.15

>  <NsCH3>
3

>  <NdCH2>
0

>  <NssCH2>
3

>  <NtCH>
0

>  <NdsCH>
0

>  <NaaCH>
0

>  <NsssCH>
2

>  <NddC>
0

>  <NtsC>
0

>  <NdssC>
2

>  <NaasC>
0

>  <NaaaC>
0

>  <NssssC>
1

>  <NsNH3>
0

>  <NsNH2>
0

>  <NssNH2>
0

>  <NdNH>
0

>  <NssNH>
2

>  <NaaNH>
0

>  <NtN>
0

>  <NsssNH>
0

>  <NdsN>
0

>  <NaaN>
0

>  <NsssN>
0

>  <NddsN>
0

>  <NaasN>
0

>  <NssssN>
0

>  <NsOH>
1

>  <NdO>
2

>  <NssO>
0

>  <NaaO>
0

>  <NsF>
0

>  <NsSiH3>
0

>  <NssSiH2>
0

>  <NsssSiH>
0

>  <NssssSi>
0

>  <NsPH2>
0

>  <NssPH>
0

>  <NsssP>
0

>  <NdsssP>
0

>  <NsssssP>
0

>  <NsSH>
0

>  <NdS>
0

>  <NssS>
0

>  <NaaS>
0

>  <NdssS>
0

>  <NddssS>
0

>  <NsCl>
0

>  <NsBr>
0

>  <NsI>
0

>  <fragCpx>
16.05

>  <fMF>
0.17

>  <nHBAcc>
3

>  <nHBDon>
3

>  <Kier1>
14.06

>  <Kier2>
5.56

>  <Lipinski>
1

>  <GhoseFilter>
1

>  <FilterItLogS>
-2.49

>  <VMcGowan>
183.96

>  <LabuteASA>
95.6

>  <PEOE_VSA1>
15.74

>  <PEOE_VSA2>
9.59

>  <PEOE_VSA3>
0

>  <PEOE_VSA4>
0

>  <PEOE_VSA5>
0

>  <PEOE_VSA6>
27.19

>  <PEOE_VSA7>
18.76

>  <PEOE_VSA8>
0

>  <PEOE_VSA9>
0

>  <PEOE_VSA10>
5.41

>  <PEOE_VSA11>
0

>  <PEOE_VSA12>
18.17

>  <PEOE_VSA13>
0

>  <SMR_VSA1>
14.7

>  <SMR_VSA2>
0

>  <SMR_VSA3>
10.63

>  <SMR_VSA4>
11.33

>  <SMR_VSA5>
46.39

>  <SMR_VSA6>
0

>  <SMR_VSA7>
0

>  <SMR_VSA8>
0

>  <SMR_VSA9>
0

>  <SlogP_VSA1>
10.63

>  <SlogP_VSA2>
23.27

>  <SlogP_VSA3>
9.59

>  <SlogP_VSA4>
11.33

>  <SlogP_VSA5>
40.03

>  <SlogP_VSA6>
0

>  <SlogP_VSA7>
0

>  <SlogP_VSA8>
0

>  <SlogP_VSA9>
0

>  <SlogP_VSA10>
0

>  <SlogP_VSA11>
0

>  <EState_VSA1>
11.77

>  <EState_VSA2>
17.73

>  <EState_VSA3>
6.42

>  <EState_VSA4>
12.84

>  <EState_VSA5>
0

>  <EState_VSA6>
0

>  <EState_VSA7>
20.77

>  <EState_VSA8>
10.63

>  <EState_VSA9>
0

>  <EState_VSA10>
14.7

>  <VSA_EState1>
0

>  <VSA_EState2>
23.9

>  <VSA_EState3>
13.98

>  <VSA_EState4>
-1.03

>  <VSA_EState5>
-0.77

>  <VSA_EState6>
0

>  <VSA_EState7>
0.92

>  <VSA_EState8>
5.75

>  <VSA_EState9>
0

>  <apol>
36.31

>  <bpol>
22.94

>  <nRing>
1

>  <nHRing>
1

>  <naRing>
0

>  <naHRing>
0

>  <nARing 2>
1

>  <nAHRing 2>
1

>  <nFRing>
0

>  <nFHRing>
0

>  <nFaRing>
0

>  <nFaHRing>
0

>  <nFARing 2>
0

>  <nFAHRing 2>
0

>  <nRot>
4

>  <SLogP>
0.34

>  <SMR>
59.09

>  <TopoPSA(NO)>
78.43

>  <TopoPSA>
78.43

>  <JGI1>
0.31

>  <JGI2>
0.14

>  <JGI3>
0.09

>  <JGI4>
0.04

>  <JGI5>
0.04

>  <Diameter>
8

>  <Radius>
4

>  <TMWC10>
103.73

>  <TSRW10>
48.75

>  <MW>
228.15

>  <AMW>
6.34

>  <WPath>
398

>  <WPol>
29

>  <Zagreb1>
78

>  <Zagreb2>
94

>  <mZagreb2>
3.79

>  <yes>


>  <nAR-cont>
0.816016

>  <nHA-cont>
0.954961865

>  <MWHBN>
0.397229061

>  <MWHBN-cont>
0.486972182

>  <TPSA-cont>
0.452509898

>  <pka_cont>
0.97

>  <yes.1>


>  <BBB_SCORE>
3.891455934

>  <MMFF94 Energy>
-155.04

$$$$
Compound 2899
Actelion Java MolfileCreator 2.0

  0  0  0  0  0  0              0 V3000
M  V30 BEGIN CTAB
M  V30 COUNTS 40 42 0 0 0
M  V30 BEGIN ATOM
M  V30 1 O -4.2246 2.6288 1.4332 0
M  V30 2 C -3.5639 1.6006 1.2729 0
M  V30 3 N -2.9286 1.2969 0.0732 0
M  V30 4 C -3.4144 0.6125 2.4067 0
M  V30 5 C -2.1059 0.1637 -0.1019 0
M  V30 6 C -3.0684 2.2012 -1.0683 0
M  V30 7 C -0.7812 0.1869 0.3442 0
M  V30 8 C -2.6186 -0.9695 -0.7362 0
M  V30 9 C -2.0383 3.3211 -1.0438 0
M  V30 10 C 0.0409 -0.9337 0.1645 0
M  V30 11 C -1.8061 -2.0871 -0.9186 0
M  V30 12 C 1.434 -0.9246 0.6418 0
M  V30 13 C -0.4837 -2.0692 -0.4693 0
M  V30 14 N 2.4891 -1.0207 -0.2462 0
M  V30 15 C 1.6874 -0.8384 1.9616 0
M  V30 16 N 2.4036 -1.1094 -1.6502 0
M  V30 17 C 3.7979 -1.0234 0.2193 0
M  V30 18 C 3.1338 -0.8507 2.3394 0
M  V30 19 C 3.8323 -1.1817 -2.0727 0
M  V30 20 N 4.1566 -0.9341 1.5402 0
M  V30 21 C 4.6358 -1.1189 -0.8163 0
M  V30 22 C 6.0419 -1.1509 -0.7669 0
M  V30 23 N 7.2019 -1.1763 -0.7917 0
M  V30 24 H -3.7046 -0.3915 2.0869 0
M  V30 25 H -2.3845 0.6109 2.7721 0
M  V30 26 H -4.0718 0.9073 3.2307 0
M  V30 27 H -4.0731 2.6397 -1.0497 0
M  V30 28 H -2.9838 1.6332 -2.0023 0
M  V30 29 H -0.3899 1.082 0.8221 0
M  V30 30 H -3.6473 -0.9872 -1.0869 0
M  V30 31 H -1.0204 2.9238 -1.1069 0
M  V30 32 H -2.1121 3.9072 -0.1219 0
M  V30 33 H -2.1922 3.996 -1.8915 0
M  V30 34 H -2.199 -2.9724 -1.4124 0
M  V30 35 H 0.1439 -2.9457 -0.6224 0
M  V30 36 H 0.9407 -0.7741 2.7394 0
M  V30 37 H 2.0002 -0.2421 -2.009 0
M  V30 38 H 3.3242 -0.778 3.4236 0
M  V30 39 H 4.0678 -0.3435 -2.7378 0
M  V30 40 H 4.0033 -2.1212 -2.6084 0
M  V30 END ATOM
M  V30 BEGIN BOND
M  V30 1 2 1 2
M  V30 2 1 2 3
M  V30 3 1 2 4
M  V30 4 1 3 5
M  V30 5 1 3 6
M  V30 6 2 5 7
M  V30 7 1 5 8
M  V30 8 1 6 9
M  V30 9 1 7 10
M  V30 10 2 8 11
M  V30 11 1 10 12
M  V30 12 2 10 13
M  V30 13 1 12 14
M  V30 14 2 12 15
M  V30 15 1 14 16
M  V30 16 1 14 17
M  V30 17 1 15 18
M  V30 18 1 16 19
M  V30 19 1 17 20
M  V30 20 2 17 21
M  V30 21 1 21 22
M  V30 22 3 22 23
M  V30 23 1 11 13
M  V30 24 2 18 20
M  V30 25 1 19 21
M  V30 26 1 4 24
M  V30 27 1 4 25
M  V30 28 1 4 26
M  V30 29 1 6 27
M  V30 30 1 6 28
M  V30 31 1 7 29
M  V30 32 1 8 30
M  V30 33 1 9 31
M  V30 34 1 9 32
M  V30 35 1 9 33
M  V30 36 1 11 34
M  V30 37 1 13 35
M  V30 38 1 15 36
M  V30 39 1 16 37
M  V30 40 1 18 38
M  V30 41 1 19 39
M  V30 42 1 19 40
M  V30 END BOND
M  V30 END CTAB
M  END
>  <Column 1>
3709

>  <level_0>
6226

>  <index>
6227

>  <Unnamed: 0>
6227

>  <NO.>
6239

>  <Name>
n-[3-(3-cyano-1-2-dihydropyrazolo[1-5-a]pyrimidin-7-yl)phenyl]-n-ethylacetamide

>  <IUPAC_name>
n-[3-(3-cyano-1-2-dihydropyrazolo[1-5-a]pyrimidin-7-yl)phenyl]-n-ethylacetamide

>  <SMILES>
CCN(C(C)=O)c1cccc(C2=CC=NC3=C(C#N)CNN23)c1

>  <CID>
142218237

>  <logBB>


>  <BBB+/BBB->
BBB+

>  <Inchi>
InChI=1S/C17H17N5O/c1-3-21(12(2)23)15-6-4-5-13(9-15)16-7-8-19-17-14(10-18)11-20-22(16)17/h4-9-20H-3-11H2-1-2H3

>  <threshold>


>  <reference>
R24|

>  <group>
C

>  <Class>
-1

>  <ABC>
17.65

>  <ABCGG>
14.99

>  <nAcid>
0

>  <nBase>
0

>  <nAromAtom>
6

>  <nAromBond>
6

>  <nAtom>
40

>  <nHeavyAtom>
23

>  <nSpiro>
0

>  <nBridgehead>
0

>  <nHetero>
6

>  <nN>
5

>  <nO>
1

>  <nF>
0

>  <BalabanJ>
1.66

>  <BertzCT>
784.42

>  <nBonds>
42

>  <nBondsO>
25

>  <nBondsS>
31

>  <nBondsD>
4

>  <nBondsT>
1

>  <nBondsA>
6

>  <nBondsM>
11

>  <nBondsKS>
34

>  <nBondsKD>
7

>  <RNCG>
0.18

>  <RPCG>
0.13

>  <FCSP3>
0.24

>  <SZ>
27

>  <Sm>
25.59

>  <Sv>
26.11

>  <Sse>
40.19

>  <Sp>
27.56

>  <Si>
45.19

>  <MZ>
0.68

>  <Mm>
0.64

>  <Mv>
0.65

>  <Mse>
1

>  <Mp>
0.69

>  <Mi>
1.13

>  <NsCH3>
2

>  <NdCH2>
0

>  <NssCH2>
2

>  <NtCH>
0

>  <NdsCH>
2

>  <NaaCH>
4

>  <NsssCH>
0

>  <NddC>
0

>  <NtsC>
1

>  <NdssC>
4

>  <NaasC>
2

>  <NaaaC>
0

>  <NssssC>
0

>  <NsNH3>
0

>  <NsNH2>
0

>  <NssNH2>
0

>  <NdNH>
0

>  <NssNH>
1

>  <NaaNH>
0

>  <NtN>
1

>  <NsssNH>
0

>  <NdsN>
1

>  <NaaN>
0

>  <NsssN>
2

>  <NddsN>
0

>  <NaasN>
0

>  <NssssN>
0

>  <NsOH>
0

>  <NdO>
1

>  <NssO>
0

>  <NaaO>
0

>  <NsF>
0

>  <NsSiH3>
0

>  <NssSiH2>
0

>  <NsssSiH>
0

>  <NssssSi>
0

>  <NsPH2>
0

>  <NssPH>
0

>  <NsssP>
0

>  <NdsssP>
0

>  <NsssssP>
0

>  <NsSH>
0

>  <NdS>
0

>  <NssS>
0

>  <NaaS>
0

>  <NdssS>
0

>  <NddssS>
0

>  <NsCl>
0

>  <NsBr>
0

>  <NsI>
0

>  <fragCpx>
119.06

>  <fMF>
0.38

>  <nHBAcc>
5

>  <nHBDon>
1

>  <Kier1>
17.81

>  <Kier2>
7.92

>  <Lipinski>
1

>  <GhoseFilter>
1

>  <FilterItLogS>
-2.91

>  <VMcGowan>
234.88

>  <LabuteASA>
134.54

>  <PEOE_VSA1>
4.9

>  <PEOE_VSA2>
9.8

>  <PEOE_VSA3>
10.42

>  <PEOE_VSA4>
5.26

>  <PEOE_VSA5>
0

>  <PEOE_VSA6>
12.13

>  <PEOE_VSA7>
25.13

>  <PEOE_VSA8>
30.93

>  <PEOE_VSA9>
17.81

>  <PEOE_VSA10>
6.07

>  <PEOE_VSA11>
5.82

>  <PEOE_VSA12>
5.91

>  <PEOE_VSA13>
0

>  <SMR_VSA1>
4.79

>  <SMR_VSA2>
5.26

>  <SMR_VSA3>
10.43

>  <SMR_VSA4>
4.99

>  <SMR_VSA5>
13.85

>  <SMR_VSA6>
17.99

>  <SMR_VSA7>
47.3

>  <SMR_VSA8>
0

>  <SMR_VSA9>
6.07

>  <SlogP_VSA1>
10.33

>  <SlogP_VSA2>
30.22

>  <SlogP_VSA3>
4.79

>  <SlogP_VSA4>
11.33

>  <SlogP_VSA5>
19.41

>  <SlogP_VSA6>
46.73

>  <SlogP_VSA7>
0

>  <SlogP_VSA8>
5.7

>  <SlogP_VSA9>
0

>  <SlogP_VSA10>
5.69

>  <SlogP_VSA11>
0

>  <EState_VSA1>
0

>  <EState_VSA2>
5.91

>  <EState_VSA3>
24.48

>  <EState_VSA4>
16.95

>  <EState_VSA5>
0

>  <EState_VSA6>
18.04

>  <EState_VSA7>
42.27

>  <EState_VSA8>
16.49

>  <EState_VSA9>
5.26

>  <EState_VSA10>
4.79

>  <VSA_EState1>
0

>  <VSA_EState2>
17.75

>  <VSA_EState3>
10.98

>  <VSA_EState4>
6.49

>  <VSA_EState5>
0.64

>  <VSA_EState6>
9.96

>  <VSA_EState7>
3.58

>  <VSA_EState8>
4.59

>  <VSA_EState9>
0

>  <apol>
46.03

>  <bpol>
22.48

>  <nRing>
3

>  <nHRing>
2

>  <naRing>
1

>  <naHRing>
0

>  <nARing 2>
2

>  <nAHRing 2>
2

>  <nFRing>
1

>  <nFHRing>
1

>  <nFaRing>
0

>  <nFaHRing>
0

>  <nFARing 2>
1

>  <nFAHRing 2>
1

>  <nRot>
3

>  <SLogP>
2.04

>  <SMR>
89.09

>  <TopoPSA(NO)>
71.73

>  <TopoPSA>
71.73

>  <JGI1>
0.16

>  <JGI2>
0.09

>  <JGI3>
0.05

>  <JGI4>
0.02

>  <JGI5>
0.03

>  <Diameter>
11

>  <Radius>
6

>  <TMWC10>
123.16

>  <TSRW10>
71.44

>  <MW>
307.14

>  <AMW>
7.68

>  <WPath>
1169

>  <WPol>
38

>  <Zagreb1>
120

>  <Zagreb2>
144

>  <mZagreb2>
5.25

>  <yes>


>  <nAR-cont>
1

>  <nHA-cont>
0.967789328

>  <MWHBN>
0.342360034

>  <MWHBN-cont>
0.698525583

>  <TPSA-cont>
0.499280058

>  <pka_cont>
0.97

>  <yes.1>


>  <BBB_SCORE>
4.49913782

>  <MMFF94 Energy>
16.433

$$$$
Compound 2900
Actelion Java MolfileCreator 2.0

  0  0  0  0  0  0              0 V3000
M  V30 BEGIN CTAB
M  V30 COUNTS 38 40 0 0 0
M  V30 BEGIN ATOM
M  V30 1 Cl -2.8944 -2.9749 3.5385 0
M  V30 2 C -2.574 -2.1947 2.0398 0
M  V30 3 C -1.2855 -1.7518 1.7502 0
M  V30 4 C -3.6016 -2.0152 1.1194 0
M  V30 5 C -1.0157 -1.1103 0.5269 0
M  V30 6 C -3.336 -1.3869 -0.0988 0
M  V30 7 C -2.0462 -0.9347 -0.3988 0
M  V30 8 C 0.3842 -0.6492 0.1364 0 CFG=1
M  V30 9 N -1.7712 -0.2997 -1.601 0
M  V30 10 O 0.4081 0.2455 -1.0133 0
M  V30 11 C 1.0501 0.1573 1.2628 0
M  V30 12 C 1.1861 -1.8859 -0.3168 0
M  V30 13 C -0.5964 0.2986 -1.9168 0
M  V30 14 C 2.1484 -0.314 2.0024 0
M  V30 15 C 0.5319 1.4261 1.5965 0
M  V30 16 N -0.4546 0.9257 -3.0356 0
M  V30 17 C 2.705 0.4523 3.0312 0
M  V30 18 C 1.0889 2.1901 2.6238 0
M  V30 19 C 0.8511 1.5482 -3.2561 0
M  V30 20 C 2.1758 1.702 3.3415 0
M  V30 21 C 0.833 2.2252 -4.6157 0
M  V30 22 H -0.4911 -1.905 2.4773 0
M  V30 23 H -4.6079 -2.3601 1.3417 0
M  V30 24 H -4.1473 -1.2506 -0.8098 0
M  V30 25 H -2.5017 -0.2062 -2.2909 0
M  V30 26 H 1.2722 -2.6441 0.4694 0
M  V30 27 H 2.1956 -1.605 -0.6408 0
M  V30 28 H 0.7119 -2.3642 -1.1831 0
M  V30 29 H 2.5945 -1.2834 1.7981 0
M  V30 30 H -0.3173 1.829 1.0463 0
M  V30 31 H 3.5557 0.0714 3.591 0
M  V30 32 H 0.6733 3.1662 2.8603 0
M  V30 33 H 1.0585 2.3005 -2.4861 0
M  V30 34 H 1.6483 0.7957 -3.2432 0
M  V30 35 H 2.6116 2.2957 4.1407 0
M  V30 36 H 0.0512 2.9907 -4.6609 0
M  V30 37 H 0.6357 1.4991 -5.4113 0
M  V30 38 H 1.7958 2.7042 -4.8177 0
M  V30 END ATOM
M  V30 BEGIN BOND
M  V30 1 1 1 2
M  V30 2 2 2 3
M  V30 3 1 2 4
M  V30 4 1 3 5
M  V30 5 2 4 6
M  V30 6 2 5 7
M  V30 7 1 5 8
M  V30 8 1 7 9
M  V30 9 1 8 10
M  V30 10 1 8 11
M  V30 11 1 8 12
M  V30 12 1 9 13
M  V30 13 2 11 14
M  V30 14 1 11 15
M  V30 15 2 13 16
M  V30 16 1 14 17
M  V30 17 2 15 18
M  V30 18 1 16 19
M  V30 19 2 17 20
M  V30 20 1 19 21
M  V30 21 1 6 7
M  V30 22 1 10 13
M  V30 23 1 18 20
M  V30 24 1 3 22
M  V30 25 1 4 23
M  V30 26 1 6 24
M  V30 27 1 9 25
M  V30 28 1 12 26
M  V30 29 1 12 27
M  V30 30 1 12 28
M  V30 31 1 14 29
M  V30 32 1 15 30
M  V30 33 1 17 31
M  V30 34 1 18 32
M  V30 35 1 19 33
M  V30 36 1 19 34
M  V30 37 1 20 35
M  V30 38 1 21 36
M  V30 39 1 21 37
M  V30 40 1 21 38
M  V30 END BOND
M  V30 BEGIN COLLECTION
M  V30 MDLV30/STEABS ATOMS=(1 8)
M  V30 END COLLECTION
M  V30 END CTAB
M  END
>  <Column 1>
3710

>  <level_0>
6244

>  <index>
6245

>  <Unnamed: 0>
6245

>  <NO.>
6257

>  <Name>
unii-963e1x3t2s

>  <IUPAC_name>
(4s)-6-chloro-n-ethyl-4-methyl-4-phenyl-1h-3-1-benzoxazin-2-imine

>  <SMILES>
CCN=C1Nc2ccc(Cl)cc2[C@](C)(c2ccccc2)O1

>  <CID>
135564604

>  <logBB>


>  <BBB+/BBB->
BBB+

>  <Inchi>
InChI=1S/C17H17ClN2O/c1-3-19-16-20-15-10-9-13(18)11-14(15)17(2-21-16)12-7-5-4-6-8-12/h4-11H-3H2-1-2H3-(H-19-20)/t17-/m0/s1

>  <threshold>


>  <reference>
R24|R27|R30|

>  <group>
C

>  <Class>
-1

>  <ABC>
16.37

>  <ABCGG>
13.41

>  <nAcid>
0

>  <nBase>
2

>  <nAromAtom>
12

>  <nAromBond>
12

>  <nAtom>
38

>  <nHeavyAtom>
21

>  <nSpiro>
0

>  <nBridgehead>
0

>  <nHetero>
4

>  <nN>
2

>  <nO>
1

>  <nF>
0

>  <BalabanJ>
1.81

>  <BertzCT>
684.44

>  <nBonds>
40

>  <nBondsO>
23

>  <nBondsS>
27

>  <nBondsD>
1

>  <nBondsT>
0

>  <nBondsA>
12

>  <nBondsM>
13

>  <nBondsKS>
33

>  <nBondsKD>
7

>  <RNCG>
0.29

>  <RPCG>
0.19

>  <FCSP3>
0.24

>  <SZ>
26.33

>  <Sm>
25.04

>  <Sv>
24.93

>  <Sse>
37.97

>  <Sp>
26.89

>  <Si>
42.47

>  <MZ>
0.69

>  <Mm>
0.66

>  <Mv>
0.66

>  <Mse>
1

>  <Mp>
0.71

>  <Mi>
1.12

>  <NsCH3>
2

>  <NdCH2>
0

>  <NssCH2>
1

>  <NtCH>
0

>  <NdsCH>
0

>  <NaaCH>
8

>  <NsssCH>
0

>  <NddC>
0

>  <NtsC>
0

>  <NdssC>
1

>  <NaasC>
4

>  <NaaaC>
0

>  <NssssC>
1

>  <NsNH3>
0

>  <NsNH2>
0

>  <NssNH2>
0

>  <NdNH>
0

>  <NssNH>
1

>  <NaaNH>
0

>  <NtN>
0

>  <NsssNH>
0

>  <NdsN>
1

>  <NaaN>
0

>  <NsssN>
0

>  <NddsN>
0

>  <NaasN>
0

>  <NssssN>
0

>  <NsOH>
0

>  <NdO>
0

>  <NssO>
1

>  <NaaO>
0

>  <NsF>
0

>  <NsSiH3>
0

>  <NssSiH2>
0

>  <NsssSiH>
0

>  <NssssSi>
0

>  <NsPH2>
0

>  <NssPH>
0

>  <NsssP>
0

>  <NdsssP>
0

>  <NsssssP>
0

>  <NsSH>
0

>  <NdS>
0

>  <NssS>
0

>  <NaaS>
0

>  <NdssS>
0

>  <NddssS>
0

>  <NsCl>
1

>  <NsBr>
0

>  <NsI>
0

>  <fragCpx>
109.04

>  <fMF>
0.42

>  <nHBAcc>
2

>  <nHBDon>
1

>  <Kier1>
15.88

>  <Kier2>
6.63

>  <Lipinski>
1

>  <GhoseFilter>
1

>  <FilterItLogS>
-5.85

>  <VMcGowan>
225.78

>  <LabuteASA>
129.17

>  <PEOE_VSA1>
10.05

>  <PEOE_VSA2>
0

>  <PEOE_VSA3>
4.99

>  <PEOE_VSA4>
0

>  <PEOE_VSA5>
0

>  <PEOE_VSA6>
41.93

>  <PEOE_VSA7>
37.61

>  <PEOE_VSA8>
22.82

>  <PEOE_VSA9>
0

>  <PEOE_VSA10>
0

>  <PEOE_VSA11>
5.6

>  <PEOE_VSA12>
0

>  <PEOE_VSA13>
6.02

>  <SMR_VSA1>
4.74

>  <SMR_VSA2>
0

>  <SMR_VSA3>
0

>  <SMR_VSA4>
4.99

>  <SMR_VSA5>
19.45

>  <SMR_VSA6>
11.86

>  <SMR_VSA7>
64.68

>  <SMR_VSA8>
0

>  <SMR_VSA9>
0

>  <SlogP_VSA1>
5.32

>  <SlogP_VSA2>
12.57

>  <SlogP_VSA3>
10.34

>  <SlogP_VSA4>
0

>  <SlogP_VSA5>
24.97

>  <SlogP_VSA6>
53.52

>  <SlogP_VSA7>
5.02

>  <SlogP_VSA8>
0

>  <SlogP_VSA9>
0

>  <SlogP_VSA10>
5.69

>  <SlogP_VSA11>
0

>  <EState_VSA1>
5.6

>  <EState_VSA2>
0

>  <EState_VSA3>
17.59

>  <EState_VSA4>
16.81

>  <EState_VSA5>
0

>  <EState_VSA6>
0

>  <EState_VSA7>
50.25

>  <EState_VSA8>
22.44

>  <EState_VSA9>
16.34

>  <EState_VSA10>
0

>  <VSA_EState1>
6.16

>  <VSA_EState2>
4.38

>  <VSA_EState3>
3.91

>  <VSA_EState4>
2.44

>  <VSA_EState5>
0

>  <VSA_EState6>
16.44

>  <VSA_EState7>
0

>  <VSA_EState8>
4.69

>  <VSA_EState9>
0

>  <apol>
44.91

>  <bpol>
21.01

>  <nRing>
3

>  <nHRing>
1

>  <naRing>
2

>  <naHRing>
0

>  <nARing 2>
1

>  <nAHRing 2>
1

>  <nFRing>
1

>  <nFHRing>
1

>  <nFaRing>
0

>  <nFaHRing>
0

>  <nFARing 2>
1

>  <nFAHRing 2>
1

>  <nRot>
2

>  <SLogP>
4.42

>  <SMR>
87.03

>  <TopoPSA(NO)>
33.62

>  <TopoPSA>
33.62

>  <JGI1>
0.22

>  <JGI2>
0.09

>  <JGI3>
0.05

>  <JGI4>
0.05

>  <JGI5>
0.02

>  <Diameter>
9

>  <Radius>
5

>  <TMWC10>
119.08

>  <TSRW10>
55.4

>  <MW>
300.1

>  <AMW>
7.9

>  <WPath>
838

>  <WPol>
36

>  <Zagreb1>
112

>  <Zagreb2>
134

>  <mZagreb2>
4.65

>  <yes>


>  <nAR-cont>
0.816016

>  <nHA-cont>
0.994529749

>  <MWHBN>
0.17317622

>  <MWHBN-cont>
0.978682521

>  <TPSA-cont>
0.765311523

>  <pka_cont>
0.97

>  <yes.1>


>  <BBB_SCORE>
5.294192578

>  <MMFF94 Energy>
-12.456

$$$$
Compound 2901
Actelion Java MolfileCreator 2.0

  0  0  0  0  0  0              0 V3000
M  V30 BEGIN CTAB
M  V30 COUNTS 39 38 0 0 0
M  V30 BEGIN ATOM
M  V30 1 Br -4.9324 1.8276 0.0 0
M  V30 2 C -3.8265 0.2984 0.1667 0
M  V30 3 C -2.5736 0.182 -0.4415 0
M  V30 4 C -4.3002 -0.7652 0.9365 0
M  V30 5 N -1.8065 -0.9403 -0.2994 0
M  V30 6 C -1.9562 1.2808 -1.2721 0
M  V30 7 C -3.5242 -1.9096 1.0839 0
M  V30 8 C -2.296 -1.9505 0.452 0
M  V30 9 S -1.1429 2.5876 -0.2895 0
M  V30 10 C 0.0982 1.5681 0.5772 0
M  V30 11 C 1.1348 2.4518 1.2855 0
M  V30 12 N 2.1186 1.6913 2.0596 0
M  V30 13 C 3.0947 1.0101 1.2493 0
M  V30 14 N 3.2344 -0.3079 1.8347 0
M  V30 15 C 2.329 -1.2901 1.2356 0
M  V30 16 C 2.5713 -2.657 1.8582 0
M  V30 17 N 1.8612 0.2497 -4.9959 0
M  V30 18 C 0.7591 0.0828 -5.3002 0
M  V30 19 N -0.5096 -0.1093 -5.6506 0
M  V30 20 H -5.2697 -0.7098 1.425 0
M  V30 21 H -2.706 1.7399 -1.9243 0
M  V30 22 H -1.2055 0.8519 -1.9462 0
M  V30 23 H -3.871 -2.7479 1.6778 0
M  V30 24 H -1.6522 -2.8217 0.5354 0
M  V30 25 H 0.587 0.9211 -0.1567 0
M  V30 26 H -0.414 0.9433 1.3158 0
M  V30 27 H 0.6174 3.1137 1.9908 0
M  V30 28 H 1.6498 3.1044 0.5693 0
M  V30 29 H 1.6658 0.987 2.6375 0
M  V30 30 H 2.8643 0.9634 0.1787 0
M  V30 31 H 4.0454 1.5463 1.3421 0
M  V30 32 H 4.1942 -0.6183 1.6894 0
M  V30 33 H 2.4924 -1.3576 0.154 0
M  V30 34 H 1.2845 -1.0105 1.4073 0
M  V30 35 H 3.5967 -2.9984 1.6815 0
M  V30 36 H 2.3973 -2.636 2.9393 0
M  V30 37 H 1.8907 -3.3952 1.4218 0
M  V30 38 H -1.1035 0.6543 -5.9803 0
M  V30 39 H -0.9514 -1.0298 -5.607 0
M  V30 END ATOM
M  V30 BEGIN BOND
M  V30 1 1 1 2
M  V30 2 2 2 3
M  V30 3 1 2 4
M  V30 4 1 3 5
M  V30 5 1 3 6
M  V30 6 2 4 7
M  V30 7 2 5 8
M  V30 8 1 6 9
M  V30 9 1 9 10
M  V30 10 1 10 11
M  V30 11 1 11 12
M  V30 12 1 12 13
M  V30 13 1 13 14
M  V30 14 1 14 15
M  V30 15 1 15 16
M  V30 16 3 17 18
M  V30 17 1 18 19
M  V30 18 1 7 8
M  V30 19 1 4 20
M  V30 20 1 6 21
M  V30 21 1 6 22
M  V30 22 1 7 23
M  V30 23 1 8 24
M  V30 24 1 10 25
M  V30 25 1 10 26
M  V30 26 1 11 27
M  V30 27 1 11 28
M  V30 28 1 12 29
M  V30 29 1 13 30
M  V30 30 1 13 31
M  V30 31 1 14 32
M  V30 32 1 15 33
M  V30 33 1 15 34
M  V30 34 1 16 35
M  V30 35 1 16 36
M  V30 36 1 16 37
M  V30 37 1 19 38
M  V30 38 1 19 39
M  V30 END BOND
M  V30 END CTAB
M  END
>  <Column 1>
3711

>  <level_0>
6245

>  <index>
6246

>  <Unnamed: 0>
6246

>  <NO.>
6258

>  <Name>


>  <IUPAC_name>


>  <SMILES>
CCNCNCCSCc1ncccc1Br.N#CN

>  <CID>


>  <logBB>


>  <BBB+/BBB->
BBB-

>  <Inchi>
InChI=1S/C11H18BrN3S.CH2N2/c1-2-13-9-14-6-7-16-8-11-10(12)4-3-5-15-11;2-1-3/h3-5-13-14H-2-6-9H2-1H3;2H2

>  <threshold>


>  <reference>
R24|

>  <group>
C

>  <Class>
1

>  <ABC>
12.8

>  <ABCGG>
11.07

>  <nAcid>
0

>  <nBase>
2

>  <nAromAtom>
6

>  <nAromBond>
6

>  <nAtom>
39

>  <nHeavyAtom>
19

>  <nSpiro>
0

>  <nBridgehead>
0

>  <nHetero>
7

>  <nN>
5

>  <nO>
0

>  <nF>
0

>  <BalabanJ>
0

>  <BertzCT>
369.38

>  <nBonds>
38

>  <nBondsO>
18

>  <nBondsS>
31

>  <nBondsD>
0

>  <nBondsT>
1

>  <nBondsA>
6

>  <nBondsM>
7

>  <nBondsKS>
34

>  <nBondsKD>
3

>  <RNCG>
0.2

>  <RPCG>
0.1

>  <FCSP3>
0.5

>  <SZ>
29.67

>  <Sm>
28.83

>  <Sv>
23.68

>  <Sse>
38.94

>  <Sp>
26.84

>  <Si>
44.58

>  <MZ>
0.76

>  <Mm>
0.74

>  <Mv>
0.61

>  <Mse>
1

>  <Mp>
0.69

>  <Mi>
1.14

>  <NsCH3>
1

>  <NdCH2>
0

>  <NssCH2>
5

>  <NtCH>
0

>  <NdsCH>
0

>  <NaaCH>
3

>  <NsssCH>
0

>  <NddC>
0

>  <NtsC>
1

>  <NdssC>
0

>  <NaasC>
2

>  <NaaaC>
0

>  <NssssC>
0

>  <NsNH3>
0

>  <NsNH2>
1

>  <NssNH2>
0

>  <NdNH>
0

>  <NssNH>
2

>  <NaaNH>
0

>  <NtN>
1

>  <NsssNH>
0

>  <NdsN>
0

>  <NaaN>
1

>  <NsssN>
0

>  <NddsN>
0

>  <NaasN>
0

>  <NssssN>
0

>  <NsOH>
0

>  <NdO>
0

>  <NssO>
0

>  <NaaO>
0

>  <NsF>
0

>  <NsSiH3>
0

>  <NssSiH2>
0

>  <NsssSiH>
0

>  <NssssSi>
0

>  <NsPH2>
0

>  <NssPH>
0

>  <NsssP>
0

>  <NdsssP>
0

>  <NsssssP>
0

>  <NsSH>
0

>  <NdS>
0

>  <NssS>
1

>  <NaaS>
0

>  <NdssS>
0

>  <NddssS>
0

>  <NsCl>
0

>  <NsBr>
1

>  <NsI>
0

>  <fragCpx>
18.07

>  <fMF>
0.15

>  <nHBAcc>
6

>  <nHBDon>
3

>  <Kier1>
19

>  <Kier2>
14.41

>  <Lipinski>
1

>  <GhoseFilter>
1

>  <FilterItLogS>
-4.75

>  <VMcGowan>
242.19

>  <LabuteASA>
127.03

>  <PEOE_VSA1>
16.37

>  <PEOE_VSA2>
4.98

>  <PEOE_VSA3>
0

>  <PEOE_VSA4>
17.02

>  <PEOE_VSA5>
0

>  <PEOE_VSA6>
6.92

>  <PEOE_VSA7>
34.61

>  <PEOE_VSA8>
35.39

>  <PEOE_VSA9>
5.69

>  <PEOE_VSA10>
0

>  <PEOE_VSA11>
6.19

>  <PEOE_VSA12>
0

>  <PEOE_VSA13>
0

>  <SMR_VSA1>
0

>  <SMR_VSA2>
5.26

>  <SMR_VSA3>
15.62

>  <SMR_VSA4>
5.73

>  <SMR_VSA5>
12.68

>  <SMR_VSA6>
25.51

>  <SMR_VSA7>
28.5

>  <SMR_VSA8>
0

>  <SMR_VSA9>
6.19

>  <SlogP_VSA1>
16.37

>  <SlogP_VSA2>
30.5

>  <SlogP_VSA3>
5.75

>  <SlogP_VSA4>
11.46

>  <SlogP_VSA5>
12.62

>  <SlogP_VSA6>
22.8

>  <SlogP_VSA7>
0

>  <SlogP_VSA8>
0

>  <SlogP_VSA9>
0

>  <SlogP_VSA10>
0

>  <SlogP_VSA11>
0

>  <EState_VSA1>
0

>  <EState_VSA2>
0

>  <EState_VSA3>
0

>  <EState_VSA4>
41.43

>  <EState_VSA5>
6.19

>  <EState_VSA6>
0

>  <EState_VSA7>
30.09

>  <EState_VSA8>
44.2

>  <EState_VSA9>
5.26

>  <EState_VSA10>
0

>  <VSA_EState1>
1.1

>  <VSA_EState2>
4.33

>  <VSA_EState3>
13.65

>  <VSA_EState4>
5.28

>  <VSA_EState5>
2.07

>  <VSA_EState6>
3.97

>  <VSA_EState7>
3.09

>  <VSA_EState8>
5.04

>  <VSA_EState9>
0

>  <apol>
44.83

>  <bpol>
26.18

>  <nRing>
1

>  <nHRing>
1

>  <naRing>
1

>  <naHRing>
1

>  <nARing 2>
0

>  <nAHRing 2>
0

>  <nFRing>
0

>  <nFHRing>
0

>  <nFaRing>
0

>  <nFaHRing>
0

>  <nFARing 2>
0

>  <nFAHRing 2>
0

>  <nRot>
8

>  <SLogP>
1.66

>  <SMR>
84.45

>  <TopoPSA(NO)>
86.76

>  <TopoPSA>
112.06

>  <JGI1>
0.11

>  <JGI2>
0.06

>  <JGI3>
0.03

>  <JGI4>
0.03

>  <JGI5>
0.01

>  <Diameter>
100000000

>  <Radius>
100000000

>  <TMWC10>
102.93

>  <TSRW10>
49.83

>  <MW>
345.06

>  <AMW>
8.85

>  <WPath>
4800000580

>  <WPol>
17

>  <Zagreb1>
74

>  <Zagreb2>
76

>  <mZagreb2>
4.94

>  <yes>


>  <nAR-cont>
0.336376

>  <nHA-cont>
0.998649058

>  <MWHBN>
0.484501583

>  <MWHBN-cont>
0

>  <TPSA-cont>
0.217751615

>  <pka_cont>
0.97

>  <yes.1>


>  <BBB_SCORE>
2.255528288

>  <MMFF94 Energy>
-1.4151

$$$$
Compound 2902
Actelion Java MolfileCreator 2.0

  0  0  0  0  0  0              0 V3000
M  V30 BEGIN CTAB
M  V30 COUNTS 70 77 0 0 0
M  V30 BEGIN ATOM
M  V30 1 O -0.6467 -2.346 0.4041 0
M  V30 2 C 0.0996 -2.0694 -0.7186 0
M  V30 3 C -0.9886 -1.0204 0.9384 0 CFG=2
M  V30 4 C 0.9458 -2.9388 -1.3826 0
M  V30 5 C -0.0089 -0.7445 -1.0974 0
M  V30 6 C -1.0203 -0.039 -0.256 0 CFG=2
M  V30 7 C -0.0358 -0.683 2.0976 0 CFG=1
M  V30 8 O 0.9756 -4.2271 -0.9366 0
M  V30 9 C 1.7108 -2.4054 -2.4316 0
M  V30 10 C 0.7793 -0.1793 -2.0827 0
M  V30 11 C -0.576 1.3934 -0.0797 0 CFG=2
M  V30 12 C -2.3829 -0.0232 -0.9787 0
M  V30 13 O -0.4015 -1.2973 3.3667 0
M  V30 14 C 1.4711 -0.5426 1.8565 0 CFG=1
M  V30 15 C 0.638 0.6791 2.1647 0 CFG=1
M  V30 16 C 1.8948 -5.1069 -1.5669 0
M  V30 17 C 1.643 -1.0333 -2.767 0
M  V30 18 C 0.7344 1.3143 -2.2791 0
M  V30 19 C -0.3719 2.052 -1.4483 0 CFG=2
M  V30 20 C 0.2938 1.7328 1.1194 0 CFG=2
M  V30 21 C -1.118 2.2549 1.0474 0
M  V30 22 C -2.3203 0.7824 -2.2888 0
M  V30 23 C -1.4342 -0.62 4.0768 0
M  V30 24 C 2.5498 -1.0071 2.812 0 CFG=1
M  V30 25 N -1.6659 2.098 -2.1792 0
M  V30 26 O 2.1164 -0.9218 4.1693 0
M  V30 27 C 3.0091 -2.449 2.5054 0
M  V30 28 C 3.7605 -0.0686 2.6907 0
M  V30 29 C -2.5654 3.1454 -1.6851 0
M  V30 30 C 1.9696 -3.5311 2.7689 0
M  V30 31 C -3.4944 3.5861 -2.7834 0
M  V30 32 C -3.8512 5.0442 -2.9441 0
M  V30 33 C -2.9732 4.3715 -3.9616 0
M  V30 34 H -2.0002 -1.1091 1.3502 0
M  V30 35 H 2.3994 -3.0249 -2.9976 0
M  V30 36 H -3.1389 0.4223 -0.3192 0
M  V30 37 H -2.7264 -1.0404 -1.207 0
M  V30 38 H 1.8419 -0.6165 0.8408 0
M  V30 39 H 0.7893 1.0992 3.1591 0
M  V30 40 H 1.6523 -5.2378 -2.6266 0
M  V30 41 H 1.8084 -6.0844 -1.0826 0
M  V30 42 H 2.9257 -4.7614 -1.4368 0
M  V30 43 H 2.2851 -0.6458 -3.555 0
M  V30 44 H 1.7075 1.7062 -1.9541 0
M  V30 45 H 0.6308 1.5532 -3.3445 0
M  V30 46 H -0.01 3.0818 -1.326 0
M  V30 47 H 1.0827 2.4641 0.9485 0
M  V30 48 H -1.8649 1.8326 1.71 0
M  V30 49 H -1.2317 3.3235 0.9005 0
M  V30 50 H -1.791 0.1974 -3.0505 0
M  V30 51 H -3.3351 0.8752 -2.6922 0
M  V30 52 H -1.099 0.373 4.3875 0
M  V30 53 H -2.3408 -0.537 3.4724 0
M  V30 54 H -1.6673 -1.2014 4.9729 0
M  V30 55 H 1.2293 -1.3331 4.1868 0
M  V30 56 H 3.879 -2.6872 3.1313 0
M  V30 57 H 3.3359 -2.5233 1.4606 0
M  V30 58 H 3.4832 0.9624 2.9395 0
M  V30 59 H 4.5518 -0.3541 3.3933 0
M  V30 60 H 4.1746 -0.0717 1.6768 0
M  V30 61 H -1.9872 4.0204 -1.363 0
M  V30 62 H -3.1507 2.8165 -0.819 0
M  V30 63 H 2.393 -4.5152 2.5425 0
M  V30 64 H 1.6557 -3.5398 3.8169 0
M  V30 65 H 1.0859 -3.4028 2.1414 0
M  V30 66 H -4.2874 2.8703 -2.9661 0
M  V30 67 H -3.3929 5.7736 -2.2863 0
M  V30 68 H -4.8668 5.2882 -3.2348 0
M  V30 69 H -1.9198 4.6271 -3.9808 0
M  V30 70 H -3.3922 4.1511 -4.9365 0
M  V30 END ATOM
M  V30 BEGIN BOND
M  V30 1 1 1 2
M  V30 2 1 1 3
M  V30 3 2 2 4
M  V30 4 1 2 5
M  V30 5 1 3 6
M  V30 6 1 3 7
M  V30 7 1 4 8
M  V30 8 1 4 9
M  V30 9 2 5 10
M  V30 10 1 6 11
M  V30 11 1 6 12
M  V30 12 1 7 13
M  V30 13 1 7 14
M  V30 14 1 7 15
M  V30 15 1 8 16
M  V30 16 2 9 17
M  V30 17 1 10 18
M  V30 18 1 11 19
M  V30 19 1 11 20
M  V30 20 1 11 21
M  V30 21 1 12 22
M  V30 22 1 13 23
M  V30 23 1 14 24
M  V30 24 1 19 25
M  V30 25 1 24 26
M  V30 26 1 24 27
M  V30 27 1 24 28
M  V30 28 1 25 29
M  V30 29 1 27 30
M  V30 30 1 29 31
M  V30 31 1 31 32
M  V30 32 1 31 33
M  V30 33 1 5 6
M  V30 34 1 10 17
M  V30 35 1 14 15
M  V30 36 1 15 20
M  V30 37 1 18 19
M  V30 38 1 20 21
M  V30 39 1 22 25
M  V30 40 1 32 33
M  V30 41 1 3 34
M  V30 42 1 9 35
M  V30 43 1 12 36
M  V30 44 1 12 37
M  V30 45 1 14 38
M  V30 46 1 15 39
M  V30 47 1 16 40
M  V30 48 1 16 41
M  V30 49 1 16 42
M  V30 50 1 17 43
M  V30 51 1 18 44
M  V30 52 1 18 45
M  V30 53 1 19 46
M  V30 54 1 20 47
M  V30 55 1 21 48
M  V30 56 1 21 49
M  V30 57 1 22 50
M  V30 58 1 22 51
M  V30 59 1 23 52
M  V30 60 1 23 53
M  V30 61 1 23 54
M  V30 62 1 26 55
M  V30 63 1 27 56
M  V30 64 1 27 57
M  V30 65 1 28 58
M  V30 66 1 28 59
M  V30 67 1 28 60
M  V30 68 1 29 61
M  V30 69 1 29 62
M  V30 70 1 30 63
M  V30 71 1 30 64
M  V30 72 1 30 65
M  V30 73 1 31 66
M  V30 74 1 32 67
M  V30 75 1 32 68
M  V30 76 1 33 69
M  V30 77 1 33 70
M  V30 END BOND
M  V30 BEGIN COLLECTION
M  V30 MDLV30/STEABS ATOMS=(9 3 6 7 11 14 15 19 20 24)
M  V30 END COLLECTION
M  V30 END CTAB
M  END
>  <Column 1>
3714

>  <level_0>
6312

>  <index>
6313

>  <Unnamed: 0>
6313

>  <NO.>
6325

>  <Name>


>  <IUPAC_name>


>  <SMILES>
CC[C@](C)(O)[C@@H]1[C@H]2[C@@H]3C[C@@]34[C@@H]3Cc5ccc(OC)c6c5[C@@]4(CCN3CC3CC3)[C@@H](O6)[C@@]12OC

>  <CID>


>  <logBB>


>  <BBB+/BBB->
BBB+

>  <Inchi>
InChI=1S/C28H37NO4/c1-5-25(2-30)23-21-17-13-27(17)19-12-16-8-9-18(31-3)22-20(16)26(27-24(33-22)28(21-23)32-4)10-11-29(19)14-15-6-7-15/h8-9-15-17-19-21-23-24-30H-5-7-10-14H2-1-4H3/t17--19--21+-23--24+-25--26--27--28-/m0/s1

>  <threshold>


>  <reference>
R24|

>  <group>
C

>  <Class>
1

>  <ABC>
27.77

>  <ABCGG>
22.19

>  <nAcid>
0

>  <nBase>
1

>  <nAromAtom>
6

>  <nAromBond>
6

>  <nAtom>
70

>  <nHeavyAtom>
33

>  <nSpiro>
2

>  <nBridgehead>
2

>  <nHetero>
5

>  <nN>
1

>  <nO>
4

>  <nF>
0

>  <BalabanJ>
1.3

>  <BertzCT>
1066.22

>  <nBonds>
77

>  <nBondsO>
40

>  <nBondsS>
71

>  <nBondsD>
0

>  <nBondsT>
0

>  <nBondsA>
6

>  <nBondsM>
6

>  <nBondsKS>
74

>  <nBondsKD>
3

>  <RNCG>
0.2

>  <RPCG>
0.08

>  <FCSP3>
0.79

>  <SZ>
40.67

>  <Sm>
37.6

>  <Sv>
41.64

>  <Sse>
69.41

>  <Sp>
45.35

>  <Si>
78.81

>  <MZ>
0.58

>  <Mm>
0.54

>  <Mv>
0.59

>  <Mse>
0.99

>  <Mp>
0.65

>  <Mi>
1.13

>  <NsCH3>
4

>  <NdCH2>
0

>  <NssCH2>
8

>  <NtCH>
0

>  <NdsCH>
0

>  <NaaCH>
2

>  <NsssCH>
6

>  <NddC>
0

>  <NtsC>
0

>  <NdssC>
0

>  <NaasC>
4

>  <NaaaC>
0

>  <NssssC>
4

>  <NsNH3>
0

>  <NsNH2>
0

>  <NssNH2>
0

>  <NdNH>
0

>  <NssNH>
0

>  <NaaNH>
0

>  <NtN>
0

>  <NsssNH>
0

>  <NdsN>
0

>  <NaaN>
0

>  <NsssN>
1

>  <NddsN>
0

>  <NaasN>
0

>  <NssssN>
0

>  <NsOH>
1

>  <NdO>
0

>  <NssO>
3

>  <NaaO>
0

>  <NsF>
0

>  <NsSiH3>
0

>  <NssSiH2>
0

>  <NsssSiH>
0

>  <NssssSi>
0

>  <NsPH2>
0

>  <NssPH>
0

>  <NsssP>
0

>  <NdsssP>
0

>  <NsssssP>
0

>  <NsSH>
0

>  <NdS>
0

>  <NssS>
0

>  <NaaS>
0

>  <NdssS>
0

>  <NddssS>
0

>  <NsCl>
0

>  <NsBr>
0

>  <NsI>
0

>  <fragCpx>
544.05

>  <fMF>
0.34

>  <nHBAcc>
5

>  <nHBDon>
1

>  <Kier1>
21.12

>  <Kier2>
6.28

>  <Lipinski>
1

>  <GhoseFilter>
1

>  <FilterItLogS>
-5.08

>  <VMcGowan>
339.06

>  <LabuteASA>
196.31

>  <PEOE_VSA1>
19.32

>  <PEOE_VSA2>
4.9

>  <PEOE_VSA3>
0

>  <PEOE_VSA4>
0

>  <PEOE_VSA5>
0

>  <PEOE_VSA6>
12.99

>  <PEOE_VSA7>
75.46

>  <PEOE_VSA8>
47.93

>  <PEOE_VSA9>
12.71

>  <PEOE_VSA10>
11.71

>  <PEOE_VSA11>
11.5

>  <PEOE_VSA12>
0

>  <PEOE_VSA13>
0

>  <SMR_VSA1>
19.32

>  <SMR_VSA2>
0

>  <SMR_VSA3>
4.9

>  <SMR_VSA4>
29.09

>  <SMR_VSA5>
81.14

>  <SMR_VSA6>
27.31

>  <SMR_VSA7>
23.26

>  <SMR_VSA8>
0

>  <SMR_VSA9>
11.5

>  <SlogP_VSA1>
9.47

>  <SlogP_VSA2>
60.66

>  <SlogP_VSA3>
16.57

>  <SlogP_VSA4>
29.09

>  <SlogP_VSA5>
57.08

>  <SlogP_VSA6>
12.13

>  <SlogP_VSA7>
0

>  <SlogP_VSA8>
0

>  <SlogP_VSA9>
0

>  <SlogP_VSA10>
0

>  <SlogP_VSA11>
11.5

>  <EState_VSA1>
11.2

>  <EState_VSA2>
22.85

>  <EState_VSA3>
17.88

>  <EState_VSA4>
43.22

>  <EState_VSA5>
36.93

>  <EState_VSA6>
7.11

>  <EState_VSA7>
14.03

>  <EState_VSA8>
23.96

>  <EState_VSA9>
14.21

>  <EState_VSA10>
5.11

>  <VSA_EState1>
19.43

>  <VSA_EState2>
2.88

>  <VSA_EState3>
11.58

>  <VSA_EState4>
2.05

>  <VSA_EState5>
3.91

>  <VSA_EState6>
5.04

>  <VSA_EState7>
7.07

>  <VSA_EState8>
6.58

>  <VSA_EState9>
3.63

>  <apol>
75.74

>  <bpol>
44.04

>  <nRing>
8

>  <nHRing>
2

>  <naRing>
1

>  <naHRing>
0

>  <nARing 2>
7

>  <nAHRing 2>
2

>  <nFRing>
1

>  <nFHRing>
1

>  <nFaRing>
0

>  <nFaHRing>
0

>  <nFARing 2>
1

>  <nFAHRing 2>
1

>  <nRot>
6

>  <SLogP>
3.55

>  <SMR>
123.67

>  <TopoPSA(NO)>
51.16

>  <TopoPSA>
51.16

>  <JGI1>
0.24

>  <JGI2>
0.12

>  <JGI3>
0.07

>  <JGI4>
0.05

>  <JGI5>
0.04

>  <Diameter>
11

>  <Radius>
6

>  <TMWC10>
159.15

>  <TSRW10>
96.88

>  <MW>
451.27

>  <AMW>
6.45

>  <WPath>
2492

>  <WPol>
80

>  <Zagreb1>
220

>  <Zagreb2>
302

>  <mZagreb2>
6.81

>  <yes>


>  <nAR-cont>
0

>  <nHA-cont>
0.61399562

>  <MWHBN>
0.282444433

>  <MWHBN-cont>
0.889818917

>  <TPSA-cont>
0.642871432

>  <pka_cont>
0.97

>  <yes.1>


>  <BBB_SCORE>
3.719466859

>  <MMFF94 Energy>
130.29

$$$$
Compound 2903
Actelion Java MolfileCreator 2.0

  0  0  0  0  0  0              0 V3000
M  V30 BEGIN CTAB
M  V30 COUNTS 33 34 0 0 0
M  V30 BEGIN ATOM
M  V30 1 O -0.3161 2.8481 1.1068 0
M  V30 2 C -0.2464 1.6701 1.4537 0
M  V30 3 N 0.4666 1.3548 2.5889 0
M  V30 4 C -0.8694 0.4946 0.6646 0 CFG=1
M  V30 5 C 0.5882 0.1413 3.2137 0
M  V30 6 C 0.1134 -0.1475 -0.3333 0
M  V30 7 C -1.3201 -0.5288 1.7473 0
M  V30 8 C -2.1527 0.9836 -0.0762 0
M  V30 9 O 1.285 0.0134 4.2167 0
M  V30 10 C -0.1479 -1.0144 2.5911 0
M  V30 11 C 1.33 0.4615 -0.6802 0
M  V30 12 C -0.2026 -1.3619 -0.9685 0
M  V30 13 C -1.9342 1.8314 -1.3285 0
M  V30 14 C 2.207 -0.1405 -1.5919 0
M  V30 15 C 0.6789 -1.9576 -1.8784 0
M  V30 16 C 1.9007 -1.3637 -2.1834 0
M  V30 17 N 2.7537 -1.9351 -3.1082 0
M  V30 18 H 0.93 2.1292 3.0438 0
M  V30 19 H -2.0549 -0.0522 2.4126 0
M  V30 20 H -1.8288 -1.3939 1.3067 0
M  V30 21 H -2.7595 0.1173 -0.3723 0
M  V30 22 H -2.7727 1.5632 0.6211 0
M  V30 23 H 0.5637 -1.6009 2.0018 0
M  V30 24 H -0.5234 -1.6553 3.3967 0
M  V30 25 H 1.6234 1.4258 -0.2704 0
M  V30 26 H -1.1491 -1.8628 -0.7788 0
M  V30 27 H -2.9015 2.1697 -1.7155 0
M  V30 28 H -1.4512 1.2578 -2.1251 0
M  V30 29 H -1.3312 2.7203 -1.13 0
M  V30 30 H 3.1358 0.3672 -1.8395 0
M  V30 31 H 0.3944 -2.8935 -2.3519 0
M  V30 32 H 2.5611 -2.8541 -3.4814 0
M  V30 33 H 3.6666 -1.5344 -3.2742 0
M  V30 END ATOM
M  V30 BEGIN BOND
M  V30 1 2 1 2
M  V30 2 1 2 3
M  V30 3 1 2 4
M  V30 4 1 3 5
M  V30 5 1 4 6
M  V30 6 1 4 7
M  V30 7 1 4 8
M  V30 8 2 5 9
M  V30 9 1 5 10
M  V30 10 2 6 11
M  V30 11 1 6 12
M  V30 12 1 8 13
M  V30 13 1 11 14
M  V30 14 2 12 15
M  V30 15 2 14 16
M  V30 16 1 16 17
M  V30 17 1 7 10
M  V30 18 1 15 16
M  V30 19 1 3 18
M  V30 20 1 7 19
M  V30 21 1 7 20
M  V30 22 1 8 21
M  V30 23 1 8 22
M  V30 24 1 10 23
M  V30 25 1 10 24
M  V30 26 1 11 25
M  V30 27 1 12 26
M  V30 28 1 13 27
M  V30 29 1 13 28
M  V30 30 1 13 29
M  V30 31 1 14 30
M  V30 32 1 15 31
M  V30 33 1 17 32
M  V30 34 1 17 33
M  V30 END BOND
M  V30 BEGIN COLLECTION
M  V30 MDLV30/STEABS ATOMS=(1 4)
M  V30 END COLLECTION
M  V30 END CTAB
M  END
>  <Column 1>
3715

>  <level_0>
6316

>  <index>
6317

>  <Unnamed: 0>
6317

>  <NO.>
6329

>  <Name>
(r)-aminoglutethimide

>  <IUPAC_name>
(3r)-3-(4-aminophenyl)-3-ethylpiperidine-2-6-dione

>  <SMILES>
CC[C@]1(c2ccc(N)cc2)CCC(=O)NC1=O

>  <CID>
86488

>  <logBB>


>  <BBB+/BBB->
BBB+

>  <Inchi>
InChI=1S/C13H16N2O2/c1-2-13(8-7-11(16)15-12(13)17)9-3-5-10(14)6-4-9/h3-6H-2-7-8-14H2-1H3-(H-15-16-17)/t13-/m1/s1

>  <threshold>


>  <reference>
R24|R27|R30|

>  <group>
C

>  <Class>
1

>  <ABC>
12.93

>  <ABCGG>
11.41

>  <nAcid>
0

>  <nBase>
0

>  <nAromAtom>
6

>  <nAromBond>
6

>  <nAtom>
33

>  <nHeavyAtom>
17

>  <nSpiro>
0

>  <nBridgehead>
0

>  <nHetero>
4

>  <nN>
2

>  <nO>
2

>  <nF>
0

>  <BalabanJ>
2.08

>  <BertzCT>
452.99

>  <nBonds>
34

>  <nBondsO>
18

>  <nBondsS>
26

>  <nBondsD>
2

>  <nBondsT>
0

>  <nBondsA>
6

>  <nBondsM>
8

>  <nBondsKS>
29

>  <nBondsKD>
5

>  <RNCG>
0.25

>  <RPCG>
0.15

>  <FCSP3>
0.38

>  <SZ>
20.67

>  <Sm>
19.34

>  <Sv>
20.28

>  <Sse>
33.09

>  <Sp>
21.67

>  <Si>
37.32

>  <MZ>
0.63

>  <Mm>
0.59

>  <Mv>
0.61

>  <Mse>
1

>  <Mp>
0.66

>  <Mi>
1.13

>  <NsCH3>
1

>  <NdCH2>
0

>  <NssCH2>
3

>  <NtCH>
0

>  <NdsCH>
0

>  <NaaCH>
4

>  <NsssCH>
0

>  <NddC>
0

>  <NtsC>
0

>  <NdssC>
2

>  <NaasC>
2

>  <NaaaC>
0

>  <NssssC>
1

>  <NsNH3>
0

>  <NsNH2>
1

>  <NssNH2>
0

>  <NdNH>
0

>  <NssNH>
1

>  <NaaNH>
0

>  <NtN>
0

>  <NsssNH>
0

>  <NdsN>
0

>  <NaaN>
0

>  <NsssN>
0

>  <NddsN>
0

>  <NaasN>
0

>  <NssssN>
0

>  <NsOH>
0

>  <NdO>
2

>  <NssO>
0

>  <NaaO>
0

>  <NsF>
0

>  <NsSiH3>
0

>  <NssSiH2>
0

>  <NsssSiH>
0

>  <NssssSi>
0

>  <NsPH2>
0

>  <NssPH>
0

>  <NsssP>
0

>  <NdsssP>
0

>  <NsssssP>
0

>  <NsSH>
0

>  <NdS>
0

>  <NssS>
0

>  <NaaS>
0

>  <NdssS>
0

>  <NddssS>
0

>  <NsCl>
0

>  <NsBr>
0

>  <NsI>
0

>  <fragCpx>
52.04

>  <fMF>
0.36

>  <nHBAcc>
3

>  <nHBDon>
2

>  <Kier1>
13.43

>  <Kier2>
5.33

>  <Lipinski>
1

>  <GhoseFilter>
1

>  <FilterItLogS>
-3.44

>  <VMcGowan>
182.51

>  <LabuteASA>
100.19

>  <PEOE_VSA1>
5.73

>  <PEOE_VSA2>
14.91

>  <PEOE_VSA3>
0

>  <PEOE_VSA4>
0

>  <PEOE_VSA5>
0

>  <PEOE_VSA6>
19.06

>  <PEOE_VSA7>
30.54

>  <PEOE_VSA8>
12.11

>  <PEOE_VSA9>
5.41

>  <PEOE_VSA10>
0

>  <PEOE_VSA11>
0

>  <PEOE_VSA12>
11.81

>  <PEOE_VSA13>
0

>  <SMR_VSA1>
9.59

>  <SMR_VSA2>
0

>  <SMR_VSA3>
5.32

>  <SMR_VSA4>
0

>  <SMR_VSA5>
31.6

>  <SMR_VSA6>
5.73

>  <SMR_VSA7>
29.83

>  <SMR_VSA8>
0

>  <SMR_VSA9>
0

>  <SlogP_VSA1>
11.05

>  <SlogP_VSA2>
11.81

>  <SlogP_VSA3>
15

>  <SlogP_VSA4>
0

>  <SlogP_VSA5>
31.75

>  <SlogP_VSA6>
24.27

>  <SlogP_VSA7>
0

>  <SlogP_VSA8>
0

>  <SlogP_VSA9>
0

>  <SlogP_VSA10>
5.69

>  <SlogP_VSA11>
0

>  <EState_VSA1>
5.41

>  <EState_VSA2>
11.81

>  <EState_VSA3>
24.95

>  <EState_VSA4>
5.56

>  <EState_VSA5>
0

>  <EState_VSA6>
12.13

>  <EState_VSA7>
19.06

>  <EState_VSA8>
5.32

>  <EState_VSA9>
5.73

>  <EState_VSA10>
9.59

>  <VSA_EState1>
0

>  <VSA_EState2>
23.29

>  <VSA_EState3>
2.43

>  <VSA_EState4>
6.66

>  <VSA_EState5>
-0.38

>  <VSA_EState6>
7.31

>  <VSA_EState7>
1.64

>  <VSA_EState8>
1.96

>  <VSA_EState9>
0

>  <apol>
36.18

>  <bpol>
17.79

>  <nRing>
2

>  <nHRing>
1

>  <naRing>
1

>  <naHRing>
0

>  <nARing 2>
1

>  <nAHRing 2>
1

>  <nFRing>
0

>  <nFHRing>
0

>  <nFaRing>
0

>  <nFaHRing>
0

>  <nFARing 2>
0

>  <nFAHRing 2>
0

>  <nRot>
2

>  <SLogP>
1.35

>  <SMR>
65.21

>  <TopoPSA(NO)>
72.19

>  <TopoPSA>
72.19

>  <JGI1>
0.28

>  <JGI2>
0.12

>  <JGI3>
0.06

>  <JGI4>
0.04

>  <JGI5>
0.04

>  <Diameter>
9

>  <Radius>
5

>  <TMWC10>
107.43

>  <TSRW10>
50.2

>  <MW>
232.12

>  <AMW>
7.03

>  <WPath>
484

>  <WPol>
29

>  <Zagreb1>
88

>  <Zagreb2>
105

>  <mZagreb2>
3.83

>  <yes>


>  <nAR-cont>
0.816016

>  <nHA-cont>
0.976740822

>  <MWHBN>
0.328181219

>  <MWHBN-cont>
0.749196193

>  <TPSA-cont>
0.496068973

>  <pka_cont>
0.97

>  <yes.1>


>  <BBB_SCORE>
4.393689057

>  <MMFF94 Energy>
-6.6346

$$$$
Compound 2904
Actelion Java MolfileCreator 2.0

  0  0  0  0  0  0              0 V3000
M  V30 BEGIN CTAB
M  V30 COUNTS 44 45 0 0 0
M  V30 BEGIN ATOM
M  V30 1 N 0.9348 0.3115 -0.701 0
M  V30 2 C 1.928 0.935 0.0205 0
M  V30 3 C 0.9866 -0.9958 -1.291 0
M  V30 4 C 1.6865 2.2224 0.5245 0
M  V30 5 C 3.1946 0.3858 0.2389 0
M  V30 6 N -0.3829 -1.3927 -1.5262 0
M  V30 7 C 1.7148 -0.941 -2.6342 0
M  V30 8 C 2.6575 2.9354 1.2478 0
M  V30 9 C 4.1763 1.0825 0.9512 0
M  V30 10 C -1.253 -1.8834 -0.5714 0
M  V30 11 C 3.9097 2.3529 1.4537 0
M  V30 12 C 2.3612 4.32 1.7631 0
M  V30 13 C -2.5217 -2.3273 -0.9755 0
M  V30 14 C -0.9351 -1.9861 0.7863 0
M  V30 15 C 2.7005 5.3902 0.737 0
M  V30 16 C -3.4509 -2.8555 -0.0631 0
M  V30 17 C -1.85 -2.5014 1.7096 0
M  V30 18 C -3.1042 -2.9327 1.2876 0
M  V30 19 C -4.811 -3.3041 -0.5318 0
M  V30 20 C -5.8191 -2.1653 -0.5145 0
M  V30 21 H -0.0027 0.6868 -0.656 0
M  V30 22 H 1.4852 -1.7287 -0.6461 0
M  V30 23 H 0.717 2.6851 0.3498 0
M  V30 24 H 3.4484 -0.6003 -0.1359 0
M  V30 25 H -0.7368 -1.2631 -2.4637 0
M  V30 26 H 2.763 -0.6508 -2.5126 0
M  V30 27 H 1.25 -0.2163 -3.3133 0
M  V30 28 H 1.6915 -1.9192 -3.1271 0
M  V30 29 H 5.1518 0.6306 1.1094 0
M  V30 30 H 4.6834 2.8855 2.0009 0
M  V30 31 H 2.9263 4.4995 2.6859 0
M  V30 32 H 1.3019 4.3923 2.0382 0
M  V30 33 H -2.7975 -2.2638 -2.0259 0
M  V30 34 H 0.0281 -1.6493 1.1598 0
M  V30 35 H 2.4766 6.3837 1.1382 0
M  V30 36 H 2.1208 5.2572 -0.1826 0
M  V30 37 H 3.7627 5.363 0.4712 0
M  V30 38 H -1.5796 -2.5601 2.7606 0
M  V30 39 H -3.8074 -3.3269 2.0172 0
M  V30 40 H -5.1684 -4.1245 0.1024 0
M  V30 41 H -4.7343 -3.7165 -1.5452 0
M  V30 42 H -6.7962 -2.5196 -0.8579 0
M  V30 43 H -5.5054 -1.3465 -1.1708 0
M  V30 44 H -5.9414 -1.7583 0.4949 0
M  V30 END ATOM
M  V30 BEGIN BOND
M  V30 1 1 1 2
M  V30 2 1 1 3
M  V30 3 2 2 4
M  V30 4 1 2 5
M  V30 5 1 3 6
M  V30 6 1 3 7
M  V30 7 1 4 8
M  V30 8 2 5 9
M  V30 9 1 6 10
M  V30 10 2 8 11
M  V30 11 1 8 12
M  V30 12 2 10 13
M  V30 13 1 10 14
M  V30 14 1 12 15
M  V30 15 1 13 16
M  V30 16 2 14 17
M  V30 17 2 16 18
M  V30 18 1 16 19
M  V30 19 1 19 20
M  V30 20 1 9 11
M  V30 21 1 17 18
M  V30 22 1 1 21
M  V30 23 1 3 22
M  V30 24 1 4 23
M  V30 25 1 5 24
M  V30 26 1 6 25
M  V30 27 1 7 26
M  V30 28 1 7 27
M  V30 29 1 7 28
M  V30 30 1 9 29
M  V30 31 1 11 30
M  V30 32 1 12 31
M  V30 33 1 12 32
M  V30 34 1 13 33
M  V30 35 1 14 34
M  V30 36 1 15 35
M  V30 37 1 15 36
M  V30 38 1 15 37
M  V30 39 1 17 38
M  V30 40 1 18 39
M  V30 41 1 19 40
M  V30 42 1 19 41
M  V30 43 1 20 42
M  V30 44 1 20 43
M  V30 45 1 20 44
M  V30 END BOND
M  V30 END CTAB
M  END
>  <Column 1>
3716

>  <level_0>
6322

>  <index>
6323

>  <Unnamed: 0>
6323

>  <NO.>
6335

>  <Name>


>  <IUPAC_name>


>  <SMILES>
CCc1cccc(NC(C)Nc2cccc(CC)c2)c1

>  <CID>


>  <logBB>


>  <BBB+/BBB->
BBB+

>  <Inchi>
InChI=1S/C18H24N2/c1-4-15-8-6-10-17(12-15)19-14(3)20-18-11-7-9-16(5-2)13-18/h6-14-19-20H-4-5H2-1-3H3

>  <threshold>


>  <reference>
R24|

>  <group>
C

>  <Class>
1

>  <ABC>
14.96

>  <ABCGG>
12.35

>  <nAcid>
0

>  <nBase>
0

>  <nAromAtom>
12

>  <nAromBond>
12

>  <nAtom>
44

>  <nHeavyAtom>
20

>  <nSpiro>
0

>  <nBridgehead>
0

>  <nHetero>
2

>  <nN>
2

>  <nO>
0

>  <nF>
0

>  <BalabanJ>
1.7

>  <BertzCT>
499.12

>  <nBonds>
45

>  <nBondsO>
21

>  <nBondsS>
33

>  <nBondsD>
0

>  <nBondsT>
0

>  <nBondsA>
12

>  <nBondsM>
12

>  <nBondsKS>
39

>  <nBondsKD>
6

>  <RNCG>
0.26

>  <RPCG>
0.11

>  <FCSP3>
0.33

>  <SZ>
24.33

>  <Sm>
22.35

>  <Sv>
26.02

>  <Sse>
42.98

>  <Sp>
28.9

>  <Si>
49.56

>  <MZ>
0.55

>  <Mm>
0.51

>  <Mv>
0.59

>  <Mse>
0.98

>  <Mp>
0.66

>  <Mi>
1.13

>  <NsCH3>
3

>  <NdCH2>
0

>  <NssCH2>
2

>  <NtCH>
0

>  <NdsCH>
0

>  <NaaCH>
8

>  <NsssCH>
1

>  <NddC>
0

>  <NtsC>
0

>  <NdssC>
0

>  <NaasC>
4

>  <NaaaC>
0

>  <NssssC>
0

>  <NsNH3>
0

>  <NsNH2>
0

>  <NssNH2>
0

>  <NdNH>
0

>  <NssNH>
2

>  <NaaNH>
0

>  <NtN>
0

>  <NsssNH>
0

>  <NdsN>
0

>  <NaaN>
0

>  <NsssN>
0

>  <NddsN>
0

>  <NaasN>
0

>  <NssssN>
0

>  <NsOH>
0

>  <NdO>
0

>  <NssO>
0

>  <NaaO>
0

>  <NsF>
0

>  <NsSiH3>
0

>  <NssSiH2>
0

>  <NsssSiH>
0

>  <NssssSi>
0

>  <NsPH2>
0

>  <NssPH>
0

>  <NsssP>
0

>  <NdsssP>
0

>  <NsssssP>
0

>  <NsSH>
0

>  <NdS>
0

>  <NssS>
0

>  <NaaS>
0

>  <NdssS>
0

>  <NddssS>
0

>  <NsCl>
0

>  <NsBr>
0

>  <NsI>
0

>  <fragCpx>
61.02

>  <fMF>
0.34

>  <nHBAcc>
2

>  <nHBDon>
2

>  <Kier1>
16.37

>  <Kier2>
8.44

>  <Lipinski>
1

>  <GhoseFilter>
1

>  <FilterItLogS>
-5.83

>  <VMcGowan>
236.92

>  <LabuteASA>
121.78

>  <PEOE_VSA1>
10.63

>  <PEOE_VSA2>
0

>  <PEOE_VSA3>
0

>  <PEOE_VSA4>
0

>  <PEOE_VSA5>
0

>  <PEOE_VSA6>
38.11

>  <PEOE_VSA7>
55.16

>  <PEOE_VSA8>
11.37

>  <PEOE_VSA9>
6.17

>  <PEOE_VSA10>
0

>  <PEOE_VSA11>
0

>  <PEOE_VSA12>
0

>  <PEOE_VSA13>
0

>  <SMR_VSA1>
0

>  <SMR_VSA2>
0

>  <SMR_VSA3>
0

>  <SMR_VSA4>
0

>  <SMR_VSA5>
39.78

>  <SMR_VSA6>
10.63

>  <SMR_VSA7>
59.66

>  <SMR_VSA8>
0

>  <SMR_VSA9>
0

>  <SlogP_VSA1>
10.63

>  <SlogP_VSA2>
6.17

>  <SlogP_VSA3>
12.84

>  <SlogP_VSA4>
0

>  <SlogP_VSA5>
31.9

>  <SlogP_VSA6>
48.53

>  <SlogP_VSA7>
0

>  <SlogP_VSA8>
0

>  <SlogP_VSA9>
0

>  <SlogP_VSA10>
11.37

>  <SlogP_VSA11>
0

>  <EState_VSA1>
0

>  <EState_VSA2>
6.17

>  <EState_VSA3>
0

>  <EState_VSA4>
24.22

>  <EState_VSA5>
11.13

>  <EState_VSA6>
0

>  <EState_VSA7>
0

>  <EState_VSA8>
79.94

>  <EState_VSA9>
0

>  <EState_VSA10>
0

>  <VSA_EState1>
0

>  <VSA_EState2>
0

>  <VSA_EState3>
6.98

>  <VSA_EState4>
5.04

>  <VSA_EState5>
0

>  <VSA_EState6>
17.17

>  <VSA_EState7>
2.32

>  <VSA_EState8>
6.49

>  <VSA_EState9>
0

>  <apol>
48.26

>  <bpol>
25.22

>  <nRing>
2

>  <nHRing>
0

>  <naRing>
2

>  <naHRing>
0

>  <nARing 2>
0

>  <nAHRing 2>
0

>  <nFRing>
0

>  <nFHRing>
0

>  <nFaRing>
0

>  <nFaHRing>
0

>  <nFARing 2>
0

>  <nFAHRing 2>
0

>  <nRot>
6

>  <SLogP>
4.68

>  <SMR>
88.35

>  <TopoPSA(NO)>
24.06

>  <TopoPSA>
24.06

>  <JGI1>
0.21

>  <JGI2>
0.04

>  <JGI3>
0.05

>  <JGI4>
0.03

>  <JGI5>
0.03

>  <Diameter>
12

>  <Radius>
6

>  <TMWC10>
111.65

>  <TSRW10>
52.81

>  <MW>
268.19

>  <AMW>
6.1

>  <WPath>
921

>  <WPol>
26

>  <Zagreb1>
96

>  <Zagreb2>
107

>  <mZagreb2>
4.67

>  <yes>


>  <nAR-cont>
0.336376

>  <nHA-cont>
0.999629945

>  <MWHBN>
0.244252322

>  <MWHBN-cont>
0.968910134

>  <TPSA-cont>
0.83204626

>  <pka_cont>
0.97

>  <yes.1>


>  <BBB_SCORE>
4.938463664

>  <MMFF94 Energy>
-17.845

$$$$
Compound 2905
Actelion Java MolfileCreator 2.0

  0  0  0  0  0  0              0 V3000
M  V30 BEGIN CTAB
M  V30 COUNTS 54 56 0 0 0
M  V30 BEGIN ATOM
M  V30 1 Cl 3.5541 -0.484 1.9374 0
M  V30 2 C 3.4167 0.6499 0.6415 0
M  V30 3 C 2.8603 0.3351 -0.6059 0
M  V30 4 C 3.8618 1.9534 0.895 0
M  V30 5 C 2.3821 -1.0346 -0.9355 0
M  V30 6 C 2.7891 1.3299 -1.598 0
M  V30 7 C 3.7686 2.9388 -0.0885 0
M  V30 8 O 3.0444 -2.0179 -0.6182 0
M  V30 9 C 1.1635 -1.2444 -1.7622 0
M  V30 10 C 3.236 2.6264 -1.3358 0
M  V30 11 C -0.0277 -0.5088 -1.5939 0
M  V30 12 C 1.2822 -2.1965 -2.7904 0
M  V30 13 N -0.2475 0.3646 -0.5341 0
M  V30 14 C -1.049 -0.6993 -2.5448 0
M  V30 15 C 0.2384 -2.3865 -3.6876 0
M  V30 16 N -0.9248 1.5314 -0.5973 0
M  V30 17 C -0.3648 -0.0808 0.8848 0 CFG=1
M  V30 18 C -0.9226 -1.6307 -3.5791 0
M  V30 19 Cl 0.3911 -3.5423 -4.951 0
M  V30 20 C -1.2707 1.9154 0.6757 0
M  V30 21 N -1.0034 1.0661 1.6481 0
M  V30 22 C -1.2769 -1.3242 1.0646 0
M  V30 23 C -1.8725 3.2892 0.9221 0
M  V30 24 N -0.6694 -2.5764 0.657 0
M  V30 25 O -1.4007 4.2079 0.2556 0
M  V30 26 N -2.9135 3.4185 1.8353 0
M  V30 27 C 0.2688 -3.2291 1.4237 0
M  V30 28 C -3.5189 2.3001 2.5393 0
M  V30 29 C -3.3668 4.7462 2.2033 0
M  V30 30 O 0.6278 -2.8314 2.5267 0
M  V30 31 C 0.8506 -4.4755 0.7479 0
M  V30 32 N -0.0798 -5.0048 -0.2784 0
M  V30 33 H 4.2813 2.2086 1.8659 0
M  V30 34 H 2.3953 1.1065 -2.5864 0
M  V30 35 H 4.1152 3.9484 0.12 0
M  V30 36 H 3.1726 3.3917 -2.106 0
M  V30 37 H 2.1994 -2.7737 -2.8926 0
M  V30 38 H -1.9802 -0.1421 -2.457 0
M  V30 39 H -0.7852 2.2318 -1.322 0
M  V30 40 H 0.6249 -0.2577 1.3116 0
M  V30 41 H -1.7388 -1.7686 -4.2838 0
M  V30 42 H -1.5538 -1.4209 2.1214 0
M  V30 43 H -2.2055 -1.2118 0.4935 0
M  V30 44 H -0.8886 -3.0141 -0.2355 0
M  V30 45 H -3.5006 1.393 1.9312 0
M  V30 46 H -2.972 2.1359 3.472 0
M  V30 47 H -4.5637 2.5335 2.7665 0
M  V30 48 H -2.8344 5.5288 1.6567 0
M  V30 49 H -3.2002 4.8894 3.2753 0
M  V30 50 H -4.436 4.8273 1.9863 0
M  V30 51 H 1.7978 -4.2027 0.2762 0
M  V30 52 H 1.032 -5.2407 1.5085 0
M  V30 53 H -0.8772 -5.415 0.2108 0
M  V30 54 H 0.3862 -5.7865 -0.741 0
M  V30 END ATOM
M  V30 BEGIN BOND
M  V30 1 1 1 2
M  V30 2 2 2 3
M  V30 3 1 2 4
M  V30 4 1 3 5
M  V30 5 1 3 6
M  V30 6 2 4 7
M  V30 7 2 5 8
M  V30 8 1 5 9
M  V30 9 2 6 10
M  V30 10 2 9 11
M  V30 11 1 9 12
M  V30 12 1 11 13
M  V30 13 1 11 14
M  V30 14 2 12 15
M  V30 15 1 13 16
M  V30 16 1 13 17
M  V30 17 2 14 18
M  V30 18 1 15 19
M  V30 19 1 16 20
M  V30 20 1 17 21
M  V30 21 1 17 22
M  V30 22 1 20 23
M  V30 23 1 22 24
M  V30 24 2 23 25
M  V30 25 1 23 26
M  V30 26 1 24 27
M  V30 27 1 26 28
M  V30 28 1 26 29
M  V30 29 2 27 30
M  V30 30 1 27 31
M  V30 31 1 31 32
M  V30 32 1 7 10
M  V30 33 1 15 18
M  V30 34 2 20 21
M  V30 35 1 4 33
M  V30 36 1 6 34
M  V30 37 1 7 35
M  V30 38 1 10 36
M  V30 39 1 12 37
M  V30 40 1 14 38
M  V30 41 1 16 39
M  V30 42 1 17 40
M  V30 43 1 18 41
M  V30 44 1 22 42
M  V30 45 1 22 43
M  V30 46 1 24 44
M  V30 47 1 28 45
M  V30 48 1 28 46
M  V30 49 1 28 47
M  V30 50 1 29 48
M  V30 51 1 29 49
M  V30 52 1 29 50
M  V30 53 1 31 51
M  V30 54 1 31 52
M  V30 55 1 32 53
M  V30 56 1 32 54
M  V30 END BOND
M  V30 BEGIN COLLECTION
M  V30 MDLV30/STEABS ATOMS=(1 17)
M  V30 END COLLECTION
M  V30 END CTAB
M  END
>  <Column 1>
3717

>  <level_0>
6327

>  <index>
6328

>  <Unnamed: 0>
6328

>  <NO.>
6340

>  <Name>


>  <IUPAC_name>


>  <SMILES>
CN(C)C(=O)C1=N[C@@H](CNC(=O)CN)N(c2ccc(Cl)cc2C(=O)c2ccccc2Cl)N1

>  <CID>


>  <logBB>


>  <BBB+/BBB->
BBB+

>  <Inchi>
InChI=1S/C21H22Cl2N6O3/c1-28(2)21(32)20-26-17(11-25-18(30)10-24)29(27-20)16-8-7-12(22)9-14(16)19(31)13-5-3-4-6-15(13)23/h3-9-17H-10-11-24H2-1-2H3-(H-25-30)(H-26-27)/t17-/m1/s1

>  <threshold>


>  <reference>
R24|

>  <group>
C

>  <Class>
1

>  <ABC>
24.48

>  <ABCGG>
20.5

>  <nAcid>
0

>  <nBase>
3

>  <nAromAtom>
12

>  <nAromBond>
12

>  <nAtom>
54

>  <nHeavyAtom>
32

>  <nSpiro>
0

>  <nBridgehead>
0

>  <nHetero>
11

>  <nN>
6

>  <nO>
3

>  <nF>
0

>  <BalabanJ>
1.79

>  <BertzCT>
1088.95

>  <nBonds>
56

>  <nBondsO>
34

>  <nBondsS>
40

>  <nBondsD>
4

>  <nBondsT>
0

>  <nBondsA>
12

>  <nBondsM>
16

>  <nBondsKS>
46

>  <nBondsKD>
10

>  <RNCG>
0.11

>  <RPCG>
0.09

>  <FCSP3>
0.24

>  <SZ>
41.33

>  <Sm>
39.74

>  <Sv>
35.83

>  <Sse>
55.27

>  <Sp>
37.79

>  <Si>
61.24

>  <MZ>
0.77

>  <Mm>
0.74

>  <Mv>
0.66

>  <Mse>
1.02

>  <Mp>
0.7

>  <Mi>
1.13

>  <NsCH3>
2

>  <NdCH2>
0

>  <NssCH2>
2

>  <NtCH>
0

>  <NdsCH>
0

>  <NaaCH>
7

>  <NsssCH>
1

>  <NddC>
0

>  <NtsC>
0

>  <NdssC>
4

>  <NaasC>
5

>  <NaaaC>
0

>  <NssssC>
0

>  <NsNH3>
0

>  <NsNH2>
1

>  <NssNH2>
0

>  <NdNH>
0

>  <NssNH>
2

>  <NaaNH>
0

>  <NtN>
0

>  <NsssNH>
0

>  <NdsN>
1

>  <NaaN>
0

>  <NsssN>
2

>  <NddsN>
0

>  <NaasN>
0

>  <NssssN>
0

>  <NsOH>
0

>  <NdO>
3

>  <NssO>
0

>  <NaaO>
0

>  <NsF>
0

>  <NsSiH3>
0

>  <NssSiH2>
0

>  <NsssSiH>
0

>  <NssssSi>
0

>  <NsPH2>
0

>  <NssPH>
0

>  <NsssP>
0

>  <NdsssP>
0

>  <NsssssP>
0

>  <NsSH>
0

>  <NdS>
0

>  <NssS>
0

>  <NaaS>
0

>  <NdssS>
0

>  <NddssS>
0

>  <NsCl>
2

>  <NsBr>
0

>  <NsI>
0

>  <fragCpx>
164.11

>  <fMF>
0.33

>  <nHBAcc>
7

>  <nHBDon>
3

>  <Kier1>
26.6

>  <Kier2>
12.11

>  <Lipinski>
1

>  <GhoseFilter>
1

>  <FilterItLogS>
-5.14

>  <VMcGowan>
333.14

>  <LabuteASA>
194.68

>  <PEOE_VSA1>
15.95

>  <PEOE_VSA2>
24.82

>  <PEOE_VSA3>
4.99

>  <PEOE_VSA4>
0

>  <PEOE_VSA5>
0

>  <PEOE_VSA6>
35.33

>  <PEOE_VSA7>
30.33

>  <PEOE_VSA8>
30.24

>  <PEOE_VSA9>
23.8

>  <PEOE_VSA10>
0

>  <PEOE_VSA11>
11.95

>  <PEOE_VSA12>
11.74

>  <PEOE_VSA13>
5.91

>  <SMR_VSA1>
14.38

>  <SMR_VSA2>
0

>  <SMR_VSA3>
15.64

>  <SMR_VSA4>
10.73

>  <SMR_VSA5>
6.17

>  <SMR_VSA6>
32.19

>  <SMR_VSA7>
63.64

>  <SMR_VSA8>
0

>  <SMR_VSA9>
0

>  <SlogP_VSA1>
21.49

>  <SlogP_VSA2>
61.68

>  <SlogP_VSA3>
9.59

>  <SlogP_VSA4>
0

>  <SlogP_VSA5>
15.92

>  <SlogP_VSA6>
47.46

>  <SlogP_VSA7>
10.05

>  <SlogP_VSA8>
0

>  <SlogP_VSA9>
0

>  <SlogP_VSA10>
5.69

>  <SlogP_VSA11>
0

>  <EState_VSA1>
6.17

>  <EState_VSA2>
42.09

>  <EState_VSA3>
21.3

>  <EState_VSA4>
0

>  <EState_VSA5>
15.98

>  <EState_VSA6>
50.49

>  <EState_VSA7>
0

>  <EState_VSA8>
15.73

>  <EState_VSA9>
28.94

>  <EState_VSA10>
14.38

>  <VSA_EState1>
0

>  <VSA_EState2>
43.29

>  <VSA_EState3>
4.83

>  <VSA_EState4>
9.28

>  <VSA_EState5>
-1.04

>  <VSA_EState6>
11.44

>  <VSA_EState7>
-0.72

>  <VSA_EState8>
-0.14

>  <VSA_EState9>
3.18

>  <apol>
63.11

>  <bpol>
29.68

>  <nRing>
3

>  <nHRing>
1

>  <naRing>
2

>  <naHRing>
0

>  <nARing 2>
1

>  <nAHRing 2>
1

>  <nFRing>
0

>  <nFHRing>
0

>  <nFaRing>
0

>  <nFaHRing>
0

>  <nFARing 2>
0

>  <nFAHRing 2>
0

>  <nRot>
7

>  <SLogP>
1.44

>  <SMR>
123.93

>  <TopoPSA(NO)>
120.13

>  <TopoPSA>
120.13

>  <JGI1>
0.21

>  <JGI2>
0.09

>  <JGI3>
0.05

>  <JGI4>
0.04

>  <JGI5>
0.03

>  <Diameter>
13

>  <Radius>
7

>  <TMWC10>
143.7

>  <TSRW10>
81.88

>  <MW>
476.11

>  <AMW>
8.82

>  <WPath>
2821

>  <WPol>
52

>  <Zagreb1>
164

>  <Zagreb2>
193

>  <mZagreb2>
7.14

>  <yes>


>  <nAR-cont>
0.816016

>  <nHA-cont>
0.658856097

>  <MWHBN>
0.458296297

>  <MWHBN-cont>
0

>  <TPSA-cont>
0

>  <pka_cont>
0.97

>  <yes.1>


>  <BBB_SCORE>
1.959872097

>  <MMFF94 Energy>
186.79

$$$$
Compound 2906
Actelion Java MolfileCreator 2.0

  0  0  0  0  0  0              0 V3000
M  V30 BEGIN CTAB
M  V30 COUNTS 41 44 0 0 0
M  V30 BEGIN ATOM
M  V30 1 S 1.2405 -3.3935 -3.3106 0
M  V30 2 C -0.0234 -2.7473 -2.3738 0
M  V30 3 C 2.2682 -2.0942 -2.8842 0
M  V30 4 C 0.3251 -1.562 -1.7643 0
M  V30 5 C 1.6766 -1.1759 -2.0277 0
M  V30 6 N -0.6237 -0.9745 -0.9285 0
M  V30 7 C 2.3533 0.0231 -1.576 0
M  V30 8 C -0.6855 0.3143 -0.742 0
M  V30 9 C 1.6965 1.1836 -1.362 0
M  V30 10 C 3.8685 -0.0766 -1.4689 0
M  V30 11 N -1.7154 0.7588 0.0981 0
M  V30 12 C 0.2512 1.3308 -1.3402 0
M  V30 13 C 2.3319 2.5543 -1.2578 0
M  V30 14 C 4.2766 -1.0044 -0.3983 0
M  V30 15 C -2.9234 -0.0605 0.3082 0
M  V30 16 C -1.4391 1.6284 1.2552 0
M  V30 17 C -0.1986 2.5638 -1.6137 0
M  V30 18 S 1.0596 3.7241 -1.8782 0
M  V30 19 N 4.6325 -1.7158 0.4471 0
M  V30 20 C -2.7888 -0.8991 1.5979 0
M  V30 21 C -1.3191 0.776 2.5415 0
M  V30 22 N -2.5219 -0.052 2.7869 0
M  V30 23 C -2.3384 -0.885 3.9742 0
M  V30 24 H -0.9713 -3.2617 -2.3046 0
M  V30 25 H 3.2595 -2.0914 -3.3129 0
M  V30 26 H 4.3167 -0.364 -2.426 0
M  V30 27 H 4.3161 0.8946 -1.2319 0
M  V30 28 H 3.2235 2.6653 -1.8796 0
M  V30 29 H 2.5674 2.797 -0.2168 0
M  V30 30 H -3.122 -0.7107 -0.5515 0
M  V30 31 H -3.7901 0.6073 0.394 0
M  V30 32 H -2.2558 2.3529 1.3623 0
M  V30 33 H -0.5168 2.2037 1.1271 0
M  V30 34 H -1.2402 2.8597 -1.5785 0
M  V30 35 H -3.7251 -1.4494 1.7488 0
M  V30 36 H -1.9879 -1.6389 1.4707 0
M  V30 37 H -1.1666 1.455 3.389 0
M  V30 38 H -0.4278 0.1388 2.4638 0
M  V30 39 H -1.4914 -1.5732 3.8739 0
M  V30 40 H -2.1713 -0.2598 4.8583 0
M  V30 41 H -3.2404 -1.4748 4.1713 0
M  V30 END ATOM
M  V30 BEGIN BOND
M  V30 1 1 1 2
M  V30 2 1 1 3
M  V30 3 2 2 4
M  V30 4 2 3 5
M  V30 5 1 4 6
M  V30 6 1 5 7
M  V30 7 2 6 8
M  V30 8 2 7 9
M  V30 9 1 7 10
M  V30 10 1 8 11
M  V30 11 1 8 12
M  V30 12 1 9 13
M  V30 13 1 10 14
M  V30 14 1 11 15
M  V30 15 1 11 16
M  V30 16 2 12 17
M  V30 17 1 13 18
M  V30 18 3 14 19
M  V30 19 1 15 20
M  V30 20 1 16 21
M  V30 21 1 20 22
M  V30 22 1 22 23
M  V30 23 1 4 5
M  V30 24 1 9 12
M  V30 25 1 17 18
M  V30 26 1 21 22
M  V30 27 1 2 24
M  V30 28 1 3 25
M  V30 29 1 10 26
M  V30 30 1 10 27
M  V30 31 1 13 28
M  V30 32 1 13 29
M  V30 33 1 15 30
M  V30 34 1 15 31
M  V30 35 1 16 32
M  V30 36 1 16 33
M  V30 37 1 17 34
M  V30 38 1 20 35
M  V30 39 1 20 36
M  V30 40 1 21 37
M  V30 41 1 21 38
M  V30 42 1 23 39
M  V30 43 1 23 40
M  V30 44 1 23 41
M  V30 END BOND
M  V30 END CTAB
M  END
>  <Column 1>
3722

>  <level_0>
6376

>  <index>
6377

>  <Unnamed: 0>
6377

>  <NO.>
6389

>  <Name>


>  <IUPAC_name>


>  <SMILES>
CN1CCN(C2=Nc3cscc3C(CC#N)=C3CSC=C23)CC1

>  <CID>


>  <logBB>


>  <BBB+/BBB->
BBB+

>  <Inchi>
InChI=1S/C17H18N4S2/c1-20-4-6-21(7-5-20)17-15-10-22-8-13(15)12(2-3-18)14-9-23-11-16(14)19-17/h9-11H-2-4-8H2-1H3

>  <threshold>


>  <reference>
R24|

>  <group>
C

>  <Class>
1

>  <ABC>
18.25

>  <ABCGG>
15.56

>  <nAcid>
0

>  <nBase>
3

>  <nAromAtom>
5

>  <nAromBond>
5

>  <nAtom>
41

>  <nHeavyAtom>
23

>  <nSpiro>
0

>  <nBridgehead>
0

>  <nHetero>
6

>  <nN>
4

>  <nO>
0

>  <nF>
0

>  <BalabanJ>
1.57

>  <BertzCT>
757.8

>  <nBonds>
44

>  <nBondsO>
26

>  <nBondsS>
35

>  <nBondsD>
3

>  <nBondsT>
1

>  <nBondsA>
5

>  <nBondsM>
9

>  <nBondsKS>
38

>  <nBondsKD>
5

>  <RNCG>
0.25

>  <RPCG>
0.1

>  <FCSP3>
0.41

>  <SZ>
30

>  <Sm>
28.51

>  <Sv>
27.28

>  <Sse>
40.8

>  <Sp>
30.29

>  <Si>
45.74

>  <MZ>
0.73

>  <Mm>
0.7

>  <Mv>
0.67

>  <Mse>
1

>  <Mp>
0.74

>  <Mi>
1.12

>  <NsCH3>
1

>  <NdCH2>
0

>  <NssCH2>
6

>  <NtCH>
0

>  <NdsCH>
1

>  <NaaCH>
2

>  <NsssCH>
0

>  <NddC>
0

>  <NtsC>
1

>  <NdssC>
4

>  <NaasC>
2

>  <NaaaC>
0

>  <NssssC>
0

>  <NsNH3>
0

>  <NsNH2>
0

>  <NssNH2>
0

>  <NdNH>
0

>  <NssNH>
0

>  <NaaNH>
0

>  <NtN>
1

>  <NsssNH>
0

>  <NdsN>
1

>  <NaaN>
0

>  <NsssN>
2

>  <NddsN>
0

>  <NaasN>
0

>  <NssssN>
0

>  <NsOH>
0

>  <NdO>
0

>  <NssO>
0

>  <NaaO>
0

>  <NsF>
0

>  <NsSiH3>
0

>  <NssSiH2>
0

>  <NsssSiH>
0

>  <NssssSi>
0

>  <NsPH2>
0

>  <NssPH>
0

>  <NsssP>
0

>  <NdsssP>
0

>  <NsssssP>
0

>  <NsSH>
0

>  <NdS>
0

>  <NssS>
1

>  <NaaS>
1

>  <NdssS>
0

>  <NddssS>
0

>  <NsCl>
0

>  <NsBr>
0

>  <NsI>
0

>  <fragCpx>
170.06

>  <fMF>
0.46

>  <nHBAcc>
6

>  <nHBDon>
0

>  <Kier1>
16.47

>  <Kier2>
7.09

>  <Lipinski>
1

>  <GhoseFilter>
1

>  <FilterItLogS>
-3.51

>  <VMcGowan>
249.47

>  <LabuteASA>
144.35

>  <PEOE_VSA1>
9.8

>  <PEOE_VSA2>
0

>  <PEOE_VSA3>
4.99

>  <PEOE_VSA4>
5.26

>  <PEOE_VSA5>
23.1

>  <PEOE_VSA6>
0

>  <PEOE_VSA7>
23.6

>  <PEOE_VSA8>
53.83

>  <PEOE_VSA9>
18.18

>  <PEOE_VSA10>
5.84

>  <PEOE_VSA11>
0

>  <PEOE_VSA12>
0

>  <PEOE_VSA13>
0

>  <SMR_VSA1>
0

>  <SMR_VSA2>
5.26

>  <SMR_VSA3>
9.8

>  <SMR_VSA4>
4.99

>  <SMR_VSA5>
6.42

>  <SMR_VSA6>
38.98

>  <SMR_VSA7>
32.88

>  <SMR_VSA8>
0

>  <SMR_VSA9>
6.07

>  <SlogP_VSA1>
0

>  <SlogP_VSA2>
54.61

>  <SlogP_VSA3>
0

>  <SlogP_VSA4>
11.33

>  <SlogP_VSA5>
11.98

>  <SlogP_VSA6>
32.31

>  <SlogP_VSA7>
0

>  <SlogP_VSA8>
5.57

>  <SlogP_VSA9>
0

>  <SlogP_VSA10>
5.69

>  <SlogP_VSA11>
0

>  <EState_VSA1>
0

>  <EState_VSA2>
0

>  <EState_VSA3>
6.42

>  <EState_VSA4>
49.02

>  <EState_VSA5>
16.72

>  <EState_VSA6>
11.34

>  <EState_VSA7>
11.76

>  <EState_VSA8>
39.08

>  <EState_VSA9>
4.99

>  <EState_VSA10>
5.26

>  <VSA_EState1>
0

>  <VSA_EState2>
9.8

>  <VSA_EState3>
15.77

>  <VSA_EState4>
5.91

>  <VSA_EState5>
2.06

>  <VSA_EState6>
2.35

>  <VSA_EState7>
0.46

>  <VSA_EState8>
4.16

>  <VSA_EState9>
2.17

>  <apol>
50.59

>  <bpol>
28.11

>  <nRing>
4

>  <nHRing>
4

>  <naRing>
1

>  <naHRing>
1

>  <nARing 2>
3

>  <nAHRing 2>
3

>  <nFRing>
1

>  <nFHRing>
1

>  <nFaRing>
0

>  <nFaHRing>
0

>  <nFARing 2>
1

>  <nFAHRing 2>
1

>  <nRot>
1

>  <SLogP>
3.34

>  <SMR>
98.18

>  <TopoPSA(NO)>
42.63

>  <TopoPSA>
96.17

>  <JGI1>
0.13

>  <JGI2>
0.08

>  <JGI3>
0.03

>  <JGI4>
0.03

>  <JGI5>
0.02

>  <Diameter>
11

>  <Radius>
6

>  <TMWC10>
125.17

>  <TSRW10>
73.49

>  <MW>
342.1

>  <AMW>
8.34

>  <WPath>
1069

>  <WPol>
40

>  <Zagreb1>
126

>  <Zagreb2>
153

>  <mZagreb2>
5.08

>  <yes>


>  <nAR-cont>
0.691115

>  <nHA-cont>
0.967789328

>  <MWHBN>
0.324395419

>  <MWHBN-cont>
0.762264497

>  <TPSA-cont>
0.328673682

>  <pka_cont>
0.97

>  <yes.1>


>  <BBB_SCORE>
3.944648438

>  <MMFF94 Energy>
109.23

$$$$
Compound 2907
Actelion Java MolfileCreator 2.0

  0  0  0  0  0  0              0 V3000
M  V30 BEGIN CTAB
M  V30 COUNTS 42 46 0 0 0
M  V30 BEGIN ATOM
M  V30 1 O -2.588 -3.965 -0.6465 0
M  V30 2 C -1.5936 -3.0321 -0.7661 0
M  V30 3 C -0.9637 -2.9783 -2.0679 0
M  V30 4 C -1.2052 -2.2055 0.2226 0
M  V30 5 C -0.1983 -1.9306 -2.4263 0
M  V30 6 C -0.0836 -1.2466 0.0196 0 CFG=1
M  V30 7 C 0.0394 -0.7776 -1.4626 0 CFG=2
M  V30 8 C 0.4631 -0.3201 1.1199 0 CFG=1
M  V30 9 C 1.1653 -1.6289 0.7804 0
M  V30 10 C -0.9619 0.3804 -1.7138 0
M  V30 11 C 1.3567 -0.041 -1.7075 0
M  V30 12 C 1.1911 0.9743 0.6533 0 CFG=1
M  V30 13 C -0.0138 -0.3372 2.5673 0
M  V30 14 N -0.2684 1.6193 -1.2911 0
M  V30 15 C 1.1084 1.2254 -0.8975 0 CFG=2
M  V30 16 C 0.7391 2.2593 1.3848 0
M  V30 17 C -0.5452 0.9916 3.0681 0
M  V30 18 C -0.2791 2.6272 -2.3468 0
M  V30 19 C 0.5029 2.0715 2.8716 0
M  V30 20 H -2.9427 -3.9099 0.2562 0
M  V30 21 H -1.1533 -3.7963 -2.7557 0
M  V30 22 H -1.7033 -2.2379 1.1832 0
M  V30 23 H 0.2374 -1.8891 -3.4191 0
M  V30 24 H 2.1427 -1.6088 0.3189 0
M  V30 25 H 1.1034 -2.4552 1.4865 0
M  V30 26 H -1.8878 0.2685 -1.1386 0
M  V30 27 H -1.2401 0.4237 -2.7756 0
M  V30 28 H 1.4817 0.2021 -2.7719 0
M  V30 29 H 2.2599 -0.5755 -1.4082 0
M  V30 30 H 2.2517 0.826 0.9032 0
M  V30 31 H -0.7815 -1.0988 2.7307 0
M  V30 32 H 0.8348 -0.6267 3.2026 0
M  V30 33 H 1.84 2.0022 -1.1538 0
M  V30 34 H -0.1948 2.6449 0.9595 0
M  V30 35 H 1.4896 3.0444 1.2299 0
M  V30 36 H -0.795 0.9094 4.1319 0
M  V30 37 H -1.4682 1.2541 2.5371 0
M  V30 38 H 0.206 3.546 -1.9996 0
M  V30 39 H 0.2315 2.291 -3.2559 0
M  V30 40 H -1.3092 2.8947 -2.6073 0
M  V30 41 H 1.4377 1.8049 3.3783 0
M  V30 42 H 0.1519 3.0125 3.3102 0
M  V30 END ATOM
M  V30 BEGIN BOND
M  V30 1 1 1 2
M  V30 2 1 2 3
M  V30 3 2 2 4
M  V30 4 2 3 5
M  V30 5 1 4 6
M  V30 6 1 5 7
M  V30 7 1 6 8
M  V30 8 1 6 9
M  V30 9 1 7 10
M  V30 10 1 7 11
M  V30 11 1 8 12
M  V30 12 1 8 13
M  V30 13 1 10 14
M  V30 14 1 11 15
M  V30 15 1 12 16
M  V30 16 1 13 17
M  V30 17 1 14 18
M  V30 18 1 16 19
M  V30 19 1 6 7
M  V30 20 1 8 9
M  V30 21 1 12 15
M  V30 22 1 14 15
M  V30 23 1 17 19
M  V30 24 1 1 20
M  V30 25 1 3 21
M  V30 26 1 4 22
M  V30 27 1 5 23
M  V30 28 1 9 24
M  V30 29 1 9 25
M  V30 30 1 10 26
M  V30 31 1 10 27
M  V30 32 1 11 28
M  V30 33 1 11 29
M  V30 34 1 12 30
M  V30 35 1 13 31
M  V30 36 1 13 32
M  V30 37 1 15 33
M  V30 38 1 16 34
M  V30 39 1 16 35
M  V30 40 1 17 36
M  V30 41 1 17 37
M  V30 42 1 18 38
M  V30 43 1 18 39
M  V30 44 1 18 40
M  V30 45 1 19 41
M  V30 46 1 19 42
M  V30 END BOND
M  V30 BEGIN COLLECTION
M  V30 MDLV30/STEABS ATOMS=(5 6 7 8 12 15)
M  V30 END COLLECTION
M  V30 END CTAB
M  END
>  <Column 1>
3723

>  <level_0>
6398

>  <index>
6399

>  <Unnamed: 0>
6399

>  <NO.>
6411

>  <Name>


>  <IUPAC_name>


>  <SMILES>
CN1C[C@]23C=CC(O)=C[C@@]24C[C@]42CCCC[C@@H]2[C@H]1C3

>  <CID>


>  <logBB>


>  <BBB+/BBB->
BBB+

>  <Inchi>
InChI=1S/C17H23NO/c1-18-11-15-7-5-12(19)8-17(15)10-16(17)6-3-2-4-13(16)14(18)9-15/h5-7-8-13-14-19H-2-4-6-9-11H2-1H3/t13--14--15--16+-17-/m1/s1

>  <threshold>


>  <reference>
R24|

>  <group>
C

>  <Class>
1

>  <ABC>
16.15

>  <ABCGG>
13.71

>  <nAcid>
0

>  <nBase>
1

>  <nAromAtom>
0

>  <nAromBond>
0

>  <nAtom>
42

>  <nHeavyAtom>
19

>  <nSpiro>
3

>  <nBridgehead>
2

>  <nHetero>
2

>  <nN>
1

>  <nO>
1

>  <nF>
0

>  <BalabanJ>
1.65

>  <BertzCT>
523.36

>  <nBonds>
46

>  <nBondsO>
23

>  <nBondsS>
44

>  <nBondsD>
2

>  <nBondsT>
0

>  <nBondsA>
0

>  <nBondsM>
2

>  <nBondsKS>
44

>  <nBondsKD>
2

>  <RNCG>
0.41

>  <RPCG>
0.23

>  <FCSP3>
0.76

>  <SZ>
23.33

>  <Sm>
21.43

>  <Sv>
24.7

>  <Sse>
41.2

>  <Sp>
27.32

>  <Si>
47.28

>  <MZ>
0.56

>  <Mm>
0.51

>  <Mv>
0.59

>  <Mse>
0.98

>  <Mp>
0.65

>  <Mi>
1.13

>  <NsCH3>
1

>  <NdCH2>
0

>  <NssCH2>
7

>  <NtCH>
0

>  <NdsCH>
3

>  <NaaCH>
0

>  <NsssCH>
2

>  <NddC>
0

>  <NtsC>
0

>  <NdssC>
1

>  <NaasC>
0

>  <NaaaC>
0

>  <NssssC>
3

>  <NsNH3>
0

>  <NsNH2>
0

>  <NssNH2>
0

>  <NdNH>
0

>  <NssNH>
0

>  <NaaNH>
0

>  <NtN>
0

>  <NsssNH>
0

>  <NdsN>
0

>  <NaaN>
0

>  <NsssN>
1

>  <NddsN>
0

>  <NaasN>
0

>  <NssssN>
0

>  <NsOH>
1

>  <NdO>
0

>  <NssO>
0

>  <NaaO>
0

>  <NsF>
0

>  <NsSiH3>
0

>  <NssSiH2>
0

>  <NsssSiH>
0

>  <NssssSi>
0

>  <NsPH2>
0

>  <NssPH>
0

>  <NsssP>
0

>  <NdsssP>
0

>  <NsssssP>
0

>  <NsSH>
0

>  <NdS>
0

>  <NssS>
0

>  <NaaS>
0

>  <NdssS>
0

>  <NddssS>
0

>  <NsCl>
0

>  <NsBr>
0

>  <NsI>
0

>  <fragCpx>
187.02

>  <fMF>
0.4

>  <nHBAcc>
2

>  <nHBDon>
1

>  <Kier1>
11.64

>  <Kier2>
3.25

>  <Lipinski>
1

>  <GhoseFilter>
1

>  <FilterItLogS>
-2.25

>  <VMcGowan>
203.34

>  <LabuteASA>
114.72

>  <PEOE_VSA1>
10.01

>  <PEOE_VSA2>
0

>  <PEOE_VSA3>
0

>  <PEOE_VSA4>
0

>  <PEOE_VSA5>
0

>  <PEOE_VSA6>
18.92

>  <PEOE_VSA7>
56.22

>  <PEOE_VSA8>
23.42

>  <PEOE_VSA9>
0

>  <PEOE_VSA10>
5.76

>  <PEOE_VSA11>
0

>  <PEOE_VSA12>
0

>  <PEOE_VSA13>
0

>  <SMR_VSA1>
5.11

>  <SMR_VSA2>
0

>  <SMR_VSA3>
4.9

>  <SMR_VSA4>
22.16

>  <SMR_VSA5>
44.57

>  <SMR_VSA6>
13.59

>  <SMR_VSA7>
23.99

>  <SMR_VSA8>
0

>  <SMR_VSA9>
0

>  <SlogP_VSA1>
0

>  <SlogP_VSA2>
29.64

>  <SlogP_VSA3>
0

>  <SlogP_VSA4>
22.16

>  <SlogP_VSA5>
38.52

>  <SlogP_VSA6>
23.99

>  <SlogP_VSA7>
0

>  <SlogP_VSA8>
0

>  <SlogP_VSA9>
0

>  <SlogP_VSA10>
0

>  <SlogP_VSA11>
0

>  <EState_VSA1>
0

>  <EState_VSA2>
0

>  <EState_VSA3>
22

>  <EState_VSA4>
11.96

>  <EState_VSA5>
45.07

>  <EState_VSA6>
0

>  <EState_VSA7>
6.08

>  <EState_VSA8>
24.1

>  <EState_VSA9>
0

>  <EState_VSA10>
5.11

>  <VSA_EState1>
0

>  <VSA_EState2>
2.63

>  <VSA_EState3>
10.08

>  <VSA_EState4>
1.19

>  <VSA_EState5>
1.41

>  <VSA_EState6>
0.8

>  <VSA_EState7>
14.94

>  <VSA_EState8>
1.2

>  <VSA_EState9>
2.33

>  <apol>
45.63

>  <bpol>
24.78

>  <nRing>
5

>  <nHRing>
1

>  <naRing>
0

>  <naHRing>
0

>  <nARing 2>
5

>  <nAHRing 2>
1

>  <nFRing>
1

>  <nFHRing>
1

>  <nFaRing>
0

>  <nFaHRing>
0

>  <nFARing 2>
1

>  <nFAHRing 2>
1

>  <nRot>
0

>  <SLogP>
3.27

>  <SMR>
74.76

>  <TopoPSA(NO)>
23.47

>  <TopoPSA>
23.47

>  <JGI1>
0.26

>  <JGI2>
0.13

>  <JGI3>
0.08

>  <JGI4>
0.07

>  <JGI5>
0.02

>  <Diameter>
7

>  <Radius>
4

>  <TMWC10>
122.47

>  <TSRW10>
77.03

>  <MW>
257.18

>  <AMW>
6.12

>  <WPath>
551

>  <WPol>
42

>  <Zagreb1>
126

>  <Zagreb2>
170

>  <mZagreb2>
3.81

>  <yes>


>  <nAR-cont>
0

>  <nHA-cont>
0.998649058

>  <MWHBN>
0.187069359

>  <MWHBN-cont>
0.993632564

>  <TPSA-cont>
0.836164826

>  <pka_cont>
0.97

>  <yes.1>


>  <BBB_SCORE>
4.646427556

>  <MMFF94 Energy>
82.488

$$$$
Compound 2908
Actelion Java MolfileCreator 2.0

  0  0  0  0  0  0              0 V3000
M  V30 BEGIN CTAB
M  V30 COUNTS 37 39 0 0 0
M  V30 BEGIN ATOM
M  V30 1 Cl -1.5337 -5.0114 1.776 0
M  V30 2 C -1.4796 -3.5129 0.9334 0
M  V30 3 C -0.3233 -2.7373 0.9738 0
M  V30 4 C -2.5941 -3.0758 0.2278 0
M  V30 5 C -0.2651 -1.5007 0.2988 0
M  V30 6 C -2.5434 -1.8622 -0.4604 0
M  V30 7 C -1.3851 -1.0691 -0.4446 0
M  V30 8 C 0.9669 -0.6073 0.4908 0 CFG=1
M  V30 9 N -1.3468 0.067 -1.2611 0
M  V30 10 N 1.7593 -0.3248 -0.7397 0
M  V30 11 C 0.6634 0.649 1.3329 0
M  V30 12 C -0.2456 0.5485 -1.9276 0
M  V30 13 O 2.7251 -1.4135 -0.8735 0
M  V30 14 C 0.9991 -0.3529 -2.0005 0
M  V30 15 C 0.9746 1.9496 0.9036 0
M  V30 16 C 0.0824 0.5043 2.6092 0
M  V30 17 N -0.3536 1.7186 -2.4804 0
M  V30 18 C 0.6942 3.0613 1.7034 0
M  V30 19 C -0.1956 1.6154 3.4093 0
M  V30 20 C 0.7837 2.2784 -3.1905 0
M  V30 21 C 0.108 2.8944 2.9545 0
M  V30 22 H 0.532 -3.0842 1.5494 0
M  V30 23 H -3.4983 -3.6774 0.1949 0
M  V30 24 H -3.4099 -1.5501 -1.0394 0
M  V30 25 H 1.6578 -1.1541 1.1517 0
M  V30 26 H -2.1895 0.6172 -1.3531 0
M  V30 27 H 3.5696 -0.9305 -0.7857 0
M  V30 28 H 0.6778 -1.3703 -2.2604 0
M  V30 29 H 1.6553 -0.0351 -2.8151 0
M  V30 30 H 1.4366 2.1196 -0.0649 0
M  V30 31 H -0.1616 -0.4834 2.9939 0
M  V30 32 H 0.9342 4.0582 1.3432 0
M  V30 33 H -0.6498 1.4799 4.3873 0
M  V30 34 H 1.6911 2.2864 -2.5786 0
M  V30 35 H 0.9672 1.7441 -4.1279 0
M  V30 36 H 0.5629 3.3194 -3.4471 0
M  V30 37 H -0.1098 3.7603 3.5736 0
M  V30 END ATOM
M  V30 BEGIN BOND
M  V30 1 1 1 2
M  V30 2 2 2 3
M  V30 3 1 2 4
M  V30 4 1 3 5
M  V30 5 2 4 6
M  V30 6 2 5 7
M  V30 7 1 5 8
M  V30 8 1 7 9
M  V30 9 1 8 10
M  V30 10 1 8 11
M  V30 11 1 9 12
M  V30 12 1 10 13
M  V30 13 1 10 14
M  V30 14 2 11 15
M  V30 15 1 11 16
M  V30 16 2 12 17
M  V30 17 1 15 18
M  V30 18 2 16 19
M  V30 19 1 17 20
M  V30 20 2 18 21
M  V30 21 1 6 7
M  V30 22 1 12 14
M  V30 23 1 19 21
M  V30 24 1 3 22
M  V30 25 1 4 23
M  V30 26 1 6 24
M  V30 27 1 8 25
M  V30 28 1 9 26
M  V30 29 1 13 27
M  V30 30 1 14 28
M  V30 31 1 14 29
M  V30 32 1 15 30
M  V30 33 1 16 31
M  V30 34 1 18 32
M  V30 35 1 19 33
M  V30 36 1 20 34
M  V30 37 1 20 35
M  V30 38 1 20 36
M  V30 39 1 21 37
M  V30 END BOND
M  V30 BEGIN COLLECTION
M  V30 MDLV30/STEABS ATOMS=(1 8)
M  V30 END COLLECTION
M  V30 END CTAB
M  END
>  <Column 1>
3724

>  <level_0>
6405

>  <index>
6406

>  <Unnamed: 0>
6406

>  <NO.>
6418

>  <Name>
zinc2045117

>  <IUPAC_name>
(5s)-7-chloro-4-hydroxy-n-methyl-5-phenyl-3-5-dihydro-1h-1-4-benzodiazepin-2-imine

>  <SMILES>
CN=C1CN(O)[C@@H](c2ccccc2)c2cc(Cl)ccc2N1

>  <CID>
136859441

>  <logBB>


>  <BBB+/BBB->
BBB+

>  <Inchi>
InChI=1S/C16H16ClN3O/c1-18-15-10-20(21)16(11-5-3-2-4-6-11)13-9-12(17)7-8-14(13)19-15/h2-9-16-21H-10H2-1H3-(H-18-19)/t16-/m0/s1

>  <threshold>


>  <reference>
R24|

>  <group>
C

>  <Class>
-1

>  <ABC>
16.32

>  <ABCGG>
13.52

>  <nAcid>
0

>  <nBase>
2

>  <nAromAtom>
12

>  <nAromBond>
12

>  <nAtom>
37

>  <nHeavyAtom>
21

>  <nSpiro>
0

>  <nBridgehead>
0

>  <nHetero>
5

>  <nN>
3

>  <nO>
1

>  <nF>
0

>  <BalabanJ>
1.81

>  <BertzCT>
672.48

>  <nBonds>
39

>  <nBondsO>
23

>  <nBondsS>
26

>  <nBondsD>
1

>  <nBondsT>
0

>  <nBondsA>
12

>  <nBondsM>
13

>  <nBondsKS>
32

>  <nBondsKD>
7

>  <RNCG>
0.21

>  <RPCG>
0.15

>  <FCSP3>
0.19

>  <SZ>
26.33

>  <Sm>
25.12

>  <Sv>
24.41

>  <Sse>
37.19

>  <Sp>
26.15

>  <Si>
41.56

>  <MZ>
0.71

>  <Mm>
0.68

>  <Mv>
0.66

>  <Mse>
1.01

>  <Mp>
0.71

>  <Mi>
1.12

>  <NsCH3>
1

>  <NdCH2>
0

>  <NssCH2>
1

>  <NtCH>
0

>  <NdsCH>
0

>  <NaaCH>
8

>  <NsssCH>
1

>  <NddC>
0

>  <NtsC>
0

>  <NdssC>
1

>  <NaasC>
4

>  <NaaaC>
0

>  <NssssC>
0

>  <NsNH3>
0

>  <NsNH2>
0

>  <NssNH2>
0

>  <NdNH>
0

>  <NssNH>
1

>  <NaaNH>
0

>  <NtN>
0

>  <NsssNH>
0

>  <NdsN>
1

>  <NaaN>
0

>  <NsssN>
1

>  <NddsN>
0

>  <NaasN>
0

>  <NssssN>
0

>  <NsOH>
1

>  <NdO>
0

>  <NssO>
0

>  <NaaO>
0

>  <NsF>
0

>  <NsSiH3>
0

>  <NssSiH2>
0

>  <NsssSiH>
0

>  <NssssSi>
0

>  <NsPH2>
0

>  <NssPH>
0

>  <NsssP>
0

>  <NdsssP>
0

>  <NsssssP>
0

>  <NsSH>
0

>  <NdS>
0

>  <NssS>
0

>  <NaaS>
0

>  <NdssS>
0

>  <NddssS>
0

>  <NsCl>
1

>  <NsBr>
0

>  <NsI>
0

>  <fragCpx>
109.05

>  <fMF>
0.46

>  <nHBAcc>
3

>  <nHBDon>
2

>  <Kier1>
15.88

>  <Kier2>
7.05

>  <Lipinski>
1

>  <GhoseFilter>
1

>  <FilterItLogS>
-4.14

>  <VMcGowan>
221.67

>  <LabuteASA>
128.2

>  <PEOE_VSA1>
10.52

>  <PEOE_VSA2>
4.99

>  <PEOE_VSA3>
0

>  <PEOE_VSA4>
5.06

>  <PEOE_VSA5>
0

>  <PEOE_VSA6>
41.93

>  <PEOE_VSA7>
23.76

>  <PEOE_VSA8>
23.32

>  <PEOE_VSA9>
12.59

>  <PEOE_VSA10>
5.84

>  <PEOE_VSA11>
0

>  <PEOE_VSA12>
0

>  <PEOE_VSA13>
0

>  <SMR_VSA1>
5.21

>  <SMR_VSA2>
0

>  <SMR_VSA3>
5.06

>  <SMR_VSA4>
4.99

>  <SMR_VSA5>
6.04

>  <SMR_VSA6>
18.91

>  <SMR_VSA7>
64.68

>  <SMR_VSA8>
0

>  <SMR_VSA9>
0

>  <SlogP_VSA1>
5.32

>  <SlogP_VSA2>
29.7

>  <SlogP_VSA3>
0

>  <SlogP_VSA4>
0

>  <SlogP_VSA5>
17.17

>  <SlogP_VSA6>
53.52

>  <SlogP_VSA7>
5.02

>  <SlogP_VSA8>
0

>  <SlogP_VSA9>
0

>  <SlogP_VSA10>
5.69

>  <SlogP_VSA11>
0

>  <EState_VSA1>
0

>  <EState_VSA2>
6.04

>  <EState_VSA3>
17.4

>  <EState_VSA4>
16.81

>  <EState_VSA5>
5.06

>  <EState_VSA6>
7.05

>  <EState_VSA7>
48.53

>  <EState_VSA8>
10.31

>  <EState_VSA9>
11.6

>  <EState_VSA10>
5.21

>  <VSA_EState1>
0

>  <VSA_EState2>
4.18

>  <VSA_EState3>
15.69

>  <VSA_EState4>
2.84

>  <VSA_EState5>
0.71

>  <VSA_EState6>
15.2

>  <VSA_EState7>
0

>  <VSA_EState8>
0.32

>  <VSA_EState9>
1.7

>  <apol>
43.67

>  <bpol>
18.84

>  <nRing>
3

>  <nHRing>
1

>  <naRing>
2

>  <naHRing>
0

>  <nARing 2>
1

>  <nAHRing 2>
1

>  <nFRing>
1

>  <nFHRing>
1

>  <nFaRing>
0

>  <nFaHRing>
0

>  <nFARing 2>
1

>  <nFAHRing 2>
1

>  <nRot>
1

>  <SLogP>
3.57

>  <SMR>
85.21

>  <TopoPSA(NO)>
47.86

>  <TopoPSA>
47.86

>  <JGI1>
0.17

>  <JGI2>
0.06

>  <JGI3>
0.05

>  <JGI4>
0.04

>  <JGI5>
0.02

>  <Diameter>
9

>  <Radius>
5

>  <TMWC10>
118.17

>  <TSRW10>
63.02

>  <MW>
301.1

>  <AMW>
8.14

>  <WPath>
828

>  <WPol>
37

>  <Zagreb1>
110

>  <Zagreb2>
130

>  <mZagreb2>
4.69

>  <yes>


>  <nAR-cont>
0.816016

>  <nHA-cont>
0.994529749

>  <MWHBN>
0.288147348

>  <MWHBN-cont>
0.874644341

>  <TPSA-cont>
0.665907481

>  <pka_cont>
0.97

>  <yes.1>


>  <BBB_SCORE>
4.939327222

>  <MMFF94 Energy>
108.19

$$$$
Compound 2909
Actelion Java MolfileCreator 2.0

  0  0  0  0  0  0              0 V3000
M  V30 BEGIN CTAB
M  V30 COUNTS 37 36 0 0 0
M  V30 BEGIN ATOM
M  V30 1 S 0.0 1.322 2.6455 0
M  V30 2 C 1.3861 0.8524 1.5547 0
M  V30 3 C -1.2753 1.6495 1.3813 0
M  V30 4 C 2.681 0.8126 2.2962 0
M  V30 5 C -1.7825 0.3666 0.7109 0
M  V30 6 N 3.687 1.7048 1.9842 0
M  V30 7 C 3.1028 -0.0452 3.2994 0
M  V30 8 N -2.8264 0.686 -0.2657 0
M  V30 9 C 4.677 1.4238 2.7973 0
M  V30 10 N 4.3699 0.3763 3.6151 0
M  V30 11 C 2.438 -1.1728 3.9892 0
M  V30 12 C -3.3826 -0.4738 -0.9195 0
M  V30 13 N -2.5176 -0.7408 -2.0462 0
M  V30 14 C -3.0762 -1.7917 -2.8873 0
M  V30 15 N 1.8437 0.2949 -5.7206 0
M  V30 16 C 0.7416 0.1279 -6.0249 0
M  V30 17 N -0.5271 -0.0642 -6.3753 0
M  V30 18 H 1.1889 -0.1337 1.1234 0
M  V30 19 H 1.4576 1.5764 0.7364 0
M  V30 20 H -0.8726 2.3509 0.6423 0
M  V30 21 H -2.1064 2.1549 1.8863 0
M  V30 22 H -2.193 -0.3027 1.4769 0
M  V30 23 H -0.9534 -0.1505 0.2174 0
M  V30 24 H -2.4558 1.2811 -1.0059 0
M  V30 25 H 5.6279 1.9373 2.8404 0
M  V30 26 H 4.973 -0.0142 4.3254 0
M  V30 27 H 1.7394 -1.6841 3.3195 0
M  V30 28 H 3.1689 -1.9112 4.3345 0
M  V30 29 H 1.8794 -0.8112 4.8583 0
M  V30 30 H -3.4778 -1.3328 -0.2449 0
M  V30 31 H -4.3884 -0.2136 -1.2681 0
M  V30 32 H -1.6158 -1.0519 -1.6952 0
M  V30 33 H -2.3993 -1.985 -3.7252 0
M  V30 34 H -3.2008 -2.7275 -2.3324 0
M  V30 35 H -4.042 -1.4925 -3.3076 0
M  V30 36 H -1.121 0.6994 -6.705 0
M  V30 37 H -0.9689 -0.9848 -6.3317 0
M  V30 END ATOM
M  V30 BEGIN BOND
M  V30 1 1 1 2
M  V30 2 1 1 3
M  V30 3 1 2 4
M  V30 4 1 3 5
M  V30 5 1 4 6
M  V30 6 2 4 7
M  V30 7 1 5 8
M  V30 8 2 6 9
M  V30 9 1 7 10
M  V30 10 1 7 11
M  V30 11 1 8 12
M  V30 12 1 12 13
M  V30 13 1 13 14
M  V30 14 3 15 16
M  V30 15 1 16 17
M  V30 16 1 9 10
M  V30 17 1 2 18
M  V30 18 1 2 19
M  V30 19 1 3 20
M  V30 20 1 3 21
M  V30 21 1 5 22
M  V30 22 1 5 23
M  V30 23 1 8 24
M  V30 24 1 9 25
M  V30 25 1 10 26
M  V30 26 1 11 27
M  V30 27 1 11 28
M  V30 28 1 11 29
M  V30 29 1 12 30
M  V30 30 1 12 31
M  V30 31 1 13 32
M  V30 32 1 14 33
M  V30 33 1 14 34
M  V30 34 1 14 35
M  V30 35 1 17 36
M  V30 36 1 17 37
M  V30 END BOND
M  V30 END CTAB
M  END
>  <Column 1>
3725

>  <level_0>
6416

>  <index>
6417

>  <Unnamed: 0>
6417

>  <NO.>
6429

>  <Name>


>  <IUPAC_name>


>  <SMILES>
CNCNCCSCc1nc[nH]c1C.N#CN

>  <CID>


>  <logBB>


>  <BBB+/BBB->
BBB-

>  <Inchi>
InChI=1S/C9H18N4S.CH2N2/c1-8-9(13-7-12-8)5-14-4-3-11-6-10-2;2-1-3/h7-10-11H-3-6H2-1-2H3-(H-12-13);2H2

>  <threshold>


>  <reference>
R24|

>  <group>
C

>  <Class>
-1

>  <ABC>
11.38

>  <ABCGG>
10.64

>  <nAcid>
0

>  <nBase>
2

>  <nAromAtom>
5

>  <nAromBond>
5

>  <nAtom>
37

>  <nHeavyAtom>
17

>  <nSpiro>
0

>  <nBridgehead>
0

>  <nHetero>
7

>  <nN>
6

>  <nO>
0

>  <nF>
0

>  <BalabanJ>
0

>  <BertzCT>
318.84

>  <nBonds>
36

>  <nBondsO>
16

>  <nBondsS>
30

>  <nBondsD>
0

>  <nBondsT>
1

>  <nBondsA>
5

>  <nBondsM>
6

>  <nBondsKS>
33

>  <nBondsKD>
2

>  <RNCG>
0.18

>  <RPCG>
0.09

>  <FCSP3>
0.6

>  <SZ>
23

>  <Sm>
21.34

>  <Sv>
21.15

>  <Sse>
36.93

>  <Sp>
23.67

>  <Si>
42.82

>  <MZ>
0.62

>  <Mm>
0.58

>  <Mv>
0.57

>  <Mse>
1

>  <Mp>
0.64

>  <Mi>
1.16

>  <NsCH3>
2

>  <NdCH2>
0

>  <NssCH2>
4

>  <NtCH>
0

>  <NdsCH>
0

>  <NaaCH>
1

>  <NsssCH>
0

>  <NddC>
0

>  <NtsC>
1

>  <NdssC>
0

>  <NaasC>
2

>  <NaaaC>
0

>  <NssssC>
0

>  <NsNH3>
0

>  <NsNH2>
1

>  <NssNH2>
0

>  <NdNH>
0

>  <NssNH>
2

>  <NaaNH>
1

>  <NtN>
1

>  <NsssNH>
0

>  <NdsN>
0

>  <NaaN>
1

>  <NsssN>
0

>  <NddsN>
0

>  <NaasN>
0

>  <NssssN>
0

>  <NsOH>
0

>  <NdO>
0

>  <NssO>
0

>  <NaaO>
0

>  <NsF>
0

>  <NsSiH3>
0

>  <NssSiH2>
0

>  <NsssSiH>
0

>  <NssssSi>
0

>  <NsPH2>
0

>  <NssPH>
0

>  <NsssP>
0

>  <NdsssP>
0

>  <NsssssP>
0

>  <NsSH>
0

>  <NdS>
0

>  <NssS>
1

>  <NaaS>
0

>  <NdssS>
0

>  <NddssS>
0

>  <NsCl>
0

>  <NsBr>
0

>  <NsI>
0

>  <fragCpx>
16.07

>  <fMF>
0.14

>  <nHBAcc>
6

>  <nHBDon>
4

>  <Kier1>
17

>  <Kier2>
12.46

>  <Lipinski>
1

>  <GhoseFilter>
1

>  <FilterItLogS>
-3.43

>  <VMcGowan>
210.79

>  <LabuteASA>
106.38

>  <PEOE_VSA1>
21.35

>  <PEOE_VSA2>
0

>  <PEOE_VSA3>
4.98

>  <PEOE_VSA4>
17.02

>  <PEOE_VSA5>
0

>  <PEOE_VSA6>
0

>  <PEOE_VSA7>
13.97

>  <PEOE_VSA8>
30.41

>  <PEOE_VSA9>
12.02

>  <PEOE_VSA10>
0

>  <PEOE_VSA11>
6.19

>  <PEOE_VSA12>
0

>  <PEOE_VSA13>
0

>  <SMR_VSA1>
0

>  <SMR_VSA2>
5.26

>  <SMR_VSA3>
20.6

>  <SMR_VSA4>
5.73

>  <SMR_VSA5>
12.68

>  <SMR_VSA6>
26.01

>  <SMR_VSA7>
17.72

>  <SMR_VSA8>
0

>  <SMR_VSA9>
6.19

>  <SlogP_VSA1>
16.37

>  <SlogP_VSA2>
35.98

>  <SlogP_VSA3>
5.75

>  <SlogP_VSA4>
18.38

>  <SlogP_VSA5>
11.39

>  <SlogP_VSA6>
6.33

>  <SlogP_VSA7>
0

>  <SlogP_VSA8>
0

>  <SlogP_VSA9>
0

>  <SlogP_VSA10>
0

>  <SlogP_VSA11>
0

>  <EState_VSA1>
0

>  <EState_VSA2>
0

>  <EState_VSA3>
0

>  <EState_VSA4>
24.72

>  <EState_VSA5>
17.58

>  <EState_VSA6>
6.33

>  <EState_VSA7>
18.81

>  <EState_VSA8>
33.26

>  <EState_VSA9>
5.26

>  <EState_VSA10>
0

>  <VSA_EState1>
0

>  <VSA_EState2>
7.32

>  <VSA_EState3>
13.41

>  <VSA_EState4>
6.5

>  <VSA_EState5>
2.12

>  <VSA_EState6>
0

>  <VSA_EState7>
3

>  <VSA_EState8>
3.97

>  <VSA_EState9>
1.94

>  <apol>
39.54

>  <bpol>
25.37

>  <nRing>
1

>  <nHRing>
1

>  <naRing>
1

>  <naHRing>
1

>  <nARing 2>
0

>  <nAHRing 2>
0

>  <nFRing>
0

>  <nFHRing>
0

>  <nFaRing>
0

>  <nFaHRing>
0

>  <nFARing 2>
0

>  <nFAHRing 2>
0

>  <nRot>
7

>  <SLogP>
0.14

>  <SMR>
71.22

>  <TopoPSA(NO)>
102.55

>  <TopoPSA>
127.85

>  <JGI1>
0.13

>  <JGI2>
0.07

>  <JGI3>
0.04

>  <JGI4>
0.02

>  <JGI5>
0.02

>  <Diameter>
100000000

>  <Radius>
100000000

>  <TMWC10>
98.15

>  <TSRW10>
60.62

>  <MW>
256.15

>  <AMW>
6.92

>  <WPath>
4200000394

>  <WPol>
13

>  <Zagreb1>
66

>  <Zagreb2>
68

>  <mZagreb2>
4.44

>  <yes>


>  <nAR-cont>
0.336376

>  <nHA-cont>
0.976740822

>  <MWHBN>
0.624816975

>  <MWHBN-cont>
0

>  <TPSA-cont>
0

>  <pka_cont>
0.97

>  <yes.1>


>  <BBB_SCORE>
1.798116822

>  <MMFF94 Energy>
-25.309

$$$$
Compound 2910
Actelion Java MolfileCreator 2.0

  0  0  0  0  0  0              0 V3000
M  V30 BEGIN CTAB
M  V30 COUNTS 45 45 0 0 0
M  V30 BEGIN ATOM
M  V30 1 S -0.1581 0.7908 1.8989 0
M  V30 2 C 0.1245 0.4594 0.1317 0
M  V30 3 C -1.986 0.8667 1.9141 0
M  V30 4 C 1.5441 0.6702 -0.2513 0
M  V30 5 C -2.7257 -0.3256 1.2804 0
M  V30 6 O 1.7547 1.3703 -1.4043 0
M  V30 7 C 2.755 0.2838 0.2874 0
M  V30 8 N -2.3085 -1.6114 1.8383 0
M  V30 9 C 3.1043 1.4614 -1.584 0
M  V30 10 C 3.7589 0.797 -0.5673 0
M  V30 11 C -2.9725 -2.7679 1.2619 0 CFG=1
M  V30 12 C 3.5776 2.2022 -2.7905 0
M  V30 13 N -2.1955 -3.852 1.834 0
M  V30 14 C -4.4934 -2.8964 1.4461 0
M  V30 15 N 3.41 3.6638 -2.6837 0
M  V30 16 C -2.2659 -5.0858 1.065 0
M  V30 17 N -4.8513 -3.0187 2.8906 0 CHG=1
M  V30 18 C 3.6836 4.2937 -3.9752 0
M  V30 19 C 4.2769 4.2375 -1.6532 0
M  V30 20 O -5.2938 -4.1098 3.2748 0
M  V30 21 O -4.7481 -1.9994 3.5892 0 CHG=-1
M  V30 22 H -0.5185 1.1216 -0.4574 0
M  V30 23 H -0.1502 -0.5765 -0.089 0
M  V30 24 H -2.2899 1.7913 1.4114 0
M  V30 25 H -2.2889 0.9629 2.963 0
M  V30 26 H -2.5673 -0.3189 0.196 0
M  V30 27 H -3.7974 -0.1674 1.445 0
M  V30 28 H 2.8904 -0.2881 1.1951 0
M  V30 29 H -2.4537 -1.613 2.8517 0
M  V30 30 H 4.8294 0.7009 -0.4554 0
M  V30 31 H -2.7797 -2.735 0.1811 0
M  V30 32 H 4.6254 1.945 -2.994 0
M  V30 33 H 2.993 1.8305 -3.6426 0
M  V30 34 H -1.2273 -3.5268 1.8561 0
M  V30 35 H -4.8865 -3.783 0.937 0
M  V30 36 H -5.0366 -2.0272 1.0621 0
M  V30 37 H -1.6247 -5.8396 1.5325 0
M  V30 38 H -3.2813 -5.4922 1.0452 0
M  V30 39 H -1.9166 -4.9415 0.0376 0
M  V30 40 H 3.0002 3.9142 -4.743 0
M  V30 41 H 4.7122 4.1192 -4.3113 0
M  V30 42 H 3.5178 5.3756 -3.9199 0
M  V30 43 H 5.3363 4.0287 -1.841 0
M  V30 44 H 4.019 3.8596 -0.6585 0
M  V30 45 H 4.1469 5.325 -1.6053 0
M  V30 END ATOM
M  V30 BEGIN BOND
M  V30 1 1 1 2
M  V30 2 1 1 3
M  V30 3 1 2 4
M  V30 4 1 3 5
M  V30 5 1 4 6
M  V30 6 2 4 7
M  V30 7 1 5 8
M  V30 8 1 6 9
M  V30 9 1 7 10
M  V30 10 1 8 11
M  V30 11 1 9 12
M  V30 12 1 11 13
M  V30 13 1 11 14
M  V30 14 1 12 15
M  V30 15 1 13 16
M  V30 16 1 14 17
M  V30 17 1 15 18
M  V30 18 1 15 19
M  V30 19 2 17 20
M  V30 20 1 17 21
M  V30 21 2 9 10
M  V30 22 1 2 22
M  V30 23 1 2 23
M  V30 24 1 3 24
M  V30 25 1 3 25
M  V30 26 1 5 26
M  V30 27 1 5 27
M  V30 28 1 7 28
M  V30 29 1 8 29
M  V30 30 1 10 30
M  V30 31 1 11 31
M  V30 32 1 12 32
M  V30 33 1 12 33
M  V30 34 1 13 34
M  V30 35 1 14 35
M  V30 36 1 14 36
M  V30 37 1 16 37
M  V30 38 1 16 38
M  V30 39 1 16 39
M  V30 40 1 18 40
M  V30 41 1 18 41
M  V30 42 1 18 42
M  V30 43 1 19 43
M  V30 44 1 19 44
M  V30 45 1 19 45
M  V30 END BOND
M  V30 BEGIN COLLECTION
M  V30 MDLV30/STEABS ATOMS=(1 11)
M  V30 END COLLECTION
M  V30 END CTAB
M  END
>  <Column 1>
3727

>  <level_0>
6421

>  <index>
6422

>  <Unnamed: 0>
6422

>  <NO.>
6434

>  <Name>


>  <IUPAC_name>


>  <SMILES>
CN[C@@H](C[N+](=O)[O-])NCCSCc1ccc(CN(C)C)o1

>  <CID>


>  <logBB>


>  <BBB+/BBB->
BBB-

>  <Inchi>
InChI=1S/C13H24N4O3S/c1-14-13(9-17(18)19)15-6-7-21-10-12-5-4-11(20-12)8-16(2)3/h4-5-13-15H-6-10H2-1-3H3/t13-/m1/s1

>  <threshold>


>  <reference>
R24|

>  <group>
C

>  <Class>
1

>  <ABC>
15.29

>  <ABCGG>
13.16

>  <nAcid>
0

>  <nBase>
3

>  <nAromAtom>
5

>  <nAromBond>
5

>  <nAtom>
45

>  <nHeavyAtom>
21

>  <nSpiro>
0

>  <nBridgehead>
0

>  <nHetero>
8

>  <nN>
4

>  <nO>
3

>  <nF>
0

>  <BalabanJ>
2.02

>  <BertzCT>
425.3

>  <nBonds>
45

>  <nBondsO>
21

>  <nBondsS>
39

>  <nBondsD>
1

>  <nBondsT>
0

>  <nBondsA>
5

>  <nBondsM>
6

>  <nBondsKS>
42

>  <nBondsKD>
3

>  <RNCG>
0.22

>  <RPCG>
0.11

>  <FCSP3>
0.69

>  <SZ>
28.33

>  <Sm>
26.34

>  <Sv>
25.87

>  <Sse>
45.38

>  <Sp>
28.39

>  <Si>
51.69

>  <MZ>
0.63

>  <Mm>
0.59

>  <Mv>
0.57

>  <Mse>
1.01

>  <Mp>
0.63

>  <Mi>
1.15

>  <NsCH3>
3

>  <NdCH2>
0

>  <NssCH2>
5

>  <NtCH>
0

>  <NdsCH>
0

>  <NaaCH>
2

>  <NsssCH>
1

>  <NddC>
0

>  <NtsC>
0

>  <NdssC>
0

>  <NaasC>
2

>  <NaaaC>
0

>  <NssssC>
0

>  <NsNH3>
0

>  <NsNH2>
0

>  <NssNH2>
0

>  <NdNH>
0

>  <NssNH>
2

>  <NaaNH>
0

>  <NtN>
0

>  <NsssNH>
0

>  <NdsN>
0

>  <NaaN>
0

>  <NsssN>
1

>  <NddsN>
1

>  <NaasN>
0

>  <NssssN>
0

>  <NsOH>
0

>  <NdO>
1

>  <NssO>
0

>  <NaaO>
1

>  <NsF>
0

>  <NsSiH3>
0

>  <NssSiH2>
0

>  <NsssSiH>
0

>  <NssssSi>
0

>  <NsPH2>
0

>  <NssPH>
0

>  <NsssP>
0

>  <NdsssP>
0

>  <NsssssP>
0

>  <NsSH>
0

>  <NdS>
0

>  <NssS>
1

>  <NaaS>
0

>  <NdssS>
0

>  <NddssS>
0

>  <NsCl>
0

>  <NsBr>
0

>  <NsI>
0

>  <fragCpx>
21.08

>  <fMF>
0.11

>  <nHBAcc>
7

>  <nHBDon>
2

>  <Kier1>
19.05

>  <Kier2>
10.68

>  <Lipinski>
1

>  <GhoseFilter>
1

>  <FilterItLogS>
-4.08

>  <VMcGowan>
244.15

>  <LabuteASA>
129.15

>  <PEOE_VSA1>
9.32

>  <PEOE_VSA2>
20.75

>  <PEOE_VSA3>
0

>  <PEOE_VSA4>
11.76

>  <PEOE_VSA5>
0

>  <PEOE_VSA6>
0

>  <PEOE_VSA7>
33.28

>  <PEOE_VSA8>
17.22

>  <PEOE_VSA9>
12.3

>  <PEOE_VSA10>
17.69

>  <PEOE_VSA11>
0

>  <PEOE_VSA12>
6.54

>  <PEOE_VSA13>
0

>  <SMR_VSA1>
9.34

>  <SMR_VSA2>
0

>  <SMR_VSA3>
15.53

>  <SMR_VSA4>
0

>  <SMR_VSA5>
18.46

>  <SMR_VSA6>
39.99

>  <SMR_VSA7>
33.77

>  <SMR_VSA8>
0

>  <SMR_VSA9>
0

>  <SlogP_VSA1>
10.63

>  <SlogP_VSA2>
55.97

>  <SlogP_VSA3>
12.3

>  <SlogP_VSA4>
10.11

>  <SlogP_VSA5>
11.52

>  <SlogP_VSA6>
16.55

>  <SlogP_VSA7>
0

>  <SlogP_VSA8>
0

>  <SlogP_VSA9>
0

>  <SlogP_VSA10>
0

>  <SlogP_VSA11>
0

>  <EState_VSA1>
0

>  <EState_VSA2>
17.63

>  <EState_VSA3>
0

>  <EState_VSA4>
36.12

>  <EState_VSA5>
0

>  <EState_VSA6>
18.81

>  <EState_VSA7>
26.23

>  <EState_VSA8>
15.53

>  <EState_VSA9>
4.42

>  <EState_VSA10>
10.11

>  <VSA_EState1>
5.71

>  <VSA_EState2>
12.17

>  <VSA_EState3>
16.41

>  <VSA_EState4>
0

>  <VSA_EState5>
3.62

>  <VSA_EState6>
4

>  <VSA_EState7>
-0.28

>  <VSA_EState8>
1.4

>  <VSA_EState9>
5.72

>  <apol>
47.42

>  <bpol>
32.29

>  <nRing>
1

>  <nHRing>
1

>  <naRing>
1

>  <naHRing>
1

>  <nARing 2>
0

>  <nAHRing 2>
0

>  <nFRing>
0

>  <nFHRing>
0

>  <nFaRing>
0

>  <nFaHRing>
0

>  <nFARing 2>
0

>  <nFAHRing 2>
0

>  <nRot>
11

>  <SLogP>
0.99

>  <SMR>
84.97

>  <TopoPSA(NO)>
83.58

>  <TopoPSA>
108.88

>  <JGI1>
0.24

>  <JGI2>
0.04

>  <JGI3>
0.06

>  <JGI4>
0.03

>  <JGI5>
0.02

>  <Diameter>
14

>  <Radius>
7

>  <TMWC10>
111.35

>  <TSRW10>
66.73

>  <MW>
316.16

>  <AMW>
7.03

>  <WPath>
1227

>  <WPol>
22

>  <Zagreb1>
94

>  <Zagreb2>
100

>  <mZagreb2>
4.92

>  <yes>


>  <nAR-cont>
0.336376

>  <nHA-cont>
0.994529749

>  <MWHBN>
0.506161429

>  <MWHBN-cont>
0

>  <TPSA-cont>
0.23994999

>  <pka_cont>
0.97

>  <yes.1>


>  <BBB_SCORE>
2.295805729

>  <MMFF94 Energy>
13.315

$$$$
Compound 2911
Actelion Java MolfileCreator 2.0

  0  0  0  0  0  0              0 V3000
M  V30 BEGIN CTAB
M  V30 COUNTS 45 49 0 0 0
M  V30 BEGIN ATOM
M  V30 1 O -2.9866 1.4521 2.9866 0
M  V30 2 C -1.7934 1.1035 2.4076 0
M  V30 3 C -4.1414 0.7216 2.5936 0
M  V30 4 C -0.6812 1.918 2.8733 0
M  V30 5 C -1.5671 0.1355 1.4919 0
M  V30 6 C 0.4931 1.9562 2.2172 0
M  V30 7 C -0.1942 -0.1485 0.9853 0 CFG=2
M  V30 8 C 0.7095 1.1185 0.9689 0 CFG=1
M  V30 9 C 0.1358 -1.2876 0.0038 0 CFG=2
M  V30 10 C 0.3707 -1.4521 1.5005 0
M  V30 11 C 0.4207 1.9342 -0.3183 0
M  V30 12 C 2.1754 0.7575 0.7257 0
M  V30 13 C 1.4149 -1.1167 -0.8667 0 CFG=2
M  V30 14 C -0.8743 -2.3188 -0.4854 0
M  V30 15 N 1.2745 1.3439 -1.3753 0
M  V30 16 C 2.0978 0.2934 -0.7231 0 CFG=1
M  V30 17 C 1.2059 -1.411 -2.3702 0
M  V30 18 C -1.0367 -2.3701 -1.992 0
M  V30 19 C 2.0883 2.3589 -2.0369 0
M  V30 20 C 0.3124 -2.6056 -2.6463 0
M  V30 21 H -4.3426 0.8512 1.5251 0
M  V30 22 H -4.9967 1.1205 3.1473 0
M  V30 23 H -4.0408 -0.3385 2.848 0
M  V30 24 H -0.843 2.5261 3.7584 0
M  V30 25 H -2.3839 -0.4605 1.1092 0
M  V30 26 H 1.2916 2.6025 2.5668 0
M  V30 27 H -0.289 -2.1082 2.0659 0
M  V30 28 H 1.3805 -1.5267 1.8792 0
M  V30 29 H 0.659 2.9952 -0.1616 0
M  V30 30 H -0.6294 1.8779 -0.6262 0
M  V30 31 H 2.8203 1.6434 0.8115 0
M  V30 32 H 2.5959 0.0075 1.398 0
M  V30 33 H 2.1303 -1.8646 -0.4948 0
M  V30 34 H -0.5425 -3.3092 -0.1437 0
M  V30 35 H -1.8599 -2.1647 -0.0371 0
M  V30 36 H 3.0994 0.231 -1.1672 0
M  V30 37 H 2.1824 -1.5669 -2.8454 0
M  V30 38 H 0.7549 -0.5509 -2.879 0
M  V30 39 H -1.4803 -1.4357 -2.3567 0
M  V30 40 H -1.7229 -3.1815 -2.2596 0
M  V30 41 H 2.683 1.9061 -2.8378 0
M  V30 42 H 1.4478 3.1126 -2.5083 0
M  V30 43 H 2.771 2.8675 -1.3471 0
M  V30 44 H 0.7739 -3.5255 -2.2688 0
M  V30 45 H 0.1833 -2.7263 -3.7277 0
M  V30 END ATOM
M  V30 BEGIN BOND
M  V30 1 1 1 2
M  V30 2 1 1 3
M  V30 3 1 2 4
M  V30 4 2 2 5
M  V30 5 2 4 6
M  V30 6 1 5 7
M  V30 7 1 6 8
M  V30 8 1 7 9
M  V30 9 1 7 10
M  V30 10 1 8 11
M  V30 11 1 8 12
M  V30 12 1 9 13
M  V30 13 1 9 14
M  V30 14 1 11 15
M  V30 15 1 12 16
M  V30 16 1 13 17
M  V30 17 1 14 18
M  V30 18 1 15 19
M  V30 19 1 17 20
M  V30 20 1 7 8
M  V30 21 1 9 10
M  V30 22 1 13 16
M  V30 23 1 15 16
M  V30 24 1 18 20
M  V30 25 1 3 21
M  V30 26 1 3 22
M  V30 27 1 3 23
M  V30 28 1 4 24
M  V30 29 1 5 25
M  V30 30 1 6 26
M  V30 31 1 10 27
M  V30 32 1 10 28
M  V30 33 1 11 29
M  V30 34 1 11 30
M  V30 35 1 12 31
M  V30 36 1 12 32
M  V30 37 1 13 33
M  V30 38 1 14 34
M  V30 39 1 14 35
M  V30 40 1 16 36
M  V30 41 1 17 37
M  V30 42 1 17 38
M  V30 43 1 18 39
M  V30 44 1 18 40
M  V30 45 1 19 41
M  V30 46 1 19 42
M  V30 47 1 19 43
M  V30 48 1 20 44
M  V30 49 1 20 45
M  V30 END BOND
M  V30 BEGIN COLLECTION
M  V30 MDLV30/STEABS ATOMS=(5 7 8 9 13 16)
M  V30 END COLLECTION
M  V30 END CTAB
M  END
>  <Column 1>
3733

>  <level_0>
6462

>  <index>
6463

>  <Unnamed: 0>
6463

>  <NO.>
6475

>  <Name>


>  <IUPAC_name>


>  <SMILES>
COC1=C[C@@]23C[C@@]24CCCC[C@H]4[C@@H]2C[C@@]3(C=C1)CN2C

>  <CID>


>  <logBB>


>  <BBB+/BBB->
BBB+

>  <Inchi>
InChI=1S/C18H25NO/c1-19-12-16-8-6-13(20-2)9-18(16)11-17(18)7-4-3-5-14(17)15(19)10-16/h6-8-9-14-15H-3-5-7-10-12H2-1-2H3/t14--15--16--17+-18-/m0/s1

>  <threshold>


>  <reference>
R24|

>  <group>
C

>  <Class>
-1

>  <ABC>
16.75

>  <ABCGG>
14.18

>  <nAcid>
0

>  <nBase>
1

>  <nAromAtom>
0

>  <nAromBond>
0

>  <nAtom>
45

>  <nHeavyAtom>
20

>  <nSpiro>
3

>  <nBridgehead>
2

>  <nHetero>
2

>  <nN>
1

>  <nO>
1

>  <nF>
0

>  <BalabanJ>
1.61

>  <BertzCT>
537.54

>  <nBonds>
49

>  <nBondsO>
24

>  <nBondsS>
47

>  <nBondsD>
2

>  <nBondsT>
0

>  <nBondsA>
0

>  <nBondsM>
2

>  <nBondsKS>
47

>  <nBondsKD>
2

>  <RNCG>
0.4

>  <RPCG>
0.09

>  <FCSP3>
0.78

>  <SZ>
24.67

>  <Sm>
22.6

>  <Sv>
26.25

>  <Sse>
44.09

>  <Sp>
29.12

>  <Si>
50.69

>  <MZ>
0.55

>  <Mm>
0.5

>  <Mv>
0.58

>  <Mse>
0.98

>  <Mp>
0.65

>  <Mi>
1.13

>  <NsCH3>
2

>  <NdCH2>
0

>  <NssCH2>
7

>  <NtCH>
0

>  <NdsCH>
3

>  <NaaCH>
0

>  <NsssCH>
2

>  <NddC>
0

>  <NtsC>
0

>  <NdssC>
1

>  <NaasC>
0

>  <NaaaC>
0

>  <NssssC>
3

>  <NsNH3>
0

>  <NsNH2>
0

>  <NssNH2>
0

>  <NdNH>
0

>  <NssNH>
0

>  <NaaNH>
0

>  <NtN>
0

>  <NsssNH>
0

>  <NdsN>
0

>  <NaaN>
0

>  <NsssN>
1

>  <NddsN>
0

>  <NaasN>
0

>  <NssssN>
0

>  <NsOH>
0

>  <NdO>
0

>  <NssO>
1

>  <NaaO>
0

>  <NsF>
0

>  <NsSiH3>
0

>  <NssSiH2>
0

>  <NsssSiH>
0

>  <NssssSi>
0

>  <NsPH2>
0

>  <NssPH>
0

>  <NsssP>
0

>  <NdsssP>
0

>  <NsssssP>
0

>  <NsSH>
0

>  <NdS>
0

>  <NssS>
0

>  <NaaS>
0

>  <NdssS>
0

>  <NddssS>
0

>  <NsCl>
0

>  <NsBr>
0

>  <NsI>
0

>  <fragCpx>
196.02

>  <fMF>
0.38

>  <nHBAcc>
2

>  <nHBDon>
0

>  <Kier1>
12.53

>  <Kier2>
3.66

>  <Lipinski>
1

>  <GhoseFilter>
1

>  <FilterItLogS>
-2.95

>  <VMcGowan>
217.43

>  <LabuteASA>
121.41

>  <PEOE_VSA1>
9.64

>  <PEOE_VSA2>
0

>  <PEOE_VSA3>
0

>  <PEOE_VSA4>
0

>  <PEOE_VSA5>
0

>  <PEOE_VSA6>
18.92

>  <PEOE_VSA7>
56.22

>  <PEOE_VSA8>
23.42

>  <PEOE_VSA9>
7.11

>  <PEOE_VSA10>
5.76

>  <PEOE_VSA11>
0

>  <PEOE_VSA12>
0

>  <PEOE_VSA13>
0

>  <SMR_VSA1>
4.74

>  <SMR_VSA2>
0

>  <SMR_VSA3>
4.9

>  <SMR_VSA4>
22.16

>  <SMR_VSA5>
44.57

>  <SMR_VSA6>
20.7

>  <SMR_VSA7>
23.99

>  <SMR_VSA8>
0

>  <SMR_VSA9>
0

>  <SlogP_VSA1>
0

>  <SlogP_VSA2>
31.64

>  <SlogP_VSA3>
4.74

>  <SlogP_VSA4>
22.16

>  <SlogP_VSA5>
38.52

>  <SlogP_VSA6>
23.99

>  <SlogP_VSA7>
0

>  <SlogP_VSA8>
0

>  <SlogP_VSA9>
0

>  <SlogP_VSA10>
0

>  <SlogP_VSA11>
0

>  <EState_VSA1>
0

>  <EState_VSA2>
0

>  <EState_VSA3>
16.24

>  <EState_VSA4>
17.72

>  <EState_VSA5>
45.07

>  <EState_VSA6>
0

>  <EState_VSA7>
7.11

>  <EState_VSA8>
30.18

>  <EState_VSA9>
4.74

>  <EState_VSA10>
0

>  <VSA_EState1>
5.6

>  <VSA_EState2>
2.68

>  <VSA_EState3>
0

>  <VSA_EState4>
1.47

>  <VSA_EState5>
2.06

>  <VSA_EState6>
0.84

>  <VSA_EState7>
15.98

>  <VSA_EState8>
1.26

>  <VSA_EState9>
4.19

>  <apol>
48.63

>  <bpol>
28.53

>  <nRing>
5

>  <nHRing>
1

>  <naRing>
0

>  <naHRing>
0

>  <nARing 2>
5

>  <nAHRing 2>
1

>  <nFRing>
1

>  <nFHRing>
1

>  <nFaRing>
0

>  <nFaHRing>
0

>  <nFARing 2>
1

>  <nFAHRing 2>
1

>  <nRot>
1

>  <SLogP>
3.36

>  <SMR>
79.14

>  <TopoPSA(NO)>
12.47

>  <TopoPSA>
12.47

>  <JGI1>
0.25

>  <JGI2>
0.13

>  <JGI3>
0.08

>  <JGI4>
0.06

>  <JGI5>
0.03

>  <Diameter>
8

>  <Radius>
4

>  <TMWC10>
124.66

>  <TSRW10>
78.15

>  <MW>
271.19

>  <AMW>
6.03

>  <WPath>
651

>  <WPol>
44

>  <Zagreb1>
130

>  <Zagreb2>
175

>  <mZagreb2>
4.14

>  <yes>


>  <nAR-cont>
0

>  <nHA-cont>
0.999629945

>  <MWHBN>
0.121448781

>  <MWHBN-cont>
0.835560886

>  <TPSA-cont>
0.912951657

>  <pka_cont>
0.97

>  <yes.1>


>  <BBB_SCORE>
4.563874587

>  <MMFF94 Energy>
94.38

$$$$
Compound 2912
Actelion Java MolfileCreator 2.0

  0  0  0  0  0  0              0 V3000
M  V30 BEGIN CTAB
M  V30 COUNTS 53 55 0 0 0
M  V30 BEGIN ATOM
M  V30 1 O -2.8488 0.6325 3.1657 0
M  V30 2 C -1.8713 -0.0632 2.8991 0
M  V30 3 N -1.7266 -0.6954 1.699 0
M  V30 4 C -0.7331 -0.1517 3.8682 0 CFG=1
M  V30 5 C -0.8974 -1.6776 1.576 0
M  V30 6 C -0.0271 -1.4456 3.6727 0
M  V30 7 C 0.2067 1.0341 3.6452 0
M  V30 8 N -0.1164 -2.1428 2.5927 0
M  V30 9 N -0.7395 -2.3337 0.3983 0
M  V30 10 C 1.2541 1.1589 4.7195 0
M  V30 11 C -1.4134 -2.0188 -0.8378 0
M  V30 12 C 0.9425 1.6761 5.9723 0
M  V30 13 C 2.5685 0.7408 4.5076 0
M  V30 14 C -0.6699 -0.9075 -1.5759 0
M  V30 15 N 1.8265 1.7841 6.9883 0
M  V30 16 C 3.5012 0.8502 5.536 0
M  V30 17 C -1.3249 -0.6 -2.9227 0
M  V30 18 C 3.0952 1.3741 6.7589 0
M  V30 19 C -0.572 0.5057 -3.6651 0
M  V30 20 C 4.0753 1.5051 7.8856 0
M  V30 21 C -1.2125 0.8153 -4.9968 0
M  V30 22 N -2.0957 1.8506 -4.9978 0
M  V30 23 C -0.9258 0.0544 -6.1397 0
M  V30 24 C -2.7029 2.1486 -6.1635 0
M  V30 25 O -0.0299 -0.9698 -5.9989 0
M  V30 26 C -1.5764 0.3968 -7.3254 0
M  V30 27 C -2.4779 1.4595 -7.3403 0
M  V30 28 C 0.2716 -1.7351 -7.1584 0
M  V30 29 H -1.146 -0.1552 4.884 0
M  V30 30 H 0.6168 -1.8062 4.4918 0
M  V30 31 H -0.3636 1.9722 3.6086 0
M  V30 32 H 0.6973 0.956 2.6653 0
M  V30 33 H -0.0765 -3.0964 0.4021 0
M  V30 34 H -2.4571 -1.7382 -0.6547 0
M  V30 35 H -1.4343 -2.921 -1.4597 0
M  V30 36 H -0.0592 2.0282 6.2072 0
M  V30 37 H 2.8771 0.3324 3.5483 0
M  V30 38 H 0.3743 -1.2055 -1.7332 0
M  V30 39 H -0.6481 4.0E-4 -0.9607 0
M  V30 40 H 4.5273 0.5321 5.3819 0
M  V30 41 H -2.3677 -0.2967 -2.7643 0
M  V30 42 H -1.3515 -1.5118 -3.5321 0
M  V30 43 H -0.5675 1.4184 -3.0554 0
M  V30 44 H 0.4805 0.2337 -3.808 0
M  V30 45 H 4.8996 2.1636 7.5949 0
M  V30 46 H 4.4764 0.5228 8.1538 0
M  V30 47 H 3.5953 1.931 8.7725 0
M  V30 48 H -3.3979 2.9824 -6.1242 0
M  V30 49 H -1.4076 -0.1413 -8.2512 0
M  V30 50 H -2.9943 1.7412 -8.251 0
M  V30 51 H -0.6188 -2.2495 -7.5343 0
M  V30 52 H 1.0011 -2.4993 -6.8734 0
M  V30 53 H 0.7281 -1.1127 -7.935 0
M  V30 END ATOM
M  V30 BEGIN BOND
M  V30 1 2 1 2
M  V30 2 1 2 3
M  V30 3 1 2 4
M  V30 4 2 3 5
M  V30 5 1 4 6
M  V30 6 1 4 7
M  V30 7 1 5 8
M  V30 8 1 5 9
M  V30 9 1 7 10
M  V30 10 1 9 11
M  V30 11 2 10 12
M  V30 12 1 10 13
M  V30 13 1 11 14
M  V30 14 1 12 15
M  V30 15 2 13 16
M  V30 16 1 14 17
M  V30 17 2 15 18
M  V30 18 1 17 19
M  V30 19 1 18 20
M  V30 20 1 19 21
M  V30 21 2 21 22
M  V30 22 1 21 23
M  V30 23 1 22 24
M  V30 24 1 23 25
M  V30 25 2 23 26
M  V30 26 2 24 27
M  V30 27 1 25 28
M  V30 28 2 6 8
M  V30 29 1 16 18
M  V30 30 1 26 27
M  V30 31 1 4 29
M  V30 32 1 6 30
M  V30 33 1 7 31
M  V30 34 1 7 32
M  V30 35 1 9 33
M  V30 36 1 11 34
M  V30 37 1 11 35
M  V30 38 1 12 36
M  V30 39 1 13 37
M  V30 40 1 14 38
M  V30 41 1 14 39
M  V30 42 1 16 40
M  V30 43 1 17 41
M  V30 44 1 17 42
M  V30 45 1 19 43
M  V30 46 1 19 44
M  V30 47 1 20 45
M  V30 48 1 20 46
M  V30 49 1 20 47
M  V30 50 1 24 48
M  V30 51 1 26 49
M  V30 52 1 27 50
M  V30 53 1 28 51
M  V30 54 1 28 52
M  V30 55 1 28 53
M  V30 END BOND
M  V30 BEGIN COLLECTION
M  V30 MDLV30/STEABS ATOMS=(1 4)
M  V30 END COLLECTION
M  V30 END CTAB
M  END
>  <Column 1>
3736

>  <level_0>
6536

>  <index>
6537

>  <Unnamed: 0>
6537

>  <NO.>
6549

>  <Name>


>  <IUPAC_name>


>  <SMILES>
COc1cccnc1CCCCNC1=NC(=O)[C@H](Cc2ccc(C)nc2)C=N1

>  <CID>


>  <logBB>


>  <BBB+/BBB->
BBB-

>  <Inchi>
InChI=1S/C21H25N5O2/c1-15-8-9-16(13-24-15)12-17-14-25-21(26-20(17)27)23-10-4-3-6-18-19(28-2)7-5-11-22-18/h5-7-9-11-13-14-17H-3-4-6-10-12H2-1-2H3-(H-23-26-27)/t17-/m1/s1

>  <threshold>


>  <reference>
R24|

>  <group>
C

>  <Class>
1

>  <ABC>
21.35

>  <ABCGG>
15.4

>  <nAcid>
0

>  <nBase>
3

>  <nAromAtom>
12

>  <nAromBond>
12

>  <nAtom>
53

>  <nHeavyAtom>
28

>  <nSpiro>
0

>  <nBridgehead>
0

>  <nHetero>
7

>  <nN>
5

>  <nO>
2

>  <nF>
0

>  <BalabanJ>
1.25

>  <BertzCT>
861.35

>  <nBonds>
55

>  <nBondsO>
30

>  <nBondsS>
40

>  <nBondsD>
3

>  <nBondsT>
0

>  <nBondsA>
12

>  <nBondsM>
15

>  <nBondsKS>
46

>  <nBondsKD>
9

>  <RNCG>
0.21

>  <RPCG>
0.11

>  <FCSP3>
0.38

>  <SZ>
33.67

>  <Sm>
31.59

>  <Sv>
32.99

>  <Sse>
53.08

>  <Sp>
35.24

>  <Si>
60.06

>  <MZ>
0.64

>  <Mm>
0.6

>  <Mv>
0.62

>  <Mse>
1

>  <Mp>
0.66

>  <Mi>
1.13

>  <NsCH3>
2

>  <NdCH2>
0

>  <NssCH2>
5

>  <NtCH>
0

>  <NdsCH>
1

>  <NaaCH>
6

>  <NsssCH>
1

>  <NddC>
0

>  <NtsC>
0

>  <NdssC>
2

>  <NaasC>
4

>  <NaaaC>
0

>  <NssssC>
0

>  <NsNH3>
0

>  <NsNH2>
0

>  <NssNH2>
0

>  <NdNH>
0

>  <NssNH>
1

>  <NaaNH>
0

>  <NtN>
0

>  <NsssNH>
0

>  <NdsN>
2

>  <NaaN>
2

>  <NsssN>
0

>  <NddsN>
0

>  <NaasN>
0

>  <NssssN>
0

>  <NsOH>
0

>  <NdO>
1

>  <NssO>
1

>  <NaaO>
0

>  <NsF>
0

>  <NsSiH3>
0

>  <NssSiH2>
0

>  <NsssSiH>
0

>  <NssssSi>
0

>  <NsPH2>
0

>  <NssPH>
0

>  <NsssP>
0

>  <NdsssP>
0

>  <NsssssP>
0

>  <NsSH>
0

>  <NdS>
0

>  <NssS>
0

>  <NaaS>
0

>  <NdssS>
0

>  <NddssS>
0

>  <NsCl>
0

>  <NsBr>
0

>  <NsI>
0

>  <fragCpx>
144.07

>  <fMF>
0.45

>  <nHBAcc>
6

>  <nHBDon>
1

>  <Kier1>
22.68

>  <Kier2>
12

>  <Lipinski>
1

>  <GhoseFilter>
1

>  <FilterItLogS>
-6.41

>  <VMcGowan>
297.11

>  <LabuteASA>
164.55

>  <PEOE_VSA1>
10.05

>  <PEOE_VSA2>
14.76

>  <PEOE_VSA3>
4.99

>  <PEOE_VSA4>
4.99

>  <PEOE_VSA5>
0

>  <PEOE_VSA6>
6.07

>  <PEOE_VSA7>
56.37

>  <PEOE_VSA8>
30.85

>  <PEOE_VSA9>
18.72

>  <PEOE_VSA10>
5.75

>  <PEOE_VSA11>
0

>  <PEOE_VSA12>
5.96

>  <PEOE_VSA13>
5.91

>  <SMR_VSA1>
9.53

>  <SMR_VSA2>
0

>  <SMR_VSA3>
15.28

>  <SMR_VSA4>
15.9

>  <SMR_VSA5>
32.61

>  <SMR_VSA6>
13.65

>  <SMR_VSA7>
53.61

>  <SMR_VSA8>
0

>  <SMR_VSA9>
5.75

>  <SlogP_VSA1>
10.05

>  <SlogP_VSA2>
41.7

>  <SlogP_VSA3>
17.64

>  <SlogP_VSA4>
12.84

>  <SlogP_VSA5>
29.79

>  <SlogP_VSA6>
46.64

>  <SlogP_VSA7>
0

>  <SlogP_VSA8>
0

>  <SlogP_VSA9>
0

>  <SlogP_VSA10>
0

>  <SlogP_VSA11>
5.75

>  <EState_VSA1>
0

>  <EState_VSA2>
11.83

>  <EState_VSA3>
18.93

>  <EState_VSA4>
41.96

>  <EState_VSA5>
0

>  <EState_VSA6>
25.72

>  <EState_VSA7>
31.19

>  <EState_VSA8>
25.27

>  <EState_VSA9>
4.74

>  <EState_VSA10>
4.79

>  <VSA_EState1>
5.31

>  <VSA_EState2>
29.25

>  <VSA_EState3>
3.13

>  <VSA_EState4>
2.92

>  <VSA_EState5>
0.71

>  <VSA_EState6>
7.71

>  <VSA_EState7>
8.53

>  <VSA_EState8>
2.64

>  <VSA_EState9>
1.65

>  <apol>
58.84

>  <bpol>
32.81

>  <nRing>
3

>  <nHRing>
3

>  <naRing>
2

>  <naHRing>
2

>  <nARing 2>
1

>  <nAHRing 2>
1

>  <nFRing>
0

>  <nFHRing>
0

>  <nFaRing>
0

>  <nFaHRing>
0

>  <nFARing 2>
0

>  <nFAHRing 2>
0

>  <nRot>
8

>  <SLogP>
2.53

>  <SMR>
108.83

>  <TopoPSA(NO)>
88.83

>  <TopoPSA>
88.83

>  <JGI1>
0.17

>  <JGI2>
0.07

>  <JGI3>
0.03

>  <JGI4>
0.04

>  <JGI5>
0.02

>  <Diameter>
18

>  <Radius>
9

>  <TMWC10>
132.23

>  <TSRW10>
62.71

>  <MW>
379.2

>  <AMW>
7.15

>  <WPath>
2649

>  <WPol>
39

>  <Zagreb1>
138

>  <Zagreb2>
156

>  <mZagreb2>
6.39

>  <yes>


>  <nAR-cont>
0.816016

>  <nHA-cont>
0.82432561

>  <MWHBN>
0.359471013

>  <MWHBN-cont>
0.634442399

>  <TPSA-cont>
0.37991144

>  <pka_cont>
0.97

>  <yes.1>


>  <BBB_SCORE>
3.836828088

>  <MMFF94 Energy>
-69.061

$$$$
Compound 2913
Actelion Java MolfileCreator 2.0

  0  0  0  0  0  0              0 V3000
M  V30 BEGIN CTAB
M  V30 COUNTS 44 46 0 0 0
M  V30 BEGIN ATOM
M  V30 1 O -1.4221 3.1624 3.3999 0
M  V30 2 C -1.0546 2.406 2.5036 0
M  V30 3 N -0.4593 2.7913 1.3332 0
M  V30 4 N -1.1949 1.0598 2.6981 0
M  V30 5 C -0.3408 4.1042 0.8403 0
M  V30 6 C -1.1563 -0.0046 1.8503 0
M  V30 7 C -1.1937 5.1411 1.2245 0
M  V30 8 C 0.6514 4.355 -0.1146 0
M  V30 9 O -1.1893 -1.2809 2.4309 0
M  V30 10 C -1.1424 -0.0633 0.5204 0
M  V30 11 C -1.0437 6.418 0.6762 0
M  V30 12 C 0.8007 5.6317 -0.6623 0
M  V30 13 N -1.1319 -2.1857 1.2555 0
M  V30 14 N -1.1384 -1.3679 0.103 0
M  V30 15 C -0.0465 6.6637 -0.2651 0
M  V30 16 C -1.0295 -1.8653 -1.2703 0 CFG=1
M  V30 17 C 0.4348 -1.914 -1.7597 0
M  V30 18 C -1.7845 -3.1809 -1.462 0
M  V30 19 C 1.2953 -3.0467 -1.2489 0
M  V30 20 C 1.8906 -2.9773 0.0168 0
M  V30 21 C 1.5183 -4.184 -2.0389 0
M  V30 22 C 2.687 -4.0231 0.4859 0
M  V30 23 C 2.3166 -5.2287 -1.5695 0
M  V30 24 C 2.9005 -5.1482 -0.3071 0
M  V30 25 H 0.1233 2.0926 0.8988 0
M  V30 26 H -1.4243 0.8381 3.6593 0
M  V30 27 H -1.9881 4.9783 1.9479 0
M  V30 28 H 1.3254 3.5666 -0.4377 0
M  V30 29 H -1.1661 0.7295 -0.2097 0
M  V30 30 H -1.7091 7.2194 0.9876 0
M  V30 31 H 1.579 5.8207 -1.3969 0
M  V30 32 H -2.0354 -2.6565 1.3526 0
M  V30 33 H 0.0688 7.6583 -0.688 0
M  V30 34 H -1.5375 -1.1289 -1.9091 0
M  V30 35 H 0.9374 -0.9657 -1.5251 0
M  V30 36 H 0.4245 -1.9634 -2.8574 0
M  V30 37 H -2.839 -3.0624 -1.188 0
M  V30 38 H -1.7451 -3.5 -2.5087 0
M  V30 39 H -1.3766 -3.9887 -0.8456 0
M  V30 40 H 1.7258 -2.1098 0.6527 0
M  V30 41 H 1.0713 -4.2658 -3.0268 0
M  V30 42 H 3.1358 -3.9592 1.4736 0
M  V30 43 H 2.4822 -6.1062 -2.1888 0
M  V30 44 H 3.5196 -5.9622 0.0598 0
M  V30 END ATOM
M  V30 BEGIN BOND
M  V30 1 2 1 2
M  V30 2 1 2 3
M  V30 3 1 2 4
M  V30 4 1 3 5
M  V30 5 1 4 6
M  V30 6 2 5 7
M  V30 7 1 5 8
M  V30 8 1 6 9
M  V30 9 2 6 10
M  V30 10 1 7 11
M  V30 11 2 8 12
M  V30 12 1 9 13
M  V30 13 1 10 14
M  V30 14 2 11 15
M  V30 15 1 14 16
M  V30 16 1 16 17
M  V30 17 1 16 18
M  V30 18 1 17 19
M  V30 19 2 19 20
M  V30 20 1 19 21
M  V30 21 1 20 22
M  V30 22 2 21 23
M  V30 23 2 22 24
M  V30 24 1 12 15
M  V30 25 1 13 14
M  V30 26 1 23 24
M  V30 27 1 3 25
M  V30 28 1 4 26
M  V30 29 1 7 27
M  V30 30 1 8 28
M  V30 31 1 10 29
M  V30 32 1 11 30
M  V30 33 1 12 31
M  V30 34 1 13 32
M  V30 35 1 15 33
M  V30 36 1 16 34
M  V30 37 1 17 35
M  V30 38 1 17 36
M  V30 39 1 18 37
M  V30 40 1 18 38
M  V30 41 1 18 39
M  V30 42 1 20 40
M  V30 43 1 21 41
M  V30 44 1 22 42
M  V30 45 1 23 43
M  V30 46 1 24 44
M  V30 END BOND
M  V30 BEGIN COLLECTION
M  V30 MDLV30/STEABS ATOMS=(1 16)
M  V30 END COLLECTION
M  V30 END CTAB
M  END
>  <Column 1>
3738

>  <level_0>
6600

>  <index>
6601

>  <Unnamed: 0>
6601

>  <NO.>
6613

>  <Name>


>  <IUPAC_name>


>  <SMILES>
C[C@H](Cc1ccccc1)N1C=C(NC(=O)Nc2ccccc2)ON1

>  <CID>


>  <logBB>


>  <BBB+/BBB->
BBB+

>  <Inchi>
InChI=1S/C18H20N4O2/c1-14(12-15-8-4-2-5-9-15)22-13-17(24-21-22)20-18(23)19-16-10-6-3-7-11-16/h2-11-13-14-21H-12H2-1H3-(H2-19-20-23)/t14-/m1/s1

>  <threshold>


>  <reference>
R24|

>  <group>
C

>  <Class>
1

>  <ABC>
18.56

>  <ABCGG>
14.62

>  <nAcid>
0

>  <nBase>
0

>  <nAromAtom>
12

>  <nAromBond>
12

>  <nAtom>
44

>  <nHeavyAtom>
24

>  <nSpiro>
0

>  <nBridgehead>
0

>  <nHetero>
6

>  <nN>
4

>  <nO>
2

>  <nF>
0

>  <BalabanJ>
1.34

>  <BertzCT>
703.47

>  <nBonds>
46

>  <nBondsO>
26

>  <nBondsS>
32

>  <nBondsD>
2

>  <nBondsT>
0

>  <nBondsA>
12

>  <nBondsM>
14

>  <nBondsKS>
38

>  <nBondsKD>
8

>  <RNCG>
0.17

>  <RPCG>
0.15

>  <FCSP3>
0.17

>  <SZ>
28.67

>  <Sm>
27.01

>  <Sv>
27.88

>  <Sse>
44.19

>  <Sp>
29.58

>  <Si>
49.73

>  <MZ>
0.65

>  <Mm>
0.61

>  <Mv>
0.63

>  <Mse>
1

>  <Mp>
0.67

>  <Mi>
1.13

>  <NsCH3>
1

>  <NdCH2>
0

>  <NssCH2>
1

>  <NtCH>
0

>  <NdsCH>
1

>  <NaaCH>
10

>  <NsssCH>
1

>  <NddC>
0

>  <NtsC>
0

>  <NdssC>
2

>  <NaasC>
2

>  <NaaaC>
0

>  <NssssC>
0

>  <NsNH3>
0

>  <NsNH2>
0

>  <NssNH2>
0

>  <NdNH>
0

>  <NssNH>
3

>  <NaaNH>
0

>  <NtN>
0

>  <NsssNH>
0

>  <NdsN>
0

>  <NaaN>
0

>  <NsssN>
1

>  <NddsN>
0

>  <NaasN>
0

>  <NssssN>
0

>  <NsOH>
0

>  <NdO>
1

>  <NssO>
1

>  <NaaO>
0

>  <NsF>
0

>  <NsSiH3>
0

>  <NssSiH2>
0

>  <NsssSiH>
0

>  <NssssSi>
0

>  <NsPH2>
0

>  <NssPH>
0

>  <NsssP>
0

>  <NdsssP>
0

>  <NsssssP>
0

>  <NsSH>
0

>  <NdS>
0

>  <NssS>
0

>  <NaaS>
0

>  <NdssS>
0

>  <NddssS>
0

>  <NsCl>
0

>  <NsBr>
0

>  <NsI>
0

>  <fragCpx>
124.06

>  <fMF>
0.5

>  <nHBAcc>
4

>  <nHBDon>
3

>  <Kier1>
18.78

>  <Kier2>
9.63

>  <Lipinski>
1

>  <GhoseFilter>
1

>  <FilterItLogS>
-3.7

>  <VMcGowan>
249.16

>  <LabuteASA>
140.59

>  <PEOE_VSA1>
10.15

>  <PEOE_VSA2>
10.33

>  <PEOE_VSA3>
4.79

>  <PEOE_VSA4>
0

>  <PEOE_VSA5>
0

>  <PEOE_VSA6>
54.12

>  <PEOE_VSA7>
31.04

>  <PEOE_VSA8>
11.73

>  <PEOE_VSA9>
6.2

>  <PEOE_VSA10>
0

>  <PEOE_VSA11>
0

>  <PEOE_VSA12>
5.88

>  <PEOE_VSA13>
0

>  <SMR_VSA1>
9.63

>  <SMR_VSA2>
0

>  <SMR_VSA3>
15.91

>  <SMR_VSA4>
0

>  <SMR_VSA5>
19.39

>  <SMR_VSA6>
5.32

>  <SMR_VSA7>
78.31

>  <SMR_VSA8>
0

>  <SMR_VSA9>
0

>  <SlogP_VSA1>
16.22

>  <SlogP_VSA2>
17.08

>  <SlogP_VSA3>
11.26

>  <SlogP_VSA4>
0

>  <SlogP_VSA5>
12.49

>  <SlogP_VSA6>
72.75

>  <SlogP_VSA7>
0

>  <SlogP_VSA8>
0

>  <SlogP_VSA9>
0

>  <SlogP_VSA10>
10.48

>  <SlogP_VSA11>
0

>  <EState_VSA1>
0

>  <EState_VSA2>
12.07

>  <EState_VSA3>
5.88

>  <EState_VSA4>
12.11

>  <EState_VSA5>
5.56

>  <EState_VSA6>
6.2

>  <EState_VSA7>
53.54

>  <EState_VSA8>
35.28

>  <EState_VSA9>
4.84

>  <EState_VSA10>
4.79

>  <VSA_EState1>
0

>  <VSA_EState2>
17.24

>  <VSA_EState3>
7.22

>  <VSA_EState4>
4.75

>  <VSA_EState5>
0.35

>  <VSA_EState6>
19.26

>  <VSA_EState7>
2.59

>  <VSA_EState8>
2.08

>  <VSA_EState9>
0

>  <apol>
49.4

>  <bpol>
23.81

>  <nRing>
3

>  <nHRing>
1

>  <naRing>
2

>  <naHRing>
0

>  <nARing 2>
1

>  <nAHRing 2>
1

>  <nFRing>
0

>  <nFHRing>
0

>  <nFaRing>
0

>  <nFaHRing>
0

>  <nFARing 2>
0

>  <nFAHRing 2>
0

>  <nRot>
5

>  <SLogP>
2.99

>  <SMR>
92.35

>  <TopoPSA(NO)>
65.63

>  <TopoPSA>
65.63

>  <JGI1>
0.17

>  <JGI2>
0.05

>  <JGI3>
0.04

>  <JGI4>
0.04

>  <JGI5>
0.02

>  <Diameter>
15

>  <Radius>
8

>  <TMWC10>
122.96

>  <TSRW10>
71.44

>  <MW>
324.16

>  <AMW>
7.37

>  <WPath>
1597

>  <WPol>
30

>  <Zagreb1>
120

>  <Zagreb2>
135

>  <mZagreb2>
5.36

>  <yes>


>  <nAR-cont>
0.816016

>  <nHA-cont>
0.94700071

>  <MWHBN>
0.388792902

>  <MWHBN-cont>
0.520219675

>  <TPSA-cont>
0.541861846

>  <pka_cont>
0.97

>  <yes.1>


>  <BBB_SCORE>
4.112069915

>  <MMFF94 Energy>
29.675

$$$$
Compound 2914
Actelion Java MolfileCreator 2.0

  0  0  0  0  0  0              0 V3000
M  V30 BEGIN CTAB
M  V30 COUNTS 82 85 0 0 0
M  V30 BEGIN ATOM
M  V30 1 S 2.3954 0.7181 -3.0349 0
M  V30 2 C 2.3598 1.6305 -4.5666 0
M  V30 3 C 0.6376 0.2233 -2.9304 0
M  V30 4 C 2.0021 1.0167 -5.7711 0
M  V30 5 C 2.7251 2.98 -4.567 0
M  V30 6 C 0.2475 -0.5553 -1.6484 0 CFG=2
M  V30 7 C 1.9871 1.7513 -6.9587 0
M  V30 8 C 2.7097 3.7141 -5.7551 0
M  V30 9 N -1.1379 -1.0173 -1.8064 0
M  V30 10 C 0.4368 0.2682 -0.3326 0 CFG=2
M  V30 11 C 2.3376 3.1002 -6.9496 0
M  V30 12 C -1.4388 -2.1805 -2.4811 0
M  V30 13 O 1.8294 0.5087 -0.0765 0
M  V30 14 C -0.1736 -0.4719 0.8985 0
M  V30 15 O -0.6032 -2.93 -2.9663 0
M  V30 16 C -2.8807 -2.5122 -2.5513 0
M  V30 17 N -0.1464 0.1889 2.2218 0
M  V30 18 C -3.8355 -1.6422 -3.1115 0
M  V30 19 C -3.2595 -3.7521 -2.0168 0
M  V30 20 C 1.1917 0.3192 2.8612 0 CFG=2
M  V30 21 C -0.8408 1.483 2.1983 0
M  V30 22 C -5.1815 -2.0284 -3.0463 0
M  V30 23 C -3.4554 -0.3357 -3.7514 0
M  V30 24 C -4.6023 -4.1205 -1.9905 0
M  V30 25 C 1.9506 -1.0321 2.9204 0
M  V30 26 C 1.035 0.8393 4.3048 0
M  V30 27 C -1.0646 2.0612 3.6056 0 CFG=2
M  V30 28 O -6.1331 -1.1773 -3.537 0
M  V30 29 C -5.5676 -3.2525 -2.4958 0
M  V30 30 O 1.8774 -1.8212 3.8594 0
M  V30 31 N 2.7334 -1.2696 1.8078 0
M  V30 32 C 0.2753 2.1732 4.3544 0 CFG=1
M  V30 33 C -2.1047 1.2488 4.3974 0
M  V30 34 C 3.5485 -2.459 1.6462 0
M  V30 35 C 0.0749 2.6714 5.7929 0
M  V30 36 C -2.2958 1.8041 5.8061 0
M  V30 37 C 3.645 -2.8287 0.1696 0
M  V30 38 C 4.9339 -2.2359 2.2445 0
M  V30 39 C -0.9772 1.8811 6.567 0
M  V30 40 H 0.0189 1.1257 -3.0067 0
M  V30 41 H 0.411 -0.3938 -3.8066 0
M  V30 42 H 1.7447 -0.0391 -5.8018 0
M  V30 43 H 3.0255 3.4725 -3.6455 0
M  V30 44 H 0.8902 -1.4438 -1.589 0
M  V30 45 H 1.7093 1.2677 -7.8918 0
M  V30 46 H 2.9933 4.7635 -5.7487 0
M  V30 47 H -1.9017 -0.4596 -1.4409 0
M  V30 48 H -0.0543 1.2404 -0.4517 0
M  V30 49 H 2.3297 3.6704 -7.8751 0
M  V30 50 H 2.216 0.896 -0.8873 0
M  V30 51 H -1.2321 -0.675 0.6949 0
M  V30 52 H 0.2752 -1.468 0.9803 0
M  V30 53 H -2.5053 -4.4247 -1.6124 0
M  V30 54 H 1.8098 1.0408 2.3131 0
M  V30 55 H -0.2714 2.2122 1.6077 0
M  V30 56 H -1.8186 1.3751 1.7117 0
M  V30 57 H -3.4669 0.4663 -3.0072 0
M  V30 58 H -4.1442 -0.0717 -4.5607 0
M  V30 59 H -2.4629 -0.3877 -4.2098 0
M  V30 60 H -4.8944 -5.0793 -1.5694 0
M  V30 61 H 2.029 0.9702 4.7523 0
M  V30 62 H 0.5259 0.0861 4.9186 0
M  V30 63 H -1.4685 3.0762 3.4839 0
M  V30 64 H -7.0048 -1.6001 -3.4614 0
M  V30 65 H -6.6123 -3.5473 -2.4569 0
M  V30 66 H 2.6958 -0.579 1.0569 0
M  V30 67 H 0.8946 2.9178 3.8347 0
M  V30 68 H -1.811 0.1947 4.4638 0
M  V30 69 H -3.0667 1.2708 3.8712 0
M  V30 70 H 3.0649 -3.2841 2.1822 0
M  V30 71 H -0.237 3.7234 5.7574 0
M  V30 72 H 1.0261 2.6486 6.3375 0
M  V30 73 H -2.7413 2.8048 5.7459 0
M  V30 74 H -3.003 1.1743 6.3575 0
M  V30 75 H 4.1114 -2.0262 -0.4126 0
M  V30 76 H 2.6485 -3.003 -0.2507 0
M  V30 77 H 4.2357 -3.7398 0.0317 0
M  V30 78 H 5.5538 -3.1322 2.1403 0
M  V30 79 H 5.4492 -1.4038 1.752 0
M  V30 80 H 4.865 -1.9947 3.3109 0
M  V30 81 H -0.6107 0.8687 6.7712 0
M  V30 82 H -1.1448 2.3545 7.5414 0
M  V30 END ATOM
M  V30 BEGIN BOND
M  V30 1 1 1 2
M  V30 2 1 1 3
M  V30 3 2 2 4
M  V30 4 1 2 5
M  V30 5 1 3 6
M  V30 6 1 4 7
M  V30 7 2 5 8
M  V30 8 1 6 9
M  V30 9 1 6 10
M  V30 10 2 7 11
M  V30 11 1 9 12
M  V30 12 1 10 13
M  V30 13 1 10 14
M  V30 14 2 12 15
M  V30 15 1 12 16
M  V30 16 1 14 17
M  V30 17 2 16 18
M  V30 18 1 16 19
M  V30 19 1 17 20
M  V30 20 1 17 21
M  V30 21 1 18 22
M  V30 22 1 18 23
M  V30 23 2 19 24
M  V30 24 1 20 25
M  V30 25 1 20 26
M  V30 26 1 21 27
M  V30 27 1 22 28
M  V30 28 2 22 29
M  V30 29 2 25 30
M  V30 30 1 25 31
M  V30 31 1 26 32
M  V30 32 1 27 33
M  V30 33 1 31 34
M  V30 34 1 32 35
M  V30 35 1 33 36
M  V30 36 1 34 37
M  V30 37 1 34 38
M  V30 38 1 35 39
M  V30 39 1 8 11
M  V30 40 1 24 29
M  V30 41 1 27 32
M  V30 42 1 36 39
M  V30 43 1 3 40
M  V30 44 1 3 41
M  V30 45 1 4 42
M  V30 46 1 5 43
M  V30 47 1 6 44
M  V30 48 1 7 45
M  V30 49 1 8 46
M  V30 50 1 9 47
M  V30 51 1 10 48
M  V30 52 1 11 49
M  V30 53 1 13 50
M  V30 54 1 14 51
M  V30 55 1 14 52
M  V30 56 1 19 53
M  V30 57 1 20 54
M  V30 58 1 21 55
M  V30 59 1 21 56
M  V30 60 1 23 57
M  V30 61 1 23 58
M  V30 62 1 23 59
M  V30 63 1 24 60
M  V30 64 1 26 61
M  V30 65 1 26 62
M  V30 66 1 27 63
M  V30 67 1 28 64
M  V30 68 1 29 65
M  V30 69 1 31 66
M  V30 70 1 32 67
M  V30 71 1 33 68
M  V30 72 1 33 69
M  V30 73 1 34 70
M  V30 74 1 35 71
M  V30 75 1 35 72
M  V30 76 1 36 73
M  V30 77 1 36 74
M  V30 78 1 37 75
M  V30 79 1 37 76
M  V30 80 1 37 77
M  V30 81 1 38 78
M  V30 82 1 38 79
M  V30 83 1 38 80
M  V30 84 1 39 81
M  V30 85 1 39 82
M  V30 END BOND
M  V30 BEGIN COLLECTION
M  V30 MDLV30/STEABS ATOMS=(5 6 10 20 27 32)
M  V30 END COLLECTION
M  V30 END CTAB
M  END
>  <Column 1>
3740

>  <level_0>
6644

>  <index>
6645

>  <Unnamed: 0>
6645

>  <NO.>
6657

>  <Name>


>  <IUPAC_name>


>  <SMILES>
Cc1c(O)cccc1C(=O)N[C@@H](CSc1ccccc1)[C@H](O)CN1C[C@H]2CCCC[C@H]2C[C@H]1C(=O)NC(C)C

>  <CID>


>  <logBB>


>  <BBB+/BBB->
BBB-

>  <Inchi>
InChI=1S/C31H43N3O4S/c1-20(2)32-31(38)27-16-22-10-7-8-11-23(22)17-34(27)18-29(36)26(19-39-24-12-5-4-6-13-24)33-30(37)25-14-9-15-28(35)21(25)3/h4-6-9-12-15-20-22-23-26-27-29-35-36H-7-8-10-11-16-19H2-1-3H3-(H-32-38)(H-33-37)/t22--23+-26--27--29+/m0/s1

>  <threshold>


>  <reference>
R24|

>  <group>
C

>  <Class>
-1

>  <ABC>
30.18

>  <ABCGG>
23.35

>  <nAcid>
0

>  <nBase>
1

>  <nAromAtom>
12

>  <nAromBond>
12

>  <nAtom>
82

>  <nHeavyAtom>
39

>  <nSpiro>
0

>  <nBridgehead>
0

>  <nHetero>
8

>  <nN>
3

>  <nO>
4

>  <nF>
0

>  <BalabanJ>
1.45

>  <BertzCT>
1112.27

>  <nBonds>
85

>  <nBondsO>
42

>  <nBondsS>
71

>  <nBondsD>
2

>  <nBondsT>
0

>  <nBondsA>
12

>  <nBondsM>
14

>  <nBondsKS>
77

>  <nBondsKD>
8

>  <RNCG>
0.15

>  <RPCG>
0.09

>  <FCSP3>
0.55

>  <SZ>
49.67

>  <Sm>
46.1

>  <Sv>
48.97

>  <Sse>
81.48

>  <Sp>
53.8

>  <Si>
92.56

>  <MZ>
0.61

>  <Mm>
0.56

>  <Mv>
0.6

>  <Mse>
0.99

>  <Mp>
0.66

>  <Mi>
1.13

>  <NsCH3>
3

>  <NdCH2>
0

>  <NssCH2>
8

>  <NtCH>
0

>  <NdsCH>
0

>  <NaaCH>
8

>  <NsssCH>
6

>  <NddC>
0

>  <NtsC>
0

>  <NdssC>
2

>  <NaasC>
4

>  <NaaaC>
0

>  <NssssC>
0

>  <NsNH3>
0

>  <NsNH2>
0

>  <NssNH2>
0

>  <NdNH>
0

>  <NssNH>
2

>  <NaaNH>
0

>  <NtN>
0

>  <NsssNH>
0

>  <NdsN>
0

>  <NaaN>
0

>  <NsssN>
1

>  <NddsN>
0

>  <NaasN>
0

>  <NssssN>
0

>  <NsOH>
2

>  <NdO>
2

>  <NssO>
0

>  <NaaO>
0

>  <NsF>
0

>  <NsSiH3>
0

>  <NssSiH2>
0

>  <NsssSiH>
0

>  <NssssSi>
0

>  <NsPH2>
0

>  <NssPH>
0

>  <NsssP>
0

>  <NdsssP>
0

>  <NsssssP>
0

>  <NsSH>
0

>  <NdS>
0

>  <NssS>
1

>  <NaaS>
0

>  <NdssS>
0

>  <NddssS>
0

>  <NsCl>
0

>  <NsBr>
0

>  <NsI>
0

>  <fragCpx>
282.08

>  <fMF>
0.35

>  <nHBAcc>
6

>  <nHBDon>
4

>  <Kier1>
31.93

>  <Kier2>
15.46

>  <Lipinski>
0

>  <GhoseFilter>
0

>  <FilterItLogS>
-5.68

>  <VMcGowan>
439.58

>  <LabuteASA>
236.3

>  <PEOE_VSA1>
20.85

>  <PEOE_VSA2>
14.49

>  <PEOE_VSA3>
0

>  <PEOE_VSA4>
0

>  <PEOE_VSA5>
11.76

>  <PEOE_VSA6>
43.53

>  <PEOE_VSA7>
69.71

>  <PEOE_VSA8>
40.91

>  <PEOE_VSA9>
18.19

>  <PEOE_VSA10>
5.75

>  <PEOE_VSA11>
0

>  <PEOE_VSA12>
5.91

>  <PEOE_VSA13>
5.91

>  <SMR_VSA1>
19.8

>  <SMR_VSA2>
0

>  <SMR_VSA3>
15.53

>  <SMR_VSA4>
11.84

>  <SMR_VSA5>
82

>  <SMR_VSA6>
18.84

>  <SMR_VSA7>
59.66

>  <SMR_VSA8>
0

>  <SMR_VSA9>
5.75

>  <SlogP_VSA1>
10.63

>  <SlogP_VSA2>
70

>  <SlogP_VSA3>
4.79

>  <SlogP_VSA4>
18.76

>  <SlogP_VSA5>
61.87

>  <SlogP_VSA6>
53.43

>  <SlogP_VSA7>
0

>  <SlogP_VSA8>
0

>  <SlogP_VSA9>
0

>  <SlogP_VSA10>
0

>  <SlogP_VSA11>
5.75

>  <EState_VSA1>
12.15

>  <EState_VSA2>
29.65

>  <EState_VSA3>
35.26

>  <EState_VSA4>
24.28

>  <EState_VSA5>
19.26

>  <EState_VSA6>
36.88

>  <EState_VSA7>
44.18

>  <EState_VSA8>
15.53

>  <EState_VSA9>
0

>  <EState_VSA10>
19.8

>  <VSA_EState1>
0

>  <VSA_EState2>
29.76

>  <VSA_EState3>
27.84

>  <VSA_EState4>
0.89

>  <VSA_EState5>
1.31

>  <VSA_EState6>
14

>  <VSA_EState7>
4.71

>  <VSA_EState8>
6.74

>  <VSA_EState9>
0

>  <apol>
89.85

>  <bpol>
50.18

>  <nRing>
4

>  <nHRing>
1

>  <naRing>
2

>  <naHRing>
0

>  <nARing 2>
2

>  <nAHRing 2>
1

>  <nFRing>
1

>  <nFHRing>
1

>  <nFaRing>
0

>  <nFaHRing>
0

>  <nFARing 2>
1

>  <nFAHRing 2>
1

>  <nRot>
10

>  <SLogP>
4.36

>  <SMR>
155.98

>  <TopoPSA(NO)>
101.9

>  <TopoPSA>
127.2

>  <JGI1>
0.19

>  <JGI2>
0.08

>  <JGI3>
0.04

>  <JGI4>
0.04

>  <JGI5>
0.03

>  <Diameter>
14

>  <Radius>
7

>  <TMWC10>
159.75

>  <TSRW10>
75.83

>  <MW>
553.3

>  <AMW>
6.75

>  <WPath>
5064

>  <WPol>
62

>  <Zagreb1>
200

>  <Zagreb2>
232

>  <mZagreb2>
8.61

>  <yes>


>  <nAR-cont>
1

>  <nHA-cont>
0.348277641

>  <MWHBN>
0.425127956

>  <MWHBN-cont>
0.378258978

>  <TPSA-cont>
0

>  <pka_cont>
0.97

>  <yes.1>


>  <BBB_SCORE>
2.400666107

>  <MMFF94 Energy>
107.47

$$$$
Compound 2915
Actelion Java MolfileCreator 2.0

  0  0  0  0  0  0              0 V3000
M  V30 BEGIN CTAB
M  V30 COUNTS 24 25 0 0 0
M  V30 BEGIN ATOM
M  V30 1 Cl 1.1698 2.1733 -1.7551 0
M  V30 2 C 0.7798 0.5591 -2.2392 0
M  V30 3 C -0.08 -0.2557 -1.4818 0
M  V30 4 C 1.3511 0.0834 -3.4231 0
M  V30 5 C -0.7024 0.1912 -0.225 0
M  V30 6 C -0.353 -1.5575 -1.9359 0
M  V30 7 C 1.0669 -1.2091 -3.8558 0
M  V30 8 Cl -2.3344 0.7306 -0.3675 0
M  V30 9 C -0.016 0.1436 0.9287 0
M  V30 10 C 0.2182 -2.0319 -3.119 0
M  V30 11 Cl 1.7707 -1.7962 -5.3114 0
M  V30 12 N -0.3311 0.4732 2.2283 0
M  V30 13 N 0.4642 0.3743 3.3173 0
M  V30 14 C -1.6101 0.9808 2.7552 0
M  V30 15 C -0.2287 0.7833 4.41 0
M  V30 16 N -1.4652 1.1633 4.2451 0
M  V30 17 H 2.0131 0.7192 -4.0054 0
M  V30 18 H -1.0174 -2.2091 -1.3697 0
M  V30 19 H 1.0085 -0.2226 0.886 0
M  V30 20 H -0.0045 -3.0405 -3.459 0
M  V30 21 H 1.4519 0.1537 3.2971 0
M  V30 22 H -1.8578 1.9517 2.3126 0
M  V30 23 H -2.4194 0.2651 2.575 0
M  V30 24 H 0.3051 0.7678 5.372 0
M  V30 END ATOM
M  V30 BEGIN BOND
M  V30 1 1 1 2
M  V30 2 2 2 3
M  V30 3 1 2 4
M  V30 4 1 3 5
M  V30 5 1 3 6
M  V30 6 2 4 7
M  V30 7 1 5 8
M  V30 8 2 5 9
M  V30 9 2 6 10
M  V30 10 1 7 11
M  V30 11 1 9 12
M  V30 12 1 12 13
M  V30 13 1 12 14
M  V30 14 1 13 15
M  V30 15 1 14 16
M  V30 16 1 7 10
M  V30 17 2 15 16
M  V30 18 1 4 17
M  V30 19 1 6 18
M  V30 20 1 9 19
M  V30 21 1 10 20
M  V30 22 1 13 21
M  V30 23 1 14 22
M  V30 24 1 14 23
M  V30 25 1 15 24
M  V30 END BOND
M  V30 END CTAB
M  END
>  <Column 1>
3742

>  <level_0>
6665

>  <index>
6666

>  <Unnamed: 0>
6666

>  <NO.>
6678

>  <Name>


>  <IUPAC_name>


>  <SMILES>
Cl/C(=C\N1CN=CN1)c1ccc(Cl)cc1Cl

>  <CID>


>  <logBB>


>  <BBB+/BBB->
BBB+

>  <Inchi>
InChI=1S/C10H8Cl3N3/c11-7-1-2-8(9(12)3-7)10(13)4-16-6-14-5-15-16/h1-5H-6H2-(H-14-15)/b10-4-

>  <threshold>


>  <reference>
R24|

>  <group>
C

>  <Class>
1

>  <ABC>
12.27

>  <ABCGG>
11.06

>  <nAcid>
0

>  <nBase>
2

>  <nAromAtom>
6

>  <nAromBond>
6

>  <nAtom>
24

>  <nHeavyAtom>
16

>  <nSpiro>
0

>  <nBridgehead>
0

>  <nHetero>
6

>  <nN>
3

>  <nO>
0

>  <nF>
0

>  <BalabanJ>
1.81

>  <BertzCT>
448.62

>  <nBonds>
25

>  <nBondsO>
17

>  <nBondsS>
17

>  <nBondsD>
2

>  <nBondsT>
0

>  <nBondsA>
6

>  <nBondsM>
8

>  <nBondsKS>
20

>  <nBondsKD>
5

>  <RNCG>
0.24

>  <RPCG>
0.16

>  <FCSP3>
0.1

>  <SZ>
23.33

>  <Sm>
23.02

>  <Sv>
17.71

>  <Sse>
24.84

>  <Sp>
19.09

>  <Si>
26.99

>  <MZ>
0.97

>  <Mm>
0.96

>  <Mv>
0.74

>  <Mse>
1.03

>  <Mp>
0.8

>  <Mi>
1.12

>  <NsCH3>
0

>  <NdCH2>
0

>  <NssCH2>
1

>  <NtCH>
0

>  <NdsCH>
2

>  <NaaCH>
3

>  <NsssCH>
0

>  <NddC>
0

>  <NtsC>
0

>  <NdssC>
1

>  <NaasC>
3

>  <NaaaC>
0

>  <NssssC>
0

>  <NsNH3>
0

>  <NsNH2>
0

>  <NssNH2>
0

>  <NdNH>
0

>  <NssNH>
1

>  <NaaNH>
0

>  <NtN>
0

>  <NsssNH>
0

>  <NdsN>
1

>  <NaaN>
0

>  <NsssN>
1

>  <NddsN>
0

>  <NaasN>
0

>  <NssssN>
0

>  <NsOH>
0

>  <NdO>
0

>  <NssO>
0

>  <NaaO>
0

>  <NsF>
0

>  <NsSiH3>
0

>  <NssSiH2>
0

>  <NsssSiH>
0

>  <NssssSi>
0

>  <NsPH2>
0

>  <NssPH>
0

>  <NsssP>
0

>  <NdsssP>
0

>  <NsssssP>
0

>  <NsSH>
0

>  <NdS>
0

>  <NssS>
0

>  <NaaS>
0

>  <NdssS>
0

>  <NddssS>
0

>  <NsCl>
3

>  <NsBr>
0

>  <NsI>
0

>  <fragCpx>
49.06

>  <fMF>
0.54

>  <nHBAcc>
3

>  <nHBDon>
1

>  <Kier1>
12.46

>  <Kier2>
5.56

>  <Lipinski>
1

>  <GhoseFilter>
1

>  <FilterItLogS>
-3.63

>  <VMcGowan>
175.2

>  <LabuteASA>
108.28

>  <PEOE_VSA1>
0

>  <PEOE_VSA2>
15.43

>  <PEOE_VSA3>
0

>  <PEOE_VSA4>
0

>  <PEOE_VSA5>
0

>  <PEOE_VSA6>
40.87

>  <PEOE_VSA7>
12.13

>  <PEOE_VSA8>
16.79

>  <PEOE_VSA9>
10.05

>  <PEOE_VSA10>
13.01

>  <PEOE_VSA11>
0

>  <PEOE_VSA12>
0

>  <PEOE_VSA13>
0

>  <SMR_VSA1>
0

>  <SMR_VSA2>
0

>  <SMR_VSA3>
10.43

>  <SMR_VSA4>
4.99

>  <SMR_VSA5>
0

>  <SMR_VSA6>
6.67

>  <SMR_VSA7>
40.01

>  <SMR_VSA8>
0

>  <SMR_VSA9>
0

>  <SlogP_VSA1>
5.43

>  <SlogP_VSA2>
18.02

>  <SlogP_VSA3>
0

>  <SlogP_VSA4>
0

>  <SlogP_VSA5>
5.56

>  <SlogP_VSA6>
29.39

>  <SlogP_VSA7>
10.05

>  <SlogP_VSA8>
5.03

>  <SlogP_VSA9>
0

>  <SlogP_VSA10>
0

>  <SlogP_VSA11>
0

>  <EState_VSA1>
0

>  <EState_VSA2>
0

>  <EState_VSA3>
21.75

>  <EState_VSA4>
5.56

>  <EState_VSA5>
0

>  <EState_VSA6>
35.75

>  <EState_VSA7>
0

>  <EState_VSA8>
10.42

>  <EState_VSA9>
34.8

>  <EState_VSA10>
0

>  <VSA_EState1>
0

>  <VSA_EState2>
3.98

>  <VSA_EState3>
3.38

>  <VSA_EState4>
3.64

>  <VSA_EState5>
0

>  <VSA_EState6>
5.18

>  <VSA_EState7>
3.33

>  <VSA_EState8>
0.53

>  <VSA_EState9>
0

>  <apol>
31.87

>  <bpol>
11.84

>  <nRing>
2

>  <nHRing>
1

>  <naRing>
1

>  <naHRing>
0

>  <nARing 2>
1

>  <nAHRing 2>
1

>  <nFRing>
0

>  <nFHRing>
0

>  <nFaRing>
0

>  <nFaHRing>
0

>  <nFARing 2>
0

>  <nFAHRing 2>
0

>  <nRot>
2

>  <SLogP>
3.34

>  <SMR>
68.63

>  <TopoPSA(NO)>
27.63

>  <TopoPSA>
27.63

>  <JGI1>
0.21

>  <JGI2>
0.08

>  <JGI3>
0.06

>  <JGI4>
0.04

>  <JGI5>
0.03

>  <Diameter>
9

>  <Radius>
5

>  <TMWC10>
102.72

>  <TSRW10>
61.14

>  <MW>
274.98

>  <AMW>
11.46

>  <WPath>
456

>  <WPol>
20

>  <Zagreb1>
80

>  <Zagreb2>
91

>  <mZagreb2>
3.56

>  <yes>


>  <nAR-cont>
0.816016

>  <nHA-cont>
0.954961865

>  <MWHBN>
0.241217847

>  <MWHBN-cont>
0.973295548

>  <TPSA-cont>
0.807125443

>  <pka_cont>
0.97

>  <yes.1>


>  <BBB_SCORE>
5.330172073

>  <MMFF94 Energy>
53.652

$$$$
Compound 2916
Actelion Java MolfileCreator 2.0

  0  0  0  0  0  0              0 V3000
M  V30 BEGIN CTAB
M  V30 COUNTS 31 31 0 0 0
M  V30 BEGIN ATOM
M  V30 1 S -2.2629 2.8097 0.6238 0
M  V30 2 C -0.8881 3.2956 1.5266 0
M  V30 3 C -1.81 1.1698 0.836 0
M  V30 4 N -0.1316 2.3223 1.9658 0
M  V30 5 N -0.6261 4.5858 1.7568 0
M  V30 6 C -0.6409 1.0922 1.5684 0
M  V30 7 C 0.0276 -0.1529 1.9408 0
M  V30 8 C -0.2 -1.3593 1.2577 0
M  V30 9 C 0.9329 -0.1504 3.0106 0
M  V30 10 C 0.4567 -2.5392 1.6264 0
M  V30 11 C 1.5773 -1.3244 3.3996 0
M  V30 12 N 0.1922 -3.7274 0.9674 0
M  V30 13 C 1.3307 -2.5135 2.714 0
M  V30 14 N 0.4108 -0.0634 -5.645 0
M  V30 15 C 0.2893 -0.1387 -4.2223 0
M  V30 16 N -1.0306 0.3663 -4.0056 0
M  V30 17 H -2.4191 0.3776 0.4281 0
M  V30 18 H -1.2182 5.3276 1.4121 0
M  V30 19 H 0.1946 4.8399 2.2903 0
M  V30 20 H -0.8847 -1.3912 0.4158 0
M  V30 21 H 1.1347 0.7708 3.5542 0
M  V30 22 H 2.2684 -1.3117 4.2378 0
M  V30 23 H -0.3721 -3.7338 0.1295 0
M  V30 24 H 0.7221 -4.5587 1.1908 0
M  V30 25 H 1.8339 -3.4215 3.0345 0
M  V30 26 H 1.2214 -0.6014 -5.9414 0
M  V30 27 H -0.4029 -0.539 -6.0318 0
M  V30 28 H 0.378 -1.1673 -3.862 0
M  V30 29 H 1.0455 0.4809 -3.7322 0
M  V30 30 H -1.1534 0.5713 -3.017 0
M  V30 31 H -1.0827 1.2613 -4.4899 0
M  V30 END ATOM
M  V30 BEGIN BOND
M  V30 1 1 1 2
M  V30 2 1 1 3
M  V30 3 2 2 4
M  V30 4 1 2 5
M  V30 5 2 3 6
M  V30 6 1 6 7
M  V30 7 2 7 8
M  V30 8 1 7 9
M  V30 9 1 8 10
M  V30 10 2 9 11
M  V30 11 1 10 12
M  V30 12 2 10 13
M  V30 13 1 14 15
M  V30 14 1 15 16
M  V30 15 1 4 6
M  V30 16 1 11 13
M  V30 17 1 3 17
M  V30 18 1 5 18
M  V30 19 1 5 19
M  V30 20 1 8 20
M  V30 21 1 9 21
M  V30 22 1 11 22
M  V30 23 1 12 23
M  V30 24 1 12 24
M  V30 25 1 13 25
M  V30 26 1 14 26
M  V30 27 1 14 27
M  V30 28 1 15 28
M  V30 29 1 15 29
M  V30 30 1 16 30
M  V30 31 1 16 31
M  V30 END BOND
M  V30 END CTAB
M  END
>  <Column 1>
3746

>  <level_0>
6691

>  <index>
6692

>  <Unnamed: 0>
6692

>  <NO.>
6704

>  <Name>


>  <IUPAC_name>


>  <SMILES>
NCN.Nc1cccc(-c2csc(N)n2)c1

>  <CID>


>  <logBB>


>  <BBB+/BBB->
BBB-

>  <Inchi>
InChI=1S/C9H9N3S.CH6N2/c10-7-3-1-2-6(4-7)8-5-13-9(11)12-8;2-1-3/h1-5H-10H2-(H2-11-12);1-3H2

>  <threshold>


>  <reference>
R24|

>  <group>
C

>  <Class>
1

>  <ABC>
11.49

>  <ABCGG>
10.5

>  <nAcid>
0

>  <nBase>
2

>  <nAromAtom>
11

>  <nAromBond>
11

>  <nAtom>
31

>  <nHeavyAtom>
16

>  <nSpiro>
0

>  <nBridgehead>
0

>  <nHetero>
6

>  <nN>
5

>  <nO>
0

>  <nF>
0

>  <BalabanJ>
0

>  <BertzCT>
440.28

>  <nBonds>
31

>  <nBondsO>
16

>  <nBondsS>
20

>  <nBondsD>
0

>  <nBondsT>
0

>  <nBondsA>
11

>  <nBondsM>
11

>  <nBondsKS>
26

>  <nBondsKD>
5

>  <RNCG>
0.21

>  <RPCG>
0.09

>  <FCSP3>
0.1

>  <SZ>
21

>  <Sm>
19.76

>  <Sv>
19.04

>  <Sse>
31.05

>  <Sp>
21.02

>  <Si>
35.49

>  <MZ>
0.68

>  <Mm>
0.64

>  <Mv>
0.61

>  <Mse>
1

>  <Mp>
0.68

>  <Mi>
1.14

>  <NsCH3>
0

>  <NdCH2>
0

>  <NssCH2>
1

>  <NtCH>
0

>  <NdsCH>
0

>  <NaaCH>
5

>  <NsssCH>
0

>  <NddC>
0

>  <NtsC>
0

>  <NdssC>
0

>  <NaasC>
4

>  <NaaaC>
0

>  <NssssC>
0

>  <NsNH3>
0

>  <NsNH2>
4

>  <NssNH2>
0

>  <NdNH>
0

>  <NssNH>
0

>  <NaaNH>
0

>  <NtN>
0

>  <NsssNH>
0

>  <NdsN>
0

>  <NaaN>
1

>  <NsssN>
0

>  <NddsN>
0

>  <NaasN>
0

>  <NssssN>
0

>  <NsOH>
0

>  <NdO>
0

>  <NssO>
0

>  <NaaO>
0

>  <NsF>
0

>  <NsSiH3>
0

>  <NssSiH2>
0

>  <NsssSiH>
0

>  <NssssSi>
0

>  <NsPH2>
0

>  <NssPH>
0

>  <NsssP>
0

>  <NdsssP>
0

>  <NsssssP>
0

>  <NsSH>
0

>  <NdS>
0

>  <NssS>
0

>  <NaaS>
1

>  <NdssS>
0

>  <NddssS>
0

>  <NsCl>
0

>  <NsBr>
0

>  <NsI>
0

>  <fragCpx>
16.06

>  <fMF>
0.35

>  <nHBAcc>
6

>  <nHBDon>
4

>  <Kier1>
14.06

>  <Kier2>
7.35

>  <Lipinski>
1

>  <GhoseFilter>
1

>  <FilterItLogS>
-2.04

>  <VMcGowan>
185.65

>  <LabuteASA>
98.08

>  <PEOE_VSA1>
22.93

>  <PEOE_VSA2>
0

>  <PEOE_VSA3>
4.98

>  <PEOE_VSA4>
0

>  <PEOE_VSA5>
11.34

>  <PEOE_VSA6>
12.13

>  <PEOE_VSA7>
12.13

>  <PEOE_VSA8>
23.3

>  <PEOE_VSA9>
5.69

>  <PEOE_VSA10>
0

>  <PEOE_VSA11>
5.13

>  <PEOE_VSA12>
0

>  <PEOE_VSA13>
0

>  <SMR_VSA1>
0

>  <SMR_VSA2>
0

>  <SMR_VSA3>
4.98

>  <SMR_VSA4>
11.47

>  <SMR_VSA5>
0

>  <SMR_VSA6>
18.14

>  <SMR_VSA7>
29.65

>  <SMR_VSA8>
0

>  <SMR_VSA9>
11.26

>  <SlogP_VSA1>
22.93

>  <SlogP_VSA2>
11.65

>  <SlogP_VSA3>
0

>  <SlogP_VSA4>
0

>  <SlogP_VSA5>
0

>  <SlogP_VSA6>
29.65

>  <SlogP_VSA7>
0

>  <SlogP_VSA8>
11.26

>  <SlogP_VSA9>
0

>  <SlogP_VSA10>
10.82

>  <SlogP_VSA11>
0

>  <EState_VSA1>
0

>  <EState_VSA2>
6.67

>  <EState_VSA3>
5.13

>  <EState_VSA4>
16.94

>  <EState_VSA5>
11.34

>  <EState_VSA6>
0

>  <EState_VSA7>
29.65

>  <EState_VSA8>
16.45

>  <EState_VSA9>
11.47

>  <EState_VSA10>
0

>  <VSA_EState1>
0

>  <VSA_EState2>
4.16

>  <VSA_EState3>
2.5

>  <VSA_EState4>
23.06

>  <VSA_EState5>
0

>  <VSA_EState6>
7.6

>  <VSA_EState7>
0

>  <VSA_EState8>
0.25

>  <VSA_EState9>
0

>  <apol>
35.1

>  <bpol>
16.37

>  <nRing>
2

>  <nHRing>
1

>  <naRing>
2

>  <naHRing>
1

>  <nARing 2>
0

>  <nAHRing 2>
0

>  <nFRing>
0

>  <nFHRing>
0

>  <nFaRing>
0

>  <nFaHRing>
0

>  <nFARing 2>
0

>  <nFAHRing 2>
0

>  <nRot>
1

>  <SLogP>
0.84

>  <SMR>
69.62

>  <TopoPSA(NO)>
116.97

>  <TopoPSA>
145.21

>  <JGI1>
0.22

>  <JGI2>
0.07

>  <JGI3>
0.05

>  <JGI4>
0.05

>  <JGI5>
0.03

>  <Diameter>
100000000

>  <Radius>
100000000

>  <TMWC10>
100.31

>  <TSRW10>
60.87

>  <MW>
237.1

>  <AMW>
7.65

>  <WPath>
3900000249

>  <WPol>
15

>  <Zagreb1>
72

>  <Zagreb2>
79

>  <mZagreb2>
3.86

>  <yes>


>  <nAR-cont>
0.336376

>  <nHA-cont>
0.954961865

>  <MWHBN>
0.649432806

>  <MWHBN-cont>
0

>  <TPSA-cont>
0

>  <pka_cont>
0.97

>  <yes.1>


>  <BBB_SCORE>
1.776337865

>  <MMFF94 Energy>
-25.153

$$$$
Compound 2917
Actelion Java MolfileCreator 2.0

  0  0  0  0  0  0              0 V3000
M  V30 BEGIN CTAB
M  V30 COUNTS 29 29 0 0 0
M  V30 BEGIN ATOM
M  V30 1 S 3.0594 -0.3918 3.5307 0
M  V30 2 C 2.4828 -1.5748 2.4324 0
M  V30 3 C 1.6485 0.542 3.2489 0
M  V30 4 N 1.3242 -1.3133 1.8834 0
M  V30 5 N 3.1837 -2.6815 2.1687 0
M  V30 6 C 0.8263 -0.0976 2.3407 0
M  V30 7 C -0.4629 0.4107 1.8663 0
M  V30 8 C -1.1986 -0.3446 0.9388 0
M  V30 9 C -1.0024 1.6311 2.301 0
M  V30 10 C -2.4331 0.1028 0.4598 0
M  V30 11 C -2.2385 2.0796 1.8217 0
M  V30 12 C -2.9527 1.3158 0.9021 0
M  V30 13 N 0.5232 -1.0173 -4.4731 0
M  V30 14 C -0.4925 -0.0588 -4.1661 0
M  V30 15 N 0.2705 1.1326 -3.9589 0
M  V30 16 H 1.5147 1.4838 3.7582 0
M  V30 17 H 4.0771 -2.8711 2.5997 0
M  V30 18 H 2.8159 -3.3605 1.5156 0
M  V30 19 H -0.8104 -1.2964 0.5798 0
M  V30 20 H -0.48 2.2584 3.0168 0
M  V30 21 H -2.9847 -0.4988 -0.2576 0
M  V30 22 H -2.6427 3.0275 2.1685 0
M  V30 23 H -3.9125 1.6651 0.5307 0
M  V30 24 H 1.084 -0.6164 -5.2233 0
M  V30 25 H 0.0902 -1.8531 -4.8581 0
M  V30 26 H -1.0439 -0.3481 -3.2671 0
M  V30 27 H -1.1951 0.0663 -4.9947 0
M  V30 28 H -0.3173 1.8348 -3.5165 0
M  V30 29 H 0.9944 0.8999 -3.2806 0
M  V30 END ATOM
M  V30 BEGIN BOND
M  V30 1 1 1 2
M  V30 2 1 1 3
M  V30 3 2 2 4
M  V30 4 1 2 5
M  V30 5 2 3 6
M  V30 6 1 6 7
M  V30 7 2 7 8
M  V30 8 1 7 9
M  V30 9 1 8 10
M  V30 10 2 9 11
M  V30 11 2 10 12
M  V30 12 1 13 14
M  V30 13 1 14 15
M  V30 14 1 4 6
M  V30 15 1 11 12
M  V30 16 1 3 16
M  V30 17 1 5 17
M  V30 18 1 5 18
M  V30 19 1 8 19
M  V30 20 1 9 20
M  V30 21 1 10 21
M  V30 22 1 11 22
M  V30 23 1 12 23
M  V30 24 1 13 24
M  V30 25 1 13 25
M  V30 26 1 14 26
M  V30 27 1 14 27
M  V30 28 1 15 28
M  V30 29 1 15 29
M  V30 END BOND
M  V30 END CTAB
M  END
>  <Column 1>
3747

>  <level_0>
6692

>  <index>
6693

>  <Unnamed: 0>
6693

>  <NO.>
6705

>  <Name>


>  <IUPAC_name>


>  <SMILES>
NCN.Nc1nc(-c2ccccc2)cs1

>  <CID>


>  <logBB>


>  <BBB+/BBB->
BBB+

>  <Inchi>
InChI=1S/C9H8N2S.CH6N2/c10-9-11-8(6-12-9)7-4-2-1-3-5-7;2-1-3/h1-6H-(H2-10-11);1-3H2

>  <threshold>


>  <reference>
R24|

>  <group>
C

>  <Class>
-1

>  <ABC>
10.68

>  <ABCGG>
9.8

>  <nAcid>
0

>  <nBase>
2

>  <nAromAtom>
11

>  <nAromBond>
11

>  <nAtom>
29

>  <nHeavyAtom>
15

>  <nSpiro>
0

>  <nBridgehead>
0

>  <nHetero>
5

>  <nN>
4

>  <nO>
0

>  <nF>
0

>  <BalabanJ>
0

>  <BertzCT>
385.33

>  <nBonds>
29

>  <nBondsO>
15

>  <nBondsS>
18

>  <nBondsD>
0

>  <nBondsT>
0

>  <nBondsA>
11

>  <nBondsM>
11

>  <nBondsKS>
24

>  <nBondsKD>
5

>  <RNCG>
0.23

>  <RPCG>
0.11

>  <FCSP3>
0.1

>  <SZ>
19.67

>  <Sm>
18.51

>  <Sv>
18.01

>  <Sse>
28.94

>  <Sp>
19.96

>  <Si>
32.99

>  <MZ>
0.68

>  <Mm>
0.64

>  <Mv>
0.62

>  <Mse>
1

>  <Mp>
0.69

>  <Mi>
1.14

>  <NsCH3>
0

>  <NdCH2>
0

>  <NssCH2>
1

>  <NtCH>
0

>  <NdsCH>
0

>  <NaaCH>
6

>  <NsssCH>
0

>  <NddC>
0

>  <NtsC>
0

>  <NdssC>
0

>  <NaasC>
3

>  <NaaaC>
0

>  <NssssC>
0

>  <NsNH3>
0

>  <NsNH2>
3

>  <NssNH2>
0

>  <NdNH>
0

>  <NssNH>
0

>  <NaaNH>
0

>  <NtN>
0

>  <NsssNH>
0

>  <NdsN>
0

>  <NaaN>
1

>  <NsssN>
0

>  <NddsN>
0

>  <NaasN>
0

>  <NssssN>
0

>  <NsOH>
0

>  <NdO>
0

>  <NssO>
0

>  <NaaO>
0

>  <NsF>
0

>  <NsSiH3>
0

>  <NssSiH2>
0

>  <NsssSiH>
0

>  <NssssSi>
0

>  <NsPH2>
0

>  <NssPH>
0

>  <NsssP>
0

>  <NdsssP>
0

>  <NsssssP>
0

>  <NsSH>
0

>  <NdS>
0

>  <NssS>
0

>  <NaaS>
1

>  <NdssS>
0

>  <NddssS>
0

>  <NsCl>
0

>  <NsBr>
0

>  <NsI>
0

>  <fragCpx>
15.05

>  <fMF>
0.38

>  <nHBAcc>
5

>  <nHBDon>
3

>  <Kier1>
13.07

>  <Kier2>
7.3

>  <Lipinski>
1

>  <GhoseFilter>
1

>  <FilterItLogS>
-2.25

>  <VMcGowan>
175.67

>  <LabuteASA>
92.74

>  <PEOE_VSA1>
17.2

>  <PEOE_VSA2>
0

>  <PEOE_VSA3>
4.98

>  <PEOE_VSA4>
0

>  <PEOE_VSA5>
11.34

>  <PEOE_VSA6>
30.33

>  <PEOE_VSA7>
0

>  <PEOE_VSA8>
17.61

>  <PEOE_VSA9>
5.69

>  <PEOE_VSA10>
0

>  <PEOE_VSA11>
5.13

>  <PEOE_VSA12>
0

>  <PEOE_VSA13>
0

>  <SMR_VSA1>
0

>  <SMR_VSA2>
0

>  <SMR_VSA3>
4.98

>  <SMR_VSA4>
11.47

>  <SMR_VSA5>
0

>  <SMR_VSA6>
12.4

>  <SMR_VSA7>
35.71

>  <SMR_VSA8>
0

>  <SMR_VSA9>
11.26

>  <SlogP_VSA1>
17.2

>  <SlogP_VSA2>
11.65

>  <SlogP_VSA3>
0

>  <SlogP_VSA4>
0

>  <SlogP_VSA5>
0

>  <SlogP_VSA6>
35.71

>  <SlogP_VSA7>
0

>  <SlogP_VSA8>
11.26

>  <SlogP_VSA9>
0

>  <SlogP_VSA10>
5.13

>  <SlogP_VSA11>
0

>  <EState_VSA1>
0

>  <EState_VSA2>
6.67

>  <EState_VSA3>
5.13

>  <EState_VSA4>
11.26

>  <EState_VSA5>
11.34

>  <EState_VSA6>
0

>  <EState_VSA7>
35.71

>  <EState_VSA8>
16.45

>  <EState_VSA9>
5.73

>  <EState_VSA10>
0

>  <VSA_EState1>
0

>  <VSA_EState2>
4.18

>  <VSA_EState3>
2.58

>  <VSA_EState4>
16.85

>  <VSA_EState5>
0

>  <VSA_EState6>
10.01

>  <VSA_EState7>
0

>  <VSA_EState8>
0.25

>  <VSA_EState9>
0

>  <apol>
33.34

>  <bpol>
15.93

>  <nRing>
2

>  <nHRing>
1

>  <naRing>
2

>  <naHRing>
1

>  <nARing 2>
0

>  <nAHRing 2>
0

>  <nFRing>
0

>  <nFHRing>
0

>  <nFaRing>
0

>  <nFaHRing>
0

>  <nFARing 2>
0

>  <nFAHRing 2>
0

>  <nRot>
1

>  <SLogP>
1.25

>  <SMR>
65.2

>  <TopoPSA(NO)>
90.95

>  <TopoPSA>
119.19

>  <JGI1>
0.17

>  <JGI2>
0.06

>  <JGI3>
0.04

>  <JGI4>
0.03

>  <JGI5>
0.03

>  <Diameter>
100000000

>  <Radius>
100000000

>  <TMWC10>
97.19

>  <TSRW10>
59.32

>  <MW>
222.09

>  <AMW>
7.66

>  <WPath>
3600000201

>  <WPol>
13

>  <Zagreb1>
66

>  <Zagreb2>
72

>  <mZagreb2>
3.69

>  <yes>


>  <nAR-cont>
0.336376

>  <nHA-cont>
0.92539861

>  <MWHBN>
0.536816041

>  <MWHBN-cont>
0

>  <TPSA-cont>
0.167979787

>  <pka_cont>
0.97

>  <yes.1>


>  <BBB_SCORE>
2.082734185

>  <MMFF94 Energy>
-15.23

$$$$
Compound 2918
Actelion Java MolfileCreator 2.0

  0  0  0  0  0  0              0 V3000
M  V30 BEGIN CTAB
M  V30 COUNTS 47 50 0 0 0
M  V30 BEGIN ATOM
M  V30 1 S -1.4808 0.5757 0.6579 0
M  V30 2 C -0.5256 -0.4077 -0.5203 0 CFG=2
M  V30 3 C -0.798 -0.2903 2.1116 0
M  V30 4 N 0.8694 -0.1596 -0.2404 0
M  V30 5 C -0.2727 0.2415 -1.9189 0 CFG=1
M  V30 6 C 0.7129 -0.465 2.0925 0
M  V30 7 C 1.4569 -0.3585 0.9658 0
M  V30 8 C 1.2346 0.2188 -1.4781 0
M  V30 9 N -0.5543 -0.5877 -3.1257 0
M  V30 10 C 1.3032 -0.8102 3.4502 0
M  V30 11 C 2.9415 -0.4449 0.9916 0
M  V30 12 O 2.3004 0.4687 -1.9892 0
M  V30 13 C -1.7349 -1.2758 -3.2979 0
M  V30 14 N 1.0574 0.2648 4.4254 0
M  V30 15 O 3.7007 0.1949 1.6942 0
M  V30 16 O 3.3794 -1.3973 0.1479 0
M  V30 17 O -2.6109 -1.3103 -2.4381 0
M  V30 18 C -1.8514 -2.0228 -4.6143 0
M  V30 19 C 0.1846 0.0788 5.4961 0
M  V30 20 C 1.7281 1.4829 4.3301 0
M  V30 21 C -2.0324 -1.0477 -5.7368 0
M  V30 22 C -0.0677 1.0207 6.4177 0
M  V30 23 C 1.5528 2.4944 5.1939 0
M  V30 24 S -0.7261 -0.6838 -6.7848 0
M  V30 25 C -3.1714 -0.3481 -6.085 0
M  V30 26 C 0.6014 2.369 6.3538 0
M  V30 27 C -1.6764 0.4087 -7.6929 0
M  V30 28 C -2.9641 0.4953 -7.214 0
M  V30 29 H -0.763 -1.4779 -0.5349 0
M  V30 30 H -1.2761 -1.2724 2.195 0
M  V30 31 H -1.1138 0.3051 2.9715 0
M  V30 32 H -0.6527 1.261 -2.0552 0
M  V30 33 H 0.1119 -0.5786 -3.8937 0
M  V30 34 H 2.3763 -1.0226 3.4164 0
M  V30 35 H 0.8438 -1.7494 3.7875 0
M  V30 36 H 4.3545 -1.3095 0.1766 0
M  V30 37 H -2.7149 -2.6957 -4.5593 0
M  V30 38 H -0.9615 -2.6482 -4.7488 0
M  V30 39 H -0.296 -0.8935 5.5445 0
M  V30 40 H 2.4215 1.5703 3.4981 0
M  V30 41 H -0.7585 0.8276 7.2305 0
M  V30 42 H 2.1009 3.4217 5.0716 0
M  V30 43 H -4.1114 -0.432 -5.5503 0
M  V30 44 H 1.152 2.5374 7.286 0
M  V30 45 H -0.1662 3.1467 6.2737 0
M  V30 46 H -1.2468 0.9345 -8.5347 0
M  V30 47 H -3.7218 1.1335 -7.6525 0
M  V30 END ATOM
M  V30 BEGIN BOND
M  V30 1 1 1 2
M  V30 2 1 1 3
M  V30 3 1 2 4
M  V30 4 1 2 5
M  V30 5 1 3 6
M  V30 6 1 4 7
M  V30 7 1 4 8
M  V30 8 1 5 9
M  V30 9 1 6 10
M  V30 10 1 7 11
M  V30 11 2 8 12
M  V30 12 1 9 13
M  V30 13 1 10 14
M  V30 14 2 11 15
M  V30 15 1 11 16
M  V30 16 2 13 17
M  V30 17 1 13 18
M  V30 18 1 14 19
M  V30 19 1 14 20
M  V30 20 1 18 21
M  V30 21 2 19 22
M  V30 22 2 20 23
M  V30 23 1 21 24
M  V30 24 2 21 25
M  V30 25 1 22 26
M  V30 26 1 24 27
M  V30 27 1 25 28
M  V30 28 1 5 8
M  V30 29 2 6 7
M  V30 30 1 23 26
M  V30 31 2 27 28
M  V30 32 1 2 29
M  V30 33 1 3 30
M  V30 34 1 3 31
M  V30 35 1 5 32
M  V30 36 1 9 33
M  V30 37 1 10 34
M  V30 38 1 10 35
M  V30 39 1 16 36
M  V30 40 1 18 37
M  V30 41 1 18 38
M  V30 42 1 19 39
M  V30 43 1 20 40
M  V30 44 1 22 41
M  V30 45 1 23 42
M  V30 46 1 25 43
M  V30 47 1 26 44
M  V30 48 1 26 45
M  V30 49 1 27 46
M  V30 50 1 28 47
M  V30 END BOND
M  V30 BEGIN COLLECTION
M  V30 MDLV30/STEABS ATOMS=(2 2 5)
M  V30 END COLLECTION
M  V30 END CTAB
M  END
>  <Column 1>
3751

>  <level_0>
6718

>  <index>
6719

>  <Unnamed: 0>
6719

>  <NO.>
6732

>  <Name>


>  <IUPAC_name>


>  <SMILES>
O=C(Cc1cccs1)N[C@@H]1C(=O)N2C(C(=O)O)=C(CN3C=CCC=C3)CS[C@@H]12

>  <CID>


>  <logBB>


>  <BBB+/BBB->
BBB-

>  <Inchi>
InChI=1S/C19H19N3O4S2/c23-14(9-13-5-4-8-27-13)20-15-17(24)22-16(19(25)26)12(11-28-18(15)22)10-21-6-2-1-3-7-21/h2-8-15-18H-1-9-11H2-(H-20-23)(H-25-26)/t15--18+/m1/s1

>  <threshold>


>  <reference>
R24|

>  <group>
C

>  <Class>
-1

>  <ABC>
22.07

>  <ABCGG>
17.48

>  <nAcid>
1

>  <nBase>
0

>  <nAromAtom>
5

>  <nAromBond>
5

>  <nAtom>
47

>  <nHeavyAtom>
28

>  <nSpiro>
0

>  <nBridgehead>
0

>  <nHetero>
9

>  <nN>
3

>  <nO>
4

>  <nF>
0

>  <BalabanJ>
1.33

>  <BertzCT>
879

>  <nBonds>
50

>  <nBondsO>
31

>  <nBondsS>
39

>  <nBondsD>
6

>  <nBondsT>
0

>  <nBondsA>
5

>  <nBondsM>
11

>  <nBondsKS>
42

>  <nBondsKD>
8

>  <RNCG>
0.17

>  <RPCG>
0.13

>  <FCSP3>
0.32

>  <SZ>
36.33

>  <Sm>
34.76

>  <Sv>
31.65

>  <Sse>
47.9

>  <Sp>
33.96

>  <Si>
52.5

>  <MZ>
0.77

>  <Mm>
0.74

>  <Mv>
0.67

>  <Mse>
1.02

>  <Mp>
0.72

>  <Mi>
1.12

>  <NsCH3>
0

>  <NdCH2>
0

>  <NssCH2>
4

>  <NtCH>
0

>  <NdsCH>
4

>  <NaaCH>
3

>  <NsssCH>
2

>  <NddC>
0

>  <NtsC>
0

>  <NdssC>
5

>  <NaasC>
1

>  <NaaaC>
0

>  <NssssC>
0

>  <NsNH3>
0

>  <NsNH2>
0

>  <NssNH2>
0

>  <NdNH>
0

>  <NssNH>
1

>  <NaaNH>
0

>  <NtN>
0

>  <NsssNH>
0

>  <NdsN>
0

>  <NaaN>
0

>  <NsssN>
2

>  <NddsN>
0

>  <NaasN>
0

>  <NssssN>
0

>  <NsOH>
1

>  <NdO>
3

>  <NssO>
0

>  <NaaO>
0

>  <NsF>
0

>  <NsSiH3>
0

>  <NssSiH2>
0

>  <NsssSiH>
0

>  <NssssSi>
0

>  <NsPH2>
0

>  <NssPH>
0

>  <NsssP>
0

>  <NdsssP>
0

>  <NsssssP>
0

>  <NsSH>
0

>  <NdS>
0

>  <NssS>
1

>  <NaaS>
1

>  <NdssS>
0

>  <NddssS>
0

>  <NsCl>
0

>  <NsBr>
0

>  <NsI>
0

>  <fragCpx>
205.09

>  <fMF>
0.49

>  <nHBAcc>
6

>  <nHBDon>
2

>  <Kier1>
21.24

>  <Kier2>
9.43

>  <Lipinski>
1

>  <GhoseFilter>
1

>  <FilterItLogS>
-1.6

>  <VMcGowan>
286.85

>  <LabuteASA>
169.93

>  <PEOE_VSA1>
15.32

>  <PEOE_VSA2>
14.49

>  <PEOE_VSA3>
4.79

>  <PEOE_VSA4>
0

>  <PEOE_VSA5>
23.1

>  <PEOE_VSA6>
18.22

>  <PEOE_VSA7>
23.44

>  <PEOE_VSA8>
29.57

>  <PEOE_VSA9>
6.42

>  <PEOE_VSA10>
17.11

>  <PEOE_VSA11>
0

>  <PEOE_VSA12>
5.91

>  <PEOE_VSA13>
5.91

>  <SMR_VSA1>
19.49

>  <SMR_VSA2>
0

>  <SMR_VSA3>
15.12

>  <SMR_VSA4>
0

>  <SMR_VSA5>
24.26

>  <SMR_VSA6>
12.3

>  <SMR_VSA7>
58.21

>  <SMR_VSA8>
0

>  <SMR_VSA9>
0

>  <SlogP_VSA1>
5.32

>  <SlogP_VSA2>
56.4

>  <SlogP_VSA3>
20.8

>  <SlogP_VSA4>
0

>  <SlogP_VSA5>
11.3

>  <SlogP_VSA6>
53.33

>  <SlogP_VSA7>
0

>  <SlogP_VSA8>
0

>  <SlogP_VSA9>
0

>  <SlogP_VSA10>
0

>  <SlogP_VSA11>
0

>  <EState_VSA1>
12.01

>  <EState_VSA2>
29.31

>  <EState_VSA3>
17.87

>  <EState_VSA4>
11.3

>  <EState_VSA5>
28

>  <EState_VSA6>
0

>  <EState_VSA7>
46.96

>  <EState_VSA8>
5.32

>  <EState_VSA9>
0

>  <EState_VSA10>
19.49

>  <VSA_EState1>
0

>  <VSA_EState2>
40.92

>  <VSA_EState3>
14.01

>  <VSA_EState4>
0.74

>  <VSA_EState5>
-1.19

>  <VSA_EState6>
3.07

>  <VSA_EState7>
8.89

>  <VSA_EState8>
0.42

>  <VSA_EState9>
0

>  <apol>
56.71

>  <bpol>
30.57

>  <nRing>
4

>  <nHRing>
4

>  <naRing>
1

>  <naHRing>
1

>  <nARing 2>
3

>  <nAHRing 2>
3

>  <nFRing>
1

>  <nFHRing>
1

>  <nFaRing>
0

>  <nFaHRing>
0

>  <nFARing 2>
1

>  <nFAHRing 2>
1

>  <nRot>
6

>  <SLogP>
1.76

>  <SMR>
107.31

>  <TopoPSA(NO)>
89.95

>  <TopoPSA>
143.49

>  <JGI1>
0.16

>  <JGI2>
0.06

>  <JGI3>
0.07

>  <JGI4>
0.04

>  <JGI5>
0.03

>  <Diameter>
15

>  <Radius>
8

>  <TMWC10>
136.49

>  <TSRW10>
77.1

>  <MW>
417.08

>  <AMW>
8.87

>  <WPath>
2180

>  <WPol>
41

>  <Zagreb1>
150

>  <Zagreb2>
179

>  <mZagreb2>
6.11

>  <yes>


>  <nAR-cont>
0.691115

>  <nHA-cont>
0.82432561

>  <MWHBN>
0.391724112

>  <MWHBN-cont>
0.508667804

>  <TPSA-cont>
0

>  <pka_cont>
0.97

>  <yes.1>


>  <BBB_SCORE>
2.763442316

>  <MMFF94 Energy>
1.8764

$$$$
Compound 2919
Actelion Java MolfileCreator 2.0

  0  0  0  0  0  0              0 V3000
M  V30 BEGIN CTAB
M  V30 COUNTS 38 38 0 0 0
M  V30 BEGIN ATOM
M  V30 1 Cl -0.5678 -5.9334 -0.5678 0
M  V30 2 C -1.5191 -5.1053 0.6807 0
M  V30 3 Cl -1.5187 -6.0152 2.2002 0
M  V30 4 C -0.9238 -3.7087 0.8916 0
M  V30 5 O 0.0437 -3.4765 1.6148 0
M  V30 6 N -1.5409 -2.7052 0.1712 0
M  V30 7 C -1.2623 -1.2517 0.2723 0 CFG=1
M  V30 8 C 0.231 -0.8796 0.0014 0 CFG=2
M  V30 9 C -2.2334 -0.5534 -0.706 0
M  V30 10 O 1.0355 -1.1534 1.1539 0
M  V30 11 C 0.4995 0.6026 -0.373 0
M  V30 12 O -3.5403 -1.1277 -0.5759 0
M  V30 13 C 0.1607 1.5742 0.7777 0
M  V30 14 C 1.9742 0.7939 -0.7948 0
M  V30 15 C 0.4446 3.0263 0.3925 0
M  V30 16 C 2.2692 2.2419 -1.1861 0
M  V30 17 C 1.8956 3.1954 -0.0536 0
M  V30 18 N 2.1077 4.6174 -0.515 0 CHG=1
M  V30 19 O 1.4337 5.0202 -1.4731 0
M  V30 20 O 2.9458 5.2856 0.1031 0 CHG=-1
M  V30 21 H -2.5532 -5.0355 0.3319 0
M  V30 22 H -2.4225 -2.91 -0.2938 0
M  V30 23 H -1.5281 -0.9901 1.3042 0
M  V30 24 H 0.6054 -1.5162 -0.8104 0
M  V30 25 H -1.9164 -0.7025 -1.7436 0
M  V30 26 H -2.3121 0.5174 -0.5011 0
M  V30 27 H 0.8435 -2.075 1.4391 0
M  V30 28 H -0.1122 0.8652 -1.2448 0
M  V30 29 H -4.1462 -0.572 -1.1 0
M  V30 30 H -0.8929 1.4842 1.0616 0
M  V30 31 H 0.7479 1.3262 1.6706 0
M  V30 32 H 2.6466 0.5027 0.0215 0
M  V30 33 H 2.2042 0.1404 -1.6448 0
M  V30 34 H 0.2327 3.6812 1.2468 0
M  V30 35 H -0.2488 3.3215 -0.4056 0
M  V30 36 H 1.7109 2.4816 -2.1004 0
M  V30 37 H 3.3325 2.3462 -1.4346 0
M  V30 38 H 2.5674 3.0404 0.8002 0
M  V30 END ATOM
M  V30 BEGIN BOND
M  V30 1 1 1 2
M  V30 2 1 2 3
M  V30 3 1 2 4
M  V30 4 2 4 5
M  V30 5 1 4 6
M  V30 6 1 6 7
M  V30 7 1 7 8
M  V30 8 1 7 9
M  V30 9 1 8 10
M  V30 10 1 8 11
M  V30 11 1 9 12
M  V30 12 1 11 13
M  V30 13 1 11 14
M  V30 14 1 13 15
M  V30 15 1 14 16
M  V30 16 1 15 17
M  V30 17 1 17 18
M  V30 18 2 18 19
M  V30 19 1 18 20
M  V30 20 1 16 17
M  V30 21 1 2 21
M  V30 22 1 6 22
M  V30 23 1 7 23
M  V30 24 1 8 24
M  V30 25 1 9 25
M  V30 26 1 9 26
M  V30 27 1 10 27
M  V30 28 1 11 28
M  V30 29 1 12 29
M  V30 30 1 13 30
M  V30 31 1 13 31
M  V30 32 1 14 32
M  V30 33 1 14 33
M  V30 34 1 15 34
M  V30 35 1 15 35
M  V30 36 1 16 36
M  V30 37 1 16 37
M  V30 38 1 17 38
M  V30 END BOND
M  V30 BEGIN COLLECTION
M  V30 MDLV30/STEABS ATOMS=(2 7 8)
M  V30 END COLLECTION
M  V30 END CTAB
M  END
>  <Column 1>
3753

>  <level_0>
6722

>  <index>
6723

>  <Unnamed: 0>
6723

>  <NO.>
6736

>  <Name>


>  <IUPAC_name>


>  <SMILES>
O=C(N[C@H](CO)[C@H](O)C1CCC([N+](=O)[O-])CC1)C(Cl)Cl

>  <CID>


>  <logBB>


>  <BBB+/BBB->
BBB+

>  <Inchi>
InChI=1S/C11H18Cl2N2O5/c12-10(13)11(18)14-8(5-16)9(17)6-1-3-7(4-2-6)15(19)20/h6-10-16-17H-1-5H2-(H-14-18)/t6?-7?-8--9-/m1/s1

>  <threshold>


>  <reference>
R24|

>  <group>
C

>  <Class>
-1

>  <ABC>
14.64

>  <ABCGG>
13.29

>  <nAcid>
0

>  <nBase>
0

>  <nAromAtom>
0

>  <nAromBond>
0

>  <nAtom>
38

>  <nHeavyAtom>
20

>  <nSpiro>
0

>  <nBridgehead>
0

>  <nHetero>
9

>  <nN>
2

>  <nO>
5

>  <nF>
0

>  <BalabanJ>
2.49

>  <BertzCT>
347.71

>  <nBonds>
38

>  <nBondsO>
20

>  <nBondsS>
36

>  <nBondsD>
2

>  <nBondsT>
0

>  <nBondsA>
0

>  <nBondsM>
2

>  <nBondsKS>
36

>  <nBondsKD>
2

>  <RNCG>
0.18

>  <RPCG>
0.11

>  <FCSP3>
0.91

>  <SZ>
28.67

>  <Sm>
27.41

>  <Sv>
23.15

>  <Sse>
39.5

>  <Sp>
24.52

>  <Si>
43.67

>  <MZ>
0.75

>  <Mm>
0.72

>  <Mv>
0.61

>  <Mse>
1.04

>  <Mp>
0.65

>  <Mi>
1.15

>  <NsCH3>
0

>  <NdCH2>
0

>  <NssCH2>
5

>  <NtCH>
0

>  <NdsCH>
0

>  <NaaCH>
0

>  <NsssCH>
5

>  <NddC>
0

>  <NtsC>
0

>  <NdssC>
1

>  <NaasC>
0

>  <NaaaC>
0

>  <NssssC>
0

>  <NsNH3>
0

>  <NsNH2>
0

>  <NssNH2>
0

>  <NdNH>
0

>  <NssNH>
1

>  <NaaNH>
0

>  <NtN>
0

>  <NsssNH>
0

>  <NdsN>
0

>  <NaaN>
0

>  <NsssN>
0

>  <NddsN>
1

>  <NaasN>
0

>  <NssssN>
0

>  <NsOH>
2

>  <NdO>
2

>  <NssO>
0

>  <NaaO>
0

>  <NsF>
0

>  <NsSiH3>
0

>  <NssSiH2>
0

>  <NsssSiH>
0

>  <NssssSi>
0

>  <NsPH2>
0

>  <NssPH>
0

>  <NsssP>
0

>  <NdsssP>
0

>  <NsssssP>
0

>  <NsSH>
0

>  <NdS>
0

>  <NssS>
0

>  <NaaS>
0

>  <NdssS>
0

>  <NddssS>
0

>  <NsCl>
2

>  <NsBr>
0

>  <NsI>
0

>  <fragCpx>
20.09

>  <fMF>
0.16

>  <nHBAcc>
5

>  <nHBDon>
3

>  <Kier1>
18.05

>  <Kier2>
8.44

>  <Lipinski>
1

>  <GhoseFilter>
1

>  <FilterItLogS>
-1.7

>  <VMcGowan>
220.18

>  <LabuteASA>
125.94

>  <PEOE_VSA1>
15.53

>  <PEOE_VSA2>
14.91

>  <PEOE_VSA3>
0

>  <PEOE_VSA4>
0

>  <PEOE_VSA5>
0

>  <PEOE_VSA6>
23.2

>  <PEOE_VSA7>
18.76

>  <PEOE_VSA8>
17.76

>  <PEOE_VSA9>
18.75

>  <PEOE_VSA10>
0

>  <PEOE_VSA11>
4.84

>  <PEOE_VSA12>
6.04

>  <PEOE_VSA13>
5.91

>  <SMR_VSA1>
19.93

>  <SMR_VSA2>
0

>  <SMR_VSA3>
5.32

>  <SMR_VSA4>
5.92

>  <SMR_VSA5>
48.71

>  <SMR_VSA6>
6.61

>  <SMR_VSA7>
10.11

>  <SMR_VSA8>
0

>  <SMR_VSA9>
0

>  <SlogP_VSA1>
5.32

>  <SlogP_VSA2>
50.67

>  <SlogP_VSA3>
4.79

>  <SlogP_VSA4>
16.03

>  <SlogP_VSA5>
25.68

>  <SlogP_VSA6>
0

>  <SlogP_VSA7>
0

>  <SlogP_VSA8>
0

>  <SlogP_VSA9>
0

>  <SlogP_VSA10>
0

>  <SlogP_VSA11>
0

>  <EState_VSA1>
35.54

>  <EState_VSA2>
10.84

>  <EState_VSA3>
25.68

>  <EState_VSA4>
0

>  <EState_VSA5>
0

>  <EState_VSA6>
0

>  <EState_VSA7>
0

>  <EState_VSA8>
5.32

>  <EState_VSA9>
23.2

>  <EState_VSA10>
25.12

>  <VSA_EState1>
0

>  <VSA_EState2>
20.43

>  <VSA_EState3>
32.41

>  <VSA_EState4>
0

>  <VSA_EState5>
-0.89

>  <VSA_EState6>
-1.45

>  <VSA_EState7>
0.74

>  <VSA_EState8>
-0.46

>  <VSA_EState9>
0

>  <apol>
40.94

>  <bpol>
21.68

>  <nRing>
1

>  <nHRing>
0

>  <naRing>
0

>  <naHRing>
0

>  <nARing 2>
1

>  <nAHRing 2>
0

>  <nFRing>
0

>  <nFHRing>
0

>  <nFaRing>
0

>  <nFaHRing>
0

>  <nFARing 2>
0

>  <nFAHRing 2>
0

>  <nRot>
6

>  <SLogP>
0.46

>  <SMR>
73.26

>  <TopoPSA(NO)>
112.7

>  <TopoPSA>
112.7

>  <JGI1>
0.25

>  <JGI2>
0.12

>  <JGI3>
0.05

>  <JGI4>
0.04

>  <JGI5>
0.03

>  <Diameter>
11

>  <Radius>
6

>  <TMWC10>
110.94

>  <TSRW10>
52.86

>  <MW>
328.06

>  <AMW>
8.63

>  <WPath>
880

>  <WPol>
29

>  <Zagreb1>
94

>  <Zagreb2>
106

>  <mZagreb2>
4.61

>  <yes>


>  <nAR-cont>
0.816016

>  <nHA-cont>
0.999629945

>  <MWHBN>
0.441685708

>  <MWHBN-cont>
0.316078269

>  <TPSA-cont>
0.213284018

>  <pka_cont>
0.97

>  <yes.1>


>  <BBB_SCORE>
3.201331383

>  <MMFF94 Energy>
84.763

$$$$
Compound 2920
Actelion Java MolfileCreator 2.0

  0  0  0  0  0  0              0 V3000
M  V30 BEGIN CTAB
M  V30 COUNTS 33 35 0 0 0
M  V30 BEGIN ATOM
M  V30 1 Cl -0.8131 3.2554 3.9075 0
M  V30 2 C -0.3891 2.6713 2.346 0
M  V30 3 C -0.8582 1.4281 1.9218 0
M  V30 4 C 0.4321 3.4357 1.5219 0
M  V30 5 C -0.512 0.9296 0.6515 0
M  V30 6 C 0.7717 2.9635 0.2536 0
M  V30 7 C 0.283 1.7306 -0.1888 0
M  V30 8 C -0.9366 -0.4857 0.2556 0 CFG=1
M  V30 9 N 0.6079 1.3302 -1.4893 0
M  V30 10 N -1.857 -0.555 -0.9119 0
M  V30 11 C 0.2532 -1.4616 0.1597 0
M  V30 12 C -0.2451 0.6928 -2.3577 0
M  V30 13 O -3.21 -0.3705 -0.392 0
M  V30 14 C -1.6951 0.5181 -1.9105 0
M  V30 15 C 0.4892 -2.2681 -0.9668 0
M  V30 16 C 1.1308 -1.5945 1.2548 0
M  V30 17 O 0.154 0.3362 -3.4669 0
M  V30 18 C 1.5733 -3.1495 -1.0087 0
M  V30 19 C 2.2128 -2.4772 1.2127 0
M  V30 20 C 2.4354 -3.2524 0.079 0
M  V30 21 H -1.4815 0.836 2.5887 0
M  V30 22 H 0.8035 4.401 1.856 0
M  V30 23 H 1.3962 3.5766 -0.3915 0
M  V30 24 H -1.5072 -0.9044 1.0995 0
M  V30 25 H 1.5323 1.5218 -1.8545 0
M  V30 26 H -3.6284 -1.2177 -0.6419 0
M  V30 27 H -2.0824 1.4825 -1.5566 0
M  V30 28 H -2.2813 0.2557 -2.7995 0
M  V30 29 H -0.1647 -2.2215 -1.8351 0
M  V30 30 H 0.9785 -1.0067 2.1577 0
M  V30 31 H 1.7409 -3.7552 -1.8957 0
M  V30 32 H 2.8802 -2.5593 2.0666 0
M  V30 33 H 3.277 -3.9386 0.0433 0
M  V30 END ATOM
M  V30 BEGIN BOND
M  V30 1 1 1 2
M  V30 2 2 2 3
M  V30 3 1 2 4
M  V30 4 1 3 5
M  V30 5 2 4 6
M  V30 6 2 5 7
M  V30 7 1 5 8
M  V30 8 1 7 9
M  V30 9 1 8 10
M  V30 10 1 8 11
M  V30 11 1 9 12
M  V30 12 1 10 13
M  V30 13 1 10 14
M  V30 14 2 11 15
M  V30 15 1 11 16
M  V30 16 2 12 17
M  V30 17 1 15 18
M  V30 18 2 16 19
M  V30 19 2 18 20
M  V30 20 1 6 7
M  V30 21 1 12 14
M  V30 22 1 19 20
M  V30 23 1 3 21
M  V30 24 1 4 22
M  V30 25 1 6 23
M  V30 26 1 8 24
M  V30 27 1 9 25
M  V30 28 1 13 26
M  V30 29 1 14 27
M  V30 30 1 14 28
M  V30 31 1 15 29
M  V30 32 1 16 30
M  V30 33 1 18 31
M  V30 34 1 19 32
M  V30 35 1 20 33
M  V30 END BOND
M  V30 BEGIN COLLECTION
M  V30 MDLV30/STEABS ATOMS=(1 8)
M  V30 END COLLECTION
M  V30 END CTAB
M  END
>  <Column 1>
3755

>  <level_0>
6735

>  <index>
6736

>  <Unnamed: 0>
6736

>  <NO.>
6749

>  <Name>


>  <IUPAC_name>


>  <SMILES>
O=C1CN(O)[C@@H](c2ccccc2)c2cc(Cl)ccc2N1

>  <CID>


>  <logBB>


>  <BBB+/BBB->
BBB+

>  <Inchi>
InChI=1S/C15H13ClN2O2/c16-11-6-7-13-12(8-11)15(10-4-2-1-3-5-10)18(20)9-14(19)17-13/h1-8-15-20H-9H2-(H-17-19)/t15-/m0/s1

>  <threshold>


>  <reference>
R24|

>  <group>
C

>  <Class>
1

>  <ABC>
15.72

>  <ABCGG>
13.02

>  <nAcid>
0

>  <nBase>
0

>  <nAromAtom>
12

>  <nAromBond>
12

>  <nAtom>
33

>  <nHeavyAtom>
20

>  <nSpiro>
0

>  <nBridgehead>
0

>  <nHetero>
5

>  <nN>
2

>  <nO>
2

>  <nF>
0

>  <BalabanJ>
1.81

>  <BertzCT>
645.58

>  <nBonds>
35

>  <nBondsO>
22

>  <nBondsS>
22

>  <nBondsD>
1

>  <nBondsT>
0

>  <nBondsA>
12

>  <nBondsM>
13

>  <nBondsKS>
28

>  <nBondsKD>
7

>  <RNCG>
0.2

>  <RPCG>
0.15

>  <FCSP3>
0.13

>  <SZ>
25

>  <Sm>
24.04

>  <Sv>
22.56

>  <Sse>
33.52

>  <Sp>
23.77

>  <Si>
36.85

>  <MZ>
0.76

>  <Mm>
0.73

>  <Mv>
0.68

>  <Mse>
1.02

>  <Mp>
0.72

>  <Mi>
1.12

>  <NsCH3>
0

>  <NdCH2>
0

>  <NssCH2>
1

>  <NtCH>
0

>  <NdsCH>
0

>  <NaaCH>
8

>  <NsssCH>
1

>  <NddC>
0

>  <NtsC>
0

>  <NdssC>
1

>  <NaasC>
4

>  <NaaaC>
0

>  <NssssC>
0

>  <NsNH3>
0

>  <NsNH2>
0

>  <NssNH2>
0

>  <NdNH>
0

>  <NssNH>
1

>  <NaaNH>
0

>  <NtN>
0

>  <NsssNH>
0

>  <NdsN>
0

>  <NaaN>
0

>  <NsssN>
1

>  <NddsN>
0

>  <NaasN>
0

>  <NssssN>
0

>  <NsOH>
1

>  <NdO>
1

>  <NssO>
0

>  <NaaO>
0

>  <NsF>
0

>  <NsSiH3>
0

>  <NssSiH2>
0

>  <NsssSiH>
0

>  <NssssSi>
0

>  <NsPH2>
0

>  <NssPH>
0

>  <NsssP>
0

>  <NdsssP>
0

>  <NsssssP>
0

>  <NsSH>
0

>  <NdS>
0

>  <NssS>
0

>  <NaaS>
0

>  <NdssS>
0

>  <NddssS>
0

>  <NsCl>
1

>  <NsBr>
0

>  <NsI>
0

>  <fragCpx>
104.05

>  <fMF>
0.52

>  <nHBAcc>
3

>  <nHBDon>
2

>  <Kier1>
14.92

>  <Kier2>
6.41

>  <Lipinski>
1

>  <GhoseFilter>
1

>  <FilterItLogS>
-3.61

>  <VMcGowan>
203.47

>  <LabuteASA>
121.1

>  <PEOE_VSA1>
10.52

>  <PEOE_VSA2>
4.79

>  <PEOE_VSA3>
0

>  <PEOE_VSA4>
5.06

>  <PEOE_VSA5>
0

>  <PEOE_VSA6>
41.93

>  <PEOE_VSA7>
23.76

>  <PEOE_VSA8>
16.27

>  <PEOE_VSA9>
6.04

>  <PEOE_VSA10>
6.54

>  <PEOE_VSA11>
0

>  <PEOE_VSA12>
5.91

>  <PEOE_VSA13>
0

>  <SMR_VSA1>
10

>  <SMR_VSA2>
0

>  <SMR_VSA3>
5.06

>  <SMR_VSA4>
0

>  <SMR_VSA5>
6.04

>  <SMR_VSA6>
11.86

>  <SMR_VSA7>
64.68

>  <SMR_VSA8>
0

>  <SMR_VSA9>
0

>  <SlogP_VSA1>
5.32

>  <SlogP_VSA2>
22.72

>  <SlogP_VSA3>
4.79

>  <SlogP_VSA4>
0

>  <SlogP_VSA5>
17.17

>  <SlogP_VSA6>
48.53

>  <SlogP_VSA7>
5.02

>  <SlogP_VSA8>
0

>  <SlogP_VSA9>
0

>  <SlogP_VSA10>
5.69

>  <SlogP_VSA11>
0

>  <EState_VSA1>
6.04

>  <EState_VSA2>
12.45

>  <EState_VSA3>
10.71

>  <EState_VSA4>
16.19

>  <EState_VSA5>
0

>  <EState_VSA6>
18.2

>  <EState_VSA7>
30.33

>  <EState_VSA8>
5.32

>  <EState_VSA9>
11.6

>  <EState_VSA10>
10

>  <VSA_EState1>
0

>  <VSA_EState2>
11.77

>  <VSA_EState3>
14.62

>  <VSA_EState4>
2.34

>  <VSA_EState5>
-0.26

>  <VSA_EState6>
14.33

>  <VSA_EState7>
0

>  <VSA_EState8>
-0.09

>  <VSA_EState9>
0

>  <apol>
39.7

>  <bpol>
15.56

>  <nRing>
3

>  <nHRing>
1

>  <naRing>
2

>  <naHRing>
0

>  <nARing 2>
1

>  <nAHRing 2>
1

>  <nFRing>
1

>  <nFHRing>
1

>  <nFaRing>
0

>  <nFaHRing>
0

>  <nFARing 2>
1

>  <nFAHRing 2>
1

>  <nRot>
1

>  <SLogP>
3.07

>  <SMR>
76.86

>  <TopoPSA(NO)>
52.57

>  <TopoPSA>
52.57

>  <JGI1>
0.18

>  <JGI2>
0.06

>  <JGI3>
0.05

>  <JGI4>
0.04

>  <JGI5>
0.02

>  <Diameter>
8

>  <Radius>
4

>  <TMWC10>
115.83

>  <TSRW10>
61.85

>  <MW>
288.07

>  <AMW>
8.73

>  <WPath>
719

>  <WPol>
35

>  <Zagreb1>
106

>  <Zagreb2>
125

>  <mZagreb2>
4.36

>  <yes>


>  <nAR-cont>
0.816016

>  <nHA-cont>
0.999629945

>  <MWHBN>
0.294592027

>  <MWHBN-cont>
0.856589634

>  <TPSA-cont>
0.633028756

>  <pka_cont>
0.97

>  <yes.1>


>  <BBB_SCORE>
4.851587907

>  <MMFF94 Energy>
102.84

$$$$
Compound 2921
Actelion Java MolfileCreator 2.0

  0  0  0  0  0  0              0 V3000
M  V30 BEGIN CTAB
M  V30 COUNTS 50 53 0 0 0
M  V30 BEGIN ATOM
M  V30 1 Cl 4.4989 0.6417 4.2575 0
M  V30 2 C 2.7817 0.7418 4.1632 0
M  V30 3 C 2.1034 0.0606 3.1483 0
M  V30 4 C 2.0866 1.5045 5.0955 0
M  V30 5 C 0.7075 0.1329 3.0324 0
M  V30 6 C 0.7012 1.5829 5.0105 0
M  V30 7 N -7.0E-4 -0.5291 2.0318 0
M  V30 8 C 0.0261 0.9031 3.9908 0
M  V30 9 C 0.6123 -1.6706 1.3268 0
M  V30 10 C -0.8875 0.2941 1.1832 0
M  V30 11 C -0.4481 -2.4909 0.5596 0
M  V30 12 C -1.8899 -0.577 0.3914 0
M  V30 13 N -1.2356 -1.6584 -0.3694 0
M  V30 14 C -2.1748 -2.4579 -1.1532 0
M  V30 15 C -2.6799 -1.7514 -2.4211 0
M  V30 16 C -1.6013 -1.5122 -3.4848 0
M  V30 17 N -0.6692 -0.4502 -3.1738 0
M  V30 18 N -1.0689 0.9195 -3.0744 0
M  V30 19 C 0.6486 -0.6429 -2.7192 0
M  V30 20 C 0.2006 1.634 -2.8786 0 CFG=2
M  V30 21 O 1.25 -1.7007 -2.6065 0
M  V30 22 N 1.1096 0.6322 -2.3828 0
M  V30 23 C 0.1795 2.8332 -1.9814 0
M  V30 24 C 2.213 0.9325 -1.6259 0
M  V30 25 C 1.2062 3.0847 -1.1482 0
M  V30 26 C 2.3079 2.1432 -1.0529 0
M  V30 27 H 2.6855 -0.5107 2.4322 0
M  V30 28 H 2.6138 2.0307 5.8857 0
M  V30 29 H 0.1402 2.1637 5.7378 0
M  V30 30 H -1.0598 0.9562 3.9678 0
M  V30 31 H 1.1014 -2.3424 2.043 0
M  V30 32 H 1.3716 -1.3089 0.6221 0
M  V30 33 H -0.2735 0.8719 0.4836 0
M  V30 34 H -1.4686 1.0112 1.7734 0
M  V30 35 H -1.113 -2.9885 1.2783 0
M  V30 36 H 0.0772 -3.2752 0.0015 0
M  V30 37 H -2.4385 0.0883 -0.2835 0
M  V30 38 H -2.6206 -1.0015 1.093 0
M  V30 39 H -3.0319 -2.7586 -0.5368 0
M  V30 40 H -1.6899 -3.3883 -1.4768 0
M  V30 41 H -3.4433 -2.4013 -2.8687 0
M  V30 42 H -3.1906 -0.8146 -2.1728 0
M  V30 43 H -1.0403 -2.4369 -3.6612 0
M  V30 44 H -2.0847 -1.2409 -4.4307 0
M  V30 45 H -1.4396 1.1977 -3.9817 0
M  V30 46 H 0.5739 1.9459 -3.8645 0
M  V30 47 H -0.6558 3.5195 -2.0514 0
M  V30 48 H 2.9331 0.1382 -1.4583 0
M  V30 49 H 1.2195 3.9602 -0.5073 0
M  V30 50 H 3.1479 2.3933 -0.413 0
M  V30 END ATOM
M  V30 BEGIN BOND
M  V30 1 1 1 2
M  V30 2 2 2 3
M  V30 3 1 2 4
M  V30 4 1 3 5
M  V30 5 2 4 6
M  V30 6 1 5 7
M  V30 7 2 5 8
M  V30 8 1 7 9
M  V30 9 1 7 10
M  V30 10 1 9 11
M  V30 11 1 10 12
M  V30 12 1 11 13
M  V30 13 1 13 14
M  V30 14 1 14 15
M  V30 15 1 15 16
M  V30 16 1 16 17
M  V30 17 1 17 18
M  V30 18 1 17 19
M  V30 19 1 18 20
M  V30 20 2 19 21
M  V30 21 1 19 22
M  V30 22 1 20 23
M  V30 23 1 22 24
M  V30 24 2 23 25
M  V30 25 2 24 26
M  V30 26 1 6 8
M  V30 27 1 12 13
M  V30 28 1 20 22
M  V30 29 1 25 26
M  V30 30 1 3 27
M  V30 31 1 4 28
M  V30 32 1 6 29
M  V30 33 1 8 30
M  V30 34 1 9 31
M  V30 35 1 9 32
M  V30 36 1 10 33
M  V30 37 1 10 34
M  V30 38 1 11 35
M  V30 39 1 11 36
M  V30 40 1 12 37
M  V30 41 1 12 38
M  V30 42 1 14 39
M  V30 43 1 14 40
M  V30 44 1 15 41
M  V30 45 1 15 42
M  V30 46 1 16 43
M  V30 47 1 16 44
M  V30 48 1 18 45
M  V30 49 1 20 46
M  V30 50 1 23 47
M  V30 51 1 24 48
M  V30 52 1 25 49
M  V30 53 1 26 50
M  V30 END BOND
M  V30 BEGIN COLLECTION
M  V30 MDLV30/STEABS ATOMS=(1 20)
M  V30 END COLLECTION
M  V30 END CTAB
M  END
>  <Column 1>
3756

>  <level_0>
6741

>  <index>
6742

>  <Unnamed: 0>
6742

>  <NO.>
6755

>  <Name>


>  <IUPAC_name>


>  <SMILES>
O=C1N(CCCN2CCN(c3cccc(Cl)c3)CC2)N[C@H]2C=CC=CN12

>  <CID>


>  <logBB>


>  <BBB+/BBB->
BBB+

>  <Inchi>
InChI=1S/C19H24ClN5O/c20-16-5-3-6-17(15-16)23-13-11-22(12-14-23)8-4-10-25-19(26)24-9-2-1-7-18(24)21-25/h1-3-5-7-9-15-18-21H-4-8-10-14H2/t18-/m1/s1

>  <threshold>


>  <reference>
R24|

>  <group>
C

>  <Class>
1

>  <ABC>
20.56

>  <ABCGG>
14.95

>  <nAcid>
0

>  <nBase>
1

>  <nAromAtom>
6

>  <nAromBond>
6

>  <nAtom>
50

>  <nHeavyAtom>
26

>  <nSpiro>
0

>  <nBridgehead>
0

>  <nHetero>
7

>  <nN>
5

>  <nO>
1

>  <nF>
0

>  <BalabanJ>
1.14

>  <BertzCT>
713.64

>  <nBonds>
53

>  <nBondsO>
29

>  <nBondsS>
44

>  <nBondsD>
3

>  <nBondsT>
0

>  <nBondsA>
6

>  <nBondsM>
9

>  <nBondsKS>
47

>  <nBondsKD>
6

>  <RNCG>
0.18

>  <RPCG>
0.16

>  <FCSP3>
0.42

>  <SZ>
33

>  <Sm>
31.13

>  <Sv>
31.1

>  <Sse>
50.07

>  <Sp>
33.66

>  <Si>
56.8

>  <MZ>
0.66

>  <Mm>
0.62

>  <Mv>
0.62

>  <Mse>
1

>  <Mp>
0.67

>  <Mi>
1.14

>  <NsCH3>
0

>  <NdCH2>
0

>  <NssCH2>
7

>  <NtCH>
0

>  <NdsCH>
4

>  <NaaCH>
4

>  <NsssCH>
1

>  <NddC>
0

>  <NtsC>
0

>  <NdssC>
1

>  <NaasC>
2

>  <NaaaC>
0

>  <NssssC>
0

>  <NsNH3>
0

>  <NsNH2>
0

>  <NssNH2>
0

>  <NdNH>
0

>  <NssNH>
1

>  <NaaNH>
0

>  <NtN>
0

>  <NsssNH>
0

>  <NdsN>
0

>  <NaaN>
0

>  <NsssN>
4

>  <NddsN>
0

>  <NaasN>
0

>  <NssssN>
0

>  <NsOH>
0

>  <NdO>
1

>  <NssO>
0

>  <NaaO>
0

>  <NsF>
0

>  <NsSiH3>
0

>  <NssSiH2>
0

>  <NsssSiH>
0

>  <NssssSi>
0

>  <NsPH2>
0

>  <NssPH>
0

>  <NsssP>
0

>  <NdsssP>
0

>  <NsssssP>
0

>  <NsSH>
0

>  <NdS>
0

>  <NssS>
0

>  <NaaS>
0

>  <NdssS>
0

>  <NddssS>
0

>  <NsCl>
1

>  <NsBr>
0

>  <NsI>
0

>  <fragCpx>
191.07

>  <fMF>
0.48

>  <nHBAcc>
4

>  <nHBDon>
1

>  <Kier1>
19.32

>  <Kier2>
9

>  <Lipinski>
1

>  <GhoseFilter>
1

>  <FilterItLogS>
-2.45

>  <VMcGowan>
277.34

>  <LabuteASA>
158.8

>  <PEOE_VSA1>
4.9

>  <PEOE_VSA2>
14.81

>  <PEOE_VSA3>
10.22

>  <PEOE_VSA4>
0

>  <PEOE_VSA5>
0

>  <PEOE_VSA6>
23.74

>  <PEOE_VSA7>
36.77

>  <PEOE_VSA8>
56.18

>  <PEOE_VSA9>
0

>  <PEOE_VSA10>
6.17

>  <PEOE_VSA11>
0

>  <PEOE_VSA12>
0

>  <PEOE_VSA13>
0

>  <SMR_VSA1>
4.79

>  <SMR_VSA2>
0

>  <SMR_VSA3>
20.23

>  <SMR_VSA4>
0

>  <SMR_VSA5>
12.59

>  <SMR_VSA6>
44.17

>  <SMR_VSA7>
53.72

>  <SMR_VSA8>
0

>  <SMR_VSA9>
0

>  <SlogP_VSA1>
10.33

>  <SlogP_VSA2>
66.27

>  <SlogP_VSA3>
0

>  <SlogP_VSA4>
0

>  <SlogP_VSA5>
6.42

>  <SlogP_VSA6>
48.69

>  <SlogP_VSA7>
5.02

>  <SlogP_VSA8>
0

>  <SlogP_VSA9>
0

>  <SlogP_VSA10>
10.48

>  <SlogP_VSA11>
0

>  <EState_VSA1>
0

>  <EState_VSA2>
12.2

>  <EState_VSA3>
0

>  <EState_VSA4>
50.71

>  <EState_VSA5>
5.69

>  <EState_VSA6>
9.91

>  <EState_VSA7>
42.63

>  <EState_VSA8>
21.29

>  <EState_VSA9>
11.6

>  <EState_VSA10>
4.79

>  <VSA_EState1>
0

>  <VSA_EState2>
18.89

>  <VSA_EState3>
2.51

>  <VSA_EState4>
4.44

>  <VSA_EState5>
0

>  <VSA_EState6>
8.08

>  <VSA_EState7>
8.6

>  <VSA_EState8>
5.81

>  <VSA_EState9>
0

>  <apol>
56.22

>  <bpol>
31.72

>  <nRing>
4

>  <nHRing>
3

>  <naRing>
1

>  <naHRing>
0

>  <nARing 2>
3

>  <nAHRing 2>
3

>  <nFRing>
1

>  <nFHRing>
1

>  <nFaRing>
0

>  <nFaHRing>
0

>  <nFARing 2>
1

>  <nFAHRing 2>
1

>  <nRot>
5

>  <SLogP>
2.5

>  <SMR>
103.87

>  <TopoPSA(NO)>
42.06

>  <TopoPSA>
42.06

>  <JGI1>
0.16

>  <JGI2>
0.07

>  <JGI3>
0.05

>  <JGI4>
0.03

>  <JGI5>
0.03

>  <Diameter>
15

>  <Radius>
8

>  <TMWC10>
130.55

>  <TSRW10>
75.23

>  <MW>
373.17

>  <AMW>
7.46

>  <WPath>
2003

>  <WPol>
39

>  <Zagreb1>
138

>  <Zagreb2>
162

>  <mZagreb2>
5.69

>  <yes>


>  <nAR-cont>
0.691115

>  <nHA-cont>
0.892715677

>  <MWHBN>
0.25883121

>  <MWHBN-cont>
0.943719329

>  <TPSA-cont>
0.706395082

>  <pka_cont>
0.97

>  <yes.1>


>  <BBB_SCORE>
4.897199836

>  <MMFF94 Energy>
99.075

$$$$
Compound 2922
Actelion Java MolfileCreator 2.0

  0  0  0  0  0  0              0 V3000
M  V30 BEGIN CTAB
M  V30 COUNTS 44 47 0 0 0
M  V30 BEGIN ATOM
M  V30 1 Cl -3.7185 4.5282 -2.8283 0
M  V30 2 C -2.495 3.4006 -2.3901 0
M  V30 3 C -2.7722 2.4113 -1.448 0
M  V30 4 C -1.235 3.4866 -2.9745 0
M  V30 5 C -1.7782 1.4866 -1.0771 0
M  V30 6 C -0.2461 2.5678 -2.6194 0
M  V30 7 C -0.508 1.5583 -1.6878 0
M  V30 8 C -2.0838 0.4129 -0.0318 0 CFG=1
M  V30 9 N 0.531 0.6704 -1.3705 0
M  V30 10 N -2.0782 -0.9759 -0.5905 0
M  V30 11 C -1.2765 0.5344 1.2786 0
M  V30 12 C 0.2775 -0.6094 -1.3073 0
M  V30 13 O -3.3819 -1.1792 -1.2182 0
M  V30 14 C -1.1026 -1.1884 -1.6782 0
M  V30 15 C -0.9252 -0.5992 2.0357 0
M  V30 16 C -0.9385 1.7966 1.8028 0
M  V30 17 N 1.236 -1.4992 -0.8772 0
M  V30 18 C -0.2293 -0.4789 3.2419 0
M  V30 19 C -0.2419 1.9166 3.0087 0
M  V30 20 C 2.5008 -1.0748 -0.3271 0
M  V30 21 C 0.1154 0.779 3.7259 0
M  V30 22 C 3.2923 -2.2895 0.0558 0
M  V30 23 C 4.2238 -2.2545 1.2412 0
M  V30 24 C 2.9559 -3.0608 1.3086 0
M  V30 25 H -3.761 2.3581 -0.9989 0
M  V30 26 H -1.0137 4.2606 -3.7038 0
M  V30 27 H 0.7406 2.6305 -3.0711 0
M  V30 28 H -3.1116 0.5874 0.3225 0
M  V30 29 H -3.7449 -1.907 -0.6782 0
M  V30 30 H -0.9989 -2.2668 -1.8451 0
M  V30 31 H -1.4316 -0.7545 -2.6312 0
M  V30 32 H -1.1875 -1.5958 1.6892 0
M  V30 33 H -1.2062 2.7074 1.2718 0
M  V30 34 H 0.9756 -2.4654 -0.7312 0
M  V30 35 H 0.04 -1.3696 3.8027 0
M  V30 36 H 0.0206 2.9019 3.3849 0
M  V30 37 H 2.3316 -0.4302 0.5435 0
M  V30 38 H 3.0657 -0.5005 -1.0696 0
M  V30 39 H 0.6577 0.8738 4.6625 0
M  V30 40 H 3.6157 -2.849 -0.815 0
M  V30 41 H 4.2793 -1.3485 1.8347 0
M  V30 42 H 5.1634 -2.7898 1.1634 0
M  V30 43 H 2.1575 -2.6933 1.9442 0
M  V30 44 H 3.0395 -4.141 1.2781 0
M  V30 END ATOM
M  V30 BEGIN BOND
M  V30 1 1 1 2
M  V30 2 2 2 3
M  V30 3 1 2 4
M  V30 4 1 3 5
M  V30 5 2 4 6
M  V30 6 2 5 7
M  V30 7 1 5 8
M  V30 8 1 7 9
M  V30 9 1 8 10
M  V30 10 1 8 11
M  V30 11 2 9 12
M  V30 12 1 10 13
M  V30 13 1 10 14
M  V30 14 2 11 15
M  V30 15 1 11 16
M  V30 16 1 12 17
M  V30 17 1 15 18
M  V30 18 2 16 19
M  V30 19 1 17 20
M  V30 20 2 18 21
M  V30 21 1 20 22
M  V30 22 1 22 23
M  V30 23 1 22 24
M  V30 24 1 6 7
M  V30 25 1 12 14
M  V30 26 1 19 21
M  V30 27 1 23 24
M  V30 28 1 3 25
M  V30 29 1 4 26
M  V30 30 1 6 27
M  V30 31 1 8 28
M  V30 32 1 13 29
M  V30 33 1 14 30
M  V30 34 1 14 31
M  V30 35 1 15 32
M  V30 36 1 16 33
M  V30 37 1 17 34
M  V30 38 1 18 35
M  V30 39 1 19 36
M  V30 40 1 20 37
M  V30 41 1 20 38
M  V30 42 1 21 39
M  V30 43 1 22 40
M  V30 44 1 23 41
M  V30 45 1 23 42
M  V30 46 1 24 43
M  V30 47 1 24 44
M  V30 END BOND
M  V30 BEGIN COLLECTION
M  V30 MDLV30/STEABS ATOMS=(1 8)
M  V30 END COLLECTION
M  V30 END CTAB
M  END
>  <Column 1>
3758

>  <level_0>
6761

>  <index>
6762

>  <Unnamed: 0>
6762

>  <NO.>
6775

>  <Name>


>  <IUPAC_name>


>  <SMILES>
ON1CC(NCC2CC2)=Nc2ccc(Cl)cc2[C@@H]1c1ccccc1

>  <CID>


>  <logBB>


>  <BBB+/BBB->
BBB+

>  <Inchi>
InChI=1S/C19H20ClN3O/c20-15-8-9-17-16(10-15)19(14-4-2-1-3-5-14)23(24)12-18(22-17)21-11-13-6-7-13/h1-5-8-10-13-19-24H-6-7-11-12H2-(H-21-22)/t19-/m0/s1

>  <threshold>


>  <reference>
R24|

>  <group>
C

>  <Class>
1

>  <ABC>
19.15

>  <ABCGG>
14.99

>  <nAcid>
0

>  <nBase>
2

>  <nAromAtom>
12

>  <nAromBond>
12

>  <nAtom>
44

>  <nHeavyAtom>
24

>  <nSpiro>
0

>  <nBridgehead>
0

>  <nHetero>
5

>  <nN>
3

>  <nO>
1

>  <nF>
0

>  <BalabanJ>
1.49

>  <BertzCT>
758.46

>  <nBonds>
47

>  <nBondsO>
27

>  <nBondsS>
34

>  <nBondsD>
1

>  <nBondsT>
0

>  <nBondsA>
12

>  <nBondsM>
13

>  <nBondsKS>
40

>  <nBondsKD>
7

>  <RNCG>
0.21

>  <RPCG>
0.14

>  <FCSP3>
0.32

>  <SZ>
30

>  <Sm>
28.46

>  <Sv>
28.5

>  <Sse>
43.96

>  <Sp>
30.75

>  <Si>
49.39

>  <MZ>
0.68

>  <Mm>
0.65

>  <Mv>
0.65

>  <Mse>
1

>  <Mp>
0.7

>  <Mi>
1.12

>  <NsCH3>
0

>  <NdCH2>
0

>  <NssCH2>
4

>  <NtCH>
0

>  <NdsCH>
0

>  <NaaCH>
8

>  <NsssCH>
2

>  <NddC>
0

>  <NtsC>
0

>  <NdssC>
1

>  <NaasC>
4

>  <NaaaC>
0

>  <NssssC>
0

>  <NsNH3>
0

>  <NsNH2>
0

>  <NssNH2>
0

>  <NdNH>
0

>  <NssNH>
1

>  <NaaNH>
0

>  <NtN>
0

>  <NsssNH>
0

>  <NdsN>
1

>  <NaaN>
0

>  <NsssN>
1

>  <NddsN>
0

>  <NaasN>
0

>  <NssssN>
0

>  <NsOH>
1

>  <NdO>
0

>  <NssO>
0

>  <NaaO>
0

>  <NsF>
0

>  <NsSiH3>
0

>  <NssSiH2>
0

>  <NsssSiH>
0

>  <NssssSi>
0

>  <NsPH2>
0

>  <NssPH>
0

>  <NsssP>
0

>  <NdsssP>
0

>  <NsssssP>
0

>  <NsSH>
0

>  <NdS>
0

>  <NssS>
0

>  <NaaS>
0

>  <NdssS>
0

>  <NddssS>
0

>  <NsCl>
1

>  <NsBr>
0

>  <NsI>
0

>  <fragCpx>
177.05

>  <fMF>
0.5

>  <nHBAcc>
4

>  <nHBDon>
2

>  <Kier1>
17.42

>  <Kier2>
7.71

>  <Lipinski>
1

>  <GhoseFilter>
1

>  <FilterItLogS>
-4.74

>  <VMcGowan>
253.08

>  <LabuteASA>
146.29

>  <PEOE_VSA1>
10.52

>  <PEOE_VSA2>
0

>  <PEOE_VSA3>
4.99

>  <PEOE_VSA4>
5.06

>  <PEOE_VSA5>
0

>  <PEOE_VSA6>
41.93

>  <PEOE_VSA7>
42.52

>  <PEOE_VSA8>
17.13

>  <PEOE_VSA9>
18.27

>  <PEOE_VSA10>
5.84

>  <PEOE_VSA11>
0

>  <PEOE_VSA12>
0

>  <PEOE_VSA13>
0

>  <SMR_VSA1>
5.21

>  <SMR_VSA2>
0

>  <SMR_VSA3>
10.38

>  <SMR_VSA4>
10.91

>  <SMR_VSA5>
18.88

>  <SMR_VSA6>
13.09

>  <SMR_VSA7>
64.68

>  <SMR_VSA8>
0

>  <SMR_VSA9>
0

>  <SlogP_VSA1>
5.32

>  <SlogP_VSA2>
29.2

>  <SlogP_VSA3>
0

>  <SlogP_VSA4>
5.92

>  <SlogP_VSA5>
30.01

>  <SlogP_VSA6>
53.52

>  <SlogP_VSA7>
5.02

>  <SlogP_VSA8>
0

>  <SlogP_VSA9>
0

>  <SlogP_VSA10>
5.69

>  <SlogP_VSA11>
0

>  <EState_VSA1>
0

>  <EState_VSA2>
6.04

>  <EState_VSA3>
11.57

>  <EState_VSA4>
35.11

>  <EState_VSA5>
17.9

>  <EState_VSA6>
0

>  <EState_VSA7>
48.53

>  <EState_VSA8>
5.32

>  <EState_VSA9>
16.59

>  <EState_VSA10>
5.21

>  <VSA_EState1>
0

>  <VSA_EState2>
4.75

>  <VSA_EState3>
16.15

>  <VSA_EState4>
2.78

>  <VSA_EState5>
1.55

>  <VSA_EState6>
15.33

>  <VSA_EState7>
2.56

>  <VSA_EState8>
1.28

>  <VSA_EState9>
0

>  <apol>
51.35

>  <bpol>
22.85

>  <nRing>
4

>  <nHRing>
1

>  <naRing>
2

>  <naHRing>
0

>  <nARing 2>
2

>  <nAHRing 2>
1

>  <nFRing>
1

>  <nFHRing>
1

>  <nFaRing>
0

>  <nFaHRing>
0

>  <nFARing 2>
1

>  <nFAHRing 2>
1

>  <nRot>
3

>  <SLogP>
4.16

>  <SMR>
96.05

>  <TopoPSA(NO)>
47.86

>  <TopoPSA>
47.86

>  <JGI1>
0.17

>  <JGI2>
0.07

>  <JGI3>
0.05

>  <JGI4>
0.04

>  <JGI5>
0.02

>  <Diameter>
11

>  <Radius>
6

>  <TMWC10>
126.62

>  <TSRW10>
77.13

>  <MW>
341.13

>  <AMW>
7.75

>  <WPath>
1263

>  <WPol>
40

>  <Zagreb1>
130

>  <Zagreb2>
154

>  <mZagreb2>
5.19

>  <yes>


>  <nAR-cont>
1

>  <nHA-cont>
0.94700071

>  <MWHBN>
0.3248563

>  <MWHBN-cont>
0.76068495

>  <TPSA-cont>
0.665907481

>  <pka_cont>
0.97

>  <yes.1>


>  <BBB_SCORE>
4.904843096

>  <MMFF94 Energy>
98.03

$$$$
Compound 2923
Actelion Java MolfileCreator 2.0

  0  0  0  0  0  0              0 V3000
M  V30 BEGIN CTAB
M  V30 COUNTS 35 38 0 0 0
M  V30 BEGIN ATOM
M  V30 1 Cl -3.0155 -5.3021 0.1628 0
M  V30 2 C -2.3444 -3.7281 -0.0116 0
M  V30 3 C -2.9976 -2.6313 0.539 0
M  V30 4 C -1.1527 -3.5562 -0.7081 0
M  V30 5 C -2.4496 -1.3532 0.394 0
M  V30 6 C -0.6059 -2.2761 -0.852 0
M  V30 7 C -1.238 -1.1456 -0.2994 0
M  V30 8 C -0.6651 0.2823 -0.4309 0 CFG=2
M  V30 9 O -1.7403 1.1134 -0.8451 0
M  V30 10 N 0.4524 0.3474 -1.409 0
M  V30 11 C -0.0855 0.7836 0.8719 0
M  V30 12 C 1.6975 0.3345 -0.5973 0 CFG=2
M  V30 13 C 0.5326 1.6303 -2.1223 0
M  V30 14 C 1.3077 0.7991 0.7714 0
M  V30 15 C -0.7141 1.1992 2.0373 0
M  V30 16 N 2.6583 1.217 -1.2493 0
M  V30 17 C 2.0053 1.6848 -2.4713 0
M  V30 18 C 2.1033 1.1965 1.8347 0
M  V30 19 C 0.0773 1.6064 3.1142 0
M  V30 20 C 1.477 1.6012 3.0148 0
M  V30 21 H -3.9309 -2.759 1.0806 0
M  V30 22 H -0.6425 -4.4107 -1.1443 0
M  V30 23 H -2.9813 -0.5065 0.8253 0
M  V30 24 H 0.3211 -2.1782 -1.4116 0
M  V30 25 H -2.0408 0.7066 -1.6734 0
M  V30 26 H 2.088 -0.6883 -0.5374 0
M  V30 27 H 0.2672 2.4949 -1.4989 0
M  V30 28 H -0.095 1.6302 -3.0187 0
M  V30 29 H -1.7961 1.2194 2.1119 0
M  V30 30 H 3.4903 0.6863 -1.4904 0
M  V30 31 H 2.3319 2.6947 -2.7345 0
M  V30 32 H 2.2355 1.0118 -3.3063 0
M  V30 33 H 3.1847 1.2106 1.7464 0
M  V30 34 H -0.3947 1.9367 4.0363 0
M  V30 35 H 2.0775 1.9265 3.8607 0
M  V30 END ATOM
M  V30 BEGIN BOND
M  V30 1 1 1 2
M  V30 2 2 2 3
M  V30 3 1 2 4
M  V30 4 1 3 5
M  V30 5 2 4 6
M  V30 6 2 5 7
M  V30 7 1 7 8
M  V30 8 1 8 9
M  V30 9 1 8 10
M  V30 10 1 8 11
M  V30 11 1 10 12
M  V30 12 1 10 13
M  V30 13 2 11 14
M  V30 14 1 11 15
M  V30 15 1 12 16
M  V30 16 1 13 17
M  V30 17 1 14 18
M  V30 18 2 15 19
M  V30 19 2 18 20
M  V30 20 1 6 7
M  V30 21 1 12 14
M  V30 22 1 16 17
M  V30 23 1 19 20
M  V30 24 1 3 21
M  V30 25 1 4 22
M  V30 26 1 5 23
M  V30 27 1 6 24
M  V30 28 1 9 25
M  V30 29 1 12 26
M  V30 30 1 13 27
M  V30 31 1 13 28
M  V30 32 1 15 29
M  V30 33 1 16 30
M  V30 34 1 17 31
M  V30 35 1 17 32
M  V30 36 1 18 33
M  V30 37 1 19 34
M  V30 38 1 20 35
M  V30 END BOND
M  V30 BEGIN COLLECTION
M  V30 MDLV30/STEABS ATOMS=(2 8 12)
M  V30 END COLLECTION
M  V30 END CTAB
M  END
>  <Column 1>
3759

>  <level_0>
6768

>  <index>
6769

>  <Unnamed: 0>
6769

>  <NO.>
6782

>  <Name>


>  <IUPAC_name>


>  <SMILES>
O[C@]1(c2ccc(Cl)cc2)c2ccccc2[C@@H]2NCCN21

>  <CID>


>  <logBB>


>  <BBB+/BBB->
BBB+

>  <Inchi>
InChI=1S/C16H15ClN2O/c17-12-7-5-11(6-8-12)16(20)14-4-2-1-3-13(14)15-18-9-10-19(15)16/h1-8-15-18-20H-9-10H2/t15--16-/m1/s1

>  <threshold>


>  <reference>
R24|

>  <group>
C

>  <Class>
1

>  <ABC>
16.23

>  <ABCGG>
13.74

>  <nAcid>
0

>  <nBase>
2

>  <nAromAtom>
12

>  <nAromBond>
12

>  <nAtom>
35

>  <nHeavyAtom>
20

>  <nSpiro>
0

>  <nBridgehead>
0

>  <nHetero>
4

>  <nN>
2

>  <nO>
1

>  <nF>
0

>  <BalabanJ>
1.63

>  <BertzCT>
657.78

>  <nBonds>
38

>  <nBondsO>
23

>  <nBondsS>
26

>  <nBondsD>
0

>  <nBondsT>
0

>  <nBondsA>
12

>  <nBondsM>
12

>  <nBondsKS>
32

>  <nBondsKD>
6

>  <RNCG>
0.26

>  <RPCG>
0.15

>  <FCSP3>
0.25

>  <SZ>
25

>  <Sm>
23.87

>  <Sv>
23.39

>  <Sse>
35.08

>  <Sp>
25.09

>  <Si>
39.06

>  <MZ>
0.71

>  <Mm>
0.68

>  <Mv>
0.67

>  <Mse>
1

>  <Mp>
0.72

>  <Mi>
1.12

>  <NsCH3>
0

>  <NdCH2>
0

>  <NssCH2>
2

>  <NtCH>
0

>  <NdsCH>
0

>  <NaaCH>
8

>  <NsssCH>
1

>  <NddC>
0

>  <NtsC>
0

>  <NdssC>
0

>  <NaasC>
4

>  <NaaaC>
0

>  <NssssC>
1

>  <NsNH3>
0

>  <NsNH2>
0

>  <NssNH2>
0

>  <NdNH>
0

>  <NssNH>
1

>  <NaaNH>
0

>  <NtN>
0

>  <NsssNH>
0

>  <NdsN>
0

>  <NaaN>
0

>  <NsssN>
1

>  <NddsN>
0

>  <NaasN>
0

>  <NssssN>
0

>  <NsOH>
1

>  <NdO>
0

>  <NssO>
0

>  <NaaO>
0

>  <NsF>
0

>  <NsSiH3>
0

>  <NssSiH2>
0

>  <NsssSiH>
0

>  <NssssSi>
0

>  <NsPH2>
0

>  <NssPH>
0

>  <NsssP>
0

>  <NdsssP>
0

>  <NsssssP>
0

>  <NsSH>
0

>  <NdS>
0

>  <NssS>
0

>  <NaaS>
0

>  <NdssS>
0

>  <NddssS>
0

>  <NsCl>
1

>  <NsBr>
0

>  <NsI>
0

>  <fragCpx>
149.04

>  <fMF>
0.51

>  <nHBAcc>
3

>  <nHBDon>
2

>  <Kier1>
13.65

>  <Kier2>
5.03

>  <Lipinski>
1

>  <GhoseFilter>
1

>  <FilterItLogS>
-3.99

>  <VMcGowan>
205.13

>  <LabuteASA>
122.34

>  <PEOE_VSA1>
5.11

>  <PEOE_VSA2>
5.32

>  <PEOE_VSA3>
4.9

>  <PEOE_VSA4>
0

>  <PEOE_VSA5>
0

>  <PEOE_VSA6>
48

>  <PEOE_VSA7>
17.7

>  <PEOE_VSA8>
29.24

>  <PEOE_VSA9>
6.17

>  <PEOE_VSA10>
0

>  <PEOE_VSA11>
5.72

>  <PEOE_VSA12>
0

>  <PEOE_VSA13>
0

>  <SMR_VSA1>
5.11

>  <SMR_VSA2>
0

>  <SMR_VSA3>
10.22

>  <SMR_VSA4>
0

>  <SMR_VSA5>
11.89

>  <SMR_VSA6>
13.09

>  <SMR_VSA7>
70.24

>  <SMR_VSA8>
0

>  <SMR_VSA9>
0

>  <SlogP_VSA1>
5.32

>  <SlogP_VSA2>
23.1

>  <SlogP_VSA3>
5.72

>  <SlogP_VSA4>
0

>  <SlogP_VSA5>
22.86

>  <SlogP_VSA6>
48.53

>  <SlogP_VSA7>
5.02

>  <SlogP_VSA8>
0

>  <SlogP_VSA9>
0

>  <SlogP_VSA10>
0

>  <SlogP_VSA11>
0

>  <EState_VSA1>
5.72

>  <EState_VSA2>
6.17

>  <EState_VSA3>
5.02

>  <EState_VSA4>
29.78

>  <EState_VSA5>
0

>  <EState_VSA6>
0

>  <EState_VSA7>
42.46

>  <EState_VSA8>
16.28

>  <EState_VSA9>
11.6

>  <EState_VSA10>
5.11

>  <VSA_EState1>
0

>  <VSA_EState2>
2.11

>  <VSA_EState3>
15.55

>  <VSA_EState4>
1.9

>  <VSA_EState5>
0

>  <VSA_EState6>
15.54

>  <VSA_EState7>
0.09

>  <VSA_EState8>
1.7

>  <VSA_EState9>
0

>  <apol>
41.9

>  <bpol>
17.84

>  <nRing>
4

>  <nHRing>
2

>  <naRing>
2

>  <naHRing>
0

>  <nARing 2>
2

>  <nAHRing 2>
2

>  <nFRing>
1

>  <nFHRing>
1

>  <nFaRing>
0

>  <nFaHRing>
0

>  <nFARing 2>
1

>  <nFAHRing 2>
1

>  <nRot>
1

>  <SLogP>
2.45

>  <SMR>
78.34

>  <TopoPSA(NO)>
35.5

>  <TopoPSA>
35.5

>  <JGI1>
0.17

>  <JGI2>
0.1

>  <JGI3>
0.07

>  <JGI4>
0.04

>  <JGI5>
0.02

>  <Diameter>
9

>  <Radius>
5

>  <TMWC10>
119.86

>  <TSRW10>
71.13

>  <MW>
286.09

>  <AMW>
8.17

>  <WPath>
702

>  <WPol>
37

>  <Zagreb1>
116

>  <Zagreb2>
146

>  <mZagreb2>
4.25

>  <yes>


>  <nAR-cont>
1

>  <nHA-cont>
0.999629945

>  <MWHBN>
0.29560969

>  <MWHBN-cont>
0.853654434

>  <TPSA-cont>
0.752187956

>  <pka_cont>
0.97

>  <yes.1>


>  <BBB_SCORE>
5.269487507

>  <MMFF94 Energy>
-7.1495

$$$$
Compound 2924
Actelion Java MolfileCreator 2.0

  0  0  0  0  0  0              0 V3000
M  V30 BEGIN CTAB
M  V30 COUNTS 28 30 0 0 0
M  V30 BEGIN ATOM
M  V30 1 S 0.2445 -2.2838 2.5287 0
M  V30 2 C 0.2767 -1.1445 1.1403 0 CFG=2
M  V30 3 C 1.8345 -1.7084 3.1542 0
M  V30 4 N 1.4977 -0.339 1.1932 0
M  V30 5 N -0.8287 -0.2152 1.1904 0
M  V30 6 C 1.9275 -0.2928 2.6015 0
M  V30 7 C 1.1116 0.9997 0.6995 0
M  V30 8 C -0.389 0.9164 0.368 0 CFG=1
M  V30 9 C -0.7805 0.7457 -1.0909 0
M  V30 10 C 0.0544 0.1499 -2.0486 0
M  V30 11 C -2.0596 1.1674 -1.497 0
M  V30 12 C -0.3679 -5.0E-4 -3.3721 0
M  V30 13 C -2.4808 1.0169 -2.8196 0
M  V30 14 C -1.6332 0.4346 -3.7575 0
M  V30 15 H 0.2597 -1.7293 0.2139 0
M  V30 16 H 1.8603 -1.7256 4.247 0
M  V30 17 H 2.6335 -2.3464 2.764 0
M  V30 18 H -1.6522 -0.6585 0.7948 0
M  V30 19 H 1.2952 0.3737 3.206 0
M  V30 20 H 2.9557 0.0783 2.6741 0
M  V30 21 H 1.7283 1.2781 -0.1608 0
M  V30 22 H 1.2757 1.7699 1.4648 0
M  V30 23 H -0.8693 1.8309 0.7393 0
M  V30 24 H 1.0431 -0.216 -1.7804 0
M  V30 25 H -2.7406 1.6187 -0.7769 0
M  V30 26 H 0.292 -0.4631 -4.1016 0
M  V30 27 H -3.4715 1.3519 -3.1158 0
M  V30 28 H -1.9599 0.3152 -4.7871 0
M  V30 END ATOM
M  V30 BEGIN BOND
M  V30 1 1 1 2
M  V30 2 1 1 3
M  V30 3 1 2 4
M  V30 4 1 2 5
M  V30 5 1 3 6
M  V30 6 1 4 7
M  V30 7 1 5 8
M  V30 8 1 8 9
M  V30 9 2 9 10
M  V30 10 1 9 11
M  V30 11 1 10 12
M  V30 12 2 11 13
M  V30 13 2 12 14
M  V30 14 1 4 6
M  V30 15 1 7 8
M  V30 16 1 13 14
M  V30 17 1 2 15
M  V30 18 1 3 16
M  V30 19 1 3 17
M  V30 20 1 5 18
M  V30 21 1 6 19
M  V30 22 1 6 20
M  V30 23 1 7 21
M  V30 24 1 7 22
M  V30 25 1 8 23
M  V30 26 1 10 24
M  V30 27 1 11 25
M  V30 28 1 12 26
M  V30 29 1 13 27
M  V30 30 1 14 28
M  V30 END BOND
M  V30 BEGIN COLLECTION
M  V30 MDLV30/STEABS ATOMS=(2 2 8)
M  V30 END COLLECTION
M  V30 END CTAB
M  END
>  <Column 1>
3760

>  <level_0>
6776

>  <index>
6777

>  <Unnamed: 0>
6777

>  <NO.>
6790

>  <Name>


>  <IUPAC_name>


>  <SMILES>
c1ccc([C@@H]2CN3CCS[C@H]3N2)cc1

>  <CID>


>  <logBB>


>  <BBB+/BBB->
BBB+

>  <Inchi>
InChI=1S/C11H14N2S/c1-2-4-9(5-3-1)10-8-13-6-7-14-11(13)12-10/h1-5-10-12H-6-8H2/t10--11-/m0/s1

>  <threshold>


>  <reference>
R24|

>  <group>
C

>  <Class>
1

>  <ABC>
11.23

>  <ABCGG>
9.78

>  <nAcid>
0

>  <nBase>
2

>  <nAromAtom>
6

>  <nAromBond>
6

>  <nAtom>
28

>  <nHeavyAtom>
14

>  <nSpiro>
0

>  <nBridgehead>
0

>  <nHetero>
3

>  <nN>
2

>  <nO>
0

>  <nF>
0

>  <BalabanJ>
1.59

>  <BertzCT>
302.32

>  <nBonds>
30

>  <nBondsO>
16

>  <nBondsS>
24

>  <nBondsD>
0

>  <nBondsT>
0

>  <nBondsA>
6

>  <nBondsM>
6

>  <nBondsKS>
27

>  <nBondsKD>
3

>  <RNCG>
0.28

>  <RPCG>
0.12

>  <FCSP3>
0.45

>  <SZ>
18.33

>  <Sm>
17.18

>  <Sv>
17.5

>  <Sse>
27.62

>  <Sp>
19.64

>  <Si>
31.41

>  <MZ>
0.65

>  <Mm>
0.61

>  <Mv>
0.62

>  <Mse>
0.99

>  <Mp>
0.7

>  <Mi>
1.12

>  <NsCH3>
0

>  <NdCH2>
0

>  <NssCH2>
3

>  <NtCH>
0

>  <NdsCH>
0

>  <NaaCH>
5

>  <NsssCH>
2

>  <NddC>
0

>  <NtsC>
0

>  <NdssC>
0

>  <NaasC>
1

>  <NaaaC>
0

>  <NssssC>
0

>  <NsNH3>
0

>  <NsNH2>
0

>  <NssNH2>
0

>  <NdNH>
0

>  <NssNH>
1

>  <NaaNH>
0

>  <NtN>
0

>  <NsssNH>
0

>  <NdsN>
0

>  <NaaN>
0

>  <NsssN>
1

>  <NddsN>
0

>  <NaasN>
0

>  <NssssN>
0

>  <NsOH>
0

>  <NdO>
0

>  <NssO>
0

>  <NaaO>
0

>  <NsF>
0

>  <NsSiH3>
0

>  <NssSiH2>
0

>  <NsssSiH>
0

>  <NssssSi>
0

>  <NsPH2>
0

>  <NssPH>
0

>  <NsssP>
0

>  <NdsssP>
0

>  <NsssssP>
0

>  <NsSH>
0

>  <NdS>
0

>  <NssS>
1

>  <NaaS>
0

>  <NdssS>
0

>  <NddssS>
0

>  <NsCl>
0

>  <NsBr>
0

>  <NsI>
0

>  <fragCpx>
74.03

>  <fMF>
0.5

>  <nHBAcc>
3

>  <nHBDon>
1

>  <Kier1>
9.24

>  <Kier2>
3.87

>  <Lipinski>
1

>  <GhoseFilter>
1

>  <FilterItLogS>
-2.06

>  <VMcGowan>
156.68

>  <LabuteASA>
88.68

>  <PEOE_VSA1>
0

>  <PEOE_VSA2>
10.22

>  <PEOE_VSA3>
0

>  <PEOE_VSA4>
0

>  <PEOE_VSA5>
11.76

>  <PEOE_VSA6>
30.33

>  <PEOE_VSA7>
5.56

>  <PEOE_VSA8>
24.88

>  <PEOE_VSA9>
0

>  <PEOE_VSA10>
5.5

>  <PEOE_VSA11>
0

>  <PEOE_VSA12>
0

>  <PEOE_VSA13>
0

>  <SMR_VSA1>
0

>  <SMR_VSA2>
0

>  <SMR_VSA3>
10.22

>  <SMR_VSA4>
0

>  <SMR_VSA5>
11.54

>  <SMR_VSA6>
18.84

>  <SMR_VSA7>
35.9

>  <SMR_VSA8>
0

>  <SMR_VSA9>
0

>  <SlogP_VSA1>
5.32

>  <SlogP_VSA2>
29.24

>  <SlogP_VSA3>
0

>  <SlogP_VSA4>
0

>  <SlogP_VSA5>
11.61

>  <SlogP_VSA6>
30.33

>  <SlogP_VSA7>
0

>  <SlogP_VSA8>
0

>  <SlogP_VSA9>
0

>  <SlogP_VSA10>
0

>  <SlogP_VSA11>
0

>  <EState_VSA1>
0

>  <EState_VSA2>
0

>  <EState_VSA3>
11.54

>  <EState_VSA4>
0

>  <EState_VSA5>
24.41

>  <EState_VSA6>
0

>  <EState_VSA7>
11.76

>  <EState_VSA8>
40.55

>  <EState_VSA9>
0

>  <EState_VSA10>
0

>  <VSA_EState1>
0

>  <VSA_EState2>
2.53

>  <VSA_EState3>
3.66

>  <VSA_EState4>
1.99

>  <VSA_EState5>
1.28

>  <VSA_EState6>
11.28

>  <VSA_EState7>
0

>  <VSA_EState8>
2.41

>  <VSA_EState9>
0

>  <apol>
32.81

>  <bpol>
18.78

>  <nRing>
3

>  <nHRing>
2

>  <naRing>
1

>  <naHRing>
0

>  <nARing 2>
2

>  <nAHRing 2>
2

>  <nFRing>
1

>  <nFHRing>
1

>  <nFaRing>
0

>  <nFaHRing>
0

>  <nFARing 2>
1

>  <nFAHRing 2>
1

>  <nRot>
1

>  <SLogP>
1.66

>  <SMR>
60.14

>  <TopoPSA(NO)>
15.27

>  <TopoPSA>
40.57

>  <JGI1>
0.13

>  <JGI2>
0.06

>  <JGI3>
0.04

>  <JGI4>
0.03

>  <JGI5>
0.02

>  <Diameter>
8

>  <Radius>
4

>  <TMWC10>
100.5

>  <TSRW10>
61.72

>  <MW>
206.09

>  <AMW>
7.36

>  <WPath>
298

>  <WPol>
17

>  <Zagreb1>
76

>  <Zagreb2>
90

>  <mZagreb2>
3.06

>  <yes>


>  <nAR-cont>
1

>  <nHA-cont>
0.887625254

>  <MWHBN>
0.278632346

>  <MWHBN-cont>
0.899520916

>  <TPSA-cont>
0.716796208

>  <pka_cont>
0.97

>  <yes.1>


>  <BBB_SCORE>
5.155499044

>  <MMFF94 Energy>
-12.077

$$$$
Compound 2925
Actelion Java MolfileCreator 2.0

  0  0  0  0  0  0              0 V3000
M  V30 BEGIN CTAB
M  V30 COUNTS 29 31 0 0 0
M  V30 BEGIN ATOM
M  V30 1 N 0.556 0.2382 -0.9534 0
M  V30 2 C 1.7693 0.303 -0.158 0 CFG=1
M  V30 3 C -0.2959 -0.767 -0.3076 0 CFG=2
M  V30 4 C 0.9807 -0.135 -2.3029 0
M  V30 5 N 1.8704 -0.8555 0.6895 0
M  V30 6 N 2.8975 0.2061 -1.0543 0
M  V30 7 C -1.3158 -0.0933 0.603 0
M  V30 8 C 0.7178 -1.7018 0.3608 0
M  V30 9 C 2.3517 0.5058 -2.3776 0
M  V30 10 C -1.0997 0.1266 1.9722 0
M  V30 11 C -2.5221 0.3639 0.0419 0
M  V30 12 C -2.068 0.7569 2.7586 0
M  V30 13 C -3.4894 0.9937 0.828 0
M  V30 14 C -3.2633 1.1864 2.1879 0
M  V30 15 H 1.7982 1.2267 0.4305 0
M  V30 16 H -0.8679 -1.346 -1.0462 0
M  V30 17 H 1.065 -1.2204 -2.4426 0
M  V30 18 H 0.2993 0.2643 -3.0599 0
M  V30 19 H 2.7232 -1.3221 0.3901 0
M  V30 20 H 3.5758 0.9163 -0.7925 0
M  V30 21 H 0.3326 -2.2118 1.2488 0
M  V30 22 H 1.0404 -2.4729 -0.3503 0
M  V30 23 H 2.2789 1.5897 -2.5302 0
M  V30 24 H 2.9687 0.0759 -3.1713 0
M  V30 25 H -0.1691 -0.1783 2.4453 0
M  V30 26 H -2.7086 0.2362 -1.0222 0
M  V30 27 H -1.8823 0.918 3.8173 0
M  V30 28 H -4.4151 1.3392 0.3759 0
M  V30 29 H -4.0129 1.6796 2.8006 0
M  V30 END ATOM
M  V30 BEGIN BOND
M  V30 1 1 1 2
M  V30 2 1 1 3
M  V30 3 1 1 4
M  V30 4 1 2 5
M  V30 5 1 2 6
M  V30 6 1 3 7
M  V30 7 1 3 8
M  V30 8 1 4 9
M  V30 9 2 7 10
M  V30 10 1 7 11
M  V30 11 1 10 12
M  V30 12 2 11 13
M  V30 13 2 12 14
M  V30 14 1 5 8
M  V30 15 1 6 9
M  V30 16 1 13 14
M  V30 17 1 2 15
M  V30 18 1 3 16
M  V30 19 1 4 17
M  V30 20 1 4 18
M  V30 21 1 5 19
M  V30 22 1 6 20
M  V30 23 1 8 21
M  V30 24 1 8 22
M  V30 25 1 9 23
M  V30 26 1 9 24
M  V30 27 1 10 25
M  V30 28 1 11 26
M  V30 29 1 12 27
M  V30 30 1 13 28
M  V30 31 1 14 29
M  V30 END BOND
M  V30 BEGIN COLLECTION
M  V30 MDLV30/STEABS ATOMS=(2 2 3)
M  V30 END COLLECTION
M  V30 END CTAB
M  END
>  <Column 1>
3761

>  <level_0>
6777

>  <index>
6778

>  <Unnamed: 0>
6778

>  <NO.>
6791

>  <Name>


>  <IUPAC_name>


>  <SMILES>
c1ccc([C@@H]2CN[C@H]3NCCN32)cc1

>  <CID>


>  <logBB>


>  <BBB+/BBB->
BBB+

>  <Inchi>
InChI=1S/C11H15N3/c1-2-4-9(5-3-1)10-8-13-11-12-6-7-14(10)11/h1-5-10-13H-6-8H2/t10--11+/m0/s1

>  <threshold>


>  <reference>
R24|

>  <group>
C

>  <Class>
1

>  <ABC>
11.19

>  <ABCGG>
10.05

>  <nAcid>
0

>  <nBase>
3

>  <nAromAtom>
6

>  <nAromBond>
6

>  <nAtom>
29

>  <nHeavyAtom>
14

>  <nSpiro>
0

>  <nBridgehead>
0

>  <nHetero>
3

>  <nN>
3

>  <nO>
0

>  <nF>
0

>  <BalabanJ>
1.66

>  <BertzCT>
311.57

>  <nBonds>
31

>  <nBondsO>
16

>  <nBondsS>
25

>  <nBondsD>
0

>  <nBondsT>
0

>  <nBondsA>
6

>  <nBondsM>
6

>  <nBondsKS>
28

>  <nBondsKD>
3

>  <RNCG>
0.25

>  <RPCG>
0.11

>  <FCSP3>
0.45

>  <SZ>
17

>  <Sm>
15.76

>  <Sv>
17.34

>  <Sse>
28.65

>  <Sp>
18.97

>  <Si>
32.99

>  <MZ>
0.59

>  <Mm>
0.54

>  <Mv>
0.6

>  <Mse>
0.99

>  <Mp>
0.65

>  <Mi>
1.14

>  <NsCH3>
0

>  <NdCH2>
0

>  <NssCH2>
3

>  <NtCH>
0

>  <NdsCH>
0

>  <NaaCH>
5

>  <NsssCH>
2

>  <NddC>
0

>  <NtsC>
0

>  <NdssC>
0

>  <NaasC>
1

>  <NaaaC>
0

>  <NssssC>
0

>  <NsNH3>
0

>  <NsNH2>
0

>  <NssNH2>
0

>  <NdNH>
0

>  <NssNH>
2

>  <NaaNH>
0

>  <NtN>
0

>  <NsssNH>
0

>  <NdsN>
0

>  <NaaN>
0

>  <NsssN>
1

>  <NddsN>
0

>  <NaasN>
0

>  <NssssN>
0

>  <NsOH>
0

>  <NdO>
0

>  <NssO>
0

>  <NaaO>
0

>  <NsF>
0

>  <NsSiH3>
0

>  <NssSiH2>
0

>  <NsssSiH>
0

>  <NssssSi>
0

>  <NsPH2>
0

>  <NssPH>
0

>  <NsssP>
0

>  <NdsssP>
0

>  <NsssssP>
0

>  <NsSH>
0

>  <NdS>
0

>  <NssS>
0

>  <NaaS>
0

>  <NdssS>
0

>  <NddssS>
0

>  <NsCl>
0

>  <NsBr>
0

>  <NsI>
0

>  <fragCpx>
74.03

>  <fMF>
0.48

>  <nHBAcc>
3

>  <nHBDon>
2

>  <Kier1>
9.24

>  <Kier2>
3.87

>  <Lipinski>
1

>  <GhoseFilter>
1

>  <FilterItLogS>
-2

>  <VMcGowan>
150.31

>  <LabuteASA>
84.1

>  <PEOE_VSA1>
0

>  <PEOE_VSA2>
15.53

>  <PEOE_VSA3>
0

>  <PEOE_VSA4>
0

>  <PEOE_VSA5>
0

>  <PEOE_VSA6>
30.33

>  <PEOE_VSA7>
5.56

>  <PEOE_VSA8>
19.63

>  <PEOE_VSA9>
6.04

>  <PEOE_VSA10>
6.29

>  <PEOE_VSA11>
0

>  <PEOE_VSA12>
0

>  <PEOE_VSA13>
0

>  <SMR_VSA1>
0

>  <SMR_VSA2>
0

>  <SMR_VSA3>
15.53

>  <SMR_VSA4>
0

>  <SMR_VSA5>
12.33

>  <SMR_VSA6>
19.63

>  <SMR_VSA7>
35.9

>  <SMR_VSA8>
0

>  <SMR_VSA9>
0

>  <SlogP_VSA1>
10.63

>  <SlogP_VSA2>
30.82

>  <SlogP_VSA3>
0

>  <SlogP_VSA4>
0

>  <SlogP_VSA5>
11.61

>  <SlogP_VSA6>
30.33

>  <SlogP_VSA7>
0

>  <SlogP_VSA8>
0

>  <SlogP_VSA9>
0

>  <SlogP_VSA10>
0

>  <SlogP_VSA11>
0

>  <EState_VSA1>
0

>  <EState_VSA2>
0

>  <EState_VSA3>
12.33

>  <EState_VSA4>
19.63

>  <EState_VSA5>
5.56

>  <EState_VSA6>
0

>  <EState_VSA7>
0

>  <EState_VSA8>
45.87

>  <EState_VSA9>
0

>  <EState_VSA10>
0

>  <VSA_EState1>
0

>  <VSA_EState2>
2.5

>  <VSA_EState3>
6.92

>  <VSA_EState4>
1.42

>  <VSA_EState5>
0

>  <VSA_EState6>
11.29

>  <VSA_EState7>
0.4

>  <VSA_EState8>
3.31

>  <VSA_EState9>
0

>  <apol>
31.67

>  <bpol>
17.9

>  <nRing>
3

>  <nHRing>
2

>  <naRing>
1

>  <naHRing>
0

>  <nARing 2>
2

>  <nAHRing 2>
2

>  <nFRing>
1

>  <nFHRing>
1

>  <nFaRing>
0

>  <nFaHRing>
0

>  <nFARing 2>
1

>  <nFAHRing 2>
1

>  <nRot>
1

>  <SLogP>
0.52

>  <SMR>
55.68

>  <TopoPSA(NO)>
27.3

>  <TopoPSA>
27.3

>  <JGI1>
0.09

>  <JGI2>
0.07

>  <JGI3>
0.04

>  <JGI4>
0.02

>  <JGI5>
0.02

>  <Diameter>
7

>  <Radius>
4

>  <TMWC10>
100.84

>  <TSRW10>
61.83

>  <MW>
189.13

>  <AMW>
6.52

>  <WPath>
286

>  <WPol>
18

>  <Zagreb1>
76

>  <Zagreb2>
91

>  <mZagreb2>
3.08

>  <yes>


>  <nAR-cont>
1

>  <nHA-cont>
0.887625254

>  <MWHBN>
0.363571467

>  <MWHBN-cont>
0.618722838

>  <TPSA-cont>
0.809429048

>  <pka_cont>
0.97

>  <yes.1>


>  <BBB_SCORE>
4.919567606

>  <MMFF94 Energy>
-59.317

$$$$
Compound 2926
Actelion Java MolfileCreator 2.0

  0  0  0  0  0  0              0 V3000
M  V30 BEGIN CTAB
M  V30 COUNTS 45 49 0 0 0
M  V30 BEGIN ATOM
M  V30 1 S 0.1632 -3.5952 -0.6529 0
M  V30 2 C -1.1904 -2.9177 0.286 0
M  V30 3 C 1.5596 -2.7442 0.0544 0
M  V30 4 C -1.0667 -1.7608 1.0803 0
M  V30 5 C -2.4198 -3.5934 0.1922 0
M  V30 6 C 1.4281 -1.5956 0.8602 0
M  V30 7 C 2.8307 -3.2582 -0.2566 0
M  V30 8 N 0.1542 -1.0433 1.1624 0
M  V30 9 C -2.1974 -1.37 1.8268 0
M  V30 10 C -3.5301 -3.1586 0.9103 0
M  V30 11 C 2.6136 -1.0274 1.3706 0
M  V30 12 C 3.9842 -2.662 0.2447 0
M  V30 13 C 0.0636 0.4387 1.1985 0
M  V30 14 C -3.415 -2.0521 1.7387 0
M  V30 15 C 3.8748 -1.5491 1.0656 0
M  V30 16 C 0.3137 1.073 -0.188 0 CFG=2
M  V30 17 C 0.5632 2.601 -0.1048 0
M  V30 18 C -0.8564 0.8261 -1.1689 0
M  V30 19 C 1.0428 3.0514 -1.4977 0
M  V30 20 C -0.7623 3.3321 0.1672 0
M  V30 21 N -1.2035 2.0538 -1.9282 0
M  V30 22 C 0.0196 2.6008 -2.5532 0
M  V30 23 C -1.7457 3.0501 -0.9802 0
M  V30 24 H -2.5142 -4.4748 -0.4385 0
M  V30 25 H 2.9263 -4.1362 -0.8919 0
M  V30 26 H -2.1431 -0.5405 2.5258 0
M  V30 27 H -4.4729 -3.6934 0.835 0
M  V30 28 H 2.5805 -0.1764 2.0434 0
M  V30 29 H 4.9605 -3.0728 0.0026 0
M  V30 30 H -0.9022 0.7896 1.5725 0
M  V30 31 H 0.7786 0.8387 1.9258 0
M  V30 32 H -4.2669 -1.7202 2.3267 0
M  V30 33 H 4.7676 -1.0864 1.4782 0
M  V30 34 H 1.2178 0.6277 -0.6238 0
M  V30 35 H 1.3116 2.8463 0.6558 0
M  V30 36 H -1.7558 0.4679 -0.6548 0
M  V30 37 H -0.5826 0.0298 -1.8725 0
M  V30 38 H 1.155 4.142 -1.5218 0
M  V30 39 H 2.0252 2.6194 -1.7215 0
M  V30 40 H -1.1921 3.0129 1.1227 0
M  V30 41 H -0.5858 4.4118 0.2432 0
M  V30 42 H -0.2407 3.4456 -3.2027 0
M  V30 43 H 0.466 1.8471 -3.214 0
M  V30 44 H -2.701 2.696 -0.5732 0
M  V30 45 H -1.9803 3.9802 -1.5132 0
M  V30 END ATOM
M  V30 BEGIN BOND
M  V30 1 1 1 2
M  V30 2 1 1 3
M  V30 3 2 2 4
M  V30 4 1 2 5
M  V30 5 2 3 6
M  V30 6 1 3 7
M  V30 7 1 4 8
M  V30 8 1 4 9
M  V30 9 2 5 10
M  V30 10 1 6 11
M  V30 11 2 7 12
M  V30 12 1 8 13
M  V30 13 2 9 14
M  V30 14 2 11 15
M  V30 15 1 13 16
M  V30 16 1 16 17
M  V30 17 1 16 18
M  V30 18 1 17 19
M  V30 19 1 17 20
M  V30 20 1 18 21
M  V30 21 1 19 22
M  V30 22 1 20 23
M  V30 23 1 6 8
M  V30 24 1 10 14
M  V30 25 1 12 15
M  V30 26 1 21 22
M  V30 27 1 21 23
M  V30 28 1 5 24
M  V30 29 1 7 25
M  V30 30 1 9 26
M  V30 31 1 10 27
M  V30 32 1 11 28
M  V30 33 1 12 29
M  V30 34 1 13 30
M  V30 35 1 13 31
M  V30 36 1 14 32
M  V30 37 1 15 33
M  V30 38 1 16 34
M  V30 39 1 17 35
M  V30 40 1 18 36
M  V30 41 1 18 37
M  V30 42 1 19 38
M  V30 43 1 19 39
M  V30 44 1 20 40
M  V30 45 1 20 41
M  V30 46 1 22 42
M  V30 47 1 22 43
M  V30 48 1 23 44
M  V30 49 1 23 45
M  V30 END BOND
M  V30 BEGIN COLLECTION
M  V30 MDLV30/STEABS ATOMS=(1 16)
M  V30 END COLLECTION
M  V30 END CTAB
M  END
>  <Column 1>
3762

>  <level_0>
6782

>  <index>
6783

>  <Unnamed: 0>
6783

>  <NO.>
6796

>  <Name>
(r)-mequitazine

>  <IUPAC_name>
10-[[(3r)-1-azabicyclo[2.2.2]octan-3-yl]methyl]phenothiazine

>  <SMILES>
c1ccc2c(c1)Sc1ccccc1N2C[C@H]1CN2CCC1CC2

>  <CID>
3246605

>  <logBB>


>  <BBB+/BBB->
BBB+

>  <Inchi>
InChI=1S/C20H22N2S/c1-3-7-19-17(5-1)22(18-6-2-4-8-20(18)23-19)14-16-13-21-11-9-15(16)10-12-21/h1-8-15-16H-9-14H2/t16-/m1/s1

>  <threshold>


>  <reference>
R24|

>  <group>
C

>  <Class>
1

>  <ABC>
18.89

>  <ABCGG>
13.93

>  <nAcid>
0

>  <nBase>
1

>  <nAromAtom>
12

>  <nAromBond>
12

>  <nAtom>
45

>  <nHeavyAtom>
23

>  <nSpiro>
0

>  <nBridgehead>
2

>  <nHetero>
3

>  <nN>
2

>  <nO>
0

>  <nF>
0

>  <BalabanJ>
1.36

>  <BertzCT>
675.59

>  <nBonds>
49

>  <nBondsO>
27

>  <nBondsS>
37

>  <nBondsD>
0

>  <nBondsT>
0

>  <nBondsA>
12

>  <nBondsM>
12

>  <nBondsKS>
43

>  <nBondsKD>
6

>  <RNCG>
0.27

>  <RPCG>
0.05

>  <FCSP3>
0.4

>  <SZ>
28.67

>  <Sm>
26.85

>  <Sv>
28.66

>  <Sse>
44.17

>  <Sp>
31.84

>  <Si>
50.07

>  <MZ>
0.64

>  <Mm>
0.6

>  <Mv>
0.64

>  <Mse>
0.98

>  <Mp>
0.71

>  <Mi>
1.11

>  <NsCH3>
0

>  <NdCH2>
0

>  <NssCH2>
6

>  <NtCH>
0

>  <NdsCH>
0

>  <NaaCH>
8

>  <NsssCH>
2

>  <NddC>
0

>  <NtsC>
0

>  <NdssC>
0

>  <NaasC>
4

>  <NaaaC>
0

>  <NssssC>
0

>  <NsNH3>
0

>  <NsNH2>
0

>  <NssNH2>
0

>  <NdNH>
0

>  <NssNH>
0

>  <NaaNH>
0

>  <NtN>
0

>  <NsssNH>
0

>  <NdsN>
0

>  <NaaN>
0

>  <NsssN>
2

>  <NddsN>
0

>  <NaasN>
0

>  <NssssN>
0

>  <NsOH>
0

>  <NdO>
0

>  <NssO>
0

>  <NaaO>
0

>  <NsF>
0

>  <NsSiH3>
0

>  <NssSiH2>
0

>  <NsssSiH>
0

>  <NssssSi>
0

>  <NsPH2>
0

>  <NssPH>
0

>  <NsssP>
0

>  <NdsssP>
0

>  <NsssssP>
0

>  <NsSH>
0

>  <NdS>
0

>  <NssS>
1

>  <NaaS>
0

>  <NdssS>
0

>  <NddssS>
0

>  <NsCl>
0

>  <NsBr>
0

>  <NsI>
0

>  <fragCpx>
223.03

>  <fMF>
0.51

>  <nHBAcc>
3

>  <nHBDon>
0

>  <Kier1>
15.27

>  <Kier2>
6.38

>  <Lipinski>
1

>  <GhoseFilter>
1

>  <FilterItLogS>
-4.34

>  <VMcGowan>
248.87

>  <LabuteASA>
142.03

>  <PEOE_VSA1>
9.8

>  <PEOE_VSA2>
0

>  <PEOE_VSA3>
0

>  <PEOE_VSA4>
0

>  <PEOE_VSA5>
0

>  <PEOE_VSA6>
36.03

>  <PEOE_VSA7>
62.03

>  <PEOE_VSA8>
22.88

>  <PEOE_VSA9>
11.37

>  <PEOE_VSA10>
0

>  <PEOE_VSA11>
0

>  <PEOE_VSA12>
0

>  <PEOE_VSA13>
0

>  <SMR_VSA1>
0

>  <SMR_VSA2>
0

>  <SMR_VSA3>
4.9

>  <SMR_VSA4>
11.84

>  <SMR_VSA5>
22.63

>  <SMR_VSA6>
31.08

>  <SMR_VSA7>
48.53

>  <SMR_VSA8>
0

>  <SMR_VSA9>
0

>  <SlogP_VSA1>
4.9

>  <SlogP_VSA2>
31.08

>  <SlogP_VSA3>
0

>  <SlogP_VSA4>
11.84

>  <SlogP_VSA5>
12.84

>  <SlogP_VSA6>
58.32

>  <SlogP_VSA7>
0

>  <SlogP_VSA8>
0

>  <SlogP_VSA9>
0

>  <SlogP_VSA10>
11.37

>  <SlogP_VSA11>
0

>  <EState_VSA1>
0

>  <EState_VSA2>
0

>  <EState_VSA3>
0

>  <EState_VSA4>
18.38

>  <EState_VSA5>
53.64

>  <EState_VSA6>
0

>  <EState_VSA7>
11.76

>  <EState_VSA8>
58.33

>  <EState_VSA9>
0

>  <EState_VSA10>
0

>  <VSA_EState1>
0

>  <VSA_EState2>
8.05

>  <VSA_EState3>
0

>  <VSA_EState4>
2.79

>  <VSA_EState5>
1.73

>  <VSA_EState6>
17.78

>  <VSA_EState7>
2.8

>  <VSA_EState8>
5.1

>  <VSA_EState9>
0

>  <apol>
53.17

>  <bpol>
27.95

>  <nRing>
6

>  <nHRing>
4

>  <naRing>
2

>  <naHRing>
0

>  <nARing 2>
4

>  <nAHRing 2>
4

>  <nFRing>
2

>  <nFHRing>
2

>  <nFaRing>
0

>  <nFaHRing>
0

>  <nFARing 2>
2

>  <nFAHRing 2>
2

>  <nRot>
2

>  <SLogP>
4.63

>  <SMR>
96.67

>  <TopoPSA(NO)>
6.48

>  <TopoPSA>
31.78

>  <JGI1>
0.13

>  <JGI2>
0.06

>  <JGI3>
0.03

>  <JGI4>
0.04

>  <JGI5>
0.02

>  <Diameter>
9

>  <Radius>
5

>  <TMWC10>
126.51

>  <TSRW10>
58.27

>  <MW>
322.15

>  <AMW>
7.16

>  <WPath>
1086

>  <WPol>
39

>  <Zagreb1>
132

>  <Zagreb2>
161

>  <mZagreb2>
4.89

>  <yes>


>  <nAR-cont>
0.199399

>  <nHA-cont>
0.967789328

>  <MWHBN>
0.167144537

>  <MWHBN-cont>
0.969298619

>  <TPSA-cont>
0.778155866

>  <pka_cont>
0.97

>  <yes.1>


>  <BBB_SCORE>
4.662447987

>  <MMFF94 Energy>
90.902

$$$$
Compound 2927
Actelion Java MolfileCreator 2.0

  0  0  0  0  0  0              0 V3000
M  V30 BEGIN CTAB
M  V30 COUNTS 52 54 0 0 0
M  V30 BEGIN ATOM
M  V30 1 O -2.5352 2.5352 -0.3166 0
M  V30 2 C -1.8331 1.4236 -0.6984 0
M  V30 3 C -3.9589 2.3762 -0.2593 0
M  V30 4 C -0.5754 1.2122 -0.132 0
M  V30 5 C -2.2862 0.5457 -1.6895 0
M  V30 6 C -4.5335 3.4848 0.6227 0
M  V30 7 O 0.0094 2.0089 0.8154 0
M  V30 8 C 0.2056 0.1415 -0.5652 0
M  V30 9 C -1.532 -0.5419 -2.1152 0
M  V30 10 O -4.2136 3.2185 1.9938 0
M  V30 11 C -0.8372 2.2935 1.9408 0
M  V30 12 C -0.2713 -0.763 -1.5446 0
M  V30 13 N -2.0429 -1.3292 -3.0647 0
M  V30 14 C -4.701 4.2416 2.8517 0
M  V30 15 C 0.0403 2.4275 3.1845 0
M  V30 16 C 0.427 -1.8911 -2.0229 0
M  V30 17 C -1.2858 -2.3564 -3.4623 0
M  V30 18 O 0.5189 1.1351 3.5778 0
M  V30 19 N -0.0775 -2.6746 -2.9937 0
M  V30 20 N 1.6903 -2.2076 -1.4747 0
M  V30 21 C 1.3709 1.2179 4.7118 0
M  V30 22 C 2.7621 -2.9553 -1.9947 0
M  V30 23 C 3.7856 -3.3687 -1.1261 0
M  V30 24 C 2.8894 -3.2686 -3.3526 0
M  V30 25 C 4.8863 -4.0937 -1.5971 0
M  V30 26 C 3.9868 -3.9927 -3.8294 0
M  V30 27 C 5.9109 -4.5096 -0.6889 0
M  V30 28 C 4.9846 -4.4079 -2.9511 0
M  V30 29 C 6.7706 -4.8587 0.0732 0
M  V30 30 H -4.2213 1.3987 0.1639 0
M  V30 31 H -4.3684 2.4781 -1.27 0
M  V30 32 H -3.2425 0.7103 -2.1772 0
M  V30 33 H -4.1092 4.454 0.3371 0
M  V30 34 H -5.6231 3.5122 0.5138 0
M  V30 35 H 1.1938 0.0224 -0.1284 0
M  V30 36 H -1.5754 1.4978 2.1023 0
M  V30 37 H -1.3388 3.2497 1.7621 0
M  V30 38 H -4.4343 3.9841 3.8801 0
M  V30 39 H -5.7905 4.3149 2.7806 0
M  V30 40 H -4.2408 5.2023 2.6018 0
M  V30 41 H 0.8968 3.0782 2.9743 0
M  V30 42 H -0.5499 2.8496 4.0053 0
M  V30 43 H -1.6928 -2.9942 -4.2392 0
M  V30 44 H 1.7203 -2.0791 -0.4719 0
M  V30 45 H 1.699 0.2077 4.9705 0
M  V30 46 H 0.8326 1.64 5.5659 0
M  V30 47 H 2.253 1.8241 4.4848 0
M  V30 48 H 3.7278 -3.1293 -0.067 0
M  V30 49 H 2.1366 -2.9453 -4.0661 0
M  V30 50 H 4.0594 -4.2269 -4.888 0
M  V30 51 H 5.8347 -4.9701 -3.3283 0
M  V30 52 H 7.5334 -5.169 0.7484 0
M  V30 END ATOM
M  V30 BEGIN BOND
M  V30 1 1 1 2
M  V30 2 1 1 3
M  V30 3 1 2 4
M  V30 4 2 2 5
M  V30 5 1 3 6
M  V30 6 1 4 7
M  V30 7 2 4 8
M  V30 8 1 5 9
M  V30 9 1 6 10
M  V30 10 1 7 11
M  V30 11 1 8 12
M  V30 12 2 9 13
M  V30 13 1 10 14
M  V30 14 1 11 15
M  V30 15 2 12 16
M  V30 16 1 13 17
M  V30 17 1 15 18
M  V30 18 1 16 19
M  V30 19 1 16 20
M  V30 20 1 18 21
M  V30 21 1 20 22
M  V30 22 2 22 23
M  V30 23 1 22 24
M  V30 24 1 23 25
M  V30 25 2 24 26
M  V30 26 1 25 27
M  V30 27 2 25 28
M  V30 28 3 27 29
M  V30 29 1 9 12
M  V30 30 2 17 19
M  V30 31 1 26 28
M  V30 32 1 3 30
M  V30 33 1 3 31
M  V30 34 1 5 32
M  V30 35 1 6 33
M  V30 36 1 6 34
M  V30 37 1 8 35
M  V30 38 1 11 36
M  V30 39 1 11 37
M  V30 40 1 14 38
M  V30 41 1 14 39
M  V30 42 1 14 40
M  V30 43 1 15 41
M  V30 44 1 15 42
M  V30 45 1 17 43
M  V30 46 1 20 44
M  V30 47 1 21 45
M  V30 48 1 21 46
M  V30 49 1 21 47
M  V30 50 1 23 48
M  V30 51 1 24 49
M  V30 52 1 26 50
M  V30 53 1 28 51
M  V30 54 1 29 52
M  V30 END BOND
M  V30 END CTAB
M  END
>  <Column 1>
3763

>  <level_0>
6783

>  <index>
6784

>  <Unnamed: 0>
6784

>  <NO.>
6797

>  <Name>
tarceva;erlotinib

>  <IUPAC_name>
n-(3-ethynylphenyl)-6-7-bis(2-methoxyethoxy)quinazolin-4-amine

>  <SMILES>
C#Cc1cccc(Nc2ncnc3cc(OCCOC)c(OCCOC)cc23)c1

>  <CID>
176870

>  <logBB>


>  <BBB+/BBB->
BBB+

>  <Inchi>
InChI=1S/C22H23N3O4/c1-4-16-6-5-7-17(12-16)25-22-18-13-20(28-10-8-26-2)21(29-11-9-27-3)14-19(18)23-15-24-22/h1-5-7-12-15H-8-11H2-2-3H3-(H-23-24-25)

>  <threshold>


>  <reference>
R26|

>  <group>
C

>  <Class>
1

>  <ABC>
21.8

>  <ABCGG>
16.57

>  <nAcid>
0

>  <nBase>
0

>  <nAromAtom>
16

>  <nAromBond>
17

>  <nAtom>
52

>  <nHeavyAtom>
29

>  <nSpiro>
0

>  <nBridgehead>
0

>  <nHetero>
7

>  <nN>
3

>  <nO>
4

>  <nF>
0

>  <BalabanJ>
1.59

>  <BertzCT>
1001

>  <nBonds>
54

>  <nBondsO>
31

>  <nBondsS>
36

>  <nBondsD>
0

>  <nBondsT>
1

>  <nBondsA>
17

>  <nBondsM>
18

>  <nBondsKS>
45

>  <nBondsKD>
8

>  <RNCG>
0.17

>  <RPCG>
0.06

>  <FCSP3>
0.27

>  <SZ>
34.67

>  <Sm>
32.76

>  <Sv>
33.36

>  <Sse>
52.52

>  <Sp>
35.08

>  <Si>
58.49

>  <MZ>
0.67

>  <Mm>
0.63

>  <Mv>
0.64

>  <Mse>
1.01

>  <Mp>
0.67

>  <Mi>
1.12

>  <NsCH3>
2

>  <NdCH2>
0

>  <NssCH2>
4

>  <NtCH>
1

>  <NdsCH>
0

>  <NaaCH>
7

>  <NsssCH>
0

>  <NddC>
0

>  <NtsC>
1

>  <NdssC>
0

>  <NaasC>
5

>  <NaaaC>
2

>  <NssssC>
0

>  <NsNH3>
0

>  <NsNH2>
0

>  <NssNH2>
0

>  <NdNH>
0

>  <NssNH>
1

>  <NaaNH>
0

>  <NtN>
0

>  <NsssNH>
0

>  <NdsN>
0

>  <NaaN>
2

>  <NsssN>
0

>  <NddsN>
0

>  <NaasN>
0

>  <NssssN>
0

>  <NsOH>
0

>  <NdO>
0

>  <NssO>
4

>  <NaaO>
0

>  <NsF>
0

>  <NsSiH3>
0

>  <NssSiH2>
0

>  <NsssSiH>
0

>  <NssssSi>
0

>  <NsPH2>
0

>  <NssPH>
0

>  <NsssP>
0

>  <NdsssP>
0

>  <NsssssP>
0

>  <NsSH>
0

>  <NdS>
0

>  <NssS>
0

>  <NaaS>
0

>  <NdssS>
0

>  <NddssS>
0

>  <NsCl>
0

>  <NsBr>
0

>  <NsI>
0

>  <fragCpx>
149.07

>  <fMF>
0.33

>  <nHBAcc>
7

>  <nHBDon>
1

>  <Kier1>
23.66

>  <Kier2>
12.76

>  <Lipinski>
1

>  <GhoseFilter>
1

>  <FilterItLogS>
-6.2

>  <VMcGowan>
298.68

>  <LabuteASA>
169.53

>  <PEOE_VSA1>
24.26

>  <PEOE_VSA2>
0

>  <PEOE_VSA3>
9.97

>  <PEOE_VSA4>
0

>  <PEOE_VSA5>
6.42

>  <PEOE_VSA6>
11.99

>  <PEOE_VSA7>
24.27

>  <PEOE_VSA8>
36.92

>  <PEOE_VSA9>
18.73

>  <PEOE_VSA10>
25.36

>  <PEOE_VSA11>
11.5

>  <PEOE_VSA12>
0

>  <PEOE_VSA13>
0

>  <SMR_VSA1>
18.95

>  <SMR_VSA2>
0

>  <SMR_VSA3>
9.97

>  <SMR_VSA4>
0

>  <SMR_VSA5>
0

>  <SMR_VSA6>
45.96

>  <SMR_VSA7>
48.29

>  <SMR_VSA8>
0

>  <SMR_VSA9>
23.84

>  <SlogP_VSA1>
14.79

>  <SlogP_VSA2>
50.62

>  <SlogP_VSA3>
9.47

>  <SlogP_VSA4>
12.34

>  <SlogP_VSA5>
5.56

>  <SlogP_VSA6>
42.73

>  <SlogP_VSA7>
0

>  <SlogP_VSA8>
10.9

>  <SlogP_VSA9>
0

>  <SlogP_VSA10>
11.51

>  <SlogP_VSA11>
11.5

>  <EState_VSA1>
0

>  <EState_VSA2>
0

>  <EState_VSA3>
43.74

>  <EState_VSA4>
22.15

>  <EState_VSA5>
6.33

>  <EState_VSA6>
14.22

>  <EState_VSA7>
36.4

>  <EState_VSA8>
21.21

>  <EState_VSA9>
25.37

>  <EState_VSA10>
0

>  <VSA_EState1>
21.8

>  <VSA_EState2>
8.75

>  <VSA_EState3>
4.1

>  <VSA_EState4>
2.34

>  <VSA_EState5>
4.44

>  <VSA_EState6>
11.26

>  <VSA_EState7>
6.99

>  <VSA_EState8>
1.73

>  <VSA_EState9>
3.25

>  <apol>
58.58

>  <bpol>
32.87

>  <nRing>
3

>  <nHRing>
1

>  <naRing>
3

>  <naHRing>
1

>  <nARing 2>
0

>  <nAHRing 2>
0

>  <nFRing>
1

>  <nFHRing>
1

>  <nFaRing>
1

>  <nFaHRing>
1

>  <nFARing 2>
0

>  <nFAHRing 2>
0

>  <nRot>
10

>  <SLogP>
3.41

>  <SMR>
111.94

>  <TopoPSA(NO)>
74.73

>  <TopoPSA>
74.73

>  <JGI1>
0.15

>  <JGI2>
0.06

>  <JGI3>
0.03

>  <JGI4>
0.04

>  <JGI5>
0.02

>  <Diameter>
15

>  <Radius>
8

>  <TMWC10>
135.54

>  <TSRW10>
64.02

>  <MW>
393.17

>  <AMW>
7.56

>  <WPath>
2396

>  <WPol>
43

>  <Zagreb1>
142

>  <Zagreb2>
163

>  <mZagreb2>
6.83

>  <yes>


>  <nAR-cont>
0.336376

>  <nHA-cont>
0.785905698

>  <MWHBN>
0.403459365

>  <MWHBN-cont>
0.462456485

>  <TPSA-cont>
0.478338195

>  <pka_cont>
0.97

>  <yes.1>


>  <BBB_SCORE>
3.257642817

>  <MMFF94 Energy>
57.041

$$$$
Compound 2928
Actelion Java MolfileCreator 2.0

  0  0  0  0  0  0              0 V3000
M  V30 BEGIN CTAB
M  V30 COUNTS 56 59 0 0 0
M  V30 BEGIN ATOM
M  V30 1 S 0.4028 -1.5316 -6.9468 0
M  V30 2 O 1.4956 -0.6978 -7.3887 0
M  V30 3 O -0.9655 -1.0661 -6.9628 0
M  V30 4 N 0.4074 -2.8866 -7.9419 0
M  V30 5 C 0.7788 -2.228 -5.3539 0
M  V30 6 C 2.0708 -2.678 -5.0214 0
M  V30 7 C -0.262 -2.2895 -4.4118 0
M  V30 8 C 2.2867 -3.1757 -3.7251 0
M  V30 9 C 3.2403 -2.6147 -5.963 0
M  V30 10 C -0.0374 -2.8075 -3.1289 0
M  V30 11 C 1.2485 -3.2408 -2.7925 0
M  V30 12 C -1.1565 -2.8558 -2.1122 0
M  V30 13 C -1.3212 -1.5687 -1.342 0
M  V30 14 N -0.5423 -1.3845 -0.2555 0
M  V30 15 N -2.2208 -0.68 -1.7965 0
M  V30 16 C -0.6645 -0.2319 0.4381 0
M  V30 17 C -2.3141 0.4629 -1.1029 0
M  V30 18 N 0.1621 -0.0174 1.5767 0
M  V30 19 C -1.5605 0.7377 0.015 0
M  V30 20 C -0.0596 0.9467 2.5633 0
M  V30 21 C 1.2455 -0.9982 1.6866 0
M  V30 22 C -1.24 1.0931 3.2059 0
M  V30 23 C 1.0727 1.8171 2.9123 0
M  V30 24 C -1.4076 2.1213 4.2519 0
M  V30 25 C 0.9993 2.7697 3.8565 0
M  V30 26 N -2.4967 2.3545 4.9189 0
M  V30 27 C -0.2317 2.9468 4.553 0
M  V30 28 C -2.1153 3.4702 5.8277 0 CFG=2
M  V30 29 C -0.6722 3.7615 5.511 0
M  V30 30 C -2.351 3.0261 7.2654 0
M  V30 31 C 0.062 4.8545 6.2027 0
M  V30 32 H 1.1287 -2.7857 -8.6557 0
M  V30 33 H -0.5293 -3.03 -8.3206 0
M  V30 34 H -1.256 -1.923 -4.6685 0
M  V30 35 H 3.2769 -3.5149 -3.4254 0
M  V30 36 H 2.9843 -3.0249 -6.9434 0
M  V30 37 H 4.0815 -3.21 -5.5901 0
M  V30 38 H 3.5885 -1.5829 -6.0679 0
M  V30 39 H 1.4545 -3.6226 -1.7941 0
M  V30 40 H -2.0984 -3.1027 -2.6185 0
M  V30 41 H -0.9799 -3.6765 -1.4053 0
M  V30 42 H -3.0313 1.1836 -1.4848 0
M  V30 43 H -1.6667 1.6918 0.5126 0
M  V30 44 H 1.8941 -0.9696 0.8032 0
M  V30 45 H 1.8813 -0.8043 2.5584 0
M  V30 46 H 0.849 -2.0125 1.8145 0
M  V30 47 H -2.0985 0.4647 3.0063 0
M  V30 48 H 1.9971 1.686 2.3568 0
M  V30 49 H 1.8476 3.4029 4.0865 0
M  V30 50 H -2.7377 4.3421 5.594 0
M  V30 51 H -3.3987 2.7414 7.4124 0
M  V30 52 H -2.1183 3.8299 7.9715 0
M  V30 53 H -1.736 2.1566 7.5243 0
M  V30 54 H 0.1576 4.6386 7.2712 0
M  V30 55 H 1.0703 4.9909 5.8003 0
M  V30 56 H -0.4721 5.8029 6.0868 0
M  V30 END ATOM
M  V30 BEGIN BOND
M  V30 1 2 1 2
M  V30 2 2 1 3
M  V30 3 1 1 4
M  V30 4 1 1 5
M  V30 5 2 5 6
M  V30 6 1 5 7
M  V30 7 1 6 8
M  V30 8 1 6 9
M  V30 9 2 7 10
M  V30 10 2 8 11
M  V30 11 1 10 12
M  V30 12 1 12 13
M  V30 13 2 13 14
M  V30 14 1 13 15
M  V30 15 1 14 16
M  V30 16 2 15 17
M  V30 17 1 16 18
M  V30 18 2 16 19
M  V30 19 1 18 20
M  V30 20 1 18 21
M  V30 21 2 20 22
M  V30 22 1 20 23
M  V30 23 1 22 24
M  V30 24 2 23 25
M  V30 25 2 24 26
M  V30 26 1 24 27
M  V30 27 1 26 28
M  V30 28 2 27 29
M  V30 29 1 28 30
M  V30 30 1 29 31
M  V30 31 1 10 11
M  V30 32 1 17 19
M  V30 33 1 25 27
M  V30 34 1 28 29
M  V30 35 1 4 32
M  V30 36 1 4 33
M  V30 37 1 7 34
M  V30 38 1 8 35
M  V30 39 1 9 36
M  V30 40 1 9 37
M  V30 41 1 9 38
M  V30 42 1 11 39
M  V30 43 1 12 40
M  V30 44 1 12 41
M  V30 45 1 17 42
M  V30 46 1 19 43
M  V30 47 1 21 44
M  V30 48 1 21 45
M  V30 49 1 21 46
M  V30 50 1 22 47
M  V30 51 1 23 48
M  V30 52 1 25 49
M  V30 53 1 28 50
M  V30 54 1 30 51
M  V30 55 1 30 52
M  V30 56 1 30 53
M  V30 57 1 31 54
M  V30 58 1 31 55
M  V30 59 1 31 56
M  V30 END BOND
M  V30 BEGIN COLLECTION
M  V30 MDLV30/STERAC1 ATOMS=(1 28)
M  V30 END COLLECTION
M  V30 END CTAB
M  END
>  <Column 1>
3764

>  <level_0>
6784

>  <index>
6785

>  <Unnamed: 0>
6785

>  <NO.>
6798

>  <Name>
pazopanib

>  <IUPAC_name>


>  <SMILES>
CC1=c2ccc(N(C)c3ccnc(Cc4ccc(C)c(S(N)(=O)=O)c4)n3)cc2=NC1C

>  <CID>


>  <logBB>


>  <BBB+/BBB->
BBB+

>  <Inchi>
InChI=1S/C23H25N5O2S/c1-14-5-6-17(11-21(14)31(24-29)30)12-22-25-10-9-23(27-22)28(4)18-7-8-19-15(2)16(3)26-20(19)13-18/h5-11-13-16H-12H2-1-4H3-(H2-24-29-30)

>  <threshold>


>  <reference>
R26|

>  <group>
C

>  <Class>
1

>  <ABC>
24.65

>  <ABCGG>
18.82

>  <nAcid>
0

>  <nBase>
0

>  <nAromAtom>
18

>  <nAromBond>
18

>  <nAtom>
56

>  <nHeavyAtom>
31

>  <nSpiro>
0

>  <nBridgehead>
0

>  <nHetero>
8

>  <nN>
5

>  <nO>
2

>  <nF>
0

>  <BalabanJ>
1.29

>  <BertzCT>
1399.7

>  <nBonds>
59

>  <nBondsO>
34

>  <nBondsS>
37

>  <nBondsD>
4

>  <nBondsT>
0

>  <nBondsA>
18

>  <nBondsM>
22

>  <nBondsKS>
47

>  <nBondsKD>
12

>  <RNCG>
0.15

>  <RPCG>
0.11

>  <FCSP3>
0.26

>  <SZ>
38.33

>  <Sm>
36.26

>  <Sv>
36.18

>  <Sse>
56.15

>  <Sp>
38.97

>  <Si>
62.98

>  <MZ>
0.68

>  <Mm>
0.65

>  <Mv>
0.65

>  <Mse>
1

>  <Mp>
0.7

>  <Mi>
1.12

>  <NsCH3>
4

>  <NdCH2>
0

>  <NssCH2>
1

>  <NtCH>
0

>  <NdsCH>
0

>  <NaaCH>
8

>  <NsssCH>
1

>  <NddC>
0

>  <NtsC>
0

>  <NdssC>
1

>  <NaasC>
6

>  <NaaaC>
0

>  <NssssC>
0

>  <NsNH3>
0

>  <NsNH2>
1

>  <NssNH2>
0

>  <NdNH>
0

>  <NssNH>
0

>  <NaaNH>
0

>  <NtN>
0

>  <NsssNH>
0

>  <NdsN>
1

>  <NaaN>
2

>  <NsssN>
1

>  <NddsN>
0

>  <NaasN>
0

>  <NssssN>
0

>  <NsOH>
0

>  <NdO>
2

>  <NssO>
0

>  <NaaO>
0

>  <NsF>
0

>  <NsSiH3>
0

>  <NssSiH2>
0

>  <NsssSiH>
0

>  <NssssSi>
0

>  <NsPH2>
0

>  <NssPH>
0

>  <NsssP>
0

>  <NdsssP>
0

>  <NsssssP>
0

>  <NsSH>
0

>  <NdS>
0

>  <NssS>
0

>  <NaaS>
0

>  <NdssS>
0

>  <NddssS>
1

>  <NsCl>
0

>  <NsBr>
0

>  <NsI>
0

>  <fragCpx>
226.08

>  <fMF>
0.41

>  <nHBAcc>
6

>  <nHBDon>
1

>  <Kier1>
24.13

>  <Kier2>
9.7

>  <Lipinski>
1

>  <GhoseFilter>
1

>  <FilterItLogS>
-6.58

>  <VMcGowan>
326.48

>  <LabuteASA>
181.6

>  <PEOE_VSA1>
4.9

>  <PEOE_VSA2>
4.99

>  <PEOE_VSA3>
23.52

>  <PEOE_VSA4>
0

>  <PEOE_VSA5>
0

>  <PEOE_VSA6>
18.2

>  <PEOE_VSA7>
61.74

>  <PEOE_VSA8>
30.57

>  <PEOE_VSA9>
16.29

>  <PEOE_VSA10>
11.64

>  <PEOE_VSA11>
0

>  <PEOE_VSA12>
10.02

>  <PEOE_VSA13>
0

>  <SMR_VSA1>
8.42

>  <SMR_VSA2>
0

>  <SMR_VSA3>
9.97

>  <SMR_VSA4>
10.13

>  <SMR_VSA5>
38.13

>  <SMR_VSA6>
11.95

>  <SMR_VSA7>
76.19

>  <SMR_VSA8>
0

>  <SMR_VSA9>
0

>  <SlogP_VSA1>
20.61

>  <SlogP_VSA2>
31.48

>  <SlogP_VSA3>
16.44

>  <SlogP_VSA4>
6.92

>  <SlogP_VSA5>
30.8

>  <SlogP_VSA6>
58.55

>  <SlogP_VSA7>
0

>  <SlogP_VSA8>
5.57

>  <SlogP_VSA9>
0

>  <SlogP_VSA10>
11.51

>  <SlogP_VSA11>
0

>  <EState_VSA1>
10.02

>  <EState_VSA2>
10.94

>  <EState_VSA3>
17.81

>  <EState_VSA4>
22.43

>  <EState_VSA5>
10.79

>  <EState_VSA6>
25.25

>  <EState_VSA7>
24.08

>  <EState_VSA8>
42.01

>  <EState_VSA9>
10.13

>  <EState_VSA10>
8.42

>  <VSA_EState1>
23.62

>  <VSA_EState2>
15.88

>  <VSA_EState3>
7.52

>  <VSA_EState4>
3.67

>  <VSA_EState5>
1.34

>  <VSA_EState6>
13.5

>  <VSA_EState7>
2.11

>  <VSA_EState8>
5.94

>  <VSA_EState9>
-1.83

>  <apol>
65.08

>  <bpol>
36.3

>  <nRing>
4

>  <nHRing>
2

>  <naRing>
3

>  <naHRing>
1

>  <nARing 2>
1

>  <nAHRing 2>
1

>  <nFRing>
1

>  <nFHRing>
1

>  <nFaRing>
0

>  <nFaHRing>
0

>  <nFARing 2>
1

>  <nFAHRing 2>
1

>  <nRot>
5

>  <SLogP>
1.98

>  <SMR>
121.22

>  <TopoPSA(NO)>
101.54

>  <TopoPSA>
109.92

>  <JGI1>
0.25

>  <JGI2>
0.09

>  <JGI3>
0.07

>  <JGI4>
0.04

>  <JGI5>
0.03

>  <Diameter>
15

>  <Radius>
8

>  <TMWC10>
143.18

>  <TSRW10>
81.52

>  <MW>
435.17

>  <AMW>
7.77

>  <WPath>
2938

>  <WPol>
52

>  <Zagreb1>
170

>  <Zagreb2>
202

>  <mZagreb2>
6.5

>  <yes>


>  <nAR-cont>
0.816016

>  <nHA-cont>
0.702745138

>  <MWHBN>
0.335558748

>  <MWHBN-cont>
0.723150584

>  <TPSA-cont>
0.232690144

>  <pka_cont>
0.97

>  <yes.1>


>  <BBB_SCORE>
3.553867302

>  <MMFF94 Energy>
-48.86

$$$$
Compound 2929
Actelion Java MolfileCreator 2.0

  0  0  0  0  0  0              0 V3000
M  V30 BEGIN CTAB
M  V30 COUNTS 56 58 0 0 0
M  V30 BEGIN ATOM
M  V30 1 F -3.0013 -6.5646 5.3757 0
M  V30 2 C -2.443 -5.3854 5.6797 0
M  V30 3 C -2.2259 -4.4554 4.6629 0
M  V30 4 C -2.0937 -5.1224 7.0123 0
M  V30 5 C -1.6469 -3.2466 5.0093 0
M  V30 6 C -1.5103 -3.9028 7.3589 0
M  V30 7 C -1.3011 -2.9916 6.3415 0
M  V30 8 C -1.268 -2.0434 4.2405 0
M  V30 9 N -0.7395 -1.7278 6.4643 0
M  V30 10 C -0.6802 -1.0775 5.2432 0
M  V30 11 C -1.4524 -1.938 2.9137 0
M  V30 12 O -0.2446 0.0419 5.0498 0
M  V30 13 C -1.1419 -0.8623 2.0326 0
M  V30 14 N -0.6385 0.3314 2.4806 0
M  V30 15 C -1.2695 -0.7468 0.6516 0
M  V30 16 C -0.4725 1.2208 1.4465 0
M  V30 17 C -0.8293 0.5721 0.2708 0
M  V30 18 C -1.7742 -1.7835 -0.2978 0
M  V30 19 C -0.0245 2.6104 1.7302 0
M  V30 20 C -0.8136 1.1161 -1.0914 0
M  V30 21 O -1.6305 0.7823 -1.9434 0
M  V30 22 N 0.2256 1.9796 -1.3513 0
M  V30 23 C 0.3999 2.6181 -2.6418 0
M  V30 24 C 1.0276 1.6711 -3.6833 0
M  V30 25 N 1.3054 2.3301 -4.9773 0
M  V30 26 C 1.3111 1.3533 -6.08 0
M  V30 27 C 2.5135 3.1674 -4.9117 0
M  V30 28 C 2.4309 0.3166 -6.0595 0
M  V30 29 C 2.7576 3.9905 -6.1731 0
M  V30 30 H -2.5107 -4.6969 3.6464 0
M  V30 31 H -2.2833 -5.879 7.7686 0
M  V30 32 H -1.2364 -3.688 8.3855 0
M  V30 33 H -0.4113 -1.3073 7.3205 0
M  V30 34 H -1.9058 -2.7911 2.4142 0
M  V30 35 H -0.4398 0.5525 3.4518 0
M  V30 36 H -2.8141 -1.5732 -0.5668 0
M  V30 37 H -1.7283 -2.788 0.1323 0
M  V30 38 H -1.1727 -1.7999 -1.2124 0
M  V30 39 H -0.2667 2.9044 2.7572 0
M  V30 40 H -0.5153 3.3247 1.0619 0
M  V30 41 H 1.0587 2.6954 1.6006 0
M  V30 42 H 0.9194 2.1247 -0.6332 0
M  V30 43 H 1.0309 3.493 -2.462 0
M  V30 44 H -0.5765 2.9704 -2.9941 0
M  V30 45 H 1.9394 1.2163 -3.2741 0
M  V30 46 H 0.3195 0.8457 -3.833 0
M  V30 47 H 0.3481 0.8259 -6.0881 0
M  V30 48 H 1.3338 1.8827 -7.0395 0
M  V30 49 H 2.4132 3.8869 -4.0917 0
M  V30 50 H 3.4043 2.5684 -4.6885 0
M  V30 51 H 2.3089 -0.3742 -6.9004 0
M  V30 52 H 2.4168 -0.2777 -5.1411 0
M  V30 53 H 3.4163 0.7813 -6.1586 0
M  V30 54 H 3.5764 4.6977 -6.0027 0
M  V30 55 H 1.8686 4.5685 -6.4463 0
M  V30 56 H 3.0417 3.3623 -7.0225 0
M  V30 END ATOM
M  V30 BEGIN BOND
M  V30 1 1 1 2
M  V30 2 2 2 3
M  V30 3 1 2 4
M  V30 4 1 3 5
M  V30 5 2 4 6
M  V30 6 2 5 7
M  V30 7 1 5 8
M  V30 8 1 7 9
M  V30 9 1 8 10
M  V30 10 2 8 11
M  V30 11 2 10 12
M  V30 12 1 11 13
M  V30 13 1 13 14
M  V30 14 2 13 15
M  V30 15 1 14 16
M  V30 16 1 15 17
M  V30 17 1 15 18
M  V30 18 1 16 19
M  V30 19 1 17 20
M  V30 20 2 20 21
M  V30 21 1 20 22
M  V30 22 1 22 23
M  V30 23 1 23 24
M  V30 24 1 24 25
M  V30 25 1 25 26
M  V30 26 1 25 27
M  V30 27 1 26 28
M  V30 28 1 27 29
M  V30 29 1 6 7
M  V30 30 1 9 10
M  V30 31 2 16 17
M  V30 32 1 3 30
M  V30 33 1 4 31
M  V30 34 1 6 32
M  V30 35 1 9 33
M  V30 36 1 11 34
M  V30 37 1 14 35
M  V30 38 1 18 36
M  V30 39 1 18 37
M  V30 40 1 18 38
M  V30 41 1 19 39
M  V30 42 1 19 40
M  V30 43 1 19 41
M  V30 44 1 22 42
M  V30 45 1 23 43
M  V30 46 1 23 44
M  V30 47 1 24 45
M  V30 48 1 24 46
M  V30 49 1 26 47
M  V30 50 1 26 48
M  V30 51 1 27 49
M  V30 52 1 27 50
M  V30 53 1 28 51
M  V30 54 1 28 52
M  V30 55 1 28 53
M  V30 56 1 29 54
M  V30 57 1 29 55
M  V30 58 1 29 56
M  V30 END BOND
M  V30 END CTAB
M  END
>  <Column 1>
3765

>  <level_0>
6787

>  <index>
6788

>  <Unnamed: 0>
6788

>  <NO.>
6801

>  <Name>
sunitinib

>  <IUPAC_name>
n-[2-(diethylamino)ethyl]-5-[(z)-(5-fluoro-2-oxo-1h-indol-3-ylidene)methyl]-2-4-dimethyl-1h-pyrrole-3-carboxamide

>  <SMILES>
CCN(CC)CCNC(=O)c1c(C)[nH]c(/C=C2\C(=O)Nc3ccc(F)cc32)c1C

>  <CID>
5329102

>  <logBB>


>  <BBB+/BBB->
BBB+

>  <Inchi>
InChI=1S/C22H27FN4O2/c1-5-27(6-2)10-9-24-22(29)20-13(3)19(25-14(20)4)12-17-16-11-15(23)7-8-18(16)26-21(17)28/h7-8-11-12-25H-5-6-9-10H2-1-4H3-(H-24-29)(H-26-28)/b17-12-

>  <threshold>


>  <reference>
R26|

>  <group>
C

>  <Class>
1

>  <ABC>
22.18

>  <ABCGG>
18.71

>  <nAcid>
0

>  <nBase>
1

>  <nAromAtom>
11

>  <nAromBond>
11

>  <nAtom>
56

>  <nHeavyAtom>
29

>  <nSpiro>
0

>  <nBridgehead>
0

>  <nHetero>
7

>  <nN>
4

>  <nO>
2

>  <nF>
1

>  <BalabanJ>
1.54

>  <BertzCT>
973.43

>  <nBonds>
58

>  <nBondsO>
31

>  <nBondsS>
44

>  <nBondsD>
3

>  <nBondsT>
0

>  <nBondsA>
11

>  <nBondsM>
14

>  <nBondsKS>
50

>  <nBondsKD>
8

>  <RNCG>
0.15

>  <RPCG>
0.11

>  <FCSP3>
0.36

>  <SZ>
35.33

>  <Sm>
33.18

>  <Sv>
34.42

>  <Sse>
56.26

>  <Sp>
36.71

>  <Si>
63.74

>  <MZ>
0.63

>  <Mm>
0.59

>  <Mv>
0.61

>  <Mse>
1

>  <Mp>
0.66

>  <Mi>
1.14

>  <NsCH3>
4

>  <NdCH2>
0

>  <NssCH2>
4

>  <NtCH>
0

>  <NdsCH>
1

>  <NaaCH>
3

>  <NsssCH>
0

>  <NddC>
0

>  <NtsC>
0

>  <NdssC>
3

>  <NaasC>
7

>  <NaaaC>
0

>  <NssssC>
0

>  <NsNH3>
0

>  <NsNH2>
0

>  <NssNH2>
0

>  <NdNH>
0

>  <NssNH>
2

>  <NaaNH>
1

>  <NtN>
0

>  <NsssNH>
0

>  <NdsN>
0

>  <NaaN>
0

>  <NsssN>
1

>  <NddsN>
0

>  <NaasN>
0

>  <NssssN>
0

>  <NsOH>
0

>  <NdO>
2

>  <NssO>
0

>  <NaaO>
0

>  <NsF>
1

>  <NsSiH3>
0

>  <NssSiH2>
0

>  <NsssSiH>
0

>  <NssssSi>
0

>  <NsPH2>
0

>  <NssPH>
0

>  <NsssP>
0

>  <NdsssP>
0

>  <NsssssP>
0

>  <NsSH>
0

>  <NdS>
0

>  <NssS>
0

>  <NaaS>
0

>  <NdssS>
0

>  <NddssS>
0

>  <NsCl>
0

>  <NsBr>
0

>  <NsI>
0

>  <fragCpx>
149.07

>  <fMF>
0.27

>  <nHBAcc>
3

>  <nHBDon>
3

>  <Kier1>
23.66

>  <Kier2>
10.54

>  <Lipinski>
1

>  <GhoseFilter>
1

>  <FilterItLogS>
-6.9

>  <VMcGowan>
307.28

>  <LabuteASA>
169.73

>  <PEOE_VSA1>
20.52

>  <PEOE_VSA2>
9.59

>  <PEOE_VSA3>
4.39

>  <PEOE_VSA4>
0

>  <PEOE_VSA5>
0

>  <PEOE_VSA6>
13.85

>  <PEOE_VSA7>
56.78

>  <PEOE_VSA8>
35.73

>  <PEOE_VSA9>
11.14

>  <PEOE_VSA10>
5.82

>  <PEOE_VSA11>
0

>  <PEOE_VSA12>
0

>  <PEOE_VSA13>
11.81

>  <SMR_VSA1>
13.98

>  <SMR_VSA2>
0

>  <SMR_VSA3>
15.2

>  <SMR_VSA4>
0

>  <SMR_VSA5>
27.69

>  <SMR_VSA6>
31.5

>  <SMR_VSA7>
52.09

>  <SMR_VSA8>
0

>  <SMR_VSA9>
0

>  <SlogP_VSA1>
10.63

>  <SlogP_VSA2>
47.88

>  <SlogP_VSA3>
4.79

>  <SlogP_VSA4>
19.66

>  <SlogP_VSA5>
46.72

>  <SlogP_VSA6>
18.2

>  <SlogP_VSA7>
0

>  <SlogP_VSA8>
11.65

>  <SlogP_VSA9>
0

>  <SlogP_VSA10>
10.08

>  <SlogP_VSA11>
0

>  <EState_VSA1>
5.82

>  <EState_VSA2>
11.81

>  <EState_VSA3>
34.63

>  <EState_VSA4>
30.89

>  <EState_VSA5>
12.13

>  <EState_VSA6>
12.14

>  <EState_VSA7>
13.85

>  <EState_VSA8>
34.36

>  <EState_VSA9>
0

>  <EState_VSA10>
13.98

>  <VSA_EState1>
13.65

>  <VSA_EState2>
30.47

>  <VSA_EState3>
5.7

>  <VSA_EState4>
4.2

>  <VSA_EState5>
-0.84

>  <VSA_EState6>
4.2

>  <VSA_EState7>
1.68

>  <VSA_EState8>
11.1

>  <VSA_EState9>
0

>  <apol>
61.3

>  <bpol>
33.36

>  <nRing>
3

>  <nHRing>
2

>  <naRing>
2

>  <naHRing>
1

>  <nARing 2>
1

>  <nAHRing 2>
1

>  <nFRing>
1

>  <nFHRing>
1

>  <nFaRing>
0

>  <nFaHRing>
0

>  <nFARing 2>
1

>  <nFAHRing 2>
1

>  <nRot>
7

>  <SLogP>
3.33

>  <SMR>
113.29

>  <TopoPSA(NO)>
77.23

>  <TopoPSA>
77.23

>  <JGI1>
0.21

>  <JGI2>
0.09

>  <JGI3>
0.07

>  <JGI4>
0.04

>  <JGI5>
0.03

>  <Diameter>
15

>  <Radius>
8

>  <TMWC10>
137.06

>  <TSRW10>
80.74

>  <MW>
398.21

>  <AMW>
7.11

>  <WPath>
2452

>  <WPol>
46

>  <Zagreb1>
150

>  <Zagreb2>
178

>  <mZagreb2>
6.53

>  <yes>


>  <nAR-cont>
0.816016

>  <nHA-cont>
0.785905698

>  <MWHBN>
0.300673511

>  <MWHBN-cont>
0.8387218

>  <TPSA-cont>
0.460886643

>  <pka_cont>
0.97

>  <yes.1>


>  <BBB_SCORE>
4.266777685

>  <MMFF94 Energy>
27.727

$$$$
Compound 2930
Actelion Java MolfileCreator 2.0

  0  0  0  0  0  0              0 V3000
M  V30 BEGIN CTAB
M  V30 COUNTS 65 69 0 0 0
M  V30 BEGIN ATOM
M  V30 1 N -2.8614 -1.9864 -5.171 0
M  V30 2 C -2.7337 -1.739 -3.8442 0
M  V30 3 C -1.7483 -2.1451 -5.9144 0
M  V30 4 N -3.8475 -1.5726 -3.0545 0
M  V30 5 C -1.432 -1.6598 -3.3177 0
M  V30 6 N -0.4668 -2.0901 -5.5154 0
M  V30 7 C -5.1922 -1.6407 -3.592 0 CFG=2
M  V30 8 C -0.3841 -1.8417 -4.2011 0
M  V30 9 C -0.8431 -1.429 -2.0414 0
M  V30 10 C -6.1038 -0.8408 -2.668 0
M  V30 11 C -5.6316 -3.0988 -3.7546 0
M  V30 12 N 0.7856 -1.7272 -3.5051 0
M  V30 13 C 0.5398 -1.4704 -2.1711 0
M  V30 14 C -6.6122 -1.3684 -1.4695 0
M  V30 15 C -6.4077 0.493 -2.9899 0
M  V30 16 C 1.6034 -1.2975 -1.175 0
M  V30 17 C -7.4235 -0.5948 -0.6359 0
M  V30 18 C -7.2183 1.2652 -2.1555 0
M  V30 19 C 2.8682 -0.8131 -1.5381 0
M  V30 20 C 1.3336 -1.4776 0.1879 0
M  V30 21 C -7.7288 0.7196 -0.9805 0
M  V30 22 C 3.8544 -0.5759 -0.5729 0
M  V30 23 C 2.3173 -1.2436 1.1543 0
M  V30 24 C 3.5893 -0.7916 0.7838 0
M  V30 25 C 4.6552 -0.5462 1.8312 0
M  V30 26 N 4.2553 0.4381 2.8489 0
M  V30 27 C 5.231 0.4481 3.959 0
M  V30 28 C 4.16 1.801 2.2805 0
M  V30 29 C 4.8927 1.5089 5.0324 0
M  V30 30 C 3.8261 2.8638 3.3545 0
M  V30 31 N 4.8076 2.8586 4.4521 0
M  V30 32 C 4.5739 3.9082 5.4474 0
M  V30 33 C 3.2658 3.8474 6.2308 0
M  V30 34 H -1.9101 -2.3422 -6.9697 0
M  V30 35 H -3.7266 -1.3661 -2.0747 0
M  V30 36 H -5.2371 -1.1678 -4.5824 0
M  V30 37 H -1.3819 -1.2397 -1.1225 0
M  V30 38 H -6.6848 -3.1617 -4.0495 0
M  V30 39 H -5.5004 -3.6759 -2.8327 0
M  V30 40 H -5.0401 -3.6009 -4.5277 0
M  V30 41 H 1.693 -1.8447 -3.9279 0
M  V30 42 H -6.3776 -2.3858 -1.1673 0
M  V30 43 H -6.0057 0.9405 -3.8971 0
M  V30 44 H -7.8141 -1.0184 0.2857 0
M  V30 45 H -7.4463 2.2939 -2.4219 0
M  V30 46 H 3.108 -0.5955 -2.5752 0
M  V30 47 H 0.3566 -1.82 0.5193 0
M  V30 48 H -8.3589 1.3208 -0.3304 0
M  V30 49 H 4.8269 -0.2067 -0.8904 0
M  V30 50 H 2.0839 -1.4012 2.2056 0
M  V30 51 H 5.5989 -0.2503 1.3539 0
M  V30 52 H 4.846 -1.5164 2.3096 0
M  V30 53 H 5.2396 -0.5349 4.445 0
M  V30 54 H 6.2448 0.6341 3.579 0
M  V30 55 H 5.101 2.0778 1.7859 0
M  V30 56 H 3.3691 1.839 1.5226 0
M  V30 57 H 3.9506 1.2264 5.5184 0
M  V30 58 H 5.6784 1.4845 5.7968 0
M  V30 59 H 2.8127 2.6737 3.7296 0
M  V30 60 H 3.8194 3.8478 2.8708 0
M  V30 61 H 5.4068 3.9025 6.1618 0
M  V30 62 H 4.6338 4.8829 4.9467 0
M  V30 63 H 3.2205 4.6847 6.9356 0
M  V30 64 H 3.1826 2.9261 6.8143 0
M  V30 65 H 2.3939 3.9264 5.5752 0
M  V30 END ATOM
M  V30 BEGIN BOND
M  V30 1 2 1 2
M  V30 2 1 1 3
M  V30 3 1 2 4
M  V30 4 1 2 5
M  V30 5 2 3 6
M  V30 6 1 4 7
M  V30 7 2 5 8
M  V30 8 1 5 9
M  V30 9 1 7 10
M  V30 10 1 7 11
M  V30 11 1 8 12
M  V30 12 2 9 13
M  V30 13 2 10 14
M  V30 14 1 10 15
M  V30 15 1 13 16
M  V30 16 1 14 17
M  V30 17 2 15 18
M  V30 18 2 16 19
M  V30 19 1 16 20
M  V30 20 2 17 21
M  V30 21 1 19 22
M  V30 22 2 20 23
M  V30 23 2 22 24
M  V30 24 1 24 25
M  V30 25 1 25 26
M  V30 26 1 26 27
M  V30 27 1 26 28
M  V30 28 1 27 29
M  V30 29 1 28 30
M  V30 30 1 29 31
M  V30 31 1 31 32
M  V30 32 1 32 33
M  V30 33 1 6 8
M  V30 34 1 12 13
M  V30 35 1 18 21
M  V30 36 1 23 24
M  V30 37 1 30 31
M  V30 38 1 3 34
M  V30 39 1 4 35
M  V30 40 1 7 36
M  V30 41 1 9 37
M  V30 42 1 11 38
M  V30 43 1 11 39
M  V30 44 1 11 40
M  V30 45 1 12 41
M  V30 46 1 14 42
M  V30 47 1 15 43
M  V30 48 1 17 44
M  V30 49 1 18 45
M  V30 50 1 19 46
M  V30 51 1 20 47
M  V30 52 1 21 48
M  V30 53 1 22 49
M  V30 54 1 23 50
M  V30 55 1 25 51
M  V30 56 1 25 52
M  V30 57 1 27 53
M  V30 58 1 27 54
M  V30 59 1 28 55
M  V30 60 1 28 56
M  V30 61 1 29 57
M  V30 62 1 29 58
M  V30 63 1 30 59
M  V30 64 1 30 60
M  V30 65 1 32 61
M  V30 66 1 32 62
M  V30 67 1 33 63
M  V30 68 1 33 64
M  V30 69 1 33 65
M  V30 END BOND
M  V30 BEGIN COLLECTION
M  V30 MDLV30/STERAC1 ATOMS=(1 7)
M  V30 END COLLECTION
M  V30 END CTAB
M  END
>  <Column 1>
3766

>  <level_0>
6788

>  <index>
6789

>  <Unnamed: 0>
6789

>  <NO.>
6802

>  <Name>
aee-788

>  <IUPAC_name>
6-[4-[(4-ethylpiperazin-1-yl)methyl]phenyl]-n-(1-phenylethyl)-7h-pyrrolo[2-3-d]pyrimidin-4-amine

>  <SMILES>
CCN1CCN(Cc2ccc(-c3cc4c(NC(C)c5ccccc5)ncnc4[nH]3)cc2)CC1

>  <CID>
11578515

>  <logBB>


>  <BBB+/BBB->
BBB+

>  <Inchi>
InChI=1S/C27H32N6/c1-3-32-13-15-33(16-14-32)18-21-9-11-23(12-10-21)25-17-24-26(28-19-29-27(24)31-25)30-20(2)22-7-5-4-6-8-22/h4-12-17-19-20H-3-13-16-18H2-1-2H3-(H2-28-29-30-31)

>  <threshold>


>  <reference>
R26|

>  <group>
C

>  <Class>
1

>  <ABC>
26.11

>  <ABCGG>
17.97

>  <nAcid>
0

>  <nBase>
2

>  <nAromAtom>
21

>  <nAromBond>
22

>  <nAtom>
65

>  <nHeavyAtom>
33

>  <nSpiro>
0

>  <nBridgehead>
0

>  <nHetero>
6

>  <nN>
6

>  <nO>
0

>  <nF>
0

>  <BalabanJ>
1.07

>  <BertzCT>
1176.45

>  <nBonds>
69

>  <nBondsO>
37

>  <nBondsS>
47

>  <nBondsD>
0

>  <nBondsT>
0

>  <nBondsA>
22

>  <nBondsM>
22

>  <nBondsKS>
59

>  <nBondsKD>
10

>  <RNCG>
0.15

>  <RPCG>
0.07

>  <FCSP3>
0.33

>  <SZ>
39.33

>  <Sm>
36.68

>  <Sv>
40.22

>  <Sse>
64.18

>  <Sp>
43.73

>  <Si>
73.39

>  <MZ>
0.61

>  <Mm>
0.56

>  <Mv>
0.62

>  <Mse>
0.99

>  <Mp>
0.67

>  <Mi>
1.13

>  <NsCH3>
2

>  <NdCH2>
0

>  <NssCH2>
6

>  <NtCH>
0

>  <NdsCH>
0

>  <NaaCH>
11

>  <NsssCH>
1

>  <NddC>
0

>  <NtsC>
0

>  <NdssC>
0

>  <NaasC>
5

>  <NaaaC>
2

>  <NssssC>
0

>  <NsNH3>
0

>  <NsNH2>
0

>  <NssNH2>
0

>  <NdNH>
0

>  <NssNH>
1

>  <NaaNH>
1

>  <NtN>
0

>  <NsssNH>
0

>  <NdsN>
0

>  <NaaN>
2

>  <NsssN>
2

>  <NddsN>
0

>  <NaasN>
0

>  <NssssN>
0

>  <NsOH>
0

>  <NdO>
0

>  <NssO>
0

>  <NaaO>
0

>  <NsF>
0

>  <NsSiH3>
0

>  <NssSiH2>
0

>  <NsssSiH>
0

>  <NssssSi>
0

>  <NsPH2>
0

>  <NssPH>
0

>  <NsssP>
0

>  <NdsssP>
0

>  <NsssssP>
0

>  <NsSH>
0

>  <NdS>
0

>  <NssS>
0

>  <NaaS>
0

>  <NdssS>
0

>  <NddssS>
0

>  <NsCl>
0

>  <NsBr>
0

>  <NsI>
0

>  <fragCpx>
313.06

>  <fMF>
0.46

>  <nHBAcc>
5

>  <nHBDon>
2

>  <Kier1>
24.68

>  <Kier2>
11.82

>  <Lipinski>
1

>  <GhoseFilter>
0

>  <FilterItLogS>
-7.26

>  <VMcGowan>
353.87

>  <LabuteASA>
195.22

>  <PEOE_VSA1>
15.2

>  <PEOE_VSA2>
4.9

>  <PEOE_VSA3>
9.97

>  <PEOE_VSA4>
0

>  <PEOE_VSA5>
0

>  <PEOE_VSA6>
61.52

>  <PEOE_VSA7>
36.23

>  <PEOE_VSA8>
44.46

>  <PEOE_VSA9>
5.39

>  <PEOE_VSA10>
17.79

>  <PEOE_VSA11>
0

>  <PEOE_VSA12>
0

>  <PEOE_VSA13>
0

>  <SMR_VSA1>
0

>  <SMR_VSA2>
0

>  <SMR_VSA3>
24.75

>  <SMR_VSA4>
0

>  <SMR_VSA5>
26.43

>  <SMR_VSA6>
38.04

>  <SMR_VSA7>
78.12

>  <SMR_VSA8>
0

>  <SMR_VSA9>
11.26

>  <SlogP_VSA1>
5.32

>  <SlogP_VSA2>
57.48

>  <SlogP_VSA3>
6.54

>  <SlogP_VSA4>
0

>  <SlogP_VSA5>
31.02

>  <SlogP_VSA6>
66.99

>  <SlogP_VSA7>
0

>  <SlogP_VSA8>
22.29

>  <SlogP_VSA9>
0

>  <SlogP_VSA10>
5.82

>  <SlogP_VSA11>
0

>  <EState_VSA1>
0

>  <EState_VSA2>
6.04

>  <EState_VSA3>
0

>  <EState_VSA4>
54.29

>  <EState_VSA5>
24.22

>  <EState_VSA6>
6.33

>  <EState_VSA7>
6.07

>  <EState_VSA8>
98.51

>  <EState_VSA9>
0

>  <EState_VSA10>
0

>  <VSA_EState1>
0

>  <VSA_EState2>
17.51

>  <VSA_EState3>
4.56

>  <VSA_EState4>
5.66

>  <VSA_EState5>
0.85

>  <VSA_EState6>
21.62

>  <VSA_EState7>
1.62

>  <VSA_EState8>
11.2

>  <VSA_EState9>
0

>  <apol>
73.03

>  <bpol>
38.94

>  <nRing>
5

>  <nHRing>
3

>  <naRing>
4

>  <naHRing>
2

>  <nARing 2>
1

>  <nAHRing 2>
1

>  <nFRing>
1

>  <nFHRing>
1

>  <nFaRing>
1

>  <nFaHRing>
1

>  <nFARing 2>
0

>  <nFAHRing 2>
0

>  <nRot>
7

>  <SLogP>
4.94

>  <SMR>
135.2

>  <TopoPSA(NO)>
60.08

>  <TopoPSA>
60.08

>  <JGI1>
0.16

>  <JGI2>
0.07

>  <JGI3>
0.03

>  <JGI4>
0.04

>  <JGI5>
0.02

>  <Diameter>
20

>  <Radius>
10

>  <TMWC10>
147.86

>  <TSRW10>
83.18

>  <MW>
440.27

>  <AMW>
6.77

>  <WPath>
3773

>  <WPol>
51

>  <Zagreb1>
176

>  <Zagreb2>
207

>  <mZagreb2>
7.28

>  <yes>


>  <nAR-cont>
0.816016

>  <nHA-cont>
0.61399562

>  <MWHBN>
0.333609564

>  <MWHBN-cont>
0.730102746

>  <TPSA-cont>
0.580604293

>  <pka_cont>
0.97

>  <yes.1>


>  <BBB_SCORE>
4.171374324

>  <MMFF94 Energy>
80.303

$$$$
Compound 2931
Actelion Java MolfileCreator 2.0

  0  0  0  0  0  0              0 V3000
M  V30 BEGIN CTAB
M  V30 COUNTS 39 40 0 0 0
M  V30 BEGIN ATOM
M  V30 1 Cl 2.7925 4.5508 1.8344 0
M  V30 2 C 1.7299 3.2243 1.5649 0
M  V30 3 C 1.7669 2.5438 0.3507 0
M  V30 4 C 0.8368 2.8394 2.5621 0
M  V30 5 C 0.9045 1.4668 0.132 0
M  V30 6 C -0.0241 1.7611 2.344 0
M  V30 7 C 0.0029 1.0553 1.1285 0
M  V30 8 C -0.9572 -0.1118 0.9145 0 CFG=2
M  V30 9 O -0.503 -0.9686 -0.146 0
M  V30 10 C -2.3751 0.3618 0.6066 0
M  V30 11 C 0.3267 -2.0326 0.3248 0
M  V30 12 N -3.2745 0.347 1.6306 0
M  V30 13 C -2.7142 0.8143 -0.6699 0
M  V30 14 C 0.9843 -2.7469 -0.87 0
M  V30 15 C -4.5252 0.7847 1.3654 0
M  V30 16 C -4.0112 1.2588 -0.909 0
M  V30 17 N 1.9525 -1.9205 -1.6257 0
M  V30 18 C -4.9367 1.245 0.1264 0
M  V30 19 C 2.3047 -2.5864 -2.8818 0
M  V30 20 C 3.1647 -1.6492 -0.8518 0
M  V30 21 H 2.4599 2.8438 -0.4304 0
M  V30 22 H 0.8008 3.3748 3.5069 0
M  V30 23 H 0.9436 0.9437 -0.823 0
M  V30 24 H -0.7288 1.4765 3.1246 0
M  V30 25 H -1.0044 -0.6988 1.843 0
M  V30 26 H -0.3085 -2.7492 0.8587 0
M  V30 27 H 1.079 -1.6611 1.0284 0
M  V30 28 H -1.9761 0.8156 -1.4666 0
M  V30 29 H 1.4646 -3.6694 -0.5202 0
M  V30 30 H 0.1732 -3.0374 -1.5506 0
M  V30 31 H -5.213 0.7556 2.2056 0
M  V30 32 H -4.2941 1.6124 -1.8961 0
M  V30 33 H -5.9544 1.5848 -0.028 0
M  V30 34 H 1.4138 -2.7386 -3.5014 0
M  V30 35 H 2.7803 -3.5596 -2.7143 0
M  V30 36 H 2.9886 -1.964 -3.4699 0
M  V30 37 H 3.6718 -2.5702 -0.5422 0
M  V30 38 H 2.9451 -1.0573 0.0415 0
M  V30 39 H 3.8702 -1.0523 -1.4414 0
M  V30 END ATOM
M  V30 BEGIN BOND
M  V30 1 1 1 2
M  V30 2 2 2 3
M  V30 3 1 2 4
M  V30 4 1 3 5
M  V30 5 2 4 6
M  V30 6 2 5 7
M  V30 7 1 7 8
M  V30 8 1 8 9
M  V30 9 1 8 10
M  V30 10 1 9 11
M  V30 11 2 10 12
M  V30 12 1 10 13
M  V30 13 1 11 14
M  V30 14 1 12 15
M  V30 15 2 13 16
M  V30 16 1 14 17
M  V30 17 2 15 18
M  V30 18 1 17 19
M  V30 19 1 17 20
M  V30 20 1 6 7
M  V30 21 1 16 18
M  V30 22 1 3 21
M  V30 23 1 4 22
M  V30 24 1 5 23
M  V30 25 1 6 24
M  V30 26 1 8 25
M  V30 27 1 11 26
M  V30 28 1 11 27
M  V30 29 1 13 28
M  V30 30 1 14 29
M  V30 31 1 14 30
M  V30 32 1 15 31
M  V30 33 1 16 32
M  V30 34 1 18 33
M  V30 35 1 19 34
M  V30 36 1 19 35
M  V30 37 1 19 36
M  V30 38 1 20 37
M  V30 39 1 20 38
M  V30 40 1 20 39
M  V30 END BOND
M  V30 BEGIN COLLECTION
M  V30 MDLV30/STERAC1 ATOMS=(1 8)
M  V30 END COLLECTION
M  V30 END CTAB
M  END
>  <Column 1>
3768

>  <level_0>
6791

>  <index>
6792

>  <Unnamed: 0>
6792

>  <NO.>
6805

>  <Name>
carbinoxamine

>  <IUPAC_name>
2-[(4-chlorophenyl)-pyridin-2-ylmethoxy]-n-n-dimethylethanamine

>  <SMILES>
CN(C)CCOC(c1ccc(Cl)cc1)c1ccccn1

>  <CID>
2564

>  <logBB>


>  <BBB+/BBB->
BBB+

>  <Inchi>
InChI=1S/C16H19ClN2O/c1-19(2)11-12-20-16(15-5-3-4-10-18-15)13-6-8-14(17)9-7-13/h3-10-16H-11-12H2-1-2H3

>  <threshold>


>  <reference>
R26|

>  <group>
C

>  <Class>
1

>  <ABC>
15.1

>  <ABCGG>
12.65

>  <nAcid>
0

>  <nBase>
1

>  <nAromAtom>
12

>  <nAromBond>
12

>  <nAtom>
39

>  <nHeavyAtom>
20

>  <nSpiro>
0

>  <nBridgehead>
0

>  <nHetero>
4

>  <nN>
2

>  <nO>
1

>  <nF>
0

>  <BalabanJ>
1.88

>  <BertzCT>
513.76

>  <nBonds>
40

>  <nBondsO>
21

>  <nBondsS>
28

>  <nBondsD>
0

>  <nBondsT>
0

>  <nBondsA>
12

>  <nBondsM>
12

>  <nBondsKS>
34

>  <nBondsKD>
6

>  <RNCG>
0.26

>  <RPCG>
0.09

>  <FCSP3>
0.31

>  <SZ>
25.67

>  <Sm>
24.21

>  <Sv>
24.47

>  <Sse>
38.86

>  <Sp>
26.69

>  <Si>
43.89

>  <MZ>
0.66

>  <Mm>
0.62

>  <Mv>
0.63

>  <Mse>
1

>  <Mp>
0.68

>  <Mi>
1.13

>  <NsCH3>
2

>  <NdCH2>
0

>  <NssCH2>
2

>  <NtCH>
0

>  <NdsCH>
0

>  <NaaCH>
8

>  <NsssCH>
1

>  <NddC>
0

>  <NtsC>
0

>  <NdssC>
0

>  <NaasC>
3

>  <NaaaC>
0

>  <NssssC>
0

>  <NsNH3>
0

>  <NsNH2>
0

>  <NssNH2>
0

>  <NdNH>
0

>  <NssNH>
0

>  <NaaNH>
0

>  <NtN>
0

>  <NsssNH>
0

>  <NdsN>
0

>  <NaaN>
1

>  <NsssN>
1

>  <NddsN>
0

>  <NaasN>
0

>  <NssssN>
0

>  <NsOH>
0

>  <NdO>
0

>  <NssO>
1

>  <NaaO>
0

>  <NsF>
0

>  <NsSiH3>
0

>  <NssSiH2>
0

>  <NsssSiH>
0

>  <NssssSi>
0

>  <NsPH2>
0

>  <NssPH>
0

>  <NsssP>
0

>  <NdsssP>
0

>  <NsssssP>
0

>  <NsSH>
0

>  <NdS>
0

>  <NssS>
0

>  <NaaS>
0

>  <NdssS>
0

>  <NddssS>
0

>  <NsCl>
1

>  <NsBr>
0

>  <NsI>
0

>  <fragCpx>
61.04

>  <fMF>
0.33

>  <nHBAcc>
3

>  <nHBDon>
0

>  <Kier1>
16.37

>  <Kier2>
8.44

>  <Lipinski>
1

>  <GhoseFilter>
1

>  <FilterItLogS>
-4.65

>  <VMcGowan>
226.85

>  <LabuteASA>
124.71

>  <PEOE_VSA1>
9.64

>  <PEOE_VSA2>
4.98

>  <PEOE_VSA3>
0

>  <PEOE_VSA4>
0

>  <PEOE_VSA5>
0

>  <PEOE_VSA6>
29.8

>  <PEOE_VSA7>
43.92

>  <PEOE_VSA8>
17.76

>  <PEOE_VSA9>
12.3

>  <PEOE_VSA10>
6.1

>  <PEOE_VSA11>
0

>  <PEOE_VSA12>
0

>  <PEOE_VSA13>
0

>  <SMR_VSA1>
4.74

>  <SMR_VSA2>
0

>  <SMR_VSA3>
9.88

>  <SMR_VSA4>
0

>  <SMR_VSA5>
6.1

>  <SMR_VSA6>
27.25

>  <SMR_VSA7>
64.94

>  <SMR_VSA8>
0

>  <SMR_VSA9>
0

>  <SlogP_VSA1>
0

>  <SlogP_VSA2>
37.13

>  <SlogP_VSA3>
4.74

>  <SlogP_VSA4>
0

>  <SlogP_VSA5>
17.36

>  <SlogP_VSA6>
48.66

>  <SlogP_VSA7>
5.02

>  <SlogP_VSA8>
0

>  <SlogP_VSA9>
0

>  <SlogP_VSA10>
0

>  <SlogP_VSA11>
0

>  <EState_VSA1>
0

>  <EState_VSA2>
6.1

>  <EState_VSA3>
6.61

>  <EState_VSA4>
22.82

>  <EState_VSA5>
0

>  <EState_VSA6>
6.2

>  <EState_VSA7>
56.56

>  <EState_VSA8>
9.88

>  <EState_VSA9>
16.34

>  <EState_VSA10>
0

>  <VSA_EState1>
6.02

>  <VSA_EState2>
6.5

>  <VSA_EState3>
0.72

>  <VSA_EState4>
1.97

>  <VSA_EState5>
0

>  <VSA_EState6>
13.58

>  <VSA_EState7>
1.63

>  <VSA_EState8>
1.52

>  <VSA_EState9>
4.06

>  <apol>
44.57

>  <bpol>
24.16

>  <nRing>
2

>  <nHRing>
1

>  <naRing>
2

>  <naHRing>
1

>  <nARing 2>
0

>  <nAHRing 2>
0

>  <nFRing>
0

>  <nFHRing>
0

>  <nFaRing>
0

>  <nFaHRing>
0

>  <nFARing 2>
0

>  <nFAHRing 2>
0

>  <nRot>
6

>  <SLogP>
3.4

>  <SMR>
82.04

>  <TopoPSA(NO)>
25.36

>  <TopoPSA>
25.36

>  <JGI1>
0.17

>  <JGI2>
0.07

>  <JGI3>
0.04

>  <JGI4>
0.02

>  <JGI5>
0.01

>  <Diameter>
10

>  <Radius>
5

>  <TMWC10>
111.96

>  <TSRW10>
52.84

>  <MW>
290.12

>  <AMW>
7.44

>  <WPath>
851

>  <WPol>
26

>  <Zagreb1>
96

>  <Zagreb2>
107

>  <mZagreb2>
4.56

>  <yes>


>  <nAR-cont>
0.336376

>  <nHA-cont>
0.999629945

>  <MWHBN>
0.176129629

>  <MWHBN-cont>
0.982627725

>  <TPSA-cont>
0.822971452

>  <pka_cont>
0.97

>  <yes.1>


>  <BBB_SCORE>
4.940890437

>  <MMFF94 Energy>
100.08

$$$$
Compound 2932
Actelion Java MolfileCreator 2.0

  0  0  0  0  0  0              0 V3000
M  V30 BEGIN CTAB
M  V30 COUNTS 48 51 0 0 0
M  V30 BEGIN ATOM
M  V30 1 Cl 0.6477 -2.9984 -2.1874 0
M  V30 2 C -0.9559 -2.4719 -2.5678 0
M  V30 3 C -1.2742 -1.1133 -2.732 0
M  V30 4 C -1.9402 -3.4531 -2.7254 0
M  V30 5 C -0.2808 -0.0428 -2.5696 0
M  V30 6 C -2.5955 -0.7632 -3.0569 0
M  V30 7 C -3.248 -3.09 -3.0476 0
M  V30 8 O 0.0805 0.197 -1.2644 0
M  V30 9 C 0.1994 0.6154 -3.6272 0
M  V30 10 C -3.5752 -1.7462 -3.2137 0
M  V30 11 C 1.045 1.1358 -0.9881 0
M  V30 12 C 1.1861 1.6837 -3.4114 0
M  V30 13 C 1.6133 1.9252 -2.0091 0
M  V30 14 C 1.4183 1.3024 0.3635 0
M  V30 15 O 1.5881 2.3074 -4.3846 0
M  V30 16 C 2.5525 2.9095 -1.6805 0
M  V30 17 C 2.31 2.3554 0.6448 0
M  V30 18 C 0.9299 0.4237 1.5256 0
M  V30 19 O 3.1343 3.685 -2.6416 0
M  V30 20 C 2.8935 3.1312 -0.3515 0
M  V30 21 O 2.6231 2.7064 1.9315 0
M  V30 22 C -0.2707 1.0508 2.2651 0
M  V30 23 C 0.6408 -1.0549 1.2089 0
M  V30 24 O 0.1117 2.3359 2.7924 0
M  V30 25 C -0.7127 0.1635 3.4489 0
M  V30 26 C 0.2516 -1.825 2.4711 0
M  V30 27 N -0.953 -1.2323 3.0694 0
M  V30 28 C -1.3834 -2.0143 4.2292 0
M  V30 29 H -1.6925 -4.5042 -2.5999 0
M  V30 30 H -2.8724 0.282 -3.1834 0
M  V30 31 H -4.0106 -3.8555 -3.169 0
M  V30 32 H -0.0936 0.4144 -4.6495 0
M  V30 33 H -4.5949 -1.4615 -3.4634 0
M  V30 34 H 1.7714 0.3916 2.2354 0
M  V30 35 H 3.7837 4.2849 -2.2417 0
M  V30 36 H 3.5901 3.9143 -0.0678 0
M  V30 37 H 1.7907 2.6204 2.4501 0
M  V30 38 H -1.1045 1.2051 1.5686 0
M  V30 39 H -0.1913 -1.1622 0.5076 0
M  V30 40 H 1.5198 -1.5209 0.7486 0
M  V30 41 H -0.7111 2.7594 3.1033 0
M  V30 42 H 0.0402 0.2275 4.2475 0
M  V30 43 H -1.6285 0.5989 3.8701 0
M  V30 44 H 0.0512 -2.8655 2.1878 0
M  V30 45 H 1.0877 -1.834 3.1824 0
M  V30 46 H -0.6225 -2.0399 5.0176 0
M  V30 47 H -1.6105 -3.0449 3.9349 0
M  V30 48 H -2.3049 -1.599 4.6522 0
M  V30 END ATOM
M  V30 BEGIN BOND
M  V30 1 1 1 2
M  V30 2 2 2 3
M  V30 3 1 2 4
M  V30 4 1 3 5
M  V30 5 1 3 6
M  V30 6 2 4 7
M  V30 7 1 5 8
M  V30 8 2 5 9
M  V30 9 2 6 10
M  V30 10 1 8 11
M  V30 11 1 9 12
M  V30 12 2 11 13
M  V30 13 1 11 14
M  V30 14 2 12 15
M  V30 15 1 13 16
M  V30 16 2 14 17
M  V30 17 1 14 18
M  V30 18 1 16 19
M  V30 19 2 16 20
M  V30 20 1 17 21
M  V30 21 1 18 22
M  V30 22 1 18 23
M  V30 23 1 22 24
M  V30 24 1 22 25
M  V30 25 1 23 26
M  V30 26 1 25 27
M  V30 27 1 27 28
M  V30 28 1 7 10
M  V30 29 1 12 13
M  V30 30 1 17 20
M  V30 31 1 26 27
M  V30 32 1 4 29
M  V30 33 1 6 30
M  V30 34 1 7 31
M  V30 35 1 9 32
M  V30 36 1 10 33
M  V30 37 1 18 34
M  V30 38 1 19 35
M  V30 39 1 20 36
M  V30 40 1 21 37
M  V30 41 1 22 38
M  V30 42 1 23 39
M  V30 43 1 23 40
M  V30 44 1 24 41
M  V30 45 1 25 42
M  V30 46 1 25 43
M  V30 47 1 26 44
M  V30 48 1 26 45
M  V30 49 1 28 46
M  V30 50 1 28 47
M  V30 51 1 28 48
M  V30 END BOND
M  V30 END CTAB
M  END
>  <Column 1>
3769

>  <level_0>
6792

>  <index>
6793

>  <Unnamed: 0>
6793

>  <NO.>
6806

>  <Name>
flavopiridol

>  <IUPAC_name>
2-(2-chlorophenyl)-5-7-dihydroxy-8-(3-hydroxy-1-methylpiperidin-4-yl)chromen-4-one

>  <SMILES>
CN1CCC(c2c(O)cc(O)c3c(=O)cc(-c4ccccc4Cl)oc23)C(O)C1

>  <CID>
5466794

>  <logBB>


>  <BBB+/BBB->
BBB+

>  <Inchi>
InChI=1S/C21H20ClNO5/c1-23-7-6-12(17(27)10-23)19-14(24)8-15(25)20-16(26)9-18(28-21(19)20)11-4-2-3-5-13(11)22/h2-5-8-9-12-17-24-25-27H-6-7-10H2-1H3

>  <threshold>


>  <reference>
R26|

>  <group>
C

>  <Class>
1

>  <ABC>
22.21

>  <ABCGG>
17.59

>  <nAcid>
0

>  <nBase>
1

>  <nAromAtom>
16

>  <nAromBond>
17

>  <nAtom>
48

>  <nHeavyAtom>
28

>  <nSpiro>
0

>  <nBridgehead>
0

>  <nHetero>
7

>  <nN>
1

>  <nO>
5

>  <nF>
0

>  <BalabanJ>
1.58

>  <BertzCT>
1109.88

>  <nBonds>
51

>  <nBondsO>
31

>  <nBondsS>
33

>  <nBondsD>
1

>  <nBondsT>
0

>  <nBondsA>
17

>  <nBondsM>
18

>  <nBondsKS>
43

>  <nBondsKD>
8

>  <RNCG>
0.18

>  <RPCG>
0.1

>  <FCSP3>
0.29

>  <SZ>
35

>  <Sm>
33.46

>  <Sv>
31.84

>  <Sse>
48.96

>  <Sp>
33.35

>  <Si>
53.64

>  <MZ>
0.73

>  <Mm>
0.7

>  <Mv>
0.66

>  <Mse>
1.02

>  <Mp>
0.69

>  <Mi>
1.12

>  <NsCH3>
1

>  <NdCH2>
0

>  <NssCH2>
3

>  <NtCH>
0

>  <NdsCH>
0

>  <NaaCH>
6

>  <NsssCH>
2

>  <NddC>
0

>  <NtsC>
0

>  <NdssC>
0

>  <NaasC>
6

>  <NaaaC>
2

>  <NssssC>
0

>  <NsNH3>
0

>  <NsNH2>
0

>  <NssNH2>
0

>  <NdNH>
0

>  <NssNH>
0

>  <NaaNH>
0

>  <NtN>
0

>  <NsssNH>
0

>  <NdsN>
0

>  <NaaN>
0

>  <NsssN>
1

>  <NddsN>
0

>  <NaasN>
0

>  <NssssN>
0

>  <NsOH>
3

>  <NdO>
1

>  <NssO>
0

>  <NaaO>
1

>  <NsF>
0

>  <NsSiH3>
0

>  <NssSiH2>
0

>  <NsssSiH>
0

>  <NssssSi>
0

>  <NsPH2>
0

>  <NssPH>
0

>  <NsssP>
0

>  <NdsssP>
0

>  <NsssssP>
0

>  <NsSH>
0

>  <NdS>
0

>  <NssS>
0

>  <NaaS>
0

>  <NdssS>
0

>  <NddssS>
0

>  <NsCl>
1

>  <NsBr>
0

>  <NsI>
0

>  <fragCpx>
205.07

>  <fMF>
0.46

>  <nHBAcc>
6

>  <nHBDon>
3

>  <Kier1>
21.24

>  <Kier2>
8.63

>  <Lipinski>
1

>  <GhoseFilter>
1

>  <FilterItLogS>
-4.68

>  <VMcGowan>
280.48

>  <LabuteASA>
165.77

>  <PEOE_VSA1>
24.64

>  <PEOE_VSA2>
4.79

>  <PEOE_VSA3>
0

>  <PEOE_VSA4>
0

>  <PEOE_VSA5>
0

>  <PEOE_VSA6>
23.73

>  <PEOE_VSA7>
32.15

>  <PEOE_VSA8>
35.72

>  <PEOE_VSA9>
11.13

>  <PEOE_VSA10>
28.23

>  <PEOE_VSA11>
5.43

>  <PEOE_VSA12>
0

>  <PEOE_VSA13>
0

>  <SMR_VSA1>
19.74

>  <SMR_VSA2>
0

>  <SMR_VSA3>
4.9

>  <SMR_VSA4>
0

>  <SMR_VSA5>
18.44

>  <SMR_VSA6>
20.14

>  <SMR_VSA7>
57.21

>  <SMR_VSA8>
0

>  <SMR_VSA9>
22.82

>  <SlogP_VSA1>
5.43

>  <SlogP_VSA2>
46.46

>  <SlogP_VSA3>
0

>  <SlogP_VSA4>
0

>  <SlogP_VSA5>
17.9

>  <SlogP_VSA6>
45.61

>  <SlogP_VSA7>
5.02

>  <SlogP_VSA8>
22.29

>  <SlogP_VSA9>
0

>  <SlogP_VSA10>
0

>  <SlogP_VSA11>
11.5

>  <EState_VSA1>
17.45

>  <EState_VSA2>
28.23

>  <EState_VSA3>
29.12

>  <EState_VSA4>
12.61

>  <EState_VSA5>
6.07

>  <EState_VSA6>
24.27

>  <EState_VSA7>
11.95

>  <EState_VSA8>
0

>  <EState_VSA9>
16.02

>  <EState_VSA10>
20.11

>  <VSA_EState1>
6

>  <VSA_EState2>
14.76

>  <VSA_EState3>
31.81

>  <VSA_EState4>
0.49

>  <VSA_EState5>
-0.77

>  <VSA_EState6>
9.35

>  <VSA_EState7>
-0.17

>  <VSA_EState8>
1.15

>  <VSA_EState9>
1.91

>  <apol>
55.7

>  <bpol>
24.89

>  <nRing>
4

>  <nHRing>
2

>  <naRing>
3

>  <naHRing>
1

>  <nARing 2>
1

>  <nAHRing 2>
1

>  <nFRing>
1

>  <nFHRing>
1

>  <nFaRing>
1

>  <nFaHRing>
1

>  <nFARing 2>
0

>  <nFAHRing 2>
0

>  <nRot>
2

>  <SLogP>
3.3

>  <SMR>
107.12

>  <TopoPSA(NO)>
94.14

>  <TopoPSA>
94.14

>  <JGI1>
0.19

>  <JGI2>
0.08

>  <JGI3>
0.06

>  <JGI4>
0.04

>  <JGI5>
0.03

>  <Diameter>
12

>  <Radius>
6

>  <TMWC10>
137.11

>  <TSRW10>
63.98

>  <MW>
401.1

>  <AMW>
8.36

>  <WPath>
1843

>  <WPol>
52

>  <Zagreb1>
154

>  <Zagreb2>
187

>  <mZagreb2>
6

>  <yes>


>  <nAR-cont>
0.816016

>  <nHA-cont>
0.82432561

>  <MWHBN>
0.449382523

>  <MWHBN-cont>
0.288127335

>  <TPSA-cont>
0.342844343

>  <pka_cont>
0.97

>  <yes.1>


>  <BBB_SCORE>
3.243221297

>  <MMFF94 Energy>
87.733

$$$$
Compound 2933
Actelion Java MolfileCreator 2.0

  0  0  0  0  0  0              0 V3000
M  V30 BEGIN CTAB
M  V30 COUNTS 32 34 0 0 0
M  V30 BEGIN ATOM
M  V30 1 O -0.3171 1.8246 -1.7452 0
M  V30 2 C -0.3799 1.8849 -0.5315 0
M  V30 3 N -0.6574 3.0196 0.2117 0
M  V30 4 C -0.1802 0.7782 0.4778 0
M  V30 5 C -0.6541 2.7484 1.5738 0
M  V30 6 C -0.3698 1.3996 1.8045 0
M  V30 7 C 0.1098 -0.5234 0.3168 0
M  V30 8 C -0.8917 3.6478 2.5938 0
M  V30 9 C -0.3174 0.9151 3.1013 0
M  V30 10 C 0.3209 -1.2689 -0.8776 0
M  V30 11 C -0.8395 3.1623 3.9016 0
M  V30 12 C -0.5549 1.8082 4.1534 0
M  V30 13 N 0.2489 -0.7035 -2.1283 0
M  V30 14 C 0.6217 -2.6155 -1.0622 0
M  V30 15 C 0.493 -1.6425 -3.0997 0
M  V30 16 C 0.7276 -2.839 -2.463 0
M  V30 17 C 0.8036 -3.6488 -0.0072 0
M  V30 18 C 0.4746 -1.2879 -4.5388 0
M  V30 19 H -0.8357 3.9175 -0.2105 0
M  V30 20 H 0.2031 -1.1219 1.2205 0
M  V30 21 H -1.1107 4.6907 2.3962 0
M  V30 22 H -0.0995 -0.1256 3.3144 0
M  V30 23 H -1.0205 3.8365 4.7361 0
M  V30 24 H -0.5192 1.4509 5.1807 0
M  V30 25 H 0.0442 0.2724 -2.3203 0
M  V30 26 H 0.9521 -3.7783 -2.9523 0
M  V30 27 H -0.1086 -3.7526 0.5889 0
M  V30 28 H 1.6271 -3.3745 0.6598 0
M  V30 29 H 1.0342 -4.6257 -0.4442 0
M  V30 30 H -0.5077 -0.9006 -4.8272 0
M  V30 31 H 1.2267 -0.5229 -4.7563 0
M  V30 32 H 0.6904 -2.1622 -5.1611 0
M  V30 END ATOM
M  V30 BEGIN BOND
M  V30 1 2 1 2
M  V30 2 1 2 3
M  V30 3 1 2 4
M  V30 4 1 3 5
M  V30 5 1 4 6
M  V30 6 2 4 7
M  V30 7 1 5 8
M  V30 8 1 6 9
M  V30 9 1 7 10
M  V30 10 2 8 11
M  V30 11 2 9 12
M  V30 12 1 10 13
M  V30 13 2 10 14
M  V30 14 1 13 15
M  V30 15 1 14 16
M  V30 16 1 14 17
M  V30 17 1 15 18
M  V30 18 2 5 6
M  V30 19 1 11 12
M  V30 20 2 15 16
M  V30 21 1 3 19
M  V30 22 1 7 20
M  V30 23 1 8 21
M  V30 24 1 9 22
M  V30 25 1 11 23
M  V30 26 1 12 24
M  V30 27 1 13 25
M  V30 28 1 16 26
M  V30 29 1 17 27
M  V30 30 1 17 28
M  V30 31 1 17 29
M  V30 32 1 18 30
M  V30 33 1 18 31
M  V30 34 1 18 32
M  V30 END BOND
M  V30 END CTAB
M  END
>  <Column 1>
3773

>  <level_0>
6802

>  <index>
6803

>  <Unnamed: 0>
6803

>  <NO.>
6816

>  <Name>
semaxanib

>  <IUPAC_name>
(3z)-3-[(3-5-dimethyl-1h-pyrrol-2-yl)methylidene]-1h-indol-2-one

>  <SMILES>
Cc1cc(C)c(/C=C2\C(=O)Nc3ccccc32)[nH]1

>  <CID>
5329098

>  <logBB>


>  <BBB+/BBB->
BBB+

>  <Inchi>
InChI=1S/C15H14N2O/c1-9-7-10(2)16-14(9)8-12-11-5-3-4-6-13(11)17-15(12)18/h3-8-16H-1-2H3-(H-17-18)/b12-8-

>  <threshold>


>  <reference>
R26|

>  <group>
C

>  <Class>
1

>  <ABC>
14.31

>  <ABCGG>
12.58

>  <nAcid>
0

>  <nBase>
0

>  <nAromAtom>
11

>  <nAromBond>
11

>  <nAtom>
32

>  <nHeavyAtom>
18

>  <nSpiro>
0

>  <nBridgehead>
0

>  <nHetero>
3

>  <nN>
2

>  <nO>
1

>  <nF>
0

>  <BalabanJ>
1.64

>  <BertzCT>
664.88

>  <nBonds>
34

>  <nBondsO>
20

>  <nBondsS>
21

>  <nBondsD>
2

>  <nBondsT>
0

>  <nBondsA>
11

>  <nBondsM>
13

>  <nBondsKS>
27

>  <nBondsKD>
7

>  <RNCG>
0.27

>  <RPCG>
0.2

>  <FCSP3>
0.13

>  <SZ>
21

>  <Sm>
19.84

>  <Sv>
21.02

>  <Sse>
31.87

>  <Sp>
22.39

>  <Si>
35.7

>  <MZ>
0.66

>  <Mm>
0.62

>  <Mv>
0.66

>  <Mse>
1

>  <Mp>
0.7

>  <Mi>
1.12

>  <NsCH3>
2

>  <NdCH2>
0

>  <NssCH2>
0

>  <NtCH>
0

>  <NdsCH>
1

>  <NaaCH>
5

>  <NsssCH>
0

>  <NddC>
0

>  <NtsC>
0

>  <NdssC>
2

>  <NaasC>
5

>  <NaaaC>
0

>  <NssssC>
0

>  <NsNH3>
0

>  <NsNH2>
0

>  <NssNH2>
0

>  <NdNH>
0

>  <NssNH>
1

>  <NaaNH>
1

>  <NtN>
0

>  <NsssNH>
0

>  <NdsN>
0

>  <NaaN>
0

>  <NsssN>
0

>  <NddsN>
0

>  <NaasN>
0

>  <NssssN>
0

>  <NsOH>
0

>  <NdO>
1

>  <NssO>
0

>  <NaaO>
0

>  <NsF>
0

>  <NsSiH3>
0

>  <NssSiH2>
0

>  <NsssSiH>
0

>  <NssssSi>
0

>  <NsPH2>
0

>  <NssPH>
0

>  <NsssP>
0

>  <NdsssP>
0

>  <NsssssP>
0

>  <NsSH>
0

>  <NdS>
0

>  <NssS>
0

>  <NaaS>
0

>  <NdssS>
0

>  <NddssS>
0

>  <NsCl>
0

>  <NsBr>
0

>  <NsI>
0

>  <fragCpx>
94.03

>  <fMF>
0.47

>  <nHBAcc>
1

>  <nHBDon>
2

>  <Kier1>
13.01

>  <Kier2>
5.17

>  <Lipinski>
1

>  <GhoseFilter>
1

>  <FilterItLogS>
-4.67

>  <VMcGowan>
185.36

>  <LabuteASA>
105.54

>  <PEOE_VSA1>
10.3

>  <PEOE_VSA2>
4.79

>  <PEOE_VSA3>
0

>  <PEOE_VSA4>
0

>  <PEOE_VSA5>
0

>  <PEOE_VSA6>
18.2

>  <PEOE_VSA7>
37.62

>  <PEOE_VSA8>
22.64

>  <PEOE_VSA9>
5.57

>  <PEOE_VSA10>
0

>  <PEOE_VSA11>
0

>  <PEOE_VSA12>
0

>  <PEOE_VSA13>
5.91

>  <SMR_VSA1>
4.79

>  <SMR_VSA2>
0

>  <SMR_VSA3>
4.98

>  <SMR_VSA4>
0

>  <SMR_VSA5>
13.85

>  <SMR_VSA6>
5.32

>  <SMR_VSA7>
52.85

>  <SMR_VSA8>
0

>  <SMR_VSA9>
0

>  <SlogP_VSA1>
5.32

>  <SlogP_VSA2>
10.89

>  <SlogP_VSA3>
4.79

>  <SlogP_VSA4>
13.85

>  <SlogP_VSA5>
22.51

>  <SlogP_VSA6>
30.33

>  <SlogP_VSA7>
0

>  <SlogP_VSA8>
11.65

>  <SlogP_VSA9>
0

>  <SlogP_VSA10>
5.69

>  <SlogP_VSA11>
0

>  <EState_VSA1>
0

>  <EState_VSA2>
5.91

>  <EState_VSA3>
0

>  <EState_VSA4>
33.78

>  <EState_VSA5>
0

>  <EState_VSA6>
0

>  <EState_VSA7>
44.19

>  <EState_VSA8>
16.37

>  <EState_VSA9>
0

>  <EState_VSA10>
4.79

>  <VSA_EState1>
0

>  <VSA_EState2>
15.23

>  <VSA_EState3>
2.87

>  <VSA_EState4>
5.82

>  <VSA_EState5>
-0.04

>  <VSA_EState6>
9.82

>  <VSA_EState7>
1.92

>  <VSA_EState8>
4.05

>  <VSA_EState9>
0

>  <apol>
37.39

>  <bpol>
16.05

>  <nRing>
3

>  <nHRing>
2

>  <naRing>
2

>  <naHRing>
1

>  <nARing 2>
1

>  <nAHRing 2>
1

>  <nFRing>
1

>  <nFHRing>
1

>  <nFaRing>
0

>  <nFaHRing>
0

>  <nFARing 2>
1

>  <nFAHRing 2>
1

>  <nRot>
1

>  <SLogP>
3.12

>  <SMR>
73.21

>  <TopoPSA(NO)>
44.89

>  <TopoPSA>
44.89

>  <JGI1>
0.2

>  <JGI2>
0.08

>  <JGI3>
0.08

>  <JGI4>
0.03

>  <JGI5>
0.03

>  <Diameter>
9

>  <Radius>
5

>  <TMWC10>
111.33

>  <TSRW10>
67.47

>  <MW>
238.11

>  <AMW>
7.44

>  <WPath>
587

>  <WPol>
26

>  <Zagreb1>
98

>  <Zagreb2>
117

>  <mZagreb2>
3.86

>  <yes>


>  <nAR-cont>
0.816016

>  <nHA-cont>
0.991161285

>  <MWHBN>
0.194416194

>  <MWHBN-cont>
0.997938888

>  <TPSA-cont>
0.686639925

>  <pka_cont>
0.97

>  <yes.1>


>  <BBB_SCORE>
5.162365467

>  <MMFF94 Energy>
27.383

$$$$
Compound 2934
Actelion Java MolfileCreator 2.0

  0  0  0  0  0  0              0 V3000
M  V30 BEGIN CTAB
M  V30 COUNTS 32 34 0 0 0
M  V30 BEGIN ATOM
M  V30 1 O 0.6366 0.0795 3.2661 0
M  V30 2 C -0.1902 0.3454 2.3954 0
M  V30 3 N 0.0299 0.3032 1.0207 0
M  V30 4 N -1.4452 0.6964 2.7976 0
M  V30 5 C -0.9376 0.6835 0.0604 0
M  V30 6 C 1.2822 -0.1185 0.4864 0
M  V30 7 C -1.5835 -0.3054 -0.6935 0
M  V30 8 C -1.2694 2.0324 -0.1066 0
M  V30 9 C 1.4009 -1.1506 -0.4696 0
M  V30 10 C 2.4415 0.5427 0.9338 0
M  V30 11 C -2.5746 0.0678 -1.6082 0
M  V30 12 C -1.1594 -1.7383 -0.5248 0
M  V30 13 C -2.257 2.3953 -1.0216 0
M  V30 14 C 2.6892 -1.4778 -0.9463 0
M  V30 15 C 0.2569 -1.9551 -1.0601 0
M  V30 16 C 3.7036 0.1985 0.4515 0
M  V30 17 C -2.9105 1.414 -1.7676 0
M  V30 18 C 3.8273 -0.8126 -0.4909 0
M  V30 19 H -1.6232 0.7205 3.791 0
M  V30 20 H -2.205 0.8513 2.1537 0
M  V30 21 H -0.7594 2.7982 0.4722 0
M  V30 22 H 2.3649 1.3369 1.6737 0
M  V30 23 H -3.0832 -0.6827 -2.2087 0
M  V30 24 H -1.8499 -2.3997 -1.0627 0
M  V30 25 H -1.2291 -2.026 0.5318 0
M  V30 26 H -2.5148 3.4428 -1.1561 0
M  V30 27 H 2.8095 -2.2675 -1.6862 0
M  V30 28 H 0.2495 -1.7628 -2.1422 0
M  V30 29 H 0.4944 -3.019 -0.9267 0
M  V30 30 H 4.5844 0.7191 0.8169 0
M  V30 31 H -3.6776 1.6994 -2.4838 0
M  V30 32 H 4.8076 -1.0872 -0.8709 0
M  V30 END ATOM
M  V30 BEGIN BOND
M  V30 1 2 1 2
M  V30 2 1 2 3
M  V30 3 1 2 4
M  V30 4 1 3 5
M  V30 5 1 3 6
M  V30 6 2 5 7
M  V30 7 1 5 8
M  V30 8 2 6 9
M  V30 9 1 6 10
M  V30 10 1 7 11
M  V30 11 1 7 12
M  V30 12 2 8 13
M  V30 13 1 9 14
M  V30 14 1 9 15
M  V30 15 2 10 16
M  V30 16 2 11 17
M  V30 17 2 14 18
M  V30 18 1 12 15
M  V30 19 1 13 17
M  V30 20 1 16 18
M  V30 21 1 4 19
M  V30 22 1 4 20
M  V30 23 1 8 21
M  V30 24 1 10 22
M  V30 25 1 11 23
M  V30 26 1 12 24
M  V30 27 1 12 25
M  V30 28 1 13 26
M  V30 29 1 14 27
M  V30 30 1 15 28
M  V30 31 1 15 29
M  V30 32 1 16 30
M  V30 33 1 17 31
M  V30 34 1 18 32
M  V30 END BOND
M  V30 END CTAB
M  END
>  <Column 1>
3774

>  <level_0>
6803

>  <index>
6804

>  <Unnamed: 0>
6804

>  <NO.>
6817

>  <Name>
10-11-dihydrocarbamazepine

>  <IUPAC_name>
5-6-dihydrobenzo[b][1]benzazepine-11-carboxamide

>  <SMILES>
NC(=O)N1c2ccccc2CCc2ccccc21

>  <CID>
19099

>  <logBB>


>  <BBB+/BBB->
BBB+

>  <Inchi>
InChI=1S/C15H14N2O/c16-15(18)17-13-7-3-1-5-11(13)9-10-12-6-2-4-8-14(12)17/h1-8H-9-10H2-(H2-16-18)

>  <threshold>


>  <reference>
R26|

>  <group>
C

>  <Class>
1

>  <ABC>
14.16

>  <ABCGG>
11.79

>  <nAcid>
0

>  <nBase>
0

>  <nAromAtom>
12

>  <nAromBond>
12

>  <nAtom>
32

>  <nHeavyAtom>
18

>  <nSpiro>
0

>  <nBridgehead>
0

>  <nHetero>
3

>  <nN>
2

>  <nO>
1

>  <nF>
0

>  <BalabanJ>
1.85

>  <BertzCT>
559.45

>  <nBonds>
34

>  <nBondsO>
20

>  <nBondsS>
21

>  <nBondsD>
1

>  <nBondsT>
0

>  <nBondsA>
12

>  <nBondsM>
13

>  <nBondsKS>
27

>  <nBondsKD>
7

>  <RNCG>
0.25

>  <RPCG>
0.23

>  <FCSP3>
0.13

>  <SZ>
21

>  <Sm>
19.84

>  <Sv>
21.02

>  <Sse>
31.87

>  <Sp>
22.39

>  <Si>
35.7

>  <MZ>
0.66

>  <Mm>
0.62

>  <Mv>
0.66

>  <Mse>
1

>  <Mp>
0.7

>  <Mi>
1.12

>  <NsCH3>
0

>  <NdCH2>
0

>  <NssCH2>
2

>  <NtCH>
0

>  <NdsCH>
0

>  <NaaCH>
8

>  <NsssCH>
0

>  <NddC>
0

>  <NtsC>
0

>  <NdssC>
1

>  <NaasC>
4

>  <NaaaC>
0

>  <NssssC>
0

>  <NsNH3>
0

>  <NsNH2>
1

>  <NssNH2>
0

>  <NdNH>
0

>  <NssNH>
0

>  <NaaNH>
0

>  <NtN>
0

>  <NsssNH>
0

>  <NdsN>
0

>  <NaaN>
0

>  <NsssN>
1

>  <NddsN>
0

>  <NaasN>
0

>  <NssssN>
0

>  <NsOH>
0

>  <NdO>
1

>  <NssO>
0

>  <NaaO>
0

>  <NsF>
0

>  <NsSiH3>
0

>  <NssSiH2>
0

>  <NsssSiH>
0

>  <NssssSi>
0

>  <NsPH2>
0

>  <NssPH>
0

>  <NsssP>
0

>  <NdsssP>
0

>  <NsssssP>
0

>  <NsSH>
0

>  <NdS>
0

>  <NssS>
0

>  <NaaS>
0

>  <NdssS>
0

>  <NddssS>
0

>  <NsCl>
0

>  <NsBr>
0

>  <NsI>
0

>  <fragCpx>
94.03

>  <fMF>
0.47

>  <nHBAcc>
1

>  <nHBDon>
1

>  <Kier1>
13.01

>  <Kier2>
5.55

>  <Lipinski>
1

>  <GhoseFilter>
1

>  <FilterItLogS>
-3.19

>  <VMcGowan>
185.36

>  <LabuteASA>
105.84

>  <PEOE_VSA1>
5.73

>  <PEOE_VSA2>
4.9

>  <PEOE_VSA3>
4.79

>  <PEOE_VSA4>
0

>  <PEOE_VSA5>
0

>  <PEOE_VSA6>
36.4

>  <PEOE_VSA7>
36.1

>  <PEOE_VSA8>
0

>  <PEOE_VSA9>
11.37

>  <PEOE_VSA10>
0

>  <PEOE_VSA11>
0

>  <PEOE_VSA12>
0

>  <PEOE_VSA13>
0

>  <SMR_VSA1>
4.79

>  <SMR_VSA2>
0

>  <SMR_VSA3>
0

>  <SMR_VSA4>
5.73

>  <SMR_VSA5>
12.84

>  <SMR_VSA6>
4.9

>  <SMR_VSA7>
59.66

>  <SMR_VSA8>
0

>  <SMR_VSA9>
0

>  <SlogP_VSA1>
10.63

>  <SlogP_VSA2>
6.03

>  <SlogP_VSA3>
12.84

>  <SlogP_VSA4>
0

>  <SlogP_VSA5>
11.13

>  <SlogP_VSA6>
48.53

>  <SlogP_VSA7>
0

>  <SlogP_VSA8>
0

>  <SlogP_VSA9>
0

>  <SlogP_VSA10>
16.17

>  <SlogP_VSA11>
0

>  <EState_VSA1>
6.03

>  <EState_VSA2>
0

>  <EState_VSA3>
0

>  <EState_VSA4>
35.34

>  <EState_VSA5>
0

>  <EState_VSA6>
4.9

>  <EState_VSA7>
36.4

>  <EState_VSA8>
12.13

>  <EState_VSA9>
5.73

>  <EState_VSA10>
4.79

>  <VSA_EState1>
0

>  <VSA_EState2>
13.39

>  <VSA_EState3>
0

>  <VSA_EState4>
9.67

>  <VSA_EState5>
0

>  <VSA_EState6>
15.42

>  <VSA_EState7>
1.86

>  <VSA_EState8>
0

>  <VSA_EState9>
0

>  <apol>
37.39

>  <bpol>
16.05

>  <nRing>
3

>  <nHRing>
1

>  <naRing>
2

>  <naHRing>
0

>  <nARing 2>
1

>  <nAHRing 2>
1

>  <nFRing>
1

>  <nFHRing>
1

>  <nFaRing>
0

>  <nFaHRing>
0

>  <nFARing 2>
1

>  <nFAHRing 2>
1

>  <nRot>
0

>  <SLogP>
3

>  <SMR>
72.01

>  <TopoPSA(NO)>
46.33

>  <TopoPSA>
46.33

>  <JGI1>
0.13

>  <JGI2>
0.07

>  <JGI3>
0.05

>  <JGI4>
0.04

>  <JGI5>
0.02

>  <Diameter>
7

>  <Radius>
4

>  <TMWC10>
111.22

>  <TSRW10>
59.46

>  <MW>
238.11

>  <AMW>
7.44

>  <WPath>
521

>  <WPol>
33

>  <Zagreb1>
96

>  <Zagreb2>
115

>  <mZagreb2>
3.97

>  <yes>


>  <nAR-cont>
0.816016

>  <nHA-cont>
0.991161285

>  <MWHBN>
0.129610796

>  <MWHBN-cont>
0.868061627

>  <TPSA-cont>
0.676587831

>  <pka_cont>
0.97

>  <yes.1>


>  <BBB_SCORE>
4.947445387

>  <MMFF94 Energy>
12.635

$$$$
Compound 2935
Actelion Java MolfileCreator 2.0

  0  0  0  0  0  0              0 V3000
M  V30 BEGIN CTAB
M  V30 COUNTS 8 7 0 0 0
M  V30 BEGIN ATOM
M  V30 1 Cl -1.6484 -0.8673 1.1277 0
M  V30 2 C -0.884 -0.1444 -0.3003 0
M  V30 3 Cl -1.5003 1.4906 -0.6057 0
M  V30 4 C 0.6181 -0.1028 -0.1153 0
M  V30 5 O 1.4352 -0.6756 -0.8246 0
M  V30 6 O 1.0524 0.6377 0.929 0
M  V30 7 H -1.1229 -0.7666 -1.1671 0
M  V30 8 H 2.0294 0.5597 0.9065 0
M  V30 END ATOM
M  V30 BEGIN BOND
M  V30 1 1 1 2
M  V30 2 1 2 3
M  V30 3 1 2 4
M  V30 4 2 4 5
M  V30 5 1 4 6
M  V30 6 1 2 7
M  V30 7 1 6 8
M  V30 END BOND
M  V30 END CTAB
M  END
>  <Column 1>
3775

>  <level_0>
6804

>  <index>
6805

>  <Unnamed: 0>
6805

>  <NO.>
6818

>  <Name>
dichloroacetate

>  <IUPAC_name>
2-2-dichloroacetic acid

>  <SMILES>
O=C(O)C(Cl)Cl

>  <CID>
6597

>  <logBB>


>  <BBB+/BBB->
BBB+

>  <Inchi>
InChI=1S/C2H2Cl2O2/c3-1(4)2(5)6/h1H-(H-5-6)

>  <threshold>


>  <reference>
R26|

>  <group>
C

>  <Class>
1

>  <ABC>
3.93

>  <ABCGG>
4.24

>  <nAcid>
1

>  <nBase>
0

>  <nAromAtom>
0

>  <nAromBond>
0

>  <nAtom>
8

>  <nHeavyAtom>
6

>  <nSpiro>
0

>  <nBridgehead>
0

>  <nHetero>
4

>  <nN>
0

>  <nO>
2

>  <nF>
0

>  <BalabanJ>
2.99

>  <BertzCT>
60.57

>  <nBonds>
7

>  <nBondsO>
5

>  <nBondsS>
6

>  <nBondsD>
1

>  <nBondsT>
0

>  <nBondsA>
0

>  <nBondsM>
1

>  <nBondsKS>
6

>  <nBondsKD>
1

>  <RNCG>
0.52

>  <RPCG>
0.37

>  <FCSP3>
0.5

>  <SZ>
10.67

>  <Sm>
10.73

>  <Sv>
6.15

>  <Sse>
9.08

>  <Sp>
6.37

>  <Si>
9.14

>  <MZ>
1.33

>  <Mm>
1.34

>  <Mv>
0.77

>  <Mse>
1.14

>  <Mp>
0.8

>  <Mi>
1.14

>  <NsCH3>
0

>  <NdCH2>
0

>  <NssCH2>
0

>  <NtCH>
0

>  <NdsCH>
0

>  <NaaCH>
0

>  <NsssCH>
1

>  <NddC>
0

>  <NtsC>
0

>  <NdssC>
1

>  <NaasC>
0

>  <NaaaC>
0

>  <NssssC>
0

>  <NsNH3>
0

>  <NsNH2>
0

>  <NssNH2>
0

>  <NdNH>
0

>  <NssNH>
0

>  <NaaNH>
0

>  <NtN>
0

>  <NsssNH>
0

>  <NdsN>
0

>  <NaaN>
0

>  <NsssN>
0

>  <NddsN>
0

>  <NaasN>
0

>  <NssssN>
0

>  <NsOH>
1

>  <NdO>
1

>  <NssO>
0

>  <NaaO>
0

>  <NsF>
0

>  <NsSiH3>
0

>  <NssSiH2>
0

>  <NsssSiH>
0

>  <NssssSi>
0

>  <NsPH2>
0

>  <NssPH>
0

>  <NsssP>
0

>  <NdsssP>
0

>  <NsssssP>
0

>  <NsSH>
0

>  <NdS>
0

>  <NssS>
0

>  <NaaS>
0

>  <NdssS>
0

>  <NddssS>
0

>  <NsCl>
2

>  <NsBr>
0

>  <NsI>
0

>  <fragCpx>
5.04

>  <fMF>
0

>  <nHBAcc>
1

>  <nHBDon>
1

>  <Kier1>
6

>  <Kier2>
2.22

>  <Lipinski>
1

>  <GhoseFilter>
0

>  <FilterItLogS>
-0.5

>  <VMcGowan>
70.96

>  <LabuteASA>
44.67

>  <PEOE_VSA1>
5.11

>  <PEOE_VSA2>
0

>  <PEOE_VSA3>
4.79

>  <PEOE_VSA4>
0

>  <PEOE_VSA5>
0

>  <PEOE_VSA6>
23.2

>  <PEOE_VSA7>
0

>  <PEOE_VSA8>
0

>  <PEOE_VSA9>
0

>  <PEOE_VSA10>
0

>  <PEOE_VSA11>
0

>  <PEOE_VSA12>
4.84

>  <PEOE_VSA13>
0

>  <SMR_VSA1>
9.9

>  <SMR_VSA2>
0

>  <SMR_VSA3>
0

>  <SMR_VSA4>
0

>  <SMR_VSA5>
4.84

>  <SMR_VSA6>
0

>  <SMR_VSA7>
0

>  <SMR_VSA8>
0

>  <SMR_VSA9>
0

>  <SlogP_VSA1>
0

>  <SlogP_VSA2>
15.91

>  <SlogP_VSA3>
4.79

>  <SlogP_VSA4>
0

>  <SlogP_VSA5>
0

>  <SlogP_VSA6>
0

>  <SlogP_VSA7>
0

>  <SlogP_VSA8>
0

>  <SlogP_VSA9>
0

>  <SlogP_VSA10>
0

>  <SlogP_VSA11>
0

>  <EState_VSA1>
10.81

>  <EState_VSA2>
0

>  <EState_VSA3>
0

>  <EState_VSA4>
0

>  <EState_VSA5>
0

>  <EState_VSA6>
0

>  <EState_VSA7>
0

>  <EState_VSA8>
0

>  <EState_VSA9>
28.31

>  <EState_VSA10>
4.79

>  <VSA_EState1>
0

>  <VSA_EState2>
8.15

>  <VSA_EState3>
7.73

>  <VSA_EState4>
0

>  <VSA_EState5>
-1.21

>  <VSA_EState6>
0

>  <VSA_EState7>
0

>  <VSA_EState8>
0

>  <VSA_EState9>
0

>  <apol>
10.64

>  <bpol>
3.89

>  <nRing>
0

>  <nHRing>
0

>  <naRing>
0

>  <naHRing>
0

>  <nARing 2>
0

>  <nAHRing 2>
0

>  <nFRing>
0

>  <nFHRing>
0

>  <nFaRing>
0

>  <nFaHRing>
0

>  <nFARing 2>
0

>  <nFAHRing 2>
0

>  <nRot>
1

>  <SLogP>
0.87

>  <SMR>
23.13

>  <TopoPSA(NO)>
37.3

>  <TopoPSA>
37.3

>  <JGI1>
0.4

>  <JGI2>
0.15

>  <JGI3>
0

>  <JGI4>
0

>  <JGI5>
0

>  <Diameter>
3

>  <Radius>
2

>  <TMWC10>
63.61

>  <TSRW10>
30.7

>  <MW>
127.94

>  <AMW>
15.99

>  <WPath>
29

>  <WPol>
4

>  <Zagreb1>
22

>  <Zagreb2>
21

>  <mZagreb2>
1.44

>  <yes>


>  <nAR-cont>
0.336376

>  <nHA-cont>
0.238778273

>  <MWHBN>
0.176818142

>  <MWHBN-cont>
0.983486964

>  <TPSA-cont>
0.739622838

>  <pka_cont>
0.97

>  <yes.1>


>  <BBB_SCORE>
4.014630395

>  <MMFF94 Energy>
30.157

$$$$
Compound 2936
Actelion Java MolfileCreator 2.0

  0  0  0  0  0  0              0 V3000
M  V30 BEGIN CTAB
M  V30 COUNTS 37 39 0 0 0
M  V30 BEGIN ATOM
M  V30 1 S 0.2439 1.7897 -0.4065 0
M  V30 2 O 0.7521 2.4479 0.7769 0
M  V30 3 O 0.14 2.525 -1.6515 0
M  V30 4 N 1.1966 0.4177 -0.703 0
M  V30 5 C -1.3779 1.1037 -0.0558 0
M  V30 6 C 1.6125 -0.3969 0.4723 0
M  V30 7 C 0.9689 -0.3403 -1.9485 0
M  V30 8 C -1.827 0.7719 1.26 0
M  V30 9 C -2.2261 0.9513 -1.1702 0
M  V30 10 C 2.4299 -1.6588 0.1117 0
M  V30 11 C 2.2943 -0.6186 -2.6607 0
M  V30 12 C -3.1381 0.2463 1.3753 0
M  V30 13 C -1.1057 0.9041 2.4737 0
M  V30 14 C -3.5072 0.4375 -1.0197 0
M  V30 15 N 3.6448 -1.4975 -0.6911 0
M  V30 16 C 3.5503 -0.5376 -1.7902 0
M  V30 17 C -3.6122 -0.1074 2.6417 0
M  V30 18 C -3.9573 0.0818 0.2455 0
M  V30 19 C -1.6787 0.5247 3.6802 0
M  V30 20 N -2.9146 0.013 3.7904 0
M  V30 21 H 2.2175 0.2312 1.136 0
M  V30 22 H 0.7258 -0.7281 1.0198 0
M  V30 23 H 0.4343 -1.2717 -1.7301 0
M  V30 24 H 0.3226 0.2059 -2.6429 0
M  V30 25 H -1.895 1.2396 -2.1668 0
M  V30 26 H 1.7826 -2.3853 -0.3937 0
M  V30 27 H 2.7169 -2.1518 1.049 0
M  V30 28 H 2.2382 -1.5944 -3.1588 0
M  V30 29 H 2.4088 0.1193 -3.4659 0
M  V30 30 H -0.0991 1.3018 2.5171 0
M  V30 31 H -4.1563 0.3216 -1.8845 0
M  V30 32 H 4.413 -1.2048 -0.0857 0
M  V30 33 H 4.42 -0.7019 -2.4378 0
M  V30 34 H 3.6696 0.481 -1.3994 0
M  V30 35 H -4.6123 -0.5149 2.7744 0
M  V30 36 H -4.9652 -0.3179 0.3484 0
M  V30 37 H -1.1328 0.6296 4.6141 0
M  V30 END ATOM
M  V30 BEGIN BOND
M  V30 1 2 1 2
M  V30 2 2 1 3
M  V30 3 1 1 4
M  V30 4 1 1 5
M  V30 5 1 4 6
M  V30 6 1 4 7
M  V30 7 1 5 8
M  V30 8 2 5 9
M  V30 9 1 6 10
M  V30 10 1 7 11
M  V30 11 1 8 12
M  V30 12 2 8 13
M  V30 13 1 9 14
M  V30 14 1 10 15
M  V30 15 1 11 16
M  V30 16 2 12 17
M  V30 17 1 12 18
M  V30 18 1 13 19
M  V30 19 1 17 20
M  V30 20 2 14 18
M  V30 21 1 15 16
M  V30 22 2 19 20
M  V30 23 1 6 21
M  V30 24 1 6 22
M  V30 25 1 7 23
M  V30 26 1 7 24
M  V30 27 1 9 25
M  V30 28 1 10 26
M  V30 29 1 10 27
M  V30 30 1 11 28
M  V30 31 1 11 29
M  V30 32 1 13 30
M  V30 33 1 14 31
M  V30 34 1 15 32
M  V30 35 1 16 33
M  V30 36 1 16 34
M  V30 37 1 17 35
M  V30 38 1 18 36
M  V30 39 1 19 37
M  V30 END BOND
M  V30 END CTAB
M  END
>  <Column 1>
3777

>  <level_0>
6806

>  <index>
6807

>  <Unnamed: 0>
6807

>  <NO.>
6820

>  <Name>
fasudil

>  <IUPAC_name>
5-(1-4-diazepan-1-ylsulfonyl)isoquinoline

>  <SMILES>
O=S(=O)(c1cccc2cnccc12)N1CCCNCC1

>  <CID>
3547

>  <logBB>


>  <BBB+/BBB->
BBB+

>  <Inchi>
InChI=1S/C14H17N3O2S/c18-20(19-17-9-2-6-15-8-10-17)14-4-1-3-12-11-16-7-5-13(12)14/h1-3-5-7-11-15H-2-6-8-10H2

>  <threshold>


>  <reference>
R26|

>  <group>
C

>  <Class>
1

>  <ABC>
15.67

>  <ABCGG>
12.98

>  <nAcid>
0

>  <nBase>
1

>  <nAromAtom>
10

>  <nAromBond>
11

>  <nAtom>
37

>  <nHeavyAtom>
20

>  <nSpiro>
0

>  <nBridgehead>
0

>  <nHetero>
6

>  <nN>
3

>  <nO>
2

>  <nF>
0

>  <BalabanJ>
1.73

>  <BertzCT>
701.94

>  <nBonds>
39

>  <nBondsO>
22

>  <nBondsS>
26

>  <nBondsD>
2

>  <nBondsT>
0

>  <nBondsA>
11

>  <nBondsM>
13

>  <nBondsKS>
32

>  <nBondsKD>
7

>  <RNCG>
0.22

>  <RPCG>
0.17

>  <FCSP3>
0.36

>  <SZ>
25.67

>  <Sm>
24.26

>  <Sv>
23.5

>  <Sse>
37.27

>  <Sp>
25.46

>  <Si>
41.74

>  <MZ>
0.69

>  <Mm>
0.66

>  <Mv>
0.64

>  <Mse>
1.01

>  <Mp>
0.69

>  <Mi>
1.13

>  <NsCH3>
0

>  <NdCH2>
0

>  <NssCH2>
5

>  <NtCH>
0

>  <NdsCH>
0

>  <NaaCH>
6

>  <NsssCH>
0

>  <NddC>
0

>  <NtsC>
0

>  <NdssC>
0

>  <NaasC>
1

>  <NaaaC>
2

>  <NssssC>
0

>  <NsNH3>
0

>  <NsNH2>
0

>  <NssNH2>
0

>  <NdNH>
0

>  <NssNH>
1

>  <NaaNH>
0

>  <NtN>
0

>  <NsssNH>
0

>  <NdsN>
0

>  <NaaN>
1

>  <NsssN>
1

>  <NddsN>
0

>  <NaasN>
0

>  <NssssN>
0

>  <NsOH>
0

>  <NdO>
2

>  <NssO>
0

>  <NaaO>
0

>  <NsF>
0

>  <NsSiH3>
0

>  <NssSiH2>
0

>  <NsssSiH>
0

>  <NssssSi>
0

>  <NsPH2>
0

>  <NssPH>
0

>  <NsssP>
0

>  <NdsssP>
0

>  <NsssssP>
0

>  <NsSH>
0

>  <NdS>
0

>  <NssS>
0

>  <NaaS>
0

>  <NdssS>
0

>  <NddssS>
1

>  <NsCl>
0

>  <NsBr>
0

>  <NsI>
0

>  <fragCpx>
104.06

>  <fMF>
0.49

>  <nHBAcc>
4

>  <nHBDon>
1

>  <Kier1>
14.92

>  <Kier2>
6.41

>  <Lipinski>
1

>  <GhoseFilter>
1

>  <FilterItLogS>
-3.49

>  <VMcGowan>
212.07

>  <LabuteASA>
118.22

>  <PEOE_VSA1>
5.32

>  <PEOE_VSA2>
4.98

>  <PEOE_VSA3>
8.42

>  <PEOE_VSA4>
4.31

>  <PEOE_VSA5>
0

>  <PEOE_VSA6>
12.13

>  <PEOE_VSA7>
25.1

>  <PEOE_VSA8>
42.8

>  <PEOE_VSA9>
4.9

>  <PEOE_VSA10>
0

>  <PEOE_VSA11>
0

>  <PEOE_VSA12>
10.02

>  <PEOE_VSA13>
0

>  <SMR_VSA1>
8.42

>  <SMR_VSA2>
0

>  <SMR_VSA3>
14.61

>  <SMR_VSA4>
0

>  <SMR_VSA5>
11.32

>  <SMR_VSA6>
26.18

>  <SMR_VSA7>
36.66

>  <SMR_VSA8>
0

>  <SMR_VSA9>
0

>  <SlogP_VSA1>
5.32

>  <SlogP_VSA2>
43.89

>  <SlogP_VSA3>
10.02

>  <SlogP_VSA4>
0

>  <SlogP_VSA5>
6.42

>  <SlogP_VSA6>
41.55

>  <SlogP_VSA7>
0

>  <SlogP_VSA8>
10.77

>  <SlogP_VSA9>
0

>  <SlogP_VSA10>
0

>  <SlogP_VSA11>
0

>  <EState_VSA1>
10.02

>  <EState_VSA2>
0

>  <EState_VSA3>
24.53

>  <EState_VSA4>
23.74

>  <EState_VSA5>
0

>  <EState_VSA6>
34.9

>  <EState_VSA7>
6.07

>  <EState_VSA8>
10.3

>  <EState_VSA9>
0

>  <EState_VSA10>
8.42

>  <VSA_EState1>
27.24

>  <VSA_EState2>
4.42

>  <VSA_EState3>
4.81

>  <VSA_EState4>
0

>  <VSA_EState5>
0

>  <VSA_EState6>
7.09

>  <VSA_EState7>
4.16

>  <VSA_EState8>
2.65

>  <VSA_EState9>
-3.45

>  <apol>
42.52

>  <bpol>
27.13

>  <nRing>
3

>  <nHRing>
2

>  <naRing>
2

>  <naHRing>
1

>  <nARing 2>
1

>  <nAHRing 2>
1

>  <nFRing>
1

>  <nFHRing>
1

>  <nFaRing>
1

>  <nFaHRing>
1

>  <nFARing 2>
0

>  <nFAHRing 2>
0

>  <nRot>
2

>  <SLogP>
1.22

>  <SMR>
77.99

>  <TopoPSA(NO)>
62.3

>  <TopoPSA>
70.68

>  <JGI1>
0.16

>  <JGI2>
0.09

>  <JGI3>
0.05

>  <JGI4>
0.04

>  <JGI5>
0.02

>  <Diameter>
9

>  <Radius>
5

>  <TMWC10>
115.99

>  <TSRW10>
61.63

>  <MW>
291.1

>  <AMW>
7.87

>  <WPath>
746

>  <WPol>
36

>  <Zagreb1>
106

>  <Zagreb2>
126

>  <mZagreb2>
4.39

>  <yes>


>  <nAR-cont>
0.816016

>  <nHA-cont>
0.999629945

>  <MWHBN>
0.293054842

>  <MWHBN-cont>
0.860980421

>  <TPSA-cont>
0.50660971

>  <pka_cont>
0.97

>  <yes.1>


>  <BBB_SCORE>
4.605335998

>  <MMFF94 Energy>
21.781

$$$$
Compound 2937
Actelion Java MolfileCreator 2.0

  0  0  0  0  0  0              0 V3000
M  V30 BEGIN CTAB
M  V30 COUNTS 44 46 0 0 0
M  V30 BEGIN ATOM
M  V30 1 O 0.9521 -3.0969 1.4284 0
M  V30 2 C -0.0937 -2.4125 2.1318 0
M  V30 3 C 0.1138 -0.8611 2.0612 0
M  V30 4 C -0.0602 -2.9467 3.5676 0
M  V30 5 N -0.0823 -0.2115 0.723 0
M  V30 6 C -0.8685 -0.1752 3.0442 0
M  V30 7 C -1.0426 -2.2329 4.4781 0
M  V30 8 C 0.6485 1.0722 0.6577 0
M  V30 9 C 0.2929 -1.0556 -0.4221 0
M  V30 10 C -0.7924 -0.7347 4.4611 0
M  V30 11 C 0.3501 1.8342 -0.6341 0
M  V30 12 C -0.0101 -0.371 -1.7589 0
M  V30 13 C 0.6981 0.9829 -1.8586 0
M  V30 14 C 0.3944 1.6979 -3.163 0
M  V30 15 C 1.4339 1.9796 -4.0623 0
M  V30 16 C -0.909 2.0909 -3.5032 0
M  V30 17 C 1.1768 2.6364 -5.2676 0
M  V30 18 C -1.165 2.7476 -4.7086 0
M  V30 19 C -0.1223 3.0204 -5.5904 0
M  V30 20 H 0.7187 -4.0407 1.4144 0
M  V30 21 H -1.0516 -2.6775 1.6671 0
M  V30 22 H 1.1473 -0.6742 2.3863 0
M  V30 23 H 0.9567 -2.8507 3.9706 0
M  V30 24 H -0.2731 -4.0229 3.5648 0
M  V30 25 H -1.8961 -0.2899 2.6728 0
M  V30 26 H -0.6797 0.9014 3.1076 0
M  V30 27 H -0.9445 -2.6134 5.5009 0
M  V30 28 H -2.0691 -2.4429 4.154 0
M  V30 29 H 0.3667 1.7282 1.487 0
M  V30 30 H 1.7302 0.9019 0.741 0
M  V30 31 H -0.2912 -1.9815 -0.423 0
M  V30 32 H 1.3573 -1.3189 -0.3821 0
M  V30 33 H -1.5329 -0.2323 5.0939 0
M  V30 34 H 0.1938 -0.5172 4.8889 0
M  V30 35 H -0.709 2.1222 -0.6429 0
M  V30 36 H 0.9273 2.7672 -0.6486 0
M  V30 37 H 0.308 -1.0234 -2.5815 0
M  V30 38 H -1.0969 -0.2517 -1.8592 0
M  V30 39 H 1.7795 0.7877 -1.8225 0
M  V30 40 H 2.456 1.6886 -3.831 0
M  V30 41 H -1.7391 1.8881 -2.8302 0
M  V30 42 H 1.9922 2.8477 -5.9542 0
M  V30 43 H -2.1799 3.0456 -4.9579 0
M  V30 44 H -0.322 3.5312 -6.5282 0
M  V30 END ATOM
M  V30 BEGIN BOND
M  V30 1 1 1 2
M  V30 2 1 2 3
M  V30 3 1 2 4
M  V30 4 1 3 5
M  V30 5 1 3 6
M  V30 6 1 4 7
M  V30 7 1 5 8
M  V30 8 1 5 9
M  V30 9 1 6 10
M  V30 10 1 8 11
M  V30 11 1 9 12
M  V30 12 1 11 13
M  V30 13 1 13 14
M  V30 14 2 14 15
M  V30 15 1 14 16
M  V30 16 1 15 17
M  V30 17 2 16 18
M  V30 18 2 17 19
M  V30 19 1 7 10
M  V30 20 1 12 13
M  V30 21 1 18 19
M  V30 22 1 1 20
M  V30 23 1 2 21
M  V30 24 1 3 22
M  V30 25 1 4 23
M  V30 26 1 4 24
M  V30 27 1 6 25
M  V30 28 1 6 26
M  V30 29 1 7 27
M  V30 30 1 7 28
M  V30 31 1 8 29
M  V30 32 1 8 30
M  V30 33 1 9 31
M  V30 34 1 9 32
M  V30 35 1 10 33
M  V30 36 1 10 34
M  V30 37 1 11 35
M  V30 38 1 11 36
M  V30 39 1 12 37
M  V30 40 1 12 38
M  V30 41 1 13 39
M  V30 42 1 15 40
M  V30 43 1 16 41
M  V30 44 1 17 42
M  V30 45 1 18 43
M  V30 46 1 19 44
M  V30 END BOND
M  V30 END CTAB
M  END
>  <Column 1>
3778

>  <level_0>
6807

>  <index>
6808

>  <Unnamed: 0>
6808

>  <NO.>
6821

>  <Name>
vesamicol

>  <IUPAC_name>
2-(4-phenylpiperidin-1-yl)cyclohexan-1-ol

>  <SMILES>
OC1CCCCC1N1CCC(c2ccccc2)CC1

>  <CID>
5662

>  <logBB>


>  <BBB+/BBB->
BBB+

>  <Inchi>
InChI=1S/C17H25NO/c19-17-9-5-4-8-16(17)18-12-10-15(11-13-18)14-6-2-1-3-7-14/h1-3-6-7-15-17-19H-4-5-8-13H2

>  <threshold>


>  <reference>
R26|

>  <group>
C

>  <Class>
1

>  <ABC>
14.84

>  <ABCGG>
11.51

>  <nAcid>
0

>  <nBase>
1

>  <nAromAtom>
6

>  <nAromBond>
6

>  <nAtom>
44

>  <nHeavyAtom>
19

>  <nSpiro>
0

>  <nBridgehead>
0

>  <nHetero>
2

>  <nN>
1

>  <nO>
1

>  <nF>
0

>  <BalabanJ>
1.48

>  <BertzCT>
383.51

>  <nBonds>
46

>  <nBondsO>
21

>  <nBondsS>
40

>  <nBondsD>
0

>  <nBondsT>
0

>  <nBondsA>
6

>  <nBondsM>
6

>  <nBondsKS>
43

>  <nBondsKD>
3

>  <RNCG>
0.31

>  <RPCG>
0.16

>  <FCSP3>
0.65

>  <SZ>
23.67

>  <Sm>
21.6

>  <Sv>
25.25

>  <Sse>
43.09

>  <Sp>
28.12

>  <Si>
49.69

>  <MZ>
0.54

>  <Mm>
0.49

>  <Mv>
0.57

>  <Mse>
0.98

>  <Mp>
0.64

>  <Mi>
1.13

>  <NsCH3>
0

>  <NdCH2>
0

>  <NssCH2>
8

>  <NtCH>
0

>  <NdsCH>
0

>  <NaaCH>
5

>  <NsssCH>
3

>  <NddC>
0

>  <NtsC>
0

>  <NdssC>
0

>  <NaasC>
1

>  <NaaaC>
0

>  <NssssC>
0

>  <NsNH3>
0

>  <NsNH2>
0

>  <NssNH2>
0

>  <NdNH>
0

>  <NssNH>
0

>  <NaaNH>
0

>  <NtN>
0

>  <NsssNH>
0

>  <NdsN>
0

>  <NaaN>
0

>  <NsssN>
1

>  <NddsN>
0

>  <NaasN>
0

>  <NssssN>
0

>  <NsOH>
1

>  <NdO>
0

>  <NssO>
0

>  <NaaO>
0

>  <NsF>
0

>  <NsSiH3>
0

>  <NssSiH2>
0

>  <NsssSiH>
0

>  <NssssSi>
0

>  <NsPH2>
0

>  <NssPH>
0

>  <NsssP>
0

>  <NdsssP>
0

>  <NsssssP>
0

>  <NsSH>
0

>  <NdS>
0

>  <NssS>
0

>  <NaaS>
0

>  <NdssS>
0

>  <NddssS>
0

>  <NsCl>
0

>  <NsBr>
0

>  <NsI>
0

>  <fragCpx>
99.02

>  <fMF>
0.41

>  <nHBAcc>
2

>  <nHBDon>
1

>  <Kier1>
13.96

>  <Kier2>
6.64

>  <Lipinski>
1

>  <GhoseFilter>
1

>  <FilterItLogS>
-2.77

>  <VMcGowan>
220.76

>  <LabuteASA>
115.99

>  <PEOE_VSA1>
5.11

>  <PEOE_VSA2>
4.9

>  <PEOE_VSA3>
0

>  <PEOE_VSA4>
0

>  <PEOE_VSA5>
0

>  <PEOE_VSA6>
43.17

>  <PEOE_VSA7>
50.25

>  <PEOE_VSA8>
6.04

>  <PEOE_VSA9>
6.1

>  <PEOE_VSA10>
0

>  <PEOE_VSA11>
0

>  <PEOE_VSA12>
0

>  <PEOE_VSA13>
0

>  <SMR_VSA1>
5.11

>  <SMR_VSA2>
0

>  <SMR_VSA3>
4.9

>  <SMR_VSA4>
0

>  <SMR_VSA5>
56.59

>  <SMR_VSA6>
13.09

>  <SMR_VSA7>
35.9

>  <SMR_VSA8>
0

>  <SMR_VSA9>
0

>  <SlogP_VSA1>
0

>  <SlogP_VSA2>
35.24

>  <SlogP_VSA3>
0

>  <SlogP_VSA4>
0

>  <SlogP_VSA5>
50.01

>  <SlogP_VSA6>
30.33

>  <SlogP_VSA7>
0

>  <SlogP_VSA8>
0

>  <SlogP_VSA9>
0

>  <SlogP_VSA10>
0

>  <SlogP_VSA11>
0

>  <EState_VSA1>
0

>  <EState_VSA2>
6.1

>  <EState_VSA3>
6.04

>  <EState_VSA4>
25.43

>  <EState_VSA5>
37.67

>  <EState_VSA6>
0

>  <EState_VSA7>
0

>  <EState_VSA8>
35.23

>  <EState_VSA9>
0

>  <EState_VSA10>
5.11

>  <VSA_EState1>
0

>  <VSA_EState2>
2.54

>  <VSA_EState3>
10.16

>  <VSA_EState4>
1.49

>  <VSA_EState5>
0.72

>  <VSA_EState6>
11.34

>  <VSA_EState7>
7.1

>  <VSA_EState8>
2.31

>  <VSA_EState9>
0

>  <apol>
46.96

>  <bpol>
26.79

>  <nRing>
3

>  <nHRing>
1

>  <naRing>
1

>  <naHRing>
0

>  <nARing 2>
2

>  <nAHRing 2>
1

>  <nFRing>
0

>  <nFHRing>
0

>  <nFaRing>
0

>  <nFaHRing>
0

>  <nFARing 2>
0

>  <nFAHRing 2>
0

>  <nRot>
2

>  <SLogP>
3.17

>  <SMR>
78.25

>  <TopoPSA(NO)>
23.47

>  <TopoPSA>
23.47

>  <JGI1>
0.12

>  <JGI2>
0.08

>  <JGI3>
0.04

>  <JGI4>
0.02

>  <JGI5>
0.02

>  <Diameter>
11

>  <Radius>
6

>  <TMWC10>
112.02

>  <TSRW10>
52.26

>  <MW>
259.19

>  <AMW>
5.89

>  <WPath>
750

>  <WPol>
28

>  <Zagreb1>
98

>  <Zagreb2>
114

>  <mZagreb2>
4.25

>  <yes>


>  <nAR-cont>
1

>  <nHA-cont>
0.998649058

>  <MWHBN>
0.186342593

>  <MWHBN-cont>
0.993074086

>  <TPSA-cont>
0.836164826

>  <pka_cont>
0.97

>  <yes.1>


>  <BBB_SCORE>
5.645589839

>  <MMFF94 Energy>
51.619

$$$$
Compound 2938
Actelion Java MolfileCreator 2.0

  0  0  0  0  0  0              0 V3000
M  V30 BEGIN CTAB
M  V30 COUNTS 52 56 0 0 0
M  V30 BEGIN ATOM
M  V30 1 N -1.1236 -0.6419 0.7222 0
M  V30 2 N -1.4717 -1.8971 0.2619 0
M  V30 3 C -0.7958 0.3677 -0.1164 0
M  V30 4 C -1.5195 -2.1523 -1.0571 0
M  V30 5 N -0.4338 1.5947 0.437 0
M  V30 6 C -0.8505 0.1448 -1.5052 0
M  V30 7 C -1.9048 -3.5203 -1.4517 0
M  V30 8 C -1.2118 -1.1422 -1.9556 0
M  V30 9 C 0.9342 2.0839 0.1856 0
M  V30 10 C -0.8993 1.8799 1.8074 0
M  V30 11 C -0.6162 1.1943 -2.521 0
M  V30 12 C -1.594 -4.6193 -0.6279 0
M  V30 13 C -2.597 -3.7887 -2.6477 0
M  V30 14 C 1.9368 1.5263 1.2219 0
M  V30 15 C 0.0704 1.3452 2.8853 0
M  V30 16 C 0.3482 1.0229 -3.5305 0
M  V30 17 C -1.3627 2.3846 -2.5201 0
M  V30 18 C -1.9444 -5.9245 -0.9862 0
M  V30 19 C -2.9495 -5.0938 -3.0085 0
M  V30 20 N 1.4607 1.7229 2.5954 0
M  V30 21 C 0.5625 2.0088 -4.4974 0
M  V30 22 C -1.1489 3.3711 -3.4861 0
M  V30 23 C -2.6206 -6.161 -2.1785 0
M  V30 24 C 2.3818 1.5824 3.616 0
M  V30 25 C -0.1865 3.1823 -4.4742 0
M  V30 26 N 3.6928 1.594 3.3151 0
M  V30 27 N 1.939 1.4564 4.8795 0
M  V30 28 C 4.5727 1.4667 4.3263 0
M  V30 29 C 2.8534 1.3312 5.8595 0
M  V30 30 C 4.2047 1.3292 5.6383 0
M  V30 31 H -1.2566 -1.3363 -3.0232 0
M  V30 32 H 1.2971 1.8509 -0.8189 0
M  V30 33 H 0.9196 3.1787 0.2628 0
M  V30 34 H -1.9155 1.5032 1.978 0
M  V30 35 H -0.9628 2.9711 1.9125 0
M  V30 36 H -1.0659 -4.4616 0.3121 0
M  V30 37 H -2.8927 -2.9794 -3.3117 0
M  V30 38 H 2.8914 2.0378 1.0488 0
M  V30 39 H 2.0921 0.4548 1.043 0
M  V30 40 H 6.0E-4 0.2531 2.9503 0
M  V30 41 H -0.2641 1.7558 3.8459 0
M  V30 42 H 0.9522 0.1183 -3.563 0
M  V30 43 H -2.1188 2.5519 -1.7545 0
M  V30 44 H -1.6898 -6.7521 -0.3293 0
M  V30 45 H -3.488 -5.2734 -3.9356 0
M  V30 46 H 1.3157 1.86 -5.2667 0
M  V30 47 H -1.7354 4.286 -3.4634 0
M  V30 48 H -2.8966 -7.1745 -2.4566 0
M  V30 49 H -0.0202 3.9503 -5.2252 0
M  V30 50 H 5.6177 1.4804 4.0328 0
M  V30 51 H 2.4456 1.2299 6.8605 0
M  V30 52 H 4.9244 1.2281 6.4369 0
M  V30 END ATOM
M  V30 BEGIN BOND
M  V30 1 2 1 2
M  V30 2 1 1 3
M  V30 3 1 2 4
M  V30 4 1 3 5
M  V30 5 2 3 6
M  V30 6 1 4 7
M  V30 7 2 4 8
M  V30 8 1 5 9
M  V30 9 1 5 10
M  V30 10 1 6 11
M  V30 11 2 7 12
M  V30 12 1 7 13
M  V30 13 1 9 14
M  V30 14 1 10 15
M  V30 15 2 11 16
M  V30 16 1 11 17
M  V30 17 1 12 18
M  V30 18 2 13 19
M  V30 19 1 14 20
M  V30 20 1 16 21
M  V30 21 2 17 22
M  V30 22 2 18 23
M  V30 23 1 20 24
M  V30 24 2 21 25
M  V30 25 2 24 26
M  V30 26 1 24 27
M  V30 27 1 26 28
M  V30 28 2 27 29
M  V30 29 2 28 30
M  V30 30 1 6 8
M  V30 31 1 15 20
M  V30 32 1 19 23
M  V30 33 1 22 25
M  V30 34 1 29 30
M  V30 35 1 8 31
M  V30 36 1 9 32
M  V30 37 1 9 33
M  V30 38 1 10 34
M  V30 39 1 10 35
M  V30 40 1 12 36
M  V30 41 1 13 37
M  V30 42 1 14 38
M  V30 43 1 14 39
M  V30 44 1 15 40
M  V30 45 1 15 41
M  V30 46 1 16 42
M  V30 47 1 17 43
M  V30 48 1 18 44
M  V30 49 1 19 45
M  V30 50 1 21 46
M  V30 51 1 22 47
M  V30 52 1 23 48
M  V30 53 1 25 49
M  V30 54 1 28 50
M  V30 55 1 29 51
M  V30 56 1 30 52
M  V30 END BOND
M  V30 END CTAB
M  END
>  <Column 1>
3779

>  <level_0>
6809

>  <index>
6810

>  <Unnamed: 0>
6810

>  <NO.>
6823

>  <Name>
mw01-5-188wh

>  <IUPAC_name>
4-6-diphenyl-3-(4-pyrimidin-2-ylpiperazin-1-yl)pyridazine

>  <SMILES>
c1ccc(-c2cc(-c3ccccc3)c(N3CCN(c4ncccn4)CC3)nn2)cc1

>  <CID>
23628246

>  <logBB>


>  <BBB+/BBB->
BBB+

>  <Inchi>
InChI=1S/C24H22N6/c1-3-8-19(9-4-1)21-18-22(20-10-5-2-6-11-20)27-28-23(21)29-14-16-30(17-15-29)24-25-12-7-13-26-24/h1-13-18H-14-17H2

>  <threshold>


>  <reference>
R26|

>  <group>
C

>  <Class>
1

>  <ABC>
23.84

>  <ABCGG>
16.82

>  <nAcid>
0

>  <nBase>
0

>  <nAromAtom>
24

>  <nAromBond>
24

>  <nAtom>
52

>  <nHeavyAtom>
30

>  <nSpiro>
0

>  <nBridgehead>
0

>  <nHetero>
6

>  <nN>
6

>  <nO>
0

>  <nF>
0

>  <BalabanJ>
1.21

>  <BertzCT>
1094.36

>  <nBonds>
56

>  <nBondsO>
34

>  <nBondsS>
32

>  <nBondsD>
0

>  <nBondsT>
0

>  <nBondsA>
24

>  <nBondsM>
24

>  <nBondsKS>
44

>  <nBondsKD>
12

>  <RNCG>
0.17

>  <RPCG>
0.11

>  <FCSP3>
0.17

>  <SZ>
34.67

>  <Sm>
32.84

>  <Sv>
34.51

>  <Sse>
51.75

>  <Sp>
36.74

>  <Si>
58.31

>  <MZ>
0.67

>  <Mm>
0.63

>  <Mv>
0.66

>  <Mse>
1

>  <Mp>
0.71

>  <Mi>
1.12

>  <NsCH3>
0

>  <NdCH2>
0

>  <NssCH2>
4

>  <NtCH>
0

>  <NdsCH>
0

>  <NaaCH>
14

>  <NsssCH>
0

>  <NddC>
0

>  <NtsC>
0

>  <NdssC>
0

>  <NaasC>
6

>  <NaaaC>
0

>  <NssssC>
0

>  <NsNH3>
0

>  <NsNH2>
0

>  <NssNH2>
0

>  <NdNH>
0

>  <NssNH>
0

>  <NaaNH>
0

>  <NtN>
0

>  <NsssNH>
0

>  <NdsN>
0

>  <NaaN>
4

>  <NsssN>
2

>  <NddsN>
0

>  <NaasN>
0

>  <NssssN>
0

>  <NsOH>
0

>  <NdO>
0

>  <NssO>
0

>  <NaaO>
0

>  <NsF>
0

>  <NsSiH3>
0

>  <NssSiH2>
0

>  <NsssSiH>
0

>  <NssssSi>
0

>  <NsPH2>
0

>  <NssPH>
0

>  <NsssP>
0

>  <NdsssP>
0

>  <NsssssP>
0

>  <NsSH>
0

>  <NdS>
0

>  <NssS>
0

>  <NaaS>
0

>  <NdssS>
0

>  <NddssS>
0

>  <NsCl>
0

>  <NsBr>
0

>  <NsI>
0

>  <fragCpx>
286.06

>  <fMF>
0.58

>  <nHBAcc>
6

>  <nHBDon>
0

>  <Kier1>
21.83

>  <Kier2>
10.74

>  <Lipinski>
1

>  <GhoseFilter>
1

>  <FilterItLogS>
-6.05

>  <VMcGowan>
303

>  <LabuteASA>
175.42

>  <PEOE_VSA1>
9.8

>  <PEOE_VSA2>
0

>  <PEOE_VSA3>
9.97

>  <PEOE_VSA4>
0

>  <PEOE_VSA5>
10.2

>  <PEOE_VSA6>
60.66

>  <PEOE_VSA7>
17.7

>  <PEOE_VSA8>
49.7

>  <PEOE_VSA9>
5.69

>  <PEOE_VSA10>
0

>  <PEOE_VSA11>
5.82

>  <PEOE_VSA12>
5.95

>  <PEOE_VSA13>
0

>  <SMR_VSA1>
0

>  <SMR_VSA2>
0

>  <SMR_VSA3>
20.17

>  <SMR_VSA4>
0

>  <SMR_VSA5>
0

>  <SMR_VSA6>
35.98

>  <SMR_VSA7>
85.19

>  <SMR_VSA8>
0

>  <SMR_VSA9>
22.38

>  <SlogP_VSA1>
9.8

>  <SlogP_VSA2>
46.34

>  <SlogP_VSA3>
0

>  <SlogP_VSA4>
0

>  <SlogP_VSA5>
0

>  <SlogP_VSA6>
85.19

>  <SlogP_VSA7>
0

>  <SlogP_VSA8>
22.38

>  <SlogP_VSA9>
0

>  <SlogP_VSA10>
11.77

>  <SlogP_VSA11>
0

>  <EState_VSA1>
0

>  <EState_VSA2>
0

>  <EState_VSA3>
0

>  <EState_VSA4>
60.33

>  <EState_VSA5>
0

>  <EState_VSA6>
12.39

>  <EState_VSA7>
30.33

>  <EState_VSA8>
72.43

>  <EState_VSA9>
0

>  <EState_VSA10>
0

>  <VSA_EState1>
0

>  <VSA_EState2>
13.28

>  <VSA_EState3>
9.24

>  <VSA_EState4>
4.21

>  <VSA_EState5>
1.71

>  <VSA_EState6>
24.61

>  <VSA_EState7>
3.58

>  <VSA_EState8>
3.38

>  <VSA_EState9>
0

>  <apol>
61.35

>  <bpol>
28.91

>  <nRing>
5

>  <nHRing>
3

>  <naRing>
4

>  <naHRing>
2

>  <nARing 2>
1

>  <nAHRing 2>
1

>  <nFRing>
0

>  <nFHRing>
0

>  <nFaRing>
0

>  <nFaHRing>
0

>  <nFARing 2>
0

>  <nFAHRing 2>
0

>  <nRot>
4

>  <SLogP>
3.93

>  <SMR>
119.36

>  <TopoPSA(NO)>
58.04

>  <TopoPSA>
58.04

>  <JGI1>
0.1

>  <JGI2>
0.07

>  <JGI3>
0.03

>  <JGI4>
0.02

>  <JGI5>
0.02

>  <Diameter>
15

>  <Radius>
8

>  <TMWC10>
141.11

>  <TSRW10>
65.79

>  <MW>
394.19

>  <AMW>
7.58

>  <WPath>
2547

>  <WPol>
48

>  <Zagreb1>
160

>  <Zagreb2>
189

>  <mZagreb2>
6.64

>  <yes>


>  <nAR-cont>
0.816016

>  <nHA-cont>
0.74523694

>  <MWHBN>
0.302202776

>  <MWHBN-cont>
0.83410786

>  <TPSA-cont>
0.594844759

>  <pka_cont>
0.97

>  <yes.1>


>  <BBB_SCORE>
4.487104248

>  <MMFF94 Energy>
82.376

$$$$
Compound 2939
Actelion Java MolfileCreator 2.0

  0  0  0  0  0  0              0 V3000
M  V30 BEGIN CTAB
M  V30 COUNTS 49 52 0 0 0
M  V30 BEGIN ATOM
M  V30 1 O 3.7124 1.4514 4.6826 0
M  V30 2 C 2.6579 1.1214 4.1466 0
M  V30 3 C 2.0612 1.9888 3.1022 0
M  V30 4 C 1.8677 -0.088 4.5854 0
M  V30 5 C 0.9696 1.5937 2.4255 0
M  V30 6 C 1.2367 -0.7625 3.3778 0
M  V30 7 C 0.3623 0.2104 2.5578 0 CFG=2
M  V30 8 C 0.2184 2.553 1.537 0
M  V30 9 C -0.0551 -0.3944 1.1808 0 CFG=2
M  V30 10 C -0.2062 1.937 0.204 0
M  V30 11 C 1.0806 -0.83 0.274 0
M  V30 12 C -0.9601 0.6008 0.4008 0 CFG=1
M  V30 13 C 0.9148 -1.0064 -1.0472 0
M  V30 14 C -1.4917 -0.0923 -0.8883 0 CFG=2
M  V30 15 C -0.4137 -0.8305 -1.7629 0 CFG=1
M  V30 16 C -2.2942 0.8112 -1.8474 0
M  V30 17 C -0.3197 0.0945 -3.0352 0 CFG=1
M  V30 18 C -0.9416 -2.2618 -2.1532 0
M  V30 19 C -1.77 0.5307 -3.2542 0
M  V30 20 O 0.4401 1.2751 -2.7664 0
M  V30 21 C 0.2468 -0.5442 -4.2364 0
M  V30 22 C -1.0901 -3.2685 -1.0106 0
M  V30 23 C 0.7161 -1.0466 -5.2218 0
M  V30 24 H 2.5015 2.9738 2.9978 0
M  V30 25 H 1.1083 0.2316 5.3071 0
M  V30 26 H 2.5445 -0.7897 5.0846 0
M  V30 27 H 2.0485 -1.1772 2.7723 0
M  V30 28 H 0.6284 -1.6141 3.7059 0
M  V30 29 H -0.5657 0.3513 3.1335 0
M  V30 30 H -0.68 2.8821 2.0754 0
M  V30 31 H 0.8109 3.4547 1.3389 0
M  V30 32 H -0.6396 -1.2972 1.4089 0
M  V30 33 H 0.6897 1.802 -0.4081 0
M  V30 34 H -0.8332 2.6704 -0.3103 0
M  V30 35 H 2.0694 -0.9989 0.6879 0
M  V30 36 H -1.841 0.821 1.0217 0
M  V30 37 H 1.7665 -1.3111 -1.6524 0
M  V30 38 H -2.2109 -0.837 -0.5228 0
M  V30 39 H -3.3663 0.5901 -1.7897 0
M  V30 40 H -2.1895 1.8737 -1.6198 0
M  V30 41 H -1.9163 -2.1805 -2.6486 0
M  V30 42 H -0.2627 -2.7208 -2.8827 0
M  V30 43 H -1.8522 1.4281 -3.8784 0
M  V30 44 H -2.369 -0.2555 -3.7286 0
M  V30 45 H 0.568 1.7325 -3.6144 0
M  V30 46 H -1.4892 -4.2102 -1.4032 0
M  V30 47 H -1.7787 -2.9215 -0.2366 0
M  V30 48 H -0.1275 -3.4965 -0.5438 0
M  V30 49 H 1.1371 -1.4948 -6.0924 0
M  V30 END ATOM
M  V30 BEGIN BOND
M  V30 1 2 1 2
M  V30 2 1 2 3
M  V30 3 1 2 4
M  V30 4 2 3 5
M  V30 5 1 4 6
M  V30 6 1 5 7
M  V30 7 1 5 8
M  V30 8 1 7 9
M  V30 9 1 8 10
M  V30 10 1 9 11
M  V30 11 1 9 12
M  V30 12 2 11 13
M  V30 13 1 12 14
M  V30 14 1 13 15
M  V30 15 1 14 16
M  V30 16 1 15 17
M  V30 17 1 15 18
M  V30 18 1 16 19
M  V30 19 1 17 20
M  V30 20 1 17 21
M  V30 21 1 18 22
M  V30 22 3 21 23
M  V30 23 1 6 7
M  V30 24 1 10 12
M  V30 25 1 14 15
M  V30 26 1 17 19
M  V30 27 1 3 24
M  V30 28 1 4 25
M  V30 29 1 4 26
M  V30 30 1 6 27
M  V30 31 1 6 28
M  V30 32 1 7 29
M  V30 33 1 8 30
M  V30 34 1 8 31
M  V30 35 1 9 32
M  V30 36 1 10 33
M  V30 37 1 10 34
M  V30 38 1 11 35
M  V30 39 1 12 36
M  V30 40 1 13 37
M  V30 41 1 14 38
M  V30 42 1 16 39
M  V30 43 1 16 40
M  V30 44 1 18 41
M  V30 45 1 18 42
M  V30 46 1 19 43
M  V30 47 1 19 44
M  V30 48 1 20 45
M  V30 49 1 22 46
M  V30 50 1 22 47
M  V30 51 1 22 48
M  V30 52 1 23 49
M  V30 END BOND
M  V30 BEGIN COLLECTION
M  V30 MDLV30/STEABS ATOMS=(6 7 9 12 14 15 17)
M  V30 END COLLECTION
M  V30 END CTAB
M  END
>  <Column 1>
3780

>  <level_0>
6811

>  <index>
6812

>  <Unnamed: 0>
6812

>  <NO.>
6825

>  <Name>


>  <IUPAC_name>


>  <SMILES>
C#C[C@@]1(O)CC[C@@H]2[C@@H]3CCC4=CC(=O)CC[C@@H]4[C@@H]3C=C[C@@]21CC

>  <CID>


>  <logBB>


>  <BBB+/BBB->
BBB+

>  <Inchi>
InChI=1S/C21H26O2/c1-3-20-11-9-17-16-8-6-15(22)13-14(16)5-7-18(17)19(20)10-12-21(20-23)4-2/h2-9-11-13-16-19-23H-3-5-8-10-12H2-1H3/t16--17--18+-19+-20--21+/m0/s1

>  <threshold>


>  <reference>
R27|

>  <group>
C

>  <Class>
1

>  <ABC>
18.33

>  <ABCGG>
14.85

>  <nAcid>
0

>  <nBase>
0

>  <nAromAtom>
0

>  <nAromBond>
0

>  <nAtom>
49

>  <nHeavyAtom>
23

>  <nSpiro>
0

>  <nBridgehead>
0

>  <nHetero>
2

>  <nN>
0

>  <nO>
2

>  <nF>
0

>  <BalabanJ>
1.6

>  <BertzCT>
636.72

>  <nBonds>
52

>  <nBondsO>
26

>  <nBondsS>
48

>  <nBondsD>
3

>  <nBondsT>
1

>  <nBondsA>
0

>  <nBondsM>
4

>  <nBondsKS>
48

>  <nBondsKD>
3

>  <RNCG>
0.26

>  <RPCG>
0.14

>  <FCSP3>
0.67

>  <SZ>
28

>  <Sm>
25.85

>  <Sv>
29.47

>  <Sse>
48.2

>  <Sp>
32.34

>  <Si>
54.82

>  <MZ>
0.57

>  <Mm>
0.53

>  <Mv>
0.6

>  <Mse>
0.98

>  <Mp>
0.66

>  <Mi>
1.12

>  <NsCH3>
1

>  <NdCH2>
0

>  <NssCH2>
7

>  <NtCH>
1

>  <NdsCH>
3

>  <NaaCH>
0

>  <NsssCH>
4

>  <NddC>
0

>  <NtsC>
1

>  <NdssC>
2

>  <NaasC>
0

>  <NaaaC>
0

>  <NssssC>
2

>  <NsNH3>
0

>  <NsNH2>
0

>  <NssNH2>
0

>  <NdNH>
0

>  <NssNH>
0

>  <NaaNH>
0

>  <NtN>
0

>  <NsssNH>
0

>  <NdsN>
0

>  <NaaN>
0

>  <NsssN>
0

>  <NddsN>
0

>  <NaasN>
0

>  <NssssN>
0

>  <NsOH>
1

>  <NdO>
1

>  <NssO>
0

>  <NaaO>
0

>  <NsF>
0

>  <NsSiH3>
0

>  <NssSiH2>
0

>  <NsssSiH>
0

>  <NssssSi>
0

>  <NsPH2>
0

>  <NssPH>
0

>  <NsssP>
0

>  <NdsssP>
0

>  <NsssssP>
0

>  <NsSH>
0

>  <NdS>
0

>  <NssS>
0

>  <NaaS>
0

>  <NdssS>
0

>  <NddssS>
0

>  <NsCl>
0

>  <NsBr>
0

>  <NsI>
0

>  <fragCpx>
170.02

>  <fMF>
0.35

>  <nHBAcc>
2

>  <nHBDon>
1

>  <Kier1>
16.47

>  <Kier2>
5.77

>  <Lipinski>
1

>  <GhoseFilter>
1

>  <FilterItLogS>
-3.11

>  <VMcGowan>
253.55

>  <LabuteASA>
138.59

>  <PEOE_VSA1>
5.11

>  <PEOE_VSA2>
4.79

>  <PEOE_VSA3>
0

>  <PEOE_VSA4>
0

>  <PEOE_VSA5>
6.42

>  <PEOE_VSA6>
30.57

>  <PEOE_VSA7>
68.27

>  <PEOE_VSA8>
11.84

>  <PEOE_VSA9>
0

>  <PEOE_VSA10>
5.6

>  <PEOE_VSA11>
5.78

>  <PEOE_VSA12>
0

>  <PEOE_VSA13>
0

>  <SMR_VSA1>
9.9

>  <SMR_VSA2>
0

>  <SMR_VSA3>
0

>  <SMR_VSA4>
29.09

>  <SMR_VSA5>
57.47

>  <SMR_VSA6>
0

>  <SMR_VSA7>
23.8

>  <SMR_VSA8>
0

>  <SMR_VSA9>
12.34

>  <SlogP_VSA1>
0

>  <SlogP_VSA2>
16.49

>  <SlogP_VSA3>
4.79

>  <SlogP_VSA4>
41.43

>  <SlogP_VSA5>
51.87

>  <SlogP_VSA6>
23.8

>  <SlogP_VSA7>
0

>  <SlogP_VSA8>
0

>  <SlogP_VSA9>
0

>  <SlogP_VSA10>
0

>  <SlogP_VSA11>
0

>  <EState_VSA1>
5.6

>  <EState_VSA2>
5.41

>  <EState_VSA3>
35.88

>  <EState_VSA4>
38.52

>  <EState_VSA5>
5.57

>  <EState_VSA6>
0

>  <EState_VSA7>
6.08

>  <EState_VSA8>
25

>  <EState_VSA9>
6.42

>  <EState_VSA10>
9.9

>  <VSA_EState1>
0

>  <VSA_EState2>
11.73

>  <VSA_EState3>
11.06

>  <VSA_EState4>
0.16

>  <VSA_EState5>
5.21

>  <VSA_EState6>
0

>  <VSA_EState7>
18.84

>  <VSA_EState8>
2.17

>  <VSA_EState9>
0

>  <apol>
54.01

>  <bpol>
26.95

>  <nRing>
4

>  <nHRing>
0

>  <naRing>
0

>  <naHRing>
0

>  <nARing 2>
4

>  <nAHRing 2>
0

>  <nFRing>
1

>  <nFHRing>
0

>  <nFaRing>
0

>  <nFaHRing>
0

>  <nFARing 2>
1

>  <nFAHRing 2>
0

>  <nRot>
1

>  <SLogP>
3.66

>  <SMR>
90.4

>  <TopoPSA(NO)>
37.3

>  <TopoPSA>
37.3

>  <JGI1>
0.23

>  <JGI2>
0.12

>  <JGI3>
0.06

>  <JGI4>
0.05

>  <JGI5>
0.03

>  <Diameter>
11

>  <Radius>
6

>  <TMWC10>
127.4

>  <TSRW10>
73.34

>  <MW>
310.19

>  <AMW>
6.33

>  <WPath>
1053

>  <WPol>
49

>  <Zagreb1>
134

>  <Zagreb2>
171

>  <mZagreb2>
5.01

>  <yes>


>  <nAR-cont>
0.199399

>  <nHA-cont>
0.967789328

>  <MWHBN>
0.170336358

>  <MWHBN-cont>
0.974488191

>  <TPSA-cont>
0.739622838

>  <pka_cont>
0.97

>  <yes.1>


>  <BBB_SCORE>
4.59316629

>  <MMFF94 Energy>
92.215

$$$$
Compound 2940
Actelion Java MolfileCreator 2.0

  0  0  0  0  0  0              0 V3000
M  V30 BEGIN CTAB
M  V30 COUNTS 49 52 0 0 0
M  V30 BEGIN ATOM
M  V30 1 O 2.007 -1.766 0.6419 0
M  V30 2 C 1.1058 -2.76 0.1666 0 CFG=1
M  V30 3 C 1.4273 -4.0025 0.8991 0
M  V30 4 C -0.3798 -2.2856 0.3186 0 CFG=2
M  V30 5 C 1.3343 -2.933 -1.3507 0
M  V30 6 C 1.7087 -5.0058 1.4975 0
M  V30 7 C -0.6919 -1.5918 -1.0395 0 CFG=2
M  V30 8 C -0.6444 -1.3753 1.5373 0
M  V30 9 C -1.3376 -3.5099 0.4571 0
M  V30 10 C 0.0683 -2.4453 -2.0576 0
M  V30 11 C -0.4458 -0.0629 -1.1538 0 CFG=1
M  V30 12 C -0.3406 0.1127 1.3579 0
M  V30 13 C -1.0058 0.6741 0.0894 0 CFG=1
M  V30 14 C 0.993 0.3913 -1.4722 0
M  V30 15 C -0.9019 2.2198 -0.0879 0 CFG=2
M  V30 16 C 1.0834 1.9028 -1.6694 0
M  V30 17 C 0.4789 2.6715 -0.5252 0
M  V30 18 C -1.4367 2.9996 1.1344 0
M  V30 19 C 1.0959 3.7394 0.0123 0
M  V30 20 C -1.0639 4.4773 1.0668 0
M  V30 21 C 0.4556 4.6392 1.0274 0
M  V30 22 H 2.9011 -2.1458 0.6046 0
M  V30 23 H 2.198 -2.3492 -1.6907 0
M  V30 24 H 1.5233 -3.975 -1.636 0
M  V30 25 H 1.9546 -5.8933 2.0339 0
M  V30 26 H -1.766 -1.7085 -1.248 0
M  V30 27 H -0.1021 -1.7528 2.4135 0
M  V30 28 H -1.7088 -1.4414 1.8048 0
M  V30 29 H -1.1614 -4.2687 -0.3123 0
M  V30 30 H -1.2291 -3.9921 1.4355 0
M  V30 31 H -2.3859 -3.1986 0.3738 0
M  V30 32 H -0.5408 -3.3155 -2.3334 0
M  V30 33 H 0.2858 -1.9236 -2.9942 0
M  V30 34 H -1.0492 0.2629 -2.0156 0
M  V30 35 H -0.7253 0.6124 2.2517 0
M  V30 36 H 0.7379 0.294 1.355 0
M  V30 37 H -2.0796 0.444 0.1587 0
M  V30 38 H 1.3536 -0.083 -2.3905 0
M  V30 39 H 1.688 0.1123 -0.6804 0
M  V30 40 H -1.5666 2.479 -0.927 0
M  V30 41 H 0.5489 2.1762 -2.5883 0
M  V30 42 H 2.1331 2.1804 -1.8243 0
M  V30 43 H -2.5265 2.8918 1.1894 0
M  V30 44 H -1.0329 2.6091 2.0729 0
M  V30 45 H 2.0886 4.0257 -0.3271 0
M  V30 46 H -1.4691 5.0083 1.9357 0
M  V30 47 H -1.5138 4.9316 0.1749 0
M  V30 48 H 0.6936 5.682 0.7885 0
M  V30 49 H 0.8875 4.4259 2.0121 0
M  V30 END ATOM
M  V30 BEGIN BOND
M  V30 1 1 1 2
M  V30 2 1 2 3
M  V30 3 1 2 4
M  V30 4 1 2 5
M  V30 5 3 3 6
M  V30 6 1 4 7
M  V30 7 1 4 8
M  V30 8 1 4 9
M  V30 9 1 5 10
M  V30 10 1 7 11
M  V30 11 1 8 12
M  V30 12 1 11 13
M  V30 13 1 11 14
M  V30 14 1 13 15
M  V30 15 1 14 16
M  V30 16 1 15 17
M  V30 17 1 15 18
M  V30 18 2 17 19
M  V30 19 1 18 20
M  V30 20 1 19 21
M  V30 21 1 7 10
M  V30 22 1 12 13
M  V30 23 1 16 17
M  V30 24 1 20 21
M  V30 25 1 1 22
M  V30 26 1 5 23
M  V30 27 1 5 24
M  V30 28 1 6 25
M  V30 29 1 7 26
M  V30 30 1 8 27
M  V30 31 1 8 28
M  V30 32 1 9 29
M  V30 33 1 9 30
M  V30 34 1 9 31
M  V30 35 1 10 32
M  V30 36 1 10 33
M  V30 37 1 11 34
M  V30 38 1 12 35
M  V30 39 1 12 36
M  V30 40 1 13 37
M  V30 41 1 14 38
M  V30 42 1 14 39
M  V30 43 1 15 40
M  V30 44 1 16 41
M  V30 45 1 16 42
M  V30 46 1 18 43
M  V30 47 1 18 44
M  V30 48 1 19 45
M  V30 49 1 20 46
M  V30 50 1 20 47
M  V30 51 1 21 48
M  V30 52 1 21 49
M  V30 END BOND
M  V30 BEGIN COLLECTION
M  V30 MDLV30/STEABS ATOMS=(6 2 4 7 11 13 15)
M  V30 END COLLECTION
M  V30 END CTAB
M  END
>  <Column 1>
3781

>  <level_0>
6814

>  <index>
6815

>  <Unnamed: 0>
6815

>  <NO.>
6828

>  <Name>


>  <IUPAC_name>


>  <SMILES>
C#C[C@@]1(O)CC[C@@H]2[C@@H]3CCC4=CCCC[C@@H]4[C@@H]3CC[C@@]21C

>  <CID>


>  <logBB>


>  <BBB+/BBB->
BBB+

>  <Inchi>
InChI=1S/C20H28O/c1-3-20(21)13-11-18-17-9-8-14-6-4-5-7-15(14)16(17)10-12-19(18-20)2/h1-6-15-18-21H-4-5-7-13H2-2H3/t15--16--17+-18+-19--20+/m0/s1

>  <threshold>


>  <reference>
R27|

>  <group>
C

>  <Class>
1

>  <ABC>
16.97

>  <ABCGG>
13.71

>  <nAcid>
0

>  <nBase>
0

>  <nAromAtom>
0

>  <nAromBond>
0

>  <nAtom>
49

>  <nHeavyAtom>
21

>  <nSpiro>
0

>  <nBridgehead>
0

>  <nHetero>
1

>  <nN>
0

>  <nO>
1

>  <nF>
0

>  <BalabanJ>
1.6

>  <BertzCT>
512.42

>  <nBonds>
52

>  <nBondsO>
24

>  <nBondsS>
50

>  <nBondsD>
1

>  <nBondsT>
1

>  <nBondsA>
0

>  <nBondsM>
2

>  <nBondsKS>
50

>  <nBondsKD>
1

>  <RNCG>
0.3

>  <RPCG>
0.17

>  <FCSP3>
0.8

>  <SZ>
26

>  <Sm>
23.68

>  <Sv>
28.3

>  <Sse>
47.76

>  <Sp>
31.66

>  <Si>
55.02

>  <MZ>
0.53

>  <Mm>
0.48

>  <Mv>
0.58

>  <Mse>
0.97

>  <Mp>
0.65

>  <Mi>
1.12

>  <NsCH3>
1

>  <NdCH2>
0

>  <NssCH2>
9

>  <NtCH>
1

>  <NdsCH>
1

>  <NaaCH>
0

>  <NsssCH>
4

>  <NddC>
0

>  <NtsC>
1

>  <NdssC>
1

>  <NaasC>
0

>  <NaaaC>
0

>  <NssssC>
2

>  <NsNH3>
0

>  <NsNH2>
0

>  <NssNH2>
0

>  <NdNH>
0

>  <NssNH>
0

>  <NaaNH>
0

>  <NtN>
0

>  <NsssNH>
0

>  <NdsN>
0

>  <NaaN>
0

>  <NsssN>
0

>  <NddsN>
0

>  <NaasN>
0

>  <NssssN>
0

>  <NsOH>
1

>  <NdO>
0

>  <NssO>
0

>  <NaaO>
0

>  <NsF>
0

>  <NsSiH3>
0

>  <NssSiH2>
0

>  <NsssSiH>
0

>  <NssssSi>
0

>  <NsPH2>
0

>  <NssPH>
0

>  <NsssP>
0

>  <NdsssP>
0

>  <NsssssP>
0

>  <NsSH>
0

>  <NdS>
0

>  <NssS>
0

>  <NaaS>
0

>  <NdssS>
0

>  <NddssS>
0

>  <NsCl>
0

>  <NsBr>
0

>  <NsI>
0

>  <fragCpx>
156.01

>  <fMF>
0.35

>  <nHBAcc>
1

>  <nHBDon>
1

>  <Kier1>
14.58

>  <Kier2>
5

>  <Lipinski>
1

>  <GhoseFilter>
1

>  <FilterItLogS>
-3.29

>  <VMcGowan>
242.19

>  <LabuteASA>
128.75

>  <PEOE_VSA1>
5.11

>  <PEOE_VSA2>
0

>  <PEOE_VSA3>
0

>  <PEOE_VSA4>
0

>  <PEOE_VSA5>
6.42

>  <PEOE_VSA6>
24.49

>  <PEOE_VSA7>
81.46

>  <PEOE_VSA8>
5.41

>  <PEOE_VSA9>
0

>  <PEOE_VSA10>
5.6

>  <PEOE_VSA11>
0

>  <PEOE_VSA12>
0

>  <PEOE_VSA13>
0

>  <SMR_VSA1>
5.11

>  <SMR_VSA2>
0

>  <SMR_VSA3>
0

>  <SMR_VSA4>
29.09

>  <SMR_VSA5>
70.31

>  <SMR_VSA6>
0

>  <SMR_VSA7>
11.65

>  <SMR_VSA8>
0

>  <SMR_VSA9>
12.34

>  <SlogP_VSA1>
0

>  <SlogP_VSA2>
10.71

>  <SlogP_VSA3>
0

>  <SlogP_VSA4>
41.43

>  <SlogP_VSA5>
64.71

>  <SlogP_VSA6>
11.65

>  <SlogP_VSA7>
0

>  <SlogP_VSA8>
0

>  <SlogP_VSA9>
0

>  <SlogP_VSA10>
0

>  <SlogP_VSA11>
0

>  <EState_VSA1>
5.6

>  <EState_VSA2>
5.41

>  <EState_VSA3>
5.92

>  <EState_VSA4>
37.02

>  <EState_VSA5>
38.52

>  <EState_VSA6>
5.57

>  <EState_VSA7>
0

>  <EState_VSA8>
18.92

>  <EState_VSA9>
6.42

>  <EState_VSA10>
5.11

>  <VSA_EState1>
0

>  <VSA_EState2>
0

>  <VSA_EState3>
10.93

>  <VSA_EState4>
0.9

>  <VSA_EState5>
5.98

>  <VSA_EState6>
0

>  <VSA_EState7>
19.4

>  <VSA_EState8>
2.28

>  <VSA_EState9>
0

>  <apol>
52.87

>  <bpol>
28.09

>  <nRing>
4

>  <nHRing>
0

>  <naRing>
0

>  <naHRing>
0

>  <nARing 2>
4

>  <nAHRing 2>
0

>  <nFRing>
1

>  <nFHRing>
0

>  <nFaRing>
0

>  <nFaHRing>
0

>  <nFARing 2>
1

>  <nFAHRing 2>
0

>  <nRot>
0

>  <SLogP>
4.31

>  <SMR>
85.49

>  <TopoPSA(NO)>
20.23

>  <TopoPSA>
20.23

>  <JGI1>
0.21

>  <JGI2>
0.13

>  <JGI3>
0.06

>  <JGI4>
0.05

>  <JGI5>
0.03

>  <Diameter>
10

>  <Radius>
5

>  <TMWC10>
122.58

>  <TSRW10>
70.93

>  <MW>
284.21

>  <AMW>
5.8

>  <WPath>
812

>  <WPol>
44

>  <Zagreb1>
124

>  <Zagreb2>
158

>  <mZagreb2>
4.47

>  <yes>


>  <nAR-cont>
0.199399

>  <nHA-cont>
0.994529749

>  <MWHBN>
0.118634313

>  <MWHBN-cont>
0.82342982

>  <TPSA-cont>
0.858782038

>  <pka_cont>
0.97

>  <yes.1>


>  <BBB_SCORE>
4.631637556

>  <MMFF94 Energy>
66.879

$$$$
Compound 2941
Actelion Java MolfileCreator 2.0

  0  0  0  0  0  0              0 V3000
M  V30 BEGIN CTAB
M  V30 COUNTS 37 37 0 0 0
M  V30 BEGIN ATOM
M  V30 1 O -1.9539 1.2501 0.5468 0
M  V30 2 C -1.4497 0.1577 0.2751 0
M  V30 3 N -2.227 -0.8125 -0.3263 0
M  V30 4 C 0.0715 -0.0988 0.6166 0 CFG=1
M  V30 5 C -1.6576 -1.9188 -0.601 0
M  V30 6 C 0.5454 -1.524 0.248 0
M  V30 7 C 0.8952 1.0466 -0.136 0 CFG=2
M  V30 8 C 0.1368 0.0914 2.1746 0
M  V30 9 O -2.3933 -2.8671 -1.1901 0
M  V30 10 N -0.3878 -2.301 -0.3859 0
M  V30 11 C 1.7587 -2.0152 0.5553 0
M  V30 12 C 1.1957 0.786 -1.6404 0
M  V30 13 C 2.2309 1.4226 0.5377 0
M  V30 14 C -0.6902 -0.8803 2.9862 0
M  V30 15 C 0.0145 0.7977 -2.6125 0
M  V30 16 C -1.7789 -0.5316 3.6833 0
M  V30 17 C -0.6819 2.1459 -2.7116 0
M  V30 18 H 0.3043 1.97 -0.085 0
M  V30 19 H 1.168 -0.0182 2.5321 0
M  V30 20 H -0.157 1.1192 2.4297 0
M  V30 21 H -3.2883 -2.5008 -1.2984 0
M  V30 22 H -0.1394 -3.2418 -0.6632 0
M  V30 23 H 2.5016 -1.4395 1.0942 0
M  V30 24 H 2.0452 -3.029 0.2921 0
M  V30 25 H 1.9005 1.5517 -1.9934 0
M  V30 26 H 1.7309 -0.1636 -1.7535 0
M  V30 27 H 2.0922 1.7448 1.5732 0
M  V30 28 H 2.6918 2.2714 0.0183 0
M  V30 29 H 2.9532 0.6044 0.5136 0
M  V30 30 H -0.3632 -1.9178 3.0089 0
M  V30 31 H 0.3977 0.5437 -3.6089 0
M  V30 32 H -0.7094 0.0205 -2.3675 0
M  V30 33 H -2.1494 0.49 3.69 0
M  V30 34 H -2.3359 -1.268 4.2542 0
M  V30 35 H -1.4511 2.1135 -3.49 0
M  V30 36 H -1.172 2.4219 -1.775 0
M  V30 37 H 0.0288 2.936 -2.9737 0
M  V30 END ATOM
M  V30 BEGIN BOND
M  V30 1 2 1 2
M  V30 2 1 2 3
M  V30 3 1 2 4
M  V30 4 2 3 5
M  V30 5 1 4 6
M  V30 6 1 4 7
M  V30 7 1 4 8
M  V30 8 1 5 9
M  V30 9 1 5 10
M  V30 10 2 6 11
M  V30 11 1 7 12
M  V30 12 1 7 13
M  V30 13 1 8 14
M  V30 14 1 12 15
M  V30 15 2 14 16
M  V30 16 1 15 17
M  V30 17 1 6 10
M  V30 18 1 7 18
M  V30 19 1 8 19
M  V30 20 1 8 20
M  V30 21 1 9 21
M  V30 22 1 10 22
M  V30 23 1 11 23
M  V30 24 1 11 24
M  V30 25 1 12 25
M  V30 26 1 12 26
M  V30 27 1 13 27
M  V30 28 1 13 28
M  V30 29 1 13 29
M  V30 30 1 14 30
M  V30 31 1 15 31
M  V30 32 1 15 32
M  V30 33 1 16 33
M  V30 34 1 16 34
M  V30 35 1 17 35
M  V30 36 1 17 36
M  V30 37 1 17 37
M  V30 END BOND
M  V30 BEGIN COLLECTION
M  V30 MDLV30/STEABS ATOMS=(2 4 7)
M  V30 END COLLECTION
M  V30 END CTAB
M  END
>  <Column 1>
3784

>  <level_0>
6850

>  <index>
6851

>  <Unnamed: 0>
6851

>  <NO.>
6864

>  <Name>


>  <IUPAC_name>


>  <SMILES>
C=CC[C@@]1([C@@H](C)CCC)C(=C)NC(O)=NC1=O

>  <CID>


>  <logBB>


>  <BBB+/BBB->
BBB+

>  <Inchi>
InChI=1S/C13H20N2O2/c1-5-7-9(3)13(8-6-2)10(4)14-12(17)15-11(13)16/h6-9H-2-4-5-7-8H2-1-3H3-(H2-14-15-16-17)/t9--13+/m0/s1

>  <threshold>


>  <reference>
R27|

>  <group>
C

>  <Class>
1

>  <ABC>
12.27

>  <ABCGG>
11.99

>  <nAcid>
0

>  <nBase>
2

>  <nAromAtom>
0

>  <nAromBond>
0

>  <nAtom>
37

>  <nHeavyAtom>
17

>  <nSpiro>
0

>  <nBridgehead>
0

>  <nHetero>
4

>  <nN>
2

>  <nO>
2

>  <nF>
0

>  <BalabanJ>
2.94

>  <BertzCT>
373.62

>  <nBonds>
37

>  <nBondsO>
17

>  <nBondsS>
33

>  <nBondsD>
4

>  <nBondsT>
0

>  <nBondsA>
0

>  <nBondsM>
4

>  <nBondsKS>
33

>  <nBondsKD>
4

>  <RNCG>
0.27

>  <RPCG>
0.17

>  <FCSP3>
0.54

>  <SZ>
21.33

>  <Sm>
19.67

>  <Sv>
21.36

>  <Sse>
36.87

>  <Sp>
23.26

>  <Si>
42.15

>  <MZ>
0.58

>  <Mm>
0.53

>  <Mv>
0.58

>  <Mse>
1

>  <Mp>
0.63

>  <Mi>
1.14

>  <NsCH3>
2

>  <NdCH2>
2

>  <NssCH2>
3

>  <NtCH>
0

>  <NdsCH>
1

>  <NaaCH>
0

>  <NsssCH>
1

>  <NddC>
0

>  <NtsC>
0

>  <NdssC>
3

>  <NaasC>
0

>  <NaaaC>
0

>  <NssssC>
1

>  <NsNH3>
0

>  <NsNH2>
0

>  <NssNH2>
0

>  <NdNH>
0

>  <NssNH>
1

>  <NaaNH>
0

>  <NtN>
0

>  <NsssNH>
0

>  <NdsN>
1

>  <NaaN>
0

>  <NsssN>
0

>  <NddsN>
0

>  <NaasN>
0

>  <NssssN>
0

>  <NsOH>
1

>  <NdO>
1

>  <NssO>
0

>  <NaaO>
0

>  <NsF>
0

>  <NsSiH3>
0

>  <NssSiH2>
0

>  <NsssSiH>
0

>  <NssssSi>
0

>  <NsPH2>
0

>  <NssPH>
0

>  <NsssP>
0

>  <NdsssP>
0

>  <NsssssP>
0

>  <NsSH>
0

>  <NdS>
0

>  <NssS>
0

>  <NaaS>
0

>  <NdssS>
0

>  <NddssS>
0

>  <NsCl>
0

>  <NsBr>
0

>  <NsI>
0

>  <fragCpx>
17.04

>  <fMF>
0.16

>  <nHBAcc>
2

>  <nHBDon>
2

>  <Kier1>
15.06

>  <Kier2>
6.25

>  <Lipinski>
1

>  <GhoseFilter>
1

>  <FilterItLogS>
-3.25

>  <VMcGowan>
197.67

>  <LabuteASA>
102.13

>  <PEOE_VSA1>
10.42

>  <PEOE_VSA2>
4.79

>  <PEOE_VSA3>
0

>  <PEOE_VSA4>
4.99

>  <PEOE_VSA5>
6.58

>  <PEOE_VSA6>
32.92

>  <PEOE_VSA7>
18.76

>  <PEOE_VSA8>
5.7

>  <PEOE_VSA9>
5.41

>  <PEOE_VSA10>
0

>  <PEOE_VSA11>
0

>  <PEOE_VSA12>
0

>  <PEOE_VSA13>
11.93

>  <SMR_VSA1>
9.9

>  <SMR_VSA2>
0

>  <SMR_VSA3>
5.32

>  <SMR_VSA4>
16.33

>  <SMR_VSA5>
33.11

>  <SMR_VSA6>
0

>  <SMR_VSA7>
24.93

>  <SMR_VSA8>
0

>  <SMR_VSA9>
0

>  <SlogP_VSA1>
5.32

>  <SlogP_VSA2>
17.04

>  <SlogP_VSA3>
4.79

>  <SlogP_VSA4>
11.33

>  <SlogP_VSA5>
33.11

>  <SlogP_VSA6>
29.92

>  <SlogP_VSA7>
0

>  <SlogP_VSA8>
0

>  <SlogP_VSA9>
0

>  <SlogP_VSA10>
0

>  <SlogP_VSA11>
0

>  <EState_VSA1>
5.41

>  <EState_VSA2>
17.85

>  <EState_VSA3>
12.12

>  <EState_VSA4>
12.84

>  <EState_VSA5>
0

>  <EState_VSA6>
6.08

>  <EState_VSA7>
6.92

>  <EState_VSA8>
30.39

>  <EState_VSA9>
0

>  <EState_VSA10>
9.9

>  <VSA_EState1>
0

>  <VSA_EState2>
15.77

>  <VSA_EState3>
11.96

>  <VSA_EState4>
-0.26

>  <VSA_EState5>
-0.23

>  <VSA_EState6>
-0.37

>  <VSA_EState7>
4.07

>  <VSA_EState8>
11.65

>  <VSA_EState9>
0

>  <apol>
38.85

>  <bpol>
22.64

>  <nRing>
1

>  <nHRing>
1

>  <naRing>
0

>  <naHRing>
0

>  <nARing 2>
1

>  <nAHRing 2>
1

>  <nFRing>
0

>  <nFHRing>
0

>  <nFaRing>
0

>  <nFaHRing>
0

>  <nFARing 2>
0

>  <nFAHRing 2>
0

>  <nRot>
5

>  <SLogP>
2.54

>  <SMR>
68.67

>  <TopoPSA(NO)>
61.69

>  <TopoPSA>
61.69

>  <JGI1>
0.29

>  <JGI2>
0.13

>  <JGI3>
0.09

>  <JGI4>
0.04

>  <JGI5>
0.03

>  <Diameter>
8

>  <Radius>
4

>  <TMWC10>
106.14

>  <TSRW10>
49.94

>  <MW>
236.15

>  <AMW>
6.38

>  <WPath>
472

>  <WPol>
30

>  <Zagreb1>
82

>  <Zagreb2>
98

>  <mZagreb2>
4.04

>  <yes>


>  <nAR-cont>
0.816016

>  <nHA-cont>
0.976740822

>  <MWHBN>
0.260295114

>  <MWHBN-cont>
0.940829489

>  <TPSA-cont>
0.569365493

>  <pka_cont>
0.97

>  <yes.1>


>  <BBB_SCORE>
4.827732041

>  <MMFF94 Energy>
-27.615

$$$$
Compound 2942
Actelion Java MolfileCreator 2.0

  0  0  0  0  0  0              0 V3000
M  V30 BEGIN CTAB
M  V30 COUNTS 44 47 0 0 0
M  V30 BEGIN ATOM
M  V30 1 O -1.766 -1.1235 -1.4447 0
M  V30 2 C -1.1527 -0.6619 -0.2359 0 CFG=1
M  V30 3 C -0.7385 -1.8422 0.627 0
M  V30 4 C 0.018 0.3106 -0.5835 0 CFG=1
M  V30 5 C 0.0646 -2.9278 0.1738 0
M  V30 6 C -1.1552 -1.8346 1.9668 0
M  V30 7 N -0.3677 1.2716 -1.6773 0
M  V30 8 C 0.5679 1.0663 0.647 0
M  V30 9 C 0.4144 -3.9196 1.1236 0
M  V30 10 C 0.5342 -3.0886 -1.154 0
M  V30 11 C -0.7594 -2.8609 2.7996 0
M  V30 12 C -1.2463 2.3403 -1.1268 0
M  V30 13 C 0.8783 1.915 -2.1671 0
M  V30 14 C 0.8288 2.5378 0.2681 0 CFG=2
M  V30 15 N 0.0188 -3.8839 2.4055 0
M  V30 16 C 1.2076 -4.9887 0.7295 0
M  V30 17 C 1.3286 -4.1735 -1.5256 0
M  V30 18 C -0.5138 3.2252 -0.0842 0 CFG=2
M  V30 19 C 1.6849 2.5369 -1.0132 0
M  V30 20 C 1.6697 -5.1259 -0.5793 0
M  V30 21 C -1.3715 3.4937 1.1299 0
M  V30 22 C -1.6811 4.721 1.5682 0
M  V30 23 H -1.6496 -0.3795 -2.0715 0
M  V30 24 H -1.9389 -0.1022 0.285 0
M  V30 25 H 0.8319 -0.301 -0.9937 0
M  V30 26 H -1.7792 -1.0402 2.3637 0
M  V30 27 H -0.1178 1.0117 1.4984 0
M  V30 28 H 1.5066 0.598 0.9685 0
M  V30 29 H 0.2687 -2.3731 -1.9277 0
M  V30 30 H -1.0642 -2.8866 3.8418 0
M  V30 31 H -2.1623 1.8972 -0.7188 0
M  V30 32 H -1.5892 2.974 -1.9557 0
M  V30 33 H 0.6302 2.6814 -2.9123 0
M  V30 34 H 1.4938 1.1785 -2.6981 0
M  V30 35 H 1.3487 3.0602 1.0787 0
M  V30 36 H 1.4711 -5.743 1.4676 0
M  V30 37 H 1.6687 -4.273 -2.5529 0
M  V30 38 H -0.2801 4.187 -0.5636 0
M  V30 39 H 1.9797 3.5597 -1.2755 0
M  V30 40 H 2.6063 1.9661 -0.8463 0
M  V30 41 H 2.2845 -5.9788 -0.8526 0
M  V30 42 H -1.7652 2.638 1.6744 0
M  V30 43 H -1.3225 5.6165 1.0697 0
M  V30 44 H -2.3055 4.8567 2.4466 0
M  V30 END ATOM
M  V30 BEGIN BOND
M  V30 1 1 1 2
M  V30 2 1 2 3
M  V30 3 1 2 4
M  V30 4 1 3 5
M  V30 5 2 3 6
M  V30 6 1 4 7
M  V30 7 1 4 8
M  V30 8 1 5 9
M  V30 9 2 5 10
M  V30 10 1 6 11
M  V30 11 1 7 12
M  V30 12 1 7 13
M  V30 13 1 8 14
M  V30 14 1 9 15
M  V30 15 2 9 16
M  V30 16 1 10 17
M  V30 17 1 12 18
M  V30 18 1 13 19
M  V30 19 1 16 20
M  V30 20 1 18 21
M  V30 21 2 21 22
M  V30 22 2 11 15
M  V30 23 1 14 18
M  V30 24 1 14 19
M  V30 25 2 17 20
M  V30 26 1 1 23
M  V30 27 1 2 24
M  V30 28 1 4 25
M  V30 29 1 6 26
M  V30 30 1 8 27
M  V30 31 1 8 28
M  V30 32 1 10 29
M  V30 33 1 11 30
M  V30 34 1 12 31
M  V30 35 1 12 32
M  V30 36 1 13 33
M  V30 37 1 13 34
M  V30 38 1 14 35
M  V30 39 1 16 36
M  V30 40 1 17 37
M  V30 41 1 18 38
M  V30 42 1 19 39
M  V30 43 1 19 40
M  V30 44 1 20 41
M  V30 45 1 21 42
M  V30 46 1 22 43
M  V30 47 1 22 44
M  V30 END BOND
M  V30 BEGIN COLLECTION
M  V30 MDLV30/STEABS ATOMS=(4 2 4 14 18)
M  V30 END COLLECTION
M  V30 END CTAB
M  END
>  <Column 1>
3786

>  <level_0>
6854

>  <index>
6855

>  <Unnamed: 0>
6855

>  <NO.>
6868

>  <Name>
cinchonidine

>  <IUPAC_name>
(s)-[(2s-4r-5s)-5-ethenyl-1-azabicyclo[2.2.2]octan-2-yl]-quinolin-4-ylmethanol

>  <SMILES>
C=C[C@@H]1CN2CC[C@@H]1C[C@H]2[C@@H](O)c1ccnc2ccccc12

>  <CID>
968909

>  <logBB>


>  <BBB+/BBB->
BBB+

>  <Inchi>
InChI=1S/C19H22N2O/c1-2-13-12-21-10-8-14(13)11-18(21)19(22)16-7-9-20-17-6-4-3-5-15(16)17/h2-7-9-13-14-18-19-22H-1-8-10-12H2/t13--14--18+-19+/m1/s1

>  <threshold>


>  <reference>
R27|

>  <group>
C

>  <Class>
1

>  <ABC>
17.54

>  <ABCGG>
13.75

>  <nAcid>
0

>  <nBase>
1

>  <nAromAtom>
10

>  <nAromBond>
11

>  <nAtom>
44

>  <nHeavyAtom>
22

>  <nSpiro>
0

>  <nBridgehead>
2

>  <nHetero>
3

>  <nN>
2

>  <nO>
1

>  <nF>
0

>  <BalabanJ>
1.46

>  <BertzCT>
693.4

>  <nBonds>
47

>  <nBondsO>
25

>  <nBondsS>
35

>  <nBondsD>
1

>  <nBondsT>
0

>  <nBondsA>
11

>  <nBondsM>
12

>  <nBondsKS>
41

>  <nBondsKD>
6

>  <RNCG>
0.26

>  <RPCG>
0.14

>  <FCSP3>
0.42

>  <SZ>
26.33

>  <Sm>
24.51

>  <Sv>
27.19

>  <Sse>
43.42

>  <Sp>
29.58

>  <Si>
49.36

>  <MZ>
0.6

>  <Mm>
0.56

>  <Mv>
0.62

>  <Mse>
0.99

>  <Mp>
0.67

>  <Mi>
1.12

>  <NsCH3>
0

>  <NdCH2>
1

>  <NssCH2>
4

>  <NtCH>
0

>  <NdsCH>
1

>  <NaaCH>
6

>  <NsssCH>
4

>  <NddC>
0

>  <NtsC>
0

>  <NdssC>
0

>  <NaasC>
1

>  <NaaaC>
2

>  <NssssC>
0

>  <NsNH3>
0

>  <NsNH2>
0

>  <NssNH2>
0

>  <NdNH>
0

>  <NssNH>
0

>  <NaaNH>
0

>  <NtN>
0

>  <NsssNH>
0

>  <NdsN>
0

>  <NaaN>
1

>  <NsssN>
1

>  <NddsN>
0

>  <NaasN>
0

>  <NssssN>
0

>  <NsOH>
1

>  <NdO>
0

>  <NssO>
0

>  <NaaO>
0

>  <NsF>
0

>  <NsSiH3>
0

>  <NssSiH2>
0

>  <NsssSiH>
0

>  <NssssSi>
0

>  <NsPH2>
0

>  <NssPH>
0

>  <NsssP>
0

>  <NdsssP>
0

>  <NsssssP>
0

>  <NsSH>
0

>  <NdS>
0

>  <NssS>
0

>  <NaaS>
0

>  <NdssS>
0

>  <NddssS>
0

>  <NsCl>
0

>  <NsBr>
0

>  <NsI>
0

>  <fragCpx>
163.03

>  <fMF>
0.43

>  <nHBAcc>
3

>  <nHBDon>
1

>  <Kier1>
15.52

>  <Kier2>
6.48

>  <Lipinski>
1

>  <GhoseFilter>
1

>  <FilterItLogS>
-3.29

>  <VMcGowan>
235.16

>  <LabuteASA>
130.83

>  <PEOE_VSA1>
5.11

>  <PEOE_VSA2>
9.88

>  <PEOE_VSA3>
0

>  <PEOE_VSA4>
0

>  <PEOE_VSA5>
6.58

>  <PEOE_VSA6>
24.28

>  <PEOE_VSA7>
48.92

>  <PEOE_VSA8>
24.17

>  <PEOE_VSA9>
11.62

>  <PEOE_VSA10>
0

>  <PEOE_VSA11>
0

>  <PEOE_VSA12>
0

>  <PEOE_VSA13>
0

>  <SMR_VSA1>
5.11

>  <SMR_VSA2>
0

>  <SMR_VSA3>
9.88

>  <SMR_VSA4>
11.84

>  <SMR_VSA5>
24.99

>  <SMR_VSA6>
13.09

>  <SMR_VSA7>
54.75

>  <SMR_VSA8>
0

>  <SMR_VSA9>
0

>  <SlogP_VSA1>
0

>  <SlogP_VSA2>
34.12

>  <SlogP_VSA3>
0

>  <SlogP_VSA4>
11.84

>  <SlogP_VSA5>
24.51

>  <SlogP_VSA6>
49.18

>  <SlogP_VSA7>
0

>  <SlogP_VSA8>
10.9

>  <SlogP_VSA9>
0

>  <SlogP_VSA10>
0

>  <SlogP_VSA11>
0

>  <EState_VSA1>
6.1

>  <EState_VSA2>
6.04

>  <EState_VSA3>
11.84

>  <EState_VSA4>
35.98

>  <EState_VSA5>
6.42

>  <EState_VSA6>
0

>  <EState_VSA7>
30.46

>  <EState_VSA8>
28.61

>  <EState_VSA9>
0

>  <EState_VSA10>
5.11

>  <VSA_EState1>
0

>  <VSA_EState2>
6.86

>  <VSA_EState3>
12.1

>  <VSA_EState4>
1.97

>  <VSA_EState5>
1.27

>  <VSA_EState6>
10.27

>  <VSA_EState7>
5.76

>  <VSA_EState8>
6.11

>  <VSA_EState9>
0

>  <apol>
49.4

>  <bpol>
24.92

>  <nRing>
5

>  <nHRing>
4

>  <naRing>
2

>  <naHRing>
1

>  <nARing 2>
3

>  <nAHRing 2>
3

>  <nFRing>
2

>  <nFHRing>
2

>  <nFaRing>
1

>  <nFaHRing>
1

>  <nFARing 2>
1

>  <nFAHRing 2>
1

>  <nRot>
3

>  <SLogP>
3.16

>  <SMR>
88.47

>  <TopoPSA(NO)>
36.36

>  <TopoPSA>
36.36

>  <JGI1>
0.14

>  <JGI2>
0.08

>  <JGI3>
0.04

>  <JGI4>
0.04

>  <JGI5>
0.03

>  <Diameter>
11

>  <Radius>
6

>  <TMWC10>
122.77

>  <TSRW10>
56.89

>  <MW>
294.17

>  <AMW>
6.69

>  <WPath>
1005

>  <WPol>
38

>  <Zagreb1>
122

>  <Zagreb2>
149

>  <mZagreb2>
4.83

>  <yes>


>  <nAR-cont>
0.691115

>  <nHA-cont>
0.983774276

>  <MWHBN>
0.23321732

>  <MWHBN-cont>
0.983357215

>  <TPSA-cont>
0.746184622

>  <pka_cont>
0.97

>  <yes.1>


>  <BBB_SCORE>
5.127294342

>  <MMFF94 Energy>
109.1

$$$$
Compound 2943
Actelion Java MolfileCreator 2.0

  0  0  0  0  0  0              0 V3000
M  V30 BEGIN CTAB
M  V30 COUNTS 85 90 0 0 0
M  V30 BEGIN ATOM
M  V30 1 O -1.3671 -1.528 8.8713 0
M  V30 2 C -0.4964 -0.9593 8.2388 0
M  V30 3 O 0.8428 -1.1162 8.4093 0
M  V30 4 C -0.7331 0.0208 7.1827 0
M  V30 5 C 1.5306 -0.2766 7.4839 0
M  V30 6 C 0.4568 0.4169 6.7304 0
M  V30 7 C 0.7959 1.4316 5.668 0 CFG=1
M  V30 8 C 1.0636 0.898 4.2203 0 CFG=2
M  V30 9 C -0.2826 2.5387 5.4477 0
M  V30 10 C -0.329 1.0428 3.5477 0 CFG=2
M  V30 11 C 1.5234 -0.5621 4.0606 0
M  V30 12 C 2.1565 1.8268 3.608 0
M  V30 13 C -0.7805 2.4289 3.9929 0
M  V30 14 O -1.237 0.1038 4.1487 0
M  V30 15 C -0.2592 0.7542 2.0317 0 CFG=1
M  V30 16 C 1.5554 -0.9957 2.5821 0
M  V30 17 C 0.2408 -0.7077 1.7959 0 CFG=2
M  V30 18 C -1.5983 0.9923 1.3213 0
M  V30 19 C 0.3247 -1.1026 0.2607 0 CFG=1
M  V30 20 C -1.4896 0.6988 -0.1718 0
M  V30 21 C 0.5505 -2.6315 0.2243 0
M  V30 22 C -1.046 -0.754 -0.4526 0 CFG=2
M  V30 23 C 1.4623 -0.3174 -0.4692 0
M  V30 24 C 1.6202 -3.3271 -0.1863 0
M  V30 25 O -2.1114 -1.5702 0.0725 0
M  V30 26 C -0.9747 -0.9967 -1.9722 0
M  V30 27 C 1.4886 -0.4959 -1.9931 0
M  V30 28 C 0.143 -0.2132 -2.6586 0 CFG=1
M  V30 29 O 0.1611 -0.6344 -4.0263 0
M  V30 30 C 0.7653 0.2963 -4.9183 0 CFG=2
M  V30 31 O 0.0588 1.5335 -4.9886 0
M  V30 32 C 0.9042 -0.3315 -6.3065 0
M  V30 33 C -1.2578 1.3996 -5.5385 0 CFG=2
M  V30 34 C -0.4403 -0.4681 -7.0252 0 CFG=2
M  V30 35 C -1.1922 0.8734 -6.9813 0 CFG=1
M  V30 36 C -1.9153 2.7753 -5.4776 0
M  V30 37 O -1.3175 -1.4555 -6.4506 0
M  V30 38 O -2.5045 0.6968 -7.5235 0
M  V30 39 C -0.8657 -2.7929 -6.6126 0
M  V30 40 H -1.7188 0.3104 6.867 0
M  V30 41 H 2.1616 -0.9006 6.8466 0
M  V30 42 H 2.157 0.4255 8.0427 0
M  V30 43 H 1.693 1.9456 6.0432 0
M  V30 44 H -1.1222 2.4651 6.146 0
M  V30 45 H 0.1579 3.5312 5.6036 0
M  V30 46 H 0.8579 -1.2477 4.5983 0
M  V30 47 H 2.5223 -0.6979 4.4923 0
M  V30 48 H 3.1086 1.683 4.1335 0
M  V30 49 H 2.3483 1.6341 2.55 0
M  V30 50 H 1.9026 2.888 3.6973 0
M  V30 51 H -0.3326 3.2181 3.3792 0
M  V30 52 H -1.8683 2.5537 3.9584 0
M  V30 53 H -2.1247 0.2417 3.7769 0
M  V30 54 H 0.4533 1.4537 1.5823 0
M  V30 55 H 2.4036 -0.506 2.0949 0
M  V30 56 H 1.7751 -2.0692 2.5603 0
M  V30 57 H -0.518 -1.3686 2.2439 0
M  V30 58 H -1.9099 2.0356 1.4507 0
M  V30 59 H -2.3925 0.3732 1.7522 0
M  V30 60 H -2.4767 0.8744 -0.6195 0
M  V30 61 H -0.8071 1.4273 -0.621 0
M  V30 62 H -0.2634 -3.2216 0.6499 0
M  V30 63 H 1.3699 0.7554 -0.2679 0
M  V30 64 H 2.4472 -0.5991 -0.0799 0
M  V30 65 H 2.5195 -2.8658 -0.5758 0
M  V30 66 H 1.6262 -4.4116 -0.1137 0
M  V30 67 H -2.0643 -2.4423 -0.356 0
M  V30 68 H -0.8563 -2.0689 -2.1822 0
M  V30 69 H -1.9376 -0.7484 -2.4402 0
M  V30 70 H 2.2541 0.1714 -2.4067 0
M  V30 71 H 1.8205 -1.5032 -2.2665 0
M  V30 72 H -0.0837 0.8571 -2.6072 0
M  V30 73 H 1.7751 0.5231 -4.5606 0
M  V30 74 H 1.5423 0.3209 -6.9162 0
M  V30 75 H 1.4029 -1.3018 -6.2225 0
M  V30 76 H -1.8537 0.7277 -4.9077 0
M  V30 77 H -0.2821 -0.7445 -8.0753 0
M  V30 78 H -0.6596 1.5969 -7.6106 0
M  V30 79 H -1.9243 3.1462 -4.4466 0
M  V30 80 H -2.9458 2.7474 -5.8439 0
M  V30 81 H -1.3511 3.5055 -6.0683 0
M  V30 82 H -2.8146 -0.1566 -7.1562 0
M  V30 83 H -0.63 -3.002 -7.6602 0
M  V30 84 H -1.6707 -3.4629 -6.2981 0
M  V30 85 H 0.0026 -2.9901 -5.9793 0
M  V30 END ATOM
M  V30 BEGIN BOND
M  V30 1 2 1 2
M  V30 2 1 2 3
M  V30 3 1 2 4
M  V30 4 1 3 5
M  V30 5 2 4 6
M  V30 6 1 6 7
M  V30 7 1 7 8
M  V30 8 1 7 9
M  V30 9 1 8 10
M  V30 10 1 8 11
M  V30 11 1 8 12
M  V30 12 1 9 13
M  V30 13 1 10 14
M  V30 14 1 10 15
M  V30 15 1 11 16
M  V30 16 1 15 17
M  V30 17 1 15 18
M  V30 18 1 17 19
M  V30 19 1 18 20
M  V30 20 1 19 21
M  V30 21 1 19 22
M  V30 22 1 19 23
M  V30 23 2 21 24
M  V30 24 1 22 25
M  V30 25 1 22 26
M  V30 26 1 23 27
M  V30 27 1 26 28
M  V30 28 1 28 29
M  V30 29 1 29 30
M  V30 30 1 30 31
M  V30 31 1 30 32
M  V30 32 1 31 33
M  V30 33 1 32 34
M  V30 34 1 33 35
M  V30 35 1 33 36
M  V30 36 1 34 37
M  V30 37 1 35 38
M  V30 38 1 37 39
M  V30 39 1 5 6
M  V30 40 1 10 13
M  V30 41 1 16 17
M  V30 42 1 20 22
M  V30 43 1 27 28
M  V30 44 1 34 35
M  V30 45 1 4 40
M  V30 46 1 5 41
M  V30 47 1 5 42
M  V30 48 1 7 43
M  V30 49 1 9 44
M  V30 50 1 9 45
M  V30 51 1 11 46
M  V30 52 1 11 47
M  V30 53 1 12 48
M  V30 54 1 12 49
M  V30 55 1 12 50
M  V30 56 1 13 51
M  V30 57 1 13 52
M  V30 58 1 14 53
M  V30 59 1 15 54
M  V30 60 1 16 55
M  V30 61 1 16 56
M  V30 62 1 17 57
M  V30 63 1 18 58
M  V30 64 1 18 59
M  V30 65 1 20 60
M  V30 66 1 20 61
M  V30 67 1 21 62
M  V30 68 1 23 63
M  V30 69 1 23 64
M  V30 70 1 24 65
M  V30 71 1 24 66
M  V30 72 1 25 67
M  V30 73 1 26 68
M  V30 74 1 26 69
M  V30 75 1 27 70
M  V30 76 1 27 71
M  V30 77 1 28 72
M  V30 78 1 30 73
M  V30 79 1 32 74
M  V30 80 1 32 75
M  V30 81 1 33 76
M  V30 82 1 34 77
M  V30 83 1 35 78
M  V30 84 1 36 79
M  V30 85 1 36 80
M  V30 86 1 36 81
M  V30 87 1 38 82
M  V30 88 1 39 83
M  V30 89 1 39 84
M  V30 90 1 39 85
M  V30 END BOND
M  V30 BEGIN COLLECTION
M  V30 MDLV30/STEABS ATOMS=(12 7 8 10 15 17 19 22 28 30 33 34 35)
M  V30 END COLLECTION
M  V30 END CTAB
M  END
>  <Column 1>
3787

>  <level_0>
6855

>  <index>
6856

>  <Unnamed: 0>
6856

>  <NO.>
6869

>  <Name>


>  <IUPAC_name>


>  <SMILES>
C=C[C@@]12CC[C@@H](O[C@H]3C[C@@H](OC)[C@@H](O)[C@H](C)O3)C[C@]1(O)CC[C@@H]1[C@@H]2CC[C@]2(C)[C@H](C3=CC(=O)OC3)CC[C@@]12O

>  <CID>


>  <logBB>


>  <BBB+/BBB->
BBB+

>  <Inchi>
InChI=1S/C31H46O8/c1-5-29-11-6-20(39-26-15-24(36-4)27(33)18(2)38-26)16-30(29-34)12-8-23-22(29)7-10-28(3)21(9-13-31(23-28)35)19-14-25(32)37-17-19/h5-14-18-20-24-26-27-33-35H-1-6-13-15-17H2-2-4H3/t18--20+-21--22--23+-24+-26--27--28+-29--30+-31+/m0/s1

>  <threshold>


>  <reference>
R27|

>  <group>
C

>  <Class>
1

>  <ABC>
31.38

>  <ABCGG>
23.59

>  <nAcid>
0

>  <nBase>
0

>  <nAromAtom>
0

>  <nAromBond>
0

>  <nAtom>
85

>  <nHeavyAtom>
39

>  <nSpiro>
0

>  <nBridgehead>
0

>  <nHetero>
8

>  <nN>
0

>  <nO>
8

>  <nF>
0

>  <BalabanJ>
1.19

>  <BertzCT>
1028.06

>  <nBonds>
90

>  <nBondsO>
44

>  <nBondsS>
87

>  <nBondsD>
3

>  <nBondsT>
0

>  <nBondsA>
0

>  <nBondsM>
3

>  <nBondsKS>
87

>  <nBondsKD>
3

>  <RNCG>
0.13

>  <RPCG>
0.09

>  <FCSP3>
0.84

>  <SZ>
49.33

>  <Sm>
45.52

>  <Sv>
49.18

>  <Sse>
85.07

>  <Sp>
53.21

>  <Si>
96.23

>  <MZ>
0.58

>  <Mm>
0.54

>  <Mv>
0.58

>  <Mse>
1

>  <Mp>
0.63

>  <Mi>
1.13

>  <NsCH3>
3

>  <NdCH2>
1

>  <NssCH2>
11

>  <NtCH>
0

>  <NdsCH>
2

>  <NaaCH>
0

>  <NsssCH>
8

>  <NddC>
0

>  <NtsC>
0

>  <NdssC>
2

>  <NaasC>
0

>  <NaaaC>
0

>  <NssssC>
4

>  <NsNH3>
0

>  <NsNH2>
0

>  <NssNH2>
0

>  <NdNH>
0

>  <NssNH>
0

>  <NaaNH>
0

>  <NtN>
0

>  <NsssNH>
0

>  <NdsN>
0

>  <NaaN>
0

>  <NsssN>
0

>  <NddsN>
0

>  <NaasN>
0

>  <NssssN>
0

>  <NsOH>
3

>  <NdO>
1

>  <NssO>
4

>  <NaaO>
0

>  <NsF>
0

>  <NsSiH3>
0

>  <NssSiH2>
0

>  <NsssSiH>
0

>  <NssssSi>
0

>  <NsPH2>
0

>  <NssPH>
0

>  <NsssP>
0

>  <NdsssP>
0

>  <NsssssP>
0

>  <NsSH>
0

>  <NdS>
0

>  <NssS>
0

>  <NaaS>
0

>  <NdssS>
0

>  <NddssS>
0

>  <NsCl>
0

>  <NsBr>
0

>  <NsI>
0

>  <fragCpx>
454.08

>  <fMF>
0.34

>  <nHBAcc>
8

>  <nHBDon>
3

>  <Kier1>
29.09

>  <Kier2>
10.32

>  <Lipinski>
0

>  <GhoseFilter>
0

>  <FilterItLogS>
-3.45

>  <VMcGowan>
416.55

>  <LabuteASA>
231.27

>  <PEOE_VSA1>
34.27

>  <PEOE_VSA2>
0

>  <PEOE_VSA3>
4.79

>  <PEOE_VSA4>
0

>  <PEOE_VSA5>
6.58

>  <PEOE_VSA6>
13

>  <PEOE_VSA7>
81.62

>  <PEOE_VSA8>
36.86

>  <PEOE_VSA9>
29.51

>  <PEOE_VSA10>
12.71

>  <PEOE_VSA11>
6.29

>  <PEOE_VSA12>
0

>  <PEOE_VSA13>
0

>  <SMR_VSA1>
39.06

>  <SMR_VSA2>
0

>  <SMR_VSA3>
0

>  <SMR_VSA4>
28.58

>  <SMR_VSA5>
119.96

>  <SMR_VSA6>
13.72

>  <SMR_VSA7>
24.3

>  <SMR_VSA8>
0

>  <SMR_VSA9>
0

>  <SlogP_VSA1>
0

>  <SlogP_VSA2>
76.91

>  <SlogP_VSA3>
23.74

>  <SlogP_VSA4>
28.58

>  <SlogP_VSA5>
78.06

>  <SlogP_VSA6>
24.3

>  <SlogP_VSA7>
0

>  <SlogP_VSA8>
0

>  <SlogP_VSA9>
0

>  <SlogP_VSA10>
0

>  <SlogP_VSA11>
0

>  <EState_VSA1>
29.01

>  <EState_VSA2>
47.45

>  <EState_VSA3>
32.29

>  <EState_VSA4>
44.1

>  <EState_VSA5>
0

>  <EState_VSA6>
13.19

>  <EState_VSA7>
13

>  <EState_VSA8>
13.5

>  <EState_VSA9>
18.95

>  <EState_VSA10>
20.11

>  <VSA_EState1>
23.07

>  <VSA_EState2>
11.84

>  <VSA_EState3>
35.1

>  <VSA_EState4>
-1.58

>  <VSA_EState5>
0.09

>  <VSA_EState6>
0

>  <VSA_EState7>
8.74

>  <VSA_EState8>
8.66

>  <VSA_EState9>
1.59

>  <apol>
88.86

>  <bpol>
53.96

>  <nRing>
6

>  <nHRing>
2

>  <naRing>
0

>  <naHRing>
0

>  <nARing 2>
6

>  <nAHRing 2>
2

>  <nFRing>
1

>  <nFHRing>
0

>  <nFaRing>
0

>  <nFaHRing>
0

>  <nFARing 2>
1

>  <nFAHRing 2>
0

>  <nRot>
5

>  <SLogP>
3.42

>  <SMR>
142.33

>  <TopoPSA(NO)>
114.68

>  <TopoPSA>
114.68

>  <JGI1>
0.27

>  <JGI2>
0.13

>  <JGI3>
0.07

>  <JGI4>
0.05

>  <JGI5>
0.04

>  <Diameter>
18

>  <Radius>
9

>  <TMWC10>
166.44

>  <TSRW10>
93.64

>  <MW>
546.32

>  <AMW>
6.43

>  <WPath>
4907

>  <WPol>
85

>  <Zagreb1>
230

>  <Zagreb2>
293

>  <mZagreb2>
8.24

>  <yes>


>  <nAR-cont>
0

>  <nHA-cont>
0.348277641

>  <MWHBN>
0.470618652

>  <MWHBN-cont>
0

>  <TPSA-cont>
0.199462388

>  <pka_cont>
0.97

>  <yes.1>


>  <BBB_SCORE>
1.232202417

>  <MMFF94 Energy>
136.07

$$$$
Compound 2944
Actelion Java MolfileCreator 2.0

  0  0  0  0  0  0              0 V3000
M  V30 BEGIN CTAB
M  V30 COUNTS 51 54 0 0 0
M  V30 BEGIN ATOM
M  V30 1 O -2.4222 -0.484 -0.242 0
M  V30 2 C -1.2989 -0.8194 0.1341 0
M  V30 3 C -0.3274 0.2103 0.6105 0
M  V30 4 C -0.8592 -2.2748 0.1453 0 CFG=1
M  V30 5 C -0.7537 1.5387 0.8068 0
M  V30 6 C 1.0091 -0.1509 0.8484 0
M  V30 7 O -0.9448 -2.7594 1.4911 0
M  V30 8 C -1.7499 -3.1461 -0.7379 0
M  V30 9 C 0.5786 -2.3967 -0.3335 0 CFG=2
M  V30 10 O -2.0616 1.8854 0.5427 0
M  V30 11 C 0.1307 2.5587 1.263 0
M  V30 12 C 1.8978 0.8252 1.3672 0
M  V30 13 C 1.4879 -1.5685 0.5904 0
M  V30 14 O -2.5736 -3.9174 -0.2434 0
M  V30 15 C -1.5982 -3.0296 -2.2102 0
M  V30 16 C 0.7066 -2.0104 -1.828 0 CFG=2
M  V30 17 C -0.235 3.9315 1.4642 0
M  V30 18 C 1.4754 2.1852 1.5311 0
M  V30 19 C 3.3204 0.4383 1.73 0
M  V30 20 C -0.4554 -2.4925 -2.6905 0
M  V30 21 C -2.6793 -3.4548 -3.1512 0
M  V30 22 N 1.9757 -2.5022 -2.368 0
M  V30 23 O -1.5335 4.3138 1.2237 0
M  V30 24 C 0.6708 4.9076 1.9113 0
M  V30 25 C 2.3727 3.1955 1.9512 0
M  V30 26 O -0.241 -2.3006 -4.0531 0
M  V30 27 O -2.4155 -3.6428 -4.343 0
M  V30 28 C -4.0862 -3.6189 -2.6396 0
M  V30 29 C 1.9855 4.5226 2.137 0
M  V30 30 C 0.2752 6.3376 2.1445 0
M  V30 31 H -1.8836 -2.9996 1.6404 0
M  V30 32 H 0.8899 -3.4473 -0.2214 0
M  V30 33 H -2.5529 1.1171 0.1872 0
M  V30 34 H 2.4935 -1.5469 0.1588 0
M  V30 35 H 1.566 -2.0726 1.5626 0
M  V30 36 H 0.7251 -0.9178 -1.9261 0
M  V30 37 H 4.0077 0.7573 0.9406 0
M  V30 38 H 3.444 -0.6361 1.8854 0
M  V30 39 H 3.6164 0.887 2.684 0
M  V30 40 H 2.7773 -2.1227 -1.8741 0
M  V30 41 H 2.0286 -3.517 -2.3241 0
M  V30 42 H -1.5633 5.2547 1.001 0
M  V30 43 H 3.4198 2.9712 2.1412 0
M  V30 44 H -0.9371 -2.7685 -4.5675 0
M  V30 45 H -4.3289 -2.8391 -1.9129 0
M  V30 46 H -4.7841 -3.5125 -3.4758 0
M  V30 47 H -4.2092 -4.6113 -2.1999 0
M  V30 48 H 2.727 5.2463 2.4686 0
M  V30 49 H 0.0727 6.8337 1.1901 0
M  V30 50 H -0.6145 6.3906 2.7803 0
M  V30 51 H 1.0677 6.8972 2.653 0
M  V30 END ATOM
M  V30 BEGIN BOND
M  V30 1 2 1 2
M  V30 2 1 2 3
M  V30 3 1 2 4
M  V30 4 2 3 5
M  V30 5 1 3 6
M  V30 6 1 4 7
M  V30 7 1 4 8
M  V30 8 1 4 9
M  V30 9 1 5 10
M  V30 10 1 5 11
M  V30 11 2 6 12
M  V30 12 1 6 13
M  V30 13 2 8 14
M  V30 14 1 8 15
M  V30 15 1 9 16
M  V30 16 2 11 17
M  V30 17 1 11 18
M  V30 18 1 12 19
M  V30 19 2 15 20
M  V30 20 1 15 21
M  V30 21 1 16 22
M  V30 22 1 17 23
M  V30 23 1 17 24
M  V30 24 2 18 25
M  V30 25 1 20 26
M  V30 26 2 21 27
M  V30 27 1 21 28
M  V30 28 2 24 29
M  V30 29 1 24 30
M  V30 30 1 9 13
M  V30 31 1 12 18
M  V30 32 1 16 20
M  V30 33 1 25 29
M  V30 34 1 7 31
M  V30 35 1 9 32
M  V30 36 1 10 33
M  V30 37 1 13 34
M  V30 38 1 13 35
M  V30 39 1 16 36
M  V30 40 1 19 37
M  V30 41 1 19 38
M  V30 42 1 19 39
M  V30 43 1 22 40
M  V30 44 1 22 41
M  V30 45 1 23 42
M  V30 46 1 25 43
M  V30 47 1 26 44
M  V30 48 1 28 45
M  V30 49 1 28 46
M  V30 50 1 28 47
M  V30 51 1 29 48
M  V30 52 1 30 49
M  V30 53 1 30 50
M  V30 54 1 30 51
M  V30 END BOND
M  V30 BEGIN COLLECTION
M  V30 MDLV30/STEABS ATOMS=(3 4 9 16)
M  V30 END COLLECTION
M  V30 END CTAB
M  END
>  <Column 1>
3790

>  <level_0>
6863

>  <index>
6864

>  <Unnamed: 0>
6864

>  <NO.>
6877

>  <Name>
cetocycline

>  <IUPAC_name>


>  <SMILES>
CC(=O)C1=C(O)[C@H](N)[C@H]2Cc3c(c(O)c4c(O)c(C)ccc4c3C)C(=O)[C@@]2(O)C1=O

>  <CID>


>  <logBB>


>  <BBB+/BBB->
BBB-

>  <Inchi>
InChI=1S/C22H21NO7/c1-7-4-5-10-8(2)11-6-12-16(23)19(27)13(9(3)24)20(28)22(12-30)21(29)15(11)18(26)14(10)17(7)25/h4-5-12-16-25-27-30H-6-23H2-1-3H3/t12--16--22+/m1/s1

>  <threshold>


>  <reference>
R27|R30|

>  <group>
C

>  <Class>
1

>  <ABC>
23.84

>  <ABCGG>
19.69

>  <nAcid>
0

>  <nBase>
1

>  <nAromAtom>
10

>  <nAromBond>
11

>  <nAtom>
51

>  <nHeavyAtom>
30

>  <nSpiro>
0

>  <nBridgehead>
0

>  <nHetero>
8

>  <nN>
1

>  <nO>
7

>  <nF>
0

>  <BalabanJ>
1.74

>  <BertzCT>
1226.2

>  <nBonds>
54

>  <nBondsO>
33

>  <nBondsS>
39

>  <nBondsD>
4

>  <nBondsT>
0

>  <nBondsA>
11

>  <nBondsM>
15

>  <nBondsKS>
45

>  <nBondsKD>
9

>  <RNCG>
0.15

>  <RPCG>
0.09

>  <FCSP3>
0.32

>  <SZ>
36

>  <Sm>
34.25

>  <Sv>
33.45

>  <Sse>
52.3

>  <Sp>
34.41

>  <Si>
57.12

>  <MZ>
0.71

>  <Mm>
0.67

>  <Mv>
0.66

>  <Mse>
1.03

>  <Mp>
0.67

>  <Mi>
1.12

>  <NsCH3>
3

>  <NdCH2>
0

>  <NssCH2>
1

>  <NtCH>
0

>  <NdsCH>
0

>  <NaaCH>
2

>  <NsssCH>
2

>  <NddC>
0

>  <NtsC>
0

>  <NdssC>
5

>  <NaasC>
6

>  <NaaaC>
2

>  <NssssC>
1

>  <NsNH3>
0

>  <NsNH2>
1

>  <NssNH2>
0

>  <NdNH>
0

>  <NssNH>
0

>  <NaaNH>
0

>  <NtN>
0

>  <NsssNH>
0

>  <NdsN>
0

>  <NaaN>
0

>  <NsssN>
0

>  <NddsN>
0

>  <NaasN>
0

>  <NssssN>
0

>  <NsOH>
4

>  <NdO>
3

>  <NssO>
0

>  <NaaO>
0

>  <NsF>
0

>  <NsSiH3>
0

>  <NssSiH2>
0

>  <NsssSiH>
0

>  <NssssSi>
0

>  <NsPH2>
0

>  <NssPH>
0

>  <NsssP>
0

>  <NdsssP>
0

>  <NsssssP>
0

>  <NsSH>
0

>  <NdS>
0

>  <NssS>
0

>  <NaaS>
0

>  <NdssS>
0

>  <NddssS>
0

>  <NsCl>
0

>  <NsBr>
0

>  <NsI>
0

>  <fragCpx>
219.08

>  <fMF>
0.35

>  <nHBAcc>
8

>  <nHBDon>
5

>  <Kier1>
23.17

>  <Kier2>
7.8

>  <Lipinski>
1

>  <GhoseFilter>
1

>  <FilterItLogS>
-3.63

>  <VMcGowan>
289.77

>  <LabuteASA>
170.79

>  <PEOE_VSA1>
26.16

>  <PEOE_VSA2>
14.38

>  <PEOE_VSA3>
0

>  <PEOE_VSA4>
0

>  <PEOE_VSA5>
0

>  <PEOE_VSA6>
12.13

>  <PEOE_VSA7>
49.27

>  <PEOE_VSA8>
5.92

>  <PEOE_VSA9>
16.99

>  <PEOE_VSA10>
22.83

>  <PEOE_VSA11>
11.38

>  <PEOE_VSA12>
11.57

>  <PEOE_VSA13>
0

>  <SMR_VSA1>
34.81

>  <SMR_VSA2>
0

>  <SMR_VSA3>
0

>  <SMR_VSA4>
11.65

>  <SMR_VSA5>
38.83

>  <SMR_VSA6>
0

>  <SMR_VSA7>
45.72

>  <SMR_VSA8>
0

>  <SMR_VSA9>
11.5

>  <SlogP_VSA1>
5.73

>  <SlogP_VSA2>
49.42

>  <SlogP_VSA3>
16.01

>  <SlogP_VSA4>
19.77

>  <SlogP_VSA5>
33.97

>  <SlogP_VSA6>
23.47

>  <SlogP_VSA7>
0

>  <SlogP_VSA8>
10.77

>  <SlogP_VSA9>
0

>  <SlogP_VSA10>
0

>  <SlogP_VSA11>
11.5

>  <EState_VSA1>
51.99

>  <EState_VSA2>
23.12

>  <EState_VSA3>
22.08

>  <EState_VSA4>
6.92

>  <EState_VSA5>
0

>  <EState_VSA6>
25.98

>  <EState_VSA7>
0

>  <EState_VSA8>
0

>  <EState_VSA9>
5.73

>  <EState_VSA10>
34.81

>  <VSA_EState1>
0

>  <VSA_EState2>
38.33

>  <VSA_EState3>
43.53

>  <VSA_EState4>
3.74

>  <VSA_EState5>
-5.81

>  <VSA_EState6>
2.04

>  <VSA_EState7>
-0.09

>  <VSA_EState8>
4.35

>  <VSA_EState9>
0

>  <apol>
57.46

>  <bpol>
23.1

>  <nRing>
4

>  <nHRing>
0

>  <naRing>
2

>  <naHRing>
0

>  <nARing 2>
2

>  <nAHRing 2>
0

>  <nFRing>
1

>  <nFHRing>
0

>  <nFaRing>
0

>  <nFaHRing>
0

>  <nFARing 2>
1

>  <nFAHRing 2>
0

>  <nRot>
1

>  <SLogP>
1.27

>  <SMR>
106.54

>  <TopoPSA(NO)>
158.15

>  <TopoPSA>
158.15

>  <JGI1>
0.23

>  <JGI2>
0.12

>  <JGI3>
0.07

>  <JGI4>
0.07

>  <JGI5>
0.03

>  <Diameter>
11

>  <Radius>
6

>  <TMWC10>
144.07

>  <TSRW10>
67.13

>  <MW>
411.13

>  <AMW>
8.06

>  <WPath>
2046

>  <WPol>
71

>  <Zagreb1>
174

>  <Zagreb2>
224

>  <mZagreb2>
6.31

>  <yes>


>  <nAR-cont>
1

>  <nHA-cont>
0.74523694

>  <MWHBN>
0.641141322

>  <MWHBN-cont>
0

>  <TPSA-cont>
0

>  <pka_cont>
0.97

>  <yes.1>


>  <BBB_SCORE>
2.23023694

>  <MMFF94 Energy>
104.41

$$$$
Compound 2945
Actelion Java MolfileCreator 2.0

  0  0  0  0  0  0              0 V3000
M  V30 BEGIN CTAB
M  V30 COUNTS 37 37 0 0 0
M  V30 BEGIN ATOM
M  V30 1 O -3.1919 0.6999 -4.4398 0
M  V30 2 C -2.5191 -0.2386 -4.8501 0
M  V30 3 N -1.3932 -0.7803 -4.2568 0
M  V30 4 C -2.8944 -0.9667 -6.1162 0
M  V30 5 C -0.758 -0.3446 -3.0765 0
M  V30 6 C -1.0443 0.8632 -2.4412 0
M  V30 7 C 0.2315 -1.1728 -2.5363 0
M  V30 8 C -0.3594 1.2339 -1.2776 0
M  V30 9 C 0.9143 -0.8043 -1.3725 0
M  V30 10 C 0.63 0.4062 -0.729 0
M  V30 11 C 1.3326 0.8142 0.5465 0 CFG=2
M  V30 12 O 2.6405 0.2329 0.6157 0
M  V30 13 C 0.5335 0.3897 1.8035 0
M  V30 14 N 1.307 0.7219 3.0214 0
M  V30 15 C 0.6067 0.326 4.2541 0
M  V30 16 C 0.6485 -1.1876 4.47 0
M  V30 17 C 1.2777 1.0294 5.4376 0
M  V30 18 H -0.9937 -1.5992 -4.6972 0
M  V30 19 H -2.0198 -1.0768 -6.7638 0
M  V30 20 H -3.6586 -0.3997 -6.6552 0
M  V30 21 H -3.2898 -1.9548 -5.8653 0
M  V30 22 H -1.7917 1.5474 -2.8314 0
M  V30 23 H 0.4864 -2.1189 -3.0059 0
M  V30 24 H -0.6077 2.1831 -0.8069 0
M  V30 25 H 1.679 -1.4673 -0.9714 0
M  V30 26 H 1.4794 1.9015 0.5456 0
M  V30 27 H 2.8394 0.2042 1.574 0
M  V30 28 H 0.3665 -0.6922 1.7613 0
M  V30 29 H -0.4424 0.8892 1.8178 0
M  V30 30 H 1.4514 1.734 3.0388 0
M  V30 31 H -0.4374 0.6608 4.2173 0
M  V30 32 H 1.6774 -1.5643 4.4618 0
M  V30 33 H 0.0843 -1.7236 3.7008 0
M  V30 34 H 0.2048 -1.4512 5.4366 0
M  V30 35 H 1.2304 2.1187 5.3274 0
M  V30 36 H 2.3315 0.7434 5.5312 0
M  V30 37 H 0.7747 0.7722 6.3762 0
M  V30 END ATOM
M  V30 BEGIN BOND
M  V30 1 2 1 2
M  V30 2 1 2 3
M  V30 3 1 2 4
M  V30 4 1 3 5
M  V30 5 2 5 6
M  V30 6 1 5 7
M  V30 7 1 6 8
M  V30 8 2 7 9
M  V30 9 2 8 10
M  V30 10 1 10 11
M  V30 11 1 11 12
M  V30 12 1 11 13
M  V30 13 1 13 14
M  V30 14 1 14 15
M  V30 15 1 15 16
M  V30 16 1 15 17
M  V30 17 1 9 10
M  V30 18 1 3 18
M  V30 19 1 4 19
M  V30 20 1 4 20
M  V30 21 1 4 21
M  V30 22 1 6 22
M  V30 23 1 7 23
M  V30 24 1 8 24
M  V30 25 1 9 25
M  V30 26 1 11 26
M  V30 27 1 12 27
M  V30 28 1 13 28
M  V30 29 1 13 29
M  V30 30 1 14 30
M  V30 31 1 15 31
M  V30 32 1 16 32
M  V30 33 1 16 33
M  V30 34 1 16 34
M  V30 35 1 17 35
M  V30 36 1 17 36
M  V30 37 1 17 37
M  V30 END BOND
M  V30 BEGIN COLLECTION
M  V30 MDLV30/STEABS ATOMS=(1 11)
M  V30 END COLLECTION
M  V30 END CTAB
M  END
>  <Column 1>
3792

>  <level_0>
6872

>  <index>
6873

>  <Unnamed: 0>
6873

>  <NO.>
6886

>  <Name>
n-[4-[(1s)-1-hydroxy-2-(propan-2-ylamino)ethyl]phenyl]acetamide

>  <IUPAC_name>
n-[4-[(1s)-1-hydroxy-2-(propan-2-ylamino)ethyl]phenyl]acetamide

>  <SMILES>
CC(=O)Nc1ccc([C@H](O)CNC(C)C)cc1

>  <CID>
95520922

>  <logBB>


>  <BBB+/BBB->
BBB+

>  <Inchi>
InChI=1S/C13H20N2O2/c1-9(2)14-8-13(17)11-4-6-12(7-5-11)15-10(3)16/h4-7-9-13-14-17H-8H2-1-3H3-(H-15-16)/t13-/m1/s1

>  <threshold>


>  <reference>
R27|

>  <group>
C

>  <Class>
1

>  <ABC>
12.53

>  <ABCGG>
10.85

>  <nAcid>
0

>  <nBase>
1

>  <nAromAtom>
6

>  <nAromBond>
6

>  <nAtom>
37

>  <nHeavyAtom>
17

>  <nSpiro>
0

>  <nBridgehead>
0

>  <nHetero>
4

>  <nN>
2

>  <nO>
2

>  <nF>
0

>  <BalabanJ>
2.21

>  <BertzCT>
360.19

>  <nBonds>
37

>  <nBondsO>
17

>  <nBondsS>
30

>  <nBondsD>
1

>  <nBondsT>
0

>  <nBondsA>
6

>  <nBondsM>
7

>  <nBondsKS>
33

>  <nBondsKD>
4

>  <RNCG>
0.24

>  <RPCG>
0.14

>  <FCSP3>
0.46

>  <SZ>
21.33

>  <Sm>
19.67

>  <Sv>
21.36

>  <Sse>
36.87

>  <Sp>
23.26

>  <Si>
42.15

>  <MZ>
0.58

>  <Mm>
0.53

>  <Mv>
0.58

>  <Mse>
1

>  <Mp>
0.63

>  <Mi>
1.14

>  <NsCH3>
3

>  <NdCH2>
0

>  <NssCH2>
1

>  <NtCH>
0

>  <NdsCH>
0

>  <NaaCH>
4

>  <NsssCH>
2

>  <NddC>
0

>  <NtsC>
0

>  <NdssC>
1

>  <NaasC>
2

>  <NaaaC>
0

>  <NssssC>
0

>  <NsNH3>
0

>  <NsNH2>
0

>  <NssNH2>
0

>  <NdNH>
0

>  <NssNH>
2

>  <NaaNH>
0

>  <NtN>
0

>  <NsssNH>
0

>  <NdsN>
0

>  <NaaN>
0

>  <NsssN>
0

>  <NddsN>
0

>  <NaasN>
0

>  <NssssN>
0

>  <NsOH>
1

>  <NdO>
1

>  <NssO>
0

>  <NaaO>
0

>  <NsF>
0

>  <NsSiH3>
0

>  <NssSiH2>
0

>  <NsssSiH>
0

>  <NssssSi>
0

>  <NsPH2>
0

>  <NssPH>
0

>  <NsssP>
0

>  <NdsssP>
0

>  <NsssssP>
0

>  <NsSH>
0

>  <NdS>
0

>  <NssS>
0

>  <NaaS>
0

>  <NdssS>
0

>  <NddssS>
0

>  <NsCl>
0

>  <NsBr>
0

>  <NsI>
0

>  <fragCpx>
17.04

>  <fMF>
0.16

>  <nHBAcc>
3

>  <nHBDon>
3

>  <Kier1>
15.06

>  <Kier2>
7.44

>  <Lipinski>
1

>  <GhoseFilter>
1

>  <FilterItLogS>
-2.94

>  <VMcGowan>
197.67

>  <LabuteASA>
102.04

>  <PEOE_VSA1>
15.74

>  <PEOE_VSA2>
4.79

>  <PEOE_VSA3>
0

>  <PEOE_VSA4>
0

>  <PEOE_VSA5>
0

>  <PEOE_VSA6>
25.98

>  <PEOE_VSA7>
17.7

>  <PEOE_VSA8>
25.2

>  <PEOE_VSA9>
6.1

>  <PEOE_VSA10>
0

>  <PEOE_VSA11>
0

>  <PEOE_VSA12>
5.91

>  <PEOE_VSA13>
0

>  <SMR_VSA1>
9.9

>  <SMR_VSA2>
0

>  <SMR_VSA3>
5.32

>  <SMR_VSA4>
0

>  <SMR_VSA5>
32.92

>  <SMR_VSA6>
11.86

>  <SMR_VSA7>
29.83

>  <SMR_VSA8>
0

>  <SMR_VSA9>
0

>  <SlogP_VSA1>
10.63

>  <SlogP_VSA2>
23.6

>  <SlogP_VSA3>
4.79

>  <SlogP_VSA4>
0

>  <SlogP_VSA5>
32.44

>  <SlogP_VSA6>
24.27

>  <SlogP_VSA7>
0

>  <SlogP_VSA8>
0

>  <SlogP_VSA9>
0

>  <SlogP_VSA10>
5.69

>  <SlogP_VSA11>
0

>  <EState_VSA1>
6.1

>  <EState_VSA2>
5.91

>  <EState_VSA3>
12.59

>  <EState_VSA4>
11.25

>  <EState_VSA5>
6.92

>  <EState_VSA6>
12.13

>  <EState_VSA7>
25.98

>  <EState_VSA8>
10.63

>  <EState_VSA9>
0

>  <EState_VSA10>
9.9

>  <VSA_EState1>
0

>  <VSA_EState2>
10.84

>  <VSA_EState3>
15.75

>  <VSA_EState4>
1.58

>  <VSA_EState5>
-0.1

>  <VSA_EState6>
7.56

>  <VSA_EState7>
-0.52

>  <VSA_EState8>
6.06

>  <VSA_EState9>
0

>  <apol>
38.85

>  <bpol>
22.07

>  <nRing>
1

>  <nHRing>
0

>  <naRing>
1

>  <naHRing>
0

>  <nARing 2>
0

>  <nAHRing 2>
0

>  <nFRing>
0

>  <nFHRing>
0

>  <nFaRing>
0

>  <nFaHRing>
0

>  <nFARing 2>
0

>  <nFAHRing 2>
0

>  <nRot>
5

>  <SLogP>
1.68

>  <SMR>
68.84

>  <TopoPSA(NO)>
61.36

>  <TopoPSA>
61.36

>  <JGI1>
0.26

>  <JGI2>
0.08

>  <JGI3>
0.04

>  <JGI4>
0.04

>  <JGI5>
0.03

>  <Diameter>
11

>  <Radius>
6

>  <TMWC10>
102.17

>  <TSRW10>
48.6

>  <MW>
236.15

>  <AMW>
6.38

>  <WPath>
608

>  <WPol>
20

>  <Zagreb1>
78

>  <Zagreb2>
84

>  <mZagreb2>
3.86

>  <yes>


>  <nAR-cont>
0.336376

>  <nHA-cont>
0.976740822

>  <MWHBN>
0.390442671

>  <MWHBN-cont>
0.513718511

>  <TPSA-cont>
0.571669098

>  <pka_cont>
0.97

>  <yes.1>


>  <BBB_SCORE>
3.712032784

>  <MMFF94 Energy>
29.634

$$$$
Compound 2946
Actelion Java MolfileCreator 2.0

  0  0  0  0  0  0              0 V3000
M  V30 BEGIN CTAB
M  V30 COUNTS 19 19 0 0 0
M  V30 BEGIN ATOM
M  V30 1 O 0.4665 2.49 -0.8554 0
M  V30 2 C 0.7507 2.0157 0.2379 0
M  V30 3 N 0.4982 0.7313 0.6863 0
M  V30 4 C 1.4562 2.8442 1.2824 0
M  V30 5 C -0.1402 -0.3134 -0.0132 0
M  V30 6 C -0.6305 -0.1969 -1.3149 0
M  V30 7 C -0.2826 -1.5372 0.6551 0
M  V30 8 C -1.2524 -1.2839 -1.9384 0
M  V30 9 C -0.9039 -2.6232 0.0322 0
M  V30 10 C -1.3892 -2.4959 -1.266 0
M  V30 11 H 0.8054 0.5107 1.6249 0
M  V30 12 H 0.8352 2.9175 2.1798 0
M  V30 13 H 1.6393 3.8505 0.8952 0
M  V30 14 H 2.4145 2.3827 1.5372 0
M  V30 15 H -0.5459 0.7281 -1.8765 0
M  V30 16 H 0.0866 -1.6647 1.6691 0
M  V30 17 H -1.6292 -1.1778 -2.9527 0
M  V30 18 H -1.0084 -3.567 0.5609 0
M  V30 19 H -1.873 -3.3377 -1.7544 0
M  V30 END ATOM
M  V30 BEGIN BOND
M  V30 1 2 1 2
M  V30 2 1 2 3
M  V30 3 1 2 4
M  V30 4 1 3 5
M  V30 5 2 5 6
M  V30 6 1 5 7
M  V30 7 1 6 8
M  V30 8 2 7 9
M  V30 9 2 8 10
M  V30 10 1 9 10
M  V30 11 1 3 11
M  V30 12 1 4 12
M  V30 13 1 4 13
M  V30 14 1 4 14
M  V30 15 1 6 15
M  V30 16 1 7 16
M  V30 17 1 8 17
M  V30 18 1 9 18
M  V30 19 1 10 19
M  V30 END BOND
M  V30 END CTAB
M  END
>  <Column 1>
3793

>  <level_0>
6873

>  <index>
6874

>  <Unnamed: 0>
6874

>  <NO.>
6887

>  <Name>
acetanilide

>  <IUPAC_name>
n-phenylacetamide

>  <SMILES>
CC(=O)Nc1ccccc1

>  <CID>
904

>  <logBB>


>  <BBB+/BBB->
BBB+

>  <Inchi>
InChI=1S/C8H9NO/c1-7(10)9-8-5-3-2-4-6-8/h2-6H-1H3-(H-9-10)

>  <threshold>


>  <reference>
R27|

>  <group>
C

>  <Class>
1

>  <ABC>
7.29

>  <ABCGG>
6.78

>  <nAcid>
0

>  <nBase>
0

>  <nAromAtom>
6

>  <nAromBond>
6

>  <nAtom>
19

>  <nHeavyAtom>
10

>  <nSpiro>
0

>  <nBridgehead>
0

>  <nHetero>
2

>  <nN>
1

>  <nO>
1

>  <nF>
0

>  <BalabanJ>
2.13

>  <BertzCT>
217.96

>  <nBonds>
19

>  <nBondsO>
10

>  <nBondsS>
12

>  <nBondsD>
1

>  <nBondsT>
0

>  <nBondsA>
6

>  <nBondsM>
7

>  <nBondsKS>
15

>  <nBondsKD>
4

>  <RNCG>
0.38

>  <RPCG>
0.26

>  <FCSP3>
0.13

>  <SZ>
12

>  <Sm>
11.25

>  <Sv>
11.91

>  <Sse>
18.99

>  <Sp>
12.73

>  <Si>
21.37

>  <MZ>
0.63

>  <Mm>
0.59

>  <Mv>
0.63

>  <Mse>
1

>  <Mp>
0.67

>  <Mi>
1.12

>  <NsCH3>
1

>  <NdCH2>
0

>  <NssCH2>
0

>  <NtCH>
0

>  <NdsCH>
0

>  <NaaCH>
5

>  <NsssCH>
0

>  <NddC>
0

>  <NtsC>
0

>  <NdssC>
1

>  <NaasC>
1

>  <NaaaC>
0

>  <NssssC>
0

>  <NsNH3>
0

>  <NsNH2>
0

>  <NssNH2>
0

>  <NdNH>
0

>  <NssNH>
1

>  <NaaNH>
0

>  <NtN>
0

>  <NsssNH>
0

>  <NdsN>
0

>  <NaaN>
0

>  <NsssN>
0

>  <NddsN>
0

>  <NaasN>
0

>  <NssssN>
0

>  <NsOH>
0

>  <NdO>
1

>  <NssO>
0

>  <NaaO>
0

>  <NsF>
0

>  <NsSiH3>
0

>  <NssSiH2>
0

>  <NsssSiH>
0

>  <NssssSi>
0

>  <NsPH2>
0

>  <NssPH>
0

>  <NsssP>
0

>  <NdsssP>
0

>  <NsssssP>
0

>  <NsSH>
0

>  <NdS>
0

>  <NssS>
0

>  <NaaS>
0

>  <NdssS>
0

>  <NddssS>
0

>  <NsCl>
0

>  <NsBr>
0

>  <NsI>
0

>  <fragCpx>
10.02

>  <fMF>
0.32

>  <nHBAcc>
1

>  <nHBDon>
1

>  <Kier1>
8.1

>  <Kier2>
4

>  <Lipinski>
1

>  <GhoseFilter>
0

>  <FilterItLogS>
-2

>  <VMcGowan>
111.37

>  <LabuteASA>
59.87

>  <PEOE_VSA1>
5.32

>  <PEOE_VSA2>
4.79

>  <PEOE_VSA3>
0

>  <PEOE_VSA4>
0

>  <PEOE_VSA5>
0

>  <PEOE_VSA6>
18.2

>  <PEOE_VSA7>
12.13

>  <PEOE_VSA8>
12.61

>  <PEOE_VSA9>
0

>  <PEOE_VSA10>
0

>  <PEOE_VSA11>
0

>  <PEOE_VSA12>
5.91

>  <PEOE_VSA13>
0

>  <SMR_VSA1>
4.79

>  <SMR_VSA2>
0

>  <SMR_VSA3>
0

>  <SMR_VSA4>
0

>  <SMR_VSA5>
6.92

>  <SMR_VSA6>
5.32

>  <SMR_VSA7>
30.33

>  <SMR_VSA8>
0

>  <SMR_VSA9>
0

>  <SlogP_VSA1>
5.32

>  <SlogP_VSA2>
5.91

>  <SlogP_VSA3>
4.79

>  <SlogP_VSA4>
0

>  <SlogP_VSA5>
6.92

>  <SlogP_VSA6>
30.33

>  <SlogP_VSA7>
0

>  <SlogP_VSA8>
0

>  <SlogP_VSA9>
0

>  <SlogP_VSA10>
5.69

>  <SlogP_VSA11>
0

>  <EState_VSA1>
0

>  <EState_VSA2>
5.91

>  <EState_VSA3>
0

>  <EState_VSA4>
5.69

>  <EState_VSA5>
6.92

>  <EState_VSA6>
0

>  <EState_VSA7>
30.33

>  <EState_VSA8>
5.32

>  <EState_VSA9>
0

>  <EState_VSA10>
4.79

>  <VSA_EState1>
0

>  <VSA_EState2>
10.5

>  <VSA_EState3>
2.67

>  <VSA_EState4>
0.84

>  <VSA_EState5>
-0.04

>  <VSA_EState6>
9.37

>  <VSA_EState7>
0

>  <VSA_EState8>
1.49

>  <VSA_EState9>
0

>  <apol>
21.26

>  <bpol>
10.47

>  <nRing>
1

>  <nHRing>
0

>  <naRing>
1

>  <naHRing>
0

>  <nARing 2>
0

>  <nAHRing 2>
0

>  <nFRing>
0

>  <nFHRing>
0

>  <nFaRing>
0

>  <nFaHRing>
0

>  <nFARing 2>
0

>  <nFAHRing 2>
0

>  <nRot>
1

>  <SLogP>
1.65

>  <SMR>
40.75

>  <TopoPSA(NO)>
29.1

>  <TopoPSA>
29.1

>  <JGI1>
0.2

>  <JGI2>
0.04

>  <JGI3>
0.05

>  <JGI4>
0.04

>  <JGI5>
0.02

>  <Diameter>
6

>  <Radius>
3

>  <TMWC10>
81.78

>  <TSRW10>
38.52

>  <MW>
135.07

>  <AMW>
7.11

>  <WPath>
126

>  <WPol>
9

>  <Zagreb1>
44

>  <Zagreb2>
46

>  <mZagreb2>
2.33

>  <yes>


>  <nAR-cont>
0.336376

>  <nHA-cont>
0.645914733

>  <MWHBN>
0.172087984

>  <MWHBN-cont>
0.977121975

>  <TPSA-cont>
0.79686393

>  <pka_cont>
0.97

>  <yes.1>


>  <BBB_SCORE>
4.526701555

>  <MMFF94 Energy>
-0.0119

$$$$
Compound 2947
Actelion Java MolfileCreator 2.0

  0  0  0  0  0  0              0 V3000
M  V30 BEGIN CTAB
M  V30 COUNTS 32 31 0 0 0
M  V30 BEGIN ATOM
M  V30 1 O 0.4646 -0.7745 3.6445 0
M  V30 2 C 0.2756 0.3519 3.2252 0
M  V30 3 O 0.0394 1.3815 4.0588 0
M  V30 4 C 0.2663 0.7973 1.7874 0
M  V30 5 C 0.6177 -0.3579 0.8525 0 CFG=1
M  V30 6 O -0.5471 -1.2096 0.7359 0
M  V30 7 C 1.1725 0.0759 -0.5321 0
M  V30 8 C -0.2917 -2.503 0.3828 0
M  V30 9 N 0.2796 0.9517 -1.4583 0 CHG=1
M  V30 10 O 0.7845 -2.8947 -0.0415 0
M  V30 11 C -1.5221 -3.3424 0.5277 0
M  V30 12 C -1.1389 0.4167 -1.5888 0
M  V30 13 C 0.922 0.9061 -2.8591 0
M  V30 14 C 0.2427 2.4128 -1.029 0
M  V30 15 H 0.0597 0.9935 4.9622 0
M  V30 16 H -0.7391 1.1761 1.5793 0
M  V30 17 H 1.0082 1.5975 1.6948 0
M  V30 18 H 1.4185 -0.9421 1.3283 0
M  V30 19 H 2.1081 0.6324 -0.3981 0
M  V30 20 H 1.4034 -0.8166 -1.1219 0
M  V30 21 H -1.9208 -3.2448 1.5408 0
M  V30 22 H -2.2674 -3.0352 -0.2098 0
M  V30 23 H -1.2655 -4.3923 0.3601 0
M  V30 24 H -1.6538 0.9911 -2.3655 0
M  V30 25 H -1.0888 -0.6379 -1.8723 0
M  V30 26 H -1.6586 0.5524 -0.6377 0
M  V30 27 H 0.9146 -0.1299 -3.2106 0
M  V30 28 H 0.3345 1.5375 -3.5329 0
M  V30 29 H 1.9464 1.2815 -2.7776 0
M  V30 30 H -0.2321 2.9963 -1.8243 0
M  V30 31 H -0.3483 2.507 -0.1184 0
M  V30 32 H 1.2685 2.7557 -0.8681 0
M  V30 END ATOM
M  V30 BEGIN BOND
M  V30 1 2 1 2
M  V30 2 1 2 3
M  V30 3 1 2 4
M  V30 4 1 4 5
M  V30 5 1 5 6
M  V30 6 1 5 7
M  V30 7 1 6 8
M  V30 8 1 7 9
M  V30 9 2 8 10
M  V30 10 1 8 11
M  V30 11 1 9 12
M  V30 12 1 9 13
M  V30 13 1 9 14
M  V30 14 1 3 15
M  V30 15 1 4 16
M  V30 16 1 4 17
M  V30 17 1 5 18
M  V30 18 1 7 19
M  V30 19 1 7 20
M  V30 20 1 11 21
M  V30 21 1 11 22
M  V30 22 1 11 23
M  V30 23 1 12 24
M  V30 24 1 12 25
M  V30 25 1 12 26
M  V30 26 1 13 27
M  V30 27 1 13 28
M  V30 28 1 13 29
M  V30 29 1 14 30
M  V30 30 1 14 31
M  V30 31 1 14 32
M  V30 END BOND
M  V30 BEGIN COLLECTION
M  V30 MDLV30/STEABS ATOMS=(1 5)
M  V30 END COLLECTION
M  V30 END CTAB
M  END
>  <Column 1>
3794

>  <level_0>
6910

>  <index>
6911

>  <Unnamed: 0>
6911

>  <NO.>
6924

>  <Name>
o-acetylcarnitinium

>  <IUPAC_name>
[(2r)-2-acetyloxy-3-carboxypropyl]-trimethylazanium

>  <SMILES>
CC(=O)O[C@H](CC(=O)O)C[N+](C)(C)C

>  <CID>
439756

>  <logBB>


>  <BBB+/BBB->
BBB-

>  <Inchi>
InChI=1S/C9H17NO4/c1-7(11)14-8(5-9(12)13)6-10(2-3)4/h8H-5-6H2-1-4H3/p+1/t8-/m1/s1

>  <threshold>


>  <reference>
R27|

>  <group>
C

>  <Class>
-1

>  <ABC>
10.11

>  <ABCGG>
10.09

>  <nAcid>
1

>  <nBase>
1

>  <nAromAtom>
0

>  <nAromBond>
0

>  <nAtom>
32

>  <nHeavyAtom>
14

>  <nSpiro>
0

>  <nBridgehead>
0

>  <nHetero>
5

>  <nN>
1

>  <nO>
4

>  <nF>
0

>  <BalabanJ>
4.11

>  <BertzCT>
203.34

>  <nBonds>
31

>  <nBondsO>
13

>  <nBondsS>
29

>  <nBondsD>
2

>  <nBondsT>
0

>  <nBondsA>
0

>  <nBondsM>
2

>  <nBondsKS>
29

>  <nBondsKD>
2

>  <RNCG>
0.27

>  <RPCG>
0.11

>  <FCSP3>
0.78

>  <SZ>
18.5

>  <Sm>
17

>  <Sv>
17.49

>  <Sse>
32.48

>  <Sp>
18.77

>  <Si>
36.87

>  <MZ>
0.58

>  <Mm>
0.53

>  <Mv>
0.55

>  <Mse>
1.01

>  <Mp>
0.59

>  <Mi>
1.15

>  <NsCH3>
4

>  <NdCH2>
0

>  <NssCH2>
2

>  <NtCH>
0

>  <NdsCH>
0

>  <NaaCH>
0

>  <NsssCH>
1

>  <NddC>
0

>  <NtsC>
0

>  <NdssC>
2

>  <NaasC>
0

>  <NaaaC>
0

>  <NssssC>
0

>  <NsNH3>
0

>  <NsNH2>
0

>  <NssNH2>
0

>  <NdNH>
0

>  <NssNH>
0

>  <NaaNH>
0

>  <NtN>
0

>  <NsssNH>
0

>  <NdsN>
0

>  <NaaN>
0

>  <NsssN>
0

>  <NddsN>
0

>  <NaasN>
0

>  <NssssN>
1

>  <NsOH>
1

>  <NdO>
2

>  <NssO>
1

>  <NaaO>
0

>  <NsF>
0

>  <NsSiH3>
0

>  <NssSiH2>
0

>  <NsssSiH>
0

>  <NssssSi>
0

>  <NsPH2>
0

>  <NssPH>
0

>  <NsssP>
0

>  <NdsssP>
0

>  <NsssssP>
0

>  <NsSH>
0

>  <NdS>
0

>  <NssS>
0

>  <NaaS>
0

>  <NdssS>
0

>  <NddssS>
0

>  <NsCl>
0

>  <NsBr>
0

>  <NsI>
0

>  <fragCpx>
13.05

>  <fMF>
0

>  <nHBAcc>
3

>  <nHBDon>
1

>  <Kier1>
14

>  <Kier2>
5.78

>  <Lipinski>
1

>  <GhoseFilter>
1

>  <FilterItLogS>
-1.41

>  <VMcGowan>
164.68

>  <LabuteASA>
83.86

>  <PEOE_VSA1>
14.33

>  <PEOE_VSA2>
9.59

>  <PEOE_VSA3>
0

>  <PEOE_VSA4>
0

>  <PEOE_VSA5>
0

>  <PEOE_VSA6>
0

>  <PEOE_VSA7>
0

>  <PEOE_VSA8>
6.92

>  <PEOE_VSA9>
27.56

>  <PEOE_VSA10>
6.54

>  <PEOE_VSA11>
6.1

>  <PEOE_VSA12>
0

>  <PEOE_VSA13>
0

>  <SMR_VSA1>
23.92

>  <SMR_VSA2>
0

>  <SMR_VSA3>
0

>  <SMR_VSA4>
0

>  <SMR_VSA5>
19.45

>  <SMR_VSA6>
27.69

>  <SMR_VSA7>
0

>  <SMR_VSA8>
0

>  <SMR_VSA9>
0

>  <SlogP_VSA1>
0

>  <SlogP_VSA2>
55.32

>  <SlogP_VSA3>
14.33

>  <SlogP_VSA4>
0

>  <SlogP_VSA5>
13.34

>  <SlogP_VSA6>
0

>  <SlogP_VSA7>
0

>  <SlogP_VSA8>
0

>  <SlogP_VSA9>
0

>  <SlogP_VSA10>
0

>  <SlogP_VSA11>
0

>  <EState_VSA1>
18.04

>  <EState_VSA2>
6.42

>  <EState_VSA3>
11.03

>  <EState_VSA4>
0

>  <EState_VSA5>
6.92

>  <EState_VSA6>
0

>  <EState_VSA7>
21.14

>  <EState_VSA8>
0

>  <EState_VSA9>
9.84

>  <EState_VSA10>
9.59

>  <VSA_EState1>
5.46

>  <VSA_EState2>
21.18

>  <VSA_EState3>
8.6

>  <VSA_EState4>
0

>  <VSA_EState5>
-1.39

>  <VSA_EState6>
0

>  <VSA_EState7>
-0.69

>  <VSA_EState8>
1.77

>  <VSA_EState9>
5.75

>  <apol>
31.34

>  <bpol>
23.81

>  <nRing>
0

>  <nHRing>
0

>  <naRing>
0

>  <naHRing>
0

>  <nARing 2>
0

>  <nAHRing 2>
0

>  <nFRing>
0

>  <nFHRing>
0

>  <nFaRing>
0

>  <nFaHRing>
0

>  <nFARing 2>
0

>  <nFAHRing 2>
0

>  <nRot>
5

>  <SLogP>
0.1

>  <SMR>
50.71

>  <TopoPSA(NO)>
63.6

>  <TopoPSA>
63.6

>  <JGI1>
0.46

>  <JGI2>
0.05

>  <JGI3>
0.11

>  <JGI4>
0.04

>  <JGI5>
0.06

>  <Diameter>
6

>  <Radius>
3

>  <TMWC10>
92.42

>  <TSRW10>
44.36

>  <MW>
204.12

>  <AMW>
6.38

>  <WPath>
322

>  <WPol>
13

>  <Zagreb1>
62

>  <Zagreb2>
62

>  <mZagreb2>
3.04

>  <yes>


>  <nAR-cont>
0.336376

>  <nHA-cont>
0.887625254

>  <MWHBN>
0.279973684

>  <MWHBN-cont>
0.896148458

>  <TPSA-cont>
0.556032507

>  <pka_cont>
0.97

>  <yes.1>


>  <BBB_SCORE>
4.165288955

>  <MMFF94 Energy>
-9.3881

$$$$
Compound 2948
Actelion Java MolfileCreator 2.0

  0  0  0  0  0  0              0 V3000
M  V30 BEGIN CTAB
M  V30 COUNTS 53 57 0 0 0
M  V30 BEGIN ATOM
M  V30 1 O -2.915 -1.1328 3.2392 0
M  V30 2 C -3.0853 -2.1498 2.5793 0
M  V30 3 O -2.9937 -2.2859 1.2002 0
M  V30 4 C -3.4807 -3.4732 3.1647 0
M  V30 5 C -2.5041 -1.14 0.5907 0
M  V30 6 C -1.1619 -0.8323 0.6169 0
M  V30 7 C -3.3591 -0.3407 -0.1707 0
M  V30 8 O -0.1442 -1.6049 1.1315 0
M  V30 9 C -0.6838 0.3044 -0.0113 0
M  V30 10 C -2.8425 0.748 -0.901 0
M  V30 11 C 1.0415 -1.0716 0.4236 0 CFG=2
M  V30 12 C -1.4798 1.0696 -0.8375 0
M  V30 13 C 0.7799 0.4515 0.2459 0 CFG=1
M  V30 14 C 1.2303 -1.8891 -0.8851 0 CFG=2
M  V30 15 C -0.8365 2.0828 -1.7379 0
M  V30 16 C 1.4878 1.164 -0.9203 0 CFG=2
M  V30 17 C 1.0084 1.1421 1.6244 0
M  V30 18 O 2.2151 -2.9118 -0.6028 0
M  V30 19 C 1.721 -1.0867 -2.0535 0
M  V30 20 C 0.6584 2.4136 -1.4163 0 CFG=1
M  V30 21 C 1.8284 0.2474 -2.0769 0
M  V30 22 C 1.2486 2.6482 1.6741 0
M  V30 23 C 2.0395 -4.1134 -1.2126 0
M  V30 24 N 0.8665 3.6073 -0.5613 0
M  V30 25 C 0.3468 3.5105 0.8033 0
M  V30 26 O 1.1568 -4.3924 -2.0106 0
M  V30 27 C 3.1104 -5.0653 -0.7746 0
M  V30 28 C 0.4137 4.8453 -1.2004 0
M  V30 29 H -4.4833 -3.7439 2.8245 0
M  V30 30 H -2.7555 -4.2383 2.876 0
M  V30 31 H -3.4864 -3.3991 4.256 0
M  V30 32 H -4.4157 -0.5836 -0.2384 0
M  V30 33 H -3.5099 1.3201 -1.5422 0
M  V30 34 H 1.9001 -1.2483 1.084 0
M  V30 35 H 0.2812 -2.3641 -1.1631 0
M  V30 36 H -1.4528 2.9868 -1.7632 0
M  V30 37 H -0.8679 1.6683 -2.7551 0
M  V30 38 H 2.4693 1.5202 -0.5747 0
M  V30 39 H 1.8912 0.6921 2.0996 0
M  V30 40 H 0.1758 0.9202 2.3068 0
M  V30 41 H 1.9846 -1.6507 -2.9462 0
M  V30 42 H 1.106 2.6983 -2.3804 0
M  V30 43 H 2.2181 0.7182 -2.9785 0
M  V30 44 H 1.1243 2.965 2.7187 0
M  V30 45 H 2.3014 2.8579 1.4409 0
M  V30 46 H 0.3681 4.5114 1.2562 0
M  V30 47 H -0.6995 3.1914 0.8463 0
M  V30 48 H 4.0887 -4.6906 -1.0855 0
M  V30 49 H 3.0731 -5.1919 0.3103 0
M  V30 50 H 2.9432 -6.0394 -1.243 0
M  V30 51 H 0.8049 5.7141 -0.6582 0
M  V30 52 H 0.799 4.9278 -2.2226 0
M  V30 53 H -0.6767 4.9347 -1.2302 0
M  V30 END ATOM
M  V30 BEGIN BOND
M  V30 1 2 1 2
M  V30 2 1 2 3
M  V30 3 1 2 4
M  V30 4 1 3 5
M  V30 5 2 5 6
M  V30 6 1 5 7
M  V30 7 1 6 8
M  V30 8 1 6 9
M  V30 9 2 7 10
M  V30 10 1 8 11
M  V30 11 2 9 12
M  V30 12 1 9 13
M  V30 13 1 11 14
M  V30 14 1 12 15
M  V30 15 1 13 16
M  V30 16 1 13 17
M  V30 17 1 14 18
M  V30 18 1 14 19
M  V30 19 1 15 20
M  V30 20 1 16 21
M  V30 21 1 17 22
M  V30 22 1 18 23
M  V30 23 1 20 24
M  V30 24 1 22 25
M  V30 25 2 23 26
M  V30 26 1 23 27
M  V30 27 1 24 28
M  V30 28 1 10 12
M  V30 29 1 11 13
M  V30 30 1 16 20
M  V30 31 2 19 21
M  V30 32 1 24 25
M  V30 33 1 4 29
M  V30 34 1 4 30
M  V30 35 1 4 31
M  V30 36 1 7 32
M  V30 37 1 10 33
M  V30 38 1 11 34
M  V30 39 1 14 35
M  V30 40 1 15 36
M  V30 41 1 15 37
M  V30 42 1 16 38
M  V30 43 1 17 39
M  V30 44 1 17 40
M  V30 45 1 19 41
M  V30 46 1 20 42
M  V30 47 1 21 43
M  V30 48 1 22 44
M  V30 49 1 22 45
M  V30 50 1 25 46
M  V30 51 1 25 47
M  V30 52 1 27 48
M  V30 53 1 27 49
M  V30 54 1 27 50
M  V30 55 1 28 51
M  V30 56 1 28 52
M  V30 57 1 28 53
M  V30 END BOND
M  V30 BEGIN COLLECTION
M  V30 MDLV30/STEABS ATOMS=(5 11 13 14 16 20)
M  V30 END COLLECTION
M  V30 END CTAB
M  END
>  <Column 1>
3795

>  <level_0>
6917

>  <index>
6918

>  <Unnamed: 0>
6918

>  <NO.>
6931

>  <Name>


>  <IUPAC_name>


>  <SMILES>
CC(=O)Oc1ccc2c3c1O[C@H]1[C@H](OC(C)=O)C=C[C@H]4[C@H](C2)N(C)CCC[C@@]341

>  <CID>


>  <logBB>


>  <BBB+/BBB->
BBB+

>  <Inchi>
InChI=1S/C22H25NO5/c1-12(24)26-17-7-5-14-11-16-15-6-8-18(27-13(2)25)21-22(15-9-4-10-23(16)3)19(14)20(17)28-21/h5-8-15-16-18-21H-4-9-11H2-1-3H3/t15--16--18+-21--22-/m0/s1

>  <threshold>


>  <reference>
R27|

>  <group>
C

>  <Class>
1

>  <ABC>
22.75

>  <ABCGG>
17.35

>  <nAcid>
0

>  <nBase>
1

>  <nAromAtom>
6

>  <nAromBond>
6

>  <nAtom>
53

>  <nHeavyAtom>
28

>  <nSpiro>
1

>  <nBridgehead>
2

>  <nHetero>
6

>  <nN>
1

>  <nO>
5

>  <nF>
0

>  <BalabanJ>
1.56

>  <BertzCT>
893.16

>  <nBonds>
57

>  <nBondsO>
32

>  <nBondsS>
48

>  <nBondsD>
3

>  <nBondsT>
0

>  <nBondsA>
6

>  <nBondsM>
9

>  <nBondsKS>
51

>  <nBondsKD>
6

>  <RNCG>
0.19

>  <RPCG>
0.12

>  <FCSP3>
0.55

>  <SZ>
34

>  <Sm>
31.92

>  <Sv>
33.1

>  <Sse>
53.41

>  <Sp>
35.04

>  <Si>
59.53

>  <MZ>
0.64

>  <Mm>
0.6

>  <Mv>
0.62

>  <Mse>
1.01

>  <Mp>
0.66

>  <Mi>
1.12

>  <NsCH3>
3

>  <NdCH2>
0

>  <NssCH2>
4

>  <NtCH>
0

>  <NdsCH>
2

>  <NaaCH>
2

>  <NsssCH>
4

>  <NddC>
0

>  <NtsC>
0

>  <NdssC>
2

>  <NaasC>
4

>  <NaaaC>
0

>  <NssssC>
1

>  <NsNH3>
0

>  <NsNH2>
0

>  <NssNH2>
0

>  <NdNH>
0

>  <NssNH>
0

>  <NaaNH>
0

>  <NtN>
0

>  <NsssNH>
0

>  <NdsN>
0

>  <NaaN>
0

>  <NsssN>
1

>  <NddsN>
0

>  <NaasN>
0

>  <NssssN>
0

>  <NsOH>
0

>  <NdO>
2

>  <NssO>
3

>  <NaaO>
0

>  <NsF>
0

>  <NsSiH3>
0

>  <NssSiH2>
0

>  <NsssSiH>
0

>  <NssssSi>
0

>  <NsPH2>
0

>  <NssPH>
0

>  <NsssP>
0

>  <NdsssP>
0

>  <NsssssP>
0

>  <NsSH>
0

>  <NdS>
0

>  <NssS>
0

>  <NaaS>
0

>  <NdssS>
0

>  <NddssS>
0

>  <NsCl>
0

>  <NsBr>
0

>  <NsI>
0

>  <fragCpx>
268.06

>  <fMF>
0.36

>  <nHBAcc>
6

>  <nHBDon>
0

>  <Kier1>
19.93

>  <Kier2>
7.3

>  <Lipinski>
1

>  <GhoseFilter>
1

>  <FilterItLogS>
-3.29

>  <VMcGowan>
280.07

>  <LabuteASA>
163.98

>  <PEOE_VSA1>
19.11

>  <PEOE_VSA2>
9.59

>  <PEOE_VSA3>
0

>  <PEOE_VSA4>
0

>  <PEOE_VSA5>
0

>  <PEOE_VSA6>
12.14

>  <PEOE_VSA7>
50.56

>  <PEOE_VSA8>
36.79

>  <PEOE_VSA9>
0

>  <PEOE_VSA10>
6.1

>  <PEOE_VSA11>
17.6

>  <PEOE_VSA12>
0

>  <PEOE_VSA13>
0

>  <SMR_VSA1>
23.8

>  <SMR_VSA2>
0

>  <SMR_VSA3>
4.9

>  <SMR_VSA4>
5.92

>  <SMR_VSA5>
56.77

>  <SMR_VSA6>
13.59

>  <SMR_VSA7>
35.41

>  <SMR_VSA8>
0

>  <SMR_VSA9>
11.5

>  <SlogP_VSA1>
9.47

>  <SlogP_VSA2>
48.68

>  <SlogP_VSA3>
26.16

>  <SlogP_VSA4>
5.92

>  <SlogP_VSA5>
37.82

>  <SlogP_VSA6>
24.28

>  <SlogP_VSA7>
0

>  <SlogP_VSA8>
0

>  <SlogP_VSA9>
0

>  <SlogP_VSA10>
0

>  <SlogP_VSA11>
11.5

>  <EState_VSA1>
6.1

>  <EState_VSA2>
29.38

>  <EState_VSA3>
17.54

>  <EState_VSA4>
31.37

>  <EState_VSA5>
19.41

>  <EState_VSA6>
0

>  <EState_VSA7>
12.14

>  <EState_VSA8>
24.09

>  <EState_VSA9>
14.21

>  <EState_VSA10>
9.59

>  <VSA_EState1>
17.62

>  <VSA_EState2>
25.85

>  <VSA_EState3>
0

>  <VSA_EState4>
2.15

>  <VSA_EState5>
0.71

>  <VSA_EState6>
4.29

>  <VSA_EState7>
6.41

>  <VSA_EState8>
3.86

>  <VSA_EState9>
2.19

>  <apol>
58.52

>  <bpol>
33.73

>  <nRing>
5

>  <nHRing>
2

>  <naRing>
1

>  <naHRing>
0

>  <nARing 2>
4

>  <nAHRing 2>
2

>  <nFRing>
1

>  <nFHRing>
1

>  <nFaRing>
0

>  <nFaHRing>
0

>  <nFARing 2>
1

>  <nFAHRing 2>
1

>  <nRot>
2

>  <SLogP>
2.38

>  <SMR>
101.39

>  <TopoPSA(NO)>
65.07

>  <TopoPSA>
65.07

>  <JGI1>
0.22

>  <JGI2>
0.08

>  <JGI3>
0.05

>  <JGI4>
0.05

>  <JGI5>
0.03

>  <Diameter>
10

>  <Radius>
6

>  <TMWC10>
140.63

>  <TSRW10>
79.51

>  <MW>
383.17

>  <AMW>
7.23

>  <WPath>
1686

>  <WPol>
61

>  <Zagreb1>
164

>  <Zagreb2>
207

>  <mZagreb2>
5.88

>  <yes>


>  <nAR-cont>
0.199399

>  <nHA-cont>
0.82432561

>  <MWHBN>
0.30651766

>  <MWHBN-cont>
0.820838718

>  <TPSA-cont>
0.545770994

>  <pka_cont>
0.97

>  <yes.1>


>  <BBB_SCORE>
3.831524675

>  <MMFF94 Energy>
112.39

$$$$
Compound 2949
Actelion Java MolfileCreator 2.0

  0  0  0  0  0  0              0 V3000
M  V30 BEGIN CTAB
M  V30 COUNTS 37 37 0 0 0
M  V30 BEGIN ATOM
M  V30 1 O 4.3051 2.1116 -3.4429 0
M  V30 2 C 3.4492 1.3433 -3.0347 0
M  V30 3 O 2.7036 0.6058 -3.8729 0
M  V30 4 C 3.1269 1.1418 -1.6049 0
M  V30 5 C 3.8045 1.8903 -0.6336 0
M  V30 6 C 2.1536 0.2155 -1.201 0
M  V30 7 O 4.7691 2.8179 -0.9283 0
M  V30 8 C 3.5147 1.7187 0.7176 0
M  V30 9 C 1.8562 0.0285 0.1607 0
M  V30 10 C 2.5454 0.795 1.1131 0
M  V30 11 C 0.7908 -0.9487 0.607 0 CFG=2
M  V30 12 O 0.7565 -2.0795 -0.2703 0
M  V30 13 C -0.6145 -0.2967 0.6411 0
M  V30 14 N -1.6225 -1.3226 0.9781 0
M  V30 15 C -3.03 -0.8762 0.9298 0
M  V30 16 C -3.3084 0.265 1.9216 0
M  V30 17 C -3.8791 -2.0963 1.3377 0
M  V30 18 C -3.4455 -0.4537 -0.4888 0
M  V30 19 H 3.0298 0.835 -4.7678 0
M  V30 20 H 1.623 -0.3775 -1.9446 0
M  V30 21 H 4.9023 2.8355 -1.901 0
M  V30 22 H 4.0471 2.3045 1.4628 0
M  V30 23 H 2.3362 0.6753 2.1744 0
M  V30 24 H 1.0458 -1.3377 1.6007 0
M  V30 25 H -0.1522 -2.4313 -0.1738 0
M  V30 26 H -0.8266 0.1175 -0.3501 0
M  V30 27 H -0.6215 0.5219 1.3686 0
M  V30 28 H -1.4232 -1.6776 1.9161 0
M  V30 29 H -2.7965 1.19 1.6354 0
M  V30 30 H -4.3803 0.4913 1.9664 0
M  V30 31 H -2.9862 2.0E-4 2.9354 0
M  V30 32 H -3.6374 -2.4336 2.3528 0
M  V30 33 H -4.9491 -1.8578 1.3183 0
M  V30 34 H -3.7181 -2.9411 0.6573 0
M  V30 35 H -2.9574 0.4748 -0.8024 0
M  V30 36 H -3.2006 -1.23 -1.223 0
M  V30 37 H -4.5268 -0.2797 -0.5439 0
M  V30 END ATOM
M  V30 BEGIN BOND
M  V30 1 2 1 2
M  V30 2 1 2 3
M  V30 3 1 2 4
M  V30 4 2 4 5
M  V30 5 1 4 6
M  V30 6 1 5 7
M  V30 7 1 5 8
M  V30 8 2 6 9
M  V30 9 2 8 10
M  V30 10 1 9 11
M  V30 11 1 11 12
M  V30 12 1 11 13
M  V30 13 1 13 14
M  V30 14 1 14 15
M  V30 15 1 15 16
M  V30 16 1 15 17
M  V30 17 1 15 18
M  V30 18 1 9 10
M  V30 19 1 3 19
M  V30 20 1 6 20
M  V30 21 1 7 21
M  V30 22 1 8 22
M  V30 23 1 10 23
M  V30 24 1 11 24
M  V30 25 1 12 25
M  V30 26 1 13 26
M  V30 27 1 13 27
M  V30 28 1 14 28
M  V30 29 1 16 29
M  V30 30 1 16 30
M  V30 31 1 16 31
M  V30 32 1 17 32
M  V30 33 1 17 33
M  V30 34 1 17 34
M  V30 35 1 18 35
M  V30 36 1 18 36
M  V30 37 1 18 37
M  V30 END BOND
M  V30 BEGIN COLLECTION
M  V30 MDLV30/STEABS ATOMS=(1 11)
M  V30 END COLLECTION
M  V30 END CTAB
M  END
>  <Column 1>
3796

>  <level_0>
6946

>  <index>
6947

>  <Unnamed: 0>
6947

>  <NO.>
6960

>  <Name>
5-[(1s)-2-(tert-butylamino)-1-hydroxyethyl]-2-hydroxybenzoic acid

>  <IUPAC_name>
5-[(1s)-2-(tert-butylamino)-1-hydroxyethyl]-2-hydroxybenzoic acid

>  <SMILES>
CC(C)(C)NC[C@@H](O)c1ccc(O)c(C(=O)O)c1

>  <CID>
141092574

>  <logBB>


>  <BBB+/BBB->
BBB+

>  <Inchi>
InChI=1S/C13H19NO4/c1-13(2-3)14-7-11(16)8-4-5-10(15)9(6-8)12(17)18/h4-6-11-14-16H-7H2-1-3H3-(H-17-18)/t11-/m1/s1

>  <threshold>


>  <reference>
R27|

>  <group>
C

>  <Class>
1

>  <ABC>
13.52

>  <ABCGG>
12.23

>  <nAcid>
1

>  <nBase>
1

>  <nAromAtom>
6

>  <nAromBond>
6

>  <nAtom>
37

>  <nHeavyAtom>
18

>  <nSpiro>
0

>  <nBridgehead>
0

>  <nHetero>
5

>  <nN>
1

>  <nO>
4

>  <nF>
0

>  <BalabanJ>
2.46

>  <BertzCT>
437.11

>  <nBonds>
37

>  <nBondsO>
18

>  <nBondsS>
30

>  <nBondsD>
1

>  <nBondsT>
0

>  <nBondsA>
6

>  <nBondsM>
7

>  <nBondsKS>
33

>  <nBondsKD>
4

>  <RNCG>
0.23

>  <RPCG>
0.15

>  <FCSP3>
0.46

>  <SZ>
22.67

>  <Sm>
21.09

>  <Sv>
21.76

>  <Sse>
37.42

>  <Sp>
23.17

>  <Si>
42.07

>  <MZ>
0.61

>  <Mm>
0.57

>  <Mv>
0.59

>  <Mse>
1.01

>  <Mp>
0.63

>  <Mi>
1.14

>  <NsCH3>
3

>  <NdCH2>
0

>  <NssCH2>
1

>  <NtCH>
0

>  <NdsCH>
0

>  <NaaCH>
3

>  <NsssCH>
1

>  <NddC>
0

>  <NtsC>
0

>  <NdssC>
1

>  <NaasC>
3

>  <NaaaC>
0

>  <NssssC>
1

>  <NsNH3>
0

>  <NsNH2>
0

>  <NssNH2>
0

>  <NdNH>
0

>  <NssNH>
1

>  <NaaNH>
0

>  <NtN>
0

>  <NsssNH>
0

>  <NdsN>
0

>  <NaaN>
0

>  <NsssN>
0

>  <NddsN>
0

>  <NaasN>
0

>  <NssssN>
0

>  <NsOH>
3

>  <NdO>
1

>  <NssO>
0

>  <NaaO>
0

>  <NsF>
0

>  <NsSiH3>
0

>  <NssSiH2>
0

>  <NsssSiH>
0

>  <NssssSi>
0

>  <NsPH2>
0

>  <NssPH>
0

>  <NsssP>
0

>  <NdsssP>
0

>  <NsssssP>
0

>  <NsSH>
0

>  <NdS>
0

>  <NssS>
0

>  <NaaS>
0

>  <NdssS>
0

>  <NddssS>
0

>  <NsCl>
0

>  <NsBr>
0

>  <NsI>
0

>  <fragCpx>
18.05

>  <fMF>
0.16

>  <nHBAcc>
4

>  <nHBDon>
4

>  <Kier1>
16.06

>  <Kier2>
6.44

>  <Lipinski>
1

>  <GhoseFilter>
1

>  <FilterItLogS>
-1.89

>  <VMcGowan>
199.43

>  <LabuteASA>
106.08

>  <PEOE_VSA1>
20.64

>  <PEOE_VSA2>
0

>  <PEOE_VSA3>
4.79

>  <PEOE_VSA4>
0

>  <PEOE_VSA5>
0

>  <PEOE_VSA6>
6.07

>  <PEOE_VSA7>
38.47

>  <PEOE_VSA8>
12.08

>  <PEOE_VSA9>
6.1

>  <PEOE_VSA10>
11.31

>  <PEOE_VSA11>
0

>  <PEOE_VSA12>
0

>  <PEOE_VSA13>
0

>  <SMR_VSA1>
20.11

>  <SMR_VSA2>
0

>  <SMR_VSA3>
5.32

>  <SMR_VSA4>
0

>  <SMR_VSA5>
32.41

>  <SMR_VSA6>
6.54

>  <SMR_VSA7>
29.33

>  <SMR_VSA8>
0

>  <SMR_VSA9>
5.75

>  <SlogP_VSA1>
5.32

>  <SlogP_VSA2>
33.37

>  <SlogP_VSA3>
0

>  <SlogP_VSA4>
0

>  <SlogP_VSA5>
42.8

>  <SlogP_VSA6>
18.2

>  <SlogP_VSA7>
0

>  <SlogP_VSA8>
0

>  <SlogP_VSA9>
0

>  <SlogP_VSA10>
0

>  <SlogP_VSA11>
5.75

>  <EState_VSA1>
12.07

>  <EState_VSA2>
16.85

>  <EState_VSA3>
12.11

>  <EState_VSA4>
0

>  <EState_VSA5>
18.2

>  <EState_VSA6>
0

>  <EState_VSA7>
20.77

>  <EState_VSA8>
5.32

>  <EState_VSA9>
5.11

>  <EState_VSA10>
15.01

>  <VSA_EState1>
0

>  <VSA_EState2>
10.86

>  <VSA_EState3>
31.31

>  <VSA_EState4>
0.12

>  <VSA_EState5>
-1.52

>  <VSA_EState6>
4.07

>  <VSA_EState7>
-0.82

>  <VSA_EState8>
6.23

>  <VSA_EState9>
0

>  <apol>
38.69

>  <bpol>
20.5

>  <nRing>
1

>  <nHRing>
0

>  <naRing>
1

>  <naHRing>
0

>  <nARing 2>
0

>  <nAHRing 2>
0

>  <nFRing>
0

>  <nFHRing>
0

>  <nFaRing>
0

>  <nFaHRing>
0

>  <nFARing 2>
0

>  <nFAHRing 2>
0

>  <nRot>
4

>  <SLogP>
1.51

>  <SMR>
67.78

>  <TopoPSA(NO)>
89.79

>  <TopoPSA>
89.79

>  <JGI1>
0.33

>  <JGI2>
0.1

>  <JGI3>
0.05

>  <JGI4>
0.05

>  <JGI5>
0.04

>  <Diameter>
9

>  <Radius>
5

>  <TMWC10>
106.43

>  <TSRW10>
50.65

>  <MW>
253.13

>  <AMW>
6.84

>  <WPath>
647

>  <WPol>
24

>  <Zagreb1>
88

>  <Zagreb2>
97

>  <mZagreb2>
3.88

>  <yes>


>  <nAR-cont>
0.336376

>  <nHA-cont>
0.991161285

>  <MWHBN>
0.502826523

>  <MWHBN-cont>
0

>  <TPSA-cont>
0.373210044

>  <pka_cont>
0.97

>  <yes.1>


>  <BBB_SCORE>
2.558957372

>  <MMFF94 Energy>
44.145

$$$$
Compound 2950
Actelion Java MolfileCreator 2.0

  0  0  0  0  0  0              0 V3000
M  V30 BEGIN CTAB
M  V30 COUNTS 45 46 0 0 0
M  V30 BEGIN ATOM
M  V30 1 O -2.1323 -0.4735 -3.3184 0
M  V30 2 C -2.8612 -1.2248 -2.6803 0
M  V30 3 N -2.4848 -1.8145 -1.4912 0
M  V30 4 C -4.2166 -1.5678 -3.1923 0
M  V30 5 C -1.1815 -1.5645 -0.9035 0
M  V30 6 C -5.2768 -1.8934 -2.3359 0
M  V30 7 C -4.4311 -1.5326 -4.576 0
M  V30 8 C -1.1145 -0.2078 -0.1982 0
M  V30 9 C -6.5316 -2.2052 -2.8657 0
M  V30 10 C -5.686 -1.8458 -5.101 0
M  V30 11 C 0.2276 0.0179 0.4523 0
M  V30 12 C -6.7336 -2.1854 -4.2458 0
M  V30 13 C 1.3075 0.4904 -0.3063 0
M  V30 14 C 0.4248 -0.2811 1.8072 0
M  V30 15 C 2.5569 0.6799 0.2857 0
M  V30 16 C 1.6755 -0.0893 2.3979 0
M  V30 17 C 2.7268 0.4248 1.6443 0
M  V30 18 O 3.966 0.5622 2.1991 0
M  V30 19 C 4.2447 1.8292 2.8378 0
M  V30 20 C 5.7567 1.7888 3.1093 0
M  V30 21 C 3.9712 3.0609 1.9633 0
M  V30 22 C 3.5149 1.9491 4.1825 0
M  V30 23 O 6.3162 1.9448 4.1851 0
M  V30 24 O 6.5033 1.5708 2.0026 0
M  V30 25 H -3.0777 -2.5096 -1.0601 0
M  V30 26 H -0.425 -1.6298 -1.6945 0
M  V30 27 H -0.9903 -2.3776 -0.194 0
M  V30 28 H -5.1539 -1.8806 -1.2573 0
M  V30 29 H -3.6181 -1.2624 -5.2474 0
M  V30 30 H -1.3146 0.6071 -0.9053 0
M  V30 31 H -1.9085 -0.14 0.5569 0
M  V30 32 H -7.3563 -2.4537 -2.2018 0
M  V30 33 H -5.8456 -1.8202 -6.1761 0
M  V30 34 H -7.7119 -2.4252 -4.6557 0
M  V30 35 H 1.1817 0.7037 -1.3665 0
M  V30 36 H -0.3909 -0.6742 2.4096 0
M  V30 37 H 3.3945 1.0225 -0.3151 0
M  V30 38 H 1.8249 -0.3514 3.441 0
M  V30 39 H 2.8979 3.2101 1.8023 0
M  V30 40 H 4.4353 2.9614 0.9758 0
M  V30 41 H 4.3666 3.9718 2.4273 0
M  V30 42 H 3.6656 1.0501 4.7912 0
M  V30 43 H 3.8677 2.8125 4.7578 0
M  V30 44 H 2.4353 2.0687 4.0449 0
M  V30 45 H 7.4221 1.5341 2.3393 0
M  V30 END ATOM
M  V30 BEGIN BOND
M  V30 1 2 1 2
M  V30 2 1 2 3
M  V30 3 1 2 4
M  V30 4 1 3 5
M  V30 5 2 4 6
M  V30 6 1 4 7
M  V30 7 1 5 8
M  V30 8 1 6 9
M  V30 9 2 7 10
M  V30 10 1 8 11
M  V30 11 2 9 12
M  V30 12 2 11 13
M  V30 13 1 11 14
M  V30 14 1 13 15
M  V30 15 2 14 16
M  V30 16 2 15 17
M  V30 17 1 17 18
M  V30 18 1 18 19
M  V30 19 1 19 20
M  V30 20 1 19 21
M  V30 21 1 19 22
M  V30 22 2 20 23
M  V30 23 1 20 24
M  V30 24 1 10 12
M  V30 25 1 16 17
M  V30 26 1 3 25
M  V30 27 1 5 26
M  V30 28 1 5 27
M  V30 29 1 6 28
M  V30 30 1 7 29
M  V30 31 1 8 30
M  V30 32 1 8 31
M  V30 33 1 9 32
M  V30 34 1 10 33
M  V30 35 1 12 34
M  V30 36 1 13 35
M  V30 37 1 14 36
M  V30 38 1 15 37
M  V30 39 1 16 38
M  V30 40 1 21 39
M  V30 41 1 21 40
M  V30 42 1 21 41
M  V30 43 1 22 42
M  V30 44 1 22 43
M  V30 45 1 22 44
M  V30 46 1 24 45
M  V30 END BOND
M  V30 END CTAB
M  END
>  <Column 1>
3797

>  <level_0>
6953

>  <index>
6954

>  <Unnamed: 0>
6954

>  <NO.>
6967

>  <Name>
chembl351286

>  <IUPAC_name>
2-[4-(2-benzamidoethyl)phenoxy]-2-methylpropanoic acid

>  <SMILES>
CC(C)(Oc1ccc(CCNC(=O)c2ccccc2)cc1)C(=O)O

>  <CID>
44377664

>  <logBB>


>  <BBB+/BBB->
BBB+

>  <Inchi>
InChI=1S/C19H21NO4/c1-19(2-18(22)23)24-16-10-8-14(9-11-16)12-13-20-17(21)15-6-4-3-5-7-15/h3-11H-12-13H2-1-2H3-(H-20-21)(H-22-23)

>  <threshold>


>  <reference>
R27|

>  <group>
C

>  <Class>
-1

>  <ABC>
18.22

>  <ABCGG>
14.34

>  <nAcid>
1

>  <nBase>
0

>  <nAromAtom>
12

>  <nAromBond>
12

>  <nAtom>
45

>  <nHeavyAtom>
24

>  <nSpiro>
0

>  <nBridgehead>
0

>  <nHetero>
5

>  <nN>
1

>  <nO>
4

>  <nF>
0

>  <BalabanJ>
1.59

>  <BertzCT>
693.07

>  <nBonds>
46

>  <nBondsO>
25

>  <nBondsS>
32

>  <nBondsD>
2

>  <nBondsT>
0

>  <nBondsA>
12

>  <nBondsM>
14

>  <nBondsKS>
38

>  <nBondsKD>
8

>  <RNCG>
0.2

>  <RPCG>
0.15

>  <FCSP3>
0.26

>  <SZ>
29

>  <Sm>
27.26

>  <Sv>
28.31

>  <Sse>
45.31

>  <Sp>
29.96

>  <Si>
50.49

>  <MZ>
0.64

>  <Mm>
0.61

>  <Mv>
0.63

>  <Mse>
1.01

>  <Mp>
0.67

>  <Mi>
1.12

>  <NsCH3>
2

>  <NdCH2>
0

>  <NssCH2>
2

>  <NtCH>
0

>  <NdsCH>
0

>  <NaaCH>
9

>  <NsssCH>
0

>  <NddC>
0

>  <NtsC>
0

>  <NdssC>
2

>  <NaasC>
3

>  <NaaaC>
0

>  <NssssC>
1

>  <NsNH3>
0

>  <NsNH2>
0

>  <NssNH2>
0

>  <NdNH>
0

>  <NssNH>
1

>  <NaaNH>
0

>  <NtN>
0

>  <NsssNH>
0

>  <NdsN>
0

>  <NaaN>
0

>  <NsssN>
0

>  <NddsN>
0

>  <NaasN>
0

>  <NssssN>
0

>  <NsOH>
1

>  <NdO>
2

>  <NssO>
1

>  <NaaO>
0

>  <NsF>
0

>  <NsSiH3>
0

>  <NssSiH2>
0

>  <NsssSiH>
0

>  <NssssSi>
0

>  <NsPH2>
0

>  <NssPH>
0

>  <NsssP>
0

>  <NdsssP>
0

>  <NsssssP>
0

>  <NsSH>
0

>  <NdS>
0

>  <NssS>
0

>  <NaaS>
0

>  <NdssS>
0

>  <NddssS>
0

>  <NsCl>
0

>  <NsBr>
0

>  <NsI>
0

>  <fragCpx>
73.05

>  <fMF>
0.36

>  <nHBAcc>
3

>  <nHBDon>
2

>  <Kier1>
20.31

>  <Kier2>
9.63

>  <Lipinski>
1

>  <GhoseFilter>
1

>  <FilterItLogS>
-4.27

>  <VMcGowan>
255.91

>  <LabuteASA>
140.82

>  <PEOE_VSA1>
15.16

>  <PEOE_VSA2>
4.79

>  <PEOE_VSA3>
4.79

>  <PEOE_VSA4>
0

>  <PEOE_VSA5>
0

>  <PEOE_VSA6>
30.33

>  <PEOE_VSA7>
50.1

>  <PEOE_VSA8>
12.11

>  <PEOE_VSA9>
0

>  <PEOE_VSA10>
5.75

>  <PEOE_VSA11>
5.6

>  <PEOE_VSA12>
0

>  <PEOE_VSA13>
5.91

>  <SMR_VSA1>
19.43

>  <SMR_VSA2>
0

>  <SMR_VSA3>
5.32

>  <SMR_VSA4>
0

>  <SMR_VSA5>
25.87

>  <SMR_VSA6>
6.54

>  <SMR_VSA7>
65.72

>  <SMR_VSA8>
0

>  <SMR_VSA9>
5.75

>  <SlogP_VSA1>
10.05

>  <SlogP_VSA2>
29.13

>  <SlogP_VSA3>
11.22

>  <SlogP_VSA4>
0

>  <SlogP_VSA5>
29.77

>  <SlogP_VSA6>
54.6

>  <SlogP_VSA7>
0

>  <SlogP_VSA8>
0

>  <SlogP_VSA9>
0

>  <SlogP_VSA10>
0

>  <SlogP_VSA11>
5.75

>  <EState_VSA1>
11.57

>  <EState_VSA2>
5.91

>  <EState_VSA3>
24.28

>  <EState_VSA4>
5.56

>  <EState_VSA5>
13.85

>  <EState_VSA6>
24.27

>  <EState_VSA7>
30.33

>  <EState_VSA8>
5.32

>  <EState_VSA9>
9.84

>  <EState_VSA10>
9.59

>  <VSA_EState1>
5.45

>  <VSA_EState2>
22.97

>  <VSA_EState3>
11.92

>  <VSA_EState4>
0.39

>  <VSA_EState5>
-0.62

>  <VSA_EState6>
16.25

>  <VSA_EState7>
0.68

>  <VSA_EState8>
3.53

>  <VSA_EState9>
0

>  <apol>
50.04

>  <bpol>
25.11

>  <nRing>
2

>  <nHRing>
0

>  <naRing>
2

>  <naHRing>
0

>  <nARing 2>
0

>  <nAHRing 2>
0

>  <nFRing>
0

>  <nFHRing>
0

>  <nFaRing>
0

>  <nFaHRing>
0

>  <nFARing 2>
0

>  <nFAHRing 2>
0

>  <nRot>
7

>  <SLogP>
2.9

>  <SMR>
91.26

>  <TopoPSA(NO)>
75.63

>  <TopoPSA>
75.63

>  <JGI1>
0.24

>  <JGI2>
0.09

>  <JGI3>
0.04

>  <JGI4>
0.04

>  <JGI5>
0.02

>  <Diameter>
15

>  <Radius>
8

>  <TMWC10>
121.74

>  <TSRW10>
58.01

>  <MW>
327.15

>  <AMW>
7.27

>  <WPath>
1668

>  <WPol>
33

>  <Zagreb1>
118

>  <Zagreb2>
132

>  <mZagreb2>
5.32

>  <yes>


>  <nAR-cont>
0.336376

>  <nHA-cont>
0.94700071

>  <MWHBN>
0.276437236

>  <MWHBN-cont>
0.904941437

>  <TPSA-cont>
0.472055637

>  <pka_cont>
0.97

>  <yes.1>


>  <BBB_SCORE>
4.069900138

>  <MMFF94 Energy>
60.884

$$$$
Compound 2951
Actelion Java MolfileCreator 2.0

  0  0  0  0  0  0              0 V3000
M  V30 BEGIN CTAB
M  V30 COUNTS 44 46 0 0 0
M  V30 BEGIN ATOM
M  V30 1 O 1.192 2.226 -0.6356 0
M  V30 2 C 0.7495 1.1239 -0.3428 0
M  V30 3 N 0.1895 0.7059 0.866 0
M  V30 4 C 0.6727 -0.0455 -1.2927 0
M  V30 5 N -0.2061 -0.6389 0.7891 0
M  V30 6 C -0.2295 1.6139 1.8659 0
M  V30 7 C 0.0238 -1.1486 -0.4911 0
M  V30 8 C -0.1501 0.3189 -2.5246 0
M  V30 9 C -0.4733 -1.4657 1.9047 0
M  V30 10 C 0.6542 2.5925 2.3365 0
M  V30 11 C -1.5254 1.5559 2.3946 0
M  V30 12 O -0.2019 -2.275 -0.9101 0
M  V30 13 C 0.1054 -0.6181 -3.6763 0
M  V30 14 C 0.2695 -1.3433 3.0859 0
M  V30 15 C -1.4895 -2.4265 1.8367 0
M  V30 16 C 0.2531 3.4903 3.3282 0
M  V30 17 C -1.9245 2.4533 3.3879 0
M  V30 18 C 0.8846 -0.397 -4.7528 0
M  V30 19 C -0.0098 -2.1591 4.1847 0
M  V30 20 C -1.7664 -3.2429 2.9356 0
M  V30 21 C -1.0348 3.4186 3.8551 0
M  V30 22 C 1.0074 -1.4363 -5.8366 0
M  V30 23 C 1.7005 0.844 -4.9905 0
M  V30 24 C -1.0284 -3.1069 4.1095 0
M  V30 25 H 1.6982 -0.343 -1.5399 0
M  V30 26 H -1.223 0.2795 -2.2926 0
M  V30 27 H 0.0343 1.3553 -2.8265 0
M  V30 28 H 1.6625 2.6671 1.9355 0
M  V30 29 H -2.2412 0.8205 2.0373 0
M  V30 30 H -0.4228 -1.5707 -3.6052 0
M  V30 31 H 1.0771 -0.6204 3.1641 0
M  V30 32 H -2.0748 -2.5506 0.9284 0
M  V30 33 H 0.946 4.248 3.6854 0
M  V30 34 H -2.9314 2.4002 3.7941 0
M  V30 35 H 0.5705 -2.0562 5.0981 0
M  V30 36 H -2.5558 -3.9875 2.8719 0
M  V30 37 H -1.3469 4.1188 4.6259 0
M  V30 38 H 0.6842 -1.0212 -6.7969 0
M  V30 39 H 0.3959 -2.3221 -5.6352 0
M  V30 40 H 2.0475 -1.765 -5.9312 0
M  V30 41 H 1.7145 1.5239 -4.1355 0
M  V30 42 H 2.742 0.5751 -5.1973 0
M  V30 43 H 1.3086 1.3926 -5.853 0
M  V30 44 H -1.2432 -3.7439 4.9638 0
M  V30 END ATOM
M  V30 BEGIN BOND
M  V30 1 2 1 2
M  V30 2 1 2 3
M  V30 3 1 2 4
M  V30 4 1 3 5
M  V30 5 1 3 6
M  V30 6 1 4 7
M  V30 7 1 4 8
M  V30 8 1 5 9
M  V30 9 2 6 10
M  V30 10 1 6 11
M  V30 11 2 7 12
M  V30 12 1 8 13
M  V30 13 2 9 14
M  V30 14 1 9 15
M  V30 15 1 10 16
M  V30 16 2 11 17
M  V30 17 2 13 18
M  V30 18 1 14 19
M  V30 19 2 15 20
M  V30 20 2 16 21
M  V30 21 1 18 22
M  V30 22 1 18 23
M  V30 23 2 19 24
M  V30 24 1 5 7
M  V30 25 1 17 21
M  V30 26 1 20 24
M  V30 27 1 4 25
M  V30 28 1 8 26
M  V30 29 1 8 27
M  V30 30 1 10 28
M  V30 31 1 11 29
M  V30 32 1 13 30
M  V30 33 1 14 31
M  V30 34 1 15 32
M  V30 35 1 16 33
M  V30 36 1 17 34
M  V30 37 1 19 35
M  V30 38 1 20 36
M  V30 39 1 21 37
M  V30 40 1 22 38
M  V30 41 1 22 39
M  V30 42 1 22 40
M  V30 43 1 23 41
M  V30 44 1 23 42
M  V30 45 1 23 43
M  V30 46 1 24 44
M  V30 END BOND
M  V30 END CTAB
M  END
>  <Column 1>
3798

>  <level_0>
6956

>  <index>
6957

>  <Unnamed: 0>
6957

>  <NO.>
6970

>  <Name>
feprazone

>  <IUPAC_name>
4-(3-methylbut-2-enyl)-1-2-diphenylpyrazolidine-3-5-dione

>  <SMILES>
CC(C)=CCC1C(=O)N(c2ccccc2)N(c2ccccc2)C1=O

>  <CID>
35455

>  <logBB>


>  <BBB+/BBB->
BBB+

>  <Inchi>
InChI=1S/C20H20N2O2/c1-15(2)13-14-18-19(23)21(16-9-5-3-6-10-16)22(20(18)24)17-11-7-4-8-12-17/h3-13-18H-14H2-1-2H3

>  <threshold>


>  <reference>
R27|

>  <group>
C

>  <Class>
1

>  <ABC>
18.54

>  <ABCGG>
15.71

>  <nAcid>
0

>  <nBase>
0

>  <nAromAtom>
12

>  <nAromBond>
12

>  <nAtom>
44

>  <nHeavyAtom>
24

>  <nSpiro>
0

>  <nBridgehead>
0

>  <nHetero>
4

>  <nN>
2

>  <nO>
2

>  <nF>
0

>  <BalabanJ>
1.77

>  <BertzCT>
707.24

>  <nBonds>
46

>  <nBondsO>
26

>  <nBondsS>
31

>  <nBondsD>
3

>  <nBondsT>
0

>  <nBondsA>
12

>  <nBondsM>
15

>  <nBondsKS>
37

>  <nBondsKD>
9

>  <RNCG>
0.16

>  <RPCG>
0.15

>  <FCSP3>
0.2

>  <SZ>
28.33

>  <Sm>
26.67

>  <Sv>
28.36

>  <Sse>
43.87

>  <Sp>
30.26

>  <Si>
49.15

>  <MZ>
0.64

>  <Mm>
0.61

>  <Mv>
0.64

>  <Mse>
1

>  <Mp>
0.69

>  <Mi>
1.12

>  <NsCH3>
2

>  <NdCH2>
0

>  <NssCH2>
1

>  <NtCH>
0

>  <NdsCH>
1

>  <NaaCH>
10

>  <NsssCH>
1

>  <NddC>
0

>  <NtsC>
0

>  <NdssC>
3

>  <NaasC>
2

>  <NaaaC>
0

>  <NssssC>
0

>  <NsNH3>
0

>  <NsNH2>
0

>  <NssNH2>
0

>  <NdNH>
0

>  <NssNH>
0

>  <NaaNH>
0

>  <NtN>
0

>  <NsssNH>
0

>  <NdsN>
0

>  <NaaN>
0

>  <NsssN>
2

>  <NddsN>
0

>  <NaasN>
0

>  <NssssN>
0

>  <NsOH>
0

>  <NdO>
2

>  <NssO>
0

>  <NaaO>
0

>  <NsF>
0

>  <NsSiH3>
0

>  <NssSiH2>
0

>  <NsssSiH>
0

>  <NssssSi>
0

>  <NsPH2>
0

>  <NssPH>
0

>  <NsssP>
0

>  <NdsssP>
0

>  <NsssssP>
0

>  <NsSH>
0

>  <NdS>
0

>  <NssS>
0

>  <NaaS>
0

>  <NdssS>
0

>  <NddssS>
0

>  <NsCl>
0

>  <NsBr>
0

>  <NsI>
0

>  <fragCpx>
124.04

>  <fMF>
0.39

>  <nHBAcc>
2

>  <nHBDon>
0

>  <Kier1>
18.78

>  <Kier2>
8.59

>  <Lipinski>
1

>  <GhoseFilter>
1

>  <FilterItLogS>
-3.7

>  <VMcGowan>
253.08

>  <LabuteASA>
141.53

>  <PEOE_VSA1>
0

>  <PEOE_VSA2>
9.59

>  <PEOE_VSA3>
10.02

>  <PEOE_VSA4>
0

>  <PEOE_VSA5>
0

>  <PEOE_VSA6>
48.05

>  <PEOE_VSA7>
44.53

>  <PEOE_VSA8>
0

>  <PEOE_VSA9>
11.37

>  <PEOE_VSA10>
5.92

>  <PEOE_VSA11>
0

>  <PEOE_VSA12>
0

>  <PEOE_VSA13>
11.81

>  <SMR_VSA1>
9.59

>  <SMR_VSA2>
0

>  <SMR_VSA3>
0

>  <SMR_VSA4>
5.92

>  <SMR_VSA5>
20.27

>  <SMR_VSA6>
10.02

>  <SMR_VSA7>
72.31

>  <SMR_VSA8>
0

>  <SMR_VSA9>
0

>  <SlogP_VSA1>
10.02

>  <SlogP_VSA2>
11.81

>  <SlogP_VSA3>
9.59

>  <SlogP_VSA4>
5.92

>  <SlogP_VSA5>
20.27

>  <SlogP_VSA6>
72.31

>  <SlogP_VSA7>
0

>  <SlogP_VSA8>
0

>  <SlogP_VSA9>
0

>  <SlogP_VSA10>
11.37

>  <SlogP_VSA11>
0

>  <EState_VSA1>
5.92

>  <EState_VSA2>
11.81

>  <EState_VSA3>
17.8

>  <EState_VSA4>
5.57

>  <EState_VSA5>
10.02

>  <EState_VSA6>
0

>  <EState_VSA7>
80.59

>  <EState_VSA8>
0

>  <EState_VSA9>
0

>  <EState_VSA10>
9.59

>  <VSA_EState1>
0

>  <VSA_EState2>
25.89

>  <VSA_EState3>
2.97

>  <VSA_EState4>
2.49

>  <VSA_EState5>
-1.06

>  <VSA_EState6>
18.57

>  <VSA_EState7>
2.37

>  <VSA_EState8>
3.93

>  <VSA_EState9>
0

>  <apol>
50.54

>  <bpol>
24.08

>  <nRing>
3

>  <nHRing>
1

>  <naRing>
2

>  <naHRing>
0

>  <nARing 2>
1

>  <nAHRing 2>
1

>  <nFRing>
0

>  <nFHRing>
0

>  <nFaRing>
0

>  <nFaHRing>
0

>  <nFARing 2>
0

>  <nFAHRing 2>
0

>  <nRot>
4

>  <SLogP>
3.95

>  <SMR>
95.39

>  <TopoPSA(NO)>
40.62

>  <TopoPSA>
40.62

>  <JGI1>
0.13

>  <JGI2>
0.07

>  <JGI3>
0.07

>  <JGI4>
0.05

>  <JGI5>
0.03

>  <Diameter>
10

>  <Radius>
6

>  <TMWC10>
125.65

>  <TSRW10>
73.11

>  <MW>
320.15

>  <AMW>
7.28

>  <WPath>
1257

>  <WPol>
38

>  <Zagreb1>
124

>  <Zagreb2>
147

>  <mZagreb2>
5.36

>  <yes>


>  <nAR-cont>
0.816016

>  <nHA-cont>
0.94700071

>  <MWHBN>
0.111777204

>  <MWHBN-cont>
0.791846637

>  <TPSA-cont>
0.716447176

>  <pka_cont>
0.97

>  <yes.1>


>  <BBB_SCORE>
4.868681019

>  <MMFF94 Energy>
58.017

$$$$
Compound 2952
Actelion Java MolfileCreator 2.0

  0  0  0  0  0  0              0 V3000
M  V30 BEGIN CTAB
M  V30 COUNTS 61 63 0 0 0
M  V30 BEGIN ATOM
M  V30 1 O -1.9699 0.0787 2.1276 0
M  V30 2 C -0.6516 -0.2586 1.6838 0
M  V30 3 C -2.2624 -0.4034 3.4391 0
M  V30 4 C -0.4322 0.2224 0.2286 0 CFG=2
M  V30 5 C -2.6886 -1.8795 3.436 0
M  V30 6 N 0.9133 -0.2085 -0.2553 0
M  V30 7 C -0.694 1.7626 0.1274 0
M  V30 8 C -3.0149 -2.3381 4.8564 0
M  V30 9 C -3.8847 -2.1125 2.5112 0
M  V30 10 C 1.0201 -1.5255 -0.7145 0
M  V30 11 C 2.1033 0.5051 0.2335 0
M  V30 12 N -0.3367 2.4037 -1.1594 0
M  V30 13 C 1.9745 -2.4258 -0.2171 0
M  V30 14 C 0.1589 -2.0055 -1.7144 0
M  V30 15 C 3.2206 0.5991 -0.7878 0
M  V30 16 C -0.5128 3.8616 -1.1012 0
M  V30 17 C -1.2077 1.9861 -2.2655 0
M  V30 18 C 2.0565 -3.7435 -0.6831 0
M  V30 19 C 0.2338 -3.3204 -2.1865 0
M  V30 20 C 4.5433 0.3027 -0.4247 0
M  V30 21 C 2.9649 1.0383 -2.095 0
M  V30 22 C -1.9746 4.1214 -1.4328 0
M  V30 23 C -2.4319 2.8879 -2.1984 0
M  V30 24 C 1.1831 -4.192 -1.667 0
M  V30 25 C 5.5791 0.4222 -1.3537 0
M  V30 26 C 4.0001 1.1571 -3.0231 0
M  V30 27 C 5.3069 0.848 -2.6524 0
M  V30 28 H 0.0804 0.2105 2.352 0
M  V30 29 H -0.5115 -1.3432 1.7353 0
M  V30 30 H -3.0838 0.2128 3.8228 0
M  V30 31 H -1.4043 -0.2379 4.1018 0
M  V30 32 H -1.2208 -0.2425 -0.3744 0
M  V30 33 H -1.8621 -2.4944 3.0622 0
M  V30 34 H -1.7481 1.9539 0.3685 0
M  V30 35 H -0.1195 2.2543 0.9232 0
M  V30 36 H -3.8503 -1.7681 5.2771 0
M  V30 37 H -2.1495 -2.2081 5.5148 0
M  V30 38 H -3.2883 -3.3984 4.8696 0
M  V30 39 H -4.7459 -1.5085 2.8166 0
M  V30 40 H -3.6392 -1.8555 1.4757 0
M  V30 41 H -4.1875 -3.1649 2.527 0
M  V30 42 H 1.8664 1.5356 0.5157 0
M  V30 43 H 2.4603 0.0311 1.1564 0
M  V30 44 H 2.6706 -2.1238 0.5584 0
M  V30 45 H -0.5677 -1.3388 -2.1694 0
M  V30 46 H -0.2143 4.3038 -0.1444 0
M  V30 47 H 0.123 4.3187 -1.8698 0
M  V30 48 H -0.6762 2.1654 -3.2087 0
M  V30 49 H -1.4749 0.9264 -2.2599 0
M  V30 50 H 2.8077 -4.4141 -0.2754 0
M  V30 51 H -0.4434 -3.6528 -2.9679 0
M  V30 52 H 4.7751 -0.0279 0.5843 0
M  V30 53 H 1.946 1.279 -2.3916 0
M  V30 54 H -2.0954 5.0338 -2.0255 0
M  V30 55 H -2.5682 4.2336 -0.5182 0
M  V30 56 H -2.7961 3.1442 -3.1984 0
M  V30 57 H -3.2491 2.3961 -1.6585 0
M  V30 58 H 1.2487 -5.2119 -2.0341 0
M  V30 59 H 6.5985 0.1825 -1.0643 0
M  V30 60 H 3.7821 1.4888 -4.0342 0
M  V30 61 H 6.1119 0.9384 -3.3761 0
M  V30 END ATOM
M  V30 BEGIN BOND
M  V30 1 1 1 2
M  V30 2 1 1 3
M  V30 3 1 2 4
M  V30 4 1 3 5
M  V30 5 1 4 6
M  V30 6 1 4 7
M  V30 7 1 5 8
M  V30 8 1 5 9
M  V30 9 1 6 10
M  V30 10 1 6 11
M  V30 11 1 7 12
M  V30 12 2 10 13
M  V30 13 1 10 14
M  V30 14 1 11 15
M  V30 15 1 12 16
M  V30 16 1 12 17
M  V30 17 1 13 18
M  V30 18 2 14 19
M  V30 19 2 15 20
M  V30 20 1 15 21
M  V30 21 1 16 22
M  V30 22 1 17 23
M  V30 23 2 18 24
M  V30 24 1 20 25
M  V30 25 2 21 26
M  V30 26 2 25 27
M  V30 27 1 19 24
M  V30 28 1 22 23
M  V30 29 1 26 27
M  V30 30 1 2 28
M  V30 31 1 2 29
M  V30 32 1 3 30
M  V30 33 1 3 31
M  V30 34 1 4 32
M  V30 35 1 5 33
M  V30 36 1 7 34
M  V30 37 1 7 35
M  V30 38 1 8 36
M  V30 39 1 8 37
M  V30 40 1 8 38
M  V30 41 1 9 39
M  V30 42 1 9 40
M  V30 43 1 9 41
M  V30 44 1 11 42
M  V30 45 1 11 43
M  V30 46 1 13 44
M  V30 47 1 14 45
M  V30 48 1 16 46
M  V30 49 1 16 47
M  V30 50 1 17 48
M  V30 51 1 17 49
M  V30 52 1 18 50
M  V30 53 1 19 51
M  V30 54 1 20 52
M  V30 55 1 21 53
M  V30 56 1 22 54
M  V30 57 1 22 55
M  V30 58 1 23 56
M  V30 59 1 23 57
M  V30 60 1 24 58
M  V30 61 1 25 59
M  V30 62 1 26 60
M  V30 63 1 27 61
M  V30 END BOND
M  V30 BEGIN COLLECTION
M  V30 MDLV30/STEABS ATOMS=(1 4)
M  V30 END COLLECTION
M  V30 END CTAB
M  END
>  <Column 1>
3800

>  <level_0>
6964

>  <index>
6965

>  <Unnamed: 0>
6965

>  <NO.>
6978

>  <Name>


>  <IUPAC_name>


>  <SMILES>
CC(C)COC[C@@H](CN1CCCC1)N(Cc1ccccc1)c1ccccc1

>  <CID>


>  <logBB>


>  <BBB+/BBB->
BBB+

>  <Inchi>
InChI=1S/C24H34N2O/c1-21(2)19-27-20-24(18-25-15-9-10-16-25)26(23-13-7-4-8-14-23)17-22-11-5-3-6-12-22/h3-8-11-14-21-24H-9-10-15-20H2-1-2H3/t24-/m1/s1

>  <threshold>


>  <reference>
R27|

>  <group>
C

>  <Class>
1

>  <ABC>
20.64

>  <ABCGG>
17.21

>  <nAcid>
0

>  <nBase>
1

>  <nAromAtom>
12

>  <nAromBond>
12

>  <nAtom>
61

>  <nHeavyAtom>
27

>  <nSpiro>
0

>  <nBridgehead>
0

>  <nHetero>
3

>  <nN>
2

>  <nO>
1

>  <nF>
0

>  <BalabanJ>
1.66

>  <BertzCT>
637.95

>  <nBonds>
63

>  <nBondsO>
29

>  <nBondsS>
51

>  <nBondsD>
0

>  <nBondsT>
0

>  <nBondsA>
12

>  <nBondsM>
12

>  <nBondsKS>
57

>  <nBondsKD>
6

>  <RNCG>
0.2

>  <RPCG>
0.04

>  <FCSP3>
0.5

>  <SZ>
33.33

>  <Sm>
30.52

>  <Sv>
35.44

>  <Sse>
59.75

>  <Sp>
39.37

>  <Si>
68.85

>  <MZ>
0.55

>  <Mm>
0.5

>  <Mv>
0.58

>  <Mse>
0.98

>  <Mp>
0.65

>  <Mi>
1.13

>  <NsCH3>
2

>  <NdCH2>
0

>  <NssCH2>
8

>  <NtCH>
0

>  <NdsCH>
0

>  <NaaCH>
10

>  <NsssCH>
2

>  <NddC>
0

>  <NtsC>
0

>  <NdssC>
0

>  <NaasC>
2

>  <NaaaC>
0

>  <NssssC>
0

>  <NsNH3>
0

>  <NsNH2>
0

>  <NssNH2>
0

>  <NdNH>
0

>  <NssNH>
0

>  <NaaNH>
0

>  <NtN>
0

>  <NsssNH>
0

>  <NdsN>
0

>  <NaaN>
0

>  <NsssN>
2

>  <NddsN>
0

>  <NaasN>
0

>  <NssssN>
0

>  <NsOH>
0

>  <NdO>
0

>  <NssO>
1

>  <NaaO>
0

>  <NsF>
0

>  <NsSiH3>
0

>  <NssSiH2>
0

>  <NsssSiH>
0

>  <NssssSi>
0

>  <NsPH2>
0

>  <NssPH>
0

>  <NsssP>
0

>  <NdsssP>
0

>  <NsssssP>
0

>  <NsSH>
0

>  <NdS>
0

>  <NssS>
0

>  <NaaS>
0

>  <NdssS>
0

>  <NddssS>
0

>  <NsCl>
0

>  <NsBr>
0

>  <NsI>
0

>  <fragCpx>
139.03

>  <fMF>
0.34

>  <nHBAcc>
3

>  <nHBDon>
0

>  <Kier1>
21.7

>  <Kier2>
11.87

>  <Lipinski>
1

>  <GhoseFilter>
1

>  <FilterItLogS>
-5.36

>  <VMcGowan>
316.47

>  <LabuteASA>
164.5

>  <PEOE_VSA1>
14.54

>  <PEOE_VSA2>
0

>  <PEOE_VSA3>
0

>  <PEOE_VSA4>
0

>  <PEOE_VSA5>
0

>  <PEOE_VSA6>
62.38

>  <PEOE_VSA7>
49.55

>  <PEOE_VSA8>
25.38

>  <PEOE_VSA9>
12.65

>  <PEOE_VSA10>
0

>  <PEOE_VSA11>
0

>  <PEOE_VSA12>
0

>  <PEOE_VSA13>
0

>  <SMR_VSA1>
4.74

>  <SMR_VSA2>
0

>  <SMR_VSA3>
4.9

>  <SMR_VSA4>
5.92

>  <SMR_VSA5>
39.28

>  <SMR_VSA6>
37.75

>  <SMR_VSA7>
66.23

>  <SMR_VSA8>
0

>  <SMR_VSA9>
0

>  <SlogP_VSA1>
4.9

>  <SlogP_VSA2>
43.79

>  <SlogP_VSA3>
11.28

>  <SlogP_VSA4>
5.92

>  <SlogP_VSA5>
32.25

>  <SlogP_VSA6>
60.66

>  <SlogP_VSA7>
0

>  <SlogP_VSA8>
0

>  <SlogP_VSA9>
0

>  <SlogP_VSA10>
5.69

>  <SlogP_VSA11>
0

>  <EState_VSA1>
0

>  <EState_VSA2>
0

>  <EState_VSA3>
11.96

>  <EState_VSA4>
26.3

>  <EState_VSA5>
37.18

>  <EState_VSA6>
0

>  <EState_VSA7>
0

>  <EState_VSA8>
84.31

>  <EState_VSA9>
4.74

>  <EState_VSA10>
0

>  <VSA_EState1>
6.14

>  <VSA_EState2>
5.14

>  <VSA_EState3>
0

>  <VSA_EState4>
2.62

>  <VSA_EState5>
0.57

>  <VSA_EState6>
21.94

>  <VSA_EState7>
2.65

>  <VSA_EState8>
10.45

>  <VSA_EState9>
0

>  <apol>
65.75

>  <bpol>
39.27

>  <nRing>
3

>  <nHRing>
1

>  <naRing>
2

>  <naHRing>
0

>  <nARing 2>
1

>  <nAHRing 2>
1

>  <nFRing>
0

>  <nFHRing>
0

>  <nFaRing>
0

>  <nFaHRing>
0

>  <nFARing 2>
0

>  <nFAHRing 2>
0

>  <nRot>
10

>  <SLogP>
4.83

>  <SMR>
114.19

>  <TopoPSA(NO)>
15.71

>  <TopoPSA>
15.71

>  <JGI1>
0.14

>  <JGI2>
0.05

>  <JGI3>
0.04

>  <JGI4>
0.03

>  <JGI5>
0.01

>  <Diameter>
11

>  <Radius>
6

>  <TMWC10>
129.97

>  <TSRW10>
74.42

>  <MW>
366.27

>  <AMW>
6

>  <WPath>
1841

>  <WPol>
34

>  <Zagreb1>
132

>  <Zagreb2>
148

>  <mZagreb2>
6.14

>  <yes>


>  <nAR-cont>
0.816016

>  <nHA-cont>
0.860070871

>  <MWHBN>
0.156754703

>  <MWHBN-cont>
0.948835449

>  <TPSA-cont>
0.890334445

>  <pka_cont>
0.97

>  <yes.1>


>  <BBB_SCORE>
5.365008935

>  <MMFF94 Energy>
114.2

$$$$
Compound 2953
Actelion Java MolfileCreator 2.0

  0  0  0  0  0  0              0 V3000
M  V30 BEGIN CTAB
M  V30 COUNTS 54 55 0 0 0
M  V30 BEGIN ATOM
M  V30 1 O 0.1572 -1.8092 3.0693 0
M  V30 2 C 0.8372 -1.274 2.1973 0
M  V30 3 N 1.9112 -0.5224 2.5987 0
M  V30 4 C 0.6157 -1.4108 0.6428 0 CFG=2
M  V30 5 C -0.7099 -2.1029 0.2259 0
M  V30 6 C 1.8325 -2.2473 0.1302 0
M  V30 7 C 0.5783 0.0334 0.026 0
M  V30 8 C -0.8451 -2.6577 -1.0531 0
M  V30 9 C -1.8608 -2.145 1.0254 0
M  V30 10 C 2.0266 -3.5484 0.6423 0
M  V30 11 C 2.751 -1.7761 -0.8242 0
M  V30 12 C -0.5398 0.9448 0.5694 0
M  V30 13 N -1.9704 -3.2338 -1.5404 0
M  V30 14 C -3.0313 -2.7408 0.5567 0
M  V30 15 C 3.0961 -4.3398 0.2209 0
M  V30 16 C 3.8212 -2.5722 -1.2437 0
M  V30 17 N -0.3899 2.3509 0.1436 0
M  V30 18 C -3.0362 -3.2694 -0.7192 0
M  V30 19 C 3.994 -3.8507 -0.7215 0
M  V30 20 C -1.0468 3.2749 1.1007 0
M  V30 21 C -0.666 2.65 -1.2811 0
M  V30 22 C -0.4651 4.6927 1.0024 0
M  V30 23 C -2.5762 3.309 1.0146 0
M  V30 24 C 0.6569 2.7061 -2.0555 0
M  V30 25 C -1.6749 1.7475 -2.0033 0
M  V30 26 H 2.0817 -0.4425 3.5925 0
M  V30 27 H 2.5987 -0.1472 1.9601 0
M  V30 28 H 0.4731 -0.0525 -1.0607 0
M  V30 29 H 1.535 0.5424 0.2018 0
M  V30 30 H -0.0236 -2.6516 -1.7659 0
M  V30 31 H -1.8829 -1.7102 2.021 0
M  V30 32 H 1.3346 -3.9601 1.3777 0
M  V30 33 H 2.6587 -0.7905 -1.272 0
M  V30 34 H -1.5311 0.5632 0.308 0
M  V30 35 H -0.4839 0.903 1.663 0
M  V30 36 H -3.9194 -2.7846 1.1773 0
M  V30 37 H 3.2229 -5.3398 0.6278 0
M  V30 38 H 4.5201 -2.1932 -1.9855 0
M  V30 39 H -3.9235 -3.7434 -1.1275 0
M  V30 40 H 4.8251 -4.4676 -1.0526 0
M  V30 41 H -0.7897 2.9449 2.1166 0
M  V30 42 H -1.0753 3.6628 -1.3673 0
M  V30 43 H 0.6289 4.6698 1.0549 0
M  V30 44 H -0.8193 5.3051 1.8394 0
M  V30 45 H -0.7529 5.2065 0.0805 0
M  V30 46 H -2.9867 3.9352 1.8148 0
M  V30 47 H -2.9273 3.7234 0.0645 0
M  V30 48 H -3.0054 2.3091 1.1333 0
M  V30 49 H 1.3625 3.3928 -1.5744 0
M  V30 50 H 0.4866 3.076 -3.0729 0
M  V30 51 H 1.1394 1.7296 -2.1406 0
M  V30 52 H -1.8768 2.1383 -3.0073 0
M  V30 53 H -1.3135 0.7232 -2.1264 0
M  V30 54 H -2.6317 1.7154 -1.4729 0
M  V30 END ATOM
M  V30 BEGIN BOND
M  V30 1 2 1 2
M  V30 2 1 2 3
M  V30 3 1 2 4
M  V30 4 1 4 5
M  V30 5 1 4 6
M  V30 6 1 4 7
M  V30 7 2 5 8
M  V30 8 1 5 9
M  V30 9 2 6 10
M  V30 10 1 6 11
M  V30 11 1 7 12
M  V30 12 1 8 13
M  V30 13 2 9 14
M  V30 14 1 10 15
M  V30 15 2 11 16
M  V30 16 1 12 17
M  V30 17 2 13 18
M  V30 18 2 15 19
M  V30 19 1 17 20
M  V30 20 1 17 21
M  V30 21 1 20 22
M  V30 22 1 20 23
M  V30 23 1 21 24
M  V30 24 1 21 25
M  V30 25 1 14 18
M  V30 26 1 16 19
M  V30 27 1 3 26
M  V30 28 1 3 27
M  V30 29 1 7 28
M  V30 30 1 7 29
M  V30 31 1 8 30
M  V30 32 1 9 31
M  V30 33 1 10 32
M  V30 34 1 11 33
M  V30 35 1 12 34
M  V30 36 1 12 35
M  V30 37 1 14 36
M  V30 38 1 15 37
M  V30 39 1 16 38
M  V30 40 1 18 39
M  V30 41 1 19 40
M  V30 42 1 20 41
M  V30 43 1 21 42
M  V30 44 1 22 43
M  V30 45 1 22 44
M  V30 46 1 22 45
M  V30 47 1 23 46
M  V30 48 1 23 47
M  V30 49 1 23 48
M  V30 50 1 24 49
M  V30 51 1 24 50
M  V30 52 1 24 51
M  V30 53 1 25 52
M  V30 54 1 25 53
M  V30 55 1 25 54
M  V30 END BOND
M  V30 BEGIN COLLECTION
M  V30 MDLV30/STEABS ATOMS=(1 4)
M  V30 END COLLECTION
M  V30 END CTAB
M  END
>  <Column 1>
3801

>  <level_0>
6970

>  <index>
6971

>  <Unnamed: 0>
6971

>  <NO.>
6984

>  <Name>


>  <IUPAC_name>


>  <SMILES>
CC(C)N(CC[C@](C(N)=O)(c1ccccc1)c1cccnc1)C(C)C

>  <CID>


>  <logBB>


>  <BBB+/BBB->
BBB+

>  <Inchi>
InChI=1S/C21H29N3O/c1-16(2)24(17(3)4)14-12-21(20(22)25-18-9-6-5-7-10-18)19-11-8-13-23-15-19/h5-11-13-15-17H-12-14H2-1-4H3-(H2-22-25)/t21-/m0/s1

>  <threshold>


>  <reference>
R27|

>  <group>
C

>  <Class>
1

>  <ABC>
18.78

>  <ABCGG>
16.87

>  <nAcid>
0

>  <nBase>
1

>  <nAromAtom>
12

>  <nAromBond>
12

>  <nAtom>
54

>  <nHeavyAtom>
25

>  <nSpiro>
0

>  <nBridgehead>
0

>  <nHetero>
4

>  <nN>
3

>  <nO>
1

>  <nF>
0

>  <BalabanJ>
2.24

>  <BertzCT>
620.56

>  <nBonds>
55

>  <nBondsO>
26

>  <nBondsS>
42

>  <nBondsD>
1

>  <nBondsT>
0

>  <nBondsA>
12

>  <nBondsM>
13

>  <nBondsKS>
48

>  <nBondsKD>
7

>  <RNCG>
0.2

>  <RPCG>
0.12

>  <FCSP3>
0.43

>  <SZ>
30.67

>  <Sm>
28.26

>  <Sv>
31.85

>  <Sse>
53.19

>  <Sp>
35.04

>  <Si>
61.1

>  <MZ>
0.57

>  <Mm>
0.52

>  <Mv>
0.59

>  <Mse>
0.99

>  <Mp>
0.65

>  <Mi>
1.13

>  <NsCH3>
4

>  <NdCH2>
0

>  <NssCH2>
2

>  <NtCH>
0

>  <NdsCH>
0

>  <NaaCH>
9

>  <NsssCH>
2

>  <NddC>
0

>  <NtsC>
0

>  <NdssC>
1

>  <NaasC>
2

>  <NaaaC>
0

>  <NssssC>
1

>  <NsNH3>
0

>  <NsNH2>
1

>  <NssNH2>
0

>  <NdNH>
0

>  <NssNH>
0

>  <NaaNH>
0

>  <NtN>
0

>  <NsssNH>
0

>  <NdsN>
0

>  <NaaN>
1

>  <NsssN>
1

>  <NddsN>
0

>  <NaasN>
0

>  <NssssN>
0

>  <NsOH>
0

>  <NdO>
1

>  <NssO>
0

>  <NaaO>
0

>  <NsF>
0

>  <NsSiH3>
0

>  <NssSiH2>
0

>  <NsssSiH>
0

>  <NssssSi>
0

>  <NsPH2>
0

>  <NssPH>
0

>  <NsssP>
0

>  <NdsssP>
0

>  <NsssssP>
0

>  <NsSH>
0

>  <NdS>
0

>  <NssS>
0

>  <NaaS>
0

>  <NdssS>
0

>  <NddssS>
0

>  <NsCl>
0

>  <NsBr>
0

>  <NsI>
0

>  <fragCpx>
76.04

>  <fMF>
0.24

>  <nHBAcc>
3

>  <nHBDon>
1

>  <Kier1>
21.3

>  <Kier2>
9.8

>  <Lipinski>
1

>  <GhoseFilter>
1

>  <FilterItLogS>
-4.58

>  <VMcGowan>
290.74

>  <LabuteASA>
150.62

>  <PEOE_VSA1>
5.73

>  <PEOE_VSA2>
14.68

>  <PEOE_VSA3>
0

>  <PEOE_VSA4>
0

>  <PEOE_VSA5>
0

>  <PEOE_VSA6>
36.4

>  <PEOE_VSA7>
51.31

>  <PEOE_VSA8>
31.02

>  <PEOE_VSA9>
0

>  <PEOE_VSA10>
5.41

>  <PEOE_VSA11>
0

>  <PEOE_VSA12>
5.91

>  <PEOE_VSA13>
0

>  <SMR_VSA1>
4.79

>  <SMR_VSA2>
0

>  <SMR_VSA3>
9.88

>  <SMR_VSA4>
5.73

>  <SMR_VSA5>
51.61

>  <SMR_VSA6>
6.54

>  <SMR_VSA7>
65.99

>  <SMR_VSA8>
0

>  <SMR_VSA9>
0

>  <SlogP_VSA1>
5.73

>  <SlogP_VSA2>
34.42

>  <SlogP_VSA3>
10.21

>  <SlogP_VSA4>
0

>  <SlogP_VSA5>
45.24

>  <SlogP_VSA6>
54.86

>  <SlogP_VSA7>
0

>  <SlogP_VSA8>
0

>  <SlogP_VSA9>
0

>  <SlogP_VSA10>
0

>  <SlogP_VSA11>
0

>  <EState_VSA1>
5.41

>  <EState_VSA2>
5.91

>  <EState_VSA3>
18.5

>  <EState_VSA4>
17.67

>  <EState_VSA5>
0

>  <EState_VSA6>
12.39

>  <EState_VSA7>
42.46

>  <EState_VSA8>
37.58

>  <EState_VSA9>
5.73

>  <EState_VSA10>
4.79

>  <VSA_EState1>
0

>  <VSA_EState2>
19.37

>  <VSA_EState3>
0

>  <VSA_EState4>
6.88

>  <VSA_EState5>
-0.33

>  <VSA_EState6>
14.41

>  <VSA_EState7>
4.09

>  <VSA_EState8>
9.5

>  <VSA_EState9>
0

>  <apol>
58.51

>  <bpol>
32.24

>  <nRing>
2

>  <nHRing>
1

>  <naRing>
2

>  <naHRing>
1

>  <nARing 2>
0

>  <nAHRing 2>
0

>  <nFRing>
0

>  <nFHRing>
0

>  <nFaRing>
0

>  <nFaHRing>
0

>  <nFARing 2>
0

>  <nFAHRing 2>
0

>  <nRot>
8

>  <SLogP>
3.36

>  <SMR>
102.25

>  <TopoPSA(NO)>
59.22

>  <TopoPSA>
59.22

>  <JGI1>
0.21

>  <JGI2>
0.1

>  <JGI3>
0.07

>  <JGI4>
0.02

>  <JGI5>
0.02

>  <Diameter>
9

>  <Radius>
5

>  <TMWC10>
126.28

>  <TSRW10>
59.71

>  <MW>
339.23

>  <AMW>
6.28

>  <WPath>
1372

>  <WPol>
42

>  <Zagreb1>
124

>  <Zagreb2>
146

>  <mZagreb2>
5.68

>  <yes>


>  <nAR-cont>
0.336376

>  <nHA-cont>
0.921834225

>  <MWHBN>
0.217176518

>  <MWHBN-cont>
0.996589137

>  <TPSA-cont>
0.586607627

>  <pka_cont>
0.97

>  <yes.1>


>  <BBB_SCORE>
4.411309183

>  <MMFF94 Energy>
75.795

$$$$
Compound 2954
Actelion Java MolfileCreator 2.0

  0  0  0  0  0  0              0 V3000
M  V30 BEGIN CTAB
M  V30 COUNTS 54 54 0 0 0
M  V30 BEGIN ATOM
M  V30 1 O 2.4157 0.2335 1.4021 0
M  V30 2 C 1.178 -0.0668 0.9057 0
M  V30 3 C 3.0356 1.4359 0.9311 0
M  V30 4 C 0.4467 0.7012 0.0018 0
M  V30 5 C 0.6374 -1.2661 1.3744 0
M  V30 6 C 4.4378 1.5934 1.546 0 CFG=1
M  V30 7 C -0.8126 0.2689 -0.4294 0
M  V30 8 C -0.6206 -1.6982 0.9457 0
M  V30 9 O 4.324 1.8533 2.953 0
M  V30 10 C 5.3519 0.3637 1.3425 0
M  V30 11 C -1.3663 -0.9281 0.0452 0
M  V30 12 N 4.9332 -0.7559 2.2076 0
M  V30 13 C -2.7067 -1.4166 -0.4464 0
M  V30 14 C 5.665 -1.9982 1.9255 0
M  V30 15 O -3.5947 -0.3149 -0.625 0
M  V30 16 C 7.1193 -1.9232 2.3918 0
M  V30 17 C 4.9521 -3.1476 2.643 0
M  V30 18 C -4.8804 -0.7405 -1.0865 0
M  V30 19 C -5.7388 0.4878 -1.3866 0
M  V30 20 O -5.3158 1.0611 -2.6288 0
M  V30 21 C -5.8769 2.3505 -2.888 0
M  V30 22 C -5.0665 2.9667 -4.0231 0
M  V30 23 C -7.3457 2.2428 -3.2849 0
M  V30 24 H 2.4215 2.2955 1.2255 0
M  V30 25 H 3.1355 1.3962 -0.16 0
M  V30 26 H 0.8186 1.6426 -0.3872 0
M  V30 27 H 1.1988 -1.8708 2.0821 0
M  V30 28 H 4.9137 2.4735 1.0993 0
M  V30 29 H -1.3718 0.8796 -1.1371 0
M  V30 30 H -1.0132 -2.6384 1.3256 0
M  V30 31 H 4.3204 0.9638 3.3657 0
M  V30 32 H 5.3491 0.0753 0.2852 0
M  V30 33 H 6.3699 0.6574 1.6204 0
M  V30 34 H 3.9324 -0.9157 2.0376 0
M  V30 35 H -2.5638 -1.9402 -1.3989 0
M  V30 36 H -3.1449 -2.1084 0.2826 0
M  V30 37 H 5.6393 -2.2114 0.8498 0
M  V30 38 H 7.186 -1.663 3.4542 0
M  V30 39 H 7.6878 -1.1807 1.8232 0
M  V30 40 H 7.619 -2.8882 2.2526 0
M  V30 41 H 3.916 -3.2448 2.2992 0
M  V30 42 H 4.9363 -2.9967 3.7285 0
M  V30 43 H 5.4554 -4.0997 2.443 0
M  V30 44 H -5.3527 -1.3356 -0.2975 0
M  V30 45 H -4.7625 -1.3499 -1.9896 0
M  V30 46 H -6.785 0.181 -1.4784 0
M  V30 47 H -5.6352 1.2248 -0.5826 0
M  V30 48 H -5.7702 2.9867 -2.0011 0
M  V30 49 H -5.4242 3.9711 -4.2694 0
M  V30 50 H -4.0092 3.0325 -3.7439 0
M  V30 51 H -5.1156 2.3449 -4.9239 0
M  V30 52 H -7.745 3.214 -3.5939 0
M  V30 53 H -7.9538 1.8822 -2.4494 0
M  V30 54 H -7.4782 1.5292 -4.1054 0
M  V30 END ATOM
M  V30 BEGIN BOND
M  V30 1 1 1 2
M  V30 2 1 1 3
M  V30 3 2 2 4
M  V30 4 1 2 5
M  V30 5 1 3 6
M  V30 6 1 4 7
M  V30 7 2 5 8
M  V30 8 1 6 9
M  V30 9 1 6 10
M  V30 10 2 7 11
M  V30 11 1 10 12
M  V30 12 1 11 13
M  V30 13 1 12 14
M  V30 14 1 13 15
M  V30 15 1 14 16
M  V30 16 1 14 17
M  V30 17 1 15 18
M  V30 18 1 18 19
M  V30 19 1 19 20
M  V30 20 1 20 21
M  V30 21 1 21 22
M  V30 22 1 21 23
M  V30 23 1 8 11
M  V30 24 1 3 24
M  V30 25 1 3 25
M  V30 26 1 4 26
M  V30 27 1 5 27
M  V30 28 1 6 28
M  V30 29 1 7 29
M  V30 30 1 8 30
M  V30 31 1 9 31
M  V30 32 1 10 32
M  V30 33 1 10 33
M  V30 34 1 12 34
M  V30 35 1 13 35
M  V30 36 1 13 36
M  V30 37 1 14 37
M  V30 38 1 16 38
M  V30 39 1 16 39
M  V30 40 1 16 40
M  V30 41 1 17 41
M  V30 42 1 17 42
M  V30 43 1 17 43
M  V30 44 1 18 44
M  V30 45 1 18 45
M  V30 46 1 19 46
M  V30 47 1 19 47
M  V30 48 1 21 48
M  V30 49 1 22 49
M  V30 50 1 22 50
M  V30 51 1 22 51
M  V30 52 1 23 52
M  V30 53 1 23 53
M  V30 54 1 23 54
M  V30 END BOND
M  V30 BEGIN COLLECTION
M  V30 MDLV30/STEABS ATOMS=(1 6)
M  V30 END COLLECTION
M  V30 END CTAB
M  END
>  <Column 1>
3802

>  <level_0>
6973

>  <index>
6974

>  <Unnamed: 0>
6974

>  <NO.>
6987

>  <Name>
s-(-)-bisoprolol

>  <IUPAC_name>
(2s)-1-(propan-2-ylamino)-3-[4-(2-propan-2-yloxyethoxymethyl)phenoxy]propan-2-ol

>  <SMILES>
CC(C)NC[C@H](O)COc1ccc(COCCOC(C)C)cc1

>  <CID>
10892731

>  <logBB>


>  <BBB+/BBB->
BBB+

>  <Inchi>
InChI=1S/C18H31NO4/c1-14(2)19-11-17(20)13-23-18-7-5-16(6-8-18)12-21-9-10-22-15(3)4/h5-8-14-15-17-19-20H-9-13H2-1-4H3/t17-/m0/s1

>  <threshold>


>  <reference>
R27|

>  <group>
C

>  <Class>
1

>  <ABC>
16.81

>  <ABCGG>
13.04

>  <nAcid>
0

>  <nBase>
1

>  <nAromAtom>
6

>  <nAromBond>
6

>  <nAtom>
54

>  <nHeavyAtom>
23

>  <nSpiro>
0

>  <nBridgehead>
0

>  <nHetero>
5

>  <nN>
1

>  <nO>
4

>  <nF>
0

>  <BalabanJ>
2

>  <BertzCT>
405.99

>  <nBonds>
54

>  <nBondsO>
23

>  <nBondsS>
48

>  <nBondsD>
0

>  <nBondsT>
0

>  <nBondsA>
6

>  <nBondsM>
6

>  <nBondsKS>
51

>  <nBondsKD>
3

>  <RNCG>
0.21

>  <RPCG>
0.09

>  <FCSP3>
0.67

>  <SZ>
29.67

>  <Sm>
27.1

>  <Sv>
30.02

>  <Sse>
53.75

>  <Sp>
32.96

>  <Si>
61.57

>  <MZ>
0.55

>  <Mm>
0.5

>  <Mv>
0.56

>  <Mse>
1

>  <Mp>
0.61

>  <Mi>
1.14

>  <NsCH3>
4

>  <NdCH2>
0

>  <NssCH2>
5

>  <NtCH>
0

>  <NdsCH>
0

>  <NaaCH>
4

>  <NsssCH>
3

>  <NddC>
0

>  <NtsC>
0

>  <NdssC>
0

>  <NaasC>
2

>  <NaaaC>
0

>  <NssssC>
0

>  <NsNH3>
0

>  <NsNH2>
0

>  <NssNH2>
0

>  <NdNH>
0

>  <NssNH>
1

>  <NaaNH>
0

>  <NtN>
0

>  <NsssNH>
0

>  <NdsN>
0

>  <NaaN>
0

>  <NsssN>
0

>  <NddsN>
0

>  <NaasN>
0

>  <NssssN>
0

>  <NsOH>
1

>  <NdO>
0

>  <NssO>
3

>  <NaaO>
0

>  <NsF>
0

>  <NsSiH3>
0

>  <NssSiH2>
0

>  <NsssSiH>
0

>  <NssssSi>
0

>  <NsPH2>
0

>  <NssPH>
0

>  <NsssP>
0

>  <NdsssP>
0

>  <NsssssP>
0

>  <NsSH>
0

>  <NdS>
0

>  <NssS>
0

>  <NaaS>
0

>  <NdssS>
0

>  <NddssS>
0

>  <NsCl>
0

>  <NsBr>
0

>  <NsI>
0

>  <fragCpx>
23.05

>  <fMF>
0.11

>  <nHBAcc>
5

>  <nHBDon>
2

>  <Kier1>
21.04

>  <Kier2>
12.38

>  <Lipinski>
1

>  <GhoseFilter>
1

>  <FilterItLogS>
-4.18

>  <VMcGowan>
274.18

>  <LabuteASA>
139.5

>  <PEOE_VSA1>
24.63

>  <PEOE_VSA2>
0

>  <PEOE_VSA3>
0

>  <PEOE_VSA4>
0

>  <PEOE_VSA5>
0

>  <PEOE_VSA6>
25.98

>  <PEOE_VSA7>
31.54

>  <PEOE_VSA8>
12.59

>  <PEOE_VSA9>
25.92

>  <PEOE_VSA10>
18.46

>  <PEOE_VSA11>
0

>  <PEOE_VSA12>
0

>  <PEOE_VSA13>
0

>  <SMR_VSA1>
19.32

>  <SMR_VSA2>
0

>  <SMR_VSA3>
5.32

>  <SMR_VSA4>
0

>  <SMR_VSA5>
52.55

>  <SMR_VSA6>
26.37

>  <SMR_VSA7>
29.83

>  <SMR_VSA8>
0

>  <SMR_VSA9>
5.75

>  <SlogP_VSA1>
10.05

>  <SlogP_VSA2>
49.72

>  <SlogP_VSA3>
16.08

>  <SlogP_VSA4>
0

>  <SlogP_VSA5>
33.26

>  <SlogP_VSA6>
24.27

>  <SlogP_VSA7>
0

>  <SlogP_VSA8>
0

>  <SlogP_VSA9>
0

>  <SlogP_VSA10>
0

>  <SlogP_VSA11>
5.75

>  <EState_VSA1>
6.1

>  <EState_VSA2>
12.71

>  <EState_VSA3>
32.41

>  <EState_VSA4>
11.31

>  <EState_VSA5>
0

>  <EState_VSA6>
0

>  <EState_VSA7>
51.96

>  <EState_VSA8>
5.32

>  <EState_VSA9>
14.21

>  <EState_VSA10>
5.11

>  <VSA_EState1>
16.54

>  <VSA_EState2>
0

>  <VSA_EState3>
12.97

>  <VSA_EState4>
1.09

>  <VSA_EState5>
0.75

>  <VSA_EState6>
8.09

>  <VSA_EState7>
-0.28

>  <VSA_EState8>
10.68

>  <VSA_EState9>
0

>  <apol>
55.04

>  <bpol>
36.88

>  <nRing>
1

>  <nHRing>
0

>  <naRing>
1

>  <naHRing>
0

>  <nARing 2>
0

>  <nAHRing 2>
0

>  <nFRing>
0

>  <nFHRing>
0

>  <nFaRing>
0

>  <nFaHRing>
0

>  <nFARing 2>
0

>  <nFAHRing 2>
0

>  <nRot>
12

>  <SLogP>
2.37

>  <SMR>
91.83

>  <TopoPSA(NO)>
59.95

>  <TopoPSA>
59.95

>  <JGI1>
0.22

>  <JGI2>
0.06

>  <JGI3>
0.02

>  <JGI4>
0.04

>  <JGI5>
0.02

>  <Diameter>
17

>  <Radius>
9

>  <TMWC10>
115.45

>  <TSRW10>
55.57

>  <MW>
325.23

>  <AMW>
6.02

>  <WPath>
1650

>  <WPol>
25

>  <Zagreb1>
102

>  <Zagreb2>
107

>  <mZagreb2>
5.33

>  <yes>


>  <nAR-cont>
0.336376

>  <nHA-cont>
0.967789328

>  <MWHBN>
0.388152815

>  <MWHBN-cont>
0.522741453

>  <TPSA-cont>
0.581511773

>  <pka_cont>
0.97

>  <yes.1>


>  <BBB_SCORE>
3.736301054

>  <MMFF94 Energy>
85.912

$$$$
Compound 2955
Actelion Java MolfileCreator 2.0

  0  0  0  0  0  0              0 V3000
M  V30 BEGIN CTAB
M  V30 COUNTS 42 42 0 0 0
M  V30 BEGIN ATOM
M  V30 1 S 6.5154 -0.2377 0.0 0
M  V30 2 O 6.718 -1.6151 -0.3895 0
M  V30 3 O 7.5906 0.7288 -0.0769 0
M  V30 4 N 5.2442 0.4289 -0.8791 0
M  V30 5 C 5.8884 -0.2042 1.6684 0
M  V30 6 C 3.9627 -0.1925 -0.8612 0
M  V30 7 C 2.8691 0.5368 -0.3905 0
M  V30 8 C 3.7831 -1.4997 -1.305 0
M  V30 9 C 1.5961 -0.0405 -0.3441 0
M  V30 10 C 2.5155 -2.08 -1.2631 0
M  V30 11 O 0.6163 0.7799 0.1446 0
M  V30 12 C 1.4232 -1.3537 -0.7814 0
M  V30 13 C -0.7058 0.2261 0.2424 0
M  V30 14 C -1.6172 1.3205 0.8141 0 CFG=1
M  V30 15 O -1.7101 2.4126 -0.1179 0
M  V30 16 C -3.0342 0.8078 1.1304 0
M  V30 17 N -3.6895 0.2761 -0.0717 0
M  V30 18 C -5.0693 -0.1598 0.1641 0
M  V30 19 C -6.0414 1.0141 0.2961 0
M  V30 20 C -5.483 -1.0424 -1.0149 0
M  V30 21 H 5.2706 1.4482 -0.8839 0
M  V30 22 H 5.5956 0.8174 1.9171 0
M  V30 23 H 5.0445 -0.8904 1.7537 0
M  V30 24 H 6.6926 -0.5288 2.3326 0
M  V30 25 H 2.9939 1.5608 -0.0501 0
M  V30 26 H 4.6173 -2.0739 -1.7009 0
M  V30 27 H 2.3781 -3.1004 -1.6136 0
M  V30 28 H 0.4535 -1.8415 -0.7703 0
M  V30 29 H -0.698 -0.6393 0.9147 0
M  V30 30 H -1.0451 -0.0585 -0.7602 0
M  V30 31 H -1.1711 1.7315 1.7274 0
M  V30 32 H -0.7962 2.5918 -0.4083 0
M  V30 33 H -2.9753 0.0288 1.8988 0
M  V30 34 H -3.6137 1.646 1.5317 0
M  V30 35 H -3.6696 1.0104 -0.786 0
M  V30 36 H -5.1171 -0.7743 1.0714 0
M  V30 37 H -6.0033 1.6675 -0.5826 0
M  V30 38 H -5.8243 1.6216 1.1799 0
M  V30 39 H -7.0703 0.6515 0.397 0
M  V30 40 H -4.8134 -1.9041 -1.1141 0
M  V30 41 H -5.4651 -0.4886 -1.9604 0
M  V30 42 H -6.498 -1.4286 -0.8711 0
M  V30 END ATOM
M  V30 BEGIN BOND
M  V30 1 2 1 2
M  V30 2 2 1 3
M  V30 3 1 1 4
M  V30 4 1 1 5
M  V30 5 1 4 6
M  V30 6 2 6 7
M  V30 7 1 6 8
M  V30 8 1 7 9
M  V30 9 2 8 10
M  V30 10 1 9 11
M  V30 11 2 9 12
M  V30 12 1 11 13
M  V30 13 1 13 14
M  V30 14 1 14 15
M  V30 15 1 14 16
M  V30 16 1 16 17
M  V30 17 1 17 18
M  V30 18 1 18 19
M  V30 19 1 18 20
M  V30 20 1 10 12
M  V30 21 1 4 21
M  V30 22 1 5 22
M  V30 23 1 5 23
M  V30 24 1 5 24
M  V30 25 1 7 25
M  V30 26 1 8 26
M  V30 27 1 10 27
M  V30 28 1 12 28
M  V30 29 1 13 29
M  V30 30 1 13 30
M  V30 31 1 14 31
M  V30 32 1 15 32
M  V30 33 1 16 33
M  V30 34 1 16 34
M  V30 35 1 17 35
M  V30 36 1 18 36
M  V30 37 1 19 37
M  V30 38 1 19 38
M  V30 39 1 19 39
M  V30 40 1 20 40
M  V30 41 1 20 41
M  V30 42 1 20 42
M  V30 END BOND
M  V30 BEGIN COLLECTION
M  V30 MDLV30/STEABS ATOMS=(1 14)
M  V30 END COLLECTION
M  V30 END CTAB
M  END
>  <Column 1>
3803

>  <level_0>
6974

>  <index>
6975

>  <Unnamed: 0>
6975

>  <NO.>
6988

>  <Name>


>  <IUPAC_name>


>  <SMILES>
CC(C)NC[C@H](O)COc1cccc(NS(C)(=O)=O)c1

>  <CID>


>  <logBB>


>  <BBB+/BBB->
BBB+

>  <Inchi>
InChI=1S/C13H22N2O4S/c1-10(2)14-8-12(16)9-19-13-6-4-5-11(7-13)15-20(3-17)18/h4-7-10-12-14-16H-8-9H2-1-3H3/t12-/m0/s1

>  <threshold>


>  <reference>
R27|

>  <group>
C

>  <Class>
1

>  <ABC>
14.95

>  <ABCGG>
12.7

>  <nAcid>
0

>  <nBase>
1

>  <nAromAtom>
6

>  <nAromBond>
6

>  <nAtom>
42

>  <nHeavyAtom>
20

>  <nSpiro>
0

>  <nBridgehead>
0

>  <nHetero>
7

>  <nN>
2

>  <nO>
4

>  <nF>
0

>  <BalabanJ>
2.23

>  <BertzCT>
516.86

>  <nBonds>
42

>  <nBondsO>
20

>  <nBondsS>
34

>  <nBondsD>
2

>  <nBondsT>
0

>  <nBondsA>
6

>  <nBondsM>
8

>  <nBondsKS>
37

>  <nBondsKD>
5

>  <RNCG>
0.23

>  <RPCG>
0.11

>  <FCSP3>
0.54

>  <SZ>
27

>  <Sm>
25.18

>  <Sv>
24.52

>  <Sse>
42.49

>  <Sp>
26.76

>  <Si>
47.91

>  <MZ>
0.64

>  <Mm>
0.6

>  <Mv>
0.58

>  <Mse>
1.01

>  <Mp>
0.64

>  <Mi>
1.14

>  <NsCH3>
3

>  <NdCH2>
0

>  <NssCH2>
2

>  <NtCH>
0

>  <NdsCH>
0

>  <NaaCH>
4

>  <NsssCH>
2

>  <NddC>
0

>  <NtsC>
0

>  <NdssC>
0

>  <NaasC>
2

>  <NaaaC>
0

>  <NssssC>
0

>  <NsNH3>
0

>  <NsNH2>
0

>  <NssNH2>
0

>  <NdNH>
0

>  <NssNH>
2

>  <NaaNH>
0

>  <NtN>
0

>  <NsssNH>
0

>  <NdsN>
0

>  <NaaN>
0

>  <NsssN>
0

>  <NddsN>
0

>  <NaasN>
0

>  <NssssN>
0

>  <NsOH>
1

>  <NdO>
2

>  <NssO>
1

>  <NaaO>
0

>  <NsF>
0

>  <NsSiH3>
0

>  <NssSiH2>
0

>  <NsssSiH>
0

>  <NssssSi>
0

>  <NsPH2>
0

>  <NssPH>
0

>  <NsssP>
0

>  <NdsssP>
0

>  <NsssssP>
0

>  <NsSH>
0

>  <NdS>
0

>  <NssS>
0

>  <NaaS>
0

>  <NdssS>
0

>  <NddssS>
1

>  <NsCl>
0

>  <NsBr>
0

>  <NsI>
0

>  <fragCpx>
20.07

>  <fMF>
0.14

>  <nHBAcc>
5

>  <nHBDon>
3

>  <Kier1>
18.05

>  <Kier2>
8.44

>  <Lipinski>
1

>  <GhoseFilter>
1

>  <FilterItLogS>
-3.04

>  <VMcGowan>
230.06

>  <LabuteASA>
119.75

>  <PEOE_VSA1>
15.16

>  <PEOE_VSA2>
4.72

>  <PEOE_VSA3>
8.42

>  <PEOE_VSA4>
0

>  <PEOE_VSA5>
0

>  <PEOE_VSA6>
19.91

>  <PEOE_VSA7>
12.13

>  <PEOE_VSA8>
18.65

>  <PEOE_VSA9>
11.94

>  <PEOE_VSA10>
18.46

>  <PEOE_VSA11>
0

>  <PEOE_VSA12>
10.02

>  <PEOE_VSA13>
0

>  <SMR_VSA1>
18.26

>  <SMR_VSA2>
0

>  <SMR_VSA3>
5.32

>  <SMR_VSA4>
0

>  <SMR_VSA5>
25.99

>  <SMR_VSA6>
24.13

>  <SMR_VSA7>
24.27

>  <SMR_VSA8>
0

>  <SMR_VSA9>
5.75

>  <SlogP_VSA1>
14.78

>  <SlogP_VSA2>
45.08

>  <SlogP_VSA3>
10.02

>  <SlogP_VSA4>
0

>  <SlogP_VSA5>
13.85

>  <SlogP_VSA6>
24.27

>  <SlogP_VSA7>
0

>  <SlogP_VSA8>
0

>  <SlogP_VSA9>
0

>  <SlogP_VSA10>
5.69

>  <SlogP_VSA11>
5.75

>  <EState_VSA1>
16.13

>  <EState_VSA2>
6.61

>  <EState_VSA3>
24.02

>  <EState_VSA4>
6.26

>  <EState_VSA5>
0

>  <EState_VSA6>
24.27

>  <EState_VSA7>
13.85

>  <EState_VSA8>
10.04

>  <EState_VSA9>
4.74

>  <EState_VSA10>
13.52

>  <VSA_EState1>
30.05

>  <VSA_EState2>
0

>  <VSA_EState3>
12.82

>  <VSA_EState4>
0.43

>  <VSA_EState5>
0.5

>  <VSA_EState6>
6.89

>  <VSA_EState7>
0.46

>  <VSA_EState8>
4.57

>  <VSA_EState9>
-3.31

>  <apol>
44.69

>  <bpol>
31.6

>  <nRing>
1

>  <nHRing>
0

>  <naRing>
1

>  <naHRing>
0

>  <nARing 2>
0

>  <nAHRing 2>
0

>  <nFRing>
0

>  <nFHRing>
0

>  <nFaRing>
0

>  <nFaHRing>
0

>  <nFARing 2>
0

>  <nFAHRing 2>
0

>  <nRot>
8

>  <SLogP>
0.8

>  <SMR>
79.55

>  <TopoPSA(NO)>
87.66

>  <TopoPSA>
96.04

>  <JGI1>
0.33

>  <JGI2>
0.06

>  <JGI3>
0.05

>  <JGI4>
0.05

>  <JGI5>
0.03

>  <Diameter>
12

>  <Radius>
6

>  <TMWC10>
109.72

>  <TSRW10>
52.55

>  <MW>
302.13

>  <AMW>
7.19

>  <WPath>
972

>  <WPol>
22

>  <Zagreb1>
94

>  <Zagreb2>
99

>  <mZagreb2>
4.38

>  <yes>


>  <nAR-cont>
0.336376

>  <nHA-cont>
0.999629945

>  <MWHBN>
0.460249221

>  <MWHBN-cont>
0

>  <TPSA-cont>
0.329581163

>  <pka_cont>
0.97

>  <yes.1>


>  <BBB_SCORE>
2.48016827

>  <MMFF94 Energy>
-3.9424

$$$$
Compound 2956
Actelion Java MolfileCreator 2.0

  0  0  0  0  0  0              0 V3000
M  V30 BEGIN CTAB
M  V30 COUNTS 39 40 0 0 0
M  V30 BEGIN ATOM
M  V30 1 O 0.0 -0.1571 -2.8316 0
M  V30 2 C 0.336 0.4952 -1.5944 0 CFG=1
M  V30 3 C -0.9215 0.9277 -0.8436 0
M  V30 4 C 1.2489 -0.4627 -0.7501 0 CFG=1
M  V30 5 C -0.8756 1.9295 0.1747 0
M  V30 6 C -2.1501 0.3043 -1.1391 0
M  V30 7 N 0.6561 -1.8252 -0.7676 0
M  V30 8 C 2.6598 -0.4676 -1.3532 0
M  V30 9 C -2.071 2.2543 0.869 0
M  V30 10 C 0.2959 2.6344 0.5449 0
M  V30 11 C -3.3116 0.6388 -0.4523 0
M  V30 12 C 1.3456 -2.8304 0.0535 0
M  V30 13 C -3.2698 1.6042 0.5468 0
M  V30 14 C -2.0604 3.2292 1.8805 0
M  V30 15 C 0.2905 3.6022 1.5534 0
M  V30 16 C 1.3002 -2.5131 1.5494 0
M  V30 17 C 0.6646 -4.1775 -0.2066 0
M  V30 18 C -0.8878 3.8984 2.2225 0
M  V30 19 H 0.1859 -1.1044 -2.6644 0
M  V30 20 H 0.886 1.3956 -1.889 0
M  V30 21 H 1.311 -0.0851 0.2754 0
M  V30 22 H -2.21 -0.4503 -1.9212 0
M  V30 23 H -0.3089 -1.748 -0.4313 0
M  V30 24 H 3.3666 -1.0141 -0.7212 0
M  V30 25 H 3.0427 0.5548 -1.4443 0
M  V30 26 H 2.6723 -0.9197 -2.3509 0
M  V30 27 H 1.243 2.4472 0.0467 0
M  V30 28 H -4.2498 0.1492 -0.6992 0
M  V30 29 H 2.3883 -2.9341 -0.2635 0
M  V30 30 H -4.1902 1.8519 1.0716 0
M  V30 31 H -2.9761 3.4786 2.413 0
M  V30 32 H 1.2083 4.1249 1.8098 0
M  V30 33 H 0.2726 -2.3539 1.895 0
M  V30 34 H 1.8835 -1.6188 1.7896 0
M  V30 35 H 1.7231 -3.3392 2.1317 0
M  V30 36 H 0.7038 -4.4382 -1.2703 0
M  V30 37 H -0.3872 -4.1655 0.1013 0
M  V30 38 H 1.1672 -4.9779 0.3473 0
M  V30 39 H -0.8986 4.6514 3.0058 0
M  V30 END ATOM
M  V30 BEGIN BOND
M  V30 1 1 1 2
M  V30 2 1 2 3
M  V30 3 1 2 4
M  V30 4 1 3 5
M  V30 5 2 3 6
M  V30 6 1 4 7
M  V30 7 1 4 8
M  V30 8 1 5 9
M  V30 9 2 5 10
M  V30 10 1 6 11
M  V30 11 1 7 12
M  V30 12 1 9 13
M  V30 13 2 9 14
M  V30 14 1 10 15
M  V30 15 1 12 16
M  V30 16 1 12 17
M  V30 17 1 14 18
M  V30 18 2 11 13
M  V30 19 2 15 18
M  V30 20 1 1 19
M  V30 21 1 2 20
M  V30 22 1 4 21
M  V30 23 1 6 22
M  V30 24 1 7 23
M  V30 25 1 8 24
M  V30 26 1 8 25
M  V30 27 1 8 26
M  V30 28 1 10 27
M  V30 29 1 11 28
M  V30 30 1 12 29
M  V30 31 1 13 30
M  V30 32 1 14 31
M  V30 33 1 15 32
M  V30 34 1 16 33
M  V30 35 1 16 34
M  V30 36 1 16 35
M  V30 37 1 17 36
M  V30 38 1 17 37
M  V30 39 1 17 38
M  V30 40 1 18 39
M  V30 END BOND
M  V30 BEGIN COLLECTION
M  V30 MDLV30/STEABS ATOMS=(2 2 4)
M  V30 END COLLECTION
M  V30 END CTAB
M  END
>  <Column 1>
3804

>  <level_0>
6975

>  <index>
6976

>  <Unnamed: 0>
6976

>  <NO.>
6989

>  <Name>


>  <IUPAC_name>


>  <SMILES>
CC(C)N[C@@H](C)[C@@H](O)c1cccc2ccccc12

>  <CID>


>  <logBB>


>  <BBB+/BBB->
BBB+

>  <Inchi>
InChI=1S/C16H21NO/c1-11(2)17-12(3)16(18)15-10-6-8-13-7-4-5-9-14(13)15/h4-12-16-18H-1-3H3/t12--16+/m0/s1

>  <threshold>


>  <reference>
R27|

>  <group>
C

>  <Class>
1

>  <ABC>
13.71

>  <ABCGG>
11.91

>  <nAcid>
0

>  <nBase>
1

>  <nAromAtom>
10

>  <nAromBond>
11

>  <nAtom>
39

>  <nHeavyAtom>
18

>  <nSpiro>
0

>  <nBridgehead>
0

>  <nHetero>
2

>  <nN>
1

>  <nO>
1

>  <nF>
0

>  <BalabanJ>
1.97

>  <BertzCT>
515.99

>  <nBonds>
40

>  <nBondsO>
19

>  <nBondsS>
29

>  <nBondsD>
0

>  <nBondsT>
0

>  <nBondsA>
11

>  <nBondsM>
11

>  <nBondsKS>
35

>  <nBondsKD>
5

>  <RNCG>
0.3

>  <RPCG>
0.16

>  <FCSP3>
0.38

>  <SZ>
22

>  <Sm>
20.26

>  <Sv>
23.16

>  <Sse>
38.32

>  <Sp>
25.52

>  <Si>
43.86

>  <MZ>
0.56

>  <Mm>
0.52

>  <Mv>
0.59

>  <Mse>
0.98

>  <Mp>
0.65

>  <Mi>
1.12

>  <NsCH3>
3

>  <NdCH2>
0

>  <NssCH2>
0

>  <NtCH>
0

>  <NdsCH>
0

>  <NaaCH>
7

>  <NsssCH>
3

>  <NddC>
0

>  <NtsC>
0

>  <NdssC>
0

>  <NaasC>
1

>  <NaaaC>
2

>  <NssssC>
0

>  <NsNH3>
0

>  <NsNH2>
0

>  <NssNH2>
0

>  <NdNH>
0

>  <NssNH>
1

>  <NaaNH>
0

>  <NtN>
0

>  <NsssNH>
0

>  <NdsN>
0

>  <NaaN>
0

>  <NsssN>
0

>  <NddsN>
0

>  <NaasN>
0

>  <NssssN>
0

>  <NsOH>
1

>  <NdO>
0

>  <NssO>
0

>  <NaaO>
0

>  <NsF>
0

>  <NsSiH3>
0

>  <NssSiH2>
0

>  <NsssSiH>
0

>  <NssssSi>
0

>  <NsPH2>
0

>  <NssPH>
0

>  <NsssP>
0

>  <NdsssP>
0

>  <NsssssP>
0

>  <NsSH>
0

>  <NdS>
0

>  <NssS>
0

>  <NaaS>
0

>  <NdssS>
0

>  <NddssS>
0

>  <NsCl>
0

>  <NsBr>
0

>  <NsI>
0

>  <fragCpx>
55.02

>  <fMF>
0.26

>  <nHBAcc>
2

>  <nHBDon>
2

>  <Kier1>
14.41

>  <Kier2>
6.44

>  <Lipinski>
1

>  <GhoseFilter>
1

>  <FilterItLogS>
-3.8

>  <VMcGowan>
208.93

>  <LabuteASA>
108.65

>  <PEOE_VSA1>
10.42

>  <PEOE_VSA2>
0

>  <PEOE_VSA3>
0

>  <PEOE_VSA4>
0

>  <PEOE_VSA5>
0

>  <PEOE_VSA6>
56.31

>  <PEOE_VSA7>
23.26

>  <PEOE_VSA8>
12.08

>  <PEOE_VSA9>
6.1

>  <PEOE_VSA10>
0

>  <PEOE_VSA11>
0

>  <PEOE_VSA12>
0

>  <PEOE_VSA13>
0

>  <SMR_VSA1>
5.11

>  <SMR_VSA2>
0

>  <SMR_VSA3>
5.32

>  <SMR_VSA4>
0

>  <SMR_VSA5>
38.96

>  <SMR_VSA6>
0

>  <SMR_VSA7>
48.03

>  <SMR_VSA8>
0

>  <SMR_VSA9>
0

>  <SlogP_VSA1>
5.32

>  <SlogP_VSA2>
17.19

>  <SlogP_VSA3>
0

>  <SlogP_VSA4>
0

>  <SlogP_VSA5>
32.44

>  <SlogP_VSA6>
42.46

>  <SlogP_VSA7>
0

>  <SlogP_VSA8>
10.77

>  <SlogP_VSA9>
0

>  <SlogP_VSA10>
0

>  <SlogP_VSA11>
0

>  <EState_VSA1>
6.1

>  <EState_VSA2>
6.04

>  <EState_VSA3>
6.04

>  <EState_VSA4>
10.95

>  <EState_VSA5>
5.39

>  <EState_VSA6>
0

>  <EState_VSA7>
31.19

>  <EState_VSA8>
37.36

>  <EState_VSA9>
0

>  <EState_VSA10>
5.11

>  <VSA_EState1>
0

>  <VSA_EState2>
0

>  <VSA_EState3>
16.13

>  <VSA_EState4>
0.99

>  <VSA_EState5>
0

>  <VSA_EState6>
14.66

>  <VSA_EState7>
-0.49

>  <VSA_EState8>
6.2

>  <VSA_EState9>
0

>  <apol>
42.62

>  <bpol>
21.64

>  <nRing>
2

>  <nHRing>
0

>  <naRing>
2

>  <naHRing>
0

>  <nARing 2>
0

>  <nAHRing 2>
0

>  <nFRing>
1

>  <nFHRing>
0

>  <nFaRing>
1

>  <nFaHRing>
0

>  <nFARing 2>
0

>  <nFAHRing 2>
0

>  <nRot>
4

>  <SLogP>
3.26

>  <SMR>
76.64

>  <TopoPSA(NO)>
32.26

>  <TopoPSA>
32.26

>  <JGI1>
0.18

>  <JGI2>
0.09

>  <JGI3>
0.05

>  <JGI4>
0.04

>  <JGI5>
0.02

>  <Diameter>
9

>  <Radius>
5

>  <TMWC10>
108.59

>  <TSRW10>
50.91

>  <MW>
243.16

>  <AMW>
6.23

>  <WPath>
598

>  <WPol>
27

>  <Zagreb1>
90

>  <Zagreb2>
104

>  <mZagreb2>
4.03

>  <yes>


>  <nAR-cont>
0.336376

>  <nHA-cont>
0.991161285

>  <MWHBN>
0.256515684

>  <MWHBN-cont>
0.948160012

>  <TPSA-cont>
0.774805168

>  <pka_cont>
0.97

>  <yes.1>


>  <BBB_SCORE>
4.784387638

>  <MMFF94 Energy>
65.754

$$$$
Compound 2957
Actelion Java MolfileCreator 2.0

  0  0  0  0  0  0              0 V3000
M  V30 BEGIN CTAB
M  V30 COUNTS 29 29 0 0 0
M  V30 BEGIN ATOM
M  V30 1 O -0.1551 -2.7961 3.1849 0
M  V30 2 C 0.4079 -1.8907 2.3318 0
M  V30 3 C 1.3825 -1.0118 2.7951 0
M  V30 4 C -0.0074 -1.8633 1.0076 0
M  V30 5 O 1.7403 -1.0958 4.1121 0
M  V30 6 C 1.9571 -0.0861 1.9348 0
M  V30 7 C 0.5638 -0.9409 0.1152 0
M  V30 8 C 1.5452 -0.0517 0.5985 0
M  V30 9 C 0.0965 -0.9046 -1.3287 0 CFG=2
M  V30 10 O 1.1296 -0.4917 -2.2022 0
M  V30 11 N -1.1291 -0.151 -1.5414 0
M  V30 12 C -1.089 1.2887 -1.263 0
M  V30 13 C -0.292 2.0869 -2.2962 0
M  V30 14 C -2.5375 1.7972 -1.2545 0
M  V30 15 H 0.2834 -2.6287 4.0432 0
M  V30 16 H -0.7732 -2.5602 0.6773 0
M  V30 17 H 2.4176 -0.4192 4.2849 0
M  V30 18 H 2.7133 0.6132 2.2764 0
M  V30 19 H 1.9843 0.6854 -0.0727 0
M  V30 20 H -0.1192 -1.9393 -1.6235 0
M  V30 21 H 1.8945 -1.0518 -1.9954 0
M  V30 22 H -1.8494 -0.5777 -0.9626 0
M  V30 23 H -0.6827 1.484 -0.2648 0
M  V30 24 H -0.6005 1.8399 -3.3182 0
M  V30 25 H 0.7829 1.9089 -2.2074 0
M  V30 26 H -0.4441 3.1631 -2.1555 0
M  V30 27 H -3.1333 1.2808 -0.4931 0
M  V30 28 H -3.0227 1.647 -2.2258 0
M  V30 29 H -2.5712 2.8678 -1.0238 0
M  V30 END ATOM
M  V30 BEGIN BOND
M  V30 1 1 1 2
M  V30 2 2 2 3
M  V30 3 1 2 4
M  V30 4 1 3 5
M  V30 5 1 3 6
M  V30 6 2 4 7
M  V30 7 2 6 8
M  V30 8 1 7 9
M  V30 9 1 9 10
M  V30 10 1 9 11
M  V30 11 1 11 12
M  V30 12 1 12 13
M  V30 13 1 12 14
M  V30 14 1 7 8
M  V30 15 1 1 15
M  V30 16 1 4 16
M  V30 17 1 5 17
M  V30 18 1 6 18
M  V30 19 1 8 19
M  V30 20 1 9 20
M  V30 21 1 10 21
M  V30 22 1 11 22
M  V30 23 1 12 23
M  V30 24 1 13 24
M  V30 25 1 13 25
M  V30 26 1 13 26
M  V30 27 1 14 27
M  V30 28 1 14 28
M  V30 29 1 14 29
M  V30 END BOND
M  V30 BEGIN COLLECTION
M  V30 MDLV30/STEABS ATOMS=(1 9)
M  V30 END COLLECTION
M  V30 END CTAB
M  END
>  <Column 1>
3805

>  <level_0>
6976

>  <index>
6977

>  <Unnamed: 0>
6977

>  <NO.>
6990

>  <Name>


>  <IUPAC_name>


>  <SMILES>
CC(C)N[C@@H](O)c1ccc(O)c(O)c1

>  <CID>


>  <logBB>


>  <BBB+/BBB->
BBB+

>  <Inchi>
InChI=1S/C10H15NO3/c1-6(2)11-10(14)7-3-4-8(12)9(13)5-7/h3-6-10-14H-1-2H3/t10-/m0/s1

>  <threshold>


>  <reference>
R27|

>  <group>
C

>  <Class>
1

>  <ABC>
10.37

>  <ABCGG>
9.62

>  <nAcid>
0

>  <nBase>
1

>  <nAromAtom>
6

>  <nAromBond>
6

>  <nAtom>
29

>  <nHeavyAtom>
14

>  <nSpiro>
0

>  <nBridgehead>
0

>  <nHetero>
4

>  <nN>
1

>  <nO>
3

>  <nF>
0

>  <BalabanJ>
2.38

>  <BertzCT>
312.24

>  <nBonds>
29

>  <nBondsO>
14

>  <nBondsS>
23

>  <nBondsD>
0

>  <nBondsT>
0

>  <nBondsA>
6

>  <nBondsM>
6

>  <nBondsKS>
26

>  <nBondsKD>
3

>  <RNCG>
0.27

>  <RPCG>
0.16

>  <FCSP3>
0.4

>  <SZ>
17.67

>  <Sm>
16.42

>  <Sv>
16.97

>  <Sse>
29.31

>  <Sp>
18.09

>  <Si>
33.03

>  <MZ>
0.61

>  <Mm>
0.57

>  <Mv>
0.59

>  <Mse>
1.01

>  <Mp>
0.62

>  <Mi>
1.14

>  <NsCH3>
2

>  <NdCH2>
0

>  <NssCH2>
0

>  <NtCH>
0

>  <NdsCH>
0

>  <NaaCH>
3

>  <NsssCH>
2

>  <NddC>
0

>  <NtsC>
0

>  <NdssC>
0

>  <NaasC>
3

>  <NaaaC>
0

>  <NssssC>
0

>  <NsNH3>
0

>  <NsNH2>
0

>  <NssNH2>
0

>  <NdNH>
0

>  <NssNH>
1

>  <NaaNH>
0

>  <NtN>
0

>  <NsssNH>
0

>  <NdsN>
0

>  <NaaN>
0

>  <NsssN>
0

>  <NddsN>
0

>  <NaasN>
0

>  <NssssN>
0

>  <NsOH>
3

>  <NdO>
0

>  <NssO>
0

>  <NaaO>
0

>  <NsF>
0

>  <NsSiH3>
0

>  <NssSiH2>
0

>  <NsssSiH>
0

>  <NssssSi>
0

>  <NsPH2>
0

>  <NssPH>
0

>  <NsssP>
0

>  <NdsssP>
0

>  <NsssssP>
0

>  <NsSH>
0

>  <NdS>
0

>  <NssS>
0

>  <NaaS>
0

>  <NdssS>
0

>  <NddssS>
0

>  <NsCl>
0

>  <NsBr>
0

>  <NsI>
0

>  <fragCpx>
14.04

>  <fMF>
0.21

>  <nHBAcc>
4

>  <nHBDon>
4

>  <Kier1>
12.07

>  <Kier2>
5.19

>  <Lipinski>
1

>  <GhoseFilter>
1

>  <FilterItLogS>
-1.15

>  <VMcGowan>
155.59

>  <LabuteASA>
82.82

>  <PEOE_VSA1>
15.32

>  <PEOE_VSA2>
5.32

>  <PEOE_VSA3>
0

>  <PEOE_VSA4>
0

>  <PEOE_VSA5>
0

>  <PEOE_VSA6>
6.07

>  <PEOE_VSA7>
31.54

>  <PEOE_VSA8>
6.04

>  <PEOE_VSA9>
0

>  <PEOE_VSA10>
6.23

>  <PEOE_VSA11>
11.5

>  <PEOE_VSA12>
0

>  <PEOE_VSA13>
0

>  <SMR_VSA1>
15.32

>  <SMR_VSA2>
0

>  <SMR_VSA3>
5.32

>  <SMR_VSA4>
0

>  <SMR_VSA5>
26.12

>  <SMR_VSA6>
0

>  <SMR_VSA7>
23.76

>  <SMR_VSA8>
0

>  <SMR_VSA9>
11.5

>  <SlogP_VSA1>
5.32

>  <SlogP_VSA2>
21.36

>  <SlogP_VSA3>
0

>  <SlogP_VSA4>
0

>  <SlogP_VSA5>
25.64

>  <SlogP_VSA6>
18.2

>  <SlogP_VSA7>
0

>  <SlogP_VSA8>
0

>  <SlogP_VSA9>
0

>  <SlogP_VSA10>
0

>  <SlogP_VSA11>
11.5

>  <EState_VSA1>
6.23

>  <EState_VSA2>
17.54

>  <EState_VSA3>
5.56

>  <EState_VSA4>
0

>  <EState_VSA5>
12.13

>  <EState_VSA6>
6.07

>  <EState_VSA7>
13.85

>  <EState_VSA8>
5.32

>  <EState_VSA9>
5.11

>  <EState_VSA10>
10.21

>  <VSA_EState1>
0

>  <VSA_EState2>
0

>  <VSA_EState3>
30.72

>  <VSA_EState4>
0.52

>  <VSA_EState5>
-0.42

>  <VSA_EState6>
4.36

>  <VSA_EState7>
-0.83

>  <VSA_EState8>
3.81

>  <VSA_EState9>
0

>  <apol>
30.21

>  <bpol>
15.62

>  <nRing>
1

>  <nHRing>
0

>  <naRing>
1

>  <naHRing>
0

>  <nARing 2>
0

>  <nAHRing 2>
0

>  <nFRing>
0

>  <nFHRing>
0

>  <nFaRing>
0

>  <nFaHRing>
0

>  <nFARing 2>
0

>  <nFAHRing 2>
0

>  <nRot>
3

>  <SLogP>
1.09

>  <SMR>
53

>  <TopoPSA(NO)>
72.72

>  <TopoPSA>
72.72

>  <JGI1>
0.29

>  <JGI2>
0.11

>  <JGI3>
0.05

>  <JGI4>
0.06

>  <JGI5>
0.03

>  <Diameter>
8

>  <Radius>
4

>  <TMWC10>
95.43

>  <TSRW10>
45.08

>  <MW>
197.11

>  <AMW>
6.8

>  <WPath>
316

>  <WPol>
18

>  <Zagreb1>
66

>  <Zagreb2>
73

>  <mZagreb2>
3.14

>  <yes>


>  <nAR-cont>
0.336376

>  <nHA-cont>
0.887625254

>  <MWHBN>
0.569817336

>  <MWHBN-cont>
0

>  <TPSA-cont>
0.492369244

>  <pka_cont>
0.97

>  <yes.1>


>  <BBB_SCORE>
2.693739741

>  <MMFF94 Energy>
-37.448

$$$$
Compound 2958
Actelion Java MolfileCreator 2.0

  0  0  0  0  0  0              0 V3000
M  V30 BEGIN CTAB
M  V30 COUNTS 59 63 0 0 0
M  V30 BEGIN ATOM
M  V30 1 F 0.4874 0.4874 3.66 0
M  V30 2 C 0.567 0.0594 2.352 0 CFG=1
M  V30 3 C 1.988 -0.6 2.1651 0 CFG=1
M  V30 4 C -0.6623 -0.8777 2.1367 0 CFG=2
M  V30 5 C 0.3971 1.3337 1.4492 0 CFG=2
M  V30 6 C 3.0704 0.4696 2.3161 0
M  V30 7 C 2.2745 -1.7931 3.0555 0
M  V30 8 O -0.5951 -2.0879 2.8865 0
M  V30 9 C -0.9088 -1.2405 0.6595 0
M  V30 10 C 0.1927 0.8972 -0.0125 0 CFG=1
M  V30 11 C 1.5704 2.3128 1.6263 0
M  V30 12 C 4.0686 0.4026 3.2146 0
M  V30 13 C 2.9307 1.6616 1.4105 0
M  V30 14 C 3.2678 -1.8677 3.9516 0
M  V30 15 C -1.0662 0.0184 -0.2173 0 CFG=1
M  V30 16 C 0.0585 1.9568 -1.103 0
M  V30 17 C 4.2143 -0.7503 4.1267 0
M  V30 18 C -1.028 -0.1779 -1.7682 0 CFG=2
M  V30 19 C -2.3877 0.7333 0.1876 0
M  V30 20 C -0.4684 1.1549 -2.3055 0 CFG=1
M  V30 21 O 5.0977 -0.7871 4.9734 0
M  V30 22 O -2.3218 -0.3155 -2.3579 0
M  V30 23 C -0.1385 -1.349 -2.2161 0
M  V30 24 O -1.5708 1.8166 -2.9206 0
M  V30 25 C -2.4856 0.7785 -3.2702 0
M  V30 26 O 1.0901 -1.2516 -2.3031 0
M  V30 27 C -0.8302 -2.6717 -2.5297 0
M  V30 28 C -2.1976 0.2957 -4.6924 0
M  V30 29 C -3.91 1.307 -3.1702 0
M  V30 30 O 0.1042 -3.7394 -2.6059 0
M  V30 31 H 2.0644 -0.9844 1.1398 0
M  V30 32 H -1.5444 -0.3662 2.536 0
M  V30 33 H -0.4895 1.8802 1.7931 0
M  V30 34 H 1.6529 -2.6752 2.9252 0
M  V30 35 H -0.4981 -1.827 3.8234 0
M  V30 36 H -1.7984 -1.8783 0.5794 0
M  V30 37 H -0.0742 -1.8652 0.3196 0
M  V30 38 H 1.073 0.304 -0.2917 0
M  V30 39 H 1.5308 2.7246 2.6441 0
M  V30 40 H 1.4609 3.1691 0.9512 0
M  V30 41 H 4.8145 1.181 3.3285 0
M  V30 42 H 3.0509 1.3458 0.368 0
M  V30 43 H 3.7154 2.4037 1.6016 0
M  V30 44 H 3.4387 -2.746 4.5621 0
M  V30 45 H 1.0275 2.41 -1.3379 0
M  V30 46 H -0.6212 2.7665 -0.8167 0
M  V30 47 H -3.2476 0.0735 0.023 0
M  V30 48 H -2.416 1.0307 1.2381 0
M  V30 49 H -2.5614 1.648 -0.3853 0
M  V30 50 H 0.3188 1.0298 -3.0574 0
M  V30 51 H -1.5525 -2.9111 -1.7459 0
M  V30 52 H -1.3406 -2.5884 -3.4927 0
M  V30 53 H -1.1759 -0.0888 -4.7828 0
M  V30 54 H -2.2963 1.1134 -5.4142 0
M  V30 55 H -2.872 -0.519 -4.9767 0
M  V30 56 H -4.6415 0.5247 -3.3986 0
M  V30 57 H -4.1239 1.6607 -2.1562 0
M  V30 58 H -4.0674 2.1554 -3.8446 0
M  V30 59 H 0.9469 -3.3515 -2.915 0
M  V30 END ATOM
M  V30 BEGIN BOND
M  V30 1 1 1 2
M  V30 2 1 2 3
M  V30 3 1 2 4
M  V30 4 1 2 5
M  V30 5 1 3 6
M  V30 6 1 3 7
M  V30 7 1 4 8
M  V30 8 1 4 9
M  V30 9 1 5 10
M  V30 10 1 5 11
M  V30 11 2 6 12
M  V30 12 1 6 13
M  V30 13 2 7 14
M  V30 14 1 9 15
M  V30 15 1 10 16
M  V30 16 1 12 17
M  V30 17 1 15 18
M  V30 18 1 15 19
M  V30 19 1 16 20
M  V30 20 2 17 21
M  V30 21 1 18 22
M  V30 22 1 18 23
M  V30 23 1 20 24
M  V30 24 1 22 25
M  V30 25 2 23 26
M  V30 26 1 23 27
M  V30 27 1 25 28
M  V30 28 1 25 29
M  V30 29 1 27 30
M  V30 30 1 10 15
M  V30 31 1 11 13
M  V30 32 1 14 17
M  V30 33 1 18 20
M  V30 34 1 24 25
M  V30 35 1 3 31
M  V30 36 1 4 32
M  V30 37 1 5 33
M  V30 38 1 7 34
M  V30 39 1 8 35
M  V30 40 1 9 36
M  V30 41 1 9 37
M  V30 42 1 10 38
M  V30 43 1 11 39
M  V30 44 1 11 40
M  V30 45 1 12 41
M  V30 46 1 13 42
M  V30 47 1 13 43
M  V30 48 1 14 44
M  V30 49 1 16 45
M  V30 50 1 16 46
M  V30 51 1 19 47
M  V30 52 1 19 48
M  V30 53 1 19 49
M  V30 54 1 20 50
M  V30 55 1 27 51
M  V30 56 1 27 52
M  V30 57 1 28 53
M  V30 58 1 28 54
M  V30 59 1 28 55
M  V30 60 1 29 56
M  V30 61 1 29 57
M  V30 62 1 29 58
M  V30 63 1 30 59
M  V30 END BOND
M  V30 BEGIN COLLECTION
M  V30 MDLV30/STEABS ATOMS=(8 2 3 4 5 10 15 18 20)
M  V30 END COLLECTION
M  V30 END CTAB
M  END
>  <Column 1>
3806

>  <level_0>
6989

>  <index>
6990

>  <Unnamed: 0>
6990

>  <NO.>
7003

>  <Name>


>  <IUPAC_name>


>  <SMILES>
CC1(C)O[C@H]2C[C@H]3[C@@H]4CCC5=CC(=O)C=C[C@H]5[C@]4(F)[C@H](O)C[C@]3(C)[C@@]2(C(=O)CO)O1

>  <CID>


>  <logBB>


>  <BBB+/BBB->
BBB+

>  <Inchi>
InChI=1S/C23H29FO6/c1-20(2)29-19-9-16-15-6-4-12-8-13(26)5-7-14(12)22(15-24)17(27)10-21(16-3)23(19-30-20)18(28)11-25/h5-7-8-14-17-19-25-27H-4-6-9-11H2-1-3H3/t14--15+-16+-17--19+-21+-22--23+/m1/s1

>  <threshold>


>  <reference>
R27|

>  <group>
C

>  <Class>
1

>  <ABC>
24.46

>  <ABCGG>
19.7

>  <nAcid>
0

>  <nBase>
0

>  <nAromAtom>
0

>  <nAromBond>
0

>  <nAtom>
59

>  <nHeavyAtom>
30

>  <nSpiro>
0

>  <nBridgehead>
0

>  <nHetero>
7

>  <nN>
0

>  <nO>
6

>  <nF>
1

>  <BalabanJ>
1.55

>  <BertzCT>
878.92

>  <nBonds>
63

>  <nBondsO>
34

>  <nBondsS>
59

>  <nBondsD>
4

>  <nBondsT>
0

>  <nBondsA>
0

>  <nBondsM>
4

>  <nBondsKS>
59

>  <nBondsKD>
4

>  <RNCG>
0.15

>  <RPCG>
0.08

>  <FCSP3>
0.74

>  <SZ>
37.33

>  <Sm>
35.01

>  <Sv>
35.79

>  <Sse>
59.81

>  <Sp>
37.79

>  <Si>
66.83

>  <MZ>
0.63

>  <Mm>
0.59

>  <Mv>
0.61

>  <Mse>
1.01

>  <Mp>
0.64

>  <Mi>
1.13

>  <NsCH3>
3

>  <NdCH2>
0

>  <NssCH2>
5

>  <NtCH>
0

>  <NdsCH>
3

>  <NaaCH>
0

>  <NsssCH>
5

>  <NddC>
0

>  <NtsC>
0

>  <NdssC>
3

>  <NaasC>
0

>  <NaaaC>
0

>  <NssssC>
4

>  <NsNH3>
0

>  <NsNH2>
0

>  <NssNH2>
0

>  <NdNH>
0

>  <NssNH>
0

>  <NaaNH>
0

>  <NtN>
0

>  <NsssNH>
0

>  <NdsN>
0

>  <NaaN>
0

>  <NsssN>
0

>  <NddsN>
0

>  <NaasN>
0

>  <NssssN>
0

>  <NsOH>
2

>  <NdO>
2

>  <NssO>
2

>  <NaaO>
0

>  <NsF>
1

>  <NsSiH3>
0

>  <NssSiH2>
0

>  <NsssSiH>
0

>  <NssssSi>
0

>  <NsPH2>
0

>  <NssPH>
0

>  <NsssP>
0

>  <NdsssP>
0

>  <NsssssP>
0

>  <NsSH>
0

>  <NdS>
0

>  <NssS>
0

>  <NaaS>
0

>  <NdssS>
0

>  <NddssS>
0

>  <NsCl>
0

>  <NsBr>
0

>  <NsI>
0

>  <fragCpx>
286.07

>  <fMF>
0.34

>  <nHBAcc>
6

>  <nHBDon>
2

>  <Kier1>
21.83

>  <Kier2>
6.76

>  <Lipinski>
1

>  <GhoseFilter>
1

>  <FilterItLogS>
-2.87

>  <VMcGowan>
300.41

>  <LabuteASA>
174.66

>  <PEOE_VSA1>
19.69

>  <PEOE_VSA2>
9.59

>  <PEOE_VSA3>
4.39

>  <PEOE_VSA4>
0

>  <PEOE_VSA5>
0

>  <PEOE_VSA6>
18.57

>  <PEOE_VSA7>
57.6

>  <PEOE_VSA8>
17.25

>  <PEOE_VSA9>
12.21

>  <PEOE_VSA10>
12.28

>  <PEOE_VSA11>
22.95

>  <PEOE_VSA12>
0

>  <PEOE_VSA13>
0

>  <SMR_VSA1>
33.67

>  <SMR_VSA2>
0

>  <SMR_VSA3>
0

>  <SMR_VSA4>
23.17

>  <SMR_VSA5>
75.72

>  <SMR_VSA6>
6.61

>  <SMR_VSA7>
23.8

>  <SMR_VSA8>
0

>  <SMR_VSA9>
0

>  <SlogP_VSA1>
0

>  <SlogP_VSA2>
57.65

>  <SlogP_VSA3>
19.06

>  <SlogP_VSA4>
23.17

>  <SlogP_VSA5>
46.45

>  <SlogP_VSA6>
23.8

>  <SlogP_VSA7>
0

>  <SlogP_VSA8>
0

>  <SlogP_VSA9>
0

>  <SlogP_VSA10>
4.39

>  <SlogP_VSA11>
0

>  <EState_VSA1>
58.91

>  <EState_VSA2>
18.12

>  <EState_VSA3>
19.26

>  <EState_VSA4>
5.57

>  <EState_VSA5>
12.15

>  <EState_VSA6>
19.92

>  <EState_VSA7>
6.92

>  <EState_VSA8>
0

>  <EState_VSA9>
9.47

>  <EState_VSA10>
19.8

>  <VSA_EState1>
29.08

>  <VSA_EState2>
24.89

>  <VSA_EState3>
20.98

>  <VSA_EState4>
-3.47

>  <VSA_EState5>
-3.03

>  <VSA_EState6>
0

>  <VSA_EState7>
4.07

>  <VSA_EState8>
4.65

>  <VSA_EState9>
0

>  <apol>
63.12

>  <bpol>
35.41

>  <nRing>
5

>  <nHRing>
1

>  <naRing>
0

>  <naHRing>
0

>  <nARing 2>
5

>  <nAHRing 2>
1

>  <nFRing>
1

>  <nFHRing>
1

>  <nFaRing>
0

>  <nFaHRing>
0

>  <nFARing 2>
1

>  <nFAHRing 2>
1

>  <nRot>
2

>  <SLogP>
2.03

>  <SMR>
103.98

>  <TopoPSA(NO)>
93.06

>  <TopoPSA>
93.06

>  <JGI1>
0.32

>  <JGI2>
0.13

>  <JGI3>
0.08

>  <JGI4>
0.06

>  <JGI5>
0.04

>  <Diameter>
12

>  <Radius>
6

>  <TMWC10>
146.53

>  <TSRW10>
84.32

>  <MW>
420.19

>  <AMW>
7.12

>  <WPath>
2035

>  <WPol>
70

>  <Zagreb1>
184

>  <Zagreb2>
239

>  <mZagreb2>
6.12

>  <yes>


>  <nAR-cont>
0

>  <nHA-cont>
0.74523694

>  <MWHBN>
0.390271763

>  <MWHBN-cont>
0.51439208

>  <TPSA-cont>
0.350383413

>  <pka_cont>
0.97

>  <yes.1>


>  <BBB_SCORE>
2.702591886

>  <MMFF94 Energy>
163.7

$$$$
Compound 2959
Actelion Java MolfileCreator 2.0

  0  0  0  0  0  0              0 V3000
M  V30 BEGIN CTAB
M  V30 COUNTS 35 38 0 0 0
M  V30 BEGIN ATOM
M  V30 1 Cl 0.329 2.635 1.1521 0
M  V30 2 C -0.0638 1.5647 2.4497 0
M  V30 3 C -0.54 0.2635 2.2423 0
M  V30 4 C 0.0815 2.0457 3.7548 0
M  V30 5 C -0.7133 -0.3233 0.8745 0
M  V30 6 C -0.903 -0.5331 3.3387 0
M  V30 7 C -0.2584 1.2408 4.8449 0
M  V30 8 N -1.9323 -0.677 0.607 0
M  V30 9 C 0.5106 -0.462 0.0166 0
M  V30 10 C -0.7556 -0.0449 4.6372 0
M  V30 11 C -2.367 -1.1039 -0.6107 0
M  V30 12 C 0.5045 -0.3313 -1.389 0
M  V30 13 C 1.7219 -0.7293 0.6985 0
M  V30 14 C -1.8777 -0.7961 -1.8182 0
M  V30 15 N -0.6838 -0.1741 -2.1446 0
M  V30 16 C 1.7496 -0.4652 -2.0483 0
M  V30 17 C 2.925 -0.8328 0.0119 0
M  V30 18 N -2.555 -0.9683 -3.0083 0
M  V30 19 C -0.8284 0.1575 -3.4979 0
M  V30 20 C 2.9456 -0.6976 -1.363 0
M  V30 21 Cl 4.3814 -1.1457 0.8689 0
M  V30 22 N -1.9324 -0.3263 -4.0522 0
M  V30 23 C 0.0967 1.0147 -4.3047 0
M  V30 24 H 0.4496 3.0539 3.931 0
M  V30 25 H -1.3033 -1.5321 3.1785 0
M  V30 26 H -0.1484 1.6237 5.8573 0
M  V30 27 H -1.0361 -0.6648 5.4858 0
M  V30 28 H -3.3396 -1.5893 -0.5691 0
M  V30 29 H 1.7379 -0.8695 1.7768 0
M  V30 30 H 1.814 -0.4468 -3.1315 0
M  V30 31 H -3.4999 -1.3314 -3.056 0
M  V30 32 H 3.8756 -0.7976 -1.917 0
M  V30 33 H -0.4919 1.6604 -4.9637 0
M  V30 34 H 0.7347 0.3828 -4.9275 0
M  V30 35 H 0.7067 1.6502 -3.6589 0
M  V30 END ATOM
M  V30 BEGIN BOND
M  V30 1 1 1 2
M  V30 2 2 2 3
M  V30 3 1 2 4
M  V30 4 1 3 5
M  V30 5 1 3 6
M  V30 6 2 4 7
M  V30 7 2 5 8
M  V30 8 1 5 9
M  V30 9 2 6 10
M  V30 10 1 8 11
M  V30 11 2 9 12
M  V30 12 1 9 13
M  V30 13 2 11 14
M  V30 14 1 12 15
M  V30 15 1 12 16
M  V30 16 2 13 17
M  V30 17 1 14 18
M  V30 18 1 15 19
M  V30 19 2 16 20
M  V30 20 1 17 21
M  V30 21 1 18 22
M  V30 22 1 19 23
M  V30 23 1 7 10
M  V30 24 1 14 15
M  V30 25 1 17 20
M  V30 26 2 19 22
M  V30 27 1 4 24
M  V30 28 1 6 25
M  V30 29 1 7 26
M  V30 30 1 10 27
M  V30 31 1 11 28
M  V30 32 1 13 29
M  V30 33 1 16 30
M  V30 34 1 18 31
M  V30 35 1 20 32
M  V30 36 1 23 33
M  V30 37 1 23 34
M  V30 38 1 23 35
M  V30 END BOND
M  V30 END CTAB
M  END
>  <Column 1>
3807

>  <level_0>
7032

>  <index>
7033

>  <Unnamed: 0>
7033

>  <NO.>
7046

>  <Name>


>  <IUPAC_name>


>  <SMILES>
CC1=NNC2=CN=C(c3ccccc3Cl)c3cc(Cl)ccc3N21

>  <CID>


>  <logBB>


>  <BBB+/BBB->
BBB+

>  <Inchi>
InChI=1S/C17H12Cl2N4/c1-10-21-22-16-9-20-17(12-4-2-3-5-14(12)19)13-8-11(18)6-7-15(13)23(10)16/h2-9-22H-1H3

>  <threshold>


>  <reference>
R27|

>  <group>
C

>  <Class>
1

>  <ABC>
18.43

>  <ABCGG>
15.09

>  <nAcid>
0

>  <nBase>
2

>  <nAromAtom>
12

>  <nAromBond>
12

>  <nAtom>
35

>  <nHeavyAtom>
23

>  <nSpiro>
0

>  <nBridgehead>
0

>  <nHetero>
6

>  <nN>
4

>  <nO>
0

>  <nF>
0

>  <BalabanJ>
1.61

>  <BertzCT>
899.22

>  <nBonds>
38

>  <nBondsO>
26

>  <nBondsS>
23

>  <nBondsD>
3

>  <nBondsT>
0

>  <nBondsA>
12

>  <nBondsM>
15

>  <nBondsKS>
29

>  <nBondsKD>
9

>  <RNCG>
0.19

>  <RPCG>
0.13

>  <FCSP3>
0.06

>  <SZ>
29.33

>  <Sm>
28.57

>  <Sv>
25.46

>  <Sse>
35.51

>  <Sp>
27.04

>  <Si>
38.96

>  <MZ>
0.84

>  <Mm>
0.82

>  <Mv>
0.73

>  <Mse>
1.01

>  <Mp>
0.77

>  <Mi>
1.11

>  <NsCH3>
1

>  <NdCH2>
0

>  <NssCH2>
0

>  <NtCH>
0

>  <NdsCH>
1

>  <NaaCH>
7

>  <NsssCH>
0

>  <NddC>
0

>  <NtsC>
0

>  <NdssC>
3

>  <NaasC>
5

>  <NaaaC>
0

>  <NssssC>
0

>  <NsNH3>
0

>  <NsNH2>
0

>  <NssNH2>
0

>  <NdNH>
0

>  <NssNH>
1

>  <NaaNH>
0

>  <NtN>
0

>  <NsssNH>
0

>  <NdsN>
2

>  <NaaN>
0

>  <NsssN>
1

>  <NddsN>
0

>  <NaasN>
0

>  <NssssN>
0

>  <NsOH>
0

>  <NdO>
0

>  <NssO>
0

>  <NaaO>
0

>  <NsF>
0

>  <NsSiH3>
0

>  <NssSiH2>
0

>  <NsssSiH>
0

>  <NssssSi>
0

>  <NsPH2>
0

>  <NssPH>
0

>  <NsssP>
0

>  <NdsssP>
0

>  <NsssssP>
0

>  <NsSH>
0

>  <NdS>
0

>  <NssS>
0

>  <NaaS>
0

>  <NdssS>
0

>  <NddssS>
0

>  <NsCl>
2

>  <NsBr>
0

>  <NsI>
0

>  <fragCpx>
170.06

>  <fMF>
0.57

>  <nHBAcc>
4

>  <nHBDon>
1

>  <Kier1>
16.47

>  <Kier2>
6.72

>  <Lipinski>
1

>  <GhoseFilter>
1

>  <FilterItLogS>
-5.75

>  <VMcGowan>
232.65

>  <LabuteASA>
143.29

>  <PEOE_VSA1>
0

>  <PEOE_VSA2>
15.32

>  <PEOE_VSA3>
0

>  <PEOE_VSA4>
5.1

>  <PEOE_VSA5>
0

>  <PEOE_VSA6>
41.4

>  <PEOE_VSA7>
31.19

>  <PEOE_VSA8>
21.17

>  <PEOE_VSA9>
17.6

>  <PEOE_VSA10>
5.84

>  <PEOE_VSA11>
5.82

>  <PEOE_VSA12>
0

>  <PEOE_VSA13>
0

>  <SMR_VSA1>
0

>  <SMR_VSA2>
0

>  <SMR_VSA3>
5.43

>  <SMR_VSA4>
10.09

>  <SMR_VSA5>
6.92

>  <SMR_VSA6>
4.9

>  <SMR_VSA7>
75.66

>  <SMR_VSA8>
0

>  <SMR_VSA9>
0

>  <SlogP_VSA1>
10.33

>  <SlogP_VSA2>
11.55

>  <SlogP_VSA3>
0

>  <SlogP_VSA4>
0

>  <SlogP_VSA5>
18.05

>  <SlogP_VSA6>
64.58

>  <SlogP_VSA7>
10.05

>  <SlogP_VSA8>
0

>  <SlogP_VSA9>
0

>  <SlogP_VSA10>
5.69

>  <SlogP_VSA11>
0

>  <EState_VSA1>
0

>  <EState_VSA2>
0

>  <EState_VSA3>
10.05

>  <EState_VSA4>
34.18

>  <EState_VSA5>
0

>  <EState_VSA6>
6.2

>  <EState_VSA7>
54.29

>  <EState_VSA8>
15.52

>  <EState_VSA9>
23.2

>  <EState_VSA10>
0

>  <VSA_EState1>
0

>  <VSA_EState2>
6.66

>  <VSA_EState3>
5.55

>  <VSA_EState4>
6.51

>  <VSA_EState5>
1.64

>  <VSA_EState6>
13.38

>  <VSA_EState7>
1.76

>  <VSA_EState8>
1.94

>  <VSA_EState9>
0

>  <apol>
45.15

>  <bpol>
16.48

>  <nRing>
4

>  <nHRing>
2

>  <naRing>
2

>  <naHRing>
0

>  <nARing 2>
2

>  <nAHRing 2>
2

>  <nFRing>
1

>  <nFHRing>
1

>  <nFaRing>
0

>  <nFaHRing>
0

>  <nFARing 2>
1

>  <nFAHRing 2>
1

>  <nRot>
1

>  <SLogP>
4.39

>  <SMR>
95.35

>  <TopoPSA(NO)>
39.99

>  <TopoPSA>
39.99

>  <JGI1>
0.15

>  <JGI2>
0.08

>  <JGI3>
0.05

>  <JGI4>
0.04

>  <JGI5>
0.02

>  <Diameter>
9

>  <Radius>
5

>  <TMWC10>
125.42

>  <TSRW10>
72.14

>  <MW>
342.04

>  <AMW>
9.77

>  <WPath>
1035

>  <WPol>
43

>  <Zagreb1>
128

>  <Zagreb2>
156

>  <mZagreb2>
4.94

>  <yes>


>  <nAR-cont>
1

>  <nHA-cont>
0.967789328

>  <MWHBN>
0.270353226

>  <MWHBN-cont>
0.919307776

>  <TPSA-cont>
0.720844968

>  <pka_cont>
0.97

>  <yes.1>


>  <BBB_SCORE>
5.273440928

>  <MMFF94 Energy>
143.79

$$$$
Compound 2960
Actelion Java MolfileCreator 2.0

  0  0  0  0  0  0              0 V3000
M  V30 BEGIN CTAB
M  V30 COUNTS 57 58 0 0 0
M  V30 BEGIN ATOM
M  V30 1 O 2.4516 -5.0665 0.7112 0
M  V30 2 C 2.858 -4.3991 1.6474 0
M  V30 3 O 4.1376 -4.537 2.0636 0
M  V30 4 C 2.1076 -3.3579 2.4633 0
M  V30 5 O 0.7381 -3.2561 2.0961 0
M  V30 6 C 0.0744 -2.2351 2.8329 0
M  V30 7 C -1.3576 -2.2207 2.4021 0
M  V30 8 C -2.012 -1.1877 1.8461 0
M  V30 9 C -1.4162 0.1737 1.5065 0
M  V30 10 C -3.483 -1.2435 1.4358 0
M  V30 11 C -2.4762 0.7003 0.5644 0 CFG=1
M  V30 12 C -3.7609 0.2296 1.2274 0 CFG=1
M  V30 13 C -2.7604 2.1773 0.3719 0 CFG=1
M  V30 14 C -4.8153 0.7637 0.2825 0
M  V30 15 C -1.7806 2.805 -0.5207 0
M  V30 16 C -4.2285 2.1344 -0.1657 0 CFG=2
M  V30 17 C -0.9248 3.227 -1.2504 0
M  V30 18 O -4.3204 2.196 -1.5867 0
M  V30 19 C 0.17 3.6282 -2.1495 0 CFG=2
M  V30 20 O -0.4121 4.1073 -3.3588 0
M  V30 21 C 1.1133 2.4381 -2.4428 0 CFG=2
M  V30 22 C 1.8601 1.9911 -1.1678 0
M  V30 23 C 2.1161 2.7906 -3.5523 0
M  V30 24 C 2.355 0.6091 -1.2838 0
M  V30 25 C 2.7211 -0.5316 -1.3695 0
M  V30 26 C 3.135 -1.9371 -1.4771 0
M  V30 27 C 4.4905 -2.1626 -0.8296 0
M  V30 28 H 4.4962 -5.2274 1.4662 0
M  V30 29 H 2.1743 -3.6448 3.5185 0
M  V30 30 H 2.6016 -2.3934 2.3011 0
M  V30 31 H 0.5682 -1.2734 2.6601 0
M  V30 32 H 0.1218 -2.4633 3.9039 0
M  V30 33 H -1.8953 -3.1523 2.5678 0
M  V30 34 H -1.3309 0.7897 2.408 0
M  V30 35 H -0.4435 0.1023 1.012 0
M  V30 36 H -4.1209 -1.6715 2.2142 0
M  V30 37 H -3.5985 -1.8132 0.5074 0
M  V30 38 H -2.3426 0.2181 -0.4194 0
M  V30 39 H -3.8968 0.7111 2.2096 0
M  V30 40 H -2.754 2.6841 1.3459 0
M  V30 41 H -5.7772 0.8899 0.7897 0
M  V30 42 H -4.9721 0.0937 -0.5706 0
M  V30 43 H -4.8133 2.9639 0.247 0
M  V30 44 H -3.9056 3.0309 -1.8677 0
M  V30 45 H 0.7346 4.4574 -1.709 0
M  V30 46 H -0.95 3.3806 -3.7186 0
M  V30 47 H 0.5049 1.6031 -2.8208 0
M  V30 48 H 2.6934 2.6721 -0.9572 0
M  V30 49 H 1.2028 2.0291 -0.2921 0
M  V30 50 H 2.7238 3.6581 -3.2731 0
M  V30 51 H 2.7928 1.9541 -3.7549 0
M  V30 52 H 1.6026 3.0247 -4.4906 0
M  V30 53 H 3.1816 -2.2305 -2.5315 0
M  V30 54 H 2.389 -2.579 -0.9961 0
M  V30 55 H 5.265 -1.5574 -1.3133 0
M  V30 56 H 4.7806 -3.2148 -0.9109 0
M  V30 57 H 4.4717 -1.895 0.2324 0
M  V30 END ATOM
M  V30 BEGIN BOND
M  V30 1 2 1 2
M  V30 2 1 2 3
M  V30 3 1 2 4
M  V30 4 1 4 5
M  V30 5 1 5 6
M  V30 6 1 6 7
M  V30 7 2 7 8
M  V30 8 1 8 9
M  V30 9 1 8 10
M  V30 10 1 9 11
M  V30 11 1 10 12
M  V30 12 1 11 13
M  V30 13 1 12 14
M  V30 14 1 13 15
M  V30 15 1 13 16
M  V30 16 3 15 17
M  V30 17 1 16 18
M  V30 18 1 17 19
M  V30 19 1 19 20
M  V30 20 1 19 21
M  V30 21 1 21 22
M  V30 22 1 21 23
M  V30 23 1 22 24
M  V30 24 3 24 25
M  V30 25 1 25 26
M  V30 26 1 26 27
M  V30 27 1 11 12
M  V30 28 1 14 16
M  V30 29 1 3 28
M  V30 30 1 4 29
M  V30 31 1 4 30
M  V30 32 1 6 31
M  V30 33 1 6 32
M  V30 34 1 7 33
M  V30 35 1 9 34
M  V30 36 1 9 35
M  V30 37 1 10 36
M  V30 38 1 10 37
M  V30 39 1 11 38
M  V30 40 1 12 39
M  V30 41 1 13 40
M  V30 42 1 14 41
M  V30 43 1 14 42
M  V30 44 1 16 43
M  V30 45 1 18 44
M  V30 46 1 19 45
M  V30 47 1 20 46
M  V30 48 1 21 47
M  V30 49 1 22 48
M  V30 50 1 22 49
M  V30 51 1 23 50
M  V30 52 1 23 51
M  V30 53 1 23 52
M  V30 54 1 26 53
M  V30 55 1 26 54
M  V30 56 1 27 55
M  V30 57 1 27 56
M  V30 58 1 27 57
M  V30 END BOND
M  V30 BEGIN COLLECTION
M  V30 MDLV30/STEABS ATOMS=(6 11 12 13 16 19 21)
M  V30 END COLLECTION
M  V30 END CTAB
M  END
>  <Column 1>
3808

>  <level_0>
7035

>  <index>
7036

>  <Unnamed: 0>
7036

>  <NO.>
7049

>  <Name>


>  <IUPAC_name>


>  <SMILES>
CCC#CC[C@H](C)[C@@H](O)C#C[C@H]1[C@@H](O)C[C@H]2C/C(=C/COCC(=O)O)C[C@H]12

>  <CID>


>  <logBB>


>  <BBB+/BBB->
BBB+

>  <Inchi>
InChI=1S/C22H30O5/c1-3-4-5-6-15(2)20(23)8-7-18-19-12-16(9-10-27-14-22(25)26)11-17(19)13-21(18)24/h9-15-17-21-23-24H-3-6-10-14H2-1-2H3-(H-25-26)/b16-9-/t15--17+-18+-19--20--21-/m0/s1

>  <threshold>


>  <reference>
R27|

>  <group>
C

>  <Class>
1

>  <ABC>
20.18

>  <ABCGG>
16.47

>  <nAcid>
1

>  <nBase>
0

>  <nAromAtom>
0

>  <nAromBond>
0

>  <nAtom>
57

>  <nHeavyAtom>
27

>  <nSpiro>
0

>  <nBridgehead>
0

>  <nHetero>
5

>  <nN>
0

>  <nO>
5

>  <nF>
0

>  <BalabanJ>
1.71

>  <BertzCT>
659.66

>  <nBonds>
58

>  <nBondsO>
28

>  <nBondsS>
54

>  <nBondsD>
2

>  <nBondsT>
2

>  <nBondsA>
0

>  <nBondsM>
4

>  <nBondsKS>
54

>  <nBondsKD>
2

>  <RNCG>
0.18

>  <RPCG>
0.13

>  <FCSP3>
0.68

>  <SZ>
33.67

>  <Sm>
31.18

>  <Sv>
33.7

>  <Sse>
56.97

>  <Sp>
36.38

>  <Si>
64.28

>  <MZ>
0.59

>  <Mm>
0.55

>  <Mv>
0.59

>  <Mse>
1

>  <Mp>
0.64

>  <Mi>
1.13

>  <NsCH3>
2

>  <NdCH2>
0

>  <NssCH2>
7

>  <NtCH>
0

>  <NdsCH>
1

>  <NaaCH>
0

>  <NsssCH>
6

>  <NddC>
0

>  <NtsC>
4

>  <NdssC>
2

>  <NaasC>
0

>  <NaaaC>
0

>  <NssssC>
0

>  <NsNH3>
0

>  <NsNH2>
0

>  <NssNH2>
0

>  <NdNH>
0

>  <NssNH>
0

>  <NaaNH>
0

>  <NtN>
0

>  <NsssNH>
0

>  <NdsN>
0

>  <NaaN>
0

>  <NsssN>
0

>  <NddsN>
0

>  <NaasN>
0

>  <NssssN>
0

>  <NsOH>
3

>  <NdO>
1

>  <NssO>
1

>  <NaaO>
0

>  <NsF>
0

>  <NsSiH3>
0

>  <NssSiH2>
0

>  <NsssSiH>
0

>  <NssssSi>
0

>  <NsPH2>
0

>  <NssPH>
0

>  <NsssP>
0

>  <NdsssP>
0

>  <NsssssP>
0

>  <NsSH>
0

>  <NdS>
0

>  <NssS>
0

>  <NaaS>
0

>  <NdssS>
0

>  <NddssS>
0

>  <NsCl>
0

>  <NsBr>
0

>  <NsI>
0

>  <fragCpx>
82.05

>  <fMF>
0.14

>  <nHBAcc>
4

>  <nHBDon>
3

>  <Kier1>
23.28

>  <Kier2>
11.87

>  <Lipinski>
1

>  <GhoseFilter>
1

>  <FilterItLogS>
-1.77

>  <VMcGowan>
302.67

>  <LabuteASA>
161.36

>  <PEOE_VSA1>
20.06

>  <PEOE_VSA2>
0

>  <PEOE_VSA3>
4.79

>  <PEOE_VSA4>
0

>  <PEOE_VSA5>
11.84

>  <PEOE_VSA6>
37.34

>  <PEOE_VSA7>
31.1

>  <PEOE_VSA8>
24.68

>  <PEOE_VSA9>
12.71

>  <PEOE_VSA10>
12.71

>  <PEOE_VSA11>
0

>  <PEOE_VSA12>
0

>  <PEOE_VSA13>
0

>  <SMR_VSA1>
24.85

>  <SMR_VSA2>
0

>  <SMR_VSA3>
0

>  <SMR_VSA4>
23.67

>  <SMR_VSA5>
58.16

>  <SMR_VSA6>
13.21

>  <SMR_VSA7>
11.65

>  <SMR_VSA8>
0

>  <SMR_VSA9>
23.68

>  <SlogP_VSA1>
0

>  <SlogP_VSA2>
46.71

>  <SlogP_VSA3>
9.53

>  <SlogP_VSA4>
47.35

>  <SlogP_VSA5>
45.95

>  <SlogP_VSA6>
11.65

>  <SlogP_VSA7>
0

>  <SlogP_VSA8>
0

>  <SlogP_VSA9>
0

>  <SlogP_VSA10>
0

>  <SlogP_VSA11>
0

>  <EState_VSA1>
18.18

>  <EState_VSA2>
18.44

>  <EState_VSA3>
24.86

>  <EState_VSA4>
25.68

>  <EState_VSA5>
5.57

>  <EState_VSA6>
0

>  <EState_VSA7>
19.92

>  <EState_VSA8>
23.68

>  <EState_VSA9>
9.84

>  <EState_VSA10>
15.01

>  <VSA_EState1>
5.08

>  <VSA_EState2>
10.47

>  <VSA_EState3>
29.2

>  <VSA_EState4>
1.25

>  <VSA_EState5>
11.71

>  <VSA_EState6>
0

>  <VSA_EState7>
4.69

>  <VSA_EState8>
3.94

>  <VSA_EState9>
0

>  <apol>
60.75

>  <bpol>
32.7

>  <nRing>
2

>  <nHRing>
0

>  <naRing>
0

>  <naHRing>
0

>  <nARing 2>
2

>  <nAHRing 2>
0

>  <nFRing>
1

>  <nFHRing>
0

>  <nFaRing>
0

>  <nFaHRing>
0

>  <nFARing 2>
1

>  <nFAHRing 2>
0

>  <nRot>
6

>  <SLogP>
2.22

>  <SMR>
102.5

>  <TopoPSA(NO)>
86.99

>  <TopoPSA>
86.99

>  <JGI1>
0.2

>  <JGI2>
0.08

>  <JGI3>
0.06

>  <JGI4>
0.03

>  <JGI5>
0.03

>  <Diameter>
18

>  <Radius>
9

>  <TMWC10>
129.55

>  <TSRW10>
77.44

>  <MW>
374.21

>  <AMW>
6.57

>  <WPath>
2275

>  <WPol>
35

>  <Zagreb1>
130

>  <Zagreb2>
147

>  <mZagreb2>
6.19

>  <yes>


>  <nAR-cont>
1

>  <nHA-cont>
0.860070871

>  <MWHBN>
0.361859806

>  <MWHBN-cont>
0.625298792

>  <TPSA-cont>
0.392755782

>  <pka_cont>
0.97

>  <yes.1>


>  <BBB_SCORE>
4.068530624

>  <MMFF94 Energy>
60.729

$$$$
Compound 2961
Actelion Java MolfileCreator 2.0

  0  0  0  0  0  0              0 V3000
M  V30 BEGIN CTAB
M  V30 COUNTS 29 29 0 0 0
M  V30 BEGIN ATOM
M  V30 1 Cl -0.9025 0.8205 -3.0384 0
M  V30 2 C -0.504 0.0128 -1.5477 0
M  V30 3 C -0.9066 0.5518 -0.3112 0
M  V30 4 C 0.2216 -1.1979 -1.6032 0
M  V30 5 Cl -1.8851 1.9861 -0.2455 0
M  V30 6 C -0.5654 -0.1239 0.8667 0
M  V30 7 O 0.5725 -1.649 -2.8495 0
M  V30 8 C 0.5227 -1.8709 -0.4156 0
M  V30 9 C -0.922 0.3743 2.2085 0
M  V30 10 C 0.1275 -1.3394 0.8126 0
M  V30 11 C 1.3856 -2.8114 -2.9426 0
M  V30 12 O -1.4926 -0.3457 3.0166 0
M  V30 13 C -0.5153 1.7793 2.6074 0
M  V30 14 C 1.7437 -3.1074 -4.3861 0
M  V30 15 O 0.5283 2.2367 2.159 0
M  V30 16 C -1.4443 2.4865 3.5645 0
M  V30 17 O 1.809 -4.2192 -4.8886 0
M  V30 18 O 2.0671 -2.0152 -5.106 0
M  V30 19 C -1.0692 3.9462 3.7463 0
M  V30 20 H 1.0608 -2.8142 -0.4062 0
M  V30 21 H 0.3684 -1.8744 1.731 0
M  V30 22 H 0.8316 -3.6775 -2.5629 0
M  V30 23 H 2.3257 -2.6817 -2.3948 0
M  V30 24 H -1.4055 1.9726 4.5304 0
M  V30 25 H -2.464 2.4224 3.1703 0
M  V30 26 H 2.2639 -2.356 -6.0028 0
M  V30 27 H -1.7681 4.4374 4.4303 0
M  V30 28 H -1.0926 4.4796 2.7902 0
M  V30 29 H -0.0601 4.0448 4.1599 0
M  V30 END ATOM
M  V30 BEGIN BOND
M  V30 1 1 1 2
M  V30 2 2 2 3
M  V30 3 1 2 4
M  V30 4 1 3 5
M  V30 5 1 3 6
M  V30 6 1 4 7
M  V30 7 2 4 8
M  V30 8 1 6 9
M  V30 9 2 6 10
M  V30 10 1 7 11
M  V30 11 2 9 12
M  V30 12 1 9 13
M  V30 13 1 11 14
M  V30 14 2 13 15
M  V30 15 1 13 16
M  V30 16 2 14 17
M  V30 17 1 14 18
M  V30 18 1 16 19
M  V30 19 1 8 10
M  V30 20 1 8 20
M  V30 21 1 10 21
M  V30 22 1 11 22
M  V30 23 1 11 23
M  V30 24 1 16 24
M  V30 25 1 16 25
M  V30 26 1 18 26
M  V30 27 1 19 27
M  V30 28 1 19 28
M  V30 29 1 19 29
M  V30 END BOND
M  V30 END CTAB
M  END
>  <Column 1>
3809

>  <level_0>
7036

>  <index>
7037

>  <Unnamed: 0>
7037

>  <NO.>
7050

>  <Name>


>  <IUPAC_name>


>  <SMILES>
CCC(=O)C(=O)c1ccc(OCC(=O)O)c(Cl)c1Cl

>  <CID>


>  <logBB>


>  <BBB+/BBB->
BBB+

>  <Inchi>
InChI=1S/C12H10Cl2O5/c1-2-7(15)12(18)6-3-4-8(11(14)10(6)13)19-5-9(16)17/h3-4H-2-5H2-1H3-(H-16-17)

>  <threshold>


>  <reference>
R27|

>  <group>
C

>  <Class>
1

>  <ABC>
13.89

>  <ABCGG>
12.75

>  <nAcid>
1

>  <nBase>
0

>  <nAromAtom>
6

>  <nAromBond>
6

>  <nAtom>
29

>  <nHeavyAtom>
19

>  <nSpiro>
0

>  <nBridgehead>
0

>  <nHetero>
7

>  <nN>
0

>  <nO>
5

>  <nF>
0

>  <BalabanJ>
2.56

>  <BertzCT>
539.17

>  <nBonds>
29

>  <nBondsO>
19

>  <nBondsS>
20

>  <nBondsD>
3

>  <nBondsT>
0

>  <nBondsA>
6

>  <nBondsM>
9

>  <nBondsKS>
23

>  <nBondsKD>
6

>  <RNCG>
0.23

>  <RPCG>
0.17

>  <FCSP3>
0.25

>  <SZ>
26

>  <Sm>
25.4

>  <Sv>
20.46

>  <Sse>
30.62

>  <Sp>
21

>  <Si>
32.43

>  <MZ>
0.9

>  <Mm>
0.88

>  <Mv>
0.71

>  <Mse>
1.06

>  <Mp>
0.72

>  <Mi>
1.12

>  <NsCH3>
1

>  <NdCH2>
0

>  <NssCH2>
2

>  <NtCH>
0

>  <NdsCH>
0

>  <NaaCH>
2

>  <NsssCH>
0

>  <NddC>
0

>  <NtsC>
0

>  <NdssC>
3

>  <NaasC>
4

>  <NaaaC>
0

>  <NssssC>
0

>  <NsNH3>
0

>  <NsNH2>
0

>  <NssNH2>
0

>  <NdNH>
0

>  <NssNH>
0

>  <NaaNH>
0

>  <NtN>
0

>  <NsssNH>
0

>  <NdsN>
0

>  <NaaN>
0

>  <NsssN>
0

>  <NddsN>
0

>  <NaasN>
0

>  <NssssN>
0

>  <NsOH>
1

>  <NdO>
3

>  <NssO>
1

>  <NaaO>
0

>  <NsF>
0

>  <NsSiH3>
0

>  <NssSiH2>
0

>  <NsssSiH>
0

>  <NssssSi>
0

>  <NsPH2>
0

>  <NssPH>
0

>  <NsssP>
0

>  <NdsssP>
0

>  <NsssssP>
0

>  <NsSH>
0

>  <NdS>
0

>  <NssS>
0

>  <NaaS>
0

>  <NdssS>
0

>  <NddssS>
0

>  <NsCl>
2

>  <NsBr>
0

>  <NsI>
0

>  <fragCpx>
19.07

>  <fMF>
0.21

>  <nHBAcc>
4

>  <nHBDon>
1

>  <Kier1>
17.05

>  <Kier2>
7.7

>  <Lipinski>
1

>  <GhoseFilter>
1

>  <FilterItLogS>
-3.52

>  <VMcGowan>
197.11

>  <LabuteASA>
118.62

>  <PEOE_VSA1>
9.84

>  <PEOE_VSA2>
9.59

>  <PEOE_VSA3>
4.79

>  <PEOE_VSA4>
0

>  <PEOE_VSA5>
0

>  <PEOE_VSA6>
30.13

>  <PEOE_VSA7>
12.13

>  <PEOE_VSA8>
11.98

>  <PEOE_VSA9>
5.02

>  <PEOE_VSA10>
10.77

>  <PEOE_VSA11>
6.61

>  <PEOE_VSA12>
11.57

>  <PEOE_VSA13>
0

>  <SMR_VSA1>
24.23

>  <SMR_VSA2>
0

>  <SMR_VSA3>
0

>  <SMR_VSA4>
0

>  <SMR_VSA5>
13.34

>  <SMR_VSA6>
6.61

>  <SMR_VSA7>
27.74

>  <SMR_VSA8>
0

>  <SMR_VSA9>
5.75

>  <SlogP_VSA1>
4.74

>  <SlogP_VSA2>
29.25

>  <SlogP_VSA3>
9.59

>  <SlogP_VSA4>
0

>  <SlogP_VSA5>
23.7

>  <SlogP_VSA6>
12.13

>  <SlogP_VSA7>
10.05

>  <SlogP_VSA8>
0

>  <SlogP_VSA9>
0

>  <SlogP_VSA10>
0

>  <SlogP_VSA11>
5.75

>  <EState_VSA1>
24.14

>  <EState_VSA2>
27.78

>  <EState_VSA3>
0

>  <EState_VSA4>
0

>  <EState_VSA5>
12.13

>  <EState_VSA6>
6.92

>  <EState_VSA7>
0

>  <EState_VSA8>
0

>  <EState_VSA9>
33.05

>  <EState_VSA10>
14.38

>  <VSA_EState1>
4.89

>  <VSA_EState2>
33.39

>  <VSA_EState3>
8.25

>  <VSA_EState4>
-0.03

>  <VSA_EState5>
-2.46

>  <VSA_EState6>
2.58

>  <VSA_EState7>
0.06

>  <VSA_EState8>
0.97

>  <VSA_EState9>
0

>  <apol>
35.08

>  <bpol>
15.39

>  <nRing>
1

>  <nHRing>
0

>  <naRing>
1

>  <naHRing>
0

>  <nARing 2>
0

>  <nAHRing 2>
0

>  <nFRing>
0

>  <nFHRing>
0

>  <nFaRing>
0

>  <nFaHRing>
0

>  <nFARing 2>
0

>  <nFAHRing 2>
0

>  <nRot>
6

>  <SLogP>
2.62

>  <SMR>
69.22

>  <TopoPSA(NO)>
80.67

>  <TopoPSA>
80.67

>  <JGI1>
0.24

>  <JGI2>
0.12

>  <JGI3>
0.06

>  <JGI4>
0.05

>  <JGI5>
0.04

>  <Diameter>
11

>  <Radius>
6

>  <TMWC10>
109.24

>  <TSRW10>
51.83

>  <MW>
303.99

>  <AMW>
10.48

>  <WPath>
744

>  <WPol>
29

>  <Zagreb1>
90

>  <Zagreb2>
103

>  <mZagreb2>
4.39

>  <yes>


>  <nAR-cont>
0.336376

>  <nHA-cont>
0.998649058

>  <MWHBN>
0.286774384

>  <MWHBN-cont>
0.878368134

>  <TPSA-cont>
0.436873307

>  <pka_cont>
0.97

>  <yes.1>


>  <BBB_SCORE>
4.011323873

>  <MMFF94 Energy>
75.059

$$$$
Compound 2962
Actelion Java MolfileCreator 2.0

  0  0  0  0  0  0              0 V3000
M  V30 BEGIN CTAB
M  V30 COUNTS 45 46 0 0 0
M  V30 BEGIN ATOM
M  V30 1 O 2.1355 -0.158 -0.4742 0
M  V30 2 C 0.9998 0.1222 -0.8643 0
M  V30 3 C -0.1472 0.5845 0.0966 0 CFG=1
M  V30 4 C 0.6818 0.0115 -2.3619 0
M  V30 5 C -1.2729 -0.4876 0.2287 0
M  V30 6 C 0.4071 1.0298 1.5384 0 CFG=1
M  V30 7 C -0.7944 1.8665 -0.5504 0
M  V30 8 C 1.6007 -0.9813 -3.0735 0
M  V30 9 C -2.4812 -0.1822 0.8891 0
M  V30 10 C -1.1341 -1.7974 -0.2705 0
M  V30 11 N 1.1733 0.1143 2.4342 0
M  V30 12 C 1.211 2.324 1.4178 0
M  V30 13 C 0.1819 3.0305 -0.7429 0
M  V30 14 C 1.2247 -1.1372 -4.538 0
M  V30 15 C -3.505 -1.1259 1.0176 0
M  V30 16 C -2.1583 -2.7415 -0.1419 0
M  V30 17 C 0.9092 -1.311 2.2901 0
M  V30 18 C 1.0079 0.4742 3.8511 0
M  V30 19 C 1.1158 3.1979 0.4059 0
M  V30 20 C -3.3453 -2.4044 0.4975 0
M  V30 21 H -0.3567 -0.3048 -2.4954 0
M  V30 22 H 0.7946 1.0002 -2.8156 0
M  V30 23 H -0.4895 1.3121 2.1106 0
M  V30 24 H -1.2715 1.6353 -1.5111 0
M  V30 25 H -1.6058 2.2402 0.0881 0
M  V30 26 H 2.6418 -0.6442 -3.0043 0
M  V30 27 H 1.551 -1.9591 -2.5801 0
M  V30 28 H -2.6491 0.7984 1.3287 0
M  V30 29 H -0.2161 -2.13 -0.7493 0
M  V30 30 H 1.9325 2.5447 2.2009 0
M  V30 31 H -0.3911 3.9551 -0.8809 0
M  V30 32 H 0.7732 2.8953 -1.6538 0
M  V30 33 H 1.8982 -1.8467 -5.0287 0
M  V30 34 H 0.2016 -1.5124 -4.6425 0
M  V30 35 H 1.2959 -0.1804 -5.0651 0
M  V30 36 H -4.4261 -0.8599 1.5305 0
M  V30 37 H -2.0207 -3.7457 -0.5356 0
M  V30 38 H -0.1267 -1.5699 2.5305 0
M  V30 39 H 1.1632 -1.6763 1.2942 0
M  V30 40 H 1.5518 -1.8861 2.9686 0
M  V30 41 H -0.0212 0.3129 4.1934 0
M  V30 42 H 1.2703 1.5183 4.0476 0
M  V30 43 H 1.675 -0.1267 4.4801 0
M  V30 44 H 1.7568 4.077 0.4033 0
M  V30 45 H -4.139 -3.1395 0.5997 0
M  V30 END ATOM
M  V30 BEGIN BOND
M  V30 1 2 1 2
M  V30 2 1 2 3
M  V30 3 1 2 4
M  V30 4 1 3 5
M  V30 5 1 3 6
M  V30 6 1 3 7
M  V30 7 1 4 8
M  V30 8 2 5 9
M  V30 9 1 5 10
M  V30 10 1 6 11
M  V30 11 1 6 12
M  V30 12 1 7 13
M  V30 13 1 8 14
M  V30 14 1 9 15
M  V30 15 2 10 16
M  V30 16 1 11 17
M  V30 17 1 11 18
M  V30 18 2 12 19
M  V30 19 2 15 20
M  V30 20 1 13 19
M  V30 21 1 16 20
M  V30 22 1 4 21
M  V30 23 1 4 22
M  V30 24 1 6 23
M  V30 25 1 7 24
M  V30 26 1 7 25
M  V30 27 1 8 26
M  V30 28 1 8 27
M  V30 29 1 9 28
M  V30 30 1 10 29
M  V30 31 1 12 30
M  V30 32 1 13 31
M  V30 33 1 13 32
M  V30 34 1 14 33
M  V30 35 1 14 34
M  V30 36 1 14 35
M  V30 37 1 15 36
M  V30 38 1 16 37
M  V30 39 1 17 38
M  V30 40 1 17 39
M  V30 41 1 17 40
M  V30 42 1 18 41
M  V30 43 1 18 42
M  V30 44 1 18 43
M  V30 45 1 19 44
M  V30 46 1 20 45
M  V30 END BOND
M  V30 BEGIN COLLECTION
M  V30 MDLV30/STEABS ATOMS=(2 3 6)
M  V30 END COLLECTION
M  V30 END CTAB
M  END
>  <Column 1>
3811

>  <level_0>
7069

>  <index>
7070

>  <Unnamed: 0>
7070

>  <NO.>
7083

>  <Name>


>  <IUPAC_name>


>  <SMILES>
CCCC(=O)[C@]1(c2ccccc2)CCC=C[C@@H]1N(C)C

>  <CID>


>  <logBB>


>  <BBB+/BBB->
BBB+

>  <Inchi>
InChI=1S/C18H25NO/c1-4-10-17(20)18(15-11-6-5-7-12-15)14-9-8-13-16(18)19(2)3/h5-8-11-13-16H-4-9-10-14H2-1-3H3/t16--18-/m0/s1

>  <threshold>


>  <reference>
R27|

>  <group>
C

>  <Class>
1

>  <ABC>
14.95

>  <ABCGG>
13.61

>  <nAcid>
0

>  <nBase>
1

>  <nAromAtom>
6

>  <nAromBond>
6

>  <nAtom>
45

>  <nHeavyAtom>
20

>  <nSpiro>
0

>  <nBridgehead>
0

>  <nHetero>
2

>  <nN>
1

>  <nO>
1

>  <nF>
0

>  <BalabanJ>
2.29

>  <BertzCT>
477.45

>  <nBonds>
46

>  <nBondsO>
21

>  <nBondsS>
38

>  <nBondsD>
2

>  <nBondsT>
0

>  <nBondsA>
6

>  <nBondsM>
8

>  <nBondsKS>
41

>  <nBondsKD>
5

>  <RNCG>
0.23

>  <RPCG>
0.11

>  <FCSP3>
0.5

>  <SZ>
24.67

>  <Sm>
22.6

>  <Sv>
26.25

>  <Sse>
44.09

>  <Sp>
29.12

>  <Si>
50.69

>  <MZ>
0.55

>  <Mm>
0.5

>  <Mv>
0.58

>  <Mse>
0.98

>  <Mp>
0.65

>  <Mi>
1.13

>  <NsCH3>
3

>  <NdCH2>
0

>  <NssCH2>
4

>  <NtCH>
0

>  <NdsCH>
2

>  <NaaCH>
5

>  <NsssCH>
1

>  <NddC>
0

>  <NtsC>
0

>  <NdssC>
1

>  <NaasC>
1

>  <NaaaC>
0

>  <NssssC>
1

>  <NsNH3>
0

>  <NsNH2>
0

>  <NssNH2>
0

>  <NdNH>
0

>  <NssNH>
0

>  <NaaNH>
0

>  <NtN>
0

>  <NsssNH>
0

>  <NdsN>
0

>  <NaaN>
0

>  <NsssN>
1

>  <NddsN>
0

>  <NaasN>
0

>  <NssssN>
0

>  <NsOH>
0

>  <NdO>
1

>  <NssO>
0

>  <NaaO>
0

>  <NsF>
0

>  <NsSiH3>
0

>  <NssSiH2>
0

>  <NsssSiH>
0

>  <NssssSi>
0

>  <NsPH2>
0

>  <NssPH>
0

>  <NsssP>
0

>  <NdsssP>
0

>  <NsssssP>
0

>  <NsSH>
0

>  <NdS>
0

>  <NssS>
0

>  <NaaS>
0

>  <NdssS>
0

>  <NddssS>
0

>  <NsCl>
0

>  <NsBr>
0

>  <NsI>
0

>  <fragCpx>
61.02

>  <fMF>
0.27

>  <nHBAcc>
2

>  <nHBDon>
0

>  <Kier1>
16.37

>  <Kier2>
7.32

>  <Lipinski>
1

>  <GhoseFilter>
1

>  <FilterItLogS>
-3.85

>  <VMcGowan>
237.11

>  <LabuteASA>
122.04

>  <PEOE_VSA1>
4.9

>  <PEOE_VSA2>
4.79

>  <PEOE_VSA3>
0

>  <PEOE_VSA4>
0

>  <PEOE_VSA5>
0

>  <PEOE_VSA6>
49.41

>  <PEOE_VSA7>
38.92

>  <PEOE_VSA8>
12.46

>  <PEOE_VSA9>
5.41

>  <PEOE_VSA10>
5.78

>  <PEOE_VSA11>
0

>  <PEOE_VSA12>
0

>  <PEOE_VSA13>
0

>  <SMR_VSA1>
4.79

>  <SMR_VSA2>
0

>  <SMR_VSA3>
4.9

>  <SMR_VSA4>
0

>  <SMR_VSA5>
44.06

>  <SMR_VSA6>
14.1

>  <SMR_VSA7>
48.05

>  <SMR_VSA8>
0

>  <SMR_VSA9>
0

>  <SlogP_VSA1>
0

>  <SlogP_VSA2>
30.82

>  <SlogP_VSA3>
10.21

>  <SlogP_VSA4>
0

>  <SlogP_VSA5>
38.17

>  <SlogP_VSA6>
42.48

>  <SlogP_VSA7>
0

>  <SlogP_VSA8>
0

>  <SlogP_VSA9>
0

>  <SlogP_VSA10>
0

>  <SlogP_VSA11>
0

>  <EState_VSA1>
0

>  <EState_VSA2>
11.46

>  <EState_VSA3>
12.2

>  <EState_VSA4>
19.26

>  <EState_VSA5>
5.56

>  <EState_VSA6>
0

>  <EState_VSA7>
18.2

>  <EState_VSA8>
50.2

>  <EState_VSA9>
0

>  <EState_VSA10>
4.79

>  <VSA_EState1>
0

>  <VSA_EState2>
15.15

>  <VSA_EState3>
0

>  <VSA_EState4>
0.79

>  <VSA_EState5>
0.38

>  <VSA_EState6>
10.48

>  <VSA_EState7>
7.89

>  <VSA_EState8>
2.08

>  <VSA_EState9>
4.13

>  <apol>
48.63

>  <bpol>
27.66

>  <nRing>
2

>  <nHRing>
0

>  <naRing>
1

>  <naHRing>
0

>  <nARing 2>
1

>  <nAHRing 2>
0

>  <nFRing>
0

>  <nFHRing>
0

>  <nFaRing>
0

>  <nFaHRing>
0

>  <nFARing 2>
0

>  <nFAHRing 2>
0

>  <nRot>
5

>  <SLogP>
3.57

>  <SMR>
83.88

>  <TopoPSA(NO)>
20.31

>  <TopoPSA>
20.31

>  <JGI1>
0.19

>  <JGI2>
0.11

>  <JGI3>
0.07

>  <JGI4>
0.03

>  <JGI5>
0.02

>  <Diameter>
8

>  <Radius>
4

>  <TMWC10>
115.11

>  <TSRW10>
53.85

>  <MW>
271.19

>  <AMW>
6.03

>  <WPath>
712

>  <WPol>
35

>  <Zagreb1>
100

>  <Zagreb2>
120

>  <mZagreb2>
4.65

>  <yes>


>  <nAR-cont>
0.816016

>  <nHA-cont>
0.999629945

>  <MWHBN>
0.121448781

>  <MWHBN-cont>
0.835560886

>  <TPSA-cont>
0.858223588

>  <pka_cont>
0.97

>  <yes.1>


>  <BBB_SCORE>
5.27043445

>  <MMFF94 Energy>
82.225

$$$$
Compound 2963
Actelion Java MolfileCreator 2.0

  0  0  0  0  0  0              0 V3000
M  V30 BEGIN CTAB
M  V30 COUNTS 52 52 0 0 0
M  V30 BEGIN ATOM
M  V30 1 O -0.7011 4.0563 1.7925 0
M  V30 2 C -0.3018 2.6943 1.6042 0
M  V30 3 C -1.8479 4.1085 2.6405 0
M  V30 4 C -1.4259 1.835 0.9619 0 CFG=2
M  V30 5 C -3.0163 3.3312 2.0254 0
M  V30 6 N -2.6813 1.9056 1.7824 0
M  V30 7 C -0.9434 0.3732 0.7759 0
M  V30 8 C -3.817 1.2131 1.1214 0
M  V30 9 C 0.3669 0.2347 -0.0134 0
M  V30 10 C -5.1586 1.2626 1.8796 0
M  V30 11 C 0.666 -1.2363 -0.3336 0
M  V30 12 O -5.8692 2.4646 1.5933 0
M  V30 13 C 2.0682 -1.488 -0.9415 0
M  V30 14 C 2.2965 -2.9953 -1.2144 0
M  V30 15 C 2.2797 -0.6482 -2.2256 0
M  V30 16 C 2.1301 -3.8947 0.0146 0
M  V30 17 C 3.6556 -0.8206 -2.8769 0
M  V30 18 C 2.5602 -5.3242 -0.2819 0
M  V30 19 C 3.8619 0.1756 -4.0088 0
M  V30 20 H 0.0201 2.2761 2.5662 0
M  V30 21 H 0.5736 2.7314 0.9498 0
M  V30 22 H -2.1252 5.161 2.7589 0
M  V30 23 H -1.5884 3.7211 3.6333 0
M  V30 24 H -1.6411 2.2639 -0.027 0
M  V30 25 H -3.8528 3.4125 2.7264 0
M  V30 26 H -3.3042 3.8106 1.0809 0
M  V30 27 H -0.8235 -0.1024 1.7578 0
M  V30 28 H -1.704 -0.1992 0.2342 0
M  V30 29 H -3.5713 0.1496 1.049 0
M  V30 30 H -3.9584 1.6025 0.1054 0
M  V30 31 H 1.2008 0.6443 0.5663 0
M  V30 32 H 0.2808 0.8119 -0.94 0
M  V30 33 H -5.7885 0.4278 1.5544 0
M  V30 34 H -5.0093 1.177 2.9612 0
M  V30 35 H 0.5739 -1.8003 0.6013 0
M  V30 36 H -0.1032 -1.6217 -1.0146 0
M  V30 37 H -6.6853 2.44 2.1216 0
M  V30 38 H 2.8153 -1.1647 -0.2039 0
M  V30 39 H 3.3148 -3.1407 -1.592 0
M  V30 40 H 1.614 -3.333 -2.0046 0
M  V30 41 H 1.4998 -0.8936 -2.9576 0
M  V30 42 H 2.1627 0.4138 -1.9824 0
M  V30 43 H 2.7275 -3.5052 0.8468 0
M  V30 44 H 1.0839 -3.913 0.3369 0
M  V30 45 H 4.4437 -0.6819 -2.1282 0
M  V30 46 H 3.7611 -1.8301 -3.2872 0
M  V30 47 H 2.4231 -5.9524 0.6037 0
M  V30 48 H 1.9667 -5.7507 -1.0968 0
M  V30 49 H 3.6163 -5.3658 -0.5667 0
M  V30 50 H 4.8445 0.0289 -4.4679 0
M  V30 51 H 3.101 0.0492 -4.7855 0
M  V30 52 H 3.8103 1.2052 -3.6406 0
M  V30 END ATOM
M  V30 BEGIN BOND
M  V30 1 1 1 2
M  V30 2 1 1 3
M  V30 3 1 2 4
M  V30 4 1 3 5
M  V30 5 1 4 6
M  V30 6 1 4 7
M  V30 7 1 6 8
M  V30 8 1 7 9
M  V30 9 1 8 10
M  V30 10 1 9 11
M  V30 11 1 10 12
M  V30 12 1 11 13
M  V30 13 1 13 14
M  V30 14 1 13 15
M  V30 15 1 14 16
M  V30 16 1 15 17
M  V30 17 1 16 18
M  V30 18 1 17 19
M  V30 19 1 5 6
M  V30 20 1 2 20
M  V30 21 1 2 21
M  V30 22 1 3 22
M  V30 23 1 3 23
M  V30 24 1 4 24
M  V30 25 1 5 25
M  V30 26 1 5 26
M  V30 27 1 7 27
M  V30 28 1 7 28
M  V30 29 1 8 29
M  V30 30 1 8 30
M  V30 31 1 9 31
M  V30 32 1 9 32
M  V30 33 1 10 33
M  V30 34 1 10 34
M  V30 35 1 11 35
M  V30 36 1 11 36
M  V30 37 1 12 37
M  V30 38 1 13 38
M  V30 39 1 14 39
M  V30 40 1 14 40
M  V30 41 1 15 41
M  V30 42 1 15 42
M  V30 43 1 16 43
M  V30 44 1 16 44
M  V30 45 1 17 45
M  V30 46 1 17 46
M  V30 47 1 18 47
M  V30 48 1 18 48
M  V30 49 1 18 49
M  V30 50 1 19 50
M  V30 51 1 19 51
M  V30 52 1 19 52
M  V30 END BOND
M  V30 BEGIN COLLECTION
M  V30 MDLV30/STEABS ATOMS=(1 4)
M  V30 END COLLECTION
M  V30 END CTAB
M  END
>  <Column 1>
3812

>  <level_0>
7070

>  <index>
7071

>  <Unnamed: 0>
7071

>  <NO.>
7084

>  <Name>
unii-w239u04yz5

>  <IUPAC_name>
2-[(3r)-3-(4-propylheptyl)morpholin-4-yl]ethanol

>  <SMILES>
CCCC(CCC)CCC[C@@H]1COCCN1CCO

>  <CID>
76961509

>  <logBB>


>  <BBB+/BBB->
BBB+

>  <Inchi>
InChI=1S/C16H33NO2/c1-3-6-15(7-4-2)8-5-9-16-14-19-13-11-17(16)10-12-18/h15-16-18H-3-14H2-1-2H3/t16-/m1/s1

>  <threshold>


>  <reference>
R27|

>  <group>
C

>  <Class>
1

>  <ABC>
13.39

>  <ABCGG>
11.89

>  <nAcid>
0

>  <nBase>
1

>  <nAromAtom>
0

>  <nAromBond>
0

>  <nAtom>
52

>  <nHeavyAtom>
19

>  <nSpiro>
0

>  <nBridgehead>
0

>  <nHetero>
3

>  <nN>
1

>  <nO>
2

>  <nF>
0

>  <BalabanJ>
2.24

>  <BertzCT>
202.93

>  <nBonds>
52

>  <nBondsO>
19

>  <nBondsS>
52

>  <nBondsD>
0

>  <nBondsT>
0

>  <nBondsA>
0

>  <nBondsM>
0

>  <nBondsKS>
52

>  <nBondsKD>
0

>  <RNCG>
0.25

>  <RPCG>
0.13

>  <FCSP3>
1

>  <SZ>
25.33

>  <Sm>
22.6

>  <Sv>
27.13

>  <Sse>
50.97

>  <Sp>
30.8

>  <Si>
59.56

>  <MZ>
0.49

>  <Mm>
0.43

>  <Mv>
0.52

>  <Mse>
0.98

>  <Mp>
0.59

>  <Mi>
1.15

>  <NsCH3>
2

>  <NdCH2>
0

>  <NssCH2>
12

>  <NtCH>
0

>  <NdsCH>
0

>  <NaaCH>
0

>  <NsssCH>
2

>  <NddC>
0

>  <NtsC>
0

>  <NdssC>
0

>  <NaasC>
0

>  <NaaaC>
0

>  <NssssC>
0

>  <NsNH3>
0

>  <NsNH2>
0

>  <NssNH2>
0

>  <NdNH>
0

>  <NssNH>
0

>  <NaaNH>
0

>  <NtN>
0

>  <NsssNH>
0

>  <NdsN>
0

>  <NaaN>
0

>  <NsssN>
1

>  <NddsN>
0

>  <NaasN>
0

>  <NssssN>
0

>  <NsOH>
1

>  <NdO>
0

>  <NssO>
1

>  <NaaO>
0

>  <NsF>
0

>  <NsSiH3>
0

>  <NssSiH2>
0

>  <NsssSiH>
0

>  <NssssSi>
0

>  <NsPH2>
0

>  <NssPH>
0

>  <NsssP>
0

>  <NdsssP>
0

>  <NsssssP>
0

>  <NsSH>
0

>  <NdS>
0

>  <NssS>
0

>  <NaaS>
0

>  <NdssS>
0

>  <NddssS>
0

>  <NsCl>
0

>  <NsBr>
0

>  <NsI>
0

>  <fragCpx>
19.03

>  <fMF>
0.12

>  <nHBAcc>
3

>  <nHBDon>
1

>  <Kier1>
17.05

>  <Kier2>
10.75

>  <Lipinski>
1

>  <GhoseFilter>
1

>  <FilterItLogS>
-3.73

>  <VMcGowan>
247.16

>  <LabuteASA>
118.88

>  <PEOE_VSA1>
9.84

>  <PEOE_VSA2>
4.9

>  <PEOE_VSA3>
0

>  <PEOE_VSA4>
0

>  <PEOE_VSA5>
0

>  <PEOE_VSA6>
52.37

>  <PEOE_VSA7>
12.34

>  <PEOE_VSA8>
19.13

>  <PEOE_VSA9>
19.82

>  <PEOE_VSA10>
0

>  <PEOE_VSA11>
0

>  <PEOE_VSA12>
0

>  <PEOE_VSA13>
0

>  <SMR_VSA1>
9.84

>  <SMR_VSA2>
0

>  <SMR_VSA3>
4.9

>  <SMR_VSA4>
5.92

>  <SMR_VSA5>
64.84

>  <SMR_VSA6>
32.91

>  <SMR_VSA7>
0

>  <SMR_VSA8>
0

>  <SMR_VSA9>
0

>  <SlogP_VSA1>
0

>  <SlogP_VSA2>
48.96

>  <SlogP_VSA3>
4.74

>  <SlogP_VSA4>
5.92

>  <SlogP_VSA5>
58.79

>  <SlogP_VSA6>
0

>  <SlogP_VSA7>
0

>  <SlogP_VSA8>
0

>  <SlogP_VSA9>
0

>  <SlogP_VSA10>
0

>  <SlogP_VSA11>
0

>  <EState_VSA1>
0

>  <EState_VSA2>
6.61

>  <EState_VSA3>
6.04

>  <EState_VSA4>
32.22

>  <EState_VSA5>
44.95

>  <EState_VSA6>
0

>  <EState_VSA7>
0

>  <EState_VSA8>
18.75

>  <EState_VSA9>
9.84

>  <EState_VSA10>
0

>  <VSA_EState1>
5.59

>  <VSA_EState2>
2.4

>  <VSA_EState3>
9.11

>  <VSA_EState4>
0

>  <VSA_EState5>
0.92

>  <VSA_EState6>
0.53

>  <VSA_EState7>
9.29

>  <VSA_EState8>
8.32

>  <VSA_EState9>
0

>  <apol>
51.43

>  <bpol>
36.55

>  <nRing>
1

>  <nHRing>
1

>  <naRing>
0

>  <naHRing>
0

>  <nARing 2>
1

>  <nAHRing 2>
1

>  <nFRing>
0

>  <nFHRing>
0

>  <nFaRing>
0

>  <nFaHRing>
0

>  <nFARing 2>
0

>  <nFAHRing 2>
0

>  <nRot>
10

>  <SLogP>
3.07

>  <SMR>
80.42

>  <TopoPSA(NO)>
32.7

>  <TopoPSA>
32.7

>  <JGI1>
0.13

>  <JGI2>
0.07

>  <JGI3>
0.03

>  <JGI4>
0.02

>  <JGI5>
0.02

>  <Diameter>
11

>  <Radius>
6

>  <TMWC10>
106.34

>  <TSRW10>
50.71

>  <MW>
271.25

>  <AMW>
5.22

>  <WPath>
826

>  <WPol>
23

>  <Zagreb1>
82

>  <Zagreb2>
89

>  <mZagreb2>
4.78

>  <yes>


>  <nAR-cont>
0.816016

>  <nHA-cont>
0.998649058

>  <MWHBN>
0.242870696

>  <MWHBN-cont>
0.970944856

>  <TPSA-cont>
0.771733695

>  <pka_cont>
0.97

>  <yes.1>


>  <BBB_SCORE>
5.299549731

>  <MMFF94 Energy>
90.313

$$$$
Compound 2964
Actelion Java MolfileCreator 2.0

  0  0  0  0  0  0              0 V3000
M  V30 BEGIN CTAB
M  V30 COUNTS 43 45 0 0 0
M  V30 BEGIN ATOM
M  V30 1 O -2.309 -1.9106 2.309 0
M  V30 2 C -1.4116 -1.3445 1.7143 0
M  V30 3 N -1.2973 -0.0365 1.273 0
M  V30 4 C -0.0987 -2.0153 1.3746 0
M  V30 5 N -0.046 0.1983 0.6558 0
M  V30 6 C -2.0869 1.0141 1.8024 0
M  V30 7 O 0.165 -3.1672 1.6716 0
M  V30 8 C 0.7821 -1.0288 0.639 0 CFG=2
M  V30 9 C 0.1226 1.2097 -0.2969 0
M  V30 10 C -3.4817 0.8867 1.8324 0
M  V30 11 C -1.5019 2.1806 2.3126 0
M  V30 12 C 1.0684 -1.566 -0.7743 0
M  V30 13 C -0.9235 1.6719 -1.1086 0
M  V30 14 C 1.3862 1.8017 -0.4659 0
M  V30 15 C -4.2768 1.9112 2.3516 0
M  V30 16 C -2.298 3.2056 2.8298 0
M  V30 17 C 2.1524 -2.652 -0.7814 0
M  V30 18 C -0.7179 2.6837 -2.0518 0
M  V30 19 C 1.5966 2.8132 -1.4074 0
M  V30 20 C -3.6847 3.0708 2.8479 0
M  V30 21 C 2.4602 -3.1166 -2.206 0
M  V30 22 C 0.5425 3.2539 -2.201 0
M  V30 23 C 3.5341 -4.1927 -2.221 0
M  V30 24 H 1.6963 -0.8545 1.216 0
M  V30 25 H -3.9636 -0.0115 1.4528 0
M  V30 26 H -0.4223 2.3024 2.3172 0
M  V30 27 H 1.4097 -0.7636 -1.4361 0
M  V30 28 H 0.1483 -1.965 -1.2217 0
M  V30 29 H -1.9175 1.2393 -1.0281 0
M  V30 30 H 2.2224 1.4871 0.1537 0
M  V30 31 H -5.3581 1.8004 2.3715 0
M  V30 32 H -1.8339 4.1076 3.2201 0
M  V30 33 H 1.8344 -3.5138 -0.1859 0
M  V30 34 H 3.0663 -2.2585 -0.32 0
M  V30 35 H -1.5462 3.024 -2.6682 0
M  V30 36 H 2.582 3.259 -1.5153 0
M  V30 37 H -4.3039 3.8673 3.253 0
M  V30 38 H 1.5501 -3.5098 -2.6737 0
M  V30 39 H 2.7954 -2.2665 -2.8115 0
M  V30 40 H 0.7013 4.0418 -2.9326 0
M  V30 41 H 3.7387 -4.5094 -3.2484 0
M  V30 42 H 4.468 -3.8208 -1.7876 0
M  V30 43 H 3.2167 -5.0718 -1.6512 0
M  V30 END ATOM
M  V30 BEGIN BOND
M  V30 1 2 1 2
M  V30 2 1 2 3
M  V30 3 1 2 4
M  V30 4 1 3 5
M  V30 5 1 3 6
M  V30 6 2 4 7
M  V30 7 1 4 8
M  V30 8 1 5 9
M  V30 9 2 6 10
M  V30 10 1 6 11
M  V30 11 1 8 12
M  V30 12 2 9 13
M  V30 13 1 9 14
M  V30 14 1 10 15
M  V30 15 2 11 16
M  V30 16 1 12 17
M  V30 17 1 13 18
M  V30 18 2 14 19
M  V30 19 2 15 20
M  V30 20 1 17 21
M  V30 21 2 18 22
M  V30 22 1 21 23
M  V30 23 1 5 8
M  V30 24 1 16 20
M  V30 25 1 19 22
M  V30 26 1 8 24
M  V30 27 1 10 25
M  V30 28 1 11 26
M  V30 29 1 12 27
M  V30 30 1 12 28
M  V30 31 1 13 29
M  V30 32 1 14 30
M  V30 33 1 15 31
M  V30 34 1 16 32
M  V30 35 1 17 33
M  V30 36 1 17 34
M  V30 37 1 18 35
M  V30 38 1 19 36
M  V30 39 1 20 37
M  V30 40 1 21 38
M  V30 41 1 21 39
M  V30 42 1 22 40
M  V30 43 1 23 41
M  V30 44 1 23 42
M  V30 45 1 23 43
M  V30 END BOND
M  V30 BEGIN COLLECTION
M  V30 MDLV30/STEABS ATOMS=(1 8)
M  V30 END COLLECTION
M  V30 END CTAB
M  END
>  <Column 1>
3814

>  <level_0>
7092

>  <index>
7093

>  <Unnamed: 0>
7093

>  <NO.>
7106

>  <Name>


>  <IUPAC_name>


>  <SMILES>
CCCC[C@@H]1C(=O)C(=O)N(c2ccccc2)N1c1ccccc1

>  <CID>


>  <logBB>


>  <BBB+/BBB->
BBB+

>  <Inchi>
InChI=1S/C19H20N2O2/c1-2-3-14-17-18(22)19(23)21(16-12-8-5-9-13-16)20(17)15-10-6-4-7-11-15/h4-13-17H-2-3-14H2-1H3/t17-/m1/s1

>  <threshold>


>  <reference>
R27|

>  <group>
C

>  <Class>
1

>  <ABC>
17.61

>  <ABCGG>
15.17

>  <nAcid>
0

>  <nBase>
0

>  <nAromAtom>
12

>  <nAromBond>
12

>  <nAtom>
43

>  <nHeavyAtom>
23

>  <nSpiro>
0

>  <nBridgehead>
0

>  <nHetero>
4

>  <nN>
2

>  <nO>
2

>  <nF>
0

>  <BalabanJ>
1.8

>  <BertzCT>
685.03

>  <nBonds>
45

>  <nBondsO>
25

>  <nBondsS>
31

>  <nBondsD>
2

>  <nBondsT>
0

>  <nBondsA>
12

>  <nBondsM>
14

>  <nBondsKS>
37

>  <nBondsKD>
8

>  <RNCG>
0.16

>  <RPCG>
0.18

>  <FCSP3>
0.26

>  <SZ>
27.33

>  <Sm>
25.67

>  <Sv>
27.36

>  <Sse>
42.87

>  <Sp>
29.26

>  <Si>
48.15

>  <MZ>
0.64

>  <Mm>
0.6

>  <Mv>
0.64

>  <Mse>
1

>  <Mp>
0.68

>  <Mi>
1.12

>  <NsCH3>
1

>  <NdCH2>
0

>  <NssCH2>
3

>  <NtCH>
0

>  <NdsCH>
0

>  <NaaCH>
10

>  <NsssCH>
1

>  <NddC>
0

>  <NtsC>
0

>  <NdssC>
2

>  <NaasC>
2

>  <NaaaC>
0

>  <NssssC>
0

>  <NsNH3>
0

>  <NsNH2>
0

>  <NssNH2>
0

>  <NdNH>
0

>  <NssNH>
0

>  <NaaNH>
0

>  <NtN>
0

>  <NsssNH>
0

>  <NdsN>
0

>  <NaaN>
0

>  <NsssN>
2

>  <NddsN>
0

>  <NaasN>
0

>  <NssssN>
0

>  <NsOH>
0

>  <NdO>
2

>  <NssO>
0

>  <NaaO>
0

>  <NsF>
0

>  <NsSiH3>
0

>  <NssSiH2>
0

>  <NsssSiH>
0

>  <NssssSi>
0

>  <NsPH2>
0

>  <NssPH>
0

>  <NsssP>
0

>  <NdsssP>
0

>  <NsssssP>
0

>  <NsSH>
0

>  <NdS>
0

>  <NssS>
0

>  <NaaS>
0

>  <NdssS>
0

>  <NddssS>
0

>  <NsCl>
0

>  <NsBr>
0

>  <NsI>
0

>  <fragCpx>
119.04

>  <fMF>
0.4

>  <nHBAcc>
3

>  <nHBDon>
0

>  <Kier1>
17.81

>  <Kier2>
8.39

>  <Lipinski>
1

>  <GhoseFilter>
1

>  <FilterItLogS>
-4.04

>  <VMcGowan>
243.29

>  <LabuteASA>
135.85

>  <PEOE_VSA1>
0

>  <PEOE_VSA2>
14.6

>  <PEOE_VSA3>
5.01

>  <PEOE_VSA4>
0

>  <PEOE_VSA5>
0

>  <PEOE_VSA6>
56.16

>  <PEOE_VSA7>
30.69

>  <PEOE_VSA8>
0

>  <PEOE_VSA9>
11.37

>  <PEOE_VSA10>
6.04

>  <PEOE_VSA11>
0

>  <PEOE_VSA12>
5.78

>  <PEOE_VSA13>
0

>  <SMR_VSA1>
9.59

>  <SMR_VSA2>
0

>  <SMR_VSA3>
0

>  <SMR_VSA4>
0

>  <SMR_VSA5>
32.23

>  <SMR_VSA6>
10.02

>  <SMR_VSA7>
60.66

>  <SMR_VSA8>
0

>  <SMR_VSA9>
0

>  <SlogP_VSA1>
10.02

>  <SlogP_VSA2>
17.73

>  <SlogP_VSA3>
9.59

>  <SlogP_VSA4>
0

>  <SlogP_VSA5>
26.19

>  <SlogP_VSA6>
60.66

>  <SlogP_VSA7>
0

>  <SlogP_VSA8>
0

>  <SlogP_VSA9>
0

>  <SlogP_VSA10>
11.37

>  <SlogP_VSA11>
0

>  <EState_VSA1>
11.95

>  <EState_VSA2>
5.78

>  <EState_VSA3>
12.11

>  <EState_VSA4>
18.53

>  <EState_VSA5>
5.01

>  <EState_VSA6>
0

>  <EState_VSA7>
65.67

>  <EState_VSA8>
6.92

>  <EState_VSA9>
0

>  <EState_VSA10>
9.59

>  <VSA_EState1>
0

>  <VSA_EState2>
25.14

>  <VSA_EState3>
3.35

>  <VSA_EState4>
1.57

>  <VSA_EState5>
-0.78

>  <VSA_EState6>
18.54

>  <VSA_EState7>
2.58

>  <VSA_EState8>
2.09

>  <VSA_EState9>
0

>  <apol>
48.87

>  <bpol>
24.08

>  <nRing>
3

>  <nHRing>
1

>  <naRing>
2

>  <naHRing>
0

>  <nARing 2>
1

>  <nAHRing 2>
1

>  <nFRing>
0

>  <nFHRing>
0

>  <nFaRing>
0

>  <nFaHRing>
0

>  <nFARing 2>
0

>  <nFAHRing 2>
0

>  <nRot>
5

>  <SLogP>
3.58

>  <SMR>
91.17

>  <TopoPSA(NO)>
40.62

>  <TopoPSA>
40.62

>  <JGI1>
0.1

>  <JGI2>
0.07

>  <JGI3>
0.07

>  <JGI4>
0.05

>  <JGI5>
0.02

>  <Diameter>
10

>  <Radius>
5

>  <TMWC10>
123.36

>  <TSRW10>
71.9

>  <MW>
308.15

>  <AMW>
7.17

>  <WPath>
1094

>  <WPol>
37

>  <Zagreb1>
118

>  <Zagreb2>
141

>  <mZagreb2>
5.28

>  <yes>


>  <nAR-cont>
0.816016

>  <nHA-cont>
0.967789328

>  <MWHBN>
0.170899255

>  <MWHBN-cont>
0.975351032

>  <TPSA-cont>
0.716447176

>  <pka_cont>
0.97

>  <yes.1>


>  <BBB_SCORE>
5.164726229

>  <MMFF94 Energy>
120.11

$$$$
Compound 2965
Actelion Java MolfileCreator 2.0

  0  0  0  0  0  0              0 V3000
M  V30 BEGIN CTAB
M  V30 COUNTS 65 65 0 0 0
M  V30 BEGIN ATOM
M  V30 1 O 2.7427 3.7629 -0.2348 0
M  V30 2 C 3.0707 2.7192 0.3174 0
M  V30 3 C 2.1122 1.7901 1.0343 0 CFG=2
M  V30 4 C 4.4923 2.2155 0.3561 0
M  V30 5 C 2.9148 0.4686 1.0196 0 CFG=2
M  V30 6 C 0.6906 1.8044 0.4725 0
M  V30 7 C 4.3663 0.9557 1.2113 0 CFG=2
M  V30 8 C 2.8351 -0.4658 -0.1712 0
M  V30 9 C -0.2456 0.7211 1.0178 0
M  V30 10 O 4.5963 1.2936 2.579 0
M  V30 11 C 2.5713 -0.1556 -1.4507 0
M  V30 12 C -0.4763 0.8235 2.5276 0
M  V30 13 C 2.4835 -1.1721 -2.5631 0
M  V30 14 C -1.3979 -0.2722 3.0746 0
M  V30 15 C 1.0506 -1.4124 -3.1201 0 CFG=1
M  V30 16 C -2.8452 -0.1503 2.585 0
M  V30 17 O 0.2126 -1.918 -2.072 0
M  V30 18 C 0.4164 -0.108 -3.655 0
M  V30 19 C 1.1233 -2.4949 -4.2057 0
M  V30 20 C -3.7628 -1.2006 3.2126 0
M  V30 21 C -0.9825 -0.2781 -4.2644 0
M  V30 22 C -4.0794 -0.9264 4.6654 0
M  V30 23 C -1.5841 1.0751 -4.6495 0
M  V30 24 O -3.8411 0.113 5.263 0
M  V30 25 O -4.6971 -2.0155 5.2065 0
M  V30 26 C -2.9667 0.9162 -5.2616 0
M  V30 27 C -5.0568 -1.8554 6.5793 0
M  V30 28 H 2.074 2.1592 2.0689 0
M  V30 29 H 5.1472 2.9669 0.8033 0
M  V30 30 H 4.7998 1.9764 -0.6655 0
M  V30 31 H 2.5964 -0.115 1.8938 0
M  V30 32 H 0.7041 1.7385 -0.6198 0
M  V30 33 H 0.2471 2.7874 0.6823 0
M  V30 34 H 5.1197 0.2126 0.9284 0
M  V30 35 H 3.0089 -1.5136 0.076 0
M  V30 36 H 0.1378 -0.2737 0.7688 0
M  V30 37 H -1.2027 0.8231 0.4939 0
M  V30 38 H 4.5981 0.4666 3.0928 0
M  V30 39 H 2.4151 0.877 -1.752 0
M  V30 40 H -0.8886 1.8092 2.7748 0
M  V30 41 H 0.4824 0.7411 3.0514 0
M  V30 42 H 3.1441 -0.8421 -3.3748 0
M  V30 43 H 2.8895 -2.1263 -2.2013 0
M  V30 44 H -1.3756 -0.2146 4.1692 0
M  V30 45 H -0.9974 -1.2567 2.8044 0
M  V30 46 H -2.8738 -0.2876 1.4985 0
M  V30 47 H -3.2251 0.8571 2.7923 0
M  V30 48 H 0.6733 -2.6634 -1.6523 0
M  V30 49 H 1.0805 0.3447 -4.4018 0
M  V30 50 H 0.3201 0.6079 -2.8299 0
M  V30 51 H 0.1255 -2.8256 -4.5123 0
M  V30 52 H 1.6269 -3.3919 -3.8264 0
M  V30 53 H 1.6677 -2.1433 -5.0878 0
M  V30 54 H -4.7157 -1.21 2.6714 0
M  V30 55 H -3.3038 -2.1918 3.1278 0
M  V30 56 H -1.6451 -0.7794 -3.5492 0
M  V30 57 H -0.9279 -0.9084 -5.1587 0
M  V30 58 H -1.6557 1.7171 -3.7638 0
M  V30 59 H -0.9291 1.5829 -5.3669 0
M  V30 60 H -3.3777 1.8948 -5.5286 0
M  V30 61 H -2.9262 0.3057 -6.1691 0
M  V30 62 H -3.6552 0.4394 -4.5567 0
M  V30 63 H -5.5378 -2.7787 6.9133 0
M  V30 64 H -4.1657 -1.688 7.1923 0
M  V30 65 H -5.7688 -1.0323 6.6956 0
M  V30 END ATOM
M  V30 BEGIN BOND
M  V30 1 2 1 2
M  V30 2 1 2 3
M  V30 3 1 2 4
M  V30 4 1 3 5
M  V30 5 1 3 6
M  V30 6 1 4 7
M  V30 7 1 5 8
M  V30 8 1 6 9
M  V30 9 1 7 10
M  V30 10 2 8 11
M  V30 11 1 9 12
M  V30 12 1 11 13
M  V30 13 1 12 14
M  V30 14 1 13 15
M  V30 15 1 14 16
M  V30 16 1 15 17
M  V30 17 1 15 18
M  V30 18 1 15 19
M  V30 19 1 16 20
M  V30 20 1 18 21
M  V30 21 1 20 22
M  V30 22 1 21 23
M  V30 23 2 22 24
M  V30 24 1 22 25
M  V30 25 1 23 26
M  V30 26 1 25 27
M  V30 27 1 5 7
M  V30 28 1 3 28
M  V30 29 1 4 29
M  V30 30 1 4 30
M  V30 31 1 5 31
M  V30 32 1 6 32
M  V30 33 1 6 33
M  V30 34 1 7 34
M  V30 35 1 8 35
M  V30 36 1 9 36
M  V30 37 1 9 37
M  V30 38 1 10 38
M  V30 39 1 11 39
M  V30 40 1 12 40
M  V30 41 1 12 41
M  V30 42 1 13 42
M  V30 43 1 13 43
M  V30 44 1 14 44
M  V30 45 1 14 45
M  V30 46 1 16 46
M  V30 47 1 16 47
M  V30 48 1 17 48
M  V30 49 1 18 49
M  V30 50 1 18 50
M  V30 51 1 19 51
M  V30 52 1 19 52
M  V30 53 1 19 53
M  V30 54 1 20 54
M  V30 55 1 20 55
M  V30 56 1 21 56
M  V30 57 1 21 57
M  V30 58 1 23 58
M  V30 59 1 23 59
M  V30 60 1 26 60
M  V30 61 1 26 61
M  V30 62 1 26 62
M  V30 63 1 27 63
M  V30 64 1 27 64
M  V30 65 1 27 65
M  V30 END BOND
M  V30 BEGIN COLLECTION
M  V30 MDLV30/STEABS ATOMS=(4 3 5 7 15)
M  V30 END COLLECTION
M  V30 END CTAB
M  END
>  <Column 1>
3815

>  <level_0>
7095

>  <index>
7096

>  <Unnamed: 0>
7096

>  <NO.>
7109

>  <Name>
zinc27638664

>  <IUPAC_name>
methyl 7-[(1s-2r-3r)-3-hydroxy-2-[(e-4s)-4-hydroxy-4-methyloct-1-enyl]-5-oxocyclopentyl]heptanoate

>  <SMILES>
CCCC[C@](C)(O)C/C=C/[C@@H]1[C@H](CCCCCCC(=O)OC)C(=O)C[C@H]1O

>  <CID>
35020499

>  <logBB>


>  <BBB+/BBB->
BBB+

>  <Inchi>
InChI=1S/C22H38O5/c1-4-5-14-22(2-26)15-10-12-18-17(19(23)16-20(18)24)11-8-6-7-9-13-21(25)27-3/h10-12-17-18-20-24-26H-4-9-11-13-16H2-1-3H3/b12-10+/t17--18+-20+-22-/m0/s1

>  <threshold>


>  <reference>
R27|

>  <group>
C

>  <Class>
-1

>  <ABC>
19.62

>  <ABCGG>
16.8

>  <nAcid>
0

>  <nBase>
0

>  <nAromAtom>
0

>  <nAromBond>
0

>  <nAtom>
65

>  <nHeavyAtom>
27

>  <nSpiro>
0

>  <nBridgehead>
0

>  <nHetero>
5

>  <nN>
0

>  <nO>
5

>  <nF>
0

>  <BalabanJ>
2.31

>  <BertzCT>
483.09

>  <nBonds>
65

>  <nBondsO>
27

>  <nBondsS>
62

>  <nBondsD>
3

>  <nBondsT>
0

>  <nBondsA>
0

>  <nBondsM>
3

>  <nBondsKS>
62

>  <nBondsKD>
3

>  <RNCG>
0.19

>  <RPCG>
0.12

>  <FCSP3>
0.82

>  <SZ>
35

>  <Sm>
31.85

>  <Sv>
35.87

>  <Sse>
64.52

>  <Sp>
39.57

>  <Si>
73.94

>  <MZ>
0.54

>  <Mm>
0.49

>  <Mv>
0.55

>  <Mse>
0.99

>  <Mp>
0.61

>  <Mi>
1.14

>  <NsCH3>
3

>  <NdCH2>
0

>  <NssCH2>
11

>  <NtCH>
0

>  <NdsCH>
2

>  <NaaCH>
0

>  <NsssCH>
3

>  <NddC>
0

>  <NtsC>
0

>  <NdssC>
2

>  <NaasC>
0

>  <NaaaC>
0

>  <NssssC>
1

>  <NsNH3>
0

>  <NsNH2>
0

>  <NssNH2>
0

>  <NdNH>
0

>  <NssNH>
0

>  <NaaNH>
0

>  <NtN>
0

>  <NsssNH>
0

>  <NdsN>
0

>  <NaaN>
0

>  <NsssN>
0

>  <NddsN>
0

>  <NaasN>
0

>  <NssssN>
0

>  <NsOH>
2

>  <NdO>
2

>  <NssO>
1

>  <NaaO>
0

>  <NsF>
0

>  <NsSiH3>
0

>  <NssSiH2>
0

>  <NsssSiH>
0

>  <NssssSi>
0

>  <NsPH2>
0

>  <NssPH>
0

>  <NsssP>
0

>  <NdsssP>
0

>  <NsssssP>
0

>  <NsSH>
0

>  <NdS>
0

>  <NssS>
0

>  <NaaS>
0

>  <NdssS>
0

>  <NddssS>
0

>  <NsCl>
0

>  <NsBr>
0

>  <NsI>
0

>  <fragCpx>
27.05

>  <fMF>
0.08

>  <nHBAcc>
5

>  <nHBDon>
2

>  <Kier1>
25.04

>  <Kier2>
13.27

>  <Lipinski>
1

>  <GhoseFilter>
1

>  <FilterItLogS>
-4.29

>  <VMcGowan>
326.43

>  <LabuteASA>
163.73

>  <PEOE_VSA1>
14.95

>  <PEOE_VSA2>
9.59

>  <PEOE_VSA3>
0

>  <PEOE_VSA4>
0

>  <PEOE_VSA5>
0

>  <PEOE_VSA6>
51.18

>  <PEOE_VSA7>
32.61

>  <PEOE_VSA8>
24.68

>  <PEOE_VSA9>
18.81

>  <PEOE_VSA10>
5.78

>  <PEOE_VSA11>
0

>  <PEOE_VSA12>
0

>  <PEOE_VSA13>
0

>  <SMR_VSA1>
24.54

>  <SMR_VSA2>
0

>  <SMR_VSA3>
0

>  <SMR_VSA4>
11.84

>  <SMR_VSA5>
96.18

>  <SMR_VSA6>
7.11

>  <SMR_VSA7>
12.15

>  <SMR_VSA8>
0

>  <SMR_VSA9>
0

>  <SlogP_VSA1>
0

>  <SlogP_VSA2>
40.78

>  <SlogP_VSA3>
14.33

>  <SlogP_VSA4>
11.84

>  <SlogP_VSA5>
84.48

>  <SlogP_VSA6>
12.15

>  <SlogP_VSA7>
0

>  <SlogP_VSA8>
0

>  <SlogP_VSA9>
0

>  <SlogP_VSA10>
0

>  <SlogP_VSA11>
0

>  <EState_VSA1>
11.71

>  <EState_VSA2>
30.01

>  <EState_VSA3>
12.84

>  <EState_VSA4>
51.37

>  <EState_VSA5>
7.11

>  <EState_VSA6>
0

>  <EState_VSA7>
19.08

>  <EState_VSA8>
11.66

>  <EState_VSA9>
0

>  <EState_VSA10>
19.8

>  <VSA_EState1>
4.62

>  <VSA_EState2>
23.32

>  <VSA_EState3>
20.61

>  <VSA_EState4>
-0.73

>  <VSA_EState5>
-0.31

>  <VSA_EState6>
0

>  <VSA_EState7>
11.71

>  <VSA_EState8>
3.95

>  <VSA_EState9>
1.4

>  <apol>
66.09

>  <bpol>
41.59

>  <nRing>
1

>  <nHRing>
0

>  <naRing>
0

>  <naHRing>
0

>  <nARing 2>
1

>  <nAHRing 2>
0

>  <nFRing>
0

>  <nFHRing>
0

>  <nFaRing>
0

>  <nFaHRing>
0

>  <nFARing 2>
0

>  <nFAHRing 2>
0

>  <nRot>
13

>  <SLogP>
3.95

>  <SMR>
106.23

>  <TopoPSA(NO)>
83.83

>  <TopoPSA>
83.83

>  <JGI1>
0.22

>  <JGI2>
0.09

>  <JGI3>
0.07

>  <JGI4>
0.03

>  <JGI5>
0.02

>  <Diameter>
18

>  <Radius>
9

>  <TMWC10>
127.11

>  <TSRW10>
75.22

>  <MW>
382.27

>  <AMW>
5.88

>  <WPath>
2331

>  <WPol>
34

>  <Zagreb1>
124

>  <Zagreb2>
136

>  <mZagreb2>
6.33

>  <yes>


>  <nAR-cont>
0.816016

>  <nHA-cont>
0.860070871

>  <MWHBN>
0.358024652

>  <MWHBN-cont>
0.639958378

>  <TPSA-cont>
0.414814545

>  <pka_cont>
0.97

>  <yes.1>


>  <BBB_SCORE>
3.950653528

>  <MMFF94 Energy>
44.07

$$$$
Compound 2966
Actelion Java MolfileCreator 2.0

  0  0  0  0  0  0              0 V3000
M  V30 BEGIN CTAB
M  V30 COUNTS 56 59 0 0 0
M  V30 BEGIN ATOM
M  V30 1 O 3.2019 -2.0002 0.7197 0
M  V30 2 C 3.1678 -0.9621 0.0679 0
M  V30 3 O 2.0499 -0.5068 -0.5667 0
M  V30 4 C 4.3613 -0.0472 -0.1324 0 CFG=2
M  V30 5 C 0.8652 -1.3099 -0.4499 0
M  V30 6 C 3.9853 1.4319 -0.1536 0
M  V30 7 C 5.2034 -0.5637 -1.3074 0
M  V30 8 C -0.026 -0.9715 -1.6662 0
M  V30 9 C 0.2146 -1.072 0.9334 0
M  V30 10 C 3.8721 2.1223 1.0671 0
M  V30 11 C 3.708 2.1296 -1.3383 0
M  V30 12 O 4.4478 -0.7012 -2.5098 0
M  V30 13 C -1.5151 -1.2403 -1.4025 0 CFG=1
M  V30 14 C -1.3048 -1.3248 0.9328 0 CFG=1
M  V30 15 C 3.5104 3.4707 1.0979 0
M  V30 16 C 3.3461 3.4788 -1.3056 0
M  V30 17 N -1.9457 -0.3933 -0.1522 0 CHG=1
M  V30 18 C -1.6666 -2.7075 -1.007 0 CFG=2
M  V30 19 C -1.5313 -2.757 0.4808 0 CFG=1
M  V30 20 C 3.249 4.1492 -0.0889 0
M  V30 21 C -3.5093 -0.3316 -0.1096 0
M  V30 22 C -1.4697 1.0603 -0.1423 0
M  V30 23 O -2.7652 -3.0757 -0.1622 0
M  V30 24 C -4.0702 -0.1309 1.298 0
M  V30 25 C -5.576 0.141 1.2455 0
M  V30 26 C -6.1585 0.3244 2.6381 0
M  V30 27 H 4.9899 -0.1745 0.7614 0
M  V30 28 H 1.1377 -2.371 -0.5369 0
M  V30 29 H 5.6052 -1.5548 -1.0677 0
M  V30 30 H 6.0461 0.1081 -1.5044 0
M  V30 31 H 0.3118 -1.5816 -2.515 0
M  V30 32 H 0.1327 0.0613 -1.9984 0
M  V30 33 H 0.6883 -1.748 1.658 0
M  V30 34 H 0.4459 -0.069 1.311 0
M  V30 35 H 4.0798 1.618 2.0097 0
M  V30 36 H 3.7672 1.6369 -2.3059 0
M  V30 37 H 5.0722 -0.9933 -3.1999 0
M  V30 38 H -2.1479 -0.9535 -2.2486 0
M  V30 39 H -1.739 -1.0985 1.9087 0
M  V30 40 H 3.4468 3.9958 2.0483 0
M  V30 41 H 3.1505 4.0098 -2.2343 0
M  V30 42 H -1.2157 -3.4486 -1.6476 0
M  V30 43 H -0.972 -3.5333 0.9786 0
M  V30 44 H 2.9824 5.2032 -0.0671 0
M  V30 45 H -3.8017 0.4983 -0.765 0
M  V30 46 H -3.9301 -1.2274 -0.5702 0
M  V30 47 H -1.916 1.5714 -1.0006 0
M  V30 48 H -1.7918 1.5213 0.7942 0
M  V30 49 H -0.3856 1.1319 -0.217 0
M  V30 50 H -3.904 -1.0314 1.8996 0
M  V30 51 H -3.5733 0.7018 1.8058 0
M  V30 52 H -5.7711 1.0429 0.6535 0
M  V30 53 H -6.0876 -0.6913 0.7482 0
M  V30 54 H -7.2341 0.5181 2.5766 0
M  V30 55 H -6.0092 -0.5728 3.2472 0
M  V30 56 H -5.6897 1.1702 3.1512 0
M  V30 END ATOM
M  V30 BEGIN BOND
M  V30 1 2 1 2
M  V30 2 1 2 3
M  V30 3 1 2 4
M  V30 4 1 3 5
M  V30 5 1 4 6
M  V30 6 1 4 7
M  V30 7 1 5 8
M  V30 8 1 5 9
M  V30 9 2 6 10
M  V30 10 1 6 11
M  V30 11 1 7 12
M  V30 12 1 8 13
M  V30 13 1 9 14
M  V30 14 1 10 15
M  V30 15 2 11 16
M  V30 16 1 13 17
M  V30 17 1 13 18
M  V30 18 1 14 19
M  V30 19 2 15 20
M  V30 20 1 17 21
M  V30 21 1 17 22
M  V30 22 1 18 23
M  V30 23 1 21 24
M  V30 24 1 24 25
M  V30 25 1 25 26
M  V30 26 1 14 17
M  V30 27 1 16 20
M  V30 28 1 18 19
M  V30 29 1 19 23
M  V30 30 1 4 27
M  V30 31 1 5 28
M  V30 32 1 7 29
M  V30 33 1 7 30
M  V30 34 1 8 31
M  V30 35 1 8 32
M  V30 36 1 9 33
M  V30 37 1 9 34
M  V30 38 1 10 35
M  V30 39 1 11 36
M  V30 40 1 12 37
M  V30 41 1 13 38
M  V30 42 1 14 39
M  V30 43 1 15 40
M  V30 44 1 16 41
M  V30 45 1 18 42
M  V30 46 1 19 43
M  V30 47 1 20 44
M  V30 48 1 21 45
M  V30 49 1 21 46
M  V30 50 1 22 47
M  V30 51 1 22 48
M  V30 52 1 22 49
M  V30 53 1 24 50
M  V30 54 1 24 51
M  V30 55 1 25 52
M  V30 56 1 25 53
M  V30 57 1 26 54
M  V30 58 1 26 55
M  V30 59 1 26 56
M  V30 END BOND
M  V30 BEGIN COLLECTION
M  V30 MDLV30/STEABS ATOMS=(5 4 13 14 18 19)
M  V30 END COLLECTION
M  V30 END CTAB
M  END
>  <Column 1>
3816

>  <level_0>
7096

>  <index>
7097

>  <Unnamed: 0>
7097

>  <NO.>
7110

>  <Name>
[(1r-2r-4s-5r)-9-butyl-9-methyl-3-oxa-9-azoniatricyclo[3.3.1.02-4]nonan-7-yl] (2r)-3-hydroxy-2-phenylpropanoate

>  <IUPAC_name>
[(1r-2r-4s-5r)-9-butyl-9-methyl-3-oxa-9-azoniatricyclo[3.3.1.02-4]nonan-7-yl] (2r)-3-hydroxy-2-phenylpropanoate

>  <SMILES>
CCCC[N+]1(C)[C@@H]2CC(OC(=O)[C@@H](CO)c3ccccc3)C[C@@H]1[C@H]1O[C@H]12

>  <CID>
98044891

>  <logBB>


>  <BBB+/BBB->
BBB-

>  <Inchi>
InChI=1S/C21H30NO4/c1-3-4-10-22(2)17-11-15(12-18(22)20-19(17)26-20)25-21(24)16(13-23)14-8-6-5-7-9-14/h5-9-15-20-23H-3-4-10-13H2-1-2H3/q+1/t15?-16--17+-18+-19--20+-22?/m0/s1

>  <threshold>


>  <reference>
R27|

>  <group>
C

>  <Class>
1

>  <ABC>
20.45

>  <ABCGG>
17.76

>  <nAcid>
0

>  <nBase>
1

>  <nAromAtom>
6

>  <nAromBond>
6

>  <nAtom>
56

>  <nHeavyAtom>
26

>  <nSpiro>
0

>  <nBridgehead>
2

>  <nHetero>
5

>  <nN>
1

>  <nO>
4

>  <nF>
0

>  <BalabanJ>
1.37

>  <BertzCT>
630.67

>  <nBonds>
59

>  <nBondsO>
29

>  <nBondsS>
52

>  <nBondsD>
1

>  <nBondsT>
0

>  <nBondsA>
6

>  <nBondsM>
7

>  <nBondsKS>
55

>  <nBondsKD>
4

>  <RNCG>
0.21

>  <RPCG>
0.1

>  <FCSP3>
0.67

>  <SZ>
32.5

>  <Sm>
30.01

>  <Sv>
32.74

>  <Sse>
55.8

>  <Sp>
35.56

>  <Si>
63.36

>  <MZ>
0.58

>  <Mm>
0.54

>  <Mv>
0.58

>  <Mse>
1

>  <Mp>
0.63

>  <Mi>
1.13

>  <NsCH3>
2

>  <NdCH2>
0

>  <NssCH2>
6

>  <NtCH>
0

>  <NdsCH>
0

>  <NaaCH>
5

>  <NsssCH>
6

>  <NddC>
0

>  <NtsC>
0

>  <NdssC>
1

>  <NaasC>
1

>  <NaaaC>
0

>  <NssssC>
0

>  <NsNH3>
0

>  <NsNH2>
0

>  <NssNH2>
0

>  <NdNH>
0

>  <NssNH>
0

>  <NaaNH>
0

>  <NtN>
0

>  <NsssNH>
0

>  <NdsN>
0

>  <NaaN>
0

>  <NsssN>
0

>  <NddsN>
0

>  <NaasN>
0

>  <NssssN>
1

>  <NsOH>
1

>  <NdO>
1

>  <NssO>
2

>  <NaaO>
0

>  <NsF>
0

>  <NsSiH3>
0

>  <NssSiH2>
0

>  <NsssSiH>
0

>  <NssssSi>
0

>  <NsPH2>
0

>  <NssPH>
0

>  <NsssP>
0

>  <NdsssP>
0

>  <NsssssP>
0

>  <NsSH>
0

>  <NdS>
0

>  <NssS>
0

>  <NaaS>
0

>  <NdssS>
0

>  <NddssS>
0

>  <NsCl>
0

>  <NsBr>
0

>  <NsI>
0

>  <fragCpx>
191.05

>  <fMF>
0.32

>  <nHBAcc>
4

>  <nHBDon>
1

>  <Kier1>
19.32

>  <Kier2>
7.79

>  <Lipinski>
1

>  <GhoseFilter>
1

>  <FilterItLogS>
-3.73

>  <VMcGowan>
281.72

>  <LabuteASA>
155.04

>  <PEOE_VSA1>
19.06

>  <PEOE_VSA2>
4.79

>  <PEOE_VSA3>
0

>  <PEOE_VSA4>
0

>  <PEOE_VSA5>
0

>  <PEOE_VSA6>
43.68

>  <PEOE_VSA7>
11.98

>  <PEOE_VSA8>
12.84

>  <PEOE_VSA9>
20.2

>  <PEOE_VSA10>
36.31

>  <PEOE_VSA11>
0

>  <PEOE_VSA12>
0

>  <PEOE_VSA13>
0

>  <SMR_VSA1>
23.86

>  <SMR_VSA2>
0

>  <SMR_VSA3>
0

>  <SMR_VSA4>
0

>  <SMR_VSA5>
68.92

>  <SMR_VSA6>
20.2

>  <SMR_VSA7>
35.9

>  <SMR_VSA8>
0

>  <SMR_VSA9>
0

>  <SlogP_VSA1>
0

>  <SlogP_VSA2>
66.15

>  <SlogP_VSA3>
14.27

>  <SlogP_VSA4>
0

>  <SlogP_VSA5>
44.09

>  <SlogP_VSA6>
30.33

>  <SlogP_VSA7>
0

>  <SlogP_VSA8>
0

>  <SlogP_VSA9>
0

>  <SlogP_VSA10>
0

>  <SlogP_VSA11>
0

>  <EState_VSA1>
5.92

>  <EState_VSA2>
18.68

>  <EState_VSA3>
24.29

>  <EState_VSA4>
22.89

>  <EState_VSA5>
19.39

>  <EState_VSA6>
0

>  <EState_VSA7>
30.33

>  <EState_VSA8>
13.97

>  <EState_VSA9>
9.47

>  <EState_VSA10>
9.9

>  <VSA_EState1>
12.85

>  <VSA_EState2>
12.68

>  <VSA_EState3>
9.7

>  <VSA_EState4>
0.81

>  <VSA_EState5>
-0.9

>  <VSA_EState6>
10.29

>  <VSA_EState7>
4.83

>  <VSA_EState8>
3.2

>  <VSA_EState9>
2.36

>  <apol>
59.38

>  <bpol>
36.72

>  <nRing>
4

>  <nHRing>
3

>  <naRing>
1

>  <naHRing>
0

>  <nARing 2>
3

>  <nAHRing 2>
3

>  <nFRing>
1

>  <nFHRing>
1

>  <nFaRing>
0

>  <nFaHRing>
0

>  <nFARing 2>
1

>  <nFAHRing 2>
1

>  <nRot>
7

>  <SLogP>
2.23

>  <SMR>
97.58

>  <TopoPSA(NO)>
59.06

>  <TopoPSA>
59.06

>  <JGI1>
0.19

>  <JGI2>
0.09

>  <JGI3>
0.07

>  <JGI4>
0.04

>  <JGI5>
0.03

>  <Diameter>
14

>  <Radius>
7

>  <TMWC10>
133.45

>  <TSRW10>
82.59

>  <MW>
360.22

>  <AMW>
6.43

>  <WPath>
1727

>  <WPol>
44

>  <Zagreb1>
144

>  <Zagreb2>
178

>  <mZagreb2>
5.76

>  <yes>


>  <nAR-cont>
0.691115

>  <nHA-cont>
0.892715677

>  <MWHBN>
0.263442654

>  <MWHBN-cont>
0.934403628

>  <TPSA-cont>
0.587724526

>  <pka_cont>
0.97

>  <yes.1>


>  <BBB_SCORE>
4.645885171

>  <MMFF94 Energy>
81.638

$$$$
Compound 2967
Actelion Java MolfileCreator 2.0

  0  0  0  0  0  0              0 V3000
M  V30 BEGIN CTAB
M  V30 COUNTS 56 58 0 0 0
M  V30 BEGIN ATOM
M  V30 1 O 1.5751 -1.7327 -0.3936 0
M  V30 2 C 1.2439 -0.5611 -0.6043 0
M  V30 3 N 1.0528 -0.0925 -1.9049 0
M  V30 4 C 1.0874 0.4124 0.5633 0
M  V30 5 C 0.6971 1.2834 -2.2665 0
M  V30 6 C 1.2295 -1.0488 -3.0026 0
M  V30 7 C 0.3405 -0.2147 1.6974 0
M  V30 8 C 1.8769 2.2562 -2.1918 0
M  V30 9 C -4.0E-4 -1.93 -3.2397 0
M  V30 10 N 0.9294 -1.0035 2.6712 0
M  V30 11 C -0.9942 -0.1468 2.0626 0
M  V30 12 C 2.9602 1.9655 -3.2196 0
M  V30 13 C -1.1801 -1.1719 -3.8283 0
M  V30 14 C -0.0652 -1.2992 3.6006 0
M  V30 15 C 2.2462 -1.4515 2.8037 0
M  V30 16 N -1.2225 -0.7787 3.2582 0
M  V30 17 C -2.0413 0.5456 1.3412 0
M  V30 18 C 0.3049 -2.0808 4.7301 0
M  V30 19 C 2.5978 -2.1972 3.8692 0
M  V30 20 C -2.3325 0.2238 0.0116 0
M  V30 21 C -2.795 1.5292 1.9884 0
M  V30 22 C 1.5743 -2.5096 4.8636 0
M  V30 23 C 3.9767 -2.7346 4.0878 0
M  V30 24 C -3.345 0.9019 -0.6727 0
M  V30 25 C -3.8057 2.209 1.3035 0
M  V30 26 C -4.0774 1.9118 -0.0373 0
M  V30 27 C -5.1907 2.6117 -0.7589 0
M  V30 28 H 2.0938 0.712 0.8775 0
M  V30 29 H 0.5773 1.3332 0.2817 0
M  V30 30 H 0.272 1.2918 -3.2767 0
M  V30 31 H -0.1021 1.6261 -1.6036 0
M  V30 32 H 1.5035 -0.5111 -3.9171 0
M  V30 33 H 2.0788 -1.6984 -2.7589 0
M  V30 34 H 1.5 3.2716 -2.3623 0
M  V30 35 H 2.3255 2.2475 -1.193 0
M  V30 36 H 0.2761 -2.7298 -3.9369 0
M  V30 37 H -0.3128 -2.413 -2.3069 0
M  V30 38 H 3.738 2.7345 -3.1737 0
M  V30 39 H 3.4368 0.9986 -3.0328 0
M  V30 40 H 2.5489 1.9606 -4.2339 0
M  V30 41 H -2.0027 -1.8623 -4.0408 0
M  V30 42 H -1.5536 -0.4134 -3.1353 0
M  V30 43 H -0.9021 -0.6784 -4.7648 0
M  V30 44 H 2.9423 -1.1905 2.0175 0
M  V30 45 H -0.4561 -2.3175 5.4643 0
M  V30 46 H -1.7909 -0.5736 -0.4913 0
M  V30 47 H -2.5997 1.7626 3.033 0
M  V30 48 H 1.8573 -3.1095 5.7238 0
M  V30 49 H 4.6575 -2.4445 3.2804 0
M  V30 50 H 4.3933 -2.3544 5.0266 0
M  V30 51 H 3.9609 -3.8287 4.1324 0
M  V30 52 H -3.5667 0.6268 -1.7012 0
M  V30 53 H -4.3843 2.9655 1.8287 0
M  V30 54 H -4.979 2.679 -1.8312 0
M  V30 55 H -6.1295 2.0677 -0.6166 0
M  V30 56 H -5.3141 3.6347 -0.3879 0
M  V30 END ATOM
M  V30 BEGIN BOND
M  V30 1 2 1 2
M  V30 2 1 2 3
M  V30 3 1 2 4
M  V30 4 1 3 5
M  V30 5 1 3 6
M  V30 6 1 4 7
M  V30 7 1 5 8
M  V30 8 1 6 9
M  V30 9 1 7 10
M  V30 10 2 7 11
M  V30 11 1 8 12
M  V30 12 1 9 13
M  V30 13 1 10 14
M  V30 14 1 10 15
M  V30 15 1 11 16
M  V30 16 1 11 17
M  V30 17 1 14 18
M  V30 18 2 15 19
M  V30 19 2 17 20
M  V30 20 1 17 21
M  V30 21 2 18 22
M  V30 22 1 19 23
M  V30 23 1 20 24
M  V30 24 2 21 25
M  V30 25 2 24 26
M  V30 26 1 26 27
M  V30 27 2 14 16
M  V30 28 1 19 22
M  V30 29 1 25 26
M  V30 30 1 4 28
M  V30 31 1 4 29
M  V30 32 1 5 30
M  V30 33 1 5 31
M  V30 34 1 6 32
M  V30 35 1 6 33
M  V30 36 1 8 34
M  V30 37 1 8 35
M  V30 38 1 9 36
M  V30 39 1 9 37
M  V30 40 1 12 38
M  V30 41 1 12 39
M  V30 42 1 12 40
M  V30 43 1 13 41
M  V30 44 1 13 42
M  V30 45 1 13 43
M  V30 46 1 15 44
M  V30 47 1 18 45
M  V30 48 1 20 46
M  V30 49 1 21 47
M  V30 50 1 22 48
M  V30 51 1 23 49
M  V30 52 1 23 50
M  V30 53 1 23 51
M  V30 54 1 24 52
M  V30 55 1 25 53
M  V30 56 1 27 54
M  V30 57 1 27 55
M  V30 58 1 27 56
M  V30 END BOND
M  V30 END CTAB
M  END
>  <Column 1>
3817

>  <level_0>
7097

>  <index>
7098

>  <Unnamed: 0>
7098

>  <NO.>
7111

>  <Name>
2-(p-methylphenyl)-6-methylimidazo[1-2-a]pyridine 3-(1-(dipropylamino)acetaldehyde)

>  <IUPAC_name>
2-[6-methyl-2-(4-methylphenyl)imidazo[1-2-a]pyridin-3-yl]-n-n-dipropylacetamide

>  <SMILES>
CCCN(CCC)C(=O)Cc1c(-c2ccc(C)cc2)nc2ccc(C)cn12

>  <CID>
102204343

>  <logBB>


>  <BBB+/BBB->
BBB+

>  <Inchi>
InChI=1S/C23H29N3O/c1-5-13-25(14-6-2)22(27)15-20-23(19-10-7-17(3)8-11-19)24-21-12-9-18(4)16-26(20)21/h7-12-16H-5-6-13-15H2-1-4H3

>  <threshold>


>  <reference>
R27|

>  <group>
C

>  <Class>
1

>  <ABC>
20.63

>  <ABCGG>
17.22

>  <nAcid>
0

>  <nBase>
0

>  <nAromAtom>
15

>  <nAromBond>
16

>  <nAtom>
56

>  <nHeavyAtom>
27

>  <nSpiro>
0

>  <nBridgehead>
0

>  <nHetero>
4

>  <nN>
3

>  <nO>
1

>  <nF>
0

>  <BalabanJ>
1.71

>  <BertzCT>
918.7

>  <nBonds>
58

>  <nBondsO>
29

>  <nBondsS>
41

>  <nBondsD>
1

>  <nBondsT>
0

>  <nBondsA>
16

>  <nBondsM>
17

>  <nBondsKS>
50

>  <nBondsKD>
8

>  <RNCG>
0.19

>  <RPCG>
0.13

>  <FCSP3>
0.39

>  <SZ>
32.67

>  <Sm>
30.26

>  <Sv>
33.85

>  <Sse>
55.19

>  <Sp>
37.04

>  <Si>
63.1

>  <MZ>
0.58

>  <Mm>
0.54

>  <Mv>
0.6

>  <Mse>
0.99

>  <Mp>
0.66

>  <Mi>
1.13

>  <NsCH3>
4

>  <NdCH2>
0

>  <NssCH2>
5

>  <NtCH>
0

>  <NdsCH>
0

>  <NaaCH>
7

>  <NsssCH>
0

>  <NddC>
0

>  <NtsC>
0

>  <NdssC>
1

>  <NaasC>
5

>  <NaaaC>
1

>  <NssssC>
0

>  <NsNH3>
0

>  <NsNH2>
0

>  <NssNH2>
0

>  <NdNH>
0

>  <NssNH>
0

>  <NaaNH>
0

>  <NtN>
0

>  <NsssNH>
0

>  <NdsN>
0

>  <NaaN>
1

>  <NsssN>
1

>  <NddsN>
0

>  <NaasN>
1

>  <NssssN>
0

>  <NsOH>
0

>  <NdO>
1

>  <NssO>
0

>  <NaaO>
0

>  <NsF>
0

>  <NsSiH3>
0

>  <NssSiH2>
0

>  <NsssSiH>
0

>  <NssssSi>
0

>  <NsPH2>
0

>  <NssPH>
0

>  <NsssP>
0

>  <NdsssP>
0

>  <NsssssP>
0

>  <NsSH>
0

>  <NdS>
0

>  <NssS>
0

>  <NaaS>
0

>  <NdssS>
0

>  <NddssS>
0

>  <NsCl>
0

>  <NsBr>
0

>  <NsI>
0

>  <fragCpx>
139.04

>  <fMF>
0.27

>  <nHBAcc>
3

>  <nHBDon>
0

>  <Kier1>
21.7

>  <Kier2>
10.16

>  <Lipinski>
1

>  <GhoseFilter>
1

>  <FilterItLogS>
-6.35

>  <VMcGowan>
303.76

>  <LabuteASA>
161.4

>  <PEOE_VSA1>
9.3

>  <PEOE_VSA2>
4.79

>  <PEOE_VSA3>
4.98

>  <PEOE_VSA4>
0

>  <PEOE_VSA5>
0

>  <PEOE_VSA6>
49.74

>  <PEOE_VSA7>
38.32

>  <PEOE_VSA8>
24.85

>  <PEOE_VSA9>
17.81

>  <PEOE_VSA10>
5.65

>  <PEOE_VSA11>
0

>  <PEOE_VSA12>
5.91

>  <PEOE_VSA13>
0

>  <SMR_VSA1>
4.79

>  <SMR_VSA2>
0

>  <SMR_VSA3>
14.28

>  <SMR_VSA4>
0

>  <SMR_VSA5>
46.96

>  <SMR_VSA6>
13.09

>  <SMR_VSA7>
59.42

>  <SMR_VSA8>
0

>  <SMR_VSA9>
11.26

>  <SlogP_VSA1>
0

>  <SlogP_VSA2>
33.28

>  <SlogP_VSA3>
11.22

>  <SlogP_VSA4>
13.85

>  <SlogP_VSA5>
43.51

>  <SlogP_VSA6>
42.6

>  <SlogP_VSA7>
0

>  <SlogP_VSA8>
16.9

>  <SlogP_VSA9>
0

>  <SlogP_VSA10>
0

>  <SlogP_VSA11>
0

>  <EState_VSA1>
0

>  <EState_VSA2>
5.91

>  <EState_VSA3>
6.42

>  <EState_VSA4>
54.09

>  <EState_VSA5>
5.56

>  <EState_VSA6>
0

>  <EState_VSA7>
10.97

>  <EState_VSA8>
68.62

>  <EState_VSA9>
4.98

>  <EState_VSA10>
4.79

>  <VSA_EState1>
2.08

>  <VSA_EState2>
19.87

>  <VSA_EState3>
0

>  <VSA_EState4>
6.19

>  <VSA_EState5>
0.18

>  <VSA_EState6>
12.46

>  <VSA_EState7>
4.39

>  <VSA_EState8>
9.99

>  <VSA_EState9>
0

>  <apol>
61.85

>  <bpol>
34.52

>  <nRing>
3

>  <nHRing>
2

>  <naRing>
3

>  <naHRing>
2

>  <nARing 2>
0

>  <nAHRing 2>
0

>  <nFRing>
1

>  <nFHRing>
1

>  <nFaRing>
1

>  <nFaHRing>
1

>  <nFARing 2>
0

>  <nFAHRing 2>
0

>  <nRot>
7

>  <SLogP>
4.81

>  <SMR>
110.97

>  <TopoPSA(NO)>
37.61

>  <TopoPSA>
37.61

>  <JGI1>
0.19

>  <JGI2>
0.08

>  <JGI3>
0.05

>  <JGI4>
0.04

>  <JGI5>
0.03

>  <Diameter>
12

>  <Radius>
6

>  <TMWC10>
132.17

>  <TSRW10>
76.31

>  <MW>
363.23

>  <AMW>
6.49

>  <WPath>
1809

>  <WPol>
42

>  <Zagreb1>
138

>  <Zagreb2>
162

>  <mZagreb2>
6.14

>  <yes>


>  <nAR-cont>
0.336376

>  <nHA-cont>
0.860070871

>  <MWHBN>
0.157409304

>  <MWHBN-cont>
0.950288999

>  <TPSA-cont>
0.737458846

>  <pka_cont>
0.97

>  <yes.1>


>  <BBB_SCORE>
4.581798061

>  <MMFF94 Energy>
45.133

$$$$
Compound 2968
Actelion Java MolfileCreator 2.0

  0  0  0  0  0  0              0 V3000
M  V30 BEGIN CTAB
M  V30 COUNTS 45 46 0 0 0
M  V30 BEGIN ATOM
M  V30 1 O 2.5036 4.7768 -2.5036 0
M  V30 2 C 1.8098 4.3326 -1.6043 0
M  V30 3 N 1.7505 4.8261 -0.308 0
M  V30 4 C 0.853 3.1396 -1.6872 0
M  V30 5 C 0.8661 4.0964 0.4687 0
M  V30 6 C 0.2982 3.0727 -0.2913 0
M  V30 7 C 0.5542 4.3032 1.7943 0
M  V30 8 C -0.6242 2.1978 0.2694 0
M  V30 9 C -0.3744 3.4383 2.373 0
M  V30 10 C -0.9569 2.4001 1.6212 0
M  V30 11 C -1.2493 1.0691 -0.5175 0
M  V30 12 C -0.7391 -0.3379 -0.1074 0
M  V30 13 N -1.4567 -1.3194 -0.8986 0
M  V30 14 N 0.6633 -0.5272 -0.4646 0
M  V30 15 C -2.1786 -2.2866 -0.0785 0
M  V30 16 C 1.3219 -1.5566 0.3453 0
M  V30 17 C -2.8587 -3.3166 -0.9806 0
M  V30 18 C 2.8014 -1.6335 -0.0362 0
M  V30 19 C -3.6354 -4.3396 -0.1661 0
M  V30 20 C 3.5279 -2.696 0.7739 0
M  V30 21 H 2.2915 5.6201 -0.0012 0
M  V30 22 H 0.0697 3.3518 -2.4191 0
M  V30 23 H 1.4162 2.2381 -1.9397 0
M  V30 24 H 1.0032 5.1045 2.3692 0
M  V30 25 H -0.656 3.5675 3.4157 0
M  V30 26 H -1.6835 1.7497 2.1062 0
M  V30 27 H -1.0947 1.2308 -1.5926 0
M  V30 28 H -2.3371 1.1227 -0.3693 0
M  V30 29 H -0.8881 -0.4614 0.9734 0
M  V30 30 H -0.7503 -1.79 -1.4629 0
M  V30 31 H 1.1536 0.3526 -0.3041 0
M  V30 32 H -1.4973 -2.7994 0.6102 0
M  V30 33 H -2.9384 -1.7702 0.5203 0
M  V30 34 H 1.2345 -1.3162 1.4116 0
M  V30 35 H 0.859 -2.5348 0.1763 0
M  V30 36 H -3.5458 -2.8152 -1.6731 0
M  V30 37 H -2.1097 -3.8389 -1.588 0
M  V30 38 H 2.9027 -1.866 -1.1032 0
M  V30 39 H 3.2858 -0.6639 0.1321 0
M  V30 40 H -4.1144 -5.067 -0.8288 0
M  V30 41 H -2.9728 -4.8843 0.5139 0
M  V30 42 H -4.4168 -3.856 0.4287 0
M  V30 43 H 4.5833 -2.7354 0.4869 0
M  V30 44 H 3.475 -2.4767 1.8451 0
M  V30 45 H 3.0922 -3.6855 0.6033 0
M  V30 END ATOM
M  V30 BEGIN BOND
M  V30 1 2 1 2
M  V30 2 1 2 3
M  V30 3 1 2 4
M  V30 4 1 3 5
M  V30 5 1 4 6
M  V30 6 1 5 7
M  V30 7 1 6 8
M  V30 8 2 7 9
M  V30 9 2 8 10
M  V30 10 1 8 11
M  V30 11 1 11 12
M  V30 12 1 12 13
M  V30 13 1 12 14
M  V30 14 1 13 15
M  V30 15 1 14 16
M  V30 16 1 15 17
M  V30 17 1 16 18
M  V30 18 1 17 19
M  V30 19 1 18 20
M  V30 20 2 5 6
M  V30 21 1 9 10
M  V30 22 1 3 21
M  V30 23 1 4 22
M  V30 24 1 4 23
M  V30 25 1 7 24
M  V30 26 1 9 25
M  V30 27 1 10 26
M  V30 28 1 11 27
M  V30 29 1 11 28
M  V30 30 1 12 29
M  V30 31 1 13 30
M  V30 32 1 14 31
M  V30 33 1 15 32
M  V30 34 1 15 33
M  V30 35 1 16 34
M  V30 36 1 16 35
M  V30 37 1 17 36
M  V30 38 1 17 37
M  V30 39 1 18 38
M  V30 40 1 18 39
M  V30 41 1 19 40
M  V30 42 1 19 41
M  V30 43 1 19 42
M  V30 44 1 20 43
M  V30 45 1 20 44
M  V30 46 1 20 45
M  V30 END BOND
M  V30 END CTAB
M  END
>  <Column 1>
3818

>  <level_0>
7100

>  <index>
7101

>  <Unnamed: 0>
7101

>  <NO.>
7114

>  <Name>
schembl2942739

>  <IUPAC_name>
4-[2-2-bis(propylamino)ethyl]-1-3-dihydroindol-2-one

>  <SMILES>
CCCNC(Cc1cccc2c1CC(=O)N2)NCCC

>  <CID>
87457930

>  <logBB>


>  <BBB+/BBB->
BBB+

>  <Inchi>
InChI=1S/C16H25N3O/c1-3-8-17-15(18-9-4-2)10-12-6-5-7-14-13(12)11-16(20)19-14/h5-7-15-17-18H-3-4-8-11H2-1-2H3-(H-19-20)

>  <threshold>


>  <reference>
R27|

>  <group>
C

>  <Class>
1

>  <ABC>
14.88

>  <ABCGG>
13.01

>  <nAcid>
0

>  <nBase>
2

>  <nAromAtom>
6

>  <nAromBond>
6

>  <nAtom>
45

>  <nHeavyAtom>
20

>  <nSpiro>
0

>  <nBridgehead>
0

>  <nHetero>
4

>  <nN>
3

>  <nO>
1

>  <nF>
0

>  <BalabanJ>
1.87

>  <BertzCT>
451.04

>  <nBonds>
46

>  <nBondsO>
21

>  <nBondsS>
39

>  <nBondsD>
1

>  <nBondsT>
0

>  <nBondsA>
6

>  <nBondsM>
7

>  <nBondsKS>
42

>  <nBondsKD>
4

>  <RNCG>
0.2

>  <RPCG>
0.14

>  <FCSP3>
0.56

>  <SZ>
25

>  <Sm>
22.93

>  <Sv>
25.76

>  <Sse>
44.42

>  <Sp>
28.44

>  <Si>
51.27

>  <MZ>
0.56

>  <Mm>
0.51

>  <Mv>
0.57

>  <Mse>
0.99

>  <Mp>
0.63

>  <Mi>
1.14

>  <NsCH3>
2

>  <NdCH2>
0

>  <NssCH2>
6

>  <NtCH>
0

>  <NdsCH>
0

>  <NaaCH>
3

>  <NsssCH>
1

>  <NddC>
0

>  <NtsC>
0

>  <NdssC>
1

>  <NaasC>
3

>  <NaaaC>
0

>  <NssssC>
0

>  <NsNH3>
0

>  <NsNH2>
0

>  <NssNH2>
0

>  <NdNH>
0

>  <NssNH>
3

>  <NaaNH>
0

>  <NtN>
0

>  <NsssNH>
0

>  <NdsN>
0

>  <NaaN>
0

>  <NsssN>
0

>  <NddsN>
0

>  <NaasN>
0

>  <NssssN>
0

>  <NsOH>
0

>  <NdO>
1

>  <NssO>
0

>  <NaaO>
0

>  <NsF>
0

>  <NsSiH3>
0

>  <NssSiH2>
0

>  <NsssSiH>
0

>  <NssssSi>
0

>  <NsPH2>
0

>  <NssPH>
0

>  <NsssP>
0

>  <NdsssP>
0

>  <NsssssP>
0

>  <NsSH>
0

>  <NdS>
0

>  <NssS>
0

>  <NaaS>
0

>  <NdssS>
0

>  <NddssS>
0

>  <NsCl>
0

>  <NsBr>
0

>  <NsI>
0

>  <fragCpx>
61.04

>  <fMF>
0.2

>  <nHBAcc>
3

>  <nHBDon>
3

>  <Kier1>
16.37

>  <Kier2>
8.44

>  <Lipinski>
1

>  <GhoseFilter>
1

>  <FilterItLogS>
-5.38

>  <VMcGowan>
233.19

>  <LabuteASA>
120.89

>  <PEOE_VSA1>
15.95

>  <PEOE_VSA2>
4.79

>  <PEOE_VSA3>
0

>  <PEOE_VSA4>
0

>  <PEOE_VSA5>
0

>  <PEOE_VSA6>
25.98

>  <PEOE_VSA7>
43.12

>  <PEOE_VSA8>
12.11

>  <PEOE_VSA9>
12.59

>  <PEOE_VSA10>
0

>  <PEOE_VSA11>
0

>  <PEOE_VSA12>
5.91

>  <PEOE_VSA13>
0

>  <SMR_VSA1>
4.79

>  <SMR_VSA2>
0

>  <SMR_VSA3>
10.63

>  <SMR_VSA4>
0

>  <SMR_VSA5>
45.7

>  <SMR_VSA6>
18.41

>  <SMR_VSA7>
29.33

>  <SMR_VSA8>
0

>  <SMR_VSA9>
0

>  <SlogP_VSA1>
15.95

>  <SlogP_VSA2>
25.16

>  <SlogP_VSA3>
17.64

>  <SlogP_VSA4>
0

>  <SlogP_VSA5>
37.82

>  <SlogP_VSA6>
18.2

>  <SlogP_VSA7>
0

>  <SlogP_VSA8>
0

>  <SlogP_VSA9>
0

>  <SlogP_VSA10>
5.69

>  <SlogP_VSA11>
0

>  <EState_VSA1>
0

>  <EState_VSA2>
12.07

>  <EState_VSA3>
6.42

>  <EState_VSA4>
38.04

>  <EState_VSA5>
11.13

>  <EState_VSA6>
0

>  <EState_VSA7>
12.13

>  <EState_VSA8>
35.86

>  <EState_VSA9>
0

>  <EState_VSA10>
4.79

>  <VSA_EState1>
0

>  <VSA_EState2>
11.54

>  <VSA_EState3>
9.99

>  <VSA_EState4>
3.41

>  <VSA_EState5>
0.1

>  <VSA_EState6>
6.14

>  <VSA_EState7>
3.95

>  <VSA_EState8>
6.36

>  <VSA_EState9>
0

>  <apol>
47.49

>  <bpol>
27.66

>  <nRing>
2

>  <nHRing>
1

>  <naRing>
1

>  <naHRing>
0

>  <nARing 2>
1

>  <nAHRing 2>
1

>  <nFRing>
1

>  <nFHRing>
1

>  <nFaRing>
0

>  <nFaHRing>
0

>  <nFARing 2>
1

>  <nFAHRing 2>
1

>  <nRot>
8

>  <SLogP>
2.05

>  <SMR>
82.86

>  <TopoPSA(NO)>
53.16

>  <TopoPSA>
53.16

>  <JGI1>
0.17

>  <JGI2>
0.06

>  <JGI3>
0.05

>  <JGI4>
0.03

>  <JGI5>
0.02

>  <Diameter>
10

>  <Radius>
5

>  <TMWC10>
112.82

>  <TSRW10>
66.85

>  <MW>
275.2

>  <AMW>
6.12

>  <WPath>
857

>  <WPol>
26

>  <Zagreb1>
96

>  <Zagreb2>
109

>  <mZagreb2>
4.72

>  <yes>


>  <nAR-cont>
0.816016

>  <nHA-cont>
0.999629945

>  <MWHBN>
0.361682117

>  <MWHBN-cont>
0.625980317

>  <TPSA-cont>
0.62891019

>  <pka_cont>
0.97

>  <yes.1>


>  <BBB_SCORE>
4.497436799

>  <MMFF94 Energy>
-27.349

$$$$
Compound 2969
Actelion Java MolfileCreator 2.0

  0  0  0  0  0  0              0 V3000
M  V30 BEGIN CTAB
M  V30 COUNTS 24 24 0 0 0
M  V30 BEGIN ATOM
M  V30 1 S 3.6349 -2.1323 2.0532 0
M  V30 2 C 2.7683 -1.1966 0.9759 0
M  V30 3 N 3.451 -0.3977 0.0954 0
M  V30 4 C 1.2894 -1.1545 0.8807 0
M  V30 5 C 0.6421 0.0762 0.7487 0
M  V30 6 C 0.5385 -2.3274 0.9167 0
M  V30 7 C -0.7446 0.0916 0.6515 0
M  V30 8 C -0.834 -2.2169 0.8089 0
M  V30 9 N -1.4848 -1.0414 0.6721 0
M  V30 10 C -1.4905 1.3932 0.5011 0
M  V30 11 C -1.3999 1.987 -0.9067 0
M  V30 12 C -2.116 1.1494 -1.9572 0
M  V30 13 H 3.0028 0.1533 -0.6254 0
M  V30 14 H 4.4646 -0.3971 0.1234 0
M  V30 15 H 1.2013 1.0055 0.7444 0
M  V30 16 H 0.9988 -3.3039 1.0146 0
M  V30 17 H -1.47 -3.0976 0.8274 0
M  V30 18 H -1.0883 2.1123 1.2256 0
M  V30 19 H -2.543 1.2435 0.7727 0
M  V30 20 H -1.8543 2.985 -0.8922 0
M  V30 21 H -0.3526 2.1195 -1.2025 0
M  V30 22 H -2.0843 1.6561 -2.9269 0
M  V30 23 H -1.6448 0.1694 -2.078 0
M  V30 24 H -3.1664 0.9976 -1.6891 0
M  V30 END ATOM
M  V30 BEGIN BOND
M  V30 1 2 1 2
M  V30 2 1 2 3
M  V30 3 1 2 4
M  V30 4 2 4 5
M  V30 5 1 4 6
M  V30 6 1 5 7
M  V30 7 2 6 8
M  V30 8 2 7 9
M  V30 9 1 7 10
M  V30 10 1 10 11
M  V30 11 1 11 12
M  V30 12 1 8 9
M  V30 13 1 3 13
M  V30 14 1 3 14
M  V30 15 1 5 15
M  V30 16 1 6 16
M  V30 17 1 8 17
M  V30 18 1 10 18
M  V30 19 1 10 19
M  V30 20 1 11 20
M  V30 21 1 11 21
M  V30 22 1 12 22
M  V30 23 1 12 23
M  V30 24 1 12 24
M  V30 END BOND
M  V30 END CTAB
M  END
>  <Column 1>
3819

>  <level_0>
7116

>  <index>
7117

>  <Unnamed: 0>
7117

>  <NO.>
7130

>  <Name>
prothionamide

>  <IUPAC_name>
2-propylpyridine-4-carbothioamide

>  <SMILES>
CCCc1cc(C(N)=S)ccn1

>  <CID>
666418

>  <logBB>


>  <BBB+/BBB->
BBB+

>  <Inchi>
InChI=1S/C9H12N2S/c1-2-3-8-6-7(9(10)12)4-5-11-8/h4-6H-2-3H2-1H3-(H2-10-12)

>  <threshold>


>  <reference>
R27|

>  <group>
C

>  <Class>
1

>  <ABC>
8.66

>  <ABCGG>
8.11

>  <nAcid>
0

>  <nBase>
0

>  <nAromAtom>
6

>  <nAromBond>
6

>  <nAtom>
24

>  <nHeavyAtom>
12

>  <nSpiro>
0

>  <nBridgehead>
0

>  <nHetero>
3

>  <nN>
2

>  <nO>
0

>  <nF>
0

>  <BalabanJ>
2.3

>  <BertzCT>
283.61

>  <nBonds>
24

>  <nBondsO>
12

>  <nBondsS>
17

>  <nBondsD>
1

>  <nBondsT>
0

>  <nBondsA>
6

>  <nBondsM>
7

>  <nBondsKS>
20

>  <nBondsKD>
4

>  <RNCG>
0.43

>  <RPCG>
0.17

>  <FCSP3>
0.33

>  <SZ>
16

>  <Sm>
15.01

>  <Sv>
14.95

>  <Sse>
23.73

>  <Sp>
16.85

>  <Si>
26.99

>  <MZ>
0.67

>  <Mm>
0.63

>  <Mv>
0.62

>  <Mse>
0.99

>  <Mp>
0.7

>  <Mi>
1.12

>  <NsCH3>
1

>  <NdCH2>
0

>  <NssCH2>
2

>  <NtCH>
0

>  <NdsCH>
0

>  <NaaCH>
3

>  <NsssCH>
0

>  <NddC>
0

>  <NtsC>
0

>  <NdssC>
1

>  <NaasC>
2

>  <NaaaC>
0

>  <NssssC>
0

>  <NsNH3>
0

>  <NsNH2>
1

>  <NssNH2>
0

>  <NdNH>
0

>  <NssNH>
0

>  <NaaNH>
0

>  <NtN>
0

>  <NsssNH>
0

>  <NdsN>
0

>  <NaaN>
1

>  <NsssN>
0

>  <NddsN>
0

>  <NaasN>
0

>  <NssssN>
0

>  <NsOH>
0

>  <NdO>
0

>  <NssO>
0

>  <NaaO>
0

>  <NsF>
0

>  <NsSiH3>
0

>  <NssSiH2>
0

>  <NsssSiH>
0

>  <NssssSi>
0

>  <NsPH2>
0

>  <NssPH>
0

>  <NsssP>
0

>  <NdsssP>
0

>  <NsssssP>
0

>  <NsSH>
0

>  <NdS>
1

>  <NssS>
0

>  <NaaS>
0

>  <NdssS>
0

>  <NddssS>
0

>  <NsCl>
0

>  <NsBr>
0

>  <NsI>
0

>  <fragCpx>
12.03

>  <fMF>
0.25

>  <nHBAcc>
2

>  <nHBDon>
1

>  <Kier1>
10.08

>  <Kier2>
4.89

>  <Lipinski>
1

>  <GhoseFilter>
1

>  <FilterItLogS>
-2.56

>  <VMcGowan>
145.92

>  <LabuteASA>
77.81

>  <PEOE_VSA1>
5.73

>  <PEOE_VSA2>
4.98

>  <PEOE_VSA3>
0

>  <PEOE_VSA4>
0

>  <PEOE_VSA5>
0

>  <PEOE_VSA6>
25.56

>  <PEOE_VSA7>
18.55

>  <PEOE_VSA8>
17.45

>  <PEOE_VSA9>
0

>  <PEOE_VSA10>
4.99

>  <PEOE_VSA11>
0

>  <PEOE_VSA12>
0

>  <PEOE_VSA13>
0

>  <SMR_VSA1>
0

>  <SMR_VSA2>
0

>  <SMR_VSA3>
4.98

>  <SMR_VSA4>
5.73

>  <SMR_VSA5>
19.77

>  <SMR_VSA6>
0

>  <SMR_VSA7>
29.59

>  <SMR_VSA8>
0

>  <SMR_VSA9>
0

>  <SlogP_VSA1>
5.73

>  <SlogP_VSA2>
9.97

>  <SlogP_VSA3>
6.42

>  <SlogP_VSA4>
0

>  <SlogP_VSA5>
24.6

>  <SlogP_VSA6>
18.33

>  <SlogP_VSA7>
0

>  <SlogP_VSA8>
0

>  <SlogP_VSA9>
0

>  <SlogP_VSA10>
0

>  <SlogP_VSA11>
0

>  <EState_VSA1>
0

>  <EState_VSA2>
0

>  <EState_VSA3>
4.99

>  <EState_VSA4>
24.1

>  <EState_VSA5>
0

>  <EState_VSA6>
6.2

>  <EState_VSA7>
12.13

>  <EState_VSA8>
11.91

>  <EState_VSA9>
17.95

>  <EState_VSA10>
0

>  <VSA_EState1>
0

>  <VSA_EState2>
4.64

>  <VSA_EState3>
0

>  <VSA_EState4>
7.45

>  <VSA_EState5>
0

>  <VSA_EState6>
3.79

>  <VSA_EState7>
3.82

>  <VSA_EState8>
2.12

>  <VSA_EState9>
0

>  <apol>
28.13

>  <bpol>
13.84

>  <nRing>
1

>  <nHRing>
1

>  <naRing>
1

>  <naHRing>
1

>  <nARing 2>
0

>  <nAHRing 2>
0

>  <nFRing>
0

>  <nFHRing>
0

>  <nFaRing>
0

>  <nFaHRing>
0

>  <nFARing 2>
0

>  <nFAHRing 2>
0

>  <nRot>
3

>  <SLogP>
1.67

>  <SMR>
54.12

>  <TopoPSA(NO)>
38.91

>  <TopoPSA>
71

>  <JGI1>
0.21

>  <JGI2>
0.07

>  <JGI3>
0.04

>  <JGI4>
0.05

>  <JGI5>
0.04

>  <Diameter>
7

>  <Radius>
4

>  <TMWC10>
89

>  <TSRW10>
41.9

>  <MW>
180.07

>  <AMW>
7.5

>  <WPath>
206

>  <WPol>
14

>  <Zagreb1>
54

>  <Zagreb2>
59

>  <mZagreb2>
2.86

>  <yes>


>  <nAR-cont>
0.336376

>  <nHA-cont>
0.785745021

>  <MWHBN>
0.223563331

>  <MWHBN-cont>
0.992470804

>  <TPSA-cont>
0.504375912

>  <pka_cont>
0.97

>  <yes.1>


>  <BBB_SCORE>
4.10457905

>  <MMFF94 Energy>
-0.69926

$$$$
Compound 2970
Actelion Java MolfileCreator 2.0

  0  0  0  0  0  0              0 V3000
M  V30 BEGIN CTAB
M  V30 COUNTS 57 58 0 0 0
M  V30 BEGIN ATOM
M  V30 1 O 0.2364 -3.0775 2.4456 0
M  V30 2 C 0.3758 -2.0103 1.8523 0
M  V30 3 O -0.5958 -1.3825 1.1453 0
M  V30 4 C 1.7279 -1.2438 1.8034 0 CFG=2
M  V30 5 C -1.8543 -2.0575 1.1263 0
M  V30 6 O 2.7328 -2.0975 2.397 0
M  V30 7 C 1.6165 0.0425 2.6374 0
M  V30 8 C 2.1669 -0.9881 0.3218 0
M  V30 9 C -2.6964 -1.3973 0.1249 0
M  V30 10 C 2.253 0.1615 3.8861 0
M  V30 11 C 0.8503 1.1362 2.1893 0
M  V30 12 C 3.5275 -0.2583 0.2318 0
M  V30 13 C 2.2484 -2.3008 -0.4933 0
M  V30 14 C -3.3242 -0.8157 -0.7188 0
M  V30 15 C 2.1367 1.3261 4.6498 0
M  V30 16 C 0.7332 2.2996 2.9543 0
M  V30 17 C 3.9454 -0.0069 -1.216 0
M  V30 18 C 2.665 -2.048 -1.9412 0
M  V30 19 C -4.0424 -0.0728 -1.7655 0
M  V30 20 C 1.3772 2.3948 4.1838 0
M  V30 21 C 3.9887 -1.2985 -2.0223 0
M  V30 22 N -3.4756 1.2778 -1.9364 0
M  V30 23 C -4.5177 2.2448 -2.3272 0
M  V30 24 C -2.3843 1.3033 -2.9322 0
M  V30 25 C -5.4033 2.6464 -1.1505 0
M  V30 26 C -1.141 0.5074 -2.5469 0
M  V30 27 H -2.3149 -1.9892 2.1176 0
M  V30 28 H -1.72 -3.1113 0.8572 0
M  V30 29 H 2.2716 -2.9151 2.6725 0
M  V30 30 H 1.418 -0.3529 -0.1704 0
M  V30 31 H 2.8576 -0.6536 4.2793 0
M  V30 32 H 0.3249 1.0985 1.2367 0
M  V30 33 H 4.3065 -0.8481 0.7307 0
M  V30 34 H 3.4818 0.7072 0.7468 0
M  V30 35 H 1.2777 -2.8087 -0.5005 0
M  V30 36 H 2.9653 -2.9904 -0.0307 0
M  V30 37 H 2.6423 1.3957 5.6095 0
M  V30 38 H 0.1355 3.1306 2.5878 0
M  V30 39 H 3.2408 0.6929 -1.6822 0
M  V30 40 H 4.9308 0.472 -1.236 0
M  V30 41 H 1.8838 -1.4694 -2.4496 0
M  V30 42 H 2.7503 -3.0033 -2.4712 0
M  V30 43 H -4.0411 -0.6292 -2.711 0
M  V30 44 H -5.0918 -0.0305 -1.4525 0
M  V30 45 H 1.2869 3.2997 4.7784 0
M  V30 46 H 4.2231 -1.0737 -3.0688 0
M  V30 47 H 4.7951 -1.9387 -1.6441 0
M  V30 48 H -4.0512 3.1712 -2.6862 0
M  V30 49 H -5.1288 1.8595 -3.1531 0
M  V30 50 H -2.7439 0.9667 -3.913 0
M  V30 51 H -2.0509 2.3415 -3.0593 0
M  V30 52 H -6.0933 3.439 -1.4589 0
M  V30 53 H -4.8011 3.0329 -0.3212 0
M  V30 54 H -6.0065 1.8142 -0.7775 0
M  V30 55 H -0.3297 0.7246 -3.25 0
M  V30 56 H -1.3188 -0.5709 -2.5851 0
M  V30 57 H -0.7907 0.7764 -1.545 0
M  V30 END ATOM
M  V30 BEGIN BOND
M  V30 1 2 1 2
M  V30 2 1 2 3
M  V30 3 1 2 4
M  V30 4 1 3 5
M  V30 5 1 4 6
M  V30 6 1 4 7
M  V30 7 1 4 8
M  V30 8 1 5 9
M  V30 9 2 7 10
M  V30 10 1 7 11
M  V30 11 1 8 12
M  V30 12 1 8 13
M  V30 13 3 9 14
M  V30 14 1 10 15
M  V30 15 2 11 16
M  V30 16 1 12 17
M  V30 17 1 13 18
M  V30 18 1 14 19
M  V30 19 2 15 20
M  V30 20 1 17 21
M  V30 21 1 19 22
M  V30 22 1 22 23
M  V30 23 1 22 24
M  V30 24 1 23 25
M  V30 25 1 24 26
M  V30 26 1 16 20
M  V30 27 1 18 21
M  V30 28 1 5 27
M  V30 29 1 5 28
M  V30 30 1 6 29
M  V30 31 1 8 30
M  V30 32 1 10 31
M  V30 33 1 11 32
M  V30 34 1 12 33
M  V30 35 1 12 34
M  V30 36 1 13 35
M  V30 37 1 13 36
M  V30 38 1 15 37
M  V30 39 1 16 38
M  V30 40 1 17 39
M  V30 41 1 17 40
M  V30 42 1 18 41
M  V30 43 1 18 42
M  V30 44 1 19 43
M  V30 45 1 19 44
M  V30 46 1 20 45
M  V30 47 1 21 46
M  V30 48 1 21 47
M  V30 49 1 23 48
M  V30 50 1 23 49
M  V30 51 1 24 50
M  V30 52 1 24 51
M  V30 53 1 25 52
M  V30 54 1 25 53
M  V30 55 1 25 54
M  V30 56 1 26 55
M  V30 57 1 26 56
M  V30 58 1 26 57
M  V30 END BOND
M  V30 BEGIN COLLECTION
M  V30 MDLV30/STEABS ATOMS=(1 4)
M  V30 END COLLECTION
M  V30 END CTAB
M  END
>  <Column 1>
3821

>  <level_0>
7127

>  <index>
7128

>  <Unnamed: 0>
7128

>  <NO.>
7141

>  <Name>
(r)-oxybutynin

>  <IUPAC_name>
4-(diethylamino)but-2-ynyl (2r)-2-cyclohexyl-2-hydroxy-2-phenylacetate

>  <SMILES>
CCN(CC)CC#CCOC(=O)[C@](O)(c1ccccc1)C1CCCCC1

>  <CID>
6098167

>  <logBB>


>  <BBB+/BBB->
BBB+

>  <Inchi>
InChI=1S/C22H31NO3/c1-3-23(4-2)17-11-12-18-26-21(24)22(25-19-13-7-5-8-14-19)20-15-9-6-10-16-20/h5-7-8-13-14-20-25H-3-4-6-9-10-15-18H2-1-2H3/t22-/m0/s1

>  <threshold>


>  <reference>
R27|

>  <group>
C

>  <Class>
1

>  <ABC>
19.18

>  <ABCGG>
16.22

>  <nAcid>
0

>  <nBase>
1

>  <nAromAtom>
6

>  <nAromBond>
6

>  <nAtom>
57

>  <nHeavyAtom>
26

>  <nSpiro>
0

>  <nBridgehead>
0

>  <nHetero>
4

>  <nN>
1

>  <nO>
3

>  <nF>
0

>  <BalabanJ>
1.87

>  <BertzCT>
609.27

>  <nBonds>
58

>  <nBondsO>
27

>  <nBondsS>
50

>  <nBondsD>
1

>  <nBondsT>
1

>  <nBondsA>
6

>  <nBondsM>
8

>  <nBondsKS>
53

>  <nBondsKD>
4

>  <RNCG>
0.21

>  <RPCG>
0.16

>  <FCSP3>
0.59

>  <SZ>
32.33

>  <Sm>
29.76

>  <Sv>
33.3

>  <Sse>
56.42

>  <Sp>
36.48

>  <Si>
64.36

>  <MZ>
0.57

>  <Mm>
0.52

>  <Mv>
0.58

>  <Mse>
0.99

>  <Mp>
0.64

>  <Mi>
1.13

>  <NsCH3>
2

>  <NdCH2>
0

>  <NssCH2>
9

>  <NtCH>
0

>  <NdsCH>
0

>  <NaaCH>
5

>  <NsssCH>
1

>  <NddC>
0

>  <NtsC>
2

>  <NdssC>
1

>  <NaasC>
1

>  <NaaaC>
0

>  <NssssC>
1

>  <NsNH3>
0

>  <NsNH2>
0

>  <NssNH2>
0

>  <NdNH>
0

>  <NssNH>
0

>  <NaaNH>
0

>  <NtN>
0

>  <NsssNH>
0

>  <NdsN>
0

>  <NaaN>
0

>  <NsssN>
1

>  <NddsN>
0

>  <NaasN>
0

>  <NssssN>
0

>  <NsOH>
1

>  <NdO>
1

>  <NssO>
1

>  <NaaO>
0

>  <NsF>
0

>  <NsSiH3>
0

>  <NssSiH2>
0

>  <NsssSiH>
0

>  <NssssSi>
0

>  <NsPH2>
0

>  <NssPH>
0

>  <NsssP>
0

>  <NdsssP>
0

>  <NsssssP>
0

>  <NsSH>
0

>  <NdS>
0

>  <NssS>
0

>  <NaaS>
0

>  <NdssS>
0

>  <NddssS>
0

>  <NsCl>
0

>  <NsBr>
0

>  <NsI>
0

>  <fragCpx>
79.04

>  <fMF>
0.23

>  <nHBAcc>
4

>  <nHBDon>
1

>  <Kier1>
22.29

>  <Kier2>
11.76

>  <Lipinski>
1

>  <GhoseFilter>
1

>  <FilterItLogS>
-4.01

>  <VMcGowan>
300.91

>  <LabuteASA>
157.09

>  <PEOE_VSA1>
9.84

>  <PEOE_VSA2>
4.9

>  <PEOE_VSA3>
4.79

>  <PEOE_VSA4>
0

>  <PEOE_VSA5>
0

>  <PEOE_VSA6>
75.28

>  <PEOE_VSA7>
31.49

>  <PEOE_VSA8>
5.92

>  <PEOE_VSA9>
6.54

>  <PEOE_VSA10>
0

>  <PEOE_VSA11>
12.21

>  <PEOE_VSA12>
0

>  <PEOE_VSA13>
0

>  <SMR_VSA1>
14.64

>  <SMR_VSA2>
0

>  <SMR_VSA3>
4.9

>  <SMR_VSA4>
5.92

>  <SMR_VSA5>
51.55

>  <SMR_VSA6>
26.24

>  <SMR_VSA7>
35.9

>  <SMR_VSA8>
0

>  <SMR_VSA9>
11.84

>  <SlogP_VSA1>
0

>  <SlogP_VSA2>
42.22

>  <SlogP_VSA3>
15.13

>  <SlogP_VSA4>
17.76

>  <SlogP_VSA5>
51.52

>  <SlogP_VSA6>
30.33

>  <SlogP_VSA7>
0

>  <SlogP_VSA8>
0

>  <SlogP_VSA9>
0

>  <SlogP_VSA10>
0

>  <SlogP_VSA11>
0

>  <EState_VSA1>
11.57

>  <EState_VSA2>
12.52

>  <EState_VSA3>
12.11

>  <EState_VSA4>
45.19

>  <EState_VSA5>
0

>  <EState_VSA6>
0

>  <EState_VSA7>
30.33

>  <EState_VSA8>
30.59

>  <EState_VSA9>
4.74

>  <EState_VSA10>
9.9

>  <VSA_EState1>
5.38

>  <VSA_EState2>
15.02

>  <VSA_EState3>
11.37

>  <VSA_EState4>
-0.96

>  <VSA_EState5>
5.25

>  <VSA_EState6>
9.19

>  <VSA_EState7>
4.92

>  <VSA_EState8>
6.75

>  <VSA_EState9>
0

>  <apol>
60.92

>  <bpol>
35.41

>  <nRing>
2

>  <nHRing>
0

>  <naRing>
1

>  <naHRing>
0

>  <nARing 2>
1

>  <nAHRing 2>
0

>  <nFRing>
0

>  <nFHRing>
0

>  <nFaRing>
0

>  <nFaHRing>
0

>  <nFARing 2>
0

>  <nFAHRing 2>
0

>  <nRot>
7

>  <SLogP>
3.34

>  <SMR>
103.44

>  <TopoPSA(NO)>
49.77

>  <TopoPSA>
49.77

>  <JGI1>
0.17

>  <JGI2>
0.1

>  <JGI3>
0.06

>  <JGI4>
0.03

>  <JGI5>
0.01

>  <Diameter>
13

>  <Radius>
7

>  <TMWC10>
127.41

>  <TSRW10>
60.47

>  <MW>
357.23

>  <AMW>
6.27

>  <WPath>
1833

>  <WPol>
40

>  <Zagreb1>
124

>  <Zagreb2>
143

>  <mZagreb2>
6.17

>  <yes>


>  <nAR-cont>
0.816016

>  <nHA-cont>
0.892715677

>  <MWHBN>
0.264542859

>  <MWHBN-cont>
0.9320901

>  <TPSA-cont>
0.652574495

>  <pka_cont>
0.97

>  <yes.1>


>  <BBB_SCORE>
4.897015817

>  <MMFF94 Energy>
68.092

$$$$
Compound 2971
Actelion Java MolfileCreator 2.0

  0  0  0  0  0  0              0 V3000
M  V30 BEGIN CTAB
M  V30 COUNTS 48 49 0 0 0
M  V30 BEGIN ATOM
M  V30 1 Cl -0.1577 -2.7641 -7.3577 0
M  V30 2 C -0.6325 -2.4248 -5.7386 0
M  V30 3 C -1.6437 -3.1745 -5.1414 0
M  V30 4 C -0.0019 -1.4078 -5.0359 0
M  V30 5 C -2.0501 -2.9282 -3.8384 0
M  V30 6 C -0.3959 -1.1434 -3.7261 0
M  V30 7 N -3.0244 -3.6941 -3.3228 0
M  V30 8 C -1.4258 -1.8899 -3.109 0
M  V30 9 C -3.4123 -3.4539 -2.0546 0
M  V30 10 C -1.8588 -1.6589 -1.7783 0
M  V30 11 C -2.8713 -2.4661 -1.2561 0
M  V30 12 N -1.303 -0.6203 -1.0086 0
M  V30 13 C -0.7955 -0.9811 0.3192 0
M  V30 14 C -2.0008 0.6549 -1.16 0
M  V30 15 C 0.4203 -0.1284 0.6889 0
M  V30 16 C 1.0488 -0.6039 2.0032 0
M  V30 17 C 2.2711 0.2328 2.4118 0
M  V30 18 N 1.9452 1.6473 2.6707 0
M  V30 19 C 3.1762 2.4583 2.6484 0
M  V30 20 C 1.1956 1.8141 3.9289 0
M  V30 21 C 2.9055 3.9595 2.6366 0
M  V30 22 C -0.1099 2.5517 3.662 0
M  V30 23 H -2.1292 -3.9723 -5.6974 0
M  V30 24 H 0.7911 -0.8228 -5.4924 0
M  V30 25 H 0.1058 -0.3526 -3.1718 0
M  V30 26 H -4.2043 -4.0986 -1.6845 0
M  V30 27 H -3.246 -2.3199 -0.2501 0
M  V30 28 H -0.4861 -2.0347 0.3299 0
M  V30 29 H -1.5858 -0.8651 1.0714 0
M  V30 30 H -2.9703 0.6309 -0.6496 0
M  V30 31 H -2.17 0.899 -2.2149 0
M  V30 32 H -1.415 1.4756 -0.736 0
M  V30 33 H 0.1236 0.9216 0.7777 0
M  V30 34 H 1.1656 -0.1803 -0.1145 0
M  V30 35 H 0.2934 -0.6025 2.7972 0
M  V30 36 H 1.3723 -1.646 1.8876 0
M  V30 37 H 2.7547 -0.2183 3.2879 0
M  V30 38 H 2.9936 0.1607 1.5883 0
M  V30 39 H 3.8306 2.2033 3.4916 0
M  V30 40 H 3.7378 2.2376 1.7318 0
M  V30 41 H 0.9525 0.8512 4.3944 0
M  V30 42 H 1.7755 2.3552 4.6867 0
M  V30 43 H 3.8456 4.506 2.5078 0
M  V30 44 H 2.4519 4.3033 3.5709 0
M  V30 45 H 2.2439 4.2334 1.8079 0
M  V30 46 H -0.6657 2.6792 4.5966 0
M  V30 47 H -0.7465 1.9919 2.969 0
M  V30 48 H 0.0647 3.5457 3.239 0
M  V30 END ATOM
M  V30 BEGIN BOND
M  V30 1 1 1 2
M  V30 2 2 2 3
M  V30 3 1 2 4
M  V30 4 1 3 5
M  V30 5 2 4 6
M  V30 6 2 5 7
M  V30 7 1 5 8
M  V30 8 1 7 9
M  V30 9 2 8 10
M  V30 10 2 9 11
M  V30 11 1 10 12
M  V30 12 1 12 13
M  V30 13 1 12 14
M  V30 14 1 13 15
M  V30 15 1 15 16
M  V30 16 1 16 17
M  V30 17 1 17 18
M  V30 18 1 18 19
M  V30 19 1 18 20
M  V30 20 1 19 21
M  V30 21 1 20 22
M  V30 22 1 6 8
M  V30 23 1 10 11
M  V30 24 1 3 23
M  V30 25 1 4 24
M  V30 26 1 6 25
M  V30 27 1 9 26
M  V30 28 1 11 27
M  V30 29 1 13 28
M  V30 30 1 13 29
M  V30 31 1 14 30
M  V30 32 1 14 31
M  V30 33 1 14 32
M  V30 34 1 15 33
M  V30 35 1 15 34
M  V30 36 1 16 35
M  V30 37 1 16 36
M  V30 38 1 17 37
M  V30 39 1 17 38
M  V30 40 1 19 39
M  V30 41 1 19 40
M  V30 42 1 20 41
M  V30 43 1 20 42
M  V30 44 1 21 43
M  V30 45 1 21 44
M  V30 46 1 21 45
M  V30 47 1 22 46
M  V30 48 1 22 47
M  V30 49 1 22 48
M  V30 END BOND
M  V30 END CTAB
M  END
>  <Column 1>
3822

>  <level_0>
7130

>  <index>
7131

>  <Unnamed: 0>
7131

>  <NO.>
7144

>  <Name>
schembl3454549

>  <IUPAC_name>
n-(7-chloroquinolin-4-yl)-n'-n'-diethyl-n-methylbutane-1-4-diamine

>  <SMILES>
CCN(CC)CCCCN(C)c1ccnc2cc(Cl)ccc12

>  <CID>
19042925

>  <logBB>


>  <BBB+/BBB->
BBB+

>  <Inchi>
InChI=1S/C18H26ClN3/c1-4-22(5-2)13-7-6-12-21(3)18-10-11-20-17-14-15(19)8-9-16(17)18/h8-11-14H-4-7-12-13H2-1-3H3

>  <threshold>


>  <reference>
R27|

>  <group>
C

>  <Class>
1

>  <ABC>
16.36

>  <ABCGG>
13.45

>  <nAcid>
0

>  <nBase>
1

>  <nAromAtom>
10

>  <nAromBond>
11

>  <nAtom>
48

>  <nHeavyAtom>
22

>  <nSpiro>
0

>  <nBridgehead>
0

>  <nHetero>
4

>  <nN>
3

>  <nO>
0

>  <nF>
0

>  <BalabanJ>
1.73

>  <BertzCT>
595.9

>  <nBonds>
49

>  <nBondsO>
23

>  <nBondsS>
38

>  <nBondsD>
0

>  <nBondsT>
0

>  <nBondsA>
11

>  <nBondsM>
11

>  <nBondsKS>
44

>  <nBondsKD>
5

>  <RNCG>
0.28

>  <RPCG>
0.06

>  <FCSP3>
0.5

>  <SZ>
28.67

>  <Sm>
26.63

>  <Sv>
28.41

>  <Sse>
47.3

>  <Sp>
31.66

>  <Si>
54.42

>  <MZ>
0.6

>  <Mm>
0.55

>  <Mv>
0.59

>  <Mse>
0.99

>  <Mp>
0.66

>  <Mi>
1.13

>  <NsCH3>
3

>  <NdCH2>
0

>  <NssCH2>
6

>  <NtCH>
0

>  <NdsCH>
0

>  <NaaCH>
5

>  <NsssCH>
0

>  <NddC>
0

>  <NtsC>
0

>  <NdssC>
0

>  <NaasC>
2

>  <NaaaC>
2

>  <NssssC>
0

>  <NsNH3>
0

>  <NsNH2>
0

>  <NssNH2>
0

>  <NdNH>
0

>  <NssNH>
0

>  <NaaNH>
0

>  <NtN>
0

>  <NsssNH>
0

>  <NdsN>
0

>  <NaaN>
1

>  <NsssN>
2

>  <NddsN>
0

>  <NaasN>
0

>  <NssssN>
0

>  <NsOH>
0

>  <NdO>
0

>  <NssO>
0

>  <NaaO>
0

>  <NsF>
0

>  <NsSiH3>
0

>  <NssSiH2>
0

>  <NsssSiH>
0

>  <NssssSi>
0

>  <NsPH2>
0

>  <NssPH>
0

>  <NsssP>
0

>  <NdsssP>
0

>  <NsssssP>
0

>  <NsSH>
0

>  <NdS>
0

>  <NssS>
0

>  <NaaS>
0

>  <NdssS>
0

>  <NddssS>
0

>  <NsCl>
1

>  <NsBr>
0

>  <NsI>
0

>  <fragCpx>
67.04

>  <fMF>
0.21

>  <nHBAcc>
3

>  <nHBDon>
0

>  <Kier1>
18.34

>  <Kier2>
9.33

>  <Lipinski>
1

>  <GhoseFilter>
1

>  <FilterItLogS>
-5.8

>  <VMcGowan>
263.44

>  <LabuteASA>
138.44

>  <PEOE_VSA1>
9.8

>  <PEOE_VSA2>
4.98

>  <PEOE_VSA3>
0

>  <PEOE_VSA4>
0

>  <PEOE_VSA5>
0

>  <PEOE_VSA6>
25.45

>  <PEOE_VSA7>
56.74

>  <PEOE_VSA8>
35.89

>  <PEOE_VSA9>
5.52

>  <PEOE_VSA10>
0

>  <PEOE_VSA11>
0

>  <PEOE_VSA12>
0

>  <PEOE_VSA13>
0

>  <SMR_VSA1>
0

>  <SMR_VSA2>
0

>  <SMR_VSA3>
9.88

>  <SMR_VSA4>
0

>  <SMR_VSA5>
26.69

>  <SMR_VSA6>
38.13

>  <SMR_VSA7>
35.48

>  <SMR_VSA8>
0

>  <SMR_VSA9>
0

>  <SlogP_VSA1>
4.9

>  <SlogP_VSA2>
43.11

>  <SlogP_VSA3>
0

>  <SlogP_VSA4>
0

>  <SlogP_VSA5>
26.69

>  <SlogP_VSA6>
30.46

>  <SlogP_VSA7>
5.02

>  <SlogP_VSA8>
10.9

>  <SlogP_VSA9>
0

>  <SlogP_VSA10>
5.69

>  <SlogP_VSA11>
0

>  <EState_VSA1>
0

>  <EState_VSA2>
0

>  <EState_VSA3>
0

>  <EState_VSA4>
35.56

>  <EState_VSA5>
25.07

>  <EState_VSA6>
0

>  <EState_VSA7>
18.33

>  <EState_VSA8>
47.81

>  <EState_VSA9>
11.6

>  <EState_VSA10>
0

>  <VSA_EState1>
0

>  <VSA_EState2>
9.2

>  <VSA_EState3>
1.9

>  <VSA_EState4>
2.18

>  <VSA_EState5>
0

>  <VSA_EState6>
8

>  <VSA_EState7>
4.3

>  <VSA_EState8>
8.98

>  <VSA_EState9>
2.15

>  <apol>
52.88

>  <bpol>
31.15

>  <nRing>
2

>  <nHRing>
1

>  <naRing>
2

>  <naHRing>
1

>  <nARing 2>
0

>  <nAHRing 2>
0

>  <nFRing>
1

>  <nFHRing>
1

>  <nFaRing>
1

>  <nFaHRing>
1

>  <nFARing 2>
0

>  <nFAHRing 2>
0

>  <nRot>
8

>  <SLogP>
4.45

>  <SMR>
97.05

>  <TopoPSA(NO)>
19.37

>  <TopoPSA>
19.37

>  <JGI1>
0.17

>  <JGI2>
0.08

>  <JGI3>
0.05

>  <JGI4>
0.04

>  <JGI5>
0.02

>  <Diameter>
13

>  <Radius>
7

>  <TMWC10>
117.49

>  <TSRW10>
55.54

>  <MW>
319.18

>  <AMW>
6.65

>  <WPath>
1209

>  <WPol>
32

>  <Zagreb1>
106

>  <Zagreb2>
121

>  <mZagreb2>
5.17

>  <yes>


>  <nAR-cont>
0.336376

>  <nHA-cont>
0.983774276

>  <MWHBN>
0.167920384

>  <MWHBN-cont>
0.970606718

>  <TPSA-cont>
0.864785372

>  <pka_cont>
0.97

>  <yes.1>


>  <BBB_SCORE>
4.990631097

>  <MMFF94 Energy>
42.491

$$$$
Compound 2972
Actelion Java MolfileCreator 2.0

  0  0  0  0  0  0              0 V3000
M  V30 BEGIN CTAB
M  V30 COUNTS 55 57 0 0 0
M  V30 BEGIN ATOM
M  V30 1 O -2.1422 1.3484 -1.3484 0
M  V30 2 C -1.775 0.8424 -0.2946 0
M  V30 3 O -0.5417 0.288 -0.0956 0
M  V30 4 C -2.612 0.7727 0.9967 0 CFG=2
M  V30 5 C 0.328 0.3557 -1.2326 0
M  V30 6 C -2.0661 1.8321 1.9732 0
M  V30 7 C -2.6709 -0.7045 1.5331 0 CFG=1
M  V30 8 C -4.1357 1.0311 0.7286 0
M  V30 9 C 1.6402 -0.3308 -0.8682 0
M  V30 10 C -1.4368 1.5097 3.1853 0
M  V30 11 C -2.1616 3.1964 1.6282 0
M  V30 12 C -3.9717 -0.7125 2.3447 0
M  V30 13 C -3.046 -1.7027 0.411 0
M  V30 14 C -4.8227 -0.2811 1.1551 0 CFG=1
M  V30 15 C 2.6186 -0.305 -2.0466 0
M  V30 16 C -0.9399 2.5105 4.0269 0
M  V30 17 C -1.6649 4.1945 2.469 0
M  V30 18 C -4.5117 -1.3682 0.1183 0
M  V30 19 N 3.9438 -0.8507 -1.699 0
M  V30 20 C -1.0552 3.8509 3.6705 0
M  V30 21 C 4.9816 -0.3623 -2.6244 0
M  V30 22 C 3.9152 -2.3155 -1.5527 0
M  V30 23 C 4.8771 -0.8383 -4.0708 0
M  V30 24 C 5.2341 -2.9137 -1.0705 0
M  V30 25 H 0.508 1.4062 -1.4892 0
M  V30 26 H -0.1399 -0.1558 -2.082 0
M  V30 27 H -1.7836 -1.0356 2.0764 0
M  V30 28 H -4.5315 1.843 1.3516 0
M  V30 29 H -4.3669 1.2772 -0.3126 0
M  V30 30 H 2.0793 0.1687 0.0049 0
M  V30 31 H 1.419 -1.3561 -0.5515 0
M  V30 32 H -1.3142 0.4802 3.5075 0
M  V30 33 H -2.6262 3.4956 0.6889 0
M  V30 34 H -4.2365 -1.7048 2.7258 0
M  V30 35 H -3.9882 0.0054 3.1703 0
M  V30 36 H -2.9684 -2.7321 0.7822 0
M  V30 37 H -2.4192 -1.6341 -0.4814 0
M  V30 38 H -5.8896 -0.1656 1.3571 0
M  V30 39 H 2.1878 -0.8374 -2.9041 0
M  V30 40 H 2.728 0.7448 -2.3494 0
M  V30 41 H -0.4576 2.2391 4.9628 0
M  V30 42 H -1.7522 5.2391 2.1815 0
M  V30 43 H -4.6589 -1.0225 -0.9097 0
M  V30 44 H -5.1392 -2.2526 0.275 0
M  V30 45 H -0.6661 4.6252 4.3261 0
M  V30 46 H 4.9709 0.7356 -2.618 0
M  V30 47 H 5.9729 -0.6215 -2.2347 0
M  V30 48 H 3.1665 -2.5919 -0.8026 0
M  V30 49 H 3.6133 -2.8036 -2.4871 0
M  V30 50 H 5.6792 -0.3882 -4.6656 0
M  V30 51 H 3.9265 -0.5453 -4.5265 0
M  V30 52 H 4.9813 -1.9243 -4.15 0
M  V30 53 H 5.0974 -3.9751 -0.8375 0
M  V30 54 H 5.5853 -2.4148 -0.1611 0
M  V30 55 H 6.0167 -2.8462 -1.832 0
M  V30 END ATOM
M  V30 BEGIN BOND
M  V30 1 2 1 2
M  V30 2 1 2 3
M  V30 3 1 2 4
M  V30 4 1 3 5
M  V30 5 1 4 6
M  V30 6 1 4 7
M  V30 7 1 4 8
M  V30 8 1 5 9
M  V30 9 2 6 10
M  V30 10 1 6 11
M  V30 11 1 7 12
M  V30 12 1 7 13
M  V30 13 1 8 14
M  V30 14 1 9 15
M  V30 15 1 10 16
M  V30 16 2 11 17
M  V30 17 1 13 18
M  V30 18 1 15 19
M  V30 19 2 16 20
M  V30 20 1 19 21
M  V30 21 1 19 22
M  V30 22 1 21 23
M  V30 23 1 22 24
M  V30 24 1 12 14
M  V30 25 1 14 18
M  V30 26 1 17 20
M  V30 27 1 5 25
M  V30 28 1 5 26
M  V30 29 1 7 27
M  V30 30 1 8 28
M  V30 31 1 8 29
M  V30 32 1 9 30
M  V30 33 1 9 31
M  V30 34 1 10 32
M  V30 35 1 11 33
M  V30 36 1 12 34
M  V30 37 1 12 35
M  V30 38 1 13 36
M  V30 39 1 13 37
M  V30 40 1 14 38
M  V30 41 1 15 39
M  V30 42 1 15 40
M  V30 43 1 16 41
M  V30 44 1 17 42
M  V30 45 1 18 43
M  V30 46 1 18 44
M  V30 47 1 20 45
M  V30 48 1 21 46
M  V30 49 1 21 47
M  V30 50 1 22 48
M  V30 51 1 22 49
M  V30 52 1 23 50
M  V30 53 1 23 51
M  V30 54 1 23 52
M  V30 55 1 24 53
M  V30 56 1 24 54
M  V30 57 1 24 55
M  V30 END BOND
M  V30 BEGIN COLLECTION
M  V30 MDLV30/STEABS ATOMS=(3 4 7 14)
M  V30 END COLLECTION
M  V30 END CTAB
M  END
>  <Column 1>
3823

>  <level_0>
7131

>  <index>
7132

>  <Unnamed: 0>
7132

>  <NO.>
7145

>  <Name>
3-(diethylamino)propyl (1r-2s-4r)-2-phenylbicyclo[2.2.1]heptane-2-carboxylate

>  <IUPAC_name>
3-(diethylamino)propyl (1r-2s-4r)-2-phenylbicyclo[2.2.1]heptane-2-carboxylate

>  <SMILES>
CCN(CC)CCCOC(=O)[C@@]1(c2ccccc2)C[C@@H]2CC[C@@H]1C2

>  <CID>
98071279

>  <logBB>


>  <BBB+/BBB->
BBB+

>  <Inchi>
InChI=1S/C21H31NO2/c1-3-22(4-2)13-8-14-24-20(23)21(18-9-6-5-7-10-18)16-17-11-12-19(21)15-17/h5-7-9-10-17-19H-3-4-8-11-16H2-1-2H3/t17--19--21-/m1/s1

>  <threshold>


>  <reference>
R27|

>  <group>
C

>  <Class>
1

>  <ABC>
18.31

>  <ABCGG>
15.98

>  <nAcid>
0

>  <nBase>
1

>  <nAromAtom>
6

>  <nAromBond>
6

>  <nAtom>
55

>  <nHeavyAtom>
24

>  <nSpiro>
0

>  <nBridgehead>
2

>  <nHetero>
3

>  <nN>
1

>  <nO>
2

>  <nF>
0

>  <BalabanJ>
1.57

>  <BertzCT>
540.03

>  <nBonds>
57

>  <nBondsO>
26

>  <nBondsS>
50

>  <nBondsD>
1

>  <nBondsT>
0

>  <nBondsA>
6

>  <nBondsM>
7

>  <nBondsKS>
53

>  <nBondsKD>
4

>  <RNCG>
0.27

>  <RPCG>
0.19

>  <FCSP3>
0.67

>  <SZ>
30

>  <Sm>
27.43

>  <Sv>
31.59

>  <Sse>
54.09

>  <Sp>
35

>  <Si>
62.15

>  <MZ>
0.55

>  <Mm>
0.5

>  <Mv>
0.57

>  <Mse>
0.98

>  <Mp>
0.64

>  <Mi>
1.13

>  <NsCH3>
2

>  <NdCH2>
0

>  <NssCH2>
9

>  <NtCH>
0

>  <NdsCH>
0

>  <NaaCH>
5

>  <NsssCH>
2

>  <NddC>
0

>  <NtsC>
0

>  <NdssC>
1

>  <NaasC>
1

>  <NaaaC>
0

>  <NssssC>
1

>  <NsNH3>
0

>  <NsNH2>
0

>  <NssNH2>
0

>  <NdNH>
0

>  <NssNH>
0

>  <NaaNH>
0

>  <NtN>
0

>  <NsssNH>
0

>  <NdsN>
0

>  <NaaN>
0

>  <NsssN>
1

>  <NddsN>
0

>  <NaasN>
0

>  <NssssN>
0

>  <NsOH>
0

>  <NdO>
1

>  <NssO>
1

>  <NaaO>
0

>  <NsF>
0

>  <NsSiH3>
0

>  <NssSiH2>
0

>  <NsssSiH>
0

>  <NssssSi>
0

>  <NsPH2>
0

>  <NssPH>
0

>  <NsssP>
0

>  <NdsssP>
0

>  <NsssssP>
0

>  <NsSH>
0

>  <NdS>
0

>  <NssS>
0

>  <NaaS>
0

>  <NdssS>
0

>  <NddssS>
0

>  <NsCl>
0

>  <NsBr>
0

>  <NsI>
0

>  <fragCpx>
124.03

>  <fMF>
0.24

>  <nHBAcc>
3

>  <nHBDon>
0

>  <Kier1>
18.78

>  <Kier2>
8.59

>  <Lipinski>
1

>  <GhoseFilter>
1

>  <FilterItLogS>
-4.9

>  <VMcGowan>
278.69

>  <LabuteASA>
145.93

>  <PEOE_VSA1>
9.64

>  <PEOE_VSA2>
4.79

>  <PEOE_VSA3>
0

>  <PEOE_VSA4>
0

>  <PEOE_VSA5>
0

>  <PEOE_VSA6>
50.6

>  <PEOE_VSA7>
56.17

>  <PEOE_VSA8>
6.54

>  <PEOE_VSA9>
12.02

>  <PEOE_VSA10>
0

>  <PEOE_VSA11>
0

>  <PEOE_VSA12>
0

>  <PEOE_VSA13>
0

>  <SMR_VSA1>
9.53

>  <SMR_VSA2>
0

>  <SMR_VSA3>
4.9

>  <SMR_VSA4>
11.84

>  <SMR_VSA5>
51.37

>  <SMR_VSA6>
26.24

>  <SMR_VSA7>
35.9

>  <SMR_VSA8>
0

>  <SMR_VSA9>
0

>  <SlogP_VSA1>
0

>  <SlogP_VSA2>
37.11

>  <SlogP_VSA3>
14.95

>  <SlogP_VSA4>
11.84

>  <SlogP_VSA5>
51.52

>  <SlogP_VSA6>
30.33

>  <SlogP_VSA7>
0

>  <SlogP_VSA8>
0

>  <SlogP_VSA9>
0

>  <SlogP_VSA10>
0

>  <SlogP_VSA11>
0

>  <EState_VSA1>
0

>  <EState_VSA2>
11.38

>  <EState_VSA3>
18.44

>  <EState_VSA4>
32.48

>  <EState_VSA5>
24.83

>  <EState_VSA6>
0

>  <EState_VSA7>
6.07

>  <EState_VSA8>
43.01

>  <EState_VSA9>
4.74

>  <EState_VSA10>
4.79

>  <VSA_EState1>
5.81

>  <VSA_EState2>
15.48

>  <VSA_EState3>
0

>  <VSA_EState4>
0.8

>  <VSA_EState5>
1.21

>  <VSA_EState6>
10.38

>  <VSA_EState7>
5.56

>  <VSA_EState8>
8.01

>  <VSA_EState9>
0

>  <apol>
58.44

>  <bpol>
35.41

>  <nRing>
3

>  <nHRing>
0

>  <naRing>
1

>  <naHRing>
0

>  <nARing 2>
2

>  <nAHRing 2>
0

>  <nFRing>
1

>  <nFHRing>
0

>  <nFaRing>
0

>  <nFaHRing>
0

>  <nFARing 2>
1

>  <nFAHRing 2>
0

>  <nRot>
8

>  <SLogP>
4.02

>  <SMR>
96.93

>  <TopoPSA(NO)>
29.54

>  <TopoPSA>
29.54

>  <JGI1>
0.19

>  <JGI2>
0.09

>  <JGI3>
0.05

>  <JGI4>
0.03

>  <JGI5>
0.02

>  <Diameter>
12

>  <Radius>
6

>  <TMWC10>
126.05

>  <TSRW10>
74.81

>  <MW>
329.24

>  <AMW>
5.99

>  <WPath>
1405

>  <WPol>
36

>  <Zagreb1>
124

>  <Zagreb2>
149

>  <mZagreb2>
5.54

>  <yes>


>  <nAR-cont>
1

>  <nHA-cont>
0.94700071

>  <MWHBN>
0.16533506

>  <MWHBN-cont>
0.966130494

>  <TPSA-cont>
0.793792457

>  <pka_cont>
0.97

>  <yes.1>


>  <BBB_SCORE>
5.468781364

>  <MMFF94 Energy>
68.269

$$$$
Compound 2973
Actelion Java MolfileCreator 2.0

  0  0  0  0  0  0              0 V3000
M  V30 BEGIN CTAB
M  V30 COUNTS 61 63 0 0 0
M  V30 BEGIN ATOM
M  V30 1 O -2.2134 -0.2369 -1.976 0
M  V30 2 C -1.5746 -0.7498 -1.0643 0
M  V30 3 O -1.8323 -0.5826 0.259 0
M  V30 4 C -0.3982 -1.6868 -1.2659 0 CFG=2
M  V30 5 C -2.8758 0.3576 0.5436 0
M  V30 6 C 0.641 -0.9962 -2.1583 0
M  V30 7 C -0.9576 -2.9998 -1.8459 0
M  V30 8 C -3.001 0.5541 2.0665 0
M  V30 9 C 1.2365 0.2422 -1.5254 0
M  V30 10 C 0.0329 -4.1481 -2.0432 0 CFG=2
M  V30 11 N -1.7826 0.9955 2.7909 0
M  V30 12 C 0.8008 1.519 -1.9078 0
M  V30 13 C 2.2156 0.1271 -0.5337 0
M  V30 14 O 1.1264 -4.0835 -1.1178 0
M  V30 15 C 0.6477 -4.243 -3.4307 0
M  V30 16 C -2.0416 1.1322 4.2377 0
M  V30 17 C -1.2375 2.2415 2.2142 0
M  V30 18 C 1.3379 2.6763 -1.3195 0
M  V30 19 C 2.7615 1.2688 0.0566 0
M  V30 20 C 2.3167 -4.5233 -1.7906 0
M  V30 21 C 1.8956 -5.0435 -3.1494 0
M  V30 22 C -2.4975 -0.1557 4.9208 0
M  V30 23 C 0.0657 2.7211 2.8488 0
M  V30 24 C 2.3358 2.5493 -0.3275 0
M  V30 25 C 0.903 3.9577 -1.6952 0
M  V30 26 C 2.8767 3.7069 0.2555 0
M  V30 27 C 1.4482 5.0986 -1.1039 0
M  V30 28 C 2.435 4.9735 -0.1306 0
M  V30 29 H 0.047 -1.8934 -0.2837 0
M  V30 30 H -3.8232 -0.0463 0.1658 0
M  V30 31 H -2.6845 1.3105 0.0373 0
M  V30 32 H 0.2039 -0.7386 -3.1319 0
M  V30 33 H 1.4738 -1.6724 -2.3754 0
M  V30 34 H -1.7214 -3.3552 -1.1385 0
M  V30 35 H -1.5039 -2.8154 -2.7802 0
M  V30 36 H -3.8259 1.252 2.2589 0
M  V30 37 H -3.2966 -0.4243 2.4613 0
M  V30 38 H -0.493 -5.0911 -1.8415 0
M  V30 39 H 0.0275 1.6124 -2.6693 0
M  V30 40 H 2.5581 -0.8541 -0.2112 0
M  V30 41 H 0.918 -3.2604 -3.8284 0
M  V30 42 H -0.0168 -4.7257 -4.1531 0
M  V30 43 H -1.1176 1.4206 4.7494 0
M  V30 44 H -2.7775 1.9237 4.4279 0
M  V30 45 H -1.0046 2.0806 1.1565 0
M  V30 46 H -1.9805 3.0473 2.2651 0
M  V30 47 H 3.5211 1.1492 0.8255 0
M  V30 48 H 2.8189 -5.2853 -1.188 0
M  V30 49 H 2.9835 -3.66 -1.8855 0
M  V30 50 H 1.6443 -6.1085 -3.0782 0
M  V30 51 H 2.6726 -4.9288 -3.9096 0
M  V30 52 H -2.488 -0.0222 6.008 0
M  V30 53 H -1.8288 -0.9889 4.6809 0
M  V30 54 H -3.5183 -0.4301 4.6388 0
M  V30 55 H 0.4791 3.5475 2.2619 0
M  V30 56 H 0.8116 1.9202 2.8753 0
M  V30 57 H -0.085 3.0978 3.8647 0
M  V30 58 H 0.134 4.0746 -2.4556 0
M  V30 59 H 3.6462 3.6279 1.0201 0
M  V30 60 H 1.103 6.0838 -1.406 0
M  V30 61 H 2.8617 5.8607 0.3297 0
M  V30 END ATOM
M  V30 BEGIN BOND
M  V30 1 2 1 2
M  V30 2 1 2 3
M  V30 3 1 2 4
M  V30 4 1 3 5
M  V30 5 1 4 6
M  V30 6 1 4 7
M  V30 7 1 5 8
M  V30 8 1 6 9
M  V30 9 1 7 10
M  V30 10 1 8 11
M  V30 11 2 9 12
M  V30 12 1 9 13
M  V30 13 1 10 14
M  V30 14 1 10 15
M  V30 15 1 11 16
M  V30 16 1 11 17
M  V30 17 1 12 18
M  V30 18 2 13 19
M  V30 19 1 14 20
M  V30 20 1 15 21
M  V30 21 1 16 22
M  V30 22 1 17 23
M  V30 23 1 18 24
M  V30 24 2 18 25
M  V30 25 2 24 26
M  V30 26 1 25 27
M  V30 27 1 26 28
M  V30 28 1 19 24
M  V30 29 1 20 21
M  V30 30 2 27 28
M  V30 31 1 4 29
M  V30 32 1 5 30
M  V30 33 1 5 31
M  V30 34 1 6 32
M  V30 35 1 6 33
M  V30 36 1 7 34
M  V30 37 1 7 35
M  V30 38 1 8 36
M  V30 39 1 8 37
M  V30 40 1 10 38
M  V30 41 1 12 39
M  V30 42 1 13 40
M  V30 43 1 15 41
M  V30 44 1 15 42
M  V30 45 1 16 43
M  V30 46 1 16 44
M  V30 47 1 17 45
M  V30 48 1 17 46
M  V30 49 1 19 47
M  V30 50 1 20 48
M  V30 51 1 20 49
M  V30 52 1 21 50
M  V30 53 1 21 51
M  V30 54 1 22 52
M  V30 55 1 22 53
M  V30 56 1 22 54
M  V30 57 1 23 55
M  V30 58 1 23 56
M  V30 59 1 23 57
M  V30 60 1 25 58
M  V30 61 1 26 59
M  V30 62 1 27 60
M  V30 63 1 28 61
M  V30 END BOND
M  V30 BEGIN COLLECTION
M  V30 MDLV30/STEABS ATOMS=(2 4 10)
M  V30 END COLLECTION
M  V30 END CTAB
M  END
>  <Column 1>
3824

>  <level_0>
7132

>  <index>
7133

>  <Unnamed: 0>
7133

>  <NO.>
7146

>  <Name>
zinc33985952

>  <IUPAC_name>
2-(diethylamino)ethyl (2r)-2-(naphthalen-2-ylmethyl)-3-[(2r)-oxolan-2-yl]propanoate

>  <SMILES>
CCN(CC)CCOC(=O)[C@H](Cc1ccc2ccccc2c1)C[C@H]1CCCO1

>  <CID>
92974239

>  <logBB>


>  <BBB+/BBB->
BBB+

>  <Inchi>
InChI=1S/C24H33NO3/c1-3-25(4-2)13-15-28-24(26)22(18-23-10-7-14-27-23)17-19-11-12-20-8-5-6-9-21(20)16-19/h5-6-8-9-11-12-16-22-23H-3-4-7-10-13-15-17-18H2-1-2H3/t22--23-/m1/s1

>  <threshold>


>  <reference>
R27|

>  <group>
C

>  <Class>
-1

>  <ABC>
21.24

>  <ABCGG>
17.15

>  <nAcid>
0

>  <nBase>
1

>  <nAromAtom>
10

>  <nAromBond>
11

>  <nAtom>
61

>  <nHeavyAtom>
28

>  <nSpiro>
0

>  <nBridgehead>
0

>  <nHetero>
4

>  <nN>
1

>  <nO>
3

>  <nF>
0

>  <BalabanJ>
1.5

>  <BertzCT>
750.35

>  <nBonds>
63

>  <nBondsO>
30

>  <nBondsS>
51

>  <nBondsD>
1

>  <nBondsT>
0

>  <nBondsA>
11

>  <nBondsM>
12

>  <nBondsKS>
57

>  <nBondsKD>
6

>  <RNCG>
0.22

>  <RPCG>
0.15

>  <FCSP3>
0.54

>  <SZ>
34.67

>  <Sm>
31.93

>  <Sv>
35.84

>  <Sse>
60.3

>  <Sp>
39.28

>  <Si>
68.77

>  <MZ>
0.57

>  <Mm>
0.52

>  <Mv>
0.59

>  <Mse>
0.99

>  <Mp>
0.64

>  <Mi>
1.13

>  <NsCH3>
2

>  <NdCH2>
0

>  <NssCH2>
9

>  <NtCH>
0

>  <NdsCH>
0

>  <NaaCH>
7

>  <NsssCH>
2

>  <NddC>
0

>  <NtsC>
0

>  <NdssC>
1

>  <NaasC>
1

>  <NaaaC>
2

>  <NssssC>
0

>  <NsNH3>
0

>  <NsNH2>
0

>  <NssNH2>
0

>  <NdNH>
0

>  <NssNH>
0

>  <NaaNH>
0

>  <NtN>
0

>  <NsssNH>
0

>  <NdsN>
0

>  <NaaN>
0

>  <NsssN>
1

>  <NddsN>
0

>  <NaasN>
0

>  <NssssN>
0

>  <NsOH>
0

>  <NdO>
1

>  <NssO>
2

>  <NaaO>
0

>  <NsF>
0

>  <NsSiH3>
0

>  <NssSiH2>
0

>  <NsssSiH>
0

>  <NssssSi>
0

>  <NsPH2>
0

>  <NssPH>
0

>  <NsssP>
0

>  <NdsssP>
0

>  <NsssssP>
0

>  <NsSH>
0

>  <NdS>
0

>  <NssS>
0

>  <NaaS>
0

>  <NdssS>
0

>  <NddssS>
0

>  <NsCl>
0

>  <NsBr>
0

>  <NsI>
0

>  <fragCpx>
144.04

>  <fMF>
0.3

>  <nHBAcc>
4

>  <nHBDon>
0

>  <Kier1>
22.68

>  <Kier2>
12

>  <Lipinski>
1

>  <GhoseFilter>
1

>  <FilterItLogS>
-5.84

>  <VMcGowan>
318.23

>  <LabuteASA>
168.36

>  <PEOE_VSA1>
14.37

>  <PEOE_VSA2>
4.79

>  <PEOE_VSA3>
0

>  <PEOE_VSA4>
0

>  <PEOE_VSA5>
0

>  <PEOE_VSA6>
56.31

>  <PEOE_VSA7>
55.11

>  <PEOE_VSA8>
13.15

>  <PEOE_VSA9>
12.02

>  <PEOE_VSA10>
6.61

>  <PEOE_VSA11>
0

>  <PEOE_VSA12>
0

>  <PEOE_VSA13>
0

>  <SMR_VSA1>
14.27

>  <SMR_VSA2>
0

>  <SMR_VSA3>
4.9

>  <SMR_VSA4>
5.92

>  <SMR_VSA5>
45.63

>  <SMR_VSA6>
32.85

>  <SMR_VSA7>
48.03

>  <SMR_VSA8>
0

>  <SMR_VSA9>
0

>  <SlogP_VSA1>
0

>  <SlogP_VSA2>
49.82

>  <SlogP_VSA3>
20.69

>  <SlogP_VSA4>
5.92

>  <SlogP_VSA5>
38.67

>  <SlogP_VSA6>
42.46

>  <SlogP_VSA7>
0

>  <SlogP_VSA8>
10.77

>  <SlogP_VSA9>
0

>  <SlogP_VSA10>
0

>  <SlogP_VSA11>
0

>  <EState_VSA1>
0

>  <EState_VSA2>
17.99

>  <EState_VSA3>
13.03

>  <EState_VSA4>
45.5

>  <EState_VSA5>
16.34

>  <EState_VSA6>
0

>  <EState_VSA7>
0

>  <EState_VSA8>
61.21

>  <EState_VSA9>
9.47

>  <EState_VSA10>
4.79

>  <VSA_EState1>
11.48

>  <VSA_EState2>
15.13

>  <VSA_EState3>
2.44

>  <VSA_EState4>
1.18

>  <VSA_EState5>
-0.24

>  <VSA_EState6>
14.81

>  <VSA_EState7>
3.76

>  <VSA_EState8>
8.28

>  <VSA_EState9>
0

>  <apol>
65.59

>  <bpol>
39.16

>  <nRing>
3

>  <nHRing>
1

>  <naRing>
2

>  <naHRing>
0

>  <nARing 2>
1

>  <nAHRing 2>
1

>  <nFRing>
1

>  <nFHRing>
0

>  <nFaRing>
1

>  <nFaHRing>
0

>  <nFARing 2>
0

>  <nFAHRing 2>
0

>  <nRot>
10

>  <SLogP>
4.45

>  <SMR>
113.48

>  <TopoPSA(NO)>
38.77

>  <TopoPSA>
38.77

>  <JGI1>
0.17

>  <JGI2>
0.06

>  <JGI3>
0.04

>  <JGI4>
0.03

>  <JGI5>
0.02

>  <Diameter>
14

>  <Radius>
7

>  <TMWC10>
132.52

>  <TSRW10>
75.77

>  <MW>
383.25

>  <AMW>
6.28

>  <WPath>
2245

>  <WPol>
38

>  <Zagreb1>
138

>  <Zagreb2>
157

>  <mZagreb2>
6.47

>  <yes>


>  <nAR-cont>
0.816016

>  <nHA-cont>
0.82432561

>  <MWHBN>
0.204323778

>  <MWHBN-cont>
1.000000011

>  <TPSA-cont>
0.729361325

>  <pka_cont>
0.97

>  <yes.1>


>  <BBB_SCORE>
5.084064277

>  <MMFF94 Energy>
50.671

$$$$
Compound 2974
Actelion Java MolfileCreator 2.0

  0  0  0  0  0  0              0 V3000
M  V30 BEGIN CTAB
M  V30 COUNTS 45 46 0 0 0
M  V30 BEGIN ATOM
M  V30 1 O 0.8676 1.8149 1.8149 0
M  V30 2 C 0.9548 0.6303 2.1352 0
M  V30 3 N 1.611 0.3043 3.3009 0
M  V30 4 C 0.422 -0.538 1.2758 0 CFG=1
M  V30 5 C 1.7599 -0.927 3.884 0
M  V30 6 C 1.4745 -1.1005 0.3005 0
M  V30 7 C -0.031 -1.6269 2.2913 0
M  V30 8 C -0.8487 -0.0622 0.5039 0
M  V30 9 O 2.4091 -1.062 4.9175 0
M  V30 10 C 1.1196 -2.0904 3.1756 0
M  V30 11 C 2.7103 -0.4653 0.0836 0
M  V30 12 C 1.2045 -2.2702 -0.4373 0
M  V30 13 C -0.5927 0.8571 -0.7078 0
M  V30 14 C 3.6456 -0.9936 -0.8111 0
M  V30 15 C 2.1402 -2.7958 -1.3314 0
M  V30 16 N -1.8785 1.2914 -1.3035 0
M  V30 17 C 3.3628 -2.1597 -1.5147 0
M  V30 18 C -1.7102 1.5963 -2.7383 0
M  V30 19 C -2.393 2.4737 -0.5806 0
M  V30 20 C -1.6701 0.3282 -3.5871 0
M  V30 21 C -3.8968 2.6468 -0.772 0
M  V30 22 H 2.0131 1.0797 3.8095 0
M  V30 23 H -0.8217 -1.2157 2.9358 0
M  V30 24 H -0.4712 -2.4961 1.7893 0
M  V30 25 H -1.4025 -0.9404 0.1422 0
M  V30 26 H -1.5174 0.4366 1.2174 0
M  V30 27 H 1.8907 -2.6131 2.6008 0
M  V30 28 H 0.7377 -2.7846 3.9325 0
M  V30 29 H 2.9743 0.4605 0.5905 0
M  V30 30 H 0.2513 -2.7854 -0.3371 0
M  V30 31 H 0.0254 1.725 -0.455 0
M  V30 32 H -0.0185 0.2827 -1.4407 0
M  V30 33 H 4.5956 -0.4864 -0.9627 0
M  V30 34 H 1.9093 -3.6998 -1.8894 0
M  V30 35 H 4.0905 -2.5662 -2.212 0
M  V30 36 H -2.5564 2.1847 -3.1097 0
M  V30 37 H -0.8113 2.2011 -2.9131 0
M  V30 38 H -2.2302 2.3675 0.4981 0
M  V30 39 H -1.8631 3.3859 -0.8836 0
M  V30 40 H -1.6383 0.5934 -4.6492 0
M  V30 41 H -2.5649 -0.2816 -3.4222 0
M  V30 42 H -0.7916 -0.2882 -3.3771 0
M  V30 43 H -4.2581 3.472 -0.149 0
M  V30 44 H -4.4367 1.742 -0.4729 0
M  V30 45 H -4.161 2.8784 -1.8076 0
M  V30 END ATOM
M  V30 BEGIN BOND
M  V30 1 2 1 2
M  V30 2 1 2 3
M  V30 3 1 2 4
M  V30 4 1 3 5
M  V30 5 1 4 6
M  V30 6 1 4 7
M  V30 7 1 4 8
M  V30 8 2 5 9
M  V30 9 1 5 10
M  V30 10 2 6 11
M  V30 11 1 6 12
M  V30 12 1 8 13
M  V30 13 1 11 14
M  V30 14 2 12 15
M  V30 15 1 13 16
M  V30 16 2 14 17
M  V30 17 1 16 18
M  V30 18 1 16 19
M  V30 19 1 18 20
M  V30 20 1 19 21
M  V30 21 1 7 10
M  V30 22 1 15 17
M  V30 23 1 3 22
M  V30 24 1 7 23
M  V30 25 1 7 24
M  V30 26 1 8 25
M  V30 27 1 8 26
M  V30 28 1 10 27
M  V30 29 1 10 28
M  V30 30 1 11 29
M  V30 31 1 12 30
M  V30 32 1 13 31
M  V30 33 1 13 32
M  V30 34 1 14 33
M  V30 35 1 15 34
M  V30 36 1 17 35
M  V30 37 1 18 36
M  V30 38 1 18 37
M  V30 39 1 19 38
M  V30 40 1 19 39
M  V30 41 1 20 40
M  V30 42 1 20 41
M  V30 43 1 20 42
M  V30 44 1 21 43
M  V30 45 1 21 44
M  V30 46 1 21 45
M  V30 END BOND
M  V30 BEGIN COLLECTION
M  V30 MDLV30/STEABS ATOMS=(1 4)
M  V30 END COLLECTION
M  V30 END CTAB
M  END
>  <Column 1>
3825

>  <level_0>
7134

>  <index>
7135

>  <Unnamed: 0>
7135

>  <NO.>
7148

>  <Name>
(s)-phenglutarimide

>  <IUPAC_name>
(3s)-3-[2-(diethylamino)ethyl]-3-phenylpiperidine-2-6-dione

>  <SMILES>
CCN(CC)CC[C@]1(c2ccccc2)CCC(=O)NC1=O

>  <CID>
13867124

>  <logBB>


>  <BBB+/BBB->
BBB+

>  <Inchi>
InChI=1S/C17H24N2O2/c1-3-19(4-2)13-12-17(14-8-6-5-7-9-14)11-10-15(20)18-16(17)21/h5-9H-3-4-10-13H2-1-2H3-(H-18-20-21)/t17-/m0/s1

>  <threshold>


>  <reference>
R27|

>  <group>
C

>  <Class>
1

>  <ABC>
15.65

>  <ABCGG>
13.81

>  <nAcid>
0

>  <nBase>
1

>  <nAromAtom>
6

>  <nAromBond>
6

>  <nAtom>
45

>  <nHeavyAtom>
21

>  <nSpiro>
0

>  <nBridgehead>
0

>  <nHetero>
4

>  <nN>
2

>  <nO>
2

>  <nF>
0

>  <BalabanJ>
2.09

>  <BertzCT>
496.77

>  <nBonds>
46

>  <nBondsO>
22

>  <nBondsS>
38

>  <nBondsD>
2

>  <nBondsT>
0

>  <nBondsA>
6

>  <nBondsM>
8

>  <nBondsKS>
41

>  <nBondsKD>
5

>  <RNCG>
0.18

>  <RPCG>
0.14

>  <FCSP3>
0.53

>  <SZ>
26

>  <Sm>
24.01

>  <Sv>
26.45

>  <Sse>
44.64

>  <Sp>
28.86

>  <Si>
50.98

>  <MZ>
0.58

>  <Mm>
0.53

>  <Mv>
0.59

>  <Mse>
0.99

>  <Mp>
0.64

>  <Mi>
1.13

>  <NsCH3>
2

>  <NdCH2>
0

>  <NssCH2>
6

>  <NtCH>
0

>  <NdsCH>
0

>  <NaaCH>
5

>  <NsssCH>
0

>  <NddC>
0

>  <NtsC>
0

>  <NdssC>
2

>  <NaasC>
1

>  <NaaaC>
0

>  <NssssC>
1

>  <NsNH3>
0

>  <NsNH2>
0

>  <NssNH2>
0

>  <NdNH>
0

>  <NssNH>
1

>  <NaaNH>
0

>  <NtN>
0

>  <NsssNH>
0

>  <NdsN>
0

>  <NaaN>
0

>  <NsssN>
1

>  <NddsN>
0

>  <NaasN>
0

>  <NssssN>
0

>  <NsOH>
0

>  <NdO>
2

>  <NssO>
0

>  <NaaO>
0

>  <NsF>
0

>  <NsSiH3>
0

>  <NssSiH2>
0

>  <NsssSiH>
0

>  <NssssSi>
0

>  <NsPH2>
0

>  <NssPH>
0

>  <NsssP>
0

>  <NdsssP>
0

>  <NsssssP>
0

>  <NsSH>
0

>  <NdS>
0

>  <NssS>
0

>  <NaaS>
0

>  <NdssS>
0

>  <NddssS>
0

>  <NsCl>
0

>  <NsBr>
0

>  <NsI>
0

>  <fragCpx>
64.04

>  <fMF>
0.27

>  <nHBAcc>
3

>  <nHBDon>
1

>  <Kier1>
17.36

>  <Kier2>
8.02

>  <Lipinski>
1

>  <GhoseFilter>
1

>  <FilterItLogS>
-4.57

>  <VMcGowan>
238.87

>  <LabuteASA>
126.07

>  <PEOE_VSA1>
4.9

>  <PEOE_VSA2>
14.91

>  <PEOE_VSA3>
0

>  <PEOE_VSA4>
0

>  <PEOE_VSA5>
0

>  <PEOE_VSA6>
44.18

>  <PEOE_VSA7>
38.04

>  <PEOE_VSA8>
6.42

>  <PEOE_VSA9>
5.41

>  <PEOE_VSA10>
0

>  <PEOE_VSA11>
0

>  <PEOE_VSA12>
11.81

>  <PEOE_VSA13>
0

>  <SMR_VSA1>
9.59

>  <SMR_VSA2>
0

>  <SMR_VSA3>
10.22

>  <SMR_VSA4>
0

>  <SMR_VSA5>
38.52

>  <SMR_VSA6>
19.63

>  <SMR_VSA7>
35.9

>  <SMR_VSA8>
0

>  <SMR_VSA9>
0

>  <SlogP_VSA1>
5.32

>  <SlogP_VSA2>
36.35

>  <SlogP_VSA3>
15

>  <SlogP_VSA4>
0

>  <SlogP_VSA5>
38.67

>  <SlogP_VSA6>
30.33

>  <SlogP_VSA7>
0

>  <SlogP_VSA8>
0

>  <SlogP_VSA9>
0

>  <SlogP_VSA10>
0

>  <SlogP_VSA11>
0

>  <EState_VSA1>
5.41

>  <EState_VSA2>
11.81

>  <EState_VSA3>
12.84

>  <EState_VSA4>
31.62

>  <EState_VSA5>
0

>  <EState_VSA6>
0

>  <EState_VSA7>
30.33

>  <EState_VSA8>
24.06

>  <EState_VSA9>
0

>  <EState_VSA10>
9.59

>  <VSA_EState1>
0

>  <VSA_EState2>
26.38

>  <VSA_EState3>
2.53

>  <VSA_EState4>
0.44

>  <VSA_EState5>
-0.3

>  <VSA_EState6>
9.86

>  <VSA_EState7>
1.76

>  <VSA_EState8>
7.07

>  <VSA_EState9>
0

>  <apol>
48.2

>  <bpol>
28.09

>  <nRing>
2

>  <nHRing>
1

>  <naRing>
1

>  <naHRing>
0

>  <nARing 2>
1

>  <nAHRing 2>
1

>  <nFRing>
0

>  <nFHRing>
0

>  <nFaRing>
0

>  <nFaHRing>
0

>  <nFARing 2>
0

>  <nFAHRing 2>
0

>  <nRot>
6

>  <SLogP>
2.09

>  <SMR>
82.91

>  <TopoPSA(NO)>
49.41

>  <TopoPSA>
49.41

>  <JGI1>
0.23

>  <JGI2>
0.1

>  <JGI3>
0.05

>  <JGI4>
0.03

>  <JGI5>
0.03

>  <Diameter>
9

>  <Radius>
5

>  <TMWC10>
116.51

>  <TSRW10>
54.82

>  <MW>
288.18

>  <AMW>
6.4

>  <WPath>
892

>  <WPol>
34

>  <Zagreb1>
104

>  <Zagreb2>
122

>  <mZagreb2>
4.92

>  <yes>


>  <nAR-cont>
0.816016

>  <nHA-cont>
0.994529749

>  <MWHBN>
0.235628638

>  <MWHBN-cont>
0.980558067

>  <TPSA-cont>
0.655087518

>  <pka_cont>
0.97

>  <yes.1>


>  <BBB_SCORE>
5.076557887

>  <MMFF94 Energy>
0.18871

$$$$
Compound 2975
Actelion Java MolfileCreator 2.0

  0  0  0  0  0  0              0 V3000
M  V30 BEGIN CTAB
M  V30 COUNTS 34 34 0 0 0
M  V30 BEGIN ATOM
M  V30 1 O 0.1561 -0.7809 2.5789 0
M  V30 2 C -0.0488 -0.8047 1.3624 0
M  V30 3 C 0.7734 -1.735 0.5205 0
M  V30 4 C -1.1362 0.077 0.7042 0 CFG=2
M  V30 5 C 1.6729 -2.5944 1.1708 0
M  V30 6 C 0.6787 -1.7869 -0.8748 0
M  V30 7 N -0.512 1.1362 -0.1401 0
M  V30 8 C -2.1118 0.5975 1.7701 0
M  V30 9 C 2.4583 -3.4892 0.4406 0
M  V30 10 C 1.4667 -2.6826 -1.6044 0
M  V30 11 C 0.3063 2.0777 0.655 0
M  V30 12 C -1.4852 1.8704 -0.9734 0
M  V30 13 C 2.3537 -3.5331 -0.9472 0
M  V30 14 C 1.3369 2.8144 -0.1968 0
M  V30 15 C -2.2927 0.9931 -1.9263 0
M  V30 16 H -1.7081 -0.6142 0.0739 0
M  V30 17 H 1.7671 -2.5714 2.2552 0
M  V30 18 H 0.0103 -1.1321 -1.424 0
M  V30 19 H -2.9593 1.1234 1.3203 0
M  V30 20 H -1.6248 1.2725 2.4817 0
M  V30 21 H -2.5206 -0.2376 2.3509 0
M  V30 22 H 3.1511 -4.1485 0.9574 0
M  V30 23 H 1.3902 -2.7116 -2.6887 0
M  V30 24 H -0.3223 2.804 1.1848 0
M  V30 25 H 0.8788 1.5427 1.4201 0
M  V30 26 H -2.1722 2.4616 -0.3563 0
M  V30 27 H -0.9494 2.5839 -1.6088 0
M  V30 28 H 2.9663 -4.2272 -1.5172 0
M  V30 29 H 2.0094 3.389 0.4491 0
M  V30 30 H 0.8723 3.5204 -0.8909 0
M  V30 31 H 1.9476 2.1105 -0.7721 0
M  V30 32 H -2.8687 1.6244 -2.6117 0
M  V30 33 H -3.0078 0.3587 -1.3946 0
M  V30 34 H -1.6385 0.3579 -2.5316 0
M  V30 END ATOM
M  V30 BEGIN BOND
M  V30 1 2 1 2
M  V30 2 1 2 3
M  V30 3 1 2 4
M  V30 4 2 3 5
M  V30 5 1 3 6
M  V30 6 1 4 7
M  V30 7 1 4 8
M  V30 8 1 5 9
M  V30 9 2 6 10
M  V30 10 1 7 11
M  V30 11 1 7 12
M  V30 12 2 9 13
M  V30 13 1 11 14
M  V30 14 1 12 15
M  V30 15 1 10 13
M  V30 16 1 4 16
M  V30 17 1 5 17
M  V30 18 1 6 18
M  V30 19 1 8 19
M  V30 20 1 8 20
M  V30 21 1 8 21
M  V30 22 1 9 22
M  V30 23 1 10 23
M  V30 24 1 11 24
M  V30 25 1 11 25
M  V30 26 1 12 26
M  V30 27 1 12 27
M  V30 28 1 13 28
M  V30 29 1 14 29
M  V30 30 1 14 30
M  V30 31 1 14 31
M  V30 32 1 15 32
M  V30 33 1 15 33
M  V30 34 1 15 34
M  V30 END BOND
M  V30 BEGIN COLLECTION
M  V30 MDLV30/STEABS ATOMS=(1 4)
M  V30 END COLLECTION
M  V30 END CTAB
M  END
>  <Column 1>
3826

>  <level_0>
7136

>  <index>
7137

>  <Unnamed: 0>
7137

>  <NO.>
7150

>  <Name>
(r)-diethylpropion

>  <IUPAC_name>
(2r)-2-(diethylamino)-1-phenylpropan-1-one

>  <SMILES>
CCN(CC)[C@H](C)C(=O)c1ccccc1

>  <CID>
2201750

>  <logBB>


>  <BBB+/BBB->
BBB+

>  <Inchi>
InChI=1S/C13H19NO/c1-4-14(5-2)11(3)13(15)12-9-7-6-8-10-12/h6-11H-4-5H2-1-3H3/t11-/m1/s1

>  <threshold>


>  <reference>
R27|

>  <group>
C

>  <Class>
-1

>  <ABC>
10.7

>  <ABCGG>
10.36

>  <nAcid>
0

>  <nBase>
1

>  <nAromAtom>
6

>  <nAromBond>
6

>  <nAtom>
34

>  <nHeavyAtom>
15

>  <nSpiro>
0

>  <nBridgehead>
0

>  <nHetero>
2

>  <nN>
1

>  <nO>
1

>  <nF>
0

>  <BalabanJ>
2.45

>  <BertzCT>
303.57

>  <nBonds>
34

>  <nBondsO>
15

>  <nBondsS>
27

>  <nBondsD>
1

>  <nBondsT>
0

>  <nBondsA>
6

>  <nBondsM>
7

>  <nBondsKS>
30

>  <nBondsKD>
4

>  <RNCG>
0.29

>  <RPCG>
0.17

>  <FCSP3>
0.46

>  <SZ>
18.67

>  <Sm>
17.09

>  <Sv>
19.62

>  <Sse>
33.43

>  <Sp>
21.73

>  <Si>
38.45

>  <MZ>
0.55

>  <Mm>
0.5

>  <Mv>
0.58

>  <Mse>
0.98

>  <Mp>
0.64

>  <Mi>
1.13

>  <NsCH3>
3

>  <NdCH2>
0

>  <NssCH2>
2

>  <NtCH>
0

>  <NdsCH>
0

>  <NaaCH>
5

>  <NsssCH>
1

>  <NddC>
0

>  <NtsC>
0

>  <NdssC>
1

>  <NaasC>
1

>  <NaaaC>
0

>  <NssssC>
0

>  <NsNH3>
0

>  <NsNH2>
0

>  <NssNH2>
0

>  <NdNH>
0

>  <NssNH>
0

>  <NaaNH>
0

>  <NtN>
0

>  <NsssNH>
0

>  <NdsN>
0

>  <NaaN>
0

>  <NsssN>
1

>  <NddsN>
0

>  <NaasN>
0

>  <NssssN>
0

>  <NsOH>
0

>  <NdO>
1

>  <NssO>
0

>  <NaaO>
0

>  <NsF>
0

>  <NsSiH3>
0

>  <NssSiH2>
0

>  <NsssSiH>
0

>  <NssssSi>
0

>  <NsPH2>
0

>  <NssPH>
0

>  <NsssP>
0

>  <NdsssP>
0

>  <NsssssP>
0

>  <NsSH>
0

>  <NdS>
0

>  <NssS>
0

>  <NaaS>
0

>  <NdssS>
0

>  <NddssS>
0

>  <NsCl>
0

>  <NsBr>
0

>  <NsI>
0

>  <fragCpx>
15.02

>  <fMF>
0.18

>  <nHBAcc>
2

>  <nHBDon>
0

>  <Kier1>
13.07

>  <Kier2>
6.55

>  <Lipinski>
1

>  <GhoseFilter>
1

>  <FilterItLogS>
-2.95

>  <VMcGowan>
181.82

>  <LabuteASA>
91.91

>  <PEOE_VSA1>
0

>  <PEOE_VSA2>
9.69

>  <PEOE_VSA3>
0

>  <PEOE_VSA4>
0

>  <PEOE_VSA5>
0

>  <PEOE_VSA6>
44.18

>  <PEOE_VSA7>
20.01

>  <PEOE_VSA8>
5.56

>  <PEOE_VSA9>
6.04

>  <PEOE_VSA10>
0

>  <PEOE_VSA11>
5.78

>  <PEOE_VSA12>
0

>  <PEOE_VSA13>
0

>  <SMR_VSA1>
4.79

>  <SMR_VSA2>
0

>  <SMR_VSA3>
4.9

>  <SMR_VSA4>
0

>  <SMR_VSA5>
26.81

>  <SMR_VSA6>
13.09

>  <SMR_VSA7>
35.9

>  <SMR_VSA8>
0

>  <SMR_VSA9>
0

>  <SlogP_VSA1>
0

>  <SlogP_VSA2>
29.81

>  <SlogP_VSA3>
0

>  <SlogP_VSA4>
0

>  <SlogP_VSA5>
31.13

>  <SlogP_VSA6>
30.33

>  <SlogP_VSA7>
0

>  <SlogP_VSA8>
0

>  <SlogP_VSA9>
0

>  <SlogP_VSA10>
0

>  <SlogP_VSA11>
0

>  <EState_VSA1>
0

>  <EState_VSA2>
11.83

>  <EState_VSA3>
0

>  <EState_VSA4>
18.65

>  <EState_VSA5>
0

>  <EState_VSA6>
0

>  <EState_VSA7>
37.26

>  <EState_VSA8>
18.75

>  <EState_VSA9>
0

>  <EState_VSA10>
4.79

>  <VSA_EState1>
0

>  <VSA_EState2>
14.22

>  <VSA_EState3>
0

>  <VSA_EState4>
0.8

>  <VSA_EState5>
0.21

>  <VSA_EState6>
9.47

>  <VSA_EState7>
0

>  <VSA_EState8>
7.96

>  <VSA_EState9>
0

>  <apol>
36.28

>  <bpol>
21.64

>  <nRing>
1

>  <nHRing>
0

>  <naRing>
1

>  <naHRing>
0

>  <nARing 2>
0

>  <nAHRing 2>
0

>  <nFRing>
0

>  <nFHRing>
0

>  <nFaRing>
0

>  <nFaHRing>
0

>  <nFARing 2>
0

>  <nFAHRing 2>
0

>  <nRot>
5

>  <SLogP>
2.6

>  <SMR>
63.16

>  <TopoPSA(NO)>
20.31

>  <TopoPSA>
20.31

>  <JGI1>
0.17

>  <JGI2>
0.11

>  <JGI3>
0.06

>  <JGI4>
0.04

>  <JGI5>
0.02

>  <Diameter>
8

>  <Radius>
4

>  <TMWC10>
97.8

>  <TSRW10>
46.22

>  <MW>
205.15

>  <AMW>
6.03

>  <WPath>
376

>  <WPol>
21

>  <Zagreb1>
68

>  <Zagreb2>
77

>  <mZagreb2>
3.67

>  <yes>


>  <nAR-cont>
0.336376

>  <nHA-cont>
0.92539861

>  <MWHBN>
0.139634983

>  <MWHBN-cont>
0.902666532

>  <TPSA-cont>
0.858223588

>  <pka_cont>
0.97

>  <yes.1>


>  <BBB_SCORE>
4.817221586

>  <MMFF94 Energy>
70.827

$$$$
Compound 2976
Actelion Java MolfileCreator 2.0

  0  0  0  0  0  0              0 V3000
M  V30 BEGIN CTAB
M  V30 COUNTS 46 47 0 0 0
M  V30 BEGIN ATOM
M  V30 1 Cl -0.3952 -6.2598 -1.661 0
M  V30 2 C 0.1173 -4.7839 -0.9404 0
M  V30 3 C 0.8066 -4.8045 0.2682 0
M  V30 4 C -0.1545 -3.5795 -1.5702 0
M  V30 5 C 1.2344 -3.6335 0.8754 0
M  V30 6 C 0.2655 -2.3903 -0.9753 0
M  V30 7 N 1.902 -3.7466 2.0309 0
M  V30 8 C 0.9595 -2.3863 0.2611 0
M  V30 9 C 2.3359 -2.6159 2.6158 0
M  V30 10 C 1.4007 -1.2018 0.921 0
M  V30 11 C 2.1206 -1.3497 2.1062 0
M  V30 12 N 1.1707 0.0476 0.3532 0
M  V30 13 C 1.6202 1.337 0.8637 0 CFG=2
M  V30 14 C 0.8334 2.4742 0.1707 0
M  V30 15 C 3.1119 1.5258 0.5754 0
M  V30 16 C -0.6889 2.4222 0.3914 0
M  V30 17 N -1.3278 1.2899 -0.3088 0
M  V30 18 C -1.949 1.6723 -1.5938 0
M  V30 19 C -2.2982 0.5897 0.5585 0
M  V30 20 C -0.9619 2.0975 -2.6885 0
M  V30 21 C -3.5279 1.3882 0.9842 0
M  V30 22 O -1.661 2.2693 -3.9188 0
M  V30 23 H 1.0225 -5.7529 0.7535 0
M  V30 24 H -0.6857 -3.5538 -2.5174 0
M  V30 25 H 0.0518 -1.4597 -1.4943 0
M  V30 26 H 2.8826 -2.7565 3.5438 0
M  V30 27 H 2.5036 -0.5002 2.6564 0
M  V30 28 H 0.3154 0.1158 -0.2049 0
M  V30 29 H 1.436 1.4064 1.9424 0
M  V30 30 H 1.1931 3.4335 0.5656 0
M  V30 31 H 1.0639 2.4816 -0.8998 0
M  V30 32 H 3.3187 1.4597 -0.4987 0
M  V30 33 H 3.7244 0.7666 1.0703 0
M  V30 34 H 3.4539 2.505 0.927 0
M  V30 35 H -0.8487 2.3557 1.4757 0
M  V30 36 H -1.1388 3.3747 0.084 0
M  V30 37 H -2.6905 2.4704 -1.4593 0
M  V30 38 H -2.5093 0.8144 -1.9898 0
M  V30 39 H -2.6296 -0.3243 0.0498 0
M  V30 40 H -1.7766 0.2382 1.4579 0
M  V30 41 H -0.4847 3.0502 -2.4425 0
M  V30 42 H -0.1935 1.3317 -2.8355 0
M  V30 43 H -4.1373 0.7892 1.6692 0
M  V30 44 H -4.1583 1.6474 0.1285 0
M  V30 45 H -3.2553 2.3107 1.5056 0
M  V30 46 H -0.9958 2.4927 -4.5924 0
M  V30 END ATOM
M  V30 BEGIN BOND
M  V30 1 1 1 2
M  V30 2 2 2 3
M  V30 3 1 2 4
M  V30 4 1 3 5
M  V30 5 2 4 6
M  V30 6 2 5 7
M  V30 7 1 5 8
M  V30 8 1 7 9
M  V30 9 2 8 10
M  V30 10 2 9 11
M  V30 11 1 10 12
M  V30 12 1 12 13
M  V30 13 1 13 14
M  V30 14 1 13 15
M  V30 15 1 14 16
M  V30 16 1 16 17
M  V30 17 1 17 18
M  V30 18 1 17 19
M  V30 19 1 18 20
M  V30 20 1 19 21
M  V30 21 1 20 22
M  V30 22 1 6 8
M  V30 23 1 10 11
M  V30 24 1 3 23
M  V30 25 1 4 24
M  V30 26 1 6 25
M  V30 27 1 9 26
M  V30 28 1 11 27
M  V30 29 1 12 28
M  V30 30 1 13 29
M  V30 31 1 14 30
M  V30 32 1 14 31
M  V30 33 1 15 32
M  V30 34 1 15 33
M  V30 35 1 15 34
M  V30 36 1 16 35
M  V30 37 1 16 36
M  V30 38 1 18 37
M  V30 39 1 18 38
M  V30 40 1 19 39
M  V30 41 1 19 40
M  V30 42 1 20 41
M  V30 43 1 20 42
M  V30 44 1 21 43
M  V30 45 1 21 44
M  V30 46 1 21 45
M  V30 47 1 22 46
M  V30 END BOND
M  V30 BEGIN COLLECTION
M  V30 MDLV30/STEABS ATOMS=(1 13)
M  V30 END COLLECTION
M  V30 END CTAB
M  END
>  <Column 1>
3827

>  <level_0>
7139

>  <index>
7140

>  <Unnamed: 0>
7140

>  <NO.>
7153

>  <Name>


>  <IUPAC_name>


>  <SMILES>
CCN(CCO)CC[C@H](C)Nc1ccnc2cc(Cl)ccc12

>  <CID>


>  <logBB>


>  <BBB+/BBB->
BBB+

>  <Inchi>
InChI=1S/C17H24ClN3O/c1-3-21(10-11-22)9-7-13(2)20-16-6-8-19-17-12-14(18)4-5-15(16)17/h4-6-8-12-13-22H-3-7-9-11H2-1-2H3-(H-19-20)/t13-/m0/s1

>  <threshold>


>  <reference>
R27|

>  <group>
C

>  <Class>
1

>  <ABC>
16.4

>  <ABCGG>
13.55

>  <nAcid>
0

>  <nBase>
1

>  <nAromAtom>
10

>  <nAromBond>
11

>  <nAtom>
46

>  <nHeavyAtom>
22

>  <nSpiro>
0

>  <nBridgehead>
0

>  <nHetero>
5

>  <nN>
3

>  <nO>
1

>  <nF>
0

>  <BalabanJ>
1.76

>  <BertzCT>
605.47

>  <nBonds>
47

>  <nBondsO>
23

>  <nBondsS>
36

>  <nBondsD>
0

>  <nBondsT>
0

>  <nBondsA>
11

>  <nBondsM>
11

>  <nBondsKS>
42

>  <nBondsKD>
5

>  <RNCG>
0.24

>  <RPCG>
0.13

>  <FCSP3>
0.47

>  <SZ>
28.67

>  <Sm>
26.8

>  <Sv>
27.58

>  <Sse>
45.74

>  <Sp>
30.34

>  <Si>
52.22

>  <MZ>
0.62

>  <Mm>
0.58

>  <Mv>
0.6

>  <Mse>
0.99

>  <Mp>
0.66

>  <Mi>
1.14

>  <NsCH3>
2

>  <NdCH2>
0

>  <NssCH2>
5

>  <NtCH>
0

>  <NdsCH>
0

>  <NaaCH>
5

>  <NsssCH>
1

>  <NddC>
0

>  <NtsC>
0

>  <NdssC>
0

>  <NaasC>
2

>  <NaaaC>
2

>  <NssssC>
0

>  <NsNH3>
0

>  <NsNH2>
0

>  <NssNH2>
0

>  <NdNH>
0

>  <NssNH>
1

>  <NaaNH>
0

>  <NtN>
0

>  <NsssNH>
0

>  <NdsN>
0

>  <NaaN>
1

>  <NsssN>
1

>  <NddsN>
0

>  <NaasN>
0

>  <NssssN>
0

>  <NsOH>
1

>  <NdO>
0

>  <NssO>
0

>  <NaaO>
0

>  <NsF>
0

>  <NsSiH3>
0

>  <NssSiH2>
0

>  <NsssSiH>
0

>  <NssssSi>
0

>  <NsPH2>
0

>  <NssPH>
0

>  <NsssP>
0

>  <NdsssP>
0

>  <NsssssP>
0

>  <NsSH>
0

>  <NdS>
0

>  <NssS>
0

>  <NaaS>
0

>  <NdssS>
0

>  <NddssS>
0

>  <NsCl>
1

>  <NsBr>
0

>  <NsI>
0

>  <fragCpx>
67.05

>  <fMF>
0.22

>  <nHBAcc>
4

>  <nHBDon>
2

>  <Kier1>
18.34

>  <Kier2>
9.33

>  <Lipinski>
1

>  <GhoseFilter>
1

>  <FilterItLogS>
-5.2

>  <VMcGowan>
255.22

>  <LabuteASA>
136.66

>  <PEOE_VSA1>
15.32

>  <PEOE_VSA2>
4.98

>  <PEOE_VSA3>
0

>  <PEOE_VSA4>
0

>  <PEOE_VSA5>
0

>  <PEOE_VSA6>
18.52

>  <PEOE_VSA7>
44.15

>  <PEOE_VSA8>
41.42

>  <PEOE_VSA9>
12.12

>  <PEOE_VSA10>
0

>  <PEOE_VSA11>
0

>  <PEOE_VSA12>
0

>  <PEOE_VSA13>
0

>  <SMR_VSA1>
5.11

>  <SMR_VSA2>
0

>  <SMR_VSA3>
9.88

>  <SMR_VSA4>
0

>  <SMR_VSA5>
26.31

>  <SMR_VSA6>
31.56

>  <SMR_VSA7>
35.48

>  <SMR_VSA8>
0

>  <SMR_VSA9>
0

>  <SlogP_VSA1>
5.32

>  <SlogP_VSA2>
47.27

>  <SlogP_VSA3>
0

>  <SlogP_VSA4>
0

>  <SlogP_VSA5>
20.27

>  <SlogP_VSA6>
30.46

>  <SlogP_VSA7>
5.02

>  <SlogP_VSA8>
10.9

>  <SlogP_VSA9>
0

>  <SlogP_VSA10>
5.69

>  <SlogP_VSA11>
0

>  <EState_VSA1>
0

>  <EState_VSA2>
6.61

>  <EState_VSA3>
11.06

>  <EState_VSA4>
42.65

>  <EState_VSA5>
0

>  <EState_VSA6>
6.2

>  <EState_VSA7>
24.27

>  <EState_VSA8>
29.05

>  <EState_VSA9>
16.71

>  <EState_VSA10>
0

>  <VSA_EState1>
0

>  <VSA_EState2>
6.61

>  <VSA_EState3>
14.37

>  <VSA_EState4>
1.99

>  <VSA_EState5>
0

>  <VSA_EState6>
8.12

>  <VSA_EState7>
2.82

>  <VSA_EState8>
7.18

>  <VSA_EState9>
0

>  <apol>
50.68

>  <bpol>
28.01

>  <nRing>
2

>  <nHRing>
1

>  <naRing>
2

>  <naHRing>
1

>  <nARing 2>
0

>  <nAHRing 2>
0

>  <nFRing>
1

>  <nFHRing>
1

>  <nFaRing>
1

>  <nFaHRing>
1

>  <nFARing 2>
0

>  <nFAHRing 2>
0

>  <nRot>
8

>  <SLogP>
3.39

>  <SMR>
93.65

>  <TopoPSA(NO)>
48.39

>  <TopoPSA>
48.39

>  <JGI1>
0.2

>  <JGI2>
0.07

>  <JGI3>
0.04

>  <JGI4>
0.04

>  <JGI5>
0.02

>  <Diameter>
13

>  <Radius>
7

>  <TMWC10>
117.34

>  <TSRW10>
55.49

>  <MW>
321.16

>  <AMW>
6.98

>  <WPath>
1184

>  <WPol>
31

>  <Zagreb1>
106

>  <Zagreb2>
120

>  <mZagreb2>
5.14

>  <yes>


>  <nAR-cont>
0.336376

>  <nHA-cont>
0.983774276

>  <MWHBN>
0.334803913

>  <MWHBN-cont>
0.725848666

>  <TPSA-cont>
0.662207752

>  <pka_cont>
0.97

>  <yes.1>


>  <BBB_SCORE>
4.218338778

>  <MMFF94 Energy>
59.897

$$$$
Compound 2977
Actelion Java MolfileCreator 2.0

  0  0  0  0  0  0              0 V3000
M  V30 BEGIN CTAB
M  V30 COUNTS 46 47 0 0 0
M  V30 BEGIN ATOM
M  V30 1 S 3.5209 4.6432 0.7194 0
M  V30 2 O 3.3156 6.068 0.5977 0
M  V30 3 O 4.4069 3.9076 -0.1493 0
M  V30 4 N 4.073 4.4023 2.2855 0
M  V30 5 C 1.9505 3.8327 0.7491 0
M  V30 6 C 1.9002 2.4511 0.9397 0
M  V30 7 C 0.7797 4.5639 0.5705 0
M  V30 8 C 0.6636 1.7796 0.9658 0
M  V30 9 C -0.4531 3.9059 0.5858 0
M  V30 10 C -0.5289 2.5159 0.777 0
M  V30 11 C 0.7317 0.2959 1.192 0
M  V30 12 O -1.7181 1.8295 0.7988 0
M  V30 13 O 1.8214 -0.2656 1.263 0
M  V30 14 N -0.4543 -0.3877 1.3175 0
M  V30 15 C -2.902 2.5317 0.4318 0
M  V30 16 C -0.5162 -1.8196 1.5175 0
M  V30 17 C -0.3825 -2.5914 0.2069 0 CFG=2
M  V30 18 C -1.528 -2.3245 -0.7667 0
M  V30 19 C -0.4058 -4.1078 0.4008 0
M  V30 20 N -1.6435 -3.5428 -1.5868 0
M  V30 21 C -1.409 -4.6302 -0.6223 0
M  V30 22 C -0.6696 -3.5951 -2.689 0
M  V30 23 C -1.0165 -2.6216 -3.8107 0
M  V30 24 H 4.1888 5.3006 2.7557 0
M  V30 25 H 4.9197 3.8321 2.2727 0
M  V30 26 H 2.8271 1.8934 1.0705 0
M  V30 27 H 0.8128 5.6412 0.418 0
M  V30 28 H -1.3418 4.5151 0.4479 0
M  V30 29 H -1.3188 0.1406 1.2502 0
M  V30 30 H -3.1472 3.2991 1.173 0
M  V30 31 H -3.7244 1.81 0.4168 0
M  V30 32 H -2.8158 2.9586 -0.5727 0
M  V30 33 H -1.4728 -2.0356 2.0062 0
M  V30 34 H 0.2841 -2.1105 2.2076 0
M  V30 35 H 0.5659 -2.3182 -0.2748 0
M  V30 36 H -2.4732 -2.188 -0.2248 0
M  V30 37 H -1.3722 -1.4108 -1.3483 0
M  V30 38 H 0.5917 -4.5194 0.2084 0
M  V30 39 H -0.6982 -4.4017 1.4147 0
M  V30 40 H -2.3578 -4.8487 -0.1158 0
M  V30 41 H -1.0828 -5.5683 -1.0849 0
M  V30 42 H 0.3579 -3.4187 -2.3501 0
M  V30 43 H -0.6886 -4.6004 -3.1288 0
M  V30 44 H -0.3475 -2.7825 -4.6626 0
M  V30 45 H -0.9061 -1.5787 -3.4998 0
M  V30 46 H -2.0436 -2.7718 -4.1601 0
M  V30 END ATOM
M  V30 BEGIN BOND
M  V30 1 2 1 2
M  V30 2 2 1 3
M  V30 3 1 1 4
M  V30 4 1 1 5
M  V30 5 2 5 6
M  V30 6 1 5 7
M  V30 7 1 6 8
M  V30 8 2 7 9
M  V30 9 2 8 10
M  V30 10 1 8 11
M  V30 11 1 10 12
M  V30 12 2 11 13
M  V30 13 1 11 14
M  V30 14 1 12 15
M  V30 15 1 14 16
M  V30 16 1 16 17
M  V30 17 1 17 18
M  V30 18 1 17 19
M  V30 19 1 18 20
M  V30 20 1 19 21
M  V30 21 1 20 22
M  V30 22 1 22 23
M  V30 23 1 9 10
M  V30 24 1 20 21
M  V30 25 1 4 24
M  V30 26 1 4 25
M  V30 27 1 6 26
M  V30 28 1 7 27
M  V30 29 1 9 28
M  V30 30 1 14 29
M  V30 31 1 15 30
M  V30 32 1 15 31
M  V30 33 1 15 32
M  V30 34 1 16 33
M  V30 35 1 16 34
M  V30 36 1 17 35
M  V30 37 1 18 36
M  V30 38 1 18 37
M  V30 39 1 19 38
M  V30 40 1 19 39
M  V30 41 1 21 40
M  V30 42 1 21 41
M  V30 43 1 22 42
M  V30 44 1 22 43
M  V30 45 1 23 44
M  V30 46 1 23 45
M  V30 47 1 23 46
M  V30 END BOND
M  V30 BEGIN COLLECTION
M  V30 MDLV30/STEABS ATOMS=(1 17)
M  V30 END COLLECTION
M  V30 END CTAB
M  END
>  <Column 1>
3828

>  <level_0>
7144

>  <index>
7145

>  <Unnamed: 0>
7145

>  <NO.>
7158

>  <Name>
zinc3203071

>  <IUPAC_name>
n-[[(3r)-1-ethylpyrrolidin-3-yl]methyl]-2-methoxy-5-sulfamoylbenzamide

>  <SMILES>
CCN1CC[C@H](CNC(=O)c2cc(S(N)(=O)=O)ccc2OC)C1

>  <CID>
40459146

>  <logBB>


>  <BBB+/BBB->
BBB+

>  <Inchi>
InChI=1S/C15H23N3O4S/c1-3-18-7-6-11(10-18)9-17-15(19)13-8-12(23(16-20)21)4-5-14(13)22-2/h4-5-8-11H-3-6-7-9-10H2-1-2H3-(H-17-19)(H2-16-20-21)/t11-/m1/s1

>  <threshold>


>  <reference>
R27|

>  <group>
C

>  <Class>
1

>  <ABC>
17.41

>  <ABCGG>
15.15

>  <nAcid>
0

>  <nBase>
1

>  <nAromAtom>
6

>  <nAromBond>
6

>  <nAtom>
46

>  <nHeavyAtom>
23

>  <nSpiro>
0

>  <nBridgehead>
0

>  <nHetero>
8

>  <nN>
3

>  <nO>
4

>  <nF>
0

>  <BalabanJ>
1.86

>  <BertzCT>
675.3

>  <nBonds>
47

>  <nBondsO>
24

>  <nBondsS>
38

>  <nBondsD>
3

>  <nBondsT>
0

>  <nBondsA>
6

>  <nBondsM>
9

>  <nBondsKS>
41

>  <nBondsKD>
6

>  <RNCG>
0.22

>  <RPCG>
0.11

>  <FCSP3>
0.53

>  <SZ>
30.33

>  <Sm>
28.43

>  <Sv>
27.55

>  <Sse>
46.6

>  <Sp>
29.82

>  <Si>
52.41

>  <MZ>
0.66

>  <Mm>
0.62

>  <Mv>
0.6

>  <Mse>
1.01

>  <Mp>
0.65

>  <Mi>
1.14

>  <NsCH3>
2

>  <NdCH2>
0

>  <NssCH2>
5

>  <NtCH>
0

>  <NdsCH>
0

>  <NaaCH>
3

>  <NsssCH>
1

>  <NddC>
0

>  <NtsC>
0

>  <NdssC>
1

>  <NaasC>
3

>  <NaaaC>
0

>  <NssssC>
0

>  <NsNH3>
0

>  <NsNH2>
1

>  <NssNH2>
0

>  <NdNH>
0

>  <NssNH>
1

>  <NaaNH>
0

>  <NtN>
0

>  <NsssNH>
0

>  <NdsN>
0

>  <NaaN>
0

>  <NsssN>
1

>  <NddsN>
0

>  <NaasN>
0

>  <NssssN>
0

>  <NsOH>
0

>  <NdO>
3

>  <NssO>
1

>  <NaaO>
0

>  <NsF>
0

>  <NsSiH3>
0

>  <NssSiH2>
0

>  <NsssSiH>
0

>  <NssssSi>
0

>  <NsPH2>
0

>  <NssPH>
0

>  <NsssP>
0

>  <NdsssP>
0

>  <NsssssP>
0

>  <NsSH>
0

>  <NdS>
0

>  <NssS>
0

>  <NaaS>
0

>  <NdssS>
0

>  <NddssS>
1

>  <NsCl>
0

>  <NsBr>
0

>  <NsI>
0

>  <fragCpx>
70.08

>  <fMF>
0.3

>  <nHBAcc>
5

>  <nHBDon>
2

>  <Kier1>
19.33

>  <Kier2>
8.39

>  <Lipinski>
1

>  <GhoseFilter>
1

>  <FilterItLogS>
-3.02

>  <VMcGowan>
253.06

>  <LabuteASA>
136.4

>  <PEOE_VSA1>
14.95

>  <PEOE_VSA2>
4.79

>  <PEOE_VSA3>
13.56

>  <PEOE_VSA4>
0

>  <PEOE_VSA5>
0

>  <PEOE_VSA6>
6.92

>  <PEOE_VSA7>
43.63

>  <PEOE_VSA8>
13.09

>  <PEOE_VSA9>
17.57

>  <PEOE_VSA10>
5.75

>  <PEOE_VSA11>
0

>  <PEOE_VSA12>
10.02

>  <PEOE_VSA13>
5.91

>  <SMR_VSA1>
17.95

>  <SMR_VSA2>
0

>  <SMR_VSA3>
10.22

>  <SMR_VSA4>
11.06

>  <SMR_VSA5>
18.24

>  <SMR_VSA6>
33.29

>  <SMR_VSA7>
23.76

>  <SMR_VSA8>
0

>  <SMR_VSA9>
5.75

>  <SlogP_VSA1>
15.19

>  <SlogP_VSA2>
52.51

>  <SlogP_VSA3>
10.02

>  <SlogP_VSA4>
5.92

>  <SlogP_VSA5>
23.7

>  <SlogP_VSA6>
23.09

>  <SlogP_VSA7>
0

>  <SlogP_VSA8>
0

>  <SlogP_VSA9>
0

>  <SlogP_VSA10>
0

>  <SlogP_VSA11>
5.75

>  <EState_VSA1>
10.02

>  <EState_VSA2>
16.37

>  <EState_VSA3>
18.21

>  <EState_VSA4>
26.06

>  <EState_VSA5>
25.31

>  <EState_VSA6>
0

>  <EState_VSA7>
0

>  <EState_VSA8>
17.14

>  <EState_VSA9>
9.88

>  <EState_VSA10>
13.21

>  <VSA_EState1>
28.02

>  <VSA_EState2>
14.59

>  <VSA_EState3>
7.97

>  <VSA_EState4>
0.17

>  <VSA_EState5>
0.37

>  <VSA_EState6>
4

>  <VSA_EState7>
1.04

>  <VSA_EState8>
5.68

>  <VSA_EState9>
-2.44

>  <apol>
49.79

>  <bpol>
34.04

>  <nRing>
2

>  <nHRing>
1

>  <naRing>
1

>  <naHRing>
0

>  <nARing 2>
1

>  <nAHRing 2>
1

>  <nFRing>
0

>  <nFHRing>
0

>  <nFaRing>
0

>  <nFaHRing>
0

>  <nFARing 2>
0

>  <nFAHRing 2>
0

>  <nRot>
6

>  <SLogP>
0.41

>  <SMR>
86.92

>  <TopoPSA(NO)>
101.73

>  <TopoPSA>
110.11

>  <JGI1>
0.27

>  <JGI2>
0.09

>  <JGI3>
0.05

>  <JGI4>
0.05

>  <JGI5>
0.04

>  <Diameter>
12

>  <Radius>
6

>  <TMWC10>
120.7

>  <TSRW10>
70.64

>  <MW>
341.14

>  <AMW>
7.42

>  <WPath>
1283

>  <WPol>
33

>  <Zagreb1>
116

>  <Zagreb2>
133

>  <mZagreb2>
5.14

>  <yes>


>  <nAR-cont>
0.816016

>  <nHA-cont>
0.967789328

>  <MWHBN>
0.378993461

>  <MWHBN-cont>
0.558753244

>  <TPSA-cont>
0.231363826

>  <pka_cont>
0.97

>  <yes.1>


>  <BBB_SCORE>
3.569662845

>  <MMFF94 Energy>
-53.977

$$$$
Compound 2978
Actelion Java MolfileCreator 2.0

  0  0  0  0  0  0              0 V3000
M  V30 BEGIN CTAB
M  V30 COUNTS 45 49 0 0 0
M  V30 BEGIN ATOM
M  V30 1 O 2.4346 -0.6488 -1.7849 0
M  V30 2 C 1.2283 -1.4085 -1.9429 0
M  V30 3 C 2.3245 -0.3838 -0.3673 0 CFG=2
M  V30 4 C 0.5735 -1.5599 -3.1035 0
M  V30 5 C 0.4926 -1.56 -0.6387 0 CFG=1
M  V30 6 C 0.8174 -0.1556 -0.1596 0 CFG=1
M  V30 7 C 3.1814 0.526 0.5077 0 CFG=1
M  V30 8 O 1.1208 -1.2409 -4.318 0
M  V30 9 C -0.8564 -1.8273 -3.1056 0
M  V30 10 C -0.9366 -2.0361 -0.6049 0 CFG=2
M  V30 11 C 0.387 0.1487 1.2556 0 CFG=2
M  V30 12 C 0.179 1.0248 -0.9811 0
M  V30 13 O 2.978 1.9075 0.2914 0
M  V30 14 C 2.7448 0.161 1.9438 0
M  V30 15 C -1.5801 -1.9765 -1.9733 0
M  V30 16 C -1.6092 -1.5154 0.6923 0
M  V30 17 C 1.4647 -0.1792 2.2597 0
M  V30 18 C -1.1442 -0.1502 1.3029 0 CFG=2
M  V30 19 C -1.3484 1.1516 -0.7972 0
M  V30 20 N -1.8803 0.9145 0.5614 0
M  V30 21 C -2.0499 2.1849 1.287 0
M  V30 22 C -2.798 2.053 2.61 0
M  V30 23 H 2.6652 -1.3543 0.0466 0
M  V30 24 H 1.0142 -2.3204 -0.0333 0
M  V30 25 H 4.244 0.3046 0.3635 0
M  V30 26 H 2.0412 -0.9779 -4.1301 0
M  V30 27 H -1.3492 -1.8346 -4.0743 0
M  V30 28 H -0.9029 -3.1282 -0.4481 0
M  V30 29 H 0.4259 1.2405 1.4018 0
M  V30 30 H 0.6286 1.9705 -0.651 0
M  V30 31 H 0.3997 0.9828 -2.0519 0
M  V30 32 H 3.1217 2.0665 -0.6576 0
M  V30 33 H 3.5286 0.1008 2.6934 0
M  V30 34 H -2.6512 -2.1472 -2.0385 0
M  V30 35 H -2.701 -1.5264 0.5744 0
M  V30 36 H -1.4014 -2.2647 1.471 0
M  V30 37 H 1.1913 -0.4532 3.2737 0
M  V30 38 H -1.4677 -0.1679 2.3485 0
M  V30 39 H -1.8552 0.4623 -1.4729 0
M  V30 40 H -1.6593 2.1361 -1.1721 0
M  V30 41 H -1.096 2.696 1.456 0
M  V30 42 H -2.6533 2.8586 0.6646 0
M  V30 43 H -3.0677 3.0466 2.9841 0
M  V30 44 H -2.1871 1.5735 3.3801 0
M  V30 45 H -3.7235 1.481 2.4872 0
M  V30 END ATOM
M  V30 BEGIN BOND
M  V30 1 1 1 2
M  V30 2 1 1 3
M  V30 3 2 2 4
M  V30 4 1 2 5
M  V30 5 1 3 6
M  V30 6 1 3 7
M  V30 7 1 4 8
M  V30 8 1 4 9
M  V30 9 1 5 10
M  V30 10 1 6 11
M  V30 11 1 6 12
M  V30 12 1 7 13
M  V30 13 1 7 14
M  V30 14 2 9 15
M  V30 15 1 10 16
M  V30 16 1 11 17
M  V30 17 1 11 18
M  V30 18 1 12 19
M  V30 19 1 18 20
M  V30 20 1 20 21
M  V30 21 1 21 22
M  V30 22 1 5 6
M  V30 23 1 10 15
M  V30 24 2 14 17
M  V30 25 1 16 18
M  V30 26 1 19 20
M  V30 27 1 3 23
M  V30 28 1 5 24
M  V30 29 1 7 25
M  V30 30 1 8 26
M  V30 31 1 9 27
M  V30 32 1 10 28
M  V30 33 1 11 29
M  V30 34 1 12 30
M  V30 35 1 12 31
M  V30 36 1 13 32
M  V30 37 1 14 33
M  V30 38 1 15 34
M  V30 39 1 16 35
M  V30 40 1 16 36
M  V30 41 1 17 37
M  V30 42 1 18 38
M  V30 43 1 19 39
M  V30 44 1 19 40
M  V30 45 1 21 41
M  V30 46 1 21 42
M  V30 47 1 22 43
M  V30 48 1 22 44
M  V30 49 1 22 45
M  V30 END BOND
M  V30 BEGIN COLLECTION
M  V30 MDLV30/STEABS ATOMS=(7 3 5 6 7 10 11 18)
M  V30 END COLLECTION
M  V30 END CTAB
M  END
>  <Column 1>
3829

>  <level_0>
7145

>  <index>
7146

>  <Unnamed: 0>
7146

>  <NO.>
7159

>  <Name>


>  <IUPAC_name>


>  <SMILES>
CCN1CC[C@]23[C@@H]4C=C[C@H](O)[C@@H]2OC2=C(O)C=C[C@H](C[C@@H]41)[C@@H]23

>  <CID>


>  <logBB>


>  <BBB+/BBB->
BBB+

>  <Inchi>
InChI=1S/C18H23NO3/c1-2-19-8-7-18-11-4-6-14(21)17(18)22-16-13(20)5-3-10(15(16)18)9-12(11)19/h3-6-10-12-14-15-17-20-21H-2-7-9H2-1H3/t10--11--12+-14+-15+-17+-18-/m1/s1

>  <threshold>


>  <reference>
R27|

>  <group>
C

>  <Class>
1

>  <ABC>
18.18

>  <ABCGG>
13.95

>  <nAcid>
0

>  <nBase>
1

>  <nAromAtom>
0

>  <nAromBond>
0

>  <nAtom>
45

>  <nHeavyAtom>
22

>  <nSpiro>
1

>  <nBridgehead>
2

>  <nHetero>
4

>  <nN>
1

>  <nO>
3

>  <nF>
0

>  <BalabanJ>
1.63

>  <BertzCT>
609.45

>  <nBonds>
49

>  <nBondsO>
26

>  <nBondsS>
46

>  <nBondsD>
3

>  <nBondsT>
0

>  <nBondsA>
0

>  <nBondsM>
3

>  <nBondsKS>
46

>  <nBondsKD>
3

>  <RNCG>
0.25

>  <RPCG>
0.14

>  <FCSP3>
0.67

>  <SZ>
27

>  <Sm>
25.09

>  <Sv>
27.13

>  <Sse>
44.87

>  <Sp>
29.28

>  <Si>
50.69

>  <MZ>
0.6

>  <Mm>
0.56

>  <Mv>
0.6

>  <Mse>
1

>  <Mp>
0.65

>  <Mi>
1.13

>  <NsCH3>
1

>  <NdCH2>
0

>  <NssCH2>
4

>  <NtCH>
0

>  <NdsCH>
4

>  <NaaCH>
0

>  <NsssCH>
6

>  <NddC>
0

>  <NtsC>
0

>  <NdssC>
2

>  <NaasC>
0

>  <NaaaC>
0

>  <NssssC>
1

>  <NsNH3>
0

>  <NsNH2>
0

>  <NssNH2>
0

>  <NdNH>
0

>  <NssNH>
0

>  <NaaNH>
0

>  <NtN>
0

>  <NsssNH>
0

>  <NdsN>
0

>  <NaaN>
0

>  <NsssN>
1

>  <NddsN>
0

>  <NaasN>
0

>  <NssssN>
0

>  <NsOH>
2

>  <NdO>
0

>  <NssO>
1

>  <NaaO>
0

>  <NsF>
0

>  <NsSiH3>
0

>  <NssSiH2>
0

>  <NsssSiH>
0

>  <NssssSi>
0

>  <NsPH2>
0

>  <NssPH>
0

>  <NsssP>
0

>  <NdsssP>
0

>  <NsssssP>
0

>  <NsSH>
0

>  <NdS>
0

>  <NssS>
0

>  <NaaS>
0

>  <NdssS>
0

>  <NddssS>
0

>  <NsCl>
0

>  <NsBr>
0

>  <NsI>
0

>  <fragCpx>
214.04

>  <fMF>
0.4

>  <nHBAcc>
4

>  <nHBDon>
2

>  <Kier1>
14.35

>  <Kier2>
4.76

>  <Lipinski>
1

>  <GhoseFilter>
1

>  <FilterItLogS>
-0.66

>  <VMcGowan>
224.87

>  <LabuteASA>
130.31

>  <PEOE_VSA1>
19.85

>  <PEOE_VSA2>
0

>  <PEOE_VSA3>
0

>  <PEOE_VSA4>
0

>  <PEOE_VSA5>
0

>  <PEOE_VSA6>
25.15

>  <PEOE_VSA7>
37.93

>  <PEOE_VSA8>
23.29

>  <PEOE_VSA9>
0

>  <PEOE_VSA10>
17.97

>  <PEOE_VSA11>
5.76

>  <PEOE_VSA12>
0

>  <PEOE_VSA13>
0

>  <SMR_VSA1>
14.95

>  <SMR_VSA2>
0

>  <SMR_VSA3>
4.9

>  <SMR_VSA4>
23.17

>  <SMR_VSA5>
38.02

>  <SMR_VSA6>
13.09

>  <SMR_VSA7>
35.82

>  <SMR_VSA8>
0

>  <SMR_VSA9>
0

>  <SlogP_VSA1>
0

>  <SlogP_VSA2>
46.45

>  <SlogP_VSA3>
4.74

>  <SlogP_VSA4>
23.17

>  <SlogP_VSA5>
19.77

>  <SlogP_VSA6>
35.82

>  <SlogP_VSA7>
0

>  <SlogP_VSA8>
0

>  <SlogP_VSA9>
0

>  <SlogP_VSA10>
0

>  <SlogP_VSA11>
0

>  <EState_VSA1>
6.1

>  <EState_VSA2>
23.2

>  <EState_VSA3>
17.88

>  <EState_VSA4>
31.69

>  <EState_VSA5>
0

>  <EState_VSA6>
6.08

>  <EState_VSA7>
6.08

>  <EState_VSA8>
23.98

>  <EState_VSA9>
4.74

>  <EState_VSA10>
10.21

>  <VSA_EState1>
6.18

>  <VSA_EState2>
2.59

>  <VSA_EState3>
20.81

>  <VSA_EState4>
-0.04

>  <VSA_EState5>
2.1

>  <VSA_EState6>
0.53

>  <VSA_EState7>
9.53

>  <VSA_EState8>
4.38

>  <VSA_EState9>
0

>  <apol>
48.9

>  <bpol>
26.52

>  <nRing>
5

>  <nHRing>
2

>  <naRing>
0

>  <naHRing>
0

>  <nARing 2>
5

>  <nAHRing 2>
2

>  <nFRing>
1

>  <nFHRing>
1

>  <nFaRing>
0

>  <nFaHRing>
0

>  <nFARing 2>
1

>  <nFAHRing 2>
1

>  <nRot>
1

>  <SLogP>
1.99

>  <SMR>
81.99

>  <TopoPSA(NO)>
52.93

>  <TopoPSA>
52.93

>  <JGI1>
0.19

>  <JGI2>
0.1

>  <JGI3>
0.05

>  <JGI4>
0.05

>  <JGI5>
0.03

>  <Diameter>
9

>  <Radius>
5

>  <TMWC10>
127.61

>  <TSRW10>
72.65

>  <MW>
301.17

>  <AMW>
6.69

>  <WPath>
825

>  <WPol>
51

>  <Zagreb1>
136

>  <Zagreb2>
178

>  <mZagreb2>
4.63

>  <yes>


>  <nAR-cont>
0

>  <nHA-cont>
0.983774276

>  <MWHBN>
0.345736631

>  <MWHBN-cont>
0.686103733

>  <TPSA-cont>
0.630515732

>  <pka_cont>
0.97

>  <yes.1>


>  <BBB_SCORE>
3.75896134

>  <MMFF94 Energy>
137.71

$$$$
Compound 2979
Actelion Java MolfileCreator 2.0

  0  0  0  0  0  0              0 V3000
M  V30 BEGIN CTAB
M  V30 COUNTS 31 32 0 0 0
M  V30 BEGIN ATOM
M  V30 1 O 2.8587 1.9051 0.8728 0
M  V30 2 C 1.9132 1.1184 0.862 0
M  V30 3 C 1.1501 0.8868 -0.3809 0
M  V30 4 C 1.5098 0.3426 2.0849 0 CFG=2
M  V30 5 C -0.0323 0.1461 -0.3341 0
M  V30 6 C 1.6143 1.3969 -1.5945 0
M  V30 7 C 2.1805 -0.9961 2.1645 0
M  V30 8 C -0.0015 0.2062 2.1112 0
M  V30 9 N -0.7247 -0.1035 -1.4701 0
M  V30 10 N -0.5194 -0.35 0.8674 0
M  V30 11 C 0.8917 1.142 -2.7514 0
M  V30 12 O 2.8923 -1.5217 1.3255 0
M  V30 13 O 1.9553 -1.6229 3.3399 0
M  V30 14 C -0.2682 0.3858 -2.6504 0
M  V30 15 C -1.7758 -1.0945 0.8805 0
M  V30 16 C -1.0754 0.0784 -3.876 0
M  V30 17 C -2.9788 -0.1627 0.916 0
M  V30 18 H 1.8314 0.9258 2.9575 0
M  V30 19 H 2.5337 1.9752 -1.6372 0
M  V30 20 H -0.3146 -0.4153 2.959 0
M  V30 21 H -0.4568 1.1937 2.2675 0
M  V30 22 H 1.2333 1.5204 -3.7093 0
M  V30 23 H 2.4621 -2.4598 3.2568 0
M  V30 24 H -1.8466 -1.777 0.0249 0
M  V30 25 H -1.8035 -1.7372 1.7692 0
M  V30 26 H -1.9544 -0.5232 -3.6228 0
M  V30 27 H -0.4721 -0.4849 -4.5945 0
M  V30 28 H -1.4205 1.0057 -4.3439 0
M  V30 29 H -3.9056 -0.7441 0.9473 0
M  V30 30 H -3.0147 0.4838 0.0336 0
M  V30 31 H -2.9534 0.4814 1.8012 0
M  V30 END ATOM
M  V30 BEGIN BOND
M  V30 1 2 1 2
M  V30 2 1 2 3
M  V30 3 1 2 4
M  V30 4 2 3 5
M  V30 5 1 3 6
M  V30 6 1 4 7
M  V30 7 1 4 8
M  V30 8 1 5 9
M  V30 9 1 5 10
M  V30 10 2 6 11
M  V30 11 2 7 12
M  V30 12 1 7 13
M  V30 13 2 9 14
M  V30 14 1 10 15
M  V30 15 1 14 16
M  V30 16 1 15 17
M  V30 17 1 8 10
M  V30 18 1 11 14
M  V30 19 1 4 18
M  V30 20 1 6 19
M  V30 21 1 8 20
M  V30 22 1 8 21
M  V30 23 1 11 22
M  V30 24 1 13 23
M  V30 25 1 15 24
M  V30 26 1 15 25
M  V30 27 1 16 26
M  V30 28 1 16 27
M  V30 29 1 16 28
M  V30 30 1 17 29
M  V30 31 1 17 30
M  V30 32 1 17 31
M  V30 END BOND
M  V30 BEGIN COLLECTION
M  V30 MDLV30/STEABS ATOMS=(1 4)
M  V30 END COLLECTION
M  V30 END CTAB
M  END
>  <Column 1>
3830

>  <level_0>
7146

>  <index>
7147

>  <Unnamed: 0>
7147

>  <NO.>
7160

>  <Name>
zinc12359050

>  <IUPAC_name>
(3r)-1-ethyl-7-methyl-4-oxo-2-3-dihydro-1-8-naphthyridine-3-carboxylic acid

>  <SMILES>
CCN1C[C@@H](C(=O)O)C(=O)c2ccc(C)nc21

>  <CID>
37029903

>  <logBB>


>  <BBB+/BBB->
BBB+

>  <Inchi>
InChI=1S/C12H14N2O3/c1-3-14-6-9(12(16)17)10(15)8-5-4-7(2)13-11(8)14/h4-5-9H-3-6H2-1-2H3-(H-16-17)/t9-/m1/s1

>  <threshold>


>  <reference>
R27|

>  <group>
C

>  <Class>
1

>  <ABC>
12.96

>  <ABCGG>
11.5

>  <nAcid>
1

>  <nBase>
0

>  <nAromAtom>
6

>  <nAromBond>
6

>  <nAtom>
31

>  <nHeavyAtom>
17

>  <nSpiro>
0

>  <nBridgehead>
0

>  <nHetero>
5

>  <nN>
2

>  <nO>
3

>  <nF>
0

>  <BalabanJ>
2.15

>  <BertzCT>
484.64

>  <nBonds>
32

>  <nBondsO>
18

>  <nBondsS>
24

>  <nBondsD>
2

>  <nBondsT>
0

>  <nBondsA>
6

>  <nBondsM>
8

>  <nBondsKS>
27

>  <nBondsKD>
5

>  <RNCG>
0.27

>  <RPCG>
0.18

>  <FCSP3>
0.42

>  <SZ>
20.67

>  <Sm>
19.5

>  <Sv>
19.45

>  <Sse>
31.53

>  <Sp>
20.35

>  <Si>
35.12

>  <MZ>
0.67

>  <Mm>
0.63

>  <Mv>
0.63

>  <Mse>
1.02

>  <Mp>
0.66

>  <Mi>
1.13

>  <NsCH3>
2

>  <NdCH2>
0

>  <NssCH2>
2

>  <NtCH>
0

>  <NdsCH>
0

>  <NaaCH>
2

>  <NsssCH>
1

>  <NddC>
0

>  <NtsC>
0

>  <NdssC>
2

>  <NaasC>
3

>  <NaaaC>
0

>  <NssssC>
0

>  <NsNH3>
0

>  <NsNH2>
0

>  <NssNH2>
0

>  <NdNH>
0

>  <NssNH>
0

>  <NaaNH>
0

>  <NtN>
0

>  <NsssNH>
0

>  <NdsN>
0

>  <NaaN>
1

>  <NsssN>
1

>  <NddsN>
0

>  <NaasN>
0

>  <NssssN>
0

>  <NsOH>
1

>  <NdO>
2

>  <NssO>
0

>  <NaaO>
0

>  <NsF>
0

>  <NsSiH3>
0

>  <NssSiH2>
0

>  <NsssSiH>
0

>  <NssssSi>
0

>  <NsPH2>
0

>  <NssPH>
0

>  <NsssP>
0

>  <NdsssP>
0

>  <NsssssP>
0

>  <NsSH>
0

>  <NdS>
0

>  <NssS>
0

>  <NaaS>
0

>  <NdssS>
0

>  <NddssS>
0

>  <NsCl>
0

>  <NsBr>
0

>  <NsI>
0

>  <fragCpx>
52.05

>  <fMF>
0.32

>  <nHBAcc>
4

>  <nHBDon>
1

>  <Kier1>
13.43

>  <Kier2>
5.33

>  <Lipinski>
1

>  <GhoseFilter>
1

>  <FilterItLogS>
-2.11

>  <VMcGowan>
174.29

>  <LabuteASA>
99.08

>  <PEOE_VSA1>
10.01

>  <PEOE_VSA2>
9.59

>  <PEOE_VSA3>
4.98

>  <PEOE_VSA4>
0

>  <PEOE_VSA5>
0

>  <PEOE_VSA6>
0

>  <PEOE_VSA7>
25.98

>  <PEOE_VSA8>
18.78

>  <PEOE_VSA9>
5.56

>  <PEOE_VSA10>
11.74

>  <PEOE_VSA11>
5.78

>  <PEOE_VSA12>
0

>  <PEOE_VSA13>
0

>  <SMR_VSA1>
14.7

>  <SMR_VSA2>
0

>  <SMR_VSA3>
4.98

>  <SMR_VSA4>
5.92

>  <SMR_VSA5>
13.85

>  <SMR_VSA6>
17.99

>  <SMR_VSA7>
23.39

>  <SMR_VSA8>
0

>  <SMR_VSA9>
0

>  <SlogP_VSA1>
4.9

>  <SlogP_VSA2>
34.93

>  <SlogP_VSA3>
4.79

>  <SlogP_VSA4>
12.84

>  <SlogP_VSA5>
22.98

>  <SlogP_VSA6>
12.13

>  <SlogP_VSA7>
0

>  <SlogP_VSA8>
0

>  <SlogP_VSA9>
0

>  <SlogP_VSA10>
5.82

>  <SlogP_VSA11>
0

>  <EState_VSA1>
11.89

>  <EState_VSA2>
12.33

>  <EState_VSA3>
17.93

>  <EState_VSA4>
5.69

>  <EState_VSA5>
0

>  <EState_VSA6>
12.13

>  <EState_VSA7>
18.75

>  <EState_VSA8>
4.98

>  <EState_VSA9>
5.11

>  <EState_VSA10>
9.59

>  <VSA_EState1>
0

>  <VSA_EState2>
29.18

>  <VSA_EState3>
9.03

>  <VSA_EState4>
1.24

>  <VSA_EState5>
-1.79

>  <VSA_EState6>
3.4

>  <VSA_EState7>
0

>  <VSA_EState8>
4.61

>  <VSA_EState9>
0

>  <apol>
33.98

>  <bpol>
18.63

>  <nRing>
2

>  <nHRing>
2

>  <naRing>
1

>  <naHRing>
1

>  <nARing 2>
1

>  <nAHRing 2>
1

>  <nFRing>
1

>  <nFHRing>
1

>  <nFaRing>
0

>  <nFaHRing>
0

>  <nFARing 2>
1

>  <nFAHRing 2>
1

>  <nRot>
2

>  <SLogP>
1.11

>  <SMR>
62.32

>  <TopoPSA(NO)>
70.5

>  <TopoPSA>
70.5

>  <JGI1>
0.22

>  <JGI2>
0.09

>  <JGI3>
0.06

>  <JGI4>
0.06

>  <JGI5>
0.04

>  <Diameter>
8

>  <Radius>
4

>  <TMWC10>
107.49

>  <TSRW10>
50.11

>  <MW>
234.1

>  <AMW>
7.55

>  <WPath>
470

>  <WPol>
29

>  <Zagreb1>
88

>  <Zagreb2>
105

>  <mZagreb2>
3.81

>  <yes>


>  <nAR-cont>
0.816016

>  <nHA-cont>
0.976740822

>  <MWHBN>
0.326790406

>  <MWHBN-cont>
0.754021673

>  <TPSA-cont>
0.507866222

>  <pka_cont>
0.97

>  <yes.1>


>  <BBB_SCORE>
4.424521776

>  <MMFF94 Energy>
-32.792

$$$$
Compound 2980
Actelion Java MolfileCreator 2.0

  0  0  0  0  0  0              0 V3000
M  V30 BEGIN CTAB
M  V30 COUNTS 32 32 0 0 0
M  V30 BEGIN ATOM
M  V30 1 F 2.3746 -3.8809 -2.0578 0
M  V30 2 C 2.4931 -2.7812 -2.8538 0
M  V30 3 F 1.5917 -2.9499 -3.8604 0
M  V30 4 F 3.7225 -2.8767 -3.4343 0
M  V30 5 C 2.2869 -1.485 -2.1098 0
M  V30 6 C 1.3934 -1.4197 -1.027 0
M  V30 7 C 2.9538 -0.3189 -2.5101 0
M  V30 8 C 1.1745 -0.217 -0.3353 0
M  V30 9 C 2.7433 0.8815 -1.8337 0
M  V30 10 C 1.8606 0.9322 -0.7543 0
M  V30 11 C 0.1962 -0.1847 0.833 0 CFG=2
M  V30 12 C -1.0491 0.6623 0.4744 0
M  V30 13 C 0.8903 0.292 2.1155 0
M  V30 14 N -2.098 0.5768 1.4985 0
M  V30 15 C -3.2936 1.3133 1.0884 0
M  V30 16 C -4.3514 1.2249 2.1778 0
M  V30 17 H 0.8634 -2.3223 -0.7212 0
M  V30 18 H 3.643 -0.3427 -3.3528 0
M  V30 19 H 3.2668 1.7813 -2.1483 0
M  V30 20 H 1.7128 1.8819 -0.2446 0
M  V30 21 H -0.1424 -1.2133 1.0208 0
M  V30 22 H -0.7608 1.7116 0.3316 0
M  V30 23 H -1.4519 0.3035 -0.4818 0
M  V30 24 H 1.1566 1.3533 2.0645 0
M  V30 25 H 0.2454 0.1524 2.989 0
M  V30 26 H 1.8104 -0.2752 2.2964 0
M  V30 27 H -1.7537 0.9599 2.3782 0
M  V30 28 H -3.7009 0.8907 0.1631 0
M  V30 29 H -3.0532 2.3671 0.9067 0
M  V30 30 H -4.6327 0.1846 2.3733 0
M  V30 31 H -3.995 1.6662 3.1148 0
M  V30 32 H -5.2528 1.766 1.8726 0
M  V30 END ATOM
M  V30 BEGIN BOND
M  V30 1 1 1 2
M  V30 2 1 2 3
M  V30 3 1 2 4
M  V30 4 1 2 5
M  V30 5 2 5 6
M  V30 6 1 5 7
M  V30 7 1 6 8
M  V30 8 2 7 9
M  V30 9 2 8 10
M  V30 10 1 8 11
M  V30 11 1 11 12
M  V30 12 1 11 13
M  V30 13 1 12 14
M  V30 14 1 14 15
M  V30 15 1 15 16
M  V30 16 1 9 10
M  V30 17 1 6 17
M  V30 18 1 7 18
M  V30 19 1 9 19
M  V30 20 1 10 20
M  V30 21 1 11 21
M  V30 22 1 12 22
M  V30 23 1 12 23
M  V30 24 1 13 24
M  V30 25 1 13 25
M  V30 26 1 13 26
M  V30 27 1 14 27
M  V30 28 1 15 28
M  V30 29 1 15 29
M  V30 30 1 16 30
M  V30 31 1 16 31
M  V30 32 1 16 32
M  V30 END BOND
M  V30 BEGIN COLLECTION
M  V30 MDLV30/STEABS ATOMS=(1 11)
M  V30 END COLLECTION
M  V30 END CTAB
M  END
>  <Column 1>
3831

>  <level_0>
7147

>  <index>
7148

>  <Unnamed: 0>
7148

>  <NO.>
7161

>  <Name>
(2r)-n-ethyl-2-[3-(trifluoromethyl)phenyl]propan-1-amine

>  <IUPAC_name>
(2r)-n-ethyl-2-[3-(trifluoromethyl)phenyl]propan-1-amine

>  <SMILES>
CCNC[C@H](C)c1cccc(C(F)(F)F)c1

>  <CID>
14205575

>  <logBB>


>  <BBB+/BBB->
BBB+

>  <Inchi>
InChI=1S/C12H16F3N/c1-3-16-8-9(2)10-5-4-6-11(7-10)12(13-14)15/h4-7-9-16H-3-8H2-1-2H3/t9-/m0/s1

>  <threshold>


>  <reference>
R27|

>  <group>
C

>  <Class>
-1

>  <ABC>
11.8

>  <ABCGG>
10.78

>  <nAcid>
0

>  <nBase>
1

>  <nAromAtom>
6

>  <nAromBond>
6

>  <nAtom>
32

>  <nHeavyAtom>
16

>  <nSpiro>
0

>  <nBridgehead>
0

>  <nHetero>
4

>  <nN>
1

>  <nO>
0

>  <nF>
3

>  <BalabanJ>
2.43

>  <BertzCT>
333.28

>  <nBonds>
32

>  <nBondsO>
16

>  <nBondsS>
26

>  <nBondsD>
0

>  <nBondsT>
0

>  <nBondsA>
6

>  <nBondsM>
6

>  <nBondsKS>
29

>  <nBondsKD>
3

>  <RNCG>
0.26

>  <RPCG>
0.35

>  <FCSP3>
0.5

>  <SZ>
20.33

>  <Sm>
19.25

>  <Sv>
19.03

>  <Sse>
32.64

>  <Sp>
20.05

>  <Si>
37.25

>  <MZ>
0.64

>  <Mm>
0.6

>  <Mv>
0.59

>  <Mse>
1.02

>  <Mp>
0.63

>  <Mi>
1.16

>  <NsCH3>
2

>  <NdCH2>
0

>  <NssCH2>
2

>  <NtCH>
0

>  <NdsCH>
0

>  <NaaCH>
4

>  <NsssCH>
1

>  <NddC>
0

>  <NtsC>
0

>  <NdssC>
0

>  <NaasC>
2

>  <NaaaC>
0

>  <NssssC>
1

>  <NsNH3>
0

>  <NsNH2>
0

>  <NssNH2>
0

>  <NdNH>
0

>  <NssNH>
1

>  <NaaNH>
0

>  <NtN>
0

>  <NsssNH>
0

>  <NdsN>
0

>  <NaaN>
0

>  <NsssN>
0

>  <NddsN>
0

>  <NaasN>
0

>  <NssssN>
0

>  <NsOH>
0

>  <NdO>
0

>  <NssO>
0

>  <NaaO>
0

>  <NsF>
3

>  <NsSiH3>
0

>  <NssSiH2>
0

>  <NsssSiH>
0

>  <NssssSi>
0

>  <NsPH2>
0

>  <NssPH>
0

>  <NsssP>
0

>  <NdsssP>
0

>  <NsssssP>
0

>  <NsSH>
0

>  <NdS>
0

>  <NssS>
0

>  <NaaS>
0

>  <NdssS>
0

>  <NddssS>
0

>  <NsCl>
0

>  <NsBr>
0

>  <NsI>
0

>  <fragCpx>
16.04

>  <fMF>
0.19

>  <nHBAcc>
1

>  <nHBDon>
1

>  <Kier1>
14.06

>  <Kier2>
6.07

>  <Lipinski>
1

>  <GhoseFilter>
1

>  <FilterItLogS>
-4.37

>  <VMcGowan>
171.44

>  <LabuteASA>
93.67

>  <PEOE_VSA1>
5.32

>  <PEOE_VSA2>
0

>  <PEOE_VSA3>
0

>  <PEOE_VSA4>
13.17

>  <PEOE_VSA5>
0

>  <PEOE_VSA6>
32.05

>  <PEOE_VSA7>
24.09

>  <PEOE_VSA8>
6.54

>  <PEOE_VSA9>
5.56

>  <PEOE_VSA10>
0

>  <PEOE_VSA11>
0

>  <PEOE_VSA12>
0

>  <PEOE_VSA13>
0

>  <SMR_VSA1>
13.17

>  <SMR_VSA2>
0

>  <SMR_VSA3>
5.32

>  <SMR_VSA4>
0

>  <SMR_VSA5>
25.94

>  <SMR_VSA6>
13.09

>  <SMR_VSA7>
35.39

>  <SMR_VSA8>
0

>  <SMR_VSA9>
0

>  <SlogP_VSA1>
5.32

>  <SlogP_VSA2>
13.09

>  <SlogP_VSA3>
6.18

>  <SlogP_VSA4>
0

>  <SlogP_VSA5>
30.89

>  <SlogP_VSA6>
24.27

>  <SlogP_VSA7>
0

>  <SlogP_VSA8>
0

>  <SlogP_VSA9>
0

>  <SlogP_VSA10>
13.17

>  <SlogP_VSA11>
0

>  <EState_VSA1>
11.74

>  <EState_VSA2>
5.92

>  <EState_VSA3>
6.54

>  <EState_VSA4>
18.17

>  <EState_VSA5>
12.13

>  <EState_VSA6>
6.07

>  <EState_VSA7>
13.85

>  <EState_VSA8>
5.32

>  <EState_VSA9>
0

>  <EState_VSA10>
13.17

>  <VSA_EState1>
37.4

>  <VSA_EState2>
0

>  <VSA_EState3>
3.12

>  <VSA_EState4>
0.14

>  <VSA_EState5>
0.09

>  <VSA_EState6>
5.52

>  <VSA_EState7>
-4.26

>  <VSA_EState8>
5.4

>  <VSA_EState9>
0

>  <apol>
33.48

>  <bpol>
19.96

>  <nRing>
1

>  <nHRing>
0

>  <naRing>
1

>  <naHRing>
0

>  <nARing 2>
0

>  <nAHRing 2>
0

>  <nFRing>
0

>  <nFHRing>
0

>  <nFaRing>
0

>  <nFaHRing>
0

>  <nFARing 2>
0

>  <nFAHRing 2>
0

>  <nRot>
4

>  <SLogP>
3.42

>  <SMR>
58.4

>  <TopoPSA(NO)>
12.03

>  <TopoPSA>
12.03

>  <JGI1>
0.28

>  <JGI2>
0.1

>  <JGI3>
0.05

>  <JGI4>
0.04

>  <JGI5>
0.04

>  <Diameter>
9

>  <Radius>
5

>  <TMWC10>
101.1

>  <TSRW10>
47.92

>  <MW>
231.12

>  <AMW>
7.22

>  <WPath>
463

>  <WPol>
21

>  <Zagreb1>
76

>  <Zagreb2>
84

>  <mZagreb2>
3.61

>  <yes>


>  <nAR-cont>
0.336376

>  <nHA-cont>
0.954961865

>  <MWHBN>
0.131556173

>  <MWHBN-cont>
0.875229321

>  <TPSA-cont>
0.91602313

>  <pka_cont>
0.97

>  <yes.1>


>  <BBB_SCORE>
4.921228107

>  <MMFF94 Energy>
56.665

$$$$
Compound 2981
Actelion Java MolfileCreator 2.0

  0  0  0  0  0  0              0 V3000
M  V30 BEGIN CTAB
M  V30 COUNTS 46 47 0 0 0
M  V30 BEGIN ATOM
M  V30 1 O -2.5434 -1.3505 -4.5339 0
M  V30 2 N -2.0004 -1.4729 -3.4264 0 CHG=1
M  V30 3 O -2.0564 -2.495 -2.7275 0 CHG=-1
M  V30 4 C -1.2398 -0.329 -2.9079 0
M  V30 5 C -0.6081 -0.4231 -1.66 0
M  V30 6 C -1.1529 0.8454 -3.6652 0
M  V30 7 C 0.1218 0.6697 -1.1575 0
M  V30 8 C -0.4297 1.9294 -3.1688 0
M  V30 9 C 0.2021 1.8429 -1.9261 0
M  V30 10 C 0.8243 0.5988 0.2053 0 CFG=1
M  V30 11 C -0.1907 0.4085 1.3258 0
M  V30 12 C 1.9087 -0.472 0.1985 0
M  V30 13 C -0.1453 -0.6613 2.1512 0
M  V30 14 C -1.1879 1.4921 1.4446 0
M  V30 15 C 1.8841 -1.5126 1.0615 0
M  V30 16 C 2.9818 -0.2548 -0.7934 0
M  V30 17 N 0.8505 -1.6109 1.9808 0
M  V30 18 C -1.0793 -0.8892 3.3117 0
M  V30 19 O -0.8918 2.6763 1.4705 0
M  V30 20 O -2.4406 0.9722 1.4364 0
M  V30 21 C 2.9458 -2.5783 1.1515 0
M  V30 22 O 3.562 0.8104 -0.9339 0
M  V30 23 O 3.1493 -1.3668 -1.552 0
M  V30 24 C -3.5098 1.928 1.466 0
M  V30 25 C 4.1192 -1.2168 -2.5883 0
M  V30 26 C -3.8406 2.2981 2.8995 0
M  V30 27 H -0.6777 -1.3385 -1.0729 0
M  V30 28 H -1.6383 0.9318 -4.635 0
M  V30 29 H -0.3559 2.8468 -3.7492 0
M  V30 30 H 0.7618 2.703 -1.5583 0
M  V30 31 H 1.3287 1.5574 0.3966 0
M  V30 32 H 0.8585 -2.4051 2.6165 0
M  V30 33 H -1.8418 -1.6267 3.0419 0
M  V30 34 H -1.5777 0.0251 3.6452 0
M  V30 35 H -0.5261 -1.2707 4.1775 0
M  V30 36 H 3.8947 -2.2764 0.6998 0
M  V30 37 H 2.6005 -3.4952 0.6636 0
M  V30 38 H 3.1646 -2.8107 2.1999 0
M  V30 39 H -4.3779 1.4516 0.9989 0
M  V30 40 H -3.2689 2.8145 0.868 0
M  V30 41 H 4.1829 -2.1632 -3.1321 0
M  V30 42 H 3.8125 -0.4342 -3.2894 0
M  V30 43 H 5.1032 -0.9943 -2.1638 0
M  V30 44 H -4.6919 2.9837 2.9368 0
M  V30 45 H -4.0823 1.4027 3.4815 0
M  V30 46 H -2.9858 2.7748 3.3894 0
M  V30 END ATOM
M  V30 BEGIN BOND
M  V30 1 2 1 2
M  V30 2 1 2 3
M  V30 3 1 2 4
M  V30 4 2 4 5
M  V30 5 1 4 6
M  V30 6 1 5 7
M  V30 7 2 6 8
M  V30 8 2 7 9
M  V30 9 1 7 10
M  V30 10 1 10 11
M  V30 11 1 10 12
M  V30 12 2 11 13
M  V30 13 1 11 14
M  V30 14 2 12 15
M  V30 15 1 12 16
M  V30 16 1 13 17
M  V30 17 1 13 18
M  V30 18 2 14 19
M  V30 19 1 14 20
M  V30 20 1 15 21
M  V30 21 2 16 22
M  V30 22 1 16 23
M  V30 23 1 20 24
M  V30 24 1 23 25
M  V30 25 1 24 26
M  V30 26 1 8 9
M  V30 27 1 15 17
M  V30 28 1 5 27
M  V30 29 1 6 28
M  V30 30 1 8 29
M  V30 31 1 9 30
M  V30 32 1 10 31
M  V30 33 1 17 32
M  V30 34 1 18 33
M  V30 35 1 18 34
M  V30 36 1 18 35
M  V30 37 1 21 36
M  V30 38 1 21 37
M  V30 39 1 21 38
M  V30 40 1 24 39
M  V30 41 1 24 40
M  V30 42 1 25 41
M  V30 43 1 25 42
M  V30 44 1 25 43
M  V30 45 1 26 44
M  V30 46 1 26 45
M  V30 47 1 26 46
M  V30 END BOND
M  V30 BEGIN COLLECTION
M  V30 MDLV30/STEABS ATOMS=(1 10)
M  V30 END COLLECTION
M  V30 END CTAB
M  END
>  <Column 1>
3833

>  <level_0>
7154

>  <index>
7155

>  <Unnamed: 0>
7155

>  <NO.>
7168

>  <Name>
nitrendipine

>  <IUPAC_name>
5-o-ethyl 3-o-methyl (4r)-2-6-dimethyl-4-(3-nitrophenyl)-1-4-dihydropyridine-3-5-dicarboxylate

>  <SMILES>
CCOC(=O)C1=C(C)NC(C)=C(C(=O)OC)[C@H]1c1cccc([N+](=O)[O-])c1

>  <CID>
157704

>  <logBB>


>  <BBB+/BBB->
BBB-

>  <Inchi>
InChI=1S/C18H20N2O6/c1-5-26-18(22)15-11(3)19-10(2)14(17(21)25-4)16(15)12-7-6-8-13(9-12)20(23)24/h6-9-16-19H-5H2-1-4H3/t16-/m1/s1

>  <threshold>


>  <reference>
R27|R30|

>  <group>
C

>  <Class>
1

>  <ABC>
19.42

>  <ABCGG>
17.36

>  <nAcid>
0

>  <nBase>
0

>  <nAromAtom>
6

>  <nAromBond>
6

>  <nAtom>
46

>  <nHeavyAtom>
26

>  <nSpiro>
0

>  <nBridgehead>
0

>  <nHetero>
8

>  <nN>
2

>  <nO>
6

>  <nF>
0

>  <BalabanJ>
2.34

>  <BertzCT>
824.73

>  <nBonds>
47

>  <nBondsO>
27

>  <nBondsS>
36

>  <nBondsD>
5

>  <nBondsT>
0

>  <nBondsA>
6

>  <nBondsM>
11

>  <nBondsKS>
39

>  <nBondsKD>
8

>  <RNCG>
0.18

>  <RPCG>
0.13

>  <FCSP3>
0.33

>  <SZ>
31.67

>  <Sm>
30

>  <Sv>
29.22

>  <Sse>
47.19

>  <Sp>
30.18

>  <Si>
51.99

>  <MZ>
0.69

>  <Mm>
0.65

>  <Mv>
0.64

>  <Mse>
1.03

>  <Mp>
0.66

>  <Mi>
1.13

>  <NsCH3>
4

>  <NdCH2>
0

>  <NssCH2>
1

>  <NtCH>
0

>  <NdsCH>
0

>  <NaaCH>
4

>  <NsssCH>
1

>  <NddC>
0

>  <NtsC>
0

>  <NdssC>
6

>  <NaasC>
2

>  <NaaaC>
0

>  <NssssC>
0

>  <NsNH3>
0

>  <NsNH2>
0

>  <NssNH2>
0

>  <NdNH>
0

>  <NssNH>
1

>  <NaaNH>
0

>  <NtN>
0

>  <NsssNH>
0

>  <NdsN>
0

>  <NaaN>
0

>  <NsssN>
0

>  <NddsN>
1

>  <NaasN>
0

>  <NssssN>
0

>  <NsOH>
0

>  <NdO>
3

>  <NssO>
2

>  <NaaO>
0

>  <NsF>
0

>  <NsSiH3>
0

>  <NssSiH2>
0

>  <NsssSiH>
0

>  <NssssSi>
0

>  <NsPH2>
0

>  <NssPH>
0

>  <NsssP>
0

>  <NdsssP>
0

>  <NsssssP>
0

>  <NsSH>
0

>  <NdS>
0

>  <NssS>
0

>  <NaaS>
0

>  <NdssS>
0

>  <NddssS>
0

>  <NsCl>
0

>  <NsBr>
0

>  <NsI>
0

>  <fragCpx>
79.08

>  <fMF>
0.26

>  <nHBAcc>
7

>  <nHBDon>
1

>  <Kier1>
22.29

>  <Kier2>
9.97

>  <Lipinski>
1

>  <GhoseFilter>
1

>  <FilterItLogS>
-4.23

>  <VMcGowan>
263.54

>  <LabuteASA>
150.18

>  <PEOE_VSA1>
14.79

>  <PEOE_VSA2>
10.11

>  <PEOE_VSA3>
9.59

>  <PEOE_VSA4>
0

>  <PEOE_VSA5>
0

>  <PEOE_VSA6>
12.13

>  <PEOE_VSA7>
26.33

>  <PEOE_VSA8>
23.53

>  <PEOE_VSA9>
35.7

>  <PEOE_VSA10>
0

>  <PEOE_VSA11>
0

>  <PEOE_VSA12>
0

>  <PEOE_VSA13>
5.69

>  <SMR_VSA1>
23.99

>  <SMR_VSA2>
0

>  <SMR_VSA3>
5.32

>  <SMR_VSA4>
0

>  <SMR_VSA5>
26.69

>  <SMR_VSA6>
13.72

>  <SMR_VSA7>
62.48

>  <SMR_VSA8>
0

>  <SMR_VSA9>
0

>  <SlogP_VSA1>
5.32

>  <SlogP_VSA2>
30.58

>  <SlogP_VSA3>
19.06

>  <SlogP_VSA4>
10.11

>  <SlogP_VSA5>
32.25

>  <SlogP_VSA6>
46.81

>  <SlogP_VSA7>
0

>  <SlogP_VSA8>
0

>  <SlogP_VSA9>
0

>  <SlogP_VSA10>
5.69

>  <SlogP_VSA11>
0

>  <EState_VSA1>
22.78

>  <EState_VSA2>
23.44

>  <EState_VSA3>
16.96

>  <EState_VSA4>
0

>  <EState_VSA5>
25.31

>  <EState_VSA6>
26.84

>  <EState_VSA7>
0

>  <EState_VSA8>
5.32

>  <EState_VSA9>
9.47

>  <EState_VSA10>
19.7

>  <VSA_EState1>
10

>  <VSA_EState2>
35.54

>  <VSA_EState3>
14.13

>  <VSA_EState4>
1.76

>  <VSA_EState5>
-2.05

>  <VSA_EState6>
5.84

>  <VSA_EState7>
0

>  <VSA_EState8>
5.21

>  <VSA_EState9>
1.24

>  <apol>
50.41

>  <bpol>
27.01

>  <nRing>
2

>  <nHRing>
1

>  <naRing>
1

>  <naHRing>
0

>  <nARing 2>
1

>  <nAHRing 2>
1

>  <nFRing>
0

>  <nFHRing>
0

>  <nFaRing>
0

>  <nFaHRing>
0

>  <nFARing 2>
0

>  <nFAHRing 2>
0

>  <nRot>
5

>  <SLogP>
2.57

>  <SMR>
93.02

>  <TopoPSA(NO)>
107.77

>  <TopoPSA>
107.77

>  <JGI1>
0.2

>  <JGI2>
0.09

>  <JGI3>
0.06

>  <JGI4>
0.05

>  <JGI5>
0.03

>  <Diameter>
10

>  <Radius>
5

>  <TMWC10>
129.06

>  <TSRW10>
60.93

>  <MW>
360.13

>  <AMW>
7.83

>  <WPath>
1491

>  <WPol>
45

>  <Zagreb1>
130

>  <Zagreb2>
154

>  <mZagreb2>
5.97

>  <yes>


>  <nAR-cont>
0.816016

>  <nHA-cont>
0.892715677

>  <MWHBN>
0.421560913

>  <MWHBN-cont>
0.39194738

>  <TPSA-cont>
0.247698479

>  <pka_cont>
0.97

>  <yes.1>


>  <BBB_SCORE>
3.277049705

>  <MMFF94 Energy>
41.844

$$$$
Compound 2982
Actelion Java MolfileCreator 2.0

  0  0  0  0  0  0              0 V3000
M  V30 BEGIN CTAB
M  V30 COUNTS 52 53 0 0 0
M  V30 BEGIN ATOM
M  V30 1 S 4.9761 6.0219 -0.5608 0
M  V30 2 O 4.186 6.1769 0.6443 0
M  V30 3 O 5.8463 7.0874 -1.0198 0
M  V30 4 O 5.8554 4.6421 -0.5057 0
M  V30 5 C 3.8862 5.6058 -1.9078 0
M  V30 6 C 5.276 3.4402 -0.1977 0
M  V30 7 C 4.6384 3.205 1.0171 0
M  V30 8 C 5.4092 2.4125 -1.1306 0
M  V30 9 C 4.0893 1.9481 1.2806 0
M  V30 10 C 4.8604 1.1563 -0.8675 0
M  V30 11 C 4.1949 0.9138 0.3411 0
M  V30 12 C 3.5868 -0.4365 0.6214 0
M  V30 13 C 2.1262 -0.5134 0.1782 0
M  V30 14 O 1.6462 -1.8273 0.4685 0
M  V30 15 C 0.3498 -2.1035 0.1312 0
M  V30 16 C -0.5551 -1.2164 -0.4502 0
M  V30 17 C -0.0622 -3.4067 0.4177 0
M  V30 18 C -1.8581 -1.6331 -0.744 0
M  V30 19 C -1.3627 -3.8255 0.1263 0
M  V30 20 C -2.2724 -2.9408 -0.4628 0
M  V30 21 C -3.689 -3.3808 -0.7643 0
M  V30 22 C -4.6754 -2.9467 0.3314 0 CFG=1
M  V30 23 O -4.9635 -1.5558 0.1389 0
M  V30 24 C -5.9263 -3.8261 0.2358 0
M  V30 25 C -5.5335 -0.943 1.2933 0
M  V30 26 O -7.0586 -3.4821 -0.0635 0
M  V30 27 O -5.6876 -5.1138 0.5703 0
M  V30 28 C -5.8088 0.5123 0.9701 0
M  V30 29 H 3.2225 4.7946 -1.6051 0
M  V30 30 H 3.2939 6.4931 -2.1433 0
M  V30 31 H 4.4868 5.3222 -2.7741 0
M  V30 32 H 4.5706 3.9805 1.7761 0
M  V30 33 H 5.9413 2.5825 -2.063 0
M  V30 34 H 3.588 1.7789 2.232 0
M  V30 35 H 4.9646 0.3644 -1.6067 0
M  V30 36 H 3.6649 -0.668 1.6918 0
M  V30 37 H 4.1694 -1.2223 0.1233 0
M  V30 38 H 1.535 0.2316 0.7254 0
M  V30 39 H 2.0575 -0.318 -0.8994 0
M  V30 40 H -0.2858 -0.1926 -0.6861 0
M  V30 41 H 0.6369 -4.1037 0.8733 0
M  V30 42 H -2.5556 -0.925 -1.1893 0
M  V30 43 H -1.6553 -4.8459 0.3629 0
M  V30 44 H -3.6915 -4.4699 -0.8968 0
M  V30 45 H -3.9869 -2.9602 -1.7342 0
M  V30 46 H -4.2391 -3.0929 1.3284 0
M  V30 47 H -4.8291 -1.0079 2.1298 0
M  V30 48 H -6.4667 -1.4429 1.5716 0
M  V30 49 H -6.5656 -5.543 0.4814 0
M  V30 50 H -6.2422 1.0284 1.8315 0
M  V30 51 H -4.8854 1.024 0.6791 0
M  V30 52 H -6.4992 0.5951 0.1242 0
M  V30 END ATOM
M  V30 BEGIN BOND
M  V30 1 2 1 2
M  V30 2 2 1 3
M  V30 3 1 1 4
M  V30 4 1 1 5
M  V30 5 1 4 6
M  V30 6 2 6 7
M  V30 7 1 6 8
M  V30 8 1 7 9
M  V30 9 2 8 10
M  V30 10 2 9 11
M  V30 11 1 11 12
M  V30 12 1 12 13
M  V30 13 1 13 14
M  V30 14 1 14 15
M  V30 15 2 15 16
M  V30 16 1 15 17
M  V30 17 1 16 18
M  V30 18 2 17 19
M  V30 19 2 18 20
M  V30 20 1 20 21
M  V30 21 1 21 22
M  V30 22 1 22 23
M  V30 23 1 22 24
M  V30 24 1 23 25
M  V30 25 2 24 26
M  V30 26 1 24 27
M  V30 27 1 25 28
M  V30 28 1 10 11
M  V30 29 1 19 20
M  V30 30 1 5 29
M  V30 31 1 5 30
M  V30 32 1 5 31
M  V30 33 1 7 32
M  V30 34 1 8 33
M  V30 35 1 9 34
M  V30 36 1 10 35
M  V30 37 1 12 36
M  V30 38 1 12 37
M  V30 39 1 13 38
M  V30 40 1 13 39
M  V30 41 1 16 40
M  V30 42 1 17 41
M  V30 43 1 18 42
M  V30 44 1 19 43
M  V30 45 1 21 44
M  V30 46 1 21 45
M  V30 47 1 22 46
M  V30 48 1 25 47
M  V30 49 1 25 48
M  V30 50 1 27 49
M  V30 51 1 28 50
M  V30 52 1 28 51
M  V30 53 1 28 52
M  V30 END BOND
M  V30 BEGIN COLLECTION
M  V30 MDLV30/STEABS ATOMS=(1 22)
M  V30 END COLLECTION
M  V30 END CTAB
M  END
>  <Column 1>
3834

>  <level_0>
7167

>  <index>
7168

>  <Unnamed: 0>
7168

>  <NO.>
7181

>  <Name>
dsstox_cid_28699

>  <IUPAC_name>
(2r)-2-ethoxy-3-[4-[2-(4-methylsulfonyloxyphenyl)ethoxy]phenyl]propanoic acid

>  <SMILES>
CCO[C@H](Cc1ccc(OCCc2ccc(OS(C)(=O)=O)cc2)cc1)C(=O)O

>  <CID>
57823090

>  <logBB>


>  <BBB+/BBB->
BBB+

>  <Inchi>
InChI=1S/C20H24O7S/c1-3-25-19(20(21)22)14-16-6-8-17(9-7-16)26-13-12-15-4-10-18(11-5-15)27-28(2-23)24/h4-11-19H-3-12-14H2-1-2H3-(H-21-22)/t19-/m1/s1

>  <threshold>


>  <reference>
R27|

>  <group>
C

>  <Class>
1

>  <ABC>
21.16

>  <ABCGG>
15.72

>  <nAcid>
1

>  <nBase>
0

>  <nAromAtom>
12

>  <nAromBond>
12

>  <nAtom>
52

>  <nHeavyAtom>
28

>  <nSpiro>
0

>  <nBridgehead>
0

>  <nHetero>
8

>  <nN>
0

>  <nO>
7

>  <nF>
0

>  <BalabanJ>
1.56

>  <BertzCT>
858.43

>  <nBonds>
53

>  <nBondsO>
29

>  <nBondsS>
38

>  <nBondsD>
3

>  <nBondsT>
0

>  <nBondsA>
12

>  <nBondsM>
15

>  <nBondsKS>
44

>  <nBondsKD>
9

>  <RNCG>
0.18

>  <RPCG>
0.12

>  <FCSP3>
0.35

>  <SZ>
36

>  <Sm>
34.01

>  <Sv>
32.69

>  <Sse>
53.05

>  <Sp>
34.68

>  <Si>
58.37

>  <MZ>
0.69

>  <Mm>
0.65

>  <Mv>
0.63

>  <Mse>
1.02

>  <Mp>
0.67

>  <Mi>
1.12

>  <NsCH3>
2

>  <NdCH2>
0

>  <NssCH2>
4

>  <NtCH>
0

>  <NdsCH>
0

>  <NaaCH>
8

>  <NsssCH>
1

>  <NddC>
0

>  <NtsC>
0

>  <NdssC>
1

>  <NaasC>
4

>  <NaaaC>
0

>  <NssssC>
0

>  <NsNH3>
0

>  <NsNH2>
0

>  <NssNH2>
0

>  <NdNH>
0

>  <NssNH>
0

>  <NaaNH>
0

>  <NtN>
0

>  <NsssNH>
0

>  <NdsN>
0

>  <NaaN>
0

>  <NsssN>
0

>  <NddsN>
0

>  <NaasN>
0

>  <NssssN>
0

>  <NsOH>
1

>  <NdO>
3

>  <NssO>
3

>  <NaaO>
0

>  <NsF>
0

>  <NsSiH3>
0

>  <NssSiH2>
0

>  <NsssSiH>
0

>  <NssssSi>
0

>  <NsPH2>
0

>  <NssPH>
0

>  <NsssP>
0

>  <NdsssP>
0

>  <NsssssP>
0

>  <NsSH>
0

>  <NdS>
0

>  <NssS>
0

>  <NaaS>
0

>  <NdssS>
0

>  <NddssS>
1

>  <NsCl>
0

>  <NsBr>
0

>  <NsI>
0

>  <fragCpx>
85.08

>  <fMF>
0.29

>  <nHBAcc>
6

>  <nHBDon>
1

>  <Kier1>
24.27

>  <Kier2>
12

>  <Lipinski>
1

>  <GhoseFilter>
1

>  <FilterItLogS>
-4.58

>  <VMcGowan>
298.28

>  <LabuteASA>
164.54

>  <PEOE_VSA1>
18.76

>  <PEOE_VSA2>
0

>  <PEOE_VSA3>
4.79

>  <PEOE_VSA4>
8.42

>  <PEOE_VSA5>
0

>  <PEOE_VSA6>
24.27

>  <PEOE_VSA7>
42.32

>  <PEOE_VSA8>
19.45

>  <PEOE_VSA9>
12.86

>  <PEOE_VSA10>
11.5

>  <PEOE_VSA11>
6.1

>  <PEOE_VSA12>
0

>  <PEOE_VSA13>
0

>  <SMR_VSA1>
31.98

>  <SMR_VSA2>
0

>  <SMR_VSA3>
0

>  <SMR_VSA4>
0

>  <SMR_VSA5>
25.87

>  <SMR_VSA6>
19.47

>  <SMR_VSA7>
59.66

>  <SMR_VSA8>
0

>  <SMR_VSA9>
11.5

>  <SlogP_VSA1>
8.92

>  <SlogP_VSA2>
45.07

>  <SlogP_VSA3>
32.49

>  <SlogP_VSA4>
0

>  <SlogP_VSA5>
18.05

>  <SlogP_VSA6>
48.53

>  <SlogP_VSA7>
0

>  <SlogP_VSA8>
0

>  <SlogP_VSA9>
0

>  <SlogP_VSA10>
0

>  <SlogP_VSA11>
11.5

>  <EState_VSA1>
22.19

>  <EState_VSA2>
5.75

>  <EState_VSA3>
31.8

>  <EState_VSA4>
17.38

>  <EState_VSA5>
0

>  <EState_VSA6>
43.32

>  <EState_VSA7>
12.13

>  <EState_VSA8>
0

>  <EState_VSA9>
18.76

>  <EState_VSA10>
13.21

>  <VSA_EState1>
37.88

>  <VSA_EState2>
11.14

>  <VSA_EState3>
9.13

>  <VSA_EState4>
1.84

>  <VSA_EState5>
-0.02

>  <VSA_EState6>
14

>  <VSA_EState7>
1.09

>  <VSA_EState8>
2.56

>  <VSA_EState9>
-3.53

>  <apol>
57.92

>  <bpol>
36.81

>  <nRing>
2

>  <nHRing>
0

>  <naRing>
2

>  <naHRing>
0

>  <nARing 2>
0

>  <nAHRing 2>
0

>  <nFRing>
0

>  <nFHRing>
0

>  <nFaRing>
0

>  <nFaHRing>
0

>  <nFARing 2>
0

>  <nFAHRing 2>
0

>  <nRot>
11

>  <SLogP>
2.68

>  <SMR>
104.31

>  <TopoPSA(NO)>
99.13

>  <TopoPSA>
107.51

>  <JGI1>
0.26

>  <JGI2>
0.06

>  <JGI3>
0.04

>  <JGI4>
0.04

>  <JGI5>
0.02

>  <Diameter>
18

>  <Radius>
9

>  <TMWC10>
130.72

>  <TSRW10>
62.55

>  <MW>
408.12

>  <AMW>
7.85

>  <WPath>
2693

>  <WPol>
36

>  <Zagreb1>
136

>  <Zagreb2>
149

>  <mZagreb2>
6.24

>  <yes>


>  <nAR-cont>
0.336376

>  <nHA-cont>
0.82432561

>  <MWHBN>
0.346500688

>  <MWHBN-cont>
0.683276116

>  <TPSA-cont>
0.24951344

>  <pka_cont>
0.97

>  <yes.1>


>  <BBB_SCORE>
3.169642665

>  <MMFF94 Energy>
74.086

$$$$
Compound 2983
Actelion Java MolfileCreator 2.0

  0  0  0  0  0  0              0 V3000
M  V30 BEGIN CTAB
M  V30 COUNTS 36 37 0 0 0
M  V30 BEGIN ATOM
M  V30 1 O -0.4729 -3.5516 0.3941 0
M  V30 2 C -0.2708 -2.1314 0.2831 0
M  V30 3 C 0.3385 -4.233 -0.5721 0
M  V30 4 C 1.2081 -1.7664 0.5349 0 CFG=1
M  V30 5 C 1.8264 -3.9228 -0.3562 0
M  V30 6 N 2.1023 -2.4795 -0.415 0
M  V30 7 C 1.4154 -0.2401 0.4836 0
M  V30 8 O 0.9559 0.2865 -0.7683 0
M  V30 9 C 0.7343 1.6371 -0.6755 0
M  V30 10 C -0.453 2.1461 -0.1257 0
M  V30 11 C 1.6964 2.4847 -1.2253 0
M  V30 12 O -1.3441 1.2229 0.3545 0
M  V30 13 C -0.6349 3.531 -0.0928 0
M  V30 14 C 1.5011 3.8629 -1.1918 0
M  V30 15 C -2.6465 1.6887 0.6986 0
M  V30 16 C 0.3401 4.3847 -0.6221 0
M  V30 17 C -3.4941 0.4801 1.053 0
M  V30 18 H -0.6196 -1.8 -0.7024 0
M  V30 19 H -0.9074 -1.6575 1.0376 0
M  V30 20 H 0.0143 -3.9523 -1.5813 0
M  V30 21 H 0.1628 -5.3067 -0.4526 0
M  V30 22 H 1.4811 -2.1051 1.5436 0
M  V30 23 H 2.4222 -4.4338 -1.1192 0
M  V30 24 H 2.1411 -4.3046 0.6225 0
M  V30 25 H 3.0747 -2.3028 -0.1705 0
M  V30 26 H 0.8833 0.2084 1.333 0
M  V30 27 H 2.481 -0.0026 0.5971 0
M  V30 28 H 2.5904 2.0675 -1.6793 0
M  V30 29 H -1.5235 3.9806 0.337 0
M  V30 30 H 2.2491 4.5286 -1.6139 0
M  V30 31 H -3.105 2.2118 -0.1486 0
M  V30 32 H -2.592 2.3538 1.5678 0
M  V30 33 H 0.1878 5.4611 -0.5957 0
M  V30 34 H -4.5094 0.7818 1.3253 0
M  V30 35 H -3.5455 -0.2154 0.2089 0
M  V30 36 H -3.0515 -0.0684 1.891 0
M  V30 END ATOM
M  V30 BEGIN BOND
M  V30 1 1 1 2
M  V30 2 1 1 3
M  V30 3 1 2 4
M  V30 4 1 3 5
M  V30 5 1 4 6
M  V30 6 1 4 7
M  V30 7 1 7 8
M  V30 8 1 8 9
M  V30 9 2 9 10
M  V30 10 1 9 11
M  V30 11 1 10 12
M  V30 12 1 10 13
M  V30 13 2 11 14
M  V30 14 1 12 15
M  V30 15 2 13 16
M  V30 16 1 15 17
M  V30 17 1 5 6
M  V30 18 1 14 16
M  V30 19 1 2 18
M  V30 20 1 2 19
M  V30 21 1 3 20
M  V30 22 1 3 21
M  V30 23 1 4 22
M  V30 24 1 5 23
M  V30 25 1 5 24
M  V30 26 1 6 25
M  V30 27 1 7 26
M  V30 28 1 7 27
M  V30 29 1 11 28
M  V30 30 1 13 29
M  V30 31 1 14 30
M  V30 32 1 15 31
M  V30 33 1 15 32
M  V30 34 1 16 33
M  V30 35 1 17 34
M  V30 36 1 17 35
M  V30 37 1 17 36
M  V30 END BOND
M  V30 BEGIN COLLECTION
M  V30 MDLV30/STEABS ATOMS=(1 4)
M  V30 END COLLECTION
M  V30 END CTAB
M  END
>  <Column 1>
3835

>  <level_0>
7172

>  <index>
7173

>  <Unnamed: 0>
7173

>  <NO.>
7186

>  <Name>
(3r)-3-[(2-ethoxyphenoxy)methyl]morpholine

>  <IUPAC_name>
(3r)-3-[(2-ethoxyphenoxy)methyl]morpholine

>  <SMILES>
CCOc1ccccc1OC[C@H]1COCCN1

>  <CID>
95453132

>  <logBB>


>  <BBB+/BBB->
BBB+

>  <Inchi>
InChI=1S/C13H19NO3/c1-2-16-12-5-3-4-6-13(12)17-10-11-9-15-8-7-14-11/h3-6-11-14H-2-7-10H2-1H3/t11-/m1/s1

>  <threshold>


>  <reference>
R27|

>  <group>
C

>  <Class>
1

>  <ABC>
12.69

>  <ABCGG>
10.6

>  <nAcid>
0

>  <nBase>
1

>  <nAromAtom>
6

>  <nAromBond>
6

>  <nAtom>
36

>  <nHeavyAtom>
17

>  <nSpiro>
0

>  <nBridgehead>
0

>  <nHetero>
4

>  <nN>
1

>  <nO>
3

>  <nF>
0

>  <BalabanJ>
1.71

>  <BertzCT>
337.19

>  <nBonds>
37

>  <nBondsO>
18

>  <nBondsS>
31

>  <nBondsD>
0

>  <nBondsT>
0

>  <nBondsA>
6

>  <nBondsM>
6

>  <nBondsKS>
34

>  <nBondsKD>
3

>  <RNCG>
0.27

>  <RPCG>
0.09

>  <FCSP3>
0.54

>  <SZ>
21.33

>  <Sm>
19.76

>  <Sv>
21.05

>  <Sse>
36.09

>  <Sp>
22.69

>  <Si>
40.86

>  <MZ>
0.59

>  <Mm>
0.55

>  <Mv>
0.58

>  <Mse>
1

>  <Mp>
0.63

>  <Mi>
1.14

>  <NsCH3>
1

>  <NdCH2>
0

>  <NssCH2>
5

>  <NtCH>
0

>  <NdsCH>
0

>  <NaaCH>
4

>  <NsssCH>
1

>  <NddC>
0

>  <NtsC>
0

>  <NdssC>
0

>  <NaasC>
2

>  <NaaaC>
0

>  <NssssC>
0

>  <NsNH3>
0

>  <NsNH2>
0

>  <NssNH2>
0

>  <NdNH>
0

>  <NssNH>
1

>  <NaaNH>
0

>  <NtN>
0

>  <NsssNH>
0

>  <NdsN>
0

>  <NaaN>
0

>  <NsssN>
0

>  <NddsN>
0

>  <NaasN>
0

>  <NssssN>
0

>  <NsOH>
0

>  <NdO>
0

>  <NssO>
3

>  <NaaO>
0

>  <NsF>
0

>  <NsSiH3>
0

>  <NssSiH2>
0

>  <NsssSiH>
0

>  <NssssSi>
0

>  <NsPH2>
0

>  <NssPH>
0

>  <NsssP>
0

>  <NdsssP>
0

>  <NsssssP>
0

>  <NsSH>
0

>  <NdS>
0

>  <NssS>
0

>  <NaaS>
0

>  <NdssS>
0

>  <NddssS>
0

>  <NsCl>
0

>  <NsBr>
0

>  <NsI>
0

>  <fragCpx>
52.04

>  <fMF>
0.39

>  <nHBAcc>
4

>  <nHBDon>
1

>  <Kier1>
13.43

>  <Kier2>
7.44

>  <Lipinski>
1

>  <GhoseFilter>
1

>  <FilterItLogS>
-3.15

>  <VMcGowan>
187

>  <LabuteASA>
101.87

>  <PEOE_VSA1>
19.53

>  <PEOE_VSA2>
0

>  <PEOE_VSA3>
0

>  <PEOE_VSA4>
0

>  <PEOE_VSA5>
0

>  <PEOE_VSA6>
12.13

>  <PEOE_VSA7>
19.06

>  <PEOE_VSA8>
6.54

>  <PEOE_VSA9>
25.86

>  <PEOE_VSA10>
6.61

>  <PEOE_VSA11>
11.5

>  <PEOE_VSA12>
0

>  <PEOE_VSA13>
0

>  <SMR_VSA1>
14.21

>  <SMR_VSA2>
0

>  <SMR_VSA3>
5.32

>  <SMR_VSA4>
0

>  <SMR_VSA5>
12.97

>  <SMR_VSA6>
32.97

>  <SMR_VSA7>
24.27

>  <SMR_VSA8>
0

>  <SMR_VSA9>
11.5

>  <SlogP_VSA1>
14.79

>  <SlogP_VSA2>
39.01

>  <SlogP_VSA3>
4.74

>  <SlogP_VSA4>
0

>  <SlogP_VSA5>
6.92

>  <SlogP_VSA6>
24.27

>  <SlogP_VSA7>
0

>  <SlogP_VSA8>
0

>  <SlogP_VSA9>
0

>  <SlogP_VSA10>
0

>  <SlogP_VSA11>
11.5

>  <EState_VSA1>
0

>  <EState_VSA2>
6.04

>  <EState_VSA3>
19.82

>  <EState_VSA4>
24.65

>  <EState_VSA5>
0

>  <EState_VSA6>
0

>  <EState_VSA7>
31.19

>  <EState_VSA8>
5.32

>  <EState_VSA9>
14.21

>  <EState_VSA10>
0

>  <VSA_EState1>
16.64

>  <VSA_EState2>
0

>  <VSA_EState3>
3.35

>  <VSA_EState4>
0

>  <VSA_EState5>
1.59

>  <VSA_EState6>
8

>  <VSA_EState7>
0

>  <VSA_EState8>
5.59

>  <VSA_EState9>
0

>  <apol>
37.89

>  <bpol>
24.84

>  <nRing>
2

>  <nHRing>
1

>  <naRing>
1

>  <naHRing>
0

>  <nARing 2>
1

>  <nAHRing 2>
1

>  <nFRing>
0

>  <nFHRing>
0

>  <nFaRing>
0

>  <nFaHRing>
0

>  <nFARing 2>
0

>  <nFAHRing 2>
0

>  <nRot>
5

>  <SLogP>
1.45

>  <SMR>
65.72

>  <TopoPSA(NO)>
39.72

>  <TopoPSA>
39.72

>  <JGI1>
0.11

>  <JGI2>
0.06

>  <JGI3>
0.02

>  <JGI4>
0.03

>  <JGI5>
0.02

>  <Diameter>
10

>  <Radius>
5

>  <TMWC10>
103.73

>  <TSRW10>
48.84

>  <MW>
237.14

>  <AMW>
6.59

>  <WPath>
572

>  <WPol>
21

>  <Zagreb1>
80

>  <Zagreb2>
89

>  <mZagreb2>
4.03

>  <yes>


>  <nAR-cont>
0.816016

>  <nHA-cont>
0.976740822

>  <MWHBN>
0.324689016

>  <MWHBN-cont>
0.761258644

>  <TPSA-cont>
0.722729735

>  <pka_cont>
0.97

>  <yes.1>


>  <BBB_SCORE>
4.865104258

>  <MMFF94 Energy>
111.87

$$$$
Compound 2984
Actelion Java MolfileCreator 2.0

  0  0  0  0  0  0              0 V3000
M  V30 BEGIN CTAB
M  V30 COUNTS 39 41 0 0 0
M  V30 BEGIN ATOM
M  V30 1 O 2.316 -1.3571 -1.9164 0
M  V30 2 C 1.8953 -0.2465 -2.1845 0
M  V30 3 N 1.049 0.6109 -1.4737 0
M  V30 4 C 2.2505 0.4433 -3.4312 0
M  V30 5 C 0.4221 0.3313 -0.2321 0
M  V30 6 C 0.8465 1.867 -2.1826 0
M  V30 7 C 1.6275 1.6864 -3.4396 0
M  V30 8 C 3.0517 0.0046 -4.4691 0
M  V30 9 C 0.3093 -0.975 0.2519 0
M  V30 10 C -0.1279 1.3614 0.5416 0
M  V30 11 C 1.7932 2.5457 -4.5118 0
M  V30 12 C 3.2244 0.8639 -5.555 0
M  V30 13 C -0.325 -1.2473 1.472 0
M  V30 14 C -0.7627 1.0919 1.7614 0
M  V30 15 C 2.5993 2.1245 -5.5756 0
M  V30 16 C -0.8647 -0.2178 2.2503 0
M  V30 17 C -1.5934 -0.4701 3.5655 0 CFG=2
M  V30 18 C -0.9388 -1.4824 4.4988 0
M  V30 19 C -3.0918 -0.7645 3.3458 0
M  V30 20 O 0.0729 -2.1393 4.3221 0
M  V30 21 O -1.591 -1.5906 5.679 0
M  V30 22 C -3.3969 -2.1031 2.6838 0
M  V30 23 H 1.2569 2.6963 -1.598 0
M  V30 24 H -0.2185 2.0057 -2.3929 0
M  V30 25 H 3.5241 -0.9715 -4.4337 0
M  V30 26 H 0.7022 -1.8197 -0.3075 0
M  V30 27 H -0.072 2.3985 0.2267 0
M  V30 28 H 1.3163 3.5206 -4.5348 0
M  V30 29 H 3.847 0.5572 -6.3926 0
M  V30 30 H -0.3835 -2.2843 1.7976 0
M  V30 31 H -1.1783 1.9236 2.3275 0
M  V30 32 H 2.7474 2.7796 -6.432 0
M  V30 33 H -1.5304 0.4727 4.1304 0
M  V30 34 H -3.5413 0.0342 2.7422 0
M  V30 35 H -3.6092 -0.7429 4.3132 0
M  V30 36 H -1.0542 -2.2431 6.177 0
M  V30 37 H -4.48 -2.2619 2.6512 0
M  V30 38 H -2.9548 -2.9366 3.2374 0
M  V30 39 H -3.0327 -2.1354 1.6535 0
M  V30 END ATOM
M  V30 BEGIN BOND
M  V30 1 2 1 2
M  V30 2 1 2 3
M  V30 3 1 2 4
M  V30 4 1 3 5
M  V30 5 1 3 6
M  V30 6 2 4 7
M  V30 7 1 4 8
M  V30 8 2 5 9
M  V30 9 1 5 10
M  V30 10 1 7 11
M  V30 11 2 8 12
M  V30 12 1 9 13
M  V30 13 2 10 14
M  V30 14 2 11 15
M  V30 15 2 13 16
M  V30 16 1 16 17
M  V30 17 1 17 18
M  V30 18 1 17 19
M  V30 19 2 18 20
M  V30 20 1 18 21
M  V30 21 1 19 22
M  V30 22 1 6 7
M  V30 23 1 12 15
M  V30 24 1 14 16
M  V30 25 1 6 23
M  V30 26 1 6 24
M  V30 27 1 8 25
M  V30 28 1 9 26
M  V30 29 1 10 27
M  V30 30 1 11 28
M  V30 31 1 12 29
M  V30 32 1 13 30
M  V30 33 1 14 31
M  V30 34 1 15 32
M  V30 35 1 17 33
M  V30 36 1 19 34
M  V30 37 1 19 35
M  V30 38 1 21 36
M  V30 39 1 22 37
M  V30 40 1 22 38
M  V30 41 1 22 39
M  V30 END BOND
M  V30 BEGIN COLLECTION
M  V30 MDLV30/STEABS ATOMS=(1 17)
M  V30 END COLLECTION
M  V30 END CTAB
M  END
>  <Column 1>
3836

>  <level_0>
7175

>  <index>
7176

>  <Unnamed: 0>
7176

>  <NO.>
7189

>  <Name>
benzeneaceticacid;4-(1-3-dihydro-1-oxo-2h-isoindol-2-yl)-a-ethyl-

>  <IUPAC_name>
(2r)-2-[4-(3-oxo-1h-isoindol-2-yl)phenyl]butanoic acid

>  <SMILES>
CC[C@@H](C(=O)O)c1ccc(N2Cc3ccccc3C2=O)cc1

>  <CID>
189556

>  <logBB>


>  <BBB+/BBB->
BBB+

>  <Inchi>
InChI=1S/C18H17NO3/c1-2-15(18(21)22)12-7-9-14(10-8-12)19-11-13-5-3-4-6-16(13)17(19)20/h3-10-15H-2-11H2-1H3-(H-21-22)/t15-/m1/s1

>  <threshold>


>  <reference>
R27|

>  <group>
C

>  <Class>
1

>  <ABC>
17.06

>  <ABCGG>
14.05

>  <nAcid>
1

>  <nBase>
0

>  <nAromAtom>
12

>  <nAromBond>
12

>  <nAtom>
39

>  <nHeavyAtom>
22

>  <nSpiro>
0

>  <nBridgehead>
0

>  <nHetero>
4

>  <nN>
1

>  <nO>
3

>  <nF>
0

>  <BalabanJ>
1.55

>  <BertzCT>
721.37

>  <nBonds>
41

>  <nBondsO>
24

>  <nBondsS>
27

>  <nBondsD>
2

>  <nBondsT>
0

>  <nBondsA>
12

>  <nBondsM>
14

>  <nBondsKS>
33

>  <nBondsKD>
8

>  <RNCG>
0.26

>  <RPCG>
0.17

>  <FCSP3>
0.22

>  <SZ>
26

>  <Sm>
24.59

>  <Sv>
25.51

>  <Sse>
39.2

>  <Sp>
26.89

>  <Si>
43.45

>  <MZ>
0.67

>  <Mm>
0.63

>  <Mv>
0.65

>  <Mse>
1.01

>  <Mp>
0.69

>  <Mi>
1.11

>  <NsCH3>
1

>  <NdCH2>
0

>  <NssCH2>
2

>  <NtCH>
0

>  <NdsCH>
0

>  <NaaCH>
8

>  <NsssCH>
1

>  <NddC>
0

>  <NtsC>
0

>  <NdssC>
2

>  <NaasC>
4

>  <NaaaC>
0

>  <NssssC>
0

>  <NsNH3>
0

>  <NsNH2>
0

>  <NssNH2>
0

>  <NdNH>
0

>  <NssNH>
0

>  <NaaNH>
0

>  <NtN>
0

>  <NsssNH>
0

>  <NdsN>
0

>  <NaaN>
0

>  <NsssN>
1

>  <NddsN>
0

>  <NaasN>
0

>  <NssssN>
0

>  <NsOH>
1

>  <NdO>
2

>  <NssO>
0

>  <NaaO>
0

>  <NsF>
0

>  <NsSiH3>
0

>  <NssSiH2>
0

>  <NsssSiH>
0

>  <NssssSi>
0

>  <NsPH2>
0

>  <NssPH>
0

>  <NsssP>
0

>  <NdsssP>
0

>  <NsssssP>
0

>  <NsSH>
0

>  <NdS>
0

>  <NssS>
0

>  <NaaS>
0

>  <NdssS>
0

>  <NddssS>
0

>  <NsCl>
0

>  <NsBr>
0

>  <NsI>
0

>  <fragCpx>
114.04

>  <fMF>
0.38

>  <nHBAcc>
2

>  <nHBDon>
1

>  <Kier1>
16.84

>  <Kier2>
7.27

>  <Lipinski>
1

>  <GhoseFilter>
1

>  <FilterItLogS>
-3.69

>  <VMcGowan>
225.09

>  <LabuteASA>
128.55

>  <PEOE_VSA1>
10.01

>  <PEOE_VSA2>
9.59

>  <PEOE_VSA3>
0

>  <PEOE_VSA4>
0

>  <PEOE_VSA5>
0

>  <PEOE_VSA6>
37.26

>  <PEOE_VSA7>
35.75

>  <PEOE_VSA8>
11.25

>  <PEOE_VSA9>
12.46

>  <PEOE_VSA10>
0

>  <PEOE_VSA11>
0

>  <PEOE_VSA12>
0

>  <PEOE_VSA13>
5.91

>  <SMR_VSA1>
14.7

>  <SMR_VSA2>
0

>  <SMR_VSA3>
0

>  <SMR_VSA4>
0

>  <SMR_VSA5>
25.81

>  <SMR_VSA6>
4.9

>  <SMR_VSA7>
65.22

>  <SMR_VSA8>
0

>  <SMR_VSA9>
0

>  <SlogP_VSA1>
4.9

>  <SlogP_VSA2>
16.98

>  <SlogP_VSA3>
11.34

>  <SlogP_VSA4>
0

>  <SlogP_VSA5>
40.75

>  <SlogP_VSA6>
48.53

>  <SlogP_VSA7>
0

>  <SlogP_VSA8>
0

>  <SlogP_VSA9>
0

>  <SlogP_VSA10>
5.69

>  <SlogP_VSA11>
0

>  <EState_VSA1>
11.89

>  <EState_VSA2>
5.91

>  <EState_VSA3>
12.97

>  <EState_VSA4>
22.38

>  <EState_VSA5>
0

>  <EState_VSA6>
17.03

>  <EState_VSA7>
43.32

>  <EState_VSA8>
0

>  <EState_VSA9>
0

>  <EState_VSA10>
14.7

>  <VSA_EState1>
0

>  <VSA_EState2>
25.34

>  <VSA_EState3>
9.2

>  <VSA_EState4>
3.32

>  <VSA_EState5>
-1.32

>  <VSA_EState6>
14.83

>  <VSA_EState7>
0.54

>  <VSA_EState8>
2.41

>  <VSA_EState9>
0

>  <apol>
44.9

>  <bpol>
20.5

>  <nRing>
3

>  <nHRing>
1

>  <naRing>
2

>  <naHRing>
0

>  <nARing 2>
1

>  <nAHRing 2>
1

>  <nFRing>
1

>  <nFHRing>
1

>  <nFaRing>
0

>  <nFaHRing>
0

>  <nFARing 2>
1

>  <nFAHRing 2>
1

>  <nRot>
4

>  <SLogP>
3.43

>  <SMR>
84.07

>  <TopoPSA(NO)>
57.61

>  <TopoPSA>
57.61

>  <JGI1>
0.17

>  <JGI2>
0.09

>  <JGI3>
0.06

>  <JGI4>
0.04

>  <JGI5>
0.03

>  <Diameter>
11

>  <Radius>
6

>  <TMWC10>
120.77

>  <TSRW10>
70.57

>  <MW>
295.12

>  <AMW>
7.57

>  <WPath>
1097

>  <WPol>
36

>  <Zagreb1>
116

>  <Zagreb2>
139

>  <mZagreb2>
4.92

>  <yes>


>  <nAR-cont>
0.816016

>  <nHA-cont>
0.983774276

>  <MWHBN>
0.174631238

>  <MWHBN-cont>
0.980678921

>  <TPSA-cont>
0.597846426

>  <pka_cont>
0.97

>  <yes.1>


>  <BBB_SCORE>
4.951501511

>  <MMFF94 Energy>
47.431

$$$$
Compound 2985
Actelion Java MolfileCreator 2.0

  0  0  0  0  0  0              0 V3000
M  V30 BEGIN CTAB
M  V30 COUNTS 64 67 0 0 0
M  V30 BEGIN ATOM
M  V30 1 O -2.7135 -0.8773 -0.7177 0
M  V30 2 C -2.2669 -0.5435 0.378 0
M  V30 3 O -0.9245 -0.4449 0.6331 0
M  V30 4 C -3.1429 -0.1382 1.6023 0
M  V30 5 C -0.0496 -0.9374 -0.3947 0 CFG=1
M  V30 6 O -4.4109 -0.8053 1.4067 0
M  V30 7 C -3.4763 1.3625 1.6333 0
M  V30 8 C -2.5246 -0.6688 2.9069 0
M  V30 9 C 0.224 0.1573 -1.4116 0
M  V30 10 C 1.2412 -1.3641 0.2794 0
M  V30 11 C -4.4758 1.8232 2.5159 0
M  V30 12 C -2.823 2.3133 0.8292 0
M  V30 13 C -1.6315 0.1082 3.6702 0
M  V30 14 C -2.7923 -1.9803 3.3432 0
M  V30 15 C 1.2472 -0.265 -2.4771 0 CFG=2
M  V30 16 C 2.2368 -1.8834 -0.7516 0 CFG=1
M  V30 17 C -4.8102 3.1761 2.5886 0
M  V30 18 C -3.1612 3.6683 0.9033 0
M  V30 19 C -1.0463 -0.4011 4.8322 0
M  V30 20 C -2.2054 -2.4879 4.5045 0
M  V30 21 N 2.5876 -0.7563 -1.7874 0 CHG=1
M  V30 22 C 1.4838 0.89 -3.4824 0
M  V30 23 C 3.4597 -2.4891 -0.0516 0
M  V30 24 C -4.1528 4.0983 1.7813 0
M  V30 25 C -1.3336 -1.698 5.2486 0
M  V30 26 C 3.5435 -1.3622 -2.8723 0
M  V30 27 C 3.3889 0.4173 -1.1613 0
M  V30 28 C 0.2717 1.1549 -4.3713 0
M  V30 29 C 4.8932 -0.7203 -2.6167 0
M  V30 30 C 4.5523 0.6587 -2.1037 0
M  V30 31 H -0.4969 -1.8141 -0.882 0
M  V30 32 H -4.7767 -0.4541 0.5741 0
M  V30 33 H -0.7239 0.4254 -1.8912 0
M  V30 34 H 0.5426 1.071 -0.8942 0
M  V30 35 H 1.0118 -2.149 1.0123 0
M  V30 36 H 1.6606 -0.5362 0.8654 0
M  V30 37 H -5.0025 1.1171 3.1589 0
M  V30 38 H -2.0427 2.0299 0.1295 0
M  V30 39 H -1.3873 1.1271 3.3759 0
M  V30 40 H -3.4786 -2.6166 2.7855 0
M  V30 41 H 0.8733 -1.1465 -3.0144 0
M  V30 42 H 1.7611 -2.6765 -1.3443 0
M  V30 43 H -5.5853 3.5074 3.2761 0
M  V30 44 H -2.6523 4.3939 0.273 0
M  V30 45 H -0.3745 0.2197 5.4198 0
M  V30 46 H -2.4403 -3.4974 4.834 0
M  V30 47 H 1.7278 1.8194 -2.9554 0
M  V30 48 H 2.3225 0.6839 -4.1507 0
M  V30 49 H 3.9786 -1.7788 0.5969 0
M  V30 50 H 4.1842 -2.909 -0.7528 0
M  V30 51 H 3.1386 -3.3188 0.5897 0
M  V30 52 H -4.4154 5.1521 1.8365 0
M  V30 53 H -0.888 -2.0898 6.1596 0
M  V30 54 H 3.5553 -2.4529 -2.7932 0
M  V30 55 H 3.1623 -1.1139 -3.8643 0
M  V30 56 H 2.7481 1.2924 -1.0373 0
M  V30 57 H 3.7493 0.1161 -0.1768 0
M  V30 58 H -0.0421 0.243 -4.8888 0
M  V30 59 H -0.576 1.5411 -3.7989 0
M  V30 60 H 0.522 1.9043 -5.1296 0
M  V30 61 H 5.5069 -0.6865 -3.5217 0
M  V30 62 H 5.4524 -1.2792 -1.8585 0
M  V30 63 H 5.3975 1.1308 -1.5939 0
M  V30 64 H 4.2576 1.3151 -2.9292 0
M  V30 END ATOM
M  V30 BEGIN BOND
M  V30 1 2 1 2
M  V30 2 1 2 3
M  V30 3 1 2 4
M  V30 4 1 3 5
M  V30 5 1 4 6
M  V30 6 1 4 7
M  V30 7 1 4 8
M  V30 8 1 5 9
M  V30 9 1 5 10
M  V30 10 2 7 11
M  V30 11 1 7 12
M  V30 12 2 8 13
M  V30 13 1 8 14
M  V30 14 1 9 15
M  V30 15 1 10 16
M  V30 16 1 11 17
M  V30 17 2 12 18
M  V30 18 1 13 19
M  V30 19 2 14 20
M  V30 20 1 15 21
M  V30 21 1 15 22
M  V30 22 1 16 23
M  V30 23 2 17 24
M  V30 24 2 19 25
M  V30 25 1 21 26
M  V30 26 1 21 27
M  V30 27 1 22 28
M  V30 28 1 26 29
M  V30 29 1 27 30
M  V30 30 1 16 21
M  V30 31 1 18 24
M  V30 32 1 20 25
M  V30 33 1 29 30
M  V30 34 1 5 31
M  V30 35 1 6 32
M  V30 36 1 9 33
M  V30 37 1 9 34
M  V30 38 1 10 35
M  V30 39 1 10 36
M  V30 40 1 11 37
M  V30 41 1 12 38
M  V30 42 1 13 39
M  V30 43 1 14 40
M  V30 44 1 15 41
M  V30 45 1 16 42
M  V30 46 1 17 43
M  V30 47 1 18 44
M  V30 48 1 19 45
M  V30 49 1 20 46
M  V30 50 1 22 47
M  V30 51 1 22 48
M  V30 52 1 23 49
M  V30 53 1 23 50
M  V30 54 1 23 51
M  V30 55 1 24 52
M  V30 56 1 25 53
M  V30 57 1 26 54
M  V30 58 1 26 55
M  V30 59 1 27 56
M  V30 60 1 27 57
M  V30 61 1 28 58
M  V30 62 1 28 59
M  V30 63 1 28 60
M  V30 64 1 29 61
M  V30 65 1 29 62
M  V30 66 1 30 63
M  V30 67 1 30 64
M  V30 END BOND
M  V30 BEGIN COLLECTION
M  V30 MDLV30/STEABS ATOMS=(3 5 15 16)
M  V30 END COLLECTION
M  V30 END CTAB
M  END
>  <Column 1>
3839

>  <level_0>
7183

>  <index>
7184

>  <Unnamed: 0>
7184

>  <NO.>
7197

>  <Name>


>  <IUPAC_name>


>  <SMILES>
CC[C@@H]1C[C@H](OC(=O)C(O)(c2ccccc2)c2ccccc2)C[C@H](C)[N+]12CCCC2

>  <CID>


>  <logBB>


>  <BBB+/BBB->
BBB-

>  <Inchi>
InChI=1S/C26H34NO3/c1-3-23-19-24(18-20(2)27(23)16-10-11-17-27)30-25(28)26(29-21-12-6-4-7-13-21)22-14-8-5-9-15-22/h4-9-12-15-20-23-24-29H-3-10-11-16-19H2-1-2H3/q+1/t20--23+-24+/m0/s1

>  <threshold>


>  <reference>
R27|

>  <group>
C

>  <Class>
1

>  <ABC>
23.4

>  <ABCGG>
19.49

>  <nAcid>
0

>  <nBase>
1

>  <nAromAtom>
12

>  <nAromBond>
12

>  <nAtom>
64

>  <nHeavyAtom>
30

>  <nSpiro>
1

>  <nBridgehead>
0

>  <nHetero>
4

>  <nN>
1

>  <nO>
3

>  <nF>
0

>  <BalabanJ>
1.48

>  <BertzCT>
805.6

>  <nBonds>
67

>  <nBondsO>
33

>  <nBondsS>
54

>  <nBondsD>
1

>  <nBondsT>
0

>  <nBondsA>
12

>  <nBondsM>
13

>  <nBondsKS>
60

>  <nBondsKD>
7

>  <RNCG>
0.22

>  <RPCG>
0.11

>  <FCSP3>
0.5

>  <SZ>
36.83

>  <Sm>
34.02

>  <Sv>
38.11

>  <Sse>
63.25

>  <Sp>
41.67

>  <Si>
71.98

>  <MZ>
0.58

>  <Mm>
0.53

>  <Mv>
0.6

>  <Mse>
0.99

>  <Mp>
0.65

>  <Mi>
1.12

>  <NsCH3>
2

>  <NdCH2>
0

>  <NssCH2>
7

>  <NtCH>
0

>  <NdsCH>
0

>  <NaaCH>
10

>  <NsssCH>
3

>  <NddC>
0

>  <NtsC>
0

>  <NdssC>
1

>  <NaasC>
2

>  <NaaaC>
0

>  <NssssC>
1

>  <NsNH3>
0

>  <NsNH2>
0

>  <NssNH2>
0

>  <NdNH>
0

>  <NssNH>
0

>  <NaaNH>
0

>  <NtN>
0

>  <NsssNH>
0

>  <NdsN>
0

>  <NaaN>
0

>  <NsssN>
0

>  <NddsN>
0

>  <NaasN>
0

>  <NssssN>
1

>  <NsOH>
1

>  <NdO>
1

>  <NssO>
1

>  <NaaO>
0

>  <NsF>
0

>  <NsSiH3>
0

>  <NssSiH2>
0

>  <NsssSiH>
0

>  <NssssSi>
0

>  <NsPH2>
0

>  <NssPH>
0

>  <NsssP>
0

>  <NdsssP>
0

>  <NsssssP>
0

>  <NsSH>
0

>  <NdS>
0

>  <NssS>
0

>  <NaaS>
0

>  <NdssS>
0

>  <NddssS>
0

>  <NsCl>
0

>  <NsBr>
0

>  <NsI>
0

>  <fragCpx>
219.04

>  <fMF>
0.39

>  <nHBAcc>
3

>  <nHBDon>
1

>  <Kier1>
23.17

>  <Kier2>
9.87

>  <Lipinski>
1

>  <GhoseFilter>
1

>  <FilterItLogS>
-5.52

>  <VMcGowan>
333.4

>  <LabuteASA>
179.63

>  <PEOE_VSA1>
14.33

>  <PEOE_VSA2>
0

>  <PEOE_VSA3>
4.79

>  <PEOE_VSA4>
0

>  <PEOE_VSA5>
0

>  <PEOE_VSA6>
67.59

>  <PEOE_VSA7>
24.47

>  <PEOE_VSA8>
25.68

>  <PEOE_VSA9>
25.17

>  <PEOE_VSA10>
6.1

>  <PEOE_VSA11>
0

>  <PEOE_VSA12>
5.6

>  <PEOE_VSA13>
0

>  <SMR_VSA1>
19.12

>  <SMR_VSA2>
0

>  <SMR_VSA3>
0

>  <SMR_VSA4>
0

>  <SMR_VSA5>
69.74

>  <SMR_VSA6>
13.09

>  <SMR_VSA7>
71.79

>  <SMR_VSA8>
0

>  <SMR_VSA9>
0

>  <SlogP_VSA1>
0

>  <SlogP_VSA2>
46.84

>  <SlogP_VSA3>
15.13

>  <SlogP_VSA4>
0

>  <SlogP_VSA5>
57.08

>  <SlogP_VSA6>
60.66

>  <SlogP_VSA7>
0

>  <SlogP_VSA8>
0

>  <SlogP_VSA9>
0

>  <SlogP_VSA10>
0

>  <SlogP_VSA11>
0

>  <EState_VSA1>
11.57

>  <EState_VSA2>
6.1

>  <EState_VSA3>
23.21

>  <EState_VSA4>
19.26

>  <EState_VSA5>
30.41

>  <EState_VSA6>
24.27

>  <EState_VSA7>
36.4

>  <EState_VSA8>
13.85

>  <EState_VSA9>
4.74

>  <EState_VSA10>
9.9

>  <VSA_EState1>
7.26

>  <VSA_EState2>
13.47

>  <VSA_EState3>
11.67

>  <VSA_EState4>
-0.72

>  <VSA_EState5>
-0.57

>  <VSA_EState6>
19.29

>  <VSA_EState7>
5.29

>  <VSA_EState8>
7.06

>  <VSA_EState9>
0

>  <apol>
69.6

>  <bpol>
38.99

>  <nRing>
4

>  <nHRing>
2

>  <naRing>
2

>  <naHRing>
0

>  <nARing 2>
2

>  <nAHRing 2>
2

>  <nFRing>
0

>  <nFHRing>
0

>  <nFaRing>
0

>  <nFaHRing>
0

>  <nFARing 2>
0

>  <nFAHRing 2>
0

>  <nRot>
5

>  <SLogP>
4.41

>  <SMR>
117.77

>  <TopoPSA(NO)>
46.53

>  <TopoPSA>
46.53

>  <JGI1>
0.21

>  <JGI2>
0.1

>  <JGI3>
0.06

>  <JGI4>
0.04

>  <JGI5>
0.02

>  <Diameter>
12

>  <Radius>
6

>  <TMWC10>
141.63

>  <TSRW10>
79.92

>  <MW>
408.25

>  <AMW>
6.38

>  <WPath>
2345

>  <WPol>
55

>  <Zagreb1>
162

>  <Zagreb2>
198

>  <mZagreb2>
6.67

>  <yes>


>  <nAR-cont>
1

>  <nHA-cont>
0.74523694

>  <MWHBN>
0.197968866

>  <MWHBN-cont>
0.999163612

>  <TPSA-cont>
0.675191707

>  <pka_cont>
0.97

>  <yes.1>


>  <BBB_SCORE>
5.079365771

>  <MMFF94 Energy>
142.05

$$$$
Compound 2986
Actelion Java MolfileCreator 2.0

  0  0  0  0  0  0              0 V3000
M  V30 BEGIN CTAB
M  V30 COUNTS 50 53 0 0 0
M  V30 BEGIN ATOM
M  V30 1 O 0.8826 1.8461 -1.3642 0
M  V30 2 C -0.2352 1.353 -1.3163 0
M  V30 3 O -0.4792 0.1105 -0.7891 0
M  V30 4 C -1.545 1.9859 -1.7711 0 CFG=2
M  V30 5 C 0.6738 -0.6386 -0.3378 0 CFG=1
M  V30 6 C -1.3358 3.2144 -2.6442 0
M  V30 7 C -2.4004 2.3081 -0.5371 0
M  V30 8 C 1.2148 -0.0545 0.9932 0
M  V30 9 C 0.2679 -2.1324 -0.3251 0
M  V30 10 C -1.7633 3.1988 -3.9817 0
M  V30 11 C -0.7352 4.382 -2.1454 0
M  V30 12 O -3.0927 1.1506 -0.0639 0
M  V30 13 C 0.9854 -0.9315 2.2338 0 CFG=1
M  V30 14 C 0.1224 -2.7608 1.07 0 CFG=1
M  V30 15 C -1.594 4.3198 -4.7966 0
M  V30 16 C -0.5662 5.5008 -2.9635 0
M  V30 17 N 1.3808 -2.4103 1.9149 0 CHG=1
M  V30 18 C -0.4935 -0.9857 2.5851 0 CFG=2
M  V30 19 C -1.0505 -2.1634 1.8303 0 CFG=1
M  V30 20 C -0.996 5.4698 -4.2877 0
M  V30 21 C 1.4181 -3.2028 3.2584 0
M  V30 22 C 2.7297 -2.5915 1.231 0
M  V30 23 O -1.4568 -0.8261 1.5473 0
M  V30 24 C 1.6861 -4.69 3.0833 0
M  V30 25 H -2.0554 1.2213 -2.3731 0
M  V30 26 H 1.4453 -0.5267 -1.1118 0
M  V30 27 H -3.1727 3.0465 -0.7792 0
M  V30 28 H -1.803 2.7098 0.2894 0
M  V30 29 H 2.2936 0.1131 0.8837 0
M  V30 30 H 0.784 0.9365 1.1835 0
M  V30 31 H -0.6668 -2.2753 -0.8829 0
M  V30 32 H 1.0285 -2.6998 -0.8768 0
M  V30 33 H -2.2398 2.3166 -4.4044 0
M  V30 34 H -0.3802 4.4327 -1.1184 0
M  V30 35 H -2.4358 0.5148 0.2762 0
M  V30 36 H 1.5944 -0.5951 3.0799 0
M  V30 37 H 0.045 -3.8484 0.9965 0
M  V30 38 H -1.9313 4.2972 -5.8301 0
M  V30 39 H -0.096 6.3981 -2.5683 0
M  V30 40 H -0.7614 -0.8174 3.6163 0
M  V30 41 H -1.724 -2.8538 2.3133 0
M  V30 42 H -0.8646 6.3419 -4.9234 0
M  V30 43 H 2.2042 -2.7447 3.87 0
M  V30 44 H 0.4629 -3.0621 3.773 0
M  V30 45 H 2.8054 -3.6265 0.8889 0
M  V30 46 H 2.8309 -1.9357 0.3675 0
M  V30 47 H 3.5145 -2.3569 1.9558 0
M  V30 48 H 0.9555 -5.1729 2.4303 0
M  V30 49 H 2.6887 -4.8846 2.6929 0
M  V30 50 H 1.6263 -5.1851 4.0588 0
M  V30 END ATOM
M  V30 BEGIN BOND
M  V30 1 2 1 2
M  V30 2 1 2 3
M  V30 3 1 2 4
M  V30 4 1 3 5
M  V30 5 1 4 6
M  V30 6 1 4 7
M  V30 7 1 5 8
M  V30 8 1 5 9
M  V30 9 2 6 10
M  V30 10 1 6 11
M  V30 11 1 7 12
M  V30 12 1 8 13
M  V30 13 1 9 14
M  V30 14 1 10 15
M  V30 15 2 11 16
M  V30 16 1 13 17
M  V30 17 1 13 18
M  V30 18 1 14 19
M  V30 19 2 15 20
M  V30 20 1 17 21
M  V30 21 1 17 22
M  V30 22 1 18 23
M  V30 23 1 21 24
M  V30 24 1 14 17
M  V30 25 1 16 20
M  V30 26 1 18 19
M  V30 27 1 19 23
M  V30 28 1 4 25
M  V30 29 1 5 26
M  V30 30 1 7 27
M  V30 31 1 7 28
M  V30 32 1 8 29
M  V30 33 1 8 30
M  V30 34 1 9 31
M  V30 35 1 9 32
M  V30 36 1 10 33
M  V30 37 1 11 34
M  V30 38 1 12 35
M  V30 39 1 13 36
M  V30 40 1 14 37
M  V30 41 1 15 38
M  V30 42 1 16 39
M  V30 43 1 18 40
M  V30 44 1 19 41
M  V30 45 1 20 42
M  V30 46 1 21 43
M  V30 47 1 21 44
M  V30 48 1 22 45
M  V30 49 1 22 46
M  V30 50 1 22 47
M  V30 51 1 24 48
M  V30 52 1 24 49
M  V30 53 1 24 50
M  V30 END BOND
M  V30 BEGIN COLLECTION
M  V30 MDLV30/STEABS ATOMS=(6 4 5 13 14 18 19)
M  V30 END COLLECTION
M  V30 END CTAB
M  END
>  <Column 1>
3840

>  <level_0>
7231

>  <index>
7232

>  <Unnamed: 0>
7232

>  <NO.>
7245

>  <Name>


>  <IUPAC_name>


>  <SMILES>
CC[N+]1(C)[C@@H]2C[C@@H](OC(=O)[C@@H](CO)c3ccccc3)C[C@@H]1[C@H]1O[C@H]12

>  <CID>


>  <logBB>


>  <BBB+/BBB->
BBB-

>  <Inchi>
InChI=1S/C19H26NO4/c1-3-20(2)15-9-13(10-16(20)18-17(15)24-18)23-19(22)14(11-21)12-7-5-4-6-8-12/h4-8-13-18-21H-3-9-11H2-1-2H3/q+1/t13--14--15+-16+-17+-18--20?/m0/s1

>  <threshold>


>  <reference>
R27|

>  <group>
C

>  <Class>
1

>  <ABC>
19.03

>  <ABCGG>
16.86

>  <nAcid>
0

>  <nBase>
1

>  <nAromAtom>
6

>  <nAromBond>
6

>  <nAtom>
50

>  <nHeavyAtom>
24

>  <nSpiro>
0

>  <nBridgehead>
2

>  <nHetero>
5

>  <nN>
1

>  <nO>
4

>  <nF>
0

>  <BalabanJ>
1.38

>  <BertzCT>
601.05

>  <nBonds>
53

>  <nBondsO>
27

>  <nBondsS>
46

>  <nBondsD>
1

>  <nBondsT>
0

>  <nBondsA>
6

>  <nBondsM>
7

>  <nBondsKS>
49

>  <nBondsKD>
4

>  <RNCG>
0.22

>  <RPCG>
0.1

>  <FCSP3>
0.63

>  <SZ>
29.83

>  <Sm>
27.68

>  <Sv>
29.66

>  <Sse>
50.03

>  <Sp>
31.96

>  <Si>
56.53

>  <MZ>
0.6

>  <Mm>
0.55

>  <Mv>
0.59

>  <Mse>
1

>  <Mp>
0.64

>  <Mi>
1.13

>  <NsCH3>
2

>  <NdCH2>
0

>  <NssCH2>
4

>  <NtCH>
0

>  <NdsCH>
0

>  <NaaCH>
5

>  <NsssCH>
6

>  <NddC>
0

>  <NtsC>
0

>  <NdssC>
1

>  <NaasC>
1

>  <NaaaC>
0

>  <NssssC>
0

>  <NsNH3>
0

>  <NsNH2>
0

>  <NssNH2>
0

>  <NdNH>
0

>  <NssNH>
0

>  <NaaNH>
0

>  <NtN>
0

>  <NsssNH>
0

>  <NdsN>
0

>  <NaaN>
0

>  <NsssN>
0

>  <NddsN>
0

>  <NaasN>
0

>  <NssssN>
1

>  <NsOH>
1

>  <NdO>
1

>  <NssO>
2

>  <NaaO>
0

>  <NsF>
0

>  <NsSiH3>
0

>  <NssSiH2>
0

>  <NsssSiH>
0

>  <NssssSi>
0

>  <NsPH2>
0

>  <NssPH>
0

>  <NsssP>
0

>  <NdsssP>
0

>  <NsssssP>
0

>  <NsSH>
0

>  <NdS>
0

>  <NssS>
0

>  <NaaS>
0

>  <NdssS>
0

>  <NddssS>
0

>  <NsCl>
0

>  <NsBr>
0

>  <NsI>
0

>  <fragCpx>
177.05

>  <fMF>
0.36

>  <nHBAcc>
4

>  <nHBDon>
1

>  <Kier1>
17.42

>  <Kier2>
6.62

>  <Lipinski>
1

>  <GhoseFilter>
1

>  <FilterItLogS>
-2.93

>  <VMcGowan>
253.54

>  <LabuteASA>
142.31

>  <PEOE_VSA1>
19.06

>  <PEOE_VSA2>
4.79

>  <PEOE_VSA3>
0

>  <PEOE_VSA4>
0

>  <PEOE_VSA5>
0

>  <PEOE_VSA6>
30.33

>  <PEOE_VSA7>
12.49

>  <PEOE_VSA8>
12.84

>  <PEOE_VSA9>
20.2

>  <PEOE_VSA10>
36.31

>  <PEOE_VSA11>
0

>  <PEOE_VSA12>
0

>  <PEOE_VSA13>
0

>  <SMR_VSA1>
23.86

>  <SMR_VSA2>
0

>  <SMR_VSA3>
0

>  <SMR_VSA4>
0

>  <SMR_VSA5>
56.08

>  <SMR_VSA6>
20.2

>  <SMR_VSA7>
35.9

>  <SMR_VSA8>
0

>  <SMR_VSA9>
0

>  <SlogP_VSA1>
0

>  <SlogP_VSA2>
66.15

>  <SlogP_VSA3>
14.27

>  <SlogP_VSA4>
0

>  <SlogP_VSA5>
31.25

>  <SlogP_VSA6>
30.33

>  <SlogP_VSA7>
0

>  <SlogP_VSA8>
0

>  <SlogP_VSA9>
0

>  <SlogP_VSA10>
0

>  <SlogP_VSA11>
0

>  <EState_VSA1>
5.92

>  <EState_VSA2>
18.68

>  <EState_VSA3>
24.29

>  <EState_VSA4>
29.43

>  <EState_VSA5>
0

>  <EState_VSA6>
0

>  <EState_VSA7>
30.33

>  <EState_VSA8>
13.97

>  <EState_VSA9>
9.47

>  <EState_VSA10>
9.9

>  <VSA_EState1>
12.68

>  <VSA_EState2>
12.58

>  <VSA_EState3>
9.64

>  <VSA_EState4>
0.81

>  <VSA_EState5>
-0.9

>  <VSA_EState6>
10.24

>  <VSA_EState7>
2.37

>  <VSA_EState8>
3.1

>  <VSA_EState9>
2.31

>  <apol>
53.37

>  <bpol>
32.7

>  <nRing>
4

>  <nHRing>
3

>  <naRing>
1

>  <naHRing>
0

>  <nARing 2>
3

>  <nAHRing 2>
3

>  <nFRing>
1

>  <nFHRing>
1

>  <nFaRing>
0

>  <nFaHRing>
0

>  <nFARing 2>
1

>  <nFAHRing 2>
1

>  <nRot>
5

>  <SLogP>
1.45

>  <SMR>
88.35

>  <TopoPSA(NO)>
59.06

>  <TopoPSA>
59.06

>  <JGI1>
0.2

>  <JGI2>
0.1

>  <JGI3>
0.07

>  <JGI4>
0.05

>  <JGI5>
0.03

>  <Diameter>
12

>  <Radius>
6

>  <TMWC10>
129.1

>  <TSRW10>
80.39

>  <MW>
332.19

>  <AMW>
6.64

>  <WPath>
1356

>  <WPol>
42

>  <Zagreb1>
136

>  <Zagreb2>
170

>  <mZagreb2>
5.26

>  <yes>


>  <nAR-cont>
0.691115

>  <nHA-cont>
0.94700071

>  <MWHBN>
0.274332163

>  <MWHBN-cont>
0.910022835

>  <TPSA-cont>
0.587724526

>  <pka_cont>
0.97

>  <yes.1>


>  <BBB_SCORE>
4.663599014

>  <MMFF94 Energy>
92.825

$$$$
Compound 2987
Actelion Java MolfileCreator 2.0

  0  0  0  0  0  0              0 V3000
M  V30 BEGIN CTAB
M  V30 COUNTS 27 28 0 0 0
M  V30 BEGIN ATOM
M  V30 1 O -0.6325 -3.8791 -0.7907 0
M  V30 2 C -0.4538 -2.8358 -0.1944 0
M  V30 3 N -0.7494 -1.5447 -0.6351 0
M  V30 4 N 0.0906 -2.6568 1.0786 0
M  V30 5 C -0.3934 -0.6352 0.3388 0
M  V30 6 C 0.1148 -1.3114 1.3881 0
M  V30 7 C -0.5905 0.831 0.2173 0
M  V30 8 C 0.6308 -0.8497 2.71 0
M  V30 9 O -0.7748 1.5468 1.1963 0
M  V30 10 C -0.5939 1.4403 -1.134 0
M  V30 11 C 2.1464 -0.9581 2.7973 0
M  V30 12 C -1.4564 2.5104 -1.3725 0
M  V30 13 C 0.2694 1.0082 -2.1413 0
M  V30 14 C -1.4463 3.0821 -2.6301 0
M  V30 15 C 0.2027 1.6486 -3.3653 0
M  V30 16 N -0.6428 2.6662 -3.6324 0
M  V30 17 H -1.1926 -1.3535 -1.5203 0
M  V30 18 H 0.3968 -3.419 1.6649 0
M  V30 19 H 0.3421 0.1862 2.9091 0
M  V30 20 H 0.1758 -1.4499 3.5072 0
M  V30 21 H 2.631 -0.3487 2.027 0
M  V30 22 H 2.4936 -0.6065 3.7743 0
M  V30 23 H 2.4812 -1.9935 2.675 0
M  V30 24 H -2.1172 2.889 -0.5992 0
M  V30 25 H 0.9914 0.2142 -1.9878 0
M  V30 26 H -2.0999 3.9152 -2.8739 0
M  V30 27 H 0.8498 1.3578 -4.1885 0
M  V30 END ATOM
M  V30 BEGIN BOND
M  V30 1 2 1 2
M  V30 2 1 2 3
M  V30 3 1 2 4
M  V30 4 1 3 5
M  V30 5 1 4 6
M  V30 6 1 5 7
M  V30 7 1 6 8
M  V30 8 2 7 9
M  V30 9 1 7 10
M  V30 10 1 8 11
M  V30 11 2 10 12
M  V30 12 1 10 13
M  V30 13 1 12 14
M  V30 14 2 13 15
M  V30 15 2 14 16
M  V30 16 2 5 6
M  V30 17 1 15 16
M  V30 18 1 3 17
M  V30 19 1 4 18
M  V30 20 1 8 19
M  V30 21 1 8 20
M  V30 22 1 11 21
M  V30 23 1 11 22
M  V30 24 1 11 23
M  V30 25 1 12 24
M  V30 26 1 13 25
M  V30 27 1 14 26
M  V30 28 1 15 27
M  V30 END BOND
M  V30 END CTAB
M  END
>  <Column 1>
3841

>  <level_0>
7232

>  <index>
7233

>  <Unnamed: 0>
7233

>  <NO.>
7246

>  <Name>
piroximone

>  <IUPAC_name>
4-ethyl-5-(pyridine-4-carbonyl)-1-3-dihydroimidazol-2-one

>  <SMILES>
CCc1[nH]c(=O)[nH]c1C(=O)c1ccncc1

>  <CID>
55263

>  <logBB>


>  <BBB+/BBB->
BBB+

>  <Inchi>
InChI=1S/C11H11N3O2/c1-2-8-9(14-11(16)13-8)10(15)7-3-5-12-6-4-7/h3-6H-2H2-1H3-(H2-13-14-16)

>  <threshold>


>  <reference>
R27|

>  <group>
C

>  <Class>
1

>  <ABC>
12.12

>  <ABCGG>
11.15

>  <nAcid>
0

>  <nBase>
0

>  <nAromAtom>
11

>  <nAromBond>
11

>  <nAtom>
27

>  <nHeavyAtom>
16

>  <nSpiro>
0

>  <nBridgehead>
0

>  <nHetero>
5

>  <nN>
3

>  <nO>
2

>  <nF>
0

>  <BalabanJ>
1.94

>  <BertzCT>
554.11

>  <nBonds>
28

>  <nBondsO>
17

>  <nBondsS>
15

>  <nBondsD>
2

>  <nBondsT>
0

>  <nBondsA>
11

>  <nBondsM>
13

>  <nBondsKS>
22

>  <nBondsKD>
6

>  <RNCG>
0.2

>  <RPCG>
0.21

>  <FCSP3>
0.18

>  <SZ>
19

>  <Sm>
18.09

>  <Sv>
17.68

>  <Sse>
27.53

>  <Sp>
18.33

>  <Si>
30.58

>  <MZ>
0.7

>  <Mm>
0.67

>  <Mv>
0.65

>  <Mse>
1.02

>  <Mp>
0.68

>  <Mi>
1.13

>  <NsCH3>
1

>  <NdCH2>
0

>  <NssCH2>
1

>  <NtCH>
0

>  <NdsCH>
0

>  <NaaCH>
4

>  <NsssCH>
0

>  <NddC>
0

>  <NtsC>
0

>  <NdssC>
1

>  <NaasC>
3

>  <NaaaC>
0

>  <NssssC>
0

>  <NsNH3>
0

>  <NsNH2>
0

>  <NssNH2>
0

>  <NdNH>
0

>  <NssNH>
0

>  <NaaNH>
2

>  <NtN>
0

>  <NsssNH>
0

>  <NdsN>
0

>  <NaaN>
1

>  <NsssN>
0

>  <NddsN>
0

>  <NaasN>
0

>  <NssssN>
0

>  <NsOH>
0

>  <NdO>
2

>  <NssO>
0

>  <NaaO>
0

>  <NsF>
0

>  <NsSiH3>
0

>  <NssSiH2>
0

>  <NsssSiH>
0

>  <NssssSi>
0

>  <NsPH2>
0

>  <NssPH>
0

>  <NsssP>
0

>  <NdsssP>
0

>  <NsssssP>
0

>  <NsSH>
0

>  <NdS>
0

>  <NssS>
0

>  <NaaS>
0

>  <NdssS>
0

>  <NddssS>
0

>  <NsCl>
0

>  <NsBr>
0

>  <NsI>
0

>  <fragCpx>
49.05

>  <fMF>
0.44

>  <nHBAcc>
3

>  <nHBDon>
2

>  <Kier1>
12.46

>  <Kier2>
5.56

>  <Lipinski>
1

>  <GhoseFilter>
1

>  <FilterItLogS>
-3.43

>  <VMcGowan>
160.01

>  <LabuteASA>
91.55

>  <PEOE_VSA1>
9.97

>  <PEOE_VSA2>
9.78

>  <PEOE_VSA3>
4.79

>  <PEOE_VSA4>
0

>  <PEOE_VSA5>
0

>  <PEOE_VSA6>
6.92

>  <PEOE_VSA7>
18.55

>  <PEOE_VSA8>
23.65

>  <PEOE_VSA9>
0

>  <PEOE_VSA10>
5.69

>  <PEOE_VSA11>
0

>  <PEOE_VSA12>
5.78

>  <PEOE_VSA13>
0

>  <SMR_VSA1>
4.79

>  <SMR_VSA2>
0

>  <SMR_VSA3>
14.95

>  <SMR_VSA4>
0

>  <SMR_VSA5>
13.34

>  <SMR_VSA6>
0

>  <SMR_VSA7>
51.96

>  <SMR_VSA8>
0

>  <SMR_VSA9>
0

>  <SlogP_VSA1>
5.69

>  <SlogP_VSA2>
20.74

>  <SlogP_VSA3>
6.42

>  <SlogP_VSA4>
0

>  <SlogP_VSA5>
28.67

>  <SlogP_VSA6>
29.32

>  <SlogP_VSA7>
0

>  <SlogP_VSA8>
0

>  <SlogP_VSA9>
0

>  <SlogP_VSA10>
0

>  <SlogP_VSA11>
0

>  <EState_VSA1>
0

>  <EState_VSA2>
11.47

>  <EState_VSA3>
23.37

>  <EState_VSA4>
0

>  <EState_VSA5>
0

>  <EState_VSA6>
24.53

>  <EState_VSA7>
6.92

>  <EState_VSA8>
14.95

>  <EState_VSA9>
0

>  <EState_VSA10>
9.59

>  <VSA_EState1>
0

>  <VSA_EState2>
32.1

>  <VSA_EState3>
0

>  <VSA_EState4>
1.12

>  <VSA_EState5>
-0.2

>  <VSA_EState6>
3.24

>  <VSA_EState7>
3.69

>  <VSA_EState8>
1.88

>  <VSA_EState9>
0

>  <apol>
30.61

>  <bpol>
15.05

>  <nRing>
2

>  <nHRing>
2

>  <naRing>
2

>  <naHRing>
2

>  <nARing 2>
0

>  <nAHRing 2>
0

>  <nFRing>
0

>  <nFHRing>
0

>  <nFaRing>
0

>  <nFaHRing>
0

>  <nFARing 2>
0

>  <nFAHRing 2>
0

>  <nRot>
3

>  <SLogP>
0.89

>  <SMR>
58.46

>  <TopoPSA(NO)>
78.61

>  <TopoPSA>
78.61

>  <JGI1>
0.18

>  <JGI2>
0.08

>  <JGI3>
0.07

>  <JGI4>
0.05

>  <JGI5>
0.02

>  <Diameter>
8

>  <Radius>
4

>  <TMWC10>
103.54

>  <TSRW10>
62.1

>  <MW>
217.09

>  <AMW>
8.04

>  <WPath>
431

>  <WPol>
22

>  <Zagreb1>
80

>  <Zagreb2>
93

>  <mZagreb2>
3.67

>  <yes>


>  <nAR-cont>
0.336376

>  <nHA-cont>
0.954961865

>  <MWHBN>
0.339351751

>  <MWHBN-cont>
0.709485396

>  <TPSA-cont>
0.451253386

>  <pka_cont>
0.97

>  <yes.1>


>  <BBB_SCORE>
3.743072731

>  <MMFF94 Energy>
9.8247

$$$$
Compound 2988
Actelion Java MolfileCreator 2.0

  0  0  0  0  0  0              0 V3000
M  V30 BEGIN CTAB
M  V30 COUNTS 44 46 0 0 0
M  V30 BEGIN ATOM
M  V30 1 O -2.8763 1.757 3.5964 0
M  V30 2 C -1.728 1.8716 3.1987 0
M  V30 3 O -0.9874 2.9367 3.5571 0
M  V30 4 C -0.9792 0.8842 2.3435 0
M  V30 5 C -1.5446 0.7241 0.9036 0
M  V30 6 O -1.3811 2.0309 0.3129 0
M  V30 7 C -0.7226 -0.3833 0.1506 0 CFG=2
M  V30 8 C -3.0589 0.3834 1.0107 0
M  V30 9 C -1.5678 2.1149 -1.0918 0
M  V30 10 N 0.6883 -0.5086 0.5858 0
M  V30 11 C -0.6392 -0.1913 -1.3946 0 CFG=1
M  V30 12 C -3.6969 -0.318 -0.1553 0
M  V30 13 C -0.5398 1.2743 -1.8121 0
M  V30 14 C 1.3833 -1.035 -0.511 0
M  V30 15 C 0.653 -0.8966 -1.6959 0
M  V30 16 O -3.4635 -1.4555 -0.5263 0
M  V30 17 O -4.621 0.4258 -0.7878 0
M  V30 18 C 2.6733 -1.5487 -0.5266 0
M  V30 19 C 1.1542 -1.3083 -2.9186 0
M  V30 20 C 3.1883 -1.969 -1.7662 0
M  V30 21 C 3.5204 -1.6403 0.7135 0
M  V30 22 C 2.4337 -1.8585 -2.946 0
M  V30 23 C 4.1969 -0.3177 1.0413 0
M  V30 24 H -1.5977 3.4938 4.0825 0
M  V30 25 H -0.9753 -0.0721 2.8803 0
M  V30 26 H 0.0601 1.2354 2.3013 0
M  V30 27 H -1.1639 -1.3636 0.378 0
M  V30 28 H -3.2399 -0.2825 1.8648 0
M  V30 29 H -3.6354 1.2988 1.1961 0
M  V30 30 H -1.4402 3.1654 -1.3735 0
M  V30 31 H -2.5873 1.839 -1.3672 0
M  V30 32 H 0.9401 -0.8164 1.5145 0
M  V30 33 H -1.4779 -0.6817 -1.8971 0
M  V30 34 H -0.6622 1.3681 -2.8975 0
M  V30 35 H 0.4564 1.6708 -1.5731 0
M  V30 36 H -4.9941 -0.1666 -1.4742 0
M  V30 37 H 0.5799 -1.1919 -3.831 0
M  V30 38 H 4.1938 -2.3802 -1.8252 0
M  V30 39 H 4.2852 -2.4159 0.5836 0
M  V30 40 H 2.9072 -1.9692 1.5608 0
M  V30 41 H 2.8613 -2.1879 -3.8896 0
M  V30 42 H 4.816 -0.422 1.938 0
M  V30 43 H 3.4629 0.4731 1.2282 0
M  V30 44 H 4.8421 0.011 0.2196 0
M  V30 END ATOM
M  V30 BEGIN BOND
M  V30 1 2 1 2
M  V30 2 1 2 3
M  V30 3 1 2 4
M  V30 4 1 4 5
M  V30 5 1 5 6
M  V30 6 1 5 7
M  V30 7 1 5 8
M  V30 8 1 6 9
M  V30 9 1 7 10
M  V30 10 1 7 11
M  V30 11 1 8 12
M  V30 12 1 9 13
M  V30 13 1 10 14
M  V30 14 1 11 15
M  V30 15 2 12 16
M  V30 16 1 12 17
M  V30 17 1 14 18
M  V30 18 1 15 19
M  V30 19 2 18 20
M  V30 20 1 18 21
M  V30 21 2 19 22
M  V30 22 1 21 23
M  V30 23 1 11 13
M  V30 24 2 14 15
M  V30 25 1 20 22
M  V30 26 1 3 24
M  V30 27 1 4 25
M  V30 28 1 4 26
M  V30 29 1 7 27
M  V30 30 1 8 28
M  V30 31 1 8 29
M  V30 32 1 9 30
M  V30 33 1 9 31
M  V30 34 1 10 32
M  V30 35 1 11 33
M  V30 36 1 13 34
M  V30 37 1 13 35
M  V30 38 1 17 36
M  V30 39 1 19 37
M  V30 40 1 20 38
M  V30 41 1 21 39
M  V30 42 1 21 40
M  V30 43 1 22 41
M  V30 44 1 23 42
M  V30 45 1 23 43
M  V30 46 1 23 44
M  V30 END BOND
M  V30 BEGIN COLLECTION
M  V30 MDLV30/STEABS ATOMS=(2 7 11)
M  V30 END COLLECTION
M  V30 END CTAB
M  END
>  <Column 1>
3842

>  <level_0>
7233

>  <index>
7234

>  <Unnamed: 0>
7234

>  <NO.>
7247

>  <Name>


>  <IUPAC_name>


>  <SMILES>
CCc1cccc2c1N[C@@H]1[C@H]2CCOC1(CC(=O)O)CC(=O)O

>  <CID>


>  <logBB>


>  <BBB+/BBB->
BBB+

>  <Inchi>
InChI=1S/C17H21NO5/c1-2-10-4-3-5-11-12-6-7-23-17(8-13(19)20-9-14(21)22)16(12)18-15(10)11/h3-5-12-16-18H-2-6-9H2-1H3-(H-19-20)(H-21-22)/t12--16+/m0/s1

>  <threshold>


>  <reference>
R27|

>  <group>
C

>  <Class>
1

>  <ABC>
17.89

>  <ABCGG>
15.27

>  <nAcid>
2

>  <nBase>
0

>  <nAromAtom>
6

>  <nAromBond>
6

>  <nAtom>
44

>  <nHeavyAtom>
23

>  <nSpiro>
0

>  <nBridgehead>
0

>  <nHetero>
6

>  <nN>
1

>  <nO>
5

>  <nF>
0

>  <BalabanJ>
1.87

>  <BertzCT>
625.87

>  <nBonds>
46

>  <nBondsO>
25

>  <nBondsS>
38

>  <nBondsD>
2

>  <nBondsT>
0

>  <nBondsA>
6

>  <nBondsM>
8

>  <nBondsKS>
41

>  <nBondsKD>
5

>  <RNCG>
0.19

>  <RPCG>
0.12

>  <FCSP3>
0.53

>  <SZ>
28.33

>  <Sm>
26.59

>  <Sv>
27.02

>  <Sse>
44.64

>  <Sp>
28.44

>  <Si>
49.7

>  <MZ>
0.64

>  <Mm>
0.6

>  <Mv>
0.61

>  <Mse>
1.01

>  <Mp>
0.65

>  <Mi>
1.13

>  <NsCH3>
1

>  <NdCH2>
0

>  <NssCH2>
5

>  <NtCH>
0

>  <NdsCH>
0

>  <NaaCH>
3

>  <NsssCH>
2

>  <NddC>
0

>  <NtsC>
0

>  <NdssC>
2

>  <NaasC>
3

>  <NaaaC>
0

>  <NssssC>
1

>  <NsNH3>
0

>  <NsNH2>
0

>  <NssNH2>
0

>  <NdNH>
0

>  <NssNH>
1

>  <NaaNH>
0

>  <NtN>
0

>  <NsssNH>
0

>  <NdsN>
0

>  <NaaN>
0

>  <NsssN>
0

>  <NddsN>
0

>  <NaasN>
0

>  <NssssN>
0

>  <NsOH>
2

>  <NdO>
2

>  <NssO>
1

>  <NaaO>
0

>  <NsF>
0

>  <NsSiH3>
0

>  <NssSiH2>
0

>  <NsssSiH>
0

>  <NssssSi>
0

>  <NsPH2>
0

>  <NssPH>
0

>  <NsssP>
0

>  <NdsssP>
0

>  <NsssssP>
0

>  <NsSH>
0

>  <NdS>
0

>  <NssS>
0

>  <NaaS>
0

>  <NdssS>
0

>  <NddssS>
0

>  <NsCl>
0

>  <NsBr>
0

>  <NsI>
0

>  <fragCpx>
119.06

>  <fMF>
0.3

>  <nHBAcc>
4

>  <nHBDon>
3

>  <Kier1>
17.81

>  <Kier2>
7.09

>  <Lipinski>
1

>  <GhoseFilter>
1

>  <FilterItLogS>
-2.97

>  <VMcGowan>
235.64

>  <LabuteASA>
134.01

>  <PEOE_VSA1>
20.27

>  <PEOE_VSA2>
9.59

>  <PEOE_VSA3>
0

>  <PEOE_VSA4>
0

>  <PEOE_VSA5>
0

>  <PEOE_VSA6>
25.12

>  <PEOE_VSA7>
23.97

>  <PEOE_VSA8>
18.21

>  <PEOE_VSA9>
18.88

>  <PEOE_VSA10>
5.6

>  <PEOE_VSA11>
0

>  <PEOE_VSA12>
0

>  <PEOE_VSA13>
0

>  <SMR_VSA1>
24.54

>  <SMR_VSA2>
0

>  <SMR_VSA3>
0

>  <SMR_VSA4>
0

>  <SMR_VSA5>
50.17

>  <SMR_VSA6>
11.92

>  <SMR_VSA7>
29.33

>  <SMR_VSA8>
0

>  <SMR_VSA9>
0

>  <SlogP_VSA1>
5.32

>  <SlogP_VSA2>
40.4

>  <SlogP_VSA3>
20.75

>  <SlogP_VSA4>
0

>  <SlogP_VSA5>
43.23

>  <SlogP_VSA6>
18.2

>  <SlogP_VSA7>
0

>  <SlogP_VSA8>
0

>  <SlogP_VSA9>
0

>  <SlogP_VSA10>
5.69

>  <SlogP_VSA11>
0

>  <EState_VSA1>
17.54

>  <EState_VSA2>
24.8

>  <EState_VSA3>
6.61

>  <EState_VSA4>
29.66

>  <EState_VSA5>
0

>  <EState_VSA6>
0

>  <EState_VSA7>
18.2

>  <EState_VSA8>
12.24

>  <EState_VSA9>
4.74

>  <EState_VSA10>
19.8

>  <VSA_EState1>
5.78

>  <VSA_EState2>
22.68

>  <VSA_EState3>
21.97

>  <VSA_EState4>
2.12

>  <VSA_EState5>
-2

>  <VSA_EState6>
5.77

>  <VSA_EState7>
0.99

>  <VSA_EState8>
2.44

>  <VSA_EState9>
0

>  <apol>
47.5

>  <bpol>
25.11

>  <nRing>
3

>  <nHRing>
2

>  <naRing>
1

>  <naHRing>
0

>  <nARing 2>
2

>  <nAHRing 2>
2

>  <nFRing>
1

>  <nFHRing>
1

>  <nFaRing>
0

>  <nFaHRing>
0

>  <nFARing 2>
1

>  <nFAHRing 2>
1

>  <nRot>
5

>  <SLogP>
2.24

>  <SMR>
83.78

>  <TopoPSA(NO)>
95.86

>  <TopoPSA>
95.86

>  <JGI1>
0.24

>  <JGI2>
0.08

>  <JGI3>
0.06

>  <JGI4>
0.05

>  <JGI5>
0.03

>  <Diameter>
9

>  <Radius>
5

>  <TMWC10>
124.66

>  <TSRW10>
72.26

>  <MW>
319.14

>  <AMW>
7.25

>  <WPath>
1057

>  <WPol>
40

>  <Zagreb1>
124

>  <Zagreb2>
150

>  <mZagreb2>
5.07

>  <yes>


>  <nAR-cont>
1

>  <nHA-cont>
0.967789328

>  <MWHBN>
0.391838784

>  <MWHBN-cont>
0.508215808

>  <TPSA-cont>
0.330837675

>  <pka_cont>
0.97

>  <yes.1>


>  <BBB_SCORE>
3.87678839

>  <MMFF94 Energy>
7.5121

$$$$
Compound 2989
Actelion Java MolfileCreator 2.0

  0  0  0  0  0  0              0 V3000
M  V30 BEGIN CTAB
M  V30 COUNTS 46 48 0 0 0
M  V30 BEGIN ATOM
M  V30 1 O 1.3423 -0.6315 -1.7373 0
M  V30 2 C 0.1311 -0.0705 -1.5193 0
M  V30 3 C 1.4506 -1.992 -1.316 0
M  V30 4 N -0.8936 -0.791 -1.0634 0
M  V30 5 C -0.1961 1.2825 -1.7498 0
M  V30 6 C 2.8822 -2.4646 -1.55 0
M  V30 7 N -1.8921 0.1188 -0.9676 0
M  V30 8 C -1.5359 1.3841 -1.3812 0
M  V30 9 C 0.4803 2.4225 -2.2209 0
M  V30 10 C 3.9641 -1.6593 -0.8169 0
M  V30 11 C -3.2071 -0.3141 -0.5094 0
M  V30 12 C -2.2442 2.5918 -1.4607 0
M  V30 13 C -0.2142 3.6341 -2.3076 0
M  V30 14 N 3.8994 -1.8365 0.6446 0
M  V30 15 C -3.4748 0.0856 0.9214 0
M  V30 16 C -1.5547 3.7146 -1.9321 0
M  V30 17 C 3.2874 -0.6718 1.2942 0
M  V30 18 C 5.2368 -2.0506 1.2034 0
M  V30 19 C -2.6552 -0.3808 1.9613 0
M  V30 20 C -4.5657 0.9089 1.2389 0
M  V30 21 C -2.9117 -0.0192 3.2845 0
M  V30 22 C -4.8204 1.2686 2.5637 0
M  V30 23 C -3.9931 0.806 3.5852 0
M  V30 24 H 0.7792 -2.6189 -1.9169 0
M  V30 25 H 1.1865 -2.1048 -0.2578 0
M  V30 26 H 2.9624 -3.5244 -1.2788 0
M  V30 27 H 3.096 -2.3953 -2.6245 0
M  V30 28 H 1.5247 2.3599 -2.5117 0
M  V30 29 H 4.9253 -2.0307 -1.1983 0
M  V30 30 H 3.9293 -0.6007 -1.1049 0
M  V30 31 H -3.9437 0.1178 -1.1965 0
M  V30 32 H -3.2659 -1.4042 -0.6112 0
M  V30 33 H -3.2846 2.6672 -1.1632 0
M  V30 34 H 0.2995 4.5216 -2.6697 0
M  V30 35 H -2.0738 4.6683 -2.0034 0
M  V30 36 H 2.2748 -0.4888 0.9249 0
M  V30 37 H 3.8749 0.2413 1.1419 0
M  V30 38 H 3.1951 -0.8429 2.3729 0
M  V30 39 H 5.9079 -1.2066 1.006 0
M  V30 40 H 5.6866 -2.9578 0.7844 0
M  V30 41 H 5.1828 -2.204 2.2872 0
M  V30 42 H -1.8054 -1.0272 1.7437 0
M  V30 43 H -5.2274 1.2782 0.4585 0
M  V30 44 H -2.2658 -0.3822 4.08 0
M  V30 45 H -5.6658 1.9099 2.8004 0
M  V30 46 H -4.1914 1.0872 4.6162 0
M  V30 END ATOM
M  V30 BEGIN BOND
M  V30 1 1 1 2
M  V30 2 1 1 3
M  V30 3 2 2 4
M  V30 4 1 2 5
M  V30 5 1 3 6
M  V30 6 1 4 7
M  V30 7 2 5 8
M  V30 8 1 5 9
M  V30 9 1 6 10
M  V30 10 1 7 11
M  V30 11 1 8 12
M  V30 12 2 9 13
M  V30 13 1 10 14
M  V30 14 1 11 15
M  V30 15 2 12 16
M  V30 16 1 14 17
M  V30 17 1 14 18
M  V30 18 2 15 19
M  V30 19 1 15 20
M  V30 20 1 19 21
M  V30 21 2 20 22
M  V30 22 2 21 23
M  V30 23 1 7 8
M  V30 24 1 13 16
M  V30 25 1 22 23
M  V30 26 1 3 24
M  V30 27 1 3 25
M  V30 28 1 6 26
M  V30 29 1 6 27
M  V30 30 1 9 28
M  V30 31 1 10 29
M  V30 32 1 10 30
M  V30 33 1 11 31
M  V30 34 1 11 32
M  V30 35 1 12 33
M  V30 36 1 13 34
M  V30 37 1 16 35
M  V30 38 1 17 36
M  V30 39 1 17 37
M  V30 40 1 17 38
M  V30 41 1 18 39
M  V30 42 1 18 40
M  V30 43 1 18 41
M  V30 44 1 19 42
M  V30 45 1 20 43
M  V30 46 1 21 44
M  V30 47 1 22 45
M  V30 48 1 23 46
M  V30 END BOND
M  V30 END CTAB
M  END
>  <Column 1>
3843

>  <level_0>
7238

>  <index>
7239

>  <Unnamed: 0>
7239

>  <NO.>
7252

>  <Name>
benzydamine

>  <IUPAC_name>
3-(1-benzylindazol-3-yl)oxy-n-n-dimethylpropan-1-amine

>  <SMILES>
CN(C)CCCOc1nn(Cc2ccccc2)c2ccccc12

>  <CID>
12555

>  <logBB>


>  <BBB+/BBB->
BBB+

>  <Inchi>
InChI=1S/C19H23N3O/c1-21(2)13-8-14-23-19-17-11-6-7-12-18(17)22(20-19)15-16-9-4-3-5-10-16/h3-7-9-12H-8-13-15H2-1-2H3

>  <threshold>


>  <reference>
R27|

>  <group>
C

>  <Class>
1

>  <ABC>
17.78

>  <ABCGG>
13.89

>  <nAcid>
0

>  <nBase>
1

>  <nAromAtom>
15

>  <nAromBond>
16

>  <nAtom>
46

>  <nHeavyAtom>
23

>  <nSpiro>
0

>  <nBridgehead>
0

>  <nHetero>
4

>  <nN>
3

>  <nO>
1

>  <nF>
0

>  <BalabanJ>
1.5

>  <BertzCT>
749.66

>  <nBonds>
48

>  <nBondsO>
25

>  <nBondsS>
32

>  <nBondsD>
0

>  <nBondsT>
0

>  <nBondsA>
16

>  <nBondsM>
16

>  <nBondsKS>
41

>  <nBondsKD>
7

>  <RNCG>
0.27

>  <RPCG>
0.14

>  <FCSP3>
0.32

>  <SZ>
27.67

>  <Sm>
25.76

>  <Sv>
28.22

>  <Sse>
45.53

>  <Sp>
30.64

>  <Si>
51.86

>  <MZ>
0.6

>  <Mm>
0.56

>  <Mv>
0.61

>  <Mse>
0.99

>  <Mp>
0.67

>  <Mi>
1.13

>  <NsCH3>
2

>  <NdCH2>
0

>  <NssCH2>
4

>  <NtCH>
0

>  <NdsCH>
0

>  <NaaCH>
9

>  <NsssCH>
0

>  <NddC>
0

>  <NtsC>
0

>  <NdssC>
0

>  <NaasC>
2

>  <NaaaC>
2

>  <NssssC>
0

>  <NsNH3>
0

>  <NsNH2>
0

>  <NssNH2>
0

>  <NdNH>
0

>  <NssNH>
0

>  <NaaNH>
0

>  <NtN>
0

>  <NsssNH>
0

>  <NdsN>
0

>  <NaaN>
1

>  <NsssN>
1

>  <NddsN>
0

>  <NaasN>
1

>  <NssssN>
0

>  <NsOH>
0

>  <NdO>
0

>  <NssO>
1

>  <NaaO>
0

>  <NsF>
0

>  <NsSiH3>
0

>  <NssSiH2>
0

>  <NsssSiH>
0

>  <NssssSi>
0

>  <NsPH2>
0

>  <NssPH>
0

>  <NsssP>
0

>  <NdsssP>
0

>  <NsssssP>
0

>  <NsSH>
0

>  <NdS>
0

>  <NssS>
0

>  <NaaS>
0

>  <NdssS>
0

>  <NddssS>
0

>  <NsCl>
0

>  <NsBr>
0

>  <NsI>
0

>  <fragCpx>
119.04

>  <fMF>
0.35

>  <nHBAcc>
4

>  <nHBDon>
0

>  <Kier1>
17.81

>  <Kier2>
8.91

>  <Lipinski>
1

>  <GhoseFilter>
1

>  <FilterItLogS>
-4.7

>  <VMcGowan>
251.7

>  <LabuteASA>
136.84

>  <PEOE_VSA1>
9.64

>  <PEOE_VSA2>
4.68

>  <PEOE_VSA3>
0

>  <PEOE_VSA4>
0

>  <PEOE_VSA5>
5.1

>  <PEOE_VSA6>
42.46

>  <PEOE_VSA7>
38.21

>  <PEOE_VSA8>
6.54

>  <PEOE_VSA9>
24.05

>  <PEOE_VSA10>
0

>  <PEOE_VSA11>
0

>  <PEOE_VSA12>
5.88

>  <PEOE_VSA13>
0

>  <SMR_VSA1>
4.74

>  <SMR_VSA2>
0

>  <SMR_VSA3>
14.68

>  <SMR_VSA4>
0

>  <SMR_VSA5>
12.97

>  <SMR_VSA6>
27.25

>  <SMR_VSA7>
60.16

>  <SMR_VSA8>
0

>  <SMR_VSA9>
5.88

>  <SlogP_VSA1>
4.74

>  <SlogP_VSA2>
41.93

>  <SlogP_VSA3>
6.54

>  <SlogP_VSA4>
0

>  <SlogP_VSA5>
11.98

>  <SlogP_VSA6>
54.6

>  <SlogP_VSA7>
0

>  <SlogP_VSA8>
10.9

>  <SlogP_VSA9>
0

>  <SlogP_VSA10>
0

>  <SlogP_VSA11>
5.88

>  <EState_VSA1>
0

>  <EState_VSA2>
0

>  <EState_VSA3>
6.61

>  <EState_VSA4>
36.29

>  <EState_VSA5>
5.56

>  <EState_VSA6>
0

>  <EState_VSA7>
22.88

>  <EState_VSA8>
60.49

>  <EState_VSA9>
4.74

>  <EState_VSA10>
0

>  <VSA_EState1>
7.95

>  <VSA_EState2>
2.16

>  <VSA_EState3>
5.76

>  <VSA_EState4>
2.35

>  <VSA_EState5>
0.73

>  <VSA_EState6>
18.62

>  <VSA_EState7>
0.99

>  <VSA_EState8>
2.45

>  <VSA_EState9>
4.15

>  <apol>
51.17

>  <bpol>
28.23

>  <nRing>
3

>  <nHRing>
1

>  <naRing>
3

>  <naHRing>
1

>  <nARing 2>
0

>  <nAHRing 2>
0

>  <nFRing>
1

>  <nFHRing>
1

>  <nFaRing>
1

>  <nFaHRing>
1

>  <nFARing 2>
0

>  <nFAHRing 2>
0

>  <nRot>
7

>  <SLogP>
3.42

>  <SMR>
93.94

>  <TopoPSA(NO)>
30.29

>  <TopoPSA>
30.29

>  <JGI1>
0.14

>  <JGI2>
0.05

>  <JGI3>
0.05

>  <JGI4>
0.02

>  <JGI5>
0.02

>  <Diameter>
13

>  <Radius>
7

>  <TMWC10>
121.78

>  <TSRW10>
71.19

>  <MW>
309.18

>  <AMW>
6.72

>  <WPath>
1307

>  <WPol>
31

>  <Zagreb1>
116

>  <Zagreb2>
133

>  <mZagreb2>
5.17

>  <yes>


>  <nAR-cont>
0.336376

>  <nHA-cont>
0.967789328

>  <MWHBN>
0.227485801

>  <MWHBN-cont>
0.989178673

>  <TPSA-cont>
0.788556991

>  <pka_cont>
0.97

>  <yes.1>


>  <BBB_SCORE>
4.850047319

>  <MMFF94 Energy>
66.903

$$$$
Compound 2990
Actelion Java MolfileCreator 2.0

  0  0  0  0  0  0              0 V3000
M  V30 BEGIN CTAB
M  V30 COUNTS 44 46 0 0 0
M  V30 BEGIN ATOM
M  V30 1 O 1.7448 -1.11 1.7448 0
M  V30 2 C 0.9128 -0.3678 2.5362 0
M  V30 3 C 2.883 -0.3297 1.372 0
M  V30 4 C 0.1076 0.6167 1.9584 0
M  V30 5 C 0.8623 -0.6457 3.9007 0
M  V30 6 C 2.6937 0.7022 0.2721 0
M  V30 7 C -0.729 1.3663 2.7991 0
M  V30 8 C 0.1036 0.8328 0.4537 0 CFG=1
M  V30 9 C 0.0239 0.1038 4.7228 0
M  V30 10 C 1.4572 1.2679 -0.1068 0
M  V30 11 C 3.8749 1.1753 -0.3415 0
M  V30 12 C -0.7656 1.1139 4.1735 0
M  V30 13 C -0.4858 -0.3986 -0.2832 0
M  V30 14 C 1.4536 2.2869 -1.0862 0
M  V30 15 C 3.8446 2.1742 -1.3128 0
M  V30 16 C -0.8639 -0.1136 -1.7447 0
M  V30 17 C 2.6312 2.7332 -1.6839 0
M  V30 18 C -1.5339 -1.3129 -2.4342 0
M  V30 19 N -2.7897 -1.7562 -1.8064 0
M  V30 20 C -3.2136 -3.0353 -2.3811 0
M  V30 21 C -3.8594 -0.7683 -1.9534 0
M  V30 22 H 3.6251 -1.0592 1.0242 0
M  V30 23 H 3.3192 0.1583 2.2557 0
M  V30 24 H 1.4768 -1.4368 4.3191 0
M  V30 25 H -1.3694 2.1435 2.3885 0
M  V30 26 H -0.5951 1.6637 0.2761 0
M  V30 27 H -0.0167 -0.1002 5.7892 0
M  V30 28 H 4.8405 0.7636 -0.0514 0
M  V30 29 H -1.4219 1.6979 4.814 0
M  V30 30 H 0.2158 -1.2411 -0.2649 0
M  V30 31 H -1.3829 -0.7292 0.2561 0
M  V30 32 H 0.5139 2.7404 -1.3978 0
M  V30 33 H 4.768 2.5187 -1.77 0
M  V30 34 H -1.5077 0.7709 -1.8029 0
M  V30 35 H 0.0414 0.1245 -2.3148 0
M  V30 36 H 2.5972 3.5161 -2.4366 0
M  V30 37 H -1.7001 -1.0688 -3.4918 0
M  V30 38 H -0.8112 -2.1395 -2.4153 0
M  V30 39 H -2.4475 -3.8026 -2.2229 0
M  V30 40 H -3.4111 -2.9598 -3.4566 0
M  V30 41 H -4.1223 -3.3981 -1.8874 0
M  V30 42 H -4.0614 -0.5306 -3.004 0
M  V30 43 H -3.6181 0.1599 -1.4261 0
M  V30 44 H -4.7878 -1.137 -1.5018 0
M  V30 END ATOM
M  V30 BEGIN BOND
M  V30 1 1 1 2
M  V30 2 1 1 3
M  V30 3 2 2 4
M  V30 4 1 2 5
M  V30 5 1 3 6
M  V30 6 1 4 7
M  V30 7 1 4 8
M  V30 8 2 5 9
M  V30 9 2 6 10
M  V30 10 1 6 11
M  V30 11 2 7 12
M  V30 12 1 8 13
M  V30 13 1 10 14
M  V30 14 2 11 15
M  V30 15 1 13 16
M  V30 16 2 14 17
M  V30 17 1 16 18
M  V30 18 1 18 19
M  V30 19 1 19 20
M  V30 20 1 19 21
M  V30 21 1 8 10
M  V30 22 1 9 12
M  V30 23 1 15 17
M  V30 24 1 3 22
M  V30 25 1 3 23
M  V30 26 1 5 24
M  V30 27 1 7 25
M  V30 28 1 8 26
M  V30 29 1 9 27
M  V30 30 1 11 28
M  V30 31 1 12 29
M  V30 32 1 13 30
M  V30 33 1 13 31
M  V30 34 1 14 32
M  V30 35 1 15 33
M  V30 36 1 16 34
M  V30 37 1 16 35
M  V30 38 1 17 36
M  V30 39 1 18 37
M  V30 40 1 18 38
M  V30 41 1 20 39
M  V30 42 1 20 40
M  V30 43 1 20 41
M  V30 44 1 21 42
M  V30 45 1 21 43
M  V30 46 1 21 44
M  V30 END BOND
M  V30 BEGIN COLLECTION
M  V30 MDLV30/STEABS ATOMS=(1 8)
M  V30 END COLLECTION
M  V30 END CTAB
M  END
>  <Column 1>
3844

>  <level_0>
7239

>  <index>
7240

>  <Unnamed: 0>
7240

>  <NO.>
7253

>  <Name>


>  <IUPAC_name>


>  <SMILES>
CN(C)CCC[C@@H]1c2ccccc2COc2ccccc21

>  <CID>


>  <logBB>


>  <BBB+/BBB->
BBB+

>  <Inchi>
InChI=1S/C19H23NO/c1-20(2)13-7-11-17-16-9-4-3-8-15(16)14-21-19-12-6-5-10-18(17)19/h3-6-8-10-12-17H-7-11-13-14H2-1-2H3/t17-/m1/s1

>  <threshold>


>  <reference>
R27|

>  <group>
C

>  <Class>
1

>  <ABC>
16.32

>  <ABCGG>
13.12

>  <nAcid>
0

>  <nBase>
1

>  <nAromAtom>
12

>  <nAromBond>
12

>  <nAtom>
44

>  <nHeavyAtom>
21

>  <nSpiro>
0

>  <nBridgehead>
0

>  <nHetero>
2

>  <nN>
1

>  <nO>
1

>  <nF>
0

>  <BalabanJ>
1.7

>  <BertzCT>
558.52

>  <nBonds>
46

>  <nBondsO>
23

>  <nBondsS>
34

>  <nBondsD>
0

>  <nBondsT>
0

>  <nBondsA>
12

>  <nBondsM>
12

>  <nBondsKS>
40

>  <nBondsKD>
6

>  <RNCG>
0.35

>  <RPCG>
0.09

>  <FCSP3>
0.37

>  <SZ>
25.33

>  <Sm>
23.43

>  <Sv>
26.7

>  <Sse>
43.2

>  <Sp>
29.32

>  <Si>
49.28

>  <MZ>
0.58

>  <Mm>
0.53

>  <Mv>
0.61

>  <Mse>
0.98

>  <Mp>
0.67

>  <Mi>
1.12

>  <NsCH3>
2

>  <NdCH2>
0

>  <NssCH2>
4

>  <NtCH>
0

>  <NdsCH>
0

>  <NaaCH>
8

>  <NsssCH>
1

>  <NddC>
0

>  <NtsC>
0

>  <NdssC>
0

>  <NaasC>
4

>  <NaaaC>
0

>  <NssssC>
0

>  <NsNH3>
0

>  <NsNH2>
0

>  <NssNH2>
0

>  <NdNH>
0

>  <NssNH>
0

>  <NaaNH>
0

>  <NtN>
0

>  <NsssNH>
0

>  <NdsN>
0

>  <NaaN>
0

>  <NsssN>
1

>  <NddsN>
0

>  <NaasN>
0

>  <NssssN>
0

>  <NsOH>
0

>  <NdO>
0

>  <NssO>
1

>  <NaaO>
0

>  <NsF>
0

>  <NsSiH3>
0

>  <NssSiH2>
0

>  <NsssSiH>
0

>  <NssssSi>
0

>  <NsPH2>
0

>  <NssPH>
0

>  <NsssP>
0

>  <NdsssP>
0

>  <NsssssP>
0

>  <NsSH>
0

>  <NdS>
0

>  <NssS>
0

>  <NaaS>
0

>  <NdssS>
0

>  <NddssS>
0

>  <NsCl>
0

>  <NsBr>
0

>  <NsI>
0

>  <fragCpx>
109.02

>  <fMF>
0.34

>  <nHBAcc>
2

>  <nHBDon>
0

>  <Kier1>
15.88

>  <Kier2>
7.51

>  <Lipinski>
1

>  <GhoseFilter>
1

>  <FilterItLogS>
-5.09

>  <VMcGowan>
236.04

>  <LabuteASA>
126.91

>  <PEOE_VSA1>
9.64

>  <PEOE_VSA2>
0

>  <PEOE_VSA3>
0

>  <PEOE_VSA4>
0

>  <PEOE_VSA5>
0

>  <PEOE_VSA6>
42.46

>  <PEOE_VSA7>
50.68

>  <PEOE_VSA8>
11.48

>  <PEOE_VSA9>
0

>  <PEOE_VSA10>
12.36

>  <PEOE_VSA11>
0

>  <PEOE_VSA12>
0

>  <PEOE_VSA13>
0

>  <SMR_VSA1>
4.74

>  <SMR_VSA2>
0

>  <SMR_VSA3>
4.9

>  <SMR_VSA4>
0

>  <SMR_VSA5>
25.37

>  <SMR_VSA6>
20.64

>  <SMR_VSA7>
65.22

>  <SMR_VSA8>
0

>  <SMR_VSA9>
5.75

>  <SlogP_VSA1>
4.74

>  <SlogP_VSA2>
25.54

>  <SlogP_VSA3>
6.61

>  <SlogP_VSA4>
0

>  <SlogP_VSA5>
35.45

>  <SlogP_VSA6>
48.53

>  <SlogP_VSA7>
0

>  <SlogP_VSA8>
0

>  <SlogP_VSA9>
0

>  <SlogP_VSA10>
0

>  <SlogP_VSA11>
5.75

>  <EState_VSA1>
0

>  <EState_VSA2>
0

>  <EState_VSA3>
12.52

>  <EState_VSA4>
18.72

>  <EState_VSA5>
23.11

>  <EState_VSA6>
0

>  <EState_VSA7>
0

>  <EState_VSA8>
67.53

>  <EState_VSA9>
4.74

>  <EState_VSA10>
0

>  <VSA_EState1>
6.02

>  <VSA_EState2>
2.25

>  <VSA_EState3>
0

>  <VSA_EState4>
4.09

>  <VSA_EState5>
1.49

>  <VSA_EState6>
17.21

>  <VSA_EState7>
2.36

>  <VSA_EState8>
1.8

>  <VSA_EState9>
4.27

>  <apol>
48.97

>  <bpol>
26.52

>  <nRing>
3

>  <nHRing>
1

>  <naRing>
2

>  <naHRing>
0

>  <nARing 2>
1

>  <nAHRing 2>
1

>  <nFRing>
1

>  <nFHRing>
1

>  <nFaRing>
0

>  <nFaHRing>
0

>  <nFARing 2>
1

>  <nFAHRing 2>
1

>  <nRot>
4

>  <SLogP>
4.05

>  <SMR>
86.85

>  <TopoPSA(NO)>
12.47

>  <TopoPSA>
12.47

>  <JGI1>
0.13

>  <JGI2>
0.07

>  <JGI3>
0.04

>  <JGI4>
0.03

>  <JGI5>
0.01

>  <Diameter>
9

>  <Radius>
5

>  <TMWC10>
117.56

>  <TSRW10>
62.81

>  <MW>
281.18

>  <AMW>
6.39

>  <WPath>
882

>  <WPol>
35

>  <Zagreb1>
108

>  <Zagreb2>
126

>  <mZagreb2>
4.69

>  <yes>


>  <nAR-cont>
0.816016

>  <nHA-cont>
0.994529749

>  <MWHBN>
0.119271802

>  <MWHBN-cont>
0.826219601

>  <TPSA-cont>
0.912951657

>  <pka_cont>
0.97

>  <yes.1>


>  <BBB_SCORE>
5.360778464

>  <MMFF94 Energy>
77.002

$$$$
Compound 2991
Actelion Java MolfileCreator 2.0

  0  0  0  0  0  0              0 V3000
M  V30 BEGIN CTAB
M  V30 COUNTS 37 38 0 0 0
M  V30 BEGIN ATOM
M  V30 1 Cl 1.5898 5.3335 -1.4307 0
M  V30 2 C 1.2772 3.6641 -1.1596 0
M  V30 3 C -0.0263 3.1833 -1.2274 0
M  V30 4 C 2.3299 2.7994 -0.8742 0
M  V30 5 C -0.2749 1.8254 -1.0072 0
M  V30 6 C 2.075 1.4418 -0.6525 0
M  V30 7 C 0.7691 0.9306 -0.7151 0
M  V30 8 N 0.4914 -0.432 -0.485 0
M  V30 9 C -0.1788 -1.3196 -1.3636 0
M  V30 10 C 1.0835 -1.0491 0.7278 0
M  V30 11 N -0.555 -2.545 -0.9272 0
M  V30 12 C -0.4436 -0.9514 -2.6884 0
M  V30 13 C 0.7778 -0.2908 2.0508 0
M  V30 14 C -1.1995 -3.3802 -1.7732 0
M  V30 15 C -1.107 -1.8265 -3.5505 0
M  V30 16 N -0.4584 -0.6788 2.7679 0
M  V30 17 C -1.4986 -3.0689 -3.0834 0
M  V30 18 C -1.6591 -0.3839 1.9858 0
M  V30 19 C -0.5257 0.0108 4.0585 0
M  V30 20 H -0.853 3.8539 -1.445 0
M  V30 21 H 3.3503 3.17 -0.827 0
M  V30 22 H -1.3008 1.4637 -1.0437 0
M  V30 23 H 2.9155 0.782 -0.4543 0
M  V30 24 H 2.1728 -1.089 0.5948 0
M  V30 25 H 0.7939 -2.0966 0.8736 0
M  V30 26 H -0.1207 0.0085 -3.0762 0
M  V30 27 H 1.6157 -0.529 2.7204 0
M  V30 28 H 0.8069 0.7957 1.9087 0
M  V30 29 H -1.4756 -4.3406 -1.3477 0
M  V30 30 H -1.3065 -1.5342 -4.5772 0
M  V30 31 H -2.0154 -3.776 -3.7213 0
M  V30 32 H -1.7128 -1.0078 1.0914 0
M  V30 33 H -1.7128 0.6696 1.6896 0
M  V30 34 H -2.5609 -0.6194 2.5633 0
M  V30 35 H -0.5676 1.1002 3.9441 0
M  V30 36 H 0.3444 -0.2386 4.6759 0
M  V30 37 H -1.4086 -0.3111 4.6223 0
M  V30 END ATOM
M  V30 BEGIN BOND
M  V30 1 1 1 2
M  V30 2 2 2 3
M  V30 3 1 2 4
M  V30 4 1 3 5
M  V30 5 2 4 6
M  V30 6 2 5 7
M  V30 7 1 7 8
M  V30 8 1 8 9
M  V30 9 1 8 10
M  V30 10 2 9 11
M  V30 11 1 9 12
M  V30 12 1 10 13
M  V30 13 1 11 14
M  V30 14 2 12 15
M  V30 15 1 13 16
M  V30 16 2 14 17
M  V30 17 1 16 18
M  V30 18 1 16 19
M  V30 19 1 6 7
M  V30 20 1 15 17
M  V30 21 1 3 20
M  V30 22 1 4 21
M  V30 23 1 5 22
M  V30 24 1 6 23
M  V30 25 1 10 24
M  V30 26 1 10 25
M  V30 27 1 12 26
M  V30 28 1 13 27
M  V30 29 1 13 28
M  V30 30 1 14 29
M  V30 31 1 15 30
M  V30 32 1 17 31
M  V30 33 1 18 32
M  V30 34 1 18 33
M  V30 35 1 18 34
M  V30 36 1 19 35
M  V30 37 1 19 36
M  V30 38 1 19 37
M  V30 END BOND
M  V30 END CTAB
M  END
>  <Column 1>
3845

>  <level_0>
7240

>  <index>
7241

>  <Unnamed: 0>
7241

>  <NO.>
7254

>  <Name>


>  <IUPAC_name>


>  <SMILES>
CN(C)CCN(c1ccc(Cl)cc1)c1ccccn1

>  <CID>


>  <logBB>


>  <BBB+/BBB->
BBB+

>  <Inchi>
InChI=1S/C15H18ClN3/c1-18(2)11-12-19(15-5-3-4-10-17-15)14-8-6-13(16)7-9-14/h3-10H-11-12H2-1-2H3

>  <threshold>


>  <reference>
R27|

>  <group>
C

>  <Class>
1

>  <ABC>
14.39

>  <ABCGG>
12.22

>  <nAcid>
0

>  <nBase>
1

>  <nAromAtom>
12

>  <nAromBond>
12

>  <nAtom>
37

>  <nHeavyAtom>
19

>  <nSpiro>
0

>  <nBridgehead>
0

>  <nHetero>
4

>  <nN>
3

>  <nO>
0

>  <nF>
0

>  <BalabanJ>
1.92

>  <BertzCT>
496.56

>  <nBonds>
38

>  <nBondsO>
20

>  <nBondsS>
26

>  <nBondsD>
0

>  <nBondsT>
0

>  <nBondsA>
12

>  <nBondsM>
12

>  <nBondsKS>
32

>  <nBondsKD>
6

>  <RNCG>
0.26

>  <RPCG>
0.11

>  <FCSP3>
0.27

>  <SZ>
24.33

>  <Sm>
22.96

>  <Sv>
23.24

>  <Sse>
36.75

>  <Sp>
25.47

>  <Si>
41.76

>  <MZ>
0.66

>  <Mm>
0.62

>  <Mv>
0.63

>  <Mse>
0.99

>  <Mp>
0.69

>  <Mi>
1.13

>  <NsCH3>
2

>  <NdCH2>
0

>  <NssCH2>
2

>  <NtCH>
0

>  <NdsCH>
0

>  <NaaCH>
8

>  <NsssCH>
0

>  <NddC>
0

>  <NtsC>
0

>  <NdssC>
0

>  <NaasC>
3

>  <NaaaC>
0

>  <NssssC>
0

>  <NsNH3>
0

>  <NsNH2>
0

>  <NssNH2>
0

>  <NdNH>
0

>  <NssNH>
0

>  <NaaNH>
0

>  <NtN>
0

>  <NsssNH>
0

>  <NdsN>
0

>  <NaaN>
1

>  <NsssN>
2

>  <NddsN>
0

>  <NaasN>
0

>  <NssssN>
0

>  <NsOH>
0

>  <NdO>
0

>  <NssO>
0

>  <NaaO>
0

>  <NsF>
0

>  <NsSiH3>
0

>  <NssSiH2>
0

>  <NsssSiH>
0

>  <NssssSi>
0

>  <NsPH2>
0

>  <NssPH>
0

>  <NsssP>
0

>  <NdsssP>
0

>  <NsssssP>
0

>  <NsSH>
0

>  <NdS>
0

>  <NssS>
0

>  <NaaS>
0

>  <NdssS>
0

>  <NddssS>
0

>  <NsCl>
1

>  <NsBr>
0

>  <NsI>
0

>  <fragCpx>
58.04

>  <fMF>
0.35

>  <nHBAcc>
3

>  <nHBDon>
0

>  <Kier1>
15.39

>  <Kier2>
7.7

>  <Lipinski>
1

>  <GhoseFilter>
1

>  <FilterItLogS>
-4.2

>  <VMcGowan>
216.87

>  <LabuteASA>
118.99

>  <PEOE_VSA1>
9.8

>  <PEOE_VSA2>
0

>  <PEOE_VSA3>
4.98

>  <PEOE_VSA4>
0

>  <PEOE_VSA5>
0

>  <PEOE_VSA6>
17.67

>  <PEOE_VSA7>
50.49

>  <PEOE_VSA8>
30

>  <PEOE_VSA9>
0

>  <PEOE_VSA10>
5.82

>  <PEOE_VSA11>
0

>  <PEOE_VSA12>
0

>  <PEOE_VSA13>
0

>  <SMR_VSA1>
0

>  <SMR_VSA2>
0

>  <SMR_VSA3>
9.88

>  <SMR_VSA4>
0

>  <SMR_VSA5>
0

>  <SMR_VSA6>
32.08

>  <SMR_VSA7>
53.68

>  <SMR_VSA8>
0

>  <SMR_VSA9>
0

>  <SlogP_VSA1>
4.9

>  <SlogP_VSA2>
37.07

>  <SlogP_VSA3>
0

>  <SlogP_VSA4>
0

>  <SlogP_VSA5>
0

>  <SlogP_VSA6>
48.66

>  <SlogP_VSA7>
5.02

>  <SlogP_VSA8>
0

>  <SlogP_VSA9>
0

>  <SlogP_VSA10>
11.51

>  <SlogP_VSA11>
0

>  <EState_VSA1>
0

>  <EState_VSA2>
0

>  <EState_VSA3>
0

>  <EState_VSA4>
29.62

>  <EState_VSA5>
0

>  <EState_VSA6>
0

>  <EState_VSA7>
48.66

>  <EState_VSA8>
28.88

>  <EState_VSA9>
11.6

>  <EState_VSA10>
0

>  <VSA_EState1>
0

>  <VSA_EState2>
8.78

>  <VSA_EState3>
0.75

>  <VSA_EState4>
1.1

>  <VSA_EState5>
0.95

>  <VSA_EState6>
13.8

>  <VSA_EState7>
1.81

>  <VSA_EState8>
1.84

>  <VSA_EState9>
4.14

>  <apol>
42.53

>  <bpol>
23.13

>  <nRing>
2

>  <nHRing>
1

>  <naRing>
2

>  <naHRing>
1

>  <nARing 2>
0

>  <nAHRing 2>
0

>  <nFRing>
0

>  <nFHRing>
0

>  <nFaRing>
0

>  <nFaHRing>
0

>  <nFARing 2>
0

>  <nFAHRing 2>
0

>  <nRot>
5

>  <SLogP>
3.43

>  <SMR>
81.25

>  <TopoPSA(NO)>
19.37

>  <TopoPSA>
19.37

>  <JGI1>
0.18

>  <JGI2>
0.08

>  <JGI3>
0.04

>  <JGI4>
0.02

>  <JGI5>
0.02

>  <Diameter>
9

>  <Radius>
5

>  <TMWC10>
109.75

>  <TSRW10>
51.68

>  <MW>
275.12

>  <AMW>
7.44

>  <WPath>
718

>  <WPol>
25

>  <Zagreb1>
92

>  <Zagreb2>
103

>  <mZagreb2>
4.31

>  <yes>


>  <nAR-cont>
0.336376

>  <nHA-cont>
0.998649058

>  <MWHBN>
0.180867349

>  <MWHBN-cont>
0.988082926

>  <TPSA-cont>
0.864785372

>  <pka_cont>
0.97

>  <yes.1>


>  <BBB_SCORE>
5.03172019

>  <MMFF94 Energy>
48.667

$$$$
Compound 2992
Actelion Java MolfileCreator 2.0

  0  0  0  0  0  0              0 V3000
M  V30 BEGIN CTAB
M  V30 COUNTS 33 35 0 0 0
M  V30 BEGIN ATOM
M  V30 1 Cl 1.0109 4.3861 5.7385 0
M  V30 2 C 0.8273 3.5668 4.2409 0
M  V30 3 S 1.6574 2.115 3.9706 0
M  V30 4 C 0.0521 3.9639 3.1843 0
M  V30 5 C 0.9945 1.955 2.3876 0
M  V30 6 C 0.1628 3.0195 2.1322 0
M  V30 7 C 1.2743 0.8721 1.5035 0
M  V30 8 S -0.5958 3.09 0.6067 0
M  V30 9 O 2.3178 0.059 1.9155 0
M  V30 10 C 0.562 0.664 0.3703 0
M  V30 11 O 0.2514 3.9687 -0.1667 0
M  V30 12 O -1.9767 3.4012 0.8997 0
M  V30 13 N -0.5296 1.5265 -0.0646 0
M  V30 14 C 0.8484 -0.6164 -0.3626 0
M  V30 15 C -0.93 1.51 -1.4964 0
M  V30 16 O 2.0142 -0.959 -0.5327 0
M  V30 17 N -0.2936 -1.3274 -0.6499 0
M  V30 18 C -0.3267 -2.515 -1.3856 0
M  V30 19 N 0.6875 -2.8213 -2.212 0
M  V30 20 C -1.4606 -3.3136 -1.2718 0
M  V30 21 C 0.5965 -3.9662 -2.9226 0
M  V30 22 C -1.5367 -4.4874 -2.019 0
M  V30 23 C -0.486 -4.8247 -2.8612 0
M  V30 24 H -0.5503 4.8636 3.1621 0
M  V30 25 H 2.604 -0.5055 1.1625 0
M  V30 26 H -0.0527 1.4671 -2.1488 0
M  V30 27 H -1.5066 2.4022 -1.7633 0
M  V30 28 H -1.5858 0.6597 -1.6986 0
M  V30 29 H -1.1668 -0.9951 -0.2652 0
M  V30 30 H -2.2764 -3.0476 -0.6087 0
M  V30 31 H 1.447 -4.1787 -3.5642 0
M  V30 32 H -2.4069 -5.1331 -1.9415 0
M  V30 33 H -0.5085 -5.732 -3.4544 0
M  V30 END ATOM
M  V30 BEGIN BOND
M  V30 1 1 1 2
M  V30 2 1 2 3
M  V30 3 2 2 4
M  V30 4 1 3 5
M  V30 5 1 4 6
M  V30 6 1 5 7
M  V30 7 1 6 8
M  V30 8 1 7 9
M  V30 9 2 7 10
M  V30 10 2 8 11
M  V30 11 2 8 12
M  V30 12 1 8 13
M  V30 13 1 10 14
M  V30 14 1 13 15
M  V30 15 2 14 16
M  V30 16 1 14 17
M  V30 17 1 17 18
M  V30 18 2 18 19
M  V30 19 1 18 20
M  V30 20 1 19 21
M  V30 21 2 20 22
M  V30 22 2 21 23
M  V30 23 2 5 6
M  V30 24 1 10 13
M  V30 25 1 22 23
M  V30 26 1 4 24
M  V30 27 1 9 25
M  V30 28 1 15 26
M  V30 29 1 15 27
M  V30 30 1 15 28
M  V30 31 1 17 29
M  V30 32 1 20 30
M  V30 33 1 21 31
M  V30 34 1 22 32
M  V30 35 1 23 33
M  V30 END BOND
M  V30 END CTAB
M  END
>  <Column 1>
3847

>  <level_0>
7269

>  <index>
7270

>  <Unnamed: 0>
7270

>  <NO.>
7283

>  <Name>
lornoxicam

>  <IUPAC_name>
6-chloro-4-hydroxy-2-methyl-1-1-dioxo-n-pyridin-2-ylthieno[2-3-e]thiazine-3-carboxamide

>  <SMILES>
CN1C(C(=O)Nc2ccccn2)=C(O)c2sc(Cl)cc2S1(=O)=O

>  <CID>
54690031

>  <logBB>


>  <BBB+/BBB->
BBB+

>  <Inchi>
InChI=1S/C13H10ClN3O4S2/c1-17-10(13(19)16-9-4-2-3-5-15-9)11(18)12-7(23(17-20)21)6-8(14)22-12/h2-6-18H-1H3-(H-15-16-19)

>  <threshold>


>  <reference>
R27|

>  <group>
C

>  <Class>
1

>  <ABC>
18.11

>  <ABCGG>
15.64

>  <nAcid>
0

>  <nBase>
0

>  <nAromAtom>
11

>  <nAromBond>
11

>  <nAtom>
33

>  <nHeavyAtom>
23

>  <nSpiro>
0

>  <nBridgehead>
0

>  <nHetero>
10

>  <nN>
3

>  <nO>
4

>  <nF>
0

>  <BalabanJ>
1.74

>  <BertzCT>
921.95

>  <nBonds>
35

>  <nBondsO>
25

>  <nBondsS>
20

>  <nBondsD>
4

>  <nBondsT>
0

>  <nBondsA>
11

>  <nBondsM>
15

>  <nBondsKS>
26

>  <nBondsKD>
9

>  <RNCG>
0.22

>  <RPCG>
0.13

>  <FCSP3>
0.08

>  <SZ>
31.67

>  <Sm>
30.96

>  <Sv>
24.31

>  <Sse>
34.67

>  <Sp>
25.67

>  <Si>
36.78

>  <MZ>
0.96

>  <Mm>
0.94

>  <Mv>
0.74

>  <Mse>
1.05

>  <Mp>
0.78

>  <Mi>
1.11

>  <NsCH3>
1

>  <NdCH2>
0

>  <NssCH2>
0

>  <NtCH>
0

>  <NdsCH>
0

>  <NaaCH>
5

>  <NsssCH>
0

>  <NddC>
0

>  <NtsC>
0

>  <NdssC>
3

>  <NaasC>
4

>  <NaaaC>
0

>  <NssssC>
0

>  <NsNH3>
0

>  <NsNH2>
0

>  <NssNH2>
0

>  <NdNH>
0

>  <NssNH>
1

>  <NaaNH>
0

>  <NtN>
0

>  <NsssNH>
0

>  <NdsN>
0

>  <NaaN>
1

>  <NsssN>
1

>  <NddsN>
0

>  <NaasN>
0

>  <NssssN>
0

>  <NsOH>
1

>  <NdO>
3

>  <NssO>
0

>  <NaaO>
0

>  <NsF>
0

>  <NsSiH3>
0

>  <NssSiH2>
0

>  <NsssSiH>
0

>  <NssssSi>
0

>  <NsPH2>
0

>  <NssPH>
0

>  <NsssP>
0

>  <NdsssP>
0

>  <NsssssP>
0

>  <NsSH>
0

>  <NdS>
0

>  <NssS>
0

>  <NaaS>
1

>  <NdssS>
0

>  <NddssS>
1

>  <NsCl>
1

>  <NsBr>
0

>  <NsI>
0

>  <fragCpx>
119.1

>  <fMF>
0.52

>  <nHBAcc>
6

>  <nHBDon>
2

>  <Kier1>
17.81

>  <Kier2>
6.72

>  <Lipinski>
1

>  <GhoseFilter>
1

>  <FilterItLogS>
-3.21

>  <VMcGowan>
229.71

>  <LabuteASA>
140.44

>  <PEOE_VSA1>
10.42

>  <PEOE_VSA2>
9.1

>  <PEOE_VSA3>
13.4

>  <PEOE_VSA4>
0

>  <PEOE_VSA5>
11.34

>  <PEOE_VSA6>
17.67

>  <PEOE_VSA7>
18.2

>  <PEOE_VSA8>
13.24

>  <PEOE_VSA9>
9.21

>  <PEOE_VSA10>
10.71

>  <PEOE_VSA11>
11.46

>  <PEOE_VSA12>
0

>  <PEOE_VSA13>
15.93

>  <SMR_VSA1>
18.32

>  <SMR_VSA2>
0

>  <SMR_VSA3>
9.29

>  <SMR_VSA4>
0

>  <SMR_VSA5>
4.9

>  <SMR_VSA6>
12.36

>  <SMR_VSA7>
45.37

>  <SMR_VSA8>
0

>  <SMR_VSA9>
0

>  <SlogP_VSA1>
5.32

>  <SlogP_VSA2>
35.77

>  <SlogP_VSA3>
14.82

>  <SlogP_VSA4>
0

>  <SlogP_VSA5>
4.88

>  <SlogP_VSA6>
41.05

>  <SlogP_VSA7>
4.34

>  <SlogP_VSA8>
5.76

>  <SlogP_VSA9>
0

>  <SlogP_VSA10>
5.82

>  <SlogP_VSA11>
0

>  <EState_VSA1>
21.69

>  <EState_VSA2>
25.62

>  <EState_VSA3>
0

>  <EState_VSA4>
15.64

>  <EState_VSA5>
19.31

>  <EState_VSA6>
18.2

>  <EState_VSA7>
0

>  <EState_VSA8>
10.3

>  <EState_VSA9>
11.6

>  <EState_VSA10>
18.32

>  <VSA_EState1>
25.85

>  <VSA_EState2>
16.23

>  <VSA_EState3>
12.78

>  <VSA_EState4>
-0.39

>  <VSA_EState5>
-1

>  <VSA_EState6>
6.12

>  <VSA_EState7>
1.47

>  <VSA_EState8>
0

>  <VSA_EState9>
-2.77

>  <apol>
42.87

>  <bpol>
23.95

>  <nRing>
3

>  <nHRing>
3

>  <naRing>
2

>  <naHRing>
2

>  <nARing 2>
1

>  <nAHRing 2>
1

>  <nFRing>
1

>  <nFHRing>
1

>  <nFaRing>
0

>  <nFaHRing>
0

>  <nFARing 2>
1

>  <nFAHRing 2>
1

>  <nRot>
2

>  <SLogP>
2.3

>  <SMR>
86.69

>  <TopoPSA(NO)>
99.6

>  <TopoPSA>
136.22

>  <JGI1>
0.24

>  <JGI2>
0.09

>  <JGI3>
0.07

>  <JGI4>
0.07

>  <JGI5>
0.03

>  <Diameter>
11

>  <Radius>
6

>  <TMWC10>
124.53

>  <TSRW10>
72.02

>  <MW>
370.98

>  <AMW>
11.24

>  <WPath>
1115

>  <WPol>
41

>  <Zagreb1>
126

>  <Zagreb2>
153

>  <mZagreb2>
4.89

>  <yes>


>  <nAR-cont>
0.816016

>  <nHA-cont>
0.967789328

>  <MWHBN>
0.415350501

>  <MWHBN-cont>
0.415968115

>  <TPSA-cont>
0

>  <pka_cont>
0.97

>  <yes.1>


>  <BBB_SCORE>
2.892757501

>  <MMFF94 Energy>
-22.629

$$$$
Compound 2993
Actelion Java MolfileCreator 2.0

  0  0  0  0  0  0              0 V3000
M  V30 BEGIN CTAB
M  V30 COUNTS 32 34 0 0 0
M  V30 BEGIN ATOM
M  V30 1 S 2.4952 0.9143 1.4134 0
M  V30 2 O 3.1106 0.1455 0.3531 0
M  V30 3 O 3.0715 2.136 1.9264 0
M  V30 4 N 0.8791 1.1727 1.0036 0
M  V30 5 C 2.4525 -0.1487 2.756 0
M  V30 6 C -0.022 0.0538 1.1509 0
M  V30 7 C 0.607 2.2746 0.0721 0
M  V30 8 C 1.308 -0.8858 2.9417 0
M  V30 9 C 3.4614 -0.3744 3.7236 0
M  V30 10 C -1.2078 -0.1075 0.2514 0
M  V30 11 C 0.1566 -0.8738 2.1104 0
M  V30 12 S 1.4638 -1.8938 4.3149 0
M  V30 13 C 3.0462 -1.3115 4.6458 0
M  V30 14 O -2.3323 -0.1988 0.7241 0
M  V30 15 N -0.8183 -0.2069 -1.0679 0
M  V30 16 C -1.6944 -0.2787 -2.1543 0
M  V30 17 N -2.9608 0.153 -2.0308 0
M  V30 18 C -1.185 -0.7494 -3.3609 0
M  V30 19 C -3.7584 0.087 -3.1186 0
M  V30 20 C -2.0231 -0.8026 -4.4732 0
M  V30 21 C -3.3394 -0.3785 -4.3516 0
M  V30 22 H -0.4532 2.5457 0.0887 0
M  V30 23 H 0.8937 2.0029 -0.9474 0
M  V30 24 H 1.1609 3.172 0.365 0
M  V30 25 H 4.4262 0.118 3.7473 0
M  V30 26 H -0.5774 -1.6698 2.2285 0
M  V30 27 H 3.592 -1.6893 5.5 0
M  V30 28 H 0.1702 -0.2662 -1.2688 0
M  V30 29 H -0.157 -1.0834 -3.4487 0
M  V30 30 H -4.7768 0.432 -2.9636 0
M  V30 31 H -1.6516 -1.1743 -5.4238 0
M  V30 32 H -4.0217 -0.4094 -5.1935 0
M  V30 END ATOM
M  V30 BEGIN BOND
M  V30 1 2 1 2
M  V30 2 2 1 3
M  V30 3 1 1 4
M  V30 4 1 1 5
M  V30 5 1 4 6
M  V30 6 1 4 7
M  V30 7 2 5 8
M  V30 8 1 5 9
M  V30 9 1 6 10
M  V30 10 2 6 11
M  V30 11 1 8 12
M  V30 12 2 9 13
M  V30 13 2 10 14
M  V30 14 1 10 15
M  V30 15 1 15 16
M  V30 16 2 16 17
M  V30 17 1 16 18
M  V30 18 1 17 19
M  V30 19 2 18 20
M  V30 20 2 19 21
M  V30 21 1 8 11
M  V30 22 1 12 13
M  V30 23 1 20 21
M  V30 24 1 7 22
M  V30 25 1 7 23
M  V30 26 1 7 24
M  V30 27 1 9 25
M  V30 28 1 11 26
M  V30 29 1 13 27
M  V30 30 1 15 28
M  V30 31 1 18 29
M  V30 32 1 19 30
M  V30 33 1 20 31
M  V30 34 1 21 32
M  V30 END BOND
M  V30 END CTAB
M  END
>  <Column 1>
3848

>  <level_0>
7270

>  <index>
7271

>  <Unnamed: 0>
7271

>  <NO.>
7284

>  <Name>
cn1s(c2=c(c=c1c(=o)nc1=nc=cc=c1)sc=c2)(=o)=o

>  <IUPAC_name>
2-methyl-1-1-dioxo-n-pyridin-2-ylthieno[2-3-e]thiazine-3-carboxamide

>  <SMILES>
CN1C(C(=O)Nc2ccccn2)=Cc2sccc2S1(=O)=O

>  <CID>
140997229

>  <logBB>


>  <BBB+/BBB->
BBB+

>  <Inchi>
InChI=1S/C13H11N3O3S2/c1-16-9(13(17)15-12-4-2-3-6-14-12)8-10-11(5-7-20-10)21(16-18)19/h2-8H-1H3-(H-14-15-17)

>  <threshold>


>  <reference>
R27|

>  <group>
C

>  <Class>
1

>  <ABC>
16.56

>  <ABCGG>
14.27

>  <nAcid>
0

>  <nBase>
0

>  <nAromAtom>
11

>  <nAromBond>
11

>  <nAtom>
32

>  <nHeavyAtom>
21

>  <nSpiro>
0

>  <nBridgehead>
0

>  <nHetero>
8

>  <nN>
3

>  <nO>
3

>  <nF>
0

>  <BalabanJ>
1.66

>  <BertzCT>
825.36

>  <nBonds>
34

>  <nBondsO>
23

>  <nBondsS>
19

>  <nBondsD>
4

>  <nBondsT>
0

>  <nBondsA>
11

>  <nBondsM>
15

>  <nBondsKS>
25

>  <nBondsKD>
9

>  <RNCG>
0.17

>  <RPCG>
0.15

>  <FCSP3>
0.08

>  <SZ>
27.67

>  <Sm>
26.76

>  <Sv>
22.77

>  <Sse>
33.02

>  <Sp>
24.28

>  <Si>
35.62

>  <MZ>
0.86

>  <Mm>
0.84

>  <Mv>
0.71

>  <Mse>
1.03

>  <Mp>
0.76

>  <Mi>
1.11

>  <NsCH3>
1

>  <NdCH2>
0

>  <NssCH2>
0

>  <NtCH>
0

>  <NdsCH>
1

>  <NaaCH>
6

>  <NsssCH>
0

>  <NddC>
0

>  <NtsC>
0

>  <NdssC>
2

>  <NaasC>
3

>  <NaaaC>
0

>  <NssssC>
0

>  <NsNH3>
0

>  <NsNH2>
0

>  <NssNH2>
0

>  <NdNH>
0

>  <NssNH>
1

>  <NaaNH>
0

>  <NtN>
0

>  <NsssNH>
0

>  <NdsN>
0

>  <NaaN>
1

>  <NsssN>
1

>  <NddsN>
0

>  <NaasN>
0

>  <NssssN>
0

>  <NsOH>
0

>  <NdO>
3

>  <NssO>
0

>  <NaaO>
0

>  <NsF>
0

>  <NsSiH3>
0

>  <NssSiH2>
0

>  <NsssSiH>
0

>  <NssssSi>
0

>  <NsPH2>
0

>  <NssPH>
0

>  <NsssP>
0

>  <NdsssP>
0

>  <NsssssP>
0

>  <NsSH>
0

>  <NdS>
0

>  <NssS>
0

>  <NaaS>
1

>  <NdssS>
0

>  <NddssS>
1

>  <NsCl>
0

>  <NsBr>
0

>  <NsI>
0

>  <fragCpx>
109.08

>  <fMF>
0.53

>  <nHBAcc>
5

>  <nHBDon>
1

>  <Kier1>
15.88

>  <Kier2>
6.25

>  <Lipinski>
1

>  <GhoseFilter>
1

>  <FilterItLogS>
-2.83

>  <VMcGowan>
211.6

>  <LabuteASA>
125.34

>  <PEOE_VSA1>
5.32

>  <PEOE_VSA2>
9.1

>  <PEOE_VSA3>
13.4

>  <PEOE_VSA4>
0

>  <PEOE_VSA5>
11.34

>  <PEOE_VSA6>
6.07

>  <PEOE_VSA7>
29.66

>  <PEOE_VSA8>
18.12

>  <PEOE_VSA9>
0

>  <PEOE_VSA10>
16.41

>  <PEOE_VSA11>
0

>  <PEOE_VSA12>
0

>  <PEOE_VSA13>
15.93

>  <SMR_VSA1>
13.21

>  <SMR_VSA2>
0

>  <SMR_VSA3>
9.29

>  <SMR_VSA4>
0

>  <SMR_VSA5>
4.9

>  <SMR_VSA6>
12.36

>  <SMR_VSA7>
46.42

>  <SMR_VSA8>
0

>  <SMR_VSA9>
0

>  <SlogP_VSA1>
5.32

>  <SlogP_VSA2>
30.66

>  <SlogP_VSA3>
14.82

>  <SlogP_VSA4>
0

>  <SlogP_VSA5>
4.88

>  <SlogP_VSA6>
46.43

>  <SlogP_VSA7>
0

>  <SlogP_VSA8>
6.08

>  <SlogP_VSA9>
0

>  <SlogP_VSA10>
5.82

>  <SlogP_VSA11>
0

>  <EState_VSA1>
15.93

>  <EState_VSA2>
10.59

>  <EState_VSA3>
10.7

>  <EState_VSA4>
4.31

>  <EState_VSA5>
24.45

>  <EState_VSA6>
35.85

>  <EState_VSA7>
0

>  <EState_VSA8>
10.3

>  <EState_VSA9>
0

>  <EState_VSA10>
13.21

>  <VSA_EState1>
25.64

>  <VSA_EState2>
17.04

>  <VSA_EState3>
4.27

>  <VSA_EState4>
0.07

>  <VSA_EState5>
-0.15

>  <VSA_EState6>
6.63

>  <VSA_EState7>
3.11

>  <VSA_EState8>
0

>  <VSA_EState9>
-2.31

>  <apol>
40.55

>  <bpol>
24.44

>  <nRing>
3

>  <nHRing>
3

>  <naRing>
2

>  <naHRing>
2

>  <nARing 2>
1

>  <nAHRing 2>
1

>  <nFRing>
1

>  <nFHRing>
1

>  <nFaRing>
0

>  <nFaHRing>
0

>  <nFARing 2>
1

>  <nFAHRing 2>
1

>  <nRot>
2

>  <SLogP>
1.76

>  <SMR>
80.11

>  <TopoPSA(NO)>
79.37

>  <TopoPSA>
115.99

>  <JGI1>
0.22

>  <JGI2>
0.1

>  <JGI3>
0.06

>  <JGI4>
0.06

>  <JGI5>
0.03

>  <Diameter>
10

>  <Radius>
5

>  <TMWC10>
119.05

>  <TSRW10>
69.06

>  <MW>
321.02

>  <AMW>
10.03

>  <WPath>
898

>  <WPol>
35

>  <Zagreb1>
114

>  <Zagreb2>
137

>  <mZagreb2>
4.5

>  <yes>


>  <nAR-cont>
0.816016

>  <nHA-cont>
0.994529749

>  <MWHBN>
0.334876911

>  <MWHBN-cont>
0.725588061

>  <TPSA-cont>
0.190317775

>  <pka_cont>
0.97

>  <yes.1>


>  <BBB_SCORE>
3.764563391

>  <MMFF94 Energy>
-22.745

$$$$
Compound 2994
Actelion Java MolfileCreator 2.0

  0  0  0  0  0  0              0 V3000
M  V30 BEGIN CTAB
M  V30 COUNTS 33 35 0 0 0
M  V30 BEGIN ATOM
M  V30 1 S -1.1656 0.8324 -1.7488 0
M  V30 2 O -2.2532 1.7162 -2.1117 0
M  V30 3 O 0.1798 1.041 -2.2399 0
M  V30 4 N -1.0873 0.7728 -0.0577 0
M  V30 5 C -1.6565 -0.8126 -2.1211 0
M  V30 6 C -0.2464 -0.2852 0.4361 0
M  V30 7 C -1.213 2.0645 0.6346 0
M  V30 8 C -1.2709 -1.8226 -1.2343 0
M  V30 9 C -2.4659 -1.0625 -3.234 0
M  V30 10 C -0.4013 -1.5259 -0.0751 0
M  V30 11 C 0.7728 -0.0602 1.5098 0
M  V30 12 C -1.6984 -3.128 -1.517 0
M  V30 13 C -2.8837 -2.3653 -3.4895 0
M  V30 14 O 0.2719 -2.6355 0.4169 0
M  V30 15 O 0.8818 -0.8848 2.4118 0
M  V30 16 N 1.5474 1.0461 1.2737 0
M  V30 17 C -2.499 -3.3966 -2.6335 0
M  V30 18 C 2.5356 1.5519 2.0751 0
M  V30 19 S 2.9664 0.8643 3.5729 0
M  V30 20 N 3.1983 2.6295 1.7258 0
M  V30 21 C 4.1517 2.0835 3.7835 0
M  V30 22 C 4.1299 2.9338 2.6997 0
M  V30 23 H -1.1644 1.9326 1.7201 0
M  V30 24 H -2.1893 2.51 0.4191 0
M  V30 25 H -0.4302 2.7619 0.3242 0
M  V30 26 H -2.7703 -0.253 -3.8936 0
M  V30 27 H -1.4114 -3.9535 -0.8678 0
M  V30 28 H -3.5097 -2.5791 -4.3526 0
M  V30 29 H 0.6571 -2.4136 1.2932 0
M  V30 30 H 1.4543 1.542 0.3954 0
M  V30 31 H -2.821 -4.4163 -2.8327 0
M  V30 32 H 4.784 2.1185 4.6587 0
M  V30 33 H 4.7734 3.7955 2.5685 0
M  V30 END ATOM
M  V30 BEGIN BOND
M  V30 1 2 1 2
M  V30 2 2 1 3
M  V30 3 1 1 4
M  V30 4 1 1 5
M  V30 5 1 4 6
M  V30 6 1 4 7
M  V30 7 2 5 8
M  V30 8 1 5 9
M  V30 9 2 6 10
M  V30 10 1 6 11
M  V30 11 1 8 12
M  V30 12 2 9 13
M  V30 13 1 10 14
M  V30 14 2 11 15
M  V30 15 1 11 16
M  V30 16 2 12 17
M  V30 17 1 16 18
M  V30 18 1 18 19
M  V30 19 2 18 20
M  V30 20 1 19 21
M  V30 21 1 20 22
M  V30 22 1 8 10
M  V30 23 1 13 17
M  V30 24 2 21 22
M  V30 25 1 7 23
M  V30 26 1 7 24
M  V30 27 1 7 25
M  V30 28 1 9 26
M  V30 29 1 12 27
M  V30 30 1 13 28
M  V30 31 1 14 29
M  V30 32 1 16 30
M  V30 33 1 17 31
M  V30 34 1 21 32
M  V30 35 1 22 33
M  V30 END BOND
M  V30 END CTAB
M  END
>  <Column 1>
3849

>  <level_0>
7271

>  <index>
7272

>  <Unnamed: 0>
7272

>  <NO.>
7285

>  <Name>
sudoxicam

>  <IUPAC_name>
4-hydroxy-2-methyl-1-1-dioxo-n-(1-3-thiazol-2-yl)-1lambda6-2-benzothiazine-3-carboxamide

>  <SMILES>
CN1C(C(=O)Nc2nccs2)=C(O)c2ccccc2S1(=O)=O

>  <CID>
54682951

>  <logBB>


>  <BBB+/BBB->
BBB+

>  <Inchi>
InChI=1S/C13H11N3O4S2/c1-16-10(12(18)15-13-14-6-7-21-13)11(17)8-4-2-3-5-9(8)22(16-19)20/h2-7-17H-1H3-(H-14-15-18)

>  <threshold>


>  <reference>
R27|

>  <group>
C

>  <Class>
1

>  <ABC>
17.29

>  <ABCGG>
15.09

>  <nAcid>
0

>  <nBase>
0

>  <nAromAtom>
11

>  <nAromBond>
11

>  <nAtom>
33

>  <nHeavyAtom>
22

>  <nSpiro>
0

>  <nBridgehead>
0

>  <nHetero>
9

>  <nN>
3

>  <nO>
4

>  <nF>
0

>  <BalabanJ>
1.76

>  <BertzCT>
872.45

>  <nBonds>
35

>  <nBondsO>
24

>  <nBondsS>
20

>  <nBondsD>
4

>  <nBondsT>
0

>  <nBondsA>
11

>  <nBondsM>
15

>  <nBondsKS>
26

>  <nBondsKD>
9

>  <RNCG>
0.22

>  <RPCG>
0.13

>  <FCSP3>
0.08

>  <SZ>
29

>  <Sm>
28.09

>  <Sv>
23.49

>  <Sse>
34.35

>  <Sp>
24.76

>  <Si>
36.83

>  <MZ>
0.88

>  <Mm>
0.85

>  <Mv>
0.71

>  <Mse>
1.04

>  <Mp>
0.75

>  <Mi>
1.12

>  <NsCH3>
1

>  <NdCH2>
0

>  <NssCH2>
0

>  <NtCH>
0

>  <NdsCH>
0

>  <NaaCH>
6

>  <NsssCH>
0

>  <NddC>
0

>  <NtsC>
0

>  <NdssC>
3

>  <NaasC>
3

>  <NaaaC>
0

>  <NssssC>
0

>  <NsNH3>
0

>  <NsNH2>
0

>  <NssNH2>
0

>  <NdNH>
0

>  <NssNH>
1

>  <NaaNH>
0

>  <NtN>
0

>  <NsssNH>
0

>  <NdsN>
0

>  <NaaN>
1

>  <NsssN>
1

>  <NddsN>
0

>  <NaasN>
0

>  <NssssN>
0

>  <NsOH>
1

>  <NdO>
3

>  <NssO>
0

>  <NaaO>
0

>  <NsF>
0

>  <NsSiH3>
0

>  <NssSiH2>
0

>  <NsssSiH>
0

>  <NssssSi>
0

>  <NsPH2>
0

>  <NssPH>
0

>  <NsssP>
0

>  <NdsssP>
0

>  <NsssssP>
0

>  <NsSH>
0

>  <NdS>
0

>  <NssS>
0

>  <NaaS>
1

>  <NdssS>
0

>  <NddssS>
1

>  <NsCl>
0

>  <NsBr>
0

>  <NsI>
0

>  <fragCpx>
114.09

>  <fMF>
0.52

>  <nHBAcc>
6

>  <nHBDon>
2

>  <Kier1>
16.84

>  <Kier2>
6.48

>  <Lipinski>
1

>  <GhoseFilter>
1

>  <FilterItLogS>
-2.47

>  <VMcGowan>
217.47

>  <LabuteASA>
130.14

>  <PEOE_VSA1>
5.11

>  <PEOE_VSA2>
14.42

>  <PEOE_VSA3>
13.4

>  <PEOE_VSA4>
0

>  <PEOE_VSA5>
11.34

>  <PEOE_VSA6>
12.13

>  <PEOE_VSA7>
12.13

>  <PEOE_VSA8>
24.19

>  <PEOE_VSA9>
4.9

>  <PEOE_VSA10>
0

>  <PEOE_VSA11>
16.59

>  <PEOE_VSA12>
0

>  <PEOE_VSA13>
15.93

>  <SMR_VSA1>
18.32

>  <SMR_VSA2>
0

>  <SMR_VSA3>
9.29

>  <SMR_VSA4>
0

>  <SMR_VSA5>
4.9

>  <SMR_VSA6>
12.36

>  <SMR_VSA7>
47.1

>  <SMR_VSA8>
0

>  <SMR_VSA9>
0

>  <SlogP_VSA1>
5.32

>  <SlogP_VSA2>
35.77

>  <SlogP_VSA3>
14.82

>  <SlogP_VSA4>
0

>  <SlogP_VSA5>
5.56

>  <SlogP_VSA6>
46.43

>  <SlogP_VSA7>
0

>  <SlogP_VSA8>
5.76

>  <SlogP_VSA9>
0

>  <SlogP_VSA10>
5.13

>  <SlogP_VSA11>
0

>  <EState_VSA1>
15.93

>  <EState_VSA2>
21.92

>  <EState_VSA3>
5.13

>  <EState_VSA4>
4.31

>  <EState_VSA5>
36.71

>  <EState_VSA6>
17.51

>  <EState_VSA7>
0

>  <EState_VSA8>
10.3

>  <EState_VSA9>
0

>  <EState_VSA10>
18.32

>  <VSA_EState1>
25.68

>  <VSA_EState2>
16.17

>  <VSA_EState3>
14.77

>  <VSA_EState4>
-0.24

>  <VSA_EState5>
-1.13

>  <VSA_EState6>
5.98

>  <VSA_EState7>
1.51

>  <VSA_EState8>
0

>  <VSA_EState9>
-2.67

>  <apol>
41.35

>  <bpol>
24.44

>  <nRing>
3

>  <nHRing>
2

>  <naRing>
2

>  <naHRing>
1

>  <nARing 2>
1

>  <nAHRing 2>
1

>  <nFRing>
1

>  <nFHRing>
1

>  <nFaRing>
0

>  <nFaHRing>
0

>  <nFARing 2>
1

>  <nFAHRing 2>
1

>  <nRot>
2

>  <SLogP>
1.64

>  <SMR>
81.68

>  <TopoPSA(NO)>
99.6

>  <TopoPSA>
136.22

>  <JGI1>
0.21

>  <JGI2>
0.1

>  <JGI3>
0.07

>  <JGI4>
0.06

>  <JGI5>
0.03

>  <Diameter>
10

>  <Radius>
5

>  <TMWC10>
121.96

>  <TSRW10>
69.91

>  <MW>
337.02

>  <AMW>
10.21

>  <WPath>
970

>  <WPol>
39

>  <Zagreb1>
120

>  <Zagreb2>
146

>  <mZagreb2>
4.72

>  <yes>


>  <nAR-cont>
0.816016

>  <nHA-cont>
0.983774276

>  <MWHBN>
0.435774838

>  <MWHBN-cont>
0.337986084

>  <TPSA-cont>
0

>  <pka_cont>
0.97

>  <yes.1>


>  <BBB_SCORE>
2.791769401

>  <MMFF94 Energy>
-21.631

$$$$
Compound 2995
Actelion Java MolfileCreator 2.0

  0  0  0  0  0  0              0 V3000
M  V30 BEGIN CTAB
M  V30 COUNTS 53 56 0 0 0
M  V30 BEGIN ATOM
M  V30 1 Cl -2.6545 -7.6563 -0.4018 0
M  V30 2 C -2.2319 -5.9997 -0.2097 0
M  V30 3 C -1.629 -5.3126 -1.2602 0
M  V30 4 C -2.4929 -5.3547 0.9971 0
M  V30 5 C -1.2842 -3.9687 -1.1028 0
M  V30 6 C -2.1472 -4.0109 1.1558 0
M  V30 7 C -1.5395 -3.3065 0.1066 0
M  V30 8 C -1.1453 -1.856 0.2824 0
M  V30 9 C 0.1581 -1.6545 1.0973 0 CFG=2
M  V30 10 N 0.3238 -0.2424 1.5035 0
M  V30 11 C 1.395 -2.1061 0.3575 0
M  V30 12 N 0.6309 0.6123 0.3964 0
M  V30 13 C 2.0674 -1.1905 -0.464 0
M  V30 14 C 1.8729 -3.4212 0.4499 0
M  V30 15 C 1.5697 0.2078 -0.5679 0
M  V30 16 C 0.0692 1.9841 0.4082 0 CFG=1
M  V30 17 C 3.1896 -1.5896 -1.1991 0
M  V30 18 C 2.9973 -3.8142 -0.2781 0
M  V30 19 O 1.9744 0.9215 -1.4814 0
M  V30 20 C 1.1674 3.0377 0.624 0
M  V30 21 C -0.8172 2.2175 -0.8216 0
M  V30 22 C 3.6535 -2.9014 -1.1032 0
M  V30 23 C 0.6044 4.3824 1.0915 0
M  V30 24 C -1.485 3.5901 -0.8787 0
M  V30 25 N 0.1546 5.3034 0.0478 0
M  V30 26 C -0.4891 4.7236 -1.1289 0
M  V30 27 C -0.6285 6.3965 0.6225 0
M  V30 28 H -1.4227 -5.8148 -2.2014 0
M  V30 29 H -2.9647 -5.8912 1.816 0
M  V30 30 H -0.8056 -3.4447 -1.9285 0
M  V30 31 H -2.3577 -3.5191 2.1032 0
M  V30 32 H -1.9794 -1.3497 0.788 0
M  V30 33 H -1.0685 -1.3794 -0.7039 0
M  V30 34 H 0.0898 -2.2271 2.0313 0
M  V30 35 H -0.5414 0.071 1.944 0
M  V30 36 H 1.3673 -4.1492 1.0808 0
M  V30 37 H -0.5973 2.032 1.2803 0
M  V30 38 H 3.704 -0.8784 -1.8417 0
M  V30 39 H 3.3605 -4.8365 -0.2042 0
M  V30 40 H 1.8423 2.6737 1.4107 0
M  V30 41 H 1.7921 3.1667 -0.2668 0
M  V30 42 H -1.6052 1.4525 -0.8298 0
M  V30 43 H -0.2494 2.0629 -1.7462 0
M  V30 44 H 4.5275 -3.2101 -1.671 0
M  V30 45 H 1.4011 4.8943 1.6468 0
M  V30 46 H -0.1981 4.1981 1.8182 0
M  V30 47 H -2.195 3.5757 -1.7157 0
M  V30 48 H -2.083 3.7717 0.0218 0
M  V30 49 H 0.295 4.3747 -1.8128 0
M  V30 50 H -0.9999 5.5169 -1.6911 0
M  V30 51 H -1.5915 6.0502 1.0135 0
M  V30 52 H -0.8185 7.1749 -0.1248 0
M  V30 53 H -0.0793 6.8802 1.4383 0
M  V30 END ATOM
M  V30 BEGIN BOND
M  V30 1 1 1 2
M  V30 2 2 2 3
M  V30 3 1 2 4
M  V30 4 1 3 5
M  V30 5 2 4 6
M  V30 6 2 5 7
M  V30 7 1 7 8
M  V30 8 1 8 9
M  V30 9 1 9 10
M  V30 10 1 9 11
M  V30 11 1 10 12
M  V30 12 2 11 13
M  V30 13 1 11 14
M  V30 14 1 12 15
M  V30 15 1 12 16
M  V30 16 1 13 17
M  V30 17 2 14 18
M  V30 18 2 15 19
M  V30 19 1 16 20
M  V30 20 1 16 21
M  V30 21 2 17 22
M  V30 22 1 20 23
M  V30 23 1 21 24
M  V30 24 1 23 25
M  V30 25 1 24 26
M  V30 26 1 25 27
M  V30 27 1 6 7
M  V30 28 1 13 15
M  V30 29 1 18 22
M  V30 30 1 25 26
M  V30 31 1 3 28
M  V30 32 1 4 29
M  V30 33 1 5 30
M  V30 34 1 6 31
M  V30 35 1 8 32
M  V30 36 1 8 33
M  V30 37 1 9 34
M  V30 38 1 10 35
M  V30 39 1 14 36
M  V30 40 1 16 37
M  V30 41 1 17 38
M  V30 42 1 18 39
M  V30 43 1 20 40
M  V30 44 1 20 41
M  V30 45 1 21 42
M  V30 46 1 21 43
M  V30 47 1 22 44
M  V30 48 1 23 45
M  V30 49 1 23 46
M  V30 50 1 24 47
M  V30 51 1 24 48
M  V30 52 1 26 49
M  V30 53 1 26 50
M  V30 54 1 27 51
M  V30 55 1 27 52
M  V30 56 1 27 53
M  V30 END BOND
M  V30 BEGIN COLLECTION
M  V30 MDLV30/STEABS ATOMS=(2 9 16)
M  V30 END COLLECTION
M  V30 END CTAB
M  END
>  <Column 1>
3850

>  <level_0>
7272

>  <index>
7273

>  <Unnamed: 0>
7273

>  <NO.>
7286

>  <Name>


>  <IUPAC_name>


>  <SMILES>
CN1CCC[C@@H](N2N[C@@H](Cc3ccc(Cl)cc3)c3ccccc3C2=O)CC1

>  <CID>


>  <logBB>


>  <BBB+/BBB->
BBB+

>  <Inchi>
InChI=1S/C22H26ClN3O/c1-25-13-4-5-18(12-14-25)26-22(27)20-7-3-2-6-19(20)21(24-26)15-16-8-10-17(23)11-9-16/h2-3-6-11-18-21-24H-4-5-12-15H2-1H3/t18--21+/m1/s1

>  <threshold>


>  <reference>
R27|

>  <group>
C

>  <Class>
1

>  <ABC>
21.34

>  <ABCGG>
16.18

>  <nAcid>
0

>  <nBase>
1

>  <nAromAtom>
12

>  <nAromBond>
12

>  <nAtom>
53

>  <nHeavyAtom>
27

>  <nSpiro>
0

>  <nBridgehead>
0

>  <nHetero>
5

>  <nN>
3

>  <nO>
1

>  <nF>
0

>  <BalabanJ>
1.45

>  <BertzCT>
807.46

>  <nBonds>
56

>  <nBondsO>
30

>  <nBondsS>
43

>  <nBondsD>
1

>  <nBondsT>
0

>  <nBondsA>
12

>  <nBondsM>
13

>  <nBondsKS>
49

>  <nBondsKD>
7

>  <RNCG>
0.17

>  <RPCG>
0.15

>  <FCSP3>
0.41

>  <SZ>
34

>  <Sm>
31.96

>  <Sv>
33.12

>  <Sse>
52.63

>  <Sp>
36.14

>  <Si>
59.63

>  <MZ>
0.64

>  <Mm>
0.6

>  <Mv>
0.62

>  <Mse>
0.99

>  <Mp>
0.68

>  <Mi>
1.13

>  <NsCH3>
1

>  <NdCH2>
0

>  <NssCH2>
6

>  <NtCH>
0

>  <NdsCH>
0

>  <NaaCH>
8

>  <NsssCH>
2

>  <NddC>
0

>  <NtsC>
0

>  <NdssC>
1

>  <NaasC>
4

>  <NaaaC>
0

>  <NssssC>
0

>  <NsNH3>
0

>  <NsNH2>
0

>  <NssNH2>
0

>  <NdNH>
0

>  <NssNH>
1

>  <NaaNH>
0

>  <NtN>
0

>  <NsssNH>
0

>  <NdsN>
0

>  <NaaN>
0

>  <NsssN>
2

>  <NddsN>
0

>  <NaasN>
0

>  <NssssN>
0

>  <NsOH>
0

>  <NdO>
1

>  <NssO>
0

>  <NaaO>
0

>  <NsF>
0

>  <NsSiH3>
0

>  <NssSiH2>
0

>  <NsssSiH>
0

>  <NssssSi>
0

>  <NsPH2>
0

>  <NssPH>
0

>  <NsssP>
0

>  <NdsssP>
0

>  <NsssssP>
0

>  <NsSH>
0

>  <NdS>
0

>  <NssS>
0

>  <NaaS>
0

>  <NdssS>
0

>  <NddssS>
0

>  <NsCl>
1

>  <NsBr>
0

>  <NsI>
0

>  <fragCpx>
198.05

>  <fMF>
0.45

>  <nHBAcc>
3

>  <nHBDon>
1

>  <Kier1>
20.28

>  <Kier2>
9.21

>  <Lipinski>
1

>  <GhoseFilter>
1

>  <FilterItLogS>
-5.42

>  <VMcGowan>
295.35

>  <LabuteASA>
165.63

>  <PEOE_VSA1>
4.9

>  <PEOE_VSA2>
9.8

>  <PEOE_VSA3>
5.43

>  <PEOE_VSA4>
0

>  <PEOE_VSA5>
0

>  <PEOE_VSA6>
41.93

>  <PEOE_VSA7>
75.15

>  <PEOE_VSA8>
16.63

>  <PEOE_VSA9>
6.04

>  <PEOE_VSA10>
0

>  <PEOE_VSA11>
0

>  <PEOE_VSA12>
0

>  <PEOE_VSA13>
5.91

>  <SMR_VSA1>
4.79

>  <SMR_VSA2>
0

>  <SMR_VSA3>
15.33

>  <SMR_VSA4>
0

>  <SMR_VSA5>
37.77

>  <SMR_VSA6>
20.14

>  <SMR_VSA7>
70.24

>  <SMR_VSA8>
0

>  <SMR_VSA9>
0

>  <SlogP_VSA1>
5.43

>  <SlogP_VSA2>
42

>  <SlogP_VSA3>
6.42

>  <SlogP_VSA4>
0

>  <SlogP_VSA5>
46.79

>  <SlogP_VSA6>
48.53

>  <SlogP_VSA7>
5.02

>  <SlogP_VSA8>
0

>  <SlogP_VSA9>
0

>  <SlogP_VSA10>
0

>  <SlogP_VSA11>
0

>  <EState_VSA1>
0

>  <EState_VSA2>
17.99

>  <EState_VSA3>
0

>  <EState_VSA4>
54.92

>  <EState_VSA5>
5.56

>  <EState_VSA6>
0

>  <EState_VSA7>
35.34

>  <EState_VSA8>
35.57

>  <EState_VSA9>
11.6

>  <EState_VSA10>
4.79

>  <VSA_EState1>
0

>  <VSA_EState2>
15.54

>  <VSA_EState3>
2.66

>  <VSA_EState4>
6.69

>  <VSA_EState5>
0.1

>  <VSA_EState6>
16.3

>  <VSA_EState7>
3.99

>  <VSA_EState8>
2.13

>  <VSA_EState9>
2.16

>  <apol>
60.36

>  <bpol>
30.31

>  <nRing>
4

>  <nHRing>
2

>  <naRing>
2

>  <naHRing>
0

>  <nARing 2>
2

>  <nAHRing 2>
2

>  <nFRing>
1

>  <nFHRing>
1

>  <nFaRing>
0

>  <nFaHRing>
0

>  <nFARing 2>
1

>  <nFAHRing 2>
1

>  <nRot>
3

>  <SLogP>
4.07

>  <SMR>
108.78

>  <TopoPSA(NO)>
35.58

>  <TopoPSA>
35.58

>  <JGI1>
0.17

>  <JGI2>
0.07

>  <JGI3>
0.04

>  <JGI4>
0.04

>  <JGI5>
0.02

>  <Diameter>
13

>  <Radius>
7

>  <TMWC10>
133.42

>  <TSRW10>
70.1

>  <MW>
383.18

>  <AMW>
7.23

>  <WPath>
1795

>  <WPol>
47

>  <Zagreb1>
144

>  <Zagreb2>
170

>  <mZagreb2>
5.89

>  <yes>


>  <nAR-cont>
1

>  <nHA-cont>
0.860070871

>  <MWHBN>
0.20434244

>  <MWHBN-cont>
0.999999952

>  <TPSA-cont>
0.751629506

>  <pka_cont>
0.97

>  <yes.1>


>  <BBB_SCORE>
5.348329812

>  <MMFF94 Energy>
125.61

$$$$
Compound 2996
Actelion Java MolfileCreator 2.0

  0  0  0  0  0  0              0 V3000
M  V30 BEGIN CTAB
M  V30 COUNTS 60 63 0 0 0
M  V30 BEGIN ATOM
M  V30 1 Cl -3.8508 -7.2296 5.0565 0
M  V30 2 C -3.6204 -5.705 4.2945 0
M  V30 3 C -4.0456 -4.5414 4.928 0
M  V30 4 C -3.0086 -5.6397 3.046 0
M  V30 5 C -3.8572 -3.3027 4.3052 0
M  V30 6 C -2.8214 -4.3989 2.426 0
M  V30 7 C -3.2434 -3.2114 3.0452 0
M  V30 8 C -3.0439 -1.9198 2.3905 0
M  V30 9 O -3.5598 -0.8286 3.0312 0
M  V30 10 C -2.4387 -1.5122 1.2191 0
M  V30 11 C -3.2618 0.284 2.2907 0
M  V30 12 C -2.5907 -0.1051 1.1482 0
M  V30 13 C -3.7388 1.5441 2.8015 0
M  V30 14 N -3.4439 2.763 2.4416 0
M  V30 15 N -2.3617 2.9972 1.6503 0
M  V30 16 C -1.0436 2.6279 1.977 0
M  V30 17 C -2.3909 4.0149 0.6354 0
M  V30 18 O -0.6876 1.91 2.9002 0
M  V30 19 N -0.2162 3.2365 1.0705 0
M  V30 20 C -0.9279 4.0583 0.2443 0
M  V30 21 C 1.2177 3.0409 1.0165 0
M  V30 22 O -0.4736 4.7498 -0.6577 0
M  V30 23 C 1.5688 1.8092 0.1819 0
M  V30 24 C 3.0831 1.606 0.1008 0
M  V30 25 C 3.4755 0.3314 -0.6607 0
M  V30 26 N 2.9373 0.2545 -2.0269 0
M  V30 27 C 3.1906 -1.0868 -2.5979 0
M  V30 28 C 3.5332 1.2714 -2.9208 0
M  V30 29 C 2.6881 -1.2155 -4.0537 0
M  V30 30 C 3.0373 1.1394 -4.3804 0
M  V30 31 N 3.2914 -0.202 -4.9386 0
M  V30 32 C 2.7549 -0.3096 -6.2927 0
M  V30 33 H -4.5221 -4.5858 5.9037 0
M  V30 34 H -2.6746 -6.5464 2.5487 0
M  V30 35 H -4.1939 -2.4045 4.8198 0
M  V30 36 H -2.3411 -4.3763 1.4509 0
M  V30 37 H -1.9482 -2.1471 0.4954 0
M  V30 38 H -2.2511 0.5392 0.3512 0
M  V30 39 H -4.5269 1.4571 3.5698 0
M  V30 40 H -2.7047 4.9706 1.0615 0
M  V30 41 H -3.0178 3.6954 -0.1989 0
M  V30 42 H 1.6809 3.9335 0.5817 0
M  V30 43 H 1.5925 2.9174 2.0388 0
M  V30 44 H 1.1466 1.9242 -0.8237 0
M  V30 45 H 1.099 0.9198 0.6201 0
M  V30 46 H 3.5539 2.4846 -0.3549 0
M  V30 47 H 3.4907 1.5338 1.1172 0
M  V30 48 H 4.5696 0.2416 -0.6676 0
M  V30 49 H 3.0959 -0.5201 -0.0807 0
M  V30 50 H 4.2635 -1.321 -2.5671 0
M  V30 51 H 2.6737 -1.8426 -1.994 0
M  V30 52 H 4.6291 1.1995 -2.9071 0
M  V30 53 H 3.2658 2.2763 -2.5763 0
M  V30 54 H 1.5924 -1.1354 -4.0628 0
M  V30 55 H 2.9454 -2.2176 -4.4176 0
M  V30 56 H 1.9647 1.3754 -4.4149 0
M  V30 57 H 3.5565 1.8911 -4.9872 0
M  V30 58 H 1.6705 -0.1533 -6.3255 0
M  V30 59 H 2.973 -1.2971 -6.7138 0
M  V30 60 H 3.2287 0.4258 -6.9522 0
M  V30 END ATOM
M  V30 BEGIN BOND
M  V30 1 1 1 2
M  V30 2 2 2 3
M  V30 3 1 2 4
M  V30 4 1 3 5
M  V30 5 2 4 6
M  V30 6 2 5 7
M  V30 7 1 7 8
M  V30 8 1 8 9
M  V30 9 2 8 10
M  V30 10 1 9 11
M  V30 11 1 10 12
M  V30 12 1 11 13
M  V30 13 2 13 14
M  V30 14 1 14 15
M  V30 15 1 15 16
M  V30 16 1 15 17
M  V30 17 2 16 18
M  V30 18 1 16 19
M  V30 19 1 17 20
M  V30 20 1 19 21
M  V30 21 2 20 22
M  V30 22 1 21 23
M  V30 23 1 23 24
M  V30 24 1 24 25
M  V30 25 1 25 26
M  V30 26 1 26 27
M  V30 27 1 26 28
M  V30 28 1 27 29
M  V30 29 1 28 30
M  V30 30 1 29 31
M  V30 31 1 31 32
M  V30 32 1 6 7
M  V30 33 2 11 12
M  V30 34 1 19 20
M  V30 35 1 30 31
M  V30 36 1 3 33
M  V30 37 1 4 34
M  V30 38 1 5 35
M  V30 39 1 6 36
M  V30 40 1 10 37
M  V30 41 1 12 38
M  V30 42 1 13 39
M  V30 43 1 17 40
M  V30 44 1 17 41
M  V30 45 1 21 42
M  V30 46 1 21 43
M  V30 47 1 23 44
M  V30 48 1 23 45
M  V30 49 1 24 46
M  V30 50 1 24 47
M  V30 51 1 25 48
M  V30 52 1 25 49
M  V30 53 1 27 50
M  V30 54 1 27 51
M  V30 55 1 28 52
M  V30 56 1 28 53
M  V30 57 1 29 54
M  V30 58 1 29 55
M  V30 59 1 30 56
M  V30 60 1 30 57
M  V30 61 1 32 58
M  V30 62 1 32 59
M  V30 63 1 32 60
M  V30 END BOND
M  V30 END CTAB
M  END
>  <Column 1>
3851

>  <level_0>
7275

>  <index>
7276

>  <Unnamed: 0>
7276

>  <NO.>
7289

>  <Name>
azimilide

>  <IUPAC_name>
1-[(z)-[5-(4-chlorophenyl)furan-2-yl]methylideneamino]-3-[4-(4-methylpiperazin-1-yl)butyl]imidazolidine-2-4-dione

>  <SMILES>
CN1CCN(CCCCN2C(=O)CN(/N=C\c3ccc(-c4ccc(Cl)cc4)o3)C2=O)CC1

>  <CID>
9571004

>  <logBB>


>  <BBB+/BBB->
BBB+

>  <Inchi>
InChI=1S/C23H28ClN5O3/c1-26-12-14-27(15-13-26)10-2-3-11-28-22(30)17-29(23(28)31)25-16-20-8-9-21(32-20)18-4-6-19(24)7-5-18/h4-9-16H-2-3-10-15-17H2-1H3/b25-16-

>  <threshold>


>  <reference>
R27|

>  <group>
C

>  <Class>
1

>  <ABC>
25.02

>  <ABCGG>
18.34

>  <nAcid>
0

>  <nBase>
2

>  <nAromAtom>
11

>  <nAromBond>
11

>  <nAtom>
60

>  <nHeavyAtom>
32

>  <nSpiro>
0

>  <nBridgehead>
0

>  <nHetero>
9

>  <nN>
5

>  <nO>
3

>  <nF>
0

>  <BalabanJ>
1.11

>  <BertzCT>
966.27

>  <nBonds>
63

>  <nBondsO>
35

>  <nBondsS>
49

>  <nBondsD>
3

>  <nBondsT>
0

>  <nBondsA>
11

>  <nBondsM>
14

>  <nBondsKS>
55

>  <nBondsKD>
8

>  <RNCG>
0.17

>  <RPCG>
0.13

>  <FCSP3>
0.43

>  <SZ>
40.33

>  <Sm>
38.13

>  <Sv>
37.61

>  <Sse>
60.5

>  <Sp>
40.22

>  <Si>
68.05

>  <MZ>
0.67

>  <Mm>
0.64

>  <Mv>
0.63

>  <Mse>
1.01

>  <Mp>
0.67

>  <Mi>
1.13

>  <NsCH3>
1

>  <NdCH2>
0

>  <NssCH2>
9

>  <NtCH>
0

>  <NdsCH>
1

>  <NaaCH>
6

>  <NsssCH>
0

>  <NddC>
0

>  <NtsC>
0

>  <NdssC>
2

>  <NaasC>
4

>  <NaaaC>
0

>  <NssssC>
0

>  <NsNH3>
0

>  <NsNH2>
0

>  <NssNH2>
0

>  <NdNH>
0

>  <NssNH>
0

>  <NaaNH>
0

>  <NtN>
0

>  <NsssNH>
0

>  <NdsN>
1

>  <NaaN>
0

>  <NsssN>
4

>  <NddsN>
0

>  <NaasN>
0

>  <NssssN>
0

>  <NsOH>
0

>  <NdO>
2

>  <NssO>
0

>  <NaaO>
1

>  <NsF>
0

>  <NsSiH3>
0

>  <NssSiH2>
0

>  <NsssSiH>
0

>  <NssssSi>
0

>  <NsPH2>
0

>  <NssPH>
0

>  <NsssP>
0

>  <NdsssP>
0

>  <NsssssP>
0

>  <NsSH>
0

>  <NdS>
0

>  <NssS>
0

>  <NaaS>
0

>  <NdssS>
0

>  <NddssS>
0

>  <NsCl>
1

>  <NsBr>
0

>  <NsI>
0

>  <fragCpx>
233.09

>  <fMF>
0.47

>  <nHBAcc>
6

>  <nHBDon>
0

>  <Kier1>
25.1

>  <Kier2>
12.11

>  <Lipinski>
1

>  <GhoseFilter>
1

>  <FilterItLogS>
-4.87

>  <VMcGowan>
336.84

>  <LabuteASA>
192.55

>  <PEOE_VSA1>
14.22

>  <PEOE_VSA2>
9.69

>  <PEOE_VSA3>
9.8

>  <PEOE_VSA4>
5.1

>  <PEOE_VSA5>
0

>  <PEOE_VSA6>
11.6

>  <PEOE_VSA7>
62.83

>  <PEOE_VSA8>
43.31

>  <PEOE_VSA9>
6.21

>  <PEOE_VSA10>
18.07

>  <PEOE_VSA11>
0

>  <PEOE_VSA12>
0

>  <PEOE_VSA13>
5.91

>  <SMR_VSA1>
14.01

>  <SMR_VSA2>
0

>  <SMR_VSA3>
19.71

>  <SMR_VSA4>
5.1

>  <SMR_VSA5>
12.84

>  <SMR_VSA6>
52.86

>  <SMR_VSA7>
47.18

>  <SMR_VSA8>
0

>  <SMR_VSA9>
11.32

>  <SlogP_VSA1>
0

>  <SlogP_VSA2>
90.72

>  <SlogP_VSA3>
4.79

>  <SlogP_VSA4>
0

>  <SlogP_VSA5>
18.6

>  <SlogP_VSA6>
45.92

>  <SlogP_VSA7>
5.02

>  <SlogP_VSA8>
11.32

>  <SlogP_VSA9>
0

>  <SlogP_VSA10>
4.79

>  <SlogP_VSA11>
0

>  <EState_VSA1>
0

>  <EState_VSA2>
18.48

>  <EState_VSA3>
23.09

>  <EState_VSA4>
51.13

>  <EState_VSA5>
16.12

>  <EState_VSA6>
18.2

>  <EState_VSA7>
18.2

>  <EState_VSA8>
21.95

>  <EState_VSA9>
16.02

>  <EState_VSA10>
9.59

>  <VSA_EState1>
5.77

>  <VSA_EState2>
30.94

>  <VSA_EState3>
6.02

>  <VSA_EState4>
0.89

>  <VSA_EState5>
0.96

>  <VSA_EState6>
10.54

>  <VSA_EState7>
3.22

>  <VSA_EState8>
5.72

>  <VSA_EState9>
2.14

>  <apol>
67.17

>  <bpol>
38.91

>  <nRing>
4

>  <nHRing>
3

>  <naRing>
2

>  <naHRing>
1

>  <nARing 2>
2

>  <nAHRing 2>
2

>  <nFRing>
0

>  <nFHRing>
0

>  <nFaRing>
0

>  <nFaHRing>
0

>  <nFARing 2>
0

>  <nFAHRing 2>
0

>  <nRot>
8

>  <SLogP>
3.23

>  <SMR>
123.73

>  <TopoPSA(NO)>
72.6

>  <TopoPSA>
72.6

>  <JGI1>
0.19

>  <JGI2>
0.08

>  <JGI3>
0.05

>  <JGI4>
0.04

>  <JGI5>
0.02

>  <Diameter>
21

>  <Radius>
11

>  <TMWC10>
143.77

>  <TSRW10>
83.66

>  <MW>
457.19

>  <AMW>
7.62

>  <WPath>
3743

>  <WPol>
45

>  <Zagreb1>
166

>  <Zagreb2>
192

>  <mZagreb2>
7.03

>  <yes>


>  <nAR-cont>
1

>  <nHA-cont>
0.658856097

>  <MWHBN>
0.280609835

>  <MWHBN-cont>
0.89453324

>  <TPSA-cont>
0.493206918

>  <pka_cont>
0.97

>  <yes.1>


>  <BBB_SCORE>
4.472069792

>  <MMFF94 Energy>
111.19

$$$$
Compound 2997
Actelion Java MolfileCreator 2.0

  0  0  0  0  0  0              0 V3000
M  V30 BEGIN CTAB
M  V30 COUNTS 44 47 0 0 0
M  V30 BEGIN ATOM
M  V30 1 O -1.8395 1.0394 -1.1993 0
M  V30 2 C -1.0239 0.2081 -0.8181 0
M  V30 3 O -0.7695 -0.0638 0.4974 0
M  V30 4 C -0.2064 -0.5978 -1.7173 0
M  V30 5 C -1.5157 0.6969 1.4726 0
M  V30 6 C -0.2086 -0.5835 -3.1517 0
M  V30 7 C 0.739 -1.5367 -1.3358 0
M  V30 8 C -0.8637 2.0749 1.6817 0
M  V30 9 C -1.5793 -0.1384 2.7623 0
M  V30 10 C 0.7376 -1.5169 -3.5886 0
M  V30 11 C -0.9328 0.1421 -4.1231 0
M  V30 12 N 1.2957 -2.0784 -2.4614 0
M  V30 13 C 0.2676 2.0669 2.7274 0 CFG=2
M  V30 14 C -0.3754 0.0793 3.6983 0 CFG=2
M  V30 15 C 0.9847 -1.7501 -4.9514 0
M  V30 16 C -0.6942 -0.0825 -5.4828 0
M  V30 17 C 2.3245 -3.0947 -2.4642 0
M  V30 18 N -0.1599 1.4953 4.0075 0
M  V30 19 C 1.3837 1.0809 2.3616 0
M  V30 20 C 0.9576 -0.2413 3.0121 0
M  V30 21 C 0.2522 -1.0167 -5.8886 0
M  V30 22 C -1.2463 2.1784 4.6842 0
M  V30 23 H -2.541 0.8205 1.1018 0
M  V30 24 H 1.0519 -1.8529 -0.3486 0
M  V30 25 H -1.636 2.7855 1.9999 0
M  V30 26 H -0.4631 2.4566 0.7352 0
M  V30 27 H -2.499 0.1146 3.3038 0
M  V30 28 H -1.6485 -1.2044 2.5118 0
M  V30 29 H -1.6757 0.8756 -3.8191 0
M  V30 30 H 0.6738 3.0771 2.8483 0
M  V30 31 H -0.4925 -0.5225 4.6063 0
M  V30 32 H 1.7213 -2.4766 -5.2782 0
M  V30 33 H -1.2553 0.4797 -6.225 0
M  V30 34 H 2.5828 -3.3578 -1.4353 0
M  V30 35 H 3.2039 -2.6949 -2.9753 0
M  V30 36 H 1.9393 -3.9749 -2.9851 0
M  V30 37 H 2.3377 1.4044 2.7967 0
M  V30 38 H 1.5344 0.9828 1.2822 0
M  V30 39 H 0.8829 -1.0567 2.2863 0
M  V30 40 H 1.7094 -0.5344 3.7557 0
M  V30 41 H 0.4256 -1.1793 -6.9498 0
M  V30 42 H -1.4505 1.6966 5.6467 0
M  V30 43 H -0.9596 3.2123 4.9051 0
M  V30 44 H -2.1826 2.2054 4.1198 0
M  V30 END ATOM
M  V30 BEGIN BOND
M  V30 1 2 1 2
M  V30 2 1 2 3
M  V30 3 1 2 4
M  V30 4 1 3 5
M  V30 5 1 4 6
M  V30 6 2 4 7
M  V30 7 1 5 8
M  V30 8 1 5 9
M  V30 9 2 6 10
M  V30 10 1 6 11
M  V30 11 1 7 12
M  V30 12 1 8 13
M  V30 13 1 9 14
M  V30 14 1 10 15
M  V30 15 2 11 16
M  V30 16 1 12 17
M  V30 17 1 13 18
M  V30 18 1 13 19
M  V30 19 1 14 20
M  V30 20 2 15 21
M  V30 21 1 18 22
M  V30 22 1 10 12
M  V30 23 1 14 18
M  V30 24 1 16 21
M  V30 25 1 19 20
M  V30 26 1 5 23
M  V30 27 1 7 24
M  V30 28 1 8 25
M  V30 29 1 8 26
M  V30 30 1 9 27
M  V30 31 1 9 28
M  V30 32 1 11 29
M  V30 33 1 13 30
M  V30 34 1 14 31
M  V30 35 1 15 32
M  V30 36 1 16 33
M  V30 37 1 17 34
M  V30 38 1 17 35
M  V30 39 1 17 36
M  V30 40 1 19 37
M  V30 41 1 19 38
M  V30 42 1 20 39
M  V30 43 1 20 40
M  V30 44 1 21 41
M  V30 45 1 22 42
M  V30 46 1 22 43
M  V30 47 1 22 44
M  V30 END BOND
M  V30 BEGIN COLLECTION
M  V30 MDLV30/STEABS ATOMS=(2 13 14)
M  V30 END COLLECTION
M  V30 END CTAB
M  END
>  <Column 1>
3852

>  <level_0>
7294

>  <index>
7295

>  <Unnamed: 0>
7295

>  <NO.>
7308

>  <Name>


>  <IUPAC_name>


>  <SMILES>
CN1[C@@H]2CC[C@@H]1CC(OC(=O)c1cn(C)c3ccccc13)C2

>  <CID>


>  <logBB>


>  <BBB+/BBB->
BBB+

>  <Inchi>
InChI=1S/C18H22N2O2/c1-19-11-16(15-5-3-4-6-17(15)19)18(21)22-14-9-12-7-8-13(10-14)20(12)2/h3-6-11-14H-7-10H2-1-2H3/t12--13-/m1/s1

>  <threshold>


>  <reference>
R27|

>  <group>
C

>  <Class>
1

>  <ABC>
17.76

>  <ABCGG>
14.7

>  <nAcid>
0

>  <nBase>
1

>  <nAromAtom>
9

>  <nAromBond>
10

>  <nAtom>
44

>  <nHeavyAtom>
22

>  <nSpiro>
0

>  <nBridgehead>
2

>  <nHetero>
4

>  <nN>
2

>  <nO>
2

>  <nF>
0

>  <BalabanJ>
1.37

>  <BertzCT>
706.95

>  <nBonds>
47

>  <nBondsO>
25

>  <nBondsS>
36

>  <nBondsD>
1

>  <nBondsT>
0

>  <nBondsA>
10

>  <nBondsM>
11

>  <nBondsKS>
42

>  <nBondsKD>
5

>  <RNCG>
0.28

>  <RPCG>
0.21

>  <FCSP3>
0.5

>  <SZ>
26.67

>  <Sm>
24.84

>  <Sv>
26.91

>  <Sse>
43.75

>  <Sp>
29.06

>  <Si>
49.57

>  <MZ>
0.61

>  <Mm>
0.56

>  <Mv>
0.61

>  <Mse>
0.99

>  <Mp>
0.66

>  <Mi>
1.13

>  <NsCH3>
2

>  <NdCH2>
0

>  <NssCH2>
4

>  <NtCH>
0

>  <NdsCH>
0

>  <NaaCH>
5

>  <NsssCH>
3

>  <NddC>
0

>  <NtsC>
0

>  <NdssC>
1

>  <NaasC>
1

>  <NaaaC>
2

>  <NssssC>
0

>  <NsNH3>
0

>  <NsNH2>
0

>  <NssNH2>
0

>  <NdNH>
0

>  <NssNH>
0

>  <NaaNH>
0

>  <NtN>
0

>  <NsssNH>
0

>  <NdsN>
0

>  <NaaN>
0

>  <NsssN>
1

>  <NddsN>
0

>  <NaasN>
1

>  <NssssN>
0

>  <NsOH>
0

>  <NdO>
1

>  <NssO>
1

>  <NaaO>
0

>  <NsF>
0

>  <NsSiH3>
0

>  <NssSiH2>
0

>  <NsssSiH>
0

>  <NssssSi>
0

>  <NsPH2>
0

>  <NssPH>
0

>  <NsssP>
0

>  <NdsssP>
0

>  <NsssssP>
0

>  <NsSH>
0

>  <NdS>
0

>  <NssS>
0

>  <NaaS>
0

>  <NdssS>
0

>  <NddssS>
0

>  <NsCl>
0

>  <NsBr>
0

>  <NsI>
0

>  <fragCpx>
163.04

>  <fMF>
0.43

>  <nHBAcc>
4

>  <nHBDon>
0

>  <Kier1>
15.52

>  <Kier2>
6.14

>  <Lipinski>
1

>  <GhoseFilter>
1

>  <FilterItLogS>
-2.74

>  <VMcGowan>
231.24

>  <LabuteASA>
130.2

>  <PEOE_VSA1>
14.2

>  <PEOE_VSA2>
0

>  <PEOE_VSA3>
4.79

>  <PEOE_VSA4>
0

>  <PEOE_VSA5>
0

>  <PEOE_VSA6>
18.2

>  <PEOE_VSA7>
25.96

>  <PEOE_VSA8>
49.07

>  <PEOE_VSA9>
5.56

>  <PEOE_VSA10>
6.1

>  <PEOE_VSA11>
0

>  <PEOE_VSA12>
0

>  <PEOE_VSA13>
0

>  <SMR_VSA1>
9.53

>  <SMR_VSA2>
0

>  <SMR_VSA3>
9.47

>  <SMR_VSA4>
7.05

>  <SMR_VSA5>
43.87

>  <SMR_VSA6>
7.05

>  <SMR_VSA7>
36.03

>  <SMR_VSA8>
0

>  <SMR_VSA9>
0

>  <SlogP_VSA1>
0

>  <SlogP_VSA2>
40.67

>  <SlogP_VSA3>
11.78

>  <SlogP_VSA4>
0

>  <SlogP_VSA5>
36.04

>  <SlogP_VSA6>
30.46

>  <SlogP_VSA7>
0

>  <SlogP_VSA8>
10.9

>  <SlogP_VSA9>
0

>  <SlogP_VSA10>
0

>  <SlogP_VSA11>
0

>  <EState_VSA1>
0

>  <EState_VSA2>
12.07

>  <EState_VSA3>
17.65

>  <EState_VSA4>
23.74

>  <EState_VSA5>
12.84

>  <EState_VSA6>
0

>  <EState_VSA7>
42.08

>  <EState_VSA8>
11.95

>  <EState_VSA9>
4.74

>  <EState_VSA10>
4.79

>  <VSA_EState1>
7.84

>  <VSA_EState2>
15.07

>  <VSA_EState3>
0.98

>  <VSA_EState4>
1.75

>  <VSA_EState5>
-0.18

>  <VSA_EState6>
9.15

>  <VSA_EState7>
6.39

>  <VSA_EState8>
0

>  <VSA_EState9>
4.17

>  <apol>
48.53

>  <bpol>
28.09

>  <nRing>
4

>  <nHRing>
3

>  <naRing>
2

>  <naHRing>
1

>  <nARing 2>
2

>  <nAHRing 2>
2

>  <nFRing>
2

>  <nFHRing>
2

>  <nFaRing>
1

>  <nFaHRing>
1

>  <nFARing 2>
1

>  <nFAHRing 2>
1

>  <nRot>
2

>  <SLogP>
2.96

>  <SMR>
85.93

>  <TopoPSA(NO)>
34.47

>  <TopoPSA>
34.47

>  <JGI1>
0.18

>  <JGI2>
0.08

>  <JGI3>
0.07

>  <JGI4>
0.04

>  <JGI5>
0.02

>  <Diameter>
11

>  <Radius>
6

>  <TMWC10>
122.88

>  <TSRW10>
72.99

>  <MW>
298.17

>  <AMW>
6.78

>  <WPath>
1058

>  <WPol>
36

>  <Zagreb1>
124

>  <Zagreb2>
151

>  <mZagreb2>
4.67

>  <yes>


>  <nAR-cont>
1

>  <nHA-cont>
0.983774276

>  <MWHBN>
0.231647714

>  <MWHBN-cont>
0.985068857

>  <TPSA-cont>
0.759377995

>  <pka_cont>
0.97

>  <yes.1>


>  <BBB_SCORE>
5.465133552

>  <MMFF94 Energy>
42.923

$$$$
Compound 2998
Actelion Java MolfileCreator 2.0

  0  0  0  0  0  0              0 V3000
M  V30 BEGIN CTAB
M  V30 COUNTS 51 53 0 0 0
M  V30 BEGIN ATOM
M  V30 1 Cl -2.0316 -2.7637 -5.3702 0
M  V30 2 C -1.6801 -1.6198 -4.1372 0
M  V30 3 C -0.3706 -1.4074 -3.7355 0
M  V30 4 C -2.7063 -0.91 -3.537 0
M  V30 5 C -0.0747 -0.4689 -2.7214 0
M  V30 6 C -2.4101 0.0205 -2.5341 0
M  V30 7 S 1.6418 -0.4449 -2.2643 0
M  V30 8 C -1.0899 0.2728 -2.0919 0
M  V30 9 O 2.3645 0.1769 -3.3574 0
M  V30 10 O 1.9577 -1.807 -1.8712 0
M  V30 11 N 1.8228 0.5234 -0.8791 0
M  V30 12 N -0.8684 1.2696 -1.1278 0
M  V30 13 C 1.4995 1.908 -1.1056 0
M  V30 14 C 3.025 0.2217 -0.0811 0
M  V30 15 C 0.1443 2.2523 -1.2358 0
M  V30 16 C -1.8435 1.532 -0.0502 0
M  V30 17 C 2.4931 2.8783 -1.2877 0
M  V30 18 C -0.1902 3.5939 -1.4865 0
M  V30 19 C -2.1136 0.3001 0.8266 0
M  V30 20 C 2.1431 4.2054 -1.539 0
M  V30 21 C 0.8018 4.5648 -1.6312 0
M  V30 22 C -0.8615 -0.2027 1.5506 0
M  V30 23 C -1.193 -1.3474 2.5095 0
M  V30 24 C 0.0647 -1.8644 3.2092 0
M  V30 25 C -0.265 -2.9958 4.178 0
M  V30 26 C 0.9707 -3.5702 4.8107 0
M  V30 27 O 1.3146 -4.7399 4.7846 0
M  V30 28 O 1.693 -2.6596 5.4895 0
M  V30 29 H 0.433 -1.9801 -4.1966 0
M  V30 30 H -3.7375 -1.0611 -3.8451 0
M  V30 31 H -3.2472 0.5781 -2.1213 0
M  V30 32 H 3.101 0.9025 0.7736 0
M  V30 33 H 2.9571 -0.7899 0.3309 0
M  V30 34 H 3.9366 0.306 -0.6805 0
M  V30 35 H -2.7838 1.9113 -0.4679 0
M  V30 36 H -1.4812 2.3251 0.6195 0
M  V30 37 H 3.5453 2.6139 -1.2522 0
M  V30 38 H -1.2319 3.8829 -1.6005 0
M  V30 39 H -2.5447 -0.5146 0.2349 0
M  V30 40 H -2.8711 0.5753 1.5713 0
M  V30 41 H 2.9188 4.9545 -1.6778 0
M  V30 42 H 0.5273 5.5963 -1.8382 0
M  V30 43 H -0.3998 0.6214 2.1076 0
M  V30 44 H -0.1264 -0.5551 0.8201 0
M  V30 45 H -1.6675 -2.1658 1.9547 0
M  V30 46 H -1.9154 -1.0019 3.2591 0
M  V30 47 H 0.5488 -1.0404 3.7479 0
M  V30 48 H 0.7873 -2.2172 2.4626 0
M  V30 49 H -0.9355 -2.6562 4.9752 0
M  V30 50 H -0.7749 -3.8069 3.6452 0
M  V30 51 H 2.439 -3.1792 5.8564 0
M  V30 END ATOM
M  V30 BEGIN BOND
M  V30 1 1 1 2
M  V30 2 2 2 3
M  V30 3 1 2 4
M  V30 4 1 3 5
M  V30 5 2 4 6
M  V30 6 1 5 7
M  V30 7 2 5 8
M  V30 8 2 7 9
M  V30 9 2 7 10
M  V30 10 1 7 11
M  V30 11 1 8 12
M  V30 12 1 11 13
M  V30 13 1 11 14
M  V30 14 1 12 15
M  V30 15 1 12 16
M  V30 16 1 13 17
M  V30 17 1 15 18
M  V30 18 1 16 19
M  V30 19 2 17 20
M  V30 20 2 18 21
M  V30 21 1 19 22
M  V30 22 1 22 23
M  V30 23 1 23 24
M  V30 24 1 24 25
M  V30 25 1 25 26
M  V30 26 2 26 27
M  V30 27 1 26 28
M  V30 28 1 6 8
M  V30 29 2 13 15
M  V30 30 1 20 21
M  V30 31 1 3 29
M  V30 32 1 4 30
M  V30 33 1 6 31
M  V30 34 1 14 32
M  V30 35 1 14 33
M  V30 36 1 14 34
M  V30 37 1 16 35
M  V30 38 1 16 36
M  V30 39 1 17 37
M  V30 40 1 18 38
M  V30 41 1 19 39
M  V30 42 1 19 40
M  V30 43 1 20 41
M  V30 44 1 21 42
M  V30 45 1 22 43
M  V30 46 1 22 44
M  V30 47 1 23 45
M  V30 48 1 23 46
M  V30 49 1 24 47
M  V30 50 1 24 48
M  V30 51 1 25 49
M  V30 52 1 25 50
M  V30 53 1 28 51
M  V30 END BOND
M  V30 END CTAB
M  END
>  <Column 1>
3853

>  <level_0>
7300

>  <index>
7301

>  <Unnamed: 0>
7301

>  <NO.>
7314

>  <Name>


>  <IUPAC_name>


>  <SMILES>
CN1c2ccccc2N(CCCCCCC(=O)O)c2ccc(Cl)cc2S1(=O)=O

>  <CID>


>  <logBB>


>  <BBB+/BBB->
BBB+

>  <Inchi>
InChI=1S/C20H23ClN2O4S/c1-22-16-8-5-6-9-17(16)23(13-7-3-2-4-10-20(24)25)18-12-11-15(21)14-19(18)28(22-26)27/h5-6-8-9-11-12-14H-2-4-7-10-13H2-1H3-(H-24-25)

>  <threshold>


>  <reference>
R27|

>  <group>
C

>  <Class>
1

>  <ABC>
21.64

>  <ABCGG>
17.25

>  <nAcid>
1

>  <nBase>
0

>  <nAromAtom>
12

>  <nAromBond>
12

>  <nAtom>
51

>  <nHeavyAtom>
28

>  <nSpiro>
0

>  <nBridgehead>
0

>  <nHetero>
8

>  <nN>
2

>  <nO>
4

>  <nF>
0

>  <BalabanJ>
1.71

>  <BertzCT>
977.92

>  <nBonds>
53

>  <nBondsO>
30

>  <nBondsS>
38

>  <nBondsD>
3

>  <nBondsT>
0

>  <nBondsA>
12

>  <nBondsM>
15

>  <nBondsKS>
44

>  <nBondsKD>
9

>  <RNCG>
0.21

>  <RPCG>
0.13

>  <FCSP3>
0.35

>  <SZ>
37

>  <Sm>
35.21

>  <Sv>
32.88

>  <Sse>
51.7

>  <Sp>
35.46

>  <Si>
57.27

>  <MZ>
0.73

>  <Mm>
0.69

>  <Mv>
0.64

>  <Mse>
1.01

>  <Mp>
0.7

>  <Mi>
1.12

>  <NsCH3>
1

>  <NdCH2>
0

>  <NssCH2>
6

>  <NtCH>
0

>  <NdsCH>
0

>  <NaaCH>
7

>  <NsssCH>
0

>  <NddC>
0

>  <NtsC>
0

>  <NdssC>
1

>  <NaasC>
5

>  <NaaaC>
0

>  <NssssC>
0

>  <NsNH3>
0

>  <NsNH2>
0

>  <NssNH2>
0

>  <NdNH>
0

>  <NssNH>
0

>  <NaaNH>
0

>  <NtN>
0

>  <NsssNH>
0

>  <NdsN>
0

>  <NaaN>
0

>  <NsssN>
2

>  <NddsN>
0

>  <NaasN>
0

>  <NssssN>
0

>  <NsOH>
1

>  <NdO>
3

>  <NssO>
0

>  <NaaO>
0

>  <NsF>
0

>  <NsSiH3>
0

>  <NssSiH2>
0

>  <NsssSiH>
0

>  <NssssSi>
0

>  <NsPH2>
0

>  <NssPH>
0

>  <NsssP>
0

>  <NdsssP>
0

>  <NsssssP>
0

>  <NsSH>
0

>  <NdS>
0

>  <NssS>
0

>  <NaaS>
0

>  <NdssS>
0

>  <NddssS>
1

>  <NsCl>
1

>  <NsBr>
0

>  <NsI>
0

>  <fragCpx>
144.08

>  <fMF>
0.29

>  <nHBAcc>
4

>  <nHBDon>
1

>  <Kier1>
22.68

>  <Kier2>
9.87

>  <Lipinski>
1

>  <GhoseFilter>
1

>  <FilterItLogS>
-5.15

>  <VMcGowan>
302.01

>  <LabuteASA>
169.94

>  <PEOE_VSA1>
10.01

>  <PEOE_VSA2>
9.1

>  <PEOE_VSA3>
8.42

>  <PEOE_VSA4>
0

>  <PEOE_VSA5>
0

>  <PEOE_VSA6>
36.58

>  <PEOE_VSA7>
43.17

>  <PEOE_VSA8>
25.04

>  <PEOE_VSA9>
17.06

>  <PEOE_VSA10>
4.9

>  <PEOE_VSA11>
0

>  <PEOE_VSA12>
0

>  <PEOE_VSA13>
10.02

>  <SMR_VSA1>
18.32

>  <SMR_VSA2>
0

>  <SMR_VSA3>
0

>  <SMR_VSA4>
0

>  <SMR_VSA5>
37

>  <SMR_VSA6>
22.8

>  <SMR_VSA7>
47.49

>  <SMR_VSA8>
0

>  <SMR_VSA9>
0

>  <SlogP_VSA1>
9.21

>  <SlogP_VSA2>
33.09

>  <SlogP_VSA3>
14.82

>  <SlogP_VSA4>
0

>  <SlogP_VSA5>
32.1

>  <SlogP_VSA6>
47.36

>  <SlogP_VSA7>
5.02

>  <SlogP_VSA8>
0

>  <SlogP_VSA9>
0

>  <SlogP_VSA10>
17.06

>  <SlogP_VSA11>
0

>  <EState_VSA1>
15.99

>  <EState_VSA2>
11.32

>  <EState_VSA3>
29.36

>  <EState_VSA4>
24.95

>  <EState_VSA5>
10.37

>  <EState_VSA6>
25.25

>  <EState_VSA7>
23.1

>  <EState_VSA8>
0

>  <EState_VSA9>
16.71

>  <EState_VSA10>
13.21

>  <VSA_EState1>
27.59

>  <VSA_EState2>
12.83

>  <VSA_EState3>
9.11

>  <VSA_EState4>
2.03

>  <VSA_EState5>
-0.78

>  <VSA_EState6>
12.35

>  <VSA_EState7>
3.34

>  <VSA_EState8>
0.63

>  <VSA_EState9>
-2.18

>  <apol>
59.22

>  <bpol>
34.53

>  <nRing>
3

>  <nHRing>
1

>  <naRing>
2

>  <naHRing>
0

>  <nARing 2>
1

>  <nAHRing 2>
1

>  <nFRing>
1

>  <nFHRing>
1

>  <nFaRing>
0

>  <nFaHRing>
0

>  <nFARing 2>
1

>  <nFAHRing 2>
1

>  <nRot>
7

>  <SLogP>
4.65

>  <SMR>
111.21

>  <TopoPSA(NO)>
77.92

>  <TopoPSA>
86.3

>  <JGI1>
0.2

>  <JGI2>
0.09

>  <JGI3>
0.06

>  <JGI4>
0.05

>  <JGI5>
0.02

>  <Diameter>
13

>  <Radius>
7

>  <TMWC10>
135.29

>  <TSRW10>
71.83

>  <MW>
422.11

>  <AMW>
8.28

>  <WPath>
2021

>  <WPol>
51

>  <Zagreb1>
146

>  <Zagreb2>
173

>  <mZagreb2>
6.14

>  <yes>


>  <nAR-cont>
0.816016

>  <nHA-cont>
0.82432561

>  <MWHBN>
0.243364476

>  <MWHBN-cont>
0.970224927

>  <TPSA-cont>
0.397572411

>  <pka_cont>
0.97

>  <yes.1>


>  <BBB_SCORE>
4.375823823

>  <MMFF94 Energy>
16.811

$$$$
Compound 2999
Actelion Java MolfileCreator 2.0

  0  0  0  0  0  0              0 V3000
M  V30 BEGIN CTAB
M  V30 COUNTS 48 50 0 0 0
M  V30 BEGIN ATOM
M  V30 1 S -3.9289 3.8486 0.4003 0
M  V30 2 O -4.5338 4.6503 -0.6398 0
M  V30 3 O -2.5687 4.0674 0.8355 0
M  V30 4 N -4.8611 4.031 1.7921 0
M  V30 5 C -4.1783 2.113 0.0418 0
M  V30 6 C -6.2679 4.3936 1.6306 0
M  V30 7 C -3.588 1.7146 -1.3047 0
M  V30 8 C -2.1038 1.4462 -1.2587 0
M  V30 9 C -1.6283 0.2076 -0.7898 0
M  V30 10 C -1.1926 2.426 -1.6681 0
M  V30 11 C -0.242 -0.0371 -0.7387 0
M  V30 12 C 0.1881 2.2046 -1.6229 0
M  V30 13 C 0.6311 0.964 -1.1543 0
M  V30 14 C 0.5535 -1.1429 -0.3332 0
M  V30 15 N 1.9086 0.4782 -0.9985 0
M  V30 16 C 1.8828 -0.8041 -0.5021 0
M  V30 17 C 3.1457 -1.5736 -0.2374 0
M  V30 18 C 3.2857 -1.9234 1.249 0
M  V30 19 C 3.2166 -2.8433 -1.094 0
M  V30 20 C 4.5367 -2.7694 1.495 0
M  V30 21 C 4.4701 -3.6557 -0.7626 0
M  V30 22 N 4.621 -3.9755 0.6623 0
M  V30 23 C 3.6886 -5.0135 1.0974 0
M  V30 24 H -4.3401 4.5356 2.5117 0
M  V30 25 H -3.7656 1.533 0.8728 0
M  V30 26 H -5.263 1.9653 0.0062 0
M  V30 27 H -6.3603 5.4428 1.3374 0
M  V30 28 H -6.7779 4.2641 2.5897 0
M  V30 29 H -6.7629 3.7528 0.8966 0
M  V30 30 H -4.0798 0.7936 -1.6447 0
M  V30 31 H -3.8096 2.4643 -2.0739 0
M  V30 32 H -2.3188 -0.566 -0.4671 0
M  V30 33 H -1.5498 3.3929 -2.0203 0
M  V30 34 H 0.883 2.9773 -1.9346 0
M  V30 35 H 0.1882 -2.0886 0.0452 0
M  V30 36 H 2.744 1.0016 -1.22 0
M  V30 37 H 4.0009 -0.939 -0.5117 0
M  V30 38 H 3.3483 -1.0038 1.8447 0
M  V30 39 H 2.398 -2.46 1.6073 0
M  V30 40 H 2.3228 -3.4625 -0.946 0
M  V30 41 H 3.2303 -2.5754 -2.1581 0
M  V30 42 H 5.4242 -2.1538 1.2977 0
M  V30 43 H 4.5993 -3.0366 2.5571 0
M  V30 44 H 4.4839 -4.5749 -1.361 0
M  V30 45 H 5.354 -3.088 -1.0818 0
M  V30 46 H 2.6385 -4.7169 1.0119 0
M  V30 47 H 3.8808 -5.2855 2.1413 0
M  V30 48 H 3.8326 -5.9265 0.5088 0
M  V30 END ATOM
M  V30 BEGIN BOND
M  V30 1 2 1 2
M  V30 2 2 1 3
M  V30 3 1 1 4
M  V30 4 1 1 5
M  V30 5 1 4 6
M  V30 6 1 5 7
M  V30 7 1 7 8
M  V30 8 2 8 9
M  V30 9 1 8 10
M  V30 10 1 9 11
M  V30 11 2 10 12
M  V30 12 2 11 13
M  V30 13 1 11 14
M  V30 14 1 13 15
M  V30 15 2 14 16
M  V30 16 1 16 17
M  V30 17 1 17 18
M  V30 18 1 17 19
M  V30 19 1 18 20
M  V30 20 1 19 21
M  V30 21 1 20 22
M  V30 22 1 22 23
M  V30 23 1 12 13
M  V30 24 1 15 16
M  V30 25 1 21 22
M  V30 26 1 4 24
M  V30 27 1 5 25
M  V30 28 1 5 26
M  V30 29 1 6 27
M  V30 30 1 6 28
M  V30 31 1 6 29
M  V30 32 1 7 30
M  V30 33 1 7 31
M  V30 34 1 9 32
M  V30 35 1 10 33
M  V30 36 1 12 34
M  V30 37 1 14 35
M  V30 38 1 15 36
M  V30 39 1 17 37
M  V30 40 1 18 38
M  V30 41 1 18 39
M  V30 42 1 19 40
M  V30 43 1 19 41
M  V30 44 1 20 42
M  V30 45 1 20 43
M  V30 46 1 21 44
M  V30 47 1 21 45
M  V30 48 1 23 46
M  V30 49 1 23 47
M  V30 50 1 23 48
M  V30 END BOND
M  V30 END CTAB
M  END
>  <Column 1>
3854

>  <level_0>
7307

>  <index>
7308

>  <Unnamed: 0>
7308

>  <NO.>
7321

>  <Name>
cns(=o)(=o)ccc=1c=c2c=c(nc2=cc=1)c1ccn(cc1)c

>  <IUPAC_name>
n-methyl-2-[2-(1-methylpiperidin-4-yl)-1h-indol-5-yl]ethanesulfonamide

>  <SMILES>
CNS(=O)(=O)CCc1ccc2[nH]c(C3CCN(C)CC3)cc2c1

>  <CID>
153888351

>  <logBB>


>  <BBB+/BBB->
BBB+

>  <Inchi>
InChI=1S/C17H25N3O2S/c1-18-23(21-22)10-7-13-3-4-16-15(11-13)12-17(19-16)14-5-8-20(2)9-6-14/h3-4-11-12-14-18-19H-5-10H2-1-2H3

>  <threshold>


>  <reference>
R27|

>  <group>
C

>  <Class>
-1

>  <ABC>
18.02

>  <ABCGG>
14.07

>  <nAcid>
0

>  <nBase>
1

>  <nAromAtom>
9

>  <nAromBond>
10

>  <nAtom>
48

>  <nHeavyAtom>
23

>  <nSpiro>
0

>  <nBridgehead>
0

>  <nHetero>
6

>  <nN>
3

>  <nO>
2

>  <nF>
0

>  <BalabanJ>
1.46

>  <BertzCT>
774.23

>  <nBonds>
50

>  <nBondsO>
25

>  <nBondsS>
38

>  <nBondsD>
2

>  <nBondsT>
0

>  <nBondsA>
10

>  <nBondsM>
12

>  <nBondsKS>
44

>  <nBondsKD>
6

>  <RNCG>
0.22

>  <RPCG>
0.13

>  <FCSP3>
0.53

>  <SZ>
30

>  <Sm>
27.93

>  <Sv>
28.66

>  <Sse>
47.83

>  <Sp>
31.65

>  <Si>
54.4

>  <MZ>
0.63

>  <Mm>
0.58

>  <Mv>
0.6

>  <Mse>
1

>  <Mp>
0.66

>  <Mi>
1.13

>  <NsCH3>
2

>  <NdCH2>
0

>  <NssCH2>
6

>  <NtCH>
0

>  <NdsCH>
0

>  <NaaCH>
4

>  <NsssCH>
1

>  <NddC>
0

>  <NtsC>
0

>  <NdssC>
0

>  <NaasC>
2

>  <NaaaC>
2

>  <NssssC>
0

>  <NsNH3>
0

>  <NsNH2>
0

>  <NssNH2>
0

>  <NdNH>
0

>  <NssNH>
1

>  <NaaNH>
1

>  <NtN>
0

>  <NsssNH>
0

>  <NdsN>
0

>  <NaaN>
0

>  <NsssN>
1

>  <NddsN>
0

>  <NaasN>
0

>  <NssssN>
0

>  <NsOH>
0

>  <NdO>
2

>  <NssO>
0

>  <NaaO>
0

>  <NsF>
0

>  <NsSiH3>
0

>  <NssSiH2>
0

>  <NsssSiH>
0

>  <NssssSi>
0

>  <NsPH2>
0

>  <NssPH>
0

>  <NsssP>
0

>  <NdsssP>
0

>  <NsssssP>
0

>  <NsSH>
0

>  <NdS>
0

>  <NssS>
0

>  <NaaS>
0

>  <NdssS>
0

>  <NddssS>
1

>  <NsCl>
0

>  <NsBr>
0

>  <NsI>
0

>  <fragCpx>
119.06

>  <fMF>
0.31

>  <nHBAcc>
3

>  <nHBDon>
2

>  <Kier1>
17.81

>  <Kier2>
7.49

>  <Lipinski>
1

>  <GhoseFilter>
1

>  <FilterItLogS>
-4.7

>  <VMcGowan>
258.64

>  <LabuteASA>
137.67

>  <PEOE_VSA1>
9.88

>  <PEOE_VSA2>
0

>  <PEOE_VSA3>
13.14

>  <PEOE_VSA4>
0

>  <PEOE_VSA5>
0

>  <PEOE_VSA6>
6.07

>  <PEOE_VSA7>
75.6

>  <PEOE_VSA8>
17.13

>  <PEOE_VSA9>
5.75

>  <PEOE_VSA10>
0

>  <PEOE_VSA11>
0

>  <PEOE_VSA12>
10.02

>  <PEOE_VSA13>
0

>  <SMR_VSA1>
8.42

>  <SMR_VSA2>
0

>  <SMR_VSA3>
14.61

>  <SMR_VSA4>
0

>  <SMR_VSA5>
25.18

>  <SMR_VSA6>
32.94

>  <SMR_VSA7>
35.52

>  <SMR_VSA8>
0

>  <SMR_VSA9>
0

>  <SlogP_VSA1>
4.72

>  <SlogP_VSA2>
51.24

>  <SlogP_VSA3>
16.44

>  <SlogP_VSA4>
0

>  <SlogP_VSA5>
30.02

>  <SlogP_VSA6>
24.27

>  <SlogP_VSA7>
0

>  <SlogP_VSA8>
10.9

>  <SlogP_VSA9>
0

>  <SlogP_VSA10>
0

>  <SlogP_VSA11>
0

>  <EState_VSA1>
10.02

>  <EState_VSA2>
5.75

>  <EState_VSA3>
12.34

>  <EState_VSA4>
24.17

>  <EState_VSA5>
30.97

>  <EState_VSA6>
0

>  <EState_VSA7>
6.07

>  <EState_VSA8>
39.85

>  <EState_VSA9>
0

>  <EState_VSA10>
8.42

>  <VSA_EState1>
25.47

>  <VSA_EState2>
5.92

>  <VSA_EState3>
1.18

>  <VSA_EState4>
3.51

>  <VSA_EState5>
0.73

>  <VSA_EState6>
8.43

>  <VSA_EState7>
2.92

>  <VSA_EState8>
2.29

>  <VSA_EState9>
0.48

>  <apol>
52.86

>  <bpol>
34.59

>  <nRing>
3

>  <nHRing>
2

>  <naRing>
2

>  <naHRing>
1

>  <nARing 2>
1

>  <nAHRing 2>
1

>  <nFRing>
1

>  <nFHRing>
1

>  <nFaRing>
1

>  <nFaHRing>
1

>  <nFARing 2>
0

>  <nFAHRing 2>
0

>  <nRot>
5

>  <SLogP>
2.07

>  <SMR>
94.32

>  <TopoPSA(NO)>
65.2

>  <TopoPSA>
73.58

>  <JGI1>
0.26

>  <JGI2>
0.08

>  <JGI3>
0.03

>  <JGI4>
0.05

>  <JGI5>
0.03

>  <Diameter>
14

>  <Radius>
7

>  <TMWC10>
122.45

>  <TSRW10>
71.36

>  <MW>
335.17

>  <AMW>
6.98

>  <WPath>
1329

>  <WPol>
33

>  <Zagreb1>
122

>  <Zagreb2>
141

>  <mZagreb2>
4.97

>  <yes>


>  <nAR-cont>
0.816016

>  <nHA-cont>
0.967789328

>  <MWHBN>
0.273109895

>  <MWHBN-cont>
0.912919943

>  <TPSA-cont>
0.48636591

>  <pka_cont>
0.97

>  <yes.1>


>  <BBB_SCORE>
4.610917062

>  <MMFF94 Energy>
-54.383

$$$$
Compound 3000
Actelion Java MolfileCreator 2.0

  0  0  0  0  0  0              0 V3000
M  V30 BEGIN CTAB
M  V30 COUNTS 47 48 0 0 0
M  V30 BEGIN ATOM
M  V30 1 O 1.7556 -5.1137 -0.0797 0
M  V30 2 N 1.877 -3.884 -0.1701 0 CHG=1
M  V30 3 O 2.9612 -3.2829 -0.17 0 CHG=-1
M  V30 4 C 0.6531 -3.0808 -0.2839 0
M  V30 5 C 0.7477 -1.686 -0.4001 0
M  V30 6 C -0.5952 -3.7129 -0.2712 0
M  V30 7 C -0.4175 -0.9069 -0.5 0
M  V30 8 C -1.7533 -2.9428 -0.3743 0
M  V30 9 C -1.6668 -1.553 -0.4875 0
M  V30 10 C -0.3098 0.6173 -0.6218 0 CFG=1
M  V30 11 C -0.817 1.0901 -1.9778 0
M  V30 12 C -0.9956 1.3162 0.5539 0
M  V30 13 C -1.8227 1.9802 -2.0674 0
M  V30 14 C -0.1878 0.5385 -3.1923 0
M  V30 15 C -1.9981 2.2061 0.3642 0
M  V30 16 C -0.5416 0.9469 1.9159 0
M  V30 17 N -2.4051 2.508 -0.9265 0
M  V30 18 C -2.3467 2.4947 -3.2959 0
M  V30 19 O -0.8038 0.1751 -4.1794 0
M  V30 20 O 1.157 0.5036 -3.0272 0
M  V30 21 C -2.7081 2.9495 1.4685 0
M  V30 22 O -1.2876 0.7332 2.8576 0
M  V30 23 O 0.8132 0.8887 1.934 0
M  V30 24 N -2.8015 2.9766 -4.2486 0
M  V30 25 C 1.8635 -0.0234 -4.1522 0
M  V30 26 C 1.4129 0.5346 3.1949 0
M  V30 27 C 1.4432 -0.9827 3.3391 0
M  V30 28 C 2.826 1.1042 3.1945 0
M  V30 29 H 1.7226 -1.1996 -0.4083 0
M  V30 30 H -0.6832 -4.7937 -0.1816 0
M  V30 31 H -2.7289 -3.4252 -0.3648 0
M  V30 32 H -2.5892 -0.9773 -0.5627 0
M  V30 33 H 0.7504 0.9037 -0.5715 0
M  V30 34 H -3.1612 3.1812 -1.0472 0
M  V30 35 H -2.0998 3.0543 2.3711 0
M  V30 36 H -2.9539 3.9685 1.1478 0
M  V30 37 H -3.6418 2.4396 1.7259 0
M  V30 38 H 2.9315 -0.0071 -3.9184 0
M  V30 39 H 1.5653 -1.0598 -4.3394 0
M  V30 40 H 1.6921 0.5969 -5.0374 0
M  V30 41 H 0.8556 0.9866 4.0246 0
M  V30 42 H 1.9135 -1.2802 4.2814 0
M  V30 43 H 0.4312 -1.3996 3.3117 0
M  V30 44 H 1.9954 -1.4436 2.5131 0
M  V30 45 H 3.3491 0.8726 4.1272 0
M  V30 46 H 2.7971 2.1924 3.0715 0
M  V30 47 H 3.4095 0.7089 2.3555 0
M  V30 END ATOM
M  V30 BEGIN BOND
M  V30 1 2 1 2
M  V30 2 1 2 3
M  V30 3 1 2 4
M  V30 4 2 4 5
M  V30 5 1 4 6
M  V30 6 1 5 7
M  V30 7 2 6 8
M  V30 8 2 7 9
M  V30 9 1 7 10
M  V30 10 1 10 11
M  V30 11 1 10 12
M  V30 12 2 11 13
M  V30 13 1 11 14
M  V30 14 2 12 15
M  V30 15 1 12 16
M  V30 16 1 13 17
M  V30 17 1 13 18
M  V30 18 2 14 19
M  V30 19 1 14 20
M  V30 20 1 15 21
M  V30 21 2 16 22
M  V30 22 1 16 23
M  V30 23 3 18 24
M  V30 24 1 20 25
M  V30 25 1 23 26
M  V30 26 1 26 27
M  V30 27 1 26 28
M  V30 28 1 8 9
M  V30 29 1 15 17
M  V30 30 1 5 29
M  V30 31 1 6 30
M  V30 32 1 8 31
M  V30 33 1 9 32
M  V30 34 1 10 33
M  V30 35 1 17 34
M  V30 36 1 21 35
M  V30 37 1 21 36
M  V30 38 1 21 37
M  V30 39 1 25 38
M  V30 40 1 25 39
M  V30 41 1 25 40
M  V30 42 1 26 41
M  V30 43 1 27 42
M  V30 44 1 27 43
M  V30 45 1 27 44
M  V30 46 1 28 45
M  V30 47 1 28 46
M  V30 48 1 28 47
M  V30 END BOND
M  V30 BEGIN COLLECTION
M  V30 MDLV30/STEABS ATOMS=(1 10)
M  V30 END COLLECTION
M  V30 END CTAB
M  END
>  <Column 1>
3856

>  <level_0>
7340

>  <index>
7341

>  <Unnamed: 0>
7341

>  <NO.>
7354

>  <Name>
(r)-nilvadipine

>  <IUPAC_name>
3-o-methyl 5-o-propan-2-yl (4r)-2-cyano-6-methyl-4-(3-nitrophenyl)-1-4-dihydropyridine-3-5-dicarboxylate

>  <SMILES>
COC(=O)C1=C(C#N)NC(C)=C(C(=O)OC(C)C)[C@H]1c1cccc([N+](=O)[O-])c1

>  <CID>
10000147

>  <logBB>


>  <BBB+/BBB->
BBB+

>  <Inchi>
InChI=1S/C19H19N3O6/c1-10(2)28-19(24)15-11(3)21-14(9-20)17(18(23)27-4)16(15)12-6-5-7-13(8-12)22(25)26/h5-8-10-16-21H-1-4H3/t16-/m1/s1

>  <threshold>


>  <reference>
R27|

>  <group>
C

>  <Class>
1

>  <ABC>
20.95

>  <ABCGG>
18.68

>  <nAcid>
0

>  <nBase>
0

>  <nAromAtom>
6

>  <nAromBond>
6

>  <nAtom>
47

>  <nHeavyAtom>
28

>  <nSpiro>
0

>  <nBridgehead>
0

>  <nHetero>
9

>  <nN>
3

>  <nO>
6

>  <nF>
0

>  <BalabanJ>
2.4

>  <BertzCT>
939.23

>  <nBonds>
48

>  <nBondsO>
29

>  <nBondsS>
36

>  <nBondsD>
5

>  <nBondsT>
1

>  <nBondsA>
6

>  <nBondsM>
12

>  <nBondsKS>
39

>  <nBondsKD>
8

>  <RNCG>
0.17

>  <RPCG>
0.13

>  <FCSP3>
0.32

>  <SZ>
33.67

>  <Sm>
32.09

>  <Sv>
30.71

>  <Sse>
48.41

>  <Sp>
31.44

>  <Si>
53.07

>  <MZ>
0.72

>  <Mm>
0.68

>  <Mv>
0.65

>  <Mse>
1.03

>  <Mp>
0.67

>  <Mi>
1.13

>  <NsCH3>
4

>  <NdCH2>
0

>  <NssCH2>
0

>  <NtCH>
0

>  <NdsCH>
0

>  <NaaCH>
4

>  <NsssCH>
2

>  <NddC>
0

>  <NtsC>
1

>  <NdssC>
6

>  <NaasC>
2

>  <NaaaC>
0

>  <NssssC>
0

>  <NsNH3>
0

>  <NsNH2>
0

>  <NssNH2>
0

>  <NdNH>
0

>  <NssNH>
1

>  <NaaNH>
0

>  <NtN>
1

>  <NsssNH>
0

>  <NdsN>
0

>  <NaaN>
0

>  <NsssN>
0

>  <NddsN>
1

>  <NaasN>
0

>  <NssssN>
0

>  <NsOH>
0

>  <NdO>
3

>  <NssO>
2

>  <NaaO>
0

>  <NsF>
0

>  <NsSiH3>
0

>  <NssSiH2>
0

>  <NsssSiH>
0

>  <NssssSi>
0

>  <NsPH2>
0

>  <NssPH>
0

>  <NsssP>
0

>  <NdsssP>
0

>  <NsssssP>
0

>  <NsSH>
0

>  <NdS>
0

>  <NssS>
0

>  <NaaS>
0

>  <NdssS>
0

>  <NddssS>
0

>  <NsCl>
0

>  <NsBr>
0

>  <NsI>
0

>  <fragCpx>
85.09

>  <fMF>
0.26

>  <nHBAcc>
8

>  <nHBDon>
1

>  <Kier1>
24.27

>  <Kier2>
10.86

>  <Lipinski>
1

>  <GhoseFilter>
1

>  <FilterItLogS>
-3.95

>  <VMcGowan>
279.01

>  <LabuteASA>
160.94

>  <PEOE_VSA1>
14.79

>  <PEOE_VSA2>
10.11

>  <PEOE_VSA3>
9.59

>  <PEOE_VSA4>
5.26

>  <PEOE_VSA5>
0

>  <PEOE_VSA6>
12.13

>  <PEOE_VSA7>
26.33

>  <PEOE_VSA8>
17.83

>  <PEOE_VSA9>
35.2

>  <PEOE_VSA10>
11.77

>  <PEOE_VSA11>
0

>  <PEOE_VSA12>
0

>  <PEOE_VSA13>
5.69

>  <SMR_VSA1>
23.99

>  <SMR_VSA2>
5.26

>  <SMR_VSA3>
5.32

>  <SMR_VSA4>
0

>  <SMR_VSA5>
32.79

>  <SMR_VSA6>
7.11

>  <SMR_VSA7>
62.48

>  <SMR_VSA8>
0

>  <SMR_VSA9>
6.07

>  <SlogP_VSA1>
5.32

>  <SlogP_VSA2>
30.08

>  <SlogP_VSA3>
19.06

>  <SlogP_VSA4>
21.45

>  <SlogP_VSA5>
32.25

>  <SlogP_VSA6>
46.81

>  <SlogP_VSA7>
0

>  <SlogP_VSA8>
0

>  <SlogP_VSA9>
0

>  <SlogP_VSA10>
5.69

>  <SlogP_VSA11>
0

>  <EState_VSA1>
28.88

>  <EState_VSA2>
22.53

>  <EState_VSA3>
11.26

>  <EState_VSA4>
7.11

>  <EState_VSA5>
24.27

>  <EState_VSA6>
20.77

>  <EState_VSA7>
6.07

>  <EState_VSA8>
5.32

>  <EState_VSA9>
9.47

>  <EState_VSA10>
24.97

>  <VSA_EState1>
10.09

>  <VSA_EState2>
35.82

>  <VSA_EState3>
23.4

>  <VSA_EState4>
0.25

>  <VSA_EState5>
-2.59

>  <VSA_EState6>
7.41

>  <VSA_EState7>
-0.43

>  <VSA_EState8>
4.9

>  <VSA_EState9>
1.14

>  <apol>
52.51

>  <bpol>
26.57

>  <nRing>
2

>  <nHRing>
1

>  <naRing>
1

>  <naHRing>
0

>  <nARing 2>
1

>  <nAHRing 2>
1

>  <nFRing>
0

>  <nFHRing>
0

>  <nFaRing>
0

>  <nFaHRing>
0

>  <nFARing 2>
0

>  <nFAHRing 2>
0

>  <nRot>
5

>  <SLogP>
2.46

>  <SMR>
97.56

>  <TopoPSA(NO)>
131.56

>  <TopoPSA>
131.56

>  <JGI1>
0.22

>  <JGI2>
0.08

>  <JGI3>
0.06

>  <JGI4>
0.05

>  <JGI5>
0.03

>  <Diameter>
10

>  <Radius>
5

>  <TMWC10>
133.7

>  <TSRW10>
63.27

>  <MW>
385.13

>  <AMW>
8.19

>  <WPath>
1814

>  <WPol>
48

>  <Zagreb1>
140

>  <Zagreb2>
165

>  <mZagreb2>
6.39

>  <yes>


>  <nAR-cont>
0.816016

>  <nHA-cont>
0.82432561

>  <MWHBN>
0.458605052

>  <MWHBN-cont>
0

>  <TPSA-cont>
0

>  <pka_cont>
0.97

>  <yes.1>


>  <BBB_SCORE>
2.12534161

>  <MMFF94 Energy>
41.831

$$$$
Compound 3001
Actelion Java MolfileCreator 2.0

  0  0  0  0  0  0              0 V3000
M  V30 BEGIN CTAB
M  V30 COUNTS 48 50 0 0 0
M  V30 BEGIN ATOM
M  V30 1 O -1.1196 2.3203 -1.1196 0
M  V30 2 C -1.1647 1.1019 -1.1263 0
M  V30 3 O -2.2703 0.3258 -1.0042 0
M  V30 4 C 0.0288 0.2394 -1.1943 0
M  V30 5 C -3.5137 1.0286 -0.8303 0
M  V30 6 C 0.2451 -0.6263 -2.2087 0
M  V30 7 C 1.0218 0.4134 -0.0526 0 CFG=2
M  V30 8 C -4.0829 1.3991 -2.1946 0
M  V30 9 C -4.4561 0.0915 -0.0852 0
M  V30 10 N 1.4082 -1.3796 -2.2209 0
M  V30 11 C -0.6773 -0.8164 -3.3846 0
M  V30 12 C 2.2932 -0.4078 -0.252 0
M  V30 13 C 0.3727 0.0864 1.2846 0
M  V30 14 C 2.4309 -1.263 -1.2909 0
M  V30 15 C 3.3527 -0.2593 0.7692 0
M  V30 16 C 0.2477 0.9992 2.359 0
M  V30 17 C -0.1702 -1.1961 1.5778 0
M  V30 18 C 3.6576 -2.0988 -1.5566 0
M  V30 19 O 3.9114 -1.1916 1.3252 0
M  V30 20 O 3.5853 1.0581 0.9814 0
M  V30 21 N 0.6501 2.2738 2.4427 0
M  V30 22 C -0.3834 0.6452 3.6256 0
M  V30 23 C -0.7846 -1.5368 2.8121 0
M  V30 24 C 4.5561 1.3227 1.9938 0
M  V30 25 O 0.2822 2.7101 3.7024 0
M  V30 26 N -0.3472 1.7148 4.429 0
M  V30 27 C -0.9151 -0.6311 3.8781 0
M  V30 28 H -3.3665 1.9285 -0.2205 0
M  V30 29 H 1.3145 1.4725 -0.0594 0
M  V30 30 H -5.0537 1.8947 -2.0976 0
M  V30 31 H -3.4044 2.0715 -2.7297 0
M  V30 32 H -4.2029 0.5098 -2.8233 0
M  V30 33 H -5.4306 0.5592 0.0852 0
M  V30 34 H -4.0276 -0.1859 0.8842 0
M  V30 35 H -4.6052 -0.8408 -0.641 0
M  V30 36 H 1.5485 -2.0206 -2.9982 0
M  V30 37 H -1.1889 -1.7813 -3.3075 0
M  V30 38 H -1.4343 -0.0323 -3.4712 0
M  V30 39 H -0.1059 -0.805 -4.3195 0
M  V30 40 H -0.1159 -1.9754 0.8132 0
M  V30 41 H 4.554 -1.7181 -1.0599 0
M  V30 42 H 3.4869 -3.1299 -1.2312 0
M  V30 43 H 3.884 -2.1123 -2.6289 0
M  V30 44 H -1.1695 -2.5496 2.9373 0
M  V30 45 H 4.652 2.4072 2.0964 0
M  V30 46 H 4.2299 0.9117 2.9545 0
M  V30 47 H 5.5297 0.9135 1.7068 0
M  V30 48 H -1.3813 -0.8922 4.819 0
M  V30 END ATOM
M  V30 BEGIN BOND
M  V30 1 2 1 2
M  V30 2 1 2 3
M  V30 3 1 2 4
M  V30 4 1 3 5
M  V30 5 2 4 6
M  V30 6 1 4 7
M  V30 7 1 5 8
M  V30 8 1 5 9
M  V30 9 1 6 10
M  V30 10 1 6 11
M  V30 11 1 7 12
M  V30 12 1 7 13
M  V30 13 1 10 14
M  V30 14 1 12 15
M  V30 15 1 13 16
M  V30 16 2 13 17
M  V30 17 1 14 18
M  V30 18 2 15 19
M  V30 19 1 15 20
M  V30 20 2 16 21
M  V30 21 1 16 22
M  V30 22 1 17 23
M  V30 23 1 20 24
M  V30 24 1 21 25
M  V30 25 2 22 26
M  V30 26 1 22 27
M  V30 27 2 12 14
M  V30 28 2 23 27
M  V30 29 1 25 26
M  V30 30 1 5 28
M  V30 31 1 7 29
M  V30 32 1 8 30
M  V30 33 1 8 31
M  V30 34 1 8 32
M  V30 35 1 9 33
M  V30 36 1 9 34
M  V30 37 1 9 35
M  V30 38 1 10 36
M  V30 39 1 11 37
M  V30 40 1 11 38
M  V30 41 1 11 39
M  V30 42 1 17 40
M  V30 43 1 18 41
M  V30 44 1 18 42
M  V30 45 1 18 43
M  V30 46 1 23 44
M  V30 47 1 24 45
M  V30 48 1 24 46
M  V30 49 1 24 47
M  V30 50 1 27 48
M  V30 END BOND
M  V30 BEGIN COLLECTION
M  V30 MDLV30/STEABS ATOMS=(1 7)
M  V30 END COLLECTION
M  V30 END CTAB
M  END
>  <Column 1>
3857

>  <level_0>
7341

>  <index>
7342

>  <Unnamed: 0>
7342

>  <NO.>
7355

>  <Name>
mmv001493

>  <IUPAC_name>
3-o-methyl 5-o-propan-2-yl (4s)-4-(2-1-3-benzoxadiazol-4-yl)-2-6-dimethyl-1-4-dihydropyridine-3-5-dicarboxylate

>  <SMILES>
COC(=O)C1=C(C)NC(C)=C(C(=O)OC(C)C)[C@H]1c1cccc2nonc12

>  <CID>
158617

>  <logBB>


>  <BBB+/BBB->
BBB+

>  <Inchi>
InChI=1S/C19H21N3O5/c1-9(2)26-19(24)15-11(4)20-10(3)14(18(23)25-5)16(15)12-7-6-8-13-17(12)22-27-21-13/h6-9-16-20H-1-5H3/t16-/m0/s1

>  <threshold>


>  <reference>
R27|

>  <group>
C

>  <Class>
1

>  <ABC>
20.8

>  <ABCGG>
18.52

>  <nAcid>
0

>  <nBase>
0

>  <nAromAtom>
9

>  <nAromBond>
10

>  <nAtom>
48

>  <nHeavyAtom>
27

>  <nSpiro>
0

>  <nBridgehead>
0

>  <nHetero>
8

>  <nN>
3

>  <nO>
5

>  <nF>
0

>  <BalabanJ>
1.95

>  <BertzCT>
970.64

>  <nBonds>
50

>  <nBondsO>
29

>  <nBondsS>
36

>  <nBondsD>
4

>  <nBondsT>
0

>  <nBondsA>
10

>  <nBondsM>
14

>  <nBondsKS>
42

>  <nBondsKD>
8

>  <RNCG>
0.2

>  <RPCG>
0.14

>  <FCSP3>
0.37

>  <SZ>
32.67

>  <Sm>
30.92

>  <Sv>
30.54

>  <Sse>
48.97

>  <Sp>
31.76

>  <Si>
54.28

>  <MZ>
0.68

>  <Mm>
0.64

>  <Mv>
0.64

>  <Mse>
1.02

>  <Mp>
0.66

>  <Mi>
1.13

>  <NsCH3>
5

>  <NdCH2>
0

>  <NssCH2>
0

>  <NtCH>
0

>  <NdsCH>
0

>  <NaaCH>
3

>  <NsssCH>
2

>  <NddC>
0

>  <NtsC>
0

>  <NdssC>
6

>  <NaasC>
1

>  <NaaaC>
2

>  <NssssC>
0

>  <NsNH3>
0

>  <NsNH2>
0

>  <NssNH2>
0

>  <NdNH>
0

>  <NssNH>
1

>  <NaaNH>
0

>  <NtN>
0

>  <NsssNH>
0

>  <NdsN>
0

>  <NaaN>
2

>  <NsssN>
0

>  <NddsN>
0

>  <NaasN>
0

>  <NssssN>
0

>  <NsOH>
0

>  <NdO>
2

>  <NssO>
2

>  <NaaO>
1

>  <NsF>
0

>  <NsSiH3>
0

>  <NssSiH2>
0

>  <NsssSiH>
0

>  <NssssSi>
0

>  <NsPH2>
0

>  <NssPH>
0

>  <NsssP>
0

>  <NdsssP>
0

>  <NsssssP>
0

>  <NsSH>
0

>  <NdS>
0

>  <NssS>
0

>  <NaaS>
0

>  <NdssS>
0

>  <NddssS>
0

>  <NsCl>
0

>  <NsBr>
0

>  <NsI>
0

>  <fragCpx>
139.08

>  <fMF>
0.31

>  <nHBAcc>
8

>  <nHBDon>
1

>  <Kier1>
21.7

>  <Kier2>
9.21

>  <Lipinski>
1

>  <GhoseFilter>
1

>  <FilterItLogS>
-4.55

>  <VMcGowan>
270.88

>  <LabuteASA>
155.71

>  <PEOE_VSA1>
14.79

>  <PEOE_VSA2>
0

>  <PEOE_VSA3>
14.22

>  <PEOE_VSA4>
0

>  <PEOE_VSA5>
0

>  <PEOE_VSA6>
12.13

>  <PEOE_VSA7>
49.64

>  <PEOE_VSA8>
11.39

>  <PEOE_VSA9>
30.28

>  <PEOE_VSA10>
11.03

>  <PEOE_VSA11>
0

>  <PEOE_VSA12>
0

>  <PEOE_VSA13>
0

>  <SMR_VSA1>
23.69

>  <SMR_VSA2>
0

>  <SMR_VSA3>
15.63

>  <SMR_VSA4>
0

>  <SMR_VSA5>
39.72

>  <SMR_VSA6>
7.11

>  <SMR_VSA7>
46.3

>  <SMR_VSA8>
0

>  <SMR_VSA9>
0

>  <SlogP_VSA1>
5.32

>  <SlogP_VSA2>
35.47

>  <SlogP_VSA3>
19.06

>  <SlogP_VSA4>
0

>  <SlogP_VSA5>
39.18

>  <SlogP_VSA6>
45.37

>  <SlogP_VSA7>
0

>  <SlogP_VSA8>
11.03

>  <SlogP_VSA9>
0

>  <SlogP_VSA10>
0

>  <SlogP_VSA11>
0

>  <EState_VSA1>
17.86

>  <EState_VSA2>
6.1

>  <EState_VSA3>
39.14

>  <EState_VSA4>
0

>  <EState_VSA5>
7.11

>  <EState_VSA6>
45.89

>  <EState_VSA7>
0

>  <EState_VSA8>
15.63

>  <EState_VSA9>
14.1

>  <EState_VSA10>
9.59

>  <VSA_EState1>
15.26

>  <VSA_EState2>
25.46

>  <VSA_EState3>
10.91

>  <VSA_EState4>
3.45

>  <VSA_EState5>
-1.77

>  <VSA_EState6>
5.3

>  <VSA_EState7>
-0.31

>  <VSA_EState8>
7.06

>  <VSA_EState9>
1.3

>  <apol>
53.04

>  <bpol>
28.58

>  <nRing>
3

>  <nHRing>
2

>  <naRing>
2

>  <naHRing>
1

>  <nARing 2>
1

>  <nAHRing 2>
1

>  <nFRing>
1

>  <nFHRing>
1

>  <nFaRing>
1

>  <nFaHRing>
1

>  <nFARing 2>
0

>  <nFAHRing 2>
0

>  <nRot>
4

>  <SLogP>
2.58

>  <SMR>
96.32

>  <TopoPSA(NO)>
103.55

>  <TopoPSA>
103.55

>  <JGI1>
0.19

>  <JGI2>
0.08

>  <JGI3>
0.06

>  <JGI4>
0.04

>  <JGI5>
0.03

>  <Diameter>
9

>  <Radius>
5

>  <TMWC10>
133.39

>  <TSRW10>
76.05

>  <MW>
371.15

>  <AMW>
7.73

>  <WPath>
1593

>  <WPol>
47

>  <Zagreb1>
142

>  <Zagreb2>
171

>  <mZagreb2>
6

>  <yes>


>  <nAR-cont>
0.816016

>  <nHA-cont>
0.860070871

>  <MWHBN>
0.467162288

>  <MWHBN-cont>
0

>  <TPSA-cont>
0.277156699

>  <pka_cont>
0.97

>  <yes.1>


>  <BBB_SCORE>
2.71540027

>  <MMFF94 Energy>
15.144

$$$$
Compound 3002
Actelion Java MolfileCreator 2.0

  0  0  0  0  0  0              0 V3000
M  V30 BEGIN CTAB
M  V30 COUNTS 43 44 0 0 0
M  V30 BEGIN ATOM
M  V30 1 O 3.505 -0.2386 1.6716 0
M  V30 2 N 2.9122 -0.5312 0.6252 0 CHG=1
M  V30 3 O 2.7537 -1.6742 0.1763 0 CHG=-1
M  V30 4 C 2.3962 0.5667 -0.1723 0
M  V30 5 C 1.0172 0.7131 -0.4146 0
M  V30 6 C 3.3465 1.4546 -0.7004 0
M  V30 7 C 0.6272 1.7884 -1.2403 0
M  V30 8 C -0.0571 -0.204 0.1873 0 CFG=2
M  V30 9 C 2.9249 2.5108 -1.5032 0
M  V30 10 C 1.5685 2.6737 -1.7757 0
M  V30 11 C -0.7477 -1.0091 -0.9189 0
M  V30 12 C -1.0459 0.5929 1.0417 0
M  V30 13 O 0.0752 -1.8704 -1.665 0
M  V30 14 C -2.0686 -0.8781 -1.1647 0
M  V30 15 C -2.3625 0.6482 0.7309 0
M  V30 16 C -0.489 1.3388 2.1952 0
M  V30 17 C 0.2485 -3.0909 -1.0559 0
M  V30 18 N -2.8371 -0.0444 -0.3733 0
M  V30 19 C -2.7831 -1.6203 -2.2591 0
M  V30 20 C -3.4001 1.3923 1.5335 0
M  V30 21 O -0.841 2.4565 2.5378 0
M  V30 22 O 0.4786 0.595 2.7856 0
M  V30 23 O -0.2711 -3.4681 -0.0133 0
M  V30 24 C 1.1587 -3.9369 -1.8948 0
M  V30 25 C 1.1108 1.2303 3.8976 0
M  V30 26 H 4.4069 1.3264 -0.4928 0
M  V30 27 H -0.4264 1.9516 -1.4687 0
M  V30 28 H 0.3975 -0.9425 0.8563 0
M  V30 29 H 3.6505 3.2063 -1.9185 0
M  V30 30 H 1.2364 3.4982 -2.4035 0
M  V30 31 H -3.8337 0.0015 -0.5686 0
M  V30 32 H -2.1121 -2.2393 -2.8619 0
M  V30 33 H -3.5488 -2.2767 -1.8323 0
M  V30 34 H -3.2738 -0.9127 -2.9358 0
M  V30 35 H -3.5502 2.3942 1.1195 0
M  V30 36 H -4.3608 0.8654 1.504 0
M  V30 37 H -3.1359 1.4781 2.5911 0
M  V30 38 H 0.6408 -4.241 -2.8073 0
M  V30 39 H 2.0686 -3.3822 -2.1378 0
M  V30 40 H 1.4449 -4.8291 -1.3307 0
M  V30 41 H 1.8552 0.5402 4.3038 0
M  V30 42 H 1.6225 2.1423 3.5748 0
M  V30 43 H 0.379 1.4516 4.6807 0
M  V30 END ATOM
M  V30 BEGIN BOND
M  V30 1 2 1 2
M  V30 2 1 2 3
M  V30 3 1 2 4
M  V30 4 2 4 5
M  V30 5 1 4 6
M  V30 6 1 5 7
M  V30 7 1 5 8
M  V30 8 2 6 9
M  V30 9 2 7 10
M  V30 10 1 8 11
M  V30 11 1 8 12
M  V30 12 1 11 13
M  V30 13 2 11 14
M  V30 14 2 12 15
M  V30 15 1 12 16
M  V30 16 1 13 17
M  V30 17 1 14 18
M  V30 18 1 14 19
M  V30 19 1 15 20
M  V30 20 2 16 21
M  V30 21 1 16 22
M  V30 22 2 17 23
M  V30 23 1 17 24
M  V30 24 1 22 25
M  V30 25 1 9 10
M  V30 26 1 15 18
M  V30 27 1 6 26
M  V30 28 1 7 27
M  V30 29 1 8 28
M  V30 30 1 9 29
M  V30 31 1 10 30
M  V30 32 1 18 31
M  V30 33 1 19 32
M  V30 34 1 19 33
M  V30 35 1 19 34
M  V30 36 1 20 35
M  V30 37 1 20 36
M  V30 38 1 20 37
M  V30 39 1 24 38
M  V30 40 1 24 39
M  V30 41 1 24 40
M  V30 42 1 25 41
M  V30 43 1 25 42
M  V30 44 1 25 43
M  V30 END BOND
M  V30 BEGIN COLLECTION
M  V30 MDLV30/STEABS ATOMS=(1 8)
M  V30 END COLLECTION
M  V30 END CTAB
M  END
>  <Column 1>
3858

>  <level_0>
7343

>  <index>
7344

>  <Unnamed: 0>
7344

>  <NO.>
7357

>  <Name>


>  <IUPAC_name>


>  <SMILES>
COC(=O)C1=C(C)NC(C)=C(OC(C)=O)[C@H]1c1ccccc1[N+](=O)[O-]

>  <CID>


>  <logBB>


>  <BBB+/BBB->
BBB+

>  <Inchi>
InChI=1S/C17H18N2O6/c1-9-14(17(21)24-4)15(16(10(2)18-9)25-11(3)20)12-7-5-6-8-13(12)19(22)23/h5-8-15-18H-1-4H3/t15-/m0/s1

>  <threshold>


>  <reference>
R27|

>  <group>
C

>  <Class>
1

>  <ABC>
18.83

>  <ABCGG>
17.03

>  <nAcid>
0

>  <nBase>
0

>  <nAromAtom>
6

>  <nAromBond>
6

>  <nAtom>
43

>  <nHeavyAtom>
25

>  <nSpiro>
0

>  <nBridgehead>
0

>  <nHetero>
8

>  <nN>
2

>  <nO>
6

>  <nF>
0

>  <BalabanJ>
2.4

>  <BertzCT>
809.11

>  <nBonds>
44

>  <nBondsO>
26

>  <nBondsS>
33

>  <nBondsD>
5

>  <nBondsT>
0

>  <nBondsA>
6

>  <nBondsM>
11

>  <nBondsKS>
36

>  <nBondsKD>
8

>  <RNCG>
0.19

>  <RPCG>
0.14

>  <FCSP3>
0.29

>  <SZ>
30.33

>  <Sm>
28.84

>  <Sv>
27.68

>  <Sse>
44.3

>  <Sp>
28.39

>  <Si>
48.58

>  <MZ>
0.71

>  <Mm>
0.67

>  <Mv>
0.64

>  <Mse>
1.03

>  <Mp>
0.66

>  <Mi>
1.13

>  <NsCH3>
4

>  <NdCH2>
0

>  <NssCH2>
0

>  <NtCH>
0

>  <NdsCH>
0

>  <NaaCH>
4

>  <NsssCH>
1

>  <NddC>
0

>  <NtsC>
0

>  <NdssC>
6

>  <NaasC>
2

>  <NaaaC>
0

>  <NssssC>
0

>  <NsNH3>
0

>  <NsNH2>
0

>  <NssNH2>
0

>  <NdNH>
0

>  <NssNH>
1

>  <NaaNH>
0

>  <NtN>
0

>  <NsssNH>
0

>  <NdsN>
0

>  <NaaN>
0

>  <NsssN>
0

>  <NddsN>
1

>  <NaasN>
0

>  <NssssN>
0

>  <NsOH>
0

>  <NdO>
3

>  <NssO>
2

>  <NaaO>
0

>  <NsF>
0

>  <NsSiH3>
0

>  <NssSiH2>
0

>  <NsssSiH>
0

>  <NssssSi>
0

>  <NsPH2>
0

>  <NssPH>
0

>  <NsssP>
0

>  <NdsssP>
0

>  <NsssssP>
0

>  <NsSH>
0

>  <NdS>
0

>  <NssS>
0

>  <NaaS>
0

>  <NdssS>
0

>  <NddssS>
0

>  <NsCl>
0

>  <NsBr>
0

>  <NsI>
0

>  <fragCpx>
76.08

>  <fMF>
0.28

>  <nHBAcc>
7

>  <nHBDon>
1

>  <Kier1>
21.3

>  <Kier2>
9.27

>  <Lipinski>
1

>  <GhoseFilter>
1

>  <FilterItLogS>
-3.84

>  <VMcGowan>
249.45

>  <LabuteASA>
143.81

>  <PEOE_VSA1>
14.79

>  <PEOE_VSA2>
14.91

>  <PEOE_VSA3>
4.79

>  <PEOE_VSA4>
0

>  <PEOE_VSA5>
0

>  <PEOE_VSA6>
18.2

>  <PEOE_VSA7>
13.85

>  <PEOE_VSA8>
24.25

>  <PEOE_VSA9>
29.22

>  <PEOE_VSA10>
5.76

>  <PEOE_VSA11>
0

>  <PEOE_VSA12>
0

>  <PEOE_VSA13>
5.69

>  <SMR_VSA1>
23.99

>  <SMR_VSA2>
0

>  <SMR_VSA3>
5.32

>  <SMR_VSA4>
0

>  <SMR_VSA5>
26.69

>  <SMR_VSA6>
7.11

>  <SMR_VSA7>
62.67

>  <SMR_VSA8>
0

>  <SMR_VSA9>
0

>  <SlogP_VSA1>
5.32

>  <SlogP_VSA2>
23.97

>  <SlogP_VSA3>
19.06

>  <SlogP_VSA4>
10.11

>  <SlogP_VSA5>
32.25

>  <SlogP_VSA6>
46.99

>  <SlogP_VSA7>
0

>  <SlogP_VSA8>
0

>  <SlogP_VSA9>
0

>  <SlogP_VSA10>
5.69

>  <SlogP_VSA11>
0

>  <EState_VSA1>
22.78

>  <EState_VSA2>
22.58

>  <EState_VSA3>
11.39

>  <EState_VSA4>
0

>  <EState_VSA5>
32.23

>  <EState_VSA6>
19.91

>  <EState_VSA7>
0

>  <EState_VSA8>
5.32

>  <EState_VSA9>
9.47

>  <EState_VSA10>
19.7

>  <VSA_EState1>
10.12

>  <VSA_EState2>
34.75

>  <VSA_EState3>
14.4

>  <VSA_EState4>
1.18

>  <VSA_EState5>
-2.05

>  <VSA_EState6>
6.01

>  <VSA_EState7>
0

>  <VSA_EState8>
4.54

>  <VSA_EState9>
1.22

>  <apol>
47.4

>  <bpol>
25

>  <nRing>
2

>  <nHRing>
1

>  <naRing>
1

>  <naHRing>
0

>  <nARing 2>
1

>  <nAHRing 2>
1

>  <nFRing>
0

>  <nFHRing>
0

>  <nFaRing>
0

>  <nFaHRing>
0

>  <nFARing 2>
0

>  <nFAHRing 2>
0

>  <nRot>
4

>  <SLogP>
2.52

>  <SMR>
88.16

>  <TopoPSA(NO)>
107.77

>  <TopoPSA>
107.77

>  <JGI1>
0.21

>  <JGI2>
0.08

>  <JGI3>
0.06

>  <JGI4>
0.05

>  <JGI5>
0.03

>  <Diameter>
8

>  <Radius>
4

>  <TMWC10>
126.88

>  <TSRW10>
59.8

>  <MW>
346.12

>  <AMW>
8.05

>  <WPath>
1300

>  <WPol>
43

>  <Zagreb1>
126

>  <Zagreb2>
149

>  <mZagreb2>
5.64

>  <yes>


>  <nAR-cont>
0.816016

>  <nHA-cont>
0.921834225

>  <MWHBN>
0.430008103

>  <MWHBN-cont>
0.359681911

>  <TPSA-cont>
0.247698479

>  <pka_cont>
0.97

>  <yes.1>


>  <BBB_SCORE>
3.25777005

>  <MMFF94 Energy>
66.845

$$$$
Compound 3003
Actelion Java MolfileCreator 2.0

  0  0  0  0  0  0              0 V3000
M  V30 BEGIN CTAB
M  V30 COUNTS 67 69 0 0 0
M  V30 BEGIN ATOM
M  V30 1 O -4.2089 1.7454 -0.0792 0
M  V30 2 N -4.6072 0.7043 0.457 0 CHG=1
M  V30 3 O -5.5881 0.6051 1.2051 0 CHG=-1
M  V30 4 C -3.9023 -0.5237 0.1301 0
M  V30 5 C -2.5149 -0.6193 0.293 0
M  V30 6 C -4.6535 -1.5907 -0.3689 0
M  V30 7 C -1.8275 -1.817 -0.0298 0
M  V30 8 C -1.8055 0.525 0.8809 0
M  V30 9 C -4.0108 -2.785 -0.7117 0
M  V30 10 C -2.6072 -2.8941 -0.5318 0
M  V30 11 C -0.3185 -1.9253 0.2108 0
M  V30 12 O -1.8589 0.8023 2.0637 0
M  V30 13 O -1.1387 1.1592 -0.107 0
M  V30 14 C -4.8278 -3.9268 -1.26 0
M  V30 15 C -1.9896 -4.1835 -0.9088 0
M  V30 16 C 0.0027 -2.7751 1.4257 0
M  V30 17 C 0.4573 -2.3254 -1.0283 0
M  V30 18 C -0.4302 2.3328 0.3292 0
M  V30 19 O -1.6808 -4.4775 -2.0501 0
M  V30 20 O -1.9642 -4.9689 0.1927 0
M  V30 21 C 0.9197 -3.7591 1.3664 0
M  V30 22 C 1.3521 -3.3312 -0.9958 0
M  V30 23 C 0.2871 2.9367 -0.887 0
M  V30 24 C -1.4277 -6.2687 -0.048 0
M  V30 25 N 1.5759 -4.0191 0.1802 0
M  V30 26 C 1.2648 -4.6053 2.5563 0
M  V30 27 C 2.123 -3.7549 -2.2112 0
M  V30 28 N 0.9957 4.1987 -0.6049 0
M  V30 29 C 2.2208 3.9651 0.1861 0
M  V30 30 C 1.3194 4.8715 -1.8695 0
M  V30 31 C 2.8581 5.238 0.7063 0
M  V30 32 C 4.1995 5.5331 0.4231 0
M  V30 33 C 2.1229 6.128 1.5041 0
M  V30 34 C 4.7885 6.6976 0.9201 0
M  V30 35 C 2.7132 7.2915 1.9994 0
M  V30 36 C 4.0455 7.5759 1.7073 0
M  V30 37 H -5.7317 -1.4911 -0.4922 0
M  V30 38 H 0.0822 -0.936 0.4571 0
M  V30 39 H -4.4997 -4.1785 -2.2733 0
M  V30 40 H -4.739 -4.8061 -0.6141 0
M  V30 41 H -5.8908 -3.6681 -1.3147 0
M  V30 42 H -0.5104 -2.5506 2.3562 0
M  V30 43 H 0.2755 -1.7749 -1.9462 0
M  V30 44 H 0.2855 2.0412 1.1046 0
M  V30 45 H -1.1455 3.0549 0.741 0
M  V30 46 H 0.9625 2.191 -1.3282 0
M  V30 47 H -0.4869 3.112 -1.6471 0
M  V30 48 H -1.3165 -6.7732 0.9157 0
M  V30 49 H -2.1174 -6.85 -0.6676 0
M  V30 50 H -0.4426 -6.2092 -0.5212 0
M  V30 51 H 2.261 -4.7679 0.1677 0
M  V30 52 H 1.0583 -5.6596 2.3447 0
M  V30 53 H 0.6878 -4.323 3.4433 0
M  V30 54 H 2.3271 -4.5021 2.8008 0
M  V30 55 H 1.9104 -4.8025 -2.4487 0
M  V30 56 H 3.1985 -3.6505 -2.0343 0
M  V30 57 H 1.868 -3.1542 -3.0905 0
M  V30 58 H 1.9984 3.364 1.0754 0
M  V30 59 H 2.9476 3.3863 -0.3993 0
M  V30 60 H 1.7779 5.8511 -1.6982 0
M  V30 61 H 1.9967 4.2749 -2.4915 0
M  V30 62 H 0.4068 5.0653 -2.445 0
M  V30 63 H 4.7944 4.8589 -0.188 0
M  V30 64 H 1.0801 5.9162 1.7327 0
M  V30 65 H 5.8278 6.9197 0.6933 0
M  V30 66 H 2.1312 7.9754 2.6115 0
M  V30 67 H 4.5043 8.4824 2.0929 0
M  V30 END ATOM
M  V30 BEGIN BOND
M  V30 1 2 1 2
M  V30 2 1 2 3
M  V30 3 1 2 4
M  V30 4 2 4 5
M  V30 5 1 4 6
M  V30 6 1 5 7
M  V30 7 1 5 8
M  V30 8 2 6 9
M  V30 9 2 7 10
M  V30 10 1 7 11
M  V30 11 2 8 12
M  V30 12 1 8 13
M  V30 13 1 9 14
M  V30 14 1 10 15
M  V30 15 1 11 16
M  V30 16 1 11 17
M  V30 17 1 13 18
M  V30 18 2 15 19
M  V30 19 1 15 20
M  V30 20 2 16 21
M  V30 21 2 17 22
M  V30 22 1 18 23
M  V30 23 1 20 24
M  V30 24 1 21 25
M  V30 25 1 21 26
M  V30 26 1 22 27
M  V30 27 1 23 28
M  V30 28 1 28 29
M  V30 29 1 28 30
M  V30 30 1 29 31
M  V30 31 2 31 32
M  V30 32 1 31 33
M  V30 33 1 32 34
M  V30 34 2 33 35
M  V30 35 2 34 36
M  V30 36 1 9 10
M  V30 37 1 22 25
M  V30 38 1 35 36
M  V30 39 1 6 37
M  V30 40 1 11 38
M  V30 41 1 14 39
M  V30 42 1 14 40
M  V30 43 1 14 41
M  V30 44 1 16 42
M  V30 45 1 17 43
M  V30 46 1 18 44
M  V30 47 1 18 45
M  V30 48 1 23 46
M  V30 49 1 23 47
M  V30 50 1 24 48
M  V30 51 1 24 49
M  V30 52 1 24 50
M  V30 53 1 25 51
M  V30 54 1 26 52
M  V30 55 1 26 53
M  V30 56 1 26 54
M  V30 57 1 27 55
M  V30 58 1 27 56
M  V30 59 1 27 57
M  V30 60 1 29 58
M  V30 61 1 29 59
M  V30 62 1 30 60
M  V30 63 1 30 61
M  V30 64 1 30 62
M  V30 65 1 32 63
M  V30 66 1 33 64
M  V30 67 1 34 65
M  V30 68 1 35 66
M  V30 69 1 36 67
M  V30 END BOND
M  V30 END CTAB
M  END
>  <Column 1>
3859

>  <level_0>
7350

>  <index>
7351

>  <Unnamed: 0>
7351

>  <NO.>
7364

>  <Name>


>  <IUPAC_name>


>  <SMILES>
COC(=O)c1c(C)cc([N+](=O)[O-])c(C(=O)OCCN(C)Cc2ccccc2)c1C1C=C(C)NC(C)=C1

>  <CID>


>  <logBB>


>  <BBB+/BBB->
BBB+

>  <Inchi>
InChI=1S/C27H31N3O6/c1-17-13-22(30(33)34)25(27(32)36-12-11-29(4)16-20-9-7-6-8-10-20)24(23(17)26(31)35-5)21-14-18(2)28-19(3)15-21/h6-10-13-15-21-28H-11-12-16H2-1-5H3

>  <threshold>


>  <reference>
R27|

>  <group>
C

>  <Class>
1

>  <ABC>
27.42

>  <ABCGG>
22.44

>  <nAcid>
0

>  <nBase>
1

>  <nAromAtom>
12

>  <nAromBond>
12

>  <nAtom>
67

>  <nHeavyAtom>
36

>  <nSpiro>
0

>  <nBridgehead>
0

>  <nHetero>
9

>  <nN>
3

>  <nO>
6

>  <nF>
0

>  <BalabanJ>
1.74

>  <BertzCT>
1201.76

>  <nBonds>
69

>  <nBondsO>
38

>  <nBondsS>
52

>  <nBondsD>
5

>  <nBondsT>
0

>  <nBondsA>
12

>  <nBondsM>
17

>  <nBondsKS>
58

>  <nBondsKD>
11

>  <RNCG>
0.15

>  <RPCG>
0.11

>  <FCSP3>
0.33

>  <SZ>
43.67

>  <Sm>
41.09

>  <Sv>
41.96

>  <Sse>
67.73

>  <Sp>
44.24

>  <Si>
75.57

>  <MZ>
0.65

>  <Mm>
0.61

>  <Mv>
0.63

>  <Mse>
1.01

>  <Mp>
0.66

>  <Mi>
1.13

>  <NsCH3>
5

>  <NdCH2>
0

>  <NssCH2>
3

>  <NtCH>
0

>  <NdsCH>
2

>  <NaaCH>
6

>  <NsssCH>
1

>  <NddC>
0

>  <NtsC>
0

>  <NdssC>
4

>  <NaasC>
6

>  <NaaaC>
0

>  <NssssC>
0

>  <NsNH3>
0

>  <NsNH2>
0

>  <NssNH2>
0

>  <NdNH>
0

>  <NssNH>
1

>  <NaaNH>
0

>  <NtN>
0

>  <NsssNH>
0

>  <NdsN>
0

>  <NaaN>
0

>  <NsssN>
1

>  <NddsN>
1

>  <NaasN>
0

>  <NssssN>
0

>  <NsOH>
0

>  <NdO>
3

>  <NssO>
2

>  <NaaO>
0

>  <NsF>
0

>  <NsSiH3>
0

>  <NssSiH2>
0

>  <NsssSiH>
0

>  <NssssSi>
0

>  <NsPH2>
0

>  <NssPH>
0

>  <NsssP>
0

>  <NdsssP>
0

>  <NsssssP>
0

>  <NsSH>
0

>  <NdS>
0

>  <NssS>
0

>  <NaaS>
0

>  <NdssS>
0

>  <NddssS>
0

>  <NsCl>
0

>  <NsBr>
0

>  <NsI>
0

>  <fragCpx>
184.09

>  <fMF>
0.36

>  <nHBAcc>
8

>  <nHBDon>
1

>  <Kier1>
30.54

>  <Kier2>
14.4

>  <Lipinski>
1

>  <GhoseFilter>
0

>  <FilterItLogS>
-6.42

>  <VMcGowan>
376.57

>  <LabuteASA>
210.09

>  <PEOE_VSA1>
14.79

>  <PEOE_VSA2>
15.01

>  <PEOE_VSA3>
9.59

>  <PEOE_VSA4>
0

>  <PEOE_VSA5>
0

>  <PEOE_VSA6>
42.48

>  <PEOE_VSA7>
44.51

>  <PEOE_VSA8>
36.47

>  <PEOE_VSA9>
17.6

>  <PEOE_VSA10>
12.17

>  <PEOE_VSA11>
0

>  <PEOE_VSA12>
0

>  <PEOE_VSA13>
5.69

>  <SMR_VSA1>
23.99

>  <SMR_VSA2>
0

>  <SMR_VSA3>
10.22

>  <SMR_VSA4>
0

>  <SMR_VSA5>
33.23

>  <SMR_VSA6>
27.31

>  <SMR_VSA7>
97.88

>  <SMR_VSA8>
0

>  <SMR_VSA9>
0

>  <SlogP_VSA1>
5.32

>  <SlogP_VSA2>
49.07

>  <SlogP_VSA3>
16.02

>  <SlogP_VSA4>
17.04

>  <SlogP_VSA5>
57.17

>  <SlogP_VSA6>
59.94

>  <SlogP_VSA7>
0

>  <SlogP_VSA8>
0

>  <SlogP_VSA9>
0

>  <SlogP_VSA10>
5.69

>  <SlogP_VSA11>
0

>  <EState_VSA1>
28.47

>  <EState_VSA2>
23.3

>  <EState_VSA3>
18.65

>  <EState_VSA4>
16.96

>  <EState_VSA5>
13.18

>  <EState_VSA6>
6.92

>  <EState_VSA7>
68.28

>  <EState_VSA8>
5.32

>  <EState_VSA9>
9.47

>  <EState_VSA10>
19.7

>  <VSA_EState1>
10.51

>  <VSA_EState2>
39.51

>  <VSA_EState3>
15.17

>  <VSA_EState4>
2.72

>  <VSA_EState5>
-2.1

>  <VSA_EState6>
11.07

>  <VSA_EState7>
3.62

>  <VSA_EState8>
6.37

>  <VSA_EState9>
3.13

>  <apol>
73.87

>  <bpol>
39.75

>  <nRing>
3

>  <nHRing>
1

>  <naRing>
2

>  <naHRing>
0

>  <nARing 2>
1

>  <nAHRing 2>
1

>  <nFRing>
0

>  <nFHRing>
0

>  <nFaRing>
0

>  <nFaHRing>
0

>  <nFARing 2>
0

>  <nFAHRing 2>
0

>  <nRot>
9

>  <SLogP>
4.47

>  <SMR>
135.62

>  <TopoPSA(NO)>
111.01

>  <TopoPSA>
111.01

>  <JGI1>
0.21

>  <JGI2>
0.07

>  <JGI3>
0.06

>  <JGI4>
0.05

>  <JGI5>
0.03

>  <Diameter>
15

>  <Radius>
8

>  <TMWC10>
152.62

>  <TSRW10>
72.46

>  <MW>
493.22

>  <AMW>
7.36

>  <WPath>
4046

>  <WPol>
59

>  <Zagreb1>
182

>  <Zagreb2>
212

>  <mZagreb2>
8.06

>  <yes>


>  <nAR-cont>
0.816016

>  <nHA-cont>
0.477843619

>  <MWHBN>
0.405249204

>  <MWHBN-cont>
0.455428395

>  <TPSA-cont>
0.225081267

>  <pka_cont>
0.97

>  <yes.1>


>  <BBB_SCORE>
2.912164745

>  <MMFF94 Energy>
72.872

$$$$
Compound 3004
Actelion Java MolfileCreator 2.0

  0  0  0  0  0  0              0 V3000
M  V30 BEGIN CTAB
M  V30 COUNTS 40 40 0 0 0
M  V30 BEGIN ATOM
M  V30 1 Cl 0.2467 2.1398 -5.7688 0
M  V30 2 C 0.1011 1.5362 -4.1646 0
M  V30 3 C 1.234 1.0987 -3.4838 0
M  V30 4 C -1.1485 1.4904 -3.5522 0
M  V30 5 C 1.1157 0.6063 -2.1821 0
M  V30 6 C -1.2682 0.9995 -2.2498 0
M  V30 7 C -0.1383 0.5423 -1.5546 0
M  V30 8 C -0.2516 0.0083 -0.1336 0 CFG=2
M  V30 9 P -1.4822 -1.2952 0.1422 0
M  V30 10 C -0.4442 1.171 0.8519 0
M  V30 11 O -2.9072 -0.9148 -0.129 0
M  V30 12 O -1.233 -1.745 1.6738 0
M  V30 13 O -0.9639 -2.588 -0.6718 0
M  V30 14 P 0.9337 1.3888 1.9684 0
M  V30 15 C -2.0907 -2.7444 2.1905 0
M  V30 16 C -1.2076 -2.6554 -2.0624 0
M  V30 17 O 0.8003 2.5349 2.9235 0
M  V30 18 O 2.2174 1.4917 0.9959 0
M  V30 19 O 1.1512 -0.0393 2.6819 0
M  V30 20 C 3.4536 1.8025 1.6088 0
M  V30 21 C 0.4374 -0.273 3.8813 0
M  V30 22 H 2.2115 1.1419 -3.9571 0
M  V30 23 H -2.0332 1.8387 -4.0794 0
M  V30 24 H 2.0145 0.2784 -1.6617 0
M  V30 25 H -2.2553 0.9838 -1.7887 0
M  V30 26 H 0.6937 -0.498 0.0964 0
M  V30 27 H -1.3411 1.0124 1.4602 0
M  V30 28 H -0.5886 2.126 0.3336 0
M  V30 29 H -3.1192 -2.3753 2.2234 0
M  V30 30 H -1.7707 -2.9883 3.2066 0
M  V30 31 H -2.0377 -3.6475 1.5769 0
M  V30 32 H -1.2603 -3.7073 -2.3546 0
M  V30 33 H -0.3837 -2.1859 -2.6039 0
M  V30 34 H -2.1522 -2.173 -2.327 0
M  V30 35 H 3.6728 1.0889 2.4078 0
M  V30 36 H 4.2425 1.7433 0.8551 0
M  V30 37 H 3.4255 2.8179 2.013 0
M  V30 38 H 0.4992 -1.3361 4.1259 0
M  V30 39 H -0.6133 0.0067 3.7668 0
M  V30 40 H 0.8866 0.3042 4.6938 0
M  V30 END ATOM
M  V30 BEGIN BOND
M  V30 1 1 1 2
M  V30 2 2 2 3
M  V30 3 1 2 4
M  V30 4 1 3 5
M  V30 5 2 4 6
M  V30 6 2 5 7
M  V30 7 1 7 8
M  V30 8 1 8 9
M  V30 9 1 8 10
M  V30 10 2 9 11
M  V30 11 1 9 12
M  V30 12 1 9 13
M  V30 13 1 10 14
M  V30 14 1 12 15
M  V30 15 1 13 16
M  V30 16 2 14 17
M  V30 17 1 14 18
M  V30 18 1 14 19
M  V30 19 1 18 20
M  V30 20 1 19 21
M  V30 21 1 6 7
M  V30 22 1 3 22
M  V30 23 1 4 23
M  V30 24 1 5 24
M  V30 25 1 6 25
M  V30 26 1 8 26
M  V30 27 1 10 27
M  V30 28 1 10 28
M  V30 29 1 15 29
M  V30 30 1 15 30
M  V30 31 1 15 31
M  V30 32 1 16 32
M  V30 33 1 16 33
M  V30 34 1 16 34
M  V30 35 1 20 35
M  V30 36 1 20 36
M  V30 37 1 20 37
M  V30 38 1 21 38
M  V30 39 1 21 39
M  V30 40 1 21 40
M  V30 END BOND
M  V30 BEGIN COLLECTION
M  V30 MDLV30/STEABS ATOMS=(1 8)
M  V30 END COLLECTION
M  V30 END CTAB
M  END
>  <Column 1>
3861

>  <level_0>
7364

>  <index>
7365

>  <Unnamed: 0>
7365

>  <NO.>
7378

>  <Name>


>  <IUPAC_name>


>  <SMILES>
COP(=O)(C[C@H](c1ccc(Cl)cc1)P(=O)(OC)OC)OC

>  <CID>


>  <logBB>


>  <BBB+/BBB->
BBB+

>  <Inchi>
InChI=1S/C12H19ClO6P2/c1-16-20(14-17-2)9-12(21(15-18-3)19-4)10-5-7-11(13)8-6-10/h5-8-12H-9H2-1-4H3/t12-/m1/s1

>  <threshold>


>  <reference>
R27|

>  <group>
C

>  <Class>
-1

>  <ABC>
15.17

>  <ABCGG>
14.62

>  <nAcid>
0

>  <nBase>
0

>  <nAromAtom>
6

>  <nAromBond>
6

>  <nAtom>
40

>  <nHeavyAtom>
21

>  <nSpiro>
0

>  <nBridgehead>
0

>  <nHetero>
9

>  <nN>
0

>  <nO>
6

>  <nF>
0

>  <BalabanJ>
2.94

>  <BertzCT>
531.18

>  <nBonds>
40

>  <nBondsO>
21

>  <nBondsS>
32

>  <nBondsD>
2

>  <nBondsT>
0

>  <nBondsA>
6

>  <nBondsM>
8

>  <nBondsKS>
35

>  <nBondsKD>
5

>  <RNCG>
0.15

>  <RPCG>
0.16

>  <FCSP3>
0.5

>  <SZ>
31

>  <Sm>
29.7

>  <Sv>
24.9

>  <Sse>
41.02

>  <Sp>
28.12

>  <Si>
45.22

>  <MZ>
0.78

>  <Mm>
0.74

>  <Mv>
0.62

>  <Mse>
1.03

>  <Mp>
0.7

>  <Mi>
1.13

>  <NsCH3>
4

>  <NdCH2>
0

>  <NssCH2>
1

>  <NtCH>
0

>  <NdsCH>
0

>  <NaaCH>
4

>  <NsssCH>
1

>  <NddC>
0

>  <NtsC>
0

>  <NdssC>
0

>  <NaasC>
2

>  <NaaaC>
0

>  <NssssC>
0

>  <NsNH3>
0

>  <NsNH2>
0

>  <NssNH2>
0

>  <NdNH>
0

>  <NssNH>
0

>  <NaaNH>
0

>  <NtN>
0

>  <NsssNH>
0

>  <NdsN>
0

>  <NaaN>
0

>  <NsssN>
0

>  <NddsN>
0

>  <NaasN>
0

>  <NssssN>
0

>  <NsOH>
0

>  <NdO>
2

>  <NssO>
4

>  <NaaO>
0

>  <NsF>
0

>  <NsSiH3>
0

>  <NssSiH2>
0

>  <NsssSiH>
0

>  <NssssSi>
0

>  <NsPH2>
0

>  <NssPH>
0

>  <NsssP>
0

>  <NdsssP>
2

>  <NsssssP>
0

>  <NsSH>
0

>  <NdS>
0

>  <NssS>
0

>  <NaaS>
0

>  <NdssS>
0

>  <NddssS>
0

>  <NsCl>
1

>  <NsBr>
0

>  <NsI>
0

>  <fragCpx>
21.09

>  <fMF>
0.15

>  <nHBAcc>
6

>  <nHBDon>
0

>  <Kier1>
19.05

>  <Kier2>
8.02

>  <Lipinski>
1

>  <GhoseFilter>
1

>  <FilterItLogS>
-3.36

>  <VMcGowan>
244.56

>  <LabuteASA>
129.3

>  <PEOE_VSA1>
18.09

>  <PEOE_VSA2>
9.13

>  <PEOE_VSA3>
0

>  <PEOE_VSA4>
0

>  <PEOE_VSA5>
0

>  <PEOE_VSA6>
23.73

>  <PEOE_VSA7>
17.7

>  <PEOE_VSA8>
33.46

>  <PEOE_VSA9>
11.82

>  <PEOE_VSA10>
0

>  <PEOE_VSA11>
0

>  <PEOE_VSA12>
0

>  <PEOE_VSA13>
0

>  <SMR_VSA1>
27.23

>  <SMR_VSA2>
0

>  <SMR_VSA3>
0

>  <SMR_VSA4>
0

>  <SMR_VSA5>
5.66

>  <SMR_VSA6>
34.6

>  <SMR_VSA7>
34.85

>  <SMR_VSA8>
0

>  <SMR_VSA9>
0

>  <SlogP_VSA1>
0

>  <SlogP_VSA2>
34.6

>  <SlogP_VSA3>
27.23

>  <SlogP_VSA4>
0

>  <SlogP_VSA5>
11.22

>  <SlogP_VSA6>
24.27

>  <SlogP_VSA7>
5.02

>  <SlogP_VSA8>
0

>  <SlogP_VSA9>
0

>  <SlogP_VSA10>
0

>  <SlogP_VSA11>
0

>  <EState_VSA1>
20.85

>  <EState_VSA2>
6.16

>  <EState_VSA3>
10.59

>  <EState_VSA4>
0

>  <EState_VSA5>
28.44

>  <EState_VSA6>
24.27

>  <EState_VSA7>
0

>  <EState_VSA8>
0

>  <EState_VSA9>
29.7

>  <EState_VSA10>
9.13

>  <VSA_EState1>
45.03

>  <VSA_EState2>
0

>  <VSA_EState3>
0.53

>  <VSA_EState4>
-0.18

>  <VSA_EState5>
0

>  <VSA_EState6>
6.63

>  <VSA_EState7>
-0.14

>  <VSA_EState8>
0

>  <VSA_EState9>
-1.83

>  <apol>
46.96

>  <bpol>
43.93

>  <nRing>
1

>  <nHRing>
0

>  <naRing>
1

>  <naHRing>
0

>  <nARing 2>
0

>  <nAHRing 2>
0

>  <nFRing>
0

>  <nFHRing>
0

>  <nFaRing>
0

>  <nFaHRing>
0

>  <nFARing 2>
0

>  <nFAHRing 2>
0

>  <nRot>
8

>  <SLogP>
4.35

>  <SMR>
82.31

>  <TopoPSA(NO)>
71.06

>  <TopoPSA>
90.68

>  <JGI1>
0.33

>  <JGI2>
0.13

>  <JGI3>
0.05

>  <JGI4>
0.06

>  <JGI5>
0.03

>  <Diameter>
9

>  <Radius>
5

>  <TMWC10>
115.06

>  <TSRW10>
54.72

>  <MW>
356.03

>  <AMW>
8.9

>  <WPath>
872

>  <WPol>
34

>  <Zagreb1>
102

>  <Zagreb2>
118

>  <mZagreb2>
4.99

>  <yes>


>  <nAR-cont>
0.336376

>  <nHA-cont>
0.994529749

>  <MWHBN>
0.317985966

>  <MWHBN-cont>
0.78388765

>  <TPSA-cont>
0.366997291

>  <pka_cont>
0.97

>  <yes.1>


>  <BBB_SCORE>
3.725731807

>  <MMFF94 Energy>
-69.693

$$$$
Compound 3005
Actelion Java MolfileCreator 2.0

  0  0  0  0  0  0              0 V3000
M  V30 BEGIN CTAB
M  V30 COUNTS 56 60 0 0 0
M  V30 BEGIN ATOM
M  V30 1 F -1.5293 -1.6903 -2.2543 0
M  V30 2 C -0.4852 -1.3453 -1.4831 0
M  V30 3 C -0.276 -9.0E-4 -1.1111 0
M  V30 4 C 0.3439 -2.3859 -1.0696 0
M  V30 5 N -1.1578 1.0051 -1.4698 0
M  V30 6 C 0.8922 0.2323 -0.3373 0
M  V30 7 C 1.4325 -2.1223 -0.2421 0
M  V30 8 C -2.2157 0.85 -2.4775 0
M  V30 9 C -1.3515 2.2308 -0.6845 0
M  V30 10 O 1.283 1.5237 -0.0388 0
M  V30 11 C 1.7133 -0.8117 0.1572 0
M  V30 12 C 2.2915 -3.253 0.1852 0
M  V30 13 C -2.8583 2.2554 -2.5438 0 CFG=2
M  V30 14 C -2.7411 2.7442 -1.0948 0 CFG=1
M  V30 15 C 2.0157 2.073 -1.1392 0
M  V30 16 C 2.8495 -0.5416 1.1245 0 CFG=1
M  V30 17 O 1.9085 -4.4065 0.0313 0
M  V30 18 C 3.5978 -2.9227 0.8009 0
M  V30 19 N -4.2076 2.362 -3.1134 0
M  V30 20 C -3.8488 2.1804 -0.1956 0
M  V30 21 N 2.3875 -0.1298 2.4569 0
M  V30 22 C 3.8283 -1.6719 1.2348 0
M  V30 23 C 4.6658 -3.9142 0.9996 0
M  V30 24 C -5.2386 1.7807 -2.2509 0
M  V30 25 C -5.2139 2.3747 -0.8447 0
M  V30 26 C 1.5803 -1.1045 3.1992 0
M  V30 27 O 5.4797 -3.9136 1.9083 0
M  V30 28 O 4.7332 -4.8119 0.0056 0
M  V30 29 C 2.2296 -2.0707 4.1499 0
M  V30 30 C 1.4248 -0.9231 4.6848 0
M  V30 31 H 0.1148 -3.3989 -1.3908 0
M  V30 32 H -2.9446 0.1022 -2.1496 0
M  V30 33 H -1.8127 0.5617 -3.4544 0
M  V30 34 H -1.2998 2.0532 0.3954 0
M  V30 35 H -0.6028 2.9783 -0.9656 0
M  V30 36 H -2.2009 2.878 -3.1672 0
M  V30 37 H -2.7776 3.8396 -1.0474 0
M  V30 38 H 2.3018 3.0942 -0.8705 0
M  V30 39 H 1.4117 2.1197 -2.0513 0
M  V30 40 H 2.932 1.5032 -1.3273 0
M  V30 41 H 3.4252 0.295 0.7088 0
M  V30 42 H -4.4225 3.3517 -3.2408 0
M  V30 43 H -3.8248 2.6785 0.7806 0
M  V30 44 H -3.6913 1.1118 -0.0031 0
M  V30 45 H 3.1784 0.2009 3.0054 0
M  V30 46 H 4.7797 -1.4333 1.7067 0
M  V30 47 H -5.1295 0.6914 -2.2083 0
M  V30 48 H -6.218 1.9703 -2.7045 0
M  V30 49 H -5.4528 3.4447 -0.8884 0
M  V30 50 H -5.986 1.8995 -0.2292 0
M  V30 51 H 0.6783 -1.4398 2.6893 0
M  V30 52 H 5.4562 -5.4186 0.2639 0
M  V30 53 H 1.8064 -3.0664 4.2223 0
M  V30 54 H 3.3039 -2.0405 4.2869 0
M  V30 55 H 0.4554 -1.1397 5.1192 0
M  V30 56 H 1.952 -0.1108 5.1704 0
M  V30 END ATOM
M  V30 BEGIN BOND
M  V30 1 1 1 2
M  V30 2 2 2 3
M  V30 3 1 2 4
M  V30 4 1 3 5
M  V30 5 1 3 6
M  V30 6 2 4 7
M  V30 7 1 5 8
M  V30 8 1 5 9
M  V30 9 1 6 10
M  V30 10 2 6 11
M  V30 11 1 7 12
M  V30 12 1 8 13
M  V30 13 1 9 14
M  V30 14 1 10 15
M  V30 15 1 11 16
M  V30 16 2 12 17
M  V30 17 1 12 18
M  V30 18 1 13 19
M  V30 19 1 14 20
M  V30 20 1 16 21
M  V30 21 1 16 22
M  V30 22 1 18 23
M  V30 23 1 19 24
M  V30 24 1 20 25
M  V30 25 1 21 26
M  V30 26 2 23 27
M  V30 27 1 23 28
M  V30 28 1 26 29
M  V30 29 1 26 30
M  V30 30 1 7 11
M  V30 31 1 13 14
M  V30 32 2 18 22
M  V30 33 1 24 25
M  V30 34 1 29 30
M  V30 35 1 4 31
M  V30 36 1 8 32
M  V30 37 1 8 33
M  V30 38 1 9 34
M  V30 39 1 9 35
M  V30 40 1 13 36
M  V30 41 1 14 37
M  V30 42 1 15 38
M  V30 43 1 15 39
M  V30 44 1 15 40
M  V30 45 1 16 41
M  V30 46 1 19 42
M  V30 47 1 20 43
M  V30 48 1 20 44
M  V30 49 1 21 45
M  V30 50 1 22 46
M  V30 51 1 24 47
M  V30 52 1 24 48
M  V30 53 1 25 49
M  V30 54 1 25 50
M  V30 55 1 26 51
M  V30 56 1 28 52
M  V30 57 1 29 53
M  V30 58 1 29 54
M  V30 59 1 30 55
M  V30 60 1 30 56
M  V30 END BOND
M  V30 BEGIN COLLECTION
M  V30 MDLV30/STEABS ATOMS=(3 13 14 16)
M  V30 END COLLECTION
M  V30 END CTAB
M  END
>  <Column 1>
3862

>  <level_0>
7391

>  <index>
7392

>  <Unnamed: 0>
7392

>  <NO.>
7405

>  <Name>


>  <IUPAC_name>


>  <SMILES>
COc1c2c(cc(F)c1N1C[C@@H]3CCCN[C@@H]3C1)C(=O)C(C(=O)O)=C[C@@H]2NC1CC1

>  <CID>


>  <logBB>


>  <BBB+/BBB->
BBB+

>  <Inchi>
InChI=1S/C22H26FN3O4/c1-30-21-18-13(20(27)14(22(28)29)8-16(18)25-12-4-5-12)7-15(23)19(21)26-9-11-3-2-6-24-17(11)10-26/h7-8-11-12-16-17-24-25H-2-6-9-10H2-1H3-(H-28-29)/t11--16--17+/m0/s1

>  <threshold>


>  <reference>
R27|

>  <group>
C

>  <Class>
1

>  <ABC>
24.07

>  <ABCGG>
19.29

>  <nAcid>
1

>  <nBase>
2

>  <nAromAtom>
6

>  <nAromBond>
6

>  <nAtom>
56

>  <nHeavyAtom>
30

>  <nSpiro>
0

>  <nBridgehead>
0

>  <nHetero>
8

>  <nN>
3

>  <nO>
4

>  <nF>
1

>  <BalabanJ>
1.4

>  <BertzCT>
928.8

>  <nBonds>
60

>  <nBondsO>
34

>  <nBondsS>
51

>  <nBondsD>
3

>  <nBondsT>
0

>  <nBondsA>
6

>  <nBondsM>
9

>  <nBondsKS>
54

>  <nBondsKD>
6

>  <RNCG>
0.17

>  <RPCG>
0.12

>  <FCSP3>
0.55

>  <SZ>
36.67

>  <Sm>
34.59

>  <Sv>
34.82

>  <Sse>
56.81

>  <Sp>
36.61

>  <Si>
63.66

>  <MZ>
0.65

>  <Mm>
0.62

>  <Mv>
0.62

>  <Mse>
1.01

>  <Mp>
0.65

>  <Mi>
1.14

>  <NsCH3>
1

>  <NdCH2>
0

>  <NssCH2>
7

>  <NtCH>
0

>  <NdsCH>
1

>  <NaaCH>
1

>  <NsssCH>
4

>  <NddC>
0

>  <NtsC>
0

>  <NdssC>
3

>  <NaasC>
5

>  <NaaaC>
0

>  <NssssC>
0

>  <NsNH3>
0

>  <NsNH2>
0

>  <NssNH2>
0

>  <NdNH>
0

>  <NssNH>
2

>  <NaaNH>
0

>  <NtN>
0

>  <NsssNH>
0

>  <NdsN>
0

>  <NaaN>
0

>  <NsssN>
1

>  <NddsN>
0

>  <NaasN>
0

>  <NssssN>
0

>  <NsOH>
1

>  <NdO>
2

>  <NssO>
1

>  <NaaO>
0

>  <NsF>
1

>  <NsSiH3>
0

>  <NssSiH2>
0

>  <NsssSiH>
0

>  <NssssSi>
0

>  <NsPH2>
0

>  <NssPH>
0

>  <NsssP>
0

>  <NdsssP>
0

>  <NsssssP>
0

>  <NsSH>
0

>  <NdS>
0

>  <NssS>
0

>  <NaaS>
0

>  <NdssS>
0

>  <NddssS>
0

>  <NsCl>
0

>  <NsBr>
0

>  <NsI>
0

>  <fragCpx>
286.08

>  <fMF>
0.41

>  <nHBAcc>
6

>  <nHBDon>
3

>  <Kier1>
21.83

>  <Kier2>
8.74

>  <Lipinski>
1

>  <GhoseFilter>
1

>  <FilterItLogS>
-3.97

>  <VMcGowan>
295.92

>  <LabuteASA>
173.81

>  <PEOE_VSA1>
25.38

>  <PEOE_VSA2>
4.79

>  <PEOE_VSA3>
9.18

>  <PEOE_VSA4>
0

>  <PEOE_VSA5>
0

>  <PEOE_VSA6>
0

>  <PEOE_VSA7>
50.29

>  <PEOE_VSA8>
36.3

>  <PEOE_VSA9>
13.15

>  <PEOE_VSA10>
11.26

>  <PEOE_VSA11>
11.57

>  <PEOE_VSA12>
5.78

>  <PEOE_VSA13>
0

>  <SMR_VSA1>
23.82

>  <SMR_VSA2>
0

>  <SMR_VSA3>
10.63

>  <SMR_VSA4>
5.92

>  <SMR_VSA5>
43.81

>  <SMR_VSA6>
31.64

>  <SMR_VSA7>
34.66

>  <SMR_VSA8>
0

>  <SMR_VSA9>
5.75

>  <SlogP_VSA1>
20.27

>  <SlogP_VSA2>
55.69

>  <SlogP_VSA3>
4.79

>  <SlogP_VSA4>
11.74

>  <SlogP_VSA5>
47.65

>  <SlogP_VSA6>
17.72

>  <SlogP_VSA7>
0

>  <SlogP_VSA8>
0

>  <SlogP_VSA9>
0

>  <SlogP_VSA10>
10.08

>  <SlogP_VSA11>
5.75

>  <EState_VSA1>
23.61

>  <EState_VSA2>
17.18

>  <EState_VSA3>
35.5

>  <EState_VSA4>
38.77

>  <EState_VSA5>
19.25

>  <EState_VSA6>
0

>  <EState_VSA7>
4.9

>  <EState_VSA8>
10.63

>  <EState_VSA9>
4.74

>  <EState_VSA10>
14.7

>  <VSA_EState1>
21.07

>  <VSA_EState2>
26.48

>  <VSA_EState3>
16.4

>  <VSA_EState4>
0.65

>  <VSA_EState5>
-1.73

>  <VSA_EState6>
1.27

>  <VSA_EState7>
5.66

>  <VSA_EState8>
2.39

>  <VSA_EState9>
1.48

>  <apol>
61.14

>  <bpol>
33.52

>  <nRing>
5

>  <nHRing>
2

>  <naRing>
1

>  <naHRing>
0

>  <nARing 2>
4

>  <nAHRing 2>
2

>  <nFRing>
2

>  <nFHRing>
1

>  <nFaRing>
0

>  <nFaHRing>
0

>  <nFARing 2>
2

>  <nFAHRing 2>
1

>  <nRot>
5

>  <SLogP>
2.02

>  <SMR>
108.63

>  <TopoPSA(NO)>
90.9

>  <TopoPSA>
90.9

>  <JGI1>
0.18

>  <JGI2>
0.08

>  <JGI3>
0.06

>  <JGI4>
0.04

>  <JGI5>
0.03

>  <Diameter>
12

>  <Radius>
6

>  <TMWC10>
143.51

>  <TSRW10>
85.87

>  <MW>
415.19

>  <AMW>
7.41

>  <WPath>
2219

>  <WPol>
55

>  <Zagreb1>
170

>  <Zagreb2>
210

>  <mZagreb2>
6.44

>  <yes>


>  <nAR-cont>
0.199399

>  <nHA-cont>
0.74523694

>  <MWHBN>
0.441691526

>  <MWHBN-cont>
0.316056886

>  <TPSA-cont>
0.365461554

>  <pka_cont>
0.97

>  <yes.1>


>  <BBB_SCORE>
2.634644377

>  <MMFF94 Energy>
64.209

$$$$
Compound 3006
Actelion Java MolfileCreator 2.0

  0  0  0  0  0  0              0 V3000
M  V30 BEGIN CTAB
M  V30 COUNTS 28 28 0 0 0
M  V30 BEGIN ATOM
M  V30 1 S 2.7309 -0.1604 1.3647 0 CFG=2
M  V30 2 O 2.7972 1.052 2.2475 0
M  V30 3 C 1.1979 0.0096 0.4022 0
M  V30 4 C 2.1791 -1.541 2.4017 0
M  V30 5 C 1.0145 -0.6892 -0.8038 0
M  V30 6 C 0.1862 0.8576 0.8795 0
M  V30 7 C -0.2009 -0.5415 -1.4966 0
M  V30 8 C 2.0749 -1.5878 -1.3801 0
M  V30 9 C -1.0157 1.0072 0.1819 0
M  V30 10 C -1.215 0.2951 -1.0144 0
M  V30 11 O -2.0534 1.8091 0.5896 0
M  V30 12 O -2.4248 0.4857 -1.6345 0
M  V30 13 C -1.8261 2.6606 1.7045 0
M  V30 14 C -2.6493 -0.1767 -2.8699 0
M  V30 15 H 1.9914 -2.4193 1.7803 0
M  V30 16 H 2.9715 -1.7712 3.118 0
M  V30 17 H 1.2723 -1.2643 2.9452 0
M  V30 18 H 0.3613 1.3923 1.8085 0
M  V30 19 H -0.3349 -1.092 -2.4227 0
M  V30 20 H 2.2553 -2.4404 -0.7186 0
M  V30 21 H 1.777 -1.9872 -2.3556 0
M  V30 22 H 3.0068 -1.0336 -1.5307 0
M  V30 23 H -1.6846 2.0783 2.6207 0
M  V30 24 H -2.7189 3.279 1.8398 0
M  V30 25 H -0.9804 3.3331 1.5263 0
M  V30 26 H -1.926 0.1426 -3.6274 0
M  V30 27 H -3.646 0.104 -3.2238 0
M  V30 28 H -2.6367 -1.264 -2.7425 0
M  V30 END ATOM
M  V30 BEGIN BOND
M  V30 1 2 1 2
M  V30 2 1 1 3
M  V30 3 1 1 4
M  V30 4 2 3 5
M  V30 5 1 3 6
M  V30 6 1 5 7
M  V30 7 1 5 8
M  V30 8 2 6 9
M  V30 9 2 7 10
M  V30 10 1 9 11
M  V30 11 1 10 12
M  V30 12 1 11 13
M  V30 13 1 12 14
M  V30 14 1 9 10
M  V30 15 1 4 15
M  V30 16 1 4 16
M  V30 17 1 4 17
M  V30 18 1 6 18
M  V30 19 1 7 19
M  V30 20 1 8 20
M  V30 21 1 8 21
M  V30 22 1 8 22
M  V30 23 1 13 23
M  V30 24 1 13 24
M  V30 25 1 13 25
M  V30 26 1 14 26
M  V30 27 1 14 27
M  V30 28 1 14 28
M  V30 END BOND
M  V30 BEGIN COLLECTION
M  V30 MDLV30/STERAC1 ATOMS=(1 1)
M  V30 END COLLECTION
M  V30 END CTAB
M  END
>  <Column 1>
3863

>  <level_0>
7393

>  <index>
7394

>  <Unnamed: 0>
7394

>  <NO.>
7407

>  <Name>
tolmesoxide

>  <IUPAC_name>
1-2-dimethoxy-4-methyl-5-methylsulfinylbenzene

>  <SMILES>
COc1cc(C)c([S+](C)[O-])cc1OC

>  <CID>
72153

>  <logBB>


>  <BBB+/BBB->
BBB+

>  <Inchi>
InChI=1S/C10H14O3S/c1-7-5-8(12-2)9(13-3)6-10(7)14(4)11/h5-6H-1-4H3

>  <threshold>


>  <reference>
R27|

>  <group>
C

>  <Class>
-1

>  <ABC>
10.11

>  <ABCGG>
9.8

>  <nAcid>
0

>  <nBase>
0

>  <nAromAtom>
6

>  <nAromBond>
6

>  <nAtom>
28

>  <nHeavyAtom>
14

>  <nSpiro>
0

>  <nBridgehead>
0

>  <nHetero>
4

>  <nN>
0

>  <nO>
3

>  <nF>
0

>  <BalabanJ>
2.61

>  <BertzCT>
323.39

>  <nBonds>
28

>  <nBondsO>
14

>  <nBondsS>
22

>  <nBondsD>
0

>  <nBondsT>
0

>  <nBondsA>
6

>  <nBondsM>
6

>  <nBondsKS>
25

>  <nBondsKD>
3

>  <RNCG>
0.37

>  <RPCG>
0.1

>  <FCSP3>
0.4

>  <SZ>
19

>  <Sm>
17.84

>  <Sv>
17.12

>  <Sse>
28.28

>  <Sp>
18.77

>  <Si>
31.46

>  <MZ>
0.68

>  <Mm>
0.64

>  <Mv>
0.61

>  <Mse>
1.01

>  <Mp>
0.67

>  <Mi>
1.12

>  <NsCH3>
4

>  <NdCH2>
0

>  <NssCH2>
0

>  <NtCH>
0

>  <NdsCH>
0

>  <NaaCH>
2

>  <NsssCH>
0

>  <NddC>
0

>  <NtsC>
0

>  <NdssC>
0

>  <NaasC>
4

>  <NaaaC>
0

>  <NssssC>
0

>  <NsNH3>
0

>  <NsNH2>
0

>  <NssNH2>
0

>  <NdNH>
0

>  <NssNH>
0

>  <NaaNH>
0

>  <NtN>
0

>  <NsssNH>
0

>  <NdsN>
0

>  <NaaN>
0

>  <NsssN>
0

>  <NddsN>
0

>  <NaasN>
0

>  <NssssN>
0

>  <NsOH>
0

>  <NdO>
0

>  <NssO>
2

>  <NaaO>
0

>  <NsF>
0

>  <NsSiH3>
0

>  <NssSiH2>
0

>  <NsssSiH>
0

>  <NssssSi>
0

>  <NsPH2>
0

>  <NssPH>
0

>  <NsssP>
0

>  <NdsssP>
0

>  <NsssssP>
0

>  <NsSH>
0

>  <NdS>
0

>  <NssS>
0

>  <NaaS>
0

>  <NdssS>
0

>  <NddssS>
0

>  <NsCl>
0

>  <NsBr>
0

>  <NsI>
0

>  <fragCpx>
14.04

>  <fMF>
0.21

>  <nHBAcc>
3

>  <nHBDon>
0

>  <Kier1>
12.07

>  <Kier2>
5.19

>  <Lipinski>
1

>  <GhoseFilter>
1

>  <FilterItLogS>
-3.3

>  <VMcGowan>
161.96

>  <LabuteASA>
87.21

>  <PEOE_VSA1>
14.03

>  <PEOE_VSA2>
0

>  <PEOE_VSA3>
0

>  <PEOE_VSA4>
0

>  <PEOE_VSA5>
0

>  <PEOE_VSA6>
0

>  <PEOE_VSA7>
24.17

>  <PEOE_VSA8>
11.63

>  <PEOE_VSA9>
14.22

>  <PEOE_VSA10>
6.26

>  <PEOE_VSA11>
16.39

>  <PEOE_VSA12>
0

>  <PEOE_VSA13>
0

>  <SMR_VSA1>
14.03

>  <SMR_VSA2>
0

>  <SMR_VSA3>
0

>  <SMR_VSA4>
0

>  <SMR_VSA5>
11.82

>  <SMR_VSA6>
20.48

>  <SMR_VSA7>
17.7

>  <SMR_VSA8>
0

>  <SMR_VSA9>
11.5

>  <SlogP_VSA1>
9.47

>  <SlogP_VSA2>
25.03

>  <SlogP_VSA3>
11.18

>  <SlogP_VSA4>
6.92

>  <SlogP_VSA5>
5.56

>  <SlogP_VSA6>
17.03

>  <SlogP_VSA7>
0

>  <SlogP_VSA8>
0

>  <SlogP_VSA9>
0

>  <SlogP_VSA10>
0

>  <SlogP_VSA11>
11.5

>  <EState_VSA1>
11.18

>  <EState_VSA2>
0

>  <EState_VSA3>
11.5

>  <EState_VSA4>
10.46

>  <EState_VSA5>
0

>  <EState_VSA6>
26.54

>  <EState_VSA7>
12.99

>  <EState_VSA8>
0

>  <EState_VSA9>
9.47

>  <EState_VSA10>
4.55

>  <VSA_EState1>
21.6

>  <VSA_EState2>
0.78

>  <VSA_EState3>
0

>  <VSA_EState4>
0.95

>  <VSA_EState5>
1.28

>  <VSA_EState6>
3.58

>  <VSA_EState7>
1.65

>  <VSA_EState8>
1.9

>  <VSA_EState9>
3.15

>  <apol>
31.34

>  <bpol>
22.07

>  <nRing>
1

>  <nHRing>
0

>  <naRing>
1

>  <naHRing>
0

>  <nARing 2>
0

>  <nAHRing 2>
0

>  <nFRing>
0

>  <nFHRing>
0

>  <nFaRing>
0

>  <nFaHRing>
0

>  <nFARing 2>
0

>  <nFAHRing 2>
0

>  <nRot>
3

>  <SLogP>
1.75

>  <SMR>
56.62

>  <TopoPSA(NO)>
41.52

>  <TopoPSA>
41.52

>  <JGI1>
0.25

>  <JGI2>
0.11

>  <JGI3>
0.06

>  <JGI4>
0.06

>  <JGI5>
0.05

>  <Diameter>
7

>  <Radius>
4

>  <TMWC10>
96.57

>  <TSRW10>
45.37

>  <MW>
214.07

>  <AMW>
7.65

>  <WPath>
292

>  <WPol>
21

>  <Zagreb1>
66

>  <Zagreb2>
76

>  <mZagreb2>
3.33

>  <yes>


>  <nAR-cont>
0.336376

>  <nHA-cont>
0.887625254

>  <MWHBN>
0.205042246

>  <MWHBN-cont>
0.999987253

>  <TPSA-cont>
0.710164618

>  <pka_cont>
0.97

>  <yes.1>


>  <BBB_SCORE>
4.629311368

>  <MMFF94 Energy>
50.62

$$$$
Compound 3007
Actelion Java MolfileCreator 2.0

  0  0  0  0  0  0              0 V3000
M  V30 BEGIN CTAB
M  V30 COUNTS 64 66 0 0 0
M  V30 BEGIN ATOM
M  V30 1 O -1.6683 0.0793 1.9069 0
M  V30 2 C -0.9786 0.1896 2.9103 0
M  V30 3 O -1.4013 -0.3556 4.0722 0
M  V30 4 C 0.3588 0.9321 3.0487 0 CFG=2
M  V30 5 N 0.7425 1.5596 1.771 0
M  V30 6 C 1.4723 0.0294 3.5835 0
M  V30 7 C 0.3323 2.87 1.5556 0
M  V30 8 C 1.1913 0.6567 0.7096 0
M  V30 9 C 1.9841 -0.9287 2.5408 0
M  V30 10 O -0.2274 3.5119 2.4543 0
M  V30 11 C 0.5897 3.5866 0.2065 0 CFG=2
M  V30 12 C 1.8622 -0.6136 1.1826 0
M  V30 13 C 2.6276 -2.1138 2.9297 0
M  V30 14 N 0.1291 2.8093 -0.9676 0
M  V30 15 C 2.0607 3.9742 0.0713 0
M  V30 16 C 2.357 -1.5139 0.2235 0
M  V30 17 C 3.1249 -3.0059 1.9737 0
M  V30 18 C -1.3561 2.6409 -0.9859 0 CFG=1
M  V30 19 C 2.982 -2.7061 0.606 0
M  V30 20 O 3.7575 -4.1881 2.2695 0
M  V30 21 C -2.0213 3.9497 -1.4281 0
M  V30 22 C -1.6842 1.5207 -1.9831 0
M  V30 23 O 3.4894 -3.6321 -0.2715 0
M  V30 24 C 3.9417 -4.5145 3.6389 0
M  V30 25 O -1.517 4.8104 -2.1348 0
M  V30 26 O -3.2751 4.095 -0.9602 0
M  V30 27 C -3.1394 1.0507 -1.8771 0
M  V30 28 C 3.2993 -3.3999 -1.6595 0
M  V30 29 C -3.3766 -0.1871 -2.7067 0
M  V30 30 C -3.7685 -0.084 -4.0476 0
M  V30 31 C -3.1742 -1.4578 -2.1511 0
M  V30 32 C -3.9657 -1.2328 -4.8153 0
M  V30 33 C -3.3715 -2.6049 -2.9206 0
M  V30 34 C -3.7682 -2.4923 -4.2517 0
M  V30 35 H -2.2659 -0.7563 3.8398 0
M  V30 36 H 0.1784 1.714 3.7966 0
M  V30 37 H 2.3191 0.6515 3.9008 0
M  V30 38 H 1.1256 -0.5259 4.4627 0
M  V30 39 H 1.8849 1.1799 0.0506 0
M  V30 40 H 0.3064 0.3705 0.1327 0
M  V30 41 H 0.0248 4.5276 0.2433 0
M  V30 42 H 2.7257 -2.3197 3.9909 0
M  V30 43 H 0.3808 3.3314 -1.8133 0
M  V30 44 H 2.3837 4.5535 0.9437 0
M  V30 45 H 2.7264 3.1109 -0.0029 0
M  V30 46 H 2.2185 4.595 -0.8174 0
M  V30 47 H 2.2409 -1.2559 -0.8249 0
M  V30 48 H -1.7153 2.3694 0.0122 0
M  V30 49 H -1.4801 1.8499 -3.0111 0
M  V30 50 H -1.0236 0.6638 -1.7961 0
M  V30 51 H 4.5655 -3.769 4.143 0
M  V30 52 H 4.4671 -5.4732 3.6865 0
M  V30 53 H 2.9804 -4.6375 4.1485 0
M  V30 54 H -3.5607 4.9719 -1.2923 0
M  V30 55 H -3.3968 0.8372 -0.832 0
M  V30 56 H -3.8268 1.8386 -2.2062 0
M  V30 57 H 2.2347 -3.3492 -1.9111 0
M  V30 58 H 3.7282 -4.2477 -2.2021 0
M  V30 59 H 3.8272 -2.4972 -1.9838 0
M  V30 60 H -3.9224 0.8918 -4.5019 0
M  V30 61 H -2.8595 -1.5585 -1.114 0
M  V30 62 H -4.2726 -1.1449 -5.854 0
M  V30 63 H -3.2143 -3.5861 -2.4807 0
M  V30 64 H -3.9219 -3.386 -4.8503 0
M  V30 END ATOM
M  V30 BEGIN BOND
M  V30 1 2 1 2
M  V30 2 1 2 3
M  V30 3 1 2 4
M  V30 4 1 4 5
M  V30 5 1 4 6
M  V30 6 1 5 7
M  V30 7 1 5 8
M  V30 8 1 6 9
M  V30 9 2 7 10
M  V30 10 1 7 11
M  V30 11 1 8 12
M  V30 12 1 9 13
M  V30 13 1 11 14
M  V30 14 1 11 15
M  V30 15 1 12 16
M  V30 16 2 13 17
M  V30 17 1 14 18
M  V30 18 2 16 19
M  V30 19 1 17 20
M  V30 20 1 18 21
M  V30 21 1 18 22
M  V30 22 1 19 23
M  V30 23 1 20 24
M  V30 24 2 21 25
M  V30 25 1 21 26
M  V30 26 1 22 27
M  V30 27 1 23 28
M  V30 28 1 27 29
M  V30 29 2 29 30
M  V30 30 1 29 31
M  V30 31 1 30 32
M  V30 32 2 31 33
M  V30 33 2 32 34
M  V30 34 2 9 12
M  V30 35 1 17 19
M  V30 36 1 33 34
M  V30 37 1 3 35
M  V30 38 1 4 36
M  V30 39 1 6 37
M  V30 40 1 6 38
M  V30 41 1 8 39
M  V30 42 1 8 40
M  V30 43 1 11 41
M  V30 44 1 13 42
M  V30 45 1 14 43
M  V30 46 1 15 44
M  V30 47 1 15 45
M  V30 48 1 15 46
M  V30 49 1 16 47
M  V30 50 1 18 48
M  V30 51 1 22 49
M  V30 52 1 22 50
M  V30 53 1 24 51
M  V30 54 1 24 52
M  V30 55 1 24 53
M  V30 56 1 26 54
M  V30 57 1 27 55
M  V30 58 1 27 56
M  V30 59 1 28 57
M  V30 60 1 28 58
M  V30 61 1 28 59
M  V30 62 1 30 60
M  V30 63 1 31 61
M  V30 64 1 32 62
M  V30 65 1 33 63
M  V30 66 1 34 64
M  V30 END BOND
M  V30 BEGIN COLLECTION
M  V30 MDLV30/STEABS ATOMS=(3 4 11 18)
M  V30 END COLLECTION
M  V30 END CTAB
M  END
>  <Column 1>
3864

>  <level_0>
7396

>  <index>
7397

>  <Unnamed: 0>
7397

>  <NO.>
7410

>  <Name>
(3r)-2-[(2r)-2-[[(1r)-1-carboxy-3-phenylpropyl]amino]propanoyl]-6-7-dimethoxy-3-4-dihydro-1h-isoquinoline-3-carboxylic acid

>  <IUPAC_name>
(3r)-2-[(2r)-2-[[(1r)-1-carboxy-3-phenylpropyl]amino]propanoyl]-6-7-dimethoxy-3-4-dihydro-1h-isoquinoline-3-carboxylic acid

>  <SMILES>
COc1cc2c(cc1OC)CN(C(=O)[C@@H](C)N[C@H](CCc1ccccc1)C(=O)O)[C@@H](C(=O)O)C2

>  <CID>
133688799

>  <logBB>


>  <BBB+/BBB->
BBB-

>  <Inchi>
InChI=1S/C25H30N2O7/c1-15(26-19(24(29)30)10-9-16-7-5-4-6-8-16)23(28)27-14-18-13-22(34-3)21(33-2)12-17(18)11-20(27)25(31)32/h4-8-12-13-15-19-20-26H-9-11-14H2-1-3H3-(H-29-30)(H-31-32)/t15--19--20-/m1/s1

>  <threshold>


>  <reference>
R27|

>  <group>
C

>  <Class>
1

>  <ABC>
25.83

>  <ABCGG>
20.75

>  <nAcid>
2

>  <nBase>
1

>  <nAromAtom>
12

>  <nAromBond>
12

>  <nAtom>
64

>  <nHeavyAtom>
34

>  <nSpiro>
0

>  <nBridgehead>
0

>  <nHetero>
9

>  <nN>
2

>  <nO>
7

>  <nF>
0

>  <BalabanJ>
1.62

>  <BertzCT>
1041.06

>  <nBonds>
66

>  <nBondsO>
36

>  <nBondsS>
51

>  <nBondsD>
3

>  <nBondsT>
0

>  <nBondsA>
12

>  <nBondsM>
15

>  <nBondsKS>
57

>  <nBondsKD>
9

>  <RNCG>
0.13

>  <RPCG>
0.08

>  <FCSP3>
0.4

>  <SZ>
41.67

>  <Sm>
39.17

>  <Sv>
39.65

>  <Sse>
64.96

>  <Sp>
41.66

>  <Si>
72.28

>  <MZ>
0.65

>  <Mm>
0.61

>  <Mv>
0.62

>  <Mse>
1.01

>  <Mp>
0.65

>  <Mi>
1.13

>  <NsCH3>
3

>  <NdCH2>
0

>  <NssCH2>
4

>  <NtCH>
0

>  <NdsCH>
0

>  <NaaCH>
7

>  <NsssCH>
3

>  <NddC>
0

>  <NtsC>
0

>  <NdssC>
3

>  <NaasC>
5

>  <NaaaC>
0

>  <NssssC>
0

>  <NsNH3>
0

>  <NsNH2>
0

>  <NssNH2>
0

>  <NdNH>
0

>  <NssNH>
1

>  <NaaNH>
0

>  <NtN>
0

>  <NsssNH>
0

>  <NdsN>
0

>  <NaaN>
0

>  <NsssN>
1

>  <NddsN>
0

>  <NaasN>
0

>  <NssssN>
0

>  <NsOH>
2

>  <NdO>
3

>  <NssO>
2

>  <NaaO>
0

>  <NsF>
0

>  <NsSiH3>
0

>  <NssSiH2>
0

>  <NsssSiH>
0

>  <NssssSi>
0

>  <NsPH2>
0

>  <NssPH>
0

>  <NsssP>
0

>  <NdsssP>
0

>  <NsssssP>
0

>  <NsSH>
0

>  <NdS>
0

>  <NssS>
0

>  <NaaS>
0

>  <NdssS>
0

>  <NddssS>
0

>  <NsCl>
0

>  <NsBr>
0

>  <NsI>
0

>  <fragCpx>
174.09

>  <fMF>
0.34

>  <nHBAcc>
6

>  <nHBDon>
3

>  <Kier1>
28.57

>  <Kier2>
13.52

>  <Lipinski>
1

>  <GhoseFilter>
1

>  <FilterItLogS>
-3.94

>  <VMcGowan>
352.88

>  <LabuteASA>
197.84

>  <PEOE_VSA1>
24.59

>  <PEOE_VSA2>
14.91

>  <PEOE_VSA3>
4.79

>  <PEOE_VSA4>
0

>  <PEOE_VSA5>
0

>  <PEOE_VSA6>
30.33

>  <PEOE_VSA7>
48.59

>  <PEOE_VSA8>
12.97

>  <PEOE_VSA9>
20.26

>  <PEOE_VSA10>
12.08

>  <PEOE_VSA11>
11.5

>  <PEOE_VSA12>
5.91

>  <PEOE_VSA13>
0

>  <SMR_VSA1>
34.07

>  <SMR_VSA2>
0

>  <SMR_VSA3>
10.22

>  <SMR_VSA4>
0

>  <SMR_VSA5>
50.86

>  <SMR_VSA6>
14.22

>  <SMR_VSA7>
59.15

>  <SMR_VSA8>
0

>  <SMR_VSA9>
11.5

>  <SlogP_VSA1>
14.79

>  <SlogP_VSA2>
65.3

>  <SlogP_VSA3>
33.77

>  <SlogP_VSA4>
0

>  <SlogP_VSA5>
30.03

>  <SlogP_VSA6>
42.46

>  <SlogP_VSA7>
0

>  <SlogP_VSA8>
0

>  <SlogP_VSA9>
0

>  <SlogP_VSA10>
0

>  <SlogP_VSA11>
11.5

>  <EState_VSA1>
35.97

>  <EState_VSA2>
12.97

>  <EState_VSA3>
24.34

>  <EState_VSA4>
16.69

>  <EState_VSA5>
19.12

>  <EState_VSA6>
19.06

>  <EState_VSA7>
30.33

>  <EState_VSA8>
5.32

>  <EState_VSA9>
9.47

>  <EState_VSA10>
24.6

>  <VSA_EState1>
10.65

>  <VSA_EState2>
38.39

>  <VSA_EState3>
22.35

>  <VSA_EState4>
2.52

>  <VSA_EState5>
-1.69

>  <VSA_EState6>
10.05

>  <VSA_EState7>
0.93

>  <VSA_EState8>
1.63

>  <VSA_EState9>
3.01

>  <apol>
69.57

>  <bpol>
38.45

>  <nRing>
3

>  <nHRing>
1

>  <naRing>
2

>  <naHRing>
0

>  <nARing 2>
1

>  <nAHRing 2>
1

>  <nFRing>
1

>  <nFHRing>
1

>  <nFaRing>
0

>  <nFaHRing>
0

>  <nFARing 2>
1

>  <nFAHRing 2>
1

>  <nRot>
10

>  <SLogP>
2.11

>  <SMR>
124.01

>  <TopoPSA(NO)>
125.4

>  <TopoPSA>
125.4

>  <JGI1>
0.21

>  <JGI2>
0.08

>  <JGI3>
0.04

>  <JGI4>
0.05

>  <JGI5>
0.03

>  <Diameter>
17

>  <Radius>
9

>  <TMWC10>
147.74

>  <TSRW10>
70.15

>  <MW>
470.21

>  <AMW>
7.35

>  <WPath>
3657

>  <WPol>
56

>  <Zagreb1>
172

>  <Zagreb2>
201

>  <mZagreb2>
7.69

>  <yes>


>  <nAR-cont>
0.816016

>  <nHA-cont>
0.568589513

>  <MWHBN>
0.415046331

>  <MWHBN-cont>
0.417150002

>  <TPSA-cont>
0

>  <pka_cont>
0.97

>  <yes.1>


>  <BBB_SCORE>
2.495330515

>  <MMFF94 Energy>
118.12

$$$$
Compound 3008
Actelion Java MolfileCreator 2.0

  0  0  0  0  0  0              0 V3000
M  V30 BEGIN CTAB
M  V30 COUNTS 58 62 0 0 0
M  V30 BEGIN ATOM
M  V30 1 O -1.7588 4.5619 -1.8388 0
M  V30 2 C -1.3271 3.4913 -2.2829 0
M  V30 3 N -1.1594 2.3934 -1.4516 0
M  V30 4 C -1.0484 3.3778 -3.7907 0 CFG=1
M  V30 5 C -1.4016 2.5627 -0.0125 0
M  V30 6 C -0.6996 1.0613 -1.8721 0
M  V30 7 O 0.0862 2.5779 -4.1144 0
M  V30 8 C -2.3086 2.877 -4.4865 0
M  V30 9 C -0.5155 1.6638 0.8672 0
M  V30 10 C -1.0611 -0.0643 -0.8835 0
M  V30 11 C 0.1316 2.2743 -5.4499 0
M  V30 12 O -2.1677 2.9356 -5.912 0
M  V30 13 N -0.6279 0.2646 0.4683 0
M  V30 14 C -0.9496 2.4559 -6.3173 0
M  V30 15 C 1.3314 1.7519 -5.9297 0
M  V30 16 C -0.326 -0.7324 1.3622 0
M  V30 17 C -0.8158 2.1542 -7.6712 0
M  V30 18 C 1.4606 1.4366 -7.2832 0
M  V30 19 N -0.5364 -2.0048 1.0025 0
M  V30 20 N 0.1637 -0.3908 2.5619 0
M  V30 21 C 0.3895 1.6425 -8.1541 0
M  V30 22 C -0.2464 -2.9685 1.8857 0
M  V30 23 C 0.477 -1.3576 3.4297 0
M  V30 24 N -0.4925 -4.2587 1.4377 0
M  V30 25 C 0.3004 -2.7085 3.1432 0
M  V30 26 C 1.0013 -1.0004 4.6659 0
M  V30 27 C 0.6734 -3.6903 4.0955 0
M  V30 28 C 1.3645 -1.9558 5.6229 0
M  V30 29 C 1.2047 -3.3199 5.3315 0
M  V30 30 O 1.8854 -1.6589 6.8579 0
M  V30 31 O 1.5876 -4.1998 6.3107 0
M  V30 32 C 2.0669 -0.2886 7.1868 0
M  V30 33 C 1.5395 -5.5872 6.0106 0
M  V30 34 H -0.8181 4.3965 -4.1358 0
M  V30 35 H -1.2605 3.609 0.279 0
M  V30 36 H -2.4583 2.3174 0.1524 0
M  V30 37 H 0.3912 1.1246 -1.966 0
M  V30 38 H -1.1104 0.8149 -2.8532 0
M  V30 39 H -2.5554 1.8446 -4.2125 0
M  V30 40 H -3.172 3.4963 -4.2184 0
M  V30 41 H 0.5313 1.9783 0.7787 0
M  V30 42 H -0.8272 1.8125 1.9083 0
M  V30 43 H -0.5924 -0.9847 -1.2519 0
M  V30 44 H -2.147 -0.2185 -0.8819 0
M  V30 45 H 2.1692 1.6026 -5.2543 0
M  V30 46 H -1.652 2.3093 -8.3474 0
M  V30 47 H 2.3986 1.0367 -7.66 0
M  V30 48 H 0.4925 1.4027 -9.2094 0
M  V30 49 H -0.856 -4.2689 0.4921 0
M  V30 50 H -0.9121 -4.9074 2.0866 0
M  V30 51 H 1.1213 0.0609 4.8583 0
M  V30 52 H 0.5451 -4.7352 3.837 0
M  V30 53 H 2.7811 0.189 6.5083 0
M  V30 54 H 2.4851 -0.2398 8.1969 0
M  V30 55 H 1.1109 0.2451 7.1972 0
M  V30 56 H 0.5095 -5.9172 5.8406 0
M  V30 57 H 1.9232 -6.1309 6.8792 0
M  V30 58 H 2.1799 -5.8306 5.1564 0
M  V30 END ATOM
M  V30 BEGIN BOND
M  V30 1 2 1 2
M  V30 2 1 2 3
M  V30 3 1 2 4
M  V30 4 1 3 5
M  V30 5 1 3 6
M  V30 6 1 4 7
M  V30 7 1 4 8
M  V30 8 1 5 9
M  V30 9 1 6 10
M  V30 10 1 7 11
M  V30 11 1 8 12
M  V30 12 1 9 13
M  V30 13 2 11 14
M  V30 14 1 11 15
M  V30 15 1 13 16
M  V30 16 1 14 17
M  V30 17 2 15 18
M  V30 18 1 16 19
M  V30 19 2 16 20
M  V30 20 2 17 21
M  V30 21 2 19 22
M  V30 22 1 20 23
M  V30 23 1 22 24
M  V30 24 1 22 25
M  V30 25 2 23 26
M  V30 26 2 25 27
M  V30 27 1 26 28
M  V30 28 1 27 29
M  V30 29 1 28 30
M  V30 30 1 29 31
M  V30 31 1 30 32
M  V30 32 1 31 33
M  V30 33 1 10 13
M  V30 34 1 12 14
M  V30 35 1 18 21
M  V30 36 1 23 25
M  V30 37 2 28 29
M  V30 38 1 4 34
M  V30 39 1 5 35
M  V30 40 1 5 36
M  V30 41 1 6 37
M  V30 42 1 6 38
M  V30 43 1 8 39
M  V30 44 1 8 40
M  V30 45 1 9 41
M  V30 46 1 9 42
M  V30 47 1 10 43
M  V30 48 1 10 44
M  V30 49 1 15 45
M  V30 50 1 17 46
M  V30 51 1 18 47
M  V30 52 1 21 48
M  V30 53 1 24 49
M  V30 54 1 24 50
M  V30 55 1 26 51
M  V30 56 1 27 52
M  V30 57 1 32 53
M  V30 58 1 32 54
M  V30 59 1 32 55
M  V30 60 1 33 56
M  V30 61 1 33 57
M  V30 62 1 33 58
M  V30 END BOND
M  V30 BEGIN COLLECTION
M  V30 MDLV30/STEABS ATOMS=(1 4)
M  V30 END COLLECTION
M  V30 END CTAB
M  END
>  <Column 1>
3867

>  <level_0>
7401

>  <index>
7402

>  <Unnamed: 0>
7402

>  <NO.>
7415

>  <Name>
s-doxazosin

>  <IUPAC_name>
[4-(4-amino-6-7-dimethoxyquinazolin-2-yl)piperazin-1-yl]-[(3s)-2-3-dihydro-1-4-benzodioxin-3-yl]methanone

>  <SMILES>
COc1cc2nc(N3CCN(C(=O)[C@@H]4COc5ccccc5O4)CC3)nc(N)c2cc1OC

>  <CID>
6604576

>  <logBB>


>  <BBB+/BBB->
BBB+

>  <Inchi>
InChI=1S/C23H25N5O5/c1-30-18-11-14-15(12-19(18)31-2)25-23(26-21(14)24)28-9-7-27(8-10-28)22(29)20-13-32-16-5-3-4-6-17(16)33-20/h3-6-11-12-20H-7-10-13H2-1-2H3-(H2-24-25-26)/t20-/m0/s1

>  <threshold>


>  <reference>
R27|

>  <group>
C

>  <Class>
-1

>  <ABC>
26.1

>  <ABCGG>
18.1

>  <nAcid>
0

>  <nBase>
0

>  <nAromAtom>
16

>  <nAromBond>
17

>  <nAtom>
58

>  <nHeavyAtom>
33

>  <nSpiro>
0

>  <nBridgehead>
0

>  <nHetero>
10

>  <nN>
5

>  <nO>
5

>  <nF>
0

>  <BalabanJ>
1.12

>  <BertzCT>
1195.32

>  <nBonds>
62

>  <nBondsO>
37

>  <nBondsS>
44

>  <nBondsD>
1

>  <nBondsT>
0

>  <nBondsA>
17

>  <nBondsM>
18

>  <nBondsKS>
53

>  <nBondsKD>
9

>  <RNCG>
0.13

>  <RPCG>
0.07

>  <FCSP3>
0.35

>  <SZ>
39.67

>  <Sm>
37.59

>  <Sv>
37.14

>  <Sse>
59.07

>  <Sp>
38.68

>  <Si>
65.69

>  <MZ>
0.68

>  <Mm>
0.65

>  <Mv>
0.64

>  <Mse>
1.02

>  <Mp>
0.67

>  <Mi>
1.13

>  <NsCH3>
2

>  <NdCH2>
0

>  <NssCH2>
5

>  <NtCH>
0

>  <NdsCH>
0

>  <NaaCH>
6

>  <NsssCH>
1

>  <NddC>
0

>  <NtsC>
0

>  <NdssC>
1

>  <NaasC>
6

>  <NaaaC>
2

>  <NssssC>
0

>  <NsNH3>
0

>  <NsNH2>
1

>  <NssNH2>
0

>  <NdNH>
0

>  <NssNH>
0

>  <NaaNH>
0

>  <NtN>
0

>  <NsssNH>
0

>  <NdsN>
0

>  <NaaN>
2

>  <NsssN>
2

>  <NddsN>
0

>  <NaasN>
0

>  <NssssN>
0

>  <NsOH>
0

>  <NdO>
1

>  <NssO>
4

>  <NaaO>
0

>  <NsF>
0

>  <NsSiH3>
0

>  <NssSiH2>
0

>  <NsssSiH>
0

>  <NssssSi>
0

>  <NsPH2>
0

>  <NssPH>
0

>  <NsssP>
0

>  <NdsssP>
0

>  <NsssssP>
0

>  <NsSH>
0

>  <NdS>
0

>  <NssS>
0

>  <NaaS>
0

>  <NdssS>
0

>  <NddssS>
0

>  <NsCl>
0

>  <NsBr>
0

>  <NsI>
0

>  <fragCpx>
313.1

>  <fMF>
0.47

>  <nHBAcc>
9

>  <nHBDon>
1

>  <Kier1>
24.68

>  <Kier2>
10.95

>  <Lipinski>
1

>  <GhoseFilter>
1

>  <FilterItLogS>
-4.24

>  <VMcGowan>
321.18

>  <LabuteASA>
190.36

>  <PEOE_VSA1>
34.48

>  <PEOE_VSA2>
4.79

>  <PEOE_VSA3>
4.98

>  <PEOE_VSA4>
4.98

>  <PEOE_VSA5>
0

>  <PEOE_VSA6>
12.13

>  <PEOE_VSA7>
18.2

>  <PEOE_VSA8>
37.63

>  <PEOE_VSA9>
19.74

>  <PEOE_VSA10>
12.42

>  <PEOE_VSA11>
23

>  <PEOE_VSA12>
12.05

>  <PEOE_VSA13>
5.91

>  <SMR_VSA1>
23.74

>  <SMR_VSA2>
0

>  <SMR_VSA3>
14.87

>  <SMR_VSA4>
0

>  <SMR_VSA5>
6.1

>  <SMR_VSA6>
57.64

>  <SMR_VSA7>
36.4

>  <SMR_VSA8>
0

>  <SMR_VSA9>
23

>  <SlogP_VSA1>
29.58

>  <SlogP_VSA2>
73.88

>  <SlogP_VSA3>
4.79

>  <SlogP_VSA4>
0

>  <SlogP_VSA5>
0

>  <SlogP_VSA6>
36.4

>  <SlogP_VSA7>
0

>  <SlogP_VSA8>
10.9

>  <SlogP_VSA9>
0

>  <SlogP_VSA10>
11.77

>  <SlogP_VSA11>
23

>  <EState_VSA1>
6.1

>  <EState_VSA2>
12.51

>  <EState_VSA3>
71.85

>  <EState_VSA4>
0

>  <EState_VSA5>
0

>  <EState_VSA6>
37.32

>  <EState_VSA7>
23.1

>  <EState_VSA8>
9.97

>  <EState_VSA9>
24.68

>  <EState_VSA10>
4.79

>  <VSA_EState1>
22.29

>  <VSA_EState2>
25.97

>  <VSA_EState3>
0.69

>  <VSA_EState4>
6.89

>  <VSA_EState5>
3.18

>  <VSA_EState6>
10.92

>  <VSA_EState7>
-0.65

>  <VSA_EState8>
2.4

>  <VSA_EState9>
3.14

>  <apol>
64.59

>  <bpol>
38.02

>  <nRing>
5

>  <nHRing>
3

>  <naRing>
3

>  <naHRing>
1

>  <nARing 2>
2

>  <nAHRing 2>
2

>  <nFRing>
2

>  <nFHRing>
2

>  <nFaRing>
1

>  <nFaHRing>
1

>  <nFARing 2>
1

>  <nFAHRing 2>
1

>  <nRot>
4

>  <SLogP>
1.72

>  <SMR>
122.2

>  <TopoPSA(NO)>
112.27

>  <TopoPSA>
112.27

>  <JGI1>
0.18

>  <JGI2>
0.08

>  <JGI3>
0.04

>  <JGI4>
0.05

>  <JGI5>
0.03

>  <Diameter>
18

>  <Radius>
9

>  <TMWC10>
148.81

>  <TSRW10>
69.61

>  <MW>
451.19

>  <AMW>
7.78

>  <WPath>
3556

>  <WPol>
59

>  <Zagreb1>
180

>  <Zagreb2>
217

>  <mZagreb2>
7.28

>  <yes>


>  <nAR-cont>
1

>  <nHA-cont>
0.61399562

>  <MWHBN>
0.470782453

>  <MWHBN-cont>
0

>  <TPSA-cont>
0.216285685

>  <pka_cont>
0.97

>  <yes.1>


>  <BBB_SCORE>
2.531566989

>  <MMFF94 Energy>
39.145

$$$$
Compound 3009
Actelion Java MolfileCreator 2.0

  0  0  0  0  0  0              0 V3000
M  V30 BEGIN CTAB
M  V30 COUNTS 50 52 0 0 0
M  V30 BEGIN ATOM
M  V30 1 O 3.9184 -2.7976 3.1178 0
M  V30 2 C 3.5023 -3.2273 2.0562 0
M  V30 3 O 4.0406 -4.3338 1.5084 0
M  V30 4 C 2.3962 -2.6394 1.2016 0
M  V30 5 C 1.4703 -1.7287 2.0162 0
M  V30 6 C 2.9754 -1.928 -0.022 0
M  V30 7 C 2.0408 -0.3259 2.2735 0
M  V30 8 C 3.5765 -0.5621 0.3216 0
M  V30 9 C 2.555 0.402 0.9965 0
M  V30 10 C 3.2969 1.6178 1.4447 0
M  V30 11 C 1.4515 0.8482 0.0107 0
M  V30 12 N 3.8945 2.5529 1.7876 0
M  V30 13 C 0.0903 0.8733 0.3522 0
M  V30 14 C 1.7884 1.3145 -1.2764 0
M  V30 15 C -0.8856 1.2773 -0.5681 0
M  V30 16 C 0.8142 1.7517 -2.1871 0
M  V30 17 O -2.1809 1.268 -0.1139 0
M  V30 18 C -0.5348 1.744 -1.84 0
M  V30 19 C -2.9948 0.3061 -0.8011 0
M  V30 20 O -1.5563 2.1652 -2.6476 0
M  V30 21 C -3.3949 -0.7953 0.1772 0
M  V30 22 C -4.3377 0.9468 -1.1368 0
M  V30 23 C -1.2021 2.8276 -3.8541 0
M  V30 24 C -4.4898 -0.1654 1.0341 0
M  V30 25 C -5.1124 0.9383 0.1797 0
M  V30 26 H 4.73 -4.61 2.1491 0
M  V30 27 H 1.7933 -3.4947 0.8668 0
M  V30 28 H 1.2335 -2.1954 2.9807 0
M  V30 29 H 0.5173 -1.6431 1.4823 0
M  V30 30 H 2.1846 -1.8018 -0.7713 0
M  V30 31 H 3.7496 -2.5458 -0.493 0
M  V30 32 H 2.8727 -0.426 2.9853 0
M  V30 33 H 1.2982 0.2802 2.8079 0
M  V30 34 H 4.4313 -0.7187 0.9957 0
M  V30 35 H 4.0133 -0.1272 -0.5848 0
M  V30 36 H -0.2601 0.5844 1.3388 0
M  V30 37 H 2.828 1.3747 -1.5948 0
M  V30 38 H 1.1517 2.102 -3.1573 0
M  V30 39 H -2.513 -0.1139 -1.6922 0
M  V30 40 H -3.8052 -1.6525 -0.3695 0
M  V30 41 H -2.5609 -1.1425 0.7948 0
M  V30 42 H -4.8695 0.3372 -1.8769 0
M  V30 43 H -4.2398 1.9636 -1.5292 0
M  V30 44 H -0.5793 3.7069 -3.658 0
M  V30 45 H -2.1256 3.1734 -4.3286 0
M  V30 46 H -0.7093 2.1396 -4.5485 0
M  V30 47 H -4.0596 0.2684 1.9444 0
M  V30 48 H -5.231 -0.9087 1.3447 0
M  V30 49 H -6.1802 0.7669 0.0091 0
M  V30 50 H -5.0136 1.9038 0.6895 0
M  V30 END ATOM
M  V30 BEGIN BOND
M  V30 1 2 1 2
M  V30 2 1 2 3
M  V30 3 1 2 4
M  V30 4 1 4 5
M  V30 5 1 4 6
M  V30 6 1 5 7
M  V30 7 1 6 8
M  V30 8 1 7 9
M  V30 9 1 9 10
M  V30 10 1 9 11
M  V30 11 3 10 12
M  V30 12 2 11 13
M  V30 13 1 11 14
M  V30 14 1 13 15
M  V30 15 2 14 16
M  V30 16 1 15 17
M  V30 17 2 15 18
M  V30 18 1 17 19
M  V30 19 1 18 20
M  V30 20 1 19 21
M  V30 21 1 19 22
M  V30 22 1 20 23
M  V30 23 1 21 24
M  V30 24 1 22 25
M  V30 25 1 8 9
M  V30 26 1 16 18
M  V30 27 1 24 25
M  V30 28 1 3 26
M  V30 29 1 4 27
M  V30 30 1 5 28
M  V30 31 1 5 29
M  V30 32 1 6 30
M  V30 33 1 6 31
M  V30 34 1 7 32
M  V30 35 1 7 33
M  V30 36 1 8 34
M  V30 37 1 8 35
M  V30 38 1 13 36
M  V30 39 1 14 37
M  V30 40 1 16 38
M  V30 41 1 19 39
M  V30 42 1 21 40
M  V30 43 1 21 41
M  V30 44 1 22 42
M  V30 45 1 22 43
M  V30 46 1 23 44
M  V30 47 1 23 45
M  V30 48 1 23 46
M  V30 49 1 24 47
M  V30 50 1 24 48
M  V30 51 1 25 49
M  V30 52 1 25 50
M  V30 END BOND
M  V30 END CTAB
M  END
>  <Column 1>
3868

>  <level_0>
7403

>  <index>
7404

>  <Unnamed: 0>
7404

>  <NO.>
7417

>  <Name>
cilomilast

>  <IUPAC_name>
4-cyano-4-(3-cyclopentyloxy-4-methoxyphenyl)cyclohexane-1-carboxylic acid

>  <SMILES>
COc1ccc(C2(C#N)CCC(C(=O)O)CC2)cc1OC1CCCC1

>  <CID>
151170

>  <logBB>


>  <BBB+/BBB->
BBB+

>  <Inchi>
InChI=1S/C20H25NO4/c1-24-17-7-6-15(12-18(17)25-16-4-2-3-5-16)20(13-21)10-8-14(9-11-20)19(22)23/h6-7-12-14-16H-2-5-8-11H2-1H3-(H-22-23)

>  <threshold>


>  <reference>
R27|

>  <group>
C

>  <Class>
1

>  <ABC>
19.17

>  <ABCGG>
15.97

>  <nAcid>
1

>  <nBase>
0

>  <nAromAtom>
6

>  <nAromBond>
6

>  <nAtom>
50

>  <nHeavyAtom>
25

>  <nSpiro>
0

>  <nBridgehead>
0

>  <nHetero>
5

>  <nN>
1

>  <nO>
4

>  <nF>
0

>  <BalabanJ>
1.64

>  <BertzCT>
664.76

>  <nBonds>
52

>  <nBondsO>
27

>  <nBondsS>
44

>  <nBondsD>
1

>  <nBondsT>
1

>  <nBondsA>
6

>  <nBondsM>
8

>  <nBondsKS>
47

>  <nBondsKD>
4

>  <RNCG>
0.22

>  <RPCG>
0.13

>  <FCSP3>
0.6

>  <SZ>
30.67

>  <Sm>
28.59

>  <Sv>
30.39

>  <Sse>
50.08

>  <Sp>
32.56

>  <Si>
56.32

>  <MZ>
0.61

>  <Mm>
0.57

>  <Mv>
0.61

>  <Mse>
1

>  <Mp>
0.65

>  <Mi>
1.13

>  <NsCH3>
1

>  <NdCH2>
0

>  <NssCH2>
8

>  <NtCH>
0

>  <NdsCH>
0

>  <NaaCH>
3

>  <NsssCH>
2

>  <NddC>
0

>  <NtsC>
1

>  <NdssC>
1

>  <NaasC>
3

>  <NaaaC>
0

>  <NssssC>
1

>  <NsNH3>
0

>  <NsNH2>
0

>  <NssNH2>
0

>  <NdNH>
0

>  <NssNH>
0

>  <NaaNH>
0

>  <NtN>
1

>  <NsssNH>
0

>  <NdsN>
0

>  <NaaN>
0

>  <NsssN>
0

>  <NddsN>
0

>  <NaasN>
0

>  <NssssN>
0

>  <NsOH>
1

>  <NdO>
1

>  <NssO>
2

>  <NaaO>
0

>  <NsF>
0

>  <NsSiH3>
0

>  <NssSiH2>
0

>  <NsssSiH>
0

>  <NssssSi>
0

>  <NsPH2>
0

>  <NssPH>
0

>  <NsssP>
0

>  <NdsssP>
0

>  <NsssssP>
0

>  <NsSH>
0

>  <NdS>
0

>  <NssS>
0

>  <NaaS>
0

>  <NdssS>
0

>  <NddssS>
0

>  <NsCl>
0

>  <NsBr>
0

>  <NsI>
0

>  <fragCpx>
129.05

>  <fMF>
0.36

>  <nHBAcc>
4

>  <nHBDon>
1

>  <Kier1>
19.75

>  <Kier2>
8.79

>  <Lipinski>
1

>  <GhoseFilter>
1

>  <FilterItLogS>
-3.82

>  <VMcGowan>
267.74

>  <LabuteASA>
148.1

>  <PEOE_VSA1>
14.58

>  <PEOE_VSA2>
4.79

>  <PEOE_VSA3>
0

>  <PEOE_VSA4>
5.26

>  <PEOE_VSA5>
0

>  <PEOE_VSA6>
6.07

>  <PEOE_VSA7>
69.06

>  <PEOE_VSA8>
0

>  <PEOE_VSA9>
30.62

>  <PEOE_VSA10>
0

>  <PEOE_VSA11>
11.5

>  <PEOE_VSA12>
0

>  <PEOE_VSA13>
0

>  <SMR_VSA1>
19.37

>  <SMR_VSA2>
5.26

>  <SMR_VSA3>
0

>  <SMR_VSA4>
5.92

>  <SMR_VSA5>
62.89

>  <SMR_VSA6>
7.11

>  <SMR_VSA7>
23.76

>  <SMR_VSA8>
0

>  <SMR_VSA9>
17.57

>  <SlogP_VSA1>
9.47

>  <SlogP_VSA2>
24.29

>  <SlogP_VSA3>
10.21

>  <SlogP_VSA4>
17.25

>  <SlogP_VSA5>
56.93

>  <SlogP_VSA6>
18.2

>  <SlogP_VSA7>
0

>  <SlogP_VSA8>
0

>  <SlogP_VSA9>
0

>  <SlogP_VSA10>
0

>  <SlogP_VSA11>
11.5

>  <EState_VSA1>
11.38

>  <EState_VSA2>
12.02

>  <EState_VSA3>
37.18

>  <EState_VSA4>
18.41

>  <EState_VSA5>
12.84

>  <EState_VSA6>
7.11

>  <EState_VSA7>
18.2

>  <EState_VSA8>
6.07

>  <EState_VSA9>
9.47

>  <EState_VSA10>
15.16

>  <VSA_EState1>
11.58

>  <VSA_EState2>
11.2

>  <VSA_EState3>
19.06

>  <VSA_EState4>
0.28

>  <VSA_EState5>
0.28

>  <VSA_EState6>
8.18

>  <VSA_EState7>
6.89

>  <VSA_EState8>
0

>  <VSA_EState9>
1.62

>  <apol>
54.38

>  <bpol>
29.99

>  <nRing>
3

>  <nHRing>
0

>  <naRing>
1

>  <naHRing>
0

>  <nARing 2>
2

>  <nAHRing 2>
0

>  <nFRing>
0

>  <nFHRing>
0

>  <nFaRing>
0

>  <nFaHRing>
0

>  <nFARing 2>
0

>  <nFAHRing 2>
0

>  <nRot>
5

>  <SLogP>
4.05

>  <SMR>
92.76

>  <TopoPSA(NO)>
79.55

>  <TopoPSA>
79.55

>  <JGI1>
0.22

>  <JGI2>
0.09

>  <JGI3>
0.04

>  <JGI4>
0.04

>  <JGI5>
0.03

>  <Diameter>
12

>  <Radius>
6

>  <TMWC10>
127.56

>  <TSRW10>
72.98

>  <MW>
343.18

>  <AMW>
6.86

>  <WPath>
1507

>  <WPol>
40

>  <Zagreb1>
130

>  <Zagreb2>
154

>  <mZagreb2>
5.68

>  <yes>


>  <nAR-cont>
1

>  <nHA-cont>
0.921834225

>  <MWHBN>
0.269903813

>  <MWHBN-cont>
0.920329724

>  <TPSA-cont>
0.444691602

>  <pka_cont>
0.97

>  <yes.1>


>  <BBB_SCORE>
4.676712016

>  <MMFF94 Energy>
58.866

$$$$
Compound 3010
Actelion Java MolfileCreator 2.0

  0  0  0  0  0  0              0 V3000
M  V30 BEGIN CTAB
M  V30 COUNTS 38 39 0 0 0
M  V30 BEGIN ATOM
M  V30 1 S -1.625 3.252 -0.0812 0
M  V30 2 C -0.6866 2.1204 0.7551 0
M  V30 3 N -0.9191 1.7031 2.0807 0
M  V30 4 C 0.4747 1.5136 0.0412 0
M  V30 5 C -2.1146 2.1345 2.8363 0
M  V30 6 C -0.1081 0.686 2.7541 0
M  V30 7 C 0.3834 0.2452 -0.5888 0
M  V30 8 C 1.6608 2.2547 0.0291 0
M  V30 9 C -3.3273 1.2579 2.5457 0
M  V30 10 C 1.5326 -0.2735 -1.2423 0
M  V30 11 C -0.802 -0.5266 -0.5903 0
M  V30 12 C 2.7806 1.7455 -0.6135 0
M  V30 13 O -3.3327 0.116 2.1118 0
M  V30 14 O -4.4873 1.8548 2.8946 0
M  V30 15 C 2.7362 0.491 -1.2508 0
M  V30 16 C 1.425 -1.5431 -1.8607 0
M  V30 17 C -0.8731 -1.7764 -1.2095 0
M  V30 18 C 3.9912 -0.0124 -1.9346 0
M  V30 19 C 0.2427 -2.2906 -1.8492 0
M  V30 20 F 3.8187 -0.2337 -3.267 0
M  V30 21 F 5.0428 0.8527 -1.8435 0
M  V30 22 F 4.4434 -1.1852 -1.4094 0
M  V30 23 O 0.3199 -3.4941 -2.493 0
M  V30 24 C -0.8652 -4.2797 -2.5326 0
M  V30 25 H -2.3591 3.1706 2.5876 0
M  V30 26 H -1.8998 2.0899 3.9093 0
M  V30 27 H 0.0817 1.0057 3.7833 0
M  V30 28 H -0.663 -0.2562 2.7628 0
M  V30 29 H 0.8572 0.5238 2.274 0
M  V30 30 H 1.7101 3.2262 0.5163 0
M  V30 31 H -1.7036 -0.1618 -0.0986 0
M  V30 32 H 3.697 2.3355 -0.6192 0
M  V30 33 H -5.1751 1.1996 2.6522 0
M  V30 34 H 2.2763 -1.9863 -2.376 0
M  V30 35 H -1.8155 -2.3125 -1.1679 0
M  V30 36 H -1.1792 -4.5706 -1.5246 0
M  V30 37 H -0.6409 -5.1951 -3.0885 0
M  V30 38 H -1.6686 -3.7566 -3.0621 0
M  V30 END ATOM
M  V30 BEGIN BOND
M  V30 1 2 1 2
M  V30 2 1 2 3
M  V30 3 1 2 4
M  V30 4 1 3 5
M  V30 5 1 3 6
M  V30 6 1 4 7
M  V30 7 2 4 8
M  V30 8 1 5 9
M  V30 9 1 7 10
M  V30 10 2 7 11
M  V30 11 1 8 12
M  V30 12 2 9 13
M  V30 13 1 9 14
M  V30 14 1 10 15
M  V30 15 2 10 16
M  V30 16 1 11 17
M  V30 17 1 15 18
M  V30 18 1 16 19
M  V30 19 1 18 20
M  V30 20 1 18 21
M  V30 21 1 18 22
M  V30 22 1 19 23
M  V30 23 1 23 24
M  V30 24 2 12 15
M  V30 25 2 17 19
M  V30 26 1 5 25
M  V30 27 1 5 26
M  V30 28 1 6 27
M  V30 29 1 6 28
M  V30 30 1 6 29
M  V30 31 1 8 30
M  V30 32 1 11 31
M  V30 33 1 12 32
M  V30 34 1 14 33
M  V30 35 1 16 34
M  V30 36 1 17 35
M  V30 37 1 24 36
M  V30 38 1 24 37
M  V30 39 1 24 38
M  V30 END BOND
M  V30 END CTAB
M  END
>  <Column 1>
3871

>  <level_0>
7409

>  <index>
7410

>  <Unnamed: 0>
7410

>  <NO.>
7423

>  <Name>


>  <IUPAC_name>


>  <SMILES>
COc1ccc2c(C(=S)N(C)CC(=O)O)ccc(C(F)(F)F)c2c1

>  <CID>


>  <logBB>


>  <BBB+/BBB->
BBB+

>  <Inchi>
InChI=1S/C16H14F3NO3S/c1-20(8-14(21)22)15(24)11-5-6-13(16(17-18)19)12-7-9(23-2)3-4-10(11)12/h3-7H-8H2-1-2H3-(H-21-22)

>  <threshold>


>  <reference>
R27|

>  <group>
C

>  <Class>
1

>  <ABC>
18.33

>  <ABCGG>
15.78

>  <nAcid>
1

>  <nBase>
0

>  <nAromAtom>
10

>  <nAromBond>
11

>  <nAtom>
38

>  <nHeavyAtom>
24

>  <nSpiro>
0

>  <nBridgehead>
0

>  <nHetero>
8

>  <nN>
1

>  <nO>
3

>  <nF>
3

>  <BalabanJ>
2.16

>  <BertzCT>
804.99

>  <nBonds>
39

>  <nBondsO>
25

>  <nBondsS>
26

>  <nBondsD>
2

>  <nBondsT>
0

>  <nBondsA>
11

>  <nBondsM>
13

>  <nBondsKS>
32

>  <nBondsKD>
7

>  <RNCG>
0.21

>  <RPCG>
0.18

>  <FCSP3>
0.25

>  <SZ>
30.67

>  <Sm>
29.75

>  <Sv>
25.82

>  <Sse>
39.82

>  <Sp>
26.43

>  <Si>
43.39

>  <MZ>
0.81

>  <Mm>
0.78

>  <Mv>
0.68

>  <Mse>
1.05

>  <Mp>
0.7

>  <Mi>
1.14

>  <NsCH3>
2

>  <NdCH2>
0

>  <NssCH2>
1

>  <NtCH>
0

>  <NdsCH>
0

>  <NaaCH>
5

>  <NsssCH>
0

>  <NddC>
0

>  <NtsC>
0

>  <NdssC>
2

>  <NaasC>
3

>  <NaaaC>
2

>  <NssssC>
1

>  <NsNH3>
0

>  <NsNH2>
0

>  <NssNH2>
0

>  <NdNH>
0

>  <NssNH>
0

>  <NaaNH>
0

>  <NtN>
0

>  <NsssNH>
0

>  <NdsN>
0

>  <NaaN>
0

>  <NsssN>
1

>  <NddsN>
0

>  <NaasN>
0

>  <NssssN>
0

>  <NsOH>
1

>  <NdO>
1

>  <NssO>
1

>  <NaaO>
0

>  <NsF>
3

>  <NsSiH3>
0

>  <NssSiH2>
0

>  <NsssSiH>
0

>  <NssssSi>
0

>  <NsPH2>
0

>  <NssPH>
0

>  <NsssP>
0

>  <NdsssP>
0

>  <NsssssP>
0

>  <NsSH>
0

>  <NdS>
1

>  <NssS>
0

>  <NaaS>
0

>  <NdssS>
0

>  <NddssS>
0

>  <NsCl>
0

>  <NsBr>
0

>  <NsI>
0

>  <fragCpx>
73.08

>  <fMF>
0.26

>  <nHBAcc>
3

>  <nHBDon>
1

>  <Kier1>
20.31

>  <Kier2>
8.13

>  <Lipinski>
1

>  <GhoseFilter>
1

>  <FilterItLogS>
-3.94

>  <VMcGowan>
233.7

>  <LabuteASA>
140.99

>  <PEOE_VSA1>
14.74

>  <PEOE_VSA2>
4.79

>  <PEOE_VSA3>
0

>  <PEOE_VSA4>
13.17

>  <PEOE_VSA5>
0

>  <PEOE_VSA6>
18.28

>  <PEOE_VSA7>
35.04

>  <PEOE_VSA8>
12.61

>  <PEOE_VSA9>
12.67

>  <PEOE_VSA10>
17.28

>  <PEOE_VSA11>
0

>  <PEOE_VSA12>
0

>  <PEOE_VSA13>
0

>  <SMR_VSA1>
27.81

>  <SMR_VSA2>
0

>  <SMR_VSA3>
4.9

>  <SMR_VSA4>
0

>  <SMR_VSA5>
6.18

>  <SMR_VSA6>
20.7

>  <SMR_VSA7>
41.46

>  <SMR_VSA8>
0

>  <SMR_VSA9>
5.75

>  <SlogP_VSA1>
4.74

>  <SlogP_VSA2>
41.67

>  <SlogP_VSA3>
10.97

>  <SlogP_VSA4>
0

>  <SlogP_VSA5>
11.13

>  <SlogP_VSA6>
30.33

>  <SlogP_VSA7>
0

>  <SlogP_VSA8>
10.77

>  <SlogP_VSA9>
0

>  <SlogP_VSA10>
13.17

>  <SlogP_VSA11>
5.75

>  <EState_VSA1>
17.71

>  <EState_VSA2>
28.06

>  <EState_VSA3>
5.56

>  <EState_VSA4>
6.07

>  <EState_VSA5>
43.32

>  <EState_VSA6>
0

>  <EState_VSA7>
0

>  <EState_VSA8>
0

>  <EState_VSA9>
22.06

>  <EState_VSA10>
17.97

>  <VSA_EState1>
44.77

>  <VSA_EState2>
12.26

>  <VSA_EState3>
9.08

>  <VSA_EState4>
-0.44

>  <VSA_EState5>
-0.8

>  <VSA_EState6>
6.52

>  <VSA_EState7>
-4.53

>  <VSA_EState8>
-0.35

>  <VSA_EState9>
2.84

>  <apol>
44.13

>  <bpol>
22.93

>  <nRing>
2

>  <nHRing>
0

>  <naRing>
2

>  <naHRing>
0

>  <nARing 2>
0

>  <nAHRing 2>
0

>  <nFRing>
1

>  <nFHRing>
0

>  <nFaRing>
1

>  <nFaHRing>
0

>  <nFARing 2>
0

>  <nFAHRing 2>
0

>  <nRot>
4

>  <SLogP>
3.56

>  <SMR>
87.47

>  <TopoPSA(NO)>
49.77

>  <TopoPSA>
81.86

>  <JGI1>
0.28

>  <JGI2>
0.1

>  <JGI3>
0.06

>  <JGI4>
0.05

>  <JGI5>
0.04

>  <Diameter>
11

>  <Radius>
6

>  <TMWC10>
124.46

>  <TSRW10>
58.75

>  <MW>
357.06

>  <AMW>
9.4

>  <WPath>
1282

>  <WPol>
40

>  <Zagreb1>
124

>  <Zagreb2>
145

>  <mZagreb2>
5.22

>  <yes>


>  <nAR-cont>
0.336376

>  <nHA-cont>
0.94700071

>  <MWHBN>
0.211684662

>  <MWHBN-cont>
0.998861586

>  <TPSA-cont>
0.428566368

>  <pka_cont>
0.97

>  <yes.1>


>  <BBB_SCORE>
4.123801824

>  <MMFF94 Energy>
89.236

$$$$
Compound 3011
Actelion Java MolfileCreator 2.0

  0  0  0  0  0  0              0 V3000
M  V30 BEGIN CTAB
M  V30 COUNTS 38 40 0 0 0
M  V30 BEGIN ATOM
M  V30 1 O -0.719 1.6782 2.6382 0
M  V30 2 C -1.0531 0.6653 2.0264 0
M  V30 3 N -0.4248 0.3812 0.7871 0
M  V30 4 C -2.0865 -0.192 2.6527 0
M  V30 5 C 0.4188 1.2241 0.0567 0
M  V30 6 C -0.5245 -0.8146 0.0923 0
M  V30 7 C -1.9508 -0.5324 4.003 0
M  V30 8 C -3.2101 -0.6102 1.9302 0
M  V30 9 C 0.8236 0.5392 -1.0944 0
M  V30 10 C 0.8521 2.5394 0.304 0
M  V30 11 C 0.2227 -0.7539 -1.0651 0
M  V30 12 C -2.9198 -1.3247 4.6191 0
M  V30 13 C -4.1764 -1.4022 2.5523 0
M  V30 14 C 1.6895 1.1822 -2.0123 0
M  V30 15 C 1.7043 3.1503 -0.6215 0
M  V30 16 C 0.375 -1.8388 -2.0848 0
M  V30 17 C -4.0279 -1.7624 3.8927 0
M  V30 18 C 2.1267 2.4875 -1.7691 0
M  V30 19 C 1.6283 -2.6588 -1.8887 0
M  V30 20 O 2.9591 3.2169 -2.575 0
M  V30 21 O 2.3305 -2.746 -0.8958 0
M  V30 22 O 1.9241 -3.3939 -2.9841 0
M  V30 23 C 3.4632 2.5689 -3.7353 0
M  V30 24 H -1.0984 -1.6391 0.4933 0
M  V30 25 H -1.0949 -0.1797 4.5749 0
M  V30 26 H -3.3516 -0.3138 0.8939 0
M  V30 27 H 0.5434 3.0849 1.1917 0
M  V30 28 H -2.8148 -1.5941 5.6674 0
M  V30 29 H -5.0516 -1.7311 1.9969 0
M  V30 30 H 1.9989 0.6381 -2.8962 0
M  V30 31 H 2.045 4.1665 -0.4337 0
M  V30 32 H -0.4829 -2.5194 -2.0415 0
M  V30 33 H 0.402 -1.3909 -3.0849 0
M  V30 34 H -4.7846 -2.3758 4.3769 0
M  V30 35 H 2.7324 -3.8835 -2.7203 0
M  V30 36 H 4.0568 1.6877 -3.4703 0
M  V30 37 H 4.1243 3.2725 -4.2505 0
M  V30 38 H 2.6531 2.3083 -4.4245 0
M  V30 END ATOM
M  V30 BEGIN BOND
M  V30 1 2 1 2
M  V30 2 1 2 3
M  V30 3 1 2 4
M  V30 4 1 3 5
M  V30 5 1 3 6
M  V30 6 2 4 7
M  V30 7 1 4 8
M  V30 8 2 5 9
M  V30 9 1 5 10
M  V30 10 2 6 11
M  V30 11 1 7 12
M  V30 12 2 8 13
M  V30 13 1 9 14
M  V30 14 2 10 15
M  V30 15 1 11 16
M  V30 16 2 12 17
M  V30 17 2 14 18
M  V30 18 1 16 19
M  V30 19 1 18 20
M  V30 20 2 19 21
M  V30 21 1 19 22
M  V30 22 1 20 23
M  V30 23 1 9 11
M  V30 24 1 13 17
M  V30 25 1 15 18
M  V30 26 1 6 24
M  V30 27 1 7 25
M  V30 28 1 8 26
M  V30 29 1 10 27
M  V30 30 1 12 28
M  V30 31 1 13 29
M  V30 32 1 14 30
M  V30 33 1 15 31
M  V30 34 1 16 32
M  V30 35 1 16 33
M  V30 36 1 17 34
M  V30 37 1 22 35
M  V30 38 1 23 36
M  V30 39 1 23 37
M  V30 40 1 23 38
M  V30 END BOND
M  V30 END CTAB
M  END
>  <Column 1>
3872

>  <level_0>
7412

>  <index>
7413

>  <Unnamed: 0>
7413

>  <NO.>
7426

>  <Name>
schembl18133072

>  <IUPAC_name>
2-(1-benzoyl-5-methoxyindol-3-yl)acetic acid

>  <SMILES>
COc1ccc2c(c1)c(CC(=O)O)cn2C(=O)c1ccccc1

>  <CID>
122605744

>  <logBB>


>  <BBB+/BBB->
BBB+

>  <Inchi>
InChI=1S/C18H15NO4/c1-23-14-7-8-16-15(10-14)13(9-17(20)21)11-19(16)18(22)12-5-3-2-4-6-12/h2-8-10-11H-9H2-1H3-(H-20-21)

>  <threshold>


>  <reference>
R27|

>  <group>
C

>  <Class>
1

>  <ABC>
17.8

>  <ABCGG>
14.75

>  <nAcid>
1

>  <nBase>
0

>  <nAromAtom>
15

>  <nAromBond>
16

>  <nAtom>
38

>  <nHeavyAtom>
23

>  <nSpiro>
0

>  <nBridgehead>
0

>  <nHetero>
5

>  <nN>
1

>  <nO>
4

>  <nF>
0

>  <BalabanJ>
1.7

>  <BertzCT>
880.68

>  <nBonds>
40

>  <nBondsO>
25

>  <nBondsS>
22

>  <nBondsD>
2

>  <nBondsT>
0

>  <nBondsA>
16

>  <nBondsM>
18

>  <nBondsKS>
31

>  <nBondsKD>
9

>  <RNCG>
0.23

>  <RPCG>
0.14

>  <FCSP3>
0.11

>  <SZ>
27

>  <Sm>
25.75

>  <Sv>
25.68

>  <Sse>
38.64

>  <Sp>
26.57

>  <Si>
42.24

>  <MZ>
0.71

>  <Mm>
0.68

>  <Mv>
0.68

>  <Mse>
1.02

>  <Mp>
0.7

>  <Mi>
1.11

>  <NsCH3>
1

>  <NdCH2>
0

>  <NssCH2>
1

>  <NtCH>
0

>  <NdsCH>
0

>  <NaaCH>
9

>  <NsssCH>
0

>  <NddC>
0

>  <NtsC>
0

>  <NdssC>
2

>  <NaasC>
3

>  <NaaaC>
2

>  <NssssC>
0

>  <NsNH3>
0

>  <NsNH2>
0

>  <NssNH2>
0

>  <NdNH>
0

>  <NssNH>
0

>  <NaaNH>
0

>  <NtN>
0

>  <NsssNH>
0

>  <NdsN>
0

>  <NaaN>
0

>  <NsssN>
0

>  <NddsN>
0

>  <NaasN>
1

>  <NssssN>
0

>  <NsOH>
1

>  <NdO>
2

>  <NssO>
1

>  <NaaO>
0

>  <NsF>
0

>  <NsSiH3>
0

>  <NssSiH2>
0

>  <NsssSiH>
0

>  <NssssSi>
0

>  <NsPH2>
0

>  <NssPH>
0

>  <NsssP>
0

>  <NdsssP>
0

>  <NsssssP>
0

>  <NsSH>
0

>  <NdS>
0

>  <NssS>
0

>  <NaaS>
0

>  <NdssS>
0

>  <NddssS>
0

>  <NsCl>
0

>  <NsBr>
0

>  <NsI>
0

>  <fragCpx>
119.05

>  <fMF>
0.42

>  <nHBAcc>
4

>  <nHBDon>
1

>  <Kier1>
17.81

>  <Kier2>
7.92

>  <Lipinski>
1

>  <GhoseFilter>
1

>  <FilterItLogS>
-3.45

>  <VMcGowan>
226.66

>  <LabuteASA>
132.28

>  <PEOE_VSA1>
9.84

>  <PEOE_VSA2>
14.16

>  <PEOE_VSA3>
0

>  <PEOE_VSA4>
0

>  <PEOE_VSA5>
0

>  <PEOE_VSA6>
18.2

>  <PEOE_VSA7>
35.9

>  <PEOE_VSA8>
17.15

>  <PEOE_VSA9>
19.05

>  <PEOE_VSA10>
5.75

>  <PEOE_VSA11>
0

>  <PEOE_VSA12>
0

>  <PEOE_VSA13>
5.91

>  <SMR_VSA1>
19.43

>  <SMR_VSA2>
0

>  <SMR_VSA3>
4.57

>  <SMR_VSA4>
0

>  <SMR_VSA5>
6.42

>  <SMR_VSA6>
7.11

>  <SMR_VSA7>
65.85

>  <SMR_VSA8>
0

>  <SMR_VSA9>
5.75

>  <SlogP_VSA1>
4.74

>  <SlogP_VSA2>
28.66

>  <SlogP_VSA3>
11.22

>  <SlogP_VSA4>
0

>  <SlogP_VSA5>
15.92

>  <SlogP_VSA6>
54.73

>  <SlogP_VSA7>
0

>  <SlogP_VSA8>
10.9

>  <SlogP_VSA9>
0

>  <SlogP_VSA10>
0

>  <SlogP_VSA11>
5.75

>  <EState_VSA1>
5.97

>  <EState_VSA2>
12.33

>  <EState_VSA3>
27.78

>  <EState_VSA4>
0

>  <EState_VSA5>
4.57

>  <EState_VSA6>
55.77

>  <EState_VSA7>
6.07

>  <EState_VSA8>
0

>  <EState_VSA9>
9.84

>  <EState_VSA10>
9.59

>  <VSA_EState1>
6.68

>  <VSA_EState2>
23.79

>  <VSA_EState3>
9.8

>  <VSA_EState4>
1.79

>  <VSA_EState5>
-0.52

>  <VSA_EState6>
14.15

>  <VSA_EState7>
1.44

>  <VSA_EState8>
0

>  <VSA_EState9>
1.55

>  <apol>
44.37

>  <bpol>
20.23

>  <nRing>
3

>  <nHRing>
1

>  <naRing>
3

>  <naHRing>
1

>  <nARing 2>
0

>  <nAHRing 2>
0

>  <nFRing>
1

>  <nFHRing>
1

>  <nFaRing>
1

>  <nFaHRing>
1

>  <nFARing 2>
0

>  <nFAHRing 2>
0

>  <nRot>
4

>  <SLogP>
2.97

>  <SMR>
86

>  <TopoPSA(NO)>
68.53

>  <TopoPSA>
68.53

>  <JGI1>
0.18

>  <JGI2>
0.07

>  <JGI3>
0.06

>  <JGI4>
0.04

>  <JGI5>
0.03

>  <Diameter>
11

>  <Radius>
6

>  <TMWC10>
123.16

>  <TSRW10>
71.68

>  <MW>
309.1

>  <AMW>
8.13

>  <WPath>
1155

>  <WPol>
36

>  <Zagreb1>
120

>  <Zagreb2>
142

>  <mZagreb2>
5.14

>  <yes>


>  <nAR-cont>
0.336376

>  <nHA-cont>
0.967789328

>  <MWHBN>
0.284394047

>  <MWHBN-cont>
0.884718777

>  <TPSA-cont>
0.521618045

>  <pka_cont>
0.97

>  <yes.1>


>  <BBB_SCORE>
4.159479584

>  <MMFF94 Energy>
87.986

$$$$
Compound 3012
Actelion Java MolfileCreator 2.0

  0  0  0  0  0  0              0 V3000
M  V30 BEGIN CTAB
M  V30 COUNTS 46 47 0 0 0
M  V30 BEGIN ATOM
M  V30 1 O -1.971 2.9971 -1.7343 0
M  V30 2 C -2.4909 1.9716 -1.2991 0
M  V30 3 C -2.5207 0.7558 -2.1475 0
M  V30 4 C -3.0363 1.8862 0.1111 0
M  V30 5 C -1.3687 0.4326 -2.8776 0
M  V30 6 C -3.6618 -0.0474 -2.2268 0
M  V30 7 C -1.8832 1.8239 1.1106 0
M  V30 8 C -1.346 -0.7175 -3.6647 0
M  V30 9 C -3.6441 -1.1866 -3.0292 0
M  V30 10 N -1.2339 0.5066 1.06 0
M  V30 11 O -0.2859 -1.1609 -4.4062 0
M  V30 12 C -2.4897 -1.5178 -3.7413 0
M  V30 13 C 0.0335 0.4683 1.8412 0 CFG=2
M  V30 14 C 0.9613 -0.5102 -4.1867 0
M  V30 15 C 0.8898 -0.7249 1.3066 0 CFG=1
M  V30 16 C -0.2378 0.3403 3.3419 0
M  V30 17 O 0.9232 -0.654 -0.1274 0
M  V30 18 C 2.312 -0.7329 1.8209 0
M  V30 19 C 2.7126 -1.6746 2.7812 0
M  V30 20 C 3.2514 0.2069 1.369 0
M  V30 21 C 4.017 -1.6714 3.2798 0
M  V30 22 C 4.555 0.2089 1.8677 0
M  V30 23 C 4.9367 -0.7289 2.8244 0
M  V30 24 H -3.7113 1.0357 0.243 0
M  V30 25 H -3.6372 2.7874 0.2823 0
M  V30 26 H -0.5075 1.0904 -2.8057 0
M  V30 27 H -4.5721 0.2105 -1.6937 0
M  V30 28 H -2.2778 2.007 2.1158 0
M  V30 29 H -1.1595 2.6157 0.8831 0
M  V30 30 H -4.5265 -1.8167 -3.107 0
M  V30 31 H -1.8727 -0.2045 1.4217 0
M  V30 32 H -2.4777 -2.4099 -4.364 0
M  V30 33 H 0.5863 1.397 1.649 0
M  V30 34 H 0.9302 0.5246 -4.5427 0
M  V30 35 H 1.7207 -1.0398 -4.7698 0
M  V30 36 H 1.2563 -0.5583 -3.1331 0
M  V30 37 H 0.3971 -1.6742 1.552 0
M  V30 38 H -0.8381 1.1768 3.7136 0
M  V30 39 H 0.696 0.3418 3.9129 0
M  V30 40 H -0.7724 -0.5877 3.5726 0
M  V30 41 H 0.0405 -0.3009 -0.3603 0
M  V30 42 H 2.0108 -2.4206 3.1469 0
M  V30 43 H 2.9687 0.9361 0.612 0
M  V30 44 H 4.3168 -2.4074 4.0212 0
M  V30 45 H 5.2729 0.9391 1.5037 0
M  V30 46 H 5.9529 -0.7294 3.2096 0
M  V30 END ATOM
M  V30 BEGIN BOND
M  V30 1 2 1 2
M  V30 2 1 2 3
M  V30 3 1 2 4
M  V30 4 2 3 5
M  V30 5 1 3 6
M  V30 6 1 4 7
M  V30 7 1 5 8
M  V30 8 2 6 9
M  V30 9 1 7 10
M  V30 10 1 8 11
M  V30 11 2 8 12
M  V30 12 1 10 13
M  V30 13 1 11 14
M  V30 14 1 13 15
M  V30 15 1 13 16
M  V30 16 1 15 17
M  V30 17 1 15 18
M  V30 18 2 18 19
M  V30 19 1 18 20
M  V30 20 1 19 21
M  V30 21 2 20 22
M  V30 22 2 21 23
M  V30 23 1 9 12
M  V30 24 1 22 23
M  V30 25 1 4 24
M  V30 26 1 4 25
M  V30 27 1 5 26
M  V30 28 1 6 27
M  V30 29 1 7 28
M  V30 30 1 7 29
M  V30 31 1 9 30
M  V30 32 1 10 31
M  V30 33 1 12 32
M  V30 34 1 13 33
M  V30 35 1 14 34
M  V30 36 1 14 35
M  V30 37 1 14 36
M  V30 38 1 15 37
M  V30 39 1 16 38
M  V30 40 1 16 39
M  V30 41 1 16 40
M  V30 42 1 17 41
M  V30 43 1 19 42
M  V30 44 1 20 43
M  V30 45 1 21 44
M  V30 46 1 22 45
M  V30 47 1 23 46
M  V30 END BOND
M  V30 BEGIN COLLECTION
M  V30 MDLV30/STEABS ATOMS=(2 13 15)
M  V30 END COLLECTION
M  V30 END CTAB
M  END
>  <Column 1>
3873

>  <level_0>
7427

>  <index>
7428

>  <Unnamed: 0>
7428

>  <NO.>
7441

>  <Name>
3-[[(1s-2s)-1-hydroxy-1-phenylpropan-2-yl]amino]-1-(3-methoxyphenyl)propan-1-one

>  <IUPAC_name>
3-[[(1s-2s)-1-hydroxy-1-phenylpropan-2-yl]amino]-1-(3-methoxyphenyl)propan-1-one

>  <SMILES>
COc1cccc(C(=O)CCN[C@@H](C)[C@@H](O)c2ccccc2)c1

>  <CID>
203365

>  <logBB>


>  <BBB+/BBB->
BBB+

>  <Inchi>
InChI=1S/C19H23NO3/c1-14(19(22)15-7-4-3-5-8-15)20-12-11-18(21)16-9-6-10-17(13-16)23-2/h3-10-13-14-19-20-22H-11-12H2-1-2H3/t14--19+/m0/s1

>  <threshold>


>  <reference>
R27|

>  <group>
C

>  <Class>
1

>  <ABC>
17.18

>  <ABCGG>
14.17

>  <nAcid>
0

>  <nBase>
1

>  <nAromAtom>
12

>  <nAromBond>
12

>  <nAtom>
46

>  <nHeavyAtom>
23

>  <nSpiro>
0

>  <nBridgehead>
0

>  <nHetero>
4

>  <nN>
1

>  <nO>
3

>  <nF>
0

>  <BalabanJ>
1.65

>  <BertzCT>
627.52

>  <nBonds>
47

>  <nBondsO>
24

>  <nBondsS>
34

>  <nBondsD>
1

>  <nBondsT>
0

>  <nBondsA>
12

>  <nBondsM>
13

>  <nBondsKS>
40

>  <nBondsKD>
7

>  <RNCG>
0.25

>  <RPCG>
0.11

>  <FCSP3>
0.32

>  <SZ>
28

>  <Sm>
26.09

>  <Sv>
28.13

>  <Sse>
45.87

>  <Sp>
30.28

>  <Si>
51.69

>  <MZ>
0.61

>  <Mm>
0.57

>  <Mv>
0.61

>  <Mse>
1

>  <Mp>
0.66

>  <Mi>
1.12

>  <NsCH3>
2

>  <NdCH2>
0

>  <NssCH2>
2

>  <NtCH>
0

>  <NdsCH>
0

>  <NaaCH>
9

>  <NsssCH>
2

>  <NddC>
0

>  <NtsC>
0

>  <NdssC>
1

>  <NaasC>
3

>  <NaaaC>
0

>  <NssssC>
0

>  <NsNH3>
0

>  <NsNH2>
0

>  <NssNH2>
0

>  <NdNH>
0

>  <NssNH>
1

>  <NaaNH>
0

>  <NtN>
0

>  <NsssNH>
0

>  <NdsN>
0

>  <NaaN>
0

>  <NsssN>
0

>  <NddsN>
0

>  <NaasN>
0

>  <NssssN>
0

>  <NsOH>
1

>  <NdO>
1

>  <NssO>
1

>  <NaaO>
0

>  <NsF>
0

>  <NsSiH3>
0

>  <NssSiH2>
0

>  <NsssSiH>
0

>  <NssssSi>
0

>  <NsPH2>
0

>  <NssPH>
0

>  <NsssP>
0

>  <NdsssP>
0

>  <NsssssP>
0

>  <NsSH>
0

>  <NdS>
0

>  <NssS>
0

>  <NaaS>
0

>  <NdssS>
0

>  <NddssS>
0

>  <NsCl>
0

>  <NsBr>
0

>  <NsI>
0

>  <fragCpx>
70.04

>  <fMF>
0.39

>  <nHBAcc>
4

>  <nHBDon>
2

>  <Kier1>
19.33

>  <Kier2>
10.1

>  <Lipinski>
1

>  <GhoseFilter>
1

>  <FilterItLogS>
-4.38

>  <VMcGowan>
254.34

>  <LabuteASA>
136.66

>  <PEOE_VSA1>
15.16

>  <PEOE_VSA2>
4.79

>  <PEOE_VSA3>
0

>  <PEOE_VSA4>
0

>  <PEOE_VSA5>
0

>  <PEOE_VSA6>
42.46

>  <PEOE_VSA7>
24.62

>  <PEOE_VSA8>
24.57

>  <PEOE_VSA9>
13.21

>  <PEOE_VSA10>
5.75

>  <PEOE_VSA11>
5.78

>  <PEOE_VSA12>
0

>  <PEOE_VSA13>
0

>  <SMR_VSA1>
14.64

>  <SMR_VSA2>
0

>  <SMR_VSA3>
5.32

>  <SMR_VSA4>
0

>  <SMR_VSA5>
25.49

>  <SMR_VSA6>
13.65

>  <SMR_VSA7>
65.72

>  <SMR_VSA8>
0

>  <SMR_VSA9>
5.75

>  <SlogP_VSA1>
10.05

>  <SlogP_VSA2>
30.59

>  <SlogP_VSA3>
0

>  <SlogP_VSA4>
0

>  <SlogP_VSA5>
35.37

>  <SlogP_VSA6>
54.6

>  <SlogP_VSA7>
0

>  <SlogP_VSA8>
0

>  <SlogP_VSA9>
0

>  <SlogP_VSA10>
0

>  <SlogP_VSA11>
5.75

>  <EState_VSA1>
6.1

>  <EState_VSA2>
11.83

>  <EState_VSA3>
24.28

>  <EState_VSA4>
5.56

>  <EState_VSA5>
0

>  <EState_VSA6>
25.31

>  <EState_VSA7>
43.32

>  <EState_VSA8>
5.32

>  <EState_VSA9>
4.74

>  <EState_VSA10>
9.9

>  <VSA_EState1>
5.13

>  <VSA_EState2>
12.18

>  <VSA_EState3>
13.48

>  <VSA_EState4>
1.51

>  <VSA_EState5>
0.73

>  <VSA_EState6>
16.52

>  <VSA_EState7>
-0.22

>  <VSA_EState8>
2.43

>  <VSA_EState9>
1.58

>  <apol>
50.57

>  <bpol>
26.25

>  <nRing>
2

>  <nHRing>
0

>  <naRing>
2

>  <naHRing>
0

>  <nARing 2>
0

>  <nAHRing 2>
0

>  <nFRing>
0

>  <nFHRing>
0

>  <nFaRing>
0

>  <nFaHRing>
0

>  <nFARing 2>
0

>  <nFAHRing 2>
0

>  <nRot>
8

>  <SLogP>
2.98

>  <SMR>
90.81

>  <TopoPSA(NO)>
58.56

>  <TopoPSA>
58.56

>  <JGI1>
0.17

>  <JGI2>
0.09

>  <JGI3>
0.05

>  <JGI4>
0.03

>  <JGI5>
0.02

>  <Diameter>
14

>  <Radius>
7

>  <TMWC10>
119

>  <TSRW10>
56.55

>  <MW>
313.17

>  <AMW>
6.81

>  <WPath>
1416

>  <WPol>
32

>  <Zagreb1>
110

>  <Zagreb2>
124

>  <mZagreb2>
5.33

>  <yes>


>  <nAR-cont>
0.336376

>  <nHA-cont>
0.967789328

>  <MWHBN>
0.33904799

>  <MWHBN-cont>
0.710586205

>  <TPSA-cont>
0.591214836

>  <pka_cont>
0.97

>  <yes.1>


>  <BBB_SCORE>
4.037474309

>  <MMFF94 Energy>
88.89

$$$$
Compound 3013
Actelion Java MolfileCreator 2.0

  0  0  0  0  0  0              0 V3000
M  V30 BEGIN CTAB
M  V30 COUNTS 27 27 0 0 0
M  V30 BEGIN ATOM
M  V30 1 O -1.784 -0.5427 2.7158 0
M  V30 2 C -1.5818 -0.3844 1.3722 0
M  V30 3 C -0.6703 -0.9718 3.4883 0
M  V30 4 C -0.3908 -0.6306 0.6852 0
M  V30 5 C -2.6981 0.0652 0.6646 0
M  V30 6 C -0.3072 -0.4236 -0.7028 0
M  V30 7 C -2.6312 0.2685 -0.713 0
M  V30 8 C -1.4406 0.0242 -1.3944 0
M  V30 9 C 0.9879 -0.6818 -1.441 0
M  V30 10 C 1.9683 0.5115 -1.5344 0 CFG=1
M  V30 11 N 1.3962 1.681 -2.2109 0
M  V30 12 C 2.5175 0.9409 -0.1744 0
M  V30 13 H -0.3392 -1.9697 3.1823 0
M  V30 14 H -0.9919 -1.0339 4.5325 0
M  V30 15 H 0.15 -0.2484 3.4353 0
M  V30 16 H 0.4914 -0.9845 1.2086 0
M  V30 17 H -3.6287 0.2571 1.1932 0
M  V30 18 H -3.5083 0.6155 -1.2526 0
M  V30 19 H -1.4042 0.1829 -2.4697 0
M  V30 20 H 1.4992 -1.5321 -0.9699 0
M  V30 21 H 0.7462 -1.0247 -2.4566 0
M  V30 22 H 2.8212 0.1774 -2.1381 0
M  V30 23 H 0.9858 1.3957 -3.0985 0
M  V30 24 H 0.6213 2.0426 -1.6514 0
M  V30 25 H 1.7434 1.3794 0.4642 0
M  V30 26 H 2.9535 0.087 0.3549 0
M  V30 27 H 3.3071 1.6914 -0.2956 0
M  V30 END ATOM
M  V30 BEGIN BOND
M  V30 1 1 1 2
M  V30 2 1 1 3
M  V30 3 2 2 4
M  V30 4 1 2 5
M  V30 5 1 4 6
M  V30 6 2 5 7
M  V30 7 2 6 8
M  V30 8 1 6 9
M  V30 9 1 9 10
M  V30 10 1 10 11
M  V30 11 1 10 12
M  V30 12 1 7 8
M  V30 13 1 3 13
M  V30 14 1 3 14
M  V30 15 1 3 15
M  V30 16 1 4 16
M  V30 17 1 5 17
M  V30 18 1 7 18
M  V30 19 1 8 19
M  V30 20 1 9 20
M  V30 21 1 9 21
M  V30 22 1 10 22
M  V30 23 1 11 23
M  V30 24 1 11 24
M  V30 25 1 12 25
M  V30 26 1 12 26
M  V30 27 1 12 27
M  V30 END BOND
M  V30 BEGIN COLLECTION
M  V30 MDLV30/STEABS ATOMS=(1 10)
M  V30 END COLLECTION
M  V30 END CTAB
M  END
>  <Column 1>
3874

>  <level_0>
7428

>  <index>
7429

>  <Unnamed: 0>
7429

>  <NO.>
7442

>  <Name>
chembl1927026

>  <IUPAC_name>
(2s)-1-(3-methoxyphenyl)propan-2-amine

>  <SMILES>
COc1cccc(C[C@H](C)N)c1

>  <CID>
40578307

>  <logBB>


>  <BBB+/BBB->
BBB+

>  <Inchi>
InChI=1S/C10H15NO/c1-8(11)6-9-4-3-5-10(7-9)12-2/h3-5-7-8H-6-11H2-1-2H3/t8-/m0/s1

>  <threshold>


>  <reference>
R27|

>  <group>
C

>  <Class>
1

>  <ABC>
8.7

>  <ABCGG>
8.09

>  <nAcid>
0

>  <nBase>
1

>  <nAromAtom>
6

>  <nAromBond>
6

>  <nAtom>
27

>  <nHeavyAtom>
12

>  <nSpiro>
0

>  <nBridgehead>
0

>  <nHetero>
2

>  <nN>
1

>  <nO>
1

>  <nF>
0

>  <BalabanJ>
2.25

>  <BertzCT>
245.35

>  <nBonds>
27

>  <nBondsO>
12

>  <nBondsS>
21

>  <nBondsD>
0

>  <nBondsT>
0

>  <nBondsA>
6

>  <nBondsM>
6

>  <nBondsKS>
24

>  <nBondsKD>
3

>  <RNCG>
0.46

>  <RPCG>
0.11

>  <FCSP3>
0.4

>  <SZ>
15

>  <Sm>
13.76

>  <Sv>
15.54

>  <Sse>
26.65

>  <Sp>
17.13

>  <Si>
30.61

>  <MZ>
0.56

>  <Mm>
0.51

>  <Mv>
0.58

>  <Mse>
0.99

>  <Mp>
0.63

>  <Mi>
1.13

>  <NsCH3>
2

>  <NdCH2>
0

>  <NssCH2>
1

>  <NtCH>
0

>  <NdsCH>
0

>  <NaaCH>
4

>  <NsssCH>
1

>  <NddC>
0

>  <NtsC>
0

>  <NdssC>
0

>  <NaasC>
2

>  <NaaaC>
0

>  <NssssC>
0

>  <NsNH3>
0

>  <NsNH2>
1

>  <NssNH2>
0

>  <NdNH>
0

>  <NssNH>
0

>  <NaaNH>
0

>  <NtN>
0

>  <NsssNH>
0

>  <NdsN>
0

>  <NaaN>
0

>  <NsssN>
0

>  <NddsN>
0

>  <NaasN>
0

>  <NssssN>
0

>  <NsOH>
0

>  <NdO>
0

>  <NssO>
1

>  <NaaO>
0

>  <NsF>
0

>  <NsSiH3>
0

>  <NssSiH2>
0

>  <NsssSiH>
0

>  <NssssSi>
0

>  <NsPH2>
0

>  <NssPH>
0

>  <NsssP>
0

>  <NdsssP>
0

>  <NsssssP>
0

>  <NsSH>
0

>  <NdS>
0

>  <NssS>
0

>  <NaaS>
0

>  <NdssS>
0

>  <NddssS>
0

>  <NsCl>
0

>  <NsBr>
0

>  <NsI>
0

>  <fragCpx>
12.02

>  <fMF>
0.22

>  <nHBAcc>
2

>  <nHBDon>
1

>  <Kier1>
10.08

>  <Kier2>
4.89

>  <Lipinski>
1

>  <GhoseFilter>
1

>  <FilterItLogS>
-2.39

>  <VMcGowan>
143.85

>  <LabuteASA>
73.34

>  <PEOE_VSA1>
10.47

>  <PEOE_VSA2>
0

>  <PEOE_VSA3>
0

>  <PEOE_VSA4>
0

>  <PEOE_VSA5>
0

>  <PEOE_VSA6>
12.13

>  <PEOE_VSA7>
31.04

>  <PEOE_VSA8>
6.04

>  <PEOE_VSA9>
7.11

>  <PEOE_VSA10>
5.75

>  <PEOE_VSA11>
0

>  <PEOE_VSA12>
0

>  <PEOE_VSA13>
0

>  <SMR_VSA1>
4.74

>  <SMR_VSA2>
0

>  <SMR_VSA3>
0

>  <SMR_VSA4>
5.73

>  <SMR_VSA5>
19.39

>  <SMR_VSA6>
7.11

>  <SMR_VSA7>
29.83

>  <SMR_VSA8>
0

>  <SMR_VSA9>
5.75

>  <SlogP_VSA1>
10.47

>  <SlogP_VSA2>
13.15

>  <SlogP_VSA3>
6.42

>  <SlogP_VSA4>
0

>  <SlogP_VSA5>
12.49

>  <SlogP_VSA6>
24.27

>  <SlogP_VSA7>
0

>  <SlogP_VSA8>
0

>  <SlogP_VSA9>
0

>  <SlogP_VSA10>
0

>  <SlogP_VSA11>
5.75

>  <EState_VSA1>
0

>  <EState_VSA2>
6.04

>  <EState_VSA3>
0

>  <EState_VSA4>
12.17

>  <EState_VSA5>
5.56

>  <EState_VSA6>
7.11

>  <EState_VSA7>
25.12

>  <EState_VSA8>
6.07

>  <EState_VSA9>
10.47

>  <EState_VSA10>
0

>  <VSA_EState1>
5.1

>  <VSA_EState2>
0

>  <VSA_EState3>
0

>  <VSA_EState4>
6.9

>  <VSA_EState5>
0.9

>  <VSA_EState6>
8.2

>  <VSA_EState7>
0.9

>  <VSA_EState8>
2

>  <VSA_EState9>
1.67

>  <apol>
28.6

>  <bpol>
16.21

>  <nRing>
1

>  <nHRing>
0

>  <naRing>
1

>  <naHRing>
0

>  <nARing 2>
0

>  <nAHRing 2>
0

>  <nFRing>
0

>  <nFHRing>
0

>  <nFaRing>
0

>  <nFaHRing>
0

>  <nFARing 2>
0

>  <nFAHRing 2>
0

>  <nRot>
3

>  <SLogP>
1.58

>  <SMR>
50.35

>  <TopoPSA(NO)>
35.25

>  <TopoPSA>
35.25

>  <JGI1>
0.25

>  <JGI2>
0.04

>  <JGI3>
0.06

>  <JGI4>
0.04

>  <JGI5>
0.04

>  <Diameter>
7

>  <Radius>
4

>  <TMWC10>
88.63

>  <TSRW10>
41.77

>  <MW>
165.12

>  <AMW>
6.12

>  <WPath>
209

>  <WPol>
13

>  <Zagreb1>
54

>  <Zagreb2>
58

>  <mZagreb2>
2.83

>  <yes>


>  <nAR-cont>
0.336376

>  <nHA-cont>
0.785745021

>  <MWHBN>
0.233464802

>  <MWHBN-cont>
0.983079356

>  <TPSA-cont>
0.753933111

>  <pka_cont>
0.97

>  <yes.1>


>  <BBB_SCORE>
4.589606277

>  <MMFF94 Energy>
34.338

$$$$
Compound 3014
Actelion Java MolfileCreator 2.0

  0  0  0  0  0  0              0 V3000
M  V30 BEGIN CTAB
M  V30 COUNTS 56 59 0 0 0
M  V30 BEGIN ATOM
M  V30 1 O 0.4762 -3.0987 1.8265 0
M  V30 2 C -0.5837 -3.521 2.5903 0
M  V30 3 C 0.1935 -2.2813 0.6914 0
M  V30 4 C -0.2634 -4.3397 3.693 0
M  V30 5 C -1.9207 -3.1912 2.3407 0
M  V30 6 C 1.524 -1.9417 0.0065 0
M  V30 7 O 1.0699 -4.6172 3.8708 0
M  V30 8 C -1.2874 -4.812 4.5222 0
M  V30 9 C -2.9332 -3.6683 3.1751 0
M  V30 10 N 1.3171 -1.0924 -1.1722 0
M  V30 11 C 1.429 -5.4385 4.9719 0
M  V30 12 C -2.6176 -4.4765 4.2626 0
M  V30 13 C 2.6172 -0.7326 -1.7914 0
M  V30 14 C 2.3647 0.2707 -2.9435 0 CFG=2
M  V30 15 O 1.88 1.4782 -2.3685 0
M  V30 16 O 1.4015 -0.286 -3.8303 0
M  V30 17 C 1.6229 2.482 -3.3428 0
M  V30 18 C 1.181 3.7291 -2.6149 0
M  V30 19 C -0.0683 3.8453 -1.9419 0
M  V30 20 C 2.0546 4.8393 -2.5801 0
M  V30 21 C -0.37 5.0447 -1.2921 0
M  V30 22 C -1.1931 2.9671 -1.7354 0
M  V30 23 C 1.7159 6.0197 -1.9242 0
M  V30 24 N -1.6126 4.9021 -0.7225 0
M  V30 25 C 0.4937 6.1445 -1.2684 0
M  V30 26 C -2.1326 3.6565 -0.969 0
M  V30 27 C -1.5046 1.6454 -2.1242 0
M  V30 28 C -3.3545 3.0986 -0.5716 0
M  V30 29 C -2.7203 1.0693 -1.7368 0
M  V30 30 C -3.6311 1.7888 -0.9702 0
M  V30 31 H -0.2969 -1.3533 1.0104 0
M  V30 32 H -0.4496 -2.8238 -0.0123 0
M  V30 33 H -2.2087 -2.5631 1.5046 0
M  V30 34 H 2.0233 -2.875 -0.2813 0
M  V30 35 H 2.1794 -1.4444 0.7326 0
M  V30 36 H -1.0834 -5.4438 5.3796 0
M  V30 37 H -3.9692 -3.4072 2.9744 0
M  V30 38 H 0.8816 -0.2096 -0.8754 0
M  V30 39 H 1.1546 -4.9685 5.922 0
M  V30 40 H 2.517 -5.5543 4.9616 0
M  V30 41 H 0.9884 -6.4366 4.881 0
M  V30 42 H -3.4072 -4.8472 4.9114 0
M  V30 43 H 3.2813 -0.2779 -1.0478 0
M  V30 44 H 3.0794 -1.6401 -2.1945 0
M  V30 45 H 3.2956 0.4593 -3.4891 0
M  V30 46 H 0.8595 -0.8559 -3.2471 0
M  V30 47 H 0.8338 2.1685 -4.0349 0
M  V30 48 H 2.5302 2.6727 -3.9277 0
M  V30 49 H 3.0229 4.7794 -3.0735 0
M  V30 50 H 2.4148 6.8527 -1.9201 0
M  V30 51 H -2.0785 5.6186 -0.1866 0
M  V30 52 H 0.2307 7.0629 -0.7538 0
M  V30 53 H -0.8094 1.0683 -2.7244 0
M  V30 54 H -4.0669 3.6591 0.0248 0
M  V30 55 H -2.9518 0.0524 -2.0429 0
M  V30 56 H -4.5721 1.328 -0.6795 0
M  V30 END ATOM
M  V30 BEGIN BOND
M  V30 1 1 1 2
M  V30 2 1 1 3
M  V30 3 2 2 4
M  V30 4 1 2 5
M  V30 5 1 3 6
M  V30 6 1 4 7
M  V30 7 1 4 8
M  V30 8 2 5 9
M  V30 9 1 6 10
M  V30 10 1 7 11
M  V30 11 2 8 12
M  V30 12 1 10 13
M  V30 13 1 13 14
M  V30 14 1 14 15
M  V30 15 1 14 16
M  V30 16 1 15 17
M  V30 17 1 17 18
M  V30 18 2 18 19
M  V30 19 1 18 20
M  V30 20 1 19 21
M  V30 21 1 19 22
M  V30 22 2 20 23
M  V30 23 1 21 24
M  V30 24 2 21 25
M  V30 25 2 22 26
M  V30 26 1 22 27
M  V30 27 1 26 28
M  V30 28 2 27 29
M  V30 29 2 28 30
M  V30 30 1 9 12
M  V30 31 1 23 25
M  V30 32 1 24 26
M  V30 33 1 29 30
M  V30 34 1 3 31
M  V30 35 1 3 32
M  V30 36 1 5 33
M  V30 37 1 6 34
M  V30 38 1 6 35
M  V30 39 1 8 36
M  V30 40 1 9 37
M  V30 41 1 10 38
M  V30 42 1 11 39
M  V30 43 1 11 40
M  V30 44 1 11 41
M  V30 45 1 12 42
M  V30 46 1 13 43
M  V30 47 1 13 44
M  V30 48 1 14 45
M  V30 49 1 16 46
M  V30 50 1 17 47
M  V30 51 1 17 48
M  V30 52 1 20 49
M  V30 53 1 23 50
M  V30 54 1 24 51
M  V30 55 1 25 52
M  V30 56 1 27 53
M  V30 57 1 28 54
M  V30 58 1 29 55
M  V30 59 1 30 56
M  V30 END BOND
M  V30 BEGIN COLLECTION
M  V30 MDLV30/STEABS ATOMS=(1 14)
M  V30 END COLLECTION
M  V30 END CTAB
M  END
>  <Column 1>
3875

>  <level_0>
7438

>  <index>
7439

>  <Unnamed: 0>
7439

>  <NO.>
7452

>  <Name>


>  <IUPAC_name>


>  <SMILES>
COc1ccccc1OCCNC[C@@H](O)OCc1cccc2[nH]c3ccccc3c12

>  <CID>


>  <logBB>


>  <BBB+/BBB->
BBB+

>  <Inchi>
InChI=1S/C24H26N2O4/c1-28-21-11-4-5-12-22(21)29-14-13-25-15-23(27)30-16-17-7-6-10-20-24(17)18-8-2-3-9-19(18)26-20/h2-12-23-25-27H-13-16H2-1H3/t23-/m0/s1

>  <threshold>


>  <reference>
R27|

>  <group>
C

>  <Class>
1

>  <ABC>
23.24

>  <ABCGG>
17.17

>  <nAcid>
0

>  <nBase>
1

>  <nAromAtom>
19

>  <nAromBond>
21

>  <nAtom>
56

>  <nHeavyAtom>
30

>  <nSpiro>
0

>  <nBridgehead>
0

>  <nHetero>
6

>  <nN>
2

>  <nO>
4

>  <nF>
0

>  <BalabanJ>
1.11

>  <BertzCT>
1108.72

>  <nBonds>
59

>  <nBondsO>
33

>  <nBondsS>
38

>  <nBondsD>
0

>  <nBondsT>
0

>  <nBondsA>
21

>  <nBondsM>
21

>  <nBondsKS>
50

>  <nBondsKD>
9

>  <RNCG>
0.17

>  <RPCG>
0.07

>  <FCSP3>
0.25

>  <SZ>
36

>  <Sm>
33.84

>  <Sv>
35.42

>  <Sse>
56.19

>  <Sp>
37.62

>  <Si>
62.82

>  <MZ>
0.64

>  <Mm>
0.6

>  <Mv>
0.63

>  <Mse>
1

>  <Mp>
0.67

>  <Mi>
1.12

>  <NsCH3>
1

>  <NdCH2>
0

>  <NssCH2>
4

>  <NtCH>
0

>  <NdsCH>
0

>  <NaaCH>
11

>  <NsssCH>
1

>  <NddC>
0

>  <NtsC>
0

>  <NdssC>
0

>  <NaasC>
3

>  <NaaaC>
4

>  <NssssC>
0

>  <NsNH3>
0

>  <NsNH2>
0

>  <NssNH2>
0

>  <NdNH>
0

>  <NssNH>
1

>  <NaaNH>
1

>  <NtN>
0

>  <NsssNH>
0

>  <NdsN>
0

>  <NaaN>
0

>  <NsssN>
0

>  <NddsN>
0

>  <NaasN>
0

>  <NssssN>
0

>  <NsOH>
1

>  <NdO>
0

>  <NssO>
3

>  <NaaO>
0

>  <NsF>
0

>  <NsSiH3>
0

>  <NssSiH2>
0

>  <NsssSiH>
0

>  <NssssSi>
0

>  <NsPH2>
0

>  <NssPH>
0

>  <NsssP>
0

>  <NdsssP>
0

>  <NsssssP>
0

>  <NsSH>
0

>  <NdS>
0

>  <NssS>
0

>  <NaaS>
0

>  <NdssS>
0

>  <NddssS>
0

>  <NsCl>
0

>  <NsBr>
0

>  <NsI>
0

>  <fragCpx>
219.06

>  <fMF>
0.48

>  <nHBAcc>
5

>  <nHBDon>
3

>  <Kier1>
23.17

>  <Kier2>
11.74

>  <Lipinski>
1

>  <GhoseFilter>
1

>  <FilterItLogS>
-6.48

>  <VMcGowan>
310.32

>  <LabuteASA>
174.94

>  <PEOE_VSA1>
29.62

>  <PEOE_VSA2>
0

>  <PEOE_VSA3>
0

>  <PEOE_VSA4>
0

>  <PEOE_VSA5>
0

>  <PEOE_VSA6>
42.46

>  <PEOE_VSA7>
29.83

>  <PEOE_VSA8>
34.9

>  <PEOE_VSA9>
13.72

>  <PEOE_VSA10>
6.61

>  <PEOE_VSA11>
17.79

>  <PEOE_VSA12>
0

>  <PEOE_VSA13>
0

>  <SMR_VSA1>
19.32

>  <SMR_VSA2>
0

>  <SMR_VSA3>
10.3

>  <SMR_VSA4>
0

>  <SMR_VSA5>
12.9

>  <SMR_VSA6>
26.81

>  <SMR_VSA7>
72.29

>  <SMR_VSA8>
0

>  <SMR_VSA9>
11.5

>  <SlogP_VSA1>
14.79

>  <SlogP_VSA2>
43.19

>  <SlogP_VSA3>
11.34

>  <SlogP_VSA4>
0

>  <SlogP_VSA5>
5.56

>  <SlogP_VSA6>
66.73

>  <SlogP_VSA7>
0

>  <SlogP_VSA8>
21.81

>  <SlogP_VSA9>
0

>  <SlogP_VSA10>
0

>  <SlogP_VSA11>
11.5

>  <EState_VSA1>
6.29

>  <EState_VSA2>
0

>  <EState_VSA3>
37.8

>  <EState_VSA4>
27.37

>  <EState_VSA5>
0

>  <EState_VSA6>
7.11

>  <EState_VSA7>
48.53

>  <EState_VSA8>
28.5

>  <EState_VSA9>
14.21

>  <EState_VSA10>
5.11

>  <VSA_EState1>
16.64

>  <VSA_EState2>
3.42

>  <VSA_EState3>
15.63

>  <VSA_EState4>
3.21

>  <VSA_EState5>
1.4

>  <VSA_EState6>
21.8

>  <VSA_EState7>
-0.91

>  <VSA_EState8>
1.69

>  <VSA_EState9>
1.62

>  <apol>
62.82

>  <bpol>
32.43

>  <nRing>
4

>  <nHRing>
1

>  <naRing>
4

>  <naHRing>
1

>  <nARing 2>
0

>  <nAHRing 2>
0

>  <nFRing>
1

>  <nFHRing>
1

>  <nFaRing>
1

>  <nFaHRing>
1

>  <nFARing 2>
0

>  <nFAHRing 2>
0

>  <nRot>
10

>  <SLogP>
3.83

>  <SMR>
117.96

>  <TopoPSA(NO)>
75.74

>  <TopoPSA>
75.74

>  <JGI1>
0.12

>  <JGI2>
0.07

>  <JGI3>
0.04

>  <JGI4>
0.03

>  <JGI5>
0.02

>  <Diameter>
17

>  <Radius>
9

>  <TMWC10>
139.66

>  <TSRW10>
79.8

>  <MW>
406.19

>  <AMW>
7.25

>  <WPath>
3062

>  <WPol>
45

>  <Zagreb1>
154

>  <Zagreb2>
180

>  <mZagreb2>
6.81

>  <yes>


>  <nAR-cont>
0.336376

>  <nHA-cont>
0.74523694

>  <MWHBN>
0.396940464

>  <MWHBN-cont>
0.488109142

>  <TPSA-cont>
0.471287768

>  <pka_cont>
0.97

>  <yes.1>


>  <BBB_SCORE>
3.241352189

>  <MMFF94 Energy>
98.665

$$$$
Compound 3015
Actelion Java MolfileCreator 2.0

  0  0  0  0  0  0              0 V3000
M  V30 BEGIN CTAB
M  V30 COUNTS 50 51 0 0 0
M  V30 BEGIN ATOM
M  V30 1 S 1.0383 0.3193 2.2374 0
M  V30 2 O 0.8219 0.111 3.652 0
M  V30 3 O 2.2294 -0.1549 1.5748 0
M  V30 4 N -0.2715 -0.413 1.4975 0
M  V30 5 C 0.7903 2.0404 1.8511 0
M  V30 6 C 0.7391 2.5241 0.5266 0
M  V30 7 C 0.648 2.9197 2.941 0
M  V30 8 C 0.5363 3.9075 0.3475 0
M  V30 9 C 0.8588 1.6474 -0.702 0 CFG=2
M  V30 10 C 0.436 4.2877 2.7387 0
M  V30 11 C 0.394 4.7759 1.4329 0
M  V30 12 O 1.6525 2.3141 -1.6977 0
M  V30 13 C -0.5156 1.3102 -1.332 0
M  V30 14 C 0.3221 5.2217 3.9068 0
M  V30 15 N -0.3172 0.4521 -2.5243 0
M  V30 16 C -1.6143 -0.0332 -3.0376 0
M  V30 17 C -1.8277 -1.5319 -2.7643 0
M  V30 18 O -1.8573 -1.7513 -1.3451 0
M  V30 19 C -1.3991 -3.0101 -1.0489 0
M  V30 20 C -0.0338 -3.2329 -0.8089 0
M  V30 21 C -2.3332 -4.0391 -0.9316 0
M  V30 22 O 0.7842 -2.1356 -0.906 0
M  V30 23 C 0.3836 -4.5223 -0.4733 0
M  V30 24 C -1.9035 -5.3211 -0.6003 0
M  V30 25 C 2.1883 -2.3731 -0.828 0
M  V30 26 C -0.5484 -5.562 -0.3746 0
M  V30 27 H -0.8742 -0.8542 2.1926 0
M  V30 28 H 0.0206 -1.0585 0.7572 0
M  V30 29 H 0.7031 2.5393 3.9604 0
M  V30 30 H 0.5031 4.323 -0.6595 0
M  V30 31 H 1.4007 0.7283 -0.4834 0
M  V30 32 H 0.2548 5.8386 1.2455 0
M  V30 33 H 1.4152 1.8646 -2.5337 0
M  V30 34 H -1.0089 2.235 -1.6565 0
M  V30 35 H -1.1638 0.8202 -0.5999 0
M  V30 36 H -0.1503 4.7235 4.7599 0
M  V30 37 H 1.3154 5.5703 4.2053 0
M  V30 38 H -0.2963 6.0896 3.655 0
M  V30 39 H 0.2191 -0.3688 -2.2185 0
M  V30 40 H -2.4505 0.5411 -2.6204 0
M  V30 41 H -1.6252 0.1252 -4.1213 0
M  V30 42 H -2.7922 -1.8438 -3.1819 0
M  V30 43 H -1.0357 -2.1094 -3.2609 0
M  V30 44 H -3.3885 -3.8405 -1.0941 0
M  V30 45 H 1.4241 -4.7543 -0.2702 0
M  V30 46 H -2.6233 -6.1308 -0.5104 0
M  V30 47 H 2.4714 -2.7173 0.1716 0
M  V30 48 H 2.6985 -1.4236 -1.0147 0
M  V30 49 H 2.5133 -3.0801 -1.5983 0
M  V30 50 H -0.2147 -6.5629 -0.1099 0
M  V30 END ATOM
M  V30 BEGIN BOND
M  V30 1 2 1 2
M  V30 2 2 1 3
M  V30 3 1 1 4
M  V30 4 1 1 5
M  V30 5 2 5 6
M  V30 6 1 5 7
M  V30 7 1 6 8
M  V30 8 1 6 9
M  V30 9 2 7 10
M  V30 10 2 8 11
M  V30 11 1 9 12
M  V30 12 1 9 13
M  V30 13 1 10 14
M  V30 14 1 13 15
M  V30 15 1 15 16
M  V30 16 1 16 17
M  V30 17 1 17 18
M  V30 18 1 18 19
M  V30 19 2 19 20
M  V30 20 1 19 21
M  V30 21 1 20 22
M  V30 22 1 20 23
M  V30 23 2 21 24
M  V30 24 1 22 25
M  V30 25 2 23 26
M  V30 26 1 10 11
M  V30 27 1 24 26
M  V30 28 1 4 27
M  V30 29 1 4 28
M  V30 30 1 7 29
M  V30 31 1 8 30
M  V30 32 1 9 31
M  V30 33 1 11 32
M  V30 34 1 12 33
M  V30 35 1 13 34
M  V30 36 1 13 35
M  V30 37 1 14 36
M  V30 38 1 14 37
M  V30 39 1 14 38
M  V30 40 1 15 39
M  V30 41 1 16 40
M  V30 42 1 16 41
M  V30 43 1 17 42
M  V30 44 1 17 43
M  V30 45 1 21 44
M  V30 46 1 23 45
M  V30 47 1 24 46
M  V30 48 1 25 47
M  V30 49 1 25 48
M  V30 50 1 25 49
M  V30 51 1 26 50
M  V30 END BOND
M  V30 BEGIN COLLECTION
M  V30 MDLV30/STEABS ATOMS=(1 9)
M  V30 END COLLECTION
M  V30 END CTAB
M  END
>  <Column 1>
3876

>  <level_0>
7439

>  <index>
7440

>  <Unnamed: 0>
7440

>  <NO.>
7453

>  <Name>


>  <IUPAC_name>


>  <SMILES>
COc1ccccc1OCCNC[C@@H](O)c1ccc(C)cc1S(N)(=O)=O

>  <CID>


>  <logBB>


>  <BBB+/BBB->
BBB+

>  <Inchi>
InChI=1S/C18H24N2O5S/c1-13-7-8-14(18(11-13)26(19-22)23)15(21)12-20-9-10-25-17-6-4-3-5-16(17)24-2/h3-8-11-15-20-21H-9-10-12H2-1-2H3-(H2-19-22-23)/t15-/m1/s1

>  <threshold>


>  <reference>
R27|

>  <group>
C

>  <Class>
1

>  <ABC>
19.6

>  <ABCGG>
16.04

>  <nAcid>
0

>  <nBase>
1

>  <nAromAtom>
12

>  <nAromBond>
12

>  <nAtom>
50

>  <nHeavyAtom>
26

>  <nSpiro>
0

>  <nBridgehead>
0

>  <nHetero>
8

>  <nN>
2

>  <nO>
5

>  <nF>
0

>  <BalabanJ>
1.69

>  <BertzCT>
839.23

>  <nBonds>
51

>  <nBondsO>
27

>  <nBondsS>
37

>  <nBondsD>
2

>  <nBondsT>
0

>  <nBondsA>
12

>  <nBondsM>
14

>  <nBondsKS>
43

>  <nBondsKD>
8

>  <RNCG>
0.18

>  <RPCG>
0.09

>  <FCSP3>
0.33

>  <SZ>
33.67

>  <Sm>
31.68

>  <Sv>
30.78

>  <Sse>
50.71

>  <Sp>
33.04

>  <Si>
56.53

>  <MZ>
0.67

>  <Mm>
0.63

>  <Mv>
0.62

>  <Mse>
1.01

>  <Mp>
0.66

>  <Mi>
1.13

>  <NsCH3>
2

>  <NdCH2>
0

>  <NssCH2>
3

>  <NtCH>
0

>  <NdsCH>
0

>  <NaaCH>
7

>  <NsssCH>
1

>  <NddC>
0

>  <NtsC>
0

>  <NdssC>
0

>  <NaasC>
5

>  <NaaaC>
0

>  <NssssC>
0

>  <NsNH3>
0

>  <NsNH2>
1

>  <NssNH2>
0

>  <NdNH>
0

>  <NssNH>
1

>  <NaaNH>
0

>  <NtN>
0

>  <NsssNH>
0

>  <NdsN>
0

>  <NaaN>
0

>  <NsssN>
0

>  <NddsN>
0

>  <NaasN>
0

>  <NssssN>
0

>  <NsOH>
1

>  <NdO>
2

>  <NssO>
2

>  <NaaO>
0

>  <NsF>
0

>  <NsSiH3>
0

>  <NssSiH2>
0

>  <NsssSiH>
0

>  <NssssSi>
0

>  <NsPH2>
0

>  <NssPH>
0

>  <NsssP>
0

>  <NdsssP>
0

>  <NsssssP>
0

>  <NsSH>
0

>  <NdS>
0

>  <NssS>
0

>  <NaaS>
0

>  <NdssS>
0

>  <NddssS>
1

>  <NsCl>
0

>  <NsBr>
0

>  <NsI>
0

>  <fragCpx>
79.08

>  <fMF>
0.36

>  <nHBAcc>
6

>  <nHBDon>
3

>  <Kier1>
22.29

>  <Kier2>
10.52

>  <Lipinski>
1

>  <GhoseFilter>
1

>  <FilterItLogS>
-4.35

>  <VMcGowan>
282.62

>  <LabuteASA>
153.35

>  <PEOE_VSA1>
19.9

>  <PEOE_VSA2>
0

>  <PEOE_VSA3>
13.56

>  <PEOE_VSA4>
0

>  <PEOE_VSA5>
0

>  <PEOE_VSA6>
24.27

>  <PEOE_VSA7>
30.69

>  <PEOE_VSA8>
18.65

>  <PEOE_VSA9>
18.11

>  <PEOE_VSA10>
6.61

>  <PEOE_VSA11>
11.5

>  <PEOE_VSA12>
10.02

>  <PEOE_VSA13>
0

>  <SMR_VSA1>
23

>  <SMR_VSA2>
0

>  <SMR_VSA3>
5.32

>  <SMR_VSA4>
5.14

>  <SMR_VSA5>
17.92

>  <SMR_VSA6>
26.81

>  <SMR_VSA7>
53.59

>  <SMR_VSA8>
0

>  <SMR_VSA9>
11.5

>  <SlogP_VSA1>
19.93

>  <SlogP_VSA2>
40.33

>  <SlogP_VSA3>
10.02

>  <SlogP_VSA4>
6.92

>  <SlogP_VSA5>
17.23

>  <SlogP_VSA6>
47.36

>  <SlogP_VSA7>
0

>  <SlogP_VSA8>
0

>  <SlogP_VSA9>
0

>  <SlogP_VSA10>
0

>  <SlogP_VSA11>
11.5

>  <EState_VSA1>
16.13

>  <EState_VSA2>
17

>  <EState_VSA3>
24.65

>  <EState_VSA4>
5.56

>  <EState_VSA5>
6.07

>  <EState_VSA6>
38.3

>  <EState_VSA7>
12.13

>  <EState_VSA8>
5.32

>  <EState_VSA9>
14.61

>  <EState_VSA10>
13.52

>  <VSA_EState1>
34.26

>  <VSA_EState2>
-0.06

>  <VSA_EState3>
18.59

>  <VSA_EState4>
1.03

>  <VSA_EState5>
1.28

>  <VSA_EState6>
12.08

>  <VSA_EState7>
-1

>  <VSA_EState8>
2.76

>  <VSA_EState9>
-2.34

>  <apol>
55.17

>  <bpol>
34.2

>  <nRing>
2

>  <nHRing>
0

>  <naRing>
2

>  <naHRing>
0

>  <nARing 2>
0

>  <nAHRing 2>
0

>  <nFRing>
0

>  <nFHRing>
0

>  <nFaRing>
0

>  <nFaHRing>
0

>  <nFARing 2>
0

>  <nFAHRing 2>
0

>  <nRot>
9

>  <SLogP>
1.35

>  <SMR>
98.87

>  <TopoPSA(NO)>
110.88

>  <TopoPSA>
119.26

>  <JGI1>
0.22

>  <JGI2>
0.09

>  <JGI3>
0.05

>  <JGI4>
0.05

>  <JGI5>
0.03

>  <Diameter>
14

>  <Radius>
7

>  <TMWC10>
127.27

>  <TSRW10>
60.57

>  <MW>
380.14

>  <AMW>
7.6

>  <WPath>
1973

>  <WPol>
38

>  <Zagreb1>
128

>  <Zagreb2>
145

>  <mZagreb2>
5.83

>  <yes>


>  <nAR-cont>
0.336376

>  <nHA-cont>
0.892715677

>  <MWHBN>
0.461605234

>  <MWHBN-cont>
0

>  <TPSA-cont>
0.167491144

>  <pka_cont>
0.97

>  <yes.1>


>  <BBB_SCORE>
2.049073965

>  <MMFF94 Energy>
19.355

$$$$
Compound 3016
Actelion Java MolfileCreator 2.0

  0  0  0  0  0  0              0 V3000
M  V30 BEGIN CTAB
M  V30 COUNTS 28 29 0 0 0
M  V30 BEGIN ATOM
M  V30 1 Cl 0.8781 -2.796 0.2394 0
M  V30 2 C 1.2649 -1.1242 0.0389 0
M  V30 3 N 2.5375 -0.9649 -0.3905 0
M  V30 4 C 0.4221 -0.1006 0.4354 0
M  V30 5 C 2.9902 0.2919 -0.4531 0
M  V30 6 N -0.9176 -0.2117 0.8352 0
M  V30 7 C 1.0297 1.1446 0.348 0
M  V30 8 N 2.2903 1.3707 -0.0741 0
M  V30 9 C 4.3981 0.5013 -0.9141 0
M  V30 10 C -1.8617 -0.9589 0.2169 0
M  V30 11 O 0.2575 2.2255 0.7611 0
M  V30 12 N -1.7969 -1.5462 -0.9421 0
M  V30 13 N -3.0299 -1.0775 0.8915 0
M  V30 14 C 0.8922 3.4829 0.5476 0
M  V30 15 C -3.1296 -2.1898 -1.1171 0
M  V30 16 C -3.9063 -1.9725 0.1869 0
M  V30 17 H -1.2537 0.5798 1.3687 0
M  V30 18 H 4.6822 -0.2636 -1.6429 0
M  V30 19 H 5.078 0.4448 -0.0591 0
M  V30 20 H 4.5065 1.482 -1.3872 0
M  V30 21 H -3.0907 -0.9656 1.8918 0
M  V30 22 H 0.1954 4.2649 0.8646 0
M  V30 23 H 1.7974 3.5776 1.157 0
M  V30 24 H 1.1113 3.6429 -0.5136 0
M  V30 25 H -3.0068 -3.2561 -1.3314 0
M  V30 26 H -3.6458 -1.7242 -1.9635 0
M  V30 27 H -4.8883 -1.5262 0.0081 0
M  V30 28 H -4.0284 -2.9109 0.7365 0
M  V30 END ATOM
M  V30 BEGIN BOND
M  V30 1 1 1 2
M  V30 2 2 2 3
M  V30 3 1 2 4
M  V30 4 1 3 5
M  V30 5 1 4 6
M  V30 6 2 4 7
M  V30 7 2 5 8
M  V30 8 1 5 9
M  V30 9 1 6 10
M  V30 10 1 7 11
M  V30 11 2 10 12
M  V30 12 1 10 13
M  V30 13 1 11 14
M  V30 14 1 12 15
M  V30 15 1 13 16
M  V30 16 1 7 8
M  V30 17 1 15 16
M  V30 18 1 6 17
M  V30 19 1 9 18
M  V30 20 1 9 19
M  V30 21 1 9 20
M  V30 22 1 13 21
M  V30 23 1 14 22
M  V30 24 1 14 23
M  V30 25 1 14 24
M  V30 26 1 15 25
M  V30 27 1 15 26
M  V30 28 1 16 27
M  V30 29 1 16 28
M  V30 END BOND
M  V30 END CTAB
M  END
>  <Column 1>
3877

>  <level_0>
7440

>  <index>
7441

>  <Unnamed: 0>
7441

>  <NO.>
7454

>  <Name>
moxonidine

>  <IUPAC_name>
4-chloro-n-(4-5-dihydro-1h-imidazol-2-yl)-6-methoxy-2-methylpyrimidin-5-amine

>  <SMILES>
COc1nc(C)nc(Cl)c1NC1=NCCN1

>  <CID>
4810

>  <logBB>


>  <BBB+/BBB->
BBB+

>  <Inchi>
InChI=1S/C9H12ClN5O/c1-5-13-7(10)6(8(14-5)16-2)15-9-11-3-4-12-9/h3-4H2-1-2H3-(H2-11-12-15)

>  <threshold>


>  <reference>
R27|

>  <group>
C

>  <Class>
1

>  <ABC>
12.16

>  <ABCGG>
11.18

>  <nAcid>
0

>  <nBase>
3

>  <nAromAtom>
6

>  <nAromBond>
6

>  <nAtom>
28

>  <nHeavyAtom>
16

>  <nSpiro>
0

>  <nBridgehead>
0

>  <nHetero>
7

>  <nN>
5

>  <nO>
1

>  <nF>
0

>  <BalabanJ>
1.93

>  <BertzCT>
434.15

>  <nBonds>
29

>  <nBondsO>
17

>  <nBondsS>
22

>  <nBondsD>
1

>  <nBondsT>
0

>  <nBondsA>
6

>  <nBondsM>
7

>  <nBondsKS>
25

>  <nBondsKD>
4

>  <RNCG>
0.25

>  <RPCG>
0.13

>  <FCSP3>
0.44

>  <SZ>
21

>  <Sm>
20.12

>  <Sv>
17.85

>  <Sse>
28.74

>  <Sp>
18.87

>  <Si>
32.31

>  <MZ>
0.75

>  <Mm>
0.72

>  <Mv>
0.64

>  <Mse>
1.03

>  <Mp>
0.67

>  <Mi>
1.15

>  <NsCH3>
2

>  <NdCH2>
0

>  <NssCH2>
2

>  <NtCH>
0

>  <NdsCH>
0

>  <NaaCH>
0

>  <NsssCH>
0

>  <NddC>
0

>  <NtsC>
0

>  <NdssC>
1

>  <NaasC>
4

>  <NaaaC>
0

>  <NssssC>
0

>  <NsNH3>
0

>  <NsNH2>
0

>  <NssNH2>
0

>  <NdNH>
0

>  <NssNH>
2

>  <NaaNH>
0

>  <NtN>
0

>  <NsssNH>
0

>  <NdsN>
1

>  <NaaN>
2

>  <NsssN>
0

>  <NddsN>
0

>  <NaasN>
0

>  <NssssN>
0

>  <NsOH>
0

>  <NdO>
0

>  <NssO>
1

>  <NaaO>
0

>  <NsF>
0

>  <NsSiH3>
0

>  <NssSiH2>
0

>  <NsssSiH>
0

>  <NssssSi>
0

>  <NsPH2>
0

>  <NssPH>
0

>  <NsssP>
0

>  <NdsssP>
0

>  <NsssssP>
0

>  <NsSH>
0

>  <NdS>
0

>  <NssS>
0

>  <NaaS>
0

>  <NdssS>
0

>  <NddssS>
0

>  <NsCl>
1

>  <NsBr>
0

>  <NsI>
0

>  <fragCpx>
49.07

>  <fMF>
0.43

>  <nHBAcc>
6

>  <nHBDon>
2

>  <Kier1>
12.46

>  <Kier2>
5.56

>  <Lipinski>
1

>  <GhoseFilter>
1

>  <FilterItLogS>
-3.76

>  <VMcGowan>
166.76

>  <LabuteASA>
98.1

>  <PEOE_VSA1>
15.37

>  <PEOE_VSA2>
4.99

>  <PEOE_VSA3>
4.98

>  <PEOE_VSA4>
4.98

>  <PEOE_VSA5>
0

>  <PEOE_VSA6>
11.6

>  <PEOE_VSA7>
6.92

>  <PEOE_VSA8>
6.54

>  <PEOE_VSA9>
13.65

>  <PEOE_VSA10>
11.51

>  <PEOE_VSA11>
11.11

>  <PEOE_VSA12>
5.88

>  <PEOE_VSA13>
0

>  <SMR_VSA1>
4.74

>  <SMR_VSA2>
0

>  <SMR_VSA3>
15.28

>  <SMR_VSA4>
4.99

>  <SMR_VSA5>
6.92

>  <SMR_VSA6>
25.52

>  <SMR_VSA7>
10.98

>  <SMR_VSA8>
0

>  <SMR_VSA9>
5.88

>  <SlogP_VSA1>
15.37

>  <SlogP_VSA2>
36.13

>  <SlogP_VSA3>
0

>  <SlogP_VSA4>
6.92

>  <SlogP_VSA5>
5.82

>  <SlogP_VSA6>
4.99

>  <SlogP_VSA7>
5.15

>  <SlogP_VSA8>
0

>  <SlogP_VSA9>
0

>  <SlogP_VSA10>
5.69

>  <SlogP_VSA11>
5.88

>  <EState_VSA1>
0

>  <EState_VSA2>
0

>  <EState_VSA3>
28.5

>  <EState_VSA4>
13.09

>  <EState_VSA5>
7.11

>  <EState_VSA6>
6.92

>  <EState_VSA7>
0

>  <EState_VSA8>
25.59

>  <EState_VSA9>
16.34

>  <EState_VSA10>
0

>  <VSA_EState1>
5.14

>  <VSA_EState2>
12.38

>  <VSA_EState3>
6.4

>  <VSA_EState4>
0.53

>  <VSA_EState5>
1.63

>  <VSA_EState6>
0

>  <VSA_EState7>
0

>  <VSA_EState8>
3.31

>  <VSA_EState9>
1.53

>  <apol>
31.51

>  <bpol>
18.84

>  <nRing>
2

>  <nHRing>
2

>  <naRing>
1

>  <naHRing>
1

>  <nARing 2>
1

>  <nAHRing 2>
1

>  <nFRing>
0

>  <nFHRing>
0

>  <nFaRing>
0

>  <nFaHRing>
0

>  <nFARing 2>
0

>  <nFAHRing 2>
0

>  <nRot>
2

>  <SLogP>
0.82

>  <SMR>
62.26

>  <TopoPSA(NO)>
71.43

>  <TopoPSA>
71.43

>  <JGI1>
0.21

>  <JGI2>
0.07

>  <JGI3>
0.06

>  <JGI4>
0.06

>  <JGI5>
0.02

>  <Diameter>
8

>  <Radius>
4

>  <TMWC10>
103.22

>  <TSRW10>
61.25

>  <MW>
241.07

>  <AMW>
8.61

>  <WPath>
432

>  <WPol>
21

>  <Zagreb1>
80

>  <Zagreb2>
92

>  <mZagreb2>
3.64

>  <yes>


>  <nAR-cont>
0.816016

>  <nHA-cont>
0.954961865

>  <MWHBN>
0.515250478

>  <MWHBN-cont>
0

>  <TPSA-cont>
0.501374245

>  <pka_cont>
0.97

>  <yes.1>


>  <BBB_SCORE>
3.258726354

>  <MMFF94 Energy>
-52.854

$$$$
Compound 3017
Actelion Java MolfileCreator 2.0

  0  0  0  0  0  0              0 V3000
M  V30 BEGIN CTAB
M  V30 COUNTS 43 44 0 0 0
M  V30 BEGIN ATOM
M  V30 1 O -1.8054 -0.5492 4.0855 0
M  V30 2 C -2.21 0.0523 2.9293 0
M  V30 3 C -2.3472 1.4355 2.9348 0
M  V30 4 C -2.4706 -0.6925 1.7804 0
M  V30 5 C -2.7494 2.0755 1.7684 0
M  V30 6 C -2.8787 -0.0443 0.6056 0
M  V30 7 O -2.8944 3.431 1.7156 0
M  V30 8 C -3.0151 1.3512 0.6096 0
M  V30 9 C -3.1363 -0.8317 -0.6553 0
M  V30 10 C -1.9264 -0.8929 -1.6131 0 CFG=2
M  V30 11 O -2.3495 -1.4068 -2.8661 0
M  V30 12 N -0.8928 -1.7908 -1.1208 0
M  V30 13 C 0.4863 -1.2599 -1.221 0 CFG=2
M  V30 14 C 0.7318 -0.0636 -0.269 0
M  V30 15 C 0.8861 -0.9598 -2.672 0
M  V30 16 C 2.191 0.3089 -0.1245 0
M  V30 17 C 3.0514 -0.478 0.6555 0
M  V30 18 C 2.7043 1.4409 -0.773 0
M  V30 19 C 4.401 -0.1417 0.7837 0
M  V30 20 C 4.053 1.7764 -0.6459 0
M  V30 21 C 4.89 0.9843 0.1298 0
M  V30 22 O 6.2004 1.3492 0.2271 0
M  V30 23 H -1.732 -1.5045 3.9249 0
M  V30 24 H -2.1354 1.9883 3.8434 0
M  V30 25 H -2.3455 -1.7718 1.78 0
M  V30 26 H -2.6616 3.7972 2.5852 0
M  V30 27 H -3.3247 1.8819 -0.2874 0
M  V30 28 H -3.9921 -0.3876 -1.1828 0
M  V30 29 H -3.4757 -1.8462 -0.4038 0
M  V30 30 H -1.5666 0.1243 -1.7948 0
M  V30 31 H -2.9064 -2.1802 -2.6814 0
M  V30 32 H -0.9318 -2.6187 -1.7134 0
M  V30 33 H 1.1303 -2.0836 -0.8854 0
M  V30 34 H 0.3555 -0.3071 0.7331 0
M  V30 35 H 0.1659 0.8178 -0.5938 0
M  V30 36 H 0.6498 -1.8066 -3.3261 0
M  V30 37 H 0.3769 -0.0736 -3.0644 0
M  V30 38 H 1.9645 -0.7881 -2.7526 0
M  V30 39 H 2.6704 -1.3569 1.1712 0
M  V30 40 H 2.0579 2.0686 -1.3824 0
M  V30 41 H 5.0473 -0.7645 1.3934 0
M  V30 42 H 4.4481 2.6538 -1.1497 0
M  V30 43 H 6.6537 0.7157 0.8067 0
M  V30 END ATOM
M  V30 BEGIN BOND
M  V30 1 1 1 2
M  V30 2 2 2 3
M  V30 3 1 2 4
M  V30 4 1 3 5
M  V30 5 2 4 6
M  V30 6 1 5 7
M  V30 7 2 5 8
M  V30 8 1 6 9
M  V30 9 1 9 10
M  V30 10 1 10 11
M  V30 11 1 10 12
M  V30 12 1 12 13
M  V30 13 1 13 14
M  V30 14 1 13 15
M  V30 15 1 14 16
M  V30 16 2 16 17
M  V30 17 1 16 18
M  V30 18 1 17 19
M  V30 19 2 18 20
M  V30 20 2 19 21
M  V30 21 1 21 22
M  V30 22 1 6 8
M  V30 23 1 20 21
M  V30 24 1 1 23
M  V30 25 1 3 24
M  V30 26 1 4 25
M  V30 27 1 7 26
M  V30 28 1 8 27
M  V30 29 1 9 28
M  V30 30 1 9 29
M  V30 31 1 10 30
M  V30 32 1 11 31
M  V30 33 1 12 32
M  V30 34 1 13 33
M  V30 35 1 14 34
M  V30 36 1 14 35
M  V30 37 1 15 36
M  V30 38 1 15 37
M  V30 39 1 15 38
M  V30 40 1 17 39
M  V30 41 1 18 40
M  V30 42 1 19 41
M  V30 43 1 20 42
M  V30 44 1 22 43
M  V30 END BOND
M  V30 BEGIN COLLECTION
M  V30 MDLV30/STEABS ATOMS=(2 10 13)
M  V30 END COLLECTION
M  V30 END CTAB
M  END
>  <Column 1>
3878

>  <level_0>
7447

>  <index>
7448

>  <Unnamed: 0>
7448

>  <NO.>
7461

>  <Name>


>  <IUPAC_name>


>  <SMILES>
C[C@@H](Cc1ccc(O)cc1)N[C@@H](O)Cc1cc(O)cc(O)c1

>  <CID>


>  <logBB>


>  <BBB+/BBB->
BBB+

>  <Inchi>
InChI=1S/C17H21NO4/c1-11(6-12-2-4-14(19)5-3-12)18-17(22)9-13-7-15(20)10-16(21)8-13/h2-5-7-8-10-11-17-22H-6-9H2-1H3/t11--17-/m0/s1

>  <threshold>


>  <reference>
R27|

>  <group>
C

>  <Class>
1

>  <ABC>
16.81

>  <ABCGG>
13.63

>  <nAcid>
0

>  <nBase>
1

>  <nAromAtom>
12

>  <nAromBond>
12

>  <nAtom>
43

>  <nHeavyAtom>
22

>  <nSpiro>
0

>  <nBridgehead>
0

>  <nHetero>
5

>  <nN>
1

>  <nO>
4

>  <nF>
0

>  <BalabanJ>
1.66

>  <BertzCT>
592.31

>  <nBonds>
44

>  <nBondsO>
23

>  <nBondsS>
32

>  <nBondsD>
0

>  <nBondsT>
0

>  <nBondsA>
12

>  <nBondsM>
12

>  <nBondsKS>
38

>  <nBondsKD>
6

>  <RNCG>
0.2

>  <RPCG>
0.12

>  <FCSP3>
0.29

>  <SZ>
27

>  <Sm>
25.26

>  <Sv>
26.31

>  <Sse>
43.31

>  <Sp>
27.96

>  <Si>
48.49

>  <MZ>
0.63

>  <Mm>
0.59

>  <Mv>
0.61

>  <Mse>
1.01

>  <Mp>
0.65

>  <Mi>
1.13

>  <NsCH3>
1

>  <NdCH2>
0

>  <NssCH2>
2

>  <NtCH>
0

>  <NdsCH>
0

>  <NaaCH>
7

>  <NsssCH>
2

>  <NddC>
0

>  <NtsC>
0

>  <NdssC>
0

>  <NaasC>
5

>  <NaaaC>
0

>  <NssssC>
0

>  <NsNH3>
0

>  <NsNH2>
0

>  <NssNH2>
0

>  <NdNH>
0

>  <NssNH>
1

>  <NaaNH>
0

>  <NtN>
0

>  <NsssNH>
0

>  <NdsN>
0

>  <NaaN>
0

>  <NsssN>
0

>  <NddsN>
0

>  <NaasN>
0

>  <NssssN>
0

>  <NsOH>
4

>  <NdO>
0

>  <NssO>
0

>  <NaaO>
0

>  <NsF>
0

>  <NsSiH3>
0

>  <NssSiH2>
0

>  <NsssSiH>
0

>  <NssssSi>
0

>  <NsPH2>
0

>  <NssPH>
0

>  <NsssP>
0

>  <NdsssP>
0

>  <NsssssP>
0

>  <NsSH>
0

>  <NdS>
0

>  <NssS>
0

>  <NaaS>
0

>  <NdssS>
0

>  <NddssS>
0

>  <NsCl>
0

>  <NsBr>
0

>  <NsI>
0

>  <fragCpx>
67.05

>  <fMF>
0.4

>  <nHBAcc>
5

>  <nHBDon>
5

>  <Kier1>
18.34

>  <Kier2>
8.74

>  <Lipinski>
1

>  <GhoseFilter>
1

>  <FilterItLogS>
-2.89

>  <VMcGowan>
236.33

>  <LabuteASA>
129.04

>  <PEOE_VSA1>
20.43

>  <PEOE_VSA2>
5.32

>  <PEOE_VSA3>
0

>  <PEOE_VSA4>
0

>  <PEOE_VSA5>
0

>  <PEOE_VSA6>
12.13

>  <PEOE_VSA7>
48.74

>  <PEOE_VSA8>
18.53

>  <PEOE_VSA9>
0

>  <PEOE_VSA10>
23.48

>  <PEOE_VSA11>
0

>  <PEOE_VSA12>
0

>  <PEOE_VSA13>
0

>  <SMR_VSA1>
20.43

>  <SMR_VSA2>
0

>  <SMR_VSA3>
5.32

>  <SMR_VSA4>
0

>  <SMR_VSA5>
32.04

>  <SMR_VSA6>
0

>  <SMR_VSA7>
53.59

>  <SMR_VSA8>
0

>  <SMR_VSA9>
17.25

>  <SlogP_VSA1>
5.32

>  <SlogP_VSA2>
32.7

>  <SlogP_VSA3>
12.84

>  <SlogP_VSA4>
0

>  <SlogP_VSA5>
18.05

>  <SlogP_VSA6>
42.46

>  <SlogP_VSA7>
0

>  <SlogP_VSA8>
0

>  <SlogP_VSA9>
0

>  <SlogP_VSA10>
0

>  <SlogP_VSA11>
17.25

>  <EState_VSA1>
6.23

>  <EState_VSA2>
29.71

>  <EState_VSA3>
11.98

>  <EState_VSA4>
5.56

>  <EState_VSA5>
18.2

>  <EState_VSA6>
12.13

>  <EState_VSA7>
19.06

>  <EState_VSA8>
5.32

>  <EState_VSA9>
0

>  <EState_VSA10>
20.43

>  <VSA_EState1>
0

>  <VSA_EState2>
0

>  <VSA_EState3>
41.22

>  <VSA_EState4>
1.7

>  <VSA_EState5>
0.17

>  <VSA_EState6>
11.24

>  <VSA_EState7>
0.21

>  <VSA_EState8>
1.95

>  <VSA_EState9>
0

>  <apol>
46.7

>  <bpol>
21.64

>  <nRing>
2

>  <nHRing>
0

>  <naRing>
2

>  <naHRing>
0

>  <nARing 2>
0

>  <nAHRing 2>
0

>  <nFRing>
0

>  <nFHRing>
0

>  <nFaRing>
0

>  <nFaHRing>
0

>  <nFARing 2>
0

>  <nFAHRing 2>
0

>  <nRot>
6

>  <SLogP>
1.89

>  <SMR>
83.89

>  <TopoPSA(NO)>
92.95

>  <TopoPSA>
92.95

>  <JGI1>
0.28

>  <JGI2>
0.05

>  <JGI3>
0.07

>  <JGI4>
0.04

>  <JGI5>
0.03

>  <Diameter>
13

>  <Radius>
7

>  <TMWC10>
116.68

>  <TSRW10>
55.41

>  <MW>
303.15

>  <AMW>
7.05

>  <WPath>
1237

>  <WPol>
28

>  <Zagreb1>
108

>  <Zagreb2>
119

>  <mZagreb2>
4.83

>  <yes>


>  <nAR-cont>
0.336376

>  <nHA-cont>
0.983774276

>  <MWHBN>
0.574342843

>  <MWHBN-cont>
0

>  <TPSA-cont>
0.351151282

>  <pka_cont>
0.97

>  <yes.1>


>  <BBB_SCORE>
2.507452839

>  <MMFF94 Energy>
0.85464

$$$$
Compound 3018
Actelion Java MolfileCreator 2.0

  0  0  0  0  0  0              0 V3000
M  V30 BEGIN CTAB
M  V30 COUNTS 34 34 0 0 0
M  V30 BEGIN ATOM
M  V30 1 Cl -3.173 4.9216 -0.2377 0
M  V30 2 C -2.3398 3.505 0.2678 0
M  V30 3 C -1.5495 3.5359 1.4121 0
M  V30 4 C -2.4589 2.3299 -0.4697 0
M  V30 5 C -0.8736 2.3809 1.8178 0
M  V30 6 C -1.7821 1.1736 -0.0617 0
M  V30 7 C -0.9791 1.1855 1.0847 0
M  V30 8 C -0.2231 -0.0095 1.5937 0
M  V30 9 O 0.319 0.0802 2.701 0
M  V30 10 C -0.147 -1.337 0.8243 0 CFG=2
M  V30 11 N 0.1278 -1.1701 -0.6156 0
M  V30 12 C -1.4415 -2.1233 1.0426 0
M  V30 13 C 1.5415 -0.9963 -1.0152 0
M  V30 14 C 2.2823 0.112 -0.2523 0
M  V30 15 C 1.5025 -0.6062 -2.5064 0
M  V30 16 C 2.3146 -2.3213 -0.8838 0
M  V30 17 H -1.4522 4.4489 1.9936 0
M  V30 18 H -3.0745 2.3036 -1.3654 0
M  V30 19 H -0.2581 2.421 2.7157 0
M  V30 20 H -1.9001 0.2812 -0.667 0
M  V30 21 H 0.6547 -1.9262 1.284 0
M  V30 22 H -0.2393 -1.9814 -1.1158 0
M  V30 23 H -1.3611 -3.1307 0.6195 0
M  V30 24 H -1.654 -2.2269 2.1127 0
M  V30 25 H -2.309 -1.6365 0.5865 0
M  V30 26 H 2.4211 -0.139 0.804 0
M  V30 27 H 3.2825 0.2717 -0.6725 0
M  V30 28 H 1.751 1.0679 -0.316 0
M  V30 29 H 0.9577 0.3334 -2.6585 0
M  V30 30 H 2.514 -0.4693 -2.9064 0
M  V30 31 H 1.0133 -1.3779 -3.113 0
M  V30 32 H 2.4258 -2.6308 0.1604 0
M  V30 33 H 1.8123 -3.1334 -1.4222 0
M  V30 34 H 3.3236 -2.228 -1.3025 0
M  V30 END ATOM
M  V30 BEGIN BOND
M  V30 1 1 1 2
M  V30 2 2 2 3
M  V30 3 1 2 4
M  V30 4 1 3 5
M  V30 5 2 4 6
M  V30 6 2 5 7
M  V30 7 1 7 8
M  V30 8 2 8 9
M  V30 9 1 8 10
M  V30 10 1 10 11
M  V30 11 1 10 12
M  V30 12 1 11 13
M  V30 13 1 13 14
M  V30 14 1 13 15
M  V30 15 1 13 16
M  V30 16 1 6 7
M  V30 17 1 3 17
M  V30 18 1 4 18
M  V30 19 1 5 19
M  V30 20 1 6 20
M  V30 21 1 10 21
M  V30 22 1 11 22
M  V30 23 1 12 23
M  V30 24 1 12 24
M  V30 25 1 12 25
M  V30 26 1 14 26
M  V30 27 1 14 27
M  V30 28 1 14 28
M  V30 29 1 15 29
M  V30 30 1 15 30
M  V30 31 1 15 31
M  V30 32 1 16 32
M  V30 33 1 16 33
M  V30 34 1 16 34
M  V30 END BOND
M  V30 BEGIN COLLECTION
M  V30 MDLV30/STEABS ATOMS=(1 10)
M  V30 END COLLECTION
M  V30 END CTAB
M  END
>  <Column 1>
3879

>  <level_0>
7449

>  <index>
7450

>  <Unnamed: 0>
7450

>  <NO.>
7463

>  <Name>
zinc33647603

>  <IUPAC_name>
(2r)-2-(tert-butylamino)-1-(4-chlorophenyl)propan-1-one

>  <SMILES>
C[C@@H](NC(C)(C)C)C(=O)c1ccc(Cl)cc1

>  <CID>
92954503

>  <logBB>


>  <BBB+/BBB->
BBB+

>  <Inchi>
InChI=1S/C13H18ClNO/c1-9(15-13(2-3)4)12(16)10-5-7-11(14)8-6-10/h5-9-15H-1-4H3/t9-/m1/s1

>  <threshold>


>  <reference>
R27|

>  <group>
C

>  <Class>
1

>  <ABC>
12.04

>  <ABCGG>
11.02

>  <nAcid>
0

>  <nBase>
1

>  <nAromAtom>
6

>  <nAromBond>
6

>  <nAtom>
34

>  <nHeavyAtom>
16

>  <nSpiro>
0

>  <nBridgehead>
0

>  <nHetero>
3

>  <nN>
1

>  <nO>
1

>  <nF>
0

>  <BalabanJ>
2.41

>  <BertzCT>
364.51

>  <nBonds>
34

>  <nBondsO>
16

>  <nBondsS>
27

>  <nBondsD>
1

>  <nBondsT>
0

>  <nBondsA>
6

>  <nBondsM>
7

>  <nBondsKS>
30

>  <nBondsKD>
4

>  <RNCG>
0.29

>  <RPCG>
0.17

>  <FCSP3>
0.46

>  <SZ>
21.33

>  <Sm>
19.96

>  <Sv>
20.44

>  <Sse>
33.75

>  <Sp>
22.63

>  <Si>
38.39

>  <MZ>
0.63

>  <Mm>
0.59

>  <Mv>
0.6

>  <Mse>
0.99

>  <Mp>
0.67

>  <Mi>
1.13

>  <NsCH3>
4

>  <NdCH2>
0

>  <NssCH2>
0

>  <NtCH>
0

>  <NdsCH>
0

>  <NaaCH>
4

>  <NsssCH>
1

>  <NddC>
0

>  <NtsC>
0

>  <NdssC>
1

>  <NaasC>
2

>  <NaaaC>
0

>  <NssssC>
1

>  <NsNH3>
0

>  <NsNH2>
0

>  <NssNH2>
0

>  <NdNH>
0

>  <NssNH>
1

>  <NaaNH>
0

>  <NtN>
0

>  <NsssNH>
0

>  <NdsN>
0

>  <NaaN>
0

>  <NsssN>
0

>  <NddsN>
0

>  <NaasN>
0

>  <NssssN>
0

>  <NsOH>
0

>  <NdO>
1

>  <NssO>
0

>  <NaaO>
0

>  <NsF>
0

>  <NsSiH3>
0

>  <NssSiH2>
0

>  <NsssSiH>
0

>  <NssssSi>
0

>  <NsPH2>
0

>  <NssPH>
0

>  <NsssP>
0

>  <NdsssP>
0

>  <NsssssP>
0

>  <NsSH>
0

>  <NdS>
0

>  <NssS>
0

>  <NaaS>
0

>  <NdssS>
0

>  <NddssS>
0

>  <NsCl>
1

>  <NsBr>
0

>  <NsI>
0

>  <fragCpx>
16.03

>  <fMF>
0.18

>  <nHBAcc>
2

>  <nHBDon>
1

>  <Kier1>
14.06

>  <Kier2>
5.56

>  <Lipinski>
1

>  <GhoseFilter>
1

>  <FilterItLogS>
-4.06

>  <VMcGowan>
194.06

>  <LabuteASA>
102

>  <PEOE_VSA1>
5.32

>  <PEOE_VSA2>
4.79

>  <PEOE_VSA3>
0

>  <PEOE_VSA4>
0

>  <PEOE_VSA5>
0

>  <PEOE_VSA6>
11.6

>  <PEOE_VSA7>
51.96

>  <PEOE_VSA8>
16.13

>  <PEOE_VSA9>
6.04

>  <PEOE_VSA10>
0

>  <PEOE_VSA11>
5.78

>  <PEOE_VSA12>
0

>  <PEOE_VSA13>
0

>  <SMR_VSA1>
4.79

>  <SMR_VSA2>
0

>  <SMR_VSA3>
5.32

>  <SMR_VSA4>
0

>  <SMR_VSA5>
39.28

>  <SMR_VSA6>
0

>  <SMR_VSA7>
34.85

>  <SMR_VSA8>
0

>  <SMR_VSA9>
0

>  <SlogP_VSA1>
5.32

>  <SlogP_VSA2>
17.36

>  <SlogP_VSA3>
0

>  <SlogP_VSA4>
0

>  <SlogP_VSA5>
38.05

>  <SlogP_VSA6>
24.27

>  <SlogP_VSA7>
5.02

>  <SlogP_VSA8>
0

>  <SlogP_VSA9>
0

>  <SlogP_VSA10>
0

>  <SlogP_VSA11>
0

>  <EState_VSA1>
0

>  <EState_VSA2>
17.36

>  <EState_VSA3>
10.59

>  <EState_VSA4>
0

>  <EState_VSA5>
0

>  <EState_VSA6>
24.27

>  <EState_VSA7>
27.69

>  <EState_VSA8>
5.32

>  <EState_VSA9>
11.6

>  <EState_VSA10>
4.79

>  <VSA_EState1>
0

>  <VSA_EState2>
12.03

>  <VSA_EState3>
3.9

>  <VSA_EState4>
0.62

>  <VSA_EState5>
0.09

>  <VSA_EState6>
6.79

>  <VSA_EState7>
0

>  <VSA_EState8>
8

>  <VSA_EState9>
0

>  <apol>
37.79

>  <bpol>
20.01

>  <nRing>
1

>  <nHRing>
0

>  <naRing>
1

>  <naHRing>
0

>  <nARing 2>
0

>  <nAHRing 2>
0

>  <nFRing>
0

>  <nFHRing>
0

>  <nFaRing>
0

>  <nFaHRing>
0

>  <nFARing 2>
0

>  <nFAHRing 2>
0

>  <nRot>
3

>  <SLogP>
3.3

>  <SMR>
68.13

>  <TopoPSA(NO)>
29.1

>  <TopoPSA>
29.1

>  <JGI1>
0.34

>  <JGI2>
0.1

>  <JGI3>
0.07

>  <JGI4>
0.05

>  <JGI5>
0.03

>  <Diameter>
9

>  <Radius>
5

>  <TMWC10>
101.02

>  <TSRW10>
47.98

>  <MW>
239.11

>  <AMW>
7.03

>  <WPath>
463

>  <WPol>
20

>  <Zagreb1>
78

>  <Zagreb2>
85

>  <mZagreb2>
3.43

>  <yes>


>  <nAR-cont>
0.336376

>  <nHA-cont>
0.954961865

>  <MWHBN>
0.194009227

>  <MWHBN-cont>
0.997763315

>  <TPSA-cont>
0.79686393

>  <pka_cont>
0.97

>  <yes.1>


>  <BBB_SCORE>
4.866710697

>  <MMFF94 Energy>
74.806

$$$$
Compound 3019
Actelion Java MolfileCreator 2.0

  0  0  0  0  0  0              0 V3000
M  V30 BEGIN CTAB
M  V30 COUNTS 37 38 0 0 0
M  V30 BEGIN ATOM
M  V30 1 S -1.7968 -0.1632 1.1431 0
M  V30 2 O -0.9701 -0.9921 1.9969 0
M  V30 3 O -2.1657 1.1684 1.5861 0
M  V30 4 C -1.0516 -0.0328 -0.4981 0 CFG=2
M  V30 5 C -3.3016 -1.0641 0.8511 0
M  V30 6 C 0.5104 0.0514 -0.464 0 CFG=1
M  V30 7 C -1.7324 1.0932 -1.2918 0
M  V30 8 O 0.964 0.2041 -1.8414 0
M  V30 9 C 1.0405 1.2516 0.3501 0
M  V30 10 C 1.2004 -1.2833 -0.0397 0
M  V30 11 C 1.1528 2.5347 -0.2187 0
M  V30 12 C 1.4123 1.1323 1.704 0
M  V30 13 N 0.7901 -2.4366 -0.8191 0
M  V30 14 F 0.8088 2.721 -1.5027 0
M  V30 15 C 1.6148 3.6379 0.4924 0
M  V30 16 C 1.8765 2.2355 2.4305 0
M  V30 17 N -0.2737 -3.1817 -0.4548 0
M  V30 18 C 1.3755 -2.9386 -1.9394 0
M  V30 19 C 1.975 3.476 1.8176 0
M  V30 20 C -0.2514 -4.1393 -1.3865 0
M  V30 21 N 0.7351 -4.0195 -2.3218 0
M  V30 22 F 2.4219 4.527 2.5163 0
M  V30 23 H -1.3377 -0.9493 -1.0224 0
M  V30 24 H -3.9371 -0.4946 0.1721 0
M  V30 25 H -3.8085 -1.195 1.8096 0
M  V30 26 H -3.0542 -2.0385 0.4266 0
M  V30 27 H -1.5796 2.0737 -0.8325 0
M  V30 28 H -1.3691 1.1337 -2.323 0
M  V30 29 H -2.8145 0.9318 -1.3425 0
M  V30 30 H 0.8751 1.1374 -2.1123 0
M  V30 31 H 2.286 -1.1963 -0.1884 0
M  V30 32 H 1.0616 -1.556 1.0074 0
M  V30 33 H 1.331 0.1901 2.2428 0
M  V30 34 H 1.6881 4.6095 0.0182 0
M  V30 35 H 2.1502 2.1312 3.4769 0
M  V30 36 H 2.2343 -2.4899 -2.4191 0
M  V30 37 H -0.9757 -4.9438 -1.3882 0
M  V30 END ATOM
M  V30 BEGIN BOND
M  V30 1 2 1 2
M  V30 2 2 1 3
M  V30 3 1 1 4
M  V30 4 1 1 5
M  V30 5 1 4 6
M  V30 6 1 4 7
M  V30 7 1 6 8
M  V30 8 1 6 9
M  V30 9 1 6 10
M  V30 10 2 9 11
M  V30 11 1 9 12
M  V30 12 1 10 13
M  V30 13 1 11 14
M  V30 14 1 11 15
M  V30 15 2 12 16
M  V30 16 1 13 17
M  V30 17 1 13 18
M  V30 18 2 15 19
M  V30 19 2 17 20
M  V30 20 2 18 21
M  V30 21 1 19 22
M  V30 22 1 16 19
M  V30 23 1 20 21
M  V30 24 1 4 23
M  V30 25 1 5 24
M  V30 26 1 5 25
M  V30 27 1 5 26
M  V30 28 1 7 27
M  V30 29 1 7 28
M  V30 30 1 7 29
M  V30 31 1 8 30
M  V30 32 1 10 31
M  V30 33 1 10 32
M  V30 34 1 12 33
M  V30 35 1 15 34
M  V30 36 1 16 35
M  V30 37 1 18 36
M  V30 38 1 20 37
M  V30 END BOND
M  V30 BEGIN COLLECTION
M  V30 MDLV30/STEABS ATOMS=(2 4 6)
M  V30 END COLLECTION
M  V30 END CTAB
M  END
>  <Column 1>
3880

>  <level_0>
7456

>  <index>
7457

>  <Unnamed: 0>
7457

>  <NO.>
7470

>  <Name>
(2r-3s)-1-(1h-1-2-4-triazol-1-yl)-2-(2-4-difluorophenyl)-3-(methylsulfonyl)-2-butanol

>  <IUPAC_name>
(2r-3s)-2-(2-4-difluorophenyl)-3-methylsulfonyl-1-(1-2-4-triazol-1-yl)butan-2-ol

>  <SMILES>
C[C@@H]([C@](O)(Cn1cncn1)c1ccc(F)cc1F)S(C)(=O)=O

>  <CID>
10520503

>  <logBB>


>  <BBB+/BBB->
BBB+

>  <Inchi>
InChI=1S/C13H15F2N3O3S/c1-9(22(2-20)21)13(19-6-18-8-16-7-17-18)11-4-3-10(14)5-12(11)15/h3-5-7-9-19H-6H2-1-2H3/t9--13+/m0/s1

>  <threshold>


>  <reference>
R27|

>  <group>
C

>  <Class>
1

>  <ABC>
17

>  <ABCGG>
15.79

>  <nAcid>
0

>  <nBase>
0

>  <nAromAtom>
11

>  <nAromBond>
11

>  <nAtom>
37

>  <nHeavyAtom>
22

>  <nSpiro>
0

>  <nBridgehead>
0

>  <nHetero>
9

>  <nN>
3

>  <nO>
3

>  <nF>
2

>  <BalabanJ>
2.23

>  <BertzCT>
764.84

>  <nBonds>
38

>  <nBondsO>
23

>  <nBondsS>
25

>  <nBondsD>
2

>  <nBondsT>
0

>  <nBondsA>
11

>  <nBondsM>
13

>  <nBondsKS>
31

>  <nBondsKD>
7

>  <RNCG>
0.19

>  <RPCG>
0.11

>  <FCSP3>
0.38

>  <SZ>
28.67

>  <Sm>
27.59

>  <Sv>
23.96

>  <Sse>
38.63

>  <Sp>
24.81

>  <Si>
42.63

>  <MZ>
0.77

>  <Mm>
0.75

>  <Mv>
0.65

>  <Mse>
1.04

>  <Mp>
0.67

>  <Mi>
1.15

>  <NsCH3>
2

>  <NdCH2>
0

>  <NssCH2>
1

>  <NtCH>
0

>  <NdsCH>
0

>  <NaaCH>
5

>  <NsssCH>
1

>  <NddC>
0

>  <NtsC>
0

>  <NdssC>
0

>  <NaasC>
3

>  <NaaaC>
0

>  <NssssC>
1

>  <NsNH3>
0

>  <NsNH2>
0

>  <NssNH2>
0

>  <NdNH>
0

>  <NssNH>
0

>  <NaaNH>
0

>  <NtN>
0

>  <NsssNH>
0

>  <NdsN>
0

>  <NaaN>
2

>  <NsssN>
0

>  <NddsN>
0

>  <NaasN>
1

>  <NssssN>
0

>  <NsOH>
1

>  <NdO>
2

>  <NssO>
0

>  <NaaO>
0

>  <NsF>
2

>  <NsSiH3>
0

>  <NssSiH2>
0

>  <NsssSiH>
0

>  <NssssSi>
0

>  <NsPH2>
0

>  <NssPH>
0

>  <NsssP>
0

>  <NdsssP>
0

>  <NsssssP>
0

>  <NsSH>
0

>  <NdS>
0

>  <NssS>
0

>  <NaaS>
0

>  <NdssS>
0

>  <NddssS>
1

>  <NsCl>
0

>  <NsBr>
0

>  <NsI>
0

>  <fragCpx>
67.09

>  <fMF>
0.35

>  <nHBAcc>
6

>  <nHBDon>
1

>  <Kier1>
18.34

>  <Kier2>
6.86

>  <Lipinski>
1

>  <GhoseFilter>
1

>  <FilterItLogS>
-2.96

>  <VMcGowan>
218.23

>  <LabuteASA>
125.89

>  <PEOE_VSA1>
5.11

>  <PEOE_VSA2>
0

>  <PEOE_VSA3>
26.86

>  <PEOE_VSA4>
5.1

>  <PEOE_VSA5>
0

>  <PEOE_VSA6>
6.07

>  <PEOE_VSA7>
12.99

>  <PEOE_VSA8>
17.89

>  <PEOE_VSA9>
11.79

>  <PEOE_VSA10>
29.89

>  <PEOE_VSA11>
9.84

>  <PEOE_VSA12>
0

>  <PEOE_VSA13>
0

>  <SMR_VSA1>
22.31

>  <SMR_VSA2>
0

>  <SMR_VSA3>
14.76

>  <SMR_VSA4>
0

>  <SMR_VSA5>
24.32

>  <SMR_VSA6>
6.26

>  <SMR_VSA7>
48.05

>  <SMR_VSA8>
0

>  <SMR_VSA9>
0

>  <SlogP_VSA1>
0

>  <SlogP_VSA2>
39.79

>  <SlogP_VSA3>
21.98

>  <SlogP_VSA4>
11.63

>  <SlogP_VSA5>
12.49

>  <SlogP_VSA6>
30.85

>  <SlogP_VSA7>
0

>  <SlogP_VSA8>
0

>  <SlogP_VSA9>
0

>  <SlogP_VSA10>
8.78

>  <SlogP_VSA11>
0

>  <EState_VSA1>
32.32

>  <EState_VSA2>
12.11

>  <EState_VSA3>
6.07

>  <EState_VSA4>
18.39

>  <EState_VSA5>
24.26

>  <EState_VSA6>
0

>  <EState_VSA7>
0

>  <EState_VSA8>
10.08

>  <EState_VSA9>
0

>  <EState_VSA10>
22.31

>  <VSA_EState1>
52.06

>  <VSA_EState2>
3.7

>  <VSA_EState3>
13.35

>  <VSA_EState4>
-2.44

>  <VSA_EState5>
-1.85

>  <VSA_EState6>
2.58

>  <VSA_EState7>
3.4

>  <VSA_EState8>
0.92

>  <VSA_EState9>
-3.71

>  <apol>
41.43

>  <bpol>
26.78

>  <nRing>
2

>  <nHRing>
1

>  <naRing>
2

>  <naHRing>
1

>  <nARing 2>
0

>  <nAHRing 2>
0

>  <nFRing>
0

>  <nFHRing>
0

>  <nFaRing>
0

>  <nFaHRing>
0

>  <nFARing 2>
0

>  <nFAHRing 2>
0

>  <nRot>
5

>  <SLogP>
0.88

>  <SMR>
74.58

>  <TopoPSA(NO)>
85.08

>  <TopoPSA>
93.46

>  <JGI1>
0.33

>  <JGI2>
0.11

>  <JGI3>
0.08

>  <JGI4>
0.04

>  <JGI5>
0.04

>  <Diameter>
9

>  <Radius>
5

>  <TMWC10>
120

>  <TSRW10>
69.58

>  <MW>
331.08

>  <AMW>
8.95

>  <WPath>
954

>  <WPol>
35

>  <Zagreb1>
116

>  <Zagreb2>
136

>  <mZagreb2>
4.65

>  <yes>


>  <nAR-cont>
0.336376

>  <nHA-cont>
0.983774276

>  <MWHBN>
0.384708309

>  <MWHBN-cont>
0.536303339

>  <TPSA-cont>
0.347591165

>  <pka_cont>
0.97

>  <yes.1>


>  <BBB_SCORE>
3.304787614

>  <MMFF94 Energy>
15.378

$$$$
Compound 3020
Actelion Java MolfileCreator 2.0

  0  0  0  0  0  0              0 V3000
M  V30 BEGIN CTAB
M  V30 COUNTS 31 32 0 0 0
M  V30 BEGIN ATOM
M  V30 1 F 5.3508 -1.4354 1.196 0
M  V30 2 C 4.514 -0.3969 1.0677 0
M  V30 3 C 3.1725 -0.6315 0.7789 0
M  V30 4 C 5.0 0.8943 1.2269 0
M  V30 5 C 2.2765 0.4403 0.6427 0
M  V30 6 C 4.129 1.9719 1.0952 0
M  V30 7 C 0.8551 0.2069 0.3381 0
M  V30 8 C 2.7789 1.7449 0.806 0
M  V30 9 C 0.4687 -0.5793 -0.7577 0
M  V30 10 C -0.1575 0.764 1.1338 0
M  V30 11 C -0.8813 -0.802 -1.0489 0
M  V30 12 C -1.509 0.5429 0.8466 0
M  V30 13 C -1.8873 -0.2444 -0.248 0
M  V30 14 C -3.3575 -0.475 -0.5469 0 CFG=1
M  V30 15 C -3.7474 0.069 -1.9087 0
M  V30 16 C -3.7378 -1.9532 -0.4363 0
M  V30 17 O -3.7606 -0.538 -2.9679 0
M  V30 18 O -4.0886 1.3748 -1.8719 0
M  V30 19 H 2.8346 -1.6586 0.6736 0
M  V30 20 H 6.0502 1.0506 1.451 0
M  V30 21 H 4.4961 2.9882 1.2136 0
M  V30 22 H 2.1157 2.6014 0.6947 0
M  V30 23 H 1.2224 -1.0189 -1.4086 0
M  V30 24 H 0.1 1.3714 1.9995 0
M  V30 25 H -1.1362 -1.4123 -1.9141 0
M  V30 26 H -2.2621 0.9933 1.4902 0
M  V30 27 H -3.9709 0.0572 0.1932 0
M  V30 28 H -3.2096 -2.5713 -1.1708 0
M  V30 29 H -4.8111 -2.0888 -0.611 0
M  V30 30 H -3.5041 -2.3445 0.56 0
M  V30 31 H -4.2724 1.5974 -2.8085 0
M  V30 END ATOM
M  V30 BEGIN BOND
M  V30 1 1 1 2
M  V30 2 2 2 3
M  V30 3 1 2 4
M  V30 4 1 3 5
M  V30 5 2 4 6
M  V30 6 1 5 7
M  V30 7 2 5 8
M  V30 8 2 7 9
M  V30 9 1 7 10
M  V30 10 1 9 11
M  V30 11 2 10 12
M  V30 12 2 11 13
M  V30 13 1 13 14
M  V30 14 1 14 15
M  V30 15 1 14 16
M  V30 16 2 15 17
M  V30 17 1 15 18
M  V30 18 1 6 8
M  V30 19 1 12 13
M  V30 20 1 3 19
M  V30 21 1 4 20
M  V30 22 1 6 21
M  V30 23 1 8 22
M  V30 24 1 9 23
M  V30 25 1 10 24
M  V30 26 1 11 25
M  V30 27 1 12 26
M  V30 28 1 14 27
M  V30 29 1 16 28
M  V30 30 1 16 29
M  V30 31 1 16 30
M  V30 32 1 18 31
M  V30 END BOND
M  V30 BEGIN COLLECTION
M  V30 MDLV30/STEABS ATOMS=(1 14)
M  V30 END COLLECTION
M  V30 END CTAB
M  END
>  <Column 1>
3882

>  <level_0>
7495

>  <index>
7496

>  <Unnamed: 0>
7496

>  <NO.>
7509

>  <Name>
unii-yay699l64p

>  <IUPAC_name>
(2s)-2-[4-(3-fluorophenyl)phenyl]propanoic acid

>  <SMILES>
C[C@H](C(=O)O)c1ccc(-c2cccc(F)c2)cc1

>  <CID>
76967121

>  <logBB>


>  <BBB+/BBB->
BBB+

>  <Inchi>
InChI=1S/C15H13FO2/c1-10(15(17)18)11-5-7-12(8-6-11)13-3-2-4-14(16)9-13/h2-10H-1H3-(H-17-18)/t10-/m0/s1

>  <threshold>


>  <reference>
R27|

>  <group>
C

>  <Class>
1

>  <ABC>
13.75

>  <ABCGG>
11.44

>  <nAcid>
1

>  <nBase>
0

>  <nAromAtom>
12

>  <nAromBond>
12

>  <nAtom>
31

>  <nHeavyAtom>
18

>  <nSpiro>
0

>  <nBridgehead>
0

>  <nHetero>
3

>  <nN>
0

>  <nO>
2

>  <nF>
1

>  <BalabanJ>
1.79

>  <BertzCT>
560.96

>  <nBonds>
32

>  <nBondsO>
19

>  <nBondsS>
19

>  <nBondsD>
1

>  <nBondsT>
0

>  <nBondsA>
12

>  <nBondsM>
13

>  <nBondsKS>
25

>  <nBondsKD>
7

>  <RNCG>
0.33

>  <RPCG>
0.22

>  <FCSP3>
0.13

>  <SZ>
21.33

>  <Sm>
20.34

>  <Sv>
20.6

>  <Sse>
31.39

>  <Sp>
21.48

>  <Si>
34.67

>  <MZ>
0.69

>  <Mm>
0.66

>  <Mv>
0.66

>  <Mse>
1.01

>  <Mp>
0.69

>  <Mi>
1.12

>  <NsCH3>
1

>  <NdCH2>
0

>  <NssCH2>
0

>  <NtCH>
0

>  <NdsCH>
0

>  <NaaCH>
8

>  <NsssCH>
1

>  <NddC>
0

>  <NtsC>
0

>  <NdssC>
1

>  <NaasC>
4

>  <NaaaC>
0

>  <NssssC>
0

>  <NsNH3>
0

>  <NsNH2>
0

>  <NssNH2>
0

>  <NdNH>
0

>  <NssNH>
0

>  <NaaNH>
0

>  <NtN>
0

>  <NsssNH>
0

>  <NdsN>
0

>  <NaaN>
0

>  <NsssN>
0

>  <NddsN>
0

>  <NaasN>
0

>  <NssssN>
0

>  <NsOH>
1

>  <NdO>
1

>  <NssO>
0

>  <NaaO>
0

>  <NsF>
1

>  <NsSiH3>
0

>  <NssSiH2>
0

>  <NsssSiH>
0

>  <NssssSi>
0

>  <NsPH2>
0

>  <NssPH>
0

>  <NsssP>
0

>  <NdsssP>
0

>  <NsssssP>
0

>  <NsSH>
0

>  <NdS>
0

>  <NssS>
0

>  <NaaS>
0

>  <NdssS>
0

>  <NddssS>
0

>  <NsCl>
0

>  <NsBr>
0

>  <NsI>
0

>  <fragCpx>
55.03

>  <fMF>
0.39

>  <nHBAcc>
1

>  <nHBDon>
1

>  <Kier1>
14.41

>  <Kier2>
6.44

>  <Lipinski>
1

>  <GhoseFilter>
1

>  <FilterItLogS>
-3.8

>  <VMcGowan>
183.89

>  <LabuteASA>
104.7

>  <PEOE_VSA1>
5.11

>  <PEOE_VSA2>
4.79

>  <PEOE_VSA3>
4.39

>  <PEOE_VSA4>
0

>  <PEOE_VSA5>
0

>  <PEOE_VSA6>
36.4

>  <PEOE_VSA7>
35.75

>  <PEOE_VSA8>
0

>  <PEOE_VSA9>
5.92

>  <PEOE_VSA10>
5.82

>  <PEOE_VSA11>
0

>  <PEOE_VSA12>
0

>  <PEOE_VSA13>
0

>  <SMR_VSA1>
14.29

>  <SMR_VSA2>
0

>  <SMR_VSA3>
0

>  <SMR_VSA4>
0

>  <SMR_VSA5>
12.84

>  <SMR_VSA6>
0

>  <SMR_VSA7>
59.91

>  <SMR_VSA8>
0

>  <SMR_VSA9>
11.13

>  <SlogP_VSA1>
0

>  <SlogP_VSA2>
11.08

>  <SlogP_VSA3>
4.79

>  <SlogP_VSA4>
5.82

>  <SlogP_VSA5>
18.41

>  <SlogP_VSA6>
48.53

>  <SlogP_VSA7>
0

>  <SlogP_VSA8>
11.13

>  <SlogP_VSA9>
0

>  <SlogP_VSA10>
4.39

>  <SlogP_VSA11>
0

>  <EState_VSA1>
11.89

>  <EState_VSA2>
5.82

>  <EState_VSA3>
0

>  <EState_VSA4>
16.69

>  <EState_VSA5>
12.13

>  <EState_VSA6>
25.12

>  <EState_VSA7>
18.2

>  <EState_VSA8>
0

>  <EState_VSA9>
5.11

>  <EState_VSA10>
9.18

>  <VSA_EState1>
13.09

>  <VSA_EState2>
10.85

>  <VSA_EState3>
8.91

>  <VSA_EState4>
2.39

>  <VSA_EState5>
-1.67

>  <VSA_EState6>
13.46

>  <VSA_EState7>
0

>  <VSA_EState8>
1.64

>  <VSA_EState9>
0

>  <apol>
35.88

>  <bpol>
15.02

>  <nRing>
2

>  <nHRing>
0

>  <naRing>
2

>  <naHRing>
0

>  <nARing 2>
0

>  <nAHRing 2>
0

>  <nFRing>
0

>  <nFHRing>
0

>  <nFaRing>
0

>  <nFaHRing>
0

>  <nFARing 2>
0

>  <nFAHRing 2>
0

>  <nRot>
3

>  <SLogP>
3.68

>  <SMR>
67.89

>  <TopoPSA(NO)>
37.3

>  <TopoPSA>
37.3

>  <JGI1>
0.21

>  <JGI2>
0.09

>  <JGI3>
0.04

>  <JGI4>
0.04

>  <JGI5>
0.03

>  <Diameter>
10

>  <Radius>
5

>  <TMWC10>
107.94

>  <TSRW10>
50.78

>  <MW>
244.09

>  <AMW>
7.87

>  <WPath>
652

>  <WPol>
26

>  <Zagreb1>
90

>  <Zagreb2>
103

>  <mZagreb2>
4

>  <yes>


>  <nAR-cont>
0.336376

>  <nHA-cont>
0.991161285

>  <MWHBN>
0.128013273

>  <MWHBN-cont>
0.862010389

>  <TPSA-cont>
0.739622838

>  <pka_cont>
0.97

>  <yes.1>


>  <BBB_SCORE>
4.584798544

>  <MMFF94 Energy>
34.952

$$$$
Compound 3021
Actelion Java MolfileCreator 2.0

  0  0  0  0  0  0              0 V3000
M  V30 BEGIN CTAB
M  V30 COUNTS 36 38 0 0 0
M  V30 BEGIN ATOM
M  V30 1 O 2.3198 -1.5194 -1.1993 0
M  V30 2 C 1.757 -0.552 -1.6788 0
M  V30 3 N 0.762 0.2776 -1.1543 0
M  V30 4 C 2.0658 -0.0458 -3.0221 0
M  V30 5 C 0.1195 0.1163 0.0975 0
M  V30 6 C 0.4101 1.345 -2.0795 0
M  V30 7 C 1.2673 1.0665 -3.2676 0
M  V30 8 C 2.9705 -0.5326 -3.9472 0
M  V30 9 C 0.0753 -1.128 0.7337 0
M  V30 10 C -0.5125 1.1982 0.7237 0
M  V30 11 C 1.3552 1.7387 -4.4741 0
M  V30 12 C 3.0656 0.1386 -5.167 0
M  V30 13 C -0.574 -1.2889 1.9635 0
M  V30 14 C -1.1621 1.0413 1.9545 0
M  V30 15 C 2.2636 1.2651 -5.4278 0
M  V30 16 C -1.1987 -0.2043 2.5912 0
M  V30 17 C -1.9059 -0.3593 3.9249 0 CFG=1
M  V30 18 C -3.0803 -1.316 3.832 0
M  V30 19 C -0.9455 -0.7953 5.0337 0
M  V30 20 O -3.0995 -2.4941 4.1507 0
M  V30 21 O -4.1879 -0.7352 3.3227 0
M  V30 22 H 0.6676 2.3166 -1.6472 0
M  V30 23 H -0.6532 1.2812 -2.3304 0
M  V30 24 H 3.5788 -1.4034 -3.7267 0
M  V30 25 H 0.5349 -2.0046 0.284 0
M  V30 26 H -0.505 2.1899 0.2827 0
M  V30 27 H 0.7418 2.6096 -4.6829 0
M  V30 28 H 3.7649 -0.2116 -5.9229 0
M  V30 29 H -0.5852 -2.2777 2.4194 0
M  V30 30 H -1.6386 1.907 2.4104 0
M  V30 31 H 2.3537 1.7739 -6.3856 0
M  V30 32 H -2.3172 0.61 4.2383 0
M  V30 33 H -0.5153 -1.7846 4.842 0
M  V30 34 H -1.4676 -0.8505 5.9956 0
M  V30 35 H -0.1181 -0.0848 5.1374 0
M  V30 36 H -4.8388 -1.4669 3.2837 0
M  V30 END ATOM
M  V30 BEGIN BOND
M  V30 1 2 1 2
M  V30 2 1 2 3
M  V30 3 1 2 4
M  V30 4 1 3 5
M  V30 5 1 3 6
M  V30 6 2 4 7
M  V30 7 1 4 8
M  V30 8 2 5 9
M  V30 9 1 5 10
M  V30 10 1 7 11
M  V30 11 2 8 12
M  V30 12 1 9 13
M  V30 13 2 10 14
M  V30 14 2 11 15
M  V30 15 2 13 16
M  V30 16 1 16 17
M  V30 17 1 17 18
M  V30 18 1 17 19
M  V30 19 2 18 20
M  V30 20 1 18 21
M  V30 21 1 6 7
M  V30 22 1 12 15
M  V30 23 1 14 16
M  V30 24 1 6 22
M  V30 25 1 6 23
M  V30 26 1 8 24
M  V30 27 1 9 25
M  V30 28 1 10 26
M  V30 29 1 11 27
M  V30 30 1 12 28
M  V30 31 1 13 29
M  V30 32 1 14 30
M  V30 33 1 15 31
M  V30 34 1 17 32
M  V30 35 1 19 33
M  V30 36 1 19 34
M  V30 37 1 19 35
M  V30 38 1 21 36
M  V30 END BOND
M  V30 BEGIN COLLECTION
M  V30 MDLV30/STEABS ATOMS=(1 17)
M  V30 END COLLECTION
M  V30 END CTAB
M  END
>  <Column 1>
3883

>  <level_0>
7496

>  <index>
7497

>  <Unnamed: 0>
7497

>  <NO.>
7510

>  <Name>
dexindoprofen

>  <IUPAC_name>
(2s)-2-[4-(3-oxo-1h-isoindol-2-yl)phenyl]propanoic acid

>  <SMILES>
C[C@H](C(=O)O)c1ccc(N2Cc3ccccc3C2=O)cc1

>  <CID>
68700

>  <logBB>


>  <BBB+/BBB->
BBB+

>  <Inchi>
InChI=1S/C17H15NO3/c1-11(17(20)21)12-6-8-14(9-7-12)18-10-13-4-2-3-5-15(13)16(18)19/h2-9-11H-10H2-1H3-(H-20-21)/t11-/m0/s1

>  <threshold>


>  <reference>
R27|

>  <group>
C

>  <Class>
1

>  <ABC>
16.46

>  <ABCGG>
13.48

>  <nAcid>
1

>  <nBase>
0

>  <nAromAtom>
12

>  <nAromBond>
12

>  <nAtom>
36

>  <nHeavyAtom>
21

>  <nSpiro>
0

>  <nBridgehead>
0

>  <nHetero>
4

>  <nN>
1

>  <nO>
3

>  <nF>
0

>  <BalabanJ>
1.55

>  <BertzCT>
706.23

>  <nBonds>
38

>  <nBondsO>
23

>  <nBondsS>
24

>  <nBondsD>
2

>  <nBondsT>
0

>  <nBondsA>
12

>  <nBondsM>
14

>  <nBondsKS>
30

>  <nBondsKD>
8

>  <RNCG>
0.26

>  <RPCG>
0.17

>  <FCSP3>
0.18

>  <SZ>
24.67

>  <Sm>
23.42

>  <Sv>
23.97

>  <Sse>
36.31

>  <Sp>
25.09

>  <Si>
40.03

>  <MZ>
0.69

>  <Mm>
0.65

>  <Mv>
0.67

>  <Mse>
1.01

>  <Mp>
0.7

>  <Mi>
1.11

>  <NsCH3>
1

>  <NdCH2>
0

>  <NssCH2>
1

>  <NtCH>
0

>  <NdsCH>
0

>  <NaaCH>
8

>  <NsssCH>
1

>  <NddC>
0

>  <NtsC>
0

>  <NdssC>
2

>  <NaasC>
4

>  <NaaaC>
0

>  <NssssC>
0

>  <NsNH3>
0

>  <NsNH2>
0

>  <NssNH2>
0

>  <NdNH>
0

>  <NssNH>
0

>  <NaaNH>
0

>  <NtN>
0

>  <NsssNH>
0

>  <NdsN>
0

>  <NaaN>
0

>  <NsssN>
1

>  <NddsN>
0

>  <NaasN>
0

>  <NssssN>
0

>  <NsOH>
1

>  <NdO>
2

>  <NssO>
0

>  <NaaO>
0

>  <NsF>
0

>  <NsSiH3>
0

>  <NssSiH2>
0

>  <NsssSiH>
0

>  <NssssSi>
0

>  <NsPH2>
0

>  <NssPH>
0

>  <NsssP>
0

>  <NdsssP>
0

>  <NsssssP>
0

>  <NsSH>
0

>  <NdS>
0

>  <NssS>
0

>  <NaaS>
0

>  <NdssS>
0

>  <NddssS>
0

>  <NsCl>
0

>  <NsBr>
0

>  <NsI>
0

>  <fragCpx>
109.04

>  <fMF>
0.42

>  <nHBAcc>
2

>  <nHBDon>
1

>  <Kier1>
15.88

>  <Kier2>
6.63

>  <Lipinski>
1

>  <GhoseFilter>
1

>  <FilterItLogS>
-3.29

>  <VMcGowan>
211

>  <LabuteASA>
122.18

>  <PEOE_VSA1>
10.01

>  <PEOE_VSA2>
9.59

>  <PEOE_VSA3>
0

>  <PEOE_VSA4>
0

>  <PEOE_VSA5>
0

>  <PEOE_VSA6>
30.33

>  <PEOE_VSA7>
36.25

>  <PEOE_VSA8>
11.25

>  <PEOE_VSA9>
12.46

>  <PEOE_VSA10>
0

>  <PEOE_VSA11>
0

>  <PEOE_VSA12>
0

>  <PEOE_VSA13>
5.91

>  <SMR_VSA1>
14.7

>  <SMR_VSA2>
0

>  <SMR_VSA3>
0

>  <SMR_VSA4>
0

>  <SMR_VSA5>
19.39

>  <SMR_VSA6>
4.9

>  <SMR_VSA7>
65.22

>  <SMR_VSA8>
0

>  <SMR_VSA9>
0

>  <SlogP_VSA1>
4.9

>  <SlogP_VSA2>
16.98

>  <SlogP_VSA3>
11.34

>  <SlogP_VSA4>
0

>  <SlogP_VSA5>
34.33

>  <SlogP_VSA6>
48.53

>  <SlogP_VSA7>
0

>  <SlogP_VSA8>
0

>  <SlogP_VSA9>
0

>  <SlogP_VSA10>
5.69

>  <SlogP_VSA11>
0

>  <EState_VSA1>
11.89

>  <EState_VSA2>
5.91

>  <EState_VSA3>
6.54

>  <EState_VSA4>
22.38

>  <EState_VSA5>
0

>  <EState_VSA6>
36.09

>  <EState_VSA7>
24.27

>  <EState_VSA8>
0

>  <EState_VSA9>
5.11

>  <EState_VSA10>
9.59

>  <VSA_EState1>
0

>  <VSA_EState2>
25.04

>  <VSA_EState3>
9.01

>  <VSA_EState4>
3.28

>  <VSA_EState5>
-1.41

>  <VSA_EState6>
14.71

>  <VSA_EState7>
0

>  <VSA_EState8>
2.21

>  <VSA_EState9>
0

>  <apol>
41.9

>  <bpol>
18.49

>  <nRing>
3

>  <nHRing>
1

>  <naRing>
2

>  <naHRing>
0

>  <nARing 2>
1

>  <nAHRing 2>
1

>  <nFRing>
1

>  <nFHRing>
1

>  <nFaRing>
0

>  <nFaHRing>
0

>  <nFARing 2>
1

>  <nFAHRing 2>
1

>  <nRot>
3

>  <SLogP>
3.04

>  <SMR>
79.45

>  <TopoPSA(NO)>
57.61

>  <TopoPSA>
57.61

>  <JGI1>
0.17

>  <JGI2>
0.09

>  <JGI3>
0.06

>  <JGI4>
0.04

>  <JGI5>
0.03

>  <Diameter>
11

>  <Radius>
6

>  <TMWC10>
118.42

>  <TSRW10>
69.39

>  <MW>
281.11

>  <AMW>
7.81

>  <WPath>
964

>  <WPol>
34

>  <Zagreb1>
112

>  <Zagreb2>
134

>  <mZagreb2>
4.58

>  <yes>


>  <nAR-cont>
0.816016

>  <nHA-cont>
0.994529749

>  <MWHBN>
0.178929977

>  <MWHBN-cont>
0.985981061

>  <TPSA-cont>
0.597846426

>  <pka_cont>
0.97

>  <yes.1>


>  <BBB_SCORE>
4.970210193

>  <MMFF94 Energy>
46.223

$$$$
Compound 3022
Actelion Java MolfileCreator 2.0

  0  0  0  0  0  0              0 V3000
M  V30 BEGIN CTAB
M  V30 COUNTS 38 39 0 0 0
M  V30 BEGIN ATOM
M  V30 1 O 3.2551 2.381 3.8117 0
M  V30 2 C 2.332 2.9672 3.2656 0
M  V30 3 O 2.5855 4.058 2.5146 0
M  V30 4 C 0.8718 2.5526 3.3032 0 CFG=2
M  V30 5 C 0.5488 1.5418 2.2176 0
M  V30 6 C -0.0787 3.7531 3.2891 0
M  V30 7 C 0.5396 1.8986 0.8623 0
M  V30 8 C 0.2666 0.2126 2.5593 0
M  V30 9 C 0.2458 0.953 -0.1244 0
M  V30 10 C -0.0268 -0.7324 1.5721 0
M  V30 11 C -0.0419 -0.3751 0.2174 0
M  V30 12 C -0.3646 -1.4209 -0.8346 0 CFG=1
M  V30 13 C -1.6489 -1.0756 -1.5993 0
M  V30 14 C 0.8147 -1.6392 -1.8038 0
M  V30 15 C -1.9081 -2.1516 -2.6328 0
M  V30 16 C 0.4942 -2.7262 -2.833 0
M  V30 17 N -3.0602 -2.7518 -2.6204 0
M  V30 18 C -0.7794 -2.4125 -3.6116 0
M  V30 19 O -3.162 -3.7081 -3.6328 0
M  V30 20 H 3.5604 4.1502 2.5651 0
M  V30 21 H 0.7332 2.0776 4.2848 0
M  V30 22 H -0.0209 4.3223 2.355 0
M  V30 23 H 0.1613 4.4435 4.1056 0
M  V30 24 H -1.1176 3.428 3.4146 0
M  V30 25 H 0.7661 2.9187 0.5576 0
M  V30 26 H 0.2748 -0.1038 3.6006 0
M  V30 27 H 0.2473 1.2695 -1.1649 0
M  V30 28 H -0.2424 -1.7551 1.8751 0
M  V30 29 H -0.536 -2.38 -0.324 0
M  V30 30 H -2.5017 -1.0016 -0.9143 0
M  V30 31 H -1.5642 -0.1191 -2.1283 0
M  V30 32 H 1.7126 -1.9273 -1.2428 0
M  V30 33 H 1.0601 -0.7096 -2.3329 0
M  V30 34 H 0.3807 -3.6879 -2.3171 0
M  V30 35 H 1.3342 -2.831 -3.5288 0
M  V30 36 H -1.0019 -3.234 -4.2961 0
M  V30 37 H -0.6433 -1.507 -4.2142 0
M  V30 38 H -4.0623 -4.0594 -3.4987 0
M  V30 END ATOM
M  V30 BEGIN BOND
M  V30 1 2 1 2
M  V30 2 1 2 3
M  V30 3 1 2 4
M  V30 4 1 4 5
M  V30 5 1 4 6
M  V30 6 2 5 7
M  V30 7 1 5 8
M  V30 8 1 7 9
M  V30 9 2 8 10
M  V30 10 2 9 11
M  V30 11 1 11 12
M  V30 12 1 12 13
M  V30 13 1 12 14
M  V30 14 1 13 15
M  V30 15 1 14 16
M  V30 16 2 15 17
M  V30 17 1 15 18
M  V30 18 1 17 19
M  V30 19 1 10 11
M  V30 20 1 16 18
M  V30 21 1 3 20
M  V30 22 1 4 21
M  V30 23 1 6 22
M  V30 24 1 6 23
M  V30 25 1 6 24
M  V30 26 1 7 25
M  V30 27 1 8 26
M  V30 28 1 9 27
M  V30 29 1 10 28
M  V30 30 1 12 29
M  V30 31 1 13 30
M  V30 32 1 13 31
M  V30 33 1 14 32
M  V30 34 1 14 33
M  V30 35 1 16 34
M  V30 36 1 16 35
M  V30 37 1 18 36
M  V30 38 1 18 37
M  V30 39 1 19 38
M  V30 END BOND
M  V30 BEGIN COLLECTION
M  V30 MDLV30/STEABS ATOMS=(2 4 12)
M  V30 END COLLECTION
M  V30 END CTAB
M  END
>  <Column 1>
3884

>  <level_0>
7497

>  <index>
7498

>  <Unnamed: 0>
7498

>  <NO.>
7511

>  <Name>
unii-yfd6wrv4j1 component iqppoxsmsdpzku-gxffztmasa-n

>  <IUPAC_name>
(2s)-2-[4-[(1r)-3-hydroxyiminocyclohexyl]phenyl]propanoic acid

>  <SMILES>
C[C@H](C(=O)O)c1ccc([C@@H]2CCCC(=NO)C2)cc1

>  <CID>
76960763

>  <logBB>


>  <BBB+/BBB->
BBB+

>  <Inchi>
InChI=1S/C15H19NO3/c1-10(15(17)18)11-5-7-12(8-6-11)13-3-2-4-14(9-13)16-19/h5-8-10-13-19H-2-4-9H2-1H3-(H-17-18)/t10--13+/m0/s1

>  <threshold>


>  <reference>
R27|

>  <group>
C

>  <Class>
1

>  <ABC>
14.35

>  <ABCGG>
11.92

>  <nAcid>
1

>  <nBase>
0

>  <nAromAtom>
6

>  <nAromBond>
6

>  <nAtom>
38

>  <nHeavyAtom>
19

>  <nSpiro>
0

>  <nBridgehead>
0

>  <nHetero>
4

>  <nN>
1

>  <nO>
3

>  <nF>
0

>  <BalabanJ>
1.79

>  <BertzCT>
478.67

>  <nBonds>
39

>  <nBondsO>
20

>  <nBondsS>
31

>  <nBondsD>
2

>  <nBondsT>
0

>  <nBondsA>
6

>  <nBondsM>
8

>  <nBondsKS>
34

>  <nBondsKD>
5

>  <RNCG>
0.28

>  <RPCG>
0.19

>  <FCSP3>
0.47

>  <SZ>
23.33

>  <Sm>
21.76

>  <Sv>
23.05

>  <Sse>
38.09

>  <Sp>
24.69

>  <Si>
42.86

>  <MZ>
0.61

>  <Mm>
0.57

>  <Mv>
0.61

>  <Mse>
1

>  <Mp>
0.65

>  <Mi>
1.13

>  <NsCH3>
1

>  <NdCH2>
0

>  <NssCH2>
4

>  <NtCH>
0

>  <NdsCH>
0

>  <NaaCH>
4

>  <NsssCH>
2

>  <NddC>
0

>  <NtsC>
0

>  <NdssC>
2

>  <NaasC>
2

>  <NaaaC>
0

>  <NssssC>
0

>  <NsNH3>
0

>  <NsNH2>
0

>  <NssNH2>
0

>  <NdNH>
0

>  <NssNH>
0

>  <NaaNH>
0

>  <NtN>
0

>  <NsssNH>
0

>  <NdsN>
1

>  <NaaN>
0

>  <NsssN>
0

>  <NddsN>
0

>  <NaasN>
0

>  <NssssN>
0

>  <NsOH>
2

>  <NdO>
1

>  <NssO>
0

>  <NaaO>
0

>  <NsF>
0

>  <NsSiH3>
0

>  <NssSiH2>
0

>  <NsssSiH>
0

>  <NssssSi>
0

>  <NsPH2>
0

>  <NssPH>
0

>  <NsssP>
0

>  <NdsssP>
0

>  <NsssssP>
0

>  <NsSH>
0

>  <NdS>
0

>  <NssS>
0

>  <NaaS>
0

>  <NdssS>
0

>  <NddssS>
0

>  <NsCl>
0

>  <NsBr>
0

>  <NsI>
0

>  <fragCpx>
58.04

>  <fMF>
0.32

>  <nHBAcc>
3

>  <nHBDon>
2

>  <Kier1>
15.39

>  <Kier2>
7.14

>  <Lipinski>
1

>  <GhoseFilter>
1

>  <FilterItLogS>
-2.5

>  <VMcGowan>
206.58

>  <LabuteASA>
112.31

>  <PEOE_VSA1>
10.31

>  <PEOE_VSA2>
4.79

>  <PEOE_VSA3>
0

>  <PEOE_VSA4>
0

>  <PEOE_VSA5>
0

>  <PEOE_VSA6>
29.42

>  <PEOE_VSA7>
49.65

>  <PEOE_VSA8>
0

>  <PEOE_VSA9>
11.63

>  <PEOE_VSA10>
0

>  <PEOE_VSA11>
0

>  <PEOE_VSA12>
0

>  <PEOE_VSA13>
0

>  <SMR_VSA1>
15.11

>  <SMR_VSA2>
0

>  <SMR_VSA3>
0

>  <SMR_VSA4>
5.16

>  <SMR_VSA5>
44.44

>  <SMR_VSA6>
0

>  <SMR_VSA7>
35.39

>  <SMR_VSA8>
0

>  <SMR_VSA9>
0

>  <SlogP_VSA1>
0

>  <SlogP_VSA2>
21.99

>  <SlogP_VSA3>
4.79

>  <SlogP_VSA4>
0

>  <SlogP_VSA5>
55.57

>  <SlogP_VSA6>
29.42

>  <SlogP_VSA7>
0

>  <SlogP_VSA8>
0

>  <SlogP_VSA9>
0

>  <SlogP_VSA10>
0

>  <SlogP_VSA11>
0

>  <EState_VSA1>
11.89

>  <EState_VSA2>
0

>  <EState_VSA3>
5.92

>  <EState_VSA4>
36.96

>  <EState_VSA5>
5.56

>  <EState_VSA6>
6.92

>  <EState_VSA7>
24.27

>  <EState_VSA8>
5.16

>  <EState_VSA9>
10.31

>  <EState_VSA10>
4.79

>  <VSA_EState1>
0

>  <VSA_EState2>
10.92

>  <VSA_EState3>
21.16

>  <VSA_EState4>
2.88

>  <VSA_EState5>
-0.9

>  <VSA_EState6>
7.77

>  <VSA_EState7>
3.8

>  <VSA_EState8>
1.69

>  <VSA_EState9>
0

>  <apol>
41.23

>  <bpol>
19.93

>  <nRing>
2

>  <nHRing>
0

>  <naRing>
1

>  <naHRing>
0

>  <nARing 2>
1

>  <nAHRing 2>
0

>  <nFRing>
0

>  <nFHRing>
0

>  <nFaRing>
0

>  <nFaHRing>
0

>  <nFARing 2>
0

>  <nFAHRing 2>
0

>  <nRot>
3

>  <SLogP>
3.36

>  <SMR>
72.92

>  <TopoPSA(NO)>
69.89

>  <TopoPSA>
69.89

>  <JGI1>
0.2

>  <JGI2>
0.09

>  <JGI3>
0.04

>  <JGI4>
0.03

>  <JGI5>
0.03

>  <Diameter>
11

>  <Radius>
6

>  <TMWC10>
110.38

>  <TSRW10>
51.99

>  <MW>
261.14

>  <AMW>
6.87

>  <WPath>
764

>  <WPol>
28

>  <Zagreb1>
94

>  <Zagreb2>
108

>  <mZagreb2>
4.33

>  <yes>


>  <nAR-cont>
0.816016

>  <nHA-cont>
0.998649058

>  <MWHBN>
0.309409258

>  <MWHBN-cont>
0.811746019

>  <TPSA-cont>
0.512124401

>  <pka_cont>
0.97

>  <yes.1>


>  <BBB_SCORE>
4.541532889

>  <MMFF94 Energy>
46.289

$$$$
Compound 3023
Actelion Java MolfileCreator 2.0

  0  0  0  0  0  0              0 V3000
M  V30 BEGIN CTAB
M  V30 COUNTS 32 33 0 0 0
M  V30 BEGIN ATOM
M  V30 1 O -1.6639 2.9331 -1.2675 0
M  V30 2 C -0.5977 2.449 -1.6182 0
M  V30 3 O 0.5538 2.9538 -1.1336 0
M  V30 4 C -0.4269 1.2564 -2.5457 0 CFG=2
M  V30 5 C -0.7519 -0.0487 -1.8409 0
M  V30 6 C 0.9466 1.2078 -3.2199 0
M  V30 7 C 2.0E-4 -0.4851 -0.7381 0
M  V30 8 C -1.8191 -0.8445 -2.2863 0
M  V30 9 C -0.3256 -1.6793 -0.0876 0
M  V30 10 C -2.1225 -2.0511 -1.6509 0
M  V30 11 O 0.3947 -2.1578 0.9832 0
M  V30 12 C -1.3709 -2.4725 -0.5556 0
M  V30 13 C 0.6556 -1.279 2.0109 0
M  V30 14 C -0.3218 -0.4468 2.5636 0
M  V30 15 C 1.9449 -1.2963 2.5441 0
M  V30 16 C 0.0055 0.3958 3.6271 0
M  V30 17 C 2.2696 -0.4531 3.6075 0
M  V30 18 C 1.3009 0.3949 4.1459 0
M  V30 19 H 0.2599 3.6651 -0.526 0
M  V30 20 H -1.1539 1.4211 -3.3533 0
M  V30 21 H 1.7578 1.0536 -2.4997 0
M  V30 22 H 1.1511 2.1457 -3.7483 0
M  V30 23 H 0.9933 0.3918 -3.9497 0
M  V30 24 H 0.8417 0.1053 -0.382 0
M  V30 25 H -2.4234 -0.5326 -3.136 0
M  V30 26 H -2.9465 -2.6621 -2.0106 0
M  V30 27 H -1.6044 -3.4117 -0.0622 0
M  V30 28 H -1.3376 -0.4525 2.1779 0
M  V30 29 H 2.6956 -1.9624 2.1284 0
M  V30 30 H -0.752 1.0474 4.0551 0
M  V30 31 H 3.2755 -0.4608 4.0189 0
M  V30 32 H 1.5534 1.0494 4.9765 0
M  V30 END ATOM
M  V30 BEGIN BOND
M  V30 1 2 1 2
M  V30 2 1 2 3
M  V30 3 1 2 4
M  V30 4 1 4 5
M  V30 5 1 4 6
M  V30 6 2 5 7
M  V30 7 1 5 8
M  V30 8 1 7 9
M  V30 9 2 8 10
M  V30 10 1 9 11
M  V30 11 2 9 12
M  V30 12 1 11 13
M  V30 13 2 13 14
M  V30 14 1 13 15
M  V30 15 1 14 16
M  V30 16 2 15 17
M  V30 17 2 16 18
M  V30 18 1 10 12
M  V30 19 1 17 18
M  V30 20 1 3 19
M  V30 21 1 4 20
M  V30 22 1 6 21
M  V30 23 1 6 22
M  V30 24 1 6 23
M  V30 25 1 7 24
M  V30 26 1 8 25
M  V30 27 1 10 26
M  V30 28 1 12 27
M  V30 29 1 14 28
M  V30 30 1 15 29
M  V30 31 1 16 30
M  V30 32 1 17 31
M  V30 33 1 18 32
M  V30 END BOND
M  V30 BEGIN COLLECTION
M  V30 MDLV30/STEABS ATOMS=(1 4)
M  V30 END COLLECTION
M  V30 END CTAB
M  END
>  <Column 1>
3885

>  <level_0>
7498

>  <index>
7499

>  <Unnamed: 0>
7499

>  <NO.>
7512

>  <Name>
(s)-fenoprofen

>  <IUPAC_name>
(2s)-2-(3-phenoxyphenyl)propanoic acid

>  <SMILES>
C[C@H](C(=O)O)c1cccc(Oc2ccccc2)c1

>  <CID>
6604558

>  <logBB>


>  <BBB+/BBB->
BBB+

>  <Inchi>
InChI=1S/C15H14O3/c1-11(15(16)17)12-6-5-9-14(10-12)18-13-7-3-2-4-8-13/h2-11H-1H3-(H-16-17)/t11-/m0/s1

>  <threshold>


>  <reference>
R27|

>  <group>
C

>  <Class>
1

>  <ABC>
13.68

>  <ABCGG>
11.49

>  <nAcid>
1

>  <nBase>
0

>  <nAromAtom>
12

>  <nAromBond>
12

>  <nAtom>
32

>  <nHeavyAtom>
18

>  <nSpiro>
0

>  <nBridgehead>
0

>  <nHetero>
3

>  <nN>
0

>  <nO>
3

>  <nF>
0

>  <BalabanJ>
1.78

>  <BertzCT>
534.44

>  <nBonds>
33

>  <nBondsO>
19

>  <nBondsS>
20

>  <nBondsD>
1

>  <nBondsT>
0

>  <nBondsA>
12

>  <nBondsM>
13

>  <nBondsKS>
26

>  <nBondsKD>
7

>  <RNCG>
0.29

>  <RPCG>
0.19

>  <FCSP3>
0.13

>  <SZ>
21.33

>  <Sm>
20.17

>  <Sv>
20.94

>  <Sse>
32.21

>  <Sp>
22.03

>  <Si>
35.54

>  <MZ>
0.67

>  <Mm>
0.63

>  <Mv>
0.65

>  <Mse>
1.01

>  <Mp>
0.69

>  <Mi>
1.11

>  <NsCH3>
1

>  <NdCH2>
0

>  <NssCH2>
0

>  <NtCH>
0

>  <NdsCH>
0

>  <NaaCH>
9

>  <NsssCH>
1

>  <NddC>
0

>  <NtsC>
0

>  <NdssC>
1

>  <NaasC>
3

>  <NaaaC>
0

>  <NssssC>
0

>  <NsNH3>
0

>  <NsNH2>
0

>  <NssNH2>
0

>  <NdNH>
0

>  <NssNH>
0

>  <NaaNH>
0

>  <NtN>
0

>  <NsssNH>
0

>  <NdsN>
0

>  <NaaN>
0

>  <NsssN>
0

>  <NddsN>
0

>  <NaasN>
0

>  <NssssN>
0

>  <NsOH>
1

>  <NdO>
1

>  <NssO>
1

>  <NaaO>
0

>  <NsF>
0

>  <NsSiH3>
0

>  <NssSiH2>
0

>  <NsssSiH>
0

>  <NssssSi>
0

>  <NsPH2>
0

>  <NssPH>
0

>  <NsssP>
0

>  <NdsssP>
0

>  <NsssssP>
0

>  <NsSH>
0

>  <NdS>
0

>  <NssS>
0

>  <NaaS>
0

>  <NdssS>
0

>  <NddssS>
0

>  <NsCl>
0

>  <NsBr>
0

>  <NsI>
0

>  <fragCpx>
55.03

>  <fMF>
0.41

>  <nHBAcc>
2

>  <nHBDon>
1

>  <Kier1>
14.41

>  <Kier2>
6.96

>  <Lipinski>
1

>  <GhoseFilter>
1

>  <FilterItLogS>
-3.11

>  <VMcGowan>
188

>  <LabuteASA>
105.65

>  <PEOE_VSA1>
9.84

>  <PEOE_VSA2>
4.79

>  <PEOE_VSA3>
0

>  <PEOE_VSA4>
0

>  <PEOE_VSA5>
0

>  <PEOE_VSA6>
30.33

>  <PEOE_VSA7>
36.75

>  <PEOE_VSA8>
0

>  <PEOE_VSA9>
5.92

>  <PEOE_VSA10>
11.5

>  <PEOE_VSA11>
0

>  <PEOE_VSA12>
0

>  <PEOE_VSA13>
0

>  <SMR_VSA1>
14.64

>  <SMR_VSA2>
0

>  <SMR_VSA3>
0

>  <SMR_VSA4>
0

>  <SMR_VSA5>
12.84

>  <SMR_VSA6>
0

>  <SMR_VSA7>
60.16

>  <SMR_VSA8>
0

>  <SMR_VSA9>
11.5

>  <SlogP_VSA1>
4.74

>  <SlogP_VSA2>
11.08

>  <SlogP_VSA3>
4.79

>  <SlogP_VSA4>
0

>  <SlogP_VSA5>
18.41

>  <SlogP_VSA6>
54.6

>  <SlogP_VSA7>
0

>  <SlogP_VSA8>
0

>  <SlogP_VSA9>
0

>  <SlogP_VSA10>
0

>  <SlogP_VSA11>
11.5

>  <EState_VSA1>
11.89

>  <EState_VSA2>
0

>  <EState_VSA3>
5.75

>  <EState_VSA4>
11.31

>  <EState_VSA5>
0

>  <EState_VSA6>
25.12

>  <EState_VSA7>
36.4

>  <EState_VSA8>
0

>  <EState_VSA9>
9.84

>  <EState_VSA10>
4.79

>  <VSA_EState1>
5.66

>  <VSA_EState2>
10.93

>  <VSA_EState3>
8.98

>  <VSA_EState4>
0.73

>  <VSA_EState5>
0

>  <VSA_EState6>
16.55

>  <VSA_EState7>
0

>  <VSA_EState8>
1.66

>  <VSA_EState9>
0

>  <apol>
36.79

>  <bpol>
16.65

>  <nRing>
2

>  <nHRing>
0

>  <naRing>
2

>  <naHRing>
0

>  <nARing 2>
0

>  <nAHRing 2>
0

>  <nFRing>
0

>  <nFHRing>
0

>  <nFaRing>
0

>  <nFaHRing>
0

>  <nFARing 2>
0

>  <nFAHRing 2>
0

>  <nRot>
4

>  <SLogP>
3.67

>  <SMR>
69.01

>  <TopoPSA(NO)>
46.53

>  <TopoPSA>
46.53

>  <JGI1>
0.18

>  <JGI2>
0.06

>  <JGI3>
0.04

>  <JGI4>
0.03

>  <JGI5>
0.02

>  <Diameter>
10

>  <Radius>
5

>  <TMWC10>
107.18

>  <TSRW10>
50.49

>  <MW>
242.09

>  <AMW>
7.57

>  <WPath>
650

>  <WPol>
24

>  <Zagreb1>
88

>  <Zagreb2>
99

>  <mZagreb2>
4.06

>  <yes>


>  <nAR-cont>
0.336376

>  <nHA-cont>
0.991161285

>  <MWHBN>
0.192811454

>  <MWHBN-cont>
0.997204127

>  <TPSA-cont>
0.675191707

>  <pka_cont>
0.97

>  <yes.1>


>  <BBB_SCORE>
4.658726888

>  <MMFF94 Energy>
44.075

$$$$
Compound 3024
Actelion Java MolfileCreator 2.0

  0  0  0  0  0  0              0 V3000
M  V30 BEGIN CTAB
M  V30 COUNTS 24 24 0 0 0
M  V30 BEGIN ATOM
M  V30 1 O 1.632 -1.5542 0.5437 0
M  V30 2 C 1.0512 -0.258 0.3423 0 CFG=1
M  V30 3 C 0.0042 -0.3773 -0.7441 0
M  V30 4 C 0.482 0.273 1.6933 0 CFG=1
M  V30 5 C -0.0272 0.5447 -1.8018 0
M  V30 6 C -0.9646 -1.3921 -0.7091 0
M  V30 7 N 1.4665 0.1708 2.7916 0
M  V30 8 C 0.0326 1.7305 1.5937 0
M  V30 9 C -1.0044 0.4547 -2.7953 0
M  V30 10 C -1.9403 -1.4814 -1.7032 0
M  V30 11 C -1.9607 -0.5571 -2.745 0
M  V30 12 H 2.4387 -1.4114 1.0636 0
M  V30 13 H 1.8636 0.3942 -0.0029 0
M  V30 14 H -0.3786 -0.3372 1.993 0
M  V30 15 H 0.7093 1.3427 -1.8598 0
M  V30 16 H -0.9529 -2.1267 0.0937 0
M  V30 17 H 1.6645 -0.8139 2.9649 0
M  V30 18 H 2.3398 0.6227 2.5293 0
M  V30 19 H -0.7864 1.8447 0.8768 0
M  V30 20 H 0.8545 2.3827 1.278 0
M  V30 21 H -0.3337 2.0944 2.5605 0
M  V30 22 H -1.0185 1.1738 -3.61 0
M  V30 23 H -2.6809 -2.2758 -1.665 0
M  V30 24 H -2.7193 -0.6282 -3.5196 0
M  V30 END ATOM
M  V30 BEGIN BOND
M  V30 1 1 1 2
M  V30 2 1 2 3
M  V30 3 1 2 4
M  V30 4 2 3 5
M  V30 5 1 3 6
M  V30 6 1 4 7
M  V30 7 1 4 8
M  V30 8 1 5 9
M  V30 9 2 6 10
M  V30 10 2 9 11
M  V30 11 1 10 11
M  V30 12 1 1 12
M  V30 13 1 2 13
M  V30 14 1 4 14
M  V30 15 1 5 15
M  V30 16 1 6 16
M  V30 17 1 7 17
M  V30 18 1 7 18
M  V30 19 1 8 19
M  V30 20 1 8 20
M  V30 21 1 8 21
M  V30 22 1 9 22
M  V30 23 1 10 23
M  V30 24 1 11 24
M  V30 END BOND
M  V30 BEGIN COLLECTION
M  V30 MDLV30/STEABS ATOMS=(2 2 4)
M  V30 END COLLECTION
M  V30 END CTAB
M  END
>  <Column 1>
3886

>  <level_0>
7500

>  <index>
7501

>  <Unnamed: 0>
7501

>  <NO.>
7514

>  <Name>
cathine

>  <IUPAC_name>
(1s-2s)-2-amino-1-phenylpropan-1-ol

>  <SMILES>
C[C@H](N)[C@@H](O)c1ccccc1

>  <CID>
441457

>  <logBB>


>  <BBB+/BBB->
BBB+

>  <Inchi>
InChI=1S/C9H13NO/c1-7(10)9(11)8-5-3-2-4-6-8/h2-7-9-11H-10H2-1H3/t7--9+/m0/s1

>  <threshold>


>  <reference>
R27|

>  <group>
C

>  <Class>
1

>  <ABC>
8.03

>  <ABCGG>
7.68

>  <nAcid>
0

>  <nBase>
1

>  <nAromAtom>
6

>  <nAromBond>
6

>  <nAtom>
24

>  <nHeavyAtom>
11

>  <nSpiro>
0

>  <nBridgehead>
0

>  <nHetero>
2

>  <nN>
1

>  <nO>
1

>  <nF>
0

>  <BalabanJ>
2.32

>  <BertzCT>
208.06

>  <nBonds>
24

>  <nBondsO>
11

>  <nBondsS>
18

>  <nBondsD>
0

>  <nBondsT>
0

>  <nBondsA>
6

>  <nBondsM>
6

>  <nBondsKS>
21

>  <nBondsKD>
3

>  <RNCG>
0.36

>  <RPCG>
0.2

>  <FCSP3>
0.33

>  <SZ>
13.67

>  <Sm>
12.59

>  <Sv>
13.99

>  <Sse>
23.76

>  <Sp>
15.33

>  <Si>
27.2

>  <MZ>
0.57

>  <Mm>
0.52

>  <Mv>
0.58

>  <Mse>
0.99

>  <Mp>
0.64

>  <Mi>
1.13

>  <NsCH3>
1

>  <NdCH2>
0

>  <NssCH2>
0

>  <NtCH>
0

>  <NdsCH>
0

>  <NaaCH>
5

>  <NsssCH>
2

>  <NddC>
0

>  <NtsC>
0

>  <NdssC>
0

>  <NaasC>
1

>  <NaaaC>
0

>  <NssssC>
0

>  <NsNH3>
0

>  <NsNH2>
1

>  <NssNH2>
0

>  <NdNH>
0

>  <NssNH>
0

>  <NaaNH>
0

>  <NtN>
0

>  <NsssNH>
0

>  <NdsN>
0

>  <NaaN>
0

>  <NsssN>
0

>  <NddsN>
0

>  <NaasN>
0

>  <NssssN>
0

>  <NsOH>
1

>  <NdO>
0

>  <NssO>
0

>  <NaaO>
0

>  <NsF>
0

>  <NsSiH3>
0

>  <NssSiH2>
0

>  <NsssSiH>
0

>  <NssssSi>
0

>  <NsPH2>
0

>  <NssPH>
0

>  <NsssP>
0

>  <NdsssP>
0

>  <NsssssP>
0

>  <NsSH>
0

>  <NdS>
0

>  <NssS>
0

>  <NaaS>
0

>  <NdssS>
0

>  <NddssS>
0

>  <NsCl>
0

>  <NsBr>
0

>  <NsI>
0

>  <fragCpx>
11.02

>  <fMF>
0.25

>  <nHBAcc>
2

>  <nHBDon>
2

>  <Kier1>
9.09

>  <Kier2>
4.13

>  <Lipinski>
1

>  <GhoseFilter>
0

>  <FilterItLogS>
-1.17

>  <VMcGowan>
129.76

>  <LabuteASA>
66.66

>  <PEOE_VSA1>
10.84

>  <PEOE_VSA2>
0

>  <PEOE_VSA3>
0

>  <PEOE_VSA4>
0

>  <PEOE_VSA5>
0

>  <PEOE_VSA6>
30.33

>  <PEOE_VSA7>
12.49

>  <PEOE_VSA8>
6.04

>  <PEOE_VSA9>
6.1

>  <PEOE_VSA10>
0

>  <PEOE_VSA11>
0

>  <PEOE_VSA12>
0

>  <PEOE_VSA13>
0

>  <SMR_VSA1>
5.11

>  <SMR_VSA2>
0

>  <SMR_VSA3>
0

>  <SMR_VSA4>
5.73

>  <SMR_VSA5>
19.07

>  <SMR_VSA6>
0

>  <SMR_VSA7>
35.9

>  <SMR_VSA8>
0

>  <SMR_VSA9>
0

>  <SlogP_VSA1>
5.73

>  <SlogP_VSA2>
11.15

>  <SlogP_VSA3>
0

>  <SlogP_VSA4>
0

>  <SlogP_VSA5>
18.59

>  <SlogP_VSA6>
30.33

>  <SlogP_VSA7>
0

>  <SlogP_VSA8>
0

>  <SlogP_VSA9>
0

>  <SlogP_VSA10>
0

>  <SlogP_VSA11>
0

>  <EState_VSA1>
6.1

>  <EState_VSA2>
6.04

>  <EState_VSA3>
0

>  <EState_VSA4>
5.56

>  <EState_VSA5>
0

>  <EState_VSA6>
6.92

>  <EState_VSA7>
30.33

>  <EState_VSA8>
0

>  <EState_VSA9>
5.73

>  <EState_VSA10>
5.11

>  <VSA_EState1>
0

>  <VSA_EState2>
0

>  <VSA_EState3>
9.47

>  <VSA_EState4>
6.4

>  <VSA_EState5>
0

>  <VSA_EState6>
9.22

>  <VSA_EState7>
-0.55

>  <VSA_EState8>
1.79

>  <VSA_EState9>
0

>  <apol>
25.6

>  <bpol>
12.47

>  <nRing>
1

>  <nHRing>
0

>  <naRing>
1

>  <naHRing>
0

>  <nARing 2>
0

>  <nAHRing 2>
0

>  <nFRing>
0

>  <nFHRing>
0

>  <nFaRing>
0

>  <nFaHRing>
0

>  <nFARing 2>
0

>  <nFAHRing 2>
0

>  <nRot>
2

>  <SLogP>
1.07

>  <SMR>
45.05

>  <TopoPSA(NO)>
46.25

>  <TopoPSA>
46.25

>  <JGI1>
0.18

>  <JGI2>
0.1

>  <JGI3>
0.05

>  <JGI4>
0.04

>  <JGI5>
0.03

>  <Diameter>
6

>  <Radius>
3

>  <TMWC10>
86.23

>  <TSRW10>
40.57

>  <MW>
151.1

>  <AMW>
6.3

>  <WPath>
156

>  <WPol>
13

>  <Zagreb1>
50

>  <Zagreb2>
55

>  <mZagreb2>
2.56

>  <yes>


>  <nAR-cont>
0.336376

>  <nHA-cont>
0.720786536

>  <MWHBN>
0.32540765

>  <MWHBN-cont>
0.758791138

>  <TPSA-cont>
0.67714628

>  <pka_cont>
0.97

>  <yes.1>


>  <BBB_SCORE>
4.034641804

>  <MMFF94 Energy>
52.719

$$$$
Compound 3025
Actelion Java MolfileCreator 2.0

  0  0  0  0  0  0              0 V3000
M  V30 BEGIN CTAB
M  V30 COUNTS 51 53 0 0 0
M  V30 BEGIN ATOM
M  V30 1 S -0.1608 0.402 -1.6894 0
M  V30 2 C -1.3562 0.423 -0.4462 0
M  V30 3 C 0.9645 1.7375 -1.1654 0 CFG=1
M  V30 4 C -2.2029 1.4151 -0.1104 0
M  V30 5 C -1.69 -0.8438 0.3316 0 CFG=2
M  V30 6 N 1.887 1.2608 -0.1355 0
M  V30 7 C 1.8517 2.189 -2.3139 0
M  V30 8 N -3.0481 1.0172 0.8954 0
M  V30 9 C -2.3823 2.7716 -0.6767 0
M  V30 10 C -2.7077 -0.3312 1.3654 0 CFG=1
M  V30 11 C -0.5162 -1.4973 1.0512 0
M  V30 12 C 3.1968 0.9507 -0.7779 0 CFG=2
M  V30 13 C 3.0291 1.2387 -2.2637 0
M  V30 14 C -4.3804 0.7876 0.7298 0
M  V30 15 O -2.7539 3.7544 -0.0581 0
M  V30 16 O -2.117 2.8509 -1.9911 0
M  V30 17 C -4.2364 -0.6513 1.2853 0 CFG=2
M  V30 18 C 3.5865 -0.5214 -0.5067 0
M  V30 19 O -5.2475 1.4287 0.1843 0
M  V30 20 C -4.932 -0.9226 2.6094 0 CFG=1
M  V30 21 O 2.7701 -1.2843 0.0226 0
M  V30 22 N 4.8568 -0.9489 -0.8737 0
M  V30 23 O -6.3447 -0.9396 2.4237 0
M  V30 24 C -4.5071 -2.2728 3.1715 0
M  V30 25 C 5.1956 -2.3554 -0.7217 0
M  V30 26 C 5.9088 -0.1031 -1.4158 0
M  V30 27 H 0.388 2.5866 -0.7902 0
M  V30 28 H -2.1603 -1.574 -0.3386 0
M  V30 29 H 1.5169 0.3744 0.224 0
M  V30 30 H 2.21 3.2089 -2.1204 0
M  V30 31 H 1.3593 2.1965 -3.2916 0
M  V30 32 H -2.3147 -0.2786 2.3903 0
M  V30 33 H 0.1908 -1.9298 0.3377 0
M  V30 34 H 0.023 -0.7813 1.6812 0
M  V30 35 H -0.8677 -2.3065 1.7008 0
M  V30 36 H 3.936 1.6139 -0.3182 0
M  V30 37 H 3.9194 1.6975 -2.7044 0
M  V30 38 H 2.8089 0.326 -2.8302 0
M  V30 39 H -2.3614 3.7735 -2.2124 0
M  V30 40 H -4.4816 -1.4043 0.5242 0
M  V30 41 H -4.7083 -0.1375 3.34 0
M  V30 42 H -6.5748 -1.6218 1.7699 0
M  V30 43 H -3.4326 -2.3054 3.3743 0
M  V30 44 H -4.7469 -3.0822 2.4727 0
M  V30 45 H -5.0453 -2.4869 4.101 0
M  V30 46 H 4.3516 -2.9548 -0.3719 0
M  V30 47 H 5.5231 -2.7443 -1.6905 0
M  V30 48 H 6.013 -2.4429 1.0E-4 0
M  V30 49 H 5.693 0.9595 -1.3145 0
M  V30 50 H 6.0339 -0.3441 -2.4753 0
M  V30 51 H 6.8423 -0.3125 -0.8846 0
M  V30 END ATOM
M  V30 BEGIN BOND
M  V30 1 1 1 2
M  V30 2 1 1 3
M  V30 3 2 2 4
M  V30 4 1 2 5
M  V30 5 1 3 6
M  V30 6 1 3 7
M  V30 7 1 4 8
M  V30 8 1 4 9
M  V30 9 1 5 10
M  V30 10 1 5 11
M  V30 11 1 6 12
M  V30 12 1 7 13
M  V30 13 1 8 14
M  V30 14 2 9 15
M  V30 15 1 9 16
M  V30 16 1 10 17
M  V30 17 1 12 18
M  V30 18 2 14 19
M  V30 19 1 17 20
M  V30 20 2 18 21
M  V30 21 1 18 22
M  V30 22 1 20 23
M  V30 23 1 20 24
M  V30 24 1 22 25
M  V30 25 1 22 26
M  V30 26 1 8 10
M  V30 27 1 12 13
M  V30 28 1 14 17
M  V30 29 1 3 27
M  V30 30 1 5 28
M  V30 31 1 6 29
M  V30 32 1 7 30
M  V30 33 1 7 31
M  V30 34 1 10 32
M  V30 35 1 11 33
M  V30 36 1 11 34
M  V30 37 1 11 35
M  V30 38 1 12 36
M  V30 39 1 13 37
M  V30 40 1 13 38
M  V30 41 1 16 39
M  V30 42 1 17 40
M  V30 43 1 20 41
M  V30 44 1 23 42
M  V30 45 1 24 43
M  V30 46 1 24 44
M  V30 47 1 24 45
M  V30 48 1 25 46
M  V30 49 1 25 47
M  V30 50 1 25 48
M  V30 51 1 26 49
M  V30 52 1 26 50
M  V30 53 1 26 51
M  V30 END BOND
M  V30 BEGIN COLLECTION
M  V30 MDLV30/STEABS ATOMS=(6 3 5 10 12 17 20)
M  V30 END COLLECTION
M  V30 END CTAB
M  END
>  <Column 1>
3887

>  <level_0>
7506

>  <index>
7507

>  <Unnamed: 0>
7507

>  <NO.>
7520

>  <Name>


>  <IUPAC_name>


>  <SMILES>
C[C@H](O)[C@H]1C(=O)N2C(C(=O)O)=C(S[C@@H]3CC[C@H](C(=O)N(C)C)N3)[C@@H](C)[C@H]12

>  <CID>


>  <logBB>


>  <BBB+/BBB->
BBB-

>  <Inchi>
InChI=1S/C17H25N3O5S/c1-7-12-11(8(2)21)16(23)20(12)13(17(24)25)14(7)26-10-6-5-9(18-10)15(22)19(3)4/h7-12-18-21H-5-6H2-1-4H3-(H-24-25)/t7--8--9+-10+-11+-12+/m0/s1

>  <threshold>


>  <reference>
R27|

>  <group>
C

>  <Class>
-1

>  <ABC>
20.3

>  <ABCGG>
18.12

>  <nAcid>
1

>  <nBase>
1

>  <nAromAtom>
0

>  <nAromBond>
0

>  <nAtom>
51

>  <nHeavyAtom>
26

>  <nSpiro>
0

>  <nBridgehead>
0

>  <nHetero>
9

>  <nN>
3

>  <nO>
5

>  <nF>
0

>  <BalabanJ>
1.69

>  <BertzCT>
677.31

>  <nBonds>
53

>  <nBondsO>
28

>  <nBondsS>
49

>  <nBondsD>
4

>  <nBondsT>
0

>  <nBondsA>
0

>  <nBondsM>
4

>  <nBondsKS>
49

>  <nBondsKD>
4

>  <RNCG>
0.17

>  <RPCG>
0.12

>  <FCSP3>
0.71

>  <SZ>
34

>  <Sm>
31.93

>  <Sv>
30.81

>  <Sse>
51.82

>  <Sp>
33.1

>  <Si>
58.03

>  <MZ>
0.67

>  <Mm>
0.63

>  <Mv>
0.6

>  <Mse>
1.02

>  <Mp>
0.65

>  <Mi>
1.14

>  <NsCH3>
4

>  <NdCH2>
0

>  <NssCH2>
2

>  <NtCH>
0

>  <NdsCH>
0

>  <NaaCH>
0

>  <NsssCH>
6

>  <NddC>
0

>  <NtsC>
0

>  <NdssC>
5

>  <NaasC>
0

>  <NaaaC>
0

>  <NssssC>
0

>  <NsNH3>
0

>  <NsNH2>
0

>  <NssNH2>
0

>  <NdNH>
0

>  <NssNH>
1

>  <NaaNH>
0

>  <NtN>
0

>  <NsssNH>
0

>  <NdsN>
0

>  <NaaN>
0

>  <NsssN>
2

>  <NddsN>
0

>  <NaasN>
0

>  <NssssN>
0

>  <NsOH>
2

>  <NdO>
3

>  <NssO>
0

>  <NaaO>
0

>  <NsF>
0

>  <NsSiH3>
0

>  <NssSiH2>
0

>  <NsssSiH>
0

>  <NssssSi>
0

>  <NsPH2>
0

>  <NssPH>
0

>  <NsssP>
0

>  <NdsssP>
0

>  <NsssssP>
0

>  <NsSH>
0

>  <NdS>
0

>  <NssS>
1

>  <NaaS>
0

>  <NdssS>
0

>  <NddssS>
0

>  <NsCl>
0

>  <NsBr>
0

>  <NsI>
0

>  <fragCpx>
134.09

>  <fMF>
0.25

>  <nHBAcc>
6

>  <nHBDon>
3

>  <Kier1>
20.73

>  <Kier2>
7.79

>  <Lipinski>
1

>  <GhoseFilter>
1

>  <FilterItLogS>
-0.47

>  <VMcGowan>
276.25

>  <LabuteASA>
156.14

>  <PEOE_VSA1>
20.01

>  <PEOE_VSA2>
14.91

>  <PEOE_VSA3>
4.79

>  <PEOE_VSA4>
0

>  <PEOE_VSA5>
11.76

>  <PEOE_VSA6>
6.92

>  <PEOE_VSA7>
19.77

>  <PEOE_VSA8>
24.92

>  <PEOE_VSA9>
29.48

>  <PEOE_VSA10>
5.7

>  <PEOE_VSA11>
0

>  <PEOE_VSA12>
11.81

>  <PEOE_VSA13>
0

>  <SMR_VSA1>
24.6

>  <SMR_VSA2>
0

>  <SMR_VSA3>
15.12

>  <SMR_VSA4>
11.84

>  <SMR_VSA5>
50.25

>  <SMR_VSA6>
14.1

>  <SMR_VSA7>
10.6

>  <SMR_VSA8>
0

>  <SMR_VSA9>
0

>  <SlogP_VSA1>
5.32

>  <SlogP_VSA2>
75.45

>  <SlogP_VSA3>
14.38

>  <SlogP_VSA4>
11.84

>  <SlogP_VSA5>
26.69

>  <SlogP_VSA6>
10.6

>  <SlogP_VSA7>
0

>  <SlogP_VSA8>
0

>  <SlogP_VSA9>
0

>  <SlogP_VSA10>
0

>  <SlogP_VSA11>
0

>  <EState_VSA1>
17.99

>  <EState_VSA2>
40.89

>  <EState_VSA3>
11.33

>  <EState_VSA4>
6.42

>  <EState_VSA5>
16.66

>  <EState_VSA6>
25.92

>  <EState_VSA7>
6.92

>  <EState_VSA8>
5.32

>  <EState_VSA9>
0

>  <EState_VSA10>
24.6

>  <VSA_EState1>
0

>  <VSA_EState2>
39.76

>  <VSA_EState3>
22.71

>  <VSA_EState4>
0.03

>  <VSA_EState5>
-2.16

>  <VSA_EState6>
-0.58

>  <VSA_EState7>
0.63

>  <VSA_EState8>
3.46

>  <VSA_EState9>
3.42

>  <apol>
55.27

>  <bpol>
34.13

>  <nRing>
3

>  <nHRing>
3

>  <naRing>
0

>  <naHRing>
0

>  <nARing 2>
3

>  <nAHRing 2>
3

>  <nFRing>
1

>  <nFHRing>
1

>  <nFaRing>
0

>  <nFaHRing>
0

>  <nFARing 2>
1

>  <nFAHRing 2>
1

>  <nRot>
5

>  <SLogP>
0.04

>  <SMR>
95.86

>  <TopoPSA(NO)>
110.18

>  <TopoPSA>
135.48

>  <JGI1>
0.21

>  <JGI2>
0.08

>  <JGI3>
0.09

>  <JGI4>
0.06

>  <JGI5>
0.03

>  <Diameter>
12

>  <Radius>
6

>  <TMWC10>
132.25

>  <TSRW10>
78.3

>  <MW>
383.15

>  <AMW>
7.51

>  <WPath>
1652

>  <WPol>
43

>  <Zagreb1>
142

>  <Zagreb2>
175

>  <mZagreb2>
5.58

>  <yes>


>  <nAR-cont>
0.691115

>  <nHA-cont>
0.892715677

>  <MWHBN>
0.459788489

>  <MWHBN-cont>
0

>  <TPSA-cont>
0

>  <pka_cont>
0.97

>  <yes.1>


>  <BBB_SCORE>
2.068830677

>  <MMFF94 Energy>
46.657

$$$$
Compound 3026
Actelion Java MolfileCreator 2.0

  0  0  0  0  0  0              0 V3000
M  V30 BEGIN CTAB
M  V30 COUNTS 41 42 0 0 0
M  V30 BEGIN ATOM
M  V30 1 O 0.157 2.2008 -0.2356 0
M  V30 2 C -0.6976 3.0157 -0.9261 0
M  V30 3 C -0.42 1.107 0.4774 0
M  V30 4 C -2.0887 2.9066 -0.9613 0
M  V30 5 C -0.0727 4.0376 -1.6466 0
M  V30 6 C 0.7027 0.3083 1.1594 0
M  V30 7 C -2.8431 3.8089 -1.718 0
M  V30 8 C -0.8262 4.9379 -2.4015 0
M  V30 9 N 1.5717 -0.5613 0.2086 0 CHG=1
M  V30 10 C -2.213 4.8219 -2.4381 0
M  V30 11 C 0.7757 -1.6938 -0.4776 0
M  V30 12 C 2.7105 -1.1484 1.0446 0
M  V30 13 C 2.2081 0.2982 -0.887 0
M  V30 14 C 0.0889 -2.6887 0.4253 0
M  V30 15 C 0.7727 -3.825 0.8886 0
M  V30 16 C -1.2506 -2.5111 0.807 0
M  V30 17 C 0.1431 -4.7402 1.7339 0
M  V30 18 C -1.8775 -3.4285 1.6525 0
M  V30 19 C -1.1792 -4.5386 2.1193 0
M  V30 20 H -1.0032 0.4728 -0.1956 0
M  V30 21 H -1.0757 1.5009 1.2636 0
M  V30 22 H -2.6272 2.1429 -0.4112 0
M  V30 23 H 1.0085 4.1442 -1.6204 0
M  V30 24 H 1.3966 0.9993 1.6539 0
M  V30 25 H 0.2886 -0.3649 1.9163 0
M  V30 26 H -3.9277 3.7265 -1.7428 0
M  V30 27 H -0.3329 5.7323 -2.9566 0
M  V30 28 H -2.8034 5.5244 -3.0224 0
M  V30 29 H 0.0432 -1.2207 -1.142 0
M  V30 30 H 1.4833 -2.2222 -1.1305 0
M  V30 31 H 3.2879 -1.8339 0.4174 0
M  V30 32 H 3.3462 -0.3254 1.3866 0
M  V30 33 H 2.2882 -1.6686 1.9081 0
M  V30 34 H 1.436 0.5975 -1.5998 0
M  V30 35 H 2.9594 -0.3075 -1.4037 0
M  V30 36 H 2.6813 1.1666 -0.4198 0
M  V30 37 H 1.7999 -4.0242 0.5892 0
M  V30 38 H -1.8359 -1.6711 0.4406 0
M  V30 39 H 0.6785 -5.6201 2.0858 0
M  V30 40 H -2.9179 -3.2877 1.9401 0
M  V30 41 H -1.6717 -5.257 2.7719 0
M  V30 END ATOM
M  V30 BEGIN BOND
M  V30 1 1 1 2
M  V30 2 1 1 3
M  V30 3 2 2 4
M  V30 4 1 2 5
M  V30 5 1 3 6
M  V30 6 1 4 7
M  V30 7 2 5 8
M  V30 8 1 6 9
M  V30 9 2 7 10
M  V30 10 1 9 11
M  V30 11 1 9 12
M  V30 12 1 9 13
M  V30 13 1 11 14
M  V30 14 2 14 15
M  V30 15 1 14 16
M  V30 16 1 15 17
M  V30 17 2 16 18
M  V30 18 2 17 19
M  V30 19 1 8 10
M  V30 20 1 18 19
M  V30 21 1 3 20
M  V30 22 1 3 21
M  V30 23 1 4 22
M  V30 24 1 5 23
M  V30 25 1 6 24
M  V30 26 1 6 25
M  V30 27 1 7 26
M  V30 28 1 8 27
M  V30 29 1 10 28
M  V30 30 1 11 29
M  V30 31 1 11 30
M  V30 32 1 12 31
M  V30 33 1 12 32
M  V30 34 1 12 33
M  V30 35 1 13 34
M  V30 36 1 13 35
M  V30 37 1 13 36
M  V30 38 1 15 37
M  V30 39 1 16 38
M  V30 40 1 17 39
M  V30 41 1 18 40
M  V30 42 1 19 41
M  V30 END BOND
M  V30 END CTAB
M  END
>  <Column 1>
3888

>  <level_0>
7555

>  <index>
7556

>  <Unnamed: 0>
7556

>  <NO.>
7569

>  <Name>
bephenium

>  <IUPAC_name>
benzyl-dimethyl-(2-phenoxyethyl)azanium

>  <SMILES>
C[N+](C)(CCOc1ccccc1)Cc1ccccc1

>  <CID>
19667

>  <logBB>


>  <BBB+/BBB->
BBB-

>  <Inchi>
InChI=1S/C17H22NO/c1-18(2-15-16-9-5-3-6-10-16)13-14-19-17-11-7-4-8-12-17/h3-12H-13-15H2-1-2H3/q+1

>  <threshold>


>  <reference>
R27|

>  <group>
C

>  <Class>
-1

>  <ABC>
14.46

>  <ABCGG>
11.79

>  <nAcid>
0

>  <nBase>
1

>  <nAromAtom>
12

>  <nAromBond>
12

>  <nAtom>
41

>  <nHeavyAtom>
19

>  <nSpiro>
0

>  <nBridgehead>
0

>  <nHetero>
2

>  <nN>
1

>  <nO>
1

>  <nF>
0

>  <BalabanJ>
1.62

>  <BertzCT>
479.13

>  <nBonds>
42

>  <nBondsO>
20

>  <nBondsS>
30

>  <nBondsD>
0

>  <nBondsT>
0

>  <nBondsA>
12

>  <nBondsM>
12

>  <nBondsKS>
36

>  <nBondsKD>
6

>  <RNCG>
0.37

>  <RPCG>
0.06

>  <FCSP3>
0.29

>  <SZ>
23.17

>  <Sm>
21.34

>  <Sv>
24.43

>  <Sse>
40.26

>  <Sp>
26.92

>  <Si>
46.07

>  <MZ>
0.57

>  <Mm>
0.52

>  <Mv>
0.6

>  <Mse>
0.98

>  <Mp>
0.66

>  <Mi>
1.12

>  <NsCH3>
2

>  <NdCH2>
0

>  <NssCH2>
3

>  <NtCH>
0

>  <NdsCH>
0

>  <NaaCH>
10

>  <NsssCH>
0

>  <NddC>
0

>  <NtsC>
0

>  <NdssC>
0

>  <NaasC>
2

>  <NaaaC>
0

>  <NssssC>
0

>  <NsNH3>
0

>  <NsNH2>
0

>  <NssNH2>
0

>  <NdNH>
0

>  <NssNH>
0

>  <NaaNH>
0

>  <NtN>
0

>  <NsssNH>
0

>  <NdsN>
0

>  <NaaN>
0

>  <NsssN>
0

>  <NddsN>
0

>  <NaasN>
0

>  <NssssN>
1

>  <NsOH>
0

>  <NdO>
0

>  <NssO>
1

>  <NaaO>
0

>  <NsF>
0

>  <NsSiH3>
0

>  <NssSiH2>
0

>  <NsssSiH>
0

>  <NssssSi>
0

>  <NsPH2>
0

>  <NssPH>
0

>  <NsssP>
0

>  <NdsssP>
0

>  <NsssssP>
0

>  <NsSH>
0

>  <NdS>
0

>  <NssS>
0

>  <NaaS>
0

>  <NdssS>
0

>  <NddssS>
0

>  <NsCl>
0

>  <NsBr>
0

>  <NsI>
0

>  <fragCpx>
58.02

>  <fMF>
0.41

>  <nHBAcc>
1

>  <nHBDon>
0

>  <Kier1>
15.39

>  <Kier2>
7.7

>  <Lipinski>
1

>  <GhoseFilter>
1

>  <FilterItLogS>
-5.19

>  <VMcGowan>
220.87

>  <LabuteASA>
115.4

>  <PEOE_VSA1>
9.22

>  <PEOE_VSA2>
0

>  <PEOE_VSA3>
0

>  <PEOE_VSA4>
0

>  <PEOE_VSA5>
0

>  <PEOE_VSA6>
48.53

>  <PEOE_VSA7>
12.13

>  <PEOE_VSA8>
5.56

>  <PEOE_VSA9>
14.1

>  <PEOE_VSA10>
25.45

>  <PEOE_VSA11>
0

>  <PEOE_VSA12>
0

>  <PEOE_VSA13>
0

>  <SMR_VSA1>
9.22

>  <SMR_VSA2>
0

>  <SMR_VSA3>
0

>  <SMR_VSA4>
0

>  <SMR_VSA5>
6.54

>  <SMR_VSA6>
27.25

>  <SMR_VSA7>
66.23

>  <SMR_VSA8>
0

>  <SMR_VSA9>
5.75

>  <SlogP_VSA1>
4.74

>  <SlogP_VSA2>
31.73

>  <SlogP_VSA3>
6.54

>  <SlogP_VSA4>
0

>  <SlogP_VSA5>
5.56

>  <SlogP_VSA6>
60.66

>  <SlogP_VSA7>
0

>  <SlogP_VSA8>
0

>  <SlogP_VSA9>
0

>  <SlogP_VSA10>
0

>  <SlogP_VSA11>
5.75

>  <EState_VSA1>
0

>  <EState_VSA2>
0

>  <EState_VSA3>
0

>  <EState_VSA4>
29.93

>  <EState_VSA5>
5.56

>  <EState_VSA6>
0

>  <EState_VSA7>
30.33

>  <EState_VSA8>
44.43

>  <EState_VSA9>
4.74

>  <EState_VSA10>
0

>  <VSA_EState1>
6.69

>  <VSA_EState2>
0

>  <VSA_EState3>
0

>  <VSA_EState4>
1.37

>  <VSA_EState5>
0.95

>  <VSA_EState6>
20.6

>  <VSA_EState7>
0

>  <VSA_EState8>
2.76

>  <VSA_EState9>
4.47

>  <apol>
44.96

>  <bpol>
26.09

>  <nRing>
2

>  <nHRing>
0

>  <naRing>
2

>  <naHRing>
0

>  <nARing 2>
0

>  <nAHRing 2>
0

>  <nFRing>
0

>  <nFHRing>
0

>  <nFaRing>
0

>  <nFaHRing>
0

>  <nFARing 2>
0

>  <nFAHRing 2>
0

>  <nRot>
6

>  <SLogP>
3.34

>  <SMR>
79.06

>  <TopoPSA(NO)>
9.23

>  <TopoPSA>
9.23

>  <JGI1>
0.2

>  <JGI2>
0.05

>  <JGI3>
0.05

>  <JGI4>
0.03

>  <JGI5>
0.02

>  <Diameter>
12

>  <Radius>
6

>  <TMWC10>
108.79

>  <TSRW10>
51.56

>  <MW>
256.17

>  <AMW>
6.25

>  <WPath>
826

>  <WPol>
22

>  <Zagreb1>
92

>  <Zagreb2>
100

>  <mZagreb2>
4.25

>  <yes>


>  <nAR-cont>
0.336376

>  <nHA-cont>
0.998649058

>  <MWHBN>
0.062479258

>  <MWHBN-cont>
0.474119753

>  <TPSA-cont>
0.935568869

>  <pka_cont>
0.97

>  <yes.1>


>  <BBB_SCORE>
4.402342424

>  <MMFF94 Energy>
65.128

$$$$
Compound 3027
Actelion Java MolfileCreator 2.0

  0  0  0  0  0  0              0 V3000
M  V30 BEGIN CTAB
M  V30 COUNTS 51 53 0 0 0
M  V30 BEGIN ATOM
M  V30 1 O 0.7163 -0.0795 2.469 0
M  V30 2 C 0.8445 -0.3611 1.2852 0
M  V30 3 O -0.1624 -0.9721 0.568 0
M  V30 4 C 2.0816 -0.1012 0.3607 0
M  V30 5 C -1.3731 -1.1969 1.3029 0
M  V30 6 O 2.4207 -1.4375 -0.0941 0
M  V30 7 C 3.3358 0.4887 1.0257 0
M  V30 8 C 1.6388 0.7578 -0.8383 0
M  V30 9 C -2.3894 -1.9321 0.4008 0 CFG=2
M  V30 10 C 3.3007 1.2948 2.1757 0
M  V30 11 C 4.5948 0.2814 0.4189 0
M  V30 12 C 1.7356 0.2897 -2.1607 0
M  V30 13 C 1.1203 2.0513 -0.629 0
M  V30 14 N -3.0185 -1.0418 -0.7308 0 CHG=1
M  V30 15 C -3.6229 -2.3591 1.192 0
M  V30 16 C 4.4734 1.8279 2.7215 0
M  V30 17 C 5.7647 0.8153 0.9634 0
M  V30 18 C 1.3158 1.0797 -3.2335 0
M  V30 19 C 0.7014 2.8387 -1.7037 0
M  V30 20 C -4.318 -0.4645 -0.1358 0
M  V30 21 C -2.1128 0.0698 -1.2485 0
M  V30 22 C -3.3523 -1.9364 -1.9326 0
M  V30 23 C -4.478 -1.1093 1.2318 0
M  V30 24 C 5.7037 1.5841 2.1197 0
M  V30 25 C 0.7963 2.3514 -3.0044 0
M  V30 26 H -1.1409 -1.8317 2.1668 0
M  V30 27 H -1.7705 -0.2407 1.6615 0
M  V30 28 H 3.0001 -1.8202 0.5901 0
M  V30 29 H -1.8966 -2.7804 -0.088 0
M  V30 30 H 2.3678 1.5402 2.6768 0
M  V30 31 H 4.6734 -0.2947 -0.5027 0
M  V30 32 H 2.1544 -0.6936 -2.3696 0
M  V30 33 H 1.0603 2.4704 0.3747 0
M  V30 34 H -3.383 -2.7255 2.195 0
M  V30 35 H -4.1554 -3.1625 0.6698 0
M  V30 36 H 4.4239 2.4422 3.6182 0
M  V30 37 H 6.722 0.6382 0.4787 0
M  V30 38 H 1.4182 0.7099 -4.2515 0
M  V30 39 H 0.3278 3.8454 -1.5279 0
M  V30 40 H -4.2282 0.6241 -0.0612 0
M  V30 41 H -5.1477 -0.7143 -0.8054 0
M  V30 42 H -1.888 0.7592 -0.4317 0
M  V30 43 H -2.6517 0.6071 -2.0355 0
M  V30 44 H -1.2108 -0.3869 -1.6601 0
M  V30 45 H -4.0252 -2.7333 -1.6051 0
M  V30 46 H -2.4185 -2.3563 -2.3179 0
M  V30 47 H -3.8382 -1.3206 -2.6958 0
M  V30 48 H -5.5257 -1.3339 1.4546 0
M  V30 49 H -4.122 -0.4256 2.0113 0
M  V30 50 H 6.6122 2.0035 2.5451 0
M  V30 51 H 0.495 2.9751 -3.8433 0
M  V30 END ATOM
M  V30 BEGIN BOND
M  V30 1 2 1 2
M  V30 2 1 2 3
M  V30 3 1 2 4
M  V30 4 1 3 5
M  V30 5 1 4 6
M  V30 6 1 4 7
M  V30 7 1 4 8
M  V30 8 1 5 9
M  V30 9 2 7 10
M  V30 10 1 7 11
M  V30 11 2 8 12
M  V30 12 1 8 13
M  V30 13 1 9 14
M  V30 14 1 9 15
M  V30 15 1 10 16
M  V30 16 2 11 17
M  V30 17 1 12 18
M  V30 18 2 13 19
M  V30 19 1 14 20
M  V30 20 1 14 21
M  V30 21 1 14 22
M  V30 22 1 15 23
M  V30 23 2 16 24
M  V30 24 2 18 25
M  V30 25 1 17 24
M  V30 26 1 19 25
M  V30 27 1 20 23
M  V30 28 1 5 26
M  V30 29 1 5 27
M  V30 30 1 6 28
M  V30 31 1 9 29
M  V30 32 1 10 30
M  V30 33 1 11 31
M  V30 34 1 12 32
M  V30 35 1 13 33
M  V30 36 1 15 34
M  V30 37 1 15 35
M  V30 38 1 16 36
M  V30 39 1 17 37
M  V30 40 1 18 38
M  V30 41 1 19 39
M  V30 42 1 20 40
M  V30 43 1 20 41
M  V30 44 1 21 42
M  V30 45 1 21 43
M  V30 46 1 21 44
M  V30 47 1 22 45
M  V30 48 1 22 46
M  V30 49 1 22 47
M  V30 50 1 23 48
M  V30 51 1 23 49
M  V30 52 1 24 50
M  V30 53 1 25 51
M  V30 END BOND
M  V30 BEGIN COLLECTION
M  V30 MDLV30/STEABS ATOMS=(1 9)
M  V30 END COLLECTION
M  V30 END CTAB
M  END
>  <Column 1>
3889

>  <level_0>
7556

>  <index>
7557

>  <Unnamed: 0>
7557

>  <NO.>
7570

>  <Name>
zinc651

>  <IUPAC_name>
[(2r)-1-1-dimethylpyrrolidin-1-ium-2-yl]methyl 2-hydroxy-2-2-diphenylacetate

>  <SMILES>
C[N+]1(C)CCC[C@@H]1COC(=O)C(O)(c1ccccc1)c1ccccc1

>  <CID>
76963540

>  <logBB>


>  <BBB+/BBB->
BBB-

>  <Inchi>
InChI=1S/C21H26NO3/c1-22(2)15-9-14-19(22)16-25-20(23)21(24-17-10-5-3-6-11-17)18-12-7-4-8-13-18/h3-8-10-13-19-24H-9-14-16H2-1-2H3/q+1/t19-/m1/s1

>  <threshold>


>  <reference>
R27|

>  <group>
C

>  <Class>
-1

>  <ABC>
19.43

>  <ABCGG>
16.88

>  <nAcid>
0

>  <nBase>
1

>  <nAromAtom>
12

>  <nAromBond>
12

>  <nAtom>
51

>  <nHeavyAtom>
25

>  <nSpiro>
0

>  <nBridgehead>
0

>  <nHetero>
4

>  <nN>
1

>  <nO>
3

>  <nF>
0

>  <BalabanJ>
1.68

>  <BertzCT>
672.94

>  <nBonds>
53

>  <nBondsO>
27

>  <nBondsS>
40

>  <nBondsD>
1

>  <nBondsT>
0

>  <nBondsA>
12

>  <nBondsM>
13

>  <nBondsKS>
46

>  <nBondsKD>
7

>  <RNCG>
0.23

>  <RPCG>
0.12

>  <FCSP3>
0.38

>  <SZ>
30.5

>  <Sm>
28.34

>  <Sv>
30.95

>  <Sse>
50.7

>  <Sp>
33.48

>  <Si>
57.32

>  <MZ>
0.6

>  <Mm>
0.56

>  <Mv>
0.61

>  <Mse>
0.99

>  <Mp>
0.66

>  <Mi>
1.12

>  <NsCH3>
2

>  <NdCH2>
0

>  <NssCH2>
4

>  <NtCH>
0

>  <NdsCH>
0

>  <NaaCH>
10

>  <NsssCH>
1

>  <NddC>
0

>  <NtsC>
0

>  <NdssC>
1

>  <NaasC>
2

>  <NaaaC>
0

>  <NssssC>
1

>  <NsNH3>
0

>  <NsNH2>
0

>  <NssNH2>
0

>  <NdNH>
0

>  <NssNH>
0

>  <NaaNH>
0

>  <NtN>
0

>  <NsssNH>
0

>  <NdsN>
0

>  <NaaN>
0

>  <NsssN>
0

>  <NddsN>
0

>  <NaasN>
0

>  <NssssN>
1

>  <NsOH>
1

>  <NdO>
1

>  <NssO>
1

>  <NaaO>
0

>  <NsF>
0

>  <NsSiH3>
0

>  <NssSiH2>
0

>  <NsssSiH>
0

>  <NssssSi>
0

>  <NsPH2>
0

>  <NssPH>
0

>  <NsssP>
0

>  <NdsssP>
0

>  <NsssssP>
0

>  <NsSH>
0

>  <NdS>
0

>  <NssS>
0

>  <NaaS>
0

>  <NdssS>
0

>  <NddssS>
0

>  <NsCl>
0

>  <NsBr>
0

>  <NsI>
0

>  <fragCpx>
129.04

>  <fMF>
0.41

>  <nHBAcc>
3

>  <nHBDon>
1

>  <Kier1>
19.75

>  <Kier2>
8.35

>  <Lipinski>
1

>  <GhoseFilter>
1

>  <FilterItLogS>
-4.64

>  <VMcGowan>
273.81

>  <LabuteASA>
148.81

>  <PEOE_VSA1>
14.33

>  <PEOE_VSA2>
0

>  <PEOE_VSA3>
4.79

>  <PEOE_VSA4>
0

>  <PEOE_VSA5>
0

>  <PEOE_VSA6>
60.66

>  <PEOE_VSA7>
11.13

>  <PEOE_VSA8>
12.84

>  <PEOE_VSA9>
20.64

>  <PEOE_VSA10>
12.65

>  <PEOE_VSA11>
0

>  <PEOE_VSA12>
5.6

>  <PEOE_VSA13>
0

>  <SMR_VSA1>
19.12

>  <SMR_VSA2>
0

>  <SMR_VSA3>
0

>  <SMR_VSA4>
0

>  <SMR_VSA5>
24.48

>  <SMR_VSA6>
27.25

>  <SMR_VSA7>
71.79

>  <SMR_VSA8>
0

>  <SMR_VSA9>
0

>  <SlogP_VSA1>
0

>  <SlogP_VSA2>
48.85

>  <SlogP_VSA3>
15.13

>  <SlogP_VSA4>
0

>  <SlogP_VSA5>
23.97

>  <SlogP_VSA6>
60.66

>  <SlogP_VSA7>
0

>  <SlogP_VSA8>
0

>  <SlogP_VSA9>
0

>  <SlogP_VSA10>
0

>  <SlogP_VSA11>
0

>  <EState_VSA1>
11.57

>  <EState_VSA2>
6.04

>  <EState_VSA3>
17.73

>  <EState_VSA4>
23.87

>  <EState_VSA5>
0

>  <EState_VSA6>
24.27

>  <EState_VSA7>
36.4

>  <EState_VSA8>
14.1

>  <EState_VSA9>
4.74

>  <EState_VSA10>
9.9

>  <VSA_EState1>
6.48

>  <VSA_EState2>
12.95

>  <VSA_EState3>
11.35

>  <VSA_EState4>
-0.75

>  <VSA_EState5>
-0.61

>  <VSA_EState6>
18.26

>  <VSA_EState7>
2.17

>  <VSA_EState8>
1.41

>  <VSA_EState9>
4.32

>  <apol>
55.91

>  <bpol>
30.97

>  <nRing>
3

>  <nHRing>
1

>  <naRing>
2

>  <naHRing>
0

>  <nARing 2>
1

>  <nAHRing 2>
1

>  <nFRing>
0

>  <nFHRing>
0

>  <nFaRing>
0

>  <nFaHRing>
0

>  <nFARing 2>
0

>  <nFAHRing 2>
0

>  <nRot>
5

>  <SLogP>
2.7

>  <SMR>
96.84

>  <TopoPSA(NO)>
46.53

>  <TopoPSA>
46.53

>  <JGI1>
0.22

>  <JGI2>
0.11

>  <JGI3>
0.07

>  <JGI4>
0.03

>  <JGI5>
0.02

>  <Diameter>
10

>  <Radius>
5

>  <TMWC10>
127.98

>  <TSRW10>
74

>  <MW>
340.19

>  <AMW>
6.67

>  <WPath>
1451

>  <WPol>
41

>  <Zagreb1>
132

>  <Zagreb2>
157

>  <mZagreb2>
5.46

>  <yes>


>  <nAR-cont>
0.816016

>  <nHA-cont>
0.921834225

>  <MWHBN>
0.21686987

>  <MWHBN-cont>
0.996747342

>  <TPSA-cont>
0.675191707

>  <pka_cont>
0.97

>  <yes.1>


>  <BBB_SCORE>
5.06835465

>  <MMFF94 Energy>
155.39

$$$$
Compound 3028
Actelion Java MolfileCreator 2.0

  0  0  0  0  0  0              0 V3000
M  V30 BEGIN CTAB
M  V30 COUNTS 35 36 0 0 0
M  V30 BEGIN ATOM
M  V30 1 N 0.4692 1.1735 -1.7998 0
M  V30 2 C 0.3847 0.4604 -0.7177 0
M  V30 3 N -0.5731 0.5197 0.301 0
M  V30 4 C 1.3614 -0.6849 -0.4281 0
M  V30 5 N -0.2713 -0.5075 1.185 0
M  V30 6 C -1.8248 1.1795 0.1738 0
M  V30 7 N 2.4454 -0.9756 -1.2386 0
M  V30 8 C 0.8525 -1.2125 0.7095 0
M  V30 9 C -0.5694 -0.3607 2.6044 0
M  V30 10 C -3.0173 0.5708 0.6019 0
M  V30 11 C -1.9168 2.4634 -0.3856 0
M  V30 12 C 2.8 -2.3413 -1.6016 0
M  V30 13 C 3.4404 0.0353 -1.5888 0
M  V30 14 C 1.4239 -2.348 1.4939 0
M  V30 15 C -4.2493 1.2229 0.4883 0
M  V30 16 C -3.1462 3.1202 -0.5008 0
M  V30 17 C -4.3122 2.5002 -0.0608 0
M  V30 18 H 1.2365 0.7833 -2.3544 0
M  V30 19 H -1.4725 0.2261 2.7907 0
M  V30 20 H 0.2594 0.1411 3.1155 0
M  V30 21 H -0.7202 -1.3422 3.0661 0
M  V30 22 H -2.9953 -0.4386 1.0038 0
M  V30 23 H -1.0186 2.9677 -0.7355 0
M  V30 24 H 3.5862 -2.7229 -0.9423 0
M  V30 25 H 3.1697 -2.3784 -2.6321 0
M  V30 26 H 1.9348 -3.0107 -1.5422 0
M  V30 27 H 3.2315 1.0014 -1.1165 0
M  V30 28 H 3.4679 0.1787 -2.6738 0
M  V30 29 H 4.4356 -0.28 -1.2567 0
M  V30 30 H 1.6794 -2.0289 2.5095 0
M  V30 31 H 2.337 -2.7501 1.0497 0
M  V30 32 H 0.6971 -3.1641 1.5597 0
M  V30 33 H -5.1577 0.7269 0.8191 0
M  V30 34 H -3.1867 4.1134 -0.9399 0
M  V30 35 H -5.2681 3.0081 -0.1554 0
M  V30 END ATOM
M  V30 BEGIN BOND
M  V30 1 2 1 2
M  V30 2 1 2 3
M  V30 3 1 2 4
M  V30 4 1 3 5
M  V30 5 1 3 6
M  V30 6 1 4 7
M  V30 7 2 4 8
M  V30 8 1 5 9
M  V30 9 2 6 10
M  V30 10 1 6 11
M  V30 11 1 7 12
M  V30 12 1 7 13
M  V30 13 1 8 14
M  V30 14 1 10 15
M  V30 15 2 11 16
M  V30 16 2 15 17
M  V30 17 1 5 8
M  V30 18 1 16 17
M  V30 19 1 1 18
M  V30 20 1 9 19
M  V30 21 1 9 20
M  V30 22 1 9 21
M  V30 23 1 10 22
M  V30 24 1 11 23
M  V30 25 1 12 24
M  V30 26 1 12 25
M  V30 27 1 12 26
M  V30 28 1 13 27
M  V30 29 1 13 28
M  V30 30 1 13 29
M  V30 31 1 14 30
M  V30 32 1 14 31
M  V30 33 1 14 32
M  V30 34 1 15 33
M  V30 35 1 16 34
M  V30 36 1 17 35
M  V30 END BOND
M  V30 END CTAB
M  END
>  <Column 1>
3890

>  <level_0>
7559

>  <index>
7560

>  <Unnamed: 0>
7560

>  <NO.>
7573

>  <Name>


>  <IUPAC_name>


>  <SMILES>
Cc1c(N(C)C)c(=N)n(-c2ccccc2)n1C

>  <CID>


>  <logBB>


>  <BBB+/BBB->
BBB+

>  <Inchi>
InChI=1S/C13H18N4/c1-10-12(15(2)3)13(14)17(16(10)4)11-8-6-5-7-9-11/h5-9-14H-1-4H3

>  <threshold>


>  <reference>
R27|

>  <group>
C

>  <Class>
-1

>  <ABC>
12.99

>  <ABCGG>
12.1

>  <nAcid>
0

>  <nBase>
0

>  <nAromAtom>
11

>  <nAromBond>
11

>  <nAtom>
35

>  <nHeavyAtom>
17

>  <nSpiro>
0

>  <nBridgehead>
0

>  <nHetero>
4

>  <nN>
4

>  <nO>
0

>  <nF>
0

>  <BalabanJ>
2.11

>  <BertzCT>
575.46

>  <nBonds>
36

>  <nBondsO>
18

>  <nBondsS>
24

>  <nBondsD>
1

>  <nBondsT>
0

>  <nBondsA>
11

>  <nBondsM>
12

>  <nBondsKS>
31

>  <nBondsKD>
5

>  <RNCG>
0.26

>  <RPCG>
0.13

>  <FCSP3>
0.31

>  <SZ>
20.67

>  <Sm>
19.18

>  <Sv>
20.91

>  <Sse>
34.64

>  <Sp>
22.82

>  <Si>
39.9

>  <MZ>
0.59

>  <Mm>
0.55

>  <Mv>
0.6

>  <Mse>
0.99

>  <Mp>
0.65

>  <Mi>
1.14

>  <NsCH3>
4

>  <NdCH2>
0

>  <NssCH2>
0

>  <NtCH>
0

>  <NdsCH>
0

>  <NaaCH>
5

>  <NsssCH>
0

>  <NddC>
0

>  <NtsC>
0

>  <NdssC>
0

>  <NaasC>
3

>  <NaaaC>
0

>  <NssssC>
0

>  <NsNH3>
0

>  <NsNH2>
0

>  <NssNH2>
0

>  <NdNH>
1

>  <NssNH>
0

>  <NaaNH>
0

>  <NtN>
0

>  <NsssNH>
0

>  <NdsN>
0

>  <NaaN>
0

>  <NsssN>
1

>  <NddsN>
0

>  <NaasN>
2

>  <NssssN>
0

>  <NsOH>
0

>  <NdO>
0

>  <NssO>
0

>  <NaaO>
0

>  <NsF>
0

>  <NsSiH3>
0

>  <NssSiH2>
0

>  <NsssSiH>
0

>  <NssssSi>
0

>  <NsPH2>
0

>  <NssPH>
0

>  <NsssP>
0

>  <NdsssP>
0

>  <NsssssP>
0

>  <NsSH>
0

>  <NdS>
0

>  <NssS>
0

>  <NaaS>
0

>  <NdssS>
0

>  <NddssS>
0

>  <NsCl>
0

>  <NsBr>
0

>  <NsI>
0

>  <fragCpx>
52.04

>  <fMF>
0.31

>  <nHBAcc>
4

>  <nHBDon>
1

>  <Kier1>
13.43

>  <Kier2>
5.33

>  <Lipinski>
1

>  <GhoseFilter>
1

>  <FilterItLogS>
-2.29

>  <VMcGowan>
190.73

>  <LabuteASA>
101.21

>  <PEOE_VSA1>
4.9

>  <PEOE_VSA2>
10.09

>  <PEOE_VSA3>
4.68

>  <PEOE_VSA4>
0

>  <PEOE_VSA5>
0

>  <PEOE_VSA6>
18.2

>  <PEOE_VSA7>
19.06

>  <PEOE_VSA8>
21.14

>  <PEOE_VSA9>
11.38

>  <PEOE_VSA10>
5.69

>  <PEOE_VSA11>
5.49

>  <PEOE_VSA12>
0

>  <PEOE_VSA13>
0

>  <SMR_VSA1>
0

>  <SMR_VSA2>
5.41

>  <SMR_VSA3>
9.36

>  <SMR_VSA4>
7.05

>  <SMR_VSA5>
6.92

>  <SMR_VSA6>
19

>  <SMR_VSA7>
41.51

>  <SMR_VSA8>
0

>  <SMR_VSA9>
5.69

>  <SlogP_VSA1>
10.39

>  <SlogP_VSA2>
23.46

>  <SlogP_VSA3>
7.05

>  <SlogP_VSA4>
12.33

>  <SlogP_VSA5>
5.69

>  <SlogP_VSA6>
30.33

>  <SlogP_VSA7>
0

>  <SlogP_VSA8>
5.69

>  <SlogP_VSA9>
0

>  <SlogP_VSA10>
5.69

>  <SlogP_VSA11>
0

>  <EState_VSA1>
0

>  <EState_VSA2>
0

>  <EState_VSA3>
5.49

>  <EState_VSA4>
17.07

>  <EState_VSA5>
0

>  <EState_VSA6>
0

>  <EState_VSA7>
72.66

>  <EState_VSA8>
0

>  <EState_VSA9>
5.41

>  <EState_VSA10>
0

>  <VSA_EState1>
3.91

>  <VSA_EState2>
1.98

>  <VSA_EState3>
8.28

>  <VSA_EState4>
3.57

>  <VSA_EState5>
0

>  <VSA_EState6>
9.98

>  <VSA_EState7>
0

>  <VSA_EState8>
2.03

>  <VSA_EState9>
5.92

>  <apol>
38.11

>  <bpol>
22.05

>  <nRing>
2

>  <nHRing>
1

>  <naRing>
2

>  <naHRing>
1

>  <nARing 2>
0

>  <nAHRing 2>
0

>  <nFRing>
0

>  <nFHRing>
0

>  <nFaRing>
0

>  <nFaHRing>
0

>  <nFARing 2>
0

>  <nFAHRing 2>
0

>  <nRot>
2

>  <SLogP>
1.67

>  <SMR>
69.66

>  <TopoPSA(NO)>
36.95

>  <TopoPSA>
36.95

>  <JGI1>
0.17

>  <JGI2>
0.09

>  <JGI3>
0.1

>  <JGI4>
0.05

>  <JGI5>
0.03

>  <Diameter>
8

>  <Radius>
4

>  <TMWC10>
107.76

>  <TSRW10>
64.54

>  <MW>
230.15

>  <AMW>
6.58

>  <WPath>
478

>  <WPol>
28

>  <Zagreb1>
88

>  <Zagreb2>
106

>  <mZagreb2>
3.78

>  <yes>


>  <nAR-cont>
0.336376

>  <nHA-cont>
0.976740822

>  <MWHBN>
0.329582782

>  <MWHBN-cont>
0.744305387

>  <TPSA-cont>
0.742066055

>  <pka_cont>
0.97

>  <yes.1>


>  <BBB_SCORE>
4.398707013

>  <MMFF94 Energy>
106.05

$$$$
Compound 3029
Actelion Java MolfileCreator 2.0

  0  0  0  0  0  0              0 V3000
M  V30 BEGIN CTAB
M  V30 COUNTS 37 39 0 0 0
M  V30 BEGIN ATOM
M  V30 1 S -1.6358 -1.6358 1.8813 0
M  V30 2 O -2.7636 -2.5402 1.7482 0
M  V30 3 O -1.6439 -0.59 2.886 0
M  V30 4 C -0.1986 -2.6132 2.1547 0
M  V30 5 C -1.3275 -0.8943 0.2794 0 CFG=1
M  V30 6 C 1.0126 -2.1675 1.6169 0
M  V30 7 C -0.3109 -3.8219 2.8503 0
M  V30 8 C 0.0625 -0.2985 0.2795 0
M  V30 9 C -1.5266 -1.8905 -0.8617 0
M  V30 10 C 1.1208 -0.8801 0.8945 0
M  V30 11 C 2.1414 -2.9753 1.8217 0
M  V30 12 C 0.8225 -4.608 3.0331 0
M  V30 13 C 0.2835 1.0286 -0.3945 0
M  V30 14 O 2.3949 -0.3456 0.9159 0
M  V30 15 C 2.0475 -4.1847 2.5205 0
M  V30 16 O 1.2922 1.6799 -0.1235 0
M  V30 17 N -0.6685 1.4112 -1.3011 0
M  V30 18 C -0.6466 2.5928 -2.0132 0
M  V30 19 N -1.5098 2.7608 -3.0209 0
M  V30 20 C 0.1569 3.7399 -1.839 0
M  V30 21 O -1.2643 4.024 -3.5272 0
M  V30 22 C -0.2651 4.6079 -2.8152 0
M  V30 23 C 0.1227 5.9693 -3.2216 0
M  V30 24 H -2.0916 -0.1104 0.2144 0
M  V30 25 H -1.2692 -4.1479 3.2496 0
M  V30 26 H -0.8811 -2.7692 -0.7568 0
M  V30 27 H -2.5614 -2.2485 -0.8879 0
M  V30 28 H -1.3127 -1.4347 -1.8339 0
M  V30 29 H 3.1136 -2.668 1.4387 0
M  V30 30 H 0.7542 -5.5472 3.577 0
M  V30 31 H 2.3598 0.5754 0.5722 0
M  V30 32 H 2.9374 -4.7929 2.6675 0
M  V30 33 H -1.4352 0.8198 -1.5823 0
M  V30 34 H 0.9331 3.9178 -1.1098 0
M  V30 35 H -0.7273 6.653 -3.1336 0
M  V30 36 H 0.4659 5.9765 -4.2606 0
M  V30 37 H 0.933 6.3512 -2.5928 0
M  V30 END ATOM
M  V30 BEGIN BOND
M  V30 1 2 1 2
M  V30 2 2 1 3
M  V30 3 1 1 4
M  V30 4 1 1 5
M  V30 5 2 4 6
M  V30 6 1 4 7
M  V30 7 1 5 8
M  V30 8 1 5 9
M  V30 9 1 6 10
M  V30 10 1 6 11
M  V30 11 2 7 12
M  V30 12 1 8 13
M  V30 13 1 10 14
M  V30 14 2 11 15
M  V30 15 2 13 16
M  V30 16 1 13 17
M  V30 17 1 17 18
M  V30 18 2 18 19
M  V30 19 1 18 20
M  V30 20 1 19 21
M  V30 21 2 20 22
M  V30 22 1 22 23
M  V30 23 2 8 10
M  V30 24 1 12 15
M  V30 25 1 21 22
M  V30 26 1 5 24
M  V30 27 1 7 25
M  V30 28 1 9 26
M  V30 29 1 9 27
M  V30 30 1 9 28
M  V30 31 1 11 29
M  V30 32 1 12 30
M  V30 33 1 14 31
M  V30 34 1 15 32
M  V30 35 1 17 33
M  V30 36 1 20 34
M  V30 37 1 23 35
M  V30 38 1 23 36
M  V30 39 1 23 37
M  V30 END BOND
M  V30 BEGIN COLLECTION
M  V30 MDLV30/STEABS ATOMS=(1 5)
M  V30 END COLLECTION
M  V30 END CTAB
M  END
>  <Column 1>
3891

>  <level_0>
7562

>  <index>
7563

>  <Unnamed: 0>
7563

>  <NO.>
7576

>  <Name>


>  <IUPAC_name>


>  <SMILES>
Cc1cc(NC(=O)C2=C(O)c3ccccc3S(=O)(=O)[C@@H]2C)no1

>  <CID>


>  <logBB>


>  <BBB+/BBB->
BBB+

>  <Inchi>
InChI=1S/C15H14N2O5S/c1-8-7-12(17-22-8)16-15(19)13-9(2)23(20-21)11-6-4-3-5-10(11)14(13)18/h3-7-9-18H-1-2H3-(H-16-17-19)/t9-/m1/s1

>  <threshold>


>  <reference>
R27|

>  <group>
C

>  <Class>
1

>  <ABC>
18.11

>  <ABCGG>
15.62

>  <nAcid>
0

>  <nBase>
0

>  <nAromAtom>
11

>  <nAromBond>
11

>  <nAtom>
37

>  <nHeavyAtom>
23

>  <nSpiro>
0

>  <nBridgehead>
0

>  <nHetero>
8

>  <nN>
2

>  <nO>
5

>  <nF>
0

>  <BalabanJ>
1.74

>  <BertzCT>
926.85

>  <nBonds>
39

>  <nBondsO>
25

>  <nBondsS>
24

>  <nBondsD>
4

>  <nBondsT>
0

>  <nBondsA>
11

>  <nBondsM>
15

>  <nBondsKS>
30

>  <nBondsKD>
9

>  <RNCG>
0.23

>  <RPCG>
0.13

>  <FCSP3>
0.2

>  <SZ>
29

>  <Sm>
27.84

>  <Sv>
25.07

>  <Sse>
38.27

>  <Sp>
26.04

>  <Si>
41.46

>  <MZ>
0.78

>  <Mm>
0.75

>  <Mv>
0.68

>  <Mse>
1.03

>  <Mp>
0.7

>  <Mi>
1.12

>  <NsCH3>
2

>  <NdCH2>
0

>  <NssCH2>
0

>  <NtCH>
0

>  <NdsCH>
0

>  <NaaCH>
5

>  <NsssCH>
1

>  <NddC>
0

>  <NtsC>
0

>  <NdssC>
3

>  <NaasC>
4

>  <NaaaC>
0

>  <NssssC>
0

>  <NsNH3>
0

>  <NsNH2>
0

>  <NssNH2>
0

>  <NdNH>
0

>  <NssNH>
1

>  <NaaNH>
0

>  <NtN>
0

>  <NsssNH>
0

>  <NdsN>
0

>  <NaaN>
1

>  <NsssN>
0

>  <NddsN>
0

>  <NaasN>
0

>  <NssssN>
0

>  <NsOH>
1

>  <NdO>
3

>  <NssO>
0

>  <NaaO>
1

>  <NsF>
0

>  <NsSiH3>
0

>  <NssSiH2>
0

>  <NsssSiH>
0

>  <NssssSi>
0

>  <NsPH2>
0

>  <NssPH>
0

>  <NsssP>
0

>  <NdsssP>
0

>  <NsssssP>
0

>  <NsSH>
0

>  <NdS>
0

>  <NssS>
0

>  <NaaS>
0

>  <NdssS>
0

>  <NddssS>
1

>  <NsCl>
0

>  <NsBr>
0

>  <NsI>
0

>  <fragCpx>
119.08

>  <fMF>
0.46

>  <nHBAcc>
6

>  <nHBDon>
2

>  <Kier1>
17.81

>  <Kier2>
6.72

>  <Lipinski>
1

>  <GhoseFilter>
1

>  <FilterItLogS>
-3.66

>  <VMcGowan>
225.19

>  <LabuteASA>
132.08

>  <PEOE_VSA1>
14.95

>  <PEOE_VSA2>
4.79

>  <PEOE_VSA3>
8.42

>  <PEOE_VSA4>
0

>  <PEOE_VSA5>
0

>  <PEOE_VSA6>
17.29

>  <PEOE_VSA7>
25.98

>  <PEOE_VSA8>
11.63

>  <PEOE_VSA9>
15.72

>  <PEOE_VSA10>
11.52

>  <PEOE_VSA11>
15.66

>  <PEOE_VSA12>
0

>  <PEOE_VSA13>
5.91

>  <SMR_VSA1>
22.84

>  <SMR_VSA2>
0

>  <SMR_VSA3>
5.16

>  <SMR_VSA4>
0

>  <SMR_VSA5>
23.99

>  <SMR_VSA6>
5.32

>  <SMR_VSA7>
47.23

>  <SMR_VSA8>
0

>  <SMR_VSA9>
0

>  <SlogP_VSA1>
5.32

>  <SlogP_VSA2>
29.84

>  <SlogP_VSA3>
14.63

>  <SlogP_VSA4>
6.92

>  <SlogP_VSA5>
18.25

>  <SlogP_VSA6>
45.32

>  <SlogP_VSA7>
0

>  <SlogP_VSA8>
5.76

>  <SlogP_VSA9>
0

>  <SlogP_VSA10>
5.82

>  <SlogP_VSA11>
0

>  <EState_VSA1>
20.99

>  <EState_VSA2>
27.61

>  <EState_VSA3>
5.76

>  <EState_VSA4>
0

>  <EState_VSA5>
25.12

>  <EState_VSA6>
19.06

>  <EState_VSA7>
0

>  <EState_VSA8>
10.47

>  <EState_VSA9>
4.52

>  <EState_VSA10>
18.32

>  <VSA_EState1>
29.97

>  <VSA_EState2>
12.43

>  <VSA_EState3>
15.27

>  <VSA_EState4>
-0.1

>  <VSA_EState5>
-0.44

>  <VSA_EState6>
7.52

>  <VSA_EState7>
0

>  <VSA_EState8>
3.02

>  <VSA_EState9>
-3.76

>  <apol>
43.5

>  <bpol>
23.87

>  <nRing>
3

>  <nHRing>
2

>  <naRing>
2

>  <naHRing>
1

>  <nARing 2>
1

>  <nAHRing 2>
1

>  <nFRing>
1

>  <nFHRing>
1

>  <nFaRing>
0

>  <nFaHRing>
0

>  <nFARing 2>
1

>  <nFAHRing 2>
1

>  <nRot>
2

>  <SLogP>
2.07

>  <SMR>
82.51

>  <TopoPSA(NO)>
109.5

>  <TopoPSA>
117.88

>  <JGI1>
0.24

>  <JGI2>
0.1

>  <JGI3>
0.08

>  <JGI4>
0.06

>  <JGI5>
0.03

>  <Diameter>
11

>  <Radius>
6

>  <TMWC10>
124.39

>  <TSRW10>
71.56

>  <MW>
334.06

>  <AMW>
9.03

>  <WPath>
1115

>  <WPol>
41

>  <Zagreb1>
126

>  <Zagreb2>
153

>  <mZagreb2>
4.89

>  <yes>


>  <nAR-cont>
0.816016

>  <nHA-cont>
0.967789328

>  <MWHBN>
0.437701211

>  <MWHBN-cont>
0.330807336

>  <TPSA-cont>
0.177124401

>  <pka_cont>
0.97

>  <yes.1>


>  <BBB_SCORE>
3.119265134

>  <MMFF94 Energy>
-16.467

$$$$
Compound 3030
Actelion Java MolfileCreator 2.0

  0  0  0  0  0  0              0 V3000
M  V30 BEGIN CTAB
M  V30 COUNTS 33 34 0 0 0
M  V30 BEGIN ATOM
M  V30 1 S -2.5725 1.0444 0.1606 0
M  V30 2 O -3.8029 0.9056 0.9113 0
M  V30 3 O -2.5574 1.7057 -1.1278 0
M  V30 4 N -1.4686 1.8063 1.1826 0
M  V30 5 C -1.8913 -0.5858 -0.0451 0
M  V30 6 C -0.1329 1.8481 0.7343 0
M  V30 7 C -1.1593 -0.8974 -1.1922 0
M  V30 8 C -2.1208 -1.5538 0.9345 0
M  V30 9 N 0.6607 1.0391 1.4423 0
M  V30 10 C 0.2674 2.6141 -0.3315 0
M  V30 11 C -0.6311 -2.1824 -1.3409 0
M  V30 12 C -1.5882 -2.8353 0.7708 0
M  V30 13 C 1.9402 0.9933 1.0385 0
M  V30 14 C 1.5956 2.5001 -0.6712 0
M  V30 15 C -0.8498 -3.1643 -0.3698 0
M  V30 16 N 2.4402 1.6881 -0.0014 0
M  V30 17 C 2.8627 0.0609 1.7586 0
M  V30 18 C 2.1522 3.2796 -1.8236 0
M  V30 19 N -0.2932 -4.4222 -0.5064 0
M  V30 20 H -1.5244 1.4209 2.1233 0
M  V30 21 H -0.9867 -0.154 -1.9665 0
M  V30 22 H -2.7057 -1.3245 1.8219 0
M  V30 23 H -0.4154 3.2587 -0.868 0
M  V30 24 H -0.0472 -2.413 -2.2284 0
M  V30 25 H -1.7593 -3.5806 1.5435 0
M  V30 26 H 3.8955 0.4174 1.6997 0
M  V30 27 H 2.806 -0.9337 1.3071 0
M  V30 28 H 2.5856 -0.0139 2.8145 0
M  V30 29 H 2.0231 4.353 -1.6526 0
M  V30 30 H 3.2215 3.0809 -1.9483 0
M  V30 31 H 1.6428 2.9991 -2.7508 0
M  V30 32 H -0.5127 -5.1533 0.1561 0
M  V30 33 H 0.1789 -4.6815 -1.3616 0
M  V30 END ATOM
M  V30 BEGIN BOND
M  V30 1 2 1 2
M  V30 2 2 1 3
M  V30 3 1 1 4
M  V30 4 1 1 5
M  V30 5 1 4 6
M  V30 6 2 5 7
M  V30 7 1 5 8
M  V30 8 2 6 9
M  V30 9 1 6 10
M  V30 10 1 7 11
M  V30 11 2 8 12
M  V30 12 1 9 13
M  V30 13 2 10 14
M  V30 14 2 11 15
M  V30 15 2 13 16
M  V30 16 1 13 17
M  V30 17 1 14 18
M  V30 18 1 15 19
M  V30 19 1 12 15
M  V30 20 1 14 16
M  V30 21 1 4 20
M  V30 22 1 7 21
M  V30 23 1 8 22
M  V30 24 1 10 23
M  V30 25 1 11 24
M  V30 26 1 12 25
M  V30 27 1 17 26
M  V30 28 1 17 27
M  V30 29 1 17 28
M  V30 30 1 18 29
M  V30 31 1 18 30
M  V30 32 1 18 31
M  V30 33 1 19 32
M  V30 34 1 19 33
M  V30 END BOND
M  V30 END CTAB
M  END
>  <Column 1>
3892

>  <level_0>
7563

>  <index>
7564

>  <Unnamed: 0>
7564

>  <NO.>
7577

>  <Name>
sulfisomidine

>  <IUPAC_name>
4-amino-n-(2-6-dimethylpyrimidin-4-yl)benzenesulfonamide

>  <SMILES>
Cc1cc(NS(=O)(=O)c2ccc(N)cc2)nc(C)n1

>  <CID>
5343

>  <logBB>


>  <BBB+/BBB->
BBB+

>  <Inchi>
InChI=1S/C12H14N4O2S/c1-8-7-12(15-9(2)14-8)16-19(17-18)11-5-3-10(13)4-6-11/h3-7H-13H2-1-2H3-(H-14-15-16)

>  <threshold>


>  <reference>
R27|

>  <group>
C

>  <Class>
-1

>  <ABC>
14.73

>  <ABCGG>
12.49

>  <nAcid>
0

>  <nBase>
0

>  <nAromAtom>
12

>  <nAromBond>
12

>  <nAtom>
33

>  <nHeavyAtom>
19

>  <nSpiro>
0

>  <nBridgehead>
0

>  <nHetero>
7

>  <nN>
4

>  <nO>
2

>  <nF>
0

>  <BalabanJ>
1.89

>  <BertzCT>
675.92

>  <nBonds>
34

>  <nBondsO>
20

>  <nBondsS>
20

>  <nBondsD>
2

>  <nBondsT>
0

>  <nBondsA>
12

>  <nBondsM>
14

>  <nBondsKS>
26

>  <nBondsKD>
8

>  <RNCG>
0.23

>  <RPCG>
0.15

>  <FCSP3>
0.17

>  <SZ>
24.33

>  <Sm>
23.17

>  <Sv>
21.44

>  <Sse>
33.61

>  <Sp>
22.92

>  <Si>
37.41

>  <MZ>
0.74

>  <Mm>
0.7

>  <Mv>
0.65

>  <Mse>
1.02

>  <Mp>
0.69

>  <Mi>
1.13

>  <NsCH3>
2

>  <NdCH2>
0

>  <NssCH2>
0

>  <NtCH>
0

>  <NdsCH>
0

>  <NaaCH>
5

>  <NsssCH>
0

>  <NddC>
0

>  <NtsC>
0

>  <NdssC>
0

>  <NaasC>
5

>  <NaaaC>
0

>  <NssssC>
0

>  <NsNH3>
0

>  <NsNH2>
1

>  <NssNH2>
0

>  <NdNH>
0

>  <NssNH>
1

>  <NaaNH>
0

>  <NtN>
0

>  <NsssNH>
0

>  <NdsN>
0

>  <NaaN>
2

>  <NsssN>
0

>  <NddsN>
0

>  <NaasN>
0

>  <NssssN>
0

>  <NsOH>
0

>  <NdO>
2

>  <NssO>
0

>  <NaaO>
0

>  <NsF>
0

>  <NsSiH3>
0

>  <NssSiH2>
0

>  <NsssSiH>
0

>  <NssssSi>
0

>  <NsPH2>
0

>  <NssPH>
0

>  <NsssP>
0

>  <NdsssP>
0

>  <NsssssP>
0

>  <NsSH>
0

>  <NdS>
0

>  <NssS>
0

>  <NaaS>
0

>  <NdssS>
0

>  <NddssS>
1

>  <NsCl>
0

>  <NsBr>
0

>  <NsI>
0

>  <fragCpx>
58.07

>  <fMF>
0.42

>  <nHBAcc>
5

>  <nHBDon>
2

>  <Kier1>
15.39

>  <Kier2>
6.19

>  <Lipinski>
1

>  <GhoseFilter>
1

>  <FilterItLogS>
-3.8

>  <VMcGowan>
200.43

>  <LabuteASA>
111.31

>  <PEOE_VSA1>
5.73

>  <PEOE_VSA2>
4.72

>  <PEOE_VSA3>
18.39

>  <PEOE_VSA4>
0

>  <PEOE_VSA5>
0

>  <PEOE_VSA6>
0

>  <PEOE_VSA7>
38.11

>  <PEOE_VSA8>
17.45

>  <PEOE_VSA9>
4.9

>  <PEOE_VSA10>
11.64

>  <PEOE_VSA11>
0

>  <PEOE_VSA12>
0

>  <PEOE_VSA13>
10.02

>  <SMR_VSA1>
8.42

>  <SMR_VSA2>
0

>  <SMR_VSA3>
9.97

>  <SMR_VSA4>
0

>  <SMR_VSA5>
18.74

>  <SMR_VSA6>
10.46

>  <SMR_VSA7>
41.85

>  <SMR_VSA8>
0

>  <SMR_VSA9>
0

>  <SlogP_VSA1>
10.46

>  <SlogP_VSA2>
18.39

>  <SlogP_VSA3>
10.02

>  <SlogP_VSA4>
13.85

>  <SlogP_VSA5>
11.52

>  <SlogP_VSA6>
35.23

>  <SlogP_VSA7>
0

>  <SlogP_VSA8>
0

>  <SlogP_VSA9>
0

>  <SlogP_VSA10>
11.51

>  <SlogP_VSA11>
0

>  <EState_VSA1>
10.02

>  <EState_VSA2>
10.71

>  <EState_VSA3>
17.21

>  <EState_VSA4>
0

>  <EState_VSA5>
24.27

>  <EState_VSA6>
19.91

>  <EState_VSA7>
0

>  <EState_VSA8>
14.69

>  <EState_VSA9>
5.73

>  <EState_VSA10>
8.42

>  <VSA_EState1>
26.66

>  <VSA_EState2>
8.26

>  <VSA_EState3>
0

>  <VSA_EState4>
6.73

>  <VSA_EState5>
0.76

>  <VSA_EState6>
7.52

>  <VSA_EState7>
0

>  <VSA_EState8>
3.48

>  <VSA_EState9>
-3.66

>  <apol>
38.28

>  <bpol>
22.98

>  <nRing>
2

>  <nHRing>
1

>  <naRing>
2

>  <naHRing>
1

>  <nARing 2>
0

>  <nAHRing 2>
0

>  <nFRing>
0

>  <nFHRing>
0

>  <nFaRing>
0

>  <nFaHRing>
0

>  <nFARing 2>
0

>  <nFAHRing 2>
0

>  <nRot>
3

>  <SLogP>
1.48

>  <SMR>
73.17

>  <TopoPSA(NO)>
97.97

>  <TopoPSA>
106.35

>  <JGI1>
0.33

>  <JGI2>
0.08

>  <JGI3>
0.07

>  <JGI4>
0.05

>  <JGI5>
0.04

>  <Diameter>
10

>  <Radius>
5

>  <TMWC10>
111.08

>  <TSRW10>
52.35

>  <MW>
278.08

>  <AMW>
8.43

>  <WPath>
722

>  <WPol>
27

>  <Zagreb1>
98

>  <Zagreb2>
111

>  <mZagreb2>
4.04

>  <yes>


>  <nAR-cont>
0.336376

>  <nHA-cont>
0.998649058

>  <MWHBN>
0.419771706

>  <MWHBN-cont>
0.398844715

>  <TPSA-cont>
0.257610961

>  <pka_cont>
0.97

>  <yes.1>


>  <BBB_SCORE>
2.933514051

>  <MMFF94 Energy>
-99.991

$$$$
Compound 3031
Actelion Java MolfileCreator 2.0

  0  0  0  0  0  0              0 V3000
M  V30 BEGIN CTAB
M  V30 COUNTS 40 42 0 0 0
M  V30 BEGIN ATOM
M  V30 1 Cl -0.7409 -5.9388 1.9767 0
M  V30 2 C -0.0404 -4.492 1.3722 0
M  V30 3 C 1.3026 -4.4595 1.0485 0
M  V30 4 C -0.8188 -3.3558 1.2128 0
M  V30 5 N 1.8987 -3.3095 0.559 0 CHG=1
M  V30 6 C -0.257 -2.1672 0.7217 0
M  V30 7 O 3.1427 -3.3524 0.2798 0 CHG=-1
M  V30 8 C 1.1255 -2.1461 0.3826 0
M  V30 9 C -1.1205 -0.98 0.5907 0
M  V30 10 C 1.8002 -0.9543 -0.1612 0
M  V30 11 C -0.9248 0.1473 1.4075 0
M  V30 12 C -2.1565 -0.9499 -0.3596 0
M  V30 13 C 1.4183 -0.3807 -1.3737 0
M  V30 14 C 2.8449 -0.318 0.5176 0
M  V30 15 C -1.7197 1.2862 1.2608 0
M  V30 16 C -2.9561 0.1851 -0.5125 0
M  V30 17 N 1.96 0.7409 -1.909 0
M  V30 18 C 3.4377 0.8266 -0.0151 0
M  V30 19 C -2.7189 1.3041 0.2871 0
M  V30 20 C 2.9688 1.3263 -1.2248 0
M  V30 21 S -3.7252 2.7556 0.0901 0
M  V30 22 C 3.5898 2.5516 -1.8249 0
M  V30 23 O -4.9719 2.3405 -0.5243 0
M  V30 24 O -3.7204 3.4629 1.3566 0
M  V30 25 C -2.8183 3.7207 -1.0902 0
M  V30 26 H 1.9862 -5.2899 1.1403 0
M  V30 27 H -1.8744 -3.3864 1.4835 0
M  V30 28 H -0.1434 0.1494 2.166 0
M  V30 29 H -2.3427 -1.8113 -0.9994 0
M  V30 30 H 0.6286 -0.8183 -1.9794 0
M  V30 31 H 3.2193 -0.7204 1.4565 0
M  V30 32 H -1.5512 2.1466 1.9055 0
M  V30 33 H -3.7534 0.1865 -1.2534 0
M  V30 34 H 4.2582 1.3092 0.5062 0
M  V30 35 H 4.6503 2.3759 -2.0304 0
M  V30 36 H 3.0988 2.8158 -2.7671 0
M  V30 37 H 3.4912 3.3998 -1.1402 0
M  V30 38 H -2.7259 3.154 -2.0186 0
M  V30 39 H -1.8349 3.9558 -0.6789 0
M  V30 40 H -3.3745 4.6429 -1.2722 0
M  V30 END ATOM
M  V30 BEGIN BOND
M  V30 1 1 1 2
M  V30 2 2 2 3
M  V30 3 1 2 4
M  V30 4 1 3 5
M  V30 5 2 4 6
M  V30 6 1 5 7
M  V30 7 2 5 8
M  V30 8 1 6 9
M  V30 9 1 8 10
M  V30 10 2 9 11
M  V30 11 1 9 12
M  V30 12 2 10 13
M  V30 13 1 10 14
M  V30 14 1 11 15
M  V30 15 2 12 16
M  V30 16 1 13 17
M  V30 17 2 14 18
M  V30 18 2 15 19
M  V30 19 2 17 20
M  V30 20 1 19 21
M  V30 21 1 20 22
M  V30 22 2 21 23
M  V30 23 2 21 24
M  V30 24 1 21 25
M  V30 25 1 6 8
M  V30 26 1 16 19
M  V30 27 1 18 20
M  V30 28 1 3 26
M  V30 29 1 4 27
M  V30 30 1 11 28
M  V30 31 1 12 29
M  V30 32 1 13 30
M  V30 33 1 14 31
M  V30 34 1 15 32
M  V30 35 1 16 33
M  V30 36 1 18 34
M  V30 37 1 22 35
M  V30 38 1 22 36
M  V30 39 1 22 37
M  V30 40 1 25 38
M  V30 41 1 25 39
M  V30 42 1 25 40
M  V30 END BOND
M  V30 END CTAB
M  END
>  <Column 1>
3894

>  <level_0>
7566

>  <index>
7567

>  <Unnamed: 0>
7567

>  <NO.>
7580

>  <Name>
2-(6-methyl-3-pyridyl)-3-[4-(methylsulfonyl)phenyl]-5-chloropyridine 1-oxide

>  <IUPAC_name>
5-chloro-2-(6-methylpyridin-3-yl)-3-(4-methylsulfonylphenyl)-1-oxidopyridin-1-ium

>  <SMILES>
Cc1ccc(-c2c(-c3ccc(S(C)(=O)=O)cc3)cc(Cl)c[n+]2[O-])cn1

>  <CID>
102019668

>  <logBB>


>  <BBB+/BBB->
BBB+

>  <Inchi>
InChI=1S/C18H15ClN2O3S/c1-12-3-4-14(10-20-12)18-17(9-15(19)11-21(18)22)13-5-7-16(8-6-13)25(2-23)24/h3-11H-1-2H3

>  <threshold>


>  <reference>
R27|

>  <group>
C

>  <Class>
1

>  <ABC>
19.67

>  <ABCGG>
15.7

>  <nAcid>
0

>  <nBase>
0

>  <nAromAtom>
18

>  <nAromBond>
18

>  <nAtom>
40

>  <nHeavyAtom>
25

>  <nSpiro>
0

>  <nBridgehead>
0

>  <nHetero>
7

>  <nN>
2

>  <nO>
3

>  <nF>
0

>  <BalabanJ>
1.68

>  <BertzCT>
1031.17

>  <nBonds>
42

>  <nBondsO>
27

>  <nBondsS>
22

>  <nBondsD>
2

>  <nBondsT>
0

>  <nBondsA>
18

>  <nBondsM>
20

>  <nBondsKS>
31

>  <nBondsKD>
11

>  <RNCG>
0.32

>  <RPCG>
0.12

>  <FCSP3>
0.11

>  <SZ>
32.33

>  <Sm>
31.21

>  <Sv>
28

>  <Sse>
40.82

>  <Sp>
29.79

>  <Si>
44.4

>  <MZ>
0.81

>  <Mm>
0.78

>  <Mv>
0.7

>  <Mse>
1.02

>  <Mp>
0.74

>  <Mi>
1.11

>  <NsCH3>
2

>  <NdCH2>
0

>  <NssCH2>
0

>  <NtCH>
0

>  <NdsCH>
0

>  <NaaCH>
9

>  <NsssCH>
0

>  <NddC>
0

>  <NtsC>
0

>  <NdssC>
0

>  <NaasC>
7

>  <NaaaC>
0

>  <NssssC>
0

>  <NsNH3>
0

>  <NsNH2>
0

>  <NssNH2>
0

>  <NdNH>
0

>  <NssNH>
0

>  <NaaNH>
0

>  <NtN>
0

>  <NsssNH>
0

>  <NdsN>
0

>  <NaaN>
1

>  <NsssN>
0

>  <NddsN>
0

>  <NaasN>
1

>  <NssssN>
0

>  <NsOH>
0

>  <NdO>
2

>  <NssO>
0

>  <NaaO>
0

>  <NsF>
0

>  <NsSiH3>
0

>  <NssSiH2>
0

>  <NsssSiH>
0

>  <NssssSi>
0

>  <NsPH2>
0

>  <NssPH>
0

>  <NsssP>
0

>  <NdsssP>
0

>  <NsssssP>
0

>  <NsSH>
0

>  <NdS>
0

>  <NssS>
0

>  <NaaS>
0

>  <NdssS>
0

>  <NddssS>
1

>  <NsCl>
1

>  <NsBr>
0

>  <NsI>
0

>  <fragCpx>
129.07

>  <fMF>
0.45

>  <nHBAcc>
4

>  <nHBDon>
0

>  <Kier1>
19.75

>  <Kier2>
7.94

>  <Lipinski>
1

>  <GhoseFilter>
1

>  <FilterItLogS>
-5.81

>  <VMcGowan>
259.36

>  <LabuteASA>
150.6

>  <PEOE_VSA1>
5.21

>  <PEOE_VSA2>
4.98

>  <PEOE_VSA3>
8.42

>  <PEOE_VSA4>
4.73

>  <PEOE_VSA5>
0

>  <PEOE_VSA6>
23.73

>  <PEOE_VSA7>
42.82

>  <PEOE_VSA8>
18.15

>  <PEOE_VSA9>
16.02

>  <PEOE_VSA10>
5.02

>  <PEOE_VSA11>
16.03

>  <PEOE_VSA12>
5.69

>  <PEOE_VSA13>
0

>  <SMR_VSA1>
13.15

>  <SMR_VSA2>
0

>  <SMR_VSA3>
4.98

>  <SMR_VSA4>
0

>  <SMR_VSA5>
11.82

>  <SMR_VSA6>
6.26

>  <SMR_VSA7>
70.78

>  <SMR_VSA8>
0

>  <SMR_VSA9>
22.38

>  <SlogP_VSA1>
4.73

>  <SlogP_VSA2>
19.66

>  <SlogP_VSA3>
9.84

>  <SlogP_VSA4>
12.13

>  <SlogP_VSA5>
5.69

>  <SlogP_VSA6>
59.75

>  <SlogP_VSA7>
5.02

>  <SlogP_VSA8>
22.38

>  <SlogP_VSA9>
0

>  <SlogP_VSA10>
0

>  <SlogP_VSA11>
0

>  <EState_VSA1>
9.84

>  <EState_VSA2>
4.9

>  <EState_VSA3>
32.14

>  <EState_VSA4>
11.95

>  <EState_VSA5>
18.33

>  <EState_VSA6>
24.4

>  <EState_VSA7>
19.06

>  <EState_VSA8>
4.98

>  <EState_VSA9>
11.6

>  <EState_VSA10>
13.63

>  <VSA_EState1>
23.95

>  <VSA_EState2>
4.45

>  <VSA_EState3>
12.75

>  <VSA_EState4>
3.2

>  <VSA_EState5>
0

>  <VSA_EState6>
11.66

>  <VSA_EState7>
4.06

>  <VSA_EState8>
1.86

>  <VSA_EState9>
-3.29

>  <apol>
49.75

>  <bpol>
24.79

>  <nRing>
3

>  <nHRing>
2

>  <naRing>
3

>  <naHRing>
2

>  <nARing 2>
0

>  <nAHRing 2>
0

>  <nFRing>
0

>  <nFHRing>
0

>  <nFaRing>
0

>  <nFaHRing>
0

>  <nFARing 2>
0

>  <nFAHRing 2>
0

>  <nRot>
3

>  <SLogP>
3.41

>  <SMR>
96.93

>  <TopoPSA(NO)>
73.97

>  <TopoPSA>
82.35

>  <JGI1>
0.26

>  <JGI2>
0.09

>  <JGI3>
0.05

>  <JGI4>
0.04

>  <JGI5>
0.03

>  <Diameter>
12

>  <Radius>
6

>  <TMWC10>
127.9

>  <TSRW10>
60.1

>  <MW>
374.05

>  <AMW>
9.35

>  <WPath>
1472

>  <WPol>
41

>  <Zagreb1>
134

>  <Zagreb2>
157

>  <mZagreb2>
5.28

>  <yes>


>  <nAR-cont>
0.336376

>  <nHA-cont>
0.921834225

>  <MWHBN>
0.206821252

>  <MWHBN-cont>
0.999863291

>  <TPSA-cont>
0.425145864

>  <pka_cont>
0.97

>  <yes.1>


>  <BBB_SCORE>
4.093296888

>  <MMFF94 Energy>
82.561

$$$$
Compound 3032
Actelion Java MolfileCreator 2.0

  0  0  0  0  0  0              0 V3000
M  V30 BEGIN CTAB
M  V30 COUNTS 43 45 0 0 0
M  V30 BEGIN ATOM
M  V30 1 S -0.5646 2.8257 1.9369 0
M  V30 2 O 0.7541 2.952 1.3491 0
M  V30 3 O -1.1657 3.9012 2.6932 0
M  V30 4 N -1.6234 2.4155 0.7394 0
M  V30 5 C -0.5775 1.3671 2.9492 0
M  V30 6 C -1.4026 1.5722 -0.3457 0
M  V30 7 C -1.5496 1.2341 3.9442 0
M  V30 8 C 0.3971 0.3828 2.7698 0
M  V30 9 O -2.3775 1.135 -0.9405 0
M  V30 10 N -0.0876 1.3341 -0.6849 0
M  V30 11 C -1.5571 0.0949 4.7505 0
M  V30 12 C 0.3821 -0.7543 3.5792 0
M  V30 13 N 0.2494 0.439 -1.7092 0
M  V30 14 C -0.5872 -0.902 4.5807 0
M  V30 15 C 0.3748 1.1053 -3.0101 0
M  V30 16 C 1.546 -0.2072 -1.492 0
M  V30 17 C -0.6196 -2.1417 5.4264 0
M  V30 18 C 1.1255 0.087 -3.8716 0 CFG=1
M  V30 19 C 1.898 -0.7893 -2.8625 0 CFG=2
M  V30 20 C 0.2086 -0.873 -4.6389 0
M  V30 21 C 1.3903 -2.22 -3.0791 0
M  V30 22 C 0.0227 -2.0707 -3.7234 0
M  V30 23 H -2.5923 2.6619 0.9135 0
M  V30 24 H -2.3003 2.0059 4.0998 0
M  V30 25 H 1.1659 0.484 2.0084 0
M  V30 26 H 0.6402 1.8691 -0.2106 0
M  V30 27 H -2.3226 -0.0098 5.5172 0
M  V30 28 H 1.1344 -1.526 3.4276 0
M  V30 29 H -0.5996 1.377 -3.4287 0
M  V30 30 H 0.9758 2.0205 -2.922 0
M  V30 31 H 1.4964 -0.9685 -0.7069 0
M  V30 32 H 2.3081 0.5295 -1.2046 0
M  V30 33 H 0.3886 -2.5446 5.5675 0
M  V30 34 H -1.0248 -1.9259 6.4206 0
M  V30 35 H -1.242 -2.9041 4.948 0
M  V30 36 H 1.7959 0.6057 -4.5658 0
M  V30 37 H 2.981 -0.7447 -3.0216 0
M  V30 38 H 0.7153 -1.1968 -5.5567 0
M  V30 39 H -0.7442 -0.422 -4.9316 0
M  V30 40 H 1.3538 -2.8116 -2.1595 0
M  V30 41 H 2.0616 -2.737 -3.7763 0
M  V30 42 H -0.7439 -1.868 -2.9676 0
M  V30 43 H -0.2747 -2.9683 -4.2733 0
M  V30 END ATOM
M  V30 BEGIN BOND
M  V30 1 2 1 2
M  V30 2 2 1 3
M  V30 3 1 1 4
M  V30 4 1 1 5
M  V30 5 1 4 6
M  V30 6 2 5 7
M  V30 7 1 5 8
M  V30 8 2 6 9
M  V30 9 1 6 10
M  V30 10 1 7 11
M  V30 11 2 8 12
M  V30 12 1 10 13
M  V30 13 2 11 14
M  V30 14 1 13 15
M  V30 15 1 13 16
M  V30 16 1 14 17
M  V30 17 1 15 18
M  V30 18 1 16 19
M  V30 19 1 18 20
M  V30 20 1 19 21
M  V30 21 1 20 22
M  V30 22 1 12 14
M  V30 23 1 18 19
M  V30 24 1 21 22
M  V30 25 1 4 23
M  V30 26 1 7 24
M  V30 27 1 8 25
M  V30 28 1 10 26
M  V30 29 1 11 27
M  V30 30 1 12 28
M  V30 31 1 15 29
M  V30 32 1 15 30
M  V30 33 1 16 31
M  V30 34 1 16 32
M  V30 35 1 17 33
M  V30 36 1 17 34
M  V30 37 1 17 35
M  V30 38 1 18 36
M  V30 39 1 19 37
M  V30 40 1 20 38
M  V30 41 1 20 39
M  V30 42 1 21 40
M  V30 43 1 21 41
M  V30 44 1 22 42
M  V30 45 1 22 43
M  V30 END BOND
M  V30 BEGIN COLLECTION
M  V30 MDLV30/STEABS ATOMS=(2 18 19)
M  V30 END COLLECTION
M  V30 END CTAB
M  END
>  <Column 1>
3895

>  <level_0>
7569

>  <index>
7570

>  <Unnamed: 0>
7570

>  <NO.>
7583

>  <Name>
unii-g4px8c4hkv

>  <IUPAC_name>
1-[(3as-6ar)-3-3a-4-5-6-6a-hexahydro-1h-cyclopenta[c]pyrrol-2-yl]-3-(4-methylphenyl)sulfonylurea

>  <SMILES>
Cc1ccc(S(=O)(=O)NC(=O)NN2C[C@H]3CCC[C@H]3C2)cc1

>  <CID>
667431

>  <logBB>


>  <BBB+/BBB->
BBB+

>  <Inchi>
InChI=1S/C15H21N3O3S/c1-11-5-7-14(8-6-11)22(20-21)17-15(19)16-18-9-12-3-2-4-13(12)10-18/h5-8-12-13H-2-4-9-10H2-1H3-(H2-16-17-19)/t12--13+

>  <threshold>


>  <reference>
R27|

>  <group>
C

>  <Class>
1

>  <ABC>
17.41

>  <ABCGG>
14.68

>  <nAcid>
0

>  <nBase>
0

>  <nAromAtom>
6

>  <nAromBond>
6

>  <nAtom>
43

>  <nHeavyAtom>
22

>  <nSpiro>
0

>  <nBridgehead>
0

>  <nHetero>
7

>  <nN>
3

>  <nO>
3

>  <nF>
0

>  <BalabanJ>
1.45

>  <BertzCT>
645.12

>  <nBonds>
45

>  <nBondsO>
24

>  <nBondsS>
36

>  <nBondsD>
3

>  <nBondsT>
0

>  <nBondsA>
6

>  <nBondsM>
9

>  <nBondsKS>
39

>  <nBondsKD>
6

>  <RNCG>
0.15

>  <RPCG>
0.19

>  <FCSP3>
0.53

>  <SZ>
28.67

>  <Sm>
26.93

>  <Sv>
26.29

>  <Sse>
43.38

>  <Sp>
28.54

>  <Si>
48.78

>  <MZ>
0.67

>  <Mm>
0.63

>  <Mv>
0.61

>  <Mse>
1.01

>  <Mp>
0.66

>  <Mi>
1.13

>  <NsCH3>
1

>  <NdCH2>
0

>  <NssCH2>
5

>  <NtCH>
0

>  <NdsCH>
0

>  <NaaCH>
4

>  <NsssCH>
2

>  <NddC>
0

>  <NtsC>
0

>  <NdssC>
1

>  <NaasC>
2

>  <NaaaC>
0

>  <NssssC>
0

>  <NsNH3>
0

>  <NsNH2>
0

>  <NssNH2>
0

>  <NdNH>
0

>  <NssNH>
2

>  <NaaNH>
0

>  <NtN>
0

>  <NsssNH>
0

>  <NdsN>
0

>  <NaaN>
0

>  <NsssN>
1

>  <NddsN>
0

>  <NaasN>
0

>  <NssssN>
0

>  <NsOH>
0

>  <NdO>
3

>  <NssO>
0

>  <NaaO>
0

>  <NsF>
0

>  <NsSiH3>
0

>  <NssSiH2>
0

>  <NsssSiH>
0

>  <NssssSi>
0

>  <NsPH2>
0

>  <NssPH>
0

>  <NsssP>
0

>  <NdsssP>
0

>  <NsssssP>
0

>  <NsSH>
0

>  <NdS>
0

>  <NssS>
0

>  <NaaS>
0

>  <NdssS>
0

>  <NddssS>
1

>  <NsCl>
0

>  <NsBr>
0

>  <NsI>
0

>  <fragCpx>
114.07

>  <fMF>
0.42

>  <nHBAcc>
4

>  <nHBDon>
2

>  <Kier1>
16.84

>  <Kier2>
6.86

>  <Lipinski>
1

>  <GhoseFilter>
1

>  <FilterItLogS>
-2.95

>  <VMcGowan>
236.33

>  <LabuteASA>
130.46

>  <PEOE_VSA1>
0

>  <PEOE_VSA2>
5.43

>  <PEOE_VSA3>
22.94

>  <PEOE_VSA4>
0

>  <PEOE_VSA5>
0

>  <PEOE_VSA6>
24.12

>  <PEOE_VSA7>
43.73

>  <PEOE_VSA8>
13.09

>  <PEOE_VSA9>
4.9

>  <PEOE_VSA10>
0

>  <PEOE_VSA11>
0

>  <PEOE_VSA12>
0

>  <PEOE_VSA13>
10.02

>  <SMR_VSA1>
13.21

>  <SMR_VSA2>
0

>  <SMR_VSA3>
15.16

>  <SMR_VSA4>
11.84

>  <SMR_VSA5>
31.08

>  <SMR_VSA6>
13.09

>  <SMR_VSA7>
29.83

>  <SMR_VSA8>
0

>  <SMR_VSA9>
0

>  <SlogP_VSA1>
10.15

>  <SlogP_VSA2>
32.55

>  <SlogP_VSA3>
10.02

>  <SlogP_VSA4>
18.76

>  <SlogP_VSA5>
24.83

>  <SlogP_VSA6>
29.16

>  <SlogP_VSA7>
0

>  <SlogP_VSA8>
0

>  <SlogP_VSA9>
0

>  <SlogP_VSA10>
4.79

>  <SlogP_VSA11>
0

>  <EState_VSA1>
16.05

>  <EState_VSA2>
4.9

>  <EState_VSA3>
11.84

>  <EState_VSA4>
18.65

>  <EState_VSA5>
31.4

>  <EState_VSA6>
12.13

>  <EState_VSA7>
11.93

>  <EState_VSA8>
10.15

>  <EState_VSA9>
0

>  <EState_VSA10>
13.21

>  <VSA_EState1>
26.33

>  <VSA_EState2>
12.02

>  <VSA_EState3>
1.83

>  <VSA_EState4>
3.61

>  <VSA_EState5>
1.27

>  <VSA_EState6>
5.69

>  <VSA_EState7>
3.66

>  <VSA_EState8>
3.49

>  <VSA_EState9>
-3.83

>  <apol>
47.66

>  <bpol>
30.3

>  <nRing>
3

>  <nHRing>
1

>  <naRing>
1

>  <naHRing>
0

>  <nARing 2>
2

>  <nAHRing 2>
1

>  <nFRing>
1

>  <nFHRing>
1

>  <nFaRing>
0

>  <nFaHRing>
0

>  <nFARing 2>
1

>  <nFAHRing 2>
1

>  <nRot>
3

>  <SLogP>
1.63

>  <SMR>
82.44

>  <TopoPSA(NO)>
78.51

>  <TopoPSA>
86.89

>  <JGI1>
0.27

>  <JGI2>
0.08

>  <JGI3>
0.07

>  <JGI4>
0.03

>  <JGI5>
0.04

>  <Diameter>
13

>  <Radius>
7

>  <TMWC10>
120.27

>  <TSRW10>
72

>  <MW>
323.13

>  <AMW>
7.51

>  <WPath>
1154

>  <WPol>
30

>  <Zagreb1>
118

>  <Zagreb2>
137

>  <mZagreb2>
4.65

>  <yes>


>  <nAR-cont>
1

>  <nHA-cont>
0.983774276

>  <MWHBN>
0.333781767

>  <MWHBN-cont>
0.729490532

>  <TPSA-cont>
0.393453845

>  <pka_cont>
0.97

>  <yes.1>


>  <BBB_SCORE>
4.349917763

>  <MMFF94 Energy>
-72.668

$$$$
Compound 3033
Actelion Java MolfileCreator 2.0

  0  0  0  0  0  0              0 V3000
M  V30 BEGIN CTAB
M  V30 COUNTS 51 53 0 0 0
M  V30 BEGIN ATOM
M  V30 1 S 3.9494 -0.4024 0.805 0
M  V30 2 O 5.324 -0.8479 0.8122 0
M  V30 3 O 3.4508 0.5762 1.75 0
M  V30 4 N 3.6199 0.1576 -0.7162 0
M  V30 5 C 2.9176 -1.8435 0.9048 0
M  V30 6 C 2.4292 0.6775 -1.1932 0
M  V30 7 C 1.8892 -1.9052 1.847 0
M  V30 8 C 3.1457 -2.9058 0.0262 0
M  V30 9 O 2.2242 0.7006 -2.3988 0
M  V30 10 N 1.5493 1.1641 -0.2739 0
M  V30 11 C 1.069 -3.0334 1.8956 0
M  V30 12 C 2.3222 -4.0311 0.0815 0
M  V30 13 C 0.3006 1.7707 -0.6843 0 CFG=1
M  V30 14 C 1.2844 -4.1068 1.0208 0
M  V30 15 C -0.6408 0.8001 -1.4571 0 CFG=2
M  V30 16 C -0.6081 2.2568 0.4737 0 CFG=2
M  V30 17 C 0.3789 -5.3037 1.0539 0
M  V30 18 O -0.6656 1.1089 -2.8427 0
M  V30 19 C -2.0137 1.0077 -0.7413 0 CFG=2
M  V30 20 C -1.9699 2.4883 -0.2448 0
M  V30 21 C -0.9131 1.0648 1.4122 0
M  V30 22 C -1.8929 0.2112 0.5893 0
M  V30 23 C -3.2208 0.6033 -1.5659 0
M  V30 24 C -1.9432 3.5619 -1.351 0
M  V30 25 C -3.1149 2.9031 0.7054 0
M  V30 26 H 4.2992 -0.1194 -1.4175 0
M  V30 27 H 1.7166 -1.0889 2.5442 0
M  V30 28 H 3.9557 -2.868 -0.6978 0
M  V30 29 H 1.8841 1.2877 0.6779 0
M  V30 30 H 0.2615 -3.0741 2.6244 0
M  V30 31 H 2.4957 -4.8533 -0.6103 0
M  V30 32 H 0.5869 2.6176 -1.3193 0
M  V30 33 H -0.3175 -0.2447 -1.3747 0
M  V30 34 H -0.2038 3.1236 1.003 0
M  V30 35 H 0.9136 -6.2068 0.7418 0
M  V30 36 H 0.0046 -5.4821 2.0674 0
M  V30 37 H -0.4722 -5.1465 0.3844 0
M  V30 38 H 0.2579 1.0076 -3.1553 0
M  V30 39 H -1.3825 1.4026 2.3424 0
M  V30 40 H -0.0223 0.4995 1.6953 0
M  V30 41 H -1.5107 -0.8045 0.4385 0
M  V30 42 H -2.8549 0.1147 1.1044 0
M  V30 43 H -4.1488 0.7195 -0.9965 0
M  V30 44 H -3.3112 1.2088 -2.4732 0
M  V30 45 H -3.1486 -0.4464 -1.8699 0
M  V30 46 H -2.9226 3.6398 -1.8372 0
M  V30 47 H -1.22 3.3862 -2.1475 0
M  V30 48 H -1.7076 4.5428 -0.9217 0
M  V30 49 H -4.064 2.9706 0.1614 0
M  V30 50 H -3.2848 2.2237 1.5428 0
M  V30 51 H -2.9095 3.8891 1.1386 0
M  V30 END ATOM
M  V30 BEGIN BOND
M  V30 1 2 1 2
M  V30 2 2 1 3
M  V30 3 1 1 4
M  V30 4 1 1 5
M  V30 5 1 4 6
M  V30 6 2 5 7
M  V30 7 1 5 8
M  V30 8 2 6 9
M  V30 9 1 6 10
M  V30 10 1 7 11
M  V30 11 2 8 12
M  V30 12 1 10 13
M  V30 13 2 11 14
M  V30 14 1 13 15
M  V30 15 1 13 16
M  V30 16 1 14 17
M  V30 17 1 15 18
M  V30 18 1 15 19
M  V30 19 1 16 20
M  V30 20 1 16 21
M  V30 21 1 19 22
M  V30 22 1 19 23
M  V30 23 1 20 24
M  V30 24 1 20 25
M  V30 25 1 12 14
M  V30 26 1 19 20
M  V30 27 1 21 22
M  V30 28 1 4 26
M  V30 29 1 7 27
M  V30 30 1 8 28
M  V30 31 1 10 29
M  V30 32 1 11 30
M  V30 33 1 12 31
M  V30 34 1 13 32
M  V30 35 1 15 33
M  V30 36 1 16 34
M  V30 37 1 17 35
M  V30 38 1 17 36
M  V30 39 1 17 37
M  V30 40 1 18 38
M  V30 41 1 21 39
M  V30 42 1 21 40
M  V30 43 1 22 41
M  V30 44 1 22 42
M  V30 45 1 23 43
M  V30 46 1 23 44
M  V30 47 1 23 45
M  V30 48 1 24 46
M  V30 49 1 24 47
M  V30 50 1 24 48
M  V30 51 1 25 49
M  V30 52 1 25 50
M  V30 53 1 25 51
M  V30 END BOND
M  V30 BEGIN COLLECTION
M  V30 MDLV30/STEABS ATOMS=(4 13 15 16 19)
M  V30 END COLLECTION
M  V30 END CTAB
M  END
>  <Column 1>
3896

>  <level_0>
7570

>  <index>
7571

>  <Unnamed: 0>
7571

>  <NO.>
7584

>  <Name>


>  <IUPAC_name>


>  <SMILES>
Cc1ccc(S(=O)(=O)NC(=O)N[C@@H]2[C@H]3CC[C@](C)([C@H]2O)C3(C)C)cc1

>  <CID>


>  <logBB>


>  <BBB+/BBB->
BBB+

>  <Inchi>
InChI=1S/C18H26N2O4S/c1-11-5-7-12(8-6-11)25(23-24)20-16(22)19-14-13-9-10-18(4-15(14)21)17(13-2)3/h5-8-13-15-21H-9-10H2-1-4H3-(H2-19-20-22)/t13--14--15+-18-/m1/s1

>  <threshold>


>  <reference>
R27|

>  <group>
C

>  <Class>
1

>  <ABC>
19.85

>  <ABCGG>
17.29

>  <nAcid>
0

>  <nBase>
0

>  <nAromAtom>
6

>  <nAromBond>
6

>  <nAtom>
51

>  <nHeavyAtom>
25

>  <nSpiro>
0

>  <nBridgehead>
2

>  <nHetero>
7

>  <nN>
2

>  <nO>
4

>  <nF>
0

>  <BalabanJ>
1.6

>  <BertzCT>
787.8

>  <nBonds>
53

>  <nBondsO>
27

>  <nBondsS>
44

>  <nBondsD>
3

>  <nBondsT>
0

>  <nBondsA>
6

>  <nBondsM>
9

>  <nBondsKS>
47

>  <nBondsKD>
6

>  <RNCG>
0.18

>  <RPCG>
0.15

>  <FCSP3>
0.61

>  <SZ>
32.67

>  <Sm>
30.51

>  <Sv>
30.61

>  <Sse>
51.27

>  <Sp>
33.36

>  <Si>
57.74

>  <MZ>
0.64

>  <Mm>
0.6

>  <Mv>
0.6

>  <Mse>
1.01

>  <Mp>
0.65

>  <Mi>
1.13

>  <NsCH3>
4

>  <NdCH2>
0

>  <NssCH2>
2

>  <NtCH>
0

>  <NdsCH>
0

>  <NaaCH>
4

>  <NsssCH>
3

>  <NddC>
0

>  <NtsC>
0

>  <NdssC>
1

>  <NaasC>
2

>  <NaaaC>
0

>  <NssssC>
2

>  <NsNH3>
0

>  <NsNH2>
0

>  <NssNH2>
0

>  <NdNH>
0

>  <NssNH>
2

>  <NaaNH>
0

>  <NtN>
0

>  <NsssNH>
0

>  <NdsN>
0

>  <NaaN>
0

>  <NsssN>
0

>  <NddsN>
0

>  <NaasN>
0

>  <NssssN>
0

>  <NsOH>
1

>  <NdO>
3

>  <NssO>
0

>  <NaaO>
0

>  <NsF>
0

>  <NsSiH3>
0

>  <NssSiH2>
0

>  <NsssSiH>
0

>  <NssssSi>
0

>  <NsPH2>
0

>  <NssPH>
0

>  <NsssP>
0

>  <NdsssP>
0

>  <NsssssP>
0

>  <NsSH>
0

>  <NdS>
0

>  <NssS>
0

>  <NaaS>
0

>  <NdssS>
0

>  <NddssS>
1

>  <NsCl>
0

>  <NsBr>
0

>  <NsI>
0

>  <fragCpx>
129.07

>  <fMF>
0.33

>  <nHBAcc>
4

>  <nHBDon>
3

>  <Kier1>
19.75

>  <Kier2>
6.56

>  <Lipinski>
1

>  <GhoseFilter>
1

>  <FilterItLogS>
-3.92

>  <VMcGowan>
274.49

>  <LabuteASA>
148.62

>  <PEOE_VSA1>
10.42

>  <PEOE_VSA2>
0

>  <PEOE_VSA3>
17.93

>  <PEOE_VSA4>
0

>  <PEOE_VSA5>
0

>  <PEOE_VSA6>
38.47

>  <PEOE_VSA7>
43.23

>  <PEOE_VSA8>
5.41

>  <PEOE_VSA9>
17.04

>  <PEOE_VSA10>
0

>  <PEOE_VSA11>
0

>  <PEOE_VSA12>
0

>  <PEOE_VSA13>
10.02

>  <SMR_VSA1>
18.32

>  <SMR_VSA2>
0

>  <SMR_VSA3>
10.04

>  <SMR_VSA4>
16.75

>  <SMR_VSA5>
57.58

>  <SMR_VSA6>
0

>  <SMR_VSA7>
29.83

>  <SMR_VSA8>
0

>  <SMR_VSA9>
0

>  <SlogP_VSA1>
10.04

>  <SlogP_VSA2>
31.7

>  <SlogP_VSA3>
10.02

>  <SlogP_VSA4>
23.67

>  <SlogP_VSA5>
39.18

>  <SlogP_VSA6>
29.16

>  <SlogP_VSA7>
0

>  <SlogP_VSA8>
0

>  <SlogP_VSA9>
0

>  <SlogP_VSA10>
4.79

>  <SlogP_VSA11>
0

>  <EState_VSA1>
28.2

>  <EState_VSA2>
21.64

>  <EState_VSA3>
0

>  <EState_VSA4>
18.41

>  <EState_VSA5>
12.13

>  <EState_VSA6>
12.13

>  <EState_VSA7>
18.57

>  <EState_VSA8>
19.16

>  <EState_VSA9>
0

>  <EState_VSA10>
18.32

>  <VSA_EState1>
26.7

>  <VSA_EState2>
12.32

>  <VSA_EState3>
13.38

>  <VSA_EState4>
0.55

>  <VSA_EState5>
0.13

>  <VSA_EState6>
5.03

>  <VSA_EState7>
1.14

>  <VSA_EState8>
8.11

>  <VSA_EState9>
-3.94

>  <apol>
55.7

>  <bpol>
34.75

>  <nRing>
3

>  <nHRing>
0

>  <naRing>
1

>  <naHRing>
0

>  <nARing 2>
2

>  <nAHRing 2>
0

>  <nFRing>
1

>  <nFHRing>
0

>  <nFaRing>
0

>  <nFaHRing>
0

>  <nFARing 2>
1

>  <nFAHRing 2>
0

>  <nRot>
3

>  <SLogP>
2.17

>  <SMR>
94.44

>  <TopoPSA(NO)>
95.5

>  <TopoPSA>
103.88

>  <JGI1>
0.33

>  <JGI2>
0.14

>  <JGI3>
0.09

>  <JGI4>
0.05

>  <JGI5>
0.04

>  <Diameter>
12

>  <Radius>
6

>  <TMWC10>
130.27

>  <TSRW10>
77.75

>  <MW>
366.16

>  <AMW>
7.18

>  <WPath>
1519

>  <WPol>
45

>  <Zagreb1>
142

>  <Zagreb2>
175

>  <mZagreb2>
5.12

>  <yes>


>  <nAR-cont>
1

>  <nHA-cont>
0.921834225

>  <MWHBN>
0.36581591

>  <MWHBN-cont>
0.610071474

>  <TPSA-cont>
0.274853094

>  <pka_cont>
0.97

>  <yes.1>


>  <BBB_SCORE>
3.871647624

>  <MMFF94 Energy>
-89.399

$$$$
Compound 3034
Actelion Java MolfileCreator 2.0

  0  0  0  0  0  0              0 V3000
M  V30 BEGIN CTAB
M  V30 COUNTS 39 41 0 0 0
M  V30 BEGIN ATOM
M  V30 1 S -1.0666 -1.0666 -0.6562 0 CFG=2
M  V30 2 O -1.4343 -0.8902 0.7928 0
M  V30 3 C -0.2778 -2.6848 -0.7385 0
M  V30 4 C 0.4245 -0.0876 -1.011 0
M  V30 5 N 0.5671 -3.0717 -1.6678 0
M  V30 6 N -0.4964 -3.6662 0.1894 0
M  V30 7 C 0.1329 1.3903 -0.9748 0
M  V30 8 C 0.9056 -4.3595 -1.3265 0
M  V30 9 C 0.2534 -4.7569 -0.1626 0
M  V30 10 N 0.1049 2.042 -2.1608 0
M  V30 11 C -0.0965 2.0405 0.2377 0
M  V30 12 C 1.7721 -5.2575 -1.9655 0
M  V30 13 C 0.4153 -6.0167 0.4162 0
M  V30 14 C -0.1506 3.3687 -2.137 0
M  V30 15 C -0.3759 3.4059 0.2344 0
M  V30 16 C 1.9523 -6.5294 -1.4067 0
M  V30 17 C 1.2843 -6.8989 -0.2363 0
M  V30 18 C -0.3925 4.0982 -0.9803 0
M  V30 19 O -0.632 4.1555 1.3519 0
M  V30 20 C -0.6756 5.568 -1.0495 0
M  V30 21 C -0.8763 3.4501 2.5755 0
M  V30 22 C -1.3078 4.4165 3.6679 0
M  V30 23 F -0.3582 5.3439 3.9216 0
M  V30 24 F -2.4499 5.063 3.3467 0
M  V30 25 F -1.5348 3.7477 4.8242 0
M  V30 26 H 1.203 -0.3329 -0.2805 0
M  V30 27 H 0.7879 -0.3652 -2.0062 0
M  V30 28 H -1.0983 -3.572 0.9955 0
M  V30 29 H -0.0585 1.4621 1.1537 0
M  V30 30 H 2.288 -4.9658 -2.8735 0
M  V30 31 H -0.1028 -6.3054 1.3243 0
M  V30 32 H -0.1564 3.8433 -3.1151 0
M  V30 33 H 2.6212 -7.2363 -1.8922 0
M  V30 34 H 1.4425 -7.8936 0.1764 0
M  V30 35 H 0.052 6.1248 -0.4503 0
M  V30 36 H -0.6116 5.9416 -2.077 0
M  V30 37 H -1.685 5.7775 -0.6807 0
M  V30 38 H 0.0423 2.9476 2.8987 0
M  V30 39 H -1.6725 2.7104 2.4307 0
M  V30 END ATOM
M  V30 BEGIN BOND
M  V30 1 2 1 2
M  V30 2 1 1 3
M  V30 3 1 1 4
M  V30 4 2 3 5
M  V30 5 1 3 6
M  V30 6 1 4 7
M  V30 7 1 5 8
M  V30 8 1 6 9
M  V30 9 2 7 10
M  V30 10 1 7 11
M  V30 11 1 8 12
M  V30 12 1 9 13
M  V30 13 1 10 14
M  V30 14 2 11 15
M  V30 15 2 12 16
M  V30 16 2 13 17
M  V30 17 2 14 18
M  V30 18 1 15 19
M  V30 19 1 18 20
M  V30 20 1 19 21
M  V30 21 1 21 22
M  V30 22 1 22 23
M  V30 23 1 22 24
M  V30 24 1 22 25
M  V30 25 2 8 9
M  V30 26 1 15 18
M  V30 27 1 16 17
M  V30 28 1 4 26
M  V30 29 1 4 27
M  V30 30 1 6 28
M  V30 31 1 11 29
M  V30 32 1 12 30
M  V30 33 1 13 31
M  V30 34 1 14 32
M  V30 35 1 16 33
M  V30 36 1 17 34
M  V30 37 1 20 35
M  V30 38 1 20 36
M  V30 39 1 20 37
M  V30 40 1 21 38
M  V30 41 1 21 39
M  V30 END BOND
M  V30 BEGIN COLLECTION
M  V30 MDLV30/STERAC1 ATOMS=(1 1)
M  V30 END COLLECTION
M  V30 END CTAB
M  END
>  <Column 1>
3899

>  <level_0>
7578

>  <index>
7579

>  <Unnamed: 0>
7579

>  <NO.>
7592

>  <Name>
schembl6439453

>  <IUPAC_name>
2-[[5-methyl-4-(2-2-2-trifluoroethoxy)pyridin-2-yl]methylsulfinyl]-1h-benzimidazole

>  <SMILES>
Cc1cnc(C[S+]([O-])c2nc3ccccc3[nH]2)cc1OCC(F)(F)F

>  <CID>
13654780

>  <logBB>


>  <BBB+/BBB->
BBB+

>  <Inchi>
InChI=1S/C16H14F3N3O2S/c1-10-7-20-11(6-14(10)24-9-16(17-18)19)8-25(23)15-21-12-4-2-3-5-13(12)22-15/h2-7H-8-9H2-1H3-(H-21-22)

>  <threshold>


>  <reference>
R27|

>  <group>
C

>  <Class>
-1

>  <ABC>
19.67

>  <ABCGG>
15.67

>  <nAcid>
0

>  <nBase>
0

>  <nAromAtom>
15

>  <nAromBond>
16

>  <nAtom>
39

>  <nHeavyAtom>
25

>  <nSpiro>
0

>  <nBridgehead>
0

>  <nHetero>
9

>  <nN>
3

>  <nO>
2

>  <nF>
3

>  <BalabanJ>
1.47

>  <BertzCT>
849.43

>  <nBonds>
41

>  <nBondsO>
27

>  <nBondsS>
25

>  <nBondsD>
0

>  <nBondsT>
0

>  <nBondsA>
16

>  <nBondsM>
16

>  <nBondsKS>
34

>  <nBondsKD>
7

>  <RNCG>
0.24

>  <RPCG>
0.17

>  <FCSP3>
0.25

>  <SZ>
31.67

>  <Sm>
30.75

>  <Sv>
26.62

>  <Sse>
40.81

>  <Sp>
27.26

>  <Si>
44.76

>  <MZ>
0.81

>  <Mm>
0.79

>  <Mv>
0.68

>  <Mse>
1.05

>  <Mp>
0.7

>  <Mi>
1.15

>  <NsCH3>
1

>  <NdCH2>
0

>  <NssCH2>
2

>  <NtCH>
0

>  <NdsCH>
0

>  <NaaCH>
6

>  <NsssCH>
0

>  <NddC>
0

>  <NtsC>
0

>  <NdssC>
0

>  <NaasC>
4

>  <NaaaC>
2

>  <NssssC>
1

>  <NsNH3>
0

>  <NsNH2>
0

>  <NssNH2>
0

>  <NdNH>
0

>  <NssNH>
0

>  <NaaNH>
1

>  <NtN>
0

>  <NsssNH>
0

>  <NdsN>
0

>  <NaaN>
2

>  <NsssN>
0

>  <NddsN>
0

>  <NaasN>
0

>  <NssssN>
0

>  <NsOH>
0

>  <NdO>
0

>  <NssO>
1

>  <NaaO>
0

>  <NsF>
3

>  <NsSiH3>
0

>  <NssSiH2>
0

>  <NsssSiH>
0

>  <NssssSi>
0

>  <NsPH2>
0

>  <NssPH>
0

>  <NsssP>
0

>  <NdsssP>
0

>  <NsssssP>
0

>  <NsSH>
0

>  <NdS>
0

>  <NssS>
0

>  <NaaS>
0

>  <NdssS>
0

>  <NddssS>
0

>  <NsCl>
0

>  <NsBr>
0

>  <NsI>
0

>  <fragCpx>
129.09

>  <fMF>
0.44

>  <nHBAcc>
4

>  <nHBDon>
1

>  <Kier1>
19.75

>  <Kier2>
8.35

>  <Lipinski>
1

>  <GhoseFilter>
1

>  <FilterItLogS>
-6.08

>  <VMcGowan>
236.93

>  <LabuteASA>
143.98

>  <PEOE_VSA1>
9.29

>  <PEOE_VSA2>
9.97

>  <PEOE_VSA3>
0

>  <PEOE_VSA4>
18.16

>  <PEOE_VSA5>
0

>  <PEOE_VSA6>
12.13

>  <PEOE_VSA7>
19.06

>  <PEOE_VSA8>
29

>  <PEOE_VSA9>
16.73

>  <PEOE_VSA10>
5.75

>  <PEOE_VSA11>
12.36

>  <PEOE_VSA12>
0

>  <PEOE_VSA13>
0

>  <SMR_VSA1>
22.46

>  <SMR_VSA2>
0

>  <SMR_VSA3>
14.95

>  <SMR_VSA4>
0

>  <SMR_VSA5>
24.01

>  <SMR_VSA6>
6.61

>  <SMR_VSA7>
47.79

>  <SMR_VSA8>
0

>  <SMR_VSA9>
5.75

>  <SlogP_VSA1>
4.74

>  <SlogP_VSA2>
32.29

>  <SlogP_VSA3>
16.93

>  <SlogP_VSA4>
6.92

>  <SlogP_VSA5>
11.26

>  <SlogP_VSA6>
41.69

>  <SlogP_VSA7>
0

>  <SlogP_VSA8>
11.03

>  <SlogP_VSA9>
0

>  <SlogP_VSA10>
13.17

>  <SlogP_VSA11>
5.75

>  <EState_VSA1>
23.96

>  <EState_VSA2>
11.5

>  <EState_VSA3>
21.93

>  <EState_VSA4>
5.52

>  <EState_VSA5>
12.26

>  <EState_VSA6>
12.99

>  <EState_VSA7>
18.2

>  <EState_VSA8>
14.95

>  <EState_VSA9>
4.74

>  <EState_VSA10>
17.72

>  <VSA_EState1>
54.16

>  <VSA_EState2>
11.33

>  <VSA_EState3>
0.29

>  <VSA_EState4>
2.29

>  <VSA_EState5>
0.09

>  <VSA_EState6>
8.64

>  <VSA_EState7>
-3.02

>  <VSA_EState8>
0.21

>  <VSA_EState9>
0

>  <apol>
45.53

>  <bpol>
26.53

>  <nRing>
3

>  <nHRing>
2

>  <naRing>
3

>  <naHRing>
2

>  <nARing 2>
0

>  <nAHRing 2>
0

>  <nFRing>
1

>  <nFHRing>
1

>  <nFaRing>
1

>  <nFaHRing>
1

>  <nFARing 2>
0

>  <nFAHRing 2>
0

>  <nRot>
5

>  <SLogP>
3.52

>  <SMR>
86.73

>  <TopoPSA(NO)>
73.86

>  <TopoPSA>
73.86

>  <JGI1>
0.26

>  <JGI2>
0.07

>  <JGI3>
0.05

>  <JGI4>
0.05

>  <JGI5>
0.03

>  <Diameter>
13

>  <Radius>
7

>  <TMWC10>
126.93

>  <TSRW10>
73.69

>  <MW>
369.08

>  <AMW>
9.46

>  <WPath>
1655

>  <WPol>
35

>  <Zagreb1>
132

>  <Zagreb2>
151

>  <mZagreb2>
5.29

>  <yes>


>  <nAR-cont>
0.336376

>  <nHA-cont>
0.921834225

>  <MWHBN>
0.260261392

>  <MWHBN-cont>
0.94089677

>  <TPSA-cont>
0.484411336

>  <pka_cont>
0.97

>  <yes.1>


>  <BBB_SCORE>
4.123378052

>  <MMFF94 Energy>
64.996

$$$$
Compound 3035
Actelion Java MolfileCreator 2.0

  0  0  0  0  0  0              0 V3000
M  V30 BEGIN CTAB
M  V30 COUNTS 29 30 0 0 0
M  V30 BEGIN ATOM
M  V30 1 O -1.9797 -2.8517 3.0104 0
M  V30 2 C -1.5997 -1.822 2.463 0
M  V30 3 N -1.0458 -0.8091 3.1843 0
M  V30 4 C -1.7082 -1.5936 1.0088 0
M  V30 5 C -0.6355 0.3421 2.5942 0
M  V30 6 C -2.2649 -2.6214 0.2065 0
M  V30 7 C -1.2676 -0.4153 0.5054 0
M  V30 8 N -0.7342 0.5596 1.3265 0
M  V30 9 C -0.0482 1.3871 3.4979 0
M  V30 10 N -2.7124 -3.422 -0.5062 0
M  V30 11 N -1.3324 -0.1449 -0.8562 0
M  V30 12 C -0.7879 1.0237 -1.5163 0
M  V30 13 C 0.6351 0.7744 -1.9242 0
M  V30 14 C 1.6881 1.1434 -1.0929 0
M  V30 15 C 0.9589 0.1365 -3.1254 0
M  V30 16 N 2.995 0.9468 -1.3855 0
M  V30 17 C 2.2941 -0.0845 -3.4508 0
M  V30 18 C 3.2662 0.3366 -2.5585 0
M  V30 19 H -0.9625 -0.9604 4.1797 0
M  V30 20 H -0.6549 2.2954 3.4367 0
M  V30 21 H -0.0111 1.0508 4.5372 0
M  V30 22 H 0.9652 1.6241 3.1611 0
M  V30 23 H -1.6835 -0.8695 -1.4744 0
M  V30 24 H -1.386 1.2354 -2.4111 0
M  V30 25 H -0.8679 1.9223 -0.8922 0
M  V30 26 H 1.5034 1.6205 -0.1334 0
M  V30 27 H 0.1778 -0.1906 -3.8064 0
M  V30 28 H 2.5704 -0.5759 -4.3767 0
M  V30 29 H 4.3211 0.1867 -2.7687 0
M  V30 END ATOM
M  V30 BEGIN BOND
M  V30 1 2 1 2
M  V30 2 1 2 3
M  V30 3 1 2 4
M  V30 4 1 3 5
M  V30 5 1 4 6
M  V30 6 2 4 7
M  V30 7 2 5 8
M  V30 8 1 5 9
M  V30 9 3 6 10
M  V30 10 1 7 11
M  V30 11 1 11 12
M  V30 12 1 12 13
M  V30 13 2 13 14
M  V30 14 1 13 15
M  V30 15 1 14 16
M  V30 16 2 15 17
M  V30 17 2 16 18
M  V30 18 1 7 8
M  V30 19 1 17 18
M  V30 20 1 3 19
M  V30 21 1 9 20
M  V30 22 1 9 21
M  V30 23 1 9 22
M  V30 24 1 11 23
M  V30 25 1 12 24
M  V30 26 1 12 25
M  V30 27 1 14 26
M  V30 28 1 15 27
M  V30 29 1 17 28
M  V30 30 1 18 29
M  V30 END BOND
M  V30 END CTAB
M  END
>  <Column 1>
3900

>  <level_0>
7580

>  <index>
7581

>  <Unnamed: 0>
7581

>  <NO.>
7594

>  <Name>
pelrinone

>  <IUPAC_name>
2-methyl-6-oxo-4-(pyridin-3-ylmethylamino)-1h-pyrimidine-5-carbonitrile

>  <SMILES>
Cc1nc(NCc2cccnc2)c(C#N)c(=O)[nH]1

>  <CID>
135413516

>  <logBB>


>  <BBB+/BBB->
BBB+

>  <Inchi>
InChI=1S/C12H11N5O/c1-8-16-11(10(5-13)12(18)17-8)15-7-9-3-2-4-14-6-9/h2-4-6H-7H2-1H3-(H2-15-16-17-18)

>  <threshold>


>  <reference>
R27|

>  <group>
C

>  <Class>
-1

>  <ABC>
13.57

>  <ABCGG>
11.57

>  <nAcid>
0

>  <nBase>
0

>  <nAromAtom>
12

>  <nAromBond>
12

>  <nAtom>
29

>  <nHeavyAtom>
18

>  <nSpiro>
0

>  <nBridgehead>
0

>  <nHetero>
6

>  <nN>
5

>  <nO>
1

>  <nF>
0

>  <BalabanJ>
1.81

>  <BertzCT>
641.75

>  <nBonds>
30

>  <nBondsO>
19

>  <nBondsS>
16

>  <nBondsD>
1

>  <nBondsT>
1

>  <nBondsA>
12

>  <nBondsM>
14

>  <nBondsKS>
23

>  <nBondsKD>
6

>  <RNCG>
0.21

>  <RPCG>
0.16

>  <FCSP3>
0.17

>  <SZ>
21

>  <Sm>
20.09

>  <Sv>
19.48

>  <Sse>
29.53

>  <Sp>
20.17

>  <Si>
32.95

>  <MZ>
0.72

>  <Mm>
0.69

>  <Mv>
0.67

>  <Mse>
1.02

>  <Mp>
0.7

>  <Mi>
1.14

>  <NsCH3>
1

>  <NdCH2>
0

>  <NssCH2>
1

>  <NtCH>
0

>  <NdsCH>
0

>  <NaaCH>
4

>  <NsssCH>
0

>  <NddC>
0

>  <NtsC>
1

>  <NdssC>
0

>  <NaasC>
4

>  <NaaaC>
0

>  <NssssC>
0

>  <NsNH3>
0

>  <NsNH2>
0

>  <NssNH2>
0

>  <NdNH>
0

>  <NssNH>
1

>  <NaaNH>
1

>  <NtN>
1

>  <NsssNH>
0

>  <NdsN>
0

>  <NaaN>
2

>  <NsssN>
0

>  <NddsN>
0

>  <NaasN>
0

>  <NssssN>
0

>  <NsOH>
0

>  <NdO>
1

>  <NssO>
0

>  <NaaO>
0

>  <NsF>
0

>  <NsSiH3>
0

>  <NssSiH2>
0

>  <NsssSiH>
0

>  <NssssSi>
0

>  <NsPH2>
0

>  <NssPH>
0

>  <NsssP>
0

>  <NdsssP>
0

>  <NsssssP>
0

>  <NsSH>
0

>  <NdS>
0

>  <NssS>
0

>  <NaaS>
0

>  <NdssS>
0

>  <NddssS>
0

>  <NsCl>
0

>  <NsBr>
0

>  <NsI>
0

>  <fragCpx>
55.06

>  <fMF>
0.48

>  <nHBAcc>
5

>  <nHBDon>
2

>  <Kier1>
14.41

>  <Kier2>
6.96

>  <Lipinski>
1

>  <GhoseFilter>
1

>  <FilterItLogS>
-4.04

>  <VMcGowan>
179.59

>  <LabuteASA>
103.35

>  <PEOE_VSA1>
10.3

>  <PEOE_VSA2>
9.78

>  <PEOE_VSA3>
4.98

>  <PEOE_VSA4>
5.26

>  <PEOE_VSA5>
0

>  <PEOE_VSA6>
6.07

>  <PEOE_VSA7>
18.55

>  <PEOE_VSA8>
18.94

>  <PEOE_VSA9>
0

>  <PEOE_VSA10>
11.89

>  <PEOE_VSA11>
11.38

>  <PEOE_VSA12>
0

>  <PEOE_VSA13>
5.56

>  <SMR_VSA1>
0

>  <SMR_VSA2>
5.26

>  <SMR_VSA3>
14.95

>  <SMR_VSA4>
0

>  <SMR_VSA5>
13.47

>  <SMR_VSA6>
5.32

>  <SMR_VSA7>
51.83

>  <SMR_VSA8>
0

>  <SMR_VSA9>
6.07

>  <SlogP_VSA1>
10.88

>  <SlogP_VSA2>
14.95

>  <SlogP_VSA3>
6.54

>  <SlogP_VSA4>
18.25

>  <SlogP_VSA5>
16.95

>  <SlogP_VSA6>
29.32

>  <SlogP_VSA7>
0

>  <SlogP_VSA8>
0

>  <SlogP_VSA9>
0

>  <SlogP_VSA10>
5.82

>  <SlogP_VSA11>
0

>  <EState_VSA1>
5.56

>  <EState_VSA2>
5.56

>  <EState_VSA3>
18.19

>  <EState_VSA4>
5.56

>  <EState_VSA5>
0

>  <EState_VSA6>
19.32

>  <EState_VSA7>
18.2

>  <EState_VSA8>
20.27

>  <EState_VSA9>
5.26

>  <EState_VSA10>
4.79

>  <VSA_EState1>
0

>  <VSA_EState2>
22.11

>  <VSA_EState3>
11.89

>  <VSA_EState4>
0.5

>  <VSA_EState5>
0.76

>  <VSA_EState6>
5.56

>  <VSA_EState7>
3.39

>  <VSA_EState8>
2.12

>  <VSA_EState9>
0

>  <apol>
33.68

>  <bpol>
15.89

>  <nRing>
2

>  <nHRing>
2

>  <naRing>
2

>  <naHRing>
2

>  <nARing 2>
0

>  <nAHRing 2>
0

>  <nFRing>
0

>  <nFHRing>
0

>  <nFaRing>
0

>  <nFaHRing>
0

>  <nFARing 2>
0

>  <nFAHRing 2>
0

>  <nRot>
3

>  <SLogP>
0.96

>  <SMR>
65.87

>  <TopoPSA(NO)>
94.46

>  <TopoPSA>
94.46

>  <JGI1>
0.18

>  <JGI2>
0.07

>  <JGI3>
0.05

>  <JGI4>
0.04

>  <JGI5>
0.03

>  <Diameter>
9

>  <Radius>
5

>  <TMWC10>
107.53

>  <TSRW10>
50.6

>  <MW>
241.1

>  <AMW>
8.31

>  <WPath>
640

>  <WPol>
25

>  <Zagreb1>
88

>  <Zagreb2>
100

>  <mZagreb2>
4.14

>  <yes>


>  <nAR-cont>
0.336376

>  <nHA-cont>
0.991161285

>  <MWHBN>
0.450816118

>  <MWHBN-cont>
0

>  <TPSA-cont>
0.340610544

>  <pka_cont>
0.97

>  <yes.1>


>  <BBB_SCORE>
2.493758373

>  <MMFF94 Energy>
-54.143

$$$$
Compound 3036
Actelion Java MolfileCreator 2.0

  0  0  0  0  0  0              0 V3000
M  V30 BEGIN CTAB
M  V30 COUNTS 31 32 0 0 0
M  V30 BEGIN ATOM
M  V30 1 S -1.9725 -0.4928 1.4791 0
M  V30 2 O -1.6685 -1.9068 1.4319 0
M  V30 3 O -3.2305 -0.0166 2.0174 0
M  V30 4 N -0.7651 0.303 2.3619 0
M  V30 5 C -1.8284 0.1612 -0.1674 0
M  V30 6 C 0.5397 0.4211 1.7202 0
M  V30 7 C -2.4637 1.3629 -0.4885 0
M  V30 8 C -1.1265 -0.5511 -1.1414 0
M  V30 9 S 1.1501 1.8735 1.0792 0
M  V30 10 C 1.4872 -0.577 1.6106 0
M  V30 11 C -2.3565 1.8704 -1.786 0
M  V30 12 C -1.0258 -0.0296 -2.4337 0
M  V30 13 N 2.5877 1.2384 0.5672 0
M  V30 14 C 2.6396 -0.0499 0.9105 0
M  V30 15 C 1.3711 -1.9734 2.1205 0
M  V30 16 C -1.6204 1.1924 -2.7624 0
M  V30 17 C 3.8696 -0.8174 0.562 0
M  V30 18 N -1.5498 1.682 -4.0534 0
M  V30 19 H -1.1365 1.1708 2.7483 0
M  V30 20 H -3.0474 1.9044 0.2519 0
M  V30 21 H -0.6558 -1.5032 -0.9086 0
M  V30 22 H -2.8585 2.803 -2.0323 0
M  V30 23 H -0.4771 -0.5892 -3.1871 0
M  V30 24 H 1.0352 -2.6411 1.3211 0
M  V30 25 H 0.6665 -2.041 2.9552 0
M  V30 26 H 2.3374 -2.3366 2.4854 0
M  V30 27 H 3.6068 -1.7565 0.0645 0
M  V30 28 H 4.521 -0.2525 -0.113 0
M  V30 29 H 4.4387 -1.0504 1.4677 0
M  V30 30 H -0.9512 1.2352 -4.7347 0
M  V30 31 H -1.9123 2.5998 -4.2725 0
M  V30 END ATOM
M  V30 BEGIN BOND
M  V30 1 2 1 2
M  V30 2 2 1 3
M  V30 3 1 1 4
M  V30 4 1 1 5
M  V30 5 1 4 6
M  V30 6 2 5 7
M  V30 7 1 5 8
M  V30 8 1 6 9
M  V30 9 2 6 10
M  V30 10 1 7 11
M  V30 11 2 8 12
M  V30 12 1 9 13
M  V30 13 1 10 14
M  V30 14 1 10 15
M  V30 15 2 11 16
M  V30 16 1 14 17
M  V30 17 1 16 18
M  V30 18 1 12 16
M  V30 19 2 13 14
M  V30 20 1 4 19
M  V30 21 1 7 20
M  V30 22 1 8 21
M  V30 23 1 11 22
M  V30 24 1 12 23
M  V30 25 1 15 24
M  V30 26 1 15 25
M  V30 27 1 15 26
M  V30 28 1 17 27
M  V30 29 1 17 28
M  V30 30 1 17 29
M  V30 31 1 18 30
M  V30 32 1 18 31
M  V30 END BOND
M  V30 END CTAB
M  END
>  <Column 1>
3901

>  <level_0>
7582

>  <index>
7583

>  <Unnamed: 0>
7583

>  <NO.>
7596

>  <Name>


>  <IUPAC_name>


>  <SMILES>
Cc1nsc(NS(=O)(=O)c2ccc(N)cc2)c1C

>  <CID>


>  <logBB>


>  <BBB+/BBB->
BBB+

>  <Inchi>
InChI=1S/C11H13N3O2S2/c1-7-8(2)13-17-11(7)14-18(15-16)10-5-3-9(12)4-6-10/h3-6-14H-12H2-1-2H3

>  <threshold>


>  <reference>
R27|

>  <group>
C

>  <Class>
-1

>  <ABC>
13.94

>  <ABCGG>
12.56

>  <nAcid>
0

>  <nBase>
0

>  <nAromAtom>
11

>  <nAromBond>
11

>  <nAtom>
31

>  <nHeavyAtom>
18

>  <nSpiro>
0

>  <nBridgehead>
0

>  <nHetero>
7

>  <nN>
3

>  <nO>
2

>  <nF>
0

>  <BalabanJ>
1.9

>  <BertzCT>
660.1

>  <nBonds>
32

>  <nBondsO>
19

>  <nBondsS>
19

>  <nBondsD>
2

>  <nBondsT>
0

>  <nBondsA>
11

>  <nBondsM>
13

>  <nBondsKS>
25

>  <nBondsKD>
7

>  <RNCG>
0.27

>  <RPCG>
0.18

>  <FCSP3>
0.18

>  <SZ>
24.67

>  <Sm>
23.59

>  <Sv>
20.6

>  <Sse>
31.58

>  <Sp>
22.6

>  <Si>
34.83

>  <MZ>
0.8

>  <Mm>
0.76

>  <Mv>
0.66

>  <Mse>
1.02

>  <Mp>
0.73

>  <Mi>
1.12

>  <NsCH3>
2

>  <NdCH2>
0

>  <NssCH2>
0

>  <NtCH>
0

>  <NdsCH>
0

>  <NaaCH>
4

>  <NsssCH>
0

>  <NddC>
0

>  <NtsC>
0

>  <NdssC>
0

>  <NaasC>
5

>  <NaaaC>
0

>  <NssssC>
0

>  <NsNH3>
0

>  <NsNH2>
1

>  <NssNH2>
0

>  <NdNH>
0

>  <NssNH>
1

>  <NaaNH>
0

>  <NtN>
0

>  <NsssNH>
0

>  <NdsN>
0

>  <NaaN>
1

>  <NsssN>
0

>  <NddsN>
0

>  <NaasN>
0

>  <NssssN>
0

>  <NsOH>
0

>  <NdO>
2

>  <NssO>
0

>  <NaaO>
0

>  <NsF>
0

>  <NsSiH3>
0

>  <NssSiH2>
0

>  <NsssSiH>
0

>  <NssssSi>
0

>  <NsPH2>
0

>  <NssPH>
0

>  <NsssP>
0

>  <NdsssP>
0

>  <NsssssP>
0

>  <NsSH>
0

>  <NdS>
0

>  <NssS>
0

>  <NaaS>
1

>  <NdssS>
0

>  <NddssS>
1

>  <NsCl>
0

>  <NsBr>
0

>  <NsI>
0

>  <fragCpx>
55.07

>  <fMF>
0.42

>  <nHBAcc>
5

>  <nHBDon>
2

>  <Kier1>
14.41

>  <Kier2>
5.55

>  <Lipinski>
1

>  <GhoseFilter>
1

>  <FilterItLogS>
-3.59

>  <VMcGowan>
197.01

>  <LabuteASA>
109.87

>  <PEOE_VSA1>
5.73

>  <PEOE_VSA2>
4.72

>  <PEOE_VSA3>
8.42

>  <PEOE_VSA4>
4.37

>  <PEOE_VSA5>
0

>  <PEOE_VSA6>
0

>  <PEOE_VSA7>
49.65

>  <PEOE_VSA8>
11.25

>  <PEOE_VSA9>
10.59

>  <PEOE_VSA10>
5

>  <PEOE_VSA11>
0

>  <PEOE_VSA12>
0

>  <PEOE_VSA13>
10.02

>  <SMR_VSA1>
8.42

>  <SMR_VSA2>
0

>  <SMR_VSA3>
4.37

>  <SMR_VSA4>
0

>  <SMR_VSA5>
18.74

>  <SMR_VSA6>
10.46

>  <SMR_VSA7>
35.52

>  <SMR_VSA8>
0

>  <SMR_VSA9>
0

>  <SlogP_VSA1>
10.46

>  <SlogP_VSA2>
12.79

>  <SlogP_VSA3>
10.02

>  <SlogP_VSA4>
13.85

>  <SlogP_VSA5>
11.26

>  <SlogP_VSA6>
29.16

>  <SlogP_VSA7>
0

>  <SlogP_VSA8>
0

>  <SlogP_VSA9>
0

>  <SlogP_VSA10>
10.69

>  <SlogP_VSA11>
0

>  <EState_VSA1>
10.02

>  <EState_VSA2>
4.9

>  <EState_VSA3>
10.69

>  <EState_VSA4>
22.79

>  <EState_VSA5>
12.13

>  <EState_VSA6>
12.13

>  <EState_VSA7>
13.85

>  <EState_VSA8>
9.1

>  <EState_VSA9>
5.73

>  <EState_VSA10>
8.42

>  <VSA_EState1>
30.84

>  <VSA_EState2>
0.18

>  <VSA_EState3>
0.55

>  <VSA_EState4>
7.73

>  <VSA_EState5>
0

>  <VSA_EState6>
6.06

>  <VSA_EState7>
0

>  <VSA_EState8>
3.67

>  <VSA_EState9>
-3.57

>  <apol>
37.74

>  <bpol>
23.3

>  <nRing>
2

>  <nHRing>
1

>  <naRing>
2

>  <naHRing>
1

>  <nARing 2>
0

>  <nAHRing 2>
0

>  <nFRing>
0

>  <nFHRing>
0

>  <nFaRing>
0

>  <nFaHRing>
0

>  <nFARing 2>
0

>  <nFAHRing 2>
0

>  <nRot>
3

>  <SLogP>
2.14

>  <SMR>
73.25

>  <TopoPSA(NO)>
85.08

>  <TopoPSA>
121.7

>  <JGI1>
0.29

>  <JGI2>
0.12

>  <JGI3>
0.07

>  <JGI4>
0.05

>  <JGI5>
0.04

>  <Diameter>
10

>  <Radius>
5

>  <TMWC10>
109.18

>  <TSRW10>
65.07

>  <MW>
283.04

>  <AMW>
9.13

>  <WPath>
614

>  <WPol>
26

>  <Zagreb1>
94

>  <Zagreb2>
109

>  <mZagreb2>
3.85

>  <yes>


>  <nAR-cont>
0.336376

>  <nHA-cont>
0.991161285

>  <MWHBN>
0.416077405

>  <MWHBN-cont>
0.413145544

>  <TPSA-cont>
0

>  <pka_cont>
0.97

>  <yes.1>


>  <BBB_SCORE>
2.432255601

>  <MMFF94 Energy>
-22.72

$$$$
Compound 3037
Actelion Java MolfileCreator 2.0

  0  0  0  0  0  0              0 V3000
M  V30 BEGIN CTAB
M  V30 COUNTS 38 41 0 0 0
M  V30 BEGIN ATOM
M  V30 1 O -0.1601 -0.8812 -1.8433 0
M  V30 2 C 0.0385 -0.158 -0.8709 0
M  V30 3 C -0.8306 -0.1763 0.3002 0
M  V30 4 C 1.2453 0.793 -0.7912 0 CFG=2
M  V30 5 C -1.9407 -1.0042 0.6219 0
M  V30 6 C -0.6674 0.7263 1.3352 0
M  V30 7 C 0.8638 2.0881 -0.0356 0
M  V30 8 C 1.7575 1.1284 -2.1976 0
M  V30 9 C -2.4165 -0.5894 1.8719 0
M  V30 10 C -2.59 -2.0715 -0.0325 0
M  V30 11 N -1.6081 0.4511 2.2946 0
M  V30 12 C 0.359 1.804 1.389 0
M  V30 13 N 2.8148 0.2327 -2.6336 0
M  V30 14 C -3.5242 -1.2026 2.4819 0
M  V30 15 C -3.6907 -2.688 0.5699 0
M  V30 16 C -1.7561 1.1383 3.5599 0
M  V30 17 C 2.6622 -0.9042 -3.3724 0
M  V30 18 C 4.1526 0.4045 -2.4058 0
M  V30 19 C -4.1503 -2.2565 1.8097 0
M  V30 20 N 3.8226 -1.4691 -3.6239 0
M  V30 21 C 4.7561 -0.6639 -3.0262 0
M  V30 22 H 2.0216 0.2718 -0.2145 0
M  V30 23 H 0.0798 2.6167 -0.5953 0
M  V30 24 H 1.7271 2.7617 0.0224 0
M  V30 25 H 2.1917 2.1357 -2.2278 0
M  V30 26 H 0.966 1.1029 -2.9556 0
M  V30 27 H -2.2377 -2.4136 -1.0026 0
M  V30 28 H -0.0533 2.7248 1.8152 0
M  V30 29 H 1.1934 1.4808 2.0221 0
M  V30 30 H -3.8942 -0.8767 3.4485 0
M  V30 31 H -4.1886 -3.51 0.0618 0
M  V30 32 H -2.0139 0.4125 4.3352 0
M  V30 33 H -0.8144 1.6202 3.8317 0
M  V30 34 H -2.5475 1.8837 3.4502 0
M  V30 35 H 1.6969 -1.2755 -3.6948 0
M  V30 36 H 4.5534 1.2378 -1.8468 0
M  V30 37 H -5.0086 -2.7464 2.2637 0
M  V30 38 H 5.812 -0.8952 -3.0773 0
M  V30 END ATOM
M  V30 BEGIN BOND
M  V30 1 2 1 2
M  V30 2 1 2 3
M  V30 3 1 2 4
M  V30 4 1 3 5
M  V30 5 2 3 6
M  V30 6 1 4 7
M  V30 7 1 4 8
M  V30 8 2 5 9
M  V30 9 1 5 10
M  V30 10 1 6 11
M  V30 11 1 6 12
M  V30 12 1 8 13
M  V30 13 1 9 14
M  V30 14 2 10 15
M  V30 15 1 11 16
M  V30 16 1 13 17
M  V30 17 1 13 18
M  V30 18 2 14 19
M  V30 19 2 17 20
M  V30 20 2 18 21
M  V30 21 1 7 12
M  V30 22 1 9 11
M  V30 23 1 15 19
M  V30 24 1 20 21
M  V30 25 1 4 22
M  V30 26 1 7 23
M  V30 27 1 7 24
M  V30 28 1 8 25
M  V30 29 1 8 26
M  V30 30 1 10 27
M  V30 31 1 12 28
M  V30 32 1 12 29
M  V30 33 1 14 30
M  V30 34 1 15 31
M  V30 35 1 16 32
M  V30 36 1 16 33
M  V30 37 1 16 34
M  V30 38 1 17 35
M  V30 39 1 18 36
M  V30 40 1 19 37
M  V30 41 1 21 38
M  V30 END BOND
M  V30 BEGIN COLLECTION
M  V30 MDLV30/STEABS ATOMS=(1 4)
M  V30 END COLLECTION
M  V30 END CTAB
M  END
>  <Column 1>
3903

>  <level_0>
7592

>  <index>
7593

>  <Unnamed: 0>
7593

>  <NO.>
7606

>  <Name>
zinc136443

>  <IUPAC_name>
(3r)-3-(imidazol-1-ylmethyl)-9-methyl-2-3-dihydro-1h-carbazol-4-one

>  <SMILES>
Cn1c2c(c3ccccc31)C(=O)[C@@H](Cn1ccnc1)CC2

>  <CID>
6928759

>  <logBB>


>  <BBB+/BBB->
BBB+

>  <Inchi>
InChI=1S/C17H17N3O/c1-19-14-5-3-2-4-13(14)16-15(19)7-6-12(17(16)21)10-20-9-8-18-11-20/h2-5-8-9-11-12H-6-7-10H2-1H3/t12-/m1/s1

>  <threshold>


>  <reference>
R27|

>  <group>
C

>  <Class>
-1

>  <ABC>
16.91

>  <ABCGG>
13.97

>  <nAcid>
0

>  <nBase>
0

>  <nAromAtom>
14

>  <nAromBond>
15

>  <nAtom>
38

>  <nHeavyAtom>
21

>  <nSpiro>
0

>  <nBridgehead>
0

>  <nHetero>
4

>  <nN>
3

>  <nO>
1

>  <nF>
0

>  <BalabanJ>
1.48

>  <BertzCT>
814.05

>  <nBonds>
41

>  <nBondsO>
24

>  <nBondsS>
25

>  <nBondsD>
1

>  <nBondsT>
0

>  <nBondsA>
15

>  <nBondsM>
16

>  <nBondsKS>
34

>  <nBondsKD>
7

>  <RNCG>
0.23

>  <RPCG>
0.11

>  <FCSP3>
0.29

>  <SZ>
24.67

>  <Sm>
23.26

>  <Sv>
24.59

>  <Sse>
37.87

>  <Sp>
26.24

>  <Si>
42.61

>  <MZ>
0.65

>  <Mm>
0.61

>  <Mv>
0.65

>  <Mse>
1

>  <Mp>
0.69

>  <Mi>
1.12

>  <NsCH3>
1

>  <NdCH2>
0

>  <NssCH2>
3

>  <NtCH>
0

>  <NdsCH>
0

>  <NaaCH>
7

>  <NsssCH>
1

>  <NddC>
0

>  <NtsC>
0

>  <NdssC>
1

>  <NaasC>
2

>  <NaaaC>
2

>  <NssssC>
0

>  <NsNH3>
0

>  <NsNH2>
0

>  <NssNH2>
0

>  <NdNH>
0

>  <NssNH>
0

>  <NaaNH>
0

>  <NtN>
0

>  <NsssNH>
0

>  <NdsN>
0

>  <NaaN>
1

>  <NsssN>
0

>  <NddsN>
0

>  <NaasN>
2

>  <NssssN>
0

>  <NsOH>
0

>  <NdO>
1

>  <NssO>
0

>  <NaaO>
0

>  <NsF>
0

>  <NsSiH3>
0

>  <NssSiH2>
0

>  <NsssSiH>
0

>  <NssssSi>
0

>  <NsPH2>
0

>  <NssPH>
0

>  <NsssP>
0

>  <NdsssP>
0

>  <NsssssP>
0

>  <NsSH>
0

>  <NdS>
0

>  <NssS>
0

>  <NaaS>
0

>  <NdssS>
0

>  <NddssS>
0

>  <NsCl>
0

>  <NsBr>
0

>  <NsI>
0

>  <fragCpx>
156.04

>  <fMF>
0.5

>  <nHBAcc>
4

>  <nHBDon>
0

>  <Kier1>
14.58

>  <Kier2>
5.89

>  <Lipinski>
1

>  <GhoseFilter>
1

>  <FilterItLogS>
-3.48

>  <VMcGowan>
212.66

>  <LabuteASA>
122.57

>  <PEOE_VSA1>
9.13

>  <PEOE_VSA2>
4.79

>  <PEOE_VSA3>
4.98

>  <PEOE_VSA4>
0

>  <PEOE_VSA5>
0

>  <PEOE_VSA6>
18.2

>  <PEOE_VSA7>
18.91

>  <PEOE_VSA8>
54.06

>  <PEOE_VSA9>
6.33

>  <PEOE_VSA10>
0

>  <PEOE_VSA11>
5.78

>  <PEOE_VSA12>
0

>  <PEOE_VSA13>
0

>  <SMR_VSA1>
4.79

>  <SMR_VSA2>
0

>  <SMR_VSA3>
14.12

>  <SMR_VSA4>
12.97

>  <SMR_VSA5>
19.39

>  <SMR_VSA6>
0

>  <SMR_VSA7>
54.24

>  <SMR_VSA8>
0

>  <SMR_VSA9>
0

>  <SlogP_VSA1>
0

>  <SlogP_VSA2>
19.9

>  <SlogP_VSA3>
20.01

>  <SlogP_VSA4>
5.92

>  <SlogP_VSA5>
22.47

>  <SlogP_VSA6>
42.99

>  <SlogP_VSA7>
0

>  <SlogP_VSA8>
10.9

>  <SlogP_VSA9>
0

>  <SlogP_VSA10>
0

>  <SlogP_VSA11>
0

>  <EState_VSA1>
0

>  <EState_VSA2>
11.7

>  <EState_VSA3>
0

>  <EState_VSA4>
35.85

>  <EState_VSA5>
5.69

>  <EState_VSA6>
12.52

>  <EState_VSA7>
22.9

>  <EState_VSA8>
28.73

>  <EState_VSA9>
0

>  <EState_VSA10>
4.79

>  <VSA_EState1>
4.18

>  <VSA_EState2>
16.98

>  <VSA_EState3>
1.09

>  <VSA_EState4>
3.27

>  <VSA_EState5>
0.33

>  <VSA_EState6>
8.19

>  <VSA_EState7>
7.34

>  <VSA_EState8>
0.72

>  <VSA_EState9>
2.06

>  <apol>
43.83

>  <bpol>
22.48

>  <nRing>
4

>  <nHRing>
2

>  <naRing>
3

>  <naHRing>
2

>  <nARing 2>
1

>  <nAHRing 2>
0

>  <nFRing>
1

>  <nFHRing>
1

>  <nFaRing>
0

>  <nFaHRing>
0

>  <nFARing 2>
1

>  <nFAHRing 2>
1

>  <nRot>
2

>  <SLogP>
2.82

>  <SMR>
81.29

>  <TopoPSA(NO)>
39.82

>  <TopoPSA>
39.82

>  <JGI1>
0.13

>  <JGI2>
0.07

>  <JGI3>
0.07

>  <JGI4>
0.04

>  <JGI5>
0.02

>  <Diameter>
10

>  <Radius>
5

>  <TMWC10>
120.91

>  <TSRW10>
71.56

>  <MW>
279.14

>  <AMW>
7.35

>  <WPath>
876

>  <WPol>
35

>  <Zagreb1>
118

>  <Zagreb2>
145

>  <mZagreb2>
4.53

>  <yes>


>  <nAR-cont>
0.816016

>  <nHA-cont>
0.994529749

>  <MWHBN>
0.239413676

>  <MWHBN-cont>
0.975756546

>  <TPSA-cont>
0.722031673

>  <pka_cont>
0.97

>  <yes.1>


>  <BBB_SCORE>
5.203243915

>  <MMFF94 Energy>
32.143

$$$$
Compound 3038
Actelion Java MolfileCreator 2.0

  0  0  0  0  0  0              0 V3000
M  V30 BEGIN CTAB
M  V30 COUNTS 32 34 0 0 0
M  V30 BEGIN ATOM
M  V30 1 O 1.1967 0.1595 -3.1138 0
M  V30 2 C 0.2205 -0.1598 -2.4382 0
M  V30 3 N 0.0387 0.1364 -1.0911 0
M  V30 4 N -0.7644 -0.8846 -3.0388 0
M  V30 5 C 1.0323 0.84 -0.3487 0
M  V30 6 C -1.1218 -0.1984 -0.358 0
M  V30 7 C 1.602 0.3558 0.849 0
M  V30 8 C 1.4384 2.0965 -0.8398 0
M  V30 9 C -1.054 -1.2264 0.5897 0
M  V30 10 C -2.322 0.4829 -0.5853 0
M  V30 11 C 1.2731 -0.9717 1.4792 0
M  V30 12 C 2.5585 1.1479 1.5144 0
M  V30 13 C 2.3886 2.8644 -0.1668 0
M  V30 14 C -2.2045 -1.5706 1.3083 0
M  V30 15 C 0.2645 -1.9054 0.8292 0
M  V30 16 C -3.4638 0.1306 0.1326 0
M  V30 17 N 1.8631 -1.3297 2.5822 0
M  V30 18 C 2.9481 2.3904 1.0121 0
M  V30 19 C -3.4047 -0.8953 1.0762 0
M  V30 20 H -0.64 -1.1159 -4.014 0
M  V30 21 H -1.5684 -1.2416 -2.5464 0
M  V30 22 H 1.0134 2.4857 -1.7632 0
M  V30 23 H -2.368 1.2894 -1.3128 0
M  V30 24 H 3.0145 0.7956 2.4384 0
M  V30 25 H 2.6915 3.8282 -0.5678 0
M  V30 26 H -2.1741 -2.3576 2.0586 0
M  V30 27 H 0.6831 -2.2866 -0.11 0
M  V30 28 H 0.1158 -2.7851 1.467 0
M  V30 29 H -4.3982 0.6603 -0.0364 0
M  V30 30 H 1.5486 -2.2534 2.8955 0
M  V30 31 H 3.691 2.9808 1.5424 0
M  V30 32 H -4.2948 -1.1634 1.6412 0
M  V30 END ATOM
M  V30 BEGIN BOND
M  V30 1 2 1 2
M  V30 2 1 2 3
M  V30 3 1 2 4
M  V30 4 1 3 5
M  V30 5 1 3 6
M  V30 6 2 5 7
M  V30 7 1 5 8
M  V30 8 2 6 9
M  V30 9 1 6 10
M  V30 10 1 7 11
M  V30 11 1 7 12
M  V30 12 2 8 13
M  V30 13 1 9 14
M  V30 14 1 9 15
M  V30 15 2 10 16
M  V30 16 2 11 17
M  V30 17 2 12 18
M  V30 18 2 14 19
M  V30 19 1 11 15
M  V30 20 1 13 18
M  V30 21 1 16 19
M  V30 22 1 4 20
M  V30 23 1 4 21
M  V30 24 1 8 22
M  V30 25 1 10 23
M  V30 26 1 12 24
M  V30 27 1 13 25
M  V30 28 1 14 26
M  V30 29 1 15 27
M  V30 30 1 15 28
M  V30 31 1 16 29
M  V30 32 1 17 30
M  V30 33 1 18 31
M  V30 34 1 19 32
M  V30 END BOND
M  V30 END CTAB
M  END
>  <Column 1>
3907

>  <level_0>
7600

>  <index>
7601

>  <Unnamed: 0>
7601

>  <NO.>
7614

>  <Name>
bdbm50446085

>  <IUPAC_name>
5-imino-6h-benzo[b][1]benzazepine-11-carboxamide

>  <SMILES>
N=C1Cc2ccccc2N(C(N)=O)c2ccccc21

>  <CID>
91384547

>  <logBB>


>  <BBB+/BBB->
BBB+

>  <Inchi>
InChI=1S/C15H13N3O/c16-12-9-10-5-1-3-7-13(10)18(15(17)19)14-8-4-2-6-11(12)14/h1-8-16H-9H2-(H2-17-19)

>  <threshold>


>  <reference>
R27|

>  <group>
C

>  <Class>
1

>  <ABC>
14.93

>  <ABCGG>
12.56

>  <nAcid>
0

>  <nBase>
0

>  <nAromAtom>
12

>  <nAromBond>
12

>  <nAtom>
32

>  <nHeavyAtom>
19

>  <nSpiro>
0

>  <nBridgehead>
0

>  <nHetero>
4

>  <nN>
3

>  <nO>
1

>  <nF>
0

>  <BalabanJ>
1.9

>  <BertzCT>
678.6

>  <nBonds>
34

>  <nBondsO>
21

>  <nBondsS>
20

>  <nBondsD>
2

>  <nBondsT>
0

>  <nBondsA>
12

>  <nBondsM>
14

>  <nBondsKS>
26

>  <nBondsKD>
8

>  <RNCG>
0.22

>  <RPCG>
0.2

>  <FCSP3>
0.07

>  <SZ>
22

>  <Sm>
20.92

>  <Sv>
21.51

>  <Sse>
32.09

>  <Sp>
22.65

>  <Si>
35.78

>  <MZ>
0.69

>  <Mm>
0.65

>  <Mv>
0.67

>  <Mse>
1

>  <Mp>
0.71

>  <Mi>
1.12

>  <NsCH3>
0

>  <NdCH2>
0

>  <NssCH2>
1

>  <NtCH>
0

>  <NdsCH>
0

>  <NaaCH>
8

>  <NsssCH>
0

>  <NddC>
0

>  <NtsC>
0

>  <NdssC>
2

>  <NaasC>
4

>  <NaaaC>
0

>  <NssssC>
0

>  <NsNH3>
0

>  <NsNH2>
1

>  <NssNH2>
0

>  <NdNH>
1

>  <NssNH>
0

>  <NaaNH>
0

>  <NtN>
0

>  <NsssNH>
0

>  <NdsN>
0

>  <NaaN>
0

>  <NsssN>
1

>  <NddsN>
0

>  <NaasN>
0

>  <NssssN>
0

>  <NsOH>
0

>  <NdO>
1

>  <NssO>
0

>  <NaaO>
0

>  <NsF>
0

>  <NsSiH3>
0

>  <NssSiH2>
0

>  <NsssSiH>
0

>  <NssssSi>
0

>  <NsPH2>
0

>  <NssPH>
0

>  <NsssP>
0

>  <NdsssP>
0

>  <NsssssP>
0

>  <NsSH>
0

>  <NdS>
0

>  <NssS>
0

>  <NaaS>
0

>  <NdssS>
0

>  <NddssS>
0

>  <NsCl>
0

>  <NsBr>
0

>  <NsI>
0

>  <fragCpx>
99.04

>  <fMF>
0.47

>  <nHBAcc>
2

>  <nHBDon>
2

>  <Kier1>
13.96

>  <Kier2>
5.78

>  <Lipinski>
1

>  <GhoseFilter>
1

>  <FilterItLogS>
-3.22

>  <VMcGowan>
191.04

>  <LabuteASA>
110.52

>  <PEOE_VSA1>
11.14

>  <PEOE_VSA2>
4.9

>  <PEOE_VSA3>
4.79

>  <PEOE_VSA4>
0

>  <PEOE_VSA5>
0

>  <PEOE_VSA6>
36.4

>  <PEOE_VSA7>
17.7

>  <PEOE_VSA8>
17.7

>  <PEOE_VSA9>
11.37

>  <PEOE_VSA10>
0

>  <PEOE_VSA11>
0

>  <PEOE_VSA12>
0

>  <PEOE_VSA13>
0

>  <SMR_VSA1>
4.79

>  <SMR_VSA2>
5.41

>  <SMR_VSA3>
0

>  <SMR_VSA4>
5.73

>  <SMR_VSA5>
6.42

>  <SMR_VSA6>
4.9

>  <SMR_VSA7>
59.66

>  <SMR_VSA8>
0

>  <SMR_VSA9>
0

>  <SlogP_VSA1>
10.63

>  <SlogP_VSA2>
11.74

>  <SlogP_VSA3>
6.42

>  <SlogP_VSA4>
5.41

>  <SlogP_VSA5>
11.13

>  <SlogP_VSA6>
48.53

>  <SlogP_VSA7>
0

>  <SlogP_VSA8>
0

>  <SlogP_VSA9>
0

>  <SlogP_VSA10>
16.17

>  <SlogP_VSA11>
0

>  <EState_VSA1>
6.03

>  <EState_VSA2>
0

>  <EState_VSA3>
17.82

>  <EState_VSA4>
16.81

>  <EState_VSA5>
4.9

>  <EState_VSA6>
0

>  <EState_VSA7>
48.53

>  <EState_VSA8>
0

>  <EState_VSA9>
11.14

>  <EState_VSA10>
4.79

>  <VSA_EState1>
0

>  <VSA_EState2>
13.3

>  <VSA_EState3>
8.19

>  <VSA_EState4>
9.13

>  <VSA_EState5>
0

>  <VSA_EState6>
14.39

>  <VSA_EState7>
0.5

>  <VSA_EState8>
0

>  <VSA_EState9>
0

>  <apol>
37.82

>  <bpol>
15.05

>  <nRing>
3

>  <nHRing>
1

>  <naRing>
2

>  <naHRing>
0

>  <nARing 2>
1

>  <nAHRing 2>
1

>  <nFRing>
1

>  <nFHRing>
1

>  <nFaRing>
0

>  <nFaHRing>
0

>  <nFARing 2>
1

>  <nFAHRing 2>
1

>  <nRot>
0

>  <SLogP>
2.83

>  <SMR>
75.14

>  <TopoPSA(NO)>
70.18

>  <TopoPSA>
70.18

>  <JGI1>
0.14

>  <JGI2>
0.07

>  <JGI3>
0.05

>  <JGI4>
0.05

>  <JGI5>
0.02

>  <Diameter>
7

>  <Radius>
4

>  <TMWC10>
114.08

>  <TSRW10>
60.91

>  <MW>
251.11

>  <AMW>
7.85

>  <WPath>
593

>  <WPol>
36

>  <Zagreb1>
102

>  <Zagreb2>
123

>  <mZagreb2>
4.17

>  <yes>


>  <nAR-cont>
0.816016

>  <nHA-cont>
0.998649058

>  <MWHBN>
0.252422456

>  <MWHBN-cont>
0.955611684

>  <TPSA-cont>
0.510100021

>  <pka_cont>
0.97

>  <yes.1>


>  <BBB_SCORE>
4.753282625

>  <MMFF94 Energy>
37.333

$$$$
Compound 3039
Actelion Java MolfileCreator 2.0

  0  0  0  0  0  0              0 V3000
M  V30 BEGIN CTAB
M  V30 COUNTS 28 29 0 0 0
M  V30 BEGIN ATOM
M  V30 1 O 2.5996 -1.6537 -3.862 0
M  V30 2 N 1.7467 -1.1776 -2.8726 0
M  V30 3 C 2.1237 -0.019 -2.221 0
M  V30 4 C 0.6514 -1.8875 -2.4776 0
M  V30 5 N 1.4266 0.4346 -1.1321 0
M  V30 6 N 3.1393 0.7017 -2.5742 0
M  V30 7 C -0.0934 -1.481 -1.4454 0
M  V30 8 C 0.3552 -0.2182 -0.7484 0
M  V30 9 N -0.3605 0.2664 0.3472 0
M  V30 10 C -1.8203 0.1918 0.4384 0
M  V30 11 C 0.2472 1.2833 1.2211 0
M  V30 12 C -2.2506 -0.0785 1.8774 0
M  V30 13 C -0.1608 1.0468 2.6747 0
M  V30 14 C -1.6755 0.9659 2.8279 0
M  V30 15 H 3.3191 -2.0517 -3.3361 0
M  V30 16 H 0.4456 -2.7877 -3.0427 0
M  V30 17 H 3.5119 0.2648 -3.4208 0
M  V30 18 H -0.9432 -2.0373 -1.0839 0
M  V30 19 H -2.2415 -0.5883 -0.2008 0
M  V30 20 H -2.2485 1.14 0.09 0
M  V30 21 H -0.0657 2.2814 0.8917 0
M  V30 22 H 1.3419 1.2506 1.177 0
M  V30 23 H -1.9077 -1.0753 2.1817 0
M  V30 24 H -3.3442 -0.0778 1.9447 0
M  V30 25 H 0.2864 0.1094 3.0291 0
M  V30 26 H 0.2342 1.8504 3.3061 0
M  V30 27 H -2.1206 1.9452 2.6137 0
M  V30 28 H -1.9336 0.7127 3.8621 0
M  V30 END ATOM
M  V30 BEGIN BOND
M  V30 1 1 1 2
M  V30 2 1 2 3
M  V30 3 1 2 4
M  V30 4 1 3 5
M  V30 5 2 3 6
M  V30 6 2 4 7
M  V30 7 2 5 8
M  V30 8 1 8 9
M  V30 9 1 9 10
M  V30 10 1 9 11
M  V30 11 1 10 12
M  V30 12 1 11 13
M  V30 13 1 12 14
M  V30 14 1 7 8
M  V30 15 1 13 14
M  V30 16 1 1 15
M  V30 17 1 4 16
M  V30 18 1 6 17
M  V30 19 1 7 18
M  V30 20 1 10 19
M  V30 21 1 10 20
M  V30 22 1 11 21
M  V30 23 1 11 22
M  V30 24 1 12 23
M  V30 25 1 12 24
M  V30 26 1 13 25
M  V30 27 1 13 26
M  V30 28 1 14 27
M  V30 29 1 14 28
M  V30 END BOND
M  V30 END CTAB
M  END
>  <Column 1>
3908

>  <level_0>
7601

>  <index>
7602

>  <Unnamed: 0>
7602

>  <NO.>
7615

>  <Name>
schembl19923339

>  <IUPAC_name>
1-hydroxy-4-piperidin-1-ylpyrimidin-2-imine

>  <SMILES>
N=c1nc(N2CCCCC2)ccn1O

>  <CID>
23200357

>  <logBB>


>  <BBB+/BBB->
BBB+

>  <Inchi>
InChI=1S/C9H14N4O/c10-9-11-8(4-7-13(9)14)12-5-2-1-3-6-12/h4-7-10-14H-1-3-5-6H2

>  <threshold>


>  <reference>
R27|

>  <group>
C

>  <Class>
1

>  <ABC>
10.74

>  <ABCGG>
9.2

>  <nAcid>
0

>  <nBase>
0

>  <nAromAtom>
6

>  <nAromBond>
6

>  <nAtom>
28

>  <nHeavyAtom>
14

>  <nSpiro>
0

>  <nBridgehead>
0

>  <nHetero>
5

>  <nN>
4

>  <nO>
1

>  <nF>
0

>  <BalabanJ>
1.85

>  <BertzCT>
367.32

>  <nBonds>
29

>  <nBondsO>
15

>  <nBondsS>
22

>  <nBondsD>
1

>  <nBondsT>
0

>  <nBondsA>
6

>  <nBondsM>
7

>  <nBondsKS>
26

>  <nBondsKD>
3

>  <RNCG>
0.28

>  <RPCG>
0.22

>  <FCSP3>
0.56

>  <SZ>
17.33

>  <Sm>
16.17

>  <Sv>
16.54

>  <Sse>
28.2

>  <Sp>
17.7

>  <Si>
32.28

>  <MZ>
0.62

>  <Mm>
0.58

>  <Mv>
0.59

>  <Mse>
1.01

>  <Mp>
0.63

>  <Mi>
1.15

>  <NsCH3>
0

>  <NdCH2>
0

>  <NssCH2>
5

>  <NtCH>
0

>  <NdsCH>
0

>  <NaaCH>
2

>  <NsssCH>
0

>  <NddC>
0

>  <NtsC>
0

>  <NdssC>
0

>  <NaasC>
1

>  <NaaaC>
0

>  <NssssC>
0

>  <NsNH3>
0

>  <NsNH2>
0

>  <NssNH2>
0

>  <NdNH>
1

>  <NssNH>
0

>  <NaaNH>
0

>  <NtN>
0

>  <NsssNH>
0

>  <NdsN>
0

>  <NaaN>
1

>  <NsssN>
1

>  <NddsN>
0

>  <NaasN>
1

>  <NssssN>
0

>  <NsOH>
1

>  <NdO>
0

>  <NssO>
0

>  <NaaO>
0

>  <NsF>
0

>  <NsSiH3>
0

>  <NssSiH2>
0

>  <NsssSiH>
0

>  <NssssSi>
0

>  <NsPH2>
0

>  <NssPH>
0

>  <NsssP>
0

>  <NdsssP>
0

>  <NsssssP>
0

>  <NsSH>
0

>  <NdS>
0

>  <NssS>
0

>  <NaaS>
0

>  <NdssS>
0

>  <NddssS>
0

>  <NsCl>
0

>  <NsBr>
0

>  <NsI>
0

>  <fragCpx>
43.05

>  <fMF>
0.43

>  <nHBAcc>
5

>  <nHBDon>
2

>  <Kier1>
10.52

>  <Kier2>
4.68

>  <Lipinski>
1

>  <GhoseFilter>
1

>  <FilterItLogS>
-0.73

>  <VMcGowan>
148.84

>  <LabuteASA>
82.09

>  <PEOE_VSA1>
10.11

>  <PEOE_VSA2>
5.41

>  <PEOE_VSA3>
0

>  <PEOE_VSA4>
9.71

>  <PEOE_VSA5>
0

>  <PEOE_VSA6>
0

>  <PEOE_VSA7>
19.26

>  <PEOE_VSA8>
19.16

>  <PEOE_VSA9>
6.2

>  <PEOE_VSA10>
5.82

>  <PEOE_VSA11>
0

>  <PEOE_VSA12>
0

>  <PEOE_VSA13>
5.62

>  <SMR_VSA1>
5.21

>  <SMR_VSA2>
5.41

>  <SMR_VSA3>
9.71

>  <SMR_VSA4>
0

>  <SMR_VSA5>
19.26

>  <SMR_VSA6>
17.99

>  <SMR_VSA7>
17.88

>  <SMR_VSA8>
0

>  <SMR_VSA9>
0

>  <SlogP_VSA1>
10.52

>  <SlogP_VSA2>
28.01

>  <SlogP_VSA3>
0

>  <SlogP_VSA4>
5.41

>  <SlogP_VSA5>
19.26

>  <SlogP_VSA6>
12.26

>  <SlogP_VSA7>
0

>  <SlogP_VSA8>
0

>  <SlogP_VSA9>
0

>  <SlogP_VSA10>
5.82

>  <SlogP_VSA11>
0

>  <EState_VSA1>
0

>  <EState_VSA2>
5.62

>  <EState_VSA3>
4.73

>  <EState_VSA4>
18.91

>  <EState_VSA5>
25.46

>  <EState_VSA6>
6.07

>  <EState_VSA7>
0

>  <EState_VSA8>
9.88

>  <EState_VSA9>
10.62

>  <EState_VSA10>
0

>  <VSA_EState1>
0.72

>  <VSA_EState2>
6.16

>  <VSA_EState3>
16.44

>  <VSA_EState4>
-0.12

>  <VSA_EState5>
0.79

>  <VSA_EState6>
1.74

>  <VSA_EState7>
5.1

>  <VSA_EState8>
2

>  <VSA_EState9>
0

>  <apol>
29.57

>  <bpol>
17.46

>  <nRing>
2

>  <nHRing>
2

>  <naRing>
1

>  <naHRing>
1

>  <nARing 2>
1

>  <nAHRing 2>
1

>  <nFRing>
0

>  <nFHRing>
0

>  <nFaRing>
0

>  <nFaHRing>
0

>  <nFARing 2>
0

>  <nFAHRing 2>
0

>  <nRot>
1

>  <SLogP>
0.59

>  <SMR>
51.33

>  <TopoPSA(NO)>
65.14

>  <TopoPSA>
65.14

>  <JGI1>
0.17

>  <JGI2>
0.09

>  <JGI3>
0.03

>  <JGI4>
0.04

>  <JGI5>
0.03

>  <Diameter>
8

>  <Radius>
4

>  <TMWC10>
97.51

>  <TSRW10>
45.52

>  <MW>
194.12

>  <AMW>
6.93

>  <WPath>
303

>  <WPol>
19

>  <Zagreb1>
70

>  <Zagreb2>
80

>  <mZagreb2>
3.14

>  <yes>


>  <nAR-cont>
0.816016

>  <nHA-cont>
0.887625254

>  <MWHBN>
0.502415349

>  <MWHBN-cont>
0

>  <TPSA-cont>
0.54528235

>  <pka_cont>
0.97

>  <yes.1>


>  <BBB_SCORE>
3.279205955

>  <MMFF94 Energy>
-48.219

$$$$
Compound 3040
Actelion Java MolfileCreator 2.0

  0  0  0  0  0  0              0 V3000
M  V30 BEGIN CTAB
M  V30 COUNTS 30 32 0 0 0
M  V30 BEGIN ATOM
M  V30 1 Cl -0.9983 5.0826 -0.3327 0
M  V30 2 C -0.1157 3.6243 -0.0997 0
M  V30 3 C -0.7142 2.401 -0.3988 0
M  V30 4 C 1.1914 3.6803 0.4043 0
M  V30 5 C 0.0293 1.2455 -0.1954 0
M  V30 6 C 1.9299 2.5065 0.5988 0
M  V30 7 C 1.3481 1.294 0.2589 0
M  V30 8 C -0.3924 -0.1905 -0.3696 0 CFG=1
M  V30 9 N 1.8619 -0.014 0.3643 0
M  V30 10 C 0.8749 -0.9535 0.0081 0
M  V30 11 C -1.5628 -0.6066 0.5053 0
M  V30 12 C 3.1574 -0.3929 0.6256 0
M  V30 13 O 0.9701 -2.171 -0.0641 0
M  V30 14 O -1.808 0.0156 1.5425 0
M  V30 15 C -2.3706 -1.737 0.0464 0
M  V30 16 O 3.4874 -1.4234 1.2057 0
M  V30 17 N 4.1425 0.4628 0.2368 0
M  V30 18 S -3.877 -2.0454 0.8149 0
M  V30 19 C -2.1321 -2.66 -0.9569 0
M  V30 20 C -4.2013 -3.3868 -0.1902 0
M  V30 21 C -3.1879 -3.6103 -1.0926 0
M  V30 22 H -1.7405 2.3567 -0.7514 0
M  V30 23 H 1.6327 4.6407 0.6633 0
M  V30 24 H 2.9207 2.5731 1.036 0
M  V30 25 H -0.6066 -0.3517 -1.4316 0
M  V30 26 H 5.0911 0.1836 0.4521 0
M  V30 27 H 3.9966 1.1923 -0.4431 0
M  V30 28 H -1.2353 -2.6862 -1.5651 0
M  V30 29 H -5.1152 -3.9518 -0.0652 0
M  V30 30 H -3.1966 -4.4225 -1.8097 0
M  V30 END ATOM
M  V30 BEGIN BOND
M  V30 1 1 1 2
M  V30 2 2 2 3
M  V30 3 1 2 4
M  V30 4 1 3 5
M  V30 5 2 4 6
M  V30 6 2 5 7
M  V30 7 1 5 8
M  V30 8 1 7 9
M  V30 9 1 8 10
M  V30 10 1 8 11
M  V30 11 1 9 12
M  V30 12 2 10 13
M  V30 13 2 11 14
M  V30 14 1 11 15
M  V30 15 2 12 16
M  V30 16 1 12 17
M  V30 17 1 15 18
M  V30 18 2 15 19
M  V30 19 1 18 20
M  V30 20 1 19 21
M  V30 21 1 6 7
M  V30 22 1 9 10
M  V30 23 2 20 21
M  V30 24 1 3 22
M  V30 25 1 4 23
M  V30 26 1 6 24
M  V30 27 1 8 25
M  V30 28 1 17 26
M  V30 29 1 17 27
M  V30 30 1 19 28
M  V30 31 1 20 29
M  V30 32 1 21 30
M  V30 END BOND
M  V30 BEGIN COLLECTION
M  V30 MDLV30/STEABS ATOMS=(1 8)
M  V30 END COLLECTION
M  V30 END CTAB
M  END
>  <Column 1>
3910

>  <level_0>
7604

>  <index>
7605

>  <Unnamed: 0>
7605

>  <NO.>
7618

>  <Name>
(3r)-5-chloro-2-oxo-3-(thiophene-2-carbonyl)-3h-indole-1-carboxamide

>  <IUPAC_name>
(3r)-5-chloro-2-oxo-3-(thiophene-2-carbonyl)-3h-indole-1-carboxamide

>  <SMILES>
NC(=O)N1C(=O)[C@@H](C(=O)c2cccs2)c2cc(Cl)ccc21

>  <CID>
98049822

>  <logBB>


>  <BBB+/BBB->
BBB+

>  <Inchi>
InChI=1S/C14H9ClN2O3S/c15-7-3-4-9-8(6-7)11(13(19)17(9)14(16)20)12(18)10-2-1-5-21-10/h1-6-11H-(H2-16-20)/t11-/m1/s1

>  <threshold>


>  <reference>
R27|

>  <group>
C

>  <Class>
-1

>  <ABC>
16.49

>  <ABCGG>
14.85

>  <nAcid>
0

>  <nBase>
0

>  <nAromAtom>
11

>  <nAromBond>
11

>  <nAtom>
30

>  <nHeavyAtom>
21

>  <nSpiro>
0

>  <nBridgehead>
0

>  <nHetero>
7

>  <nN>
2

>  <nO>
3

>  <nF>
0

>  <BalabanJ>
1.83

>  <BertzCT>
757.58

>  <nBonds>
32

>  <nBondsO>
23

>  <nBondsS>
18

>  <nBondsD>
3

>  <nBondsT>
0

>  <nBondsA>
11

>  <nBondsM>
14

>  <nBondsKS>
24

>  <nBondsKD>
8

>  <RNCG>
0.19

>  <RPCG>
0.18

>  <FCSP3>
0.07

>  <SZ>
27.33

>  <Sm>
26.7

>  <Sv>
22.38

>  <Sse>
31.16

>  <Sp>
23.39

>  <Si>
33.15

>  <MZ>
0.91

>  <Mm>
0.89

>  <Mv>
0.75

>  <Mse>
1.04

>  <Mp>
0.78

>  <Mi>
1.11

>  <NsCH3>
0

>  <NdCH2>
0

>  <NssCH2>
0

>  <NtCH>
0

>  <NdsCH>
0

>  <NaaCH>
6

>  <NsssCH>
1

>  <NddC>
0

>  <NtsC>
0

>  <NdssC>
3

>  <NaasC>
4

>  <NaaaC>
0

>  <NssssC>
0

>  <NsNH3>
0

>  <NsNH2>
1

>  <NssNH2>
0

>  <NdNH>
0

>  <NssNH>
0

>  <NaaNH>
0

>  <NtN>
0

>  <NsssNH>
0

>  <NdsN>
0

>  <NaaN>
0

>  <NsssN>
1

>  <NddsN>
0

>  <NaasN>
0

>  <NssssN>
0

>  <NsOH>
0

>  <NdO>
3

>  <NssO>
0

>  <NaaO>
0

>  <NsF>
0

>  <NsSiH3>
0

>  <NssSiH2>
0

>  <NsssSiH>
0

>  <NssssSi>
0

>  <NsPH2>
0

>  <NssPH>
0

>  <NsssP>
0

>  <NdsssP>
0

>  <NsssssP>
0

>  <NsSH>
0

>  <NdS>
0

>  <NssS>
0

>  <NaaS>
1

>  <NdssS>
0

>  <NddssS>
0

>  <NsCl>
1

>  <NsBr>
0

>  <NsI>
0

>  <fragCpx>
109.07

>  <fMF>
0.5

>  <nHBAcc>
4

>  <nHBDon>
1

>  <Kier1>
15.88

>  <Kier2>
6.25

>  <Lipinski>
1

>  <GhoseFilter>
1

>  <FilterItLogS>
-2.95

>  <VMcGowan>
207.3

>  <LabuteASA>
128.47

>  <PEOE_VSA1>
5.73

>  <PEOE_VSA2>
9.59

>  <PEOE_VSA3>
9.69

>  <PEOE_VSA4>
0

>  <PEOE_VSA5>
11.34

>  <PEOE_VSA6>
17.67

>  <PEOE_VSA7>
35.21

>  <PEOE_VSA8>
5.02

>  <PEOE_VSA9>
10.56

>  <PEOE_VSA10>
5.92

>  <PEOE_VSA11>
5.78

>  <PEOE_VSA12>
0

>  <PEOE_VSA13>
5.91

>  <SMR_VSA1>
14.38

>  <SMR_VSA2>
0

>  <SMR_VSA3>
0

>  <SMR_VSA4>
5.73

>  <SMR_VSA5>
5.92

>  <SMR_VSA6>
4.9

>  <SMR_VSA7>
51.18

>  <SMR_VSA8>
0

>  <SMR_VSA9>
0

>  <SlogP_VSA1>
10.63

>  <SlogP_VSA2>
17.72

>  <SlogP_VSA3>
4.79

>  <SlogP_VSA4>
0

>  <SlogP_VSA5>
21.15

>  <SlogP_VSA6>
35.71

>  <SlogP_VSA7>
5.02

>  <SlogP_VSA8>
0

>  <SlogP_VSA9>
0

>  <SlogP_VSA10>
10.48

>  <SlogP_VSA11>
0

>  <EState_VSA1>
17.86

>  <EState_VSA2>
5.78

>  <EState_VSA3>
21.15

>  <EState_VSA4>
4.9

>  <EState_VSA5>
23.47

>  <EState_VSA6>
23.58

>  <EState_VSA7>
0

>  <EState_VSA8>
0

>  <EState_VSA9>
17.33

>  <EState_VSA10>
14.38

>  <VSA_EState1>
0

>  <VSA_EState2>
37.72

>  <VSA_EState3>
2.13

>  <VSA_EState4>
5.97

>  <VSA_EState5>
-2.08

>  <VSA_EState6>
7.03

>  <VSA_EState7>
0

>  <VSA_EState8>
0

>  <VSA_EState9>
0

>  <apol>
39.07

>  <bpol>
15.74

>  <nRing>
3

>  <nHRing>
2

>  <naRing>
2

>  <naHRing>
1

>  <nARing 2>
1

>  <nAHRing 2>
1

>  <nFRing>
1

>  <nFHRing>
1

>  <nFaRing>
0

>  <nFaHRing>
0

>  <nFARing 2>
1

>  <nFAHRing 2>
1

>  <nRot>
2

>  <SLogP>
2.79

>  <SMR>
79.91

>  <TopoPSA(NO)>
80.47

>  <TopoPSA>
108.71

>  <JGI1>
0.17

>  <JGI2>
0.08

>  <JGI3>
0.08

>  <JGI4>
0.05

>  <JGI5>
0.03

>  <Diameter>
8

>  <Radius>
4

>  <TMWC10>
119.65

>  <TSRW10>
71.36

>  <MW>
320

>  <AMW>
10.67

>  <WPath>
831

>  <WPol>
35

>  <Zagreb1>
114

>  <Zagreb2>
139

>  <mZagreb2>
4.56

>  <yes>


>  <nAR-cont>
0.816016

>  <nHA-cont>
0.994529749

>  <MWHBN>
0.279508497

>  <MWHBN-cont>
0.89732318

>  <TPSA-cont>
0.241136695

>  <pka_cont>
0.97

>  <yes.1>


>  <BBB_SCORE>
4.12380391

>  <MMFF94 Energy>
-7.9232

$$$$
Compound 3041
Actelion Java MolfileCreator 2.0

  0  0  0  0  0  0              0 V3000
M  V30 BEGIN CTAB
M  V30 COUNTS 28 29 0 0 0
M  V30 BEGIN ATOM
M  V30 1 O -0.7054 -0.7054 -0.2351 0
M  V30 2 C -0.8959 0.4892 -0.8806 0
M  V30 3 C 0.5763 -1.3092 -0.5159 0 CFG=1
M  V30 4 C -0.0296 0.9838 -1.8587 0
M  V30 5 C -2.0157 1.2291 -0.5036 0
M  V30 6 C 0.9543 -1.095 -1.9812 0
M  V30 7 C 1.65 -0.7741 0.4516 0
M  V30 8 O 1.0713 0.2958 -2.2969 0
M  V30 9 C -0.2557 2.2366 -2.4249 0
M  V30 10 C -2.2527 2.4767 -1.0829 0
M  V30 11 N 1.7293 -1.5973 1.6679 0
M  V30 12 C -1.3697 2.983 -2.0379 0
M  V30 13 C 0.8837 -1.4101 2.611 0
M  V30 14 N 0.9888 -2.1325 3.7379 0
M  V30 15 N -0.1593 -0.565 2.6603 0
M  V30 16 H 0.4497 -2.387 -0.3577 0
M  V30 17 H -2.7003 0.8388 0.2439 0
M  V30 18 H 0.2038 -1.5388 -2.6485 0
M  V30 19 H 1.9149 -1.5703 -2.2065 0
M  V30 20 H 2.6373 -0.8401 -0.0199 0
M  V30 21 H 1.4973 0.2814 0.7059 0
M  V30 22 H 0.4282 2.6251 -3.1742 0
M  V30 23 H -3.1236 3.0564 -0.7873 0
M  V30 24 H -1.5513 3.957 -2.4852 0
M  V30 25 H 0.5253 -1.8723 4.5914 0
M  V30 26 H 1.7618 -2.782 3.7892 0
M  V30 27 H -0.4181 -0.0511 1.8273 0
M  V30 28 H -0.8654 -0.6531 3.3721 0
M  V30 END ATOM
M  V30 BEGIN BOND
M  V30 1 1 1 2
M  V30 2 1 1 3
M  V30 3 2 2 4
M  V30 4 1 2 5
M  V30 5 1 3 6
M  V30 6 1 3 7
M  V30 7 1 4 8
M  V30 8 1 4 9
M  V30 9 2 5 10
M  V30 10 1 7 11
M  V30 11 2 9 12
M  V30 12 2 11 13
M  V30 13 1 13 14
M  V30 14 1 13 15
M  V30 15 1 6 8
M  V30 16 1 10 12
M  V30 17 1 3 16
M  V30 18 1 5 17
M  V30 19 1 6 18
M  V30 20 1 6 19
M  V30 21 1 7 20
M  V30 22 1 7 21
M  V30 23 1 9 22
M  V30 24 1 10 23
M  V30 25 1 12 24
M  V30 26 1 14 25
M  V30 27 1 14 26
M  V30 28 1 15 27
M  V30 29 1 15 28
M  V30 END BOND
M  V30 BEGIN COLLECTION
M  V30 MDLV30/STEABS ATOMS=(1 3)
M  V30 END COLLECTION
M  V30 END CTAB
M  END
>  <Column 1>
3911

>  <level_0>
7607

>  <index>
7608

>  <Unnamed: 0>
7608

>  <NO.>
7621

>  <Name>
zinc4213470

>  <IUPAC_name>
2-[[(3r)-2-3-dihydro-1-4-benzodioxin-3-yl]methyl]guanidine

>  <SMILES>
NC(N)=NC[C@@H]1COc2ccccc2O1

>  <CID>
40479665

>  <logBB>


>  <BBB+/BBB->
BBB+

>  <Inchi>
InChI=1S/C10H13N3O2/c11-10(12)13-5-7-6-14-8-3-1-2-4-9(8)15-7/h1-4-7H-5-6H2-(H4-11-12-13)/t7-/m1/s1

>  <threshold>


>  <reference>
R27|

>  <group>
C

>  <Class>
1

>  <ABC>
11.49

>  <ABCGG>
9.44

>  <nAcid>
0

>  <nBase>
3

>  <nAromAtom>
6

>  <nAromBond>
6

>  <nAtom>
28

>  <nHeavyAtom>
15

>  <nSpiro>
0

>  <nBridgehead>
0

>  <nHetero>
5

>  <nN>
3

>  <nO>
2

>  <nF>
0

>  <BalabanJ>
1.75

>  <BertzCT>
374.69

>  <nBonds>
29

>  <nBondsO>
16

>  <nBondsS>
22

>  <nBondsD>
1

>  <nBondsT>
0

>  <nBondsA>
6

>  <nBondsM>
7

>  <nBondsKS>
25

>  <nBondsKD>
4

>  <RNCG>
0.23

>  <RPCG>
0.09

>  <FCSP3>
0.3

>  <SZ>
18.33

>  <Sm>
17.25

>  <Sv>
17.23

>  <Sse>
28.42

>  <Sp>
18.13

>  <Si>
31.99

>  <MZ>
0.65

>  <Mm>
0.62

>  <Mv>
0.62

>  <Mse>
1.02

>  <Mp>
0.65

>  <Mi>
1.14

>  <NsCH3>
0

>  <NdCH2>
0

>  <NssCH2>
2

>  <NtCH>
0

>  <NdsCH>
0

>  <NaaCH>
4

>  <NsssCH>
1

>  <NddC>
0

>  <NtsC>
0

>  <NdssC>
1

>  <NaasC>
2

>  <NaaaC>
0

>  <NssssC>
0

>  <NsNH3>
0

>  <NsNH2>
2

>  <NssNH2>
0

>  <NdNH>
0

>  <NssNH>
0

>  <NaaNH>
0

>  <NtN>
0

>  <NsssNH>
0

>  <NdsN>
1

>  <NaaN>
0

>  <NsssN>
0

>  <NddsN>
0

>  <NaasN>
0

>  <NssssN>
0

>  <NsOH>
0

>  <NdO>
0

>  <NssO>
2

>  <NaaO>
0

>  <NsF>
0

>  <NsSiH3>
0

>  <NssSiH2>
0

>  <NsssSiH>
0

>  <NssssSi>
0

>  <NsPH2>
0

>  <NssPH>
0

>  <NsssP>
0

>  <NdsssP>
0

>  <NsssssP>
0

>  <NsSH>
0

>  <NdS>
0

>  <NssS>
0

>  <NaaS>
0

>  <NdssS>
0

>  <NddssS>
0

>  <NsCl>
0

>  <NsBr>
0

>  <NsI>
0

>  <fragCpx>
46.05

>  <fMF>
0.36

>  <nHBAcc>
3

>  <nHBDon>
2

>  <Kier1>
11.48

>  <Kier2>
5.37

>  <Lipinski>
1

>  <GhoseFilter>
1

>  <FilterItLogS>
-1.38

>  <VMcGowan>
154.52

>  <LabuteASA>
87.69

>  <PEOE_VSA1>
20.94

>  <PEOE_VSA2>
0

>  <PEOE_VSA3>
4.99

>  <PEOE_VSA4>
0

>  <PEOE_VSA5>
0

>  <PEOE_VSA6>
12.13

>  <PEOE_VSA7>
12.13

>  <PEOE_VSA8>
0

>  <PEOE_VSA9>
6.54

>  <PEOE_VSA10>
6.61

>  <PEOE_VSA11>
23.56

>  <PEOE_VSA12>
0

>  <PEOE_VSA13>
0

>  <SMR_VSA1>
9.47

>  <SMR_VSA2>
0

>  <SMR_VSA3>
0

>  <SMR_VSA4>
16.46

>  <SMR_VSA5>
6.1

>  <SMR_VSA6>
13.15

>  <SMR_VSA7>
24.27

>  <SMR_VSA8>
0

>  <SMR_VSA9>
11.5

>  <SlogP_VSA1>
20.94

>  <SlogP_VSA2>
25.22

>  <SlogP_VSA3>
0

>  <SlogP_VSA4>
0

>  <SlogP_VSA5>
0

>  <SlogP_VSA6>
29.26

>  <SlogP_VSA7>
0

>  <SlogP_VSA8>
0

>  <SlogP_VSA9>
0

>  <SlogP_VSA10>
0

>  <SlogP_VSA11>
11.5

>  <EState_VSA1>
0

>  <EState_VSA2>
12.06

>  <EState_VSA3>
13.15

>  <EState_VSA4>
11.5

>  <EState_VSA5>
0

>  <EState_VSA6>
0

>  <EState_VSA7>
24.27

>  <EState_VSA8>
4.99

>  <EState_VSA9>
20.94

>  <EState_VSA10>
0

>  <VSA_EState1>
11.13

>  <VSA_EState2>
3.89

>  <VSA_EState3>
0

>  <VSA_EState4>
10.47

>  <VSA_EState5>
1.57

>  <VSA_EState6>
7.52

>  <VSA_EState7>
-0.12

>  <VSA_EState8>
0.88

>  <VSA_EState9>
0

>  <apol>
30.27

>  <bpol>
16.51

>  <nRing>
2

>  <nHRing>
1

>  <naRing>
1

>  <naHRing>
0

>  <nARing 2>
1

>  <nAHRing 2>
1

>  <nFRing>
1

>  <nFHRing>
1

>  <nFaRing>
0

>  <nFaHRing>
0

>  <nFARing 2>
1

>  <nFAHRing 2>
1

>  <nRot>
2

>  <SLogP>
0.1

>  <SMR>
57.03

>  <TopoPSA(NO)>
82.86

>  <TopoPSA>
82.86

>  <JGI1>
0.19

>  <JGI2>
0.06

>  <JGI3>
0.02

>  <JGI4>
0.05

>  <JGI5>
0.02

>  <Diameter>
9

>  <Radius>
5

>  <TMWC10>
99.78

>  <TSRW10>
46.69

>  <MW>
207.1

>  <AMW>
7.4

>  <WPath>
392

>  <WPol>
19

>  <Zagreb1>
74

>  <Zagreb2>
83

>  <mZagreb2>
3.36

>  <yes>


>  <nAR-cont>
0.816016

>  <nHA-cont>
0.92539861

>  <MWHBN>
0.347440111

>  <MWHBN-cont>
0.679791307

>  <TPSA-cont>
0.421585747

>  <pka_cont>
0.97

>  <yes.1>


>  <BBB_SCORE>
4.089273064

>  <MMFF94 Energy>
-73.183

$$$$
Compound 3042
Actelion Java MolfileCreator 2.0

  0  0  0  0  0  0              0 V3000
M  V30 BEGIN CTAB
M  V30 COUNTS 43 45 0 0 0
M  V30 BEGIN ATOM
M  V30 1 S -0.8897 1.2133 -3.2381 0
M  V30 2 O 0.4573 0.9635 -3.6879 0
M  V30 3 O -1.7044 2.2533 -3.8278 0
M  V30 4 N -1.7714 -0.1908 -3.4987 0
M  V30 5 C -0.8991 1.42 -1.4845 0
M  V30 6 C -0.5944 0.3579 -0.6121 0
M  V30 7 C -1.2534 2.6749 -0.9838 0
M  V30 8 O -0.1987 -0.8476 -1.1494 0
M  V30 9 C -0.7261 0.5026 0.7947 0
M  V30 10 C -1.3194 2.8678 0.392 0
M  V30 11 C 1.1521 -1.063 -1.3496 0
M  V30 12 N -0.5526 -0.5218 1.7061 0
M  V30 13 C -1.0642 1.7932 1.2572 0
M  V30 14 C -1.6849 4.2139 0.8967 0
M  V30 15 C 2.1849 -0.2409 -0.8921 0
M  V30 16 C 1.4613 -2.2298 -2.0563 0
M  V30 17 C -0.4302 -0.322 3.1523 0
M  V30 18 C -0.6099 -1.9492 1.384 0
M  V30 19 O -1.9341 5.1864 0.2094 0
M  V30 20 O -1.7172 4.2829 2.2387 0
M  V30 21 C 3.515 -0.5806 -1.1528 0
M  V30 22 C 2.7901 -2.5675 -2.3153 0
M  V30 23 C -0.0997 -1.7092 3.6942 0
M  V30 24 C -0.8384 -2.6242 2.7353 0
M  V30 25 C 3.817 -1.7409 -1.8643 0
M  V30 26 H -1.1608 -0.9068 -3.8918 0
M  V30 27 H -2.5928 0.0196 -4.0653 0
M  V30 28 H -1.4778 3.4998 -1.6592 0
M  V30 29 H -1.161 1.9713 2.3251 0
M  V30 30 H 1.9856 0.6644 -0.3282 0
M  V30 31 H 0.6637 -2.8782 -2.4075 0
M  V30 32 H 0.3614 0.39 3.4084 0
M  V30 33 H -1.3828 0.0232 3.5712 0
M  V30 34 H -1.4259 -2.1981 0.6978 0
M  V30 35 H 0.3449 -2.2881 0.972 0
M  V30 36 H -1.967 5.2141 2.4186 0
M  V30 37 H 4.316 0.0641 -0.8008 0
M  V30 38 H 3.0236 -3.472 -2.8701 0
M  V30 39 H -0.412 -1.8383 4.7341 0
M  V30 40 H 0.9797 -1.8922 3.6324 0
M  V30 41 H -0.469 -3.6531 2.757 0
M  V30 42 H -1.9084 -2.6363 2.9758 0
M  V30 43 H 4.8529 -1.9987 -2.0681 0
M  V30 END ATOM
M  V30 BEGIN BOND
M  V30 1 2 1 2
M  V30 2 2 1 3
M  V30 3 1 1 4
M  V30 4 1 1 5
M  V30 5 2 5 6
M  V30 6 1 5 7
M  V30 7 1 6 8
M  V30 8 1 6 9
M  V30 9 2 7 10
M  V30 10 1 8 11
M  V30 11 1 9 12
M  V30 12 2 9 13
M  V30 13 1 10 14
M  V30 14 2 11 15
M  V30 15 1 11 16
M  V30 16 1 12 17
M  V30 17 1 12 18
M  V30 18 2 14 19
M  V30 19 1 14 20
M  V30 20 1 15 21
M  V30 21 2 16 22
M  V30 22 1 17 23
M  V30 23 1 18 24
M  V30 24 2 21 25
M  V30 25 1 10 13
M  V30 26 1 22 25
M  V30 27 1 23 24
M  V30 28 1 4 26
M  V30 29 1 4 27
M  V30 30 1 7 28
M  V30 31 1 13 29
M  V30 32 1 15 30
M  V30 33 1 16 31
M  V30 34 1 17 32
M  V30 35 1 17 33
M  V30 36 1 18 34
M  V30 37 1 18 35
M  V30 38 1 20 36
M  V30 39 1 21 37
M  V30 40 1 22 38
M  V30 41 1 23 39
M  V30 42 1 23 40
M  V30 43 1 24 41
M  V30 44 1 24 42
M  V30 45 1 25 43
M  V30 END BOND
M  V30 END CTAB
M  END
>  <Column 1>
3917

>  <level_0>
7627

>  <index>
7628

>  <Unnamed: 0>
7628

>  <NO.>
7641

>  <Name>
piretanide

>  <IUPAC_name>
4-phenoxy-3-pyrrolidin-1-yl-5-sulfamoylbenzoic acid

>  <SMILES>
NS(=O)(=O)c1cc(C(=O)O)cc(N2CCCC2)c1Oc1ccccc1

>  <CID>
4849

>  <logBB>


>  <BBB+/BBB->
BBB+

>  <Inchi>
InChI=1S/C17H18N2O5S/c18-25(22-23)15-11-12(17(20)21)10-14(19-8-4-5-9-19)16(15)24-13-6-2-1-3-7-13/h1-3-6-7-10-11H-4-5-8-9H2-(H-20-21)(H2-18-22-23)

>  <threshold>


>  <reference>
R27|

>  <group>
C

>  <Class>
1

>  <ABC>
19.56

>  <ABCGG>
16.9

>  <nAcid>
1

>  <nBase>
0

>  <nAromAtom>
12

>  <nAromBond>
12

>  <nAtom>
43

>  <nHeavyAtom>
25

>  <nSpiro>
0

>  <nBridgehead>
0

>  <nHetero>
8

>  <nN>
2

>  <nO>
5

>  <nF>
0

>  <BalabanJ>
1.82

>  <BertzCT>
890.75

>  <nBonds>
45

>  <nBondsO>
27

>  <nBondsS>
30

>  <nBondsD>
3

>  <nBondsT>
0

>  <nBondsA>
12

>  <nBondsM>
15

>  <nBondsKS>
36

>  <nBondsKD>
9

>  <RNCG>
0.19

>  <RPCG>
0.13

>  <FCSP3>
0.24

>  <SZ>
31.67

>  <Sm>
30.17

>  <Sv>
28.15

>  <Sse>
44.05

>  <Sp>
29.64

>  <Si>
48.29

>  <MZ>
0.74

>  <Mm>
0.7

>  <Mv>
0.65

>  <Mse>
1.02

>  <Mp>
0.69

>  <Mi>
1.12

>  <NsCH3>
0

>  <NdCH2>
0

>  <NssCH2>
4

>  <NtCH>
0

>  <NdsCH>
0

>  <NaaCH>
7

>  <NsssCH>
0

>  <NddC>
0

>  <NtsC>
0

>  <NdssC>
1

>  <NaasC>
5

>  <NaaaC>
0

>  <NssssC>
0

>  <NsNH3>
0

>  <NsNH2>
1

>  <NssNH2>
0

>  <NdNH>
0

>  <NssNH>
0

>  <NaaNH>
0

>  <NtN>
0

>  <NsssNH>
0

>  <NdsN>
0

>  <NaaN>
0

>  <NsssN>
1

>  <NddsN>
0

>  <NaasN>
0

>  <NssssN>
0

>  <NsOH>
1

>  <NdO>
3

>  <NssO>
1

>  <NaaO>
0

>  <NsF>
0

>  <NsSiH3>
0

>  <NssSiH2>
0

>  <NsssSiH>
0

>  <NssssSi>
0

>  <NsPH2>
0

>  <NssPH>
0

>  <NsssP>
0

>  <NdsssP>
0

>  <NsssssP>
0

>  <NsSH>
0

>  <NdS>
0

>  <NssS>
0

>  <NaaS>
0

>  <NdssS>
0

>  <NddssS>
1

>  <NsCl>
0

>  <NsBr>
0

>  <NsI>
0

>  <fragCpx>
129.08

>  <fMF>
0.42

>  <nHBAcc>
5

>  <nHBDon>
2

>  <Kier1>
19.75

>  <Kier2>
8.35

>  <Lipinski>
1

>  <GhoseFilter>
1

>  <FilterItLogS>
-2.93

>  <VMcGowan>
253.37

>  <LabuteASA>
145.24

>  <PEOE_VSA1>
14.74

>  <PEOE_VSA2>
0

>  <PEOE_VSA3>
18.35

>  <PEOE_VSA4>
0

>  <PEOE_VSA5>
0

>  <PEOE_VSA6>
18.2

>  <PEOE_VSA7>
37.11

>  <PEOE_VSA8>
13.09

>  <PEOE_VSA9>
11.25

>  <PEOE_VSA10>
10.65

>  <PEOE_VSA11>
5.75

>  <PEOE_VSA12>
10.02

>  <PEOE_VSA13>
0

>  <SMR_VSA1>
23.06

>  <SMR_VSA2>
0

>  <SMR_VSA3>
0

>  <SMR_VSA4>
5.14

>  <SMR_VSA5>
17.74

>  <SMR_VSA6>
17.99

>  <SMR_VSA7>
48.03

>  <SMR_VSA8>
0

>  <SMR_VSA9>
11.5

>  <SlogP_VSA1>
14.78

>  <SlogP_VSA2>
32.58

>  <SlogP_VSA3>
10.02

>  <SlogP_VSA4>
0

>  <SlogP_VSA5>
23.2

>  <SlogP_VSA6>
47.36

>  <SlogP_VSA7>
0

>  <SlogP_VSA8>
0

>  <SlogP_VSA9>
0

>  <SlogP_VSA10>
5.69

>  <SlogP_VSA11>
11.5

>  <EState_VSA1>
15.99

>  <EState_VSA2>
16.21

>  <EState_VSA3>
24.53

>  <EState_VSA4>
18.91

>  <EState_VSA5>
6.07

>  <EState_VSA6>
24.27

>  <EState_VSA7>
10.97

>  <EState_VSA8>
0

>  <EState_VSA9>
9.88

>  <EState_VSA10>
18.32

>  <VSA_EState1>
29.96

>  <VSA_EState2>
13

>  <VSA_EState3>
14.66

>  <VSA_EState4>
0.27

>  <VSA_EState5>
-0.73

>  <VSA_EState6>
11.16

>  <VSA_EState7>
1.87

>  <VSA_EState8>
1.39

>  <VSA_EState9>
-4.18

>  <apol>
49.5

>  <bpol>
28.46

>  <nRing>
3

>  <nHRing>
1

>  <naRing>
2

>  <naHRing>
0

>  <nARing 2>
1

>  <nAHRing 2>
1

>  <nFRing>
0

>  <nFHRing>
0

>  <nFaRing>
0

>  <nFaHRing>
0

>  <nFARing 2>
0

>  <nFAHRing 2>
0

>  <nRot>
5

>  <SLogP>
2.42

>  <SMR>
92.74

>  <TopoPSA(NO)>
109.93

>  <TopoPSA>
118.31

>  <JGI1>
0.22

>  <JGI2>
0.07

>  <JGI3>
0.04

>  <JGI4>
0.05

>  <JGI5>
0.04

>  <Diameter>
10

>  <Radius>
5

>  <TMWC10>
127.84

>  <TSRW10>
73.04

>  <MW>
362.09

>  <AMW>
8.42

>  <WPath>
1361

>  <WPol>
38

>  <Zagreb1>
132

>  <Zagreb2>
154

>  <mZagreb2>
5.36

>  <yes>


>  <nAR-cont>
0.816016

>  <nHA-cont>
0.921834225

>  <MWHBN>
0.367866105

>  <MWHBN-cont>
0.602142506

>  <TPSA-cont>
0.174122734

>  <pka_cont>
0.97

>  <yes.1>


>  <BBB_SCORE>
3.474309452

>  <MMFF94 Energy>
-43.554

$$$$
Compound 3043
Actelion Java MolfileCreator 2.0

  0  0  0  0  0  0              0 V3000
M  V30 BEGIN CTAB
M  V30 COUNTS 32 33 0 0 0
M  V30 BEGIN ATOM
M  V30 1 Cl 3.5379 0.6575 3.2084 0
M  V30 2 C 2.3855 0.9235 1.9582 0
M  V30 3 C 2.1863 2.206 1.4696 0
M  V30 4 C 1.664 -0.1555 1.443 0
M  V30 5 C 1.235 2.4111 0.466 0
M  V30 6 C 0.7256 0.0139 0.4107 0
M  V30 7 S 1.0486 4.0403 -0.1893 0
M  V30 8 C 0.4995 1.3334 -0.0595 0
M  V30 9 N -0.0147 -1.0553 -0.073 0
M  V30 10 O 0.9034 3.9624 -1.6224 0
M  V30 11 O 2.0409 4.8974 0.4197 0
M  V30 12 N -0.4105 4.5161 0.4687 0
M  V30 13 C -0.5641 1.5879 -1.0607 0
M  V30 14 C 0.0957 -2.4352 0.3735 0
M  V30 15 O -1.4625 2.4036 -0.9716 0
M  V30 16 O -0.4135 0.8101 -2.1483 0
M  V30 17 C -0.896 -3.3413 -0.2722 0
M  V30 18 O -0.4241 -4.1901 -1.2307 0
M  V30 19 C -2.2569 -3.5136 -0.1196 0
M  V30 20 C -1.4853 -4.9062 -1.6831 0
M  V30 21 C -2.6355 -4.5278 -1.0315 0
M  V30 22 H 2.7659 3.0352 1.8697 0
M  V30 23 H 1.8574 -1.1416 1.8568 0
M  V30 24 H -0.4369 -0.9321 -0.9941 0
M  V30 25 H -1.1628 4.4355 -0.2225 0
M  V30 26 H -0.3369 5.4132 0.9447 0
M  V30 27 H -0.0632 -2.4859 1.4578 0
M  V30 28 H 1.1081 -2.8053 0.1717 0
M  V30 29 H -1.09 1.1396 -2.7778 0
M  V30 30 H -2.8931 -2.9682 0.564 0
M  V30 31 H -1.2649 -5.6305 -2.455 0
M  V30 32 H -3.6243 -4.9322 -1.1968 0
M  V30 END ATOM
M  V30 BEGIN BOND
M  V30 1 1 1 2
M  V30 2 2 2 3
M  V30 3 1 2 4
M  V30 4 1 3 5
M  V30 5 2 4 6
M  V30 6 1 5 7
M  V30 7 2 5 8
M  V30 8 1 6 9
M  V30 9 2 7 10
M  V30 10 2 7 11
M  V30 11 1 7 12
M  V30 12 1 8 13
M  V30 13 1 9 14
M  V30 14 2 13 15
M  V30 15 1 13 16
M  V30 16 1 14 17
M  V30 17 1 17 18
M  V30 18 2 17 19
M  V30 19 1 18 20
M  V30 20 1 19 21
M  V30 21 1 6 8
M  V30 22 2 20 21
M  V30 23 1 3 22
M  V30 24 1 4 23
M  V30 25 1 9 24
M  V30 26 1 12 25
M  V30 27 1 12 26
M  V30 28 1 14 27
M  V30 29 1 14 28
M  V30 30 1 16 29
M  V30 31 1 19 30
M  V30 32 1 20 31
M  V30 33 1 21 32
M  V30 END BOND
M  V30 END CTAB
M  END
>  <Column 1>
3918

>  <level_0>
7628

>  <index>
7629

>  <Unnamed: 0>
7629

>  <NO.>
7642

>  <Name>
4-chloro-2-(furan-2-ylmethylamino)-6-sulfamoylbenzoic acid

>  <IUPAC_name>
4-chloro-2-(furan-2-ylmethylamino)-6-sulfamoylbenzoic acid

>  <SMILES>
NS(=O)(=O)c1cc(Cl)cc(NCc2ccco2)c1C(=O)O

>  <CID>
85738566

>  <logBB>


>  <BBB+/BBB->
BBB+

>  <Inchi>
InChI=1S/C12H11ClN2O5S/c13-7-4-9(15-6-8-2-1-3-20-8)11(12(16)17)10(5-7)21(14-18)19/h1-5-15H-6H2-(H-16-17)(H2-14-18-19)

>  <threshold>


>  <reference>
R27|

>  <group>
C

>  <Class>
1

>  <ABC>
16.18

>  <ABCGG>
14.64

>  <nAcid>
1

>  <nBase>
0

>  <nAromAtom>
11

>  <nAromBond>
11

>  <nAtom>
32

>  <nHeavyAtom>
21

>  <nSpiro>
0

>  <nBridgehead>
0

>  <nHetero>
9

>  <nN>
2

>  <nO>
5

>  <nF>
0

>  <BalabanJ>
2.04

>  <BertzCT>
771.2

>  <nBonds>
33

>  <nBondsO>
22

>  <nBondsS>
19

>  <nBondsD>
3

>  <nBondsT>
0

>  <nBondsA>
11

>  <nBondsM>
14

>  <nBondsKS>
25

>  <nBondsKD>
8

>  <RNCG>
0.2

>  <RPCG>
0.14

>  <FCSP3>
0.08

>  <SZ>
28.33

>  <Sm>
27.54

>  <Sv>
22.35

>  <Sse>
33.71

>  <Sp>
23.15

>  <Si>
35.98

>  <MZ>
0.89

>  <Mm>
0.86

>  <Mv>
0.7

>  <Mse>
1.05

>  <Mp>
0.72

>  <Mi>
1.12

>  <NsCH3>
0

>  <NdCH2>
0

>  <NssCH2>
1

>  <NtCH>
0

>  <NdsCH>
0

>  <NaaCH>
5

>  <NsssCH>
0

>  <NddC>
0

>  <NtsC>
0

>  <NdssC>
1

>  <NaasC>
5

>  <NaaaC>
0

>  <NssssC>
0

>  <NsNH3>
0

>  <NsNH2>
1

>  <NssNH2>
0

>  <NdNH>
0

>  <NssNH>
1

>  <NaaNH>
0

>  <NtN>
0

>  <NsssNH>
0

>  <NdsN>
0

>  <NaaN>
0

>  <NsssN>
0

>  <NddsN>
0

>  <NaasN>
0

>  <NssssN>
0

>  <NsOH>
1

>  <NdO>
3

>  <NssO>
0

>  <NaaO>
1

>  <NsF>
0

>  <NsSiH3>
0

>  <NssSiH2>
0

>  <NsssSiH>
0

>  <NssssSi>
0

>  <NsPH2>
0

>  <NssPH>
0

>  <NsssP>
0

>  <NdsssP>
0

>  <NsssssP>
0

>  <NsSH>
0

>  <NdS>
0

>  <NssS>
0

>  <NaaS>
0

>  <NdssS>
0

>  <NddssS>
1

>  <NsCl>
1

>  <NsBr>
0

>  <NsI>
0

>  <fragCpx>
64.09

>  <fMF>
0.41

>  <nHBAcc>
5

>  <nHBDon>
3

>  <Kier1>
17.36

>  <Kier2>
7.05

>  <Lipinski>
1

>  <GhoseFilter>
1

>  <FilterItLogS>
-3.36

>  <VMcGowan>
210.32

>  <LabuteASA>
124.92

>  <PEOE_VSA1>
14.84

>  <PEOE_VSA2>
0

>  <PEOE_VSA3>
18.35

>  <PEOE_VSA4>
0

>  <PEOE_VSA5>
0

>  <PEOE_VSA6>
11.6

>  <PEOE_VSA7>
24.27

>  <PEOE_VSA8>
5.02

>  <PEOE_VSA9>
23.39

>  <PEOE_VSA10>
11.32

>  <PEOE_VSA11>
0

>  <PEOE_VSA12>
10.02

>  <PEOE_VSA13>
0

>  <SMR_VSA1>
22.74

>  <SMR_VSA2>
0

>  <SMR_VSA3>
0

>  <SMR_VSA4>
5.14

>  <SMR_VSA5>
11.44

>  <SMR_VSA6>
5.32

>  <SMR_VSA7>
46.87

>  <SMR_VSA8>
0

>  <SMR_VSA9>
0

>  <SlogP_VSA1>
10.46

>  <SlogP_VSA2>
19.49

>  <SlogP_VSA3>
16.57

>  <SlogP_VSA4>
0

>  <SlogP_VSA5>
16.12

>  <SlogP_VSA6>
39.84

>  <SlogP_VSA7>
5.02

>  <SlogP_VSA8>
0

>  <SlogP_VSA9>
0

>  <SlogP_VSA10>
5.69

>  <SlogP_VSA11>
0

>  <EState_VSA1>
26.45

>  <EState_VSA2>
17.25

>  <EState_VSA3>
5.76

>  <EState_VSA4>
6.07

>  <EState_VSA5>
12.33

>  <EState_VSA6>
12.13

>  <EState_VSA7>
0

>  <EState_VSA8>
5.32

>  <EState_VSA9>
21.16

>  <EState_VSA10>
18.32

>  <VSA_EState1>
28.11

>  <VSA_EState2>
10.78

>  <VSA_EState3>
17.08

>  <VSA_EState4>
-0.43

>  <VSA_EState5>
-0.89

>  <VSA_EState6>
5.66

>  <VSA_EState7>
1.46

>  <VSA_EState8>
0.16

>  <VSA_EState9>
-4.22

>  <apol>
38.66

>  <bpol>
20.81

>  <nRing>
2

>  <nHRing>
1

>  <naRing>
2

>  <naHRing>
1

>  <nARing 2>
0

>  <nAHRing 2>
0

>  <nFRing>
0

>  <nFHRing>
0

>  <nFaRing>
0

>  <nFaHRing>
0

>  <nFARing 2>
0

>  <nFAHRing 2>
0

>  <nRot>
5

>  <SLogP>
1.89

>  <SMR>
75.82

>  <TopoPSA(NO)>
122.63

>  <TopoPSA>
131.01

>  <JGI1>
0.27

>  <JGI2>
0.08

>  <JGI3>
0.07

>  <JGI4>
0.06

>  <JGI5>
0.02

>  <Diameter>
9

>  <Radius>
5

>  <TMWC10>
116.6

>  <TSRW10>
67.96

>  <MW>
330.01

>  <AMW>
10.31

>  <WPath>
903

>  <WPol>
30

>  <Zagreb1>
108

>  <Zagreb2>
124

>  <mZagreb2>
4.5

>  <yes>


>  <nAR-cont>
0.336376

>  <nHA-cont>
0.994529749

>  <MWHBN>
0.440378834

>  <MWHBN-cont>
0.320890917

>  <TPSA-cont>
0

>  <pka_cont>
0.97

>  <yes.1>


>  <BBB_SCORE>
2.297242124

>  <MMFF94 Energy>
-95.701

$$$$
Compound 3044
Actelion Java MolfileCreator 2.0

  0  0  0  0  0  0              0 V3000
M  V30 BEGIN CTAB
M  V30 COUNTS 33 35 0 0 0
M  V30 BEGIN ATOM
M  V30 1 Cl 1.7409 1.9068 -4.0656 0
M  V30 2 C 1.0546 1.0497 -2.7332 0
M  V30 3 C -0.3125 0.9706 -2.4706 0
M  V30 4 C 1.9499 0.3939 -1.8823 0
M  V30 5 S -1.4977 1.8023 -3.4797 0
M  V30 6 C -0.7773 0.2377 -1.3633 0
M  V30 7 C 1.4876 -0.3344 -0.7813 0
M  V30 8 O -1.118 3.1866 -3.6259 0
M  V30 9 O -2.8265 1.4249 -3.0515 0
M  V30 10 N -1.3126 1.0704 -4.9783 0
M  V30 11 C 0.1132 -0.4346 -0.5051 0
M  V30 12 C -0.3947 -1.2023 0.7053 0 CFG=1
M  V30 13 O -1.7497 -1.5598 0.561 0
M  V30 14 N 0.2984 -2.4394 0.9048 0
M  V30 15 C -0.1918 -0.4948 2.0143 0
M  V30 16 C 0.9128 -2.5233 2.1327 0
M  V30 17 C 0.5954 -1.2861 2.853 0
M  V30 18 C -0.6572 0.7331 2.4573 0
M  V30 19 O 1.5885 -3.4413 2.5482 0
M  V30 20 C 0.9576 -0.9005 4.1289 0
M  V30 21 C -0.3041 1.1479 3.7468 0
M  V30 22 C 0.4977 0.3394 4.5749 0
M  V30 23 H 3.0213 0.447 -2.0679 0
M  V30 24 H -1.8483 0.1889 -1.1604 0
M  V30 25 H 2.2187 -0.8223 -0.137 0
M  V30 26 H -0.9637 1.7501 -5.656 0
M  V30 27 H -2.1855 0.6196 -5.2546 0
M  V30 28 H -1.8674 -2.3083 1.1682 0
M  V30 29 H 0.3858 -3.1599 0.2039 0
M  V30 30 H -1.2808 1.3596 1.8258 0
M  V30 31 H 1.571 -1.5398 4.7552 0
M  V30 32 H -0.6555 2.1095 4.1175 0
M  V30 33 H 0.757 0.6847 5.5738 0
M  V30 END ATOM
M  V30 BEGIN BOND
M  V30 1 1 1 2
M  V30 2 2 2 3
M  V30 3 1 2 4
M  V30 4 1 3 5
M  V30 5 1 3 6
M  V30 6 2 4 7
M  V30 7 2 5 8
M  V30 8 2 5 9
M  V30 9 1 5 10
M  V30 10 2 6 11
M  V30 11 1 11 12
M  V30 12 1 12 13
M  V30 13 1 12 14
M  V30 14 1 12 15
M  V30 15 1 14 16
M  V30 16 2 15 17
M  V30 17 1 15 18
M  V30 18 2 16 19
M  V30 19 1 17 20
M  V30 20 2 18 21
M  V30 21 2 20 22
M  V30 22 1 7 11
M  V30 23 1 16 17
M  V30 24 1 21 22
M  V30 25 1 4 23
M  V30 26 1 6 24
M  V30 27 1 7 25
M  V30 28 1 10 26
M  V30 29 1 10 27
M  V30 30 1 13 28
M  V30 31 1 14 29
M  V30 32 1 18 30
M  V30 33 1 20 31
M  V30 34 1 21 32
M  V30 35 1 22 33
M  V30 END BOND
M  V30 BEGIN COLLECTION
M  V30 MDLV30/STEABS ATOMS=(1 12)
M  V30 END COLLECTION
M  V30 END CTAB
M  END
>  <Column 1>
3919

>  <level_0>
7629

>  <index>
7630

>  <Unnamed: 0>
7630

>  <NO.>
7643

>  <Name>
2-chloro-5-[(1s)-1-hydroxy-3-oxo-2h-isoindol-1-yl]benzenesulfonamide

>  <IUPAC_name>
2-chloro-5-[(1s)-1-hydroxy-3-oxo-2h-isoindol-1-yl]benzenesulfonamide

>  <SMILES>
NS(=O)(=O)c1cc([C@@]2(O)NC(=O)c3ccccc32)ccc1Cl

>  <CID>
688424

>  <logBB>


>  <BBB+/BBB->
BBB+

>  <Inchi>
InChI=1S/C14H11ClN2O4S/c15-11-6-5-8(7-12(11)22(16-20)21)14(19)10-4-2-1-3-9(10)13(18)17-14/h1-7-19H-(H-17-18)(H2-16-20-21)/t14-/m0/s1

>  <threshold>


>  <reference>
R27|

>  <group>
C

>  <Class>
1

>  <ABC>
17.52

>  <ABCGG>
15.05

>  <nAcid>
0

>  <nBase>
0

>  <nAromAtom>
12

>  <nAromBond>
12

>  <nAtom>
33

>  <nHeavyAtom>
22

>  <nSpiro>
0

>  <nBridgehead>
0

>  <nHetero>
8

>  <nN>
2

>  <nO>
4

>  <nF>
0

>  <BalabanJ>
1.8

>  <BertzCT>
897.47

>  <nBonds>
35

>  <nBondsO>
24

>  <nBondsS>
20

>  <nBondsD>
3

>  <nBondsT>
0

>  <nBondsA>
12

>  <nBondsM>
15

>  <nBondsKS>
26

>  <nBondsKD>
9

>  <RNCG>
0.18

>  <RPCG>
0.13

>  <FCSP3>
0.07

>  <SZ>
29

>  <Sm>
28.2

>  <Sv>
23.63

>  <Sse>
34.37

>  <Sp>
24.67

>  <Si>
36.77

>  <MZ>
0.88

>  <Mm>
0.85

>  <Mv>
0.72

>  <Mse>
1.04

>  <Mp>
0.75

>  <Mi>
1.11

>  <NsCH3>
0

>  <NdCH2>
0

>  <NssCH2>
0

>  <NtCH>
0

>  <NdsCH>
0

>  <NaaCH>
7

>  <NsssCH>
0

>  <NddC>
0

>  <NtsC>
0

>  <NdssC>
1

>  <NaasC>
5

>  <NaaaC>
0

>  <NssssC>
1

>  <NsNH3>
0

>  <NsNH2>
1

>  <NssNH2>
0

>  <NdNH>
0

>  <NssNH>
1

>  <NaaNH>
0

>  <NtN>
0

>  <NsssNH>
0

>  <NdsN>
0

>  <NaaN>
0

>  <NsssN>
0

>  <NddsN>
0

>  <NaasN>
0

>  <NssssN>
0

>  <NsOH>
1

>  <NdO>
3

>  <NssO>
0

>  <NaaO>
0

>  <NsF>
0

>  <NsSiH3>
0

>  <NssSiH2>
0

>  <NsssSiH>
0

>  <NssssSi>
0

>  <NsPH2>
0

>  <NssPH>
0

>  <NsssP>
0

>  <NdsssP>
0

>  <NsssssP>
0

>  <NsSH>
0

>  <NdS>
0

>  <NssS>
0

>  <NaaS>
0

>  <NdssS>
0

>  <NddssS>
1

>  <NsCl>
1

>  <NsBr>
0

>  <NsI>
0

>  <fragCpx>
114.08

>  <fMF>
0.45

>  <nHBAcc>
4

>  <nHBDon>
3

>  <Kier1>
16.84

>  <Kier2>
5.82

>  <Lipinski>
1

>  <GhoseFilter>
1

>  <FilterItLogS>
-3.91

>  <VMcGowan>
217.47

>  <LabuteASA>
131.12

>  <PEOE_VSA1>
10.42

>  <PEOE_VSA2>
4.79

>  <PEOE_VSA3>
13.56

>  <PEOE_VSA4>
0

>  <PEOE_VSA5>
0

>  <PEOE_VSA6>
35.87

>  <PEOE_VSA7>
18.2

>  <PEOE_VSA8>
16.69

>  <PEOE_VSA9>
5.02

>  <PEOE_VSA10>
4.9

>  <PEOE_VSA11>
5.72

>  <PEOE_VSA12>
10.02

>  <PEOE_VSA13>
5.91

>  <SMR_VSA1>
18.32

>  <SMR_VSA2>
0

>  <SMR_VSA3>
5.32

>  <SMR_VSA4>
5.14

>  <SMR_VSA5>
10.62

>  <SMR_VSA6>
0

>  <SMR_VSA7>
64.18

>  <SMR_VSA8>
0

>  <SMR_VSA9>
0

>  <SlogP_VSA1>
10.46

>  <SlogP_VSA2>
19.43

>  <SlogP_VSA3>
15.75

>  <SlogP_VSA4>
0

>  <SlogP_VSA5>
21.48

>  <SlogP_VSA6>
47.36

>  <SlogP_VSA7>
5.02

>  <SlogP_VSA8>
0

>  <SlogP_VSA9>
0

>  <SlogP_VSA10>
0

>  <SlogP_VSA11>
0

>  <EState_VSA1>
21.66

>  <EState_VSA2>
15.48

>  <EState_VSA3>
11.13

>  <EState_VSA4>
6.07

>  <EState_VSA5>
12.13

>  <EState_VSA6>
24.27

>  <EState_VSA7>
0

>  <EState_VSA8>
5.32

>  <EState_VSA9>
16.74

>  <EState_VSA10>
18.32

>  <VSA_EState1>
23.12

>  <VSA_EState2>
11.64

>  <VSA_EState3>
18.35

>  <VSA_EState4>
-1.03

>  <VSA_EState5>
-0.45

>  <VSA_EState6>
10.38

>  <VSA_EState7>
0

>  <VSA_EState8>
0

>  <VSA_EState9>
-4.06

>  <apol>
41.2

>  <bpol>
19.07

>  <nRing>
3

>  <nHRing>
1

>  <naRing>
2

>  <naHRing>
0

>  <nARing 2>
1

>  <nAHRing 2>
1

>  <nFRing>
1

>  <nFHRing>
1

>  <nFaRing>
0

>  <nFaHRing>
0

>  <nFARing 2>
1

>  <nFAHRing 2>
1

>  <nRot>
2

>  <SLogP>
0.92

>  <SMR>
79.73

>  <TopoPSA(NO)>
109.49

>  <TopoPSA>
117.87

>  <JGI1>
0.29

>  <JGI2>
0.12

>  <JGI3>
0.08

>  <JGI4>
0.04

>  <JGI5>
0.04

>  <Diameter>
9

>  <Radius>
5

>  <TMWC10>
122.66

>  <TSRW10>
71.62

>  <MW>
338.01

>  <AMW>
10.24

>  <WPath>
952

>  <WPol>
40

>  <Zagreb1>
124

>  <Zagreb2>
151

>  <mZagreb2>
4.54

>  <yes>


>  <nAR-cont>
0.816016

>  <nHA-cont>
0.983774276

>  <MWHBN>
0.380744173

>  <MWHBN-cont>
0.551884491

>  <TPSA-cont>
0.177194207

>  <pka_cont>
0.97

>  <yes.1>


>  <BBB_SCORE>
3.467005426

>  <MMFF94 Energy>
-105.54

$$$$
Compound 3045
Actelion Java MolfileCreator 2.0

  0  0  0  0  0  0              0 V3000
M  V30 BEGIN CTAB
M  V30 COUNTS 40 42 0 0 0
M  V30 BEGIN ATOM
M  V30 1 Cl 2.9152 -0.3328 4.25 0
M  V30 2 C 2.6389 -0.1258 2.5576 0
M  V30 3 C 3.5199 -0.5535 1.5642 0
M  V30 4 C 1.4412 0.5121 2.1913 0
M  V30 5 S 5.0499 -1.3408 1.9525 0
M  V30 6 C 3.2066 -0.3353 0.2177 0
M  V30 7 C 1.09 0.717 0.8495 0
M  V30 8 O 5.7738 -0.5382 2.9075 0
M  V30 9 O 5.6606 -1.7988 0.7251 0
M  V30 10 N 4.5705 -2.7447 2.7361 0
M  V30 11 C 2.0008 0.2934 -0.1148 0
M  V30 12 N -0.0722 1.4021 0.5543 0
M  V30 13 S 1.6408 0.59 -1.8076 0
M  V30 14 C -0.6104 1.5283 -0.7832 0 CFG=1
M  V30 15 O 1.0827 -0.623 -2.359 0
M  V30 16 O 2.7912 1.2395 -2.3955 0
M  V30 17 N 0.4493 1.7512 -1.7401 0
M  V30 18 C -1.5558 0.3367 -1.1313 0
M  V30 19 N -2.7482 0.2686 -0.2378 0
M  V30 20 C -3.4122 -1.0431 -0.3465 0
M  V30 21 C -3.7979 1.2176 -0.6493 0
M  V30 22 C -4.2997 -0.9603 -1.5771 0
M  V30 23 C -4.6132 0.5203 -1.731 0
M  V30 24 H 0.7668 0.8567 2.9745 0
M  V30 25 H 3.8897 -0.6427 -0.5736 0
M  V30 26 H 4.8853 -2.7251 3.7077 0
M  V30 27 H 4.8935 -3.5606 2.2146 0
M  V30 28 H -0.7951 1.4203 1.2714 0
M  V30 29 H -1.2114 2.4453 -0.7943 0
M  V30 30 H 0.8539 2.684 -1.7093 0
M  V30 31 H -0.9927 -0.5936 -0.9958 0
M  V30 32 H -1.8429 0.3843 -2.1892 0
M  V30 33 H -2.7159 -1.8878 -0.3848 0
M  V30 34 H -4.0344 -1.1907 0.5454 0
M  V30 35 H -4.4405 1.4155 0.218 0
M  V30 36 H -3.4185 2.1888 -0.9815 0
M  V30 37 H -5.2084 -1.5599 -1.4636 0
M  V30 38 H -3.7668 -1.3221 -2.4641 0
M  V30 39 H -5.6831 0.719 -1.6094 0
M  V30 40 H -4.3187 0.8637 -2.729 0
M  V30 END ATOM
M  V30 BEGIN BOND
M  V30 1 1 1 2
M  V30 2 2 2 3
M  V30 3 1 2 4
M  V30 4 1 3 5
M  V30 5 1 3 6
M  V30 6 2 4 7
M  V30 7 2 5 8
M  V30 8 2 5 9
M  V30 9 1 5 10
M  V30 10 2 6 11
M  V30 11 1 7 12
M  V30 12 1 11 13
M  V30 13 1 12 14
M  V30 14 2 13 15
M  V30 15 2 13 16
M  V30 16 1 13 17
M  V30 17 1 14 18
M  V30 18 1 18 19
M  V30 19 1 19 20
M  V30 20 1 19 21
M  V30 21 1 20 22
M  V30 22 1 21 23
M  V30 23 1 7 11
M  V30 24 1 14 17
M  V30 25 1 22 23
M  V30 26 1 4 24
M  V30 27 1 6 25
M  V30 28 1 10 26
M  V30 29 1 10 27
M  V30 30 1 12 28
M  V30 31 1 14 29
M  V30 32 1 17 30
M  V30 33 1 18 31
M  V30 34 1 18 32
M  V30 35 1 20 33
M  V30 36 1 20 34
M  V30 37 1 21 35
M  V30 38 1 21 36
M  V30 39 1 22 37
M  V30 40 1 22 38
M  V30 41 1 23 39
M  V30 42 1 23 40
M  V30 END BOND
M  V30 BEGIN COLLECTION
M  V30 MDLV30/STEABS ATOMS=(1 14)
M  V30 END COLLECTION
M  V30 END CTAB
M  END
>  <Column 1>
3920

>  <level_0>
7631

>  <index>
7632

>  <Unnamed: 0>
7632

>  <NO.>
7645

>  <Name>


>  <IUPAC_name>


>  <SMILES>
NS(=O)(=O)c1cc2c(cc1Cl)N[C@H](CN1CCCC1)NS2(=O)=O

>  <CID>


>  <logBB>


>  <BBB+/BBB->
BBB+

>  <Inchi>
InChI=1S/C12H17ClN4O4S2/c13-8-5-9-11(6-10(8)22(14-18)19)23(20-21)16-12(15-9)7-17-3-1-2-4-17/h5-6-12-15-16H-1-4-7H2-(H2-14-18-19)/t12-/m0/s1

>  <threshold>


>  <reference>
R27|

>  <group>
C

>  <Class>
-1

>  <ABC>
18.38

>  <ABCGG>
15.34

>  <nAcid>
0

>  <nBase>
1

>  <nAromAtom>
6

>  <nAromBond>
6

>  <nAtom>
40

>  <nHeavyAtom>
23

>  <nSpiro>
0

>  <nBridgehead>
0

>  <nHetero>
11

>  <nN>
4

>  <nO>
4

>  <nF>
0

>  <BalabanJ>
1.69

>  <BertzCT>
834.86

>  <nBonds>
42

>  <nBondsO>
25

>  <nBondsS>
32

>  <nBondsD>
4

>  <nBondsT>
0

>  <nBondsA>
6

>  <nBondsM>
10

>  <nBondsKS>
35

>  <nBondsKD>
7

>  <RNCG>
0.17

>  <RPCG>
0.12

>  <FCSP3>
0.5

>  <SZ>
33

>  <Sm>
31.71

>  <Sv>
25.96

>  <Sse>
41.44

>  <Sp>
28.12

>  <Si>
45.52

>  <MZ>
0.83

>  <Mm>
0.79

>  <Mv>
0.65

>  <Mse>
1.04

>  <Mp>
0.7

>  <Mi>
1.14

>  <NsCH3>
0

>  <NdCH2>
0

>  <NssCH2>
5

>  <NtCH>
0

>  <NdsCH>
0

>  <NaaCH>
2

>  <NsssCH>
1

>  <NddC>
0

>  <NtsC>
0

>  <NdssC>
0

>  <NaasC>
4

>  <NaaaC>
0

>  <NssssC>
0

>  <NsNH3>
0

>  <NsNH2>
1

>  <NssNH2>
0

>  <NdNH>
0

>  <NssNH>
2

>  <NaaNH>
0

>  <NtN>
0

>  <NsssNH>
0

>  <NdsN>
0

>  <NaaN>
0

>  <NsssN>
1

>  <NddsN>
0

>  <NaasN>
0

>  <NssssN>
0

>  <NsOH>
0

>  <NdO>
4

>  <NssO>
0

>  <NaaO>
0

>  <NsF>
0

>  <NsSiH3>
0

>  <NssSiH2>
0

>  <NsssSiH>
0

>  <NssssSi>
0

>  <NsPH2>
0

>  <NssPH>
0

>  <NsssP>
0

>  <NdsssP>
0

>  <NsssssP>
0

>  <NsSH>
0

>  <NdS>
0

>  <NssS>
0

>  <NaaS>
0

>  <NdssS>
0

>  <NddssS>
2

>  <NsCl>
1

>  <NsBr>
0

>  <NsI>
0

>  <fragCpx>
119.11

>  <fMF>
0.4

>  <nHBAcc>
6

>  <nHBDon>
3

>  <Kier1>
17.81

>  <Kier2>
6.38

>  <Lipinski>
1

>  <GhoseFilter>
1

>  <FilterItLogS>
-3.14

>  <VMcGowan>
242.8

>  <LabuteASA>
139.63

>  <PEOE_VSA1>
5.32

>  <PEOE_VSA2>
4.9

>  <PEOE_VSA3>
21.97

>  <PEOE_VSA4>
4.72

>  <PEOE_VSA5>
0

>  <PEOE_VSA6>
11.6

>  <PEOE_VSA7>
38.06

>  <PEOE_VSA8>
6.54

>  <PEOE_VSA9>
10.71

>  <PEOE_VSA10>
15.96

>  <PEOE_VSA11>
0

>  <PEOE_VSA12>
20.05

>  <PEOE_VSA13>
0

>  <SMR_VSA1>
16.84

>  <SMR_VSA2>
0

>  <SMR_VSA3>
9.62

>  <SMR_VSA4>
5.14

>  <SMR_VSA5>
28.8

>  <SMR_VSA6>
24.95

>  <SMR_VSA7>
17.16

>  <SMR_VSA8>
0

>  <SMR_VSA9>
0

>  <SlogP_VSA1>
15.18

>  <SlogP_VSA2>
47.54

>  <SlogP_VSA3>
20.05

>  <SlogP_VSA4>
0

>  <SlogP_VSA5>
12.84

>  <SlogP_VSA6>
21.92

>  <SlogP_VSA7>
5.02

>  <SlogP_VSA8>
0

>  <SlogP_VSA9>
0

>  <SlogP_VSA10>
5.69

>  <SlogP_VSA11>
0

>  <EState_VSA1>
31.11

>  <EState_VSA2>
15.61

>  <EState_VSA3>
6.54

>  <EState_VSA4>
32

>  <EState_VSA5>
6.07

>  <EState_VSA6>
0

>  <EState_VSA7>
0

>  <EState_VSA8>
14.94

>  <EState_VSA9>
16.74

>  <EState_VSA10>
16.84

>  <VSA_EState1>
50.31

>  <VSA_EState2>
1.57

>  <VSA_EState3>
7.99

>  <VSA_EState4>
0.27

>  <VSA_EState5>
0

>  <VSA_EState6>
2.26

>  <VSA_EState7>
1.7

>  <VSA_EState8>
2.38

>  <VSA_EState9>
-7.96

>  <apol>
46.96

>  <bpol>
33.16

>  <nRing>
3

>  <nHRing>
2

>  <naRing>
1

>  <naHRing>
0

>  <nARing 2>
2

>  <nAHRing 2>
2

>  <nFRing>
1

>  <nFHRing>
1

>  <nFaRing>
0

>  <nFaHRing>
0

>  <nFARing 2>
1

>  <nFAHRing 2>
1

>  <nRot>
3

>  <SLogP>
0.11

>  <SMR>
86.23

>  <TopoPSA(NO)>
121.6

>  <TopoPSA>
138.36

>  <JGI1>
0.32

>  <JGI2>
0.09

>  <JGI3>
0.08

>  <JGI4>
0.05

>  <JGI5>
0.05

>  <Diameter>
11

>  <Radius>
6

>  <TMWC10>
124.09

>  <TSRW10>
71.13

>  <MW>
380.04

>  <AMW>
9.5

>  <WPath>
1153

>  <WPol>
37

>  <Zagreb1>
128

>  <Zagreb2>
151

>  <mZagreb2>
4.68

>  <yes>


>  <nAR-cont>
1

>  <nHA-cont>
0.967789328

>  <MWHBN>
0.461665961

>  <MWHBN-cont>
0

>  <TPSA-cont>
0

>  <pka_cont>
0.97

>  <yes.1>


>  <BBB_SCORE>
2.452789328

>  <MMFF94 Energy>
-174.84

$$$$
Compound 3046
Actelion Java MolfileCreator 2.0

  0  0  0  0  0  0              0 V3000
M  V30 BEGIN CTAB
M  V30 COUNTS 26 26 0 0 0
M  V30 BEGIN ATOM
M  V30 1 Cl 4.5413 -2.5475 -2.2288 0
M  V30 2 C 3.0919 -1.7613 -1.7378 0
M  V30 3 C 1.9145 -1.9721 -2.4485 0
M  V30 4 C 3.1043 -0.9115 -0.6352 0
M  V30 5 C 0.7392 -1.3318 -2.0473 0
M  V30 6 C 1.9276 -0.2702 -0.2351 0
M  V30 7 C 0.7231 -0.4823 -0.9261 0
M  V30 8 C -0.578 0.2075 -0.5413 0 CFG=2
M  V30 9 N -0.6835 1.47 -1.272 0
M  V30 10 C -0.7506 0.4058 0.9779 0
M  V30 11 C -2.1756 0.802 1.372 0
M  V30 12 C -2.3234 0.8898 2.8662 0
M  V30 13 O -1.4426 0.8101 3.704 0
M  V30 14 O -3.6034 1.0968 3.2314 0
M  V30 15 H 1.9031 -2.6246 -3.3168 0
M  V30 16 H 4.0251 -0.7386 -0.0847 0
M  V30 17 H -0.1709 -1.4896 -2.623 0
M  V30 18 H 1.971 0.3986 0.6204 0
M  V30 19 H -1.4 -0.4388 -0.8759 0
M  V30 20 H 0.0847 2.0824 -1.0021 0
M  V30 21 H -1.5435 1.9562 -1.0352 0
M  V30 22 H -0.4903 -0.5271 1.4963 0
M  V30 23 H -0.0523 1.1666 1.3514 0
M  V30 24 H -2.437 1.779 0.9539 0
M  V30 25 H -2.8824 0.0511 1.0022 0
M  V30 26 H -3.5704 1.1398 4.2106 0
M  V30 END ATOM
M  V30 BEGIN BOND
M  V30 1 1 1 2
M  V30 2 2 2 3
M  V30 3 1 2 4
M  V30 4 1 3 5
M  V30 5 2 4 6
M  V30 6 2 5 7
M  V30 7 1 7 8
M  V30 8 1 8 9
M  V30 9 1 8 10
M  V30 10 1 10 11
M  V30 11 1 11 12
M  V30 12 2 12 13
M  V30 13 1 12 14
M  V30 14 1 6 7
M  V30 15 1 3 15
M  V30 16 1 4 16
M  V30 17 1 5 17
M  V30 18 1 6 18
M  V30 19 1 8 19
M  V30 20 1 9 20
M  V30 21 1 9 21
M  V30 22 1 10 22
M  V30 23 1 10 23
M  V30 24 1 11 24
M  V30 25 1 11 25
M  V30 26 1 14 26
M  V30 END BOND
M  V30 BEGIN COLLECTION
M  V30 MDLV30/STEABS ATOMS=(1 8)
M  V30 END COLLECTION
M  V30 END CTAB
M  END
>  <Column 1>
3921

>  <level_0>
7635

>  <index>
7636

>  <Unnamed: 0>
7636

>  <NO.>
7649

>  <Name>
ctk7d0972

>  <IUPAC_name>
(4r)-4-amino-4-(4-chlorophenyl)butanoic acid

>  <SMILES>
N[C@H](CCC(=O)O)c1ccc(Cl)cc1

>  <CID>
28744425

>  <logBB>


>  <BBB+/BBB->
BBB+

>  <Inchi>
InChI=1S/C10H12ClNO2/c11-8-3-1-7(2-4-8)9(12)5-6-10(13)14/h1-4-9H-5-6-12H2-(H-13-14)/t9-/m1/s1

>  <threshold>


>  <reference>
R27|

>  <group>
C

>  <Class>
1

>  <ABC>
10.3

>  <ABCGG>
9.29

>  <nAcid>
1

>  <nBase>
1

>  <nAromAtom>
6

>  <nAromBond>
6

>  <nAtom>
26

>  <nHeavyAtom>
14

>  <nSpiro>
0

>  <nBridgehead>
0

>  <nHetero>
4

>  <nN>
1

>  <nO>
2

>  <nF>
0

>  <BalabanJ>
2.2

>  <BertzCT>
310.4

>  <nBonds>
26

>  <nBondsO>
14

>  <nBondsS>
19

>  <nBondsD>
1

>  <nBondsT>
0

>  <nBondsA>
6

>  <nBondsM>
7

>  <nBondsKS>
22

>  <nBondsKD>
4

>  <RNCG>
0.35

>  <RPCG>
0.22

>  <FCSP3>
0.3

>  <SZ>
18.67

>  <Sm>
17.79

>  <Sv>
16.53

>  <Sse>
26.42

>  <Sp>
17.72

>  <Si>
29.35

>  <MZ>
0.72

>  <Mm>
0.68

>  <Mv>
0.64

>  <Mse>
1.02

>  <Mp>
0.68

>  <Mi>
1.13

>  <NsCH3>
0

>  <NdCH2>
0

>  <NssCH2>
2

>  <NtCH>
0

>  <NdsCH>
0

>  <NaaCH>
4

>  <NsssCH>
1

>  <NddC>
0

>  <NtsC>
0

>  <NdssC>
1

>  <NaasC>
2

>  <NaaaC>
0

>  <NssssC>
0

>  <NsNH3>
0

>  <NsNH2>
1

>  <NssNH2>
0

>  <NdNH>
0

>  <NssNH>
0

>  <NaaNH>
0

>  <NtN>
0

>  <NsssNH>
0

>  <NdsN>
0

>  <NaaN>
0

>  <NsssN>
0

>  <NddsN>
0

>  <NaasN>
0

>  <NssssN>
0

>  <NsOH>
1

>  <NdO>
1

>  <NssO>
0

>  <NaaO>
0

>  <NsF>
0

>  <NsSiH3>
0

>  <NssSiH2>
0

>  <NsssSiH>
0

>  <NssssSi>
0

>  <NsPH2>
0

>  <NssPH>
0

>  <NsssP>
0

>  <NdsssP>
0

>  <NsssssP>
0

>  <NsSH>
0

>  <NdS>
0

>  <NssS>
0

>  <NaaS>
0

>  <NdssS>
0

>  <NddssS>
0

>  <NsCl>
1

>  <NsBr>
0

>  <NsI>
0

>  <fragCpx>
14.04

>  <fMF>
0.23

>  <nHBAcc>
2

>  <nHBDon>
2

>  <Kier1>
12.07

>  <Kier2>
5.78

>  <Lipinski>
1

>  <GhoseFilter>
1

>  <FilterItLogS>
-2.29

>  <VMcGowan>
157.66

>  <LabuteASA>
87.49

>  <PEOE_VSA1>
10.84

>  <PEOE_VSA2>
4.79

>  <PEOE_VSA3>
0

>  <PEOE_VSA4>
0

>  <PEOE_VSA5>
0

>  <PEOE_VSA6>
23.73

>  <PEOE_VSA7>
24.12

>  <PEOE_VSA8>
17.49

>  <PEOE_VSA9>
0

>  <PEOE_VSA10>
0

>  <PEOE_VSA11>
0

>  <PEOE_VSA12>
0

>  <PEOE_VSA13>
0

>  <SMR_VSA1>
9.9

>  <SMR_VSA2>
0

>  <SMR_VSA3>
0

>  <SMR_VSA4>
5.73

>  <SMR_VSA5>
18.88

>  <SMR_VSA6>
0

>  <SMR_VSA7>
34.85

>  <SMR_VSA8>
0

>  <SMR_VSA9>
0

>  <SlogP_VSA1>
5.73

>  <SlogP_VSA2>
11.08

>  <SlogP_VSA3>
4.79

>  <SlogP_VSA4>
0

>  <SlogP_VSA5>
24.45

>  <SlogP_VSA6>
24.27

>  <SlogP_VSA7>
5.02

>  <SlogP_VSA8>
0

>  <SlogP_VSA9>
0

>  <SlogP_VSA10>
0

>  <SlogP_VSA11>
0

>  <EState_VSA1>
5.97

>  <EState_VSA2>
12.46

>  <EState_VSA3>
11.44

>  <EState_VSA4>
5.56

>  <EState_VSA5>
0

>  <EState_VSA6>
12.13

>  <EState_VSA7>
12.13

>  <EState_VSA8>
0

>  <EState_VSA9>
22.44

>  <EState_VSA10>
4.79

>  <VSA_EState1>
0

>  <VSA_EState2>
10.31

>  <VSA_EState3>
9.13

>  <VSA_EState4>
6.7

>  <VSA_EState5>
-0.82

>  <VSA_EState6>
6.89

>  <VSA_EState7>
0.53

>  <VSA_EState8>
0

>  <VSA_EState9>
0

>  <apol>
29.59

>  <bpol>
12.85

>  <nRing>
1

>  <nHRing>
0

>  <naRing>
1

>  <naHRing>
0

>  <nARing 2>
0

>  <nAHRing 2>
0

>  <nFRing>
0

>  <nFHRing>
0

>  <nFaRing>
0

>  <nFaHRing>
0

>  <nFARing 2>
0

>  <nFAHRing 2>
0

>  <nRot>
4

>  <SLogP>
2.2

>  <SMR>
55.25

>  <TopoPSA(NO)>
63.32

>  <TopoPSA>
63.32

>  <JGI1>
0.25

>  <JGI2>
0.1

>  <JGI3>
0.04

>  <JGI4>
0.05

>  <JGI5>
0.03

>  <Diameter>
9

>  <Radius>
5

>  <TMWC10>
94.21

>  <TSRW10>
44.64

>  <MW>
213.06

>  <AMW>
8.19

>  <WPath>
339

>  <WPol>
16

>  <Zagreb1>
64

>  <Zagreb2>
69

>  <mZagreb2>
3.19

>  <yes>


>  <nAR-cont>
0.336376

>  <nHA-cont>
0.887625254

>  <MWHBN>
0.27403689

>  <MWHBN-cont>
0.910726323

>  <TPSA-cont>
0.557987081

>  <pka_cont>
0.97

>  <yes.1>


>  <BBB_SCORE>
4.1910649

>  <MMFF94 Energy>
-16.83

$$$$
Compound 3047
Actelion Java MolfileCreator 2.0

  0  0  0  0  0  0              0 V3000
M  V30 BEGIN CTAB
M  V30 COUNTS 28 29 0 0 0
M  V30 BEGIN ATOM
M  V30 1 S -0.6493 0.0811 -1.8676 0
M  V30 2 O -0.0974 -0.7927 -2.8868 0
M  V30 3 O -1.6041 1.1166 -2.2208 0
M  V30 4 C -1.4119 -0.9739 -0.6556 0
M  V30 5 C 0.7012 0.896 -1.049 0
M  V30 6 C -0.6902 -2.0602 -0.1506 0
M  V30 7 C -2.719 -0.7185 -0.2275 0
M  V30 8 C 0.4263 1.8613 -0.0785 0
M  V30 9 C 2.0179 0.5773 -1.382 0
M  V30 10 C -1.2811 -2.8873 0.804 0
M  V30 11 C -3.3046 -1.5521 0.7272 0
M  V30 12 C 1.4852 2.5004 0.5713 0
M  V30 13 C 3.0664 1.2249 -0.7233 0
M  V30 14 C -2.5791 -2.6275 1.2354 0
M  V30 15 C 2.8115 2.199 0.2472 0
M  V30 16 O -3.1136 -3.4651 2.1687 0
M  V30 17 N 3.8539 2.8071 0.9213 0
M  V30 18 H 0.3182 -2.2732 -0.4966 0
M  V30 19 H -3.286 0.1176 -0.6311 0
M  V30 20 H -0.5977 2.1246 0.1751 0
M  V30 21 H 2.2411 -0.1662 -2.1435 0
M  V30 22 H -0.7356 -3.7364 1.2075 0
M  V30 23 H -4.3193 -1.3513 1.0577 0
M  V30 24 H 1.2658 3.2445 1.3331 0
M  V30 25 H 4.0906 0.9649 -0.9792 0
M  V30 26 H -4.0262 -3.1881 2.3536 0
M  V30 27 H 4.8101 2.6454 0.6357 0
M  V30 28 H 3.6734 3.5636 1.5669 0
M  V30 END ATOM
M  V30 BEGIN BOND
M  V30 1 2 1 2
M  V30 2 2 1 3
M  V30 3 1 1 4
M  V30 4 1 1 5
M  V30 5 2 4 6
M  V30 6 1 4 7
M  V30 7 2 5 8
M  V30 8 1 5 9
M  V30 9 1 6 10
M  V30 10 2 7 11
M  V30 11 1 8 12
M  V30 12 2 9 13
M  V30 13 2 10 14
M  V30 14 2 12 15
M  V30 15 1 14 16
M  V30 16 1 15 17
M  V30 17 1 11 14
M  V30 18 1 13 15
M  V30 19 1 6 18
M  V30 20 1 7 19
M  V30 21 1 8 20
M  V30 22 1 9 21
M  V30 23 1 10 22
M  V30 24 1 11 23
M  V30 25 1 12 24
M  V30 26 1 13 25
M  V30 27 1 16 26
M  V30 28 1 17 27
M  V30 29 1 17 28
M  V30 END BOND
M  V30 END CTAB
M  END
>  <Column 1>
3922

>  <level_0>
7636

>  <index>
7637

>  <Unnamed: 0>
7637

>  <NO.>
7650

>  <Name>
25963-47-7

>  <IUPAC_name>
4-(4-aminophenyl)sulfonylphenol

>  <SMILES>
Nc1ccc(S(=O)(=O)c2ccc(O)cc2)cc1

>  <CID>
117686

>  <logBB>


>  <BBB+/BBB->
BBB+

>  <Inchi>
InChI=1S/C12H11NO3S/c13-9-1-5-11(6-2-9)17(15-16)12-7-3-10(14)4-8-12/h1-8-14H-13H2

>  <threshold>


>  <reference>
R27|

>  <group>
C

>  <Class>
1

>  <ABC>
13.14

>  <ABCGG>
11.24

>  <nAcid>
0

>  <nBase>
0

>  <nAromAtom>
12

>  <nAromBond>
12

>  <nAtom>
28

>  <nHeavyAtom>
17

>  <nSpiro>
0

>  <nBridgehead>
0

>  <nHetero>
5

>  <nN>
1

>  <nO>
3

>  <nF>
0

>  <BalabanJ>
1.93

>  <BertzCT>
564.31

>  <nBonds>
29

>  <nBondsO>
18

>  <nBondsS>
15

>  <nBondsD>
2

>  <nBondsT>
0

>  <nBondsA>
12

>  <nBondsM>
14

>  <nBondsKS>
21

>  <nBondsKD>
8

>  <RNCG>
0.31

>  <RPCG>
0.18

>  <FCSP3>
0

>  <SZ>
21.67

>  <Sm>
20.75

>  <Sv>
19.07

>  <Sse>
28.62

>  <Sp>
20.23

>  <Si>
31.12

>  <MZ>
0.77

>  <Mm>
0.74

>  <Mv>
0.68

>  <Mse>
1.02

>  <Mp>
0.72

>  <Mi>
1.11

>  <NsCH3>
0

>  <NdCH2>
0

>  <NssCH2>
0

>  <NtCH>
0

>  <NdsCH>
0

>  <NaaCH>
8

>  <NsssCH>
0

>  <NddC>
0

>  <NtsC>
0

>  <NdssC>
0

>  <NaasC>
4

>  <NaaaC>
0

>  <NssssC>
0

>  <NsNH3>
0

>  <NsNH2>
1

>  <NssNH2>
0

>  <NdNH>
0

>  <NssNH>
0

>  <NaaNH>
0

>  <NtN>
0

>  <NsssNH>
0

>  <NdsN>
0

>  <NaaN>
0

>  <NsssN>
0

>  <NddsN>
0

>  <NaasN>
0

>  <NssssN>
0

>  <NsOH>
1

>  <NdO>
2

>  <NssO>
0

>  <NaaO>
0

>  <NsF>
0

>  <NsSiH3>
0

>  <NssSiH2>
0

>  <NsssSiH>
0

>  <NssssSi>
0

>  <NsPH2>
0

>  <NssPH>
0

>  <NsssP>
0

>  <NdsssP>
0

>  <NsssssP>
0

>  <NsSH>
0

>  <NdS>
0

>  <NssS>
0

>  <NaaS>
0

>  <NdssS>
0

>  <NddssS>
1

>  <NsCl>
0

>  <NsBr>
0

>  <NsI>
0

>  <fragCpx>
52.05

>  <fMF>
0.46

>  <nHBAcc>
4

>  <nHBDon>
2

>  <Kier1>
13.43

>  <Kier2>
5.33

>  <Lipinski>
1

>  <GhoseFilter>
1

>  <FilterItLogS>
-2.7

>  <VMcGowan>
176.36

>  <LabuteASA>
99.25

>  <PEOE_VSA1>
10.84

>  <PEOE_VSA2>
0

>  <PEOE_VSA3>
8.42

>  <PEOE_VSA4>
0

>  <PEOE_VSA5>
0

>  <PEOE_VSA6>
0

>  <PEOE_VSA7>
48.53

>  <PEOE_VSA8>
5.69

>  <PEOE_VSA9>
9.79

>  <PEOE_VSA10>
5.75

>  <PEOE_VSA11>
0

>  <PEOE_VSA12>
9.84

>  <PEOE_VSA13>
0

>  <SMR_VSA1>
13.52

>  <SMR_VSA2>
0

>  <SMR_VSA3>
0

>  <SMR_VSA4>
0

>  <SMR_VSA5>
9.79

>  <SMR_VSA6>
5.73

>  <SMR_VSA7>
48.53

>  <SMR_VSA8>
0

>  <SMR_VSA9>
5.75

>  <SlogP_VSA1>
5.73

>  <SlogP_VSA2>
13.52

>  <SlogP_VSA3>
9.84

>  <SlogP_VSA4>
0

>  <SlogP_VSA5>
0

>  <SlogP_VSA6>
58.32

>  <SlogP_VSA7>
0

>  <SlogP_VSA8>
0

>  <SlogP_VSA9>
0

>  <SlogP_VSA10>
5.69

>  <SlogP_VSA11>
5.75

>  <EState_VSA1>
9.84

>  <EState_VSA2>
15.54

>  <EState_VSA3>
5.69

>  <EState_VSA4>
0

>  <EState_VSA5>
48.53

>  <EState_VSA6>
0

>  <EState_VSA7>
0

>  <EState_VSA8>
0

>  <EState_VSA9>
10.84

>  <EState_VSA10>
8.42

>  <VSA_EState1>
24.27

>  <VSA_EState2>
0.32

>  <VSA_EState3>
9.12

>  <VSA_EState4>
6.01

>  <VSA_EState5>
0.03

>  <VSA_EState6>
11.38

>  <VSA_EState7>
0

>  <VSA_EState8>
0

>  <VSA_EState9>
-3.54

>  <apol>
33.78

>  <bpol>
17.12

>  <nRing>
2

>  <nHRing>
0

>  <naRing>
2

>  <naHRing>
0

>  <nARing 2>
0

>  <nAHRing 2>
0

>  <nFRing>
0

>  <nFHRing>
0

>  <nFaRing>
0

>  <nFaHRing>
0

>  <nFARing 2>
0

>  <nFAHRing 2>
0

>  <nRot>
2

>  <SLogP>
1.81

>  <SMR>
64.41

>  <TopoPSA(NO)>
80.39

>  <TopoPSA>
88.77

>  <JGI1>
0.28

>  <JGI2>
0.12

>  <JGI3>
0.06

>  <JGI4>
0.04

>  <JGI5>
0.04

>  <Diameter>
10

>  <Radius>
5

>  <TMWC10>
106.55

>  <TSRW10>
49.97

>  <MW>
249.05

>  <AMW>
8.89

>  <WPath>
516

>  <WPol>
26

>  <Zagreb1>
88

>  <Zagreb2>
102

>  <mZagreb2>
3.67

>  <yes>


>  <nAR-cont>
0.336376

>  <nHA-cont>
0.976740822

>  <MWHBN>
0.38019638

>  <MWHBN-cont>
0.554034637

>  <TPSA-cont>
0.380330277

>  <pka_cont>
0.97

>  <yes.1>


>  <BBB_SCORE>
3.389829332

>  <MMFF94 Energy>
65.851

$$$$
Compound 3048
Actelion Java MolfileCreator 2.0

  0  0  0  0  0  0              0 V3000
M  V30 BEGIN CTAB
M  V30 COUNTS 49 51 0 0 0
M  V30 BEGIN ATOM
M  V30 1 Cl 2.7404 4.5975 3.4668 0
M  V30 2 C 1.0711 4.1773 3.5107 0
M  V30 3 C 0.5164 3.4404 2.4596 0
M  V30 4 C 0.2902 4.5761 4.591 0
M  V30 5 C -0.842 3.084 2.4709 0
M  V30 6 C -1.0585 4.2363 4.6228 0
M  V30 7 C -1.616 3.4996 3.5749 0
M  V30 8 C -1.5089 2.2783 1.3505 0
M  V30 9 O -2.6788 3.0136 0.9482 0
M  V30 10 C -1.9588 0.9029 1.8698 0
M  V30 11 C -0.6493 2.0796 0.0902 0
M  V30 12 C -2.5884 0.0513 0.7667 0
M  V30 13 C -1.3463 1.1958 -0.947 0
M  V30 14 N -1.6716 -0.1208 -0.3737 0
M  V30 15 C -2.2907 -1.0088 -1.3756 0
M  V30 16 C -1.3325 -1.4757 -2.4791 0
M  V30 17 C -0.0792 -2.156 -1.9238 0
M  V30 18 C 0.8091 -2.7035 -3.027 0
M  V30 19 O 0.5129 -2.6132 -4.2169 0
M  V30 20 C 2.0889 -3.3789 -2.6455 0
M  V30 21 C 2.9078 -3.8833 -3.6691 0
M  V30 22 C 2.4923 -3.5228 -1.3099 0
M  V30 23 C 4.1114 -4.5218 -3.3626 0
M  V30 24 C 3.6982 -4.1626 -1.0074 0
M  V30 25 C 4.4951 -4.6553 -2.0344 0
M  V30 26 F 5.6486 -5.267 -1.7381 0
M  V30 27 H 1.1679 3.1529 1.6397 0
M  V30 28 H 0.7244 5.1484 5.4061 0
M  V30 29 H -1.6786 4.5431 5.4615 0
M  V30 30 H -2.676 3.2492 3.6203 0
M  V30 31 H -2.444 3.9583 0.9609 0
M  V30 32 H -1.1033 0.3653 2.3005 0
M  V30 33 H -2.7027 1.0119 2.669 0
M  V30 34 H -0.4278 3.0483 -0.3757 0
M  V30 35 H 0.3091 1.6092 0.3447 0
M  V30 36 H -2.8244 -0.9288 1.1995 0
M  V30 37 H -3.5391 0.4956 0.4433 0
M  V30 38 H -2.2449 1.6944 -1.3327 0
M  V30 39 H -0.6546 1.0842 -1.7888 0
M  V30 40 H -3.1653 -0.529 -1.834 0
M  V30 41 H -2.6594 -1.9123 -0.8719 0
M  V30 42 H -1.0487 -0.6375 -3.1261 0
M  V30 43 H -1.8734 -2.1803 -3.124 0
M  V30 44 H -0.3776 -2.9874 -1.2753 0
M  V30 45 H 0.5044 -1.4322 -1.345 0
M  V30 46 H 2.6104 -3.7804 -4.7115 0
M  V30 47 H 1.8903 -3.1475 -0.4872 0
M  V30 48 H 4.7472 -4.913 -4.1504 0
M  V30 49 H 4.021 -4.2794 0.0228 0
M  V30 END ATOM
M  V30 BEGIN BOND
M  V30 1 1 1 2
M  V30 2 2 2 3
M  V30 3 1 2 4
M  V30 4 1 3 5
M  V30 5 2 4 6
M  V30 6 2 5 7
M  V30 7 1 5 8
M  V30 8 1 8 9
M  V30 9 1 8 10
M  V30 10 1 8 11
M  V30 11 1 10 12
M  V30 12 1 11 13
M  V30 13 1 12 14
M  V30 14 1 14 15
M  V30 15 1 15 16
M  V30 16 1 16 17
M  V30 17 1 17 18
M  V30 18 2 18 19
M  V30 19 1 18 20
M  V30 20 2 20 21
M  V30 21 1 20 22
M  V30 22 1 21 23
M  V30 23 2 22 24
M  V30 24 2 23 25
M  V30 25 1 25 26
M  V30 26 1 6 7
M  V30 27 1 13 14
M  V30 28 1 24 25
M  V30 29 1 3 27
M  V30 30 1 4 28
M  V30 31 1 6 29
M  V30 32 1 7 30
M  V30 33 1 9 31
M  V30 34 1 10 32
M  V30 35 1 10 33
M  V30 36 1 11 34
M  V30 37 1 11 35
M  V30 38 1 12 36
M  V30 39 1 12 37
M  V30 40 1 13 38
M  V30 41 1 13 39
M  V30 42 1 15 40
M  V30 43 1 15 41
M  V30 44 1 16 42
M  V30 45 1 16 43
M  V30 46 1 17 44
M  V30 47 1 17 45
M  V30 48 1 21 46
M  V30 49 1 22 47
M  V30 50 1 23 48
M  V30 51 1 24 49
M  V30 END BOND
M  V30 END CTAB
M  END
>  <Column 1>
3923

>  <level_0>
7640

>  <index>
7641

>  <Unnamed: 0>
7641

>  <NO.>
7654

>  <Name>
fc1=cc=c(c=c1)c(cccn1ccc(cc1)(c1=cc(=cc=c1)cl)o)=o

>  <IUPAC_name>
4-[4-(3-chlorophenyl)-4-hydroxypiperidin-1-yl]-1-(4-fluorophenyl)butan-1-one

>  <SMILES>
O=C(CCCN1CCC(O)(c2cccc(Cl)c2)CC1)c1ccc(F)cc1

>  <CID>
154395193

>  <logBB>


>  <BBB+/BBB->
BBB+

>  <Inchi>
InChI=1S/C21H23ClFNO2/c22-18-4-1-3-17(15-18)21(26)10-13-24(14-11-21)12-2-5-20(25)16-6-8-19(23)9-7-16/h1-3-4-6-9-15-26H-2-5-10-14H2

>  <threshold>


>  <reference>
R27|

>  <group>
C

>  <Class>
-1

>  <ABC>
20.18

>  <ABCGG>
15

>  <nAcid>
0

>  <nBase>
1

>  <nAromAtom>
12

>  <nAromBond>
12

>  <nAtom>
49

>  <nHeavyAtom>
26

>  <nSpiro>
0

>  <nBridgehead>
0

>  <nHetero>
5

>  <nN>
1

>  <nO>
2

>  <nF>
1

>  <BalabanJ>
1.34

>  <BertzCT>
754.86

>  <nBonds>
51

>  <nBondsO>
28

>  <nBondsS>
38

>  <nBondsD>
1

>  <nBondsT>
0

>  <nBondsA>
12

>  <nBondsM>
13

>  <nBondsKS>
44

>  <nBondsKD>
7

>  <RNCG>
0.23

>  <RPCG>
0.13

>  <FCSP3>
0.38

>  <SZ>
33

>  <Sm>
31.29

>  <Sv>
31.16

>  <Sse>
49.26

>  <Sp>
33.44

>  <Si>
55.18

>  <MZ>
0.67

>  <Mm>
0.64

>  <Mv>
0.64

>  <Mse>
1.01

>  <Mp>
0.68

>  <Mi>
1.13

>  <NsCH3>
0

>  <NdCH2>
0

>  <NssCH2>
7

>  <NtCH>
0

>  <NdsCH>
0

>  <NaaCH>
8

>  <NsssCH>
0

>  <NddC>
0

>  <NtsC>
0

>  <NdssC>
1

>  <NaasC>
4

>  <NaaaC>
0

>  <NssssC>
1

>  <NsNH3>
0

>  <NsNH2>
0

>  <NssNH2>
0

>  <NdNH>
0

>  <NssNH>
0

>  <NaaNH>
0

>  <NtN>
0

>  <NsssNH>
0

>  <NdsN>
0

>  <NaaN>
0

>  <NsssN>
1

>  <NddsN>
0

>  <NaasN>
0

>  <NssssN>
0

>  <NsOH>
1

>  <NdO>
1

>  <NssO>
0

>  <NaaO>
0

>  <NsF>
1

>  <NsSiH3>
0

>  <NssSiH2>
0

>  <NsssSiH>
0

>  <NssssSi>
0

>  <NsPH2>
0

>  <NssPH>
0

>  <NsssP>
0

>  <NdsssP>
0

>  <NsssssP>
0

>  <NsSH>
0

>  <NdS>
0

>  <NssS>
0

>  <NaaS>
0

>  <NdssS>
0

>  <NddssS>
0

>  <NsCl>
1

>  <NsBr>
0

>  <NsI>
0

>  <fragCpx>
134.05

>  <fMF>
0.45

>  <nHBAcc>
3

>  <nHBDon>
1

>  <Kier1>
20.73

>  <Kier2>
9.47

>  <Lipinski>
1

>  <GhoseFilter>
1

>  <FilterItLogS>
-5.84

>  <VMcGowan>
279.79

>  <LabuteASA>
157.95

>  <PEOE_VSA1>
10.01

>  <PEOE_VSA2>
4.79

>  <PEOE_VSA3>
4.39

>  <PEOE_VSA4>
0

>  <PEOE_VSA5>
0

>  <PEOE_VSA6>
23.73

>  <PEOE_VSA7>
67.77

>  <PEOE_VSA8>
30.1

>  <PEOE_VSA9>
5.6

>  <PEOE_VSA10>
5.82

>  <PEOE_VSA11>
5.78

>  <PEOE_VSA12>
0

>  <PEOE_VSA13>
0

>  <SMR_VSA1>
14.29

>  <SMR_VSA2>
0

>  <SMR_VSA3>
4.9

>  <SMR_VSA4>
0

>  <SMR_VSA5>
31.28

>  <SMR_VSA6>
19.63

>  <SMR_VSA7>
70.5

>  <SMR_VSA8>
0

>  <SMR_VSA9>
0

>  <SlogP_VSA1>
0

>  <SlogP_VSA2>
35.42

>  <SlogP_VSA3>
5.6

>  <SlogP_VSA4>
5.82

>  <SlogP_VSA5>
41.6

>  <SlogP_VSA6>
48.53

>  <SlogP_VSA7>
5.02

>  <SlogP_VSA8>
0

>  <SlogP_VSA9>
0

>  <SlogP_VSA10>
4.39

>  <SlogP_VSA11>
0

>  <EState_VSA1>
5.6

>  <EState_VSA2>
11.6

>  <EState_VSA3>
29.85

>  <EState_VSA4>
31.62

>  <EState_VSA5>
24.27

>  <EState_VSA6>
0

>  <EState_VSA7>
24.27

>  <EState_VSA8>
4.9

>  <EState_VSA9>
11.6

>  <EState_VSA10>
14.29

>  <VSA_EState1>
12.91

>  <VSA_EState2>
14.4

>  <VSA_EState3>
11.54

>  <VSA_EState4>
0.6

>  <VSA_EState5>
-0.29

>  <VSA_EState6>
13.11

>  <VSA_EState7>
2.5

>  <VSA_EState8>
2.39

>  <VSA_EState9>
0

>  <apol>
55.85

>  <bpol>
27.27

>  <nRing>
3

>  <nHRing>
1

>  <naRing>
2

>  <naHRing>
0

>  <nARing 2>
1

>  <nAHRing 2>
1

>  <nFRing>
0

>  <nFHRing>
0

>  <nFaRing>
0

>  <nFaHRing>
0

>  <nFARing 2>
0

>  <nFAHRing 2>
0

>  <nRot>
6

>  <SLogP>
4.43

>  <SMR>
100.99

>  <TopoPSA(NO)>
40.54

>  <TopoPSA>
40.54

>  <JGI1>
0.23

>  <JGI2>
0.1

>  <JGI3>
0.04

>  <JGI4>
0.04

>  <JGI5>
0.03

>  <Diameter>
16

>  <Radius>
8

>  <TMWC10>
128.85

>  <TSRW10>
60.88

>  <MW>
375.14

>  <AMW>
7.66

>  <WPath>
2016

>  <WPol>
39

>  <Zagreb1>
134

>  <Zagreb2>
154

>  <mZagreb2>
5.69

>  <yes>


>  <nAR-cont>
0.816016

>  <nHA-cont>
0.892715677

>  <MWHBN>
0.206520565

>  <MWHBN-cont>
0.999893448

>  <TPSA-cont>
0.717005626

>  <pka_cont>
0.97

>  <yes.1>


>  <BBB_SCORE>
5.127583102

>  <MMFF94 Energy>
52.012

$$$$
Compound 3049
Actelion Java MolfileCreator 2.0

  0  0  0  0  0  0              0 V3000
M  V30 BEGIN CTAB
M  V30 COUNTS 36 37 0 0 0
M  V30 BEGIN ATOM
M  V30 1 S 0.4117 -3.0497 -1.6476 0
M  V30 2 O 0.2779 -4.2743 -0.888 0
M  V30 3 O 1.4803 -2.8587 -2.6032 0
M  V30 4 N -1.1 -2.7385 -2.3365 0
M  V30 5 C 0.5082 -1.7025 -0.4895 0
M  V30 6 C -1.1291 -3.0898 -3.7425 0
M  V30 7 C 0.2223 -1.9152 0.8598 0
M  V30 8 C 0.9068 -0.4425 -0.9411 0
M  V30 9 S -0.5715 -2.0807 -5.0019 0
M  V30 10 N -1.7543 -4.1836 -4.0983 0
M  V30 11 C 0.3133 -0.8494 1.7613 0
M  V30 12 C 0.9967 0.6155 -0.0333 0
M  V30 13 C -1.1092 -3.2474 -6.1399 0
M  V30 14 C -1.7167 -4.2925 -5.4756 0
M  V30 15 C 0.6905 0.4223 1.3206 0
M  V30 16 N 0.8173 1.5343 2.1742 0
M  V30 17 C 0.2979 1.6704 3.4469 0
M  V30 18 O -0.4103 0.8608 4.0368 0
M  V30 19 C 0.6572 2.9944 4.0956 0
M  V30 20 C -0.28 4.1026 3.6308 0
M  V30 21 C 0.1772 4.6976 2.328 0
M  V30 22 O 1.0129 4.2307 1.5697 0
M  V30 23 O -0.4652 5.8421 2.0359 0
M  V30 24 H -1.7655 -3.3602 -1.874 0
M  V30 25 H -0.0662 -2.8982 1.2254 0
M  V30 26 H 1.1493 -0.2784 -1.9887 0
M  V30 27 H 0.0963 -1.0438 2.8082 0
M  V30 28 H 1.305 1.5933 -0.3971 0
M  V30 29 H -0.9693 -3.1118 -7.2025 0
M  V30 30 H -2.1582 -5.1605 -5.9508 0
M  V30 31 H 1.2703 2.3565 1.7743 0
M  V30 32 H 1.7095 3.2307 3.9004 0
M  V30 33 H 0.5559 2.8606 5.1795 0
M  V30 34 H -1.3052 3.7381 3.5093 0
M  V30 35 H -0.2703 4.9032 4.3793 0
M  V30 36 H -0.1057 6.13 1.1709 0
M  V30 END ATOM
M  V30 BEGIN BOND
M  V30 1 2 1 2
M  V30 2 2 1 3
M  V30 3 1 1 4
M  V30 4 1 1 5
M  V30 5 1 4 6
M  V30 6 2 5 7
M  V30 7 1 5 8
M  V30 8 1 6 9
M  V30 9 2 6 10
M  V30 10 1 7 11
M  V30 11 2 8 12
M  V30 12 1 9 13
M  V30 13 1 10 14
M  V30 14 2 11 15
M  V30 15 1 15 16
M  V30 16 1 16 17
M  V30 17 2 17 18
M  V30 18 1 17 19
M  V30 19 1 19 20
M  V30 20 1 20 21
M  V30 21 2 21 22
M  V30 22 1 21 23
M  V30 23 1 12 15
M  V30 24 2 13 14
M  V30 25 1 4 24
M  V30 26 1 7 25
M  V30 27 1 8 26
M  V30 28 1 11 27
M  V30 29 1 12 28
M  V30 30 1 13 29
M  V30 31 1 14 30
M  V30 32 1 16 31
M  V30 33 1 19 32
M  V30 34 1 19 33
M  V30 35 1 20 34
M  V30 36 1 20 35
M  V30 37 1 23 36
M  V30 END BOND
M  V30 END CTAB
M  END
>  <Column 1>
3925

>  <level_0>
7645

>  <index>
7646

>  <Unnamed: 0>
7646

>  <NO.>
7659

>  <Name>
succinylsulfathiazole

>  <IUPAC_name>
4-oxo-4-[4-(1-3-thiazol-2-ylsulfamoyl)anilino]butanoic acid

>  <SMILES>
O=C(O)CCC(=O)Nc1ccc(S(=O)(=O)Nc2nccs2)cc1

>  <CID>
5315

>  <logBB>


>  <BBB+/BBB->
BBB-

>  <Inchi>
InChI=1S/C13H13N3O5S2/c17-11(5-6-12(18)19)15-9-1-3-10(4-2-9)23(20-21)16-13-14-7-8-22-13/h1-4-7-8H-5-6H2-(H-14-16)(H-15-17)(H-18-19)

>  <threshold>


>  <reference>
R27|

>  <group>
C

>  <Class>
1

>  <ABC>
17.55

>  <ABCGG>
14.61

>  <nAcid>
1

>  <nBase>
0

>  <nAromAtom>
11

>  <nAromBond>
11

>  <nAtom>
36

>  <nHeavyAtom>
23

>  <nSpiro>
0

>  <nBridgehead>
0

>  <nHetero>
10

>  <nN>
3

>  <nO>
5

>  <nF>
0

>  <BalabanJ>
1.7

>  <BertzCT>
785.53

>  <nBonds>
37

>  <nBondsO>
24

>  <nBondsS>
22

>  <nBondsD>
4

>  <nBondsT>
0

>  <nBondsA>
11

>  <nBondsM>
15

>  <nBondsKS>
28

>  <nBondsKD>
9

>  <RNCG>
0.19

>  <RPCG>
0.12

>  <FCSP3>
0.15

>  <SZ>
30.67

>  <Sm>
29.59

>  <Sv>
24.74

>  <Sse>
37.57

>  <Sp>
26.04

>  <Si>
40.46

>  <MZ>
0.85

>  <Mm>
0.82

>  <Mv>
0.69

>  <Mse>
1.04

>  <Mp>
0.72

>  <Mi>
1.12

>  <NsCH3>
0

>  <NdCH2>
0

>  <NssCH2>
2

>  <NtCH>
0

>  <NdsCH>
0

>  <NaaCH>
6

>  <NsssCH>
0

>  <NddC>
0

>  <NtsC>
0

>  <NdssC>
2

>  <NaasC>
3

>  <NaaaC>
0

>  <NssssC>
0

>  <NsNH3>
0

>  <NsNH2>
0

>  <NssNH2>
0

>  <NdNH>
0

>  <NssNH>
2

>  <NaaNH>
0

>  <NtN>
0

>  <NsssNH>
0

>  <NdsN>
0

>  <NaaN>
1

>  <NsssN>
0

>  <NddsN>
0

>  <NaasN>
0

>  <NssssN>
0

>  <NsOH>
1

>  <NdO>
4

>  <NssO>
0

>  <NaaO>
0

>  <NsF>
0

>  <NsSiH3>
0

>  <NssSiH2>
0

>  <NsssSiH>
0

>  <NssssSi>
0

>  <NsPH2>
0

>  <NssPH>
0

>  <NsssP>
0

>  <NdsssP>
0

>  <NsssssP>
0

>  <NsSH>
0

>  <NdS>
0

>  <NssS>
0

>  <NaaS>
1

>  <NdssS>
0

>  <NddssS>
1

>  <NsCl>
0

>  <NsBr>
0

>  <NsI>
0

>  <fragCpx>
70.1

>  <fMF>
0.36

>  <nHBAcc>
6

>  <nHBDon>
3

>  <Kier1>
19.33

>  <Kier2>
8.91

>  <Lipinski>
1

>  <GhoseFilter>
1

>  <FilterItLogS>
-3.02

>  <VMcGowan>
234.2

>  <LabuteASA>
135.79

>  <PEOE_VSA1>
10.42

>  <PEOE_VSA2>
14.31

>  <PEOE_VSA3>
13.4

>  <PEOE_VSA4>
0

>  <PEOE_VSA5>
11.34

>  <PEOE_VSA6>
0

>  <PEOE_VSA7>
24.27

>  <PEOE_VSA8>
23.69

>  <PEOE_VSA9>
11.32

>  <PEOE_VSA10>
0

>  <PEOE_VSA11>
5.13

>  <PEOE_VSA12>
5.91

>  <PEOE_VSA13>
10.02

>  <SMR_VSA1>
23.11

>  <SMR_VSA2>
0

>  <SMR_VSA3>
4.98

>  <SMR_VSA4>
0

>  <SMR_VSA5>
17.74

>  <SMR_VSA6>
10.04

>  <SMR_VSA7>
35.84

>  <SMR_VSA8>
0

>  <SMR_VSA9>
0

>  <SlogP_VSA1>
10.04

>  <SlogP_VSA2>
30.38

>  <SlogP_VSA3>
19.61

>  <SlogP_VSA4>
0

>  <SlogP_VSA5>
12.84

>  <SlogP_VSA6>
40.74

>  <SlogP_VSA7>
0

>  <SlogP_VSA8>
0

>  <SlogP_VSA9>
0

>  <SlogP_VSA10>
10.82

>  <SlogP_VSA11>
0

>  <EState_VSA1>
21.9

>  <EState_VSA2>
22.87

>  <EState_VSA3>
5.69

>  <EState_VSA4>
11.34

>  <EState_VSA5>
30.46

>  <EState_VSA6>
5.38

>  <EState_VSA7>
0

>  <EState_VSA8>
15.02

>  <EState_VSA9>
5.11

>  <EState_VSA10>
18.01

>  <VSA_EState1>
26.56

>  <VSA_EState2>
25.75

>  <VSA_EState3>
12.9

>  <VSA_EState4>
0.38

>  <VSA_EState5>
-1.52

>  <VSA_EState6>
5.52

>  <VSA_EState7>
1.06

>  <VSA_EState8>
0

>  <VSA_EState9>
-3.74

>  <apol>
43.49

>  <bpol>
26.17

>  <nRing>
2

>  <nHRing>
1

>  <naRing>
2

>  <naHRing>
1

>  <nARing 2>
0

>  <nAHRing 2>
0

>  <nFRing>
0

>  <nFHRing>
0

>  <nFaRing>
0

>  <nFaHRing>
0

>  <nFARing 2>
0

>  <nFAHRing 2>
0

>  <nRot>
7

>  <SLogP>
1.75

>  <SMR>
84.86

>  <TopoPSA(NO)>
125.46

>  <TopoPSA>
162.08

>  <JGI1>
0.27

>  <JGI2>
0.08

>  <JGI3>
0.06

>  <JGI4>
0.04

>  <JGI5>
0.02

>  <Diameter>
14

>  <Radius>
7

>  <TMWC10>
119.82

>  <TSRW10>
69.89

>  <MW>
355.03

>  <AMW>
9.86

>  <WPath>
1405

>  <WPol>
29

>  <Zagreb1>
114

>  <Zagreb2>
127

>  <mZagreb2>
5.04

>  <yes>


>  <nAR-cont>
0.336376

>  <nHA-cont>
0.967789328

>  <MWHBN>
0.477650221

>  <MWHBN-cont>
0

>  <TPSA-cont>
0

>  <pka_cont>
0.97

>  <yes.1>


>  <BBB_SCORE>
1.789165328

>  <MMFF94 Energy>
-128.45

$$$$
Compound 3050
Actelion Java MolfileCreator 2.0

  0  0  0  0  0  0              0 V3000
M  V30 BEGIN CTAB
M  V30 COUNTS 32 34 0 0 0
M  V30 BEGIN ATOM
M  V30 1 O 0.5645 -1.856 1.3715 0
M  V30 2 C 0.201 -1.3429 0.3113 0
M  V30 3 C -0.1479 0.1097 0.3011 0
M  V30 4 C 0.1024 -2.2366 -0.8699 0
M  V30 5 C -0.4799 0.8637 -0.8297 0
M  V30 6 C -0.1924 0.7439 1.5612 0
M  V30 7 C 0.3317 -1.7954 -2.177 0
M  V30 8 C -0.1886 -3.5909 -0.6368 0
M  V30 9 O -0.4596 0.4342 -2.1272 0
M  V30 10 C -0.899 2.1937 -0.6896 0
M  V30 11 C -0.5883 2.0834 1.7041 0
M  V30 12 C 0.2369 -2.711 -3.2391 0
M  V30 13 C 0.6747 -0.3652 -2.4409 0
M  V30 14 C -0.2773 -4.4929 -1.6969 0
M  V30 15 C -0.9461 2.8034 0.5632 0
M  V30 16 C -0.6077 2.7366 3.0659 0
M  V30 17 C -0.0677 -4.0511 -2.9991 0
M  V30 18 C 0.6567 3.4917 3.396 0
M  V30 19 O 1.6096 3.7242 2.6719 0
M  V30 20 O 0.6472 3.9535 4.6657 0
M  V30 21 H 0.0757 0.1768 2.4533 0
M  V30 22 H -0.3484 -3.9476 0.3795 0
M  V30 23 H -1.1724 2.7674 -1.5728 0
M  V30 24 H 0.4001 -2.3847 -4.2645 0
M  V30 25 H 0.8877 -0.2107 -3.5051 0
M  V30 26 H 1.5813 -0.0542 -1.9036 0
M  V30 27 H -0.5075 -5.5374 -1.5033 0
M  V30 28 H -1.2533 3.8446 0.6366 0
M  V30 29 H -1.4516 3.4345 3.1213 0
M  V30 30 H -0.7639 1.9697 3.834 0
M  V30 31 H -0.1378 -4.7508 -3.8284 0
M  V30 32 H 1.5087 4.414 4.753 0
M  V30 END ATOM
M  V30 BEGIN BOND
M  V30 1 2 1 2
M  V30 2 1 2 3
M  V30 3 1 2 4
M  V30 4 2 3 5
M  V30 5 1 3 6
M  V30 6 2 4 7
M  V30 7 1 4 8
M  V30 8 1 5 9
M  V30 9 1 5 10
M  V30 10 2 6 11
M  V30 11 1 7 12
M  V30 12 1 7 13
M  V30 13 2 8 14
M  V30 14 2 10 15
M  V30 15 1 11 16
M  V30 16 2 12 17
M  V30 17 1 16 18
M  V30 18 2 18 19
M  V30 19 1 18 20
M  V30 20 1 9 13
M  V30 21 1 11 15
M  V30 22 1 14 17
M  V30 23 1 6 21
M  V30 24 1 8 22
M  V30 25 1 10 23
M  V30 26 1 12 24
M  V30 27 1 13 25
M  V30 28 1 13 26
M  V30 29 1 14 27
M  V30 30 1 15 28
M  V30 31 1 16 29
M  V30 32 1 16 30
M  V30 33 1 17 31
M  V30 34 1 20 32
M  V30 END BOND
M  V30 END CTAB
M  END
>  <Column 1>
3926

>  <level_0>
7647

>  <index>
7648

>  <Unnamed: 0>
7648

>  <NO.>
7661

>  <Name>
isoxepac

>  <IUPAC_name>
2-(11-oxo-6h-benzo[c][1]benzoxepin-2-yl)acetic acid

>  <SMILES>
O=C(O)Cc1ccc2c(c1)C(=O)c1ccccc1CO2

>  <CID>
41448

>  <logBB>


>  <BBB+/BBB->
BBB+

>  <Inchi>
InChI=1S/C16H12O4/c17-15(18)8-10-5-6-14-13(7-10)16(19)12-4-2-1-3-11(12)9-20-14/h1-7H-8-9H2-(H-17-18)

>  <threshold>


>  <reference>
R27|

>  <group>
C

>  <Class>
1

>  <ABC>
15.72

>  <ABCGG>
12.57

>  <nAcid>
1

>  <nBase>
0

>  <nAromAtom>
12

>  <nAromBond>
12

>  <nAtom>
32

>  <nHeavyAtom>
20

>  <nSpiro>
0

>  <nBridgehead>
0

>  <nHetero>
4

>  <nN>
0

>  <nO>
4

>  <nF>
0

>  <BalabanJ>
1.69

>  <BertzCT>
703.37

>  <nBonds>
34

>  <nBondsO>
22

>  <nBondsS>
20

>  <nBondsD>
2

>  <nBondsT>
0

>  <nBondsA>
12

>  <nBondsM>
14

>  <nBondsKS>
26

>  <nBondsKD>
8

>  <RNCG>
0.26

>  <RPCG>
0.16

>  <FCSP3>
0.13

>  <SZ>
23.33

>  <Sm>
22.34

>  <Sv>
22.11

>  <Sse>
32.65

>  <Sp>
22.71

>  <Si>
35.33

>  <MZ>
0.73

>  <Mm>
0.7

>  <Mv>
0.69

>  <Mse>
1.02

>  <Mp>
0.71

>  <Mi>
1.1

>  <NsCH3>
0

>  <NdCH2>
0

>  <NssCH2>
2

>  <NtCH>
0

>  <NdsCH>
0

>  <NaaCH>
7

>  <NsssCH>
0

>  <NddC>
0

>  <NtsC>
0

>  <NdssC>
2

>  <NaasC>
5

>  <NaaaC>
0

>  <NssssC>
0

>  <NsNH3>
0

>  <NsNH2>
0

>  <NssNH2>
0

>  <NdNH>
0

>  <NssNH>
0

>  <NaaNH>
0

>  <NtN>
0

>  <NsssNH>
0

>  <NdsN>
0

>  <NaaN>
0

>  <NsssN>
0

>  <NddsN>
0

>  <NaasN>
0

>  <NssssN>
0

>  <NsOH>
1

>  <NdO>
2

>  <NssO>
1

>  <NaaO>
0

>  <NsF>
0

>  <NsSiH3>
0

>  <NssSiH2>
0

>  <NsssSiH>
0

>  <NssssSi>
0

>  <NsPH2>
0

>  <NssPH>
0

>  <NsssP>
0

>  <NdsssP>
0

>  <NsssssP>
0

>  <NsSH>
0

>  <NdS>
0

>  <NssS>
0

>  <NaaS>
0

>  <NdssS>
0

>  <NddssS>
0

>  <NsCl>
0

>  <NsBr>
0

>  <NsI>
0

>  <fragCpx>
104.04

>  <fMF>
0.47

>  <nHBAcc>
3

>  <nHBDon>
1

>  <Kier1>
14.92

>  <Kier2>
6.41

>  <Lipinski>
1

>  <GhoseFilter>
1

>  <FilterItLogS>
-3.81

>  <VMcGowan>
192.8

>  <LabuteASA>
115.17

>  <PEOE_VSA1>
9.84

>  <PEOE_VSA2>
9.59

>  <PEOE_VSA3>
0

>  <PEOE_VSA4>
0

>  <PEOE_VSA5>
0

>  <PEOE_VSA6>
30.33

>  <PEOE_VSA7>
17.7

>  <PEOE_VSA8>
11.13

>  <PEOE_VSA9>
11.98

>  <PEOE_VSA10>
12.36

>  <PEOE_VSA11>
5.78

>  <PEOE_VSA12>
0

>  <PEOE_VSA13>
0

>  <SMR_VSA1>
19.43

>  <SMR_VSA2>
0

>  <SMR_VSA3>
0

>  <SMR_VSA4>
0

>  <SMR_VSA5>
13.03

>  <SMR_VSA6>
0

>  <SMR_VSA7>
64.72

>  <SMR_VSA8>
0

>  <SMR_VSA9>
5.75

>  <SlogP_VSA1>
4.74

>  <SlogP_VSA2>
16.86

>  <SlogP_VSA3>
17.82

>  <SlogP_VSA4>
0

>  <SlogP_VSA5>
27.05

>  <SlogP_VSA6>
42.46

>  <SlogP_VSA7>
0

>  <SlogP_VSA8>
0

>  <SlogP_VSA9>
0

>  <SlogP_VSA10>
0

>  <SlogP_VSA11>
5.75

>  <EState_VSA1>
5.97

>  <EState_VSA2>
12.2

>  <EState_VSA3>
29.05

>  <EState_VSA4>
5.56

>  <EState_VSA5>
0

>  <EState_VSA6>
24.27

>  <EState_VSA7>
18.2

>  <EState_VSA8>
0

>  <EState_VSA9>
9.84

>  <EState_VSA10>
9.59

>  <VSA_EState1>
5.64

>  <VSA_EState2>
23.31

>  <VSA_EState3>
8.83

>  <VSA_EState4>
2.47

>  <VSA_EState5>
-0.55

>  <VSA_EState6>
12.24

>  <VSA_EState7>
-0.11

>  <VSA_EState8>
0.34

>  <VSA_EState9>
0

>  <apol>
37.93

>  <bpol>
15.51

>  <nRing>
3

>  <nHRing>
1

>  <naRing>
2

>  <naHRing>
0

>  <nARing 2>
1

>  <nAHRing 2>
1

>  <nFRing>
1

>  <nFHRing>
1

>  <nFaRing>
0

>  <nFaHRing>
0

>  <nFARing 2>
1

>  <nFAHRing 2>
1

>  <nRot>
2

>  <SLogP>
2.44

>  <SMR>
71.99

>  <TopoPSA(NO)>
63.6

>  <TopoPSA>
63.6

>  <JGI1>
0.18

>  <JGI2>
0.07

>  <JGI3>
0.04

>  <JGI4>
0.04

>  <JGI5>
0.02

>  <Diameter>
10

>  <Radius>
5

>  <TMWC10>
115.67

>  <TSRW10>
61.85

>  <MW>
268.07

>  <AMW>
8.38

>  <WPath>
770

>  <WPol>
35

>  <Zagreb1>
106

>  <Zagreb2>
125

>  <mZagreb2>
4.36

>  <yes>


>  <nAR-cont>
0.816016

>  <nHA-cont>
0.999629945

>  <MWHBN>
0.244306985

>  <MWHBN-cont>
0.968828334

>  <TPSA-cont>
0.556032507

>  <pka_cont>
0.97

>  <yes.1>


>  <BBB_SCORE>
4.865953459

>  <MMFF94 Energy>
78.057

$$$$
Compound 3051
Actelion Java MolfileCreator 2.0

  0  0  0  0  0  0              0 V3000
M  V30 BEGIN CTAB
M  V30 COUNTS 30 31 0 0 0
M  V30 BEGIN ATOM
M  V30 1 Cl 2.9401 -0.1631 -2.041 0
M  V30 2 C 2.5439 -1.1947 -0.7086 0
M  V30 3 C 1.323 -1.0443 -0.0186 0
M  V30 4 C 3.4712 -2.1745 -0.3443 0
M  V30 5 N 0.3988 -0.0509 -0.3989 0
M  V30 6 C 1.0758 -1.901 1.0643 0
M  V30 7 C 3.1907 -3.0162 0.7261 0
M  V30 8 C -0.9822 0.0777 -0.1561 0
M  V30 9 C 2.0001 -2.883 1.4344 0
M  V30 10 Cl 4.3259 -4.2247 1.1843 0
M  V30 11 C -1.5456 1.3456 0.1029 0
M  V30 12 C -1.8255 -1.0434 -0.1916 0
M  V30 13 C -2.9338 1.4538 0.3108 0
M  V30 14 C -0.6943 2.594 0.2182 0
M  V30 15 C -3.1996 -0.9221 0.019 0
M  V30 16 C -3.7538 0.3273 0.2686 0
M  V30 17 C -0.0543 3.0334 -1.0741 0
M  V30 18 O 0.3406 2.3251 -1.9868 0
M  V30 19 O 0.1306 4.3692 -1.1296 0
M  V30 20 H 4.4037 -2.2769 -0.8918 0
M  V30 21 H 0.734 0.5758 -1.1374 0
M  V30 22 H 0.1639 -1.7989 1.6481 0
M  V30 23 H 1.7837 -3.5329 2.2786 0
M  V30 24 H -1.4172 -2.025 -0.419 0
M  V30 25 H -3.3875 2.4215 0.5161 0
M  V30 26 H -1.312 3.4211 0.59 0
M  V30 27 H 0.0963 2.4338 0.9603 0
M  V30 28 H -3.8345 -1.8029 -0.0231 0
M  V30 29 H -4.8241 0.426 0.4304 0
M  V30 30 H 0.574 4.5118 -1.9926 0
M  V30 END ATOM
M  V30 BEGIN BOND
M  V30 1 1 1 2
M  V30 2 2 2 3
M  V30 3 1 2 4
M  V30 4 1 3 5
M  V30 5 1 3 6
M  V30 6 2 4 7
M  V30 7 1 5 8
M  V30 8 2 6 9
M  V30 9 1 7 10
M  V30 10 2 8 11
M  V30 11 1 8 12
M  V30 12 1 11 13
M  V30 13 1 11 14
M  V30 14 2 12 15
M  V30 15 2 13 16
M  V30 16 1 14 17
M  V30 17 2 17 18
M  V30 18 1 17 19
M  V30 19 1 7 9
M  V30 20 1 15 16
M  V30 21 1 4 20
M  V30 22 1 5 21
M  V30 23 1 6 22
M  V30 24 1 9 23
M  V30 25 1 12 24
M  V30 26 1 13 25
M  V30 27 1 14 26
M  V30 28 1 14 27
M  V30 29 1 15 28
M  V30 30 1 16 29
M  V30 31 1 19 30
M  V30 END BOND
M  V30 END CTAB
M  END
>  <Column 1>
3927

>  <level_0>
7648

>  <index>
7649

>  <Unnamed: 0>
7649

>  <NO.>
7662

>  <Name>
chembl310696

>  <IUPAC_name>
2-[2-(2-4-dichloroanilino)phenyl]acetic acid

>  <SMILES>
O=C(O)Cc1ccccc1Nc1ccc(Cl)cc1Cl

>  <CID>
13556944

>  <logBB>


>  <BBB+/BBB->
BBB+

>  <Inchi>
InChI=1S/C14H11Cl2NO2/c15-10-5-6-13(11(16)8-10)17-12-4-2-1-3-9(12)7-14(18)19/h1-6-8-17H-7H2-(H-18-19)

>  <threshold>


>  <reference>
R27|

>  <group>
C

>  <Class>
1

>  <ABC>
14.5

>  <ABCGG>
12.28

>  <nAcid>
1

>  <nBase>
0

>  <nAromAtom>
12

>  <nAromBond>
12

>  <nAtom>
30

>  <nHeavyAtom>
19

>  <nSpiro>
0

>  <nBridgehead>
0

>  <nHetero>
5

>  <nN>
1

>  <nO>
2

>  <nF>
0

>  <BalabanJ>
1.88

>  <BertzCT>
614.15

>  <nBonds>
31

>  <nBondsO>
20

>  <nBondsS>
18

>  <nBondsD>
1

>  <nBondsT>
0

>  <nBondsA>
12

>  <nBondsM>
13

>  <nBondsKS>
24

>  <nBondsKD>
7

>  <RNCG>
0.3

>  <RPCG>
0.19

>  <FCSP3>
0.07

>  <SZ>
25.33

>  <Sm>
24.66

>  <Sv>
21.35

>  <Sse>
30.74

>  <Sp>
22.62

>  <Si>
33.3

>  <MZ>
0.84

>  <Mm>
0.82

>  <Mv>
0.71

>  <Mse>
1.02

>  <Mp>
0.75

>  <Mi>
1.11

>  <NsCH3>
0

>  <NdCH2>
0

>  <NssCH2>
1

>  <NtCH>
0

>  <NdsCH>
0

>  <NaaCH>
7

>  <NsssCH>
0

>  <NddC>
0

>  <NtsC>
0

>  <NdssC>
1

>  <NaasC>
5

>  <NaaaC>
0

>  <NssssC>
0

>  <NsNH3>
0

>  <NsNH2>
0

>  <NssNH2>
0

>  <NdNH>
0

>  <NssNH>
1

>  <NaaNH>
0

>  <NtN>
0

>  <NsssNH>
0

>  <NdsN>
0

>  <NaaN>
0

>  <NsssN>
0

>  <NddsN>
0

>  <NaasN>
0

>  <NssssN>
0

>  <NsOH>
1

>  <NdO>
1

>  <NssO>
0

>  <NaaO>
0

>  <NsF>
0

>  <NsSiH3>
0

>  <NssSiH2>
0

>  <NsssSiH>
0

>  <NssssSi>
0

>  <NsPH2>
0

>  <NssPH>
0

>  <NsssP>
0

>  <NdsssP>
0

>  <NsssssP>
0

>  <NsSH>
0

>  <NdS>
0

>  <NssS>
0

>  <NaaS>
0

>  <NdssS>
0

>  <NddssS>
0

>  <NsCl>
2

>  <NsBr>
0

>  <NsI>
0

>  <fragCpx>
58.05

>  <fMF>
0.43

>  <nHBAcc>
2

>  <nHBDon>
2

>  <Kier1>
15.39

>  <Kier2>
7.14

>  <Lipinski>
1

>  <GhoseFilter>
1

>  <FilterItLogS>
-4.91

>  <VMcGowan>
202.5

>  <LabuteASA>
120.33

>  <PEOE_VSA1>
10.42

>  <PEOE_VSA2>
4.79

>  <PEOE_VSA3>
0

>  <PEOE_VSA4>
0

>  <PEOE_VSA5>
0

>  <PEOE_VSA6>
41.4

>  <PEOE_VSA7>
29.83

>  <PEOE_VSA8>
10.71

>  <PEOE_VSA9>
17.13

>  <PEOE_VSA10>
0

>  <PEOE_VSA11>
0

>  <PEOE_VSA12>
0

>  <PEOE_VSA13>
0

>  <SMR_VSA1>
9.9

>  <SMR_VSA2>
0

>  <SMR_VSA3>
0

>  <SMR_VSA4>
0

>  <SMR_VSA5>
6.42

>  <SMR_VSA6>
5.32

>  <SMR_VSA7>
58.07

>  <SMR_VSA8>
0

>  <SMR_VSA9>
0

>  <SlogP_VSA1>
5.32

>  <SlogP_VSA2>
11.08

>  <SlogP_VSA3>
11.22

>  <SlogP_VSA4>
0

>  <SlogP_VSA5>
5.56

>  <SlogP_VSA6>
42.46

>  <SlogP_VSA7>
10.05

>  <SlogP_VSA8>
0

>  <SlogP_VSA9>
0

>  <SlogP_VSA10>
11.37

>  <SlogP_VSA11>
0

>  <EState_VSA1>
5.97

>  <EState_VSA2>
6.42

>  <EState_VSA3>
26.98

>  <EState_VSA4>
0

>  <EState_VSA5>
0

>  <EState_VSA6>
30.33

>  <EState_VSA7>
12.13

>  <EState_VSA8>
5.32

>  <EState_VSA9>
28.31

>  <EState_VSA10>
4.79

>  <VSA_EState1>
0

>  <VSA_EState2>
10.81

>  <VSA_EState3>
13.03

>  <VSA_EState4>
2.1

>  <VSA_EState5>
-0.88

>  <VSA_EState6>
12.3

>  <VSA_EState7>
-0.05

>  <VSA_EState8>
0

>  <VSA_EState9>
0

>  <apol>
37.78

>  <bpol>
13.49

>  <nRing>
2

>  <nHRing>
0

>  <naRing>
2

>  <naHRing>
0

>  <nARing 2>
0

>  <nAHRing 2>
0

>  <nFRing>
0

>  <nFHRing>
0

>  <nFaRing>
0

>  <nFaHRing>
0

>  <nFARing 2>
0

>  <nFAHRing 2>
0

>  <nRot>
4

>  <SLogP>
4.36

>  <SMR>
77.53

>  <TopoPSA(NO)>
49.33

>  <TopoPSA>
49.33

>  <JGI1>
0.23

>  <JGI2>
0.07

>  <JGI3>
0.04

>  <JGI4>
0.05

>  <JGI5>
0.02

>  <Diameter>
10

>  <Radius>
5

>  <TMWC10>
110.2

>  <TSRW10>
51.91

>  <MW>
295.02

>  <AMW>
9.83

>  <WPath>
728

>  <WPol>
26

>  <Zagreb1>
94

>  <Zagreb2>
106

>  <mZagreb2>
4.22

>  <yes>


>  <nAR-cont>
0.336376

>  <nHA-cont>
0.998649058

>  <MWHBN>
0.23288111

>  <MWHBN-cont>
0.98373122

>  <TPSA-cont>
0.655645968

>  <pka_cont>
0.97

>  <yes.1>


>  <BBB_SCORE>
4.606913823

>  <MMFF94 Energy>
27.428

$$$$
Compound 3052
Actelion Java MolfileCreator 2.0

  0  0  0  0  0  0              0 V3000
M  V30 BEGIN CTAB
M  V30 COUNTS 29 30 0 0 0
M  V30 BEGIN ATOM
M  V30 1 Cl -1.1481 -0.5739 3.4475 0
M  V30 2 C -1.8963 -0.8824 1.9226 0
M  V30 3 C -1.298 -0.4767 0.723 0
M  V30 4 C -3.117 -1.5596 1.9065 0
M  V30 5 O -0.1124 0.2247 0.7782 0
M  V30 6 C -1.9466 -0.7197 -0.4943 0
M  V30 7 C -3.744 -1.8159 0.6887 0
M  V30 8 C 0.8851 -0.1535 -0.0952 0
M  V30 9 C -3.1674 -1.3974 -0.51 0
M  V30 10 Cl -5.2487 -2.6499 0.6634 0
M  V30 11 C 1.5137 0.8473 -0.8533 0
M  V30 12 C 1.3127 -1.4834 -0.1748 0
M  V30 13 C 2.5569 0.4829 -1.7178 0
M  V30 14 C 1.0993 2.2946 -0.7312 0
M  V30 15 C 2.3465 -1.8301 -1.0431 0
M  V30 16 C 2.9648 -0.8489 -1.8158 0
M  V30 17 C 1.6088 2.9627 0.5217 0
M  V30 18 O 2.5522 2.6339 1.2208 0
M  V30 19 O 0.9165 4.0864 0.8115 0
M  V30 20 H -3.5767 -1.8821 2.8368 0
M  V30 21 H -1.512 -0.3812 -1.4316 0
M  V30 22 H -3.6645 -1.5902 -1.4577 0
M  V30 23 H 0.8567 -2.2498 0.4456 0
M  V30 24 H 3.0695 1.236 -2.3128 0
M  V30 25 H 1.4668 2.869 -1.5897 0
M  V30 26 H 0.0043 2.3532 -0.7518 0
M  V30 27 H 2.6799 -2.8627 -1.1062 0
M  V30 28 H 3.7788 -1.1185 -2.4844 0
M  V30 29 H 1.3431 4.4118 1.6326 0
M  V30 END ATOM
M  V30 BEGIN BOND
M  V30 1 1 1 2
M  V30 2 2 2 3
M  V30 3 1 2 4
M  V30 4 1 3 5
M  V30 5 1 3 6
M  V30 6 2 4 7
M  V30 7 1 5 8
M  V30 8 2 6 9
M  V30 9 1 7 10
M  V30 10 2 8 11
M  V30 11 1 8 12
M  V30 12 1 11 13
M  V30 13 1 11 14
M  V30 14 2 12 15
M  V30 15 2 13 16
M  V30 16 1 14 17
M  V30 17 2 17 18
M  V30 18 1 17 19
M  V30 19 1 7 9
M  V30 20 1 15 16
M  V30 21 1 4 20
M  V30 22 1 6 21
M  V30 23 1 9 22
M  V30 24 1 12 23
M  V30 25 1 13 24
M  V30 26 1 14 25
M  V30 27 1 14 26
M  V30 28 1 15 27
M  V30 29 1 16 28
M  V30 30 1 19 29
M  V30 END BOND
M  V30 END CTAB
M  END
>  <Column 1>
3928

>  <level_0>
7649

>  <index>
7650

>  <Unnamed: 0>
7650

>  <NO.>
7663

>  <Name>
fenclofenac

>  <IUPAC_name>
2-[2-(2-4-dichlorophenoxy)phenyl]acetic acid

>  <SMILES>
O=C(O)Cc1ccccc1Oc1ccc(Cl)cc1Cl

>  <CID>
65394

>  <logBB>


>  <BBB+/BBB->
BBB+

>  <Inchi>
InChI=1S/C14H10Cl2O3/c15-10-5-6-13(11(16)8-10)19-12-4-2-1-3-9(12)7-14(17)18/h1-6-8H-7H2-(H-17-18)

>  <threshold>


>  <reference>
R27|

>  <group>
C

>  <Class>
1

>  <ABC>
14.5

>  <ABCGG>
12.28

>  <nAcid>
1

>  <nBase>
0

>  <nAromAtom>
12

>  <nAromBond>
12

>  <nAtom>
29

>  <nHeavyAtom>
19

>  <nSpiro>
0

>  <nBridgehead>
0

>  <nHetero>
5

>  <nN>
0

>  <nO>
3

>  <nF>
0

>  <BalabanJ>
1.88

>  <BertzCT>
611.39

>  <nBonds>
30

>  <nBondsO>
20

>  <nBondsS>
17

>  <nBondsD>
1

>  <nBondsT>
0

>  <nBondsA>
12

>  <nBondsM>
13

>  <nBondsKS>
23

>  <nBondsKD>
7

>  <RNCG>
0.3

>  <RPCG>
0.19

>  <FCSP3>
0.07

>  <SZ>
25.33

>  <Sm>
24.74

>  <Sv>
21.04

>  <Sse>
29.96

>  <Sp>
22.04

>  <Si>
32.01

>  <MZ>
0.87

>  <Mm>
0.85

>  <Mv>
0.73

>  <Mse>
1.03

>  <Mp>
0.76

>  <Mi>
1.1

>  <NsCH3>
0

>  <NdCH2>
0

>  <NssCH2>
1

>  <NtCH>
0

>  <NdsCH>
0

>  <NaaCH>
7

>  <NsssCH>
0

>  <NddC>
0

>  <NtsC>
0

>  <NdssC>
1

>  <NaasC>
5

>  <NaaaC>
0

>  <NssssC>
0

>  <NsNH3>
0

>  <NsNH2>
0

>  <NssNH2>
0

>  <NdNH>
0

>  <NssNH>
0

>  <NaaNH>
0

>  <NtN>
0

>  <NsssNH>
0

>  <NdsN>
0

>  <NaaN>
0

>  <NsssN>
0

>  <NddsN>
0

>  <NaasN>
0

>  <NssssN>
0

>  <NsOH>
1

>  <NdO>
1

>  <NssO>
1

>  <NaaO>
0

>  <NsF>
0

>  <NsSiH3>
0

>  <NssSiH2>
0

>  <NsssSiH>
0

>  <NssssSi>
0

>  <NsPH2>
0

>  <NssPH>
0

>  <NsssP>
0

>  <NdsssP>
0

>  <NsssssP>
0

>  <NsSH>
0

>  <NdS>
0

>  <NssS>
0

>  <NaaS>
0

>  <NdssS>
0

>  <NddssS>
0

>  <NsCl>
2

>  <NsBr>
0

>  <NsI>
0

>  <fragCpx>
58.05

>  <fMF>
0.45

>  <nHBAcc>
2

>  <nHBDon>
1

>  <Kier1>
15.39

>  <Kier2>
7.14

>  <Lipinski>
1

>  <GhoseFilter>
1

>  <FilterItLogS>
-4.6

>  <VMcGowan>
198.39

>  <LabuteASA>
119.89

>  <PEOE_VSA1>
9.84

>  <PEOE_VSA2>
4.79

>  <PEOE_VSA3>
0

>  <PEOE_VSA4>
0

>  <PEOE_VSA5>
0

>  <PEOE_VSA6>
41.4

>  <PEOE_VSA7>
24.27

>  <PEOE_VSA8>
10.59

>  <PEOE_VSA9>
11.44

>  <PEOE_VSA10>
11.5

>  <PEOE_VSA11>
0

>  <PEOE_VSA12>
0

>  <PEOE_VSA13>
0

>  <SMR_VSA1>
14.64

>  <SMR_VSA2>
0

>  <SMR_VSA3>
0

>  <SMR_VSA4>
0

>  <SMR_VSA5>
6.42

>  <SMR_VSA6>
0

>  <SMR_VSA7>
58.07

>  <SMR_VSA8>
0

>  <SMR_VSA9>
11.5

>  <SlogP_VSA1>
4.74

>  <SlogP_VSA2>
11.08

>  <SlogP_VSA3>
11.22

>  <SlogP_VSA4>
0

>  <SlogP_VSA5>
5.56

>  <SlogP_VSA6>
42.46

>  <SlogP_VSA7>
10.05

>  <SlogP_VSA8>
0

>  <SlogP_VSA9>
0

>  <SlogP_VSA10>
0

>  <SlogP_VSA11>
11.5

>  <EState_VSA1>
5.97

>  <EState_VSA2>
6.42

>  <EState_VSA3>
27.11

>  <EState_VSA4>
0

>  <EState_VSA5>
0

>  <EState_VSA6>
42.46

>  <EState_VSA7>
0

>  <EState_VSA8>
0

>  <EState_VSA9>
33.05

>  <EState_VSA10>
4.79

>  <VSA_EState1>
5.64

>  <VSA_EState2>
10.79

>  <VSA_EState3>
9.73

>  <VSA_EState4>
0.58

>  <VSA_EState5>
-0.02

>  <VSA_EState6>
11.79

>  <VSA_EState7>
-0.11

>  <VSA_EState8>
0

>  <VSA_EState9>
0

>  <apol>
36.81

>  <bpol>
13.66

>  <nRing>
2

>  <nHRing>
0

>  <naRing>
2

>  <naHRing>
0

>  <nARing 2>
0

>  <nAHRing 2>
0

>  <nFRing>
0

>  <nFHRing>
0

>  <nFaRing>
0

>  <nFaHRing>
0

>  <nFARing 2>
0

>  <nFAHRing 2>
0

>  <nRot>
4

>  <SLogP>
4.41

>  <SMR>
74.32

>  <TopoPSA(NO)>
46.53

>  <TopoPSA>
46.53

>  <JGI1>
0.23

>  <JGI2>
0.07

>  <JGI3>
0.04

>  <JGI4>
0.05

>  <JGI5>
0.02

>  <Diameter>
10

>  <Radius>
5

>  <TMWC10>
110.2

>  <TSRW10>
51.91

>  <MW>
296

>  <AMW>
10.21

>  <WPath>
728

>  <WPol>
26

>  <Zagreb1>
94

>  <Zagreb2>
106

>  <mZagreb2>
4.22

>  <yes>


>  <nAR-cont>
0.336376

>  <nHA-cont>
0.998649058

>  <MWHBN>
0.174371458

>  <MWHBN-cont>
0.980330017

>  <TPSA-cont>
0.675191707

>  <pka_cont>
0.97

>  <yes.1>


>  <BBB_SCORE>
4.640903497

>  <MMFF94 Energy>
34.622

$$$$
Compound 3053
Actelion Java MolfileCreator 2.0

  0  0  0  0  0  0              0 V3000
M  V30 BEGIN CTAB
M  V30 COUNTS 55 57 0 0 0
M  V30 BEGIN ATOM
M  V30 1 O 1.1952 2.6309 0.6373 0
M  V30 2 C 1.0406 1.452 0.9734 0
M  V30 3 N 2.081 0.6854 1.5186 0
M  V30 4 C -0.3326 0.7536 0.8384 0 CFG=2
M  V30 5 N 1.7478 -0.5226 2.2168 0
M  V30 6 C 3.3831 1.3542 1.7291 0 CFG=2
M  V30 7 N -1.1886 1.5031 -0.1196 0
M  V30 8 C -1.0295 0.7809 2.2064 0
M  V30 9 C 0.9923 -0.2495 3.4524 0
M  V30 10 C 2.8997 -1.3987 2.4439 0
M  V30 11 C 3.8846 1.9329 0.3995 0
M  V30 12 C 4.5148 0.4566 2.2507 0
M  V30 13 C -0.7764 1.2965 -1.5329 0 CFG=2
M  V30 14 C -0.5128 -0.2813 3.1791 0
M  V30 15 C 4.0287 -0.664 3.1498 0
M  V30 16 O 3.7835 1.4332 -0.711 0
M  V30 17 O 4.568 3.088 0.563 0
M  V30 18 C -1.2175 2.5129 -2.3669 0
M  V30 19 C -1.3489 -0.0132 -2.1018 0
M  V30 20 O -1.6542 3.5727 -1.9412 0
M  V30 21 O -1.0241 2.3574 -3.6929 0
M  V30 22 C -2.8795 -0.0967 -2.0443 0
M  V30 23 C -3.3808 -1.3926 -2.636 0
M  V30 24 C -3.6205 -1.4995 -4.0123 0
M  V30 25 C -3.5844 -2.5132 -1.8201 0
M  V30 26 C -4.0666 -2.703 -4.5603 0
M  V30 27 C -4.0307 -3.7158 -2.3699 0
M  V30 28 C -4.2726 -3.8102 -3.7393 0
M  V30 29 H -0.2111 -0.2788 0.4961 0
M  V30 30 H 3.1948 2.1806 2.4261 0
M  V30 31 H -1.0632 2.5045 0.0855 0
M  V30 32 H -0.9244 1.7711 2.6694 0
M  V30 33 H -2.1065 0.6071 2.0792 0
M  V30 34 H 1.2863 0.7047 3.9081 0
M  V30 35 H 1.1891 -1.0224 4.2065 0
M  V30 36 H 3.2506 -1.7806 1.4765 0
M  V30 37 H 2.6034 -2.2842 3.0191 0
M  V30 38 H 5.2583 1.0673 2.7776 0
M  V30 39 H 5.0531 0.001 1.4078 0
M  V30 40 H 0.3178 1.28 -1.6103 0
M  V30 41 H -1.0421 -0.1622 4.1328 0
M  V30 42 H -0.7889 -1.2742 2.8001 0
M  V30 43 H 4.8533 -1.3561 3.3547 0
M  V30 44 H 3.7007 -0.2635 4.116 0
M  V30 45 H 4.7772 3.3632 -0.3545 0
M  V30 46 H -0.9183 -0.8672 -1.5636 0
M  V30 47 H -1.0195 -0.1305 -3.1426 0
M  V30 48 H -1.3077 3.2188 -4.0648 0
M  V30 49 H -3.2348 -0.0168 -1.0097 0
M  V30 50 H -3.3348 0.741 -2.5863 0
M  V30 51 H -3.459 -0.6443 -4.6645 0
M  V30 52 H -3.3958 -2.4533 -0.7506 0
M  V30 53 H -4.2519 -2.7764 -5.6285 0
M  V30 54 H -4.1888 -4.5792 -1.7294 0
M  V30 55 H -4.6198 -4.7468 -4.1668 0
M  V30 END ATOM
M  V30 BEGIN BOND
M  V30 1 2 1 2
M  V30 2 1 2 3
M  V30 3 1 2 4
M  V30 4 1 3 5
M  V30 5 1 3 6
M  V30 6 1 4 7
M  V30 7 1 4 8
M  V30 8 1 5 9
M  V30 9 1 5 10
M  V30 10 1 6 11
M  V30 11 1 6 12
M  V30 12 1 7 13
M  V30 13 1 8 14
M  V30 14 1 10 15
M  V30 15 2 11 16
M  V30 16 1 11 17
M  V30 17 1 13 18
M  V30 18 1 13 19
M  V30 19 2 18 20
M  V30 20 1 18 21
M  V30 21 1 19 22
M  V30 22 1 22 23
M  V30 23 2 23 24
M  V30 24 1 23 25
M  V30 25 1 24 26
M  V30 26 2 25 27
M  V30 27 2 26 28
M  V30 28 1 9 14
M  V30 29 1 12 15
M  V30 30 1 27 28
M  V30 31 1 4 29
M  V30 32 1 6 30
M  V30 33 1 7 31
M  V30 34 1 8 32
M  V30 35 1 8 33
M  V30 36 1 9 34
M  V30 37 1 9 35
M  V30 38 1 10 36
M  V30 39 1 10 37
M  V30 40 1 12 38
M  V30 41 1 12 39
M  V30 42 1 13 40
M  V30 43 1 14 41
M  V30 44 1 14 42
M  V30 45 1 15 43
M  V30 46 1 15 44
M  V30 47 1 17 45
M  V30 48 1 19 46
M  V30 49 1 19 47
M  V30 50 1 21 48
M  V30 51 1 22 49
M  V30 52 1 22 50
M  V30 53 1 24 51
M  V30 54 1 25 52
M  V30 55 1 26 53
M  V30 56 1 27 54
M  V30 57 1 28 55
M  V30 END BOND
M  V30 BEGIN COLLECTION
M  V30 MDLV30/STEABS ATOMS=(3 4 6 13)
M  V30 END COLLECTION
M  V30 END CTAB
M  END
>  <Column 1>
3930

>  <level_0>
7651

>  <index>
7652

>  <Unnamed: 0>
7652

>  <NO.>
7665

>  <Name>
(4s-7r)-7-[[(1s)-1-carboxy-3-phenylpropyl]amino]-6-oxo-1-2-3-4-7-8-9-10-octahydropyridazino[1-2-a]diazepine-4-carboxylic acid

>  <IUPAC_name>
(4s-7r)-7-[[(1s)-1-carboxy-3-phenylpropyl]amino]-6-oxo-1-2-3-4-7-8-9-10-octahydropyridazino[1-2-a]diazepine-4-carboxylic acid

>  <SMILES>
O=C(O)[C@H](CCc1ccccc1)N[C@@H]1CCCN2CCC[C@@H](C(=O)O)N2C1=O

>  <CID>
124489973

>  <logBB>


>  <BBB+/BBB->
BBB-

>  <Inchi>
InChI=1S/C20H27N3O5/c24-18-15(8-4-12-22-13-5-9-17(20(27)28)23(18)22)21-16(19(25)26)11-10-14-6-2-1-3-7-14/h1-3-6-7-15-17-21H-4-5-8-13H2-(H-25-26)(H-27-28)/t15--16+-17+/m1/s1

>  <threshold>


>  <reference>
R27|

>  <group>
C

>  <Class>
1

>  <ABC>
21.52

>  <ABCGG>
17.46

>  <nAcid>
2

>  <nBase>
1

>  <nAromAtom>
6

>  <nAromBond>
6

>  <nAtom>
55

>  <nHeavyAtom>
28

>  <nSpiro>
0

>  <nBridgehead>
0

>  <nHetero>
8

>  <nN>
3

>  <nO>
5

>  <nF>
0

>  <BalabanJ>
1.62

>  <BertzCT>
711.05

>  <nBonds>
57

>  <nBondsO>
30

>  <nBondsS>
48

>  <nBondsD>
3

>  <nBondsT>
0

>  <nBondsA>
6

>  <nBondsM>
9

>  <nBondsKS>
51

>  <nBondsKD>
6

>  <RNCG>
0.16

>  <RPCG>
0.11

>  <FCSP3>
0.55

>  <SZ>
34.67

>  <Sm>
32.42

>  <Sv>
33.16

>  <Sse>
55.63

>  <Sp>
35.16

>  <Si>
62.53

>  <MZ>
0.63

>  <Mm>
0.59

>  <Mv>
0.6

>  <Mse>
1.01

>  <Mp>
0.64

>  <Mi>
1.14

>  <NsCH3>
0

>  <NdCH2>
0

>  <NssCH2>
8

>  <NtCH>
0

>  <NdsCH>
0

>  <NaaCH>
5

>  <NsssCH>
3

>  <NddC>
0

>  <NtsC>
0

>  <NdssC>
3

>  <NaasC>
1

>  <NaaaC>
0

>  <NssssC>
0

>  <NsNH3>
0

>  <NsNH2>
0

>  <NssNH2>
0

>  <NdNH>
0

>  <NssNH>
1

>  <NaaNH>
0

>  <NtN>
0

>  <NsssNH>
0

>  <NdsN>
0

>  <NaaN>
0

>  <NsssN>
2

>  <NddsN>
0

>  <NaasN>
0

>  <NssssN>
0

>  <NsOH>
2

>  <NdO>
3

>  <NssO>
0

>  <NaaO>
0

>  <NsF>
0

>  <NsSiH3>
0

>  <NssSiH2>
0

>  <NsssSiH>
0

>  <NssssSi>
0

>  <NsPH2>
0

>  <NssPH>
0

>  <NsssP>
0

>  <NdsssP>
0

>  <NsssssP>
0

>  <NsSH>
0

>  <NdS>
0

>  <NssS>
0

>  <NaaS>
0

>  <NdssS>
0

>  <NddssS>
0

>  <NsCl>
0

>  <NsBr>
0

>  <NsI>
0

>  <fragCpx>
144.08

>  <fMF>
0.38

>  <nHBAcc>
5

>  <nHBDon>
3

>  <Kier1>
22.68

>  <Kier2>
10.86

>  <Lipinski>
1

>  <GhoseFilter>
1

>  <FilterItLogS>
-1.83

>  <VMcGowan>
293.57

>  <LabuteASA>
163.64

>  <PEOE_VSA1>
10.21

>  <PEOE_VSA2>
19.91

>  <PEOE_VSA3>
9.8

>  <PEOE_VSA4>
0

>  <PEOE_VSA5>
0

>  <PEOE_VSA6>
30.33

>  <PEOE_VSA7>
44.09

>  <PEOE_VSA8>
13.09

>  <PEOE_VSA9>
6.04

>  <PEOE_VSA10>
12.08

>  <PEOE_VSA11>
0

>  <PEOE_VSA12>
0

>  <PEOE_VSA13>
5.91

>  <SMR_VSA1>
24.6

>  <SMR_VSA2>
0

>  <SMR_VSA3>
15.33

>  <SMR_VSA4>
0

>  <SMR_VSA5>
56.65

>  <SMR_VSA6>
13.09

>  <SMR_VSA7>
35.9

>  <SMR_VSA8>
0

>  <SMR_VSA9>
0

>  <SlogP_VSA1>
5.32

>  <SlogP_VSA2>
69.29

>  <SlogP_VSA3>
20.8

>  <SlogP_VSA4>
0

>  <SlogP_VSA5>
37.67

>  <SlogP_VSA6>
30.33

>  <SlogP_VSA7>
0

>  <SlogP_VSA8>
0

>  <SlogP_VSA9>
0

>  <SlogP_VSA10>
0

>  <SlogP_VSA11>
0

>  <EState_VSA1>
30.06

>  <EState_VSA2>
5.91

>  <EState_VSA3>
45.19

>  <EState_VSA4>
11.98

>  <EState_VSA5>
5.01

>  <EState_VSA6>
0

>  <EState_VSA7>
35.34

>  <EState_VSA8>
5.32

>  <EState_VSA9>
0

>  <EState_VSA10>
24.6

>  <VSA_EState1>
0

>  <VSA_EState2>
36.47

>  <VSA_EState3>
25.3

>  <VSA_EState4>
1.04

>  <VSA_EState5>
-2.36

>  <VSA_EState6>
7.17

>  <VSA_EState7>
3.29

>  <VSA_EState8>
1.26

>  <VSA_EState9>
0

>  <apol>
58.71

>  <bpol>
32.54

>  <nRing>
3

>  <nHRing>
2

>  <naRing>
1

>  <naHRing>
0

>  <nARing 2>
2

>  <nAHRing 2>
2

>  <nFRing>
1

>  <nFHRing>
1

>  <nFaRing>
0

>  <nFaHRing>
0

>  <nFARing 2>
1

>  <nFAHRing 2>
1

>  <nRot>
7

>  <SLogP>
1.12

>  <SMR>
101.42

>  <TopoPSA(NO)>
110.18

>  <TopoPSA>
110.18

>  <JGI1>
0.17

>  <JGI2>
0.08

>  <JGI3>
0.05

>  <JGI4>
0.04

>  <JGI5>
0.02

>  <Diameter>
13

>  <Radius>
7

>  <TMWC10>
133.76

>  <TSRW10>
71.06

>  <MW>
389.2

>  <AMW>
7.08

>  <WPath>
2077

>  <WPol>
47

>  <Zagreb1>
142

>  <Zagreb2>
165

>  <mZagreb2>
6.25

>  <yes>


>  <nAR-cont>
1

>  <nHA-cont>
0.82432561

>  <MWHBN>
0.40551187

>  <MWHBN-cont>
0.454397713

>  <TPSA-cont>
0.230875182

>  <pka_cont>
0.97

>  <yes.1>


>  <BBB_SCORE>
3.452672544

>  <MMFF94 Energy>
130.09

$$$$
Compound 3054
Actelion Java MolfileCreator 2.0

  0  0  0  0  0  0              0 V3000
M  V30 BEGIN CTAB
M  V30 COUNTS 40 42 0 0 0
M  V30 BEGIN ATOM
M  V30 1 S -0.1651 -4.7158 -1.7354 0
M  V30 2 O -0.851 -5.6254 -0.84 0
M  V30 3 O 1.116 -5.0654 -2.3103 0
M  V30 4 N -1.2446 -4.3815 -2.9801 0
M  V30 5 C 0.0196 -3.1784 -0.857 0
M  V30 6 C -1.0462 -3.1103 -3.6316 0
M  V30 7 C -1.0034 -2.7479 -0.0089 0
M  V30 8 C 1.1925 -2.4323 -0.9899 0
M  V30 9 S 0.2657 -2.7229 -4.6509 0
M  V30 10 N -1.9774 -2.1988 -3.4992 0
M  V30 11 C -0.8616 -1.5402 0.6786 0
M  V30 12 C 1.323 -1.2224 -0.3017 0
M  V30 13 C -0.4065 -1.162 -4.8842 0
M  V30 14 C -1.6002 -1.0682 -4.1998 0
M  V30 15 C 0.2934 -0.7624 0.5239 0
M  V30 16 N 0.3681 0.4385 1.2576 0
M  V30 17 C 1.1695 1.5236 0.9706 0
M  V30 18 O 1.9295 1.6185 0.011 0
M  V30 19 C 1.14 2.6641 1.9307 0
M  V30 20 C -0.0125 3.2421 2.4809 0
M  V30 21 C 2.3898 3.2404 2.2266 0
M  V30 22 C -1.3633 2.718 2.2304 0
M  V30 23 C 0.0943 4.363 3.3243 0
M  V30 24 C 2.4908 4.3499 3.069 0
M  V30 25 O -1.7128 1.563 2.3818 0
M  V30 26 O -2.1994 3.6846 1.8207 0
M  V30 27 C 1.3425 4.9112 3.6185 0
M  V30 28 H -2.2044 -4.4957 -2.6635 0
M  V30 29 H -1.9076 -3.3376 0.1206 0
M  V30 30 H 2.0074 -2.7752 -1.6239 0
M  V30 31 H -1.6682 -1.2066 1.3285 0
M  V30 32 H 2.2464 -0.661 -0.4164 0
M  V30 33 H 0.0827 -0.4173 -5.4955 0
M  V30 34 H -2.2402 -0.194 -4.1816 0
M  V30 35 H -0.3102 0.5288 2.0128 0
M  V30 36 H 3.2972 2.8247 1.7886 0
M  V30 37 H -0.7984 4.8147 3.7534 0
M  V30 38 H 3.4666 4.7794 3.2854 0
M  V30 39 H -3.059 3.239 1.6672 0
M  V30 40 H 1.418 5.7794 4.2694 0
M  V30 END ATOM
M  V30 BEGIN BOND
M  V30 1 2 1 2
M  V30 2 2 1 3
M  V30 3 1 1 4
M  V30 4 1 1 5
M  V30 5 1 4 6
M  V30 6 2 5 7
M  V30 7 1 5 8
M  V30 8 1 6 9
M  V30 9 2 6 10
M  V30 10 1 7 11
M  V30 11 2 8 12
M  V30 12 1 9 13
M  V30 13 1 10 14
M  V30 14 2 11 15
M  V30 15 1 15 16
M  V30 16 1 16 17
M  V30 17 2 17 18
M  V30 18 1 17 19
M  V30 19 2 19 20
M  V30 20 1 19 21
M  V30 21 1 20 22
M  V30 22 1 20 23
M  V30 23 2 21 24
M  V30 24 2 22 25
M  V30 25 1 22 26
M  V30 26 2 23 27
M  V30 27 1 12 15
M  V30 28 2 13 14
M  V30 29 1 24 27
M  V30 30 1 4 28
M  V30 31 1 7 29
M  V30 32 1 8 30
M  V30 33 1 11 31
M  V30 34 1 12 32
M  V30 35 1 13 33
M  V30 36 1 14 34
M  V30 37 1 16 35
M  V30 38 1 21 36
M  V30 39 1 23 37
M  V30 40 1 24 38
M  V30 41 1 26 39
M  V30 42 1 27 40
M  V30 END BOND
M  V30 END CTAB
M  END
>  <Column 1>
3931

>  <level_0>
7653

>  <index>
7654

>  <Unnamed: 0>
7654

>  <NO.>
7667

>  <Name>
phthalylsulfathiazole

>  <IUPAC_name>
2-[[4-(1-3-thiazol-2-ylsulfamoyl)phenyl]carbamoyl]benzoic acid

>  <SMILES>
O=C(O)c1ccccc1C(=O)Nc1ccc(S(=O)(=O)Nc2nccs2)cc1

>  <CID>
4806

>  <logBB>


>  <BBB+/BBB->
BBB-

>  <Inchi>
InChI=1S/C17H13N3O5S2/c21-15(13-3-1-2-4-14(13)16(22)23)19-11-5-7-12(8-6-11)27(24-25)20-17-18-9-10-26-17/h1-10H-(H-18-20)(H-19-21)(H-22-23)

>  <threshold>


>  <reference>
R27|

>  <group>
C

>  <Class>
1

>  <ABC>
20.97

>  <ABCGG>
16.97

>  <nAcid>
1

>  <nBase>
0

>  <nAromAtom>
17

>  <nAromBond>
17

>  <nAtom>
40

>  <nHeavyAtom>
27

>  <nSpiro>
0

>  <nBridgehead>
0

>  <nHetero>
10

>  <nN>
3

>  <nO>
5

>  <nF>
0

>  <BalabanJ>
1.45

>  <BertzCT>
1078.02

>  <nBonds>
42

>  <nBondsO>
29

>  <nBondsS>
21

>  <nBondsD>
4

>  <nBondsT>
0

>  <nBondsA>
17

>  <nBondsM>
21

>  <nBondsKS>
30

>  <nBondsKD>
12

>  <RNCG>
0.18

>  <RPCG>
0.13

>  <FCSP3>
0

>  <SZ>
34.67

>  <Sm>
33.59

>  <Sv>
28.74

>  <Sse>
41.57

>  <Sp>
30.04

>  <Si>
44.46

>  <MZ>
0.87

>  <Mm>
0.84

>  <Mv>
0.72

>  <Mse>
1.04

>  <Mp>
0.75

>  <Mi>
1.11

>  <NsCH3>
0

>  <NdCH2>
0

>  <NssCH2>
0

>  <NtCH>
0

>  <NdsCH>
0

>  <NaaCH>
10

>  <NsssCH>
0

>  <NddC>
0

>  <NtsC>
0

>  <NdssC>
2

>  <NaasC>
5

>  <NaaaC>
0

>  <NssssC>
0

>  <NsNH3>
0

>  <NsNH2>
0

>  <NssNH2>
0

>  <NdNH>
0

>  <NssNH>
2

>  <NaaNH>
0

>  <NtN>
0

>  <NsssNH>
0

>  <NdsN>
0

>  <NaaN>
1

>  <NsssN>
0

>  <NddsN>
0

>  <NaasN>
0

>  <NssssN>
0

>  <NsOH>
1

>  <NdO>
4

>  <NssO>
0

>  <NaaO>
0

>  <NsF>
0

>  <NsSiH3>
0

>  <NssSiH2>
0

>  <NsssSiH>
0

>  <NssssSi>
0

>  <NsPH2>
0

>  <NssPH>
0

>  <NsssP>
0

>  <NdsssP>
0

>  <NsssssP>
0

>  <NsSH>
0

>  <NdS>
0

>  <NssS>
0

>  <NaaS>
1

>  <NdssS>
0

>  <NddssS>
1

>  <NsCl>
0

>  <NsBr>
0

>  <NsI>
0

>  <fragCpx>
139.1

>  <fMF>
0.53

>  <nHBAcc>
6

>  <nHBDon>
3

>  <Kier1>
21.7

>  <Kier2>
9.67

>  <Lipinski>
1

>  <GhoseFilter>
1

>  <FilterItLogS>
-4.09

>  <VMcGowan>
266.8

>  <LabuteASA>
158.11

>  <PEOE_VSA1>
10.42

>  <PEOE_VSA2>
9.52

>  <PEOE_VSA3>
18.2

>  <PEOE_VSA4>
0

>  <PEOE_VSA5>
11.34

>  <PEOE_VSA6>
12.13

>  <PEOE_VSA7>
36.4

>  <PEOE_VSA8>
17.26

>  <PEOE_VSA9>
16.02

>  <PEOE_VSA10>
0

>  <PEOE_VSA11>
5.13

>  <PEOE_VSA12>
0

>  <PEOE_VSA13>
15.93

>  <SMR_VSA1>
23.11

>  <SMR_VSA2>
0

>  <SMR_VSA3>
4.98

>  <SMR_VSA4>
0

>  <SMR_VSA5>
4.9

>  <SMR_VSA6>
10.04

>  <SMR_VSA7>
71.23

>  <SMR_VSA8>
0

>  <SMR_VSA9>
0

>  <SlogP_VSA1>
10.04

>  <SlogP_VSA2>
30.38

>  <SlogP_VSA3>
10.02

>  <SlogP_VSA4>
0

>  <SlogP_VSA5>
20.72

>  <SlogP_VSA6>
65

>  <SlogP_VSA7>
0

>  <SlogP_VSA8>
0

>  <SlogP_VSA9>
0

>  <SlogP_VSA10>
10.82

>  <SlogP_VSA11>
0

>  <EState_VSA1>
21.9

>  <EState_VSA2>
21.15

>  <EState_VSA3>
5.69

>  <EState_VSA4>
11.34

>  <EState_VSA5>
48.66

>  <EState_VSA6>
11.45

>  <EState_VSA7>
0

>  <EState_VSA8>
15.02

>  <EState_VSA9>
5.11

>  <EState_VSA10>
18.01

>  <VSA_EState1>
26.9

>  <VSA_EState2>
27.39

>  <VSA_EState3>
13.6

>  <VSA_EState4>
0.21

>  <VSA_EState5>
-1.82

>  <VSA_EState6>
11.29

>  <VSA_EState7>
1.48

>  <VSA_EState8>
0

>  <VSA_EState9>
-3.79

>  <apol>
50.17

>  <bpol>
26.17

>  <nRing>
3

>  <nHRing>
1

>  <naRing>
3

>  <naHRing>
1

>  <nARing 2>
0

>  <nAHRing 2>
0

>  <nFRing>
0

>  <nFHRing>
0

>  <nFaRing>
0

>  <nFaHRing>
0

>  <nFARing 2>
0

>  <nFAHRing 2>
0

>  <nRot>
6

>  <SLogP>
2.89

>  <SMR>
100.72

>  <TopoPSA(NO)>
125.46

>  <TopoPSA>
162.08

>  <JGI1>
0.22

>  <JGI2>
0.09

>  <JGI3>
0.06

>  <JGI4>
0.04

>  <JGI5>
0.03

>  <Diameter>
14

>  <Radius>
7

>  <TMWC10>
131.55

>  <TSRW10>
75.18

>  <MW>
403.03

>  <AMW>
10.08

>  <WPath>
2075

>  <WPol>
40

>  <Zagreb1>
140

>  <Zagreb2>
162

>  <mZagreb2>
5.88

>  <yes>


>  <nAR-cont>
0.336376

>  <nHA-cont>
0.860070871

>  <MWHBN>
0.448305247

>  <MWHBN-cont>
0.291996916

>  <TPSA-cont>
0

>  <pka_cont>
0.97

>  <yes.1>


>  <BBB_SCORE>
2.119442245

>  <MMFF94 Energy>
-74.166

$$$$
Compound 3055
Actelion Java MolfileCreator 2.0

  0  0  0  0  0  0              0 V3000
M  V30 BEGIN CTAB
M  V30 COUNTS 51 54 0 0 0
M  V30 BEGIN ATOM
M  V30 1 F 3.2942 -7.7264 1.0436 0
M  V30 2 C 2.9953 -6.4213 1.0526 0
M  V30 3 C 3.9365 -5.4987 0.6173 0
M  V30 4 C 1.7457 -6.0083 1.4998 0
M  V30 5 C 3.6204 -4.1382 0.6285 0
M  V30 6 C 1.426 -4.6464 1.5124 0
M  V30 7 C 2.3612 -3.6985 1.0727 0
M  V30 8 C 2.0877 -2.2239 1.0614 0
M  V30 9 O 3.0186 -1.4615 0.8029 0
M  V30 10 C 0.6799 -1.7078 1.3545 0
M  V30 11 C 0.7038 -0.2165 1.7162 0
M  V30 12 C -0.2336 -1.919 0.1447 0
M  V30 13 C -0.7113 0.3251 1.9149 0
M  V30 14 C -1.6178 -1.3136 0.3802 0
M  V30 15 N -1.5246 0.1141 0.7078 0
M  V30 16 C -2.8724 0.7051 0.8447 0
M  V30 17 C -2.9087 2.2516 0.7967 0
M  V30 18 N -2.2356 2.7921 -0.3819 0
M  V30 19 C -2.8777 2.6611 -1.6017 0
M  V30 20 C -0.9974 3.4083 -0.2116 0
M  V30 21 O -4.0024 2.18 -1.7421 0
M  V30 22 N -2.2085 3.1115 -2.7034 0
M  V30 23 O -0.4775 3.639 0.8783 0
M  V30 24 C -0.2965 3.8351 -1.438 0
M  V30 25 C -0.9352 3.6703 -2.6611 0
M  V30 26 C 0.9822 4.3987 -1.3824 0
M  V30 27 C -0.3071 4.0669 -3.8419 0
M  V30 28 C 1.6148 4.7947 -2.5615 0
M  V30 29 C 0.9704 4.6292 -3.7889 0
M  V30 30 H 4.9082 -5.8389 0.2737 0
M  V30 31 H 1.0281 -6.7498 1.838 0
M  V30 32 H 4.3639 -3.4192 0.287 0
M  V30 33 H 0.4433 -4.3605 1.8729 0
M  V30 34 H 0.285 -2.2382 2.2287 0
M  V30 35 H 1.2873 -0.0649 2.6326 0
M  V30 36 H 1.2048 0.3627 0.9289 0
M  V30 37 H -0.3438 -2.9858 -0.0787 0
M  V30 38 H 0.219 -1.4663 -0.7478 0
M  V30 39 H -1.1745 -0.1601 2.7841 0
M  V30 40 H -0.6297 1.3895 2.1512 0
M  V30 41 H -2.2019 -1.4486 -0.5383 0
M  V30 42 H -2.1333 -1.8646 1.1778 0
M  V30 43 H -3.3551 0.3606 1.7684 0
M  V30 44 H -3.499 0.3411 0.0208 0
M  V30 45 H -3.9574 2.5731 0.7714 0
M  V30 46 H -2.4755 2.6654 1.713 0
M  V30 47 H -2.6944 2.9989 -3.5828 0
M  V30 48 H 1.4853 4.5255 -0.4263 0
M  V30 49 H -0.7952 3.9435 -4.8045 0
M  V30 50 H 2.6106 5.2301 -2.5223 0
M  V30 51 H 1.4666 4.9379 -4.7061 0
M  V30 END ATOM
M  V30 BEGIN BOND
M  V30 1 1 1 2
M  V30 2 2 2 3
M  V30 3 1 2 4
M  V30 4 1 3 5
M  V30 5 2 4 6
M  V30 6 2 5 7
M  V30 7 1 7 8
M  V30 8 2 8 9
M  V30 9 1 8 10
M  V30 10 1 10 11
M  V30 11 1 10 12
M  V30 12 1 11 13
M  V30 13 1 12 14
M  V30 14 1 13 15
M  V30 15 1 15 16
M  V30 16 1 16 17
M  V30 17 1 17 18
M  V30 18 1 18 19
M  V30 19 1 18 20
M  V30 20 2 19 21
M  V30 21 1 19 22
M  V30 22 2 20 23
M  V30 23 1 20 24
M  V30 24 1 22 25
M  V30 25 1 24 26
M  V30 26 1 25 27
M  V30 27 2 26 28
M  V30 28 2 27 29
M  V30 29 1 6 7
M  V30 30 1 14 15
M  V30 31 2 24 25
M  V30 32 1 28 29
M  V30 33 1 3 30
M  V30 34 1 4 31
M  V30 35 1 5 32
M  V30 36 1 6 33
M  V30 37 1 10 34
M  V30 38 1 11 35
M  V30 39 1 11 36
M  V30 40 1 12 37
M  V30 41 1 12 38
M  V30 42 1 13 39
M  V30 43 1 13 40
M  V30 44 1 14 41
M  V30 45 1 14 42
M  V30 46 1 16 43
M  V30 47 1 16 44
M  V30 48 1 17 45
M  V30 49 1 17 46
M  V30 50 1 22 47
M  V30 51 1 26 48
M  V30 52 1 27 49
M  V30 53 1 28 50
M  V30 54 1 29 51
M  V30 END BOND
M  V30 END CTAB
M  END
>  <Column 1>
3932

>  <level_0>
7655

>  <index>
7656

>  <Unnamed: 0>
7656

>  <NO.>
7669

>  <Name>
ketanserin

>  <IUPAC_name>
3-[2-[4-(4-fluorobenzoyl)piperidin-1-yl]ethyl]-1h-quinazoline-2-4-dione

>  <SMILES>
O=C(c1ccc(F)cc1)C1CCN(CCn2c(=O)[nH]c3ccccc3c2=O)CC1

>  <CID>
3822

>  <logBB>


>  <BBB+/BBB->
BBB+

>  <Inchi>
InChI=1S/C22H22FN3O3/c23-17-7-5-15(6-8-17)20(27)16-9-11-25(12-10-16)13-14-26-21(28)18-3-1-2-4-19(18)24-22(26)29/h1-8-16H-9-14H2-(H-24-29)

>  <threshold>


>  <reference>
R27|

>  <group>
C

>  <Class>
1

>  <ABC>
22.82

>  <ABCGG>
16.44

>  <nAcid>
0

>  <nBase>
1

>  <nAromAtom>
16

>  <nAromBond>
17

>  <nAtom>
51

>  <nHeavyAtom>
29

>  <nSpiro>
0

>  <nBridgehead>
0

>  <nHetero>
7

>  <nN>
3

>  <nO>
3

>  <nF>
1

>  <BalabanJ>
1.21

>  <BertzCT>
1142.42

>  <nBonds>
54

>  <nBondsO>
32

>  <nBondsS>
34

>  <nBondsD>
3

>  <nBondsT>
0

>  <nBondsA>
17

>  <nBondsM>
20

>  <nBondsKS>
45

>  <nBondsKD>
9

>  <RNCG>
0.13

>  <RPCG>
0.14

>  <FCSP3>
0.32

>  <SZ>
34.67

>  <Sm>
32.92

>  <Sv>
33.02

>  <Sse>
51.7

>  <Sp>
34.53

>  <Si>
57.62

>  <MZ>
0.68

>  <Mm>
0.65

>  <Mv>
0.65

>  <Mse>
1.01

>  <Mp>
0.68

>  <Mi>
1.13

>  <NsCH3>
0

>  <NdCH2>
0

>  <NssCH2>
6

>  <NtCH>
0

>  <NdsCH>
0

>  <NaaCH>
8

>  <NsssCH>
1

>  <NddC>
0

>  <NtsC>
0

>  <NdssC>
1

>  <NaasC>
2

>  <NaaaC>
2

>  <NssssC>
0

>  <NsNH3>
0

>  <NsNH2>
0

>  <NssNH2>
0

>  <NdNH>
0

>  <NssNH>
0

>  <NaaNH>
1

>  <NtN>
0

>  <NsssNH>
0

>  <NdsN>
0

>  <NaaN>
0

>  <NsssN>
1

>  <NddsN>
0

>  <NaasN>
1

>  <NssssN>
0

>  <NsOH>
0

>  <NdO>
3

>  <NssO>
0

>  <NaaO>
0

>  <NsF>
1

>  <NsSiH3>
0

>  <NssSiH2>
0

>  <NsssSiH>
0

>  <NssssSi>
0

>  <NsPH2>
0

>  <NssPH>
0

>  <NsssP>
0

>  <NdsssP>
0

>  <NsssssP>
0

>  <NsSH>
0

>  <NdS>
0

>  <NssS>
0

>  <NaaS>
0

>  <NdssS>
0

>  <NddssS>
0

>  <NsCl>
0

>  <NsBr>
0

>  <NsI>
0

>  <fragCpx>
212.07

>  <fMF>
0.49

>  <nHBAcc>
5

>  <nHBDon>
1

>  <Kier1>
22.2

>  <Kier2>
10.08

>  <Lipinski>
1

>  <GhoseFilter>
1

>  <FilterItLogS>
-5.08

>  <VMcGowan>
288.01

>  <LabuteASA>
166.14

>  <PEOE_VSA1>
9.88

>  <PEOE_VSA2>
14.16

>  <PEOE_VSA3>
9.18

>  <PEOE_VSA4>
0

>  <PEOE_VSA5>
0

>  <PEOE_VSA6>
12.13

>  <PEOE_VSA7>
62.33

>  <PEOE_VSA8>
24.57

>  <PEOE_VSA9>
10.9

>  <PEOE_VSA10>
5.82

>  <PEOE_VSA11>
5.78

>  <PEOE_VSA12>
0

>  <PEOE_VSA13>
5.56

>  <SMR_VSA1>
9.18

>  <SMR_VSA2>
0

>  <SMR_VSA3>
14.45

>  <SMR_VSA4>
5.92

>  <SMR_VSA5>
19.39

>  <SMR_VSA6>
19.63

>  <SMR_VSA7>
80.75

>  <SMR_VSA8>
0

>  <SMR_VSA9>
0

>  <SlogP_VSA1>
11.25

>  <SlogP_VSA2>
39.87

>  <SlogP_VSA3>
6.54

>  <SlogP_VSA4>
11.74

>  <SlogP_VSA5>
23.2

>  <SlogP_VSA6>
58.12

>  <SlogP_VSA7>
0

>  <SlogP_VSA8>
10.9

>  <SlogP_VSA9>
0

>  <SlogP_VSA10>
4.39

>  <SlogP_VSA11>
0

>  <EState_VSA1>
5.69

>  <EState_VSA2>
23.08

>  <EState_VSA3>
42.4

>  <EState_VSA4>
13.09

>  <EState_VSA5>
28.83

>  <EState_VSA6>
24.27

>  <EState_VSA7>
0

>  <EState_VSA8>
9.88

>  <EState_VSA9>
0

>  <EState_VSA10>
18.77

>  <VSA_EState1>
14.28

>  <VSA_EState2>
42.35

>  <VSA_EState3>
0.5

>  <VSA_EState4>
0.39

>  <VSA_EState5>
-0.38

>  <VSA_EState6>
12.64

>  <VSA_EState7>
1.42

>  <VSA_EState8>
2.31

>  <VSA_EState9>
0

>  <apol>
57.67

>  <bpol>
29.78

>  <nRing>
4

>  <nHRing>
2

>  <naRing>
3

>  <naHRing>
1

>  <nARing 2>
1

>  <nAHRing 2>
1

>  <nFRing>
1

>  <nFHRing>
1

>  <nFaRing>
1

>  <nFaHRing>
1

>  <nFARing 2>
0

>  <nFAHRing 2>
0

>  <nRot>
5

>  <SLogP>
2.42

>  <SMR>
108.72

>  <TopoPSA(NO)>
75.17

>  <TopoPSA>
75.17

>  <JGI1>
0.17

>  <JGI2>
0.09

>  <JGI3>
0.05

>  <JGI4>
0.05

>  <JGI5>
0.03

>  <Diameter>
17

>  <Radius>
9

>  <TMWC10>
137.73

>  <TSRW10>
64.68

>  <MW>
395.16

>  <AMW>
7.75

>  <WPath>
2596

>  <WPol>
48

>  <Zagreb1>
154

>  <Zagreb2>
182

>  <mZagreb2>
6.33

>  <yes>


>  <nAR-cont>
0.816016

>  <nHA-cont>
0.785905698

>  <MWHBN>
0.301831639

>  <MWHBN-cont>
0.835231964

>  <TPSA-cont>
0.475266722

>  <pka_cont>
0.97

>  <yes.1>


>  <BBB_SCORE>
4.290303089

>  <MMFF94 Energy>
-9.3486

$$$$
Compound 3056
Actelion Java MolfileCreator 2.0

  0  0  0  0  0  0              0 V3000
M  V30 BEGIN CTAB
M  V30 COUNTS 31 33 0 0 0
M  V30 BEGIN ATOM
M  V30 1 O 0.8047 2.7382 -0.3218 0
M  V30 2 C 1.399 1.6717 -0.2486 0
M  V30 3 N 2.7774 1.5611 -0.2989 0
M  V30 4 C 0.8085 0.2402 -0.0788 0
M  V30 5 N 3.187 0.2627 -0.1851 0
M  V30 6 C 0.0611 0.0337 1.2601 0
M  V30 7 C -0.1 -0.0646 -1.2934 0
M  V30 8 C 2.1169 -0.6044 -0.0515 0
M  V30 9 C -0.1139 1.0578 2.2072 0
M  V30 10 C -0.476 -1.2347 1.5621 0
M  V30 11 C 0.2026 -1.0491 -2.2501 0
M  V30 12 C -1.2918 0.6696 -1.4654 0
M  V30 13 O 2.2402 -1.8164 0.057 0
M  V30 14 C -0.7957 0.8212 3.4051 0
M  V30 15 C -1.1553 -1.4687 2.7593 0
M  V30 16 C -0.65 -1.2864 -3.3328 0
M  V30 17 C -2.1409 0.4316 -2.5479 0
M  V30 18 C -1.3148 -0.44 3.6813 0
M  V30 19 C -1.8194 -0.5468 -3.4821 0
M  V30 20 H 3.4027 2.3508 -0.41 0
M  V30 21 H 4.1558 -0.0344 -0.1935 0
M  V30 22 H 0.2628 2.064 2.0386 0
M  V30 23 H -0.3662 -2.0605 0.8594 0
M  V30 24 H 1.0979 -1.6621 -2.1769 0
M  V30 25 H -1.5698 1.4435 -0.7499 0
M  V30 26 H -0.9243 1.6282 4.1223 0
M  V30 27 H -1.5591 -2.4559 2.9681 0
M  V30 28 H -0.3998 -2.0557 -4.0592 0
M  V30 29 H -3.0531 1.0122 -2.6578 0
M  V30 30 H -1.8451 -0.6202 4.6124 0
M  V30 31 H -2.4802 -0.7346 -4.3238 0
M  V30 END ATOM
M  V30 BEGIN BOND
M  V30 1 2 1 2
M  V30 2 1 2 3
M  V30 3 1 2 4
M  V30 4 1 3 5
M  V30 5 1 4 6
M  V30 6 1 4 7
M  V30 7 1 4 8
M  V30 8 2 6 9
M  V30 9 1 6 10
M  V30 10 2 7 11
M  V30 11 1 7 12
M  V30 12 2 8 13
M  V30 13 1 9 14
M  V30 14 2 10 15
M  V30 15 1 11 16
M  V30 16 2 12 17
M  V30 17 2 14 18
M  V30 18 2 16 19
M  V30 19 1 5 8
M  V30 20 1 15 18
M  V30 21 1 17 19
M  V30 22 1 3 20
M  V30 23 1 5 21
M  V30 24 1 9 22
M  V30 25 1 10 23
M  V30 26 1 11 24
M  V30 27 1 12 25
M  V30 28 1 14 26
M  V30 29 1 15 27
M  V30 30 1 16 28
M  V30 31 1 17 29
M  V30 32 1 18 30
M  V30 33 1 19 31
M  V30 END BOND
M  V30 END CTAB
M  END
>  <Column 1>
3934

>  <level_0>
7671

>  <index>
7672

>  <Unnamed: 0>
7672

>  <NO.>
7685

>  <Name>


>  <IUPAC_name>


>  <SMILES>
O=C1NNC(=O)C1(c1ccccc1)c1ccccc1

>  <CID>


>  <logBB>


>  <BBB+/BBB->
BBB+

>  <Inchi>
InChI=1S/C15H12N2O2/c18-13-15(14(19)17-16-13-11-7-3-1-4-8-11)12-9-5-2-6-10-12/h1-10H-(H-16-18)(H-17-19)

>  <threshold>


>  <reference>
R27|

>  <group>
C

>  <Class>
1

>  <ABC>
14.82

>  <ABCGG>
13.29

>  <nAcid>
0

>  <nBase>
0

>  <nAromAtom>
12

>  <nAromBond>
12

>  <nAtom>
31

>  <nHeavyAtom>
19

>  <nSpiro>
0

>  <nBridgehead>
0

>  <nHetero>
4

>  <nN>
2

>  <nO>
2

>  <nF>
0

>  <BalabanJ>
1.89

>  <BertzCT>
565.61

>  <nBonds>
33

>  <nBondsO>
21

>  <nBondsS>
19

>  <nBondsD>
2

>  <nBondsT>
0

>  <nBondsA>
12

>  <nBondsM>
14

>  <nBondsKS>
25

>  <nBondsKD>
8

>  <RNCG>
0.16

>  <RPCG>
0.15

>  <FCSP3>
0.07

>  <SZ>
22

>  <Sm>
21

>  <Sv>
21.2

>  <Sse>
31.31

>  <Sp>
22.07

>  <Si>
34.49

>  <MZ>
0.71

>  <Mm>
0.68

>  <Mv>
0.68

>  <Mse>
1.01

>  <Mp>
0.71

>  <Mi>
1.11

>  <NsCH3>
0

>  <NdCH2>
0

>  <NssCH2>
0

>  <NtCH>
0

>  <NdsCH>
0

>  <NaaCH>
10

>  <NsssCH>
0

>  <NddC>
0

>  <NtsC>
0

>  <NdssC>
2

>  <NaasC>
2

>  <NaaaC>
0

>  <NssssC>
1

>  <NsNH3>
0

>  <NsNH2>
0

>  <NssNH2>
0

>  <NdNH>
0

>  <NssNH>
2

>  <NaaNH>
0

>  <NtN>
0

>  <NsssNH>
0

>  <NdsN>
0

>  <NaaN>
0

>  <NsssN>
0

>  <NddsN>
0

>  <NaasN>
0

>  <NssssN>
0

>  <NsOH>
0

>  <NdO>
2

>  <NssO>
0

>  <NaaO>
0

>  <NsF>
0

>  <NsSiH3>
0

>  <NssSiH2>
0

>  <NsssSiH>
0

>  <NssssSi>
0

>  <NsPH2>
0

>  <NssPH>
0

>  <NsssP>
0

>  <NdsssP>
0

>  <NsssssP>
0

>  <NsSH>
0

>  <NdS>
0

>  <NssS>
0

>  <NaaS>
0

>  <NdssS>
0

>  <NddssS>
0

>  <NsCl>
0

>  <NsBr>
0

>  <NsI>
0

>  <fragCpx>
99.04

>  <fMF>
0.55

>  <nHBAcc>
2

>  <nHBDon>
2

>  <Kier1>
13.96

>  <Kier2>
5.78

>  <Lipinski>
1

>  <GhoseFilter>
1

>  <FilterItLogS>
-4.11

>  <VMcGowan>
186.93

>  <LabuteASA>
109.97

>  <PEOE_VSA1>
0

>  <PEOE_VSA2>
20.44

>  <PEOE_VSA3>
0

>  <PEOE_VSA4>
0

>  <PEOE_VSA5>
0

>  <PEOE_VSA6>
60.66

>  <PEOE_VSA7>
11.13

>  <PEOE_VSA8>
0

>  <PEOE_VSA9>
0

>  <PEOE_VSA10>
0

>  <PEOE_VSA11>
5.41

>  <PEOE_VSA12>
0

>  <PEOE_VSA13>
11.81

>  <SMR_VSA1>
9.59

>  <SMR_VSA2>
0

>  <SMR_VSA3>
10.85

>  <SMR_VSA4>
0

>  <SMR_VSA5>
5.41

>  <SMR_VSA6>
0

>  <SMR_VSA7>
71.79

>  <SMR_VSA8>
0

>  <SMR_VSA9>
0

>  <SlogP_VSA1>
10.85

>  <SlogP_VSA2>
11.81

>  <SlogP_VSA3>
15

>  <SlogP_VSA4>
0

>  <SlogP_VSA5>
11.13

>  <SlogP_VSA6>
60.66

>  <SlogP_VSA7>
0

>  <SlogP_VSA8>
0

>  <SlogP_VSA9>
0

>  <SlogP_VSA10>
0

>  <SlogP_VSA11>
0

>  <EState_VSA1>
5.41

>  <EState_VSA2>
11.81

>  <EState_VSA3>
11.13

>  <EState_VSA4>
0

>  <EState_VSA5>
0

>  <EState_VSA6>
24.27

>  <EState_VSA7>
36.4

>  <EState_VSA8>
10.85

>  <EState_VSA9>
0

>  <EState_VSA10>
9.59

>  <VSA_EState1>
0

>  <VSA_EState2>
24.63

>  <VSA_EState3>
0

>  <VSA_EState4>
4.86

>  <VSA_EState5>
-0.7

>  <VSA_EState6>
18.14

>  <VSA_EState7>
0

>  <VSA_EState8>
0

>  <VSA_EState9>
0

>  <apol>
36.86

>  <bpol>
13.77

>  <nRing>
3

>  <nHRing>
1

>  <naRing>
2

>  <naHRing>
0

>  <nARing 2>
1

>  <nAHRing 2>
1

>  <nFRing>
0

>  <nFHRing>
0

>  <nFaRing>
0

>  <nFaHRing>
0

>  <nFARing 2>
0

>  <nFAHRing 2>
0

>  <nRot>
2

>  <SLogP>
1.13

>  <SMR>
69.95

>  <TopoPSA(NO)>
58.2

>  <TopoPSA>
58.2

>  <JGI1>
0.17

>  <JGI2>
0.1

>  <JGI3>
0.07

>  <JGI4>
0.03

>  <JGI5>
0.01

>  <Diameter>
8

>  <Radius>
4

>  <TMWC10>
114.95

>  <TSRW10>
67.32

>  <MW>
252.09

>  <AMW>
8.13

>  <WPath>
605

>  <WPol>
34

>  <Zagreb1>
102

>  <Zagreb2>
126

>  <mZagreb2>
4.25

>  <yes>


>  <nAR-cont>
0.816016

>  <nHA-cont>
0.998649058

>  <MWHBN>
0.251931332

>  <MWHBN-cont>
0.956471012

>  <TPSA-cont>
0.59372786

>  <pka_cont>
0.97

>  <yes.1>


>  <BBB_SCORE>
4.921827296

>  <MMFF94 Energy>
126.7

$$$$
Compound 3057
Actelion Java MolfileCreator 2.0

  0  0  0  0  0  0              0 V3000
M  V30 BEGIN CTAB
M  V30 COUNTS 17 18 0 0 0
M  V30 BEGIN ATOM
M  V30 1 S 0.5862 2.095 -0.0837 0
M  V30 2 O 1.9755 2.3326 0.2193 0
M  V30 3 O -0.4861 2.987 0.2823 0
M  V30 4 N 0.4334 1.7347 -1.7107 0
M  V30 5 C 0.172 0.4819 0.416 0
M  V30 6 C -0.0492 0.4345 -1.9552 0
M  V30 7 C -0.1161 -0.3108 -0.6866 0
M  V30 8 C 0.1491 -0.0025 1.7105 0
M  V30 9 O -0.4225 0.0329 -3.0381 0
M  V30 10 C -0.4672 -1.6413 -0.5263 0
M  V30 11 C -0.1956 -1.345 1.8824 0
M  V30 12 C -0.5025 -2.1576 0.7738 0
M  V30 13 H 0.1362 2.4655 -2.3493 0
M  V30 14 H 0.3903 0.6316 2.5579 0
M  V30 15 H -0.7095 -2.264 -1.3829 0
M  V30 16 H -0.2283 -1.7707 2.8841 0
M  V30 17 H -0.7719 -3.2006 0.9327 0
M  V30 END ATOM
M  V30 BEGIN BOND
M  V30 1 2 1 2
M  V30 2 2 1 3
M  V30 3 1 1 4
M  V30 4 1 1 5
M  V30 5 1 4 6
M  V30 6 2 5 7
M  V30 7 1 5 8
M  V30 8 2 6 9
M  V30 9 1 7 10
M  V30 10 2 8 11
M  V30 11 2 10 12
M  V30 12 1 6 7
M  V30 13 1 11 12
M  V30 14 1 4 13
M  V30 15 1 8 14
M  V30 16 1 10 15
M  V30 17 1 11 16
M  V30 18 1 12 17
M  V30 END BOND
M  V30 END CTAB
M  END
>  <Column 1>
3935

>  <level_0>
7672

>  <index>
7673

>  <Unnamed: 0>
7673

>  <NO.>
7686

>  <Name>
saccharin

>  <IUPAC_name>
1-1-dioxo-1-2-benzothiazol-3-one

>  <SMILES>
O=C1NS(=O)(=O)c2ccccc21

>  <CID>
5143

>  <logBB>


>  <BBB+/BBB->
BBB+

>  <Inchi>
InChI=1S/C7H5NO3S/c9-7-5-3-1-2-4-6(5)12(10-11)8-7/h1-4H-(H-8-9)

>  <threshold>


>  <reference>
R27|

>  <group>
C

>  <Class>
1

>  <ABC>
9.48

>  <ABCGG>
8.81

>  <nAcid>
0

>  <nBase>
0

>  <nAromAtom>
6

>  <nAromBond>
6

>  <nAtom>
17

>  <nHeavyAtom>
12

>  <nSpiro>
0

>  <nBridgehead>
0

>  <nHetero>
5

>  <nN>
1

>  <nO>
3

>  <nF>
0

>  <BalabanJ>
2.16

>  <BertzCT>
449.47

>  <nBonds>
18

>  <nBondsO>
13

>  <nBondsS>
9

>  <nBondsD>
3

>  <nBondsT>
0

>  <nBondsA>
6

>  <nBondsM>
9

>  <nBondsKS>
12

>  <nBondsKD>
6

>  <RNCG>
0.24

>  <RPCG>
0.24

>  <FCSP3>
0

>  <SZ>
15.67

>  <Sm>
15.25

>  <Sv>
12.44

>  <Sse>
17.95

>  <Sp>
12.83

>  <Si>
18.88

>  <MZ>
0.92

>  <Mm>
0.9

>  <Mv>
0.73

>  <Mse>
1.06

>  <Mp>
0.75

>  <Mi>
1.11

>  <NsCH3>
0

>  <NdCH2>
0

>  <NssCH2>
0

>  <NtCH>
0

>  <NdsCH>
0

>  <NaaCH>
4

>  <NsssCH>
0

>  <NddC>
0

>  <NtsC>
0

>  <NdssC>
1

>  <NaasC>
2

>  <NaaaC>
0

>  <NssssC>
0

>  <NsNH3>
0

>  <NsNH2>
0

>  <NssNH2>
0

>  <NdNH>
0

>  <NssNH>
1

>  <NaaNH>
0

>  <NtN>
0

>  <NsssNH>
0

>  <NdsN>
0

>  <NaaN>
0

>  <NsssN>
0

>  <NddsN>
0

>  <NaasN>
0

>  <NssssN>
0

>  <NsOH>
0

>  <NdO>
3

>  <NssO>
0

>  <NaaO>
0

>  <NsF>
0

>  <NsSiH3>
0

>  <NssSiH2>
0

>  <NsssSiH>
0

>  <NssssSi>
0

>  <NsPH2>
0

>  <NssPH>
0

>  <NsssP>
0

>  <NdsssP>
0

>  <NsssssP>
0

>  <NsSH>
0

>  <NdS>
0

>  <NssS>
0

>  <NaaS>
0

>  <NdssS>
0

>  <NddssS>
1

>  <NsCl>
0

>  <NsBr>
0

>  <NsI>
0

>  <fragCpx>
37.05

>  <fMF>
0.53

>  <nHBAcc>
3

>  <nHBDon>
1

>  <Kier1>
8.59

>  <Kier2>
2.75

>  <Lipinski>
1

>  <GhoseFilter>
0

>  <FilterItLogS>
-1.93

>  <VMcGowan>
114.51

>  <LabuteASA>
69.26

>  <PEOE_VSA1>
0

>  <PEOE_VSA2>
4.79

>  <PEOE_VSA3>
13.14

>  <PEOE_VSA4>
0

>  <PEOE_VSA5>
0

>  <PEOE_VSA6>
12.13

>  <PEOE_VSA7>
12.13

>  <PEOE_VSA8>
0

>  <PEOE_VSA9>
5.56

>  <PEOE_VSA10>
4.9

>  <PEOE_VSA11>
0

>  <PEOE_VSA12>
0

>  <PEOE_VSA13>
15.93

>  <SMR_VSA1>
13.21

>  <SMR_VSA2>
0

>  <SMR_VSA3>
4.72

>  <SMR_VSA4>
0

>  <SMR_VSA5>
4.9

>  <SMR_VSA6>
0

>  <SMR_VSA7>
29.83

>  <SMR_VSA8>
0

>  <SMR_VSA9>
0

>  <SlogP_VSA1>
4.72

>  <SlogP_VSA2>
14.32

>  <SlogP_VSA3>
10.02

>  <SlogP_VSA4>
0

>  <SlogP_VSA5>
10.36

>  <SlogP_VSA6>
29.16

>  <SlogP_VSA7>
0

>  <SlogP_VSA8>
0

>  <SlogP_VSA9>
0

>  <SlogP_VSA10>
0

>  <SlogP_VSA11>
0

>  <EState_VSA1>
15.93

>  <EState_VSA2>
10.46

>  <EState_VSA3>
0

>  <EState_VSA4>
0

>  <EState_VSA5>
12.13

>  <EState_VSA6>
12.13

>  <EState_VSA7>
4.72

>  <EState_VSA8>
0

>  <EState_VSA9>
0

>  <EState_VSA10>
13.21

>  <VSA_EState1>
24.15

>  <VSA_EState2>
11.06

>  <VSA_EState3>
0

>  <VSA_EState4>
0.22

>  <VSA_EState5>
-0.55

>  <VSA_EState6>
6.09

>  <VSA_EState7>
0

>  <VSA_EState8>
0

>  <VSA_EState9>
-3.55

>  <apol>
21.43

>  <bpol>
13.11

>  <nRing>
2

>  <nHRing>
1

>  <naRing>
1

>  <naHRing>
0

>  <nARing 2>
1

>  <nAHRing 2>
1

>  <nFRing>
1

>  <nFHRing>
1

>  <nFaRing>
0

>  <nFaHRing>
0

>  <nFARing 2>
1

>  <nFAHRing 2>
1

>  <nRot>
0

>  <SLogP>
0.12

>  <SMR>
41.09

>  <TopoPSA(NO)>
63.24

>  <TopoPSA>
71.62

>  <JGI1>
0.27

>  <JGI2>
0.11

>  <JGI3>
0.11

>  <JGI4>
0.02

>  <JGI5>
0.06

>  <Diameter>
5

>  <Radius>
3

>  <TMWC10>
95.32

>  <TSRW10>
58.31

>  <MW>
183

>  <AMW>
10.76

>  <WPath>
170

>  <WPol>
18

>  <Zagreb1>
66

>  <Zagreb2>
79

>  <mZagreb2>
2.51

>  <yes>


>  <nAR-cont>
0.816016

>  <nHA-cont>
0.785745021

>  <MWHBN>
0.295688508

>  <MWHBN-cont>
0.853426166

>  <TPSA-cont>
0.500047927

>  <pka_cont>
0.97

>  <yes.1>


>  <BBB_SCORE>
4.366996123

>  <MMFF94 Energy>
-86.216

$$$$
Compound 3058
Actelion Java MolfileCreator 2.0

  0  0  0  0  0  0              0 V3000
M  V30 BEGIN CTAB
M  V30 COUNTS 28 28 0 0 0
M  V30 BEGIN ATOM
M  V30 1 Cl -0.5886 -0.7568 -5.5597 0
M  V30 2 C -0.2121 -0.3578 -3.9287 0
M  V30 3 C 0.6062 -1.2013 -3.1814 0
M  V30 4 C -0.7287 0.8052 -3.3629 0
M  V30 5 C 0.9102 -0.8779 -1.8575 0
M  V30 6 C -0.4235 1.1297 -2.039 0
M  V30 7 C 0.3996 0.2925 -1.2758 0
M  V30 8 C 0.7235 0.6227 0.1629 0
M  V30 9 C -0.1783 -0.1254 1.1587 0
M  V30 10 P 0.7924 -0.8952 2.4448 0
M  V30 11 P -1.5541 0.9024 1.6529 0
M  V30 12 O 0.1215 -1.6202 3.5609 0
M  V30 13 O 1.8388 0.1919 2.9842 0
M  V30 14 O 1.8021 -1.8863 1.6791 0
M  V30 15 O -2.2924 1.6679 0.6053 0
M  V30 16 O -1.0157 1.8816 2.7987 0
M  V30 17 O -2.5505 -0.0282 2.4884 0
M  V30 18 H 1.0089 -2.1095 -3.6208 0
M  V30 19 H -1.3716 1.4624 -3.9421 0
M  V30 20 H 1.5494 -1.5445 -1.2807 0
M  V30 21 H -0.8409 2.0389 -1.6094 0
M  V30 22 H 0.6527 1.706 0.3198 0
M  V30 23 H 1.7805 0.3788 0.3227 0
M  V30 24 H -0.6502 -0.9724 0.6445 0
M  V30 25 H 2.2697 -0.0763 3.8173 0
M  V30 26 H 2.2417 -2.509 2.2885 0
M  V30 27 H -1.6398 2.5989 3.0172 0
M  V30 28 H -3.4233 0.3746 2.6518 0
M  V30 END ATOM
M  V30 BEGIN BOND
M  V30 1 1 1 2
M  V30 2 2 2 3
M  V30 3 1 2 4
M  V30 4 1 3 5
M  V30 5 2 4 6
M  V30 6 2 5 7
M  V30 7 1 7 8
M  V30 8 1 8 9
M  V30 9 1 9 10
M  V30 10 1 9 11
M  V30 11 2 10 12
M  V30 12 1 10 13
M  V30 13 1 10 14
M  V30 14 2 11 15
M  V30 15 1 11 16
M  V30 16 1 11 17
M  V30 17 1 6 7
M  V30 18 1 3 18
M  V30 19 1 4 19
M  V30 20 1 5 20
M  V30 21 1 6 21
M  V30 22 1 8 22
M  V30 23 1 8 23
M  V30 24 1 9 24
M  V30 25 1 13 25
M  V30 26 1 14 26
M  V30 27 1 16 27
M  V30 28 1 17 28
M  V30 END BOND
M  V30 END CTAB
M  END
>  <Column 1>
3937

>  <level_0>
7678

>  <index>
7679

>  <Unnamed: 0>
7679

>  <NO.>
7692

>  <Name>
chembl33994

>  <IUPAC_name>
[2-(4-chlorophenyl)-1-phosphonoethyl]phosphonic acid

>  <SMILES>
O=P(O)(O)C(Cc1ccc(Cl)cc1)P(=O)(O)O

>  <CID>
13841527

>  <logBB>


>  <BBB+/BBB->
BBB-

>  <Inchi>
InChI=1S/C8H11ClO6P2/c9-7-3-1-6(2-4-7)5-8(16(10-11)12)17(13-14)15/h1-4-8H-5H2-(H2-10-11-12)(H2-13-14-15)

>  <threshold>


>  <reference>
R27|

>  <group>
C

>  <Class>
1

>  <ABC>
12.96

>  <ABCGG>
11.99

>  <nAcid>
4

>  <nBase>
0

>  <nAromAtom>
6

>  <nAromBond>
6

>  <nAtom>
28

>  <nHeavyAtom>
17

>  <nSpiro>
0

>  <nBridgehead>
0

>  <nHetero>
9

>  <nN>
0

>  <nO>
6

>  <nF>
0

>  <BalabanJ>
2.62

>  <BertzCT>
453.29

>  <nBonds>
28

>  <nBondsO>
17

>  <nBondsS>
20

>  <nBondsD>
2

>  <nBondsT>
0

>  <nBondsA>
6

>  <nBondsM>
8

>  <nBondsKS>
23

>  <nBondsKD>
5

>  <RNCG>
0.15

>  <RPCG>
0.16

>  <FCSP3>
0.25

>  <SZ>
25.67

>  <Sm>
25.02

>  <Sv>
18.73

>  <Sse>
29.46

>  <Sp>
20.93

>  <Si>
31.55

>  <MZ>
0.92

>  <Mm>
0.89

>  <Mv>
0.67

>  <Mse>
1.05

>  <Mp>
0.75

>  <Mi>
1.13

>  <NsCH3>
0

>  <NdCH2>
0

>  <NssCH2>
1

>  <NtCH>
0

>  <NdsCH>
0

>  <NaaCH>
4

>  <NsssCH>
1

>  <NddC>
0

>  <NtsC>
0

>  <NdssC>
0

>  <NaasC>
2

>  <NaaaC>
0

>  <NssssC>
0

>  <NsNH3>
0

>  <NsNH2>
0

>  <NssNH2>
0

>  <NdNH>
0

>  <NssNH>
0

>  <NaaNH>
0

>  <NtN>
0

>  <NsssNH>
0

>  <NdsN>
0

>  <NaaN>
0

>  <NsssN>
0

>  <NddsN>
0

>  <NaasN>
0

>  <NssssN>
0

>  <NsOH>
4

>  <NdO>
2

>  <NssO>
0

>  <NaaO>
0

>  <NsF>
0

>  <NsSiH3>
0

>  <NssSiH2>
0

>  <NsssSiH>
0

>  <NssssSi>
0

>  <NsPH2>
0

>  <NssPH>
0

>  <NsssP>
0

>  <NdsssP>
2

>  <NsssssP>
0

>  <NsSH>
0

>  <NdS>
0

>  <NssS>
0

>  <NaaS>
0

>  <NdssS>
0

>  <NddssS>
0

>  <NsCl>
1

>  <NsBr>
0

>  <NsI>
0

>  <fragCpx>
17.09

>  <fMF>
0.21

>  <nHBAcc>
2

>  <nHBDon>
4

>  <Kier1>
15.06

>  <Kier2>
5.33

>  <Lipinski>
1

>  <GhoseFilter>
1

>  <FilterItLogS>
-0.59

>  <VMcGowan>
188.2

>  <LabuteASA>
102.57

>  <PEOE_VSA1>
19.57

>  <PEOE_VSA2>
9.13

>  <PEOE_VSA3>
0

>  <PEOE_VSA4>
0

>  <PEOE_VSA5>
0

>  <PEOE_VSA6>
23.73

>  <PEOE_VSA7>
24.12

>  <PEOE_VSA8>
5.02

>  <PEOE_VSA9>
0

>  <PEOE_VSA10>
0

>  <PEOE_VSA11>
5.4

>  <PEOE_VSA12>
0

>  <PEOE_VSA13>
0

>  <SMR_VSA1>
28.7

>  <SMR_VSA2>
0

>  <SMR_VSA3>
0

>  <SMR_VSA4>
0

>  <SMR_VSA5>
11.82

>  <SMR_VSA6>
0

>  <SMR_VSA7>
34.85

>  <SMR_VSA8>
0

>  <SMR_VSA9>
0

>  <SlogP_VSA1>
0

>  <SlogP_VSA2>
24.97

>  <SlogP_VSA3>
15.55

>  <SlogP_VSA4>
0

>  <SlogP_VSA5>
5.56

>  <SlogP_VSA6>
24.27

>  <SlogP_VSA7>
5.02

>  <SlogP_VSA8>
0

>  <SlogP_VSA9>
0

>  <SlogP_VSA10>
0

>  <SlogP_VSA11>
0

>  <EState_VSA1>
27.01

>  <EState_VSA2>
0

>  <EState_VSA3>
10.59

>  <EState_VSA4>
0

>  <EState_VSA5>
24.27

>  <EState_VSA6>
0

>  <EState_VSA7>
0

>  <EState_VSA8>
0

>  <EState_VSA9>
31.17

>  <EState_VSA10>
9.13

>  <VSA_EState1>
22.05

>  <VSA_EState2>
35.69

>  <VSA_EState3>
-1.59

>  <VSA_EState4>
0.39

>  <VSA_EState5>
0

>  <VSA_EState6>
5.88

>  <VSA_EState7>
-0.41

>  <VSA_EState8>
0

>  <VSA_EState9>
-9.74

>  <apol>
34.95

>  <bpol>
28.96

>  <nRing>
1

>  <nHRing>
0

>  <naRing>
1

>  <naHRing>
0

>  <nARing 2>
0

>  <nAHRing 2>
0

>  <nFRing>
0

>  <nFHRing>
0

>  <nFaRing>
0

>  <nFaHRing>
0

>  <nFARing 2>
0

>  <nFAHRing 2>
0

>  <nRot>
4

>  <SLogP>
1.56

>  <SMR>
63.03

>  <TopoPSA(NO)>
115.06

>  <TopoPSA>
134.68

>  <JGI1>
0.41

>  <JGI2>
0.09

>  <JGI3>
0.08

>  <JGI4>
0.05

>  <JGI5>
0.03

>  <Diameter>
8

>  <Radius>
4

>  <TMWC10>
104.86

>  <TSRW10>
49.78

>  <MW>
299.97

>  <AMW>
10.71

>  <WPath>
514

>  <WPol>
23

>  <Zagreb1>
86

>  <Zagreb2>
95

>  <mZagreb2>
3.5

>  <yes>


>  <nAR-cont>
0.336376

>  <nHA-cont>
0.976740822

>  <MWHBN>
0.346427483

>  <MWHBN-cont>
0.683547292

>  <TPSA-cont>
0

>  <pka_cont>
0.97

>  <yes.1>


>  <BBB_SCORE>
2.823437759

>  <MMFF94 Energy>
-280.34

$$$$
Compound 3059
Actelion Java MolfileCreator 2.0

  0  0  0  0  0  0              0 V3000
M  V30 BEGIN CTAB
M  V30 COUNTS 56 60 0 0 0
M  V30 BEGIN ATOM
M  V30 1 Cl 2.0902 4.0227 7.7345 0
M  V30 2 C 2.4507 3.235 6.2457 0
M  V30 3 C 3.7597 3.2563 5.7601 0
M  V30 4 C 1.415 2.5807 5.5456 0
M  V30 5 C 3.9813 2.6091 4.566 0
M  V30 6 C 1.6684 1.9282 4.3321 0
M  V30 7 N 5.1751 2.4636 3.8665 0
M  V30 8 C 2.9641 1.9591 3.8599 0
M  V30 9 C 4.9411 1.7059 2.6985 0
M  V30 10 N 3.5371 1.4189 2.7001 0
M  V30 11 O 5.7962 1.3911 1.8868 0
M  V30 12 N 2.8945 0.6113 1.7673 0
M  V30 13 C 2.7441 1.266 0.4546 0
M  V30 14 C 2.4335 0.2055 -0.608 0
M  V30 15 C 1.6438 2.3341 0.4265 0
M  V30 16 C 1.0065 -0.3361 -0.5062 0
M  V30 17 C 0.2379 1.7371 0.4933 0
M  V30 18 N 0.014 0.7483 -0.5722 0
M  V30 19 C -1.3698 0.244 -0.5154 0
M  V30 20 C -1.7917 -0.4982 -1.7887 0
M  V30 21 C -3.2613 -0.9157 -1.7079 0
M  V30 22 N -3.7033 -1.5818 -2.9061 0
M  V30 23 C -4.3742 -0.9594 -3.979 0
M  V30 24 C -3.4865 -2.9279 -3.2313 0
M  V30 25 O -4.7226 0.2056 -4.0694 0
M  V30 26 N -4.5723 -1.9509 -4.953 0
M  V30 27 C -4.0296 -3.1468 -4.4981 0
M  V30 28 C -2.872 -3.9403 -2.5271 0
M  V30 29 C -3.987 -4.3729 -5.1202 0
M  V30 30 C -2.8153 -5.1986 -3.1382 0
M  V30 31 C -3.3666 -5.4124 -4.4202 0
M  V30 32 H 4.5575 3.7544 6.297 0
M  V30 33 H 0.4051 2.5804 5.9516 0
M  V30 34 H 0.8707 1.4264 3.8002 0
M  V30 35 H 6.0863 2.8052 4.1261 0
M  V30 36 H 1.9997 0.2957 2.1298 0
M  V30 37 H 3.6968 1.734 0.1767 0
M  V30 38 H 3.1484 -0.6242 -0.5418 0
M  V30 39 H 2.5743 0.6498 -1.6029 0
M  V30 40 H 1.7778 3.0574 1.2391 0
M  V30 41 H 1.7381 2.9084 -0.5052 0
M  V30 42 H 0.8692 -1.0305 -1.3415 0
M  V30 43 H 0.8872 -0.9174 0.4168 0
M  V30 44 H 0.0607 1.2897 1.4788 0
M  V30 45 H -0.4771 2.5623 0.3852 0
M  V30 46 H -2.0536 1.095 -0.3961 0
M  V30 47 H -1.5111 -0.399 0.363 0
M  V30 48 H -1.6398 0.1464 -2.6637 0
M  V30 49 H -1.1756 -1.3904 -1.9417 0
M  V30 50 H -3.8841 -0.0243 -1.5662 0
M  V30 51 H -3.4359 -1.5754 -0.8503 0
M  V30 52 H -5.0284 -1.7826 -5.834 0
M  V30 53 H -2.4468 -3.7818 -1.544 0
M  V30 54 H -4.4102 -4.5319 -6.1043 0
M  V30 55 H -2.338 -6.0273 -2.6186 0
M  V30 56 H -3.3058 -6.4019 -4.8689 0
M  V30 END ATOM
M  V30 BEGIN BOND
M  V30 1 1 1 2
M  V30 2 2 2 3
M  V30 3 1 2 4
M  V30 4 1 3 5
M  V30 5 2 4 6
M  V30 6 1 5 7
M  V30 7 2 5 8
M  V30 8 1 7 9
M  V30 9 1 8 10
M  V30 10 2 9 11
M  V30 11 1 10 12
M  V30 12 1 12 13
M  V30 13 1 13 14
M  V30 14 1 13 15
M  V30 15 1 14 16
M  V30 16 1 15 17
M  V30 17 1 16 18
M  V30 18 1 18 19
M  V30 19 1 19 20
M  V30 20 1 20 21
M  V30 21 1 21 22
M  V30 22 1 22 23
M  V30 23 1 22 24
M  V30 24 2 23 25
M  V30 25 1 23 26
M  V30 26 2 24 27
M  V30 27 1 24 28
M  V30 28 1 27 29
M  V30 29 2 28 30
M  V30 30 2 29 31
M  V30 31 1 6 8
M  V30 32 1 9 10
M  V30 33 1 17 18
M  V30 34 1 26 27
M  V30 35 1 30 31
M  V30 36 1 3 32
M  V30 37 1 4 33
M  V30 38 1 6 34
M  V30 39 1 7 35
M  V30 40 1 12 36
M  V30 41 1 13 37
M  V30 42 1 14 38
M  V30 43 1 14 39
M  V30 44 1 15 40
M  V30 45 1 15 41
M  V30 46 1 16 42
M  V30 47 1 16 43
M  V30 48 1 17 44
M  V30 49 1 17 45
M  V30 50 1 19 46
M  V30 51 1 19 47
M  V30 52 1 20 48
M  V30 53 1 20 49
M  V30 54 1 21 50
M  V30 55 1 21 51
M  V30 56 1 26 52
M  V30 57 1 28 53
M  V30 58 1 29 54
M  V30 59 1 30 55
M  V30 60 1 31 56
M  V30 END BOND
M  V30 END CTAB
M  END
>  <Column 1>
3939

>  <level_0>
7683

>  <index>
7684

>  <Unnamed: 0>
7684

>  <NO.>
7697

>  <Name>


>  <IUPAC_name>


>  <SMILES>
O=c1[nH]c2ccccc2n1CCCN1CCC(Nn2c(=O)[nH]c3cc(Cl)ccc32)CC1

>  <CID>


>  <logBB>


>  <BBB+/BBB->
BBB+

>  <Inchi>
InChI=1S/C22H25ClN6O2/c23-15-6-7-20-18(14-15)25-22(31)29(20)26-16-8-12-27(13-9-16)10-3-11-28-19-5-2-1-4-17(19)24-21(28)30/h1-2-4-7-14-16-26H-3-8-13H2-(H-24-30)(H-25-31)

>  <threshold>


>  <reference>
R27|

>  <group>
C

>  <Class>
1

>  <ABC>
24.83

>  <ABCGG>
17.88

>  <nAcid>
0

>  <nBase>
1

>  <nAromAtom>
18

>  <nAromBond>
20

>  <nAtom>
56

>  <nHeavyAtom>
31

>  <nSpiro>
0

>  <nBridgehead>
0

>  <nHetero>
9

>  <nN>
6

>  <nO>
2

>  <nF>
0

>  <BalabanJ>
1.02

>  <BertzCT>
1325.27

>  <nBonds>
60

>  <nBondsO>
35

>  <nBondsS>
38

>  <nBondsD>
2

>  <nBondsT>
0

>  <nBondsA>
20

>  <nBondsM>
22

>  <nBondsKS>
52

>  <nBondsKD>
8

>  <RNCG>
0.12

>  <RPCG>
0.13

>  <FCSP3>
0.36

>  <SZ>
38.67

>  <Sm>
36.71

>  <Sv>
35.84

>  <Sse>
56.5

>  <Sp>
38.2

>  <Si>
63.51

>  <MZ>
0.69

>  <Mm>
0.66

>  <Mv>
0.64

>  <Mse>
1.01

>  <Mp>
0.68

>  <Mi>
1.13

>  <NsCH3>
0

>  <NdCH2>
0

>  <NssCH2>
7

>  <NtCH>
0

>  <NdsCH>
0

>  <NaaCH>
7

>  <NsssCH>
1

>  <NddC>
0

>  <NtsC>
0

>  <NdssC>
0

>  <NaasC>
1

>  <NaaaC>
4

>  <NssssC>
0

>  <NsNH3>
0

>  <NsNH2>
0

>  <NssNH2>
0

>  <NdNH>
0

>  <NssNH>
1

>  <NaaNH>
2

>  <NtN>
0

>  <NsssNH>
0

>  <NdsN>
0

>  <NaaN>
0

>  <NsssN>
1

>  <NddsN>
0

>  <NaasN>
2

>  <NssssN>
0

>  <NsOH>
0

>  <NdO>
2

>  <NssO>
0

>  <NaaO>
0

>  <NsF>
0

>  <NsSiH3>
0

>  <NssSiH2>
0

>  <NsssSiH>
0

>  <NssssSi>
0

>  <NsPH2>
0

>  <NssPH>
0

>  <NsssP>
0

>  <NdsssP>
0

>  <NsssssP>
0

>  <NsSH>
0

>  <NdS>
0

>  <NssS>
0

>  <NaaS>
0

>  <NdssS>
0

>  <NddssS>
0

>  <NsCl>
1

>  <NsBr>
0

>  <NsI>
0

>  <fragCpx>
295.09

>  <fMF>
0.5

>  <nHBAcc>
6

>  <nHBDon>
3

>  <Kier1>
22.78

>  <Kier2>
10.09

>  <Lipinski>
1

>  <GhoseFilter>
1

>  <FilterItLogS>
-5.31

>  <VMcGowan>
316

>  <LabuteASA>
182.95

>  <PEOE_VSA1>
20.29

>  <PEOE_VSA2>
4.57

>  <PEOE_VSA3>
14.27

>  <PEOE_VSA4>
0

>  <PEOE_VSA5>
0

>  <PEOE_VSA6>
23.73

>  <PEOE_VSA7>
56.14

>  <PEOE_VSA8>
30.7

>  <PEOE_VSA9>
22.07

>  <PEOE_VSA10>
0

>  <PEOE_VSA11>
0

>  <PEOE_VSA12>
0

>  <PEOE_VSA13>
0

>  <SMR_VSA1>
0

>  <SMR_VSA2>
0

>  <SMR_VSA3>
24.11

>  <SMR_VSA4>
0

>  <SMR_VSA5>
31.85

>  <SMR_VSA6>
25.06

>  <SMR_VSA7>
68.46

>  <SMR_VSA8>
0

>  <SMR_VSA9>
0

>  <SlogP_VSA1>
16.81

>  <SlogP_VSA2>
49.79

>  <SlogP_VSA3>
6.54

>  <SlogP_VSA4>
0

>  <SlogP_VSA5>
19.26

>  <SlogP_VSA6>
52.05

>  <SlogP_VSA7>
5.02

>  <SlogP_VSA8>
22.07

>  <SlogP_VSA9>
0

>  <SlogP_VSA10>
0

>  <SlogP_VSA11>
0

>  <EState_VSA1>
0

>  <EState_VSA2>
17.42

>  <EState_VSA3>
11.57

>  <EState_VSA4>
60.96

>  <EState_VSA5>
0

>  <EState_VSA6>
16.81

>  <EState_VSA7>
34.9

>  <EState_VSA8>
20.29

>  <EState_VSA9>
11.6

>  <EState_VSA10>
9.59

>  <VSA_EState1>
3.41

>  <VSA_EState2>
32.71

>  <VSA_EState3>
0.6

>  <VSA_EState4>
6.53

>  <VSA_EState5>
0

>  <VSA_EState6>
13.43

>  <VSA_EState7>
2.84

>  <VSA_EState8>
3.57

>  <VSA_EState9>
0

>  <apol>
63.79

>  <bpol>
33.03

>  <nRing>
5

>  <nHRing>
3

>  <naRing>
4

>  <naHRing>
2

>  <nARing 2>
1

>  <nAHRing 2>
1

>  <nFRing>
2

>  <nFHRing>
2

>  <nFaRing>
2

>  <nFaHRing>
2

>  <nFARing 2>
0

>  <nFAHRing 2>
0

>  <nRot>
6

>  <SLogP>
2.72

>  <SMR>
123.57

>  <TopoPSA(NO)>
90.85

>  <TopoPSA>
90.85

>  <JGI1>
0.17

>  <JGI2>
0.07

>  <JGI3>
0.06

>  <JGI4>
0.04

>  <JGI5>
0.03

>  <Diameter>
18

>  <Radius>
9

>  <TMWC10>
144.15

>  <TSRW10>
83.42

>  <MW>
440.17

>  <AMW>
7.86

>  <WPath>
3231

>  <WPol>
49

>  <Zagreb1>
170

>  <Zagreb2>
203

>  <mZagreb2>
6.67

>  <yes>


>  <nAR-cont>
0.816016

>  <nHA-cont>
0.702745138

>  <MWHBN>
0.428975303

>  <MWHBN-cont>
0.363597852

>  <TPSA-cont>
0.365810586

>  <pka_cont>
0.97

>  <yes.1>


>  <BBB_SCORE>
3.280779087

>  <MMFF94 Energy>
16.146

$$$$
Compound 3060
Actelion Java MolfileCreator 2.0

  0  0  0  0  0  0              0 V3000
M  V30 BEGIN CTAB
M  V30 COUNTS 62 66 0 0 0
M  V30 BEGIN ATOM
M  V30 1 O -4.9531 -5.0331 0.3189 0
M  V30 2 C -3.8685 -5.2414 -0.1982 0
M  V30 3 N -2.7595 -4.3746 -0.2655 0
M  V30 4 N -3.4933 -6.4196 -0.8645 0
M  V30 5 C -1.7337 -5.0098 -0.9784 0
M  V30 6 C -2.7209 -3.0283 0.2512 0
M  V30 7 C -2.1955 -6.2755 -1.3412 0
M  V30 8 C -0.4712 -4.5775 -1.3215 0
M  V30 9 C -3.132 -2.0067 -0.8092 0
M  V30 10 C -1.429 -7.1653 -2.0575 0
M  V30 11 C 0.3295 -5.4644 -2.0506 0
M  V30 12 C -3.1507 -0.5741 -0.2653 0
M  V30 13 C -0.144 -6.744 -2.4143 0
M  V30 14 N -1.8548 -0.121 0.2646 0
M  V30 15 C -2.0221 1.1562 0.9893 0
M  V30 16 C -0.855 0.0777 -0.8034 0
M  V30 17 C -0.6837 1.7072 1.5312 0
M  V30 18 C 0.4828 0.6332 -0.2603 0
M  V30 19 N 0.3201 1.9216 0.4582 0
M  V30 20 C 1.6217 2.3887 1.0279 0
M  V30 21 C 2.7292 2.5486 -0.0239 0
M  V30 22 C 1.5043 3.6851 1.8428 0
M  V30 23 C 2.5075 3.2283 -1.2345 0
M  V30 24 C 4.0125 2.0329 0.2271 0
M  V30 25 C 0.7984 4.8012 1.3606 0
M  V30 26 C 2.1381 3.7852 3.0935 0
M  V30 27 C 3.5331 3.3758 -2.1699 0
M  V30 28 C 5.0373 2.182 -0.7097 0
M  V30 29 C 0.7181 5.9756 2.1112 0
M  V30 30 C 2.0569 4.961 3.8426 0
M  V30 31 C 4.7969 2.8521 -1.9075 0
M  V30 32 C 1.3465 6.0546 3.3519 0
M  V30 33 H -4.0988 -7.216 -0.9709 0
M  V30 34 H -3.4183 -2.971 1.0955 0
M  V30 35 H -1.717 -2.8296 0.6412 0
M  V30 36 H -0.1046 -3.5972 -1.0429 0
M  V30 37 H -4.1389 -2.2514 -1.1724 0
M  V30 38 H -2.4765 -2.0803 -1.6844 0
M  V30 39 H -1.7969 -8.1453 -2.3352 0
M  V30 40 H 1.3343 -5.165 -2.3423 0
M  V30 41 H -3.5085 0.1052 -1.05 0
M  V30 42 H -3.8984 -0.5421 0.5384 0
M  V30 43 H 0.5026 -7.4108 -2.9811 0
M  V30 44 H -2.4845 1.9119 0.3394 0
M  V30 45 H -2.6944 1.0042 1.8428 0
M  V30 46 H -0.6354 -0.8774 -1.2928 0
M  V30 47 H -1.2404 0.76 -1.5731 0
M  V30 48 H -0.9138 2.6495 2.0395 0
M  V30 49 H -0.2939 1.0147 2.29 0
M  V30 50 H 0.9391 -0.119 0.3979 0
M  V30 51 H 1.1456 0.7531 -1.1236 0
M  V30 52 H 1.9513 1.6016 1.7231 0
M  V30 53 H 1.5248 3.6392 -1.4546 0
M  V30 54 H 4.2236 1.5142 1.1594 0
M  V30 55 H 0.2988 4.7527 0.3958 0
M  V30 56 H 2.7041 2.9463 3.4916 0
M  V30 57 H 3.3444 3.9024 -3.1015 0
M  V30 58 H 6.0253 1.7796 -0.5022 0
M  V30 59 H 0.1661 6.8283 1.7251 0
M  V30 60 H 2.5519 5.025 4.8081 0
M  V30 61 H 5.5957 2.9705 -2.6345 0
M  V30 62 H 1.2857 6.9699 3.9345 0
M  V30 END ATOM
M  V30 BEGIN BOND
M  V30 1 2 1 2
M  V30 2 1 2 3
M  V30 3 1 2 4
M  V30 4 1 3 5
M  V30 5 1 3 6
M  V30 6 1 4 7
M  V30 7 1 5 8
M  V30 8 1 6 9
M  V30 9 1 7 10
M  V30 10 2 8 11
M  V30 11 1 9 12
M  V30 12 2 10 13
M  V30 13 1 12 14
M  V30 14 1 14 15
M  V30 15 1 14 16
M  V30 16 1 15 17
M  V30 17 1 16 18
M  V30 18 1 17 19
M  V30 19 1 19 20
M  V30 20 1 20 21
M  V30 21 1 20 22
M  V30 22 2 21 23
M  V30 23 1 21 24
M  V30 24 2 22 25
M  V30 25 1 22 26
M  V30 26 1 23 27
M  V30 27 2 24 28
M  V30 28 1 25 29
M  V30 29 2 26 30
M  V30 30 2 27 31
M  V30 31 2 29 32
M  V30 32 2 5 7
M  V30 33 1 11 13
M  V30 34 1 18 19
M  V30 35 1 28 31
M  V30 36 1 30 32
M  V30 37 1 4 33
M  V30 38 1 6 34
M  V30 39 1 6 35
M  V30 40 1 8 36
M  V30 41 1 9 37
M  V30 42 1 9 38
M  V30 43 1 10 39
M  V30 44 1 11 40
M  V30 45 1 12 41
M  V30 46 1 12 42
M  V30 47 1 13 43
M  V30 48 1 15 44
M  V30 49 1 15 45
M  V30 50 1 16 46
M  V30 51 1 16 47
M  V30 52 1 17 48
M  V30 53 1 17 49
M  V30 54 1 18 50
M  V30 55 1 18 51
M  V30 56 1 20 52
M  V30 57 1 23 53
M  V30 58 1 24 54
M  V30 59 1 25 55
M  V30 60 1 26 56
M  V30 61 1 27 57
M  V30 62 1 28 58
M  V30 63 1 29 59
M  V30 64 1 30 60
M  V30 65 1 31 61
M  V30 66 1 32 62
M  V30 END BOND
M  V30 END CTAB
M  END
>  <Column 1>
3940

>  <level_0>
7684

>  <index>
7685

>  <Unnamed: 0>
7685

>  <NO.>
7698

>  <Name>
oxatomide

>  <IUPAC_name>
3-[3-(4-benzhydrylpiperazin-1-yl)propyl]-1h-benzimidazol-2-one

>  <SMILES>
O=c1[nH]c2ccccc2n1CCCN1CCN(C(c2ccccc2)c2ccccc2)CC1

>  <CID>
4615

>  <logBB>


>  <BBB+/BBB->
BBB+

>  <Inchi>
InChI=1S/C27H30N4O/c32-27-28-24-14-7-8-15-25(24)31(27)17-9-16-29-18-20-30(21-19-29)26(22-10-3-1-4-11-22)23-12-5-2-6-13-23/h1-8-10-15-26H-9-16-21H2-(H-28-32)

>  <threshold>


>  <reference>
R27|

>  <group>
C

>  <Class>
1

>  <ABC>
25.32

>  <ABCGG>
18.3

>  <nAcid>
0

>  <nBase>
2

>  <nAromAtom>
21

>  <nAromBond>
22

>  <nAtom>
62

>  <nHeavyAtom>
32

>  <nSpiro>
0

>  <nBridgehead>
0

>  <nHetero>
5

>  <nN>
4

>  <nO>
1

>  <nF>
0

>  <BalabanJ>
1.09

>  <BertzCT>
1151.05

>  <nBonds>
66

>  <nBondsO>
36

>  <nBondsS>
43

>  <nBondsD>
1

>  <nBondsT>
0

>  <nBondsA>
22

>  <nBondsM>
23

>  <nBondsKS>
56

>  <nBondsKD>
10

>  <RNCG>
0.13

>  <RPCG>
0.14

>  <FCSP3>
0.3

>  <SZ>
38

>  <Sm>
35.51

>  <Sv>
38.87

>  <Sse>
61.3

>  <Sp>
42.09

>  <Si>
69.6

>  <MZ>
0.61

>  <Mm>
0.57

>  <Mv>
0.63

>  <Mse>
0.99

>  <Mp>
0.68

>  <Mi>
1.12

>  <NsCH3>
0

>  <NdCH2>
0

>  <NssCH2>
7

>  <NtCH>
0

>  <NdsCH>
0

>  <NaaCH>
14

>  <NsssCH>
1

>  <NddC>
0

>  <NtsC>
0

>  <NdssC>
0

>  <NaasC>
2

>  <NaaaC>
2

>  <NssssC>
0

>  <NsNH3>
0

>  <NsNH2>
0

>  <NssNH2>
0

>  <NdNH>
0

>  <NssNH>
0

>  <NaaNH>
1

>  <NtN>
0

>  <NsssNH>
0

>  <NdsN>
0

>  <NaaN>
0

>  <NsssN>
2

>  <NddsN>
0

>  <NaasN>
1

>  <NssssN>
0

>  <NsOH>
0

>  <NdO>
1

>  <NssO>
0

>  <NaaO>
0

>  <NsF>
0

>  <NsSiH3>
0

>  <NssSiH2>
0

>  <NsssSiH>
0

>  <NssssSi>
0

>  <NsPH2>
0

>  <NssPH>
0

>  <NsssP>
0

>  <NdsssP>
0

>  <NsssssP>
0

>  <NsSH>
0

>  <NdS>
0

>  <NssS>
0

>  <NaaS>
0

>  <NdssS>
0

>  <NddssS>
0

>  <NsCl>
0

>  <NsBr>
0

>  <NsI>
0

>  <fragCpx>
304.05

>  <fMF>
0.5

>  <nHBAcc>
4

>  <nHBDon>
1

>  <Kier1>
23.73

>  <Kier2>
11.62

>  <Lipinski>
1

>  <GhoseFilter>
1

>  <FilterItLogS>
-5.85

>  <VMcGowan>
339.78

>  <LabuteASA>
188.46

>  <PEOE_VSA1>
9.88

>  <PEOE_VSA2>
9.47

>  <PEOE_VSA3>
4.79

>  <PEOE_VSA4>
0

>  <PEOE_VSA5>
0

>  <PEOE_VSA6>
72.8

>  <PEOE_VSA7>
36.23

>  <PEOE_VSA8>
32.72

>  <PEOE_VSA9>
17.08

>  <PEOE_VSA10>
0

>  <PEOE_VSA11>
0

>  <PEOE_VSA12>
0

>  <PEOE_VSA13>
0

>  <SMR_VSA1>
0

>  <SMR_VSA2>
0

>  <SMR_VSA3>
19.35

>  <SMR_VSA4>
0

>  <SMR_VSA5>
19.01

>  <SMR_VSA6>
32.72

>  <SMR_VSA7>
106.54

>  <SMR_VSA8>
0

>  <SMR_VSA9>
0

>  <SlogP_VSA1>
5.69

>  <SlogP_VSA2>
52.07

>  <SlogP_VSA3>
6.54

>  <SlogP_VSA4>
0

>  <SlogP_VSA5>
23.59

>  <SlogP_VSA6>
89.72

>  <SlogP_VSA7>
0

>  <SlogP_VSA8>
11.03

>  <SlogP_VSA9>
0

>  <SlogP_VSA10>
0

>  <SlogP_VSA11>
0

>  <EState_VSA1>
0

>  <EState_VSA2>
5.69

>  <EState_VSA3>
6.04

>  <EState_VSA4>
56.72

>  <EState_VSA5>
11.13

>  <EState_VSA6>
0

>  <EState_VSA7>
28.83

>  <EState_VSA8>
75.45

>  <EState_VSA9>
0

>  <EState_VSA10>
4.79

>  <VSA_EState1>
1.87

>  <VSA_EState2>
20.38

>  <VSA_EState3>
0

>  <VSA_EState4>
4.61

>  <VSA_EState5>
0

>  <VSA_EState6>
29.88

>  <VSA_EState7>
0.97

>  <VSA_EState8>
5.96

>  <VSA_EState9>
0

>  <apol>
70.3

>  <bpol>
36.66

>  <nRing>
5

>  <nHRing>
2

>  <naRing>
4

>  <naHRing>
1

>  <nARing 2>
1

>  <nAHRing 2>
1

>  <nFRing>
1

>  <nFHRing>
1

>  <nFaRing>
1

>  <nFaHRing>
1

>  <nFARing 2>
0

>  <nFAHRing 2>
0

>  <nRot>
7

>  <SLogP>
4.13

>  <SMR>
129.92

>  <TopoPSA(NO)>
44.27

>  <TopoPSA>
44.27

>  <JGI1>
0.11

>  <JGI2>
0.06

>  <JGI3>
0.05

>  <JGI4>
0.02

>  <JGI5>
0.01

>  <Diameter>
16

>  <Radius>
8

>  <TMWC10>
145.75

>  <TSRW10>
82.31

>  <MW>
426.24

>  <AMW>
6.87

>  <WPath>
3335

>  <WPol>
50

>  <Zagreb1>
170

>  <Zagreb2>
201

>  <mZagreb2>
7.08

>  <yes>


>  <nAR-cont>
0.816016

>  <nHA-cont>
0.658856097

>  <MWHBN>
0.242182581

>  <MWHBN-cont>
0.971934596

>  <TPSA-cont>
0.69096791

>  <pka_cont>
0.97

>  <yes.1>


>  <BBB_SCORE>
4.799709811

>  <MMFF94 Energy>
92.955

$$$$
Compound 3061
Actelion Java MolfileCreator 2.0

  0  0  0  0  0  0              0 V3000
M  V30 BEGIN CTAB
M  V30 COUNTS 37 38 0 0 0
M  V30 BEGIN ATOM
M  V30 1 O 0.0788 -0.3942 1.1832 0
M  V30 2 C 1.2798 -0.4367 1.952 0
M  V30 3 C -1.0473 -0.8628 1.9231 0
M  V30 4 N 2.3922 0.1173 1.1449 0 CHG=1
M  V30 5 N -2.2432 -0.8469 1.0481 0 CHG=1
M  V30 6 C 2.9884 1.2803 1.5059 0
M  V30 7 C 2.8111 -0.5572 0.0466 0
M  V30 8 C -2.8399 -2.0077 0.6811 0
M  V30 9 C -2.7376 0.3425 0.6267 0
M  V30 10 C 4.037 1.8065 0.7589 0
M  V30 11 C 3.8519 -0.0726 -0.7311 0
M  V30 12 C -3.9662 -2.0043 -0.135 0
M  V30 13 C -3.8575 0.398 -0.1892 0
M  V30 14 C 4.4684 1.1208 -0.3693 0
M  V30 15 C -4.4752 -0.7881 -0.5724 0
M  V30 16 C 5.576 1.6673 -1.1739 0
M  V30 17 C -5.6659 -0.7675 -1.4411 0
M  V30 18 N 5.9867 1.0589 -2.2379 0
M  V30 19 N -6.151 0.3487 -1.8764 0
M  V30 20 O 7.0357 1.8011 -2.7911 0
M  V30 21 O -7.267 0.063 -2.6704 0
M  V30 22 H 1.1727 0.1569 2.8658 0
M  V30 23 H 1.5452 -1.4692 2.2053 0
M  V30 24 H -0.8776 -1.8853 2.2757 0
M  V30 25 H -1.2581 -0.2039 2.773 0
M  V30 26 H 2.6246 1.7896 2.3948 0
M  V30 27 H 2.303 -1.4844 -0.2042 0
M  V30 28 H -2.4142 -2.9405 1.0424 0
M  V30 29 H -2.2262 1.2468 0.9456 0
M  V30 30 H 4.5075 2.741 1.0601 0
M  V30 31 H 4.1793 -0.623 -1.6123 0
M  V30 32 H -4.436 -2.9435 -0.4218 0
M  V30 33 H -4.2452 1.3599 -0.5227 0
M  V30 34 H 6.0392 2.6132 -0.8366 0
M  V30 35 H -6.1258 -1.7375 -1.7069 0
M  V30 36 H 7.2951 1.2765 -3.5736 0
M  V30 37 H -7.5789 0.9466 -2.9475 0
M  V30 END ATOM
M  V30 BEGIN BOND
M  V30 1 1 1 2
M  V30 2 1 1 3
M  V30 3 1 2 4
M  V30 4 1 3 5
M  V30 5 2 4 6
M  V30 6 1 4 7
M  V30 7 2 5 8
M  V30 8 1 5 9
M  V30 9 1 6 10
M  V30 10 2 7 11
M  V30 11 1 8 12
M  V30 12 2 9 13
M  V30 13 2 10 14
M  V30 14 2 12 15
M  V30 15 1 14 16
M  V30 16 1 15 17
M  V30 17 2 16 18
M  V30 18 2 17 19
M  V30 19 1 18 20
M  V30 20 1 19 21
M  V30 21 1 11 14
M  V30 22 1 13 15
M  V30 23 1 2 22
M  V30 24 1 2 23
M  V30 25 1 3 24
M  V30 26 1 3 25
M  V30 27 1 6 26
M  V30 28 1 7 27
M  V30 29 1 8 28
M  V30 30 1 9 29
M  V30 31 1 10 30
M  V30 32 1 11 31
M  V30 33 1 12 32
M  V30 34 1 13 33
M  V30 35 1 16 34
M  V30 36 1 17 35
M  V30 37 1 20 36
M  V30 38 1 21 37
M  V30 END BOND
M  V30 END CTAB
M  END
>  <Column 1>
3942

>  <level_0>
7692

>  <index>
7693

>  <Unnamed: 0>
7693

>  <NO.>
7706

>  <Name>


>  <IUPAC_name>


>  <SMILES>
ON=Cc1cc[n+](COC[n+]2ccc(/C=N/O)cc2)cc1

>  <CID>


>  <logBB>


>  <BBB+/BBB->
BBB-

>  <Inchi>
InChI=1S/C14H14N4O3/c19-15-9-13-1-5-17(6-2-13)11-21-12-18-7-3-14(4-8-18)10-16-20/h1-10H-11-12H2/p+2

>  <threshold>


>  <reference>
R27|

>  <group>
C

>  <Class>
1

>  <ABC>
15.56

>  <ABCGG>
11.73

>  <nAcid>
0

>  <nBase>
2

>  <nAromAtom>
12

>  <nAromBond>
12

>  <nAtom>
37

>  <nHeavyAtom>
21

>  <nSpiro>
0

>  <nBridgehead>
0

>  <nHetero>
7

>  <nN>
4

>  <nO>
3

>  <nF>
0

>  <BalabanJ>
1.51

>  <BertzCT>
553.62

>  <nBonds>
38

>  <nBondsO>
22

>  <nBondsS>
24

>  <nBondsD>
2

>  <nBondsT>
0

>  <nBondsA>
12

>  <nBondsM>
14

>  <nBondsKS>
30

>  <nBondsKD>
8

>  <RNCG>
0.25

>  <RPCG>
0.09

>  <FCSP3>
0.14

>  <SZ>
25.33

>  <Sm>
24

>  <Sv>
23.51

>  <Sse>
37.75

>  <Sp>
24.46

>  <Si>
42.11

>  <MZ>
0.68

>  <Mm>
0.65

>  <Mv>
0.64

>  <Mse>
1.02

>  <Mp>
0.66

>  <Mi>
1.14

>  <NsCH3>
0

>  <NdCH2>
0

>  <NssCH2>
2

>  <NtCH>
0

>  <NdsCH>
2

>  <NaaCH>
8

>  <NsssCH>
0

>  <NddC>
0

>  <NtsC>
0

>  <NdssC>
0

>  <NaasC>
2

>  <NaaaC>
0

>  <NssssC>
0

>  <NsNH3>
0

>  <NsNH2>
0

>  <NssNH2>
0

>  <NdNH>
0

>  <NssNH>
0

>  <NaaNH>
0

>  <NtN>
0

>  <NsssNH>
0

>  <NdsN>
2

>  <NaaN>
0

>  <NsssN>
0

>  <NddsN>
0

>  <NaasN>
2

>  <NssssN>
0

>  <NsOH>
2

>  <NdO>
0

>  <NssO>
1

>  <NaaO>
0

>  <NsF>
0

>  <NsSiH3>
0

>  <NssSiH2>
0

>  <NsssSiH>
0

>  <NssssSi>
0

>  <NsPH2>
0

>  <NssPH>
0

>  <NsssP>
0

>  <NdsssP>
0

>  <NsssssP>
0

>  <NsSH>
0

>  <NdS>
0

>  <NssS>
0

>  <NaaS>
0

>  <NdssS>
0

>  <NddssS>
0

>  <NsCl>
0

>  <NsBr>
0

>  <NsI>
0

>  <fragCpx>
64.07

>  <fMF>
0.41

>  <nHBAcc>
5

>  <nHBDon>
2

>  <Kier1>
17.36

>  <Kier2>
9.9

>  <Lipinski>
1

>  <GhoseFilter>
1

>  <FilterItLogS>
-0.9

>  <VMcGowan>
213.83

>  <LabuteASA>
121.21

>  <PEOE_VSA1>
10.41

>  <PEOE_VSA2>
4.74

>  <PEOE_VSA3>
0

>  <PEOE_VSA4>
9.13

>  <PEOE_VSA5>
0

>  <PEOE_VSA6>
10.31

>  <PEOE_VSA7>
0

>  <PEOE_VSA8>
35.39

>  <PEOE_VSA9>
12.43

>  <PEOE_VSA10>
0

>  <PEOE_VSA11>
24.79

>  <PEOE_VSA12>
0

>  <PEOE_VSA13>
13.46

>  <SMR_VSA1>
24.29

>  <SMR_VSA2>
0

>  <SMR_VSA3>
0

>  <SMR_VSA4>
10.31

>  <SMR_VSA5>
13.46

>  <SMR_VSA6>
0

>  <SMR_VSA7>
60.18

>  <SMR_VSA8>
0

>  <SMR_VSA9>
0

>  <SlogP_VSA1>
9.13

>  <SlogP_VSA2>
22.84

>  <SlogP_VSA3>
18.2

>  <SlogP_VSA4>
0

>  <SlogP_VSA5>
11.13

>  <SlogP_VSA6>
59.36

>  <SlogP_VSA7>
0

>  <SlogP_VSA8>
0

>  <SlogP_VSA9>
0

>  <SlogP_VSA10>
0

>  <SlogP_VSA11>
0

>  <EState_VSA1>
0

>  <EState_VSA2>
0

>  <EState_VSA3>
13.46

>  <EState_VSA4>
11.13

>  <EState_VSA5>
12.43

>  <EState_VSA6>
0

>  <EState_VSA7>
58.19

>  <EState_VSA8>
10.31

>  <EState_VSA9>
15.15

>  <EState_VSA10>
0

>  <VSA_EState1>
9.29

>  <VSA_EState2>
0

>  <VSA_EState3>
22.77

>  <VSA_EState4>
1.62

>  <VSA_EState5>
0

>  <VSA_EState6>
7.27

>  <VSA_EState7>
10.06

>  <VSA_EState8>
0.81

>  <VSA_EState9>
0

>  <apol>
40.85

>  <bpol>
21.21

>  <nRing>
2

>  <nHRing>
2

>  <naRing>
2

>  <naHRing>
2

>  <nARing 2>
0

>  <nAHRing 2>
0

>  <nFRing>
0

>  <nFHRing>
0

>  <nFaRing>
0

>  <nFaHRing>
0

>  <nFARing 2>
0

>  <nFAHRing 2>
0

>  <nRot>
6

>  <SLogP>
0.51

>  <SMR>
73.12

>  <TopoPSA(NO)>
82.17

>  <TopoPSA>
82.17

>  <JGI1>
0.16

>  <JGI2>
0.06

>  <JGI3>
0.01

>  <JGI4>
0.03

>  <JGI5>
0.03

>  <Diameter>
16

>  <Radius>
8

>  <TMWC10>
113.27

>  <TSRW10>
53.75

>  <MW>
288.12

>  <AMW>
7.79

>  <WPath>
1200

>  <WPol>
26

>  <Zagreb1>
98

>  <Zagreb2>
108

>  <mZagreb2>
5

>  <yes>


>  <nAR-cont>
0.336376

>  <nHA-cont>
0.994529749

>  <MWHBN>
0.412393049

>  <MWHBN-cont>
0.427478389

>  <TPSA-cont>
0.426402375

>  <pka_cont>
0.97

>  <yes.1>


>  <BBB_SCORE>
3.309928085

>  <MMFF94 Energy>
139.03

$$$$
Compound 3062
Actelion Java MolfileCreator 2.0

  0  0  0  0  0  0              0 V3000
M  V30 BEGIN CTAB
M  V30 COUNTS 33 34 0 0 0
M  V30 BEGIN ATOM
M  V30 1 O -3.946 -0.5517 2.4451 0
M  V30 2 C -3.2375 -0.6819 1.2817 0
M  V30 3 C -3.5257 -1.7749 0.4693 0
M  V30 4 C -2.2596 0.2359 0.9105 0
M  V30 5 O -4.485 -2.6707 0.8465 0
M  V30 6 C -2.8514 -1.9668 -0.7254 0
M  V30 7 C -1.5583 0.0575 -0.2953 0
M  V30 8 C -1.8697 -1.05 -1.1074 0
M  V30 9 C -0.4728 1.0353 -0.6977 0 CFG=2
M  V30 10 O -0.7084 1.4262 -2.0579 0
M  V30 11 C 0.9683 0.4493 -0.561 0 CFG=1
M  V30 12 N 1.9375 1.3106 -1.2898 0
M  V30 13 C 1.3601 0.3103 0.9213 0
M  V30 14 C 3.3082 0.8045 -1.1668 0
M  V30 15 C 2.7975 -0.1716 1.0868 0
M  V30 16 C 3.7502 0.7075 0.2886 0
M  V30 17 H -3.6658 0.2722 2.8789 0
M  V30 18 H -2.0329 1.0868 1.5458 0
M  V30 19 H -4.8177 -2.3254 1.6987 0
M  V30 20 H -3.0895 -2.8169 -1.357 0
M  V30 21 H -1.3498 -1.1931 -2.0532 0
M  V30 22 H -0.5631 1.9503 -0.0978 0
M  V30 23 H -0.1303 2.1981 -2.1939 0
M  V30 24 H 0.9961 -0.5413 -1.0352 0
M  V30 25 H 1.6885 1.2743 -2.2814 0
M  V30 26 H 0.6932 -0.3959 1.4286 0
M  V30 27 H 1.2466 1.2772 1.4293 0
M  V30 28 H 3.3901 -0.1752 -1.6533 0
M  V30 29 H 3.981 1.4834 -1.7022 0
M  V30 30 H 3.0764 -0.1625 2.1463 0
M  V30 31 H 2.8776 -1.2096 0.7413 0
M  V30 32 H 4.7648 0.2968 0.3418 0
M  V30 33 H 3.7863 1.7103 0.7331 0
M  V30 END ATOM
M  V30 BEGIN BOND
M  V30 1 1 1 2
M  V30 2 2 2 3
M  V30 3 1 2 4
M  V30 4 1 3 5
M  V30 5 1 3 6
M  V30 6 2 4 7
M  V30 7 2 6 8
M  V30 8 1 7 9
M  V30 9 1 9 10
M  V30 10 1 9 11
M  V30 11 1 11 12
M  V30 12 1 11 13
M  V30 13 1 12 14
M  V30 14 1 13 15
M  V30 15 1 14 16
M  V30 16 1 7 8
M  V30 17 1 15 16
M  V30 18 1 1 17
M  V30 19 1 4 18
M  V30 20 1 5 19
M  V30 21 1 6 20
M  V30 22 1 8 21
M  V30 23 1 9 22
M  V30 24 1 10 23
M  V30 25 1 11 24
M  V30 26 1 12 25
M  V30 27 1 13 26
M  V30 28 1 13 27
M  V30 29 1 14 28
M  V30 30 1 14 29
M  V30 31 1 15 30
M  V30 32 1 15 31
M  V30 33 1 16 32
M  V30 34 1 16 33
M  V30 END BOND
M  V30 BEGIN COLLECTION
M  V30 MDLV30/STEABS ATOMS=(2 9 11)
M  V30 END COLLECTION
M  V30 END CTAB
M  END
>  <Column 1>
3943

>  <level_0>
7699

>  <index>
7700

>  <Unnamed: 0>
7700

>  <NO.>
7713

>  <Name>
nsc-289336

>  <IUPAC_name>
4-[(s)-hydroxy-[(2s)-piperidin-2-yl]methyl]benzene-1-2-diol

>  <SMILES>
Oc1ccc([C@H](O)[C@@H]2CCCCN2)cc1O

>  <CID>
3246596

>  <logBB>


>  <BBB+/BBB->
BBB+

>  <Inchi>
InChI=1S/C12H17NO3/c14-10-5-4-8(7-11(10)15)12(16)9-3-1-2-6-13-9/h4-5-7-9-12-16H-1-3-6H2/t9--12-/m0/s1

>  <threshold>


>  <reference>
R27|

>  <group>
C

>  <Class>
1

>  <ABC>
12.23

>  <ABCGG>
10.54

>  <nAcid>
0

>  <nBase>
1

>  <nAromAtom>
6

>  <nAromBond>
6

>  <nAtom>
33

>  <nHeavyAtom>
16

>  <nSpiro>
0

>  <nBridgehead>
0

>  <nHetero>
4

>  <nN>
1

>  <nO>
3

>  <nF>
0

>  <BalabanJ>
1.86

>  <BertzCT>
361.28

>  <nBonds>
34

>  <nBondsO>
17

>  <nBondsS>
28

>  <nBondsD>
0

>  <nBondsT>
0

>  <nBondsA>
6

>  <nBondsM>
6

>  <nBondsKS>
31

>  <nBondsKD>
3

>  <RNCG>
0.26

>  <RPCG>
0.15

>  <FCSP3>
0.5

>  <SZ>
20

>  <Sm>
18.59

>  <Sv>
19.51

>  <Sse>
33.2

>  <Sp>
20.89

>  <Si>
37.45

>  <MZ>
0.61

>  <Mm>
0.56

>  <Mv>
0.59

>  <Mse>
1.01

>  <Mp>
0.63

>  <Mi>
1.13

>  <NsCH3>
0

>  <NdCH2>
0

>  <NssCH2>
4

>  <NtCH>
0

>  <NdsCH>
0

>  <NaaCH>
3

>  <NsssCH>
2

>  <NddC>
0

>  <NtsC>
0

>  <NdssC>
0

>  <NaasC>
3

>  <NaaaC>
0

>  <NssssC>
0

>  <NsNH3>
0

>  <NsNH2>
0

>  <NssNH2>
0

>  <NdNH>
0

>  <NssNH>
1

>  <NaaNH>
0

>  <NtN>
0

>  <NsssNH>
0

>  <NdsN>
0

>  <NaaN>
0

>  <NsssN>
0

>  <NddsN>
0

>  <NaasN>
0

>  <NssssN>
0

>  <NsOH>
3

>  <NdO>
0

>  <NssO>
0

>  <NaaO>
0

>  <NsF>
0

>  <NsSiH3>
0

>  <NssSiH2>
0

>  <NsssSiH>
0

>  <NssssSi>
0

>  <NsPH2>
0

>  <NssPH>
0

>  <NsssP>
0

>  <NdsssP>
0

>  <NsssssP>
0

>  <NsSH>
0

>  <NdS>
0

>  <NssS>
0

>  <NaaS>
0

>  <NdssS>
0

>  <NddssS>
0

>  <NsCl>
0

>  <NsBr>
0

>  <NsI>
0

>  <fragCpx>
49.04

>  <fMF>
0.39

>  <nHBAcc>
4

>  <nHBDon>
4

>  <Kier1>
12.46

>  <Kier2>
5.56

>  <Lipinski>
1

>  <GhoseFilter>
1

>  <FilterItLogS>
-1.48

>  <VMcGowan>
172.91

>  <LabuteASA>
94.55

>  <PEOE_VSA1>
20.64

>  <PEOE_VSA2>
0

>  <PEOE_VSA3>
0

>  <PEOE_VSA4>
0

>  <PEOE_VSA5>
0

>  <PEOE_VSA6>
12.49

>  <PEOE_VSA7>
37.08

>  <PEOE_VSA8>
6.04

>  <PEOE_VSA9>
6.1

>  <PEOE_VSA10>
0

>  <PEOE_VSA11>
11.5

>  <PEOE_VSA12>
0

>  <PEOE_VSA13>
0

>  <SMR_VSA1>
15.32

>  <SMR_VSA2>
0

>  <SMR_VSA3>
5.32

>  <SMR_VSA4>
0

>  <SMR_VSA5>
31.41

>  <SMR_VSA6>
6.54

>  <SMR_VSA7>
23.76

>  <SMR_VSA8>
0

>  <SMR_VSA9>
11.5

>  <SlogP_VSA1>
5.32

>  <SlogP_VSA2>
27.91

>  <SlogP_VSA3>
0

>  <SlogP_VSA4>
0

>  <SlogP_VSA5>
30.93

>  <SlogP_VSA6>
18.2

>  <SlogP_VSA7>
0

>  <SlogP_VSA8>
0

>  <SlogP_VSA9>
0

>  <SlogP_VSA10>
0

>  <SlogP_VSA11>
11.5

>  <EState_VSA1>
6.1

>  <EState_VSA2>
17.54

>  <EState_VSA3>
5.56

>  <EState_VSA4>
25.81

>  <EState_VSA5>
12.13

>  <EState_VSA6>
6.07

>  <EState_VSA7>
0

>  <EState_VSA8>
5.32

>  <EState_VSA9>
0

>  <EState_VSA10>
15.32

>  <VSA_EState1>
0

>  <VSA_EState2>
0

>  <VSA_EState3>
31.92

>  <VSA_EState4>
0.63

>  <VSA_EState5>
-0.35

>  <VSA_EState6>
4.49

>  <VSA_EState7>
2.55

>  <VSA_EState8>
0.92

>  <VSA_EState9>
0

>  <apol>
34.88

>  <bpol>
17.62

>  <nRing>
2

>  <nHRing>
1

>  <naRing>
1

>  <naHRing>
0

>  <nARing 2>
1

>  <nAHRing 2>
1

>  <nFRing>
0

>  <nFHRing>
0

>  <nFaRing>
0

>  <nFaHRing>
0

>  <nFARing 2>
0

>  <nFAHRing 2>
0

>  <nRot>
2

>  <SLogP>
1.27

>  <SMR>
60.37

>  <TopoPSA(NO)>
72.72

>  <TopoPSA>
72.72

>  <JGI1>
0.18

>  <JGI2>
0.1

>  <JGI3>
0.05

>  <JGI4>
0.04

>  <JGI5>
0.02

>  <Diameter>
9

>  <Radius>
5

>  <TMWC10>
102.91

>  <TSRW10>
48.22

>  <MW>
223.12

>  <AMW>
6.76

>  <WPath>
444

>  <WPol>
23

>  <Zagreb1>
80

>  <Zagreb2>
92

>  <mZagreb2>
3.58

>  <yes>


>  <nAR-cont>
0.816016

>  <nHA-cont>
0.954961865

>  <MWHBN>
0.535575542

>  <MWHBN-cont>
0

>  <TPSA-cont>
0.492369244

>  <pka_cont>
0.97

>  <yes.1>


>  <BBB_SCORE>
3.240716352

>  <MMFF94 Energy>
35.42

$$$$
Compound 3063
Actelion Java MolfileCreator 2.0

  0  0  0  0  0  0              0 V3000
M  V30 BEGIN CTAB
M  V30 COUNTS 52 57 0 0 0
M  V30 BEGIN ATOM
M  V30 1 O 4.8018 0.1624 1.5444 0
M  V30 2 C 3.6815 0.6426 1.3752 0
M  V30 3 C 2.4212 0.077 2.0563 0 CFG=2
M  V30 4 C 3.5171 1.8918 0.5401 0
M  V30 5 O 2.5607 -1.3646 2.2413 0
M  V30 6 C 1.1276 0.2797 1.2457 0 CFG=2
M  V30 7 C 2.3562 1.7357 -0.44 0
M  V30 8 C 2.0103 -1.8923 1.0968 0
M  V30 9 C 1.2315 -0.9659 0.433 0
M  V30 10 C 1.0302 1.4972 0.3152 0 CFG=2
M  V30 11 C -0.1197 0.1789 2.1543 0
M  V30 12 C 2.1866 -3.1504 0.5712 0
M  V30 13 C 0.687 -1.1848 -0.8195 0
M  V30 14 O 0.8135 2.677 1.1052 0
M  V30 15 C -0.2165 1.2173 -0.6334 0 CFG=1
M  V30 16 C -1.4254 0.035 1.3706 0
M  V30 17 O 2.9218 -4.0689 1.2482 0
M  V30 18 C 1.608 -3.4362 -0.6707 0
M  V30 19 C 0.8792 -2.4504 -1.3747 0
M  V30 20 C 0.0599 -0.0239 -1.5424 0
M  V30 21 N -1.5644 1.0651 0.2439 0 CHG=1
M  V30 22 C -2.8232 0.7591 -0.6322 0
M  V30 23 C -1.9144 2.4371 0.8984 0
M  V30 24 C -3.0403 -0.5992 -1.2389 0
M  V30 25 C -4.4268 -0.9609 -1.7269 0
M  V30 26 C -3.3242 -0.7518 -2.7183 0
M  V30 27 H 2.3542 0.5498 3.0434 0
M  V30 28 H 4.4424 2.0604 -0.0219 0
M  V30 29 H 3.3782 2.7438 1.2131 0
M  V30 30 H 2.2826 2.6501 -1.0416 0
M  V30 31 H 2.5913 0.9207 -1.1317 0
M  V30 32 H -0.1682 1.0492 2.8193 0
M  V30 33 H -0.0444 -0.686 2.8277 0
M  V30 34 H 1.1034 3.4705 0.6138 0
M  V30 35 H -0.4101 2.0915 -1.2664 0
M  V30 36 H -2.2927 0.1483 2.0319 0
M  V30 37 H -1.4781 -0.9626 0.9332 0
M  V30 38 H 3.0606 -4.8538 0.6941 0
M  V30 39 H 1.7385 -4.4159 -1.125 0
M  V30 40 H 0.4912 -2.6904 -2.3634 0
M  V30 41 H 0.7758 0.2896 -2.3143 0
M  V30 42 H -0.8152 -0.3418 -2.0987 0
M  V30 43 H -2.8344 1.5343 -1.4083 0
M  V30 44 H -3.6857 0.9363 0.0223 0
M  V30 45 H -1.2929 2.614 1.7736 0
M  V30 46 H -2.9517 2.4082 1.2477 0
M  V30 47 H -1.7937 3.2187 0.1439 0
M  V30 48 H -2.5119 -1.4037 -0.7472 0
M  V30 49 H -5.2202 -0.2214 -1.6931 0
M  V30 50 H -4.7775 -1.9768 -1.5697 0
M  V30 51 H -3.3793 0.1274 -3.3512 0
M  V30 52 H -2.9365 -1.6288 -3.2279 0
M  V30 END ATOM
M  V30 BEGIN BOND
M  V30 1 2 1 2
M  V30 2 1 2 3
M  V30 3 1 2 4
M  V30 4 1 3 5
M  V30 5 1 3 6
M  V30 6 1 4 7
M  V30 7 1 5 8
M  V30 8 1 6 9
M  V30 9 1 6 10
M  V30 10 1 6 11
M  V30 11 1 8 12
M  V30 12 1 9 13
M  V30 13 1 10 14
M  V30 14 1 10 15
M  V30 15 1 11 16
M  V30 16 1 12 17
M  V30 17 2 12 18
M  V30 18 2 13 19
M  V30 19 1 13 20
M  V30 20 1 15 21
M  V30 21 1 21 22
M  V30 22 1 21 23
M  V30 23 1 22 24
M  V30 24 1 24 25
M  V30 25 1 24 26
M  V30 26 1 7 10
M  V30 27 2 8 9
M  V30 28 1 15 20
M  V30 29 1 16 21
M  V30 30 1 18 19
M  V30 31 1 25 26
M  V30 32 1 3 27
M  V30 33 1 4 28
M  V30 34 1 4 29
M  V30 35 1 7 30
M  V30 36 1 7 31
M  V30 37 1 11 32
M  V30 38 1 11 33
M  V30 39 1 14 34
M  V30 40 1 15 35
M  V30 41 1 16 36
M  V30 42 1 16 37
M  V30 43 1 17 38
M  V30 44 1 18 39
M  V30 45 1 19 40
M  V30 46 1 20 41
M  V30 47 1 20 42
M  V30 48 1 22 43
M  V30 49 1 22 44
M  V30 50 1 23 45
M  V30 51 1 23 46
M  V30 52 1 23 47
M  V30 53 1 24 48
M  V30 54 1 25 49
M  V30 55 1 25 50
M  V30 56 1 26 51
M  V30 57 1 26 52
M  V30 END BOND
M  V30 BEGIN COLLECTION
M  V30 MDLV30/STEABS ATOMS=(4 3 6 10 15)
M  V30 END COLLECTION
M  V30 END CTAB
M  END
>  <Column 1>
3945

>  <level_0>
7710

>  <index>
7711

>  <Unnamed: 0>
7711

>  <NO.>
7724

>  <Name>
methylnaltrexone bromide

>  <IUPAC_name>
(4r-4as-7ar-12bs)-3-(cyclopropylmethyl)-4a-9-dihydroxy-3-methyl-2-4-5-6-7a-13-hexahydro-1h-4-12-methanobenzofuro[3-2-e]isoquinolin-3-ium-7-one;bromide

>  <SMILES>
C[N+]1(CC2CC2)CC[C@]23c4c5ccc(O)c4O[C@H]2C(=O)CC[C@@]3(O)[C@H]1C5

>  <CID>
5361918

>  <logBB>


>  <BBB+/BBB->
BBB-

>  <Inchi>
InChI=1S/C21H25NO4/c1-22(11-12-2-3-12)9-8-20-17-13-4-5-14(23)18(17)26-19(20)15(24)6-7-21(20-25)16(22)10-13/h4-5-12-16-19-25H-2-3-6-11H2-1H3/p+1/t16--19+-20+-21--22?/m1/s1

>  <threshold>


>  <reference>
R29|

>  <group>
C

>  <Class>
1

>  <ABC>
21.95

>  <ABCGG>
16.72

>  <nAcid>
0

>  <nBase>
1

>  <nAromAtom>
6

>  <nAromBond>
6

>  <nAtom>
52

>  <nHeavyAtom>
26

>  <nSpiro>
1

>  <nBridgehead>
2

>  <nHetero>
5

>  <nN>
1

>  <nO>
4

>  <nF>
0

>  <BalabanJ>
1.49

>  <BertzCT>
848.66

>  <nBonds>
57

>  <nBondsO>
31

>  <nBondsS>
50

>  <nBondsD>
1

>  <nBondsT>
0

>  <nBondsA>
6

>  <nBondsM>
7

>  <nBondsKS>
53

>  <nBondsKD>
4

>  <RNCG>
0.23

>  <RPCG>
0.09

>  <FCSP3>
0.67

>  <SZ>
31.83

>  <Sm>
29.68

>  <Sv>
31.66

>  <Sse>
52.03

>  <Sp>
33.96

>  <Si>
58.53

>  <MZ>
0.61

>  <Mm>
0.57

>  <Mv>
0.61

>  <Mse>
1

>  <Mp>
0.65

>  <Mi>
1.13

>  <NsCH3>
1

>  <NdCH2>
0

>  <NssCH2>
8

>  <NtCH>
0

>  <NdsCH>
0

>  <NaaCH>
2

>  <NsssCH>
3

>  <NddC>
0

>  <NtsC>
0

>  <NdssC>
1

>  <NaasC>
4

>  <NaaaC>
0

>  <NssssC>
2

>  <NsNH3>
0

>  <NsNH2>
0

>  <NssNH2>
0

>  <NdNH>
0

>  <NssNH>
0

>  <NaaNH>
0

>  <NtN>
0

>  <NsssNH>
0

>  <NdsN>
0

>  <NaaN>
0

>  <NsssN>
0

>  <NddsN>
0

>  <NaasN>
0

>  <NssssN>
1

>  <NsOH>
2

>  <NdO>
1

>  <NssO>
1

>  <NaaO>
0

>  <NsF>
0

>  <NsSiH3>
0

>  <NssSiH2>
0

>  <NsssSiH>
0

>  <NssssSi>
0

>  <NsPH2>
0

>  <NssPH>
0

>  <NsssP>
0

>  <NdsssP>
0

>  <NsssssP>
0

>  <NsSH>
0

>  <NdS>
0

>  <NssS>
0

>  <NaaS>
0

>  <NdssS>
0

>  <NddssS>
0

>  <NsCl>
0

>  <NsBr>
0

>  <NsI>
0

>  <fragCpx>
311.05

>  <fMF>
0.42

>  <nHBAcc>
4

>  <nHBDon>
2

>  <Kier1>
16.91

>  <Kier2>
5.13

>  <Lipinski>
1

>  <GhoseFilter>
1

>  <FilterItLogS>
-4.26

>  <VMcGowan>
260

>  <LabuteASA>
152.71

>  <PEOE_VSA1>
19.43

>  <PEOE_VSA2>
4.79

>  <PEOE_VSA3>
0

>  <PEOE_VSA4>
0

>  <PEOE_VSA5>
0

>  <PEOE_VSA6>
6.07

>  <PEOE_VSA7>
30.89

>  <PEOE_VSA8>
30.74

>  <PEOE_VSA9>
25.55

>  <PEOE_VSA10>
11.64

>  <PEOE_VSA11>
23.39

>  <PEOE_VSA12>
0

>  <PEOE_VSA13>
0

>  <SMR_VSA1>
24.23

>  <SMR_VSA2>
0

>  <SMR_VSA3>
0

>  <SMR_VSA4>
5.92

>  <SMR_VSA5>
61.69

>  <SMR_VSA6>
20.14

>  <SMR_VSA7>
23.26

>  <SMR_VSA8>
0

>  <SMR_VSA9>
11.5

>  <SlogP_VSA1>
4.74

>  <SlogP_VSA2>
58.36

>  <SlogP_VSA3>
16.63

>  <SlogP_VSA4>
5.92

>  <SlogP_VSA5>
43.23

>  <SlogP_VSA6>
12.13

>  <SlogP_VSA7>
0

>  <SlogP_VSA8>
0

>  <SlogP_VSA9>
0

>  <SlogP_VSA10>
0

>  <SlogP_VSA11>
11.5

>  <EState_VSA1>
17.12

>  <EState_VSA2>
17.57

>  <EState_VSA3>
18.59

>  <EState_VSA4>
47.46

>  <EState_VSA5>
12.84

>  <EState_VSA6>
6.07

>  <EState_VSA7>
6.07

>  <EState_VSA8>
7.05

>  <EState_VSA9>
4.74

>  <EState_VSA10>
15.01

>  <VSA_EState1>
6.98

>  <VSA_EState2>
12.8

>  <VSA_EState3>
22.55

>  <VSA_EState4>
0.49

>  <VSA_EState5>
1.42

>  <VSA_EState6>
3.77

>  <VSA_EState7>
4.42

>  <VSA_EState8>
2.09

>  <VSA_EState9>
2.31

>  <apol>
56.71

>  <bpol>
30.97

>  <nRing>
6

>  <nHRing>
2

>  <naRing>
1

>  <naHRing>
0

>  <nARing 2>
5

>  <nAHRing 2>
2

>  <nFRing>
1

>  <nFHRing>
1

>  <nFaRing>
0

>  <nFaHRing>
0

>  <nFARing 2>
1

>  <nFAHRing 2>
1

>  <nRot>
2

>  <SLogP>
1.67

>  <SMR>
94.14

>  <TopoPSA(NO)>
66.76

>  <TopoPSA>
66.76

>  <JGI1>
0.26

>  <JGI2>
0.13

>  <JGI3>
0.07

>  <JGI4>
0.06

>  <JGI5>
0.03

>  <Diameter>
10

>  <Radius>
5

>  <TMWC10>
139.06

>  <TSRW10>
82.92

>  <MW>
356.19

>  <AMW>
6.85

>  <WPath>
1298

>  <WPol>
63

>  <Zagreb1>
168

>  <Zagreb2>
222

>  <mZagreb2>
5.17

>  <yes>


>  <nAR-cont>
0

>  <nHA-cont>
0.892715677

>  <MWHBN>
0.317914539

>  <MWHBN-cont>
0.784124889

>  <TPSA-cont>
0.533973745

>  <pka_cont>
0.97

>  <yes.1>


>  <BBB_SCORE>
3.6218505

>  <MMFF94 Energy>
146.37

$$$$
Compound 3064
Actelion Java MolfileCreator 2.0

  0  0  0  0  0  0              0 V3000
M  V30 BEGIN CTAB
M  V30 COUNTS 26 27 0 0 0
M  V30 BEGIN ATOM
M  V30 1 Cl -1.2028 4.0138 -2.3265 0
M  V30 2 C -1.0102 2.3069 -2.2046 0
M  V30 3 C -0.5599 1.7442 -1.0072 0
M  V30 4 C -1.3103 1.5017 -3.2964 0
M  V30 5 C -0.3918 0.3573 -0.8671 0
M  V30 6 C -1.1631 0.1241 -3.1829 0
M  V30 7 N 0.0507 -0.185 0.3356 0
M  V30 8 C -0.7134 -0.4359 -1.9807 0
M  V30 9 C -0.1877 -1.6058 0.6458 0
M  V30 10 C 1.2792 0.3716 0.9383 0
M  V30 11 C -0.0608 -1.8728 2.1624 0
M  V30 12 C 1.363 0.0343 2.4442 0
M  V30 13 N 1.2106 -1.4019 2.741 0
M  V30 14 H -0.3698 2.4006 -0.1631 0
M  V30 15 H -1.6599 1.9372 -4.2278 0
M  V30 16 H -1.3937 -0.5202 -4.0271 0
M  V30 17 H -0.5971 -1.5154 -1.9422 0
M  V30 18 H 0.533 -2.2288 0.1018 0
M  V30 19 H -1.1986 -1.9034 0.3414 0
M  V30 20 H 1.3346 1.4607 0.8402 0
M  V30 21 H 2.1507 -0.0462 0.4184 0
M  V30 22 H -0.1498 -2.9497 2.3424 0
M  V30 23 H -0.8952 -1.3906 2.6877 0
M  V30 24 H 0.5912 0.5969 2.985 0
M  V30 25 H 2.3319 0.3694 2.8299 0
M  V30 26 H 1.182 -1.5295 3.7516 0
M  V30 END ATOM
M  V30 BEGIN BOND
M  V30 1 1 1 2
M  V30 2 2 2 3
M  V30 3 1 2 4
M  V30 4 1 3 5
M  V30 5 2 4 6
M  V30 6 1 5 7
M  V30 7 2 5 8
M  V30 8 1 7 9
M  V30 9 1 7 10
M  V30 10 1 9 11
M  V30 11 1 10 12
M  V30 12 1 11 13
M  V30 13 1 6 8
M  V30 14 1 12 13
M  V30 15 1 3 14
M  V30 16 1 4 15
M  V30 17 1 6 16
M  V30 18 1 8 17
M  V30 19 1 9 18
M  V30 20 1 9 19
M  V30 21 1 10 20
M  V30 22 1 10 21
M  V30 23 1 11 22
M  V30 24 1 11 23
M  V30 25 1 12 24
M  V30 26 1 12 25
M  V30 27 1 13 26
M  V30 END BOND
M  V30 END CTAB
M  END
>  <Column 1>
3946

>  <level_0>
7711

>  <index>
7712

>  <Unnamed: 0>
7712

>  <NO.>
7725

>  <Name>
1-(3-chlorophenyl)piperazine

>  <IUPAC_name>
1-(3-chlorophenyl)piperazine

>  <SMILES>
Clc1cccc(N2CCNCC2)c1

>  <CID>
1355

>  <logBB>


>  <BBB+/BBB->
BBB+

>  <Inchi>
InChI=1S/C10H13ClN2/c11-9-2-1-3-10(8-9)13-6-4-12-5-7-13/h1-3-8-12H-4-7H2

>  <threshold>


>  <reference>
R29|

>  <group>
C

>  <Class>
1

>  <ABC>
9.97

>  <ABCGG>
8.52

>  <nAcid>
0

>  <nBase>
1

>  <nAromAtom>
6

>  <nAromBond>
6

>  <nAtom>
26

>  <nHeavyAtom>
13

>  <nSpiro>
0

>  <nBridgehead>
0

>  <nHetero>
3

>  <nN>
2

>  <nO>
0

>  <nF>
0

>  <BalabanJ>
1.83

>  <BertzCT>
282.01

>  <nBonds>
27

>  <nBondsO>
14

>  <nBondsS>
21

>  <nBondsD>
0

>  <nBondsT>
0

>  <nBondsA>
6

>  <nBondsM>
6

>  <nBondsKS>
24

>  <nBondsKD>
3

>  <RNCG>
0.4

>  <RPCG>
0.13

>  <FCSP3>
0.4

>  <SZ>
17.33

>  <Sm>
16.37

>  <Sv>
16.13

>  <Sse>
25.86

>  <Sp>
17.81

>  <Si>
29.43

>  <MZ>
0.67

>  <Mm>
0.63

>  <Mv>
0.62

>  <Mse>
0.99

>  <Mp>
0.69

>  <Mi>
1.13

>  <NsCH3>
0

>  <NdCH2>
0

>  <NssCH2>
4

>  <NtCH>
0

>  <NdsCH>
0

>  <NaaCH>
4

>  <NsssCH>
0

>  <NddC>
0

>  <NtsC>
0

>  <NdssC>
0

>  <NaasC>
2

>  <NaaaC>
0

>  <NssssC>
0

>  <NsNH3>
0

>  <NsNH2>
0

>  <NssNH2>
0

>  <NdNH>
0

>  <NssNH>
1

>  <NaaNH>
0

>  <NtN>
0

>  <NsssNH>
0

>  <NdsN>
0

>  <NaaN>
0

>  <NsssN>
1

>  <NddsN>
0

>  <NaasN>
0

>  <NssssN>
0

>  <NsOH>
0

>  <NdO>
0

>  <NssO>
0

>  <NaaO>
0

>  <NsF>
0

>  <NsSiH3>
0

>  <NssSiH2>
0

>  <NsssSiH>
0

>  <NssssSi>
0

>  <NsPH2>
0

>  <NssPH>
0

>  <NsssP>
0

>  <NdsssP>
0

>  <NsssssP>
0

>  <NsSH>
0

>  <NdS>
0

>  <NssS>
0

>  <NaaS>
0

>  <NdssS>
0

>  <NddssS>
0

>  <NsCl>
1

>  <NsBr>
0

>  <NsI>
0

>  <fragCpx>
40.03

>  <fMF>
0.46

>  <nHBAcc>
2

>  <nHBDon>
1

>  <Kier1>
9.55

>  <Kier2>
4.48

>  <Lipinski>
1

>  <GhoseFilter>
1

>  <FilterItLogS>
-2.91

>  <VMcGowan>
149.34

>  <LabuteASA>
83.5

>  <PEOE_VSA1>
10.22

>  <PEOE_VSA2>
0

>  <PEOE_VSA3>
0

>  <PEOE_VSA4>
0

>  <PEOE_VSA5>
0

>  <PEOE_VSA6>
17.67

>  <PEOE_VSA7>
18.2

>  <PEOE_VSA8>
36.89

>  <PEOE_VSA9>
0

>  <PEOE_VSA10>
0

>  <PEOE_VSA11>
0

>  <PEOE_VSA12>
0

>  <PEOE_VSA13>
0

>  <SMR_VSA1>
0

>  <SMR_VSA2>
0

>  <SMR_VSA3>
5.32

>  <SMR_VSA4>
0

>  <SMR_VSA5>
0

>  <SMR_VSA6>
31.08

>  <SMR_VSA7>
29.29

>  <SMR_VSA8>
0

>  <SMR_VSA9>
0

>  <SlogP_VSA1>
10.22

>  <SlogP_VSA2>
26.18

>  <SlogP_VSA3>
0

>  <SlogP_VSA4>
0

>  <SlogP_VSA5>
0

>  <SlogP_VSA6>
24.27

>  <SlogP_VSA7>
5.02

>  <SlogP_VSA8>
0

>  <SlogP_VSA9>
0

>  <SlogP_VSA10>
5.69

>  <SlogP_VSA11>
0

>  <EState_VSA1>
0

>  <EState_VSA2>
0

>  <EState_VSA3>
0

>  <EState_VSA4>
31.2

>  <EState_VSA5>
5.69

>  <EState_VSA6>
0

>  <EState_VSA7>
18.2

>  <EState_VSA8>
16.28

>  <EState_VSA9>
11.6

>  <EState_VSA10>
0

>  <VSA_EState1>
0

>  <VSA_EState2>
2.35

>  <VSA_EState3>
4.14

>  <VSA_EState4>
1.23

>  <VSA_EState5>
0

>  <VSA_EState6>
8.04

>  <VSA_EState7>
0

>  <VSA_EState8>
4.26

>  <VSA_EState9>
0

>  <apol>
29.75

>  <bpol>
15.83

>  <nRing>
2

>  <nHRing>
1

>  <naRing>
1

>  <naHRing>
0

>  <nARing 2>
1

>  <nAHRing 2>
1

>  <nFRing>
0

>  <nFHRing>
0

>  <nFaRing>
0

>  <nFaHRing>
0

>  <nFARing 2>
0

>  <nFAHRing 2>
0

>  <nRot>
1

>  <SLogP>
1.75

>  <SMR>
56.53

>  <TopoPSA(NO)>
15.27

>  <TopoPSA>
15.27

>  <JGI1>
0.14

>  <JGI2>
0.06

>  <JGI3>
0.04

>  <JGI4>
0.03

>  <JGI5>
0.03

>  <Diameter>
7

>  <Radius>
4

>  <TMWC10>
94.25

>  <TSRW10>
43.93

>  <MW>
196.08

>  <AMW>
7.54

>  <WPath>
246

>  <WPol>
16

>  <Zagreb1>
64

>  <Zagreb2>
72

>  <mZagreb2>
2.94

>  <yes>


>  <nAR-cont>
0.816016

>  <nHA-cont>
0.841215992

>  <MWHBN>
0.214241996

>  <MWHBN-cont>
0.997951945

>  <TPSA-cont>
0.893405918

>  <pka_cont>
0.97

>  <yes.1>


>  <BBB_SCORE>
5.425971746

>  <MMFF94 Energy>
90.384

$$$$
Compound 3065
Actelion Java MolfileCreator 2.0

  0  0  0  0  0  0              0 V3000
M  V30 BEGIN CTAB
M  V30 COUNTS 71 72 0 0 0
M  V30 BEGIN ATOM
M  V30 1 O 1.7355 2.9202 0.3153 0
M  V30 2 C 0.5421 2.6429 0.3406 0
M  V30 3 O -0.0376 1.8337 1.265 0
M  V30 4 C -0.4615 3.1221 -0.7155 0
M  V30 5 C 0.8416 1.191 2.211 0 CFG=2
M  V30 6 C -0.254 4.6359 -0.9703 0
M  V30 7 C -0.1346 2.3482 -2.0065 0
M  V30 8 C -1.9243 2.8301 -0.3399 0
M  V30 9 C 0.1939 -0.1331 2.7003 0 CFG=1
M  V30 10 C 1.1664 2.1199 3.3874 0
M  V30 11 C -0.5524 5.5343 0.225 0
M  V30 12 C -0.8882 0.1211 3.7496 0
M  V30 13 C -0.3591 -1.0243 1.5392 0 CFG=2
M  V30 14 C -0.044 2.4422 4.2754 0 CFG=2
M  V30 15 C -1.8423 -0.9413 3.9984 0
M  V30 16 C -0.9776 1.2735 4.4371 0
M  V30 17 C -0.9656 -2.3439 2.1077 0 CFG=2
M  V30 18 C 0.682 -1.2657 0.4195 0
M  V30 19 C -0.8173 3.6661 3.7812 0
M  V30 20 C -1.8776 -2.0675 3.2756 0
M  V30 21 C 0.069 -3.3914 2.5331 0
M  V30 22 C 0.1187 -2.0372 -0.7842 0
M  V30 23 C 1.1405 -2.1434 -1.9239 0 CFG=1
M  V30 24 O 2.2608 -2.8874 -1.4523 0
M  V30 25 C 0.5239 -2.836 -3.1507 0
M  V30 26 C 1.4777 -2.8315 -4.3555 0 CFG=1
M  V30 27 O 2.6728 -3.5506 -4.0406 0
M  V30 28 C 0.8445 -3.3595 -5.6447 0
M  V30 29 C 0.4201 -4.7953 -5.533 0
M  V30 30 O 0.9132 -5.6381 -4.801 0
M  V30 31 O -0.5761 -5.1089 -6.3803 0
M  V30 32 H 1.7859 0.9374 1.7122 0
M  V30 33 H 0.7821 4.821 -1.2819 0
M  V30 34 H -0.8868 4.9567 -1.8079 0
M  V30 35 H -0.804 2.6377 -2.8241 0
M  V30 36 H -0.2342 1.267 -1.8552 0
M  V30 37 H 0.8946 2.5342 -2.3346 0
M  V30 38 H -2.1134 1.7517 -0.2808 0
M  V30 39 H -2.191 3.2544 0.6325 0
M  V30 40 H -2.6124 3.2425 -1.0863 0
M  V30 41 H 0.9882 -0.6966 3.2115 0
M  V30 42 H 1.6192 3.0512 3.0277 0
M  V30 43 H 1.9269 1.6258 4.0073 0
M  V30 44 H 0.0613 5.2685 1.0904 0
M  V30 45 H -1.6055 5.4832 0.5156 0
M  V30 46 H -0.3333 6.5764 -0.0302 0
M  V30 47 H -1.1927 -0.473 1.0764 0
M  V30 48 H 0.3451 2.6944 5.2709 0
M  V30 49 H -2.5544 -0.8146 4.8109 0
M  V30 50 H -1.768 1.4055 5.1745 0
M  V30 51 H -1.5904 -2.789 1.3227 0
M  V30 52 H 1.5601 -1.7785 0.828 0
M  V30 53 H 1.0413 -0.3042 0.0392 0
M  V30 54 H -0.1519 4.5284 3.6674 0
M  V30 55 H -1.5982 3.9469 4.4974 0
M  V30 56 H -1.3062 3.4842 2.8208 0
M  V30 57 H -2.6061 -2.8346 3.5278 0
M  V30 58 H 0.6697 -3.7329 1.6854 0
M  V30 59 H 0.7515 -3.006 3.2977 0
M  V30 60 H -0.4235 -4.2782 2.9493 0
M  V30 61 H -0.1683 -3.047 -0.4714 0
M  V30 62 H -0.784 -1.5309 -1.1461 0
M  V30 63 H 1.4905 -1.1414 -2.1984 0
M  V30 64 H 2.8401 -3.0487 -2.2268 0
M  V30 65 H 0.2868 -3.8711 -2.8769 0
M  V30 66 H -0.41 -2.3327 -3.4267 0
M  V30 67 H 1.7877 -1.7967 -4.5446 0
M  V30 68 H 2.4331 -4.5009 -3.9747 0
M  V30 69 H -0.0283 -2.7472 -5.8974 0
M  V30 70 H 1.5658 -3.3035 -6.4674 0
M  V30 71 H -0.7344 -6.066 -6.2365 0
M  V30 END ATOM
M  V30 BEGIN BOND
M  V30 1 2 1 2
M  V30 2 1 2 3
M  V30 3 1 2 4
M  V30 4 1 3 5
M  V30 5 1 4 6
M  V30 6 1 4 7
M  V30 7 1 4 8
M  V30 8 1 5 9
M  V30 9 1 5 10
M  V30 10 1 6 11
M  V30 11 1 9 12
M  V30 12 1 9 13
M  V30 13 1 10 14
M  V30 14 1 12 15
M  V30 15 2 12 16
M  V30 16 1 13 17
M  V30 17 1 13 18
M  V30 18 1 14 19
M  V30 19 2 15 20
M  V30 20 1 17 21
M  V30 21 1 18 22
M  V30 22 1 22 23
M  V30 23 1 23 24
M  V30 24 1 23 25
M  V30 25 1 25 26
M  V30 26 1 26 27
M  V30 27 1 26 28
M  V30 28 1 28 29
M  V30 29 2 29 30
M  V30 30 1 29 31
M  V30 31 1 14 16
M  V30 32 1 17 20
M  V30 33 1 5 32
M  V30 34 1 6 33
M  V30 35 1 6 34
M  V30 36 1 7 35
M  V30 37 1 7 36
M  V30 38 1 7 37
M  V30 39 1 8 38
M  V30 40 1 8 39
M  V30 41 1 8 40
M  V30 42 1 9 41
M  V30 43 1 10 42
M  V30 44 1 10 43
M  V30 45 1 11 44
M  V30 46 1 11 45
M  V30 47 1 11 46
M  V30 48 1 13 47
M  V30 49 1 14 48
M  V30 50 1 15 49
M  V30 51 1 16 50
M  V30 52 1 17 51
M  V30 53 1 18 52
M  V30 54 1 18 53
M  V30 55 1 19 54
M  V30 56 1 19 55
M  V30 57 1 19 56
M  V30 58 1 20 57
M  V30 59 1 21 58
M  V30 60 1 21 59
M  V30 61 1 21 60
M  V30 62 1 22 61
M  V30 63 1 22 62
M  V30 64 1 23 63
M  V30 65 1 24 64
M  V30 66 1 25 65
M  V30 67 1 25 66
M  V30 68 1 26 67
M  V30 69 1 27 68
M  V30 70 1 28 69
M  V30 71 1 28 70
M  V30 72 1 31 71
M  V30 END BOND
M  V30 BEGIN COLLECTION
M  V30 MDLV30/STEABS ATOMS=(7 5 9 13 14 17 23 26)
M  V30 END COLLECTION
M  V30 END CTAB
M  END
>  <Column 1>
3948

>  <level_0>
7714

>  <index>
7715

>  <Unnamed: 0>
7715

>  <NO.>
7728

>  <Name>
simvastatin acid

>  <IUPAC_name>
(3r-5r)-7-[(1s-2s-6r-8s-8ar)-8-(2-2-dimethylbutanoyloxy)-2-6-dimethyl-1-2-6-7-8-8a-hexahydronaphthalen-1-yl]-3-5-dihydroxyheptanoic acid

>  <SMILES>
CCC(C)(C)C(=O)O[C@H]1C[C@@H](C)C=C2C=C[C@H](C)[C@H](CC[C@@H](O)C[C@@H](O)CC(=O)O)[C@H]21

>  <CID>
64718

>  <logBB>


>  <BBB+/BBB->
BBB+

>  <Inchi>
InChI=1S/C25H40O6/c1-6-25(4-5)24(30)31-21-12-15(2)11-17-8-7-16(3)20(23(17)21)10-9-18(26)13-19(27)14-22(28)29/h7-8-11-15-16-18-21-23-26-27H-6-9-10-12-14H2-1-5H3-(H-28-29)/t15--16--18+-19+-20--21--23-/m0/s1

>  <threshold>


>  <reference>
R34|

>  <group>
C

>  <Class>
1

>  <ABC>
23.49

>  <ABCGG>
19.7

>  <nAcid>
1

>  <nBase>
0

>  <nAromAtom>
0

>  <nAromBond>
0

>  <nAtom>
71

>  <nHeavyAtom>
31

>  <nSpiro>
0

>  <nBridgehead>
0

>  <nHetero>
6

>  <nN>
0

>  <nO>
6

>  <nF>
0

>  <BalabanJ>
2.06

>  <BertzCT>
694.13

>  <nBonds>
72

>  <nBondsO>
32

>  <nBondsS>
68

>  <nBondsD>
4

>  <nBondsT>
0

>  <nBondsA>
0

>  <nBondsM>
4

>  <nBondsKS>
68

>  <nBondsKD>
4

>  <RNCG>
0.16

>  <RPCG>
0.1

>  <FCSP3>
0.76

>  <SZ>
39.67

>  <Sm>
36.35

>  <Sv>
40.13

>  <Sse>
70.74

>  <Sp>
43.85

>  <Si>
80.56

>  <MZ>
0.56

>  <Mm>
0.51

>  <Mv>
0.57

>  <Mse>
1

>  <Mp>
0.62

>  <Mi>
1.13

>  <NsCH3>
5

>  <NdCH2>
0

>  <NssCH2>
6

>  <NtCH>
0

>  <NdsCH>
3

>  <NaaCH>
0

>  <NsssCH>
7

>  <NddC>
0

>  <NtsC>
0

>  <NdssC>
3

>  <NaasC>
0

>  <NaaaC>
0

>  <NssssC>
1

>  <NsNH3>
0

>  <NsNH2>
0

>  <NssNH2>
0

>  <NdNH>
0

>  <NssNH>
0

>  <NaaNH>
0

>  <NtN>
0

>  <NsssNH>
0

>  <NdsN>
0

>  <NaaN>
0

>  <NsssN>
0

>  <NddsN>
0

>  <NaasN>
0

>  <NssssN>
0

>  <NsOH>
3

>  <NdO>
2

>  <NssO>
1

>  <NaaO>
0

>  <NsF>
0

>  <NsSiH3>
0

>  <NssSiH2>
0

>  <NsssSiH>
0

>  <NssssSi>
0

>  <NsPH2>
0

>  <NssPH>
0

>  <NsssP>
0

>  <NdsssP>
0

>  <NsssssP>
0

>  <NsSH>
0

>  <NdS>
0

>  <NssS>
0

>  <NaaS>
0

>  <NdssS>
0

>  <NddssS>
0

>  <NsCl>
0

>  <NsBr>
0

>  <NsI>
0

>  <fragCpx>
94.06

>  <fMF>
0.14

>  <nHBAcc>
5

>  <nHBDon>
3

>  <Kier1>
27.25

>  <Kier2>
11.92

>  <Lipinski>
1

>  <GhoseFilter>
0

>  <FilterItLogS>
-2.69

>  <VMcGowan>
359.41

>  <LabuteASA>
185.93

>  <PEOE_VSA1>
20.06

>  <PEOE_VSA2>
9.59

>  <PEOE_VSA3>
0

>  <PEOE_VSA4>
0

>  <PEOE_VSA5>
0

>  <PEOE_VSA6>
39

>  <PEOE_VSA7>
69.28

>  <PEOE_VSA8>
5.92

>  <PEOE_VSA9>
24.04

>  <PEOE_VSA10>
6.1

>  <PEOE_VSA11>
0

>  <PEOE_VSA12>
0

>  <PEOE_VSA13>
0

>  <SMR_VSA1>
29.65

>  <SMR_VSA2>
0

>  <SMR_VSA3>
0

>  <SMR_VSA4>
29.09

>  <SMR_VSA5>
91.46

>  <SMR_VSA6>
0

>  <SMR_VSA7>
23.8

>  <SMR_VSA8>
0

>  <SMR_VSA9>
0

>  <SlogP_VSA1>
0

>  <SlogP_VSA2>
45.57

>  <SlogP_VSA3>
14.33

>  <SlogP_VSA4>
29.09

>  <SlogP_VSA5>
73.14

>  <SlogP_VSA6>
23.8

>  <SlogP_VSA7>
0

>  <SlogP_VSA8>
0

>  <SlogP_VSA9>
0

>  <SlogP_VSA10>
0

>  <SlogP_VSA11>
0

>  <EState_VSA1>
23.59

>  <EState_VSA2>
42.67

>  <EState_VSA3>
25.18

>  <EState_VSA4>
6.42

>  <EState_VSA5>
5.57

>  <EState_VSA6>
0

>  <EState_VSA7>
20.77

>  <EState_VSA8>
32.08

>  <EState_VSA9>
9.84

>  <EState_VSA10>
19.8

>  <VSA_EState1>
6.1

>  <VSA_EState2>
23.58

>  <VSA_EState3>
28.98

>  <VSA_EState4>
0.68

>  <VSA_EState5>
-0.35

>  <VSA_EState6>
0

>  <VSA_EState7>
6.98

>  <VSA_EState8>
10.11

>  <VSA_EState9>
0

>  <apol>
73.23

>  <bpol>
43.6

>  <nRing>
2

>  <nHRing>
0

>  <naRing>
0

>  <naHRing>
0

>  <nARing 2>
2

>  <nAHRing 2>
0

>  <nFRing>
1

>  <nFHRing>
0

>  <nFaRing>
0

>  <nFaHRing>
0

>  <nFARing 2>
1

>  <nFAHRing 2>
0

>  <nRot>
10

>  <SLogP>
4.11

>  <SMR>
119.22

>  <TopoPSA(NO)>
104.06

>  <TopoPSA>
104.06

>  <JGI1>
0.3

>  <JGI2>
0.09

>  <JGI3>
0.06

>  <JGI4>
0.04

>  <JGI5>
0.03

>  <Diameter>
15

>  <Radius>
8

>  <TMWC10>
139.78

>  <TSRW10>
66.69

>  <MW>
436.28

>  <AMW>
6.14

>  <WPath>
2812

>  <WPol>
49

>  <Zagreb1>
156

>  <Zagreb2>
179

>  <mZagreb2>
6.82

>  <yes>


>  <nAR-cont>
1

>  <nHA-cont>
0.702745138

>  <MWHBN>
0.38300755

>  <MWHBN-cont>
0.542992449

>  <TPSA-cont>
0.273596583

>  <pka_cont>
0.97

>  <yes.1>


>  <BBB_SCORE>
3.549426976

>  <MMFF94 Energy>
9.4165

$$$$
Compound 3066
Actelion Java MolfileCreator 2.0

  0  0  0  0  0  0              0 V3000
M  V30 BEGIN CTAB
M  V30 COUNTS 29 32 0 0 0
M  V30 BEGIN ATOM
M  V30 1 N 2.5907 1.6186 1.9426 0
M  V30 2 C 1.7929 0.9058 1.1234 0
M  V30 3 C 3.6734 0.9775 2.4318 0
M  V30 4 C 2.092 -0.4556 0.7964 0
M  V30 5 C 0.6609 1.5144 0.5925 0
M  V30 6 C 3.9617 -0.3346 2.1166 0
M  V30 7 N 3.1815 -1.0706 1.2967 0
M  V30 8 C 1.2499 -1.1666 -0.0514 0
M  V30 9 C -0.1561 0.792 -0.2545 0
M  V30 10 C 0.1363 -0.5391 -0.5743 0
M  V30 11 C -1.4455 1.1858 -0.9347 0
M  V30 12 C -0.949 -1.0742 -1.4775 0
M  V30 13 C -2.6811 0.7701 -0.1012 0
M  V30 14 C -1.3621 0.2466 -2.1517 0
M  V30 15 C -2.1624 -1.5911 -0.6683 0
M  V30 16 N -2.6809 -0.6388 0.329 0
M  V30 17 H 4.3097 1.5553 3.092 0
M  V30 18 H 0.4301 2.5421 0.8513 0
M  V30 19 H 4.835 -0.8356 2.5177 0
M  V30 20 H 1.4722 -2.2014 -0.288 0
M  V30 21 H -1.4696 2.2385 -1.2295 0
M  V30 22 H -0.5808 -1.8066 -2.2012 0
M  V30 23 H -2.7424 1.3955 0.7967 0
M  V30 24 H -3.5875 0.9599 -0.6889 0
M  V30 25 H -2.3069 0.1711 -2.7013 0
M  V30 26 H -0.5896 0.5857 -2.8564 0
M  V30 27 H -1.8841 -2.5109 -0.1415 0
M  V30 28 H -2.9704 -1.8493 -1.3637 0
M  V30 29 H -3.6011 -0.9206 0.6607 0
M  V30 END ATOM
M  V30 BEGIN BOND
M  V30 1 1 1 2
M  V30 2 2 1 3
M  V30 3 1 2 4
M  V30 4 2 2 5
M  V30 5 1 3 6
M  V30 6 1 4 7
M  V30 7 2 4 8
M  V30 8 1 5 9
M  V30 9 1 8 10
M  V30 10 1 9 11
M  V30 11 1 10 12
M  V30 12 1 11 13
M  V30 13 1 11 14
M  V30 14 1 12 15
M  V30 15 1 13 16
M  V30 16 2 6 7
M  V30 17 2 9 10
M  V30 18 1 12 14
M  V30 19 1 15 16
M  V30 20 1 3 17
M  V30 21 1 5 18
M  V30 22 1 6 19
M  V30 23 1 8 20
M  V30 24 1 11 21
M  V30 25 1 12 22
M  V30 26 1 13 23
M  V30 27 1 13 24
M  V30 28 1 14 25
M  V30 29 1 14 26
M  V30 30 1 15 27
M  V30 31 1 15 28
M  V30 32 1 16 29
M  V30 END BOND
M  V30 END CTAB
M  END
>  <Column 1>
3949

>  <level_0>
7719

>  <index>
7720

>  <Unnamed: 0>
7720

>  <NO.>
7733

>  <Name>
varenicline

>  <IUPAC_name>
5-8-14-triazatetracyclo[10.3.1.02-11.04-9]hexadeca-2-4-6-8-10-pentaene

>  <SMILES>
c1cnc2cc3c(cc2n1)C1CNCC3C1

>  <CID>
170361

>  <logBB>


>  <BBB+/BBB->
BBB+

>  <Inchi>
InChI=1S/C13H13N3/c1-2-16-13-5-11-9-3-8(6-14-7-9)10(11)4-12(13)15-1/h1-2-4-5-8-9-14H-3-6-7H2

>  <threshold>


>  <reference>
R34|R37|

>  <group>
C

>  <Class>
1

>  <ABC>
13.27

>  <ABCGG>
10.51

>  <nAcid>
0

>  <nBase>
1

>  <nAromAtom>
10

>  <nAromBond>
11

>  <nAtom>
29

>  <nHeavyAtom>
16

>  <nSpiro>
0

>  <nBridgehead>
2

>  <nHetero>
3

>  <nN>
3

>  <nO>
0

>  <nF>
0

>  <BalabanJ>
1.57

>  <BertzCT>
515.61

>  <nBonds>
32

>  <nBondsO>
19

>  <nBondsS>
21

>  <nBondsD>
0

>  <nBondsT>
0

>  <nBondsA>
11

>  <nBondsM>
11

>  <nBondsKS>
27

>  <nBondsKD>
5

>  <RNCG>
0.32

>  <RPCG>
0.12

>  <FCSP3>
0.38

>  <SZ>
18.67

>  <Sm>
17.59

>  <Sv>
18.8

>  <Sse>
28.76

>  <Sp>
20.17

>  <Si>
32.57

>  <MZ>
0.64

>  <Mm>
0.61

>  <Mv>
0.65

>  <Mse>
0.99

>  <Mp>
0.7

>  <Mi>
1.12

>  <NsCH3>
0

>  <NdCH2>
0

>  <NssCH2>
3

>  <NtCH>
0

>  <NdsCH>
0

>  <NaaCH>
4

>  <NsssCH>
2

>  <NddC>
0

>  <NtsC>
0

>  <NdssC>
0

>  <NaasC>
2

>  <NaaaC>
2

>  <NssssC>
0

>  <NsNH3>
0

>  <NsNH2>
0

>  <NssNH2>
0

>  <NdNH>
0

>  <NssNH>
1

>  <NaaNH>
0

>  <NtN>
0

>  <NsssNH>
0

>  <NdsN>
0

>  <NaaN>
2

>  <NsssN>
0

>  <NddsN>
0

>  <NaasN>
0

>  <NssssN>
0

>  <NsOH>
0

>  <NdO>
0

>  <NssO>
0

>  <NaaO>
0

>  <NsF>
0

>  <NsSiH3>
0

>  <NssSiH2>
0

>  <NsssSiH>
0

>  <NssssSi>
0

>  <NsPH2>
0

>  <NssPH>
0

>  <NsssP>
0

>  <NdsssP>
0

>  <NsssssP>
0

>  <NsSH>
0

>  <NdS>
0

>  <NssS>
0

>  <NaaS>
0

>  <NdssS>
0

>  <NddssS>
0

>  <NsCl>
0

>  <NsBr>
0

>  <NsI>
0

>  <fragCpx>
121.03

>  <fMF>
0.55

>  <nHBAcc>
3

>  <nHBDon>
1

>  <Kier1>
9.97

>  <Kier2>
3.75

>  <Lipinski>
1

>  <GhoseFilter>
1

>  <FilterItLogS>
-3.7

>  <VMcGowan>
159.03

>  <LabuteASA>
93.92

>  <PEOE_VSA1>
5.32

>  <PEOE_VSA2>
9.97

>  <PEOE_VSA3>
0

>  <PEOE_VSA4>
0

>  <PEOE_VSA5>
0

>  <PEOE_VSA6>
0

>  <PEOE_VSA7>
41.52

>  <PEOE_VSA8>
25.48

>  <PEOE_VSA9>
11.03

>  <PEOE_VSA10>
0

>  <PEOE_VSA11>
0

>  <PEOE_VSA12>
0

>  <PEOE_VSA13>
0

>  <SMR_VSA1>
0

>  <SMR_VSA2>
0

>  <SMR_VSA3>
15.28

>  <SMR_VSA4>
0

>  <SMR_VSA5>
18.26

>  <SMR_VSA6>
13.09

>  <SMR_VSA7>
35.65

>  <SMR_VSA8>
0

>  <SMR_VSA9>
0

>  <SlogP_VSA1>
5.32

>  <SlogP_VSA2>
23.06

>  <SlogP_VSA3>
0

>  <SlogP_VSA4>
0

>  <SlogP_VSA5>
29.38

>  <SlogP_VSA6>
24.53

>  <SlogP_VSA7>
0

>  <SlogP_VSA8>
11.03

>  <SlogP_VSA9>
0

>  <SlogP_VSA10>
0

>  <SlogP_VSA11>
0

>  <EState_VSA1>
0

>  <EState_VSA2>
0

>  <EState_VSA3>
11.84

>  <EState_VSA4>
24.12

>  <EState_VSA5>
17.55

>  <EState_VSA6>
12.39

>  <EState_VSA7>
0

>  <EState_VSA8>
27.42

>  <EState_VSA9>
0

>  <EState_VSA10>
0

>  <VSA_EState1>
0

>  <VSA_EState2>
8.78

>  <VSA_EState3>
3.51

>  <VSA_EState4>
5.08

>  <VSA_EState5>
1.39

>  <VSA_EState6>
4.49

>  <VSA_EState7>
4.85

>  <VSA_EState8>
2.24

>  <VSA_EState9>
0

>  <apol>
33.68

>  <bpol>
15.89

>  <nRing>
4

>  <nHRing>
2

>  <naRing>
2

>  <naHRing>
1

>  <nARing 2>
2

>  <nAHRing 2>
1

>  <nFRing>
1

>  <nFHRing>
1

>  <nFaRing>
0

>  <nFaHRing>
0

>  <nFARing 2>
1

>  <nFAHRing 2>
1

>  <nRot>
0

>  <SLogP>
1.8

>  <SMR>
62.51

>  <TopoPSA(NO)>
37.81

>  <TopoPSA>
37.81

>  <JGI1>
0.13

>  <JGI2>
0.06

>  <JGI3>
0.04

>  <JGI4>
0.05

>  <JGI5>
0.03

>  <Diameter>
7

>  <Radius>
4

>  <TMWC10>
108.88

>  <TSRW10>
64.05

>  <MW>
211.11

>  <AMW>
7.28

>  <WPath>
386

>  <WPol>
27

>  <Zagreb1>
94

>  <Zagreb2>
116

>  <mZagreb2>
3.36

>  <yes>


>  <nAR-cont>
1

>  <nHA-cont>
0.954961865

>  <MWHBN>
0.275299605

>  <MWHBN-cont>
0.907701879

>  <TPSA-cont>
0.736062721

>  <pka_cont>
0.97

>  <yes.1>


>  <BBB_SCORE>
5.273640126

>  <MMFF94 Energy>
120.77

$$$$
Compound 3067
Actelion Java MolfileCreator 2.0

  0  0  0  0  0  0              0 V3000
M  V30 BEGIN CTAB
M  V30 COUNTS 52 56 0 0 0
M  V30 BEGIN ATOM
M  V30 1 O -3.781 0.0 0.482 0
M  V30 2 C -2.8072 0.728 0.3716 0
M  V30 3 O -2.8288 2.0735 0.1832 0
M  V30 4 C -1.4069 0.2589 0.428 0
M  V30 5 C -4.1456 2.6304 0.1033 0
M  V30 6 N -0.864 -0.6458 -0.4911 0
M  V30 7 C -0.6537 0.7645 1.4334 0
M  V30 8 C -4.0143 4.1252 -0.1145 0
M  V30 9 C -1.3553 -1.1565 -1.6998 0
M  V30 10 C 0.3998 -1.1601 -0.3198 0
M  V30 11 C 0.8354 0.413 1.647 0 CFG=1
M  V30 12 C -0.3383 -1.9385 -2.2821 0
M  V30 13 C -2.5865 -0.9817 -2.3622 0
M  V30 14 C 0.766 -1.9204 -1.4003 0
M  V30 15 C 1.2087 -0.9302 0.9219 0 CFG=2
M  V30 16 C 1.6438 1.6045 1.0718 0
M  V30 17 C 1.0052 0.2769 3.1945 0
M  V30 18 C -0.5638 -2.5494 -3.5328 0
M  V30 19 C -2.7855 -1.6048 -3.5991 0
M  V30 20 C 2.1242 -2.5253 -1.4861 0
M  V30 21 N 2.6524 -1.1283 0.6277 0
M  V30 22 C 3.1008 1.2896 0.7458 0
M  V30 23 C 2.3742 -0.0914 3.7456 0
M  V30 24 C -1.7891 -2.3781 -4.1795 0
M  V30 25 C 2.8653 -2.3969 -0.1242 0
M  V30 26 C 3.2402 0.0147 -0.0758 0
M  V30 27 H -4.6856 2.4386 1.0374 0
M  V30 28 H -4.6877 2.1802 -0.7359 0
M  V30 29 H -1.0867 1.4932 2.1182 0
M  V30 30 H -4.9983 4.5978 -0.1821 0
M  V30 31 H -3.4557 4.5868 0.7065 0
M  V30 32 H -3.4579 4.3331 -1.0345 0
M  V30 33 H -3.3885 -0.3843 -1.9432 0
M  V30 34 H 0.9204 -1.7457 1.6037 0
M  V30 35 H 1.1766 1.9477 0.1372 0
M  V30 36 H 1.6035 2.4626 1.7553 0
M  V30 37 H 0.7013 1.216 3.6783 0
M  V30 38 H 0.2965 -0.4818 3.5568 0
M  V30 39 H 0.2114 -3.155 -3.9932 0
M  V30 40 H -3.737 -1.4795 -4.1113 0
M  V30 41 H 2.0586 -3.5813 -1.7699 0
M  V30 42 H 2.6956 -2.0045 -2.2637 0
M  V30 43 H 3.6976 1.2099 1.658 0
M  V30 44 H 3.5286 2.1285 0.183 0
M  V30 45 H 2.2971 -0.2608 4.8257 0
M  V30 46 H 3.0945 0.7169 3.6087 0
M  V30 47 H 2.7677 -1.0096 3.305 0
M  V30 48 H -1.9623 -2.8536 -5.1414 0
M  V30 49 H 2.5409 -3.222 0.5251 0
M  V30 50 H 3.9389 -2.5609 -0.2801 0
M  V30 51 H 2.792 0.1722 -1.0642 0
M  V30 52 H 4.3096 -0.1672 -0.2383 0
M  V30 END ATOM
M  V30 BEGIN BOND
M  V30 1 2 1 2
M  V30 2 1 2 3
M  V30 3 1 2 4
M  V30 4 1 3 5
M  V30 5 1 4 6
M  V30 6 2 4 7
M  V30 7 1 5 8
M  V30 8 1 6 9
M  V30 9 1 6 10
M  V30 10 1 7 11
M  V30 11 2 9 12
M  V30 12 1 9 13
M  V30 13 2 10 14
M  V30 14 1 10 15
M  V30 15 1 11 16
M  V30 16 1 11 17
M  V30 17 1 12 18
M  V30 18 2 13 19
M  V30 19 1 14 20
M  V30 20 1 15 21
M  V30 21 1 16 22
M  V30 22 1 17 23
M  V30 23 2 18 24
M  V30 24 1 20 25
M  V30 25 1 21 26
M  V30 26 1 11 15
M  V30 27 1 12 14
M  V30 28 1 19 24
M  V30 29 1 21 25
M  V30 30 1 22 26
M  V30 31 1 5 27
M  V30 32 1 5 28
M  V30 33 1 7 29
M  V30 34 1 8 30
M  V30 35 1 8 31
M  V30 36 1 8 32
M  V30 37 1 13 33
M  V30 38 1 15 34
M  V30 39 1 16 35
M  V30 40 1 16 36
M  V30 41 1 17 37
M  V30 42 1 17 38
M  V30 43 1 18 39
M  V30 44 1 19 40
M  V30 45 1 20 41
M  V30 46 1 20 42
M  V30 47 1 22 43
M  V30 48 1 22 44
M  V30 49 1 23 45
M  V30 50 1 23 46
M  V30 51 1 23 47
M  V30 52 1 24 48
M  V30 53 1 25 49
M  V30 54 1 25 50
M  V30 55 1 26 51
M  V30 56 1 26 52
M  V30 END BOND
M  V30 BEGIN COLLECTION
M  V30 MDLV30/STEABS ATOMS=(2 11 15)
M  V30 END COLLECTION
M  V30 END CTAB
M  END
>  <Column 1>
3950

>  <level_0>
7727

>  <index>
7729

>  <Unnamed: 0>
7729

>  <NO.>
7742

>  <Name>
vinpocetine

>  <IUPAC_name>
ethyl (15s-19s)-15-ethyl-1-11-diazapentacyclo[9.6.2.02-7.08-18.015-19]nonadeca-2-4-6-8(18)-16-pentaene-17-carboxylate

>  <SMILES>
CCOC(=O)C1=C[C@]2(CC)CCCN3CCc4c(n1c1ccccc41)[C@@H]32

>  <CID>
443955

>  <logBB>


>  <BBB+/BBB->
BBB+

>  <Inchi>
InChI=1S/C22H26N2O2/c1-3-22-11-7-12-23-13-10-16-15-8-5-6-9-17(15)24(19(16)20(22)23)18(14-22)21(25)26-4-2/h5-6-8-9-14-20H-3-4-7-10-13H2-1-2H3/t20--22+/m1/s1

>  <threshold>


>  <reference>
R37|

>  <group>
C

>  <Class>
1

>  <ABC>
20.9

>  <ABCGG>
16.27

>  <nAcid>
0

>  <nBase>
1

>  <nAromAtom>
9

>  <nAromBond>
10

>  <nAtom>
52

>  <nHeavyAtom>
26

>  <nSpiro>
0

>  <nBridgehead>
0

>  <nHetero>
4

>  <nN>
2

>  <nO>
2

>  <nF>
0

>  <BalabanJ>
1.57

>  <BertzCT>
925.61

>  <nBonds>
56

>  <nBondsO>
30

>  <nBondsS>
44

>  <nBondsD>
2

>  <nBondsT>
0

>  <nBondsA>
10

>  <nBondsM>
12

>  <nBondsKS>
50

>  <nBondsKD>
6

>  <RNCG>
0.25

>  <RPCG>
0.2

>  <FCSP3>
0.5

>  <SZ>
31.33

>  <Sm>
29.18

>  <Sv>
31.99

>  <Sse>
51.53

>  <Sp>
34.66

>  <Si>
58.4

>  <MZ>
0.6

>  <Mm>
0.56

>  <Mv>
0.62

>  <Mse>
0.99

>  <Mp>
0.67

>  <Mi>
1.12

>  <NsCH3>
2

>  <NdCH2>
0

>  <NssCH2>
7

>  <NtCH>
0

>  <NdsCH>
1

>  <NaaCH>
4

>  <NsssCH>
1

>  <NddC>
0

>  <NtsC>
0

>  <NdssC>
2

>  <NaasC>
2

>  <NaaaC>
2

>  <NssssC>
1

>  <NsNH3>
0

>  <NsNH2>
0

>  <NssNH2>
0

>  <NdNH>
0

>  <NssNH>
0

>  <NaaNH>
0

>  <NtN>
0

>  <NsssNH>
0

>  <NdsN>
0

>  <NaaN>
0

>  <NsssN>
1

>  <NddsN>
0

>  <NaasN>
1

>  <NssssN>
0

>  <NsOH>
0

>  <NdO>
1

>  <NssO>
1

>  <NaaO>
0

>  <NsF>
0

>  <NsSiH3>
0

>  <NssSiH2>
0

>  <NsssSiH>
0

>  <NssssSi>
0

>  <NsPH2>
0

>  <NssPH>
0

>  <NsssP>
0

>  <NdsssP>
0

>  <NsssssP>
0

>  <NsSH>
0

>  <NdS>
0

>  <NssS>
0

>  <NaaS>
0

>  <NdssS>
0

>  <NddssS>
0

>  <NsCl>
0

>  <NsBr>
0

>  <NsI>
0

>  <fragCpx>
250.04

>  <fMF>
0.37

>  <nHBAcc>
4

>  <nHBDon>
0

>  <Kier1>
18.06

>  <Kier2>
6.81

>  <Lipinski>
1

>  <GhoseFilter>
1

>  <FilterItLogS>
-4.42

>  <VMcGowan>
272.44

>  <LabuteASA>
153.97

>  <PEOE_VSA1>
9.3

>  <PEOE_VSA2>
4.9

>  <PEOE_VSA3>
4.79

>  <PEOE_VSA4>
0

>  <PEOE_VSA5>
0

>  <PEOE_VSA6>
25.12

>  <PEOE_VSA7>
56.86

>  <PEOE_VSA8>
23.04

>  <PEOE_VSA9>
18.17

>  <PEOE_VSA10>
5.7

>  <PEOE_VSA11>
0

>  <PEOE_VSA12>
0

>  <PEOE_VSA13>
0

>  <SMR_VSA1>
9.53

>  <SMR_VSA2>
0

>  <SMR_VSA3>
9.47

>  <SMR_VSA4>
5.41

>  <SMR_VSA5>
45.57

>  <SMR_VSA6>
19.7

>  <SMR_VSA7>
41.6

>  <SMR_VSA8>
0

>  <SMR_VSA9>
0

>  <SlogP_VSA1>
0

>  <SlogP_VSA2>
35.13

>  <SlogP_VSA3>
15.95

>  <SlogP_VSA4>
5.41

>  <SlogP_VSA5>
50.41

>  <SlogP_VSA6>
30.34

>  <SlogP_VSA7>
0

>  <SlogP_VSA8>
16.6

>  <SlogP_VSA9>
0

>  <SlogP_VSA10>
0

>  <SlogP_VSA11>
0

>  <EState_VSA1>
0

>  <EState_VSA2>
11.38

>  <EState_VSA3>
12.65

>  <EState_VSA4>
43.57

>  <EState_VSA5>
23.06

>  <EState_VSA6>
0

>  <EState_VSA7>
6.92

>  <EState_VSA8>
46.73

>  <EState_VSA9>
4.74

>  <EState_VSA10>
4.79

>  <VSA_EState1>
7.69

>  <VSA_EState2>
15.58

>  <VSA_EState3>
1.3

>  <VSA_EState4>
4.71

>  <VSA_EState5>
-0.19

>  <VSA_EState6>
8.92

>  <VSA_EState7>
6.73

>  <VSA_EState8>
6.85

>  <VSA_EState9>
0

>  <apol>
57.88

>  <bpol>
32.11

>  <nRing>
5

>  <nHRing>
4

>  <naRing>
2

>  <naHRing>
1

>  <nARing 2>
3

>  <nAHRing 2>
3

>  <nFRing>
1

>  <nFHRing>
1

>  <nFaRing>
0

>  <nFaHRing>
0

>  <nFARing 2>
1

>  <nFAHRing 2>
1

>  <nRot>
3

>  <SLogP>
4.15

>  <SMR>
102.82

>  <TopoPSA(NO)>
34.47

>  <TopoPSA>
34.47

>  <JGI1>
0.15

>  <JGI2>
0.08

>  <JGI3>
0.06

>  <JGI4>
0.04

>  <JGI5>
0.03

>  <Diameter>
9

>  <Radius>
5

>  <TMWC10>
135.93

>  <TSRW10>
76.92

>  <MW>
350.2

>  <AMW>
6.73

>  <WPath>
1348

>  <WPol>
55

>  <Zagreb1>
152

>  <Zagreb2>
194

>  <mZagreb2>
5.71

>  <yes>


>  <nAR-cont>
0.691115

>  <nHA-cont>
0.892715677

>  <MWHBN>
0.213747931

>  <MWHBN-cont>
0.998147991

>  <TPSA-cont>
0.759377995

>  <pka_cont>
0.97

>  <yes.1>


>  <BBB_SCORE>
5.084808654

>  <MMFF94 Energy>
78.474

$$$$
Compound 3068
Actelion Java MolfileCreator 2.0

  0  0  0  0  0  0              0 V3000
M  V30 BEGIN CTAB
M  V30 COUNTS 40 43 0 0 0
M  V30 BEGIN ATOM
M  V30 1 O -0.3215 -1.6087 1.2063 0
M  V30 2 C -0.0717 -1.4229 -0.1307 0
M  V30 3 C -0.1965 -0.2948 1.8019 0 CFG=2
M  V30 4 C 0.0516 -2.4719 -1.0345 0
M  V30 5 C -0.0404 -0.0868 -0.5169 0
M  V30 6 C -0.2023 0.8027 0.6778 0 CFG=2
M  V30 7 C 1.0715 -0.3533 2.6622 0
M  V30 8 O 0.0198 -3.7352 -0.5169 0
M  V30 9 C 0.1874 -2.1412 -2.3819 0
M  V30 10 C -0.013 0.2454 -1.8676 0
M  V30 11 C 0.9068 1.8245 0.8685 0
M  V30 12 C -1.5835 1.5021 0.6037 0
M  V30 13 C 1.5025 1.0196 3.1461 0 CFG=2
M  V30 14 C 0.1522 -4.8123 -1.433 0
M  V30 15 C 0.1387 -0.7983 -2.7945 0
M  V30 16 C -0.2472 1.6526 -2.3434 0
M  V30 17 C 1.6334 1.9506 1.9901 0
M  V30 18 C -1.7291 2.6167 -0.4466 0
M  V30 19 O 2.7771 0.93 3.7682 0
M  V30 20 C -1.6191 2.1834 -1.9119 0
M  V30 21 H -1.0567 -0.1588 2.4704 0
M  V30 22 H 0.9092 -1.023 3.517 0
M  V30 23 H 1.8905 -0.8316 2.1049 0
M  V30 24 H 0.2943 -2.9019 -3.1477 0
M  V30 25 H 1.1027 2.5334 0.0705 0
M  V30 26 H -1.7992 1.9523 1.5829 0
M  V30 27 H -2.376 0.7598 0.4339 0
M  V30 28 H 0.7972 1.4296 3.8769 0
M  V30 29 H -0.6754 -4.8254 -2.1497 0
M  V30 30 H 0.1115 -5.7446 -0.8616 0
M  V30 31 H 1.119 -4.7786 -1.9458 0
M  V30 32 H 0.1856 -0.5804 -3.86 0
M  V30 33 H 0.5618 2.3121 -2.0168 0
M  V30 34 H -0.2128 1.67 -3.4405 0
M  V30 35 H 2.3742 2.7427 2.0681 0
M  V30 36 H -2.7227 3.064 -0.3107 0
M  V30 37 H -1.0171 3.4258 -0.2485 0
M  V30 38 H 2.7302 0.2188 4.4287 0
M  V30 39 H -1.8436 3.0642 -2.5274 0
M  V30 40 H -2.4002 1.4453 -2.1345 0
M  V30 END ATOM
M  V30 BEGIN BOND
M  V30 1 1 1 2
M  V30 2 1 1 3
M  V30 3 2 2 4
M  V30 4 1 2 5
M  V30 5 1 3 6
M  V30 6 1 3 7
M  V30 7 1 4 8
M  V30 8 1 4 9
M  V30 9 2 5 10
M  V30 10 1 6 11
M  V30 11 1 6 12
M  V30 12 1 7 13
M  V30 13 1 8 14
M  V30 14 2 9 15
M  V30 15 1 10 16
M  V30 16 2 11 17
M  V30 17 1 12 18
M  V30 18 1 13 19
M  V30 19 1 16 20
M  V30 20 1 5 6
M  V30 21 1 10 15
M  V30 22 1 13 17
M  V30 23 1 18 20
M  V30 24 1 3 21
M  V30 25 1 7 22
M  V30 26 1 7 23
M  V30 27 1 9 24
M  V30 28 1 11 25
M  V30 29 1 12 26
M  V30 30 1 12 27
M  V30 31 1 13 28
M  V30 32 1 14 29
M  V30 33 1 14 30
M  V30 34 1 14 31
M  V30 35 1 15 32
M  V30 36 1 16 33
M  V30 37 1 16 34
M  V30 38 1 17 35
M  V30 39 1 18 36
M  V30 40 1 18 37
M  V30 41 1 19 38
M  V30 42 1 20 39
M  V30 43 1 20 40
M  V30 END BOND
M  V30 BEGIN COLLECTION
M  V30 MDLV30/STEABS ATOMS=(3 3 6 13)
M  V30 END COLLECTION
M  V30 END CTAB
M  END
>  <Column 1>
3951

>  <level_0>
7732

>  <index>
7734

>  <Unnamed: 0>
7734

>  <NO.>
7747

>  <Name>
schembl13016949

>  <IUPAC_name>
(1s-12s-14r)-9-methoxy-11-oxatetracyclo[8.6.1.01-12.06-17]heptadeca-6(17)-7-9-15-tetraen-14-ol

>  <SMILES>
COc1ccc2c3c1O[C@H]1C[C@@H](O)C=C[C@@]31CCCC2

>  <CID>
44589811

>  <logBB>


>  <BBB+/BBB->
BBB+

>  <Inchi>
InChI=1S/C17H20O3/c1-19-13-6-5-11-4-2-3-8-17-9-7-12(18)10-14(17)20-16(13)15(11)17/h5-7-9-12-14-18H-2-4-8-10H2-1H3/t12--14--17+/m0/s1

>  <threshold>


>  <reference>
R37|

>  <group>
C

>  <Class>
1

>  <ABC>
16.13

>  <ABCGG>
13.07

>  <nAcid>
0

>  <nBase>
0

>  <nAromAtom>
6

>  <nAromBond>
6

>  <nAtom>
40

>  <nHeavyAtom>
20

>  <nSpiro>
1

>  <nBridgehead>
0

>  <nHetero>
3

>  <nN>
0

>  <nO>
3

>  <nF>
0

>  <BalabanJ>
1.71

>  <BertzCT>
577.84

>  <nBonds>
43

>  <nBondsO>
23

>  <nBondsS>
36

>  <nBondsD>
1

>  <nBondsT>
0

>  <nBondsA>
6

>  <nBondsM>
7

>  <nBondsKS>
39

>  <nBondsKD>
4

>  <RNCG>
0.28

>  <RPCG>
0.12

>  <FCSP3>
0.53

>  <SZ>
24.33

>  <Sm>
22.67

>  <Sv>
24.56

>  <Sse>
39.87

>  <Sp>
26.43

>  <Si>
44.78

>  <MZ>
0.61

>  <Mm>
0.57

>  <Mv>
0.61

>  <Mse>
1

>  <Mp>
0.66

>  <Mi>
1.12

>  <NsCH3>
1

>  <NdCH2>
0

>  <NssCH2>
5

>  <NtCH>
0

>  <NdsCH>
2

>  <NaaCH>
2

>  <NsssCH>
2

>  <NddC>
0

>  <NtsC>
0

>  <NdssC>
0

>  <NaasC>
4

>  <NaaaC>
0

>  <NssssC>
1

>  <NsNH3>
0

>  <NsNH2>
0

>  <NssNH2>
0

>  <NdNH>
0

>  <NssNH>
0

>  <NaaNH>
0

>  <NtN>
0

>  <NsssNH>
0

>  <NdsN>
0

>  <NaaN>
0

>  <NsssN>
0

>  <NddsN>
0

>  <NaasN>
0

>  <NssssN>
0

>  <NsOH>
1

>  <NdO>
0

>  <NssO>
2

>  <NaaO>
0

>  <NsF>
0

>  <NsSiH3>
0

>  <NssSiH2>
0

>  <NsssSiH>
0

>  <NssssSi>
0

>  <NsPH2>
0

>  <NssPH>
0

>  <NsssP>
0

>  <NdsssP>
0

>  <NsssssP>
0

>  <NsSH>
0

>  <NdS>
0

>  <NssS>
0

>  <NaaS>
0

>  <NdssS>
0

>  <NddssS>
0

>  <NsCl>
0

>  <NsBr>
0

>  <NsI>
0

>  <fragCpx>
149.03

>  <fMF>
0.43

>  <nHBAcc>
3

>  <nHBDon>
1

>  <Kier1>
13.65

>  <Kier2>
5.03

>  <Lipinski>
1

>  <GhoseFilter>
1

>  <FilterItLogS>
-3.22

>  <VMcGowan>
207.36

>  <LabuteASA>
118.76

>  <PEOE_VSA1>
14.58

>  <PEOE_VSA2>
0

>  <PEOE_VSA3>
0

>  <PEOE_VSA4>
0

>  <PEOE_VSA5>
0

>  <PEOE_VSA6>
24.64

>  <PEOE_VSA7>
30.89

>  <PEOE_VSA8>
11.98

>  <PEOE_VSA9>
18.63

>  <PEOE_VSA10>
6.1

>  <PEOE_VSA11>
11.5

>  <PEOE_VSA12>
0

>  <PEOE_VSA13>
0

>  <SMR_VSA1>
14.58

>  <SMR_VSA2>
0

>  <SMR_VSA3>
0

>  <SMR_VSA4>
0

>  <SMR_VSA5>
49.73

>  <SMR_VSA6>
7.11

>  <SMR_VSA7>
35.41

>  <SMR_VSA8>
0

>  <SMR_VSA9>
11.5

>  <SlogP_VSA1>
9.47

>  <SlogP_VSA2>
24.42

>  <SlogP_VSA3>
11.84

>  <SlogP_VSA4>
0

>  <SlogP_VSA5>
36.81

>  <SlogP_VSA6>
24.28

>  <SlogP_VSA7>
0

>  <SlogP_VSA8>
0

>  <SlogP_VSA9>
0

>  <SlogP_VSA10>
0

>  <SlogP_VSA11>
11.5

>  <EState_VSA1>
6.1

>  <EState_VSA2>
11.52

>  <EState_VSA3>
6.42

>  <EState_VSA4>
24.34

>  <EState_VSA5>
23.97

>  <EState_VSA6>
7.11

>  <EState_VSA7>
12.14

>  <EState_VSA8>
12.14

>  <EState_VSA9>
9.47

>  <EState_VSA10>
5.11

>  <VSA_EState1>
11.73

>  <VSA_EState2>
0

>  <VSA_EState3>
9.93

>  <VSA_EState4>
2.67

>  <VSA_EState5>
1.73

>  <VSA_EState6>
4.21

>  <VSA_EState7>
9.13

>  <VSA_EState8>
0

>  <VSA_EState9>
1.69

>  <apol>
44.13

>  <bpol>
23.54

>  <nRing>
4

>  <nHRing>
1

>  <naRing>
1

>  <naHRing>
0

>  <nARing 2>
3

>  <nAHRing 2>
1

>  <nFRing>
1

>  <nFHRing>
1

>  <nFaRing>
0

>  <nFaHRing>
0

>  <nFARing 2>
1

>  <nFAHRing 2>
1

>  <nRot>
1

>  <SLogP>
2.74

>  <SMR>
76.41

>  <TopoPSA(NO)>
38.69

>  <TopoPSA>
38.69

>  <JGI1>
0.2

>  <JGI2>
0.09

>  <JGI3>
0.06

>  <JGI4>
0.04

>  <JGI5>
0.03

>  <Diameter>
8

>  <Radius>
5

>  <TMWC10>
119.95

>  <TSRW10>
69.64

>  <MW>
272.14

>  <AMW>
6.8

>  <WPath>
669

>  <WPol>
42

>  <Zagreb1>
116

>  <Zagreb2>
146

>  <mZagreb2>
4.33

>  <yes>


>  <nAR-cont>
0.691115

>  <nHA-cont>
0.999629945

>  <MWHBN>
0.242473232

>  <MWHBN-cont>
0.971518469

>  <TPSA-cont>
0.729919775

>  <pka_cont>
0.97

>  <yes.1>


>  <BBB_SCORE>
5.092862198

>  <MMFF94 Energy>
67.832

$$$$
Compound 3069
Actelion Java MolfileCreator 2.0

  0  0  0  0  0  0              0 V3000
M  V30 BEGIN CTAB
M  V30 COUNTS 49 53 0 0 0
M  V30 BEGIN ATOM
M  V30 1 Cl -0.1632 3.8415 2.2872 0
M  V30 2 C 1.4743 3.5413 1.8124 0
M  V30 3 C 1.822 2.4251 1.0349 0
M  V30 4 C 2.4371 4.4654 2.2439 0
M  V30 5 C 3.1758 2.2255 0.6907 0
M  V30 6 C 0.8048 1.4014 0.5716 0
M  V30 7 C 3.7684 4.2385 1.8782 0
M  V30 8 C 4.1586 3.1419 1.1138 0
M  V30 9 C 0.557 0.3216 1.642 0
M  V30 10 N 4.9062 4.9647 2.1556 0
M  V30 11 C 5.5662 3.233 0.9425 0
M  V30 12 N -0.4473 -0.7087 1.3428 0
M  V30 13 C 6.0032 4.3638 1.5927 0
M  V30 14 C -1.818 -0.1678 1.2345 0
M  V30 15 C -0.1315 -1.5143 0.1488 0
M  V30 16 O 7.2302 4.8549 1.7056 0
M  V30 17 C -2.8765 -1.2742 1.0148 0
M  V30 18 C -1.1563 -2.6497 -0.0777 0
M  V30 19 N -2.5231 -2.1066 -0.1492 0
M  V30 20 C -3.5089 -2.849 -0.7431 0
M  V30 21 N -4.5906 -3.2683 -0.0872 0
M  V30 22 C -3.4656 -3.197 -2.1581 0
M  V30 23 S -5.5364 -4.1688 -1.0881 0
M  V30 24 C -4.5726 -3.9814 -2.4926 0
M  V30 25 C -2.5578 -2.8742 -3.201 0
M  V30 26 C -4.7839 -4.4806 -3.7898 0
M  V30 27 C -2.7587 -3.3609 -4.4974 0
M  V30 28 C -3.8574 -4.1605 -4.7846 0
M  V30 29 H 2.1576 5.326 2.8433 0
M  V30 30 H 3.4741 1.3644 0.0977 0
M  V30 31 H 1.1717 0.9386 -0.3528 0
M  V30 32 H -0.1227 1.9101 0.2891 0
M  V30 33 H 1.507 -0.1862 1.8573 0
M  V30 34 H 0.28 0.7984 2.5913 0
M  V30 35 H 4.9149 5.8155 2.6979 0
M  V30 36 H 6.1999 2.5445 0.4 0
M  V30 37 H -1.8866 0.5421 0.401 0
M  V30 38 H -2.0754 0.3744 2.1521 0
M  V30 39 H -0.1114 -0.8848 -0.7493 0
M  V30 40 H 0.8613 -1.9655 0.2606 0
M  V30 41 H 7.218 5.672 2.2309 0
M  V30 42 H -3.849 -0.7893 0.8622 0
M  V30 43 H -2.9496 -1.9018 1.9125 0
M  V30 44 H -0.8798 -3.1895 -0.9891 0
M  V30 45 H -1.097 -3.3701 0.7488 0
M  V30 46 H -1.7061 -2.2319 -2.9948 0
M  V30 47 H -5.6516 -5.0927 -4.017 0
M  V30 48 H -2.0525 -3.1052 -5.2838 0
M  V30 49 H -4.0056 -4.5327 -5.7959 0
M  V30 END ATOM
M  V30 BEGIN BOND
M  V30 1 1 1 2
M  V30 2 2 2 3
M  V30 3 1 2 4
M  V30 4 1 3 5
M  V30 5 1 3 6
M  V30 6 2 4 7
M  V30 7 2 5 8
M  V30 8 1 6 9
M  V30 9 1 7 10
M  V30 10 1 8 11
M  V30 11 1 9 12
M  V30 12 1 10 13
M  V30 13 1 12 14
M  V30 14 1 12 15
M  V30 15 1 13 16
M  V30 16 1 14 17
M  V30 17 1 15 18
M  V30 18 1 17 19
M  V30 19 1 19 20
M  V30 20 2 20 21
M  V30 21 1 20 22
M  V30 22 1 21 23
M  V30 23 2 22 24
M  V30 24 1 22 25
M  V30 25 1 24 26
M  V30 26 2 25 27
M  V30 27 2 26 28
M  V30 28 1 7 8
M  V30 29 2 11 13
M  V30 30 1 18 19
M  V30 31 1 23 24
M  V30 32 1 27 28
M  V30 33 1 4 29
M  V30 34 1 5 30
M  V30 35 1 6 31
M  V30 36 1 6 32
M  V30 37 1 9 33
M  V30 38 1 9 34
M  V30 39 1 10 35
M  V30 40 1 11 36
M  V30 41 1 14 37
M  V30 42 1 14 38
M  V30 43 1 15 39
M  V30 44 1 15 40
M  V30 45 1 16 41
M  V30 46 1 17 42
M  V30 47 1 17 43
M  V30 48 1 18 44
M  V30 49 1 18 45
M  V30 50 1 25 46
M  V30 51 1 26 47
M  V30 52 1 27 48
M  V30 53 1 28 49
M  V30 END BOND
M  V30 END CTAB
M  END
>  <Column 1>
3953

>  <level_0>
7734

>  <index>
7736

>  <Unnamed: 0>
7736

>  <NO.>
7749

>  <Name>
ziprasidone

>  <IUPAC_name>
5-[2-[4-(1-2-benzothiazol-3-yl)piperazin-1-yl]ethyl]-6-chloro-1h-indol-2-ol

>  <SMILES>
Oc1cc2cc(CCN3CCN(c4nsc5ccccc45)CC3)c(Cl)cc2[nH]1

>  <CID>
16760212

>  <logBB>


>  <BBB+/BBB->
BBB+

>  <Inchi>
InChI=1S/C21H21ClN4OS/c22-17-13-18-15(12-20(27)23-18)11-14(17)5-6-25-7-9-26(10-8-25)21-16-3-1-2-4-19(16)28-24-21/h1-4-11-13-23-27H-5-10H2

>  <threshold>


>  <reference>
R37|

>  <group>
C

>  <Class>
1

>  <ABC>
22.64

>  <ABCGG>
16.49

>  <nAcid>
0

>  <nBase>
1

>  <nAromAtom>
18

>  <nAromBond>
20

>  <nAtom>
49

>  <nHeavyAtom>
28

>  <nSpiro>
0

>  <nBridgehead>
0

>  <nHetero>
7

>  <nN>
4

>  <nO>
1

>  <nF>
0

>  <BalabanJ>
1.06

>  <BertzCT>
1130.05

>  <nBonds>
53

>  <nBondsO>
32

>  <nBondsS>
33

>  <nBondsD>
0

>  <nBondsT>
0

>  <nBondsA>
20

>  <nBondsM>
20

>  <nBondsKS>
45

>  <nBondsKD>
8

>  <RNCG>
0.24

>  <RPCG>
0.14

>  <FCSP3>
0.29

>  <SZ>
36

>  <Sm>
34.38

>  <Sv>
32.71

>  <Sse>
49.15

>  <Sp>
35.54

>  <Si>
54.8

>  <MZ>
0.73

>  <Mm>
0.7

>  <Mv>
0.67

>  <Mse>
1

>  <Mp>
0.73

>  <Mi>
1.12

>  <NsCH3>
0

>  <NdCH2>
0

>  <NssCH2>
6

>  <NtCH>
0

>  <NdsCH>
0

>  <NaaCH>
7

>  <NsssCH>
0

>  <NddC>
0

>  <NtsC>
0

>  <NdssC>
0

>  <NaasC>
4

>  <NaaaC>
4

>  <NssssC>
0

>  <NsNH3>
0

>  <NsNH2>
0

>  <NssNH2>
0

>  <NdNH>
0

>  <NssNH>
0

>  <NaaNH>
1

>  <NtN>
0

>  <NsssNH>
0

>  <NdsN>
0

>  <NaaN>
1

>  <NsssN>
2

>  <NddsN>
0

>  <NaasN>
0

>  <NssssN>
0

>  <NsOH>
1

>  <NdO>
0

>  <NssO>
0

>  <NaaO>
0

>  <NsF>
0

>  <NsSiH3>
0

>  <NssSiH2>
0

>  <NsssSiH>
0

>  <NssssSi>
0

>  <NsPH2>
0

>  <NssPH>
0

>  <NsssP>
0

>  <NdsssP>
0

>  <NsssssP>
0

>  <NsSH>
0

>  <NdS>
0

>  <NssS>
0

>  <NaaS>
1

>  <NdssS>
0

>  <NddssS>
0

>  <NsCl>
1

>  <NsBr>
0

>  <NsI>
0

>  <fragCpx>
268.07

>  <fMF>
0.53

>  <nHBAcc>
5

>  <nHBDon>
2

>  <Kier1>
19.93

>  <Kier2>
8.63

>  <Lipinski>
1

>  <GhoseFilter>
1

>  <FilterItLogS>
-5.86

>  <VMcGowan>
292.43

>  <LabuteASA>
171.86

>  <PEOE_VSA1>
14.99

>  <PEOE_VSA2>
4.9

>  <PEOE_VSA3>
0

>  <PEOE_VSA4>
4.37

>  <PEOE_VSA5>
0

>  <PEOE_VSA6>
23.73

>  <PEOE_VSA7>
47.78

>  <PEOE_VSA8>
60.1

>  <PEOE_VSA9>
4.7

>  <PEOE_VSA10>
5.82

>  <PEOE_VSA11>
5.88

>  <PEOE_VSA12>
0

>  <PEOE_VSA13>
0

>  <SMR_VSA1>
5.11

>  <SMR_VSA2>
0

>  <SMR_VSA3>
14.26

>  <SMR_VSA4>
0

>  <SMR_VSA5>
6.42

>  <SMR_VSA6>
37.62

>  <SMR_VSA7>
53.05

>  <SMR_VSA8>
0

>  <SMR_VSA9>
5.88

>  <SlogP_VSA1>
4.9

>  <SlogP_VSA2>
52.09

>  <SlogP_VSA3>
6.42

>  <SlogP_VSA4>
0

>  <SlogP_VSA5>
5.56

>  <SlogP_VSA6>
42.46

>  <SlogP_VSA7>
5.02

>  <SlogP_VSA8>
20.99

>  <SlogP_VSA9>
0

>  <SlogP_VSA10>
5.82

>  <SlogP_VSA11>
5.88

>  <EState_VSA1>
0

>  <EState_VSA2>
5.88

>  <EState_VSA3>
0

>  <EState_VSA4>
66.45

>  <EState_VSA5>
10.09

>  <EState_VSA6>
17.6

>  <EState_VSA7>
6.07

>  <EState_VSA8>
49.49

>  <EState_VSA9>
11.6

>  <EState_VSA10>
5.11

>  <VSA_EState1>
5.94

>  <VSA_EState2>
7.8

>  <VSA_EState3>
12.63

>  <VSA_EState4>
2

>  <VSA_EState5>
1.3

>  <VSA_EState6>
14.17

>  <VSA_EState7>
0.9

>  <VSA_EState8>
5.01

>  <VSA_EState9>
0

>  <apol>
59.35

>  <bpol>
29.17

>  <nRing>
5

>  <nHRing>
3

>  <naRing>
4

>  <naHRing>
2

>  <nARing 2>
1

>  <nAHRing 2>
1

>  <nFRing>
2

>  <nFHRing>
2

>  <nFaRing>
2

>  <nFaHRing>
2

>  <nFARing 2>
0

>  <nFAHRing 2>
0

>  <nRot>
4

>  <SLogP>
4.5

>  <SMR>
116.95

>  <TopoPSA(NO)>
55.39

>  <TopoPSA>
83.63

>  <JGI1>
0.17

>  <JGI2>
0.07

>  <JGI3>
0.05

>  <JGI4>
0.04

>  <JGI5>
0.03

>  <Diameter>
16

>  <Radius>
8

>  <TMWC10>
137.4

>  <TSRW10>
79.71

>  <MW>
412.11

>  <AMW>
8.41

>  <WPath>
2344

>  <WPol>
44

>  <Zagreb1>
156

>  <Zagreb2>
187

>  <mZagreb2>
5.97

>  <yes>


>  <nAR-cont>
0.816016

>  <nHA-cont>
0.82432561

>  <MWHBN>
0.344819219

>  <MWHBN-cont>
0.689490837

>  <TPSA-cont>
0.416210669

>  <pka_cont>
0.97

>  <yes.1>


>  <BBB_SCORE>
3.991999204

>  <MMFF94 Energy>
110.21

$$$$
Compound 3070
Actelion Java MolfileCreator 2.0

  0  0  0  0  0  0              0 V3000
M  V30 BEGIN CTAB
M  V30 COUNTS 46 48 0 0 0
M  V30 BEGIN ATOM
M  V30 1 N 1.582 -1.1072 -1.2655 0
M  V30 2 C 0.9108 -1.9893 -0.4751 0
M  V30 3 C 2.8479 -1.4097 -1.6253 0
M  V30 4 C 1.4985 -3.1865 -0.0662 0
M  V30 5 C -0.5139 -1.5923 -0.101 0 CFG=2
M  V30 6 C 3.4969 -2.5703 -1.2497 0
M  V30 7 C 2.8049 -3.4751 -0.4573 0
M  V30 8 C -0.5746 -0.4299 0.865 0
M  V30 9 C -1.4346 -2.7373 0.3442 0
M  V30 10 C -0.0744 -0.4446 2.249 0
M  V30 11 C -1.0702 0.8095 0.6389 0
M  V30 12 C -0.2939 0.8137 2.8274 0
M  V30 13 C 0.5316 -1.4425 2.9965 0
M  V30 14 C -0.9469 1.723 1.8386 0
M  V30 15 C -1.6979 1.3461 -0.6156 0
M  V30 16 C 0.0738 1.0995 4.1341 0
M  V30 17 C 0.9091 -1.1699 4.3169 0
M  V30 18 C -0.6797 2.1024 -1.4874 0
M  V30 19 C 0.681 0.0924 4.882 0
M  V30 20 N -1.2921 2.7641 -2.6591 0
M  V30 21 C -1.755 1.7865 -3.6477 0
M  V30 22 C -0.3146 3.6615 -3.2828 0
M  V30 23 H 3.3412 -0.667 -2.2452 0
M  V30 24 H 0.9654 -3.8997 0.5519 0
M  V30 25 H -0.9442 -1.2617 -1.0562 0
M  V30 26 H 4.5147 -2.7642 -1.5671 0
M  V30 27 H 3.2779 -4.4009 -0.1426 0
M  V30 28 H -1.1232 -3.1891 1.2909 0
M  V30 29 H -1.4585 -3.5323 -0.4099 0
M  V30 30 H -2.4621 -2.3781 0.4753 0
M  V30 31 H 0.7227 -2.4249 2.5857 0
M  V30 32 H -1.931 2.0457 2.1917 0
M  V30 33 H -0.3106 2.5855 1.6197 0
M  V30 34 H -2.5241 2.0146 -0.341 0
M  V30 35 H -2.1563 0.5279 -1.1794 0
M  V30 36 H -0.1029 2.08 4.5639 0
M  V30 37 H 1.3869 -1.9453 4.9108 0
M  V30 38 H -0.2123 2.8731 -0.8598 0
M  V30 39 H 0.1246 1.4249 -1.8027 0
M  V30 40 H 0.9821 0.2866 5.9084 0
M  V30 41 H -2.5698 1.1741 -3.2496 0
M  V30 42 H -0.9502 1.122 -3.9822 0
M  V30 43 H -2.1653 2.2959 -4.5274 0
M  V30 44 H 0.5739 3.1254 -3.6356 0
M  V30 45 H 0.0057 4.4346 -2.5753 0
M  V30 46 H -0.7621 4.1869 -4.134 0
M  V30 END ATOM
M  V30 BEGIN BOND
M  V30 1 2 1 2
M  V30 2 1 1 3
M  V30 3 1 2 4
M  V30 4 1 2 5
M  V30 5 2 3 6
M  V30 6 2 4 7
M  V30 7 1 5 8
M  V30 8 1 5 9
M  V30 9 1 8 10
M  V30 10 2 8 11
M  V30 11 2 10 12
M  V30 12 1 10 13
M  V30 13 1 11 14
M  V30 14 1 11 15
M  V30 15 1 12 16
M  V30 16 2 13 17
M  V30 17 1 15 18
M  V30 18 2 16 19
M  V30 19 1 18 20
M  V30 20 1 20 21
M  V30 21 1 20 22
M  V30 22 1 6 7
M  V30 23 1 12 14
M  V30 24 1 17 19
M  V30 25 1 3 23
M  V30 26 1 4 24
M  V30 27 1 5 25
M  V30 28 1 6 26
M  V30 29 1 7 27
M  V30 30 1 9 28
M  V30 31 1 9 29
M  V30 32 1 9 30
M  V30 33 1 13 31
M  V30 34 1 14 32
M  V30 35 1 14 33
M  V30 36 1 15 34
M  V30 37 1 15 35
M  V30 38 1 16 36
M  V30 39 1 17 37
M  V30 40 1 18 38
M  V30 41 1 18 39
M  V30 42 1 19 40
M  V30 43 1 21 41
M  V30 44 1 21 42
M  V30 45 1 21 43
M  V30 46 1 22 44
M  V30 47 1 22 45
M  V30 48 1 22 46
M  V30 END BOND
M  V30 BEGIN COLLECTION
M  V30 MDLV30/STERAC1 ATOMS=(1 5)
M  V30 END COLLECTION
M  V30 END CTAB
M  END
>  <Column 1>
3954

>  <level_0>
7735

>  <index>
7737

>  <Unnamed: 0>
7737

>  <NO.>
7750

>  <Name>
dimethindene

>  <IUPAC_name>
n-n-dimethyl-2-[3-(1-pyridin-2-ylethyl)-1h-inden-2-yl]ethanamine

>  <SMILES>
CC(C1=C(CCN(C)C)Cc2ccccc21)c1ccccn1

>  <CID>
21855

>  <logBB>


>  <BBB+/BBB->
BBB+

>  <Inchi>
InChI=1S/C20H24N2/c1-15(19-10-6-7-12-21-19)20-17(11-13-22(2)3)14-16-8-4-5-9-18(16)20/h4-10-12-15H-11-13-14H2-1-3H3

>  <threshold>


>  <reference>
R50|

>  <group>
C

>  <Class>
1

>  <ABC>
17.1

>  <ABCGG>
14.37

>  <nAcid>
0

>  <nBase>
1

>  <nAromAtom>
12

>  <nAromBond>
12

>  <nAtom>
46

>  <nHeavyAtom>
22

>  <nSpiro>
0

>  <nBridgehead>
0

>  <nHetero>
2

>  <nN>
2

>  <nO>
0

>  <nF>
0

>  <BalabanJ>
1.69

>  <BertzCT>
671.12

>  <nBonds>
48

>  <nBondsO>
24

>  <nBondsS>
35

>  <nBondsD>
1

>  <nBondsT>
0

>  <nBondsA>
12

>  <nBondsM>
13

>  <nBondsKS>
41

>  <nBondsKD>
7

>  <RNCG>
0.26

>  <RPCG>
0.07

>  <FCSP3>
0.35

>  <SZ>
26.33

>  <Sm>
24.35

>  <Sv>
28.02

>  <Sse>
44.98

>  <Sp>
30.9

>  <Si>
51.56

>  <MZ>
0.57

>  <Mm>
0.53

>  <Mv>
0.61

>  <Mse>
0.98

>  <Mp>
0.67

>  <Mi>
1.12

>  <NsCH3>
3

>  <NdCH2>
0

>  <NssCH2>
3

>  <NtCH>
0

>  <NdsCH>
0

>  <NaaCH>
8

>  <NsssCH>
1

>  <NddC>
0

>  <NtsC>
0

>  <NdssC>
2

>  <NaasC>
3

>  <NaaaC>
0

>  <NssssC>
0

>  <NsNH3>
0

>  <NsNH2>
0

>  <NssNH2>
0

>  <NdNH>
0

>  <NssNH>
0

>  <NaaNH>
0

>  <NtN>
0

>  <NsssNH>
0

>  <NdsN>
0

>  <NaaN>
1

>  <NsssN>
1

>  <NddsN>
0

>  <NaasN>
0

>  <NssssN>
0

>  <NsOH>
0

>  <NdO>
0

>  <NssO>
0

>  <NaaO>
0

>  <NsF>
0

>  <NsSiH3>
0

>  <NssSiH2>
0

>  <NsssSiH>
0

>  <NssssSi>
0

>  <NsPH2>
0

>  <NssPH>
0

>  <NsssP>
0

>  <NdsssP>
0

>  <NsssssP>
0

>  <NsSH>
0

>  <NdS>
0

>  <NssS>
0

>  <NaaS>
0

>  <NdssS>
0

>  <NddssS>
0

>  <NsCl>
0

>  <NsBr>
0

>  <NsI>
0

>  <fragCpx>
114.02

>  <fMF>
0.35

>  <nHBAcc>
2

>  <nHBDon>
0

>  <Kier1>
16.84

>  <Kier2>
7.71

>  <Lipinski>
1

>  <GhoseFilter>
1

>  <FilterItLogS>
-5.48

>  <VMcGowan>
249.94

>  <LabuteASA>
133.06

>  <PEOE_VSA1>
4.9

>  <PEOE_VSA2>
4.98

>  <PEOE_VSA3>
0

>  <PEOE_VSA4>
0

>  <PEOE_VSA5>
0

>  <PEOE_VSA6>
42.83

>  <PEOE_VSA7>
55.77

>  <PEOE_VSA8>
24.35

>  <PEOE_VSA9>
0

>  <PEOE_VSA10>
0

>  <PEOE_VSA11>
0

>  <PEOE_VSA12>
0

>  <PEOE_VSA13>
0

>  <SMR_VSA1>
0

>  <SMR_VSA2>
0

>  <SMR_VSA3>
9.88

>  <SMR_VSA4>
0

>  <SMR_VSA5>
25.68

>  <SMR_VSA6>
20.64

>  <SMR_VSA7>
71.06

>  <SMR_VSA8>
0

>  <SMR_VSA9>
0

>  <SlogP_VSA1>
0

>  <SlogP_VSA2>
30.52

>  <SlogP_VSA3>
6.42

>  <SlogP_VSA4>
0

>  <SlogP_VSA5>
36.08

>  <SlogP_VSA6>
54.23

>  <SlogP_VSA7>
0

>  <SlogP_VSA8>
5.57

>  <SlogP_VSA9>
0

>  <SlogP_VSA10>
0

>  <SlogP_VSA11>
0

>  <EState_VSA1>
0

>  <EState_VSA2>
0

>  <EState_VSA3>
5.92

>  <EState_VSA4>
25.08

>  <EState_VSA5>
16.7

>  <EState_VSA6>
5.57

>  <EState_VSA7>
12.26

>  <EState_VSA8>
67.3

>  <EState_VSA9>
0

>  <EState_VSA10>
0

>  <VSA_EState1>
0

>  <VSA_EState2>
6.84

>  <VSA_EState3>
0

>  <VSA_EState4>
7.13

>  <VSA_EState5>
0.35

>  <VSA_EState6>
15.05

>  <VSA_EState7>
4.12

>  <VSA_EState8>
3.39

>  <VSA_EState9>
4.29

>  <apol>
51.6

>  <bpol>
26.93

>  <nRing>
3

>  <nHRing>
1

>  <naRing>
2

>  <naHRing>
1

>  <nARing 2>
1

>  <nAHRing 2>
0

>  <nFRing>
1

>  <nFHRing>
0

>  <nFaRing>
0

>  <nFaHRing>
0

>  <nFARing 2>
1

>  <nFAHRing 2>
0

>  <nRot>
5

>  <SLogP>
4.15

>  <SMR>
92.89

>  <TopoPSA(NO)>
16.13

>  <TopoPSA>
16.13

>  <JGI1>
0.15

>  <JGI2>
0.07

>  <JGI3>
0.06

>  <JGI4>
0.04

>  <JGI5>
0.02

>  <Diameter>
10

>  <Radius>
5

>  <TMWC10>
120.48

>  <TSRW10>
70.36

>  <MW>
292.19

>  <AMW>
6.35

>  <WPath>
1019

>  <WPol>
33

>  <Zagreb1>
114

>  <Zagreb2>
134

>  <mZagreb2>
4.89

>  <yes>


>  <nAR-cont>
0.816016

>  <nHA-cont>
0.983774276

>  <MWHBN>
0.117003087

>  <MWHBN-cont>
0.816178545

>  <TPSA-cont>
0.887402584

>  <pka_cont>
0.97

>  <yes.1>


>  <BBB_SCORE>
5.283863262

>  <MMFF94 Energy>
83.976

$$$$
Compound 3071
Actelion Java MolfileCreator 2.0

  0  0  0  0  0  0              0 V3000
M  V30 BEGIN CTAB
M  V30 COUNTS 60 62 0 0 0
M  V30 BEGIN ATOM
M  V30 1 O 3.3107 2.4428 -2.8372 0
M  V30 2 C 3.1206 1.3278 -2.0567 0
M  V30 3 C 2.2411 3.377 -2.9442 0
M  V30 4 C 4.2062 0.4349 -1.9898 0
M  V30 5 C 1.9423 1.0471 -1.35 0
M  V30 6 C 2.6968 4.5079 -3.8488 0
M  V30 7 O 5.3248 0.7913 -2.7013 0
M  V30 8 C 4.0868 -0.7356 -1.2377 0
M  V30 9 C 1.82 -0.1096 -0.5614 0
M  V30 10 C 6.4642 -0.0593 -2.6238 0
M  V30 11 C 2.8979 -1.0215 -0.5473 0
M  V30 12 C 0.5839 -0.4342 0.2255 0
M  V30 13 C 7.5713 0.5651 -3.454 0
M  V30 14 C 2.7752 -2.3054 0.2429 0
M  V30 15 N 0.4212 -1.7675 0.555 0
M  V30 16 C -0.2548 0.5409 0.6313 0
M  V30 17 C 1.3383 -2.8238 0.1836 0
M  V30 18 C -1.4854 0.3214 1.4035 0
M  V30 19 C -2.5651 -0.3786 0.8499 0
M  V30 20 C -1.5894 0.8367 2.696 0
M  V30 21 C -3.7378 -0.5784 1.5875 0
M  V30 22 C -2.7562 0.6438 3.4404 0
M  V30 23 O -4.838 -1.2591 1.1262 0
M  V30 24 C -3.8338 -0.0628 2.8963 0
M  V30 25 C -4.7898 -1.7819 -0.1981 0
M  V30 26 O -5.0153 -0.3034 3.5531 0
M  V30 27 C -6.1121 -2.4745 -0.4754 0
M  V30 28 C -5.1601 0.2099 4.8737 0
M  V30 29 C -6.5392 -0.177 5.3773 0
M  V30 30 H 1.9929 3.7871 -1.9585 0
M  V30 31 H 1.3604 2.8986 -3.3877 0
M  V30 32 H 1.099 1.7232 -1.4193 0
M  V30 33 H 1.9079 5.2564 -3.9649 0
M  V30 34 H 3.5883 4.9941 -3.439 0
M  V30 35 H 2.969 4.1246 -4.8378 0
M  V30 36 H 4.9 -1.4508 -1.179 0
M  V30 37 H 6.228 -1.0488 -3.0311 0
M  V30 38 H 6.8043 -0.1491 -1.5856 0
M  V30 39 H 8.4734 -0.0523 -3.4287 0
M  V30 40 H 7.2525 0.6834 -4.495 0
M  V30 41 H 7.8162 1.5649 -3.0803 0
M  V30 42 H 3.4489 -3.0732 -0.1539 0
M  V30 43 H 3.0682 -2.103 1.2804 0
M  V30 44 H -0.3761 -2.0087 1.135 0
M  V30 45 H -0.0537 1.5884 0.4308 0
M  V30 46 H 1.2171 -3.6776 0.8583 0
M  V30 47 H 1.0971 -3.1664 -0.8297 0
M  V30 48 H -2.4616 -0.7596 -0.161 0
M  V30 49 H -0.7595 1.384 3.1377 0
M  V30 50 H -2.7897 1.0568 4.4427 0
M  V30 51 H -3.9784 -2.5129 -0.2895 0
M  V30 52 H -4.6528 -0.9716 -0.9232 0
M  V30 53 H -6.1274 -2.8959 -1.4843 0
M  V30 54 H -6.2846 -3.2793 0.2468 0
M  V30 55 H -6.9449 -1.7708 -0.3731 0
M  V30 56 H -5.0757 1.3027 4.8695 0
M  V30 57 H -4.4034 -0.225 5.5366 0
M  V30 58 H -6.7022 0.1948 6.3928 0
M  V30 59 H -7.3169 0.2299 4.7226 0
M  V30 60 H -6.6588 -1.2654 5.3758 0
M  V30 END ATOM
M  V30 BEGIN BOND
M  V30 1 1 1 2
M  V30 2 1 1 3
M  V30 3 2 2 4
M  V30 4 1 2 5
M  V30 5 1 3 6
M  V30 6 1 4 7
M  V30 7 1 4 8
M  V30 8 2 5 9
M  V30 9 1 7 10
M  V30 10 2 8 11
M  V30 11 1 9 12
M  V30 12 1 10 13
M  V30 13 1 11 14
M  V30 14 1 12 15
M  V30 15 2 12 16
M  V30 16 1 14 17
M  V30 17 1 16 18
M  V30 18 2 18 19
M  V30 19 1 18 20
M  V30 20 1 19 21
M  V30 21 2 20 22
M  V30 22 1 21 23
M  V30 23 2 21 24
M  V30 24 1 23 25
M  V30 25 1 24 26
M  V30 26 1 25 27
M  V30 27 1 26 28
M  V30 28 1 28 29
M  V30 29 1 9 11
M  V30 30 1 15 17
M  V30 31 1 22 24
M  V30 32 1 3 30
M  V30 33 1 3 31
M  V30 34 1 5 32
M  V30 35 1 6 33
M  V30 36 1 6 34
M  V30 37 1 6 35
M  V30 38 1 8 36
M  V30 39 1 10 37
M  V30 40 1 10 38
M  V30 41 1 13 39
M  V30 42 1 13 40
M  V30 43 1 13 41
M  V30 44 1 14 42
M  V30 45 1 14 43
M  V30 46 1 15 44
M  V30 47 1 16 45
M  V30 48 1 17 46
M  V30 49 1 17 47
M  V30 50 1 19 48
M  V30 51 1 20 49
M  V30 52 1 22 50
M  V30 53 1 25 51
M  V30 54 1 25 52
M  V30 55 1 27 53
M  V30 56 1 27 54
M  V30 57 1 27 55
M  V30 58 1 28 56
M  V30 59 1 28 57
M  V30 60 1 29 58
M  V30 61 1 29 59
M  V30 62 1 29 60
M  V30 END BOND
M  V30 END CTAB
M  END
>  <Column 1>
3955

>  <level_0>
7737

>  <index>
7739

>  <Unnamed: 0>
7739

>  <NO.>
7752

>  <Name>
drotaverine

>  <IUPAC_name>
(1z)-1-[(3-4-diethoxyphenyl)methylidene]-6-7-diethoxy-3-4-dihydro-2h-isoquinoline

>  <SMILES>
CCOc1ccc(/C=C2\NCCc3cc(OCC)c(OCC)cc32)cc1OCC

>  <CID>
1712095

>  <logBB>


>  <BBB+/BBB->
BBB+

>  <Inchi>
InChI=1S/C24H31NO4/c1-5-26-21-10-9-17(14-22(21)27-6-2)13-20-19-16-24(29-8-4)23(28-7-3)15-18(19)11-12-25-20/h9-10-13-16-25H-5-8-11-12H2-1-4H3/b20-13-

>  <threshold>


>  <reference>
R50|

>  <group>
C

>  <Class>
1

>  <ABC>
21.76

>  <ABCGG>
16.92

>  <nAcid>
0

>  <nBase>
0

>  <nAromAtom>
12

>  <nAromBond>
12

>  <nAtom>
60

>  <nHeavyAtom>
29

>  <nSpiro>
0

>  <nBridgehead>
0

>  <nHetero>
5

>  <nN>
1

>  <nO>
4

>  <nF>
0

>  <BalabanJ>
1.6

>  <BertzCT>
860.2

>  <nBonds>
62

>  <nBondsO>
31

>  <nBondsS>
49

>  <nBondsD>
1

>  <nBondsT>
0

>  <nBondsA>
12

>  <nBondsM>
13

>  <nBondsKS>
55

>  <nBondsKD>
7

>  <RNCG>
0.18

>  <RPCG>
0.06

>  <FCSP3>
0.42

>  <SZ>
35.67

>  <Sm>
33.1

>  <Sv>
36.02

>  <Sse>
59.75

>  <Sp>
38.96

>  <Si>
67.57

>  <MZ>
0.59

>  <Mm>
0.55

>  <Mv>
0.6

>  <Mse>
1

>  <Mp>
0.65

>  <Mi>
1.13

>  <NsCH3>
4

>  <NdCH2>
0

>  <NssCH2>
6

>  <NtCH>
0

>  <NdsCH>
1

>  <NaaCH>
5

>  <NsssCH>
0

>  <NddC>
0

>  <NtsC>
0

>  <NdssC>
1

>  <NaasC>
7

>  <NaaaC>
0

>  <NssssC>
0

>  <NsNH3>
0

>  <NsNH2>
0

>  <NssNH2>
0

>  <NdNH>
0

>  <NssNH>
1

>  <NaaNH>
0

>  <NtN>
0

>  <NsssNH>
0

>  <NdsN>
0

>  <NaaN>
0

>  <NsssN>
0

>  <NddsN>
0

>  <NaasN>
0

>  <NssssN>
0

>  <NsOH>
0

>  <NdO>
0

>  <NssO>
4

>  <NaaO>
0

>  <NsF>
0

>  <NsSiH3>
0

>  <NssSiH2>
0

>  <NsssSiH>
0

>  <NssssSi>
0

>  <NsPH2>
0

>  <NssPH>
0

>  <NsssP>
0

>  <NdsssP>
0

>  <NsssssP>
0

>  <NsSH>
0

>  <NdS>
0

>  <NssS>
0

>  <NaaS>
0

>  <NdssS>
0

>  <NddssS>
0

>  <NsCl>
0

>  <NsBr>
0

>  <NsI>
0

>  <fragCpx>
149.05

>  <fMF>
0.28

>  <nHBAcc>
5

>  <nHBDon>
1

>  <Kier1>
23.66

>  <Kier2>
12.14

>  <Lipinski>
1

>  <GhoseFilter>
1

>  <FilterItLogS>
-7.12

>  <VMcGowan>
319.8

>  <LabuteASA>
173.18

>  <PEOE_VSA1>
24.26

>  <PEOE_VSA2>
0

>  <PEOE_VSA3>
0

>  <PEOE_VSA4>
0

>  <PEOE_VSA5>
0

>  <PEOE_VSA6>
6.07

>  <PEOE_VSA7>
75.58

>  <PEOE_VSA8>
17.81

>  <PEOE_VSA9>
26.43

>  <PEOE_VSA10>
0

>  <PEOE_VSA11>
23

>  <PEOE_VSA12>
0

>  <PEOE_VSA13>
0

>  <SMR_VSA1>
18.95

>  <SMR_VSA2>
0

>  <SMR_VSA3>
5.32

>  <SMR_VSA4>
0

>  <SMR_VSA5>
34.12

>  <SMR_VSA6>
32.97

>  <SMR_VSA7>
47.02

>  <SMR_VSA8>
0

>  <SMR_VSA9>
23

>  <SlogP_VSA1>
24.26

>  <SlogP_VSA2>
32.97

>  <SlogP_VSA3>
6.42

>  <SlogP_VSA4>
0

>  <SlogP_VSA5>
44.39

>  <SlogP_VSA6>
30.33

>  <SlogP_VSA7>
0

>  <SlogP_VSA8>
11.77

>  <SlogP_VSA9>
0

>  <SlogP_VSA10>
0

>  <SlogP_VSA11>
23

>  <EState_VSA1>
0

>  <EState_VSA2>
0

>  <EState_VSA3>
26.43

>  <EState_VSA4>
52.79

>  <EState_VSA5>
5.56

>  <EState_VSA6>
0

>  <EState_VSA7>
39.83

>  <EState_VSA8>
29.59

>  <EState_VSA9>
18.95

>  <EState_VSA10>
0

>  <VSA_EState1>
23.07

>  <VSA_EState2>
0

>  <VSA_EState3>
3.53

>  <VSA_EState4>
4.54

>  <VSA_EState5>
3.13

>  <VSA_EState6>
10.24

>  <VSA_EState7>
3.1

>  <VSA_EState8>
11.23

>  <VSA_EState9>
0

>  <apol>
65.06

>  <bpol>
38.61

>  <nRing>
3

>  <nHRing>
1

>  <naRing>
2

>  <naHRing>
0

>  <nARing 2>
1

>  <nAHRing 2>
1

>  <nFRing>
1

>  <nFHRing>
1

>  <nFaRing>
0

>  <nFaHRing>
0

>  <nFARing 2>
1

>  <nFAHRing 2>
1

>  <nRot>
9

>  <SLogP>
4.93

>  <SMR>
117.14

>  <TopoPSA(NO)>
48.95

>  <TopoPSA>
48.95

>  <JGI1>
0.16

>  <JGI2>
0.07

>  <JGI3>
0.04

>  <JGI4>
0.04

>  <JGI5>
0.02

>  <Diameter>
15

>  <Radius>
8

>  <TMWC10>
136.15

>  <TSRW10>
64.24

>  <MW>
397.23

>  <AMW>
6.62

>  <WPath>
2364

>  <WPol>
46

>  <Zagreb1>
144

>  <Zagreb2>
168

>  <mZagreb2>
6.86

>  <yes>


>  <nAR-cont>
0.816016

>  <nHA-cont>
0.785905698

>  <MWHBN>
0.301044176

>  <MWHBN-cont>
0.837607825

>  <TPSA-cont>
0.658298604

>  <pka_cont>
0.97

>  <yes.1>


>  <BBB_SCORE>
4.659930643

>  <MMFF94 Energy>
90.085

$$$$
Compound 3072
Actelion Java MolfileCreator 2.0

  0  0  0  0  0  0              0 V3000
M  V30 BEGIN CTAB
M  V30 COUNTS 49 52 0 0 0
M  V30 BEGIN ATOM
M  V30 1 S -0.8059 0.7253 -3.7924 0
M  V30 2 C 0.0053 -0.8547 -3.923 0
M  V30 3 C -1.701 0.5524 -2.2621 0
M  V30 4 C 0.1062 -1.7578 -2.846 0
M  V30 5 C 0.5802 -1.1586 -5.1705 0
M  V30 6 C -1.4518 -0.4833 -1.3396 0
M  V30 7 C -2.681 1.5279 -2.0006 0
M  V30 8 N -0.446 -1.4594 -1.571 0
M  V30 9 C 0.759 -2.9831 -3.0967 0
M  V30 10 C 1.2376 -2.3672 -5.3792 0
M  V30 11 C -2.2763 -0.5294 -0.1962 0
M  V30 12 C -3.4517 1.4748 -0.8432 0
M  V30 13 C 0.3139 -1.933 -0.3853 0
M  V30 14 C 1.3205 -3.284 -4.3421 0
M  V30 15 C -3.2558 0.4375 0.0554 0
M  V30 16 C 1.683 -1.2476 -0.238 0
M  V30 17 C 1.6047 0.2455 0.1031 0
M  V30 18 N 0.8753 0.5212 1.3505 0
M  V30 19 C 1.6689 0.1939 2.552 0
M  V30 20 C 0.4853 1.9468 1.4084 0
M  V30 21 C 0.9198 0.5455 3.8597 0
M  V30 22 C -0.2666 2.2952 2.7123 0
M  V30 23 N 0.5235 1.9653 3.9147 0
M  V30 24 C -0.239 2.2456 5.1282 0
M  V30 25 H 0.5105 -0.4498 -5.9931 0
M  V30 26 H -2.8546 2.334 -2.7104 0
M  V30 27 H 0.8227 -3.7494 -2.3309 0
M  V30 28 H 1.6712 -2.593 -6.3494 0
M  V30 29 H -2.193 -1.3421 0.5186 0
M  V30 30 H -4.2104 2.2294 -0.6558 0
M  V30 31 H 0.4644 -3.0166 -0.4444 0
M  V30 32 H -0.2314 -1.8147 0.5547 0
M  V30 33 H 1.8144 -4.2398 -4.4973 0
M  V30 34 H -3.8661 0.3678 0.952 0
M  V30 35 H 2.2683 -1.3599 -1.1581 0
M  V30 36 H 2.2516 -1.7736 0.5379 0
M  V30 37 H 2.6203 0.6599 0.1516 0
M  V30 38 H 1.1159 0.7547 -0.7359 0
M  V30 39 H 1.8881 -0.879 2.5756 0
M  V30 40 H 2.6302 0.7251 2.5364 0
M  V30 41 H -0.1761 2.1811 0.5656 0
M  V30 42 H 1.3707 2.591 1.3186 0
M  V30 43 H 1.5816 0.3193 4.7046 0
M  V30 44 H 0.039 -0.1048 3.9511 0
M  V30 45 H -1.2281 1.7636 2.7236 0
M  V30 46 H -0.4874 3.3695 2.7046 0
M  V30 47 H -1.1626 1.6583 5.1856 0
M  V30 48 H 0.3626 2.0284 6.0177 0
M  V30 49 H -0.5031 3.3078 5.1783 0
M  V30 END ATOM
M  V30 BEGIN BOND
M  V30 1 1 1 2
M  V30 2 1 1 3
M  V30 3 2 2 4
M  V30 4 1 2 5
M  V30 5 2 3 6
M  V30 6 1 3 7
M  V30 7 1 4 8
M  V30 8 1 4 9
M  V30 9 2 5 10
M  V30 10 1 6 11
M  V30 11 2 7 12
M  V30 12 1 8 13
M  V30 13 2 9 14
M  V30 14 2 11 15
M  V30 15 1 13 16
M  V30 16 1 16 17
M  V30 17 1 17 18
M  V30 18 1 18 19
M  V30 19 1 18 20
M  V30 20 1 19 21
M  V30 21 1 20 22
M  V30 22 1 21 23
M  V30 23 1 23 24
M  V30 24 1 6 8
M  V30 25 1 10 14
M  V30 26 1 12 15
M  V30 27 1 22 23
M  V30 28 1 5 25
M  V30 29 1 7 26
M  V30 30 1 9 27
M  V30 31 1 10 28
M  V30 32 1 11 29
M  V30 33 1 12 30
M  V30 34 1 13 31
M  V30 35 1 13 32
M  V30 36 1 14 33
M  V30 37 1 15 34
M  V30 38 1 16 35
M  V30 39 1 16 36
M  V30 40 1 17 37
M  V30 41 1 17 38
M  V30 42 1 19 39
M  V30 43 1 19 40
M  V30 44 1 20 41
M  V30 45 1 20 42
M  V30 46 1 21 43
M  V30 47 1 21 44
M  V30 48 1 22 45
M  V30 49 1 22 46
M  V30 50 1 24 47
M  V30 51 1 24 48
M  V30 52 1 24 49
M  V30 END BOND
M  V30 END CTAB
M  END
>  <Column 1>
3956

>  <level_0>
7738

>  <index>
7740

>  <Unnamed: 0>
7740

>  <NO.>
7753

>  <Name>
perazine

>  <IUPAC_name>
10-[3-(4-methylpiperazin-1-yl)propyl]phenothiazine

>  <SMILES>
CN1CCN(CCCN2c3ccccc3Sc3ccccc32)CC1

>  <CID>
4744

>  <logBB>


>  <BBB+/BBB->
BBB+

>  <Inchi>
InChI=1S/C20H25N3S/c1-21-13-15-22(16-14-21)11-6-12-23-17-7-2-4-9-19(17)24-20-10-5-3-8-18(20)23/h2-5-7-10H-6-11-16H2-1H3

>  <threshold>


>  <reference>
R50|

>  <group>
C

>  <Class>
1

>  <ABC>
19.04

>  <ABCGG>
13.94

>  <nAcid>
0

>  <nBase>
2

>  <nAromAtom>
12

>  <nAromBond>
12

>  <nAtom>
49

>  <nHeavyAtom>
24

>  <nSpiro>
0

>  <nBridgehead>
0

>  <nHetero>
4

>  <nN>
3

>  <nO>
0

>  <nF>
0

>  <BalabanJ>
1.33

>  <BertzCT>
649.29

>  <nBonds>
52

>  <nBondsO>
27

>  <nBondsS>
40

>  <nBondsD>
0

>  <nBondsT>
0

>  <nBondsA>
12

>  <nBondsM>
12

>  <nBondsKS>
46

>  <nBondsKD>
6

>  <RNCG>
0.23

>  <RPCG>
0.04

>  <FCSP3>
0.4

>  <SZ>
30.33

>  <Sm>
28.27

>  <Sv>
30.23

>  <Sse>
48.16

>  <Sp>
33.69

>  <Si>
54.98

>  <MZ>
0.62

>  <Mm>
0.58

>  <Mv>
0.62

>  <Mse>
0.98

>  <Mp>
0.69

>  <Mi>
1.12

>  <NsCH3>
1

>  <NdCH2>
0

>  <NssCH2>
7

>  <NtCH>
0

>  <NdsCH>
0

>  <NaaCH>
8

>  <NsssCH>
0

>  <NddC>
0

>  <NtsC>
0

>  <NdssC>
0

>  <NaasC>
4

>  <NaaaC>
0

>  <NssssC>
0

>  <NsNH3>
0

>  <NsNH2>
0

>  <NssNH2>
0

>  <NdNH>
0

>  <NssNH>
0

>  <NaaNH>
0

>  <NtN>
0

>  <NsssNH>
0

>  <NdsN>
0

>  <NaaN>
0

>  <NsssN>
3

>  <NddsN>
0

>  <NaasN>
0

>  <NssssN>
0

>  <NsOH>
0

>  <NdO>
0

>  <NssO>
0

>  <NaaO>
0

>  <NsF>
0

>  <NsSiH3>
0

>  <NssSiH2>
0

>  <NsssSiH>
0

>  <NssssSi>
0

>  <NsPH2>
0

>  <NssPH>
0

>  <NsssP>
0

>  <NdsssP>
0

>  <NsssssP>
0

>  <NsSH>
0

>  <NdS>
0

>  <NssS>
1

>  <NaaS>
0

>  <NdssS>
0

>  <NddssS>
0

>  <NsCl>
0

>  <NsBr>
0

>  <NsI>
0

>  <fragCpx>
177.04

>  <fMF>
0.47

>  <nHBAcc>
4

>  <nHBDon>
0

>  <Kier1>
17.42

>  <Kier2>
8.13

>  <Lipinski>
1

>  <GhoseFilter>
1

>  <FilterItLogS>
-4.49

>  <VMcGowan>
269.71

>  <LabuteASA>
148.8

>  <PEOE_VSA1>
14.7

>  <PEOE_VSA2>
0

>  <PEOE_VSA3>
0

>  <PEOE_VSA4>
0

>  <PEOE_VSA5>
0

>  <PEOE_VSA6>
36.03

>  <PEOE_VSA7>
44.28

>  <PEOE_VSA8>
42.51

>  <PEOE_VSA9>
11.37

>  <PEOE_VSA10>
0

>  <PEOE_VSA11>
0

>  <PEOE_VSA12>
0

>  <PEOE_VSA13>
0

>  <SMR_VSA1>
0

>  <SMR_VSA2>
0

>  <SMR_VSA3>
9.8

>  <SMR_VSA4>
0

>  <SMR_VSA5>
16.21

>  <SMR_VSA6>
51.22

>  <SMR_VSA7>
48.53

>  <SMR_VSA8>
0

>  <SMR_VSA9>
0

>  <SlogP_VSA1>
4.9

>  <SlogP_VSA2>
56.12

>  <SlogP_VSA3>
0

>  <SlogP_VSA4>
0

>  <SlogP_VSA5>
6.42

>  <SlogP_VSA6>
58.32

>  <SlogP_VSA7>
0

>  <SlogP_VSA8>
0

>  <SlogP_VSA9>
0

>  <SlogP_VSA10>
11.37

>  <SlogP_VSA11>
0

>  <EState_VSA1>
0

>  <EState_VSA2>
0

>  <EState_VSA3>
0

>  <EState_VSA4>
6.54

>  <EState_VSA5>
60.31

>  <EState_VSA6>
0

>  <EState_VSA7>
11.76

>  <EState_VSA8>
70.28

>  <EState_VSA9>
0

>  <EState_VSA10>
0

>  <VSA_EState1>
0

>  <VSA_EState2>
10.28

>  <VSA_EState3>
0

>  <VSA_EState4>
2.72

>  <VSA_EState5>
0

>  <VSA_EState6>
17.58

>  <VSA_EState7>
1.21

>  <VSA_EState8>
7.1

>  <VSA_EState9>
2.22

>  <apol>
56.27

>  <bpol>
32.67

>  <nRing>
4

>  <nHRing>
2

>  <naRing>
2

>  <naHRing>
0

>  <nARing 2>
2

>  <nAHRing 2>
2

>  <nFRing>
1

>  <nFHRing>
1

>  <nFaRing>
0

>  <nFaHRing>
0

>  <nFARing 2>
1

>  <nFAHRing 2>
1

>  <nRot>
4

>  <SLogP>
3.93

>  <SMR>
102.57

>  <TopoPSA(NO)>
9.72

>  <TopoPSA>
35.02

>  <JGI1>
0.13

>  <JGI2>
0.07

>  <JGI3>
0.03

>  <JGI4>
0.04

>  <JGI5>
0.01

>  <Diameter>
12

>  <Radius>
6

>  <TMWC10>
126.23

>  <TSRW10>
58.77

>  <MW>
339.18

>  <AMW>
6.92

>  <WPath>
1394

>  <WPol>
38

>  <Zagreb1>
128

>  <Zagreb2>
151

>  <mZagreb2>
5.28

>  <yes>


>  <nAR-cont>
1

>  <nHA-cont>
0.94700071

>  <MWHBN>
0.217192525

>  <MWHBN-cont>
0.996580778

>  <TPSA-cont>
0.755538654

>  <pka_cont>
0.97

>  <yes.1>


>  <BBB_SCORE>
5.437949184

>  <MMFF94 Energy>
134.76

$$$$
Compound 3073
Actelion Java MolfileCreator 2.0

  0  0  0  0  0  0              0 V3000
M  V30 BEGIN CTAB
M  V30 COUNTS 20 21 0 0 0
M  V30 BEGIN ATOM
M  V30 1 O 1.8908 -1.8908 0.0787 0
M  V30 2 C 0.8885 -0.9581 0.1314 0
M  V30 3 C 1.9562 -2.8275 1.146 0
M  V30 4 C 0.8766 -0.0637 -0.9479 0
M  V30 5 C -0.0713 -0.8469 1.1378 0
M  V30 6 C -0.1036 0.945 -1.0144 0
M  V30 7 C -1.0579 0.1485 1.0949 0
M  V30 8 C -1.0478 1.0281 0.0076 0
M  V30 9 C -0.3944 1.9851 -1.9398 0
M  V30 10 N -1.8789 2.0836 -0.2934 0
M  V30 11 C -1.4923 2.6695 -1.4699 0
M  V30 12 H 2.1389 -2.3252 2.1018 0
M  V30 13 H 2.8024 -3.4942 0.954 0
M  V30 14 H 1.0512 -3.4425 1.1878 0
M  V30 15 H 1.6239 -0.1504 -1.7311 0
M  V30 16 H -0.085 -1.526 1.9843 0
M  V30 17 H -1.8005 0.2275 1.8822 0
M  V30 18 H 0.1449 2.2057 -2.8514 0
M  V30 19 H -2.6601 2.3785 0.2756 0
M  V30 20 H -2.0292 3.5192 -1.8696 0
M  V30 END ATOM
M  V30 BEGIN BOND
M  V30 1 1 1 2
M  V30 2 1 1 3
M  V30 3 2 2 4
M  V30 4 1 2 5
M  V30 5 1 4 6
M  V30 6 2 5 7
M  V30 7 2 6 8
M  V30 8 1 6 9
M  V30 9 1 8 10
M  V30 10 2 9 11
M  V30 11 1 7 8
M  V30 12 1 10 11
M  V30 13 1 3 12
M  V30 14 1 3 13
M  V30 15 1 3 14
M  V30 16 1 4 15
M  V30 17 1 5 16
M  V30 18 1 7 17
M  V30 19 1 9 18
M  V30 20 1 10 19
M  V30 21 1 11 20
M  V30 END BOND
M  V30 END CTAB
M  END
>  <Column 1>
3957

>  <level_0>
7739

>  <index>
7741

>  <Unnamed: 0>
7741

>  <NO.>
7754

>  <Name>
bz3

>  <IUPAC_name>
5-methoxy-1h-indole

>  <SMILES>
COc1ccc2[nH]ccc2c1

>  <CID>
13872

>  <logBB>


>  <BBB+/BBB->
BBB+

>  <Inchi>
InChI=1S/C9H9NO/c1-11-8-2-3-9-7(6-8)4-5-10-9/h2-6-10H-1H3

>  <threshold>


>  <reference>
R50|

>  <group>
C

>  <Class>
-1

>  <ABC>
8.44

>  <ABCGG>
7.83

>  <nAcid>
0

>  <nBase>
0

>  <nAromAtom>
9

>  <nAromBond>
10

>  <nAtom>
20

>  <nHeavyAtom>
11

>  <nSpiro>
0

>  <nBridgehead>
0

>  <nHetero>
2

>  <nN>
1

>  <nO>
1

>  <nF>
0

>  <BalabanJ>
1.91

>  <BertzCT>
364.36

>  <nBonds>
21

>  <nBondsO>
12

>  <nBondsS>
11

>  <nBondsD>
0

>  <nBondsT>
0

>  <nBondsA>
10

>  <nBondsM>
10

>  <nBondsKS>
17

>  <nBondsKD>
4

>  <RNCG>
0.52

>  <RPCG>
0.17

>  <FCSP3>
0.11

>  <SZ>
13

>  <Sm>
12.25

>  <Sv>
12.91

>  <Sse>
19.99

>  <Sp>
13.73

>  <Si>
22.37

>  <MZ>
0.65

>  <Mm>
0.61

>  <Mv>
0.65

>  <Mse>
1

>  <Mp>
0.69

>  <Mi>
1.12

>  <NsCH3>
1

>  <NdCH2>
0

>  <NssCH2>
0

>  <NtCH>
0

>  <NdsCH>
0

>  <NaaCH>
5

>  <NsssCH>
0

>  <NddC>
0

>  <NtsC>
0

>  <NdssC>
0

>  <NaasC>
1

>  <NaaaC>
2

>  <NssssC>
0

>  <NsNH3>
0

>  <NsNH2>
0

>  <NssNH2>
0

>  <NdNH>
0

>  <NssNH>
0

>  <NaaNH>
1

>  <NtN>
0

>  <NsssNH>
0

>  <NdsN>
0

>  <NaaN>
0

>  <NsssN>
0

>  <NddsN>
0

>  <NaasN>
0

>  <NssssN>
0

>  <NsOH>
0

>  <NdO>
0

>  <NssO>
1

>  <NaaO>
0

>  <NsF>
0

>  <NsSiH3>
0

>  <NssSiH2>
0

>  <NsssSiH>
0

>  <NssssSi>
0

>  <NsPH2>
0

>  <NssPH>
0

>  <NsssP>
0

>  <NdsssP>
0

>  <NsssssP>
0

>  <NsSH>
0

>  <NdS>
0

>  <NssS>
0

>  <NaaS>
0

>  <NdssS>
0

>  <NddssS>
0

>  <NsCl>
0

>  <NsBr>
0

>  <NsI>
0

>  <fragCpx>
34.02

>  <fMF>
0.45

>  <nHBAcc>
1

>  <nHBDon>
1

>  <Kier1>
7.64

>  <Kier2>
3.16

>  <Lipinski>
1

>  <GhoseFilter>
0

>  <FilterItLogS>
-2.63

>  <VMcGowan>
114.6

>  <LabuteASA>
64.8

>  <PEOE_VSA1>
9.72

>  <PEOE_VSA2>
0

>  <PEOE_VSA3>
0

>  <PEOE_VSA4>
0

>  <PEOE_VSA5>
0

>  <PEOE_VSA6>
0

>  <PEOE_VSA7>
24.27

>  <PEOE_VSA8>
17.1

>  <PEOE_VSA9>
7.11

>  <PEOE_VSA10>
5.75

>  <PEOE_VSA11>
0

>  <PEOE_VSA12>
0

>  <PEOE_VSA13>
0

>  <SMR_VSA1>
4.74

>  <SMR_VSA2>
0

>  <SMR_VSA3>
4.98

>  <SMR_VSA4>
0

>  <SMR_VSA5>
0

>  <SMR_VSA6>
7.11

>  <SMR_VSA7>
30.46

>  <SMR_VSA8>
0

>  <SMR_VSA9>
5.75

>  <SlogP_VSA1>
4.74

>  <SlogP_VSA2>
12.09

>  <SlogP_VSA3>
0

>  <SlogP_VSA4>
0

>  <SlogP_VSA5>
0

>  <SlogP_VSA6>
30.46

>  <SlogP_VSA7>
0

>  <SlogP_VSA8>
10.9

>  <SlogP_VSA9>
0

>  <SlogP_VSA10>
0

>  <SlogP_VSA11>
5.75

>  <EState_VSA1>
0

>  <EState_VSA2>
0

>  <EState_VSA3>
0

>  <EState_VSA4>
11.27

>  <EState_VSA5>
5.39

>  <EState_VSA6>
7.11

>  <EState_VSA7>
30.46

>  <EState_VSA8>
4.98

>  <EState_VSA9>
4.74

>  <EState_VSA10>
0

>  <VSA_EState1>
5.08

>  <VSA_EState2>
3.12

>  <VSA_EState3>
1.18

>  <VSA_EState4>
1.14

>  <VSA_EState5>
0.9

>  <VSA_EState6>
7.98

>  <VSA_EState7>
1.92

>  <VSA_EState8>
0

>  <VSA_EState9>
1.67

>  <apol>
22.93

>  <bpol>
11.33

>  <nRing>
2

>  <nHRing>
1

>  <naRing>
2

>  <naHRing>
1

>  <nARing 2>
0

>  <nAHRing 2>
0

>  <nFRing>
1

>  <nFHRing>
1

>  <nFaRing>
1

>  <nFaHRing>
1

>  <nFARing 2>
0

>  <nFAHRing 2>
0

>  <nRot>
1

>  <SLogP>
2.18

>  <SMR>
44.85

>  <TopoPSA(NO)>
25.02

>  <TopoPSA>
25.02

>  <JGI1>
0.17

>  <JGI2>
0.07

>  <JGI3>
0.04

>  <JGI4>
0.05

>  <JGI5>
0.04

>  <Diameter>
6

>  <Radius>
3

>  <TMWC10>
89.97

>  <TSRW10>
54.96

>  <MW>
147.07

>  <AMW>
7.35

>  <WPath>
147

>  <WPol>
13

>  <Zagreb1>
56

>  <Zagreb2>
65

>  <mZagreb2>
2.53

>  <yes>


>  <nAR-cont>
0.336376

>  <nHA-cont>
0.720786536

>  <MWHBN>
0.164917958

>  <MWHBN-cont>
0.965376821

>  <TPSA-cont>
0.825344864

>  <pka_cont>
0.97

>  <yes.1>


>  <BBB_SCORE>
4.640917494

>  <MMFF94 Energy>
18.349

$$$$
Compound 3074
Actelion Java MolfileCreator 2.0

  0  0  0  0  0  0              0 V3000
M  V30 BEGIN CTAB
M  V30 COUNTS 29 30 0 0 0
M  V30 BEGIN ATOM
M  V30 1 O 5.525 2.1591 -1.1191 0
M  V30 2 N 5.1191 2.7195 -2.1434 0 CHG=1
M  V30 3 O 5.8053 3.4045 -2.9155 0 CHG=-1
M  V30 4 C 3.7401 2.578 -2.4915 0
M  V30 5 O 2.9676 1.8381 -1.6548 0
M  V30 6 C 3.0142 3.0645 -3.5523 0
M  V30 7 C 1.7034 1.843 -2.1851 0
M  V30 8 C 1.6928 2.5867 -3.354 0
M  V30 9 C 0.6486 1.133 -1.5117 0
M  V30 10 N 0.8508 0.5002 -0.402 0
M  V30 11 N -0.2337 -0.1367 0.1338 0
M  V30 12 C -0.1185 -0.7761 1.3601 0
M  V30 13 O 0.8768 -0.7854 2.075 0
M  V30 14 C -1.3521 -1.4641 1.8273 0
M  V30 15 C -2.197 -2.1468 0.94 0
M  V30 16 C -1.6493 -1.4433 3.1956 0
M  V30 17 C -3.3469 -2.7817 1.419 0
M  V30 18 C -2.8002 -2.074 3.6697 0
M  V30 19 C -3.6396 -2.7349 2.7796 0
M  V30 20 O -4.7498 -3.34 3.288 0
M  V30 21 H 3.3891 3.6802 -4.3588 0
M  V30 22 H 0.834 2.7648 -3.9875 0
M  V30 23 H -0.3462 1.1571 -1.9905 0
M  V30 24 H -1.1265 -0.0933 -0.3413 0
M  V30 25 H -1.9552 -2.2233 -0.1161 0
M  V30 26 H -0.9847 -0.9355 3.8923 0
M  V30 27 H -3.9911 -3.3135 0.7255 0
M  V30 28 H -3.0353 -2.0561 4.7305 0
M  V30 29 H -5.2123 -3.8071 2.5734 0
M  V30 END ATOM
M  V30 BEGIN BOND
M  V30 1 2 1 2
M  V30 2 1 2 3
M  V30 3 1 2 4
M  V30 4 1 4 5
M  V30 5 2 4 6
M  V30 6 1 5 7
M  V30 7 1 6 8
M  V30 8 1 7 9
M  V30 9 2 9 10
M  V30 10 1 10 11
M  V30 11 1 11 12
M  V30 12 2 12 13
M  V30 13 1 12 14
M  V30 14 2 14 15
M  V30 15 1 14 16
M  V30 16 1 15 17
M  V30 17 2 16 18
M  V30 18 2 17 19
M  V30 19 1 19 20
M  V30 20 2 7 8
M  V30 21 1 18 19
M  V30 22 1 6 21
M  V30 23 1 8 22
M  V30 24 1 9 23
M  V30 25 1 11 24
M  V30 26 1 15 25
M  V30 27 1 16 26
M  V30 28 1 17 27
M  V30 29 1 18 28
M  V30 30 1 20 29
M  V30 END BOND
M  V30 END CTAB
M  END
>  <Column 1>
3958

>  <level_0>
7740

>  <index>
7742

>  <Unnamed: 0>
7742

>  <NO.>
7755

>  <Name>
nifuroxazide

>  <IUPAC_name>
4-hydroxy-n-[(e)-(5-nitrofuran-2-yl)methylideneamino]benzamide

>  <SMILES>
O=C(N/N=C/c1ccc([N+](=O)[O-])o1)c1ccc(O)cc1

>  <CID>
5390108

>  <logBB>


>  <BBB+/BBB->
BBB-

>  <Inchi>
InChI=1S/C12H9N3O5/c16-9-3-1-8(2-4-9)12(17)14-13-7-10-5-6-11(20-10)15(18)19/h1-7-16H-(H-14-17)/b13-7+

>  <threshold>


>  <reference>
R50|

>  <group>
C

>  <Class>
1

>  <ABC>
15.21

>  <ABCGG>
12.72

>  <nAcid>
0

>  <nBase>
0

>  <nAromAtom>
11

>  <nAromBond>
11

>  <nAtom>
29

>  <nHeavyAtom>
20

>  <nSpiro>
0

>  <nBridgehead>
0

>  <nHetero>
8

>  <nN>
3

>  <nO>
5

>  <nF>
0

>  <BalabanJ>
1.59

>  <BertzCT>
659.99

>  <nBonds>
30

>  <nBondsO>
21

>  <nBondsS>
16

>  <nBondsD>
3

>  <nBondsT>
0

>  <nBondsA>
11

>  <nBondsM>
14

>  <nBondsKS>
22

>  <nBondsKD>
8

>  <RNCG>
0.23

>  <RPCG>
0.19

>  <FCSP3>
0

>  <SZ>
23.67

>  <Sm>
22.91

>  <Sv>
20.29

>  <Sse>
30.64

>  <Sp>
19.97

>  <Si>
32.79

>  <MZ>
0.82

>  <Mm>
0.79

>  <Mv>
0.7

>  <Mse>
1.06

>  <Mp>
0.69

>  <Mi>
1.13

>  <NsCH3>
0

>  <NdCH2>
0

>  <NssCH2>
0

>  <NtCH>
0

>  <NdsCH>
1

>  <NaaCH>
6

>  <NsssCH>
0

>  <NddC>
0

>  <NtsC>
0

>  <NdssC>
1

>  <NaasC>
4

>  <NaaaC>
0

>  <NssssC>
0

>  <NsNH3>
0

>  <NsNH2>
0

>  <NssNH2>
0

>  <NdNH>
0

>  <NssNH>
1

>  <NaaNH>
0

>  <NtN>
0

>  <NsssNH>
0

>  <NdsN>
1

>  <NaaN>
0

>  <NsssN>
0

>  <NddsN>
1

>  <NaasN>
0

>  <NssssN>
0

>  <NsOH>
1

>  <NdO>
2

>  <NssO>
0

>  <NaaO>
1

>  <NsF>
0

>  <NsSiH3>
0

>  <NssSiH2>
0

>  <NsssSiH>
0

>  <NssssSi>
0

>  <NsPH2>
0

>  <NssPH>
0

>  <NsssP>
0

>  <NdsssP>
0

>  <NsssssP>
0

>  <NsSH>
0

>  <NdS>
0

>  <NssS>
0

>  <NaaS>
0

>  <NdssS>
0

>  <NddssS>
0

>  <NsCl>
0

>  <NsBr>
0

>  <NsI>
0

>  <fragCpx>
61.08

>  <fMF>
0.52

>  <nHBAcc>
6

>  <nHBDon>
2

>  <Kier1>
16.37

>  <Kier2>
7.85

>  <Lipinski>
1

>  <GhoseFilter>
1

>  <FilterItLogS>
-2.75

>  <VMcGowan>
183.11

>  <LabuteASA>
112.04

>  <PEOE_VSA1>
9.52

>  <PEOE_VSA2>
14.91

>  <PEOE_VSA3>
5.43

>  <PEOE_VSA4>
5.1

>  <PEOE_VSA5>
0

>  <PEOE_VSA6>
0

>  <PEOE_VSA7>
30.33

>  <PEOE_VSA8>
5.56

>  <PEOE_VSA9>
12.28

>  <PEOE_VSA10>
10.67

>  <PEOE_VSA11>
5.76

>  <PEOE_VSA12>
0

>  <PEOE_VSA13>
5.91

>  <SMR_VSA1>
19.24

>  <SMR_VSA2>
0

>  <SMR_VSA3>
5.43

>  <SMR_VSA4>
5.1

>  <SMR_VSA5>
0

>  <SMR_VSA6>
0

>  <SMR_VSA7>
57.84

>  <SMR_VSA8>
0

>  <SMR_VSA9>
5.75

>  <SlogP_VSA1>
5.43

>  <SlogP_VSA2>
22.15

>  <SlogP_VSA3>
0

>  <SlogP_VSA4>
10.11

>  <SlogP_VSA5>
16.12

>  <SlogP_VSA6>
45.92

>  <SlogP_VSA7>
0

>  <SlogP_VSA8>
0

>  <SlogP_VSA9>
0

>  <SlogP_VSA10>
5.88

>  <SlogP_VSA11>
5.75

>  <EState_VSA1>
16.71

>  <EState_VSA2>
11.51

>  <EState_VSA3>
5.56

>  <EState_VSA4>
6.21

>  <EState_VSA5>
36.4

>  <EState_VSA6>
0

>  <EState_VSA7>
0

>  <EState_VSA8>
10.53

>  <EState_VSA9>
9.52

>  <EState_VSA10>
14.91

>  <VSA_EState1>
4.82

>  <VSA_EState2>
21.33

>  <VSA_EState3>
23.08

>  <VSA_EState4>
2.53

>  <VSA_EState5>
-0.7

>  <VSA_EState6>
8.14

>  <VSA_EState7>
1.14

>  <VSA_EState8>
0

>  <VSA_EState9>
0

>  <apol>
33.35

>  <bpol>
13.37

>  <nRing>
2

>  <nHRing>
1

>  <naRing>
2

>  <naHRing>
1

>  <nARing 2>
0

>  <nAHRing 2>
0

>  <nFRing>
0

>  <nFHRing>
0

>  <nFaRing>
0

>  <nFaHRing>
0

>  <nFARing 2>
0

>  <nFAHRing 2>
0

>  <nRot>
4

>  <SLogP>
1.66

>  <SMR>
68.53

>  <TopoPSA(NO)>
117.97

>  <TopoPSA>
117.97

>  <JGI1>
0.21

>  <JGI2>
0.09

>  <JGI3>
0.04

>  <JGI4>
0.04

>  <JGI5>
0.03

>  <Diameter>
13

>  <Radius>
7

>  <TMWC10>
112.02

>  <TSRW10>
66.46

>  <MW>
275.05

>  <AMW>
9.48

>  <WPath>
981

>  <WPol>
25

>  <Zagreb1>
98

>  <Zagreb2>
110

>  <mZagreb2>
4.47

>  <yes>


>  <nAR-cont>
0.336376

>  <nHA-cont>
0.999629945

>  <MWHBN>
0.482374301

>  <MWHBN-cont>
0

>  <TPSA-cont>
0.176496145

>  <pka_cont>
0.97

>  <yes.1>


>  <BBB_SCORE>
2.173998235

>  <MMFF94 Energy>
120.96

$$$$
Compound 3075
Actelion Java MolfileCreator 2.0

  0  0  0  0  0  0              0 V3000
M  V30 BEGIN CTAB
M  V30 COUNTS 21 23 0 0 0
M  V30 BEGIN ATOM
M  V30 1 S 4.4703 -1.4884 1.4057 0
M  V30 2 C 4.5444 -0.0872 0.4207 0
M  V30 3 C 2.7578 -1.4663 1.2687 0
M  V30 4 N 3.3932 0.3872 0.0037 0
M  V30 5 C 2.3618 -0.3992 0.4865 0
M  V30 6 C 0.8613 -0.0778 0.153 0
M  V30 7 N 0.4599 0.9337 -0.5904 0
M  V30 8 N -0.212 -0.8104 0.5947 0
M  V30 9 C -0.9086 0.8495 -0.6278 0
M  V30 10 C -1.3596 -0.2388 0.1094 0
M  V30 11 C -1.8416 1.6718 -1.2751 0
M  V30 12 C -2.7097 -0.568 0.2465 0
M  V30 13 C -3.2035 1.3659 -1.1554 0
M  V30 14 C -3.6266 0.2643 -0.4067 0
M  V30 15 H 5.4872 0.376 0.1602 0
M  V30 16 H 2.16 -2.2191 1.7585 0
M  V30 17 H -0.165 -1.6305 1.1778 0
M  V30 18 H -1.5043 2.5245 -1.8538 0
M  V30 19 H -3.0404 -1.4222 0.8268 0
M  V30 20 H -3.9375 1.9959 -1.6526 0
M  V30 21 H -4.6908 0.0494 -0.3303 0
M  V30 END ATOM
M  V30 BEGIN BOND
M  V30 1 1 1 2
M  V30 2 1 1 3
M  V30 3 2 2 4
M  V30 4 2 3 5
M  V30 5 1 5 6
M  V30 6 2 6 7
M  V30 7 1 6 8
M  V30 8 1 7 9
M  V30 9 1 8 10
M  V30 10 1 9 11
M  V30 11 1 10 12
M  V30 12 2 11 13
M  V30 13 2 12 14
M  V30 14 1 4 5
M  V30 15 2 9 10
M  V30 16 1 13 14
M  V30 17 1 2 15
M  V30 18 1 3 16
M  V30 19 1 8 17
M  V30 20 1 11 18
M  V30 21 1 12 19
M  V30 22 1 13 20
M  V30 23 1 14 21
M  V30 END BOND
M  V30 END CTAB
M  END
>  <Column 1>
3960

>  <level_0>
7742

>  <index>
7744

>  <Unnamed: 0>
7744

>  <NO.>
7757

>  <Name>
thiabendazole

>  <IUPAC_name>
4-(1h-benzimidazol-2-yl)-1-3-thiazole

>  <SMILES>
c1ccc2[nH]c(-c3cscn3)nc2c1

>  <CID>
5430

>  <logBB>


>  <BBB+/BBB->
BBB-

>  <Inchi>
InChI=1S/C10H7N3S/c1-2-4-8-7(3-1)12-10(13-8)9-5-14-6-11-9/h1-6H-(H-12-13)

>  <threshold>


>  <reference>
R6|R14|R23|

>  <group>
D

>  <Class>
-1

>  <ABC>
11.23

>  <ABCGG>
9.85

>  <nAcid>
0

>  <nBase>
0

>  <nAromAtom>
14

>  <nAromBond>
15

>  <nAtom>
21

>  <nHeavyAtom>
14

>  <nSpiro>
0

>  <nBridgehead>
0

>  <nHetero>
4

>  <nN>
3

>  <nO>
0

>  <nF>
0

>  <BalabanJ>
1.61

>  <BertzCT>
520.53

>  <nBonds>
23

>  <nBondsO>
16

>  <nBondsS>
8

>  <nBondsD>
0

>  <nBondsT>
0

>  <nBondsA>
15

>  <nBondsM>
15

>  <nBondsKS>
17

>  <nBondsKD>
6

>  <RNCG>
0.3

>  <RPCG>
0.15

>  <FCSP3>
0

>  <SZ>
17.33

>  <Sm>
16.76

>  <Sv>
15.36

>  <Sse>
21.17

>  <Sp>
16.51

>  <Si>
23.25

>  <MZ>
0.83

>  <Mm>
0.8

>  <Mv>
0.73

>  <Mse>
1.01

>  <Mp>
0.79

>  <Mi>
1.11

>  <NsCH3>
0

>  <NdCH2>
0

>  <NssCH2>
0

>  <NtCH>
0

>  <NdsCH>
0

>  <NaaCH>
6

>  <NsssCH>
0

>  <NddC>
0

>  <NtsC>
0

>  <NdssC>
0

>  <NaasC>
2

>  <NaaaC>
2

>  <NssssC>
0

>  <NsNH3>
0

>  <NsNH2>
0

>  <NssNH2>
0

>  <NdNH>
0

>  <NssNH>
0

>  <NaaNH>
1

>  <NtN>
0

>  <NsssNH>
0

>  <NdsN>
0

>  <NaaN>
2

>  <NsssN>
0

>  <NddsN>
0

>  <NaasN>
0

>  <NssssN>
0

>  <NsOH>
0

>  <NdO>
0

>  <NssO>
0

>  <NaaO>
0

>  <NsF>
0

>  <NsSiH3>
0

>  <NssSiH2>
0

>  <NsssSiH>
0

>  <NssssSi>
0

>  <NsPH2>
0

>  <NssPH>
0

>  <NsssP>
0

>  <NdsssP>
0

>  <NsssssP>
0

>  <NsSH>
0

>  <NdS>
0

>  <NssS>
0

>  <NaaS>
1

>  <NdssS>
0

>  <NddssS>
0

>  <NsCl>
0

>  <NsBr>
0

>  <NsI>
0

>  <fragCpx>
74.04

>  <fMF>
0.67

>  <nHBAcc>
3

>  <nHBDon>
1

>  <Kier1>
9.24

>  <Kier2>
3.87

>  <Lipinski>
1

>  <GhoseFilter>
1

>  <FilterItLogS>
-3.42

>  <VMcGowan>
139.67

>  <LabuteASA>
84.46

>  <PEOE_VSA1>
4.98

>  <PEOE_VSA2>
0

>  <PEOE_VSA3>
9.97

>  <PEOE_VSA4>
0

>  <PEOE_VSA5>
11.34

>  <PEOE_VSA6>
12.13

>  <PEOE_VSA7>
12.13

>  <PEOE_VSA8>
5.38

>  <PEOE_VSA9>
16.54

>  <PEOE_VSA10>
5.69

>  <PEOE_VSA11>
5.82

>  <PEOE_VSA12>
0

>  <PEOE_VSA13>
0

>  <SMR_VSA1>
0

>  <SMR_VSA2>
0

>  <SMR_VSA3>
14.95

>  <SMR_VSA4>
0

>  <SMR_VSA5>
0

>  <SMR_VSA6>
0

>  <SMR_VSA7>
35.16

>  <SMR_VSA8>
0

>  <SMR_VSA9>
11.52

>  <SlogP_VSA1>
0

>  <SlogP_VSA2>
14.95

>  <SlogP_VSA3>
0

>  <SlogP_VSA4>
0

>  <SlogP_VSA5>
0

>  <SlogP_VSA6>
35.16

>  <SlogP_VSA7>
0

>  <SlogP_VSA8>
22.55

>  <SlogP_VSA9>
0

>  <SlogP_VSA10>
0

>  <SlogP_VSA11>
0

>  <EState_VSA1>
0

>  <EState_VSA2>
0

>  <EState_VSA3>
0

>  <EState_VSA4>
22.55

>  <EState_VSA5>
0

>  <EState_VSA6>
11.34

>  <EState_VSA7>
35.16

>  <EState_VSA8>
14.95

>  <EState_VSA9>
0

>  <EState_VSA10>
0

>  <VSA_EState1>
0

>  <VSA_EState2>
11.88

>  <VSA_EState3>
1.98

>  <VSA_EState4>
4.75

>  <VSA_EState5>
0.84

>  <VSA_EState6>
7.97

>  <VSA_EState7>
0

>  <VSA_EState8>
0

>  <VSA_EState9>
0

>  <apol>
27.57

>  <bpol>
12.33

>  <nRing>
3

>  <nHRing>
2

>  <naRing>
3

>  <naHRing>
2

>  <nARing 2>
0

>  <nAHRing 2>
0

>  <nFRing>
1

>  <nFHRing>
1

>  <nFaRing>
1

>  <nFaHRing>
1

>  <nFARing 2>
0

>  <nFAHRing 2>
0

>  <nRot>
1

>  <SLogP>
2.69

>  <SMR>
57.2

>  <TopoPSA(NO)>
41.57

>  <TopoPSA>
69.81

>  <JGI1>
0.13

>  <JGI2>
0.06

>  <JGI3>
0.03

>  <JGI4>
0.04

>  <JGI5>
0.01

>  <Diameter>
7

>  <Radius>
4

>  <TMWC10>
100.49

>  <TSRW10>
61.55

>  <MW>
201.04

>  <AMW>
9.57

>  <WPath>
293

>  <WPol>
17

>  <Zagreb1>
76

>  <Zagreb2>
90

>  <mZagreb2>
3.06

>  <yes>


>  <nAR-cont>
0.336376

>  <nHA-cont>
0.887625254

>  <MWHBN>
0.282110177

>  <MWHBN-cont>
0.890684024

>  <TPSA-cont>
0.512682851

>  <pka_cont>
0.97

>  <yes.1>


>  <BBB_SCORE>
4.070392991

>  <MMFF94 Energy>
22.961

$$$$
Compound 3076
Actelion Java MolfileCreator 2.0

  0  0  0  0  0  0              0 V3000
M  V30 BEGIN CTAB
M  V30 COUNTS 41 43 0 0 0
M  V30 BEGIN ATOM
M  V30 1 O 4.2853 -1.6154 4.6092 0
M  V30 2 N 4.4699 -0.6959 3.7987 0 CHG=1
M  V30 3 O 5.3749 0.1463 3.8872 0 CHG=-1
M  V30 4 C 3.558 -0.602 2.6525 0
M  V30 5 C 3.697 0.4479 1.7384 0
M  V30 6 C 2.5536 -1.5605 2.4836 0
M  V30 7 C 2.8274 0.5346 0.6466 0
M  V30 8 C 1.6892 -1.4643 1.39 0
M  V30 9 C 1.817 -0.4208 0.4522 0
M  V30 10 C 0.8314 -0.3632 -0.7216 0 CFG=1
M  V30 11 C -0.5376 0.1646 -0.296 0
M  V30 12 C 1.3736 0.3266 -1.9906 0
M  V30 13 C -0.5941 1.5277 0.2969 0
M  V30 14 C -1.6747 -0.543 -0.4285 0
M  V30 15 C 0.5745 -0.0534 -3.2255 0
M  V30 16 O 0.3622 2.2946 0.2414 0
M  V30 17 O -1.7812 1.9279 0.8921 0
M  V30 18 O -1.7396 -1.7561 -1.0844 0
M  V30 19 C -2.9359 -0.0693 0.1351 0
M  V30 20 O -0.2561 -0.9648 -3.2152 0
M  V30 21 C 0.8722 0.7203 -4.4825 0
M  V30 22 C -2.9458 1.1508 0.7995 0
M  V30 23 C -4.1337 -0.7894 0.0581 0
M  V30 24 C -4.1023 1.6669 1.3837 0
M  V30 25 C -5.304 -0.2865 0.6373 0
M  V30 26 C -5.2877 0.9407 1.3006 0
M  V30 27 H 4.4635 1.21 1.8645 0
M  V30 28 H 2.4276 -2.38 3.1883 0
M  V30 29 H 2.9379 1.3785 -0.0321 0
M  V30 30 H 0.9062 -2.2139 1.273 0
M  V30 31 H 0.7243 -1.4227 -0.9974 0
M  V30 32 H 1.3632 1.4172 -1.8974 0
M  V30 33 H 2.4074 0.0134 -2.1809 0
M  V30 34 H -1.2129 -1.679 -1.9134 0
M  V30 35 H 0.2375 0.3594 -5.2965 0
M  V30 36 H 0.6646 1.7805 -4.3177 0
M  V30 37 H 1.9196 0.5789 -4.7597 0
M  V30 38 H -4.1654 -1.7517 -0.4485 0
M  V30 39 H -4.0793 2.6248 1.8951 0
M  V30 40 H -6.2275 -0.857 0.5716 0
M  V30 41 H -6.1979 1.3289 1.7507 0
M  V30 END ATOM
M  V30 BEGIN BOND
M  V30 1 2 1 2
M  V30 2 1 2 3
M  V30 3 1 2 4
M  V30 4 2 4 5
M  V30 5 1 4 6
M  V30 6 1 5 7
M  V30 7 2 6 8
M  V30 8 2 7 9
M  V30 9 1 9 10
M  V30 10 1 10 11
M  V30 11 1 10 12
M  V30 12 1 11 13
M  V30 13 2 11 14
M  V30 14 1 12 15
M  V30 15 2 13 16
M  V30 16 1 13 17
M  V30 17 1 14 18
M  V30 18 1 14 19
M  V30 19 2 15 20
M  V30 20 1 15 21
M  V30 21 1 17 22
M  V30 22 1 19 23
M  V30 23 1 22 24
M  V30 24 2 23 25
M  V30 25 2 24 26
M  V30 26 1 8 9
M  V30 27 2 19 22
M  V30 28 1 25 26
M  V30 29 1 5 27
M  V30 30 1 6 28
M  V30 31 1 7 29
M  V30 32 1 8 30
M  V30 33 1 10 31
M  V30 34 1 12 32
M  V30 35 1 12 33
M  V30 36 1 18 34
M  V30 37 1 21 35
M  V30 38 1 21 36
M  V30 39 1 21 37
M  V30 40 1 23 38
M  V30 41 1 24 39
M  V30 42 1 25 40
M  V30 43 1 26 41
M  V30 END BOND
M  V30 BEGIN COLLECTION
M  V30 MDLV30/STERAC1 ATOMS=(1 10)
M  V30 END COLLECTION
M  V30 END CTAB
M  END
>  <Column 1>
3961

>  <level_0>
7745

>  <index>
7747

>  <Unnamed: 0>
7747

>  <NO.>
7760

>  <Name>
acenocumarol

>  <IUPAC_name>
4-hydroxy-3-[1-(4-nitrophenyl)-3-oxobutyl]chromen-2-one

>  <SMILES>
CC(=O)CC(c1ccc([N+](=O)[O-])cc1)c1c(O)c2ccccc2oc1=O

>  <CID>
54676537

>  <logBB>


>  <BBB+/BBB->
BBB-

>  <Inchi>
InChI=1S/C19H15NO6/c1-11(21)10-15(12-6-8-13(9-7-12)20(24)25)17-18(22)14-4-2-3-5-16(14)26-19(17)23/h2-9-15-22H-10H2-1H3

>  <threshold>


>  <reference>
R14|R23|R50|

>  <group>
D

>  <Class>
-1

>  <ABC>
20.17

>  <ABCGG>
16.4

>  <nAcid>
0

>  <nBase>
0

>  <nAromAtom>
16

>  <nAromBond>
17

>  <nAtom>
41

>  <nHeavyAtom>
26

>  <nSpiro>
0

>  <nBridgehead>
0

>  <nHetero>
7

>  <nN>
1

>  <nO>
6

>  <nF>
0

>  <BalabanJ>
1.74

>  <BertzCT>
1051.81

>  <nBonds>
43

>  <nBondsO>
28

>  <nBondsS>
23

>  <nBondsD>
3

>  <nBondsT>
0

>  <nBondsA>
17

>  <nBondsM>
20

>  <nBondsKS>
33

>  <nBondsKD>
10

>  <RNCG>
0.22

>  <RPCG>
0.15

>  <FCSP3>
0.16

>  <SZ>
30.67

>  <Sm>
29.42

>  <Sv>
28.11

>  <Sse>
42.31

>  <Sp>
28.53

>  <Si>
45.66

>  <MZ>
0.75

>  <Mm>
0.72

>  <Mv>
0.69

>  <Mse>
1.03

>  <Mp>
0.7

>  <Mi>
1.11

>  <NsCH3>
1

>  <NdCH2>
0

>  <NssCH2>
1

>  <NtCH>
0

>  <NdsCH>
0

>  <NaaCH>
8

>  <NsssCH>
1

>  <NddC>
0

>  <NtsC>
0

>  <NdssC>
1

>  <NaasC>
4

>  <NaaaC>
2

>  <NssssC>
0

>  <NsNH3>
0

>  <NsNH2>
0

>  <NssNH2>
0

>  <NdNH>
0

>  <NssNH>
0

>  <NaaNH>
0

>  <NtN>
0

>  <NsssNH>
0

>  <NdsN>
0

>  <NaaN>
0

>  <NsssN>
0

>  <NddsN>
1

>  <NaasN>
0

>  <NssssN>
0

>  <NsOH>
1

>  <NdO>
3

>  <NssO>
0

>  <NaaO>
1

>  <NsF>
0

>  <NsSiH3>
0

>  <NssSiH2>
0

>  <NsssSiH>
0

>  <NssssSi>
0

>  <NsPH2>
0

>  <NssPH>
0

>  <NsssP>
0

>  <NdsssP>
0

>  <NsssssP>
0

>  <NsSH>
0

>  <NdS>
0

>  <NssS>
0

>  <NaaS>
0

>  <NdssS>
0

>  <NddssS>
0

>  <NsCl>
0

>  <NsBr>
0

>  <NsI>
0

>  <fragCpx>
134.07

>  <fMF>
0.41

>  <nHBAcc>
6

>  <nHBDon>
1

>  <Kier1>
20.73

>  <Kier2>
9

>  <Lipinski>
1

>  <GhoseFilter>
1

>  <FilterItLogS>
-5.1

>  <VMcGowan>
248.19

>  <LabuteASA>
147.21

>  <PEOE_VSA1>
9.52

>  <PEOE_VSA2>
14.91

>  <PEOE_VSA3>
4.79

>  <PEOE_VSA4>
0

>  <PEOE_VSA5>
0

>  <PEOE_VSA6>
24.27

>  <PEOE_VSA7>
24.62

>  <PEOE_VSA8>
24.47

>  <PEOE_VSA9>
15.87

>  <PEOE_VSA10>
17.12

>  <PEOE_VSA11>
0

>  <PEOE_VSA12>
0

>  <PEOE_VSA13>
5.69

>  <SMR_VSA1>
19.24

>  <SMR_VSA2>
0

>  <SMR_VSA3>
0

>  <SMR_VSA4>
0

>  <SMR_VSA5>
19.26

>  <SMR_VSA6>
0

>  <SMR_VSA7>
80.19

>  <SMR_VSA8>
0

>  <SMR_VSA9>
5.75

>  <SlogP_VSA1>
5.63

>  <SlogP_VSA2>
15.81

>  <SlogP_VSA3>
4.79

>  <SlogP_VSA4>
10.11

>  <SlogP_VSA5>
30.39

>  <SlogP_VSA6>
57.74

>  <SlogP_VSA7>
0

>  <SlogP_VSA8>
10.97

>  <SlogP_VSA9>
0

>  <SlogP_VSA10>
5.69

>  <SlogP_VSA11>
5.75

>  <EState_VSA1>
16.47

>  <EState_VSA2>
34.79

>  <EState_VSA3>
10.95

>  <EState_VSA4>
0

>  <EState_VSA5>
31.19

>  <EState_VSA6>
24.27

>  <EState_VSA7>
0

>  <EState_VSA8>
0

>  <EState_VSA9>
4.42

>  <EState_VSA10>
24.81

>  <VSA_EState1>
5.28

>  <VSA_EState2>
34.51

>  <VSA_EState3>
21.83

>  <VSA_EState4>
-0.14

>  <VSA_EState5>
-1.21

>  <VSA_EState6>
12.07

>  <VSA_EState7>
-0.05

>  <VSA_EState8>
1.37

>  <VSA_EState9>
0

>  <apol>
47.64

>  <bpol>
19.69

>  <nRing>
3

>  <nHRing>
1

>  <naRing>
3

>  <naHRing>
1

>  <nARing 2>
0

>  <nAHRing 2>
0

>  <nFRing>
1

>  <nFHRing>
1

>  <nFaRing>
1

>  <nFaHRing>
1

>  <nFARing 2>
0

>  <nFAHRing 2>
0

>  <nRot>
5

>  <SLogP>
3.52

>  <SMR>
94.39

>  <TopoPSA(NO)>
110.65

>  <TopoPSA>
110.65

>  <JGI1>
0.2

>  <JGI2>
0.08

>  <JGI3>
0.05

>  <JGI4>
0.05

>  <JGI5>
0.03

>  <Diameter>
12

>  <Radius>
6

>  <TMWC10>
130.22

>  <TSRW10>
61.15

>  <MW>
353.09

>  <AMW>
8.61

>  <WPath>
1592

>  <WPol>
44

>  <Zagreb1>
136

>  <Zagreb2>
161

>  <mZagreb2>
5.69

>  <yes>


>  <nAR-cont>
0.336376

>  <nHA-cont>
0.892715677

>  <MWHBN>
0.372524921

>  <MWHBN-cont>
0.584041734

>  <TPSA-cont>
0.22759429

>  <pka_cont>
0.97

>  <yes.1>


>  <BBB_SCORE>
3.04534286

>  <MMFF94 Energy>
78.152

$$$$
Compound 3077
Actelion Java MolfileCreator 2.0

  0  0  0  0  0  0              0 V3000
M  V30 BEGIN CTAB
M  V30 COUNTS 38 39 0 0 0
M  V30 BEGIN ATOM
M  V30 1 O 1.4178 -2.3639 -1.8119 0
M  V30 2 C 0.6447 -1.4015 -1.8186 0
M  V30 3 N -0.3882 -1.2893 -0.8624 0
M  V30 4 N 0.7569 -0.3785 -2.7607 0
M  V30 5 C -1.3071 -0.2357 -0.782 0
M  V30 6 C -0.5093 -2.3659 0.1169 0
M  V30 7 C -0.1251 0.6732 -2.7215 0
M  V30 8 C 1.7911 -0.4205 -3.7786 0
M  V30 9 O -2.188 -0.1492 0.0682 0
M  V30 10 C -1.1102 0.7493 -1.7853 0
M  V30 11 C 0.4955 -2.2476 1.271 0
M  V30 12 N -0.1417 1.7415 -3.5659 0
M  V30 13 N -1.7709 1.9118 -2.0618 0
M  V30 14 C 0.2508 -1.029 2.1633 0
M  V30 15 C -1.1514 2.4773 -3.1448 0
M  V30 16 C -2.9061 2.448 -1.3547 0
M  V30 17 C 1.2251 -0.9981 3.3358 0
M  V30 18 C 0.9309 0.163 4.2619 0
M  V30 19 O 0.3567 -0.0067 5.3374 0
M  V30 20 C 1.3399 1.5375 3.8016 0
M  V30 21 H -1.5283 -2.4028 0.5186 0
M  V30 22 H -0.3413 -3.3206 -0.3959 0
M  V30 23 H 2.416 -1.3127 -3.6893 0
M  V30 24 H 1.32 -0.4216 -4.7666 0
M  V30 25 H 2.4282 0.4637 -3.6771 0
M  V30 26 H 1.5185 -2.2102 0.8788 0
M  V30 27 H 0.4227 -3.1568 1.8805 0
M  V30 28 H -0.7788 -1.0447 2.5409 0
M  V30 29 H 0.3593 -0.1098 1.577 0
M  V30 30 H -1.4712 3.4146 -3.5828 0
M  V30 31 H -3.7238 1.7253 -1.4099 0
M  V30 32 H -2.6161 2.6274 -0.3164 0
M  V30 33 H -3.2138 3.3884 -1.8189 0
M  V30 34 H 2.2613 -0.9168 2.9898 0
M  V30 35 H 1.1542 -1.9231 3.9197 0
M  V30 36 H 1.2269 2.2479 4.6254 0
M  V30 37 H 2.389 1.5272 3.4961 0
M  V30 38 H 0.7074 1.8545 2.9696 0
M  V30 END ATOM
M  V30 BEGIN BOND
M  V30 1 2 1 2
M  V30 2 1 2 3
M  V30 3 1 2 4
M  V30 4 1 3 5
M  V30 5 1 3 6
M  V30 6 1 4 7
M  V30 7 1 4 8
M  V30 8 2 5 9
M  V30 9 1 5 10
M  V30 10 1 6 11
M  V30 11 1 7 12
M  V30 12 1 10 13
M  V30 13 1 11 14
M  V30 14 2 12 15
M  V30 15 1 13 16
M  V30 16 1 14 17
M  V30 17 1 17 18
M  V30 18 2 18 19
M  V30 19 1 18 20
M  V30 20 2 7 10
M  V30 21 1 13 15
M  V30 22 1 6 21
M  V30 23 1 6 22
M  V30 24 1 8 23
M  V30 25 1 8 24
M  V30 26 1 8 25
M  V30 27 1 11 26
M  V30 28 1 11 27
M  V30 29 1 14 28
M  V30 30 1 14 29
M  V30 31 1 15 30
M  V30 32 1 16 31
M  V30 33 1 16 32
M  V30 34 1 16 33
M  V30 35 1 17 34
M  V30 36 1 17 35
M  V30 37 1 20 36
M  V30 38 1 20 37
M  V30 39 1 20 38
M  V30 END BOND
M  V30 END CTAB
M  END
>  <Column 1>
3962

>  <level_0>
7746

>  <index>
7748

>  <Unnamed: 0>
7748

>  <NO.>
7761

>  <Name>
pentoxifylline

>  <IUPAC_name>
3-7-dimethyl-1-(5-oxohexyl)purine-2-6-dione

>  <SMILES>
CC(=O)CCCCn1c(=O)c2c(ncn2C)n(C)c1=O

>  <CID>
4740

>  <logBB>


>  <BBB+/BBB->
BBB-

>  <Inchi>
InChI=1S/C13H18N4O3/c1-9(18)6-4-5-7-17-12(19)10-11(14-8-15(10)2)16(3)13(17)20/h8H-4-7H2-1-3H3

>  <threshold>


>  <reference>
R14|R15|R27|

>  <group>
D

>  <Class>
-1

>  <ABC>
15.22

>  <ABCGG>
13.66

>  <nAcid>
0

>  <nBase>
0

>  <nAromAtom>
9

>  <nAromBond>
10

>  <nAtom>
38

>  <nHeavyAtom>
20

>  <nSpiro>
0

>  <nBridgehead>
0

>  <nHetero>
7

>  <nN>
4

>  <nO>
3

>  <nF>
0

>  <BalabanJ>
1.93

>  <BertzCT>
766.24

>  <nBonds>
39

>  <nBondsO>
21

>  <nBondsS>
26

>  <nBondsD>
3

>  <nBondsT>
0

>  <nBondsA>
10

>  <nBondsM>
13

>  <nBondsKS>
34

>  <nBondsKD>
5

>  <RNCG>
0.17

>  <RPCG>
0.17

>  <FCSP3>
0.54

>  <SZ>
24.67

>  <Sm>
23.17

>  <Sv>
23.05

>  <Sse>
38.64

>  <Sp>
24.26

>  <Si>
43.53

>  <MZ>
0.65

>  <Mm>
0.61

>  <Mv>
0.61

>  <Mse>
1.02

>  <Mp>
0.64

>  <Mi>
1.15

>  <NsCH3>
3

>  <NdCH2>
0

>  <NssCH2>
4

>  <NtCH>
0

>  <NdsCH>
0

>  <NaaCH>
1

>  <NsssCH>
0

>  <NddC>
0

>  <NtsC>
0

>  <NdssC>
1

>  <NaasC>
0

>  <NaaaC>
2

>  <NssssC>
0

>  <NsNH3>
0

>  <NsNH2>
0

>  <NssNH2>
0

>  <NdNH>
0

>  <NssNH>
0

>  <NaaNH>
0

>  <NtN>
0

>  <NsssNH>
0

>  <NdsN>
0

>  <NaaN>
1

>  <NsssN>
0

>  <NddsN>
0

>  <NaasN>
3

>  <NssssN>
0

>  <NsOH>
0

>  <NdO>
3

>  <NssO>
0

>  <NaaO>
0

>  <NsF>
0

>  <NsSiH3>
0

>  <NssSiH2>
0

>  <NsssSiH>
0

>  <NssssSi>
0

>  <NsPH2>
0

>  <NssPH>
0

>  <NsssP>
0

>  <NdsssP>
0

>  <NsssssP>
0

>  <NsSH>
0

>  <NdS>
0

>  <NssS>
0

>  <NaaS>
0

>  <NdssS>
0

>  <NddssS>
0

>  <NsCl>
0

>  <NsBr>
0

>  <NsI>
0

>  <fragCpx>
61.07

>  <fMF>
0.24

>  <nHBAcc>
7

>  <nHBDon>
0

>  <Kier1>
16.37

>  <Kier2>
6.84

>  <Lipinski>
1

>  <GhoseFilter>
1

>  <FilterItLogS>
-2.08

>  <VMcGowan>
208.34

>  <LabuteASA>
115.02

>  <PEOE_VSA1>
9.36

>  <PEOE_VSA2>
13.93

>  <PEOE_VSA3>
9.78

>  <PEOE_VSA4>
0

>  <PEOE_VSA5>
0

>  <PEOE_VSA6>
0

>  <PEOE_VSA7>
19.77

>  <PEOE_VSA8>
27.06

>  <PEOE_VSA9>
6.33

>  <PEOE_VSA10>
5.78

>  <PEOE_VSA11>
11.16

>  <PEOE_VSA12>
0

>  <PEOE_VSA13>
5.56

>  <SMR_VSA1>
4.79

>  <SMR_VSA2>
0

>  <SMR_VSA3>
18.69

>  <SMR_VSA4>
14.1

>  <SMR_VSA5>
32.73

>  <SMR_VSA6>
0

>  <SMR_VSA7>
27.17

>  <SMR_VSA8>
0

>  <SMR_VSA9>
0

>  <SlogP_VSA1>
11.25

>  <SlogP_VSA2>
24.47

>  <SlogP_VSA3>
25.43

>  <SlogP_VSA4>
0

>  <SlogP_VSA5>
26.19

>  <SlogP_VSA6>
15.92

>  <SlogP_VSA7>
0

>  <SlogP_VSA8>
11.16

>  <SlogP_VSA9>
0

>  <SlogP_VSA10>
0

>  <SlogP_VSA11>
0

>  <EState_VSA1>
0

>  <EState_VSA2>
17.03

>  <EState_VSA3>
36.97

>  <EState_VSA4>
0

>  <EState_VSA5>
22.39

>  <EState_VSA6>
18.66

>  <EState_VSA7>
0

>  <EState_VSA8>
4.98

>  <EState_VSA9>
0

>  <EState_VSA10>
14.38

>  <VSA_EState1>
4.2

>  <VSA_EState2>
39.43

>  <VSA_EState3>
0

>  <VSA_EState4>
0.11

>  <VSA_EState5>
0.12

>  <VSA_EState6>
0

>  <VSA_EState7>
3.29

>  <VSA_EState8>
1.85

>  <VSA_EState9>
3.32

>  <apol>
40.52

>  <bpol>
26.93

>  <nRing>
2

>  <nHRing>
2

>  <naRing>
2

>  <naHRing>
2

>  <nARing 2>
0

>  <nAHRing 2>
0

>  <nFRing>
1

>  <nFHRing>
1

>  <nFaRing>
1

>  <nFaHRing>
1

>  <nFARing 2>
0

>  <nFAHRing 2>
0

>  <nRot>
5

>  <SLogP>
0.19

>  <SMR>
74.75

>  <TopoPSA(NO)>
78.89

>  <TopoPSA>
78.89

>  <JGI1>
0.19

>  <JGI2>
0.1

>  <JGI3>
0.07

>  <JGI4>
0.06

>  <JGI5>
0.03

>  <Diameter>
10

>  <Radius>
5

>  <TMWC10>
114.78

>  <TSRW10>
67.67

>  <MW>
278.14

>  <AMW>
7.32

>  <WPath>
834

>  <WPol>
32

>  <Zagreb1>
102

>  <Zagreb2>
121

>  <mZagreb2>
4.44

>  <yes>


>  <nAR-cont>
0.336376

>  <nHA-cont>
0.999629945

>  <MWHBN>
0.419726428

>  <MWHBN-cont>
0.399019518

>  <TPSA-cont>
0.449298812

>  <pka_cont>
0.97

>  <yes.1>


>  <BBB_SCORE>
3.318132846

>  <MMFF94 Energy>
-120.24

$$$$
Compound 3078
Actelion Java MolfileCreator 2.0

  0  0  0  0  0  0              0 V3000
M  V30 BEGIN CTAB
M  V30 COUNTS 41 42 0 0 0
M  V30 BEGIN ATOM
M  V30 1 N -3.6658 2.7085 -0.2387 0
M  V30 2 C -2.7327 2.5697 0.4385 0
M  V30 3 C -1.5367 2.4012 1.3089 0
M  V30 4 C -0.635 1.2722 0.7672 0
M  V30 5 C -0.7381 3.7227 1.3249 0
M  V30 6 C -2.0532 2.1568 2.7446 0
M  V30 7 C -0.1673 1.3316 -0.5647 0
M  V30 8 C -0.2404 0.1713 1.5425 0
M  V30 9 C 0.67 0.3444 -1.1292 0
M  V30 10 C 0.5854 -0.8339 1.0154 0
M  V30 11 C 1.0359 -0.733 -0.3115 0
M  V30 12 C 1.1323 0.4766 -2.5948 0
M  V30 13 C 0.9974 -2.0131 1.8675 0
M  V30 14 C 1.7903 1.7949 -2.81 0
M  V30 15 C -0.0979 0.3734 -3.5218 0
M  V30 16 C 2.1383 -0.6091 -3.0375 0
M  V30 17 N 0.4631 -3.2595 1.3511 0
M  V30 18 N 2.2958 2.8269 -2.9799 0
M  V30 19 N 1.2479 -4.1397 0.6964 0
M  V30 20 C -0.808 -3.7304 1.4661 0
M  V30 21 C 0.3793 -5.1225 0.4418 0
M  V30 22 N -0.8905 -4.9117 0.8988 0
M  V30 23 H 0.1639 3.6325 1.9419 0
M  V30 24 H -0.4212 4.0293 0.321 0
M  V30 25 H -1.3392 4.5462 1.73 0
M  V30 26 H -2.7084 2.9728 3.0755 0
M  V30 27 H -1.2304 2.0916 3.4661 0
M  V30 28 H -2.6402 1.2324 2.8115 0
M  V30 29 H -0.466 2.1788 -1.1862 0
M  V30 30 H -0.5685 0.0762 2.5751 0
M  V30 31 H 1.6764 -1.5286 -0.6908 0
M  V30 32 H 0.6378 -1.9127 2.898 0
M  V30 33 H 2.0902 -2.0902 1.9051 0
M  V30 34 H -0.6223 -0.579 -3.3791 0
M  V30 35 H -0.8216 1.1776 -3.3426 0
M  V30 36 H 0.1923 0.4404 -4.5776 0
M  V30 37 H 2.4584 -0.4544 -4.0757 0
M  V30 38 H 1.7023 -1.6134 -2.9812 0
M  V30 39 H 3.0454 -0.5955 -2.4205 0
M  V30 40 H -1.6082 -3.1913 1.9535 0
M  V30 41 H 0.6781 -6.0175 -0.089 0
M  V30 END ATOM
M  V30 BEGIN BOND
M  V30 1 3 1 2
M  V30 2 1 2 3
M  V30 3 1 3 4
M  V30 4 1 3 5
M  V30 5 1 3 6
M  V30 6 2 4 7
M  V30 7 1 4 8
M  V30 8 1 7 9
M  V30 9 2 8 10
M  V30 10 2 9 11
M  V30 11 1 9 12
M  V30 12 1 10 13
M  V30 13 1 12 14
M  V30 14 1 12 15
M  V30 15 1 12 16
M  V30 16 1 13 17
M  V30 17 3 14 18
M  V30 18 1 17 19
M  V30 19 1 17 20
M  V30 20 2 19 21
M  V30 21 2 20 22
M  V30 22 1 10 11
M  V30 23 1 21 22
M  V30 24 1 5 23
M  V30 25 1 5 24
M  V30 26 1 5 25
M  V30 27 1 6 26
M  V30 28 1 6 27
M  V30 29 1 6 28
M  V30 30 1 7 29
M  V30 31 1 8 30
M  V30 32 1 11 31
M  V30 33 1 13 32
M  V30 34 1 13 33
M  V30 35 1 15 34
M  V30 36 1 15 35
M  V30 37 1 15 36
M  V30 38 1 16 37
M  V30 39 1 16 38
M  V30 40 1 16 39
M  V30 41 1 20 40
M  V30 42 1 21 41
M  V30 END BOND
M  V30 END CTAB
M  END
>  <Column 1>
3963

>  <level_0>
7747

>  <index>
7749

>  <Unnamed: 0>
7749

>  <NO.>
7762

>  <Name>
anastrozole

>  <IUPAC_name>
2-[3-(2-cyanopropan-2-yl)-5-(1-2-4-triazol-1-ylmethyl)phenyl]-2-methylpropanenitrile

>  <SMILES>
CC(C)(C#N)c1cc(Cn2cncn2)cc(C(C)(C)C#N)c1

>  <CID>
2187

>  <logBB>


>  <BBB+/BBB->
BBB-

>  <Inchi>
InChI=1S/C17H19N5/c1-16(2-9-18)14-5-13(8-22-12-20-11-21-22)6-15(7-14)17(3-4)10-19/h5-7-11-12H-8H2-1-4H3

>  <threshold>


>  <reference>
R14|R15|R23|R27|

>  <group>
D

>  <Class>
-1

>  <ABC>
16.78

>  <ABCGG>
15.23

>  <nAcid>
0

>  <nBase>
0

>  <nAromAtom>
11

>  <nAromBond>
11

>  <nAtom>
41

>  <nHeavyAtom>
22

>  <nSpiro>
0

>  <nBridgehead>
0

>  <nHetero>
5

>  <nN>
5

>  <nO>
0

>  <nF>
0

>  <BalabanJ>
2.08

>  <BertzCT>
698.09

>  <nBonds>
42

>  <nBondsO>
23

>  <nBondsS>
29

>  <nBondsD>
0

>  <nBondsT>
2

>  <nBondsA>
11

>  <nBondsM>
13

>  <nBondsKS>
35

>  <nBondsKD>
5

>  <RNCG>
0.17

>  <RPCG>
0.1

>  <FCSP3>
0.41

>  <SZ>
26

>  <Sm>
24.43

>  <Sv>
25.94

>  <Sse>
40.75

>  <Sp>
27.88

>  <Si>
46.4

>  <MZ>
0.63

>  <Mm>
0.6

>  <Mv>
0.63

>  <Mse>
0.99

>  <Mp>
0.68

>  <Mi>
1.13

>  <NsCH3>
4

>  <NdCH2>
0

>  <NssCH2>
1

>  <NtCH>
0

>  <NdsCH>
0

>  <NaaCH>
5

>  <NsssCH>
0

>  <NddC>
0

>  <NtsC>
2

>  <NdssC>
0

>  <NaasC>
3

>  <NaaaC>
0

>  <NssssC>
2

>  <NsNH3>
0

>  <NsNH2>
0

>  <NssNH2>
0

>  <NdNH>
0

>  <NssNH>
0

>  <NaaNH>
0

>  <NtN>
2

>  <NsssNH>
0

>  <NdsN>
0

>  <NaaN>
2

>  <NsssN>
0

>  <NddsN>
0

>  <NaasN>
1

>  <NssssN>
0

>  <NsOH>
0

>  <NdO>
0

>  <NssO>
0

>  <NaaO>
0

>  <NsF>
0

>  <NsSiH3>
0

>  <NssSiH2>
0

>  <NsssSiH>
0

>  <NssssSi>
0

>  <NsPH2>
0

>  <NssPH>
0

>  <NsssP>
0

>  <NdsssP>
0

>  <NsssssP>
0

>  <NsSH>
0

>  <NdS>
0

>  <NssS>
0

>  <NaaS>
0

>  <NdssS>
0

>  <NddssS>
0

>  <NsCl>
0

>  <NsBr>
0

>  <NsI>
0

>  <fragCpx>
67.05

>  <fMF>
0.29

>  <nHBAcc>
5

>  <nHBDon>
0

>  <Kier1>
18.34

>  <Kier2>
7.27

>  <Lipinski>
1

>  <GhoseFilter>
1

>  <FilterItLogS>
-4.01

>  <VMcGowan>
239.87

>  <LabuteASA>
130.39

>  <PEOE_VSA1>
0

>  <PEOE_VSA2>
0

>  <PEOE_VSA3>
9.67

>  <PEOE_VSA4>
15.62

>  <PEOE_VSA5>
0

>  <PEOE_VSA6>
18.2

>  <PEOE_VSA7>
44.39

>  <PEOE_VSA8>
0

>  <PEOE_VSA9>
29.51

>  <PEOE_VSA10>
12.65

>  <PEOE_VSA11>
0

>  <PEOE_VSA12>
0

>  <PEOE_VSA13>
0

>  <SMR_VSA1>
0

>  <SMR_VSA2>
10.52

>  <SMR_VSA3>
14.76

>  <SMR_VSA4>
0

>  <SMR_VSA5>
45.07

>  <SMR_VSA6>
0

>  <SMR_VSA7>
47.54

>  <SMR_VSA8>
0

>  <SMR_VSA9>
12.14

>  <SlogP_VSA1>
0

>  <SlogP_VSA2>
14.76

>  <SlogP_VSA3>
17.37

>  <SlogP_VSA4>
22.66

>  <SlogP_VSA5>
44.39

>  <SlogP_VSA6>
30.85

>  <SlogP_VSA7>
0

>  <SlogP_VSA8>
0

>  <SlogP_VSA9>
0

>  <SlogP_VSA10>
0

>  <SlogP_VSA11>
0

>  <EState_VSA1>
10.83

>  <EState_VSA2>
0

>  <EState_VSA3>
6.54

>  <EState_VSA4>
16.69

>  <EState_VSA5>
6.33

>  <EState_VSA6>
11.01

>  <EState_VSA7>
45.89

>  <EState_VSA8>
22.22

>  <EState_VSA9>
0

>  <EState_VSA10>
10.52

>  <VSA_EState1>
1.72

>  <VSA_EState2>
3.94

>  <VSA_EState3>
22.92

>  <VSA_EState4>
1.6

>  <VSA_EState5>
0

>  <VSA_EState6>
10.6

>  <VSA_EState7>
3.14

>  <VSA_EState8>
8.08

>  <VSA_EState9>
0

>  <apol>
46.56

>  <bpol>
23.05

>  <nRing>
2

>  <nHRing>
1

>  <naRing>
2

>  <naHRing>
1

>  <nARing 2>
0

>  <nAHRing 2>
0

>  <nFRing>
0

>  <nFHRing>
0

>  <nFaRing>
0

>  <nFaHRing>
0

>  <nFARing 2>
0

>  <nFAHRing 2>
0

>  <nRot>
4

>  <SLogP>
2.93

>  <SMR>
82.84

>  <TopoPSA(NO)>
78.29

>  <TopoPSA>
78.29

>  <JGI1>
0.33

>  <JGI2>
0.1

>  <JGI3>
0.05

>  <JGI4>
0.04

>  <JGI5>
0.04

>  <Diameter>
9

>  <Radius>
5

>  <TMWC10>
119.1

>  <TSRW10>
69.32

>  <MW>
293.16

>  <AMW>
7.15

>  <WPath>
1015

>  <WPol>
33

>  <Zagreb1>
114

>  <Zagreb2>
132

>  <mZagreb2>
4.83

>  <yes>


>  <nAR-cont>
0.336376

>  <nHA-cont>
0.983774276

>  <MWHBN>
0.292023396

>  <MWHBN-cont>
0.863897371

>  <TPSA-cont>
0.453487185

>  <pka_cont>
0.97

>  <yes.1>


>  <BBB_SCORE>
4.007970702

>  <MMFF94 Energy>
103.8

$$$$
Compound 3079
Actelion Java MolfileCreator 2.0

  0  0  0  0  0  0              0 V3000
M  V30 BEGIN CTAB
M  V30 COUNTS 31 32 0 0 0
M  V30 BEGIN ATOM
M  V30 1 O -0.3179 -0.795 -1.9884 0
M  V30 2 C -0.1576 0.067 -1.1237 0
M  V30 3 C 0.7757 1.1589 -1.4518 0
M  V30 4 C -0.8779 0.0188 0.2509 0
M  V30 5 C 0.3625 2.48 -1.5179 0
M  V30 6 C 2.1007 0.8577 -1.7656 0
M  V30 7 C -0.7098 -1.3898 0.8481 0
M  V30 8 C -2.3487 0.3916 -0.0358 0
M  V30 9 C -0.3347 1.0209 1.2926 0
M  V30 10 N 1.1922 3.5072 -1.8177 0
M  V30 11 C 2.9717 1.8945 -2.089 0
M  V30 12 C 0.5702 -1.9036 1.0862 0
M  V30 13 C -1.7794 -2.2254 1.1929 0
M  V30 14 C 2.4774 3.1904 -2.0967 0
M  V30 15 N 0.834 -3.1159 1.6259 0
M  V30 16 C -1.5398 -3.4851 1.7408 0
M  V30 17 C -0.2297 -3.8815 1.9367 0
M  V30 18 H -0.6672 2.7721 -1.3385 0
M  V30 19 H 2.449 -0.1722 -1.7679 0
M  V30 20 H -2.8138 -0.308 -0.7406 0
M  V30 21 H -2.9508 0.4019 0.8801 0
M  V30 22 H -2.4265 1.3883 -0.4848 0
M  V30 23 H -0.5639 2.0575 1.0246 0
M  V30 24 H -0.7826 0.8461 2.2791 0
M  V30 25 H 0.7524 0.9475 1.4102 0
M  V30 26 H 4.009 1.6967 -2.3368 0
M  V30 27 H 1.4639 -1.3338 0.8451 0
M  V30 28 H -2.812 -1.9256 1.041 0
M  V30 29 H 3.1191 4.0326 -2.3427 0
M  V30 30 H -2.3601 -4.1427 2.0058 0
M  V30 31 H 0.0048 -4.8538 2.3596 0
M  V30 END ATOM
M  V30 BEGIN BOND
M  V30 1 2 1 2
M  V30 2 1 2 3
M  V30 3 1 2 4
M  V30 4 2 3 5
M  V30 5 1 3 6
M  V30 6 1 4 7
M  V30 7 1 4 8
M  V30 8 1 4 9
M  V30 9 1 5 10
M  V30 10 2 6 11
M  V30 11 2 7 12
M  V30 12 1 7 13
M  V30 13 2 10 14
M  V30 14 1 12 15
M  V30 15 2 13 16
M  V30 16 2 15 17
M  V30 17 1 11 14
M  V30 18 1 16 17
M  V30 19 1 5 18
M  V30 20 1 6 19
M  V30 21 1 8 20
M  V30 22 1 8 21
M  V30 23 1 8 22
M  V30 24 1 9 23
M  V30 25 1 9 24
M  V30 26 1 9 25
M  V30 27 1 11 26
M  V30 28 1 12 27
M  V30 29 1 13 28
M  V30 30 1 14 29
M  V30 31 1 16 30
M  V30 32 1 17 31
M  V30 END BOND
M  V30 END CTAB
M  END
>  <Column 1>
3964

>  <level_0>
7748

>  <index>
7750

>  <Unnamed: 0>
7750

>  <NO.>
7763

>  <Name>
metyrapone

>  <IUPAC_name>
2-methyl-1-2-dipyridin-3-ylpropan-1-one

>  <SMILES>
CC(C)(C(=O)c1cccnc1)c1cccnc1

>  <CID>
4174

>  <logBB>


>  <BBB+/BBB->
BBB-

>  <Inchi>
InChI=1S/C14H14N2O/c1-14(2-12-6-4-8-16-10-12)13(17)11-5-3-7-15-9-11/h3-10H-1-2H3

>  <threshold>


>  <reference>
R14|R23|R27|

>  <group>
D

>  <Class>
-1

>  <ABC>
12.99

>  <ABCGG>
11.49

>  <nAcid>
0

>  <nBase>
0

>  <nAromAtom>
12

>  <nAromBond>
12

>  <nAtom>
31

>  <nHeavyAtom>
17

>  <nSpiro>
0

>  <nBridgehead>
0

>  <nHetero>
3

>  <nN>
2

>  <nO>
1

>  <nF>
0

>  <BalabanJ>
1.96

>  <BertzCT>
506.26

>  <nBonds>
32

>  <nBondsO>
18

>  <nBondsS>
19

>  <nBondsD>
1

>  <nBondsT>
0

>  <nBondsA>
12

>  <nBondsM>
13

>  <nBondsKS>
25

>  <nBondsKD>
7

>  <RNCG>
0.26

>  <RPCG>
0.15

>  <FCSP3>
0.21

>  <SZ>
20

>  <Sm>
18.84

>  <Sv>
20.02

>  <Sse>
30.87

>  <Sp>
21.39

>  <Si>
34.7

>  <MZ>
0.65

>  <Mm>
0.61

>  <Mv>
0.65

>  <Mse>
1

>  <Mp>
0.69

>  <Mi>
1.12

>  <NsCH3>
2

>  <NdCH2>
0

>  <NssCH2>
0

>  <NtCH>
0

>  <NdsCH>
0

>  <NaaCH>
8

>  <NsssCH>
0

>  <NddC>
0

>  <NtsC>
0

>  <NdssC>
1

>  <NaasC>
2

>  <NaaaC>
0

>  <NssssC>
1

>  <NsNH3>
0

>  <NsNH2>
0

>  <NssNH2>
0

>  <NdNH>
0

>  <NssNH>
0

>  <NaaNH>
0

>  <NtN>
0

>  <NsssNH>
0

>  <NdsN>
0

>  <NaaN>
2

>  <NsssN>
0

>  <NddsN>
0

>  <NaasN>
0

>  <NssssN>
0

>  <NsOH>
0

>  <NdO>
1

>  <NssO>
0

>  <NaaO>
0

>  <NsF>
0

>  <NsSiH3>
0

>  <NssSiH2>
0

>  <NsssSiH>
0

>  <NssssSi>
0

>  <NsPH2>
0

>  <NssPH>
0

>  <NsssP>
0

>  <NdsssP>
0

>  <NsssssP>
0

>  <NsSH>
0

>  <NdS>
0

>  <NssS>
0

>  <NaaS>
0

>  <NdssS>
0

>  <NddssS>
0

>  <NsCl>
0

>  <NsBr>
0

>  <NsI>
0

>  <fragCpx>
52.03

>  <fMF>
0.45

>  <nHBAcc>
3

>  <nHBDon>
0

>  <Kier1>
13.43

>  <Kier2>
5.76

>  <Lipinski>
1

>  <GhoseFilter>
1

>  <FilterItLogS>
-3.74

>  <VMcGowan>
182.13

>  <LabuteASA>
100.55

>  <PEOE_VSA1>
0

>  <PEOE_VSA2>
14.76

>  <PEOE_VSA3>
0

>  <PEOE_VSA4>
0

>  <PEOE_VSA5>
0

>  <PEOE_VSA6>
6.07

>  <PEOE_VSA7>
37.61

>  <PEOE_VSA8>
30.35

>  <PEOE_VSA9>
5.41

>  <PEOE_VSA10>
0

>  <PEOE_VSA11>
5.78

>  <PEOE_VSA12>
0

>  <PEOE_VSA13>
0

>  <SMR_VSA1>
4.79

>  <SMR_VSA2>
0

>  <SMR_VSA3>
9.97

>  <SMR_VSA4>
0

>  <SMR_VSA5>
19.26

>  <SMR_VSA6>
0

>  <SMR_VSA7>
60.18

>  <SMR_VSA8>
0

>  <SMR_VSA9>
0

>  <SlogP_VSA1>
0

>  <SlogP_VSA2>
15.75

>  <SlogP_VSA3>
5.41

>  <SlogP_VSA4>
0

>  <SlogP_VSA5>
29.77

>  <SlogP_VSA6>
49.05

>  <SlogP_VSA7>
0

>  <SlogP_VSA8>
0

>  <SlogP_VSA9>
0

>  <SlogP_VSA10>
0

>  <SlogP_VSA11>
0

>  <EState_VSA1>
5.41

>  <EState_VSA2>
5.78

>  <EState_VSA3>
5.56

>  <EState_VSA4>
5.56

>  <EState_VSA5>
0

>  <EState_VSA6>
36.92

>  <EState_VSA7>
25.98

>  <EState_VSA8>
9.97

>  <EState_VSA9>
0

>  <EState_VSA10>
4.79

>  <VSA_EState1>
0

>  <VSA_EState2>
20.43

>  <VSA_EState3>
0

>  <VSA_EState4>
0.95

>  <VSA_EState5>
0.05

>  <VSA_EState6>
7.31

>  <VSA_EState7>
6.69

>  <VSA_EState8>
3.8

>  <VSA_EState9>
0

>  <apol>
35.72

>  <bpol>
17.19

>  <nRing>
2

>  <nHRing>
2

>  <naRing>
2

>  <naHRing>
2

>  <nARing 2>
0

>  <nAHRing 2>
0

>  <nFRing>
0

>  <nFHRing>
0

>  <nFaRing>
0

>  <nFaHRing>
0

>  <nFARing 2>
0

>  <nFAHRing 2>
0

>  <nRot>
3

>  <SLogP>
2.64

>  <SMR>
65.83

>  <TopoPSA(NO)>
42.85

>  <TopoPSA>
42.85

>  <JGI1>
0.19

>  <JGI2>
0.11

>  <JGI3>
0.06

>  <JGI4>
0.04

>  <JGI5>
0.03

>  <Diameter>
9

>  <Radius>
5

>  <TMWC10>
106.27

>  <TSRW10>
49.83

>  <MW>
226.11

>  <AMW>
7.29

>  <WPath>
504

>  <WPol>
26

>  <Zagreb1>
86

>  <Zagreb2>
100

>  <mZagreb2>
3.78

>  <yes>


>  <nAR-cont>
0.336376

>  <nHA-cont>
0.976740822

>  <MWHBN>
0.199508485

>  <MWHBN-cont>
0.999524326

>  <TPSA-cont>
0.700880392

>  <pka_cont>
0.97

>  <yes.1>


>  <BBB_SCORE>
4.699164094

>  <MMFF94 Energy>
82.429

$$$$
Compound 3080
Actelion Java MolfileCreator 2.0

  0  0  0  0  0  0              0 V3000
M  V30 BEGIN CTAB
M  V30 COUNTS 30 30 0 0 0
M  V30 BEGIN ATOM
M  V30 1 F 0.6415 0.6415 -3.7735 0
M  V30 2 C 1.6893 -0.1491 -3.4054 0
M  V30 3 F 2.7959 0.6279 -3.5231 0
M  V30 4 F 1.7687 -1.1019 -4.3731 0
M  V30 5 C 1.5244 -0.7318 -2.026 0
M  V30 6 C 2.2301 -1.8654 -1.5988 0
M  V30 7 C 0.6271 -0.1352 -1.1161 0
M  V30 8 N 3.2074 -2.5141 -2.4631 0 CHG=1
M  V30 9 C 2.0314 -2.416 -0.3256 0
M  V30 10 C 0.4317 -0.6596 0.1679 0
M  V30 11 O 3.0994 -3.7375 -2.6129 0
M  V30 12 O 4.0874 -1.7988 -2.9536 0 CHG=-1
M  V30 13 C 1.1278 -1.8119 0.5499 0
M  V30 14 N -0.4667 -0.1077 1.1013 0
M  V30 15 C -0.985 1.179 1.0911 0
M  V30 16 O -0.7057 2.0507 0.275 0
M  V30 17 C -1.9653 1.4231 2.2413 0
M  V30 18 C -2.2486 2.9132 2.4187 0
M  V30 19 C -3.2652 0.6596 1.9952 0
M  V30 20 H 0.0693 0.7423 -1.4419 0
M  V30 21 H 2.5768 -3.3034 -0.0084 0
M  V30 22 H 0.9884 -2.2456 1.5379 0
M  V30 23 H -0.7085 -0.6898 1.8941 0
M  V30 24 H -1.5023 1.052 3.1645 0
M  V30 25 H -2.9051 3.0851 3.2782 0
M  V30 26 H -1.3194 3.4682 2.5878 0
M  V30 27 H -2.7323 3.338 1.532 0
M  V30 28 H -3.089 -0.4193 1.9337 0
M  V30 29 H -3.7326 0.9692 1.0537 0
M  V30 30 H -3.9803 0.8344 2.806 0
M  V30 END ATOM
M  V30 BEGIN BOND
M  V30 1 1 1 2
M  V30 2 1 2 3
M  V30 3 1 2 4
M  V30 4 1 2 5
M  V30 5 2 5 6
M  V30 6 1 5 7
M  V30 7 1 6 8
M  V30 8 1 6 9
M  V30 9 2 7 10
M  V30 10 2 8 11
M  V30 11 1 8 12
M  V30 12 2 9 13
M  V30 13 1 10 14
M  V30 14 1 14 15
M  V30 15 2 15 16
M  V30 16 1 15 17
M  V30 17 1 17 18
M  V30 18 1 17 19
M  V30 19 1 10 13
M  V30 20 1 7 20
M  V30 21 1 9 21
M  V30 22 1 13 22
M  V30 23 1 14 23
M  V30 24 1 17 24
M  V30 25 1 18 25
M  V30 26 1 18 26
M  V30 27 1 18 27
M  V30 28 1 19 28
M  V30 29 1 19 29
M  V30 30 1 19 30
M  V30 END BOND
M  V30 END CTAB
M  END
>  <Column 1>
3965

>  <level_0>
7749

>  <index>
7751

>  <Unnamed: 0>
7751

>  <NO.>
7764

>  <Name>
flutamide

>  <IUPAC_name>
2-methyl-n-[4-nitro-3-(trifluoromethyl)phenyl]propanamide

>  <SMILES>
CC(C)C(=O)Nc1ccc([N+](=O)[O-])c(C(F)(F)F)c1

>  <CID>
3397

>  <logBB>


>  <BBB+/BBB->
BBB-

>  <Inchi>
InChI=1S/C11H11F3N2O3/c1-6(2)10(17)15-7-3-4-9(16(18)19)8(5-7)11(12-13)14/h3-6H-1-2H3-(H-15-17)

>  <threshold>


>  <reference>
R14|R15|R27|

>  <group>
D

>  <Class>
-1

>  <ABC>
14.28

>  <ABCGG>
13.13

>  <nAcid>
0

>  <nBase>
0

>  <nAromAtom>
6

>  <nAromBond>
6

>  <nAtom>
30

>  <nHeavyAtom>
19

>  <nSpiro>
0

>  <nBridgehead>
0

>  <nHetero>
8

>  <nN>
2

>  <nO>
3

>  <nF>
3

>  <BalabanJ>
2.69

>  <BertzCT>
512.4

>  <nBonds>
30

>  <nBondsO>
19

>  <nBondsS>
22

>  <nBondsD>
2

>  <nBondsT>
0

>  <nBondsA>
6

>  <nBondsM>
8

>  <nBondsKS>
25

>  <nBondsKD>
5

>  <RNCG>
0.18

>  <RPCG>
0.24

>  <FCSP3>
0.36

>  <SZ>
23.67

>  <Sm>
23

>  <Sv>
19.58

>  <Sse>
32.07

>  <Sp>
19.15

>  <Si>
35.14

>  <MZ>
0.79

>  <Mm>
0.77

>  <Mv>
0.65

>  <Mse>
1.07

>  <Mp>
0.64

>  <Mi>
1.17

>  <NsCH3>
2

>  <NdCH2>
0

>  <NssCH2>
0

>  <NtCH>
0

>  <NdsCH>
0

>  <NaaCH>
3

>  <NsssCH>
1

>  <NddC>
0

>  <NtsC>
0

>  <NdssC>
1

>  <NaasC>
3

>  <NaaaC>
0

>  <NssssC>
1

>  <NsNH3>
0

>  <NsNH2>
0

>  <NssNH2>
0

>  <NdNH>
0

>  <NssNH>
1

>  <NaaNH>
0

>  <NtN>
0

>  <NsssNH>
0

>  <NdsN>
0

>  <NaaN>
0

>  <NsssN>
0

>  <NddsN>
1

>  <NaasN>
0

>  <NssssN>
0

>  <NsOH>
0

>  <NdO>
2

>  <NssO>
0

>  <NaaO>
0

>  <NsF>
3

>  <NsSiH3>
0

>  <NssSiH2>
0

>  <NsssSiH>
0

>  <NssssSi>
0

>  <NsPH2>
0

>  <NssPH>
0

>  <NsssP>
0

>  <NdsssP>
0

>  <NsssssP>
0

>  <NsSH>
0

>  <NdS>
0

>  <NssS>
0

>  <NaaS>
0

>  <NdssS>
0

>  <NddssS>
0

>  <NsCl>
0

>  <NsBr>
0

>  <NsI>
0

>  <fragCpx>
19.08

>  <fMF>
0.2

>  <nHBAcc>
3

>  <nHBDon>
1

>  <Kier1>
17.05

>  <Kier2>
6.64

>  <Lipinski>
1

>  <GhoseFilter>
1

>  <FilterItLogS>
-3.66

>  <VMcGowan>
176.34

>  <LabuteASA>
106.12

>  <PEOE_VSA1>
5.32

>  <PEOE_VSA2>
14.91

>  <PEOE_VSA3>
0

>  <PEOE_VSA4>
13.17

>  <PEOE_VSA5>
0

>  <PEOE_VSA6>
13.85

>  <PEOE_VSA7>
12.13

>  <PEOE_VSA8>
17.67

>  <PEOE_VSA9>
4.92

>  <PEOE_VSA10>
5.56

>  <PEOE_VSA11>
0

>  <PEOE_VSA12>
5.91

>  <PEOE_VSA13>
5.69

>  <SMR_VSA1>
22.89

>  <SMR_VSA2>
0

>  <SMR_VSA3>
0

>  <SMR_VSA4>
5.92

>  <SMR_VSA5>
20.02

>  <SMR_VSA6>
5.32

>  <SMR_VSA7>
33.88

>  <SMR_VSA8>
0

>  <SMR_VSA9>
0

>  <SlogP_VSA1>
5.32

>  <SlogP_VSA2>
10.83

>  <SlogP_VSA3>
10.97

>  <SlogP_VSA4>
16.03

>  <SlogP_VSA5>
19.41

>  <SlogP_VSA6>
18.2

>  <SlogP_VSA7>
0

>  <SlogP_VSA8>
0

>  <SlogP_VSA9>
0

>  <SlogP_VSA10>
24.55

>  <SlogP_VSA11>
0

>  <EState_VSA1>
34.18

>  <EState_VSA2>
5.69

>  <EState_VSA3>
6.07

>  <EState_VSA4>
12.13

>  <EState_VSA5>
0

>  <EState_VSA6>
13.85

>  <EState_VSA7>
0

>  <EState_VSA8>
5.32

>  <EState_VSA9>
0

>  <EState_VSA10>
28.08

>  <VSA_EState1>
38

>  <VSA_EState2>
20.78

>  <VSA_EState3>
12.79

>  <VSA_EState4>
-2.56

>  <VSA_EState5>
-0.88

>  <VSA_EState6>
2.34

>  <VSA_EState7>
-4.86

>  <VSA_EState8>
3.15

>  <VSA_EState9>
0

>  <apol>
31.98

>  <bpol>
16.98

>  <nRing>
1

>  <nHRing>
0

>  <naRing>
1

>  <naHRing>
0

>  <nARing 2>
0

>  <nAHRing 2>
0

>  <nFRing>
0

>  <nFHRing>
0

>  <nFaRing>
0

>  <nFaHRing>
0

>  <nFARing 2>
0

>  <nFAHRing 2>
0

>  <nRot>
3

>  <SLogP>
3.21

>  <SMR>
61.57

>  <TopoPSA(NO)>
72.24

>  <TopoPSA>
72.24

>  <JGI1>
0.34

>  <JGI2>
0.1

>  <JGI3>
0.06

>  <JGI4>
0.06

>  <JGI5>
0.03

>  <Diameter>
9

>  <Radius>
5

>  <TMWC10>
109.89

>  <TSRW10>
52.17

>  <MW>
276.07

>  <AMW>
9.2

>  <WPath>
706

>  <WPol>
28

>  <Zagreb1>
94

>  <Zagreb2>
106

>  <mZagreb2>
4.08

>  <yes>


>  <nAR-cont>
0.336376

>  <nHA-cont>
0.998649058

>  <MWHBN>
0.240741179

>  <MWHBN-cont>
0.973956445

>  <TPSA-cont>
0.495719942

>  <pka_cont>
0.97

>  <yes.1>


>  <BBB_SCORE>
4.272399608

>  <MMFF94 Energy>
19.919

$$$$
Compound 3081
Actelion Java MolfileCreator 2.0

  0  0  0  0  0  0              0 V3000
M  V30 BEGIN CTAB
M  V30 COUNTS 32 33 0 0 0
M  V30 BEGIN ATOM
M  V30 1 F 1.9471 2.2719 -3.2468 0
M  V30 2 C 2.1111 0.9567 -3.5682 0
M  V30 3 F 3.4513 0.7462 -3.579 0
M  V30 4 F 1.6796 0.8506 -4.8531 0
M  V30 5 C 1.3783 0.0373 -2.626 0
M  V30 6 C 1.0539 -1.2835 -2.9638 0
M  V30 7 C 0.9897 0.5034 -1.3524 0
M  V30 8 N 1.4591 -1.855 -4.2413 0 CHG=1
M  V30 9 C 0.3418 -2.1095 -2.0851 0
M  V30 10 C 0.2828 -0.3099 -0.449 0
M  V30 11 O 0.5815 -2.4114 -4.9122 0
M  V30 12 O 2.6538 -1.7641 -4.543 0 CHG=-1
M  V30 13 C -0.0397 -1.6183 -0.8343 0
M  V30 14 N -0.0948 0.1832 0.8211 0
M  V30 15 C 0.6566 1.0432 1.5843 0
M  V30 16 C -1.2662 -0.1295 1.4786 0
M  V30 17 O 1.7522 1.5258 1.3458 0
M  V30 18 N -0.0246 1.3059 2.7523 0
M  V30 19 O -2.1726 -0.8592 1.0932 0
M  V30 20 C -1.2842 0.613 2.826 0
M  V30 21 C -1.3029 -0.3804 3.9801 0
M  V30 22 C -2.4509 1.5902 2.8812 0
M  V30 23 H 1.2385 1.5297 -1.0759 0
M  V30 24 H 0.0857 -3.1318 -2.3594 0
M  V30 25 H -0.5835 -2.2817 -0.1637 0
M  V30 26 H 0.3667 1.9193 3.4566 0
M  V30 27 H -0.4848 -1.1054 3.8962 0
M  V30 28 H -2.2402 -0.9472 4.0002 0
M  V30 29 H -1.1918 0.1314 4.9424 0
M  V30 30 H -2.4484 2.2643 2.0165 0
M  V30 31 H -3.4109 1.0623 2.8804 0
M  V30 32 H -2.4026 2.2109 3.7827 0
M  V30 END ATOM
M  V30 BEGIN BOND
M  V30 1 1 1 2
M  V30 2 1 2 3
M  V30 3 1 2 4
M  V30 4 1 2 5
M  V30 5 2 5 6
M  V30 6 1 5 7
M  V30 7 1 6 8
M  V30 8 1 6 9
M  V30 9 2 7 10
M  V30 10 2 8 11
M  V30 11 1 8 12
M  V30 12 2 9 13
M  V30 13 1 10 14
M  V30 14 1 14 15
M  V30 15 1 14 16
M  V30 16 2 15 17
M  V30 17 1 15 18
M  V30 18 2 16 19
M  V30 19 1 16 20
M  V30 20 1 20 21
M  V30 21 1 20 22
M  V30 22 1 10 13
M  V30 23 1 18 20
M  V30 24 1 7 23
M  V30 25 1 9 24
M  V30 26 1 13 25
M  V30 27 1 18 26
M  V30 28 1 21 27
M  V30 29 1 21 28
M  V30 30 1 21 29
M  V30 31 1 22 30
M  V30 32 1 22 31
M  V30 33 1 22 32
M  V30 END BOND
M  V30 END CTAB
M  END
>  <Column 1>
3966

>  <level_0>
7751

>  <index>
7753

>  <Unnamed: 0>
7753

>  <NO.>
7766

>  <Name>
nilutamide

>  <IUPAC_name>
5-5-dimethyl-3-[4-nitro-3-(trifluoromethyl)phenyl]imidazolidine-2-4-dione

>  <SMILES>
CC1(C)NC(=O)N(c2ccc([N+](=O)[O-])c(C(F)(F)F)c2)C1=O

>  <CID>
4493

>  <logBB>


>  <BBB+/BBB->
BBB-

>  <Inchi>
InChI=1S/C12H10F3N3O4/c1-11(2)9(19)17(10(20)16-11)6-3-4-8(18(21)22)7(5-6)12(13-14)15/h3-5H-1-2H3-(H-16-20)

>  <threshold>


>  <reference>
R14|R23|R27|

>  <group>
D

>  <Class>
-1

>  <ABC>
17.17

>  <ABCGG>
15.64

>  <nAcid>
0

>  <nBase>
0

>  <nAromAtom>
6

>  <nAromBond>
6

>  <nAtom>
32

>  <nHeavyAtom>
22

>  <nSpiro>
0

>  <nBridgehead>
0

>  <nHetero>
10

>  <nN>
3

>  <nO>
4

>  <nF>
3

>  <BalabanJ>
2.18

>  <BertzCT>
684.68

>  <nBonds>
33

>  <nBondsO>
23

>  <nBondsS>
24

>  <nBondsD>
3

>  <nBondsT>
0

>  <nBondsA>
6

>  <nBondsM>
9

>  <nBondsKS>
27

>  <nBondsKD>
6

>  <RNCG>
0.15

>  <RPCG>
0.19

>  <FCSP3>
0.33

>  <SZ>
27

>  <Sm>
26.41

>  <Sv>
21.78

>  <Sse>
34.62

>  <Sp>
20.89

>  <Si>
37.43

>  <MZ>
0.84

>  <Mm>
0.83

>  <Mv>
0.68

>  <Mse>
1.08

>  <Mp>
0.65

>  <Mi>
1.17

>  <NsCH3>
2

>  <NdCH2>
0

>  <NssCH2>
0

>  <NtCH>
0

>  <NdsCH>
0

>  <NaaCH>
3

>  <NsssCH>
0

>  <NddC>
0

>  <NtsC>
0

>  <NdssC>
2

>  <NaasC>
3

>  <NaaaC>
0

>  <NssssC>
2

>  <NsNH3>
0

>  <NsNH2>
0

>  <NssNH2>
0

>  <NdNH>
0

>  <NssNH>
1

>  <NaaNH>
0

>  <NtN>
0

>  <NsssNH>
0

>  <NdsN>
0

>  <NaaN>
0

>  <NsssN>
1

>  <NddsN>
1

>  <NaasN>
0

>  <NssssN>
0

>  <NsOH>
0

>  <NdO>
3

>  <NssO>
0

>  <NaaO>
0

>  <NsF>
3

>  <NsSiH3>
0

>  <NssSiH2>
0

>  <NsssSiH>
0

>  <NssssSi>
0

>  <NsPH2>
0

>  <NssPH>
0

>  <NsssP>
0

>  <NdsssP>
0

>  <NsssssP>
0

>  <NsSH>
0

>  <NdS>
0

>  <NssS>
0

>  <NaaS>
0

>  <NdssS>
0

>  <NddssS>
0

>  <NsCl>
0

>  <NsBr>
0

>  <NsI>
0

>  <fragCpx>
67.1

>  <fMF>
0.34

>  <nHBAcc>
4

>  <nHBDon>
1

>  <Kier1>
18.34

>  <Kier2>
6.14

>  <Lipinski>
1

>  <GhoseFilter>
1

>  <FilterItLogS>
-3.58

>  <VMcGowan>
191.12

>  <LabuteASA>
121.4

>  <PEOE_VSA1>
5.32

>  <PEOE_VSA2>
14.91

>  <PEOE_VSA3>
9.69

>  <PEOE_VSA4>
13.17

>  <PEOE_VSA5>
0

>  <PEOE_VSA6>
0

>  <PEOE_VSA7>
25.98

>  <PEOE_VSA8>
6.07

>  <PEOE_VSA9>
10.61

>  <PEOE_VSA10>
11.1

>  <PEOE_VSA11>
0

>  <PEOE_VSA12>
0

>  <PEOE_VSA13>
11.59

>  <SMR_VSA1>
27.68

>  <SMR_VSA2>
0

>  <SMR_VSA3>
5.32

>  <SMR_VSA4>
0

>  <SMR_VSA5>
25.56

>  <SMR_VSA6>
4.9

>  <SMR_VSA7>
33.88

>  <SMR_VSA8>
0

>  <SMR_VSA9>
0

>  <SlogP_VSA1>
10.22

>  <SlogP_VSA2>
22.4

>  <SlogP_VSA3>
10.97

>  <SlogP_VSA4>
10.11

>  <SlogP_VSA5>
19.41

>  <SlogP_VSA6>
18.2

>  <SlogP_VSA7>
0

>  <SlogP_VSA8>
0

>  <SlogP_VSA9>
0

>  <SlogP_VSA10>
29.34

>  <SlogP_VSA11>
0

>  <EState_VSA1>
39.83

>  <EState_VSA2>
5.69

>  <EState_VSA3>
17.03

>  <EState_VSA4>
6.07

>  <EState_VSA5>
13.85

>  <EState_VSA6>
0

>  <EState_VSA7>
0

>  <EState_VSA8>
5.32

>  <EState_VSA9>
0

>  <EState_VSA10>
32.87

>  <VSA_EState1>
38.74

>  <VSA_EState2>
33.83

>  <VSA_EState3>
12.99

>  <VSA_EState4>
-4.33

>  <VSA_EState5>
-0.75

>  <VSA_EState6>
1.06

>  <VSA_EState7>
-4.99

>  <VSA_EState8>
2.78

>  <VSA_EState9>
0

>  <apol>
34.89

>  <bpol>
18.55

>  <nRing>
2

>  <nHRing>
1

>  <naRing>
1

>  <naHRing>
0

>  <nARing 2>
1

>  <nAHRing 2>
1

>  <nFRing>
0

>  <nFHRing>
0

>  <nFaRing>
0

>  <nFaHRing>
0

>  <nFARing 2>
0

>  <nFAHRing 2>
0

>  <nRot>
2

>  <SLogP>
2.45

>  <SMR>
68.2

>  <TopoPSA(NO)>
92.55

>  <TopoPSA>
92.55

>  <JGI1>
0.35

>  <JGI2>
0.11

>  <JGI3>
0.09

>  <JGI4>
0.05

>  <JGI5>
0.03

>  <Diameter>
9

>  <Radius>
5

>  <TMWC10>
120.86

>  <TSRW10>
71.3

>  <MW>
317.06

>  <AMW>
9.91

>  <WPath>
974

>  <WPol>
38

>  <Zagreb1>
120

>  <Zagreb2>
143

>  <mZagreb2>
4.51

>  <yes>


>  <nAR-cont>
0.816016

>  <nHA-cont>
0.983774276

>  <MWHBN>
0.280801405

>  <MWHBN-cont>
0.89404486

>  <TPSA-cont>
0.35394353

>  <pka_cont>
0.97

>  <yes.1>


>  <BBB_SCORE>
4.333744626

>  <MMFF94 Energy>
16.841

$$$$
Compound 3082
Actelion Java MolfileCreator 2.0

  0  0  0  0  0  0              0 V3000
M  V30 BEGIN CTAB
M  V30 COUNTS 21 22 0 0 0
M  V30 BEGIN ATOM
M  V30 1 Cl -1.9299 -3.7786 -2.3499 0
M  V30 2 C -1.0294 -2.5995 -1.4821 0
M  V30 3 C -1.6598 -1.4542 -1.0121 0
M  V30 4 C 0.3298 -2.7971 -1.2505 0
M  V30 5 C -0.9051 -0.5111 -0.3055 0
M  V30 6 C 1.0635 -1.8344 -0.5472 0
M  V30 7 S -1.6884 0.9121 0.315 0
M  V30 8 C 0.4561 -0.6684 -0.0665 0
M  V30 9 O -2.3561 0.5591 1.5469 0
M  V30 10 O -2.3938 1.5495 -0.7751 0
M  V30 11 N -0.4213 1.9038 0.6902 0
M  V30 12 N 1.2787 0.252 0.5973 0
M  V30 13 C 0.8716 1.4353 0.9071 0
M  V30 14 C 1.8255 2.4289 1.5034 0
M  V30 15 H -2.7216 -1.2946 -1.1835 0
M  V30 16 H 0.8277 -3.6925 -1.6141 0
M  V30 17 H 2.1266 -1.9922 -0.3759 0
M  V30 18 H -0.6544 2.8909 0.7304 0
M  V30 19 H 2.7807 1.9531 1.7407 0
M  V30 20 H 1.3954 2.8503 2.4166 0
M  V30 21 H 1.9958 3.2394 0.7889 0
M  V30 END ATOM
M  V30 BEGIN BOND
M  V30 1 1 1 2
M  V30 2 2 2 3
M  V30 3 1 2 4
M  V30 4 1 3 5
M  V30 5 2 4 6
M  V30 6 1 5 7
M  V30 7 2 5 8
M  V30 8 2 7 9
M  V30 9 2 7 10
M  V30 10 1 7 11
M  V30 11 1 8 12
M  V30 12 1 11 13
M  V30 13 1 13 14
M  V30 14 1 6 8
M  V30 15 2 12 13
M  V30 16 1 3 15
M  V30 17 1 4 16
M  V30 18 1 6 17
M  V30 19 1 11 18
M  V30 20 1 14 19
M  V30 21 1 14 20
M  V30 22 1 14 21
M  V30 END BOND
M  V30 END CTAB
M  END
>  <Column 1>
3967

>  <level_0>
7752

>  <index>
7754

>  <Unnamed: 0>
7754

>  <NO.>
7767

>  <Name>
diazoxide

>  <IUPAC_name>
7-chloro-3-methyl-4h-1lambda6-2-4-benzothiadiazine 1-1-dioxide

>  <SMILES>
CC1=Nc2ccc(Cl)cc2S(=O)(=O)N1

>  <CID>
3019

>  <logBB>


>  <BBB+/BBB->
BBB-

>  <Inchi>
InChI=1S/C8H7ClN2O2S/c1-5-10-7-3-2-6(9)4-8(7)14(12-13)11-5/h2-4H-1H3-(H-10-11)

>  <threshold>


>  <reference>
R14|R15|R27|

>  <group>
D

>  <Class>
-1

>  <ABC>
11.04

>  <ABCGG>
9.63

>  <nAcid>
0

>  <nBase>
2

>  <nAromAtom>
6

>  <nAromBond>
6

>  <nAtom>
21

>  <nHeavyAtom>
14

>  <nSpiro>
0

>  <nBridgehead>
0

>  <nHetero>
6

>  <nN>
2

>  <nO>
2

>  <nF>
0

>  <BalabanJ>
2.13

>  <BertzCT>
522.14

>  <nBonds>
22

>  <nBondsO>
15

>  <nBondsS>
13

>  <nBondsD>
3

>  <nBondsT>
0

>  <nBondsA>
6

>  <nBondsM>
9

>  <nBondsKS>
16

>  <nBondsKD>
6

>  <RNCG>
0.25

>  <RPCG>
0.24

>  <FCSP3>
0.13

>  <SZ>
19.67

>  <Sm>
19.2

>  <Sv>
15.12

>  <Sse>
21.94

>  <Sp>
16.11

>  <Si>
23.53

>  <MZ>
0.94

>  <Mm>
0.91

>  <Mv>
0.72

>  <Mse>
1.04

>  <Mp>
0.77

>  <Mi>
1.12

>  <NsCH3>
1

>  <NdCH2>
0

>  <NssCH2>
0

>  <NtCH>
0

>  <NdsCH>
0

>  <NaaCH>
3

>  <NsssCH>
0

>  <NddC>
0

>  <NtsC>
0

>  <NdssC>
1

>  <NaasC>
3

>  <NaaaC>
0

>  <NssssC>
0

>  <NsNH3>
0

>  <NsNH2>
0

>  <NssNH2>
0

>  <NdNH>
0

>  <NssNH>
1

>  <NaaNH>
0

>  <NtN>
0

>  <NsssNH>
0

>  <NdsN>
1

>  <NaaN>
0

>  <NsssN>
0

>  <NddsN>
0

>  <NaasN>
0

>  <NssssN>
0

>  <NsOH>
0

>  <NdO>
2

>  <NssO>
0

>  <NaaO>
0

>  <NsF>
0

>  <NsSiH3>
0

>  <NssSiH2>
0

>  <NsssSiH>
0

>  <NssssSi>
0

>  <NsPH2>
0

>  <NssPH>
0

>  <NsssP>
0

>  <NdsssP>
0

>  <NsssssP>
0

>  <NsSH>
0

>  <NdS>
0

>  <NssS>
0

>  <NaaS>
0

>  <NdssS>
0

>  <NddssS>
1

>  <NsCl>
1

>  <NsBr>
0

>  <NsI>
0

>  <fragCpx>
43.06

>  <fMF>
0.48

>  <nHBAcc>
3

>  <nHBDon>
1

>  <Kier1>
10.52

>  <Kier2>
3.54

>  <Lipinski>
1

>  <GhoseFilter>
1

>  <FilterItLogS>
-3.24

>  <VMcGowan>
144.95

>  <LabuteASA>
86.66

>  <PEOE_VSA1>
0

>  <PEOE_VSA2>
4.72

>  <PEOE_VSA3>
13.41

>  <PEOE_VSA4>
0

>  <PEOE_VSA5>
0

>  <PEOE_VSA6>
11.6

>  <PEOE_VSA7>
25.12

>  <PEOE_VSA8>
5.02

>  <PEOE_VSA9>
5.69

>  <PEOE_VSA10>
10.73

>  <PEOE_VSA11>
0

>  <PEOE_VSA12>
0

>  <PEOE_VSA13>
10.02

>  <SMR_VSA1>
8.42

>  <SMR_VSA2>
0

>  <SMR_VSA3>
4.72

>  <SMR_VSA4>
4.99

>  <SMR_VSA5>
11.82

>  <SMR_VSA6>
0

>  <SMR_VSA7>
23.22

>  <SMR_VSA8>
0

>  <SMR_VSA9>
0

>  <SlogP_VSA1>
4.72

>  <SlogP_VSA2>
14.25

>  <SlogP_VSA3>
10.02

>  <SlogP_VSA4>
0

>  <SlogP_VSA5>
6.92

>  <SlogP_VSA6>
28.09

>  <SlogP_VSA7>
5.02

>  <SlogP_VSA8>
0

>  <SlogP_VSA9>
0

>  <SlogP_VSA10>
5.69

>  <SlogP_VSA11>
0

>  <EState_VSA1>
10.02

>  <EState_VSA2>
4.9

>  <EState_VSA3>
16.55

>  <EState_VSA4>
0

>  <EState_VSA5>
6.07

>  <EState_VSA6>
19.06

>  <EState_VSA7>
0

>  <EState_VSA8>
9.71

>  <EState_VSA9>
11.6

>  <EState_VSA10>
8.42

>  <VSA_EState1>
25.47

>  <VSA_EState2>
4.17

>  <VSA_EState3>
0.38

>  <VSA_EState4>
0.42

>  <VSA_EState5>
0.36

>  <VSA_EState6>
4.58

>  <VSA_EState7>
0

>  <VSA_EState8>
1.59

>  <VSA_EState9>
-3.48

>  <apol>
26.91

>  <bpol>
15.9

>  <nRing>
2

>  <nHRing>
1

>  <naRing>
1

>  <naHRing>
0

>  <nARing 2>
1

>  <nAHRing 2>
1

>  <nFRing>
1

>  <nFHRing>
1

>  <nFaRing>
0

>  <nFaHRing>
0

>  <nFARing 2>
1

>  <nFAHRing 2>
1

>  <nRot>
0

>  <SLogP>
1.68

>  <SMR>
54.54

>  <TopoPSA(NO)>
58.53

>  <TopoPSA>
66.91

>  <JGI1>
0.33

>  <JGI2>
0.1

>  <JGI3>
0.07

>  <JGI4>
0.07

>  <JGI5>
0.02

>  <Diameter>
7

>  <Radius>
4

>  <TMWC10>
100.09

>  <TSRW10>
46.5

>  <MW>
229.99

>  <AMW>
10.95

>  <WPath>
268

>  <WPol>
22

>  <Zagreb1>
76

>  <Zagreb2>
89

>  <mZagreb2>
2.9

>  <yes>


>  <nAR-cont>
0.816016

>  <nHA-cont>
0.887625254

>  <MWHBN>
0.263757923

>  <MWHBN-cont>
0.933744213

>  <TPSA-cont>
0.532926651

>  <pka_cont>
0.97

>  <yes.1>


>  <BBB_SCORE>
4.655110876

>  <MMFF94 Energy>
-119.3

$$$$
Compound 3083
Actelion Java MolfileCreator 2.0

  0  0  0  0  0  0              0 V3000
M  V30 BEGIN CTAB
M  V30 COUNTS 68 70 0 0 0
M  V30 BEGIN ATOM
M  V30 1 S -4.7064 0.1592 -3.1889 0
M  V30 2 O -5.7557 1.133 -3.395 0
M  V30 3 O -4.9973 -1.2432 -2.9715 0
M  V30 4 N -3.6703 0.2793 -4.4705 0
M  V30 5 C -3.693 0.7296 -1.8461 0
M  V30 6 C -2.5491 -0.4873 -4.7464 0
M  V30 7 C -3.1046 -0.1886 -0.9737 0
M  V30 8 C -3.5177 2.1041 -1.6602 0
M  V30 9 O -1.7208 -0.0593 -5.5349 0
M  V30 10 N -2.4669 -1.6974 -4.1308 0
M  V30 11 C -2.3112 0.2743 0.0764 0
M  V30 12 C -2.7241 2.5609 -0.6067 0
M  V30 13 C -1.3554 -2.6119 -4.3252 0
M  V30 14 C -2.1153 1.6504 0.2684 0
M  V30 15 C -1.1209 -3.433 -3.0536 0
M  V30 16 C -1.6131 -3.5229 -5.5305 0
M  V30 17 C -1.236 2.1354 1.3952 0
M  V30 18 C 6.0E-4 -4.4522 -3.2389 0
M  V30 19 C -0.4927 -4.544 -5.7151 0
M  V30 20 C 0.2394 2.1609 0.9882 0
M  V30 21 C -0.2602 -5.368 -4.4419 0
M  V30 22 N 1.1006 2.609 2.0693 0
M  V30 23 C 0.8972 -6.3457 -4.6362 0
M  V30 24 C 1.4677 1.7521 3.0887 0
M  V30 25 O 1.0492 0.5978 3.1017 0
M  V30 26 N 2.3019 2.2946 4.0438 0
M  V30 27 C 2.7712 1.5852 5.1486 0
M  V30 28 C 2.8113 3.6399 4.0525 0
M  V30 29 O 2.5713 0.4319 5.4862 0
M  V30 30 C 3.6299 2.5066 5.936 0
M  V30 31 C 3.646 3.6769 5.2839 0
M  V30 32 C 4.32 2.0601 7.1778 0
M  V30 33 C 4.3636 4.9279 5.6514 0
M  V30 34 C 3.3853 2.0545 8.3783 0
M  V30 35 H -3.7614 1.136 -5.0064 0
M  V30 36 H -3.2525 -1.2585 -1.0978 0
M  V30 37 H -3.995 2.8213 -2.3243 0
M  V30 38 H -3.2942 -2.0298 -3.6427 0
M  V30 39 H -1.8458 -0.4434 0.7517 0
M  V30 40 H -2.5885 3.6318 -0.4691 0
M  V30 41 H -0.4569 -2.0138 -4.5264 0
M  V30 42 H -2.0437 -3.9561 -2.7693 0
M  V30 43 H -0.8751 -2.7656 -2.2183 0
M  V30 44 H -2.5681 -4.0495 -5.4021 0
M  V30 45 H -1.7124 -2.9224 -6.4429 0
M  V30 46 H -1.3872 1.494 2.2727 0
M  V30 47 H -1.5539 3.138 1.7098 0
M  V30 48 H 0.0973 -5.0523 -2.3262 0
M  V30 49 H 0.952 -3.9212 -3.3721 0
M  V30 50 H -0.7447 -5.2091 -6.5497 0
M  V30 51 H 0.43 -4.0195 -5.9947 0
M  V30 52 H 0.5725 1.168 0.6634 0
M  V30 53 H 0.3944 2.85 0.1501 0
M  V30 54 H -1.1666 -5.9544 -4.2396 0
M  V30 55 H 1.4328 3.5577 2.0378 0
M  V30 56 H 1.8345 -5.8179 -4.8424 0
M  V30 57 H 0.6976 -7.0217 -5.4743 0
M  V30 58 H 1.0431 -6.9575 -3.7397 0
M  V30 59 H 3.4023 3.8164 3.1479 0
M  V30 60 H 1.9788 4.3498 4.0966 0
M  V30 61 H 5.1757 2.7087 7.3957 0
M  V30 62 H 4.7344 1.0557 7.0306 0
M  V30 63 H 5.0872 5.1922 4.8738 0
M  V30 64 H 4.9054 4.8356 6.5968 0
M  V30 65 H 3.6533 5.7543 5.7573 0
M  V30 66 H 3.9244 1.7298 9.2741 0
M  V30 67 H 2.5428 1.3713 8.2273 0
M  V30 68 H 2.9828 3.055 8.5709 0
M  V30 END ATOM
M  V30 BEGIN BOND
M  V30 1 2 1 2
M  V30 2 2 1 3
M  V30 3 1 1 4
M  V30 4 1 1 5
M  V30 5 1 4 6
M  V30 6 2 5 7
M  V30 7 1 5 8
M  V30 8 2 6 9
M  V30 9 1 6 10
M  V30 10 1 7 11
M  V30 11 2 8 12
M  V30 12 1 10 13
M  V30 13 2 11 14
M  V30 14 1 13 15
M  V30 15 1 13 16
M  V30 16 1 14 17
M  V30 17 1 15 18
M  V30 18 1 16 19
M  V30 19 1 17 20
M  V30 20 1 18 21
M  V30 21 1 20 22
M  V30 22 1 21 23
M  V30 23 1 22 24
M  V30 24 2 24 25
M  V30 25 1 24 26
M  V30 26 1 26 27
M  V30 27 1 26 28
M  V30 28 2 27 29
M  V30 29 1 27 30
M  V30 30 1 28 31
M  V30 31 1 30 32
M  V30 32 1 31 33
M  V30 33 1 32 34
M  V30 34 1 12 14
M  V30 35 1 19 21
M  V30 36 2 30 31
M  V30 37 1 4 35
M  V30 38 1 7 36
M  V30 39 1 8 37
M  V30 40 1 10 38
M  V30 41 1 11 39
M  V30 42 1 12 40
M  V30 43 1 13 41
M  V30 44 1 15 42
M  V30 45 1 15 43
M  V30 46 1 16 44
M  V30 47 1 16 45
M  V30 48 1 17 46
M  V30 49 1 17 47
M  V30 50 1 18 48
M  V30 51 1 18 49
M  V30 52 1 19 50
M  V30 53 1 19 51
M  V30 54 1 20 52
M  V30 55 1 20 53
M  V30 56 1 21 54
M  V30 57 1 22 55
M  V30 58 1 23 56
M  V30 59 1 23 57
M  V30 60 1 23 58
M  V30 61 1 28 59
M  V30 62 1 28 60
M  V30 63 1 32 61
M  V30 64 1 32 62
M  V30 65 1 33 63
M  V30 66 1 33 64
M  V30 67 1 33 65
M  V30 68 1 34 66
M  V30 69 1 34 67
M  V30 70 1 34 68
M  V30 END BOND
M  V30 END CTAB
M  END
>  <Column 1>
3968

>  <level_0>
7753

>  <index>
7755

>  <Unnamed: 0>
7755

>  <NO.>
7768

>  <Name>
glimepiride

>  <IUPAC_name>
4-ethyl-3-methyl-n-[2-[4-[(4-methylcyclohexyl)carbamoylsulfamoyl]phenyl]ethyl]-5-oxo-2h-pyrrole-1-carboxamide

>  <SMILES>
CCC1=C(C)CN(C(=O)NCCc2ccc(S(=O)(=O)NC(=O)NC3CCC(C)CC3)cc2)C1=O

>  <CID>
3476

>  <logBB>


>  <BBB+/BBB->
BBB-

>  <Inchi>
InChI=1S/C24H34N4O5S/c1-4-21-17(3)15-28(22(21)29)24(31)25-14-13-18-7-11-20(12-8-18)34(32-33)27-23(30)26-19-9-5-16(2)6-10-19/h7-8-11-12-16-19H-4-6-9-10-13-15H2-1-3H3-(H-25-31)(H2-26-27-30)

>  <threshold>


>  <reference>
R14|R15|R23|R27|

>  <group>
D

>  <Class>
-1

>  <ABC>
26.1

>  <ABCGG>
19.94

>  <nAcid>
0

>  <nBase>
0

>  <nAromAtom>
6

>  <nAromBond>
6

>  <nAtom>
68

>  <nHeavyAtom>
34

>  <nSpiro>
0

>  <nBridgehead>
0

>  <nHetero>
10

>  <nN>
4

>  <nO>
5

>  <nF>
0

>  <BalabanJ>
1.33

>  <BertzCT>
1057.34

>  <nBonds>
70

>  <nBondsO>
36

>  <nBondsS>
58

>  <nBondsD>
6

>  <nBondsT>
0

>  <nBondsA>
6

>  <nBondsM>
12

>  <nBondsKS>
61

>  <nBondsKD>
9

>  <RNCG>
0.11

>  <RPCG>
0.11

>  <FCSP3>
0.54

>  <SZ>
43.67

>  <Sm>
40.85

>  <Sv>
41

>  <Sse>
68.48

>  <Sp>
44.35

>  <Si>
77.19

>  <MZ>
0.64

>  <Mm>
0.6

>  <Mv>
0.6

>  <Mse>
1.01

>  <Mp>
0.65

>  <Mi>
1.14

>  <NsCH3>
3

>  <NdCH2>
0

>  <NssCH2>
8

>  <NtCH>
0

>  <NdsCH>
0

>  <NaaCH>
4

>  <NsssCH>
2

>  <NddC>
0

>  <NtsC>
0

>  <NdssC>
5

>  <NaasC>
2

>  <NaaaC>
0

>  <NssssC>
0

>  <NsNH3>
0

>  <NsNH2>
0

>  <NssNH2>
0

>  <NdNH>
0

>  <NssNH>
3

>  <NaaNH>
0

>  <NtN>
0

>  <NsssNH>
0

>  <NdsN>
0

>  <NaaN>
0

>  <NsssN>
1

>  <NddsN>
0

>  <NaasN>
0

>  <NssssN>
0

>  <NsOH>
0

>  <NdO>
5

>  <NssO>
0

>  <NaaO>
0

>  <NsF>
0

>  <NsSiH3>
0

>  <NssSiH2>
0

>  <NsssSiH>
0

>  <NssssSi>
0

>  <NsPH2>
0

>  <NssPH>
0

>  <NsssP>
0

>  <NdsssP>
0

>  <NsssssP>
0

>  <NsSH>
0

>  <NdS>
0

>  <NssS>
0

>  <NaaS>
0

>  <NdssS>
0

>  <NddssS>
1

>  <NsCl>
0

>  <NsBr>
0

>  <NsI>
0

>  <fragCpx>
174.1

>  <fMF>
0.37

>  <nHBAcc>
5

>  <nHBDon>
3

>  <Kier1>
28.57

>  <Kier2>
12.99

>  <Lipinski>
1

>  <GhoseFilter>
0

>  <FilterItLogS>
-5.49

>  <VMcGowan>
371.96

>  <LabuteASA>
200.95

>  <PEOE_VSA1>
10.63

>  <PEOE_VSA2>
9.69

>  <PEOE_VSA3>
22.73

>  <PEOE_VSA4>
0

>  <PEOE_VSA5>
0

>  <PEOE_VSA6>
25.98

>  <PEOE_VSA7>
74.64

>  <PEOE_VSA8>
18.16

>  <PEOE_VSA9>
11.44

>  <PEOE_VSA10>
0

>  <PEOE_VSA11>
0

>  <PEOE_VSA12>
0

>  <PEOE_VSA13>
15.93

>  <SMR_VSA1>
22.8

>  <SMR_VSA2>
0

>  <SMR_VSA3>
20.26

>  <SMR_VSA4>
5.92

>  <SMR_VSA5>
70.23

>  <SMR_VSA6>
13.09

>  <SMR_VSA7>
40.98

>  <SMR_VSA8>
0

>  <SMR_VSA9>
0

>  <SlogP_VSA1>
15.36

>  <SlogP_VSA2>
50.42

>  <SlogP_VSA3>
21.24

>  <SlogP_VSA4>
5.92

>  <SlogP_VSA5>
58.44

>  <SlogP_VSA6>
40.31

>  <SlogP_VSA7>
0

>  <SlogP_VSA8>
0

>  <SlogP_VSA9>
0

>  <SlogP_VSA10>
9.59

>  <SlogP_VSA11>
0

>  <EState_VSA1>
22.09

>  <EState_VSA2>
16.84

>  <EState_VSA3>
37.42

>  <EState_VSA4>
36.82

>  <EState_VSA5>
17.03

>  <EState_VSA6>
12.13

>  <EState_VSA7>
13.85

>  <EState_VSA8>
22.28

>  <EState_VSA9>
0

>  <EState_VSA10>
22.8

>  <VSA_EState1>
27.15

>  <VSA_EState2>
37.98

>  <VSA_EState3>
5.49

>  <VSA_EState4>
2.41

>  <VSA_EState5>
0.39

>  <VSA_EState6>
4.99

>  <VSA_EState7>
4.8

>  <VSA_EState8>
6.53

>  <VSA_EState9>
-3.98

>  <apol>
74.06

>  <bpol>
46.79

>  <nRing>
3

>  <nHRing>
1

>  <naRing>
1

>  <naHRing>
0

>  <nARing 2>
2

>  <nAHRing 2>
1

>  <nFRing>
0

>  <nFHRing>
0

>  <nFaRing>
0

>  <nFaHRing>
0

>  <nFARing 2>
0

>  <nFAHRing 2>
0

>  <nRot>
7

>  <SLogP>
3.07

>  <SMR>
128.52

>  <TopoPSA(NO)>
124.68

>  <TopoPSA>
133.06

>  <JGI1>
0.25

>  <JGI2>
0.1

>  <JGI3>
0.07

>  <JGI4>
0.04

>  <JGI5>
0.03

>  <Diameter>
21

>  <Radius>
11

>  <TMWC10>
147.43

>  <TSRW10>
84.37

>  <MW>
490.22

>  <AMW>
7.21

>  <WPath>
4390

>  <WPol>
52

>  <Zagreb1>
174

>  <Zagreb2>
201

>  <mZagreb2>
7.49

>  <yes>


>  <nAR-cont>
1

>  <nHA-cont>
0.568589513

>  <MWHBN>
0.361322057

>  <MWHBN-cont>
0.627360654

>  <TPSA-cont>
0

>  <pka_cont>
0.97

>  <yes.1>


>  <BBB_SCORE>
2.994630493

>  <MMFF94 Energy>
-230.08

$$$$
Compound 3084
Actelion Java MolfileCreator 2.0

  0  0  0  0  0  0              0 V3000
M  V30 BEGIN CTAB
M  V30 COUNTS 60 64 0 0 0
M  V30 BEGIN ATOM
M  V30 1 O -4.1669 -0.4 -0.9604 0
M  V30 2 C -3.0955 -0.1257 -1.478 0
M  V30 3 N -1.923 -0.8138 -1.3743 0
M  V30 4 C -2.7972 1.0654 -2.3679 0
M  V30 5 C -0.9821 -0.1687 -2.0909 0
M  V30 6 C -1.7993 -2.0416 -0.6048 0
M  V30 7 N -1.3598 0.9115 -2.7052 0
M  V30 8 C -3.0312 2.4005 -1.6547 0
M  V30 9 C -3.6488 1.0812 -3.6402 0
M  V30 10 C 0.4389 -0.6803 -2.1441 0
M  V30 11 C -1.0144 -1.8507 0.6722 0
M  V30 12 C -4.2601 2.9901 -2.3357 0
M  V30 13 C -4.1225 2.524 -3.7747 0
M  V30 14 C 1.323 0.0729 -3.1356 0
M  V30 15 C 0.0959 -2.6607 0.9475 0
M  V30 16 C -1.3743 -0.8603 1.5963 0
M  V30 17 C 2.746 -0.4846 -3.1422 0
M  V30 18 C 0.8632 -2.4466 2.0949 0
M  V30 19 C -0.6011 -0.643 2.7389 0
M  V30 20 C 3.6337 0.2657 -4.122 0
M  V30 21 C 0.5389 -1.4188 2.9907 0
M  V30 22 C 1.3852 -1.1462 4.1607 0
M  V30 23 C 2.3721 -0.1319 4.1801 0
M  V30 24 C 1.1743 -1.909 5.3273 0
M  V30 25 C 2.6796 0.6917 3.0123 0
M  V30 26 C 3.0953 0.0975 5.3676 0
M  V30 27 C 1.9092 -1.6746 6.49 0
M  V30 28 N 2.638 0.2287 1.7158 0
M  V30 29 N 3.087 1.9745 3.0787 0
M  V30 30 C 2.8672 -0.6684 6.5117 0
M  V30 31 N 2.993 1.2357 0.9317 0
M  V30 32 N 3.2377 2.2432 1.7737 0
M  V30 33 H -2.7924 -2.4312 -0.3531 0
M  V30 34 H -1.3069 -2.7829 -1.244 0
M  V30 35 H -3.1924 2.2961 -0.5764 0
M  V30 36 H -2.1784 3.0762 -1.7964 0
M  V30 37 H -3.0983 0.7656 -4.5329 0
M  V30 38 H -4.52 0.422 -3.5421 0
M  V30 39 H 0.4186 -1.746 -2.3977 0
M  V30 40 H 0.8643 -0.5901 -1.1384 0
M  V30 41 H -5.1735 2.5793 -1.8893 0
M  V30 42 H -4.2979 4.0799 -2.2518 0
M  V30 43 H -5.0614 2.6019 -4.3304 0
M  V30 44 H -3.3654 3.1221 -4.2957 0
M  V30 45 H 1.3491 1.1385 -2.875 0
M  V30 46 H 0.8929 0.0023 -4.1424 0
M  V30 47 H 0.3949 -3.447 0.2578 0
M  V30 48 H -2.2474 -0.2333 1.4241 0
M  V30 49 H 3.1788 -0.4128 -2.1374 0
M  V30 50 H 2.7286 -1.5466 -3.4129 0
M  V30 51 H 1.7417 -3.0643 2.2704 0
M  V30 52 H -0.8833 0.1518 3.4268 0
M  V30 53 H 4.6462 -0.1496 -4.1109 0
M  V30 54 H 3.2453 0.1875 -5.1424 0
M  V30 55 H 3.6989 1.3265 -3.8591 0
M  V30 56 H 0.4163 -2.6912 5.3323 0
M  V30 57 H 3.8525 0.8796 5.4025 0
M  V30 58 H 1.7262 -2.2736 7.3786 0
M  V30 59 H 3.4386 -0.477 7.4165 0
M  V30 60 H 3.5265 3.158 1.4391 0
M  V30 END ATOM
M  V30 BEGIN BOND
M  V30 1 2 1 2
M  V30 2 1 2 3
M  V30 3 1 2 4
M  V30 4 1 3 5
M  V30 5 1 3 6
M  V30 6 1 4 7
M  V30 7 1 4 8
M  V30 8 1 4 9
M  V30 9 1 5 10
M  V30 10 1 6 11
M  V30 11 1 8 12
M  V30 12 1 9 13
M  V30 13 1 10 14
M  V30 14 2 11 15
M  V30 15 1 11 16
M  V30 16 1 14 17
M  V30 17 1 15 18
M  V30 18 2 16 19
M  V30 19 1 17 20
M  V30 20 2 18 21
M  V30 21 1 21 22
M  V30 22 2 22 23
M  V30 23 1 22 24
M  V30 24 1 23 25
M  V30 25 1 23 26
M  V30 26 2 24 27
M  V30 27 1 25 28
M  V30 28 2 25 29
M  V30 29 2 26 30
M  V30 30 2 28 31
M  V30 31 1 29 32
M  V30 32 2 5 7
M  V30 33 1 12 13
M  V30 34 1 19 21
M  V30 35 1 27 30
M  V30 36 1 31 32
M  V30 37 1 6 33
M  V30 38 1 6 34
M  V30 39 1 8 35
M  V30 40 1 8 36
M  V30 41 1 9 37
M  V30 42 1 9 38
M  V30 43 1 10 39
M  V30 44 1 10 40
M  V30 45 1 12 41
M  V30 46 1 12 42
M  V30 47 1 13 43
M  V30 48 1 13 44
M  V30 49 1 14 45
M  V30 50 1 14 46
M  V30 51 1 15 47
M  V30 52 1 16 48
M  V30 53 1 17 49
M  V30 54 1 17 50
M  V30 55 1 18 51
M  V30 56 1 19 52
M  V30 57 1 20 53
M  V30 58 1 20 54
M  V30 59 1 20 55
M  V30 60 1 24 56
M  V30 61 1 26 57
M  V30 62 1 27 58
M  V30 63 1 30 59
M  V30 64 1 32 60
M  V30 END BOND
M  V30 END CTAB
M  END
>  <Column 1>
3969

>  <level_0>
7754

>  <index>
7756

>  <Unnamed: 0>
7756

>  <NO.>
7769

>  <Name>
irbesartan

>  <IUPAC_name>
2-butyl-3-[[4-[2-(2h-tetrazol-5-yl)phenyl]phenyl]methyl]-1-3-diazaspiro[4.4]non-1-en-4-one

>  <SMILES>
CCCCC1=NC2(CCCC2)C(=O)N1Cc1ccc(-c2ccccc2-c2nn[nH]n2)cc1

>  <CID>
3749

>  <logBB>


>  <BBB+/BBB->
BBB-

>  <Inchi>
InChI=1S/C25H28N6O/c1-2-3-10-22-26-25(15-6-7-16-25)24(32)31(22)17-18-11-13-19(14-12-18)20-8-4-5-9-21(20)23-27-29-30-28-23/h4-5-8-9-11-14H-2-3-6-7-10-15-17H2-1H3-(H-27-28-29-30)

>  <threshold>


>  <reference>
R14|R23|R27|

>  <group>
D

>  <Class>
1

>  <ABC>
25.3

>  <ABCGG>
19.84

>  <nAcid>
2

>  <nBase>
2

>  <nAromAtom>
17

>  <nAromBond>
17

>  <nAtom>
60

>  <nHeavyAtom>
32

>  <nSpiro>
1

>  <nBridgehead>
0

>  <nHetero>
7

>  <nN>
6

>  <nO>
1

>  <nF>
0

>  <BalabanJ>
1.17

>  <BertzCT>
1113.6

>  <nBonds>
64

>  <nBondsO>
36

>  <nBondsS>
45

>  <nBondsD>
2

>  <nBondsT>
0

>  <nBondsA>
17

>  <nBondsM>
19

>  <nBondsKS>
54

>  <nBondsKD>
10

>  <RNCG>
0.14

>  <RPCG>
0.12

>  <FCSP3>
0.4

>  <SZ>
38

>  <Sm>
35.68

>  <Sv>
37.85

>  <Sse>
59.74

>  <Sp>
40.61

>  <Si>
67.77

>  <MZ>
0.63

>  <Mm>
0.59

>  <Mv>
0.63

>  <Mse>
1

>  <Mp>
0.68

>  <Mi>
1.13

>  <NsCH3>
1

>  <NdCH2>
0

>  <NssCH2>
8

>  <NtCH>
0

>  <NdsCH>
0

>  <NaaCH>
8

>  <NsssCH>
0

>  <NddC>
0

>  <NtsC>
0

>  <NdssC>
2

>  <NaasC>
5

>  <NaaaC>
0

>  <NssssC>
1

>  <NsNH3>
0

>  <NsNH2>
0

>  <NssNH2>
0

>  <NdNH>
0

>  <NssNH>
0

>  <NaaNH>
1

>  <NtN>
0

>  <NsssNH>
0

>  <NdsN>
1

>  <NaaN>
3

>  <NsssN>
1

>  <NddsN>
0

>  <NaasN>
0

>  <NssssN>
0

>  <NsOH>
0

>  <NdO>
1

>  <NssO>
0

>  <NaaO>
0

>  <NsF>
0

>  <NsSiH3>
0

>  <NssSiH2>
0

>  <NsssSiH>
0

>  <NssssSi>
0

>  <NsPH2>
0

>  <NssPH>
0

>  <NsssP>
0

>  <NdsssP>
0

>  <NsssssP>
0

>  <NsSH>
0

>  <NdS>
0

>  <NssS>
0

>  <NaaS>
0

>  <NdssS>
0

>  <NddssS>
0

>  <NsCl>
0

>  <NsBr>
0

>  <NsI>
0

>  <fragCpx>
304.07

>  <fMF>
0.45

>  <nHBAcc>
5

>  <nHBDon>
1

>  <Kier1>
23.73

>  <Kier2>
10.73

>  <Lipinski>
1

>  <GhoseFilter>
1

>  <FilterItLogS>
-7.4

>  <VMcGowan>
331.56

>  <LabuteASA>
187.5

>  <PEOE_VSA1>
0

>  <PEOE_VSA2>
14.69

>  <PEOE_VSA3>
0

>  <PEOE_VSA4>
5.21

>  <PEOE_VSA5>
10.2

>  <PEOE_VSA6>
74.72

>  <PEOE_VSA7>
41.17

>  <PEOE_VSA8>
11.98

>  <PEOE_VSA9>
6.54

>  <PEOE_VSA10>
11.37

>  <PEOE_VSA11>
0

>  <PEOE_VSA12>
5.82

>  <PEOE_VSA13>
5.91

>  <SMR_VSA1>
4.79

>  <SMR_VSA2>
0

>  <SMR_VSA3>
25.52

>  <SMR_VSA4>
4.99

>  <SMR_VSA5>
63.95

>  <SMR_VSA6>
0

>  <SMR_VSA7>
54.09

>  <SMR_VSA8>
0

>  <SMR_VSA9>
22.51

>  <SlogP_VSA1>
0

>  <SlogP_VSA2>
42.81

>  <SlogP_VSA3>
11.34

>  <SlogP_VSA4>
0

>  <SlogP_VSA5>
57.43

>  <SlogP_VSA6>
53.52

>  <SlogP_VSA7>
0

>  <SlogP_VSA8>
22.51

>  <SlogP_VSA9>
0

>  <SlogP_VSA10>
0

>  <SlogP_VSA11>
0

>  <EState_VSA1>
5.54

>  <EState_VSA2>
5.91

>  <EState_VSA3>
12.37

>  <EState_VSA4>
73.04

>  <EState_VSA5>
0

>  <EState_VSA6>
0

>  <EState_VSA7>
23.1

>  <EState_VSA8>
57.88

>  <EState_VSA9>
4.99

>  <EState_VSA10>
4.79

>  <VSA_EState1>
0

>  <VSA_EState2>
20.3

>  <VSA_EState3>
14.47

>  <VSA_EState4>
3.69

>  <VSA_EState5>
1.75

>  <VSA_EState6>
16.44

>  <VSA_EState7>
7.01

>  <VSA_EState8>
2.76

>  <VSA_EState9>
0

>  <apol>
67.82

>  <bpol>
32.38

>  <nRing>
5

>  <nHRing>
2

>  <naRing>
3

>  <naHRing>
1

>  <nARing 2>
2

>  <nAHRing 2>
1

>  <nFRing>
0

>  <nFHRing>
0

>  <nFaRing>
0

>  <nFaHRing>
0

>  <nFARing 2>
0

>  <nFAHRing 2>
0

>  <nRot>
7

>  <SLogP>
4.78

>  <SMR>
123.76

>  <TopoPSA(NO)>
87.13

>  <TopoPSA>
87.13

>  <JGI1>
0.15

>  <JGI2>
0.08

>  <JGI3>
0.05

>  <JGI4>
0.03

>  <JGI5>
0.02

>  <Diameter>
15

>  <Radius>
8

>  <TMWC10>
146.89

>  <TSRW10>
85.42

>  <MW>
428.23

>  <AMW>
7.14

>  <WPath>
3125

>  <WPol>
51

>  <Zagreb1>
174

>  <Zagreb2>
210

>  <mZagreb2>
7.1

>  <yes>


>  <nAR-cont>
1

>  <nHA-cont>
0.658856097

>  <MWHBN>
0.289943052

>  <MWHBN-cont>
0.869708032

>  <TPSA-cont>
0.391778496

>  <pka_cont>
0.97

>  <yes.1>


>  <BBB_SCORE>
4.231975135

>  <MMFF94 Energy>
75.043

$$$$
Compound 3085
Actelion Java MolfileCreator 2.0

  0  0  0  0  0  0              0 V3000
M  V30 BEGIN CTAB
M  V30 COUNTS 45 46 0 0 0
M  V30 BEGIN ATOM
M  V30 1 S 0.8798 2.4811 2.8817 0
M  V30 2 O 2.0036 3.0628 3.5822 0
M  V30 3 O -0.3139 2.0794 3.586 0
M  V30 4 N 0.4247 3.6407 1.7585 0
M  V30 5 C 1.4685 1.1713 1.8549 0
M  V30 6 C 0.5906 0.2615 1.2536 0
M  V30 7 C 2.8507 1.0235 1.6926 0
M  V30 8 O -0.7742 0.3562 1.4253 0
M  V30 9 C 1.08 -0.8402 0.5132 0
M  V30 10 C 3.3489 -0.0374 0.9327 0
M  V30 11 C -1.4749 1.1893 0.5779 0
M  V30 12 N 0.1841 -1.7313 -0.0549 0
M  V30 13 C 2.4653 -0.9592 0.3525 0
M  V30 14 C 4.8031 -0.2378 0.7199 0
M  V30 15 C -1.0682 1.5559 -0.7068 0
M  V30 16 C -2.6926 1.6583 1.0788 0
M  V30 17 C 0.5454 -2.8795 -0.8621 0
M  V30 18 O 5.3129 -1.1421 0.0856 0
M  V30 19 O 5.5488 0.7114 1.3098 0
M  V30 20 C -1.8686 2.4052 -1.4746 0
M  V30 21 C -3.49 2.5075 0.3115 0
M  V30 22 C -0.7072 -3.5812 -1.3915 0
M  V30 23 C -3.0761 2.8825 -0.9652 0
M  V30 24 C -1.4649 -2.7355 -2.4188 0
M  V30 25 C -2.6797 -3.4744 -2.9579 0
M  V30 26 H 0.9502 4.5014 1.9077 0
M  V30 27 H -0.5896 3.7603 1.7627 0
M  V30 28 H 3.5354 1.7279 2.161 0
M  V30 29 H -0.7938 -1.603 0.1943 0
M  V30 30 H 2.8799 -1.7828 -0.2239 0
M  V30 31 H -0.1417 1.1862 -1.1351 0
M  V30 32 H -3.0132 1.3679 2.0772 0
M  V30 33 H 1.1154 -3.5896 -0.2519 0
M  V30 34 H 1.1741 -2.5743 -1.7067 0
M  V30 35 H 6.472 0.4581 1.0988 0
M  V30 36 H -1.5512 2.6892 -2.4749 0
M  V30 37 H -4.4341 2.8716 0.7086 0
M  V30 38 H -1.3736 -3.8351 -0.5576 0
M  V30 39 H -0.4046 -4.5259 -1.8596 0
M  V30 40 H -3.698 3.5403 -1.5672 0
M  V30 41 H -1.7954 -1.7928 -1.9682 0
M  V30 42 H -0.8005 -2.4806 -3.2524 0
M  V30 43 H -3.2058 -2.8546 -3.6907 0
M  V30 44 H -2.3854 -4.4066 -3.4504 0
M  V30 45 H -3.3803 -3.7169 -2.1525 0
M  V30 END ATOM
M  V30 BEGIN BOND
M  V30 1 2 1 2
M  V30 2 2 1 3
M  V30 3 1 1 4
M  V30 4 1 1 5
M  V30 5 2 5 6
M  V30 6 1 5 7
M  V30 7 1 6 8
M  V30 8 1 6 9
M  V30 9 2 7 10
M  V30 10 1 8 11
M  V30 11 1 9 12
M  V30 12 2 9 13
M  V30 13 1 10 14
M  V30 14 2 11 15
M  V30 15 1 11 16
M  V30 16 1 12 17
M  V30 17 2 14 18
M  V30 18 1 14 19
M  V30 19 1 15 20
M  V30 20 2 16 21
M  V30 21 1 17 22
M  V30 22 2 20 23
M  V30 23 1 22 24
M  V30 24 1 24 25
M  V30 25 1 10 13
M  V30 26 1 21 23
M  V30 27 1 4 26
M  V30 28 1 4 27
M  V30 29 1 7 28
M  V30 30 1 12 29
M  V30 31 1 13 30
M  V30 32 1 15 31
M  V30 33 1 16 32
M  V30 34 1 17 33
M  V30 35 1 17 34
M  V30 36 1 19 35
M  V30 37 1 20 36
M  V30 38 1 21 37
M  V30 39 1 22 38
M  V30 40 1 22 39
M  V30 41 1 23 40
M  V30 42 1 24 41
M  V30 43 1 24 42
M  V30 44 1 25 43
M  V30 45 1 25 44
M  V30 46 1 25 45
M  V30 END BOND
M  V30 END CTAB
M  END
>  <Column 1>
3970

>  <level_0>
7756

>  <index>
7758

>  <Unnamed: 0>
7758

>  <NO.>
7771

>  <Name>
bumetanide

>  <IUPAC_name>
3-(butylamino)-4-phenoxy-5-sulfamoylbenzoic acid

>  <SMILES>
CCCCNc1cc(C(=O)O)cc(S(N)(=O)=O)c1Oc1ccccc1

>  <CID>
2471

>  <logBB>


>  <BBB+/BBB->
BBB-

>  <Inchi>
InChI=1S/C17H20N2O5S/c1-2-3-9-19-14-10-12(17(20)21)11-15(25(18-22)23)16(14)24-13-7-5-4-6-8-13/h4-8-10-11-19H-2-3-9H2-1H3-(H-20-21)(H2-18-22-23)

>  <threshold>


>  <reference>
R14|R15|R23|R27|

>  <group>
D

>  <Class>
-1

>  <ABC>
18.9

>  <ABCGG>
16.16

>  <nAcid>
1

>  <nBase>
0

>  <nAromAtom>
12

>  <nAromBond>
12

>  <nAtom>
45

>  <nHeavyAtom>
25

>  <nSpiro>
0

>  <nBridgehead>
0

>  <nHetero>
8

>  <nN>
2

>  <nO>
5

>  <nF>
0

>  <BalabanJ>
2.14

>  <BertzCT>
850.84

>  <nBonds>
46

>  <nBondsO>
26

>  <nBondsS>
31

>  <nBondsD>
3

>  <nBondsT>
0

>  <nBondsA>
12

>  <nBondsM>
15

>  <nBondsKS>
37

>  <nBondsKD>
9

>  <RNCG>
0.18

>  <RPCG>
0.13

>  <FCSP3>
0.24

>  <SZ>
32

>  <Sm>
30.34

>  <Sv>
28.7

>  <Sse>
45.93

>  <Sp>
30.44

>  <Si>
50.7

>  <MZ>
0.71

>  <Mm>
0.67

>  <Mv>
0.64

>  <Mse>
1.02

>  <Mp>
0.68

>  <Mi>
1.13

>  <NsCH3>
1

>  <NdCH2>
0

>  <NssCH2>
3

>  <NtCH>
0

>  <NdsCH>
0

>  <NaaCH>
7

>  <NsssCH>
0

>  <NddC>
0

>  <NtsC>
0

>  <NdssC>
1

>  <NaasC>
5

>  <NaaaC>
0

>  <NssssC>
0

>  <NsNH3>
0

>  <NsNH2>
1

>  <NssNH2>
0

>  <NdNH>
0

>  <NssNH>
1

>  <NaaNH>
0

>  <NtN>
0

>  <NsssNH>
0

>  <NdsN>
0

>  <NaaN>
0

>  <NsssN>
0

>  <NddsN>
0

>  <NaasN>
0

>  <NssssN>
0

>  <NsOH>
1

>  <NdO>
3

>  <NssO>
1

>  <NaaO>
0

>  <NsF>
0

>  <NsSiH3>
0

>  <NssSiH2>
0

>  <NsssSiH>
0

>  <NssssSi>
0

>  <NsPH2>
0

>  <NssPH>
0

>  <NsssP>
0

>  <NdsssP>
0

>  <NsssssP>
0

>  <NsSH>
0

>  <NdS>
0

>  <NssS>
0

>  <NaaS>
0

>  <NdssS>
0

>  <NddssS>
1

>  <NsCl>
0

>  <NsBr>
0

>  <NsI>
0

>  <fragCpx>
76.08

>  <fMF>
0.29

>  <nHBAcc>
5

>  <nHBDon>
3

>  <Kier1>
21.3

>  <Kier2>
9.8

>  <Lipinski>
1

>  <GhoseFilter>
1

>  <FilterItLogS>
-4.14

>  <VMcGowan>
264.23

>  <LabuteASA>
146.03

>  <PEOE_VSA1>
15.16

>  <PEOE_VSA2>
0

>  <PEOE_VSA3>
18.35

>  <PEOE_VSA4>
0

>  <PEOE_VSA5>
0

>  <PEOE_VSA6>
31.54

>  <PEOE_VSA7>
30.69

>  <PEOE_VSA8>
6.54

>  <PEOE_VSA9>
11.25

>  <PEOE_VSA10>
10.65

>  <PEOE_VSA11>
5.75

>  <PEOE_VSA12>
10.02

>  <PEOE_VSA13>
0

>  <SMR_VSA1>
23.06

>  <SMR_VSA2>
0

>  <SMR_VSA3>
0

>  <SMR_VSA4>
5.14

>  <SMR_VSA5>
24.66

>  <SMR_VSA6>
11.86

>  <SMR_VSA7>
48.03

>  <SMR_VSA8>
0

>  <SMR_VSA9>
11.5

>  <SlogP_VSA1>
15.19

>  <SlogP_VSA2>
26.04

>  <SlogP_VSA3>
10.02

>  <SlogP_VSA4>
0

>  <SlogP_VSA5>
30.12

>  <SlogP_VSA6>
47.36

>  <SlogP_VSA7>
0

>  <SlogP_VSA8>
0

>  <SlogP_VSA9>
0

>  <SlogP_VSA10>
5.69

>  <SlogP_VSA11>
11.5

>  <EState_VSA1>
15.99

>  <EState_VSA2>
21.9

>  <EState_VSA3>
12.29

>  <EState_VSA4>
18.91

>  <EState_VSA5>
6.07

>  <EState_VSA6>
30.33

>  <EState_VSA7>
6.92

>  <EState_VSA8>
5.32

>  <EState_VSA9>
9.88

>  <EState_VSA10>
18.32

>  <VSA_EState1>
29.67

>  <VSA_EState2>
10.95

>  <VSA_EState3>
17.56

>  <VSA_EState4>
0.07

>  <VSA_EState5>
-0.86

>  <VSA_EState6>
10.93

>  <VSA_EState7>
1.75

>  <VSA_EState8>
2.54

>  <VSA_EState9>
-4.19

>  <apol>
50.84

>  <bpol>
29.32

>  <nRing>
2

>  <nHRing>
0

>  <naRing>
2

>  <naHRing>
0

>  <nARing 2>
0

>  <nAHRing 2>
0

>  <nFRing>
0

>  <nFHRing>
0

>  <nFaRing>
0

>  <nFaHRing>
0

>  <nFARing 2>
0

>  <nFAHRing 2>
0

>  <nRot>
8

>  <SLogP>
3.04

>  <SMR>
94.69

>  <TopoPSA(NO)>
118.72

>  <TopoPSA>
127.1

>  <JGI1>
0.23

>  <JGI2>
0.07

>  <JGI3>
0.05

>  <JGI4>
0.05

>  <JGI5>
0.04

>  <Diameter>
11

>  <Radius>
6

>  <TMWC10>
125.63

>  <TSRW10>
59.48

>  <MW>
364.11

>  <AMW>
8.09

>  <WPath>
1446

>  <WPol>
37

>  <Zagreb1>
124

>  <Zagreb2>
141

>  <mZagreb2>
5.58

>  <yes>


>  <nAR-cont>
0.336376

>  <nHA-cont>
0.921834225

>  <MWHBN>
0.419250591

>  <MWHBN-cont>
0.400857269

>  <TPSA-cont>
0

>  <pka_cont>
0.97

>  <yes.1>


>  <BBB_SCORE>
2.344496129

>  <MMFF94 Energy>
-59.697

$$$$
Compound 3086
Actelion Java MolfileCreator 2.0

  0  0  0  0  0  0              0 V3000
M  V30 BEGIN CTAB
M  V30 COUNTS 21 21 0 0 0
M  V30 BEGIN ATOM
M  V30 1 S -3.4787 2.0544 1.58 0
M  V30 2 C -2.1431 1.6542 0.676 0
M  V30 3 N -1.9058 2.2114 -0.5443 0
M  V30 4 N -1.2255 0.7466 1.122 0
M  V30 5 C -0.8257 1.9227 -1.3303 0
M  V30 6 C -0.1014 0.3761 0.4148 0
M  V30 7 O -0.6389 2.4426 -2.424 0
M  V30 8 C 0.1255 0.9327 -0.7842 0
M  V30 9 C 0.785 -0.6471 1.0922 0
M  V30 10 C 1.8238 -1.3849 0.2372 0
M  V30 11 C 1.2012 -2.3506 -0.7616 0
M  V30 12 H -2.5633 2.8864 -0.9058 0
M  V30 13 H -1.4042 0.3335 2.0329 0
M  V30 14 H 0.9822 0.7119 -1.4059 0
M  V30 15 H 0.1487 -1.4031 1.572 0
M  V30 16 H 1.3167 -0.1342 1.9047 0
M  V30 17 H 2.4758 -0.6749 -0.2836 0
M  V30 18 H 2.4721 -1.9615 0.9087 0
M  V30 19 H 1.9866 -2.8881 -1.3024 0
M  V30 20 H 0.5769 -3.0911 -0.2513 0
M  V30 21 H 0.5827 -1.8327 -1.4997 0
M  V30 END ATOM
M  V30 BEGIN BOND
M  V30 1 2 1 2
M  V30 2 1 2 3
M  V30 3 1 2 4
M  V30 4 1 3 5
M  V30 5 1 4 6
M  V30 6 2 5 7
M  V30 7 1 5 8
M  V30 8 1 6 9
M  V30 9 1 9 10
M  V30 10 1 10 11
M  V30 11 2 6 8
M  V30 12 1 3 12
M  V30 13 1 4 13
M  V30 14 1 8 14
M  V30 15 1 9 15
M  V30 16 1 9 16
M  V30 17 1 10 17
M  V30 18 1 10 18
M  V30 19 1 11 19
M  V30 20 1 11 20
M  V30 21 1 11 21
M  V30 END BOND
M  V30 END CTAB
M  END
>  <Column 1>
3971

>  <level_0>
7757

>  <index>
7759

>  <Unnamed: 0>
7759

>  <NO.>
7772

>  <Name>
propylthiouracil

>  <IUPAC_name>
6-propyl-2-sulfanylidene-1h-pyrimidin-4-one

>  <SMILES>
CCCc1cc(=O)[nH]c(=S)[nH]1

>  <CID>
657298

>  <logBB>


>  <BBB+/BBB->
BBB-

>  <Inchi>
InChI=1S/C7H10N2OS/c1-2-3-5-4-6(10)9-7(11)8-5/h4H-2-3H2-1H3-(H2-8-9-10-11)

>  <threshold>


>  <reference>
R14|R15|R27|

>  <group>
D

>  <Class>
-1

>  <ABC>
8

>  <ABCGG>
7.53

>  <nAcid>
0

>  <nBase>
0

>  <nAromAtom>
6

>  <nAromBond>
6

>  <nAtom>
21

>  <nHeavyAtom>
11

>  <nSpiro>
0

>  <nBridgehead>
0

>  <nHetero>
4

>  <nN>
2

>  <nO>
1

>  <nF>
0

>  <BalabanJ>
2.3

>  <BertzCT>
310.53

>  <nBonds>
21

>  <nBondsO>
11

>  <nBondsS>
13

>  <nBondsD>
2

>  <nBondsT>
0

>  <nBondsA>
6

>  <nBondsM>
8

>  <nBondsKS>
18

>  <nBondsKD>
3

>  <RNCG>
0.31

>  <RPCG>
0.23

>  <FCSP3>
0.43

>  <SZ>
15

>  <Sm>
14.17

>  <Sv>
13.13

>  <Sse>
21.17

>  <Sp>
14.53

>  <Si>
23.79

>  <MZ>
0.71

>  <Mm>
0.67

>  <Mv>
0.63

>  <Mse>
1.01

>  <Mp>
0.69

>  <Mi>
1.13

>  <NsCH3>
1

>  <NdCH2>
0

>  <NssCH2>
2

>  <NtCH>
0

>  <NdsCH>
0

>  <NaaCH>
1

>  <NsssCH>
0

>  <NddC>
0

>  <NtsC>
0

>  <NdssC>
0

>  <NaasC>
1

>  <NaaaC>
0

>  <NssssC>
0

>  <NsNH3>
0

>  <NsNH2>
0

>  <NssNH2>
0

>  <NdNH>
0

>  <NssNH>
0

>  <NaaNH>
2

>  <NtN>
0

>  <NsssNH>
0

>  <NdsN>
0

>  <NaaN>
0

>  <NsssN>
0

>  <NddsN>
0

>  <NaasN>
0

>  <NssssN>
0

>  <NsOH>
0

>  <NdO>
1

>  <NssO>
0

>  <NaaO>
0

>  <NsF>
0

>  <NsSiH3>
0

>  <NssSiH2>
0

>  <NsssSiH>
0

>  <NssssSi>
0

>  <NsPH2>
0

>  <NssPH>
0

>  <NsssP>
0

>  <NdsssP>
0

>  <NsssssP>
0

>  <NsSH>
0

>  <NdS>
1

>  <NssS>
0

>  <NaaS>
0

>  <NdssS>
0

>  <NddssS>
0

>  <NsCl>
0

>  <NsBr>
0

>  <NsI>
0

>  <fragCpx>
11.04

>  <fMF>
0.29

>  <nHBAcc>
2

>  <nHBDon>
2

>  <Kier1>
9.09

>  <Kier2>
4.13

>  <Lipinski>
1

>  <GhoseFilter>
1

>  <FilterItLogS>
-2.71

>  <VMcGowan>
127.91

>  <LabuteASA>
69.49

>  <PEOE_VSA1>
4.98

>  <PEOE_VSA2>
9.78

>  <PEOE_VSA3>
0

>  <PEOE_VSA4>
0

>  <PEOE_VSA5>
0

>  <PEOE_VSA6>
13.34

>  <PEOE_VSA7>
18.64

>  <PEOE_VSA8>
11.76

>  <PEOE_VSA9>
0

>  <PEOE_VSA10>
0

>  <PEOE_VSA11>
4.77

>  <PEOE_VSA12>
0

>  <PEOE_VSA13>
5.56

>  <SMR_VSA1>
0

>  <SMR_VSA2>
0

>  <SMR_VSA3>
9.97

>  <SMR_VSA4>
0

>  <SMR_VSA5>
19.77

>  <SMR_VSA6>
0

>  <SMR_VSA7>
26.89

>  <SMR_VSA8>
0

>  <SMR_VSA9>
0

>  <SlogP_VSA1>
5.56

>  <SlogP_VSA2>
9.97

>  <SlogP_VSA3>
6.42

>  <SlogP_VSA4>
4.77

>  <SlogP_VSA5>
19.04

>  <SlogP_VSA6>
10.86

>  <SlogP_VSA7>
0

>  <SlogP_VSA8>
0

>  <SlogP_VSA9>
0

>  <SlogP_VSA10>
0

>  <SlogP_VSA11>
0

>  <EState_VSA1>
0

>  <EState_VSA2>
5.56

>  <EState_VSA3>
4.77

>  <EState_VSA4>
18.54

>  <EState_VSA5>
0

>  <EState_VSA6>
6.07

>  <EState_VSA7>
0

>  <EState_VSA8>
16.89

>  <EState_VSA9>
12.22

>  <EState_VSA10>
4.79

>  <VSA_EState1>
0.4

>  <VSA_EState2>
16.22

>  <VSA_EState3>
0

>  <VSA_EState4>
0.78

>  <VSA_EState5>
0

>  <VSA_EState6>
1.54

>  <VSA_EState7>
1.88

>  <VSA_EState8>
2.05

>  <VSA_EState9>
0

>  <apol>
24.26

>  <bpol>
13.27

>  <nRing>
1

>  <nHRing>
1

>  <naRing>
1

>  <naHRing>
1

>  <nARing 2>
0

>  <nAHRing 2>
0

>  <nFRing>
0

>  <nFHRing>
0

>  <nFaRing>
0

>  <nFaHRing>
0

>  <nFARing 2>
0

>  <nFAHRing 2>
0

>  <nRot>
2

>  <SLogP>
1.38

>  <SMR>
46.24

>  <TopoPSA(NO)>
48.65

>  <TopoPSA>
80.74

>  <JGI1>
0.27

>  <JGI2>
0.05

>  <JGI3>
0.08

>  <JGI4>
0.05

>  <JGI5>
0.04

>  <Diameter>
6

>  <Radius>
3

>  <TMWC10>
86.28

>  <TSRW10>
40.53

>  <MW>
170.05

>  <AMW>
8.1

>  <WPath>
158

>  <WPol>
12

>  <Zagreb1>
50

>  <Zagreb2>
54

>  <mZagreb2>
2.58

>  <yes>


>  <nAR-cont>
0.336376

>  <nHA-cont>
0.720786536

>  <MWHBN>
0.30674089

>  <MWHBN-cont>
0.820142395

>  <TPSA-cont>
0.436384663

>  <pka_cont>
0.97

>  <yes.1>


>  <BBB_SCORE>
3.645145455

>  <MMFF94 Energy>
-77.636

$$$$
Compound 3087
Actelion Java MolfileCreator 2.0

  0  0  0  0  0  0              0 V3000
M  V30 BEGIN CTAB
M  V30 COUNTS 55 58 0 0 0
M  V30 BEGIN ATOM
M  V30 1 S -4.6044 -0.5645 -1.2908 0
M  V30 2 C -2.8903 -0.1168 -1.4884 0
M  V30 3 C -4.3867 -2.2912 -0.8748 0
M  V30 4 C -1.8723 -0.8424 -0.8524 0
M  V30 5 C -2.5533 0.9377 -2.3413 0
M  V30 6 C -3.2022 -2.7578 -0.2723 0
M  V30 7 C -5.4153 -3.1904 -1.181 0
M  V30 8 N -2.1823 -1.8362 0.1181 0
M  V30 9 C -0.5316 -0.5765 -1.1697 0
M  V30 10 C -1.2118 1.2429 -2.5956 0
M  V30 11 C -3.0567 -4.1287 -0.0203 0
M  V30 12 C -5.2614 -4.5516 -0.9158 0
M  V30 13 C -1.7346 -1.8115 1.4466 0
M  V30 14 C -0.1951 0.4812 -2.0199 0
M  V30 15 C -4.0817 -5.0205 -0.3424 0
M  V30 16 O -1.893 -2.7469 2.2386 0
M  V30 17 C -1.0564 -0.5458 1.9578 0
M  V30 18 N 1.1678 0.7141 -2.2556 0
M  V30 19 C 0.4088 -0.8364 2.2844 0
M  V30 20 C 1.7506 1.8777 -2.6722 0
M  V30 21 N 1.1655 0.3714 2.6642 0
M  V30 22 O 1.1985 2.9359 -2.9286 0
M  V30 23 O 3.0935 1.6761 -2.7239 0
M  V30 24 C 2.4598 -0.0117 3.2758 0
M  V30 25 C 1.4379 1.2533 1.5059 0
M  V30 26 C 3.886 2.8123 -3.1018 0
M  V30 27 C 3.3114 1.2188 3.6243 0
M  V30 28 C 2.3179 2.4524 1.8959 0
M  V30 29 C 4.2014 3.658 -1.882 0
M  V30 30 O 3.5613 2.0174 2.4602 0
M  V30 31 H -3.3295 1.5198 -2.8341 0
M  V30 32 H -6.3378 -2.8396 -1.638 0
M  V30 33 H 0.2517 -1.188 -0.7324 0
M  V30 34 H -0.9905 2.063 -3.2744 0
M  V30 35 H -2.1514 -4.512 0.4443 0
M  V30 36 H -6.062 -5.2462 -1.1581 0
M  V30 37 H -3.962 -6.0805 -0.1318 0
M  V30 38 H -1.5845 -0.2467 2.8729 0
M  V30 39 H -1.1813 0.2904 1.2707 0
M  V30 40 H 1.8325 -0.0164 -2.0412 0
M  V30 41 H 0.4178 -1.5405 3.1277 0
M  V30 42 H 0.9024 -1.3583 1.4559 0
M  V30 43 H 2.2831 -0.585 4.1932 0
M  V30 44 H 3.0241 -0.6474 2.5807 0
M  V30 45 H 1.9516 0.683 0.7215 0
M  V30 46 H 0.5049 1.6438 1.0888 0
M  V30 47 H 3.3927 3.4011 -3.8837 0
M  V30 48 H 4.8157 2.4241 -3.5303 0
M  V30 49 H 4.2807 0.8981 4.019 0
M  V30 50 H 2.827 1.8352 4.3913 0
M  V30 51 H 2.5489 3.0456 1.0055 0
M  V30 52 H 1.8042 3.1085 2.609 0
M  V30 53 H 4.8601 4.4899 -2.1466 0
M  V30 54 H 3.287 4.0645 -1.4384 0
M  V30 55 H 4.6878 3.0531 -1.1096 0
M  V30 END ATOM
M  V30 BEGIN BOND
M  V30 1 1 1 2
M  V30 2 1 1 3
M  V30 3 2 2 4
M  V30 4 1 2 5
M  V30 5 2 3 6
M  V30 6 1 3 7
M  V30 7 1 4 8
M  V30 8 1 4 9
M  V30 9 2 5 10
M  V30 10 1 6 11
M  V30 11 2 7 12
M  V30 12 1 8 13
M  V30 13 2 9 14
M  V30 14 2 11 15
M  V30 15 2 13 16
M  V30 16 1 13 17
M  V30 17 1 14 18
M  V30 18 1 17 19
M  V30 19 1 18 20
M  V30 20 1 19 21
M  V30 21 2 20 22
M  V30 22 1 20 23
M  V30 23 1 21 24
M  V30 24 1 21 25
M  V30 25 1 23 26
M  V30 26 1 24 27
M  V30 27 1 25 28
M  V30 28 1 26 29
M  V30 29 1 27 30
M  V30 30 1 6 8
M  V30 31 1 10 14
M  V30 32 1 12 15
M  V30 33 1 28 30
M  V30 34 1 5 31
M  V30 35 1 7 32
M  V30 36 1 9 33
M  V30 37 1 10 34
M  V30 38 1 11 35
M  V30 39 1 12 36
M  V30 40 1 15 37
M  V30 41 1 17 38
M  V30 42 1 17 39
M  V30 43 1 18 40
M  V30 44 1 19 41
M  V30 45 1 19 42
M  V30 46 1 24 43
M  V30 47 1 24 44
M  V30 48 1 25 45
M  V30 49 1 25 46
M  V30 50 1 26 47
M  V30 51 1 26 48
M  V30 52 1 27 49
M  V30 53 1 27 50
M  V30 54 1 28 51
M  V30 55 1 28 52
M  V30 56 1 29 53
M  V30 57 1 29 54
M  V30 58 1 29 55
M  V30 END BOND
M  V30 END CTAB
M  END
>  <Column 1>
3973

>  <level_0>
7760

>  <index>
7762

>  <Unnamed: 0>
7762

>  <NO.>
7775

>  <Name>
moricizine

>  <IUPAC_name>
ethyl n-[10-(3-morpholin-4-ylpropanoyl)phenothiazin-2-yl]carbamate

>  <SMILES>
CCOC(=O)Nc1ccc2c(c1)N(C(=O)CCN1CCOCC1)c1ccccc1S2

>  <CID>
34633

>  <logBB>


>  <BBB+/BBB->
BBB-

>  <Inchi>
InChI=1S/C22H25N3O4S/c1-2-29-22(27)23-16-7-8-20-18(15-16)25(17-5-3-4-6-19(17)30-20)21(26)9-10-24-11-13-28-14-12-24/h3-8-15H-2-9-14H2-1H3-(H-23-27)

>  <threshold>


>  <reference>
R14|R15|R27|

>  <group>
D

>  <Class>
-1

>  <ABC>
23.35

>  <ABCGG>
17.42

>  <nAcid>
0

>  <nBase>
1

>  <nAromAtom>
12

>  <nAromBond>
12

>  <nAtom>
55

>  <nHeavyAtom>
30

>  <nSpiro>
0

>  <nBridgehead>
0

>  <nHetero>
8

>  <nN>
3

>  <nO>
4

>  <nF>
0

>  <BalabanJ>
1.42

>  <BertzCT>
930.35

>  <nBonds>
58

>  <nBondsO>
33

>  <nBondsS>
44

>  <nBondsD>
2

>  <nBondsT>
0

>  <nBondsA>
12

>  <nBondsM>
14

>  <nBondsKS>
50

>  <nBondsKD>
8

>  <RNCG>
0.17

>  <RPCG>
0.16

>  <FCSP3>
0.36

>  <SZ>
37.67

>  <Sm>
35.59

>  <Sv>
35.09

>  <Sse>
55.49

>  <Sp>
37.62

>  <Si>
61.82

>  <MZ>
0.68

>  <Mm>
0.65

>  <Mv>
0.64

>  <Mse>
1.01

>  <Mp>
0.68

>  <Mi>
1.12

>  <NsCH3>
1

>  <NdCH2>
0

>  <NssCH2>
7

>  <NtCH>
0

>  <NdsCH>
0

>  <NaaCH>
7

>  <NsssCH>
0

>  <NddC>
0

>  <NtsC>
0

>  <NdssC>
2

>  <NaasC>
5

>  <NaaaC>
0

>  <NssssC>
0

>  <NsNH3>
0

>  <NsNH2>
0

>  <NssNH2>
0

>  <NdNH>
0

>  <NssNH>
1

>  <NaaNH>
0

>  <NtN>
0

>  <NsssNH>
0

>  <NdsN>
0

>  <NaaN>
0

>  <NsssN>
2

>  <NddsN>
0

>  <NaasN>
0

>  <NssssN>
0

>  <NsOH>
0

>  <NdO>
2

>  <NssO>
2

>  <NaaO>
0

>  <NsF>
0

>  <NsSiH3>
0

>  <NssSiH2>
0

>  <NsssSiH>
0

>  <NssssSi>
0

>  <NsPH2>
0

>  <NssPH>
0

>  <NsssP>
0

>  <NdsssP>
0

>  <NsssssP>
0

>  <NsSH>
0

>  <NdS>
0

>  <NssS>
1

>  <NaaS>
0

>  <NdssS>
0

>  <NddssS>
0

>  <NsCl>
0

>  <NsBr>
0

>  <NsI>
0

>  <fragCpx>
219.08

>  <fMF>
0.42

>  <nHBAcc>
6

>  <nHBDon>
1

>  <Kier1>
23.17

>  <Kier2>
11.23

>  <Lipinski>
1

>  <GhoseFilter>
1

>  <FilterItLogS>
-4.67

>  <VMcGowan>
312.77

>  <LabuteASA>
179.87

>  <PEOE_VSA1>
9.47

>  <PEOE_VSA2>
19.91

>  <PEOE_VSA3>
4.79

>  <PEOE_VSA4>
0

>  <PEOE_VSA5>
0

>  <PEOE_VSA6>
23.89

>  <PEOE_VSA7>
37.26

>  <PEOE_VSA8>
41.53

>  <PEOE_VSA9>
31.2

>  <PEOE_VSA10>
0

>  <PEOE_VSA11>
0

>  <PEOE_VSA12>
5.91

>  <PEOE_VSA13>
0

>  <SMR_VSA1>
19.06

>  <SMR_VSA2>
0

>  <SMR_VSA3>
4.9

>  <SMR_VSA4>
0

>  <SMR_VSA5>
23.14

>  <SMR_VSA6>
49.67

>  <SMR_VSA7>
42.46

>  <SMR_VSA8>
0

>  <SMR_VSA9>
0

>  <SlogP_VSA1>
10.22

>  <SlogP_VSA2>
56.36

>  <SlogP_VSA3>
14.27

>  <SlogP_VSA4>
0

>  <SlogP_VSA5>
13.34

>  <SlogP_VSA6>
52.26

>  <SlogP_VSA7>
0

>  <SlogP_VSA8>
0

>  <SlogP_VSA9>
0

>  <SlogP_VSA10>
21.86

>  <SlogP_VSA11>
0

>  <EState_VSA1>
6.09

>  <EState_VSA2>
5.91

>  <EState_VSA3>
38.47

>  <EState_VSA4>
34.26

>  <EState_VSA5>
0

>  <EState_VSA6>
23.59

>  <EState_VSA7>
42.46

>  <EState_VSA8>
10.22

>  <EState_VSA9>
9.47

>  <EState_VSA10>
9.59

>  <VSA_EState1>
10.37

>  <VSA_EState2>
31.23

>  <VSA_EState3>
2.73

>  <VSA_EState4>
2.24

>  <VSA_EState5>
0.03

>  <VSA_EState6>
13.49

>  <VSA_EState7>
-0.1

>  <VSA_EState8>
5.88

>  <VSA_EState9>
0

>  <apol>
62.82

>  <bpol>
36.74

>  <nRing>
4

>  <nHRing>
2

>  <naRing>
2

>  <naHRing>
0

>  <nARing 2>
2

>  <nAHRing 2>
2

>  <nFRing>
1

>  <nFHRing>
1

>  <nFaRing>
0

>  <nFaHRing>
0

>  <nFARing 2>
1

>  <nFAHRing 2>
1

>  <nRot>
5

>  <SLogP>
4.11

>  <SMR>
116.67

>  <TopoPSA(NO)>
71.11

>  <TopoPSA>
96.41

>  <JGI1>
0.15

>  <JGI2>
0.06

>  <JGI3>
0.04

>  <JGI4>
0.04

>  <JGI5>
0.02

>  <Diameter>
15

>  <Radius>
8

>  <TMWC10>
140.14

>  <TSRW10>
65.71

>  <MW>
427.16

>  <AMW>
7.77

>  <WPath>
2500

>  <WPol>
48

>  <Zagreb1>
156

>  <Zagreb2>
183

>  <mZagreb2>
6.72

>  <yes>


>  <nAR-cont>
1

>  <nHA-cont>
0.74523694

>  <MWHBN>
0.338690294

>  <MWHBN-cont>
0.711881061

>  <TPSA-cont>
0.326998333

>  <pka_cont>
0.97

>  <yes.1>


>  <BBB_SCORE>
3.952055197

>  <MMFF94 Energy>
72.285

$$$$
Compound 3088
Actelion Java MolfileCreator 2.0

  0  0  0  0  0  0              0 V3000
M  V30 BEGIN CTAB
M  V30 COUNTS 22 22 0 0 0
M  V30 BEGIN ATOM
M  V30 1 S -0.1588 -0.6356 -2.0671 0
M  V30 2 C -0.5833 0.5795 -1.0132 0
M  V30 3 N -0.314 0.7064 0.4156 0
M  V30 4 N -1.3178 1.7656 -1.3318 0
M  V30 5 C 0.3603 -0.1154 1.3326 0
M  V30 6 C -0.8812 1.9057 0.832 0
M  V30 7 C -1.4691 2.5248 -0.1945 0
M  V30 8 C -1.8499 2.1731 -2.6177 0
M  V30 9 O 0.4914 0.1588 2.5248 0
M  V30 10 O 0.8596 -1.2519 0.7781 0
M  V30 11 C 1.5546 -2.1151 1.6848 0
M  V30 12 C 2.0406 -3.3228 0.9077 0
M  V30 13 H -0.8183 2.2327 1.8605 0
M  V30 14 H -1.9942 3.4688 -0.1974 0
M  V30 15 H -1.6303 1.4434 -3.3986 0
M  V30 16 H -1.4061 3.1342 -2.8946 0
M  V30 17 H -2.935 2.285 -2.5311 0
M  V30 18 H 0.876 -2.4371 2.4826 0
M  V30 19 H 2.4102 -1.5851 2.1178 0
M  V30 20 H 2.5802 -4.0151 1.5599 0
M  V30 21 H 1.1978 -3.8515 0.4503 0
M  V30 22 H 2.7036 -3.0151 0.0923 0
M  V30 END ATOM
M  V30 BEGIN BOND
M  V30 1 2 1 2
M  V30 2 1 2 3
M  V30 3 1 2 4
M  V30 4 1 3 5
M  V30 5 1 3 6
M  V30 6 1 4 7
M  V30 7 1 4 8
M  V30 8 2 5 9
M  V30 9 1 5 10
M  V30 10 1 10 11
M  V30 11 1 11 12
M  V30 12 2 6 7
M  V30 13 1 6 13
M  V30 14 1 7 14
M  V30 15 1 8 15
M  V30 16 1 8 16
M  V30 17 1 8 17
M  V30 18 1 11 18
M  V30 19 1 11 19
M  V30 20 1 12 20
M  V30 21 1 12 21
M  V30 22 1 12 22
M  V30 END BOND
M  V30 END CTAB
M  END
>  <Column 1>
3974

>  <level_0>
7761

>  <index>
7763

>  <Unnamed: 0>
7763

>  <NO.>
7776

>  <Name>
carbimazole

>  <IUPAC_name>
ethyl 3-methyl-2-sulfanylideneimidazole-1-carboxylate

>  <SMILES>
CCOC(=O)n1ccn(C)c1=S

>  <CID>
31072

>  <logBB>


>  <BBB+/BBB->
BBB-

>  <Inchi>
InChI=1S/C7H10N2O2S/c1-3-11-7(10)9-5-4-8(2)6(9)12/h4-5H-3H2-1-2H3

>  <threshold>


>  <reference>
R14|R23|R27|

>  <group>
D

>  <Class>
-1

>  <ABC>
8.69

>  <ABCGG>
8.87

>  <nAcid>
0

>  <nBase>
0

>  <nAromAtom>
5

>  <nAromBond>
5

>  <nAtom>
22

>  <nHeavyAtom>
12

>  <nSpiro>
0

>  <nBridgehead>
0

>  <nHetero>
5

>  <nN>
2

>  <nO>
2

>  <nF>
0

>  <BalabanJ>
2.41

>  <BertzCT>
339.42

>  <nBonds>
22

>  <nBondsO>
12

>  <nBondsS>
15

>  <nBondsD>
2

>  <nBondsT>
0

>  <nBondsA>
5

>  <nBondsM>
7

>  <nBondsKS>
19

>  <nBondsKD>
3

>  <RNCG>
0.35

>  <RPCG>
0.32

>  <FCSP3>
0.43

>  <SZ>
16.33

>  <Sm>
15.5

>  <Sv>
13.84

>  <Sse>
22.5

>  <Sp>
15.01

>  <Si>
25

>  <MZ>
0.74

>  <Mm>
0.7

>  <Mv>
0.63

>  <Mse>
1.02

>  <Mp>
0.68

>  <Mi>
1.14

>  <NsCH3>
2

>  <NdCH2>
0

>  <NssCH2>
1

>  <NtCH>
0

>  <NdsCH>
0

>  <NaaCH>
2

>  <NsssCH>
0

>  <NddC>
0

>  <NtsC>
0

>  <NdssC>
1

>  <NaasC>
0

>  <NaaaC>
0

>  <NssssC>
0

>  <NsNH3>
0

>  <NsNH2>
0

>  <NssNH2>
0

>  <NdNH>
0

>  <NssNH>
0

>  <NaaNH>
0

>  <NtN>
0

>  <NsssNH>
0

>  <NdsN>
0

>  <NaaN>
0

>  <NsssN>
0

>  <NddsN>
0

>  <NaasN>
2

>  <NssssN>
0

>  <NsOH>
0

>  <NdO>
1

>  <NssO>
1

>  <NaaO>
0

>  <NsF>
0

>  <NsSiH3>
0

>  <NssSiH2>
0

>  <NsssSiH>
0

>  <NssssSi>
0

>  <NsPH2>
0

>  <NssPH>
0

>  <NsssP>
0

>  <NdsssP>
0

>  <NsssssP>
0

>  <NsSH>
0

>  <NdS>
1

>  <NssS>
0

>  <NaaS>
0

>  <NdssS>
0

>  <NddssS>
0

>  <NsCl>
0

>  <NsBr>
0

>  <NsI>
0

>  <fragCpx>
12.05

>  <fMF>
0.23

>  <nHBAcc>
5

>  <nHBDon>
0

>  <Kier1>
10.08

>  <Kier2>
4.3

>  <Lipinski>
1

>  <GhoseFilter>
1

>  <FilterItLogS>
-0.26

>  <VMcGowan>
133.78

>  <LabuteASA>
75.37

>  <PEOE_VSA1>
9.3

>  <PEOE_VSA2>
0

>  <PEOE_VSA3>
9.36

>  <PEOE_VSA4>
0

>  <PEOE_VSA5>
0

>  <PEOE_VSA6>
0

>  <PEOE_VSA7>
19.14

>  <PEOE_VSA8>
19.44

>  <PEOE_VSA9>
6.61

>  <PEOE_VSA10>
0

>  <PEOE_VSA11>
4.77

>  <PEOE_VSA12>
0

>  <PEOE_VSA13>
0

>  <SMR_VSA1>
9.53

>  <SMR_VSA2>
0

>  <SMR_VSA3>
9.13

>  <SMR_VSA4>
7.05

>  <SMR_VSA5>
6.92

>  <SMR_VSA6>
6.61

>  <SMR_VSA7>
17.16

>  <SMR_VSA8>
0

>  <SMR_VSA9>
0

>  <SlogP_VSA1>
0

>  <SlogP_VSA2>
21.83

>  <SlogP_VSA3>
11.78

>  <SlogP_VSA4>
4.77

>  <SlogP_VSA5>
6.92

>  <SlogP_VSA6>
12.39

>  <SlogP_VSA7>
0

>  <SlogP_VSA8>
0

>  <SlogP_VSA9>
0

>  <SlogP_VSA10>
4.79

>  <SlogP_VSA11>
0

>  <EState_VSA1>
6.09

>  <EState_VSA2>
0

>  <EState_VSA3>
11.38

>  <EState_VSA4>
0

>  <EState_VSA5>
4.57

>  <EState_VSA6>
30.93

>  <EState_VSA7>
0

>  <EState_VSA8>
0

>  <EState_VSA9>
16.95

>  <EState_VSA10>
4.79

>  <VSA_EState1>
8.17

>  <VSA_EState2>
11.14

>  <VSA_EState3>
0

>  <VSA_EState4>
0

>  <VSA_EState5>
0

>  <VSA_EState6>
0

>  <VSA_EState7>
2.86

>  <VSA_EState8>
2.11

>  <VSA_EState9>
1.78

>  <apol>
25.06

>  <bpol>
17.29

>  <nRing>
1

>  <nHRing>
1

>  <naRing>
1

>  <naHRing>
1

>  <nARing 2>
0

>  <nAHRing 2>
0

>  <nFRing>
0

>  <nFHRing>
0

>  <nFaRing>
0

>  <nFaHRing>
0

>  <nFARing 2>
0

>  <nFAHRing 2>
0

>  <nRot>
1

>  <SLogP>
1.56

>  <SMR>
46.66

>  <TopoPSA(NO)>
36.16

>  <TopoPSA>
68.25

>  <JGI1>
0.21

>  <JGI2>
0.13

>  <JGI3>
0.08

>  <JGI4>
0.04

>  <JGI5>
0.03

>  <Diameter>
7

>  <Radius>
4

>  <TMWC10>
90.73

>  <TSRW10>
56.18

>  <MW>
186.05

>  <AMW>
8.46

>  <WPath>
199

>  <WPol>
15

>  <Zagreb1>
56

>  <Zagreb2>
64

>  <mZagreb2>
2.83

>  <yes>


>  <nAR-cont>
0.336376

>  <nHA-cont>
0.785745021

>  <MWHBN>
0.366568521

>  <MWHBN-cont>
0.607163626

>  <TPSA-cont>
0.523572619

>  <pka_cont>
0.97

>  <yes.1>


>  <BBB_SCORE>
3.565011698

>  <MMFF94 Energy>
-6.2077

$$$$
Compound 3089
Actelion Java MolfileCreator 2.0

  0  0  0  0  0  0              0 V3000
M  V30 BEGIN CTAB
M  V30 COUNTS 29 31 0 0 0
M  V30 BEGIN ATOM
M  V30 1 O 0.0808 -2.9929 1.4551 0
M  V30 2 C 0.4113 -1.9238 0.9635 0
M  V30 3 C 1.8415 -1.5023 0.9928 0
M  V30 4 C -0.5415 -1.0118 0.3325 0
M  V30 5 N 2.249 -0.395 0.4423 0
M  V30 6 C 2.8813 -2.3554 1.6794 0
M  V30 7 C -0.0219 0.1717 -0.2385 0
M  V30 8 C -1.9061 -1.3399 0.3173 0
M  V30 9 N 1.3575 0.4276 -0.1922 0
M  V30 10 O 3.1818 -2.2589 2.8518 0
M  V30 11 O 3.4558 -3.2225 0.8378 0
M  V30 12 C -0.9443 1.045 -0.8432 0
M  V30 13 C -2.7552 -0.4474 -0.287 0
M  V30 14 C 1.9496 1.6506 -0.7523 0
M  V30 15 C -2.2873 0.7123 -0.8507 0
M  V30 16 O -4.1017 -0.5779 -0.4053 0
M  V30 17 C 1.8689 2.7988 0.2422 0
M  V30 18 O -3.2835 1.4611 -1.3964 0
M  V30 19 C -4.4334 0.6367 -1.1098 0
M  V30 20 H -2.2788 -2.2561 0.7627 0
M  V30 21 H 4.1039 -3.7044 1.3917 0
M  V30 22 H -0.6469 1.9787 -1.3049 0
M  V30 23 H 1.4889 1.9229 -1.708 0
M  V30 24 H 3.0069 1.467 -0.9841 0
M  V30 25 H 2.3802 2.5443 1.1766 0
M  V30 26 H 0.8325 3.0491 0.4881 0
M  V30 27 H 2.3442 3.6929 -0.1728 0
M  V30 28 H -4.9202 0.3725 -2.0556 0
M  V30 29 H -5.137 1.2155 -0.5004 0
M  V30 END ATOM
M  V30 BEGIN BOND
M  V30 1 2 1 2
M  V30 2 1 2 3
M  V30 3 1 2 4
M  V30 4 2 3 5
M  V30 5 1 3 6
M  V30 6 2 4 7
M  V30 7 1 4 8
M  V30 8 1 5 9
M  V30 9 2 6 10
M  V30 10 1 6 11
M  V30 11 1 7 12
M  V30 12 2 8 13
M  V30 13 1 9 14
M  V30 14 2 12 15
M  V30 15 1 13 16
M  V30 16 1 14 17
M  V30 17 1 15 18
M  V30 18 1 16 19
M  V30 19 1 7 9
M  V30 20 1 13 15
M  V30 21 1 18 19
M  V30 22 1 8 20
M  V30 23 1 11 21
M  V30 24 1 12 22
M  V30 25 1 14 23
M  V30 26 1 14 24
M  V30 27 1 17 25
M  V30 28 1 17 26
M  V30 29 1 17 27
M  V30 30 1 19 28
M  V30 31 1 19 29
M  V30 END BOND
M  V30 END CTAB
M  END
>  <Column 1>
3975

>  <level_0>
7762

>  <index>
7764

>  <Unnamed: 0>
7764

>  <NO.>
7777

>  <Name>
cinoxacin

>  <IUPAC_name>
1-ethyl-4-oxo-[1-3]dioxolo[4-5-g]cinnoline-3-carboxylic acid

>  <SMILES>
CCn1nc(C(=O)O)c(=O)c2cc3c(cc21)OCO3

>  <CID>
2762

>  <logBB>


>  <BBB+/BBB->
BBB-

>  <Inchi>
InChI=1S/C12H10N2O5/c1-2-14-7-4-9-8(18-5-19-9)3-6(7)11(15)10(13-14)12(16)17/h3-4H-2-5H2-1H3-(H-16-17)

>  <threshold>


>  <reference>
R14|R23|R27|

>  <group>
D

>  <Class>
-1

>  <ABC>
14.93

>  <ABCGG>
13.01

>  <nAcid>
1

>  <nBase>
0

>  <nAromAtom>
10

>  <nAromBond>
11

>  <nAtom>
29

>  <nHeavyAtom>
19

>  <nSpiro>
0

>  <nBridgehead>
0

>  <nHetero>
7

>  <nN>
2

>  <nO>
5

>  <nF>
0

>  <BalabanJ>
1.8

>  <BertzCT>
749.85

>  <nBonds>
31

>  <nBondsO>
21

>  <nBondsS>
18

>  <nBondsD>
2

>  <nBondsT>
0

>  <nBondsA>
11

>  <nBondsM>
13

>  <nBondsKS>
25

>  <nBondsKD>
6

>  <RNCG>
0.2

>  <RPCG>
0.15

>  <FCSP3>
0.25

>  <SZ>
22.67

>  <Sm>
21.83

>  <Sv>
19.8

>  <Sse>
30.42

>  <Sp>
19.71

>  <Si>
32.7

>  <MZ>
0.78

>  <Mm>
0.75

>  <Mv>
0.68

>  <Mse>
1.05

>  <Mp>
0.68

>  <Mi>
1.13

>  <NsCH3>
1

>  <NdCH2>
0

>  <NssCH2>
2

>  <NtCH>
0

>  <NdsCH>
0

>  <NaaCH>
2

>  <NsssCH>
0

>  <NddC>
0

>  <NtsC>
0

>  <NdssC>
1

>  <NaasC>
3

>  <NaaaC>
2

>  <NssssC>
0

>  <NsNH3>
0

>  <NsNH2>
0

>  <NssNH2>
0

>  <NdNH>
0

>  <NssNH>
0

>  <NaaNH>
0

>  <NtN>
0

>  <NsssNH>
0

>  <NdsN>
0

>  <NaaN>
1

>  <NsssN>
0

>  <NddsN>
0

>  <NaasN>
1

>  <NssssN>
0

>  <NsOH>
1

>  <NdO>
2

>  <NssO>
2

>  <NaaO>
0

>  <NsF>
0

>  <NsSiH3>
0

>  <NssSiH2>
0

>  <NsssSiH>
0

>  <NssssSi>
0

>  <NsPH2>
0

>  <NssPH>
0

>  <NsssP>
0

>  <NdsssP>
0

>  <NsssssP>
0

>  <NsSH>
0

>  <NdS>
0

>  <NssS>
0

>  <NaaS>
0

>  <NdssS>
0

>  <NddssS>
0

>  <NsCl>
0

>  <NsBr>
0

>  <NsI>
0

>  <fragCpx>
99.07

>  <fMF>
0.45

>  <nHBAcc>
6

>  <nHBDon>
1

>  <Kier1>
13.96

>  <Kier2>
5.41

>  <Lipinski>
1

>  <GhoseFilter>
1

>  <FilterItLogS>
-2.03

>  <VMcGowan>
170.87

>  <LabuteASA>
106.53

>  <PEOE_VSA1>
14.58

>  <PEOE_VSA2>
9.48

>  <PEOE_VSA3>
4.79

>  <PEOE_VSA4>
5.1

>  <PEOE_VSA5>
0

>  <PEOE_VSA6>
0

>  <PEOE_VSA7>
12.99

>  <PEOE_VSA8>
12.61

>  <PEOE_VSA9>
10.9

>  <PEOE_VSA10>
0

>  <PEOE_VSA11>
11.5

>  <PEOE_VSA12>
17.92

>  <PEOE_VSA13>
0

>  <SMR_VSA1>
19.37

>  <SMR_VSA2>
0

>  <SMR_VSA3>
9.78

>  <SMR_VSA4>
0

>  <SMR_VSA5>
13.47

>  <SMR_VSA6>
6.79

>  <SMR_VSA7>
28.05

>  <SMR_VSA8>
0

>  <SMR_VSA9>
11.5

>  <SlogP_VSA1>
14.9

>  <SlogP_VSA2>
27.65

>  <SlogP_VSA3>
6.54

>  <SlogP_VSA4>
0

>  <SlogP_VSA5>
17.41

>  <SlogP_VSA6>
16.93

>  <SlogP_VSA7>
0

>  <SlogP_VSA8>
10.9

>  <SlogP_VSA9>
0

>  <SlogP_VSA10>
0

>  <SlogP_VSA11>
11.5

>  <EState_VSA1>
17.09

>  <EState_VSA2>
12.18

>  <EState_VSA3>
23.56

>  <EState_VSA4>
0

>  <EState_VSA5>
10.75

>  <EState_VSA6>
6.07

>  <EState_VSA7>
6.92

>  <EState_VSA8>
5.1

>  <EState_VSA9>
14.58

>  <EState_VSA10>
9.59

>  <VSA_EState1>
11.9

>  <VSA_EState2>
23.12

>  <VSA_EState3>
13.12

>  <VSA_EState4>
-0.58

>  <VSA_EState5>
-0.37

>  <VSA_EState6>
3.14

>  <VSA_EState7>
0

>  <VSA_EState8>
2.34

>  <VSA_EState9>
0

>  <apol>
32.92

>  <bpol>
16.95

>  <nRing>
3

>  <nHRing>
2

>  <naRing>
2

>  <naHRing>
1

>  <nARing 2>
1

>  <nAHRing 2>
1

>  <nFRing>
1

>  <nFHRing>
1

>  <nFaRing>
0

>  <nFaHRing>
0

>  <nFARing 2>
1

>  <nFAHRing 2>
1

>  <nRot>
2

>  <SLogP>
0.84

>  <SMR>
64.76

>  <TopoPSA(NO)>
90.65

>  <TopoPSA>
90.65

>  <JGI1>
0.19

>  <JGI2>
0.09

>  <JGI3>
0.05

>  <JGI4>
0.06

>  <JGI5>
0.03

>  <Diameter>
8

>  <Radius>
4

>  <TMWC10>
114.6

>  <TSRW10>
66.57

>  <MW>
262.06

>  <AMW>
9.04

>  <WPath>
629

>  <WPol>
33

>  <Zagreb1>
104

>  <Zagreb2>
127

>  <mZagreb2>
4.17

>  <yes>


>  <nAR-cont>
0.816016

>  <nHA-cont>
0.998649058

>  <MWHBN>
0.432411934

>  <MWHBN-cont>
0.350602219

>  <TPSA-cont>
0.36720671

>  <pka_cont>
0.97

>  <yes.1>


>  <BBB_SCORE>
3.559981805

>  <MMFF94 Energy>
83.142

$$$$
Compound 3090
Actelion Java MolfileCreator 2.0

  0  0  0  0  0  0              0 V3000
M  V30 BEGIN CTAB
M  V30 COUNTS 23 23 0 0 0
M  V30 BEGIN ATOM
M  V30 1 Cl -2.451 -2.451 2.6964 0
M  V30 2 C -0.7883 -2.6715 2.1085 0
M  V30 3 Cl -0.4494 -4.3929 1.8164 0
M  V30 4 C -0.6145 -1.8616 0.8175 0
M  V30 5 O -0.9399 -2.3296 -0.2793 0
M  V30 6 N -0.0941 -0.5611 0.9478 0
M  V30 7 C 0.0819 0.2391 -0.2134 0
M  V30 8 C 0.2691 0.0546 2.2214 0
M  V30 9 C 0.926 -0.1903 -1.244 0
M  V30 10 C -0.5759 1.4698 -0.3238 0
M  V30 11 C 1.1142 0.6049 -2.3771 0
M  V30 12 C -0.3843 2.2657 -1.4545 0
M  V30 13 C 0.4573 1.828 -2.4704 0
M  V30 14 O 0.6116 2.6354 -3.5579 0
M  V30 15 H -0.1049 -2.3565 2.8962 0
M  V30 16 H -0.6013 0.0551 2.8833 0
M  V30 17 H 1.0694 -0.5329 2.6811 0
M  V30 18 H 0.6284 1.0805 2.0954 0
M  V30 19 H 1.4323 -1.1497 -1.177 0
M  V30 20 H -1.2509 1.8119 0.4554 0
M  V30 21 H 1.7668 0.2522 -3.1691 0
M  V30 22 H -0.8969 3.219 -1.5472 0
M  V30 23 H 1.1677 2.1753 -4.208 0
M  V30 END ATOM
M  V30 BEGIN BOND
M  V30 1 1 1 2
M  V30 2 1 2 3
M  V30 3 1 2 4
M  V30 4 2 4 5
M  V30 5 1 4 6
M  V30 6 1 6 7
M  V30 7 1 6 8
M  V30 8 2 7 9
M  V30 9 1 7 10
M  V30 10 1 9 11
M  V30 11 2 10 12
M  V30 12 2 11 13
M  V30 13 1 13 14
M  V30 14 1 12 13
M  V30 15 1 2 15
M  V30 16 1 8 16
M  V30 17 1 8 17
M  V30 18 1 8 18
M  V30 19 1 9 19
M  V30 20 1 10 20
M  V30 21 1 11 21
M  V30 22 1 12 22
M  V30 23 1 14 23
M  V30 END BOND
M  V30 END CTAB
M  END
>  <Column 1>
3976

>  <level_0>
7763

>  <index>
7765

>  <Unnamed: 0>
7765

>  <NO.>
7778

>  <Name>
diloxanide

>  <IUPAC_name>
2-2-dichloro-n-(4-hydroxyphenyl)-n-methylacetamide

>  <SMILES>
CN(C(=O)C(Cl)Cl)c1ccc(O)cc1

>  <CID>
11367

>  <logBB>


>  <BBB+/BBB->
BBB-

>  <Inchi>
InChI=1S/C9H9Cl2NO2/c1-12(9(14)8(10)11)6-2-4-7(13)5-3-6/h2-5-8-13H-1H3

>  <threshold>


>  <reference>
R14|R23|R27|

>  <group>
D

>  <Class>
-1

>  <ABC>
10.33

>  <ABCGG>
9.7

>  <nAcid>
0

>  <nBase>
0

>  <nAromAtom>
6

>  <nAromBond>
6

>  <nAtom>
23

>  <nHeavyAtom>
14

>  <nSpiro>
0

>  <nBridgehead>
0

>  <nHetero>
5

>  <nN>
1

>  <nO>
2

>  <nF>
0

>  <BalabanJ>
2.41

>  <BertzCT>
324.09

>  <nBonds>
23

>  <nBondsO>
14

>  <nBondsS>
16

>  <nBondsD>
1

>  <nBondsT>
0

>  <nBondsA>
6

>  <nBondsM>
7

>  <nBondsKS>
19

>  <nBondsKD>
4

>  <RNCG>
0.37

>  <RPCG>
0.21

>  <FCSP3>
0.22

>  <SZ>
20

>  <Sm>
19.49

>  <Sv>
15.81

>  <Sse>
23.85

>  <Sp>
16.82

>  <Si>
25.88

>  <MZ>
0.87

>  <Mm>
0.85

>  <Mv>
0.69

>  <Mse>
1.04

>  <Mp>
0.73

>  <Mi>
1.13

>  <NsCH3>
1

>  <NdCH2>
0

>  <NssCH2>
0

>  <NtCH>
0

>  <NdsCH>
0

>  <NaaCH>
4

>  <NsssCH>
1

>  <NddC>
0

>  <NtsC>
0

>  <NdssC>
1

>  <NaasC>
2

>  <NaaaC>
0

>  <NssssC>
0

>  <NsNH3>
0

>  <NsNH2>
0

>  <NssNH2>
0

>  <NdNH>
0

>  <NssNH>
0

>  <NaaNH>
0

>  <NtN>
0

>  <NsssNH>
0

>  <NdsN>
0

>  <NaaN>
0

>  <NsssN>
1

>  <NddsN>
0

>  <NaasN>
0

>  <NssssN>
0

>  <NsOH>
1

>  <NdO>
1

>  <NssO>
0

>  <NaaO>
0

>  <NsF>
0

>  <NsSiH3>
0

>  <NssSiH2>
0

>  <NsssSiH>
0

>  <NssssSi>
0

>  <NsPH2>
0

>  <NssPH>
0

>  <NsssP>
0

>  <NdsssP>
0

>  <NsssssP>
0

>  <NsSH>
0

>  <NdS>
0

>  <NssS>
0

>  <NaaS>
0

>  <NdssS>
0

>  <NddssS>
0

>  <NsCl>
2

>  <NsBr>
0

>  <NsI>
0

>  <fragCpx>
14.05

>  <fMF>
0.26

>  <nHBAcc>
2

>  <nHBDon>
1

>  <Kier1>
12.07

>  <Kier2>
5.19

>  <Lipinski>
1

>  <GhoseFilter>
1

>  <FilterItLogS>
-2.18

>  <VMcGowan>
155.81

>  <LabuteASA>
91.85

>  <PEOE_VSA1>
10.01

>  <PEOE_VSA2>
4.79

>  <PEOE_VSA3>
0

>  <PEOE_VSA4>
0

>  <PEOE_VSA5>
0

>  <PEOE_VSA6>
23.2

>  <PEOE_VSA7>
24.27

>  <PEOE_VSA8>
12.74

>  <PEOE_VSA9>
0

>  <PEOE_VSA10>
5.75

>  <PEOE_VSA11>
4.84

>  <PEOE_VSA12>
0

>  <PEOE_VSA13>
5.91

>  <SMR_VSA1>
9.9

>  <SMR_VSA2>
0

>  <SMR_VSA3>
0

>  <SMR_VSA4>
0

>  <SMR_VSA5>
4.84

>  <SMR_VSA6>
11.95

>  <SMR_VSA7>
24.27

>  <SMR_VSA8>
0

>  <SMR_VSA9>
5.75

>  <SlogP_VSA1>
4.9

>  <SlogP_VSA2>
22.9

>  <SlogP_VSA3>
4.79

>  <SlogP_VSA4>
0

>  <SlogP_VSA5>
0

>  <SlogP_VSA6>
24.27

>  <SlogP_VSA7>
0

>  <SlogP_VSA8>
0

>  <SlogP_VSA9>
0

>  <SlogP_VSA10>
5.69

>  <SlogP_VSA11>
5.75

>  <EState_VSA1>
10.74

>  <EState_VSA2>
5.75

>  <EState_VSA3>
5.69

>  <EState_VSA4>
0

>  <EState_VSA5>
17.03

>  <EState_VSA6>
19.18

>  <EState_VSA7>
0

>  <EState_VSA8>
0

>  <EState_VSA9>
28.31

>  <EState_VSA10>
4.79

>  <VSA_EState1>
0

>  <VSA_EState2>
11.58

>  <VSA_EState3>
9.03

>  <VSA_EState4>
0.62

>  <VSA_EState5>
-0.26

>  <VSA_EState6>
6.17

>  <VSA_EState7>
0

>  <VSA_EState8>
0

>  <VSA_EState9>
1.56

>  <apol>
28.1

>  <bpol>
12.63

>  <nRing>
1

>  <nHRing>
0

>  <naRing>
1

>  <naHRing>
0

>  <nARing 2>
0

>  <nAHRing 2>
0

>  <nFRing>
0

>  <nFHRing>
0

>  <nFaRing>
0

>  <nFaHRing>
0

>  <nFARing 2>
0

>  <nFAHRing 2>
0

>  <nRot>
2

>  <SLogP>
2.16

>  <SMR>
57.01

>  <TopoPSA(NO)>
40.54

>  <TopoPSA>
40.54

>  <JGI1>
0.25

>  <JGI2>
0.12

>  <JGI3>
0.05

>  <JGI4>
0.05

>  <JGI5>
0.04

>  <Diameter>
8

>  <Radius>
4

>  <TMWC10>
95.53

>  <TSRW10>
45.13

>  <MW>
233

>  <AMW>
10.13

>  <WPath>
312

>  <WPol>
19

>  <Zagreb1>
66

>  <Zagreb2>
74

>  <mZagreb2>
3.17

>  <yes>


>  <nAR-cont>
0.336376

>  <nHA-cont>
0.887625254

>  <MWHBN>
0.196536535

>  <MWHBN-cont>
0.998736044

>  <TPSA-cont>
0.717005626

>  <pka_cont>
0.97

>  <yes.1>


>  <BBB_SCORE>
4.641116572

>  <MMFF94 Energy>
53.76

$$$$
Compound 3091
Actelion Java MolfileCreator 2.0

  0  0  0  0  0  0              0 V3000
M  V30 BEGIN CTAB
M  V30 COUNTS 56 57 0 0 0
M  V30 BEGIN ATOM
M  V30 1 S -1.2097 2.6628 -7.4371 0
M  V30 2 O -1.7465 2.7548 -8.7788 0
M  V30 3 O -2.0785 2.6297 -6.2829 0
M  V30 4 N -0.199 1.3034 -7.4557 0
M  V30 5 C -0.0258 3.9763 -7.2422 0
M  V30 6 C -0.0517 0.5897 -6.2311 0
M  V30 7 C -0.9438 -0.4306 -5.9051 0
M  V30 8 C 0.9458 0.9596 -5.3344 0
M  V30 9 C -0.8231 -1.1029 -4.6837 0
M  V30 10 C 1.0654 0.2843 -4.1179 0
M  V30 11 C 0.1843 -0.7487 -3.7854 0
M  V30 12 O 0.4146 -1.3217 -2.5661 0
M  V30 13 C -0.4827 -2.355 -2.1495 0
M  V30 14 C -0.0771 -2.8492 -0.7463 0
M  V30 15 N -0.6943 -2.1136 0.3869 0
M  V30 16 C -0.3213 -2.7766 1.6585 0
M  V30 17 C -0.2921 -0.704 0.3794 0
M  V30 18 C -1.1298 -2.3326 2.8977 0
M  V30 19 C -0.5622 -1.1737 3.6867 0
M  V30 20 C -1.3565 -0.049 3.9545 0
M  V30 21 C 0.7363 -1.2224 4.2132 0
M  V30 22 C -0.8534 1.0173 4.7032 0
M  V30 23 C 1.2404 -0.1568 4.9633 0
M  V30 24 C 0.4501 0.9666 5.1918 0
M  V30 25 N 0.9508 2.0364 5.9908 0
M  V30 26 S 0.7694 1.894 7.6692 0
M  V30 27 O 0.5681 3.2463 8.1466 0
M  V30 28 O -0.159 0.8357 7.9942 0
M  V30 29 C 2.4078 1.397 8.151 0
M  V30 30 H -0.4493 0.7265 -8.2614 0
M  V30 31 H 0.4463 3.8922 -6.2626 0
M  V30 32 H 0.7122 3.9117 -8.0436 0
M  V30 33 H -0.5637 4.9246 -7.3108 0
M  V30 34 H -1.7482 -0.7006 -6.5836 0
M  V30 35 H 1.642 1.7565 -5.5744 0
M  V30 36 H -1.5377 -1.8887 -4.463 0
M  V30 37 H 1.8494 0.5671 -3.4197 0
M  V30 38 H -0.3962 -3.1986 -2.8454 0
M  V30 39 H -1.5202 -1.9989 -2.1392 0
M  V30 40 H -0.414 -3.8916 -0.6808 0
M  V30 41 H 1.0163 -2.8456 -0.6513 0
M  V30 42 H 0.7593 -2.7048 1.8311 0
M  V30 43 H -0.5422 -3.8464 1.5424 0
M  V30 44 H -0.7912 -0.1457 1.1741 0
M  V30 45 H 0.7908 -0.5819 0.4911 0
M  V30 46 H -0.6067 -0.2057 -0.5423 0
M  V30 47 H -2.1663 -2.1256 2.6012 0
M  V30 48 H -1.1911 -3.1818 3.5921 0
M  V30 49 H -2.3781 0.0024 3.5827 0
M  V30 50 H 1.3644 -2.0955 4.0533 0
M  V30 51 H -1.4929 1.8704 4.9103 0
M  V30 52 H 2.2508 -0.2114 5.355 0
M  V30 53 H 0.6275 2.9646 5.7101 0
M  V30 54 H 2.6178 0.4074 7.7437 0
M  V30 55 H 3.1251 2.1345 7.7863 0
M  V30 56 H 2.439 1.3598 9.2423 0
M  V30 END ATOM
M  V30 BEGIN BOND
M  V30 1 2 1 2
M  V30 2 2 1 3
M  V30 3 1 1 4
M  V30 4 1 1 5
M  V30 5 1 4 6
M  V30 6 2 6 7
M  V30 7 1 6 8
M  V30 8 1 7 9
M  V30 9 2 8 10
M  V30 10 2 9 11
M  V30 11 1 11 12
M  V30 12 1 12 13
M  V30 13 1 13 14
M  V30 14 1 14 15
M  V30 15 1 15 16
M  V30 16 1 15 17
M  V30 17 1 16 18
M  V30 18 1 18 19
M  V30 19 2 19 20
M  V30 20 1 19 21
M  V30 21 1 20 22
M  V30 22 2 21 23
M  V30 23 2 22 24
M  V30 24 1 24 25
M  V30 25 1 25 26
M  V30 26 2 26 27
M  V30 27 2 26 28
M  V30 28 1 26 29
M  V30 29 1 10 11
M  V30 30 1 23 24
M  V30 31 1 4 30
M  V30 32 1 5 31
M  V30 33 1 5 32
M  V30 34 1 5 33
M  V30 35 1 7 34
M  V30 36 1 8 35
M  V30 37 1 9 36
M  V30 38 1 10 37
M  V30 39 1 13 38
M  V30 40 1 13 39
M  V30 41 1 14 40
M  V30 42 1 14 41
M  V30 43 1 16 42
M  V30 44 1 16 43
M  V30 45 1 17 44
M  V30 46 1 17 45
M  V30 47 1 17 46
M  V30 48 1 18 47
M  V30 49 1 18 48
M  V30 50 1 20 49
M  V30 51 1 21 50
M  V30 52 1 22 51
M  V30 53 1 23 52
M  V30 54 1 25 53
M  V30 55 1 29 54
M  V30 56 1 29 55
M  V30 57 1 29 56
M  V30 END BOND
M  V30 END CTAB
M  END
>  <Column 1>
3977

>  <level_0>
7764

>  <index>
7766

>  <Unnamed: 0>
7766

>  <NO.>
7779

>  <Name>
dofetilide

>  <IUPAC_name>
n-[4-[2-[2-[4-(methanesulfonamido)phenoxy]ethyl-methylamino]ethyl]phenyl]methanesulfonamide

>  <SMILES>
CN(CCOc1ccc(NS(C)(=O)=O)cc1)CCc1ccc(NS(C)(=O)=O)cc1

>  <CID>
71329

>  <logBB>


>  <BBB+/BBB->
BBB-

>  <Inchi>
InChI=1S/C19H27N3O5S2/c1-22(13-12-16-4-6-17(7-5-16)20-28(2-23)24)14-15-27-19-10-8-18(9-11-19)21-29(3-25)26/h4-11-20-21H-12-15H2-1-3H3

>  <threshold>


>  <reference>
R14|R15|R27|

>  <group>
D

>  <Class>
-1

>  <ABC>
22.28

>  <ABCGG>
16.22

>  <nAcid>
0

>  <nBase>
1

>  <nAromAtom>
12

>  <nAromBond>
12

>  <nAtom>
56

>  <nHeavyAtom>
29

>  <nSpiro>
0

>  <nBridgehead>
0

>  <nHetero>
10

>  <nN>
3

>  <nO>
5

>  <nF>
0

>  <BalabanJ>
1.5

>  <BertzCT>
989.15

>  <nBonds>
57

>  <nBondsO>
30

>  <nBondsS>
41

>  <nBondsD>
4

>  <nBondsT>
0

>  <nBondsA>
12

>  <nBondsM>
16

>  <nBondsKS>
47

>  <nBondsKD>
10

>  <RNCG>
0.19

>  <RPCG>
0.09

>  <FCSP3>
0.37

>  <SZ>
39

>  <Sm>
36.76

>  <Sv>
34.54

>  <Sse>
56.78

>  <Sp>
37.63

>  <Si>
63.37

>  <MZ>
0.7

>  <Mm>
0.66

>  <Mv>
0.62

>  <Mse>
1.01

>  <Mp>
0.67

>  <Mi>
1.13

>  <NsCH3>
3

>  <NdCH2>
0

>  <NssCH2>
4

>  <NtCH>
0

>  <NdsCH>
0

>  <NaaCH>
8

>  <NsssCH>
0

>  <NddC>
0

>  <NtsC>
0

>  <NdssC>
0

>  <NaasC>
4

>  <NaaaC>
0

>  <NssssC>
0

>  <NsNH3>
0

>  <NsNH2>
0

>  <NssNH2>
0

>  <NdNH>
0

>  <NssNH>
2

>  <NaaNH>
0

>  <NtN>
0

>  <NsssNH>
0

>  <NdsN>
0

>  <NaaN>
0

>  <NsssN>
1

>  <NddsN>
0

>  <NaasN>
0

>  <NssssN>
0

>  <NsOH>
0

>  <NdO>
4

>  <NssO>
1

>  <NaaO>
0

>  <NsF>
0

>  <NsSiH3>
0

>  <NssSiH2>
0

>  <NsssSiH>
0

>  <NssssSi>
0

>  <NsPH2>
0

>  <NssPH>
0

>  <NsssP>
0

>  <NdsssP>
0

>  <NsssssP>
0

>  <NsSH>
0

>  <NdS>
0

>  <NssS>
0

>  <NaaS>
0

>  <NdssS>
0

>  <NddssS>
2

>  <NsCl>
0

>  <NsBr>
0

>  <NsI>
0

>  <fragCpx>
88.1

>  <fMF>
0.32

>  <nHBAcc>
6

>  <nHBDon>
2

>  <Kier1>
25.26

>  <Kier2>
11.57

>  <Lipinski>
1

>  <GhoseFilter>
1

>  <FilterItLogS>
-5.4

>  <VMcGowan>
323.04

>  <LabuteASA>
172.54

>  <PEOE_VSA1>
9.64

>  <PEOE_VSA2>
9.44

>  <PEOE_VSA3>
16.84

>  <PEOE_VSA4>
0

>  <PEOE_VSA5>
0

>  <PEOE_VSA6>
12.13

>  <PEOE_VSA7>
55.43

>  <PEOE_VSA8>
24.46

>  <PEOE_VSA9>
12.51

>  <PEOE_VSA10>
12.36

>  <PEOE_VSA11>
0

>  <PEOE_VSA12>
20.05

>  <PEOE_VSA13>
0

>  <SMR_VSA1>
21.57

>  <SMR_VSA2>
0

>  <SMR_VSA3>
4.9

>  <SMR_VSA4>
0

>  <SMR_VSA5>
6.42

>  <SMR_VSA6>
48.7

>  <SMR_VSA7>
54.09

>  <SMR_VSA8>
0

>  <SMR_VSA9>
5.75

>  <SlogP_VSA1>
14.18

>  <SlogP_VSA2>
60.99

>  <SlogP_VSA3>
26.47

>  <SlogP_VSA4>
0

>  <SlogP_VSA5>
5.56

>  <SlogP_VSA6>
48.53

>  <SlogP_VSA7>
0

>  <SlogP_VSA8>
0

>  <SlogP_VSA9>
0

>  <SlogP_VSA10>
11.37

>  <SlogP_VSA11>
5.75

>  <EState_VSA1>
20.05

>  <EState_VSA2>
0

>  <EState_VSA3>
23.73

>  <EState_VSA4>
37.59

>  <EState_VSA5>
0

>  <EState_VSA6>
36.4

>  <EState_VSA7>
19.18

>  <EState_VSA8>
14.34

>  <EState_VSA9>
4.74

>  <EState_VSA10>
16.84

>  <VSA_EState1>
55.36

>  <VSA_EState2>
2.14

>  <VSA_EState3>
0

>  <VSA_EState4>
2.16

>  <VSA_EState5>
0.67

>  <VSA_EState6>
14.07

>  <VSA_EState7>
3.06

>  <VSA_EState8>
2.07

>  <VSA_EState9>
-4.55

>  <apol>
62.84

>  <bpol>
44.98

>  <nRing>
2

>  <nHRing>
0

>  <naRing>
2

>  <naHRing>
0

>  <nARing 2>
0

>  <nAHRing 2>
0

>  <nFRing>
0

>  <nFHRing>
0

>  <nFaRing>
0

>  <nFaHRing>
0

>  <nFARing 2>
0

>  <nFAHRing 2>
0

>  <nRot>
11

>  <SLogP>
1.98

>  <SMR>
116.51

>  <TopoPSA(NO)>
104.81

>  <TopoPSA>
121.57

>  <JGI1>
0.32

>  <JGI2>
0.06

>  <JGI3>
0.04

>  <JGI4>
0.04

>  <JGI5>
0.02

>  <Diameter>
19

>  <Radius>
10

>  <TMWC10>
133.09

>  <TSRW10>
63.85

>  <MW>
441.14

>  <AMW>
7.88

>  <WPath>
3074

>  <WPol>
35

>  <Zagreb1>
144

>  <Zagreb2>
155

>  <mZagreb2>
6.17

>  <yes>


>  <nAR-cont>
0.336376

>  <nHA-cont>
0.785905698

>  <MWHBN>
0.380891927

>  <MWHBN-cont>
0.551304404

>  <TPSA-cont>
0

>  <pka_cont>
0.97

>  <yes.1>


>  <BBB_SCORE>
2.434238304

>  <MMFF94 Energy>
-30.184

$$$$
Compound 3092
Actelion Java MolfileCreator 2.0

  0  0  0  0  0  0              0 V3000
M  V30 BEGIN CTAB
M  V30 COUNTS 38 39 0 0 0
M  V30 BEGIN ATOM
M  V30 1 Br -1.052 -3.7262 4.9436 0
M  V30 2 C 0.0213 -3.0338 3.5285 0
M  V30 3 C -0.5613 -2.2932 2.4742 0
M  V30 4 C 1.3957 -3.2738 3.591 0
M  V30 5 N -1.942 -2.1098 2.4308 0
M  V30 6 C 0.2788 -1.8402 1.4362 0
M  V30 7 C 2.2141 -2.7873 2.5822 0
M  V30 8 C 1.668 -2.0822 1.514 0
M  V30 9 C -0.2285 -1.1015 0.2092 0
M  V30 10 Br 4.0774 -3.0951 2.6515 0
M  V30 11 N 0.2624 0.2894 0.1265 0
M  V30 12 C 0.1199 0.8351 -1.2415 0
M  V30 13 C -0.3386 1.1207 1.1718 0
M  V30 14 C -1.3204 1.1786 -1.6716 0
M  V30 15 C 1.047 2.0517 -1.4468 0
M  V30 16 C -1.3656 1.691 -3.1116 0
M  V30 17 C 0.9929 2.5591 -2.888 0
M  V30 18 C -0.4346 2.8816 -3.3172 0
M  V30 19 H 1.8197 -3.8337 4.4194 0
M  V30 20 H -2.4832 -2.4295 3.2273 0
M  V30 21 H -2.3602 -1.4018 1.8465 0
M  V30 22 H 2.316 -1.708 0.7227 0
M  V30 23 H -1.3195 -1.1367 0.1301 0
M  V30 24 H 0.1364 -1.6769 -0.6531 0
M  V30 25 H 0.4943 0.0694 -1.9363 0
M  V30 26 H -1.4332 1.1237 1.1264 0
M  V30 27 H -0.0467 0.7678 2.1669 0
M  V30 28 H 0.0099 2.1561 1.1186 0
M  V30 29 H -1.7445 1.9497 -1.017 0
M  V30 30 H -1.9668 0.2975 -1.5929 0
M  V30 31 H 0.7658 2.8764 -0.7816 0
M  V30 32 H 2.0815 1.7808 -1.2022 0
M  V30 33 H -1.0815 0.8819 -3.7956 0
M  V30 34 H -2.3919 1.9786 -3.367 0
M  V30 35 H 1.4142 1.8002 -3.5586 0
M  V30 36 H 1.618 3.4538 -2.9864 0
M  V30 37 H -0.4442 3.1793 -4.3717 0
M  V30 38 H -0.8045 3.738 -2.74 0
M  V30 END ATOM
M  V30 BEGIN BOND
M  V30 1 1 1 2
M  V30 2 2 2 3
M  V30 3 1 2 4
M  V30 4 1 3 5
M  V30 5 1 3 6
M  V30 6 2 4 7
M  V30 7 2 6 8
M  V30 8 1 6 9
M  V30 9 1 7 10
M  V30 10 1 9 11
M  V30 11 1 11 12
M  V30 12 1 11 13
M  V30 13 1 12 14
M  V30 14 1 12 15
M  V30 15 1 14 16
M  V30 16 1 15 17
M  V30 17 1 16 18
M  V30 18 1 7 8
M  V30 19 1 17 18
M  V30 20 1 4 19
M  V30 21 1 5 20
M  V30 22 1 5 21
M  V30 23 1 8 22
M  V30 24 1 9 23
M  V30 25 1 9 24
M  V30 26 1 12 25
M  V30 27 1 13 26
M  V30 28 1 13 27
M  V30 29 1 13 28
M  V30 30 1 14 29
M  V30 31 1 14 30
M  V30 32 1 15 31
M  V30 33 1 15 32
M  V30 34 1 16 33
M  V30 35 1 16 34
M  V30 36 1 17 35
M  V30 37 1 17 36
M  V30 38 1 18 37
M  V30 39 1 18 38
M  V30 END BOND
M  V30 END CTAB
M  END
>  <Column 1>
3978

>  <level_0>
7765

>  <index>
7767

>  <Unnamed: 0>
7767

>  <NO.>
7780

>  <Name>
bromhexine

>  <IUPAC_name>
2-4-dibromo-6-[[cyclohexyl(methyl)amino]methyl]aniline

>  <SMILES>
CN(Cc1cc(Br)cc(Br)c1N)C1CCCCC1

>  <CID>
2442

>  <logBB>


>  <BBB+/BBB->
BBB-

>  <Inchi>
InChI=1S/C14H20Br2N2/c1-18(12-5-3-2-4-6-12)9-10-7-11(15)8-13(16)14(10)17/h7-8-12H-2-6-9-17H2-1H3

>  <threshold>


>  <reference>
R14|R23|R27|

>  <group>
D

>  <Class>
1

>  <ABC>
13.75

>  <ABCGG>
11.87

>  <nAcid>
0

>  <nBase>
1

>  <nAromAtom>
6

>  <nAromBond>
6

>  <nAtom>
38

>  <nHeavyAtom>
18

>  <nSpiro>
0

>  <nBridgehead>
0

>  <nHetero>
4

>  <nN>
2

>  <nO>
0

>  <nF>
0

>  <BalabanJ>
1.86

>  <BertzCT>
414.5

>  <nBonds>
39

>  <nBondsO>
19

>  <nBondsS>
33

>  <nBondsD>
0

>  <nBondsT>
0

>  <nBondsA>
6

>  <nBondsM>
6

>  <nBondsKS>
36

>  <nBondsKD>
3

>  <RNCG>
0.35

>  <RPCG>
0.14

>  <FCSP3>
0.57

>  <SZ>
31.33

>  <Sm>
31.32

>  <Sv>
23.51

>  <Sse>
37.55

>  <Sp>
26.96

>  <Si>
42.83

>  <MZ>
0.82

>  <Mm>
0.82

>  <Mv>
0.62

>  <Mse>
0.99

>  <Mp>
0.71

>  <Mi>
1.13

>  <NsCH3>
1

>  <NdCH2>
0

>  <NssCH2>
6

>  <NtCH>
0

>  <NdsCH>
0

>  <NaaCH>
2

>  <NsssCH>
1

>  <NddC>
0

>  <NtsC>
0

>  <NdssC>
0

>  <NaasC>
4

>  <NaaaC>
0

>  <NssssC>
0

>  <NsNH3>
0

>  <NsNH2>
1

>  <NssNH2>
0

>  <NdNH>
0

>  <NssNH>
0

>  <NaaNH>
0

>  <NtN>
0

>  <NsssNH>
0

>  <NdsN>
0

>  <NaaN>
0

>  <NsssN>
1

>  <NddsN>
0

>  <NaasN>
0

>  <NssssN>
0

>  <NsOH>
0

>  <NdO>
0

>  <NssO>
0

>  <NaaO>
0

>  <NsF>
0

>  <NsSiH3>
0

>  <NssSiH2>
0

>  <NsssSiH>
0

>  <NssssSi>
0

>  <NsPH2>
0

>  <NssPH>
0

>  <NsssP>
0

>  <NdsssP>
0

>  <NsssssP>
0

>  <NsSH>
0

>  <NdS>
0

>  <NssS>
0

>  <NaaS>
0

>  <NdssS>
0

>  <NddssS>
0

>  <NsCl>
0

>  <NsBr>
2

>  <NsI>
0

>  <fragCpx>
55.04

>  <fMF>
0.37

>  <nHBAcc>
2

>  <nHBDon>
1

>  <Kier1>
14.41

>  <Kier2>
6.44

>  <Lipinski>
1

>  <GhoseFilter>
1

>  <FilterItLogS>
-4.95

>  <VMcGowan>
228.46

>  <LabuteASA>
126.18

>  <PEOE_VSA1>
5.73

>  <PEOE_VSA2>
4.9

>  <PEOE_VSA3>
0

>  <PEOE_VSA4>
0

>  <PEOE_VSA5>
0

>  <PEOE_VSA6>
35.19

>  <PEOE_VSA7>
53.52

>  <PEOE_VSA8>
21.53

>  <PEOE_VSA9>
5.69

>  <PEOE_VSA10>
0

>  <PEOE_VSA11>
0

>  <PEOE_VSA12>
0

>  <PEOE_VSA13>
0

>  <SMR_VSA1>
0

>  <SMR_VSA2>
0

>  <SMR_VSA3>
4.9

>  <SMR_VSA4>
0

>  <SMR_VSA5>
44.69

>  <SMR_VSA6>
12.78

>  <SMR_VSA7>
26.64

>  <SMR_VSA8>
0

>  <SMR_VSA9>
0

>  <SlogP_VSA1>
5.73

>  <SlogP_VSA2>
17.99

>  <SlogP_VSA3>
6.54

>  <SlogP_VSA4>
0

>  <SlogP_VSA5>
37.67

>  <SlogP_VSA6>
21.08

>  <SlogP_VSA7>
0

>  <SlogP_VSA8>
0

>  <SlogP_VSA9>
0

>  <SlogP_VSA10>
5.69

>  <SlogP_VSA11>
0

>  <EState_VSA1>
0

>  <EState_VSA2>
0

>  <EState_VSA3>
0

>  <EState_VSA4>
27.22

>  <EState_VSA5>
37.67

>  <EState_VSA6>
0

>  <EState_VSA7>
6.07

>  <EState_VSA8>
49.87

>  <EState_VSA9>
5.73

>  <EState_VSA10>
0

>  <VSA_EState1>
2.06

>  <VSA_EState2>
2.45

>  <VSA_EState3>
0

>  <VSA_EState4>
8.2

>  <VSA_EState5>
0

>  <VSA_EState6>
4.84

>  <VSA_EState7>
6.78

>  <VSA_EState8>
0.93

>  <VSA_EState9>
2.21

>  <apol>
45.02

>  <bpol>
23.96

>  <nRing>
2

>  <nHRing>
0

>  <naRing>
1

>  <naHRing>
0

>  <nARing 2>
1

>  <nAHRing 2>
0

>  <nFRing>
0

>  <nFHRing>
0

>  <nFaRing>
0

>  <nFaHRing>
0

>  <nFARing 2>
0

>  <nFAHRing 2>
0

>  <nRot>
3

>  <SLogP>
4.56

>  <SMR>
84.59

>  <TopoPSA(NO)>
29.26

>  <TopoPSA>
29.26

>  <JGI1>
0.21

>  <JGI2>
0.09

>  <JGI3>
0.06

>  <JGI4>
0.05

>  <JGI5>
0.03

>  <Diameter>
9

>  <Radius>
5

>  <TMWC10>
108

>  <TSRW10>
50.81

>  <MW>
374

>  <AMW>
9.84

>  <WPath>
622

>  <WPol>
26

>  <Zagreb1>
90

>  <Zagreb2>
103

>  <mZagreb2>
4

>  <yes>


>  <nAR-cont>
0.816016

>  <nHA-cont>
0.991161285

>  <MWHBN>
0.155126307

>  <MWHBN-cont>
0.945122081

>  <TPSA-cont>
0.795747031

>  <pka_cont>
0.97

>  <yes.1>


>  <BBB_SCORE>
5.301354467

>  <MMFF94 Energy>
36.615

$$$$
Compound 3093
Actelion Java MolfileCreator 2.0

  0  0  0  0  0  0              0 V3000
M  V30 BEGIN CTAB
M  V30 COUNTS 35 37 0 0 0
M  V30 BEGIN ATOM
M  V30 1 O 0.2375 2.7737 -4.282 0
M  V30 2 C -0.5471 3.2867 -3.494 0
M  V30 3 N -1.4151 4.2576 -3.9097 0
M  V30 4 C -0.6206 2.8608 -2.0707 0
M  V30 5 C -0.1745 1.568 -1.7521 0
M  V30 6 C -1.0933 3.7129 -1.066 0
M  V30 7 C -0.2305 1.1241 -0.4167 0
M  V30 8 C -1.1534 3.2926 0.2683 0
M  V30 9 C -0.7185 1.9951 0.5613 0
M  V30 10 C 0.118 -0.0873 0.241 0
M  V30 11 N -0.6616 1.331 1.7691 0
M  V30 12 C -0.1552 0.0764 1.5821 0
M  V30 13 C 0.7032 -1.3468 -0.309 0
M  V30 14 C 0.0358 -0.9397 2.6483 0
M  V30 15 C 0.5514 -2.5268 0.6976 0 CFG=2
M  V30 16 C 0.9383 -2.078 2.1331 0
M  V30 17 N 1.3697 -3.6558 0.2207 0
M  V30 18 C 1.0279 -4.9201 0.8538 0
M  V30 19 H -2.1482 4.646 -3.3369 0
M  V30 20 H -1.3651 4.5315 -4.8822 0
M  V30 21 H 0.2068 0.9112 -2.5298 0
M  V30 22 H -1.3976 4.7298 -1.2961 0
M  V30 23 H -1.5149 3.958 1.0458 0
M  V30 24 H -0.9525 1.7228 2.6542 0
M  V30 25 H 1.7652 -1.1653 -0.5207 0
M  V30 26 H 0.2193 -1.6069 -1.2582 0
M  V30 27 H 0.4809 -0.4906 3.5429 0
M  V30 28 H -0.9411 -1.3489 2.9317 0
M  V30 29 H -0.5067 -2.8242 0.6973 0
M  V30 30 H 1.9835 -1.7398 2.1366 0
M  V30 31 H 0.8731 -2.9115 2.841 0
M  V30 32 H 2.3582 -3.4519 0.3669 0
M  V30 33 H 1.6084 -5.7234 0.389 0
M  V30 34 H 1.2601 -4.9238 1.9224 0
M  V30 35 H -0.0306 -5.162 0.7151 0
M  V30 END ATOM
M  V30 BEGIN BOND
M  V30 1 2 1 2
M  V30 2 1 2 3
M  V30 3 1 2 4
M  V30 4 2 4 5
M  V30 5 1 4 6
M  V30 6 1 5 7
M  V30 7 2 6 8
M  V30 8 2 7 9
M  V30 9 1 7 10
M  V30 10 1 9 11
M  V30 11 2 10 12
M  V30 12 1 10 13
M  V30 13 1 12 14
M  V30 14 1 13 15
M  V30 15 1 14 16
M  V30 16 1 15 17
M  V30 17 1 17 18
M  V30 18 1 8 9
M  V30 19 1 11 12
M  V30 20 1 15 16
M  V30 21 1 3 19
M  V30 22 1 3 20
M  V30 23 1 5 21
M  V30 24 1 6 22
M  V30 25 1 8 23
M  V30 26 1 11 24
M  V30 27 1 13 25
M  V30 28 1 13 26
M  V30 29 1 14 27
M  V30 30 1 14 28
M  V30 31 1 15 29
M  V30 32 1 16 30
M  V30 33 1 16 31
M  V30 34 1 17 32
M  V30 35 1 18 33
M  V30 36 1 18 34
M  V30 37 1 18 35
M  V30 END BOND
M  V30 BEGIN COLLECTION
M  V30 MDLV30/STERAC1 ATOMS=(1 15)
M  V30 END COLLECTION
M  V30 END CTAB
M  END
>  <Column 1>
3979

>  <level_0>
7766

>  <index>
7768

>  <Unnamed: 0>
7768

>  <NO.>
7781

>  <Name>
frovatriptan racemate

>  <IUPAC_name>
6-(methylamino)-6-7-8-9-tetrahydro-5h-carbazole-3-carboxamide

>  <SMILES>
CNC1CCc2[nH]c3ccc(C(N)=O)cc3c2C1

>  <CID>
5284561

>  <logBB>


>  <BBB+/BBB->
BBB+

>  <Inchi>
InChI=1S/C14H17N3O/c1-16-9-3-5-13-11(7-9)10-6-8(14(15)18)2-4-12(10)17-13/h2-4-6-9-16-17H-3-5-7H2-1H3-(H2-15-18)

>  <threshold>


>  <reference>
R14|R23|R26|

>  <group>
D

>  <Class>
-1

>  <ABC>
14.2

>  <ABCGG>
11.83

>  <nAcid>
0

>  <nBase>
1

>  <nAromAtom>
9

>  <nAromBond>
10

>  <nAtom>
35

>  <nHeavyAtom>
18

>  <nSpiro>
0

>  <nBridgehead>
0

>  <nHetero>
4

>  <nN>
3

>  <nO>
1

>  <nF>
0

>  <BalabanJ>
1.69

>  <BertzCT>
614.77

>  <nBonds>
37

>  <nBondsO>
20

>  <nBondsS>
26

>  <nBondsD>
1

>  <nBondsT>
0

>  <nBondsA>
10

>  <nBondsM>
11

>  <nBondsKS>
32

>  <nBondsKD>
5

>  <RNCG>
0.24

>  <RPCG>
0.16

>  <FCSP3>
0.36

>  <SZ>
21.67

>  <Sm>
20.26

>  <Sv>
21.59

>  <Sse>
34.87

>  <Sp>
23.24

>  <Si>
39.61

>  <MZ>
0.62

>  <Mm>
0.58

>  <Mv>
0.62

>  <Mse>
1

>  <Mp>
0.66

>  <Mi>
1.13

>  <NsCH3>
1

>  <NdCH2>
0

>  <NssCH2>
3

>  <NtCH>
0

>  <NdsCH>
0

>  <NaaCH>
3

>  <NsssCH>
1

>  <NddC>
0

>  <NtsC>
0

>  <NdssC>
1

>  <NaasC>
3

>  <NaaaC>
2

>  <NssssC>
0

>  <NsNH3>
0

>  <NsNH2>
1

>  <NssNH2>
0

>  <NdNH>
0

>  <NssNH>
1

>  <NaaNH>
1

>  <NtN>
0

>  <NsssNH>
0

>  <NdsN>
0

>  <NaaN>
0

>  <NsssN>
0

>  <NddsN>
0

>  <NaasN>
0

>  <NssssN>
0

>  <NsOH>
0

>  <NdO>
1

>  <NssO>
0

>  <NaaO>
0

>  <NsF>
0

>  <NsSiH3>
0

>  <NssSiH2>
0

>  <NsssSiH>
0

>  <NssssSi>
0

>  <NsPH2>
0

>  <NssPH>
0

>  <NsssP>
0

>  <NdsssP>
0

>  <NsssssP>
0

>  <NsSH>
0

>  <NdS>
0

>  <NssS>
0

>  <NaaS>
0

>  <NdssS>
0

>  <NddssS>
0

>  <NsCl>
0

>  <NsBr>
0

>  <NsI>
0

>  <fragCpx>
94.04

>  <fMF>
0.37

>  <nHBAcc>
2

>  <nHBDon>
3

>  <Kier1>
13.01

>  <Kier2>
5.17

>  <Lipinski>
1

>  <GhoseFilter>
1

>  <FilterItLogS>
-3.74

>  <VMcGowan>
189.85

>  <LabuteASA>
105.56

>  <PEOE_VSA1>
16.03

>  <PEOE_VSA2>
4.79

>  <PEOE_VSA3>
0

>  <PEOE_VSA4>
0

>  <PEOE_VSA5>
0

>  <PEOE_VSA6>
0

>  <PEOE_VSA7>
50.07

>  <PEOE_VSA8>
28.2

>  <PEOE_VSA9>
0

>  <PEOE_VSA10>
0

>  <PEOE_VSA11>
0

>  <PEOE_VSA12>
5.91

>  <PEOE_VSA13>
0

>  <SMR_VSA1>
4.79

>  <SMR_VSA2>
0

>  <SMR_VSA3>
10.3

>  <SMR_VSA4>
5.73

>  <SMR_VSA5>
25.3

>  <SMR_VSA6>
7.05

>  <SMR_VSA7>
35.02

>  <SMR_VSA8>
0

>  <SMR_VSA9>
0

>  <SlogP_VSA1>
11.05

>  <SlogP_VSA2>
23.98

>  <SlogP_VSA3>
12.84

>  <SlogP_VSA4>
0

>  <SlogP_VSA5>
28.04

>  <SlogP_VSA6>
18.2

>  <SlogP_VSA7>
0

>  <SlogP_VSA8>
10.9

>  <SlogP_VSA9>
0

>  <SlogP_VSA10>
0

>  <SlogP_VSA11>
0

>  <EState_VSA1>
0

>  <EState_VSA2>
5.91

>  <EState_VSA3>
11.61

>  <EState_VSA4>
30.17

>  <EState_VSA5>
11.26

>  <EState_VSA6>
6.07

>  <EState_VSA7>
19.18

>  <EState_VSA8>
10.3

>  <EState_VSA9>
5.73

>  <EState_VSA10>
4.79

>  <VSA_EState1>
0

>  <VSA_EState2>
14.7

>  <VSA_EState3>
4.47

>  <VSA_EState4>
9.66

>  <VSA_EState5>
-0.37

>  <VSA_EState6>
6.16

>  <VSA_EState7>
3.22

>  <VSA_EState8>
0

>  <VSA_EState9>
2

>  <apol>
38.82

>  <bpol>
18.49

>  <nRing>
3

>  <nHRing>
1

>  <naRing>
2

>  <naHRing>
1

>  <nARing 2>
1

>  <nAHRing 2>
0

>  <nFRing>
1

>  <nFHRing>
1

>  <nFaRing>
0

>  <nFaHRing>
0

>  <nFARing 2>
1

>  <nFAHRing 2>
1

>  <nRot>
2

>  <SLogP>
1.34

>  <SMR>
71.69

>  <TopoPSA(NO)>
70.91

>  <TopoPSA>
70.91

>  <JGI1>
0.2

>  <JGI2>
0.08

>  <JGI3>
0.05

>  <JGI4>
0.04

>  <JGI5>
0.04

>  <Diameter>
9

>  <Radius>
5

>  <TMWC10>
111.69

>  <TSRW10>
65.83

>  <MW>
243.14

>  <AMW>
6.95

>  <WPath>
577

>  <WPol>
29

>  <Zagreb1>
98

>  <Zagreb2>
118

>  <mZagreb2>
3.94

>  <yes>


>  <nAR-cont>
0.816016

>  <nHA-cont>
0.991161285

>  <MWHBN>
0.320657792

>  <MWHBN-cont>
0.774953353

>  <TPSA-cont>
0.505004168

>  <pka_cont>
0.97

>  <yes.1>


>  <BBB_SCORE>
4.464615649

>  <MMFF94 Energy>
17.972

$$$$
Compound 3094
Actelion Java MolfileCreator 2.0

  0  0  0  0  0  0              0 V3000
M  V30 BEGIN CTAB
M  V30 COUNTS 35 37 0 0 0
M  V30 BEGIN ATOM
M  V30 1 O 4.9473 0.956 0.3186 0
M  V30 2 C 5.2112 0.1124 -0.5296 0
M  V30 3 O 6.4509 -0.1169 -1.0337 0
M  V30 4 N 4.3237 -0.7389 -1.1153 0
M  V30 5 C 7.4694 0.7225 -0.4873 0
M  V30 6 C 2.99 -0.7542 -0.8177 0
M  V30 7 N 2.1113 -1.5509 -1.3802 0
M  V30 8 N 2.3983 0.0624 0.1131 0
M  V30 9 C 0.909 -1.2403 -0.7928 0
M  V30 10 C 1.0596 -0.2252 0.1456 0
M  V30 11 C -0.3626 -1.7916 -1.0075 0
M  V30 12 C 6.0E-4 0.2926 0.8947 0
M  V30 13 C -1.4484 -1.2938 -0.2716 0
M  V30 14 C -1.2711 -0.2537 0.6527 0
M  V30 15 C -2.4117 0.2748 1.4454 0
M  V30 16 O -2.2214 0.6204 2.6088 0
M  V30 17 C -3.7729 0.3968 0.8646 0
M  V30 18 C -4.8757 0.2011 1.7042 0
M  V30 19 C -3.9723 0.7436 -0.4772 0
M  V30 20 C -6.1704 0.3177 1.1966 0
M  V30 21 C -5.2698 0.8593 -0.9805 0
M  V30 22 C -6.3661 0.6421 -0.1455 0
M  V30 23 H 4.656 -1.395 -1.8054 0
M  V30 24 H 7.2586 1.7738 -0.7072 0
M  V30 25 H 7.561 0.5617 0.5913 0
M  V30 26 H 8.4186 0.4539 -0.959 0
M  V30 27 H 2.8923 0.7518 0.666 0
M  V30 28 H -0.4918 -2.595 -1.7248 0
M  V30 29 H 0.1483 1.0786 1.6294 0
M  V30 30 H -2.4261 -1.7456 -0.4226 0
M  V30 31 H -4.727 -0.0412 2.7546 0
M  V30 32 H -3.1322 0.9442 -1.1368 0
M  V30 33 H -7.0251 0.1618 1.8502 0
M  V30 34 H -5.427 1.1286 -2.0222 0
M  V30 35 H -7.3757 0.737 -0.5385 0
M  V30 END ATOM
M  V30 BEGIN BOND
M  V30 1 2 1 2
M  V30 2 1 2 3
M  V30 3 1 2 4
M  V30 4 1 3 5
M  V30 5 1 4 6
M  V30 6 2 6 7
M  V30 7 1 6 8
M  V30 8 1 7 9
M  V30 9 1 8 10
M  V30 10 1 9 11
M  V30 11 1 10 12
M  V30 12 2 11 13
M  V30 13 2 12 14
M  V30 14 1 14 15
M  V30 15 2 15 16
M  V30 16 1 15 17
M  V30 17 2 17 18
M  V30 18 1 17 19
M  V30 19 1 18 20
M  V30 20 2 19 21
M  V30 21 2 20 22
M  V30 22 2 9 10
M  V30 23 1 13 14
M  V30 24 1 21 22
M  V30 25 1 4 23
M  V30 26 1 5 24
M  V30 27 1 5 25
M  V30 28 1 5 26
M  V30 29 1 8 27
M  V30 30 1 11 28
M  V30 31 1 12 29
M  V30 32 1 13 30
M  V30 33 1 18 31
M  V30 34 1 19 32
M  V30 35 1 20 33
M  V30 36 1 21 34
M  V30 37 1 22 35
M  V30 END BOND
M  V30 END CTAB
M  END
>  <Column 1>
3980

>  <level_0>
7767

>  <index>
7769

>  <Unnamed: 0>
7769

>  <NO.>
7782

>  <Name>
mebendazole

>  <IUPAC_name>
methyl n-(6-benzoyl-1h-benzimidazol-2-yl)carbamate

>  <SMILES>
COC(=O)Nc1nc2ccc(C(=O)c3ccccc3)cc2[nH]1

>  <CID>
4030

>  <logBB>


>  <BBB+/BBB->
BBB-

>  <Inchi>
InChI=1S/C16H13N3O3/c1-22-16(21)19-15-17-12-8-7-11(9-13(12)18-15)14(20)10-5-3-2-4-6-10/h2-9H-1H3-(H2-17-18-19-21)

>  <threshold>


>  <reference>
R14|R23|R27|

>  <group>
D

>  <Class>
-1

>  <ABC>
17.07

>  <ABCGG>
13.68

>  <nAcid>
0

>  <nBase>
0

>  <nAromAtom>
15

>  <nAromBond>
16

>  <nAtom>
35

>  <nHeavyAtom>
22

>  <nSpiro>
0

>  <nBridgehead>
0

>  <nHetero>
6

>  <nN>
3

>  <nO>
3

>  <nF>
0

>  <BalabanJ>
1.5

>  <BertzCT>
840.22

>  <nBonds>
37

>  <nBondsO>
24

>  <nBondsS>
19

>  <nBondsD>
2

>  <nBondsT>
0

>  <nBondsA>
16

>  <nBondsM>
18

>  <nBondsKS>
28

>  <nBondsKD>
9

>  <RNCG>
0.21

>  <RPCG>
0.19

>  <FCSP3>
0.06

>  <SZ>
25.67

>  <Sm>
24.59

>  <Sv>
23.94

>  <Sse>
35.75

>  <Sp>
24.61

>  <Si>
39.2

>  <MZ>
0.73

>  <Mm>
0.7

>  <Mv>
0.68

>  <Mse>
1.02

>  <Mp>
0.7

>  <Mi>
1.12

>  <NsCH3>
1

>  <NdCH2>
0

>  <NssCH2>
0

>  <NtCH>
0

>  <NdsCH>
0

>  <NaaCH>
8

>  <NsssCH>
0

>  <NddC>
0

>  <NtsC>
0

>  <NdssC>
2

>  <NaasC>
3

>  <NaaaC>
2

>  <NssssC>
0

>  <NsNH3>
0

>  <NsNH2>
0

>  <NssNH2>
0

>  <NdNH>
0

>  <NssNH>
1

>  <NaaNH>
1

>  <NtN>
0

>  <NsssNH>
0

>  <NdsN>
0

>  <NaaN>
1

>  <NsssN>
0

>  <NddsN>
0

>  <NaasN>
0

>  <NssssN>
0

>  <NsOH>
0

>  <NdO>
2

>  <NssO>
1

>  <NaaO>
0

>  <NsF>
0

>  <NsSiH3>
0

>  <NssSiH2>
0

>  <NsssSiH>
0

>  <NssssSi>
0

>  <NsPH2>
0

>  <NssPH>
0

>  <NsssP>
0

>  <NdsssP>
0

>  <NsssssP>
0

>  <NsSH>
0

>  <NdS>
0

>  <NssS>
0

>  <NaaS>
0

>  <NdssS>
0

>  <NddssS>
0

>  <NsCl>
0

>  <NsBr>
0

>  <NsI>
0

>  <fragCpx>
114.06

>  <fMF>
0.46

>  <nHBAcc>
4

>  <nHBDon>
2

>  <Kier1>
16.84

>  <Kier2>
7.71

>  <Lipinski>
1

>  <GhoseFilter>
1

>  <FilterItLogS>
-4.29

>  <VMcGowan>
212.57

>  <LabuteASA>
125.68

>  <PEOE_VSA1>
9.72

>  <PEOE_VSA2>
10.11

>  <PEOE_VSA3>
9.78

>  <PEOE_VSA4>
0

>  <PEOE_VSA5>
0

>  <PEOE_VSA6>
30.33

>  <PEOE_VSA7>
18.2

>  <PEOE_VSA8>
11.13

>  <PEOE_VSA9>
18.14

>  <PEOE_VSA10>
0

>  <PEOE_VSA11>
5.78

>  <PEOE_VSA12>
5.95

>  <PEOE_VSA13>
0

>  <SMR_VSA1>
14.33

>  <SMR_VSA2>
0

>  <SMR_VSA3>
9.97

>  <SMR_VSA4>
0

>  <SMR_VSA5>
0

>  <SMR_VSA6>
12.43

>  <SMR_VSA7>
59.66

>  <SMR_VSA8>
0

>  <SMR_VSA9>
0

>  <SlogP_VSA1>
5.32

>  <SlogP_VSA2>
28.95

>  <SlogP_VSA3>
4.74

>  <SlogP_VSA4>
0

>  <SlogP_VSA5>
15.92

>  <SlogP_VSA6>
48.53

>  <SlogP_VSA7>
0

>  <SlogP_VSA8>
11.03

>  <SlogP_VSA9>
0

>  <SlogP_VSA10>
10.74

>  <SlogP_VSA11>
0

>  <EState_VSA1>
6.09

>  <EState_VSA2>
11.73

>  <EState_VSA3>
22.16

>  <EState_VSA4>
0

>  <EState_VSA5>
7.11

>  <EState_VSA6>
30.33

>  <EState_VSA7>
18.2

>  <EState_VSA8>
20.02

>  <EState_VSA9>
0

>  <EState_VSA10>
9.59

>  <VSA_EState1>
4.51

>  <VSA_EState2>
30.69

>  <VSA_EState3>
2.45

>  <VSA_EState4>
2.48

>  <VSA_EState5>
0.2

>  <VSA_EState6>
14.18

>  <VSA_EState7>
-0.61

>  <VSA_EState8>
0

>  <VSA_EState9>
1.27

>  <apol>
41.09

>  <bpol>
18.79

>  <nRing>
3

>  <nHRing>
1

>  <naRing>
3

>  <naHRing>
1

>  <nARing 2>
0

>  <nAHRing 2>
0

>  <nFRing>
1

>  <nFHRing>
1

>  <nFaRing>
1

>  <nFaHRing>
1

>  <nFARing 2>
0

>  <nFAHRing 2>
0

>  <nRot>
3

>  <SLogP>
2.97

>  <SMR>
82

>  <TopoPSA(NO)>
84.08

>  <TopoPSA>
84.08

>  <JGI1>
0.19

>  <JGI2>
0.07

>  <JGI3>
0.06

>  <JGI4>
0.03

>  <JGI5>
0.03

>  <Diameter>
13

>  <Radius>
7

>  <TMWC10>
119.87

>  <TSRW10>
69.93

>  <MW>
295.1

>  <AMW>
8.43

>  <WPath>
1138

>  <WPol>
32

>  <Zagreb1>
114

>  <Zagreb2>
133

>  <mZagreb2>
4.92

>  <yes>


>  <nAR-cont>
0.336376

>  <nHA-cont>
0.983774276

>  <MWHBN>
0.349274312

>  <MWHBN-cont>
0.672961906

>  <TPSA-cont>
0.413069389

>  <pka_cont>
0.97

>  <yes.1>


>  <BBB_SCORE>
3.640731914

>  <MMFF94 Energy>
-12.927

$$$$
Compound 3095
Actelion Java MolfileCreator 2.0

  0  0  0  0  0  0              0 V3000
M  V30 BEGIN CTAB
M  V30 COUNTS 70 73 0 0 0
M  V30 BEGIN ATOM
M  V30 1 S -4.0227 -1.7684 -2.4926 0
M  V30 2 O -5.1069 -0.8137 -2.5401 0
M  V30 3 O -4.2815 -3.1593 -2.1734 0
M  V30 4 N -3.2419 -1.8028 -3.9579 0
M  V30 5 C -2.7767 -1.1924 -1.3688 0
M  V30 6 C -2.7376 -0.6961 -4.6151 0
M  V30 7 C -1.8964 -2.109 -0.7867 0
M  V30 8 C -2.7225 0.1602 -1.0264 0
M  V30 9 O -2.7795 0.4369 -4.167 0
M  V30 10 N -2.1777 -1.0237 -5.8157 0
M  V30 11 C -0.9361 -1.6602 0.1212 0
M  V30 12 C -1.7595 0.6041 -0.1191 0
M  V30 13 C -1.605 -0.0199 -6.7043 0
M  V30 14 C -0.8551 -0.3003 0.455 0
M  V30 15 C -0.4864 -0.6246 -7.5625 0
M  V30 16 C -2.6897 0.6254 -7.5779 0
M  V30 17 C 0.1705 0.1774 1.4527 0
M  V30 18 C -1.0105 -1.5562 -8.6557 0
M  V30 19 C -3.214 -0.3231 -8.6552 0
M  V30 20 C -0.3533 0.095 2.8905 0
M  V30 21 C -2.0807 -0.883 -9.5088 0
M  V30 22 N 0.6599 0.5306 3.8525 0
M  V30 23 C 1.5013 -0.4491 4.3694 0
M  V30 24 C 0.7176 1.8838 4.1642 0
M  V30 25 O 1.5402 -1.5999 3.9407 0
M  V30 26 C 2.3713 -0.0651 5.5015 0
M  V30 27 O -0.1098 2.6849 3.7184 0
M  V30 28 C 1.9205 2.3729 4.9913 0
M  V30 29 C 2.5578 1.2792 5.8357 0
M  V30 30 C 3.0036 -1.0825 6.2334 0
M  V30 31 C 2.9684 2.878 3.9793 0
M  V30 32 C 1.4355 3.561 5.8514 0
M  V30 33 C 3.4125 1.5718 6.9146 0
M  V30 34 C 3.8328 -0.7786 7.3114 0
M  V30 35 C 4.0363 0.5552 7.6488 0
M  V30 36 O 4.3799 -1.8616 7.9391 0
M  V30 37 C 5.2252 -1.6048 9.0535 0
M  V30 38 H -3.1283 -2.7381 -4.3201 0
M  V30 39 H -1.9552 -3.1682 -1.0253 0
M  V30 40 H -3.4162 0.8729 -1.4695 0
M  V30 41 H -2.2537 -1.9743 -6.1384 0
M  V30 42 H -0.254 -2.3778 0.5748 0
M  V30 43 H -1.7211 1.6615 0.1376 0
M  V30 44 H -1.1658 0.7608 -6.0705 0
M  V30 45 H 0.0729 0.1911 -8.0383 0
M  V30 46 H 0.2248 -1.17 -6.9306 0
M  V30 47 H -2.2691 1.514 -8.0661 0
M  V30 48 H -3.5275 0.9714 -6.9609 0
M  V30 49 H 0.4637 1.2079 1.2137 0
M  V30 50 H 1.0866 -0.4175 1.345 0
M  V30 51 H -0.1784 -1.8732 -9.2948 0
M  V30 52 H -1.4228 -2.466 -8.2035 0
M  V30 53 H -3.7638 -1.1485 -8.1871 0
M  V30 54 H -3.9266 0.2089 -9.2957 0
M  V30 55 H -0.6554 -0.9337 3.1233 0
M  V30 56 H -1.2528 0.7133 2.9986 0
M  V30 57 H -2.4834 -1.6027 -10.2305 0
M  V30 58 H -1.626 -0.0704 -10.0887 0
M  V30 59 H 2.8482 -2.1263 5.9641 0
M  V30 60 H 3.8467 3.2991 4.4824 0
M  V30 61 H 3.3179 2.0696 3.3255 0
M  V30 62 H 2.551 3.658 3.3313 0
M  V30 63 H 2.2584 4.0707 6.3633 0
M  V30 64 H 0.9334 4.3246 5.2455 0
M  V30 65 H 0.7201 3.2268 6.6124 0
M  V30 66 H 3.6256 2.6002 7.1988 0
M  V30 67 H 4.6821 0.8442 8.4722 0
M  V30 68 H 6.1089 -1.0317 8.754 0
M  V30 69 H 5.5689 -2.5684 9.4417 0
M  V30 70 H 4.6782 -1.0982 9.8557 0
M  V30 END ATOM
M  V30 BEGIN BOND
M  V30 1 2 1 2
M  V30 2 2 1 3
M  V30 3 1 1 4
M  V30 4 1 1 5
M  V30 5 1 4 6
M  V30 6 2 5 7
M  V30 7 1 5 8
M  V30 8 2 6 9
M  V30 9 1 6 10
M  V30 10 1 7 11
M  V30 11 2 8 12
M  V30 12 1 10 13
M  V30 13 2 11 14
M  V30 14 1 13 15
M  V30 15 1 13 16
M  V30 16 1 14 17
M  V30 17 1 15 18
M  V30 18 1 16 19
M  V30 19 1 17 20
M  V30 20 1 18 21
M  V30 21 1 20 22
M  V30 22 1 22 23
M  V30 23 1 22 24
M  V30 24 2 23 25
M  V30 25 1 23 26
M  V30 26 2 24 27
M  V30 27 1 24 28
M  V30 28 2 26 29
M  V30 29 1 26 30
M  V30 30 1 28 31
M  V30 31 1 28 32
M  V30 32 1 29 33
M  V30 33 2 30 34
M  V30 34 2 33 35
M  V30 35 1 34 36
M  V30 36 1 36 37
M  V30 37 1 12 14
M  V30 38 1 19 21
M  V30 39 1 28 29
M  V30 40 1 34 35
M  V30 41 1 4 38
M  V30 42 1 7 39
M  V30 43 1 8 40
M  V30 44 1 10 41
M  V30 45 1 11 42
M  V30 46 1 12 43
M  V30 47 1 13 44
M  V30 48 1 15 45
M  V30 49 1 15 46
M  V30 50 1 16 47
M  V30 51 1 16 48
M  V30 52 1 17 49
M  V30 53 1 17 50
M  V30 54 1 18 51
M  V30 55 1 18 52
M  V30 56 1 19 53
M  V30 57 1 19 54
M  V30 58 1 20 55
M  V30 59 1 20 56
M  V30 60 1 21 57
M  V30 61 1 21 58
M  V30 62 1 30 59
M  V30 63 1 31 60
M  V30 64 1 31 61
M  V30 65 1 31 62
M  V30 66 1 32 63
M  V30 67 1 32 64
M  V30 68 1 32 65
M  V30 69 1 33 66
M  V30 70 1 35 67
M  V30 71 1 37 68
M  V30 72 1 37 69
M  V30 73 1 37 70
M  V30 END BOND
M  V30 END CTAB
M  END
>  <Column 1>
3981

>  <level_0>
7769

>  <index>
7771

>  <Unnamed: 0>
7771

>  <NO.>
7784

>  <Name>
gliquidone

>  <IUPAC_name>
1-cyclohexyl-3-[4-[2-(7-methoxy-4-4-dimethyl-1-3-dioxoisoquinolin-2-yl)ethyl]phenyl]sulfonylurea

>  <SMILES>
COc1ccc2c(c1)C(=O)N(CCc1ccc(S(=O)(=O)NC(=O)NC3CCCCC3)cc1)C(=O)C2(C)C

>  <CID>
91610

>  <logBB>


>  <BBB+/BBB->
BBB-

>  <Inchi>
InChI=1S/C27H33N3O6S/c1-27(2)23-14-11-20(36-3)17-22(23)24(31)30(25(27)32)16-15-18-9-12-21(13-10-18)37(34-35)29-26(33)28-19-7-5-4-6-8-19/h9-14-17-19H-4-8-15-16H2-1-3H3-(H2-28-29-33)

>  <threshold>


>  <reference>
R14|R23|R27|

>  <group>
D

>  <Class>
-1

>  <ABC>
28.9

>  <ABCGG>
21.38

>  <nAcid>
0

>  <nBase>
0

>  <nAromAtom>
12

>  <nAromBond>
12

>  <nAtom>
70

>  <nHeavyAtom>
37

>  <nSpiro>
0

>  <nBridgehead>
0

>  <nHetero>
10

>  <nN>
3

>  <nO>
6

>  <nF>
0

>  <BalabanJ>
1.25

>  <BertzCT>
1297.92

>  <nBonds>
73

>  <nBondsO>
40

>  <nBondsS>
56

>  <nBondsD>
5

>  <nBondsT>
0

>  <nBondsA>
12

>  <nBondsM>
17

>  <nBondsKS>
62

>  <nBondsKD>
11

>  <RNCG>
0.16

>  <RPCG>
0.1

>  <FCSP3>
0.44

>  <SZ>
46.67

>  <Sm>
43.93

>  <Sv>
43.69

>  <Sse>
70.7

>  <Sp>
46.77

>  <Si>
78.9

>  <MZ>
0.67

>  <Mm>
0.63

>  <Mv>
0.62

>  <Mse>
1.01

>  <Mp>
0.67

>  <Mi>
1.13

>  <NsCH3>
3

>  <NdCH2>
0

>  <NssCH2>
7

>  <NtCH>
0

>  <NdsCH>
0

>  <NaaCH>
7

>  <NsssCH>
1

>  <NddC>
0

>  <NtsC>
0

>  <NdssC>
3

>  <NaasC>
5

>  <NaaaC>
0

>  <NssssC>
1

>  <NsNH3>
0

>  <NsNH2>
0

>  <NssNH2>
0

>  <NdNH>
0

>  <NssNH>
2

>  <NaaNH>
0

>  <NtN>
0

>  <NsssNH>
0

>  <NdsN>
0

>  <NaaN>
0

>  <NsssN>
1

>  <NddsN>
0

>  <NaasN>
0

>  <NssssN>
0

>  <NsOH>
0

>  <NdO>
5

>  <NssO>
1

>  <NaaO>
0

>  <NsF>
0

>  <NsSiH3>
0

>  <NssSiH2>
0

>  <NsssSiH>
0

>  <NssssSi>
0

>  <NsPH2>
0

>  <NssPH>
0

>  <NsssP>
0

>  <NdsssP>
0

>  <NsssssP>
0

>  <NsSH>
0

>  <NdS>
0

>  <NssS>
0

>  <NaaS>
0

>  <NdssS>
0

>  <NddssS>
1

>  <NsCl>
0

>  <NsBr>
0

>  <NsI>
0

>  <fragCpx>
268.1

>  <fMF>
0.4

>  <nHBAcc>
6

>  <nHBDon>
2

>  <Kier1>
29.97

>  <Kier2>
12.67

>  <Lipinski>
0

>  <GhoseFilter>
0

>  <FilterItLogS>
-6.7

>  <VMcGowan>
390.66

>  <LabuteASA>
217.17

>  <PEOE_VSA1>
10.05

>  <PEOE_VSA2>
14.49

>  <PEOE_VSA3>
17.93

>  <PEOE_VSA4>
0

>  <PEOE_VSA5>
0

>  <PEOE_VSA6>
37.46

>  <PEOE_VSA7>
68.5

>  <PEOE_VSA8>
18.15

>  <PEOE_VSA9>
17.42

>  <PEOE_VSA10>
5.75

>  <PEOE_VSA11>
0

>  <PEOE_VSA12>
5.91

>  <PEOE_VSA13>
15.93

>  <SMR_VSA1>
27.54

>  <SMR_VSA2>
0

>  <SMR_VSA3>
14.94

>  <SMR_VSA4>
0

>  <SMR_VSA5>
68.72

>  <SMR_VSA6>
13.65

>  <SMR_VSA7>
59.15

>  <SMR_VSA8>
0

>  <SMR_VSA9>
5.75

>  <SlogP_VSA1>
14.78

>  <SlogP_VSA2>
50.86

>  <SlogP_VSA3>
26.65

>  <SlogP_VSA4>
0

>  <SlogP_VSA5>
67.44

>  <SlogP_VSA6>
47.36

>  <SlogP_VSA7>
0

>  <SlogP_VSA8>
0

>  <SlogP_VSA9>
0

>  <SlogP_VSA10>
4.79

>  <SlogP_VSA11>
5.75

>  <EState_VSA1>
21.47

>  <EState_VSA2>
29.3

>  <EState_VSA3>
23.3

>  <EState_VSA4>
37.67

>  <EState_VSA5>
24.14

>  <EState_VSA6>
44.18

>  <EState_VSA7>
0

>  <EState_VSA8>
10.04

>  <EState_VSA9>
4.74

>  <EState_VSA10>
22.8

>  <VSA_EState1>
32.63

>  <VSA_EState2>
39.74

>  <VSA_EState3>
2.74

>  <VSA_EState4>
0.97

>  <VSA_EState5>
-0.14

>  <VSA_EState6>
10.47

>  <VSA_EState7>
5.21

>  <VSA_EState8>
3.72

>  <VSA_EState9>
-2.51

>  <apol>
78.11

>  <bpol>
46.95

>  <nRing>
4

>  <nHRing>
1

>  <naRing>
2

>  <naHRing>
0

>  <nARing 2>
2

>  <nAHRing 2>
1

>  <nFRing>
1

>  <nFHRing>
1

>  <nFaRing>
0

>  <nFaHRing>
0

>  <nFARing 2>
1

>  <nFAHRing 2>
1

>  <nRot>
7

>  <SLogP>
3.52

>  <SMR>
137.94

>  <TopoPSA(NO)>
121.88

>  <TopoPSA>
130.26

>  <JGI1>
0.25

>  <JGI2>
0.1

>  <JGI3>
0.06

>  <JGI4>
0.05

>  <JGI5>
0.04

>  <Diameter>
20

>  <Radius>
10

>  <TMWC10>
156.71

>  <TSRW10>
74.15

>  <MW>
527.21

>  <AMW>
7.53

>  <WPath>
5028

>  <WPol>
65

>  <Zagreb1>
198

>  <Zagreb2>
235

>  <mZagreb2>
7.99

>  <yes>


>  <nAR-cont>
1

>  <nHA-cont>
0.433355441

>  <MWHBN>
0.348416062

>  <MWHBN-cont>
0.676161607

>  <TPSA-cont>
0

>  <pka_cont>
0.97

>  <yes.1>


>  <BBB_SCORE>
2.93259785

>  <MMFF94 Energy>
-126.31

$$$$
Compound 3096
Actelion Java MolfileCreator 2.0

  0  0  0  0  0  0              0 V3000
M  V30 BEGIN CTAB
M  V30 COUNTS 41 43 0 0 0
M  V30 BEGIN ATOM
M  V30 1 S 0.7344 -0.4079 0.7344 0 CFG=2
M  V30 2 O 0.2936 -1.0981 1.9954 0
M  V30 3 C 0.0829 1.265 0.8757 0
M  V30 4 C -0.3244 -0.9203 -0.6525 0
M  V30 5 N -0.0051 2.1348 -0.1057 0
M  V30 6 N -0.3885 1.778 2.0529 0
M  V30 7 C -0.1057 -2.3603 -1.0399 0
M  V30 8 C -0.5556 3.2572 0.4637 0
M  V30 9 C -0.8162 3.0584 1.8161 0
M  V30 10 N -1.1265 -3.2165 -0.7661 0
M  V30 11 C 1.0815 -2.7756 -1.6585 0
M  V30 12 C -0.8623 4.4951 -0.1142 0
M  V30 13 C -1.3839 4.0324 2.6463 0
M  V30 14 C -0.9617 -4.5082 -1.1078 0
M  V30 15 O 2.0177 -1.8061 -1.9177 0
M  V30 16 C 1.205 -4.122 -2.039 0
M  V30 17 C -1.4284 5.4892 0.6958 0
M  V30 18 C -1.6992 5.262 2.0511 0
M  V30 19 C 0.1664 -5.0023 -1.739 0
M  V30 20 C 3.3511 -2.1602 -1.5544 0
M  V30 21 O 2.3446 -4.4844 -2.7083 0
M  V30 22 O -2.2502 6.3343 2.7017 0
M  V30 23 C 2.4354 -5.8184 -3.1916 0
M  V30 24 C -2.9159 6.0543 3.9215 0
M  V30 25 F -1.9953 5.8273 4.8908 0
M  V30 26 F -3.5891 7.1762 4.2824 0
M  V30 27 H -1.3688 -0.7704 -0.3555 0
M  V30 28 H -0.1268 -0.2734 -1.5141 0
M  V30 29 H -0.4199 1.2674 2.925 0
M  V30 30 H -0.6603 4.6751 -1.1642 0
M  V30 31 H -1.5358 3.8272 3.6993 0
M  V30 32 H -1.7942 -5.1609 -0.8594 0
M  V30 33 H -1.6642 6.4564 0.2554 0
M  V30 34 H 0.1972 -6.0554 -1.986 0
M  V30 35 H 3.3902 -2.8522 -0.7053 0
M  V30 36 H 3.8662 -1.2418 -1.256 0
M  V30 37 H 3.8828 -2.5684 -2.4185 0
M  V30 38 H 2.4511 -6.5356 -2.3646 0
M  V30 39 H 3.3821 -5.9136 -3.7318 0
M  V30 40 H 1.6268 -6.041 -3.8955 0
M  V30 41 H -3.6258 5.2225 3.8527 0
M  V30 END ATOM
M  V30 BEGIN BOND
M  V30 1 2 1 2
M  V30 2 1 1 3
M  V30 3 1 1 4
M  V30 4 2 3 5
M  V30 5 1 3 6
M  V30 6 1 4 7
M  V30 7 1 5 8
M  V30 8 1 6 9
M  V30 9 2 7 10
M  V30 10 1 7 11
M  V30 11 1 8 12
M  V30 12 1 9 13
M  V30 13 1 10 14
M  V30 14 1 11 15
M  V30 15 2 11 16
M  V30 16 2 12 17
M  V30 17 2 13 18
M  V30 18 2 14 19
M  V30 19 1 15 20
M  V30 20 1 16 21
M  V30 21 1 18 22
M  V30 22 1 21 23
M  V30 23 1 22 24
M  V30 24 1 24 25
M  V30 25 1 24 26
M  V30 26 2 8 9
M  V30 27 1 16 19
M  V30 28 1 17 18
M  V30 29 1 4 27
M  V30 30 1 4 28
M  V30 31 1 6 29
M  V30 32 1 12 30
M  V30 33 1 13 31
M  V30 34 1 14 32
M  V30 35 1 17 33
M  V30 36 1 19 34
M  V30 37 1 20 35
M  V30 38 1 20 36
M  V30 39 1 20 37
M  V30 40 1 23 38
M  V30 41 1 23 39
M  V30 42 1 23 40
M  V30 43 1 24 41
M  V30 END BOND
M  V30 BEGIN COLLECTION
M  V30 MDLV30/STERAC1 ATOMS=(1 1)
M  V30 END COLLECTION
M  V30 END CTAB
M  END
>  <Column 1>
3982

>  <level_0>
7770

>  <index>
7772

>  <Unnamed: 0>
7772

>  <NO.>
7785

>  <Name>
pantoprazole

>  <IUPAC_name>
6-(difluoromethoxy)-2-[(3-4-dimethoxypyridin-2-yl)methylsulfinyl]-1h-benzimidazole

>  <SMILES>
COc1ccnc(C[S+]([O-])c2nc3ccc(OC(F)F)cc3[nH]2)c1OC

>  <CID>
4679

>  <logBB>


>  <BBB+/BBB->
BBB-

>  <Inchi>
InChI=1S/C16H15F2N3O4S/c1-23-13-5-6-19-12(14(13)24-2)8-26(22)16-20-10-4-3-9(25-15(17)18)7-11(10)21-16/h3-7-15H-8H2-1-2H3-(H-20-21)

>  <threshold>


>  <reference>
R14|R15|R23|R27|

>  <group>
D

>  <Class>
-1

>  <ABC>
19.97

>  <ABCGG>
16.11

>  <nAcid>
0

>  <nBase>
0

>  <nAromAtom>
15

>  <nAromBond>
16

>  <nAtom>
41

>  <nHeavyAtom>
26

>  <nSpiro>
0

>  <nBridgehead>
0

>  <nHetero>
10

>  <nN>
3

>  <nO>
4

>  <nF>
2

>  <BalabanJ>
1.52

>  <BertzCT>
906.33

>  <nBonds>
43

>  <nBondsO>
28

>  <nBondsS>
27

>  <nBondsD>
0

>  <nBondsT>
0

>  <nBondsA>
16

>  <nBondsM>
16

>  <nBondsKS>
36

>  <nBondsKD>
7

>  <RNCG>
0.19

>  <RPCG>
0.12

>  <FCSP3>
0.25

>  <SZ>
33

>  <Sm>
31.92

>  <Sv>
27.68

>  <Sse>
42.96

>  <Sp>
28.29

>  <Si>
46.84

>  <MZ>
0.8

>  <Mm>
0.78

>  <Mv>
0.68

>  <Mse>
1.05

>  <Mp>
0.69

>  <Mi>
1.14

>  <NsCH3>
2

>  <NdCH2>
0

>  <NssCH2>
1

>  <NtCH>
0

>  <NdsCH>
0

>  <NaaCH>
5

>  <NsssCH>
1

>  <NddC>
0

>  <NtsC>
0

>  <NdssC>
0

>  <NaasC>
5

>  <NaaaC>
2

>  <NssssC>
0

>  <NsNH3>
0

>  <NsNH2>
0

>  <NssNH2>
0

>  <NdNH>
0

>  <NssNH>
0

>  <NaaNH>
1

>  <NtN>
0

>  <NsssNH>
0

>  <NdsN>
0

>  <NaaN>
2

>  <NsssN>
0

>  <NddsN>
0

>  <NaasN>
0

>  <NssssN>
0

>  <NsOH>
0

>  <NdO>
0

>  <NssO>
3

>  <NaaO>
0

>  <NsF>
2

>  <NsSiH3>
0

>  <NssSiH2>
0

>  <NsssSiH>
0

>  <NssssSi>
0

>  <NsPH2>
0

>  <NssPH>
0

>  <NsssP>
0

>  <NdsssP>
0

>  <NsssssP>
0

>  <NsSH>
0

>  <NdS>
0

>  <NssS>
0

>  <NaaS>
0

>  <NdssS>
0

>  <NddssS>
0

>  <NsCl>
0

>  <NsBr>
0

>  <NsI>
0

>  <fragCpx>
134.1

>  <fMF>
0.41

>  <nHBAcc>
6

>  <nHBDon>
1

>  <Kier1>
20.73

>  <Kier2>
9.47

>  <Lipinski>
1

>  <GhoseFilter>
1

>  <FilterItLogS>
-5.41

>  <VMcGowan>
246.91

>  <LabuteASA>
150.04

>  <PEOE_VSA1>
18.76

>  <PEOE_VSA2>
9.97

>  <PEOE_VSA3>
0

>  <PEOE_VSA4>
13.76

>  <PEOE_VSA5>
0

>  <PEOE_VSA6>
0

>  <PEOE_VSA7>
12.13

>  <PEOE_VSA8>
29.51

>  <PEOE_VSA9>
25.25

>  <PEOE_VSA10>
11.44

>  <PEOE_VSA11>
17.25

>  <PEOE_VSA12>
0

>  <PEOE_VSA13>
0

>  <SMR_VSA1>
27.54

>  <SMR_VSA2>
0

>  <SMR_VSA3>
14.95

>  <SMR_VSA4>
0

>  <SMR_VSA5>
17.52

>  <SMR_VSA6>
14.22

>  <SMR_VSA7>
36.16

>  <SMR_VSA8>
0

>  <SMR_VSA9>
17.25

>  <SlogP_VSA1>
14.21

>  <SlogP_VSA2>
40.34

>  <SlogP_VSA3>
16.93

>  <SlogP_VSA4>
0

>  <SlogP_VSA5>
5.69

>  <SlogP_VSA6>
35.62

>  <SlogP_VSA7>
0

>  <SlogP_VSA8>
11.03

>  <SlogP_VSA9>
0

>  <SlogP_VSA10>
8.78

>  <SlogP_VSA11>
17.25

>  <EState_VSA1>
17.79

>  <EState_VSA2>
16.66

>  <EState_VSA3>
28.23

>  <EState_VSA4>
0

>  <EState_VSA5>
38.62

>  <EState_VSA6>
6.07

>  <EState_VSA7>
0

>  <EState_VSA8>
19.69

>  <EState_VSA9>
9.47

>  <EState_VSA10>
13.33

>  <VSA_EState1>
52.07

>  <VSA_EState2>
11.27

>  <VSA_EState3>
0.2

>  <VSA_EState4>
1.38

>  <VSA_EState5>
0.91

>  <VSA_EState6>
5.89

>  <VSA_EState7>
1.53

>  <VSA_EState8>
-2.92

>  <VSA_EState9>
2.97

>  <apol>
47.24

>  <bpol>
29.89

>  <nRing>
3

>  <nHRing>
2

>  <naRing>
3

>  <naHRing>
2

>  <nARing 2>
0

>  <nAHRing 2>
0

>  <nFRing>
1

>  <nFHRing>
1

>  <nFaRing>
1

>  <nFaHRing>
1

>  <nFARing 2>
0

>  <nFAHRing 2>
0

>  <nRot>
7

>  <SLogP>
2.88

>  <SMR>
90.18

>  <TopoPSA(NO)>
92.32

>  <TopoPSA>
92.32

>  <JGI1>
0.21

>  <JGI2>
0.07

>  <JGI3>
0.05

>  <JGI4>
0.05

>  <JGI5>
0.03

>  <Diameter>
14

>  <Radius>
7

>  <TMWC10>
129.54

>  <TSRW10>
74.83

>  <MW>
383.08

>  <AMW>
9.34

>  <WPath>
1806

>  <WPol>
40

>  <Zagreb1>
134

>  <Zagreb2>
157

>  <mZagreb2>
5.86

>  <yes>


>  <nAR-cont>
0.336376

>  <nHA-cont>
0.892715677

>  <MWHBN>
0.357645941

>  <MWHBN-cont>
0.641400034

>  <TPSA-cont>
0.355549073

>  <pka_cont>
0.97

>  <yes.1>


>  <BBB_SCORE>
3.387289874

>  <MMFF94 Energy>
64.631

$$$$
Compound 3097
Actelion Java MolfileCreator 2.0

  0  0  0  0  0  0              0 V3000
M  V30 BEGIN CTAB
M  V30 COUNTS 29 30 0 0 0
M  V30 BEGIN ATOM
M  V30 1 S 3.5537 0.484 2.9068 0
M  V30 2 C 2.2274 0.7582 1.7469 0
M  V30 3 C 3.3805 -1.2998 3.1787 0
M  V30 4 C 1.2725 1.7403 2.0312 0
M  V30 5 C 2.1468 0.0532 0.5409 0
M  V30 6 C 0.2284 1.9932 1.1371 0
M  V30 7 C 1.1041 0.3021 -0.3579 0
M  V30 8 C 0.1297 1.2579 -0.0481 0
M  V30 9 C -0.9778 1.566 -0.9796 0
M  V30 10 O -1.3065 2.7346 -1.1704 0
M  V30 11 C -1.6607 0.4638 -1.7022 0
M  V30 12 N -2.2061 0.7085 -2.9456 0
M  V30 13 C -1.9245 -0.8162 -1.3706 0
M  V30 14 C -2.8115 -0.4481 -3.4304 0
M  V30 15 N -2.6128 -1.394 -2.4184 0
M  V30 16 C -1.6721 -1.6003 -0.1352 0
M  V30 17 O -3.3874 -0.6076 -4.4882 0
M  V30 18 H 2.3599 -1.544 3.4868 0
M  V30 19 H 4.0654 -1.6068 3.9737 0
M  V30 20 H 3.6325 -1.8591 2.2742 0
M  V30 21 H 1.3364 2.3219 2.949 0
M  V30 22 H 2.9072 -0.6775 0.2762 0
M  V30 23 H -0.5015 2.7677 1.3659 0
M  V30 24 H 1.0813 -0.2384 -1.3011 0
M  V30 25 H -2.1931 1.6016 -3.4174 0
M  V30 26 H -2.9664 -2.3376 -2.4722 0
M  V30 27 H -0.8623 -2.3184 -0.2964 0
M  V30 28 H -2.5697 -2.1578 0.1539 0
M  V30 29 H -1.4094 -0.9628 0.7129 0
M  V30 END ATOM
M  V30 BEGIN BOND
M  V30 1 1 1 2
M  V30 2 1 1 3
M  V30 3 2 2 4
M  V30 4 1 2 5
M  V30 5 1 4 6
M  V30 6 2 5 7
M  V30 7 2 6 8
M  V30 8 1 8 9
M  V30 9 2 9 10
M  V30 10 1 9 11
M  V30 11 1 11 12
M  V30 12 2 11 13
M  V30 13 1 12 14
M  V30 14 1 13 15
M  V30 15 1 13 16
M  V30 16 2 14 17
M  V30 17 1 7 8
M  V30 18 1 14 15
M  V30 19 1 3 18
M  V30 20 1 3 19
M  V30 21 1 3 20
M  V30 22 1 4 21
M  V30 23 1 5 22
M  V30 24 1 6 23
M  V30 25 1 7 24
M  V30 26 1 12 25
M  V30 27 1 15 26
M  V30 28 1 16 27
M  V30 29 1 16 28
M  V30 30 1 16 29
M  V30 END BOND
M  V30 END CTAB
M  END
>  <Column 1>
3983

>  <level_0>
7771

>  <index>
7773

>  <Unnamed: 0>
7773

>  <NO.>
7786

>  <Name>
enoximone

>  <IUPAC_name>
4-methyl-5-(4-methylsulfanylbenzoyl)-1-3-dihydroimidazol-2-one

>  <SMILES>
CSc1ccc(C(=O)c2[nH]c(=O)[nH]c2C)cc1

>  <CID>
53708

>  <logBB>


>  <BBB+/BBB->
BBB-

>  <Inchi>
InChI=1S/C12H12N2O2S/c1-7-10(14-12(16)13-7)11(15)8-3-5-9(17-2)6-4-8/h3-6H-1-2H3-(H2-13-14-16)

>  <threshold>


>  <reference>
R14|R23|R27|

>  <group>
D

>  <Class>
-1

>  <ABC>
12.93

>  <ABCGG>
11.57

>  <nAcid>
0

>  <nBase>
0

>  <nAromAtom>
11

>  <nAromBond>
11

>  <nAtom>
29

>  <nHeavyAtom>
17

>  <nSpiro>
0

>  <nBridgehead>
0

>  <nHetero>
5

>  <nN>
2

>  <nO>
2

>  <nF>
0

>  <BalabanJ>
1.86

>  <BertzCT>
595.71

>  <nBonds>
30

>  <nBondsO>
18

>  <nBondsS>
17

>  <nBondsD>
2

>  <nBondsT>
0

>  <nBondsA>
11

>  <nBondsM>
13

>  <nBondsKS>
24

>  <nBondsKD>
6

>  <RNCG>
0.21

>  <RPCG>
0.21

>  <FCSP3>
0.17

>  <SZ>
21.67

>  <Sm>
20.67

>  <Sv>
19.38

>  <Sse>
29.39

>  <Sp>
20.81

>  <Si>
32.41

>  <MZ>
0.75

>  <Mm>
0.71

>  <Mv>
0.67

>  <Mse>
1.01

>  <Mp>
0.72

>  <Mi>
1.12

>  <NsCH3>
2

>  <NdCH2>
0

>  <NssCH2>
0

>  <NtCH>
0

>  <NdsCH>
0

>  <NaaCH>
4

>  <NsssCH>
0

>  <NddC>
0

>  <NtsC>
0

>  <NdssC>
1

>  <NaasC>
4

>  <NaaaC>
0

>  <NssssC>
0

>  <NsNH3>
0

>  <NsNH2>
0

>  <NssNH2>
0

>  <NdNH>
0

>  <NssNH>
0

>  <NaaNH>
2

>  <NtN>
0

>  <NsssNH>
0

>  <NdsN>
0

>  <NaaN>
0

>  <NsssN>
0

>  <NddsN>
0

>  <NaasN>
0

>  <NssssN>
0

>  <NsOH>
0

>  <NdO>
2

>  <NssO>
0

>  <NaaO>
0

>  <NsF>
0

>  <NsSiH3>
0

>  <NssSiH2>
0

>  <NsssSiH>
0

>  <NssssSi>
0

>  <NsPH2>
0

>  <NssPH>
0

>  <NsssP>
0

>  <NdsssP>
0

>  <NsssssP>
0

>  <NsSH>
0

>  <NdS>
0

>  <NssS>
1

>  <NaaS>
0

>  <NdssS>
0

>  <NddssS>
0

>  <NsCl>
0

>  <NsBr>
0

>  <NsI>
0

>  <fragCpx>
52.05

>  <fMF>
0.41

>  <nHBAcc>
3

>  <nHBDon>
2

>  <Kier1>
13.43

>  <Kier2>
5.76

>  <Lipinski>
1

>  <GhoseFilter>
1

>  <FilterItLogS>
-3.89

>  <VMcGowan>
180.47

>  <LabuteASA>
102.46

>  <PEOE_VSA1>
9.97

>  <PEOE_VSA2>
4.79

>  <PEOE_VSA3>
4.79

>  <PEOE_VSA4>
0

>  <PEOE_VSA5>
11.76

>  <PEOE_VSA6>
0

>  <PEOE_VSA7>
37.44

>  <PEOE_VSA8>
16.15

>  <PEOE_VSA9>
0

>  <PEOE_VSA10>
5.69

>  <PEOE_VSA11>
0

>  <PEOE_VSA12>
5.78

>  <PEOE_VSA13>
0

>  <SMR_VSA1>
4.79

>  <SMR_VSA2>
0

>  <SMR_VSA3>
9.97

>  <SMR_VSA4>
0

>  <SMR_VSA5>
11.82

>  <SMR_VSA6>
6.26

>  <SMR_VSA7>
51.7

>  <SMR_VSA8>
0

>  <SMR_VSA9>
0

>  <SlogP_VSA1>
5.69

>  <SlogP_VSA2>
22.01

>  <SlogP_VSA3>
0

>  <SlogP_VSA4>
6.92

>  <SlogP_VSA5>
21.75

>  <SlogP_VSA6>
33.96

>  <SlogP_VSA7>
0

>  <SlogP_VSA8>
0

>  <SlogP_VSA9>
0

>  <SlogP_VSA10>
0

>  <SlogP_VSA11>
0

>  <EState_VSA1>
0

>  <EState_VSA2>
11.47

>  <EState_VSA3>
16.95

>  <EState_VSA4>
4.9

>  <EState_VSA5>
0

>  <EState_VSA6>
30.82

>  <EState_VSA7>
18.39

>  <EState_VSA8>
9.97

>  <EState_VSA9>
0

>  <EState_VSA10>
9.59

>  <VSA_EState1>
0

>  <VSA_EState2>
29.31

>  <VSA_EState3>
0

>  <VSA_EState4>
1.11

>  <VSA_EState5>
-0.17

>  <VSA_EState6>
7.3

>  <VSA_EState7>
1.98

>  <VSA_EState8>
1.7

>  <VSA_EState9>
0

>  <apol>
34.75

>  <bpol>
17.37

>  <nRing>
2

>  <nHRing>
1

>  <naRing>
2

>  <naHRing>
1

>  <nARing 2>
0

>  <nAHRing 2>
0

>  <nFRing>
0

>  <nFHRing>
0

>  <nFaRing>
0

>  <nFaHRing>
0

>  <nFARing 2>
0

>  <nFAHRing 2>
0

>  <nRot>
3

>  <SLogP>
1.96

>  <SMR>
67.81

>  <TopoPSA(NO)>
65.72

>  <TopoPSA>
91.02

>  <JGI1>
0.22

>  <JGI2>
0.09

>  <JGI3>
0.07

>  <JGI4>
0.04

>  <JGI5>
0.03

>  <Diameter>
10

>  <Radius>
5

>  <TMWC10>
106.14

>  <TSRW10>
63.47

>  <MW>
248.06

>  <AMW>
8.55

>  <WPath>
535

>  <WPol>
24

>  <Zagreb1>
86

>  <Zagreb2>
100

>  <mZagreb2>
3.83

>  <yes>


>  <nAR-cont>
0.336376

>  <nHA-cont>
0.976740822

>  <MWHBN>
0.317461917

>  <MWHBN-cont>
0.785626255

>  <TPSA-cont>
0.36462388

>  <pka_cont>
0.97

>  <yes.1>


>  <BBB_SCORE>
3.705803965

>  <MMFF94 Energy>
28.748

$$$$
Compound 3098
Actelion Java MolfileCreator 2.0

  0  0  0  0  0  0              0 V3000
M  V30 BEGIN CTAB
M  V30 COUNTS 40 43 0 0 0
M  V30 BEGIN ATOM
M  V30 1 O 0.7173 1.0362 1.7541 0
M  V30 2 C 0.4374 0.0711 1.0482 0
M  V30 3 N -0.5772 -0.8412 1.3612 0
M  V30 4 C 1.1682 -0.2262 -0.1824 0
M  V30 5 C -1.0638 -1.831 0.384 0
M  V30 6 C -1.3838 -0.612 2.5519 0
M  V30 7 C 2.1477 0.5322 -0.8852 0
M  V30 8 C 0.9928 -1.4073 -0.8791 0
M  V30 9 C 0.0506 -2.4764 -0.4574 0
M  V30 10 C -2.6821 0.0312 2.178 0
M  V30 11 C 2.5368 -0.2204 -2.0016 0
M  V30 12 C 2.7395 1.7965 -0.6801 0
M  V30 13 N 1.8306 -1.4102 -1.9602 0
M  V30 14 N -3.7974 -0.7415 1.914 0
M  V30 15 C -2.9845 1.3727 2.0177 0
M  V30 16 C 3.4876 0.2563 -2.9202 0
M  V30 17 C 3.689 2.275 -1.5879 0
M  V30 18 C 1.9736 -2.4837 -2.919 0
M  V30 19 C -4.7495 0.1069 1.6054 0
M  V30 20 N -4.306 1.3965 1.6514 0
M  V30 21 C -2.1635 2.597 2.1543 0
M  V30 22 C 4.0546 1.5141 -2.6931 0
M  V30 23 H -1.7635 -1.3047 -0.2776 0
M  V30 24 H -1.6163 -2.6172 0.9106 0
M  V30 25 H -1.5623 -1.5791 3.0353 0
M  V30 26 H -0.8461 0.015 3.2709 0
M  V30 27 H 0.5946 -3.2097 0.1494 0
M  V30 28 H -0.3908 -2.9993 -1.3115 0
M  V30 29 H 2.4569 2.3961 0.1816 0
M  V30 30 H 3.7836 -0.327 -3.7857 0
M  V30 31 H 4.1418 3.2496 -1.4249 0
M  V30 32 H 1.6557 -3.4264 -2.468 0
M  V30 33 H 1.3527 -2.2481 -3.7867 0
M  V30 34 H 3.0237 -2.5716 -3.2084 0
M  V30 35 H -5.7667 -0.1485 1.3412 0
M  V30 36 H -4.8562 2.2191 1.4465 0
M  V30 37 H -1.476 2.5125 3.0015 0
M  V30 38 H -1.5761 2.7634 1.2461 0
M  V30 39 H -2.7902 3.4792 2.3214 0
M  V30 40 H 4.7939 1.9014 -3.3903 0
M  V30 END ATOM
M  V30 BEGIN BOND
M  V30 1 2 1 2
M  V30 2 1 2 3
M  V30 3 1 2 4
M  V30 4 1 3 5
M  V30 5 1 3 6
M  V30 6 1 4 7
M  V30 7 2 4 8
M  V30 8 1 5 9
M  V30 9 1 6 10
M  V30 10 2 7 11
M  V30 11 1 7 12
M  V30 12 1 8 13
M  V30 13 1 10 14
M  V30 14 2 10 15
M  V30 15 1 11 16
M  V30 16 2 12 17
M  V30 17 1 13 18
M  V30 18 2 14 19
M  V30 19 1 15 20
M  V30 20 1 15 21
M  V30 21 2 16 22
M  V30 22 1 8 9
M  V30 23 1 11 13
M  V30 24 1 17 22
M  V30 25 1 19 20
M  V30 26 1 5 23
M  V30 27 1 5 24
M  V30 28 1 6 25
M  V30 29 1 6 26
M  V30 30 1 9 27
M  V30 31 1 9 28
M  V30 32 1 12 29
M  V30 33 1 16 30
M  V30 34 1 17 31
M  V30 35 1 18 32
M  V30 36 1 18 33
M  V30 37 1 18 34
M  V30 38 1 19 35
M  V30 39 1 20 36
M  V30 40 1 21 37
M  V30 41 1 21 38
M  V30 42 1 21 39
M  V30 43 1 22 40
M  V30 END BOND
M  V30 END CTAB
M  END
>  <Column 1>
3984

>  <level_0>
7772

>  <index>
7774

>  <Unnamed: 0>
7774

>  <NO.>
7787

>  <Name>
alosetron

>  <IUPAC_name>
5-methyl-2-[(5-methyl-1h-imidazol-4-yl)methyl]-3-4-dihydropyrido[4-3-b]indol-1-one

>  <SMILES>
Cc1[nH]cnc1CN1CCc2c(c3ccccc3n2C)C1=O

>  <CID>
2099

>  <logBB>


>  <BBB+/BBB->
BBB-

>  <Inchi>
InChI=1S/C17H18N4O/c1-11-13(19-10-18-11)9-21-8-7-15-16(17(21)22)12-5-3-4-6-14(12)20(15)2/h3-6-10H-7-9H2-1-2H3-(H-18-19)

>  <threshold>


>  <reference>
R14|R15|R23|

>  <group>
D

>  <Class>
-1

>  <ABC>
17.68

>  <ABCGG>
14.72

>  <nAcid>
0

>  <nBase>
0

>  <nAromAtom>
14

>  <nAromBond>
15

>  <nAtom>
40

>  <nHeavyAtom>
22

>  <nSpiro>
0

>  <nBridgehead>
0

>  <nHetero>
5

>  <nN>
4

>  <nO>
1

>  <nF>
0

>  <BalabanJ>
1.48

>  <BertzCT>
874.05

>  <nBonds>
43

>  <nBondsO>
25

>  <nBondsS>
27

>  <nBondsD>
1

>  <nBondsT>
0

>  <nBondsA>
15

>  <nBondsM>
16

>  <nBondsKS>
36

>  <nBondsKD>
7

>  <RNCG>
0.2

>  <RPCG>
0.14

>  <FCSP3>
0.29

>  <SZ>
26

>  <Sm>
24.51

>  <Sv>
25.62

>  <Sse>
39.97

>  <Sp>
27.3

>  <Si>
45.11

>  <MZ>
0.65

>  <Mm>
0.61

>  <Mv>
0.64

>  <Mse>
1

>  <Mp>
0.68

>  <Mi>
1.13

>  <NsCH3>
2

>  <NdCH2>
0

>  <NssCH2>
3

>  <NtCH>
0

>  <NdsCH>
0

>  <NaaCH>
5

>  <NsssCH>
0

>  <NddC>
0

>  <NtsC>
0

>  <NdssC>
1

>  <NaasC>
4

>  <NaaaC>
2

>  <NssssC>
0

>  <NsNH3>
0

>  <NsNH2>
0

>  <NssNH2>
0

>  <NdNH>
0

>  <NssNH>
0

>  <NaaNH>
1

>  <NtN>
0

>  <NsssNH>
0

>  <NdsN>
0

>  <NaaN>
1

>  <NsssN>
1

>  <NddsN>
0

>  <NaasN>
1

>  <NssssN>
0

>  <NsOH>
0

>  <NdO>
1

>  <NssO>
0

>  <NaaO>
0

>  <NsF>
0

>  <NsSiH3>
0

>  <NssSiH2>
0

>  <NsssSiH>
0

>  <NssssSi>
0

>  <NsPH2>
0

>  <NssPH>
0

>  <NsssP>
0

>  <NdsssP>
0

>  <NsssssP>
0

>  <NsSH>
0

>  <NdS>
0

>  <NssS>
0

>  <NaaS>
0

>  <NdssS>
0

>  <NddssS>
0

>  <NsCl>
0

>  <NsBr>
0

>  <NsI>
0

>  <fragCpx>
163.05

>  <fMF>
0.48

>  <nHBAcc>
3

>  <nHBDon>
1

>  <Kier1>
15.52

>  <Kier2>
6.14

>  <Lipinski>
1

>  <GhoseFilter>
1

>  <FilterItLogS>
-4.28

>  <VMcGowan>
222.64

>  <LabuteASA>
128.12

>  <PEOE_VSA1>
14.45

>  <PEOE_VSA2>
4.79

>  <PEOE_VSA3>
4.98

>  <PEOE_VSA4>
0

>  <PEOE_VSA5>
0

>  <PEOE_VSA6>
18.2

>  <PEOE_VSA7>
12.99

>  <PEOE_VSA8>
42.3

>  <PEOE_VSA9>
24.13

>  <PEOE_VSA10>
0

>  <PEOE_VSA11>
0

>  <PEOE_VSA12>
0

>  <PEOE_VSA13>
5.91

>  <SMR_VSA1>
4.79

>  <SMR_VSA2>
0

>  <SMR_VSA3>
19.43

>  <SMR_VSA4>
7.05

>  <SMR_VSA5>
19.89

>  <SMR_VSA6>
6.54

>  <SMR_VSA7>
53.24

>  <SMR_VSA8>
0

>  <SMR_VSA9>
0

>  <SlogP_VSA1>
0

>  <SlogP_VSA2>
31.89

>  <SlogP_VSA3>
20.01

>  <SlogP_VSA4>
6.92

>  <SlogP_VSA5>
27.44

>  <SlogP_VSA6>
30.59

>  <SlogP_VSA7>
0

>  <SlogP_VSA8>
10.9

>  <SlogP_VSA9>
0

>  <SlogP_VSA10>
0

>  <SlogP_VSA11>
0

>  <EState_VSA1>
0

>  <EState_VSA2>
5.91

>  <EState_VSA3>
6.54

>  <EState_VSA4>
46.51

>  <EState_VSA5>
0

>  <EState_VSA6>
6.33

>  <EState_VSA7>
37.07

>  <EState_VSA8>
20.6

>  <EState_VSA9>
0

>  <EState_VSA10>
4.79

>  <VSA_EState1>
2.15

>  <VSA_EState2>
22.24

>  <VSA_EState3>
1.05

>  <VSA_EState4>
5.09

>  <VSA_EState5>
0.11

>  <VSA_EState6>
8.12

>  <VSA_EState7>
2.57

>  <VSA_EState8>
3.29

>  <VSA_EState9>
2.04

>  <apol>
45.59

>  <bpol>
24.06

>  <nRing>
4

>  <nHRing>
3

>  <naRing>
3

>  <naHRing>
2

>  <nARing 2>
1

>  <nAHRing 2>
1

>  <nFRing>
1

>  <nFHRing>
1

>  <nFaRing>
0

>  <nFaHRing>
0

>  <nFARing 2>
1

>  <nFAHRing 2>
1

>  <nRot>
2

>  <SLogP>
2.41

>  <SMR>
84.69

>  <TopoPSA(NO)>
53.92

>  <TopoPSA>
53.92

>  <JGI1>
0.14

>  <JGI2>
0.08

>  <JGI3>
0.07

>  <JGI4>
0.04

>  <JGI5>
0.03

>  <Diameter>
10

>  <Radius>
5

>  <TMWC10>
123.43

>  <TSRW10>
72.98

>  <MW>
294.15

>  <AMW>
7.35

>  <WPath>
997

>  <WPol>
38

>  <Zagreb1>
124

>  <Zagreb2>
153

>  <mZagreb2>
4.72

>  <yes>


>  <nAR-cont>
0.816016

>  <nHA-cont>
0.983774276

>  <MWHBN>
0.233225249

>  <MWHBN-cont>
0.983348347

>  <TPSA-cont>
0.623604918

>  <pka_cont>
0.97

>  <yes.1>


>  <BBB_SCORE>
5.007022632

>  <MMFF94 Energy>
38.366

$$$$
Compound 3099
Actelion Java MolfileCreator 2.0

  0  0  0  0  0  0              0 V3000
M  V30 BEGIN CTAB
M  V30 COUNTS 40 40 0 0 0
M  V30 BEGIN ATOM
M  V30 1 O 0.4684 0.7026 -4.5351 0
M  V30 2 C 0.145 -0.3784 -4.0705 0
M  V30 3 O 0.6698 -1.5082 -4.5869 0
M  V30 4 C -0.8051 -0.6296 -2.9006 0
M  V30 5 C 0.0468 -1.1144 -1.7008 0
M  V30 6 C -1.5279 0.6888 -2.5737 0
M  V30 7 C -1.8526 -1.6723 -3.3226 0
M  V30 8 C -0.7352 -1.4123 -0.413 0
M  V30 9 C 0.1782 -1.9153 0.7092 0
M  V30 10 O 1.2193 -0.9882 1.0078 0
M  V30 11 C 0.9626 0.0821 1.8226 0
M  V30 12 C 2.0227 0.9956 1.9657 0
M  V30 13 C -0.2411 0.3163 2.4957 0
M  V30 14 C 1.8542 2.1303 2.7717 0
M  V30 15 C 3.3287 0.7758 1.2528 0
M  V30 16 C -0.4022 1.4449 3.3147 0
M  V30 17 C 0.6496 2.3556 3.4366 0
M  V30 18 C -1.7112 1.7014 4.0021 0
M  V30 19 H 1.2624 -1.1848 -5.2976 0
M  V30 20 H 0.5952 -2.0216 -1.9887 0
M  V30 21 H 0.8161 -0.3593 -1.4899 0
M  V30 22 H -2.2997 0.5528 -1.809 0
M  V30 23 H -2.0206 1.1002 -3.4629 0
M  V30 24 H -0.8244 1.4474 -2.2115 0
M  V30 25 H -2.3192 -1.3969 -4.2759 0
M  V30 26 H -1.4026 -2.6626 -3.4552 0
M  V30 27 H -2.6522 -1.7676 -2.5804 0
M  V30 28 H -1.4991 -2.1739 -0.6009 0
M  V30 29 H -1.2491 -0.5042 -0.084 0
M  V30 30 H -0.3864 -2.2011 1.6034 0
M  V30 31 H 0.6724 -2.8344 0.3723 0
M  V30 32 H -1.0801 -0.3644 2.4024 0
M  V30 33 H 2.6623 2.8496 2.8838 0
M  V30 34 H 4.0517 1.5647 1.4856 0
M  V30 35 H 3.7716 -0.178 1.557 0
M  V30 36 H 3.173 0.7765 0.1691 0
M  V30 37 H 0.5396 3.2467 4.0505 0
M  V30 38 H -2.3822 2.2516 3.3352 0
M  V30 39 H -1.5659 2.2853 4.9172 0
M  V30 40 H -2.1906 0.7603 4.2911 0
M  V30 END ATOM
M  V30 BEGIN BOND
M  V30 1 2 1 2
M  V30 2 1 2 3
M  V30 3 1 2 4
M  V30 4 1 4 5
M  V30 5 1 4 6
M  V30 6 1 4 7
M  V30 7 1 5 8
M  V30 8 1 8 9
M  V30 9 1 9 10
M  V30 10 1 10 11
M  V30 11 2 11 12
M  V30 12 1 11 13
M  V30 13 1 12 14
M  V30 14 1 12 15
M  V30 15 2 13 16
M  V30 16 2 14 17
M  V30 17 1 16 18
M  V30 18 1 16 17
M  V30 19 1 3 19
M  V30 20 1 5 20
M  V30 21 1 5 21
M  V30 22 1 6 22
M  V30 23 1 6 23
M  V30 24 1 6 24
M  V30 25 1 7 25
M  V30 26 1 7 26
M  V30 27 1 7 27
M  V30 28 1 8 28
M  V30 29 1 8 29
M  V30 30 1 9 30
M  V30 31 1 9 31
M  V30 32 1 13 32
M  V30 33 1 14 33
M  V30 34 1 15 34
M  V30 35 1 15 35
M  V30 36 1 15 36
M  V30 37 1 17 37
M  V30 38 1 18 38
M  V30 39 1 18 39
M  V30 40 1 18 40
M  V30 END BOND
M  V30 END CTAB
M  END
>  <Column 1>
3985

>  <level_0>
7773

>  <index>
7775

>  <Unnamed: 0>
7775

>  <NO.>
7788

>  <Name>
gemfibrozil

>  <IUPAC_name>
5-(2-5-dimethylphenoxy)-2-2-dimethylpentanoic acid

>  <SMILES>
Cc1ccc(C)c(OCCCC(C)(C)C(=O)O)c1

>  <CID>
3463

>  <logBB>


>  <BBB+/BBB->
BBB-

>  <Inchi>
InChI=1S/C15H22O3/c1-11-6-7-12(2)13(10-11)18-9-5-8-15(3-4)14(16)17/h6-7-10H-5-8-9H2-1-4H3-(H-16-17)

>  <threshold>


>  <reference>
R14|R15|R23|R27|

>  <group>
D

>  <Class>
-1

>  <ABC>
13.38

>  <ABCGG>
11.89

>  <nAcid>
1

>  <nBase>
0

>  <nAromAtom>
6

>  <nAromBond>
6

>  <nAtom>
40

>  <nHeavyAtom>
18

>  <nSpiro>
0

>  <nBridgehead>
0

>  <nHetero>
3

>  <nN>
0

>  <nO>
3

>  <nF>
0

>  <BalabanJ>
2.21

>  <BertzCT>
421.75

>  <nBonds>
40

>  <nBondsO>
18

>  <nBondsS>
33

>  <nBondsD>
1

>  <nBondsT>
0

>  <nBondsA>
6

>  <nBondsM>
7

>  <nBondsKS>
36

>  <nBondsKD>
4

>  <RNCG>
0.3

>  <RPCG>
0.19

>  <FCSP3>
0.53

>  <SZ>
22.67

>  <Sm>
20.84

>  <Sv>
23.1

>  <Sse>
39.76

>  <Sp>
25.22

>  <Si>
45.2

>  <MZ>
0.57

>  <Mm>
0.52

>  <Mv>
0.58

>  <Mse>
0.99

>  <Mp>
0.63

>  <Mi>
1.13

>  <NsCH3>
4

>  <NdCH2>
0

>  <NssCH2>
3

>  <NtCH>
0

>  <NdsCH>
0

>  <NaaCH>
3

>  <NsssCH>
0

>  <NddC>
0

>  <NtsC>
0

>  <NdssC>
1

>  <NaasC>
3

>  <NaaaC>
0

>  <NssssC>
1

>  <NsNH3>
0

>  <NsNH2>
0

>  <NssNH2>
0

>  <NdNH>
0

>  <NssNH>
0

>  <NaaNH>
0

>  <NtN>
0

>  <NsssNH>
0

>  <NdsN>
0

>  <NaaN>
0

>  <NsssN>
0

>  <NddsN>
0

>  <NaasN>
0

>  <NssssN>
0

>  <NsOH>
1

>  <NdO>
1

>  <NssO>
1

>  <NaaO>
0

>  <NsF>
0

>  <NsSiH3>
0

>  <NssSiH2>
0

>  <NsssSiH>
0

>  <NssssSi>
0

>  <NsPH2>
0

>  <NssPH>
0

>  <NsssP>
0

>  <NdsssP>
0

>  <NsssssP>
0

>  <NsSH>
0

>  <NdS>
0

>  <NssS>
0

>  <NaaS>
0

>  <NdssS>
0

>  <NddssS>
0

>  <NsCl>
0

>  <NsBr>
0

>  <NsI>
0

>  <fragCpx>
18.03

>  <fMF>
0.15

>  <nHBAcc>
2

>  <nHBDon>
1

>  <Kier1>
16.06

>  <Kier2>
6.96

>  <Lipinski>
1

>  <GhoseFilter>
1

>  <FilterItLogS>
-3.87

>  <VMcGowan>
211.76

>  <LabuteASA>
108.79

>  <PEOE_VSA1>
9.84

>  <PEOE_VSA2>
4.79

>  <PEOE_VSA3>
0

>  <PEOE_VSA4>
0

>  <PEOE_VSA5>
0

>  <PEOE_VSA6>
12.13

>  <PEOE_VSA7>
57.73

>  <PEOE_VSA8>
0

>  <PEOE_VSA9>
12.02

>  <PEOE_VSA10>
5.75

>  <PEOE_VSA11>
0

>  <PEOE_VSA12>
0

>  <PEOE_VSA13>
0

>  <SMR_VSA1>
14.64

>  <SMR_VSA2>
0

>  <SMR_VSA3>
0

>  <SMR_VSA4>
5.41

>  <SMR_VSA5>
40.54

>  <SMR_VSA6>
6.61

>  <SMR_VSA7>
29.33

>  <SMR_VSA8>
0

>  <SMR_VSA9>
5.75

>  <SlogP_VSA1>
4.74

>  <SlogP_VSA2>
17.68

>  <SlogP_VSA3>
4.79

>  <SlogP_VSA4>
19.26

>  <SlogP_VSA5>
37.82

>  <SlogP_VSA6>
18.2

>  <SlogP_VSA7>
0

>  <SlogP_VSA8>
0

>  <SlogP_VSA9>
0

>  <SlogP_VSA10>
0

>  <SlogP_VSA11>
5.75

>  <EState_VSA1>
11.38

>  <EState_VSA2>
0

>  <EState_VSA3>
13.03

>  <EState_VSA4>
17.73

>  <EState_VSA5>
5.56

>  <EState_VSA6>
13.85

>  <EState_VSA7>
25.98

>  <EState_VSA8>
6.07

>  <EState_VSA9>
9.84

>  <EState_VSA10>
4.79

>  <VSA_EState1>
5.7

>  <VSA_EState2>
10.94

>  <VSA_EState3>
9

>  <VSA_EState4>
1.6

>  <VSA_EState5>
0.14

>  <VSA_EState6>
6.1

>  <VSA_EState7>
1.36

>  <VSA_EState8>
8.08

>  <VSA_EState9>
0

>  <apol>
42.13

>  <bpol>
24.67

>  <nRing>
1

>  <nHRing>
0

>  <naRing>
1

>  <naHRing>
0

>  <nARing 2>
0

>  <nAHRing 2>
0

>  <nFRing>
0

>  <nFHRing>
0

>  <nFaRing>
0

>  <nFaHRing>
0

>  <nFARing 2>
0

>  <nFAHRing 2>
0

>  <nRot>
6

>  <SLogP>
3.57

>  <SMR>
72.06

>  <TopoPSA(NO)>
46.53

>  <TopoPSA>
46.53

>  <JGI1>
0.31

>  <JGI2>
0.12

>  <JGI3>
0.04

>  <JGI4>
0.05

>  <JGI5>
0.02

>  <Diameter>
10

>  <Radius>
5

>  <TMWC10>
105.66

>  <TSRW10>
50.49

>  <MW>
250.16

>  <AMW>
6.25

>  <WPath>
705

>  <WPol>
24

>  <Zagreb1>
86

>  <Zagreb2>
95

>  <mZagreb2>
3.99

>  <yes>


>  <nAR-cont>
0.336376

>  <nHA-cont>
0.991161285

>  <MWHBN>
0.189675973

>  <MWHBN-cont>
0.995437885

>  <TPSA-cont>
0.675191707

>  <pka_cont>
0.97

>  <yes.1>


>  <BBB_SCORE>
4.656077526

>  <MMFF94 Energy>
16.934

$$$$
Compound 3100
Actelion Java MolfileCreator 2.0

  0  0  0  0  0  0              0 V3000
M  V30 BEGIN CTAB
M  V30 COUNTS 44 45 0 0 0
M  V30 BEGIN ATOM
M  V30 1 S -0.558 2.0741 -0.7175 0
M  V30 2 O -0.9402 3.1519 -1.6001 0
M  V30 3 O 0.0833 2.3635 0.5534 0
M  V30 4 N -1.8975 1.1865 -0.2897 0
M  V30 5 C 0.4622 0.9351 -1.5888 0
M  V30 6 C -2.8619 0.715 -1.1613 0
M  V30 7 C 1.5206 0.2306 -0.9919 0
M  V30 8 C 0.2136 0.7734 -2.9463 0
M  V30 9 O -2.7914 0.8376 -2.3714 0
M  V30 10 N -3.884 0.0869 -0.5119 0
M  V30 11 N 1.8918 0.4118 0.3567 0
M  V30 12 C 2.1901 -0.6969 -1.802 0
M  V30 13 N 0.8921 -0.09 -3.737 0
M  V30 14 C -5.0258 -0.4689 -1.2237 0
M  V30 15 C 3.0628 0.0934 1.0736 0
M  V30 16 C 1.8529 -0.8188 -3.1417 0
M  V30 17 C -5.5939 -1.6587 -0.4566 0
M  V30 18 C -6.0933 0.6016 -1.4347 0
M  V30 19 C 2.9518 -0.1891 2.4441 0
M  V30 20 C 4.3294 0.0301 0.4861 0
M  V30 21 C 4.0737 -0.5261 3.2166 0
M  V30 22 C 5.4531 -0.3166 1.2405 0
M  V30 23 C 5.3247 -0.6019 2.5984 0
M  V30 24 C 3.9216 -0.8596 4.6709 0
M  V30 25 H -1.9771 1.048 0.7077 0
M  V30 26 H -0.5641 1.3355 -3.4602 0
M  V30 27 H -3.8967 0.0846 0.4952 0
M  V30 28 H 1.3049 1.0667 0.8835 0
M  V30 29 H 2.9664 -1.3406 -1.4034 0
M  V30 30 H -4.6836 -0.8181 -2.2053 0
M  V30 31 H 2.3665 -1.5273 -3.7856 0
M  V30 32 H -5.9451 -1.3609 0.5378 0
M  V30 33 H -4.8291 -2.4308 -0.3183 0
M  V30 34 H -6.4348 -2.1069 -0.9959 0
M  V30 35 H -6.9515 0.1958 -1.9803 0
M  V30 36 H -6.4521 0.9978 -0.4779 0
M  V30 37 H -5.695 1.4441 -2.0105 0
M  V30 38 H 1.9724 -0.1551 2.9167 0
M  V30 39 H 4.4675 0.2865 -0.5601 0
M  V30 40 H 6.4308 -0.3562 0.7675 0
M  V30 41 H 6.2075 -0.8756 3.1717 0
M  V30 42 H 3.7079 -1.9263 4.7898 0
M  V30 43 H 4.8345 -0.6177 5.2255 0
M  V30 44 H 3.1067 -0.2823 5.1205 0
M  V30 END ATOM
M  V30 BEGIN BOND
M  V30 1 2 1 2
M  V30 2 2 1 3
M  V30 3 1 1 4
M  V30 4 1 1 5
M  V30 5 1 4 6
M  V30 6 2 5 7
M  V30 7 1 5 8
M  V30 8 2 6 9
M  V30 9 1 6 10
M  V30 10 1 7 11
M  V30 11 1 7 12
M  V30 12 2 8 13
M  V30 13 1 10 14
M  V30 14 1 11 15
M  V30 15 2 12 16
M  V30 16 1 14 17
M  V30 17 1 14 18
M  V30 18 2 15 19
M  V30 19 1 15 20
M  V30 20 1 19 21
M  V30 21 2 20 22
M  V30 22 2 21 23
M  V30 23 1 21 24
M  V30 24 1 13 16
M  V30 25 1 22 23
M  V30 26 1 4 25
M  V30 27 1 8 26
M  V30 28 1 10 27
M  V30 29 1 11 28
M  V30 30 1 12 29
M  V30 31 1 14 30
M  V30 32 1 16 31
M  V30 33 1 17 32
M  V30 34 1 17 33
M  V30 35 1 17 34
M  V30 36 1 18 35
M  V30 37 1 18 36
M  V30 38 1 18 37
M  V30 39 1 19 38
M  V30 40 1 20 39
M  V30 41 1 22 40
M  V30 42 1 23 41
M  V30 43 1 24 42
M  V30 44 1 24 43
M  V30 45 1 24 44
M  V30 END BOND
M  V30 END CTAB
M  END
>  <Column 1>
3986

>  <level_0>
7775

>  <index>
7777

>  <Unnamed: 0>
7777

>  <NO.>
7790

>  <Name>
torasemide

>  <IUPAC_name>
1-[4-(3-methylanilino)pyridin-3-yl]sulfonyl-3-propan-2-ylurea

>  <SMILES>
Cc1cccc(Nc2ccncc2S(=O)(=O)NC(=O)NC(C)C)c1

>  <CID>
41781

>  <logBB>


>  <BBB+/BBB->
BBB-

>  <Inchi>
InChI=1S/C16H20N4O3S/c1-11(2)18-16(21)20-24(22-23)15-10-17-8-7-14(15)19-13-6-4-5-12(3)9-13/h4-11H-1-3H3-(H-17-19)(H2-18-20-21)

>  <threshold>


>  <reference>
R14|R15|R23|R27|

>  <group>
D

>  <Class>
-1

>  <ABC>
18.33

>  <ABCGG>
15.53

>  <nAcid>
0

>  <nBase>
0

>  <nAromAtom>
12

>  <nAromBond>
12

>  <nAtom>
44

>  <nHeavyAtom>
24

>  <nSpiro>
0

>  <nBridgehead>
0

>  <nHetero>
8

>  <nN>
4

>  <nO>
3

>  <nF>
0

>  <BalabanJ>
1.96

>  <BertzCT>
834.72

>  <nBonds>
45

>  <nBondsO>
25

>  <nBondsS>
30

>  <nBondsD>
3

>  <nBondsT>
0

>  <nBondsA>
12

>  <nBondsM>
15

>  <nBondsKS>
36

>  <nBondsKD>
9

>  <RNCG>
0.16

>  <RPCG>
0.15

>  <FCSP3>
0.25

>  <SZ>
30.67

>  <Sm>
29.01

>  <Sv>
27.78

>  <Sse>
44.6

>  <Sp>
29.8

>  <Si>
49.86

>  <MZ>
0.7

>  <Mm>
0.66

>  <Mv>
0.63

>  <Mse>
1.01

>  <Mp>
0.68

>  <Mi>
1.13

>  <NsCH3>
3

>  <NdCH2>
0

>  <NssCH2>
0

>  <NtCH>
0

>  <NdsCH>
0

>  <NaaCH>
7

>  <NsssCH>
1

>  <NddC>
0

>  <NtsC>
0

>  <NdssC>
1

>  <NaasC>
4

>  <NaaaC>
0

>  <NssssC>
0

>  <NsNH3>
0

>  <NsNH2>
0

>  <NssNH2>
0

>  <NdNH>
0

>  <NssNH>
3

>  <NaaNH>
0

>  <NtN>
0

>  <NsssNH>
0

>  <NdsN>
0

>  <NaaN>
1

>  <NsssN>
0

>  <NddsN>
0

>  <NaasN>
0

>  <NssssN>
0

>  <NsOH>
0

>  <NdO>
3

>  <NssO>
0

>  <NaaO>
0

>  <NsF>
0

>  <NsSiH3>
0

>  <NssSiH2>
0

>  <NsssSiH>
0

>  <NssssSi>
0

>  <NsPH2>
0

>  <NssPH>
0

>  <NsssP>
0

>  <NdsssP>
0

>  <NsssssP>
0

>  <NsSH>
0

>  <NdS>
0

>  <NssS>
0

>  <NaaS>
0

>  <NdssS>
0

>  <NddssS>
1

>  <NsCl>
0

>  <NsBr>
0

>  <NsI>
0

>  <fragCpx>
73.08

>  <fMF>
0.3

>  <nHBAcc>
5

>  <nHBDon>
3

>  <Kier1>
20.31

>  <Kier2>
9.09

>  <Lipinski>
1

>  <GhoseFilter>
1

>  <FilterItLogS>
-4.68

>  <VMcGowan>
258.36

>  <LabuteASA>
141.1

>  <PEOE_VSA1>
10.63

>  <PEOE_VSA2>
4.98

>  <PEOE_VSA3>
17.93

>  <PEOE_VSA4>
0

>  <PEOE_VSA5>
0

>  <PEOE_VSA6>
12.13

>  <PEOE_VSA7>
44.53

>  <PEOE_VSA8>
24.12

>  <PEOE_VSA9>
5.69

>  <PEOE_VSA10>
4.9

>  <PEOE_VSA11>
0

>  <PEOE_VSA12>
0

>  <PEOE_VSA13>
10.02

>  <SMR_VSA1>
13.21

>  <SMR_VSA2>
0

>  <SMR_VSA3>
15.02

>  <SMR_VSA4>
0

>  <SMR_VSA5>
31.71

>  <SMR_VSA6>
5.32

>  <SMR_VSA7>
48.29

>  <SMR_VSA8>
0

>  <SMR_VSA9>
0

>  <SlogP_VSA1>
15.36

>  <SlogP_VSA2>
25.47

>  <SlogP_VSA3>
10.02

>  <SlogP_VSA4>
6.92

>  <SlogP_VSA5>
19.41

>  <SlogP_VSA6>
47.62

>  <SlogP_VSA7>
0

>  <SlogP_VSA8>
0

>  <SlogP_VSA9>
0

>  <SlogP_VSA10>
16.17

>  <SlogP_VSA11>
0

>  <EState_VSA1>
16.05

>  <EState_VSA2>
10.94

>  <EState_VSA3>
5.69

>  <EState_VSA4>
11.25

>  <EState_VSA5>
18.46

>  <EState_VSA6>
13.85

>  <EState_VSA7>
35.91

>  <EState_VSA8>
15.62

>  <EState_VSA9>
0

>  <EState_VSA10>
13.21

>  <VSA_EState1>
26.88

>  <VSA_EState2>
15.46

>  <VSA_EState3>
5.52

>  <VSA_EState4>
2.11

>  <VSA_EState5>
0

>  <VSA_EState6>
8.08

>  <VSA_EState7>
2.68

>  <VSA_EState8>
5.41

>  <VSA_EState9>
-4.05

>  <apol>
49.76

>  <bpol>
30.44

>  <nRing>
2

>  <nHRing>
1

>  <naRing>
2

>  <naHRing>
1

>  <nARing 2>
0

>  <nAHRing 2>
0

>  <nFRing>
0

>  <nFHRing>
0

>  <nFaRing>
0

>  <nFaHRing>
0

>  <nFARing 2>
0

>  <nFAHRing 2>
0

>  <nRot>
5

>  <SLogP>
2.53

>  <SMR>
92.69

>  <TopoPSA(NO)>
100.19

>  <TopoPSA>
108.57

>  <JGI1>
0.28

>  <JGI2>
0.08

>  <JGI3>
0.07

>  <JGI4>
0.03

>  <JGI5>
0.03

>  <Diameter>
12

>  <Radius>
6

>  <TMWC10>
122.83

>  <TSRW10>
58.25

>  <MW>
348.13

>  <AMW>
7.91

>  <WPath>
1387

>  <WPol>
34

>  <Zagreb1>
120

>  <Zagreb2>
135

>  <mZagreb2>
5.24

>  <yes>


>  <nAR-cont>
0.336376

>  <nHA-cont>
0.94700071

>  <MWHBN>
0.428764936

>  <MWHBN-cont>
0.364396535

>  <TPSA-cont>
0.242113982

>  <pka_cont>
0.97

>  <yes.1>


>  <BBB_SCORE>
2.799199476

>  <MMFF94 Energy>
-159.29

$$$$
Compound 3101
Actelion Java MolfileCreator 2.0

  0  0  0  0  0  0              0 V3000
M  V30 BEGIN CTAB
M  V30 COUNTS 58 60 0 0 0
M  V30 BEGIN ATOM
M  V30 1 S -3.7709 -0.3205 -0.5609 0
M  V30 2 O -4.928 0.5398 -0.6689 0
M  V30 3 O -3.8832 -1.7647 -0.5786 0
M  V30 4 N -2.7146 0.1165 -1.7619 0
M  V30 5 C -2.8844 0.151 0.9022 0
M  V30 6 C -1.3987 -0.3031 -1.9016 0
M  V30 7 C -2.3977 -0.8288 1.7691 0
M  V30 8 C -2.6347 1.5055 1.1362 0
M  V30 9 O -0.6039 0.4234 -2.4766 0
M  V30 10 N -1.1002 -1.5324 -1.4047 0
M  V30 11 C -1.6021 -0.4512 2.8495 0
M  V30 12 C -1.8398 1.8762 2.2198 0
M  V30 13 C 0.2403 -2.0975 -1.4346 0
M  V30 14 C -1.299 0.9001 3.0704 0
M  V30 15 C 0.5004 -2.9487 -0.1857 0
M  V30 16 C 0.46 -2.9083 -2.718 0
M  V30 17 C -0.3355 1.2921 4.1662 0
M  V30 18 C -0.2685 -4.2695 -0.1953 0
M  V30 19 C -0.3226 -4.2211 -2.7206 0
M  V30 20 C 1.1323 1.0476 3.7882 0
M  V30 21 C -0.0243 -5.056 -1.4791 0
M  V30 22 N 1.5708 1.8811 2.6871 0
M  V30 23 C 1.6645 1.4346 1.3834 0
M  V30 24 O 1.4651 0.2791 1.0293 0
M  V30 25 C 2.041 2.4958 0.4056 0
M  V30 26 N 2.2967 3.7395 0.9122 0
M  V30 27 C 2.1235 2.2094 -0.9467 0
M  V30 28 C 2.648 4.6655 -0.012 0
M  V30 29 N 2.4829 3.1487 -1.8609 0
M  V30 30 C 2.7442 4.3866 -1.3734 0
M  V30 31 C 3.1396 5.4534 -2.345 0
M  V30 32 H -2.9302 1.011 -2.1897 0
M  V30 33 H -2.5955 -1.8834 1.5944 0
M  V30 34 H -3.0272 2.2689 0.4692 0
M  V30 35 H -1.8749 -2.1146 -1.1052 0
M  V30 36 H -1.186 -1.2207 3.4964 0
M  V30 37 H -1.6128 2.9285 2.3776 0
M  V30 38 H 0.9492 -1.2608 -1.4333 0
M  V30 39 H 1.5738 -3.1693 -0.1266 0
M  V30 40 H 0.2435 -2.3863 0.7194 0
M  V30 41 H 1.5292 -3.1357 -2.8154 0
M  V30 42 H 0.1805 -2.3174 -3.5984 0
M  V30 43 H -0.5784 0.7207 5.0707 0
M  V30 44 H -0.4814 2.3486 4.4253 0
M  V30 45 H 0.0333 -4.8739 0.6677 0
M  V30 46 H -1.342 -4.0766 -0.0825 0
M  V30 47 H -1.398 -4.0119 -2.772 0
M  V30 48 H -0.069 -4.7961 -3.6184 0
M  V30 49 H 1.7714 1.2971 4.6417 0
M  V30 50 H 1.3009 -0.0057 3.5391 0
M  V30 51 H -0.6469 -5.9577 -1.4828 0
M  V30 52 H 1.0201 -5.3896 -1.5078 0
M  V30 53 H 1.7879 2.8628 2.8413 0
M  V30 54 H 1.9024 1.2233 -1.3413 0
M  V30 55 H 2.8563 5.6575 0.3761 0
M  V30 56 H 2.4198 6.2773 -2.316 0
M  V30 57 H 4.1351 5.837 -2.1016 0
M  V30 58 H 3.1662 5.0598 -3.3661 0
M  V30 END ATOM
M  V30 BEGIN BOND
M  V30 1 2 1 2
M  V30 2 2 1 3
M  V30 3 1 1 4
M  V30 4 1 1 5
M  V30 5 1 4 6
M  V30 6 2 5 7
M  V30 7 1 5 8
M  V30 8 2 6 9
M  V30 9 1 6 10
M  V30 10 1 7 11
M  V30 11 2 8 12
M  V30 12 1 10 13
M  V30 13 2 11 14
M  V30 14 1 13 15
M  V30 15 1 13 16
M  V30 16 1 14 17
M  V30 17 1 15 18
M  V30 18 1 16 19
M  V30 19 1 17 20
M  V30 20 1 18 21
M  V30 21 1 20 22
M  V30 22 1 22 23
M  V30 23 2 23 24
M  V30 24 1 23 25
M  V30 25 2 25 26
M  V30 26 1 25 27
M  V30 27 1 26 28
M  V30 28 2 27 29
M  V30 29 2 28 30
M  V30 30 1 30 31
M  V30 31 1 12 14
M  V30 32 1 19 21
M  V30 33 1 29 30
M  V30 34 1 4 32
M  V30 35 1 7 33
M  V30 36 1 8 34
M  V30 37 1 10 35
M  V30 38 1 11 36
M  V30 39 1 12 37
M  V30 40 1 13 38
M  V30 41 1 15 39
M  V30 42 1 15 40
M  V30 43 1 16 41
M  V30 44 1 16 42
M  V30 45 1 17 43
M  V30 46 1 17 44
M  V30 47 1 18 45
M  V30 48 1 18 46
M  V30 49 1 19 47
M  V30 50 1 19 48
M  V30 51 1 20 49
M  V30 52 1 20 50
M  V30 53 1 21 51
M  V30 54 1 21 52
M  V30 55 1 22 53
M  V30 56 1 27 54
M  V30 57 1 28 55
M  V30 58 1 31 56
M  V30 59 1 31 57
M  V30 60 1 31 58
M  V30 END BOND
M  V30 END CTAB
M  END
>  <Column 1>
3987

>  <level_0>
7776

>  <index>
7778

>  <Unnamed: 0>
7778

>  <NO.>
7791

>  <Name>
glipizide

>  <IUPAC_name>
n-[2-[4-(cyclohexylcarbamoylsulfamoyl)phenyl]ethyl]-5-methylpyrazine-2-carboxamide

>  <SMILES>
Cc1cnc(C(=O)NCCc2ccc(S(=O)(=O)NC(=O)NC3CCCCC3)cc2)cn1

>  <CID>
3478

>  <logBB>


>  <BBB+/BBB->
BBB-

>  <Inchi>
InChI=1S/C21H27N5O4S/c1-15-13-24-19(14-23-15)20(27)22-12-11-16-7-9-18(10-8-16)31(29-30)26-21(28)25-17-5-3-2-4-6-17/h7-10-13-14-17H-2-6-11-12H2-1H3-(H-22-27)(H2-25-26-28)

>  <threshold>


>  <reference>
R14|R15|R23|R27|

>  <group>
D

>  <Class>
-1

>  <ABC>
23.88

>  <ABCGG>
17.49

>  <nAcid>
0

>  <nBase>
0

>  <nAromAtom>
12

>  <nAromBond>
12

>  <nAtom>
58

>  <nHeavyAtom>
31

>  <nSpiro>
0

>  <nBridgehead>
0

>  <nHetero>
10

>  <nN>
5

>  <nO>
4

>  <nF>
0

>  <BalabanJ>
1.3

>  <BertzCT>
1001.07

>  <nBonds>
60

>  <nBondsO>
33

>  <nBondsS>
44

>  <nBondsD>
4

>  <nBondsT>
0

>  <nBondsA>
12

>  <nBondsM>
16

>  <nBondsKS>
50

>  <nBondsKD>
10

>  <RNCG>
0.12

>  <RPCG>
0.12

>  <FCSP3>
0.43

>  <SZ>
39.33

>  <Sm>
37.09

>  <Sv>
36.15

>  <Sse>
58.7

>  <Sp>
38.73

>  <Si>
65.82

>  <MZ>
0.68

>  <Mm>
0.64

>  <Mv>
0.62

>  <Mse>
1.01

>  <Mp>
0.67

>  <Mi>
1.13

>  <NsCH3>
1

>  <NdCH2>
0

>  <NssCH2>
7

>  <NtCH>
0

>  <NdsCH>
0

>  <NaaCH>
6

>  <NsssCH>
1

>  <NddC>
0

>  <NtsC>
0

>  <NdssC>
2

>  <NaasC>
4

>  <NaaaC>
0

>  <NssssC>
0

>  <NsNH3>
0

>  <NsNH2>
0

>  <NssNH2>
0

>  <NdNH>
0

>  <NssNH>
3

>  <NaaNH>
0

>  <NtN>
0

>  <NsssNH>
0

>  <NdsN>
0

>  <NaaN>
2

>  <NsssN>
0

>  <NddsN>
0

>  <NaasN>
0

>  <NssssN>
0

>  <NsOH>
0

>  <NdO>
4

>  <NssO>
0

>  <NaaO>
0

>  <NsF>
0

>  <NsSiH3>
0

>  <NssSiH2>
0

>  <NsssSiH>
0

>  <NssssSi>
0

>  <NsPH2>
0

>  <NssPH>
0

>  <NsssP>
0

>  <NdsssP>
0

>  <NsssssP>
0

>  <NsSH>
0

>  <NdS>
0

>  <NssS>
0

>  <NaaS>
0

>  <NdssS>
0

>  <NddssS>
1

>  <NsCl>
0

>  <NsBr>
0

>  <NsI>
0

>  <fragCpx>
159.1

>  <fMF>
0.45

>  <nHBAcc>
6

>  <nHBDon>
3

>  <Kier1>
25.62

>  <Kier2>
12.46

>  <Lipinski>
1

>  <GhoseFilter>
1

>  <FilterItLogS>
-5.75

>  <VMcGowan>
329.5

>  <LabuteASA>
181.67

>  <PEOE_VSA1>
10.63

>  <PEOE_VSA2>
9.78

>  <PEOE_VSA3>
22.92

>  <PEOE_VSA4>
0

>  <PEOE_VSA5>
0

>  <PEOE_VSA6>
31.4

>  <PEOE_VSA7>
43.88

>  <PEOE_VSA8>
18.78

>  <PEOE_VSA9>
16.79

>  <PEOE_VSA10>
5.69

>  <PEOE_VSA11>
0

>  <PEOE_VSA12>
0

>  <PEOE_VSA13>
15.93

>  <SMR_VSA1>
18.01

>  <SMR_VSA2>
0

>  <SMR_VSA3>
25.32

>  <SMR_VSA4>
0

>  <SMR_VSA5>
56.39

>  <SMR_VSA6>
6.54

>  <SMR_VSA7>
53.61

>  <SMR_VSA8>
0

>  <SMR_VSA9>
0

>  <SlogP_VSA1>
15.36

>  <SlogP_VSA2>
42.91

>  <SlogP_VSA3>
16.44

>  <SlogP_VSA4>
6.92

>  <SlogP_VSA5>
53.85

>  <SlogP_VSA6>
41.55

>  <SlogP_VSA7>
0

>  <SlogP_VSA8>
0

>  <SlogP_VSA9>
0

>  <SlogP_VSA10>
4.79

>  <SlogP_VSA11>
0

>  <EState_VSA1>
16.05

>  <EState_VSA2>
22.54

>  <EState_VSA3>
12.97

>  <EState_VSA4>
43.36

>  <EState_VSA5>
24.53

>  <EState_VSA6>
19.06

>  <EState_VSA7>
0

>  <EState_VSA8>
25.32

>  <EState_VSA9>
0

>  <EState_VSA10>
18.01

>  <VSA_EState1>
26.95

>  <VSA_EState2>
32.16

>  <VSA_EState3>
5.48

>  <VSA_EState4>
1.82

>  <VSA_EState5>
-0.32

>  <VSA_EState6>
5.53

>  <VSA_EState7>
8.43

>  <VSA_EState8>
2.15

>  <VSA_EState9>
-3.95

>  <apol>
64.68

>  <bpol>
39.47

>  <nRing>
3

>  <nHRing>
1

>  <naRing>
2

>  <naHRing>
1

>  <nARing 2>
1

>  <nAHRing 2>
0

>  <nFRing>
0

>  <nFHRing>
0

>  <nFaRing>
0

>  <nFaHRing>
0

>  <nFARing 2>
0

>  <nFAHRing 2>
0

>  <nRot>
7

>  <SLogP>
2.08

>  <SMR>
114.97

>  <TopoPSA(NO)>
130.15

>  <TopoPSA>
138.53

>  <JGI1>
0.23

>  <JGI2>
0.08

>  <JGI3>
0.05

>  <JGI4>
0.03

>  <JGI5>
0.03

>  <Diameter>
20

>  <Radius>
10

>  <TMWC10>
139.6

>  <TSRW10>
66.44

>  <MW>
445.18

>  <AMW>
7.68

>  <WPath>
3430

>  <WPol>
44

>  <Zagreb1>
156

>  <Zagreb2>
176

>  <mZagreb2>
6.82

>  <yes>


>  <nAR-cont>
0.816016

>  <nHA-cont>
0.702745138

>  <MWHBN>
0.426554656

>  <MWHBN-cont>
0.372809137

>  <TPSA-cont>
0

>  <pka_cont>
0.97

>  <yes.1>


>  <BBB_SCORE>
2.562974844

>  <MMFF94 Energy>
-79.503

$$$$
Compound 3102
Actelion Java MolfileCreator 2.0

  0  0  0  0  0  0              0 V3000
M  V30 BEGIN CTAB
M  V30 COUNTS 27 28 0 0 0
M  V30 BEGIN ATOM
M  V30 1 S -1.8258 0.7466 -1.9919 0
M  V30 2 O -1.3175 0.0628 -3.1619 0
M  V30 3 O -2.6864 1.9043 -2.1181 0
M  V30 4 N -2.6678 -0.3625 -1.0534 0
M  V30 5 C -0.44 1.2444 -0.9946 0
M  V30 6 C -1.8465 -1.3013 -0.3239 0
M  V30 7 C -0.6575 2.0476 0.1266 0
M  V30 8 C 0.8543 0.8669 -1.3563 0
M  V30 9 S -0.8898 -2.5326 -1.0162 0
M  V30 10 N -1.8731 -1.2941 0.9874 0
M  V30 11 C 0.4311 2.443 0.9081 0
M  V30 12 C 1.9331 1.2716 -0.5659 0
M  V30 13 C -0.4733 -2.9929 0.587 0
M  V30 14 N -1.0539 -2.269 1.5221 0
M  V30 15 C 1.7312 2.0461 0.5804 0
M  V30 16 C 0.4594 -4.1193 0.8373 0
M  V30 17 N 2.8059 2.4703 1.3388 0
M  V30 18 H -3.3469 0.105 -0.4565 0
M  V30 19 H -1.6585 2.3737 0.3979 0
M  V30 20 H 1.0372 0.2688 -2.2459 0
M  V30 21 H 0.256 3.0698 1.7792 0
M  V30 22 H 2.9392 0.9795 -0.8559 0
M  V30 23 H 1.4382 -3.9212 0.3892 0
M  V30 24 H 0.0647 -5.0518 0.4218 0
M  V30 25 H 0.6047 -4.2647 1.9125 0
M  V30 26 H 3.7386 2.136 1.1398 0
M  V30 27 H 2.6548 2.9706 2.2042 0
M  V30 END ATOM
M  V30 BEGIN BOND
M  V30 1 2 1 2
M  V30 2 2 1 3
M  V30 3 1 1 4
M  V30 4 1 1 5
M  V30 5 1 4 6
M  V30 6 2 5 7
M  V30 7 1 5 8
M  V30 8 1 6 9
M  V30 9 2 6 10
M  V30 10 1 7 11
M  V30 11 2 8 12
M  V30 12 1 9 13
M  V30 13 1 10 14
M  V30 14 2 11 15
M  V30 15 1 13 16
M  V30 16 1 15 17
M  V30 17 1 12 15
M  V30 18 2 13 14
M  V30 19 1 4 18
M  V30 20 1 7 19
M  V30 21 1 8 20
M  V30 22 1 11 21
M  V30 23 1 12 22
M  V30 24 1 16 23
M  V30 25 1 16 24
M  V30 26 1 16 25
M  V30 27 1 17 26
M  V30 28 1 17 27
M  V30 END BOND
M  V30 END CTAB
M  END
>  <Column 1>
3988

>  <level_0>
7777

>  <index>
7779

>  <Unnamed: 0>
7779

>  <NO.>
7792

>  <Name>
sulfamethizole

>  <IUPAC_name>
4-amino-n-(5-methyl-1-3-4-thiadiazol-2-yl)benzenesulfonamide

>  <SMILES>
Cc1nnc(NS(=O)(=O)c2ccc(N)cc2)s1

>  <CID>
5328

>  <logBB>


>  <BBB+/BBB->
BBB-

>  <Inchi>
InChI=1S/C9H10N4O2S2/c1-6-11-12-9(16-6)13-17(14-15)8-4-2-7(10)3-5-8/h2-5H-10H2-1H3-(H-12-13)

>  <threshold>


>  <reference>
R14|R23|R27|

>  <group>
D

>  <Class>
-1

>  <ABC>
13.2

>  <ABCGG>
11.71

>  <nAcid>
0

>  <nBase>
0

>  <nAromAtom>
11

>  <nAromBond>
11

>  <nAtom>
27

>  <nHeavyAtom>
17

>  <nSpiro>
0

>  <nBridgehead>
0

>  <nHetero>
8

>  <nN>
4

>  <nO>
2

>  <nF>
0

>  <BalabanJ>
1.85

>  <BertzCT>
618.7

>  <nBonds>
28

>  <nBondsO>
18

>  <nBondsS>
15

>  <nBondsD>
2

>  <nBondsT>
0

>  <nBondsA>
11

>  <nBondsM>
13

>  <nBondsKS>
21

>  <nBondsKD>
7

>  <RNCG>
0.26

>  <RPCG>
0.17

>  <FCSP3>
0.11

>  <SZ>
23.33

>  <Sm>
22.51

>  <Sv>
18.54

>  <Sse>
27.91

>  <Sp>
20.06

>  <Si>
30.5

>  <MZ>
0.86

>  <Mm>
0.83

>  <Mv>
0.69

>  <Mse>
1.03

>  <Mp>
0.74

>  <Mi>
1.13

>  <NsCH3>
1

>  <NdCH2>
0

>  <NssCH2>
0

>  <NtCH>
0

>  <NdsCH>
0

>  <NaaCH>
4

>  <NsssCH>
0

>  <NddC>
0

>  <NtsC>
0

>  <NdssC>
0

>  <NaasC>
4

>  <NaaaC>
0

>  <NssssC>
0

>  <NsNH3>
0

>  <NsNH2>
1

>  <NssNH2>
0

>  <NdNH>
0

>  <NssNH>
1

>  <NaaNH>
0

>  <NtN>
0

>  <NsssNH>
0

>  <NdsN>
0

>  <NaaN>
2

>  <NsssN>
0

>  <NddsN>
0

>  <NaasN>
0

>  <NssssN>
0

>  <NsOH>
0

>  <NdO>
2

>  <NssO>
0

>  <NaaO>
0

>  <NsF>
0

>  <NsSiH3>
0

>  <NssSiH2>
0

>  <NsssSiH>
0

>  <NssssSi>
0

>  <NsPH2>
0

>  <NssPH>
0

>  <NsssP>
0

>  <NdsssP>
0

>  <NsssssP>
0

>  <NsSH>
0

>  <NdS>
0

>  <NssS>
0

>  <NaaS>
1

>  <NdssS>
0

>  <NddssS>
1

>  <NsCl>
0

>  <NsBr>
0

>  <NsI>
0

>  <fragCpx>
52.08

>  <fMF>
0.48

>  <nHBAcc>
6

>  <nHBDon>
2

>  <Kier1>
13.43

>  <Kier2>
5.33

>  <Lipinski>
1

>  <GhoseFilter>
1

>  <FilterItLogS>
-2.84

>  <VMcGowan>
178.81

>  <LabuteASA>
102.55

>  <PEOE_VSA1>
5.73

>  <PEOE_VSA2>
4.72

>  <PEOE_VSA3>
8.42

>  <PEOE_VSA4>
0

>  <PEOE_VSA5>
10.2

>  <PEOE_VSA6>
11.34

>  <PEOE_VSA7>
31.19

>  <PEOE_VSA8>
5.69

>  <PEOE_VSA9>
4.9

>  <PEOE_VSA10>
5.01

>  <PEOE_VSA11>
0

>  <PEOE_VSA12>
5.13

>  <PEOE_VSA13>
10.02

>  <SMR_VSA1>
8.42

>  <SMR_VSA2>
0

>  <SMR_VSA3>
10.2

>  <SMR_VSA4>
0

>  <SMR_VSA5>
11.82

>  <SMR_VSA6>
10.46

>  <SMR_VSA7>
29.27

>  <SMR_VSA8>
0

>  <SMR_VSA9>
0

>  <SlogP_VSA1>
10.46

>  <SlogP_VSA2>
18.62

>  <SlogP_VSA3>
10.02

>  <SlogP_VSA4>
6.92

>  <SlogP_VSA5>
5.01

>  <SlogP_VSA6>
29.16

>  <SlogP_VSA7>
0

>  <SlogP_VSA8>
0

>  <SlogP_VSA9>
0

>  <SlogP_VSA10>
10.82

>  <SlogP_VSA11>
0

>  <EState_VSA1>
10.02

>  <EState_VSA2>
10.03

>  <EState_VSA3>
10.7

>  <EState_VSA4>
0

>  <EState_VSA5>
35.6

>  <EState_VSA6>
6.92

>  <EState_VSA7>
0

>  <EState_VSA8>
14.92

>  <EState_VSA9>
5.73

>  <EState_VSA10>
8.42

>  <VSA_EState1>
26.17

>  <VSA_EState2>
0.14

>  <VSA_EState3>
8.37

>  <VSA_EState4>
6

>  <VSA_EState5>
0

>  <VSA_EState6>
5.93

>  <VSA_EState7>
0

>  <VSA_EState8>
1.75

>  <VSA_EState9>
-3.61

>  <apol>
33.5

>  <bpol>
20.29

>  <nRing>
2

>  <nHRing>
1

>  <naRing>
2

>  <naHRing>
1

>  <nARing 2>
0

>  <nAHRing 2>
0

>  <nFRing>
0

>  <nFHRing>
0

>  <nFaRing>
0

>  <nFaHRing>
0

>  <nFARing 2>
0

>  <nFAHRing 2>
0

>  <nRot>
3

>  <SLogP>
1.23

>  <SMR>
66.31

>  <TopoPSA(NO)>
97.97

>  <TopoPSA>
134.59

>  <JGI1>
0.31

>  <JGI2>
0.09

>  <JGI3>
0.07

>  <JGI4>
0.04

>  <JGI5>
0.04

>  <Diameter>
10

>  <Radius>
5

>  <TMWC10>
106.11

>  <TSRW10>
63.24

>  <MW>
270.02

>  <AMW>
10

>  <WPath>
535

>  <WPol>
22

>  <Zagreb1>
88

>  <Zagreb2>
100

>  <mZagreb2>
3.63

>  <yes>


>  <nAR-cont>
0.336376

>  <nHA-cont>
0.976740822

>  <MWHBN>
0.486846465

>  <MWHBN-cont>
0

>  <TPSA-cont>
0

>  <pka_cont>
0.97

>  <yes.1>


>  <BBB_SCORE>
1.798116822

>  <MMFF94 Energy>
-72.021

$$$$
Compound 3103
Actelion Java MolfileCreator 2.0

  0  0  0  0  0  0              0 V3000
M  V30 BEGIN CTAB
M  V30 COUNTS 41 44 0 0 0
M  V30 BEGIN ATOM
M  V30 1 Cl -4.3022 -3.977 0.8106 0
M  V30 2 C -2.9424 -2.9432 0.6001 0
M  V30 3 C -3.102 -1.7152 -0.0435 0
M  V30 4 C -1.6916 -3.3451 1.0649 0
M  V30 5 C -1.9993 -0.8689 -0.2208 0
M  V30 6 C -0.5885 -2.5078 0.8941 0
M  V30 7 C -0.7416 -1.2637 0.2681 0
M  V30 8 C -2.1296 0.4417 -0.9575 0
M  V30 9 C 0.4131 -0.3572 0.0656 0
M  V30 10 C -1.419 0.4137 -2.317 0
M  V30 11 C 0.9206 -0.1445 -1.3171 0
M  V30 12 C 0.9251 0.3276 1.1258 0
M  V30 13 C 0.0814 0.2081 -2.3838 0
M  V30 14 N 2.2535 -0.3757 -1.4723 0
M  V30 15 C 0.4307 0.2051 2.5632 0
M  V30 16 C 2.0451 1.3587 1.0317 0
M  V30 17 C 0.6824 0.3433 -3.6482 0
M  V30 18 C 2.7814 -0.2331 -2.704 0
M  V30 19 C 0.1052 1.5776 3.1722 0
M  V30 20 C 1.6588 2.6824 1.7121 0
M  V30 21 C 2.0449 0.1258 -3.8132 0
M  V30 22 N 1.2381 2.5107 3.1096 0
M  V30 23 H -4.082 -1.4244 -0.4134 0
M  V30 24 H -1.5675 -4.3063 1.5558 0
M  V30 25 H 0.3901 -2.8242 1.2481 0
M  V30 26 H -3.1917 0.6631 -1.1238 0
M  V30 27 H -1.7522 1.2614 -0.3331 0
M  V30 28 H -1.8808 -0.3729 -2.9297 0
M  V30 29 H -1.6399 1.3701 -2.8101 0
M  V30 30 H -0.4629 -0.4164 2.6606 0
M  V30 31 H 1.215 -0.2825 3.1567 0
M  V30 32 H 2.9395 0.9441 1.5141 0
M  V30 33 H 2.3238 1.6004 0.0035 0
M  V30 34 H 0.0812 0.6104 -4.5149 0
M  V30 35 H 3.8479 -0.424 -2.7753 0
M  V30 36 H -0.764 2.0193 2.6687 0
M  V30 37 H -0.1771 1.4462 4.2228 0
M  V30 38 H 2.5191 3.3608 1.6906 0
M  V30 39 H 0.8586 3.1774 1.1473 0
M  V30 40 H 2.5156 0.2247 -4.7845 0
M  V30 41 H 2.017 2.1076 3.6312 0
M  V30 END ATOM
M  V30 BEGIN BOND
M  V30 1 1 1 2
M  V30 2 2 2 3
M  V30 3 1 2 4
M  V30 4 1 3 5
M  V30 5 2 4 6
M  V30 6 2 5 7
M  V30 7 1 5 8
M  V30 8 1 7 9
M  V30 9 1 8 10
M  V30 10 1 9 11
M  V30 11 2 9 12
M  V30 12 1 10 13
M  V30 13 1 11 14
M  V30 14 1 12 15
M  V30 15 1 12 16
M  V30 16 1 13 17
M  V30 17 2 14 18
M  V30 18 1 15 19
M  V30 19 1 16 20
M  V30 20 2 17 21
M  V30 21 1 19 22
M  V30 22 1 6 7
M  V30 23 2 11 13
M  V30 24 1 18 21
M  V30 25 1 20 22
M  V30 26 1 3 23
M  V30 27 1 4 24
M  V30 28 1 6 25
M  V30 29 1 8 26
M  V30 30 1 8 27
M  V30 31 1 10 28
M  V30 32 1 10 29
M  V30 33 1 15 30
M  V30 34 1 15 31
M  V30 35 1 16 32
M  V30 36 1 16 33
M  V30 37 1 17 34
M  V30 38 1 18 35
M  V30 39 1 19 36
M  V30 40 1 19 37
M  V30 41 1 20 38
M  V30 42 1 20 39
M  V30 43 1 21 40
M  V30 44 1 22 41
M  V30 END BOND
M  V30 END CTAB
M  END
>  <Column 1>
3989

>  <level_0>
7778

>  <index>
7780

>  <Unnamed: 0>
7780

>  <NO.>
7793

>  <Name>
desloratadine

>  <IUPAC_name>
13-chloro-2-piperidin-4-ylidene-4-azatricyclo[9.4.0.03-8]pentadeca-1(11)-3(8)-4-6-12-14-hexaene

>  <SMILES>
Clc1ccc2c(c1)CCc1cccnc1C2=C1CCNCC1

>  <CID>
124087

>  <logBB>


>  <BBB+/BBB->
BBB-

>  <Inchi>
InChI=1S/C19H19ClN2/c20-16-5-6-17-15(12-16)4-3-14-2-1-9-22-19(14)18(17)13-7-10-21-11-8-13/h1-2-5-6-9-12-21H-3-4-7-8-10-11H2

>  <threshold>


>  <reference>
R14|R34|R50|

>  <group>
D

>  <Class>
-1

>  <ABC>
17.58

>  <ABCGG>
13.7

>  <nAcid>
0

>  <nBase>
1

>  <nAromAtom>
12

>  <nAromBond>
12

>  <nAtom>
41

>  <nHeavyAtom>
22

>  <nSpiro>
0

>  <nBridgehead>
0

>  <nHetero>
3

>  <nN>
2

>  <nO>
0

>  <nF>
0

>  <BalabanJ>
1.6

>  <BertzCT>
740.85

>  <nBonds>
44

>  <nBondsO>
25

>  <nBondsS>
31

>  <nBondsD>
1

>  <nBondsT>
0

>  <nBondsA>
12

>  <nBondsM>
13

>  <nBondsKS>
37

>  <nBondsKD>
7

>  <RNCG>
0.29

>  <RPCG>
0.11

>  <FCSP3>
0.32

>  <SZ>
27.33

>  <Sm>
25.88

>  <Sv>
26.75

>  <Sse>
40.53

>  <Sp>
29.21

>  <Si>
45.68

>  <MZ>
0.67

>  <Mm>
0.63

>  <Mv>
0.65

>  <Mse>
0.99

>  <Mp>
0.71

>  <Mi>
1.11

>  <NsCH3>
0

>  <NdCH2>
0

>  <NssCH2>
6

>  <NtCH>
0

>  <NdsCH>
0

>  <NaaCH>
6

>  <NsssCH>
0

>  <NddC>
0

>  <NtsC>
0

>  <NdssC>
2

>  <NaasC>
5

>  <NaaaC>
0

>  <NssssC>
0

>  <NsNH3>
0

>  <NsNH2>
0

>  <NssNH2>
0

>  <NdNH>
0

>  <NssNH>
1

>  <NaaNH>
0

>  <NtN>
0

>  <NsssNH>
0

>  <NdsN>
0

>  <NaaN>
1

>  <NsssN>
0

>  <NddsN>
0

>  <NaasN>
0

>  <NssssN>
0

>  <NsOH>
0

>  <NdO>
0

>  <NssO>
0

>  <NaaO>
0

>  <NsF>
0

>  <NsSiH3>
0

>  <NssSiH2>
0

>  <NsssSiH>
0

>  <NssssSi>
0

>  <NsPH2>
0

>  <NssPH>
0

>  <NsssP>
0

>  <NdsssP>
0

>  <NsssssP>
0

>  <NsSH>
0

>  <NdS>
0

>  <NssS>
0

>  <NaaS>
0

>  <NdssS>
0

>  <NddssS>
0

>  <NsCl>
1

>  <NsBr>
0

>  <NsI>
0

>  <fragCpx>
163.03

>  <fMF>
0.51

>  <nHBAcc>
2

>  <nHBDon>
1

>  <Kier1>
15.52

>  <Kier2>
6.86

>  <Lipinski>
1

>  <GhoseFilter>
1

>  <FilterItLogS>
-6.47

>  <VMcGowan>
237.23

>  <LabuteASA>
135.78

>  <PEOE_VSA1>
5.32

>  <PEOE_VSA2>
4.98

>  <PEOE_VSA3>
0

>  <PEOE_VSA4>
0

>  <PEOE_VSA5>
0

>  <PEOE_VSA6>
29.31

>  <PEOE_VSA7>
73.66

>  <PEOE_VSA8>
16.79

>  <PEOE_VSA9>
5.69

>  <PEOE_VSA10>
0

>  <PEOE_VSA11>
0

>  <PEOE_VSA12>
0

>  <PEOE_VSA13>
0

>  <SMR_VSA1>
0

>  <SMR_VSA2>
0

>  <SMR_VSA3>
10.3

>  <SMR_VSA4>
0

>  <SMR_VSA5>
25.68

>  <SMR_VSA6>
13.09

>  <SMR_VSA7>
69.51

>  <SMR_VSA8>
0

>  <SMR_VSA9>
0

>  <SlogP_VSA1>
5.32

>  <SlogP_VSA2>
18.07

>  <SlogP_VSA3>
12.84

>  <SlogP_VSA4>
0

>  <SlogP_VSA5>
35.23

>  <SlogP_VSA6>
42.1

>  <SlogP_VSA7>
5.02

>  <SlogP_VSA8>
5.57

>  <SlogP_VSA9>
0

>  <SlogP_VSA10>
0

>  <SlogP_VSA11>
0

>  <EState_VSA1>
0

>  <EState_VSA2>
0

>  <EState_VSA3>
0

>  <EState_VSA4>
43.8

>  <EState_VSA5>
33.53

>  <EState_VSA6>
0

>  <EState_VSA7>
18.33

>  <EState_VSA8>
23.52

>  <EState_VSA9>
16.58

>  <EState_VSA10>
0

>  <VSA_EState1>
0

>  <VSA_EState2>
4.75

>  <VSA_EState3>
4.28

>  <VSA_EState4>
8.12

>  <VSA_EState5>
0

>  <VSA_EState6>
10.59

>  <VSA_EState7>
6.19

>  <VSA_EState8>
2.12

>  <VSA_EState9>
0

>  <apol>
48.78

>  <bpol>
21.28

>  <nRing>
4

>  <nHRing>
2

>  <naRing>
2

>  <naHRing>
1

>  <nARing 2>
2

>  <nAHRing 2>
1

>  <nFRing>
1

>  <nFHRing>
1

>  <nFaRing>
0

>  <nFaHRing>
0

>  <nFARing 2>
1

>  <nFAHRing 2>
1

>  <nRot>
0

>  <SLogP>
4.02

>  <SMR>
91.22

>  <TopoPSA(NO)>
24.92

>  <TopoPSA>
24.92

>  <JGI1>
0.12

>  <JGI2>
0.06

>  <JGI3>
0.04

>  <JGI4>
0.04

>  <JGI5>
0.01

>  <Diameter>
9

>  <Radius>
5

>  <TMWC10>
122.35

>  <TSRW10>
64.57

>  <MW>
310.12

>  <AMW>
7.56

>  <WPath>
918

>  <WPol>
40

>  <Zagreb1>
120

>  <Zagreb2>
144

>  <mZagreb2>
4.81

>  <yes>


>  <nAR-cont>
1

>  <nHA-cont>
0.983774276

>  <MWHBN>
0.170355581

>  <MWHBN-cont>
0.974517915

>  <TPSA-cont>
0.826042926

>  <pka_cont>
0.97

>  <yes.1>


>  <BBB_SCORE>
5.582636999

>  <MMFF94 Energy>
96.779

$$$$
Compound 3104
Actelion Java MolfileCreator 2.0

  0  0  0  0  0  0              0 V3000
M  V30 BEGIN CTAB
M  V30 COUNTS 31 33 0 0 0
M  V30 BEGIN ATOM
M  V30 1 Cl 1.6491 2.1443 -2.557 0
M  V30 2 C 0.2444 2.5464 -1.6343 0
M  V30 3 C 0.0576 2.098 -0.3173 0
M  V30 4 C -0.7248 3.34 -2.2593 0
M  V30 5 C -1.1283 2.4652 0.3488 0
M  V30 6 C 1.0664 1.2455 0.4263 0
M  V30 7 C -1.8908 3.6948 -1.5818 0
M  V30 8 C -2.0933 3.2555 -0.2774 0
M  V30 9 N 0.5383 -0.0774 0.8082 0
M  V30 10 C 0.3239 -0.9182 -0.396 0
M  V30 11 C 1.4652 -0.7409 1.7558 0
M  V30 12 C -0.046 -2.3209 0.003 0
M  V30 13 C 0.8653 -2.0361 2.3457 0
M  V30 14 C 0.2314 -2.8325 1.2546 0
M  V30 15 C -0.6805 -3.3033 -0.8188 0
M  V30 16 S -0.2582 -4.4456 1.4463 0
M  V30 17 C -0.8565 -4.5008 -0.1575 0
M  V30 18 H -0.5772 3.6845 -3.28 0
M  V30 19 H -1.3043 2.1194 1.3668 0
M  V30 20 H 1.3232 1.8104 1.3337 0
M  V30 21 H 2.0093 1.1386 -0.1204 0
M  V30 22 H -2.6411 4.3094 -2.0727 0
M  V30 23 H -3.0033 3.523 0.2542 0
M  V30 24 H 1.2299 -0.9603 -1.0144 0
M  V30 25 H -0.4891 -0.5057 -1.0043 0
M  V30 26 H 1.6931 -0.0721 2.5952 0
M  V30 27 H 2.418 -0.9661 1.2569 0
M  V30 28 H 0.1029 -1.7795 3.0918 0
M  V30 29 H 1.6526 -2.6083 2.8488 0
M  V30 30 H -0.9923 -3.1409 -1.8433 0
M  V30 31 H -1.3078 -5.4071 -0.5366 0
M  V30 END ATOM
M  V30 BEGIN BOND
M  V30 1 1 1 2
M  V30 2 2 2 3
M  V30 3 1 2 4
M  V30 4 1 3 5
M  V30 5 1 3 6
M  V30 6 2 4 7
M  V30 7 2 5 8
M  V30 8 1 6 9
M  V30 9 1 9 10
M  V30 10 1 9 11
M  V30 11 1 10 12
M  V30 12 1 11 13
M  V30 13 2 12 14
M  V30 14 1 12 15
M  V30 15 1 14 16
M  V30 16 2 15 17
M  V30 17 1 7 8
M  V30 18 1 13 14
M  V30 19 1 16 17
M  V30 20 1 4 18
M  V30 21 1 5 19
M  V30 22 1 6 20
M  V30 23 1 6 21
M  V30 24 1 7 22
M  V30 25 1 8 23
M  V30 26 1 10 24
M  V30 27 1 10 25
M  V30 28 1 11 26
M  V30 29 1 11 27
M  V30 30 1 13 28
M  V30 31 1 13 29
M  V30 32 1 15 30
M  V30 33 1 17 31
M  V30 END BOND
M  V30 END CTAB
M  END
>  <Column 1>
3990

>  <level_0>
7779

>  <index>
7781

>  <Unnamed: 0>
7781

>  <NO.>
7794

>  <Name>
ticlopidine hydrochloride

>  <IUPAC_name>
5-[(2-chlorophenyl)methyl]-6-7-dihydro-4h-thieno[3-2-c]pyridine

>  <SMILES>
Clc1ccccc1CN1CCc2sccc2C1

>  <CID>
5472

>  <logBB>


>  <BBB+/BBB->
BBB-

>  <Inchi>
InChI=1S/C14H14ClNS/c15-13-4-2-1-3-11(13)9-16-7-5-14-12(10-16)6-8-17-14/h1-4-6-8H-5-7-9-10H2

>  <threshold>


>  <reference>
R14|R15|R27|

>  <group>
D

>  <Class>
-1

>  <ABC>
13.46

>  <ABCGG>
11.17

>  <nAcid>
0

>  <nBase>
1

>  <nAromAtom>
11

>  <nAromBond>
11

>  <nAtom>
31

>  <nHeavyAtom>
17

>  <nSpiro>
0

>  <nBridgehead>
0

>  <nHetero>
3

>  <nN>
1

>  <nO>
0

>  <nF>
0

>  <BalabanJ>
1.51

>  <BertzCT>
520.45

>  <nBonds>
33

>  <nBondsO>
19

>  <nBondsS>
22

>  <nBondsD>
0

>  <nBondsT>
0

>  <nBondsA>
11

>  <nBondsM>
11

>  <nBondsKS>
28

>  <nBondsKD>
5

>  <RNCG>
0.35

>  <RPCG>
0.09

>  <FCSP3>
0.29

>  <SZ>
23

>  <Sm>
21.96

>  <Sv>
20.83

>  <Sse>
30.72

>  <Sp>
23.29

>  <Si>
34.27

>  <MZ>
0.74

>  <Mm>
0.71

>  <Mv>
0.67

>  <Mse>
0.99

>  <Mp>
0.75

>  <Mi>
1.11

>  <NsCH3>
0

>  <NdCH2>
0

>  <NssCH2>
4

>  <NtCH>
0

>  <NdsCH>
0

>  <NaaCH>
6

>  <NsssCH>
0

>  <NddC>
0

>  <NtsC>
0

>  <NdssC>
0

>  <NaasC>
4

>  <NaaaC>
0

>  <NssssC>
0

>  <NsNH3>
0

>  <NsNH2>
0

>  <NssNH2>
0

>  <NdNH>
0

>  <NssNH>
0

>  <NaaNH>
0

>  <NtN>
0

>  <NsssNH>
0

>  <NdsN>
0

>  <NaaN>
0

>  <NsssN>
1

>  <NddsN>
0

>  <NaasN>
0

>  <NssssN>
0

>  <NsOH>
0

>  <NdO>
0

>  <NssO>
0

>  <NaaO>
0

>  <NsF>
0

>  <NsSiH3>
0

>  <NssSiH2>
0

>  <NsssSiH>
0

>  <NssssSi>
0

>  <NsPH2>
0

>  <NssPH>
0

>  <NsssP>
0

>  <NdsssP>
0

>  <NsssssP>
0

>  <NsSH>
0

>  <NdS>
0

>  <NssS>
0

>  <NaaS>
1

>  <NdssS>
0

>  <NddssS>
0

>  <NsCl>
1

>  <NsBr>
0

>  <NsI>
0

>  <fragCpx>
89.03

>  <fMF>
0.52

>  <nHBAcc>
2

>  <nHBDon>
0

>  <Kier1>
12.06

>  <Kier2>
5.33

>  <Lipinski>
1

>  <GhoseFilter>
1

>  <FilterItLogS>
-4.46

>  <VMcGowan>
192.61

>  <LabuteASA>
110.65

>  <PEOE_VSA1>
0

>  <PEOE_VSA2>
4.9

>  <PEOE_VSA3>
0

>  <PEOE_VSA4>
0

>  <PEOE_VSA5>
11.34

>  <PEOE_VSA6>
29.8

>  <PEOE_VSA7>
35.06

>  <PEOE_VSA8>
29.53

>  <PEOE_VSA9>
0

>  <PEOE_VSA10>
0

>  <PEOE_VSA11>
0

>  <PEOE_VSA12>
0

>  <PEOE_VSA13>
0

>  <SMR_VSA1>
0

>  <SMR_VSA2>
0

>  <SMR_VSA3>
4.9

>  <SMR_VSA4>
0

>  <SMR_VSA5>
19.51

>  <SMR_VSA6>
6.54

>  <SMR_VSA7>
56.74

>  <SMR_VSA8>
0

>  <SMR_VSA9>
0

>  <SlogP_VSA1>
0

>  <SlogP_VSA2>
11.44

>  <SlogP_VSA3>
19.51

>  <SlogP_VSA4>
0

>  <SlogP_VSA5>
16

>  <SlogP_VSA6>
35.71

>  <SlogP_VSA7>
5.02

>  <SlogP_VSA8>
0

>  <SlogP_VSA9>
0

>  <SlogP_VSA10>
0

>  <SlogP_VSA11>
0

>  <EState_VSA1>
0

>  <EState_VSA2>
0

>  <EState_VSA3>
0

>  <EState_VSA4>
24.66

>  <EState_VSA5>
17.55

>  <EState_VSA6>
4.88

>  <EState_VSA7>
23.47

>  <EState_VSA8>
28.48

>  <EState_VSA9>
11.6

>  <EState_VSA10>
0

>  <VSA_EState1>
0

>  <VSA_EState2>
4.02

>  <VSA_EState3>
3.08

>  <VSA_EState4>
2.72

>  <VSA_EState5>
0

>  <VSA_EState6>
10.38

>  <VSA_EState7>
1.18

>  <VSA_EState8>
3.15

>  <VSA_EState9>
0

>  <apol>
38.9

>  <bpol>
18.72

>  <nRing>
3

>  <nHRing>
2

>  <naRing>
2

>  <naHRing>
1

>  <nARing 2>
1

>  <nAHRing 2>
1

>  <nFRing>
1

>  <nFHRing>
1

>  <nFaRing>
0

>  <nFaHRing>
0

>  <nFARing 2>
1

>  <nFAHRing 2>
1

>  <nRot>
2

>  <SLogP>
3.96

>  <SMR>
73.59

>  <TopoPSA(NO)>
3.24

>  <TopoPSA>
31.48

>  <JGI1>
0.16

>  <JGI2>
0.07

>  <JGI3>
0.04

>  <JGI4>
0.04

>  <JGI5>
0.01

>  <Diameter>
9

>  <Radius>
5

>  <TMWC10>
107.41

>  <TSRW10>
63.38

>  <MW>
263.05

>  <AMW>
8.49

>  <WPath>
533

>  <WPol>
23

>  <Zagreb1>
90

>  <Zagreb2>
105

>  <mZagreb2>
3.72

>  <yes>


>  <nAR-cont>
0.816016

>  <nHA-cont>
0.976740822

>  <MWHBN>
0.123313562

>  <MWHBN-cont>
0.843335544

>  <TPSA-cont>
0.780250052

>  <pka_cont>
0.97

>  <yes.1>


>  <BBB_SCORE>
5.103260242

>  <MMFF94 Energy>
42.145

$$$$
Compound 3105
Actelion Java MolfileCreator 2.0

  0  0  0  0  0  0              0 V3000
M  V30 BEGIN CTAB
M  V30 COUNTS 13 13 0 0 0
M  V30 BEGIN ATOM
M  V30 1 S 0.3165 2.0587 -1.7418 0
M  V30 2 C 0.4484 0.9821 -0.496 0
M  V30 3 N -0.3048 -0.1724 -0.1905 0
M  V30 4 N 1.4072 1.06 0.5291 0
M  V30 5 C 0.2056 -0.7323 0.9662 0
M  V30 6 C -1.425 -0.7271 -0.9169 0
M  V30 7 C 1.2337 0.0113 1.3947 0
M  V30 8 H 2.1064 1.7859 0.597 0
M  V30 9 H -0.2076 -1.6293 1.4016 0
M  V30 10 H -1.1743 -1.7444 -1.2318 0
M  V30 11 H -1.664 -0.1296 -1.799 0
M  V30 12 H -2.2972 -0.754 -0.2567 0
M  V30 13 H 1.8623 -0.1281 2.2604 0
M  V30 END ATOM
M  V30 BEGIN BOND
M  V30 1 2 1 2
M  V30 2 1 2 3
M  V30 3 1 2 4
M  V30 4 1 3 5
M  V30 5 1 3 6
M  V30 6 1 4 7
M  V30 7 2 5 7
M  V30 8 1 4 8
M  V30 9 1 5 9
M  V30 10 1 6 10
M  V30 11 1 6 11
M  V30 12 1 6 12
M  V30 13 1 7 13
M  V30 END BOND
M  V30 END CTAB
M  END
>  <Column 1>
3991

>  <level_0>
7780

>  <index>
7782

>  <Unnamed: 0>
7782

>  <NO.>
7795

>  <Name>
methimazole

>  <IUPAC_name>
3-methyl-1h-imidazole-2-thione

>  <SMILES>
Cn1cc[nH]c1=S

>  <CID>
1349907

>  <logBB>


>  <BBB+/BBB->
BBB-

>  <Inchi>
InChI=1S/C4H6N2S/c1-6-3-2-5-4(6)7/h2-3H-1H3-(H-5-7)

>  <threshold>


>  <reference>
R14|R15|R23|R27|

>  <group>
D

>  <Class>
-1

>  <ABC>
5.13

>  <ABCGG>
5.32

>  <nAcid>
0

>  <nBase>
0

>  <nAromAtom>
5

>  <nAromBond>
5

>  <nAtom>
13

>  <nHeavyAtom>
7

>  <nSpiro>
0

>  <nBridgehead>
0

>  <nHetero>
3

>  <nN>
2

>  <nO>
0

>  <nF>
0

>  <BalabanJ>
2.33

>  <BertzCT>
197.45

>  <nBonds>
13

>  <nBondsO>
7

>  <nBondsS>
7

>  <nBondsD>
1

>  <nBondsT>
0

>  <nBondsA>
5

>  <nBondsM>
6

>  <nBondsKS>
11

>  <nBondsKD>
2

>  <RNCG>
0.48

>  <RPCG>
0.25

>  <FCSP3>
0.25

>  <SZ>
10

>  <Sm>
9.51

>  <Sv>
8.33

>  <Sse>
13.07

>  <Sp>
9.45

>  <Si>
14.75

>  <MZ>
0.77

>  <Mm>
0.73

>  <Mv>
0.64

>  <Mse>
1.01

>  <Mp>
0.73

>  <Mi>
1.13

>  <NsCH3>
1

>  <NdCH2>
0

>  <NssCH2>
0

>  <NtCH>
0

>  <NdsCH>
0

>  <NaaCH>
2

>  <NsssCH>
0

>  <NddC>
0

>  <NtsC>
0

>  <NdssC>
0

>  <NaasC>
0

>  <NaaaC>
0

>  <NssssC>
0

>  <NsNH3>
0

>  <NsNH2>
0

>  <NssNH2>
0

>  <NdNH>
0

>  <NssNH>
0

>  <NaaNH>
1

>  <NtN>
0

>  <NsssNH>
0

>  <NdsN>
0

>  <NaaN>
0

>  <NsssN>
0

>  <NddsN>
0

>  <NaasN>
1

>  <NssssN>
0

>  <NsOH>
0

>  <NdO>
0

>  <NssO>
0

>  <NaaO>
0

>  <NsF>
0

>  <NsSiH3>
0

>  <NssSiH2>
0

>  <NsssSiH>
0

>  <NssssSi>
0

>  <NsPH2>
0

>  <NssPH>
0

>  <NsssP>
0

>  <NdsssP>
0

>  <NsssssP>
0

>  <NsSH>
0

>  <NdS>
1

>  <NssS>
0

>  <NaaS>
0

>  <NdssS>
0

>  <NddssS>
0

>  <NsCl>
0

>  <NsBr>
0

>  <NsI>
0

>  <fragCpx>
7.03

>  <fMF>
0.38

>  <nHBAcc>
2

>  <nHBDon>
1

>  <Kier1>
5.14

>  <Kier2>
1.85

>  <Lipinski>
1

>  <GhoseFilter>
0

>  <FilterItLogS>
-0.55

>  <VMcGowan>
84.07

>  <LabuteASA>
46.79

>  <PEOE_VSA1>
9.55

>  <PEOE_VSA2>
0

>  <PEOE_VSA3>
0

>  <PEOE_VSA4>
0

>  <PEOE_VSA5>
0

>  <PEOE_VSA6>
0

>  <PEOE_VSA7>
12.22

>  <PEOE_VSA8>
19.44

>  <PEOE_VSA9>
0

>  <PEOE_VSA10>
0

>  <PEOE_VSA11>
4.77

>  <PEOE_VSA12>
0

>  <PEOE_VSA13>
0

>  <SMR_VSA1>
0

>  <SMR_VSA2>
0

>  <SMR_VSA3>
9.55

>  <SMR_VSA4>
7.05

>  <SMR_VSA5>
0

>  <SMR_VSA6>
0

>  <SMR_VSA7>
17.16

>  <SMR_VSA8>
0

>  <SMR_VSA9>
0

>  <SlogP_VSA1>
0

>  <SlogP_VSA2>
9.55

>  <SlogP_VSA3>
7.05

>  <SlogP_VSA4>
4.77

>  <SlogP_VSA5>
0

>  <SlogP_VSA6>
12.39

>  <SlogP_VSA7>
0

>  <SlogP_VSA8>
0

>  <SlogP_VSA9>
0

>  <SlogP_VSA10>
0

>  <SlogP_VSA11>
0

>  <EState_VSA1>
0

>  <EState_VSA2>
0

>  <EState_VSA3>
0

>  <EState_VSA4>
4.77

>  <EState_VSA5>
0

>  <EState_VSA6>
0

>  <EState_VSA7>
24.01

>  <EState_VSA8>
4.98

>  <EState_VSA9>
12.22

>  <EState_VSA10>
0

>  <VSA_EState1>
2.61

>  <VSA_EState2>
2.85

>  <VSA_EState3>
0

>  <VSA_EState4>
0

>  <VSA_EState5>
0

>  <VSA_EState6>
0

>  <VSA_EState7>
3.69

>  <VSA_EState8>
0

>  <VSA_EState9>
1.9

>  <apol>
15.78

>  <bpol>
9.53

>  <nRing>
1

>  <nHRing>
1

>  <naRing>
1

>  <naHRing>
1

>  <nARing 2>
0

>  <nAHRing 2>
0

>  <nFRing>
0

>  <nFHRing>
0

>  <nFaRing>
0

>  <nFaHRing>
0

>  <nFARing 2>
0

>  <nFAHRing 2>
0

>  <nRot>
0

>  <SLogP>
1.08

>  <SMR>
30.6

>  <TopoPSA(NO)>
20.72

>  <TopoPSA>
52.81

>  <JGI1>
0.21

>  <JGI2>
0.12

>  <JGI3>
0.09

>  <JGI4>
0

>  <JGI5>
0

>  <Diameter>
3

>  <Radius>
2

>  <TMWC10>
73.8

>  <TSRW10>
47.57

>  <MW>
114.03

>  <AMW>
8.77

>  <WPath>
40

>  <WPol>
5

>  <Zagreb1>
32

>  <Zagreb2>
35

>  <mZagreb2>
1.61

>  <yes>


>  <nAR-cont>
0.336376

>  <nHA-cont>
0.357561384

>  <MWHBN>
0.28093878

>  <MWHBN-cont>
0.89369408

>  <TPSA-cont>
0.631353407

>  <pka_cont>
0.97

>  <yes.1>


>  <BBB_SCORE>
3.782185318

>  <MMFF94 Energy>
0.75343

$$$$
Compound 3106
Actelion Java MolfileCreator 2.0

  0  0  0  0  0  0              0 V3000
M  V30 BEGIN CTAB
M  V30 COUNTS 33 35 0 0 0
M  V30 BEGIN ATOM
M  V30 1 N 3.1545 5.4239 1.5358 0
M  V30 2 C 2.7199 4.3912 1.2343 0
M  V30 3 C 2.1813 3.1152 0.8636 0
M  V30 4 C 3.0321 2.028 0.6515 0
M  V30 5 C 0.802 2.9523 0.7106 0
M  V30 6 C 2.5058 0.7838 0.2924 0
M  V30 7 C 0.2742 1.7083 0.3501 0
M  V30 8 C 1.1182 0.6029 0.1437 0
M  V30 9 C 0.5858 -0.7712 -0.273 0
M  V30 10 N 0.7006 -0.9688 -1.725 0
M  V30 11 C -0.797 -1.1245 0.2873 0
M  V30 12 N 1.0748 -2.1674 -2.2304 0
M  V30 13 C 0.4875 -0.0736 -2.7321 0
M  V30 14 C -1.9655 -1.1683 -0.4928 0
M  V30 15 C -0.9099 -1.401 1.6649 0
M  V30 16 C 1.047 -1.9241 -3.5428 0
M  V30 17 N 0.6878 -0.6551 -3.8918 0
M  V30 18 C -3.2017 -1.4824 0.084 0
M  V30 19 C -2.145 -1.7132 2.2407 0
M  V30 20 C -3.2951 -1.7554 1.4506 0
M  V30 21 C -4.563 -2.0755 2.0381 0
M  V30 22 N -5.5896 -2.3296 2.516 0
M  V30 23 H 4.1098 2.1412 0.761 0
M  V30 24 H 0.1274 3.7925 0.8704 0
M  V30 25 H 3.1926 -0.046 0.1243 0
M  V30 26 H -0.8053 1.6198 0.2366 0
M  V30 27 H 1.2725 -1.5199 0.1523 0
M  V30 28 H 0.1917 0.9544 -2.5761 0
M  V30 29 H -1.944 -0.9729 -1.5633 0
M  V30 30 H -0.028 -1.3745 2.3048 0
M  V30 31 H 1.2951 -2.6916 -4.2651 0
M  V30 32 H -4.0896 -1.5167 -0.546 0
M  V30 33 H -2.2 -1.9242 3.3076 0
M  V30 END ATOM
M  V30 BEGIN BOND
M  V30 1 3 1 2
M  V30 2 1 2 3
M  V30 3 2 3 4
M  V30 4 1 3 5
M  V30 5 1 4 6
M  V30 6 2 5 7
M  V30 7 2 6 8
M  V30 8 1 8 9
M  V30 9 1 9 10
M  V30 10 1 9 11
M  V30 11 1 10 12
M  V30 12 1 10 13
M  V30 13 2 11 14
M  V30 14 1 11 15
M  V30 15 2 12 16
M  V30 16 2 13 17
M  V30 17 1 14 18
M  V30 18 2 15 19
M  V30 19 2 18 20
M  V30 20 1 20 21
M  V30 21 3 21 22
M  V30 22 1 7 8
M  V30 23 1 16 17
M  V30 24 1 19 20
M  V30 25 1 4 23
M  V30 26 1 5 24
M  V30 27 1 6 25
M  V30 28 1 7 26
M  V30 29 1 9 27
M  V30 30 1 13 28
M  V30 31 1 14 29
M  V30 32 1 15 30
M  V30 33 1 16 31
M  V30 34 1 18 32
M  V30 35 1 19 33
M  V30 END BOND
M  V30 END CTAB
M  END
>  <Column 1>
3992

>  <level_0>
7781

>  <index>
7783

>  <Unnamed: 0>
7783

>  <NO.>
7796

>  <Name>
letrozole

>  <IUPAC_name>
4-[(4-cyanophenyl)-(1-2-4-triazol-1-yl)methyl]benzonitrile

>  <SMILES>
N#Cc1ccc(C(c2ccc(C#N)cc2)n2cncn2)cc1

>  <CID>
3902

>  <logBB>


>  <BBB+/BBB->
BBB-

>  <Inchi>
InChI=1S/C17H11N5/c18-9-13-1-5-15(6-2-13)17(22-12-20-11-21-22)16-7-3-14(10-19)4-8-16/h1-8-11-12-17H

>  <threshold>


>  <reference>
R14|R15|R23|R27|

>  <group>
D

>  <Class>
-1

>  <ABC>
16.85

>  <ABCGG>
14.05

>  <nAcid>
0

>  <nBase>
0

>  <nAromAtom>
17

>  <nAromBond>
17

>  <nAtom>
33

>  <nHeavyAtom>
22

>  <nSpiro>
0

>  <nBridgehead>
0

>  <nHetero>
5

>  <nN>
5

>  <nO>
0

>  <nF>
0

>  <BalabanJ>
1.63

>  <BertzCT>
776.56

>  <nBonds>
35

>  <nBondsO>
24

>  <nBondsS>
16

>  <nBondsD>
0

>  <nBondsT>
2

>  <nBondsA>
17

>  <nBondsM>
19

>  <nBondsKS>
25

>  <nBondsKD>
8

>  <RNCG>
0.17

>  <RPCG>
0.1

>  <FCSP3>
0.06

>  <SZ>
24.67

>  <Sm>
23.75

>  <Sv>
23.77

>  <Sse>
33.2

>  <Sp>
24.69

>  <Si>
36.74

>  <MZ>
0.75

>  <Mm>
0.72

>  <Mv>
0.72

>  <Mse>
1.01

>  <Mp>
0.75

>  <Mi>
1.11

>  <NsCH3>
0

>  <NdCH2>
0

>  <NssCH2>
0

>  <NtCH>
0

>  <NdsCH>
0

>  <NaaCH>
10

>  <NsssCH>
1

>  <NddC>
0

>  <NtsC>
2

>  <NdssC>
0

>  <NaasC>
4

>  <NaaaC>
0

>  <NssssC>
0

>  <NsNH3>
0

>  <NsNH2>
0

>  <NssNH2>
0

>  <NdNH>
0

>  <NssNH>
0

>  <NaaNH>
0

>  <NtN>
2

>  <NsssNH>
0

>  <NdsN>
0

>  <NaaN>
2

>  <NsssN>
0

>  <NddsN>
0

>  <NaasN>
1

>  <NssssN>
0

>  <NsOH>
0

>  <NdO>
0

>  <NssO>
0

>  <NaaO>
0

>  <NsF>
0

>  <NsSiH3>
0

>  <NssSiH2>
0

>  <NsssSiH>
0

>  <NssssSi>
0

>  <NsPH2>
0

>  <NssPH>
0

>  <NsssP>
0

>  <NdsssP>
0

>  <NsssssP>
0

>  <NsSH>
0

>  <NdS>
0

>  <NssS>
0

>  <NaaS>
0

>  <NdssS>
0

>  <NddssS>
0

>  <NsCl>
0

>  <NsBr>
0

>  <NsI>
0

>  <fragCpx>
114.05

>  <fMF>
0.55

>  <nHBAcc>
5

>  <nHBDon>
0

>  <Kier1>
16.84

>  <Kier2>
8.2

>  <Lipinski>
1

>  <GhoseFilter>
1

>  <FilterItLogS>
-3.77

>  <VMcGowan>
216.11

>  <LabuteASA>
127.25

>  <PEOE_VSA1>
0

>  <PEOE_VSA2>
0

>  <PEOE_VSA3>
9.67

>  <PEOE_VSA4>
15.62

>  <PEOE_VSA5>
0

>  <PEOE_VSA6>
24.27

>  <PEOE_VSA7>
35.39

>  <PEOE_VSA8>
0

>  <PEOE_VSA9>
23.27

>  <PEOE_VSA10>
18.7

>  <PEOE_VSA11>
0

>  <PEOE_VSA12>
0

>  <PEOE_VSA13>
0

>  <SMR_VSA1>
0

>  <SMR_VSA2>
10.52

>  <SMR_VSA3>
14.76

>  <SMR_VSA4>
0

>  <SMR_VSA5>
6.04

>  <SMR_VSA6>
0

>  <SMR_VSA7>
83.44

>  <SMR_VSA8>
0

>  <SMR_VSA9>
12.14

>  <SlogP_VSA1>
0

>  <SlogP_VSA2>
14.76

>  <SlogP_VSA3>
0

>  <SlogP_VSA4>
22.66

>  <SlogP_VSA5>
28.3

>  <SlogP_VSA6>
61.19

>  <SlogP_VSA7>
0

>  <SlogP_VSA8>
0

>  <SlogP_VSA9>
0

>  <SlogP_VSA10>
0

>  <SlogP_VSA11>
0

>  <EState_VSA1>
0

>  <EState_VSA2>
6.04

>  <EState_VSA3>
11.13

>  <EState_VSA4>
11.13

>  <EState_VSA5>
6.33

>  <EState_VSA6>
35.27

>  <EState_VSA7>
24.27

>  <EState_VSA8>
22.22

>  <EState_VSA9>
10.52

>  <EState_VSA10>
0

>  <VSA_EState1>
1.75

>  <VSA_EState2>
4.01

>  <VSA_EState3>
22.07

>  <VSA_EState4>
3.21

>  <VSA_EState5>
0

>  <VSA_EState6>
18.82

>  <VSA_EState7>
3.14

>  <VSA_EState8>
0

>  <VSA_EState9>
0

>  <apol>
41.22

>  <bpol>
15.03

>  <nRing>
3

>  <nHRing>
1

>  <naRing>
3

>  <naHRing>
1

>  <nARing 2>
0

>  <nAHRing 2>
0

>  <nFRing>
0

>  <nFHRing>
0

>  <nFaRing>
0

>  <nFaHRing>
0

>  <nFARing 2>
0

>  <nFAHRing 2>
0

>  <nRot>
3

>  <SLogP>
2.66

>  <SMR>
79.58

>  <TopoPSA(NO)>
78.29

>  <TopoPSA>
78.29

>  <JGI1>
0.15

>  <JGI2>
0.07

>  <JGI3>
0.04

>  <JGI4>
0.03

>  <JGI5>
0.01

>  <Diameter>
12

>  <Radius>
6

>  <TMWC10>
119.65

>  <TSRW10>
69.01

>  <MW>
285.1

>  <AMW>
8.64

>  <WPath>
1058

>  <WPol>
32

>  <Zagreb1>
112

>  <Zagreb2>
131

>  <mZagreb2>
5.08

>  <yes>


>  <nAR-cont>
0.336376

>  <nHA-cont>
0.983774276

>  <MWHBN>
0.296122492

>  <MWHBN-cont>
0.852166908

>  <TPSA-cont>
0.453487185

>  <pka_cont>
0.97

>  <yes.1>


>  <BBB_SCORE>
3.990375007

>  <MMFF94 Energy>
123.04

$$$$
Compound 3107
Actelion Java MolfileCreator 2.0

  0  0  0  0  0  0              0 V3000
M  V30 BEGIN CTAB
M  V30 COUNTS 18 18 0 0 0
M  V30 BEGIN ATOM
M  V30 1 O 1.4802 2.26 -1.7921 0
M  V30 2 C 0.4777 1.5912 -1.6005 0
M  V30 3 O -0.6073 1.7052 -2.384 0
M  V30 4 C 0.3345 0.5988 -0.5139 0
M  V30 5 C 1.3992 0.3872 0.3707 0
M  V30 6 C -0.8514 -0.1341 -0.3524 0
M  V30 7 O 2.5935 1.0531 0.2939 0
M  V30 8 C 1.2792 -0.5401 1.4007 0
M  V30 9 C -0.977 -1.0734 0.6749 0
M  V30 10 C 0.0939 -1.2635 1.5515 0
M  V30 11 N -2.1527 -1.7806 0.8408 0
M  V30 12 H -0.365 2.3876 -3.0446 0
M  V30 13 H -1.6852 0.026 -1.031 0
M  V30 14 H 2.5599 1.6776 -0.4629 0
M  V30 15 H 2.1062 -0.6993 2.0876 0
M  V30 16 H 0.016 -1.9807 2.3646 0
M  V30 17 H -2.2336 -2.4829 1.5635 0
M  V30 18 H -2.9193 -1.672 0.1909 0
M  V30 END ATOM
M  V30 BEGIN BOND
M  V30 1 2 1 2
M  V30 2 1 2 3
M  V30 3 1 2 4
M  V30 4 2 4 5
M  V30 5 1 4 6
M  V30 6 1 5 7
M  V30 7 1 5 8
M  V30 8 2 6 9
M  V30 9 2 8 10
M  V30 10 1 9 11
M  V30 11 1 9 10
M  V30 12 1 3 12
M  V30 13 1 6 13
M  V30 14 1 7 14
M  V30 15 1 8 15
M  V30 16 1 10 16
M  V30 17 1 11 17
M  V30 18 1 11 18
M  V30 END BOND
M  V30 END CTAB
M  END
>  <Column 1>
3993

>  <level_0>
7782

>  <index>
7784

>  <Unnamed: 0>
7784

>  <NO.>
7797

>  <Name>
mesalamine

>  <IUPAC_name>
5-amino-2-hydroxybenzoic acid

>  <SMILES>
Nc1ccc(O)c(C(=O)O)c1

>  <CID>
4075

>  <logBB>


>  <BBB+/BBB->
BBB-

>  <Inchi>
InChI=1S/C7H7NO3/c8-4-1-2-6(9)5(3-4)7(10)11/h1-3-9H-8H2-(H-10-11)

>  <threshold>


>  <reference>
R14|R15|R27|

>  <group>
D

>  <Class>
-1

>  <ABC>
8.13

>  <ABCGG>
7.81

>  <nAcid>
1

>  <nBase>
0

>  <nAromAtom>
6

>  <nAromBond>
6

>  <nAtom>
18

>  <nHeavyAtom>
11

>  <nSpiro>
0

>  <nBridgehead>
0

>  <nHetero>
4

>  <nN>
1

>  <nO>
3

>  <nF>
0

>  <BalabanJ>
2.47

>  <BertzCT>
295.74

>  <nBonds>
18

>  <nBondsO>
11

>  <nBondsS>
11

>  <nBondsD>
1

>  <nBondsT>
0

>  <nBondsA>
6

>  <nBondsM>
7

>  <nBondsKS>
14

>  <nBondsKD>
4

>  <RNCG>
0.3

>  <RPCG>
0.2

>  <FCSP3>
0

>  <SZ>
13.33

>  <Sm>
12.75

>  <Sv>
11.8

>  <Sse>
18.76

>  <Sp>
11.89

>  <Si>
20.37

>  <MZ>
0.74

>  <Mm>
0.71

>  <Mv>
0.66

>  <Mse>
1.04

>  <Mp>
0.66

>  <Mi>
1.13

>  <NsCH3>
0

>  <NdCH2>
0

>  <NssCH2>
0

>  <NtCH>
0

>  <NdsCH>
0

>  <NaaCH>
3

>  <NsssCH>
0

>  <NddC>
0

>  <NtsC>
0

>  <NdssC>
1

>  <NaasC>
3

>  <NaaaC>
0

>  <NssssC>
0

>  <NsNH3>
0

>  <NsNH2>
1

>  <NssNH2>
0

>  <NdNH>
0

>  <NssNH>
0

>  <NaaNH>
0

>  <NtN>
0

>  <NsssNH>
0

>  <NdsN>
0

>  <NaaN>
0

>  <NsssN>
0

>  <NddsN>
0

>  <NaasN>
0

>  <NssssN>
0

>  <NsOH>
2

>  <NdO>
1

>  <NssO>
0

>  <NaaO>
0

>  <NsF>
0

>  <NsSiH3>
0

>  <NssSiH2>
0

>  <NsssSiH>
0

>  <NssssSi>
0

>  <NsPH2>
0

>  <NssPH>
0

>  <NsssP>
0

>  <NdsssP>
0

>  <NsssssP>
0

>  <NsSH>
0

>  <NdS>
0

>  <NssS>
0

>  <NaaS>
0

>  <NdssS>
0

>  <NddssS>
0

>  <NsCl>
0

>  <NsBr>
0

>  <NsI>
0

>  <fragCpx>
11.04

>  <fMF>
0.33

>  <nHBAcc>
3

>  <nHBDon>
3

>  <Kier1>
9.09

>  <Kier2>
3.6

>  <Lipinski>
1

>  <GhoseFilter>
0

>  <FilterItLogS>
-0.37

>  <VMcGowan>
109.02

>  <LabuteASA>
62.89

>  <PEOE_VSA1>
15.95

>  <PEOE_VSA2>
0

>  <PEOE_VSA3>
4.79

>  <PEOE_VSA4>
0

>  <PEOE_VSA5>
0

>  <PEOE_VSA6>
0

>  <PEOE_VSA7>
18.2

>  <PEOE_VSA8>
5.69

>  <PEOE_VSA9>
0

>  <PEOE_VSA10>
11.31

>  <PEOE_VSA11>
0

>  <PEOE_VSA12>
0

>  <PEOE_VSA13>
0

>  <SMR_VSA1>
15.01

>  <SMR_VSA2>
0

>  <SMR_VSA3>
0

>  <SMR_VSA4>
0

>  <SMR_VSA5>
0

>  <SMR_VSA6>
5.73

>  <SMR_VSA7>
23.76

>  <SMR_VSA8>
0

>  <SMR_VSA9>
5.75

>  <SlogP_VSA1>
5.73

>  <SlogP_VSA2>
16.18

>  <SlogP_VSA3>
0

>  <SlogP_VSA4>
0

>  <SlogP_VSA5>
10.36

>  <SlogP_VSA6>
18.2

>  <SlogP_VSA7>
0

>  <SlogP_VSA8>
0

>  <SlogP_VSA9>
0

>  <SlogP_VSA10>
5.69

>  <SlogP_VSA11>
5.75

>  <EState_VSA1>
5.97

>  <EState_VSA2>
11.31

>  <EState_VSA3>
5.69

>  <EState_VSA4>
0

>  <EState_VSA5>
18.2

>  <EState_VSA6>
0

>  <EState_VSA7>
0

>  <EState_VSA8>
0

>  <EState_VSA9>
15.95

>  <EState_VSA10>
4.79

>  <VSA_EState1>
0

>  <VSA_EState2>
10.36

>  <VSA_EState3>
17.44

>  <VSA_EState4>
5.43

>  <VSA_EState5>
-1.46

>  <VSA_EState6>
3.89

>  <VSA_EState7>
0

>  <VSA_EState8>
0

>  <VSA_EState9>
0

>  <apol>
19.86

>  <bpol>
7.32

>  <nRing>
1

>  <nHRing>
0

>  <naRing>
1

>  <naHRing>
0

>  <nARing 2>
0

>  <nAHRing 2>
0

>  <nFRing>
0

>  <nFHRing>
0

>  <nFaRing>
0

>  <nFaHRing>
0

>  <nFARing 2>
0

>  <nFAHRing 2>
0

>  <nRot>
1

>  <SLogP>
0.67

>  <SMR>
39.48

>  <TopoPSA(NO)>
83.55

>  <TopoPSA>
83.55

>  <JGI1>
0.27

>  <JGI2>
0.1

>  <JGI3>
0.07

>  <JGI4>
0.07

>  <JGI5>
0.03

>  <Diameter>
5

>  <Radius>
3

>  <TMWC10>
87.46

>  <TSRW10>
41.03

>  <MW>
153.04

>  <AMW>
8.5

>  <WPath>
148

>  <WPol>
14

>  <Zagreb1>
52

>  <Zagreb2>
58

>  <mZagreb2>
2.47

>  <yes>


>  <nAR-cont>
0.336376

>  <nHA-cont>
0.720786536

>  <MWHBN>
0.485007854

>  <MWHBN-cont>
0

>  <TPSA-cont>
0.416769119

>  <pka_cont>
0.97

>  <yes.1>


>  <BBB_SCORE>
2.375700773

>  <MMFF94 Energy>
-5.251

$$$$
Compound 3108
Actelion Java MolfileCreator 2.0

  0  0  0  0  0  0              0 V3000
M  V30 BEGIN CTAB
M  V30 COUNTS 24 24 0 0 0
M  V30 BEGIN ATOM
M  V30 1 O -2.8517 -3.5657 -1.1874 0
M  V30 2 N -3.2207 -2.635 -0.4707 0 CHG=1
M  V30 3 O -2.27 -2.0787 0.4145 0
M  V30 4 O -4.3225 -2.0964 -0.3797 0 CHG=-1
M  V30 5 C -0.9767 -2.6661 0.2698 0
M  V30 6 C -0.0366 -1.9846 1.2661 0
M  V30 7 N 0.1754 -0.578 0.9632 0
M  V30 8 C 1.0222 -0.1884 -0.0536 0
M  V30 9 O 1.6456 -0.9916 -0.738 0
M  V30 10 C 1.1716 1.2663 -0.2882 0
M  V30 11 C 2.3254 1.7214 -0.9155 0
M  V30 12 C 0.2034 2.211 0.0612 0
M  V30 13 N 2.5782 3.028 -1.1811 0
M  V30 14 C 0.4367 3.5597 -0.2072 0
M  V30 15 C 1.6278 3.9161 -0.8204 0
M  V30 16 H -1.0243 -3.7343 0.5128 0
M  V30 17 H -0.6096 -2.5315 -0.7542 0
M  V30 18 H -0.4586 -2.0245 2.2759 0
M  V30 19 H 0.9347 -2.4903 1.2711 0
M  V30 20 H -0.2629 0.109 1.5613 0
M  V30 21 H 3.1073 1.0331 -1.2282 0
M  V30 22 H -0.7404 1.9216 0.5107 0
M  V30 23 H -0.2978 4.3165 0.0468 0
M  V30 24 H 1.8524 4.9542 -1.0501 0
M  V30 END ATOM
M  V30 BEGIN BOND
M  V30 1 2 1 2
M  V30 2 1 2 3
M  V30 3 1 2 4
M  V30 4 1 3 5
M  V30 5 1 5 6
M  V30 6 1 6 7
M  V30 7 1 7 8
M  V30 8 2 8 9
M  V30 9 1 8 10
M  V30 10 2 10 11
M  V30 11 1 10 12
M  V30 12 1 11 13
M  V30 13 2 12 14
M  V30 14 2 13 15
M  V30 15 1 14 15
M  V30 16 1 5 16
M  V30 17 1 5 17
M  V30 18 1 6 18
M  V30 19 1 6 19
M  V30 20 1 7 20
M  V30 21 1 11 21
M  V30 22 1 12 22
M  V30 23 1 14 23
M  V30 24 1 15 24
M  V30 END BOND
M  V30 END CTAB
M  END
>  <Column 1>
3994

>  <level_0>
7783

>  <index>
7785

>  <Unnamed: 0>
7785

>  <NO.>
7798

>  <Name>
nicorandil

>  <IUPAC_name>
2-(pyridine-3-carbonylamino)ethyl nitrate

>  <SMILES>
O=C(NCCO[N+](=O)[O-])c1cccnc1

>  <CID>
47528

>  <logBB>


>  <BBB+/BBB->
BBB-

>  <Inchi>
InChI=1S/C8H9N3O4/c12-8(7-2-1-3-9-6-7)10-4-5-15-11(13)14/h1-3-6H-4-5H2-(H-10-12)

>  <threshold>


>  <reference>
R14|R23|R27|

>  <group>
D

>  <Class>
-1

>  <ABC>
10.89

>  <ABCGG>
9.61

>  <nAcid>
0

>  <nBase>
0

>  <nAromAtom>
6

>  <nAromBond>
6

>  <nAtom>
24

>  <nHeavyAtom>
15

>  <nSpiro>
0

>  <nBridgehead>
0

>  <nHetero>
7

>  <nN>
3

>  <nO>
4

>  <nF>
0

>  <BalabanJ>
2.04

>  <BertzCT>
341

>  <nBonds>
24

>  <nBondsO>
15

>  <nBondsS>
16

>  <nBondsD>
2

>  <nBondsT>
0

>  <nBondsA>
6

>  <nBondsM>
8

>  <nBondsKS>
19

>  <nBondsKD>
5

>  <RNCG>
0.23

>  <RPCG>
0.2

>  <FCSP3>
0.25

>  <SZ>
18.33

>  <Sm>
17.58

>  <Sv>
15.57

>  <Sse>
25.31

>  <Sp>
15.49

>  <Si>
27.58

>  <MZ>
0.76

>  <Mm>
0.73

>  <Mv>
0.65

>  <Mse>
1.05

>  <Mp>
0.65

>  <Mi>
1.15

>  <NsCH3>
0

>  <NdCH2>
0

>  <NssCH2>
2

>  <NtCH>
0

>  <NdsCH>
0

>  <NaaCH>
4

>  <NsssCH>
0

>  <NddC>
0

>  <NtsC>
0

>  <NdssC>
1

>  <NaasC>
1

>  <NaaaC>
0

>  <NssssC>
0

>  <NsNH3>
0

>  <NsNH2>
0

>  <NssNH2>
0

>  <NdNH>
0

>  <NssNH>
1

>  <NaaNH>
0

>  <NtN>
0

>  <NsssNH>
0

>  <NdsN>
0

>  <NaaN>
1

>  <NsssN>
0

>  <NddsN>
1

>  <NaasN>
0

>  <NssssN>
0

>  <NsOH>
0

>  <NdO>
2

>  <NssO>
1

>  <NaaO>
0

>  <NsF>
0

>  <NsSiH3>
0

>  <NssSiH2>
0

>  <NsssSiH>
0

>  <NssssSi>
0

>  <NsPH2>
0

>  <NssPH>
0

>  <NsssP>
0

>  <NdsssP>
0

>  <NsssssP>
0

>  <NsSH>
0

>  <NdS>
0

>  <NssS>
0

>  <NaaS>
0

>  <NdssS>
0

>  <NddssS>
0

>  <NsCl>
0

>  <NsBr>
0

>  <NsI>
0

>  <fragCpx>
15.07

>  <fMF>
0.25

>  <nHBAcc>
5

>  <nHBDon>
1

>  <Kier1>
13.07

>  <Kier2>
7.3

>  <Lipinski>
1

>  <GhoseFilter>
1

>  <FilterItLogS>
-1.98

>  <VMcGowan>
144.64

>  <LabuteASA>
85.18

>  <PEOE_VSA1>
10.15

>  <PEOE_VSA2>
9.78

>  <PEOE_VSA3>
0

>  <PEOE_VSA4>
0

>  <PEOE_VSA5>
10.11

>  <PEOE_VSA6>
0

>  <PEOE_VSA7>
12.13

>  <PEOE_VSA8>
18.94

>  <PEOE_VSA9>
5.56

>  <PEOE_VSA10>
6.61

>  <PEOE_VSA11>
0

>  <PEOE_VSA12>
0

>  <PEOE_VSA13>
10.99

>  <SMR_VSA1>
14.72

>  <SMR_VSA2>
0

>  <SMR_VSA3>
10.3

>  <SMR_VSA4>
0

>  <SMR_VSA5>
0

>  <SMR_VSA6>
13.15

>  <SMR_VSA7>
40.2

>  <SMR_VSA8>
0

>  <SMR_VSA9>
0

>  <SlogP_VSA1>
5.32

>  <SlogP_VSA2>
29.13

>  <SlogP_VSA3>
4.84

>  <SlogP_VSA4>
10.11

>  <SlogP_VSA5>
10.36

>  <SlogP_VSA6>
24.53

>  <SlogP_VSA7>
0

>  <SlogP_VSA8>
0

>  <SlogP_VSA9>
0

>  <SlogP_VSA10>
0

>  <SlogP_VSA11>
0

>  <EState_VSA1>
5.09

>  <EState_VSA2>
19.06

>  <EState_VSA3>
5.56

>  <EState_VSA4>
0

>  <EState_VSA5>
6.2

>  <EState_VSA6>
18.33

>  <EState_VSA7>
0

>  <EState_VSA8>
15.14

>  <EState_VSA9>
0

>  <EState_VSA10>
14.91

>  <VSA_EState1>
0

>  <VSA_EState2>
28.87

>  <VSA_EState3>
11.31

>  <VSA_EState4>
0.4

>  <VSA_EState5>
-0.34

>  <VSA_EState6>
3.22

>  <VSA_EState7>
2.95

>  <VSA_EState8>
-0.09

>  <VSA_EState9>
0

>  <apol>
25.87

>  <bpol>
13.37

>  <nRing>
1

>  <nHRing>
1

>  <naRing>
1

>  <naHRing>
1

>  <nARing 2>
0

>  <nAHRing 2>
0

>  <nFRing>
0

>  <nFHRing>
0

>  <nFaRing>
0

>  <nFaHRing>
0

>  <nFARing 2>
0

>  <nFAHRing 2>
0

>  <nRot>
5

>  <SLogP>
0.02

>  <SMR>
49.52

>  <TopoPSA(NO)>
94.36

>  <TopoPSA>
94.36

>  <JGI1>
0.17

>  <JGI2>
0.07

>  <JGI3>
0.04

>  <JGI4>
0.03

>  <JGI5>
0.02

>  <Diameter>
10

>  <Radius>
5

>  <TMWC10>
95.68

>  <TSRW10>
45.53

>  <MW>
211.06

>  <AMW>
8.79

>  <WPath>
444

>  <WPol>
16

>  <Zagreb1>
66

>  <Zagreb2>
70

>  <mZagreb2>
3.53

>  <yes>


>  <nAR-cont>
0.336376

>  <nHA-cont>
0.92539861

>  <MWHBN>
0.412998319

>  <MWHBN-cont>
0.42511941

>  <TPSA-cont>
0.341308606

>  <pka_cont>
0.97

>  <yes.1>


>  <BBB_SCORE>
3.067070938

>  <MMFF94 Energy>
-2.8414

$$$$
Compound 3109
Actelion Java MolfileCreator 2.0

  0  0  0  0  0  0              0 V3000
M  V30 BEGIN CTAB
M  V30 COUNTS 14 14 0 0 0
M  V30 BEGIN ATOM
M  V30 1 O 1.7331 -0.7087 2.285 0
M  V30 2 C 0.9764 0.0776 1.7477 0
M  V30 3 O 0.6549 1.2488 2.3253 0
M  V30 4 C 0.3194 -0.1113 0.4421 0
M  V30 5 C 0.566 -1.2817 -0.2626 0
M  V30 6 C -0.5423 0.8286 -0.127 0
M  V30 7 N 0.0185 -1.5647 -1.4714 0
M  V30 8 C -1.1183 0.5628 -1.368 0
M  V30 9 C -0.8107 -0.635 -1.9949 0
M  V30 10 H 1.1523 1.2429 3.1706 0
M  V30 11 H 1.2278 -2.0505 0.1293 0
M  V30 12 H -0.7683 1.7607 0.3837 0
M  V30 13 H -1.7915 1.2735 -1.8352 0
M  V30 14 H -1.2355 -0.886 -2.9631 0
M  V30 END ATOM
M  V30 BEGIN BOND
M  V30 1 2 1 2
M  V30 2 1 2 3
M  V30 3 1 2 4
M  V30 4 2 4 5
M  V30 5 1 4 6
M  V30 6 1 5 7
M  V30 7 2 6 8
M  V30 8 2 7 9
M  V30 9 1 8 9
M  V30 10 1 3 10
M  V30 11 1 5 11
M  V30 12 1 6 12
M  V30 13 1 8 13
M  V30 14 1 9 14
M  V30 END BOND
M  V30 END CTAB
M  END
>  <Column 1>
3995

>  <level_0>
7784

>  <index>
7786

>  <Unnamed: 0>
7786

>  <NO.>
7799

>  <Name>
niacin

>  <IUPAC_name>
pyridine-3-carboxylic acid

>  <SMILES>
O=C(O)c1cccnc1

>  <CID>
938

>  <logBB>


>  <BBB+/BBB->
BBB-

>  <Inchi>
InChI=1S/C6H5NO2/c8-6(9)5-2-1-3-7-4-5/h1-4H-(H-8-9)

>  <threshold>


>  <reference>
R14|R15|R27|

>  <group>
D

>  <Class>
-1

>  <ABC>
6.54

>  <ABCGG>
6.24

>  <nAcid>
1

>  <nBase>
0

>  <nAromAtom>
6

>  <nAromBond>
6

>  <nAtom>
14

>  <nHeavyAtom>
9

>  <nSpiro>
0

>  <nBridgehead>
0

>  <nHetero>
3

>  <nN>
1

>  <nO>
2

>  <nF>
0

>  <BalabanJ>
2.23

>  <BertzCT>
207.56

>  <nBonds>
14

>  <nBondsO>
9

>  <nBondsS>
7

>  <nBondsD>
1

>  <nBondsT>
0

>  <nBondsA>
6

>  <nBondsM>
7

>  <nBondsKS>
10

>  <nBondsKD>
4

>  <RNCG>
0.44

>  <RPCG>
0.31

>  <FCSP3>
0

>  <SZ>
10.67

>  <Sm>
10.25

>  <Sv>
9.54

>  <Sse>
14.54

>  <Sp>
9.62

>  <Si>
15.75

>  <MZ>
0.76

>  <Mm>
0.73

>  <Mv>
0.68

>  <Mse>
1.04

>  <Mp>
0.69

>  <Mi>
1.12

>  <NsCH3>
0

>  <NdCH2>
0

>  <NssCH2>
0

>  <NtCH>
0

>  <NdsCH>
0

>  <NaaCH>
4

>  <NsssCH>
0

>  <NddC>
0

>  <NtsC>
0

>  <NdssC>
1

>  <NaasC>
1

>  <NaaaC>
0

>  <NssssC>
0

>  <NsNH3>
0

>  <NsNH2>
0

>  <NssNH2>
0

>  <NdNH>
0

>  <NssNH>
0

>  <NaaNH>
0

>  <NtN>
0

>  <NsssNH>
0

>  <NdsN>
0

>  <NaaN>
1

>  <NsssN>
0

>  <NddsN>
0

>  <NaasN>
0

>  <NssssN>
0

>  <NsOH>
1

>  <NdO>
1

>  <NssO>
0

>  <NaaO>
0

>  <NsF>
0

>  <NsSiH3>
0

>  <NssSiH2>
0

>  <NsssSiH>
0

>  <NssssSi>
0

>  <NsPH2>
0

>  <NssPH>
0

>  <NsssP>
0

>  <NdsssP>
0

>  <NsssssP>
0

>  <NsSH>
0

>  <NdS>
0

>  <NssS>
0

>  <NaaS>
0

>  <NdssS>
0

>  <NddssS>
0

>  <NsCl>
0

>  <NsBr>
0

>  <NsI>
0

>  <fragCpx>
9.03

>  <fMF>
0.43

>  <nHBAcc>
2

>  <nHBDon>
1

>  <Kier1>
7.11

>  <Kier2>
3.24

>  <Lipinski>
1

>  <GhoseFilter>
0

>  <FilterItLogS>
-0.75

>  <VMcGowan>
89.06

>  <LabuteASA>
51.97

>  <PEOE_VSA1>
5.11

>  <PEOE_VSA2>
4.98

>  <PEOE_VSA3>
4.79

>  <PEOE_VSA4>
0

>  <PEOE_VSA5>
0

>  <PEOE_VSA6>
0

>  <PEOE_VSA7>
12.13

>  <PEOE_VSA8>
12.39

>  <PEOE_VSA9>
5.56

>  <PEOE_VSA10>
0

>  <PEOE_VSA11>
0

>  <PEOE_VSA12>
0

>  <PEOE_VSA13>
0

>  <SMR_VSA1>
9.9

>  <SMR_VSA2>
0

>  <SMR_VSA3>
4.98

>  <SMR_VSA4>
0

>  <SMR_VSA5>
0

>  <SMR_VSA6>
0

>  <SMR_VSA7>
30.09

>  <SMR_VSA8>
0

>  <SMR_VSA9>
0

>  <SlogP_VSA1>
0

>  <SlogP_VSA2>
16.06

>  <SlogP_VSA3>
0

>  <SlogP_VSA4>
0

>  <SlogP_VSA5>
10.36

>  <SlogP_VSA6>
24.53

>  <SlogP_VSA7>
0

>  <SlogP_VSA8>
0

>  <SlogP_VSA9>
0

>  <SlogP_VSA10>
0

>  <SlogP_VSA11>
0

>  <EState_VSA1>
5.97

>  <EState_VSA2>
5.56

>  <EState_VSA3>
0

>  <EState_VSA4>
0

>  <EState_VSA5>
18.46

>  <EState_VSA6>
6.07

>  <EState_VSA7>
0

>  <EState_VSA8>
4.98

>  <EState_VSA9>
5.11

>  <EState_VSA10>
4.79

>  <VSA_EState1>
0

>  <VSA_EState2>
13.79

>  <VSA_EState3>
8.34

>  <VSA_EState4>
0.22

>  <VSA_EState5>
-0.94

>  <VSA_EState6>
3.08

>  <VSA_EState7>
2.84

>  <VSA_EState8>
0

>  <VSA_EState9>
0

>  <apol>
16.06

>  <bpol>
7.02

>  <nRing>
1

>  <nHRing>
1

>  <naRing>
1

>  <naHRing>
1

>  <nARing 2>
0

>  <nAHRing 2>
0

>  <nFRing>
0

>  <nFHRing>
0

>  <nFaRing>
0

>  <nFaHRing>
0

>  <nFARing 2>
0

>  <nFAHRing 2>
0

>  <nRot>
1

>  <SLogP>
0.78

>  <SMR>
31.2

>  <TopoPSA(NO)>
50.19

>  <TopoPSA>
50.19

>  <JGI1>
0.17

>  <JGI2>
0.08

>  <JGI3>
0.05

>  <JGI4>
0.04

>  <JGI5>
0.06

>  <Diameter>
5

>  <Radius>
3

>  <TMWC10>
79.39

>  <TSRW10>
37.29

>  <MW>
123.03

>  <AMW>
8.79

>  <WPath>
88

>  <WPol>
9

>  <Zagreb1>
40

>  <Zagreb2>
43

>  <mZagreb2>
2.11

>  <yes>


>  <nAR-cont>
0.336376

>  <nHA-cont>
0.56070381

>  <MWHBN>
0.270467909

>  <MWHBN-cont>
0.919046112

>  <TPSA-cont>
0.649642634

>  <pka_cont>
0.97

>  <yes.1>


>  <BBB_SCORE>
4.059934246

>  <MMFF94 Energy>
8.7565

$$$$
Compound 3110
Actelion Java MolfileCreator 2.0

  0  0  0  0  0  0              0 V3000
M  V30 BEGIN CTAB
M  V30 COUNTS 49 52 0 0 0
M  V30 BEGIN ATOM
M  V30 1 S 3.5806 -1.8704 -1.3822 0 CFG=2
M  V30 2 O 4.8187 -2.6729 -1.1054 0
M  V30 3 C 4.0936 -0.5693 -2.5255 0
M  V30 4 C 3.2945 -0.8258 0.0915 0
M  V30 5 C 5.4241 -0.1402 -2.5751 0
M  V30 6 C 3.1514 0.003 -3.3873 0
M  V30 7 C 1.9911 -0.0332 0.0171 0
M  V30 8 C 5.8048 0.8666 -3.4637 0
M  V30 9 C 3.534 1.0111 -4.2743 0
M  V30 10 C 0.743 -0.9172 0.1042 0
M  V30 11 C 4.8591 1.4436 -4.3103 0
M  V30 12 C 0.2388 -1.0325 1.5208 0
M  V30 13 C -0.4051 -0.3155 -0.6666 0
M  V30 14 O 0.9166 -1.4292 2.4575 0
M  V30 15 N -1.0741 -0.5572 1.5248 0
M  V30 16 O -0.3704 -0.0759 -1.8656 0
M  V30 17 N -1.4626 -0.1646 0.2313 0
M  V30 18 C -1.7452 -0.1898 2.7145 0
M  V30 19 C -2.8 0.0246 -0.1869 0
M  V30 20 C -2.3467 1.0685 2.8447 0
M  V30 21 C -1.8084 -1.0888 3.7862 0
M  V30 22 C -3.1087 1.0307 -1.1107 0
M  V30 23 C -3.8301 -0.7869 0.3054 0
M  V30 24 C -3.0128 1.415 4.0228 0
M  V30 25 C -2.473 -0.74 4.9641 0
M  V30 26 C -4.4274 1.2298 -1.5258 0
M  V30 27 C -5.1486 -0.5853 -0.1094 0
M  V30 28 C -3.0768 0.5103 5.0808 0
M  V30 29 C -5.4466 0.4235 -1.0232 0
M  V30 30 H 3.2882 -1.4935 0.9593 0
M  V30 31 H 4.148 -0.1492 0.2048 0
M  V30 32 H 6.1709 -0.5945 -1.9269 0
M  V30 33 H 2.1144 -0.3271 -3.378 0
M  V30 34 H 1.9886 0.6847 0.8483 0
M  V30 35 H 1.9759 0.5748 -0.893 0
M  V30 36 H 6.8406 1.1945 -3.4992 0
M  V30 37 H 2.7983 1.4548 -4.9407 0
M  V30 38 H 0.8997 -1.9289 -0.2841 0
M  V30 39 H 5.1571 2.2252 -5.0048 0
M  V30 40 H -2.2996 1.7963 2.0391 0
M  V30 41 H -1.3407 -2.0684 3.7168 0
M  V30 42 H -2.3279 1.6698 -1.5169 0
M  V30 43 H -3.6214 -1.5884 1.0091 0
M  V30 44 H -3.4789 2.3929 4.1153 0
M  V30 45 H -2.5149 -1.444 5.7916 0
M  V30 46 H -4.6573 2.0125 -2.2446 0
M  V30 47 H -5.9424 -1.2186 0.279 0
M  V30 48 H -3.5927 0.7817 5.9987 0
M  V30 49 H -6.4728 0.5779 -1.3479 0
M  V30 END ATOM
M  V30 BEGIN BOND
M  V30 1 2 1 2
M  V30 2 1 1 3
M  V30 3 1 1 4
M  V30 4 2 3 5
M  V30 5 1 3 6
M  V30 6 1 4 7
M  V30 7 1 5 8
M  V30 8 2 6 9
M  V30 9 1 7 10
M  V30 10 2 8 11
M  V30 11 1 10 12
M  V30 12 1 10 13
M  V30 13 2 12 14
M  V30 14 1 12 15
M  V30 15 2 13 16
M  V30 16 1 13 17
M  V30 17 1 15 18
M  V30 18 1 17 19
M  V30 19 2 18 20
M  V30 20 1 18 21
M  V30 21 2 19 22
M  V30 22 1 19 23
M  V30 23 1 20 24
M  V30 24 2 21 25
M  V30 25 1 22 26
M  V30 26 2 23 27
M  V30 27 2 24 28
M  V30 28 2 26 29
M  V30 29 1 9 11
M  V30 30 1 15 17
M  V30 31 1 25 28
M  V30 32 1 27 29
M  V30 33 1 4 30
M  V30 34 1 4 31
M  V30 35 1 5 32
M  V30 36 1 6 33
M  V30 37 1 7 34
M  V30 38 1 7 35
M  V30 39 1 8 36
M  V30 40 1 9 37
M  V30 41 1 10 38
M  V30 42 1 11 39
M  V30 43 1 20 40
M  V30 44 1 21 41
M  V30 45 1 22 42
M  V30 46 1 23 43
M  V30 47 1 24 44
M  V30 48 1 25 45
M  V30 49 1 26 46
M  V30 50 1 27 47
M  V30 51 1 28 48
M  V30 52 1 29 49
M  V30 END BOND
M  V30 BEGIN COLLECTION
M  V30 MDLV30/STERAC1 ATOMS=(1 1)
M  V30 END COLLECTION
M  V30 END CTAB
M  END
>  <Column 1>
3996

>  <level_0>
7785

>  <index>
7787

>  <Unnamed: 0>
7787

>  <NO.>
7800

>  <Name>
sulfinpyrazone

>  <IUPAC_name>
4-[2-(benzenesulfinyl)ethyl]-1-2-diphenylpyrazolidine-3-5-dione

>  <SMILES>
O=C1C(CC[S+]([O-])c2ccccc2)C(=O)N(c2ccccc2)N1c1ccccc1

>  <CID>
5342

>  <logBB>


>  <BBB+/BBB->
BBB-

>  <Inchi>
InChI=1S/C23H20N2O3S/c26-22-21(16-17-29(28)20-14-8-3-9-15-20)23(27)25(19-12-6-2-7-13-19)24(22)18-10-4-1-5-11-18/h1-15-21H-16-17H2

>  <threshold>


>  <reference>
R14|R15|R23|R27|

>  <group>
D

>  <Class>
-1

>  <ABC>
22.63

>  <ABCGG>
18.04

>  <nAcid>
0

>  <nBase>
0

>  <nAromAtom>
18

>  <nAromBond>
18

>  <nAtom>
49

>  <nHeavyAtom>
29

>  <nSpiro>
0

>  <nBridgehead>
0

>  <nHetero>
6

>  <nN>
2

>  <nO>
3

>  <nF>
0

>  <BalabanJ>
1.43

>  <BertzCT>
925.28

>  <nBonds>
52

>  <nBondsO>
32

>  <nBondsS>
32

>  <nBondsD>
2

>  <nBondsT>
0

>  <nBondsA>
18

>  <nBondsM>
20

>  <nBondsKS>
41

>  <nBondsKD>
11

>  <RNCG>
0.27

>  <RPCG>
0.11

>  <FCSP3>
0.13

>  <SZ>
35.33

>  <Sm>
33.68

>  <Sv>
33.27

>  <Sse>
49.27

>  <Sp>
35.48

>  <Si>
54.28

>  <MZ>
0.72

>  <Mm>
0.69

>  <Mv>
0.68

>  <Mse>
1.01

>  <Mp>
0.72

>  <Mi>
1.11

>  <NsCH3>
0

>  <NdCH2>
0

>  <NssCH2>
2

>  <NtCH>
0

>  <NdsCH>
0

>  <NaaCH>
15

>  <NsssCH>
1

>  <NddC>
0

>  <NtsC>
0

>  <NdssC>
2

>  <NaasC>
3

>  <NaaaC>
0

>  <NssssC>
0

>  <NsNH3>
0

>  <NsNH2>
0

>  <NssNH2>
0

>  <NdNH>
0

>  <NssNH>
0

>  <NaaNH>
0

>  <NtN>
0

>  <NsssNH>
0

>  <NdsN>
0

>  <NaaN>
0

>  <NsssN>
2

>  <NddsN>
0

>  <NaasN>
0

>  <NssssN>
0

>  <NsOH>
0

>  <NdO>
2

>  <NssO>
0

>  <NaaO>
0

>  <NsF>
0

>  <NsSiH3>
0

>  <NssSiH2>
0

>  <NsssSiH>
0

>  <NssssSi>
0

>  <NsPH2>
0

>  <NssPH>
0

>  <NsssP>
0

>  <NdsssP>
0

>  <NsssssP>
0

>  <NsSH>
0

>  <NdS>
0

>  <NssS>
0

>  <NaaS>
0

>  <NdssS>
0

>  <NddssS>
0

>  <NsCl>
0

>  <NsBr>
0

>  <NsI>
0

>  <fragCpx>
212.06

>  <fMF>
0.53

>  <nHBAcc>
3

>  <nHBDon>
0

>  <Kier1>
22.2

>  <Kier2>
10.54

>  <Lipinski>
1

>  <GhoseFilter>
1

>  <FilterItLogS>
-5.1

>  <VMcGowan>
298.11

>  <LabuteASA>
172.27

>  <PEOE_VSA1>
4.55

>  <PEOE_VSA2>
9.59

>  <PEOE_VSA3>
10.02

>  <PEOE_VSA4>
0

>  <PEOE_VSA5>
0

>  <PEOE_VSA6>
54.6

>  <PEOE_VSA7>
47.57

>  <PEOE_VSA8>
6.42

>  <PEOE_VSA9>
11.37

>  <PEOE_VSA10>
11.67

>  <PEOE_VSA11>
4.9

>  <PEOE_VSA12>
0

>  <PEOE_VSA13>
11.81

>  <SMR_VSA1>
14.14

>  <SMR_VSA2>
0

>  <SMR_VSA3>
0

>  <SMR_VSA4>
5.92

>  <SMR_VSA5>
11.32

>  <SMR_VSA6>
15.77

>  <SMR_VSA7>
91

>  <SMR_VSA8>
0

>  <SMR_VSA9>
0

>  <SlogP_VSA1>
10.02

>  <SlogP_VSA2>
22.12

>  <SlogP_VSA3>
20.76

>  <SlogP_VSA4>
5.92

>  <SlogP_VSA5>
6.42

>  <SlogP_VSA6>
95.89

>  <SlogP_VSA7>
0

>  <SlogP_VSA8>
0

>  <SlogP_VSA9>
0

>  <SlogP_VSA10>
11.37

>  <SlogP_VSA11>
0

>  <EState_VSA1>
17.09

>  <EState_VSA2>
23.99

>  <EState_VSA3>
16.27

>  <EState_VSA4>
0

>  <EState_VSA5>
10.02

>  <EState_VSA6>
36.4

>  <EState_VSA7>
54.6

>  <EState_VSA8>
0

>  <EState_VSA9>
0

>  <EState_VSA10>
14.14

>  <VSA_EState1>
12.58

>  <VSA_EState2>
27.13

>  <VSA_EState3>
2.85

>  <VSA_EState4>
1.25

>  <VSA_EState5>
-1.2

>  <VSA_EState6>
27.32

>  <VSA_EState7>
0.23

>  <VSA_EState8>
0

>  <VSA_EState9>
0

>  <apol>
59.25

>  <bpol>
28.64

>  <nRing>
4

>  <nHRing>
1

>  <naRing>
3

>  <naHRing>
0

>  <nARing 2>
1

>  <nAHRing 2>
1

>  <nFRing>
0

>  <nFHRing>
0

>  <nFaRing>
0

>  <nFaHRing>
0

>  <nFARing 2>
0

>  <nFAHRing 2>
0

>  <nRot>
6

>  <SLogP>
3.8

>  <SMR>
113.68

>  <TopoPSA(NO)>
63.68

>  <TopoPSA>
63.68

>  <JGI1>
0.11

>  <JGI2>
0.07

>  <JGI3>
0.06

>  <JGI4>
0.04

>  <JGI5>
0.02

>  <Diameter>
13

>  <Radius>
7

>  <TMWC10>
138.26

>  <TSRW10>
79.12

>  <MW>
404.12

>  <AMW>
8.25

>  <WPath>
2231

>  <WPol>
47

>  <Zagreb1>
152

>  <Zagreb2>
181

>  <mZagreb2>
6.47

>  <yes>


>  <nAR-cont>
0.816016

>  <nHA-cont>
0.785905698

>  <MWHBN>
0.149233417

>  <MWHBN-cont>
0.930508287

>  <TPSA-cont>
0.555474057

>  <pka_cont>
0.97

>  <yes.1>


>  <BBB_SCORE>
4.593632243

>  <MMFF94 Energy>
74.111

$$$$
Compound 3111
Actelion Java MolfileCreator 2.0

  0  0  0  0  0  0              0 V3000
M  V30 BEGIN CTAB
M  V30 COUNTS 23 25 0 0 0
M  V30 BEGIN ATOM
M  V30 1 Cl 1.418 2.3363 2.5033 0
M  V30 2 C 1.3664 0.6767 1.9911 0
M  V30 3 C 2.0752 -0.3074 2.6988 0
M  V30 4 C 0.6062 0.3238 0.8576 0
M  V30 5 Cl 3.027 0.0543 4.0972 0
M  V30 6 C 2.0302 -1.6383 2.2832 0
M  V30 7 C 0.5678 -1.0274 0.4454 0
M  V30 8 C -0.1672 1.3643 0.0767 0
M  V30 9 C 1.28 -1.9918 1.1631 0
M  V30 10 N -0.1655 -1.467 -0.6744 0
M  V30 11 N -0.8572 0.7656 -1.0262 0
M  V30 12 C -0.806 -0.5552 -1.3077 0
M  V30 13 C -1.6872 1.4801 -1.9712 0
M  V30 14 N -1.5508 -0.8213 -2.397 0
M  V30 15 C -2.1285 0.3243 -2.8823 0
M  V30 16 O -2.8576 0.4065 -3.8576 0
M  V30 17 H 2.5758 -2.4073 2.8248 0
M  V30 18 H -0.898 1.8462 0.7358 0
M  V30 19 H 0.5251 2.1232 -0.3046 0
M  V30 20 H 1.2451 -3.0297 0.8392 0
M  V30 21 H -1.1144 2.2115 -2.5465 0
M  V30 22 H -2.5591 1.9304 -1.4903 0
M  V30 23 H -1.6638 -1.7373 -2.7953 0
M  V30 END ATOM
M  V30 BEGIN BOND
M  V30 1 1 1 2
M  V30 2 2 2 3
M  V30 3 1 2 4
M  V30 4 1 3 5
M  V30 5 1 3 6
M  V30 6 2 4 7
M  V30 7 1 4 8
M  V30 8 2 6 9
M  V30 9 1 7 10
M  V30 10 1 8 11
M  V30 11 2 10 12
M  V30 12 1 11 13
M  V30 13 1 12 14
M  V30 14 1 13 15
M  V30 15 2 15 16
M  V30 16 1 7 9
M  V30 17 1 11 12
M  V30 18 1 14 15
M  V30 19 1 6 17
M  V30 20 1 8 18
M  V30 21 1 8 19
M  V30 22 1 9 20
M  V30 23 1 13 21
M  V30 24 1 13 22
M  V30 25 1 14 23
M  V30 END BOND
M  V30 END CTAB
M  END
>  <Column 1>
3997

>  <level_0>
7786

>  <index>
7788

>  <Unnamed: 0>
7788

>  <NO.>
7801

>  <Name>
anagrelide hydrochloride

>  <IUPAC_name>
6-7-dichloro-3-5-dihydro-1h-imidazo[2-1-b]quinazolin-2-one

>  <SMILES>
O=C1CN2Cc3c(ccc(Cl)c3Cl)N=C2N1

>  <CID>
135409400

>  <logBB>


>  <BBB+/BBB->
BBB-

>  <Inchi>
InChI=1S/C10H7Cl2N3O/c11-6-1-2-7-5(9(6)12)3-15-4-8(16)14-10(15)13-7/h1-2H-3-4H2-(H-13-14-16)

>  <threshold>


>  <reference>
R14|R23|R27|

>  <group>
D

>  <Class>
-1

>  <ABC>
12.89

>  <ABCGG>
10.81

>  <nAcid>
0

>  <nBase>
3

>  <nAromAtom>
6

>  <nAromBond>
6

>  <nAtom>
23

>  <nHeavyAtom>
16

>  <nSpiro>
0

>  <nBridgehead>
0

>  <nHetero>
6

>  <nN>
3

>  <nO>
1

>  <nF>
0

>  <BalabanJ>
1.73

>  <BertzCT>
527.04

>  <nBonds>
25

>  <nBondsO>
18

>  <nBondsS>
17

>  <nBondsD>
2

>  <nBondsT>
0

>  <nBondsA>
6

>  <nBondsM>
8

>  <nBondsKS>
20

>  <nBondsKD>
5

>  <RNCG>
0.24

>  <RPCG>
0.18

>  <FCSP3>
0.2

>  <SZ>
21.67

>  <Sm>
21.32

>  <Sv>
17.07

>  <Sse>
23.96

>  <Sp>
17.86

>  <Si>
25.84

>  <MZ>
0.94

>  <Mm>
0.93

>  <Mv>
0.74

>  <Mse>
1.04

>  <Mp>
0.78

>  <Mi>
1.12

>  <NsCH3>
0

>  <NdCH2>
0

>  <NssCH2>
2

>  <NtCH>
0

>  <NdsCH>
0

>  <NaaCH>
2

>  <NsssCH>
0

>  <NddC>
0

>  <NtsC>
0

>  <NdssC>
2

>  <NaasC>
4

>  <NaaaC>
0

>  <NssssC>
0

>  <NsNH3>
0

>  <NsNH2>
0

>  <NssNH2>
0

>  <NdNH>
0

>  <NssNH>
1

>  <NaaNH>
0

>  <NtN>
0

>  <NsssNH>
0

>  <NdsN>
1

>  <NaaN>
0

>  <NsssN>
1

>  <NddsN>
0

>  <NaasN>
0

>  <NssssN>
0

>  <NsOH>
0

>  <NdO>
1

>  <NssO>
0

>  <NaaO>
0

>  <NsF>
0

>  <NsSiH3>
0

>  <NssSiH2>
0

>  <NsssSiH>
0

>  <NssssSi>
0

>  <NsPH2>
0

>  <NssPH>
0

>  <NsssP>
0

>  <NdsssP>
0

>  <NsssssP>
0

>  <NsSH>
0

>  <NdS>
0

>  <NssS>
0

>  <NaaS>
0

>  <NdssS>
0

>  <NddssS>
0

>  <NsCl>
2

>  <NsBr>
0

>  <NsI>
0

>  <fragCpx>
84.06

>  <fMF>
0.57

>  <nHBAcc>
3

>  <nHBDon>
1

>  <Kier1>
11.11

>  <Kier2>
4.03

>  <Lipinski>
1

>  <GhoseFilter>
1

>  <FilterItLogS>
-3.74

>  <VMcGowan>
157.97

>  <LabuteASA>
101.85

>  <PEOE_VSA1>
4.9

>  <PEOE_VSA2>
10.11

>  <PEOE_VSA3>
4.99

>  <PEOE_VSA4>
0

>  <PEOE_VSA5>
0

>  <PEOE_VSA6>
23.2

>  <PEOE_VSA7>
12.13

>  <PEOE_VSA8>
5.56

>  <PEOE_VSA9>
22.28

>  <PEOE_VSA10>
6.54

>  <PEOE_VSA11>
0

>  <PEOE_VSA12>
11.87

>  <PEOE_VSA13>
0

>  <SMR_VSA1>
4.79

>  <SMR_VSA2>
0

>  <SMR_VSA3>
10.22

>  <SMR_VSA4>
4.99

>  <SMR_VSA5>
6.54

>  <SMR_VSA6>
6.54

>  <SMR_VSA7>
27.74

>  <SMR_VSA8>
0

>  <SMR_VSA9>
0

>  <SlogP_VSA1>
5.32

>  <SlogP_VSA2>
23.31

>  <SlogP_VSA3>
11.34

>  <SlogP_VSA4>
0

>  <SlogP_VSA5>
5.56

>  <SlogP_VSA6>
17.13

>  <SlogP_VSA7>
10.05

>  <SlogP_VSA8>
0

>  <SlogP_VSA9>
0

>  <SlogP_VSA10>
5.69

>  <SlogP_VSA11>
0

>  <EState_VSA1>
0

>  <EState_VSA2>
5.91

>  <EState_VSA3>
29.09

>  <EState_VSA4>
11.25

>  <EState_VSA5>
0

>  <EState_VSA6>
12.13

>  <EState_VSA7>
4.9

>  <EState_VSA8>
10.31

>  <EState_VSA9>
23.2

>  <EState_VSA10>
4.79

>  <VSA_EState1>
0

>  <VSA_EState2>
17.39

>  <VSA_EState3>
3.72

>  <VSA_EState4>
1.64

>  <VSA_EState5>
0.55

>  <VSA_EState6>
3.51

>  <VSA_EState7>
0

>  <VSA_EState8>
0.88

>  <VSA_EState9>
0

>  <apol>
29.83

>  <bpol>
12.33

>  <nRing>
3

>  <nHRing>
2

>  <naRing>
1

>  <naHRing>
0

>  <nARing 2>
2

>  <nAHRing 2>
2

>  <nFRing>
1

>  <nFHRing>
1

>  <nFaRing>
0

>  <nFaHRing>
0

>  <nFARing 2>
1

>  <nFAHRing 2>
1

>  <nRot>
0

>  <SLogP>
1.93

>  <SMR>
62.11

>  <TopoPSA(NO)>
44.7

>  <TopoPSA>
44.7

>  <JGI1>
0.22

>  <JGI2>
0.08

>  <JGI3>
0.06

>  <JGI4>
0.06

>  <JGI5>
0.03

>  <Diameter>
8

>  <Radius>
4

>  <TMWC10>
106.97

>  <TSRW10>
63.15

>  <MW>
255

>  <AMW>
11.09

>  <WPath>
399

>  <WPol>
26

>  <Zagreb1>
90

>  <Zagreb2>
109

>  <mZagreb2>
3.36

>  <yes>


>  <nAR-cont>
1

>  <nHA-cont>
0.954961865

>  <MWHBN>
0.250489716

>  <MWHBN-cont>
0.958949798

>  <TPSA-cont>
0.687966243

>  <pka_cont>
0.97

>  <yes.1>


>  <BBB_SCORE>
5.254319048

>  <MMFF94 Energy>
-72.98

$$$$
Compound 3112
Actelion Java MolfileCreator 2.0

  0  0  0  0  0  0              0 V3000
M  V30 BEGIN CTAB
M  V30 COUNTS 37 41 0 0 0
M  V30 BEGIN ATOM
M  V30 1 O 1.385 3.3427 -2.1188 0
M  V30 2 C 0.8853 2.3438 -1.6425 0
M  V30 3 O 1.1939 1.7731 -0.4418 0
M  V30 4 C -0.1575 1.5289 -2.2471 0
M  V30 5 C 0.4038 0.5811 -0.1766 0
M  V30 6 C -0.4567 0.4826 -1.398 0
M  V30 7 C -0.7904 1.7104 -3.4647 0
M  V30 8 C 1.3455 -0.6 -0.0382 0
M  V30 9 C -0.4083 0.8121 1.0836 0
M  V30 10 C -1.4283 -0.4444 -1.7497 0
M  V30 11 C -1.7684 0.7841 -3.8276 0
M  V30 12 C 1.1056 -1.5508 0.9603 0
M  V30 13 C 2.4309 -0.8042 -0.911 0
M  V30 14 C -0.5383 -0.2273 2.0119 0
M  V30 15 C -1.0807 2.023 1.3353 0
M  V30 16 C -2.085 -0.2868 -2.9746 0
M  V30 17 O 0.0794 -1.4466 1.8688 0
M  V30 18 C 1.912 -2.6865 1.0826 0
M  V30 19 C 3.2431 -1.9326 -0.7847 0
M  V30 20 C -1.3286 -0.0773 3.1557 0
M  V30 21 C -1.8627 2.1782 2.4814 0
M  V30 22 C 2.9765 -2.8656 0.208 0
M  V30 23 C -1.983 1.1274 3.3807 0
M  V30 24 O 3.7925 -3.9542 0.2917 0
M  V30 25 O -2.7603 1.3215 4.4836 0
M  V30 26 H -0.5326 2.544 -4.1106 0
M  V30 27 H -1.6778 -1.2748 -1.0947 0
M  V30 28 H -2.2901 0.8901 -4.7765 0
M  V30 29 H 2.6552 -0.0875 -1.6985 0
M  V30 30 H -1.0033 2.8579 0.6418 0
M  V30 31 H -2.8505 -1.0011 -3.2721 0
M  V30 32 H 1.6993 -3.4095 1.8634 0
M  V30 33 H 4.0805 -2.0824 -1.4612 0
M  V30 34 H -1.415 -0.9021 3.8557 0
M  V30 35 H -2.3773 3.1169 2.6698 0
M  V30 36 H 3.5098 -4.5021 1.0424 0
M  V30 37 H -2.7303 0.5219 5.0342 0
M  V30 END ATOM
M  V30 BEGIN BOND
M  V30 1 2 1 2
M  V30 2 1 2 3
M  V30 3 1 2 4
M  V30 4 1 3 5
M  V30 5 2 4 6
M  V30 6 1 4 7
M  V30 7 1 5 8
M  V30 8 1 5 9
M  V30 9 1 6 10
M  V30 10 2 7 11
M  V30 11 2 8 12
M  V30 12 1 8 13
M  V30 13 2 9 14
M  V30 14 1 9 15
M  V30 15 2 10 16
M  V30 16 1 12 17
M  V30 17 1 12 18
M  V30 18 2 13 19
M  V30 19 1 14 20
M  V30 20 2 15 21
M  V30 21 2 18 22
M  V30 22 2 20 23
M  V30 23 1 22 24
M  V30 24 1 23 25
M  V30 25 1 5 6
M  V30 26 1 11 16
M  V30 27 1 14 17
M  V30 28 1 19 22
M  V30 29 1 21 23
M  V30 30 1 7 26
M  V30 31 1 10 27
M  V30 32 1 11 28
M  V30 33 1 13 29
M  V30 34 1 15 30
M  V30 35 1 16 31
M  V30 36 1 18 32
M  V30 37 1 19 33
M  V30 38 1 20 34
M  V30 39 1 21 35
M  V30 40 1 24 36
M  V30 41 1 25 37
M  V30 END BOND
M  V30 END CTAB
M  END
>  <Column 1>
3998

>  <level_0>
7787

>  <index>
7789

>  <Unnamed: 0>
7789

>  <NO.>
7802

>  <Name>
fluorescein

>  <IUPAC_name>
3'-6'-dihydroxyspiro[2-benzofuran-3-9'-xanthene]-1-one

>  <SMILES>
O=C1OC2(c3ccc(O)cc3Oc3cc(O)ccc32)c2ccccc21

>  <CID>
16850

>  <logBB>


>  <BBB+/BBB->
BBB-

>  <Inchi>
InChI=1S/C20H12O5/c21-11-5-7-15-17(9-11)24-18-10-12(22)6-8-16(18)20(15)14-4-2-1-3-13(14)19(23)25-20/h1-10-21-22H

>  <threshold>


>  <reference>
R14|R23|R27|

>  <group>
D

>  <Class>
-1

>  <ABC>
20.49

>  <ABCGG>
15.85

>  <nAcid>
0

>  <nBase>
0

>  <nAromAtom>
18

>  <nAromBond>
18

>  <nAtom>
37

>  <nHeavyAtom>
25

>  <nSpiro>
1

>  <nBridgehead>
0

>  <nHetero>
5

>  <nN>
0

>  <nO>
5

>  <nF>
0

>  <BalabanJ>
1.56

>  <BertzCT>
1002.2

>  <nBonds>
41

>  <nBondsO>
29

>  <nBondsS>
22

>  <nBondsD>
1

>  <nBondsT>
0

>  <nBondsA>
18

>  <nBondsM>
19

>  <nBondsKS>
31

>  <nBondsKD>
10

>  <RNCG>
0.2

>  <RPCG>
0.14

>  <FCSP3>
0.05

>  <SZ>
28.67

>  <Sm>
27.67

>  <Sv>
26.82

>  <Sse>
37.98

>  <Sp>
27.19

>  <Si>
40.54

>  <MZ>
0.77

>  <Mm>
0.75

>  <Mv>
0.73

>  <Mse>
1.03

>  <Mp>
0.73

>  <Mi>
1.1

>  <NsCH3>
0

>  <NdCH2>
0

>  <NssCH2>
0

>  <NtCH>
0

>  <NdsCH>
0

>  <NaaCH>
10

>  <NsssCH>
0

>  <NddC>
0

>  <NtsC>
0

>  <NdssC>
1

>  <NaasC>
8

>  <NaaaC>
0

>  <NssssC>
1

>  <NsNH3>
0

>  <NsNH2>
0

>  <NssNH2>
0

>  <NdNH>
0

>  <NssNH>
0

>  <NaaNH>
0

>  <NtN>
0

>  <NsssNH>
0

>  <NdsN>
0

>  <NaaN>
0

>  <NsssN>
0

>  <NddsN>
0

>  <NaasN>
0

>  <NssssN>
0

>  <NsOH>
2

>  <NdO>
1

>  <NssO>
2

>  <NaaO>
0

>  <NsF>
0

>  <NsSiH3>
0

>  <NssSiH2>
0

>  <NsssSiH>
0

>  <NssssSi>
0

>  <NsPH2>
0

>  <NssPH>
0

>  <NsssP>
0

>  <NdsssP>
0

>  <NsssssP>
0

>  <NsSH>
0

>  <NdS>
0

>  <NssS>
0

>  <NaaS>
0

>  <NdssS>
0

>  <NddssS>
0

>  <NsCl>
0

>  <NsBr>
0

>  <NsI>
0

>  <fragCpx>
241.05

>  <fMF>
0.59

>  <nHBAcc>
5

>  <nHBDon>
2

>  <Kier1>
17.12

>  <Kier2>
6.27

>  <Lipinski>
1

>  <GhoseFilter>
1

>  <FilterItLogS>
-4.64

>  <VMcGowan>
224.71

>  <LabuteASA>
142.24

>  <PEOE_VSA1>
19.69

>  <PEOE_VSA2>
0

>  <PEOE_VSA3>
4.79

>  <PEOE_VSA4>
0

>  <PEOE_VSA5>
0

>  <PEOE_VSA6>
18.2

>  <PEOE_VSA7>
30.33

>  <PEOE_VSA8>
28.82

>  <PEOE_VSA9>
5.56

>  <PEOE_VSA10>
23

>  <PEOE_VSA11>
5.6

>  <PEOE_VSA12>
0

>  <PEOE_VSA13>
0

>  <SMR_VSA1>
24.48

>  <SMR_VSA2>
0

>  <SMR_VSA3>
0

>  <SMR_VSA4>
0

>  <SMR_VSA5>
5.6

>  <SMR_VSA6>
0

>  <SMR_VSA7>
82.92

>  <SMR_VSA8>
0

>  <SMR_VSA9>
23

>  <SlogP_VSA1>
4.74

>  <SlogP_VSA2>
16.18

>  <SlogP_VSA3>
10.34

>  <SlogP_VSA4>
0

>  <SlogP_VSA5>
27.05

>  <SlogP_VSA6>
60.66

>  <SlogP_VSA7>
0

>  <SlogP_VSA8>
0

>  <SlogP_VSA9>
0

>  <SlogP_VSA10>
0

>  <SlogP_VSA11>
23

>  <EState_VSA1>
11.57

>  <EState_VSA2>
11.5

>  <EState_VSA3>
33.75

>  <EState_VSA4>
0

>  <EState_VSA5>
24.27

>  <EState_VSA6>
24.27

>  <EState_VSA7>
12.13

>  <EState_VSA8>
0

>  <EState_VSA9>
9.47

>  <EState_VSA10>
15.01

>  <VSA_EState1>
11.78

>  <VSA_EState2>
12.53

>  <VSA_EState3>
19.66

>  <VSA_EState4>
1.28

>  <VSA_EState5>
0.41

>  <VSA_EState6>
16.59

>  <VSA_EState7>
0

>  <VSA_EState8>
0

>  <VSA_EState9>
0

>  <apol>
45.41

>  <bpol>
16.38

>  <nRing>
5

>  <nHRing>
2

>  <naRing>
3

>  <naHRing>
0

>  <nARing 2>
2

>  <nAHRing 2>
2

>  <nFRing>
2

>  <nFHRing>
2

>  <nFaRing>
0

>  <nFaHRing>
0

>  <nFARing 2>
2

>  <nFAHRing 2>
2

>  <nRot>
0

>  <SLogP>
3.67

>  <SMR>
88.03

>  <TopoPSA(NO)>
75.99

>  <TopoPSA>
75.99

>  <JGI1>
0.21

>  <JGI2>
0.09

>  <JGI3>
0.06

>  <JGI4>
0.04

>  <JGI5>
0.03

>  <Diameter>
9

>  <Radius>
5

>  <TMWC10>
133.43

>  <TSRW10>
75.72

>  <MW>
332.07

>  <AMW>
8.97

>  <WPath>
1221

>  <WPol>
51

>  <Zagreb1>
148

>  <Zagreb2>
187

>  <mZagreb2>
5.24

>  <yes>


>  <nAR-cont>
1

>  <nHA-cont>
0.921834225

>  <MWHBN>
0.384134416

>  <MWHBN-cont>
0.538561098

>  <TPSA-cont>
0.469542613

>  <pka_cont>
0.97

>  <yes.1>


>  <BBB_SCORE>
4.153761098

>  <MMFF94 Energy>
48.595

$$$$
Compound 3113
Actelion Java MolfileCreator 2.0

  0  0  0  0  0  0              0 V3000
M  V30 BEGIN CTAB
M  V30 COUNTS 39 41 0 0 0
M  V30 BEGIN ATOM
M  V30 1 N -2.3777 -2.1397 -1.0298 0
M  V30 2 C -1.2307 -1.6122 -0.6727 0
M  V30 3 C -3.1932 -2.1297 0.2254 0
M  V30 4 N -1.1319 -1.2369 0.6371 0
M  V30 5 C -0.0902 -1.4321 -1.6702 0
M  V30 6 C -2.4031 -1.342 1.2803 0
M  V30 7 N 0.852 -0.3599 -1.2735 0
M  V30 8 C 1.9833 -0.6404 -0.5149 0
M  V30 9 C 0.5055 0.989 -1.7438 0
M  V30 10 C 2.1308 -1.8526 0.1861 0
M  V30 11 C 3.0583 0.2578 -0.3959 0
M  V30 12 C -0.4001 1.7172 -0.7731 0
M  V30 13 C 3.2631 -2.1467 0.9589 0
M  V30 14 C 4.1971 -0.0252 0.3729 0
M  V30 15 C -1.777 1.8201 -1.0281 0
M  V30 16 C 0.1104 2.293 0.3994 0
M  V30 17 C 4.2992 -1.2298 1.0531 0
M  V30 18 C -2.6188 2.4875 -0.1362 0
M  V30 19 C -0.7328 2.9583 1.2916 0
M  V30 20 C -2.0964 3.0569 1.0227 0
M  V30 21 H -3.3563 -3.1636 0.5492 0
M  V30 22 H -4.1677 -1.6683 0.0363 0
M  V30 23 H -0.3986 -0.6007 0.9318 0
M  V30 24 H -0.5396 -1.1961 -2.6431 0
M  V30 25 H 0.4153 -2.3938 -1.8137 0
M  V30 26 H -2.3451 -1.877 2.232 0
M  V30 27 H -2.8413 -0.3533 1.4454 0
M  V30 28 H 1.3792 1.6101 -1.9644 0
M  V30 29 H -0.0016 0.9195 -2.7156 0
M  V30 30 H 1.349 -2.6073 0.1689 0
M  V30 31 H 3.0579 1.2101 -0.915 0
M  V30 32 H 3.3242 -3.0957 1.485 0
M  V30 33 H 5.0038 0.7009 0.4291 0
M  V30 34 H -2.2057 1.3684 -1.9206 0
M  V30 35 H 1.1705 2.222 0.6287 0
M  V30 36 H 5.1796 -1.4536 1.6483 0
M  V30 37 H -3.683 2.5582 -0.346 0
M  V30 38 H -0.3237 3.3997 2.1967 0
M  V30 39 H -2.7516 3.5764 1.7169 0
M  V30 END ATOM
M  V30 BEGIN BOND
M  V30 1 2 1 2
M  V30 2 1 1 3
M  V30 3 1 2 4
M  V30 4 1 2 5
M  V30 5 1 3 6
M  V30 6 1 5 7
M  V30 7 1 7 8
M  V30 8 1 7 9
M  V30 9 2 8 10
M  V30 10 1 8 11
M  V30 11 1 9 12
M  V30 12 1 10 13
M  V30 13 2 11 14
M  V30 14 2 12 15
M  V30 15 1 12 16
M  V30 16 2 13 17
M  V30 17 1 15 18
M  V30 18 2 16 19
M  V30 19 2 18 20
M  V30 20 1 4 6
M  V30 21 1 14 17
M  V30 22 1 19 20
M  V30 23 1 3 21
M  V30 24 1 3 22
M  V30 25 1 4 23
M  V30 26 1 5 24
M  V30 27 1 5 25
M  V30 28 1 6 26
M  V30 29 1 6 27
M  V30 30 1 9 28
M  V30 31 1 9 29
M  V30 32 1 10 30
M  V30 33 1 11 31
M  V30 34 1 13 32
M  V30 35 1 14 33
M  V30 36 1 15 34
M  V30 37 1 16 35
M  V30 38 1 17 36
M  V30 39 1 18 37
M  V30 40 1 19 38
M  V30 41 1 20 39
M  V30 END BOND
M  V30 END CTAB
M  END
>  <Column 1>
3999

>  <level_0>
7788

>  <index>
7790

>  <Unnamed: 0>
7790

>  <NO.>
7803

>  <Name>
antazoline

>  <IUPAC_name>
n-benzyl-n-(4-5-dihydro-1h-imidazol-2-ylmethyl)aniline

>  <SMILES>
c1ccc(CN(CC2=NCCN2)c2ccccc2)cc1

>  <CID>
2200

>  <logBB>


>  <BBB+/BBB->
BBB-

>  <Inchi>
InChI=1S/C17H19N3/c1-3-7-15(8-4-1)13-20(14-17-18-11-12-19-17)16-9-5-2-6-10-16/h1-10H-11-14H2-(H-18-19)

>  <threshold>


>  <reference>
R14|R23|R50|

>  <group>
D

>  <Class>
1

>  <ABC>
15.52

>  <ABCGG>
12.99

>  <nAcid>
0

>  <nBase>
2

>  <nAromAtom>
12

>  <nAromBond>
12

>  <nAtom>
39

>  <nHeavyAtom>
20

>  <nSpiro>
0

>  <nBridgehead>
0

>  <nHetero>
3

>  <nN>
3

>  <nO>
0

>  <nF>
0

>  <BalabanJ>
1.55

>  <BertzCT>
563.3

>  <nBonds>
41

>  <nBondsO>
22

>  <nBondsS>
28

>  <nBondsD>
1

>  <nBondsT>
0

>  <nBondsA>
12

>  <nBondsM>
13

>  <nBondsKS>
34

>  <nBondsKD>
7

>  <RNCG>
0.23

>  <RPCG>
0.1

>  <FCSP3>
0.24

>  <SZ>
23.67

>  <Sm>
22.09

>  <Sv>
24.42

>  <Sse>
38.42

>  <Sp>
26.56

>  <Si>
43.82

>  <MZ>
0.61

>  <Mm>
0.57

>  <Mv>
0.63

>  <Mse>
0.99

>  <Mp>
0.68

>  <Mi>
1.12

>  <NsCH3>
0

>  <NdCH2>
0

>  <NssCH2>
4

>  <NtCH>
0

>  <NdsCH>
0

>  <NaaCH>
10

>  <NsssCH>
0

>  <NddC>
0

>  <NtsC>
0

>  <NdssC>
1

>  <NaasC>
2

>  <NaaaC>
0

>  <NssssC>
0

>  <NsNH3>
0

>  <NsNH2>
0

>  <NssNH2>
0

>  <NdNH>
0

>  <NssNH>
1

>  <NaaNH>
0

>  <NtN>
0

>  <NsssNH>
0

>  <NdsN>
1

>  <NaaN>
0

>  <NsssN>
1

>  <NddsN>
0

>  <NaasN>
0

>  <NssssN>
0

>  <NsOH>
0

>  <NdO>
0

>  <NssO>
0

>  <NaaO>
0

>  <NsF>
0

>  <NsSiH3>
0

>  <NssSiH2>
0

>  <NsssSiH>
0

>  <NssssSi>
0

>  <NsPH2>
0

>  <NssPH>
0

>  <NsssP>
0

>  <NdsssP>
0

>  <NsssssP>
0

>  <NsSH>
0

>  <NdS>
0

>  <NssS>
0

>  <NaaS>
0

>  <NdssS>
0

>  <NddssS>
0

>  <NsCl>
0

>  <NsBr>
0

>  <NsI>
0

>  <fragCpx>
104.03

>  <fMF>
0.51

>  <nHBAcc>
3

>  <nHBDon>
1

>  <Kier1>
14.92

>  <Kier2>
7.85

>  <Lipinski>
1

>  <GhoseFilter>
1

>  <FilterItLogS>
-4.46

>  <VMcGowan>
217.65

>  <LabuteASA>
119.51

>  <PEOE_VSA1>
10.22

>  <PEOE_VSA2>
4.99

>  <PEOE_VSA3>
0

>  <PEOE_VSA4>
0

>  <PEOE_VSA5>
0

>  <PEOE_VSA6>
48.53

>  <PEOE_VSA7>
17.7

>  <PEOE_VSA8>
18.78

>  <PEOE_VSA9>
13.09

>  <PEOE_VSA10>
5.84

>  <PEOE_VSA11>
0

>  <PEOE_VSA12>
0

>  <PEOE_VSA13>
0

>  <SMR_VSA1>
0

>  <SMR_VSA2>
0

>  <SMR_VSA3>
5.32

>  <SMR_VSA4>
4.99

>  <SMR_VSA5>
6.54

>  <SMR_VSA6>
24.53

>  <SMR_VSA7>
66.23

>  <SMR_VSA8>
0

>  <SMR_VSA9>
0

>  <SlogP_VSA1>
10.22

>  <SlogP_VSA2>
25.47

>  <SlogP_VSA3>
6.54

>  <SlogP_VSA4>
0

>  <SlogP_VSA5>
5.56

>  <SlogP_VSA6>
65.66

>  <SlogP_VSA7>
0

>  <SlogP_VSA8>
0

>  <SlogP_VSA9>
0

>  <SlogP_VSA10>
5.69

>  <SlogP_VSA11>
0

>  <EState_VSA1>
0

>  <EState_VSA2>
0

>  <EState_VSA3>
0

>  <EState_VSA4>
32.01

>  <EState_VSA5>
11.25

>  <EState_VSA6>
0

>  <EState_VSA7>
0

>  <EState_VSA8>
75.87

>  <EState_VSA9>
0

>  <EState_VSA10>
0

>  <VSA_EState1>
0

>  <VSA_EState2>
6.86

>  <VSA_EState3>
3.35

>  <VSA_EState4>
2.54

>  <VSA_EState5>
1.09

>  <VSA_EState6>
21.08

>  <VSA_EState7>
0

>  <VSA_EState8>
3.58

>  <VSA_EState9>
0

>  <apol>
44.36

>  <bpol>
22.48

>  <nRing>
3

>  <nHRing>
1

>  <naRing>
2

>  <naHRing>
0

>  <nARing 2>
1

>  <nAHRing 2>
1

>  <nFRing>
0

>  <nFHRing>
0

>  <nFaRing>
0

>  <nFaHRing>
0

>  <nFARing 2>
0

>  <nFAHRing 2>
0

>  <nRot>
5

>  <SLogP>
2.69

>  <SMR>
84.24

>  <TopoPSA(NO)>
27.63

>  <TopoPSA>
27.63

>  <JGI1>
0.11

>  <JGI2>
0.04

>  <JGI3>
0.03

>  <JGI4>
0.02

>  <JGI5>
0.02

>  <Diameter>
9

>  <Radius>
5

>  <TMWC10>
113.37

>  <TSRW10>
66.06

>  <MW>
265.16

>  <AMW>
6.8

>  <WPath>
829

>  <WPol>
24

>  <Zagreb1>
100

>  <Zagreb2>
113

>  <mZagreb2>
4.53

>  <yes>


>  <nAR-cont>
0.816016

>  <nHA-cont>
0.999629945

>  <MWHBN>
0.245643901

>  <MWHBN-cont>
0.966797165

>  <TPSA-cont>
0.807125443

>  <pka_cont>
0.97

>  <yes.1>


>  <BBB_SCORE>
5.365092578

>  <MMFF94 Energy>
87.345

$$$$
Compound 3114
Actelion Java MolfileCreator 2.0

  0  0  0  0  0  0              0 V3000
M  V30 BEGIN CTAB
M  V30 COUNTS 48 50 0 0 0
M  V30 BEGIN ATOM
M  V30 1 O 1.3384 3.3092 0.6296 0
M  V30 2 C 1.2821 2.3381 -0.4198 0
M  V30 3 C 0.619 4.4935 0.2953 0
M  V30 4 C 1.9457 1.0478 0.0489 0
M  V30 5 C 0.7409 5.4673 1.4503 0
M  V30 6 N 1.0523 0.2364 0.8565 0
M  V30 7 C 0.1291 -0.6686 0.3805 0
M  V30 8 C 0.9368 0.2794 2.2275 0
M  V30 9 N -0.581 -1.1827 1.3575 0
M  V30 10 N -0.0139 -0.9169 -0.9485 0
M  V30 11 C -0.0868 -0.621 2.5072 0
M  V30 12 C 1.5926 1.0109 3.2256 0
M  V30 13 C -1.37 -0.7221 -1.4817 0
M  V30 14 C 0.8042 -2.0136 -1.4745 0
M  V30 15 C -0.4771 -0.8298 3.8388 0
M  V30 16 C 1.1894 0.7899 4.5477 0
M  V30 17 C -2.1927 -2.0197 -1.5843 0
M  V30 18 C 0.493 -2.3976 -2.9166 0
M  V30 19 C 0.1735 -0.1172 4.8533 0
M  V30 20 N -2.0251 -2.7055 -2.8844 0
M  V30 21 C -0.7092 -3.3402 -3.033 0
M  V30 22 C -3.0794 -3.7111 -3.0534 0
M  V30 23 H 1.8371 2.7365 -1.2766 0
M  V30 24 H 0.242 2.1682 -0.7218 0
M  V30 25 H -0.4352 4.2502 0.1242 0
M  V30 26 H 1.0387 4.9371 -0.614 0
M  V30 27 H 2.253 0.4486 -0.8123 0
M  V30 28 H 2.843 1.2517 0.643 0
M  V30 29 H 0.2007 6.3943 1.2382 0
M  V30 30 H 0.3405 5.027 2.3696 0
M  V30 31 H 1.7918 5.7067 1.6436 0
M  V30 32 H 2.3705 1.7299 2.9909 0
M  V30 33 H -1.3036 -0.2311 -2.4612 0
M  V30 34 H -1.9196 -0.0086 -0.851 0
M  V30 35 H 1.8572 -1.7091 -1.4318 0
M  V30 36 H 0.7145 -2.8982 -0.8295 0
M  V30 37 H -1.2731 -1.5298 4.0661 0
M  V30 38 H 1.6743 1.3413 5.3506 0
M  V30 39 H -1.9898 -2.6968 -0.7449 0
M  V30 40 H -3.2448 -1.7167 -1.499 0
M  V30 41 H 1.3639 -2.9384 -3.3098 0
M  V30 42 H 0.3684 -1.5153 -3.5554 0
M  V30 43 H -0.1225 -0.2689 5.8883 0
M  V30 44 H -0.595 -4.1699 -2.3223 0
M  V30 45 H -0.6624 -3.7839 -4.0363 0
M  V30 46 H -4.0691 -3.2414 -3.0274 0
M  V30 47 H -3.0421 -4.483 -2.2761 0
M  V30 48 H -2.9948 -4.1995 -4.0307 0
M  V30 END ATOM
M  V30 BEGIN BOND
M  V30 1 1 1 2
M  V30 2 1 1 3
M  V30 3 1 2 4
M  V30 4 1 3 5
M  V30 5 1 4 6
M  V30 6 1 6 7
M  V30 7 1 6 8
M  V30 8 2 7 9
M  V30 9 1 7 10
M  V30 10 2 8 11
M  V30 11 1 8 12
M  V30 12 1 10 13
M  V30 13 1 10 14
M  V30 14 1 11 15
M  V30 15 2 12 16
M  V30 16 1 13 17
M  V30 17 1 14 18
M  V30 18 2 15 19
M  V30 19 1 17 20
M  V30 20 1 18 21
M  V30 21 1 20 22
M  V30 22 1 9 11
M  V30 23 1 16 19
M  V30 24 1 20 21
M  V30 25 1 2 23
M  V30 26 1 2 24
M  V30 27 1 3 25
M  V30 28 1 3 26
M  V30 29 1 4 27
M  V30 30 1 4 28
M  V30 31 1 5 29
M  V30 32 1 5 30
M  V30 33 1 5 31
M  V30 34 1 12 32
M  V30 35 1 13 33
M  V30 36 1 13 34
M  V30 37 1 14 35
M  V30 38 1 14 36
M  V30 39 1 15 37
M  V30 40 1 16 38
M  V30 41 1 17 39
M  V30 42 1 17 40
M  V30 43 1 18 41
M  V30 44 1 18 42
M  V30 45 1 19 43
M  V30 46 1 21 44
M  V30 47 1 21 45
M  V30 48 1 22 46
M  V30 49 1 22 47
M  V30 50 1 22 48
M  V30 END BOND
M  V30 END CTAB
M  END
>  <Column 1>
4000

>  <level_0>
7789

>  <index>
7791

>  <Unnamed: 0>
7791

>  <NO.>
7804

>  <Name>
emedastine

>  <IUPAC_name>
1-(2-ethoxyethyl)-2-(4-methyl-1-4-diazepan-1-yl)benzimidazole

>  <SMILES>
CCOCCn1c(N2CCCN(C)CC2)nc2ccccc21

>  <CID>
3219

>  <logBB>


>  <BBB+/BBB->
BBB+

>  <Inchi>
InChI=1S/C17H26N4O/c1-3-22-14-13-21-16-8-5-4-7-15(16)18-17(21)20-10-6-9-19(2)11-12-20/h4-5-7-8H-3-6-9-14H2-1-2H3

>  <threshold>


>  <reference>
R15|R23|R50|

>  <group>
D

>  <Class>
1

>  <ABC>
16.92

>  <ABCGG>
13.95

>  <nAcid>
0

>  <nBase>
1

>  <nAromAtom>
9

>  <nAromBond>
10

>  <nAtom>
48

>  <nHeavyAtom>
22

>  <nSpiro>
0

>  <nBridgehead>
0

>  <nHetero>
5

>  <nN>
4

>  <nO>
1

>  <nF>
0

>  <BalabanJ>
1.66

>  <BertzCT>
609.72

>  <nBonds>
50

>  <nBondsO>
24

>  <nBondsS>
40

>  <nBondsD>
0

>  <nBondsT>
0

>  <nBondsA>
10

>  <nBondsM>
10

>  <nBondsKS>
46

>  <nBondsKD>
4

>  <RNCG>
0.21

>  <RPCG>
0.11

>  <FCSP3>
0.59

>  <SZ>
27.33

>  <Sm>
25.18

>  <Sv>
27.79

>  <Sse>
47.53

>  <Sp>
30.5

>  <Si>
54.77

>  <MZ>
0.57

>  <Mm>
0.52

>  <Mv>
0.58

>  <Mse>
0.99

>  <Mp>
0.64

>  <Mi>
1.14

>  <NsCH3>
2

>  <NdCH2>
0

>  <NssCH2>
8

>  <NtCH>
0

>  <NdsCH>
0

>  <NaaCH>
4

>  <NsssCH>
0

>  <NddC>
0

>  <NtsC>
0

>  <NdssC>
0

>  <NaasC>
1

>  <NaaaC>
2

>  <NssssC>
0

>  <NsNH3>
0

>  <NsNH2>
0

>  <NssNH2>
0

>  <NdNH>
0

>  <NssNH>
0

>  <NaaNH>
0

>  <NtN>
0

>  <NsssNH>
0

>  <NdsN>
0

>  <NaaN>
1

>  <NsssN>
2

>  <NddsN>
0

>  <NaasN>
1

>  <NssssN>
0

>  <NsOH>
0

>  <NdO>
0

>  <NssO>
1

>  <NaaO>
0

>  <NsF>
0

>  <NsSiH3>
0

>  <NssSiH2>
0

>  <NsssSiH>
0

>  <NssssSi>
0

>  <NsPH2>
0

>  <NssPH>
0

>  <NsssP>
0

>  <NdsssP>
0

>  <NsssssP>
0

>  <NsSH>
0

>  <NdS>
0

>  <NssS>
0

>  <NaaS>
0

>  <NdssS>
0

>  <NddssS>
0

>  <NsCl>
0

>  <NsBr>
0

>  <NsI>
0

>  <fragCpx>
114.05

>  <fMF>
0.33

>  <nHBAcc>
5

>  <nHBDon>
0

>  <Kier1>
16.84

>  <Kier2>
8.2

>  <Lipinski>
1

>  <GhoseFilter>
1

>  <FilterItLogS>
-3.26

>  <VMcGowan>
246.4

>  <LabuteASA>
132.03

>  <PEOE_VSA1>
19.1

>  <PEOE_VSA2>
0

>  <PEOE_VSA3>
4.98

>  <PEOE_VSA4>
0

>  <PEOE_VSA5>
0

>  <PEOE_VSA6>
12.13

>  <PEOE_VSA7>
39.07

>  <PEOE_VSA8>
32.79

>  <PEOE_VSA9>
17.64

>  <PEOE_VSA10>
0

>  <PEOE_VSA11>
0

>  <PEOE_VSA12>
5.95

>  <PEOE_VSA13>
0

>  <SMR_VSA1>
4.74

>  <SMR_VSA2>
0

>  <SMR_VSA3>
14.45

>  <SMR_VSA4>
0

>  <SMR_VSA5>
19.89

>  <SMR_VSA6>
51.34

>  <SMR_VSA7>
24.27

>  <SMR_VSA8>
0

>  <SMR_VSA9>
0

>  <SlogP_VSA1>
4.9

>  <SlogP_VSA2>
60.89

>  <SlogP_VSA3>
11.28

>  <SlogP_VSA4>
0

>  <SlogP_VSA5>
13.34

>  <SlogP_VSA6>
24.27

>  <SlogP_VSA7>
0

>  <SlogP_VSA8>
11.03

>  <SlogP_VSA9>
0

>  <SlogP_VSA10>
5.95

>  <SlogP_VSA11>
0

>  <EState_VSA1>
0

>  <EState_VSA2>
0

>  <EState_VSA3>
0

>  <EState_VSA4>
57.4

>  <EState_VSA5>
11.94

>  <EState_VSA6>
0

>  <EState_VSA7>
6.92

>  <EState_VSA8>
45.68

>  <EState_VSA9>
9.72

>  <EState_VSA10>
0

>  <VSA_EState1>
7.88

>  <VSA_EState2>
9.72

>  <VSA_EState3>
0

>  <VSA_EState4>
2.28

>  <VSA_EState5>
1.09

>  <VSA_EState6>
8.39

>  <VSA_EState7>
1.19

>  <VSA_EState8>
8.75

>  <VSA_EState9>
2.2

>  <apol>
50.93

>  <bpol>
34.09

>  <nRing>
3

>  <nHRing>
2

>  <naRing>
2

>  <naHRing>
1

>  <nARing 2>
1

>  <nAHRing 2>
1

>  <nFRing>
1

>  <nFHRing>
1

>  <nFaRing>
1

>  <nFaHRing>
1

>  <nFARing 2>
0

>  <nFAHRing 2>
0

>  <nRot>
5

>  <SLogP>
2.21

>  <SMR>
90.55

>  <TopoPSA(NO)>
33.53

>  <TopoPSA>
33.53

>  <JGI1>
0.13

>  <JGI2>
0.07

>  <JGI3>
0.05

>  <JGI4>
0.03

>  <JGI5>
0.02

>  <Diameter>
11

>  <Radius>
6

>  <TMWC10>
120.08

>  <TSRW10>
70.34

>  <MW>
302.21

>  <AMW>
6.3

>  <WPath>
1041

>  <WPol>
35

>  <Zagreb1>
112

>  <Zagreb2>
131

>  <mZagreb2>
5.03

>  <yes>


>  <nAR-cont>
0.816016

>  <nHA-cont>
0.983774276

>  <MWHBN>
0.287617687

>  <MWHBN-cont>
0.876086119

>  <TPSA-cont>
0.765939779

>  <pka_cont>
0.97

>  <yes.1>


>  <BBB_SCORE>
5.130799012

>  <MMFF94 Energy>
40.066

$$$$
Compound 3115
Actelion Java MolfileCreator 2.0

  0  0  0  0  0  0              0 V3000
M  V30 BEGIN CTAB
M  V30 COUNTS 41 44 0 0 0
M  V30 BEGIN ATOM
M  V30 1 S -2.6094 -1.5487 3.3443 0
M  V30 2 C -2.1192 -0.6884 1.9382 0
M  V30 3 C -1.477 -2.7954 3.0708 0
M  V30 4 C -2.8179 0.5522 1.5923 0
M  V30 5 C -1.0721 -1.3383 1.2996 0
M  V30 6 C -0.7277 -2.5707 1.9396 0
M  V30 7 O -3.7331 1.027 2.2734 0
M  V30 8 C -2.3548 1.3276 0.3649 0
M  V30 9 C -0.4736 -0.8517 0.0753 0
M  V30 10 C -2.3214 0.5108 -0.907 0
M  V30 11 C -1.3944 -0.5401 -1.0517 0
M  V30 12 C 0.853 -0.5816 -0.0536 0
M  V30 13 C -3.2209 0.7785 -1.9486 0
M  V30 14 C -1.4012 -1.324 -2.2138 0
M  V30 15 C 1.8843 -0.7553 1.0547 0
M  V30 16 C 1.5188 -0.008 -1.2998 0
M  V30 17 C -3.2051 0.0064 -3.1113 0
M  V30 18 C -2.2996 -1.0447 -3.243 0
M  V30 19 C 2.6802 0.5388 1.298 0
M  V30 20 C 2.3227 1.2634 -0.9793 0
M  V30 21 N 3.3284 1.0273 0.0697 0
M  V30 22 C 4.0866 2.2484 0.3393 0
M  V30 23 H -1.4209 -3.6376 3.7471 0
M  V30 24 H 0.0336 -3.2574 1.5889 0
M  V30 25 H -3.0336 2.1804 0.2339 0
M  V30 26 H -1.3685 1.763 0.5673 0
M  V30 27 H -3.9472 1.5842 -1.8599 0
M  V30 28 H -0.7087 -2.1561 -2.3183 0
M  V30 29 H 2.5706 -1.563 0.7689 0
M  V30 30 H 1.4396 -1.0464 2.0095 0
M  V30 31 H 2.1882 -0.7715 -1.7174 0
M  V30 32 H 0.8081 0.2447 -2.0907 0
M  V30 33 H -3.909 0.2191 -3.9125 0
M  V30 34 H -2.2988 -1.6521 -4.1445 0
M  V30 35 H 3.4454 0.3282 2.0554 0
M  V30 36 H 2.0117 1.3045 1.7154 0
M  V30 37 H 1.6335 2.0666 -0.6843 0
M  V30 38 H 2.8247 1.5875 -1.8993 0
M  V30 39 H 3.4476 3.0633 0.6986 0
M  V30 40 H 4.6022 2.5881 -0.5657 0
M  V30 41 H 4.8619 2.0612 1.0906 0
M  V30 END ATOM
M  V30 BEGIN BOND
M  V30 1 1 1 2
M  V30 2 1 1 3
M  V30 3 1 2 4
M  V30 4 2 2 5
M  V30 5 2 3 6
M  V30 6 2 4 7
M  V30 7 1 4 8
M  V30 8 1 5 9
M  V30 9 1 8 10
M  V30 10 1 9 11
M  V30 11 2 9 12
M  V30 12 1 10 13
M  V30 13 1 11 14
M  V30 14 1 12 15
M  V30 15 1 12 16
M  V30 16 2 13 17
M  V30 17 2 14 18
M  V30 18 1 15 19
M  V30 19 1 16 20
M  V30 20 1 19 21
M  V30 21 1 21 22
M  V30 22 1 5 6
M  V30 23 2 10 11
M  V30 24 1 17 18
M  V30 25 1 20 21
M  V30 26 1 3 23
M  V30 27 1 6 24
M  V30 28 1 8 25
M  V30 29 1 8 26
M  V30 30 1 13 27
M  V30 31 1 14 28
M  V30 32 1 15 29
M  V30 33 1 15 30
M  V30 34 1 16 31
M  V30 35 1 16 32
M  V30 36 1 17 33
M  V30 37 1 18 34
M  V30 38 1 19 35
M  V30 39 1 19 36
M  V30 40 1 20 37
M  V30 41 1 20 38
M  V30 42 1 22 39
M  V30 43 1 22 40
M  V30 44 1 22 41
M  V30 END BOND
M  V30 END CTAB
M  END
>  <Column 1>
4001

>  <level_0>
7790

>  <index>
7792

>  <Unnamed: 0>
7792

>  <NO.>
7805

>  <Name>
ketotifen

>  <IUPAC_name>
2-(1-methylpiperidin-4-ylidene)-6-thiatricyclo[8.4.0.03-7]tetradeca-1(14)-3(7)-4-10-12-pentaen-8-one

>  <SMILES>
CN1CCC(=C2c3ccccc3CC(=O)c3sccc32)CC1

>  <CID>
3827

>  <logBB>


>  <BBB+/BBB->
BBB+

>  <Inchi>
InChI=1S/C19H19NOS/c1-20-9-6-13(7-10-20)18-15-5-3-2-4-14(15)12-17(21)19-16(18)8-11-22-19/h2-5-8-11H-6-7-9-10-12H2-1H3

>  <threshold>


>  <reference>
R15|R27|R50|

>  <group>
D

>  <Class>
-1

>  <ABC>
17.65

>  <ABCGG>
14.48

>  <nAcid>
0

>  <nBase>
1

>  <nAromAtom>
11

>  <nAromBond>
11

>  <nAtom>
41

>  <nHeavyAtom>
22

>  <nSpiro>
0

>  <nBridgehead>
0

>  <nHetero>
3

>  <nN>
1

>  <nO>
1

>  <nF>
0

>  <BalabanJ>
1.61

>  <BertzCT>
761.25

>  <nBonds>
44

>  <nBondsO>
25

>  <nBondsS>
31

>  <nBondsD>
2

>  <nBondsT>
0

>  <nBondsA>
11

>  <nBondsM>
13

>  <nBondsKS>
37

>  <nBondsKD>
7

>  <RNCG>
0.26

>  <RPCG>
0.15

>  <FCSP3>
0.32

>  <SZ>
27.33

>  <Sm>
25.76

>  <Sv>
26.81

>  <Sse>
40.51

>  <Sp>
29.46

>  <Si>
45.37

>  <MZ>
0.67

>  <Mm>
0.63

>  <Mv>
0.65

>  <Mse>
0.99

>  <Mp>
0.72

>  <Mi>
1.11

>  <NsCH3>
1

>  <NdCH2>
0

>  <NssCH2>
5

>  <NtCH>
0

>  <NdsCH>
0

>  <NaaCH>
6

>  <NsssCH>
0

>  <NddC>
0

>  <NtsC>
0

>  <NdssC>
3

>  <NaasC>
4

>  <NaaaC>
0

>  <NssssC>
0

>  <NsNH3>
0

>  <NsNH2>
0

>  <NssNH2>
0

>  <NdNH>
0

>  <NssNH>
0

>  <NaaNH>
0

>  <NtN>
0

>  <NsssNH>
0

>  <NdsN>
0

>  <NaaN>
0

>  <NsssN>
1

>  <NddsN>
0

>  <NaasN>
0

>  <NssssN>
0

>  <NsOH>
0

>  <NdO>
1

>  <NssO>
0

>  <NaaO>
0

>  <NsF>
0

>  <NsSiH3>
0

>  <NssSiH2>
0

>  <NsssSiH>
0

>  <NssssSi>
0

>  <NsPH2>
0

>  <NssPH>
0

>  <NsssP>
0

>  <NdsssP>
0

>  <NsssssP>
0

>  <NsSH>
0

>  <NdS>
0

>  <NssS>
0

>  <NaaS>
1

>  <NdssS>
0

>  <NddssS>
0

>  <NsCl>
0

>  <NsBr>
0

>  <NsI>
0

>  <fragCpx>
163.03

>  <fMF>
0.49

>  <nHBAcc>
3

>  <nHBDon>
0

>  <Kier1>
15.52

>  <Kier2>
6.48

>  <Lipinski>
1

>  <GhoseFilter>
1

>  <FilterItLogS>
-5.06

>  <VMcGowan>
237.23

>  <LabuteASA>
134.63

>  <PEOE_VSA1>
4.9

>  <PEOE_VSA2>
4.79

>  <PEOE_VSA3>
0

>  <PEOE_VSA4>
0

>  <PEOE_VSA5>
11.34

>  <PEOE_VSA6>
29.84

>  <PEOE_VSA7>
48.04

>  <PEOE_VSA8>
25.07

>  <PEOE_VSA9>
4.88

>  <PEOE_VSA10>
0

>  <PEOE_VSA11>
5.78

>  <PEOE_VSA12>
0

>  <PEOE_VSA13>
0

>  <SMR_VSA1>
4.79

>  <SMR_VSA2>
0

>  <SMR_VSA3>
4.9

>  <SMR_VSA4>
0

>  <SMR_VSA5>
19.26

>  <SMR_VSA6>
20.14

>  <SMR_VSA7>
62.85

>  <SMR_VSA8>
0

>  <SMR_VSA9>
0

>  <SlogP_VSA1>
0

>  <SlogP_VSA2>
30.82

>  <SlogP_VSA3>
6.42

>  <SlogP_VSA4>
0

>  <SlogP_VSA5>
39.2

>  <SlogP_VSA6>
41.29

>  <SlogP_VSA7>
0

>  <SlogP_VSA8>
5.57

>  <SlogP_VSA9>
0

>  <SlogP_VSA10>
0

>  <SlogP_VSA11>
0

>  <EState_VSA1>
0

>  <EState_VSA2>
5.78

>  <EState_VSA3>
6.42

>  <EState_VSA4>
30.81

>  <EState_VSA5>
27.84

>  <EState_VSA6>
11.34

>  <EState_VSA7>
6.07

>  <EState_VSA8>
41.59

>  <EState_VSA9>
0

>  <EState_VSA10>
4.79

>  <VSA_EState1>
0

>  <VSA_EState2>
15.91

>  <VSA_EState3>
2.06

>  <VSA_EState4>
6.47

>  <VSA_EState5>
0.26

>  <VSA_EState6>
10.58

>  <VSA_EState7>
2.73

>  <VSA_EState8>
2.21

>  <VSA_EState9>
2.18

>  <apol>
49.2

>  <bpol>
24.1

>  <nRing>
4

>  <nHRing>
2

>  <naRing>
2

>  <naHRing>
1

>  <nARing 2>
2

>  <nAHRing 2>
1

>  <nFRing>
1

>  <nFHRing>
1

>  <nFaRing>
0

>  <nFaHRing>
0

>  <nFARing 2>
1

>  <nFAHRing 2>
1

>  <nRot>
0

>  <SLogP>
4.01

>  <SMR>
91.55

>  <TopoPSA(NO)>
20.31

>  <TopoPSA>
48.55

>  <JGI1>
0.14

>  <JGI2>
0.07

>  <JGI3>
0.04

>  <JGI4>
0.04

>  <JGI5>
0.02

>  <Diameter>
9

>  <Radius>
5

>  <TMWC10>
122.85

>  <TSRW10>
70.59

>  <MW>
309.12

>  <AMW>
7.54

>  <WPath>
917

>  <WPol>
40

>  <Zagreb1>
122

>  <Zagreb2>
148

>  <mZagreb2>
4.75

>  <yes>


>  <nAR-cont>
1

>  <nHA-cont>
0.983774276

>  <MWHBN>
0.170630908

>  <MWHBN-cont>
0.974941643

>  <TPSA-cont>
0.661090852

>  <pka_cont>
0.97

>  <yes.1>


>  <BBB_SCORE>
5.253368445

>  <MMFF94 Energy>
101.34

$$$$
Compound 3116
Actelion Java MolfileCreator 2.0

  0  0  0  0  0  0              0 V3000
M  V30 BEGIN CTAB
M  V30 COUNTS 25 26 0 0 0
M  V30 BEGIN ATOM
M  V30 1 O 2.4744 1.7556 3.1138 0
M  V30 2 C 1.749 1.2028 2.2949 0
M  V30 3 N 1.6832 1.6382 0.9922 0
M  V30 4 C 0.8942 0.0361 2.6344 0
M  V30 5 C 0.897 1.0795 0.0022 0
M  V30 6 C 0.8996 -0.4792 3.9556 0
M  V30 7 C 0.1322 -0.5021 1.6671 0
M  V30 8 C 0.1154 0.0165 0.3032 0
M  V30 9 C 1.0124 1.75 -1.3416 0
M  V30 10 N 0.8605 -0.9461 5.0179 0
M  V30 11 C -0.7399 -0.6123 -0.7202 0
M  V30 12 C -2.0528 -0.1771 -0.9071 0
M  V30 13 C -0.2539 -1.6662 -1.4953 0
M  V30 14 C -2.8193 -0.8079 -1.872 0
M  V30 15 C -1.0999 -2.2311 -2.4342 0
M  V30 16 N -2.3704 -1.8232 -2.6403 0
M  V30 17 H 2.2731 2.4353 0.7786 0
M  V30 18 H -0.5066 -1.3575 1.8788 0
M  V30 19 H 2.0481 1.7056 -1.6956 0
M  V30 20 H 0.3849 1.2969 -2.1132 0
M  V30 21 H 0.722 2.8034 -1.2619 0
M  V30 22 H -2.473 0.6329 -0.3206 0
M  V30 23 H 0.7569 -2.0407 -1.3769 0
M  V30 24 H -3.8462 -0.5056 -2.0585 0
M  V30 25 H -0.7698 -3.0521 -3.0645 0
M  V30 END ATOM
M  V30 BEGIN BOND
M  V30 1 2 1 2
M  V30 2 1 2 3
M  V30 3 1 2 4
M  V30 4 1 3 5
M  V30 5 1 4 6
M  V30 6 2 4 7
M  V30 7 2 5 8
M  V30 8 1 5 9
M  V30 9 3 6 10
M  V30 10 1 8 11
M  V30 11 2 11 12
M  V30 12 1 11 13
M  V30 13 1 12 14
M  V30 14 2 13 15
M  V30 15 2 14 16
M  V30 16 1 7 8
M  V30 17 1 15 16
M  V30 18 1 3 17
M  V30 19 1 7 18
M  V30 20 1 9 19
M  V30 21 1 9 20
M  V30 22 1 9 21
M  V30 23 1 12 22
M  V30 24 1 13 23
M  V30 25 1 14 24
M  V30 26 1 15 25
M  V30 END BOND
M  V30 END CTAB
M  END
>  <Column 1>
4002

>  <level_0>
7791

>  <index>
7793

>  <Unnamed: 0>
7793

>  <NO.>
7806

>  <Name>
milrinone

>  <IUPAC_name>
6-methyl-2-oxo-5-pyridin-4-yl-1h-pyridine-3-carbonitrile

>  <SMILES>
Cc1[nH]c(=O)c(C#N)cc1-c1ccncc1

>  <CID>
4197

>  <logBB>


>  <BBB+/BBB->
BBB-

>  <Inchi>
InChI=1S/C12H9N3O/c1-8-11(9-2-4-14-5-3-9)6-10(7-13)12(16)15-8/h2-6H-1H3-(H-15-16)

>  <threshold>


>  <reference>
R15|R23|R27|

>  <group>
D

>  <Class>
-1

>  <ABC>
12.12

>  <ABCGG>
10.62

>  <nAcid>
0

>  <nBase>
0

>  <nAromAtom>
12

>  <nAromBond>
12

>  <nAtom>
25

>  <nHeavyAtom>
16

>  <nSpiro>
0

>  <nBridgehead>
0

>  <nHetero>
4

>  <nN>
3

>  <nO>
1

>  <nF>
0

>  <BalabanJ>
1.96

>  <BertzCT>
608.4

>  <nBonds>
26

>  <nBondsO>
17

>  <nBondsS>
12

>  <nBondsD>
1

>  <nBondsT>
1

>  <nBondsA>
12

>  <nBondsM>
14

>  <nBondsKS>
19

>  <nBondsKD>
6

>  <RNCG>
0.27

>  <RPCG>
0.22

>  <FCSP3>
0.08

>  <SZ>
18.33

>  <Sm>
17.59

>  <Sv>
17.43

>  <Sse>
25.32

>  <Sp>
18.05

>  <Si>
27.95

>  <MZ>
0.73

>  <Mm>
0.7

>  <Mv>
0.7

>  <Mse>
1.01

>  <Mp>
0.72

>  <Mi>
1.12

>  <NsCH3>
1

>  <NdCH2>
0

>  <NssCH2>
0

>  <NtCH>
0

>  <NdsCH>
0

>  <NaaCH>
5

>  <NsssCH>
0

>  <NddC>
0

>  <NtsC>
1

>  <NdssC>
0

>  <NaasC>
4

>  <NaaaC>
0

>  <NssssC>
0

>  <NsNH3>
0

>  <NsNH2>
0

>  <NssNH2>
0

>  <NdNH>
0

>  <NssNH>
0

>  <NaaNH>
1

>  <NtN>
1

>  <NsssNH>
0

>  <NdsN>
0

>  <NaaN>
1

>  <NsssN>
0

>  <NddsN>
0

>  <NaasN>
0

>  <NssssN>
0

>  <NsOH>
0

>  <NdO>
1

>  <NssO>
0

>  <NaaO>
0

>  <NsF>
0

>  <NsSiH3>
0

>  <NssSiH2>
0

>  <NsssSiH>
0

>  <NssssSi>
0

>  <NsPH2>
0

>  <NssPH>
0

>  <NsssP>
0

>  <NdsssP>
0

>  <NsssssP>
0

>  <NsSH>
0

>  <NdS>
0

>  <NssS>
0

>  <NaaS>
0

>  <NdssS>
0

>  <NddssS>
0

>  <NsCl>
0

>  <NsBr>
0

>  <NsI>
0

>  <fragCpx>
49.04

>  <fMF>
0.48

>  <nHBAcc>
3

>  <nHBDon>
1

>  <Kier1>
12.46

>  <Kier2>
5.56

>  <Lipinski>
1

>  <GhoseFilter>
1

>  <FilterItLogS>
-3.8

>  <VMcGowan>
159.63

>  <LabuteASA>
92.21

>  <PEOE_VSA1>
4.98

>  <PEOE_VSA2>
9.78

>  <PEOE_VSA3>
0

>  <PEOE_VSA4>
5.26

>  <PEOE_VSA5>
0

>  <PEOE_VSA6>
0

>  <PEOE_VSA7>
30.69

>  <PEOE_VSA8>
23.65

>  <PEOE_VSA9>
0

>  <PEOE_VSA10>
11.63

>  <PEOE_VSA11>
0

>  <PEOE_VSA12>
0

>  <PEOE_VSA13>
5.56

>  <SMR_VSA1>
0

>  <SMR_VSA2>
5.26

>  <SMR_VSA3>
9.97

>  <SMR_VSA4>
0

>  <SMR_VSA5>
6.92

>  <SMR_VSA6>
0

>  <SMR_VSA7>
52.2

>  <SMR_VSA8>
0

>  <SMR_VSA9>
17.2

>  <SlogP_VSA1>
5.56

>  <SlogP_VSA2>
9.97

>  <SlogP_VSA3>
0

>  <SlogP_VSA4>
18.25

>  <SlogP_VSA5>
11.26

>  <SlogP_VSA6>
35.39

>  <SlogP_VSA7>
0

>  <SlogP_VSA8>
11.13

>  <SlogP_VSA9>
0

>  <SlogP_VSA10>
0

>  <SlogP_VSA11>
0

>  <EState_VSA1>
0

>  <EState_VSA2>
11.12

>  <EState_VSA3>
0

>  <EState_VSA4>
16.82

>  <EState_VSA5>
0

>  <EState_VSA6>
25.38

>  <EState_VSA7>
18.2

>  <EState_VSA8>
9.97

>  <EState_VSA9>
5.26

>  <EState_VSA10>
4.79

>  <VSA_EState1>
0

>  <VSA_EState2>
17.95

>  <VSA_EState3>
8.8

>  <VSA_EState4>
2.3

>  <VSA_EState5>
0

>  <VSA_EState6>
7.14

>  <VSA_EState7>
3.35

>  <VSA_EState8>
1.8

>  <VSA_EState9>
0

>  <apol>
30.14

>  <bpol>
12.18

>  <nRing>
2

>  <nHRing>
2

>  <naRing>
2

>  <naHRing>
2

>  <nARing 2>
0

>  <nAHRing 2>
0

>  <nFRing>
0

>  <nFHRing>
0

>  <nFaRing>
0

>  <nFaHRing>
0

>  <nFARing 2>
0

>  <nFAHRing 2>
0

>  <nRot>
1

>  <SLogP>
1.62

>  <SMR>
59.75

>  <TopoPSA(NO)>
69.54

>  <TopoPSA>
69.54

>  <JGI1>
0.18

>  <JGI2>
0.09

>  <JGI3>
0.05

>  <JGI4>
0.05

>  <JGI5>
0.03

>  <Diameter>
8

>  <Radius>
4

>  <TMWC10>
103.46

>  <TSRW10>
48.34

>  <MW>
211.07

>  <AMW>
8.44

>  <WPath>
425

>  <WPol>
24

>  <Zagreb1>
80

>  <Zagreb2>
93

>  <mZagreb2>
3.67

>  <yes>


>  <nAR-cont>
0.336376

>  <nHA-cont>
0.954961865

>  <MWHBN>
0.27532569

>  <MWHBN-cont>
0.907638961

>  <TPSA-cont>
0.514567618

>  <pka_cont>
0.97

>  <yes.1>


>  <BBB_SCORE>
4.166931543

>  <MMFF94 Energy>
17.13

$$$$
Compound 3117
Actelion Java MolfileCreator 2.0

  0  0  0  0  0  0              0 V3000
M  V30 BEGIN CTAB
M  V30 COUNTS 23 24 0 0 0
M  V30 BEGIN ATOM
M  V30 1 O -0.6312 -2.0525 -3.7127 0
M  V30 2 C -0.4062 -1.4763 -2.6506 0
M  V30 3 N 0.8708 -1.2464 -2.1992 0
M  V30 4 C -1.5353 -0.978 -1.7625 0
M  V30 5 C 1.1668 -0.6082 -1.0224 0
M  V30 6 N -2.8166 -1.1971 -2.1915 0
M  V30 7 C -1.1956 -0.3592 -0.6196 0
M  V30 8 C 0.1879 -0.1584 -0.218 0
M  V30 9 C 0.5632 0.5238 1.0301 0
M  V30 10 C 0.9596 -0.2096 2.1493 0
M  V30 11 C 0.5108 1.9157 1.1135 0
M  V30 12 C 1.2939 0.4822 3.3011 0
M  V30 13 C 0.866 2.5141 2.3105 0
M  V30 14 N 1.2578 1.828 3.4055 0
M  V30 15 H 1.6125 -1.5816 -2.8009 0
M  V30 16 H 2.2228 -0.4927 -0.7953 0
M  V30 17 H -2.9299 -1.6824 -3.0786 0
M  V30 18 H -3.616 -0.8994 -1.6522 0
M  V30 19 H -1.9656 0.0115 0.0494 0
M  V30 20 H 1.0041 -1.2933 2.1312 0
M  V30 21 H 0.204 2.5236 0.269 0
M  V30 22 H 1.608 -0.0431 4.1987 0
M  V30 23 H 0.8442 3.5943 2.4247 0
M  V30 END ATOM
M  V30 BEGIN BOND
M  V30 1 2 1 2
M  V30 2 1 2 3
M  V30 3 1 2 4
M  V30 4 1 3 5
M  V30 5 1 4 6
M  V30 6 2 4 7
M  V30 7 2 5 8
M  V30 8 1 8 9
M  V30 9 2 9 10
M  V30 10 1 9 11
M  V30 11 1 10 12
M  V30 12 2 11 13
M  V30 13 2 12 14
M  V30 14 1 7 8
M  V30 15 1 13 14
M  V30 16 1 3 15
M  V30 17 1 5 16
M  V30 18 1 6 17
M  V30 19 1 6 18
M  V30 20 1 7 19
M  V30 21 1 10 20
M  V30 22 1 11 21
M  V30 23 1 12 22
M  V30 24 1 13 23
M  V30 END BOND
M  V30 END CTAB
M  END
>  <Column 1>
4003

>  <level_0>
7792

>  <index>
7794

>  <Unnamed: 0>
7794

>  <NO.>
7807

>  <Name>
amrinone

>  <IUPAC_name>
3-amino-5-pyridin-4-yl-1h-pyridin-2-one

>  <SMILES>
Nc1cc(-c2ccncc2)c[nH]c1=O

>  <CID>
3698

>  <logBB>


>  <BBB+/BBB->
BBB-

>  <Inchi>
InChI=1S/C10H9N3O/c11-9-5-8(6-13-10(9)14)7-1-3-12-4-2-7/h1-6H-11H2-(H-13-14)

>  <threshold>


>  <reference>
R15|R23|R27|

>  <group>
D

>  <Class>
1

>  <ABC>
10.74

>  <ABCGG>
9.2

>  <nAcid>
0

>  <nBase>
0

>  <nAromAtom>
12

>  <nAromBond>
12

>  <nAtom>
23

>  <nHeavyAtom>
14

>  <nSpiro>
0

>  <nBridgehead>
0

>  <nHetero>
4

>  <nN>
3

>  <nO>
1

>  <nF>
0

>  <BalabanJ>
1.85

>  <BertzCT>
490.22

>  <nBonds>
24

>  <nBondsO>
15

>  <nBondsS>
11

>  <nBondsD>
1

>  <nBondsT>
0

>  <nBondsA>
12

>  <nBondsM>
13

>  <nBondsKS>
18

>  <nBondsKD>
6

>  <RNCG>
0.29

>  <RPCG>
0.2

>  <FCSP3>
0

>  <SZ>
16.33

>  <Sm>
15.59

>  <Sv>
15.43

>  <Sse>
23.32

>  <Sp>
16.05

>  <Si>
25.95

>  <MZ>
0.71

>  <Mm>
0.68

>  <Mv>
0.67

>  <Mse>
1.01

>  <Mp>
0.7

>  <Mi>
1.13

>  <NsCH3>
0

>  <NdCH2>
0

>  <NssCH2>
0

>  <NtCH>
0

>  <NdsCH>
0

>  <NaaCH>
6

>  <NsssCH>
0

>  <NddC>
0

>  <NtsC>
0

>  <NdssC>
0

>  <NaasC>
3

>  <NaaaC>
0

>  <NssssC>
0

>  <NsNH3>
0

>  <NsNH2>
1

>  <NssNH2>
0

>  <NdNH>
0

>  <NssNH>
0

>  <NaaNH>
1

>  <NtN>
0

>  <NsssNH>
0

>  <NdsN>
0

>  <NaaN>
1

>  <NsssN>
0

>  <NddsN>
0

>  <NaasN>
0

>  <NssssN>
0

>  <NsOH>
0

>  <NdO>
1

>  <NssO>
0

>  <NaaO>
0

>  <NsF>
0

>  <NsSiH3>
0

>  <NssSiH2>
0

>  <NsssSiH>
0

>  <NssssSi>
0

>  <NsPH2>
0

>  <NssPH>
0

>  <NsssP>
0

>  <NdsssP>
0

>  <NsssssP>
0

>  <NsSH>
0

>  <NdS>
0

>  <NssS>
0

>  <NaaS>
0

>  <NdssS>
0

>  <NddssS>
0

>  <NsCl>
0

>  <NsBr>
0

>  <NsI>
0

>  <fragCpx>
43.04

>  <fMF>
0.52

>  <nHBAcc>
3

>  <nHBDon>
2

>  <Kier1>
10.52

>  <Kier2>
4.68

>  <Lipinski>
1

>  <GhoseFilter>
1

>  <FilterItLogS>
-2.81

>  <VMcGowan>
140.05

>  <LabuteASA>
80.43

>  <PEOE_VSA1>
10.72

>  <PEOE_VSA2>
9.78

>  <PEOE_VSA3>
0

>  <PEOE_VSA4>
0

>  <PEOE_VSA5>
0

>  <PEOE_VSA6>
0

>  <PEOE_VSA7>
23.76

>  <PEOE_VSA8>
24.15

>  <PEOE_VSA9>
5.69

>  <PEOE_VSA10>
0

>  <PEOE_VSA11>
0

>  <PEOE_VSA12>
0

>  <PEOE_VSA13>
5.56

>  <SMR_VSA1>
0

>  <SMR_VSA2>
0

>  <SMR_VSA3>
9.97

>  <SMR_VSA4>
0

>  <SMR_VSA5>
0

>  <SMR_VSA6>
5.73

>  <SMR_VSA7>
47.14

>  <SMR_VSA8>
0

>  <SMR_VSA9>
11.13

>  <SlogP_VSA1>
11.29

>  <SlogP_VSA2>
9.97

>  <SlogP_VSA3>
0

>  <SlogP_VSA4>
0

>  <SlogP_VSA5>
0

>  <SlogP_VSA6>
41.58

>  <SlogP_VSA7>
0

>  <SlogP_VSA8>
11.13

>  <SlogP_VSA9>
0

>  <SlogP_VSA10>
5.69

>  <SlogP_VSA11>
0

>  <EState_VSA1>
0

>  <EState_VSA2>
11.25

>  <EState_VSA3>
0

>  <EState_VSA4>
11.13

>  <EState_VSA5>
0

>  <EState_VSA6>
24.66

>  <EState_VSA7>
12.13

>  <EState_VSA8>
9.97

>  <EState_VSA9>
5.73

>  <EState_VSA10>
4.79

>  <VSA_EState1>
0

>  <VSA_EState2>
17.48

>  <VSA_EState3>
0

>  <VSA_EState4>
7.31

>  <VSA_EState5>
0

>  <VSA_EState6>
5.36

>  <VSA_EState7>
5.02

>  <VSA_EState8>
0

>  <VSA_EState9>
0

>  <apol>
26.8

>  <bpol>
11.04

>  <nRing>
2

>  <nHRing>
2

>  <naRing>
2

>  <naHRing>
2

>  <nARing 2>
0

>  <nAHRing 2>
0

>  <nFRing>
0

>  <nFHRing>
0

>  <nFaRing>
0

>  <nFaHRing>
0

>  <nFARing 2>
0

>  <nFAHRing 2>
0

>  <nRot>
1

>  <SLogP>
1.02

>  <SMR>
54.71

>  <TopoPSA(NO)>
71.77

>  <TopoPSA>
71.77

>  <JGI1>
0.17

>  <JGI2>
0.09

>  <JGI3>
0.03

>  <JGI4>
0.04

>  <JGI5>
0.03

>  <Diameter>
8

>  <Radius>
4

>  <TMWC10>
97.51

>  <TSRW10>
45.52

>  <MW>
187.07

>  <AMW>
8.13

>  <WPath>
303

>  <WPol>
19

>  <Zagreb1>
70

>  <Zagreb2>
80

>  <mZagreb2>
3.14

>  <yes>


>  <nAR-cont>
0.336376

>  <nHA-cont>
0.887625254

>  <MWHBN>
0.365567797

>  <MWHBN-cont>
0.61102937

>  <TPSA-cont>
0.499000834

>  <pka_cont>
0.97

>  <yes.1>


>  <BBB_SCORE>
3.623546976

>  <MMFF94 Energy>
49.955

$$$$
